data_crystal

_cell_length_a 26.29100
_cell_length_b 26.29100
_cell_length_c 26.29100
_cell_angle_alpha 90.00000
_cell_angle_beta  90.00000
_cell_angle_gamma 90.00000

_symmetry_space_group_name_	'P 1'
_symmetry_space_group_name_H-M	'P 1'

loop_
_symmetry_equiv_pos_as_xyz
  x,y,z

loop_
_atom_site_label
_atom_site_type_symbol
_atom_site_fract_x
_atom_site_fract_y
_atom_site_fract_z
_atom_site_charge
O 	O 	0.15200 0.29850 0.11070 -0.37600
O 	O 	0.19150 0.24980 0.05510 -0.43000
N 	N 	0.12870 0.36910 0.04310 -0.23400
C 	C 	0.15040 0.32480 0.02610 -0.13500
C 	C 	0.16580 0.28830 0.06560 0.32900
O 	O 	0.15200 0.79850 0.61070 -0.36900
O 	O 	0.19150 0.74980 0.55510 -0.41200
N 	N 	0.12870 0.86910 0.54310 -0.24500
C 	C 	0.15040 0.82480 0.52610 -0.07500
C 	C 	0.16580 0.78830 0.56560 0.31200
O 	O 	0.65200 0.29850 0.61070 -0.36800
O 	O 	0.69150 0.24980 0.55510 -0.41200
N 	N 	0.62870 0.36910 0.54310 -0.24600
C 	C 	0.65040 0.32480 0.52610 -0.07400
C 	C 	0.66580 0.28830 0.56560 0.31300
O 	O 	0.65200 0.79850 0.11070 -0.37400
O 	O 	0.69150 0.74980 0.05510 -0.42700
N 	N 	0.62870 0.86910 0.04310 -0.23100
C 	C 	0.65040 0.82480 0.02610 -0.13400
C 	C 	0.66580 0.78830 0.06560 0.33000
O 	O 	0.84800 0.70150 0.11070 -0.37000
O 	O 	0.80850 0.75020 0.05510 -0.42200
N 	N 	0.87130 0.63090 0.04310 -0.23100
C 	C 	0.84960 0.67520 0.02610 -0.13200
C 	C 	0.83420 0.71170 0.06560 0.33000
O 	O 	0.84800 0.20150 0.61070 -0.36400
O 	O 	0.80850 0.25020 0.55510 -0.40800
N 	N 	0.87130 0.13090 0.54310 -0.24500
C 	C 	0.84960 0.17520 0.52610 -0.07200
C 	C 	0.83420 0.21170 0.56560 0.31300
O 	O 	0.34800 0.70150 0.61070 -0.36600
O 	O 	0.30850 0.75020 0.55510 -0.40800
N 	N 	0.37130 0.63090 0.54310 -0.24600
C 	C 	0.34960 0.67520 0.52610 -0.07400
C 	C 	0.33420 0.71170 0.56560 0.31200
O 	O 	0.34800 0.20150 0.11070 -0.37400
O 	O 	0.30850 0.25020 0.05510 -0.42700
N 	N 	0.37130 0.13090 0.04310 -0.23500
C 	C 	0.34960 0.17520 0.02610 -0.13600
C 	C 	0.33420 0.21170 0.06560 0.32800
O 	O 	0.84800 0.29850 0.88930 -0.35700
O 	O 	0.80850 0.24980 0.94490 -0.38500
N 	N 	0.87130 0.36910 0.95690 -0.22500
C 	C 	0.84960 0.32480 0.97390 -0.00700
C 	C 	0.83420 0.28830 0.93440 0.29600
O 	O 	0.84800 0.79850 0.38930 -0.36400
O 	O 	0.80850 0.74980 0.44490 -0.40700
N 	N 	0.87130 0.86910 0.45690 -0.24100
C 	C 	0.84960 0.82480 0.47390 -0.07100
C 	C 	0.83420 0.78830 0.43440 0.31400
O 	O 	0.34800 0.29850 0.38930 -0.36800
O 	O 	0.30850 0.24980 0.44490 -0.41300
N 	N 	0.37130 0.36910 0.45690 -0.24600
C 	C 	0.34960 0.32480 0.47390 -0.07500
C 	C 	0.33420 0.28830 0.43440 0.31200
O 	O 	0.34800 0.79850 0.88930 -0.35900
O 	O 	0.30850 0.74980 0.94490 -0.38600
N 	N 	0.37130 0.86910 0.95690 -0.22500
C 	C 	0.34960 0.82480 0.97390 -0.00800
C 	C 	0.33420 0.78830 0.93440 0.29500
O 	O 	0.15200 0.70150 0.88930 -0.36000
O 	O 	0.19150 0.75020 0.94490 -0.38600
N 	N 	0.12870 0.63090 0.95690 -0.22800
C 	C 	0.15040 0.67520 0.97390 -0.01000
C 	C 	0.16580 0.71170 0.93440 0.29400
O 	O 	0.15200 0.20150 0.38930 -0.36900
O 	O 	0.19150 0.25020 0.44490 -0.41300
N 	N 	0.12870 0.13090 0.45690 -0.24800
C 	C 	0.15040 0.17520 0.47390 -0.07600
C 	C 	0.16580 0.21170 0.43440 0.31100
O 	O 	0.65200 0.70150 0.38930 -0.36600
O 	O 	0.69150 0.75020 0.44490 -0.40800
N 	N 	0.62870 0.63090 0.45690 -0.24600
C 	C 	0.65040 0.67520 0.47390 -0.07300
C 	C 	0.66580 0.71170 0.43440 0.31300
O 	O 	0.65200 0.20150 0.88930 -0.35900
O 	O 	0.69150 0.25020 0.94490 -0.38600
N 	N 	0.62870 0.13090 0.95690 -0.22800
C 	C 	0.65040 0.17520 0.97390 -0.00900
C 	C 	0.66580 0.21170 0.93440 0.29500
O 	O 	0.11070 0.15200 0.29850 -0.37700
O 	O 	0.05510 0.19150 0.24980 -0.43100
N 	N 	0.04310 0.12870 0.36910 -0.23500
C 	C 	0.02610 0.15040 0.32480 -0.13600
C 	C 	0.06560 0.16580 0.28830 0.32800
O 	O 	0.11070 0.65200 0.79850 -0.37400
O 	O 	0.05510 0.69150 0.74980 -0.42700
N 	N 	0.04310 0.62870 0.86910 -0.23100
C 	C 	0.02610 0.65040 0.82480 -0.13400
C 	C 	0.06560 0.66580 0.78830 0.33000
O 	O 	0.61070 0.15200 0.79850 -0.36900
O 	O 	0.55510 0.19150 0.74980 -0.41200
N 	N 	0.54310 0.12870 0.86910 -0.24500
C 	C 	0.52610 0.15040 0.82480 -0.07500
C 	C 	0.56560 0.16580 0.78830 0.31200
O 	O 	0.61070 0.65200 0.29850 -0.36800
O 	O 	0.55510 0.69150 0.24980 -0.41200
N 	N 	0.54310 0.62870 0.36910 -0.24600
C 	C 	0.52610 0.65040 0.32480 -0.07400
C 	C 	0.56560 0.66580 0.28830 0.31300
O 	O 	0.11070 0.84800 0.70150 -0.37000
O 	O 	0.05510 0.80850 0.75020 -0.42200
N 	N 	0.04310 0.87130 0.63090 -0.23100
C 	C 	0.02610 0.84960 0.67520 -0.13200
C 	C 	0.06560 0.83420 0.71170 0.33000
O 	O 	0.11070 0.34800 0.20150 -0.37400
O 	O 	0.05510 0.30850 0.25020 -0.42700
N 	N 	0.04310 0.37130 0.13090 -0.23500
C 	C 	0.02610 0.34960 0.17520 -0.13600
C 	C 	0.06560 0.33420 0.21170 0.32800
O 	O 	0.61070 0.84800 0.20150 -0.36400
O 	O 	0.55510 0.80850 0.25020 -0.40800
N 	N 	0.54310 0.87130 0.13090 -0.24500
C 	C 	0.52610 0.84960 0.17520 -0.07200
C 	C 	0.56560 0.83420 0.21170 0.31300
O 	O 	0.61070 0.34800 0.70150 -0.36600
O 	O 	0.55510 0.30850 0.75020 -0.40800
N 	N 	0.54310 0.37130 0.63090 -0.24600
C 	C 	0.52610 0.34960 0.67520 -0.07400
C 	C 	0.56560 0.33420 0.71170 0.31200
O 	O 	0.88930 0.84800 0.29850 -0.35700
O 	O 	0.94490 0.80850 0.24980 -0.38500
N 	N 	0.95690 0.87130 0.36910 -0.22500
C 	C 	0.97390 0.84960 0.32480 -0.00700
C 	C 	0.93440 0.83420 0.28830 0.29600
O 	O 	0.88930 0.34800 0.79850 -0.35900
O 	O 	0.94490 0.30850 0.74980 -0.38600
N 	N 	0.95690 0.37130 0.86910 -0.22500
C 	C 	0.97390 0.34960 0.82480 -0.00800
C 	C 	0.93440 0.33420 0.78830 0.29500
O 	O 	0.38930 0.84800 0.79850 -0.36400
O 	O 	0.44490 0.80850 0.74980 -0.40700
N 	N 	0.45690 0.87130 0.86910 -0.24100
C 	C 	0.47390 0.84960 0.82480 -0.07100
C 	C 	0.43440 0.83420 0.78830 0.31400
O 	O 	0.38930 0.34800 0.29850 -0.36800
O 	O 	0.44490 0.30850 0.24980 -0.41300
N 	N 	0.45690 0.37130 0.36910 -0.24600
C 	C 	0.47390 0.34960 0.32480 -0.07500
C 	C 	0.43440 0.33420 0.28830 0.31200
O 	O 	0.88930 0.15200 0.70150 -0.36000
O 	O 	0.94490 0.19150 0.75020 -0.38600
N 	N 	0.95690 0.12870 0.63090 -0.22800
C 	C 	0.97390 0.15040 0.67520 -0.01000
C 	C 	0.93440 0.16580 0.71170 0.29400
O 	O 	0.88930 0.65200 0.20150 -0.35900
O 	O 	0.94490 0.69150 0.25020 -0.38600
N 	N 	0.95690 0.62870 0.13090 -0.22800
C 	C 	0.97390 0.65040 0.17520 -0.00900
C 	C 	0.93440 0.66580 0.21170 0.29500
O 	O 	0.38930 0.15200 0.20150 -0.36900
O 	O 	0.44490 0.19150 0.25020 -0.41300
N 	N 	0.45690 0.12870 0.13090 -0.24800
C 	C 	0.47390 0.15040 0.17520 -0.07600
C 	C 	0.43440 0.16580 0.21170 0.31100
O 	O 	0.38930 0.65200 0.70150 -0.36600
O 	O 	0.44490 0.69150 0.75020 -0.40800
N 	N 	0.45690 0.62870 0.63090 -0.24600
C 	C 	0.47390 0.65040 0.67520 -0.07300
C 	C 	0.43440 0.66580 0.71170 0.31300
O 	O 	0.29850 0.11070 0.15200 -0.37700
O 	O 	0.24980 0.05510 0.19150 -0.43100
N 	N 	0.36910 0.04310 0.12870 -0.23500
C 	C 	0.32480 0.02610 0.15040 -0.13600
C 	C 	0.28830 0.06560 0.16580 0.32800
O 	O 	0.29850 0.61070 0.65200 -0.36800
O 	O 	0.24980 0.55510 0.69150 -0.41200
N 	N 	0.36910 0.54310 0.62870 -0.24600
C 	C 	0.32480 0.52610 0.65040 -0.07400
C 	C 	0.28830 0.56560 0.66580 0.31300
O 	O 	0.79850 0.11070 0.65200 -0.37400
O 	O 	0.74980 0.05510 0.69150 -0.42700
N 	N 	0.86910 0.04310 0.62870 -0.23100
C 	C 	0.82480 0.02610 0.65040 -0.13400
C 	C 	0.78830 0.06560 0.66580 0.33000
O 	O 	0.79850 0.61070 0.15200 -0.36900
O 	O 	0.74980 0.55510 0.19150 -0.41200
N 	N 	0.86910 0.54310 0.12870 -0.24500
C 	C 	0.82480 0.52610 0.15040 -0.07500
C 	C 	0.78830 0.56560 0.16580 0.31200
O 	O 	0.70150 0.11070 0.84800 -0.37000
O 	O 	0.75020 0.05510 0.80850 -0.42200
N 	N 	0.63090 0.04310 0.87130 -0.23100
C 	C 	0.67520 0.02610 0.84960 -0.13200
C 	C 	0.71170 0.06560 0.83420 0.33000
O 	O 	0.70150 0.61070 0.34800 -0.36600
O 	O 	0.75020 0.55510 0.30850 -0.40800
N 	N 	0.63090 0.54310 0.37130 -0.24600
C 	C 	0.67520 0.52610 0.34960 -0.07400
C 	C 	0.71170 0.56560 0.33420 0.31200
O 	O 	0.20150 0.11070 0.34800 -0.37400
O 	O 	0.25020 0.05510 0.30850 -0.42700
N 	N 	0.13090 0.04310 0.37130 -0.23500
C 	C 	0.17520 0.02610 0.34960 -0.13600
C 	C 	0.21170 0.06560 0.33420 0.32800
O 	O 	0.20150 0.61070 0.84800 -0.36400
O 	O 	0.25020 0.55510 0.80850 -0.40800
N 	N 	0.13090 0.54310 0.87130 -0.24500
C 	C 	0.17520 0.52610 0.84960 -0.07200
C 	C 	0.21170 0.56560 0.83420 0.31300
O 	O 	0.29850 0.88930 0.84800 -0.35700
O 	O 	0.24980 0.94490 0.80850 -0.38500
N 	N 	0.36910 0.95690 0.87130 -0.22500
C 	C 	0.32480 0.97390 0.84960 -0.00700
C 	C 	0.28830 0.93440 0.83420 0.29600
O 	O 	0.29850 0.38930 0.34800 -0.36800
O 	O 	0.24980 0.44490 0.30850 -0.41300
N 	N 	0.36910 0.45690 0.37130 -0.24600
C 	C 	0.32480 0.47390 0.34960 -0.07500
C 	C 	0.28830 0.43440 0.33420 0.31200
O 	O 	0.79850 0.88930 0.34800 -0.35900
O 	O 	0.74980 0.94490 0.30850 -0.38600
N 	N 	0.86910 0.95690 0.37130 -0.22500
C 	C 	0.82480 0.97390 0.34960 -0.00800
C 	C 	0.78830 0.93440 0.33420 0.29500
O 	O 	0.79850 0.38930 0.84800 -0.36400
O 	O 	0.74980 0.44490 0.80850 -0.40700
N 	N 	0.86910 0.45690 0.87130 -0.24100
C 	C 	0.82480 0.47390 0.84960 -0.07100
C 	C 	0.78830 0.43440 0.83420 0.31400
O 	O 	0.70150 0.88930 0.15200 -0.36000
O 	O 	0.75020 0.94490 0.19150 -0.38600
N 	N 	0.63090 0.95690 0.12870 -0.22800
C 	C 	0.67520 0.97390 0.15040 -0.01000
C 	C 	0.71170 0.93440 0.16580 0.29400
O 	O 	0.70150 0.38930 0.65200 -0.36600
O 	O 	0.75020 0.44490 0.69150 -0.40800
N 	N 	0.63090 0.45690 0.62870 -0.24600
C 	C 	0.67520 0.47390 0.65040 -0.07300
C 	C 	0.71170 0.43440 0.66580 0.31300
O 	O 	0.20150 0.88930 0.65200 -0.35900
O 	O 	0.25020 0.94490 0.69150 -0.38600
N 	N 	0.13090 0.95690 0.62870 -0.22800
C 	C 	0.17520 0.97390 0.65040 -0.00900
C 	C 	0.21170 0.93440 0.66580 0.29500
O 	O 	0.20150 0.38930 0.15200 -0.36900
O 	O 	0.25020 0.44490 0.19150 -0.41300
N 	N 	0.13090 0.45690 0.12870 -0.24800
C 	C 	0.17520 0.47390 0.15040 -0.07600
C 	C 	0.21170 0.43440 0.16580 0.31100
O 	O 	0.84800 0.70150 0.88930 -0.35500
O 	O 	0.80850 0.75020 0.94490 -0.38100
N 	N 	0.87130 0.63090 0.95690 -0.22500
C 	C 	0.84960 0.67520 0.97390 -0.00600
C 	C 	0.83420 0.71170 0.93440 0.29600
O 	O 	0.84800 0.20150 0.38930 -0.36400
O 	O 	0.80850 0.25020 0.44490 -0.40800
N 	N 	0.87130 0.13090 0.45690 -0.24500
C 	C 	0.84960 0.17520 0.47390 -0.07200
C 	C 	0.83420 0.21170 0.43440 0.31300
O 	O 	0.34800 0.70150 0.38930 -0.36600
O 	O 	0.30850 0.75020 0.44490 -0.40800
N 	N 	0.37130 0.63090 0.45690 -0.24600
C 	C 	0.34960 0.67520 0.47390 -0.07400
C 	C 	0.33420 0.71170 0.43440 0.31200
O 	O 	0.34800 0.20150 0.88930 -0.36000
O 	O 	0.30850 0.25020 0.94490 -0.38600
N 	N 	0.37130 0.13090 0.95690 -0.22900
C 	C 	0.34960 0.17520 0.97390 -0.01000
C 	C 	0.33420 0.21170 0.93440 0.29400
O 	O 	0.15200 0.29850 0.88930 -0.36200
O 	O 	0.19150 0.24980 0.94490 -0.39000
N 	N 	0.12870 0.36910 0.95690 -0.22800
C 	C 	0.15040 0.32480 0.97390 -0.01100
C 	C 	0.16580 0.28830 0.93440 0.29400
O 	O 	0.15200 0.79850 0.38930 -0.36900
O 	O 	0.19150 0.74980 0.44490 -0.41200
N 	N 	0.12870 0.86910 0.45690 -0.24500
C 	C 	0.15040 0.82480 0.47390 -0.07500
C 	C 	0.16580 0.78830 0.43440 0.31200
O 	O 	0.65200 0.29850 0.38930 -0.36800
O 	O 	0.69150 0.24980 0.44490 -0.41200
N 	N 	0.62870 0.36910 0.45690 -0.24600
C 	C 	0.65040 0.32480 0.47390 -0.07400
C 	C 	0.66580 0.28830 0.43440 0.31300
O 	O 	0.65200 0.79850 0.88930 -0.35900
O 	O 	0.69150 0.74980 0.94490 -0.38600
N 	N 	0.62870 0.86910 0.95690 -0.22500
C 	C 	0.65040 0.82480 0.97390 -0.00800
C 	C 	0.66580 0.78830 0.93440 0.29500
O 	O 	0.15200 0.70150 0.11070 -0.37500
O 	O 	0.19150 0.75020 0.05510 -0.42700
N 	N 	0.12870 0.63090 0.04310 -0.23400
C 	C 	0.15040 0.67520 0.02610 -0.13500
C 	C 	0.16580 0.71170 0.06560 0.32800
O 	O 	0.15200 0.20150 0.61070 -0.36900
O 	O 	0.19150 0.25020 0.55510 -0.41300
N 	N 	0.12870 0.13090 0.54310 -0.24800
C 	C 	0.15040 0.17520 0.52610 -0.07600
C 	C 	0.16580 0.21170 0.56560 0.31100
O 	O 	0.65200 0.70150 0.61070 -0.36600
O 	O 	0.69150 0.75020 0.55510 -0.40800
N 	N 	0.62870 0.63090 0.54310 -0.24600
C 	C 	0.65040 0.67520 0.52610 -0.07300
C 	C 	0.66580 0.71170 0.56560 0.31300
O 	O 	0.65200 0.20150 0.11070 -0.37400
O 	O 	0.69150 0.25020 0.05510 -0.42700
N 	N 	0.62870 0.13090 0.04310 -0.23500
C 	C 	0.65040 0.17520 0.02610 -0.13500
C 	C 	0.66580 0.21170 0.06560 0.32900
O 	O 	0.84800 0.29850 0.11070 -0.37200
O 	O 	0.80850 0.24980 0.05510 -0.42600
N 	N 	0.87130 0.36910 0.04310 -0.23100
C 	C 	0.84960 0.32480 0.02610 -0.13300
C 	C 	0.83420 0.28830 0.06560 0.33000
O 	O 	0.84800 0.79850 0.61070 -0.36400
O 	O 	0.80850 0.74980 0.55510 -0.40700
N 	N 	0.87130 0.86910 0.54310 -0.24100
C 	C 	0.84960 0.82480 0.52610 -0.07100
C 	C 	0.83420 0.78830 0.56560 0.31400
O 	O 	0.34800 0.29850 0.61070 -0.36800
O 	O 	0.30850 0.24980 0.55510 -0.41300
N 	N 	0.37130 0.36910 0.54310 -0.24600
C 	C 	0.34960 0.32480 0.52610 -0.07500
C 	C 	0.33420 0.28830 0.56560 0.31200
O 	O 	0.34800 0.79850 0.11070 -0.37400
O 	O 	0.30850 0.74980 0.05510 -0.42700
N 	N 	0.37130 0.86910 0.04310 -0.23100
C 	C 	0.34960 0.82480 0.02610 -0.13400
C 	C 	0.33420 0.78830 0.06560 0.32900
O 	O 	0.88930 0.84800 0.70150 -0.35500
O 	O 	0.94490 0.80850 0.75020 -0.38100
N 	N 	0.95690 0.87130 0.63090 -0.22500
C 	C 	0.97390 0.84960 0.67520 -0.00600
C 	C 	0.93440 0.83420 0.71170 0.29600
O 	O 	0.88930 0.34800 0.20150 -0.36000
O 	O 	0.94490 0.30850 0.25020 -0.38600
N 	N 	0.95690 0.37130 0.13090 -0.22900
C 	C 	0.97390 0.34960 0.17520 -0.01000
C 	C 	0.93440 0.33420 0.21170 0.29400
O 	O 	0.38930 0.84800 0.20150 -0.36400
O 	O 	0.44490 0.80850 0.25020 -0.40800
N 	N 	0.45690 0.87130 0.13090 -0.24500
C 	C 	0.47390 0.84960 0.17520 -0.07200
C 	C 	0.43440 0.83420 0.21170 0.31300
O 	O 	0.38930 0.34800 0.70150 -0.36600
O 	O 	0.44490 0.30850 0.75020 -0.40800
N 	N 	0.45690 0.37130 0.63090 -0.24600
C 	C 	0.47390 0.34960 0.67520 -0.07400
C 	C 	0.43440 0.33420 0.71170 0.31200
O 	O 	0.88930 0.15200 0.29850 -0.36200
O 	O 	0.94490 0.19150 0.24980 -0.39000
N 	N 	0.95690 0.12870 0.36910 -0.22800
C 	C 	0.97390 0.15040 0.32480 -0.01100
C 	C 	0.93440 0.16580 0.28830 0.29400
O 	O 	0.88930 0.65200 0.79850 -0.35900
O 	O 	0.94490 0.69150 0.74980 -0.38600
N 	N 	0.95690 0.62870 0.86910 -0.22500
C 	C 	0.97390 0.65040 0.82480 -0.00800
C 	C 	0.93440 0.66580 0.78830 0.29500
O 	O 	0.38930 0.15200 0.79850 -0.36900
O 	O 	0.44490 0.19150 0.74980 -0.41200
N 	N 	0.45690 0.12870 0.86910 -0.24500
C 	C 	0.47390 0.15040 0.82480 -0.07500
C 	C 	0.43440 0.16580 0.78830 0.31200
O 	O 	0.38930 0.65200 0.29850 -0.36800
O 	O 	0.44490 0.69150 0.24980 -0.41200
N 	N 	0.45690 0.62870 0.36910 -0.24600
C 	C 	0.47390 0.65040 0.32480 -0.07400
C 	C 	0.43440 0.66580 0.28830 0.31300
O 	O 	0.11070 0.15200 0.70150 -0.37500
O 	O 	0.05510 0.19150 0.75020 -0.42700
N 	N 	0.04310 0.12870 0.63090 -0.23400
C 	C 	0.02610 0.15040 0.67520 -0.13500
C 	C 	0.06560 0.16580 0.71170 0.32800
O 	O 	0.11070 0.65200 0.20150 -0.37400
O 	O 	0.05510 0.69150 0.25020 -0.42700
N 	N 	0.04310 0.62870 0.13090 -0.23500
C 	C 	0.02610 0.65040 0.17520 -0.13500
C 	C 	0.06560 0.66580 0.21170 0.32900
O 	O 	0.61070 0.15200 0.20150 -0.36900
O 	O 	0.55510 0.19150 0.25020 -0.41300
N 	N 	0.54310 0.12870 0.13090 -0.24800
C 	C 	0.52610 0.15040 0.17520 -0.07600
C 	C 	0.56560 0.16580 0.21170 0.31100
O 	O 	0.61070 0.65200 0.70150 -0.36600
O 	O 	0.55510 0.69150 0.75020 -0.40800
N 	N 	0.54310 0.62870 0.63090 -0.24600
C 	C 	0.52610 0.65040 0.67520 -0.07300
C 	C 	0.56560 0.66580 0.71170 0.31300
O 	O 	0.11070 0.84800 0.29850 -0.37200
O 	O 	0.05510 0.80850 0.24980 -0.42600
N 	N 	0.04310 0.87130 0.36910 -0.23100
C 	C 	0.02610 0.84960 0.32480 -0.13300
C 	C 	0.06560 0.83420 0.28830 0.33000
O 	O 	0.11070 0.34800 0.79850 -0.37400
O 	O 	0.05510 0.30850 0.74980 -0.42700
N 	N 	0.04310 0.37130 0.86910 -0.23100
C 	C 	0.02610 0.34960 0.82480 -0.13400
C 	C 	0.06560 0.33420 0.78830 0.32900
O 	O 	0.61070 0.84800 0.79850 -0.36400
O 	O 	0.55510 0.80850 0.74980 -0.40700
N 	N 	0.54310 0.87130 0.86910 -0.24100
C 	C 	0.52610 0.84960 0.82480 -0.07100
C 	C 	0.56560 0.83420 0.78830 0.31400
O 	O 	0.61070 0.34800 0.29850 -0.36800
O 	O 	0.55510 0.30850 0.24980 -0.41300
N 	N 	0.54310 0.37130 0.36910 -0.24600
C 	C 	0.52610 0.34960 0.32480 -0.07500
C 	C 	0.56560 0.33420 0.28830 0.31200
O 	O 	0.70150 0.88930 0.84800 -0.35500
O 	O 	0.75020 0.94490 0.80850 -0.38100
N 	N 	0.63090 0.95690 0.87130 -0.22500
C 	C 	0.67520 0.97390 0.84960 -0.00600
C 	C 	0.71170 0.93440 0.83420 0.29600
O 	O 	0.70150 0.38930 0.34800 -0.36600
O 	O 	0.75020 0.44490 0.30850 -0.40800
N 	N 	0.63090 0.45690 0.37130 -0.24600
C 	C 	0.67520 0.47390 0.34960 -0.07400
C 	C 	0.71170 0.43440 0.33420 0.31200
O 	O 	0.20150 0.88930 0.34800 -0.36000
O 	O 	0.25020 0.94490 0.30850 -0.38600
N 	N 	0.13090 0.95690 0.37130 -0.22900
C 	C 	0.17520 0.97390 0.34960 -0.01000
C 	C 	0.21170 0.93440 0.33420 0.29400
O 	O 	0.20150 0.38930 0.84800 -0.36400
O 	O 	0.25020 0.44490 0.80850 -0.40800
N 	N 	0.13090 0.45690 0.87130 -0.24500
C 	C 	0.17520 0.47390 0.84960 -0.07200
C 	C 	0.21170 0.43440 0.83420 0.31300
O 	O 	0.29850 0.88930 0.15200 -0.36200
O 	O 	0.24980 0.94490 0.19150 -0.39000
N 	N 	0.36910 0.95690 0.12870 -0.22800
C 	C 	0.32480 0.97390 0.15040 -0.01100
C 	C 	0.28830 0.93440 0.16580 0.29400
O 	O 	0.29850 0.38930 0.65200 -0.36800
O 	O 	0.24980 0.44490 0.69150 -0.41200
N 	N 	0.36910 0.45690 0.62870 -0.24600
C 	C 	0.32480 0.47390 0.65040 -0.07400
C 	C 	0.28830 0.43440 0.66580 0.31300
O 	O 	0.79850 0.88930 0.65200 -0.35900
O 	O 	0.74980 0.94490 0.69150 -0.38600
N 	N 	0.86910 0.95690 0.62870 -0.22500
C 	C 	0.82480 0.97390 0.65040 -0.00800
C 	C 	0.78830 0.93440 0.66580 0.29500
O 	O 	0.79850 0.38930 0.15200 -0.36900
O 	O 	0.74980 0.44490 0.19150 -0.41200
N 	N 	0.86910 0.45690 0.12870 -0.24500
C 	C 	0.82480 0.47390 0.15040 -0.07500
C 	C 	0.78830 0.43440 0.16580 0.31200
O 	O 	0.70150 0.11070 0.15200 -0.37500
O 	O 	0.75020 0.05510 0.19150 -0.42700
N 	N 	0.63090 0.04310 0.12870 -0.23400
C 	C 	0.67520 0.02610 0.15040 -0.13500
C 	C 	0.71170 0.06560 0.16580 0.32800
O 	O 	0.70150 0.61070 0.65200 -0.36600
O 	O 	0.75020 0.55510 0.69150 -0.40800
N 	N 	0.63090 0.54310 0.62870 -0.24600
C 	C 	0.67520 0.52610 0.65040 -0.07300
C 	C 	0.71170 0.56560 0.66580 0.31300
O 	O 	0.20150 0.11070 0.65200 -0.37400
O 	O 	0.25020 0.05510 0.69150 -0.42700
N 	N 	0.13090 0.04310 0.62870 -0.23500
C 	C 	0.17520 0.02610 0.65040 -0.13500
C 	C 	0.21170 0.06560 0.66580 0.32900
O 	O 	0.20150 0.61070 0.15200 -0.36900
O 	O 	0.25020 0.55510 0.19150 -0.41300
N 	N 	0.13090 0.54310 0.12870 -0.24800
C 	C 	0.17520 0.52610 0.15040 -0.07600
C 	C 	0.21170 0.56560 0.16580 0.31100
O 	O 	0.29850 0.11070 0.84800 -0.37200
O 	O 	0.24980 0.05510 0.80850 -0.42600
N 	N 	0.36910 0.04310 0.87130 -0.23100
C 	C 	0.32480 0.02610 0.84960 -0.13300
C 	C 	0.28830 0.06560 0.83420 0.33000
O 	O 	0.29850 0.61070 0.34800 -0.36800
O 	O 	0.24980 0.55510 0.30850 -0.41300
N 	N 	0.36910 0.54310 0.37130 -0.24600
C 	C 	0.32480 0.52610 0.34960 -0.07500
C 	C 	0.28830 0.56560 0.33420 0.31200
O 	O 	0.79850 0.11070 0.34800 -0.37400
O 	O 	0.74980 0.05510 0.30850 -0.42700
N 	N 	0.86910 0.04310 0.37130 -0.23100
C 	C 	0.82480 0.02610 0.34960 -0.13400
C 	C 	0.78830 0.06560 0.33420 0.32900
O 	O 	0.79850 0.61070 0.84800 -0.36400
O 	O 	0.74980 0.55510 0.80850 -0.40700
N 	N 	0.86910 0.54310 0.87130 -0.24100
C 	C 	0.82480 0.52610 0.84960 -0.07100
C 	C 	0.78830 0.56560 0.83420 0.31400
Mn	Mn	0.12415 0.37585 0.12415 1.28000
Mn	Mn	0.87585 0.62415 0.12415 1.28200
Mn	Mn	0.37585 0.12415 0.12415 1.28000
Mn	Mn	0.87585 0.37585 0.87585 1.28400
Mn	Mn	0.37585 0.37585 0.37585 1.28100
Mn	Mn	0.12415 0.62415 0.87585 1.28200
Mn	Mn	0.12415 0.12415 0.37585 1.28000
Mn	Mn	0.12415 0.87585 0.62415 1.28200
Mn	Mn	0.87585 0.87585 0.37585 1.28400
Mn	Mn	0.87585 0.12415 0.62415 1.28200
Mn	Mn	0.37585 0.62415 0.62415 1.28100
Mn	Mn	0.62415 0.12415 0.87585 1.28200
Mn	Mn	0.62415 0.62415 0.37585 1.28100
Mn	Mn	0.37585 0.87585 0.87585 1.28400
Mn	Mn	0.62415 0.87585 0.12415 1.28200
Mn	Mn	0.62415 0.37585 0.62415 1.28100
Mn	Mn	0.87585 0.62415 0.87585 1.28400
Mn	Mn	0.87585 0.12415 0.37585 1.28200
Mn	Mn	0.37585 0.12415 0.87585 1.28200
Mn	Mn	0.12415 0.37585 0.87585 1.28200
Mn	Mn	0.12415 0.62415 0.12415 1.28000
Mn	Mn	0.87585 0.37585 0.12415 1.28200
Mn	Mn	0.37585 0.37585 0.62415 1.28100
Mn	Mn	0.87585 0.87585 0.62415 1.28400
Mn	Mn	0.37585 0.87585 0.12415 1.28200
Mn	Mn	0.37585 0.62415 0.37585 1.28100
Mn	Mn	0.12415 0.12415 0.62415 1.28000
Mn	Mn	0.12415 0.87585 0.37585 1.28200
Mn	Mn	0.62415 0.87585 0.87585 1.28400
Mn	Mn	0.62415 0.37585 0.37585 1.28100
Mn	Mn	0.62415 0.12415 0.12415 1.28000
Mn	Mn	0.62415 0.62415 0.62415 1.28200
Mn	Mn	0.25000 0.25000 -0.00000 1.25700
Mn	Mn	0.25000 0.75000 0.50000 1.27500
Mn	Mn	0.75000 0.75000 -0.00000 1.25900
Mn	Mn	0.75000 0.25000 0.50000 1.27500
Mn	Mn	0.75000 0.25000 -0.00000 1.25800
Mn	Mn	0.75000 0.75000 0.50000 1.27600
Mn	Mn	0.25000 0.25000 0.50000 1.27400
Mn	Mn	0.25000 0.75000 -0.00000 1.25800
Mn	Mn	-0.00000 0.25000 0.25000 1.25700
Mn	Mn	0.50000 0.25000 0.75000 1.27500
Mn	Mn	-0.00000 0.75000 0.75000 1.25900
Mn	Mn	0.50000 0.75000 0.25000 1.27500
Mn	Mn	-0.00000 0.75000 0.25000 1.25800
Mn	Mn	0.50000 0.75000 0.75000 1.27600
Mn	Mn	0.50000 0.25000 0.25000 1.27400
Mn	Mn	-0.00000 0.25000 0.75000 1.25800
Mn	Mn	0.25000 -0.00000 0.25000 1.25700
Mn	Mn	0.25000 0.50000 0.75000 1.27500
Mn	Mn	0.75000 -0.00000 0.75000 1.25900
Mn	Mn	0.75000 0.50000 0.25000 1.27500
Mn	Mn	0.25000 -0.00000 0.75000 1.25800
Mn	Mn	0.25000 0.50000 0.25000 1.27400
Mn	Mn	0.75000 -0.00000 0.25000 1.25800
Mn	Mn	0.75000 0.50000 0.75000 1.27600
C 	C 	0.11860 0.39340 -0.00000 0.06600
H 	H 	0.10470 0.42680 -0.00000 -0.04000
C 	C 	0.11860 0.89340 0.50000 0.11900
H 	H 	0.10470 0.92680 0.50000 -0.03200
C 	C 	0.61860 0.39340 0.50000 0.12000
H 	H 	0.60470 0.42680 0.50000 -0.04100
C 	C 	0.61860 0.89340 -0.00000 0.06900
H 	H 	0.60470 0.92680 -0.00000 -0.02600
C 	C 	0.88140 0.60660 -0.00000 0.07200
H 	H 	0.89530 0.57320 -0.00000 -0.03200
C 	C 	0.88140 0.10660 0.50000 0.12300
H 	H 	0.89530 0.07320 0.50000 -0.04100
C 	C 	0.38140 0.60660 0.50000 0.12000
H 	H 	0.39530 0.57320 0.50000 -0.04100
C 	C 	0.38140 0.10660 -0.00000 0.06700
H 	H 	0.39530 0.07320 -0.00000 -0.04300
C 	C 	0.88140 0.39340 -0.00000 0.07200
H 	H 	0.89530 0.42680 -0.00000 -0.03200
C 	C 	0.88140 0.89340 0.50000 0.12500
H 	H 	0.89530 0.92680 0.50000 -0.02400
C 	C 	0.38140 0.39340 0.50000 0.11900
H 	H 	0.39530 0.42680 0.50000 -0.04100
C 	C 	0.38140 0.89340 -0.00000 0.06900
H 	H 	0.39530 0.92680 -0.00000 -0.02600
C 	C 	0.11860 0.60660 -0.00000 0.06700
H 	H 	0.10470 0.57320 -0.00000 -0.04000
C 	C 	0.11860 0.10660 0.50000 0.11700
H 	H 	0.10470 0.07320 0.50000 -0.04900
C 	C 	0.61860 0.60660 0.50000 0.12000
H 	H 	0.60470 0.57320 0.50000 -0.04100
C 	C 	0.61860 0.10660 -0.00000 0.06700
H 	H 	0.60470 0.07320 -0.00000 -0.04300
C 	C 	-0.00000 0.11860 0.39340 0.06600
H 	H 	0.00000 0.10470 0.42680 -0.04000
C 	C 	0.00000 0.61860 0.89340 0.06900
H 	H 	0.00000 0.60470 0.92680 -0.02600
C 	C 	0.50000 0.11860 0.89340 0.11900
H 	H 	0.50000 0.10470 0.92680 -0.03200
C 	C 	0.50000 0.61860 0.39340 0.12000
H 	H 	0.50000 0.60470 0.42680 -0.04100
C 	C 	-0.00000 0.88140 0.60660 0.07200
H 	H 	-0.00000 0.89530 0.57320 -0.03200
C 	C 	0.00000 0.38140 0.10660 0.06700
H 	H 	-0.00000 0.39530 0.07320 -0.04300
C 	C 	0.50000 0.88140 0.10660 0.12300
H 	H 	0.50000 0.89530 0.07320 -0.04100
C 	C 	0.50000 0.38140 0.60660 0.12000
H 	H 	0.50000 0.39530 0.57320 -0.04100
C 	C 	-0.00000 0.88140 0.39340 0.07200
H 	H 	0.00000 0.89530 0.42680 -0.03200
C 	C 	0.00000 0.38140 0.89340 0.06900
H 	H 	0.00000 0.39530 0.92680 -0.02600
C 	C 	0.50000 0.88140 0.89340 0.12500
H 	H 	0.50000 0.89530 0.92680 -0.02400
C 	C 	0.50000 0.38140 0.39340 0.11900
H 	H 	0.50000 0.39530 0.42680 -0.04100
C 	C 	0.00000 0.11860 0.60660 0.06700
H 	H 	-0.00000 0.10470 0.57320 -0.04000
C 	C 	0.00000 0.61860 0.10660 0.06700
H 	H 	-0.00000 0.60470 0.07320 -0.04300
C 	C 	0.50000 0.11860 0.10660 0.11700
H 	H 	0.50000 0.10470 0.07320 -0.04900
C 	C 	0.50000 0.61860 0.60660 0.12000
H 	H 	0.50000 0.60470 0.57320 -0.04100
C 	C 	0.39340 0.00000 0.11860 0.06600
H 	H 	0.42680 0.00000 0.10470 -0.04000
C 	C 	0.39340 0.50000 0.61860 0.12000
H 	H 	0.42680 0.50000 0.60470 -0.04100
C 	C 	0.89340 0.00000 0.61860 0.06900
H 	H 	0.92680 0.00000 0.60470 -0.02600
C 	C 	0.89340 0.50000 0.11860 0.11900
H 	H 	0.92680 0.50000 0.10470 -0.03200
C 	C 	0.60660 0.00000 0.88140 0.07200
H 	H 	0.57320 0.00000 0.89530 -0.03200
C 	C 	0.60660 0.50000 0.38140 0.12000
H 	H 	0.57320 0.50000 0.39530 -0.04100
C 	C 	0.10660 0.00000 0.38140 0.06700
H 	H 	0.07320 -0.00000 0.39530 -0.04300
C 	C 	0.10660 0.50000 0.88140 0.12300
H 	H 	0.07320 0.50000 0.89530 -0.04100
C 	C 	0.39340 0.00000 0.88140 0.07200
H 	H 	0.42680 0.00000 0.89530 -0.03200
C 	C 	0.39340 0.50000 0.38140 0.11900
H 	H 	0.42680 0.50000 0.39530 -0.04100
C 	C 	0.89340 0.00000 0.38140 0.06900
H 	H 	0.92680 -0.00000 0.39530 -0.02600
C 	C 	0.89340 0.50000 0.88140 0.12500
H 	H 	0.92680 0.50000 0.89530 -0.02400
C 	C 	0.60660 0.00000 0.11860 0.06700
H 	H 	0.57320 0.00000 0.10470 -0.04000
C 	C 	0.60660 0.50000 0.61860 0.12000
H 	H 	0.57320 0.50000 0.60470 -0.04100
C 	C 	0.10660 0.00000 0.61860 0.06700
H 	H 	0.07320 0.00000 0.60470 -0.04300
C 	C 	0.10660 0.50000 0.11860 0.11700
H 	H 	0.07320 0.50000 0.10470 -0.04900
