data_crystal

_cell_length_a 25.92800
_cell_length_b 25.92800
_cell_length_c 25.92800
_cell_angle_alpha 90.00000
_cell_angle_beta  90.00000
_cell_angle_gamma 90.00000

_symmetry_space_group_name_	'P 1'
_symmetry_space_group_name_H-M	'P 1'

loop_
_symmetry_equiv_pos_as_xyz
  x,y,z

loop_
_atom_site_label
_atom_site_type_symbol
_atom_site_fract_x
_atom_site_fract_y
_atom_site_fract_z
_atom_site_charge
C 	C 	0.02720 0.15150 0.32920 -0.12300
C 	C 	0.06640 0.16490 0.29130 0.32900
O 	O 	0.11115 0.14889 0.29957 -0.35600
O 	O 	0.05564 0.19320 0.25310 -0.40300
N 	N 	0.04360 0.13150 0.37504 -0.22100
C 	C 	0.02720 0.65150 0.82920 -0.12100
C 	C 	0.06640 0.66490 0.79130 0.33000
O 	O 	0.11115 0.64889 0.79957 -0.35300
O 	O 	0.05564 0.69320 0.75310 -0.39900
N 	N 	0.04360 0.63150 0.87504 -0.21700
C 	C 	0.52720 0.15150 0.82920 -0.06800
C 	C 	0.56640 0.16490 0.79130 0.31400
O 	O 	0.61115 0.14889 0.79957 -0.34900
O 	O 	0.55564 0.19320 0.75310 -0.38600
N 	N 	0.54360 0.13150 0.87504 -0.22900
C 	C 	0.52720 0.65150 0.32920 -0.06800
C 	C 	0.56640 0.66490 0.29130 0.31500
O 	O 	0.61115 0.64889 0.29957 -0.34800
O 	O 	0.55564 0.69320 0.25310 -0.38600
N 	N 	0.54360 0.63150 0.37504 -0.23100
C 	C 	0.97280 0.84850 0.32920 -0.00600
C 	C 	0.93360 0.83510 0.29130 0.30000
O 	O 	0.88885 0.85111 0.29957 -0.33700
O 	O 	0.94436 0.80680 0.25310 -0.36000
N 	N 	0.95640 0.86850 0.37504 -0.21100
C 	C 	0.97280 0.34850 0.82920 -0.00800
C 	C 	0.93360 0.33510 0.79130 0.29900
O 	O 	0.88885 0.35111 0.79957 -0.33900
O 	O 	0.94436 0.30680 0.75310 -0.36000
N 	N 	0.95640 0.36850 0.87504 -0.21100
C 	C 	0.47280 0.84850 0.82920 -0.06400
C 	C 	0.43360 0.83510 0.79130 0.31600
O 	O 	0.38885 0.85111 0.79957 -0.34400
O 	O 	0.44436 0.80680 0.75310 -0.38100
N 	N 	0.45640 0.86850 0.87504 -0.22700
C 	C 	0.47280 0.34850 0.32920 -0.06800
C 	C 	0.43360 0.33510 0.29130 0.31400
O 	O 	0.38885 0.35111 0.29957 -0.34800
O 	O 	0.44436 0.30680 0.25310 -0.38600
N 	N 	0.45640 0.36850 0.37504 -0.23200
C 	C 	0.97280 0.15150 0.67080 -0.00900
C 	C 	0.93360 0.16490 0.70870 0.29800
O 	O 	0.88885 0.14889 0.70043 -0.34000
O 	O 	0.94436 0.19320 0.74690 -0.36100
N 	N 	0.95640 0.13150 0.62496 -0.21400
C 	C 	0.97280 0.65150 0.17080 -0.00900
C 	C 	0.93360 0.66490 0.20870 0.29800
O 	O 	0.88885 0.64889 0.20043 -0.33900
O 	O 	0.94436 0.69320 0.24690 -0.36100
N 	N 	0.95640 0.63150 0.12496 -0.21400
C 	C 	0.47280 0.15150 0.17080 -0.07000
C 	C 	0.43360 0.16490 0.20870 0.31400
O 	O 	0.38885 0.14889 0.20043 -0.34900
O 	O 	0.44436 0.19320 0.24690 -0.38600
N 	N 	0.45640 0.13150 0.12496 -0.23300
C 	C 	0.47280 0.65150 0.67080 -0.06700
C 	C 	0.43360 0.66490 0.70870 0.31500
O 	O 	0.38885 0.64889 0.70043 -0.34500
O 	O 	0.44436 0.69320 0.74690 -0.38200
N 	N 	0.45640 0.63150 0.62496 -0.23100
C 	C 	0.02720 0.84850 0.67080 -0.12000
C 	C 	0.06640 0.83510 0.70870 0.33100
O 	O 	0.11115 0.85111 0.70043 -0.34900
O 	O 	0.05564 0.80680 0.74690 -0.39400
N 	N 	0.04360 0.86850 0.62496 -0.21800
C 	C 	0.02720 0.34850 0.17080 -0.12300
C 	C 	0.06640 0.33510 0.20870 0.32900
O 	O 	0.11115 0.35111 0.20043 -0.35400
O 	O 	0.05564 0.30680 0.24690 -0.39900
N 	N 	0.04360 0.36850 0.12496 -0.22100
C 	C 	0.52720 0.84850 0.17080 -0.06600
C 	C 	0.56640 0.83510 0.20870 0.31600
O 	O 	0.61115 0.85111 0.20043 -0.34400
O 	O 	0.55564 0.80680 0.24690 -0.38200
N 	N 	0.54360 0.86850 0.12496 -0.23100
C 	C 	0.52720 0.34850 0.67080 -0.06800
C 	C 	0.56640 0.33510 0.70870 0.31500
O 	O 	0.61115 0.35111 0.70043 -0.34600
O 	O 	0.55564 0.30680 0.74690 -0.38200
N 	N 	0.54360 0.36850 0.62496 -0.23200
C 	C 	0.32920 0.02720 0.15150 -0.12400
C 	C 	0.29130 0.06640 0.16490 0.32800
O 	O 	0.29957 0.11115 0.14889 -0.35600
O 	O 	0.25310 0.05564 0.19320 -0.40300
N 	N 	0.37504 0.04360 0.13150 -0.22100
C 	C 	0.32920 0.52720 0.65150 -0.06800
C 	C 	0.29130 0.56640 0.66490 0.31500
O 	O 	0.29957 0.61115 0.64889 -0.34800
O 	O 	0.25310 0.55564 0.69320 -0.38600
N 	N 	0.37504 0.54360 0.63150 -0.23100
C 	C 	0.82920 0.02720 0.65150 -0.12100
C 	C 	0.79130 0.06640 0.66490 0.33000
O 	O 	0.79957 0.11115 0.64889 -0.35300
O 	O 	0.75310 0.05564 0.69320 -0.39900
N 	N 	0.87504 0.04360 0.63150 -0.21700
C 	C 	0.82920 0.52720 0.15150 -0.06800
C 	C 	0.79130 0.56640 0.16490 0.31400
O 	O 	0.79957 0.61115 0.14889 -0.34900
O 	O 	0.75310 0.55564 0.19320 -0.38600
N 	N 	0.87504 0.54360 0.13150 -0.22900
C 	C 	0.32920 0.97280 0.84850 -0.00600
C 	C 	0.29130 0.93360 0.83510 0.30000
O 	O 	0.29957 0.88885 0.85111 -0.33700
O 	O 	0.25310 0.94436 0.80680 -0.36000
N 	N 	0.37504 0.95640 0.86850 -0.21100
C 	C 	0.32920 0.47280 0.34850 -0.06800
C 	C 	0.29130 0.43360 0.33510 0.31400
O 	O 	0.29957 0.38885 0.35111 -0.34800
O 	O 	0.25310 0.44436 0.30680 -0.38600
N 	N 	0.37504 0.45640 0.36850 -0.23200
C 	C 	0.82920 0.97280 0.34850 -0.00800
C 	C 	0.79130 0.93360 0.33510 0.29900
O 	O 	0.79957 0.88885 0.35111 -0.33900
O 	O 	0.75310 0.94436 0.30680 -0.36000
N 	N 	0.87504 0.95640 0.36850 -0.21100
C 	C 	0.82920 0.47280 0.84850 -0.06400
C 	C 	0.79130 0.43360 0.83510 0.31600
O 	O 	0.79957 0.38885 0.85111 -0.34400
O 	O 	0.75310 0.44436 0.80680 -0.38100
N 	N 	0.87504 0.45640 0.86850 -0.22700
C 	C 	0.67080 0.97280 0.15150 -0.00900
C 	C 	0.70870 0.93360 0.16490 0.29800
O 	O 	0.70043 0.88885 0.14889 -0.34000
O 	O 	0.74690 0.94436 0.19320 -0.36100
N 	N 	0.62496 0.95640 0.13150 -0.21400
C 	C 	0.67080 0.47280 0.65150 -0.06700
C 	C 	0.70870 0.43360 0.66490 0.31500
O 	O 	0.70043 0.38885 0.64889 -0.34500
O 	O 	0.74690 0.44436 0.69320 -0.38200
N 	N 	0.62496 0.45640 0.63150 -0.23100
C 	C 	0.17080 0.97280 0.65150 -0.00900
C 	C 	0.20870 0.93360 0.66490 0.29800
O 	O 	0.20043 0.88885 0.64889 -0.33900
O 	O 	0.24690 0.94436 0.69320 -0.36100
N 	N 	0.12496 0.95640 0.63150 -0.21400
C 	C 	0.17080 0.47280 0.15150 -0.07000
C 	C 	0.20870 0.43360 0.16490 0.31400
O 	O 	0.20043 0.38885 0.14889 -0.34900
O 	O 	0.24690 0.44436 0.19320 -0.38600
N 	N 	0.12496 0.45640 0.13150 -0.23300
C 	C 	0.67080 0.02720 0.84850 -0.12000
C 	C 	0.70870 0.06640 0.83510 0.33100
O 	O 	0.70043 0.11115 0.85111 -0.34900
O 	O 	0.74690 0.05564 0.80680 -0.39400
N 	N 	0.62496 0.04360 0.86850 -0.21800
C 	C 	0.67080 0.52720 0.34850 -0.06800
C 	C 	0.70870 0.56640 0.33510 0.31500
O 	O 	0.70043 0.61115 0.35111 -0.34600
O 	O 	0.74690 0.55564 0.30680 -0.38200
N 	N 	0.62496 0.54360 0.36850 -0.23200
C 	C 	0.17080 0.02720 0.34850 -0.12300
C 	C 	0.20870 0.06640 0.33510 0.32900
O 	O 	0.20043 0.11115 0.35111 -0.35400
O 	O 	0.24690 0.05564 0.30680 -0.39900
N 	N 	0.12496 0.04360 0.36850 -0.22100
C 	C 	0.17080 0.52720 0.84850 -0.06600
C 	C 	0.20870 0.56640 0.83510 0.31600
O 	O 	0.20043 0.61115 0.85111 -0.34400
O 	O 	0.24690 0.55564 0.80680 -0.38200
N 	N 	0.12496 0.54360 0.86850 -0.23100
C 	C 	0.15150 0.32920 0.02720 -0.12400
C 	C 	0.16490 0.29130 0.06640 0.32800
O 	O 	0.14889 0.29957 0.11115 -0.35600
O 	O 	0.19320 0.25310 0.05564 -0.40300
N 	N 	0.13150 0.37504 0.04360 -0.22100
C 	C 	0.15150 0.82920 0.52720 -0.06800
C 	C 	0.16490 0.79130 0.56640 0.31400
O 	O 	0.14889 0.79957 0.61115 -0.34900
O 	O 	0.19320 0.75310 0.55564 -0.38600
N 	N 	0.13150 0.87504 0.54360 -0.22900
C 	C 	0.65150 0.32920 0.52720 -0.06800
C 	C 	0.66490 0.29130 0.56640 0.31500
O 	O 	0.64889 0.29957 0.61115 -0.34800
O 	O 	0.69320 0.25310 0.55564 -0.38600
N 	N 	0.63150 0.37504 0.54360 -0.23100
C 	C 	0.65150 0.82920 0.02720 -0.12100
C 	C 	0.66490 0.79130 0.06640 0.33000
O 	O 	0.64889 0.79957 0.11115 -0.35300
O 	O 	0.69320 0.75310 0.05564 -0.39900
N 	N 	0.63150 0.87504 0.04360 -0.21700
C 	C 	0.84850 0.32920 0.97280 -0.00600
C 	C 	0.83510 0.29130 0.93360 0.30000
O 	O 	0.85111 0.29957 0.88885 -0.33700
O 	O 	0.80680 0.25310 0.94436 -0.36000
N 	N 	0.86850 0.37504 0.95640 -0.21100
C 	C 	0.84850 0.82920 0.47280 -0.06400
C 	C 	0.83510 0.79130 0.43360 0.31600
O 	O 	0.85111 0.79957 0.38885 -0.34400
O 	O 	0.80680 0.75310 0.44436 -0.38100
N 	N 	0.86850 0.87504 0.45640 -0.22700
C 	C 	0.34850 0.32920 0.47280 -0.06800
C 	C 	0.33510 0.29130 0.43360 0.31400
O 	O 	0.35111 0.29957 0.38885 -0.34800
O 	O 	0.30680 0.25310 0.44436 -0.38600
N 	N 	0.36850 0.37504 0.45640 -0.23200
C 	C 	0.34850 0.82920 0.97280 -0.00800
C 	C 	0.33510 0.79130 0.93360 0.29900
O 	O 	0.35111 0.79957 0.88885 -0.33900
O 	O 	0.30680 0.75310 0.94436 -0.36000
N 	N 	0.36850 0.87504 0.95640 -0.21100
C 	C 	0.15150 0.67080 0.97280 -0.00900
C 	C 	0.16490 0.70870 0.93360 0.29800
O 	O 	0.14889 0.70043 0.88885 -0.34000
O 	O 	0.19320 0.74690 0.94436 -0.36100
N 	N 	0.13150 0.62496 0.95640 -0.21400
C 	C 	0.15150 0.17080 0.47280 -0.07000
C 	C 	0.16490 0.20870 0.43360 0.31400
O 	O 	0.14889 0.20043 0.38885 -0.34900
O 	O 	0.19320 0.24690 0.44436 -0.38600
N 	N 	0.13150 0.12496 0.45640 -0.23300
C 	C 	0.65150 0.67080 0.47280 -0.06700
C 	C 	0.66490 0.70870 0.43360 0.31500
O 	O 	0.64889 0.70043 0.38885 -0.34500
O 	O 	0.69320 0.74690 0.44436 -0.38200
N 	N 	0.63150 0.62496 0.45640 -0.23100
C 	C 	0.65150 0.17080 0.97280 -0.00900
C 	C 	0.66490 0.20870 0.93360 0.29800
O 	O 	0.64889 0.20043 0.88885 -0.33900
O 	O 	0.69320 0.24690 0.94436 -0.36100
N 	N 	0.63150 0.12496 0.95640 -0.21400
C 	C 	0.84850 0.67080 0.02720 -0.12000
C 	C 	0.83510 0.70870 0.06640 0.33100
O 	O 	0.85111 0.70043 0.11115 -0.34900
O 	O 	0.80680 0.74690 0.05564 -0.39400
N 	N 	0.86850 0.62496 0.04360 -0.21800
C 	C 	0.84850 0.17080 0.52720 -0.06600
C 	C 	0.83510 0.20870 0.56640 0.31600
O 	O 	0.85111 0.20043 0.61115 -0.34400
O 	O 	0.80680 0.24690 0.55564 -0.38200
N 	N 	0.86850 0.12496 0.54360 -0.23100
C 	C 	0.34850 0.67080 0.52720 -0.06800
C 	C 	0.33510 0.70870 0.56640 0.31500
O 	O 	0.35111 0.70043 0.61115 -0.34600
O 	O 	0.30680 0.74690 0.55564 -0.38200
N 	N 	0.36850 0.62496 0.54360 -0.23200
C 	C 	0.34850 0.17080 0.02720 -0.12300
C 	C 	0.33510 0.20870 0.06640 0.32900
O 	O 	0.35111 0.20043 0.11115 -0.35400
O 	O 	0.30680 0.24690 0.05564 -0.39900
N 	N 	0.36850 0.12496 0.04360 -0.22100
C 	C 	0.97280 0.84850 0.67080 -0.00600
C 	C 	0.93360 0.83510 0.70870 0.30000
O 	O 	0.88885 0.85111 0.70043 -0.33500
O 	O 	0.94436 0.80680 0.74690 -0.35600
N 	N 	0.95640 0.86850 0.62496 -0.21100
C 	C 	0.97280 0.34850 0.17080 -0.00900
C 	C 	0.93360 0.33510 0.20870 0.29800
O 	O 	0.88885 0.35111 0.20043 -0.33900
O 	O 	0.94436 0.30680 0.24690 -0.36100
N 	N 	0.95640 0.36850 0.12496 -0.21400
C 	C 	0.47280 0.84850 0.17080 -0.06600
C 	C 	0.43360 0.83510 0.20870 0.31600
O 	O 	0.38885 0.85111 0.20043 -0.34400
O 	O 	0.44436 0.80680 0.24690 -0.38200
N 	N 	0.45640 0.86850 0.12496 -0.23100
C 	C 	0.47280 0.34850 0.67080 -0.06800
C 	C 	0.43360 0.33510 0.70870 0.31500
O 	O 	0.38885 0.35111 0.70043 -0.34600
O 	O 	0.44436 0.30680 0.74690 -0.38200
N 	N 	0.45640 0.36850 0.62496 -0.23200
C 	C 	0.02720 0.15150 0.67080 -0.12300
C 	C 	0.06640 0.16490 0.70870 0.32900
O 	O 	0.11115 0.14889 0.70043 -0.35400
O 	O 	0.05564 0.19320 0.74690 -0.39900
N 	N 	0.04360 0.13150 0.62496 -0.22100
C 	C 	0.02720 0.65150 0.17080 -0.12300
C 	C 	0.06640 0.66490 0.20870 0.32900
O 	O 	0.11115 0.64889 0.20043 -0.35300
O 	O 	0.05564 0.69320 0.24690 -0.39900
N 	N 	0.04360 0.63150 0.12496 -0.22100
C 	C 	0.52720 0.15150 0.17080 -0.07000
C 	C 	0.56640 0.16490 0.20870 0.31400
O 	O 	0.61115 0.14889 0.20043 -0.34900
O 	O 	0.55564 0.19320 0.24690 -0.38600
N 	N 	0.54360 0.13150 0.12496 -0.23300
C 	C 	0.52720 0.65150 0.67080 -0.06700
C 	C 	0.56640 0.66490 0.70870 0.31500
O 	O 	0.61115 0.64889 0.70043 -0.34500
O 	O 	0.55564 0.69320 0.74690 -0.38200
N 	N 	0.54360 0.63150 0.62496 -0.23100
C 	C 	0.02720 0.84850 0.32920 -0.12000
C 	C 	0.06640 0.83510 0.29130 0.33100
O 	O 	0.11115 0.85111 0.29957 -0.35100
O 	O 	0.05564 0.80680 0.25310 -0.39800
N 	N 	0.04360 0.86850 0.37504 -0.21800
C 	C 	0.02720 0.34850 0.82920 -0.12200
C 	C 	0.06640 0.33510 0.79130 0.33000
O 	O 	0.11115 0.35111 0.79957 -0.35300
O 	O 	0.05564 0.30680 0.75310 -0.39900
N 	N 	0.04360 0.36850 0.87504 -0.21800
C 	C 	0.52720 0.84850 0.82920 -0.06400
C 	C 	0.56640 0.83510 0.79130 0.31600
O 	O 	0.61115 0.85111 0.79957 -0.34400
O 	O 	0.55564 0.80680 0.75310 -0.38100
N 	N 	0.54360 0.86850 0.87504 -0.22700
C 	C 	0.52720 0.34850 0.32920 -0.06800
C 	C 	0.56640 0.33510 0.29130 0.31400
O 	O 	0.61115 0.35111 0.29957 -0.34800
O 	O 	0.55564 0.30680 0.25310 -0.38600
N 	N 	0.54360 0.36850 0.37504 -0.23200
C 	C 	0.97280 0.15150 0.32920 -0.01000
C 	C 	0.93360 0.16490 0.29130 0.29800
O 	O 	0.88885 0.14889 0.29957 -0.34200
O 	O 	0.94436 0.19320 0.25310 -0.36400
N 	N 	0.95640 0.13150 0.37504 -0.21400
C 	C 	0.97280 0.65150 0.82920 -0.00700
C 	C 	0.93360 0.66490 0.79130 0.29900
O 	O 	0.88885 0.64889 0.79957 -0.33900
O 	O 	0.94436 0.69320 0.75310 -0.36000
N 	N 	0.95640 0.63150 0.87504 -0.21000
C 	C 	0.47280 0.15150 0.82920 -0.06800
C 	C 	0.43360 0.16490 0.79130 0.31400
O 	O 	0.38885 0.14889 0.79957 -0.34900
O 	O 	0.44436 0.19320 0.75310 -0.38600
N 	N 	0.45640 0.13150 0.87504 -0.22900
C 	C 	0.47280 0.65150 0.32920 -0.06800
C 	C 	0.43360 0.66490 0.29130 0.31500
O 	O 	0.38885 0.64889 0.29957 -0.34800
O 	O 	0.44436 0.69320 0.25310 -0.38600
N 	N 	0.45640 0.63150 0.37504 -0.23100
C 	C 	0.67080 0.97280 0.84850 -0.00600
C 	C 	0.70870 0.93360 0.83510 0.30000
O 	O 	0.70043 0.88885 0.85111 -0.33500
O 	O 	0.74690 0.94436 0.80680 -0.35600
N 	N 	0.62496 0.95640 0.86850 -0.21100
C 	C 	0.67080 0.47280 0.34850 -0.06800
C 	C 	0.70870 0.43360 0.33510 0.31500
O 	O 	0.70043 0.38885 0.35111 -0.34600
O 	O 	0.74690 0.44436 0.30680 -0.38200
N 	N 	0.62496 0.45640 0.36850 -0.23200
C 	C 	0.17080 0.97280 0.34850 -0.00900
C 	C 	0.20870 0.93360 0.33510 0.29800
O 	O 	0.20043 0.88885 0.35111 -0.33900
O 	O 	0.24690 0.94436 0.30680 -0.36100
N 	N 	0.12496 0.95640 0.36850 -0.21400
C 	C 	0.17080 0.47280 0.84850 -0.06600
C 	C 	0.20870 0.43360 0.83510 0.31600
O 	O 	0.20043 0.38885 0.85111 -0.34400
O 	O 	0.24690 0.44436 0.80680 -0.38200
N 	N 	0.12496 0.45640 0.86850 -0.23100
C 	C 	0.67080 0.02720 0.15150 -0.12300
C 	C 	0.70870 0.06640 0.16490 0.32900
O 	O 	0.70043 0.11115 0.14889 -0.35400
O 	O 	0.74690 0.05564 0.19320 -0.39900
N 	N 	0.62496 0.04360 0.13150 -0.22100
C 	C 	0.67080 0.52720 0.65150 -0.06700
C 	C 	0.70870 0.56640 0.66490 0.31500
O 	O 	0.70043 0.61115 0.64889 -0.34500
O 	O 	0.74690 0.55564 0.69320 -0.38200
N 	N 	0.62496 0.54360 0.63150 -0.23100
C 	C 	0.17080 0.02720 0.65150 -0.12300
C 	C 	0.20870 0.06640 0.66490 0.32900
O 	O 	0.20043 0.11115 0.64889 -0.35300
O 	O 	0.24690 0.05564 0.69320 -0.39900
N 	N 	0.12496 0.04360 0.63150 -0.22100
C 	C 	0.17080 0.52720 0.15150 -0.07000
C 	C 	0.20870 0.56640 0.16490 0.31400
O 	O 	0.20043 0.61115 0.14889 -0.34900
O 	O 	0.24690 0.55564 0.19320 -0.38600
N 	N 	0.12496 0.54360 0.13150 -0.23300
C 	C 	0.32920 0.02720 0.84850 -0.12000
C 	C 	0.29130 0.06640 0.83510 0.33100
O 	O 	0.29957 0.11115 0.85111 -0.35100
O 	O 	0.25310 0.05564 0.80680 -0.39800
N 	N 	0.37504 0.04360 0.86850 -0.21800
C 	C 	0.32920 0.52720 0.34850 -0.06800
C 	C 	0.29130 0.56640 0.33510 0.31400
O 	O 	0.29957 0.61115 0.35111 -0.34800
O 	O 	0.25310 0.55564 0.30680 -0.38600
N 	N 	0.37504 0.54360 0.36850 -0.23200
C 	C 	0.82920 0.02720 0.34850 -0.12200
C 	C 	0.79130 0.06640 0.33510 0.33000
O 	O 	0.79957 0.11115 0.35111 -0.35300
O 	O 	0.75310 0.05564 0.30680 -0.39900
N 	N 	0.87504 0.04360 0.36850 -0.21800
C 	C 	0.82920 0.52720 0.84850 -0.06400
C 	C 	0.79130 0.56640 0.83510 0.31600
O 	O 	0.79957 0.61115 0.85111 -0.34400
O 	O 	0.75310 0.55564 0.80680 -0.38100
N 	N 	0.87504 0.54360 0.86850 -0.22700
C 	C 	0.32920 0.97280 0.15150 -0.01000
C 	C 	0.29130 0.93360 0.16490 0.29800
O 	O 	0.29957 0.88885 0.14889 -0.34200
O 	O 	0.25310 0.94436 0.19320 -0.36400
N 	N 	0.37504 0.95640 0.13150 -0.21400
C 	C 	0.32920 0.47280 0.65150 -0.06800
C 	C 	0.29130 0.43360 0.66490 0.31500
O 	O 	0.29957 0.38885 0.64889 -0.34800
O 	O 	0.25310 0.44436 0.69320 -0.38600
N 	N 	0.37504 0.45640 0.63150 -0.23100
C 	C 	0.82920 0.97280 0.65150 -0.00700
C 	C 	0.79130 0.93360 0.66490 0.29900
O 	O 	0.79957 0.88885 0.64889 -0.33900
O 	O 	0.75310 0.94436 0.69320 -0.36000
N 	N 	0.87504 0.95640 0.63150 -0.21000
C 	C 	0.82920 0.47280 0.15150 -0.06800
C 	C 	0.79130 0.43360 0.16490 0.31400
O 	O 	0.79957 0.38885 0.14889 -0.34900
O 	O 	0.75310 0.44436 0.19320 -0.38600
N 	N 	0.87504 0.45640 0.13150 -0.22900
C 	C 	0.84850 0.67080 0.97280 -0.00600
C 	C 	0.83510 0.70870 0.93360 0.30000
O 	O 	0.85111 0.70043 0.88885 -0.33500
O 	O 	0.80680 0.74690 0.94436 -0.35600
N 	N 	0.86850 0.62496 0.95640 -0.21100
C 	C 	0.84850 0.17080 0.47280 -0.06600
C 	C 	0.83510 0.20870 0.43360 0.31600
O 	O 	0.85111 0.20043 0.38885 -0.34400
O 	O 	0.80680 0.24690 0.44436 -0.38200
N 	N 	0.86850 0.12496 0.45640 -0.23100
C 	C 	0.34850 0.67080 0.47280 -0.06800
C 	C 	0.33510 0.70870 0.43360 0.31500
O 	O 	0.35111 0.70043 0.38885 -0.34600
O 	O 	0.30680 0.74690 0.44436 -0.38200
N 	N 	0.36850 0.62496 0.45640 -0.23200
C 	C 	0.34850 0.17080 0.97280 -0.00900
C 	C 	0.33510 0.20870 0.93360 0.29800
O 	O 	0.35111 0.20043 0.88885 -0.33900
O 	O 	0.30680 0.24690 0.94436 -0.36100
N 	N 	0.36850 0.12496 0.95640 -0.21400
C 	C 	0.15150 0.67080 0.02720 -0.12300
C 	C 	0.16490 0.70870 0.06640 0.32900
O 	O 	0.14889 0.70043 0.11115 -0.35400
O 	O 	0.19320 0.74690 0.05564 -0.39900
N 	N 	0.13150 0.62496 0.04360 -0.22100
C 	C 	0.15150 0.17080 0.52720 -0.07000
C 	C 	0.16490 0.20870 0.56640 0.31400
O 	O 	0.14889 0.20043 0.61115 -0.34900
O 	O 	0.19320 0.24690 0.55564 -0.38600
N 	N 	0.13150 0.12496 0.54360 -0.23300
C 	C 	0.65150 0.67080 0.52720 -0.06700
C 	C 	0.66490 0.70870 0.56640 0.31500
O 	O 	0.64889 0.70043 0.61115 -0.34500
O 	O 	0.69320 0.74690 0.55564 -0.38200
N 	N 	0.63150 0.62496 0.54360 -0.23100
C 	C 	0.65150 0.17080 0.02720 -0.12300
C 	C 	0.66490 0.20870 0.06640 0.32900
O 	O 	0.64889 0.20043 0.11115 -0.35300
O 	O 	0.69320 0.24690 0.05564 -0.39900
N 	N 	0.63150 0.12496 0.04360 -0.22100
C 	C 	0.84850 0.32920 0.02720 -0.12000
C 	C 	0.83510 0.29130 0.06640 0.33100
O 	O 	0.85111 0.29957 0.11115 -0.35100
O 	O 	0.80680 0.25310 0.05564 -0.39800
N 	N 	0.86850 0.37504 0.04360 -0.21800
C 	C 	0.84850 0.82920 0.52720 -0.06400
C 	C 	0.83510 0.79130 0.56640 0.31600
O 	O 	0.85111 0.79957 0.61115 -0.34400
O 	O 	0.80680 0.75310 0.55564 -0.38100
N 	N 	0.86850 0.87504 0.54360 -0.22700
C 	C 	0.34850 0.32920 0.52720 -0.06800
C 	C 	0.33510 0.29130 0.56640 0.31400
O 	O 	0.35111 0.29957 0.61115 -0.34800
O 	O 	0.30680 0.25310 0.55564 -0.38600
N 	N 	0.36850 0.37504 0.54360 -0.23200
C 	C 	0.34850 0.82920 0.02720 -0.12200
C 	C 	0.33510 0.79130 0.06640 0.33000
O 	O 	0.35111 0.79957 0.11115 -0.35300
O 	O 	0.30680 0.75310 0.05564 -0.39900
N 	N 	0.36850 0.87504 0.04360 -0.21800
C 	C 	0.15150 0.32920 0.97280 -0.01000
C 	C 	0.16490 0.29130 0.93360 0.29800
O 	O 	0.14889 0.29957 0.88885 -0.34200
O 	O 	0.19320 0.25310 0.94436 -0.36400
N 	N 	0.13150 0.37504 0.95640 -0.21400
C 	C 	0.15150 0.82920 0.47280 -0.06800
C 	C 	0.16490 0.79130 0.43360 0.31400
O 	O 	0.14889 0.79957 0.38885 -0.34900
O 	O 	0.19320 0.75310 0.44436 -0.38600
N 	N 	0.13150 0.87504 0.45640 -0.22900
C 	C 	0.65150 0.32920 0.47280 -0.06800
C 	C 	0.66490 0.29130 0.43360 0.31500
O 	O 	0.64889 0.29957 0.38885 -0.34800
O 	O 	0.69320 0.25310 0.44436 -0.38600
N 	N 	0.63150 0.37504 0.45640 -0.23100
C 	C 	0.65150 0.82920 0.97280 -0.00700
C 	C 	0.66490 0.79130 0.93360 0.29900
O 	O 	0.64889 0.79957 0.88885 -0.33900
O 	O 	0.69320 0.75310 0.94436 -0.36000
N 	N 	0.63150 0.87504 0.95640 -0.21000
Co	Co	0.12287 0.12287 0.37713 1.15600
Co	Co	0.87713 0.87713 0.37713 1.15900
Co	Co	0.37713 0.37713 0.37713 1.15700
Co	Co	0.87713 0.12287 0.62287 1.15700
Co	Co	0.37713 0.12287 0.12287 1.15600
Co	Co	0.12287 0.87713 0.62287 1.15700
Co	Co	0.12287 0.37713 0.12287 1.15600
Co	Co	0.37713 0.62287 0.62287 1.15700
Co	Co	0.37713 0.87713 0.87713 1.15900
Co	Co	0.62287 0.87713 0.12287 1.15700
Co	Co	0.62287 0.37713 0.62287 1.15700
Co	Co	0.62287 0.12287 0.87713 1.15700
Co	Co	0.62287 0.62287 0.37713 1.15700
Co	Co	0.87713 0.37713 0.87713 1.15900
Co	Co	0.12287 0.62287 0.87713 1.15700
Co	Co	0.87713 0.62287 0.12287 1.15700
Co	Co	0.87713 0.87713 0.62287 1.15900
Co	Co	0.87713 0.37713 0.12287 1.15700
Co	Co	0.37713 0.87713 0.12287 1.15700
Co	Co	0.12287 0.12287 0.62287 1.15600
Co	Co	0.12287 0.87713 0.37713 1.15700
Co	Co	0.87713 0.12287 0.37713 1.15700
Co	Co	0.37713 0.62287 0.37713 1.15700
Co	Co	0.62287 0.87713 0.87713 1.15900
Co	Co	0.62287 0.37713 0.37713 1.15700
Co	Co	0.12287 0.37713 0.87713 1.15700
Co	Co	0.62287 0.12287 0.12287 1.15600
Co	Co	0.62287 0.62287 0.62287 1.15700
Co	Co	0.37713 0.12287 0.87713 1.15700
Co	Co	0.37713 0.37713 0.62287 1.15700
Co	Co	0.87713 0.62287 0.87713 1.15900
Co	Co	0.12287 0.62287 0.12287 1.15600
Co	Co	0.00000 0.25000 0.25000 1.13100
Co	Co	0.50000 0.25000 0.75000 1.15100
Co	Co	-0.00000 0.75000 0.25000 1.13200
Co	Co	0.50000 0.75000 0.75000 1.15200
Co	Co	0.50000 0.25000 0.25000 1.15000
Co	Co	-0.00000 0.25000 0.75000 1.13200
Co	Co	-0.00000 0.75000 0.75000 1.13300
Co	Co	0.50000 0.75000 0.25000 1.15100
Co	Co	0.25000 0.00000 0.25000 1.13100
Co	Co	0.25000 0.50000 0.75000 1.15100
Co	Co	0.25000 -0.00000 0.75000 1.13200
Co	Co	0.25000 0.50000 0.25000 1.15000
Co	Co	0.75000 0.00000 0.25000 1.13200
Co	Co	0.75000 0.50000 0.75000 1.15200
Co	Co	0.75000 -0.00000 0.75000 1.13300
Co	Co	0.75000 0.50000 0.25000 1.15100
Co	Co	0.25000 0.25000 -0.00000 1.13100
Co	Co	0.25000 0.75000 0.50000 1.15100
Co	Co	0.75000 0.25000 -0.00000 1.13200
Co	Co	0.75000 0.75000 0.50000 1.15200
Co	Co	0.25000 0.25000 0.50000 1.15000
Co	Co	0.25000 0.75000 -0.00000 1.13200
Co	Co	0.75000 0.75000 -0.00000 1.13300
Co	Co	0.75000 0.25000 0.50000 1.15100
C 	C 	0.00000 0.12150 0.40090 0.06300
H 	H 	-0.00000 0.10830 0.43510 -0.02900
C 	C 	0.00000 0.62150 0.90090 0.06600
H 	H 	-0.00000 0.60830 0.93510 -0.01500
C 	C 	0.50000 0.12150 0.90090 0.11400
H 	H 	0.50000 0.10830 0.93510 -0.02000
C 	C 	0.50000 0.62150 0.40090 0.11400
H 	H 	0.50000 0.60830 0.43510 -0.03000
C 	C 	0.00000 0.87850 0.40090 0.06900
H 	H 	0.00000 0.89170 0.43510 -0.02200
C 	C 	0.00000 0.37850 0.90090 0.06500
H 	H 	0.00000 0.39170 0.93510 -0.01500
C 	C 	0.50000 0.87850 0.90090 0.12000
H 	H 	0.50000 0.89170 0.93510 -0.01300
C 	C 	0.50000 0.37850 0.40090 0.11300
H 	H 	0.50000 0.39170 0.43510 -0.03000
C 	C 	-0.00000 0.12150 0.59910 0.06300
H 	H 	0.00000 0.10830 0.56490 -0.02900
C 	C 	0.00000 0.62150 0.09910 0.06400
H 	H 	-0.00000 0.60830 0.06490 -0.03300
C 	C 	0.50000 0.12150 0.09910 0.11100
H 	H 	0.50000 0.10830 0.06490 -0.03800
C 	C 	0.50000 0.62150 0.59910 0.11400
H 	H 	0.50000 0.60830 0.56490 -0.03000
C 	C 	0.00000 0.87850 0.59910 0.06900
H 	H 	0.00000 0.89170 0.56490 -0.02200
C 	C 	0.00000 0.37850 0.09910 0.06300
H 	H 	-0.00000 0.39170 0.06490 -0.03300
C 	C 	0.50000 0.87850 0.09910 0.11700
H 	H 	0.50000 0.89170 0.06490 -0.03200
C 	C 	0.50000 0.37850 0.59910 0.11300
H 	H 	0.50000 0.39170 0.56490 -0.03000
C 	C 	0.40090 0.00000 0.12150 0.06300
H 	H 	0.43510 -0.00000 0.10830 -0.02900
C 	C 	0.40090 0.50000 0.62150 0.11400
H 	H 	0.43510 0.50000 0.60830 -0.03000
C 	C 	0.90090 0.00000 0.62150 0.06600
H 	H 	0.93510 0.00000 0.60830 -0.01500
C 	C 	0.90090 0.50000 0.12150 0.11400
H 	H 	0.93510 0.50000 0.10830 -0.02000
C 	C 	0.40090 0.00000 0.87850 0.06900
H 	H 	0.43510 0.00000 0.89170 -0.02200
C 	C 	0.40090 0.50000 0.37850 0.11300
H 	H 	0.43510 0.50000 0.39170 -0.03000
C 	C 	0.90090 0.00000 0.37850 0.06500
H 	H 	0.93510 -0.00000 0.39170 -0.01500
C 	C 	0.90090 0.50000 0.87850 0.12000
H 	H 	0.93510 0.50000 0.89170 -0.01300
C 	C 	0.59910 0.00000 0.12150 0.06300
H 	H 	0.56490 -0.00000 0.10830 -0.02900
C 	C 	0.59910 0.50000 0.62150 0.11400
H 	H 	0.56490 0.50000 0.60830 -0.03000
C 	C 	0.09910 0.00000 0.62150 0.06400
H 	H 	0.06490 0.00000 0.60830 -0.03300
C 	C 	0.09910 0.50000 0.12150 0.11100
H 	H 	0.06490 0.50000 0.10830 -0.03800
C 	C 	0.59910 0.00000 0.87850 0.06900
H 	H 	0.56490 0.00000 0.89170 -0.02200
C 	C 	0.59910 0.50000 0.37850 0.11300
H 	H 	0.56490 0.50000 0.39170 -0.03000
C 	C 	0.09910 0.00000 0.37850 0.06300
H 	H 	0.06490 -0.00000 0.39170 -0.03300
C 	C 	0.09910 0.50000 0.87850 0.11700
H 	H 	0.06490 0.50000 0.89170 -0.03200
C 	C 	0.12150 0.40090 -0.00000 0.06300
H 	H 	0.10830 0.43510 -0.00000 -0.02900
C 	C 	0.12150 0.90090 0.50000 0.11400
H 	H 	0.10830 0.93510 0.50000 -0.02000
C 	C 	0.62150 0.40090 0.50000 0.11400
H 	H 	0.60830 0.43510 0.50000 -0.03000
C 	C 	0.62150 0.90090 -0.00000 0.06600
H 	H 	0.60830 0.93510 -0.00000 -0.01500
C 	C 	0.87850 0.40090 -0.00000 0.06900
H 	H 	0.89170 0.43510 -0.00000 -0.02200
C 	C 	0.87850 0.90090 0.50000 0.12000
H 	H 	0.89170 0.93510 0.50000 -0.01300
C 	C 	0.37850 0.40090 0.50000 0.11300
H 	H 	0.39170 0.43510 0.50000 -0.03000
C 	C 	0.37850 0.90090 -0.00000 0.06500
H 	H 	0.39170 0.93510 -0.00000 -0.01500
C 	C 	0.12150 0.59910 -0.00000 0.06300
H 	H 	0.10830 0.56490 -0.00000 -0.02900
C 	C 	0.12150 0.09910 0.50000 0.11100
H 	H 	0.10830 0.06490 0.50000 -0.03800
C 	C 	0.62150 0.59910 0.50000 0.11400
H 	H 	0.60830 0.56490 0.50000 -0.03000
C 	C 	0.62150 0.09910 -0.00000 0.06400
H 	H 	0.60830 0.06490 -0.00000 -0.03300
C 	C 	0.87850 0.59910 -0.00000 0.06900
H 	H 	0.89170 0.56490 -0.00000 -0.02200
C 	C 	0.87850 0.09910 0.50000 0.11700
H 	H 	0.89170 0.06490 0.50000 -0.03200
C 	C 	0.37850 0.59910 0.50000 0.11300
H 	H 	0.39170 0.56490 0.50000 -0.03000
C 	C 	0.37850 0.09910 -0.00000 0.06300
H 	H 	0.39170 0.06490 -0.00000 -0.03300
