data_crystal

_cell_length_a 8.52120
_cell_length_b 12.48030
_cell_length_c 12.48030
_cell_angle_alpha 116.20100
_cell_angle_beta  98.74300
_cell_angle_gamma 81.25700

_symmetry_space_group_name_	'P 1'
_symmetry_space_group_name_H-M	'P 1'

loop_
_symmetry_equiv_pos_as_xyz
  x,y,z

loop_
_atom_site_label
_atom_site_type_symbol
_atom_site_fract_x
_atom_site_fract_y
_atom_site_fract_z
_atom_site_charge
Cu	Cu	0.92470 0.59676 0.99160 0.91600
Cu	Cu	0.57530 0.99160 0.59676 0.91800
Cu	Cu	0.07530 0.40324 0.00840 0.91500
Cu	Cu	0.42470 0.00840 0.40324 0.91700
H 	H 	0.74850 0.26520 0.65520 0.18000
H 	H 	0.80480 0.35630 0.61370 0.17000
H 	H 	0.05110 0.23990 0.56830 -0.04000
H 	H 	0.00580 0.15200 0.61900 -0.02000
H 	H 	0.96200 0.06070 0.40770 0.18500
H 	H 	0.84800 0.17560 0.40880 0.17000
H 	H 	0.82720 0.85750 0.16110 0.02100
H 	H 	0.65000 0.02050 0.17190 0.07700
H 	H 	0.50050 0.83350 0.82370 0.07000
H 	H 	0.68020 0.67540 0.82300 0.01300
H 	H 	0.75150 0.65520 0.26520 0.18100
H 	H 	0.69520 0.61370 0.35630 0.17000
H 	H 	0.44890 0.56830 0.23990 -0.03900
H 	H 	0.49420 0.61900 0.15200 -0.02000
H 	H 	0.53800 0.40770 0.06070 0.18400
H 	H 	0.65200 0.40880 0.17560 0.16900
H 	H 	0.67280 0.16110 0.85750 0.02000
H 	H 	0.85000 0.17190 0.02050 0.08000
H 	H 	0.99950 0.82370 0.83350 0.06900
H 	H 	0.81980 0.82300 0.67540 0.01300
H 	H 	0.25150 0.73480 0.34480 0.18000
H 	H 	0.19520 0.64370 0.38630 0.17000
H 	H 	0.94890 0.76010 0.43170 -0.04000
H 	H 	0.99420 0.84800 0.38100 -0.02000
H 	H 	0.03800 0.93930 0.59230 0.18500
H 	H 	0.15200 0.82440 0.59120 0.17000
H 	H 	0.17280 0.14250 0.83890 0.02100
H 	H 	0.35000 0.97950 0.82810 0.07700
H 	H 	0.49950 0.16650 0.17630 0.07000
H 	H 	0.31980 0.32460 0.17700 0.01300
H 	H 	0.24850 0.34480 0.73480 0.18100
H 	H 	0.30480 0.38630 0.64370 0.17000
H 	H 	0.55110 0.43170 0.76010 -0.03900
H 	H 	0.50580 0.38100 0.84800 -0.02000
H 	H 	0.46200 0.59230 0.93930 0.18400
H 	H 	0.34800 0.59120 0.82440 0.16900
H 	H 	0.32720 0.83890 0.14250 0.02000
H 	H 	0.15000 0.82810 0.97950 0.08000
H 	H 	0.00050 0.17630 0.16650 0.06900
H 	H 	0.18020 0.17700 0.32460 0.01300
C 	C 	0.90630 0.37731 0.78129 0.45600
C 	C 	0.84220 0.30242 0.65338 -0.46200
C 	C 	0.96160 0.20331 0.57749 0.24600
C 	C 	0.88270 0.12569 0.45311 -0.46900
C 	C 	0.74030 0.07104 0.46072 0.45400
C 	C 	0.76020 0.85255 0.09125 0.07600
C 	C 	0.65470 0.95057 0.09803 -0.11000
C 	C 	0.55600 0.94776 0.99824 0.04900
C 	C 	0.56700 0.84140 0.89460 -0.11900
C 	C 	0.67480 0.74730 0.89510 0.06600
C 	C 	0.59370 0.78129 0.37731 0.45600
C 	C 	0.65780 0.65338 0.30242 -0.46100
C 	C 	0.53840 0.57749 0.20331 0.24600
C 	C 	0.61730 0.45311 0.12569 -0.46800
C 	C 	0.75970 0.46072 0.07104 0.45300
C 	C 	0.73980 0.09125 0.85255 0.07600
C 	C 	0.84530 0.09803 0.95057 -0.11400
C 	C 	0.94400 0.99824 0.94776 0.04800
C 	C 	0.93300 0.89460 0.84140 -0.11900
C 	C 	0.82520 0.89510 0.74730 0.06500
C 	C 	0.09370 0.62269 0.21871 0.45600
C 	C 	0.15780 0.69758 0.34662 -0.46200
C 	C 	0.03840 0.79669 0.42251 0.24600
C 	C 	0.11730 0.87431 0.54689 -0.46900
C 	C 	0.25970 0.92896 0.53928 0.45400
C 	C 	0.23980 0.14745 0.90875 0.07600
C 	C 	0.34530 0.04943 0.90197 -0.11000
C 	C 	0.44400 0.05224 0.00176 0.04900
C 	C 	0.43300 0.15860 0.10540 -0.11900
C 	C 	0.32520 0.25270 0.10490 0.06600
C 	C 	0.40630 0.21871 0.62269 0.45600
C 	C 	0.34220 0.34662 0.69758 -0.46100
C 	C 	0.46160 0.42251 0.79669 0.24600
C 	C 	0.38270 0.54689 0.87431 -0.46800
C 	C 	0.24030 0.53928 0.92896 0.45300
C 	C 	0.26020 0.90875 0.14745 0.07600
C 	C 	0.15470 0.90197 0.04943 -0.11400
C 	C 	0.05600 0.00176 0.05224 0.04800
C 	C 	0.06700 0.10540 0.15860 -0.11900
C 	C 	0.17480 0.10490 0.25270 0.06500
N 	N 	0.77200 0.75138 0.99102 -0.19100
N 	N 	0.72800 0.99102 0.75138 -0.19000
N 	N 	0.22800 0.24862 0.00898 -0.19100
N 	N 	0.27200 0.00898 0.24862 -0.19000
O 	O 	0.86730 0.48885 0.82267 -0.43400
O 	O 	0.98950 0.32432 0.83858 -0.43600
O 	O 	0.74960 0.03826 0.54354 -0.43800
O 	O 	0.62100 0.06268 0.38480 -0.43200
O 	O 	0.63270 0.82267 0.48885 -0.43300
O 	O 	0.51050 0.83858 0.32432 -0.43500
O 	O 	0.75040 0.54354 0.03826 -0.43600
O 	O 	0.87900 0.38480 0.06268 -0.43000
O 	O 	0.13270 0.51115 0.17733 -0.43400
O 	O 	0.01050 0.67568 0.16142 -0.43600
O 	O 	0.25040 0.96174 0.45646 -0.43800
O 	O 	0.37900 0.93732 0.61520 -0.43200
O 	O 	0.36730 0.17733 0.51115 -0.43300
O 	O 	0.48950 0.16142 0.67568 -0.43500
O 	O 	0.24960 0.45646 0.96174 -0.43600
O 	O 	0.12100 0.61520 0.93732 -0.43000
