data_crystal

_cell_length_a 26.05500
_cell_length_b 26.05500
_cell_length_c 35.84200
_cell_angle_alpha 90.00000
_cell_angle_beta  90.00000
_cell_angle_gamma 120.00000

_symmetry_space_group_name_	'P 1'
_symmetry_space_group_name_H-M	'P 1'

loop_
_symmetry_equiv_pos_as_xyz
  x,y,z

loop_
_atom_site_label
_atom_site_type_symbol
_atom_site_fract_x
_atom_site_fract_y
_atom_site_fract_z
_atom_site_charge
Zn	Zn	0.86085 0.31515 0.94488 1.23000
Zn	Zn	0.74485 0.33310 0.96486 1.20900
Zn	Zn	0.45430 0.13915 0.94488 1.22800
Zn	Zn	0.58825 0.25515 0.96486 1.20900
Zn	Zn	0.68485 0.54570 0.94488 1.22900
Zn	Zn	0.66690 0.41175 0.96486 1.20900
Zn	Zn	0.13915 0.68485 0.44488 1.22800
Zn	Zn	0.25515 0.66690 0.46486 1.20900
Zn	Zn	0.54570 0.86085 0.44488 1.23000
Zn	Zn	0.41175 0.74485 0.46486 1.20900
Zn	Zn	0.31515 0.45430 0.44488 1.22900
Zn	Zn	0.33310 0.58825 0.46486 1.20900
Zn	Zn	0.54570 0.68485 0.55512 1.22900
Zn	Zn	0.41175 0.66690 0.53514 1.20900
Zn	Zn	0.31515 0.86085 0.55512 1.22900
Zn	Zn	0.33310 0.74485 0.53514 1.20800
Zn	Zn	0.13915 0.45430 0.55512 1.22700
Zn	Zn	0.25515 0.58825 0.53514 1.20800
Zn	Zn	0.45430 0.31515 0.05512 1.22800
Zn	Zn	0.58825 0.33310 0.03514 1.20800
Zn	Zn	0.68485 0.13915 0.05512 1.22700
Zn	Zn	0.66690 0.25515 0.03514 1.20800
Zn	Zn	0.86085 0.54570 0.05512 1.22900
Zn	Zn	0.74485 0.41175 0.03514 1.20800
Zn	Zn	0.13915 0.68485 0.05512 1.22700
Zn	Zn	0.25515 0.66690 0.03514 1.20800
Zn	Zn	0.54570 0.86085 0.05512 1.22900
Zn	Zn	0.41175 0.74485 0.03514 1.20800
Zn	Zn	0.31515 0.45430 0.05512 1.22800
Zn	Zn	0.33310 0.58825 0.03514 1.20800
Zn	Zn	0.86085 0.31515 0.55512 1.22900
Zn	Zn	0.74485 0.33310 0.53514 1.20800
Zn	Zn	0.45430 0.13915 0.55512 1.22700
Zn	Zn	0.58825 0.25515 0.53514 1.20800
Zn	Zn	0.68485 0.54570 0.55512 1.22800
Zn	Zn	0.66690 0.41175 0.53514 1.20800
Zn	Zn	0.45430 0.31515 0.44488 1.22800
Zn	Zn	0.58825 0.33310 0.46486 1.20800
Zn	Zn	0.68485 0.13915 0.44488 1.22700
Zn	Zn	0.66690 0.25515 0.46486 1.20800
Zn	Zn	0.86085 0.54570 0.44488 1.22900
Zn	Zn	0.74485 0.41175 0.46486 1.20800
Zn	Zn	0.54570 0.68485 0.94488 1.22800
Zn	Zn	0.41175 0.66690 0.96486 1.20800
Zn	Zn	0.31515 0.86085 0.94488 1.22900
Zn	Zn	0.33310 0.74485 0.96486 1.20800
Zn	Zn	0.13915 0.45430 0.94488 1.22700
Zn	Zn	0.25515 0.58825 0.96486 1.20800
Zn	Zn	0.00000 0.33990 0.93730 1.19200
Zn	Zn	0.33990 0.00000 0.93730 1.19200
Zn	Zn	0.66010 0.66010 0.93730 1.20600
Zn	Zn	0.00000 0.66010 0.43730 1.19300
Zn	Zn	0.66010 -0.00000 0.43730 1.19300
Zn	Zn	0.33990 0.33990 0.43730 1.20500
Zn	Zn	0.66010 0.66010 0.56270 1.20600
Zn	Zn	0.33990 -0.00000 0.56270 1.19200
Zn	Zn	-0.00000 0.33990 0.56270 1.19200
Zn	Zn	0.33990 0.33990 0.06270 1.20500
Zn	Zn	0.66010 0.00000 0.06270 1.19300
Zn	Zn	-0.00000 0.66010 0.06270 1.19300
H 	H 	0.77460 0.12540 0.95700 0.04200
H 	H 	0.94350 0.16140 0.94560 0.04900
H 	H 	0.91180 0.05940 0.94840 0.04900
H 	H 	0.83870 0.31020 0.83080 0.04600
H 	H 	0.74150 0.41420 0.78960 0.07300
H 	H 	0.74620 0.39440 0.85330 0.03200
H 	H 	0.82920 0.29640 0.02230 -0.03000
H 	H 	0.86590 0.36520 0.02210 -0.01900
H 	H 	0.81460 0.36890 0.05980 0.03500
H 	H 	0.77920 0.29950 0.06110 0.01600
H 	H 	0.95570 0.42870 0.98430 -0.02400
H 	H 	0.95570 0.44590 0.94250 -0.03200
H 	H 	0.35080 0.22540 0.95700 0.03400
H 	H 	0.21790 0.05650 0.94560 0.02000
H 	H 	0.14760 0.08820 0.94840 0.05400
H 	H 	0.47150 0.16130 0.83080 0.03900
H 	H 	0.67270 0.25850 0.78960 0.07100
H 	H 	0.64820 0.25380 0.85330 0.03000
H 	H 	0.46720 0.17080 0.02230 -0.03600
H 	H 	0.49930 0.13410 0.02210 -0.03000
H 	H 	0.55430 0.18540 0.05980 0.03200
H 	H 	0.52030 0.22080 0.06110 0.01500
H 	H 	0.47300 0.04430 0.98430 0.02300
H 	H 	0.49020 0.04430 0.94250 0.01500
H 	H 	0.87460 0.64920 0.95700 0.04300
H 	H 	0.83860 0.78210 0.94560 0.03000
H 	H 	0.94060 0.85240 0.94840 0.08600
H 	H 	0.68980 0.52850 0.83080 0.04600
H 	H 	0.58580 0.32730 0.78960 0.07200
H 	H 	0.60560 0.35180 0.85330 0.03100
H 	H 	0.70360 0.53280 0.02230 -0.03100
H 	H 	0.63480 0.50070 0.02210 -0.02300
H 	H 	0.63110 0.44570 0.05980 0.03400
H 	H 	0.70050 0.47970 0.06110 0.01600
H 	H 	0.57130 0.52700 0.98430 0.00000
H 	H 	0.55410 0.50980 0.94250 -0.00900
H 	H 	0.22540 0.87460 0.45700 0.04600
H 	H 	0.05650 0.83860 0.44560 0.02100
H 	H 	0.08820 0.94060 0.44840 0.07400
H 	H 	0.16130 0.68980 0.33080 0.04100
H 	H 	0.25850 0.58580 0.28960 0.07100
H 	H 	0.25380 0.60560 0.35330 0.03000
H 	H 	0.17080 0.70360 0.52230 -0.03400
H 	H 	0.13410 0.63480 0.52210 -0.02800
H 	H 	0.18540 0.63110 0.55980 0.03200
H 	H 	0.22080 0.70050 0.56110 0.01500
H 	H 	0.04430 0.57130 0.48430 0.02400
H 	H 	0.04430 0.55410 0.44250 0.01400
H 	H 	0.64920 0.77460 0.45700 0.03500
H 	H 	0.78210 0.94350 0.44560 0.04300
H 	H 	0.85240 0.91180 0.44840 0.07400
H 	H 	0.52850 0.83870 0.33080 0.04800
H 	H 	0.32730 0.74150 0.28960 0.07300
H 	H 	0.35180 0.74620 0.35330 0.03200
H 	H 	0.53280 0.82920 0.52230 -0.02800
H 	H 	0.50070 0.86590 0.52210 -0.01700
H 	H 	0.44570 0.81460 0.55980 0.03500
H 	H 	0.47970 0.77920 0.56110 0.01600
H 	H 	0.52700 0.95570 0.48430 -0.02300
H 	H 	0.50980 0.95570 0.44250 -0.03300
H 	H 	0.12540 0.35080 0.45700 0.04400
H 	H 	0.16140 0.21790 0.44560 0.03900
H 	H 	0.05940 0.14760 0.44840 0.03600
H 	H 	0.31020 0.47150 0.33080 0.04100
H 	H 	0.41420 0.67270 0.28960 0.07200
H 	H 	0.39440 0.64820 0.35330 0.03100
H 	H 	0.29640 0.46720 0.52230 -0.03200
H 	H 	0.36520 0.49930 0.52210 -0.02300
H 	H 	0.36890 0.55430 0.55980 0.03300
H 	H 	0.29950 0.52030 0.56110 0.01500
H 	H 	0.42870 0.47300 0.48430 0.00000
H 	H 	0.44590 0.49020 0.44250 -0.00900
H 	H 	0.64920 0.87460 0.54300 0.04300
H 	H 	0.78210 0.83860 0.55440 0.03000
H 	H 	0.85240 0.94060 0.55160 0.08600
H 	H 	0.52850 0.68980 0.66920 0.04600
H 	H 	0.32730 0.58580 0.71040 0.07200
H 	H 	0.35180 0.60560 0.64670 0.03100
H 	H 	0.53280 0.70360 0.47770 -0.03100
H 	H 	0.50070 0.63480 0.47790 -0.02300
H 	H 	0.44570 0.63110 0.44020 0.03400
H 	H 	0.47970 0.70050 0.43890 0.01600
H 	H 	0.52700 0.57130 0.51570 0.00000
H 	H 	0.50980 0.55410 0.55750 -0.00900
H 	H 	0.12540 0.77460 0.54300 0.04200
H 	H 	0.16140 0.94350 0.55440 0.04900
H 	H 	0.05940 0.91180 0.55160 0.04900
H 	H 	0.31020 0.83870 0.66920 0.04600
H 	H 	0.41420 0.74150 0.71040 0.07300
H 	H 	0.39440 0.74620 0.64670 0.03200
H 	H 	0.29640 0.82920 0.47770 -0.03000
H 	H 	0.36520 0.86590 0.47790 -0.01900
H 	H 	0.36890 0.81460 0.44020 0.03500
H 	H 	0.29950 0.77920 0.43890 0.01600
H 	H 	0.42870 0.95570 0.51570 -0.02500
H 	H 	0.44590 0.95570 0.55750 -0.03200
H 	H 	0.22540 0.35080 0.54300 0.03400
H 	H 	0.05650 0.21790 0.55440 0.01900
H 	H 	0.08820 0.14760 0.55160 0.05400
H 	H 	0.16130 0.47150 0.66920 0.03900
H 	H 	0.25850 0.67270 0.71040 0.07100
H 	H 	0.25380 0.64820 0.64670 0.03000
H 	H 	0.17080 0.46720 0.47770 -0.03600
H 	H 	0.13410 0.49930 0.47790 -0.03000
H 	H 	0.18540 0.55430 0.44020 0.03200
H 	H 	0.22080 0.52030 0.43890 0.01500
H 	H 	0.04430 0.47300 0.51570 0.02300
H 	H 	0.04430 0.49020 0.55750 0.01500
H 	H 	0.35080 0.12540 0.04300 0.04400
H 	H 	0.21790 0.16140 0.05440 0.03900
H 	H 	0.14760 0.05940 0.05160 0.03600
H 	H 	0.47150 0.31020 0.16920 0.04100
H 	H 	0.67270 0.41420 0.21040 0.07200
H 	H 	0.64820 0.39440 0.14670 0.03100
H 	H 	0.46720 0.29640 0.97770 -0.03200
H 	H 	0.49930 0.36520 0.97790 -0.02300
H 	H 	0.55430 0.36890 0.94020 0.03300
H 	H 	0.52030 0.29950 0.93890 0.01600
H 	H 	0.47300 0.42870 0.01570 0.00000
H 	H 	0.49020 0.44590 0.05750 -0.00900
H 	H 	0.87460 0.22540 0.04300 0.04600
H 	H 	0.83860 0.05650 0.05440 0.02100
H 	H 	0.94060 0.08820 0.05160 0.07400
H 	H 	0.68980 0.16130 0.16920 0.04100
H 	H 	0.58580 0.25850 0.21040 0.07100
H 	H 	0.60560 0.25380 0.14670 0.03000
H 	H 	0.70360 0.17080 0.97770 -0.03400
H 	H 	0.63480 0.13410 0.97790 -0.02800
H 	H 	0.63110 0.18540 0.94020 0.03200
H 	H 	0.70050 0.22080 0.93890 0.01600
H 	H 	0.57130 0.04430 0.01570 0.02400
H 	H 	0.55410 0.04430 0.05750 0.01400
H 	H 	0.77460 0.64920 0.04300 0.03500
H 	H 	0.94350 0.78210 0.05440 0.04300
H 	H 	0.91180 0.85240 0.05160 0.07400
H 	H 	0.83870 0.52850 0.16920 0.04800
H 	H 	0.74150 0.32730 0.21040 0.07300
H 	H 	0.74620 0.35180 0.14670 0.03200
H 	H 	0.82920 0.53280 0.97770 -0.02800
H 	H 	0.86590 0.50070 0.97790 -0.01700
H 	H 	0.81460 0.44570 0.94020 0.03500
H 	H 	0.77920 0.47970 0.93890 0.01600
H 	H 	0.95570 0.52700 0.01570 -0.02300
H 	H 	0.95570 0.50980 0.05750 -0.03300
H 	H 	0.22540 0.87460 0.04300 0.04600
H 	H 	0.05650 0.83860 0.05440 0.02100
H 	H 	0.08820 0.94060 0.05160 0.07400
H 	H 	0.16130 0.68980 0.16920 0.04100
H 	H 	0.25850 0.58580 0.21040 0.07100
H 	H 	0.25380 0.60560 0.14670 0.03000
H 	H 	0.17080 0.70360 0.97770 -0.03400
H 	H 	0.13410 0.63480 0.97790 -0.02800
H 	H 	0.18540 0.63110 0.94020 0.03200
H 	H 	0.22080 0.70050 0.93890 0.01600
H 	H 	0.04430 0.57130 0.01570 0.02400
H 	H 	0.04430 0.55410 0.05750 0.01400
H 	H 	0.64920 0.77460 0.04300 0.03500
H 	H 	0.78210 0.94350 0.05440 0.04300
H 	H 	0.85240 0.91180 0.05160 0.07400
H 	H 	0.52850 0.83870 0.16920 0.04800
H 	H 	0.32730 0.74150 0.21040 0.07300
H 	H 	0.35180 0.74620 0.14670 0.03200
H 	H 	0.53280 0.82920 0.97770 -0.02800
H 	H 	0.50070 0.86590 0.97790 -0.01700
H 	H 	0.44570 0.81460 0.94020 0.03500
H 	H 	0.47970 0.77920 0.93890 0.01600
H 	H 	0.52700 0.95570 0.01570 -0.02300
H 	H 	0.50980 0.95570 0.05750 -0.03300
H 	H 	0.12540 0.35080 0.04300 0.04400
H 	H 	0.16140 0.21790 0.05440 0.03900
H 	H 	0.05940 0.14760 0.05160 0.03600
H 	H 	0.31020 0.47150 0.16920 0.04100
H 	H 	0.41420 0.67270 0.21040 0.07200
H 	H 	0.39440 0.64820 0.14670 0.03100
H 	H 	0.29640 0.46720 0.97770 -0.03200
H 	H 	0.36520 0.49930 0.97790 -0.02300
H 	H 	0.36890 0.55430 0.94020 0.03300
H 	H 	0.29950 0.52030 0.93890 0.01600
H 	H 	0.42870 0.47300 0.01570 0.00000
H 	H 	0.44590 0.49020 0.05750 -0.00900
H 	H 	0.77460 0.12540 0.54300 0.04200
H 	H 	0.94350 0.16140 0.55440 0.04900
H 	H 	0.91180 0.05940 0.55160 0.04900
H 	H 	0.83870 0.31020 0.66920 0.04600
H 	H 	0.74150 0.41420 0.71040 0.07300
H 	H 	0.74620 0.39440 0.64670 0.03200
H 	H 	0.82920 0.29640 0.47770 -0.03000
H 	H 	0.86590 0.36520 0.47790 -0.01900
H 	H 	0.81460 0.36890 0.44020 0.03500
H 	H 	0.77920 0.29950 0.43890 0.01600
H 	H 	0.95570 0.42870 0.51570 -0.02500
H 	H 	0.95570 0.44590 0.55750 -0.03200
H 	H 	0.35080 0.22540 0.54300 0.03400
H 	H 	0.21790 0.05650 0.55440 0.01900
H 	H 	0.14760 0.08820 0.55160 0.05400
H 	H 	0.47150 0.16130 0.66920 0.03900
H 	H 	0.67270 0.25850 0.71040 0.07100
H 	H 	0.64820 0.25380 0.64670 0.03000
H 	H 	0.46720 0.17080 0.47770 -0.03600
H 	H 	0.49930 0.13410 0.47790 -0.03000
H 	H 	0.55430 0.18540 0.44020 0.03200
H 	H 	0.52030 0.22080 0.43890 0.01500
H 	H 	0.47300 0.04430 0.51570 0.02300
H 	H 	0.49020 0.04430 0.55750 0.01500
H 	H 	0.87460 0.64920 0.54300 0.04300
H 	H 	0.83860 0.78210 0.55440 0.03000
H 	H 	0.94060 0.85240 0.55160 0.08600
H 	H 	0.68980 0.52850 0.66920 0.04600
H 	H 	0.58580 0.32730 0.71040 0.07200
H 	H 	0.60560 0.35180 0.64670 0.03100
H 	H 	0.70360 0.53280 0.47770 -0.03100
H 	H 	0.63480 0.50070 0.47790 -0.02300
H 	H 	0.63110 0.44570 0.44020 0.03400
H 	H 	0.70050 0.47970 0.43890 0.01600
H 	H 	0.57130 0.52700 0.51570 0.00000
H 	H 	0.55410 0.50980 0.55750 -0.00900
H 	H 	0.35080 0.12540 0.45700 0.04400
H 	H 	0.21790 0.16140 0.44560 0.03900
H 	H 	0.14760 0.05940 0.44840 0.03600
H 	H 	0.47150 0.31020 0.33080 0.04100
H 	H 	0.67270 0.41420 0.28960 0.07200
H 	H 	0.64820 0.39440 0.35330 0.03100
H 	H 	0.46720 0.29640 0.52230 -0.03200
H 	H 	0.49930 0.36520 0.52210 -0.02300
H 	H 	0.55430 0.36890 0.55980 0.03300
H 	H 	0.52030 0.29950 0.56110 0.01500
H 	H 	0.47300 0.42870 0.48430 0.00000
H 	H 	0.49020 0.44590 0.44250 -0.00900
H 	H 	0.87460 0.22540 0.45700 0.04600
H 	H 	0.83860 0.05650 0.44560 0.02100
H 	H 	0.94060 0.08820 0.44840 0.07400
H 	H 	0.68980 0.16130 0.33080 0.04100
H 	H 	0.58580 0.25850 0.28960 0.07100
H 	H 	0.60560 0.25380 0.35330 0.03000
H 	H 	0.70360 0.17080 0.52230 -0.03400
H 	H 	0.63480 0.13410 0.52210 -0.02800
H 	H 	0.63110 0.18540 0.55980 0.03200
H 	H 	0.70050 0.22080 0.56110 0.01500
H 	H 	0.57130 0.04430 0.48430 0.02400
H 	H 	0.55410 0.04430 0.44250 0.01400
H 	H 	0.77460 0.64920 0.45700 0.03500
H 	H 	0.94350 0.78210 0.44560 0.04300
H 	H 	0.91180 0.85240 0.44840 0.07400
H 	H 	0.83870 0.52850 0.33080 0.04800
H 	H 	0.74150 0.32730 0.28960 0.07300
H 	H 	0.74620 0.35180 0.35330 0.03200
H 	H 	0.82920 0.53280 0.52230 -0.02800
H 	H 	0.86590 0.50070 0.52210 -0.01700
H 	H 	0.81460 0.44570 0.55980 0.03500
H 	H 	0.77920 0.47970 0.56110 0.01600
H 	H 	0.95570 0.52700 0.48430 -0.02300
H 	H 	0.95570 0.50980 0.44250 -0.03300
H 	H 	0.64920 0.87460 0.95700 0.04300
H 	H 	0.78210 0.83860 0.94560 0.03000
H 	H 	0.85240 0.94060 0.94840 0.08600
H 	H 	0.52850 0.68980 0.83080 0.04600
H 	H 	0.32730 0.58580 0.78960 0.07200
H 	H 	0.35180 0.60560 0.85330 0.03100
H 	H 	0.53280 0.70360 0.02230 -0.03100
H 	H 	0.50070 0.63480 0.02210 -0.02300
H 	H 	0.44570 0.63110 0.05980 0.03400
H 	H 	0.47970 0.70050 0.06110 0.01600
H 	H 	0.52700 0.57130 0.98430 0.00000
H 	H 	0.50980 0.55410 0.94250 -0.00900
H 	H 	0.12540 0.77460 0.95700 0.04200
H 	H 	0.16140 0.94350 0.94560 0.04900
H 	H 	0.05940 0.91180 0.94840 0.04900
H 	H 	0.31020 0.83870 0.83080 0.04600
H 	H 	0.41420 0.74150 0.78960 0.07300
H 	H 	0.39440 0.74620 0.85330 0.03200
H 	H 	0.29640 0.82920 0.02230 -0.03000
H 	H 	0.36520 0.86590 0.02210 -0.01900
H 	H 	0.36890 0.81460 0.05980 0.03500
H 	H 	0.29950 0.77920 0.06110 0.01600
H 	H 	0.42870 0.95570 0.98430 -0.02400
H 	H 	0.44590 0.95570 0.94250 -0.03200
H 	H 	0.22540 0.35080 0.95700 0.03400
H 	H 	0.05650 0.21790 0.94560 0.02000
H 	H 	0.08820 0.14760 0.94840 0.05400
H 	H 	0.16130 0.47150 0.83080 0.03900
H 	H 	0.25850 0.67270 0.78960 0.07100
H 	H 	0.25380 0.64820 0.85330 0.03000
H 	H 	0.17080 0.46720 0.02230 -0.03600
H 	H 	0.13410 0.49930 0.02210 -0.03000
H 	H 	0.18540 0.55430 0.05980 0.03200
H 	H 	0.22080 0.52030 0.06110 0.01500
H 	H 	0.04430 0.47300 0.98430 0.02300
H 	H 	0.04430 0.49020 0.94250 0.01500
C 	C 	0.88420 0.21850 0.94865 0.39300
C 	C 	0.86240 0.15340 0.95145 -0.10000
C 	C 	0.80200 0.11260 0.95523 0.01100
C 	C 	0.90340 0.13380 0.94840 0.01000
C 	C 	0.78370 0.05250 0.95620 -0.04200
C 	C 	0.88470 0.07270 0.94970 -0.06600
C 	C 	0.82470 0.03360 0.95300 -0.02100
C 	C 	0.79660 0.34070 0.88570 0.36900
C 	C 	0.79200 0.35200 0.84590 -0.11500
C 	C 	0.81900 0.32960 0.82260 0.00900
C 	C 	0.81230 0.34030 0.78480 -0.03800
C 	C 	0.78520 0.37030 0.77090 0.02300
C 	C 	0.75960 0.39310 0.79740 -0.09500
C 	C 	0.76320 0.38170 0.83540 0.03300
C 	C 	0.82660 0.33180 0.01766 0.13000
C 	C 	0.79150 0.33350 0.04495 -0.06700
C 	C 	0.96930 0.42630 0.95950 0.17600
C 	C 	0.33430 0.11580 0.94865 0.40500
C 	C 	0.29100 0.13760 0.95145 -0.12500
C 	C 	0.31060 0.19800 0.95523 0.03700
C 	C 	0.23040 0.09660 0.94840 0.03700
C 	C 	0.26880 0.21630 0.95620 -0.07000
C 	C 	0.18800 0.11530 0.94970 -0.10700
C 	C 	0.20890 0.17530 0.95300 0.03500
C 	C 	0.54410 0.20340 0.88570 0.36900
C 	C 	0.56000 0.20800 0.84590 -0.11900
C 	C 	0.51060 0.18100 0.82260 0.00800
C 	C 	0.52800 0.18770 0.78480 -0.04300
C 	C 	0.58510 0.21480 0.77090 0.02100
C 	C 	0.63350 0.24040 0.79740 -0.09900
C 	C 	0.61850 0.23680 0.83540 0.03300
C 	C 	0.50520 0.17340 0.01766 0.14000
C 	C 	0.54200 0.20850 0.04495 -0.07200
C 	C 	0.45700 0.03070 0.95950 -0.04800
C 	C 	0.78150 0.66570 0.94865 0.40400
C 	C 	0.84660 0.70900 0.95145 -0.11900
C 	C 	0.88740 0.68940 0.95523 0.02700
C 	C 	0.86620 0.76960 0.94840 0.04900
C 	C 	0.94750 0.73120 0.95620 -0.03800
C 	C 	0.92730 0.81200 0.94970 -0.12300
C 	C 	0.96640 0.79110 0.95300 0.08300
C 	C 	0.65930 0.45590 0.88570 0.36900
C 	C 	0.64800 0.44000 0.84590 -0.11600
C 	C 	0.67040 0.48940 0.82260 0.00800
C 	C 	0.65970 0.47200 0.78480 -0.03900
C 	C 	0.62970 0.41490 0.77090 0.02200
C 	C 	0.60690 0.36650 0.79740 -0.09700
C 	C 	0.61830 0.38150 0.83540 0.03200
C 	C 	0.66820 0.49480 0.01766 0.13300
C 	C 	0.66650 0.45800 0.04495 -0.06900
C 	C 	0.57370 0.54300 0.95950 0.06400
C 	C 	0.11580 0.78150 0.44865 0.40300
C 	C 	0.13760 0.84660 0.45145 -0.11700
C 	C 	0.19800 0.88740 0.45523 0.01200
C 	C 	0.09660 0.86620 0.44840 0.04300
C 	C 	0.21630 0.94750 0.45620 -0.01700
C 	C 	0.11530 0.92730 0.44970 -0.12100
C 	C 	0.17530 0.96640 0.45300 0.07500
C 	C 	0.20340 0.65930 0.38570 0.36900
C 	C 	0.20800 0.64800 0.34590 -0.11900
C 	C 	0.18100 0.67040 0.32260 0.00800
C 	C 	0.18770 0.65970 0.28480 -0.04200
C 	C 	0.21480 0.62970 0.27090 0.02100
C 	C 	0.24040 0.60690 0.29740 -0.09900
C 	C 	0.23680 0.61830 0.33540 0.03200
C 	C 	0.17340 0.66820 0.51766 0.13800
C 	C 	0.20850 0.66650 0.54495 -0.07100
C 	C 	0.03070 0.57370 0.45950 -0.04800
C 	C 	0.66570 0.88420 0.44865 0.40000
C 	C 	0.70900 0.86240 0.45145 -0.11500
C 	C 	0.68940 0.80200 0.45523 0.03400
C 	C 	0.76960 0.90340 0.44840 0.03700
C 	C 	0.73120 0.78370 0.45620 -0.06800
C 	C 	0.81200 0.88470 0.44970 -0.10000
C 	C 	0.79110 0.82470 0.45300 0.04000
C 	C 	0.45590 0.79660 0.38570 0.36900
C 	C 	0.44000 0.79200 0.34590 -0.11400
C 	C 	0.48940 0.81900 0.32260 0.00800
C 	C 	0.47200 0.81230 0.28480 -0.03700
C 	C 	0.41490 0.78520 0.27090 0.02300
C 	C 	0.36650 0.75960 0.29740 -0.09500
C 	C 	0.38150 0.76320 0.33540 0.03200
C 	C 	0.49480 0.82660 0.51766 0.12800
C 	C 	0.45800 0.79150 0.54495 -0.06600
C 	C 	0.54300 0.96930 0.45950 0.17600
C 	C 	0.21850 0.33430 0.44865 0.39400
C 	C 	0.15340 0.29100 0.45145 -0.09900
C 	C 	0.11260 0.31060 0.45523 -0.00300
C 	C 	0.13380 0.23040 0.44840 0.00500
C 	C 	0.05250 0.26880 0.45620 -0.02100
C 	C 	0.07270 0.18800 0.44970 -0.06400
C 	C 	0.03360 0.20890 0.45300 -0.03000
C 	C 	0.34070 0.54410 0.38570 0.36900
C 	C 	0.35200 0.56000 0.34590 -0.11800
C 	C 	0.32960 0.51060 0.32260 0.00900
C 	C 	0.34030 0.52800 0.28480 -0.04200
C 	C 	0.37030 0.58510 0.27090 0.02300
C 	C 	0.39310 0.63350 0.29740 -0.09700
C 	C 	0.38170 0.61850 0.33540 0.03300
C 	C 	0.33180 0.50520 0.51766 0.13300
C 	C 	0.33350 0.54200 0.54495 -0.06800
C 	C 	0.42630 0.45700 0.45950 0.06400
C 	C 	0.66570 0.78150 0.55135 0.40400
C 	C 	0.70900 0.84660 0.54855 -0.11900
C 	C 	0.68940 0.88740 0.54477 0.02700
C 	C 	0.76960 0.86620 0.55160 0.04900
C 	C 	0.73120 0.94750 0.54380 -0.03800
C 	C 	0.81200 0.92730 0.55030 -0.12300
C 	C 	0.79110 0.96640 0.54700 0.08300
C 	C 	0.45590 0.65930 0.61430 0.36900
C 	C 	0.44000 0.64800 0.65410 -0.11600
C 	C 	0.48940 0.67040 0.67740 0.00800
C 	C 	0.47200 0.65970 0.71520 -0.03900
C 	C 	0.41490 0.62970 0.72910 0.02200
C 	C 	0.36650 0.60690 0.70260 -0.09700
C 	C 	0.38150 0.61830 0.66460 0.03200
C 	C 	0.49480 0.66820 0.48234 0.13300
C 	C 	0.45800 0.66650 0.45505 -0.06900
C 	C 	0.54300 0.57370 0.54050 0.06400
C 	C 	0.21850 0.88420 0.55135 0.39300
C 	C 	0.15340 0.86240 0.54855 -0.10000
C 	C 	0.11260 0.80200 0.54477 0.01100
C 	C 	0.13380 0.90340 0.55160 0.01000
C 	C 	0.05250 0.78370 0.54380 -0.04100
C 	C 	0.07270 0.88470 0.55030 -0.06600
C 	C 	0.03360 0.82470 0.54700 -0.02100
C 	C 	0.34070 0.79660 0.61430 0.36900
C 	C 	0.35200 0.79200 0.65410 -0.11500
C 	C 	0.32960 0.81900 0.67740 0.00900
C 	C 	0.34030 0.81230 0.71520 -0.03800
C 	C 	0.37030 0.78520 0.72910 0.02300
C 	C 	0.39310 0.75960 0.70260 -0.09500
C 	C 	0.38170 0.76320 0.66460 0.03300
C 	C 	0.33180 0.82660 0.48234 0.13000
C 	C 	0.33350 0.79150 0.45505 -0.06700
C 	C 	0.42630 0.96930 0.54050 0.17600
C 	C 	0.11580 0.33430 0.55135 0.40500
C 	C 	0.13760 0.29100 0.54855 -0.12500
C 	C 	0.19800 0.31060 0.54477 0.03700
C 	C 	0.09660 0.23040 0.55160 0.03700
C 	C 	0.21630 0.26880 0.54380 -0.07000
C 	C 	0.11530 0.18800 0.55030 -0.10700
C 	C 	0.17530 0.20890 0.54700 0.03500
C 	C 	0.20340 0.54410 0.61430 0.36900
C 	C 	0.20800 0.56000 0.65410 -0.11900
C 	C 	0.18100 0.51060 0.67740 0.00800
C 	C 	0.18770 0.52800 0.71520 -0.04300
C 	C 	0.21480 0.58510 0.72910 0.02100
C 	C 	0.24040 0.63350 0.70260 -0.09900
C 	C 	0.23680 0.61850 0.66460 0.03300
C 	C 	0.17340 0.50520 0.48234 0.14000
C 	C 	0.20850 0.54200 0.45505 -0.07200
C 	C 	0.03070 0.45700 0.54050 -0.04900
C 	C 	0.33430 0.21850 0.05135 0.39400
C 	C 	0.29100 0.15340 0.04855 -0.09900
C 	C 	0.31060 0.11260 0.04477 -0.00300
C 	C 	0.23040 0.13380 0.05160 0.00500
C 	C 	0.26880 0.05250 0.04380 -0.02200
C 	C 	0.18800 0.07270 0.05030 -0.06400
C 	C 	0.20890 0.03360 0.04700 -0.03000
C 	C 	0.54410 0.34070 0.11430 0.36900
C 	C 	0.56000 0.35200 0.15410 -0.11800
C 	C 	0.51060 0.32960 0.17740 0.00900
C 	C 	0.52800 0.34030 0.21520 -0.04200
C 	C 	0.58510 0.37030 0.22910 0.02300
C 	C 	0.63350 0.39310 0.20260 -0.09700
C 	C 	0.61850 0.38170 0.16460 0.03300
C 	C 	0.50520 0.33180 0.98234 0.13400
C 	C 	0.54200 0.33350 0.95505 -0.06900
C 	C 	0.45700 0.42630 0.04050 0.06400
C 	C 	0.78150 0.11580 0.05135 0.40300
C 	C 	0.84660 0.13760 0.04855 -0.11700
C 	C 	0.88740 0.19800 0.04477 0.01200
C 	C 	0.86620 0.09660 0.05160 0.04300
C 	C 	0.94750 0.21630 0.04380 -0.01800
C 	C 	0.92730 0.11530 0.05030 -0.12100
C 	C 	0.96640 0.17530 0.04700 0.07500
C 	C 	0.65930 0.20340 0.11430 0.36900
C 	C 	0.64800 0.20800 0.15410 -0.11900
C 	C 	0.67040 0.18100 0.17740 0.00800
C 	C 	0.65970 0.18770 0.21520 -0.04200
C 	C 	0.62970 0.21480 0.22910 0.02100
C 	C 	0.60690 0.24040 0.20260 -0.09900
C 	C 	0.61830 0.23680 0.16460 0.03200
C 	C 	0.66820 0.17340 0.98234 0.13800
C 	C 	0.66650 0.20850 0.95505 -0.07100
C 	C 	0.57370 0.03070 0.04050 -0.04800
C 	C 	0.88420 0.66570 0.05135 0.40000
C 	C 	0.86240 0.70900 0.04855 -0.11500
C 	C 	0.80200 0.68940 0.04477 0.03400
C 	C 	0.90340 0.76960 0.05160 0.03700
C 	C 	0.78370 0.73120 0.04380 -0.06800
C 	C 	0.88470 0.81200 0.05030 -0.10000
C 	C 	0.82470 0.79110 0.04700 0.03900
C 	C 	0.79660 0.45590 0.11430 0.36900
C 	C 	0.79200 0.44000 0.15410 -0.11400
C 	C 	0.81900 0.48940 0.17740 0.00800
C 	C 	0.81230 0.47200 0.21520 -0.03700
C 	C 	0.78520 0.41490 0.22910 0.02300
C 	C 	0.75960 0.36650 0.20260 -0.09500
C 	C 	0.76320 0.38150 0.16460 0.03200
C 	C 	0.82660 0.49480 0.98234 0.12800
C 	C 	0.79150 0.45800 0.95505 -0.06600
C 	C 	0.96930 0.54300 0.04050 0.17600
C 	C 	0.11580 0.78150 0.05135 0.40300
C 	C 	0.13760 0.84660 0.04855 -0.11700
C 	C 	0.19800 0.88740 0.04477 0.01200
C 	C 	0.09660 0.86620 0.05160 0.04300
C 	C 	0.21630 0.94750 0.04380 -0.01800
C 	C 	0.11530 0.92730 0.05030 -0.12100
C 	C 	0.17530 0.96640 0.04700 0.07500
C 	C 	0.20340 0.65930 0.11430 0.36900
C 	C 	0.20800 0.64800 0.15410 -0.11900
C 	C 	0.18100 0.67040 0.17740 0.00800
C 	C 	0.18770 0.65970 0.21520 -0.04200
C 	C 	0.21480 0.62970 0.22910 0.02100
C 	C 	0.24040 0.60690 0.20260 -0.09900
C 	C 	0.23680 0.61830 0.16460 0.03200
C 	C 	0.17340 0.66820 0.98234 0.13800
C 	C 	0.20850 0.66650 0.95505 -0.07100
C 	C 	0.03070 0.57370 0.04050 -0.04800
C 	C 	0.66570 0.88420 0.05135 0.40000
C 	C 	0.70900 0.86240 0.04855 -0.11500
C 	C 	0.68940 0.80200 0.04477 0.03400
C 	C 	0.76960 0.90340 0.05160 0.03700
C 	C 	0.73120 0.78370 0.04380 -0.06800
C 	C 	0.81200 0.88470 0.05030 -0.10000
C 	C 	0.79110 0.82470 0.04700 0.03900
C 	C 	0.45590 0.79660 0.11430 0.36900
C 	C 	0.44000 0.79200 0.15410 -0.11400
C 	C 	0.48940 0.81900 0.17740 0.00800
C 	C 	0.47200 0.81230 0.21520 -0.03700
C 	C 	0.41490 0.78520 0.22910 0.02300
C 	C 	0.36650 0.75960 0.20260 -0.09500
C 	C 	0.38150 0.76320 0.16460 0.03200
C 	C 	0.49480 0.82660 0.98234 0.12800
C 	C 	0.45800 0.79150 0.95505 -0.06600
C 	C 	0.54300 0.96930 0.04050 0.17600
C 	C 	0.21850 0.33430 0.05135 0.39400
C 	C 	0.15340 0.29100 0.04855 -0.09900
C 	C 	0.11260 0.31060 0.04477 -0.00300
C 	C 	0.13380 0.23040 0.05160 0.00500
C 	C 	0.05250 0.26880 0.04380 -0.02200
C 	C 	0.07270 0.18800 0.05030 -0.06400
C 	C 	0.03360 0.20890 0.04700 -0.03000
C 	C 	0.34070 0.54410 0.11430 0.36900
C 	C 	0.35200 0.56000 0.15410 -0.11800
C 	C 	0.32960 0.51060 0.17740 0.00900
C 	C 	0.34030 0.52800 0.21520 -0.04200
C 	C 	0.37030 0.58510 0.22910 0.02300
C 	C 	0.39310 0.63350 0.20260 -0.09700
C 	C 	0.38170 0.61850 0.16460 0.03300
C 	C 	0.33180 0.50520 0.98234 0.13400
C 	C 	0.33350 0.54200 0.95505 -0.06900
C 	C 	0.42630 0.45700 0.04050 0.06400
C 	C 	0.88420 0.21850 0.55135 0.39300
C 	C 	0.86240 0.15340 0.54855 -0.10000
C 	C 	0.80200 0.11260 0.54477 0.01100
C 	C 	0.90340 0.13380 0.55160 0.01000
C 	C 	0.78370 0.05250 0.54380 -0.04100
C 	C 	0.88470 0.07270 0.55030 -0.06600
C 	C 	0.82470 0.03360 0.54700 -0.02100
C 	C 	0.79660 0.34070 0.61430 0.36900
C 	C 	0.79200 0.35200 0.65410 -0.11500
C 	C 	0.81900 0.32960 0.67740 0.00900
C 	C 	0.81230 0.34030 0.71520 -0.03800
C 	C 	0.78520 0.37030 0.72910 0.02300
C 	C 	0.75960 0.39310 0.70260 -0.09500
C 	C 	0.76320 0.38170 0.66460 0.03300
C 	C 	0.82660 0.33180 0.48234 0.13000
C 	C 	0.79150 0.33350 0.45505 -0.06700
C 	C 	0.96930 0.42630 0.54050 0.17600
C 	C 	0.33430 0.11580 0.55135 0.40500
C 	C 	0.29100 0.13760 0.54855 -0.12500
C 	C 	0.31060 0.19800 0.54477 0.03700
C 	C 	0.23040 0.09660 0.55160 0.03700
C 	C 	0.26880 0.21630 0.54380 -0.07000
C 	C 	0.18800 0.11530 0.55030 -0.10700
C 	C 	0.20890 0.17530 0.54700 0.03500
C 	C 	0.54410 0.20340 0.61430 0.36900
C 	C 	0.56000 0.20800 0.65410 -0.11900
C 	C 	0.51060 0.18100 0.67740 0.00800
C 	C 	0.52800 0.18770 0.71520 -0.04300
C 	C 	0.58510 0.21480 0.72910 0.02100
C 	C 	0.63350 0.24040 0.70260 -0.09900
C 	C 	0.61850 0.23680 0.66460 0.03300
C 	C 	0.50520 0.17340 0.48234 0.14000
C 	C 	0.54200 0.20850 0.45505 -0.07200
C 	C 	0.45700 0.03070 0.54050 -0.04900
C 	C 	0.78150 0.66570 0.55135 0.40400
C 	C 	0.84660 0.70900 0.54855 -0.11900
C 	C 	0.88740 0.68940 0.54477 0.02700
C 	C 	0.86620 0.76960 0.55160 0.04900
C 	C 	0.94750 0.73120 0.54380 -0.03800
C 	C 	0.92730 0.81200 0.55030 -0.12300
C 	C 	0.96640 0.79110 0.54700 0.08300
C 	C 	0.65930 0.45590 0.61430 0.36900
C 	C 	0.64800 0.44000 0.65410 -0.11600
C 	C 	0.67040 0.48940 0.67740 0.00800
C 	C 	0.65970 0.47200 0.71520 -0.03900
C 	C 	0.62970 0.41490 0.72910 0.02200
C 	C 	0.60690 0.36650 0.70260 -0.09700
C 	C 	0.61830 0.38150 0.66460 0.03200
C 	C 	0.66820 0.49480 0.48234 0.13300
C 	C 	0.66650 0.45800 0.45505 -0.06900
C 	C 	0.57370 0.54300 0.54050 0.06400
C 	C 	0.33430 0.21850 0.44865 0.39400
C 	C 	0.29100 0.15340 0.45145 -0.09900
C 	C 	0.31060 0.11260 0.45523 -0.00300
C 	C 	0.23040 0.13380 0.44840 0.00500
C 	C 	0.26880 0.05250 0.45620 -0.02100
C 	C 	0.18800 0.07270 0.44970 -0.06400
C 	C 	0.20890 0.03360 0.45300 -0.03000
C 	C 	0.54410 0.34070 0.38570 0.36900
C 	C 	0.56000 0.35200 0.34590 -0.11800
C 	C 	0.51060 0.32960 0.32260 0.00900
C 	C 	0.52800 0.34030 0.28480 -0.04200
C 	C 	0.58510 0.37030 0.27090 0.02300
C 	C 	0.63350 0.39310 0.29740 -0.09700
C 	C 	0.61850 0.38170 0.33540 0.03300
C 	C 	0.50520 0.33180 0.51766 0.13300
C 	C 	0.54200 0.33350 0.54495 -0.06800
C 	C 	0.45700 0.42630 0.45950 0.06400
C 	C 	0.78150 0.11580 0.44865 0.40300
C 	C 	0.84660 0.13760 0.45145 -0.11700
C 	C 	0.88740 0.19800 0.45523 0.01200
C 	C 	0.86620 0.09660 0.44840 0.04300
C 	C 	0.94750 0.21630 0.45620 -0.01700
C 	C 	0.92730 0.11530 0.44970 -0.12100
C 	C 	0.96640 0.17530 0.45300 0.07500
C 	C 	0.65930 0.20340 0.38570 0.36900
C 	C 	0.64800 0.20800 0.34590 -0.11900
C 	C 	0.67040 0.18100 0.32260 0.00800
C 	C 	0.65970 0.18770 0.28480 -0.04200
C 	C 	0.62970 0.21480 0.27090 0.02100
C 	C 	0.60690 0.24040 0.29740 -0.09900
C 	C 	0.61830 0.23680 0.33540 0.03200
C 	C 	0.66820 0.17340 0.51766 0.13800
C 	C 	0.66650 0.20850 0.54495 -0.07100
C 	C 	0.57370 0.03070 0.45950 -0.04800
C 	C 	0.88420 0.66570 0.44865 0.40000
C 	C 	0.86240 0.70900 0.45145 -0.11500
C 	C 	0.80200 0.68940 0.45523 0.03400
C 	C 	0.90340 0.76960 0.44840 0.03700
C 	C 	0.78370 0.73120 0.45620 -0.06800
C 	C 	0.88470 0.81200 0.44970 -0.10000
C 	C 	0.82470 0.79110 0.45300 0.04000
C 	C 	0.79660 0.45590 0.38570 0.36900
C 	C 	0.79200 0.44000 0.34590 -0.11400
C 	C 	0.81900 0.48940 0.32260 0.00800
C 	C 	0.81230 0.47200 0.28480 -0.03700
C 	C 	0.78520 0.41490 0.27090 0.02300
C 	C 	0.75960 0.36650 0.29740 -0.09500
C 	C 	0.76320 0.38150 0.33540 0.03200
C 	C 	0.82660 0.49480 0.51766 0.12800
C 	C 	0.79150 0.45800 0.54495 -0.06600
C 	C 	0.96930 0.54300 0.45950 0.17600
C 	C 	0.66570 0.78150 0.94865 0.40400
C 	C 	0.70900 0.84660 0.95145 -0.11900
C 	C 	0.68940 0.88740 0.95523 0.02700
C 	C 	0.76960 0.86620 0.94840 0.04900
C 	C 	0.73120 0.94750 0.95620 -0.03800
C 	C 	0.81200 0.92730 0.94970 -0.12300
C 	C 	0.79110 0.96640 0.95300 0.08300
C 	C 	0.45590 0.65930 0.88570 0.36900
C 	C 	0.44000 0.64800 0.84590 -0.11600
C 	C 	0.48940 0.67040 0.82260 0.00800
C 	C 	0.47200 0.65970 0.78480 -0.03900
C 	C 	0.41490 0.62970 0.77090 0.02200
C 	C 	0.36650 0.60690 0.79740 -0.09700
C 	C 	0.38150 0.61830 0.83540 0.03200
C 	C 	0.49480 0.66820 0.01766 0.13300
C 	C 	0.45800 0.66650 0.04495 -0.06900
C 	C 	0.54300 0.57370 0.95950 0.06400
C 	C 	0.21850 0.88420 0.94865 0.39300
C 	C 	0.15340 0.86240 0.95145 -0.10000
C 	C 	0.11260 0.80200 0.95523 0.01100
C 	C 	0.13380 0.90340 0.94840 0.01000
C 	C 	0.05250 0.78370 0.95620 -0.04200
C 	C 	0.07270 0.88470 0.94970 -0.06600
C 	C 	0.03360 0.82470 0.95300 -0.02100
C 	C 	0.34070 0.79660 0.88570 0.36900
C 	C 	0.35200 0.79200 0.84590 -0.11500
C 	C 	0.32960 0.81900 0.82260 0.00900
C 	C 	0.34030 0.81230 0.78480 -0.03800
C 	C 	0.37030 0.78520 0.77090 0.02300
C 	C 	0.39310 0.75960 0.79740 -0.09500
C 	C 	0.38170 0.76320 0.83540 0.03300
C 	C 	0.33180 0.82660 0.01766 0.13000
C 	C 	0.33350 0.79150 0.04495 -0.06700
C 	C 	0.42630 0.96930 0.95950 0.17600
C 	C 	0.11580 0.33430 0.94865 0.40500
C 	C 	0.13760 0.29100 0.95145 -0.12500
C 	C 	0.19800 0.31060 0.95523 0.03700
C 	C 	0.09660 0.23040 0.94840 0.03700
C 	C 	0.21630 0.26880 0.95620 -0.07000
C 	C 	0.11530 0.18800 0.94970 -0.10700
C 	C 	0.17530 0.20890 0.95300 0.03500
C 	C 	0.20340 0.54410 0.88570 0.36900
C 	C 	0.20800 0.56000 0.84590 -0.11900
C 	C 	0.18100 0.51060 0.82260 0.00800
C 	C 	0.18770 0.52800 0.78480 -0.04300
C 	C 	0.21480 0.58510 0.77090 0.02100
C 	C 	0.24040 0.63350 0.79740 -0.09900
C 	C 	0.23680 0.61850 0.83540 0.03300
C 	C 	0.17340 0.50520 0.01766 0.14000
C 	C 	0.20850 0.54200 0.04495 -0.07200
C 	C 	0.03070 0.45700 0.95950 -0.04800
C 	C 	0.72230 -0.00000 0.95830 0.12900
C 	C 	0.27770 0.27770 0.95830 0.17500
C 	C 	-0.00000 0.72230 0.95830 0.12900
C 	C 	0.27770 0.00000 0.45830 0.06500
C 	C 	0.72230 0.72230 0.45830 0.17600
C 	C 	0.00000 0.27770 0.45830 0.06500
C 	C 	0.72230 -0.00000 0.54170 0.12900
C 	C 	0.00000 0.72230 0.54170 0.12900
C 	C 	0.27770 0.27770 0.54170 0.17500
C 	C 	0.27770 -0.00000 0.04170 0.06500
C 	C 	-0.00000 0.27770 0.04170 0.06500
C 	C 	0.72230 0.72230 0.04170 0.17600
C 	C 	0.83640 0.32380 0.75000 0.12700
C 	C 	0.48740 0.16360 0.75000 0.12400
C 	C 	0.67620 0.51260 0.75000 0.12500
C 	C 	0.16360 0.67620 0.25000 0.12300
C 	C 	0.51260 0.83640 0.25000 0.12600
C 	C 	0.32380 0.48740 0.25000 0.12500
C 	C 	0.51260 0.67620 0.75000 0.12500
C 	C 	0.32380 0.83640 0.75000 0.12700
C 	C 	0.16360 0.48740 0.75000 0.12400
C 	C 	0.48740 0.32380 0.25000 0.12500
C 	C 	0.67620 0.16360 0.25000 0.12300
C 	C 	0.83640 0.51260 0.25000 0.12600
O 	O 	0.93890 0.25300 0.94688 -0.46600
O 	O 	0.84506 0.23367 0.94859 -0.49000
O 	O 	0.76850 0.35340 0.90940 -0.46500
O 	O 	0.83130 0.32050 0.89591 -0.48400
O 	O 	0.81614 0.33196 0.98032 -0.60000
O 	O 	0.73873 0.33363 0.03112 -0.64700
O 	O 	0.94322 0.36746 0.94952 -0.58500
O 	O 	0.31410 0.06110 0.94688 -0.49900
O 	O 	0.38861 0.15494 0.94859 -0.49700
O 	O 	0.58490 0.23150 0.90940 -0.46600
O 	O 	0.48920 0.16870 0.89591 -0.49000
O 	O 	0.51582 0.18386 0.98032 -0.60400
O 	O 	0.59490 0.26127 0.03112 -0.64600
O 	O 	0.42424 0.05678 0.94952 -0.56600
O 	O 	0.74700 0.68590 0.94688 -0.48400
O 	O 	0.76633 0.61139 0.94859 -0.49200
O 	O 	0.64660 0.41510 0.90940 -0.46500
O 	O 	0.67950 0.51080 0.89591 -0.48500
O 	O 	0.66804 0.48418 0.98032 -0.60100
O 	O 	0.66637 0.40510 0.03112 -0.64700
O 	O 	0.63254 0.57576 0.94952 -0.57600
O 	O 	0.06110 0.74700 0.44688 -0.49600
O 	O 	0.15494 0.76633 0.44859 -0.49500
O 	O 	0.23150 0.64660 0.40940 -0.46600
O 	O 	0.16870 0.67950 0.39591 -0.48900
O 	O 	0.18386 0.66804 0.48032 -0.60300
O 	O 	0.26127 0.66637 0.53112 -0.64700
O 	O 	0.05678 0.63254 0.44952 -0.56400
O 	O 	0.68590 0.93890 0.44688 -0.46500
O 	O 	0.61139 0.84506 0.44859 -0.49000
O 	O 	0.41510 0.76850 0.40940 -0.46500
O 	O 	0.51080 0.83130 0.39591 -0.48300
O 	O 	0.48418 0.81614 0.48032 -0.59900
O 	O 	0.40510 0.73873 0.53112 -0.64700
O 	O 	0.57576 0.94322 0.44952 -0.58300
O 	O 	0.25300 0.31410 0.44688 -0.48500
O 	O 	0.23367 0.38861 0.44859 -0.49300
O 	O 	0.35340 0.58490 0.40940 -0.46600
O 	O 	0.32050 0.48920 0.39591 -0.48800
O 	O 	0.33196 0.51582 0.48032 -0.60200
O 	O 	0.33363 0.59490 0.53112 -0.64700
O 	O 	0.36746 0.42424 0.44952 -0.57700
O 	O 	0.68590 0.74700 0.55312 -0.48400
O 	O 	0.61139 0.76633 0.55141 -0.49200
O 	O 	0.41510 0.64660 0.59060 -0.46500
O 	O 	0.51080 0.67950 0.60409 -0.48500
O 	O 	0.48418 0.66804 0.51968 -0.60200
O 	O 	0.40510 0.66637 0.46888 -0.64700
O 	O 	0.57576 0.63254 0.55048 -0.57600
O 	O 	0.25300 0.93890 0.55312 -0.46600
O 	O 	0.23367 0.84506 0.55141 -0.49000
O 	O 	0.35340 0.76850 0.59060 -0.46500
O 	O 	0.32050 0.83130 0.60409 -0.48400
O 	O 	0.33196 0.81614 0.51968 -0.60000
O 	O 	0.33363 0.73873 0.46888 -0.64700
O 	O 	0.36746 0.94322 0.55048 -0.58500
O 	O 	0.06110 0.31410 0.55312 -0.49900
O 	O 	0.15494 0.38861 0.55141 -0.49700
O 	O 	0.23150 0.58490 0.59060 -0.46600
O 	O 	0.16870 0.48920 0.60409 -0.49000
O 	O 	0.18386 0.51582 0.51968 -0.60400
O 	O 	0.26127 0.59490 0.46888 -0.64600
O 	O 	0.05678 0.42424 0.55048 -0.56600
O 	O 	0.31410 0.25300 0.05312 -0.48500
O 	O 	0.38861 0.23367 0.05141 -0.49300
O 	O 	0.58490 0.35340 0.09060 -0.46600
O 	O 	0.48920 0.32050 0.10409 -0.48800
O 	O 	0.51582 0.33196 0.01968 -0.60200
O 	O 	0.59490 0.33363 0.96888 -0.64700
O 	O 	0.42424 0.36746 0.05048 -0.57700
O 	O 	0.74700 0.06110 0.05312 -0.49600
O 	O 	0.76633 0.15494 0.05141 -0.49500
O 	O 	0.64660 0.23150 0.09060 -0.46600
O 	O 	0.67950 0.16870 0.10409 -0.48900
O 	O 	0.66804 0.18386 0.01968 -0.60400
O 	O 	0.66637 0.26127 0.96888 -0.64600
O 	O 	0.63254 0.05678 0.05048 -0.56400
O 	O 	0.93890 0.68590 0.05312 -0.46600
O 	O 	0.84506 0.61139 0.05141 -0.49000
O 	O 	0.76850 0.41510 0.09060 -0.46500
O 	O 	0.83130 0.51080 0.10409 -0.48300
O 	O 	0.81614 0.48418 0.01968 -0.60000
O 	O 	0.73873 0.40510 0.96888 -0.64700
O 	O 	0.94322 0.57576 0.05048 -0.58300
O 	O 	0.06110 0.74700 0.05312 -0.49600
O 	O 	0.15494 0.76633 0.05141 -0.49500
O 	O 	0.23150 0.64660 0.09060 -0.46600
O 	O 	0.16870 0.67950 0.10409 -0.48900
O 	O 	0.18386 0.66804 0.01968 -0.60400
O 	O 	0.26127 0.66637 0.96888 -0.64600
O 	O 	0.05678 0.63254 0.05048 -0.56400
O 	O 	0.68590 0.93890 0.05312 -0.46600
O 	O 	0.61139 0.84506 0.05141 -0.49000
O 	O 	0.41510 0.76850 0.09060 -0.46500
O 	O 	0.51080 0.83130 0.10409 -0.48300
O 	O 	0.48418 0.81614 0.01968 -0.60000
O 	O 	0.40510 0.73873 0.96888 -0.64700
O 	O 	0.57576 0.94322 0.05048 -0.58300
O 	O 	0.25300 0.31410 0.05312 -0.48500
O 	O 	0.23367 0.38861 0.05141 -0.49300
O 	O 	0.35340 0.58490 0.09060 -0.46600
O 	O 	0.32050 0.48920 0.10409 -0.48800
O 	O 	0.33196 0.51582 0.01968 -0.60200
O 	O 	0.33363 0.59490 0.96888 -0.64700
O 	O 	0.36746 0.42424 0.05048 -0.57700
O 	O 	0.93890 0.25300 0.55312 -0.46600
O 	O 	0.84506 0.23367 0.55141 -0.49000
O 	O 	0.76850 0.35340 0.59060 -0.46500
O 	O 	0.83130 0.32050 0.60409 -0.48400
O 	O 	0.81614 0.33196 0.51968 -0.60000
O 	O 	0.73873 0.33363 0.46888 -0.64700
O 	O 	0.94322 0.36746 0.55048 -0.58500
O 	O 	0.31410 0.06110 0.55312 -0.49900
O 	O 	0.38861 0.15494 0.55141 -0.49700
O 	O 	0.58490 0.23150 0.59060 -0.46600
O 	O 	0.48920 0.16870 0.60409 -0.49000
O 	O 	0.51582 0.18386 0.51968 -0.60400
O 	O 	0.59490 0.26127 0.46888 -0.64600
O 	O 	0.42424 0.05678 0.55048 -0.56600
O 	O 	0.74700 0.68590 0.55312 -0.48400
O 	O 	0.76633 0.61139 0.55141 -0.49200
O 	O 	0.64660 0.41510 0.59060 -0.46500
O 	O 	0.67950 0.51080 0.60409 -0.48500
O 	O 	0.66804 0.48418 0.51968 -0.60200
O 	O 	0.66637 0.40510 0.46888 -0.64700
O 	O 	0.63254 0.57576 0.55048 -0.57600
O 	O 	0.31410 0.25300 0.44688 -0.48500
O 	O 	0.38861 0.23367 0.44859 -0.49300
O 	O 	0.58490 0.35340 0.40940 -0.46600
O 	O 	0.48920 0.32050 0.39591 -0.48800
O 	O 	0.51582 0.33196 0.48032 -0.60200
O 	O 	0.59490 0.33363 0.53112 -0.64700
O 	O 	0.42424 0.36746 0.44952 -0.57700
O 	O 	0.74700 0.06110 0.44688 -0.49600
O 	O 	0.76633 0.15494 0.44859 -0.49500
O 	O 	0.64660 0.23150 0.40940 -0.46600
O 	O 	0.67950 0.16870 0.39591 -0.48900
O 	O 	0.66804 0.18386 0.48032 -0.60300
O 	O 	0.66637 0.26127 0.53112 -0.64700
O 	O 	0.63254 0.05678 0.44952 -0.56400
O 	O 	0.93890 0.68590 0.44688 -0.46500
O 	O 	0.84506 0.61139 0.44859 -0.49000
O 	O 	0.76850 0.41510 0.40940 -0.46500
O 	O 	0.83130 0.51080 0.39591 -0.48300
O 	O 	0.81614 0.48418 0.48032 -0.59900
O 	O 	0.73873 0.40510 0.53112 -0.64700
O 	O 	0.94322 0.57576 0.44952 -0.58300
O 	O 	0.68590 0.74700 0.94688 -0.48400
O 	O 	0.61139 0.76633 0.94859 -0.49200
O 	O 	0.41510 0.64660 0.90940 -0.46500
O 	O 	0.51080 0.67950 0.89591 -0.48500
O 	O 	0.48418 0.66804 0.98032 -0.60100
O 	O 	0.40510 0.66637 0.03112 -0.64700
O 	O 	0.57576 0.63254 0.94952 -0.57600
O 	O 	0.25300 0.93890 0.94688 -0.46600
O 	O 	0.23367 0.84506 0.94859 -0.49000
O 	O 	0.35340 0.76850 0.90940 -0.46500
O 	O 	0.32050 0.83130 0.89591 -0.48400
O 	O 	0.33196 0.81614 0.98032 -0.60000
O 	O 	0.33363 0.73873 0.03112 -0.64700
O 	O 	0.36746 0.94322 0.94952 -0.58500
O 	O 	0.06110 0.31410 0.94688 -0.49900
O 	O 	0.15494 0.38861 0.94859 -0.49700
O 	O 	0.23150 0.58490 0.90940 -0.46600
O 	O 	0.16870 0.48920 0.89591 -0.49000
O 	O 	0.18386 0.51582 0.98032 -0.60400
O 	O 	0.26127 0.59490 0.03112 -0.64600
O 	O 	0.05678 0.42424 0.94952 -0.56600
O 	O 	0.67660 0.00000 0.96180 -0.25000
O 	O 	0.32340 0.32340 0.96180 -0.24600
O 	O 	0.00000 0.67660 0.96180 -0.25000
O 	O 	0.32340 1.00000 0.46180 -0.17600
O 	O 	0.67660 0.67660 0.46180 -0.24400
O 	O 	1.00000 0.32340 0.46180 -0.17600
O 	O 	0.67660 0.00000 0.53820 -0.25000
O 	O 	0.00000 0.67660 0.53820 -0.25000
O 	O 	0.32340 0.32340 0.53820 -0.24600
O 	O 	0.32340 1.00000 0.03820 -0.17700
O 	O 	1.00000 0.32340 0.03820 -0.17700
O 	O 	0.67660 0.67660 0.03820 -0.24400
O 	O 	0.86070 0.29170 0.75000 -0.19200
O 	O 	0.43100 0.13930 0.75000 -0.20600
O 	O 	0.70830 0.56900 0.75000 -0.19200
O 	O 	0.13930 0.70830 0.25000 -0.20200
O 	O 	0.56900 0.86070 0.25000 -0.18800
O 	O 	0.29170 0.43100 0.25000 -0.20200
O 	O 	0.56900 0.70830 0.75000 -0.19200
O 	O 	0.29170 0.86070 0.75000 -0.19200
O 	O 	0.13930 0.43100 0.75000 -0.20600
O 	O 	0.43100 0.29170 0.25000 -0.20200
O 	O 	0.70830 0.13930 0.25000 -0.20200
O 	O 	0.86070 0.56900 0.25000 -0.18800
