data_crystal

_cell_length_a 14.45370
_cell_length_b 14.45370
_cell_length_c 14.45370
_cell_angle_alpha 109.47100
_cell_angle_beta  109.47100
_cell_angle_gamma 109.47100

_symmetry_space_group_name_	'P 1'
_symmetry_space_group_name_H-M	'P 1'

loop_
_symmetry_equiv_pos_as_xyz
  x,y,z

loop_
_atom_site_label
_atom_site_type_symbol
_atom_site_fract_x
_atom_site_fract_y
_atom_site_fract_z
_atom_site_charge
U 	U 	0.61556 0.99042 0.15461 0.02800
U 	U 	0.83581 0.46095 0.84539 0.02800
U 	U 	0.16419 0.00958 0.62514 0.02800
U 	U 	0.38444 0.53905 0.37486 0.02800
U 	U 	0.62514 0.16419 0.00958 0.02700
U 	U 	0.37486 0.38444 0.53905 0.02800
U 	U 	0.15461 0.61556 0.99042 0.02800
U 	U 	0.84539 0.83581 0.46095 0.02700
U 	U 	0.46095 0.84539 0.83581 0.02800
U 	U 	0.99042 0.15461 0.61556 0.02600
U 	U 	0.53905 0.37486 0.38444 0.02700
U 	U 	0.00958 0.62514 0.16419 0.02900
C 	C 	0.72810 0.16820 0.43670 0.09400
C 	C 	0.79110 0.22730 0.56000 0.10400
C 	C 	0.73150 0.29140 0.56330 0.09400
C 	C 	0.66730 0.23110 0.44000 0.10400
C 	C 	0.26850 0.83180 0.55990 0.09400
C 	C 	0.33270 0.77270 0.56380 0.10400
C 	C 	0.27190 0.70860 0.44010 0.09400
C 	C 	0.20890 0.76890 0.43620 0.10400
C 	C 	0.55990 0.26850 0.83180 0.09400
C 	C 	0.56380 0.33270 0.77270 0.10400
C 	C 	0.44010 0.27190 0.70860 0.09400
C 	C 	0.43620 0.20890 0.76890 0.10400
C 	C 	0.43670 0.72810 0.16820 0.09400
C 	C 	0.56000 0.79110 0.22730 0.10400
C 	C 	0.56330 0.73150 0.29140 0.09400
C 	C 	0.44000 0.66730 0.23110 0.10400
C 	C 	0.29140 0.56330 0.73150 0.09400
C 	C 	0.23110 0.44000 0.66730 0.10400
C 	C 	0.16820 0.43670 0.72810 0.09400
C 	C 	0.22730 0.56000 0.79110 0.10400
C 	C 	0.70860 0.44010 0.27190 0.09400
C 	C 	0.76890 0.43620 0.20890 0.10400
C 	C 	0.83180 0.55990 0.26850 0.09400
C 	C 	0.77270 0.56380 0.33270 0.10400
O 	O 	0.49030 0.80180 0.98590 -0.03200
O 	O 	0.86600 0.22790 0.63470 -0.09500
O 	O 	0.73040 0.09540 0.36040 -0.09100
O 	O 	0.81590 0.50440 0.01410 -0.03300
O 	O 	0.59320 0.23130 0.36530 -0.09500
O 	O 	0.73500 0.37000 0.63960 -0.09100
O 	O 	0.18410 0.19820 0.68850 -0.03200
O 	O 	0.40680 0.77210 0.63810 -0.09500
O 	O 	0.26500 0.90460 0.63500 -0.09100
O 	O 	0.50970 0.49560 0.31150 -0.03200
O 	O 	0.13400 0.76870 0.36190 -0.09400
O 	O 	0.26960 0.63000 0.36500 -0.09100
O 	O 	0.68850 0.18410 0.19820 -0.03300
O 	O 	0.63810 0.40680 0.77210 -0.09500
O 	O 	0.63500 0.26500 0.90460 -0.09100
O 	O 	0.31150 0.50970 0.49560 -0.03200
O 	O 	0.36190 0.13400 0.76870 -0.09500
O 	O 	0.36500 0.26960 0.63000 -0.09100
O 	O 	0.98590 0.49030 0.80180 -0.03400
O 	O 	0.63470 0.86600 0.22790 -0.09500
O 	O 	0.36040 0.73040 0.09540 -0.09100
O 	O 	0.01410 0.81590 0.50440 -0.03100
O 	O 	0.36530 0.59320 0.23130 -0.09400
O 	O 	0.63960 0.73500 0.37000 -0.09100
O 	O 	0.50440 0.01410 0.81590 -0.03300
O 	O 	0.23130 0.36530 0.59320 -0.09400
O 	O 	0.37000 0.63960 0.73500 -0.09100
O 	O 	0.80180 0.98590 0.49030 -0.03300
O 	O 	0.22790 0.63470 0.86600 -0.09400
O 	O 	0.09540 0.36040 0.73040 -0.09000
O 	O 	0.49560 0.31150 0.50970 -0.03200
O 	O 	0.76870 0.36190 0.13400 -0.09500
O 	O 	0.63000 0.36500 0.26960 -0.09100
O 	O 	0.19820 0.68850 0.18410 -0.03200
O 	O 	0.77210 0.63810 0.40680 -0.09500
O 	O 	0.90460 0.63500 0.26500 -0.09200
O 	O 	0.54080 1.00000 1.00000 -0.02300
O 	O 	-0.00000 0.54080 -0.00000 -0.02200
O 	O 	-0.00000 -0.00000 0.54080 -0.02200
O 	O 	0.45920 0.45920 0.45920 -0.02400
