data_crystal

_cell_length_a 19.23960
_cell_length_b 20.30170
_cell_length_c 46.14300
_cell_angle_alpha 90.00000
_cell_angle_beta  90.00000
_cell_angle_gamma 90.00000

_symmetry_space_group_name_	'P 1'
_symmetry_space_group_name_H-M	'P 1'

loop_
_symmetry_equiv_pos_as_xyz
  x,y,z

loop_
_atom_site_label
_atom_site_type_symbol
_atom_site_fract_x
_atom_site_fract_y
_atom_site_fract_z
_atom_site_charge
C 	C 	0.15590 0.73840 0.08269 0.49300
C 	C 	0.15330 0.76940 0.05280 -0.28000
C 	C 	0.11850 0.73900 0.03050 0.24100
H 	H 	0.09680 0.69870 0.03360 -0.04500
C 	C 	0.18670 0.82970 0.04840 0.24800
H 	H 	0.20890 0.85100 0.06370 -0.04100
C 	C 	0.11600 0.76790 0.00360 -0.35900
H 	H 	0.09090 0.74860 0.98870 0.16400
C 	C 	0.18630 0.85730 0.02110 -0.38200
H 	H 	0.20970 0.89660 0.01770 0.17400
C 	C 	0.15190 0.82710 0.99920 0.37600
C 	C 	0.19940 0.89010 0.96030 0.46300
C 	C 	0.26450 0.87030 0.96200 -0.46700
H 	H 	0.27570 0.83320 0.97290 0.20000
C 	C 	0.18150 0.94660 0.94530 -0.48200
H 	H 	0.13580 0.96140 0.94510 0.21700
C 	C 	0.31730 0.90540 0.94750 0.33000
H 	H 	0.36320 0.89130 0.94840 -0.06900
C 	C 	0.23170 0.98030 0.93100 0.40400
H 	H 	0.21980 0.01730 0.92020 -0.10900
C 	C 	0.29940 0.96090 0.93220 -0.37500
C 	C 	0.35460 0.99830 0.91540 0.57500
O 	O 	0.13360 0.68070 0.08534 -0.56400
O 	O 	0.17930 0.77240 0.10318 -0.57800
O 	O 	0.14460 0.85460 0.97210 -0.36900
O 	O 	0.41640 0.98040 0.91850 -0.58000
O 	O 	0.33320 0.04310 0.89931 -0.61000
O 	O 	0.22480 0.65060 0.13801 -0.72500
H 	H 	0.52678 0.37597 0.60115 0.11800
C 	C 	0.15590 0.23840 0.58269 0.49100
C 	C 	0.15330 0.26940 0.55280 -0.27900
C 	C 	0.11850 0.23900 0.53050 0.23600
H 	H 	0.09680 0.19870 0.53360 -0.04600
C 	C 	0.18670 0.32970 0.54840 0.24100
H 	H 	0.20890 0.35100 0.56370 -0.04200
C 	C 	0.11600 0.26790 0.50360 -0.35600
H 	H 	0.09090 0.24860 0.48870 0.16000
C 	C 	0.18630 0.35730 0.52110 -0.37700
H 	H 	0.20970 0.39660 0.51770 0.16800
C 	C 	0.15190 0.32710 0.49920 0.36800
C 	C 	0.19940 0.39010 0.46030 0.41800
C 	C 	0.26450 0.37030 0.46200 -0.42200
H 	H 	0.27570 0.33320 0.47290 0.18400
C 	C 	0.18150 0.44660 0.44530 -0.41200
H 	H 	0.13580 0.46140 0.44510 0.18500
C 	C 	0.31730 0.40540 0.44750 0.28000
H 	H 	0.36320 0.39130 0.44840 -0.05300
C 	C 	0.23170 0.48030 0.43100 0.29600
H 	H 	0.21980 0.51730 0.42020 -0.05600
C 	C 	0.29940 0.46090 0.43220 -0.31800
C 	C 	0.35460 0.49830 0.41540 0.52500
O 	O 	0.13360 0.18070 0.58534 -0.56500
O 	O 	0.17930 0.27240 0.60318 -0.57800
O 	O 	0.14460 0.35460 0.47210 -0.36000
O 	O 	0.41640 0.48040 0.41850 -0.57700
O 	O 	0.33320 0.54310 0.39931 -0.58100
O 	O 	0.22480 0.15060 0.63801 -0.72600
H 	H 	0.52678 0.87597 0.10115 0.11900
C 	C 	0.65590 0.73840 0.58269 0.49300
C 	C 	0.65330 0.76940 0.55280 -0.27700
C 	C 	0.61850 0.73900 0.53050 0.24200
H 	H 	0.59680 0.69870 0.53360 -0.03800
C 	C 	0.68670 0.82970 0.54840 0.24700
H 	H 	0.70890 0.85100 0.56370 -0.04100
C 	C 	0.61600 0.76790 0.50360 -0.35600
H 	H 	0.59090 0.74860 0.48870 0.17100
C 	C 	0.68630 0.85730 0.52110 -0.37900
H 	H 	0.70970 0.89660 0.51770 0.17500
C 	C 	0.65190 0.82710 0.49920 0.37700
C 	C 	0.69940 0.89010 0.46030 0.45800
C 	C 	0.76450 0.87030 0.46200 -0.45800
H 	H 	0.77570 0.83320 0.47290 0.19800
C 	C 	0.68150 0.94660 0.44530 -0.47200
H 	H 	0.63580 0.96140 0.44510 0.22000
C 	C 	0.81730 0.90540 0.44750 0.32300
H 	H 	0.86320 0.89130 0.44840 -0.06100
C 	C 	0.73170 0.98030 0.43100 0.39200
H 	H 	0.71980 0.01730 0.42020 -0.10100
C 	C 	0.79940 0.96090 0.43220 -0.36400
C 	C 	0.85460 0.99830 0.41540 0.56600
O 	O 	0.63360 0.68070 0.58534 -0.55900
O 	O 	0.67930 0.77240 0.60318 -0.57500
O 	O 	0.64460 0.85460 0.47210 -0.36100
O 	O 	0.91640 0.98040 0.41850 -0.56300
O 	O 	0.83320 0.04310 0.39931 -0.60400
O 	O 	0.72480 0.65060 0.63801 -0.72500
H 	H 	0.02678 0.37597 0.10115 0.08700
C 	C 	0.65590 0.23840 0.08269 0.49200
C 	C 	0.65330 0.26940 0.05280 -0.27500
C 	C 	0.61850 0.23900 0.03050 0.23800
H 	H 	0.59680 0.19870 0.03360 -0.03900
C 	C 	0.68670 0.32970 0.04840 0.24100
H 	H 	0.70890 0.35100 0.06370 -0.04000
C 	C 	0.61600 0.26790 0.00360 -0.35200
H 	H 	0.59090 0.24860 0.98870 0.16800
C 	C 	0.68630 0.35730 0.02110 -0.37400
H 	H 	0.70970 0.39660 0.01770 0.16900
C 	C 	0.65190 0.32710 0.99920 0.37000
C 	C 	0.69940 0.39010 0.96030 0.41700
C 	C 	0.76450 0.37030 0.96200 -0.41700
H 	H 	0.77570 0.33320 0.97290 0.18400
C 	C 	0.68150 0.44660 0.94530 -0.40800
H 	H 	0.63580 0.46140 0.94510 0.19100
C 	C 	0.81730 0.40540 0.94750 0.27600
H 	H 	0.86320 0.39130 0.94840 -0.04700
C 	C 	0.73170 0.48030 0.93100 0.29400
H 	H 	0.71980 0.51730 0.92020 -0.05300
C 	C 	0.79940 0.46090 0.93220 -0.31200
C 	C 	0.85460 0.49830 0.91540 0.52100
O 	O 	0.63360 0.18070 0.08534 -0.56000
O 	O 	0.67930 0.27240 0.10318 -0.57600
O 	O 	0.64460 0.35460 0.97210 -0.35300
O 	O 	0.91640 0.48040 0.91850 -0.56000
O 	O 	0.83320 0.54310 0.89931 -0.57800
O 	O 	0.72480 0.15060 0.13801 -0.72600
H 	H 	0.02678 0.87597 0.60115 0.08900
C 	C 	0.84410 0.26160 0.08269 0.49200
C 	C 	0.84670 0.23060 0.05280 -0.26600
C 	C 	0.88150 0.26100 0.03050 0.23500
H 	H 	0.90320 0.30130 0.03360 -0.02800
C 	C 	0.81330 0.17030 0.04840 0.23500
H 	H 	0.79110 0.14900 0.06370 -0.03800
C 	C 	0.88400 0.23210 0.00360 -0.34200
H 	H 	0.90910 0.25140 0.98870 0.17500
C 	C 	0.81370 0.14270 0.02110 -0.36400
H 	H 	0.79030 0.10340 0.01770 0.16300
C 	C 	0.84810 0.17290 0.99920 0.36500
C 	C 	0.80060 0.10990 0.96030 0.38200
C 	C 	0.73550 0.12970 0.96200 -0.38200
H 	H 	0.72430 0.16680 0.97290 0.17000
C 	C 	0.81850 0.05340 0.94530 -0.35000
H 	H 	0.86420 0.03860 0.94510 0.17200
C 	C 	0.68270 0.09460 0.94750 0.23600
H 	H 	0.63680 0.10870 0.94840 -0.04000
C 	C 	0.76830 0.01970 0.93100 0.20500
H 	H 	0.78020 0.98270 0.92020 -0.00500
C 	C 	0.70060 0.03910 0.93220 -0.26700
C 	C 	0.64540 0.00170 0.91540 0.48000
O 	O 	0.86640 0.31930 0.08534 -0.55400
O 	O 	0.82070 0.22760 0.10318 -0.57300
O 	O 	0.85540 0.14540 0.97210 -0.33800
O 	O 	0.58360 0.01960 0.91850 -0.57200
O 	O 	0.66680 0.95690 0.89931 -0.55300
O 	O 	0.77520 0.34940 0.13801 -0.72500
H 	H 	0.47322 0.62403 0.60115 0.11800
C 	C 	0.84410 0.76160 0.58269 0.49200
C 	C 	0.84670 0.73060 0.55280 -0.26800
C 	C 	0.88150 0.76100 0.53050 0.23800
H 	H 	0.90320 0.80130 0.53360 -0.02800
C 	C 	0.81330 0.67030 0.54840 0.24000
H 	H 	0.79110 0.64900 0.56370 -0.03800
C 	C 	0.88400 0.73210 0.50360 -0.34600
H 	H 	0.90910 0.75140 0.48870 0.17700
C 	C 	0.81370 0.64270 0.52110 -0.37000
H 	H 	0.79030 0.60340 0.51770 0.16800
C 	C 	0.84810 0.67290 0.49920 0.37100
C 	C 	0.80060 0.60990 0.46030 0.42200
C 	C 	0.73550 0.62970 0.46200 -0.42300
H 	H 	0.72430 0.66680 0.47290 0.18400
C 	C 	0.81850 0.55340 0.44530 -0.41300
H 	H 	0.86420 0.53860 0.44510 0.20000
C 	C 	0.68270 0.59460 0.44750 0.28200
H 	H 	0.63680 0.60870 0.44840 -0.05400
C 	C 	0.76830 0.51970 0.43100 0.30100
H 	H 	0.78020 0.48270 0.42020 -0.05300
C 	C 	0.70060 0.53910 0.43220 -0.31900
C 	C 	0.64540 0.50170 0.41540 0.52600
O 	O 	0.86640 0.81930 0.58534 -0.55300
O 	O 	0.82070 0.72760 0.60318 -0.57300
O 	O 	0.85540 0.64540 0.47210 -0.34700
O 	O 	0.58360 0.51960 0.41850 -0.57700
O 	O 	0.66680 0.45690 0.39931 -0.58000
O 	O 	0.77520 0.84940 0.63801 -0.72400
H 	H 	0.47322 0.12403 0.10115 0.11800
C 	C 	0.34410 0.26160 0.58269 0.49000
C 	C 	0.34670 0.23060 0.55280 -0.27000
C 	C 	0.38150 0.26100 0.53050 0.23300
H 	H 	0.40320 0.30130 0.53360 -0.03500
C 	C 	0.31330 0.17030 0.54840 0.23400
H 	H 	0.29110 0.14900 0.56370 -0.03900
C 	C 	0.38400 0.23210 0.50360 -0.34600
H 	H 	0.40910 0.25140 0.48870 0.16600
C 	C 	0.31370 0.14270 0.52110 -0.36700
H 	H 	0.29030 0.10340 0.51770 0.16100
C 	C 	0.34810 0.17290 0.49920 0.36200
C 	C 	0.30060 0.10990 0.46030 0.37800
C 	C 	0.23550 0.12970 0.46200 -0.38300
H 	H 	0.22430 0.16680 0.47290 0.16900
C 	C 	0.31850 0.05340 0.44530 -0.34700
H 	H 	0.36420 0.03860 0.44510 0.16300
C 	C 	0.18270 0.09460 0.44750 0.23500
H 	H 	0.13680 0.10870 0.44840 -0.04500
C 	C 	0.26830 0.01970 0.43100 0.19700
H 	H 	0.28020 0.98270 0.42020 -0.00400
C 	C 	0.20060 0.03910 0.43220 -0.26800
C 	C 	0.14540 0.00170 0.41540 0.47800
O 	O 	0.36640 0.31930 0.58534 -0.55800
O 	O 	0.32070 0.22760 0.60318 -0.57500
O 	O 	0.35540 0.14540 0.47210 -0.34500
O 	O 	0.08360 0.01960 0.41850 -0.58400
O 	O 	0.16680 0.95690 0.39931 -0.55300
O 	O 	0.27520 0.34940 0.63801 -0.72500
H 	H 	0.97322 0.62403 0.10115 0.14900
C 	C 	0.34410 0.76160 0.08269 0.49100
C 	C 	0.34670 0.73060 0.05280 -0.27300
C 	C 	0.38150 0.76100 0.03050 0.23600
H 	H 	0.40320 0.80130 0.03360 -0.03500
C 	C 	0.31330 0.67030 0.04840 0.24000
H 	H 	0.29110 0.64900 0.06370 -0.04000
C 	C 	0.38400 0.73210 0.00360 -0.35000
H 	H 	0.40910 0.75140 0.98870 0.16900
C 	C 	0.31370 0.64270 0.02110 -0.37300
H 	H 	0.29030 0.60340 0.01770 0.16700
C 	C 	0.34810 0.67290 0.99920 0.36900
C 	C 	0.30060 0.60990 0.96030 0.42200
C 	C 	0.23550 0.62970 0.96200 -0.42700
H 	H 	0.22430 0.66680 0.97290 0.18400
C 	C 	0.31850 0.55340 0.94530 -0.41600
H 	H 	0.36420 0.53860 0.94510 0.19400
C 	C 	0.18270 0.59460 0.94750 0.28500
H 	H 	0.13680 0.60870 0.94840 -0.06000
C 	C 	0.26830 0.51970 0.93100 0.30300
H 	H 	0.28020 0.48270 0.92020 -0.05600
C 	C 	0.20060 0.53910 0.93220 -0.32400
C 	C 	0.14540 0.50170 0.91540 0.52800
O 	O 	0.36640 0.81930 0.08534 -0.55700
O 	O 	0.32070 0.72760 0.10318 -0.57500
O 	O 	0.35540 0.64540 0.97210 -0.35400
O 	O 	0.08360 0.51960 0.91850 -0.58900
O 	O 	0.16680 0.45690 0.89931 -0.58200
O 	O 	0.27520 0.84940 0.13801 -0.72400
H 	H 	0.97322 0.12403 0.60115 0.15000
C 	C 	0.84410 0.73840 0.91731 0.49400
C 	C 	0.84670 0.76940 0.94720 -0.27200
C 	C 	0.88150 0.73900 0.96950 0.24300
H 	H 	0.90320 0.69870 0.96640 -0.03000
C 	C 	0.81330 0.82970 0.95160 0.24700
H 	H 	0.79110 0.85100 0.93630 -0.04000
C 	C 	0.88400 0.76790 0.99640 -0.35100
H 	H 	0.90910 0.74860 0.01130 0.17900
C 	C 	0.81370 0.85730 0.97890 -0.37600
H 	H 	0.79030 0.89660 0.98230 0.17400
C 	C 	0.84810 0.82710 0.00080 0.37900
C 	C 	0.80060 0.89010 0.03970 0.46300
C 	C 	0.73550 0.87030 0.03800 -0.46400
H 	H 	0.72430 0.83320 0.02710 0.19900
C 	C 	0.81850 0.94660 0.05470 -0.47600
H 	H 	0.86420 0.96140 0.05490 0.22900
C 	C 	0.68270 0.90540 0.05250 0.32800
H 	H 	0.63680 0.89130 0.05160 -0.06800
C 	C 	0.76830 0.98030 0.06900 0.39800
H 	H 	0.78020 0.01730 0.07980 -0.10000
C 	C 	0.70060 0.96090 0.06780 -0.37100
C 	C 	0.64540 0.99830 0.08460 0.57200
O 	O 	0.86640 0.68070 0.91466 -0.55400
O 	O 	0.82070 0.77240 0.89682 -0.57200
O 	O 	0.85540 0.85460 0.02790 -0.35600
O 	O 	0.58360 0.98040 0.08150 -0.57900
O 	O 	0.66680 0.04310 0.10069 -0.60700
O 	O 	0.77520 0.65060 0.86199 -0.72500
H 	H 	0.47322 0.37597 0.39885 0.11800
C 	C 	0.84410 0.23840 0.41731 0.49300
C 	C 	0.84670 0.26940 0.44720 -0.27000
C 	C 	0.88150 0.23900 0.46950 0.24000
H 	H 	0.90320 0.19870 0.46640 -0.03100
C 	C 	0.81330 0.32970 0.45160 0.24200
H 	H 	0.79110 0.35100 0.43630 -0.03900
C 	C 	0.88400 0.26790 0.49640 -0.34700
H 	H 	0.90910 0.24860 0.51130 0.17700
C 	C 	0.81370 0.35730 0.47890 -0.37100
H 	H 	0.79030 0.39660 0.48230 0.16900
C 	C 	0.84810 0.32710 0.50080 0.37200
C 	C 	0.80060 0.39010 0.53970 0.42200
C 	C 	0.73550 0.37030 0.53800 -0.42300
H 	H 	0.72430 0.33320 0.52710 0.18500
C 	C 	0.81850 0.44660 0.55470 -0.41300
H 	H 	0.86420 0.46140 0.55490 0.20000
C 	C 	0.68270 0.40540 0.55250 0.28200
H 	H 	0.63680 0.39130 0.55160 -0.05400
C 	C 	0.76830 0.48030 0.56900 0.30200
H 	H 	0.78020 0.51730 0.57980 -0.05300
C 	C 	0.70060 0.46090 0.56780 -0.31900
C 	C 	0.64540 0.49830 0.58460 0.52600
O 	O 	0.86640 0.18070 0.41466 -0.55500
O 	O 	0.82070 0.27240 0.39682 -0.57300
O 	O 	0.85540 0.35460 0.52790 -0.34700
O 	O 	0.58360 0.48040 0.58150 -0.57700
O 	O 	0.66680 0.54310 0.60069 -0.58000
O 	O 	0.77520 0.15060 0.36199 -0.72600
H 	H 	0.47322 0.87597 0.89885 0.11900
C 	C 	0.34410 0.73840 0.41731 0.49300
C 	C 	0.34670 0.76940 0.44720 -0.27700
C 	C 	0.38150 0.73900 0.46950 0.24200
H 	H 	0.40320 0.69870 0.46640 -0.03800
C 	C 	0.31330 0.82970 0.45160 0.24700
H 	H 	0.29110 0.85100 0.43630 -0.04100
C 	C 	0.38400 0.76790 0.49640 -0.35600
H 	H 	0.40910 0.74860 0.51130 0.17100
C 	C 	0.31370 0.85730 0.47890 -0.38000
H 	H 	0.29030 0.89660 0.48230 0.17400
C 	C 	0.34810 0.82710 0.50080 0.37800
C 	C 	0.30060 0.89010 0.53970 0.46700
C 	C 	0.23550 0.87030 0.53800 -0.47300
H 	H 	0.22430 0.83320 0.52710 0.20100
C 	C 	0.31850 0.94660 0.55470 -0.48600
H 	H 	0.36420 0.96140 0.55490 0.22500
C 	C 	0.18270 0.90540 0.55250 0.33600
H 	H 	0.13680 0.89130 0.55160 -0.07600
C 	C 	0.26830 0.98030 0.56900 0.41000
H 	H 	0.28020 0.01730 0.57980 -0.10800
C 	C 	0.20060 0.96090 0.56780 -0.38100
C 	C 	0.14540 0.99830 0.58460 0.57900
O 	O 	0.36640 0.68070 0.41466 -0.55900
O 	O 	0.32070 0.77240 0.39682 -0.57500
O 	O 	0.35540 0.85460 0.52790 -0.36400
O 	O 	0.08360 0.98040 0.58150 -0.59200
O 	O 	0.16680 0.04310 0.60069 -0.61100
O 	O 	0.27520 0.65060 0.36199 -0.72500
H 	H 	0.97322 0.37597 0.89885 0.15000
C 	C 	0.34410 0.23840 0.91731 0.49200
C 	C 	0.34670 0.26940 0.94720 -0.27500
C 	C 	0.38150 0.23900 0.96950 0.23800
H 	H 	0.40320 0.19870 0.96640 -0.03900
C 	C 	0.31330 0.32970 0.95160 0.24100
H 	H 	0.29110 0.35100 0.93630 -0.04000
C 	C 	0.38400 0.26790 0.99640 -0.35200
H 	H 	0.40910 0.24860 0.01130 0.16800
C 	C 	0.31370 0.35730 0.97890 -0.37400
H 	H 	0.29030 0.39660 0.98230 0.16800
C 	C 	0.34810 0.32710 0.00080 0.37000
C 	C 	0.30060 0.39010 0.03970 0.42300
C 	C 	0.23550 0.37030 0.03800 -0.42800
H 	H 	0.22430 0.33320 0.02710 0.18500
C 	C 	0.31850 0.44660 0.05470 -0.41700
H 	H 	0.36420 0.46140 0.05490 0.19400
C 	C 	0.18270 0.40540 0.05250 0.28500
H 	H 	0.13680 0.39130 0.05160 -0.06100
C 	C 	0.26830 0.48030 0.06900 0.30300
H 	H 	0.28020 0.51730 0.07980 -0.05600
C 	C 	0.20060 0.46090 0.06780 -0.32500
C 	C 	0.14540 0.49830 0.08460 0.52900
O 	O 	0.36640 0.18070 0.91466 -0.56000
O 	O 	0.32070 0.27240 0.89682 -0.57500
O 	O 	0.35540 0.35460 0.02790 -0.35500
O 	O 	0.08360 0.48040 0.08150 -0.58900
O 	O 	0.16680 0.54310 0.10069 -0.58300
O 	O 	0.27520 0.15060 0.86199 -0.72600
H 	H 	0.97322 0.87597 0.39885 0.14900
C 	C 	0.15590 0.26160 0.91731 0.48900
C 	C 	0.15330 0.23060 0.94720 -0.27500
C 	C 	0.11850 0.26100 0.96950 0.23100
H 	H 	0.09680 0.30130 0.96640 -0.04300
C 	C 	0.18670 0.17030 0.95160 0.23400
H 	H 	0.20890 0.14900 0.93630 -0.04000
C 	C 	0.11600 0.23210 0.99640 -0.35000
H 	H 	0.09090 0.25140 0.01130 0.15800
C 	C 	0.18630 0.14270 0.97890 -0.37000
H 	H 	0.20970 0.10340 0.98230 0.16100
C 	C 	0.15190 0.17290 0.00080 0.36000
C 	C 	0.19940 0.10990 0.03970 0.37300
C 	C 	0.26450 0.12970 0.03800 -0.37600
H 	H 	0.27570 0.16680 0.02710 0.16800
C 	C 	0.18150 0.05340 0.05470 -0.34200
H 	H 	0.13580 0.03860 0.05490 0.15300
C 	C 	0.31730 0.09460 0.05250 0.22900
H 	H 	0.36320 0.10870 0.05160 -0.03700
C 	C 	0.23170 0.01970 0.06900 0.18900
H 	H 	0.21980 0.98270 0.07980 -0.00300
C 	C 	0.29940 0.03910 0.06780 -0.26100
C 	C 	0.35460 0.00170 0.08460 0.47500
O 	O 	0.13360 0.31930 0.91466 -0.56300
O 	O 	0.17930 0.22760 0.89682 -0.57800
O 	O 	0.14460 0.14540 0.02790 -0.35000
O 	O 	0.41640 0.01960 0.08150 -0.57100
O 	O 	0.33320 0.95690 0.10069 -0.55200
O 	O 	0.22480 0.34940 0.86199 -0.72500
H 	H 	0.52678 0.62403 0.39885 0.11900
C 	C 	0.15590 0.76160 0.41731 0.49000
C 	C 	0.15330 0.73060 0.44720 -0.27700
C 	C 	0.11850 0.76100 0.46950 0.23400
H 	H 	0.09680 0.80130 0.46640 -0.04200
C 	C 	0.18670 0.67030 0.45160 0.23900
H 	H 	0.20890 0.64900 0.43630 -0.04100
C 	C 	0.11600 0.73210 0.49640 -0.35400
H 	H 	0.09090 0.75140 0.51130 0.16100
C 	C 	0.18630 0.64270 0.47890 -0.37500
H 	H 	0.20970 0.60340 0.48230 0.16700
C 	C 	0.15190 0.67290 0.50080 0.36700
C 	C 	0.19940 0.60990 0.53970 0.41700
C 	C 	0.26450 0.62970 0.53800 -0.42100
H 	H 	0.27570 0.66680 0.52710 0.18300
C 	C 	0.18150 0.55340 0.55470 -0.41200
H 	H 	0.13580 0.53860 0.55490 0.18500
C 	C 	0.31730 0.59460 0.55250 0.27900
H 	H 	0.36320 0.60870 0.55160 -0.05300
C 	C 	0.23170 0.51970 0.56900 0.29600
H 	H 	0.21980 0.48270 0.57980 -0.05600
C 	C 	0.29940 0.53910 0.56780 -0.31800
C 	C 	0.35460 0.50170 0.58460 0.52500
O 	O 	0.13360 0.81930 0.41466 -0.56200
O 	O 	0.17930 0.72760 0.39682 -0.57800
O 	O 	0.14460 0.64540 0.52790 -0.36000
O 	O 	0.41640 0.51960 0.58150 -0.57600
O 	O 	0.33320 0.45690 0.60069 -0.58100
O 	O 	0.22480 0.84940 0.36199 -0.72400
H 	H 	0.52678 0.12403 0.89885 0.11800
C 	C 	0.65590 0.26160 0.41731 0.49000
C 	C 	0.65330 0.23060 0.44720 -0.27100
C 	C 	0.61850 0.26100 0.46950 0.23300
H 	H 	0.59680 0.30130 0.46640 -0.03600
C 	C 	0.68670 0.17030 0.45160 0.23500
H 	H 	0.70890 0.14900 0.43630 -0.03900
C 	C 	0.61600 0.23210 0.49640 -0.34700
H 	H 	0.59090 0.25140 0.51130 0.16700
C 	C 	0.68630 0.14270 0.47890 -0.36700
H 	H 	0.70970 0.10340 0.48230 0.16300
C 	C 	0.65190 0.17290 0.50080 0.36300
C 	C 	0.69940 0.10990 0.53970 0.37600
C 	C 	0.76450 0.12970 0.53800 -0.37500
H 	H 	0.77570 0.16680 0.52710 0.16900
C 	C 	0.68150 0.05340 0.55470 -0.34400
H 	H 	0.63580 0.03860 0.55490 0.16200
C 	C 	0.81730 0.09460 0.55250 0.23000
H 	H 	0.86320 0.10870 0.55160 -0.03200
C 	C 	0.73170 0.01970 0.56900 0.19700
H 	H 	0.71980 0.98270 0.57980 -0.00500
C 	C 	0.79940 0.03910 0.56780 -0.26000
C 	C 	0.85460 0.00170 0.58460 0.47600
O 	O 	0.63360 0.31930 0.41466 -0.55900
O 	O 	0.67930 0.22760 0.39682 -0.57600
O 	O 	0.64460 0.14540 0.52790 -0.34400
O 	O 	0.91640 0.01960 0.58150 -0.55500
O 	O 	0.83320 0.95690 0.60069 -0.55200
O 	O 	0.72480 0.34940 0.36199 -0.72500
H 	H 	0.02678 0.62403 0.89885 0.08800
C 	C 	0.65590 0.76160 0.91731 0.49100
C 	C 	0.65330 0.73060 0.94720 -0.27300
C 	C 	0.61850 0.76100 0.96950 0.23600
H 	H 	0.59680 0.80130 0.96640 -0.03500
C 	C 	0.68670 0.67030 0.95160 0.24000
H 	H 	0.70890 0.64900 0.93630 -0.04000
C 	C 	0.61600 0.73210 0.99640 -0.35000
H 	H 	0.59090 0.75140 0.01130 0.16900
C 	C 	0.68630 0.64270 0.97890 -0.37300
H 	H 	0.70970 0.60340 0.98230 0.16900
C 	C 	0.65190 0.67290 0.00080 0.36900
C 	C 	0.69940 0.60990 0.03970 0.41600
C 	C 	0.76450 0.62970 0.03800 -0.41600
H 	H 	0.77570 0.66680 0.02710 0.18300
C 	C 	0.68150 0.55340 0.05470 -0.40800
H 	H 	0.63580 0.53860 0.05490 0.19100
C 	C 	0.81730 0.59460 0.05250 0.27600
H 	H 	0.86320 0.60870 0.05160 -0.04600
C 	C 	0.73170 0.51970 0.06900 0.29400
H 	H 	0.71980 0.48270 0.07980 -0.05300
C 	C 	0.79940 0.53910 0.06780 -0.31200
C 	C 	0.85460 0.50170 0.08460 0.52100
O 	O 	0.63360 0.81930 0.91466 -0.55700
O 	O 	0.67930 0.72760 0.89682 -0.57500
O 	O 	0.64460 0.64540 0.02790 -0.35200
O 	O 	0.91640 0.51960 0.08150 -0.56000
O 	O 	0.83320 0.45690 0.10069 -0.57800
O 	O 	0.72480 0.84940 0.86199 -0.72400
H 	H 	0.02678 0.12403 0.39885 0.08600
C 	C 	0.09410 0.51160 0.16731 0.48600
C 	C 	0.09670 0.48060 0.19720 -0.27200
C 	C 	0.13150 0.51100 0.21950 0.22300
H 	H 	0.15320 0.55130 0.21640 -0.03500
C 	C 	0.06330 0.42030 0.20160 0.22300
H 	H 	0.04110 0.39900 0.18630 -0.04700
C 	C 	0.13400 0.48210 0.24640 -0.33700
H 	H 	0.15910 0.50140 0.26130 0.16100
C 	C 	0.06370 0.39270 0.22890 -0.35600
H 	H 	0.04030 0.35340 0.23230 0.15200
C 	C 	0.09810 0.42290 0.25080 0.33800
C 	C 	0.05060 0.35990 0.28970 0.21300
C 	C 	0.98550 0.37970 0.28800 -0.17500
H 	H 	0.97430 0.41680 0.27710 0.11500
C 	C 	0.06850 0.30340 0.30470 -0.21000
H 	H 	0.11420 0.28860 0.30490 0.11900
C 	C 	0.93270 0.34460 0.30250 0.09500
H 	H 	0.88680 0.35870 0.30160 0.01300
C 	C 	0.01830 0.26970 0.31900 0.05000
H 	H 	0.03020 0.23270 0.32980 0.01700
C 	C 	0.95060 0.28910 0.31780 -0.12000
C 	C 	0.89540 0.25170 0.33460 0.46300
O 	O 	0.11640 0.56930 0.16466 -0.56300
O 	O 	0.07070 0.47760 0.14682 -0.58700
O 	O 	0.10540 0.39540 0.27790 -0.30600
O 	O 	0.83360 0.26960 0.33150 -0.56000
O 	O 	0.91680 0.20690 0.35069 -0.55200
O 	O 	0.02520 0.59940 0.11199 -0.76000
H 	H 	0.72322 0.87403 0.64885 0.12000
C 	C 	0.09410 0.01160 0.66731 0.38600
C 	C 	0.09670 0.98060 0.69720 -0.10300
C 	C 	0.13150 0.01100 0.71950 -0.00200
H 	H 	0.15320 0.05130 0.71640 0.04000
C 	C 	0.06330 0.92030 0.70160 0.09100
H 	H 	0.04110 0.89900 0.68630 0.00000
C 	C 	0.13400 0.98210 0.74640 -0.11600
H 	H 	0.15910 0.00140 0.76130 0.06800
C 	C 	0.06370 0.89270 0.72890 -0.22900
H 	H 	0.04030 0.85340 0.73230 0.10900
C 	C 	0.09810 0.92290 0.75080 0.22200
C 	C 	0.05060 0.85990 0.78970 0.20900
C 	C 	0.98550 0.87970 0.78800 -0.17300
H 	H 	0.97430 0.91680 0.77710 0.11800
C 	C 	0.06850 0.80340 0.80470 -0.20700
H 	H 	0.11420 0.78860 0.80490 0.12000
C 	C 	0.93270 0.84460 0.80250 0.09700
H 	H 	0.88680 0.85870 0.80160 0.01400
C 	C 	0.01830 0.76970 0.81900 0.05500
H 	H 	0.03020 0.73270 0.82980 0.01600
C 	C 	0.95060 0.78910 0.81780 -0.12200
C 	C 	0.89540 0.75170 0.83460 0.46400
O 	O 	0.11640 0.06930 0.66466 -0.54100
O 	O 	0.07070 0.97760 0.64682 -0.54200
O 	O 	0.10540 0.89540 0.77790 -0.27300
O 	O 	0.83360 0.76960 0.83150 -0.55900
O 	O 	0.91680 0.70690 0.85069 -0.55200
O 	O 	0.02520 0.09940 0.61199 -0.76400
H 	H 	0.72322 0.37403 0.14885 0.11800
C 	C 	0.59410 0.51160 0.66731 0.49200
C 	C 	0.59670 0.48060 0.69720 -0.27300
C 	C 	0.63150 0.51100 0.71950 0.23700
H 	H 	0.65320 0.55130 0.71640 -0.03700
C 	C 	0.56330 0.42030 0.70160 0.24000
H 	H 	0.54110 0.39900 0.68630 -0.04000
C 	C 	0.63400 0.48210 0.74640 -0.35100
H 	H 	0.65910 0.50140 0.76130 0.16900
C 	C 	0.56370 0.39270 0.72890 -0.37300
H 	H 	0.54030 0.35340 0.73230 0.16800
C 	C 	0.59810 0.42290 0.75080 0.36900
C 	C 	0.55060 0.35990 0.78970 0.41900
C 	C 	0.48550 0.37970 0.78800 -0.42200
H 	H 	0.47430 0.41680 0.77710 0.18400
C 	C 	0.56850 0.30340 0.80470 -0.41200
H 	H 	0.61420 0.28860 0.80490 0.19200
C 	C 	0.43270 0.34460 0.80250 0.28000
H 	H 	0.38680 0.35870 0.80160 -0.05400
C 	C 	0.51830 0.26970 0.81900 0.29700
H 	H 	0.53020 0.23270 0.82980 -0.05400
C 	C 	0.45060 0.28910 0.81780 -0.31800
C 	C 	0.39540 0.25170 0.83460 0.52500
O 	O 	0.61640 0.56930 0.66466 -0.55900
O 	O 	0.57070 0.47760 0.64682 -0.57500
O 	O 	0.60540 0.39540 0.77790 -0.35400
O 	O 	0.33360 0.26960 0.83150 -0.57700
O 	O 	0.41680 0.20690 0.85069 -0.58100
O 	O 	0.52520 0.59940 0.61199 -0.72500
H 	H 	0.22322 0.87403 0.14885 0.12000
C 	C 	0.59410 0.01160 0.16731 0.40000
C 	C 	0.59670 0.98060 0.19720 -0.11800
C 	C 	0.63150 0.01100 0.21950 0.02900
H 	H 	0.65320 0.05130 0.21640 0.03200
C 	C 	0.56330 0.92030 0.20160 0.11800
H 	H 	0.54110 0.89900 0.18630 0.00400
C 	C 	0.63400 0.98210 0.24640 -0.14600
H 	H 	0.65910 0.00140 0.26130 0.08300
C 	C 	0.56370 0.89270 0.22890 -0.25500
H 	H 	0.54030 0.85340 0.23230 0.12800
C 	C 	0.59810 0.92290 0.25080 0.26100
C 	C 	0.55060 0.85990 0.28970 0.40700
C 	C 	0.48550 0.87970 0.28800 -0.40900
H 	H 	0.47430 0.91680 0.27710 0.18500
C 	C 	0.56850 0.80340 0.30470 -0.40100
H 	H 	0.61420 0.78860 0.30490 0.18900
C 	C 	0.43270 0.84460 0.30250 0.27400
H 	H 	0.38680 0.85870 0.30160 -0.05000
C 	C 	0.51830 0.76970 0.31900 0.29100
H 	H 	0.53020 0.73270 0.32980 -0.05100
C 	C 	0.45060 0.78910 0.31780 -0.31200
C 	C 	0.39540 0.75170 0.33460 0.52300
O 	O 	0.61640 0.06930 0.16466 -0.53800
O 	O 	0.57070 0.97760 0.14682 -0.53400
O 	O 	0.60540 0.89540 0.27790 -0.32100
O 	O 	0.33360 0.76960 0.33150 -0.57500
O 	O 	0.41680 0.70690 0.35069 -0.58000
O 	O 	0.52520 0.09940 0.11199 -0.72800
H 	H 	0.22322 0.37403 0.64885 0.11700
C 	C 	0.40590 0.98840 0.16731 0.58700
C 	C 	0.40330 0.01940 0.19720 -0.43700
C 	C 	0.36850 0.98900 0.21950 0.45600
H 	H 	0.34680 0.94870 0.21640 -0.10900
C 	C 	0.43670 0.07970 0.20160 0.36900
H 	H 	0.45890 0.10100 0.18630 -0.08600
C 	C 	0.36600 0.01790 0.24640 -0.56600
H 	H 	0.34090 0.99860 0.26130 0.26000
C 	C 	0.43630 0.10730 0.22890 -0.49700
H 	H 	0.45970 0.14660 0.23230 0.21000
C 	C 	0.40190 0.07710 0.25080 0.48400
C 	C 	0.44940 0.14010 0.28970 0.43400
C 	C 	0.51450 0.12030 0.28800 -0.43600
H 	H 	0.52570 0.08320 0.27710 0.18400
C 	C 	0.43150 0.19660 0.30470 -0.42500
H 	H 	0.38580 0.21140 0.30490 0.19600
C 	C 	0.56730 0.15540 0.30250 0.28800
H 	H 	0.61320 0.14130 0.30160 -0.05800
C 	C 	0.48170 0.23030 0.31900 0.30700
H 	H 	0.46980 0.26730 0.32980 -0.05800
C 	C 	0.54940 0.21090 0.31780 -0.32600
C 	C 	0.60460 0.24830 0.33460 0.52700
O 	O 	0.38360 0.93070 0.16466 -0.58000
O 	O 	0.42930 0.02240 0.14682 -0.61600
O 	O 	0.39460 0.10460 0.27790 -0.38800
O 	O 	0.66640 0.23040 0.33150 -0.57800
O 	O 	0.58320 0.29310 0.35069 -0.58200
O 	O 	0.47480 0.90060 0.11199 -0.72000
H 	H 	0.77678 0.62597 0.64885 0.11900
C 	C 	0.40590 0.48840 0.66731 0.49200
C 	C 	0.40330 0.51940 0.69720 -0.27400
C 	C 	0.36850 0.48900 0.71950 0.23700
H 	H 	0.34680 0.44870 0.71640 -0.03700
C 	C 	0.43670 0.57970 0.70160 0.24100
H 	H 	0.45890 0.60100 0.68630 -0.04000
C 	C 	0.36600 0.51790 0.74640 -0.35100
H 	H 	0.34090 0.49860 0.76130 0.16900
C 	C 	0.43630 0.60730 0.72890 -0.37400
H 	H 	0.45970 0.64660 0.73230 0.16800
C 	C 	0.40190 0.57710 0.75080 0.37000
C 	C 	0.44940 0.64010 0.78970 0.42000
C 	C 	0.51450 0.62030 0.78800 -0.42300
H 	H 	0.52570 0.58320 0.77710 0.18400
C 	C 	0.43150 0.69660 0.80470 -0.41300
H 	H 	0.38580 0.71140 0.80490 0.19300
C 	C 	0.56730 0.65540 0.80250 0.28200
H 	H 	0.61320 0.64130 0.80160 -0.05400
C 	C 	0.48170 0.73030 0.81900 0.30000
H 	H 	0.46980 0.76730 0.82980 -0.05600
C 	C 	0.54940 0.71090 0.81780 -0.31900
C 	C 	0.60460 0.74830 0.83460 0.52600
O 	O 	0.38360 0.43070 0.66466 -0.55900
O 	O 	0.42930 0.52240 0.64682 -0.57600
O 	O 	0.39460 0.60460 0.77790 -0.35400
O 	O 	0.66640 0.73040 0.83150 -0.57600
O 	O 	0.58320 0.79310 0.85069 -0.58000
O 	O 	0.47480 0.40060 0.61199 -0.72500
H 	H 	0.77678 0.12597 0.14885 0.11700
C 	C 	0.90590 0.98840 0.66731 0.58100
C 	C 	0.90330 0.01940 0.69720 -0.42000
C 	C 	0.86850 0.98900 0.71950 0.44700
H 	H 	0.84680 0.94870 0.71640 -0.10300
C 	C 	0.93670 0.07970 0.70160 0.37200
H 	H 	0.95890 0.10100 0.68630 -0.07300
C 	C 	0.86600 0.01790 0.74640 -0.55800
H 	H 	0.84090 0.99860 0.76130 0.25800
C 	C 	0.93630 0.10730 0.72890 -0.50100
H 	H 	0.95970 0.14660 0.73230 0.22200
C 	C 	0.90190 0.07710 0.75080 0.50300
C 	C 	0.94940 0.14010 0.78970 0.64000
C 	C 	0.01450 0.12030 0.78800 -0.68400
H 	H 	0.02570 0.08320 0.77710 0.25300
C 	C 	0.93150 0.19660 0.80470 -0.62700
H 	H 	0.88580 0.21140 0.80490 0.26800
C 	C 	0.06730 0.15540 0.80250 0.47300
H 	H 	0.11320 0.14130 0.80160 -0.12400
C 	C 	0.98170 0.23030 0.81900 0.55500
H 	H 	0.96980 0.26730 0.82980 -0.12900
C 	C 	0.04940 0.21090 0.81780 -0.52400
C 	C 	0.10460 0.24830 0.83460 0.59000
O 	O 	0.88360 0.93070 0.66466 -0.57300
O 	O 	0.92930 0.02240 0.64682 -0.59600
O 	O 	0.89460 0.10460 0.77790 -0.43200
O 	O 	0.16640 0.23040 0.83150 -0.59500
O 	O 	0.08320 0.29310 0.85069 -0.61100
O 	O 	0.97480 0.90060 0.61199 -0.68300
H 	H 	0.27678 0.62597 0.14885 0.11800
C 	C 	0.90590 0.48840 0.16731 0.49600
C 	C 	0.90330 0.51940 0.19720 -0.27400
C 	C 	0.86850 0.48900 0.21950 0.25100
H 	H 	0.84680 0.44870 0.21640 -0.03800
C 	C 	0.93670 0.57970 0.20160 0.25700
H 	H 	0.95890 0.60100 0.18630 -0.03300
C 	C 	0.86600 0.51790 0.24640 -0.36400
H 	H 	0.84090 0.49860 0.26130 0.17700
C 	C 	0.93630 0.60730 0.22890 -0.38900
H 	H 	0.95970 0.64660 0.23230 0.18400
C 	C 	0.90190 0.57710 0.25080 0.40000
C 	C 	0.94940 0.64010 0.28970 0.62100
C 	C 	0.01450 0.62030 0.28800 -0.66300
H 	H 	0.02570 0.58320 0.27710 0.25100
C 	C 	0.93150 0.69660 0.30470 -0.60900
H 	H 	0.88580 0.71140 0.30490 0.26300
C 	C 	0.06730 0.65540 0.30250 0.46100
H 	H 	0.11320 0.64130 0.30160 -0.11800
C 	C 	0.98170 0.73030 0.31900 0.54000
H 	H 	0.96980 0.76730 0.32980 -0.12400
C 	C 	0.04940 0.71090 0.31780 -0.51000
C 	C 	0.10460 0.74830 0.33460 0.58600
O 	O 	0.88360 0.43070 0.16466 -0.55400
O 	O 	0.92930 0.52240 0.14682 -0.56000
O 	O 	0.89460 0.60460 0.27790 -0.39900
O 	O 	0.16640 0.73040 0.33150 -0.59300
O 	O 	0.08320 0.79310 0.35069 -0.60900
O 	O 	0.97480 0.40060 0.11199 -0.68500
H 	H 	0.27678 0.12597 0.64885 0.11600
C 	C 	0.40590 0.51160 0.33269 0.49100
C 	C 	0.40330 0.48060 0.30280 -0.27400
C 	C 	0.36850 0.51100 0.28050 0.23700
H 	H 	0.34680 0.55130 0.28360 -0.03700
C 	C 	0.43670 0.42030 0.29840 0.24000
H 	H 	0.45890 0.39900 0.31370 -0.04000
C 	C 	0.36600 0.48210 0.25360 -0.35100
H 	H 	0.34090 0.50140 0.23870 0.16900
C 	C 	0.43630 0.39270 0.27110 -0.37300
H 	H 	0.45970 0.35340 0.26770 0.16800
C 	C 	0.40190 0.42290 0.24920 0.36900
C 	C 	0.44940 0.35990 0.21030 0.41900
C 	C 	0.51450 0.37970 0.21200 -0.42200
H 	H 	0.52570 0.41680 0.22290 0.18400
C 	C 	0.43150 0.30340 0.19530 -0.41200
H 	H 	0.38580 0.28860 0.19510 0.19200
C 	C 	0.56730 0.34460 0.19750 0.28000
H 	H 	0.61320 0.35870 0.19840 -0.05300
C 	C 	0.48170 0.26970 0.18100 0.29700
H 	H 	0.46980 0.23270 0.17020 -0.05400
C 	C 	0.54940 0.28910 0.18220 -0.31800
C 	C 	0.60460 0.25170 0.16540 0.52500
O 	O 	0.38360 0.56930 0.33534 -0.55900
O 	O 	0.42930 0.47760 0.35318 -0.57600
O 	O 	0.39460 0.39540 0.22210 -0.35300
O 	O 	0.66640 0.26960 0.16850 -0.57700
O 	O 	0.58320 0.20690 0.14931 -0.58100
O 	O 	0.47480 0.59940 0.38801 -0.72500
H 	H 	0.77678 0.87403 0.85115 0.12100
C 	C 	0.40590 0.01160 0.83269 0.39600
C 	C 	0.40330 0.98060 0.80280 -0.11100
C 	C 	0.36850 0.01100 0.78050 0.01900
H 	H 	0.34680 0.05130 0.78360 0.03500
C 	C 	0.43670 0.92030 0.79840 0.11200
H 	H 	0.45890 0.89900 0.81370 0.00600
C 	C 	0.36600 0.98210 0.75360 -0.13600
H 	H 	0.34090 0.00140 0.73870 0.07800
C 	C 	0.43630 0.89270 0.77110 -0.24900
H 	H 	0.45970 0.85340 0.76770 0.12600
C 	C 	0.40190 0.92290 0.74920 0.25600
C 	C 	0.44940 0.85990 0.71030 0.40600
C 	C 	0.51450 0.87970 0.71200 -0.40800
H 	H 	0.52570 0.91680 0.72290 0.18400
C 	C 	0.43150 0.80340 0.69530 -0.40000
H 	H 	0.38580 0.78860 0.69510 0.18900
C 	C 	0.56730 0.84460 0.69750 0.27400
H 	H 	0.61320 0.85870 0.69840 -0.04900
C 	C 	0.48170 0.76970 0.68100 0.29100
H 	H 	0.46980 0.73270 0.67020 -0.05100
C 	C 	0.54940 0.78910 0.68220 -0.31100
C 	C 	0.60460 0.75170 0.66540 0.52300
O 	O 	0.38360 0.06930 0.83534 -0.53800
O 	O 	0.42930 0.97760 0.85318 -0.53300
O 	O 	0.39460 0.89540 0.72210 -0.31900
O 	O 	0.66640 0.76960 0.66850 -0.57500
O 	O 	0.58320 0.70690 0.64931 -0.58000
O 	O 	0.47480 0.09940 0.88801 -0.72800
H 	H 	0.77678 0.37403 0.35115 0.11900
C 	C 	0.90590 0.51160 0.83269 0.49600
C 	C 	0.90330 0.48060 0.80280 -0.27400
C 	C 	0.86850 0.51100 0.78050 0.25100
H 	H 	0.84680 0.55130 0.78360 -0.03800
C 	C 	0.93670 0.42030 0.79840 0.25700
H 	H 	0.95890 0.39900 0.81370 -0.03200
C 	C 	0.86600 0.48210 0.75360 -0.36400
H 	H 	0.84090 0.50140 0.73870 0.17700
C 	C 	0.93630 0.39270 0.77110 -0.39000
H 	H 	0.95970 0.35340 0.76770 0.18400
C 	C 	0.90190 0.42290 0.74920 0.40000
C 	C 	0.94940 0.35990 0.71030 0.62600
C 	C 	0.01450 0.37970 0.71200 -0.66900
H 	H 	0.02570 0.41680 0.72290 0.25300
C 	C 	0.93150 0.30340 0.69530 -0.61400
H 	H 	0.88580 0.28860 0.69510 0.26400
C 	C 	0.06730 0.34460 0.69750 0.46500
H 	H 	0.11320 0.35870 0.69840 -0.12000
C 	C 	0.98170 0.26970 0.68100 0.54500
H 	H 	0.96980 0.23270 0.67020 -0.12400
C 	C 	0.04940 0.28910 0.68220 -0.51600
C 	C 	0.10460 0.25170 0.66540 0.58700
O 	O 	0.88360 0.56930 0.83534 -0.55400
O 	O 	0.92930 0.47760 0.85318 -0.56000
O 	O 	0.89460 0.39540 0.72210 -0.40100
O 	O 	0.16640 0.26960 0.66850 -0.59400
O 	O 	0.08320 0.20690 0.64931 -0.61100
O 	O 	0.97480 0.59940 0.88801 -0.68600
H 	H 	0.27678 0.87403 0.35115 0.12000
C 	C 	0.90590 0.01160 0.33269 0.41000
C 	C 	0.90330 0.98060 0.30280 -0.12800
C 	C 	0.86850 0.01100 0.28050 0.05400
H 	H 	0.84680 0.05130 0.28360 0.02700
C 	C 	0.93670 0.92030 0.29840 0.14100
H 	H 	0.95890 0.89900 0.31370 0.00800
C 	C 	0.86600 0.98210 0.25360 -0.17000
H 	H 	0.84090 0.00140 0.23870 0.09500
C 	C 	0.93630 0.89270 0.27110 -0.27700
H 	H 	0.95970 0.85340 0.26770 0.14600
C 	C 	0.90190 0.92290 0.24920 0.29700
C 	C 	0.94940 0.85990 0.21030 0.60400
C 	C 	0.01450 0.87970 0.21200 -0.64500
H 	H 	0.02570 0.91680 0.22290 0.25000
C 	C 	0.93150 0.80340 0.19530 -0.59400
H 	H 	0.88580 0.78860 0.19510 0.25800
C 	C 	0.06730 0.84460 0.19750 0.45100
H 	H 	0.11320 0.85870 0.19840 -0.11300
C 	C 	0.98170 0.76970 0.18100 0.52700
H 	H 	0.96980 0.73270 0.17020 -0.11900
C 	C 	0.04940 0.78910 0.18220 -0.50100
C 	C 	0.10460 0.75170 0.16540 0.58300
O 	O 	0.88360 0.06930 0.33534 -0.53400
O 	O 	0.92930 0.97760 0.35318 -0.52200
O 	O 	0.89460 0.89540 0.22210 -0.36700
O 	O 	0.16640 0.76960 0.16850 -0.59200
O 	O 	0.08320 0.70690 0.14931 -0.60800
O 	O 	0.97480 0.09940 0.38801 -0.68700
H 	H 	0.27678 0.37403 0.85115 0.11800
C 	C 	0.09410 0.98840 0.33269 0.58700
C 	C 	0.09670 0.01940 0.30280 -0.44100
C 	C 	0.13150 0.98900 0.28050 0.45000
H 	H 	0.15320 0.94870 0.28360 -0.11000
C 	C 	0.06330 0.07970 0.29840 0.35700
H 	H 	0.04110 0.10100 0.31370 -0.09500
C 	C 	0.13400 0.01790 0.25360 -0.56000
H 	H 	0.15910 0.99860 0.23870 0.25500
C 	C 	0.06370 0.10730 0.27110 -0.48500
H 	H 	0.04030 0.14660 0.26770 0.19500
C 	C 	0.09810 0.07710 0.24920 0.45700
C 	C 	0.05060 0.14010 0.21030 0.22600
C 	C 	0.98550 0.12030 0.21200 -0.18800
H 	H 	0.97430 0.08320 0.22290 0.11500
C 	C 	0.06850 0.19660 0.19530 -0.22200
H 	H 	0.11420 0.21140 0.19510 0.12400
C 	C 	0.93270 0.15540 0.19750 0.10200
H 	H 	0.88680 0.14130 0.19840 0.00900
C 	C 	0.01830 0.23030 0.18100 0.05900
H 	H 	0.03020 0.26730 0.17020 0.01300
C 	C 	0.95060 0.21090 0.18220 -0.12700
C 	C 	0.89540 0.24830 0.16540 0.46500
O 	O 	0.11640 0.93070 0.33534 -0.58500
O 	O 	0.07070 0.02240 0.35318 -0.62900
O 	O 	0.10540 0.10460 0.22210 -0.34200
O 	O 	0.83360 0.23040 0.16850 -0.56000
O 	O 	0.91680 0.29310 0.14931 -0.55200
O 	O 	0.02520 0.90060 0.38801 -0.75400
H 	H 	0.72322 0.62597 0.85115 0.11800
C 	C 	0.09410 0.48840 0.83269 0.48600
C 	C 	0.09670 0.51940 0.80280 -0.27300
C 	C 	0.13150 0.48900 0.78050 0.22400
H 	H 	0.15320 0.44870 0.78360 -0.03500
C 	C 	0.06330 0.57970 0.79840 0.22400
H 	H 	0.04110 0.60100 0.81370 -0.04700
C 	C 	0.13400 0.51790 0.75360 -0.33800
H 	H 	0.15910 0.49860 0.73870 0.16100
C 	C 	0.06370 0.60730 0.77110 -0.35700
H 	H 	0.04030 0.64660 0.76770 0.15300
C 	C 	0.09810 0.57710 0.74920 0.34000
C 	C 	0.05060 0.64010 0.71030 0.22000
C 	C 	0.98550 0.62030 0.71200 -0.18300
H 	H 	0.97430 0.58320 0.72290 0.11700
C 	C 	0.06850 0.69660 0.69530 -0.21700
H 	H 	0.11420 0.71140 0.69510 0.12300
C 	C 	0.93270 0.65540 0.69750 0.10200
H 	H 	0.88680 0.64130 0.69840 0.01100
C 	C 	0.01830 0.73030 0.68100 0.06100
H 	H 	0.03020 0.76730 0.67020 0.01300
C 	C 	0.95060 0.71090 0.68220 -0.12700
C 	C 	0.89540 0.74830 0.66540 0.46600
O 	O 	0.11640 0.43070 0.83534 -0.56300
O 	O 	0.07070 0.52240 0.85318 -0.58700
O 	O 	0.10540 0.60460 0.72210 -0.30800
O 	O 	0.83360 0.73040 0.66850 -0.55900
O 	O 	0.91680 0.79310 0.64931 -0.55200
O 	O 	0.02520 0.40060 0.88801 -0.76100
H 	H 	0.72322 0.12597 0.35115 0.11600
C 	C 	0.59410 0.98840 0.83269 0.58400
C 	C 	0.59670 0.01940 0.80280 -0.42900
C 	C 	0.63150 0.98900 0.78050 0.44600
H 	H 	0.65320 0.94870 0.78360 -0.10600
C 	C 	0.56330 0.07970 0.79840 0.36300
H 	H 	0.54110 0.10100 0.81370 -0.08400
C 	C 	0.63400 0.01790 0.75360 -0.55600
H 	H 	0.65910 0.99860 0.73870 0.25500
C 	C 	0.56370 0.10730 0.77110 -0.49100
H 	H 	0.54030 0.14660 0.76770 0.20800
C 	C 	0.59810 0.07710 0.74920 0.47800
C 	C 	0.55060 0.14010 0.71030 0.43300
C 	C 	0.48550 0.12030 0.71200 -0.43600
H 	H 	0.47430 0.08320 0.72290 0.18400
C 	C 	0.56850 0.19660 0.69530 -0.42400
H 	H 	0.61420 0.21140 0.69510 0.19600
C 	C 	0.43270 0.15540 0.69750 0.28800
H 	H 	0.38680 0.14130 0.69840 -0.05800
C 	C 	0.51830 0.23030 0.68100 0.30700
H 	H 	0.53020 0.26730 0.67020 -0.05800
C 	C 	0.45060 0.21090 0.68220 -0.32500
C 	C 	0.39540 0.24830 0.66540 0.52700
O 	O 	0.61640 0.93070 0.83534 -0.57900
O 	O 	0.57070 0.02240 0.85318 -0.61400
O 	O 	0.60540 0.10460 0.72210 -0.38600
O 	O 	0.33360 0.23040 0.66850 -0.57800
O 	O 	0.41680 0.29310 0.64931 -0.58100
O 	O 	0.52520 0.90060 0.88801 -0.72100
H 	H 	0.22322 0.62597 0.35115 0.11700
C 	C 	0.59410 0.48840 0.33269 0.49200
C 	C 	0.59670 0.51940 0.30280 -0.27400
C 	C 	0.63150 0.48900 0.28050 0.23800
H 	H 	0.65320 0.44870 0.28360 -0.03700
C 	C 	0.56330 0.57970 0.29840 0.24100
H 	H 	0.54110 0.60100 0.31370 -0.04000
C 	C 	0.63400 0.51790 0.25360 -0.35100
H 	H 	0.65910 0.49860 0.23870 0.16900
C 	C 	0.56370 0.60730 0.27110 -0.37300
H 	H 	0.54030 0.64660 0.26770 0.16800
C 	C 	0.59810 0.57710 0.24920 0.37000
C 	C 	0.55060 0.64010 0.21030 0.42000
C 	C 	0.48550 0.62030 0.21200 -0.42300
H 	H 	0.47430 0.58320 0.22290 0.18400
C 	C 	0.56850 0.69660 0.19530 -0.41300
H 	H 	0.61420 0.71140 0.19510 0.19300
C 	C 	0.43270 0.65540 0.19750 0.28200
H 	H 	0.38680 0.64130 0.19840 -0.05400
C 	C 	0.51830 0.73030 0.18100 0.30000
H 	H 	0.53020 0.76730 0.17020 -0.05500
C 	C 	0.45060 0.71090 0.18220 -0.31900
C 	C 	0.39540 0.74830 0.16540 0.52600
O 	O 	0.61640 0.43070 0.33534 -0.55900
O 	O 	0.57070 0.52240 0.35318 -0.57500
O 	O 	0.60540 0.60460 0.22210 -0.35400
O 	O 	0.33360 0.73040 0.16850 -0.57600
O 	O 	0.41680 0.79310 0.14931 -0.58000
O 	O 	0.52520 0.40060 0.38801 -0.72500
H 	H 	0.22322 0.12597 0.85115 0.11500
In	In	0.12500 0.62500 0.12500 2.01300
In	In	0.12500 0.12500 0.62500 2.01200
In	In	0.62500 0.62500 0.62500 2.01200
In	In	0.62500 0.12500 0.12500 2.01200
In	In	0.87500 0.37500 0.12500 2.01200
In	In	0.87500 0.87500 0.62500 2.01300
In	In	0.87500 0.62500 0.87500 2.01200
In	In	0.87500 0.12500 0.37500 2.01200
In	In	0.12500 0.37500 0.87500 2.01300
In	In	0.62500 0.37500 0.37500 2.01200
In	In	0.37500 0.87500 0.12500 2.01300
In	In	0.37500 0.37500 0.62500 2.01200
In	In	0.37500 0.62500 0.37500 2.01200
In	In	0.37500 0.12500 0.87500 2.01200
In	In	0.12500 0.87500 0.37500 2.01300
In	In	0.62500 0.87500 0.87500 2.01300
In	In	0.25000 0.75000 0.13843 2.00700
In	In	0.25000 0.25000 0.63843 2.00700
In	In	0.75000 0.25000 0.13843 2.00700
In	In	0.75000 0.75000 0.63843 2.00700
In	In	0.75000 0.75000 0.86157 2.00700
In	In	0.75000 0.25000 0.36157 2.00700
In	In	0.25000 0.25000 0.86157 2.00700
In	In	0.25000 0.75000 0.36157 2.00700
In	In	0.00000 0.50000 0.11157 1.99400
In	In	0.00000 0.00000 0.61157 1.98800
In	In	0.50000 -0.00000 0.11157 2.00100
In	In	0.50000 0.50000 0.61157 2.00700
In	In	0.50000 0.50000 0.38843 2.00700
In	In	0.50000 0.00000 0.88843 2.00100
In	In	0.00000 0.00000 0.38843 1.98900
In	In	0.00000 0.50000 0.88843 1.99400
