data_crystal

_cell_length_a 34.36240
_cell_length_b 18.68070
_cell_length_c 25.87570
_cell_angle_alpha 90.00000
_cell_angle_beta  90.00000
_cell_angle_gamma 90.00000

_symmetry_space_group_name_	'P 1'
_symmetry_space_group_name_H-M	'P 1'

loop_
_symmetry_equiv_pos_as_xyz
  x,y,z

loop_
_atom_site_label
_atom_site_type_symbol
_atom_site_fract_x
_atom_site_fract_y
_atom_site_fract_z
_atom_site_charge
Cu	Cu	0.22642 0.03468 0.66759 0.90800
Cu	Cu	0.26451 0.96321 0.74258 0.90100
C 	C 	0.11070 0.83870 0.89160 0.37500
O 	O 	0.18276 0.01170 0.71270 -0.41600
C 	C 	0.11140 0.89050 0.84550 -0.05100
O 	O 	0.21390 0.95460 0.77580 -0.42100
O 	O 	0.14405 0.82500 0.90640 -0.41400
C 	C 	0.14640 0.96070 0.78000 -0.07700
O 	O 	0.07866 0.82260 0.90700 -0.41700
C 	C 	0.18490 0.98050 0.75580 0.37800
C 	C 	0.14690 0.91200 0.82240 0.02900
H 	H 	0.17090 0.89410 0.83520 0.06800
C 	C 	0.11100 0.98600 0.76060 0.03000
H 	H 	0.11080 0.01850 0.73240 0.02200
O 	O 	0.04300 0.97870 0.75720 -0.16900
C 	C 	0.00930 0.98710 0.78770 -0.08400
H 	H 	0.01680 0.99470 0.82420 0.63500
H 	H 	0.99460 0.02970 0.77590 0.26600
C 	C 	0.98440 0.92340 0.78380 0.35900
H 	H 	0.98270 0.90790 0.74730 -0.00300
H 	H 	0.99580 0.88380 0.80430 -0.07800
C 	C 	0.94420 0.94070 0.80400 0.06600
H 	H 	0.92960 0.89610 0.81080 0.01700
H 	H 	0.92970 0.96940 0.77830 0.17600
O 	O 	0.94910 0.98180 0.85230 -0.15600
C 	C 	0.91320 0.01310 0.87440 0.09800
C 	C 	0.91640 0.06570 0.91090 0.08000
H 	H 	0.94120 0.07410 0.92590 0.03300
C 	C 	0.85000 0.09280 0.90370 -0.00500
H 	H 	0.82790 0.12030 0.91340 0.04300
C 	C 	0.87730 0.99880 0.85150 -0.20100
H 	H 	0.87460 0.96210 0.82630 0.10400
C 	C 	0.07630 0.96240 0.78470 0.24100
C 	C 	0.07570 0.91500 0.82720 0.01800
H 	H 	0.05190 0.90050 0.84260 0.00600
O 	O 	0.92058 0.17750 0.98630 -0.40000
O 	O 	0.85515 0.17770 0.98800 -0.42900
O 	O 	0.77720 0.04330 0.86440 -0.42400
O 	O 	0.80848 0.98270 0.80310 -0.41800
C 	C 	0.88520 0.10780 0.92740 -0.04700
C 	C 	0.84540 0.03970 0.86660 -0.04500
C 	C 	0.80590 0.02440 0.84160 0.36300
C 	C 	0.88620 0.16490 0.97000 0.36100
C 	C 	0.23140 0.88640 0.65740 0.29000
O 	O 	0.22090 0.94150 0.63550 -0.39300
C 	C 	0.22370 0.81680 0.63220 0.05500
O 	O 	0.25250 0.87790 0.69940 -0.37300
C 	C 	0.20410 0.81580 0.58570 -0.26000
H 	H 	0.19590 0.85910 0.56990 0.15800
O 	O 	0.22970 0.93950 0.27200 -0.38600
O 	O 	0.26360 0.87860 0.21000 -0.40100
C 	C 	0.21340 0.81180 0.31820 -0.40200
H 	H 	0.20690 0.85620 0.33380 0.21100
C 	C 	0.23430 0.81453 0.27280 0.13500
C 	C 	0.24403 0.88520 0.24760 0.28700
C 	C 	0.99039 0.77040 0.92250 0.04000
N 	N 	0.00936 0.72960 0.96080 -0.10600
C 	C 	0.98931 0.72960 0.00670 0.01600
C 	C 	0.94896 0.72960 0.00190 -0.02900
C 	C 	0.92751 0.77040 0.96330 -0.00500
C 	C 	0.95103 0.77040 0.91540 -0.04000
O 	O 	0.17360 0.77370 0.51740 -0.41300
O 	O 	0.17980 0.72360 0.38710 -0.67200
C 	C 	0.15020 0.71780 0.49090 0.81100
C 	C 	0.15690 0.78410 0.40530 1.14000
H 	H 	0.00510 0.77040 0.89140 0.01200
H 	H 	0.00200 0.72960 0.03930 0.02200
H 	H 	0.93540 0.72960 0.03400 0.03400
H 	H 	0.89990 0.77040 0.96440 0.02600
H 	H 	0.93950 0.77040 0.88200 0.03200
H 	H 	0.11620 0.71220 0.42800 0.37100
H 	H 	0.11310 0.78670 0.45760 0.41800
H 	H 	0.13010 0.69880 0.51460 -0.23100
H 	H 	0.16720 0.67770 0.48020 -0.13000
H 	H 	0.17370 0.82160 0.42050 -0.16000
H 	H 	0.14120 0.80510 0.37700 -0.30500
C 	C 	0.94520 0.50600 0.78150 -0.15100
C 	C 	0.91310 0.43260 0.84560 0.07100
C 	C 	0.91850 0.39660 0.89170 -0.19500
C 	C 	0.85050 0.42470 0.91240 -0.02000
C 	C 	0.87750 0.46350 0.83350 0.11500
C 	C 	0.98670 0.52000 0.76390 -0.21800
C 	C 	0.14320 0.59240 0.81660 -0.00900
C 	C 	0.11500 0.49280 0.76930 -0.05200
C 	C 	0.08110 0.50410 0.79710 -0.12600
C 	C 	0.08130 0.56100 0.83360 -0.10600
C 	C 	0.01270 0.46960 0.79630 -0.33700
H 	H 	0.93300 0.55050 0.79440 -0.11400
H 	H 	0.92940 0.48710 0.75260 0.03400
H 	H 	0.94290 0.37540 0.90000 0.11200
H 	H 	0.82900 0.42200 0.93540 0.05200
H 	H 	0.87490 0.48780 0.80150 0.00100
H 	H 	0.99380 0.57090 0.77030 -0.14300
H 	H 	0.98950 0.51010 0.72660 0.10000
H 	H 	0.16580 0.62040 0.82240 -0.01200
H 	H 	0.11710 0.45570 0.74440 0.05600
H 	H 	0.05780 0.56720 0.85250 0.06500
H 	H 	0.01430 0.48570 0.83270 -0.46600
H 	H 	0.00270 0.41990 0.79540 0.13100
O 	O 	0.05020 0.47430 0.77140 -0.02800
O 	O 	0.94820 0.45330 0.82270 -0.12900
Cu	Cu	0.27358 0.96532 0.16759 0.90700
Cu	Cu	0.23549 0.03679 0.24258 0.90000
C 	C 	0.38930 0.16130 0.39160 0.37400
O 	O 	0.31724 0.98830 0.21270 -0.41800
C 	C 	0.38860 0.10950 0.34550 -0.05200
O 	O 	0.28610 0.04540 0.27580 -0.42200
O 	O 	0.35595 0.17500 0.40640 -0.41500
C 	C 	0.35360 0.03930 0.28000 -0.07800
O 	O 	0.42134 0.17740 0.40700 -0.41800
C 	C 	0.31510 0.01950 0.25580 0.37700
C 	C 	0.35310 0.08800 0.32240 0.02800
H 	H 	0.32910 0.10590 0.33520 0.06800
C 	C 	0.38900 0.01400 0.26060 0.02600
H 	H 	0.38920 0.98150 0.23240 0.02100
O 	O 	0.45700 0.02130 0.25720 -0.17000
C 	C 	0.49070 0.01290 0.28770 -0.08300
H 	H 	0.48320 0.00530 0.32420 0.65800
H 	H 	0.50540 0.97030 0.27590 0.27500
C 	C 	0.51560 0.07660 0.28380 0.36100
H 	H 	0.51730 0.09210 0.24730 -0.00300
H 	H 	0.50420 0.11620 0.30430 -0.08000
C 	C 	0.55580 0.05930 0.30400 0.06800
H 	H 	0.57040 0.10390 0.31080 0.01700
H 	H 	0.57030 0.03060 0.27830 0.17500
O 	O 	0.55090 0.01820 0.35230 -0.15600
C 	C 	0.58680 0.98690 0.37440 0.09500
C 	C 	0.58360 0.93430 0.41090 0.10700
H 	H 	0.55880 0.92590 0.42590 0.02600
C 	C 	0.65000 0.90720 0.40370 -0.00500
H 	H 	0.67210 0.87970 0.41340 0.04300
C 	C 	0.62270 0.00120 0.35150 -0.22100
H 	H 	0.62540 0.03790 0.32630 0.11000
C 	C 	0.42370 0.03760 0.28470 0.24100
C 	C 	0.42430 0.08500 0.32720 0.01900
H 	H 	0.44810 0.09950 0.34260 0.00600
O 	O 	0.57942 0.82250 0.48630 -0.40000
O 	O 	0.64485 0.82230 0.48800 -0.43000
O 	O 	0.72280 0.95670 0.36440 -0.42400
O 	O 	0.69152 0.01730 0.30310 -0.41800
C 	C 	0.61480 0.89220 0.42740 -0.04900
C 	C 	0.65460 0.96030 0.36660 -0.04500
C 	C 	0.69410 0.97560 0.34160 0.36300
C 	C 	0.61380 0.83510 0.47000 0.36200
C 	C 	0.26860 0.11360 0.15740 0.29000
O 	O 	0.27910 0.05850 0.13550 -0.39300
C 	C 	0.27630 0.18320 0.13220 0.05500
O 	O 	0.24750 0.12210 0.19940 -0.37200
C 	C 	0.29590 0.18420 0.08570 -0.26000
H 	H 	0.30410 0.14090 0.06990 0.15800
O 	O 	0.27030 0.06050 0.77200 -0.38600
O 	O 	0.23640 0.12140 0.71000 -0.40000
C 	C 	0.28660 0.18820 0.81820 -0.40200
H 	H 	0.29310 0.14380 0.83380 0.21100
C 	C 	0.26570 0.18547 0.77280 0.13500
C 	C 	0.25597 0.11480 0.74760 0.28700
C 	C 	0.50961 0.22960 0.42250 0.03900
N 	N 	0.49064 0.27040 0.46080 -0.10500
C 	C 	0.51069 0.27040 0.50670 0.01500
C 	C 	0.55104 0.27040 0.50190 -0.02800
C 	C 	0.57249 0.22960 0.46330 -0.00600
C 	C 	0.54897 0.22960 0.41540 -0.03900
O 	O 	0.32640 0.22630 0.01740 -0.41300
O 	O 	0.32020 0.27640 0.88710 -0.67200
C 	C 	0.34980 0.28220 0.99090 0.81100
C 	C 	0.34310 0.21590 0.90530 1.14000
H 	H 	0.49490 0.22960 0.39140 0.01300
H 	H 	0.49800 0.27040 0.53930 0.02200
H 	H 	0.56460 0.27040 0.53400 0.03400
H 	H 	0.60010 0.22960 0.46440 0.02600
H 	H 	0.56050 0.22960 0.38200 0.03200
H 	H 	0.38380 0.28780 0.92800 0.37100
H 	H 	0.38690 0.21330 0.95760 0.41900
H 	H 	0.36990 0.30120 0.01460 -0.23100
H 	H 	0.33280 0.32230 0.98020 -0.13000
H 	H 	0.32630 0.17840 0.92050 -0.16000
H 	H 	0.35880 0.19490 0.87700 -0.30500
C 	C 	0.55480 0.49400 0.28150 -0.15100
C 	C 	0.58690 0.56740 0.34560 0.07100
C 	C 	0.58150 0.60340 0.39170 -0.19400
C 	C 	0.64950 0.57530 0.41240 -0.02000
C 	C 	0.62250 0.53650 0.33350 0.11400
C 	C 	0.51330 0.48000 0.26390 -0.21900
C 	C 	0.35680 0.40760 0.31660 -0.00900
C 	C 	0.38500 0.50720 0.26930 -0.05200
C 	C 	0.41890 0.49590 0.29710 -0.12500
C 	C 	0.41870 0.43900 0.33360 -0.10600
C 	C 	0.48730 0.53040 0.29630 -0.33600
H 	H 	0.56700 0.44950 0.29440 -0.11400
H 	H 	0.57060 0.51290 0.25260 0.03400
H 	H 	0.55710 0.62460 0.40000 0.11200
H 	H 	0.67100 0.57800 0.43540 0.05200
H 	H 	0.62510 0.51220 0.30150 0.00100
H 	H 	0.50620 0.42910 0.27030 -0.14300
H 	H 	0.51050 0.48990 0.22660 0.10000
H 	H 	0.33420 0.37960 0.32240 -0.01200
H 	H 	0.38290 0.54430 0.24440 0.05600
H 	H 	0.44220 0.43280 0.35250 0.06500
H 	H 	0.48570 0.51430 0.33270 -0.46600
H 	H 	0.49730 0.58010 0.29540 0.13100
O 	O 	0.44980 0.52570 0.27140 -0.02800
O 	O 	0.55180 0.54670 0.32270 -0.12900
Cu	Cu	0.77358 0.53468 0.33241 0.90700
Cu	Cu	0.73549 0.46321 0.25742 0.90000
C 	C 	0.88930 0.33870 0.10840 0.37400
O 	O 	0.81724 0.51170 0.28730 -0.41800
C 	C 	0.88860 0.39050 0.15450 -0.05200
O 	O 	0.78610 0.45460 0.22420 -0.42200
O 	O 	0.85595 0.32500 0.09360 -0.41500
C 	C 	0.85360 0.46070 0.22000 -0.07800
O 	O 	0.92134 0.32260 0.09300 -0.41800
C 	C 	0.81510 0.48050 0.24420 0.37700
C 	C 	0.85310 0.41200 0.17760 0.02800
H 	H 	0.82910 0.39410 0.16480 0.06700
C 	C 	0.88900 0.48600 0.23940 0.02600
H 	H 	0.88920 0.51850 0.26760 0.02100
O 	O 	0.95700 0.47870 0.24280 -0.17000
C 	C 	0.99070 0.48710 0.21230 -0.08300
H 	H 	0.98320 0.49470 0.17580 0.65900
H 	H 	0.00540 0.52970 0.22410 0.27600
C 	C 	0.01560 0.42340 0.21620 0.36100
H 	H 	0.01730 0.40790 0.25270 -0.00300
H 	H 	0.00420 0.38380 0.19570 -0.08000
C 	C 	0.05580 0.44070 0.19600 0.06800
H 	H 	0.07040 0.39610 0.18920 0.01700
H 	H 	0.07030 0.46940 0.22170 0.17500
O 	O 	0.05090 0.48180 0.14770 -0.15600
C 	C 	0.08680 0.51310 0.12560 0.09600
C 	C 	0.08360 0.56570 0.08910 0.09700
H 	H 	0.05880 0.57410 0.07410 0.02900
C 	C 	0.15000 0.59280 0.09630 -0.00500
H 	H 	0.17210 0.62030 0.08660 0.04300
C 	C 	0.12270 0.49880 0.14850 -0.21300
H 	H 	0.12540 0.46210 0.17370 0.10800
C 	C 	0.92370 0.46240 0.21530 0.24000
C 	C 	0.92430 0.41500 0.17280 0.01900
H 	H 	0.94810 0.40050 0.15740 0.00600
O 	O 	0.07942 0.67750 0.01370 -0.40000
O 	O 	0.14485 0.67770 0.01200 -0.42900
O 	O 	0.22280 0.54330 0.13560 -0.42400
O 	O 	0.19152 0.48270 0.19690 -0.41800
C 	C 	0.11480 0.60780 0.07260 -0.04800
C 	C 	0.15460 0.53970 0.13340 -0.04500
C 	C 	0.19410 0.52440 0.15840 0.36300
C 	C 	0.11380 0.66490 0.03000 0.36100
C 	C 	0.76860 0.38640 0.34260 0.29000
O 	O 	0.77910 0.44150 0.36450 -0.39300
C 	C 	0.77630 0.31680 0.36780 0.05500
O 	O 	0.74750 0.37790 0.30060 -0.37200
C 	C 	0.79590 0.31580 0.41430 -0.26000
H 	H 	0.80410 0.35910 0.43010 0.15800
O 	O 	0.77030 0.43950 0.72800 -0.38600
O 	O 	0.73640 0.37860 0.79000 -0.40100
C 	C 	0.78660 0.31180 0.68180 -0.40200
H 	H 	0.79310 0.35620 0.66620 0.21100
C 	C 	0.76570 0.31453 0.72720 0.13500
C 	C 	0.75597 0.38520 0.75240 0.28700
C 	C 	0.00961 0.27040 0.07750 0.04000
N 	N 	0.99064 0.22960 0.03920 -0.10600
C 	C 	0.01069 0.22960 0.99330 0.01500
C 	C 	0.05104 0.22960 0.99810 -0.02800
C 	C 	0.07249 0.27040 0.03670 -0.00600
C 	C 	0.04897 0.27040 0.08460 -0.04000
O 	O 	0.82640 0.27370 0.48260 -0.41300
O 	O 	0.82020 0.22360 0.61290 -0.67200
C 	C 	0.84980 0.21780 0.50910 0.81100
C 	C 	0.84310 0.28410 0.59470 1.14000
H 	H 	0.99490 0.27040 0.10860 0.01200
H 	H 	0.99800 0.22960 0.96070 0.02200
H 	H 	0.06460 0.22960 0.96600 0.03400
H 	H 	0.10010 0.27040 0.03560 0.02600
H 	H 	0.06050 0.27040 0.11800 0.03200
H 	H 	0.88380 0.21220 0.57200 0.37100
H 	H 	0.88690 0.28670 0.54240 0.41800
H 	H 	0.86990 0.19880 0.48540 -0.23100
H 	H 	0.83280 0.17770 0.51980 -0.13000
H 	H 	0.82630 0.32160 0.57950 -0.16000
H 	H 	0.85880 0.30510 0.62300 -0.30500
C 	C 	0.05480 0.00600 0.21850 -0.15400
C 	C 	0.08690 0.93260 0.15440 0.06900
C 	C 	0.08150 0.89660 0.10830 -0.17900
C 	C 	0.14950 0.92470 0.08760 -0.02000
C 	C 	0.12250 0.96350 0.16650 0.10300
C 	C 	0.01330 0.02000 0.23610 -0.20800
C 	C 	0.85680 0.09240 0.18340 -0.00900
C 	C 	0.88500 0.99280 0.23070 -0.05500
C 	C 	0.91890 0.00410 0.20290 -0.12600
C 	C 	0.91870 0.06100 0.16640 -0.10600
C 	C 	0.98730 0.96960 0.20370 -0.32100
H 	H 	0.06700 0.05050 0.20560 -0.11300
H 	H 	0.07060 0.98710 0.24740 0.03400
H 	H 	0.05710 0.87540 0.10000 0.10600
H 	H 	0.17100 0.92200 0.06460 0.05200
H 	H 	0.12510 0.98780 0.19850 0.00400
H 	H 	0.00620 0.07090 0.22970 -0.14500
H 	H 	0.01050 0.01010 0.27340 0.09700
H 	H 	0.83420 0.12040 0.17760 -0.01200
H 	H 	0.88290 0.95570 0.25560 0.05700
H 	H 	0.94220 0.06720 0.14750 0.06500
H 	H 	0.98570 0.98570 0.16730 -0.44600
H 	H 	0.99730 0.91990 0.20460 0.12700
O 	O 	0.94980 0.97430 0.22860 -0.03000
O 	O 	0.05180 0.95330 0.17730 -0.12900
Cu	Cu	0.72642 0.46532 0.83241 0.90700
Cu	Cu	0.76451 0.53679 0.75742 0.90000
C 	C 	0.61070 0.66130 0.60840 0.37400
O 	O 	0.68276 0.48830 0.78730 -0.41800
C 	C 	0.61140 0.60950 0.65450 -0.05200
O 	O 	0.71390 0.54540 0.72420 -0.42200
O 	O 	0.64405 0.67500 0.59360 -0.41500
C 	C 	0.64640 0.53930 0.72000 -0.07800
O 	O 	0.57866 0.67740 0.59300 -0.41800
C 	C 	0.68490 0.51950 0.74420 0.37700
C 	C 	0.64690 0.58800 0.67760 0.02800
H 	H 	0.67090 0.60590 0.66480 0.06700
C 	C 	0.61100 0.51400 0.73940 0.02600
H 	H 	0.61080 0.48150 0.76760 0.02100
O 	O 	0.54300 0.52130 0.74280 -0.16900
C 	C 	0.50930 0.51290 0.71230 -0.08300
H 	H 	0.51680 0.50530 0.67580 0.65900
H 	H 	0.49460 0.47030 0.72410 0.27500
C 	C 	0.48440 0.57660 0.71620 0.36100
H 	H 	0.48270 0.59210 0.75270 -0.00300
H 	H 	0.49580 0.61620 0.69570 -0.08000
C 	C 	0.44420 0.55930 0.69600 0.06800
H 	H 	0.42960 0.60390 0.68920 0.01700
H 	H 	0.42970 0.53060 0.72170 0.17500
O 	O 	0.44910 0.51820 0.64770 -0.15700
C 	C 	0.41320 0.48690 0.62560 0.09600
C 	C 	0.41640 0.43430 0.58910 0.09600
H 	H 	0.44120 0.42590 0.57410 0.02900
C 	C 	0.35000 0.40720 0.59630 -0.00500
H 	H 	0.32790 0.37970 0.58660 0.04300
C 	C 	0.37730 0.50120 0.64850 -0.21200
H 	H 	0.37460 0.53790 0.67370 0.10800
C 	C 	0.57630 0.53760 0.71530 0.24000
C 	C 	0.57570 0.58500 0.67280 0.01900
H 	H 	0.55190 0.59950 0.65740 0.00600
O 	O 	0.42058 0.32250 0.51370 -0.40000
O 	O 	0.35515 0.32230 0.51200 -0.43000
O 	O 	0.27720 0.45670 0.63560 -0.42400
O 	O 	0.30848 0.51730 0.69690 -0.41800
C 	C 	0.38520 0.39220 0.57260 -0.04800
C 	C 	0.34540 0.46030 0.63340 -0.04500
C 	C 	0.30590 0.47560 0.65840 0.36300
C 	C 	0.38620 0.33510 0.53000 0.36100
C 	C 	0.73140 0.61360 0.84260 0.29000
O 	O 	0.72090 0.55850 0.86450 -0.39300
C 	C 	0.72370 0.68320 0.86780 0.05500
O 	O 	0.75250 0.62210 0.80060 -0.37200
C 	C 	0.70410 0.68420 0.91430 -0.26000
H 	H 	0.69590 0.64090 0.93010 0.15800
O 	O 	0.72970 0.56050 0.22800 -0.38600
O 	O 	0.76360 0.62140 0.29000 -0.40100
C 	C 	0.71340 0.68820 0.18180 -0.40200
H 	H 	0.70690 0.64380 0.16620 0.21100
C 	C 	0.73430 0.68547 0.22720 0.13500
C 	C 	0.74403 0.61480 0.25240 0.28700
C 	C 	0.49039 0.72960 0.57750 0.03900
N 	N 	0.50936 0.77040 0.53920 -0.10500
C 	C 	0.48931 0.77040 0.49330 0.01500
C 	C 	0.44896 0.77040 0.49810 -0.02800
C 	C 	0.42751 0.72960 0.53670 -0.00600
C 	C 	0.45103 0.72960 0.58460 -0.03900
O 	O 	0.67360 0.72630 0.98260 -0.41300
O 	O 	0.67980 0.77640 0.11290 -0.67200
C 	C 	0.65020 0.78220 0.00910 0.81000
C 	C 	0.65690 0.71590 0.09470 1.14000
H 	H 	0.50510 0.72960 0.60860 0.01300
H 	H 	0.50200 0.77040 0.46070 0.02200
H 	H 	0.43540 0.77040 0.46600 0.03400
H 	H 	0.39990 0.72960 0.53560 0.02600
H 	H 	0.43950 0.72960 0.61800 0.03200
H 	H 	0.61620 0.78780 0.07200 0.37100
H 	H 	0.61310 0.71330 0.04240 0.41800
H 	H 	0.63010 0.80120 0.98540 -0.23100
H 	H 	0.66720 0.82230 0.01980 -0.13000
H 	H 	0.67370 0.67840 0.07950 -0.16000
H 	H 	0.64120 0.69490 0.12300 -0.30500
C 	C 	0.44520 0.99400 0.71850 -0.15200
C 	C 	0.41310 0.06740 0.65440 0.07100
C 	C 	0.41850 0.10340 0.60830 -0.20400
C 	C 	0.35050 0.07530 0.58760 -0.02000
C 	C 	0.37750 0.03650 0.66650 0.12200
C 	C 	0.48670 0.98000 0.73610 -0.21800
C 	C 	0.64320 0.90760 0.68340 -0.00900
C 	C 	0.61500 0.00720 0.73070 -0.05200
C 	C 	0.58110 0.99590 0.70290 -0.12600
C 	C 	0.58130 0.93900 0.66640 -0.10600
C 	C 	0.51270 0.03040 0.70370 -0.33600
H 	H 	0.43300 0.94950 0.70560 -0.11400
H 	H 	0.42940 0.01290 0.74740 0.03400
H 	H 	0.44290 0.12460 0.60000 0.11500
H 	H 	0.32900 0.07800 0.56460 0.05200
H 	H 	0.37490 0.01220 0.69850 -0.00100
H 	H 	0.49380 0.92910 0.72970 -0.14300
H 	H 	0.48950 0.98990 0.77340 0.09900
H 	H 	0.66580 0.87960 0.67760 -0.01200
H 	H 	0.61710 0.04430 0.75560 0.05600
H 	H 	0.55780 0.93280 0.64750 0.06500
H 	H 	0.51430 0.01430 0.66730 -0.46500
H 	H 	0.50270 0.08010 0.70460 0.13000
O 	O 	0.55020 0.02570 0.72860 -0.02800
O 	O 	0.44820 0.04670 0.67730 -0.12900
Cu	Cu	0.77358 0.96532 0.33241 0.90700
Cu	Cu	0.73549 0.03679 0.25742 0.90000
C 	C 	0.88930 0.16130 0.10840 0.37400
O 	O 	0.81724 0.98830 0.28730 -0.41700
C 	C 	0.88860 0.10950 0.15450 -0.05200
O 	O 	0.78610 0.04540 0.22420 -0.42200
O 	O 	0.85595 0.17500 0.09360 -0.41500
C 	C 	0.85360 0.03930 0.22000 -0.07800
O 	O 	0.92134 0.17740 0.09300 -0.41800
C 	C 	0.81510 0.01950 0.24420 0.37700
C 	C 	0.85310 0.08800 0.17760 0.02800
H 	H 	0.82910 0.10590 0.16480 0.06700
C 	C 	0.88900 0.01400 0.23940 0.02900
H 	H 	0.88920 0.98150 0.26760 0.02100
O 	O 	0.95700 0.02130 0.24280 -0.17000
C 	C 	0.99070 0.01290 0.21230 -0.08500
H 	H 	0.98320 0.00530 0.17580 0.63500
H 	H 	0.00540 0.97030 0.22410 0.26600
C 	C 	0.01560 0.07660 0.21620 0.35900
H 	H 	0.01730 0.09210 0.25270 -0.00300
H 	H 	0.00420 0.11620 0.19570 -0.07800
C 	C 	0.05580 0.05930 0.19600 0.06600
H 	H 	0.07040 0.10390 0.18920 0.01700
H 	H 	0.07030 0.03060 0.22170 0.17600
O 	O 	0.05090 0.01820 0.14770 -0.15600
C 	C 	0.08680 0.98690 0.12560 0.09800
C 	C 	0.08360 0.93430 0.08910 0.08000
H 	H 	0.05880 0.92590 0.07410 0.03300
C 	C 	0.15000 0.90720 0.09630 -0.00500
H 	H 	0.17210 0.87970 0.08660 0.04300
C 	C 	0.12270 0.00120 0.14850 -0.20100
H 	H 	0.12540 0.03790 0.17370 0.10400
C 	C 	0.92370 0.03760 0.21530 0.24100
C 	C 	0.92430 0.08500 0.17280 0.01800
H 	H 	0.94810 0.09950 0.15740 0.00600
O 	O 	0.07942 0.82250 0.01370 -0.40000
O 	O 	0.14485 0.82230 0.01200 -0.42900
O 	O 	0.22280 0.95670 0.13560 -0.42400
O 	O 	0.19152 0.01730 0.19690 -0.41800
C 	C 	0.11480 0.89220 0.07260 -0.04700
C 	C 	0.15460 0.96030 0.13340 -0.04500
C 	C 	0.19410 0.97560 0.15840 0.36300
C 	C 	0.11380 0.83510 0.03000 0.36100
C 	C 	0.76860 0.11360 0.34260 0.29000
O 	O 	0.77910 0.05850 0.36450 -0.39300
C 	C 	0.77630 0.18320 0.36780 0.05500
O 	O 	0.74750 0.12210 0.30060 -0.37300
C 	C 	0.79590 0.18420 0.41430 -0.26000
H 	H 	0.80410 0.14090 0.43010 0.15800
O 	O 	0.77030 0.06050 0.72800 -0.38600
O 	O 	0.73640 0.12140 0.79000 -0.40100
C 	C 	0.78660 0.18820 0.68180 -0.40200
H 	H 	0.79310 0.14380 0.66620 0.21100
C 	C 	0.76570 0.18547 0.72720 0.13500
C 	C 	0.75597 0.11480 0.75240 0.28700
C 	C 	0.00961 0.22960 0.07750 0.04000
N 	N 	0.99064 0.27040 0.03920 -0.10600
C 	C 	0.01069 0.27040 0.99330 0.01600
C 	C 	0.05104 0.27040 0.99810 -0.02900
C 	C 	0.07249 0.22960 0.03670 -0.00500
C 	C 	0.04897 0.22960 0.08460 -0.04000
O 	O 	0.82640 0.22630 0.48260 -0.41300
O 	O 	0.82020 0.27640 0.61290 -0.67200
C 	C 	0.84980 0.28220 0.50910 0.81100
C 	C 	0.84310 0.21590 0.59470 1.14000
H 	H 	0.99490 0.22960 0.10860 0.01200
H 	H 	0.99800 0.27040 0.96070 0.02200
H 	H 	0.06460 0.27040 0.96600 0.03400
H 	H 	0.10010 0.22960 0.03560 0.02600
H 	H 	0.06050 0.22960 0.11800 0.03200
H 	H 	0.88380 0.28780 0.57200 0.37100
H 	H 	0.88690 0.21330 0.54240 0.41800
H 	H 	0.86990 0.30120 0.48540 -0.23100
H 	H 	0.83280 0.32230 0.51980 -0.13000
H 	H 	0.82630 0.17840 0.57950 -0.16000
H 	H 	0.85880 0.19490 0.62300 -0.30500
C 	C 	0.05480 0.49400 0.21850 -0.15100
C 	C 	0.08690 0.56740 0.15440 0.07100
C 	C 	0.08150 0.60340 0.10830 -0.19500
C 	C 	0.14950 0.57530 0.08760 -0.02000
C 	C 	0.12250 0.53650 0.16650 0.11500
C 	C 	0.01330 0.48000 0.23610 -0.21800
C 	C 	0.85680 0.40760 0.18340 -0.00900
C 	C 	0.88500 0.50720 0.23070 -0.05200
C 	C 	0.91890 0.49590 0.20290 -0.12600
C 	C 	0.91870 0.43900 0.16640 -0.10600
C 	C 	0.98730 0.53040 0.20370 -0.33700
H 	H 	0.06700 0.44950 0.20560 -0.11400
H 	H 	0.07060 0.51290 0.24740 0.03400
H 	H 	0.05710 0.62460 0.10000 0.11200
H 	H 	0.17100 0.57800 0.06460 0.05200
H 	H 	0.12510 0.51220 0.19850 0.00100
H 	H 	0.00620 0.42910 0.22970 -0.14300
H 	H 	0.01050 0.48990 0.27340 0.10000
H 	H 	0.83420 0.37960 0.17760 -0.01200
H 	H 	0.88290 0.54430 0.25560 0.05600
H 	H 	0.94220 0.43280 0.14750 0.06500
H 	H 	0.98570 0.51430 0.16730 -0.46600
H 	H 	0.99730 0.58010 0.20460 0.13100
O 	O 	0.94980 0.52570 0.22860 -0.02800
O 	O 	0.05180 0.54670 0.17730 -0.12900
Cu	Cu	0.72642 0.03468 0.83241 0.90700
Cu	Cu	0.76451 0.96321 0.75742 0.90000
C 	C 	0.61070 0.83870 0.60840 0.37400
O 	O 	0.68276 0.01170 0.78730 -0.41800
C 	C 	0.61140 0.89050 0.65450 -0.05200
O 	O 	0.71390 0.95460 0.72420 -0.42200
O 	O 	0.64405 0.82500 0.59360 -0.41500
C 	C 	0.64640 0.96070 0.72000 -0.07800
O 	O 	0.57866 0.82260 0.59300 -0.41800
C 	C 	0.68490 0.98050 0.74420 0.37700
C 	C 	0.64690 0.91200 0.67760 0.02800
H 	H 	0.67090 0.89410 0.66480 0.06800
C 	C 	0.61100 0.98600 0.73940 0.02600
H 	H 	0.61080 0.01850 0.76760 0.02100
O 	O 	0.54300 0.97870 0.74280 -0.17000
C 	C 	0.50930 0.98710 0.71230 -0.08300
H 	H 	0.51680 0.99470 0.67580 0.65800
H 	H 	0.49460 0.02970 0.72410 0.27500
C 	C 	0.48440 0.92340 0.71620 0.36100
H 	H 	0.48270 0.90790 0.75270 -0.00300
H 	H 	0.49580 0.88380 0.69570 -0.08000
C 	C 	0.44420 0.94070 0.69600 0.06800
H 	H 	0.42960 0.89610 0.68920 0.01700
H 	H 	0.42970 0.96940 0.72170 0.17500
O 	O 	0.44910 0.98180 0.64770 -0.15600
C 	C 	0.41320 0.01310 0.62560 0.09500
C 	C 	0.41640 0.06570 0.58910 0.10700
H 	H 	0.44120 0.07410 0.57410 0.02600
C 	C 	0.35000 0.09280 0.59630 -0.00500
H 	H 	0.32790 0.12030 0.58660 0.04300
C 	C 	0.37730 0.99880 0.64850 -0.22100
H 	H 	0.37460 0.96210 0.67370 0.11000
C 	C 	0.57630 0.96240 0.71530 0.24100
C 	C 	0.57570 0.91500 0.67280 0.01900
H 	H 	0.55190 0.90050 0.65740 0.00600
O 	O 	0.42058 0.17750 0.51370 -0.40000
O 	O 	0.35515 0.17770 0.51200 -0.43000
O 	O 	0.27720 0.04330 0.63560 -0.42400
O 	O 	0.30848 0.98270 0.69690 -0.41800
C 	C 	0.38520 0.10780 0.57260 -0.04900
C 	C 	0.34540 0.03970 0.63340 -0.04500
C 	C 	0.30590 0.02440 0.65840 0.36300
C 	C 	0.38620 0.16490 0.53000 0.36200
C 	C 	0.73140 0.88640 0.84260 0.29000
O 	O 	0.72090 0.94150 0.86450 -0.39300
C 	C 	0.72370 0.81680 0.86780 0.05500
O 	O 	0.75250 0.87790 0.80060 -0.37200
C 	C 	0.70410 0.81580 0.91430 -0.26000
H 	H 	0.69590 0.85910 0.93010 0.15800
O 	O 	0.72970 0.93950 0.22800 -0.38600
O 	O 	0.76360 0.87860 0.29000 -0.40000
C 	C 	0.71340 0.81180 0.18180 -0.40200
H 	H 	0.70690 0.85620 0.16620 0.21100
C 	C 	0.73430 0.81453 0.22720 0.13500
C 	C 	0.74403 0.88520 0.25240 0.28700
C 	C 	0.49039 0.77040 0.57750 0.03900
N 	N 	0.50936 0.72960 0.53920 -0.10500
C 	C 	0.48931 0.72960 0.49330 0.01500
C 	C 	0.44896 0.72960 0.49810 -0.02800
C 	C 	0.42751 0.77040 0.53670 -0.00600
C 	C 	0.45103 0.77040 0.58460 -0.03900
O 	O 	0.67360 0.77370 0.98260 -0.41300
O 	O 	0.67980 0.72360 0.11290 -0.67200
C 	C 	0.65020 0.71780 0.00910 0.81100
C 	C 	0.65690 0.78410 0.09470 1.14000
H 	H 	0.50510 0.77040 0.60860 0.01300
H 	H 	0.50200 0.72960 0.46070 0.02200
H 	H 	0.43540 0.72960 0.46600 0.03400
H 	H 	0.39990 0.77040 0.53560 0.02600
H 	H 	0.43950 0.77040 0.61800 0.03200
H 	H 	0.61620 0.71220 0.07200 0.37100
H 	H 	0.61310 0.78670 0.04240 0.41900
H 	H 	0.63010 0.69880 0.98540 -0.23100
H 	H 	0.66720 0.67770 0.01980 -0.13000
H 	H 	0.67370 0.82160 0.07950 -0.16000
H 	H 	0.64120 0.80510 0.12300 -0.30500
C 	C 	0.44520 0.50600 0.71850 -0.15100
C 	C 	0.41310 0.43260 0.65440 0.07100
C 	C 	0.41850 0.39660 0.60830 -0.19400
C 	C 	0.35050 0.42470 0.58760 -0.02000
C 	C 	0.37750 0.46350 0.66650 0.11400
C 	C 	0.48670 0.52000 0.73610 -0.21900
C 	C 	0.64320 0.59240 0.68340 -0.00900
C 	C 	0.61500 0.49280 0.73070 -0.05200
C 	C 	0.58110 0.50410 0.70290 -0.12500
C 	C 	0.58130 0.56100 0.66640 -0.10600
C 	C 	0.51270 0.46960 0.70370 -0.33600
H 	H 	0.43300 0.55050 0.70560 -0.11400
H 	H 	0.42940 0.48710 0.74740 0.03400
H 	H 	0.44290 0.37540 0.60000 0.11200
H 	H 	0.32900 0.42200 0.56460 0.05200
H 	H 	0.37490 0.48780 0.69850 0.00100
H 	H 	0.49380 0.57090 0.72970 -0.14300
H 	H 	0.48950 0.51010 0.77340 0.10000
H 	H 	0.66580 0.62040 0.67760 -0.01200
H 	H 	0.61710 0.45570 0.75560 0.05600
H 	H 	0.55780 0.56720 0.64750 0.06500
H 	H 	0.51430 0.48570 0.66730 -0.46600
H 	H 	0.50270 0.41990 0.70460 0.13100
O 	O 	0.55020 0.47430 0.72860 -0.02800
O 	O 	0.44820 0.45330 0.67730 -0.12900
Cu	Cu	0.22642 0.46532 0.66759 0.90700
Cu	Cu	0.26451 0.53679 0.74258 0.90000
C 	C 	0.11070 0.66130 0.89160 0.37400
O 	O 	0.18276 0.48830 0.71270 -0.41800
C 	C 	0.11140 0.60950 0.84550 -0.05200
O 	O 	0.21390 0.54540 0.77580 -0.42200
O 	O 	0.14405 0.67500 0.90640 -0.41500
C 	C 	0.14640 0.53930 0.78000 -0.07800
O 	O 	0.07866 0.67740 0.90700 -0.41800
C 	C 	0.18490 0.51950 0.75580 0.37700
C 	C 	0.14690 0.58800 0.82240 0.02800
H 	H 	0.17090 0.60590 0.83520 0.06700
C 	C 	0.11100 0.51400 0.76060 0.02600
H 	H 	0.11080 0.48150 0.73240 0.02100
O 	O 	0.04300 0.52130 0.75720 -0.17000
C 	C 	0.00930 0.51290 0.78770 -0.08300
H 	H 	0.01680 0.50530 0.82420 0.65900
H 	H 	0.99460 0.47030 0.77590 0.27600
C 	C 	0.98440 0.57660 0.78380 0.36100
H 	H 	0.98270 0.59210 0.74730 -0.00300
H 	H 	0.99580 0.61620 0.80430 -0.08000
C 	C 	0.94420 0.55930 0.80400 0.06800
H 	H 	0.92960 0.60390 0.81080 0.01700
H 	H 	0.92970 0.53060 0.77830 0.17500
O 	O 	0.94910 0.51820 0.85230 -0.15600
C 	C 	0.91320 0.48690 0.87440 0.09600
C 	C 	0.91640 0.43430 0.91090 0.09700
H 	H 	0.94120 0.42590 0.92590 0.02900
C 	C 	0.85000 0.40720 0.90370 -0.00500
H 	H 	0.82790 0.37970 0.91340 0.04300
C 	C 	0.87730 0.50120 0.85150 -0.21300
H 	H 	0.87460 0.53790 0.82630 0.10800
C 	C 	0.07630 0.53760 0.78470 0.24000
C 	C 	0.07570 0.58500 0.82720 0.01900
H 	H 	0.05190 0.59950 0.84260 0.00600
O 	O 	0.92058 0.32250 0.98630 -0.40000
O 	O 	0.85515 0.32230 0.98800 -0.42900
O 	O 	0.77720 0.45670 0.86440 -0.42400
O 	O 	0.80848 0.51730 0.80310 -0.41800
C 	C 	0.88520 0.39220 0.92740 -0.04800
C 	C 	0.84540 0.46030 0.86660 -0.04500
C 	C 	0.80590 0.47560 0.84160 0.36300
C 	C 	0.88620 0.33510 0.97000 0.36100
C 	C 	0.23140 0.61360 0.65740 0.29000
O 	O 	0.22090 0.55850 0.63550 -0.39300
C 	C 	0.22370 0.68320 0.63220 0.05500
O 	O 	0.25250 0.62210 0.69940 -0.37200
C 	C 	0.20410 0.68420 0.58570 -0.26000
H 	H 	0.19590 0.64090 0.56990 0.15800
O 	O 	0.22970 0.56050 0.27200 -0.38600
O 	O 	0.26360 0.62140 0.21000 -0.40100
C 	C 	0.21340 0.68820 0.31820 -0.40200
H 	H 	0.20690 0.64380 0.33380 0.21100
C 	C 	0.23430 0.68547 0.27280 0.13500
C 	C 	0.24403 0.61480 0.24760 0.28700
C 	C 	0.99039 0.72960 0.92250 0.04000
N 	N 	0.00936 0.77040 0.96080 -0.10600
C 	C 	0.98931 0.77040 0.00670 0.01500
C 	C 	0.94896 0.77040 0.00190 -0.02800
C 	C 	0.92751 0.72960 0.96330 -0.00600
C 	C 	0.95103 0.72960 0.91540 -0.04000
O 	O 	0.17360 0.72630 0.51740 -0.41300
O 	O 	0.17980 0.77640 0.38710 -0.67200
C 	C 	0.15020 0.78220 0.49090 0.81100
C 	C 	0.15690 0.71590 0.40530 1.14000
H 	H 	0.00510 0.72960 0.89140 0.01200
H 	H 	0.00200 0.77040 0.03930 0.02200
H 	H 	0.93540 0.77040 0.03400 0.03400
H 	H 	0.89990 0.72960 0.96440 0.02600
H 	H 	0.93950 0.72960 0.88200 0.03200
H 	H 	0.11620 0.78780 0.42800 0.37100
H 	H 	0.11310 0.71330 0.45760 0.41800
H 	H 	0.13010 0.80120 0.51460 -0.23100
H 	H 	0.16720 0.82230 0.48020 -0.13000
H 	H 	0.17370 0.67840 0.42050 -0.16000
H 	H 	0.14120 0.69490 0.37700 -0.30500
C 	C 	0.94520 0.99400 0.78150 -0.15400
C 	C 	0.91310 0.06740 0.84560 0.06900
C 	C 	0.91850 0.10340 0.89170 -0.17900
C 	C 	0.85050 0.07530 0.91240 -0.02000
C 	C 	0.87750 0.03650 0.83350 0.10300
C 	C 	0.98670 0.98000 0.76390 -0.20800
C 	C 	0.14320 0.90760 0.81660 -0.00900
C 	C 	0.11500 0.00720 0.76930 -0.05500
C 	C 	0.08110 0.99590 0.79710 -0.12600
C 	C 	0.08130 0.93900 0.83360 -0.10600
C 	C 	0.01270 0.03040 0.79630 -0.32100
H 	H 	0.93300 0.94950 0.79440 -0.11300
H 	H 	0.92940 0.01290 0.75260 0.03400
H 	H 	0.94290 0.12460 0.90000 0.10600
H 	H 	0.82900 0.07800 0.93540 0.05200
H 	H 	0.87490 0.01220 0.80150 0.00400
H 	H 	0.99380 0.92910 0.77030 -0.14500
H 	H 	0.98950 0.98990 0.72660 0.09700
H 	H 	0.16580 0.87960 0.82240 -0.01200
H 	H 	0.11710 0.04430 0.74440 0.05700
H 	H 	0.05780 0.93280 0.85250 0.06500
H 	H 	0.01430 0.01430 0.83270 -0.44600
H 	H 	0.00270 0.08010 0.79540 0.12700
O 	O 	0.05020 0.02570 0.77140 -0.03000
O 	O 	0.94820 0.04670 0.82270 -0.12900
Cu	Cu	0.27358 0.53468 0.16759 0.90700
Cu	Cu	0.23549 0.46321 0.24258 0.90000
C 	C 	0.38930 0.33870 0.39160 0.37400
O 	O 	0.31724 0.51170 0.21270 -0.41800
C 	C 	0.38860 0.39050 0.34550 -0.05200
O 	O 	0.28610 0.45460 0.27580 -0.42200
O 	O 	0.35595 0.32500 0.40640 -0.41500
C 	C 	0.35360 0.46070 0.28000 -0.07800
O 	O 	0.42134 0.32260 0.40700 -0.41800
C 	C 	0.31510 0.48050 0.25580 0.37700
C 	C 	0.35310 0.41200 0.32240 0.02800
H 	H 	0.32910 0.39410 0.33520 0.06700
C 	C 	0.38900 0.48600 0.26060 0.02600
H 	H 	0.38920 0.51850 0.23240 0.02100
O 	O 	0.45700 0.47870 0.25720 -0.16900
C 	C 	0.49070 0.48710 0.28770 -0.08300
H 	H 	0.48320 0.49470 0.32420 0.65900
H 	H 	0.50540 0.52970 0.27590 0.27500
C 	C 	0.51560 0.42340 0.28380 0.36100
H 	H 	0.51730 0.40790 0.24730 -0.00300
H 	H 	0.50420 0.38380 0.30430 -0.08000
C 	C 	0.55580 0.44070 0.30400 0.06800
H 	H 	0.57040 0.39610 0.31080 0.01700
H 	H 	0.57030 0.46940 0.27830 0.17500
O 	O 	0.55090 0.48180 0.35230 -0.15700
C 	C 	0.58680 0.51310 0.37440 0.09600
C 	C 	0.58360 0.56570 0.41090 0.09600
H 	H 	0.55880 0.57410 0.42590 0.02900
C 	C 	0.65000 0.59280 0.40370 -0.00500
H 	H 	0.67210 0.62030 0.41340 0.04300
C 	C 	0.62270 0.49880 0.35150 -0.21200
H 	H 	0.62540 0.46210 0.32630 0.10800
C 	C 	0.42370 0.46240 0.28470 0.24000
C 	C 	0.42430 0.41500 0.32720 0.01900
H 	H 	0.44810 0.40050 0.34260 0.00600
O 	O 	0.57942 0.67750 0.48630 -0.40000
O 	O 	0.64485 0.67770 0.48800 -0.43000
O 	O 	0.72280 0.54330 0.36440 -0.42400
O 	O 	0.69152 0.48270 0.30310 -0.41800
C 	C 	0.61480 0.60780 0.42740 -0.04800
C 	C 	0.65460 0.53970 0.36660 -0.04500
C 	C 	0.69410 0.52440 0.34160 0.36300
C 	C 	0.61380 0.66490 0.47000 0.36100
C 	C 	0.26860 0.38640 0.15740 0.29000
O 	O 	0.27910 0.44150 0.13550 -0.39300
C 	C 	0.27630 0.31680 0.13220 0.05500
O 	O 	0.24750 0.37790 0.19940 -0.37200
C 	C 	0.29590 0.31580 0.08570 -0.26000
H 	H 	0.30410 0.35910 0.06990 0.15800
O 	O 	0.27030 0.43950 0.77200 -0.38600
O 	O 	0.23640 0.37860 0.71000 -0.40100
C 	C 	0.28660 0.31180 0.81820 -0.40200
H 	H 	0.29310 0.35620 0.83380 0.21100
C 	C 	0.26570 0.31453 0.77280 0.13500
C 	C 	0.25597 0.38520 0.74760 0.28700
C 	C 	0.50961 0.27040 0.42250 0.03900
N 	N 	0.49064 0.22960 0.46080 -0.10500
C 	C 	0.51069 0.22960 0.50670 0.01500
C 	C 	0.55104 0.22960 0.50190 -0.02800
C 	C 	0.57249 0.27040 0.46330 -0.00600
C 	C 	0.54897 0.27040 0.41540 -0.03900
O 	O 	0.32640 0.27370 0.01740 -0.41300
O 	O 	0.32020 0.22360 0.88710 -0.67200
C 	C 	0.34980 0.21780 0.99090 0.81000
C 	C 	0.34310 0.28410 0.90530 1.14000
H 	H 	0.49490 0.27040 0.39140 0.01300
H 	H 	0.49800 0.22960 0.53930 0.02200
H 	H 	0.56460 0.22960 0.53400 0.03400
H 	H 	0.60010 0.27040 0.46440 0.02600
H 	H 	0.56050 0.27040 0.38200 0.03200
H 	H 	0.38380 0.21220 0.92800 0.37100
H 	H 	0.38690 0.28670 0.95760 0.41800
H 	H 	0.36990 0.19880 0.01460 -0.23100
H 	H 	0.33280 0.17770 0.98020 -0.13000
H 	H 	0.32630 0.32160 0.92050 -0.16000
H 	H 	0.35880 0.30510 0.87700 -0.30500
C 	C 	0.55480 0.00600 0.28150 -0.15200
C 	C 	0.58690 0.93260 0.34560 0.07100
C 	C 	0.58150 0.89660 0.39170 -0.20400
C 	C 	0.64950 0.92470 0.41240 -0.02000
C 	C 	0.62250 0.96350 0.33350 0.12200
C 	C 	0.51330 0.02000 0.26390 -0.21800
C 	C 	0.35680 0.09240 0.31660 -0.00900
C 	C 	0.38500 0.99280 0.26930 -0.05200
C 	C 	0.41890 0.00410 0.29710 -0.12600
C 	C 	0.41870 0.06100 0.33360 -0.10600
C 	C 	0.48730 0.96960 0.29630 -0.33600
H 	H 	0.56700 0.05050 0.29440 -0.11400
H 	H 	0.57060 0.98710 0.25260 0.03400
H 	H 	0.55710 0.87540 0.40000 0.11500
H 	H 	0.67100 0.92200 0.43540 0.05200
H 	H 	0.62510 0.98780 0.30150 -0.00100
H 	H 	0.50620 0.07090 0.27030 -0.14300
H 	H 	0.51050 0.01010 0.22660 0.09900
H 	H 	0.33420 0.12040 0.32240 -0.01200
H 	H 	0.38290 0.95570 0.24440 0.05600
H 	H 	0.44220 0.06720 0.35250 0.06500
H 	H 	0.48570 0.98570 0.33270 -0.46500
H 	H 	0.49730 0.91990 0.29540 0.13000
O 	O 	0.44980 0.97430 0.27140 -0.02800
O 	O 	0.55180 0.95330 0.32270 -0.12900
Cu	Cu	0.15003 0.75000 0.95891 0.90800
Cu	Cu	0.07238 0.75000 0.96060 0.92200
C 	C 	0.23490 0.75000 0.65150 -0.09400
H 	H 	0.25180 0.75000 0.68060 0.09100
C 	C 	0.19660 0.75000 0.56220 0.45000
C 	C 	0.20110 0.75000 0.34320 0.70100
C 	C 	0.24700 0.75000 0.25170 -0.16400
H 	H 	0.26420 0.75000 0.22300 0.11600
C 	C 	0.13170 0.75000 0.44520 -2.38000
Cu	Cu	0.34997 0.25000 0.45891 0.90800
Cu	Cu	0.42762 0.25000 0.46060 0.92200
C 	C 	0.26510 0.25000 0.15150 -0.09400
H 	H 	0.24820 0.25000 0.18060 0.09100
C 	C 	0.30340 0.25000 0.06220 0.45000
C 	C 	0.29890 0.25000 0.84320 0.70100
C 	C 	0.25300 0.25000 0.75170 -0.16400
H 	H 	0.23580 0.25000 0.72300 0.11600
C 	C 	0.36830 0.25000 0.94520 -2.38000
Cu	Cu	0.84997 0.25000 0.04109 0.90800
Cu	Cu	0.92762 0.25000 0.03940 0.92200
C 	C 	0.76510 0.25000 0.34850 -0.09400
H 	H 	0.74820 0.25000 0.31940 0.09100
C 	C 	0.80340 0.25000 0.43780 0.45000
C 	C 	0.79890 0.25000 0.65680 0.70100
C 	C 	0.75300 0.25000 0.74830 -0.16400
H 	H 	0.73580 0.25000 0.77700 0.11600
C 	C 	0.86830 0.25000 0.55480 -2.38000
Cu	Cu	0.65003 0.75000 0.54109 0.90800
Cu	Cu	0.57238 0.75000 0.53940 0.92200
C 	C 	0.73490 0.75000 0.84850 -0.09400
H 	H 	0.75180 0.75000 0.81940 0.09100
C 	C 	0.69660 0.75000 0.93780 0.45000
C 	C 	0.70110 0.75000 0.15680 0.70100
C 	C 	0.74700 0.75000 0.24830 -0.16400
H 	H 	0.76420 0.75000 0.27700 0.11600
C 	C 	0.63170 0.75000 0.05480 -2.38000
