data_crystal

_cell_length_a 9.17680
_cell_length_b 10.90170
_cell_length_c 11.39610
_cell_angle_alpha 117.93800
_cell_angle_beta  100.53500
_cell_angle_gamma 98.51700

_symmetry_space_group_name_	'P 1'
_symmetry_space_group_name_H-M	'P 1'

loop_
_symmetry_equiv_pos_as_xyz
  x,y,z

loop_
_atom_site_label
_atom_site_type_symbol
_atom_site_fract_x
_atom_site_fract_y
_atom_site_fract_z
_atom_site_charge
Zn	Zn	0.30986 0.37463 0.37705 1.19500
O 	O 	0.20340 0.39050 0.22520 -0.51700
O 	O 	0.24150 0.21370 0.40360 -0.49400
O 	O 	0.03980 0.50640 0.32690 -0.50700
O 	O 	0.03160 0.29100 0.42240 -0.51400
N 	N 	0.34730 0.55550 0.56040 -0.21800
C 	C 	0.93330 0.54910 0.10840 0.14100
H 	H 	0.88840 0.58150 0.18050 0.00600
N 	N 	0.23220 0.59670 0.61250 -0.20600
N 	N 	0.48240 0.64070 0.65530 -0.23100
C 	C 	0.13080 0.99810 0.45640 0.07300
H 	H 	0.21970 0.99760 0.42820 0.00600
C 	C 	0.11200 0.20950 0.42790 0.41000
C 	C 	0.92300 0.10370 0.50990 0.14700
H 	H 	0.87200 0.17360 0.51780 0.00500
C 	C 	0.11380 0.42940 0.00140 0.09300
H 	H 	0.18970 0.38160 0.00210 0.00300
C 	C 	0.29550 0.71000 0.74140 0.01100
H 	H 	0.24250 0.76070 0.80220 0.01100
C 	C 	0.05350 0.10040 0.46440 -0.20700
C 	C 	0.09830 0.45690 0.23060 0.43200
C 	C 	0.04870 0.47840 0.11100 -0.23200
C 	C 	0.45130 0.73770 0.76740 0.01100
H 	H 	0.52350 0.81120 0.84900 0.01200
Zn	Zn	0.69014 0.62537 0.62295 1.19600
O 	O 	0.79660 0.60950 0.77480 -0.48400
O 	O 	0.75850 0.78630 0.59640 -0.47600
O 	O 	0.96020 0.49360 0.67310 -0.42500
O 	O 	0.96840 0.70900 0.57760 -0.43700
N 	N 	0.65270 0.44450 0.43960 -0.21600
C 	C 	0.06670 0.45090 0.89160 -0.18000
H 	H 	0.11160 0.41850 0.81950 0.09000
N 	N 	0.76780 0.40330 0.38750 -0.18400
N 	N 	0.51760 0.35930 0.34470 -0.23100
C 	C 	0.86920 0.00190 0.54360 -0.10800
H 	H 	0.78030 0.00240 0.57180 0.09200
C 	C 	0.88800 0.79050 0.57210 0.33200
C 	C 	0.07700 0.89630 0.49010 -0.18400
H 	H 	0.12800 0.82640 0.48220 0.08900
C 	C 	0.88620 0.57060 0.99860 -0.11900
H 	H 	0.81030 0.61840 0.99790 0.09000
C 	C 	0.70450 0.29000 0.25860 0.01900
H 	H 	0.75750 0.23930 0.19780 0.03800
C 	C 	0.94650 0.89960 0.53560 0.04000
C 	C 	0.90170 0.54310 0.76940 0.34500
C 	C 	0.95130 0.52160 0.88900 0.05400
C 	C 	0.54870 0.26230 0.23260 0.01600
H 	H 	0.47650 0.18880 0.15100 0.01100
Zn	Zn	-0.00000 0.50000 0.50000 1.20200
