data_crystal

_cell_length_a 28.54000
_cell_length_b 12.98300
_cell_length_c 15.83400
_cell_angle_alpha 90.00000
_cell_angle_beta  106.10400
_cell_angle_gamma 90.00000

_symmetry_space_group_name_	'P 1'
_symmetry_space_group_name_H-M	'P 1'

loop_
_symmetry_equiv_pos_as_xyz
  x,y,z

loop_
_atom_site_label
_atom_site_type_symbol
_atom_site_fract_x
_atom_site_fract_y
_atom_site_fract_z
_atom_site_charge
Zn	Zn	0.31811 0.36395 0.08244 1.22600
Zn	Zn	0.30689 0.10905 0.06775 1.22500
C 	C 	0.41965 0.21150 0.00260 -0.11100
C 	C 	0.43076 0.11540 0.97410 0.05200
H 	H 	0.43070 0.05810 0.00930 0.03600
C 	C 	0.44184 0.10260 0.89540 -0.11000
C 	C 	0.44020 0.18680 0.84260 0.07100
H 	H 	0.44710 0.17900 0.78890 0.05700
C 	C 	0.42860 0.28330 0.86770 -0.12300
C 	C 	0.41823 0.29450 0.94780 0.06300
H 	H 	0.41020 0.35920 0.96470 0.03700
C 	C 	0.45540 0.99740 0.86870 0.37400
C 	C 	0.42780 0.37400 0.81040 0.40300
C 	C 	0.28622 0.25310 0.79740 -0.05400
C 	C 	0.28840 0.16730 0.74720 0.01600
H 	H 	0.28360 0.10220 0.76790 0.06400
C 	C 	0.29762 0.17730 0.66600 -0.06900
C 	C 	0.30391 0.27450 0.63480 0.02100
H 	H 	0.30950 0.28160 0.57990 0.06700
C 	C 	0.30195 0.36110 0.68450 -0.06100
C 	C 	0.29273 0.34980 0.76480 0.00700
H 	H 	0.29080 0.40800 0.79790 0.06900
C 	C 	0.30083 0.08370 0.61270 0.32500
C 	C 	0.30967 0.46750 0.65370 0.30500
O 	O 	0.45856 0.21160 0.17570 -0.40600
O 	O 	0.38666 0.32530 0.11760 -0.41700
O 	O 	0.37623 0.12970 0.11670 -0.45400
O 	O 	0.44938 0.92010 0.90890 -0.27200
O 	O 	0.47273 0.99700 0.80420 -0.43600
O 	O 	0.43356 0.35180 0.73370 -0.43600
O 	O 	0.42310 0.46050 0.83230 -0.26300
O 	O 	0.29834 0.33700 0.95501 -0.47400
O 	O 	0.28850 0.14140 0.94277 -0.48400
O 	O 	0.21745 0.25830 0.88473 -0.56300
O 	O 	0.28876 0.99860 0.63900 -0.42700
O 	O 	0.31544 0.09030 0.54610 -0.30400
O 	O 	0.31593 0.47870 0.57800 -0.39700
O 	O 	0.31061 0.54360 0.70140 -0.33800
P 	P 	0.40904 0.21937 0.10915 0.45500
P 	P 	0.27331 0.24619 0.90248 0.43100
H 	H 	0.43400 0.40200 0.69800 0.26900
Zn	Zn	0.81811 0.86395 0.08244 1.22700
Zn	Zn	0.80689 0.60905 0.06775 1.22600
C 	C 	0.91965 0.71150 0.00260 -0.10100
C 	C 	0.93076 0.61540 0.97410 0.04600
H 	H 	0.93070 0.55810 0.00930 0.04400
C 	C 	0.94184 0.60260 0.89540 -0.09600
C 	C 	0.94020 0.68680 0.84260 0.06500
H 	H 	0.94710 0.67900 0.78890 0.06600
C 	C 	0.92860 0.78330 0.86770 -0.11200
C 	C 	0.91823 0.79450 0.94780 0.05900
H 	H 	0.91020 0.85920 0.96470 0.04200
C 	C 	0.95540 0.49740 0.86870 0.37000
C 	C 	0.92780 0.87400 0.81040 0.40300
C 	C 	0.78622 0.75310 0.79740 -0.05400
C 	C 	0.78840 0.66730 0.74720 0.01500
H 	H 	0.78360 0.60220 0.76790 0.06400
C 	C 	0.79762 0.67730 0.66600 -0.06800
C 	C 	0.80391 0.77450 0.63480 0.02100
H 	H 	0.80950 0.78160 0.57990 0.06800
C 	C 	0.80195 0.86110 0.68450 -0.06000
C 	C 	0.79273 0.84980 0.76480 0.00600
H 	H 	0.79080 0.90800 0.79790 0.07000
C 	C 	0.80083 0.58370 0.61270 0.32500
C 	C 	0.80967 0.96750 0.65370 0.30500
O 	O 	0.95856 0.71160 0.17570 -0.38500
O 	O 	0.88666 0.82530 0.11760 -0.41300
O 	O 	0.87623 0.62970 0.11670 -0.45200
O 	O 	0.94938 0.42010 0.90890 -0.25700
O 	O 	0.97273 0.49700 0.80420 -0.41300
O 	O 	0.93356 0.85180 0.73370 -0.43000
O 	O 	0.92310 0.96050 0.83230 -0.25400
O 	O 	0.79834 0.83700 0.95501 -0.47400
O 	O 	0.78850 0.64140 0.94277 -0.48400
O 	O 	0.71745 0.75830 0.88473 -0.56200
O 	O 	0.78876 0.49860 0.63900 -0.42700
O 	O 	0.81544 0.59030 0.54610 -0.30300
O 	O 	0.81593 0.97870 0.57800 -0.39500
O 	O 	0.81061 0.04360 0.70140 -0.33700
P 	P 	0.90904 0.71937 0.10915 0.45300
P 	P 	0.77331 0.74619 0.90248 0.43100
H 	H 	0.93400 0.90200 0.69800 0.27400
Zn	Zn	0.68189 0.36395 0.41756 1.22600
Zn	Zn	0.69311 0.10905 0.43225 1.22500
C 	C 	0.58035 0.21150 0.49740 -0.11500
C 	C 	0.56924 0.11540 0.52590 0.05600
H 	H 	0.56930 0.05810 0.49070 0.03300
C 	C 	0.55816 0.10260 0.60460 -0.11200
C 	C 	0.55980 0.18680 0.65740 0.07300
H 	H 	0.55290 0.17900 0.71110 0.05600
C 	C 	0.57140 0.28330 0.63230 -0.12400
C 	C 	0.58177 0.29450 0.55220 0.06600
H 	H 	0.58980 0.35920 0.53530 0.03600
C 	C 	0.54460 0.99740 0.63130 0.37500
C 	C 	0.57220 0.37400 0.68960 0.40400
C 	C 	0.71378 0.25310 0.70260 -0.05400
C 	C 	0.71160 0.16730 0.75280 0.01600
H 	H 	0.71640 0.10220 0.73210 0.06400
C 	C 	0.70238 0.17730 0.83400 -0.06900
C 	C 	0.69609 0.27450 0.86520 0.02100
H 	H 	0.69050 0.28160 0.92010 0.06700
C 	C 	0.69805 0.36110 0.81550 -0.06100
C 	C 	0.70727 0.34980 0.73520 0.00700
H 	H 	0.70920 0.40800 0.70210 0.06900
C 	C 	0.69917 0.08370 0.88730 0.32500
C 	C 	0.69033 0.46750 0.84630 0.30500
O 	O 	0.54144 0.21160 0.32430 -0.40600
O 	O 	0.61334 0.32530 0.38240 -0.41700
O 	O 	0.62377 0.12970 0.38330 -0.45500
O 	O 	0.55062 0.92010 0.59110 -0.27200
O 	O 	0.52727 0.99700 0.69580 -0.43700
O 	O 	0.56644 0.35180 0.76630 -0.43700
O 	O 	0.57690 0.46050 0.66770 -0.26300
O 	O 	0.70166 0.33700 0.54499 -0.47400
O 	O 	0.71150 0.14140 0.55723 -0.48300
O 	O 	0.78255 0.25830 0.61527 -0.56200
O 	O 	0.71124 0.99860 0.86100 -0.42700
O 	O 	0.68456 0.09030 0.95390 -0.30500
O 	O 	0.68407 0.47870 0.92200 -0.39700
O 	O 	0.68939 0.54360 0.79860 -0.33800
P 	P 	0.59096 0.21937 0.39085 0.45500
P 	P 	0.72669 0.24619 0.59752 0.43100
H 	H 	0.56600 0.40200 0.80200 0.26900
Zn	Zn	0.18189 0.86395 0.41756 1.22600
Zn	Zn	0.19311 0.60905 0.43225 1.22500
C 	C 	0.08035 0.71150 0.49740 -0.12300
C 	C 	0.06924 0.61540 0.52590 0.05900
H 	H 	0.06930 0.55810 0.49070 0.02700
C 	C 	0.05816 0.60260 0.60460 -0.12400
C 	C 	0.05980 0.68680 0.65740 0.07700
H 	H 	0.05290 0.67900 0.71110 0.04800
C 	C 	0.07140 0.78330 0.63230 -0.13400
C 	C 	0.08177 0.79450 0.55220 0.06900
H 	H 	0.08980 0.85920 0.53530 0.03200
C 	C 	0.04460 0.49740 0.63130 0.37700
C 	C 	0.07220 0.87400 0.68960 0.40400
C 	C 	0.21378 0.75310 0.70260 -0.05500
C 	C 	0.21160 0.66730 0.75280 0.01600
H 	H 	0.21640 0.60220 0.73210 0.06400
C 	C 	0.20238 0.67730 0.83400 -0.07000
C 	C 	0.19609 0.77450 0.86520 0.02200
H 	H 	0.19050 0.78160 0.92010 0.06600
C 	C 	0.19805 0.86110 0.81550 -0.06200
C 	C 	0.20727 0.84980 0.73520 0.00800
H 	H 	0.20920 0.90800 0.70210 0.06900
C 	C 	0.19917 0.58370 0.88730 0.32600
C 	C 	0.19033 0.96750 0.84630 0.30600
O 	O 	0.04144 0.71160 0.32430 -0.42100
O 	O 	0.11334 0.82530 0.38240 -0.42000
O 	O 	0.12377 0.62970 0.38330 -0.45600
O 	O 	0.05062 0.42010 0.59110 -0.28600
O 	O 	0.02727 0.49700 0.69580 -0.45400
O 	O 	0.06644 0.85180 0.76630 -0.44300
O 	O 	0.07690 0.96050 0.66770 -0.27100
O 	O 	0.20166 0.83700 0.54499 -0.47400
O 	O 	0.21150 0.64140 0.55723 -0.48300
O 	O 	0.28255 0.75830 0.61527 -0.56200
O 	O 	0.21124 0.49860 0.86100 -0.42800
O 	O 	0.18456 0.59030 0.95390 -0.30600
O 	O 	0.18407 0.97870 0.92200 -0.39800
O 	O 	0.18939 0.04360 0.79860 -0.33900
P 	P 	0.09096 0.71937 0.39085 0.45600
P 	P 	0.22669 0.74619 0.59752 0.43100
H 	H 	0.06600 0.90200 0.80200 0.26300
Zn	Zn	0.68189 0.63605 0.91756 1.22600
Zn	Zn	0.69311 0.89095 0.93225 1.22500
C 	C 	0.58035 0.78850 0.99740 -0.11500
C 	C 	0.56924 0.88460 0.02590 0.05700
H 	H 	0.56930 0.94190 0.99070 0.03300
C 	C 	0.55816 0.89740 0.10460 -0.11200
C 	C 	0.55980 0.81320 0.15740 0.07300
H 	H 	0.55290 0.82100 0.21110 0.05600
C 	C 	0.57140 0.71670 0.13230 -0.12500
C 	C 	0.58177 0.70550 0.05220 0.06700
H 	H 	0.58980 0.64080 0.03530 0.03600
C 	C 	0.54460 0.00260 0.13130 0.37500
C 	C 	0.57220 0.62600 0.18960 0.40400
C 	C 	0.71378 0.74690 0.20260 -0.05400
C 	C 	0.71160 0.83270 0.25280 0.01600
H 	H 	0.71640 0.89780 0.23210 0.06400
C 	C 	0.70238 0.82270 0.33400 -0.06900
C 	C 	0.69609 0.72550 0.36520 0.02100
H 	H 	0.69050 0.71840 0.42010 0.06700
C 	C 	0.69805 0.63890 0.31550 -0.06100
C 	C 	0.70727 0.65020 0.23520 0.00700
H 	H 	0.70920 0.59200 0.20210 0.06900
C 	C 	0.69917 0.91630 0.38730 0.32600
C 	C 	0.69033 0.53250 0.34630 0.30500
O 	O 	0.54144 0.78840 0.82430 -0.40600
O 	O 	0.61334 0.67470 0.88240 -0.41700
O 	O 	0.62377 0.87030 0.88330 -0.45500
O 	O 	0.55062 0.07990 0.09110 -0.27200
O 	O 	0.52727 0.00300 0.19580 -0.43700
O 	O 	0.56644 0.64820 0.26630 -0.43700
O 	O 	0.57690 0.53950 0.16770 -0.26300
O 	O 	0.70166 0.66300 0.04499 -0.47400
O 	O 	0.71150 0.85860 0.05723 -0.48300
O 	O 	0.78255 0.74170 0.11527 -0.56200
O 	O 	0.71124 0.00140 0.36100 -0.42800
O 	O 	0.68456 0.90970 0.45390 -0.30400
O 	O 	0.68407 0.52130 0.42200 -0.39700
O 	O 	0.68939 0.45640 0.29860 -0.33800
P 	P 	0.59096 0.78063 0.89085 0.45500
P 	P 	0.72669 0.75381 0.09752 0.43100
H 	H 	0.56600 0.59800 0.30200 0.26900
Zn	Zn	0.18189 0.13605 0.91756 1.22600
Zn	Zn	0.19311 0.39095 0.93225 1.22500
C 	C 	0.08035 0.28850 0.99740 -0.12900
C 	C 	0.06924 0.38460 0.02590 0.06800
H 	H 	0.06930 0.44190 0.99070 0.02300
C 	C 	0.05816 0.39740 0.10460 -0.12800
C 	C 	0.05980 0.31320 0.15740 0.08100
H 	H 	0.05290 0.32100 0.21110 0.04700
C 	C 	0.07140 0.21670 0.13230 -0.13700
C 	C 	0.08177 0.20550 0.05220 0.07500
H 	H 	0.08980 0.14080 0.03530 0.03000
C 	C 	0.04460 0.50260 0.13130 0.37900
C 	C 	0.07220 0.12600 0.18960 0.40500
C 	C 	0.21378 0.24690 0.20260 -0.05400
C 	C 	0.21160 0.33270 0.25280 0.01600
H 	H 	0.21640 0.39780 0.23210 0.06400
C 	C 	0.20238 0.32270 0.33400 -0.07000
C 	C 	0.19609 0.22550 0.36520 0.02200
H 	H 	0.19050 0.21840 0.42010 0.06600
C 	C 	0.19805 0.13890 0.31550 -0.06100
C 	C 	0.20727 0.15020 0.23520 0.00700
H 	H 	0.20920 0.09200 0.20210 0.06900
C 	C 	0.19917 0.41630 0.38730 0.32600
C 	C 	0.19033 0.03250 0.34630 0.30600
O 	O 	0.04144 0.28840 0.82430 -0.42100
O 	O 	0.11334 0.17470 0.88240 -0.42100
O 	O 	0.12377 0.37030 0.88330 -0.45600
O 	O 	0.05062 0.57990 0.09110 -0.28600
O 	O 	0.02727 0.50300 0.19580 -0.45400
O 	O 	0.06644 0.14820 0.26630 -0.44300
O 	O 	0.07690 0.03950 0.16770 -0.27100
O 	O 	0.20166 0.16300 0.04499 -0.47300
O 	O 	0.21150 0.35860 0.05723 -0.48300
O 	O 	0.28255 0.24170 0.11527 -0.56200
O 	O 	0.21124 0.50140 0.36100 -0.42800
O 	O 	0.18456 0.40970 0.45390 -0.30600
O 	O 	0.18407 0.02130 0.42200 -0.39800
O 	O 	0.18939 0.95640 0.29860 -0.33900
P 	P 	0.09096 0.28063 0.89085 0.45700
P 	P 	0.22669 0.25381 0.09752 0.43100
H 	H 	0.06600 0.09800 0.30200 0.26300
Zn	Zn	0.31811 0.63605 0.58244 1.22600
Zn	Zn	0.30689 0.89095 0.56775 1.22500
C 	C 	0.41965 0.78850 0.50260 -0.11500
C 	C 	0.43076 0.88460 0.47410 0.05600
H 	H 	0.43070 0.94190 0.50930 0.03400
C 	C 	0.44184 0.89740 0.39540 -0.11200
C 	C 	0.44020 0.81320 0.34260 0.07200
H 	H 	0.44710 0.82100 0.28890 0.05600
C 	C 	0.42860 0.71670 0.36770 -0.12400
C 	C 	0.41823 0.70550 0.44780 0.06600
H 	H 	0.41020 0.64080 0.46470 0.03600
C 	C 	0.45540 0.00260 0.36870 0.37500
C 	C 	0.42780 0.62600 0.31040 0.40400
C 	C 	0.28622 0.74690 0.29740 -0.05400
C 	C 	0.28840 0.83270 0.24720 0.01500
H 	H 	0.28360 0.89780 0.26790 0.06400
C 	C 	0.29762 0.82270 0.16600 -0.06900
C 	C 	0.30391 0.72550 0.13480 0.02100
H 	H 	0.30950 0.71840 0.07990 0.06700
C 	C 	0.30195 0.63890 0.18450 -0.06000
C 	C 	0.29273 0.65020 0.26480 0.00700
H 	H 	0.29080 0.59200 0.29790 0.07000
C 	C 	0.30083 0.91630 0.11270 0.32500
C 	C 	0.30967 0.53250 0.15370 0.30500
O 	O 	0.45856 0.78840 0.67570 -0.40600
O 	O 	0.38666 0.67470 0.61760 -0.41700
O 	O 	0.37623 0.87030 0.61670 -0.45400
O 	O 	0.44938 0.07990 0.40890 -0.27200
O 	O 	0.47273 0.00300 0.30420 -0.43600
O 	O 	0.43356 0.64820 0.23370 -0.43700
O 	O 	0.42310 0.53950 0.33230 -0.26300
O 	O 	0.29834 0.66300 0.45501 -0.47400
O 	O 	0.28850 0.85860 0.44277 -0.48300
O 	O 	0.21745 0.74170 0.38473 -0.56200
O 	O 	0.28876 0.00140 0.13900 -0.42700
O 	O 	0.31544 0.90970 0.04610 -0.30400
O 	O 	0.31593 0.52130 0.07800 -0.39600
O 	O 	0.31061 0.45640 0.20140 -0.33800
P 	P 	0.40904 0.78063 0.60915 0.45500
P 	P 	0.27331 0.75381 0.40248 0.43100
H 	H 	0.43400 0.59800 0.19800 0.26900
Zn	Zn	0.81811 0.13605 0.58244 1.22700
Zn	Zn	0.80689 0.39095 0.56775 1.22500
C 	C 	0.91965 0.28850 0.50260 -0.10500
C 	C 	0.93076 0.38460 0.47410 0.05200
H 	H 	0.93070 0.44190 0.50930 0.04100
C 	C 	0.94184 0.39740 0.39540 -0.09800
C 	C 	0.94020 0.31320 0.34260 0.06700
H 	H 	0.94710 0.32100 0.28890 0.06500
C 	C 	0.92860 0.21670 0.36770 -0.11400
C 	C 	0.91823 0.20550 0.44780 0.06200
H 	H 	0.91020 0.14080 0.46470 0.04100
C 	C 	0.95540 0.50260 0.36870 0.37100
C 	C 	0.92780 0.12600 0.31040 0.40300
C 	C 	0.78622 0.24690 0.29740 -0.05400
C 	C 	0.78840 0.33270 0.24720 0.01500
H 	H 	0.78360 0.39780 0.26790 0.06400
C 	C 	0.79762 0.32270 0.16600 -0.06800
C 	C 	0.80391 0.22550 0.13480 0.02000
H 	H 	0.80950 0.21840 0.07990 0.06800
C 	C 	0.80195 0.13890 0.18450 -0.06000
C 	C 	0.79273 0.15020 0.26480 0.00600
H 	H 	0.79080 0.09200 0.29790 0.07000
C 	C 	0.80083 0.41630 0.11270 0.32500
C 	C 	0.80967 0.03250 0.15370 0.30500
O 	O 	0.95856 0.28840 0.67570 -0.38500
O 	O 	0.88666 0.17470 0.61760 -0.41300
O 	O 	0.87623 0.37030 0.61670 -0.45200
O 	O 	0.94938 0.57990 0.40890 -0.25700
O 	O 	0.97273 0.50300 0.30420 -0.41300
O 	O 	0.93356 0.14820 0.23370 -0.43000
O 	O 	0.92310 0.03950 0.33230 -0.25400
O 	O 	0.79834 0.16300 0.45501 -0.47400
O 	O 	0.78850 0.35860 0.44277 -0.48300
O 	O 	0.71745 0.24170 0.38473 -0.56200
O 	O 	0.78876 0.50140 0.13900 -0.42700
O 	O 	0.81544 0.40970 0.04610 -0.30200
O 	O 	0.81593 0.02130 0.07800 -0.39500
O 	O 	0.81061 0.95640 0.20140 -0.33700
P 	P 	0.90904 0.28063 0.60915 0.45400
P 	P 	0.77331 0.25381 0.40248 0.43100
H 	H 	0.93400 0.09800 0.19800 0.27400
Zn	Zn	0.50000 0.11321 0.25000 1.25000
Zn	Zn	0.00000 0.61321 0.25000 1.23600
Zn	Zn	0.50000 0.88679 0.75000 1.25000
Zn	Zn	0.00000 0.38679 0.75000 1.23600
