data_crystal

_cell_length_a 18.45000
_cell_length_b 18.45000
_cell_length_c 23.20100
_cell_angle_alpha 90.00000
_cell_angle_beta  90.00000
_cell_angle_gamma 90.00000

_symmetry_space_group_name_	'P 1'
_symmetry_space_group_name_H-M	'P 1'

loop_
_symmetry_equiv_pos_as_xyz
  x,y,z

loop_
_atom_site_label
_atom_site_type_symbol
_atom_site_fract_x
_atom_site_fract_y
_atom_site_fract_z
_atom_site_charge
Zn	Zn	0.73032 0.72482 0.97313 1.23800
C 	C 	0.54530 0.73500 0.85280 -0.07500
C 	C 	0.50290 0.73110 0.90350 0.03900
H 	H 	0.52560 0.73260 0.93930 0.04600
C 	C 	0.42840 0.72510 0.90080 -0.10100
C 	C 	0.39460 0.72470 0.84840 0.06500
H 	H 	0.34430 0.72140 0.84670 0.04400
C 	C 	0.43420 0.72900 0.79760 -0.13400
C 	C 	0.50900 0.73340 0.80060 0.05700
H 	H 	0.53550 0.73540 0.76660 0.04300
C 	C 	0.38660 0.72300 0.95620 0.34300
C 	C 	0.39480 0.72830 0.74100 0.43000
O 	O 	0.65870 0.82220 0.86190 -0.47000
O 	O 	0.66360 0.70240 0.91350 -0.44600
O 	O 	0.67270 0.70710 0.80470 -0.42800
O 	O 	0.31770 0.72140 0.95090 -0.42800
O 	O 	0.41730 0.72740 0.00210 -0.30000
O 	O 	0.32920 0.72030 0.74240 -0.51900
O 	O 	0.43220 0.73960 0.69570 -0.45900
P 	P 	0.64134 0.74269 0.85834 0.44400
Zn	Zn	0.23032 0.22482 0.47313 1.23800
C 	C 	0.04530 0.23500 0.35280 -0.07500
C 	C 	0.00290 0.23110 0.40350 0.03900
H 	H 	0.02560 0.23260 0.43930 0.04600
C 	C 	0.92840 0.22510 0.40080 -0.10100
C 	C 	0.89460 0.22470 0.34840 0.06500
H 	H 	0.84430 0.22140 0.34670 0.04400
C 	C 	0.93420 0.22900 0.29760 -0.13400
C 	C 	0.00900 0.23340 0.30060 0.05700
H 	H 	0.03550 0.23540 0.26660 0.04300
C 	C 	0.88660 0.22300 0.45620 0.34200
C 	C 	0.89480 0.22830 0.24100 0.43000
O 	O 	0.15870 0.32220 0.36190 -0.47000
O 	O 	0.16360 0.20240 0.41350 -0.44600
O 	O 	0.17270 0.20710 0.30470 -0.42800
O 	O 	0.81770 0.22140 0.45090 -0.42800
O 	O 	0.91730 0.22740 0.50210 -0.30000
O 	O 	0.82920 0.22030 0.24240 -0.51900
O 	O 	0.93220 0.23960 0.19570 -0.45900
P 	P 	0.14134 0.24269 0.35834 0.44400
Zn	Zn	0.26968 0.27518 0.97313 1.23800
C 	C 	0.45470 0.26500 0.85280 -0.07500
C 	C 	0.49710 0.26890 0.90350 0.03900
H 	H 	0.47440 0.26740 0.93930 0.04600
C 	C 	0.57160 0.27490 0.90080 -0.10100
C 	C 	0.60540 0.27530 0.84840 0.06500
H 	H 	0.65570 0.27860 0.84670 0.04400
C 	C 	0.56580 0.27100 0.79760 -0.13400
C 	C 	0.49100 0.26660 0.80060 0.05700
H 	H 	0.46450 0.26460 0.76660 0.04300
C 	C 	0.61340 0.27700 0.95620 0.34300
C 	C 	0.60520 0.27170 0.74100 0.43000
O 	O 	0.34130 0.17780 0.86190 -0.47000
O 	O 	0.33640 0.29760 0.91350 -0.44600
O 	O 	0.32730 0.29290 0.80470 -0.42800
O 	O 	0.68230 0.27860 0.95090 -0.42800
O 	O 	0.58270 0.27260 0.00210 -0.30000
O 	O 	0.67080 0.27970 0.74240 -0.51900
O 	O 	0.56780 0.26040 0.69570 -0.45900
P 	P 	0.35866 0.25731 0.85834 0.44400
Zn	Zn	0.76968 0.77518 0.47313 1.23800
C 	C 	0.95470 0.76500 0.35280 -0.07500
C 	C 	0.99710 0.76890 0.40350 0.03900
H 	H 	0.97440 0.76740 0.43930 0.04600
C 	C 	0.07160 0.77490 0.40080 -0.10100
C 	C 	0.10540 0.77530 0.34840 0.06500
H 	H 	0.15570 0.77860 0.34670 0.04400
C 	C 	0.06580 0.77100 0.29760 -0.13400
C 	C 	0.99100 0.76660 0.30060 0.05700
H 	H 	0.96450 0.76460 0.26660 0.04300
C 	C 	0.11340 0.77700 0.45620 0.34200
C 	C 	0.10520 0.77170 0.24100 0.43000
O 	O 	0.84130 0.67780 0.36190 -0.47000
O 	O 	0.83640 0.79760 0.41350 -0.44600
O 	O 	0.82730 0.79290 0.30470 -0.42800
O 	O 	0.18230 0.77860 0.45090 -0.42800
O 	O 	0.08270 0.77260 0.50210 -0.30000
O 	O 	0.17080 0.77970 0.24240 -0.51900
O 	O 	0.06780 0.76040 0.19570 -0.45900
P 	P 	0.85866 0.75731 0.35834 0.44400
Zn	Zn	0.72482 0.26968 0.02687 1.23800
C 	C 	0.73500 0.45470 0.14720 -0.07500
C 	C 	0.73110 0.49710 0.09650 0.03900
H 	H 	0.73260 0.47440 0.06070 0.04600
C 	C 	0.72510 0.57160 0.09920 -0.10100
C 	C 	0.72470 0.60540 0.15160 0.06500
H 	H 	0.72140 0.65570 0.15330 0.04400
C 	C 	0.72900 0.56580 0.20240 -0.13400
C 	C 	0.73340 0.49100 0.19940 0.05700
H 	H 	0.73540 0.46450 0.23340 0.04300
C 	C 	0.72300 0.61340 0.04380 0.34300
C 	C 	0.72830 0.60520 0.25900 0.43000
O 	O 	0.82220 0.34130 0.13810 -0.47000
O 	O 	0.70240 0.33640 0.08650 -0.44600
O 	O 	0.70710 0.32730 0.19530 -0.42800
O 	O 	0.72140 0.68230 0.04910 -0.42800
O 	O 	0.72740 0.58270 0.99790 -0.30000
O 	O 	0.72030 0.67080 0.25760 -0.51900
O 	O 	0.73960 0.56780 0.30430 -0.45900
P 	P 	0.74269 0.35866 0.14166 0.44400
Zn	Zn	0.22482 0.76968 0.52687 1.23800
C 	C 	0.23500 0.95470 0.64720 -0.07500
C 	C 	0.23110 0.99710 0.59650 0.03900
H 	H 	0.23260 0.97440 0.56070 0.04600
C 	C 	0.22510 0.07160 0.59920 -0.10100
C 	C 	0.22470 0.10540 0.65160 0.06500
H 	H 	0.22140 0.15570 0.65330 0.04400
C 	C 	0.22900 0.06580 0.70240 -0.13400
C 	C 	0.23340 0.99100 0.69940 0.05700
H 	H 	0.23540 0.96450 0.73340 0.04300
C 	C 	0.22300 0.11340 0.54380 0.34200
C 	C 	0.22830 0.10520 0.75900 0.43000
O 	O 	0.32220 0.84130 0.63810 -0.47000
O 	O 	0.20240 0.83640 0.58650 -0.44600
O 	O 	0.20710 0.82730 0.69530 -0.42800
O 	O 	0.22140 0.18230 0.54910 -0.42800
O 	O 	0.22740 0.08270 0.49790 -0.30000
O 	O 	0.22030 0.17080 0.75760 -0.51900
O 	O 	0.23960 0.06780 0.80430 -0.45900
P 	P 	0.24269 0.85866 0.64166 0.44400
Zn	Zn	0.27518 0.73032 0.02687 1.23800
C 	C 	0.26500 0.54530 0.14720 -0.07500
C 	C 	0.26890 0.50290 0.09650 0.03900
H 	H 	0.26740 0.52560 0.06070 0.04600
C 	C 	0.27490 0.42840 0.09920 -0.10100
C 	C 	0.27530 0.39460 0.15160 0.06500
H 	H 	0.27860 0.34430 0.15330 0.04400
C 	C 	0.27100 0.43420 0.20240 -0.13400
C 	C 	0.26660 0.50900 0.19940 0.05700
H 	H 	0.26460 0.53550 0.23340 0.04300
C 	C 	0.27700 0.38660 0.04380 0.34300
C 	C 	0.27170 0.39480 0.25900 0.43000
O 	O 	0.17780 0.65870 0.13810 -0.47000
O 	O 	0.29760 0.66360 0.08650 -0.44600
O 	O 	0.29290 0.67270 0.19530 -0.42800
O 	O 	0.27860 0.31770 0.04910 -0.42800
O 	O 	0.27260 0.41730 0.99790 -0.30000
O 	O 	0.27970 0.32920 0.25760 -0.51900
O 	O 	0.26040 0.43220 0.30430 -0.45900
P 	P 	0.25731 0.64134 0.14166 0.44400
Zn	Zn	0.77518 0.23032 0.52687 1.23800
C 	C 	0.76500 0.04530 0.64720 -0.07500
C 	C 	0.76890 0.00290 0.59650 0.03900
H 	H 	0.76740 0.02560 0.56070 0.04600
C 	C 	0.77490 0.92840 0.59920 -0.10100
C 	C 	0.77530 0.89460 0.65160 0.06500
H 	H 	0.77860 0.84430 0.65330 0.04400
C 	C 	0.77100 0.93420 0.70240 -0.13400
C 	C 	0.76660 0.00900 0.69940 0.05700
H 	H 	0.76460 0.03550 0.73340 0.04300
C 	C 	0.77700 0.88660 0.54380 0.34200
C 	C 	0.77170 0.89480 0.75900 0.43000
O 	O 	0.67780 0.15870 0.63810 -0.47000
O 	O 	0.79760 0.16360 0.58650 -0.44600
O 	O 	0.79290 0.17270 0.69530 -0.42800
O 	O 	0.77860 0.81770 0.54910 -0.42800
O 	O 	0.77260 0.91730 0.49790 -0.30000
O 	O 	0.77970 0.82920 0.75760 -0.51900
O 	O 	0.76040 0.93220 0.80430 -0.45900
P 	P 	0.75731 0.14134 0.64166 0.44400
Zn	Zn	0.76968 0.72482 0.77687 1.23800
C 	C 	0.95470 0.73500 0.89720 -0.07500
C 	C 	0.99710 0.73110 0.84650 0.03900
H 	H 	0.97440 0.73260 0.81070 0.04600
C 	C 	0.07160 0.72510 0.84920 -0.10100
C 	C 	0.10540 0.72470 0.90160 0.06500
H 	H 	0.15570 0.72140 0.90330 0.04400
C 	C 	0.06580 0.72900 0.95240 -0.13400
C 	C 	0.99100 0.73340 0.94940 0.05700
H 	H 	0.96450 0.73540 0.98340 0.04300
C 	C 	0.11340 0.72300 0.79380 0.34200
C 	C 	0.10520 0.72830 0.00900 0.43000
O 	O 	0.84130 0.82220 0.88810 -0.47000
O 	O 	0.83640 0.70240 0.83650 -0.44600
O 	O 	0.82730 0.70710 0.94530 -0.42800
O 	O 	0.18230 0.72140 0.79910 -0.42800
O 	O 	0.08270 0.72740 0.74790 -0.30000
O 	O 	0.17080 0.72030 0.00760 -0.51900
O 	O 	0.06780 0.73960 0.05430 -0.45900
P 	P 	0.85866 0.74269 0.89166 0.44400
Zn	Zn	0.26968 0.22482 0.27687 1.23800
C 	C 	0.45470 0.23500 0.39720 -0.07500
C 	C 	0.49710 0.23110 0.34650 0.03900
H 	H 	0.47440 0.23260 0.31070 0.04600
C 	C 	0.57160 0.22510 0.34920 -0.10100
C 	C 	0.60540 0.22470 0.40160 0.06500
H 	H 	0.65570 0.22140 0.40330 0.04400
C 	C 	0.56580 0.22900 0.45240 -0.13400
C 	C 	0.49100 0.23340 0.44940 0.05700
H 	H 	0.46450 0.23540 0.48340 0.04300
C 	C 	0.61340 0.22300 0.29380 0.34300
C 	C 	0.60520 0.22830 0.50900 0.43000
O 	O 	0.34130 0.32220 0.38810 -0.47000
O 	O 	0.33640 0.20240 0.33650 -0.44600
O 	O 	0.32730 0.20710 0.44530 -0.42800
O 	O 	0.68230 0.22140 0.29910 -0.42800
O 	O 	0.58270 0.22740 0.24790 -0.30000
O 	O 	0.67080 0.22030 0.50760 -0.51900
O 	O 	0.56780 0.23960 0.55430 -0.45900
P 	P 	0.35866 0.24269 0.39166 0.44400
Zn	Zn	0.23032 0.27518 0.77687 1.23800
C 	C 	0.04530 0.26500 0.89720 -0.07500
C 	C 	0.00290 0.26890 0.84650 0.03900
H 	H 	0.02560 0.26740 0.81070 0.04600
C 	C 	0.92840 0.27490 0.84920 -0.10100
C 	C 	0.89460 0.27530 0.90160 0.06500
H 	H 	0.84430 0.27860 0.90330 0.04400
C 	C 	0.93420 0.27100 0.95240 -0.13400
C 	C 	0.00900 0.26660 0.94940 0.05700
H 	H 	0.03550 0.26460 0.98340 0.04300
C 	C 	0.88660 0.27700 0.79380 0.34200
C 	C 	0.89480 0.27170 0.00900 0.43000
O 	O 	0.15870 0.17780 0.88810 -0.47000
O 	O 	0.16360 0.29760 0.83650 -0.44600
O 	O 	0.17270 0.29290 0.94530 -0.42800
O 	O 	0.81770 0.27860 0.79910 -0.42800
O 	O 	0.91730 0.27260 0.74790 -0.30000
O 	O 	0.82920 0.27970 0.00760 -0.51900
O 	O 	0.93220 0.26040 0.05430 -0.45900
P 	P 	0.14134 0.25731 0.89166 0.44400
Zn	Zn	0.73032 0.77518 0.27687 1.23800
C 	C 	0.54530 0.76500 0.39720 -0.07500
C 	C 	0.50290 0.76890 0.34650 0.03900
H 	H 	0.52560 0.76740 0.31070 0.04600
C 	C 	0.42840 0.77490 0.34920 -0.10100
C 	C 	0.39460 0.77530 0.40160 0.06500
H 	H 	0.34430 0.77860 0.40330 0.04400
C 	C 	0.43420 0.77100 0.45240 -0.13400
C 	C 	0.50900 0.76660 0.44940 0.05700
H 	H 	0.53550 0.76460 0.48340 0.04300
C 	C 	0.38660 0.77700 0.29380 0.34300
C 	C 	0.39480 0.77170 0.50900 0.43000
O 	O 	0.65870 0.67780 0.38810 -0.47000
O 	O 	0.66360 0.79760 0.33650 -0.44600
O 	O 	0.67270 0.79290 0.44530 -0.42800
O 	O 	0.31770 0.77860 0.29910 -0.42800
O 	O 	0.41730 0.77260 0.24790 -0.30000
O 	O 	0.32920 0.77970 0.50760 -0.51900
O 	O 	0.43220 0.76040 0.55430 -0.45900
P 	P 	0.64134 0.75731 0.39166 0.44400
Zn	Zn	0.77518 0.26968 0.72313 1.23800
C 	C 	0.76500 0.45470 0.60280 -0.07500
C 	C 	0.76890 0.49710 0.65350 0.03900
H 	H 	0.76740 0.47440 0.68930 0.04600
C 	C 	0.77490 0.57160 0.65080 -0.10100
C 	C 	0.77530 0.60540 0.59840 0.06500
H 	H 	0.77860 0.65570 0.59670 0.04400
C 	C 	0.77100 0.56580 0.54760 -0.13400
C 	C 	0.76660 0.49100 0.55060 0.05700
H 	H 	0.76460 0.46450 0.51660 0.04300
C 	C 	0.77700 0.61340 0.70620 0.34300
C 	C 	0.77170 0.60520 0.49100 0.43000
O 	O 	0.67780 0.34130 0.61190 -0.47000
O 	O 	0.79760 0.33640 0.66350 -0.44600
O 	O 	0.79290 0.32730 0.55470 -0.42800
O 	O 	0.77860 0.68230 0.70090 -0.42800
O 	O 	0.77260 0.58270 0.75210 -0.30000
O 	O 	0.77970 0.67080 0.49240 -0.51900
O 	O 	0.76040 0.56780 0.44570 -0.45900
P 	P 	0.75731 0.35866 0.60834 0.44400
Zn	Zn	0.27518 0.76968 0.22313 1.23800
C 	C 	0.26500 0.95470 0.10280 -0.07500
C 	C 	0.26890 0.99710 0.15350 0.03900
H 	H 	0.26740 0.97440 0.18930 0.04600
C 	C 	0.27490 0.07160 0.15080 -0.10100
C 	C 	0.27530 0.10540 0.09840 0.06500
H 	H 	0.27860 0.15570 0.09670 0.04400
C 	C 	0.27100 0.06580 0.04760 -0.13400
C 	C 	0.26660 0.99100 0.05060 0.05700
H 	H 	0.26460 0.96450 0.01660 0.04300
C 	C 	0.27700 0.11340 0.20620 0.34200
C 	C 	0.27170 0.10520 0.99100 0.43000
O 	O 	0.17780 0.84130 0.11190 -0.47000
O 	O 	0.29760 0.83640 0.16350 -0.44600
O 	O 	0.29290 0.82730 0.05470 -0.42800
O 	O 	0.27860 0.18230 0.20090 -0.42800
O 	O 	0.27260 0.08270 0.25210 -0.30000
O 	O 	0.27970 0.17080 0.99240 -0.51900
O 	O 	0.26040 0.06780 0.94570 -0.45900
P 	P 	0.25731 0.85866 0.10834 0.44400
Zn	Zn	0.22482 0.73032 0.72313 1.23800
C 	C 	0.23500 0.54530 0.60280 -0.07500
C 	C 	0.23110 0.50290 0.65350 0.03900
H 	H 	0.23260 0.52560 0.68930 0.04600
C 	C 	0.22510 0.42840 0.65080 -0.10100
C 	C 	0.22470 0.39460 0.59840 0.06500
H 	H 	0.22140 0.34430 0.59670 0.04400
C 	C 	0.22900 0.43420 0.54760 -0.13400
C 	C 	0.23340 0.50900 0.55060 0.05700
H 	H 	0.23540 0.53550 0.51660 0.04300
C 	C 	0.22300 0.38660 0.70620 0.34300
C 	C 	0.22830 0.39480 0.49100 0.43000
O 	O 	0.32220 0.65870 0.61190 -0.47000
O 	O 	0.20240 0.66360 0.66350 -0.44600
O 	O 	0.20710 0.67270 0.55470 -0.42800
O 	O 	0.22140 0.31770 0.70090 -0.42800
O 	O 	0.22740 0.41730 0.75210 -0.30000
O 	O 	0.22030 0.32920 0.49240 -0.51900
O 	O 	0.23960 0.43220 0.44570 -0.45900
P 	P 	0.24269 0.64134 0.60834 0.44400
Zn	Zn	0.72482 0.23032 0.22313 1.23800
C 	C 	0.73500 0.04530 0.10280 -0.07500
C 	C 	0.73110 0.00290 0.15350 0.03900
H 	H 	0.73260 0.02560 0.18930 0.04600
C 	C 	0.72510 0.92840 0.15080 -0.10100
C 	C 	0.72470 0.89460 0.09840 0.06500
H 	H 	0.72140 0.84430 0.09670 0.04400
C 	C 	0.72900 0.93420 0.04760 -0.13400
C 	C 	0.73340 0.00900 0.05060 0.05700
H 	H 	0.73540 0.03550 0.01660 0.04300
C 	C 	0.72300 0.88660 0.20620 0.34200
C 	C 	0.72830 0.89480 0.99100 0.43000
O 	O 	0.82220 0.15870 0.11190 -0.47000
O 	O 	0.70240 0.16360 0.16350 -0.44600
O 	O 	0.70710 0.17270 0.05470 -0.42800
O 	O 	0.72140 0.81770 0.20090 -0.42800
O 	O 	0.72740 0.91730 0.25210 -0.30000
O 	O 	0.72030 0.82920 0.99240 -0.51900
O 	O 	0.73960 0.93220 0.94570 -0.45900
P 	P 	0.74269 0.14134 0.10834 0.44400
Zn	Zn	0.75000 0.87295 0.87500 1.22300
Zn	Zn	0.25000 0.37295 0.37500 1.22300
Zn	Zn	0.25000 0.12705 0.87500 1.22300
Zn	Zn	0.75000 0.62705 0.37500 1.22300
Zn	Zn	0.87295 0.25000 0.12500 1.22300
Zn	Zn	0.12705 0.75000 0.12500 1.22300
Zn	Zn	0.62705 0.25000 0.62500 1.22300
Zn	Zn	0.37295 0.75000 0.62500 1.22300
