data_crystal

_cell_length_a 10.40210
_cell_length_b 10.54100
_cell_length_c 6.28320
_cell_angle_alpha 90.00000
_cell_angle_beta  115.06000
_cell_angle_gamma 90.00000

_symmetry_space_group_name_	'P 1'
_symmetry_space_group_name_H-M	'P 1'

loop_
_symmetry_equiv_pos_as_xyz
  x,y,z

loop_
_atom_site_label
_atom_site_type_symbol
_atom_site_fract_x
_atom_site_fract_y
_atom_site_fract_z
_atom_site_charge
C 	C 	0.31670 0.21050 0.54590 -0.07700
H 	H 	0.39750 0.26520 0.57550 0.01100
H 	H 	0.32950 0.17220 0.69390 -0.02000
N 	N 	0.31230 0.11020 0.38080 -0.28100
H 	H 	0.29780 0.14600 0.24240 0.03900
H 	H 	0.23830 0.05880 0.35610 0.03100
C 	C 	0.81670 0.71050 0.54590 -0.08000
H 	H 	0.89750 0.76520 0.57550 0.05000
H 	H 	0.82950 0.67220 0.69390 0.01600
N 	N 	0.81230 0.61020 0.38080 -0.27200
H 	H 	0.79780 0.64600 0.24240 0.07200
H 	H 	0.73830 0.55880 0.35610 0.07300
C 	C 	0.68330 0.21050 0.95410 0.06700
H 	H 	0.60250 0.26520 0.92450 -0.02400
H 	H 	0.67050 0.17220 0.80610 -0.05600
N 	N 	0.68770 0.11020 0.11920 -0.32300
H 	H 	0.70220 0.14600 0.25760 0.06300
H 	H 	0.76170 0.05880 0.14390 0.05800
C 	C 	0.18330 0.71050 0.95410 0.07300
H 	H 	0.10250 0.76520 0.92450 -0.04000
H 	H 	0.17050 0.67220 0.80610 -0.05900
N 	N 	0.18770 0.61020 0.11920 -0.32600
H 	H 	0.20220 0.64600 0.25760 0.06500
H 	H 	0.26170 0.55880 0.14390 0.07100
C 	C 	0.68330 0.78950 0.45410 -0.01800
H 	H 	0.60250 0.73480 0.42450 -0.00200
H 	H 	0.67050 0.82780 0.30610 -0.01000
N 	N 	0.68770 0.88980 0.61920 -0.29600
H 	H 	0.70220 0.85400 0.75760 0.09800
H 	H 	0.76170 0.94120 0.64390 0.12100
C 	C 	0.18330 0.28950 0.45410 -0.01300
H 	H 	0.10250 0.23480 0.42450 -0.04100
H 	H 	0.17050 0.32780 0.30610 -0.04700
N 	N 	0.18770 0.38980 0.61920 -0.30500
H 	H 	0.20220 0.35400 0.75760 0.06500
H 	H 	0.26170 0.44120 0.64390 0.07900
C 	C 	0.31670 0.78950 0.04590 -0.16100
H 	H 	0.39750 0.73480 0.07550 0.03400
H 	H 	0.32950 0.82780 0.19390 0.02500
N 	N 	0.31230 0.88980 0.88080 -0.25100
H 	H 	0.29780 0.85400 0.74240 0.07400
H 	H 	0.23830 0.94120 0.85610 0.09400
C 	C 	0.81670 0.28950 0.04590 -0.16600
H 	H 	0.89750 0.23480 0.07550 0.05000
H 	H 	0.82950 0.32780 0.19390 0.02800
N 	N 	0.81230 0.38980 0.88080 -0.24800
H 	H 	0.79780 0.35400 0.74240 0.07100
H 	H 	0.73830 0.44120 0.85610 0.08000
Ag	Ag	0.50000 0.00000 0.50000 0.41000
Ag	Ag	0.00000 0.50000 0.50000 0.41200
Ag	Ag	0.50000 0.00000 -0.00000 0.39200
Ag	Ag	-0.00000 0.50000 -0.00000 0.39400
