data_crystal

_cell_length_a 10.23630
_cell_length_b 10.65040
_cell_length_c 6.22250
_cell_angle_alpha 90.00000
_cell_angle_beta  114.52200
_cell_angle_gamma 90.00000

_symmetry_space_group_name_	'P 1'
_symmetry_space_group_name_H-M	'P 1'

loop_
_symmetry_equiv_pos_as_xyz
  x,y,z

loop_
_atom_site_label
_atom_site_type_symbol
_atom_site_fract_x
_atom_site_fract_y
_atom_site_fract_z
_atom_site_charge
C 	C 	0.31790 0.21090 0.54550 -0.07100
H 	H 	0.40090 0.26570 0.56960 0.01100
H 	H 	0.33300 0.17420 0.70020 -0.01800
N 	N 	0.31070 0.10910 0.38010 -0.27300
H 	H 	0.29490 0.14350 0.23580 0.03200
H 	H 	0.23400 0.05780 0.35950 0.02500
C 	C 	0.81790 0.71090 0.54550 -0.07400
H 	H 	0.90090 0.76570 0.56960 0.04900
H 	H 	0.83300 0.67420 0.70020 0.01500
N 	N 	0.81070 0.60910 0.38010 -0.26300
H 	H 	0.79490 0.64350 0.23580 0.06600
H 	H 	0.73400 0.55780 0.35950 0.06700
C 	C 	0.68210 0.21090 0.95450 0.05600
H 	H 	0.59910 0.26570 0.93040 -0.01800
H 	H 	0.66700 0.17420 0.79980 -0.05100
N 	N 	0.68930 0.10910 0.11990 -0.31100
H 	H 	0.70510 0.14350 0.26420 0.05600
H 	H 	0.76600 0.05780 0.14050 0.05100
C 	C 	0.18210 0.71090 0.95450 0.06100
H 	H 	0.09910 0.76570 0.93040 -0.03400
H 	H 	0.16700 0.67420 0.79980 -0.05500
N 	N 	0.18930 0.60910 0.11990 -0.31400
H 	H 	0.20510 0.64350 0.26420 0.05800
H 	H 	0.26600 0.55780 0.14050 0.06400
C 	C 	0.68210 0.78910 0.45450 -0.02200
H 	H 	0.59910 0.73430 0.43040 0.00000
H 	H 	0.66700 0.82580 0.29980 -0.00900
N 	N 	0.68930 0.89090 0.61990 -0.28300
H 	H 	0.70510 0.85650 0.76420 0.09200
H 	H 	0.76600 0.94220 0.64050 0.11500
C 	C 	0.18210 0.28910 0.45450 -0.01900
H 	H 	0.09910 0.23430 0.43040 -0.03800
H 	H 	0.16700 0.32580 0.29980 -0.04600
N 	N 	0.18930 0.39090 0.61990 -0.29400
H 	H 	0.20510 0.35650 0.76420 0.06000
H 	H 	0.26600 0.44220 0.64050 0.07200
C 	C 	0.31790 0.78910 0.04550 -0.14900
H 	H 	0.40090 0.73430 0.06960 0.02900
H 	H 	0.33300 0.82580 0.20020 0.02000
N 	N 	0.31070 0.89090 0.88010 -0.24200
H 	H 	0.29490 0.85650 0.73580 0.06800
H 	H 	0.23400 0.94220 0.85950 0.08900
C 	C 	0.81790 0.28910 0.04550 -0.15400
H 	H 	0.90090 0.23430 0.06960 0.04600
H 	H 	0.83300 0.32580 0.20020 0.02400
N 	N 	0.81070 0.39090 0.88010 -0.24000
H 	H 	0.79490 0.35650 0.73580 0.06600
H 	H 	0.73400 0.44220 0.85950 0.07500
Ag	Ag	0.50000 0.00000 0.50000 0.41100
Ag	Ag	0.00000 0.50000 0.50000 0.41300
Ag	Ag	0.50000 0.00000 -0.00000 0.39300
Ag	Ag	0.00000 0.50000 -0.00000 0.39400
