data_crystal

_cell_length_a 10.44880
_cell_length_b 10.50410
_cell_length_c 6.30650
_cell_angle_alpha 90.00000
_cell_angle_beta  115.27200
_cell_angle_gamma 90.00000

_symmetry_space_group_name_	'P 1'
_symmetry_space_group_name_H-M	'P 1'

loop_
_symmetry_equiv_pos_as_xyz
  x,y,z

loop_
_atom_site_label
_atom_site_type_symbol
_atom_site_fract_x
_atom_site_fract_y
_atom_site_fract_z
_atom_site_charge
C 	C 	0.31590 0.20990 0.54630 -0.07400
H 	H 	0.39720 0.26450 0.58080 0.01200
H 	H 	0.32670 0.17020 0.69190 -0.02000
N 	N 	0.31380 0.11080 0.38160 -0.28100
H 	H 	0.30020 0.14780 0.24490 0.03900
H 	H 	0.23970 0.05890 0.35360 0.03000
C 	C 	0.81590 0.70990 0.54630 -0.07900
H 	H 	0.89720 0.76450 0.58080 0.05000
H 	H 	0.82670 0.67020 0.69190 0.01600
N 	N 	0.81380 0.61080 0.38160 -0.27200
H 	H 	0.80020 0.64780 0.24490 0.07300
H 	H 	0.73970 0.55890 0.35360 0.07200
C 	C 	0.68410 0.20990 0.95370 0.07000
H 	H 	0.60280 0.26450 0.91920 -0.02500
H 	H 	0.67330 0.17020 0.80810 -0.05700
N 	N 	0.68620 0.11080 0.11840 -0.32400
H 	H 	0.69980 0.14780 0.25510 0.06300
H 	H 	0.76030 0.05890 0.14640 0.05700
C 	C 	0.18410 0.70990 0.95370 0.07500
H 	H 	0.10280 0.76450 0.91920 -0.04100
H 	H 	0.17330 0.67020 0.80810 -0.05900
N 	N 	0.18620 0.61080 0.11840 -0.32700
H 	H 	0.19980 0.64780 0.25510 0.06500
H 	H 	0.26030 0.55890 0.14640 0.07100
C 	C 	0.68410 0.79010 0.45370 -0.01700
H 	H 	0.60280 0.73550 0.41920 -0.00300
H 	H 	0.67330 0.82980 0.30810 -0.01000
N 	N 	0.68620 0.88920 0.61840 -0.29500
H 	H 	0.69980 0.85220 0.75510 0.09700
H 	H 	0.76030 0.94110 0.64640 0.12000
C 	C 	0.18410 0.29010 0.45370 -0.01200
H 	H 	0.10280 0.23550 0.41920 -0.04200
H 	H 	0.17330 0.32980 0.30810 -0.04700
N 	N 	0.18620 0.38920 0.61840 -0.30600
H 	H 	0.19980 0.35220 0.75510 0.06400
H 	H 	0.26030 0.44110 0.64640 0.07800
C 	C 	0.31590 0.79010 0.04630 -0.16200
H 	H 	0.39720 0.73550 0.08080 0.03400
H 	H 	0.32670 0.82980 0.19190 0.02600
N 	N 	0.31380 0.88920 0.88160 -0.25100
H 	H 	0.30020 0.85220 0.74490 0.07400
H 	H 	0.23970 0.94110 0.85360 0.09400
C 	C 	0.81590 0.29010 0.04630 -0.16600
H 	H 	0.89720 0.23550 0.08080 0.05000
H 	H 	0.82670 0.32980 0.19190 0.02700
N 	N 	0.81380 0.38920 0.88160 -0.24800
H 	H 	0.80020 0.35220 0.74490 0.07100
H 	H 	0.73970 0.44110 0.85360 0.07900
Ag	Ag	0.50000 -0.00000 0.50000 0.41100
Ag	Ag	0.00000 0.50000 0.50000 0.41200
Ag	Ag	0.50000 0.00000 -0.00000 0.39300
Ag	Ag	-0.00000 0.50000 -0.00000 0.39500
