data_crystal

_cell_length_a 10.48690
_cell_length_b 10.47980
_cell_length_c 6.32790
_cell_angle_alpha 90.00000
_cell_angle_beta  115.43100
_cell_angle_gamma 90.00000

_symmetry_space_group_name_	'P 1'
_symmetry_space_group_name_H-M	'P 1'

loop_
_symmetry_equiv_pos_as_xyz
  x,y,z

loop_
_atom_site_label
_atom_site_type_symbol
_atom_site_fract_x
_atom_site_fract_y
_atom_site_fract_z
_atom_site_charge
C 	C 	0.31540 0.20950 0.54640 -0.07400
H 	H 	0.39700 0.26390 0.58370 0.01200
H 	H 	0.32500 0.16880 0.69020 -0.02000
N 	N 	0.31430 0.11120 0.38210 -0.28100
H 	H 	0.30120 0.14890 0.24650 0.04000
H 	H 	0.24040 0.05900 0.35230 0.03000
C 	C 	0.81540 0.70950 0.54640 -0.07900
H 	H 	0.89700 0.76390 0.58370 0.05000
H 	H 	0.82500 0.66880 0.69020 0.01500
N 	N 	0.81430 0.61120 0.38210 -0.27200
H 	H 	0.80120 0.64890 0.24650 0.07300
H 	H 	0.74040 0.55900 0.35230 0.07200
C 	C 	0.68460 0.20950 0.95360 0.07200
H 	H 	0.60300 0.26390 0.91630 -0.02600
H 	H 	0.67500 0.16880 0.80980 -0.05800
N 	N 	0.68570 0.11120 0.11790 -0.32400
H 	H 	0.69880 0.14890 0.25350 0.06300
H 	H 	0.75960 0.05900 0.14770 0.05700
C 	C 	0.18460 0.70950 0.95360 0.07700
H 	H 	0.10300 0.76390 0.91630 -0.04200
H 	H 	0.17500 0.66880 0.80980 -0.06000
N 	N 	0.18570 0.61120 0.11790 -0.32700
H 	H 	0.19880 0.64890 0.25350 0.06500
H 	H 	0.25960 0.55900 0.14770 0.07100
C 	C 	0.68460 0.79050 0.45360 -0.01600
H 	H 	0.60300 0.73610 0.41630 -0.00300
H 	H 	0.67500 0.83120 0.30980 -0.01000
N 	N 	0.68570 0.88880 0.61790 -0.29600
H 	H 	0.69880 0.85110 0.75350 0.09600
H 	H 	0.75960 0.94100 0.64770 0.12100
C 	C 	0.18460 0.29050 0.45360 -0.01100
H 	H 	0.10300 0.23610 0.41630 -0.04200
H 	H 	0.17500 0.33120 0.30980 -0.04700
N 	N 	0.18570 0.38880 0.61790 -0.30600
H 	H 	0.19880 0.35110 0.75350 0.06400
H 	H 	0.25960 0.44100 0.64770 0.07800
C 	C 	0.31540 0.79050 0.04640 -0.16200
H 	H 	0.39700 0.73610 0.08370 0.03400
H 	H 	0.32500 0.83120 0.19020 0.02600
N 	N 	0.31430 0.88880 0.88210 -0.25100
H 	H 	0.30120 0.85110 0.74650 0.07300
H 	H 	0.24040 0.94100 0.85230 0.09400
C 	C 	0.81540 0.29050 0.04640 -0.16600
H 	H 	0.89700 0.23610 0.08370 0.05000
H 	H 	0.82500 0.33120 0.19020 0.02700
N 	N 	0.81430 0.38880 0.88210 -0.24800
H 	H 	0.80120 0.35110 0.74650 0.07100
H 	H 	0.74040 0.44100 0.85230 0.07900
Ag	Ag	0.50000 0.00000 0.50000 0.41100
Ag	Ag	0.00000 0.50000 0.50000 0.41200
Ag	Ag	0.50000 0.00000 -0.00000 0.39300
Ag	Ag	-0.00000 0.50000 -0.00000 0.39500
