data_crystal

_cell_length_a 10.28750
_cell_length_b 10.61250
_cell_length_c 6.24000
_cell_angle_alpha 90.00000
_cell_angle_beta  114.68800
_cell_angle_gamma 90.00000

_symmetry_space_group_name_	'P 1'
_symmetry_space_group_name_H-M	'P 1'

loop_
_symmetry_equiv_pos_as_xyz
  x,y,z

loop_
_atom_site_label
_atom_site_type_symbol
_atom_site_fract_x
_atom_site_fract_y
_atom_site_fract_z
_atom_site_charge
C 	C 	0.31740 0.21090 0.54520 -0.07000
H 	H 	0.40010 0.26610 0.57030 0.01100
H 	H 	0.33240 0.17370 0.69920 -0.01900
N 	N 	0.31110 0.10930 0.38060 -0.27300
H 	H 	0.29540 0.14410 0.23680 0.03200
H 	H 	0.23490 0.05750 0.35920 0.02500
C 	C 	0.81740 0.71090 0.54520 -0.07300
H 	H 	0.90010 0.76610 0.57030 0.04900
H 	H 	0.83240 0.67370 0.69920 0.01500
N 	N 	0.81110 0.60930 0.38060 -0.26300
H 	H 	0.79540 0.64410 0.23680 0.06600
H 	H 	0.73490 0.55750 0.35920 0.06700
C 	C 	0.68260 0.21090 0.95480 0.05800
H 	H 	0.59990 0.26610 0.92970 -0.01900
H 	H 	0.66760 0.17370 0.80080 -0.05200
N 	N 	0.68890 0.10930 0.11940 -0.31100
H 	H 	0.70460 0.14410 0.26320 0.05600
H 	H 	0.76510 0.05750 0.14080 0.05100
C 	C 	0.18260 0.71090 0.95480 0.06300
H 	H 	0.09990 0.76610 0.92970 -0.03500
H 	H 	0.16760 0.67370 0.80080 -0.05500
N 	N 	0.18890 0.60930 0.11940 -0.31400
H 	H 	0.20460 0.64410 0.26320 0.05800
H 	H 	0.26510 0.55750 0.14080 0.06400
C 	C 	0.68260 0.78910 0.45480 -0.02100
H 	H 	0.59990 0.73390 0.42970 -0.00000
H 	H 	0.66760 0.82630 0.30080 -0.01000
N 	N 	0.68890 0.89070 0.61940 -0.28300
H 	H 	0.70460 0.85590 0.76320 0.09200
H 	H 	0.76510 0.94250 0.64080 0.11500
C 	C 	0.18260 0.28910 0.45480 -0.01800
H 	H 	0.09990 0.23390 0.42970 -0.03900
H 	H 	0.16760 0.32630 0.30080 -0.04600
N 	N 	0.18890 0.39070 0.61940 -0.29400
H 	H 	0.20460 0.35590 0.76320 0.05900
H 	H 	0.26510 0.44250 0.64080 0.07200
C 	C 	0.31740 0.78910 0.04520 -0.14900
H 	H 	0.40010 0.73390 0.07030 0.02900
H 	H 	0.33240 0.82630 0.19920 0.02000
N 	N 	0.31110 0.89070 0.88060 -0.24200
H 	H 	0.29540 0.85590 0.73680 0.06800
H 	H 	0.23490 0.94250 0.85920 0.08900
C 	C 	0.81740 0.28910 0.04520 -0.15400
H 	H 	0.90010 0.23390 0.07030 0.04500
H 	H 	0.83240 0.32630 0.19920 0.02400
N 	N 	0.81110 0.39070 0.88060 -0.24000
H 	H 	0.79540 0.35590 0.73680 0.06600
H 	H 	0.73490 0.44250 0.85920 0.07500
Ag	Ag	0.50000 0.00000 0.50000 0.41100
Ag	Ag	-0.00000 0.50000 0.50000 0.41300
Ag	Ag	0.50000 0.00000 -0.00000 0.39300
Ag	Ag	-0.00000 0.50000 -0.00000 0.39400
