data_crystal

_cell_length_a 20.26400
_cell_length_b 19.64000
_cell_length_c 5.97570
_cell_angle_alpha 90.00000
_cell_angle_beta  113.84000
_cell_angle_gamma 90.00000

_symmetry_space_group_name_	'P 1'
_symmetry_space_group_name_H-M	'P 1'

loop_
_symmetry_equiv_pos_as_xyz
  x,y,z

loop_
_atom_site_label
_atom_site_type_symbol
_atom_site_fract_x
_atom_site_fract_y
_atom_site_fract_z
_atom_site_charge
N 	N 	0.60330 0.04410 0.13400 -0.33300
H 	H 	0.61700 0.05880 0.28900 0.06200
H 	H 	0.63660 0.01510 0.12560 0.05200
N 	N 	0.64000 0.20910 0.87900 -0.25300
H 	H 	0.61000 0.23920 0.90260 0.08500
H 	H 	0.62220 0.19650 0.72110 0.06900
N 	N 	0.85180 0.19980 0.62400 -0.30700
H 	H 	0.88590 0.22750 0.61310 0.09100
H 	H 	0.86590 0.18580 0.77960 0.08900
N 	N 	0.90150 0.05160 0.37690 -0.27400
H 	H 	0.89020 0.06830 0.22560 0.05200
H 	H 	0.86600 0.02330 0.37280 0.05300
C 	C 	0.59020 0.10050 0.96300 0.11200
H 	H 	0.54720 0.12480 0.95040 -0.04000
H 	H 	0.58200 0.08280 0.80250 -0.07300
C 	C 	0.65320 0.14900 0.04500 -0.19900
H 	H 	0.66280 0.16480 0.20900 0.01300
H 	H 	0.69570 0.12500 0.05090 0.02000
C 	C 	0.83830 0.14230 0.45800 -0.00500
H 	H 	0.82400 0.15720 0.29020 -0.04600
H 	H 	0.80150 0.11250 0.46800 -0.02200
C 	C 	0.91100 0.10790 0.55400 -0.08800
H 	H 	0.94830 0.13920 0.55620 0.03400
H 	H 	0.92340 0.09040 0.71750 0.00500
N 	N 	0.10330 0.54410 0.13400 -0.33800
H 	H 	0.11700 0.55880 0.28900 0.07300
H 	H 	0.13660 0.51510 0.12560 0.07300
N 	N 	0.14000 0.70910 0.87900 -0.24900
H 	H 	0.11000 0.73920 0.90260 0.07700
H 	H 	0.12220 0.69650 0.72110 0.06400
N 	N 	0.35180 0.69980 0.62400 -0.30200
H 	H 	0.38590 0.72750 0.61310 0.08300
H 	H 	0.36590 0.68580 0.77960 0.08500
N 	N 	0.40150 0.55160 0.37690 -0.29000
H 	H 	0.39020 0.56830 0.22560 0.05500
H 	H 	0.36600 0.52330 0.37280 0.07000
C 	C 	0.09020 0.60050 0.96300 0.12900
H 	H 	0.04720 0.62480 0.95040 -0.06100
H 	H 	0.08200 0.58280 0.80250 -0.07800
C 	C 	0.15320 0.64900 0.04500 -0.21200
H 	H 	0.16280 0.66480 0.20900 0.01700
H 	H 	0.19570 0.62500 0.05090 0.02800
C 	C 	0.33830 0.64230 0.45800 -0.02100
H 	H 	0.32400 0.65720 0.29020 -0.04100
H 	H 	0.30150 0.61250 0.46800 -0.01100
C 	C 	0.41100 0.60790 0.55400 -0.06800
H 	H 	0.44830 0.63920 0.55620 0.00900
H 	H 	0.42340 0.59040 0.71750 -0.01100
N 	N 	0.39670 0.04410 0.36600 -0.28900
H 	H 	0.38300 0.05880 0.21100 0.04600
H 	H 	0.36340 0.01510 0.37440 0.05100
N 	N 	0.36000 0.20910 0.62100 -0.29700
H 	H 	0.39000 0.23920 0.59740 0.08200
H 	H 	0.37780 0.19650 0.77890 0.08600
N 	N 	0.14820 0.19980 0.87600 -0.25100
H 	H 	0.11410 0.22750 0.88690 0.07400
H 	H 	0.13410 0.18580 0.72040 0.06000
N 	N 	0.09850 0.05160 0.12310 -0.33000
H 	H 	0.10980 0.06830 0.27440 0.05900
H 	H 	0.13400 0.02330 0.12720 0.05200
C 	C 	0.40980 0.10050 0.53700 -0.05300
H 	H 	0.45280 0.12480 0.54960 -0.00500
H 	H 	0.41800 0.08280 0.69750 -0.02400
C 	C 	0.34680 0.14900 0.45500 -0.03900
H 	H 	0.33720 0.16480 0.29100 -0.03300
H 	H 	0.30430 0.12500 0.44910 -0.01600
C 	C 	0.16170 0.14230 0.04200 -0.18700
H 	H 	0.17600 0.15720 0.20980 0.00700
H 	H 	0.19850 0.11250 0.03200 0.01900
C 	C 	0.08900 0.10790 0.94600 0.09900
H 	H 	0.05170 0.13920 0.94380 -0.04500
H 	H 	0.07660 0.09040 0.78250 -0.07800
N 	N 	0.89670 0.54410 0.36600 -0.28000
H 	H 	0.88300 0.55880 0.21100 0.06300
H 	H 	0.86340 0.51510 0.37440 0.07400
N 	N 	0.86000 0.70910 0.62100 -0.30200
H 	H 	0.89000 0.73920 0.59740 0.09200
H 	H 	0.87780 0.69650 0.77890 0.09500
N 	N 	0.64820 0.69980 0.87600 -0.25400
H 	H 	0.61410 0.72750 0.88690 0.08300
H 	H 	0.63410 0.68580 0.72040 0.06700
N 	N 	0.59850 0.55160 0.12310 -0.33100
H 	H 	0.60980 0.56830 0.27440 0.07100
H 	H 	0.63400 0.52330 0.12720 0.07200
C 	C 	0.90980 0.60050 0.53700 -0.06600
H 	H 	0.95280 0.62480 0.54960 0.02100
H 	H 	0.91800 0.58280 0.69750 0.00200
C 	C 	0.84680 0.64900 0.45500 -0.02800
H 	H 	0.83720 0.66480 0.29100 -0.03300
H 	H 	0.80430 0.62500 0.44910 -0.01400
C 	C 	0.66170 0.64230 0.04200 -0.18500
H 	H 	0.67600 0.65720 0.20980 0.00900
H 	H 	0.69850 0.61250 0.03200 0.02500
C 	C 	0.58900 0.60790 0.94600 0.09500
H 	H 	0.55170 0.63920 0.94380 -0.02700
H 	H 	0.57660 0.59040 0.78250 -0.06300
N 	N 	0.39670 0.95590 0.86600 -0.25000
H 	H 	0.38300 0.94120 0.71100 0.08200
H 	H 	0.36340 0.98490 0.87440 0.10700
N 	N 	0.36000 0.79090 0.12100 -0.32600
H 	H 	0.39000 0.76080 0.09740 0.07100
H 	H 	0.37780 0.80350 0.27890 0.07900
N 	N 	0.14820 0.80020 0.37600 -0.28600
H 	H 	0.11410 0.77250 0.38690 0.06500
H 	H 	0.13410 0.81420 0.22040 0.05500
N 	N 	0.09850 0.94840 0.62310 -0.29800
H 	H 	0.10980 0.93170 0.77440 0.09100
H 	H 	0.13400 0.97670 0.62720 0.10500
C 	C 	0.40980 0.89950 0.03700 -0.18200
H 	H 	0.45280 0.87520 0.04960 0.02600
H 	H 	0.41800 0.91720 0.19750 0.02200
C 	C 	0.34680 0.85100 0.95500 0.09000
H 	H 	0.33720 0.83520 0.79100 -0.05500
H 	H 	0.30430 0.87500 0.94910 -0.02800
C 	C 	0.16170 0.85770 0.54200 -0.06100
H 	H 	0.17600 0.84280 0.70980 -0.01300
H 	H 	0.19850 0.88750 0.53200 0.00900
C 	C 	0.08900 0.89210 0.44600 -0.02500
H 	H 	0.05170 0.86080 0.44380 -0.01800
H 	H 	0.07660 0.90960 0.28250 -0.03300
N 	N 	0.89670 0.45590 0.86600 -0.24400
H 	H 	0.88300 0.44120 0.71100 0.07200
H 	H 	0.86340 0.48490 0.87440 0.08500
N 	N 	0.86000 0.29090 0.12100 -0.33100
H 	H 	0.89000 0.26080 0.09740 0.08000
H 	H 	0.87780 0.30350 0.27890 0.08500
N 	N 	0.64820 0.30020 0.37600 -0.29000
H 	H 	0.61410 0.27250 0.38690 0.07100
H 	H 	0.63410 0.31420 0.22040 0.05700
N 	N 	0.59850 0.44840 0.62310 -0.30100
H 	H 	0.60980 0.43170 0.77440 0.08100
H 	H 	0.63400 0.47670 0.62720 0.08300
C 	C 	0.90980 0.39950 0.03700 -0.19700
H 	H 	0.95280 0.37520 0.04960 0.04600
H 	H 	0.91800 0.41720 0.19750 0.02600
C 	C 	0.84680 0.35100 0.95500 0.10100
H 	H 	0.83720 0.33520 0.79100 -0.05900
H 	H 	0.80430 0.37500 0.94910 -0.03600
C 	C 	0.66170 0.35770 0.54200 -0.04900
H 	H 	0.67600 0.34280 0.70980 -0.01700
H 	H 	0.69850 0.38750 0.53200 -0.00100
C 	C 	0.58900 0.39210 0.44600 -0.04000
H 	H 	0.55170 0.36080 0.44380 -0.00200
H 	H 	0.57660 0.40960 0.28250 -0.03500
N 	N 	0.60330 0.95590 0.63400 -0.29700
H 	H 	0.61700 0.94120 0.78900 0.09900
H 	H 	0.63660 0.98490 0.62560 0.10800
N 	N 	0.64000 0.79090 0.37900 -0.28700
H 	H 	0.61000 0.76080 0.40260 0.07300
H 	H 	0.62220 0.80350 0.22110 0.06300
N 	N 	0.85180 0.80020 0.12400 -0.33700
H 	H 	0.88590 0.77250 0.11310 0.08100
H 	H 	0.86590 0.81420 0.27960 0.08300
N 	N 	0.90150 0.94840 0.87690 -0.23900
H 	H 	0.89020 0.93170 0.72560 0.08300
H 	H 	0.86600 0.97670 0.87280 0.10400
C 	C 	0.59020 0.89950 0.46300 -0.01900
H 	H 	0.54720 0.87520 0.45040 -0.01100
H 	H 	0.58200 0.91720 0.30250 -0.02600
C 	C 	0.65320 0.85100 0.54500 -0.07100
H 	H 	0.66280 0.83520 0.70900 -0.00700
H 	H 	0.69570 0.87500 0.55090 0.00600
C 	C 	0.83830 0.85770 0.95800 0.11900
H 	H 	0.82400 0.84280 0.79020 -0.06700
H 	H 	0.80150 0.88750 0.96800 -0.03100
C 	C 	0.91100 0.89210 0.05400 -0.20800
H 	H 	0.94830 0.86080 0.05620 0.06000
H 	H 	0.92340 0.90960 0.21750 0.04500
N 	N 	0.10330 0.45590 0.63400 -0.30700
H 	H 	0.11700 0.44120 0.78900 0.08200
H 	H 	0.13660 0.48490 0.62560 0.08400
N 	N 	0.14000 0.29090 0.37900 -0.28200
H 	H 	0.11000 0.26080 0.40260 0.06400
H 	H 	0.12220 0.30350 0.22110 0.05400
N 	N 	0.35180 0.30020 0.12400 -0.33400
H 	H 	0.38590 0.27250 0.11310 0.07200
H 	H 	0.36590 0.31420 0.27960 0.07500
N 	N 	0.40150 0.44840 0.87690 -0.25500
H 	H 	0.39020 0.43170 0.72560 0.06400
H 	H 	0.36600 0.47670 0.87280 0.08000
C 	C 	0.09020 0.39950 0.46300 -0.00500
H 	H 	0.04720 0.37520 0.45040 -0.03700
H 	H 	0.08200 0.41720 0.30250 -0.05200
C 	C 	0.15320 0.35100 0.54500 -0.08200
H 	H 	0.16280 0.33520 0.70900 -0.00700
H 	H 	0.19570 0.37500 0.55090 0.00400
C 	C 	0.33830 0.35770 0.95800 0.11800
H 	H 	0.32400 0.34280 0.79020 -0.06900
H 	H 	0.30150 0.38750 0.96800 -0.03700
C 	C 	0.41100 0.39210 0.05400 -0.20300
H 	H 	0.44830 0.36080 0.05620 0.03500
H 	H 	0.42340 0.40960 0.21750 0.01400
Ag	Ag	0.50000 0.00000 -0.00000 0.40400
Ag	Ag	-0.00000 0.50000 -0.00000 0.40500
Ag	Ag	0.50000 0.00000 0.50000 0.43100
Ag	Ag	0.00000 0.50000 0.50000 0.43100
Ag	Ag	0.75000 0.25000 -0.00000 0.42200
Ag	Ag	0.25000 0.25000 0.50000 0.44800
Ag	Ag	0.25000 0.75000 -0.00000 0.42300
Ag	Ag	0.75000 0.75000 0.50000 0.45000
Ag	Ag	0.75000 0.25000 0.50000 0.45200
Ag	Ag	0.25000 0.25000 -0.00000 0.42500
Ag	Ag	0.25000 0.75000 0.50000 0.45300
Ag	Ag	0.75000 0.75000 -0.00000 0.42700
Ag	Ag	0.00000 0.00000 0.50000 0.40200
Ag	Ag	0.50000 0.50000 0.50000 0.45700
Ag	Ag	-0.00000 0.00000 -0.00000 0.37600
Ag	Ag	0.50000 0.50000 -0.00000 0.43000
