data_crystal

_cell_length_a 20.11700
_cell_length_b 19.56500
_cell_length_c 5.96100
_cell_angle_alpha 90.00000
_cell_angle_beta  114.04000
_cell_angle_gamma 90.00000

_symmetry_space_group_name_	'P 1'
_symmetry_space_group_name_H-M	'P 1'

loop_
_symmetry_equiv_pos_as_xyz
  x,y,z

loop_
_atom_site_label
_atom_site_type_symbol
_atom_site_fract_x
_atom_site_fract_y
_atom_site_fract_z
_atom_site_charge
N 	N 	0.58160 0.05240 0.11700 -0.35500
H 	H 	0.58590 0.07240 0.25800 0.06000
H 	H 	0.62090 0.02570 0.14920 0.05400
N 	N 	0.64490 0.20360 0.86400 -0.25100
H 	H 	0.61130 0.23420 0.86190 0.08100
H 	H 	0.63270 0.18840 0.70940 0.06200
N 	N 	0.83680 0.19320 0.60500 -0.32000
H 	H 	0.87560 0.21950 0.62480 0.09000
H 	H 	0.84470 0.17380 0.75020 0.08200
N 	N 	0.89620 0.04690 0.37400 -0.27200
H 	H 	0.88170 0.06010 0.21610 0.04900
H 	H 	0.86310 0.01750 0.38360 0.05200
C 	C 	0.57890 0.10460 0.94000 0.12300
H 	H 	0.53820 0.13490 0.91250 -0.03200
H 	H 	0.57130 0.08310 0.78480 -0.07800
C 	C 	0.64830 0.14570 0.02900 -0.20900
H 	H 	0.65820 0.16340 0.19150 0.02000
H 	H 	0.68830 0.11590 0.04230 0.02800
C 	C 	0.82940 0.13990 0.42500 -0.00100
H 	H 	0.81910 0.15910 0.26420 -0.05200
H 	H 	0.79160 0.10750 0.41260 -0.02000
C 	C 	0.90380 0.10740 0.53500 -0.09400
H 	H 	0.94070 0.13860 0.53040 0.02900
H 	H 	0.91620 0.09350 0.70330 0.00900
N 	N 	0.08160 0.55240 0.11700 -0.36100
H 	H 	0.08590 0.57240 0.25800 0.06400
H 	H 	0.12090 0.52570 0.14920 0.07500
N 	N 	0.14490 0.70360 0.86400 -0.24600
H 	H 	0.11130 0.73420 0.86190 0.07400
H 	H 	0.13270 0.68840 0.70940 0.05900
N 	N 	0.33680 0.69320 0.60500 -0.31500
H 	H 	0.37560 0.71950 0.62480 0.08300
H 	H 	0.34470 0.67380 0.75020 0.08000
N 	N 	0.39620 0.54690 0.37400 -0.28800
H 	H 	0.38170 0.56010 0.21610 0.05400
H 	H 	0.36310 0.51750 0.38360 0.07100
C 	C 	0.07890 0.60460 0.94000 0.14100
H 	H 	0.03820 0.63490 0.91250 -0.05800
H 	H 	0.07130 0.58310 0.78480 -0.08600
C 	C 	0.14830 0.64570 0.02900 -0.22200
H 	H 	0.15820 0.66340 0.19150 0.02300
H 	H 	0.18830 0.61590 0.04230 0.03800
C 	C 	0.32940 0.63990 0.42500 -0.01500
H 	H 	0.31910 0.65910 0.26420 -0.04800
H 	H 	0.29160 0.60750 0.41260 -0.01000
C 	C 	0.40380 0.60740 0.53500 -0.07400
H 	H 	0.44070 0.63860 0.53040 0.00600
H 	H 	0.41620 0.59350 0.70330 -0.00500
N 	N 	0.41840 0.05240 0.38300 -0.30900
H 	H 	0.41410 0.07240 0.24200 0.04500
H 	H 	0.37910 0.02570 0.35080 0.04900
N 	N 	0.35510 0.20360 0.63600 -0.29800
H 	H 	0.38870 0.23420 0.63810 0.08400
H 	H 	0.36730 0.18840 0.79060 0.08100
N 	N 	0.16320 0.19320 0.89500 -0.26300
H 	H 	0.12440 0.21950 0.87520 0.07200
H 	H 	0.15530 0.17380 0.74980 0.05700
N 	N 	0.10380 0.04690 0.12600 -0.32800
H 	H 	0.11830 0.06010 0.28390 0.05700
H 	H 	0.13690 0.01750 0.11640 0.04800
C 	C 	0.42110 0.10460 0.56000 -0.04900
H 	H 	0.46180 0.13490 0.58750 0.00900
H 	H 	0.42870 0.08310 0.71520 -0.02600
C 	C 	0.35170 0.14570 0.47100 -0.04000
H 	H 	0.34180 0.16340 0.30850 -0.02900
H 	H 	0.31170 0.11590 0.45770 -0.01000
C 	C 	0.17060 0.13990 0.07500 -0.18400
H 	H 	0.18090 0.15910 0.23580 0.00100
H 	H 	0.20840 0.10750 0.08740 0.02400
C 	C 	0.09620 0.10740 0.96500 0.09500
H 	H 	0.05930 0.13860 0.96960 -0.04500
H 	H 	0.08380 0.09350 0.79670 -0.07200
N 	N 	0.91840 0.55240 0.38300 -0.29600
H 	H 	0.91410 0.57240 0.24200 0.06200
H 	H 	0.87910 0.52570 0.35080 0.07100
N 	N 	0.85510 0.70360 0.63600 -0.30300
H 	H 	0.88870 0.73420 0.63810 0.09400
H 	H 	0.86730 0.68840 0.79060 0.08900
N 	N 	0.66320 0.69320 0.89500 -0.26500
H 	H 	0.62440 0.71950 0.87520 0.08000
H 	H 	0.65530 0.67380 0.74980 0.06400
N 	N 	0.60380 0.54690 0.12600 -0.33000
H 	H 	0.61830 0.56010 0.28390 0.07200
H 	H 	0.63690 0.51750 0.11640 0.07100
C 	C 	0.92110 0.60460 0.56000 -0.06500
H 	H 	0.96180 0.63490 0.58750 0.03800
H 	H 	0.92870 0.58310 0.71520 0.00300
C 	C 	0.85170 0.64570 0.47100 -0.02800
H 	H 	0.84180 0.66340 0.30850 -0.02900
H 	H 	0.81170 0.61590 0.45770 -0.00600
C 	C 	0.67060 0.63990 0.07500 -0.18300
H 	H 	0.68090 0.65910 0.23580 0.00300
H 	H 	0.70840 0.60750 0.08740 0.03100
C 	C 	0.59620 0.60740 0.96500 0.09200
H 	H 	0.55930 0.63860 0.96960 -0.02900
H 	H 	0.58380 0.59350 0.79670 -0.05700
N 	N 	0.41840 0.94760 0.88300 -0.26400
H 	H 	0.41410 0.92760 0.74200 0.07400
H 	H 	0.37910 0.97430 0.85080 0.10200
N 	N 	0.35510 0.79640 0.13600 -0.32900
H 	H 	0.38870 0.76580 0.13810 0.07200
H 	H 	0.36730 0.81160 0.29060 0.07400
N 	N 	0.16320 0.80680 0.39500 -0.30000
H 	H 	0.12440 0.78050 0.37520 0.06300
H 	H 	0.15530 0.82620 0.24980 0.05500
N 	N 	0.10380 0.95310 0.62600 -0.29700
H 	H 	0.11830 0.93990 0.78390 0.09600
H 	H 	0.13690 0.98250 0.61640 0.10700
C 	C 	0.42110 0.89540 0.06000 -0.18500
H 	H 	0.46180 0.86510 0.08750 0.03800
H 	H 	0.42870 0.91690 0.21520 0.02100
C 	C 	0.35170 0.85430 0.97100 0.09400
H 	H 	0.34180 0.83660 0.80850 -0.05200
H 	H 	0.31170 0.88410 0.95770 -0.02000
C 	C 	0.17060 0.86010 0.57500 -0.05500
H 	H 	0.18090 0.84090 0.73580 -0.01800
H 	H 	0.20840 0.89250 0.58740 0.01500
C 	C 	0.09620 0.89260 0.46500 -0.03000
H 	H 	0.05930 0.86140 0.46960 -0.01800
H 	H 	0.08380 0.90650 0.29670 -0.02700
N 	N 	0.91840 0.44760 0.88300 -0.25800
H 	H 	0.91410 0.42760 0.74200 0.07100
H 	H 	0.87910 0.47430 0.85080 0.08100
N 	N 	0.85510 0.29640 0.13600 -0.33300
H 	H 	0.88870 0.26580 0.13810 0.08200
H 	H 	0.86730 0.31160 0.29060 0.07900
N 	N 	0.66320 0.30680 0.39500 -0.30300
H 	H 	0.62440 0.28050 0.37520 0.06900
H 	H 	0.65530 0.32620 0.24980 0.05400
N 	N 	0.60380 0.45310 0.62600 -0.29900
H 	H 	0.61830 0.43990 0.78390 0.08300
H 	H 	0.63690 0.48250 0.61640 0.08200
C 	C 	0.92110 0.39540 0.06000 -0.20100
H 	H 	0.96180 0.36510 0.08750 0.06400
H 	H 	0.92870 0.41690 0.21520 0.02800
C 	C 	0.85170 0.35430 0.97100 0.10600
H 	H 	0.84180 0.33660 0.80850 -0.05500
H 	H 	0.81170 0.38410 0.95770 -0.03000
C 	C 	0.67060 0.36010 0.57500 -0.04400
H 	H 	0.68090 0.34090 0.73580 -0.02200
H 	H 	0.70840 0.39250 0.58740 0.00400
C 	C 	0.59620 0.39260 0.46500 -0.04500
H 	H 	0.55930 0.36140 0.46960 -0.00400
H 	H 	0.58380 0.40650 0.29670 -0.02900
N 	N 	0.58160 0.94760 0.61700 -0.31700
H 	H 	0.58590 0.92760 0.75800 0.09100
H 	H 	0.62090 0.97430 0.64920 0.10700
N 	N 	0.64490 0.79640 0.36400 -0.28600
H 	H 	0.61130 0.76580 0.36190 0.07000
H 	H 	0.63270 0.81160 0.20940 0.05700
N 	N 	0.83680 0.80680 0.10500 -0.35000
H 	H 	0.87560 0.78050 0.12480 0.08100
H 	H 	0.84470 0.82620 0.25020 0.07800
N 	N 	0.89620 0.95310 0.87400 -0.23700
H 	H 	0.88170 0.93990 0.71610 0.08600
H 	H 	0.86310 0.98250 0.88360 0.10900
C 	C 	0.57890 0.89540 0.44000 -0.01400
H 	H 	0.53820 0.86510 0.41250 -0.00400
H 	H 	0.57130 0.91690 0.28480 -0.02900
C 	C 	0.64830 0.85430 0.52900 -0.07500
H 	H 	0.65820 0.83660 0.69150 -0.00100
H 	H 	0.68830 0.88410 0.54230 0.01700
C 	C 	0.82940 0.86010 0.92500 0.12600
H 	H 	0.81910 0.84090 0.76420 -0.07400
H 	H 	0.79160 0.89250 0.91260 -0.02900
C 	C 	0.90380 0.89260 0.03500 -0.21500
H 	H 	0.94070 0.86140 0.03040 0.05600
H 	H 	0.91620 0.90650 0.20330 0.05000
N 	N 	0.08160 0.44760 0.61700 -0.32900
H 	H 	0.08590 0.42760 0.75800 0.07400
H 	H 	0.12090 0.47430 0.64920 0.08500
N 	N 	0.14490 0.29640 0.36400 -0.28100
H 	H 	0.11130 0.26580 0.36190 0.06100
H 	H 	0.13270 0.31160 0.20940 0.04900
N 	N 	0.33680 0.30680 0.10500 -0.34700
H 	H 	0.37560 0.28050 0.12480 0.07200
H 	H 	0.34470 0.32620 0.25020 0.07000
N 	N 	0.39620 0.45310 0.87400 -0.25300
H 	H 	0.38170 0.43990 0.71610 0.06500
H 	H 	0.36310 0.48250 0.88360 0.08300
C 	C 	0.07890 0.39540 0.44000 0.00200
H 	H 	0.03820 0.36510 0.41250 -0.03200
H 	H 	0.07130 0.41690 0.28480 -0.05800
C 	C 	0.14830 0.35430 0.52900 -0.08700
H 	H 	0.15820 0.33660 0.69150 -0.00100
H 	H 	0.18830 0.38410 0.54230 0.01300
C 	C 	0.32940 0.36010 0.92500 0.12600
H 	H 	0.31910 0.34090 0.76420 -0.07700
H 	H 	0.29160 0.39250 0.91260 -0.03600
C 	C 	0.40380 0.39260 0.03500 -0.21200
H 	H 	0.44070 0.36140 0.03040 0.03100
H 	H 	0.41620 0.40650 0.20330 0.02100
Ag	Ag	0.50000 0.00000 -0.00000 0.43500
Ag	Ag	-0.00000 0.50000 -0.00000 0.43700
Ag	Ag	0.50000 0.00000 0.50000 0.46300
Ag	Ag	0.00000 0.50000 0.50000 0.46400
Ag	Ag	0.75000 0.25000 -0.00000 0.42900
Ag	Ag	0.25000 0.25000 0.50000 0.45500
Ag	Ag	0.25000 0.75000 -0.00000 0.43000
Ag	Ag	0.75000 0.75000 0.50000 0.45800
Ag	Ag	0.75000 0.25000 0.50000 0.46800
Ag	Ag	0.25000 0.25000 -0.00000 0.43900
Ag	Ag	0.25000 0.75000 0.50000 0.46800
Ag	Ag	0.75000 0.75000 -0.00000 0.44200
Ag	Ag	0.00000 0.00000 0.50000 0.39500
Ag	Ag	0.50000 0.50000 0.50000 0.45100
Ag	Ag	-0.00000 0.00000 -0.00000 0.36800
Ag	Ag	0.50000 0.50000 -0.00000 0.42300
