data_crystal

_cell_length_a 10.45100
_cell_length_b 10.51000
_cell_length_c 6.26800
_cell_angle_alpha 90.00000
_cell_angle_beta  115.08000
_cell_angle_gamma 90.00000

_symmetry_space_group_name_	'P 1'
_symmetry_space_group_name_H-M	'P 1'

loop_
_symmetry_equiv_pos_as_xyz
  x,y,z

loop_
_atom_site_label
_atom_site_type_symbol
_atom_site_fract_x
_atom_site_fract_y
_atom_site_fract_z
_atom_site_charge
C 	C 	0.31300 0.20850 0.54400 -0.07600
H 	H 	0.39600 0.26110 0.58010 0.01200
H 	H 	0.32220 0.16890 0.68920 -0.01800
N 	N 	0.31110 0.10870 0.37960 -0.28100
H 	H 	0.29630 0.14470 0.24090 0.03900
H 	H 	0.23810 0.05600 0.35440 0.03000
C 	C 	0.81300 0.70850 0.54400 -0.08100
H 	H 	0.89600 0.76110 0.58010 0.04900
H 	H 	0.82220 0.66890 0.68920 0.01600
N 	N 	0.81110 0.60870 0.37960 -0.27200
H 	H 	0.79630 0.64470 0.24090 0.07300
H 	H 	0.73810 0.55600 0.35440 0.07200
C 	C 	0.68700 0.20850 0.95600 0.07500
H 	H 	0.60400 0.26110 0.91990 -0.02800
H 	H 	0.67780 0.16890 0.81080 -0.05800
N 	N 	0.68890 0.10870 0.12040 -0.32400
H 	H 	0.70370 0.14470 0.25910 0.06300
H 	H 	0.76190 0.05600 0.14560 0.05700
C 	C 	0.18700 0.70850 0.95600 0.08000
H 	H 	0.10400 0.76110 0.91990 -0.04300
H 	H 	0.17780 0.66890 0.81080 -0.06000
N 	N 	0.18890 0.60870 0.12040 -0.32700
H 	H 	0.20370 0.64470 0.25910 0.06600
H 	H 	0.26190 0.55600 0.14560 0.07100
C 	C 	0.68700 0.79150 0.45600 -0.01500
H 	H 	0.60400 0.73890 0.41990 -0.00400
H 	H 	0.67780 0.83110 0.31080 -0.01000
N 	N 	0.68890 0.89130 0.62040 -0.29600
H 	H 	0.70370 0.85530 0.75910 0.09800
H 	H 	0.76190 0.94400 0.64560 0.12100
C 	C 	0.18700 0.29150 0.45600 -0.00900
H 	H 	0.10400 0.23890 0.41990 -0.04300
H 	H 	0.17780 0.33110 0.31080 -0.04600
N 	N 	0.18890 0.39130 0.62040 -0.30500
H 	H 	0.20370 0.35530 0.75910 0.06500
H 	H 	0.26190 0.44400 0.64560 0.07800
C 	C 	0.31300 0.79150 0.04400 -0.16500
H 	H 	0.39600 0.73890 0.08010 0.03500
H 	H 	0.32220 0.83110 0.18920 0.02800
N 	N 	0.31110 0.89130 0.87960 -0.25100
H 	H 	0.29630 0.85530 0.74090 0.07400
H 	H 	0.23810 0.94400 0.85440 0.09400
C 	C 	0.81300 0.29150 0.04400 -0.17000
H 	H 	0.89600 0.23890 0.08010 0.05000
H 	H 	0.82220 0.33110 0.18920 0.02900
N 	N 	0.81110 0.39130 0.87960 -0.24800
H 	H 	0.79630 0.35530 0.74090 0.07100
H 	H 	0.73810 0.44400 0.85440 0.07900
Ag	Ag	0.50000 0.00000 0.50000 0.40900
Ag	Ag	0.00000 0.50000 0.50000 0.41000
Ag	Ag	0.50000 0.00000 -0.00000 0.39200
Ag	Ag	-0.00000 0.50000 -0.00000 0.39400
