data_crystal

_cell_length_a 20.85500
_cell_length_b 19.60000
_cell_length_c 6.04090
_cell_angle_alpha 90.00000
_cell_angle_beta  114.21500
_cell_angle_gamma 90.00000

_symmetry_space_group_name_	'P 1'
_symmetry_space_group_name_H-M	'P 1'

loop_
_symmetry_equiv_pos_as_xyz
  x,y,z

loop_
_atom_site_label
_atom_site_type_symbol
_atom_site_fract_x
_atom_site_fract_y
_atom_site_fract_z
_atom_site_charge
N 	N 	0.60600 0.05190 0.12200 -0.32300
H 	H 	0.62090 0.06540 0.27700 0.06500
H 	H 	0.63790 0.02280 0.11000 0.05200
N 	N 	0.65900 0.20850 0.87400 -0.26700
H 	H 	0.62640 0.23790 0.87830 0.08200
H 	H 	0.64670 0.19500 0.71910 0.06100
N 	N 	0.85220 0.20000 0.62100 -0.30200
H 	H 	0.88470 0.22880 0.61240 0.09100
H 	H 	0.86650 0.18530 0.77540 0.08800
N 	N 	0.90300 0.05040 0.39000 -0.27500
H 	H 	0.88860 0.06470 0.23550 0.05200
H 	H 	0.87030 0.02180 0.39850 0.05300
C 	C 	0.59740 0.11050 0.96400 0.10200
H 	H 	0.56210 0.14080 0.97550 -0.03000
H 	H 	0.58100 0.09520 0.79720 -0.06600
C 	C 	0.66560 0.14890 0.03300 -0.18900
H 	H 	0.68150 0.16440 0.19950 0.00300
H 	H 	0.70090 0.11810 0.02470 0.02000
C 	C 	0.84070 0.14290 0.45500 -0.00800
H 	H 	0.82700 0.15830 0.28970 -0.04000
H 	H 	0.80510 0.11200 0.46170 -0.01900
C 	C 	0.91210 0.10980 0.55400 -0.08700
H 	H 	0.94750 0.14090 0.54740 0.03100
H 	H 	0.92570 0.09500 0.72000 0.00700
N 	N 	0.10600 0.55190 0.12200 -0.33000
H 	H 	0.12090 0.56540 0.27700 0.07200
H 	H 	0.13790 0.52280 0.11000 0.07000
N 	N 	0.15900 0.70850 0.87400 -0.26500
H 	H 	0.12640 0.73790 0.87830 0.07600
H 	H 	0.14670 0.69500 0.71910 0.05900
N 	N 	0.35220 0.70000 0.62100 -0.29700
H 	H 	0.38470 0.72880 0.61240 0.08400
H 	H 	0.36650 0.68530 0.77540 0.08400
N 	N 	0.40300 0.55040 0.39000 -0.29000
H 	H 	0.38860 0.56470 0.23550 0.05600
H 	H 	0.37030 0.52180 0.39850 0.06900
C 	C 	0.09740 0.61050 0.96400 0.11700
H 	H 	0.06210 0.64080 0.97550 -0.04600
H 	H 	0.08100 0.59520 0.79720 -0.07200
C 	C 	0.16560 0.64890 0.03300 -0.20000
H 	H 	0.18150 0.66440 0.19950 0.00700
H 	H 	0.20090 0.61810 0.02470 0.02800
C 	C 	0.34070 0.64290 0.45500 -0.02300
H 	H 	0.32700 0.65830 0.28970 -0.03600
H 	H 	0.30510 0.61200 0.46170 -0.00900
C 	C 	0.41210 0.60980 0.55400 -0.06700
H 	H 	0.44750 0.64090 0.54740 0.00800
H 	H 	0.42570 0.59500 0.72000 -0.00900
N 	N 	0.39400 0.05190 0.37800 -0.28100
H 	H 	0.37910 0.06540 0.22300 0.04700
H 	H 	0.36210 0.02280 0.39000 0.05100
N 	N 	0.34100 0.20850 0.62600 -0.31400
H 	H 	0.37360 0.23790 0.62170 0.08200
H 	H 	0.35330 0.19500 0.78090 0.07800
N 	N 	0.14780 0.20000 0.87900 -0.24800
H 	H 	0.11530 0.22880 0.88760 0.07600
H 	H 	0.13350 0.18530 0.72460 0.06000
N 	N 	0.09700 0.05040 0.11000 -0.33000
H 	H 	0.11140 0.06470 0.26450 0.06000
H 	H 	0.12970 0.02180 0.10150 0.05000
C 	C 	0.40260 0.11050 0.53600 -0.05900
H 	H 	0.43790 0.14080 0.52450 0.00200
H 	H 	0.41900 0.09520 0.70280 -0.01700
C 	C 	0.33440 0.14890 0.46700 -0.03100
H 	H 	0.31850 0.16440 0.30050 -0.04300
H 	H 	0.29910 0.11810 0.47530 -0.01400
C 	C 	0.15930 0.14290 0.04500 -0.18700
H 	H 	0.17300 0.15830 0.21030 0.01100
H 	H 	0.19490 0.11200 0.03830 0.02100
C 	C 	0.08790 0.10980 0.94600 0.09800
H 	H 	0.05250 0.14090 0.95260 -0.04300
H 	H 	0.07430 0.09500 0.78000 -0.07400
N 	N 	0.89400 0.55190 0.37800 -0.27300
H 	H 	0.87910 0.56540 0.22300 0.06200
H 	H 	0.86210 0.52280 0.39000 0.07200
N 	N 	0.84100 0.70850 0.62600 -0.31800
H 	H 	0.87360 0.73790 0.62170 0.08900
H 	H 	0.85330 0.69500 0.78090 0.08400
N 	N 	0.64780 0.70000 0.87900 -0.25000
H 	H 	0.61530 0.72880 0.88760 0.08400
H 	H 	0.63350 0.68530 0.72460 0.06700
N 	N 	0.59700 0.55040 0.11000 -0.33100
H 	H 	0.61140 0.56470 0.26450 0.07200
H 	H 	0.62970 0.52180 0.10150 0.06900
C 	C 	0.90260 0.61050 0.53600 -0.06900
H 	H 	0.93790 0.64080 0.52450 0.02200
H 	H 	0.91900 0.59520 0.70280 0.00600
C 	C 	0.83440 0.64890 0.46700 -0.02400
H 	H 	0.81850 0.66440 0.30050 -0.04300
H 	H 	0.79910 0.61810 0.47530 -0.00900
C 	C 	0.65930 0.64290 0.04500 -0.18600
H 	H 	0.67300 0.65830 0.21030 0.01300
H 	H 	0.69490 0.61200 0.03830 0.02700
C 	C 	0.58790 0.60980 0.94600 0.09400
H 	H 	0.55250 0.64090 0.95260 -0.02600
H 	H 	0.57430 0.59500 0.78000 -0.06000
N 	N 	0.39400 0.94810 0.87800 -0.24400
H 	H 	0.37910 0.93460 0.72300 0.08000
H 	H 	0.36210 0.97720 0.89000 0.10300
N 	N 	0.34100 0.79150 0.12600 -0.34300
H 	H 	0.37360 0.76210 0.12170 0.07100
H 	H 	0.35330 0.80500 0.28090 0.07100
N 	N 	0.14780 0.80000 0.37900 -0.28300
H 	H 	0.11530 0.77120 0.38760 0.06600
H 	H 	0.13350 0.81470 0.22460 0.05600
N 	N 	0.09700 0.94960 0.61000 -0.29900
H 	H 	0.11140 0.93530 0.76450 0.09300
H 	H 	0.12970 0.97820 0.60150 0.10200
C 	C 	0.40260 0.88950 0.03600 -0.18500
H 	H 	0.43790 0.85920 0.02450 0.02900
H 	H 	0.41900 0.90480 0.20280 0.02300
C 	C 	0.33440 0.85110 0.96700 0.09600
H 	H 	0.31850 0.83560 0.80050 -0.06500
H 	H 	0.29910 0.88190 0.97530 -0.02300
C 	C 	0.15930 0.85710 0.54500 -0.06000
H 	H 	0.17300 0.84170 0.71030 -0.00900
H 	H 	0.19490 0.88800 0.53830 0.01100
C 	C 	0.08790 0.89020 0.44600 -0.02700
H 	H 	0.05250 0.85910 0.45260 -0.01600
H 	H 	0.07430 0.90500 0.28000 -0.03100
N 	N 	0.89400 0.44810 0.87800 -0.23800
H 	H 	0.87910 0.43460 0.72300 0.07200
H 	H 	0.86210 0.47720 0.89000 0.08300
N 	N 	0.84100 0.29150 0.12600 -0.34600
H 	H 	0.87360 0.26210 0.12170 0.07800
H 	H 	0.85330 0.30500 0.28090 0.07300
N 	N 	0.64780 0.30000 0.37900 -0.28700
H 	H 	0.61530 0.27120 0.38760 0.07200
H 	H 	0.63350 0.31470 0.22460 0.05800
N 	N 	0.59700 0.44960 0.61000 -0.30100
H 	H 	0.61140 0.43530 0.76450 0.08200
H 	H 	0.62970 0.47820 0.60150 0.08000
C 	C 	0.90260 0.38950 0.03600 -0.19900
H 	H 	0.93790 0.35920 0.02450 0.04500
H 	H 	0.91900 0.40480 0.20280 0.02900
C 	C 	0.83440 0.35110 0.96700 0.10500
H 	H 	0.81850 0.33560 0.80050 -0.06800
H 	H 	0.79910 0.38190 0.97530 -0.03200
C 	C 	0.65930 0.35710 0.54500 -0.04900
H 	H 	0.67300 0.34170 0.71030 -0.01400
H 	H 	0.69490 0.38800 0.53830 0.00100
C 	C 	0.58790 0.39020 0.44600 -0.04200
H 	H 	0.55250 0.35910 0.45260 -0.00100
H 	H 	0.57430 0.40500 0.28000 -0.03200
N 	N 	0.60600 0.94810 0.62200 -0.29100
H 	H 	0.62090 0.93460 0.77700 0.09700
H 	H 	0.63790 0.97720 0.61000 0.10200
N 	N 	0.65900 0.79150 0.37400 -0.30300
H 	H 	0.62640 0.76210 0.37830 0.07000
H 	H 	0.64670 0.80500 0.21910 0.05500
N 	N 	0.85220 0.80000 0.12100 -0.33200
H 	H 	0.88470 0.77120 0.11240 0.08100
H 	H 	0.86650 0.81470 0.27540 0.08300
N 	N 	0.90300 0.94960 0.89000 -0.24000
H 	H 	0.88860 0.93530 0.73550 0.08400
H 	H 	0.87030 0.97820 0.89850 0.10400
C 	C 	0.59740 0.88950 0.46400 -0.02500
H 	H 	0.56210 0.85920 0.47550 -0.00400
H 	H 	0.58100 0.90480 0.29720 -0.02400
C 	C 	0.66560 0.85110 0.53300 -0.06400
H 	H 	0.68150 0.83560 0.69950 -0.01600
H 	H 	0.70090 0.88190 0.52470 0.00900
C 	C 	0.84070 0.85710 0.95500 0.11700
H 	H 	0.82700 0.84170 0.78970 -0.06300
H 	H 	0.80510 0.88800 0.96170 -0.02800
C 	C 	0.91210 0.89020 0.05400 -0.20700
H 	H 	0.94750 0.85910 0.04740 0.05700
H 	H 	0.92570 0.90500 0.22000 0.04600
N 	N 	0.10600 0.44810 0.62200 -0.29900
H 	H 	0.12090 0.43460 0.77700 0.08200
H 	H 	0.13790 0.47720 0.61000 0.08000
N 	N 	0.15900 0.29150 0.37400 -0.29900
H 	H 	0.12640 0.26210 0.37830 0.06400
H 	H 	0.14670 0.30500 0.21910 0.04800
N 	N 	0.35220 0.30000 0.12100 -0.32900
H 	H 	0.38470 0.27120 0.11240 0.07300
H 	H 	0.36650 0.31470 0.27540 0.07400
N 	N 	0.40300 0.44960 0.89000 -0.25500
H 	H 	0.38860 0.43530 0.73550 0.06600
H 	H 	0.37030 0.47820 0.89850 0.08000
C 	C 	0.09740 0.38950 0.46400 -0.01500
H 	H 	0.06210 0.35920 0.47550 -0.02400
H 	H 	0.08100 0.40480 0.29720 -0.04700
C 	C 	0.16560 0.35110 0.53300 -0.07100
H 	H 	0.18150 0.33560 0.69950 -0.01700
H 	H 	0.20090 0.38190 0.52470 0.00500
C 	C 	0.34070 0.35710 0.95500 0.11600
H 	H 	0.32700 0.34170 0.78970 -0.06500
H 	H 	0.30510 0.38800 0.96170 -0.03500
C 	C 	0.41210 0.39020 0.05400 -0.20300
H 	H 	0.44750 0.35910 0.04740 0.03400
H 	H 	0.42570 0.40500 0.22000 0.01700
Ag	Ag	0.50000 0.00000 -0.00000 0.38600
Ag	Ag	-0.00000 0.50000 -0.00000 0.38700
Ag	Ag	0.50000 0.00000 0.50000 0.41200
Ag	Ag	0.00000 0.50000 0.50000 0.41300
Ag	Ag	0.75000 0.25000 -0.00000 0.44900
Ag	Ag	0.25000 0.25000 0.50000 0.47500
Ag	Ag	0.25000 0.75000 -0.00000 0.45000
Ag	Ag	0.75000 0.75000 0.50000 0.47700
Ag	Ag	0.75000 0.25000 0.50000 0.45300
Ag	Ag	0.25000 0.25000 -0.00000 0.42600
Ag	Ag	0.25000 0.75000 0.50000 0.45400
Ag	Ag	0.75000 0.75000 -0.00000 0.42900
Ag	Ag	-0.00000 0.00000 0.50000 0.40200
Ag	Ag	0.50000 0.50000 0.50000 0.45500
Ag	Ag	-0.00000 0.00000 -0.00000 0.37700
Ag	Ag	0.50000 0.50000 -0.00000 0.42800
