data_crystal

_cell_length_a 20.86200
_cell_length_b 19.68200
_cell_length_c 6.08900
_cell_angle_alpha 90.00000
_cell_angle_beta  114.27100
_cell_angle_gamma 90.00000

_symmetry_space_group_name_	'P 1'
_symmetry_space_group_name_H-M	'P 1'

loop_
_symmetry_equiv_pos_as_xyz
  x,y,z

loop_
_atom_site_label
_atom_site_type_symbol
_atom_site_fract_x
_atom_site_fract_y
_atom_site_fract_z
_atom_site_charge
N 	N 	0.61160 0.04700 0.14100 -0.32100
H 	H 	0.62630 0.06150 0.29400 0.06500
H 	H 	0.64320 0.01760 0.12960 0.05400
N 	N 	0.65090 0.20210 0.85400 -0.25500
H 	H 	0.61670 0.22980 0.85500 0.08100
H 	H 	0.63990 0.18750 0.70240 0.06000
N 	N 	0.85430 0.19740 0.63500 -0.30000
H 	H 	0.88850 0.22630 0.64140 0.09200
H 	H 	0.86550 0.17980 0.78230 0.08700
N 	N 	0.91040 0.05780 0.37900 -0.27700
H 	H 	0.90480 0.07860 0.24070 0.05500
H 	H 	0.87280 0.03090 0.34890 0.05300
C 	C 	0.59820 0.10320 0.97300 0.11200
H 	H 	0.56210 0.13220 0.98490 -0.03700
H 	H 	0.58070 0.08560 0.81030 -0.07400
C 	C 	0.66360 0.14440 0.02500 -0.19700
H 	H 	0.68090 0.16200 0.18770 0.00500
H 	H 	0.69970 0.11520 0.01450 0.02000
C 	C 	0.84470 0.14400 0.45900 -0.00900
H 	H 	0.83470 0.16270 0.30070 -0.04000
H 	H 	0.80730 0.11320 0.44810 -0.02100
C 	C 	0.91530 0.10930 0.56400 -0.08300
H 	H 	0.95300 0.14140 0.58760 0.03600
H 	H 	0.92350 0.08790 0.71630 0.00100
N 	N 	0.11160 0.54700 0.14100 -0.32800
H 	H 	0.12630 0.56150 0.29400 0.07400
H 	H 	0.14320 0.51760 0.12960 0.07400
N 	N 	0.15090 0.70210 0.85400 -0.25100
H 	H 	0.11670 0.72980 0.85500 0.07500
H 	H 	0.13990 0.68750 0.70240 0.05700
N 	N 	0.35430 0.69740 0.63500 -0.29600
H 	H 	0.38850 0.72630 0.64140 0.08500
H 	H 	0.36550 0.67980 0.78230 0.08400
N 	N 	0.41040 0.55780 0.37900 -0.29200
H 	H 	0.40480 0.57860 0.24070 0.05300
H 	H 	0.37280 0.53090 0.34890 0.06800
C 	C 	0.09820 0.60320 0.97300 0.12800
H 	H 	0.06210 0.63220 0.98490 -0.05300
H 	H 	0.08070 0.58560 0.81030 -0.07900
C 	C 	0.16360 0.64440 0.02500 -0.20800
H 	H 	0.18090 0.66200 0.18770 0.00900
H 	H 	0.19970 0.61520 0.01450 0.02900
C 	C 	0.34470 0.64400 0.45900 -0.02300
H 	H 	0.33470 0.66270 0.30070 -0.03600
H 	H 	0.30730 0.61320 0.44810 -0.01100
C 	C 	0.41530 0.60930 0.56400 -0.06500
H 	H 	0.45300 0.64140 0.58760 0.01200
H 	H 	0.42350 0.58790 0.71630 -0.01200
N 	N 	0.38840 0.04700 0.35900 -0.27900
H 	H 	0.37370 0.06150 0.20600 0.04700
H 	H 	0.35680 0.01760 0.37040 0.05200
N 	N 	0.34910 0.20210 0.64600 -0.29900
H 	H 	0.38330 0.22980 0.64500 0.08300
H 	H 	0.36010 0.18750 0.79760 0.07800
N 	N 	0.14570 0.19740 0.86500 -0.24600
H 	H 	0.11150 0.22630 0.85860 0.07400
H 	H 	0.13450 0.17980 0.71770 0.06000
N 	N 	0.08960 0.05780 0.12100 -0.33400
H 	H 	0.09520 0.07860 0.25930 0.05700
H 	H 	0.12720 0.03090 0.15110 0.05600
C 	C 	0.40180 0.10320 0.52700 -0.05000
H 	H 	0.43790 0.13220 0.51510 -0.00600
H 	H 	0.41930 0.08560 0.68970 -0.02600
C 	C 	0.33640 0.14440 0.47500 -0.03800
H 	H 	0.31910 0.16200 0.31230 -0.04100
H 	H 	0.30030 0.11520 0.48550 -0.01200
C 	C 	0.15530 0.14400 0.04100 -0.18900
H 	H 	0.16530 0.16270 0.19930 0.01100
H 	H 	0.19270 0.11320 0.05190 0.02100
C 	C 	0.08470 0.10930 0.93600 0.10200
H 	H 	0.04700 0.14140 0.91240 -0.04500
H 	H 	0.07650 0.08790 0.78370 -0.07800
N 	N 	0.88840 0.54700 0.35900 -0.27200
H 	H 	0.87370 0.56150 0.20600 0.06200
H 	H 	0.85680 0.51760 0.37040 0.07400
N 	N 	0.84910 0.70210 0.64600 -0.30300
H 	H 	0.88330 0.72980 0.64500 0.09200
H 	H 	0.86010 0.68750 0.79760 0.08500
N 	N 	0.64570 0.69740 0.86500 -0.24900
H 	H 	0.61150 0.72630 0.85860 0.08300
H 	H 	0.63450 0.67980 0.71770 0.06700
N 	N 	0.58960 0.55780 0.12100 -0.33300
H 	H 	0.59520 0.57860 0.25930 0.06800
H 	H 	0.62720 0.53090 0.15110 0.07300
C 	C 	0.90180 0.60320 0.52700 -0.06000
H 	H 	0.93790 0.63220 0.51510 0.01500
H 	H 	0.91930 0.58560 0.68970 -0.00200
C 	C 	0.83640 0.64440 0.47500 -0.03000
H 	H 	0.81910 0.66200 0.31230 -0.04100
H 	H 	0.80030 0.61520 0.48550 -0.00800
C 	C 	0.65530 0.64400 0.04100 -0.18600
H 	H 	0.66530 0.66270 0.19930 0.01200
H 	H 	0.69270 0.61320 0.05190 0.02700
C 	C 	0.58470 0.60930 0.93600 0.09800
H 	H 	0.54700 0.64140 0.91240 -0.02600
H 	H 	0.57650 0.58790 0.78370 -0.06300
N 	N 	0.38840 0.95300 0.85900 -0.24200
H 	H 	0.37370 0.93850 0.70600 0.08200
H 	H 	0.35680 0.98240 0.87040 0.10600
N 	N 	0.34910 0.79790 0.14600 -0.32900
H 	H 	0.38330 0.77020 0.14500 0.07400
H 	H 	0.36010 0.81250 0.29760 0.07200
N 	N 	0.14570 0.80260 0.36500 -0.28100
H 	H 	0.11150 0.77370 0.35860 0.06500
H 	H 	0.13450 0.82020 0.21770 0.05600
N 	N 	0.08960 0.94220 0.62100 -0.30000
H 	H 	0.09520 0.92140 0.75930 0.08400
H 	H 	0.12720 0.96910 0.65110 0.10200
C 	C 	0.40180 0.89680 0.02700 -0.17700
H 	H 	0.43790 0.86780 0.01510 0.02300
H 	H 	0.41930 0.91440 0.18970 0.01800
C 	C 	0.33640 0.85560 0.97500 0.09000
H 	H 	0.31910 0.83800 0.81230 -0.06200
H 	H 	0.30030 0.88480 0.98550 -0.02100
C 	C 	0.15530 0.85600 0.54100 -0.06100
H 	H 	0.16530 0.83730 0.69930 -0.01000
H 	H 	0.19270 0.88680 0.55190 0.01100
C 	C 	0.08470 0.89070 0.43600 -0.02400
H 	H 	0.04700 0.85860 0.41240 -0.01700
H 	H 	0.07650 0.91210 0.28370 -0.03200
N 	N 	0.88840 0.45300 0.85900 -0.23700
H 	H 	0.87370 0.43850 0.70600 0.07200
H 	H 	0.85680 0.48240 0.87040 0.08500
N 	N 	0.84910 0.29790 0.14600 -0.33200
H 	H 	0.88330 0.27020 0.14500 0.08100
H 	H 	0.86010 0.31250 0.29760 0.07500
N 	N 	0.64570 0.30260 0.36500 -0.28400
H 	H 	0.61150 0.27370 0.35860 0.07100
H 	H 	0.63450 0.32020 0.21770 0.05800
N 	N 	0.58960 0.44220 0.62100 -0.30300
H 	H 	0.59520 0.42140 0.75930 0.07800
H 	H 	0.62720 0.46910 0.65110 0.08200
C 	C 	0.90180 0.39680 0.02700 -0.19100
H 	H 	0.93790 0.36780 0.01510 0.03800
H 	H 	0.91930 0.41440 0.18970 0.02200
C 	C 	0.83640 0.35560 0.97500 0.10000
H 	H 	0.81910 0.33800 0.81230 -0.06600
H 	H 	0.80030 0.38480 0.98550 -0.03000
C 	C 	0.65530 0.35600 0.54100 -0.05100
H 	H 	0.66530 0.33730 0.69930 -0.01400
H 	H 	0.69270 0.38680 0.55190 0.00100
C 	C 	0.58470 0.39070 0.43600 -0.03700
H 	H 	0.54700 0.35860 0.41240 -0.00100
H 	H 	0.57650 0.41210 0.28370 -0.03600
N 	N 	0.61160 0.95300 0.64100 -0.28800
H 	H 	0.62630 0.93850 0.79400 0.10000
H 	H 	0.64320 0.98240 0.62960 0.10700
N 	N 	0.65090 0.79790 0.35400 -0.28900
H 	H 	0.61670 0.77020 0.35500 0.07100
H 	H 	0.63990 0.81250 0.20240 0.05500
N 	N 	0.85430 0.80260 0.13500 -0.33100
H 	H 	0.88850 0.77370 0.14140 0.08300
H 	H 	0.86550 0.82020 0.28230 0.08300
N 	N 	0.91040 0.94220 0.87900 -0.24000
H 	H 	0.90480 0.92140 0.74070 0.08000
H 	H 	0.87280 0.96910 0.84890 0.09900
C 	C 	0.59820 0.89680 0.47300 -0.01600
H 	H 	0.56210 0.86780 0.48490 -0.01000
H 	H 	0.58070 0.91440 0.31030 -0.02800
C 	C 	0.66360 0.85560 0.52500 -0.07000
H 	H 	0.68090 0.83800 0.68770 -0.01500
H 	H 	0.69970 0.88480 0.51450 0.01100
C 	C 	0.84470 0.85600 0.95900 0.11600
H 	H 	0.83470 0.83730 0.80070 -0.06200
H 	H 	0.80730 0.88680 0.94810 -0.03100
C 	C 	0.91530 0.89070 0.06400 -0.20500
H 	H 	0.95300 0.85860 0.08760 0.06200
H 	H 	0.92350 0.91210 0.21630 0.04300
N 	N 	0.11160 0.45300 0.64100 -0.29600
H 	H 	0.12630 0.43850 0.79400 0.08400
H 	H 	0.14320 0.48240 0.62960 0.08400
N 	N 	0.15090 0.29790 0.35400 -0.28500
H 	H 	0.11670 0.27020 0.35500 0.06300
H 	H 	0.13990 0.31250 0.20240 0.04800
N 	N 	0.35430 0.30260 0.13500 -0.32800
H 	H 	0.38850 0.27370 0.14140 0.07400
H 	H 	0.36550 0.32020 0.28230 0.07400
N 	N 	0.41040 0.44220 0.87900 -0.25600
H 	H 	0.40480 0.42140 0.74070 0.06300
H 	H 	0.37280 0.46910 0.84890 0.07800
C 	C 	0.09820 0.39680 0.47300 -0.00500
H 	H 	0.06210 0.36780 0.48490 -0.03000
H 	H 	0.08070 0.41440 0.31030 -0.05300
C 	C 	0.16360 0.35560 0.52500 -0.07800
H 	H 	0.18090 0.33800 0.68770 -0.01500
H 	H 	0.19970 0.38480 0.51450 0.00600
C 	C 	0.34470 0.35600 0.95900 0.11400
H 	H 	0.33470 0.33730 0.80070 -0.06500
H 	H 	0.30730 0.38680 0.94810 -0.03700
C 	C 	0.41530 0.39070 0.06400 -0.19900
H 	H 	0.45300 0.35860 0.08760 0.03800
H 	H 	0.42350 0.41210 0.21630 0.01300
Ag	Ag	0.50000 0.00000 -0.00000 0.38600
Ag	Ag	-0.00000 0.50000 -0.00000 0.38800
Ag	Ag	0.50000 0.00000 0.50000 0.41200
Ag	Ag	0.00000 0.50000 0.50000 0.41400
Ag	Ag	0.75000 0.25000 -0.00000 0.43000
Ag	Ag	0.25000 0.25000 0.50000 0.45500
Ag	Ag	0.25000 0.75000 -0.00000 0.43000
Ag	Ag	0.75000 0.75000 0.50000 0.45700
Ag	Ag	0.75000 0.25000 0.50000 0.44600
Ag	Ag	0.25000 0.25000 -0.00000 0.41900
Ag	Ag	0.25000 0.75000 0.50000 0.44600
Ag	Ag	0.75000 0.75000 -0.00000 0.42200
Ag	Ag	-0.00000 0.00000 0.50000 0.40800
Ag	Ag	0.50000 0.50000 0.50000 0.46200
Ag	Ag	-0.00000 0.00000 -0.00000 0.38300
Ag	Ag	0.50000 0.50000 -0.00000 0.43500
