data_crystal

_cell_length_a 20.77500
_cell_length_b 19.47900
_cell_length_c 5.95200
_cell_angle_alpha 90.00000
_cell_angle_beta  114.10000
_cell_angle_gamma 90.00000

_symmetry_space_group_name_	'P 1'
_symmetry_space_group_name_H-M	'P 1'

loop_
_symmetry_equiv_pos_as_xyz
  x,y,z

loop_
_atom_site_label
_atom_site_type_symbol
_atom_site_fract_x
_atom_site_fract_y
_atom_site_fract_z
_atom_site_charge
N 	N 	0.60800 0.04610 0.15300 -0.32500
H 	H 	0.62070 0.06060 0.30910 0.06400
H 	H 	0.64040 0.01650 0.14690 0.05500
N 	N 	0.65400 0.20360 0.87900 -0.25900
H 	H 	0.62090 0.23280 0.88610 0.08000
H 	H 	0.63980 0.18920 0.72210 0.06200
N 	N 	0.85360 0.19930 0.64100 -0.30200
H 	H 	0.88760 0.22800 0.64220 0.09400
H 	H 	0.86520 0.18260 0.79400 0.08700
N 	N 	0.90300 0.05250 0.38300 -0.27400
H 	H 	0.89050 0.06960 0.23070 0.05300
H 	H 	0.86850 0.02370 0.38040 0.05200
C 	C 	0.59670 0.10320 0.98400 0.11000
H 	H 	0.55990 0.13270 0.99030 -0.03700
H 	H 	0.58110 0.08570 0.81730 -0.07300
C 	C 	0.66320 0.14440 0.04700 -0.19400
H 	H 	0.67900 0.16130 0.21420 0.00600
H 	H 	0.69980 0.11470 0.03950 0.02200
C 	C 	0.84120 0.14420 0.46300 -0.00800
H 	H 	0.82910 0.16220 0.29850 -0.04400
H 	H 	0.80430 0.11350 0.46080 -0.02000
C 	C 	0.91210 0.10900 0.56100 -0.08500
H 	H 	0.94890 0.14030 0.56620 0.03300
H 	H 	0.92380 0.09110 0.72550 0.00300
N 	N 	0.10800 0.54610 0.15300 -0.33200
H 	H 	0.12070 0.56060 0.30910 0.07200
H 	H 	0.14040 0.51650 0.14690 0.07600
N 	N 	0.15400 0.70360 0.87900 -0.25500
H 	H 	0.12090 0.73280 0.88610 0.07400
H 	H 	0.13980 0.68920 0.72210 0.06000
N 	N 	0.35360 0.69930 0.64100 -0.29700
H 	H 	0.38760 0.72800 0.64220 0.08700
H 	H 	0.36520 0.68260 0.79400 0.08400
N 	N 	0.40300 0.55250 0.38300 -0.28900
H 	H 	0.39050 0.56960 0.23070 0.05600
H 	H 	0.36850 0.52370 0.38040 0.06900
C 	C 	0.09670 0.60320 0.98400 0.12600
H 	H 	0.05990 0.63270 0.99030 -0.05300
H 	H 	0.08110 0.58570 0.81730 -0.07800
C 	C 	0.16320 0.64440 0.04700 -0.20500
H 	H 	0.17900 0.66130 0.21420 0.01000
H 	H 	0.19980 0.61470 0.03950 0.03100
C 	C 	0.34120 0.64420 0.46300 -0.02300
H 	H 	0.32910 0.66220 0.29850 -0.04000
H 	H 	0.30430 0.61350 0.46080 -0.01000
C 	C 	0.41210 0.60900 0.56100 -0.06500
H 	H 	0.44890 0.64030 0.56620 0.00900
H 	H 	0.42380 0.59110 0.72550 -0.01200
N 	N 	0.39200 0.04610 0.34700 -0.28200
H 	H 	0.37930 0.06060 0.19090 0.04500
H 	H 	0.35960 0.01650 0.35310 0.05300
N 	N 	0.34600 0.20360 0.62100 -0.30400
H 	H 	0.37910 0.23280 0.61390 0.08000
H 	H 	0.36020 0.18920 0.77790 0.08000
N 	N 	0.14640 0.19930 0.85900 -0.24700
H 	H 	0.11240 0.22800 0.85780 0.07500
H 	H 	0.13480 0.18260 0.70600 0.05900
N 	N 	0.09700 0.05250 0.11700 -0.33000
H 	H 	0.10950 0.06960 0.26930 0.06100
H 	H 	0.13150 0.02370 0.11960 0.05100
C 	C 	0.40330 0.10320 0.51600 -0.05200
H 	H 	0.44010 0.13270 0.50970 -0.00500
H 	H 	0.41890 0.08570 0.68270 -0.02500
C 	C 	0.33680 0.14440 0.45300 -0.03600
H 	H 	0.32100 0.16130 0.28580 -0.04000
H 	H 	0.30020 0.11470 0.46050 -0.01100
C 	C 	0.15880 0.14420 0.03700 -0.18700
H 	H 	0.17090 0.16220 0.20150 0.00700
H 	H 	0.19570 0.11350 0.03920 0.02100
C 	C 	0.08790 0.10900 0.93900 0.10000
H 	H 	0.05110 0.14030 0.93380 -0.04500
H 	H 	0.07620 0.09110 0.77450 -0.07700
N 	N 	0.89200 0.54610 0.34700 -0.27500
H 	H 	0.87930 0.56060 0.19090 0.06100
H 	H 	0.85960 0.51650 0.35310 0.07600
N 	N 	0.84600 0.70360 0.62100 -0.30700
H 	H 	0.87910 0.73280 0.61390 0.08800
H 	H 	0.86020 0.68920 0.77790 0.08700
N 	N 	0.64640 0.69930 0.85900 -0.25000
H 	H 	0.61240 0.72800 0.85780 0.08400
H 	H 	0.63480 0.68260 0.70600 0.06600
N 	N 	0.59700 0.55250 0.11700 -0.33000
H 	H 	0.60950 0.56960 0.26930 0.07300
H 	H 	0.63150 0.52370 0.11960 0.07100
C 	C 	0.90330 0.60320 0.51600 -0.06200
H 	H 	0.94010 0.63270 0.50970 0.01600
H 	H 	0.91890 0.58570 0.68270 -0.00100
C 	C 	0.83680 0.64440 0.45300 -0.02800
H 	H 	0.82100 0.66130 0.28580 -0.04000
H 	H 	0.80020 0.61470 0.46050 -0.00700
C 	C 	0.65880 0.64420 0.03700 -0.18500
H 	H 	0.67090 0.66220 0.20150 0.00900
H 	H 	0.69570 0.61350 0.03920 0.02700
C 	C 	0.58790 0.60900 0.93900 0.09600
H 	H 	0.55110 0.64030 0.93380 -0.02800
H 	H 	0.57620 0.59110 0.77450 -0.06200
N 	N 	0.39200 0.95390 0.84700 -0.24500
H 	H 	0.37930 0.93940 0.69090 0.08000
H 	H 	0.35960 0.98350 0.85310 0.10800
N 	N 	0.34600 0.79640 0.12100 -0.33300
H 	H 	0.37910 0.76720 0.11390 0.06800
H 	H 	0.36020 0.81080 0.27790 0.07300
N 	N 	0.14640 0.80070 0.35900 -0.28200
H 	H 	0.11240 0.77200 0.35780 0.06600
H 	H 	0.13480 0.81740 0.20600 0.05500
N 	N 	0.09700 0.94750 0.61700 -0.29700
H 	H 	0.10950 0.93040 0.76930 0.09200
H 	H 	0.13150 0.97630 0.61960 0.10300
C 	C 	0.40330 0.89680 0.01600 -0.17800
H 	H 	0.44010 0.86730 0.00970 0.02300
H 	H 	0.41890 0.91430 0.18270 0.01800
C 	C 	0.33680 0.85560 0.95300 0.09100
H 	H 	0.32100 0.83870 0.78580 -0.06100
H 	H 	0.30020 0.88530 0.96050 -0.02000
C 	C 	0.15880 0.85580 0.53700 -0.06100
H 	H 	0.17090 0.83780 0.70150 -0.01300
H 	H 	0.19570 0.88650 0.53920 0.01100
C 	C 	0.08790 0.89100 0.43900 -0.02400
H 	H 	0.05110 0.85970 0.43380 -0.01800
H 	H 	0.07620 0.90890 0.27450 -0.03300
N 	N 	0.89200 0.45390 0.84700 -0.24000
H 	H 	0.87930 0.43940 0.69090 0.07100
H 	H 	0.85960 0.48350 0.85310 0.08600
N 	N 	0.84600 0.29640 0.12100 -0.33600
H 	H 	0.87910 0.26720 0.11390 0.07600
H 	H 	0.86020 0.31080 0.27790 0.07600
N 	N 	0.64640 0.30070 0.35900 -0.28600
H 	H 	0.61240 0.27200 0.35780 0.07300
H 	H 	0.63480 0.31740 0.20600 0.05600
N 	N 	0.59700 0.44750 0.61700 -0.30000
H 	H 	0.60950 0.43040 0.76930 0.08300
H 	H 	0.63150 0.47630 0.61960 0.08100
C 	C 	0.90330 0.39680 0.01600 -0.19200
H 	H 	0.94010 0.36730 0.00970 0.04000
H 	H 	0.91890 0.41430 0.18270 0.02300
C 	C 	0.83680 0.35560 0.95300 0.10100
H 	H 	0.82100 0.33870 0.78580 -0.06500
H 	H 	0.80020 0.38530 0.96050 -0.02900
C 	C 	0.65880 0.35580 0.53700 -0.05000
H 	H 	0.67090 0.33780 0.70150 -0.01700
H 	H 	0.69570 0.38650 0.53920 0.00100
C 	C 	0.58790 0.39100 0.43900 -0.03800
H 	H 	0.55110 0.35970 0.43380 -0.00300
H 	H 	0.57620 0.40890 0.27450 -0.03600
N 	N 	0.60800 0.95390 0.65300 -0.29200
H 	H 	0.62070 0.93940 0.80910 0.09900
H 	H 	0.64040 0.98350 0.64690 0.11000
N 	N 	0.65400 0.79640 0.37900 -0.29300
H 	H 	0.62090 0.76720 0.38610 0.06900
H 	H 	0.63980 0.81080 0.22210 0.05700
N 	N 	0.85360 0.80070 0.14100 -0.33200
H 	H 	0.88760 0.77200 0.14220 0.08500
H 	H 	0.86520 0.81740 0.29400 0.08200
N 	N 	0.90300 0.94750 0.88300 -0.23800
H 	H 	0.89050 0.93040 0.73070 0.08300
H 	H 	0.86850 0.97630 0.88040 0.10200
C 	C 	0.59670 0.89680 0.48400 -0.01700
H 	H 	0.55990 0.86730 0.49030 -0.01000
H 	H 	0.58110 0.91430 0.31730 -0.02800
C 	C 	0.66320 0.85560 0.54700 -0.06900
H 	H 	0.67900 0.83870 0.71420 -0.01300
H 	H 	0.69980 0.88530 0.53950 0.01200
C 	C 	0.84120 0.85580 0.96300 0.11500
H 	H 	0.82910 0.83780 0.79850 -0.06600
H 	H 	0.80430 0.88650 0.96080 -0.03000
C 	C 	0.91210 0.89100 0.06100 -0.20400
H 	H 	0.94890 0.85970 0.06620 0.05900
H 	H 	0.92380 0.90890 0.22550 0.04300
N 	N 	0.10800 0.45390 0.65300 -0.30000
H 	H 	0.12070 0.43940 0.80910 0.08300
H 	H 	0.14040 0.48350 0.64690 0.08700
N 	N 	0.15400 0.29640 0.37900 -0.28900
H 	H 	0.12090 0.26720 0.38610 0.06200
H 	H 	0.13980 0.31080 0.22210 0.05000
N 	N 	0.35360 0.30070 0.14100 -0.32900
H 	H 	0.38760 0.27200 0.14220 0.07600
H 	H 	0.36520 0.31740 0.29400 0.07400
N 	N 	0.40300 0.44750 0.88300 -0.25400
H 	H 	0.39050 0.43040 0.73070 0.06600
H 	H 	0.36850 0.47630 0.88040 0.08000
C 	C 	0.09670 0.39680 0.48400 -0.00700
H 	H 	0.05990 0.36730 0.49030 -0.03100
H 	H 	0.08110 0.41430 0.31730 -0.05300
C 	C 	0.16320 0.35560 0.54700 -0.07700
H 	H 	0.17900 0.33870 0.71420 -0.01300
H 	H 	0.19980 0.38530 0.53950 0.00800
C 	C 	0.34120 0.35580 0.96300 0.11400
H 	H 	0.32910 0.33780 0.79850 -0.06800
H 	H 	0.30430 0.38650 0.96080 -0.03600
C 	C 	0.41210 0.39100 0.06100 -0.19900
H 	H 	0.44890 0.35970 0.06620 0.03400
H 	H 	0.42380 0.40890 0.22550 0.01300
Ag	Ag	0.50000 0.00000 -0.00000 0.39100
Ag	Ag	-0.00000 0.50000 -0.00000 0.39200
Ag	Ag	0.50000 0.00000 0.50000 0.41700
Ag	Ag	0.00000 0.50000 0.50000 0.41800
Ag	Ag	0.75000 0.25000 -0.00000 0.43500
Ag	Ag	0.25000 0.25000 0.50000 0.46000
Ag	Ag	0.25000 0.75000 -0.00000 0.43500
Ag	Ag	0.75000 0.75000 0.50000 0.46200
Ag	Ag	0.75000 0.25000 0.50000 0.45100
Ag	Ag	0.25000 0.25000 -0.00000 0.42400
Ag	Ag	0.25000 0.75000 0.50000 0.45100
Ag	Ag	0.75000 0.75000 -0.00000 0.42600
Ag	Ag	0.00000 0.00000 0.50000 0.40100
Ag	Ag	0.50000 0.50000 0.50000 0.45500
Ag	Ag	-0.00000 0.00000 -0.00000 0.37600
Ag	Ag	0.50000 0.50000 -0.00000 0.42800
