data_crystal

_cell_length_a 10.50800
_cell_length_b 10.46400
_cell_length_c 6.33600
_cell_angle_alpha 90.00000
_cell_angle_beta  115.49000
_cell_angle_gamma 90.00000

_symmetry_space_group_name_	'P 1'
_symmetry_space_group_name_H-M	'P 1'

loop_
_symmetry_equiv_pos_as_xyz
  x,y,z

loop_
_atom_site_label
_atom_site_type_symbol
_atom_site_fract_x
_atom_site_fract_y
_atom_site_fract_z
_atom_site_charge
C 	C 	0.31510 0.20970 0.54610 -0.07300
H 	H 	0.39640 0.26460 0.58390 0.01200
H 	H 	0.32460 0.16880 0.68960 -0.02100
N 	N 	0.31500 0.11160 0.38250 -0.28200
H 	H 	0.30210 0.14960 0.24740 0.04000
H 	H 	0.24110 0.05930 0.35190 0.03000
C 	C 	0.81510 0.70970 0.54610 -0.07800
H 	H 	0.89640 0.76460 0.58390 0.05000
H 	H 	0.82460 0.66880 0.68960 0.01500
N 	N 	0.81500 0.61160 0.38250 -0.27200
H 	H 	0.80210 0.64960 0.24740 0.07300
H 	H 	0.74110 0.55930 0.35190 0.07200
C 	C 	0.68490 0.20970 0.95390 0.07300
H 	H 	0.60360 0.26460 0.91610 -0.02600
H 	H 	0.67540 0.16880 0.81040 -0.05800
N 	N 	0.68500 0.11160 0.11750 -0.32400
H 	H 	0.69790 0.14960 0.25260 0.06300
H 	H 	0.75890 0.05930 0.14810 0.05700
C 	C 	0.18490 0.70970 0.95390 0.07800
H 	H 	0.10360 0.76460 0.91610 -0.04200
H 	H 	0.17540 0.66880 0.81040 -0.06000
N 	N 	0.18500 0.61160 0.11750 -0.32800
H 	H 	0.19790 0.64960 0.25260 0.06500
H 	H 	0.25890 0.55930 0.14810 0.07100
C 	C 	0.68490 0.79030 0.45390 -0.01600
H 	H 	0.60360 0.73540 0.41610 -0.00300
H 	H 	0.67540 0.83120 0.31040 -0.01000
N 	N 	0.68500 0.88840 0.61750 -0.29600
H 	H 	0.69790 0.85040 0.75260 0.09600
H 	H 	0.75890 0.94070 0.64810 0.12000
C 	C 	0.18490 0.29030 0.45390 -0.01000
H 	H 	0.10360 0.23540 0.41610 -0.04300
H 	H 	0.17540 0.33120 0.31040 -0.04700
N 	N 	0.18500 0.38840 0.61750 -0.30600
H 	H 	0.19790 0.35040 0.75260 0.06400
H 	H 	0.25890 0.44070 0.64810 0.07800
C 	C 	0.31510 0.79030 0.04610 -0.16200
H 	H 	0.39640 0.73540 0.08390 0.03400
H 	H 	0.32460 0.83120 0.18960 0.02600
N 	N 	0.31500 0.88840 0.88250 -0.25100
H 	H 	0.30210 0.85040 0.74740 0.07300
H 	H 	0.24110 0.94070 0.85190 0.09300
C 	C 	0.81510 0.29030 0.04610 -0.16600
H 	H 	0.89640 0.23540 0.08390 0.05000
H 	H 	0.82460 0.33120 0.18960 0.02700
N 	N 	0.81500 0.38840 0.88250 -0.24800
H 	H 	0.80210 0.35040 0.74740 0.07100
H 	H 	0.74110 0.44070 0.85190 0.07900
Ag	Ag	0.50000 0.00000 0.50000 0.41100
Ag	Ag	0.00000 0.50000 0.50000 0.41200
Ag	Ag	0.50000 0.00000 -0.00000 0.39400
Ag	Ag	-0.00000 0.50000 -0.00000 0.39500
