data_crystal

_cell_length_a 10.59600
_cell_length_b 10.29500
_cell_length_c 6.14100
_cell_angle_alpha 90.00000
_cell_angle_beta  114.67000
_cell_angle_gamma 90.00000

_symmetry_space_group_name_	'P 1'
_symmetry_space_group_name_H-M	'P 1'

loop_
_symmetry_equiv_pos_as_xyz
  x,y,z

loop_
_atom_site_label
_atom_site_type_symbol
_atom_site_fract_x
_atom_site_fract_y
_atom_site_fract_z
_atom_site_charge
C 	C 	0.31800 0.21290 0.54500 -0.07600
H 	H 	0.39310 0.27040 0.55940 0.00900
H 	H 	0.33770 0.17620 0.70170 -0.02000
N 	N 	0.30330 0.10880 0.37300 -0.27700
H 	H 	0.28380 0.14300 0.22750 0.03900
H 	H 	0.23340 0.05530 0.36050 0.03300
C 	C 	0.81800 0.71290 0.54500 -0.07900
H 	H 	0.89310 0.77040 0.55940 0.04800
H 	H 	0.83770 0.67620 0.70170 0.01500
N 	N 	0.80330 0.60880 0.37300 -0.26900
H 	H 	0.78380 0.64300 0.22750 0.07200
H 	H 	0.73340 0.55530 0.36050 0.07400
C 	C 	0.68200 0.21290 0.95500 0.06500
H 	H 	0.60690 0.27040 0.94060 -0.02500
H 	H 	0.66230 0.17620 0.79830 -0.05900
N 	N 	0.69670 0.10880 0.12700 -0.31900
H 	H 	0.71620 0.14300 0.27250 0.06500
H 	H 	0.76660 0.05530 0.13950 0.05800
C 	C 	0.18200 0.71290 0.95500 0.07100
H 	H 	0.10690 0.77040 0.94060 -0.03900
H 	H 	0.16230 0.67620 0.79830 -0.06200
N 	N 	0.19670 0.60880 0.12700 -0.32200
H 	H 	0.21620 0.64300 0.27250 0.06900
H 	H 	0.26660 0.55530 0.13950 0.07300
C 	C 	0.68200 0.78710 0.45500 -0.01600
H 	H 	0.60690 0.72960 0.44060 -0.00300
H 	H 	0.66230 0.82380 0.29830 -0.01500
N 	N 	0.69670 0.89120 0.62700 -0.29200
H 	H 	0.71620 0.85700 0.77250 0.10100
H 	H 	0.76660 0.94470 0.63950 0.12200
C 	C 	0.18200 0.28710 0.45500 -0.01200
H 	H 	0.10690 0.22960 0.44060 -0.04200
H 	H 	0.16230 0.32380 0.29830 -0.05100
N 	N 	0.19670 0.39120 0.62700 -0.30100
H 	H 	0.21620 0.35700 0.77250 0.06900
H 	H 	0.26660 0.44470 0.63950 0.08100
C 	C 	0.31800 0.78710 0.04500 -0.15600
H 	H 	0.39310 0.72960 0.05940 0.03100
H 	H 	0.33770 0.82380 0.20170 0.02200
N 	N 	0.30330 0.89120 0.87300 -0.24900
H 	H 	0.28380 0.85700 0.72750 0.07500
H 	H 	0.23340 0.94470 0.86050 0.09700
C 	C 	0.81800 0.28710 0.04500 -0.16200
H 	H 	0.89310 0.22960 0.05940 0.04500
H 	H 	0.83770 0.32380 0.20170 0.02500
N 	N 	0.80330 0.39120 0.87300 -0.24600
H 	H 	0.78380 0.35700 0.72750 0.07100
H 	H 	0.73340 0.44470 0.86050 0.08100
Ag	Ag	0.50000 0.00000 0.50000 0.40400
Ag	Ag	0.00000 0.50000 0.50000 0.40400
Ag	Ag	0.50000 0.00000 -0.00000 0.38600
Ag	Ag	-0.00000 0.50000 -0.00000 0.38700
