data_crystal

_cell_length_a 10.44020
_cell_length_b 10.51300
_cell_length_c 6.30210
_cell_angle_alpha 90.00000
_cell_angle_beta  115.21700
_cell_angle_gamma 90.00000

_symmetry_space_group_name_	'P 1'
_symmetry_space_group_name_H-M	'P 1'

loop_
_symmetry_equiv_pos_as_xyz
  x,y,z

loop_
_atom_site_label
_atom_site_type_symbol
_atom_site_fract_x
_atom_site_fract_y
_atom_site_fract_z
_atom_site_charge
C 	C 	0.31600 0.21030 0.54600 -0.07700
H 	H 	0.39700 0.26510 0.57870 0.01100
H 	H 	0.32760 0.17120 0.69250 -0.01900
N 	N 	0.31360 0.11060 0.38170 -0.28100
H 	H 	0.29970 0.14710 0.24440 0.03900
H 	H 	0.23960 0.05870 0.35480 0.03000
C 	C 	0.81600 0.71030 0.54600 -0.08000
H 	H 	0.89700 0.76510 0.57870 0.05000
H 	H 	0.82760 0.67120 0.69250 0.01600
N 	N 	0.81360 0.61060 0.38170 -0.27200
H 	H 	0.79970 0.64710 0.24440 0.07300
H 	H 	0.73960 0.55870 0.35480 0.07200
C 	C 	0.68400 0.21030 0.95400 0.07000
H 	H 	0.60300 0.26510 0.92130 -0.02500
H 	H 	0.67240 0.17120 0.80750 -0.05700
N 	N 	0.68640 0.11060 0.11830 -0.32300
H 	H 	0.70030 0.14710 0.25560 0.06300
H 	H 	0.76040 0.05870 0.14520 0.05700
C 	C 	0.18400 0.71030 0.95400 0.07500
H 	H 	0.10300 0.76510 0.92130 -0.04000
H 	H 	0.17240 0.67120 0.80750 -0.05900
N 	N 	0.18640 0.61060 0.11830 -0.32700
H 	H 	0.20030 0.64710 0.25560 0.06500
H 	H 	0.26040 0.55870 0.14520 0.07100
C 	C 	0.68400 0.78970 0.45400 -0.01700
H 	H 	0.60300 0.73490 0.42130 -0.00200
H 	H 	0.67240 0.82880 0.30750 -0.01000
N 	N 	0.68640 0.88940 0.61830 -0.29500
H 	H 	0.70030 0.85290 0.75560 0.09700
H 	H 	0.76040 0.94130 0.64520 0.12000
C 	C 	0.18400 0.28970 0.45400 -0.01200
H 	H 	0.10300 0.23490 0.42130 -0.04200
H 	H 	0.17240 0.32880 0.30750 -0.04700
N 	N 	0.18640 0.38940 0.61830 -0.30500
H 	H 	0.20030 0.35290 0.75560 0.06400
H 	H 	0.26040 0.44130 0.64520 0.07800
C 	C 	0.31600 0.78970 0.04600 -0.16200
H 	H 	0.39700 0.73490 0.07870 0.03400
H 	H 	0.32760 0.82880 0.19250 0.02600
N 	N 	0.31360 0.88940 0.88170 -0.25100
H 	H 	0.29970 0.85290 0.74440 0.07400
H 	H 	0.23960 0.94130 0.85480 0.09400
C 	C 	0.81600 0.28970 0.04600 -0.16700
H 	H 	0.89700 0.23490 0.07870 0.05000
H 	H 	0.82760 0.32880 0.19250 0.02800
N 	N 	0.81360 0.38940 0.88170 -0.24800
H 	H 	0.79970 0.35290 0.74440 0.07100
H 	H 	0.73960 0.44130 0.85480 0.07900
Ag	Ag	0.50000 0.00000 0.50000 0.41100
Ag	Ag	-0.00000 0.50000 0.50000 0.41200
Ag	Ag	0.50000 0.00000 -0.00000 0.39300
Ag	Ag	-0.00000 0.50000 -0.00000 0.39500
