data_crystal

_cell_length_a 33.75530
_cell_length_b 33.75530
_cell_length_c 33.75530
_cell_angle_alpha 90.00000
_cell_angle_beta  90.00000
_cell_angle_gamma 90.00000

_symmetry_space_group_name_	'P 1'
_symmetry_space_group_name_H-M	'P 1'

loop_
_symmetry_equiv_pos_as_xyz
  x,y,z

loop_
_atom_site_label
_atom_site_type_symbol
_atom_site_fract_x
_atom_site_fract_y
_atom_site_fract_z
_atom_site_charge
Zn	Zn	0.22596 0.26854 0.30169 1.21400
C 	C 	0.15514 0.22360 0.27600 0.44500
C 	C 	0.11436 0.21070 0.28710 -0.21000
C 	C 	0.09620 0.22630 0.31960 0.14300
H 	H 	0.10950 0.24560 0.33400 -0.00200
C 	C 	0.05860 0.21480 0.33220 -0.23100
H 	H 	0.04650 0.22650 0.35400 0.11800
C 	C 	0.04030 0.18490 0.31080 0.19500
C 	C 	0.05740 0.17000 0.27800 -0.23500
H 	H 	0.04370 0.15140 0.26300 0.11800
C 	C 	0.09540 0.18190 0.26590 0.14300
H 	H 	0.10740 0.17040 0.24400 -0.00400
C 	C 	0.00471 0.13940 0.35500 0.03500
C 	C 	0.03910 0.12570 0.37160 -0.09400
H 	H 	0.06340 0.13540 0.36270 0.07200
C 	C 	0.03820 0.09800 0.40100 0.01100
H 	H 	0.06200 0.08920 0.41180 0.04400
C 	C 	0.00310 0.08270 0.41530 -0.06600
C 	C 	0.96815 0.09670 0.39870 -0.07800
H 	H 	0.94400 0.08730 0.40790 0.09000
C 	C 	0.96890 0.12400 0.36910 0.13300
C 	C 	0.93236 0.16480 0.32590 0.11800
C 	C 	0.96757 0.18330 0.31240 0.06000
C 	C 	0.96400 0.21310 0.28450 -0.10500
H 	H 	0.98670 0.22470 0.27410 0.07900
C 	C 	0.92683 0.22600 0.27180 0.01900
H 	H 	0.92480 0.24690 0.25410 0.04000
C 	C 	0.89302 0.20760 0.28570 -0.07700
C 	C 	0.89576 0.17780 0.31350 -0.07800
H 	H 	0.87290 0.16650 0.32380 0.08700
C 	C 	0.00200 0.05213 0.44687 0.34200
C 	C 	0.85238 0.21960 0.27280 0.38300
N 	N 	0.00364 0.16850 0.32510 -0.15300
O 	O 	0.17244 0.24622 0.29942 -0.52000
O 	O 	0.16890 0.21035 0.24417 -0.51300
O 	O 	0.93311 0.13470 0.35300 -0.22400
O 	O 	0.96858 0.04004 0.45802 -0.39600
O 	O 	0.03484 0.04125 0.46011 -0.41000
O 	O 	0.82479 0.19759 0.28348 -0.51700
O 	O 	0.84969 0.24993 0.25060 -0.50500
Zn	Zn	0.72596 0.76854 0.80169 1.21300
C 	C 	0.65514 0.72360 0.77600 0.44400
C 	C 	0.61436 0.71070 0.78710 -0.21100
C 	C 	0.59620 0.72630 0.81960 0.14400
H 	H 	0.60950 0.74560 0.83400 -0.00200
C 	C 	0.55860 0.71480 0.83220 -0.23200
H 	H 	0.54650 0.72650 0.85400 0.12000
C 	C 	0.54030 0.68490 0.81080 0.19700
C 	C 	0.55740 0.67000 0.77800 -0.23600
H 	H 	0.54370 0.65140 0.76300 0.12000
C 	C 	0.59540 0.68190 0.76590 0.14400
H 	H 	0.60740 0.67040 0.74400 -0.00400
C 	C 	0.50471 0.63940 0.85500 0.04400
C 	C 	0.53910 0.62570 0.87160 -0.09400
H 	H 	0.56340 0.63540 0.86270 0.07200
C 	C 	0.53820 0.59800 0.90100 0.00900
H 	H 	0.56200 0.58920 0.91180 0.04600
C 	C 	0.50310 0.58270 0.91530 -0.05500
C 	C 	0.46815 0.59670 0.89870 -0.09000
H 	H 	0.44400 0.58730 0.90790 0.09300
C 	C 	0.46890 0.62400 0.86910 0.12600
C 	C 	0.43236 0.66480 0.82590 0.12000
C 	C 	0.46757 0.68330 0.81240 0.04900
C 	C 	0.46400 0.71310 0.78450 -0.10100
H 	H 	0.48670 0.72470 0.77410 0.07300
C 	C 	0.42683 0.72600 0.77180 0.01400
H 	H 	0.42480 0.74690 0.75410 0.04000
C 	C 	0.39302 0.70760 0.78570 -0.07400
C 	C 	0.39576 0.67780 0.81350 -0.08000
H 	H 	0.37290 0.66650 0.82380 0.08900
C 	C 	0.50200 0.55213 0.94687 0.35100
C 	C 	0.35238 0.71960 0.77280 0.38200
N 	N 	0.50364 0.66850 0.82510 -0.14900
O 	O 	0.67244 0.74622 0.79942 -0.51900
O 	O 	0.66890 0.71035 0.74417 -0.51200
O 	O 	0.43311 0.63470 0.85300 -0.22400
O 	O 	0.46858 0.54004 0.95802 -0.39800
O 	O 	0.53484 0.54125 0.96011 -0.40400
O 	O 	0.32479 0.69759 0.78348 -0.51600
O 	O 	0.34969 0.74993 0.75060 -0.50500
Zn	Zn	0.77404 0.73146 0.30169 1.21300
C 	C 	0.84486 0.77640 0.27600 0.44500
C 	C 	0.88564 0.78930 0.28710 -0.21100
C 	C 	0.90380 0.77370 0.31960 0.14500
H 	H 	0.89050 0.75440 0.33400 -0.00200
C 	C 	0.94140 0.78520 0.33220 -0.23300
H 	H 	0.95350 0.77350 0.35400 0.12200
C 	C 	0.95970 0.81510 0.31080 0.20000
C 	C 	0.94260 0.83000 0.27800 -0.23700
H 	H 	0.95630 0.84860 0.26300 0.12300
C 	C 	0.90460 0.81810 0.26590 0.14500
H 	H 	0.89260 0.82960 0.24400 -0.00300
C 	C 	0.99529 0.86060 0.35500 0.05400
C 	C 	0.96090 0.87430 0.37160 -0.09600
H 	H 	0.93660 0.86460 0.36270 0.07300
C 	C 	0.96180 0.90200 0.40100 0.01000
H 	H 	0.93800 0.91080 0.41180 0.04600
C 	C 	0.99690 0.91730 0.41530 -0.04700
C 	C 	0.03185 0.90330 0.39870 -0.10000
H 	H 	0.05600 0.91270 0.40790 0.09600
C 	C 	0.03110 0.87600 0.36910 0.11800
C 	C 	0.06764 0.83520 0.32590 0.12200
C 	C 	0.03243 0.81670 0.31240 0.03900
C 	C 	0.03600 0.78690 0.28450 -0.09600
H 	H 	0.01330 0.77530 0.27410 0.06800
C 	C 	0.07317 0.77400 0.27180 0.01000
H 	H 	0.07520 0.75310 0.25410 0.04000
C 	C 	0.10698 0.79240 0.28570 -0.07300
C 	C 	0.10424 0.82220 0.31350 -0.08300
H 	H 	0.12710 0.83350 0.32380 0.08900
C 	C 	0.99800 0.94787 0.44687 0.36100
C 	C 	0.14762 0.78040 0.27280 0.38100
N 	N 	0.99636 0.83150 0.32510 -0.14500
O 	O 	0.82756 0.75378 0.29942 -0.51900
O 	O 	0.83110 0.78965 0.24417 -0.51200
O 	O 	0.06689 0.86530 0.35300 -0.22400
O 	O 	0.03142 0.95996 0.45802 -0.40700
O 	O 	0.96516 0.95875 0.46011 -0.40500
O 	O 	0.17521 0.80241 0.28348 -0.51600
O 	O 	0.15031 0.75007 0.25060 -0.50600
Zn	Zn	0.27404 0.23146 0.80169 1.21300
C 	C 	0.34486 0.27640 0.77600 0.44400
C 	C 	0.38564 0.28930 0.78710 -0.21100
C 	C 	0.40380 0.27370 0.81960 0.14400
H 	H 	0.39050 0.25440 0.83400 -0.00200
C 	C 	0.44140 0.28520 0.83220 -0.23200
H 	H 	0.45350 0.27350 0.85400 0.12000
C 	C 	0.45970 0.31510 0.81080 0.19700
C 	C 	0.44260 0.33000 0.77800 -0.23600
H 	H 	0.45630 0.34860 0.76300 0.12000
C 	C 	0.40460 0.31810 0.76590 0.14400
H 	H 	0.39260 0.32960 0.74400 -0.00400
C 	C 	0.49529 0.36060 0.85500 0.04400
C 	C 	0.46090 0.37430 0.87160 -0.09400
H 	H 	0.43660 0.36460 0.86270 0.07200
C 	C 	0.46180 0.40200 0.90100 0.00900
H 	H 	0.43800 0.41080 0.91180 0.04600
C 	C 	0.49690 0.41730 0.91530 -0.05500
C 	C 	0.53185 0.40330 0.89870 -0.09000
H 	H 	0.55600 0.41270 0.90790 0.09300
C 	C 	0.53110 0.37600 0.86910 0.12600
C 	C 	0.56764 0.33520 0.82590 0.12000
C 	C 	0.53243 0.31670 0.81240 0.04900
C 	C 	0.53600 0.28690 0.78450 -0.10100
H 	H 	0.51330 0.27530 0.77410 0.07300
C 	C 	0.57317 0.27400 0.77180 0.01400
H 	H 	0.57520 0.25310 0.75410 0.04000
C 	C 	0.60698 0.29240 0.78570 -0.07500
C 	C 	0.60424 0.32220 0.81350 -0.08000
H 	H 	0.62710 0.33350 0.82380 0.08800
C 	C 	0.49800 0.44787 0.94687 0.35100
C 	C 	0.64762 0.28040 0.77280 0.38200
N 	N 	0.49636 0.33150 0.82510 -0.14900
O 	O 	0.32756 0.25378 0.79942 -0.51900
O 	O 	0.33110 0.28965 0.74417 -0.51200
O 	O 	0.56689 0.36530 0.85300 -0.22400
O 	O 	0.53142 0.45996 0.95802 -0.39800
O 	O 	0.46516 0.45875 0.96011 -0.40400
O 	O 	0.67521 0.30241 0.78348 -0.51600
O 	O 	0.65031 0.25007 0.75060 -0.50500
Zn	Zn	0.77404 0.26854 0.69831 1.21300
C 	C 	0.84486 0.22360 0.72400 0.44500
C 	C 	0.88564 0.21070 0.71290 -0.21200
C 	C 	0.90380 0.22630 0.68040 0.14500
H 	H 	0.89050 0.24560 0.66600 -0.00200
C 	C 	0.94140 0.21480 0.66780 -0.23300
H 	H 	0.95350 0.22650 0.64600 0.12100
C 	C 	0.95970 0.18490 0.68920 0.19900
C 	C 	0.94260 0.17000 0.72200 -0.23700
H 	H 	0.95630 0.15140 0.73700 0.12200
C 	C 	0.90460 0.18190 0.73410 0.14500
H 	H 	0.89260 0.17040 0.75600 -0.00400
C 	C 	0.99529 0.13940 0.64500 0.05500
C 	C 	0.96090 0.12570 0.62840 -0.09800
H 	H 	0.93660 0.13540 0.63730 0.07300
C 	C 	0.96180 0.09800 0.59900 0.01100
H 	H 	0.93800 0.08920 0.58820 0.04400
C 	C 	0.99690 0.08270 0.58470 -0.05000
C 	C 	0.03185 0.09670 0.60130 -0.09900
H 	H 	0.05600 0.08730 0.59210 0.09300
C 	C 	0.03110 0.12400 0.63090 0.11700
C 	C 	0.06764 0.16480 0.67410 0.12100
C 	C 	0.03243 0.18330 0.68760 0.03900
C 	C 	0.03600 0.21310 0.71550 -0.09700
H 	H 	0.01330 0.22470 0.72590 0.06800
C 	C 	0.07317 0.22600 0.72820 0.01000
H 	H 	0.07520 0.24690 0.74590 0.04000
C 	C 	0.10698 0.20760 0.71430 -0.07300
C 	C 	0.10424 0.17780 0.68650 -0.08300
H 	H 	0.12710 0.16650 0.67620 0.08800
C 	C 	0.99800 0.05213 0.55313 0.36200
C 	C 	0.14762 0.21960 0.72720 0.38100
N 	N 	0.99636 0.16850 0.67490 -0.14500
O 	O 	0.82756 0.24622 0.70058 -0.51900
O 	O 	0.83110 0.21035 0.75583 -0.51200
O 	O 	0.06689 0.13470 0.64700 -0.22500
O 	O 	0.03142 0.04004 0.54198 -0.41300
O 	O 	0.96516 0.04125 0.53989 -0.41100
O 	O 	0.17521 0.19759 0.71652 -0.51700
O 	O 	0.15031 0.24993 0.74940 -0.50600
Zn	Zn	0.27404 0.76854 0.19831 1.21300
C 	C 	0.34486 0.72360 0.22400 0.44400
C 	C 	0.38564 0.71070 0.21290 -0.21100
C 	C 	0.40380 0.72630 0.18040 0.14400
H 	H 	0.39050 0.74560 0.16600 -0.00300
C 	C 	0.44140 0.71480 0.16780 -0.23200
H 	H 	0.45350 0.72650 0.14600 0.11900
C 	C 	0.45970 0.68490 0.18920 0.19700
C 	C 	0.44260 0.67000 0.22200 -0.23600
H 	H 	0.45630 0.65140 0.23700 0.12000
C 	C 	0.40460 0.68190 0.23410 0.14400
H 	H 	0.39260 0.67040 0.25600 -0.00400
C 	C 	0.49529 0.63940 0.14500 0.04400
C 	C 	0.46090 0.62570 0.12840 -0.09600
H 	H 	0.43660 0.63540 0.13730 0.07200
C 	C 	0.46180 0.59800 0.09900 0.01000
H 	H 	0.43800 0.58920 0.08820 0.04300
C 	C 	0.49690 0.58270 0.08470 -0.05900
C 	C 	0.53185 0.59670 0.10130 -0.08900
H 	H 	0.55600 0.58730 0.09210 0.09100
C 	C 	0.53110 0.62400 0.13090 0.12400
C 	C 	0.56764 0.66480 0.17410 0.11900
C 	C 	0.53243 0.68330 0.18760 0.04900
C 	C 	0.53600 0.71310 0.21550 -0.10100
H 	H 	0.51330 0.72470 0.22590 0.07300
C 	C 	0.57317 0.72600 0.22820 0.01400
H 	H 	0.57520 0.74690 0.24590 0.04000
C 	C 	0.60698 0.70760 0.21430 -0.07500
C 	C 	0.60424 0.67780 0.18650 -0.08100
H 	H 	0.62710 0.66650 0.17620 0.08800
C 	C 	0.49800 0.55213 0.05313 0.35200
C 	C 	0.64762 0.71960 0.22720 0.38200
N 	N 	0.49636 0.66850 0.17490 -0.14900
O 	O 	0.32756 0.74622 0.20058 -0.52000
O 	O 	0.33110 0.71035 0.25583 -0.51200
O 	O 	0.56689 0.63470 0.14700 -0.22500
O 	O 	0.53142 0.54004 0.04198 -0.40500
O 	O 	0.46516 0.54125 0.03989 -0.41100
O 	O 	0.67521 0.69759 0.21652 -0.51700
O 	O 	0.65031 0.74993 0.24940 -0.50500
Zn	Zn	0.22596 0.73146 0.69831 1.21300
C 	C 	0.15514 0.77640 0.72400 0.44400
C 	C 	0.11436 0.78930 0.71290 -0.21100
C 	C 	0.09620 0.77370 0.68040 0.14300
H 	H 	0.10950 0.75440 0.66600 -0.00300
C 	C 	0.05860 0.78520 0.66780 -0.23200
H 	H 	0.04650 0.77350 0.64600 0.11700
C 	C 	0.04030 0.81510 0.68920 0.19500
C 	C 	0.05740 0.83000 0.72200 -0.23600
H 	H 	0.04370 0.84860 0.73700 0.11900
C 	C 	0.09540 0.81810 0.73410 0.14300
H 	H 	0.10740 0.82960 0.75600 -0.00300
C 	C 	0.00471 0.86060 0.64500 0.03400
C 	C 	0.03910 0.87430 0.62840 -0.09300
H 	H 	0.06340 0.86460 0.63730 0.07100
C 	C 	0.03820 0.90200 0.59900 0.00900
H 	H 	0.06200 0.91080 0.58820 0.04500
C 	C 	0.00310 0.91730 0.58470 -0.06400
C 	C 	0.96815 0.90330 0.60130 -0.08000
H 	H 	0.94400 0.91270 0.59210 0.09100
C 	C 	0.96890 0.87600 0.63090 0.13300
C 	C 	0.93236 0.83520 0.67410 0.11800
C 	C 	0.96757 0.81670 0.68760 0.05900
C 	C 	0.96400 0.78690 0.71550 -0.10500
H 	H 	0.98670 0.77530 0.72590 0.07800
C 	C 	0.92683 0.77400 0.72820 0.01800
H 	H 	0.92480 0.75310 0.74590 0.04000
C 	C 	0.89302 0.79240 0.71430 -0.07600
C 	C 	0.89576 0.82220 0.68650 -0.07800
H 	H 	0.87290 0.83350 0.67620 0.08800
C 	C 	0.00200 0.94787 0.55313 0.34100
C 	C 	0.85238 0.78040 0.72720 0.38300
N 	N 	0.00364 0.83150 0.67490 -0.15300
O 	O 	0.17244 0.75378 0.70058 -0.51900
O 	O 	0.16890 0.78965 0.75583 -0.51200
O 	O 	0.93311 0.86530 0.64700 -0.22300
O 	O 	0.96858 0.95996 0.54198 -0.39000
O 	O 	0.03484 0.95875 0.53989 -0.40300
O 	O 	0.82479 0.80241 0.71652 -0.51600
O 	O 	0.84969 0.75007 0.74940 -0.50500
Zn	Zn	0.72596 0.23146 0.19831 1.21300
C 	C 	0.65514 0.27640 0.22400 0.44400
C 	C 	0.61436 0.28930 0.21290 -0.21200
C 	C 	0.59620 0.27370 0.18040 0.14400
H 	H 	0.60950 0.25440 0.16600 -0.00300
C 	C 	0.55860 0.28520 0.16780 -0.23200
H 	H 	0.54650 0.27350 0.14600 0.11800
C 	C 	0.54030 0.31510 0.18920 0.19700
C 	C 	0.55740 0.33000 0.22200 -0.23600
H 	H 	0.54370 0.34860 0.23700 0.12000
C 	C 	0.59540 0.31810 0.23410 0.14400
H 	H 	0.60740 0.32960 0.25600 -0.00400
C 	C 	0.50471 0.36060 0.14500 0.04400
C 	C 	0.53910 0.37430 0.12840 -0.09600
H 	H 	0.56340 0.36460 0.13730 0.07200
C 	C 	0.53820 0.40200 0.09900 0.01000
H 	H 	0.56200 0.41080 0.08820 0.04300
C 	C 	0.50310 0.41730 0.08470 -0.05900
C 	C 	0.46815 0.40330 0.10130 -0.08900
H 	H 	0.44400 0.41270 0.09210 0.09100
C 	C 	0.46890 0.37600 0.13090 0.12400
C 	C 	0.43236 0.33520 0.17410 0.11900
C 	C 	0.46757 0.31670 0.18760 0.04900
C 	C 	0.46400 0.28690 0.21550 -0.10100
H 	H 	0.48670 0.27530 0.22590 0.07300
C 	C 	0.42683 0.27400 0.22820 0.01400
H 	H 	0.42480 0.25310 0.24590 0.04000
C 	C 	0.39302 0.29240 0.21430 -0.07500
C 	C 	0.39576 0.32220 0.18650 -0.08100
H 	H 	0.37290 0.33350 0.17620 0.08800
C 	C 	0.50200 0.44787 0.05313 0.35200
C 	C 	0.35238 0.28040 0.22720 0.38200
N 	N 	0.50364 0.33150 0.17490 -0.14900
O 	O 	0.67244 0.25378 0.20058 -0.52000
O 	O 	0.66890 0.28965 0.25583 -0.51200
O 	O 	0.43311 0.36530 0.14700 -0.22500
O 	O 	0.46858 0.45996 0.04198 -0.40500
O 	O 	0.53484 0.45875 0.03989 -0.41100
O 	O 	0.32479 0.30241 0.21652 -0.51700
O 	O 	0.34969 0.25007 0.24940 -0.50600
Zn	Zn	0.30169 0.22596 0.26854 1.21300
C 	C 	0.27600 0.15514 0.22360 0.44400
C 	C 	0.28710 0.11436 0.21070 -0.21100
C 	C 	0.31960 0.09620 0.22630 0.14200
H 	H 	0.33400 0.10950 0.24560 -0.00300
C 	C 	0.33220 0.05860 0.21480 -0.23200
H 	H 	0.35400 0.04650 0.22650 0.11700
C 	C 	0.31080 0.04030 0.18490 0.19400
C 	C 	0.27800 0.05740 0.17000 -0.23600
H 	H 	0.26300 0.04370 0.15140 0.11700
C 	C 	0.26590 0.09540 0.18190 0.14200
H 	H 	0.24400 0.10740 0.17040 -0.00500
C 	C 	0.35500 0.00471 0.13940 0.03400
C 	C 	0.37160 0.03910 0.12570 -0.09500
H 	H 	0.36270 0.06340 0.13540 0.07100
C 	C 	0.40100 0.03820 0.09800 0.01000
H 	H 	0.41180 0.06200 0.08920 0.04300
C 	C 	0.41530 0.00310 0.08270 -0.06700
C 	C 	0.39870 0.96815 0.09670 -0.07900
H 	H 	0.40790 0.94400 0.08730 0.08900
C 	C 	0.36910 0.96890 0.12400 0.13200
C 	C 	0.32590 0.93236 0.16480 0.11700
C 	C 	0.31240 0.96757 0.18330 0.05900
C 	C 	0.28450 0.96400 0.21310 -0.10600
H 	H 	0.27410 0.98670 0.22470 0.07800
C 	C 	0.27180 0.92683 0.22600 0.01800
H 	H 	0.25410 0.92480 0.24690 0.03900
C 	C 	0.28570 0.89302 0.20760 -0.07700
C 	C 	0.31350 0.89576 0.17780 -0.07800
H 	H 	0.32380 0.87290 0.16650 0.08700
C 	C 	0.44687 0.00200 0.05213 0.34200
C 	C 	0.27280 0.85238 0.21960 0.38300
N 	N 	0.32510 0.00364 0.16850 -0.15300
O 	O 	0.29942 0.17244 0.24622 -0.52000
O 	O 	0.24417 0.16890 0.21035 -0.51300
O 	O 	0.35300 0.93311 0.13470 -0.22400
O 	O 	0.45802 0.96858 0.04004 -0.39600
O 	O 	0.46011 0.03484 0.04125 -0.41000
O 	O 	0.28348 0.82479 0.19759 -0.51700
O 	O 	0.25060 0.84969 0.24993 -0.50500
Zn	Zn	0.80169 0.72596 0.76854 1.21300
C 	C 	0.77600 0.65514 0.72360 0.44400
C 	C 	0.78710 0.61436 0.71070 -0.21100
C 	C 	0.81960 0.59620 0.72630 0.14400
H 	H 	0.83400 0.60950 0.74560 -0.00200
C 	C 	0.83220 0.55860 0.71480 -0.23200
H 	H 	0.85400 0.54650 0.72650 0.12000
C 	C 	0.81080 0.54030 0.68490 0.19700
C 	C 	0.77800 0.55740 0.67000 -0.23600
H 	H 	0.76300 0.54370 0.65140 0.12000
C 	C 	0.76590 0.59540 0.68190 0.14400
H 	H 	0.74400 0.60740 0.67040 -0.00400
C 	C 	0.85500 0.50471 0.63940 0.04400
C 	C 	0.87160 0.53910 0.62570 -0.09400
H 	H 	0.86270 0.56340 0.63540 0.07200
C 	C 	0.90100 0.53820 0.59800 0.00900
H 	H 	0.91180 0.56200 0.58920 0.04600
C 	C 	0.91530 0.50310 0.58270 -0.05500
C 	C 	0.89870 0.46815 0.59670 -0.09000
H 	H 	0.90790 0.44400 0.58730 0.09300
C 	C 	0.86910 0.46890 0.62400 0.12600
C 	C 	0.82590 0.43236 0.66480 0.12000
C 	C 	0.81240 0.46757 0.68330 0.04900
C 	C 	0.78450 0.46400 0.71310 -0.10100
H 	H 	0.77410 0.48670 0.72470 0.07300
C 	C 	0.77180 0.42683 0.72600 0.01400
H 	H 	0.75410 0.42480 0.74690 0.04000
C 	C 	0.78570 0.39302 0.70760 -0.07400
C 	C 	0.81350 0.39576 0.67780 -0.08000
H 	H 	0.82380 0.37290 0.66650 0.08900
C 	C 	0.94687 0.50200 0.55213 0.35100
C 	C 	0.77280 0.35238 0.71960 0.38200
N 	N 	0.82510 0.50364 0.66850 -0.14900
O 	O 	0.79942 0.67244 0.74622 -0.51900
O 	O 	0.74417 0.66890 0.71035 -0.51200
O 	O 	0.85300 0.43311 0.63470 -0.22400
O 	O 	0.95802 0.46858 0.54004 -0.39800
O 	O 	0.96011 0.53484 0.54125 -0.40400
O 	O 	0.78348 0.32479 0.69759 -0.51600
O 	O 	0.75060 0.34969 0.74993 -0.50500
Zn	Zn	0.30169 0.77404 0.73146 1.21300
C 	C 	0.27600 0.84486 0.77640 0.44500
C 	C 	0.28710 0.88564 0.78930 -0.21100
C 	C 	0.31960 0.90380 0.77370 0.14500
H 	H 	0.33400 0.89050 0.75440 -0.00200
C 	C 	0.33220 0.94140 0.78520 -0.23300
H 	H 	0.35400 0.95350 0.77350 0.12200
C 	C 	0.31080 0.95970 0.81510 0.20000
C 	C 	0.27800 0.94260 0.83000 -0.23700
H 	H 	0.26300 0.95630 0.84860 0.12300
C 	C 	0.26590 0.90460 0.81810 0.14500
H 	H 	0.24400 0.89260 0.82960 -0.00300
C 	C 	0.35500 0.99529 0.86060 0.05400
C 	C 	0.37160 0.96090 0.87430 -0.09600
H 	H 	0.36270 0.93660 0.86460 0.07300
C 	C 	0.40100 0.96180 0.90200 0.01000
H 	H 	0.41180 0.93800 0.91080 0.04600
C 	C 	0.41530 0.99690 0.91730 -0.04700
C 	C 	0.39870 0.03185 0.90330 -0.10000
H 	H 	0.40790 0.05600 0.91270 0.09600
C 	C 	0.36910 0.03110 0.87600 0.11800
C 	C 	0.32590 0.06764 0.83520 0.12200
C 	C 	0.31240 0.03243 0.81670 0.03900
C 	C 	0.28450 0.03600 0.78690 -0.09600
H 	H 	0.27410 0.01330 0.77530 0.06800
C 	C 	0.27180 0.07317 0.77400 0.01000
H 	H 	0.25410 0.07520 0.75310 0.04000
C 	C 	0.28570 0.10698 0.79240 -0.07300
C 	C 	0.31350 0.10424 0.82220 -0.08300
H 	H 	0.32380 0.12710 0.83350 0.08900
C 	C 	0.44687 0.99800 0.94787 0.36100
C 	C 	0.27280 0.14762 0.78040 0.38100
N 	N 	0.32510 0.99636 0.83150 -0.14500
O 	O 	0.29942 0.82756 0.75378 -0.51900
O 	O 	0.24417 0.83110 0.78965 -0.51200
O 	O 	0.35300 0.06689 0.86530 -0.22400
O 	O 	0.45802 0.03142 0.95996 -0.40700
O 	O 	0.46011 0.96516 0.95875 -0.40500
O 	O 	0.28348 0.17521 0.80241 -0.51600
O 	O 	0.25060 0.15031 0.75007 -0.50600
Zn	Zn	0.80169 0.27404 0.23146 1.21300
C 	C 	0.77600 0.34486 0.27640 0.44400
C 	C 	0.78710 0.38564 0.28930 -0.21100
C 	C 	0.81960 0.40380 0.27370 0.14400
H 	H 	0.83400 0.39050 0.25440 -0.00200
C 	C 	0.83220 0.44140 0.28520 -0.23200
H 	H 	0.85400 0.45350 0.27350 0.12000
C 	C 	0.81080 0.45970 0.31510 0.19700
C 	C 	0.77800 0.44260 0.33000 -0.23600
H 	H 	0.76300 0.45630 0.34860 0.12000
C 	C 	0.76590 0.40460 0.31810 0.14400
H 	H 	0.74400 0.39260 0.32960 -0.00400
C 	C 	0.85500 0.49529 0.36060 0.04400
C 	C 	0.87160 0.46090 0.37430 -0.09400
H 	H 	0.86270 0.43660 0.36460 0.07200
C 	C 	0.90100 0.46180 0.40200 0.00900
H 	H 	0.91180 0.43800 0.41080 0.04600
C 	C 	0.91530 0.49690 0.41730 -0.05500
C 	C 	0.89870 0.53185 0.40330 -0.09000
H 	H 	0.90790 0.55600 0.41270 0.09300
C 	C 	0.86910 0.53110 0.37600 0.12600
C 	C 	0.82590 0.56764 0.33520 0.12000
C 	C 	0.81240 0.53243 0.31670 0.04900
C 	C 	0.78450 0.53600 0.28690 -0.10100
H 	H 	0.77410 0.51330 0.27530 0.07300
C 	C 	0.77180 0.57317 0.27400 0.01400
H 	H 	0.75410 0.57520 0.25310 0.04000
C 	C 	0.78570 0.60698 0.29240 -0.07500
C 	C 	0.81350 0.60424 0.32220 -0.08000
H 	H 	0.82380 0.62710 0.33350 0.08800
C 	C 	0.94687 0.49800 0.44787 0.35100
C 	C 	0.77280 0.64762 0.28040 0.38200
N 	N 	0.82510 0.49636 0.33150 -0.14900
O 	O 	0.79942 0.32756 0.25378 -0.51900
O 	O 	0.74417 0.33110 0.28965 -0.51200
O 	O 	0.85300 0.56689 0.36530 -0.22400
O 	O 	0.95802 0.53142 0.45996 -0.39800
O 	O 	0.96011 0.46516 0.45875 -0.40400
O 	O 	0.78348 0.67521 0.30241 -0.51600
O 	O 	0.75060 0.65031 0.25007 -0.50500
Zn	Zn	0.69831 0.77404 0.26854 1.21300
C 	C 	0.72400 0.84486 0.22360 0.44500
C 	C 	0.71290 0.88564 0.21070 -0.21200
C 	C 	0.68040 0.90380 0.22630 0.14500
H 	H 	0.66600 0.89050 0.24560 -0.00200
C 	C 	0.66780 0.94140 0.21480 -0.23300
H 	H 	0.64600 0.95350 0.22650 0.12100
C 	C 	0.68920 0.95970 0.18490 0.19900
C 	C 	0.72200 0.94260 0.17000 -0.23700
H 	H 	0.73700 0.95630 0.15140 0.12200
C 	C 	0.73410 0.90460 0.18190 0.14500
H 	H 	0.75600 0.89260 0.17040 -0.00400
C 	C 	0.64500 0.99529 0.13940 0.05500
C 	C 	0.62840 0.96090 0.12570 -0.09800
H 	H 	0.63730 0.93660 0.13540 0.07300
C 	C 	0.59900 0.96180 0.09800 0.01100
H 	H 	0.58820 0.93800 0.08920 0.04400
C 	C 	0.58470 0.99690 0.08270 -0.05000
C 	C 	0.60130 0.03185 0.09670 -0.09900
H 	H 	0.59210 0.05600 0.08730 0.09300
C 	C 	0.63090 0.03110 0.12400 0.11700
C 	C 	0.67410 0.06764 0.16480 0.12100
C 	C 	0.68760 0.03243 0.18330 0.03900
C 	C 	0.71550 0.03600 0.21310 -0.09700
H 	H 	0.72590 0.01330 0.22470 0.06800
C 	C 	0.72820 0.07317 0.22600 0.01000
H 	H 	0.74590 0.07520 0.24690 0.04000
C 	C 	0.71430 0.10698 0.20760 -0.07300
C 	C 	0.68650 0.10424 0.17780 -0.08300
H 	H 	0.67620 0.12710 0.16650 0.08800
C 	C 	0.55313 0.99800 0.05213 0.36200
C 	C 	0.72720 0.14762 0.21960 0.38100
N 	N 	0.67490 0.99636 0.16850 -0.14500
O 	O 	0.70058 0.82756 0.24622 -0.51900
O 	O 	0.75583 0.83110 0.21035 -0.51200
O 	O 	0.64700 0.06689 0.13470 -0.22500
O 	O 	0.54198 0.03142 0.04004 -0.41300
O 	O 	0.53989 0.96516 0.04125 -0.41100
O 	O 	0.71652 0.17521 0.19759 -0.51700
O 	O 	0.74940 0.15031 0.24993 -0.50600
Zn	Zn	0.19831 0.27404 0.76854 1.21300
C 	C 	0.22400 0.34486 0.72360 0.44400
C 	C 	0.21290 0.38564 0.71070 -0.21100
C 	C 	0.18040 0.40380 0.72630 0.14400
H 	H 	0.16600 0.39050 0.74560 -0.00300
C 	C 	0.16780 0.44140 0.71480 -0.23200
H 	H 	0.14600 0.45350 0.72650 0.11900
C 	C 	0.18920 0.45970 0.68490 0.19700
C 	C 	0.22200 0.44260 0.67000 -0.23600
H 	H 	0.23700 0.45630 0.65140 0.12000
C 	C 	0.23410 0.40460 0.68190 0.14400
H 	H 	0.25600 0.39260 0.67040 -0.00400
C 	C 	0.14500 0.49529 0.63940 0.04400
C 	C 	0.12840 0.46090 0.62570 -0.09600
H 	H 	0.13730 0.43660 0.63540 0.07200
C 	C 	0.09900 0.46180 0.59800 0.01000
H 	H 	0.08820 0.43800 0.58920 0.04300
C 	C 	0.08470 0.49690 0.58270 -0.05900
C 	C 	0.10130 0.53185 0.59670 -0.08900
H 	H 	0.09210 0.55600 0.58730 0.09100
C 	C 	0.13090 0.53110 0.62400 0.12400
C 	C 	0.17410 0.56764 0.66480 0.11900
C 	C 	0.18760 0.53243 0.68330 0.04900
C 	C 	0.21550 0.53600 0.71310 -0.10100
H 	H 	0.22590 0.51330 0.72470 0.07300
C 	C 	0.22820 0.57317 0.72600 0.01400
H 	H 	0.24590 0.57520 0.74690 0.04000
C 	C 	0.21430 0.60698 0.70760 -0.07500
C 	C 	0.18650 0.60424 0.67780 -0.08100
H 	H 	0.17620 0.62710 0.66650 0.08800
C 	C 	0.05313 0.49800 0.55213 0.35200
C 	C 	0.22720 0.64762 0.71960 0.38200
N 	N 	0.17490 0.49636 0.66850 -0.14900
O 	O 	0.20058 0.32756 0.74622 -0.52000
O 	O 	0.25583 0.33110 0.71035 -0.51200
O 	O 	0.14700 0.56689 0.63470 -0.22500
O 	O 	0.04198 0.53142 0.54004 -0.40500
O 	O 	0.03989 0.46516 0.54125 -0.41100
O 	O 	0.21652 0.67521 0.69759 -0.51700
O 	O 	0.24940 0.65031 0.74993 -0.50500
Zn	Zn	0.69831 0.22596 0.73146 1.21300
C 	C 	0.72400 0.15514 0.77640 0.44400
C 	C 	0.71290 0.11436 0.78930 -0.21100
C 	C 	0.68040 0.09620 0.77370 0.14300
H 	H 	0.66600 0.10950 0.75440 -0.00300
C 	C 	0.66780 0.05860 0.78520 -0.23200
H 	H 	0.64600 0.04650 0.77350 0.11700
C 	C 	0.68920 0.04030 0.81510 0.19500
C 	C 	0.72200 0.05740 0.83000 -0.23600
H 	H 	0.73700 0.04370 0.84860 0.11900
C 	C 	0.73410 0.09540 0.81810 0.14300
H 	H 	0.75600 0.10740 0.82960 -0.00300
C 	C 	0.64500 0.00471 0.86060 0.03400
C 	C 	0.62840 0.03910 0.87430 -0.09300
H 	H 	0.63730 0.06340 0.86460 0.07100
C 	C 	0.59900 0.03820 0.90200 0.00900
H 	H 	0.58820 0.06200 0.91080 0.04500
C 	C 	0.58470 0.00310 0.91730 -0.06400
C 	C 	0.60130 0.96815 0.90330 -0.08000
H 	H 	0.59210 0.94400 0.91270 0.09100
C 	C 	0.63090 0.96890 0.87600 0.13300
C 	C 	0.67410 0.93236 0.83520 0.11800
C 	C 	0.68760 0.96757 0.81670 0.05900
C 	C 	0.71550 0.96400 0.78690 -0.10500
H 	H 	0.72590 0.98670 0.77530 0.07800
C 	C 	0.72820 0.92683 0.77400 0.01800
H 	H 	0.74590 0.92480 0.75310 0.04000
C 	C 	0.71430 0.89302 0.79240 -0.07600
C 	C 	0.68650 0.89576 0.82220 -0.07800
H 	H 	0.67620 0.87290 0.83350 0.08800
C 	C 	0.55313 0.00200 0.94787 0.34100
C 	C 	0.72720 0.85238 0.78040 0.38300
N 	N 	0.67490 0.00364 0.83150 -0.15300
O 	O 	0.70058 0.17244 0.75378 -0.51900
O 	O 	0.75583 0.16890 0.78965 -0.51200
O 	O 	0.64700 0.93311 0.86530 -0.22300
O 	O 	0.54198 0.96858 0.95996 -0.39000
O 	O 	0.53989 0.03484 0.95875 -0.40300
O 	O 	0.71652 0.82479 0.80241 -0.51600
O 	O 	0.74940 0.84969 0.75007 -0.50500
Zn	Zn	0.19831 0.72596 0.23146 1.21300
C 	C 	0.22400 0.65514 0.27640 0.44400
C 	C 	0.21290 0.61436 0.28930 -0.21200
C 	C 	0.18040 0.59620 0.27370 0.14400
H 	H 	0.16600 0.60950 0.25440 -0.00300
C 	C 	0.16780 0.55860 0.28520 -0.23200
H 	H 	0.14600 0.54650 0.27350 0.11800
C 	C 	0.18920 0.54030 0.31510 0.19700
C 	C 	0.22200 0.55740 0.33000 -0.23600
H 	H 	0.23700 0.54370 0.34860 0.12000
C 	C 	0.23410 0.59540 0.31810 0.14400
H 	H 	0.25600 0.60740 0.32960 -0.00400
C 	C 	0.14500 0.50471 0.36060 0.04400
C 	C 	0.12840 0.53910 0.37430 -0.09600
H 	H 	0.13730 0.56340 0.36460 0.07200
C 	C 	0.09900 0.53820 0.40200 0.01000
H 	H 	0.08820 0.56200 0.41080 0.04300
C 	C 	0.08470 0.50310 0.41730 -0.05900
C 	C 	0.10130 0.46815 0.40330 -0.08900
H 	H 	0.09210 0.44400 0.41270 0.09100
C 	C 	0.13090 0.46890 0.37600 0.12400
C 	C 	0.17410 0.43236 0.33520 0.11900
C 	C 	0.18760 0.46757 0.31670 0.04900
C 	C 	0.21550 0.46400 0.28690 -0.10100
H 	H 	0.22590 0.48670 0.27530 0.07300
C 	C 	0.22820 0.42683 0.27400 0.01400
H 	H 	0.24590 0.42480 0.25310 0.04000
C 	C 	0.21430 0.39302 0.29240 -0.07500
C 	C 	0.18650 0.39576 0.32220 -0.08100
H 	H 	0.17620 0.37290 0.33350 0.08800
C 	C 	0.05313 0.50200 0.44787 0.35200
C 	C 	0.22720 0.35238 0.28040 0.38200
N 	N 	0.17490 0.50364 0.33150 -0.14900
O 	O 	0.20058 0.67244 0.25378 -0.52000
O 	O 	0.25583 0.66890 0.28965 -0.51200
O 	O 	0.14700 0.43311 0.36530 -0.22500
O 	O 	0.04198 0.46858 0.45996 -0.40500
O 	O 	0.03989 0.53484 0.45875 -0.41100
O 	O 	0.21652 0.32479 0.30241 -0.51700
O 	O 	0.24940 0.34969 0.25007 -0.50600
Zn	Zn	0.26854 0.30169 0.22596 1.21300
C 	C 	0.22360 0.27600 0.15514 0.44400
C 	C 	0.21070 0.28710 0.11436 -0.21100
C 	C 	0.22630 0.31960 0.09620 0.14200
H 	H 	0.24560 0.33400 0.10950 -0.00300
C 	C 	0.21480 0.33220 0.05860 -0.23200
H 	H 	0.22650 0.35400 0.04650 0.11700
C 	C 	0.18490 0.31080 0.04030 0.19400
C 	C 	0.17000 0.27800 0.05740 -0.23600
H 	H 	0.15140 0.26300 0.04370 0.11700
C 	C 	0.18190 0.26590 0.09540 0.14200
H 	H 	0.17040 0.24400 0.10740 -0.00500
C 	C 	0.13940 0.35500 0.00471 0.03400
C 	C 	0.12570 0.37160 0.03910 -0.09500
H 	H 	0.13540 0.36270 0.06340 0.07100
C 	C 	0.09800 0.40100 0.03820 0.01000
H 	H 	0.08920 0.41180 0.06200 0.04300
C 	C 	0.08270 0.41530 0.00310 -0.06700
C 	C 	0.09670 0.39870 0.96815 -0.07900
H 	H 	0.08730 0.40790 0.94400 0.08900
C 	C 	0.12400 0.36910 0.96890 0.13200
C 	C 	0.16480 0.32590 0.93236 0.11700
C 	C 	0.18330 0.31240 0.96757 0.05900
C 	C 	0.21310 0.28450 0.96400 -0.10600
H 	H 	0.22470 0.27410 0.98670 0.07800
C 	C 	0.22600 0.27180 0.92683 0.01800
H 	H 	0.24690 0.25410 0.92480 0.03900
C 	C 	0.20760 0.28570 0.89302 -0.07700
C 	C 	0.17780 0.31350 0.89576 -0.07800
H 	H 	0.16650 0.32380 0.87290 0.08700
C 	C 	0.05213 0.44687 0.00200 0.34200
C 	C 	0.21960 0.27280 0.85238 0.38300
N 	N 	0.16850 0.32510 0.00364 -0.15300
O 	O 	0.24622 0.29942 0.17244 -0.52000
O 	O 	0.21035 0.24417 0.16890 -0.51300
O 	O 	0.13470 0.35300 0.93311 -0.22400
O 	O 	0.04004 0.45802 0.96858 -0.39600
O 	O 	0.04125 0.46011 0.03484 -0.41000
O 	O 	0.19759 0.28348 0.82479 -0.51700
O 	O 	0.24993 0.25060 0.84969 -0.50500
Zn	Zn	0.76854 0.80169 0.72596 1.21300
C 	C 	0.72360 0.77600 0.65514 0.44400
C 	C 	0.71070 0.78710 0.61436 -0.21100
C 	C 	0.72630 0.81960 0.59620 0.14400
H 	H 	0.74560 0.83400 0.60950 -0.00200
C 	C 	0.71480 0.83220 0.55860 -0.23200
H 	H 	0.72650 0.85400 0.54650 0.12000
C 	C 	0.68490 0.81080 0.54030 0.19700
C 	C 	0.67000 0.77800 0.55740 -0.23600
H 	H 	0.65140 0.76300 0.54370 0.12000
C 	C 	0.68190 0.76590 0.59540 0.14400
H 	H 	0.67040 0.74400 0.60740 -0.00400
C 	C 	0.63940 0.85500 0.50471 0.04400
C 	C 	0.62570 0.87160 0.53910 -0.09400
H 	H 	0.63540 0.86270 0.56340 0.07200
C 	C 	0.59800 0.90100 0.53820 0.00900
H 	H 	0.58920 0.91180 0.56200 0.04600
C 	C 	0.58270 0.91530 0.50310 -0.05500
C 	C 	0.59670 0.89870 0.46815 -0.09000
H 	H 	0.58730 0.90790 0.44400 0.09300
C 	C 	0.62400 0.86910 0.46890 0.12600
C 	C 	0.66480 0.82590 0.43236 0.12000
C 	C 	0.68330 0.81240 0.46757 0.04900
C 	C 	0.71310 0.78450 0.46400 -0.10100
H 	H 	0.72470 0.77410 0.48670 0.07300
C 	C 	0.72600 0.77180 0.42683 0.01400
H 	H 	0.74690 0.75410 0.42480 0.04000
C 	C 	0.70760 0.78570 0.39302 -0.07400
C 	C 	0.67780 0.81350 0.39576 -0.08000
H 	H 	0.66650 0.82380 0.37290 0.08900
C 	C 	0.55213 0.94687 0.50200 0.35100
C 	C 	0.71960 0.77280 0.35238 0.38200
N 	N 	0.66850 0.82510 0.50364 -0.14900
O 	O 	0.74622 0.79942 0.67244 -0.51900
O 	O 	0.71035 0.74417 0.66890 -0.51200
O 	O 	0.63470 0.85300 0.43311 -0.22400
O 	O 	0.54004 0.95802 0.46858 -0.39800
O 	O 	0.54125 0.96011 0.53484 -0.40400
O 	O 	0.69759 0.78348 0.32479 -0.51600
O 	O 	0.74993 0.75060 0.34969 -0.50500
Zn	Zn	0.73146 0.30169 0.77404 1.21300
C 	C 	0.77640 0.27600 0.84486 0.44500
C 	C 	0.78930 0.28710 0.88564 -0.21100
C 	C 	0.77370 0.31960 0.90380 0.14500
H 	H 	0.75440 0.33400 0.89050 -0.00200
C 	C 	0.78520 0.33220 0.94140 -0.23300
H 	H 	0.77350 0.35400 0.95350 0.12200
C 	C 	0.81510 0.31080 0.95970 0.20000
C 	C 	0.83000 0.27800 0.94260 -0.23700
H 	H 	0.84860 0.26300 0.95630 0.12300
C 	C 	0.81810 0.26590 0.90460 0.14500
H 	H 	0.82960 0.24400 0.89260 -0.00300
C 	C 	0.86060 0.35500 0.99529 0.05400
C 	C 	0.87430 0.37160 0.96090 -0.09600
H 	H 	0.86460 0.36270 0.93660 0.07300
C 	C 	0.90200 0.40100 0.96180 0.01000
H 	H 	0.91080 0.41180 0.93800 0.04600
C 	C 	0.91730 0.41530 0.99690 -0.04700
C 	C 	0.90330 0.39870 0.03185 -0.10000
H 	H 	0.91270 0.40790 0.05600 0.09600
C 	C 	0.87600 0.36910 0.03110 0.11800
C 	C 	0.83520 0.32590 0.06764 0.12200
C 	C 	0.81670 0.31240 0.03243 0.03900
C 	C 	0.78690 0.28450 0.03600 -0.09600
H 	H 	0.77530 0.27410 0.01330 0.06800
C 	C 	0.77400 0.27180 0.07317 0.01000
H 	H 	0.75310 0.25410 0.07520 0.04000
C 	C 	0.79240 0.28570 0.10698 -0.07300
C 	C 	0.82220 0.31350 0.10424 -0.08300
H 	H 	0.83350 0.32380 0.12710 0.08900
C 	C 	0.94787 0.44687 0.99800 0.36100
C 	C 	0.78040 0.27280 0.14762 0.38100
N 	N 	0.83150 0.32510 0.99636 -0.14500
O 	O 	0.75378 0.29942 0.82756 -0.51900
O 	O 	0.78965 0.24417 0.83110 -0.51200
O 	O 	0.86530 0.35300 0.06689 -0.22400
O 	O 	0.95996 0.45802 0.03142 -0.40700
O 	O 	0.95875 0.46011 0.96516 -0.40500
O 	O 	0.80241 0.28348 0.17521 -0.51600
O 	O 	0.75007 0.25060 0.15031 -0.50600
Zn	Zn	0.23146 0.80169 0.27404 1.21300
C 	C 	0.27640 0.77600 0.34486 0.44400
C 	C 	0.28930 0.78710 0.38564 -0.21100
C 	C 	0.27370 0.81960 0.40380 0.14400
H 	H 	0.25440 0.83400 0.39050 -0.00200
C 	C 	0.28520 0.83220 0.44140 -0.23200
H 	H 	0.27350 0.85400 0.45350 0.12000
C 	C 	0.31510 0.81080 0.45970 0.19700
C 	C 	0.33000 0.77800 0.44260 -0.23600
H 	H 	0.34860 0.76300 0.45630 0.12000
C 	C 	0.31810 0.76590 0.40460 0.14400
H 	H 	0.32960 0.74400 0.39260 -0.00400
C 	C 	0.36060 0.85500 0.49529 0.04400
C 	C 	0.37430 0.87160 0.46090 -0.09400
H 	H 	0.36460 0.86270 0.43660 0.07200
C 	C 	0.40200 0.90100 0.46180 0.00900
H 	H 	0.41080 0.91180 0.43800 0.04600
C 	C 	0.41730 0.91530 0.49690 -0.05500
C 	C 	0.40330 0.89870 0.53185 -0.09000
H 	H 	0.41270 0.90790 0.55600 0.09300
C 	C 	0.37600 0.86910 0.53110 0.12600
C 	C 	0.33520 0.82590 0.56764 0.12000
C 	C 	0.31670 0.81240 0.53243 0.04900
C 	C 	0.28690 0.78450 0.53600 -0.10100
H 	H 	0.27530 0.77410 0.51330 0.07300
C 	C 	0.27400 0.77180 0.57317 0.01400
H 	H 	0.25310 0.75410 0.57520 0.04000
C 	C 	0.29240 0.78570 0.60698 -0.07500
C 	C 	0.32220 0.81350 0.60424 -0.08000
H 	H 	0.33350 0.82380 0.62710 0.08800
C 	C 	0.44787 0.94687 0.49800 0.35100
C 	C 	0.28040 0.77280 0.64762 0.38200
N 	N 	0.33150 0.82510 0.49636 -0.14900
O 	O 	0.25378 0.79942 0.32756 -0.51900
O 	O 	0.28965 0.74417 0.33110 -0.51200
O 	O 	0.36530 0.85300 0.56689 -0.22400
O 	O 	0.45996 0.95802 0.53142 -0.39800
O 	O 	0.45875 0.96011 0.46516 -0.40400
O 	O 	0.30241 0.78348 0.67521 -0.51600
O 	O 	0.25007 0.75060 0.65031 -0.50500
Zn	Zn	0.26854 0.69831 0.77404 1.21300
C 	C 	0.22360 0.72400 0.84486 0.44500
C 	C 	0.21070 0.71290 0.88564 -0.21200
C 	C 	0.22630 0.68040 0.90380 0.14500
H 	H 	0.24560 0.66600 0.89050 -0.00200
C 	C 	0.21480 0.66780 0.94140 -0.23300
H 	H 	0.22650 0.64600 0.95350 0.12100
C 	C 	0.18490 0.68920 0.95970 0.19900
C 	C 	0.17000 0.72200 0.94260 -0.23700
H 	H 	0.15140 0.73700 0.95630 0.12200
C 	C 	0.18190 0.73410 0.90460 0.14500
H 	H 	0.17040 0.75600 0.89260 -0.00400
C 	C 	0.13940 0.64500 0.99529 0.05500
C 	C 	0.12570 0.62840 0.96090 -0.09800
H 	H 	0.13540 0.63730 0.93660 0.07300
C 	C 	0.09800 0.59900 0.96180 0.01100
H 	H 	0.08920 0.58820 0.93800 0.04400
C 	C 	0.08270 0.58470 0.99690 -0.05000
C 	C 	0.09670 0.60130 0.03185 -0.09900
H 	H 	0.08730 0.59210 0.05600 0.09300
C 	C 	0.12400 0.63090 0.03110 0.11700
C 	C 	0.16480 0.67410 0.06764 0.12100
C 	C 	0.18330 0.68760 0.03243 0.03900
C 	C 	0.21310 0.71550 0.03600 -0.09700
H 	H 	0.22470 0.72590 0.01330 0.06800
C 	C 	0.22600 0.72820 0.07317 0.01000
H 	H 	0.24690 0.74590 0.07520 0.04000
C 	C 	0.20760 0.71430 0.10698 -0.07300
C 	C 	0.17780 0.68650 0.10424 -0.08300
H 	H 	0.16650 0.67620 0.12710 0.08800
C 	C 	0.05213 0.55313 0.99800 0.36200
C 	C 	0.21960 0.72720 0.14762 0.38100
N 	N 	0.16850 0.67490 0.99636 -0.14500
O 	O 	0.24622 0.70058 0.82756 -0.51900
O 	O 	0.21035 0.75583 0.83110 -0.51200
O 	O 	0.13470 0.64700 0.06689 -0.22500
O 	O 	0.04004 0.54198 0.03142 -0.41300
O 	O 	0.04125 0.53989 0.96516 -0.41100
O 	O 	0.19759 0.71652 0.17521 -0.51700
O 	O 	0.24993 0.74940 0.15031 -0.50600
Zn	Zn	0.76854 0.19831 0.27404 1.21300
C 	C 	0.72360 0.22400 0.34486 0.44400
C 	C 	0.71070 0.21290 0.38564 -0.21100
C 	C 	0.72630 0.18040 0.40380 0.14400
H 	H 	0.74560 0.16600 0.39050 -0.00300
C 	C 	0.71480 0.16780 0.44140 -0.23200
H 	H 	0.72650 0.14600 0.45350 0.11900
C 	C 	0.68490 0.18920 0.45970 0.19700
C 	C 	0.67000 0.22200 0.44260 -0.23600
H 	H 	0.65140 0.23700 0.45630 0.12000
C 	C 	0.68190 0.23410 0.40460 0.14400
H 	H 	0.67040 0.25600 0.39260 -0.00400
C 	C 	0.63940 0.14500 0.49529 0.04400
C 	C 	0.62570 0.12840 0.46090 -0.09600
H 	H 	0.63540 0.13730 0.43660 0.07200
C 	C 	0.59800 0.09900 0.46180 0.01000
H 	H 	0.58920 0.08820 0.43800 0.04300
C 	C 	0.58270 0.08470 0.49690 -0.05900
C 	C 	0.59670 0.10130 0.53185 -0.08900
H 	H 	0.58730 0.09210 0.55600 0.09100
C 	C 	0.62400 0.13090 0.53110 0.12400
C 	C 	0.66480 0.17410 0.56764 0.11900
C 	C 	0.68330 0.18760 0.53243 0.04900
C 	C 	0.71310 0.21550 0.53600 -0.10100
H 	H 	0.72470 0.22590 0.51330 0.07300
C 	C 	0.72600 0.22820 0.57317 0.01400
H 	H 	0.74690 0.24590 0.57520 0.04000
C 	C 	0.70760 0.21430 0.60698 -0.07500
C 	C 	0.67780 0.18650 0.60424 -0.08100
H 	H 	0.66650 0.17620 0.62710 0.08800
C 	C 	0.55213 0.05313 0.49800 0.35200
C 	C 	0.71960 0.22720 0.64762 0.38200
N 	N 	0.66850 0.17490 0.49636 -0.14900
O 	O 	0.74622 0.20058 0.32756 -0.52000
O 	O 	0.71035 0.25583 0.33110 -0.51200
O 	O 	0.63470 0.14700 0.56689 -0.22500
O 	O 	0.54004 0.04198 0.53142 -0.40500
O 	O 	0.54125 0.03989 0.46516 -0.41100
O 	O 	0.69759 0.21652 0.67521 -0.51700
O 	O 	0.74993 0.24940 0.65031 -0.50500
Zn	Zn	0.73146 0.69831 0.22596 1.21300
C 	C 	0.77640 0.72400 0.15514 0.44400
C 	C 	0.78930 0.71290 0.11436 -0.21100
C 	C 	0.77370 0.68040 0.09620 0.14300
H 	H 	0.75440 0.66600 0.10950 -0.00300
C 	C 	0.78520 0.66780 0.05860 -0.23200
H 	H 	0.77350 0.64600 0.04650 0.11700
C 	C 	0.81510 0.68920 0.04030 0.19500
C 	C 	0.83000 0.72200 0.05740 -0.23600
H 	H 	0.84860 0.73700 0.04370 0.11900
C 	C 	0.81810 0.73410 0.09540 0.14300
H 	H 	0.82960 0.75600 0.10740 -0.00300
C 	C 	0.86060 0.64500 0.00471 0.03400
C 	C 	0.87430 0.62840 0.03910 -0.09300
H 	H 	0.86460 0.63730 0.06340 0.07100
C 	C 	0.90200 0.59900 0.03820 0.00900
H 	H 	0.91080 0.58820 0.06200 0.04500
C 	C 	0.91730 0.58470 0.00310 -0.06400
C 	C 	0.90330 0.60130 0.96815 -0.08000
H 	H 	0.91270 0.59210 0.94400 0.09100
C 	C 	0.87600 0.63090 0.96890 0.13300
C 	C 	0.83520 0.67410 0.93236 0.11800
C 	C 	0.81670 0.68760 0.96757 0.05900
C 	C 	0.78690 0.71550 0.96400 -0.10500
H 	H 	0.77530 0.72590 0.98670 0.07800
C 	C 	0.77400 0.72820 0.92683 0.01800
H 	H 	0.75310 0.74590 0.92480 0.04000
C 	C 	0.79240 0.71430 0.89302 -0.07600
C 	C 	0.82220 0.68650 0.89576 -0.07800
H 	H 	0.83350 0.67620 0.87290 0.08800
C 	C 	0.94787 0.55313 0.00200 0.34100
C 	C 	0.78040 0.72720 0.85238 0.38300
N 	N 	0.83150 0.67490 0.00364 -0.15300
O 	O 	0.75378 0.70058 0.17244 -0.51900
O 	O 	0.78965 0.75583 0.16890 -0.51200
O 	O 	0.86530 0.64700 0.93311 -0.22300
O 	O 	0.95996 0.54198 0.96858 -0.39000
O 	O 	0.95875 0.53989 0.03484 -0.40300
O 	O 	0.80241 0.71652 0.82479 -0.51600
O 	O 	0.75007 0.74940 0.84969 -0.50500
Zn	Zn	0.23146 0.19831 0.72596 1.21300
C 	C 	0.27640 0.22400 0.65514 0.44400
C 	C 	0.28930 0.21290 0.61436 -0.21200
C 	C 	0.27370 0.18040 0.59620 0.14400
H 	H 	0.25440 0.16600 0.60950 -0.00300
C 	C 	0.28520 0.16780 0.55860 -0.23200
H 	H 	0.27350 0.14600 0.54650 0.11800
C 	C 	0.31510 0.18920 0.54030 0.19700
C 	C 	0.33000 0.22200 0.55740 -0.23600
H 	H 	0.34860 0.23700 0.54370 0.12000
C 	C 	0.31810 0.23410 0.59540 0.14400
H 	H 	0.32960 0.25600 0.60740 -0.00400
C 	C 	0.36060 0.14500 0.50471 0.04400
C 	C 	0.37430 0.12840 0.53910 -0.09600
H 	H 	0.36460 0.13730 0.56340 0.07200
C 	C 	0.40200 0.09900 0.53820 0.01000
H 	H 	0.41080 0.08820 0.56200 0.04300
C 	C 	0.41730 0.08470 0.50310 -0.05900
C 	C 	0.40330 0.10130 0.46815 -0.08900
H 	H 	0.41270 0.09210 0.44400 0.09100
C 	C 	0.37600 0.13090 0.46890 0.12400
C 	C 	0.33520 0.17410 0.43236 0.11900
C 	C 	0.31670 0.18760 0.46757 0.04900
C 	C 	0.28690 0.21550 0.46400 -0.10100
H 	H 	0.27530 0.22590 0.48670 0.07300
C 	C 	0.27400 0.22820 0.42683 0.01400
H 	H 	0.25310 0.24590 0.42480 0.04000
C 	C 	0.29240 0.21430 0.39302 -0.07500
C 	C 	0.32220 0.18650 0.39576 -0.08100
H 	H 	0.33350 0.17620 0.37290 0.08800
C 	C 	0.44787 0.05313 0.50200 0.35200
C 	C 	0.28040 0.22720 0.35238 0.38200
N 	N 	0.33150 0.17490 0.50364 -0.14900
O 	O 	0.25378 0.20058 0.67244 -0.52000
O 	O 	0.28965 0.25583 0.66890 -0.51200
O 	O 	0.36530 0.14700 0.43311 -0.22500
O 	O 	0.45996 0.04198 0.46858 -0.40500
O 	O 	0.45875 0.03989 0.53484 -0.41100
O 	O 	0.30241 0.21652 0.32479 -0.51700
O 	O 	0.25007 0.24940 0.34969 -0.50600
Zn	Zn	0.22066 0.22066 0.22066 1.21500
O 	O 	0.25372 0.25372 0.25372 -0.96800
Zn	Zn	0.72066 0.72066 0.72066 1.21500
O 	O 	0.75372 0.75372 0.75372 -0.96700
Zn	Zn	0.77934 0.77934 0.22066 1.21500
O 	O 	0.74628 0.74628 0.25372 -0.96700
Zn	Zn	0.27934 0.27934 0.72066 1.21500
O 	O 	0.24628 0.24628 0.75372 -0.96700
Zn	Zn	0.77934 0.22066 0.77934 1.21500
O 	O 	0.74628 0.25372 0.74628 -0.96700
Zn	Zn	0.27934 0.72066 0.27934 1.21500
O 	O 	0.24628 0.75372 0.24628 -0.96700
Zn	Zn	0.22066 0.77934 0.77934 1.21500
O 	O 	0.25372 0.74628 0.74628 -0.96700
Zn	Zn	0.72066 0.27934 0.27934 1.21500
O 	O 	0.75372 0.24628 0.24628 -0.96700
Cu	Cu	0.96119 -0.00000 0.50000 0.90100
Cu	Cu	0.46119 0.50000 -0.00000 0.90000
Cu	Cu	0.03881 -0.00000 0.50000 0.89900
Cu	Cu	0.53881 0.50000 -0.00000 0.90000
Cu	Cu	0.50000 0.96119 -0.00000 0.90100
Cu	Cu	0.00000 0.46119 0.50000 0.90000
Cu	Cu	0.50000 0.03881 -0.00000 0.89900
Cu	Cu	-0.00000 0.53881 0.50000 0.90000
Cu	Cu	-0.00000 0.50000 0.96119 0.90100
Cu	Cu	0.50000 -0.00000 0.46119 0.90000
Cu	Cu	-0.00000 0.50000 0.03881 0.89900
Cu	Cu	0.50000 -0.00000 0.53881 0.90000
