data_crystal

_cell_length_a 33.78370
_cell_length_b 33.78370
_cell_length_c 33.78370
_cell_angle_alpha 90.00000
_cell_angle_beta  90.00000
_cell_angle_gamma 90.00000

_symmetry_space_group_name_	'P 1'
_symmetry_space_group_name_H-M	'P 1'

loop_
_symmetry_equiv_pos_as_xyz
  x,y,z

loop_
_atom_site_label
_atom_site_type_symbol
_atom_site_fract_x
_atom_site_fract_y
_atom_site_fract_z
_atom_site_charge
C 	C 	0.32450 0.60180 0.81070 -0.09300
H 	H 	0.33800 0.62420 0.81930 0.09300
C 	C 	0.36100 0.49400 0.85510 0.04500
C 	C 	0.27370 0.57290 0.77070 0.02300
H 	H 	0.25190 0.57470 0.75390 0.03400
O 	O 	0.36620 0.56630 0.85230 -0.21900
C 	C 	0.28790 0.53650 0.78300 -0.11700
H 	H 	0.27790 0.51390 0.77090 0.07600
N 	N 	0.33000 0.49540 0.82430 -0.18000
C 	C 	0.37550 0.53080 0.86860 0.12700
C 	C 	0.33490 0.56800 0.82310 0.11300
C 	C 	0.31490 0.53200 0.81100 0.06200
C 	C 	0.29270 0.60620 0.78410 -0.07200
C 	C 	0.40350 0.53240 0.89700 -0.08700
H 	H 	0.41380 0.55660 0.90520 0.09000
C 	C 	0.41660 0.49700 0.91390 -0.05800
C 	C 	0.37250 0.46070 0.87080 -0.10200
H 	H 	0.36190 0.43660 0.86250 0.07400
C 	C 	0.44630 0.49540 0.94610 0.33700
O 	O 	0.45930 0.53160 0.95680 -0.41400
C 	C 	0.28490 0.64650 0.77030 0.34500
O 	O 	0.30190 0.67600 0.78510 -0.51200
O 	O 	0.45800 0.46380 0.96010 -0.45500
C 	C 	0.28690 0.38490 0.78800 -0.39200
C 	C 	0.27090 0.40440 0.81860 0.35500
H 	H 	0.25060 0.39260 0.83290 -0.07600
C 	C 	0.31200 0.45810 0.81210 0.41100
C 	C 	0.28400 0.44230 0.82960 -0.49300
H 	H 	0.27150 0.45560 0.85020 0.20600
C 	C 	0.40060 0.46240 0.90000 0.01000
H 	H 	0.40940 0.43880 0.91100 0.04100
C 	C 	0.32980 0.44280 0.78180 -0.42400
H 	H 	0.35070 0.45570 0.76930 0.18500
O 	O 	0.28900 0.33030 0.74550 -0.51200
C 	C 	0.27580 0.34530 0.77860 0.52700
O 	O 	0.25290 0.32730 0.79960 -0.54100
Zn	Zn	0.23048 0.27358 0.80182 1.21400
C 	C 	0.31550 0.40420 0.76850 0.30200
H 	H 	0.32640 0.39280 0.74600 -0.05700
O 	O 	0.24960 0.65080 0.75350 -0.47900
C 	C 	0.82450 0.10180 0.31070 -0.09800
H 	H 	0.83800 0.12420 0.31930 0.09200
C 	C 	0.86100 0.99400 0.35510 0.05800
C 	C 	0.77370 0.07290 0.27070 0.01500
H 	H 	0.75190 0.07470 0.25390 0.03400
O 	O 	0.86620 0.06630 0.35230 -0.22100
C 	C 	0.78790 0.03650 0.28300 -0.11100
H 	H 	0.77790 0.01390 0.27090 0.06900
N 	N 	0.83000 0.99540 0.32430 -0.17600
C 	C 	0.87550 0.03080 0.36860 0.11700
C 	C 	0.83490 0.06800 0.32310 0.11500
C 	C 	0.81490 0.03200 0.31100 0.04700
C 	C 	0.79270 0.10620 0.28410 -0.07000
C 	C 	0.90350 0.03240 0.39700 -0.10000
H 	H 	0.91380 0.05660 0.40520 0.09200
C 	C 	0.91660 0.99700 0.41390 -0.04800
C 	C 	0.87250 0.96070 0.37080 -0.10700
H 	H 	0.86190 0.93660 0.36250 0.07500
C 	C 	0.94630 0.99540 0.44610 0.34700
O 	O 	0.95930 0.03160 0.45680 -0.42400
C 	C 	0.78490 0.14650 0.27030 0.34300
O 	O 	0.80190 0.17600 0.28510 -0.51200
O 	O 	0.95800 0.96380 0.46010 -0.45500
C 	C 	0.78690 0.88490 0.28800 -0.39300
C 	C 	0.77090 0.90440 0.31860 0.35700
H 	H 	0.75060 0.89260 0.33290 -0.07600
C 	C 	0.81200 0.95810 0.31210 0.41500
C 	C 	0.78400 0.94230 0.32960 -0.49600
H 	H 	0.77150 0.95560 0.35020 0.20800
C 	C 	0.90060 0.96240 0.40000 0.01100
H 	H 	0.90940 0.93880 0.41100 0.04100
C 	C 	0.82980 0.94280 0.28180 -0.42500
H 	H 	0.85070 0.95570 0.26930 0.18800
O 	O 	0.78900 0.83030 0.24550 -0.51100
C 	C 	0.77580 0.84530 0.27860 0.52800
O 	O 	0.75290 0.82730 0.29960 -0.54100
Zn	Zn	0.73048 0.77358 0.30182 1.21400
C 	C 	0.81550 0.90420 0.26850 0.30500
H 	H 	0.82640 0.89280 0.24600 -0.05700
O 	O 	0.74960 0.15080 0.25350 -0.48000
C 	C 	0.67550 0.39820 0.81070 -0.09400
H 	H 	0.66200 0.37580 0.81930 0.09200
C 	C 	0.63900 0.50600 0.85510 0.04400
C 	C 	0.72630 0.42710 0.77070 0.02200
H 	H 	0.74810 0.42530 0.75390 0.03400
O 	O 	0.63380 0.43370 0.85230 -0.22000
C 	C 	0.71210 0.46350 0.78300 -0.11800
H 	H 	0.72210 0.48610 0.77090 0.07600
N 	N 	0.67000 0.50460 0.82430 -0.18100
C 	C 	0.62450 0.46920 0.86860 0.12600
C 	C 	0.66510 0.43200 0.82310 0.11300
C 	C 	0.68510 0.46800 0.81100 0.06100
C 	C 	0.70730 0.39380 0.78410 -0.07200
C 	C 	0.59650 0.46760 0.89700 -0.08800
H 	H 	0.58620 0.44340 0.90520 0.08900
C 	C 	0.58340 0.50300 0.91390 -0.05900
C 	C 	0.62750 0.53930 0.87080 -0.10300
H 	H 	0.63810 0.56340 0.86250 0.07300
C 	C 	0.55370 0.50460 0.94610 0.33600
O 	O 	0.54070 0.46840 0.95680 -0.41500
C 	C 	0.71510 0.35350 0.77030 0.34400
O 	O 	0.69810 0.32400 0.78510 -0.51200
O 	O 	0.54200 0.53620 0.96010 -0.45500
C 	C 	0.71310 0.61510 0.78800 -0.39200
C 	C 	0.72910 0.59560 0.81860 0.35400
H 	H 	0.74940 0.60740 0.83290 -0.07500
C 	C 	0.68800 0.54190 0.81210 0.41100
C 	C 	0.71600 0.55770 0.82960 -0.49300
H 	H 	0.72850 0.54440 0.85020 0.20600
C 	C 	0.59940 0.53760 0.90000 0.01000
H 	H 	0.59060 0.56120 0.91100 0.04100
C 	C 	0.67020 0.55720 0.78180 -0.42300
H 	H 	0.64930 0.54430 0.76930 0.18500
O 	O 	0.71100 0.66970 0.74550 -0.51200
C 	C 	0.72420 0.65470 0.77860 0.52700
O 	O 	0.74710 0.67270 0.79960 -0.54100
Zn	Zn	0.76952 0.72642 0.80182 1.21400
C 	C 	0.68450 0.59580 0.76850 0.30200
H 	H 	0.67360 0.60720 0.74600 -0.05700
O 	O 	0.75040 0.34920 0.75350 -0.47900
C 	C 	0.17550 0.89820 0.31070 -0.09000
H 	H 	0.16200 0.87580 0.31930 0.08900
C 	C 	0.13900 0.00600 0.35510 0.03200
C 	C 	0.22630 0.92710 0.27070 0.02900
H 	H 	0.24810 0.92530 0.25390 0.03200
O 	O 	0.13380 0.93370 0.35230 -0.22100
C 	C 	0.21210 0.96350 0.28300 -0.12700
H 	H 	0.22210 0.98610 0.27090 0.08200
N 	N 	0.17000 0.00460 0.32430 -0.18600
C 	C 	0.12450 0.96920 0.36860 0.13400
C 	C 	0.16510 0.93200 0.32310 0.10900
C 	C 	0.18510 0.96800 0.31100 0.07400
C 	C 	0.20730 0.89380 0.28410 -0.07600
C 	C 	0.09650 0.96760 0.39700 -0.07500
H 	H 	0.08620 0.94340 0.40520 0.08400
C 	C 	0.08340 0.00300 0.41390 -0.07400
C 	C 	0.12750 0.03930 0.37080 -0.10300
H 	H 	0.13810 0.06340 0.36250 0.07100
C 	C 	0.05370 0.00460 0.44610 0.32700
O 	O 	0.04070 0.96840 0.45680 -0.41400
C 	C 	0.21510 0.85350 0.27030 0.34600
O 	O 	0.19810 0.82400 0.28510 -0.51300
O 	O 	0.04200 0.03620 0.46010 -0.46200
C 	C 	0.21310 0.11510 0.28800 -0.39100
C 	C 	0.22910 0.09560 0.31860 0.35100
H 	H 	0.24940 0.10740 0.33290 -0.07600
C 	C 	0.18800 0.04190 0.31210 0.40600
C 	C 	0.21600 0.05770 0.32960 -0.49100
H 	H 	0.22850 0.04440 0.35020 0.20100
C 	C 	0.09940 0.03760 0.40000 0.01100
H 	H 	0.09060 0.06120 0.41100 0.03700
C 	C 	0.17020 0.05720 0.28180 -0.42200
H 	H 	0.14930 0.04430 0.26930 0.18000
O 	O 	0.21100 0.16970 0.24550 -0.51300
C 	C 	0.22420 0.15470 0.27860 0.52600
O 	O 	0.24710 0.17270 0.29960 -0.54200
Zn	Zn	0.26952 0.22642 0.30182 1.21400
C 	C 	0.18450 0.09580 0.26850 0.29900
H 	H 	0.17360 0.10720 0.24600 -0.05800
O 	O 	0.25040 0.84920 0.25350 -0.47900
C 	C 	0.67550 0.60180 0.18930 -0.09400
H 	H 	0.66200 0.62420 0.18070 0.09100
C 	C 	0.63900 0.49400 0.14490 0.04500
C 	C 	0.72630 0.57290 0.22930 0.02200
H 	H 	0.74810 0.57470 0.24610 0.03400
O 	O 	0.63380 0.56630 0.14770 -0.22100
C 	C 	0.71210 0.53650 0.21700 -0.11900
H 	H 	0.72210 0.51390 0.22910 0.07600
N 	N 	0.67000 0.49540 0.17570 -0.18100
C 	C 	0.62450 0.53080 0.13140 0.12400
C 	C 	0.66510 0.56800 0.17690 0.11200
C 	C 	0.68510 0.53200 0.18900 0.06100
C 	C 	0.70730 0.60620 0.21590 -0.07300
C 	C 	0.59650 0.53240 0.10300 -0.08700
H 	H 	0.58620 0.55660 0.09480 0.08700
C 	C 	0.58340 0.49700 0.08610 -0.06300
C 	C 	0.62750 0.46070 0.12920 -0.10600
H 	H 	0.63810 0.43660 0.13750 0.07300
C 	C 	0.55370 0.49540 0.05390 0.33700
O 	O 	0.54070 0.53160 0.04320 -0.42300
C 	C 	0.71510 0.64650 0.22970 0.34400
O 	O 	0.69810 0.67600 0.21490 -0.51300
O 	O 	0.54200 0.46380 0.03990 -0.46300
C 	C 	0.71310 0.38490 0.21200 -0.39200
C 	C 	0.72910 0.40440 0.18140 0.35400
H 	H 	0.74940 0.39260 0.16710 -0.07600
C 	C 	0.68800 0.45810 0.18790 0.41000
C 	C 	0.71600 0.44230 0.17040 -0.49300
H 	H 	0.72850 0.45560 0.14980 0.20400
C 	C 	0.59940 0.46240 0.10000 0.01200
H 	H 	0.59060 0.43880 0.08900 0.03800
C 	C 	0.67020 0.44280 0.21820 -0.42300
H 	H 	0.64930 0.45570 0.23070 0.18400
O 	O 	0.71100 0.33030 0.25450 -0.51200
C 	C 	0.72420 0.34530 0.22140 0.52700
O 	O 	0.74710 0.32730 0.20040 -0.54200
Zn	Zn	0.76952 0.27358 0.19818 1.21400
C 	C 	0.68450 0.40420 0.23150 0.30200
H 	H 	0.67360 0.39280 0.25400 -0.05700
O 	O 	0.75040 0.65080 0.24650 -0.47900
C 	C 	0.17550 0.10180 0.68930 -0.09800
H 	H 	0.16200 0.12420 0.68070 0.09100
C 	C 	0.13900 0.99400 0.64490 0.05800
C 	C 	0.22630 0.07290 0.72930 0.01600
H 	H 	0.24810 0.07470 0.74610 0.03400
O 	O 	0.13380 0.06630 0.64770 -0.22200
C 	C 	0.21210 0.03650 0.71700 -0.11100
H 	H 	0.22210 0.01390 0.72910 0.06900
N 	N 	0.17000 0.99540 0.67570 -0.17600
C 	C 	0.12450 0.03080 0.63140 0.11500
C 	C 	0.16510 0.06800 0.67690 0.11400
C 	C 	0.18510 0.03200 0.68900 0.04700
C 	C 	0.20730 0.10620 0.71590 -0.07000
C 	C 	0.09650 0.03240 0.60300 -0.09900
H 	H 	0.08620 0.05660 0.59480 0.08900
C 	C 	0.08340 0.99700 0.58610 -0.05200
C 	C 	0.12750 0.96070 0.62920 -0.11000
H 	H 	0.13810 0.93660 0.63750 0.07400
C 	C 	0.05370 0.99540 0.55390 0.34700
O 	O 	0.04070 0.03160 0.54320 -0.43300
C 	C 	0.21510 0.14650 0.72970 0.34300
O 	O 	0.19810 0.17600 0.71490 -0.51300
O 	O 	0.04200 0.96380 0.53990 -0.46300
C 	C 	0.21310 0.88490 0.71200 -0.39300
C 	C 	0.22910 0.90440 0.68140 0.35700
H 	H 	0.24940 0.89260 0.66710 -0.07600
C 	C 	0.18800 0.95810 0.68790 0.41500
C 	C 	0.21600 0.94230 0.67040 -0.49500
H 	H 	0.22850 0.95560 0.64980 0.20800
C 	C 	0.09940 0.96240 0.60000 0.01200
H 	H 	0.09060 0.93880 0.58900 0.03800
C 	C 	0.17020 0.94280 0.71820 -0.42500
H 	H 	0.14930 0.95570 0.73070 0.18700
O 	O 	0.21100 0.83030 0.75450 -0.51200
C 	C 	0.22420 0.84530 0.72140 0.52800
O 	O 	0.24710 0.82730 0.70040 -0.54100
Zn	Zn	0.26952 0.77358 0.69818 1.21400
C 	C 	0.18450 0.90420 0.73150 0.30400
H 	H 	0.17360 0.89280 0.75400 -0.05700
O 	O 	0.25040 0.15080 0.74650 -0.48000
C 	C 	0.32450 0.39820 0.18930 -0.09400
H 	H 	0.33800 0.37580 0.18070 0.09100
C 	C 	0.36100 0.50600 0.14490 0.04500
C 	C 	0.27370 0.42710 0.22930 0.02200
H 	H 	0.25190 0.42530 0.24610 0.03300
O 	O 	0.36620 0.43370 0.14770 -0.22100
C 	C 	0.28790 0.46350 0.21700 -0.11900
H 	H 	0.27790 0.48610 0.22910 0.07500
N 	N 	0.33000 0.50460 0.17570 -0.18100
C 	C 	0.37550 0.46920 0.13140 0.12400
C 	C 	0.33490 0.43200 0.17690 0.11200
C 	C 	0.31490 0.46800 0.18900 0.06000
C 	C 	0.29270 0.39380 0.21590 -0.07300
C 	C 	0.40350 0.46760 0.10300 -0.08700
H 	H 	0.41380 0.44340 0.09480 0.08700
C 	C 	0.41660 0.50300 0.08610 -0.06300
C 	C 	0.37250 0.53930 0.12920 -0.10600
H 	H 	0.36190 0.56340 0.13750 0.07300
C 	C 	0.44630 0.50460 0.05390 0.33700
O 	O 	0.45930 0.46840 0.04320 -0.42300
C 	C 	0.28490 0.35350 0.22970 0.34500
O 	O 	0.30190 0.32400 0.21490 -0.51300
O 	O 	0.45800 0.53620 0.03990 -0.46300
C 	C 	0.28690 0.61510 0.21200 -0.39200
C 	C 	0.27090 0.59560 0.18140 0.35400
H 	H 	0.25060 0.60740 0.16710 -0.07700
C 	C 	0.31200 0.54190 0.18790 0.41000
C 	C 	0.28400 0.55770 0.17040 -0.49300
H 	H 	0.27150 0.54440 0.14980 0.20400
C 	C 	0.40060 0.53760 0.10000 0.01200
H 	H 	0.40940 0.56120 0.08900 0.03800
C 	C 	0.32980 0.55720 0.21820 -0.42300
H 	H 	0.35070 0.54430 0.23070 0.18400
O 	O 	0.28900 0.66970 0.25450 -0.51200
C 	C 	0.27580 0.65470 0.22140 0.52700
O 	O 	0.25290 0.67270 0.20040 -0.54200
Zn	Zn	0.23048 0.72642 0.19818 1.21400
C 	C 	0.31550 0.59580 0.23150 0.30200
H 	H 	0.32640 0.60720 0.25400 -0.05700
O 	O 	0.24960 0.34920 0.24650 -0.48000
C 	C 	0.82450 0.89820 0.68930 -0.09000
H 	H 	0.83800 0.87580 0.68070 0.09100
C 	C 	0.86100 0.00600 0.64490 0.03200
C 	C 	0.77370 0.92710 0.72930 0.02900
H 	H 	0.75190 0.92530 0.74610 0.03300
O 	O 	0.86620 0.93370 0.64770 -0.22000
C 	C 	0.78790 0.96350 0.71700 -0.12600
H 	H 	0.77790 0.98610 0.72910 0.08300
N 	N 	0.83000 0.00460 0.67570 -0.18600
C 	C 	0.87550 0.96920 0.63140 0.13600
C 	C 	0.83490 0.93200 0.67690 0.11000
C 	C 	0.81490 0.96800 0.68900 0.07400
C 	C 	0.79270 0.89380 0.71590 -0.07500
C 	C 	0.90350 0.96760 0.60300 -0.07600
H 	H 	0.91380 0.94340 0.59480 0.08700
C 	C 	0.91660 0.00300 0.58610 -0.07000
C 	C 	0.87250 0.03930 0.62920 -0.10000
H 	H 	0.86190 0.06340 0.63750 0.07200
C 	C 	0.94630 0.00460 0.55390 0.32600
O 	O 	0.95930 0.96840 0.54320 -0.40600
C 	C 	0.78490 0.85350 0.72970 0.34600
O 	O 	0.80190 0.82400 0.71490 -0.51200
O 	O 	0.95800 0.03620 0.53990 -0.45400
C 	C 	0.78690 0.11510 0.71200 -0.39000
C 	C 	0.77090 0.09560 0.68140 0.35100
H 	H 	0.75060 0.10740 0.66710 -0.07600
C 	C 	0.81200 0.04190 0.68790 0.40700
C 	C 	0.78400 0.05770 0.67040 -0.49100
H 	H 	0.77150 0.04440 0.64980 0.20200
C 	C 	0.90060 0.03760 0.60000 0.01000
H 	H 	0.90940 0.06120 0.58900 0.04000
C 	C 	0.82980 0.05720 0.71820 -0.42200
H 	H 	0.85070 0.04430 0.73070 0.18300
O 	O 	0.78900 0.16970 0.75450 -0.51200
C 	C 	0.77580 0.15470 0.72140 0.52700
O 	O 	0.75290 0.17270 0.70040 -0.54200
Zn	Zn	0.73048 0.22642 0.69818 1.21400
C 	C 	0.81550 0.09580 0.73150 0.30000
H 	H 	0.82640 0.10720 0.75400 -0.05600
O 	O 	0.74960 0.84920 0.74650 -0.47800
C 	C 	0.81070 0.32450 0.60180 -0.09400
H 	H 	0.81930 0.33800 0.62420 0.09200
C 	C 	0.85510 0.36100 0.49400 0.04400
C 	C 	0.77070 0.27370 0.57290 0.02200
H 	H 	0.75390 0.25190 0.57470 0.03300
O 	O 	0.85230 0.36620 0.56630 -0.22000
C 	C 	0.78300 0.28790 0.53650 -0.11800
H 	H 	0.77090 0.27790 0.51390 0.07500
N 	N 	0.82430 0.33000 0.49540 -0.18100
C 	C 	0.86860 0.37550 0.53080 0.12600
C 	C 	0.82310 0.33490 0.56800 0.11200
C 	C 	0.81100 0.31490 0.53200 0.06100
C 	C 	0.78410 0.29270 0.60620 -0.07300
C 	C 	0.89700 0.40350 0.53240 -0.08800
H 	H 	0.90520 0.41380 0.55660 0.08900
C 	C 	0.91390 0.41660 0.49700 -0.05900
C 	C 	0.87080 0.37250 0.46070 -0.10300
H 	H 	0.86250 0.36190 0.43660 0.07300
C 	C 	0.94610 0.44630 0.49540 0.33600
O 	O 	0.95680 0.45930 0.53160 -0.41500
C 	C 	0.77030 0.28490 0.64650 0.34400
O 	O 	0.78510 0.30190 0.67600 -0.51200
O 	O 	0.96010 0.45800 0.46380 -0.45500
C 	C 	0.78800 0.28690 0.38490 -0.39200
C 	C 	0.81860 0.27090 0.40440 0.35500
H 	H 	0.83290 0.25060 0.39260 -0.07600
C 	C 	0.81210 0.31200 0.45810 0.41100
C 	C 	0.82960 0.28400 0.44230 -0.49300
H 	H 	0.85020 0.27150 0.45560 0.20600
C 	C 	0.90000 0.40060 0.46240 0.01000
H 	H 	0.91100 0.40940 0.43880 0.04100
C 	C 	0.78180 0.32980 0.44280 -0.42400
H 	H 	0.76930 0.35070 0.45570 0.18500
O 	O 	0.74550 0.28900 0.33030 -0.51200
C 	C 	0.77860 0.27580 0.34530 0.52700
O 	O 	0.79960 0.25290 0.32730 -0.54100
Zn	Zn	0.80182 0.23048 0.27358 1.21400
C 	C 	0.76850 0.31550 0.40420 0.30200
H 	H 	0.74600 0.32640 0.39280 -0.05700
O 	O 	0.75350 0.24960 0.65080 -0.47900
C 	C 	0.31070 0.82450 0.10180 -0.09800
H 	H 	0.31930 0.83800 0.12420 0.09200
C 	C 	0.35510 0.86100 0.99400 0.05800
C 	C 	0.27070 0.77370 0.07290 0.01500
H 	H 	0.25390 0.75190 0.07470 0.03400
O 	O 	0.35230 0.86620 0.06630 -0.22100
C 	C 	0.28300 0.78790 0.03650 -0.11100
H 	H 	0.27090 0.77790 0.01390 0.06900
N 	N 	0.32430 0.83000 0.99540 -0.17600
C 	C 	0.36860 0.87550 0.03080 0.11700
C 	C 	0.32310 0.83490 0.06800 0.11500
C 	C 	0.31100 0.81490 0.03200 0.04700
C 	C 	0.28410 0.79270 0.10620 -0.07000
C 	C 	0.39700 0.90350 0.03240 -0.10000
H 	H 	0.40520 0.91380 0.05660 0.09200
C 	C 	0.41390 0.91660 0.99700 -0.04800
C 	C 	0.37080 0.87250 0.96070 -0.10700
H 	H 	0.36250 0.86190 0.93660 0.07500
C 	C 	0.44610 0.94630 0.99540 0.34700
O 	O 	0.45680 0.95930 0.03160 -0.42400
C 	C 	0.27030 0.78490 0.14650 0.34300
O 	O 	0.28510 0.80190 0.17600 -0.51200
O 	O 	0.46010 0.95800 0.96380 -0.45500
C 	C 	0.28800 0.78690 0.88490 -0.39300
C 	C 	0.31860 0.77090 0.90440 0.35700
H 	H 	0.33290 0.75060 0.89260 -0.07600
C 	C 	0.31210 0.81200 0.95810 0.41500
C 	C 	0.32960 0.78400 0.94230 -0.49600
H 	H 	0.35020 0.77150 0.95560 0.20800
C 	C 	0.40000 0.90060 0.96240 0.01100
H 	H 	0.41100 0.90940 0.93880 0.04100
C 	C 	0.28180 0.82980 0.94280 -0.42500
H 	H 	0.26930 0.85070 0.95570 0.18800
O 	O 	0.24550 0.78900 0.83030 -0.51100
C 	C 	0.27860 0.77580 0.84530 0.52800
O 	O 	0.29960 0.75290 0.82730 -0.54100
Zn	Zn	0.30182 0.73048 0.77358 1.21400
C 	C 	0.26850 0.81550 0.90420 0.30500
H 	H 	0.24600 0.82640 0.89280 -0.05700
O 	O 	0.25350 0.74960 0.15080 -0.48000
C 	C 	0.81070 0.67550 0.39820 -0.09400
H 	H 	0.81930 0.66200 0.37580 0.09200
C 	C 	0.85510 0.63900 0.50600 0.04400
C 	C 	0.77070 0.72630 0.42710 0.02200
H 	H 	0.75390 0.74810 0.42530 0.03400
O 	O 	0.85230 0.63380 0.43370 -0.22000
C 	C 	0.78300 0.71210 0.46350 -0.11800
H 	H 	0.77090 0.72210 0.48610 0.07600
N 	N 	0.82430 0.67000 0.50460 -0.18100
C 	C 	0.86860 0.62450 0.46920 0.12600
C 	C 	0.82310 0.66510 0.43200 0.11300
C 	C 	0.81100 0.68510 0.46800 0.06100
C 	C 	0.78410 0.70730 0.39380 -0.07200
C 	C 	0.89700 0.59650 0.46760 -0.08800
H 	H 	0.90520 0.58620 0.44340 0.08900
C 	C 	0.91390 0.58340 0.50300 -0.05900
C 	C 	0.87080 0.62750 0.53930 -0.10300
H 	H 	0.86250 0.63810 0.56340 0.07300
C 	C 	0.94610 0.55370 0.50460 0.33600
O 	O 	0.95680 0.54070 0.46840 -0.41500
C 	C 	0.77030 0.71510 0.35350 0.34400
O 	O 	0.78510 0.69810 0.32400 -0.51200
O 	O 	0.96010 0.54200 0.53620 -0.45500
C 	C 	0.78800 0.71310 0.61510 -0.39200
C 	C 	0.81860 0.72910 0.59560 0.35400
H 	H 	0.83290 0.74940 0.60740 -0.07500
C 	C 	0.81210 0.68800 0.54190 0.41100
C 	C 	0.82960 0.71600 0.55770 -0.49300
H 	H 	0.85020 0.72850 0.54440 0.20600
C 	C 	0.90000 0.59940 0.53760 0.01000
H 	H 	0.91100 0.59060 0.56120 0.04100
C 	C 	0.78180 0.67020 0.55720 -0.42300
H 	H 	0.76930 0.64930 0.54430 0.18500
O 	O 	0.74550 0.71100 0.66970 -0.51200
C 	C 	0.77860 0.72420 0.65470 0.52700
O 	O 	0.79960 0.74710 0.67270 -0.54100
Zn	Zn	0.80182 0.76952 0.72642 1.21400
C 	C 	0.76850 0.68450 0.59580 0.30200
H 	H 	0.74600 0.67360 0.60720 -0.05700
O 	O 	0.75350 0.75040 0.34920 -0.47900
C 	C 	0.31070 0.17550 0.89820 -0.09000
H 	H 	0.31930 0.16200 0.87580 0.08900
C 	C 	0.35510 0.13900 0.00600 0.03200
C 	C 	0.27070 0.22630 0.92710 0.02900
H 	H 	0.25390 0.24810 0.92530 0.03200
O 	O 	0.35230 0.13380 0.93370 -0.22100
C 	C 	0.28300 0.21210 0.96350 -0.12700
H 	H 	0.27090 0.22210 0.98610 0.08200
N 	N 	0.32430 0.17000 0.00460 -0.18600
C 	C 	0.36860 0.12450 0.96920 0.13400
C 	C 	0.32310 0.16510 0.93200 0.10900
C 	C 	0.31100 0.18510 0.96800 0.07400
C 	C 	0.28410 0.20730 0.89380 -0.07600
C 	C 	0.39700 0.09650 0.96760 -0.07500
H 	H 	0.40520 0.08620 0.94340 0.08400
C 	C 	0.41390 0.08340 0.00300 -0.07400
C 	C 	0.37080 0.12750 0.03930 -0.10300
H 	H 	0.36250 0.13810 0.06340 0.07100
C 	C 	0.44610 0.05370 0.00460 0.32700
O 	O 	0.45680 0.04070 0.96840 -0.41400
C 	C 	0.27030 0.21510 0.85350 0.34600
O 	O 	0.28510 0.19810 0.82400 -0.51300
O 	O 	0.46010 0.04200 0.03620 -0.46200
C 	C 	0.28800 0.21310 0.11510 -0.39100
C 	C 	0.31860 0.22910 0.09560 0.35100
H 	H 	0.33290 0.24940 0.10740 -0.07600
C 	C 	0.31210 0.18800 0.04190 0.40600
C 	C 	0.32960 0.21600 0.05770 -0.49100
H 	H 	0.35020 0.22850 0.04440 0.20100
C 	C 	0.40000 0.09940 0.03760 0.01100
H 	H 	0.41100 0.09060 0.06120 0.03700
C 	C 	0.28180 0.17020 0.05720 -0.42200
H 	H 	0.26930 0.14930 0.04430 0.18000
O 	O 	0.24550 0.21100 0.16970 -0.51300
C 	C 	0.27860 0.22420 0.15470 0.52600
O 	O 	0.29960 0.24710 0.17270 -0.54200
Zn	Zn	0.30182 0.26952 0.22642 1.21400
C 	C 	0.26850 0.18450 0.09580 0.29900
H 	H 	0.24600 0.17360 0.10720 -0.05800
O 	O 	0.25350 0.25040 0.84920 -0.47900
C 	C 	0.18930 0.67550 0.60180 -0.09400
H 	H 	0.18070 0.66200 0.62420 0.09100
C 	C 	0.14490 0.63900 0.49400 0.04500
C 	C 	0.22930 0.72630 0.57290 0.02200
H 	H 	0.24610 0.74810 0.57470 0.03400
O 	O 	0.14770 0.63380 0.56630 -0.22100
C 	C 	0.21700 0.71210 0.53650 -0.11900
H 	H 	0.22910 0.72210 0.51390 0.07600
N 	N 	0.17570 0.67000 0.49540 -0.18100
C 	C 	0.13140 0.62450 0.53080 0.12400
C 	C 	0.17690 0.66510 0.56800 0.11200
C 	C 	0.18900 0.68510 0.53200 0.06100
C 	C 	0.21590 0.70730 0.60620 -0.07300
C 	C 	0.10300 0.59650 0.53240 -0.08700
H 	H 	0.09480 0.58620 0.55660 0.08700
C 	C 	0.08610 0.58340 0.49700 -0.06300
C 	C 	0.12920 0.62750 0.46070 -0.10600
H 	H 	0.13750 0.63810 0.43660 0.07300
C 	C 	0.05390 0.55370 0.49540 0.33700
O 	O 	0.04320 0.54070 0.53160 -0.42300
C 	C 	0.22970 0.71510 0.64650 0.34400
O 	O 	0.21490 0.69810 0.67600 -0.51300
O 	O 	0.03990 0.54200 0.46380 -0.46300
C 	C 	0.21200 0.71310 0.38490 -0.39200
C 	C 	0.18140 0.72910 0.40440 0.35400
H 	H 	0.16710 0.74940 0.39260 -0.07600
C 	C 	0.18790 0.68800 0.45810 0.41000
C 	C 	0.17040 0.71600 0.44230 -0.49300
H 	H 	0.14980 0.72850 0.45560 0.20400
C 	C 	0.10000 0.59940 0.46240 0.01200
H 	H 	0.08900 0.59060 0.43880 0.03800
C 	C 	0.21820 0.67020 0.44280 -0.42300
H 	H 	0.23070 0.64930 0.45570 0.18400
O 	O 	0.25450 0.71100 0.33030 -0.51200
C 	C 	0.22140 0.72420 0.34530 0.52700
O 	O 	0.20040 0.74710 0.32730 -0.54200
Zn	Zn	0.19818 0.76952 0.27358 1.21400
C 	C 	0.23150 0.68450 0.40420 0.30200
H 	H 	0.25400 0.67360 0.39280 -0.05700
O 	O 	0.24650 0.75040 0.65080 -0.47900
C 	C 	0.68930 0.17550 0.10180 -0.09800
H 	H 	0.68070 0.16200 0.12420 0.09100
C 	C 	0.64490 0.13900 0.99400 0.05800
C 	C 	0.72930 0.22630 0.07290 0.01600
H 	H 	0.74610 0.24810 0.07470 0.03400
O 	O 	0.64770 0.13380 0.06630 -0.22200
C 	C 	0.71700 0.21210 0.03650 -0.11100
H 	H 	0.72910 0.22210 0.01390 0.06900
N 	N 	0.67570 0.17000 0.99540 -0.17600
C 	C 	0.63140 0.12450 0.03080 0.11500
C 	C 	0.67690 0.16510 0.06800 0.11400
C 	C 	0.68900 0.18510 0.03200 0.04700
C 	C 	0.71590 0.20730 0.10620 -0.07000
C 	C 	0.60300 0.09650 0.03240 -0.09900
H 	H 	0.59480 0.08620 0.05660 0.08900
C 	C 	0.58610 0.08340 0.99700 -0.05200
C 	C 	0.62920 0.12750 0.96070 -0.11000
H 	H 	0.63750 0.13810 0.93660 0.07400
C 	C 	0.55390 0.05370 0.99540 0.34700
O 	O 	0.54320 0.04070 0.03160 -0.43300
C 	C 	0.72970 0.21510 0.14650 0.34300
O 	O 	0.71490 0.19810 0.17600 -0.51300
O 	O 	0.53990 0.04200 0.96380 -0.46300
C 	C 	0.71200 0.21310 0.88490 -0.39300
C 	C 	0.68140 0.22910 0.90440 0.35700
H 	H 	0.66710 0.24940 0.89260 -0.07600
C 	C 	0.68790 0.18800 0.95810 0.41500
C 	C 	0.67040 0.21600 0.94230 -0.49500
H 	H 	0.64980 0.22850 0.95560 0.20800
C 	C 	0.60000 0.09940 0.96240 0.01200
H 	H 	0.58900 0.09060 0.93880 0.03800
C 	C 	0.71820 0.17020 0.94280 -0.42500
H 	H 	0.73070 0.14930 0.95570 0.18700
O 	O 	0.75450 0.21100 0.83030 -0.51200
C 	C 	0.72140 0.22420 0.84530 0.52800
O 	O 	0.70040 0.24710 0.82730 -0.54100
Zn	Zn	0.69818 0.26952 0.77358 1.21400
C 	C 	0.73150 0.18450 0.90420 0.30400
H 	H 	0.75400 0.17360 0.89280 -0.05700
O 	O 	0.74650 0.25040 0.15080 -0.48000
C 	C 	0.18930 0.32450 0.39820 -0.09400
H 	H 	0.18070 0.33800 0.37580 0.09100
C 	C 	0.14490 0.36100 0.50600 0.04500
C 	C 	0.22930 0.27370 0.42710 0.02200
H 	H 	0.24610 0.25190 0.42530 0.03300
O 	O 	0.14770 0.36620 0.43370 -0.22100
C 	C 	0.21700 0.28790 0.46350 -0.11900
H 	H 	0.22910 0.27790 0.48610 0.07500
N 	N 	0.17570 0.33000 0.50460 -0.18100
C 	C 	0.13140 0.37550 0.46920 0.12400
C 	C 	0.17690 0.33490 0.43200 0.11200
C 	C 	0.18900 0.31490 0.46800 0.06000
C 	C 	0.21590 0.29270 0.39380 -0.07300
C 	C 	0.10300 0.40350 0.46760 -0.08700
H 	H 	0.09480 0.41380 0.44340 0.08700
C 	C 	0.08610 0.41660 0.50300 -0.06300
C 	C 	0.12920 0.37250 0.53930 -0.10600
H 	H 	0.13750 0.36190 0.56340 0.07300
C 	C 	0.05390 0.44630 0.50460 0.33700
O 	O 	0.04320 0.45930 0.46840 -0.42300
C 	C 	0.22970 0.28490 0.35350 0.34500
O 	O 	0.21490 0.30190 0.32400 -0.51300
O 	O 	0.03990 0.45800 0.53620 -0.46300
C 	C 	0.21200 0.28690 0.61510 -0.39200
C 	C 	0.18140 0.27090 0.59560 0.35400
H 	H 	0.16710 0.25060 0.60740 -0.07700
C 	C 	0.18790 0.31200 0.54190 0.41000
C 	C 	0.17040 0.28400 0.55770 -0.49300
H 	H 	0.14980 0.27150 0.54440 0.20400
C 	C 	0.10000 0.40060 0.53760 0.01200
H 	H 	0.08900 0.40940 0.56120 0.03800
C 	C 	0.21820 0.32980 0.55720 -0.42300
H 	H 	0.23070 0.35070 0.54430 0.18400
O 	O 	0.25450 0.28900 0.66970 -0.51200
C 	C 	0.22140 0.27580 0.65470 0.52700
O 	O 	0.20040 0.25290 0.67270 -0.54200
Zn	Zn	0.19818 0.23048 0.72642 1.21400
C 	C 	0.23150 0.31550 0.59580 0.30200
H 	H 	0.25400 0.32640 0.60720 -0.05700
O 	O 	0.24650 0.24960 0.34920 -0.48000
C 	C 	0.68930 0.82450 0.89820 -0.09000
H 	H 	0.68070 0.83800 0.87580 0.09100
C 	C 	0.64490 0.86100 0.00600 0.03200
C 	C 	0.72930 0.77370 0.92710 0.02900
H 	H 	0.74610 0.75190 0.92530 0.03300
O 	O 	0.64770 0.86620 0.93370 -0.22000
C 	C 	0.71700 0.78790 0.96350 -0.12600
H 	H 	0.72910 0.77790 0.98610 0.08300
N 	N 	0.67570 0.83000 0.00460 -0.18600
C 	C 	0.63140 0.87550 0.96920 0.13600
C 	C 	0.67690 0.83490 0.93200 0.11000
C 	C 	0.68900 0.81490 0.96800 0.07400
C 	C 	0.71590 0.79270 0.89380 -0.07500
C 	C 	0.60300 0.90350 0.96760 -0.07600
H 	H 	0.59480 0.91380 0.94340 0.08700
C 	C 	0.58610 0.91660 0.00300 -0.07000
C 	C 	0.62920 0.87250 0.03930 -0.10000
H 	H 	0.63750 0.86190 0.06340 0.07200
C 	C 	0.55390 0.94630 0.00460 0.32600
O 	O 	0.54320 0.95930 0.96840 -0.40600
C 	C 	0.72970 0.78490 0.85350 0.34600
O 	O 	0.71490 0.80190 0.82400 -0.51200
O 	O 	0.53990 0.95800 0.03620 -0.45400
C 	C 	0.71200 0.78690 0.11510 -0.39000
C 	C 	0.68140 0.77090 0.09560 0.35100
H 	H 	0.66710 0.75060 0.10740 -0.07600
C 	C 	0.68790 0.81200 0.04190 0.40700
C 	C 	0.67040 0.78400 0.05770 -0.49100
H 	H 	0.64980 0.77150 0.04440 0.20200
C 	C 	0.60000 0.90060 0.03760 0.01000
H 	H 	0.58900 0.90940 0.06120 0.04000
C 	C 	0.71820 0.82980 0.05720 -0.42200
H 	H 	0.73070 0.85070 0.04430 0.18300
O 	O 	0.75450 0.78900 0.16970 -0.51200
C 	C 	0.72140 0.77580 0.15470 0.52700
O 	O 	0.70040 0.75290 0.17270 -0.54200
Zn	Zn	0.69818 0.73048 0.22642 1.21400
C 	C 	0.73150 0.81550 0.09580 0.30000
H 	H 	0.75400 0.82640 0.10720 -0.05600
O 	O 	0.74650 0.74960 0.84920 -0.47800
C 	C 	0.60180 0.81070 0.32450 -0.09400
H 	H 	0.62420 0.81930 0.33800 0.09200
C 	C 	0.49400 0.85510 0.36100 0.04400
C 	C 	0.57290 0.77070 0.27370 0.02200
H 	H 	0.57470 0.75390 0.25190 0.03300
O 	O 	0.56630 0.85230 0.36620 -0.22000
C 	C 	0.53650 0.78300 0.28790 -0.11800
H 	H 	0.51390 0.77090 0.27790 0.07500
N 	N 	0.49540 0.82430 0.33000 -0.18100
C 	C 	0.53080 0.86860 0.37550 0.12600
C 	C 	0.56800 0.82310 0.33490 0.11200
C 	C 	0.53200 0.81100 0.31490 0.06100
C 	C 	0.60620 0.78410 0.29270 -0.07300
C 	C 	0.53240 0.89700 0.40350 -0.08800
H 	H 	0.55660 0.90520 0.41380 0.08900
C 	C 	0.49700 0.91390 0.41660 -0.05900
C 	C 	0.46070 0.87080 0.37250 -0.10300
H 	H 	0.43660 0.86250 0.36190 0.07300
C 	C 	0.49540 0.94610 0.44630 0.33600
O 	O 	0.53160 0.95680 0.45930 -0.41500
C 	C 	0.64650 0.77030 0.28490 0.34400
O 	O 	0.67600 0.78510 0.30190 -0.51200
O 	O 	0.46380 0.96010 0.45800 -0.45500
C 	C 	0.38490 0.78800 0.28690 -0.39200
C 	C 	0.40440 0.81860 0.27090 0.35500
H 	H 	0.39260 0.83290 0.25060 -0.07600
C 	C 	0.45810 0.81210 0.31200 0.41100
C 	C 	0.44230 0.82960 0.28400 -0.49300
H 	H 	0.45560 0.85020 0.27150 0.20600
C 	C 	0.46240 0.90000 0.40060 0.01000
H 	H 	0.43880 0.91100 0.40940 0.04100
C 	C 	0.44280 0.78180 0.32980 -0.42400
H 	H 	0.45570 0.76930 0.35070 0.18500
O 	O 	0.33030 0.74550 0.28900 -0.51200
C 	C 	0.34530 0.77860 0.27580 0.52700
O 	O 	0.32730 0.79960 0.25290 -0.54100
Zn	Zn	0.27358 0.80182 0.23048 1.21400
C 	C 	0.40420 0.76850 0.31550 0.30200
H 	H 	0.39280 0.74600 0.32640 -0.05700
O 	O 	0.65080 0.75350 0.24960 -0.47900
C 	C 	0.10180 0.31070 0.82450 -0.09800
H 	H 	0.12420 0.31930 0.83800 0.09200
C 	C 	0.99400 0.35510 0.86100 0.05800
C 	C 	0.07290 0.27070 0.77370 0.01500
H 	H 	0.07470 0.25390 0.75190 0.03400
O 	O 	0.06630 0.35230 0.86620 -0.22100
C 	C 	0.03650 0.28300 0.78790 -0.11100
H 	H 	0.01390 0.27090 0.77790 0.06900
N 	N 	0.99540 0.32430 0.83000 -0.17600
C 	C 	0.03080 0.36860 0.87550 0.11700
C 	C 	0.06800 0.32310 0.83490 0.11500
C 	C 	0.03200 0.31100 0.81490 0.04700
C 	C 	0.10620 0.28410 0.79270 -0.07000
C 	C 	0.03240 0.39700 0.90350 -0.10000
H 	H 	0.05660 0.40520 0.91380 0.09200
C 	C 	0.99700 0.41390 0.91660 -0.04800
C 	C 	0.96070 0.37080 0.87250 -0.10700
H 	H 	0.93660 0.36250 0.86190 0.07500
C 	C 	0.99540 0.44610 0.94630 0.34700
O 	O 	0.03160 0.45680 0.95930 -0.42400
C 	C 	0.14650 0.27030 0.78490 0.34300
O 	O 	0.17600 0.28510 0.80190 -0.51200
O 	O 	0.96380 0.46010 0.95800 -0.45500
C 	C 	0.88490 0.28800 0.78690 -0.39300
C 	C 	0.90440 0.31860 0.77090 0.35700
H 	H 	0.89260 0.33290 0.75060 -0.07600
C 	C 	0.95810 0.31210 0.81200 0.41500
C 	C 	0.94230 0.32960 0.78400 -0.49600
H 	H 	0.95560 0.35020 0.77150 0.20800
C 	C 	0.96240 0.40000 0.90060 0.01100
H 	H 	0.93880 0.41100 0.90940 0.04100
C 	C 	0.94280 0.28180 0.82980 -0.42500
H 	H 	0.95570 0.26930 0.85070 0.18800
O 	O 	0.83030 0.24550 0.78900 -0.51100
C 	C 	0.84530 0.27860 0.77580 0.52800
O 	O 	0.82730 0.29960 0.75290 -0.54100
Zn	Zn	0.77358 0.30182 0.73048 1.21400
C 	C 	0.90420 0.26850 0.81550 0.30500
H 	H 	0.89280 0.24600 0.82640 -0.05700
O 	O 	0.15080 0.25350 0.74960 -0.48000
C 	C 	0.39820 0.81070 0.67550 -0.09400
H 	H 	0.37580 0.81930 0.66200 0.09200
C 	C 	0.50600 0.85510 0.63900 0.04400
C 	C 	0.42710 0.77070 0.72630 0.02200
H 	H 	0.42530 0.75390 0.74810 0.03400
O 	O 	0.43370 0.85230 0.63380 -0.22000
C 	C 	0.46350 0.78300 0.71210 -0.11800
H 	H 	0.48610 0.77090 0.72210 0.07600
N 	N 	0.50460 0.82430 0.67000 -0.18100
C 	C 	0.46920 0.86860 0.62450 0.12600
C 	C 	0.43200 0.82310 0.66510 0.11300
C 	C 	0.46800 0.81100 0.68510 0.06100
C 	C 	0.39380 0.78410 0.70730 -0.07200
C 	C 	0.46760 0.89700 0.59650 -0.08800
H 	H 	0.44340 0.90520 0.58620 0.08900
C 	C 	0.50300 0.91390 0.58340 -0.05900
C 	C 	0.53930 0.87080 0.62750 -0.10300
H 	H 	0.56340 0.86250 0.63810 0.07300
C 	C 	0.50460 0.94610 0.55370 0.33600
O 	O 	0.46840 0.95680 0.54070 -0.41500
C 	C 	0.35350 0.77030 0.71510 0.34400
O 	O 	0.32400 0.78510 0.69810 -0.51200
O 	O 	0.53620 0.96010 0.54200 -0.45500
C 	C 	0.61510 0.78800 0.71310 -0.39200
C 	C 	0.59560 0.81860 0.72910 0.35400
H 	H 	0.60740 0.83290 0.74940 -0.07500
C 	C 	0.54190 0.81210 0.68800 0.41100
C 	C 	0.55770 0.82960 0.71600 -0.49300
H 	H 	0.54440 0.85020 0.72850 0.20600
C 	C 	0.53760 0.90000 0.59940 0.01000
H 	H 	0.56120 0.91100 0.59060 0.04100
C 	C 	0.55720 0.78180 0.67020 -0.42300
H 	H 	0.54430 0.76930 0.64930 0.18500
O 	O 	0.66970 0.74550 0.71100 -0.51200
C 	C 	0.65470 0.77860 0.72420 0.52700
O 	O 	0.67270 0.79960 0.74710 -0.54100
Zn	Zn	0.72642 0.80182 0.76952 1.21400
C 	C 	0.59580 0.76850 0.68450 0.30200
H 	H 	0.60720 0.74600 0.67360 -0.05700
O 	O 	0.34920 0.75350 0.75040 -0.47900
C 	C 	0.89820 0.31070 0.17550 -0.09000
H 	H 	0.87580 0.31930 0.16200 0.08900
C 	C 	0.00600 0.35510 0.13900 0.03200
C 	C 	0.92710 0.27070 0.22630 0.02900
H 	H 	0.92530 0.25390 0.24810 0.03200
O 	O 	0.93370 0.35230 0.13380 -0.22100
C 	C 	0.96350 0.28300 0.21210 -0.12700
H 	H 	0.98610 0.27090 0.22210 0.08200
N 	N 	0.00460 0.32430 0.17000 -0.18600
C 	C 	0.96920 0.36860 0.12450 0.13400
C 	C 	0.93200 0.32310 0.16510 0.10900
C 	C 	0.96800 0.31100 0.18510 0.07400
C 	C 	0.89380 0.28410 0.20730 -0.07600
C 	C 	0.96760 0.39700 0.09650 -0.07500
H 	H 	0.94340 0.40520 0.08620 0.08400
C 	C 	0.00300 0.41390 0.08340 -0.07400
C 	C 	0.03930 0.37080 0.12750 -0.10300
H 	H 	0.06340 0.36250 0.13810 0.07100
C 	C 	0.00460 0.44610 0.05370 0.32700
O 	O 	0.96840 0.45680 0.04070 -0.41400
C 	C 	0.85350 0.27030 0.21510 0.34600
O 	O 	0.82400 0.28510 0.19810 -0.51300
O 	O 	0.03620 0.46010 0.04200 -0.46200
C 	C 	0.11510 0.28800 0.21310 -0.39100
C 	C 	0.09560 0.31860 0.22910 0.35100
H 	H 	0.10740 0.33290 0.24940 -0.07600
C 	C 	0.04190 0.31210 0.18800 0.40600
C 	C 	0.05770 0.32960 0.21600 -0.49100
H 	H 	0.04440 0.35020 0.22850 0.20100
C 	C 	0.03760 0.40000 0.09940 0.01100
H 	H 	0.06120 0.41100 0.09060 0.03700
C 	C 	0.05720 0.28180 0.17020 -0.42200
H 	H 	0.04430 0.26930 0.14930 0.18000
O 	O 	0.16970 0.24550 0.21100 -0.51300
C 	C 	0.15470 0.27860 0.22420 0.52600
O 	O 	0.17270 0.29960 0.24710 -0.54200
Zn	Zn	0.22642 0.30182 0.26952 1.21400
C 	C 	0.09580 0.26850 0.18450 0.29900
H 	H 	0.10720 0.24600 0.17360 -0.05800
O 	O 	0.84920 0.25350 0.25040 -0.47900
C 	C 	0.60180 0.18930 0.67550 -0.09400
H 	H 	0.62420 0.18070 0.66200 0.09100
C 	C 	0.49400 0.14490 0.63900 0.04500
C 	C 	0.57290 0.22930 0.72630 0.02200
H 	H 	0.57470 0.24610 0.74810 0.03400
O 	O 	0.56630 0.14770 0.63380 -0.22100
C 	C 	0.53650 0.21700 0.71210 -0.11900
H 	H 	0.51390 0.22910 0.72210 0.07600
N 	N 	0.49540 0.17570 0.67000 -0.18100
C 	C 	0.53080 0.13140 0.62450 0.12400
C 	C 	0.56800 0.17690 0.66510 0.11200
C 	C 	0.53200 0.18900 0.68510 0.06100
C 	C 	0.60620 0.21590 0.70730 -0.07300
C 	C 	0.53240 0.10300 0.59650 -0.08700
H 	H 	0.55660 0.09480 0.58620 0.08700
C 	C 	0.49700 0.08610 0.58340 -0.06300
C 	C 	0.46070 0.12920 0.62750 -0.10600
H 	H 	0.43660 0.13750 0.63810 0.07300
C 	C 	0.49540 0.05390 0.55370 0.33700
O 	O 	0.53160 0.04320 0.54070 -0.42300
C 	C 	0.64650 0.22970 0.71510 0.34400
O 	O 	0.67600 0.21490 0.69810 -0.51300
O 	O 	0.46380 0.03990 0.54200 -0.46300
C 	C 	0.38490 0.21200 0.71310 -0.39200
C 	C 	0.40440 0.18140 0.72910 0.35400
H 	H 	0.39260 0.16710 0.74940 -0.07600
C 	C 	0.45810 0.18790 0.68800 0.41000
C 	C 	0.44230 0.17040 0.71600 -0.49300
H 	H 	0.45560 0.14980 0.72850 0.20400
C 	C 	0.46240 0.10000 0.59940 0.01200
H 	H 	0.43880 0.08900 0.59060 0.03800
C 	C 	0.44280 0.21820 0.67020 -0.42300
H 	H 	0.45570 0.23070 0.64930 0.18400
O 	O 	0.33030 0.25450 0.71100 -0.51200
C 	C 	0.34530 0.22140 0.72420 0.52700
O 	O 	0.32730 0.20040 0.74710 -0.54200
Zn	Zn	0.27358 0.19818 0.76952 1.21400
C 	C 	0.40420 0.23150 0.68450 0.30200
H 	H 	0.39280 0.25400 0.67360 -0.05700
O 	O 	0.65080 0.24650 0.75040 -0.47900
C 	C 	0.10180 0.68930 0.17550 -0.09800
H 	H 	0.12420 0.68070 0.16200 0.09100
C 	C 	0.99400 0.64490 0.13900 0.05800
C 	C 	0.07290 0.72930 0.22630 0.01600
H 	H 	0.07470 0.74610 0.24810 0.03400
O 	O 	0.06630 0.64770 0.13380 -0.22200
C 	C 	0.03650 0.71700 0.21210 -0.11100
H 	H 	0.01390 0.72910 0.22210 0.06900
N 	N 	0.99540 0.67570 0.17000 -0.17600
C 	C 	0.03080 0.63140 0.12450 0.11500
C 	C 	0.06800 0.67690 0.16510 0.11400
C 	C 	0.03200 0.68900 0.18510 0.04700
C 	C 	0.10620 0.71590 0.20730 -0.07000
C 	C 	0.03240 0.60300 0.09650 -0.09900
H 	H 	0.05660 0.59480 0.08620 0.08900
C 	C 	0.99700 0.58610 0.08340 -0.05200
C 	C 	0.96070 0.62920 0.12750 -0.11000
H 	H 	0.93660 0.63750 0.13810 0.07400
C 	C 	0.99540 0.55390 0.05370 0.34700
O 	O 	0.03160 0.54320 0.04070 -0.43300
C 	C 	0.14650 0.72970 0.21510 0.34300
O 	O 	0.17600 0.71490 0.19810 -0.51300
O 	O 	0.96380 0.53990 0.04200 -0.46300
C 	C 	0.88490 0.71200 0.21310 -0.39300
C 	C 	0.90440 0.68140 0.22910 0.35700
H 	H 	0.89260 0.66710 0.24940 -0.07600
C 	C 	0.95810 0.68790 0.18800 0.41500
C 	C 	0.94230 0.67040 0.21600 -0.49500
H 	H 	0.95560 0.64980 0.22850 0.20800
C 	C 	0.96240 0.60000 0.09940 0.01200
H 	H 	0.93880 0.58900 0.09060 0.03800
C 	C 	0.94280 0.71820 0.17020 -0.42500
H 	H 	0.95570 0.73070 0.14930 0.18700
O 	O 	0.83030 0.75450 0.21100 -0.51200
C 	C 	0.84530 0.72140 0.22420 0.52800
O 	O 	0.82730 0.70040 0.24710 -0.54100
Zn	Zn	0.77358 0.69818 0.26952 1.21400
C 	C 	0.90420 0.73150 0.18450 0.30400
H 	H 	0.89280 0.75400 0.17360 -0.05700
O 	O 	0.15080 0.74650 0.25040 -0.48000
C 	C 	0.39820 0.18930 0.32450 -0.09400
H 	H 	0.37580 0.18070 0.33800 0.09100
C 	C 	0.50600 0.14490 0.36100 0.04500
C 	C 	0.42710 0.22930 0.27370 0.02200
H 	H 	0.42530 0.24610 0.25190 0.03300
O 	O 	0.43370 0.14770 0.36620 -0.22100
C 	C 	0.46350 0.21700 0.28790 -0.11900
H 	H 	0.48610 0.22910 0.27790 0.07500
N 	N 	0.50460 0.17570 0.33000 -0.18100
C 	C 	0.46920 0.13140 0.37550 0.12400
C 	C 	0.43200 0.17690 0.33490 0.11200
C 	C 	0.46800 0.18900 0.31490 0.06000
C 	C 	0.39380 0.21590 0.29270 -0.07300
C 	C 	0.46760 0.10300 0.40350 -0.08700
H 	H 	0.44340 0.09480 0.41380 0.08700
C 	C 	0.50300 0.08610 0.41660 -0.06300
C 	C 	0.53930 0.12920 0.37250 -0.10600
H 	H 	0.56340 0.13750 0.36190 0.07300
C 	C 	0.50460 0.05390 0.44630 0.33700
O 	O 	0.46840 0.04320 0.45930 -0.42300
C 	C 	0.35350 0.22970 0.28490 0.34500
O 	O 	0.32400 0.21490 0.30190 -0.51300
O 	O 	0.53620 0.03990 0.45800 -0.46300
C 	C 	0.61510 0.21200 0.28690 -0.39200
C 	C 	0.59560 0.18140 0.27090 0.35400
H 	H 	0.60740 0.16710 0.25060 -0.07700
C 	C 	0.54190 0.18790 0.31200 0.41000
C 	C 	0.55770 0.17040 0.28400 -0.49300
H 	H 	0.54440 0.14980 0.27150 0.20400
C 	C 	0.53760 0.10000 0.40060 0.01200
H 	H 	0.56120 0.08900 0.40940 0.03800
C 	C 	0.55720 0.21820 0.32980 -0.42300
H 	H 	0.54430 0.23070 0.35070 0.18400
O 	O 	0.66970 0.25450 0.28900 -0.51200
C 	C 	0.65470 0.22140 0.27580 0.52700
O 	O 	0.67270 0.20040 0.25290 -0.54200
Zn	Zn	0.72642 0.19818 0.23048 1.21400
C 	C 	0.59580 0.23150 0.31550 0.30200
H 	H 	0.60720 0.25400 0.32640 -0.05700
O 	O 	0.34920 0.24650 0.24960 -0.48000
C 	C 	0.89820 0.68930 0.82450 -0.09000
H 	H 	0.87580 0.68070 0.83800 0.09100
C 	C 	0.00600 0.64490 0.86100 0.03200
C 	C 	0.92710 0.72930 0.77370 0.02900
H 	H 	0.92530 0.74610 0.75190 0.03300
O 	O 	0.93370 0.64770 0.86620 -0.22000
C 	C 	0.96350 0.71700 0.78790 -0.12600
H 	H 	0.98610 0.72910 0.77790 0.08300
N 	N 	0.00460 0.67570 0.83000 -0.18600
C 	C 	0.96920 0.63140 0.87550 0.13600
C 	C 	0.93200 0.67690 0.83490 0.11000
C 	C 	0.96800 0.68900 0.81490 0.07400
C 	C 	0.89380 0.71590 0.79270 -0.07500
C 	C 	0.96760 0.60300 0.90350 -0.07600
H 	H 	0.94340 0.59480 0.91380 0.08700
C 	C 	0.00300 0.58610 0.91660 -0.07000
C 	C 	0.03930 0.62920 0.87250 -0.10000
H 	H 	0.06340 0.63750 0.86190 0.07200
C 	C 	0.00460 0.55390 0.94630 0.32600
O 	O 	0.96840 0.54320 0.95930 -0.40600
C 	C 	0.85350 0.72970 0.78490 0.34600
O 	O 	0.82400 0.71490 0.80190 -0.51200
O 	O 	0.03620 0.53990 0.95800 -0.45400
C 	C 	0.11510 0.71200 0.78690 -0.39000
C 	C 	0.09560 0.68140 0.77090 0.35100
H 	H 	0.10740 0.66710 0.75060 -0.07600
C 	C 	0.04190 0.68790 0.81200 0.40700
C 	C 	0.05770 0.67040 0.78400 -0.49100
H 	H 	0.04440 0.64980 0.77150 0.20200
C 	C 	0.03760 0.60000 0.90060 0.01000
H 	H 	0.06120 0.58900 0.90940 0.04000
C 	C 	0.05720 0.71820 0.82980 -0.42200
H 	H 	0.04430 0.73070 0.85070 0.18300
O 	O 	0.16970 0.75450 0.78900 -0.51200
C 	C 	0.15470 0.72140 0.77580 0.52700
O 	O 	0.17270 0.70040 0.75290 -0.54200
Zn	Zn	0.22642 0.69818 0.73048 1.21400
C 	C 	0.09580 0.73150 0.81550 0.30000
H 	H 	0.10720 0.75400 0.82640 -0.05600
O 	O 	0.84920 0.74650 0.74960 -0.47800
Co	Co	0.50000 0.45644 -0.00000 1.13400
Co	Co	-0.00000 0.95644 0.50000 1.13500
Co	Co	0.50000 0.54356 -0.00000 1.13400
Co	Co	0.00000 0.04356 0.50000 1.13200
Co	Co	0.00000 0.50000 0.45644 1.13400
Co	Co	0.50000 0.00000 0.95644 1.13500
Co	Co	-0.00000 0.50000 0.54356 1.13400
Co	Co	0.50000 -0.00000 0.04356 1.13200
Co	Co	0.45644 0.00000 0.50000 1.13400
Co	Co	0.95644 0.50000 -0.00000 1.13500
Co	Co	0.54356 0.00000 0.50000 1.13400
Co	Co	0.04356 0.50000 -0.00000 1.13200
Zn	Zn	0.27861 0.27861 0.72139 1.21600
O 	O 	0.24570 0.24570 0.75430 -0.96800
Zn	Zn	0.77861 0.77861 0.22139 1.21600
O 	O 	0.74570 0.74570 0.25430 -0.96800
Zn	Zn	0.72139 0.72139 0.72139 1.21600
O 	O 	0.75430 0.75430 0.75430 -0.96800
Zn	Zn	0.22139 0.22139 0.22139 1.21600
O 	O 	0.25430 0.25430 0.25430 -0.96900
Zn	Zn	0.72139 0.27861 0.27861 1.21600
O 	O 	0.75430 0.24570 0.24570 -0.96800
Zn	Zn	0.22139 0.77861 0.77861 1.21600
O 	O 	0.25430 0.74570 0.74570 -0.96800
Zn	Zn	0.27861 0.72139 0.27861 1.21600
O 	O 	0.24570 0.75430 0.24570 -0.96800
Zn	Zn	0.77861 0.22139 0.77861 1.21600
O 	O 	0.74570 0.25430 0.74570 -0.96800
