data_crystal

_cell_length_a 33.59880
_cell_length_b 33.59880
_cell_length_c 33.59880
_cell_angle_alpha 90.00000
_cell_angle_beta  90.00000
_cell_angle_gamma 90.00000

_symmetry_space_group_name_	'P 1'
_symmetry_space_group_name_H-M	'P 1'

loop_
_symmetry_equiv_pos_as_xyz
  x,y,z

loop_
_atom_site_label
_atom_site_type_symbol
_atom_site_fract_x
_atom_site_fract_y
_atom_site_fract_z
_atom_site_charge
Zn	Zn	0.72677 0.77192 0.19688 1.21700
C 	C 	0.53980 0.69167 0.18538 0.15000
C 	C 	0.56230 0.72214 0.16875 -0.16700
H 	H 	0.55250 0.73630 0.14710 0.09200
C 	C 	0.59941 0.73142 0.18450 0.04900
H 	H 	0.61450 0.75180 0.17340 0.03400
C 	C 	0.61402 0.71020 0.21690 -0.10500
C 	C 	0.59153 0.67980 0.23352 0.06500
H 	H 	0.60130 0.66560 0.25520 0.02000
C 	C 	0.55441 0.67048 0.21777 -0.17200
H 	H 	0.53940 0.65010 0.22890 0.09900
C 	C 	0.50120 0.58408 0.08183 -0.14000
C 	C 	0.53710 0.60131 0.09323 0.05000
H 	H 	0.55980 0.59720 0.07810 0.02500
C 	C 	0.53883 0.62475 0.12728 -0.10900
H 	H 	0.56280 0.63630 0.13490 0.07600
C 	C 	0.50477 0.63096 0.14991 0.04000
C 	C 	0.46893 0.61373 0.13851 0.10900
C 	C 	0.46710 0.59029 0.10447 -0.03900
H 	H 	0.44320 0.57880 0.09680 0.06800
C 	C 	0.39470 0.71090 0.21891 0.00400
C 	C 	0.39578 0.68120 0.19013 -0.13200
H 	H 	0.37220 0.67050 0.18040 0.10600
C 	C 	0.43212 0.66759 0.17583 0.11900
C 	C 	0.46739 0.68366 0.19030 0.02300
C 	C 	0.46632 0.71335 0.21908 -0.06600
H 	H 	0.48990 0.72410 0.22880 0.06000
C 	C 	0.42997 0.72698 0.23339 -0.03700
H 	H 	0.42920 0.74690 0.25260 0.05700
O 	O 	0.32250 0.69470 0.21440 -0.55800
C 	C 	0.34810 0.71020 0.23040 0.28700
O 	O 	0.35170 0.74970 0.25170 -0.44300
C 	C 	0.50130 0.55670 0.05050 0.46700
O 	O 	0.53320 0.54530 0.03940 -0.50800
O 	O 	0.46870 0.53990 0.04260 -0.50200
O 	O 	0.43500 0.63220 0.14880 -0.21500
C 	C 	0.65910 0.72910 0.22570 0.42200
O 	O 	0.67270 0.74880 0.19920 -0.51900
O 	O 	0.67120 0.71370 0.25620 -0.51900
N 	N 	0.50620 0.67150 0.17210 -0.13400
Zn	Zn	0.22677 0.27192 0.69688 1.21800
C 	C 	0.03980 0.19167 0.68538 0.14700
C 	C 	0.06230 0.22214 0.66875 -0.16500
H 	H 	0.05250 0.23630 0.64710 0.09100
C 	C 	0.09941 0.23142 0.68450 0.04800
H 	H 	0.11450 0.25180 0.67340 0.03500
C 	C 	0.11402 0.21020 0.71690 -0.10400
C 	C 	0.09153 0.17980 0.73352 0.06400
H 	H 	0.10130 0.16560 0.75520 0.02000
C 	C 	0.05441 0.17048 0.71777 -0.17000
H 	H 	0.03940 0.15010 0.72890 0.09600
C 	C 	0.00120 0.08408 0.58183 -0.15000
C 	C 	0.03710 0.10131 0.59323 0.05000
H 	H 	0.05980 0.09720 0.57810 0.02600
C 	C 	0.03883 0.12475 0.62728 -0.10500
H 	H 	0.06280 0.13630 0.63490 0.07500
C 	C 	0.00477 0.13096 0.64991 0.02600
C 	C 	0.96893 0.11373 0.63851 0.12100
C 	C 	0.96710 0.09029 0.60447 -0.02500
H 	H 	0.94320 0.07880 0.59680 0.06600
C 	C 	0.89470 0.21090 0.71891 0.00400
C 	C 	0.89578 0.18120 0.69013 -0.12800
H 	H 	0.87220 0.17050 0.68040 0.10700
C 	C 	0.93212 0.16759 0.67583 0.11900
C 	C 	0.96739 0.18366 0.69030 0.03600
C 	C 	0.96632 0.21335 0.71908 -0.06900
H 	H 	0.98990 0.22410 0.72880 0.06600
C 	C 	0.92997 0.22698 0.73339 -0.03200
H 	H 	0.92920 0.24690 0.75260 0.05700
O 	O 	0.82250 0.19470 0.71440 -0.55800
C 	C 	0.84810 0.21020 0.73040 0.28800
O 	O 	0.85170 0.24970 0.75170 -0.44200
C 	C 	0.00130 0.05670 0.55050 0.45400
O 	O 	0.03320 0.04530 0.53940 -0.50700
O 	O 	0.96870 0.03990 0.54260 -0.49000
O 	O 	0.93500 0.13220 0.64880 -0.21500
C 	C 	0.15910 0.22910 0.72570 0.42100
O 	O 	0.17270 0.24880 0.69920 -0.51900
O 	O 	0.17120 0.21370 0.75620 -0.51900
N 	N 	0.00620 0.17150 0.67210 -0.13800
Zn	Zn	0.27323 0.22808 0.19688 1.21800
C 	C 	0.46020 0.30833 0.18538 0.15100
C 	C 	0.43770 0.27786 0.16875 -0.16600
H 	H 	0.44750 0.26370 0.14710 0.09300
C 	C 	0.40059 0.26858 0.18450 0.05000
H 	H 	0.38550 0.24820 0.17340 0.03500
C 	C 	0.38598 0.28980 0.21690 -0.10400
C 	C 	0.40847 0.32020 0.23352 0.06600
H 	H 	0.39870 0.33440 0.25520 0.02100
C 	C 	0.44559 0.32952 0.21777 -0.17100
H 	H 	0.46060 0.34990 0.22890 0.10000
C 	C 	0.49880 0.41592 0.08183 -0.13900
C 	C 	0.46290 0.39869 0.09323 0.05100
H 	H 	0.44020 0.40280 0.07810 0.02600
C 	C 	0.46117 0.37525 0.12728 -0.10800
H 	H 	0.43720 0.36370 0.13490 0.07700
C 	C 	0.49523 0.36904 0.14991 0.04100
C 	C 	0.53107 0.38627 0.13851 0.11000
C 	C 	0.53290 0.40971 0.10447 -0.03800
H 	H 	0.55680 0.42120 0.09680 0.06900
C 	C 	0.60530 0.28910 0.21891 0.00500
C 	C 	0.60422 0.31880 0.19013 -0.13100
H 	H 	0.62780 0.32950 0.18040 0.10700
C 	C 	0.56788 0.33241 0.17583 0.12000
C 	C 	0.53261 0.31634 0.19030 0.02400
C 	C 	0.53368 0.28665 0.21908 -0.06500
H 	H 	0.51010 0.27590 0.22880 0.05900
C 	C 	0.57003 0.27302 0.23339 -0.03700
H 	H 	0.57080 0.25310 0.25260 0.05600
O 	O 	0.67750 0.30530 0.21440 -0.55800
C 	C 	0.65190 0.28980 0.23040 0.28700
O 	O 	0.64830 0.25030 0.25170 -0.44300
C 	C 	0.49870 0.44330 0.05050 0.46700
O 	O 	0.46680 0.45470 0.03940 -0.50800
O 	O 	0.53130 0.46010 0.04260 -0.50200
O 	O 	0.56500 0.36780 0.14880 -0.21500
C 	C 	0.34090 0.27090 0.22570 0.42100
O 	O 	0.32730 0.25120 0.19920 -0.52000
O 	O 	0.32880 0.28630 0.25620 -0.51900
N 	N 	0.49380 0.32850 0.17210 -0.13400
Zn	Zn	0.77323 0.72808 0.69688 1.21800
C 	C 	0.96020 0.80833 0.68538 0.15500
C 	C 	0.93770 0.77786 0.66875 -0.16700
H 	H 	0.94750 0.76370 0.64710 0.09700
C 	C 	0.90059 0.76858 0.68450 0.05200
H 	H 	0.88550 0.74820 0.67340 0.03600
C 	C 	0.88598 0.78980 0.71690 -0.10400
C 	C 	0.90847 0.82020 0.73352 0.06900
H 	H 	0.89870 0.83440 0.75520 0.02300
C 	C 	0.94559 0.82952 0.71777 -0.17200
H 	H 	0.96060 0.84990 0.72890 0.10400
C 	C 	0.99880 0.91592 0.58183 -0.12300
C 	C 	0.96290 0.89869 0.59323 0.05000
H 	H 	0.94020 0.90280 0.57810 0.03000
C 	C 	0.96117 0.87525 0.62728 -0.10800
H 	H 	0.93720 0.86370 0.63490 0.07900
C 	C 	0.99523 0.86904 0.64991 0.05600
C 	C 	0.03107 0.88627 0.63851 0.10100
C 	C 	0.03290 0.90971 0.60447 -0.05200
H 	H 	0.05680 0.92120 0.59680 0.07500
C 	C 	0.10530 0.78910 0.71891 0.00700
C 	C 	0.10422 0.81880 0.69013 -0.13300
H 	H 	0.12780 0.82950 0.68040 0.10900
C 	C 	0.06788 0.83241 0.67583 0.12200
C 	C 	0.03261 0.81634 0.69030 0.01200
C 	C 	0.03368 0.78665 0.71908 -0.05900
H 	H 	0.01010 0.77590 0.72880 0.05300
C 	C 	0.07003 0.77302 0.73339 -0.04100
H 	H 	0.07080 0.75310 0.75260 0.05700
O 	O 	0.17750 0.80530 0.71440 -0.55800
C 	C 	0.15190 0.78980 0.73040 0.28700
O 	O 	0.14830 0.75030 0.75170 -0.44300
C 	C 	0.99870 0.94330 0.55050 0.47800
O 	O 	0.96680 0.95470 0.53940 -0.50000
O 	O 	0.03130 0.96010 0.54260 -0.50400
O 	O 	0.06500 0.86780 0.64880 -0.21400
C 	C 	0.84090 0.77090 0.72570 0.42200
O 	O 	0.82730 0.75120 0.69920 -0.51800
O 	O 	0.82880 0.78630 0.75620 -0.51700
N 	N 	0.99380 0.82850 0.67210 -0.12900
Zn	Zn	0.27323 0.77192 0.80312 1.21800
C 	C 	0.46020 0.69167 0.81462 0.15200
C 	C 	0.43770 0.72214 0.83125 -0.16600
H 	H 	0.44750 0.73630 0.85290 0.09500
C 	C 	0.40059 0.73142 0.81550 0.05100
H 	H 	0.38550 0.75180 0.82660 0.03600
C 	C 	0.38598 0.71020 0.78310 -0.10400
C 	C 	0.40847 0.67980 0.76648 0.06700
H 	H 	0.39870 0.66560 0.74480 0.02100
C 	C 	0.44559 0.67048 0.78223 -0.17100
H 	H 	0.46060 0.65010 0.77110 0.10000
C 	C 	0.49880 0.58408 0.91817 -0.13400
C 	C 	0.46290 0.60131 0.90677 0.04900
H 	H 	0.44020 0.59720 0.92190 0.03000
C 	C 	0.46117 0.62475 0.87272 -0.10500
H 	H 	0.43720 0.63630 0.86510 0.07700
C 	C 	0.49523 0.63096 0.85009 0.04000
C 	C 	0.53107 0.61373 0.86149 0.11100
C 	C 	0.53290 0.59029 0.89553 -0.04000
H 	H 	0.55680 0.57880 0.90320 0.07200
C 	C 	0.60530 0.71090 0.78109 0.00600
C 	C 	0.60422 0.68120 0.80987 -0.13100
H 	H 	0.62780 0.67050 0.81960 0.10900
C 	C 	0.56788 0.66759 0.82417 0.12100
C 	C 	0.53261 0.68366 0.80970 0.02400
C 	C 	0.53368 0.71335 0.78092 -0.06400
H 	H 	0.51010 0.72410 0.77120 0.06000
C 	C 	0.57003 0.72698 0.76661 -0.03700
H 	H 	0.57080 0.74690 0.74740 0.05700
O 	O 	0.67750 0.69470 0.78560 -0.55800
C 	C 	0.65190 0.71020 0.76960 0.28700
O 	O 	0.64830 0.74970 0.74830 -0.44300
C 	C 	0.49870 0.55670 0.94950 0.46500
O 	O 	0.46680 0.54530 0.96060 -0.49900
O 	O 	0.53130 0.53990 0.95740 -0.49300
O 	O 	0.56500 0.63220 0.85120 -0.21400
C 	C 	0.34090 0.72910 0.77430 0.42200
O 	O 	0.32730 0.74880 0.80080 -0.51800
O 	O 	0.32880 0.71370 0.74380 -0.51800
N 	N 	0.49380 0.67150 0.82790 -0.13300
Zn	Zn	0.77323 0.27192 0.30312 1.21800
C 	C 	0.96020 0.19167 0.31462 0.15500
C 	C 	0.93770 0.22214 0.33125 -0.16700
H 	H 	0.94750 0.23630 0.35290 0.09700
C 	C 	0.90059 0.23142 0.31550 0.05200
H 	H 	0.88550 0.25180 0.32660 0.03500
C 	C 	0.88598 0.21020 0.28310 -0.10500
C 	C 	0.90847 0.17980 0.26648 0.06800
H 	H 	0.89870 0.16560 0.24480 0.02000
C 	C 	0.94559 0.17048 0.28223 -0.17200
H 	H 	0.96060 0.15010 0.27110 0.10200
C 	C 	0.99880 0.08408 0.41817 -0.12800
C 	C 	0.96290 0.10131 0.40677 0.05200
H 	H 	0.94020 0.09720 0.42190 0.02700
C 	C 	0.96117 0.12475 0.37272 -0.11100
H 	H 	0.93720 0.13630 0.36510 0.07800
C 	C 	0.99523 0.13096 0.35009 0.05500
C 	C 	0.03107 0.11373 0.36149 0.09700
C 	C 	0.03290 0.09029 0.39553 -0.05100
H 	H 	0.05680 0.07880 0.40320 0.07100
C 	C 	0.10530 0.21090 0.28109 0.00600
C 	C 	0.10422 0.18120 0.30987 -0.13400
H 	H 	0.12780 0.17050 0.31960 0.10800
C 	C 	0.06788 0.16759 0.32417 0.12100
C 	C 	0.03261 0.18366 0.30970 0.01200
C 	C 	0.03368 0.21335 0.28092 -0.06000
H 	H 	0.01010 0.22410 0.27120 0.05300
C 	C 	0.07003 0.22698 0.26661 -0.04200
H 	H 	0.07080 0.24690 0.24740 0.05600
O 	O 	0.17750 0.19470 0.28560 -0.55900
C 	C 	0.15190 0.21020 0.26960 0.28600
O 	O 	0.14830 0.24970 0.24830 -0.44400
C 	C 	0.99870 0.05670 0.44950 0.48200
O 	O 	0.96680 0.04530 0.46060 -0.50900
O 	O 	0.03130 0.03990 0.45740 -0.51400
O 	O 	0.06500 0.13220 0.35120 -0.21500
C 	C 	0.84090 0.22910 0.27430 0.42200
O 	O 	0.82730 0.24880 0.30080 -0.51900
O 	O 	0.82880 0.21370 0.24380 -0.51900
N 	N 	0.99380 0.17150 0.32790 -0.12900
Zn	Zn	0.72677 0.22808 0.80312 1.21800
C 	C 	0.53980 0.30833 0.81462 0.15100
C 	C 	0.56230 0.27786 0.83125 -0.16600
H 	H 	0.55250 0.26370 0.85290 0.09500
C 	C 	0.59941 0.26858 0.81550 0.05000
H 	H 	0.61450 0.24820 0.82660 0.03500
C 	C 	0.61402 0.28980 0.78310 -0.10400
C 	C 	0.59153 0.32020 0.76648 0.06700
H 	H 	0.60130 0.33440 0.74480 0.02100
C 	C 	0.55441 0.32952 0.78223 -0.17100
H 	H 	0.53940 0.34990 0.77110 0.10000
C 	C 	0.50120 0.41592 0.91817 -0.13400
C 	C 	0.53710 0.39869 0.90677 0.04900
H 	H 	0.55980 0.40280 0.92190 0.03000
C 	C 	0.53883 0.37525 0.87272 -0.10500
H 	H 	0.56280 0.36370 0.86510 0.07700
C 	C 	0.50477 0.36904 0.85009 0.04000
C 	C 	0.46893 0.38627 0.86149 0.11100
C 	C 	0.46710 0.40971 0.89553 -0.04000
H 	H 	0.44320 0.42120 0.90320 0.07200
C 	C 	0.39470 0.28910 0.78109 0.00600
C 	C 	0.39578 0.31880 0.80987 -0.13100
H 	H 	0.37220 0.32950 0.81960 0.10800
C 	C 	0.43212 0.33241 0.82417 0.12100
C 	C 	0.46739 0.31634 0.80970 0.02400
C 	C 	0.46632 0.28665 0.78092 -0.06400
H 	H 	0.48990 0.27590 0.77120 0.05900
C 	C 	0.42997 0.27302 0.76661 -0.03700
H 	H 	0.42920 0.25310 0.74740 0.05700
O 	O 	0.32250 0.30530 0.78560 -0.55800
C 	C 	0.34810 0.28980 0.76960 0.28700
O 	O 	0.35170 0.25030 0.74830 -0.44300
C 	C 	0.50130 0.44330 0.94950 0.46500
O 	O 	0.53320 0.45470 0.96060 -0.49900
O 	O 	0.46870 0.46010 0.95740 -0.49300
O 	O 	0.43500 0.36780 0.85120 -0.21400
C 	C 	0.65910 0.27090 0.77430 0.42100
O 	O 	0.67270 0.25120 0.80080 -0.51900
O 	O 	0.67120 0.28630 0.74380 -0.51900
N 	N 	0.50620 0.32850 0.82790 -0.13300
Zn	Zn	0.22677 0.72808 0.30312 1.21800
C 	C 	0.03980 0.80833 0.31462 0.14700
C 	C 	0.06230 0.77786 0.33125 -0.16500
H 	H 	0.05250 0.76370 0.35290 0.09100
C 	C 	0.09941 0.76858 0.31550 0.04800
H 	H 	0.11450 0.74820 0.32660 0.03500
C 	C 	0.11402 0.78980 0.28310 -0.10400
C 	C 	0.09153 0.82020 0.26648 0.06500
H 	H 	0.10130 0.83440 0.24480 0.02100
C 	C 	0.05441 0.82952 0.28223 -0.17000
H 	H 	0.03940 0.84990 0.27110 0.09700
C 	C 	0.00120 0.91592 0.41817 -0.14400
C 	C 	0.03710 0.89869 0.40677 0.04800
H 	H 	0.05980 0.90280 0.42190 0.02900
C 	C 	0.03883 0.87525 0.37272 -0.10200
H 	H 	0.06280 0.86370 0.36510 0.07600
C 	C 	0.00477 0.86904 0.35009 0.02600
C 	C 	0.96893 0.88627 0.36149 0.12400
C 	C 	0.96710 0.90971 0.39553 -0.02700
H 	H 	0.94320 0.92120 0.40320 0.07000
C 	C 	0.89470 0.78910 0.28109 0.00400
C 	C 	0.89578 0.81880 0.30987 -0.12800
H 	H 	0.87220 0.82950 0.31960 0.10800
C 	C 	0.93212 0.83241 0.32417 0.12000
C 	C 	0.96739 0.81634 0.30970 0.03600
C 	C 	0.96632 0.78665 0.28092 -0.06900
H 	H 	0.98990 0.77590 0.27120 0.06600
C 	C 	0.92997 0.77302 0.26661 -0.03200
H 	H 	0.92920 0.75310 0.24740 0.05700
O 	O 	0.82250 0.80530 0.28560 -0.55700
C 	C 	0.84810 0.78980 0.26960 0.28800
O 	O 	0.85170 0.75030 0.24830 -0.44200
C 	C 	0.00130 0.94330 0.44950 0.45100
O 	O 	0.03320 0.95470 0.46060 -0.49700
O 	O 	0.96870 0.96010 0.45740 -0.48100
O 	O 	0.93500 0.86780 0.35120 -0.21400
C 	C 	0.15910 0.77090 0.27430 0.42100
O 	O 	0.17270 0.75120 0.30080 -0.51900
O 	O 	0.17120 0.78630 0.24380 -0.51900
N 	N 	0.00620 0.82850 0.32790 -0.13800
Zn	Zn	0.19688 0.72677 0.77192 1.21800
C 	C 	0.18538 0.53980 0.69167 0.15100
C 	C 	0.16875 0.56230 0.72214 -0.16600
H 	H 	0.14710 0.55250 0.73630 0.09300
C 	C 	0.18450 0.59941 0.73142 0.05000
H 	H 	0.17340 0.61450 0.75180 0.03500
C 	C 	0.21690 0.61402 0.71020 -0.10400
C 	C 	0.23352 0.59153 0.67980 0.06600
H 	H 	0.25520 0.60130 0.66560 0.02100
C 	C 	0.21777 0.55441 0.67048 -0.17100
H 	H 	0.22890 0.53940 0.65010 0.10000
C 	C 	0.08183 0.50120 0.58408 -0.13900
C 	C 	0.09323 0.53710 0.60131 0.05100
H 	H 	0.07810 0.55980 0.59720 0.02600
C 	C 	0.12728 0.53883 0.62475 -0.10800
H 	H 	0.13490 0.56280 0.63630 0.07700
C 	C 	0.14991 0.50477 0.63096 0.04100
C 	C 	0.13851 0.46893 0.61373 0.11000
C 	C 	0.10447 0.46710 0.59029 -0.03800
H 	H 	0.09680 0.44320 0.57880 0.06900
C 	C 	0.21891 0.39470 0.71090 0.00500
C 	C 	0.19013 0.39578 0.68120 -0.13100
H 	H 	0.18040 0.37220 0.67050 0.10700
C 	C 	0.17583 0.43212 0.66759 0.12000
C 	C 	0.19030 0.46739 0.68366 0.02400
C 	C 	0.21908 0.46632 0.71335 -0.06500
H 	H 	0.22880 0.48990 0.72410 0.06000
C 	C 	0.23339 0.42997 0.72698 -0.03700
H 	H 	0.25260 0.42920 0.74690 0.05700
O 	O 	0.21440 0.32250 0.69470 -0.55800
C 	C 	0.23040 0.34810 0.71020 0.28700
O 	O 	0.25170 0.35170 0.74970 -0.44300
C 	C 	0.05050 0.50130 0.55670 0.46700
O 	O 	0.03940 0.53320 0.54530 -0.50800
O 	O 	0.04260 0.46870 0.53990 -0.50200
O 	O 	0.14880 0.43500 0.63220 -0.21500
C 	C 	0.22570 0.65910 0.72910 0.42200
O 	O 	0.19920 0.67270 0.74880 -0.51900
O 	O 	0.25620 0.67120 0.71370 -0.51900
N 	N 	0.17210 0.50620 0.67150 -0.13400
Zn	Zn	0.69688 0.22677 0.27192 1.21800
C 	C 	0.68538 0.03980 0.19167 0.14700
C 	C 	0.66875 0.06230 0.22214 -0.16500
H 	H 	0.64710 0.05250 0.23630 0.09100
C 	C 	0.68450 0.09941 0.23142 0.04800
H 	H 	0.67340 0.11450 0.25180 0.03500
C 	C 	0.71690 0.11402 0.21020 -0.10400
C 	C 	0.73352 0.09153 0.17980 0.06400
H 	H 	0.75520 0.10130 0.16560 0.02000
C 	C 	0.71777 0.05441 0.17048 -0.17000
H 	H 	0.72890 0.03940 0.15010 0.09600
C 	C 	0.58183 0.00120 0.08408 -0.15000
C 	C 	0.59323 0.03710 0.10131 0.05000
H 	H 	0.57810 0.05980 0.09720 0.02600
C 	C 	0.62728 0.03883 0.12475 -0.10500
H 	H 	0.63490 0.06280 0.13630 0.07500
C 	C 	0.64991 0.00477 0.13096 0.02600
C 	C 	0.63851 0.96893 0.11373 0.12100
C 	C 	0.60447 0.96710 0.09029 -0.02500
H 	H 	0.59680 0.94320 0.07880 0.06600
C 	C 	0.71891 0.89470 0.21090 0.00400
C 	C 	0.69013 0.89578 0.18120 -0.12800
H 	H 	0.68040 0.87220 0.17050 0.10700
C 	C 	0.67583 0.93212 0.16759 0.11900
C 	C 	0.69030 0.96739 0.18366 0.03600
C 	C 	0.71908 0.96632 0.21335 -0.06900
H 	H 	0.72880 0.98990 0.22410 0.06600
C 	C 	0.73339 0.92997 0.22698 -0.03200
H 	H 	0.75260 0.92920 0.24690 0.05700
O 	O 	0.71440 0.82250 0.19470 -0.55800
C 	C 	0.73040 0.84810 0.21020 0.28800
O 	O 	0.75170 0.85170 0.24970 -0.44200
C 	C 	0.55050 0.00130 0.05670 0.45400
O 	O 	0.53940 0.03320 0.04530 -0.50700
O 	O 	0.54260 0.96870 0.03990 -0.49000
O 	O 	0.64880 0.93500 0.13220 -0.21500
C 	C 	0.72570 0.15910 0.22910 0.42100
O 	O 	0.69920 0.17270 0.24880 -0.51900
O 	O 	0.75620 0.17120 0.21370 -0.51900
N 	N 	0.67210 0.00620 0.17150 -0.13800
Zn	Zn	0.19688 0.27323 0.22808 1.21800
C 	C 	0.18538 0.46020 0.30833 0.15100
C 	C 	0.16875 0.43770 0.27786 -0.16600
H 	H 	0.14710 0.44750 0.26370 0.09300
C 	C 	0.18450 0.40059 0.26858 0.05000
H 	H 	0.17340 0.38550 0.24820 0.03500
C 	C 	0.21690 0.38598 0.28980 -0.10400
C 	C 	0.23352 0.40847 0.32020 0.06600
H 	H 	0.25520 0.39870 0.33440 0.02100
C 	C 	0.21777 0.44559 0.32952 -0.17100
H 	H 	0.22890 0.46060 0.34990 0.10000
C 	C 	0.08183 0.49880 0.41592 -0.13900
C 	C 	0.09323 0.46290 0.39869 0.05100
H 	H 	0.07810 0.44020 0.40280 0.02600
C 	C 	0.12728 0.46117 0.37525 -0.10800
H 	H 	0.13490 0.43720 0.36370 0.07700
C 	C 	0.14991 0.49523 0.36904 0.04100
C 	C 	0.13851 0.53107 0.38627 0.11000
C 	C 	0.10447 0.53290 0.40971 -0.03800
H 	H 	0.09680 0.55680 0.42120 0.06900
C 	C 	0.21891 0.60530 0.28910 0.00500
C 	C 	0.19013 0.60422 0.31880 -0.13100
H 	H 	0.18040 0.62780 0.32950 0.10700
C 	C 	0.17583 0.56788 0.33241 0.12000
C 	C 	0.19030 0.53261 0.31634 0.02400
C 	C 	0.21908 0.53368 0.28665 -0.06500
H 	H 	0.22880 0.51010 0.27590 0.05900
C 	C 	0.23339 0.57003 0.27302 -0.03700
H 	H 	0.25260 0.57080 0.25310 0.05600
O 	O 	0.21440 0.67750 0.30530 -0.55800
C 	C 	0.23040 0.65190 0.28980 0.28700
O 	O 	0.25170 0.64830 0.25030 -0.44300
C 	C 	0.05050 0.49870 0.44330 0.46700
O 	O 	0.03940 0.46680 0.45470 -0.50800
O 	O 	0.04260 0.53130 0.46010 -0.50200
O 	O 	0.14880 0.56500 0.36780 -0.21500
C 	C 	0.22570 0.34090 0.27090 0.42100
O 	O 	0.19920 0.32730 0.25120 -0.52000
O 	O 	0.25620 0.32880 0.28630 -0.51900
N 	N 	0.17210 0.49380 0.32850 -0.13400
Zn	Zn	0.69688 0.77323 0.72808 1.21800
C 	C 	0.68538 0.96020 0.80833 0.15500
C 	C 	0.66875 0.93770 0.77786 -0.16700
H 	H 	0.64710 0.94750 0.76370 0.09700
C 	C 	0.68450 0.90059 0.76858 0.05200
H 	H 	0.67340 0.88550 0.74820 0.03600
C 	C 	0.71690 0.88598 0.78980 -0.10400
C 	C 	0.73352 0.90847 0.82020 0.06900
H 	H 	0.75520 0.89870 0.83440 0.02300
C 	C 	0.71777 0.94559 0.82952 -0.17200
H 	H 	0.72890 0.96060 0.84990 0.10400
C 	C 	0.58183 0.99880 0.91592 -0.12300
C 	C 	0.59323 0.96290 0.89869 0.05000
H 	H 	0.57810 0.94020 0.90280 0.03000
C 	C 	0.62728 0.96117 0.87525 -0.10800
H 	H 	0.63490 0.93720 0.86370 0.07900
C 	C 	0.64991 0.99523 0.86904 0.05600
C 	C 	0.63851 0.03107 0.88627 0.10100
C 	C 	0.60447 0.03290 0.90971 -0.05200
H 	H 	0.59680 0.05680 0.92120 0.07500
C 	C 	0.71891 0.10530 0.78910 0.00700
C 	C 	0.69013 0.10422 0.81880 -0.13300
H 	H 	0.68040 0.12780 0.82950 0.10900
C 	C 	0.67583 0.06788 0.83241 0.12200
C 	C 	0.69030 0.03261 0.81634 0.01200
C 	C 	0.71908 0.03368 0.78665 -0.05900
H 	H 	0.72880 0.01010 0.77590 0.05300
C 	C 	0.73339 0.07003 0.77302 -0.04100
H 	H 	0.75260 0.07080 0.75310 0.05700
O 	O 	0.71440 0.17750 0.80530 -0.55800
C 	C 	0.73040 0.15190 0.78980 0.28700
O 	O 	0.75170 0.14830 0.75030 -0.44300
C 	C 	0.55050 0.99870 0.94330 0.47800
O 	O 	0.53940 0.96680 0.95470 -0.50000
O 	O 	0.54260 0.03130 0.96010 -0.50400
O 	O 	0.64880 0.06500 0.86780 -0.21400
C 	C 	0.72570 0.84090 0.77090 0.42200
O 	O 	0.69920 0.82730 0.75120 -0.51800
O 	O 	0.75620 0.82880 0.78630 -0.51700
N 	N 	0.67210 0.99380 0.82850 -0.12900
Zn	Zn	0.80312 0.27323 0.77192 1.21800
C 	C 	0.81462 0.46020 0.69167 0.15200
C 	C 	0.83125 0.43770 0.72214 -0.16600
H 	H 	0.85290 0.44750 0.73630 0.09500
C 	C 	0.81550 0.40059 0.73142 0.05100
H 	H 	0.82660 0.38550 0.75180 0.03600
C 	C 	0.78310 0.38598 0.71020 -0.10400
C 	C 	0.76648 0.40847 0.67980 0.06700
H 	H 	0.74480 0.39870 0.66560 0.02100
C 	C 	0.78223 0.44559 0.67048 -0.17100
H 	H 	0.77110 0.46060 0.65010 0.10000
C 	C 	0.91817 0.49880 0.58408 -0.13400
C 	C 	0.90677 0.46290 0.60131 0.04900
H 	H 	0.92190 0.44020 0.59720 0.03000
C 	C 	0.87272 0.46117 0.62475 -0.10500
H 	H 	0.86510 0.43720 0.63630 0.07700
C 	C 	0.85009 0.49523 0.63096 0.04000
C 	C 	0.86149 0.53107 0.61373 0.11100
C 	C 	0.89553 0.53290 0.59029 -0.04000
H 	H 	0.90320 0.55680 0.57880 0.07200
C 	C 	0.78109 0.60530 0.71090 0.00600
C 	C 	0.80987 0.60422 0.68120 -0.13100
H 	H 	0.81960 0.62780 0.67050 0.10900
C 	C 	0.82417 0.56788 0.66759 0.12100
C 	C 	0.80970 0.53261 0.68366 0.02400
C 	C 	0.78092 0.53368 0.71335 -0.06400
H 	H 	0.77120 0.51010 0.72410 0.06000
C 	C 	0.76661 0.57003 0.72698 -0.03700
H 	H 	0.74740 0.57080 0.74690 0.05700
O 	O 	0.78560 0.67750 0.69470 -0.55800
C 	C 	0.76960 0.65190 0.71020 0.28700
O 	O 	0.74830 0.64830 0.74970 -0.44300
C 	C 	0.94950 0.49870 0.55670 0.46500
O 	O 	0.96060 0.46680 0.54530 -0.49900
O 	O 	0.95740 0.53130 0.53990 -0.49300
O 	O 	0.85120 0.56500 0.63220 -0.21400
C 	C 	0.77430 0.34090 0.72910 0.42200
O 	O 	0.80080 0.32730 0.74880 -0.51800
O 	O 	0.74380 0.32880 0.71370 -0.51800
N 	N 	0.82790 0.49380 0.67150 -0.13300
Zn	Zn	0.30312 0.77323 0.27192 1.21800
C 	C 	0.31462 0.96020 0.19167 0.15500
C 	C 	0.33125 0.93770 0.22214 -0.16700
H 	H 	0.35290 0.94750 0.23630 0.09700
C 	C 	0.31550 0.90059 0.23142 0.05200
H 	H 	0.32660 0.88550 0.25180 0.03500
C 	C 	0.28310 0.88598 0.21020 -0.10500
C 	C 	0.26648 0.90847 0.17980 0.06800
H 	H 	0.24480 0.89870 0.16560 0.02000
C 	C 	0.28223 0.94559 0.17048 -0.17200
H 	H 	0.27110 0.96060 0.15010 0.10200
C 	C 	0.41817 0.99880 0.08408 -0.12800
C 	C 	0.40677 0.96290 0.10131 0.05200
H 	H 	0.42190 0.94020 0.09720 0.02700
C 	C 	0.37272 0.96117 0.12475 -0.11100
H 	H 	0.36510 0.93720 0.13630 0.07800
C 	C 	0.35009 0.99523 0.13096 0.05500
C 	C 	0.36149 0.03107 0.11373 0.09700
C 	C 	0.39553 0.03290 0.09029 -0.05100
H 	H 	0.40320 0.05680 0.07880 0.07100
C 	C 	0.28109 0.10530 0.21090 0.00600
C 	C 	0.30987 0.10422 0.18120 -0.13400
H 	H 	0.31960 0.12780 0.17050 0.10800
C 	C 	0.32417 0.06788 0.16759 0.12100
C 	C 	0.30970 0.03261 0.18366 0.01200
C 	C 	0.28092 0.03368 0.21335 -0.06000
H 	H 	0.27120 0.01010 0.22410 0.05300
C 	C 	0.26661 0.07003 0.22698 -0.04200
H 	H 	0.24740 0.07080 0.24690 0.05600
O 	O 	0.28560 0.17750 0.19470 -0.55900
C 	C 	0.26960 0.15190 0.21020 0.28600
O 	O 	0.24830 0.14830 0.24970 -0.44400
C 	C 	0.44950 0.99870 0.05670 0.48200
O 	O 	0.46060 0.96680 0.04530 -0.50900
O 	O 	0.45740 0.03130 0.03990 -0.51400
O 	O 	0.35120 0.06500 0.13220 -0.21500
C 	C 	0.27430 0.84090 0.22910 0.42200
O 	O 	0.30080 0.82730 0.24880 -0.51900
O 	O 	0.24380 0.82880 0.21370 -0.51900
N 	N 	0.32790 0.99380 0.17150 -0.12900
Zn	Zn	0.80312 0.72677 0.22808 1.21800
C 	C 	0.81462 0.53980 0.30833 0.15100
C 	C 	0.83125 0.56230 0.27786 -0.16600
H 	H 	0.85290 0.55250 0.26370 0.09500
C 	C 	0.81550 0.59941 0.26858 0.05000
H 	H 	0.82660 0.61450 0.24820 0.03500
C 	C 	0.78310 0.61402 0.28980 -0.10400
C 	C 	0.76648 0.59153 0.32020 0.06700
H 	H 	0.74480 0.60130 0.33440 0.02100
C 	C 	0.78223 0.55441 0.32952 -0.17100
H 	H 	0.77110 0.53940 0.34990 0.10000
C 	C 	0.91817 0.50120 0.41592 -0.13400
C 	C 	0.90677 0.53710 0.39869 0.04900
H 	H 	0.92190 0.55980 0.40280 0.03000
C 	C 	0.87272 0.53883 0.37525 -0.10500
H 	H 	0.86510 0.56280 0.36370 0.07700
C 	C 	0.85009 0.50477 0.36904 0.04000
C 	C 	0.86149 0.46893 0.38627 0.11100
C 	C 	0.89553 0.46710 0.40971 -0.04000
H 	H 	0.90320 0.44320 0.42120 0.07200
C 	C 	0.78109 0.39470 0.28910 0.00600
C 	C 	0.80987 0.39578 0.31880 -0.13100
H 	H 	0.81960 0.37220 0.32950 0.10800
C 	C 	0.82417 0.43212 0.33241 0.12100
C 	C 	0.80970 0.46739 0.31634 0.02400
C 	C 	0.78092 0.46632 0.28665 -0.06400
H 	H 	0.77120 0.48990 0.27590 0.05900
C 	C 	0.76661 0.42997 0.27302 -0.03700
H 	H 	0.74740 0.42920 0.25310 0.05700
O 	O 	0.78560 0.32250 0.30530 -0.55800
C 	C 	0.76960 0.34810 0.28980 0.28700
O 	O 	0.74830 0.35170 0.25030 -0.44300
C 	C 	0.94950 0.50130 0.44330 0.46500
O 	O 	0.96060 0.53320 0.45470 -0.49900
O 	O 	0.95740 0.46870 0.46010 -0.49300
O 	O 	0.85120 0.43500 0.36780 -0.21400
C 	C 	0.77430 0.65910 0.27090 0.42100
O 	O 	0.80080 0.67270 0.25120 -0.51900
O 	O 	0.74380 0.67120 0.28630 -0.51900
N 	N 	0.82790 0.50620 0.32850 -0.13300
Zn	Zn	0.30312 0.22677 0.72808 1.21800
C 	C 	0.31462 0.03980 0.80833 0.14700
C 	C 	0.33125 0.06230 0.77786 -0.16500
H 	H 	0.35290 0.05250 0.76370 0.09100
C 	C 	0.31550 0.09941 0.76858 0.04800
H 	H 	0.32660 0.11450 0.74820 0.03500
C 	C 	0.28310 0.11402 0.78980 -0.10400
C 	C 	0.26648 0.09153 0.82020 0.06500
H 	H 	0.24480 0.10130 0.83440 0.02100
C 	C 	0.28223 0.05441 0.82952 -0.17000
H 	H 	0.27110 0.03940 0.84990 0.09700
C 	C 	0.41817 0.00120 0.91592 -0.14400
C 	C 	0.40677 0.03710 0.89869 0.04800
H 	H 	0.42190 0.05980 0.90280 0.02900
C 	C 	0.37272 0.03883 0.87525 -0.10200
H 	H 	0.36510 0.06280 0.86370 0.07600
C 	C 	0.35009 0.00477 0.86904 0.02600
C 	C 	0.36149 0.96893 0.88627 0.12400
C 	C 	0.39553 0.96710 0.90971 -0.02700
H 	H 	0.40320 0.94320 0.92120 0.07000
C 	C 	0.28109 0.89470 0.78910 0.00400
C 	C 	0.30987 0.89578 0.81880 -0.12800
H 	H 	0.31960 0.87220 0.82950 0.10800
C 	C 	0.32417 0.93212 0.83241 0.12000
C 	C 	0.30970 0.96739 0.81634 0.03600
C 	C 	0.28092 0.96632 0.78665 -0.06900
H 	H 	0.27120 0.98990 0.77590 0.06600
C 	C 	0.26661 0.92997 0.77302 -0.03200
H 	H 	0.24740 0.92920 0.75310 0.05700
O 	O 	0.28560 0.82250 0.80530 -0.55700
C 	C 	0.26960 0.84810 0.78980 0.28800
O 	O 	0.24830 0.85170 0.75030 -0.44200
C 	C 	0.44950 0.00130 0.94330 0.45100
O 	O 	0.46060 0.03320 0.95470 -0.49700
O 	O 	0.45740 0.96870 0.96010 -0.48100
O 	O 	0.35120 0.93500 0.86780 -0.21400
C 	C 	0.27430 0.15910 0.77090 0.42100
O 	O 	0.30080 0.17270 0.75120 -0.51900
O 	O 	0.24380 0.17120 0.78630 -0.51900
N 	N 	0.32790 0.00620 0.82850 -0.13800
Zn	Zn	0.77192 0.19688 0.72677 1.21800
C 	C 	0.69167 0.18538 0.53980 0.15100
C 	C 	0.72214 0.16875 0.56230 -0.16600
H 	H 	0.73630 0.14710 0.55250 0.09300
C 	C 	0.73142 0.18450 0.59941 0.05000
H 	H 	0.75180 0.17340 0.61450 0.03500
C 	C 	0.71020 0.21690 0.61402 -0.10400
C 	C 	0.67980 0.23352 0.59153 0.06600
H 	H 	0.66560 0.25520 0.60130 0.02100
C 	C 	0.67048 0.21777 0.55441 -0.17100
H 	H 	0.65010 0.22890 0.53940 0.10000
C 	C 	0.58408 0.08183 0.50120 -0.13900
C 	C 	0.60131 0.09323 0.53710 0.05100
H 	H 	0.59720 0.07810 0.55980 0.02600
C 	C 	0.62475 0.12728 0.53883 -0.10800
H 	H 	0.63630 0.13490 0.56280 0.07700
C 	C 	0.63096 0.14991 0.50477 0.04100
C 	C 	0.61373 0.13851 0.46893 0.11000
C 	C 	0.59029 0.10447 0.46710 -0.03800
H 	H 	0.57880 0.09680 0.44320 0.06900
C 	C 	0.71090 0.21891 0.39470 0.00500
C 	C 	0.68120 0.19013 0.39578 -0.13100
H 	H 	0.67050 0.18040 0.37220 0.10700
C 	C 	0.66759 0.17583 0.43212 0.12000
C 	C 	0.68366 0.19030 0.46739 0.02400
C 	C 	0.71335 0.21908 0.46632 -0.06500
H 	H 	0.72410 0.22880 0.48990 0.06000
C 	C 	0.72698 0.23339 0.42997 -0.03700
H 	H 	0.74690 0.25260 0.42920 0.05700
O 	O 	0.69470 0.21440 0.32250 -0.55800
C 	C 	0.71020 0.23040 0.34810 0.28700
O 	O 	0.74970 0.25170 0.35170 -0.44300
C 	C 	0.55670 0.05050 0.50130 0.46700
O 	O 	0.54530 0.03940 0.53320 -0.50800
O 	O 	0.53990 0.04260 0.46870 -0.50200
O 	O 	0.63220 0.14880 0.43500 -0.21500
C 	C 	0.72910 0.22570 0.65910 0.42200
O 	O 	0.74880 0.19920 0.67270 -0.51900
O 	O 	0.71370 0.25620 0.67120 -0.51900
N 	N 	0.67150 0.17210 0.50620 -0.13400
Zn	Zn	0.27192 0.69688 0.22677 1.21800
C 	C 	0.19167 0.68538 0.03980 0.14700
C 	C 	0.22214 0.66875 0.06230 -0.16500
H 	H 	0.23630 0.64710 0.05250 0.09100
C 	C 	0.23142 0.68450 0.09941 0.04800
H 	H 	0.25180 0.67340 0.11450 0.03500
C 	C 	0.21020 0.71690 0.11402 -0.10400
C 	C 	0.17980 0.73352 0.09153 0.06400
H 	H 	0.16560 0.75520 0.10130 0.02000
C 	C 	0.17048 0.71777 0.05441 -0.17000
H 	H 	0.15010 0.72890 0.03940 0.09600
C 	C 	0.08408 0.58183 0.00120 -0.15000
C 	C 	0.10131 0.59323 0.03710 0.05000
H 	H 	0.09720 0.57810 0.05980 0.02600
C 	C 	0.12475 0.62728 0.03883 -0.10500
H 	H 	0.13630 0.63490 0.06280 0.07500
C 	C 	0.13096 0.64991 0.00477 0.02600
C 	C 	0.11373 0.63851 0.96893 0.12100
C 	C 	0.09029 0.60447 0.96710 -0.02500
H 	H 	0.07880 0.59680 0.94320 0.06600
C 	C 	0.21090 0.71891 0.89470 0.00400
C 	C 	0.18120 0.69013 0.89578 -0.12800
H 	H 	0.17050 0.68040 0.87220 0.10700
C 	C 	0.16759 0.67583 0.93212 0.11900
C 	C 	0.18366 0.69030 0.96739 0.03600
C 	C 	0.21335 0.71908 0.96632 -0.06900
H 	H 	0.22410 0.72880 0.98990 0.06600
C 	C 	0.22698 0.73339 0.92997 -0.03200
H 	H 	0.24690 0.75260 0.92920 0.05700
O 	O 	0.19470 0.71440 0.82250 -0.55800
C 	C 	0.21020 0.73040 0.84810 0.28800
O 	O 	0.24970 0.75170 0.85170 -0.44200
C 	C 	0.05670 0.55050 0.00130 0.45400
O 	O 	0.04530 0.53940 0.03320 -0.50700
O 	O 	0.03990 0.54260 0.96870 -0.49000
O 	O 	0.13220 0.64880 0.93500 -0.21500
C 	C 	0.22910 0.72570 0.15910 0.42100
O 	O 	0.24880 0.69920 0.17270 -0.51900
O 	O 	0.21370 0.75620 0.17120 -0.51900
N 	N 	0.17150 0.67210 0.00620 -0.13800
Zn	Zn	0.22808 0.19688 0.27323 1.21800
C 	C 	0.30833 0.18538 0.46020 0.15100
C 	C 	0.27786 0.16875 0.43770 -0.16600
H 	H 	0.26370 0.14710 0.44750 0.09300
C 	C 	0.26858 0.18450 0.40059 0.05000
H 	H 	0.24820 0.17340 0.38550 0.03500
C 	C 	0.28980 0.21690 0.38598 -0.10400
C 	C 	0.32020 0.23352 0.40847 0.06600
H 	H 	0.33440 0.25520 0.39870 0.02100
C 	C 	0.32952 0.21777 0.44559 -0.17100
H 	H 	0.34990 0.22890 0.46060 0.10000
C 	C 	0.41592 0.08183 0.49880 -0.13900
C 	C 	0.39869 0.09323 0.46290 0.05100
H 	H 	0.40280 0.07810 0.44020 0.02600
C 	C 	0.37525 0.12728 0.46117 -0.10800
H 	H 	0.36370 0.13490 0.43720 0.07700
C 	C 	0.36904 0.14991 0.49523 0.04100
C 	C 	0.38627 0.13851 0.53107 0.11000
C 	C 	0.40971 0.10447 0.53290 -0.03800
H 	H 	0.42120 0.09680 0.55680 0.06900
C 	C 	0.28910 0.21891 0.60530 0.00500
C 	C 	0.31880 0.19013 0.60422 -0.13100
H 	H 	0.32950 0.18040 0.62780 0.10700
C 	C 	0.33241 0.17583 0.56788 0.12000
C 	C 	0.31634 0.19030 0.53261 0.02400
C 	C 	0.28665 0.21908 0.53368 -0.06500
H 	H 	0.27590 0.22880 0.51010 0.05900
C 	C 	0.27302 0.23339 0.57003 -0.03700
H 	H 	0.25310 0.25260 0.57080 0.05600
O 	O 	0.30530 0.21440 0.67750 -0.55800
C 	C 	0.28980 0.23040 0.65190 0.28700
O 	O 	0.25030 0.25170 0.64830 -0.44300
C 	C 	0.44330 0.05050 0.49870 0.46700
O 	O 	0.45470 0.03940 0.46680 -0.50800
O 	O 	0.46010 0.04260 0.53130 -0.50200
O 	O 	0.36780 0.14880 0.56500 -0.21500
C 	C 	0.27090 0.22570 0.34090 0.42100
O 	O 	0.25120 0.19920 0.32730 -0.52000
O 	O 	0.28630 0.25620 0.32880 -0.51900
N 	N 	0.32850 0.17210 0.49380 -0.13400
Zn	Zn	0.72808 0.69688 0.77323 1.21800
C 	C 	0.80833 0.68538 0.96020 0.15500
C 	C 	0.77786 0.66875 0.93770 -0.16700
H 	H 	0.76370 0.64710 0.94750 0.09700
C 	C 	0.76858 0.68450 0.90059 0.05200
H 	H 	0.74820 0.67340 0.88550 0.03600
C 	C 	0.78980 0.71690 0.88598 -0.10400
C 	C 	0.82020 0.73352 0.90847 0.06900
H 	H 	0.83440 0.75520 0.89870 0.02300
C 	C 	0.82952 0.71777 0.94559 -0.17200
H 	H 	0.84990 0.72890 0.96060 0.10400
C 	C 	0.91592 0.58183 0.99880 -0.12300
C 	C 	0.89869 0.59323 0.96290 0.05000
H 	H 	0.90280 0.57810 0.94020 0.03000
C 	C 	0.87525 0.62728 0.96117 -0.10800
H 	H 	0.86370 0.63490 0.93720 0.07900
C 	C 	0.86904 0.64991 0.99523 0.05600
C 	C 	0.88627 0.63851 0.03107 0.10100
C 	C 	0.90971 0.60447 0.03290 -0.05200
H 	H 	0.92120 0.59680 0.05680 0.07500
C 	C 	0.78910 0.71891 0.10530 0.00700
C 	C 	0.81880 0.69013 0.10422 -0.13300
H 	H 	0.82950 0.68040 0.12780 0.10900
C 	C 	0.83241 0.67583 0.06788 0.12200
C 	C 	0.81634 0.69030 0.03261 0.01200
C 	C 	0.78665 0.71908 0.03368 -0.05900
H 	H 	0.77590 0.72880 0.01010 0.05300
C 	C 	0.77302 0.73339 0.07003 -0.04100
H 	H 	0.75310 0.75260 0.07080 0.05700
O 	O 	0.80530 0.71440 0.17750 -0.55800
C 	C 	0.78980 0.73040 0.15190 0.28700
O 	O 	0.75030 0.75170 0.14830 -0.44300
C 	C 	0.94330 0.55050 0.99870 0.47800
O 	O 	0.95470 0.53940 0.96680 -0.50000
O 	O 	0.96010 0.54260 0.03130 -0.50400
O 	O 	0.86780 0.64880 0.06500 -0.21400
C 	C 	0.77090 0.72570 0.84090 0.42200
O 	O 	0.75120 0.69920 0.82730 -0.51800
O 	O 	0.78630 0.75620 0.82880 -0.51700
N 	N 	0.82850 0.67210 0.99380 -0.12900
Zn	Zn	0.77192 0.80312 0.27323 1.21800
C 	C 	0.69167 0.81462 0.46020 0.15200
C 	C 	0.72214 0.83125 0.43770 -0.16600
H 	H 	0.73630 0.85290 0.44750 0.09500
C 	C 	0.73142 0.81550 0.40059 0.05100
H 	H 	0.75180 0.82660 0.38550 0.03600
C 	C 	0.71020 0.78310 0.38598 -0.10400
C 	C 	0.67980 0.76648 0.40847 0.06700
H 	H 	0.66560 0.74480 0.39870 0.02100
C 	C 	0.67048 0.78223 0.44559 -0.17100
H 	H 	0.65010 0.77110 0.46060 0.10000
C 	C 	0.58408 0.91817 0.49880 -0.13400
C 	C 	0.60131 0.90677 0.46290 0.04900
H 	H 	0.59720 0.92190 0.44020 0.03000
C 	C 	0.62475 0.87272 0.46117 -0.10500
H 	H 	0.63630 0.86510 0.43720 0.07700
C 	C 	0.63096 0.85009 0.49523 0.04000
C 	C 	0.61373 0.86149 0.53107 0.11100
C 	C 	0.59029 0.89553 0.53290 -0.04000
H 	H 	0.57880 0.90320 0.55680 0.07200
C 	C 	0.71090 0.78109 0.60530 0.00600
C 	C 	0.68120 0.80987 0.60422 -0.13100
H 	H 	0.67050 0.81960 0.62780 0.10900
C 	C 	0.66759 0.82417 0.56788 0.12100
C 	C 	0.68366 0.80970 0.53261 0.02400
C 	C 	0.71335 0.78092 0.53368 -0.06400
H 	H 	0.72410 0.77120 0.51010 0.06000
C 	C 	0.72698 0.76661 0.57003 -0.03700
H 	H 	0.74690 0.74740 0.57080 0.05700
O 	O 	0.69470 0.78560 0.67750 -0.55800
C 	C 	0.71020 0.76960 0.65190 0.28700
O 	O 	0.74970 0.74830 0.64830 -0.44300
C 	C 	0.55670 0.94950 0.49870 0.46500
O 	O 	0.54530 0.96060 0.46680 -0.49900
O 	O 	0.53990 0.95740 0.53130 -0.49300
O 	O 	0.63220 0.85120 0.56500 -0.21400
C 	C 	0.72910 0.77430 0.34090 0.42200
O 	O 	0.74880 0.80080 0.32730 -0.51800
O 	O 	0.71370 0.74380 0.32880 -0.51800
N 	N 	0.67150 0.82790 0.49380 -0.13300
Zn	Zn	0.27192 0.30312 0.77323 1.21800
C 	C 	0.19167 0.31462 0.96020 0.15500
C 	C 	0.22214 0.33125 0.93770 -0.16700
H 	H 	0.23630 0.35290 0.94750 0.09700
C 	C 	0.23142 0.31550 0.90059 0.05200
H 	H 	0.25180 0.32660 0.88550 0.03500
C 	C 	0.21020 0.28310 0.88598 -0.10500
C 	C 	0.17980 0.26648 0.90847 0.06800
H 	H 	0.16560 0.24480 0.89870 0.02000
C 	C 	0.17048 0.28223 0.94559 -0.17200
H 	H 	0.15010 0.27110 0.96060 0.10200
C 	C 	0.08408 0.41817 0.99880 -0.12800
C 	C 	0.10131 0.40677 0.96290 0.05200
H 	H 	0.09720 0.42190 0.94020 0.02700
C 	C 	0.12475 0.37272 0.96117 -0.11100
H 	H 	0.13630 0.36510 0.93720 0.07800
C 	C 	0.13096 0.35009 0.99523 0.05500
C 	C 	0.11373 0.36149 0.03107 0.09700
C 	C 	0.09029 0.39553 0.03290 -0.05100
H 	H 	0.07880 0.40320 0.05680 0.07100
C 	C 	0.21090 0.28109 0.10530 0.00600
C 	C 	0.18120 0.30987 0.10422 -0.13400
H 	H 	0.17050 0.31960 0.12780 0.10800
C 	C 	0.16759 0.32417 0.06788 0.12100
C 	C 	0.18366 0.30970 0.03261 0.01200
C 	C 	0.21335 0.28092 0.03368 -0.06000
H 	H 	0.22410 0.27120 0.01010 0.05300
C 	C 	0.22698 0.26661 0.07003 -0.04200
H 	H 	0.24690 0.24740 0.07080 0.05600
O 	O 	0.19470 0.28560 0.17750 -0.55900
C 	C 	0.21020 0.26960 0.15190 0.28600
O 	O 	0.24970 0.24830 0.14830 -0.44400
C 	C 	0.05670 0.44950 0.99870 0.48200
O 	O 	0.04530 0.46060 0.96680 -0.50900
O 	O 	0.03990 0.45740 0.03130 -0.51400
O 	O 	0.13220 0.35120 0.06500 -0.21500
C 	C 	0.22910 0.27430 0.84090 0.42200
O 	O 	0.24880 0.30080 0.82730 -0.51900
O 	O 	0.21370 0.24380 0.82880 -0.51900
N 	N 	0.17150 0.32790 0.99380 -0.12900
Zn	Zn	0.22808 0.80312 0.72677 1.21800
C 	C 	0.30833 0.81462 0.53980 0.15100
C 	C 	0.27786 0.83125 0.56230 -0.16600
H 	H 	0.26370 0.85290 0.55250 0.09500
C 	C 	0.26858 0.81550 0.59941 0.05000
H 	H 	0.24820 0.82660 0.61450 0.03500
C 	C 	0.28980 0.78310 0.61402 -0.10400
C 	C 	0.32020 0.76648 0.59153 0.06700
H 	H 	0.33440 0.74480 0.60130 0.02100
C 	C 	0.32952 0.78223 0.55441 -0.17100
H 	H 	0.34990 0.77110 0.53940 0.10000
C 	C 	0.41592 0.91817 0.50120 -0.13400
C 	C 	0.39869 0.90677 0.53710 0.04900
H 	H 	0.40280 0.92190 0.55980 0.03000
C 	C 	0.37525 0.87272 0.53883 -0.10500
H 	H 	0.36370 0.86510 0.56280 0.07700
C 	C 	0.36904 0.85009 0.50477 0.04000
C 	C 	0.38627 0.86149 0.46893 0.11100
C 	C 	0.40971 0.89553 0.46710 -0.04000
H 	H 	0.42120 0.90320 0.44320 0.07200
C 	C 	0.28910 0.78109 0.39470 0.00600
C 	C 	0.31880 0.80987 0.39578 -0.13100
H 	H 	0.32950 0.81960 0.37220 0.10800
C 	C 	0.33241 0.82417 0.43212 0.12100
C 	C 	0.31634 0.80970 0.46739 0.02400
C 	C 	0.28665 0.78092 0.46632 -0.06400
H 	H 	0.27590 0.77120 0.48990 0.05900
C 	C 	0.27302 0.76661 0.42997 -0.03700
H 	H 	0.25310 0.74740 0.42920 0.05700
O 	O 	0.30530 0.78560 0.32250 -0.55800
C 	C 	0.28980 0.76960 0.34810 0.28700
O 	O 	0.25030 0.74830 0.35170 -0.44300
C 	C 	0.44330 0.94950 0.50130 0.46500
O 	O 	0.45470 0.96060 0.53320 -0.49900
O 	O 	0.46010 0.95740 0.46870 -0.49300
O 	O 	0.36780 0.85120 0.43500 -0.21400
C 	C 	0.27090 0.77430 0.65910 0.42100
O 	O 	0.25120 0.80080 0.67270 -0.51900
O 	O 	0.28630 0.74380 0.67120 -0.51900
N 	N 	0.32850 0.82790 0.50620 -0.13300
Zn	Zn	0.72808 0.30312 0.22677 1.21800
C 	C 	0.80833 0.31462 0.03980 0.14700
C 	C 	0.77786 0.33125 0.06230 -0.16500
H 	H 	0.76370 0.35290 0.05250 0.09100
C 	C 	0.76858 0.31550 0.09941 0.04800
H 	H 	0.74820 0.32660 0.11450 0.03500
C 	C 	0.78980 0.28310 0.11402 -0.10400
C 	C 	0.82020 0.26648 0.09153 0.06500
H 	H 	0.83440 0.24480 0.10130 0.02100
C 	C 	0.82952 0.28223 0.05441 -0.17000
H 	H 	0.84990 0.27110 0.03940 0.09700
C 	C 	0.91592 0.41817 0.00120 -0.14400
C 	C 	0.89869 0.40677 0.03710 0.04800
H 	H 	0.90280 0.42190 0.05980 0.02900
C 	C 	0.87525 0.37272 0.03883 -0.10200
H 	H 	0.86370 0.36510 0.06280 0.07600
C 	C 	0.86904 0.35009 0.00477 0.02600
C 	C 	0.88627 0.36149 0.96893 0.12400
C 	C 	0.90971 0.39553 0.96710 -0.02700
H 	H 	0.92120 0.40320 0.94320 0.07000
C 	C 	0.78910 0.28109 0.89470 0.00400
C 	C 	0.81880 0.30987 0.89578 -0.12800
H 	H 	0.82950 0.31960 0.87220 0.10800
C 	C 	0.83241 0.32417 0.93212 0.12000
C 	C 	0.81634 0.30970 0.96739 0.03600
C 	C 	0.78665 0.28092 0.96632 -0.06900
H 	H 	0.77590 0.27120 0.98990 0.06600
C 	C 	0.77302 0.26661 0.92997 -0.03200
H 	H 	0.75310 0.24740 0.92920 0.05700
O 	O 	0.80530 0.28560 0.82250 -0.55700
C 	C 	0.78980 0.26960 0.84810 0.28800
O 	O 	0.75030 0.24830 0.85170 -0.44200
C 	C 	0.94330 0.44950 0.00130 0.45100
O 	O 	0.95470 0.46060 0.03320 -0.49700
O 	O 	0.96010 0.45740 0.96870 -0.48100
O 	O 	0.86780 0.35120 0.93500 -0.21400
C 	C 	0.77090 0.27430 0.15910 0.42100
O 	O 	0.75120 0.30080 0.17270 -0.51900
O 	O 	0.78630 0.24380 0.17120 -0.51900
N 	N 	0.82850 0.32790 0.00620 -0.13800
Zn	Zn	0.72341 0.72341 0.27659 1.22400
O 	O 	0.75533 0.75533 0.24467 -0.97700
Zn	Zn	0.22341 0.22341 0.77659 1.22400
O 	O 	0.25533 0.25533 0.74467 -0.97700
Zn	Zn	0.27659 0.27659 0.27659 1.22400
O 	O 	0.24467 0.24467 0.24467 -0.97800
Zn	Zn	0.77659 0.77659 0.77659 1.22500
O 	O 	0.74467 0.74467 0.74467 -0.97700
Zn	Zn	0.27659 0.72341 0.72341 1.22400
O 	O 	0.24467 0.75533 0.75533 -0.97700
Zn	Zn	0.77659 0.22341 0.22341 1.22400
O 	O 	0.74467 0.25533 0.25533 -0.97700
Zn	Zn	0.72341 0.27659 0.72341 1.22400
O 	O 	0.75533 0.24467 0.75533 -0.97700
Zn	Zn	0.22341 0.77659 0.22341 1.22400
O 	O 	0.25533 0.74467 0.25533 -0.97700
Zn	Zn	0.54384 0.50000 -0.00000 1.19900
Zn	Zn	0.04384 0.00000 0.50000 1.19800
Zn	Zn	0.45616 0.50000 -0.00000 1.19900
Zn	Zn	0.95616 0.00000 0.50000 1.20000
Zn	Zn	0.00000 0.54384 0.50000 1.19900
Zn	Zn	0.50000 0.04384 -0.00000 1.19800
Zn	Zn	0.00000 0.45616 0.50000 1.19900
Zn	Zn	0.50000 0.95616 -0.00000 1.20000
Zn	Zn	0.50000 0.00000 0.54384 1.19900
Zn	Zn	0.00000 0.50000 0.04384 1.19800
Zn	Zn	0.50000 0.00000 0.45616 1.19900
Zn	Zn	0.00000 0.50000 0.95616 1.20000
