data_crystal

_cell_length_a 15.13210
_cell_length_b 16.97620
_cell_length_c 17.04130
_cell_angle_alpha 110.92200
_cell_angle_beta  93.25500
_cell_angle_gamma 97.51100

_symmetry_space_group_name_	'P 1'
_symmetry_space_group_name_H-M	'P 1'

loop_
_symmetry_equiv_pos_as_xyz
  x,y,z

loop_
_atom_site_label
_atom_site_type_symbol
_atom_site_fract_x
_atom_site_fract_y
_atom_site_fract_z
_atom_site_charge
Eu	Eu	0.05785 0.62127 0.52860 2.14600
Eu	Eu	0.94761 0.97034 0.88081 2.12400
Eu	Eu	0.00793 0.86027 0.64410 2.11800
O 	O 	0.91860 0.24760 0.33510 -0.62000
O 	O 	0.92610 0.83440 0.75050 -0.62200
O 	O 	0.82060 0.03820 0.94100 -0.42900
O 	O 	0.88130 0.27590 0.52420 -0.51300
O 	O 	0.92080 0.03550 0.03870 -0.60900
O 	O 	0.05650 0.28690 0.46680 -0.58600
O 	O 	0.06870 0.96960 0.78970 -0.57700
O 	O 	0.92070 0.53720 0.53550 -0.60500
O 	O 	0.89660 0.01930 0.77560 -0.51100
O 	O 	0.81410 0.43720 0.53950 -0.42500
O 	O 	0.99940 0.56000 0.38280 -0.49100
O 	O 	0.07480 0.15000 0.07270 -0.50100
O 	O 	0.00890 0.11760 0.93960 -0.49300
O 	O 	0.80360 0.86830 0.80860 -0.40700
O 	O 	0.14160 0.18610 0.43140 -0.45500
O 	O 	0.79860 0.30430 0.37060 -0.40400
O 	O 	0.92990 0.15060 0.47850 -0.53000
O 	O 	0.92990 0.42580 0.35500 -0.51100
O 	O 	0.16000 0.93850 0.68990 -0.44200
O 	O 	0.95700 0.98490 0.65340 -0.52100
N 	N 	0.52610 0.12190 0.02130 -0.13400
C 	C 	0.95930 0.48550 0.33290 0.48400
N 	N 	0.51960 0.51930 0.62030 -0.13200
C 	C 	0.04580 0.16970 0.01300 0.51000
H 	H 	0.05170 0.22900 0.02280 -0.11900
C 	C 	0.90640 0.11680 0.70470 -0.18300
C 	C 	0.90280 0.21110 0.53540 0.49100
C 	C 	0.79450 0.21090 0.22750 -0.15900
C 	C 	0.89530 0.20130 0.61820 -0.18000
C 	C 	0.88400 0.27120 0.68900 0.06200
H 	H 	0.87660 0.32400 0.68410 0.03400
C 	C 	0.80320 0.11810 0.08340 -0.16100
C 	C 	0.84410 0.81490 0.75970 0.41300
C 	C 	0.14850 0.97670 0.76570 0.38000
C 	C 	0.91940 0.03510 0.71270 0.48800
C 	C 	0.90790 0.12530 0.62730 0.12100
H 	H 	0.91780 0.07840 0.57940 0.01900
C 	C 	0.88370 0.26210 0.76760 -0.07200
C 	C 	0.79960 0.58210 0.61630 -0.15900
C 	C 	0.84370 0.66360 0.66560 0.11100
H 	H 	0.90690 0.67680 0.66770 -0.03000
C 	C 	0.83820 0.25680 0.31580 0.41700
C 	C 	0.79620 0.72550 0.71170 -0.15500
C 	C 	0.89260 0.18540 0.77530 0.06800
H 	H 	0.88930 0.17930 0.82840 0.03300
C 	C 	0.85120 0.06020 0.01690 0.41600
C 	C 	0.84800 0.51550 0.56110 0.41700
C 	C 	0.84400 0.16450 0.16480 0.10600
H 	H 	0.90580 0.16480 0.17830 -0.03100
C 	C 	0.22690 0.02650 0.82910 -0.12800
C 	C 	0.13250 0.26170 0.47180 0.40100
C 	C 	0.71460 0.12090 0.06340 0.04200
H 	H 	0.68710 0.09030 0.00720 0.04500
C 	C 	0.70880 0.56100 0.61780 0.04400
H 	H 	0.67880 0.50450 0.58650 0.04700
C 	C 	0.21290 0.08300 0.90950 0.05500
H 	H 	0.15440 0.09560 0.92010 0.01700
C 	C 	0.20060 0.40490 0.58010 0.07500
H 	H 	0.14200 0.41450 0.59380 0.00600
C 	C 	0.31370 0.01490 0.81280 0.06000
H 	H 	0.32460 0.98070 0.75760 0.02800
C 	C 	0.70430 0.21250 0.20610 0.04000
H 	H 	0.67030 0.24420 0.24800 0.05000
C 	C 	0.29830 0.30960 0.50930 0.05900
H 	H 	0.30730 0.25450 0.47360 0.03200
C 	C 	0.21180 0.32580 0.52280 -0.14600
C 	C 	0.28360 0.12040 0.97340 -0.09200
H 	H 	0.27310 0.15580 0.02820 0.07700
C 	C 	0.70460 0.70510 0.71210 0.04200
H 	H 	0.67180 0.74730 0.74420 0.05000
C 	C 	0.87920 0.33880 0.84520 0.13900
N 	N 	0.43480 0.19710 0.10060 -0.08100
C 	C 	0.27170 0.46970 0.61750 -0.12100
H 	H 	0.26230 0.52420 0.65450 0.08900
N 	N 	0.89670 0.33470 0.92350 -0.13400
C 	C 	0.66430 0.16790 0.12410 -0.05800
C 	C 	0.66110 0.62310 0.66570 -0.05600
C 	C 	0.38460 0.05190 0.87530 -0.10500
H 	H 	0.44340 0.04110 0.86350 0.08600
C 	C 	0.35710 0.45390 0.60000 0.05600
N 	N 	0.50700 0.64840 0.70440 -0.08200
N 	N 	0.51490 0.21260 0.14820 -0.08300
C 	C 	0.57010 0.16860 0.09890 0.13200
C 	C 	0.56370 0.59700 0.66470 0.13400
N 	N 	0.42460 0.60140 0.68850 -0.08100
C 	C 	0.37030 0.10540 0.95630 0.04900
C 	C 	0.44420 0.14080 0.02490 0.09900
C 	C 	0.43350 0.52400 0.63670 0.09800
N 	N 	0.86240 0.41090 0.84890 -0.09600
C 	C 	0.37200 0.37330 0.54750 -0.11000
H 	H 	0.43120 0.36220 0.53810 0.08700
C 	C 	0.94000 0.53530 0.21150 0.10200
H 	H 	0.95040 0.59330 0.24910 0.01100
C 	C 	0.94330 0.47060 0.24320 -0.18700
C 	C 	0.92230 0.51630 0.12820 -0.12800
H 	H 	0.92070 0.56180 0.10840 0.09200
N 	N 	0.86500 0.45840 0.93600 -0.08900
C 	C 	0.88700 0.41350 0.97570 0.10200
C 	C 	0.90580 0.43180 0.06890 0.06500
C 	C 	0.92270 0.38610 0.18680 0.08800
H 	H 	0.91940 0.34140 0.20830 0.01500
C 	C 	0.90680 0.36500 0.09950 -0.11900
H 	H 	0.89690 0.30710 0.06170 0.08600
Eu	Eu	0.94215 0.37873 0.47140 2.14700
Eu	Eu	0.05239 0.02966 0.11919 2.12500
Eu	Eu	0.99207 0.13973 0.35590 2.11900
O 	O 	0.08140 0.75240 0.66490 -0.61900
O 	O 	0.07390 0.16560 0.24950 -0.62100
O 	O 	0.17940 0.96180 0.05900 -0.42800
O 	O 	0.11870 0.72410 0.47580 -0.51200
O 	O 	0.07920 0.96450 0.96130 -0.60800
O 	O 	0.94350 0.71310 0.53320 -0.58500
O 	O 	0.93130 0.03040 0.21030 -0.57600
O 	O 	0.07930 0.46280 0.46450 -0.60500
O 	O 	0.10340 0.98070 0.22440 -0.51100
O 	O 	0.18590 0.56280 0.46050 -0.42500
O 	O 	0.00060 0.44000 0.61720 -0.49100
O 	O 	0.92520 0.85000 0.92730 -0.50100
O 	O 	0.99110 0.88240 0.06040 -0.49300
O 	O 	0.19640 0.13170 0.19140 -0.40700
O 	O 	0.85840 0.81390 0.56860 -0.45500
O 	O 	0.20140 0.69570 0.62940 -0.40400
O 	O 	0.07010 0.84940 0.52150 -0.53000
O 	O 	0.07010 0.57420 0.64500 -0.51100
O 	O 	0.84000 0.06150 0.31010 -0.44200
O 	O 	0.04300 0.01510 0.34660 -0.52100
N 	N 	0.47390 0.87810 0.97870 -0.13400
C 	C 	0.04070 0.51450 0.66710 0.48400
N 	N 	0.48040 0.48070 0.37970 -0.13200
C 	C 	0.95420 0.83030 0.98700 0.51000
H 	H 	0.94830 0.77100 0.97720 -0.11900
C 	C 	0.09360 0.88320 0.29530 -0.18300
C 	C 	0.09720 0.78890 0.46460 0.49100
C 	C 	0.20550 0.78910 0.77250 -0.15900
C 	C 	0.10470 0.79870 0.38180 -0.18000
C 	C 	0.11600 0.72880 0.31100 0.06200
H 	H 	0.12340 0.67600 0.31590 0.03400
C 	C 	0.19680 0.88190 0.91660 -0.16100
C 	C 	0.15590 0.18510 0.24030 0.41300
C 	C 	0.85150 0.02330 0.23430 0.38000
C 	C 	0.08060 0.96490 0.28730 0.48800
C 	C 	0.09210 0.87470 0.37270 0.12100
H 	H 	0.08220 0.92160 0.42060 0.01900
C 	C 	0.11630 0.73790 0.23240 -0.07200
C 	C 	0.20040 0.41790 0.38370 -0.15900
C 	C 	0.15630 0.33640 0.33440 0.11100
H 	H 	0.09310 0.32320 0.33230 -0.03000
C 	C 	0.16180 0.74320 0.68420 0.41700
C 	C 	0.20380 0.27450 0.28830 -0.15500
C 	C 	0.10740 0.81460 0.22470 0.06800
H 	H 	0.11070 0.82070 0.17160 0.03300
C 	C 	0.14880 0.93980 0.98310 0.41600
C 	C 	0.15200 0.48450 0.43890 0.41700
C 	C 	0.15600 0.83550 0.83520 0.10600
H 	H 	0.09420 0.83520 0.82170 -0.03100
C 	C 	0.77310 0.97350 0.17090 -0.12800
C 	C 	0.86750 0.73830 0.52820 0.40100
C 	C 	0.28540 0.87910 0.93660 0.04200
H 	H 	0.31290 0.90970 0.99280 0.04500
C 	C 	0.29120 0.43900 0.38220 0.04400
H 	H 	0.32120 0.49550 0.41350 0.04700
C 	C 	0.78710 0.91700 0.09050 0.05500
H 	H 	0.84560 0.90440 0.07990 0.01700
C 	C 	0.79940 0.59510 0.41990 0.07500
H 	H 	0.85800 0.58550 0.40620 0.00600
C 	C 	0.68630 0.98510 0.18720 0.06000
H 	H 	0.67540 0.01930 0.24240 0.02800
C 	C 	0.29570 0.78750 0.79390 0.04000
H 	H 	0.32970 0.75580 0.75200 0.05000
C 	C 	0.70170 0.69040 0.49070 0.05900
H 	H 	0.69270 0.74550 0.52640 0.03200
C 	C 	0.78820 0.67420 0.47720 -0.14600
C 	C 	0.71640 0.87960 0.02660 -0.09200
H 	H 	0.72690 0.84420 0.97180 0.07700
C 	C 	0.29540 0.29490 0.28790 0.04200
H 	H 	0.32820 0.25270 0.25580 0.05000
C 	C 	0.12080 0.66120 0.15480 0.13900
N 	N 	0.56520 0.80290 0.89940 -0.08100
C 	C 	0.72830 0.53030 0.38250 -0.12100
H 	H 	0.73770 0.47580 0.34550 0.08900
N 	N 	0.10330 0.66530 0.07650 -0.13400
C 	C 	0.33570 0.83210 0.87590 -0.05800
C 	C 	0.33890 0.37690 0.33430 -0.05600
C 	C 	0.61540 0.94810 0.12470 -0.10500
H 	H 	0.55660 0.95890 0.13650 0.08600
C 	C 	0.64290 0.54610 0.40000 0.05600
N 	N 	0.49300 0.35160 0.29560 -0.08200
N 	N 	0.48510 0.78740 0.85180 -0.08300
C 	C 	0.42990 0.83140 0.90110 0.13200
C 	C 	0.43630 0.40300 0.33530 0.13400
N 	N 	0.57540 0.39860 0.31150 -0.08100
C 	C 	0.62970 0.89460 0.04370 0.04900
C 	C 	0.55580 0.85920 0.97510 0.09900
C 	C 	0.56650 0.47600 0.36330 0.09800
N 	N 	0.13760 0.58910 0.15110 -0.09600
C 	C 	0.62800 0.62670 0.45250 -0.11000
H 	H 	0.56880 0.63780 0.46190 0.08700
C 	C 	0.06000 0.46470 0.78850 0.10200
H 	H 	0.04960 0.40670 0.75090 0.01100
C 	C 	0.05670 0.52940 0.75680 -0.18700
C 	C 	0.07770 0.48370 0.87180 -0.12800
H 	H 	0.07930 0.43820 0.89160 0.09200
N 	N 	0.13500 0.54160 0.06400 -0.08900
C 	C 	0.11300 0.58650 0.02430 0.10200
C 	C 	0.09420 0.56820 0.93110 0.06500
C 	C 	0.07730 0.61390 0.81320 0.08800
H 	H 	0.08060 0.65860 0.79170 0.01500
C 	C 	0.09320 0.63500 0.90050 -0.11900
H 	H 	0.10310 0.69290 0.93830 0.08600
