data_crystal

_cell_length_a 15.09750
_cell_length_b 16.77520
_cell_length_c 16.90140
_cell_angle_alpha 110.49300
_cell_angle_beta  91.56200
_cell_angle_gamma 99.17600

_symmetry_space_group_name_	'P 1'
_symmetry_space_group_name_H-M	'P 1'

loop_
_symmetry_equiv_pos_as_xyz
  x,y,z

loop_
_atom_site_label
_atom_site_type_symbol
_atom_site_fract_x
_atom_site_fract_y
_atom_site_fract_z
_atom_site_charge
Gd	Gd	0.55988 0.12226 0.02872 1.75600
Gd	Gd	0.51499 0.36249 0.14630 1.73000
Gd	Gd	0.45086 0.47078 0.38190 1.76600
O 	O 	0.43550 0.92530 0.85680 -0.45900
O 	O 	0.50520 0.06170 0.88400 -0.43500
O 	O 	0.37350 0.77490 0.02420 -0.44700
O 	O 	0.41920 0.64770 0.97550 -0.46800
O 	O 	0.46650 0.48700 0.15520 -0.46500
O 	O 	0.40290 0.51910 0.27890 -0.45200
O 	O 	0.30760 0.36860 0.31310 -0.36500
O 	O 	0.43010 0.33460 0.25190 -0.53700
O 	O 	0.42090 0.03650 0.03230 -0.51800
O 	O 	0.31330 0.93480 0.04040 -0.37100
O 	O 	0.63410 0.68240 0.92720 -0.39800
O 	O 	0.54980 0.78470 0.96520 -0.50000
O 	O 	0.58490 0.25460 0.16400 -0.53900
O 	O 	0.70360 0.19440 0.12850 -0.36300
O 	O 	0.57750 0.46530 0.46100 -0.52600
O 	O 	0.67540 0.46220 0.55840 -0.38700
O 	O 	0.33290 0.55800 0.80970 -0.39200
O 	O 	0.42570 0.52720 0.70900 -0.49600
O 	O 	0.51310 0.61790 0.43890 -0.44900
O 	O 	0.57390 0.65050 0.57210 -0.43700
N 	N 	0.39910 0.83570 0.42320 -0.22600
H 	H 	0.41650 0.79350 0.43550 0.13100
N 	N 	0.35890 0.95870 0.43890 -0.09100
N 	N 	0.35510 0.90990 0.35140 -0.09500
N 	N 	0.01510 0.01630 0.12120 -0.22400
H 	H 	0.03580 0.97080 0.08870 0.13500
N 	N 	0.00540 0.14630 0.20650 -0.08400
N 	N 	0.91980 0.09890 0.18950 -0.08700
N 	N 	0.97120 0.37720 0.47800 -0.22100
H 	H 	0.94910 0.41160 0.52220 0.13000
N 	N 	0.98460 0.28960 0.35060 -0.08700
N 	N 	0.06510 0.30410 0.39740 -0.08400
C 	C 	0.46670 0.98670 0.83500 0.43700
C 	C 	0.44830 0.97330 0.74230 -0.14600
C 	C 	0.44250 0.03900 0.71230 0.07200
H 	H 	0.45210 0.09740 0.75040 0.02000
C 	C 	0.42290 0.01980 0.62750 -0.10600
H 	H 	0.41900 0.06460 0.60610 0.08000
C 	C 	0.40870 0.93510 0.57360 0.04300
C 	C 	0.41620 0.86970 0.60100 -0.10200
H 	H 	0.40840 0.81190 0.56180 0.06900
C 	C 	0.43540 0.88750 0.68690 0.05900
H 	H 	0.43960 0.84210 0.70750 0.02500
C 	C 	0.38850 0.91340 0.47810 0.11900
C 	C 	0.37800 0.83610 0.34730 0.15700
C 	C 	0.38230 0.76210 0.26850 -0.07700
C 	C 	0.37860 0.76940 0.18940 0.05200
H 	H 	0.36860 0.82180 0.18380 0.04100
C 	C 	0.38990 0.69890 0.11760 -0.15300
C 	C 	0.39430 0.70880 0.03350 0.45600
C 	C 	0.40780 0.62340 0.12550 0.09100
H 	H 	0.41910 0.57720 0.07720 0.03200
C 	C 	0.40920 0.61600 0.20550 -0.15000
C 	C 	0.42780 0.53450 0.21340 0.44900
C 	C 	0.39600 0.68470 0.27670 0.05500
H 	H 	0.39610 0.67910 0.33070 0.02800
C 	C 	0.34760 0.31440 0.26220 0.39000
C 	C 	0.29870 0.22490 0.21350 -0.14000
C 	C 	0.20610 0.20460 0.21500 0.03800
H 	H 	0.17410 0.24710 0.24830 0.05100
C 	C 	0.15990 0.12070 0.16700 -0.06600
C 	C 	0.20700 0.06020 0.11840 0.04200
H 	H 	0.17580 0.00390 0.08500 0.03300
C 	C 	0.30030 0.08050 0.11750 -0.14400
C 	C 	0.34730 0.01430 0.06070 0.38000
C 	C 	0.34570 0.16250 0.16570 0.09400
H 	H 	0.40930 0.17620 0.16620 -0.01200
C 	C 	0.06280 0.09570 0.16570 0.14600
C 	C 	0.92950 0.02180 0.13740 0.11800
C 	C 	0.85360 0.95040 0.10110 0.02300
C 	C 	0.76640 0.96560 0.12000 -0.07600
H 	H 	0.75800 0.01940 0.16000 0.07300
C 	C 	0.69260 0.90130 0.07980 0.03600
H 	H 	0.63360 0.91130 0.09290 0.03000
C 	C 	0.70390 0.82270 0.02080 -0.10900
C 	C 	0.62540 0.75790 0.96990 0.35800
C 	C 	0.79360 0.80670 0.00730 0.03400
H 	H 	0.80300 0.75120 0.97180 0.03900
C 	C 	0.86530 0.87050 0.04520 -0.08400
H 	H 	0.92440 0.86030 0.03310 0.06700
C 	C 	0.66400 0.24290 0.18240 0.39800
C 	C 	0.70560 0.28870 0.27050 -0.14400
C 	C 	0.65550 0.33600 0.33480 0.08900
H 	H 	0.59390 0.33610 0.32210 -0.01300
C 	C 	0.69610 0.38200 0.41600 -0.15100
C 	C 	0.64750 0.43930 0.48180 0.38900
C 	C 	0.78500 0.38060 0.43520 0.04700
H 	H 	0.81230 0.41300 0.49100 0.03200
C 	C 	0.83480 0.33400 0.37590 -0.07000
C 	C 	0.79610 0.28730 0.29300 0.03700
H 	H 	0.83070 0.25450 0.25180 0.05000
C 	C 	0.92800 0.33190 0.40020 0.14800
C 	C 	0.05490 0.35890 0.47410 0.12200
C 	C 	0.12470 0.39210 0.54400 0.01800
C 	C 	0.10960 0.44460 0.62460 -0.07900
H 	H 	0.05050 0.45550 0.63600 0.06400
C 	C 	0.17900 0.48140 0.68870 0.02800
H 	H 	0.16700 0.51500 0.74420 0.04300
C 	C 	0.26740 0.46900 0.67110 -0.11200
C 	C 	0.34510 0.51980 0.73370 0.36200
C 	C 	0.28260 0.41450 0.58980 0.04100
H 	H 	0.34160 0.40360 0.57820 0.02700
C 	C 	0.21290 0.37710 0.52720 -0.08500
H 	H 	0.22410 0.34110 0.47230 0.08100
C 	C 	0.54740 0.67300 0.51200 0.46600
H 	H 	0.55330 0.73300 0.52150 -0.10900
Gd	Gd	0.44012 0.87774 0.97128 1.75700
Gd	Gd	0.48501 0.63751 0.85370 1.73100
Gd	Gd	0.54914 0.52922 0.61810 1.76700
O 	O 	0.56450 0.07470 0.14320 -0.45800
O 	O 	0.49480 0.93830 0.11600 -0.43400
O 	O 	0.62650 0.22510 0.97580 -0.44600
O 	O 	0.58080 0.35230 0.02450 -0.46700
O 	O 	0.53350 0.51300 0.84480 -0.46400
O 	O 	0.59710 0.48090 0.72110 -0.45200
O 	O 	0.69240 0.63140 0.68690 -0.36500
O 	O 	0.56990 0.66540 0.74810 -0.53700
O 	O 	0.57910 0.96350 0.96770 -0.51800
O 	O 	0.68670 0.06520 0.95960 -0.37100
O 	O 	0.36590 0.31760 0.07280 -0.39800
O 	O 	0.45020 0.21530 0.03480 -0.50000
O 	O 	0.41510 0.74540 0.83600 -0.53900
O 	O 	0.29640 0.80560 0.87150 -0.36300
O 	O 	0.42250 0.53470 0.53900 -0.52600
O 	O 	0.32460 0.53780 0.44160 -0.38700
O 	O 	0.66710 0.44200 0.19030 -0.39200
O 	O 	0.57430 0.47280 0.29100 -0.49600
O 	O 	0.48690 0.38210 0.56110 -0.44900
O 	O 	0.42610 0.34950 0.42790 -0.43700
N 	N 	0.60090 0.16430 0.57680 -0.22600
H 	H 	0.58350 0.20650 0.56450 0.13100
N 	N 	0.64110 0.04130 0.56110 -0.09100
N 	N 	0.64490 0.09010 0.64860 -0.09500
N 	N 	0.98490 0.98370 0.87880 -0.22400
H 	H 	0.96420 0.02920 0.91130 0.13500
N 	N 	0.99460 0.85370 0.79350 -0.08400
N 	N 	0.08020 0.90110 0.81050 -0.08700
N 	N 	0.02880 0.62280 0.52200 -0.22100
H 	H 	0.05090 0.58840 0.47780 0.13000
N 	N 	0.01540 0.71040 0.64940 -0.08700
N 	N 	0.93490 0.69590 0.60260 -0.08400
C 	C 	0.53330 0.01330 0.16500 0.43700
C 	C 	0.55170 0.02670 0.25770 -0.14600
C 	C 	0.55750 0.96100 0.28770 0.07200
H 	H 	0.54790 0.90260 0.24960 0.02000
C 	C 	0.57710 0.98020 0.37250 -0.10600
H 	H 	0.58100 0.93540 0.39390 0.08000
C 	C 	0.59130 0.06490 0.42640 0.04300
C 	C 	0.58380 0.13030 0.39900 -0.10200
H 	H 	0.59160 0.18810 0.43820 0.06900
C 	C 	0.56460 0.11250 0.31310 0.05900
H 	H 	0.56040 0.15790 0.29250 0.02500
C 	C 	0.61150 0.08660 0.52190 0.11900
C 	C 	0.62200 0.16390 0.65270 0.15700
C 	C 	0.61770 0.23790 0.73150 -0.07700
C 	C 	0.62140 0.23060 0.81060 0.05200
H 	H 	0.63140 0.17820 0.81620 0.04100
C 	C 	0.61010 0.30110 0.88240 -0.15300
C 	C 	0.60570 0.29120 0.96650 0.45600
C 	C 	0.59220 0.37660 0.87450 0.09100
H 	H 	0.58090 0.42280 0.92280 0.03200
C 	C 	0.59080 0.38400 0.79450 -0.15000
C 	C 	0.57220 0.46550 0.78660 0.44900
C 	C 	0.60400 0.31530 0.72330 0.05500
H 	H 	0.60390 0.32090 0.66930 0.02800
C 	C 	0.65240 0.68560 0.73780 0.39000
C 	C 	0.70130 0.77510 0.78650 -0.14000
C 	C 	0.79390 0.79540 0.78500 0.03800
H 	H 	0.82590 0.75290 0.75170 0.05100
C 	C 	0.84010 0.87930 0.83300 -0.06600
C 	C 	0.79300 0.93980 0.88160 0.04200
H 	H 	0.82420 0.99610 0.91500 0.03300
C 	C 	0.69970 0.91950 0.88250 -0.14400
C 	C 	0.65270 0.98570 0.93930 0.38000
C 	C 	0.65430 0.83750 0.83430 0.09400
H 	H 	0.59070 0.82380 0.83380 -0.01200
C 	C 	0.93720 0.90430 0.83430 0.14600
C 	C 	0.07050 0.97820 0.86260 0.11800
C 	C 	0.14640 0.04960 0.89890 0.02300
C 	C 	0.23360 0.03440 0.88000 -0.07600
H 	H 	0.24200 0.98060 0.84000 0.07300
C 	C 	0.30740 0.09870 0.92020 0.03600
H 	H 	0.36640 0.08870 0.90710 0.03000
C 	C 	0.29610 0.17730 0.97920 -0.10900
C 	C 	0.37460 0.24210 0.03010 0.35800
C 	C 	0.20640 0.19330 0.99270 0.03400
H 	H 	0.19700 0.24880 0.02820 0.03900
C 	C 	0.13470 0.12950 0.95480 -0.08400
H 	H 	0.07560 0.13970 0.96690 0.06700
C 	C 	0.33600 0.75710 0.81760 0.39800
C 	C 	0.29440 0.71130 0.72950 -0.14400
C 	C 	0.34450 0.66400 0.66520 0.08900
H 	H 	0.40610 0.66390 0.67790 -0.01300
C 	C 	0.30390 0.61800 0.58400 -0.15100
C 	C 	0.35250 0.56070 0.51820 0.38900
C 	C 	0.21500 0.61940 0.56480 0.04700
H 	H 	0.18770 0.58700 0.50900 0.03200
C 	C 	0.16520 0.66600 0.62410 -0.07000
C 	C 	0.20390 0.71270 0.70700 0.03700
H 	H 	0.16930 0.74550 0.74820 0.05000
C 	C 	0.07200 0.66810 0.59980 0.14800
C 	C 	0.94510 0.64110 0.52590 0.12200
C 	C 	0.87530 0.60790 0.45600 0.01800
C 	C 	0.89040 0.55540 0.37540 -0.07900
H 	H 	0.94950 0.54450 0.36400 0.06400
C 	C 	0.82100 0.51860 0.31130 0.02800
H 	H 	0.83300 0.48500 0.25580 0.04300
C 	C 	0.73260 0.53100 0.32890 -0.11200
C 	C 	0.65490 0.48020 0.26630 0.36200
C 	C 	0.71740 0.58550 0.41020 0.04100
H 	H 	0.65840 0.59640 0.42180 0.02700
C 	C 	0.78710 0.62290 0.47280 -0.08500
H 	H 	0.77590 0.65890 0.52770 0.08100
C 	C 	0.45260 0.32700 0.48800 0.46600
H 	H 	0.44670 0.26700 0.47850 -0.10900
