data_crystal

_cell_length_a 11.53240
_cell_length_b 40.86650
_cell_length_c 17.04730
_cell_angle_alpha 90.00000
_cell_angle_beta  90.00000
_cell_angle_gamma 90.00000

_symmetry_space_group_name_	'P 1'
_symmetry_space_group_name_H-M	'P 1'

loop_
_symmetry_equiv_pos_as_xyz
  x,y,z

loop_
_atom_site_label
_atom_site_type_symbol
_atom_site_fract_x
_atom_site_fract_y
_atom_site_fract_z
_atom_site_charge
Sm	Sm	0.26940 0.48543 0.44233 1.82700
O 	O 	0.70590 0.65260 0.48510 -0.45100
C 	C 	0.43990 0.58870 0.44400 -0.20900
O 	O 	0.53620 0.68540 0.26530 -0.40800
O 	O 	0.78750 0.55220 0.34770 -0.48900
O 	O 	0.59900 0.69600 0.45950 -0.31300
C 	C 	0.20730 0.64980 0.39610 0.13200
C 	C 	0.53470 0.60880 0.45320 0.11000
H 	H 	0.60980 0.59990 0.46120 0.02100
N 	N 	0.11260 0.63150 0.37290 -0.14100
O 	O 	0.67950 0.71690 0.23570 -0.44800
C 	C 	0.51720 0.64320 0.45030 -0.14800
C 	C 	0.72170 0.57170 0.31100 0.38300
C 	C 	0.02890 0.65537 0.36260 0.13800
C 	C 	0.41090 0.65550 0.43060 0.05600
H 	H 	0.40080 0.67850 0.42650 0.02400
O 	O 	0.55630 0.54150 0.45900 -0.55500
C 	C 	0.87630 0.61490 0.33270 0.03900
H 	H 	0.92890 0.59810 0.34780 0.03700
O 	O 	0.36580 0.53460 0.46490 -0.55800
C 	C 	0.33150 0.60100 0.42580 0.08200
H 	H 	0.26790 0.58640 0.42010 -0.00100
C 	C 	0.45730 0.55250 0.45470 0.51500
O 	O 	0.63390 0.56240 0.27650 -0.30500
C 	C 	0.83820 0.67180 0.30730 0.04200
H 	H 	0.86450 0.69380 0.30470 0.00400
C 	C 	0.31460 0.63440 0.41590 -0.08200
N 	N 	0.06810 0.68480 0.37850 -0.16300
N 	N 	0.18090 0.68130 0.40050 -0.10000
C 	C 	0.61150 0.66680 0.46490 0.39500
C 	C 	0.64250 0.69030 0.25870 0.35800
C 	C 	0.72750 0.66400 0.28520 -0.09800
C 	C 	0.76300 0.60660 0.30980 -0.10600
C 	C 	0.68990 0.63070 0.28510 0.04100
H 	H 	0.61390 0.62530 0.26780 0.05800
C 	C 	0.91190 0.64700 0.33360 -0.05700
H 	H 	0.71900 0.66230 0.52760 0.25900
H 	H 	0.03540 0.70150 0.35400 0.09700
Sm	Sm	0.26940 0.98543 0.94233 1.84300
O 	O 	0.70590 0.15260 0.98510 -0.42500
C 	C 	0.43990 0.08870 0.94400 -0.20400
O 	O 	0.53620 0.18540 0.76530 -0.40700
O 	O 	0.78750 0.05220 0.84770 -0.48700
O 	O 	0.59900 0.19600 0.95950 -0.30400
C 	C 	0.20730 0.14980 0.89610 0.13500
C 	C 	0.53470 0.10880 0.95320 0.10900
H 	H 	0.60980 0.09990 0.96120 0.02500
N 	N 	0.11260 0.13150 0.87290 -0.13900
O 	O 	0.67950 0.21690 0.73570 -0.44600
C 	C 	0.51720 0.14320 0.95030 -0.14100
C 	C 	0.72170 0.07170 0.81100 0.38400
C 	C 	0.02890 0.15537 0.86260 0.14100
C 	C 	0.41090 0.15550 0.93060 0.05400
H 	H 	0.40080 0.17850 0.92650 0.02600
O 	O 	0.55630 0.04150 0.95900 -0.55400
C 	C 	0.87630 0.11490 0.83270 0.03900
H 	H 	0.92890 0.09810 0.84780 0.03900
O 	O 	0.36580 0.03460 0.96490 -0.55600
C 	C 	0.33150 0.10100 0.92580 0.08100
H 	H 	0.26790 0.08640 0.92010 0.00100
C 	C 	0.45730 0.05250 0.95470 0.51700
O 	O 	0.63390 0.06240 0.77650 -0.30600
C 	C 	0.83820 0.17180 0.80730 0.04200
H 	H 	0.86450 0.19380 0.80470 0.00500
C 	C 	0.31460 0.13440 0.91590 -0.07800
N 	N 	0.06810 0.18480 0.87850 -0.16200
N 	N 	0.18090 0.18130 0.90050 -0.09800
C 	C 	0.61150 0.16680 0.96490 0.38900
C 	C 	0.64250 0.19030 0.75870 0.35800
C 	C 	0.72750 0.16400 0.78520 -0.09700
C 	C 	0.76300 0.10660 0.80980 -0.10500
C 	C 	0.68990 0.13070 0.78510 0.04100
H 	H 	0.61390 0.12530 0.76780 0.05800
C 	C 	0.91190 0.14700 0.83360 -0.05600
H 	H 	0.71900 0.16230 0.02760 0.24000
H 	H 	0.03540 0.20150 0.85400 0.09800
Sm	Sm	0.76940 0.48543 0.94233 1.84300
O 	O 	0.20590 0.65260 0.98510 -0.42500
C 	C 	0.93990 0.58870 0.94400 -0.20400
O 	O 	0.03620 0.68540 0.76530 -0.40700
O 	O 	0.28750 0.55220 0.84770 -0.48700
O 	O 	0.09900 0.69600 0.95950 -0.30400
C 	C 	0.70730 0.64980 0.89610 0.13500
C 	C 	0.03470 0.60880 0.95320 0.10900
H 	H 	0.10980 0.59990 0.96120 0.02500
N 	N 	0.61260 0.63150 0.87290 -0.13900
O 	O 	0.17950 0.71690 0.73570 -0.44600
C 	C 	0.01720 0.64320 0.95030 -0.14000
C 	C 	0.22170 0.57170 0.81100 0.38400
C 	C 	0.52890 0.65537 0.86260 0.14100
C 	C 	0.91090 0.65550 0.93060 0.05400
H 	H 	0.90080 0.67850 0.92650 0.02600
O 	O 	0.05630 0.54150 0.95900 -0.55300
C 	C 	0.37630 0.61490 0.83270 0.03900
H 	H 	0.42890 0.59810 0.84780 0.03900
O 	O 	0.86580 0.53460 0.96490 -0.55600
C 	C 	0.83150 0.60100 0.92580 0.08100
H 	H 	0.76790 0.58640 0.92010 0.00100
C 	C 	0.95730 0.55250 0.95470 0.51700
O 	O 	0.13390 0.56240 0.77650 -0.30600
C 	C 	0.33820 0.67180 0.80730 0.04200
H 	H 	0.36450 0.69380 0.80470 0.00500
C 	C 	0.81460 0.63440 0.91590 -0.07800
N 	N 	0.56810 0.68480 0.87850 -0.16200
N 	N 	0.68090 0.68130 0.90050 -0.09800
C 	C 	0.11150 0.66680 0.96490 0.38900
C 	C 	0.14250 0.69030 0.75870 0.35800
C 	C 	0.22750 0.66400 0.78520 -0.09700
C 	C 	0.26300 0.60660 0.80980 -0.10500
C 	C 	0.18990 0.63070 0.78510 0.04100
H 	H 	0.11390 0.62530 0.76780 0.05800
C 	C 	0.41190 0.64700 0.83360 -0.05600
H 	H 	0.21900 0.66230 0.02760 0.24000
H 	H 	0.53540 0.70150 0.85400 0.09800
Sm	Sm	0.76940 0.98543 0.44233 1.82900
O 	O 	0.20590 0.15260 0.48510 -0.45000
C 	C 	0.93990 0.08870 0.44400 -0.20800
O 	O 	0.03620 0.18540 0.26530 -0.40600
O 	O 	0.28750 0.05220 0.34770 -0.48800
O 	O 	0.09900 0.19600 0.45950 -0.31200
C 	C 	0.70730 0.14980 0.39610 0.13300
C 	C 	0.03470 0.10880 0.45320 0.11100
H 	H 	0.10980 0.09990 0.46120 0.02200
N 	N 	0.61260 0.13150 0.37290 -0.14000
O 	O 	0.17950 0.21690 0.23570 -0.44700
C 	C 	0.01720 0.14320 0.45030 -0.14700
C 	C 	0.22170 0.07170 0.31100 0.38400
C 	C 	0.52890 0.15537 0.36260 0.13800
C 	C 	0.91090 0.15550 0.43060 0.05600
H 	H 	0.90080 0.17850 0.42650 0.02400
O 	O 	0.05630 0.04150 0.45900 -0.55500
C 	C 	0.37630 0.11490 0.33270 0.03900
H 	H 	0.42890 0.09810 0.34780 0.03700
O 	O 	0.86580 0.03460 0.46490 -0.55800
C 	C 	0.83150 0.10100 0.42580 0.08200
H 	H 	0.76790 0.08640 0.42010 -0.00100
C 	C 	0.95730 0.05250 0.45470 0.51500
O 	O 	0.13390 0.06240 0.27650 -0.30500
C 	C 	0.33820 0.17180 0.30730 0.04200
H 	H 	0.36450 0.19380 0.30470 0.00400
C 	C 	0.81460 0.13440 0.41590 -0.08200
N 	N 	0.56810 0.18480 0.37850 -0.16300
N 	N 	0.68090 0.18130 0.40050 -0.10000
C 	C 	0.11150 0.16680 0.46490 0.39500
C 	C 	0.14250 0.19030 0.25870 0.35800
C 	C 	0.22750 0.16400 0.28520 -0.09700
C 	C 	0.26300 0.10660 0.30980 -0.10600
C 	C 	0.18990 0.13070 0.28510 0.04100
H 	H 	0.11390 0.12530 0.26780 0.05800
C 	C 	0.41190 0.14700 0.33360 -0.05700
H 	H 	0.21900 0.16230 0.52760 0.25900
H 	H 	0.53540 0.20150 0.35400 0.09700
Sm	Sm	0.73060 0.51457 0.44233 1.82800
O 	O 	0.29410 0.34740 0.48510 -0.45000
C 	C 	0.56010 0.41130 0.44400 -0.20800
O 	O 	0.46380 0.31460 0.26530 -0.40700
O 	O 	0.21250 0.44780 0.34770 -0.48800
O 	O 	0.40100 0.30400 0.45950 -0.31200
C 	C 	0.79270 0.35020 0.39610 0.13300
C 	C 	0.46530 0.39120 0.45320 0.11100
H 	H 	0.39020 0.40010 0.46120 0.02200
N 	N 	0.88740 0.36850 0.37290 -0.14000
O 	O 	0.32050 0.28310 0.23570 -0.44700
C 	C 	0.48280 0.35680 0.45030 -0.14700
C 	C 	0.27830 0.42830 0.31100 0.38400
C 	C 	0.97110 0.34463 0.36260 0.13900
C 	C 	0.58910 0.34450 0.43060 0.05600
H 	H 	0.59920 0.32150 0.42650 0.02400
O 	O 	0.44370 0.45850 0.45900 -0.55500
C 	C 	0.12370 0.38510 0.33270 0.03900
H 	H 	0.07110 0.40190 0.34780 0.03700
O 	O 	0.63420 0.46540 0.46490 -0.55800
C 	C 	0.66850 0.39900 0.42580 0.08200
H 	H 	0.73210 0.41360 0.42010 -0.00100
C 	C 	0.54270 0.44750 0.45470 0.51500
O 	O 	0.36610 0.43760 0.27650 -0.30500
C 	C 	0.16180 0.32820 0.30730 0.04200
H 	H 	0.13550 0.30620 0.30470 0.00400
C 	C 	0.68540 0.36560 0.41590 -0.08200
N 	N 	0.93190 0.31520 0.37850 -0.16300
N 	N 	0.81910 0.31870 0.40050 -0.10000
C 	C 	0.38850 0.33320 0.46490 0.39500
C 	C 	0.35750 0.30970 0.25870 0.35800
C 	C 	0.27250 0.33600 0.28520 -0.09800
C 	C 	0.23700 0.39340 0.30980 -0.10600
C 	C 	0.31010 0.36930 0.28510 0.04100
H 	H 	0.38610 0.37470 0.26780 0.05800
C 	C 	0.08810 0.35300 0.33360 -0.05700
H 	H 	0.28100 0.33770 0.52760 0.25900
H 	H 	0.96460 0.29850 0.35400 0.09700
Sm	Sm	0.73060 0.01457 0.94233 1.84300
O 	O 	0.29410 0.84740 0.98510 -0.42500
C 	C 	0.56010 0.91130 0.94400 -0.20400
O 	O 	0.46380 0.81460 0.76530 -0.40700
O 	O 	0.21250 0.94780 0.84770 -0.48700
O 	O 	0.40100 0.80400 0.95950 -0.30400
C 	C 	0.79270 0.85020 0.89610 0.13500
C 	C 	0.46530 0.89120 0.95320 0.10900
H 	H 	0.39020 0.90010 0.96120 0.02500
N 	N 	0.88740 0.86850 0.87290 -0.13900
O 	O 	0.32050 0.78310 0.73570 -0.44600
C 	C 	0.48280 0.85680 0.95030 -0.14100
C 	C 	0.27830 0.92830 0.81100 0.38400
C 	C 	0.97110 0.84463 0.86260 0.14100
C 	C 	0.58910 0.84450 0.93060 0.05400
H 	H 	0.59920 0.82150 0.92650 0.02600
O 	O 	0.44370 0.95850 0.95900 -0.55400
C 	C 	0.12370 0.88510 0.83270 0.03900
H 	H 	0.07110 0.90190 0.84780 0.03900
O 	O 	0.63420 0.96540 0.96490 -0.55600
C 	C 	0.66850 0.89900 0.92580 0.08100
H 	H 	0.73210 0.91360 0.92010 0.00100
C 	C 	0.54270 0.94750 0.95470 0.51700
O 	O 	0.36610 0.93760 0.77650 -0.30600
C 	C 	0.16180 0.82820 0.80730 0.04200
H 	H 	0.13550 0.80620 0.80470 0.00500
C 	C 	0.68540 0.86560 0.91590 -0.07800
N 	N 	0.93190 0.81520 0.87850 -0.16200
N 	N 	0.81910 0.81870 0.90050 -0.09800
C 	C 	0.38850 0.83320 0.96490 0.38900
C 	C 	0.35750 0.80970 0.75870 0.35800
C 	C 	0.27250 0.83600 0.78520 -0.09700
C 	C 	0.23700 0.89340 0.80980 -0.10500
C 	C 	0.31010 0.86930 0.78510 0.04100
H 	H 	0.38610 0.87470 0.76780 0.05800
C 	C 	0.08810 0.85300 0.83360 -0.05600
H 	H 	0.28100 0.83770 0.02760 0.24000
H 	H 	0.96460 0.79850 0.85400 0.09800
Sm	Sm	0.23060 0.51457 0.94233 1.84300
O 	O 	0.79410 0.34740 0.98510 -0.42500
C 	C 	0.06010 0.41130 0.94400 -0.20400
O 	O 	0.96380 0.31460 0.76530 -0.40700
O 	O 	0.71250 0.44780 0.84770 -0.48700
O 	O 	0.90100 0.30400 0.95950 -0.30400
C 	C 	0.29270 0.35020 0.89610 0.13500
C 	C 	0.96530 0.39120 0.95320 0.10900
H 	H 	0.89020 0.40010 0.96120 0.02500
N 	N 	0.38740 0.36850 0.87290 -0.13900
O 	O 	0.82050 0.28310 0.73570 -0.44600
C 	C 	0.98280 0.35680 0.95030 -0.14000
C 	C 	0.77830 0.42830 0.81100 0.38400
C 	C 	0.47110 0.34463 0.86260 0.14100
C 	C 	0.08910 0.34450 0.93060 0.05400
H 	H 	0.09920 0.32150 0.92650 0.02600
O 	O 	0.94370 0.45850 0.95900 -0.55300
C 	C 	0.62370 0.38510 0.83270 0.03900
H 	H 	0.57110 0.40190 0.84780 0.03900
O 	O 	0.13420 0.46540 0.96490 -0.55600
C 	C 	0.16850 0.39900 0.92580 0.08100
H 	H 	0.23210 0.41360 0.92010 0.00100
C 	C 	0.04270 0.44750 0.95470 0.51700
O 	O 	0.86610 0.43760 0.77650 -0.30600
C 	C 	0.66180 0.32820 0.80730 0.04200
H 	H 	0.63550 0.30620 0.80470 0.00500
C 	C 	0.18540 0.36560 0.91590 -0.07800
N 	N 	0.43190 0.31520 0.87850 -0.16200
N 	N 	0.31910 0.31870 0.90050 -0.09800
C 	C 	0.88850 0.33320 0.96490 0.38900
C 	C 	0.85750 0.30970 0.75870 0.35800
C 	C 	0.77250 0.33600 0.78520 -0.09700
C 	C 	0.73700 0.39340 0.80980 -0.10500
C 	C 	0.81010 0.36930 0.78510 0.04100
H 	H 	0.88610 0.37470 0.76780 0.05800
C 	C 	0.58810 0.35300 0.83360 -0.05600
H 	H 	0.78100 0.33770 0.02760 0.24000
H 	H 	0.46460 0.29850 0.85400 0.09800
Sm	Sm	0.23060 0.01457 0.44233 1.82900
O 	O 	0.79410 0.84740 0.48510 -0.45000
C 	C 	0.06010 0.91130 0.44400 -0.20800
O 	O 	0.96380 0.81460 0.26530 -0.40600
O 	O 	0.71250 0.94780 0.34770 -0.48800
O 	O 	0.90100 0.80400 0.45950 -0.31200
C 	C 	0.29270 0.85020 0.39610 0.13300
C 	C 	0.96530 0.89120 0.45320 0.11100
H 	H 	0.89020 0.90010 0.46120 0.02200
N 	N 	0.38740 0.86850 0.37290 -0.14000
O 	O 	0.82050 0.78310 0.23570 -0.44700
C 	C 	0.98280 0.85680 0.45030 -0.14700
C 	C 	0.77830 0.92830 0.31100 0.38400
C 	C 	0.47110 0.84463 0.36260 0.13800
C 	C 	0.08910 0.84450 0.43060 0.05600
H 	H 	0.09920 0.82150 0.42650 0.02400
O 	O 	0.94370 0.95850 0.45900 -0.55500
C 	C 	0.62370 0.88510 0.33270 0.03900
H 	H 	0.57110 0.90190 0.34780 0.03700
O 	O 	0.13420 0.96540 0.46490 -0.55800
C 	C 	0.16850 0.89900 0.42580 0.08200
H 	H 	0.23210 0.91360 0.42010 -0.00100
C 	C 	0.04270 0.94750 0.45470 0.51500
O 	O 	0.86610 0.93760 0.27650 -0.30500
C 	C 	0.66180 0.82820 0.30730 0.04200
H 	H 	0.63550 0.80620 0.30470 0.00400
C 	C 	0.18540 0.86560 0.41590 -0.08200
N 	N 	0.43190 0.81520 0.37850 -0.16300
N 	N 	0.31910 0.81870 0.40050 -0.10000
C 	C 	0.88850 0.83320 0.46490 0.39500
C 	C 	0.85750 0.80970 0.25870 0.35800
C 	C 	0.77250 0.83600 0.28520 -0.09700
C 	C 	0.73700 0.89340 0.30980 -0.10600
C 	C 	0.81010 0.86930 0.28510 0.04100
H 	H 	0.88610 0.87470 0.26780 0.05800
C 	C 	0.58810 0.85300 0.33360 -0.05700
H 	H 	0.78100 0.83770 0.52760 0.25900
H 	H 	0.46460 0.79850 0.35400 0.09700
Sm	Sm	0.51940 0.76457 0.69233 1.83000
O 	O 	0.95590 0.59740 0.73510 -0.45000
C 	C 	0.68990 0.66130 0.69400 -0.20800
O 	O 	0.78620 0.56460 0.51530 -0.40700
O 	O 	0.03750 0.69780 0.59770 -0.48700
O 	O 	0.84900 0.55400 0.70950 -0.31200
C 	C 	0.45730 0.60020 0.64610 0.13300
C 	C 	0.78470 0.64120 0.70320 0.11100
H 	H 	0.85980 0.65010 0.71120 0.02200
N 	N 	0.36260 0.61850 0.62290 -0.14000
O 	O 	0.92950 0.53310 0.48570 -0.44600
C 	C 	0.76720 0.60680 0.70030 -0.14700
C 	C 	0.97170 0.67830 0.56100 0.38300
C 	C 	0.27890 0.59463 0.61260 0.13800
C 	C 	0.66090 0.59450 0.68060 0.05600
H 	H 	0.65080 0.57150 0.67650 0.02300
O 	O 	0.80630 0.70850 0.70900 -0.55500
C 	C 	0.12630 0.63510 0.58270 0.03800
H 	H 	0.17890 0.65190 0.59780 0.03700
O 	O 	0.61580 0.71540 0.71490 -0.55800
C 	C 	0.58150 0.64900 0.67580 0.08200
H 	H 	0.51790 0.66360 0.67010 -0.00100
C 	C 	0.70730 0.69750 0.70470 0.51600
O 	O 	0.88390 0.68760 0.52650 -0.30500
C 	C 	0.08820 0.57820 0.55730 0.04200
H 	H 	0.11450 0.55620 0.55470 0.00400
C 	C 	0.56460 0.61560 0.66590 -0.08200
N 	N 	0.31810 0.56520 0.62850 -0.16300
N 	N 	0.43090 0.56870 0.65050 -0.10000
C 	C 	0.86150 0.58320 0.71490 0.39500
C 	C 	0.89250 0.55970 0.50870 0.35800
C 	C 	0.97750 0.58600 0.53520 -0.09700
C 	C 	0.01300 0.64340 0.55980 -0.10500
C 	C 	0.93990 0.61930 0.53510 0.04100
H 	H 	0.86390 0.62470 0.51780 0.05800
C 	C 	0.16190 0.60300 0.58360 -0.05700
H 	H 	0.96900 0.58770 0.77760 0.25800
H 	H 	0.28540 0.54850 0.60400 0.09700
Sm	Sm	0.51940 0.26457 0.19233 1.82400
O 	O 	0.95590 0.09740 0.23510 -0.45000
C 	C 	0.68990 0.16130 0.19400 -0.20800
O 	O 	0.78620 0.06460 0.01530 -0.41200
O 	O 	0.03750 0.19780 0.09770 -0.48900
O 	O 	0.84900 0.05400 0.20950 -0.31300
C 	C 	0.45730 0.10020 0.14610 0.13100
C 	C 	0.78470 0.14120 0.20320 0.11100
H 	H 	0.85980 0.15010 0.21120 0.02200
N 	N 	0.36260 0.11850 0.12290 -0.14200
O 	O 	0.92950 0.03310 0.98570 -0.43100
C 	C 	0.76720 0.10680 0.20030 -0.14800
C 	C 	0.97170 0.17830 0.06100 0.38300
C 	C 	0.27890 0.09463 0.11260 0.13500
C 	C 	0.66090 0.09450 0.18060 0.05600
H 	H 	0.65080 0.07150 0.17650 0.02200
O 	O 	0.80630 0.20850 0.20900 -0.55400
C 	C 	0.12630 0.13510 0.08270 0.03700
H 	H 	0.17890 0.15190 0.09780 0.03500
O 	O 	0.61580 0.21540 0.21490 -0.55800
C 	C 	0.58150 0.14900 0.17580 0.08100
H 	H 	0.51790 0.16360 0.17010 -0.00200
C 	C 	0.70730 0.19750 0.20470 0.51500
O 	O 	0.88390 0.18760 0.02650 -0.31100
C 	C 	0.08820 0.07820 0.05730 0.03800
H 	H 	0.11450 0.05620 0.05470 0.00100
C 	C 	0.56460 0.11560 0.16590 -0.08400
N 	N 	0.31810 0.06520 0.12850 -0.16300
N 	N 	0.43090 0.06870 0.15050 -0.10200
C 	C 	0.86150 0.08320 0.21490 0.39500
C 	C 	0.89250 0.05970 0.00870 0.33800
C 	C 	0.97750 0.08600 0.03520 -0.09600
C 	C 	0.01300 0.14340 0.05980 -0.10800
C 	C 	0.93990 0.11930 0.03510 0.03800
H 	H 	0.86390 0.12470 0.01780 0.05400
C 	C 	0.16190 0.10300 0.08360 -0.05900
H 	H 	0.96900 0.08770 0.27760 0.25900
H 	H 	0.28540 0.04850 0.10400 0.09300
Sm	Sm	0.01940 0.76457 0.19233 1.82400
O 	O 	0.45590 0.59740 0.23510 -0.45000
C 	C 	0.18990 0.66130 0.19400 -0.20800
O 	O 	0.28620 0.56460 0.01530 -0.41200
O 	O 	0.53750 0.69780 0.09770 -0.49000
O 	O 	0.34900 0.55400 0.20950 -0.31400
C 	C 	0.95730 0.60020 0.14610 0.13100
C 	C 	0.28470 0.64120 0.20320 0.11100
H 	H 	0.35980 0.65010 0.21120 0.02200
N 	N 	0.86260 0.61850 0.12290 -0.14200
O 	O 	0.42950 0.53310 0.98570 -0.43100
C 	C 	0.26720 0.60680 0.20030 -0.14700
C 	C 	0.47170 0.67830 0.06100 0.38400
C 	C 	0.77890 0.59463 0.11260 0.13500
C 	C 	0.16090 0.59450 0.18060 0.05600
H 	H 	0.15080 0.57150 0.17650 0.02200
O 	O 	0.30630 0.70850 0.20900 -0.55400
C 	C 	0.62630 0.63510 0.08270 0.03700
H 	H 	0.67890 0.65190 0.09780 0.03500
O 	O 	0.11580 0.71540 0.21490 -0.55800
C 	C 	0.08150 0.64900 0.17580 0.08100
H 	H 	0.01790 0.66360 0.17010 -0.00200
C 	C 	0.20730 0.69750 0.20470 0.51500
O 	O 	0.38390 0.68760 0.02650 -0.31100
C 	C 	0.58820 0.57820 0.05730 0.03800
H 	H 	0.61450 0.55620 0.05470 0.00100
C 	C 	0.06460 0.61560 0.16590 -0.08300
N 	N 	0.81810 0.56520 0.12850 -0.16300
N 	N 	0.93090 0.56870 0.15050 -0.10200
C 	C 	0.36150 0.58320 0.21490 0.39500
C 	C 	0.39250 0.55970 0.00870 0.33800
C 	C 	0.47750 0.58600 0.03520 -0.09600
C 	C 	0.51300 0.64340 0.05980 -0.10900
C 	C 	0.43990 0.61930 0.03510 0.03900
H 	H 	0.36390 0.62470 0.01780 0.05400
C 	C 	0.66190 0.60300 0.08360 -0.05900
H 	H 	0.46900 0.58770 0.27760 0.25900
H 	H 	0.78540 0.54850 0.10400 0.09300
Sm	Sm	0.01940 0.26457 0.69233 1.83000
O 	O 	0.45590 0.09740 0.73510 -0.45000
C 	C 	0.18990 0.16130 0.69400 -0.20800
O 	O 	0.28620 0.06460 0.51530 -0.40700
O 	O 	0.53750 0.19780 0.59770 -0.48700
O 	O 	0.34900 0.05400 0.70950 -0.31200
C 	C 	0.95730 0.10020 0.64610 0.13300
C 	C 	0.28470 0.14120 0.70320 0.11100
H 	H 	0.35980 0.15010 0.71120 0.02200
N 	N 	0.86260 0.11850 0.62290 -0.14000
O 	O 	0.42950 0.03310 0.48570 -0.44600
C 	C 	0.26720 0.10680 0.70030 -0.14700
C 	C 	0.47170 0.17830 0.56100 0.38400
C 	C 	0.77890 0.09463 0.61260 0.13800
C 	C 	0.16090 0.09450 0.68060 0.05600
H 	H 	0.15080 0.07150 0.67650 0.02400
O 	O 	0.30630 0.20850 0.70900 -0.55500
C 	C 	0.62630 0.13510 0.58270 0.03900
H 	H 	0.67890 0.15190 0.59780 0.03700
O 	O 	0.11580 0.21540 0.71490 -0.55800
C 	C 	0.08150 0.14900 0.67580 0.08200
H 	H 	0.01790 0.16360 0.67010 -0.00100
C 	C 	0.20730 0.19750 0.70470 0.51600
O 	O 	0.38390 0.18760 0.52650 -0.30500
C 	C 	0.58820 0.07820 0.55730 0.04200
H 	H 	0.61450 0.05620 0.55470 0.00400
C 	C 	0.06460 0.11560 0.66590 -0.08200
N 	N 	0.81810 0.06520 0.62850 -0.16300
N 	N 	0.93090 0.06870 0.65050 -0.10000
C 	C 	0.36150 0.08320 0.71490 0.39500
C 	C 	0.39250 0.05970 0.50870 0.35800
C 	C 	0.47750 0.08600 0.53520 -0.09700
C 	C 	0.51300 0.14340 0.55980 -0.10600
C 	C 	0.43990 0.11930 0.53510 0.04100
H 	H 	0.36390 0.12470 0.51780 0.05800
C 	C 	0.66190 0.10300 0.58360 -0.05700
H 	H 	0.46900 0.08770 0.77760 0.25800
H 	H 	0.78540 0.04850 0.60400 0.09700
Sm	Sm	0.98060 0.73543 0.69233 1.83000
O 	O 	0.54410 0.90260 0.73510 -0.45000
C 	C 	0.81010 0.83870 0.69400 -0.20800
O 	O 	0.71380 0.93540 0.51530 -0.40700
O 	O 	0.46250 0.80220 0.59770 -0.48700
O 	O 	0.65100 0.94600 0.70950 -0.31200
C 	C 	0.04270 0.89980 0.64610 0.13300
C 	C 	0.71530 0.85880 0.70320 0.11100
H 	H 	0.64020 0.84990 0.71120 0.02200
N 	N 	0.13740 0.88150 0.62290 -0.14000
O 	O 	0.57050 0.96690 0.48570 -0.44600
C 	C 	0.73280 0.89320 0.70030 -0.14700
C 	C 	0.52830 0.82170 0.56100 0.38400
C 	C 	0.22110 0.90537 0.61260 0.13800
C 	C 	0.83910 0.90550 0.68060 0.05600
H 	H 	0.84920 0.92850 0.67650 0.02400
O 	O 	0.69370 0.79150 0.70900 -0.55500
C 	C 	0.37370 0.86490 0.58270 0.03900
H 	H 	0.32110 0.84810 0.59780 0.03700
O 	O 	0.88420 0.78460 0.71490 -0.55800
C 	C 	0.91850 0.85100 0.67580 0.08200
H 	H 	0.98210 0.83640 0.67010 -0.00100
C 	C 	0.79270 0.80250 0.70470 0.51600
O 	O 	0.61610 0.81240 0.52650 -0.30500
C 	C 	0.41180 0.92180 0.55730 0.04200
H 	H 	0.38550 0.94380 0.55470 0.00400
C 	C 	0.93540 0.88440 0.66590 -0.08200
N 	N 	0.18190 0.93480 0.62850 -0.16300
N 	N 	0.06910 0.93130 0.65050 -0.10000
C 	C 	0.63850 0.91680 0.71490 0.39500
C 	C 	0.60750 0.94030 0.50870 0.35800
C 	C 	0.52250 0.91400 0.53520 -0.09700
C 	C 	0.48700 0.85660 0.55980 -0.10600
C 	C 	0.56010 0.88070 0.53510 0.04100
H 	H 	0.63610 0.87530 0.51780 0.05800
C 	C 	0.33810 0.89700 0.58360 -0.05700
H 	H 	0.53100 0.91230 0.77760 0.25800
H 	H 	0.21460 0.95150 0.60400 0.09700
Sm	Sm	0.98060 0.23543 0.19233 1.82400
O 	O 	0.54410 0.40260 0.23510 -0.45000
C 	C 	0.81010 0.33870 0.19400 -0.20800
O 	O 	0.71380 0.43540 0.01530 -0.41200
O 	O 	0.46250 0.30220 0.09770 -0.49000
O 	O 	0.65100 0.44600 0.20950 -0.31400
C 	C 	0.04270 0.39980 0.14610 0.13100
C 	C 	0.71530 0.35880 0.20320 0.11100
H 	H 	0.64020 0.34990 0.21120 0.02200
N 	N 	0.13740 0.38150 0.12290 -0.14200
O 	O 	0.57050 0.46690 0.98570 -0.43100
C 	C 	0.73280 0.39320 0.20030 -0.14700
C 	C 	0.52830 0.32170 0.06100 0.38400
C 	C 	0.22110 0.40537 0.11260 0.13500
C 	C 	0.83910 0.40550 0.18060 0.05600
H 	H 	0.84920 0.42850 0.17650 0.02200
O 	O 	0.69370 0.29150 0.20900 -0.55400
C 	C 	0.37370 0.36490 0.08270 0.03700
H 	H 	0.32110 0.34810 0.09780 0.03500
O 	O 	0.88420 0.28460 0.21490 -0.55800
C 	C 	0.91850 0.35100 0.17580 0.08100
H 	H 	0.98210 0.33640 0.17010 -0.00200
C 	C 	0.79270 0.30250 0.20470 0.51500
O 	O 	0.61610 0.31240 0.02650 -0.31100
C 	C 	0.41180 0.42180 0.05730 0.03800
H 	H 	0.38550 0.44380 0.05470 0.00100
C 	C 	0.93540 0.38440 0.16590 -0.08300
N 	N 	0.18190 0.43480 0.12850 -0.16300
N 	N 	0.06910 0.43130 0.15050 -0.10200
C 	C 	0.63850 0.41680 0.21490 0.39500
C 	C 	0.60750 0.44030 0.00870 0.33800
C 	C 	0.52250 0.41400 0.03520 -0.09600
C 	C 	0.48700 0.35660 0.05980 -0.10900
C 	C 	0.56010 0.38070 0.03510 0.03900
H 	H 	0.63610 0.37530 0.01780 0.05400
C 	C 	0.33810 0.39700 0.08360 -0.05900
H 	H 	0.53100 0.41230 0.27760 0.25900
H 	H 	0.21460 0.45150 0.10400 0.09300
Sm	Sm	0.48060 0.73543 0.19233 1.82400
O 	O 	0.04410 0.90260 0.23510 -0.45000
C 	C 	0.31010 0.83870 0.19400 -0.20800
O 	O 	0.21380 0.93540 0.01530 -0.41200
O 	O 	0.96250 0.80220 0.09770 -0.48900
O 	O 	0.15100 0.94600 0.20950 -0.31300
C 	C 	0.54270 0.89980 0.14610 0.13100
C 	C 	0.21530 0.85880 0.20320 0.11100
H 	H 	0.14020 0.84990 0.21120 0.02200
N 	N 	0.63740 0.88150 0.12290 -0.14200
O 	O 	0.07050 0.96690 0.98570 -0.43100
C 	C 	0.23280 0.89320 0.20030 -0.14800
C 	C 	0.02830 0.82170 0.06100 0.38300
C 	C 	0.72110 0.90537 0.11260 0.13500
C 	C 	0.33910 0.90550 0.18060 0.05600
H 	H 	0.34920 0.92850 0.17650 0.02200
O 	O 	0.19370 0.79150 0.20900 -0.55400
C 	C 	0.87370 0.86490 0.08270 0.03700
H 	H 	0.82110 0.84810 0.09780 0.03500
O 	O 	0.38420 0.78460 0.21490 -0.55800
C 	C 	0.41850 0.85100 0.17580 0.08100
H 	H 	0.48210 0.83640 0.17010 -0.00200
C 	C 	0.29270 0.80250 0.20470 0.51500
O 	O 	0.11610 0.81240 0.02650 -0.31100
C 	C 	0.91180 0.92180 0.05730 0.03800
H 	H 	0.88550 0.94380 0.05470 0.00100
C 	C 	0.43540 0.88440 0.16590 -0.08400
N 	N 	0.68190 0.93480 0.12850 -0.16300
N 	N 	0.56910 0.93130 0.15050 -0.10200
C 	C 	0.13850 0.91680 0.21490 0.39500
C 	C 	0.10750 0.94030 0.00870 0.33800
C 	C 	0.02250 0.91400 0.03520 -0.09600
C 	C 	0.98700 0.85660 0.05980 -0.10800
C 	C 	0.06010 0.88070 0.03510 0.03800
H 	H 	0.13610 0.87530 0.01780 0.05400
C 	C 	0.83810 0.89700 0.08360 -0.05900
H 	H 	0.03100 0.91230 0.27760 0.25900
H 	H 	0.71460 0.95150 0.10400 0.09300
Sm	Sm	0.48060 0.23543 0.69233 1.83000
O 	O 	0.04410 0.40260 0.73510 -0.45000
C 	C 	0.31010 0.33870 0.69400 -0.20800
O 	O 	0.21380 0.43540 0.51530 -0.40700
O 	O 	0.96250 0.30220 0.59770 -0.48700
O 	O 	0.15100 0.44600 0.70950 -0.31200
C 	C 	0.54270 0.39980 0.64610 0.13300
C 	C 	0.21530 0.35880 0.70320 0.11100
H 	H 	0.14020 0.34990 0.71120 0.02200
N 	N 	0.63740 0.38150 0.62290 -0.14000
O 	O 	0.07050 0.46690 0.48570 -0.44600
C 	C 	0.23280 0.39320 0.70030 -0.14700
C 	C 	0.02830 0.32170 0.56100 0.38300
C 	C 	0.72110 0.40537 0.61260 0.13800
C 	C 	0.33910 0.40550 0.68060 0.05600
H 	H 	0.34920 0.42850 0.67650 0.02300
O 	O 	0.19370 0.29150 0.70900 -0.55500
C 	C 	0.87370 0.36490 0.58270 0.03800
H 	H 	0.82110 0.34810 0.59780 0.03700
O 	O 	0.38420 0.28460 0.71490 -0.55800
C 	C 	0.41850 0.35100 0.67580 0.08200
H 	H 	0.48210 0.33640 0.67010 -0.00100
C 	C 	0.29270 0.30250 0.70470 0.51600
O 	O 	0.11610 0.31240 0.52650 -0.30500
C 	C 	0.91180 0.42180 0.55730 0.04200
H 	H 	0.88550 0.44380 0.55470 0.00400
C 	C 	0.43540 0.38440 0.66590 -0.08200
N 	N 	0.68190 0.43480 0.62850 -0.16300
N 	N 	0.56910 0.43130 0.65050 -0.10000
C 	C 	0.13850 0.41680 0.71490 0.39500
C 	C 	0.10750 0.44030 0.50870 0.35800
C 	C 	0.02250 0.41400 0.53520 -0.09700
C 	C 	0.98700 0.35660 0.55980 -0.10500
C 	C 	0.06010 0.38070 0.53510 0.04100
H 	H 	0.13610 0.37530 0.51780 0.05800
C 	C 	0.83810 0.39700 0.58360 -0.05700
H 	H 	0.03100 0.41230 0.77760 0.25800
H 	H 	0.71460 0.45150 0.60400 0.09700
