data_crystal

_cell_length_a 11.50020
_cell_length_b 40.70680
_cell_length_c 17.02380
_cell_angle_alpha 90.00000
_cell_angle_beta  90.00000
_cell_angle_gamma 90.00000

_symmetry_space_group_name_	'P 1'
_symmetry_space_group_name_H-M	'P 1'

loop_
_symmetry_equiv_pos_as_xyz
  x,y,z

loop_
_atom_site_label
_atom_site_type_symbol
_atom_site_fract_x
_atom_site_fract_y
_atom_site_fract_z
_atom_site_charge
Tb	Tb	0.01962 0.26458 0.43354 1.66000
O 	O 	0.19300 0.29077 0.44600 -0.52900
O 	O 	0.04050 0.40285 0.47360 -0.48900
H 	H 	0.99490 0.41690 0.49250 0.30500
C 	C 	0.31020 0.33828 0.43270 -0.19600
O 	O 	0.21450 0.43511 0.25210 -0.39200
O 	O 	0.38480 0.28483 0.45130 -0.53800
O 	O 	0.14930 0.44621 0.44830 -0.31800
C 	C 	0.54460 0.40009 0.38450 0.17100
C 	C 	0.21650 0.35954 0.44560 0.11600
H 	H 	0.14220 0.35100 0.45890 0.02700
O 	O 	0.96030 0.30171 0.33670 -0.45200
N 	N 	0.63760 0.38249 0.36140 -0.14900
O 	O 	0.06979 0.46734 0.22323 -0.41000
C 	C 	0.23260 0.39301 0.43904 -0.15600
C 	C 	0.72069 0.40567 0.34912 0.13900
C 	C 	0.02250 0.32134 0.29809 0.37700
C 	C 	0.10799 0.44036 0.24953 0.34000
C 	C 	0.91061 0.42225 0.29642 0.03000
H 	H 	0.88460 0.44440 0.29460 0.01900
C 	C 	0.87330 0.36467 0.32180 0.02900
H 	H 	0.82260 0.34770 0.33900 0.04100
C 	C 	0.13730 0.41692 0.45410 0.42000
O 	O 	0.11430 0.31295 0.26410 -0.31500
C 	C 	0.33960 0.40552 0.41720 0.07500
H 	H 	0.34880 0.42860 0.41090 0.01200
C 	C 	0.43290 0.38507 0.40450 -0.10100
C 	C 	0.41790 0.35118 0.41160 0.09200
H 	H 	0.48140 0.33680 0.40190 0.00300
C 	C 	0.29460 0.30178 0.44360 0.51600
C 	C 	0.98470 0.35687 0.29640 -0.10000
C 	C 	0.06120 0.38183 0.27330 0.03700
H 	H 	0.13830 0.37660 0.25770 0.05900
C 	C 	0.02430 0.41431 0.27320 -0.09400
N 	N 	0.68550 0.43483 0.36400 -0.10900
N 	N 	0.56640 0.43159 0.38880 -0.20400
C 	C 	0.83530 0.39721 0.32240 -0.05100
H 	H 	0.53910 0.45020 0.39410 0.13300
Tb	Tb	0.01962 0.76458 0.93354 1.61300
O 	O 	0.19300 0.79077 0.94600 -0.53300
O 	O 	0.04050 0.90285 0.97360 -0.49700
H 	H 	0.99490 0.91690 0.99250 0.28600
C 	C 	0.31020 0.83828 0.93270 -0.20600
O 	O 	0.21450 0.93511 0.75210 -0.39100
O 	O 	0.38480 0.78483 0.95130 -0.54400
O 	O 	0.14930 0.94621 0.94830 -0.33200
C 	C 	0.54460 0.90009 0.88450 0.16400
C 	C 	0.21650 0.85954 0.94560 0.11800
H 	H 	0.14220 0.85100 0.95890 0.01300
O 	O 	0.96030 0.80171 0.83670 -0.45300
N 	N 	0.63760 0.88249 0.86140 -0.15300
O 	O 	0.06979 0.96734 0.72323 -0.41200
C 	C 	0.23260 0.89301 0.93904 -0.16800
C 	C 	0.72069 0.90567 0.84912 0.13300
C 	C 	0.02250 0.82134 0.79809 0.37800
C 	C 	0.10799 0.94036 0.74953 0.34000
C 	C 	0.91061 0.92225 0.79642 0.02900
H 	H 	0.88460 0.94440 0.79460 0.01600
C 	C 	0.87330 0.86467 0.82180 0.02800
H 	H 	0.82260 0.84770 0.83900 0.03700
C 	C 	0.13730 0.91692 0.95410 0.41800
O 	O 	0.11430 0.81295 0.76410 -0.31500
C 	C 	0.33960 0.90552 0.91720 0.07600
H 	H 	0.34880 0.92860 0.91090 0.00700
C 	C 	0.43290 0.88507 0.90450 -0.10900
C 	C 	0.41790 0.85118 0.91160 0.09100
H 	H 	0.48140 0.83680 0.90190 -0.00300
C 	C 	0.29460 0.80178 0.94360 0.51000
C 	C 	0.98470 0.85687 0.79640 -0.10300
C 	C 	0.06120 0.88183 0.77330 0.03900
H 	H 	0.13830 0.87660 0.75770 0.05900
C 	C 	0.02430 0.91431 0.77320 -0.09600
N 	N 	0.68550 0.93483 0.86400 -0.11500
N 	N 	0.56640 0.93159 0.88880 -0.20600
C 	C 	0.83530 0.89721 0.82240 -0.05500
H 	H 	0.53910 0.95020 0.89410 0.12600
Tb	Tb	0.51962 0.26458 0.93354 1.61000
O 	O 	0.69300 0.29077 0.94600 -0.53300
O 	O 	0.54050 0.40285 0.97360 -0.49800
H 	H 	0.49490 0.41690 0.99250 0.28600
C 	C 	0.81020 0.33828 0.93270 -0.20600
O 	O 	0.71450 0.43511 0.75210 -0.39100
O 	O 	0.88480 0.28483 0.95130 -0.54400
O 	O 	0.64930 0.44621 0.94830 -0.33300
C 	C 	0.04460 0.40009 0.88450 0.16300
C 	C 	0.71650 0.35954 0.94560 0.11800
H 	H 	0.64220 0.35100 0.95890 0.01300
O 	O 	0.46030 0.30171 0.83670 -0.45200
N 	N 	0.13760 0.38249 0.86140 -0.15300
O 	O 	0.56979 0.46734 0.72323 -0.41200
C 	C 	0.73260 0.39301 0.93904 -0.16800
C 	C 	0.22069 0.40567 0.84912 0.13300
C 	C 	0.52250 0.32134 0.79809 0.37700
C 	C 	0.60799 0.44036 0.74953 0.34000
C 	C 	0.41061 0.42225 0.79642 0.02900
H 	H 	0.38460 0.44440 0.79460 0.01600
C 	C 	0.37330 0.36467 0.82180 0.02700
H 	H 	0.32260 0.34770 0.83900 0.03700
C 	C 	0.63730 0.41692 0.95410 0.41800
O 	O 	0.61430 0.31295 0.76410 -0.31400
C 	C 	0.83960 0.40552 0.91720 0.07600
H 	H 	0.84880 0.42860 0.91090 0.00700
C 	C 	0.93290 0.38507 0.90450 -0.10800
C 	C 	0.91790 0.35118 0.91160 0.09000
H 	H 	0.98140 0.33680 0.90190 -0.00200
C 	C 	0.79460 0.30178 0.94360 0.51000
C 	C 	0.48470 0.35687 0.79640 -0.10300
C 	C 	0.56120 0.38183 0.77330 0.03800
H 	H 	0.63830 0.37660 0.75770 0.05900
C 	C 	0.52430 0.41431 0.77320 -0.09600
N 	N 	0.18550 0.43483 0.86400 -0.11500
N 	N 	0.06640 0.43159 0.88880 -0.20500
C 	C 	0.33530 0.39721 0.82240 -0.05500
H 	H 	0.03910 0.45020 0.89410 0.12600
Tb	Tb	0.51962 0.76458 0.43354 1.66200
O 	O 	0.69300 0.79077 0.44600 -0.52800
O 	O 	0.54050 0.90285 0.47360 -0.48700
H 	H 	0.49490 0.91690 0.49250 0.30600
C 	C 	0.81020 0.83828 0.43270 -0.19600
O 	O 	0.71450 0.93511 0.25210 -0.39200
O 	O 	0.88480 0.78483 0.45130 -0.53800
O 	O 	0.64930 0.94621 0.44830 -0.31800
C 	C 	0.04460 0.90009 0.38450 0.17100
C 	C 	0.71650 0.85954 0.44560 0.11600
H 	H 	0.64220 0.85100 0.45890 0.02700
O 	O 	0.46030 0.80171 0.33670 -0.45300
N 	N 	0.13760 0.88249 0.36140 -0.14900
O 	O 	0.56979 0.96734 0.22323 -0.41000
C 	C 	0.73260 0.89301 0.43904 -0.15600
C 	C 	0.22069 0.90567 0.34912 0.13900
C 	C 	0.52250 0.82134 0.29809 0.37800
C 	C 	0.60799 0.94036 0.24953 0.34000
C 	C 	0.41061 0.92225 0.29642 0.03000
H 	H 	0.38460 0.94440 0.29460 0.01900
C 	C 	0.37330 0.86467 0.32180 0.03000
H 	H 	0.32260 0.84770 0.33900 0.04100
C 	C 	0.63730 0.91692 0.45410 0.41900
O 	O 	0.61430 0.81295 0.26410 -0.31500
C 	C 	0.83960 0.90552 0.41720 0.07500
H 	H 	0.84880 0.92860 0.41090 0.01200
C 	C 	0.93290 0.88507 0.40450 -0.10100
C 	C 	0.91790 0.85118 0.41160 0.09200
H 	H 	0.98140 0.83680 0.40190 0.00300
C 	C 	0.79460 0.80178 0.44360 0.51600
C 	C 	0.48470 0.85687 0.29640 -0.10100
C 	C 	0.56120 0.88183 0.27330 0.03800
H 	H 	0.63830 0.87660 0.25770 0.05900
C 	C 	0.52430 0.91431 0.27320 -0.09500
N 	N 	0.18550 0.93483 0.36400 -0.10900
N 	N 	0.06640 0.93159 0.38880 -0.20400
C 	C 	0.33530 0.89721 0.32240 -0.05100
H 	H 	0.03910 0.95020 0.39410 0.13400
Tb	Tb	0.98038 0.73542 0.43354 1.66100
O 	O 	0.80700 0.70923 0.44600 -0.52800
O 	O 	0.95950 0.59715 0.47360 -0.48800
H 	H 	0.00510 0.58310 0.49250 0.30600
C 	C 	0.68980 0.66172 0.43270 -0.19600
O 	O 	0.78550 0.56489 0.25210 -0.39200
O 	O 	0.61520 0.71517 0.45130 -0.53800
O 	O 	0.85070 0.55379 0.44830 -0.31800
C 	C 	0.45540 0.59991 0.38450 0.17100
C 	C 	0.78350 0.64046 0.44560 0.11600
H 	H 	0.85780 0.64900 0.45890 0.02700
O 	O 	0.03970 0.69829 0.33670 -0.45200
N 	N 	0.36240 0.61751 0.36140 -0.14900
O 	O 	0.93021 0.53266 0.22323 -0.41000
C 	C 	0.76740 0.60699 0.43904 -0.15600
C 	C 	0.27931 0.59433 0.34912 0.13900
C 	C 	0.97750 0.67866 0.29809 0.37700
C 	C 	0.89201 0.55964 0.24953 0.34000
C 	C 	0.08939 0.57775 0.29642 0.03000
H 	H 	0.11540 0.55560 0.29460 0.01900
C 	C 	0.12670 0.63533 0.32180 0.02900
H 	H 	0.17740 0.65230 0.33900 0.04100
C 	C 	0.86270 0.58308 0.45410 0.42000
O 	O 	0.88570 0.68705 0.26410 -0.31500
C 	C 	0.66040 0.59448 0.41720 0.07500
H 	H 	0.65120 0.57140 0.41090 0.01200
C 	C 	0.56710 0.61493 0.40450 -0.10100
C 	C 	0.58210 0.64882 0.41160 0.09200
H 	H 	0.51860 0.66320 0.40190 0.00300
C 	C 	0.70540 0.69822 0.44360 0.51600
C 	C 	0.01530 0.64313 0.29640 -0.10000
C 	C 	0.93880 0.61817 0.27330 0.03700
H 	H 	0.86170 0.62340 0.25770 0.05900
C 	C 	0.97570 0.58569 0.27320 -0.09400
N 	N 	0.31450 0.56517 0.36400 -0.10900
N 	N 	0.43360 0.56841 0.38880 -0.20400
C 	C 	0.16470 0.60279 0.32240 -0.05100
H 	H 	0.46090 0.54980 0.39410 0.13300
Tb	Tb	0.98038 0.23542 0.93354 1.61300
O 	O 	0.80700 0.20923 0.94600 -0.53300
O 	O 	0.95950 0.09715 0.97360 -0.49700
H 	H 	0.00510 0.08310 0.99250 0.28600
C 	C 	0.68980 0.16172 0.93270 -0.20600
O 	O 	0.78550 0.06489 0.75210 -0.39100
O 	O 	0.61520 0.21517 0.95130 -0.54400
O 	O 	0.85070 0.05379 0.94830 -0.33200
C 	C 	0.45540 0.09991 0.88450 0.16400
C 	C 	0.78350 0.14046 0.94560 0.11800
H 	H 	0.85780 0.14900 0.95890 0.01300
O 	O 	0.03970 0.19829 0.83670 -0.45300
N 	N 	0.36240 0.11751 0.86140 -0.15300
O 	O 	0.93021 0.03266 0.72323 -0.41200
C 	C 	0.76740 0.10699 0.93904 -0.16800
C 	C 	0.27931 0.09433 0.84912 0.13300
C 	C 	0.97750 0.17866 0.79809 0.37800
C 	C 	0.89201 0.05964 0.74953 0.34000
C 	C 	0.08939 0.07775 0.79642 0.02900
H 	H 	0.11540 0.05560 0.79460 0.01600
C 	C 	0.12670 0.13533 0.82180 0.02800
H 	H 	0.17740 0.15230 0.83900 0.03700
C 	C 	0.86270 0.08308 0.95410 0.41800
O 	O 	0.88570 0.18705 0.76410 -0.31500
C 	C 	0.66040 0.09448 0.91720 0.07600
H 	H 	0.65120 0.07140 0.91090 0.00700
C 	C 	0.56710 0.11493 0.90450 -0.10900
C 	C 	0.58210 0.14882 0.91160 0.09100
H 	H 	0.51860 0.16320 0.90190 -0.00300
C 	C 	0.70540 0.19822 0.94360 0.51000
C 	C 	0.01530 0.14313 0.79640 -0.10300
C 	C 	0.93880 0.11817 0.77330 0.03900
H 	H 	0.86170 0.12340 0.75770 0.05900
C 	C 	0.97570 0.08569 0.77320 -0.09600
N 	N 	0.31450 0.06517 0.86400 -0.11500
N 	N 	0.43360 0.06841 0.88880 -0.20600
C 	C 	0.16470 0.10279 0.82240 -0.05500
H 	H 	0.46090 0.04980 0.89410 0.12600
Tb	Tb	0.48038 0.73542 0.93354 1.61000
O 	O 	0.30700 0.70923 0.94600 -0.53300
O 	O 	0.45950 0.59715 0.97360 -0.49800
H 	H 	0.50510 0.58310 0.99250 0.28600
C 	C 	0.18980 0.66172 0.93270 -0.20600
O 	O 	0.28550 0.56489 0.75210 -0.39100
O 	O 	0.11520 0.71517 0.95130 -0.54400
O 	O 	0.35070 0.55379 0.94830 -0.33300
C 	C 	0.95540 0.59991 0.88450 0.16300
C 	C 	0.28350 0.64046 0.94560 0.11800
H 	H 	0.35780 0.64900 0.95890 0.01300
O 	O 	0.53970 0.69829 0.83670 -0.45200
N 	N 	0.86240 0.61751 0.86140 -0.15300
O 	O 	0.43021 0.53266 0.72323 -0.41200
C 	C 	0.26740 0.60699 0.93904 -0.16800
C 	C 	0.77931 0.59433 0.84912 0.13300
C 	C 	0.47750 0.67866 0.79809 0.37700
C 	C 	0.39201 0.55964 0.74953 0.34000
C 	C 	0.58939 0.57775 0.79642 0.02900
H 	H 	0.61540 0.55560 0.79460 0.01600
C 	C 	0.62670 0.63533 0.82180 0.02700
H 	H 	0.67740 0.65230 0.83900 0.03700
C 	C 	0.36270 0.58308 0.95410 0.41800
O 	O 	0.38570 0.68705 0.76410 -0.31400
C 	C 	0.16040 0.59448 0.91720 0.07600
H 	H 	0.15120 0.57140 0.91090 0.00700
C 	C 	0.06710 0.61493 0.90450 -0.10800
C 	C 	0.08210 0.64882 0.91160 0.09000
H 	H 	0.01860 0.66320 0.90190 -0.00200
C 	C 	0.20540 0.69822 0.94360 0.51000
C 	C 	0.51530 0.64313 0.79640 -0.10300
C 	C 	0.43880 0.61817 0.77330 0.03800
H 	H 	0.36170 0.62340 0.75770 0.05900
C 	C 	0.47570 0.58569 0.77320 -0.09600
N 	N 	0.81450 0.56517 0.86400 -0.11500
N 	N 	0.93360 0.56841 0.88880 -0.20500
C 	C 	0.66470 0.60279 0.82240 -0.05500
H 	H 	0.96090 0.54980 0.89410 0.12600
Tb	Tb	0.48038 0.23542 0.43354 1.66200
O 	O 	0.30700 0.20923 0.44600 -0.52800
O 	O 	0.45950 0.09715 0.47360 -0.48700
H 	H 	0.50510 0.08310 0.49250 0.30600
C 	C 	0.18980 0.16172 0.43270 -0.19600
O 	O 	0.28550 0.06489 0.25210 -0.39200
O 	O 	0.11520 0.21517 0.45130 -0.53800
O 	O 	0.35070 0.05379 0.44830 -0.31800
C 	C 	0.95540 0.09991 0.38450 0.17100
C 	C 	0.28350 0.14046 0.44560 0.11600
H 	H 	0.35780 0.14900 0.45890 0.02700
O 	O 	0.53970 0.19829 0.33670 -0.45300
N 	N 	0.86240 0.11751 0.36140 -0.14900
O 	O 	0.43021 0.03266 0.22323 -0.41000
C 	C 	0.26740 0.10699 0.43904 -0.15600
C 	C 	0.77931 0.09433 0.34912 0.13900
C 	C 	0.47750 0.17866 0.29809 0.37800
C 	C 	0.39201 0.05964 0.24953 0.34000
C 	C 	0.58939 0.07775 0.29642 0.03000
H 	H 	0.61540 0.05560 0.29460 0.01900
C 	C 	0.62670 0.13533 0.32180 0.03000
H 	H 	0.67740 0.15230 0.33900 0.04100
C 	C 	0.36270 0.08308 0.45410 0.41900
O 	O 	0.38570 0.18705 0.26410 -0.31500
C 	C 	0.16040 0.09448 0.41720 0.07500
H 	H 	0.15120 0.07140 0.41090 0.01200
C 	C 	0.06710 0.11493 0.40450 -0.10100
C 	C 	0.08210 0.14882 0.41160 0.09200
H 	H 	0.01860 0.16320 0.40190 0.00300
C 	C 	0.20540 0.19822 0.44360 0.51600
C 	C 	0.51530 0.14313 0.29640 -0.10100
C 	C 	0.43880 0.11817 0.27330 0.03800
H 	H 	0.36170 0.12340 0.25770 0.05900
C 	C 	0.47570 0.08569 0.27320 -0.09500
N 	N 	0.81450 0.06517 0.36400 -0.10900
N 	N 	0.93360 0.06841 0.38880 -0.20400
C 	C 	0.66470 0.10279 0.32240 -0.05100
H 	H 	0.96090 0.04980 0.39410 0.13400
Tb	Tb	0.26962 0.98542 0.68354 1.65800
O 	O 	0.44300 0.95923 0.69600 -0.52800
O 	O 	0.29050 0.84715 0.72360 -0.48700
H 	H 	0.24490 0.83310 0.74250 0.30600
C 	C 	0.56020 0.91172 0.68270 -0.19500
O 	O 	0.46450 0.81489 0.50210 -0.39100
O 	O 	0.63480 0.96517 0.70130 -0.53800
O 	O 	0.39930 0.80379 0.69830 -0.31700
C 	C 	0.79460 0.84991 0.63450 0.17100
C 	C 	0.46650 0.89046 0.69560 0.11600
H 	H 	0.39220 0.89900 0.70890 0.02700
O 	O 	0.21030 0.94829 0.58670 -0.45300
N 	N 	0.88760 0.86751 0.61140 -0.14900
O 	O 	0.31979 0.78266 0.47323 -0.41100
C 	C 	0.48260 0.85699 0.68904 -0.15600
C 	C 	0.97069 0.84433 0.59912 0.13900
C 	C 	0.27250 0.92866 0.54809 0.37900
C 	C 	0.35799 0.80964 0.49953 0.34000
C 	C 	0.16061 0.82775 0.54642 0.03000
H 	H 	0.13460 0.80560 0.54460 0.01900
C 	C 	0.12330 0.88533 0.57180 0.03000
H 	H 	0.07260 0.90230 0.58900 0.04100
C 	C 	0.38730 0.83308 0.70410 0.41900
O 	O 	0.36430 0.93705 0.51410 -0.31600
C 	C 	0.58960 0.84448 0.66720 0.07500
H 	H 	0.59880 0.82140 0.66090 0.01200
C 	C 	0.68290 0.86493 0.65450 -0.10100
C 	C 	0.66790 0.89882 0.66160 0.09200
H 	H 	0.73140 0.91320 0.65190 0.00300
C 	C 	0.54460 0.94822 0.69360 0.51500
C 	C 	0.23470 0.89313 0.54640 -0.10100
C 	C 	0.31120 0.86817 0.52330 0.03800
H 	H 	0.38830 0.87340 0.50770 0.05900
C 	C 	0.27430 0.83569 0.52320 -0.09500
N 	N 	0.93550 0.81517 0.61400 -0.10900
N 	N 	0.81640 0.81841 0.63880 -0.20400
C 	C 	0.08530 0.85279 0.57240 -0.05000
H 	H 	0.78910 0.79980 0.64410 0.13400
Tb	Tb	0.26962 0.48542 0.18354 1.67400
O 	O 	0.44300 0.45923 0.19600 -0.52800
O 	O 	0.29050 0.34715 0.22360 -0.48700
H 	H 	0.24490 0.33310 0.24250 0.30600
C 	C 	0.56020 0.41172 0.18270 -0.19200
O 	O 	0.46450 0.31489 0.00210 -0.30800
O 	O 	0.63480 0.46517 0.20130 -0.53700
O 	O 	0.39930 0.30379 0.19830 -0.31200
C 	C 	0.79460 0.34991 0.13450 0.17900
C 	C 	0.46650 0.39046 0.19560 0.11600
H 	H 	0.39220 0.39900 0.20890 0.02700
O 	O 	0.21030 0.44829 0.08670 -0.44300
N 	N 	0.88760 0.36751 0.11140 -0.14300
O 	O 	0.31979 0.28266 0.97323 -0.39400
C 	C 	0.48260 0.35699 0.18904 -0.15400
C 	C 	0.97069 0.34433 0.09912 0.13700
C 	C 	0.27250 0.42866 0.04809 0.36700
C 	C 	0.35799 0.30964 0.99953 0.21100
C 	C 	0.16061 0.32775 0.04642 -0.01800
H 	H 	0.13460 0.30560 0.04460 0.05100
C 	C 	0.12330 0.38533 0.07180 0.00400
H 	H 	0.07260 0.40230 0.08900 0.05500
C 	C 	0.38730 0.33308 0.20410 0.41800
O 	O 	0.36430 0.43705 0.01410 -0.28600
C 	C 	0.58960 0.34448 0.16720 0.07500
H 	H 	0.59880 0.32140 0.16090 0.01600
C 	C 	0.68290 0.36493 0.15450 -0.09600
C 	C 	0.66790 0.39882 0.16160 0.09500
H 	H 	0.73140 0.41320 0.15190 0.00800
C 	C 	0.54460 0.44822 0.19360 0.51900
C 	C 	0.23470 0.39313 0.04640 -0.06000
C 	C 	0.31120 0.36817 0.02330 -0.01500
H 	H 	0.38830 0.37340 0.00770 0.09300
C 	C 	0.27430 0.33569 0.02320 0.00700
N 	N 	0.93550 0.31517 0.11400 -0.10000
N 	N 	0.81640 0.31841 0.13880 -0.20400
C 	C 	0.08530 0.35279 0.07240 -0.01500
H 	H 	0.78910 0.29980 0.14410 0.14100
Tb	Tb	0.76962 0.98542 0.18354 1.67500
O 	O 	0.94300 0.95923 0.19600 -0.52800
O 	O 	0.79050 0.84715 0.22360 -0.48700
H 	H 	0.74490 0.83310 0.24250 0.30600
C 	C 	0.06020 0.91172 0.18270 -0.19200
O 	O 	0.96450 0.81489 0.00210 -0.30900
O 	O 	0.13480 0.96517 0.20130 -0.53700
O 	O 	0.89930 0.80379 0.19830 -0.31200
C 	C 	0.29460 0.84991 0.13450 0.17900
C 	C 	0.96650 0.89046 0.19560 0.11600
H 	H 	0.89220 0.89900 0.20890 0.02700
O 	O 	0.71030 0.94829 0.08670 -0.44300
N 	N 	0.38760 0.86751 0.11140 -0.14300
O 	O 	0.81979 0.78266 0.97323 -0.39400
C 	C 	0.98260 0.85699 0.18904 -0.15400
C 	C 	0.47069 0.84433 0.09912 0.13700
C 	C 	0.77250 0.92866 0.04809 0.36700
C 	C 	0.85799 0.80964 0.99953 0.21200
C 	C 	0.66061 0.82775 0.04642 -0.01800
H 	H 	0.63460 0.80560 0.04460 0.05100
C 	C 	0.62330 0.88533 0.07180 0.00400
H 	H 	0.57260 0.90230 0.08900 0.05600
C 	C 	0.88730 0.83308 0.20410 0.41800
O 	O 	0.86430 0.93705 0.01410 -0.28700
C 	C 	0.08960 0.84448 0.16720 0.07600
H 	H 	0.09880 0.82140 0.16090 0.01600
C 	C 	0.18290 0.86493 0.15450 -0.09600
C 	C 	0.16790 0.89882 0.16160 0.09500
H 	H 	0.23140 0.91320 0.15190 0.00800
C 	C 	0.04460 0.94822 0.19360 0.51900
C 	C 	0.73470 0.89313 0.04640 -0.06000
C 	C 	0.81120 0.86817 0.02330 -0.01500
H 	H 	0.88830 0.87340 0.00770 0.09300
C 	C 	0.77430 0.83569 0.02320 0.00600
N 	N 	0.43550 0.81517 0.11400 -0.10000
N 	N 	0.31640 0.81841 0.13880 -0.20400
C 	C 	0.58530 0.85279 0.07240 -0.01400
H 	H 	0.28910 0.79980 0.14410 0.14100
Tb	Tb	0.76962 0.48542 0.68354 1.65800
O 	O 	0.94300 0.45923 0.69600 -0.52800
O 	O 	0.79050 0.34715 0.72360 -0.48700
H 	H 	0.74490 0.33310 0.74250 0.30600
C 	C 	0.06020 0.41172 0.68270 -0.19600
O 	O 	0.96450 0.31489 0.50210 -0.39000
O 	O 	0.13480 0.46517 0.70130 -0.53800
O 	O 	0.89930 0.30379 0.69830 -0.31700
C 	C 	0.29460 0.34991 0.63450 0.17100
C 	C 	0.96650 0.39046 0.69560 0.11600
H 	H 	0.89220 0.39900 0.70890 0.02700
O 	O 	0.71030 0.44829 0.58670 -0.45300
N 	N 	0.38760 0.36751 0.61140 -0.14900
O 	O 	0.81979 0.28266 0.47323 -0.41100
C 	C 	0.98260 0.35699 0.68904 -0.15500
C 	C 	0.47069 0.34433 0.59912 0.14000
C 	C 	0.77250 0.42866 0.54809 0.37900
C 	C 	0.85799 0.30964 0.49953 0.34000
C 	C 	0.66061 0.32775 0.54642 0.03000
H 	H 	0.63460 0.30560 0.54460 0.01900
C 	C 	0.62330 0.38533 0.57180 0.03000
H 	H 	0.57260 0.40230 0.58900 0.04100
C 	C 	0.88730 0.33308 0.70410 0.41900
O 	O 	0.86430 0.43705 0.51410 -0.31600
C 	C 	0.08960 0.34448 0.66720 0.07400
H 	H 	0.09880 0.32140 0.66090 0.01200
C 	C 	0.18290 0.36493 0.65450 -0.10000
C 	C 	0.16790 0.39882 0.66160 0.09200
H 	H 	0.23140 0.41320 0.65190 0.00300
C 	C 	0.04460 0.44822 0.69360 0.51500
C 	C 	0.73470 0.39313 0.54640 -0.10100
C 	C 	0.81120 0.36817 0.52330 0.03800
H 	H 	0.88830 0.37340 0.50770 0.05900
C 	C 	0.77430 0.33569 0.52320 -0.09500
N 	N 	0.43550 0.31517 0.61400 -0.10900
N 	N 	0.31640 0.31841 0.63880 -0.20400
C 	C 	0.58530 0.35279 0.57240 -0.05100
H 	H 	0.28910 0.29980 0.64410 0.13400
Tb	Tb	0.23038 0.51458 0.68354 1.65800
O 	O 	0.05700 0.54077 0.69600 -0.52800
O 	O 	0.20950 0.65285 0.72360 -0.48700
H 	H 	0.25510 0.66690 0.74250 0.30600
C 	C 	0.93980 0.58828 0.68270 -0.19600
O 	O 	0.03550 0.68511 0.50210 -0.39000
O 	O 	0.86520 0.53483 0.70130 -0.53800
O 	O 	0.10070 0.69621 0.69830 -0.31700
C 	C 	0.70540 0.65009 0.63450 0.17100
C 	C 	0.03350 0.60954 0.69560 0.11600
H 	H 	0.10780 0.60100 0.70890 0.02700
O 	O 	0.28970 0.55171 0.58670 -0.45300
N 	N 	0.61240 0.63249 0.61140 -0.14900
O 	O 	0.18021 0.71734 0.47323 -0.41100
C 	C 	0.01740 0.64301 0.68904 -0.15500
C 	C 	0.52931 0.65567 0.59912 0.14000
C 	C 	0.22750 0.57134 0.54809 0.37900
C 	C 	0.14201 0.69036 0.49953 0.34000
C 	C 	0.33939 0.67225 0.54642 0.03000
H 	H 	0.36540 0.69440 0.54460 0.01900
C 	C 	0.37670 0.61467 0.57180 0.03000
H 	H 	0.42740 0.59770 0.58900 0.04100
C 	C 	0.11270 0.66692 0.70410 0.41900
O 	O 	0.13570 0.56295 0.51410 -0.31600
C 	C 	0.91040 0.65552 0.66720 0.07400
H 	H 	0.90120 0.67860 0.66090 0.01200
C 	C 	0.81710 0.63507 0.65450 -0.10000
C 	C 	0.83210 0.60118 0.66160 0.09200
H 	H 	0.76860 0.58680 0.65190 0.00300
C 	C 	0.95540 0.55178 0.69360 0.51500
C 	C 	0.26530 0.60687 0.54640 -0.10100
C 	C 	0.18880 0.63183 0.52330 0.03800
H 	H 	0.11170 0.62660 0.50770 0.05900
C 	C 	0.22570 0.66431 0.52320 -0.09500
N 	N 	0.56450 0.68483 0.61400 -0.10900
N 	N 	0.68360 0.68159 0.63880 -0.20400
C 	C 	0.41470 0.64721 0.57240 -0.05100
H 	H 	0.71090 0.70020 0.64410 0.13400
Tb	Tb	0.23038 0.01458 0.18354 1.67500
O 	O 	0.05700 0.04077 0.19600 -0.52800
O 	O 	0.20950 0.15285 0.22360 -0.48700
H 	H 	0.25510 0.16690 0.24250 0.30600
C 	C 	0.93980 0.08828 0.18270 -0.19200
O 	O 	0.03550 0.18511 0.00210 -0.30900
O 	O 	0.86520 0.03483 0.20130 -0.53700
O 	O 	0.10070 0.19621 0.19830 -0.31200
C 	C 	0.70540 0.15009 0.13450 0.17900
C 	C 	0.03350 0.10954 0.19560 0.11600
H 	H 	0.10780 0.10100 0.20890 0.02700
O 	O 	0.28970 0.05171 0.08670 -0.44300
N 	N 	0.61240 0.13249 0.11140 -0.14300
O 	O 	0.18021 0.21734 0.97323 -0.39400
C 	C 	0.01740 0.14301 0.18904 -0.15400
C 	C 	0.52931 0.15567 0.09912 0.13700
C 	C 	0.22750 0.07134 0.04809 0.36700
C 	C 	0.14201 0.19036 0.99953 0.21200
C 	C 	0.33939 0.17225 0.04642 -0.01800
H 	H 	0.36540 0.19440 0.04460 0.05100
C 	C 	0.37670 0.11467 0.07180 0.00400
H 	H 	0.42740 0.09770 0.08900 0.05600
C 	C 	0.11270 0.16692 0.20410 0.41800
O 	O 	0.13570 0.06295 0.01410 -0.28700
C 	C 	0.91040 0.15552 0.16720 0.07600
H 	H 	0.90120 0.17860 0.16090 0.01600
C 	C 	0.81710 0.13507 0.15450 -0.09600
C 	C 	0.83210 0.10118 0.16160 0.09500
H 	H 	0.76860 0.08680 0.15190 0.00800
C 	C 	0.95540 0.05178 0.19360 0.51900
C 	C 	0.26530 0.10687 0.04640 -0.06000
C 	C 	0.18880 0.13183 0.02330 -0.01500
H 	H 	0.11170 0.12660 0.00770 0.09300
C 	C 	0.22570 0.16431 0.02320 0.00600
N 	N 	0.56450 0.18483 0.11400 -0.10000
N 	N 	0.68360 0.18159 0.13880 -0.20400
C 	C 	0.41470 0.14721 0.07240 -0.01400
H 	H 	0.71090 0.20020 0.14410 0.14100
Tb	Tb	0.73038 0.51458 0.18354 1.67400
O 	O 	0.55700 0.54077 0.19600 -0.52800
O 	O 	0.70950 0.65285 0.22360 -0.48700
H 	H 	0.75510 0.66690 0.24250 0.30600
C 	C 	0.43980 0.58828 0.18270 -0.19200
O 	O 	0.53550 0.68511 0.00210 -0.30800
O 	O 	0.36520 0.53483 0.20130 -0.53700
O 	O 	0.60070 0.69621 0.19830 -0.31200
C 	C 	0.20540 0.65009 0.13450 0.17900
C 	C 	0.53350 0.60954 0.19560 0.11600
H 	H 	0.60780 0.60100 0.20890 0.02700
O 	O 	0.78970 0.55171 0.08670 -0.44300
N 	N 	0.11240 0.63249 0.11140 -0.14300
O 	O 	0.68021 0.71734 0.97323 -0.39400
C 	C 	0.51740 0.64301 0.18904 -0.15400
C 	C 	0.02931 0.65567 0.09912 0.13700
C 	C 	0.72750 0.57134 0.04809 0.36700
C 	C 	0.64201 0.69036 0.99953 0.21100
C 	C 	0.83939 0.67225 0.04642 -0.01800
H 	H 	0.86540 0.69440 0.04460 0.05100
C 	C 	0.87670 0.61467 0.07180 0.00400
H 	H 	0.92740 0.59770 0.08900 0.05500
C 	C 	0.61270 0.66692 0.20410 0.41800
O 	O 	0.63570 0.56295 0.01410 -0.28600
C 	C 	0.41040 0.65552 0.16720 0.07500
H 	H 	0.40120 0.67860 0.16090 0.01600
C 	C 	0.31710 0.63507 0.15450 -0.09600
C 	C 	0.33210 0.60118 0.16160 0.09500
H 	H 	0.26860 0.58680 0.15190 0.00800
C 	C 	0.45540 0.55178 0.19360 0.51900
C 	C 	0.76530 0.60687 0.04640 -0.06000
C 	C 	0.68880 0.63183 0.02330 -0.01500
H 	H 	0.61170 0.62660 0.00770 0.09300
C 	C 	0.72570 0.66431 0.02320 0.00700
N 	N 	0.06450 0.68483 0.11400 -0.10000
N 	N 	0.18360 0.68159 0.13880 -0.20400
C 	C 	0.91470 0.64721 0.07240 -0.01500
H 	H 	0.21090 0.70020 0.14410 0.14100
Tb	Tb	0.73038 0.01458 0.68354 1.65800
O 	O 	0.55700 0.04077 0.69600 -0.52800
O 	O 	0.70950 0.15285 0.72360 -0.48700
H 	H 	0.75510 0.16690 0.74250 0.30600
C 	C 	0.43980 0.08828 0.68270 -0.19500
O 	O 	0.53550 0.18511 0.50210 -0.39100
O 	O 	0.36520 0.03483 0.70130 -0.53800
O 	O 	0.60070 0.19621 0.69830 -0.31700
C 	C 	0.20540 0.15009 0.63450 0.17100
C 	C 	0.53350 0.10954 0.69560 0.11600
H 	H 	0.60780 0.10100 0.70890 0.02700
O 	O 	0.78970 0.05171 0.58670 -0.45300
N 	N 	0.11240 0.13249 0.61140 -0.14900
O 	O 	0.68021 0.21734 0.47323 -0.41100
C 	C 	0.51740 0.14301 0.68904 -0.15600
C 	C 	0.02931 0.15567 0.59912 0.13900
C 	C 	0.72750 0.07134 0.54809 0.37900
C 	C 	0.64201 0.19036 0.49953 0.34000
C 	C 	0.83939 0.17225 0.54642 0.03000
H 	H 	0.86540 0.19440 0.54460 0.01900
C 	C 	0.87670 0.11467 0.57180 0.03000
H 	H 	0.92740 0.09770 0.58900 0.04100
C 	C 	0.61270 0.16692 0.70410 0.41900
O 	O 	0.63570 0.06295 0.51410 -0.31600
C 	C 	0.41040 0.15552 0.66720 0.07500
H 	H 	0.40120 0.17860 0.66090 0.01200
C 	C 	0.31710 0.13507 0.65450 -0.10100
C 	C 	0.33210 0.10118 0.66160 0.09200
H 	H 	0.26860 0.08680 0.65190 0.00300
C 	C 	0.45540 0.05178 0.69360 0.51500
C 	C 	0.76530 0.10687 0.54640 -0.10100
C 	C 	0.68880 0.13183 0.52330 0.03800
H 	H 	0.61170 0.12660 0.50770 0.05900
C 	C 	0.72570 0.16431 0.52320 -0.09500
N 	N 	0.06450 0.18483 0.61400 -0.10900
N 	N 	0.18360 0.18159 0.63880 -0.20400
C 	C 	0.91470 0.14721 0.57240 -0.05000
H 	H 	0.21090 0.20020 0.64410 0.13400
