data_crystal

_cell_length_a 11.54860
_cell_length_b 40.86350
_cell_length_c 16.77770
_cell_angle_alpha 90.00000
_cell_angle_beta  90.00000
_cell_angle_gamma 90.00000

_symmetry_space_group_name_	'P 1'
_symmetry_space_group_name_H-M	'P 1'

loop_
_symmetry_equiv_pos_as_xyz
  x,y,z

loop_
_atom_site_label
_atom_site_type_symbol
_atom_site_fract_x
_atom_site_fract_y
_atom_site_fract_z
_atom_site_charge
Gd	Gd	0.73139 0.51445 0.71280 1.41800
O 	O 	0.71030 0.65220 0.75060 -0.47800
O 	O 	0.55810 0.54077 0.72710 -0.46900
C 	C 	0.44280 0.58770 0.71020 -0.16300
C 	C 	0.20720 0.64890 0.66050 0.13300
O 	O 	0.53740 0.68516 0.53160 -0.35400
O 	O 	0.78930 0.55165 0.61350 -0.40200
N 	N 	0.11340 0.63139 0.63730 -0.13800
O 	O 	0.68230 0.71771 0.50280 -0.37000
C 	C 	0.53510 0.60870 0.72310 0.08800
H 	H 	0.60880 0.60020 0.73740 0.03900
O 	O 	0.60190 0.69558 0.72500 -0.30000
O 	O 	0.63550 0.56328 0.53960 -0.29600
N 	N 	0.18590 0.68010 0.66530 -0.09800
C 	C 	0.72710 0.57151 0.57470 0.35500
O 	O 	0.36710 0.53469 0.73090 -0.49300
C 	C 	0.51880 0.64240 0.71500 -0.12600
C 	C 	0.83930 0.67142 0.57480 0.01700
H 	H 	0.86530 0.69350 0.57330 0.02400
C 	C 	0.87720 0.61422 0.59840 0.01700
H 	H 	0.92880 0.59720 0.61350 0.04900
C 	C 	0.03180 0.65468 0.62560 0.12100
C 	C 	0.41230 0.65473 0.69280 0.04100
H 	H 	0.40280 0.67770 0.68630 0.03600
N 	N 	0.06990 0.68439 0.64310 -0.15800
C 	C 	0.64370 0.69043 0.52730 0.32000
C 	C 	0.72720 0.66399 0.55190 -0.07600
C 	C 	0.31880 0.63392 0.67990 -0.05900
C 	C 	0.68940 0.63174 0.55170 0.02400
H 	H 	0.61250 0.62660 0.53590 0.06400
C 	C 	0.61370 0.66635 0.73100 0.40200
C 	C 	0.33310 0.60003 0.68950 0.05300
H 	H 	0.26950 0.58560 0.68200 0.01700
C 	C 	0.76510 0.60692 0.57480 -0.08300
C 	C 	0.45630 0.55134 0.72340 0.47800
C 	C 	0.91380 0.64694 0.59970 -0.03800
H 	H 	0.75200 0.66590 0.77400 0.30400
H 	H 	0.04800 0.69200 0.59600 0.10500
Gd	Gd	0.73139 0.01445 0.21280 1.44100
O 	O 	0.71030 0.15220 0.25060 -0.48000
O 	O 	0.55810 0.04077 0.22710 -0.46900
C 	C 	0.44280 0.08770 0.21020 -0.16100
C 	C 	0.20720 0.14890 0.16050 0.14200
O 	O 	0.53740 0.18516 0.03160 -0.31200
O 	O 	0.78930 0.05165 0.11350 -0.39300
N 	N 	0.11340 0.13139 0.13730 -0.13100
O 	O 	0.68230 0.21771 0.00280 -0.32700
C 	C 	0.53510 0.10870 0.22310 0.08600
H 	H 	0.60880 0.10020 0.23740 0.03800
O 	O 	0.60190 0.19558 0.22500 -0.29600
O 	O 	0.63550 0.06328 0.03960 -0.26900
N 	N 	0.18590 0.18010 0.16530 -0.08900
C 	C 	0.72710 0.07151 0.07470 0.35600
O 	O 	0.36710 0.03469 0.23090 -0.49000
C 	C 	0.51880 0.14240 0.21500 -0.12300
C 	C 	0.83930 0.17142 0.07480 0.01500
H 	H 	0.86530 0.19350 0.07330 0.03600
C 	C 	0.87720 0.11422 0.09840 0.01800
H 	H 	0.92880 0.09720 0.11350 0.05800
C 	C 	0.03180 0.15468 0.12560 0.13100
C 	C 	0.41230 0.15473 0.19280 0.04000
H 	H 	0.40280 0.17770 0.18630 0.04400
N 	N 	0.06990 0.18439 0.14310 -0.16000
C 	C 	0.64370 0.19043 0.02730 0.31500
C 	C 	0.72720 0.16399 0.05190 -0.05600
C 	C 	0.31880 0.13392 0.17990 -0.05000
C 	C 	0.68940 0.13174 0.05170 0.02300
H 	H 	0.61250 0.12660 0.03590 0.07500
C 	C 	0.61370 0.16635 0.23100 0.39900
C 	C 	0.33310 0.10003 0.18950 0.05400
H 	H 	0.26950 0.08560 0.18200 0.02500
C 	C 	0.76510 0.10692 0.07480 -0.06700
C 	C 	0.45630 0.05134 0.22340 0.48200
C 	C 	0.91380 0.14694 0.09970 -0.02500
H 	H 	0.75200 0.16590 0.27400 0.30300
H 	H 	0.04800 0.19200 0.09600 0.12700
Gd	Gd	0.23139 0.51445 0.21280 1.44100
O 	O 	0.21030 0.65220 0.25060 -0.48000
O 	O 	0.05810 0.54077 0.22710 -0.46900
C 	C 	0.94280 0.58770 0.21020 -0.16100
C 	C 	0.70720 0.64890 0.16050 0.14200
O 	O 	0.03740 0.68516 0.03160 -0.31300
O 	O 	0.28930 0.55165 0.11350 -0.39300
N 	N 	0.61340 0.63139 0.13730 -0.13000
O 	O 	0.18230 0.71771 0.00280 -0.32700
C 	C 	0.03510 0.60870 0.22310 0.08600
H 	H 	0.10880 0.60020 0.23740 0.03800
O 	O 	0.10190 0.69558 0.22500 -0.29700
O 	O 	0.13550 0.56328 0.03960 -0.26900
N 	N 	0.68590 0.68010 0.16530 -0.08900
C 	C 	0.22710 0.57151 0.07470 0.35600
O 	O 	0.86710 0.53469 0.23090 -0.49000
C 	C 	0.01880 0.64240 0.21500 -0.12300
C 	C 	0.33930 0.67142 0.07480 0.01500
H 	H 	0.36530 0.69350 0.07330 0.03700
C 	C 	0.37720 0.61422 0.09840 0.01800
H 	H 	0.42880 0.59720 0.11350 0.05800
C 	C 	0.53180 0.65468 0.12560 0.13100
C 	C 	0.91230 0.65473 0.19280 0.04000
H 	H 	0.90280 0.67770 0.18630 0.04400
N 	N 	0.56990 0.68439 0.14310 -0.16000
C 	C 	0.14370 0.69043 0.02730 0.31500
C 	C 	0.22720 0.66399 0.05190 -0.05500
C 	C 	0.81880 0.63392 0.17990 -0.05000
C 	C 	0.18940 0.63174 0.05170 0.02300
H 	H 	0.11250 0.62660 0.03590 0.07500
C 	C 	0.11370 0.66635 0.23100 0.40000
C 	C 	0.83310 0.60003 0.18950 0.05400
H 	H 	0.76950 0.58560 0.18200 0.02500
C 	C 	0.26510 0.60692 0.07480 -0.06600
C 	C 	0.95630 0.55134 0.22340 0.48200
C 	C 	0.41380 0.64694 0.09970 -0.02400
H 	H 	0.25200 0.66590 0.27400 0.30300
H 	H 	0.54800 0.69200 0.09600 0.12700
Gd	Gd	0.23139 0.01445 0.71280 1.41800
O 	O 	0.21030 0.15220 0.75060 -0.47900
O 	O 	0.05810 0.04077 0.72710 -0.46900
C 	C 	0.94280 0.08770 0.71020 -0.16500
C 	C 	0.70720 0.14890 0.66050 0.13200
O 	O 	0.03740 0.18516 0.53160 -0.35500
O 	O 	0.28930 0.05165 0.61350 -0.40300
N 	N 	0.61340 0.13139 0.63730 -0.13900
O 	O 	0.18230 0.21771 0.50280 -0.37000
C 	C 	0.03510 0.10870 0.72310 0.08900
H 	H 	0.10880 0.10020 0.73740 0.03900
O 	O 	0.10190 0.19558 0.72500 -0.30000
O 	O 	0.13550 0.06328 0.53960 -0.29500
N 	N 	0.68590 0.18010 0.66530 -0.09800
C 	C 	0.22710 0.07151 0.57470 0.35500
O 	O 	0.86710 0.03469 0.73090 -0.49300
C 	C 	0.01880 0.14240 0.71500 -0.12400
C 	C 	0.33930 0.17142 0.57480 0.01700
H 	H 	0.36530 0.19350 0.57330 0.02400
C 	C 	0.37720 0.11422 0.59840 0.01700
H 	H 	0.42880 0.09720 0.61350 0.04900
C 	C 	0.53180 0.15468 0.62560 0.12200
C 	C 	0.91230 0.15473 0.69280 0.04000
H 	H 	0.90280 0.17770 0.68630 0.03600
N 	N 	0.56990 0.18439 0.64310 -0.15800
C 	C 	0.14370 0.19043 0.52730 0.32000
C 	C 	0.22720 0.16399 0.55190 -0.07600
C 	C 	0.81880 0.13392 0.67990 -0.05900
C 	C 	0.18940 0.13174 0.55170 0.02400
H 	H 	0.11250 0.12660 0.53590 0.06400
C 	C 	0.11370 0.16635 0.73100 0.40100
C 	C 	0.83310 0.10003 0.68950 0.05300
H 	H 	0.76950 0.08560 0.68200 0.01800
C 	C 	0.26510 0.10692 0.57480 -0.08300
C 	C 	0.95630 0.05134 0.72340 0.47800
C 	C 	0.41380 0.14694 0.59970 -0.03900
H 	H 	0.25200 0.16590 0.77400 0.30400
H 	H 	0.54800 0.19200 0.59600 0.10500
Gd	Gd	0.26861 0.48555 0.71280 1.41700
O 	O 	0.28970 0.34780 0.75060 -0.47900
O 	O 	0.44190 0.45923 0.72710 -0.47000
C 	C 	0.55720 0.41230 0.71020 -0.16400
C 	C 	0.79280 0.35110 0.66050 0.13200
O 	O 	0.46260 0.31484 0.53160 -0.35500
O 	O 	0.21070 0.44835 0.61350 -0.40300
N 	N 	0.88660 0.36861 0.63730 -0.13900
O 	O 	0.31770 0.28229 0.50280 -0.37000
C 	C 	0.46490 0.39130 0.72310 0.08800
H 	H 	0.39120 0.39980 0.73740 0.03900
O 	O 	0.39810 0.30442 0.72500 -0.30000
O 	O 	0.36450 0.43672 0.53960 -0.29600
N 	N 	0.81410 0.31990 0.66530 -0.09800
C 	C 	0.27290 0.42849 0.57470 0.35500
O 	O 	0.63290 0.46531 0.73090 -0.49300
C 	C 	0.48120 0.35760 0.71500 -0.12600
C 	C 	0.16070 0.32858 0.57480 0.01700
H 	H 	0.13470 0.30650 0.57330 0.02400
C 	C 	0.12280 0.38578 0.59840 0.01700
H 	H 	0.07120 0.40280 0.61350 0.04900
C 	C 	0.96820 0.34532 0.62560 0.12100
C 	C 	0.58770 0.34527 0.69280 0.04100
H 	H 	0.59720 0.32230 0.68630 0.03600
N 	N 	0.93010 0.31561 0.64310 -0.15800
C 	C 	0.35630 0.30957 0.52730 0.32000
C 	C 	0.27280 0.33601 0.55190 -0.07600
C 	C 	0.68120 0.36608 0.67990 -0.05900
C 	C 	0.31060 0.36826 0.55170 0.02400
H 	H 	0.38750 0.37340 0.53590 0.06400
C 	C 	0.38630 0.33365 0.73100 0.40200
C 	C 	0.66690 0.39997 0.68950 0.05300
H 	H 	0.73050 0.41440 0.68200 0.01700
C 	C 	0.23490 0.39308 0.57480 -0.08300
C 	C 	0.54370 0.44866 0.72340 0.47800
C 	C 	0.08620 0.35306 0.59970 -0.03800
H 	H 	0.24800 0.33410 0.77400 0.30400
H 	H 	0.95200 0.30800 0.59600 0.10500
Gd	Gd	0.26861 0.98555 0.21280 1.44100
O 	O 	0.28970 0.84780 0.25060 -0.48000
O 	O 	0.44190 0.95923 0.22710 -0.46900
C 	C 	0.55720 0.91230 0.21020 -0.16100
C 	C 	0.79280 0.85110 0.16050 0.14200
O 	O 	0.46260 0.81484 0.03160 -0.31200
O 	O 	0.21070 0.94835 0.11350 -0.39300
N 	N 	0.88660 0.86861 0.13730 -0.13100
O 	O 	0.31770 0.78229 0.00280 -0.32700
C 	C 	0.46490 0.89130 0.22310 0.08600
H 	H 	0.39120 0.89980 0.23740 0.03800
O 	O 	0.39810 0.80442 0.22500 -0.29600
O 	O 	0.36450 0.93672 0.03960 -0.26900
N 	N 	0.81410 0.81990 0.16530 -0.08900
C 	C 	0.27290 0.92849 0.07470 0.35600
O 	O 	0.63290 0.96531 0.23090 -0.49000
C 	C 	0.48120 0.85760 0.21500 -0.12300
C 	C 	0.16070 0.82858 0.07480 0.01500
H 	H 	0.13470 0.80650 0.07330 0.03600
C 	C 	0.12280 0.88578 0.09840 0.01800
H 	H 	0.07120 0.90280 0.11350 0.05800
C 	C 	0.96820 0.84532 0.12560 0.13100
C 	C 	0.58770 0.84527 0.19280 0.04000
H 	H 	0.59720 0.82230 0.18630 0.04400
N 	N 	0.93010 0.81561 0.14310 -0.16000
C 	C 	0.35630 0.80957 0.02730 0.31500
C 	C 	0.27280 0.83601 0.05190 -0.05600
C 	C 	0.68120 0.86608 0.17990 -0.05000
C 	C 	0.31060 0.86826 0.05170 0.02300
H 	H 	0.38750 0.87340 0.03590 0.07500
C 	C 	0.38630 0.83365 0.23100 0.39900
C 	C 	0.66690 0.89997 0.18950 0.05400
H 	H 	0.73050 0.91440 0.18200 0.02500
C 	C 	0.23490 0.89308 0.07480 -0.06700
C 	C 	0.54370 0.94866 0.22340 0.48200
C 	C 	0.08620 0.85306 0.09970 -0.02500
H 	H 	0.24800 0.83410 0.27400 0.30300
H 	H 	0.95200 0.80800 0.09600 0.12700
Gd	Gd	0.76861 0.48555 0.21280 1.44100
O 	O 	0.78970 0.34780 0.25060 -0.48000
O 	O 	0.94190 0.45923 0.22710 -0.46900
C 	C 	0.05720 0.41230 0.21020 -0.16100
C 	C 	0.29280 0.35110 0.16050 0.14200
O 	O 	0.96260 0.31484 0.03160 -0.31300
O 	O 	0.71070 0.44835 0.11350 -0.39300
N 	N 	0.38660 0.36861 0.13730 -0.13000
O 	O 	0.81770 0.28229 0.00280 -0.32700
C 	C 	0.96490 0.39130 0.22310 0.08600
H 	H 	0.89120 0.39980 0.23740 0.03800
O 	O 	0.89810 0.30442 0.22500 -0.29700
O 	O 	0.86450 0.43672 0.03960 -0.26900
N 	N 	0.31410 0.31990 0.16530 -0.08900
C 	C 	0.77290 0.42849 0.07470 0.35600
O 	O 	0.13290 0.46531 0.23090 -0.49000
C 	C 	0.98120 0.35760 0.21500 -0.12300
C 	C 	0.66070 0.32858 0.07480 0.01500
H 	H 	0.63470 0.30650 0.07330 0.03700
C 	C 	0.62280 0.38578 0.09840 0.01800
H 	H 	0.57120 0.40280 0.11350 0.05800
C 	C 	0.46820 0.34532 0.12560 0.13100
C 	C 	0.08770 0.34527 0.19280 0.04000
H 	H 	0.09720 0.32230 0.18630 0.04400
N 	N 	0.43010 0.31561 0.14310 -0.16000
C 	C 	0.85630 0.30957 0.02730 0.31500
C 	C 	0.77280 0.33601 0.05190 -0.05500
C 	C 	0.18120 0.36608 0.17990 -0.05000
C 	C 	0.81060 0.36826 0.05170 0.02300
H 	H 	0.88750 0.37340 0.03590 0.07500
C 	C 	0.88630 0.33365 0.23100 0.40000
C 	C 	0.16690 0.39997 0.18950 0.05400
H 	H 	0.23050 0.41440 0.18200 0.02500
C 	C 	0.73490 0.39308 0.07480 -0.06600
C 	C 	0.04370 0.44866 0.22340 0.48200
C 	C 	0.58620 0.35306 0.09970 -0.02400
H 	H 	0.74800 0.33410 0.27400 0.30300
H 	H 	0.45200 0.30800 0.09600 0.12700
Gd	Gd	0.76861 0.98555 0.71280 1.41800
O 	O 	0.78970 0.84780 0.75060 -0.47900
O 	O 	0.94190 0.95923 0.72710 -0.46900
C 	C 	0.05720 0.91230 0.71020 -0.16500
C 	C 	0.29280 0.85110 0.66050 0.13200
O 	O 	0.96260 0.81484 0.53160 -0.35500
O 	O 	0.71070 0.94835 0.61350 -0.40300
N 	N 	0.38660 0.86861 0.63730 -0.13900
O 	O 	0.81770 0.78229 0.50280 -0.37000
C 	C 	0.96490 0.89130 0.72310 0.08900
H 	H 	0.89120 0.89980 0.73740 0.03900
O 	O 	0.89810 0.80442 0.72500 -0.30000
O 	O 	0.86450 0.93672 0.53960 -0.29500
N 	N 	0.31410 0.81990 0.66530 -0.09800
C 	C 	0.77290 0.92849 0.57470 0.35500
O 	O 	0.13290 0.96531 0.73090 -0.49300
C 	C 	0.98120 0.85760 0.71500 -0.12400
C 	C 	0.66070 0.82858 0.57480 0.01700
H 	H 	0.63470 0.80650 0.57330 0.02400
C 	C 	0.62280 0.88578 0.59840 0.01700
H 	H 	0.57120 0.90280 0.61350 0.04900
C 	C 	0.46820 0.84532 0.62560 0.12200
C 	C 	0.08770 0.84527 0.69280 0.04000
H 	H 	0.09720 0.82230 0.68630 0.03600
N 	N 	0.43010 0.81561 0.64310 -0.15800
C 	C 	0.85630 0.80957 0.52730 0.32000
C 	C 	0.77280 0.83601 0.55190 -0.07600
C 	C 	0.18120 0.86608 0.67990 -0.05900
C 	C 	0.81060 0.86826 0.55170 0.02400
H 	H 	0.88750 0.87340 0.53590 0.06400
C 	C 	0.88630 0.83365 0.73100 0.40100
C 	C 	0.16690 0.89997 0.68950 0.05300
H 	H 	0.23050 0.91440 0.68200 0.01800
C 	C 	0.73490 0.89308 0.57480 -0.08300
C 	C 	0.04370 0.94866 0.72340 0.47800
C 	C 	0.58620 0.85306 0.59970 -0.03900
H 	H 	0.74800 0.83410 0.77400 0.30400
H 	H 	0.45200 0.80800 0.59600 0.10500
Gd	Gd	0.98139 0.73555 0.96280 1.32500
O 	O 	0.96030 0.59780 0.00060 -0.38600
O 	O 	0.80810 0.70923 0.97710 -0.47200
C 	C 	0.69280 0.66230 0.96020 -0.17000
C 	C 	0.45720 0.60110 0.91050 0.12000
O 	O 	0.78740 0.56484 0.78160 -0.35600
O 	O 	0.03930 0.69835 0.86350 -0.41000
N 	N 	0.36340 0.61861 0.88730 -0.14500
O 	O 	0.93230 0.53229 0.75280 -0.37300
C 	C 	0.78510 0.64130 0.97310 0.06800
H 	H 	0.85880 0.64980 0.98740 0.02100
O 	O 	0.85190 0.55442 0.97500 -0.30400
O 	O 	0.88550 0.68672 0.78960 -0.29400
N 	N 	0.43590 0.56990 0.91530 -0.10700
C 	C 	0.97710 0.67849 0.82470 0.35600
O 	O 	0.61710 0.71531 0.98090 -0.50100
C 	C 	0.76880 0.60760 0.96500 -0.11300
C 	C 	0.08930 0.57858 0.82480 0.01500
H 	H 	0.11530 0.55650 0.82330 0.01900
C 	C 	0.12720 0.63578 0.84840 0.01400
H 	H 	0.17880 0.65280 0.86350 0.03700
C 	C 	0.28180 0.59532 0.87560 0.11200
C 	C 	0.66230 0.59527 0.94280 0.02400
H 	H 	0.65280 0.57230 0.93630 0.03400
N 	N 	0.31990 0.56561 0.89310 -0.16800
C 	C 	0.89370 0.55957 0.77730 0.31900
C 	C 	0.97720 0.58601 0.80190 -0.08000
C 	C 	0.56880 0.61608 0.92990 -0.06300
C 	C 	0.93940 0.61826 0.80170 0.02500
H 	H 	0.86250 0.62340 0.78590 0.06400
C 	C 	0.86370 0.58365 0.98100 0.31100
C 	C 	0.58310 0.64997 0.93950 0.04100
H 	H 	0.51950 0.66440 0.93200 0.00900
C 	C 	0.01510 0.64308 0.82480 -0.09200
C 	C 	0.70630 0.69866 0.97340 0.46500
C 	C 	0.16380 0.60306 0.84970 -0.05000
H 	H 	0.00200 0.58410 0.02400 0.28600
H 	H 	0.29800 0.55800 0.84600 0.10500
Gd	Gd	0.98139 0.23555 0.46280 1.42300
O 	O 	0.96030 0.09780 0.50060 -0.48000
O 	O 	0.80810 0.20923 0.47710 -0.46900
C 	C 	0.69280 0.16230 0.46020 -0.16500
C 	C 	0.45720 0.10110 0.41050 0.13200
O 	O 	0.78740 0.06484 0.28160 -0.35700
O 	O 	0.03930 0.19835 0.36350 -0.40200
N 	N 	0.36340 0.11861 0.38730 -0.13900
O 	O 	0.93230 0.03229 0.25280 -0.36800
C 	C 	0.78510 0.14130 0.47310 0.08800
H 	H 	0.85880 0.14980 0.48740 0.03800
O 	O 	0.85190 0.05442 0.47500 -0.30100
O 	O 	0.88550 0.18672 0.28960 -0.29400
N 	N 	0.43590 0.06990 0.41530 -0.09800
C 	C 	0.97710 0.17849 0.32470 0.35300
O 	O 	0.61710 0.21531 0.48090 -0.49200
C 	C 	0.76880 0.10760 0.46500 -0.12600
C 	C 	0.08930 0.07858 0.32480 0.01800
H 	H 	0.11530 0.05650 0.32330 0.02400
C 	C 	0.12720 0.13578 0.34840 0.01600
H 	H 	0.17880 0.15280 0.36350 0.04900
C 	C 	0.28180 0.09532 0.37560 0.12100
C 	C 	0.66230 0.09527 0.44280 0.04100
H 	H 	0.65280 0.07230 0.43630 0.03700
N 	N 	0.31990 0.06561 0.39310 -0.15800
C 	C 	0.89370 0.05957 0.27730 0.32000
C 	C 	0.97720 0.08601 0.30190 -0.07500
C 	C 	0.56880 0.11608 0.42990 -0.05900
C 	C 	0.93940 0.11826 0.30170 0.02200
H 	H 	0.86250 0.12340 0.28590 0.06400
C 	C 	0.86370 0.08365 0.48100 0.40200
C 	C 	0.58310 0.14997 0.43950 0.05300
H 	H 	0.51950 0.16440 0.43200 0.01700
C 	C 	0.01510 0.14308 0.32480 -0.08100
C 	C 	0.70630 0.19866 0.47340 0.47800
C 	C 	0.16380 0.10306 0.34970 -0.03800
H 	H 	0.00200 0.08410 0.52400 0.30400
H 	H 	0.29800 0.05800 0.34600 0.10500
Gd	Gd	0.48139 0.73555 0.46280 1.42500
O 	O 	0.46030 0.59780 0.50060 -0.47900
O 	O 	0.30810 0.70923 0.47710 -0.46900
C 	C 	0.19280 0.66230 0.46020 -0.16500
C 	C 	0.95720 0.60110 0.41050 0.13300
O 	O 	0.28740 0.56484 0.28160 -0.35700
O 	O 	0.53930 0.69835 0.36350 -0.40300
N 	N 	0.86340 0.61861 0.38730 -0.13900
O 	O 	0.43230 0.53229 0.25280 -0.36800
C 	C 	0.28510 0.64130 0.47310 0.08800
H 	H 	0.35880 0.64980 0.48740 0.03800
O 	O 	0.35190 0.55442 0.47500 -0.30100
O 	O 	0.38550 0.68672 0.28960 -0.29500
N 	N 	0.93590 0.56990 0.41530 -0.09800
C 	C 	0.47710 0.67849 0.32470 0.35500
O 	O 	0.11710 0.71531 0.48090 -0.49200
C 	C 	0.26880 0.60760 0.46500 -0.12600
C 	C 	0.58930 0.57858 0.32480 0.01800
H 	H 	0.61530 0.55650 0.32330 0.02400
C 	C 	0.62720 0.63578 0.34840 0.01700
H 	H 	0.67880 0.65280 0.36350 0.04800
C 	C 	0.78180 0.59532 0.37560 0.12100
C 	C 	0.16230 0.59527 0.44280 0.04200
H 	H 	0.15280 0.57230 0.43630 0.03600
N 	N 	0.81990 0.56561 0.39310 -0.15800
C 	C 	0.39370 0.55957 0.27730 0.32000
C 	C 	0.47720 0.58601 0.30190 -0.07500
C 	C 	0.06880 0.61608 0.42990 -0.06000
C 	C 	0.43940 0.61826 0.30170 0.02400
H 	H 	0.36250 0.62340 0.28590 0.06400
C 	C 	0.36370 0.58365 0.48100 0.40200
C 	C 	0.08310 0.64997 0.43950 0.05300
H 	H 	0.01950 0.66440 0.43200 0.01700
C 	C 	0.51510 0.64308 0.32480 -0.08300
C 	C 	0.20630 0.69866 0.47340 0.47800
C 	C 	0.66380 0.60306 0.34970 -0.03900
H 	H 	0.50200 0.58410 0.52400 0.30300
H 	H 	0.79800 0.55800 0.34600 0.10500
Gd	Gd	0.48139 0.23555 0.96280 1.32200
O 	O 	0.46030 0.09780 0.00060 -0.38500
O 	O 	0.30810 0.20923 0.97710 -0.47200
C 	C 	0.19280 0.16230 0.96020 -0.16900
C 	C 	0.95720 0.10110 0.91050 0.12000
O 	O 	0.28740 0.06484 0.78160 -0.35600
O 	O 	0.53930 0.19835 0.86350 -0.41000
N 	N 	0.86340 0.11861 0.88730 -0.14500
O 	O 	0.43230 0.03229 0.75280 -0.37300
C 	C 	0.28510 0.14130 0.97310 0.06800
H 	H 	0.35880 0.14980 0.98740 0.02100
O 	O 	0.35190 0.05442 0.97500 -0.30400
O 	O 	0.38550 0.18672 0.78960 -0.29300
N 	N 	0.93590 0.06990 0.91530 -0.10700
C 	C 	0.47710 0.17849 0.82470 0.35500
O 	O 	0.11710 0.21531 0.98090 -0.50100
C 	C 	0.26880 0.10760 0.96500 -0.11300
C 	C 	0.58930 0.07858 0.82480 0.01500
H 	H 	0.61530 0.05650 0.82330 0.01800
C 	C 	0.62720 0.13578 0.84840 0.01300
H 	H 	0.67880 0.15280 0.86350 0.03700
C 	C 	0.78180 0.09532 0.87560 0.11100
C 	C 	0.16230 0.09527 0.94280 0.02300
H 	H 	0.15280 0.07230 0.93630 0.03400
N 	N 	0.81990 0.06561 0.89310 -0.16800
C 	C 	0.39370 0.05957 0.77730 0.31900
C 	C 	0.47720 0.08601 0.80190 -0.08000
C 	C 	0.06880 0.11608 0.92990 -0.06200
C 	C 	0.43940 0.11826 0.80170 0.02400
H 	H 	0.36250 0.12340 0.78590 0.06400
C 	C 	0.36370 0.08365 0.98100 0.31000
C 	C 	0.08310 0.14997 0.93950 0.04100
H 	H 	0.01950 0.16440 0.93200 0.01000
C 	C 	0.51510 0.14308 0.82480 -0.09100
C 	C 	0.20630 0.19866 0.97340 0.46500
C 	C 	0.66380 0.10306 0.84970 -0.05000
H 	H 	0.50200 0.08410 0.02400 0.28700
H 	H 	0.79800 0.05800 0.84600 0.10500
Gd	Gd	0.51861 0.76445 0.96280 1.32200
O 	O 	0.53970 0.90220 0.00060 -0.38500
O 	O 	0.69190 0.79077 0.97710 -0.47200
C 	C 	0.80720 0.83770 0.96020 -0.16900
C 	C 	0.04280 0.89890 0.91050 0.12000
O 	O 	0.71260 0.93516 0.78160 -0.35600
O 	O 	0.46070 0.80165 0.86350 -0.41000
N 	N 	0.13660 0.88139 0.88730 -0.14500
O 	O 	0.56770 0.96771 0.75280 -0.37300
C 	C 	0.71490 0.85870 0.97310 0.06800
H 	H 	0.64120 0.85020 0.98740 0.02100
O 	O 	0.64810 0.94558 0.97500 -0.30400
O 	O 	0.61450 0.81328 0.78960 -0.29300
N 	N 	0.06410 0.93010 0.91530 -0.10700
C 	C 	0.52290 0.82151 0.82470 0.35500
O 	O 	0.88290 0.78469 0.98090 -0.50100
C 	C 	0.73120 0.89240 0.96500 -0.11300
C 	C 	0.41070 0.92142 0.82480 0.01500
H 	H 	0.38470 0.94350 0.82330 0.01800
C 	C 	0.37280 0.86422 0.84840 0.01300
H 	H 	0.32120 0.84720 0.86350 0.03700
C 	C 	0.21820 0.90468 0.87560 0.11100
C 	C 	0.83770 0.90473 0.94280 0.02300
H 	H 	0.84720 0.92770 0.93630 0.03400
N 	N 	0.18010 0.93439 0.89310 -0.16800
C 	C 	0.60630 0.94043 0.77730 0.31900
C 	C 	0.52280 0.91399 0.80190 -0.08000
C 	C 	0.93120 0.88392 0.92990 -0.06200
C 	C 	0.56060 0.88174 0.80170 0.02400
H 	H 	0.63750 0.87660 0.78590 0.06400
C 	C 	0.63630 0.91635 0.98100 0.31000
C 	C 	0.91690 0.85003 0.93950 0.04100
H 	H 	0.98050 0.83560 0.93200 0.01000
C 	C 	0.48490 0.85692 0.82480 -0.09100
C 	C 	0.79370 0.80134 0.97340 0.46500
C 	C 	0.33620 0.89694 0.84970 -0.05000
H 	H 	0.49800 0.91590 0.02400 0.28700
H 	H 	0.20200 0.94200 0.84600 0.10500
Gd	Gd	0.51861 0.26445 0.46280 1.42500
O 	O 	0.53970 0.40220 0.50060 -0.47900
O 	O 	0.69190 0.29077 0.47710 -0.46900
C 	C 	0.80720 0.33770 0.46020 -0.16500
C 	C 	0.04280 0.39890 0.41050 0.13300
O 	O 	0.71260 0.43516 0.28160 -0.35700
O 	O 	0.46070 0.30165 0.36350 -0.40300
N 	N 	0.13660 0.38139 0.38730 -0.13900
O 	O 	0.56770 0.46771 0.25280 -0.36800
C 	C 	0.71490 0.35870 0.47310 0.08800
H 	H 	0.64120 0.35020 0.48740 0.03800
O 	O 	0.64810 0.44558 0.47500 -0.30100
O 	O 	0.61450 0.31328 0.28960 -0.29500
N 	N 	0.06410 0.43010 0.41530 -0.09800
C 	C 	0.52290 0.32151 0.32470 0.35500
O 	O 	0.88290 0.28469 0.48090 -0.49200
C 	C 	0.73120 0.39240 0.46500 -0.12600
C 	C 	0.41070 0.42142 0.32480 0.01800
H 	H 	0.38470 0.44350 0.32330 0.02400
C 	C 	0.37280 0.36422 0.34840 0.01700
H 	H 	0.32120 0.34720 0.36350 0.04800
C 	C 	0.21820 0.40468 0.37560 0.12100
C 	C 	0.83770 0.40473 0.44280 0.04200
H 	H 	0.84720 0.42770 0.43630 0.03600
N 	N 	0.18010 0.43439 0.39310 -0.15800
C 	C 	0.60630 0.44043 0.27730 0.32000
C 	C 	0.52280 0.41399 0.30190 -0.07500
C 	C 	0.93120 0.38392 0.42990 -0.06000
C 	C 	0.56060 0.38174 0.30170 0.02400
H 	H 	0.63750 0.37660 0.28590 0.06400
C 	C 	0.63630 0.41635 0.48100 0.40200
C 	C 	0.91690 0.35003 0.43950 0.05300
H 	H 	0.98050 0.33560 0.43200 0.01700
C 	C 	0.48490 0.35692 0.32480 -0.08300
C 	C 	0.79370 0.30134 0.47340 0.47800
C 	C 	0.33620 0.39694 0.34970 -0.03900
H 	H 	0.49800 0.41590 0.52400 0.30300
H 	H 	0.20200 0.44200 0.34600 0.10500
Gd	Gd	0.01861 0.76445 0.46280 1.42300
O 	O 	0.03970 0.90220 0.50060 -0.48000
O 	O 	0.19190 0.79077 0.47710 -0.46900
C 	C 	0.30720 0.83770 0.46020 -0.16500
C 	C 	0.54280 0.89890 0.41050 0.13200
O 	O 	0.21260 0.93516 0.28160 -0.35700
O 	O 	0.96070 0.80165 0.36350 -0.40200
N 	N 	0.63660 0.88139 0.38730 -0.13900
O 	O 	0.06770 0.96771 0.25280 -0.36800
C 	C 	0.21490 0.85870 0.47310 0.08800
H 	H 	0.14120 0.85020 0.48740 0.03800
O 	O 	0.14810 0.94558 0.47500 -0.30100
O 	O 	0.11450 0.81328 0.28960 -0.29400
N 	N 	0.56410 0.93010 0.41530 -0.09800
C 	C 	0.02290 0.82151 0.32470 0.35300
O 	O 	0.38290 0.78469 0.48090 -0.49200
C 	C 	0.23120 0.89240 0.46500 -0.12600
C 	C 	0.91070 0.92142 0.32480 0.01800
H 	H 	0.88470 0.94350 0.32330 0.02400
C 	C 	0.87280 0.86422 0.34840 0.01600
H 	H 	0.82120 0.84720 0.36350 0.04900
C 	C 	0.71820 0.90468 0.37560 0.12100
C 	C 	0.33770 0.90473 0.44280 0.04100
H 	H 	0.34720 0.92770 0.43630 0.03700
N 	N 	0.68010 0.93439 0.39310 -0.15800
C 	C 	0.10630 0.94043 0.27730 0.32000
C 	C 	0.02280 0.91399 0.30190 -0.07500
C 	C 	0.43120 0.88392 0.42990 -0.05900
C 	C 	0.06060 0.88174 0.30170 0.02200
H 	H 	0.13750 0.87660 0.28590 0.06400
C 	C 	0.13630 0.91635 0.48100 0.40200
C 	C 	0.41690 0.85003 0.43950 0.05300
H 	H 	0.48050 0.83560 0.43200 0.01700
C 	C 	0.98490 0.85692 0.32480 -0.08100
C 	C 	0.29370 0.80134 0.47340 0.47800
C 	C 	0.83620 0.89694 0.34970 -0.03800
H 	H 	0.99800 0.91590 0.52400 0.30400
H 	H 	0.70200 0.94200 0.34600 0.10500
Gd	Gd	0.01861 0.26445 0.96280 1.32500
O 	O 	0.03970 0.40220 0.00060 -0.38600
O 	O 	0.19190 0.29077 0.97710 -0.47200
C 	C 	0.30720 0.33770 0.96020 -0.17000
C 	C 	0.54280 0.39890 0.91050 0.12000
O 	O 	0.21260 0.43516 0.78160 -0.35600
O 	O 	0.96070 0.30165 0.86350 -0.41000
N 	N 	0.63660 0.38139 0.88730 -0.14500
O 	O 	0.06770 0.46771 0.75280 -0.37300
C 	C 	0.21490 0.35870 0.97310 0.06800
H 	H 	0.14120 0.35020 0.98740 0.02100
O 	O 	0.14810 0.44558 0.97500 -0.30400
O 	O 	0.11450 0.31328 0.78960 -0.29400
N 	N 	0.56410 0.43010 0.91530 -0.10700
C 	C 	0.02290 0.32151 0.82470 0.35600
O 	O 	0.38290 0.28469 0.98090 -0.50100
C 	C 	0.23120 0.39240 0.96500 -0.11300
C 	C 	0.91070 0.42142 0.82480 0.01500
H 	H 	0.88470 0.44350 0.82330 0.01900
C 	C 	0.87280 0.36422 0.84840 0.01400
H 	H 	0.82120 0.34720 0.86350 0.03700
C 	C 	0.71820 0.40468 0.87560 0.11200
C 	C 	0.33770 0.40473 0.94280 0.02400
H 	H 	0.34720 0.42770 0.93630 0.03400
N 	N 	0.68010 0.43439 0.89310 -0.16800
C 	C 	0.10630 0.44043 0.77730 0.31900
C 	C 	0.02280 0.41399 0.80190 -0.08000
C 	C 	0.43120 0.38392 0.92990 -0.06300
C 	C 	0.06060 0.38174 0.80170 0.02500
H 	H 	0.13750 0.37660 0.78590 0.06400
C 	C 	0.13630 0.41635 0.98100 0.31100
C 	C 	0.41690 0.35003 0.93950 0.04100
H 	H 	0.48050 0.33560 0.93200 0.00900
C 	C 	0.98490 0.35692 0.82480 -0.09200
C 	C 	0.29370 0.30134 0.97340 0.46500
C 	C 	0.83620 0.39694 0.84970 -0.05000
H 	H 	0.99800 0.41590 0.02400 0.28600
H 	H 	0.70200 0.44200 0.84600 0.10500
