data_crystal

_cell_length_a 15.15890
_cell_length_b 16.86090
_cell_length_c 16.97000
_cell_angle_alpha 110.90200
_cell_angle_beta  92.49000
_cell_angle_gamma 98.55200

_symmetry_space_group_name_	'P 1'
_symmetry_space_group_name_H-M	'P 1'

loop_
_symmetry_equiv_pos_as_xyz
  x,y,z

loop_
_atom_site_label
_atom_site_type_symbol
_atom_site_fract_x
_atom_site_fract_y
_atom_site_fract_z
_atom_site_charge
Dy	Dy	0.05844 0.62189 0.02839 1.94900
Dy	Dy	0.01232 0.86119 0.14583 1.92600
Dy	Dy	0.95016 0.97072 0.38134 1.99500
O 	O 	0.92680 0.02890 0.70913 -0.54300
O 	O 	0.83570 0.06080 0.80940 -0.42100
O 	O 	0.20240 0.69560 0.12800 -0.38000
O 	O 	0.08210 0.75340 0.16426 -0.57900
O 	O 	0.07660 0.96460 0.46170 -0.57800
O 	O 	0.17500 0.96250 0.56000 -0.41900
O 	O 	0.03550 0.01430 0.84500 -0.49700
O 	O 	0.09720 0.98030 0.72210 -0.49000
O 	O 	0.07410 0.85070 0.02388 -0.51800
O 	O 	0.12130 0.72400 0.97490 -0.47800
O 	O 	0.99830 0.43950 0.11590 -0.45800
O 	O 	0.06670 0.57540 0.14220 -0.48500
O 	O 	0.86340 0.81580 0.07150 -0.42400
O 	O 	0.94740 0.71460 0.03460 -0.53900
O 	O 	0.19240 0.13110 0.68990 -0.39500
O 	O 	0.07000 0.16440 0.74877 -0.58000
O 	O 	0.07790 0.46350 0.96650 -0.55300
O 	O 	0.18430 0.56470 0.96040 -0.40800
O 	O 	0.92410 0.84970 0.42660 -0.48100
O 	O 	0.98740 0.88250 0.55970 -0.50200
N 	N 	0.46970 0.87750 0.47890 -0.22500
H 	H 	0.44850 0.91330 0.52240 0.13100
N 	N 	0.48050 0.78590 0.35320 -0.08800
N 	N 	0.56180 0.80210 0.39950 -0.08500
N 	N 	0.13720 0.54330 0.56210 -0.09000
N 	N 	0.14400 0.59130 0.64850 -0.09400
N 	N 	0.09890 0.66600 0.57650 -0.22400
H 	H 	0.08130 0.70820 0.56450 0.13100
N 	N 	0.49160 0.35210 0.79890 -0.08800
N 	N 	0.57760 0.39820 0.81690 -0.08700
N 	N 	0.48150 0.48230 0.87950 -0.22400
H 	H 	0.46050 0.52840 0.91020 0.13100
C 	C 	0.84700 0.02160 0.73320 0.37700
C 	C 	0.76890 0.97140 0.67010 -0.12900
C 	C 	0.78250 0.91660 0.58980 0.05700
H 	H 	0.84120 0.90570 0.57820 0.01600
C 	C 	0.71200 0.87800 0.52680 -0.09800
H 	H 	0.72190 0.84080 0.47220 0.08400
C 	C 	0.62530 0.89450 0.54450 0.02800
C 	C 	0.61180 0.94690 0.62540 -0.09400
H 	H 	0.55300 0.95690 0.63800 0.06900
C 	C 	0.68250 0.98470 0.68750 0.04800
H 	H 	0.67230 0.02010 0.74280 0.03400
C 	C 	0.55170 0.85800 0.47540 0.12000
C 	C 	0.42640 0.83080 0.40190 0.15300
C 	C 	0.33370 0.83170 0.37700 -0.07500
C 	C 	0.29360 0.78630 0.29420 0.04200
H 	H 	0.32720 0.75370 0.25240 0.04800
C 	C 	0.20380 0.78870 0.27250 -0.15300
C 	C 	0.16300 0.74340 0.18340 0.39400
C 	C 	0.15410 0.83500 0.33480 0.10400
H 	H 	0.09260 0.83460 0.32090 -0.02600
C 	C 	0.19420 0.88160 0.41680 -0.16400
C 	C 	0.14690 0.93850 0.48310 0.40600
C 	C 	0.28350 0.87980 0.43760 0.04900
H 	H 	0.31070 0.91170 0.49380 0.03100
C 	C 	0.10050 0.79040 0.96620 0.48900
C 	C 	0.10450 0.79970 0.88170 -0.16800
C 	C 	0.09070 0.87560 0.87420 0.10700
H 	H 	0.08070 0.92230 0.92260 0.02800
C 	C 	0.09140 0.88380 0.79530 -0.16300
C 	C 	0.07340 0.96610 0.78720 0.47500
C 	C 	0.10420 0.81600 0.72420 0.06400
H 	H 	0.10490 0.82220 0.67080 0.02400
C 	C 	0.11630 0.73720 0.73130 -0.08400
C 	C 	0.11720 0.72970 0.81020 0.06300
H 	H 	0.12640 0.67730 0.81570 0.03600
C 	C 	0.12140 0.66510 0.65360 0.15700
C 	C 	0.10920 0.58860 0.52180 0.12200
C 	C 	0.09160 0.56750 0.42940 0.03200
C 	C 	0.07740 0.48150 0.37130 -0.09600
H 	H 	0.08000 0.43600 0.39150 0.07700
C 	C 	0.05970 0.46260 0.28590 0.06500
H 	H 	0.05040 0.40450 0.24730 0.02000
C 	C 	0.05550 0.52890 0.25640 -0.15400
C 	C 	0.03820 0.51360 0.16510 0.44600
C 	C 	0.07210 0.61450 0.31350 0.06000
H 	H 	0.07180 0.66000 0.29290 0.02300
C 	C 	0.08880 0.63350 0.39980 -0.09600
H 	H 	0.09820 0.69170 0.43840 0.06700
C 	C 	0.87120 0.73930 0.02970 0.38900
C 	C 	0.79220 0.67670 0.97850 -0.14000
C 	C 	0.80320 0.59590 0.92130 0.05500
H 	H 	0.86190 0.58490 0.90940 0.01300
C 	C 	0.72930 0.53150 0.88180 -0.09800
H 	H 	0.73740 0.47710 0.84280 0.08100
C 	C 	0.64370 0.54720 0.89970 0.02500
C 	C 	0.63250 0.62940 0.95440 -0.08900
H 	H 	0.57390 0.64140 0.96460 0.06700
C 	C 	0.70620 0.69270 0.99320 0.03800
H 	H 	0.69800 0.74790 0.03040 0.04100
C 	C 	0.56740 0.47610 0.86420 0.12100
C 	C 	0.43590 0.40350 0.83780 0.15400
C 	C 	0.33870 0.37780 0.83540 -0.07300
C 	C 	0.29460 0.29590 0.78830 0.04400
H 	H 	0.32690 0.25360 0.75560 0.04800
C 	C 	0.20110 0.27480 0.78870 -0.14800
C 	C 	0.15350 0.18470 0.73920 0.40200
C 	C 	0.15420 0.33700 0.83500 0.10600
H 	H 	0.09090 0.32320 0.83330 -0.01900
C 	C 	0.19850 0.41960 0.88400 -0.15600
C 	C 	0.15180 0.48660 0.93940 0.40700
C 	C 	0.29080 0.43950 0.88320 0.05100
H 	H 	0.32160 0.49610 0.91580 0.03200
C 	C 	0.95170 0.83020 0.48750 0.52900
H 	H 	0.94490 0.77050 0.47820 -0.12700
Dy	Dy	0.94156 0.37811 0.97161 1.95000
Dy	Dy	0.98768 0.13881 0.85417 1.92700
Dy	Dy	0.04984 0.02928 0.61866 1.99600
O 	O 	0.07320 0.97110 0.29087 -0.54200
O 	O 	0.16430 0.93920 0.19060 -0.42100
O 	O 	0.79760 0.30440 0.87200 -0.38000
O 	O 	0.91790 0.24660 0.83574 -0.57900
O 	O 	0.92340 0.03540 0.53830 -0.57800
O 	O 	0.82500 0.03750 0.44000 -0.41900
O 	O 	0.96450 0.98570 0.15500 -0.49700
O 	O 	0.90280 0.01970 0.27790 -0.49000
O 	O 	0.92590 0.14930 0.97612 -0.51800
O 	O 	0.87870 0.27600 0.02510 -0.47800
O 	O 	0.00170 0.56050 0.88410 -0.45800
O 	O 	0.93330 0.42460 0.85780 -0.48500
O 	O 	0.13660 0.18420 0.92850 -0.42400
O 	O 	0.05260 0.28540 0.96540 -0.53900
O 	O 	0.80760 0.86890 0.31010 -0.39500
O 	O 	0.93000 0.83560 0.25123 -0.58000
O 	O 	0.92210 0.53650 0.03350 -0.55300
O 	O 	0.81570 0.43530 0.03960 -0.40800
O 	O 	0.07590 0.15030 0.57340 -0.48100
O 	O 	0.01260 0.11750 0.44030 -0.50200
N 	N 	0.53030 0.12250 0.52110 -0.22500
H 	H 	0.55150 0.08670 0.47760 0.13100
N 	N 	0.51950 0.21410 0.64680 -0.08800
N 	N 	0.43820 0.19790 0.60050 -0.08500
N 	N 	0.86280 0.45670 0.43790 -0.09000
N 	N 	0.85600 0.40870 0.35150 -0.09400
N 	N 	0.90110 0.33400 0.42350 -0.22400
H 	H 	0.91870 0.29180 0.43550 0.13100
N 	N 	0.50840 0.64790 0.20110 -0.08800
N 	N 	0.42240 0.60180 0.18310 -0.08700
N 	N 	0.51850 0.51770 0.12050 -0.22400
H 	H 	0.53950 0.47160 0.08980 0.13100
C 	C 	0.15300 0.97840 0.26680 0.37700
C 	C 	0.23110 0.02860 0.32990 -0.12900
C 	C 	0.21750 0.08340 0.41020 0.05700
H 	H 	0.15880 0.09430 0.42180 0.01600
C 	C 	0.28800 0.12200 0.47320 -0.09800
H 	H 	0.27810 0.15920 0.52780 0.08400
C 	C 	0.37470 0.10550 0.45550 0.02800
C 	C 	0.38820 0.05310 0.37460 -0.09400
H 	H 	0.44700 0.04310 0.36200 0.06900
C 	C 	0.31750 0.01530 0.31250 0.04800
H 	H 	0.32770 0.97990 0.25720 0.03400
C 	C 	0.44830 0.14200 0.52460 0.12000
C 	C 	0.57360 0.16920 0.59810 0.15300
C 	C 	0.66630 0.16830 0.62300 -0.07500
C 	C 	0.70640 0.21370 0.70580 0.04200
H 	H 	0.67280 0.24630 0.74760 0.04800
C 	C 	0.79620 0.21130 0.72750 -0.15300
C 	C 	0.83700 0.25660 0.81660 0.39400
C 	C 	0.84590 0.16500 0.66520 0.10400
H 	H 	0.90740 0.16540 0.67910 -0.02600
C 	C 	0.80580 0.11840 0.58320 -0.16400
C 	C 	0.85310 0.06150 0.51690 0.40600
C 	C 	0.71650 0.12020 0.56240 0.04900
H 	H 	0.68930 0.08830 0.50620 0.03100
C 	C 	0.89950 0.20960 0.03380 0.48900
C 	C 	0.89550 0.20030 0.11830 -0.16800
C 	C 	0.90930 0.12440 0.12580 0.10700
H 	H 	0.91930 0.07770 0.07740 0.02800
C 	C 	0.90860 0.11620 0.20470 -0.16300
C 	C 	0.92660 0.03390 0.21280 0.47500
C 	C 	0.89580 0.18400 0.27580 0.06400
H 	H 	0.89510 0.17780 0.32920 0.02400
C 	C 	0.88370 0.26280 0.26870 -0.08400
C 	C 	0.88280 0.27030 0.18980 0.06300
H 	H 	0.87360 0.32270 0.18430 0.03600
C 	C 	0.87860 0.33490 0.34640 0.15700
C 	C 	0.89080 0.41140 0.47820 0.12200
C 	C 	0.90840 0.43250 0.57060 0.03200
C 	C 	0.92260 0.51850 0.62870 -0.09600
H 	H 	0.92000 0.56400 0.60850 0.07700
C 	C 	0.94030 0.53740 0.71410 0.06500
H 	H 	0.94960 0.59550 0.75270 0.02000
C 	C 	0.94450 0.47110 0.74360 -0.15400
C 	C 	0.96180 0.48640 0.83490 0.44600
C 	C 	0.92790 0.38550 0.68650 0.06000
H 	H 	0.92820 0.34000 0.70710 0.02300
C 	C 	0.91120 0.36650 0.60020 -0.09600
H 	H 	0.90180 0.30830 0.56160 0.06700
C 	C 	0.12880 0.26070 0.97030 0.38900
C 	C 	0.20780 0.32330 0.02150 -0.14000
C 	C 	0.19680 0.40410 0.07870 0.05500
H 	H 	0.13810 0.41510 0.09060 0.01300
C 	C 	0.27070 0.46850 0.11820 -0.09800
H 	H 	0.26260 0.52290 0.15720 0.08100
C 	C 	0.35630 0.45280 0.10030 0.02500
C 	C 	0.36750 0.37060 0.04560 -0.08900
H 	H 	0.42610 0.35860 0.03540 0.06700
C 	C 	0.29380 0.30730 0.00680 0.03800
H 	H 	0.30200 0.25210 0.96960 0.04100
C 	C 	0.43260 0.52390 0.13580 0.12100
C 	C 	0.56410 0.59650 0.16220 0.15400
C 	C 	0.66130 0.62220 0.16460 -0.07300
C 	C 	0.70540 0.70410 0.21170 0.04400
H 	H 	0.67310 0.74640 0.24440 0.04800
C 	C 	0.79890 0.72520 0.21130 -0.14800
C 	C 	0.84650 0.81530 0.26080 0.40200
C 	C 	0.84580 0.66300 0.16500 0.10600
H 	H 	0.90910 0.67680 0.16670 -0.01900
C 	C 	0.80150 0.58040 0.11600 -0.15600
C 	C 	0.84820 0.51340 0.06060 0.40700
C 	C 	0.70920 0.56050 0.11680 0.05100
H 	H 	0.67840 0.50390 0.08420 0.03200
C 	C 	0.04830 0.16980 0.51250 0.52900
H 	H 	0.05510 0.22950 0.52180 -0.12700
