data_crystal

_cell_length_a 11.52930
_cell_length_b 40.47100
_cell_length_c 17.13040
_cell_angle_alpha 90.00000
_cell_angle_beta  90.00000
_cell_angle_gamma 90.00000

_symmetry_space_group_name_	'P 1'
_symmetry_space_group_name_H-M	'P 1'

loop_
_symmetry_equiv_pos_as_xyz
  x,y,z

loop_
_atom_site_label
_atom_site_type_symbol
_atom_site_fract_x
_atom_site_fract_y
_atom_site_fract_z
_atom_site_charge
Dy	Dy	0.22966 0.51460 0.74892 1.60900
O 	O 	0.79360 0.34613 0.78610 -0.47900
H 	H 	0.75430 0.33310 0.81360 0.29300
C 	C 	0.05950 0.41200 0.74770 -0.18900
O 	O 	0.71370 0.44906 0.65070 -0.44200
O 	O 	0.96600 0.31529 0.56590 -0.38200
C 	C 	0.29860 0.35120 0.69750 0.15700
C 	C 	0.96720 0.38970 0.75950 0.11000
H 	H 	0.89250 0.39800 0.77250 0.02900
O 	O 	0.90220 0.30260 0.75960 -0.30800
C 	C 	0.98400 0.35640 0.75230 -0.15100
N 	N 	0.38990 0.36890 0.67380 -0.14600
O 	O 	0.13290 0.46599 0.76790 -0.53000
C 	C 	0.66530 0.32820 0.61010 0.02400
H 	H 	0.63900 0.30600 0.60870 0.02400
C 	C 	0.85950 0.30970 0.56110 0.33400
O 	O 	0.86810 0.43823 0.57880 -0.30300
O 	O 	0.94140 0.45916 0.76160 -0.52100
C 	C 	0.47250 0.34560 0.66230 0.13000
C 	C 	0.09210 0.34420 0.72980 0.06200
H 	H 	0.10250 0.32110 0.72250 0.01400
N 	N 	0.43540 0.31580 0.67790 -0.09800
C 	C 	0.77640 0.42930 0.61200 0.36800
C 	C 	0.62770 0.38590 0.63550 0.02500
H 	H 	0.57690 0.40290 0.65240 0.04300
C 	C 	0.18490 0.36570 0.71780 -0.09100
C 	C 	0.16830 0.39910 0.72590 0.08200
H 	H 	0.23110 0.41380 0.71660 0.00500
C 	C 	0.73870 0.39380 0.61060 -0.09700
C 	C 	0.89020 0.33230 0.76720 0.40900
C 	C 	0.81370 0.36890 0.58730 0.03400
H 	H 	0.89040 0.37410 0.57130 0.06000
N 	N 	0.32140 0.31960 0.70100 -0.17800
H 	H 	0.27340 0.30390 0.71530 0.11100
C 	C 	0.77650 0.33600 0.58720 -0.08500
C 	C 	0.04290 0.44850 0.75960 0.50800
O 	O 	0.82070 0.28279 0.53680 -0.40600
C 	C 	0.59080 0.35380 0.63580 -0.04000
Dy	Dy	0.22966 0.01460 0.24892 1.63600
O 	O 	0.79360 0.84613 0.28610 -0.48200
H 	H 	0.75430 0.83310 0.31360 0.29800
C 	C 	0.05950 0.91200 0.24770 -0.18900
O 	O 	0.71370 0.94906 0.15070 -0.43200
O 	O 	0.96600 0.81529 0.06590 -0.32900
C 	C 	0.29860 0.85120 0.19750 0.16100
C 	C 	0.96720 0.88970 0.25950 0.10800
H 	H 	0.89250 0.89800 0.27250 0.02900
O 	O 	0.90220 0.80260 0.25960 -0.30200
C 	C 	0.98400 0.85640 0.25230 -0.15200
N 	N 	0.38990 0.86890 0.17380 -0.13900
O 	O 	0.13290 0.96599 0.26790 -0.52800
C 	C 	0.66530 0.82820 0.11010 0.02200
H 	H 	0.63900 0.80600 0.10870 0.04300
C 	C 	0.85950 0.80970 0.06110 0.33000
O 	O 	0.86810 0.93823 0.07880 -0.28000
O 	O 	0.94140 0.95916 0.26160 -0.52300
C 	C 	0.47250 0.84560 0.16230 0.13900
C 	C 	0.09210 0.84420 0.22980 0.06400
H 	H 	0.10250 0.82110 0.22250 0.01900
N 	N 	0.43540 0.81580 0.17790 -0.09100
C 	C 	0.77640 0.92930 0.11200 0.37300
C 	C 	0.62770 0.88590 0.13550 0.02600
H 	H 	0.57690 0.90290 0.15240 0.05400
C 	C 	0.18490 0.86570 0.21780 -0.09000
C 	C 	0.16830 0.89910 0.22590 0.08000
H 	H 	0.23110 0.91380 0.21660 0.00900
C 	C 	0.73870 0.89380 0.11060 -0.07700
C 	C 	0.89020 0.83230 0.26720 0.41000
C 	C 	0.81370 0.86890 0.08730 0.03400
H 	H 	0.89040 0.87410 0.07130 0.07200
N 	N 	0.32140 0.81960 0.20100 -0.17700
H 	H 	0.27340 0.80390 0.21530 0.11700
C 	C 	0.77650 0.83600 0.08720 -0.06000
C 	C 	0.04290 0.94850 0.25960 0.51000
O 	O 	0.82070 0.78279 0.03680 -0.33500
C 	C 	0.59080 0.85380 0.13580 -0.02000
Dy	Dy	0.72966 0.51460 0.24892 1.63600
O 	O 	0.29360 0.34613 0.28610 -0.48200
H 	H 	0.25430 0.33310 0.31360 0.29800
C 	C 	0.55950 0.41200 0.24770 -0.18900
O 	O 	0.21370 0.44906 0.15070 -0.43200
O 	O 	0.46600 0.31529 0.06590 -0.32800
C 	C 	0.79860 0.35120 0.19750 0.16100
C 	C 	0.46720 0.38970 0.25950 0.10800
H 	H 	0.39250 0.39800 0.27250 0.02900
O 	O 	0.40220 0.30260 0.25960 -0.30200
C 	C 	0.48400 0.35640 0.25230 -0.15000
N 	N 	0.88990 0.36890 0.17380 -0.13900
O 	O 	0.63290 0.46599 0.26790 -0.52800
C 	C 	0.16530 0.32820 0.11010 0.02200
H 	H 	0.13900 0.30600 0.10870 0.04200
C 	C 	0.35950 0.30970 0.06110 0.33000
O 	O 	0.36810 0.43823 0.07880 -0.28000
O 	O 	0.44140 0.45916 0.26160 -0.52300
C 	C 	0.97250 0.34560 0.16230 0.14000
C 	C 	0.59210 0.34420 0.22980 0.06200
H 	H 	0.60250 0.32110 0.22250 0.01900
N 	N 	0.93540 0.31580 0.17790 -0.09100
C 	C 	0.27640 0.42930 0.11200 0.37300
C 	C 	0.12770 0.38590 0.13550 0.02700
H 	H 	0.07690 0.40290 0.15240 0.05300
C 	C 	0.68490 0.36570 0.21780 -0.09000
C 	C 	0.66830 0.39910 0.22590 0.08000
H 	H 	0.73110 0.41380 0.21660 0.00900
C 	C 	0.23870 0.39380 0.11060 -0.07700
C 	C 	0.39020 0.33230 0.26720 0.40900
C 	C 	0.31370 0.36890 0.08730 0.03500
H 	H 	0.39040 0.37410 0.07130 0.07200
N 	N 	0.82140 0.31960 0.20100 -0.17700
H 	H 	0.77340 0.30390 0.21530 0.11700
C 	C 	0.27650 0.33600 0.08720 -0.06000
C 	C 	0.54290 0.44850 0.25960 0.51000
O 	O 	0.32070 0.28279 0.03680 -0.33400
C 	C 	0.09080 0.35380 0.13580 -0.02200
Dy	Dy	0.72966 0.01460 0.74892 1.60800
O 	O 	0.29360 0.84613 0.78610 -0.48100
H 	H 	0.25430 0.83310 0.81360 0.29200
C 	C 	0.55950 0.91200 0.74770 -0.19000
O 	O 	0.21370 0.94906 0.65070 -0.44200
O 	O 	0.46600 0.81529 0.56590 -0.38300
C 	C 	0.79860 0.85120 0.69750 0.15700
C 	C 	0.46720 0.88970 0.75950 0.11000
H 	H 	0.39250 0.89800 0.77250 0.02900
O 	O 	0.40220 0.80260 0.75960 -0.30900
C 	C 	0.48400 0.85640 0.75230 -0.15300
N 	N 	0.88990 0.86890 0.67380 -0.14600
O 	O 	0.63290 0.96599 0.76790 -0.53000
C 	C 	0.16530 0.82820 0.61010 0.02400
H 	H 	0.13900 0.80600 0.60870 0.02500
C 	C 	0.35950 0.80970 0.56110 0.33400
O 	O 	0.36810 0.93823 0.57880 -0.30300
O 	O 	0.44140 0.95916 0.76160 -0.52200
C 	C 	0.97250 0.84560 0.66230 0.12900
C 	C 	0.59210 0.84420 0.72980 0.06400
H 	H 	0.60250 0.82110 0.72250 0.01400
N 	N 	0.93540 0.81580 0.67790 -0.09800
C 	C 	0.27640 0.92930 0.61200 0.36800
C 	C 	0.12770 0.88590 0.63550 0.02400
H 	H 	0.07690 0.90290 0.65240 0.04400
C 	C 	0.68490 0.86570 0.71780 -0.09200
C 	C 	0.66830 0.89910 0.72590 0.08300
H 	H 	0.73110 0.91380 0.71660 0.00500
C 	C 	0.23870 0.89380 0.61060 -0.09700
C 	C 	0.39020 0.83230 0.76720 0.41000
C 	C 	0.31370 0.86890 0.58730 0.03400
H 	H 	0.39040 0.87410 0.57130 0.06000
N 	N 	0.82140 0.81960 0.70100 -0.17800
H 	H 	0.77340 0.80390 0.71530 0.11100
C 	C 	0.27650 0.83600 0.58720 -0.08500
C 	C 	0.54290 0.94850 0.75960 0.50800
O 	O 	0.32070 0.78279 0.53680 -0.40600
C 	C 	0.09080 0.85380 0.63580 -0.03900
Dy	Dy	0.77034 0.48540 0.74892 1.60800
O 	O 	0.20640 0.65387 0.78610 -0.48000
H 	H 	0.24570 0.66690 0.81360 0.29200
C 	C 	0.94050 0.58800 0.74770 -0.19000
O 	O 	0.28630 0.55094 0.65070 -0.44200
O 	O 	0.03400 0.68471 0.56590 -0.38200
C 	C 	0.70140 0.64880 0.69750 0.15700
C 	C 	0.03280 0.61030 0.75950 0.11000
H 	H 	0.10750 0.60200 0.77250 0.02900
O 	O 	0.09780 0.69740 0.75960 -0.30800
C 	C 	0.01600 0.64360 0.75230 -0.15100
N 	N 	0.61010 0.63110 0.67380 -0.14600
O 	O 	0.86710 0.53401 0.76790 -0.53000
C 	C 	0.33470 0.67180 0.61010 0.02400
H 	H 	0.36100 0.69400 0.60870 0.02400
C 	C 	0.14050 0.69030 0.56110 0.33400
O 	O 	0.13190 0.56177 0.57880 -0.30300
O 	O 	0.05860 0.54084 0.76160 -0.52100
C 	C 	0.52750 0.65440 0.66230 0.13000
C 	C 	0.90790 0.65580 0.72980 0.06200
H 	H 	0.89750 0.67890 0.72250 0.01400
N 	N 	0.56460 0.68420 0.67790 -0.09800
C 	C 	0.22360 0.57070 0.61200 0.36800
C 	C 	0.37230 0.61410 0.63550 0.02500
H 	H 	0.42310 0.59710 0.65240 0.04300
C 	C 	0.81510 0.63430 0.71780 -0.09100
C 	C 	0.83170 0.60090 0.72590 0.08200
H 	H 	0.76890 0.58620 0.71660 0.00500
C 	C 	0.26130 0.60620 0.61060 -0.09700
C 	C 	0.10980 0.66770 0.76720 0.40900
C 	C 	0.18630 0.63110 0.58730 0.03400
H 	H 	0.10960 0.62590 0.57130 0.06000
N 	N 	0.67860 0.68040 0.70100 -0.17800
H 	H 	0.72660 0.69610 0.71530 0.11100
C 	C 	0.22350 0.66400 0.58720 -0.08500
C 	C 	0.95710 0.55150 0.75960 0.50800
O 	O 	0.17930 0.71721 0.53680 -0.40600
C 	C 	0.40920 0.64620 0.63580 -0.04000
Dy	Dy	0.77034 0.98540 0.24892 1.63600
O 	O 	0.20640 0.15387 0.28610 -0.48200
H 	H 	0.24570 0.16690 0.31360 0.29800
C 	C 	0.94050 0.08800 0.24770 -0.18900
O 	O 	0.28630 0.05094 0.15070 -0.43200
O 	O 	0.03400 0.18471 0.06590 -0.32900
C 	C 	0.70140 0.14880 0.19750 0.16100
C 	C 	0.03280 0.11030 0.25950 0.10800
H 	H 	0.10750 0.10200 0.27250 0.02900
O 	O 	0.09780 0.19740 0.25960 -0.30200
C 	C 	0.01600 0.14360 0.25230 -0.15200
N 	N 	0.61010 0.13110 0.17380 -0.13900
O 	O 	0.86710 0.03401 0.26790 -0.52800
C 	C 	0.33470 0.17180 0.11010 0.02200
H 	H 	0.36100 0.19400 0.10870 0.04300
C 	C 	0.14050 0.19030 0.06110 0.33000
O 	O 	0.13190 0.06177 0.07880 -0.28000
O 	O 	0.05860 0.04084 0.26160 -0.52300
C 	C 	0.52750 0.15440 0.16230 0.13900
C 	C 	0.90790 0.15580 0.22980 0.06400
H 	H 	0.89750 0.17890 0.22250 0.01900
N 	N 	0.56460 0.18420 0.17790 -0.09100
C 	C 	0.22360 0.07070 0.11200 0.37300
C 	C 	0.37230 0.11410 0.13550 0.02600
H 	H 	0.42310 0.09710 0.15240 0.05400
C 	C 	0.81510 0.13430 0.21780 -0.09000
C 	C 	0.83170 0.10090 0.22590 0.08000
H 	H 	0.76890 0.08620 0.21660 0.00900
C 	C 	0.26130 0.10620 0.11060 -0.07700
C 	C 	0.10980 0.16770 0.26720 0.41000
C 	C 	0.18630 0.13110 0.08730 0.03400
H 	H 	0.10960 0.12590 0.07130 0.07200
N 	N 	0.67860 0.18040 0.20100 -0.17700
H 	H 	0.72660 0.19610 0.21530 0.11700
C 	C 	0.22350 0.16400 0.08720 -0.06000
C 	C 	0.95710 0.05150 0.25960 0.51000
O 	O 	0.17930 0.21721 0.03680 -0.33500
C 	C 	0.40920 0.14620 0.13580 -0.02000
Dy	Dy	0.27034 0.48540 0.24892 1.63600
O 	O 	0.70640 0.65387 0.28610 -0.48200
H 	H 	0.74570 0.66690 0.31360 0.29800
C 	C 	0.44050 0.58800 0.24770 -0.18900
O 	O 	0.78630 0.55094 0.15070 -0.43200
O 	O 	0.53400 0.68471 0.06590 -0.32800
C 	C 	0.20140 0.64880 0.19750 0.16100
C 	C 	0.53280 0.61030 0.25950 0.10800
H 	H 	0.60750 0.60200 0.27250 0.02900
O 	O 	0.59780 0.69740 0.25960 -0.30200
C 	C 	0.51600 0.64360 0.25230 -0.15000
N 	N 	0.11010 0.63110 0.17380 -0.13900
O 	O 	0.36710 0.53401 0.26790 -0.52800
C 	C 	0.83470 0.67180 0.11010 0.02200
H 	H 	0.86100 0.69400 0.10870 0.04200
C 	C 	0.64050 0.69030 0.06110 0.33000
O 	O 	0.63190 0.56177 0.07880 -0.28000
O 	O 	0.55860 0.54084 0.26160 -0.52300
C 	C 	0.02750 0.65440 0.16230 0.14000
C 	C 	0.40790 0.65580 0.22980 0.06200
H 	H 	0.39750 0.67890 0.22250 0.01900
N 	N 	0.06460 0.68420 0.17790 -0.09100
C 	C 	0.72360 0.57070 0.11200 0.37300
C 	C 	0.87230 0.61410 0.13550 0.02700
H 	H 	0.92310 0.59710 0.15240 0.05300
C 	C 	0.31510 0.63430 0.21780 -0.09000
C 	C 	0.33170 0.60090 0.22590 0.08000
H 	H 	0.26890 0.58620 0.21660 0.00900
C 	C 	0.76130 0.60620 0.11060 -0.07700
C 	C 	0.60980 0.66770 0.26720 0.40900
C 	C 	0.68630 0.63110 0.08730 0.03500
H 	H 	0.60960 0.62590 0.07130 0.07200
N 	N 	0.17860 0.68040 0.20100 -0.17700
H 	H 	0.22660 0.69610 0.21530 0.11700
C 	C 	0.72350 0.66400 0.08720 -0.06000
C 	C 	0.45710 0.55150 0.25960 0.51000
O 	O 	0.67930 0.71721 0.03680 -0.33400
C 	C 	0.90920 0.64620 0.13580 -0.02200
Dy	Dy	0.27034 0.98540 0.74892 1.60800
O 	O 	0.70640 0.15387 0.78610 -0.48100
H 	H 	0.74570 0.16690 0.81360 0.29200
C 	C 	0.44050 0.08800 0.74770 -0.19000
O 	O 	0.78630 0.05094 0.65070 -0.44200
O 	O 	0.53400 0.18471 0.56590 -0.38300
C 	C 	0.20140 0.14880 0.69750 0.15700
C 	C 	0.53280 0.11030 0.75950 0.11000
H 	H 	0.60750 0.10200 0.77250 0.02900
O 	O 	0.59780 0.19740 0.75960 -0.30900
C 	C 	0.51600 0.14360 0.75230 -0.15300
N 	N 	0.11010 0.13110 0.67380 -0.14600
O 	O 	0.36710 0.03401 0.76790 -0.53000
C 	C 	0.83470 0.17180 0.61010 0.02400
H 	H 	0.86100 0.19400 0.60870 0.02500
C 	C 	0.64050 0.19030 0.56110 0.33400
O 	O 	0.63190 0.06177 0.57880 -0.30300
O 	O 	0.55860 0.04084 0.76160 -0.52200
C 	C 	0.02750 0.15440 0.66230 0.12900
C 	C 	0.40790 0.15580 0.72980 0.06400
H 	H 	0.39750 0.17890 0.72250 0.01400
N 	N 	0.06460 0.18420 0.67790 -0.09800
C 	C 	0.72360 0.07070 0.61200 0.36800
C 	C 	0.87230 0.11410 0.63550 0.02400
H 	H 	0.92310 0.09710 0.65240 0.04400
C 	C 	0.31510 0.13430 0.71780 -0.09200
C 	C 	0.33170 0.10090 0.72590 0.08300
H 	H 	0.26890 0.08620 0.71660 0.00500
C 	C 	0.76130 0.10620 0.61060 -0.09700
C 	C 	0.60980 0.16770 0.76720 0.41000
C 	C 	0.68630 0.13110 0.58730 0.03400
H 	H 	0.60960 0.12590 0.57130 0.06000
N 	N 	0.17860 0.18040 0.70100 -0.17800
H 	H 	0.22660 0.19610 0.71530 0.11100
C 	C 	0.72350 0.16400 0.58720 -0.08500
C 	C 	0.45710 0.05150 0.75960 0.50800
O 	O 	0.67930 0.21721 0.53680 -0.40600
C 	C 	0.90920 0.14620 0.63580 -0.03900
Dy	Dy	0.47966 0.73540 0.99892 1.34000
O 	O 	0.04360 0.90387 0.03610 -0.45400
H 	H 	0.00430 0.91690 0.06360 0.29400
C 	C 	0.30950 0.83800 0.99770 -0.41000
O 	O 	0.96370 0.80094 0.90070 -0.44300
O 	O 	0.21600 0.93471 0.81590 -0.39200
C 	C 	0.54860 0.89880 0.94750 0.13800
C 	C 	0.21720 0.86030 0.00950 0.26900
H 	H 	0.14250 0.85200 0.02250 -0.00100
O 	O 	0.15220 0.94740 0.00960 -0.25600
C 	C 	0.23400 0.89360 0.00230 -0.07500
N 	N 	0.63990 0.88110 0.92380 -0.15500
O 	O 	0.38290 0.78401 0.01790 -0.46400
C 	C 	0.91530 0.92180 0.86010 0.01900
H 	H 	0.88900 0.94400 0.85870 0.01400
C 	C 	0.10950 0.94030 0.81110 0.32900
O 	O 	0.11810 0.81177 0.82880 -0.30800
O 	O 	0.19140 0.79084 0.01160 -0.46500
C 	C 	0.72250 0.90440 0.91230 0.11500
C 	C 	0.34210 0.90580 0.97980 -0.05200
H 	H 	0.35250 0.92890 0.97250 0.02500
N 	N 	0.68540 0.93420 0.92790 -0.11400
C 	C 	0.02640 0.82070 0.86200 0.35900
C 	C 	0.87770 0.86410 0.88550 0.02000
H 	H 	0.82690 0.84710 0.90240 0.02600
C 	C 	0.43490 0.88430 0.96780 -0.10500
C 	C 	0.41830 0.85090 0.97590 0.13800
H 	H 	0.48110 0.83620 0.96660 -0.03900
C 	C 	0.98870 0.85620 0.86060 -0.11300
C 	C 	0.14020 0.91770 0.01720 0.40200
C 	C 	0.06370 0.88110 0.83730 0.02800
H 	H 	0.14040 0.87590 0.82130 0.05500
N 	N 	0.57140 0.93040 0.95100 -0.17900
H 	H 	0.52340 0.94610 0.96530 0.09100
C 	C 	0.02650 0.91400 0.83720 -0.10000
C 	C 	0.29290 0.80150 0.00960 0.61500
O 	O 	0.07070 0.96721 0.78680 -0.41200
C 	C 	0.84080 0.89620 0.88580 -0.05700
Dy	Dy	0.47966 0.23540 0.49892 1.62300
O 	O 	0.04360 0.40387 0.53610 -0.48100
H 	H 	0.00430 0.41690 0.56360 0.29800
C 	C 	0.30950 0.33800 0.49770 -0.19000
O 	O 	0.96370 0.30094 0.40070 -0.44200
O 	O 	0.21600 0.43471 0.31590 -0.38500
C 	C 	0.54860 0.39880 0.44750 0.15700
C 	C 	0.21720 0.36030 0.50950 0.11000
H 	H 	0.14250 0.35200 0.52250 0.03000
O 	O 	0.15220 0.44740 0.50960 -0.30700
C 	C 	0.23400 0.39360 0.50230 -0.15200
N 	N 	0.63990 0.38110 0.42380 -0.14700
O 	O 	0.38290 0.28401 0.51790 -0.52900
C 	C 	0.91530 0.42180 0.36010 0.02500
H 	H 	0.88900 0.44400 0.35870 0.02400
C 	C 	0.10950 0.44030 0.31110 0.33400
O 	O 	0.11810 0.31177 0.32880 -0.30200
O 	O 	0.19140 0.29084 0.51160 -0.52100
C 	C 	0.72250 0.40440 0.41230 0.12900
C 	C 	0.34210 0.40580 0.47980 0.06500
H 	H 	0.35250 0.42890 0.47250 0.01400
N 	N 	0.68540 0.43420 0.42790 -0.09800
C 	C 	0.02640 0.32070 0.36200 0.36500
C 	C 	0.87770 0.36410 0.38550 0.02400
H 	H 	0.82690 0.34710 0.40240 0.04300
C 	C 	0.43490 0.38430 0.46780 -0.09200
C 	C 	0.41830 0.35090 0.47590 0.08200
H 	H 	0.48110 0.33620 0.46660 0.00500
C 	C 	0.98870 0.35620 0.36060 -0.09500
C 	C 	0.14020 0.41770 0.51720 0.41200
C 	C 	0.06370 0.38110 0.33730 0.03100
H 	H 	0.14040 0.37590 0.32130 0.06000
N 	N 	0.57140 0.43040 0.45100 -0.17800
H 	H 	0.52340 0.44610 0.46530 0.11300
C 	C 	0.02650 0.41400 0.33720 -0.08500
C 	C 	0.29290 0.30150 0.50960 0.50900
O 	O 	0.07070 0.46721 0.28680 -0.40300
C 	C 	0.84080 0.39620 0.38580 -0.04000
Dy	Dy	0.97966 0.73540 0.49892 1.62000
O 	O 	0.54360 0.90387 0.53610 -0.48100
H 	H 	0.50430 0.91690 0.56360 0.29800
C 	C 	0.80950 0.83800 0.49770 -0.19100
O 	O 	0.46370 0.80094 0.40070 -0.44300
O 	O 	0.71600 0.93471 0.31590 -0.38500
C 	C 	0.04860 0.89880 0.44750 0.15800
C 	C 	0.71720 0.86030 0.50950 0.11000
H 	H 	0.64250 0.85200 0.52250 0.03000
O 	O 	0.65220 0.94740 0.50960 -0.30700
C 	C 	0.73400 0.89360 0.50230 -0.15300
N 	N 	0.13990 0.88110 0.42380 -0.14700
O 	O 	0.88290 0.78401 0.51790 -0.52900
C 	C 	0.41530 0.92180 0.36010 0.02500
H 	H 	0.38900 0.94400 0.35870 0.02500
C 	C 	0.60950 0.94030 0.31110 0.33400
O 	O 	0.61810 0.81177 0.32880 -0.30300
O 	O 	0.69140 0.79084 0.51160 -0.52100
C 	C 	0.22250 0.90440 0.41230 0.12900
C 	C 	0.84210 0.90580 0.47980 0.06500
H 	H 	0.85250 0.92890 0.47250 0.01400
N 	N 	0.18540 0.93420 0.42790 -0.09800
C 	C 	0.52640 0.82070 0.36200 0.36900
C 	C 	0.37770 0.86410 0.38550 0.02500
H 	H 	0.32690 0.84710 0.40240 0.04200
C 	C 	0.93490 0.88430 0.46780 -0.09300
C 	C 	0.91830 0.85090 0.47590 0.08300
H 	H 	0.98110 0.83620 0.46660 0.00400
C 	C 	0.48870 0.85620 0.36060 -0.09800
C 	C 	0.64020 0.91770 0.51720 0.41200
C 	C 	0.56370 0.88110 0.33730 0.03400
H 	H 	0.64040 0.87590 0.32130 0.05900
N 	N 	0.07140 0.93040 0.45100 -0.17900
H 	H 	0.02340 0.94610 0.46530 0.11300
C 	C 	0.52650 0.91400 0.33720 -0.08500
C 	C 	0.79290 0.80150 0.50960 0.50900
O 	O 	0.57070 0.96721 0.28680 -0.40300
C 	C 	0.34080 0.89620 0.38580 -0.04000
Dy	Dy	0.97966 0.23540 0.99892 1.34600
O 	O 	0.54360 0.40387 0.03610 -0.45300
H 	H 	0.50430 0.41690 0.06360 0.29500
C 	C 	0.80950 0.33800 0.99770 -0.40900
O 	O 	0.46370 0.30094 0.90070 -0.44200
O 	O 	0.71600 0.43471 0.81590 -0.39200
C 	C 	0.04860 0.39880 0.94750 0.13700
C 	C 	0.71720 0.36030 0.00950 0.26800
H 	H 	0.64250 0.35200 0.02250 -0.00100
O 	O 	0.65220 0.44740 0.00960 -0.25600
C 	C 	0.73400 0.39360 0.00230 -0.07400
N 	N 	0.13990 0.38110 0.92380 -0.15500
O 	O 	0.88290 0.28401 0.01790 -0.46500
C 	C 	0.41530 0.42180 0.86010 0.01900
H 	H 	0.38900 0.44400 0.85870 0.01400
C 	C 	0.60950 0.44030 0.81110 0.32900
O 	O 	0.61810 0.31177 0.82880 -0.30700
O 	O 	0.69140 0.29084 0.01160 -0.46400
C 	C 	0.22250 0.40440 0.91230 0.11500
C 	C 	0.84210 0.40580 0.97980 -0.05300
H 	H 	0.85250 0.42890 0.97250 0.02500
N 	N 	0.18540 0.43420 0.92790 -0.11400
C 	C 	0.52640 0.32070 0.86200 0.35700
C 	C 	0.37770 0.36410 0.88550 0.01900
H 	H 	0.32690 0.34710 0.90240 0.02600
C 	C 	0.93490 0.38430 0.96780 -0.10300
C 	C 	0.91830 0.35090 0.97590 0.13700
H 	H 	0.98110 0.33620 0.96660 -0.03800
C 	C 	0.48870 0.35620 0.86060 -0.11200
C 	C 	0.64020 0.41770 0.01720 0.40200
C 	C 	0.56370 0.38110 0.83730 0.02700
H 	H 	0.64040 0.37590 0.82130 0.05500
N 	N 	0.07140 0.43040 0.95100 -0.17900
H 	H 	0.02340 0.44610 0.96530 0.09100
C 	C 	0.52650 0.41400 0.83720 -0.10000
C 	C 	0.79290 0.30150 0.00960 0.61500
O 	O 	0.57070 0.46721 0.78680 -0.41200
C 	C 	0.34080 0.39620 0.88580 -0.05700
Dy	Dy	0.02034 0.76460 0.99892 1.34600
O 	O 	0.45640 0.59613 0.03610 -0.45300
H 	H 	0.49570 0.58310 0.06360 0.29500
C 	C 	0.19050 0.66200 0.99770 -0.40900
O 	O 	0.53630 0.69906 0.90070 -0.44200
O 	O 	0.28400 0.56529 0.81590 -0.39200
C 	C 	0.95140 0.60120 0.94750 0.13700
C 	C 	0.28280 0.63970 0.00950 0.26800
H 	H 	0.35750 0.64800 0.02250 -0.00100
O 	O 	0.34780 0.55260 0.00960 -0.25600
C 	C 	0.26600 0.60640 0.00230 -0.07400
N 	N 	0.86010 0.61890 0.92380 -0.15500
O 	O 	0.11710 0.71599 0.01790 -0.46500
C 	C 	0.58470 0.57820 0.86010 0.01900
H 	H 	0.61100 0.55600 0.85870 0.01400
C 	C 	0.39050 0.55970 0.81110 0.32900
O 	O 	0.38190 0.68823 0.82880 -0.30700
O 	O 	0.30860 0.70916 0.01160 -0.46400
C 	C 	0.77750 0.59560 0.91230 0.11500
C 	C 	0.15790 0.59420 0.97980 -0.05300
H 	H 	0.14750 0.57110 0.97250 0.02500
N 	N 	0.81460 0.56580 0.92790 -0.11400
C 	C 	0.47360 0.67930 0.86200 0.35700
C 	C 	0.62230 0.63590 0.88550 0.01900
H 	H 	0.67310 0.65290 0.90240 0.02600
C 	C 	0.06510 0.61570 0.96780 -0.10300
C 	C 	0.08170 0.64910 0.97590 0.13700
H 	H 	0.01890 0.66380 0.96660 -0.03800
C 	C 	0.51130 0.64380 0.86060 -0.11200
C 	C 	0.35980 0.58230 0.01720 0.40200
C 	C 	0.43630 0.61890 0.83730 0.02700
H 	H 	0.35960 0.62410 0.82130 0.05500
N 	N 	0.92860 0.56960 0.95100 -0.17900
H 	H 	0.97660 0.55390 0.96530 0.09100
C 	C 	0.47350 0.58600 0.83720 -0.10000
C 	C 	0.20710 0.69850 0.00960 0.61500
O 	O 	0.42930 0.53279 0.78680 -0.41200
C 	C 	0.65920 0.60380 0.88580 -0.05700
Dy	Dy	0.02034 0.26460 0.49892 1.62000
O 	O 	0.45640 0.09613 0.53610 -0.48100
H 	H 	0.49570 0.08310 0.56360 0.29800
C 	C 	0.19050 0.16200 0.49770 -0.19100
O 	O 	0.53630 0.19906 0.40070 -0.44300
O 	O 	0.28400 0.06529 0.31590 -0.38500
C 	C 	0.95140 0.10120 0.44750 0.15800
C 	C 	0.28280 0.13970 0.50950 0.11000
H 	H 	0.35750 0.14800 0.52250 0.03000
O 	O 	0.34780 0.05260 0.50960 -0.30700
C 	C 	0.26600 0.10640 0.50230 -0.15300
N 	N 	0.86010 0.11890 0.42380 -0.14700
O 	O 	0.11710 0.21599 0.51790 -0.52900
C 	C 	0.58470 0.07820 0.36010 0.02500
H 	H 	0.61100 0.05600 0.35870 0.02500
C 	C 	0.39050 0.05970 0.31110 0.33400
O 	O 	0.38190 0.18823 0.32880 -0.30300
O 	O 	0.30860 0.20916 0.51160 -0.52100
C 	C 	0.77750 0.09560 0.41230 0.12900
C 	C 	0.15790 0.09420 0.47980 0.06500
H 	H 	0.14750 0.07110 0.47250 0.01400
N 	N 	0.81460 0.06580 0.42790 -0.09800
C 	C 	0.47360 0.17930 0.36200 0.36900
C 	C 	0.62230 0.13590 0.38550 0.02500
H 	H 	0.67310 0.15290 0.40240 0.04200
C 	C 	0.06510 0.11570 0.46780 -0.09300
C 	C 	0.08170 0.14910 0.47590 0.08300
H 	H 	0.01890 0.16380 0.46660 0.00400
C 	C 	0.51130 0.14380 0.36060 -0.09800
C 	C 	0.35980 0.08230 0.51720 0.41200
C 	C 	0.43630 0.11890 0.33730 0.03400
H 	H 	0.35960 0.12410 0.32130 0.05900
N 	N 	0.92860 0.06960 0.45100 -0.17900
H 	H 	0.97660 0.05390 0.46530 0.11300
C 	C 	0.47350 0.08600 0.33720 -0.08500
C 	C 	0.20710 0.19850 0.50960 0.50900
O 	O 	0.42930 0.03279 0.28680 -0.40300
C 	C 	0.65920 0.10380 0.38580 -0.04000
Dy	Dy	0.52034 0.76460 0.49892 1.62300
O 	O 	0.95640 0.59613 0.53610 -0.48100
H 	H 	0.99570 0.58310 0.56360 0.29800
C 	C 	0.69050 0.66200 0.49770 -0.19000
O 	O 	0.03630 0.69906 0.40070 -0.44200
O 	O 	0.78400 0.56529 0.31590 -0.38500
C 	C 	0.45140 0.60120 0.44750 0.15700
C 	C 	0.78280 0.63970 0.50950 0.11000
H 	H 	0.85750 0.64800 0.52250 0.03000
O 	O 	0.84780 0.55260 0.50960 -0.30700
C 	C 	0.76600 0.60640 0.50230 -0.15200
N 	N 	0.36010 0.61890 0.42380 -0.14700
O 	O 	0.61710 0.71599 0.51790 -0.52900
C 	C 	0.08470 0.57820 0.36010 0.02500
H 	H 	0.11100 0.55600 0.35870 0.02400
C 	C 	0.89050 0.55970 0.31110 0.33400
O 	O 	0.88190 0.68823 0.32880 -0.30200
O 	O 	0.80860 0.70916 0.51160 -0.52100
C 	C 	0.27750 0.59560 0.41230 0.12900
C 	C 	0.65790 0.59420 0.47980 0.06500
H 	H 	0.64750 0.57110 0.47250 0.01400
N 	N 	0.31460 0.56580 0.42790 -0.09800
C 	C 	0.97360 0.67930 0.36200 0.36500
C 	C 	0.12230 0.63590 0.38550 0.02400
H 	H 	0.17310 0.65290 0.40240 0.04300
C 	C 	0.56510 0.61570 0.46780 -0.09200
C 	C 	0.58170 0.64910 0.47590 0.08200
H 	H 	0.51890 0.66380 0.46660 0.00500
C 	C 	0.01130 0.64380 0.36060 -0.09500
C 	C 	0.85980 0.58230 0.51720 0.41200
C 	C 	0.93630 0.61890 0.33730 0.03100
H 	H 	0.85960 0.62410 0.32130 0.06000
N 	N 	0.42860 0.56960 0.45100 -0.17800
H 	H 	0.47660 0.55390 0.46530 0.11300
C 	C 	0.97350 0.58600 0.33720 -0.08500
C 	C 	0.70710 0.69850 0.50960 0.50900
O 	O 	0.92930 0.53279 0.28680 -0.40300
C 	C 	0.15920 0.60380 0.38580 -0.04000
Dy	Dy	0.52034 0.26460 0.99892 1.34000
O 	O 	0.95640 0.09613 0.03610 -0.45400
H 	H 	0.99570 0.08310 0.06360 0.29400
C 	C 	0.69050 0.16200 0.99770 -0.41000
O 	O 	0.03630 0.19906 0.90070 -0.44300
O 	O 	0.78400 0.06529 0.81590 -0.39200
C 	C 	0.45140 0.10120 0.94750 0.13800
C 	C 	0.78280 0.13970 0.00950 0.26900
H 	H 	0.85750 0.14800 0.02250 -0.00100
O 	O 	0.84780 0.05260 0.00960 -0.25600
C 	C 	0.76600 0.10640 0.00230 -0.07500
N 	N 	0.36010 0.11890 0.92380 -0.15500
O 	O 	0.61710 0.21599 0.01790 -0.46400
C 	C 	0.08470 0.07820 0.86010 0.01900
H 	H 	0.11100 0.05600 0.85870 0.01400
C 	C 	0.89050 0.05970 0.81110 0.32900
O 	O 	0.88190 0.18823 0.82880 -0.30800
O 	O 	0.80860 0.20916 0.01160 -0.46500
C 	C 	0.27750 0.09560 0.91230 0.11500
C 	C 	0.65790 0.09420 0.97980 -0.05200
H 	H 	0.64750 0.07110 0.97250 0.02500
N 	N 	0.31460 0.06580 0.92790 -0.11400
C 	C 	0.97360 0.17930 0.86200 0.35900
C 	C 	0.12230 0.13590 0.88550 0.02000
H 	H 	0.17310 0.15290 0.90240 0.02600
C 	C 	0.56510 0.11570 0.96780 -0.10500
C 	C 	0.58170 0.14910 0.97590 0.13800
H 	H 	0.51890 0.16380 0.96660 -0.03900
C 	C 	0.01130 0.14380 0.86060 -0.11300
C 	C 	0.85980 0.08230 0.01720 0.40200
C 	C 	0.93630 0.11890 0.83730 0.02800
H 	H 	0.85960 0.12410 0.82130 0.05500
N 	N 	0.42860 0.06960 0.95100 -0.17900
H 	H 	0.47660 0.05390 0.96530 0.09100
C 	C 	0.97350 0.08600 0.83720 -0.10000
C 	C 	0.70710 0.19850 0.00960 0.61500
O 	O 	0.92930 0.03279 0.78680 -0.41200
C 	C 	0.15920 0.10380 0.88580 -0.05700
