data_crystal

_cell_length_a 35.06700
_cell_length_b 24.03500
_cell_length_c 26.08100
_cell_angle_alpha 90.00000
_cell_angle_beta  132.06800
_cell_angle_gamma 90.00000

_symmetry_space_group_name_	'P 1'
_symmetry_space_group_name_H-M	'P 1'

loop_
_symmetry_equiv_pos_as_xyz
  x,y,z

loop_
_atom_site_label
_atom_site_type_symbol
_atom_site_fract_x
_atom_site_fract_y
_atom_site_fract_z
_atom_site_charge
Gd	Gd	0.40547 0.23478 0.39978 1.53900
Gd	Gd	0.24023 0.26517 0.26238 1.53300
O 	O 	0.35720 0.17690 0.40920 -0.46500
O 	O 	0.27280 0.19170 0.34020 -0.47300
O 	O 	0.34320 0.79750 0.78590 -0.44900
O 	O 	0.25510 0.80080 0.71440 -0.44500
O 	O 	0.37280 0.31030 0.32700 -0.45500
O 	O 	0.28580 0.31860 0.24500 -0.45900
O 	O 	0.38630 0.70430 0.95130 -0.49900
O 	O 	0.30320 0.69550 0.86680 -0.45100
O 	O 	0.44090 0.14380 0.40660 -0.39000
O 	O 	0.45300 0.21080 0.36700 -0.44400
O 	O 	0.69670 0.85060 0.24880 -0.38000
O 	O 	0.69910 0.78400 0.31250 -0.34300
C 	C 	0.31240 0.16560 0.38450 0.49400
C 	C 	0.31080 0.12080 0.42310 -0.22600
C 	C 	0.30190 0.85070 0.68790 -0.16700
C 	C 	0.26740 0.11450 0.41330 0.13700
H 	H 	0.23898 0.13709 0.38176 -0.00700
C 	C 	0.34930 0.08340 0.46550 0.15700
H 	H 	0.37908 0.08744 0.47288 -0.01600
C 	C 	0.26560 0.07470 0.45040 -0.20200
H 	H 	0.23723 0.07469 0.44642 0.10500
C 	C 	0.34740 0.04210 0.49650 -0.20400
H 	H 	0.37395 0.01628 0.52182 0.10500
C 	C 	0.30200 0.03640 0.49120 0.12400
C 	C 	0.30300 0.99550 0.53020 -0.04900
C 	C 	0.30020 0.96160 0.56070 -0.03600
C 	C 	0.25350 0.90830 0.58330 -0.17600
H 	H 	0.22199 0.92222 0.54396 0.09300
C 	C 	0.34440 0.90220 0.65800 -0.16800
H 	H 	0.37481 0.91100 0.66869 0.09300
C 	C 	0.29790 0.92270 0.59840 0.11200
C 	C 	0.25610 0.87320 0.62670 0.09400
H 	H 	0.22550 0.86339 0.61505 0.00200
C 	C 	0.34500 0.86770 0.70230 0.09300
H 	H 	0.37659 0.85612 0.74352 0.01700
C 	C 	0.30220 0.81220 0.73440 0.42200
C 	C 	0.33100 0.33160 0.27130 0.47000
C 	C 	0.33680 0.37030 0.23380 -0.25600
C 	C 	0.29280 0.39250 0.17300 0.14900
H 	H 	0.26101 0.38211 0.15761 -0.01300
C 	C 	0.38060 0.38800 0.25200 0.20000
H 	H 	0.41068 0.37385 0.29331 -0.03200
C 	C 	0.29480 0.43170 0.13280 -0.23100
H 	H 	0.26551 0.45037 0.09547 0.11600
C 	C 	0.38610 0.42280 0.21900 -0.24400
H 	H 	0.41804 0.43594 0.23707 0.11400
C 	C 	0.33770 0.43950 0.15000 0.15100
C 	C 	0.34830 0.48250 0.11700 -0.03800
C 	C 	0.34700 0.51380 0.08030 -0.06000
C 	C 	0.34490 0.55590 0.03970 0.15300
C 	C 	0.30250 0.56810 0.97500 -0.23300
H 	H 	0.27251 0.54822 0.95400 0.11700
C 	C 	0.39080 0.58320 0.06840 -0.21800
H 	H 	0.42110 0.57326 0.11220 0.10400
C 	C 	0.30240 0.60940 0.93800 0.16500
H 	H 	0.27163 0.61951 0.89484 -0.01000
C 	C 	0.39160 0.62440 0.03240 0.15600
H 	H 	0.42164 0.64450 0.05373 -0.02200
C 	C 	0.34770 0.63620 0.96440 -0.25600
C 	C 	0.34800 0.68050 0.92790 0.50900
C 	C 	0.46130 0.16540 0.38480 0.38700
C 	C 	0.48310 0.12020 0.36870 -0.14100
C 	C 	0.50580 0.13850 0.34300 0.05400
H 	H 	0.50309 0.17593 0.33143 0.02000
C 	C 	0.48630 0.06690 0.38140 0.06800
H 	H 	0.47164 0.05471 0.39863 0.02000
C 	C 	0.53130 0.10400 0.33300 -0.13900
H 	H 	0.54889 0.11802 0.32043 0.08000
C 	C 	0.50990 0.02600 0.37160 -0.14400
H 	H 	0.51212 0.98884 0.38338 0.08000
C 	C 	0.53020 0.04590 0.34220 0.08100
C 	C 	0.55990 0.01140 0.33530 -0.03900
C 	C 	0.57950 0.97800 0.32550 -0.02100
C 	C 	0.60350 0.93960 0.31160 0.06100
C 	C 	0.62180 0.88960 0.34440 -0.10300
H 	H 	0.61534 0.87794 0.37200 0.07100
C 	C 	0.61690 0.95880 0.27370 -0.10800
H 	H 	0.60953 0.99517 0.25732 0.07400
C 	C 	0.65050 0.85520 0.33690 0.00300
H 	H 	0.66354 0.82115 0.35940 0.04500
C 	C 	0.64080 0.92290 0.26160 0.01600
H 	H 	0.64439 0.93267 0.23051 0.03700
C 	C 	0.65860 0.87450 0.29440 -0.06600
C 	C 	0.68540 0.83140 0.28210 0.26600
Gd	Gd	0.90547 0.73478 0.39978 1.53800
Gd	Gd	0.74023 0.76517 0.26238 1.53200
O 	O 	0.85720 0.67690 0.40920 -0.46600
O 	O 	0.77280 0.69170 0.34020 -0.47400
O 	O 	0.84320 0.29750 0.78590 -0.45000
O 	O 	0.75510 0.30080 0.71440 -0.44600
O 	O 	0.87280 0.81030 0.32700 -0.45600
O 	O 	0.78580 0.81860 0.24500 -0.46000
O 	O 	0.88630 0.20430 0.95130 -0.50000
O 	O 	0.80320 0.19550 0.86680 -0.45200
O 	O 	0.94090 0.64380 0.40660 -0.39000
O 	O 	0.95300 0.71080 0.36700 -0.44500
O 	O 	0.19670 0.35060 0.24880 -0.38000
O 	O 	0.19910 0.28400 0.31250 -0.34300
C 	C 	0.81240 0.66560 0.38450 0.49400
C 	C 	0.81080 0.62080 0.42310 -0.22600
C 	C 	0.80190 0.35070 0.68790 -0.16700
C 	C 	0.76740 0.61450 0.41330 0.13700
H 	H 	0.73898 0.63709 0.38176 -0.00700
C 	C 	0.84930 0.58340 0.46550 0.15700
H 	H 	0.87908 0.58744 0.47288 -0.01600
C 	C 	0.76560 0.57470 0.45040 -0.20200
H 	H 	0.73723 0.57469 0.44642 0.10500
C 	C 	0.84740 0.54210 0.49650 -0.20400
H 	H 	0.87395 0.51628 0.52182 0.10500
C 	C 	0.80200 0.53640 0.49120 0.12400
C 	C 	0.80300 0.49550 0.53020 -0.04900
C 	C 	0.80020 0.46160 0.56070 -0.03600
C 	C 	0.75350 0.40830 0.58330 -0.17600
H 	H 	0.72199 0.42222 0.54396 0.09300
C 	C 	0.84440 0.40220 0.65800 -0.16800
H 	H 	0.87481 0.41100 0.66869 0.09300
C 	C 	0.79790 0.42270 0.59840 0.11200
C 	C 	0.75610 0.37320 0.62670 0.09400
H 	H 	0.72550 0.36339 0.61505 0.00200
C 	C 	0.84500 0.36770 0.70230 0.09300
H 	H 	0.87659 0.35612 0.74352 0.01700
C 	C 	0.80220 0.31220 0.73440 0.42200
C 	C 	0.83100 0.83160 0.27130 0.47000
C 	C 	0.83680 0.87030 0.23380 -0.25600
C 	C 	0.79280 0.89250 0.17300 0.14900
H 	H 	0.76101 0.88211 0.15761 -0.01300
C 	C 	0.88060 0.88800 0.25200 0.20000
H 	H 	0.91068 0.87385 0.29331 -0.03200
C 	C 	0.79480 0.93170 0.13280 -0.23100
H 	H 	0.76551 0.95037 0.09547 0.11600
C 	C 	0.88610 0.92280 0.21900 -0.24500
H 	H 	0.91804 0.93594 0.23707 0.11400
C 	C 	0.83770 0.93950 0.15000 0.15100
C 	C 	0.84830 0.98250 0.11700 -0.03800
C 	C 	0.84700 0.01380 0.08030 -0.05900
C 	C 	0.84490 0.05590 0.03970 0.15300
C 	C 	0.80250 0.06810 0.97500 -0.23400
H 	H 	0.77251 0.04822 0.95400 0.11700
C 	C 	0.89080 0.08320 0.06840 -0.21800
H 	H 	0.92110 0.07326 0.11220 0.10400
C 	C 	0.80240 0.10940 0.93800 0.16600
H 	H 	0.77163 0.11951 0.89484 -0.01100
C 	C 	0.89160 0.12440 0.03240 0.15700
H 	H 	0.92164 0.14450 0.05373 -0.02300
C 	C 	0.84770 0.13620 0.96440 -0.25700
C 	C 	0.84800 0.18050 0.92790 0.51000
C 	C 	0.96130 0.66540 0.38480 0.38700
C 	C 	0.98310 0.62020 0.36870 -0.14100
C 	C 	0.00580 0.63850 0.34300 0.05400
H 	H 	0.00309 0.67593 0.33143 0.02000
C 	C 	0.98630 0.56690 0.38140 0.06800
H 	H 	0.97164 0.55471 0.39863 0.02000
C 	C 	0.03130 0.60400 0.33300 -0.13900
H 	H 	0.04889 0.61802 0.32043 0.08000
C 	C 	0.00990 0.52600 0.37160 -0.14400
H 	H 	0.01212 0.48884 0.38338 0.08000
C 	C 	0.03020 0.54590 0.34220 0.08100
C 	C 	0.05990 0.51140 0.33530 -0.03900
C 	C 	0.07950 0.47800 0.32550 -0.02000
C 	C 	0.10350 0.43960 0.31160 0.06100
C 	C 	0.12180 0.38960 0.34440 -0.10300
H 	H 	0.11534 0.37794 0.37200 0.07100
C 	C 	0.11690 0.45880 0.27370 -0.10700
H 	H 	0.10953 0.49517 0.25732 0.07400
C 	C 	0.15050 0.35520 0.33690 0.00300
H 	H 	0.16354 0.32115 0.35940 0.04500
C 	C 	0.14080 0.42290 0.26160 0.01600
H 	H 	0.14439 0.43267 0.23051 0.03700
C 	C 	0.15860 0.37450 0.29440 -0.06600
C 	C 	0.18540 0.33140 0.28210 0.26600
Gd	Gd	0.40547 0.76522 0.89978 1.53800
Gd	Gd	0.24023 0.73483 0.76238 1.53200
O 	O 	0.35720 0.82310 0.90920 -0.46600
O 	O 	0.27280 0.80830 0.84020 -0.47400
O 	O 	0.34320 0.20250 0.28590 -0.45000
O 	O 	0.25510 0.19920 0.21440 -0.44600
O 	O 	0.37280 0.68970 0.82700 -0.45600
O 	O 	0.28580 0.68140 0.74500 -0.46000
O 	O 	0.38630 0.29570 0.45130 -0.50000
O 	O 	0.30320 0.30450 0.36680 -0.45200
O 	O 	0.44090 0.85620 0.90660 -0.39000
O 	O 	0.45300 0.78920 0.86700 -0.44500
O 	O 	0.69670 0.14940 0.74880 -0.38000
O 	O 	0.69910 0.21600 0.81250 -0.34300
C 	C 	0.31240 0.83440 0.88450 0.49400
C 	C 	0.31080 0.87920 0.92310 -0.22600
C 	C 	0.30190 0.14930 0.18790 -0.16700
C 	C 	0.26740 0.88550 0.91330 0.13700
H 	H 	0.23898 0.86291 0.88176 -0.00700
C 	C 	0.34930 0.91660 0.96550 0.15600
H 	H 	0.37908 0.91256 0.97288 -0.01500
C 	C 	0.26560 0.92530 0.95040 -0.20200
H 	H 	0.23723 0.92531 0.94642 0.10500
C 	C 	0.34740 0.95790 0.99650 -0.20300
H 	H 	0.37395 0.98372 0.02182 0.10400
C 	C 	0.30200 0.96360 0.99120 0.12400
C 	C 	0.30300 0.00450 0.03020 -0.04800
C 	C 	0.30020 0.03840 0.06070 -0.03600
C 	C 	0.25350 0.09170 0.08330 -0.17600
H 	H 	0.22199 0.07778 0.04396 0.09400
C 	C 	0.34440 0.09780 0.15800 -0.16800
H 	H 	0.37481 0.08900 0.16869 0.09300
C 	C 	0.29790 0.07730 0.09840 0.11200
C 	C 	0.25610 0.12680 0.12670 0.09400
H 	H 	0.22550 0.13661 0.11505 0.00200
C 	C 	0.34500 0.13230 0.20230 0.09300
H 	H 	0.37659 0.14388 0.24352 0.01700
C 	C 	0.30220 0.18780 0.23440 0.42200
C 	C 	0.33100 0.66840 0.77130 0.47000
C 	C 	0.33680 0.62970 0.73380 -0.25600
C 	C 	0.29280 0.60750 0.67300 0.14900
H 	H 	0.26101 0.61789 0.65761 -0.01300
C 	C 	0.38060 0.61200 0.75200 0.20000
H 	H 	0.41068 0.62615 0.79331 -0.03200
C 	C 	0.29480 0.56830 0.63280 -0.23100
H 	H 	0.26551 0.54963 0.59547 0.11600
C 	C 	0.38610 0.57720 0.71900 -0.24400
H 	H 	0.41804 0.56406 0.73707 0.11400
C 	C 	0.33770 0.56050 0.65000 0.15100
C 	C 	0.34830 0.51750 0.61700 -0.03800
C 	C 	0.34700 0.48620 0.58030 -0.06000
C 	C 	0.34490 0.44410 0.53970 0.15300
C 	C 	0.30250 0.43190 0.47500 -0.23300
H 	H 	0.27251 0.45178 0.45400 0.11700
C 	C 	0.39080 0.41680 0.56840 -0.21800
H 	H 	0.42110 0.42674 0.61220 0.10400
C 	C 	0.30240 0.39060 0.43800 0.16500
H 	H 	0.27163 0.38049 0.39484 -0.01000
C 	C 	0.39160 0.37560 0.53240 0.15600
H 	H 	0.42164 0.35550 0.55373 -0.02300
C 	C 	0.34770 0.36380 0.46440 -0.25700
C 	C 	0.34800 0.31950 0.42790 0.51000
C 	C 	0.46130 0.83460 0.88480 0.38700
C 	C 	0.48310 0.87980 0.86870 -0.14000
C 	C 	0.50580 0.86150 0.84300 0.05400
H 	H 	0.50309 0.82407 0.83143 0.02000
C 	C 	0.48630 0.93310 0.88140 0.06700
H 	H 	0.47164 0.94529 0.89863 0.02000
C 	C 	0.53130 0.89600 0.83300 -0.13900
H 	H 	0.54889 0.88198 0.82043 0.08000
C 	C 	0.50990 0.97400 0.87160 -0.14300
H 	H 	0.51212 0.01116 0.88338 0.07900
C 	C 	0.53020 0.95410 0.84220 0.08100
C 	C 	0.55990 0.98860 0.83530 -0.03800
C 	C 	0.57950 0.02200 0.82550 -0.02100
C 	C 	0.60350 0.06040 0.81160 0.06100
C 	C 	0.62180 0.11040 0.84440 -0.10300
H 	H 	0.61534 0.12206 0.87200 0.07100
C 	C 	0.61690 0.04120 0.77370 -0.10800
H 	H 	0.60953 0.00483 0.75732 0.07400
C 	C 	0.65050 0.14480 0.83690 0.00300
H 	H 	0.66354 0.17885 0.85940 0.04400
C 	C 	0.64080 0.07710 0.76160 0.01600
H 	H 	0.64439 0.06733 0.73051 0.03700
C 	C 	0.65860 0.12550 0.79440 -0.06600
C 	C 	0.68540 0.16860 0.78210 0.26600
Gd	Gd	0.90547 0.26522 0.89978 1.53800
Gd	Gd	0.74023 0.23483 0.76238 1.53200
O 	O 	0.85720 0.32310 0.90920 -0.46600
O 	O 	0.77280 0.30830 0.84020 -0.47400
O 	O 	0.84320 0.70250 0.28590 -0.45000
O 	O 	0.75510 0.69920 0.21440 -0.44600
O 	O 	0.87280 0.18970 0.82700 -0.45600
O 	O 	0.78580 0.18140 0.74500 -0.46000
O 	O 	0.88630 0.79570 0.45130 -0.50000
O 	O 	0.80320 0.80450 0.36680 -0.45200
O 	O 	0.94090 0.35620 0.90660 -0.39000
O 	O 	0.95300 0.28920 0.86700 -0.44500
O 	O 	0.19670 0.64940 0.74880 -0.38000
O 	O 	0.19910 0.71600 0.81250 -0.34300
C 	C 	0.81240 0.33440 0.88450 0.49400
C 	C 	0.81080 0.37920 0.92310 -0.22600
C 	C 	0.80190 0.64930 0.18790 -0.16700
C 	C 	0.76740 0.38550 0.91330 0.13700
H 	H 	0.73898 0.36291 0.88176 -0.00700
C 	C 	0.84930 0.41660 0.96550 0.15700
H 	H 	0.87908 0.41256 0.97288 -0.01600
C 	C 	0.76560 0.42530 0.95040 -0.20200
H 	H 	0.73723 0.42531 0.94642 0.10500
C 	C 	0.84740 0.45790 0.99650 -0.20400
H 	H 	0.87395 0.48372 0.02182 0.10500
C 	C 	0.80200 0.46360 0.99120 0.12400
C 	C 	0.80300 0.50450 0.03020 -0.04900
C 	C 	0.80020 0.53840 0.06070 -0.03600
C 	C 	0.75350 0.59170 0.08330 -0.17600
H 	H 	0.72199 0.57778 0.04396 0.09300
C 	C 	0.84440 0.59780 0.15800 -0.16800
H 	H 	0.87481 0.58900 0.16869 0.09300
C 	C 	0.79790 0.57730 0.09840 0.11200
C 	C 	0.75610 0.62680 0.12670 0.09400
H 	H 	0.72550 0.63661 0.11505 0.00200
C 	C 	0.84500 0.63230 0.20230 0.09300
H 	H 	0.87659 0.64388 0.24352 0.01700
C 	C 	0.80220 0.68780 0.23440 0.42200
C 	C 	0.83100 0.16840 0.77130 0.47000
C 	C 	0.83680 0.12970 0.73380 -0.25600
C 	C 	0.79280 0.10750 0.67300 0.14900
H 	H 	0.76101 0.11789 0.65761 -0.01300
C 	C 	0.88060 0.11200 0.75200 0.20000
H 	H 	0.91068 0.12615 0.79331 -0.03200
C 	C 	0.79480 0.06830 0.63280 -0.23100
H 	H 	0.76551 0.04963 0.59547 0.11600
C 	C 	0.88610 0.07720 0.71900 -0.24400
H 	H 	0.91804 0.06406 0.73707 0.11400
C 	C 	0.83770 0.06050 0.65000 0.15100
C 	C 	0.84830 0.01750 0.61700 -0.03800
C 	C 	0.84700 0.98620 0.58030 -0.06000
C 	C 	0.84490 0.94410 0.53970 0.15300
C 	C 	0.80250 0.93190 0.47500 -0.23300
H 	H 	0.77251 0.95178 0.45400 0.11700
C 	C 	0.89080 0.91680 0.56840 -0.21800
H 	H 	0.92110 0.92674 0.61220 0.10400
C 	C 	0.80240 0.89060 0.43800 0.16500
H 	H 	0.77163 0.88049 0.39484 -0.01000
C 	C 	0.89160 0.87560 0.53240 0.15600
H 	H 	0.92164 0.85550 0.55373 -0.02200
C 	C 	0.84770 0.86380 0.46440 -0.25700
C 	C 	0.84800 0.81950 0.42790 0.51000
C 	C 	0.96130 0.33460 0.88480 0.38700
C 	C 	0.98310 0.37980 0.86870 -0.14100
C 	C 	0.00580 0.36150 0.84300 0.05400
H 	H 	0.00309 0.32407 0.83143 0.02000
C 	C 	0.98630 0.43310 0.88140 0.06800
H 	H 	0.97164 0.44529 0.89863 0.02000
C 	C 	0.03130 0.39600 0.83300 -0.13900
H 	H 	0.04889 0.38198 0.82043 0.08000
C 	C 	0.00990 0.47400 0.87160 -0.14400
H 	H 	0.01212 0.51116 0.88338 0.08000
C 	C 	0.03020 0.45410 0.84220 0.08100
C 	C 	0.05990 0.48860 0.83530 -0.03900
C 	C 	0.07950 0.52200 0.82550 -0.02000
C 	C 	0.10350 0.56040 0.81160 0.06100
C 	C 	0.12180 0.61040 0.84440 -0.10300
H 	H 	0.11534 0.62206 0.87200 0.07100
C 	C 	0.11690 0.54120 0.77370 -0.10700
H 	H 	0.10953 0.50483 0.75732 0.07400
C 	C 	0.15050 0.64480 0.83690 0.00300
H 	H 	0.16354 0.67885 0.85940 0.04500
C 	C 	0.14080 0.57710 0.76160 0.01500
H 	H 	0.14439 0.56733 0.73051 0.03700
C 	C 	0.15860 0.62550 0.79440 -0.06600
C 	C 	0.18540 0.66860 0.78210 0.26600
Gd	Gd	0.59453 0.23478 0.10022 1.53800
Gd	Gd	0.75977 0.26517 0.23762 1.53200
O 	O 	0.64280 0.17690 0.09080 -0.46600
O 	O 	0.72720 0.19170 0.15980 -0.47400
O 	O 	0.65680 0.79750 0.71410 -0.45000
O 	O 	0.74490 0.80080 0.78560 -0.44600
O 	O 	0.62720 0.31030 0.17300 -0.45600
O 	O 	0.71420 0.31860 0.25500 -0.46000
O 	O 	0.61370 0.70430 0.54870 -0.50000
O 	O 	0.69680 0.69550 0.63320 -0.45200
O 	O 	0.55910 0.14380 0.09340 -0.39000
O 	O 	0.54700 0.21080 0.13300 -0.44500
O 	O 	0.30330 0.85060 0.25120 -0.38000
O 	O 	0.30090 0.78400 0.18750 -0.34300
C 	C 	0.68760 0.16560 0.11550 0.49400
C 	C 	0.68920 0.12080 0.07690 -0.22600
C 	C 	0.69810 0.85070 0.81210 -0.16700
C 	C 	0.73260 0.11450 0.08670 0.13700
H 	H 	0.76102 0.13709 0.11824 -0.00700
C 	C 	0.65070 0.08340 0.03450 0.15600
H 	H 	0.62092 0.08744 0.02712 -0.01500
C 	C 	0.73440 0.07470 0.04960 -0.20200
H 	H 	0.76277 0.07469 0.05358 0.10500
C 	C 	0.65260 0.04210 0.00350 -0.20300
H 	H 	0.62605 0.01628 0.97818 0.10400
C 	C 	0.69800 0.03640 0.00880 0.12400
C 	C 	0.69700 0.99550 0.96980 -0.04800
C 	C 	0.69980 0.96160 0.93930 -0.03600
C 	C 	0.74650 0.90830 0.91670 -0.17600
H 	H 	0.77801 0.92222 0.95604 0.09400
C 	C 	0.65560 0.90220 0.84200 -0.16800
H 	H 	0.62519 0.91100 0.83131 0.09300
C 	C 	0.70210 0.92270 0.90160 0.11200
C 	C 	0.74390 0.87320 0.87330 0.09400
H 	H 	0.77450 0.86339 0.88495 0.00200
C 	C 	0.65500 0.86770 0.79770 0.09300
H 	H 	0.62341 0.85612 0.75648 0.01700
C 	C 	0.69780 0.81220 0.76560 0.42200
C 	C 	0.66900 0.33160 0.22870 0.47000
C 	C 	0.66320 0.37030 0.26620 -0.25600
C 	C 	0.70720 0.39250 0.32700 0.14900
H 	H 	0.73899 0.38211 0.34239 -0.01300
C 	C 	0.61940 0.38800 0.24800 0.20000
H 	H 	0.58932 0.37385 0.20669 -0.03200
C 	C 	0.70520 0.43170 0.36720 -0.23100
H 	H 	0.73449 0.45037 0.40453 0.11600
C 	C 	0.61390 0.42280 0.28100 -0.24400
H 	H 	0.58196 0.43594 0.26293 0.11400
C 	C 	0.66230 0.43950 0.35000 0.15100
C 	C 	0.65170 0.48250 0.38300 -0.03800
C 	C 	0.65300 0.51380 0.41970 -0.06000
C 	C 	0.65510 0.55590 0.46030 0.15300
C 	C 	0.69750 0.56810 0.52500 -0.23300
H 	H 	0.72749 0.54822 0.54600 0.11700
C 	C 	0.60920 0.58320 0.43160 -0.21800
H 	H 	0.57890 0.57326 0.38780 0.10400
C 	C 	0.69760 0.60940 0.56200 0.16500
H 	H 	0.72837 0.61951 0.60516 -0.01000
C 	C 	0.60840 0.62440 0.46760 0.15600
H 	H 	0.57836 0.64450 0.44627 -0.02300
C 	C 	0.65230 0.63620 0.53560 -0.25700
C 	C 	0.65200 0.68050 0.57210 0.51000
C 	C 	0.53870 0.16540 0.11520 0.38700
C 	C 	0.51690 0.12020 0.13130 -0.14000
C 	C 	0.49420 0.13850 0.15700 0.05400
H 	H 	0.49691 0.17593 0.16857 0.02000
C 	C 	0.51370 0.06690 0.11860 0.06700
H 	H 	0.52836 0.05471 0.10137 0.02000
C 	C 	0.46870 0.10400 0.16700 -0.13900
H 	H 	0.45111 0.11802 0.17957 0.08000
C 	C 	0.49010 0.02600 0.12840 -0.14300
H 	H 	0.48788 0.98884 0.11662 0.07900
C 	C 	0.46980 0.04590 0.15780 0.08100
C 	C 	0.44010 0.01140 0.16470 -0.03800
C 	C 	0.42050 0.97800 0.17450 -0.02100
C 	C 	0.39650 0.93960 0.18840 0.06100
C 	C 	0.37820 0.88960 0.15560 -0.10300
H 	H 	0.38466 0.87794 0.12800 0.07100
C 	C 	0.38310 0.95880 0.22630 -0.10800
H 	H 	0.39047 0.99517 0.24268 0.07400
C 	C 	0.34950 0.85520 0.16310 0.00300
H 	H 	0.33646 0.82115 0.14060 0.04400
C 	C 	0.35920 0.92290 0.23840 0.01600
H 	H 	0.35561 0.93267 0.26949 0.03700
C 	C 	0.34140 0.87450 0.20560 -0.06600
C 	C 	0.31460 0.83140 0.21790 0.26600
Gd	Gd	0.09453 0.73478 0.10022 1.53800
Gd	Gd	0.25977 0.76517 0.23762 1.53200
O 	O 	0.14280 0.67690 0.09080 -0.46600
O 	O 	0.22720 0.69170 0.15980 -0.47400
O 	O 	0.15680 0.29750 0.71410 -0.45000
O 	O 	0.24490 0.30080 0.78560 -0.44600
O 	O 	0.12720 0.81030 0.17300 -0.45600
O 	O 	0.21420 0.81860 0.25500 -0.46000
O 	O 	0.11370 0.20430 0.54870 -0.50000
O 	O 	0.19680 0.19550 0.63320 -0.45200
O 	O 	0.05910 0.64380 0.09340 -0.39000
O 	O 	0.04700 0.71080 0.13300 -0.44500
O 	O 	0.80330 0.35060 0.25120 -0.38000
O 	O 	0.80090 0.28400 0.18750 -0.34300
C 	C 	0.18760 0.66560 0.11550 0.49400
C 	C 	0.18920 0.62080 0.07690 -0.22600
C 	C 	0.19810 0.35070 0.81210 -0.16700
C 	C 	0.23260 0.61450 0.08670 0.13700
H 	H 	0.26102 0.63709 0.11824 -0.00700
C 	C 	0.15070 0.58340 0.03450 0.15700
H 	H 	0.12092 0.58744 0.02712 -0.01600
C 	C 	0.23440 0.57470 0.04960 -0.20200
H 	H 	0.26277 0.57469 0.05358 0.10500
C 	C 	0.15260 0.54210 0.00350 -0.20400
H 	H 	0.12605 0.51628 0.97818 0.10500
C 	C 	0.19800 0.53640 0.00880 0.12400
C 	C 	0.19700 0.49550 0.96980 -0.04900
C 	C 	0.19980 0.46160 0.93930 -0.03600
C 	C 	0.24650 0.40830 0.91670 -0.17600
H 	H 	0.27801 0.42222 0.95604 0.09300
C 	C 	0.15560 0.40220 0.84200 -0.16800
H 	H 	0.12519 0.41100 0.83131 0.09300
C 	C 	0.20210 0.42270 0.90160 0.11200
C 	C 	0.24390 0.37320 0.87330 0.09400
H 	H 	0.27450 0.36339 0.88495 0.00200
C 	C 	0.15500 0.36770 0.79770 0.09300
H 	H 	0.12341 0.35612 0.75648 0.01700
C 	C 	0.19780 0.31220 0.76560 0.42200
C 	C 	0.16900 0.83160 0.22870 0.47000
C 	C 	0.16320 0.87030 0.26620 -0.25600
C 	C 	0.20720 0.89250 0.32700 0.14900
H 	H 	0.23899 0.88211 0.34239 -0.01300
C 	C 	0.11940 0.88800 0.24800 0.20000
H 	H 	0.08932 0.87385 0.20669 -0.03200
C 	C 	0.20520 0.93170 0.36720 -0.23100
H 	H 	0.23449 0.95037 0.40453 0.11600
C 	C 	0.11390 0.92280 0.28100 -0.24400
H 	H 	0.08196 0.93594 0.26293 0.11400
C 	C 	0.16230 0.93950 0.35000 0.15100
C 	C 	0.15170 0.98250 0.38300 -0.03800
C 	C 	0.15300 0.01380 0.41970 -0.06000
C 	C 	0.15510 0.05590 0.46030 0.15300
C 	C 	0.19750 0.06810 0.52500 -0.23300
H 	H 	0.22749 0.04822 0.54600 0.11700
C 	C 	0.10920 0.08320 0.43160 -0.21800
H 	H 	0.07890 0.07326 0.38780 0.10400
C 	C 	0.19760 0.10940 0.56200 0.16500
H 	H 	0.22837 0.11951 0.60516 -0.01000
C 	C 	0.10840 0.12440 0.46760 0.15600
H 	H 	0.07836 0.14450 0.44627 -0.02200
C 	C 	0.15230 0.13620 0.53560 -0.25700
C 	C 	0.15200 0.18050 0.57210 0.51000
C 	C 	0.03870 0.66540 0.11520 0.38700
C 	C 	0.01690 0.62020 0.13130 -0.14100
C 	C 	0.99420 0.63850 0.15700 0.05400
H 	H 	0.99691 0.67593 0.16857 0.02000
C 	C 	0.01370 0.56690 0.11860 0.06800
H 	H 	0.02836 0.55471 0.10137 0.02000
C 	C 	0.96870 0.60400 0.16700 -0.13900
H 	H 	0.95111 0.61802 0.17957 0.08000
C 	C 	0.99010 0.52600 0.12840 -0.14400
H 	H 	0.98788 0.48884 0.11662 0.08000
C 	C 	0.96980 0.54590 0.15780 0.08100
C 	C 	0.94010 0.51140 0.16470 -0.03900
C 	C 	0.92050 0.47800 0.17450 -0.02000
C 	C 	0.89650 0.43960 0.18840 0.06100
C 	C 	0.87820 0.38960 0.15560 -0.10300
H 	H 	0.88466 0.37794 0.12800 0.07100
C 	C 	0.88310 0.45880 0.22630 -0.10700
H 	H 	0.89047 0.49517 0.24268 0.07400
C 	C 	0.84950 0.35520 0.16310 0.00300
H 	H 	0.83646 0.32115 0.14060 0.04500
C 	C 	0.85920 0.42290 0.23840 0.01500
H 	H 	0.85561 0.43267 0.26949 0.03700
C 	C 	0.84140 0.37450 0.20560 -0.06600
C 	C 	0.81460 0.33140 0.21790 0.26600
Gd	Gd	0.59453 0.76522 0.60022 1.53800
Gd	Gd	0.75977 0.73483 0.73762 1.53200
O 	O 	0.64280 0.82310 0.59080 -0.46600
O 	O 	0.72720 0.80830 0.65980 -0.47400
O 	O 	0.65680 0.20250 0.21410 -0.45000
O 	O 	0.74490 0.19920 0.28560 -0.44600
O 	O 	0.62720 0.68970 0.67300 -0.45600
O 	O 	0.71420 0.68140 0.75500 -0.46000
O 	O 	0.61370 0.29570 0.04870 -0.50000
O 	O 	0.69680 0.30450 0.13320 -0.45200
O 	O 	0.55910 0.85620 0.59340 -0.39100
O 	O 	0.54700 0.78920 0.63300 -0.44500
O 	O 	0.30330 0.14940 0.75120 -0.38000
O 	O 	0.30090 0.21600 0.68750 -0.34300
C 	C 	0.68760 0.83440 0.61550 0.49400
C 	C 	0.68920 0.87920 0.57690 -0.22600
C 	C 	0.69810 0.14930 0.31210 -0.16700
C 	C 	0.73260 0.88550 0.58670 0.13700
H 	H 	0.76102 0.86291 0.61824 -0.00700
C 	C 	0.65070 0.91660 0.53450 0.15700
H 	H 	0.62092 0.91256 0.52712 -0.01600
C 	C 	0.73440 0.92530 0.54960 -0.20200
H 	H 	0.76277 0.92531 0.55358 0.10500
C 	C 	0.65260 0.95790 0.50350 -0.20400
H 	H 	0.62605 0.98372 0.47818 0.10500
C 	C 	0.69800 0.96360 0.50880 0.12400
C 	C 	0.69700 0.00450 0.46980 -0.04900
C 	C 	0.69980 0.03840 0.43930 -0.03600
C 	C 	0.74650 0.09170 0.41670 -0.17600
H 	H 	0.77801 0.07778 0.45604 0.09300
C 	C 	0.65560 0.09780 0.34200 -0.16800
H 	H 	0.62519 0.08900 0.33131 0.09300
C 	C 	0.70210 0.07730 0.40160 0.11200
C 	C 	0.74390 0.12680 0.37330 0.09400
H 	H 	0.77450 0.13661 0.38495 0.00200
C 	C 	0.65500 0.13230 0.29770 0.09300
H 	H 	0.62341 0.14388 0.25648 0.01700
C 	C 	0.69780 0.18780 0.26560 0.42200
C 	C 	0.66900 0.66840 0.72870 0.47000
C 	C 	0.66320 0.62970 0.76620 -0.25600
C 	C 	0.70720 0.60750 0.82700 0.14900
H 	H 	0.73899 0.61789 0.84239 -0.01300
C 	C 	0.61940 0.61200 0.74800 0.20000
H 	H 	0.58932 0.62615 0.70669 -0.03200
C 	C 	0.70520 0.56830 0.86720 -0.23100
H 	H 	0.73449 0.54963 0.90453 0.11600
C 	C 	0.61390 0.57720 0.78100 -0.24400
H 	H 	0.58196 0.56406 0.76293 0.11400
C 	C 	0.66230 0.56050 0.85000 0.15100
C 	C 	0.65170 0.51750 0.88300 -0.03800
C 	C 	0.65300 0.48620 0.91970 -0.06000
C 	C 	0.65510 0.44410 0.96030 0.15300
C 	C 	0.69750 0.43190 0.02500 -0.23300
H 	H 	0.72749 0.45178 0.04600 0.11700
C 	C 	0.60920 0.41680 0.93160 -0.21800
H 	H 	0.57890 0.42674 0.88780 0.10400
C 	C 	0.69760 0.39060 0.06200 0.16500
H 	H 	0.72837 0.38049 0.10516 -0.01000
C 	C 	0.60840 0.37560 0.96760 0.15600
H 	H 	0.57836 0.35550 0.94627 -0.02200
C 	C 	0.65230 0.36380 0.03560 -0.25600
C 	C 	0.65200 0.31950 0.07210 0.50900
C 	C 	0.53870 0.83460 0.61520 0.38700
C 	C 	0.51690 0.87980 0.63130 -0.14100
C 	C 	0.49420 0.86150 0.65700 0.05400
H 	H 	0.49691 0.82407 0.66857 0.02000
C 	C 	0.51370 0.93310 0.61860 0.06800
H 	H 	0.52836 0.94529 0.60137 0.02000
C 	C 	0.46870 0.89600 0.66700 -0.13900
H 	H 	0.45111 0.88198 0.67957 0.08000
C 	C 	0.49010 0.97400 0.62840 -0.14400
H 	H 	0.48788 0.01116 0.61662 0.08000
C 	C 	0.46980 0.95410 0.65780 0.08100
C 	C 	0.44010 0.98860 0.66470 -0.03900
C 	C 	0.42050 0.02200 0.67450 -0.02100
C 	C 	0.39650 0.06040 0.68840 0.06100
C 	C 	0.37820 0.11040 0.65560 -0.10300
H 	H 	0.38466 0.12206 0.62800 0.07100
C 	C 	0.38310 0.04120 0.72630 -0.10800
H 	H 	0.39047 0.00483 0.74268 0.07400
C 	C 	0.34950 0.14480 0.66310 0.00300
H 	H 	0.33646 0.17885 0.64060 0.04500
C 	C 	0.35920 0.07710 0.73840 0.01600
H 	H 	0.35561 0.06733 0.76949 0.03700
C 	C 	0.34140 0.12550 0.70560 -0.06600
C 	C 	0.31460 0.16860 0.71790 0.26600
Gd	Gd	0.09453 0.26522 0.60022 1.53800
Gd	Gd	0.25977 0.23483 0.73762 1.53200
O 	O 	0.14280 0.32310 0.59080 -0.46600
O 	O 	0.22720 0.30830 0.65980 -0.47400
O 	O 	0.15680 0.70250 0.21410 -0.45000
O 	O 	0.24490 0.69920 0.28560 -0.44600
O 	O 	0.12720 0.18970 0.67300 -0.45600
O 	O 	0.21420 0.18140 0.75500 -0.46000
O 	O 	0.11370 0.79570 0.04870 -0.50000
O 	O 	0.19680 0.80450 0.13320 -0.45200
O 	O 	0.05910 0.35620 0.59340 -0.39000
O 	O 	0.04700 0.28920 0.63300 -0.44500
O 	O 	0.80330 0.64940 0.75120 -0.38000
O 	O 	0.80090 0.71600 0.68750 -0.34300
C 	C 	0.18760 0.33440 0.61550 0.49400
C 	C 	0.18920 0.37920 0.57690 -0.22600
C 	C 	0.19810 0.64930 0.31210 -0.16700
C 	C 	0.23260 0.38550 0.58670 0.13700
H 	H 	0.26102 0.36291 0.61824 -0.00700
C 	C 	0.15070 0.41660 0.53450 0.15700
H 	H 	0.12092 0.41256 0.52712 -0.01600
C 	C 	0.23440 0.42530 0.54960 -0.20200
H 	H 	0.26277 0.42531 0.55358 0.10500
C 	C 	0.15260 0.45790 0.50350 -0.20400
H 	H 	0.12605 0.48372 0.47818 0.10500
C 	C 	0.19800 0.46360 0.50880 0.12400
C 	C 	0.19700 0.50450 0.46980 -0.04900
C 	C 	0.19980 0.53840 0.43930 -0.03600
C 	C 	0.24650 0.59170 0.41670 -0.17600
H 	H 	0.27801 0.57778 0.45604 0.09300
C 	C 	0.15560 0.59780 0.34200 -0.16800
H 	H 	0.12519 0.58900 0.33131 0.09300
C 	C 	0.20210 0.57730 0.40160 0.11200
C 	C 	0.24390 0.62680 0.37330 0.09400
H 	H 	0.27450 0.63661 0.38495 0.00200
C 	C 	0.15500 0.63230 0.29770 0.09300
H 	H 	0.12341 0.64388 0.25648 0.01700
C 	C 	0.19780 0.68780 0.26560 0.42200
C 	C 	0.16900 0.16840 0.72870 0.47000
C 	C 	0.16320 0.12970 0.76620 -0.25600
C 	C 	0.20720 0.10750 0.82700 0.14900
H 	H 	0.23899 0.11789 0.84239 -0.01300
C 	C 	0.11940 0.11200 0.74800 0.20000
H 	H 	0.08932 0.12615 0.70669 -0.03200
C 	C 	0.20520 0.06830 0.86720 -0.23100
H 	H 	0.23449 0.04963 0.90453 0.11600
C 	C 	0.11390 0.07720 0.78100 -0.24500
H 	H 	0.08196 0.06406 0.76293 0.11400
C 	C 	0.16230 0.06050 0.85000 0.15100
C 	C 	0.15170 0.01750 0.88300 -0.03800
C 	C 	0.15300 0.98620 0.91970 -0.05900
C 	C 	0.15510 0.94410 0.96030 0.15300
C 	C 	0.19750 0.93190 0.02500 -0.23400
H 	H 	0.22749 0.95178 0.04600 0.11700
C 	C 	0.10920 0.91680 0.93160 -0.21800
H 	H 	0.07890 0.92674 0.88780 0.10400
C 	C 	0.19760 0.89060 0.06200 0.16600
H 	H 	0.22837 0.88049 0.10516 -0.01100
C 	C 	0.10840 0.87560 0.96760 0.15700
H 	H 	0.07836 0.85550 0.94627 -0.02300
C 	C 	0.15230 0.86380 0.03560 -0.25700
C 	C 	0.15200 0.81950 0.07210 0.51000
C 	C 	0.03870 0.33460 0.61520 0.38700
C 	C 	0.01690 0.37980 0.63130 -0.14100
C 	C 	0.99420 0.36150 0.65700 0.05400
H 	H 	0.99691 0.32407 0.66857 0.02000
C 	C 	0.01370 0.43310 0.61860 0.06800
H 	H 	0.02836 0.44529 0.60137 0.02000
C 	C 	0.96870 0.39600 0.66700 -0.13900
H 	H 	0.95111 0.38198 0.67957 0.08000
C 	C 	0.99010 0.47400 0.62840 -0.14400
H 	H 	0.98788 0.51116 0.61662 0.08000
C 	C 	0.96980 0.45410 0.65780 0.08100
C 	C 	0.94010 0.48860 0.66470 -0.03900
C 	C 	0.92050 0.52200 0.67450 -0.02000
C 	C 	0.89650 0.56040 0.68840 0.06100
C 	C 	0.87820 0.61040 0.65560 -0.10300
H 	H 	0.88466 0.62206 0.62800 0.07100
C 	C 	0.88310 0.54120 0.72630 -0.10700
H 	H 	0.89047 0.50483 0.74268 0.07400
C 	C 	0.84950 0.64480 0.66310 0.00300
H 	H 	0.83646 0.67885 0.64060 0.04500
C 	C 	0.85920 0.57710 0.73840 0.01600
H 	H 	0.85561 0.56733 0.76949 0.03700
C 	C 	0.84140 0.62550 0.70560 -0.06600
C 	C 	0.81460 0.66860 0.71790 0.26600
