data_crystal

_cell_length_a 28.34250
_cell_length_b 28.34250
_cell_length_c 28.34250
_cell_angle_alpha 109.47100
_cell_angle_beta  109.47100
_cell_angle_gamma 109.47100

_symmetry_space_group_name_	'P 1'
_symmetry_space_group_name_H-M	'P 1'

loop_
_symmetry_equiv_pos_as_xyz
  x,y,z

loop_
_atom_site_label
_atom_site_type_symbol
_atom_site_fract_x
_atom_site_fract_y
_atom_site_fract_z
_atom_site_charge
H 	H 	0.58566 0.13588 0.06299 -0.01000
H 	H 	0.62038 0.21622 0.03863 0.05000
H 	H 	0.47139 0.09819 0.86918 0.05200
H 	H 	0.44524 0.03014 0.89995 -0.01700
H 	H 	0.66087 0.19049 0.89775 0.06500
H 	H 	0.58511 0.12941 0.85522 0.05600
H 	H 	0.62886 0.15692 0.93383 0.06500
C 	C 	0.56071 0.12786 0.01757 0.04300
C 	C 	0.57910 0.17320 0.00450 -0.15100
C 	C 	0.54560 0.16190 0.95130 0.13800
C 	C 	0.50010 0.11030 0.91540 -0.15200
C 	C 	0.48712 0.07340 0.93072 0.08400
C 	C 	0.56580 0.20810 0.93690 -0.10900
C 	C 	0.59900 0.21070 0.91210 0.08100
C 	C 	0.61960 0.16960 0.89900 -0.18000
N 	N 	0.51738 0.07762 0.98156 -0.23200
H 	H 	0.57290 0.52267 0.43701 -0.01200
H 	H 	0.67759 0.58175 0.46137 0.04800
H 	H 	0.72901 0.60221 0.63082 0.05200
H 	H 	0.63020 0.54529 0.60005 -0.00800
H 	H 	0.72580 0.69923 0.56224 0.06000
H 	H 	0.79774 0.76629 0.61079 0.06300
H 	H 	0.76647 0.72251 0.64016 0.05700
C 	C 	0.61029 0.54314 0.48243 0.06100
C 	C 	0.66870 0.57460 0.49550 -0.11900
C 	C 	0.71060 0.59430 0.54870 0.10200
C 	C 	0.69490 0.58470 0.58460 -0.13600
C 	C 	0.64268 0.55640 0.56928 0.07400
C 	C 	0.77120 0.62890 0.56310 -0.10600
C 	C 	0.79860 0.68690 0.58790 0.08000
C 	C 	0.77060 0.72060 0.60100 -0.18000
N 	N 	0.59606 0.53582 0.51844 -0.24600
H 	H 	0.92710 0.36412 0.94978 0.00100
H 	H 	0.82241 0.28378 0.90416 0.05200
H 	H 	0.77099 0.40181 0.87320 0.05300
H 	H 	0.86980 0.46986 0.91510 -0.00400
H 	H 	0.77132 0.33162 0.97436 0.06700
H 	H 	0.69933 0.31631 0.96713 0.06900
H 	H 	0.73934 0.37526 0.95654 0.06400
C 	C 	0.88971 0.37214 0.93285 0.06600
C 	C 	0.83130 0.32680 0.90590 -0.11500
C 	C 	0.78940 0.33810 0.88370 0.10300
C 	C 	0.80510 0.38970 0.88980 -0.13600
C 	C 	0.85732 0.42660 0.91372 0.07700
C 	C 	0.72880 0.29190 0.85770 -0.10700
C 	C 	0.70140 0.28930 0.88830 0.08200
C 	C 	0.72940 0.33040 0.95000 -0.18300
N 	N 	0.90394 0.42238 0.93976 -0.23700
H 	H 	0.91434 0.97733 0.55022 0.00100
H 	H 	0.87962 0.91825 0.59584 0.04500
H 	H 	0.02861 0.89779 0.62680 0.01100
H 	H 	0.05476 0.95471 0.58490 0.01600
H 	H 	0.83538 0.74077 0.52810 0.06100
H 	H 	0.91120 0.76348 0.54431 0.05900
H 	H 	0.87859 0.80772 0.52957 0.06100
C 	C 	0.93929 0.95686 0.56715 0.05300
C 	C 	0.92090 0.92540 0.59410 -0.08500
C 	C 	0.95440 0.90570 0.61630 0.04800
C 	C 	0.99990 0.91530 0.61020 -0.01600
C 	C 	0.01288 0.94360 0.58628 -0.02600
C 	C 	0.93420 0.87110 0.64230 -0.08000
C 	C 	0.90100 0.81310 0.61170 0.07100
C 	C 	0.88040 0.77940 0.55000 -0.17400
N 	N 	0.98262 0.96418 0.56024 -0.20500
H 	H 	0.06299 0.58566 0.13588 -0.01100
H 	H 	0.03863 0.62038 0.21622 0.04900
H 	H 	0.86918 0.47139 0.09819 0.05200
H 	H 	0.89995 0.44524 0.03014 -0.01700
H 	H 	0.85293 0.58772 0.13206 0.05400
H 	H 	0.93047 0.62337 0.15253 0.06400
H 	H 	0.90340 0.66374 0.19222 0.06300
C 	C 	0.01757 0.56071 0.12786 0.04100
C 	C 	0.00450 0.57910 0.17320 -0.15300
C 	C 	0.95130 0.54560 0.16190 0.13800
C 	C 	0.91540 0.50010 0.11030 -0.15300
C 	C 	0.93072 0.48712 0.07340 0.08400
C 	C 	0.93690 0.56580 0.20810 -0.10800
C 	C 	0.91210 0.59900 0.21070 0.08100
C 	C 	0.89900 0.61960 0.16960 -0.18000
N 	N 	0.98156 0.51738 0.07762 -0.23100
H 	H 	0.43701 0.57290 0.52267 -0.01200
H 	H 	0.46137 0.67759 0.58175 0.04800
H 	H 	0.63082 0.72901 0.60221 0.05200
H 	H 	0.60005 0.63020 0.54529 -0.00800
H 	H 	0.63924 0.76512 0.72126 0.05800
H 	H 	0.56172 0.72641 0.70006 0.06100
H 	H 	0.61224 0.79848 0.76670 0.06400
C 	C 	0.48243 0.61029 0.54314 0.06100
C 	C 	0.49550 0.66870 0.57460 -0.11800
C 	C 	0.54870 0.71060 0.59430 0.10200
C 	C 	0.58460 0.69490 0.58470 -0.13700
C 	C 	0.56928 0.64268 0.55640 0.07400
C 	C 	0.56310 0.77120 0.62890 -0.10700
C 	C 	0.58790 0.79860 0.68690 0.08100
C 	C 	0.60100 0.77060 0.72060 -0.18100
N 	N 	0.51844 0.59606 0.53582 -0.24600
H 	H 	0.94978 0.92710 0.36412 0.00200
H 	H 	0.90416 0.82241 0.28378 0.05200
H 	H 	0.87320 0.77099 0.40181 0.05300
H 	H 	0.91510 0.86980 0.46986 -0.00500
H 	H 	0.97131 0.71039 0.30807 0.06800
H 	H 	0.95566 0.72181 0.36848 0.06300
H 	H 	0.97106 0.77779 0.34663 0.06800
C 	C 	0.93285 0.88971 0.37214 0.06600
C 	C 	0.90590 0.83130 0.32680 -0.11500
C 	C 	0.88370 0.78940 0.33810 0.10200
C 	C 	0.88980 0.80510 0.38970 -0.13500
C 	C 	0.91372 0.85732 0.42660 0.07700
C 	C 	0.85770 0.72880 0.29190 -0.10600
C 	C 	0.88830 0.70140 0.28930 0.08100
C 	C 	0.95000 0.72940 0.33040 -0.18200
N 	N 	0.93976 0.90394 0.42238 -0.23700
H 	H 	0.55022 0.91434 0.97733 0.00000
H 	H 	0.59584 0.87962 0.91825 0.04500
H 	H 	0.62680 0.02861 0.89779 0.01200
H 	H 	0.58490 0.05476 0.95471 0.01500
H 	H 	0.52398 0.84380 0.78444 0.05900
H 	H 	0.53672 0.86397 0.73188 0.06400
H 	H 	0.54128 0.91740 0.79565 0.06200
C 	C 	0.56715 0.93929 0.95686 0.05300
C 	C 	0.59410 0.92090 0.92540 -0.08700
C 	C 	0.61630 0.95440 0.90570 0.05100
C 	C 	0.61020 0.99990 0.91530 -0.02200
C 	C 	0.58628 0.01288 0.94360 -0.02100
C 	C 	0.64230 0.93420 0.87110 -0.08200
C 	C 	0.61170 0.90100 0.81310 0.07100
C 	C 	0.55000 0.88040 0.77940 -0.17700
N 	N 	0.56024 0.98262 0.96418 -0.20700
H 	H 	0.13588 0.06299 0.58566 -0.01100
H 	H 	0.21622 0.03863 0.62038 0.04900
H 	H 	0.09819 0.86918 0.47139 0.05100
H 	H 	0.03014 0.89995 0.44524 -0.01800
H 	H 	0.18599 0.88726 0.65410 0.06400
H 	H 	0.12575 0.86109 0.58193 0.05500
H 	H 	0.16507 0.93845 0.63881 0.06400
C 	C 	0.12786 0.01757 0.56071 0.04200
C 	C 	0.17320 0.00450 0.57910 -0.15100
C 	C 	0.16190 0.95130 0.54560 0.13700
C 	C 	0.11030 0.91540 0.50010 -0.15300
C 	C 	0.07340 0.93072 0.48712 0.08400
C 	C 	0.20810 0.93690 0.56580 -0.10800
C 	C 	0.21070 0.91210 0.59900 0.08100
C 	C 	0.16960 0.89900 0.61960 -0.18100
N 	N 	0.07762 0.98156 0.51738 -0.23200
H 	H 	0.52267 0.43701 0.57290 -0.01200
H 	H 	0.58175 0.46137 0.67759 0.04900
H 	H 	0.60221 0.63082 0.72901 0.05200
H 	H 	0.54529 0.60005 0.63020 -0.00800
H 	H 	0.69252 0.57032 0.72193 0.06100
H 	H 	0.75969 0.59541 0.78794 0.06200
H 	H 	0.73582 0.64747 0.78014 0.05800
C 	C 	0.54314 0.48243 0.61029 0.06100
C 	C 	0.57460 0.49550 0.66870 -0.11900
C 	C 	0.59430 0.54870 0.71060 0.10000
C 	C 	0.58470 0.58460 0.69490 -0.13600
C 	C 	0.55640 0.56928 0.64268 0.07300
C 	C 	0.62890 0.56310 0.77120 -0.10600
C 	C 	0.68690 0.58790 0.79860 0.08000
C 	C 	0.72060 0.60100 0.77060 -0.18000
N 	N 	0.53582 0.51844 0.59606 -0.24600
H 	H 	0.36412 0.94978 0.92710 0.00100
H 	H 	0.28378 0.90416 0.82241 0.05200
H 	H 	0.40181 0.87320 0.77099 0.05300
H 	H 	0.46986 0.91510 0.86980 -0.00400
H 	H 	0.30828 0.97116 0.70987 0.06800
H 	H 	0.36884 0.95566 0.72244 0.06200
H 	H 	0.34606 0.97121 0.77768 0.06800
C 	C 	0.37214 0.93285 0.88971 0.06600
C 	C 	0.32680 0.90590 0.83130 -0.11600
C 	C 	0.33810 0.88370 0.78940 0.10200
C 	C 	0.38970 0.88980 0.80510 -0.13500
C 	C 	0.42660 0.91372 0.85732 0.07600
C 	C 	0.29190 0.85770 0.72880 -0.10600
C 	C 	0.28930 0.88830 0.70140 0.08200
C 	C 	0.33040 0.95000 0.72940 -0.18200
N 	N 	0.42238 0.93976 0.90394 -0.23700
H 	H 	0.97733 0.55022 0.91434 0.00100
H 	H 	0.91825 0.59584 0.87962 0.04500
H 	H 	0.89779 0.62680 0.02861 0.01300
H 	H 	0.95471 0.58490 0.05476 0.01500
H 	H 	0.80152 0.52679 0.86429 0.06000
H 	H 	0.73414 0.53115 0.84356 0.06200
H 	H 	0.77631 0.54403 0.91731 0.06000
C 	C 	0.95686 0.56715 0.93929 0.05300
C 	C 	0.92540 0.59410 0.92090 -0.08800
C 	C 	0.90570 0.61630 0.95440 0.04900
C 	C 	0.91530 0.61020 0.99990 -0.02000
C 	C 	0.94360 0.58628 0.01288 -0.02200
C 	C 	0.87110 0.64230 0.93420 -0.08100
C 	C 	0.81310 0.61170 0.90100 0.07000
C 	C 	0.77940 0.55000 0.88040 -0.17600
N 	N 	0.96418 0.56024 0.98262 -0.20600
H 	H 	0.97733 0.92710 0.06299 0.00400
H 	H 	0.91825 0.82241 0.03863 0.05400
H 	H 	0.89779 0.77099 0.86918 0.05700
H 	H 	0.95471 0.86980 0.89995 -0.00300
H 	H 	0.73384 0.69526 0.86152 0.06400
H 	H 	0.80100 0.76127 0.88662 0.06200
H 	H 	0.77713 0.75347 0.93867 0.06500
C 	C 	0.95686 0.88971 0.01757 0.04700
C 	C 	0.92540 0.83130 0.00450 -0.14700
C 	C 	0.90570 0.78940 0.95130 0.13600
C 	C 	0.91530 0.80510 0.91540 -0.15100
C 	C 	0.94360 0.85732 0.93072 0.08800
C 	C 	0.87110 0.72880 0.93690 -0.10800
C 	C 	0.81310 0.70140 0.91210 0.08500
C 	C 	0.77940 0.72940 0.89900 -0.18200
N 	N 	0.96418 0.90394 0.98156 -0.22100
H 	H 	0.36412 0.91434 0.43701 -0.00700
H 	H 	0.28378 0.87962 0.46137 0.04200
H 	H 	0.40181 0.02861 0.63082 0.01000
H 	H 	0.46986 0.05476 0.60005 0.01100
H 	H 	0.36812 0.90421 0.59606 0.06200
H 	H 	0.30787 0.83204 0.56988 0.05800
H 	H 	0.34720 0.88892 0.64725 0.06100
C 	C 	0.37214 0.93929 0.48243 0.04900
C 	C 	0.32680 0.92090 0.49550 -0.08700
C 	C 	0.33810 0.95440 0.54870 0.04400
C 	C 	0.38970 0.99990 0.58460 -0.01900
C 	C 	0.42660 0.01288 0.56928 -0.02800
C 	C 	0.29190 0.93420 0.56310 -0.08000
C 	C 	0.28930 0.90100 0.58790 0.07200
C 	C 	0.33040 0.88040 0.60100 -0.17400
N 	N 	0.42238 0.98262 0.51844 -0.21100
H 	H 	0.52267 0.58566 0.94978 -0.00500
H 	H 	0.58175 0.62038 0.90416 0.05200
H 	H 	0.60221 0.47139 0.87320 0.05300
H 	H 	0.54529 0.44524 0.91510 -0.00500
H 	H 	0.76021 0.61418 0.95881 0.06700
H 	H 	0.69282 0.59345 0.96317 0.06800
H 	H 	0.73500 0.66720 0.97605 0.06600
C 	C 	0.54314 0.56071 0.93285 0.06400
C 	C 	0.57460 0.57910 0.90590 -0.11500
C 	C 	0.59430 0.54560 0.88370 0.10200
C 	C 	0.58470 0.50010 0.88980 -0.13700
C 	C 	0.55640 0.48712 0.91372 0.07600
C 	C 	0.62890 0.56580 0.85770 -0.10700
C 	C 	0.68690 0.59900 0.88830 0.08500
C 	C 	0.72060 0.61960 0.95000 -0.18300
N 	N 	0.53582 0.51738 0.93976 -0.24000
H 	H 	0.13588 0.57290 0.55022 -0.01200
H 	H 	0.21622 0.67759 0.59584 0.04900
H 	H 	0.09819 0.72901 0.62680 0.04800
H 	H 	0.03014 0.63020 0.58490 -0.01800
H 	H 	0.12616 0.73654 0.53914 0.05800
H 	H 	0.18672 0.74911 0.52364 0.05700
H 	H 	0.16394 0.80435 0.53919 0.06100
C 	C 	0.12786 0.61029 0.56715 0.05900
C 	C 	0.17320 0.66870 0.59410 -0.11700
C 	C 	0.16190 0.71060 0.61630 0.10000
C 	C 	0.11030 0.69490 0.61020 -0.13900
C 	C 	0.07340 0.64268 0.58628 0.07100
C 	C 	0.20810 0.77120 0.64230 -0.10700
C 	C 	0.21070 0.79860 0.61170 0.08200
C 	C 	0.16960 0.77060 0.55000 -0.18000
N 	N 	0.07762 0.59606 0.56024 -0.24800
H 	H 	0.57290 0.55022 0.13588 -0.01200
H 	H 	0.67759 0.59584 0.21622 0.04900
H 	H 	0.72901 0.62680 0.09819 0.04900
H 	H 	0.63020 0.58490 0.03014 -0.01700
H 	H 	0.79800 0.54235 0.14949 0.05800
H 	H 	0.72600 0.53511 0.13418 0.05900
H 	H 	0.76601 0.52452 0.19313 0.05800
C 	C 	0.61029 0.56715 0.12786 0.05900
C 	C 	0.66870 0.59410 0.17320 -0.11800
C 	C 	0.71060 0.61630 0.16190 0.09900
C 	C 	0.69490 0.61020 0.11030 -0.13800
C 	C 	0.64268 0.58628 0.07340 0.07100
C 	C 	0.77120 0.64230 0.20810 -0.10600
C 	C 	0.79860 0.61170 0.21070 0.08200
C 	C 	0.77060 0.55000 0.16960 -0.17900
N 	N 	0.59606 0.56024 0.07762 -0.24800
H 	H 	0.58566 0.94978 0.52267 -0.00600
H 	H 	0.62038 0.90416 0.58175 0.05200
H 	H 	0.47139 0.87320 0.60221 0.05300
H 	H 	0.44524 0.91510 0.54529 -0.00600
H 	H 	0.58527 0.96011 0.69946 0.06700
H 	H 	0.66109 0.97632 0.72216 0.06600
H 	H 	0.62848 0.96159 0.76641 0.06900
C 	C 	0.56071 0.93285 0.54314 0.06400
C 	C 	0.57910 0.90590 0.57460 -0.11600
C 	C 	0.54560 0.88370 0.59430 0.10100
C 	C 	0.50010 0.88980 0.58470 -0.13700
C 	C 	0.48712 0.91372 0.55640 0.07600
C 	C 	0.56580 0.85770 0.62890 -0.10700
C 	C 	0.59900 0.88830 0.68690 0.08400
C 	C 	0.61960 0.95000 0.72060 -0.18300
N 	N 	0.51738 0.93976 0.53582 -0.24000
H 	H 	0.91434 0.43701 0.36412 -0.00600
H 	H 	0.87962 0.46137 0.28378 0.04200
H 	H 	0.02861 0.63082 0.40181 0.00800
H 	H 	0.05476 0.60005 0.46986 0.01100
H 	H 	0.91098 0.60655 0.37261 0.06200
H 	H 	0.83522 0.56402 0.31154 0.05700
H 	H 	0.87897 0.64263 0.33904 0.06200
C 	C 	0.93929 0.48243 0.37214 0.04800
C 	C 	0.92090 0.49550 0.32680 -0.08500
C 	C 	0.95440 0.54870 0.33810 0.04200
C 	C 	0.99990 0.58460 0.38970 -0.01400
C 	C 	0.01288 0.56928 0.42660 -0.03300
C 	C 	0.93420 0.56310 0.29190 -0.07900
C 	C 	0.90100 0.58790 0.28930 0.07100
C 	C 	0.88040 0.60100 0.33040 -0.17500
N 	N 	0.98262 0.51844 0.42238 -0.20900
H 	H 	0.92710 0.06299 0.97733 0.00400
H 	H 	0.82241 0.03863 0.91825 0.05400
H 	H 	0.77099 0.86918 0.89779 0.05700
H 	H 	0.86980 0.89995 0.95471 -0.00300
H 	H 	0.69913 0.85345 0.74054 0.06200
H 	H 	0.77107 0.90199 0.80760 0.06400
H 	H 	0.73980 0.93137 0.76383 0.06400
C 	C 	0.88971 0.01757 0.95686 0.04700
C 	C 	0.83130 0.00450 0.92540 -0.14700
C 	C 	0.78940 0.95130 0.90570 0.13400
C 	C 	0.80510 0.91540 0.91530 -0.15100
C 	C 	0.85732 0.93072 0.94360 0.08700
C 	C 	0.72880 0.93690 0.87110 -0.10900
C 	C 	0.70140 0.91210 0.81310 0.08600
C 	C 	0.72940 0.89900 0.77940 -0.18100
N 	N 	0.90394 0.98156 0.96418 -0.22100
H 	H 	0.94978 0.52267 0.58566 -0.00500
H 	H 	0.90416 0.58175 0.62038 0.05200
H 	H 	0.87320 0.60221 0.47139 0.05300
H 	H 	0.91510 0.54529 0.44524 -0.00500
H 	H 	0.95600 0.74313 0.59369 0.06300
H 	H 	0.96873 0.69057 0.61386 0.06800
H 	H 	0.97329 0.75433 0.66729 0.06700
C 	C 	0.93285 0.54314 0.56071 0.06400
C 	C 	0.90590 0.57460 0.57910 -0.11600
C 	C 	0.88370 0.59430 0.54560 0.10000
C 	C 	0.88980 0.58470 0.50010 -0.13600
C 	C 	0.91372 0.55640 0.48712 0.07600
C 	C 	0.85770 0.62890 0.56580 -0.10600
C 	C 	0.88830 0.68690 0.59900 0.08400
C 	C 	0.95000 0.72060 0.61960 -0.18100
N 	N 	0.93976 0.53582 0.51738 -0.24000
H 	H 	0.55022 0.13588 0.57290 -0.01200
H 	H 	0.59584 0.21622 0.67759 0.04900
H 	H 	0.62680 0.09819 0.72901 0.04800
H 	H 	0.58490 0.03014 0.63020 -0.01700
H 	H 	0.53929 0.12595 0.73707 0.05800
H 	H 	0.52364 0.18636 0.74848 0.05800
H 	H 	0.53904 0.16451 0.80446 0.06100
C 	C 	0.56715 0.12786 0.61029 0.05900
C 	C 	0.59410 0.17320 0.66870 -0.11700
C 	C 	0.61630 0.16190 0.71060 0.10000
C 	C 	0.61020 0.11030 0.69490 -0.13900
C 	C 	0.58628 0.07340 0.64268 0.07100
C 	C 	0.64230 0.20810 0.77120 -0.10700
C 	C 	0.61170 0.21070 0.79860 0.08200
C 	C 	0.55000 0.16960 0.77060 -0.18000
N 	N 	0.56024 0.07762 0.59606 -0.24800
H 	H 	0.06299 0.97733 0.92710 0.00300
H 	H 	0.03863 0.91825 0.82241 0.05300
H 	H 	0.86918 0.89779 0.77099 0.05700
H 	H 	0.89995 0.95471 0.86980 -0.00300
H 	H 	0.93044 0.76258 0.73845 0.06400
H 	H 	0.85292 0.74138 0.69973 0.06200
H 	H 	0.90345 0.80802 0.77181 0.06400
C 	C 	0.01757 0.95686 0.88971 0.04600
C 	C 	0.00450 0.92540 0.83130 -0.15000
C 	C 	0.95130 0.90570 0.78940 0.13500
C 	C 	0.91540 0.91530 0.80510 -0.15000
C 	C 	0.93072 0.94360 0.85732 0.08700
C 	C 	0.93690 0.87110 0.72880 -0.10800
C 	C 	0.91210 0.81310 0.70140 0.08400
C 	C 	0.89900 0.77940 0.72940 -0.18100
N 	N 	0.98156 0.96418 0.90394 -0.22000
H 	H 	0.43701 0.36412 0.91434 -0.00700
H 	H 	0.46137 0.28378 0.87962 0.04200
H 	H 	0.63082 0.40181 0.02861 0.00900
H 	H 	0.60005 0.46986 0.05476 0.01000
H 	H 	0.56173 0.31419 0.83783 0.05800
H 	H 	0.63927 0.33466 0.87348 0.06300
H 	H 	0.61220 0.37435 0.91385 0.06200
C 	C 	0.48243 0.37214 0.93929 0.04900
C 	C 	0.49550 0.32680 0.92090 -0.08700
C 	C 	0.54870 0.33810 0.95440 0.04500
C 	C 	0.58460 0.38970 0.99990 -0.02000
C 	C 	0.56928 0.42660 0.01288 -0.02800
C 	C 	0.56310 0.29190 0.93420 -0.08100
C 	C 	0.58790 0.28930 0.90100 0.07200
C 	C 	0.60100 0.33040 0.88040 -0.17600
N 	N 	0.51844 0.42238 0.98262 -0.21100
H 	H 	0.41434 0.86412 0.93701 -0.01100
H 	H 	0.37962 0.78378 0.96137 0.04900
H 	H 	0.52861 0.90181 0.13082 0.05300
H 	H 	0.55476 0.96986 0.10005 0.00200
H 	H 	0.33522 0.81154 0.06402 0.05400
H 	H 	0.41098 0.87261 0.10655 0.06200
H 	H 	0.37897 0.83904 0.14263 0.06300
C 	C 	0.43929 0.87214 0.98243 0.07900
C 	C 	0.42090 0.82680 0.99550 -0.08200
C 	C 	0.45440 0.83810 0.04870 0.06500
C 	C 	0.49990 0.88970 0.08460 -0.12100
C 	C 	0.51288 0.92660 0.06928 0.06300
C 	C 	0.43420 0.79190 0.06310 -0.10300
C 	C 	0.40100 0.78930 0.08790 0.07900
C 	C 	0.38040 0.83040 0.10100 -0.17900
N 	N 	0.48262 0.92238 0.01844 -0.25600
H 	H 	0.42710 0.47733 0.56299 -0.01100
H 	H 	0.32241 0.41825 0.53863 0.04900
H 	H 	0.27099 0.39779 0.36918 0.05200
H 	H 	0.36980 0.45471 0.39995 -0.00800
H 	H 	0.27107 0.30760 0.40199 0.06100
H 	H 	0.19913 0.24054 0.35345 0.06200
H 	H 	0.23980 0.26383 0.43137 0.05900
C 	C 	0.38971 0.45686 0.51757 0.06000
C 	C 	0.33130 0.42540 0.50450 -0.11600
C 	C 	0.28940 0.40570 0.45130 0.09900
C 	C 	0.30510 0.41530 0.41540 -0.13700
C 	C 	0.35732 0.44360 0.43072 0.07300
C 	C 	0.22880 0.37110 0.43690 -0.10600
C 	C 	0.20140 0.31310 0.41210 0.08100
C 	C 	0.22940 0.27940 0.39900 -0.17900
N 	N 	0.40394 0.46418 0.48156 -0.24600
H 	H 	0.07290 0.63588 0.05022 -0.02400
H 	H 	0.17759 0.71622 0.09584 0.04500
H 	H 	0.22901 0.59819 0.12680 0.05100
H 	H 	0.13020 0.53014 0.08490 -0.01100
H 	H 	0.22600 0.63418 0.03511 0.05500
H 	H 	0.29800 0.64949 0.04235 0.05500
H 	H 	0.26601 0.69313 0.02452 0.05300
C 	C 	0.11029 0.62786 0.06715 0.05500
C 	C 	0.16870 0.67320 0.09410 -0.12000
C 	C 	0.21060 0.66190 0.11630 0.09800
C 	C 	0.19490 0.61030 0.11020 -0.13800
C 	C 	0.14268 0.57340 0.08628 0.06900
C 	C 	0.27120 0.70810 0.14230 -0.10500
C 	C 	0.29860 0.71070 0.11170 0.07900
C 	C 	0.27060 0.66960 0.05000 -0.17600
N 	N 	0.09606 0.57762 0.06024 -0.25100
H 	H 	0.08566 0.02267 0.44978 -0.02300
H 	H 	0.12038 0.08175 0.40416 0.05300
H 	H 	0.97139 0.10221 0.37320 0.09400
H 	H 	0.94524 0.04529 0.41510 -0.03200
H 	H 	0.16109 0.22216 0.47632 0.05900
H 	H 	0.08527 0.19946 0.46011 0.05800
H 	H 	0.12848 0.26641 0.46159 0.06400
C 	C 	0.06071 0.04314 0.43285 0.06900
C 	C 	0.07910 0.07460 0.40590 -0.15000
C 	C 	0.04560 0.09430 0.38370 0.15600
C 	C 	0.00010 0.08470 0.38980 -0.26000
C 	C 	0.98712 0.05640 0.41372 0.17500
C 	C 	0.06580 0.12890 0.35770 -0.13200
C 	C 	0.09900 0.18690 0.38830 0.09000
C 	C 	0.11960 0.22060 0.45000 -0.18500
N 	N 	0.01738 0.03582 0.43976 -0.28300
H 	H 	0.93701 0.41434 0.86412 -0.01100
H 	H 	0.96137 0.37962 0.78378 0.04900
H 	H 	0.13082 0.52861 0.90181 0.05200
H 	H 	0.10005 0.55476 0.96986 0.00200
H 	H 	0.13927 0.37348 0.83466 0.06400
H 	H 	0.06173 0.33783 0.81419 0.05500
H 	H 	0.11220 0.41385 0.87435 0.06200
C 	C 	0.98243 0.43929 0.87214 0.08000
C 	C 	0.99550 0.42090 0.82680 -0.08100
C 	C 	0.04870 0.45440 0.83810 0.06400
C 	C 	0.08460 0.49990 0.88970 -0.12100
C 	C 	0.06928 0.51288 0.92660 0.06300
C 	C 	0.06310 0.43420 0.79190 -0.10400
C 	C 	0.08790 0.40100 0.78930 0.08000
C 	C 	0.10100 0.38040 0.83040 -0.18000
N 	N 	0.01844 0.48262 0.92238 -0.25700
H 	H 	0.56299 0.42710 0.47733 -0.01100
H 	H 	0.53863 0.32241 0.41825 0.04900
H 	H 	0.36918 0.27099 0.39779 0.05200
H 	H 	0.39995 0.36980 0.45471 -0.00800
H 	H 	0.35292 0.19973 0.24138 0.06100
H 	H 	0.43044 0.23845 0.26258 0.05800
H 	H 	0.40345 0.27181 0.30802 0.06100
C 	C 	0.51757 0.38971 0.45686 0.06000
C 	C 	0.50450 0.33130 0.42540 -0.11700
C 	C 	0.45130 0.28940 0.40570 0.09900
C 	C 	0.41540 0.30510 0.41530 -0.13700
C 	C 	0.43072 0.35732 0.44360 0.07200
C 	C 	0.43690 0.22880 0.37110 -0.10500
C 	C 	0.41210 0.20140 0.31310 0.08000
C 	C 	0.39900 0.22940 0.27940 -0.17900
N 	N 	0.48156 0.40394 0.46418 -0.24600
H 	H 	0.05022 0.07290 0.63588 -0.02400
H 	H 	0.09584 0.17759 0.71622 0.04500
H 	H 	0.12680 0.22901 0.59819 0.05100
H 	H 	0.08490 0.13020 0.53014 -0.01100
H 	H 	0.02364 0.24848 0.68636 0.05200
H 	H 	0.03929 0.23707 0.62595 0.05400
H 	H 	0.03904 0.30446 0.66451 0.05800
C 	C 	0.06715 0.11029 0.62786 0.05500
C 	C 	0.09410 0.16870 0.67320 -0.12000
C 	C 	0.11630 0.21060 0.66190 0.09900
C 	C 	0.11020 0.19490 0.61030 -0.13800
C 	C 	0.08628 0.14268 0.57340 0.06900
C 	C 	0.14230 0.27120 0.70810 -0.10600
C 	C 	0.11170 0.29860 0.71070 0.08000
C 	C 	0.05000 0.27060 0.66960 -0.17800
N 	N 	0.06024 0.09606 0.57762 -0.25100
H 	H 	0.44978 0.08566 0.02267 -0.02200
H 	H 	0.40416 0.12038 0.08175 0.05300
H 	H 	0.37320 0.97139 0.10221 0.09200
H 	H 	0.41510 0.94524 0.04529 -0.03100
H 	H 	0.46873 0.11386 0.19057 0.06100
H 	H 	0.45600 0.09369 0.24313 0.05600
H 	H 	0.47329 0.16729 0.25433 0.06100
C 	C 	0.43285 0.06071 0.04314 0.06800
C 	C 	0.40590 0.07910 0.07460 -0.15000
C 	C 	0.38370 0.04560 0.09430 0.15100
C 	C 	0.38980 0.00010 0.08470 -0.25500
C 	C 	0.41372 0.98712 0.05640 0.17000
C 	C 	0.35770 0.06580 0.12890 -0.13400
C 	C 	0.38830 0.09900 0.18690 0.09200
C 	C 	0.45000 0.11960 0.22060 -0.18400
N 	N 	0.43976 0.01738 0.03582 -0.28200
H 	H 	0.86412 0.93701 0.41434 -0.01100
H 	H 	0.78378 0.96137 0.37962 0.04900
H 	H 	0.90181 0.13082 0.52861 0.05300
H 	H 	0.96986 0.10005 0.55476 0.00300
H 	H 	0.80787 0.06988 0.33204 0.05600
H 	H 	0.86812 0.09606 0.40421 0.06200
H 	H 	0.84720 0.14725 0.38892 0.06200
C 	C 	0.87214 0.98243 0.43929 0.07900
C 	C 	0.82680 0.99550 0.42090 -0.08300
C 	C 	0.83810 0.04870 0.45440 0.06500
C 	C 	0.88970 0.08460 0.49990 -0.12100
C 	C 	0.92660 0.06928 0.51288 0.06300
C 	C 	0.79190 0.06310 0.43420 -0.10300
C 	C 	0.78930 0.08790 0.40100 0.08000
C 	C 	0.83040 0.10100 0.38040 -0.17900
N 	N 	0.92238 0.01844 0.48262 -0.25600
H 	H 	0.47733 0.56299 0.42710 -0.01200
H 	H 	0.41825 0.53863 0.32241 0.04900
H 	H 	0.39779 0.36918 0.27099 0.05100
H 	H 	0.45471 0.39995 0.36980 -0.00800
H 	H 	0.30100 0.38662 0.26127 0.06000
H 	H 	0.23384 0.36152 0.19526 0.06300
H 	H 	0.27713 0.43867 0.25347 0.05800
C 	C 	0.45686 0.51757 0.38971 0.06000
C 	C 	0.42540 0.50450 0.33130 -0.11800
C 	C 	0.40570 0.45130 0.28940 0.10100
C 	C 	0.41530 0.41540 0.30510 -0.13700
C 	C 	0.44360 0.43072 0.35732 0.07300
C 	C 	0.37110 0.43690 0.22880 -0.10600
C 	C 	0.31310 0.41210 0.20140 0.08100
C 	C 	0.27940 0.39900 0.22940 -0.18000
N 	N 	0.46418 0.48156 0.40394 -0.24600
H 	H 	0.63588 0.05022 0.07290 -0.02300
H 	H 	0.71622 0.09584 0.17759 0.04600
H 	H 	0.59819 0.12680 0.22901 0.05100
H 	H 	0.53014 0.08490 0.13020 -0.01100
H 	H 	0.68672 0.02364 0.24911 0.05200
H 	H 	0.62616 0.03914 0.23654 0.05500
H 	H 	0.66394 0.03919 0.30435 0.05800
C 	C 	0.62786 0.06715 0.11029 0.05500
C 	C 	0.67320 0.09410 0.16870 -0.11900
C 	C 	0.66190 0.11630 0.21060 0.09900
C 	C 	0.61030 0.11020 0.19490 -0.13900
C 	C 	0.57340 0.08628 0.14268 0.07000
C 	C 	0.70810 0.14230 0.27120 -0.10600
C 	C 	0.71070 0.11170 0.29860 0.07900
C 	C 	0.66960 0.05000 0.27060 -0.17800
N 	N 	0.57762 0.06024 0.09606 -0.25100
H 	H 	0.02267 0.44978 0.08566 -0.02300
H 	H 	0.08175 0.40416 0.12038 0.05300
H 	H 	0.10221 0.37320 0.97139 0.09200
H 	H 	0.04529 0.41510 0.94524 -0.03100
H 	H 	0.19282 0.46317 0.09345 0.06000
H 	H 	0.26021 0.45881 0.11418 0.06200
H 	H 	0.23500 0.47605 0.16720 0.06000
C 	C 	0.04314 0.43285 0.06071 0.06800
C 	C 	0.07460 0.40590 0.07910 -0.14900
C 	C 	0.09430 0.38370 0.04560 0.15300
C 	C 	0.08470 0.38980 0.00010 -0.25700
C 	C 	0.05640 0.41372 0.98712 0.17100
C 	C 	0.12890 0.35770 0.06580 -0.13600
C 	C 	0.18690 0.38830 0.09900 0.09300
C 	C 	0.22060 0.45000 0.11960 -0.18500
N 	N 	0.03582 0.43976 0.01738 -0.28200
H 	H 	0.02267 0.07290 0.93701 -0.02600
H 	H 	0.08175 0.17759 0.96137 0.04400
H 	H 	0.10221 0.22901 0.13082 0.04700
H 	H 	0.04529 0.13020 0.10005 -0.01200
H 	H 	0.25969 0.28794 0.09541 0.05900
H 	H 	0.19252 0.22193 0.07032 0.05600
H 	H 	0.23582 0.28014 0.14747 0.05800
C 	C 	0.04314 0.11029 0.98243 0.07500
C 	C 	0.07460 0.16870 0.99550 -0.08900
C 	C 	0.09430 0.21060 0.04870 0.06500
C 	C 	0.08470 0.19490 0.08460 -0.12300
C 	C 	0.05640 0.14268 0.06928 0.05800
C 	C 	0.12890 0.27120 0.06310 -0.10800
C 	C 	0.18690 0.29860 0.08790 0.07800
C 	C 	0.22060 0.27060 0.10100 -0.17800
N 	N 	0.03582 0.09606 0.01844 -0.26600
H 	H 	0.63588 0.08566 0.56299 -0.01600
H 	H 	0.71622 0.12038 0.53863 0.05500
H 	H 	0.59819 0.97139 0.36918 0.09300
H 	H 	0.53014 0.94524 0.39995 -0.02600
H 	H 	0.62575 0.08193 0.36109 0.05600
H 	H 	0.68599 0.15410 0.38726 0.06400
H 	H 	0.66507 0.13881 0.43845 0.06100
C 	C 	0.62786 0.06071 0.51757 0.07200
C 	C 	0.67320 0.07910 0.50450 -0.14800
C 	C 	0.66190 0.04560 0.45130 0.15500
C 	C 	0.61030 0.00010 0.41540 -0.25500
C 	C 	0.57340 0.98712 0.43072 0.17400
C 	C 	0.70810 0.06580 0.43690 -0.13200
C 	C 	0.71070 0.09900 0.41210 0.08900
C 	C 	0.66960 0.11960 0.39900 -0.18500
N 	N 	0.57762 0.01738 0.48156 -0.27800
H 	H 	0.47733 0.41434 0.05022 -0.01700
H 	H 	0.41825 0.37962 0.09584 0.04500
H 	H 	0.39779 0.52861 0.12680 0.05000
H 	H 	0.45471 0.55476 0.08490 -0.01100
H 	H 	0.23414 0.34356 0.03115 0.05600
H 	H 	0.30152 0.36429 0.02679 0.05300
H 	H 	0.27631 0.41731 0.04403 0.05200
C 	C 	0.45686 0.43929 0.06715 0.05700
C 	C 	0.42540 0.42090 0.09410 -0.11900
C 	C 	0.40570 0.45440 0.11630 0.09900
C 	C 	0.41530 0.49990 0.11020 -0.13700
C 	C 	0.44360 0.51288 0.08628 0.07000
C 	C 	0.37110 0.43420 0.14230 -0.10500
C 	C 	0.31310 0.40100 0.11170 0.07600
C 	C 	0.27940 0.38040 0.05000 -0.17700
N 	N 	0.46418 0.48262 0.06024 -0.24900
H 	H 	0.86412 0.42710 0.44978 -0.01100
H 	H 	0.78378 0.32241 0.40416 0.04800
H 	H 	0.90181 0.27099 0.37320 0.05600
H 	H 	0.96986 0.36980 0.41510 0.00200
H 	H 	0.86884 0.22244 0.45566 0.06000
H 	H 	0.80828 0.20987 0.47116 0.06300
H 	H 	0.84606 0.27768 0.47121 0.06300
C 	C 	0.87214 0.38971 0.43285 0.06200
C 	C 	0.82680 0.33130 0.40590 -0.11800
C 	C 	0.83810 0.28940 0.38370 0.10100
C 	C 	0.88970 0.30510 0.38980 -0.13400
C 	C 	0.92660 0.35732 0.41372 0.07500
C 	C 	0.79190 0.22880 0.35770 -0.10500
C 	C 	0.78930 0.20140 0.38830 0.07900
C 	C 	0.83040 0.22940 0.45000 -0.18000
N 	N 	0.92238 0.40394 0.43976 -0.24100
H 	H 	0.42710 0.44978 0.86412 -0.01100
H 	H 	0.32241 0.40416 0.78378 0.04800
H 	H 	0.27099 0.37320 0.90181 0.05500
H 	H 	0.36980 0.41510 0.96986 0.00100
H 	H 	0.19933 0.46713 0.81631 0.06500
H 	H 	0.27132 0.47436 0.83162 0.06100
H 	H 	0.23934 0.45654 0.87526 0.06200
C 	C 	0.38971 0.43285 0.87214 0.06200
C 	C 	0.33130 0.40590 0.82680 -0.11700
C 	C 	0.28940 0.38370 0.83810 0.10200
C 	C 	0.30510 0.38980 0.88970 -0.13500
C 	C 	0.35732 0.41372 0.92660 0.07600
C 	C 	0.22880 0.35770 0.79190 -0.10600
C 	C 	0.20140 0.38830 0.78930 0.07900
C 	C 	0.22940 0.45000 0.83040 -0.18100
N 	N 	0.40394 0.43976 0.92238 -0.24200
H 	H 	0.41434 0.05022 0.47733 -0.01700
H 	H 	0.37962 0.09584 0.41825 0.04500
H 	H 	0.52861 0.12680 0.39779 0.05100
H 	H 	0.55476 0.08490 0.45471 -0.01000
H 	H 	0.41120 0.04431 0.26348 0.05100
H 	H 	0.33538 0.02810 0.24077 0.05500
H 	H 	0.37859 0.02957 0.30772 0.05400
C 	C 	0.43929 0.06715 0.45686 0.05700
C 	C 	0.42090 0.09410 0.42540 -0.11900
C 	C 	0.45440 0.11630 0.40570 0.10000
C 	C 	0.49990 0.11020 0.41530 -0.13700
C 	C 	0.51288 0.08628 0.44360 0.07000
C 	C 	0.43420 0.14230 0.37110 -0.10500
C 	C 	0.40100 0.11170 0.31310 0.07700
C 	C 	0.38040 0.05000 0.27940 -0.17500
N 	N 	0.48262 0.06024 0.46418 -0.24900
H 	H 	0.08566 0.56299 0.63588 -0.01600
H 	H 	0.12038 0.53863 0.71622 0.05600
H 	H 	0.97139 0.36918 0.59819 0.09600
H 	H 	0.94524 0.39995 0.53014 -0.02700
H 	H 	0.08511 0.35522 0.62941 0.05600
H 	H 	0.16087 0.39775 0.69049 0.06300
H 	H 	0.12886 0.43383 0.65692 0.06100
C 	C 	0.06071 0.51757 0.62786 0.07300
C 	C 	0.07910 0.50450 0.67320 -0.15000
C 	C 	0.04560 0.45130 0.66190 0.15800
C 	C 	0.00010 0.41540 0.61030 -0.26000
C 	C 	0.98712 0.43072 0.57340 0.17900
C 	C 	0.06580 0.43690 0.70810 -0.13400
C 	C 	0.09900 0.41210 0.71070 0.09000
C 	C 	0.11960 0.39900 0.66960 -0.18500
N 	N 	0.01738 0.48156 0.57762 -0.28000
H 	H 	0.07290 0.93701 0.02267 -0.02600
H 	H 	0.17759 0.96137 0.08175 0.04300
H 	H 	0.22901 0.13082 0.10221 0.04700
H 	H 	0.13020 0.10005 0.04529 -0.01300
H 	H 	0.29774 0.11079 0.26629 0.06100
H 	H 	0.22580 0.06224 0.19923 0.05400
H 	H 	0.26647 0.14016 0.22251 0.05700
C 	C 	0.11029 0.98243 0.04314 0.07500
C 	C 	0.16870 0.99550 0.07460 -0.08800
C 	C 	0.21060 0.04870 0.09430 0.06700
C 	C 	0.19490 0.08460 0.08470 -0.12300
C 	C 	0.14268 0.06928 0.05640 0.05900
C 	C 	0.27120 0.06310 0.12890 -0.10700
C 	C 	0.29860 0.08790 0.18690 0.07700
C 	C 	0.27060 0.10100 0.22060 -0.17800
N 	N 	0.09606 0.01844 0.03582 -0.26600
H 	H 	0.05022 0.47733 0.41434 -0.01800
H 	H 	0.09584 0.41825 0.37962 0.04500
H 	H 	0.12680 0.39779 0.52861 0.05000
H 	H 	0.08490 0.45471 0.55476 -0.01100
H 	H 	0.03672 0.23188 0.36397 0.05800
H 	H 	0.02398 0.28444 0.34380 0.05100
H 	H 	0.04128 0.29565 0.41740 0.05300
C 	C 	0.06715 0.45686 0.43929 0.05700
C 	C 	0.09410 0.42540 0.42090 -0.11900
C 	C 	0.11630 0.40570 0.45440 0.10100
C 	C 	0.11020 0.41530 0.49990 -0.13800
C 	C 	0.08628 0.44360 0.51288 0.07000
C 	C 	0.14230 0.37110 0.43420 -0.10600
C 	C 	0.11170 0.31310 0.40100 0.07700
C 	C 	0.05000 0.27940 0.38040 -0.17800
N 	N 	0.06024 0.46418 0.48262 -0.24900
H 	H 	0.44978 0.86412 0.42710 -0.01100
H 	H 	0.40416 0.78378 0.32241 0.04800
H 	H 	0.37320 0.90181 0.27099 0.05500
H 	H 	0.41510 0.96986 0.36980 0.00100
H 	H 	0.45566 0.86848 0.22181 0.06100
H 	H 	0.47131 0.80807 0.21039 0.06300
H 	H 	0.47106 0.84663 0.27779 0.06200
C 	C 	0.43285 0.87214 0.38971 0.06100
C 	C 	0.40590 0.82680 0.33130 -0.11800
C 	C 	0.38370 0.83810 0.28940 0.10100
C 	C 	0.38980 0.88970 0.30510 -0.13500
C 	C 	0.41372 0.92660 0.35732 0.07500
C 	C 	0.35770 0.79190 0.22880 -0.10500
C 	C 	0.38830 0.78930 0.20140 0.07900
C 	C 	0.45000 0.83040 0.22940 -0.18000
N 	N 	0.43976 0.92238 0.40394 -0.24200
H 	H 	0.93701 0.02267 0.07290 -0.02500
H 	H 	0.96137 0.08175 0.17759 0.04300
H 	H 	0.13082 0.10221 0.22901 0.04600
H 	H 	0.10005 0.04529 0.13020 -0.01200
H 	H 	0.06172 0.20006 0.22641 0.05300
H 	H 	0.13924 0.22126 0.26512 0.05700
H 	H 	0.11224 0.26670 0.29848 0.06100
C 	C 	0.98243 0.04314 0.11029 0.07600
C 	C 	0.99550 0.07460 0.16870 -0.08400
C 	C 	0.04870 0.09430 0.21060 0.06400
C 	C 	0.08460 0.08470 0.19490 -0.12200
C 	C 	0.06928 0.05640 0.14268 0.05800
C 	C 	0.06310 0.12890 0.27120 -0.10400
C 	C 	0.08790 0.18690 0.29860 0.07600
C 	C 	0.10100 0.22060 0.27060 -0.17800
N 	N 	0.01844 0.03582 0.09606 -0.26600
H 	H 	0.56299 0.63588 0.08566 -0.01600
H 	H 	0.53863 0.71622 0.12038 0.05600
H 	H 	0.36918 0.59819 0.97139 0.09400
H 	H 	0.39995 0.53014 0.94524 -0.02600
H 	H 	0.43047 0.65253 0.12337 0.06100
H 	H 	0.35293 0.63206 0.08772 0.05500
H 	H 	0.40340 0.69222 0.16374 0.06200
C 	C 	0.51757 0.62786 0.06071 0.07200
C 	C 	0.50450 0.67320 0.07910 -0.14900
C 	C 	0.45130 0.66190 0.04560 0.15500
C 	C 	0.41540 0.61030 0.00010 -0.25400
C 	C 	0.43072 0.57340 0.98712 0.17400
C 	C 	0.43690 0.70810 0.06580 -0.13100
C 	C 	0.41210 0.71070 0.09900 0.08900
C 	C 	0.39900 0.66960 0.11960 -0.18400
N 	N 	0.48156 0.57762 0.01738 -0.27800
Cd	Cd	0.50000 0.00000 -0.00000 1.17200
Cd	Cd	0.50000 0.50000 0.50000 1.18800
Cd	Cd	-0.00000 0.50000 -0.00000 1.17200
Cd	Cd	0.00000 0.00000 0.50000 1.17200
Cd	Cd	-0.00000 0.00000 -0.00000 1.16400
Cd	Cd	0.50000 0.00000 0.50000 1.18000
Cd	Cd	0.50000 0.50000 -0.00000 1.18000
Cd	Cd	0.00000 0.50000 0.50000 1.18000
C 	C 	0.51490 0.25000 0.98510 -0.13800
C 	C 	0.54930 0.25000 0.95070 0.06900
C 	C 	0.60760 0.25000 0.89240 -0.06000
C 	C 	0.76490 0.52980 0.51490 -0.17100
C 	C 	0.79930 0.59860 0.54930 0.07800
C 	C 	0.85760 0.71520 0.60760 -0.06200
C 	C 	0.73510 0.25000 0.76490 -0.17100
C 	C 	0.70070 0.25000 0.79930 0.07800
C 	C 	0.64240 0.25000 0.85760 -0.06400
C 	C 	0.98510 0.97020 0.73510 -0.14100
C 	C 	0.95070 0.90140 0.70070 0.07200
C 	C 	0.89240 0.78480 0.64240 -0.05900
C 	C 	0.98510 0.51490 0.25000 -0.13700
C 	C 	0.95070 0.54930 0.25000 0.06900
C 	C 	0.89240 0.60760 0.25000 -0.05700
C 	C 	0.51490 0.76490 0.52980 -0.17100
C 	C 	0.54930 0.79930 0.59860 0.07800
C 	C 	0.60760 0.85760 0.71520 -0.06400
C 	C 	0.76490 0.73510 0.25000 -0.17100
C 	C 	0.79930 0.70070 0.25000 0.07800
C 	C 	0.85760 0.64240 0.25000 -0.06300
C 	C 	0.73510 0.98510 0.97020 -0.14200
C 	C 	0.70070 0.95070 0.90140 0.07200
C 	C 	0.64240 0.89240 0.78480 -0.06100
C 	C 	0.25000 0.98510 0.51490 -0.13800
C 	C 	0.25000 0.95070 0.54930 0.06900
C 	C 	0.25000 0.89240 0.60760 -0.05900
C 	C 	0.52980 0.51490 0.76490 -0.17100
C 	C 	0.59860 0.54930 0.79930 0.07800
C 	C 	0.71520 0.60760 0.85760 -0.06500
C 	C 	0.25000 0.76490 0.73510 -0.17100
C 	C 	0.25000 0.79930 0.70070 0.07800
C 	C 	0.25000 0.85760 0.64240 -0.06400
C 	C 	0.97020 0.73510 0.98510 -0.14200
C 	C 	0.90140 0.70070 0.95070 0.07200
C 	C 	0.78480 0.64240 0.89240 -0.05800
C 	C 	0.48510 0.75000 0.01490 -0.20300
C 	C 	0.45070 0.75000 0.04930 0.08500
C 	C 	0.39240 0.75000 0.10760 -0.06400
C 	C 	0.23510 0.47020 0.48510 -0.17100
C 	C 	0.20070 0.40140 0.45070 0.07700
C 	C 	0.14240 0.28480 0.39240 -0.06300
C 	C 	0.26490 0.75000 0.23510 -0.17100
C 	C 	0.29930 0.75000 0.20070 0.07700
C 	C 	0.35760 0.75000 0.14240 -0.06000
C 	C 	0.01490 0.02980 0.26490 -0.20200
C 	C 	0.04930 0.09860 0.29930 0.08200
C 	C 	0.10760 0.21520 0.35760 -0.06600
C 	C 	0.01490 0.48510 0.75000 -0.20500
C 	C 	0.04930 0.45070 0.75000 0.08600
C 	C 	0.10760 0.39240 0.75000 -0.06800
C 	C 	0.48510 0.23510 0.47020 -0.17100
C 	C 	0.45070 0.20070 0.40140 0.07600
C 	C 	0.39240 0.14240 0.28480 -0.06000
C 	C 	0.23510 0.26490 0.75000 -0.17100
C 	C 	0.20070 0.29930 0.75000 0.07700
C 	C 	0.14240 0.35760 0.75000 -0.06100
C 	C 	0.26490 0.01490 0.02980 -0.23200
C 	C 	0.29930 0.04930 0.09860 0.08900
C 	C 	0.35760 0.10760 0.21520 -0.06600
C 	C 	0.75000 0.01490 0.48510 -0.20300
C 	C 	0.75000 0.04930 0.45070 0.08500
C 	C 	0.75000 0.10760 0.39240 -0.06600
C 	C 	0.47020 0.48510 0.23510 -0.17100
C 	C 	0.40140 0.45070 0.20070 0.07600
C 	C 	0.28480 0.39240 0.14240 -0.05900
C 	C 	0.75000 0.23510 0.26490 -0.17100
C 	C 	0.75000 0.20070 0.29930 0.07700
C 	C 	0.75000 0.14240 0.35760 -0.06100
C 	C 	0.02980 0.26490 0.01490 -0.23300
C 	C 	0.09860 0.29930 0.04930 0.09000
C 	C 	0.21520 0.35760 0.10760 -0.06900
H 	H 	0.53877 0.24852 0.02539 0.03600
H 	H 	0.46964 0.21054 0.95626 0.05500
H 	H 	0.51166 0.29094 0.99828 0.06200
H 	H 	0.78921 0.51338 0.49522 0.06000
H 	H 	0.71993 0.51338 0.47904 0.05900
H 	H 	0.76092 0.51338 0.54581 0.05800
H 	H 	0.70626 0.21054 0.71964 0.06100
H 	H 	0.77539 0.24852 0.78877 0.05900
H 	H 	0.74828 0.29094 0.76166 0.05900
H 	H 	0.95655 0.98662 0.71566 0.06200
H 	H 	0.02583 0.98662 0.73184 0.04100
H 	H 	0.99754 0.98662 0.78243 0.06900
H 	H 	0.02539 0.53877 0.24852 0.03500
H 	H 	0.95626 0.46964 0.21054 0.05500
H 	H 	0.99828 0.51166 0.29094 0.06200
H 	H 	0.46993 0.72904 0.51338 0.05800
H 	H 	0.53921 0.74522 0.51338 0.05900
H 	H 	0.51092 0.79581 0.51338 0.06100
H 	H 	0.71964 0.70626 0.21054 0.06100
H 	H 	0.78877 0.77539 0.24852 0.05900
H 	H 	0.76166 0.74828 0.29094 0.05900
H 	H 	0.77583 0.98184 0.98662 0.06700
H 	H 	0.70655 0.96566 0.98662 0.06400
H 	H 	0.74754 0.03243 0.98662 0.04300
H 	H 	0.20643 0.96015 0.47353 0.05600
H 	H 	0.28572 0.99017 0.50355 0.06100
H 	H 	0.25785 0.02961 0.54298 0.03600
H 	H 	0.51338 0.48986 0.71664 0.06000
H 	H 	0.51338 0.54674 0.77352 0.05800
H 	H 	0.51338 0.48347 0.77991 0.05900
H 	H 	0.28572 0.75355 0.74017 0.05800
H 	H 	0.20643 0.72353 0.71015 0.06000
H 	H 	0.25785 0.79298 0.77961 0.06000
H 	H 	0.98662 0.70326 0.97648 0.06600
H 	H 	0.98662 0.76014 0.03336 0.04300
H 	H 	0.98662 0.76653 0.97009 0.06600
H 	H 	0.45626 0.71054 0.96964 0.08100
H 	H 	0.52539 0.74852 0.03877 0.06100
H 	H 	0.49828 0.79094 0.01166 0.06000
H 	H 	0.20655 0.48662 0.46566 0.05900
H 	H 	0.27583 0.48662 0.48184 0.06000
H 	H 	0.24754 0.48662 0.53243 0.05800
H 	H 	0.28877 0.74852 0.27539 0.05800
H 	H 	0.21964 0.71054 0.20626 0.06000
H 	H 	0.26166 0.79094 0.24828 0.05800
H 	H 	0.03921 0.01338 0.24522 0.05400
H 	H 	0.96993 0.01338 0.22904 0.07400
H 	H 	0.01092 0.01338 0.29581 0.05500
H 	H 	0.96964 0.45626 0.71054 0.08200
H 	H 	0.03877 0.52539 0.74852 0.06100
H 	H 	0.01166 0.49828 0.79094 0.06000
H 	H 	0.52583 0.23184 0.48662 0.05900
H 	H 	0.45655 0.21566 0.48662 0.05700
H 	H 	0.49754 0.28243 0.48662 0.06100
H 	H 	0.27539 0.28877 0.74852 0.05800
H 	H 	0.20626 0.21964 0.71054 0.06000
H 	H 	0.24828 0.26166 0.79094 0.05800
H 	H 	0.21993 0.97904 0.01338 0.08000
H 	H 	0.28921 0.99522 0.01338 0.08500
H 	H 	0.26092 0.04581 0.01338 0.05800
H 	H 	0.78572 0.00355 0.49017 0.05900
H 	H 	0.70643 0.97353 0.46015 0.08200
H 	H 	0.75785 0.04298 0.52961 0.06100
H 	H 	0.48662 0.45326 0.22648 0.05700
H 	H 	0.48662 0.51014 0.28336 0.06000
H 	H 	0.48662 0.51653 0.22009 0.06000
H 	H 	0.70643 0.21015 0.22353 0.06000
H 	H 	0.78572 0.24017 0.25355 0.05700
H 	H 	0.75785 0.27961 0.29298 0.05900
H 	H 	0.01338 0.27352 0.04674 0.05800
H 	H 	0.01338 0.21664 0.98986 0.08200
H 	H 	0.01338 0.27991 0.98347 0.08300
