data_crystal

_cell_length_a 19.60840
_cell_length_b 11.90160
_cell_length_c 21.93640
_cell_angle_alpha 90.00000
_cell_angle_beta  97.18600
_cell_angle_gamma 90.00000

_symmetry_space_group_name_	'P 1'
_symmetry_space_group_name_H-M	'P 1'

loop_
_symmetry_equiv_pos_as_xyz
  x,y,z

loop_
_atom_site_label
_atom_site_type_symbol
_atom_site_fract_x
_atom_site_fract_y
_atom_site_fract_z
_atom_site_charge
Tb	Tb	0.83076 0.33084 0.47426 1.95400
O 	O 	0.80021 0.15739 0.51471 -0.57000
O 	O 	0.67796 0.13537 0.41949 -0.46800
O 	O 	0.74268 0.00212 0.52434 -0.44100
O 	O 	0.76697 0.23539 0.39205 -0.47000
C 	C 	0.66408 0.17440 0.21109 -0.03800
H 	H 	0.65050 0.22990 0.18080 0.05800
O 	O 	0.05228 0.71996 0.47769 -0.39000
O 	O 	0.08600 0.78222 0.57034 -0.39000
C 	C 	0.71848 0.16747 0.38192 0.45300
O 	O 	0.59540 0.09071 0.09798 -0.28100
C 	C 	0.68855 0.81718 0.34566 -0.12600
H 	H 	0.64930 0.80380 0.31660 0.07900
C 	C 	0.92061 0.82400 0.47762 -0.08200
H 	H 	0.92250 0.76360 0.44960 0.08900
O 	O 	0.65282 0.92960 0.11425 -0.45600
C 	C 	0.80073 0.86360 0.42918 0.08200
C 	C 	0.70080 0.01090 0.30168 0.03100
C 	C 	0.70320 0.12530 0.31697 -0.11300
C 	C 	0.97711 0.84650 0.52218 -0.01500
N 	N 	0.77696 0.94510 0.38954 -0.13100
C 	C 	0.86133 0.98240 0.51470 -0.13100
C 	C 	0.72289 0.92210 0.34791 0.08400
C 	C 	0.04178 0.77790 0.52357 0.28800
C 	C 	0.91787 0.00450 0.55822 0.03100
H 	H 	0.91710 0.06710 0.58500 0.02500
C 	C 	0.97525 0.93530 0.56244 -0.06800
H 	H 	0.01310 0.94900 0.59300 0.07300
C 	C 	0.63489 0.02420 0.13103 0.36400
C 	C 	0.68047 0.98080 0.24021 -0.04300
H 	H 	0.68030 0.90370 0.22900 0.06200
C 	C 	0.79766 0.05150 0.51725 0.42200
C 	C 	0.86182 0.89080 0.47482 0.05000
C 	C 	0.68729 0.20610 0.27073 0.01500
H 	H 	0.69250 0.28360 0.28060 0.03600
C 	C 	0.66058 0.06050 0.19545 -0.05800
C 	C 	0.77108 0.75640 0.42885 -0.12300
H 	H 	0.78980 0.70000 0.45670 0.09300
C 	C 	0.71372 0.73490 0.38688 0.05300
H 	H 	0.69170 0.66370 0.38650 0.02400
Tb	Tb	0.33076 0.83084 0.47426 1.95500
O 	O 	0.30021 0.65739 0.51471 -0.56900
O 	O 	0.17796 0.63537 0.41949 -0.46700
O 	O 	0.24268 0.50212 0.52434 -0.44000
O 	O 	0.26697 0.73539 0.39205 -0.46900
C 	C 	0.16408 0.67440 0.21109 -0.03600
H 	H 	0.15050 0.72990 0.18080 0.05800
O 	O 	0.55228 0.21996 0.47769 -0.38900
O 	O 	0.58600 0.28222 0.57034 -0.38900
C 	C 	0.21848 0.66747 0.38192 0.45400
O 	O 	0.09540 0.59071 0.09798 -0.28000
C 	C 	0.18855 0.31718 0.34566 -0.12500
H 	H 	0.14930 0.30380 0.31660 0.08000
C 	C 	0.42061 0.32400 0.47762 -0.08100
H 	H 	0.42250 0.26360 0.44960 0.09000
O 	O 	0.15282 0.42960 0.11425 -0.45400
C 	C 	0.30073 0.36360 0.42918 0.08300
C 	C 	0.20080 0.51090 0.30168 0.03200
C 	C 	0.20320 0.62530 0.31697 -0.11200
C 	C 	0.47711 0.34650 0.52218 -0.01400
N 	N 	0.27696 0.44510 0.38954 -0.13000
C 	C 	0.36133 0.48240 0.51470 -0.13000
C 	C 	0.22289 0.42210 0.34791 0.08500
C 	C 	0.54178 0.27790 0.52357 0.28900
C 	C 	0.41787 0.50450 0.55822 0.03200
H 	H 	0.41710 0.56710 0.58500 0.02700
C 	C 	0.47525 0.43530 0.56244 -0.06600
H 	H 	0.51310 0.44900 0.59300 0.07300
C 	C 	0.13489 0.52420 0.13103 0.36500
C 	C 	0.18047 0.48080 0.24021 -0.04100
H 	H 	0.18030 0.40370 0.22900 0.06200
C 	C 	0.29766 0.55150 0.51725 0.42200
C 	C 	0.36182 0.39080 0.47482 0.05000
C 	C 	0.18729 0.70610 0.27073 0.01400
H 	H 	0.19250 0.78360 0.28060 0.03600
C 	C 	0.16058 0.56050 0.19545 -0.05900
C 	C 	0.27108 0.25640 0.42885 -0.12400
H 	H 	0.28980 0.20000 0.45670 0.09300
C 	C 	0.21372 0.23490 0.38688 0.05300
H 	H 	0.19170 0.16370 0.38650 0.02400
Tb	Tb	0.16924 0.33084 0.02574 1.95200
O 	O 	0.19979 0.15739 0.98529 -0.56800
O 	O 	0.32204 0.13537 0.08051 -0.46800
O 	O 	0.25732 0.00212 0.97566 -0.43900
O 	O 	0.23303 0.23539 0.10795 -0.46900
C 	C 	0.33592 0.17440 0.28891 -0.03700
H 	H 	0.34950 0.22990 0.31920 0.05900
O 	O 	0.94772 0.71996 0.02231 -0.38600
O 	O 	0.91400 0.78222 0.92966 -0.38800
C 	C 	0.28152 0.16747 0.11808 0.45400
O 	O 	0.40460 0.09071 0.40202 -0.28000
C 	C 	0.31145 0.81718 0.15434 -0.12500
H 	H 	0.35070 0.80380 0.18340 0.08000
C 	C 	0.07939 0.82400 0.02238 -0.08400
H 	H 	0.07750 0.76360 0.05040 0.09000
O 	O 	0.34718 0.92960 0.38575 -0.45400
C 	C 	0.19927 0.86360 0.07082 0.08300
C 	C 	0.29920 0.01090 0.19832 0.03300
C 	C 	0.29680 0.12530 0.18303 -0.11200
C 	C 	0.02289 0.84650 0.97782 -0.01000
N 	N 	0.22304 0.94510 0.11046 -0.13000
C 	C 	0.13867 0.98240 0.98530 -0.12500
C 	C 	0.27711 0.92210 0.15209 0.08500
C 	C 	0.95822 0.77790 0.97643 0.28400
C 	C 	0.08213 0.00450 0.94178 0.02800
H 	H 	0.08290 0.06710 0.91500 0.02800
C 	C 	0.02475 0.93530 0.93756 -0.06200
H 	H 	0.98690 0.94900 0.90700 0.07000
C 	C 	0.36511 0.02420 0.36897 0.36500
C 	C 	0.31953 0.98080 0.25979 -0.04200
H 	H 	0.31970 0.90370 0.27100 0.06200
C 	C 	0.20234 0.05150 0.98275 0.42100
C 	C 	0.13818 0.89080 0.02518 0.04700
C 	C 	0.31271 0.20610 0.22927 0.01500
H 	H 	0.30750 0.28360 0.21940 0.03600
C 	C 	0.33942 0.06050 0.30455 -0.05800
C 	C 	0.22892 0.75640 0.07115 -0.12400
H 	H 	0.21020 0.70000 0.04330 0.09300
C 	C 	0.28628 0.73490 0.11312 0.05300
H 	H 	0.30830 0.66370 0.11350 0.02400
Tb	Tb	0.66924 0.83084 0.02574 1.95600
O 	O 	0.69979 0.65739 0.98529 -0.57000
O 	O 	0.82204 0.63537 0.08051 -0.46600
O 	O 	0.75732 0.50212 0.97566 -0.44000
O 	O 	0.73303 0.73539 0.10795 -0.46900
C 	C 	0.83592 0.67440 0.28891 -0.03600
H 	H 	0.84950 0.72990 0.31920 0.05900
O 	O 	0.44772 0.21996 0.02231 -0.38900
O 	O 	0.41400 0.28222 0.92966 -0.38900
C 	C 	0.78152 0.66747 0.11808 0.45400
O 	O 	0.90460 0.59071 0.40202 -0.28000
C 	C 	0.81145 0.31718 0.15434 -0.12500
H 	H 	0.85070 0.30380 0.18340 0.08000
C 	C 	0.57939 0.32400 0.02238 -0.08000
H 	H 	0.57750 0.26360 0.05040 0.09000
O 	O 	0.84718 0.42960 0.38575 -0.45400
C 	C 	0.69927 0.36360 0.07082 0.08300
C 	C 	0.79920 0.51090 0.19832 0.03200
C 	C 	0.79680 0.62530 0.18303 -0.11200
C 	C 	0.52289 0.34650 0.97782 -0.01400
N 	N 	0.72304 0.44510 0.11046 -0.13000
C 	C 	0.63867 0.48240 0.98530 -0.13100
C 	C 	0.77711 0.42210 0.15209 0.08600
C 	C 	0.45822 0.27790 0.97643 0.29000
C 	C 	0.58213 0.50450 0.94178 0.03200
H 	H 	0.58290 0.56710 0.91500 0.02700
C 	C 	0.52475 0.43530 0.93756 -0.06600
H 	H 	0.48690 0.44900 0.90700 0.07300
C 	C 	0.86511 0.52420 0.36897 0.36500
C 	C 	0.81953 0.48080 0.25979 -0.04100
H 	H 	0.81970 0.40370 0.27100 0.06200
C 	C 	0.70234 0.55150 0.98275 0.42300
C 	C 	0.63818 0.39080 0.02518 0.05100
C 	C 	0.81271 0.70610 0.22927 0.01500
H 	H 	0.80750 0.78360 0.21940 0.03600
C 	C 	0.83942 0.56050 0.30455 -0.05900
C 	C 	0.72892 0.25640 0.07115 -0.12300
H 	H 	0.71020 0.20000 0.04330 0.09300
C 	C 	0.78628 0.23490 0.11312 0.05300
H 	H 	0.80830 0.16370 0.11350 0.02400
Tb	Tb	0.16924 0.66916 0.52574 1.95500
O 	O 	0.19979 0.84261 0.48529 -0.56900
O 	O 	0.32204 0.86463 0.58051 -0.46700
O 	O 	0.25732 0.99788 0.47566 -0.44000
O 	O 	0.23303 0.76461 0.60795 -0.46900
C 	C 	0.33592 0.82560 0.78891 -0.03700
H 	H 	0.34950 0.77010 0.81920 0.05900
O 	O 	0.94772 0.28004 0.52231 -0.38900
O 	O 	0.91400 0.21778 0.42966 -0.38900
C 	C 	0.28152 0.83253 0.61808 0.45400
O 	O 	0.40460 0.90929 0.90202 -0.28000
C 	C 	0.31145 0.18282 0.65434 -0.12500
H 	H 	0.35070 0.19620 0.68340 0.08000
C 	C 	0.07939 0.17600 0.52238 -0.08100
H 	H 	0.07750 0.23640 0.55040 0.09000
O 	O 	0.34718 0.07040 0.88575 -0.45500
C 	C 	0.19927 0.13640 0.57082 0.08300
C 	C 	0.29920 0.98910 0.69832 0.03200
C 	C 	0.29680 0.87470 0.68303 -0.11200
C 	C 	0.02289 0.15350 0.47782 -0.01400
N 	N 	0.22304 0.05490 0.61046 -0.13000
C 	C 	0.13867 0.01760 0.48530 -0.13000
C 	C 	0.27711 0.07790 0.65209 0.08500
C 	C 	0.95822 0.22210 0.47643 0.28900
C 	C 	0.08213 0.99550 0.44178 0.03200
H 	H 	0.08290 0.93290 0.41500 0.02600
C 	C 	0.02475 0.06470 0.43756 -0.06700
H 	H 	0.98690 0.05100 0.40700 0.07400
C 	C 	0.36511 0.97580 0.86897 0.36500
C 	C 	0.31953 0.01920 0.75979 -0.04200
H 	H 	0.31970 0.09630 0.77100 0.06200
C 	C 	0.20234 0.94850 0.48275 0.42200
C 	C 	0.13818 0.10920 0.52518 0.05000
C 	C 	0.31271 0.79390 0.72927 0.01500
H 	H 	0.30750 0.71640 0.71940 0.03600
C 	C 	0.33942 0.93950 0.80455 -0.05800
C 	C 	0.22892 0.24360 0.57115 -0.12300
H 	H 	0.21020 0.30000 0.54330 0.09300
C 	C 	0.28628 0.26510 0.61312 0.05300
H 	H 	0.30830 0.33630 0.61350 0.02400
Tb	Tb	0.66924 0.16916 0.52574 1.95500
O 	O 	0.69979 0.34261 0.48529 -0.56900
O 	O 	0.82204 0.36463 0.58051 -0.46700
O 	O 	0.75732 0.49788 0.47566 -0.44000
O 	O 	0.73303 0.26461 0.60795 -0.46900
C 	C 	0.83592 0.32560 0.78891 -0.03600
H 	H 	0.84950 0.27010 0.81920 0.05800
O 	O 	0.44772 0.78004 0.52231 -0.38900
O 	O 	0.41400 0.71778 0.42966 -0.38900
C 	C 	0.78152 0.33253 0.61808 0.45400
O 	O 	0.90460 0.40929 0.90202 -0.28000
C 	C 	0.81145 0.68282 0.65434 -0.12500
H 	H 	0.85070 0.69620 0.68340 0.08000
C 	C 	0.57939 0.67600 0.52238 -0.08100
H 	H 	0.57750 0.73640 0.55040 0.09000
O 	O 	0.84718 0.57040 0.88575 -0.45400
C 	C 	0.69927 0.63640 0.57082 0.08300
C 	C 	0.79920 0.48910 0.69832 0.03200
C 	C 	0.79680 0.37470 0.68303 -0.11200
C 	C 	0.52289 0.65350 0.47782 -0.01400
N 	N 	0.72304 0.55490 0.61046 -0.13000
C 	C 	0.63867 0.51760 0.48530 -0.13000
C 	C 	0.77711 0.57790 0.65209 0.08500
C 	C 	0.45822 0.72210 0.47643 0.28900
C 	C 	0.58213 0.49550 0.44178 0.03200
H 	H 	0.58290 0.43290 0.41500 0.02700
C 	C 	0.52475 0.56470 0.43756 -0.06600
H 	H 	0.48690 0.55100 0.40700 0.07300
C 	C 	0.86511 0.47580 0.86897 0.36500
C 	C 	0.81953 0.51920 0.75979 -0.04100
H 	H 	0.81970 0.59630 0.77100 0.06200
C 	C 	0.70234 0.44850 0.48275 0.42200
C 	C 	0.63818 0.60920 0.52518 0.05000
C 	C 	0.81271 0.29390 0.72927 0.01400
H 	H 	0.80750 0.21640 0.71940 0.03600
C 	C 	0.83942 0.43950 0.80455 -0.05900
C 	C 	0.72892 0.74360 0.57115 -0.12400
H 	H 	0.71020 0.80000 0.54330 0.09300
C 	C 	0.78628 0.76510 0.61312 0.05300
H 	H 	0.80830 0.83630 0.61350 0.02400
Tb	Tb	0.83076 0.66916 0.97426 1.95200
O 	O 	0.80021 0.84261 0.01471 -0.56800
O 	O 	0.67796 0.86463 0.91949 -0.46800
O 	O 	0.74268 0.99788 0.02434 -0.43900
O 	O 	0.76697 0.76461 0.89205 -0.46900
C 	C 	0.66408 0.82560 0.71109 -0.03700
H 	H 	0.65050 0.77010 0.68080 0.05900
O 	O 	0.05228 0.28004 0.97769 -0.38600
O 	O 	0.08600 0.21778 0.07034 -0.38800
C 	C 	0.71848 0.83253 0.88192 0.45400
O 	O 	0.59540 0.90929 0.59798 -0.28000
C 	C 	0.68855 0.18282 0.84566 -0.12500
H 	H 	0.64930 0.19620 0.81660 0.08000
C 	C 	0.92061 0.17600 0.97762 -0.08400
H 	H 	0.92250 0.23640 0.94960 0.09000
O 	O 	0.65282 0.07040 0.61425 -0.45400
C 	C 	0.80073 0.13640 0.92918 0.08300
C 	C 	0.70080 0.98910 0.80168 0.03300
C 	C 	0.70320 0.87470 0.81697 -0.11200
C 	C 	0.97711 0.15350 0.02218 -0.01000
N 	N 	0.77696 0.05490 0.88954 -0.13000
C 	C 	0.86133 0.01760 0.01470 -0.12500
C 	C 	0.72289 0.07790 0.84791 0.08500
C 	C 	0.04178 0.22210 0.02357 0.28400
C 	C 	0.91787 0.99550 0.05822 0.02800
H 	H 	0.91710 0.93290 0.08500 0.02800
C 	C 	0.97525 0.06470 0.06244 -0.06200
H 	H 	0.01310 0.05100 0.09300 0.07000
C 	C 	0.63489 0.97580 0.63103 0.36500
C 	C 	0.68047 0.01920 0.74021 -0.04200
H 	H 	0.68030 0.09630 0.72900 0.06200
C 	C 	0.79766 0.94850 0.01725 0.42100
C 	C 	0.86182 0.10920 0.97482 0.04700
C 	C 	0.68729 0.79390 0.77073 0.01500
H 	H 	0.69250 0.71640 0.78060 0.03600
C 	C 	0.66058 0.93950 0.69545 -0.05800
C 	C 	0.77108 0.24360 0.92885 -0.12400
H 	H 	0.78980 0.30000 0.95670 0.09300
C 	C 	0.71372 0.26510 0.88688 0.05300
H 	H 	0.69170 0.33630 0.88650 0.02400
Tb	Tb	0.33076 0.16916 0.97426 1.95600
O 	O 	0.30021 0.34261 0.01471 -0.57000
O 	O 	0.17796 0.36463 0.91949 -0.46600
O 	O 	0.24268 0.49788 0.02434 -0.44000
O 	O 	0.26697 0.26461 0.89205 -0.46900
C 	C 	0.16408 0.32560 0.71109 -0.03600
H 	H 	0.15050 0.27010 0.68080 0.05900
O 	O 	0.55228 0.78004 0.97769 -0.38900
O 	O 	0.58600 0.71778 0.07034 -0.38900
C 	C 	0.21848 0.33253 0.88192 0.45400
O 	O 	0.09540 0.40929 0.59798 -0.28000
C 	C 	0.18855 0.68282 0.84566 -0.12500
H 	H 	0.14930 0.69620 0.81660 0.08000
C 	C 	0.42061 0.67600 0.97762 -0.08000
H 	H 	0.42250 0.73640 0.94960 0.09000
O 	O 	0.15282 0.57040 0.61425 -0.45400
C 	C 	0.30073 0.63640 0.92918 0.08300
C 	C 	0.20080 0.48910 0.80168 0.03200
C 	C 	0.20320 0.37470 0.81697 -0.11200
C 	C 	0.47711 0.65350 0.02218 -0.01400
N 	N 	0.27696 0.55490 0.88954 -0.13000
C 	C 	0.36133 0.51760 0.01470 -0.13100
C 	C 	0.22289 0.57790 0.84791 0.08600
C 	C 	0.54178 0.72210 0.02357 0.29000
C 	C 	0.41787 0.49550 0.05822 0.03200
H 	H 	0.41710 0.43290 0.08500 0.02700
C 	C 	0.47525 0.56470 0.06244 -0.06600
H 	H 	0.51310 0.55100 0.09300 0.07300
C 	C 	0.13489 0.47580 0.63103 0.36500
C 	C 	0.18047 0.51920 0.74021 -0.04100
H 	H 	0.18030 0.59630 0.72900 0.06200
C 	C 	0.29766 0.44850 0.01725 0.42300
C 	C 	0.36182 0.60920 0.97482 0.05100
C 	C 	0.18729 0.29390 0.77073 0.01500
H 	H 	0.19250 0.21640 0.78060 0.03600
C 	C 	0.16058 0.43950 0.69545 -0.05900
C 	C 	0.27108 0.74360 0.92885 -0.12300
H 	H 	0.28980 0.80000 0.95670 0.09300
C 	C 	0.21372 0.76510 0.88688 0.05300
H 	H 	0.19170 0.83630 0.88650 0.02400
