data_crystal

_cell_length_a 9.08620
_cell_length_b 10.72990
_cell_length_c 19.54960
_cell_angle_alpha 89.45200
_cell_angle_beta  87.33700
_cell_angle_gamma 80.34700

_symmetry_space_group_name_	'P 1'
_symmetry_space_group_name_H-M	'P 1'

loop_
_symmetry_equiv_pos_as_xyz
  x,y,z

loop_
_atom_site_label
_atom_site_type_symbol
_atom_site_fract_x
_atom_site_fract_y
_atom_site_fract_z
_atom_site_charge
Co	Co	0.82793 0.74841 0.77844 1.15600
Co	Co	0.15303 0.76516 0.72303 1.10200
Co	Co	0.93453 0.75918 0.58940 1.22300
Co	Co	0.05762 0.74403 0.91108 1.16400
Co	Co	0.17207 0.25159 0.22156 1.10400
Co	Co	0.84697 0.23484 0.27697 1.14600
Co	Co	0.06547 0.24082 0.41060 1.15100
Co	Co	0.94238 0.25597 0.08892 1.21500
Co	Co	0.00000 0.50000 0.50000 1.14000
Co	Co	-0.00000 0.00000 -0.00000 1.08900
Co	Co	-0.00000 0.50000 -0.00000 1.11300
Co	Co	-0.00000 0.00000 0.50000 1.11800
H 	H 	0.92200 0.88300 0.69000 0.33700
H 	H 	0.06300 0.63000 0.80700 0.34300
H 	H 	0.88640 0.26220 0.82950 0.01200
H 	H 	0.00290 0.13940 0.84880 -0.12000
H 	H 	0.46450 0.84420 0.54770 0.12800
H 	H 	0.36700 0.98210 0.54330 0.13100
H 	H 	0.64430 0.50350 0.96020 0.09300
H 	H 	0.53280 0.63390 0.95150 0.10400
H 	H 	0.45190 0.83540 0.43610 0.11300
H 	H 	0.28250 0.81500 0.44930 0.09700
H 	H 	0.63190 0.92820 0.96800 -0.03600
H 	H 	0.49870 0.86680 0.00310 -0.09900
H 	H 	0.69820 0.69310 0.04830 0.13100
H 	H 	0.53800 0.65310 0.06220 0.11800
H 	H 	0.50080 0.63360 0.49880 0.02800
H 	H 	0.36780 0.57040 0.53280 0.03900
H 	H 	0.50090 0.88400 0.87660 0.16300
H 	H 	0.44510 0.03260 0.88740 0.11400
H 	H 	0.70500 0.15100 0.84240 0.15900
H 	H 	0.73590 0.13760 0.92240 0.15600
H 	H 	0.55470 0.46080 0.61160 0.12700
H 	H 	0.50100 0.60900 0.62480 0.13300
H 	H 	0.27370 0.37220 0.57940 0.07500
H 	H 	0.30240 0.35710 0.65970 0.07500
H 	H 	0.99880 0.36010 0.64960 0.26900
H 	H 	0.11610 0.23930 0.67140 0.15000
H 	H 	0.07800 0.11700 0.31000 0.29600
H 	H 	0.93700 0.37000 0.19300 0.36200
H 	H 	0.11360 0.73780 0.17050 0.16900
H 	H 	0.99710 0.86060 0.15120 0.28600
H 	H 	0.53550 0.15580 0.45230 0.12700
H 	H 	0.63300 0.01790 0.45670 0.10300
H 	H 	0.35570 0.49650 0.03980 0.12600
H 	H 	0.46720 0.36610 0.04850 0.13700
H 	H 	0.54810 0.16460 0.56390 0.07000
H 	H 	0.71750 0.18500 0.55070 0.09100
H 	H 	0.36810 0.07180 0.03200 0.11900
H 	H 	0.50130 0.13320 0.99690 0.16900
H 	H 	0.30180 0.30690 0.95170 0.06100
H 	H 	0.46200 0.34690 0.93780 0.06400
H 	H 	0.49920 0.36640 0.50120 0.03100
H 	H 	0.63220 0.42960 0.46720 0.04300
H 	H 	0.49910 0.11600 0.12340 0.09700
H 	H 	0.55490 0.96740 0.11260 0.14000
H 	H 	0.29500 0.84900 0.15760 0.05600
H 	H 	0.26410 0.86240 0.07760 0.05200
H 	H 	0.44530 0.53920 0.38840 0.12300
H 	H 	0.49900 0.39100 0.37520 0.13300
H 	H 	0.72630 0.62780 0.42060 0.13000
H 	H 	0.69760 0.64290 0.34030 0.14400
H 	H 	0.00120 0.63990 0.35040 -0.08100
H 	H 	0.88390 0.76070 0.32860 0.04700
C 	C 	0.91200 0.19740 0.86535 0.11500
C 	C 	0.71080 0.51250 0.08589 0.39700
C 	C 	0.94590 0.26150 0.92957 0.30600
C 	C 	0.71500 0.56800 0.58131 0.41500
C 	C 	0.36670 0.89140 0.53446 -0.26900
C 	C 	0.30000 0.99680 0.42020 0.50600
C 	C 	0.06830 0.23800 0.56934 0.49900
C 	C 	0.63310 0.59610 0.96648 -0.16500
C 	C 	0.83560 0.98230 0.86662 0.53100
C 	C 	0.16030 0.52260 0.63676 0.38200
C 	C 	0.28650 0.92530 0.91906 0.51600
C 	C 	0.35320 0.87400 0.45649 -0.27700
C 	C 	0.52240 0.94140 0.97736 0.35000
C 	C 	0.64070 0.62330 0.04337 -0.32300
C 	C 	0.47720 0.55780 0.52333 -0.01000
C 	C 	0.74990 0.64550 0.92016 0.39400
C 	C 	0.44500 0.94830 0.90834 -0.43200
C 	C 	0.78220 0.12170 0.87578 -0.47700
C 	C 	0.24570 0.84910 0.58036 0.44300
C 	C 	0.55560 0.54610 0.59201 -0.34200
C 	C 	0.22570 0.38480 0.62590 -0.17400
C 	C 	0.09200 0.30340 0.63500 -0.54600
C 	C 	0.08800 0.80260 0.13465 -0.57900
C 	C 	0.28920 0.48750 0.91411 0.33500
C 	C 	0.05410 0.73850 0.07043 0.49900
C 	C 	0.28500 0.43200 0.41869 0.42500
C 	C 	0.63330 0.10860 0.46554 -0.29100
C 	C 	0.70000 0.00320 0.57980 0.23600
C 	C 	0.93170 0.76200 0.43066 0.34300
C 	C 	0.36690 0.40390 0.03352 -0.38600
C 	C 	0.16440 0.01770 0.13338 0.30600
C 	C 	0.83970 0.47740 0.36324 0.46000
C 	C 	0.71350 0.07470 0.08094 0.30600
C 	C 	0.64680 0.12600 0.54351 -0.17100
C 	C 	0.47760 0.05860 0.02264 -0.38200
C 	C 	0.35930 0.37670 0.95663 -0.11400
C 	C 	0.52280 0.44220 0.47667 -0.01200
C 	C 	0.25010 0.35450 0.07984 0.46300
C 	C 	0.55500 0.05170 0.09166 -0.25400
C 	C 	0.21780 0.87830 0.12422 -0.06500
C 	C 	0.75430 0.15090 0.41964 0.42000
C 	C 	0.44440 0.45390 0.40799 -0.34600
C 	C 	0.77430 0.61520 0.37410 -0.37000
C 	C 	0.90800 0.69660 0.36500 0.03300
O 	O 	0.93760 0.80800 0.68925 -0.81400
O 	O 	0.65950 0.50060 0.14559 -0.30900
O 	O 	0.04350 0.70270 0.81188 -0.96300
O 	O 	0.37750 0.03550 0.37358 -0.39300
O 	O 	0.79120 0.92930 0.81674 -0.48000
O 	O 	0.03600 0.12870 0.57412 -0.53400
O 	O 	0.74910 0.66810 0.60539 -0.44300
O 	O 	0.19500 0.57770 0.68809 -0.48400
O 	O 	0.25520 0.82070 0.89941 -0.47300
O 	O 	0.87990 0.64440 0.94314 -0.44900
O 	O 	0.27890 0.81550 0.63984 -0.49400
O 	O 	0.97850 0.37170 0.92442 -0.32900
O 	O 	0.19630 0.01060 0.95067 -0.51200
O 	O 	0.71210 0.68390 0.86206 -0.45700
O 	O 	0.92690 0.92630 0.90986 -0.46800
O 	O 	0.07040 0.30040 0.51403 -0.58900
O 	O 	0.06830 0.57500 0.59292 -0.59100
O 	O 	0.17250 0.05950 0.44203 -0.61400
O 	O 	0.82530 0.43930 0.05966 -0.50000
O 	O 	0.11560 0.85220 0.55689 -0.59700
O 	O 	0.80440 0.48420 0.54796 -0.41300
O 	O 	0.94060 0.20180 0.98590 -0.41500
O 	O 	0.06240 0.19200 0.31075 -0.92500
O 	O 	0.34050 0.49940 0.85441 -0.30500
O 	O 	0.95650 0.29730 0.18812 -0.84400
O 	O 	0.62250 0.96450 0.62642 -0.24100
O 	O 	0.20880 0.07070 0.18326 -0.48700
O 	O 	0.96400 0.87130 0.42588 -0.34100
O 	O 	0.25090 0.33190 0.39461 -0.47100
O 	O 	0.80500 0.42230 0.31191 -0.46200
O 	O 	0.74480 0.17930 0.10059 -0.43400
O 	O 	0.12010 0.35560 0.05686 -0.62900
O 	O 	0.72110 0.18450 0.36016 -0.47400
O 	O 	0.02150 0.62830 0.07558 -0.52700
O 	O 	0.80370 0.98940 0.04933 -0.35600
O 	O 	0.28790 0.31610 0.13794 -0.50600
O 	O 	0.07310 0.07370 0.09014 -0.60900
O 	O 	0.92960 0.69960 0.48597 -0.45600
O 	O 	0.93170 0.42500 0.40708 -0.47300
O 	O 	0.82750 0.94050 0.55797 -0.41700
O 	O 	0.17470 0.56070 0.94034 -0.50000
O 	O 	0.88440 0.14780 0.44311 -0.48800
O 	O 	0.19560 0.51580 0.45204 -0.47700
O 	O 	0.05940 0.79820 0.01410 -0.60800
