data_crystal

_cell_length_a 31.85500
_cell_length_b 17.26800
_cell_length_c 30.29300
_cell_angle_alpha 90.00000
_cell_angle_beta  116.25000
_cell_angle_gamma 90.00000

_symmetry_space_group_name_	'P 1'
_symmetry_space_group_name_H-M	'P 1'

loop_
_symmetry_equiv_pos_as_xyz
  x,y,z

loop_
_atom_site_label
_atom_site_type_symbol
_atom_site_fract_x
_atom_site_fract_y
_atom_site_fract_z
_atom_site_charge
Zn	Zn	0.89642 0.49896 0.01722 1.21900
Zn	Zn	0.86615 0.34363 0.06906 1.23700
O 	O 	0.42390 0.10980 0.54620 -0.56500
O 	O 	0.43468 0.18980 0.60282 -0.41500
O 	O 	0.61280 0.10150 0.53000 -0.35800
O 	O 	0.55960 0.01380 0.51910 -0.38100
O 	O 	0.63520 0.22130 0.83953 -0.25700
O 	O 	0.67340 0.23150 0.92160 -0.42000
O 	O 	0.82230 0.35830 0.99982 -0.45400
O 	O 	0.84710 0.44250 0.95872 -0.42700
O 	O 	0.86020 0.55960 0.60051 -0.50700
O 	O 	0.85040 0.47250 0.54310 -0.49600
N 	N 	0.66200 0.29000 0.64670 -0.18300
N 	N 	0.67160 0.32290 0.72682 -0.18600
N 	N 	0.72870 0.36160 0.70206 -0.17300
N 	N 	0.60690 0.25990 0.67399 -0.25000
H 	H 	0.59750 0.27030 0.69590 0.14900
N 	N 	0.74030 0.38020 0.78107 -0.23700
H 	H 	0.76120 0.41340 0.78300 0.14100
N 	N 	0.71450 0.32920 0.62090 -0.26300
H 	H 	0.69780 0.30080 0.59590 0.14800
C 	C 	0.64710 0.28950 0.68180 0.21700
C 	C 	0.70150 0.32490 0.65810 0.20800
C 	C 	0.71030 0.35250 0.73490 0.21100
C 	C 	0.57600 0.21230 0.63420 0.14800
C 	C 	0.53150 0.20260 0.62750 -0.11000
H 	H 	0.52120 0.22900 0.64770 0.08900
C 	C 	0.50040 0.15310 0.59050 -0.05200
C 	C 	0.51750 0.11520 0.56100 -0.04200
H 	H 	0.49780 0.08280 0.53580 0.06700
C 	C 	0.56090 0.12490 0.56840 0.00100
C 	C 	0.59320 0.17490 0.60500 -0.12500
H 	H 	0.62370 0.18190 0.60900 0.10300
C 	C 	0.57920 0.07520 0.53760 0.27200
C 	C 	0.45020 0.13940 0.58060 0.38900
C 	C 	0.73880 0.35750 0.82540 0.14100
C 	C 	0.70370 0.31610 0.82950 -0.11800
H 	H 	0.67790 0.30070 0.80100 0.10100
C 	C 	0.70570 0.29670 0.87500 -0.01500
C 	C 	0.66970 0.24710 0.87820 0.28500
C 	C 	0.74280 0.32190 0.91750 -0.03600
H 	H 	0.74440 0.30990 0.94810 0.07800
C 	C 	0.77810 0.36610 0.91380 -0.02500
C 	C 	0.82060 0.39150 0.96070 0.35800
C 	C 	0.77720 0.38290 0.86890 -0.10900
H 	H 	0.80150 0.41070 0.86730 0.08700
C 	C 	0.74850 0.36940 0.61550 0.23200
C 	C 	0.77420 0.43280 0.64400 -0.24500
H 	H 	0.76970 0.44920 0.67090 0.13100
C 	C 	0.80520 0.46980 0.63230 0.15000
H 	H 	0.82250 0.51050 0.65210 -0.00000
C 	C 	0.81220 0.44870 0.59120 -0.20300
C 	C 	0.79010 0.38490 0.56590 0.17300
H 	H 	0.79630 0.36770 0.54030 -0.01200
C 	C 	0.75950 0.34540 0.57660 -0.25800
H 	H 	0.74500 0.30160 0.55840 0.12300
C 	C 	0.84340 0.50230 0.57670 0.45400
Zn	Zn	0.39642 0.99896 0.01722 1.22000
Zn	Zn	0.36615 0.84363 0.06906 1.23800
O 	O 	0.92390 0.60980 0.54620 -0.56400
O 	O 	0.93468 0.68980 0.60282 -0.41400
O 	O 	0.11280 0.60150 0.53000 -0.35700
O 	O 	0.05960 0.51380 0.51910 -0.38000
O 	O 	0.13520 0.72130 0.83953 -0.25500
O 	O 	0.17340 0.73150 0.92160 -0.41900
O 	O 	0.32230 0.85830 0.99982 -0.45300
O 	O 	0.34710 0.94250 0.95872 -0.42500
O 	O 	0.36020 0.05960 0.60051 -0.50700
O 	O 	0.35040 0.97250 0.54310 -0.49600
N 	N 	0.16200 0.79000 0.64670 -0.18300
N 	N 	0.17160 0.82290 0.72682 -0.18600
N 	N 	0.22870 0.86160 0.70206 -0.17200
N 	N 	0.10690 0.75990 0.67399 -0.25000
H 	H 	0.09750 0.77030 0.69590 0.14900
N 	N 	0.24030 0.88020 0.78107 -0.23800
H 	H 	0.26120 0.91340 0.78300 0.14100
N 	N 	0.21450 0.82920 0.62090 -0.26300
H 	H 	0.19780 0.80080 0.59590 0.14900
C 	C 	0.14710 0.78950 0.68180 0.21700
C 	C 	0.20150 0.82490 0.65810 0.20900
C 	C 	0.21030 0.85250 0.73490 0.21100
C 	C 	0.07600 0.71230 0.63420 0.14900
C 	C 	0.03150 0.70260 0.62750 -0.11000
H 	H 	0.02120 0.72900 0.64770 0.08900
C 	C 	0.00040 0.65310 0.59050 -0.05200
C 	C 	0.01750 0.61520 0.56100 -0.04200
H 	H 	0.99780 0.58280 0.53580 0.06700
C 	C 	0.06090 0.62490 0.56840 0.00100
C 	C 	0.09320 0.67490 0.60500 -0.12500
H 	H 	0.12370 0.68190 0.60900 0.10300
C 	C 	0.07920 0.57520 0.53760 0.27200
C 	C 	0.95020 0.63940 0.58060 0.38900
C 	C 	0.23880 0.85750 0.82540 0.14100
C 	C 	0.20370 0.81610 0.82950 -0.11800
H 	H 	0.17790 0.80070 0.80100 0.10100
C 	C 	0.20570 0.79670 0.87500 -0.01500
C 	C 	0.16970 0.74710 0.87820 0.28500
C 	C 	0.24280 0.82190 0.91750 -0.03600
H 	H 	0.24440 0.80990 0.94810 0.07800
C 	C 	0.27810 0.86610 0.91380 -0.02500
C 	C 	0.32060 0.89150 0.96070 0.35800
C 	C 	0.27720 0.88290 0.86890 -0.10900
H 	H 	0.30150 0.91070 0.86730 0.08700
C 	C 	0.24850 0.86940 0.61550 0.23200
C 	C 	0.27420 0.93280 0.64400 -0.24600
H 	H 	0.26970 0.94920 0.67090 0.13200
C 	C 	0.30520 0.96980 0.63230 0.15100
H 	H 	0.32250 0.01050 0.65210 -0.00100
C 	C 	0.31220 0.94870 0.59120 -0.20300
C 	C 	0.29010 0.88490 0.56590 0.17300
H 	H 	0.29630 0.86770 0.54030 -0.01200
C 	C 	0.25950 0.84540 0.57660 -0.25800
H 	H 	0.24500 0.80160 0.55840 0.12300
C 	C 	0.34340 0.00230 0.57670 0.45300
Zn	Zn	0.10358 0.49896 0.48278 1.22000
Zn	Zn	0.13385 0.34363 0.43094 1.23800
O 	O 	0.57610 0.10980 0.95380 -0.56400
O 	O 	0.56532 0.18980 0.89718 -0.41400
O 	O 	0.38720 0.10150 0.97000 -0.35800
O 	O 	0.44040 0.01380 0.98090 -0.38000
O 	O 	0.36480 0.22130 0.66047 -0.25600
O 	O 	0.32660 0.23150 0.57840 -0.41900
O 	O 	0.17770 0.35830 0.50018 -0.45300
O 	O 	0.15290 0.44250 0.54128 -0.42600
O 	O 	0.13980 0.55960 0.89949 -0.50700
O 	O 	0.14960 0.47250 0.95690 -0.49700
N 	N 	0.33800 0.29000 0.85330 -0.18300
N 	N 	0.32840 0.32290 0.77318 -0.18600
N 	N 	0.27130 0.36160 0.79794 -0.17300
N 	N 	0.39310 0.25990 0.82601 -0.25000
H 	H 	0.40250 0.27030 0.80410 0.14900
N 	N 	0.25970 0.38020 0.71893 -0.23700
H 	H 	0.23880 0.41340 0.71700 0.14100
N 	N 	0.28550 0.32920 0.87910 -0.26300
H 	H 	0.30220 0.30080 0.90410 0.14800
C 	C 	0.35290 0.28950 0.81820 0.21700
C 	C 	0.29850 0.32490 0.84190 0.20800
C 	C 	0.28970 0.35250 0.76510 0.21100
C 	C 	0.42400 0.21230 0.86580 0.14800
C 	C 	0.46850 0.20260 0.87250 -0.11000
H 	H 	0.47880 0.22900 0.85230 0.08900
C 	C 	0.49960 0.15310 0.90950 -0.05200
C 	C 	0.48250 0.11520 0.93900 -0.04200
H 	H 	0.50220 0.08280 0.96420 0.06700
C 	C 	0.43910 0.12490 0.93160 0.00000
C 	C 	0.40680 0.17490 0.89500 -0.12500
H 	H 	0.37630 0.18190 0.89100 0.10300
C 	C 	0.42080 0.07520 0.96240 0.27200
C 	C 	0.54980 0.13940 0.91940 0.38900
C 	C 	0.26120 0.35750 0.67460 0.14100
C 	C 	0.29630 0.31610 0.67050 -0.11800
H 	H 	0.32210 0.30070 0.69900 0.10100
C 	C 	0.29430 0.29670 0.62500 -0.01500
C 	C 	0.33030 0.24710 0.62180 0.28500
C 	C 	0.25720 0.32190 0.58250 -0.03600
H 	H 	0.25560 0.30990 0.55190 0.07800
C 	C 	0.22190 0.36610 0.58620 -0.02500
C 	C 	0.17940 0.39150 0.53930 0.35800
C 	C 	0.22280 0.38290 0.63110 -0.10900
H 	H 	0.19850 0.41070 0.63270 0.08700
C 	C 	0.25150 0.36940 0.88450 0.23200
C 	C 	0.22580 0.43280 0.85600 -0.24500
H 	H 	0.23030 0.44920 0.82910 0.13100
C 	C 	0.19480 0.46980 0.86770 0.15000
H 	H 	0.17750 0.51050 0.84790 -0.00100
C 	C 	0.18780 0.44870 0.90880 -0.20300
C 	C 	0.20990 0.38490 0.93410 0.17300
H 	H 	0.20370 0.36770 0.95970 -0.01200
C 	C 	0.24050 0.34540 0.92340 -0.25800
H 	H 	0.25500 0.30160 0.94160 0.12200
C 	C 	0.15660 0.50230 0.92330 0.45400
Zn	Zn	0.60358 0.99896 0.48278 1.22000
Zn	Zn	0.63385 0.84363 0.43094 1.23800
O 	O 	0.07610 0.60980 0.95380 -0.56400
O 	O 	0.06532 0.68980 0.89718 -0.41400
O 	O 	0.88720 0.60150 0.97000 -0.35700
O 	O 	0.94040 0.51380 0.98090 -0.37900
O 	O 	0.86480 0.72130 0.66047 -0.25500
O 	O 	0.82660 0.73150 0.57840 -0.41900
O 	O 	0.67770 0.85830 0.50018 -0.45300
O 	O 	0.65290 0.94250 0.54128 -0.42600
O 	O 	0.63980 0.05960 0.89949 -0.50700
O 	O 	0.64960 0.97250 0.95690 -0.49400
N 	N 	0.83800 0.79000 0.85330 -0.18300
N 	N 	0.82840 0.82290 0.77318 -0.18600
N 	N 	0.77130 0.86160 0.79794 -0.17200
N 	N 	0.89310 0.75990 0.82601 -0.25000
H 	H 	0.90250 0.77030 0.80410 0.14900
N 	N 	0.75970 0.88020 0.71893 -0.23800
H 	H 	0.73880 0.91340 0.71700 0.14100
N 	N 	0.78550 0.82920 0.87910 -0.26300
H 	H 	0.80220 0.80080 0.90410 0.14900
C 	C 	0.85290 0.78950 0.81820 0.21700
C 	C 	0.79850 0.82490 0.84190 0.20900
C 	C 	0.78970 0.85250 0.76510 0.21100
C 	C 	0.92400 0.71230 0.86580 0.14800
C 	C 	0.96850 0.70260 0.87250 -0.10900
H 	H 	0.97880 0.72900 0.85230 0.08900
C 	C 	0.99960 0.65310 0.90950 -0.05200
C 	C 	0.98250 0.61520 0.93900 -0.04000
H 	H 	0.00220 0.58280 0.96420 0.06600
C 	C 	0.93910 0.62490 0.93160 -0.00000
C 	C 	0.90680 0.67490 0.89500 -0.12400
H 	H 	0.87630 0.68190 0.89100 0.10300
C 	C 	0.92080 0.57520 0.96240 0.27300
C 	C 	0.04980 0.63940 0.91940 0.38800
C 	C 	0.76120 0.85750 0.67460 0.14100
C 	C 	0.79630 0.81610 0.67050 -0.11800
H 	H 	0.82210 0.80070 0.69900 0.10100
C 	C 	0.79430 0.79670 0.62500 -0.01500
C 	C 	0.83030 0.74710 0.62180 0.28500
C 	C 	0.75720 0.82190 0.58250 -0.03600
H 	H 	0.75560 0.80990 0.55190 0.07800
C 	C 	0.72190 0.86610 0.58620 -0.02500
C 	C 	0.67940 0.89150 0.53930 0.35800
C 	C 	0.72280 0.88290 0.63110 -0.10900
H 	H 	0.69850 0.91070 0.63270 0.08700
C 	C 	0.75150 0.86940 0.88450 0.23200
C 	C 	0.72580 0.93280 0.85600 -0.24600
H 	H 	0.73030 0.94920 0.82910 0.13200
C 	C 	0.69480 0.96980 0.86770 0.15200
H 	H 	0.67750 0.01050 0.84790 -0.00200
C 	C 	0.68780 0.94870 0.90880 -0.20200
C 	C 	0.70990 0.88490 0.93410 0.17200
H 	H 	0.70370 0.86770 0.95970 -0.01200
C 	C 	0.74050 0.84540 0.92340 -0.25700
H 	H 	0.75500 0.80160 0.94160 0.12300
C 	C 	0.65660 0.00230 0.92330 0.45100
Zn	Zn	0.10358 0.50104 0.98278 1.22000
Zn	Zn	0.13385 0.65637 0.93094 1.23800
O 	O 	0.57610 0.89020 0.45380 -0.56400
O 	O 	0.56532 0.81020 0.39718 -0.41400
O 	O 	0.38720 0.89850 0.47000 -0.35700
O 	O 	0.44040 0.98620 0.48090 -0.38000
O 	O 	0.36480 0.77870 0.16047 -0.25600
O 	O 	0.32660 0.76850 0.07840 -0.41900
O 	O 	0.17770 0.64170 0.00018 -0.45300
O 	O 	0.15290 0.55750 0.04128 -0.42600
O 	O 	0.13980 0.44040 0.39949 -0.50700
O 	O 	0.14960 0.52750 0.45690 -0.49600
N 	N 	0.33800 0.71000 0.35330 -0.18300
N 	N 	0.32840 0.67710 0.27318 -0.18600
N 	N 	0.27130 0.63840 0.29794 -0.17300
N 	N 	0.39310 0.74010 0.32601 -0.25000
H 	H 	0.40250 0.72970 0.30410 0.14900
N 	N 	0.25970 0.61980 0.21893 -0.23700
H 	H 	0.23880 0.58660 0.21700 0.14100
N 	N 	0.28550 0.67080 0.37910 -0.26300
H 	H 	0.30220 0.69920 0.40410 0.14800
C 	C 	0.35290 0.71050 0.31820 0.21700
C 	C 	0.29850 0.67510 0.34190 0.20800
C 	C 	0.28970 0.64750 0.26510 0.21100
C 	C 	0.42400 0.78770 0.36580 0.14800
C 	C 	0.46850 0.79740 0.37250 -0.11000
H 	H 	0.47880 0.77100 0.35230 0.08900
C 	C 	0.49960 0.84690 0.40950 -0.05200
C 	C 	0.48250 0.88480 0.43900 -0.04200
H 	H 	0.50220 0.91720 0.46420 0.06700
C 	C 	0.43910 0.87510 0.43160 0.00100
C 	C 	0.40680 0.82510 0.39500 -0.12500
H 	H 	0.37630 0.81810 0.39100 0.10300
C 	C 	0.42080 0.92480 0.46240 0.27200
C 	C 	0.54980 0.86060 0.41940 0.38900
C 	C 	0.26120 0.64250 0.17460 0.14100
C 	C 	0.29630 0.68390 0.17050 -0.11800
H 	H 	0.32210 0.69930 0.19900 0.10100
C 	C 	0.29430 0.70330 0.12500 -0.01500
C 	C 	0.33030 0.75290 0.12180 0.28500
C 	C 	0.25720 0.67810 0.08250 -0.03600
H 	H 	0.25560 0.69010 0.05190 0.07800
C 	C 	0.22190 0.63390 0.08620 -0.02500
C 	C 	0.17940 0.60850 0.03930 0.35800
C 	C 	0.22280 0.61710 0.13110 -0.10900
H 	H 	0.19850 0.58930 0.13270 0.08700
C 	C 	0.25150 0.63060 0.38450 0.23200
C 	C 	0.22580 0.56720 0.35600 -0.24500
H 	H 	0.23030 0.55080 0.32910 0.13100
C 	C 	0.19480 0.53020 0.36770 0.15000
H 	H 	0.17750 0.48950 0.34790 -0.00000
C 	C 	0.18780 0.55130 0.40880 -0.20300
C 	C 	0.20990 0.61510 0.43410 0.17300
H 	H 	0.20370 0.63230 0.45970 -0.01200
C 	C 	0.24050 0.65460 0.42340 -0.25800
H 	H 	0.25500 0.69840 0.44160 0.12300
C 	C 	0.15660 0.49770 0.42330 0.45400
Zn	Zn	0.60358 0.00104 0.98278 1.22000
Zn	Zn	0.63385 0.15637 0.93094 1.23800
O 	O 	0.07610 0.39020 0.45380 -0.56400
O 	O 	0.06532 0.31020 0.39718 -0.41400
O 	O 	0.88720 0.39850 0.47000 -0.35700
O 	O 	0.94040 0.48620 0.48090 -0.38000
O 	O 	0.86480 0.27870 0.16047 -0.25500
O 	O 	0.82660 0.26850 0.07840 -0.41900
O 	O 	0.67770 0.14170 0.00018 -0.45300
O 	O 	0.65290 0.05750 0.04128 -0.42500
O 	O 	0.63980 0.94040 0.39949 -0.50700
O 	O 	0.64960 0.02750 0.45690 -0.49600
N 	N 	0.83800 0.21000 0.35330 -0.18300
N 	N 	0.82840 0.17710 0.27318 -0.18600
N 	N 	0.77130 0.13840 0.29794 -0.17200
N 	N 	0.89310 0.24010 0.32601 -0.25000
H 	H 	0.90250 0.22970 0.30410 0.14900
N 	N 	0.75970 0.11980 0.21893 -0.23800
H 	H 	0.73880 0.08660 0.21700 0.14100
N 	N 	0.78550 0.17080 0.37910 -0.26300
H 	H 	0.80220 0.19920 0.40410 0.14900
C 	C 	0.85290 0.21050 0.31820 0.21700
C 	C 	0.79850 0.17510 0.34190 0.20900
C 	C 	0.78970 0.14750 0.26510 0.21100
C 	C 	0.92400 0.28770 0.36580 0.14900
C 	C 	0.96850 0.29740 0.37250 -0.11000
H 	H 	0.97880 0.27100 0.35230 0.08900
C 	C 	0.99960 0.34690 0.40950 -0.05200
C 	C 	0.98250 0.38480 0.43900 -0.04200
H 	H 	0.00220 0.41720 0.46420 0.06700
C 	C 	0.93910 0.37510 0.43160 0.00100
C 	C 	0.90680 0.32510 0.39500 -0.12500
H 	H 	0.87630 0.31810 0.39100 0.10300
C 	C 	0.92080 0.42480 0.46240 0.27200
C 	C 	0.04980 0.36060 0.41940 0.38900
C 	C 	0.76120 0.14250 0.17460 0.14100
C 	C 	0.79630 0.18390 0.17050 -0.11800
H 	H 	0.82210 0.19930 0.19900 0.10100
C 	C 	0.79430 0.20330 0.12500 -0.01500
C 	C 	0.83030 0.25290 0.12180 0.28500
C 	C 	0.75720 0.17810 0.08250 -0.03600
H 	H 	0.75560 0.19010 0.05190 0.07800
C 	C 	0.72190 0.13390 0.08620 -0.02500
C 	C 	0.67940 0.10850 0.03930 0.35800
C 	C 	0.72280 0.11710 0.13110 -0.10900
H 	H 	0.69850 0.08930 0.13270 0.08700
C 	C 	0.75150 0.13060 0.38450 0.23200
C 	C 	0.72580 0.06720 0.35600 -0.24600
H 	H 	0.73030 0.05080 0.32910 0.13200
C 	C 	0.69480 0.03020 0.36770 0.15100
H 	H 	0.67750 0.98950 0.34790 -0.00100
C 	C 	0.68780 0.05130 0.40880 -0.20300
C 	C 	0.70990 0.11510 0.43410 0.17300
H 	H 	0.70370 0.13230 0.45970 -0.01200
C 	C 	0.74050 0.15460 0.42340 -0.25800
H 	H 	0.75500 0.19840 0.44160 0.12300
C 	C 	0.65660 0.99770 0.42330 0.45300
Zn	Zn	0.89642 0.50104 0.51722 1.22000
Zn	Zn	0.86615 0.65637 0.56906 1.23800
O 	O 	0.42390 0.89020 0.04620 -0.56400
O 	O 	0.43468 0.81020 0.10282 -0.41400
O 	O 	0.61280 0.89850 0.03000 -0.35800
O 	O 	0.55960 0.98620 0.01910 -0.38000
O 	O 	0.63520 0.77870 0.33953 -0.25600
O 	O 	0.67340 0.76850 0.42160 -0.41900
O 	O 	0.82230 0.64170 0.49982 -0.45300
O 	O 	0.84710 0.55750 0.45872 -0.42600
O 	O 	0.86020 0.44040 0.10051 -0.50700
O 	O 	0.85040 0.52750 0.04310 -0.49700
N 	N 	0.66200 0.71000 0.14670 -0.18300
N 	N 	0.67160 0.67710 0.22682 -0.18600
N 	N 	0.72870 0.63840 0.20206 -0.17300
N 	N 	0.60690 0.74010 0.17399 -0.25000
H 	H 	0.59750 0.72970 0.19590 0.14900
N 	N 	0.74030 0.61980 0.28107 -0.23700
H 	H 	0.76120 0.58660 0.28300 0.14100
N 	N 	0.71450 0.67080 0.12090 -0.26300
H 	H 	0.69780 0.69920 0.09590 0.14800
C 	C 	0.64710 0.71050 0.18180 0.21700
C 	C 	0.70150 0.67510 0.15810 0.20800
C 	C 	0.71030 0.64750 0.23490 0.21100
C 	C 	0.57600 0.78770 0.13420 0.14800
C 	C 	0.53150 0.79740 0.12750 -0.11000
H 	H 	0.52120 0.77100 0.14770 0.08900
C 	C 	0.50040 0.84690 0.09050 -0.05200
C 	C 	0.51750 0.88480 0.06100 -0.04200
H 	H 	0.49780 0.91720 0.03580 0.06700
C 	C 	0.56090 0.87510 0.06840 0.00000
C 	C 	0.59320 0.82510 0.10500 -0.12500
H 	H 	0.62370 0.81810 0.10900 0.10300
C 	C 	0.57920 0.92480 0.03760 0.27200
C 	C 	0.45020 0.86060 0.08060 0.38900
C 	C 	0.73880 0.64250 0.32540 0.14100
C 	C 	0.70370 0.68390 0.32950 -0.11800
H 	H 	0.67790 0.69930 0.30100 0.10100
C 	C 	0.70570 0.70330 0.37500 -0.01500
C 	C 	0.66970 0.75290 0.37820 0.28500
C 	C 	0.74280 0.67810 0.41750 -0.03600
H 	H 	0.74440 0.69010 0.44810 0.07800
C 	C 	0.77810 0.63390 0.41380 -0.02500
C 	C 	0.82060 0.60850 0.46070 0.35800
C 	C 	0.77720 0.61710 0.36890 -0.10900
H 	H 	0.80150 0.58930 0.36730 0.08700
C 	C 	0.74850 0.63060 0.11550 0.23200
C 	C 	0.77420 0.56720 0.14400 -0.24500
H 	H 	0.76970 0.55080 0.17090 0.13100
C 	C 	0.80520 0.53020 0.13230 0.15000
H 	H 	0.82250 0.48950 0.15210 -0.00100
C 	C 	0.81220 0.55130 0.09120 -0.20300
C 	C 	0.79010 0.61510 0.06590 0.17300
H 	H 	0.79630 0.63230 0.04030 -0.01200
C 	C 	0.75950 0.65460 0.07660 -0.25800
H 	H 	0.74500 0.69840 0.05840 0.12200
C 	C 	0.84340 0.49770 0.07670 0.45400
Zn	Zn	0.39642 0.00104 0.51722 1.22000
Zn	Zn	0.36615 0.15637 0.56906 1.23800
O 	O 	0.92390 0.39020 0.04620 -0.56400
O 	O 	0.93468 0.31020 0.10282 -0.41400
O 	O 	0.11280 0.39850 0.03000 -0.35700
O 	O 	0.05960 0.48620 0.01910 -0.37900
O 	O 	0.13520 0.27870 0.33953 -0.25500
O 	O 	0.17340 0.26850 0.42160 -0.41900
O 	O 	0.32230 0.14170 0.49982 -0.45300
O 	O 	0.34710 0.05750 0.45872 -0.42600
O 	O 	0.36020 0.94040 0.10051 -0.50700
O 	O 	0.35040 0.02750 0.04310 -0.49400
N 	N 	0.16200 0.21000 0.14670 -0.18300
N 	N 	0.17160 0.17710 0.22682 -0.18600
N 	N 	0.22870 0.13840 0.20206 -0.17200
N 	N 	0.10690 0.24010 0.17399 -0.25000
H 	H 	0.09750 0.22970 0.19590 0.14900
N 	N 	0.24030 0.11980 0.28107 -0.23800
H 	H 	0.26120 0.08660 0.28300 0.14100
N 	N 	0.21450 0.17080 0.12090 -0.26300
H 	H 	0.19780 0.19920 0.09590 0.14900
C 	C 	0.14710 0.21050 0.18180 0.21700
C 	C 	0.20150 0.17510 0.15810 0.20900
C 	C 	0.21030 0.14750 0.23490 0.21100
C 	C 	0.07600 0.28770 0.13420 0.14800
C 	C 	0.03150 0.29740 0.12750 -0.10900
H 	H 	0.02120 0.27100 0.14770 0.08900
C 	C 	0.00040 0.34690 0.09050 -0.05200
C 	C 	0.01750 0.38480 0.06100 -0.04000
H 	H 	0.99780 0.41720 0.03580 0.06600
C 	C 	0.06090 0.37510 0.06840 -0.00000
C 	C 	0.09320 0.32510 0.10500 -0.12400
H 	H 	0.12370 0.31810 0.10900 0.10300
C 	C 	0.07920 0.42480 0.03760 0.27300
C 	C 	0.95020 0.36060 0.08060 0.38800
C 	C 	0.23880 0.14250 0.32540 0.14100
C 	C 	0.20370 0.18390 0.32950 -0.11800
H 	H 	0.17790 0.19930 0.30100 0.10100
C 	C 	0.20570 0.20330 0.37500 -0.01500
C 	C 	0.16970 0.25290 0.37820 0.28500
C 	C 	0.24280 0.17810 0.41750 -0.03600
H 	H 	0.24440 0.19010 0.44810 0.07800
C 	C 	0.27810 0.13390 0.41380 -0.02500
C 	C 	0.32060 0.10850 0.46070 0.35800
C 	C 	0.27720 0.11710 0.36890 -0.10900
H 	H 	0.30150 0.08930 0.36730 0.08700
C 	C 	0.24850 0.13060 0.11550 0.23200
C 	C 	0.27420 0.06720 0.14400 -0.24600
H 	H 	0.26970 0.05080 0.17090 0.13200
C 	C 	0.30520 0.03020 0.13230 0.15200
H 	H 	0.32250 0.98950 0.15210 -0.00200
C 	C 	0.31220 0.05130 0.09120 -0.20200
C 	C 	0.29010 0.11510 0.06590 0.17200
H 	H 	0.29630 0.13230 0.04030 -0.01200
C 	C 	0.25950 0.15460 0.07660 -0.25700
H 	H 	0.24500 0.19840 0.05840 0.12300
C 	C 	0.34340 0.99770 0.07670 0.45100
