data_crystal

_cell_length_a 29.44360
_cell_length_b 29.44360
_cell_length_c 54.54300
_cell_angle_alpha 90.00000
_cell_angle_beta  90.00000
_cell_angle_gamma 90.00000

_symmetry_space_group_name_	'P 1'
_symmetry_space_group_name_H-M	'P 1'

loop_
_symmetry_equiv_pos_as_xyz
  x,y,z

loop_
_atom_site_label
_atom_site_type_symbol
_atom_site_fract_x
_atom_site_fract_y
_atom_site_fract_z
_atom_site_charge
O 	O 	0.84840 0.46290 0.06917 -0.74200
O 	O 	0.84750 0.36820 0.06551 -0.72400
O 	O 	0.93850 0.46510 0.14589 -0.71400
O 	O 	0.79180 0.51070 0.10853 -0.75100
O 	O 	0.90170 0.50990 0.11461 -0.71900
O 	O 	0.89480 0.31120 0.10490 -0.73500
O 	O 	0.88160 0.49200 0.18125 -0.59300
O 	O 	0.75780 0.46090 0.07188 -0.55500
O 	O 	0.83950 0.54200 0.14593 -0.60300
O 	O 	0.97910 0.41010 0.11300 -0.59900
O 	O 	0.84080 0.26290 0.06067 -0.48600
O 	O 	0.93650 0.46020 0.07796 -0.60200
O 	O 	0.93700 0.36670 0.07359 -0.50600
N 	N 	0.85500 0.06730 0.92955 -0.32100
C 	C 	0.87310 0.22260 0.02810 -0.11600
C 	C 	0.83320 0.20410 0.02220 0.00600
H 	H 	0.80710 0.21280 0.03060 0.02300
O 	O 	0.90700 0.28690 0.04850 -0.31900
C 	C 	0.87550 0.25670 0.04830 0.33000
C 	C 	0.86160 0.13200 0.96720 0.11700
C 	C 	0.83030 0.17060 0.00270 -0.08500
H 	H 	0.80400 0.15340 0.00090 0.04000
C 	C 	0.86620 0.16420 0.98710 -0.01700
C 	C 	0.82810 0.10060 0.96660 -0.18000
H 	H 	0.80650 0.10050 0.97910 0.06900
C 	C 	0.82470 0.06670 0.94690 0.06800
H 	H 	0.80150 0.04520 0.94690 -0.05100
C 	C 	0.90850 0.21550 0.01260 0.00200
H 	H 	0.93640 0.22920 0.01570 0.02200
C 	C 	0.88400 0.13380 0.94750 -0.22500
H 	H 	0.90320 0.15840 0.94500 0.08200
C 	C 	0.88120 0.09850 0.92840 0.14300
H 	H 	0.90040 0.10050 0.91490 -0.08000
C 	C 	0.90280 0.18670 0.99140 -0.08100
H 	H 	0.92680 0.18420 0.98030 0.03600
Mo	Mo	0.80364 0.41714 0.06031 1.05700
Mo	Mo	0.77817 0.51159 0.14396 1.05200
Mo	Mo	0.89314 0.41548 0.06292 1.05900
Mo	Mo	0.94774 0.35011 0.10927 1.04800
Mo	Mo	0.95346 0.46646 0.10960 1.10300
Mo	Mo	0.89442 0.51558 0.15126 1.10700
Zn	Zn	0.83976 0.31166 0.08474 1.22000
Zn	Zn	0.85080 0.51438 0.09252 1.20400
O 	O 	0.34840 0.96290 0.56917 -0.74100
O 	O 	0.34750 0.86820 0.56551 -0.72300
O 	O 	0.43850 0.96510 0.64589 -0.71300
O 	O 	0.29180 0.01070 0.60853 -0.75000
O 	O 	0.40170 0.00990 0.61461 -0.71800
O 	O 	0.39480 0.81120 0.60490 -0.73400
O 	O 	0.38160 0.99200 0.68125 -0.59200
O 	O 	0.25780 0.96090 0.57188 -0.55400
O 	O 	0.33950 0.04200 0.64593 -0.60200
O 	O 	0.47910 0.91010 0.61300 -0.59800
O 	O 	0.34080 0.76290 0.56067 -0.48500
O 	O 	0.43650 0.96020 0.57796 -0.60100
O 	O 	0.43700 0.86670 0.57359 -0.50500
N 	N 	0.35500 0.56730 0.42955 -0.32000
C 	C 	0.37310 0.72260 0.52810 -0.11500
C 	C 	0.33320 0.70410 0.52220 0.00700
H 	H 	0.30710 0.71280 0.53060 0.02300
O 	O 	0.40700 0.78690 0.54850 -0.31900
C 	C 	0.37550 0.75670 0.54830 0.33000
C 	C 	0.36160 0.63200 0.46720 0.11700
C 	C 	0.33030 0.67060 0.50270 -0.08500
H 	H 	0.30400 0.65340 0.50090 0.04000
C 	C 	0.36620 0.66420 0.48710 -0.01700
C 	C 	0.32810 0.60060 0.46660 -0.18000
H 	H 	0.30650 0.60050 0.47910 0.06900
C 	C 	0.32470 0.56670 0.44690 0.06800
H 	H 	0.30150 0.54520 0.44690 -0.05100
C 	C 	0.40850 0.71550 0.51260 0.00200
H 	H 	0.43640 0.72920 0.51570 0.02200
C 	C 	0.38400 0.63380 0.44750 -0.22500
H 	H 	0.40320 0.65840 0.44500 0.08200
C 	C 	0.38120 0.59850 0.42840 0.14300
H 	H 	0.40040 0.60050 0.41490 -0.08000
C 	C 	0.40280 0.68670 0.49140 -0.08100
H 	H 	0.42680 0.68420 0.48030 0.03600
Mo	Mo	0.30364 0.91714 0.56031 1.05700
Mo	Mo	0.27817 0.01159 0.64396 1.05300
Mo	Mo	0.39314 0.91548 0.56292 1.05900
Mo	Mo	0.44774 0.85011 0.60927 1.04800
Mo	Mo	0.45346 0.96646 0.60960 1.10400
Mo	Mo	0.39442 0.01558 0.65126 1.10700
Zn	Zn	0.33976 0.81166 0.58474 1.22000
Zn	Zn	0.35080 0.01438 0.59252 1.20400
O 	O 	0.78710 0.40160 0.18083 -0.74100
O 	O 	0.88180 0.40250 0.18449 -0.72300
O 	O 	0.78490 0.31150 0.10411 -0.71300
O 	O 	0.73930 0.45820 0.14147 -0.75000
O 	O 	0.74010 0.34830 0.13539 -0.71800
O 	O 	0.93880 0.35520 0.14510 -0.73400
O 	O 	0.75800 0.36840 0.06875 -0.59200
O 	O 	0.78910 0.49220 0.17812 -0.55400
O 	O 	0.70800 0.41050 0.10407 -0.60200
O 	O 	0.83990 0.27090 0.13700 -0.59800
O 	O 	0.98710 0.40920 0.18933 -0.48500
O 	O 	0.78980 0.31350 0.17204 -0.60100
O 	O 	0.88330 0.31300 0.17641 -0.50500
N 	N 	0.18270 0.39500 0.32045 -0.32000
C 	C 	0.02740 0.37690 0.22190 -0.11500
C 	C 	0.04590 0.41680 0.22780 0.00700
H 	H 	0.03720 0.44290 0.21940 0.02300
O 	O 	0.96310 0.34300 0.20150 -0.31900
C 	C 	0.99330 0.37450 0.20170 0.33000
C 	C 	0.11800 0.38840 0.28280 0.11700
C 	C 	0.07940 0.41970 0.24730 -0.08500
H 	H 	0.09660 0.44600 0.24910 0.04000
C 	C 	0.08580 0.38380 0.26290 -0.01700
C 	C 	0.14940 0.42190 0.28340 -0.18000
H 	H 	0.14950 0.44350 0.27090 0.06900
C 	C 	0.18330 0.42530 0.30310 0.06800
H 	H 	0.20480 0.44850 0.30310 -0.05100
C 	C 	0.03450 0.34150 0.23740 0.00200
H 	H 	0.02080 0.31360 0.23430 0.02200
C 	C 	0.11620 0.36600 0.30250 -0.22500
H 	H 	0.09160 0.34680 0.30500 0.08200
C 	C 	0.15150 0.36880 0.32160 0.14300
H 	H 	0.14950 0.34960 0.33510 -0.08000
C 	C 	0.06330 0.34720 0.25860 -0.08200
H 	H 	0.06580 0.32320 0.26970 0.03600
Mo	Mo	0.83286 0.44636 0.18969 1.05700
Mo	Mo	0.73841 0.47183 0.10604 1.05200
Mo	Mo	0.83452 0.35686 0.18708 1.05900
Mo	Mo	0.89989 0.30226 0.14073 1.04800
Mo	Mo	0.78354 0.29654 0.14040 1.10400
Mo	Mo	0.73442 0.35558 0.09874 1.10700
Zn	Zn	0.93834 0.41024 0.16526 1.22000
Zn	Zn	0.73562 0.39920 0.15748 1.20400
O 	O 	0.28710 0.90160 0.68083 -0.74100
O 	O 	0.38180 0.90250 0.68449 -0.72300
O 	O 	0.28490 0.81150 0.60411 -0.71300
O 	O 	0.23930 0.95820 0.64147 -0.75000
O 	O 	0.24010 0.84830 0.63539 -0.71800
O 	O 	0.43880 0.85520 0.64510 -0.73400
O 	O 	0.25800 0.86840 0.56875 -0.59200
O 	O 	0.28910 0.99220 0.67812 -0.55400
O 	O 	0.20800 0.91050 0.60407 -0.60200
O 	O 	0.33990 0.77090 0.63700 -0.59800
O 	O 	0.48710 0.90920 0.68933 -0.48500
O 	O 	0.28980 0.81350 0.67204 -0.60100
O 	O 	0.38330 0.81300 0.67641 -0.50500
N 	N 	0.68270 0.89500 0.82045 -0.32000
C 	C 	0.52740 0.87690 0.72190 -0.11500
C 	C 	0.54590 0.91680 0.72780 0.00700
H 	H 	0.53720 0.94290 0.71940 0.02300
O 	O 	0.46310 0.84300 0.70150 -0.31900
C 	C 	0.49330 0.87450 0.70170 0.33000
C 	C 	0.61800 0.88840 0.78280 0.11700
C 	C 	0.57940 0.91970 0.74730 -0.08500
H 	H 	0.59660 0.94600 0.74910 0.04000
C 	C 	0.58580 0.88380 0.76290 -0.01700
C 	C 	0.64940 0.92190 0.78340 -0.18000
H 	H 	0.64950 0.94350 0.77090 0.06900
C 	C 	0.68330 0.92530 0.80310 0.06800
H 	H 	0.70480 0.94850 0.80310 -0.05100
C 	C 	0.53450 0.84150 0.73740 0.00200
H 	H 	0.52080 0.81360 0.73430 0.02200
C 	C 	0.61620 0.86600 0.80250 -0.22500
H 	H 	0.59160 0.84680 0.80500 0.08200
C 	C 	0.65150 0.86880 0.82160 0.14300
H 	H 	0.64950 0.84960 0.83510 -0.08000
C 	C 	0.56330 0.84720 0.75860 -0.08100
H 	H 	0.56580 0.82320 0.76970 0.03600
Mo	Mo	0.33286 0.94636 0.68969 1.05700
Mo	Mo	0.23841 0.97183 0.60604 1.05200
Mo	Mo	0.33452 0.85686 0.68708 1.05900
Mo	Mo	0.39989 0.80226 0.64073 1.04800
Mo	Mo	0.28354 0.79654 0.64040 1.10300
Mo	Mo	0.23442 0.85558 0.59874 1.10700
Zn	Zn	0.43834 0.91024 0.66526 1.22000
Zn	Zn	0.23562 0.89920 0.65748 1.20400
O 	O 	0.34840 0.46290 0.43083 -0.74100
O 	O 	0.34750 0.36820 0.43449 -0.72300
O 	O 	0.43850 0.46510 0.35411 -0.71300
O 	O 	0.29180 0.51070 0.39147 -0.75000
O 	O 	0.40170 0.50990 0.38539 -0.71800
O 	O 	0.39480 0.31120 0.39510 -0.73400
O 	O 	0.38160 0.49200 0.31875 -0.59200
O 	O 	0.25780 0.46090 0.42812 -0.55400
O 	O 	0.33950 0.54200 0.35407 -0.60200
O 	O 	0.47910 0.41010 0.38700 -0.59800
O 	O 	0.34080 0.26290 0.43933 -0.48500
O 	O 	0.43650 0.46020 0.42204 -0.60100
O 	O 	0.43700 0.36670 0.42641 -0.50500
N 	N 	0.35500 0.06730 0.57045 -0.32000
C 	C 	0.37310 0.22260 0.47190 -0.11500
C 	C 	0.33320 0.20410 0.47780 0.00700
H 	H 	0.30710 0.21280 0.46940 0.02300
O 	O 	0.40700 0.28690 0.45150 -0.31900
C 	C 	0.37550 0.25670 0.45170 0.33000
C 	C 	0.36160 0.13200 0.53280 0.11700
C 	C 	0.33030 0.17060 0.49730 -0.08500
H 	H 	0.30400 0.15340 0.49910 0.04000
C 	C 	0.36620 0.16420 0.51290 -0.01700
C 	C 	0.32810 0.10060 0.53340 -0.18000
H 	H 	0.30650 0.10050 0.52090 0.06900
C 	C 	0.32470 0.06670 0.55310 0.06800
H 	H 	0.30150 0.04520 0.55310 -0.05100
C 	C 	0.40850 0.21550 0.48740 0.00200
H 	H 	0.43640 0.22920 0.48430 0.02200
C 	C 	0.38400 0.13380 0.55250 -0.22500
H 	H 	0.40320 0.15840 0.55500 0.08200
C 	C 	0.38120 0.09850 0.57160 0.14300
H 	H 	0.40040 0.10050 0.58510 -0.08000
C 	C 	0.40280 0.18670 0.50860 -0.08100
H 	H 	0.42680 0.18420 0.51970 0.03600
Mo	Mo	0.30364 0.41714 0.43969 1.05700
Mo	Mo	0.27817 0.51159 0.35604 1.05200
Mo	Mo	0.39314 0.41548 0.43708 1.05900
Mo	Mo	0.44774 0.35011 0.39073 1.04800
Mo	Mo	0.45346 0.46646 0.39040 1.10300
Mo	Mo	0.39442 0.51558 0.34874 1.10700
Zn	Zn	0.33976 0.31166 0.41526 1.22000
Zn	Zn	0.35080 0.51438 0.40748 1.20400
O 	O 	0.84840 0.96290 0.93083 -0.74100
O 	O 	0.84750 0.86820 0.93449 -0.72300
O 	O 	0.93850 0.96510 0.85411 -0.71300
O 	O 	0.79180 0.01070 0.89147 -0.75000
O 	O 	0.90170 0.00990 0.88539 -0.71800
O 	O 	0.89480 0.81120 0.89510 -0.73400
O 	O 	0.88160 0.99200 0.81875 -0.59200
O 	O 	0.75780 0.96090 0.92812 -0.55400
O 	O 	0.83950 0.04200 0.85407 -0.60200
O 	O 	0.97910 0.91010 0.88700 -0.59800
O 	O 	0.84080 0.76290 0.93933 -0.48500
O 	O 	0.93650 0.96020 0.92204 -0.60100
O 	O 	0.93700 0.86670 0.92641 -0.50500
N 	N 	0.85500 0.56730 0.07045 -0.32000
C 	C 	0.87310 0.72260 0.97190 -0.11500
C 	C 	0.83320 0.70410 0.97780 0.00700
H 	H 	0.80710 0.71280 0.96940 0.02300
O 	O 	0.90700 0.78690 0.95150 -0.31900
C 	C 	0.87550 0.75670 0.95170 0.33000
C 	C 	0.86160 0.63200 0.03280 0.11700
C 	C 	0.83030 0.67060 0.99730 -0.08500
H 	H 	0.80400 0.65340 0.99910 0.04000
C 	C 	0.86620 0.66420 0.01290 -0.01700
C 	C 	0.82810 0.60060 0.03340 -0.18000
H 	H 	0.80650 0.60050 0.02090 0.06900
C 	C 	0.82470 0.56670 0.05310 0.06800
H 	H 	0.80150 0.54520 0.05310 -0.05100
C 	C 	0.90850 0.71550 0.98740 0.00200
H 	H 	0.93640 0.72920 0.98430 0.02200
C 	C 	0.88400 0.63380 0.05250 -0.22500
H 	H 	0.90320 0.65840 0.05500 0.08200
C 	C 	0.88120 0.59850 0.07160 0.14300
H 	H 	0.90040 0.60050 0.08510 -0.08000
C 	C 	0.90280 0.68670 0.00860 -0.08100
H 	H 	0.92680 0.68420 0.01970 0.03600
Mo	Mo	0.80364 0.91714 0.93969 1.05700
Mo	Mo	0.77817 0.01159 0.85604 1.05300
Mo	Mo	0.89314 0.91548 0.93708 1.05900
Mo	Mo	0.94774 0.85011 0.89073 1.04800
Mo	Mo	0.95346 0.96646 0.89040 1.10300
Mo	Mo	0.89442 0.01558 0.84874 1.10700
Zn	Zn	0.83976 0.81166 0.91526 1.22000
Zn	Zn	0.85080 0.01438 0.90748 1.20400
O 	O 	0.28710 0.40160 0.31917 -0.74100
O 	O 	0.38180 0.40250 0.31551 -0.72300
O 	O 	0.28490 0.31150 0.39589 -0.71300
O 	O 	0.23930 0.45820 0.35853 -0.75000
O 	O 	0.24010 0.34830 0.36461 -0.71800
O 	O 	0.43880 0.35520 0.35490 -0.73400
O 	O 	0.25800 0.36840 0.43125 -0.59200
O 	O 	0.28910 0.49220 0.32188 -0.55400
O 	O 	0.20800 0.41050 0.39593 -0.60200
O 	O 	0.33990 0.27090 0.36300 -0.59800
O 	O 	0.48710 0.40920 0.31067 -0.48500
O 	O 	0.28980 0.31350 0.32796 -0.60100
O 	O 	0.38330 0.31300 0.32359 -0.50500
N 	N 	0.68270 0.39500 0.17955 -0.32000
C 	C 	0.52740 0.37690 0.27810 -0.11500
C 	C 	0.54590 0.41680 0.27220 0.00700
H 	H 	0.53720 0.44290 0.28060 0.02300
O 	O 	0.46310 0.34300 0.29850 -0.31900
C 	C 	0.49330 0.37450 0.29830 0.33000
C 	C 	0.61800 0.38840 0.21720 0.11700
C 	C 	0.57940 0.41970 0.25270 -0.08500
H 	H 	0.59660 0.44600 0.25090 0.04000
C 	C 	0.58580 0.38380 0.23710 -0.01700
C 	C 	0.64940 0.42190 0.21660 -0.18000
H 	H 	0.64950 0.44350 0.22910 0.06900
C 	C 	0.68330 0.42530 0.19690 0.06800
H 	H 	0.70480 0.44850 0.19690 -0.05100
C 	C 	0.53450 0.34150 0.26260 0.00200
H 	H 	0.52080 0.31360 0.26570 0.02200
C 	C 	0.61620 0.36600 0.19750 -0.22500
H 	H 	0.59160 0.34680 0.19500 0.08200
C 	C 	0.65150 0.36880 0.17840 0.14300
H 	H 	0.64950 0.34960 0.16490 -0.08000
C 	C 	0.56330 0.34720 0.24140 -0.08100
H 	H 	0.56580 0.32320 0.23030 0.03600
Mo	Mo	0.33286 0.44636 0.31031 1.05700
Mo	Mo	0.23841 0.47183 0.39396 1.05200
Mo	Mo	0.33452 0.35686 0.31292 1.05900
Mo	Mo	0.39989 0.30226 0.35927 1.04800
Mo	Mo	0.28354 0.29654 0.35960 1.10300
Mo	Mo	0.23442 0.35558 0.40126 1.10700
Zn	Zn	0.43834 0.41024 0.33474 1.22000
Zn	Zn	0.23562 0.39920 0.34252 1.20400
O 	O 	0.78710 0.90160 0.81917 -0.74100
O 	O 	0.88180 0.90250 0.81551 -0.72300
O 	O 	0.78490 0.81150 0.89589 -0.71300
O 	O 	0.73930 0.95820 0.85853 -0.75000
O 	O 	0.74010 0.84830 0.86461 -0.71800
O 	O 	0.93880 0.85520 0.85490 -0.73400
O 	O 	0.75800 0.86840 0.93125 -0.59200
O 	O 	0.78910 0.99220 0.82188 -0.55400
O 	O 	0.70800 0.91050 0.89593 -0.60200
O 	O 	0.83990 0.77090 0.86300 -0.59800
O 	O 	0.98710 0.90920 0.81067 -0.48500
O 	O 	0.78980 0.81350 0.82796 -0.60100
O 	O 	0.88330 0.81300 0.82359 -0.50500
N 	N 	0.18270 0.89500 0.67955 -0.32000
C 	C 	0.02740 0.87690 0.77810 -0.11500
C 	C 	0.04590 0.91680 0.77220 0.00700
H 	H 	0.03720 0.94290 0.78060 0.02300
O 	O 	0.96310 0.84300 0.79850 -0.31900
C 	C 	0.99330 0.87450 0.79830 0.33000
C 	C 	0.11800 0.88840 0.71720 0.11700
C 	C 	0.07940 0.91970 0.75270 -0.08500
H 	H 	0.09660 0.94600 0.75090 0.04000
C 	C 	0.08580 0.88380 0.73710 -0.01700
C 	C 	0.14940 0.92190 0.71660 -0.18000
H 	H 	0.14950 0.94350 0.72910 0.06900
C 	C 	0.18330 0.92530 0.69690 0.06800
H 	H 	0.20480 0.94850 0.69690 -0.05100
C 	C 	0.03450 0.84150 0.76260 0.00200
H 	H 	0.02080 0.81360 0.76570 0.02200
C 	C 	0.11620 0.86600 0.69750 -0.22500
H 	H 	0.09160 0.84680 0.69500 0.08200
C 	C 	0.15150 0.86880 0.67840 0.14300
H 	H 	0.14950 0.84960 0.66490 -0.08000
C 	C 	0.06330 0.84720 0.74140 -0.08100
H 	H 	0.06580 0.82320 0.73030 0.03600
Mo	Mo	0.83286 0.94636 0.81031 1.05700
Mo	Mo	0.73841 0.97183 0.89396 1.05300
Mo	Mo	0.83452 0.85686 0.81292 1.05900
Mo	Mo	0.89989 0.80226 0.85927 1.04800
Mo	Mo	0.78354 0.79654 0.85960 1.10300
Mo	Mo	0.73442 0.85558 0.90126 1.10700
Zn	Zn	0.93834 0.91024 0.83474 1.22000
Zn	Zn	0.73562 0.89920 0.84252 1.20400
O 	O 	0.65160 0.53710 0.56917 -0.74100
O 	O 	0.65250 0.63180 0.56551 -0.72300
O 	O 	0.56150 0.53490 0.64589 -0.71300
O 	O 	0.70820 0.48930 0.60853 -0.75000
O 	O 	0.59830 0.49010 0.61461 -0.71800
O 	O 	0.60520 0.68880 0.60490 -0.73400
O 	O 	0.61840 0.50800 0.68125 -0.59200
O 	O 	0.74220 0.53910 0.57188 -0.55400
O 	O 	0.66050 0.45800 0.64593 -0.60200
O 	O 	0.52090 0.58990 0.61300 -0.59800
O 	O 	0.65920 0.73710 0.56067 -0.48500
O 	O 	0.56350 0.53980 0.57796 -0.60100
O 	O 	0.56300 0.63330 0.57359 -0.50500
N 	N 	0.64500 0.93270 0.42955 -0.32000
C 	C 	0.62690 0.77740 0.52810 -0.11500
C 	C 	0.66680 0.79590 0.52220 0.00700
H 	H 	0.69290 0.78720 0.53060 0.02300
O 	O 	0.59300 0.71310 0.54850 -0.31900
C 	C 	0.62450 0.74330 0.54830 0.33000
C 	C 	0.63840 0.86800 0.46720 0.11700
C 	C 	0.66970 0.82940 0.50270 -0.08500
H 	H 	0.69600 0.84660 0.50090 0.04000
C 	C 	0.63380 0.83580 0.48710 -0.01700
C 	C 	0.67190 0.89940 0.46660 -0.18000
H 	H 	0.69350 0.89950 0.47910 0.06900
C 	C 	0.67530 0.93330 0.44690 0.06800
H 	H 	0.69850 0.95480 0.44690 -0.05100
C 	C 	0.59150 0.78450 0.51260 0.00200
H 	H 	0.56360 0.77080 0.51570 0.02200
C 	C 	0.61600 0.86620 0.44750 -0.22500
H 	H 	0.59680 0.84160 0.44500 0.08200
C 	C 	0.61880 0.90150 0.42840 0.14300
H 	H 	0.59960 0.89950 0.41490 -0.08000
C 	C 	0.59720 0.81330 0.49140 -0.08100
H 	H 	0.57320 0.81580 0.48030 0.03600
Mo	Mo	0.69636 0.58286 0.56031 1.05700
Mo	Mo	0.72183 0.48841 0.64396 1.05200
Mo	Mo	0.60686 0.58452 0.56292 1.05900
Mo	Mo	0.55226 0.64989 0.60927 1.04800
Mo	Mo	0.54654 0.53354 0.60960 1.10300
Mo	Mo	0.60558 0.48442 0.65126 1.10700
Zn	Zn	0.66024 0.68834 0.58474 1.22000
Zn	Zn	0.64920 0.48562 0.59252 1.20400
O 	O 	0.15160 0.03710 0.06917 -0.74100
O 	O 	0.15250 0.13180 0.06551 -0.72300
O 	O 	0.06150 0.03490 0.14589 -0.71300
O 	O 	0.20820 0.98930 0.10853 -0.75000
O 	O 	0.09830 0.99010 0.11461 -0.71800
O 	O 	0.10520 0.18880 0.10490 -0.73400
O 	O 	0.11840 0.00800 0.18125 -0.59200
O 	O 	0.24220 0.03910 0.07188 -0.55400
O 	O 	0.16050 0.95800 0.14593 -0.60200
O 	O 	0.02090 0.08990 0.11300 -0.59800
O 	O 	0.15920 0.23710 0.06067 -0.48500
O 	O 	0.06350 0.03980 0.07796 -0.60100
O 	O 	0.06300 0.13330 0.07359 -0.50500
N 	N 	0.14500 0.43270 0.92955 -0.32000
C 	C 	0.12690 0.27740 0.02810 -0.11500
C 	C 	0.16680 0.29590 0.02220 0.00700
H 	H 	0.19290 0.28720 0.03060 0.02300
O 	O 	0.09300 0.21310 0.04850 -0.31900
C 	C 	0.12450 0.24330 0.04830 0.33000
C 	C 	0.13840 0.36800 0.96720 0.11700
C 	C 	0.16970 0.32940 0.00270 -0.08500
H 	H 	0.19600 0.34660 0.00090 0.04000
C 	C 	0.13380 0.33580 0.98710 -0.01700
C 	C 	0.17190 0.39940 0.96660 -0.18000
H 	H 	0.19350 0.39950 0.97910 0.06900
C 	C 	0.17530 0.43330 0.94690 0.06800
H 	H 	0.19850 0.45480 0.94690 -0.05100
C 	C 	0.09150 0.28450 0.01260 0.00200
H 	H 	0.06360 0.27080 0.01570 0.02200
C 	C 	0.11600 0.36620 0.94750 -0.22500
H 	H 	0.09680 0.34160 0.94500 0.08200
C 	C 	0.11880 0.40150 0.92840 0.14300
H 	H 	0.09960 0.39950 0.91490 -0.08000
C 	C 	0.09720 0.31330 0.99140 -0.08100
H 	H 	0.07320 0.31580 0.98030 0.03600
Mo	Mo	0.19636 0.08286 0.06031 1.05700
Mo	Mo	0.22183 0.98841 0.14396 1.05300
Mo	Mo	0.10686 0.08452 0.06292 1.05900
Mo	Mo	0.05226 0.14989 0.10927 1.04800
Mo	Mo	0.04654 0.03354 0.10960 1.10300
Mo	Mo	0.10558 0.98442 0.15126 1.10700
Zn	Zn	0.16024 0.18834 0.08474 1.22000
Zn	Zn	0.14920 0.98562 0.09252 1.20400
O 	O 	0.71290 0.59840 0.68083 -0.74100
O 	O 	0.61820 0.59750 0.68449 -0.72300
O 	O 	0.71510 0.68850 0.60411 -0.71300
O 	O 	0.76070 0.54180 0.64147 -0.75000
O 	O 	0.75990 0.65170 0.63539 -0.71800
O 	O 	0.56120 0.64480 0.64510 -0.73400
O 	O 	0.74200 0.63160 0.56875 -0.59200
O 	O 	0.71090 0.50780 0.67812 -0.55400
O 	O 	0.79200 0.58950 0.60407 -0.60200
O 	O 	0.66010 0.72910 0.63700 -0.59800
O 	O 	0.51290 0.59080 0.68933 -0.48500
O 	O 	0.71020 0.68650 0.67204 -0.60100
O 	O 	0.61670 0.68700 0.67641 -0.50500
N 	N 	0.31730 0.60500 0.82045 -0.32000
C 	C 	0.47260 0.62310 0.72190 -0.11500
C 	C 	0.45410 0.58320 0.72780 0.00700
H 	H 	0.46280 0.55710 0.71940 0.02300
O 	O 	0.53690 0.65700 0.70150 -0.31900
C 	C 	0.50670 0.62550 0.70170 0.33000
C 	C 	0.38200 0.61160 0.78280 0.11700
C 	C 	0.42060 0.58030 0.74730 -0.08500
H 	H 	0.40340 0.55400 0.74910 0.04000
C 	C 	0.41420 0.61620 0.76290 -0.01700
C 	C 	0.35060 0.57810 0.78340 -0.18000
H 	H 	0.35050 0.55650 0.77090 0.06900
C 	C 	0.31670 0.57470 0.80310 0.06800
H 	H 	0.29520 0.55150 0.80310 -0.05100
C 	C 	0.46550 0.65850 0.73740 0.00200
H 	H 	0.47920 0.68640 0.73430 0.02200
C 	C 	0.38380 0.63400 0.80250 -0.22500
H 	H 	0.40840 0.65320 0.80500 0.08200
C 	C 	0.34850 0.63120 0.82160 0.14300
H 	H 	0.35050 0.65040 0.83510 -0.08000
C 	C 	0.43670 0.65280 0.75860 -0.08100
H 	H 	0.43420 0.67680 0.76970 0.03600
Mo	Mo	0.66714 0.55364 0.68969 1.05700
Mo	Mo	0.76159 0.52817 0.60604 1.05200
Mo	Mo	0.66548 0.64314 0.68708 1.05900
Mo	Mo	0.60011 0.69774 0.64073 1.04800
Mo	Mo	0.71646 0.70346 0.64040 1.10300
Mo	Mo	0.76558 0.64442 0.59874 1.10700
Zn	Zn	0.56166 0.58976 0.66526 1.22000
Zn	Zn	0.76438 0.60080 0.65748 1.20400
O 	O 	0.21290 0.09840 0.18083 -0.74100
O 	O 	0.11820 0.09750 0.18449 -0.72300
O 	O 	0.21510 0.18850 0.10411 -0.71300
O 	O 	0.26070 0.04180 0.14147 -0.75000
O 	O 	0.25990 0.15170 0.13539 -0.71800
O 	O 	0.06120 0.14480 0.14510 -0.73400
O 	O 	0.24200 0.13160 0.06875 -0.59200
O 	O 	0.21090 0.00780 0.17812 -0.55400
O 	O 	0.29200 0.08950 0.10407 -0.60200
O 	O 	0.16010 0.22910 0.13700 -0.59800
O 	O 	0.01290 0.09080 0.18933 -0.48500
O 	O 	0.21020 0.18650 0.17204 -0.60100
O 	O 	0.11670 0.18700 0.17641 -0.50500
N 	N 	0.81730 0.10500 0.32045 -0.32000
C 	C 	0.97260 0.12310 0.22190 -0.11500
C 	C 	0.95410 0.08320 0.22780 0.00700
H 	H 	0.96280 0.05710 0.21940 0.02300
O 	O 	0.03690 0.15700 0.20150 -0.31900
C 	C 	0.00670 0.12550 0.20170 0.33000
C 	C 	0.88200 0.11160 0.28280 0.11700
C 	C 	0.92060 0.08030 0.24730 -0.08500
H 	H 	0.90340 0.05400 0.24910 0.04000
C 	C 	0.91420 0.11620 0.26290 -0.01700
C 	C 	0.85060 0.07810 0.28340 -0.18000
H 	H 	0.85050 0.05650 0.27090 0.06900
C 	C 	0.81670 0.07470 0.30310 0.06800
H 	H 	0.79520 0.05150 0.30310 -0.05100
C 	C 	0.96550 0.15850 0.23740 0.00200
H 	H 	0.97920 0.18640 0.23430 0.02200
C 	C 	0.88380 0.13400 0.30250 -0.22500
H 	H 	0.90840 0.15320 0.30500 0.08200
C 	C 	0.84850 0.13120 0.32160 0.14300
H 	H 	0.85050 0.15040 0.33510 -0.08000
C 	C 	0.93670 0.15280 0.25860 -0.08100
H 	H 	0.93420 0.17680 0.26970 0.03600
Mo	Mo	0.16714 0.05364 0.18969 1.05700
Mo	Mo	0.26159 0.02817 0.10604 1.05300
Mo	Mo	0.16548 0.14314 0.18708 1.05900
Mo	Mo	0.10011 0.19774 0.14073 1.04800
Mo	Mo	0.21646 0.20346 0.14040 1.10300
Mo	Mo	0.26558 0.14442 0.09874 1.10700
Zn	Zn	0.06166 0.08976 0.16526 1.22000
Zn	Zn	0.26438 0.10080 0.15748 1.20400
O 	O 	0.15160 0.53710 0.93083 -0.74100
O 	O 	0.15250 0.63180 0.93449 -0.72300
O 	O 	0.06150 0.53490 0.85411 -0.71300
O 	O 	0.20820 0.48930 0.89147 -0.75000
O 	O 	0.09830 0.49010 0.88539 -0.71800
O 	O 	0.10520 0.68880 0.89510 -0.73400
O 	O 	0.11840 0.50800 0.81875 -0.59200
O 	O 	0.24220 0.53910 0.92812 -0.55400
O 	O 	0.16050 0.45800 0.85407 -0.60200
O 	O 	0.02090 0.58990 0.88700 -0.59800
O 	O 	0.15920 0.73710 0.93933 -0.48500
O 	O 	0.06350 0.53980 0.92204 -0.60100
O 	O 	0.06300 0.63330 0.92641 -0.50500
N 	N 	0.14500 0.93270 0.07045 -0.32000
C 	C 	0.12690 0.77740 0.97190 -0.11500
C 	C 	0.16680 0.79590 0.97780 0.00700
H 	H 	0.19290 0.78720 0.96940 0.02300
O 	O 	0.09300 0.71310 0.95150 -0.31900
C 	C 	0.12450 0.74330 0.95170 0.33000
C 	C 	0.13840 0.86800 0.03280 0.11700
C 	C 	0.16970 0.82940 0.99730 -0.08500
H 	H 	0.19600 0.84660 0.99910 0.04000
C 	C 	0.13380 0.83580 0.01290 -0.01700
C 	C 	0.17190 0.89940 0.03340 -0.18000
H 	H 	0.19350 0.89950 0.02090 0.06900
C 	C 	0.17530 0.93330 0.05310 0.06800
H 	H 	0.19850 0.95480 0.05310 -0.05100
C 	C 	0.09150 0.78450 0.98740 0.00200
H 	H 	0.06360 0.77080 0.98430 0.02200
C 	C 	0.11600 0.86620 0.05250 -0.22500
H 	H 	0.09680 0.84160 0.05500 0.08200
C 	C 	0.11880 0.90150 0.07160 0.14300
H 	H 	0.09960 0.89950 0.08510 -0.08000
C 	C 	0.09720 0.81330 0.00860 -0.08100
H 	H 	0.07320 0.81580 0.01970 0.03600
Mo	Mo	0.19636 0.58286 0.93969 1.05700
Mo	Mo	0.22183 0.48841 0.85604 1.05200
Mo	Mo	0.10686 0.58452 0.93708 1.05900
Mo	Mo	0.05226 0.64989 0.89073 1.04800
Mo	Mo	0.04654 0.53354 0.89040 1.10300
Mo	Mo	0.10558 0.48442 0.84874 1.10700
Zn	Zn	0.16024 0.68834 0.91526 1.22000
Zn	Zn	0.14920 0.48562 0.90748 1.20400
O 	O 	0.65160 0.03710 0.43083 -0.74100
O 	O 	0.65250 0.13180 0.43449 -0.72300
O 	O 	0.56150 0.03490 0.35411 -0.71300
O 	O 	0.70820 0.98930 0.39147 -0.75000
O 	O 	0.59830 0.99010 0.38539 -0.71800
O 	O 	0.60520 0.18880 0.39510 -0.73400
O 	O 	0.61840 0.00800 0.31875 -0.59200
O 	O 	0.74220 0.03910 0.42812 -0.55400
O 	O 	0.66050 0.95800 0.35407 -0.60200
O 	O 	0.52090 0.08990 0.38700 -0.59800
O 	O 	0.65920 0.23710 0.43933 -0.48500
O 	O 	0.56350 0.03980 0.42204 -0.60100
O 	O 	0.56300 0.13330 0.42641 -0.50500
N 	N 	0.64500 0.43270 0.57045 -0.32000
C 	C 	0.62690 0.27740 0.47190 -0.11500
C 	C 	0.66680 0.29590 0.47780 0.00700
H 	H 	0.69290 0.28720 0.46940 0.02300
O 	O 	0.59300 0.21310 0.45150 -0.31900
C 	C 	0.62450 0.24330 0.45170 0.33000
C 	C 	0.63840 0.36800 0.53280 0.11700
C 	C 	0.66970 0.32940 0.49730 -0.08500
H 	H 	0.69600 0.34660 0.49910 0.04000
C 	C 	0.63380 0.33580 0.51290 -0.01700
C 	C 	0.67190 0.39940 0.53340 -0.18000
H 	H 	0.69350 0.39950 0.52090 0.06900
C 	C 	0.67530 0.43330 0.55310 0.06800
H 	H 	0.69850 0.45480 0.55310 -0.05100
C 	C 	0.59150 0.28450 0.48740 0.00200
H 	H 	0.56360 0.27080 0.48430 0.02200
C 	C 	0.61600 0.36620 0.55250 -0.22500
H 	H 	0.59680 0.34160 0.55500 0.08200
C 	C 	0.61880 0.40150 0.57160 0.14300
H 	H 	0.59960 0.39950 0.58510 -0.08000
C 	C 	0.59720 0.31330 0.50860 -0.08100
H 	H 	0.57320 0.31580 0.51970 0.03600
Mo	Mo	0.69636 0.08286 0.43969 1.05700
Mo	Mo	0.72183 0.98841 0.35604 1.05300
Mo	Mo	0.60686 0.08452 0.43708 1.05900
Mo	Mo	0.55226 0.14989 0.39073 1.04800
Mo	Mo	0.54654 0.03354 0.39040 1.10400
Mo	Mo	0.60558 0.98442 0.34874 1.10700
Zn	Zn	0.66024 0.18834 0.41526 1.22000
Zn	Zn	0.64920 0.98562 0.40748 1.20400
O 	O 	0.21290 0.59840 0.81917 -0.74100
O 	O 	0.11820 0.59750 0.81551 -0.72300
O 	O 	0.21510 0.68850 0.89589 -0.71300
O 	O 	0.26070 0.54180 0.85853 -0.75000
O 	O 	0.25990 0.65170 0.86461 -0.71800
O 	O 	0.06120 0.64480 0.85490 -0.73400
O 	O 	0.24200 0.63160 0.93125 -0.59200
O 	O 	0.21090 0.50780 0.82188 -0.55400
O 	O 	0.29200 0.58950 0.89593 -0.60200
O 	O 	0.16010 0.72910 0.86300 -0.59800
O 	O 	0.01290 0.59080 0.81067 -0.48500
O 	O 	0.21020 0.68650 0.82796 -0.60100
O 	O 	0.11670 0.68700 0.82359 -0.50500
N 	N 	0.81730 0.60500 0.67955 -0.32000
C 	C 	0.97260 0.62310 0.77810 -0.11500
C 	C 	0.95410 0.58320 0.77220 0.00700
H 	H 	0.96280 0.55710 0.78060 0.02300
O 	O 	0.03690 0.65700 0.79850 -0.31900
C 	C 	0.00670 0.62550 0.79830 0.33000
C 	C 	0.88200 0.61160 0.71720 0.11700
C 	C 	0.92060 0.58030 0.75270 -0.08500
H 	H 	0.90340 0.55400 0.75090 0.04000
C 	C 	0.91420 0.61620 0.73710 -0.01700
C 	C 	0.85060 0.57810 0.71660 -0.18000
H 	H 	0.85050 0.55650 0.72910 0.06900
C 	C 	0.81670 0.57470 0.69690 0.06800
H 	H 	0.79520 0.55150 0.69690 -0.05100
C 	C 	0.96550 0.65850 0.76260 0.00200
H 	H 	0.97920 0.68640 0.76570 0.02200
C 	C 	0.88380 0.63400 0.69750 -0.22500
H 	H 	0.90840 0.65320 0.69500 0.08200
C 	C 	0.84850 0.63120 0.67840 0.14300
H 	H 	0.85050 0.65040 0.66490 -0.08000
C 	C 	0.93670 0.65280 0.74140 -0.08200
H 	H 	0.93420 0.67680 0.73030 0.03600
Mo	Mo	0.16714 0.55364 0.81031 1.05700
Mo	Mo	0.26159 0.52817 0.89396 1.05200
Mo	Mo	0.16548 0.64314 0.81292 1.05900
Mo	Mo	0.10011 0.69774 0.85927 1.04800
Mo	Mo	0.21646 0.70346 0.85960 1.10400
Mo	Mo	0.26558 0.64442 0.90126 1.10700
Zn	Zn	0.06166 0.58976 0.83474 1.22000
Zn	Zn	0.26438 0.60080 0.84252 1.20400
O 	O 	0.71290 0.09840 0.31917 -0.74100
O 	O 	0.61820 0.09750 0.31551 -0.72300
O 	O 	0.71510 0.18850 0.39589 -0.71300
O 	O 	0.76070 0.04180 0.35853 -0.75000
O 	O 	0.75990 0.15170 0.36461 -0.71800
O 	O 	0.56120 0.14480 0.35490 -0.73400
O 	O 	0.74200 0.13160 0.43125 -0.59200
O 	O 	0.71090 0.00780 0.32188 -0.55400
O 	O 	0.79200 0.08950 0.39593 -0.60200
O 	O 	0.66010 0.22910 0.36300 -0.59800
O 	O 	0.51290 0.09080 0.31067 -0.48500
O 	O 	0.71020 0.18650 0.32796 -0.60100
O 	O 	0.61670 0.18700 0.32359 -0.50500
N 	N 	0.31730 0.10500 0.17955 -0.32000
C 	C 	0.47260 0.12310 0.27810 -0.11500
C 	C 	0.45410 0.08320 0.27220 0.00700
H 	H 	0.46280 0.05710 0.28060 0.02300
O 	O 	0.53690 0.15700 0.29850 -0.31900
C 	C 	0.50670 0.12550 0.29830 0.33000
C 	C 	0.38200 0.11160 0.21720 0.11700
C 	C 	0.42060 0.08030 0.25270 -0.08500
H 	H 	0.40340 0.05400 0.25090 0.04000
C 	C 	0.41420 0.11620 0.23710 -0.01700
C 	C 	0.35060 0.07810 0.21660 -0.18000
H 	H 	0.35050 0.05650 0.22910 0.06900
C 	C 	0.31670 0.07470 0.19690 0.06800
H 	H 	0.29520 0.05150 0.19690 -0.05100
C 	C 	0.46550 0.15850 0.26260 0.00200
H 	H 	0.47920 0.18640 0.26570 0.02200
C 	C 	0.38380 0.13400 0.19750 -0.22500
H 	H 	0.40840 0.15320 0.19500 0.08200
C 	C 	0.34850 0.13120 0.17840 0.14300
H 	H 	0.35050 0.15040 0.16490 -0.08000
C 	C 	0.43670 0.15280 0.24140 -0.08100
H 	H 	0.43420 0.17680 0.23030 0.03600
Mo	Mo	0.66714 0.05364 0.31031 1.05700
Mo	Mo	0.76159 0.02817 0.39396 1.05200
Mo	Mo	0.66548 0.14314 0.31292 1.05900
Mo	Mo	0.60011 0.19774 0.35927 1.04800
Mo	Mo	0.71646 0.20346 0.35960 1.10300
Mo	Mo	0.76558 0.14442 0.40126 1.10700
Zn	Zn	0.56166 0.08976 0.33474 1.22000
Zn	Zn	0.76438 0.10080 0.34252 1.20400
O 	O 	0.78710 0.59840 0.31917 -0.74100
O 	O 	0.88180 0.59750 0.31551 -0.72300
O 	O 	0.78490 0.68850 0.39589 -0.71300
O 	O 	0.73930 0.54180 0.35853 -0.75000
O 	O 	0.74010 0.65170 0.36461 -0.71800
O 	O 	0.93880 0.64480 0.35490 -0.73400
O 	O 	0.75800 0.63160 0.43125 -0.59200
O 	O 	0.78910 0.50780 0.32188 -0.55400
O 	O 	0.70800 0.58950 0.39593 -0.60200
O 	O 	0.83990 0.72910 0.36300 -0.59800
O 	O 	0.98710 0.59080 0.31067 -0.48500
O 	O 	0.78980 0.68650 0.32796 -0.60100
O 	O 	0.88330 0.68700 0.32359 -0.50500
N 	N 	0.18270 0.60500 0.17955 -0.32000
C 	C 	0.02740 0.62310 0.27810 -0.11500
C 	C 	0.04590 0.58320 0.27220 0.00700
H 	H 	0.03720 0.55710 0.28060 0.02300
O 	O 	0.96310 0.65700 0.29850 -0.31900
C 	C 	0.99330 0.62550 0.29830 0.33000
C 	C 	0.11800 0.61160 0.21720 0.11700
C 	C 	0.07940 0.58030 0.25270 -0.08500
H 	H 	0.09660 0.55400 0.25090 0.04000
C 	C 	0.08580 0.61620 0.23710 -0.01700
C 	C 	0.14940 0.57810 0.21660 -0.18000
H 	H 	0.14950 0.55650 0.22910 0.06900
C 	C 	0.18330 0.57470 0.19690 0.06800
H 	H 	0.20480 0.55150 0.19690 -0.05100
C 	C 	0.03450 0.65850 0.26260 0.00200
H 	H 	0.02080 0.68640 0.26570 0.02200
C 	C 	0.11620 0.63400 0.19750 -0.22500
H 	H 	0.09160 0.65320 0.19500 0.08200
C 	C 	0.15150 0.63120 0.17840 0.14300
H 	H 	0.14950 0.65040 0.16490 -0.08000
C 	C 	0.06330 0.65280 0.24140 -0.08200
H 	H 	0.06580 0.67680 0.23030 0.03600
Mo	Mo	0.83286 0.55364 0.31031 1.05700
Mo	Mo	0.73841 0.52817 0.39396 1.05200
Mo	Mo	0.83452 0.64314 0.31292 1.05900
Mo	Mo	0.89989 0.69774 0.35927 1.04800
Mo	Mo	0.78354 0.70346 0.35960 1.10400
Mo	Mo	0.73442 0.64442 0.40126 1.10700
Zn	Zn	0.93834 0.58976 0.33474 1.22000
Zn	Zn	0.73562 0.60080 0.34252 1.20400
O 	O 	0.28710 0.09840 0.81917 -0.74100
O 	O 	0.38180 0.09750 0.81551 -0.72300
O 	O 	0.28490 0.18850 0.89589 -0.71300
O 	O 	0.23930 0.04180 0.85853 -0.75000
O 	O 	0.24010 0.15170 0.86461 -0.71800
O 	O 	0.43880 0.14480 0.85490 -0.73400
O 	O 	0.25800 0.13160 0.93125 -0.59200
O 	O 	0.28910 0.00780 0.82188 -0.55400
O 	O 	0.20800 0.08950 0.89593 -0.60200
O 	O 	0.33990 0.22910 0.86300 -0.59800
O 	O 	0.48710 0.09080 0.81067 -0.48500
O 	O 	0.28980 0.18650 0.82796 -0.60100
O 	O 	0.38330 0.18700 0.82359 -0.50500
N 	N 	0.68270 0.10500 0.67955 -0.32000
C 	C 	0.52740 0.12310 0.77810 -0.11500
C 	C 	0.54590 0.08320 0.77220 0.00700
H 	H 	0.53720 0.05710 0.78060 0.02300
O 	O 	0.46310 0.15700 0.79850 -0.31900
C 	C 	0.49330 0.12550 0.79830 0.33000
C 	C 	0.61800 0.11160 0.71720 0.11700
C 	C 	0.57940 0.08030 0.75270 -0.08500
H 	H 	0.59660 0.05400 0.75090 0.04000
C 	C 	0.58580 0.11620 0.73710 -0.01700
C 	C 	0.64940 0.07810 0.71660 -0.18000
H 	H 	0.64950 0.05650 0.72910 0.06900
C 	C 	0.68330 0.07470 0.69690 0.06800
H 	H 	0.70480 0.05150 0.69690 -0.05100
C 	C 	0.53450 0.15850 0.76260 0.00200
H 	H 	0.52080 0.18640 0.76570 0.02200
C 	C 	0.61620 0.13400 0.69750 -0.22500
H 	H 	0.59160 0.15320 0.69500 0.08200
C 	C 	0.65150 0.13120 0.67840 0.14300
H 	H 	0.64950 0.15040 0.66490 -0.08000
C 	C 	0.56330 0.15280 0.74140 -0.08100
H 	H 	0.56580 0.17680 0.73030 0.03600
Mo	Mo	0.33286 0.05364 0.81031 1.05700
Mo	Mo	0.23841 0.02817 0.89396 1.05200
Mo	Mo	0.33452 0.14314 0.81292 1.05900
Mo	Mo	0.39989 0.19774 0.85927 1.04800
Mo	Mo	0.28354 0.20346 0.85960 1.10300
Mo	Mo	0.23442 0.14442 0.90126 1.10700
Zn	Zn	0.43834 0.08976 0.83474 1.22000
Zn	Zn	0.23562 0.10080 0.84252 1.20400
O 	O 	0.84840 0.53710 0.43083 -0.74100
O 	O 	0.84750 0.63180 0.43449 -0.72300
O 	O 	0.93850 0.53490 0.35411 -0.71300
O 	O 	0.79180 0.48930 0.39147 -0.75000
O 	O 	0.90170 0.49010 0.38539 -0.71800
O 	O 	0.89480 0.68880 0.39510 -0.73400
O 	O 	0.88160 0.50800 0.31875 -0.59200
O 	O 	0.75780 0.53910 0.42812 -0.55400
O 	O 	0.83950 0.45800 0.35407 -0.60200
O 	O 	0.97910 0.58990 0.38700 -0.59800
O 	O 	0.84080 0.73710 0.43933 -0.48500
O 	O 	0.93650 0.53980 0.42204 -0.60100
O 	O 	0.93700 0.63330 0.42641 -0.50500
N 	N 	0.85500 0.93270 0.57045 -0.32000
C 	C 	0.87310 0.77740 0.47190 -0.11500
C 	C 	0.83320 0.79590 0.47780 0.00700
H 	H 	0.80710 0.78720 0.46940 0.02300
O 	O 	0.90700 0.71310 0.45150 -0.31900
C 	C 	0.87550 0.74330 0.45170 0.33000
C 	C 	0.86160 0.86800 0.53280 0.11700
C 	C 	0.83030 0.82940 0.49730 -0.08500
H 	H 	0.80400 0.84660 0.49910 0.04000
C 	C 	0.86620 0.83580 0.51290 -0.01700
C 	C 	0.82810 0.89940 0.53340 -0.18000
H 	H 	0.80650 0.89950 0.52090 0.06900
C 	C 	0.82470 0.93330 0.55310 0.06800
H 	H 	0.80150 0.95480 0.55310 -0.05100
C 	C 	0.90850 0.78450 0.48740 0.00200
H 	H 	0.93640 0.77080 0.48430 0.02200
C 	C 	0.88400 0.86620 0.55250 -0.22500
H 	H 	0.90320 0.84160 0.55500 0.08200
C 	C 	0.88120 0.90150 0.57160 0.14300
H 	H 	0.90040 0.89950 0.58510 -0.08000
C 	C 	0.90280 0.81330 0.50860 -0.08100
H 	H 	0.92680 0.81580 0.51970 0.03600
Mo	Mo	0.80364 0.58286 0.43969 1.05700
Mo	Mo	0.77817 0.48841 0.35604 1.05200
Mo	Mo	0.89314 0.58452 0.43708 1.05900
Mo	Mo	0.94774 0.64989 0.39073 1.04800
Mo	Mo	0.95346 0.53354 0.39040 1.10300
Mo	Mo	0.89442 0.48442 0.34874 1.10700
Zn	Zn	0.83976 0.68834 0.41526 1.22000
Zn	Zn	0.85080 0.48562 0.40748 1.20400
O 	O 	0.34840 0.03710 0.93083 -0.74100
O 	O 	0.34750 0.13180 0.93449 -0.72300
O 	O 	0.43850 0.03490 0.85411 -0.71300
O 	O 	0.29180 0.98930 0.89147 -0.75000
O 	O 	0.40170 0.99010 0.88539 -0.71800
O 	O 	0.39480 0.18880 0.89510 -0.73400
O 	O 	0.38160 0.00800 0.81875 -0.59200
O 	O 	0.25780 0.03910 0.92812 -0.55400
O 	O 	0.33950 0.95800 0.85407 -0.60200
O 	O 	0.47910 0.08990 0.88700 -0.59800
O 	O 	0.34080 0.23710 0.93933 -0.48500
O 	O 	0.43650 0.03980 0.92204 -0.60100
O 	O 	0.43700 0.13330 0.92641 -0.50500
N 	N 	0.35500 0.43270 0.07045 -0.32000
C 	C 	0.37310 0.27740 0.97190 -0.11500
C 	C 	0.33320 0.29590 0.97780 0.00700
H 	H 	0.30710 0.28720 0.96940 0.02300
O 	O 	0.40700 0.21310 0.95150 -0.31900
C 	C 	0.37550 0.24330 0.95170 0.33000
C 	C 	0.36160 0.36800 0.03280 0.11700
C 	C 	0.33030 0.32940 0.99730 -0.08500
H 	H 	0.30400 0.34660 0.99910 0.04000
C 	C 	0.36620 0.33580 0.01290 -0.01700
C 	C 	0.32810 0.39940 0.03340 -0.18000
H 	H 	0.30650 0.39950 0.02090 0.06900
C 	C 	0.32470 0.43330 0.05310 0.06800
H 	H 	0.30150 0.45480 0.05310 -0.05100
C 	C 	0.40850 0.28450 0.98740 0.00200
H 	H 	0.43640 0.27080 0.98430 0.02200
C 	C 	0.38400 0.36620 0.05250 -0.22500
H 	H 	0.40320 0.34160 0.05500 0.08200
C 	C 	0.38120 0.40150 0.07160 0.14300
H 	H 	0.40040 0.39950 0.08510 -0.08000
C 	C 	0.40280 0.31330 0.00860 -0.08100
H 	H 	0.42680 0.31580 0.01970 0.03600
Mo	Mo	0.30364 0.08286 0.93969 1.05700
Mo	Mo	0.27817 0.98841 0.85604 1.05300
Mo	Mo	0.39314 0.08452 0.93708 1.05900
Mo	Mo	0.44774 0.14989 0.89073 1.04800
Mo	Mo	0.45346 0.03354 0.89040 1.10400
Mo	Mo	0.39442 0.98442 0.84874 1.10700
Zn	Zn	0.33976 0.18834 0.91526 1.22000
Zn	Zn	0.35080 0.98562 0.90748 1.20400
O 	O 	0.28710 0.59840 0.18083 -0.74100
O 	O 	0.38180 0.59750 0.18449 -0.72300
O 	O 	0.28490 0.68850 0.10411 -0.71300
O 	O 	0.23930 0.54180 0.14147 -0.75000
O 	O 	0.24010 0.65170 0.13539 -0.71800
O 	O 	0.43880 0.64480 0.14510 -0.73400
O 	O 	0.25800 0.63160 0.06875 -0.59200
O 	O 	0.28910 0.50780 0.17812 -0.55400
O 	O 	0.20800 0.58950 0.10407 -0.60200
O 	O 	0.33990 0.72910 0.13700 -0.59800
O 	O 	0.48710 0.59080 0.18933 -0.48500
O 	O 	0.28980 0.68650 0.17204 -0.60100
O 	O 	0.38330 0.68700 0.17641 -0.50500
N 	N 	0.68270 0.60500 0.32045 -0.32000
C 	C 	0.52740 0.62310 0.22190 -0.11500
C 	C 	0.54590 0.58320 0.22780 0.00700
H 	H 	0.53720 0.55710 0.21940 0.02300
O 	O 	0.46310 0.65700 0.20150 -0.31900
C 	C 	0.49330 0.62550 0.20170 0.33000
C 	C 	0.61800 0.61160 0.28280 0.11700
C 	C 	0.57940 0.58030 0.24730 -0.08500
H 	H 	0.59660 0.55400 0.24910 0.04000
C 	C 	0.58580 0.61620 0.26290 -0.01700
C 	C 	0.64940 0.57810 0.28340 -0.18000
H 	H 	0.64950 0.55650 0.27090 0.06900
C 	C 	0.68330 0.57470 0.30310 0.06800
H 	H 	0.70480 0.55150 0.30310 -0.05100
C 	C 	0.53450 0.65850 0.23740 0.00200
H 	H 	0.52080 0.68640 0.23430 0.02200
C 	C 	0.61620 0.63400 0.30250 -0.22500
H 	H 	0.59160 0.65320 0.30500 0.08200
C 	C 	0.65150 0.63120 0.32160 0.14300
H 	H 	0.64950 0.65040 0.33510 -0.08000
C 	C 	0.56330 0.65280 0.25860 -0.08100
H 	H 	0.56580 0.67680 0.26970 0.03600
Mo	Mo	0.33286 0.55364 0.18969 1.05700
Mo	Mo	0.23841 0.52817 0.10604 1.05200
Mo	Mo	0.33452 0.64314 0.18708 1.05900
Mo	Mo	0.39989 0.69774 0.14073 1.04800
Mo	Mo	0.28354 0.70346 0.14040 1.10300
Mo	Mo	0.23442 0.64442 0.09874 1.10700
Zn	Zn	0.43834 0.58976 0.16526 1.22000
Zn	Zn	0.23562 0.60080 0.15748 1.20400
O 	O 	0.78710 0.09840 0.68083 -0.74100
O 	O 	0.88180 0.09750 0.68449 -0.72300
O 	O 	0.78490 0.18850 0.60411 -0.71300
O 	O 	0.73930 0.04180 0.64147 -0.75000
O 	O 	0.74010 0.15170 0.63539 -0.71800
O 	O 	0.93880 0.14480 0.64510 -0.73400
O 	O 	0.75800 0.13160 0.56875 -0.59200
O 	O 	0.78910 0.00780 0.67812 -0.55400
O 	O 	0.70800 0.08950 0.60407 -0.60200
O 	O 	0.83990 0.22910 0.63700 -0.59800
O 	O 	0.98710 0.09080 0.68933 -0.48500
O 	O 	0.78980 0.18650 0.67204 -0.60100
O 	O 	0.88330 0.18700 0.67641 -0.50500
N 	N 	0.18270 0.10500 0.82045 -0.32000
C 	C 	0.02740 0.12310 0.72190 -0.11500
C 	C 	0.04590 0.08320 0.72780 0.00700
H 	H 	0.03720 0.05710 0.71940 0.02300
O 	O 	0.96310 0.15700 0.70150 -0.31900
C 	C 	0.99330 0.12550 0.70170 0.33000
C 	C 	0.11800 0.11160 0.78280 0.11700
C 	C 	0.07940 0.08030 0.74730 -0.08500
H 	H 	0.09660 0.05400 0.74910 0.04000
C 	C 	0.08580 0.11620 0.76290 -0.01700
C 	C 	0.14940 0.07810 0.78340 -0.18000
H 	H 	0.14950 0.05650 0.77090 0.06900
C 	C 	0.18330 0.07470 0.80310 0.06800
H 	H 	0.20480 0.05150 0.80310 -0.05100
C 	C 	0.03450 0.15850 0.73740 0.00200
H 	H 	0.02080 0.18640 0.73430 0.02200
C 	C 	0.11620 0.13400 0.80250 -0.22500
H 	H 	0.09160 0.15320 0.80500 0.08200
C 	C 	0.15150 0.13120 0.82160 0.14300
H 	H 	0.14950 0.15040 0.83510 -0.08000
C 	C 	0.06330 0.15280 0.75860 -0.08100
H 	H 	0.06580 0.17680 0.76970 0.03600
Mo	Mo	0.83286 0.05364 0.68969 1.05700
Mo	Mo	0.73841 0.02817 0.60604 1.05300
Mo	Mo	0.83452 0.14314 0.68708 1.05900
Mo	Mo	0.89989 0.19774 0.64073 1.04800
Mo	Mo	0.78354 0.20346 0.64040 1.10300
Mo	Mo	0.73442 0.14442 0.59874 1.10700
Zn	Zn	0.93834 0.08976 0.66526 1.22000
Zn	Zn	0.73562 0.10080 0.65748 1.20400
O 	O 	0.34840 0.53710 0.06917 -0.74100
O 	O 	0.34750 0.63180 0.06551 -0.72300
O 	O 	0.43850 0.53490 0.14589 -0.71300
O 	O 	0.29180 0.48930 0.10853 -0.75000
O 	O 	0.40170 0.49010 0.11461 -0.71800
O 	O 	0.39480 0.68880 0.10490 -0.73400
O 	O 	0.38160 0.50800 0.18125 -0.59200
O 	O 	0.25780 0.53910 0.07188 -0.55400
O 	O 	0.33950 0.45800 0.14593 -0.60200
O 	O 	0.47910 0.58990 0.11300 -0.59800
O 	O 	0.34080 0.73710 0.06067 -0.48500
O 	O 	0.43650 0.53980 0.07796 -0.60100
O 	O 	0.43700 0.63330 0.07359 -0.50500
N 	N 	0.35500 0.93270 0.92955 -0.32000
C 	C 	0.37310 0.77740 0.02810 -0.11500
C 	C 	0.33320 0.79590 0.02220 0.00700
H 	H 	0.30710 0.78720 0.03060 0.02300
O 	O 	0.40700 0.71310 0.04850 -0.31900
C 	C 	0.37550 0.74330 0.04830 0.33000
C 	C 	0.36160 0.86800 0.96720 0.11700
C 	C 	0.33030 0.82940 0.00270 -0.08500
H 	H 	0.30400 0.84660 0.00090 0.04000
C 	C 	0.36620 0.83580 0.98710 -0.01700
C 	C 	0.32810 0.89940 0.96660 -0.18000
H 	H 	0.30650 0.89950 0.97910 0.06900
C 	C 	0.32470 0.93330 0.94690 0.06800
H 	H 	0.30150 0.95480 0.94690 -0.05100
C 	C 	0.40850 0.78450 0.01260 0.00200
H 	H 	0.43640 0.77080 0.01570 0.02200
C 	C 	0.38400 0.86620 0.94750 -0.22500
H 	H 	0.40320 0.84160 0.94500 0.08200
C 	C 	0.38120 0.90150 0.92840 0.14300
H 	H 	0.40040 0.89950 0.91490 -0.08000
C 	C 	0.40280 0.81330 0.99140 -0.08100
H 	H 	0.42680 0.81580 0.98030 0.03600
Mo	Mo	0.30364 0.58286 0.06031 1.05700
Mo	Mo	0.27817 0.48841 0.14396 1.05200
Mo	Mo	0.39314 0.58452 0.06292 1.05900
Mo	Mo	0.44774 0.64989 0.10927 1.04800
Mo	Mo	0.45346 0.53354 0.10960 1.10300
Mo	Mo	0.39442 0.48442 0.15126 1.10700
Zn	Zn	0.33976 0.68834 0.08474 1.22000
Zn	Zn	0.35080 0.48562 0.09252 1.20400
O 	O 	0.84840 0.03710 0.56917 -0.74100
O 	O 	0.84750 0.13180 0.56551 -0.72300
O 	O 	0.93850 0.03490 0.64589 -0.71300
O 	O 	0.79180 0.98930 0.60853 -0.75000
O 	O 	0.90170 0.99010 0.61461 -0.71800
O 	O 	0.89480 0.18880 0.60490 -0.73400
O 	O 	0.88160 0.00800 0.68125 -0.59200
O 	O 	0.75780 0.03910 0.57188 -0.55400
O 	O 	0.83950 0.95800 0.64593 -0.60200
O 	O 	0.97910 0.08990 0.61300 -0.59800
O 	O 	0.84080 0.23710 0.56067 -0.48500
O 	O 	0.93650 0.03980 0.57796 -0.60100
O 	O 	0.93700 0.13330 0.57359 -0.50500
N 	N 	0.85500 0.43270 0.42955 -0.32000
C 	C 	0.87310 0.27740 0.52810 -0.11500
C 	C 	0.83320 0.29590 0.52220 0.00700
H 	H 	0.80710 0.28720 0.53060 0.02300
O 	O 	0.90700 0.21310 0.54850 -0.31900
C 	C 	0.87550 0.24330 0.54830 0.33000
C 	C 	0.86160 0.36800 0.46720 0.11700
C 	C 	0.83030 0.32940 0.50270 -0.08500
H 	H 	0.80400 0.34660 0.50090 0.04000
C 	C 	0.86620 0.33580 0.48710 -0.01700
C 	C 	0.82810 0.39940 0.46660 -0.18000
H 	H 	0.80650 0.39950 0.47910 0.06900
C 	C 	0.82470 0.43330 0.44690 0.06800
H 	H 	0.80150 0.45480 0.44690 -0.05100
C 	C 	0.90850 0.28450 0.51260 0.00200
H 	H 	0.93640 0.27080 0.51570 0.02200
C 	C 	0.88400 0.36620 0.44750 -0.22500
H 	H 	0.90320 0.34160 0.44500 0.08200
C 	C 	0.88120 0.40150 0.42840 0.14300
H 	H 	0.90040 0.39950 0.41490 -0.08000
C 	C 	0.90280 0.31330 0.49140 -0.08100
H 	H 	0.92680 0.31580 0.48030 0.03600
Mo	Mo	0.80364 0.08286 0.56031 1.05700
Mo	Mo	0.77817 0.98841 0.64396 1.05300
Mo	Mo	0.89314 0.08452 0.56292 1.05900
Mo	Mo	0.94774 0.14989 0.60927 1.04800
Mo	Mo	0.95346 0.03354 0.60960 1.10300
Mo	Mo	0.89442 0.98442 0.65126 1.10700
Zn	Zn	0.83976 0.18834 0.58474 1.22000
Zn	Zn	0.85080 0.98562 0.59252 1.20400
O 	O 	0.71290 0.40160 0.81917 -0.74100
O 	O 	0.61820 0.40250 0.81551 -0.72300
O 	O 	0.71510 0.31150 0.89589 -0.71300
O 	O 	0.76070 0.45820 0.85853 -0.75000
O 	O 	0.75990 0.34830 0.86461 -0.71800
O 	O 	0.56120 0.35520 0.85490 -0.73400
O 	O 	0.74200 0.36840 0.93125 -0.59200
O 	O 	0.71090 0.49220 0.82188 -0.55400
O 	O 	0.79200 0.41050 0.89593 -0.60200
O 	O 	0.66010 0.27090 0.86300 -0.59800
O 	O 	0.51290 0.40920 0.81067 -0.48500
O 	O 	0.71020 0.31350 0.82796 -0.60100
O 	O 	0.61670 0.31300 0.82359 -0.50500
N 	N 	0.31730 0.39500 0.67955 -0.32000
C 	C 	0.47260 0.37690 0.77810 -0.11500
C 	C 	0.45410 0.41680 0.77220 0.00700
H 	H 	0.46280 0.44290 0.78060 0.02300
O 	O 	0.53690 0.34300 0.79850 -0.31900
C 	C 	0.50670 0.37450 0.79830 0.33000
C 	C 	0.38200 0.38840 0.71720 0.11700
C 	C 	0.42060 0.41970 0.75270 -0.08500
H 	H 	0.40340 0.44600 0.75090 0.04000
C 	C 	0.41420 0.38380 0.73710 -0.01700
C 	C 	0.35060 0.42190 0.71660 -0.18000
H 	H 	0.35050 0.44350 0.72910 0.06900
C 	C 	0.31670 0.42530 0.69690 0.06800
H 	H 	0.29520 0.44850 0.69690 -0.05100
C 	C 	0.46550 0.34150 0.76260 0.00200
H 	H 	0.47920 0.31360 0.76570 0.02200
C 	C 	0.38380 0.36600 0.69750 -0.22500
H 	H 	0.40840 0.34680 0.69500 0.08200
C 	C 	0.34850 0.36880 0.67840 0.14300
H 	H 	0.35050 0.34960 0.66490 -0.08000
C 	C 	0.43670 0.34720 0.74140 -0.08100
H 	H 	0.43420 0.32320 0.73030 0.03600
Mo	Mo	0.66714 0.44636 0.81031 1.05700
Mo	Mo	0.76159 0.47183 0.89396 1.05200
Mo	Mo	0.66548 0.35686 0.81292 1.05900
Mo	Mo	0.60011 0.30226 0.85927 1.04800
Mo	Mo	0.71646 0.29654 0.85960 1.10300
Mo	Mo	0.76558 0.35558 0.90126 1.10700
Zn	Zn	0.56166 0.41024 0.83474 1.22000
Zn	Zn	0.76438 0.39920 0.84252 1.20400
O 	O 	0.21290 0.90160 0.31917 -0.74100
O 	O 	0.11820 0.90250 0.31551 -0.72300
O 	O 	0.21510 0.81150 0.39589 -0.71300
O 	O 	0.26070 0.95820 0.35853 -0.75000
O 	O 	0.25990 0.84830 0.36461 -0.71800
O 	O 	0.06120 0.85520 0.35490 -0.73400
O 	O 	0.24200 0.86840 0.43125 -0.59200
O 	O 	0.21090 0.99220 0.32188 -0.55400
O 	O 	0.29200 0.91050 0.39593 -0.60200
O 	O 	0.16010 0.77090 0.36300 -0.59800
O 	O 	0.01290 0.90920 0.31067 -0.48500
O 	O 	0.21020 0.81350 0.32796 -0.60100
O 	O 	0.11670 0.81300 0.32359 -0.50500
N 	N 	0.81730 0.89500 0.17955 -0.32000
C 	C 	0.97260 0.87690 0.27810 -0.11500
C 	C 	0.95410 0.91680 0.27220 0.00700
H 	H 	0.96280 0.94290 0.28060 0.02300
O 	O 	0.03690 0.84300 0.29850 -0.31900
C 	C 	0.00670 0.87450 0.29830 0.33000
C 	C 	0.88200 0.88840 0.21720 0.11700
C 	C 	0.92060 0.91970 0.25270 -0.08500
H 	H 	0.90340 0.94600 0.25090 0.04000
C 	C 	0.91420 0.88380 0.23710 -0.01700
C 	C 	0.85060 0.92190 0.21660 -0.18000
H 	H 	0.85050 0.94350 0.22910 0.06900
C 	C 	0.81670 0.92530 0.19690 0.06800
H 	H 	0.79520 0.94850 0.19690 -0.05100
C 	C 	0.96550 0.84150 0.26260 0.00200
H 	H 	0.97920 0.81360 0.26570 0.02200
C 	C 	0.88380 0.86600 0.19750 -0.22500
H 	H 	0.90840 0.84680 0.19500 0.08200
C 	C 	0.84850 0.86880 0.17840 0.14300
H 	H 	0.85050 0.84960 0.16490 -0.08000
C 	C 	0.93670 0.84720 0.24140 -0.08100
H 	H 	0.93420 0.82320 0.23030 0.03600
Mo	Mo	0.16714 0.94636 0.31031 1.05700
Mo	Mo	0.26159 0.97183 0.39396 1.05300
Mo	Mo	0.16548 0.85686 0.31292 1.05900
Mo	Mo	0.10011 0.80226 0.35927 1.04800
Mo	Mo	0.21646 0.79654 0.35960 1.10300
Mo	Mo	0.26558 0.85558 0.40126 1.10700
Zn	Zn	0.06166 0.91024 0.33474 1.22000
Zn	Zn	0.26438 0.89920 0.34252 1.20400
O 	O 	0.65160 0.46290 0.93083 -0.74100
O 	O 	0.65250 0.36820 0.93449 -0.72300
O 	O 	0.56150 0.46510 0.85411 -0.71300
O 	O 	0.70820 0.51070 0.89147 -0.75000
O 	O 	0.59830 0.50990 0.88539 -0.71800
O 	O 	0.60520 0.31120 0.89510 -0.73400
O 	O 	0.61840 0.49200 0.81875 -0.59200
O 	O 	0.74220 0.46090 0.92812 -0.55400
O 	O 	0.66050 0.54200 0.85407 -0.60200
O 	O 	0.52090 0.41010 0.88700 -0.59800
O 	O 	0.65920 0.26290 0.93933 -0.48500
O 	O 	0.56350 0.46020 0.92204 -0.60100
O 	O 	0.56300 0.36670 0.92641 -0.50500
N 	N 	0.64500 0.06730 0.07045 -0.32000
C 	C 	0.62690 0.22260 0.97190 -0.11500
C 	C 	0.66680 0.20410 0.97780 0.00700
H 	H 	0.69290 0.21280 0.96940 0.02300
O 	O 	0.59300 0.28690 0.95150 -0.31900
C 	C 	0.62450 0.25670 0.95170 0.33000
C 	C 	0.63840 0.13200 0.03280 0.11700
C 	C 	0.66970 0.17060 0.99730 -0.08500
H 	H 	0.69600 0.15340 0.99910 0.04000
C 	C 	0.63380 0.16420 0.01290 -0.01700
C 	C 	0.67190 0.10060 0.03340 -0.18000
H 	H 	0.69350 0.10050 0.02090 0.06900
C 	C 	0.67530 0.06670 0.05310 0.06800
H 	H 	0.69850 0.04520 0.05310 -0.05100
C 	C 	0.59150 0.21550 0.98740 0.00200
H 	H 	0.56360 0.22920 0.98430 0.02200
C 	C 	0.61600 0.13380 0.05250 -0.22500
H 	H 	0.59680 0.15840 0.05500 0.08200
C 	C 	0.61880 0.09850 0.07160 0.14300
H 	H 	0.59960 0.10050 0.08510 -0.08000
C 	C 	0.59720 0.18670 0.00860 -0.08100
H 	H 	0.57320 0.18420 0.01970 0.03600
Mo	Mo	0.69636 0.41714 0.93969 1.05700
Mo	Mo	0.72183 0.51159 0.85604 1.05200
Mo	Mo	0.60686 0.41548 0.93708 1.05900
Mo	Mo	0.55226 0.35011 0.89073 1.04800
Mo	Mo	0.54654 0.46646 0.89040 1.10300
Mo	Mo	0.60558 0.51558 0.84874 1.10700
Zn	Zn	0.66024 0.31166 0.91526 1.22000
Zn	Zn	0.64920 0.51438 0.90748 1.20400
O 	O 	0.15160 0.96290 0.43083 -0.74100
O 	O 	0.15250 0.86820 0.43449 -0.72300
O 	O 	0.06150 0.96510 0.35411 -0.71300
O 	O 	0.20820 0.01070 0.39147 -0.75000
O 	O 	0.09830 0.00990 0.38539 -0.71800
O 	O 	0.10520 0.81120 0.39510 -0.73400
O 	O 	0.11840 0.99200 0.31875 -0.59200
O 	O 	0.24220 0.96090 0.42812 -0.55400
O 	O 	0.16050 0.04200 0.35407 -0.60200
O 	O 	0.02090 0.91010 0.38700 -0.59800
O 	O 	0.15920 0.76290 0.43933 -0.48500
O 	O 	0.06350 0.96020 0.42204 -0.60100
O 	O 	0.06300 0.86670 0.42641 -0.50500
N 	N 	0.14500 0.56730 0.57045 -0.32000
C 	C 	0.12690 0.72260 0.47190 -0.11500
C 	C 	0.16680 0.70410 0.47780 0.00700
H 	H 	0.19290 0.71280 0.46940 0.02300
O 	O 	0.09300 0.78690 0.45150 -0.31900
C 	C 	0.12450 0.75670 0.45170 0.33000
C 	C 	0.13840 0.63200 0.53280 0.11700
C 	C 	0.16970 0.67060 0.49730 -0.08500
H 	H 	0.19600 0.65340 0.49910 0.04000
C 	C 	0.13380 0.66420 0.51290 -0.01700
C 	C 	0.17190 0.60060 0.53340 -0.18000
H 	H 	0.19350 0.60050 0.52090 0.06900
C 	C 	0.17530 0.56670 0.55310 0.06800
H 	H 	0.19850 0.54520 0.55310 -0.05100
C 	C 	0.09150 0.71550 0.48740 0.00200
H 	H 	0.06360 0.72920 0.48430 0.02200
C 	C 	0.11600 0.63380 0.55250 -0.22500
H 	H 	0.09680 0.65840 0.55500 0.08200
C 	C 	0.11880 0.59850 0.57160 0.14300
H 	H 	0.09960 0.60050 0.58510 -0.08000
C 	C 	0.09720 0.68670 0.50860 -0.08100
H 	H 	0.07320 0.68420 0.51970 0.03600
Mo	Mo	0.19636 0.91714 0.43969 1.05700
Mo	Mo	0.22183 0.01159 0.35604 1.05300
Mo	Mo	0.10686 0.91548 0.43708 1.05900
Mo	Mo	0.05226 0.85011 0.39073 1.04800
Mo	Mo	0.04654 0.96646 0.39040 1.10300
Mo	Mo	0.10558 0.01558 0.34874 1.10700
Zn	Zn	0.16024 0.81166 0.41526 1.22000
Zn	Zn	0.14920 0.01438 0.40748 1.20400
O 	O 	0.21290 0.40160 0.68083 -0.74100
O 	O 	0.11820 0.40250 0.68449 -0.72300
O 	O 	0.21510 0.31150 0.60411 -0.71300
O 	O 	0.26070 0.45820 0.64147 -0.75000
O 	O 	0.25990 0.34830 0.63539 -0.71800
O 	O 	0.06120 0.35520 0.64510 -0.73400
O 	O 	0.24200 0.36840 0.56875 -0.59200
O 	O 	0.21090 0.49220 0.67812 -0.55400
O 	O 	0.29200 0.41050 0.60407 -0.60200
O 	O 	0.16010 0.27090 0.63700 -0.59800
O 	O 	0.01290 0.40920 0.68933 -0.48500
O 	O 	0.21020 0.31350 0.67204 -0.60100
O 	O 	0.11670 0.31300 0.67641 -0.50500
N 	N 	0.81730 0.39500 0.82045 -0.32000
C 	C 	0.97260 0.37690 0.72190 -0.11500
C 	C 	0.95410 0.41680 0.72780 0.00700
H 	H 	0.96280 0.44290 0.71940 0.02300
O 	O 	0.03690 0.34300 0.70150 -0.31900
C 	C 	0.00670 0.37450 0.70170 0.33000
C 	C 	0.88200 0.38840 0.78280 0.11700
C 	C 	0.92060 0.41970 0.74730 -0.08500
H 	H 	0.90340 0.44600 0.74910 0.04000
C 	C 	0.91420 0.38380 0.76290 -0.01700
C 	C 	0.85060 0.42190 0.78340 -0.18000
H 	H 	0.85050 0.44350 0.77090 0.06900
C 	C 	0.81670 0.42530 0.80310 0.06800
H 	H 	0.79520 0.44850 0.80310 -0.05100
C 	C 	0.96550 0.34150 0.73740 0.00200
H 	H 	0.97920 0.31360 0.73430 0.02200
C 	C 	0.88380 0.36600 0.80250 -0.22500
H 	H 	0.90840 0.34680 0.80500 0.08200
C 	C 	0.84850 0.36880 0.82160 0.14300
H 	H 	0.85050 0.34960 0.83510 -0.08000
C 	C 	0.93670 0.34720 0.75860 -0.08200
H 	H 	0.93420 0.32320 0.76970 0.03600
Mo	Mo	0.16714 0.44636 0.68969 1.05700
Mo	Mo	0.26159 0.47183 0.60604 1.05200
Mo	Mo	0.16548 0.35686 0.68708 1.05900
Mo	Mo	0.10011 0.30226 0.64073 1.04800
Mo	Mo	0.21646 0.29654 0.64040 1.10400
Mo	Mo	0.26558 0.35558 0.59874 1.10700
Zn	Zn	0.06166 0.41024 0.66526 1.22000
Zn	Zn	0.26438 0.39920 0.65748 1.20400
O 	O 	0.71290 0.90160 0.18083 -0.74100
O 	O 	0.61820 0.90250 0.18449 -0.72300
O 	O 	0.71510 0.81150 0.10411 -0.71300
O 	O 	0.76070 0.95820 0.14147 -0.75000
O 	O 	0.75990 0.84830 0.13539 -0.71800
O 	O 	0.56120 0.85520 0.14510 -0.73400
O 	O 	0.74200 0.86840 0.06875 -0.59200
O 	O 	0.71090 0.99220 0.17812 -0.55400
O 	O 	0.79200 0.91050 0.10407 -0.60200
O 	O 	0.66010 0.77090 0.13700 -0.59800
O 	O 	0.51290 0.90920 0.18933 -0.48500
O 	O 	0.71020 0.81350 0.17204 -0.60100
O 	O 	0.61670 0.81300 0.17641 -0.50500
N 	N 	0.31730 0.89500 0.32045 -0.32000
C 	C 	0.47260 0.87690 0.22190 -0.11500
C 	C 	0.45410 0.91680 0.22780 0.00700
H 	H 	0.46280 0.94290 0.21940 0.02300
O 	O 	0.53690 0.84300 0.20150 -0.31900
C 	C 	0.50670 0.87450 0.20170 0.33000
C 	C 	0.38200 0.88840 0.28280 0.11700
C 	C 	0.42060 0.91970 0.24730 -0.08500
H 	H 	0.40340 0.94600 0.24910 0.04000
C 	C 	0.41420 0.88380 0.26290 -0.01700
C 	C 	0.35060 0.92190 0.28340 -0.18000
H 	H 	0.35050 0.94350 0.27090 0.06900
C 	C 	0.31670 0.92530 0.30310 0.06800
H 	H 	0.29520 0.94850 0.30310 -0.05100
C 	C 	0.46550 0.84150 0.23740 0.00200
H 	H 	0.47920 0.81360 0.23430 0.02200
C 	C 	0.38380 0.86600 0.30250 -0.22500
H 	H 	0.40840 0.84680 0.30500 0.08200
C 	C 	0.34850 0.86880 0.32160 0.14300
H 	H 	0.35050 0.84960 0.33510 -0.08000
C 	C 	0.43670 0.84720 0.25860 -0.08100
H 	H 	0.43420 0.82320 0.26970 0.03600
Mo	Mo	0.66714 0.94636 0.18969 1.05700
Mo	Mo	0.76159 0.97183 0.10604 1.05200
Mo	Mo	0.66548 0.85686 0.18708 1.05900
Mo	Mo	0.60011 0.80226 0.14073 1.04800
Mo	Mo	0.71646 0.79654 0.14040 1.10300
Mo	Mo	0.76558 0.85558 0.09874 1.10700
Zn	Zn	0.56166 0.91024 0.16526 1.22000
Zn	Zn	0.76438 0.89920 0.15748 1.20400
O 	O 	0.15160 0.46290 0.56917 -0.74100
O 	O 	0.15250 0.36820 0.56551 -0.72300
O 	O 	0.06150 0.46510 0.64589 -0.71300
O 	O 	0.20820 0.51070 0.60853 -0.75000
O 	O 	0.09830 0.50990 0.61461 -0.71800
O 	O 	0.10520 0.31120 0.60490 -0.73400
O 	O 	0.11840 0.49200 0.68125 -0.59200
O 	O 	0.24220 0.46090 0.57188 -0.55400
O 	O 	0.16050 0.54200 0.64593 -0.60200
O 	O 	0.02090 0.41010 0.61300 -0.59800
O 	O 	0.15920 0.26290 0.56067 -0.48500
O 	O 	0.06350 0.46020 0.57796 -0.60100
O 	O 	0.06300 0.36670 0.57359 -0.50500
N 	N 	0.14500 0.06730 0.42955 -0.32000
C 	C 	0.12690 0.22260 0.52810 -0.11500
C 	C 	0.16680 0.20410 0.52220 0.00700
H 	H 	0.19290 0.21280 0.53060 0.02300
O 	O 	0.09300 0.28690 0.54850 -0.31900
C 	C 	0.12450 0.25670 0.54830 0.33000
C 	C 	0.13840 0.13200 0.46720 0.11700
C 	C 	0.16970 0.17060 0.50270 -0.08500
H 	H 	0.19600 0.15340 0.50090 0.04000
C 	C 	0.13380 0.16420 0.48710 -0.01700
C 	C 	0.17190 0.10060 0.46660 -0.18000
H 	H 	0.19350 0.10050 0.47910 0.06900
C 	C 	0.17530 0.06670 0.44690 0.06800
H 	H 	0.19850 0.04520 0.44690 -0.05100
C 	C 	0.09150 0.21550 0.51260 0.00200
H 	H 	0.06360 0.22920 0.51570 0.02200
C 	C 	0.11600 0.13380 0.44750 -0.22500
H 	H 	0.09680 0.15840 0.44500 0.08200
C 	C 	0.11880 0.09850 0.42840 0.14300
H 	H 	0.09960 0.10050 0.41490 -0.08000
C 	C 	0.09720 0.18670 0.49140 -0.08100
H 	H 	0.07320 0.18420 0.48030 0.03600
Mo	Mo	0.19636 0.41714 0.56031 1.05700
Mo	Mo	0.22183 0.51159 0.64396 1.05200
Mo	Mo	0.10686 0.41548 0.56292 1.05900
Mo	Mo	0.05226 0.35011 0.60927 1.04800
Mo	Mo	0.04654 0.46646 0.60960 1.10300
Mo	Mo	0.10558 0.51558 0.65126 1.10700
Zn	Zn	0.16024 0.31166 0.58474 1.22000
Zn	Zn	0.14920 0.51438 0.59252 1.20400
O 	O 	0.65160 0.96290 0.06917 -0.74100
O 	O 	0.65250 0.86820 0.06551 -0.72300
O 	O 	0.56150 0.96510 0.14589 -0.71300
O 	O 	0.70820 0.01070 0.10853 -0.75000
O 	O 	0.59830 0.00990 0.11461 -0.71800
O 	O 	0.60520 0.81120 0.10490 -0.73400
O 	O 	0.61840 0.99200 0.18125 -0.59200
O 	O 	0.74220 0.96090 0.07188 -0.55400
O 	O 	0.66050 0.04200 0.14593 -0.60200
O 	O 	0.52090 0.91010 0.11300 -0.59800
O 	O 	0.65920 0.76290 0.06067 -0.48500
O 	O 	0.56350 0.96020 0.07796 -0.60100
O 	O 	0.56300 0.86670 0.07359 -0.50500
N 	N 	0.64500 0.56730 0.92955 -0.32000
C 	C 	0.62690 0.72260 0.02810 -0.11500
C 	C 	0.66680 0.70410 0.02220 0.00700
H 	H 	0.69290 0.71280 0.03060 0.02300
O 	O 	0.59300 0.78690 0.04850 -0.31900
C 	C 	0.62450 0.75670 0.04830 0.33000
C 	C 	0.63840 0.63200 0.96720 0.11700
C 	C 	0.66970 0.67060 0.00270 -0.08500
H 	H 	0.69600 0.65340 0.00090 0.04000
C 	C 	0.63380 0.66420 0.98710 -0.01700
C 	C 	0.67190 0.60060 0.96660 -0.18000
H 	H 	0.69350 0.60050 0.97910 0.06900
C 	C 	0.67530 0.56670 0.94690 0.06800
H 	H 	0.69850 0.54520 0.94690 -0.05100
C 	C 	0.59150 0.71550 0.01260 0.00200
H 	H 	0.56360 0.72920 0.01570 0.02200
C 	C 	0.61600 0.63380 0.94750 -0.22500
H 	H 	0.59680 0.65840 0.94500 0.08200
C 	C 	0.61880 0.59850 0.92840 0.14300
H 	H 	0.59960 0.60050 0.91490 -0.08000
C 	C 	0.59720 0.68670 0.99140 -0.08100
H 	H 	0.57320 0.68420 0.98030 0.03600
Mo	Mo	0.69636 0.91714 0.06031 1.05700
Mo	Mo	0.72183 0.01159 0.14396 1.05300
Mo	Mo	0.60686 0.91548 0.06292 1.05900
Mo	Mo	0.55226 0.85011 0.10927 1.04800
Mo	Mo	0.54654 0.96646 0.10960 1.10400
Mo	Mo	0.60558 0.01558 0.15126 1.10700
Zn	Zn	0.66024 0.81166 0.08474 1.22000
Zn	Zn	0.64920 0.01438 0.09252 1.20400
