data_crystal

_cell_length_a 12.48700
_cell_length_b 12.48700
_cell_length_c 9.77600
_cell_angle_alpha 90.00000
_cell_angle_beta  90.00000
_cell_angle_gamma 90.00000

_symmetry_space_group_name_	'P 1'
_symmetry_space_group_name_H-M	'P 1'

loop_
_symmetry_equiv_pos_as_xyz
  x,y,z

loop_
_atom_site_label
_atom_site_type_symbol
_atom_site_fract_x
_atom_site_fract_y
_atom_site_fract_z
_atom_site_charge
N 	N 	0.94100 0.56310 0.25100 2.66200
H 	H 	0.97240 0.57930 0.16260 -0.14000
N 	N 	0.67060 0.85640 0.10100 -0.40300
C 	C 	0.75230 0.80820 0.02600 1.20100
H 	H 	0.77460 0.83790 0.94390 -0.60200
C 	C 	0.80070 0.71560 0.07500 -0.89200
H 	H 	0.85540 0.68330 0.02560 0.80400
C 	C 	0.76740 0.67120 0.19900 0.92000
C 	C 	0.68570 0.71940 0.27300 -0.81600
H 	H 	0.66340 0.68970 0.35530 0.09200
C 	C 	0.63730 0.81200 0.22400 0.18700
H 	H 	0.58260 0.84430 0.27360 -0.17100
C 	C 	0.81200 0.57600 0.24200 -1.10900
H 	H 	0.78690 0.51980 0.18100 0.49600
H 	H 	0.78380 0.56010 0.33180 0.41000
C 	C 	0.98500 0.64000 0.35800 -23.10600
H 	H 	0.93010 0.69100 0.38730 7.30300
C 	C 	0.07900 0.69700 0.30500 60.37900
H 	H 	0.10320 0.74030 0.36190 -22.97200
H 	H 	0.06060 0.73370 0.22210 -17.62300
H 	H 	0.13540 0.64620 0.28610 -17.11800
C 	C 	0.01700 0.56600 0.47600 8.31400
O 	O 	0.05250 0.62690 0.57700 -1.88400
O 	O 	0.02070 0.47470 0.46900 -2.90100
Zn	Zn	0.59020 0.98420 0.02790 1.30900
N 	N 	0.05900 0.43690 0.75100 2.67600
H 	H 	0.02760 0.42070 0.66260 -0.20800
N 	N 	0.32940 0.14360 0.60100 -0.35000
C 	C 	0.24770 0.19180 0.52600 0.33400
H 	H 	0.22540 0.16210 0.44390 -0.04300
C 	C 	0.19930 0.28440 0.57500 -0.37200
H 	H 	0.14460 0.31670 0.52560 0.51600
C 	C 	0.23260 0.32880 0.69900 0.58200
C 	C 	0.31430 0.28060 0.77300 -0.58600
H 	H 	0.33660 0.31030 0.85530 0.02600
C 	C 	0.36270 0.18800 0.72400 0.10700
H 	H 	0.41740 0.15570 0.77360 -0.22700
C 	C 	0.18800 0.42400 0.74200 -0.88400
H 	H 	0.21310 0.48020 0.68100 0.37900
H 	H 	0.21620 0.43990 0.83180 0.32900
C 	C 	0.01500 0.36000 0.85800 -23.26000
H 	H 	0.06990 0.30900 0.88730 7.34700
C 	C 	0.92100 0.30300 0.80500 61.35600
H 	H 	0.89680 0.25970 0.86190 -23.49200
H 	H 	0.93940 0.26630 0.72210 -18.00900
H 	H 	0.86460 0.35380 0.78610 -17.47300
C 	C 	0.98300 0.43400 0.97600 7.89200
O 	O 	0.94750 0.37310 0.07700 -1.50800
O 	O 	0.97930 0.52530 0.96900 -3.02000
Zn	Zn	0.40980 0.01580 0.52790 1.12400
N 	N 	0.43690 0.94100 0.00100 -0.81800
H 	H 	0.42070 0.97240 0.91260 0.08500
N 	N 	0.14360 0.67060 0.85100 0.11300
C 	C 	0.19180 0.75230 0.77600 -0.22400
H 	H 	0.16210 0.77460 0.69390 0.57500
C 	C 	0.28440 0.80070 0.82500 0.44900
H 	H 	0.31670 0.85540 0.77560 -0.09600
C 	C 	0.32880 0.76740 0.94900 -0.51700
C 	C 	0.28060 0.68570 0.02300 1.44300
H 	H 	0.31030 0.66340 0.10530 0.13400
C 	C 	0.18800 0.63730 0.97400 -0.69000
H 	H 	0.15570 0.58260 0.02360 0.95500
C 	C 	0.42400 0.81200 0.99200 -0.34200
H 	H 	0.48020 0.78690 0.93100 0.02100
H 	H 	0.43990 0.78380 0.08180 0.35100
C 	C 	0.36000 0.98500 0.10800 6.82500
H 	H 	0.30900 0.93010 0.13730 -1.68600
C 	C 	0.30300 0.07900 0.05500 -17.65100
H 	H 	0.25970 0.10320 0.11190 6.93400
H 	H 	0.26630 0.06060 0.97210 5.02100
H 	H 	0.35380 0.13540 0.03610 5.15200
C 	C 	0.43400 0.01700 0.22600 -2.06600
O 	O 	0.37310 0.05250 0.32700 0.12600
O 	O 	0.52530 0.02070 0.21900 0.20500
Zn	Zn	0.01580 0.59020 0.77790 1.36200
N 	N 	0.56310 0.05900 0.50100 -1.54400
H 	H 	0.57930 0.02760 0.41260 0.20600
N 	N 	0.85640 0.32940 0.35100 -0.10900
C 	C 	0.80820 0.24770 0.27600 0.02500
H 	H 	0.83790 0.22540 0.19390 0.51200
C 	C 	0.71560 0.19930 0.32500 0.03500
H 	H 	0.68330 0.14460 0.27560 -0.00300
C 	C 	0.67120 0.23260 0.44900 0.14000
C 	C 	0.71940 0.31430 0.52300 0.09700
H 	H 	0.68970 0.33660 0.60530 0.52200
C 	C 	0.81200 0.36270 0.47400 0.61500
H 	H 	0.84430 0.41740 0.52360 0.27700
C 	C 	0.57600 0.18800 0.49200 -0.02300
H 	H 	0.51980 0.21310 0.43100 0.04200
H 	H 	0.56010 0.21620 0.58180 0.06500
C 	C 	0.64000 0.01500 0.60800 10.11600
H 	H 	0.69100 0.06990 0.63730 -2.94800
C 	C 	0.69700 0.92100 0.55500 -28.28900
H 	H 	0.74030 0.89680 0.61190 10.98700
H 	H 	0.73370 0.93940 0.47210 8.52400
H 	H 	0.64620 0.86460 0.53610 8.11200
C 	C 	0.56600 0.98300 0.72600 -2.95900
O 	O 	0.62690 0.94750 0.82700 0.28600
O 	O 	0.47470 0.97930 0.71900 0.69900
Zn	Zn	0.98420 0.40980 0.27790 1.37800
