data_crystal

_cell_length_a 12.80000
_cell_length_b 12.80000
_cell_length_c 9.98400
_cell_angle_alpha 90.00000
_cell_angle_beta  90.00000
_cell_angle_gamma 90.00000

_symmetry_space_group_name_	'P 1'
_symmetry_space_group_name_H-M	'P 1'

loop_
_symmetry_equiv_pos_as_xyz
  x,y,z

loop_
_atom_site_label
_atom_site_type_symbol
_atom_site_fract_x
_atom_site_fract_y
_atom_site_fract_z
_atom_site_charge
C 	C 	0.75180 0.69400 0.03630 -0.03500
H 	H 	0.73320 0.66710 0.11950 0.00000
C 	C 	0.70080 0.78180 0.99200 -0.04400
H 	H 	0.64970 0.81280 0.04500 -0.00100
C 	C 	0.72560 0.82460 0.86750 0.07300
C 	C 	0.80440 0.77530 0.79610 -0.15600
H 	H 	0.82420 0.80040 0.71240 0.06100
C 	C 	0.85260 0.68960 0.84940 0.06500
H 	H 	0.90730 0.65990 0.80130 -0.03200
C 	C 	0.68160 0.92590 0.82160 -0.12900
H 	H 	0.70900 0.94050 0.73300 0.04400
H 	H 	0.70680 0.98030 0.88090 0.04800
C 	C 	0.51540 0.86450 0.71400 -0.03300
H 	H 	0.56570 0.81180 0.68360 0.03300
C 	C 	0.41910 0.80940 0.77620 -0.43300
H 	H 	0.44210 0.75510 0.83560 0.14700
H 	H 	0.37720 0.77970 0.70620 0.14500
H 	H 	0.37840 0.85940 0.82540 0.13100
C 	C 	0.47800 0.92890 0.59430 0.29800
N 	N 	0.82610 0.64500 0.96800 -0.24100
N 	N 	0.56550 0.93290 0.81560 -0.26800
H 	H 	0.54160 0.91150 0.89590 0.11200
O 	O 	0.47800 0.02610 0.59960 -0.47400
O 	O 	0.44550 0.87530 0.49540 -0.45400
Zn	Zn	0.90972 0.51723 0.04161 1.15600
C 	C 	0.24820 0.30600 0.53630 0.09600
H 	H 	0.26680 0.33290 0.61950 -0.04200
C 	C 	0.29920 0.21820 0.49200 -0.20300
H 	H 	0.35030 0.18720 0.54500 0.07200
C 	C 	0.27440 0.17540 0.36750 0.14300
C 	C 	0.19560 0.22470 0.29610 -0.21100
H 	H 	0.17580 0.19960 0.21240 0.07500
C 	C 	0.14740 0.31040 0.34940 0.09300
H 	H 	0.09270 0.34010 0.30130 -0.04600
C 	C 	0.31840 0.07410 0.32160 -0.17300
H 	H 	0.29100 0.05950 0.23300 0.05400
H 	H 	0.29320 0.01970 0.38090 0.05700
C 	C 	0.48460 0.13550 0.21400 -0.03200
H 	H 	0.43430 0.18820 0.18360 0.02800
C 	C 	0.58090 0.19060 0.27620 -0.41900
H 	H 	0.55790 0.24490 0.33560 0.13700
H 	H 	0.62280 0.22030 0.20620 0.13500
H 	H 	0.62160 0.14060 0.32540 0.12200
C 	C 	0.52200 0.07110 0.09430 0.27200
N 	N 	0.17390 0.35500 0.46800 -0.28500
N 	N 	0.43450 0.06710 0.31560 -0.26100
H 	H 	0.45840 0.08850 0.39590 0.10300
O 	O 	0.52200 0.97390 0.09960 -0.47500
O 	O 	0.55450 0.12470 0.99540 -0.42900
Zn	Zn	0.09028 0.48277 0.54161 1.16500
C 	C 	0.30600 0.75180 0.28630 0.11000
H 	H 	0.33290 0.73320 0.36950 -0.04700
C 	C 	0.21820 0.70080 0.24200 -0.22800
H 	H 	0.18720 0.64970 0.29500 0.07900
C 	C 	0.17540 0.72560 0.11750 0.18000
C 	C 	0.22470 0.80440 0.04610 -0.27600
H 	H 	0.19960 0.82420 0.96240 0.11300
C 	C 	0.31040 0.85260 0.09940 0.12500
H 	H 	0.34010 0.90730 0.05130 -0.06100
C 	C 	0.07410 0.68160 0.07160 -0.22400
H 	H 	0.05950 0.70900 0.98300 0.08000
H 	H 	0.01970 0.70680 0.13090 0.07000
C 	C 	0.13550 0.51540 0.96400 0.03000
H 	H 	0.18820 0.56570 0.93360 0.01800
C 	C 	0.19060 0.41910 0.02620 -0.57000
H 	H 	0.24490 0.44210 0.08560 0.17800
H 	H 	0.22030 0.37720 0.95620 0.19700
H 	H 	0.14060 0.37840 0.07540 0.16300
C 	C 	0.07110 0.47800 0.84430 0.27500
N 	N 	0.35500 0.82610 0.21800 -0.29400
N 	N 	0.06710 0.56550 0.06560 -0.27000
H 	H 	0.08850 0.54160 0.14590 0.10400
O 	O 	0.97390 0.47800 0.84960 -0.46000
O 	O 	0.12470 0.44550 0.74540 -0.44700
Zn	Zn	0.48277 0.90972 0.29161 1.16500
C 	C 	0.69400 0.24820 0.78630 0.09800
H 	H 	0.66710 0.26680 0.86950 -0.03800
C 	C 	0.78180 0.29920 0.74200 -0.20200
H 	H 	0.81280 0.35030 0.79500 0.07400
C 	C 	0.82460 0.27440 0.61750 0.14500
C 	C 	0.77530 0.19560 0.54610 -0.21000
H 	H 	0.80040 0.17580 0.46240 0.07800
C 	C 	0.68960 0.14740 0.59940 0.09600
H 	H 	0.65990 0.09270 0.55130 -0.04400
C 	C 	0.92590 0.31840 0.57160 -0.17400
H 	H 	0.94050 0.29100 0.48300 0.05500
H 	H 	0.98030 0.29320 0.63090 0.05900
C 	C 	0.86450 0.48460 0.46400 -0.04000
H 	H 	0.81180 0.43430 0.43360 0.03300
C 	C 	0.80940 0.58090 0.52620 -0.41700
H 	H 	0.75510 0.55790 0.58560 0.13800
H 	H 	0.77970 0.62280 0.45620 0.13800
H 	H 	0.85940 0.62160 0.57540 0.12200
C 	C 	0.92890 0.52200 0.34430 0.29700
N 	N 	0.64500 0.17390 0.71800 -0.28400
N 	N 	0.93290 0.43450 0.56560 -0.26000
H 	H 	0.91150 0.45840 0.64590 0.10400
O 	O 	0.02610 0.52200 0.34960 -0.47400
O 	O 	0.87530 0.55450 0.24540 -0.46000
Zn	Zn	0.51723 0.09028 0.79161 1.16700
