data_crystal

_cell_length_a 8.69120
_cell_length_b 10.39350
_cell_length_c 10.81800
_cell_angle_alpha 90.00000
_cell_angle_beta  90.00000
_cell_angle_gamma 90.00000

_symmetry_space_group_name_	'P 1'
_symmetry_space_group_name_H-M	'P 1'

loop_
_symmetry_equiv_pos_as_xyz
  x,y,z

loop_
_atom_site_label
_atom_site_type_symbol
_atom_site_fract_x
_atom_site_fract_y
_atom_site_fract_z
_atom_site_charge
Ce	Ce	0.99235 0.60131 0.38733 2.13600
P 	P 	0.84370 0.41600 0.10661 0.44200
P 	P 	0.19400 0.41840 0.13898 0.42400
O 	O 	0.84650 0.50400 0.21910 -0.47400
O 	O 	0.72120 0.45830 0.01530 -0.47700
O 	O 	0.82450 0.27450 0.14100 -0.45300
O 	O 	0.17860 0.52990 0.23040 -0.46100
O 	O 	0.17430 0.28510 0.19920 -0.44600
O 	O 	0.34170 0.42940 0.06490 -0.46600
O 	O 	0.04750 0.30680 0.95540 -0.47000
H 	H 	0.97950 0.30530 0.89890 0.22400
C 	C 	0.03190 0.42520 0.02960 0.01400
C 	C 	0.04220 0.54340 0.94590 -0.42300
H 	H 	0.95620 0.54430 0.89020 0.15100
H 	H 	0.13620 0.54030 0.89930 0.15000
H 	H 	0.04070 0.62000 0.99560 0.13600
Ce	Ce	0.50765 0.39869 0.88733 2.13200
P 	P 	0.65630 0.58400 0.60661 0.43300
P 	P 	0.30600 0.58160 0.63898 0.42200
O 	O 	0.65350 0.49600 0.71910 -0.47600
O 	O 	0.77880 0.54170 0.51530 -0.48000
O 	O 	0.67550 0.72550 0.64100 -0.45700
O 	O 	0.32140 0.47010 0.73040 -0.46000
O 	O 	0.32570 0.71490 0.69920 -0.44400
O 	O 	0.15830 0.57060 0.56490 -0.46500
O 	O 	0.45250 0.69320 0.45540 -0.48200
H 	H 	0.52050 0.69470 0.39890 0.23200
C 	C 	0.46810 0.57480 0.52960 0.03300
C 	C 	0.45780 0.45660 0.44590 -0.47900
H 	H 	0.54380 0.45570 0.39020 0.17500
H 	H 	0.36380 0.45970 0.39930 0.16600
H 	H 	0.45930 0.38000 0.49560 0.15100
Ce	Ce	0.00765 0.10131 0.11267 2.13000
P 	P 	0.15630 0.91600 0.39339 0.44200
P 	P 	0.80600 0.91840 0.36102 0.42000
O 	O 	0.15350 0.00400 0.28090 -0.48100
O 	O 	0.27880 0.95830 0.48470 -0.48000
O 	O 	0.17550 0.77450 0.35900 -0.45600
O 	O 	0.82140 0.02990 0.26960 -0.45500
O 	O 	0.82570 0.78510 0.30080 -0.44300
O 	O 	0.65830 0.92940 0.43510 -0.46700
O 	O 	0.95250 0.80680 0.54460 -0.48700
H 	H 	0.02050 0.80530 0.60110 0.23900
C 	C 	0.96810 0.92520 0.47040 0.01900
C 	C 	0.95780 0.04340 0.55410 -0.44000
H 	H 	0.04380 0.04430 0.60980 0.16100
H 	H 	0.86380 0.04030 0.60070 0.15600
H 	H 	0.95930 0.12000 0.50440 0.14200
Ce	Ce	0.49235 0.89869 0.61267 2.13300
P 	P 	0.34370 0.08400 0.89339 0.43400
P 	P 	0.69400 0.08160 0.86102 0.42600
O 	O 	0.34650 0.99600 0.78090 -0.47600
O 	O 	0.22120 0.04170 0.98470 -0.48100
O 	O 	0.32450 0.22550 0.85900 -0.45700
O 	O 	0.67860 0.97010 0.76960 -0.46700
O 	O 	0.67430 0.21490 0.80080 -0.44600
O 	O 	0.84170 0.07060 0.93510 -0.46900
O 	O 	0.54750 0.19320 0.04460 -0.47600
H 	H 	0.47950 0.19470 0.10110 0.23000
C 	C 	0.53190 0.07480 0.97040 0.02300
C 	C 	0.54220 0.95660 0.05410 -0.46500
H 	H 	0.45620 0.95570 0.10980 0.17100
H 	H 	0.63620 0.95970 0.10070 0.16200
H 	H 	0.54070 0.88000 0.00440 0.15000
