data_crystal

_cell_length_a 8.64900
_cell_length_b 10.32300
_cell_length_c 10.73800
_cell_angle_alpha 90.00000
_cell_angle_beta  90.00000
_cell_angle_gamma 90.00000

_symmetry_space_group_name_	'P 1'
_symmetry_space_group_name_H-M	'P 1'

loop_
_symmetry_equiv_pos_as_xyz
  x,y,z

loop_
_atom_site_label
_atom_site_type_symbol
_atom_site_fract_x
_atom_site_fract_y
_atom_site_fract_z
_atom_site_charge
Nd	Nd	0.49291 0.39826 0.61302 2.26800
P 	P 	0.69350 0.58170 0.86170 0.48100
P 	P 	0.34260 0.58470 0.89280 0.50800
O 	O 	0.67580 0.47060 0.76950 -0.50100
O 	O 	0.67120 0.71530 0.80150 -0.46500
O 	O 	0.84190 0.56990 0.93590 -0.50200
O 	O 	0.21760 0.54330 0.98520 -0.51500
O 	O 	0.32580 0.72650 0.85750 -0.51800
O 	O 	0.34390 0.49420 0.78050 -0.50100
O 	O 	0.54330 0.69500 0.04580 -0.47900
H 	H 	0.63150 0.69810 0.07950 0.23800
C 	C 	0.53160 0.57470 0.97060 -0.01400
C 	C 	0.53920 0.45700 0.05660 -0.34200
H 	H 	0.63870 0.45380 0.09610 0.11200
H 	H 	0.52360 0.37950 0.00880 0.10100
H 	H 	0.46010 0.46370 0.11900 0.13400
Nd	Nd	0.00709 0.60174 0.11302 2.25500
P 	P 	0.80650 0.41830 0.36170 0.48100
P 	P 	0.15740 0.41530 0.39280 0.50600
O 	O 	0.82420 0.52940 0.26950 -0.49600
O 	O 	0.82880 0.28470 0.30150 -0.46400
O 	O 	0.65810 0.43010 0.43590 -0.50100
O 	O 	0.28240 0.45670 0.48520 -0.51700
O 	O 	0.17420 0.27350 0.35750 -0.51800
O 	O 	0.15610 0.50580 0.28050 -0.50100
O 	O 	0.95670 0.30500 0.54580 -0.48500
H 	H 	0.86850 0.30190 0.57950 0.23800
C 	C 	0.96840 0.42530 0.47060 -0.00300
C 	C 	0.96080 0.54300 0.55660 -0.35000
H 	H 	0.86130 0.54620 0.59610 0.11300
H 	H 	0.97640 0.62050 0.50880 0.10500
H 	H 	0.03990 0.53630 0.61900 0.13600
Nd	Nd	0.50709 0.89826 0.88698 2.25500
P 	P 	0.30650 0.08170 0.63830 0.48300
P 	P 	0.65740 0.08470 0.60720 0.50600
O 	O 	0.32420 0.97060 0.73050 -0.50200
O 	O 	0.32880 0.21530 0.69850 -0.46500
O 	O 	0.15810 0.06990 0.56410 -0.49800
O 	O 	0.78240 0.04330 0.51480 -0.51900
O 	O 	0.67420 0.22650 0.64250 -0.51800
O 	O 	0.65610 0.99420 0.71950 -0.49800
O 	O 	0.45670 0.19500 0.45420 -0.48500
H 	H 	0.36850 0.19810 0.42050 0.23800
C 	C 	0.46840 0.07470 0.52940 -0.00600
C 	C 	0.46080 0.95700 0.44340 -0.35400
H 	H 	0.36130 0.95380 0.40390 0.11200
H 	H 	0.47640 0.87950 0.49120 0.10400
H 	H 	0.53990 0.96370 0.38100 0.13900
Nd	Nd	0.99291 0.10174 0.38698 2.26800
P 	P 	0.19350 0.91830 0.13830 0.48300
P 	P 	0.84260 0.91530 0.10720 0.52700
O 	O 	0.17580 0.02940 0.23050 -0.50000
O 	O 	0.17120 0.78470 0.19850 -0.46600
O 	O 	0.34190 0.93010 0.06410 -0.49900
O 	O 	0.71760 0.95670 0.01480 -0.51200
O 	O 	0.82580 0.77350 0.14250 -0.51400
O 	O 	0.84390 0.00580 0.21950 -0.50900
O 	O 	0.04330 0.80500 0.95420 -0.47700
H 	H 	0.13150 0.80190 0.92050 0.23500
C 	C 	0.03160 0.92530 0.02940 -0.03900
C 	C 	0.03920 0.04300 0.94340 -0.26800
H 	H 	0.13870 0.04620 0.90390 0.09000
H 	H 	0.02360 0.12050 0.99120 0.08100
H 	H 	0.96010 0.03630 0.88100 0.10400
