data_crystal

_cell_length_a 10.32400
_cell_length_b 8.31300
_cell_length_c 10.53400
_cell_angle_alpha 90.00000
_cell_angle_beta  90.00000
_cell_angle_gamma 90.00000

_symmetry_space_group_name_	'P 1'
_symmetry_space_group_name_H-M	'P 1'

loop_
_symmetry_equiv_pos_as_xyz
  x,y,z

loop_
_atom_site_label
_atom_site_type_symbol
_atom_site_fract_x
_atom_site_fract_y
_atom_site_fract_z
_atom_site_charge
P 	P 	0.83240 0.06720 0.37360 0.45000
O 	O 	0.72970 0.07390 0.27130 -0.39900
O 	O 	0.81160 0.93010 0.46270 -0.41500
O 	O 	0.96900 0.06920 0.31780 -0.38600
H 	H 	0.49200 0.31800 0.98490 0.14300
H 	H 	0.70090 0.34230 0.60700 0.21900
P 	P 	0.66760 0.93280 0.87360 0.44300
O 	O 	0.77030 0.92610 0.77130 -0.40100
O 	O 	0.68840 0.06990 0.96270 -0.40600
O 	O 	0.53100 0.93080 0.81780 -0.39000
H 	H 	0.00800 0.68200 0.48490 0.14500
H 	H 	0.79910 0.65770 0.10700 0.20500
P 	P 	0.16760 0.56720 0.62640 0.44800
O 	O 	0.27030 0.57390 0.72870 -0.39800
O 	O 	0.18840 0.43010 0.53730 -0.41500
O 	O 	0.03100 0.56920 0.68220 -0.38700
H 	H 	0.50800 0.81800 0.01510 0.14500
H 	H 	0.29910 0.84230 0.39300 0.22000
P 	P 	0.33240 0.43280 0.12640 0.45100
O 	O 	0.22970 0.42610 0.22870 -0.39900
O 	O 	0.31160 0.56990 0.03730 -0.41400
O 	O 	0.46900 0.43080 0.18220 -0.38800
H 	H 	0.99200 0.18200 0.51510 0.14600
H 	H 	0.20090 0.15770 0.89300 0.20600
P 	P 	0.16760 0.93280 0.62640 0.44900
O 	O 	0.27030 0.92610 0.72870 -0.40000
O 	O 	0.18840 0.06990 0.53730 -0.41600
O 	O 	0.03100 0.93080 0.68220 -0.38700
H 	H 	0.50800 0.68200 0.01510 0.14300
H 	H 	0.29910 0.65770 0.39300 0.21900
P 	P 	0.33240 0.06720 0.12640 0.44300
O 	O 	0.22970 0.07390 0.22870 -0.40100
O 	O 	0.31160 0.93010 0.03730 -0.40600
O 	O 	0.46900 0.06920 0.18220 -0.39000
H 	H 	0.99200 0.31800 0.51510 0.14500
H 	H 	0.20090 0.34230 0.89300 0.20500
P 	P 	0.83240 0.43280 0.37360 0.44800
O 	O 	0.72970 0.42610 0.27130 -0.39800
O 	O 	0.81160 0.56990 0.46270 -0.41500
O 	O 	0.96900 0.43080 0.31780 -0.38700
H 	H 	0.49200 0.18200 0.98490 0.14500
H 	H 	0.70090 0.15770 0.60700 0.22000
P 	P 	0.66760 0.56720 0.87360 0.45100
O 	O 	0.77030 0.57390 0.77130 -0.39900
O 	O 	0.68840 0.43010 0.96270 -0.41400
O 	O 	0.53100 0.56920 0.81780 -0.38800
H 	H 	0.00800 0.81800 0.48490 0.14600
H 	H 	0.79910 0.84230 0.10700 0.20600
Gd	Gd	0.63974 0.25000 0.12052 1.54600
O 	O 	0.94220 0.25000 0.54360 -0.48600
C 	C 	0.82480 0.25000 0.47010 0.08600
C 	C 	0.70100 0.25000 0.55200 -0.56200
H 	H 	0.62710 0.25000 0.49750 0.19400
Gd	Gd	0.86026 0.75000 0.62052 1.54800
O 	O 	0.55780 0.75000 0.04360 -0.47800
C 	C 	0.67520 0.75000 0.97010 0.06900
C 	C 	0.79900 0.75000 0.05200 -0.51300
H 	H 	0.87290 0.75000 0.99750 0.17500
Gd	Gd	0.36026 0.75000 0.87948 1.54600
O 	O 	0.05780 0.75000 0.45640 -0.48600
C 	C 	0.17520 0.75000 0.52990 0.08600
C 	C 	0.29900 0.75000 0.44800 -0.56200
H 	H 	0.37290 0.75000 0.50250 0.19400
Gd	Gd	0.13974 0.25000 0.37948 1.54800
O 	O 	0.44220 0.25000 0.95640 -0.47800
C 	C 	0.32480 0.25000 0.02990 0.06900
C 	C 	0.20100 0.25000 0.94800 -0.51300
H 	H 	0.12710 0.25000 0.00250 0.17500
