data_crystal

_cell_length_a 10.29700
_cell_length_b 8.30340
_cell_length_c 10.50000
_cell_angle_alpha 90.00000
_cell_angle_beta  90.00000
_cell_angle_gamma 90.00000

_symmetry_space_group_name_	'P 1'
_symmetry_space_group_name_H-M	'P 1'

loop_
_symmetry_equiv_pos_as_xyz
  x,y,z

loop_
_atom_site_label
_atom_site_type_symbol
_atom_site_fract_x
_atom_site_fract_y
_atom_site_fract_z
_atom_site_charge
P 	P 	0.66720 0.06730 0.37330 0.47100
O 	O 	0.77040 0.07400 0.27030 -0.45100
O 	O 	0.52950 0.06930 0.31780 -0.43900
O 	O 	0.68830 0.92940 0.46330 -0.47200
H 	H 	0.00340 0.17350 0.96180 0.16400
H 	H 	0.79820 0.15640 0.60750 0.19400
P 	P 	0.83280 0.93270 0.87330 0.46600
O 	O 	0.72960 0.92600 0.77030 -0.45000
O 	O 	0.97050 0.93070 0.81780 -0.43000
O 	O 	0.81170 0.07060 0.96330 -0.46100
H 	H 	0.49660 0.82650 0.46180 0.16300
H 	H 	0.70180 0.84360 0.10750 0.20000
P 	P 	0.33280 0.56730 0.62670 0.47300
O 	O 	0.22960 0.57400 0.72970 -0.44800
O 	O 	0.47050 0.56930 0.68220 -0.43800
O 	O 	0.31170 0.42940 0.53670 -0.47400
H 	H 	0.99660 0.67350 0.03820 0.16200
H 	H 	0.20180 0.65640 0.39250 0.19400
P 	P 	0.16720 0.43270 0.12670 0.47100
O 	O 	0.27040 0.42600 0.22970 -0.44900
O 	O 	0.02950 0.43070 0.18220 -0.43000
O 	O 	0.18830 0.57060 0.03670 -0.46500
H 	H 	0.50340 0.32650 0.53820 0.16300
H 	H 	0.29820 0.34360 0.89250 0.19800
P 	P 	0.33280 0.93270 0.62670 0.47100
O 	O 	0.22960 0.92600 0.72970 -0.45100
O 	O 	0.47050 0.93070 0.68220 -0.43900
O 	O 	0.31170 0.07060 0.53670 -0.47200
H 	H 	0.99660 0.82650 0.03820 0.16400
H 	H 	0.20180 0.84360 0.39250 0.19400
P 	P 	0.16720 0.06730 0.12670 0.46600
O 	O 	0.27040 0.07400 0.22970 -0.45000
O 	O 	0.02950 0.06930 0.18220 -0.43000
O 	O 	0.18830 0.92940 0.03670 -0.46100
H 	H 	0.50340 0.17350 0.53820 0.16300
H 	H 	0.29820 0.15640 0.89250 0.20000
P 	P 	0.66720 0.43270 0.37330 0.47300
O 	O 	0.77040 0.42600 0.27030 -0.44800
O 	O 	0.52950 0.43070 0.31780 -0.43800
O 	O 	0.68830 0.57060 0.46330 -0.47400
H 	H 	0.00340 0.32650 0.96180 0.16200
H 	H 	0.79820 0.34360 0.60750 0.19400
P 	P 	0.83280 0.56730 0.87330 0.47100
O 	O 	0.72960 0.57400 0.77030 -0.44900
O 	O 	0.97050 0.56930 0.81780 -0.43000
O 	O 	0.81170 0.42940 0.96330 -0.46500
H 	H 	0.49660 0.67350 0.46180 0.16300
H 	H 	0.70180 0.65640 0.10750 0.19800
Tb	Tb	0.86000 0.25000 0.12043 1.83400
O 	O 	0.55780 0.25000 0.54490 -0.52600
C 	C 	0.67730 0.25000 0.46800 0.05500
C 	C 	0.79970 0.25000 0.55400 -0.49600
H 	H 	0.87570 0.25000 0.50140 0.16300
Tb	Tb	0.64000 0.75000 0.62043 1.86900
O 	O 	0.94220 0.75000 0.04490 -0.53100
C 	C 	0.82270 0.75000 0.96800 0.06400
C 	C 	0.70030 0.75000 0.05400 -0.51300
H 	H 	0.62430 0.75000 0.00140 0.16900
Tb	Tb	0.14000 0.75000 0.87957 1.83400
O 	O 	0.44220 0.75000 0.45510 -0.52600
C 	C 	0.32270 0.75000 0.53200 0.05500
C 	C 	0.20030 0.75000 0.44600 -0.49600
H 	H 	0.12430 0.75000 0.49860 0.16300
Tb	Tb	0.36000 0.25000 0.37957 1.86900
O 	O 	0.05780 0.25000 0.95510 -0.53100
C 	C 	0.17730 0.25000 0.03200 0.06400
C 	C 	0.29970 0.25000 0.94600 -0.51300
H 	H 	0.37570 0.25000 0.99860 0.16900
