data_crystal

_cell_length_a 18.22800
_cell_length_b 11.97010
_cell_length_c 34.06200
_cell_angle_alpha 90.00000
_cell_angle_beta  122.35500
_cell_angle_gamma 90.00000

_symmetry_space_group_name_	'P 1'
_symmetry_space_group_name_H-M	'P 1'

loop_
_symmetry_equiv_pos_as_xyz
  x,y,z

loop_
_atom_site_label
_atom_site_type_symbol
_atom_site_fract_x
_atom_site_fract_y
_atom_site_fract_z
_atom_site_charge
In	In	0.12494 0.99447 0.12466 2.04300
In	In	0.25082 0.99281 0.25032 2.03900
In	In	0.62472 0.49530 0.12514 2.02100
C 	C 	0.16680 0.14630 0.06343 0.43300
C 	C 	0.23610 0.21320 0.06309 -0.10300
C 	C 	0.22280 0.25430 0.02160 -0.05900
H 	H 	0.16930 0.24490 0.99410 0.07200
C 	C 	0.28780 0.30810 0.02116 -0.05800
H 	H 	0.27880 0.33360 0.99310 0.07700
C 	C 	0.36840 0.32590 0.06245 -0.10500
C 	C 	0.38080 0.28760 0.10340 -0.01400
H 	H 	0.43360 0.30000 0.13100 0.04100
C 	C 	0.31430 0.22980 0.10421 -0.02000
H 	H 	0.32310 0.20320 0.13210 0.03700
C 	C 	0.44000 0.38400 0.06150 0.45100
C 	C 	0.58550 0.64430 0.18776 0.46000
C 	C 	0.51610 0.71240 0.18807 -0.10300
C 	C 	0.52170 0.73370 0.22909 -0.00100
H 	H 	0.56980 0.70900 0.25690 0.04700
C 	C 	0.45520 0.79270 0.22940 -0.00800
H 	H 	0.46020 0.81010 0.25740 0.05400
C 	C 	0.38280 0.82410 0.18777 -0.09600
C 	C 	0.37700 0.80180 0.14571 -0.01000
H 	H 	0.32840 0.82450 0.11770 0.04900
C 	C 	0.44310 0.74670 0.14626 -0.00300
H 	H 	0.43930 0.73190 0.11840 0.04700
C 	C 	0.30870 0.88190 0.18700 0.46300
C 	C 	0.94270 0.11280 0.06334 0.51600
C 	C 	0.87030 0.17250 0.06333 -0.12400
C 	C 	0.79850 0.21080 0.02158 -0.03600
H 	H 	0.79610 0.19950 0.99390 0.07000
C 	C 	0.73260 0.26420 0.02099 -0.07100
H 	H 	0.68440 0.28690 0.99280 0.08600
C 	C 	0.73620 0.28560 0.06213 -0.08900
C 	C 	0.80670 0.24910 0.10363 -0.02500
H 	H 	0.80990 0.26300 0.13140 0.04600
C 	C 	0.87360 0.19090 0.10380 0.00700
H 	H 	0.92060 0.16460 0.13170 0.05000
C 	C 	0.66640 0.35060 0.06214 0.43300
C 	C 	0.80740 0.61110 0.18779 0.47400
C 	C 	0.87990 0.67180 0.18816 -0.12300
C 	C 	0.95520 0.69590 0.22936 0.10800
H 	H 	0.96230 0.67340 0.25730 0.03000
C 	C 	0.02180 0.75500 0.22909 -0.10100
H 	H 	0.07210 0.77460 0.25700 0.07000
C 	C 	0.01230 0.78370 0.18736 -0.15800
C 	C 	0.93490 0.75780 0.14565 0.08900
H 	H 	0.92800 0.77810 0.11750 0.03700
C 	C 	0.87010 0.70370 0.14595 -0.02000
H 	H 	0.81880 0.68750 0.11800 0.05300
C 	C 	0.08370 0.84760 0.18750 0.47000
O 	O 	0.17990 0.07890 0.18770 -0.99000
O 	O 	0.06880 0.90990 0.06168 -0.93300
O 	O 	0.67960 0.40590 0.18711 -0.95300
O 	O 	0.57040 0.58390 0.06325 -0.94300
O 	O 	0.10060 0.12290 0.02440 -0.61500
O 	O 	0.17920 0.12010 0.10227 -0.58400
O 	O 	0.42740 0.40980 0.02293 -0.58600
O 	O 	0.50820 0.40210 0.10036 -0.56900
O 	O 	0.57310 0.61860 0.14924 -0.56500
O 	O 	0.64950 0.61740 0.22681 -0.56800
O 	O 	0.31900 0.90060 0.22583 -0.54400
O 	O 	0.24360 0.90470 0.14850 -0.55000
O 	O 	0.00860 0.08800 0.10272 -0.64400
O 	O 	0.93220 0.09340 0.02460 -0.60300
O 	O 	0.67790 0.37370 0.10094 -0.57200
O 	O 	0.59970 0.37470 0.02317 -0.57100
O 	O 	0.74160 0.58980 0.14946 -0.57500
O 	O 	0.81930 0.58790 0.22680 -0.56600
O 	O 	0.14850 0.87130 0.22615 -0.55400
O 	O 	0.07160 0.87100 0.14864 -0.56200
H 	H 	0.19400 0.14200 0.20000 0.34700
H 	H 	0.07700 0.84080 0.06000 0.33300
H 	H 	0.68800 0.33900 0.18300 0.34900
H 	H 	0.58900 0.65000 0.06400 0.34600
In	In	0.87506 0.49447 0.37534 2.02300
In	In	0.74918 0.49281 0.24968 2.01700
In	In	0.37528 0.99530 0.37486 2.04200
C 	C 	0.83320 0.64630 0.43657 0.43400
C 	C 	0.76390 0.71320 0.43691 -0.08200
C 	C 	0.77720 0.75430 0.47840 -0.01600
H 	H 	0.83070 0.74490 0.50590 0.06300
C 	C 	0.71220 0.80810 0.47884 0.00700
H 	H 	0.72120 0.83360 0.50690 0.05100
C 	C 	0.63160 0.82590 0.43755 -0.10400
C 	C 	0.61920 0.78760 0.39660 0.00600
H 	H 	0.56640 0.80000 0.36900 0.04900
C 	C 	0.68570 0.72980 0.39579 -0.01600
H 	H 	0.67690 0.70320 0.36790 0.05300
C 	C 	0.56000 0.88400 0.43850 0.46000
C 	C 	0.41450 0.14430 0.31224 0.46000
C 	C 	0.48390 0.21240 0.31193 -0.12100
C 	C 	0.47830 0.23370 0.27091 -0.00500
H 	H 	0.43020 0.20900 0.24310 0.03300
C 	C 	0.54480 0.29270 0.27060 -0.01800
H 	H 	0.53980 0.31010 0.24260 0.04400
C 	C 	0.61720 0.32410 0.31223 -0.10600
C 	C 	0.62300 0.30180 0.35429 -0.01900
H 	H 	0.67160 0.32450 0.38230 0.04300
C 	C 	0.55690 0.24670 0.35374 -0.00600
H 	H 	0.56070 0.23190 0.38160 0.03700
C 	C 	0.69130 0.38190 0.31300 0.46000
C 	C 	0.05730 0.61280 0.43666 0.34800
C 	C 	0.12970 0.67250 0.43667 -0.07200
C 	C 	0.20150 0.71080 0.47842 -0.03000
H 	H 	0.20390 0.69950 0.50610 0.05300
C 	C 	0.26740 0.76420 0.47901 0.00900
H 	H 	0.31560 0.78690 0.50720 0.04700
C 	C 	0.26380 0.78560 0.43787 -0.10900
C 	C 	0.19330 0.74910 0.39637 0.00600
H 	H 	0.19010 0.76300 0.36860 0.03700
C 	C 	0.12640 0.69090 0.39620 -0.03200
H 	H 	0.07940 0.66460 0.36830 0.03700
C 	C 	0.33360 0.85060 0.43786 0.44800
C 	C 	0.19260 0.11110 0.31221 0.45900
C 	C 	0.12010 0.17180 0.31184 -0.11600
C 	C 	0.04480 0.19590 0.27064 -0.10000
H 	H 	0.03770 0.17340 0.24270 0.04900
C 	C 	0.97820 0.25500 0.27091 0.06300
H 	H 	0.92790 0.27460 0.24300 0.02400
C 	C 	0.98770 0.28370 0.31264 -0.04300
C 	C 	0.06510 0.25780 0.35435 -0.11700
H 	H 	0.07200 0.27810 0.38250 0.05700
C 	C 	0.12990 0.20370 0.35405 0.01900
H 	H 	0.18120 0.18750 0.38200 0.02000
C 	C 	0.91630 0.34760 0.31250 0.44300
O 	O 	0.82010 0.57890 0.31230 -0.93600
O 	O 	0.93120 0.40990 0.43832 -0.93200
O 	O 	0.32040 0.90590 0.31289 -0.91900
O 	O 	0.42960 0.08390 0.43675 -0.98200
O 	O 	0.89940 0.62290 0.47560 -0.52700
O 	O 	0.82080 0.62010 0.39773 -0.53800
O 	O 	0.57260 0.90980 0.47707 -0.53400
O 	O 	0.49180 0.90210 0.39964 -0.54100
O 	O 	0.42690 0.11860 0.35076 -0.59800
O 	O 	0.35050 0.11740 0.27319 -0.60300
O 	O 	0.68100 0.40060 0.27417 -0.56900
O 	O 	0.75640 0.40470 0.35150 -0.57300
O 	O 	0.99140 0.58800 0.39728 -0.46400
O 	O 	0.06780 0.59340 0.47540 -0.55900
O 	O 	0.32210 0.87370 0.39906 -0.55000
O 	O 	0.40030 0.87470 0.47683 -0.52500
O 	O 	0.25840 0.08980 0.35054 -0.61000
O 	O 	0.18070 0.08790 0.27320 -0.60600
O 	O 	0.85150 0.37130 0.27385 -0.56400
O 	O 	0.92840 0.37100 0.35136 -0.54200
H 	H 	0.80600 0.64200 0.30000 0.35300
H 	H 	0.92300 0.34080 0.44000 0.35600
H 	H 	0.31200 0.83900 0.31700 0.34600
H 	H 	0.41100 0.15000 0.43600 0.35100
In	In	0.87506 0.00553 0.87534 1.99800
In	In	0.74918 0.00719 0.74968 1.99200
In	In	0.37528 0.50470 0.87486 2.02000
C 	C 	0.83320 0.85370 0.93657 0.43500
C 	C 	0.76390 0.78680 0.93691 -0.08100
C 	C 	0.77720 0.74570 0.97840 0.02100
H 	H 	0.83070 0.75510 0.00590 0.02400
C 	C 	0.71220 0.69190 0.97884 0.06200
H 	H 	0.72120 0.66640 0.00690 -0.00000
C 	C 	0.63160 0.67410 0.93755 -0.12900
C 	C 	0.61920 0.71240 0.89660 0.02100
H 	H 	0.56640 0.70000 0.86900 0.04300
C 	C 	0.68570 0.77020 0.89579 -0.02000
H 	H 	0.67690 0.79680 0.86790 0.06200
C 	C 	0.56000 0.61600 0.93850 0.47000
C 	C 	0.41450 0.35570 0.81224 0.45300
C 	C 	0.48390 0.28760 0.81193 -0.10800
C 	C 	0.47830 0.26630 0.77091 -0.01500
H 	H 	0.43020 0.29100 0.74310 0.04100
C 	C 	0.54480 0.20730 0.77060 -0.00800
H 	H 	0.53980 0.18990 0.74260 0.03700
C 	C 	0.61720 0.17590 0.81223 -0.11900
C 	C 	0.62300 0.19820 0.85429 -0.00900
H 	H 	0.67160 0.17550 0.88230 0.03600
C 	C 	0.55690 0.25330 0.85374 -0.01600
H 	H 	0.56070 0.26810 0.88160 0.04400
C 	C 	0.69130 0.11810 0.81300 0.46300
C 	C 	0.05730 0.88720 0.93666 0.34700
C 	C 	0.12970 0.82750 0.93667 -0.06700
C 	C 	0.20150 0.78920 0.97842 0.00600
H 	H 	0.20390 0.80050 0.00610 0.01700
C 	C 	0.26740 0.73580 0.97901 0.06700
H 	H 	0.31560 0.71310 0.00720 -0.00300
C 	C 	0.26380 0.71440 0.93787 -0.13300
C 	C 	0.19330 0.75090 0.89637 0.02200
H 	H 	0.19010 0.73700 0.86860 0.03200
C 	C 	0.12640 0.80910 0.89620 -0.03800
H 	H 	0.07940 0.83540 0.86830 0.04600
C 	C 	0.33360 0.64940 0.93786 0.45700
C 	C 	0.19260 0.38890 0.81221 0.45200
C 	C 	0.12010 0.32820 0.81184 -0.10000
C 	C 	0.04480 0.30410 0.77064 -0.11200
H 	H 	0.03770 0.32660 0.74270 0.05700
C 	C 	0.97820 0.24500 0.77091 0.07500
H 	H 	0.92790 0.22540 0.74300 0.01600
C 	C 	0.98770 0.21630 0.81264 -0.05900
C 	C 	0.06510 0.24220 0.85435 -0.10200
H 	H 	0.07200 0.22190 0.88250 0.05100
C 	C 	0.12990 0.29630 0.85405 0.00500
H 	H 	0.18120 0.31250 0.88200 0.03000
C 	C 	0.91630 0.15240 0.81250 0.44500
O 	O 	0.82010 0.92110 0.81230 -0.87700
O 	O 	0.93120 0.09010 0.93832 -0.96500
O 	O 	0.32040 0.59410 0.81289 -0.95300
O 	O 	0.42960 0.41610 0.93675 -0.92900
O 	O 	0.89940 0.87710 0.97560 -0.48300
O 	O 	0.82080 0.87990 0.89773 -0.50900
O 	O 	0.57260 0.59020 0.97707 -0.54700
O 	O 	0.49180 0.59790 0.89964 -0.56200
O 	O 	0.42690 0.38140 0.85076 -0.57000
O 	O 	0.35050 0.38260 0.77319 -0.57700
O 	O 	0.68100 0.09940 0.77417 -0.59100
O 	O 	0.75640 0.09530 0.85150 -0.59600
O 	O 	0.99140 0.91200 0.89728 -0.43200
O 	O 	0.06780 0.90660 0.97540 -0.51100
O 	O 	0.32210 0.62630 0.89906 -0.56900
O 	O 	0.40030 0.62530 0.97683 -0.53300
O 	O 	0.25840 0.41020 0.85054 -0.57900
O 	O 	0.18070 0.41210 0.77320 -0.57800
O 	O 	0.85150 0.12870 0.77385 -0.58500
O 	O 	0.92840 0.12900 0.85136 -0.56200
H 	H 	0.80600 0.85800 0.80000 0.33400
H 	H 	0.92300 0.15920 0.94000 0.37700
H 	H 	0.31200 0.66100 0.81700 0.36200
H 	H 	0.41100 0.35000 0.93600 0.33900
In	In	0.12494 0.50553 0.62466 2.02100
In	In	0.25082 0.50719 0.75032 2.01700
In	In	0.62472 0.00470 0.62514 1.99500
C 	C 	0.16680 0.35370 0.56343 0.43600
C 	C 	0.23610 0.28680 0.56309 -0.10600
C 	C 	0.22280 0.24570 0.52160 -0.02200
H 	H 	0.16930 0.25510 0.49410 0.03300
C 	C 	0.28780 0.19190 0.52116 -0.00600
H 	H 	0.27880 0.16640 0.49310 0.02800
C 	C 	0.36840 0.17410 0.56245 -0.12800
C 	C 	0.38080 0.21240 0.60340 -0.00100
H 	H 	0.43360 0.20000 0.63100 0.03500
C 	C 	0.31430 0.27020 0.60421 -0.02300
H 	H 	0.32310 0.29680 0.63210 0.04400
C 	C 	0.44000 0.11600 0.56150 0.45900
C 	C 	0.58550 0.85570 0.68776 0.45300
C 	C 	0.51610 0.78760 0.68807 -0.08800
C 	C 	0.52170 0.76630 0.72909 -0.01100
H 	H 	0.56980 0.79100 0.75690 0.05600
C 	C 	0.45520 0.70730 0.72940 0.00300
H 	H 	0.46020 0.68990 0.75740 0.04800
C 	C 	0.38280 0.67590 0.68777 -0.10800
C 	C 	0.37700 0.69820 0.64571 0.00100
H 	H 	0.32840 0.67550 0.61770 0.04300
C 	C 	0.44310 0.75330 0.64626 -0.01300
H 	H 	0.43930 0.76810 0.61840 0.05400
C 	C 	0.30870 0.61810 0.68700 0.46600
C 	C 	0.94270 0.38720 0.56334 0.52400
C 	C 	0.87030 0.32750 0.56333 -0.12300
C 	C 	0.79850 0.28920 0.52158 -0.00000
H 	H 	0.79610 0.30050 0.49390 0.03600
C 	C 	0.73260 0.23580 0.52099 -0.01700
H 	H 	0.68440 0.21310 0.49280 0.03900
C 	C 	0.73620 0.21440 0.56213 -0.11200
C 	C 	0.80670 0.25090 0.60363 -0.01300
H 	H 	0.80990 0.23700 0.63140 0.04100
C 	C 	0.87360 0.30910 0.60380 0.00200
H 	H 	0.92060 0.33540 0.63170 0.05900
C 	C 	0.66640 0.14940 0.56214 0.43900
C 	C 	0.80740 0.88890 0.68779 0.46700
C 	C 	0.87990 0.82820 0.68816 -0.10600
C 	C 	0.95520 0.80410 0.72936 0.09800
H 	H 	0.96230 0.82660 0.75730 0.03900
C 	C 	0.02180 0.74500 0.72909 -0.09100
H 	H 	0.07210 0.72540 0.75700 0.06400
C 	C 	0.01230 0.71630 0.68736 -0.16900
C 	C 	0.93490 0.74220 0.64565 0.10100
H 	H 	0.92800 0.72190 0.61750 0.03200
C 	C 	0.87010 0.79630 0.64595 -0.03100
H 	H 	0.81880 0.81250 0.61800 0.06200
C 	C 	0.08370 0.65240 0.68750 0.47200
O 	O 	0.17990 0.42110 0.68770 -0.94100
O 	O 	0.06880 0.59010 0.56168 -0.97100
O 	O 	0.67960 0.09410 0.68711 -0.99100
O 	O 	0.57040 0.91610 0.56325 -0.88200
O 	O 	0.10060 0.37710 0.52440 -0.58300
O 	O 	0.17920 0.37990 0.60227 -0.56100
O 	O 	0.42740 0.09020 0.52293 -0.59400
O 	O 	0.50820 0.09790 0.60036 -0.59100
O 	O 	0.57310 0.88140 0.64924 -0.53300
O 	O 	0.64950 0.88260 0.72681 -0.53600
O 	O 	0.31900 0.59940 0.72583 -0.56300
O 	O 	0.24360 0.59530 0.64850 -0.57000
O 	O 	0.00860 0.41200 0.60272 -0.62300
O 	O 	0.93220 0.40660 0.52460 -0.56500
O 	O 	0.67790 0.12630 0.60094 -0.59200
O 	O 	0.59970 0.12530 0.52317 -0.57500
O 	O 	0.74160 0.91020 0.64946 -0.54100
O 	O 	0.81930 0.91210 0.72680 -0.53100
O 	O 	0.14850 0.62870 0.72615 -0.57100
O 	O 	0.07160 0.62900 0.64864 -0.57700
H 	H 	0.19400 0.35800 0.70000 0.33100
H 	H 	0.07700 0.65920 0.56000 0.35600
H 	H 	0.68800 0.16100 0.68300 0.36500
H 	H 	0.58900 0.85000 0.56400 0.33200
In	In	0.50000 0.50000 -0.00000 2.00900
In	In	0.50000 0.00000 0.50000 1.99500
In	In	-0.00000 0.00000 -0.00000 1.97300
In	In	0.00000 0.50000 0.50000 2.00200
