data_crystal

_cell_length_a 6.87270
_cell_length_b 11.46200
_cell_length_c 24.98600
_cell_angle_alpha 98.79000
_cell_angle_beta  90.00000
_cell_angle_gamma 90.00000

_symmetry_space_group_name_	'P 1'
_symmetry_space_group_name_H-M	'P 1'

loop_
_symmetry_equiv_pos_as_xyz
  x,y,z

loop_
_atom_site_label
_atom_site_type_symbol
_atom_site_fract_x
_atom_site_fract_y
_atom_site_fract_z
_atom_site_charge
Ag	Ag	0.13626 0.91774 0.45180 0.57200
Ag	Ag	0.50473 0.82281 0.55133 0.56900
Ag	Ag	0.13626 0.08226 0.04820 0.57200
Ag	Ag	0.50473 0.17719 0.94867 0.56900
Ag	Ag	0.86374 0.08226 0.54820 0.57200
Ag	Ag	0.49527 0.17719 0.44867 0.56900
Ag	Ag	0.86374 0.91774 0.95180 0.57300
Ag	Ag	0.49527 0.82281 0.05133 0.57000
H 	H 	0.28540 0.13920 0.68340 0.03600
H 	H 	0.05690 0.25530 0.73520 0.04400
H 	H 	0.10600 0.27200 0.55030 0.04300
H 	H 	0.86650 0.38180 0.60200 0.04300
H 	H 	0.01010 0.54610 0.72900 0.12300
H 	H 	0.75610 0.53590 0.65720 0.12600
H 	H 	0.59100 0.43610 0.65230 0.12900
H 	H 	0.75030 0.29510 0.76480 0.12400
H 	H 	0.58510 0.28950 0.71930 0.12700
H 	H 	0.33010 0.55360 0.77460 0.12400
H 	H 	0.47360 0.80850 0.71450 0.04000
H 	H 	0.28320 0.49090 0.64060 0.04500
H 	H 	0.25830 0.90170 0.66360 0.04900
H 	H 	0.06610 0.58350 0.58950 0.03700
H 	H 	0.28540 0.86080 0.81660 0.03600
H 	H 	0.05690 0.74470 0.76480 0.04400
H 	H 	0.10600 0.72800 0.94970 0.04300
H 	H 	0.86650 0.61820 0.89800 0.04300
H 	H 	0.01010 0.45390 0.77100 0.12300
H 	H 	0.75610 0.46410 0.84280 0.12600
H 	H 	0.59100 0.56390 0.84770 0.12900
H 	H 	0.75030 0.70490 0.73520 0.12400
H 	H 	0.58510 0.71050 0.78070 0.12700
H 	H 	0.33010 0.44640 0.72540 0.12400
H 	H 	0.47360 0.19150 0.78550 0.04000
H 	H 	0.28320 0.50910 0.85940 0.04500
H 	H 	0.25830 0.09830 0.83640 0.04900
H 	H 	0.06610 0.41650 0.91050 0.03700
H 	H 	0.71460 0.86080 0.31660 0.03600
H 	H 	0.94310 0.74470 0.26480 0.04400
H 	H 	0.89400 0.72800 0.44970 0.04300
H 	H 	0.13350 0.61820 0.39800 0.04300
H 	H 	0.98990 0.45390 0.27100 0.12300
H 	H 	0.24390 0.46410 0.34280 0.12600
H 	H 	0.40900 0.56390 0.34770 0.12900
H 	H 	0.24970 0.70490 0.23520 0.12400
H 	H 	0.41490 0.71050 0.28070 0.12700
H 	H 	0.66990 0.44640 0.22540 0.12400
H 	H 	0.52640 0.19150 0.28550 0.04000
H 	H 	0.71680 0.50910 0.35940 0.04500
H 	H 	0.74170 0.09830 0.33640 0.04900
H 	H 	0.93390 0.41650 0.41050 0.03700
H 	H 	0.71460 0.13920 0.18340 0.03600
H 	H 	0.94310 0.25530 0.23520 0.04400
H 	H 	0.89400 0.27200 0.05030 0.04300
H 	H 	0.13350 0.38180 0.10200 0.04300
H 	H 	0.98990 0.54610 0.22900 0.12300
H 	H 	0.24390 0.53590 0.15720 0.12600
H 	H 	0.40900 0.43610 0.15230 0.12900
H 	H 	0.24970 0.29510 0.26480 0.12400
H 	H 	0.41490 0.28950 0.21930 0.12700
H 	H 	0.66990 0.55360 0.27460 0.12400
H 	H 	0.52640 0.80850 0.21450 0.04000
H 	H 	0.71680 0.49090 0.14060 0.04500
H 	H 	0.74170 0.90170 0.16360 0.04900
H 	H 	0.93390 0.58350 0.08950 0.03700
C 	C 	0.21890 0.19540 0.61190 -0.09600
C 	C 	0.20270 0.18980 0.66690 -0.00100
C 	C 	0.06530 0.25860 0.69750 -0.05800
C 	C 	0.09480 0.26790 0.58780 -0.04300
C 	C 	0.93780 0.33300 0.67460 -0.05100
C 	C 	0.95360 0.33450 0.61890 -0.04700
C 	C 	0.67220 0.48910 0.67820 -0.33000
C 	C 	0.80050 0.41490 0.71080 0.22000
C 	C 	0.53940 0.57330 0.71650 0.21900
C 	C 	0.66850 0.34350 0.74410 -0.32900
C 	C 	0.40330 0.63950 0.68330 -0.05300
C 	C 	0.39160 0.76220 0.68900 -0.04900
C 	C 	0.27890 0.57470 0.64530 -0.06000
C 	C 	0.26410 0.81800 0.65860 -0.02500
C 	C 	0.14390 0.75160 0.62070 -0.10100
C 	C 	0.15000 0.62940 0.61460 -0.00900
C 	C 	0.21890 0.80460 0.88810 -0.09600
C 	C 	0.20270 0.81020 0.83310 -0.00100
C 	C 	0.06530 0.74140 0.80250 -0.05800
C 	C 	0.09480 0.73210 0.91220 -0.04200
C 	C 	0.93780 0.66700 0.82540 -0.05100
C 	C 	0.95360 0.66550 0.88110 -0.04800
C 	C 	0.67220 0.51090 0.82180 -0.33000
C 	C 	0.80050 0.58510 0.78920 0.22000
C 	C 	0.53940 0.42670 0.78350 0.21900
C 	C 	0.66850 0.65650 0.75590 -0.32900
C 	C 	0.40330 0.36050 0.81670 -0.05400
C 	C 	0.39160 0.23780 0.81100 -0.04900
C 	C 	0.27890 0.42530 0.85470 -0.06000
C 	C 	0.26410 0.18200 0.84140 -0.02600
C 	C 	0.14390 0.24840 0.87930 -0.10000
C 	C 	0.15000 0.37060 0.88540 -0.00900
C 	C 	0.78110 0.80460 0.38810 -0.09600
C 	C 	0.79730 0.81020 0.33310 -0.00100
C 	C 	0.93470 0.74140 0.30250 -0.05800
C 	C 	0.90520 0.73210 0.41220 -0.04300
C 	C 	0.06220 0.66700 0.32540 -0.05100
C 	C 	0.04640 0.66550 0.38110 -0.04700
C 	C 	0.32780 0.51090 0.32180 -0.33000
C 	C 	0.19950 0.58510 0.28920 0.22000
C 	C 	0.46060 0.42670 0.28350 0.21900
C 	C 	0.33150 0.65650 0.25590 -0.32900
C 	C 	0.59670 0.36050 0.31670 -0.05300
C 	C 	0.60840 0.23780 0.31100 -0.04900
C 	C 	0.72110 0.42530 0.35470 -0.06000
C 	C 	0.73590 0.18200 0.34140 -0.02500
C 	C 	0.85610 0.24840 0.37930 -0.10100
C 	C 	0.85000 0.37060 0.38540 -0.00900
C 	C 	0.78110 0.19540 0.11190 -0.09600
C 	C 	0.79730 0.18980 0.16690 -0.00100
C 	C 	0.93470 0.25860 0.19750 -0.05800
C 	C 	0.90520 0.26790 0.08780 -0.04200
C 	C 	0.06220 0.33300 0.17460 -0.05100
C 	C 	0.04640 0.33450 0.11890 -0.04800
C 	C 	0.32780 0.48910 0.17820 -0.33000
C 	C 	0.19950 0.41490 0.21080 0.22000
C 	C 	0.46060 0.57330 0.21650 0.21900
C 	C 	0.33150 0.34350 0.24410 -0.32900
C 	C 	0.59670 0.63950 0.18330 -0.05400
C 	C 	0.60840 0.76220 0.18900 -0.04900
C 	C 	0.72110 0.57470 0.14530 -0.06000
C 	C 	0.73590 0.81800 0.15860 -0.02600
C 	C 	0.85610 0.75160 0.12070 -0.10000
C 	C 	0.85000 0.62940 0.11460 -0.00900
C 	C 	0.92530 0.50000 0.75000 -0.33100
C 	C 	0.41490 0.50000 0.75000 -0.33100
C 	C 	0.07470 0.50000 0.25000 -0.33100
C 	C 	0.58510 0.50000 0.25000 -0.33100
S 	S 	0.39650 0.11293 0.57116 0.49700
S 	S 	0.99920 0.81822 0.57529 0.50500
S 	S 	0.39650 0.88707 0.92884 0.49700
S 	S 	0.99920 0.18178 0.92471 0.50400
S 	S 	0.60350 0.88707 0.42884 0.49700
S 	S 	0.00080 0.18178 0.42471 0.50500
S 	S 	0.60350 0.11293 0.07116 0.49700
S 	S 	0.00080 0.81822 0.07529 0.50400
O 	O 	0.45270 0.01500 0.59896 -0.33700
O 	O 	0.30500 0.07570 0.51933 -0.37700
O 	O 	0.55880 0.19220 0.56710 -0.34100
O 	O 	0.96540 0.94030 0.59920 -0.33800
O 	O 	0.12300 0.80990 0.52720 -0.36100
O 	O 	0.82530 0.74830 0.56560 -0.33500
O 	O 	0.45270 0.98500 0.90104 -0.33700
O 	O 	0.30500 0.92430 0.98067 -0.37700
O 	O 	0.55880 0.80780 0.93290 -0.34100
O 	O 	0.96540 0.05970 0.90080 -0.33800
O 	O 	0.12300 0.19010 0.97280 -0.36000
O 	O 	0.82530 0.25170 0.93440 -0.33500
O 	O 	0.54730 0.98500 0.40104 -0.33700
O 	O 	0.69500 0.92430 0.48067 -0.37700
O 	O 	0.44120 0.80780 0.43290 -0.34100
O 	O 	0.03460 0.05970 0.40080 -0.33800
O 	O 	0.87700 0.19010 0.47280 -0.36100
O 	O 	0.17470 0.25170 0.43440 -0.33500
O 	O 	0.54730 0.01500 0.09896 -0.33700
O 	O 	0.69500 0.07570 0.01933 -0.37700
O 	O 	0.44120 0.19220 0.06710 -0.34100
O 	O 	0.03460 0.94030 0.09920 -0.33800
O 	O 	0.87700 0.80990 0.02720 -0.36000
O 	O 	0.17470 0.74830 0.06560 -0.33500
