data_crystal

_cell_length_a 29.25820
_cell_length_b 29.25820
_cell_length_c 29.25820
_cell_angle_alpha 90.00000
_cell_angle_beta  90.00000
_cell_angle_gamma 90.00000

_symmetry_space_group_name_	'P 1'
_symmetry_space_group_name_H-M	'P 1'

loop_
_symmetry_equiv_pos_as_xyz
  x,y,z

loop_
_atom_site_label
_atom_site_type_symbol
_atom_site_fract_x
_atom_site_fract_y
_atom_site_fract_z
_atom_site_charge
N 	N 	0.23073 0.38610 0.03823 -0.28400
N 	N 	0.19408 0.38172 0.14001 -0.29300
C 	C 	0.20110 0.35506 0.02312 0.04300
H 	H 	0.18260 0.33570 0.04210 -0.01100
H 	H 	0.28430 0.45960 0.02660 0.06300
H 	H 	0.33850 0.39930 0.02680 0.00200
C 	C 	0.14928 0.38964 0.11643 -0.03600
H 	H 	0.14470 0.39360 0.08420 0.00700
H 	H 	0.20790 0.38830 0.24560 0.09000
C 	C 	0.18350 0.38499 0.02336 -0.09100
H 	H 	0.15710 0.38430 0.04280 0.02900
H 	H 	0.31660 0.37280 0.97350 0.08000
H 	H 	0.31310 0.45330 0.97320 0.04700
H 	H 	0.19970 0.30920 0.23760 0.07000
C 	C 	0.16629 0.34291 0.13304 -0.00400
H 	H 	0.17000 0.32050 0.10930 0.00300
H 	H 	0.18420 0.45170 0.22180 0.17700
H 	H 	0.22840 0.39710 0.25720 -0.09300
O 	O 	0.24000 0.47700 0.28200 0.47500
H 	H 	0.25620 0.45340 0.27940 -0.10800
H 	H 	0.23660 0.47880 0.21750 -0.38700
H 	H 	0.26360 0.51350 0.23330 -0.72500
N 	N 	0.73073 0.88610 0.53823 -0.29000
N 	N 	0.69408 0.88172 0.64001 -0.29400
C 	C 	0.70110 0.85506 0.52312 0.06400
H 	H 	0.68260 0.83570 0.54210 -0.01200
H 	H 	0.78430 0.95960 0.52660 0.06200
H 	H 	0.83850 0.89930 0.52680 0.00400
C 	C 	0.64928 0.88964 0.61643 -0.03500
H 	H 	0.64470 0.89360 0.58420 0.01200
H 	H 	0.70790 0.88830 0.74560 0.09200
C 	C 	0.68350 0.88499 0.52336 -0.06800
H 	H 	0.65710 0.88430 0.54280 0.02800
H 	H 	0.81660 0.87280 0.47350 0.05600
H 	H 	0.81310 0.95330 0.47320 0.03600
H 	H 	0.69970 0.80920 0.73760 0.08300
C 	C 	0.66629 0.84291 0.63304 -0.00400
H 	H 	0.67000 0.82050 0.60930 0.00700
H 	H 	0.68420 0.95170 0.72180 0.18500
H 	H 	0.72840 0.89710 0.75720 -0.10200
O 	O 	0.74000 0.97700 0.78200 0.55400
H 	H 	0.75620 0.95340 0.77940 -0.12700
H 	H 	0.73660 0.97880 0.71750 -0.37000
H 	H 	0.76360 0.01350 0.73330 -0.75200
N 	N 	0.76927 0.61390 0.03823 -0.28300
N 	N 	0.80592 0.61828 0.14001 -0.29200
C 	C 	0.79890 0.64494 0.02312 0.04400
H 	H 	0.81740 0.66430 0.04210 -0.00800
H 	H 	0.71570 0.54040 0.02660 0.06400
H 	H 	0.66150 0.60070 0.02680 0.00300
C 	C 	0.85072 0.61036 0.11643 -0.03300
H 	H 	0.85530 0.60640 0.08420 0.01000
H 	H 	0.79210 0.61170 0.24560 0.09100
C 	C 	0.81650 0.61501 0.02336 -0.09000
H 	H 	0.84290 0.61570 0.04280 0.03200
H 	H 	0.68340 0.62720 0.97350 0.08200
H 	H 	0.68690 0.54670 0.97320 0.04800
H 	H 	0.80030 0.69080 0.23760 0.07300
C 	C 	0.83371 0.65709 0.13304 -0.00300
H 	H 	0.83000 0.67950 0.10930 0.00700
H 	H 	0.81580 0.54830 0.22180 0.17800
H 	H 	0.77160 0.60290 0.25720 -0.09200
O 	O 	0.76000 0.52300 0.28200 0.47600
H 	H 	0.74380 0.54660 0.27940 -0.10700
H 	H 	0.76340 0.52120 0.21750 -0.38600
H 	H 	0.73640 0.48650 0.23330 -0.72400
N 	N 	0.26927 0.11390 0.53823 -0.28800
N 	N 	0.30592 0.11828 0.64001 -0.29200
C 	C 	0.29890 0.14494 0.52312 0.06700
H 	H 	0.31740 0.16430 0.54210 -0.01200
H 	H 	0.21570 0.04040 0.52660 0.05300
H 	H 	0.16150 0.10070 0.52680 0.00100
C 	C 	0.35072 0.11036 0.61643 -0.03500
H 	H 	0.35530 0.10640 0.58420 0.01100
H 	H 	0.29210 0.11170 0.74560 0.09200
C 	C 	0.31650 0.11501 0.52336 -0.07000
H 	H 	0.34290 0.11570 0.54280 0.02700
H 	H 	0.18340 0.12720 0.47350 0.05800
H 	H 	0.18690 0.04670 0.47320 0.02600
H 	H 	0.30030 0.19080 0.73760 0.08400
C 	C 	0.33371 0.15709 0.63304 -0.00300
H 	H 	0.33000 0.17950 0.60930 0.00700
H 	H 	0.31580 0.04830 0.72180 0.17700
H 	H 	0.27160 0.10290 0.75720 -0.10400
O 	O 	0.26000 0.02300 0.78200 0.52100
H 	H 	0.24380 0.04660 0.77940 -0.12000
H 	H 	0.26340 0.02120 0.71750 -0.37900
H 	H 	0.23640 0.98650 0.73330 -0.74000
N 	N 	0.76927 0.38610 0.96177 -0.28400
N 	N 	0.80592 0.38172 0.85999 -0.29200
C 	C 	0.79890 0.35506 0.97688 0.08400
H 	H 	0.81740 0.33570 0.95790 -0.01500
H 	H 	0.71570 0.45960 0.97340 0.07700
H 	H 	0.66150 0.39930 0.97320 0.01800
C 	C 	0.85072 0.38964 0.88357 -0.03400
H 	H 	0.85530 0.39360 0.91580 0.01500
H 	H 	0.79210 0.38830 0.75440 0.09000
C 	C 	0.81650 0.38499 0.97664 -0.04300
H 	H 	0.84290 0.38430 0.95720 0.02400
H 	H 	0.68340 0.37280 0.02650 0.06700
H 	H 	0.68690 0.45330 0.02680 0.03500
H 	H 	0.80030 0.30920 0.76240 0.07400
C 	C 	0.83371 0.34291 0.86696 -0.00200
H 	H 	0.83000 0.32050 0.89070 0.00900
H 	H 	0.81580 0.45170 0.77820 0.17800
H 	H 	0.77160 0.39710 0.74280 -0.09200
O 	O 	0.76000 0.47700 0.71800 0.47600
H 	H 	0.74380 0.45340 0.72060 -0.10700
H 	H 	0.76340 0.47880 0.78250 -0.38600
H 	H 	0.73640 0.51350 0.76670 -0.72400
N 	N 	0.26927 0.88610 0.46177 -0.28900
N 	N 	0.30592 0.88172 0.35999 -0.29300
C 	C 	0.29890 0.85506 0.47688 0.06500
H 	H 	0.31740 0.83570 0.45790 -0.01100
H 	H 	0.21570 0.95960 0.47340 0.06500
H 	H 	0.16150 0.89930 0.47320 0.00200
C 	C 	0.35072 0.88964 0.38357 -0.03500
H 	H 	0.35530 0.89360 0.41580 0.01200
H 	H 	0.29210 0.88830 0.25440 0.09300
C 	C 	0.31650 0.88499 0.47664 -0.06800
H 	H 	0.34290 0.88430 0.45720 0.02800
H 	H 	0.18340 0.87280 0.52650 0.05700
H 	H 	0.18690 0.95330 0.52680 0.03400
H 	H 	0.30030 0.80920 0.26240 0.08400
C 	C 	0.33371 0.84291 0.36696 -0.00400
H 	H 	0.33000 0.82050 0.39070 0.00700
H 	H 	0.31580 0.95170 0.27820 0.18500
H 	H 	0.27160 0.89710 0.24280 -0.10400
O 	O 	0.26000 0.97700 0.21800 0.55400
H 	H 	0.24380 0.95340 0.22060 -0.13000
H 	H 	0.26340 0.97880 0.28250 -0.36900
H 	H 	0.23640 0.01350 0.26670 -0.75100
N 	N 	0.23073 0.61390 0.96177 -0.28400
N 	N 	0.19408 0.61828 0.85999 -0.29200
C 	C 	0.20110 0.64494 0.97688 0.08400
H 	H 	0.18260 0.66430 0.95790 -0.01600
H 	H 	0.28430 0.54040 0.97340 0.07700
H 	H 	0.33850 0.60070 0.97320 0.01800
C 	C 	0.14928 0.61036 0.88357 -0.03600
H 	H 	0.14470 0.60640 0.91580 0.01300
H 	H 	0.20790 0.61170 0.75440 0.09100
C 	C 	0.18350 0.61501 0.97664 -0.04400
H 	H 	0.15710 0.61570 0.95720 0.02200
H 	H 	0.31660 0.62720 0.02650 0.06700
H 	H 	0.31310 0.54670 0.02680 0.03500
H 	H 	0.19970 0.69080 0.76240 0.07300
C 	C 	0.16629 0.65709 0.86696 -0.00200
H 	H 	0.17000 0.67950 0.89070 0.00800
H 	H 	0.18420 0.54830 0.77820 0.17800
H 	H 	0.22840 0.60290 0.74280 -0.09200
O 	O 	0.24000 0.52300 0.71800 0.47600
H 	H 	0.25620 0.54660 0.72060 -0.10700
H 	H 	0.23660 0.52120 0.78250 -0.38600
H 	H 	0.26360 0.48650 0.76670 -0.72400
N 	N 	0.73073 0.11390 0.46177 -0.28800
N 	N 	0.69408 0.11828 0.35999 -0.29200
C 	C 	0.70110 0.14494 0.47688 0.06700
H 	H 	0.68260 0.16430 0.45790 -0.01200
H 	H 	0.78430 0.04040 0.47340 0.05200
H 	H 	0.83850 0.10070 0.47320 0.00400
C 	C 	0.64928 0.11036 0.38357 -0.03500
H 	H 	0.64470 0.10640 0.41580 0.01100
H 	H 	0.70790 0.11170 0.25440 0.09200
C 	C 	0.68350 0.11501 0.47664 -0.07000
H 	H 	0.65710 0.11570 0.45720 0.02700
H 	H 	0.81660 0.12720 0.52650 0.05700
H 	H 	0.81310 0.04670 0.52680 0.02900
H 	H 	0.69970 0.19080 0.26240 0.08500
C 	C 	0.66629 0.15709 0.36696 -0.00300
H 	H 	0.67000 0.17950 0.39070 0.00700
H 	H 	0.68420 0.04830 0.27820 0.17700
H 	H 	0.72840 0.10290 0.24280 -0.10400
O 	O 	0.74000 0.02300 0.21800 0.52100
H 	H 	0.75620 0.04660 0.22060 -0.12100
H 	H 	0.73660 0.02120 0.28250 -0.37900
H 	H 	0.76360 0.98650 0.26670 -0.74000
N 	N 	0.03823 0.23073 0.38610 -0.28300
N 	N 	0.14001 0.19408 0.38172 -0.29200
C 	C 	0.02312 0.20110 0.35506 0.04400
H 	H 	0.04210 0.18260 0.33570 -0.01000
H 	H 	0.02660 0.28430 0.45960 0.06400
H 	H 	0.02680 0.33850 0.39930 0.00300
C 	C 	0.11643 0.14928 0.38964 -0.03500
H 	H 	0.08420 0.14470 0.39360 0.00800
H 	H 	0.24560 0.20790 0.38830 0.09100
C 	C 	0.02336 0.18350 0.38499 -0.09000
H 	H 	0.04280 0.15710 0.38430 0.03000
H 	H 	0.97350 0.31660 0.37280 0.08100
H 	H 	0.97320 0.31310 0.45330 0.04800
H 	H 	0.23760 0.19970 0.30920 0.07100
C 	C 	0.13304 0.16629 0.34291 -0.00300
H 	H 	0.10930 0.17000 0.32050 0.00400
H 	H 	0.22180 0.18420 0.45170 0.17800
H 	H 	0.25720 0.22840 0.39710 -0.09200
O 	O 	0.28200 0.24000 0.47700 0.47600
H 	H 	0.27940 0.25620 0.45340 -0.10700
H 	H 	0.21750 0.23660 0.47880 -0.38600
H 	H 	0.23330 0.26360 0.51350 -0.72400
N 	N 	0.53823 0.73073 0.88610 -0.28900
N 	N 	0.64001 0.69408 0.88172 -0.29300
C 	C 	0.52312 0.70110 0.85506 0.06500
H 	H 	0.54210 0.68260 0.83570 -0.01100
H 	H 	0.52660 0.78430 0.95960 0.06300
H 	H 	0.52680 0.83850 0.89930 0.00400
C 	C 	0.61643 0.64928 0.88964 -0.03500
H 	H 	0.58420 0.64470 0.89360 0.01200
H 	H 	0.74560 0.70790 0.88830 0.09200
C 	C 	0.52336 0.68350 0.88499 -0.06800
H 	H 	0.54280 0.65710 0.88430 0.02800
H 	H 	0.47350 0.81660 0.87280 0.05600
H 	H 	0.47320 0.81310 0.95330 0.03600
H 	H 	0.73760 0.69970 0.80920 0.08300
C 	C 	0.63304 0.66629 0.84291 -0.00400
H 	H 	0.60930 0.67000 0.82050 0.00700
H 	H 	0.72180 0.68420 0.95170 0.18500
H 	H 	0.75720 0.72840 0.89710 -0.10200
O 	O 	0.78200 0.74000 0.97700 0.55400
H 	H 	0.77940 0.75620 0.95340 -0.12700
H 	H 	0.71750 0.73660 0.97880 -0.37000
H 	H 	0.73330 0.76360 0.01350 -0.75200
N 	N 	0.03823 0.76927 0.61390 -0.28300
N 	N 	0.14001 0.80592 0.61828 -0.29200
C 	C 	0.02312 0.79890 0.64494 0.04400
H 	H 	0.04210 0.81740 0.66430 -0.00800
H 	H 	0.02660 0.71570 0.54040 0.06400
H 	H 	0.02680 0.66150 0.60070 0.00300
C 	C 	0.11643 0.85072 0.61036 -0.03300
H 	H 	0.08420 0.85530 0.60640 0.01000
H 	H 	0.24560 0.79210 0.61170 0.09100
C 	C 	0.02336 0.81650 0.61501 -0.09000
H 	H 	0.04280 0.84290 0.61570 0.03200
H 	H 	0.97350 0.68340 0.62720 0.08200
H 	H 	0.97320 0.68690 0.54670 0.04800
H 	H 	0.23760 0.80030 0.69080 0.07300
C 	C 	0.13304 0.83371 0.65709 -0.00300
H 	H 	0.10930 0.83000 0.67950 0.00700
H 	H 	0.22180 0.81580 0.54830 0.17800
H 	H 	0.25720 0.77160 0.60290 -0.09200
O 	O 	0.28200 0.76000 0.52300 0.47600
H 	H 	0.27940 0.74380 0.54660 -0.10700
H 	H 	0.21750 0.76340 0.52120 -0.38600
H 	H 	0.23330 0.73640 0.48650 -0.72400
N 	N 	0.53823 0.26927 0.11390 -0.28800
N 	N 	0.64001 0.30592 0.11828 -0.29200
C 	C 	0.52312 0.29890 0.14494 0.06700
H 	H 	0.54210 0.31740 0.16430 -0.01200
H 	H 	0.52660 0.21570 0.04040 0.05300
H 	H 	0.52680 0.16150 0.10070 0.00100
C 	C 	0.61643 0.35072 0.11036 -0.03500
H 	H 	0.58420 0.35530 0.10640 0.01100
H 	H 	0.74560 0.29210 0.11170 0.09200
C 	C 	0.52336 0.31650 0.11501 -0.07000
H 	H 	0.54280 0.34290 0.11570 0.02700
H 	H 	0.47350 0.18340 0.12720 0.05800
H 	H 	0.47320 0.18690 0.04670 0.02600
H 	H 	0.73760 0.30030 0.19080 0.08400
C 	C 	0.63304 0.33371 0.15709 -0.00300
H 	H 	0.60930 0.33000 0.17950 0.00700
H 	H 	0.72180 0.31580 0.04830 0.17700
H 	H 	0.75720 0.27160 0.10290 -0.10400
O 	O 	0.78200 0.26000 0.02300 0.52100
H 	H 	0.77940 0.24380 0.04660 -0.12000
H 	H 	0.71750 0.26340 0.02120 -0.37900
H 	H 	0.73330 0.23640 0.98650 -0.74000
N 	N 	0.96177 0.76927 0.38610 -0.28400
N 	N 	0.85999 0.80592 0.38172 -0.29200
C 	C 	0.97688 0.79890 0.35506 0.08400
H 	H 	0.95790 0.81740 0.33570 -0.01500
H 	H 	0.97340 0.71570 0.45960 0.07700
H 	H 	0.97320 0.66150 0.39930 0.01800
C 	C 	0.88357 0.85072 0.38964 -0.03400
H 	H 	0.91580 0.85530 0.39360 0.01500
H 	H 	0.75440 0.79210 0.38830 0.09000
C 	C 	0.97664 0.81650 0.38499 -0.04300
H 	H 	0.95720 0.84290 0.38430 0.02400
H 	H 	0.02650 0.68340 0.37280 0.06700
H 	H 	0.02680 0.68690 0.45330 0.03500
H 	H 	0.76240 0.80030 0.30920 0.07400
C 	C 	0.86696 0.83371 0.34291 -0.00200
H 	H 	0.89070 0.83000 0.32050 0.00900
H 	H 	0.77820 0.81580 0.45170 0.17800
H 	H 	0.74280 0.77160 0.39710 -0.09200
O 	O 	0.71800 0.76000 0.47700 0.47600
H 	H 	0.72060 0.74380 0.45340 -0.10700
H 	H 	0.78250 0.76340 0.47880 -0.38600
H 	H 	0.76670 0.73640 0.51350 -0.72400
N 	N 	0.46177 0.26927 0.88610 -0.28900
N 	N 	0.35999 0.30592 0.88172 -0.29300
C 	C 	0.47688 0.29890 0.85506 0.06500
H 	H 	0.45790 0.31740 0.83570 -0.01100
H 	H 	0.47340 0.21570 0.95960 0.06500
H 	H 	0.47320 0.16150 0.89930 0.00200
C 	C 	0.38357 0.35072 0.88964 -0.03500
H 	H 	0.41580 0.35530 0.89360 0.01200
H 	H 	0.25440 0.29210 0.88830 0.09300
C 	C 	0.47664 0.31650 0.88499 -0.06800
H 	H 	0.45720 0.34290 0.88430 0.02800
H 	H 	0.52650 0.18340 0.87280 0.05700
H 	H 	0.52680 0.18690 0.95330 0.03400
H 	H 	0.26240 0.30030 0.80920 0.08400
C 	C 	0.36696 0.33371 0.84291 -0.00400
H 	H 	0.39070 0.33000 0.82050 0.00700
H 	H 	0.27820 0.31580 0.95170 0.18500
H 	H 	0.24280 0.27160 0.89710 -0.10400
O 	O 	0.21800 0.26000 0.97700 0.55400
H 	H 	0.22060 0.24380 0.95340 -0.13000
H 	H 	0.28250 0.26340 0.97880 -0.36900
H 	H 	0.26670 0.23640 0.01350 -0.75100
N 	N 	0.96177 0.23073 0.61390 -0.28400
N 	N 	0.85999 0.19408 0.61828 -0.29200
C 	C 	0.97688 0.20110 0.64494 0.08400
H 	H 	0.95790 0.18260 0.66430 -0.01600
H 	H 	0.97340 0.28430 0.54040 0.07700
H 	H 	0.97320 0.33850 0.60070 0.01800
C 	C 	0.88357 0.14928 0.61036 -0.03600
H 	H 	0.91580 0.14470 0.60640 0.01300
H 	H 	0.75440 0.20790 0.61170 0.09100
C 	C 	0.97664 0.18350 0.61501 -0.04400
H 	H 	0.95720 0.15710 0.61570 0.02200
H 	H 	0.02650 0.31660 0.62720 0.06700
H 	H 	0.02680 0.31310 0.54670 0.03500
H 	H 	0.76240 0.19970 0.69080 0.07300
C 	C 	0.86696 0.16629 0.65709 -0.00200
H 	H 	0.89070 0.17000 0.67950 0.00800
H 	H 	0.77820 0.18420 0.54830 0.17800
H 	H 	0.74280 0.22840 0.60290 -0.09200
O 	O 	0.71800 0.24000 0.52300 0.47600
H 	H 	0.72060 0.25620 0.54660 -0.10700
H 	H 	0.78250 0.23660 0.52120 -0.38600
H 	H 	0.76670 0.26360 0.48650 -0.72400
N 	N 	0.46177 0.73073 0.11390 -0.28800
N 	N 	0.35999 0.69408 0.11828 -0.29200
C 	C 	0.47688 0.70110 0.14494 0.06700
H 	H 	0.45790 0.68260 0.16430 -0.01200
H 	H 	0.47340 0.78430 0.04040 0.05200
H 	H 	0.47320 0.83850 0.10070 0.00400
C 	C 	0.38357 0.64928 0.11036 -0.03500
H 	H 	0.41580 0.64470 0.10640 0.01100
H 	H 	0.25440 0.70790 0.11170 0.09200
C 	C 	0.47664 0.68350 0.11501 -0.07000
H 	H 	0.45720 0.65710 0.11570 0.02700
H 	H 	0.52650 0.81660 0.12720 0.05700
H 	H 	0.52680 0.81310 0.04670 0.02900
H 	H 	0.26240 0.69970 0.19080 0.08500
C 	C 	0.36696 0.66629 0.15709 -0.00300
H 	H 	0.39070 0.67000 0.17950 0.00700
H 	H 	0.27820 0.68420 0.04830 0.17700
H 	H 	0.24280 0.72840 0.10290 -0.10400
O 	O 	0.21800 0.74000 0.02300 0.52100
H 	H 	0.22060 0.75620 0.04660 -0.12100
H 	H 	0.28250 0.73660 0.02120 -0.37900
H 	H 	0.26670 0.76360 0.98650 -0.74000
N 	N 	0.38610 0.03823 0.23073 -0.28300
N 	N 	0.38172 0.14001 0.19408 -0.29200
C 	C 	0.35506 0.02312 0.20110 0.04400
H 	H 	0.33570 0.04210 0.18260 -0.01000
H 	H 	0.45960 0.02660 0.28430 0.06400
H 	H 	0.39930 0.02680 0.33850 0.00300
C 	C 	0.38964 0.11643 0.14928 -0.03500
H 	H 	0.39360 0.08420 0.14470 0.00800
H 	H 	0.38830 0.24560 0.20790 0.09100
C 	C 	0.38499 0.02336 0.18350 -0.09000
H 	H 	0.38430 0.04280 0.15710 0.03000
H 	H 	0.37280 0.97350 0.31660 0.08100
H 	H 	0.45330 0.97320 0.31310 0.04800
H 	H 	0.30920 0.23760 0.19970 0.07100
C 	C 	0.34291 0.13304 0.16629 -0.00300
H 	H 	0.32050 0.10930 0.17000 0.00400
H 	H 	0.45170 0.22180 0.18420 0.17800
H 	H 	0.39710 0.25720 0.22840 -0.09200
O 	O 	0.47700 0.28200 0.24000 0.47600
H 	H 	0.45340 0.27940 0.25620 -0.10700
H 	H 	0.47880 0.21750 0.23660 -0.38600
H 	H 	0.51350 0.23330 0.26360 -0.72400
N 	N 	0.88610 0.53823 0.73073 -0.28900
N 	N 	0.88172 0.64001 0.69408 -0.29300
C 	C 	0.85506 0.52312 0.70110 0.06500
H 	H 	0.83570 0.54210 0.68260 -0.01100
H 	H 	0.95960 0.52660 0.78430 0.06300
H 	H 	0.89930 0.52680 0.83850 0.00400
C 	C 	0.88964 0.61643 0.64928 -0.03500
H 	H 	0.89360 0.58420 0.64470 0.01200
H 	H 	0.88830 0.74560 0.70790 0.09200
C 	C 	0.88499 0.52336 0.68350 -0.06800
H 	H 	0.88430 0.54280 0.65710 0.02800
H 	H 	0.87280 0.47350 0.81660 0.05600
H 	H 	0.95330 0.47320 0.81310 0.03600
H 	H 	0.80920 0.73760 0.69970 0.08300
C 	C 	0.84291 0.63304 0.66629 -0.00400
H 	H 	0.82050 0.60930 0.67000 0.00700
H 	H 	0.95170 0.72180 0.68420 0.18500
H 	H 	0.89710 0.75720 0.72840 -0.10200
O 	O 	0.97700 0.78200 0.74000 0.55400
H 	H 	0.95340 0.77940 0.75620 -0.12700
H 	H 	0.97880 0.71750 0.73660 -0.37000
H 	H 	0.01350 0.73330 0.76360 -0.75200
N 	N 	0.61390 0.03823 0.76927 -0.28300
N 	N 	0.61828 0.14001 0.80592 -0.29200
C 	C 	0.64494 0.02312 0.79890 0.04400
H 	H 	0.66430 0.04210 0.81740 -0.00800
H 	H 	0.54040 0.02660 0.71570 0.06400
H 	H 	0.60070 0.02680 0.66150 0.00300
C 	C 	0.61036 0.11643 0.85072 -0.03300
H 	H 	0.60640 0.08420 0.85530 0.01000
H 	H 	0.61170 0.24560 0.79210 0.09100
C 	C 	0.61501 0.02336 0.81650 -0.09000
H 	H 	0.61570 0.04280 0.84290 0.03200
H 	H 	0.62720 0.97350 0.68340 0.08200
H 	H 	0.54670 0.97320 0.68690 0.04800
H 	H 	0.69080 0.23760 0.80030 0.07300
C 	C 	0.65709 0.13304 0.83371 -0.00300
H 	H 	0.67950 0.10930 0.83000 0.00700
H 	H 	0.54830 0.22180 0.81580 0.17800
H 	H 	0.60290 0.25720 0.77160 -0.09200
O 	O 	0.52300 0.28200 0.76000 0.47600
H 	H 	0.54660 0.27940 0.74380 -0.10700
H 	H 	0.52120 0.21750 0.76340 -0.38600
H 	H 	0.48650 0.23330 0.73640 -0.72400
N 	N 	0.11390 0.53823 0.26927 -0.28800
N 	N 	0.11828 0.64001 0.30592 -0.29200
C 	C 	0.14494 0.52312 0.29890 0.06700
H 	H 	0.16430 0.54210 0.31740 -0.01200
H 	H 	0.04040 0.52660 0.21570 0.05300
H 	H 	0.10070 0.52680 0.16150 0.00100
C 	C 	0.11036 0.61643 0.35072 -0.03500
H 	H 	0.10640 0.58420 0.35530 0.01100
H 	H 	0.11170 0.74560 0.29210 0.09200
C 	C 	0.11501 0.52336 0.31650 -0.07000
H 	H 	0.11570 0.54280 0.34290 0.02700
H 	H 	0.12720 0.47350 0.18340 0.05800
H 	H 	0.04670 0.47320 0.18690 0.02600
H 	H 	0.19080 0.73760 0.30030 0.08400
C 	C 	0.15709 0.63304 0.33371 -0.00300
H 	H 	0.17950 0.60930 0.33000 0.00700
H 	H 	0.04830 0.72180 0.31580 0.17700
H 	H 	0.10290 0.75720 0.27160 -0.10400
O 	O 	0.02300 0.78200 0.26000 0.52100
H 	H 	0.04660 0.77940 0.24380 -0.12000
H 	H 	0.02120 0.71750 0.26340 -0.37900
H 	H 	0.98650 0.73330 0.23640 -0.74000
N 	N 	0.38610 0.96177 0.76927 -0.28400
N 	N 	0.38172 0.85999 0.80592 -0.29200
C 	C 	0.35506 0.97688 0.79890 0.08400
H 	H 	0.33570 0.95790 0.81740 -0.01500
H 	H 	0.45960 0.97340 0.71570 0.07700
H 	H 	0.39930 0.97320 0.66150 0.01800
C 	C 	0.38964 0.88357 0.85072 -0.03400
H 	H 	0.39360 0.91580 0.85530 0.01500
H 	H 	0.38830 0.75440 0.79210 0.09000
C 	C 	0.38499 0.97664 0.81650 -0.04300
H 	H 	0.38430 0.95720 0.84290 0.02400
H 	H 	0.37280 0.02650 0.68340 0.06700
H 	H 	0.45330 0.02680 0.68690 0.03500
H 	H 	0.30920 0.76240 0.80030 0.07400
C 	C 	0.34291 0.86696 0.83371 -0.00200
H 	H 	0.32050 0.89070 0.83000 0.00900
H 	H 	0.45170 0.77820 0.81580 0.17800
H 	H 	0.39710 0.74280 0.77160 -0.09200
O 	O 	0.47700 0.71800 0.76000 0.47600
H 	H 	0.45340 0.72060 0.74380 -0.10700
H 	H 	0.47880 0.78250 0.76340 -0.38600
H 	H 	0.51350 0.76670 0.73640 -0.72400
N 	N 	0.88610 0.46177 0.26927 -0.28900
N 	N 	0.88172 0.35999 0.30592 -0.29300
C 	C 	0.85506 0.47688 0.29890 0.06500
H 	H 	0.83570 0.45790 0.31740 -0.01100
H 	H 	0.95960 0.47340 0.21570 0.06500
H 	H 	0.89930 0.47320 0.16150 0.00200
C 	C 	0.88964 0.38357 0.35072 -0.03500
H 	H 	0.89360 0.41580 0.35530 0.01200
H 	H 	0.88830 0.25440 0.29210 0.09300
C 	C 	0.88499 0.47664 0.31650 -0.06800
H 	H 	0.88430 0.45720 0.34290 0.02800
H 	H 	0.87280 0.52650 0.18340 0.05700
H 	H 	0.95330 0.52680 0.18690 0.03400
H 	H 	0.80920 0.26240 0.30030 0.08400
C 	C 	0.84291 0.36696 0.33371 -0.00400
H 	H 	0.82050 0.39070 0.33000 0.00700
H 	H 	0.95170 0.27820 0.31580 0.18500
H 	H 	0.89710 0.24280 0.27160 -0.10400
O 	O 	0.97700 0.21800 0.26000 0.55400
H 	H 	0.95340 0.22060 0.24380 -0.13000
H 	H 	0.97880 0.28250 0.26340 -0.36900
H 	H 	0.01350 0.26670 0.23640 -0.75100
N 	N 	0.61390 0.96177 0.23073 -0.28400
N 	N 	0.61828 0.85999 0.19408 -0.29200
C 	C 	0.64494 0.97688 0.20110 0.08400
H 	H 	0.66430 0.95790 0.18260 -0.01600
H 	H 	0.54040 0.97340 0.28430 0.07700
H 	H 	0.60070 0.97320 0.33850 0.01800
C 	C 	0.61036 0.88357 0.14928 -0.03600
H 	H 	0.60640 0.91580 0.14470 0.01300
H 	H 	0.61170 0.75440 0.20790 0.09100
C 	C 	0.61501 0.97664 0.18350 -0.04400
H 	H 	0.61570 0.95720 0.15710 0.02200
H 	H 	0.62720 0.02650 0.31660 0.06700
H 	H 	0.54670 0.02680 0.31310 0.03500
H 	H 	0.69080 0.76240 0.19970 0.07300
C 	C 	0.65709 0.86696 0.16629 -0.00200
H 	H 	0.67950 0.89070 0.17000 0.00800
H 	H 	0.54830 0.77820 0.18420 0.17800
H 	H 	0.60290 0.74280 0.22840 -0.09200
O 	O 	0.52300 0.71800 0.24000 0.47600
H 	H 	0.54660 0.72060 0.25620 -0.10700
H 	H 	0.52120 0.78250 0.23660 -0.38600
H 	H 	0.48650 0.76670 0.26360 -0.72400
N 	N 	0.11390 0.46177 0.73073 -0.28800
N 	N 	0.11828 0.35999 0.69408 -0.29200
C 	C 	0.14494 0.47688 0.70110 0.06700
H 	H 	0.16430 0.45790 0.68260 -0.01200
H 	H 	0.04040 0.47340 0.78430 0.05200
H 	H 	0.10070 0.47320 0.83850 0.00400
C 	C 	0.11036 0.38357 0.64928 -0.03500
H 	H 	0.10640 0.41580 0.64470 0.01100
H 	H 	0.11170 0.25440 0.70790 0.09200
C 	C 	0.11501 0.47664 0.68350 -0.07000
H 	H 	0.11570 0.45720 0.65710 0.02700
H 	H 	0.12720 0.52650 0.81660 0.05700
H 	H 	0.04670 0.52680 0.81310 0.02900
H 	H 	0.19080 0.26240 0.69970 0.08500
C 	C 	0.15709 0.36696 0.66629 -0.00300
H 	H 	0.17950 0.39070 0.67000 0.00700
H 	H 	0.04830 0.27820 0.68420 0.17700
H 	H 	0.10290 0.24280 0.72840 -0.10400
O 	O 	0.02300 0.21800 0.74000 0.52100
H 	H 	0.04660 0.22060 0.75620 -0.12100
H 	H 	0.02120 0.28250 0.73660 -0.37900
H 	H 	0.98650 0.26670 0.76360 -0.74000
N 	N 	0.38610 0.23073 0.96177 -0.28400
N 	N 	0.38172 0.19408 0.85999 -0.29200
C 	C 	0.35506 0.20110 0.97688 0.08400
H 	H 	0.33570 0.18260 0.95790 -0.01600
H 	H 	0.45960 0.28430 0.97340 0.07700
H 	H 	0.39930 0.33850 0.97320 0.01800
C 	C 	0.38964 0.14928 0.88357 -0.03600
H 	H 	0.39360 0.14470 0.91580 0.01300
H 	H 	0.38830 0.20790 0.75440 0.09100
C 	C 	0.38499 0.18350 0.97664 -0.04400
H 	H 	0.38430 0.15710 0.95720 0.02200
H 	H 	0.37280 0.31660 0.02650 0.06700
H 	H 	0.45330 0.31310 0.02680 0.03500
H 	H 	0.30920 0.19970 0.76240 0.07200
C 	C 	0.34291 0.16629 0.86696 -0.00200
H 	H 	0.32050 0.17000 0.89070 0.00700
H 	H 	0.45170 0.18420 0.77820 0.17800
H 	H 	0.39710 0.22840 0.74280 -0.09200
O 	O 	0.47700 0.24000 0.71800 0.47600
H 	H 	0.45340 0.25620 0.72060 -0.10700
H 	H 	0.47880 0.23660 0.78250 -0.38600
H 	H 	0.51350 0.26360 0.76670 -0.72400
N 	N 	0.88610 0.73073 0.46177 -0.28900
N 	N 	0.88172 0.69408 0.35999 -0.29300
C 	C 	0.85506 0.70110 0.47688 0.06500
H 	H 	0.83570 0.68260 0.45790 -0.01100
H 	H 	0.95960 0.78430 0.47340 0.06300
H 	H 	0.89930 0.83850 0.47320 0.00400
C 	C 	0.88964 0.64928 0.38357 -0.03500
H 	H 	0.89360 0.64470 0.41580 0.01200
H 	H 	0.88830 0.70790 0.25440 0.09200
C 	C 	0.88499 0.68350 0.47664 -0.06800
H 	H 	0.88430 0.65710 0.45720 0.02800
H 	H 	0.87280 0.81660 0.52650 0.05600
H 	H 	0.95330 0.81310 0.52680 0.03600
H 	H 	0.80920 0.69970 0.26240 0.08400
C 	C 	0.84291 0.66629 0.36696 -0.00400
H 	H 	0.82050 0.67000 0.39070 0.00700
H 	H 	0.95170 0.68420 0.27820 0.18500
H 	H 	0.89710 0.72840 0.24280 -0.10300
O 	O 	0.97700 0.74000 0.21800 0.55400
H 	H 	0.95340 0.75620 0.22060 -0.12800
H 	H 	0.97880 0.73660 0.28250 -0.37000
H 	H 	0.01350 0.76360 0.26670 -0.75100
N 	N 	0.61390 0.76927 0.96177 -0.28400
N 	N 	0.61828 0.80592 0.85999 -0.29200
C 	C 	0.64494 0.79890 0.97688 0.08400
H 	H 	0.66430 0.81740 0.95790 -0.01400
H 	H 	0.54040 0.71570 0.97340 0.07700
H 	H 	0.60070 0.66150 0.97320 0.01800
C 	C 	0.61036 0.85072 0.88357 -0.03400
H 	H 	0.60640 0.85530 0.91580 0.01500
H 	H 	0.61170 0.79210 0.75440 0.09000
C 	C 	0.61501 0.81650 0.97664 -0.04300
H 	H 	0.61570 0.84290 0.95720 0.02400
H 	H 	0.62720 0.68340 0.02650 0.06700
H 	H 	0.54670 0.68690 0.02680 0.03500
H 	H 	0.69080 0.80030 0.76240 0.07400
C 	C 	0.65709 0.83371 0.86696 -0.00200
H 	H 	0.67950 0.83000 0.89070 0.01000
H 	H 	0.54830 0.81580 0.77820 0.17800
H 	H 	0.60290 0.77160 0.74280 -0.09200
O 	O 	0.52300 0.76000 0.71800 0.47600
H 	H 	0.54660 0.74380 0.72060 -0.10700
H 	H 	0.52120 0.76340 0.78250 -0.38600
H 	H 	0.48650 0.73640 0.76670 -0.72400
N 	N 	0.11390 0.26927 0.46177 -0.28800
N 	N 	0.11828 0.30592 0.35999 -0.29200
C 	C 	0.14494 0.29890 0.47688 0.06700
H 	H 	0.16430 0.31740 0.45790 -0.01200
H 	H 	0.04040 0.21570 0.47340 0.05300
H 	H 	0.10070 0.16150 0.47320 0.00100
C 	C 	0.11036 0.35072 0.38357 -0.03500
H 	H 	0.10640 0.35530 0.41580 0.01100
H 	H 	0.11170 0.29210 0.25440 0.09300
C 	C 	0.11501 0.31650 0.47664 -0.07000
H 	H 	0.11570 0.34290 0.45720 0.02700
H 	H 	0.12720 0.18340 0.52650 0.05800
H 	H 	0.04670 0.18690 0.52680 0.02600
H 	H 	0.19080 0.30030 0.26240 0.08500
C 	C 	0.15709 0.33371 0.36696 -0.00300
H 	H 	0.17950 0.33000 0.39070 0.00700
H 	H 	0.04830 0.31580 0.27820 0.17700
H 	H 	0.10290 0.27160 0.24280 -0.10500
O 	O 	0.02300 0.26000 0.21800 0.52200
H 	H 	0.04660 0.24380 0.22060 -0.12200
H 	H 	0.02120 0.26340 0.28250 -0.37900
H 	H 	0.98650 0.23640 0.26670 -0.74000
N 	N 	0.38610 0.76927 0.03823 -0.28300
N 	N 	0.38172 0.80592 0.14001 -0.29200
C 	C 	0.35506 0.79890 0.02312 0.04400
H 	H 	0.33570 0.81740 0.04210 -0.00800
H 	H 	0.45960 0.71570 0.02660 0.06400
H 	H 	0.39930 0.66150 0.02680 0.00300
C 	C 	0.38964 0.85072 0.11643 -0.03300
H 	H 	0.39360 0.85530 0.08420 0.00900
H 	H 	0.38830 0.79210 0.24560 0.09100
C 	C 	0.38499 0.81650 0.02336 -0.09000
H 	H 	0.38430 0.84290 0.04280 0.03200
H 	H 	0.37280 0.68340 0.97350 0.08200
H 	H 	0.45330 0.68690 0.97320 0.04800
H 	H 	0.30920 0.80030 0.23760 0.07300
C 	C 	0.34291 0.83371 0.13304 -0.00300
H 	H 	0.32050 0.83000 0.10930 0.00600
H 	H 	0.45170 0.81580 0.22180 0.17800
H 	H 	0.39710 0.77160 0.25720 -0.09200
O 	O 	0.47700 0.76000 0.28200 0.47600
H 	H 	0.45340 0.74380 0.27940 -0.10700
H 	H 	0.47880 0.76340 0.21750 -0.38600
H 	H 	0.51350 0.73640 0.23330 -0.72400
N 	N 	0.88610 0.26927 0.53823 -0.28900
N 	N 	0.88172 0.30592 0.64001 -0.29300
C 	C 	0.85506 0.29890 0.52312 0.06500
H 	H 	0.83570 0.31740 0.54210 -0.01100
H 	H 	0.95960 0.21570 0.52660 0.06500
H 	H 	0.89930 0.16150 0.52680 0.00200
C 	C 	0.88964 0.35072 0.61643 -0.03500
H 	H 	0.89360 0.35530 0.58420 0.01200
H 	H 	0.88830 0.29210 0.74560 0.09200
C 	C 	0.88499 0.31650 0.52336 -0.06800
H 	H 	0.88430 0.34290 0.54280 0.02800
H 	H 	0.87280 0.18340 0.47350 0.05700
H 	H 	0.95330 0.18690 0.47320 0.03400
H 	H 	0.80920 0.30030 0.73760 0.08300
C 	C 	0.84291 0.33371 0.63304 -0.00400
H 	H 	0.82050 0.33000 0.60930 0.00700
H 	H 	0.95170 0.31580 0.72180 0.18500
H 	H 	0.89710 0.27160 0.75720 -0.10300
O 	O 	0.97700 0.26000 0.78200 0.55400
H 	H 	0.95340 0.24380 0.77940 -0.12800
H 	H 	0.97880 0.26340 0.71750 -0.37000
H 	H 	0.01350 0.23640 0.73330 -0.75100
N 	N 	0.61390 0.23073 0.03823 -0.28300
N 	N 	0.61828 0.19408 0.14001 -0.29200
C 	C 	0.64494 0.20110 0.02312 0.04400
H 	H 	0.66430 0.18260 0.04210 -0.00900
H 	H 	0.54040 0.28430 0.02660 0.06400
H 	H 	0.60070 0.33850 0.02680 0.00300
C 	C 	0.61036 0.14928 0.11643 -0.03500
H 	H 	0.60640 0.14470 0.08420 0.00800
H 	H 	0.61170 0.20790 0.24560 0.09100
C 	C 	0.61501 0.18350 0.02336 -0.09000
H 	H 	0.61570 0.15710 0.04280 0.03000
H 	H 	0.62720 0.31660 0.97350 0.08100
H 	H 	0.54670 0.31310 0.97320 0.04800
H 	H 	0.69080 0.19970 0.23760 0.07100
C 	C 	0.65709 0.16629 0.13304 -0.00300
H 	H 	0.67950 0.17000 0.10930 0.00500
H 	H 	0.54830 0.18420 0.22180 0.17800
H 	H 	0.60290 0.22840 0.25720 -0.09200
O 	O 	0.52300 0.24000 0.28200 0.47600
H 	H 	0.54660 0.25620 0.27940 -0.10700
H 	H 	0.52120 0.23660 0.21750 -0.38600
H 	H 	0.48650 0.26360 0.23330 -0.72400
N 	N 	0.11390 0.73073 0.53823 -0.28800
N 	N 	0.11828 0.69408 0.64001 -0.29200
C 	C 	0.14494 0.70110 0.52312 0.06700
H 	H 	0.16430 0.68260 0.54210 -0.01200
H 	H 	0.04040 0.78430 0.52660 0.05200
H 	H 	0.10070 0.83850 0.52680 0.00400
C 	C 	0.11036 0.64928 0.61643 -0.03500
H 	H 	0.10640 0.64470 0.58420 0.01100
H 	H 	0.11170 0.70790 0.74560 0.09200
C 	C 	0.11501 0.68350 0.52336 -0.07000
H 	H 	0.11570 0.65710 0.54280 0.02700
H 	H 	0.12720 0.81660 0.47350 0.05700
H 	H 	0.04670 0.81310 0.47320 0.02900
H 	H 	0.19080 0.69970 0.73760 0.08400
C 	C 	0.15709 0.66629 0.63304 -0.00300
H 	H 	0.17950 0.67000 0.60930 0.00700
H 	H 	0.04830 0.68420 0.72180 0.17700
H 	H 	0.10290 0.72840 0.75720 -0.10300
O 	O 	0.02300 0.74000 0.78200 0.52100
H 	H 	0.04660 0.75620 0.77940 -0.11900
H 	H 	0.02120 0.73660 0.71750 -0.37900
H 	H 	0.98650 0.76360 0.73330 -0.74100
N 	N 	0.23073 0.03823 0.61390 -0.28300
N 	N 	0.19408 0.14001 0.61828 -0.29200
C 	C 	0.20110 0.02312 0.64494 0.04400
H 	H 	0.18260 0.04210 0.66430 -0.00900
H 	H 	0.28430 0.02660 0.54040 0.06400
H 	H 	0.33850 0.02680 0.60070 0.00300
C 	C 	0.14928 0.11643 0.61036 -0.03500
H 	H 	0.14470 0.08420 0.60640 0.00800
H 	H 	0.20790 0.24560 0.61170 0.09100
C 	C 	0.18350 0.02336 0.61501 -0.09000
H 	H 	0.15710 0.04280 0.61570 0.03000
H 	H 	0.31660 0.97350 0.62720 0.08100
H 	H 	0.31310 0.97320 0.54670 0.04800
H 	H 	0.19970 0.23760 0.69080 0.07100
C 	C 	0.16629 0.13304 0.65709 -0.00300
H 	H 	0.17000 0.10930 0.67950 0.00500
H 	H 	0.18420 0.22180 0.54830 0.17800
H 	H 	0.22840 0.25720 0.60290 -0.09200
O 	O 	0.24000 0.28200 0.52300 0.47600
H 	H 	0.25620 0.27940 0.54660 -0.10700
H 	H 	0.23660 0.21750 0.52120 -0.38600
H 	H 	0.26360 0.23330 0.48650 -0.72400
N 	N 	0.73073 0.53823 0.11390 -0.28800
N 	N 	0.69408 0.64001 0.11828 -0.29200
C 	C 	0.70110 0.52312 0.14494 0.06700
H 	H 	0.68260 0.54210 0.16430 -0.01200
H 	H 	0.78430 0.52660 0.04040 0.05200
H 	H 	0.83850 0.52680 0.10070 0.00400
C 	C 	0.64928 0.61643 0.11036 -0.03500
H 	H 	0.64470 0.58420 0.10640 0.01100
H 	H 	0.70790 0.74560 0.11170 0.09200
C 	C 	0.68350 0.52336 0.11501 -0.07000
H 	H 	0.65710 0.54280 0.11570 0.02700
H 	H 	0.81660 0.47350 0.12720 0.05700
H 	H 	0.81310 0.47320 0.04670 0.02900
H 	H 	0.69970 0.73760 0.19080 0.08400
C 	C 	0.66629 0.63304 0.15709 -0.00300
H 	H 	0.67000 0.60930 0.17950 0.00700
H 	H 	0.68420 0.72180 0.04830 0.17700
H 	H 	0.72840 0.75720 0.10290 -0.10300
O 	O 	0.74000 0.78200 0.02300 0.52100
H 	H 	0.75620 0.77940 0.04660 -0.11900
H 	H 	0.73660 0.71750 0.02120 -0.37900
H 	H 	0.76360 0.73330 0.98650 -0.74100
N 	N 	0.76927 0.03823 0.38610 -0.28300
N 	N 	0.80592 0.14001 0.38172 -0.29200
C 	C 	0.79890 0.02312 0.35506 0.04400
H 	H 	0.81740 0.04210 0.33570 -0.00800
H 	H 	0.71570 0.02660 0.45960 0.06400
H 	H 	0.66150 0.02680 0.39930 0.00300
C 	C 	0.85072 0.11643 0.38964 -0.03300
H 	H 	0.85530 0.08420 0.39360 0.00900
H 	H 	0.79210 0.24560 0.38830 0.09100
C 	C 	0.81650 0.02336 0.38499 -0.09000
H 	H 	0.84290 0.04280 0.38430 0.03200
H 	H 	0.68340 0.97350 0.37280 0.08200
H 	H 	0.68690 0.97320 0.45330 0.04800
H 	H 	0.80030 0.23760 0.30920 0.07300
C 	C 	0.83371 0.13304 0.34291 -0.00300
H 	H 	0.83000 0.10930 0.32050 0.00600
H 	H 	0.81580 0.22180 0.45170 0.17800
H 	H 	0.77160 0.25720 0.39710 -0.09200
O 	O 	0.76000 0.28200 0.47700 0.47600
H 	H 	0.74380 0.27940 0.45340 -0.10700
H 	H 	0.76340 0.21750 0.47880 -0.38600
H 	H 	0.73640 0.23330 0.51350 -0.72400
N 	N 	0.26927 0.53823 0.88610 -0.28900
N 	N 	0.30592 0.64001 0.88172 -0.29300
C 	C 	0.29890 0.52312 0.85506 0.06500
H 	H 	0.31740 0.54210 0.83570 -0.01100
H 	H 	0.21570 0.52660 0.95960 0.06500
H 	H 	0.16150 0.52680 0.89930 0.00200
C 	C 	0.35072 0.61643 0.88964 -0.03500
H 	H 	0.35530 0.58420 0.89360 0.01200
H 	H 	0.29210 0.74560 0.88830 0.09200
C 	C 	0.31650 0.52336 0.88499 -0.06800
H 	H 	0.34290 0.54280 0.88430 0.02800
H 	H 	0.18340 0.47350 0.87280 0.05700
H 	H 	0.18690 0.47320 0.95330 0.03400
H 	H 	0.30030 0.73760 0.80920 0.08300
C 	C 	0.33371 0.63304 0.84291 -0.00400
H 	H 	0.33000 0.60930 0.82050 0.00700
H 	H 	0.31580 0.72180 0.95170 0.18500
H 	H 	0.27160 0.75720 0.89710 -0.10300
O 	O 	0.26000 0.78200 0.97700 0.55400
H 	H 	0.24380 0.77940 0.95340 -0.12800
H 	H 	0.26340 0.71750 0.97880 -0.37000
H 	H 	0.23640 0.73330 0.01350 -0.75100
N 	N 	0.76927 0.96177 0.61390 -0.28400
N 	N 	0.80592 0.85999 0.61828 -0.29200
C 	C 	0.79890 0.97688 0.64494 0.08400
H 	H 	0.81740 0.95790 0.66430 -0.01400
H 	H 	0.71570 0.97340 0.54040 0.07700
H 	H 	0.66150 0.97320 0.60070 0.01800
C 	C 	0.85072 0.88357 0.61036 -0.03400
H 	H 	0.85530 0.91580 0.60640 0.01500
H 	H 	0.79210 0.75440 0.61170 0.09000
C 	C 	0.81650 0.97664 0.61501 -0.04300
H 	H 	0.84290 0.95720 0.61570 0.02400
H 	H 	0.68340 0.02650 0.62720 0.06700
H 	H 	0.68690 0.02680 0.54670 0.03500
H 	H 	0.80030 0.76240 0.69080 0.07400
C 	C 	0.83371 0.86696 0.65709 -0.00200
H 	H 	0.83000 0.89070 0.67950 0.01000
H 	H 	0.81580 0.77820 0.54830 0.17800
H 	H 	0.77160 0.74280 0.60290 -0.09200
O 	O 	0.76000 0.71800 0.52300 0.47600
H 	H 	0.74380 0.72060 0.54660 -0.10700
H 	H 	0.76340 0.78250 0.52120 -0.38600
H 	H 	0.73640 0.76670 0.48650 -0.72400
N 	N 	0.26927 0.46177 0.11390 -0.28800
N 	N 	0.30592 0.35999 0.11828 -0.29200
C 	C 	0.29890 0.47688 0.14494 0.06700
H 	H 	0.31740 0.45790 0.16430 -0.01200
H 	H 	0.21570 0.47340 0.04040 0.05300
H 	H 	0.16150 0.47320 0.10070 0.00100
C 	C 	0.35072 0.38357 0.11036 -0.03500
H 	H 	0.35530 0.41580 0.10640 0.01100
H 	H 	0.29210 0.25440 0.11170 0.09300
C 	C 	0.31650 0.47664 0.11501 -0.07000
H 	H 	0.34290 0.45720 0.11570 0.02700
H 	H 	0.18340 0.52650 0.12720 0.05800
H 	H 	0.18690 0.52680 0.04670 0.02600
H 	H 	0.30030 0.26240 0.19080 0.08500
C 	C 	0.33371 0.36696 0.15709 -0.00300
H 	H 	0.33000 0.39070 0.17950 0.00700
H 	H 	0.31580 0.27820 0.04830 0.17700
H 	H 	0.27160 0.24280 0.10290 -0.10500
O 	O 	0.26000 0.21800 0.02300 0.52200
H 	H 	0.24380 0.22060 0.04660 -0.12200
H 	H 	0.26340 0.28250 0.02120 -0.37900
H 	H 	0.23640 0.26670 0.98650 -0.74000
N 	N 	0.23073 0.96177 0.38610 -0.28400
N 	N 	0.19408 0.85999 0.38172 -0.29200
C 	C 	0.20110 0.97688 0.35506 0.08400
H 	H 	0.18260 0.95790 0.33570 -0.01600
H 	H 	0.28430 0.97340 0.45960 0.07700
H 	H 	0.33850 0.97320 0.39930 0.01800
C 	C 	0.14928 0.88357 0.38964 -0.03600
H 	H 	0.14470 0.91580 0.39360 0.01300
H 	H 	0.20790 0.75440 0.38830 0.09100
C 	C 	0.18350 0.97664 0.38499 -0.04400
H 	H 	0.15710 0.95720 0.38430 0.02200
H 	H 	0.31660 0.02650 0.37280 0.06700
H 	H 	0.31310 0.02680 0.45330 0.03500
H 	H 	0.19970 0.76240 0.30920 0.07200
C 	C 	0.16629 0.86696 0.34291 -0.00200
H 	H 	0.17000 0.89070 0.32050 0.00700
H 	H 	0.18420 0.77820 0.45170 0.17800
H 	H 	0.22840 0.74280 0.39710 -0.09200
O 	O 	0.24000 0.71800 0.47700 0.47600
H 	H 	0.25620 0.72060 0.45340 -0.10700
H 	H 	0.23660 0.78250 0.47880 -0.38600
H 	H 	0.26360 0.76670 0.51350 -0.72400
N 	N 	0.73073 0.46177 0.88610 -0.28900
N 	N 	0.69408 0.35999 0.88172 -0.29300
C 	C 	0.70110 0.47688 0.85506 0.06500
H 	H 	0.68260 0.45790 0.83570 -0.01100
H 	H 	0.78430 0.47340 0.95960 0.06300
H 	H 	0.83850 0.47320 0.89930 0.00400
C 	C 	0.64928 0.38357 0.88964 -0.03500
H 	H 	0.64470 0.41580 0.89360 0.01200
H 	H 	0.70790 0.25440 0.88830 0.09200
C 	C 	0.68350 0.47664 0.88499 -0.06800
H 	H 	0.65710 0.45720 0.88430 0.02800
H 	H 	0.81660 0.52650 0.87280 0.05600
H 	H 	0.81310 0.52680 0.95330 0.03600
H 	H 	0.69970 0.26240 0.80920 0.08400
C 	C 	0.66629 0.36696 0.84291 -0.00400
H 	H 	0.67000 0.39070 0.82050 0.00700
H 	H 	0.68420 0.27820 0.95170 0.18500
H 	H 	0.72840 0.24280 0.89710 -0.10300
O 	O 	0.74000 0.21800 0.97700 0.55400
H 	H 	0.75620 0.22060 0.95340 -0.12800
H 	H 	0.73660 0.28250 0.97880 -0.37000
H 	H 	0.76360 0.26670 0.01350 -0.75100
N 	N 	0.03823 0.38610 0.76927 -0.28300
N 	N 	0.14001 0.38172 0.80592 -0.29200
C 	C 	0.02312 0.35506 0.79890 0.04400
H 	H 	0.04210 0.33570 0.81740 -0.00800
H 	H 	0.02660 0.45960 0.71570 0.06400
H 	H 	0.02680 0.39930 0.66150 0.00300
C 	C 	0.11643 0.38964 0.85072 -0.03300
H 	H 	0.08420 0.39360 0.85530 0.00900
H 	H 	0.24560 0.38830 0.79210 0.09100
C 	C 	0.02336 0.38499 0.81650 -0.09000
H 	H 	0.04280 0.38430 0.84290 0.03200
H 	H 	0.97350 0.37280 0.68340 0.08200
H 	H 	0.97320 0.45330 0.68690 0.04800
H 	H 	0.23760 0.30920 0.80030 0.07300
C 	C 	0.13304 0.34291 0.83371 -0.00300
H 	H 	0.10930 0.32050 0.83000 0.00600
H 	H 	0.22180 0.45170 0.81580 0.17800
H 	H 	0.25720 0.39710 0.77160 -0.09200
O 	O 	0.28200 0.47700 0.76000 0.47600
H 	H 	0.27940 0.45340 0.74380 -0.10700
H 	H 	0.21750 0.47880 0.76340 -0.38600
H 	H 	0.23330 0.51350 0.73640 -0.72400
N 	N 	0.53823 0.88610 0.26927 -0.28900
N 	N 	0.64001 0.88172 0.30592 -0.29300
C 	C 	0.52312 0.85506 0.29890 0.06500
H 	H 	0.54210 0.83570 0.31740 -0.01100
H 	H 	0.52660 0.95960 0.21570 0.06500
H 	H 	0.52680 0.89930 0.16150 0.00200
C 	C 	0.61643 0.88964 0.35072 -0.03500
H 	H 	0.58420 0.89360 0.35530 0.01200
H 	H 	0.74560 0.88830 0.29210 0.09200
C 	C 	0.52336 0.88499 0.31650 -0.06800
H 	H 	0.54280 0.88430 0.34290 0.02800
H 	H 	0.47350 0.87280 0.18340 0.05700
H 	H 	0.47320 0.95330 0.18690 0.03400
H 	H 	0.73760 0.80920 0.30030 0.08300
C 	C 	0.63304 0.84291 0.33371 -0.00400
H 	H 	0.60930 0.82050 0.33000 0.00700
H 	H 	0.72180 0.95170 0.31580 0.18500
H 	H 	0.75720 0.89710 0.27160 -0.10300
O 	O 	0.78200 0.97700 0.26000 0.55400
H 	H 	0.77940 0.95340 0.24380 -0.12800
H 	H 	0.71750 0.97880 0.26340 -0.37000
H 	H 	0.73330 0.01350 0.23640 -0.75100
N 	N 	0.03823 0.61390 0.23073 -0.28300
N 	N 	0.14001 0.61828 0.19408 -0.29200
C 	C 	0.02312 0.64494 0.20110 0.04400
H 	H 	0.04210 0.66430 0.18260 -0.00900
H 	H 	0.02660 0.54040 0.28430 0.06400
H 	H 	0.02680 0.60070 0.33850 0.00300
C 	C 	0.11643 0.61036 0.14928 -0.03500
H 	H 	0.08420 0.60640 0.14470 0.00800
H 	H 	0.24560 0.61170 0.20790 0.09100
C 	C 	0.02336 0.61501 0.18350 -0.09000
H 	H 	0.04280 0.61570 0.15710 0.03000
H 	H 	0.97350 0.62720 0.31660 0.08100
H 	H 	0.97320 0.54670 0.31310 0.04800
H 	H 	0.23760 0.69080 0.19970 0.07100
C 	C 	0.13304 0.65709 0.16629 -0.00300
H 	H 	0.10930 0.67950 0.17000 0.00500
H 	H 	0.22180 0.54830 0.18420 0.17800
H 	H 	0.25720 0.60290 0.22840 -0.09200
O 	O 	0.28200 0.52300 0.24000 0.47600
H 	H 	0.27940 0.54660 0.25620 -0.10700
H 	H 	0.21750 0.52120 0.23660 -0.38600
H 	H 	0.23330 0.48650 0.26360 -0.72400
N 	N 	0.53823 0.11390 0.73073 -0.28800
N 	N 	0.64001 0.11828 0.69408 -0.29200
C 	C 	0.52312 0.14494 0.70110 0.06700
H 	H 	0.54210 0.16430 0.68260 -0.01200
H 	H 	0.52660 0.04040 0.78430 0.05200
H 	H 	0.52680 0.10070 0.83850 0.00400
C 	C 	0.61643 0.11036 0.64928 -0.03500
H 	H 	0.58420 0.10640 0.64470 0.01100
H 	H 	0.74560 0.11170 0.70790 0.09200
C 	C 	0.52336 0.11501 0.68350 -0.07000
H 	H 	0.54280 0.11570 0.65710 0.02700
H 	H 	0.47350 0.12720 0.81660 0.05700
H 	H 	0.47320 0.04670 0.81310 0.02900
H 	H 	0.73760 0.19080 0.69970 0.08400
C 	C 	0.63304 0.15709 0.66629 -0.00300
H 	H 	0.60930 0.17950 0.67000 0.00700
H 	H 	0.72180 0.04830 0.68420 0.17700
H 	H 	0.75720 0.10290 0.72840 -0.10300
O 	O 	0.78200 0.02300 0.74000 0.52100
H 	H 	0.77940 0.04660 0.75620 -0.11900
H 	H 	0.71750 0.02120 0.73660 -0.37900
H 	H 	0.73330 0.98650 0.76360 -0.74100
N 	N 	0.96177 0.38610 0.23073 -0.28400
N 	N 	0.85999 0.38172 0.19408 -0.29200
C 	C 	0.97688 0.35506 0.20110 0.08400
H 	H 	0.95790 0.33570 0.18260 -0.01600
H 	H 	0.97340 0.45960 0.28430 0.07700
H 	H 	0.97320 0.39930 0.33850 0.01800
C 	C 	0.88357 0.38964 0.14928 -0.03600
H 	H 	0.91580 0.39360 0.14470 0.01300
H 	H 	0.75440 0.38830 0.20790 0.09100
C 	C 	0.97664 0.38499 0.18350 -0.04400
H 	H 	0.95720 0.38430 0.15710 0.02200
H 	H 	0.02650 0.37280 0.31660 0.06700
H 	H 	0.02680 0.45330 0.31310 0.03500
H 	H 	0.76240 0.30920 0.19970 0.07200
C 	C 	0.86696 0.34291 0.16629 -0.00200
H 	H 	0.89070 0.32050 0.17000 0.00700
H 	H 	0.77820 0.45170 0.18420 0.17800
H 	H 	0.74280 0.39710 0.22840 -0.09200
O 	O 	0.71800 0.47700 0.24000 0.47600
H 	H 	0.72060 0.45340 0.25620 -0.10700
H 	H 	0.78250 0.47880 0.23660 -0.38600
H 	H 	0.76670 0.51350 0.26360 -0.72400
N 	N 	0.46177 0.88610 0.73073 -0.28900
N 	N 	0.35999 0.88172 0.69408 -0.29300
C 	C 	0.47688 0.85506 0.70110 0.06500
H 	H 	0.45790 0.83570 0.68260 -0.01100
H 	H 	0.47340 0.95960 0.78430 0.06300
H 	H 	0.47320 0.89930 0.83850 0.00400
C 	C 	0.38357 0.88964 0.64928 -0.03500
H 	H 	0.41580 0.89360 0.64470 0.01200
H 	H 	0.25440 0.88830 0.70790 0.09200
C 	C 	0.47664 0.88499 0.68350 -0.06800
H 	H 	0.45720 0.88430 0.65710 0.02800
H 	H 	0.52650 0.87280 0.81660 0.05600
H 	H 	0.52680 0.95330 0.81310 0.03600
H 	H 	0.26240 0.80920 0.69970 0.08400
C 	C 	0.36696 0.84291 0.66629 -0.00400
H 	H 	0.39070 0.82050 0.67000 0.00700
H 	H 	0.27820 0.95170 0.68420 0.18500
H 	H 	0.24280 0.89710 0.72840 -0.10300
O 	O 	0.21800 0.97700 0.74000 0.55400
H 	H 	0.22060 0.95340 0.75620 -0.12800
H 	H 	0.28250 0.97880 0.73660 -0.37000
H 	H 	0.26670 0.01350 0.76360 -0.75100
N 	N 	0.96177 0.61390 0.76927 -0.28400
N 	N 	0.85999 0.61828 0.80592 -0.29200
C 	C 	0.97688 0.64494 0.79890 0.08400
H 	H 	0.95790 0.66430 0.81740 -0.01400
H 	H 	0.97340 0.54040 0.71570 0.07700
H 	H 	0.97320 0.60070 0.66150 0.01800
C 	C 	0.88357 0.61036 0.85072 -0.03400
H 	H 	0.91580 0.60640 0.85530 0.01500
H 	H 	0.75440 0.61170 0.79210 0.09000
C 	C 	0.97664 0.61501 0.81650 -0.04300
H 	H 	0.95720 0.61570 0.84290 0.02400
H 	H 	0.02650 0.62720 0.68340 0.06700
H 	H 	0.02680 0.54670 0.68690 0.03500
H 	H 	0.76240 0.69080 0.80030 0.07400
C 	C 	0.86696 0.65709 0.83371 -0.00200
H 	H 	0.89070 0.67950 0.83000 0.01000
H 	H 	0.77820 0.54830 0.81580 0.17800
H 	H 	0.74280 0.60290 0.77160 -0.09200
O 	O 	0.71800 0.52300 0.76000 0.47600
H 	H 	0.72060 0.54660 0.74380 -0.10700
H 	H 	0.78250 0.52120 0.76340 -0.38600
H 	H 	0.76670 0.48650 0.73640 -0.72400
N 	N 	0.46177 0.11390 0.26927 -0.28800
N 	N 	0.35999 0.11828 0.30592 -0.29200
C 	C 	0.47688 0.14494 0.29890 0.06700
H 	H 	0.45790 0.16430 0.31740 -0.01200
H 	H 	0.47340 0.04040 0.21570 0.05300
H 	H 	0.47320 0.10070 0.16150 0.00100
C 	C 	0.38357 0.11036 0.35072 -0.03500
H 	H 	0.41580 0.10640 0.35530 0.01100
H 	H 	0.25440 0.11170 0.29210 0.09300
C 	C 	0.47664 0.11501 0.31650 -0.07000
H 	H 	0.45720 0.11570 0.34290 0.02700
H 	H 	0.52650 0.12720 0.18340 0.05800
H 	H 	0.52680 0.04670 0.18690 0.02600
H 	H 	0.26240 0.19080 0.30030 0.08500
C 	C 	0.36696 0.15709 0.33371 -0.00300
H 	H 	0.39070 0.17950 0.33000 0.00700
H 	H 	0.27820 0.04830 0.31580 0.17700
H 	H 	0.24280 0.10290 0.27160 -0.10500
O 	O 	0.21800 0.02300 0.26000 0.52200
H 	H 	0.22060 0.04660 0.24380 -0.12200
H 	H 	0.28250 0.02120 0.26340 -0.37900
H 	H 	0.26670 0.98650 0.23640 -0.74000
N 	N 	0.76927 0.61390 0.96177 -0.28400
N 	N 	0.80592 0.61828 0.85999 -0.29200
C 	C 	0.79890 0.64494 0.97688 0.08400
H 	H 	0.81740 0.66430 0.95790 -0.01400
H 	H 	0.71570 0.54040 0.97340 0.07700
H 	H 	0.66150 0.60070 0.97320 0.01800
C 	C 	0.85072 0.61036 0.88357 -0.03400
H 	H 	0.85530 0.60640 0.91580 0.01500
H 	H 	0.79210 0.61170 0.75440 0.09000
C 	C 	0.81650 0.61501 0.97664 -0.04300
H 	H 	0.84290 0.61570 0.95720 0.02400
H 	H 	0.68340 0.62720 0.02650 0.06700
H 	H 	0.68690 0.54670 0.02680 0.03500
H 	H 	0.80030 0.69080 0.76240 0.07400
C 	C 	0.83371 0.65709 0.86696 -0.00200
H 	H 	0.83000 0.67950 0.89070 0.01000
H 	H 	0.81580 0.54830 0.77820 0.17800
H 	H 	0.77160 0.60290 0.74280 -0.09200
O 	O 	0.76000 0.52300 0.71800 0.47600
H 	H 	0.74380 0.54660 0.72060 -0.10700
H 	H 	0.76340 0.52120 0.78250 -0.38600
H 	H 	0.73640 0.48650 0.76670 -0.72400
N 	N 	0.26927 0.11390 0.46177 -0.28800
N 	N 	0.30592 0.11828 0.35999 -0.29200
C 	C 	0.29890 0.14494 0.47688 0.06700
H 	H 	0.31740 0.16430 0.45790 -0.01200
H 	H 	0.21570 0.04040 0.47340 0.05300
H 	H 	0.16150 0.10070 0.47320 0.00100
C 	C 	0.35072 0.11036 0.38357 -0.03500
H 	H 	0.35530 0.10640 0.41580 0.01100
H 	H 	0.29210 0.11170 0.25440 0.09300
C 	C 	0.31650 0.11501 0.47664 -0.07000
H 	H 	0.34290 0.11570 0.45720 0.02700
H 	H 	0.18340 0.12720 0.52650 0.05800
H 	H 	0.18690 0.04670 0.52680 0.02600
H 	H 	0.30030 0.19080 0.26240 0.08500
C 	C 	0.33371 0.15709 0.36696 -0.00300
H 	H 	0.33000 0.17950 0.39070 0.00700
H 	H 	0.31580 0.04830 0.27820 0.17700
H 	H 	0.27160 0.10290 0.24280 -0.10500
O 	O 	0.26000 0.02300 0.21800 0.52200
H 	H 	0.24380 0.04660 0.22060 -0.12200
H 	H 	0.26340 0.02120 0.28250 -0.37900
H 	H 	0.23640 0.98650 0.26670 -0.74000
N 	N 	0.23073 0.38610 0.96177 -0.28400
N 	N 	0.19408 0.38172 0.85999 -0.29200
C 	C 	0.20110 0.35506 0.97688 0.08400
H 	H 	0.18260 0.33570 0.95790 -0.01600
H 	H 	0.28430 0.45960 0.97340 0.07700
H 	H 	0.33850 0.39930 0.97320 0.01800
C 	C 	0.14928 0.38964 0.88357 -0.03600
H 	H 	0.14470 0.39360 0.91580 0.01300
H 	H 	0.20790 0.38830 0.75440 0.09100
C 	C 	0.18350 0.38499 0.97664 -0.04400
H 	H 	0.15710 0.38430 0.95720 0.02200
H 	H 	0.31660 0.37280 0.02650 0.06700
H 	H 	0.31310 0.45330 0.02680 0.03500
H 	H 	0.19970 0.30920 0.76240 0.07200
C 	C 	0.16629 0.34291 0.86696 -0.00200
H 	H 	0.17000 0.32050 0.89070 0.00700
H 	H 	0.18420 0.45170 0.77820 0.17800
H 	H 	0.22840 0.39710 0.74280 -0.09200
O 	O 	0.24000 0.47700 0.71800 0.47600
H 	H 	0.25620 0.45340 0.72060 -0.10700
H 	H 	0.23660 0.47880 0.78250 -0.38600
H 	H 	0.26360 0.51350 0.76670 -0.72400
N 	N 	0.73073 0.88610 0.46177 -0.28900
N 	N 	0.69408 0.88172 0.35999 -0.29300
C 	C 	0.70110 0.85506 0.47688 0.06500
H 	H 	0.68260 0.83570 0.45790 -0.01100
H 	H 	0.78430 0.95960 0.47340 0.06300
H 	H 	0.83850 0.89930 0.47320 0.00400
C 	C 	0.64928 0.88964 0.38357 -0.03500
H 	H 	0.64470 0.89360 0.41580 0.01200
H 	H 	0.70790 0.88830 0.25440 0.09200
C 	C 	0.68350 0.88499 0.47664 -0.06800
H 	H 	0.65710 0.88430 0.45720 0.02800
H 	H 	0.81660 0.87280 0.52650 0.05600
H 	H 	0.81310 0.95330 0.52680 0.03600
H 	H 	0.69970 0.80920 0.26240 0.08400
C 	C 	0.66629 0.84291 0.36696 -0.00400
H 	H 	0.67000 0.82050 0.39070 0.00700
H 	H 	0.68420 0.95170 0.27820 0.18500
H 	H 	0.72840 0.89710 0.24280 -0.10300
O 	O 	0.74000 0.97700 0.21800 0.55400
H 	H 	0.75620 0.95340 0.22060 -0.12800
H 	H 	0.73660 0.97880 0.28250 -0.37000
H 	H 	0.76360 0.01350 0.26670 -0.75100
N 	N 	0.23073 0.61390 0.03823 -0.28300
N 	N 	0.19408 0.61828 0.14001 -0.29200
C 	C 	0.20110 0.64494 0.02312 0.04400
H 	H 	0.18260 0.66430 0.04210 -0.00900
H 	H 	0.28430 0.54040 0.02660 0.06400
H 	H 	0.33850 0.60070 0.02680 0.00300
C 	C 	0.14928 0.61036 0.11643 -0.03500
H 	H 	0.14470 0.60640 0.08420 0.00800
H 	H 	0.20790 0.61170 0.24560 0.09100
C 	C 	0.18350 0.61501 0.02336 -0.09000
H 	H 	0.15710 0.61570 0.04280 0.03000
H 	H 	0.31660 0.62720 0.97350 0.08100
H 	H 	0.31310 0.54670 0.97320 0.04800
H 	H 	0.19970 0.69080 0.23760 0.07100
C 	C 	0.16629 0.65709 0.13304 -0.00300
H 	H 	0.17000 0.67950 0.10930 0.00500
H 	H 	0.18420 0.54830 0.22180 0.17800
H 	H 	0.22840 0.60290 0.25720 -0.09200
O 	O 	0.24000 0.52300 0.28200 0.47600
H 	H 	0.25620 0.54660 0.27940 -0.10700
H 	H 	0.23660 0.52120 0.21750 -0.38600
H 	H 	0.26360 0.48650 0.23330 -0.72400
N 	N 	0.73073 0.11390 0.53823 -0.28800
N 	N 	0.69408 0.11828 0.64001 -0.29200
C 	C 	0.70110 0.14494 0.52312 0.06700
H 	H 	0.68260 0.16430 0.54210 -0.01200
H 	H 	0.78430 0.04040 0.52660 0.05200
H 	H 	0.83850 0.10070 0.52680 0.00400
C 	C 	0.64928 0.11036 0.61643 -0.03500
H 	H 	0.64470 0.10640 0.58420 0.01100
H 	H 	0.70790 0.11170 0.74560 0.09200
C 	C 	0.68350 0.11501 0.52336 -0.07000
H 	H 	0.65710 0.11570 0.54280 0.02700
H 	H 	0.81660 0.12720 0.47350 0.05700
H 	H 	0.81310 0.04670 0.47320 0.02900
H 	H 	0.69970 0.19080 0.73760 0.08400
C 	C 	0.66629 0.15709 0.63304 -0.00300
H 	H 	0.67000 0.17950 0.60930 0.00700
H 	H 	0.68420 0.04830 0.72180 0.17700
H 	H 	0.72840 0.10290 0.75720 -0.10300
O 	O 	0.74000 0.02300 0.78200 0.52100
H 	H 	0.75620 0.04660 0.77940 -0.11900
H 	H 	0.73660 0.02120 0.71750 -0.37900
H 	H 	0.76360 0.98650 0.73330 -0.74100
N 	N 	0.76927 0.38610 0.03823 -0.28300
N 	N 	0.80592 0.38172 0.14001 -0.29200
C 	C 	0.79890 0.35506 0.02312 0.04400
H 	H 	0.81740 0.33570 0.04210 -0.00800
H 	H 	0.71570 0.45960 0.02660 0.06400
H 	H 	0.66150 0.39930 0.02680 0.00300
C 	C 	0.85072 0.38964 0.11643 -0.03300
H 	H 	0.85530 0.39360 0.08420 0.00900
H 	H 	0.79210 0.38830 0.24560 0.09100
C 	C 	0.81650 0.38499 0.02336 -0.09000
H 	H 	0.84290 0.38430 0.04280 0.03200
H 	H 	0.68340 0.37280 0.97350 0.08200
H 	H 	0.68690 0.45330 0.97320 0.04800
H 	H 	0.80030 0.30920 0.23760 0.07300
C 	C 	0.83371 0.34291 0.13304 -0.00300
H 	H 	0.83000 0.32050 0.10930 0.00600
H 	H 	0.81580 0.45170 0.22180 0.17800
H 	H 	0.77160 0.39710 0.25720 -0.09200
O 	O 	0.76000 0.47700 0.28200 0.47600
H 	H 	0.74380 0.45340 0.27940 -0.10700
H 	H 	0.76340 0.47880 0.21750 -0.38600
H 	H 	0.73640 0.51350 0.23330 -0.72400
N 	N 	0.26927 0.88610 0.53823 -0.28900
N 	N 	0.30592 0.88172 0.64001 -0.29300
C 	C 	0.29890 0.85506 0.52312 0.06500
H 	H 	0.31740 0.83570 0.54210 -0.01100
H 	H 	0.21570 0.95960 0.52660 0.06500
H 	H 	0.16150 0.89930 0.52680 0.00200
C 	C 	0.35072 0.88964 0.61643 -0.03500
H 	H 	0.35530 0.89360 0.58420 0.01200
H 	H 	0.29210 0.88830 0.74560 0.09200
C 	C 	0.31650 0.88499 0.52336 -0.06800
H 	H 	0.34290 0.88430 0.54280 0.02800
H 	H 	0.18340 0.87280 0.47350 0.05700
H 	H 	0.18690 0.95330 0.47320 0.03400
H 	H 	0.30030 0.80920 0.73760 0.08300
C 	C 	0.33371 0.84291 0.63304 -0.00400
H 	H 	0.33000 0.82050 0.60930 0.00700
H 	H 	0.31580 0.95170 0.72180 0.18500
H 	H 	0.27160 0.89710 0.75720 -0.10300
O 	O 	0.26000 0.97700 0.78200 0.55400
H 	H 	0.24380 0.95340 0.77940 -0.12800
H 	H 	0.26340 0.97880 0.71750 -0.37000
H 	H 	0.23640 0.01350 0.73330 -0.75100
N 	N 	0.96177 0.76927 0.61390 -0.28400
N 	N 	0.85999 0.80592 0.61828 -0.29200
C 	C 	0.97688 0.79890 0.64494 0.08400
H 	H 	0.95790 0.81740 0.66430 -0.01400
H 	H 	0.97340 0.71570 0.54040 0.07700
H 	H 	0.97320 0.66150 0.60070 0.01800
C 	C 	0.88357 0.85072 0.61036 -0.03400
H 	H 	0.91580 0.85530 0.60640 0.01500
H 	H 	0.75440 0.79210 0.61170 0.09000
C 	C 	0.97664 0.81650 0.61501 -0.04300
H 	H 	0.95720 0.84290 0.61570 0.02400
H 	H 	0.02650 0.68340 0.62720 0.06700
H 	H 	0.02680 0.68690 0.54670 0.03500
H 	H 	0.76240 0.80030 0.69080 0.07400
C 	C 	0.86696 0.83371 0.65709 -0.00200
H 	H 	0.89070 0.83000 0.67950 0.01000
H 	H 	0.77820 0.81580 0.54830 0.17800
H 	H 	0.74280 0.77160 0.60290 -0.09200
O 	O 	0.71800 0.76000 0.52300 0.47600
H 	H 	0.72060 0.74380 0.54660 -0.10700
H 	H 	0.78250 0.76340 0.52120 -0.38600
H 	H 	0.76670 0.73640 0.48650 -0.72400
N 	N 	0.46177 0.26927 0.11390 -0.28800
N 	N 	0.35999 0.30592 0.11828 -0.29200
C 	C 	0.47688 0.29890 0.14494 0.06700
H 	H 	0.45790 0.31740 0.16430 -0.01200
H 	H 	0.47340 0.21570 0.04040 0.05300
H 	H 	0.47320 0.16150 0.10070 0.00100
C 	C 	0.38357 0.35072 0.11036 -0.03500
H 	H 	0.41580 0.35530 0.10640 0.01100
H 	H 	0.25440 0.29210 0.11170 0.09300
C 	C 	0.47664 0.31650 0.11501 -0.07000
H 	H 	0.45720 0.34290 0.11570 0.02700
H 	H 	0.52650 0.18340 0.12720 0.05800
H 	H 	0.52680 0.18690 0.04670 0.02600
H 	H 	0.26240 0.30030 0.19080 0.08500
C 	C 	0.36696 0.33371 0.15709 -0.00300
H 	H 	0.39070 0.33000 0.17950 0.00700
H 	H 	0.27820 0.31580 0.04830 0.17700
H 	H 	0.24280 0.27160 0.10290 -0.10500
O 	O 	0.21800 0.26000 0.02300 0.52200
H 	H 	0.22060 0.24380 0.04660 -0.12200
H 	H 	0.28250 0.26340 0.02120 -0.37900
H 	H 	0.26670 0.23640 0.98650 -0.74000
N 	N 	0.96177 0.23073 0.38610 -0.28400
N 	N 	0.85999 0.19408 0.38172 -0.29200
C 	C 	0.97688 0.20110 0.35506 0.08400
H 	H 	0.95790 0.18260 0.33570 -0.01600
H 	H 	0.97340 0.28430 0.45960 0.07700
H 	H 	0.97320 0.33850 0.39930 0.01800
C 	C 	0.88357 0.14928 0.38964 -0.03600
H 	H 	0.91580 0.14470 0.39360 0.01300
H 	H 	0.75440 0.20790 0.38830 0.09100
C 	C 	0.97664 0.18350 0.38499 -0.04400
H 	H 	0.95720 0.15710 0.38430 0.02200
H 	H 	0.02650 0.31660 0.37280 0.06700
H 	H 	0.02680 0.31310 0.45330 0.03500
H 	H 	0.76240 0.19970 0.30920 0.07200
C 	C 	0.86696 0.16629 0.34291 -0.00200
H 	H 	0.89070 0.17000 0.32050 0.00700
H 	H 	0.77820 0.18420 0.45170 0.17800
H 	H 	0.74280 0.22840 0.39710 -0.09200
O 	O 	0.71800 0.24000 0.47700 0.47600
H 	H 	0.72060 0.25620 0.45340 -0.10700
H 	H 	0.78250 0.23660 0.47880 -0.38600
H 	H 	0.76670 0.26360 0.51350 -0.72400
N 	N 	0.46177 0.73073 0.88610 -0.28900
N 	N 	0.35999 0.69408 0.88172 -0.29300
C 	C 	0.47688 0.70110 0.85506 0.06500
H 	H 	0.45790 0.68260 0.83570 -0.01100
H 	H 	0.47340 0.78430 0.95960 0.06300
H 	H 	0.47320 0.83850 0.89930 0.00400
C 	C 	0.38357 0.64928 0.88964 -0.03500
H 	H 	0.41580 0.64470 0.89360 0.01200
H 	H 	0.25440 0.70790 0.88830 0.09200
C 	C 	0.47664 0.68350 0.88499 -0.06800
H 	H 	0.45720 0.65710 0.88430 0.02800
H 	H 	0.52650 0.81660 0.87280 0.05600
H 	H 	0.52680 0.81310 0.95330 0.03600
H 	H 	0.26240 0.69970 0.80920 0.08400
C 	C 	0.36696 0.66629 0.84291 -0.00400
H 	H 	0.39070 0.67000 0.82050 0.00700
H 	H 	0.27820 0.68420 0.95170 0.18500
H 	H 	0.24280 0.72840 0.89710 -0.10300
O 	O 	0.21800 0.74000 0.97700 0.55400
H 	H 	0.22060 0.75620 0.95340 -0.12800
H 	H 	0.28250 0.73660 0.97880 -0.37000
H 	H 	0.26670 0.76360 0.01350 -0.75100
N 	N 	0.03823 0.23073 0.61390 -0.28300
N 	N 	0.14001 0.19408 0.61828 -0.29200
C 	C 	0.02312 0.20110 0.64494 0.04400
H 	H 	0.04210 0.18260 0.66430 -0.00900
H 	H 	0.02660 0.28430 0.54040 0.06400
H 	H 	0.02680 0.33850 0.60070 0.00300
C 	C 	0.11643 0.14928 0.61036 -0.03500
H 	H 	0.08420 0.14470 0.60640 0.00800
H 	H 	0.24560 0.20790 0.61170 0.09100
C 	C 	0.02336 0.18350 0.61501 -0.09000
H 	H 	0.04280 0.15710 0.61570 0.03000
H 	H 	0.97350 0.31660 0.62720 0.08100
H 	H 	0.97320 0.31310 0.54670 0.04800
H 	H 	0.23760 0.19970 0.69080 0.07100
C 	C 	0.13304 0.16629 0.65709 -0.00300
H 	H 	0.10930 0.17000 0.67950 0.00500
H 	H 	0.22180 0.18420 0.54830 0.17800
H 	H 	0.25720 0.22840 0.60290 -0.09200
O 	O 	0.28200 0.24000 0.52300 0.47600
H 	H 	0.27940 0.25620 0.54660 -0.10700
H 	H 	0.21750 0.23660 0.52120 -0.38600
H 	H 	0.23330 0.26360 0.48650 -0.72400
N 	N 	0.53823 0.73073 0.11390 -0.28800
N 	N 	0.64001 0.69408 0.11828 -0.29200
C 	C 	0.52312 0.70110 0.14494 0.06700
H 	H 	0.54210 0.68260 0.16430 -0.01200
H 	H 	0.52660 0.78430 0.04040 0.05200
H 	H 	0.52680 0.83850 0.10070 0.00400
C 	C 	0.61643 0.64928 0.11036 -0.03500
H 	H 	0.58420 0.64470 0.10640 0.01100
H 	H 	0.74560 0.70790 0.11170 0.09200
C 	C 	0.52336 0.68350 0.11501 -0.07000
H 	H 	0.54280 0.65710 0.11570 0.02700
H 	H 	0.47350 0.81660 0.12720 0.05700
H 	H 	0.47320 0.81310 0.04670 0.02900
H 	H 	0.73760 0.69970 0.19080 0.08400
C 	C 	0.63304 0.66629 0.15709 -0.00300
H 	H 	0.60930 0.67000 0.17950 0.00700
H 	H 	0.72180 0.68420 0.04830 0.17700
H 	H 	0.75720 0.72840 0.10290 -0.10300
O 	O 	0.78200 0.74000 0.02300 0.52100
H 	H 	0.77940 0.75620 0.04660 -0.11900
H 	H 	0.71750 0.73660 0.02120 -0.37900
H 	H 	0.73330 0.76360 0.98650 -0.74100
N 	N 	0.03823 0.76927 0.38610 -0.28300
N 	N 	0.14001 0.80592 0.38172 -0.29200
C 	C 	0.02312 0.79890 0.35506 0.04400
H 	H 	0.04210 0.81740 0.33570 -0.00800
H 	H 	0.02660 0.71570 0.45960 0.06400
H 	H 	0.02680 0.66150 0.39930 0.00300
C 	C 	0.11643 0.85072 0.38964 -0.03300
H 	H 	0.08420 0.85530 0.39360 0.00900
H 	H 	0.24560 0.79210 0.38830 0.09100
C 	C 	0.02336 0.81650 0.38499 -0.09000
H 	H 	0.04280 0.84290 0.38430 0.03200
H 	H 	0.97350 0.68340 0.37280 0.08200
H 	H 	0.97320 0.68690 0.45330 0.04800
H 	H 	0.23760 0.80030 0.30920 0.07300
C 	C 	0.13304 0.83371 0.34291 -0.00300
H 	H 	0.10930 0.83000 0.32050 0.00600
H 	H 	0.22180 0.81580 0.45170 0.17800
H 	H 	0.25720 0.77160 0.39710 -0.09200
O 	O 	0.28200 0.76000 0.47700 0.47600
H 	H 	0.27940 0.74380 0.45340 -0.10700
H 	H 	0.21750 0.76340 0.47880 -0.38600
H 	H 	0.23330 0.73640 0.51350 -0.72400
N 	N 	0.53823 0.26927 0.88610 -0.28900
N 	N 	0.64001 0.30592 0.88172 -0.29300
C 	C 	0.52312 0.29890 0.85506 0.06500
H 	H 	0.54210 0.31740 0.83570 -0.01100
H 	H 	0.52660 0.21570 0.95960 0.06500
H 	H 	0.52680 0.16150 0.89930 0.00200
C 	C 	0.61643 0.35072 0.88964 -0.03500
H 	H 	0.58420 0.35530 0.89360 0.01200
H 	H 	0.74560 0.29210 0.88830 0.09200
C 	C 	0.52336 0.31650 0.88499 -0.06800
H 	H 	0.54280 0.34290 0.88430 0.02800
H 	H 	0.47350 0.18340 0.87280 0.05700
H 	H 	0.47320 0.18690 0.95330 0.03400
H 	H 	0.73760 0.30030 0.80920 0.08300
C 	C 	0.63304 0.33371 0.84291 -0.00400
H 	H 	0.60930 0.33000 0.82050 0.00700
H 	H 	0.72180 0.31580 0.95170 0.18500
H 	H 	0.75720 0.27160 0.89710 -0.10300
O 	O 	0.78200 0.26000 0.97700 0.55400
H 	H 	0.77940 0.24380 0.95340 -0.12800
H 	H 	0.71750 0.26340 0.97880 -0.37000
H 	H 	0.73330 0.23640 0.01350 -0.75100
N 	N 	0.61390 0.96177 0.76927 -0.28400
N 	N 	0.61828 0.85999 0.80592 -0.29200
C 	C 	0.64494 0.97688 0.79890 0.08400
H 	H 	0.66430 0.95790 0.81740 -0.01400
H 	H 	0.54040 0.97340 0.71570 0.07700
H 	H 	0.60070 0.97320 0.66150 0.01800
C 	C 	0.61036 0.88357 0.85072 -0.03400
H 	H 	0.60640 0.91580 0.85530 0.01500
H 	H 	0.61170 0.75440 0.79210 0.09000
C 	C 	0.61501 0.97664 0.81650 -0.04300
H 	H 	0.61570 0.95720 0.84290 0.02400
H 	H 	0.62720 0.02650 0.68340 0.06700
H 	H 	0.54670 0.02680 0.68690 0.03500
H 	H 	0.69080 0.76240 0.80030 0.07400
C 	C 	0.65709 0.86696 0.83371 -0.00200
H 	H 	0.67950 0.89070 0.83000 0.01000
H 	H 	0.54830 0.77820 0.81580 0.17800
H 	H 	0.60290 0.74280 0.77160 -0.09200
O 	O 	0.52300 0.71800 0.76000 0.47600
H 	H 	0.54660 0.72060 0.74380 -0.10700
H 	H 	0.52120 0.78250 0.76340 -0.38600
H 	H 	0.48650 0.76670 0.73640 -0.72400
N 	N 	0.11390 0.46177 0.26927 -0.28800
N 	N 	0.11828 0.35999 0.30592 -0.29200
C 	C 	0.14494 0.47688 0.29890 0.06700
H 	H 	0.16430 0.45790 0.31740 -0.01200
H 	H 	0.04040 0.47340 0.21570 0.05300
H 	H 	0.10070 0.47320 0.16150 0.00100
C 	C 	0.11036 0.38357 0.35072 -0.03500
H 	H 	0.10640 0.41580 0.35530 0.01100
H 	H 	0.11170 0.25440 0.29210 0.09300
C 	C 	0.11501 0.47664 0.31650 -0.07000
H 	H 	0.11570 0.45720 0.34290 0.02700
H 	H 	0.12720 0.52650 0.18340 0.05800
H 	H 	0.04670 0.52680 0.18690 0.02600
H 	H 	0.19080 0.26240 0.30030 0.08500
C 	C 	0.15709 0.36696 0.33371 -0.00300
H 	H 	0.17950 0.39070 0.33000 0.00700
H 	H 	0.04830 0.27820 0.31580 0.17700
H 	H 	0.10290 0.24280 0.27160 -0.10500
O 	O 	0.02300 0.21800 0.26000 0.52200
H 	H 	0.04660 0.22060 0.24380 -0.12200
H 	H 	0.02120 0.28250 0.26340 -0.37900
H 	H 	0.98650 0.26670 0.23640 -0.74000
N 	N 	0.38610 0.96177 0.23073 -0.28400
N 	N 	0.38172 0.85999 0.19408 -0.29200
C 	C 	0.35506 0.97688 0.20110 0.08400
H 	H 	0.33570 0.95790 0.18260 -0.01600
H 	H 	0.45960 0.97340 0.28430 0.07700
H 	H 	0.39930 0.97320 0.33850 0.01800
C 	C 	0.38964 0.88357 0.14928 -0.03600
H 	H 	0.39360 0.91580 0.14470 0.01300
H 	H 	0.38830 0.75440 0.20790 0.09100
C 	C 	0.38499 0.97664 0.18350 -0.04400
H 	H 	0.38430 0.95720 0.15710 0.02200
H 	H 	0.37280 0.02650 0.31660 0.06700
H 	H 	0.45330 0.02680 0.31310 0.03500
H 	H 	0.30920 0.76240 0.19970 0.07200
C 	C 	0.34291 0.86696 0.16629 -0.00200
H 	H 	0.32050 0.89070 0.17000 0.00700
H 	H 	0.45170 0.77820 0.18420 0.17800
H 	H 	0.39710 0.74280 0.22840 -0.09200
O 	O 	0.47700 0.71800 0.24000 0.47600
H 	H 	0.45340 0.72060 0.25620 -0.10700
H 	H 	0.47880 0.78250 0.23660 -0.38600
H 	H 	0.51350 0.76670 0.26360 -0.72400
N 	N 	0.88610 0.46177 0.73073 -0.28900
N 	N 	0.88172 0.35999 0.69408 -0.29300
C 	C 	0.85506 0.47688 0.70110 0.06500
H 	H 	0.83570 0.45790 0.68260 -0.01100
H 	H 	0.95960 0.47340 0.78430 0.06300
H 	H 	0.89930 0.47320 0.83850 0.00400
C 	C 	0.88964 0.38357 0.64928 -0.03500
H 	H 	0.89360 0.41580 0.64470 0.01200
H 	H 	0.88830 0.25440 0.70790 0.09200
C 	C 	0.88499 0.47664 0.68350 -0.06800
H 	H 	0.88430 0.45720 0.65710 0.02800
H 	H 	0.87280 0.52650 0.81660 0.05600
H 	H 	0.95330 0.52680 0.81310 0.03600
H 	H 	0.80920 0.26240 0.69970 0.08400
C 	C 	0.84291 0.36696 0.66629 -0.00400
H 	H 	0.82050 0.39070 0.67000 0.00700
H 	H 	0.95170 0.27820 0.68420 0.18500
H 	H 	0.89710 0.24280 0.72840 -0.10300
O 	O 	0.97700 0.21800 0.74000 0.55400
H 	H 	0.95340 0.22060 0.75620 -0.12800
H 	H 	0.97880 0.28250 0.73660 -0.37000
H 	H 	0.01350 0.26670 0.76360 -0.75100
N 	N 	0.61390 0.03823 0.23073 -0.28300
N 	N 	0.61828 0.14001 0.19408 -0.29200
C 	C 	0.64494 0.02312 0.20110 0.04400
H 	H 	0.66430 0.04210 0.18260 -0.00900
H 	H 	0.54040 0.02660 0.28430 0.06400
H 	H 	0.60070 0.02680 0.33850 0.00300
C 	C 	0.61036 0.11643 0.14928 -0.03500
H 	H 	0.60640 0.08420 0.14470 0.00800
H 	H 	0.61170 0.24560 0.20790 0.09100
C 	C 	0.61501 0.02336 0.18350 -0.09000
H 	H 	0.61570 0.04280 0.15710 0.03000
H 	H 	0.62720 0.97350 0.31660 0.08100
H 	H 	0.54670 0.97320 0.31310 0.04800
H 	H 	0.69080 0.23760 0.19970 0.07100
C 	C 	0.65709 0.13304 0.16629 -0.00300
H 	H 	0.67950 0.10930 0.17000 0.00500
H 	H 	0.54830 0.22180 0.18420 0.17800
H 	H 	0.60290 0.25720 0.22840 -0.09200
O 	O 	0.52300 0.28200 0.24000 0.47600
H 	H 	0.54660 0.27940 0.25620 -0.10700
H 	H 	0.52120 0.21750 0.23660 -0.38600
H 	H 	0.48650 0.23330 0.26360 -0.72400
N 	N 	0.11390 0.53823 0.73073 -0.28800
N 	N 	0.11828 0.64001 0.69408 -0.29200
C 	C 	0.14494 0.52312 0.70110 0.06700
H 	H 	0.16430 0.54210 0.68260 -0.01200
H 	H 	0.04040 0.52660 0.78430 0.05200
H 	H 	0.10070 0.52680 0.83850 0.00400
C 	C 	0.11036 0.61643 0.64928 -0.03500
H 	H 	0.10640 0.58420 0.64470 0.01100
H 	H 	0.11170 0.74560 0.70790 0.09200
C 	C 	0.11501 0.52336 0.68350 -0.07000
H 	H 	0.11570 0.54280 0.65710 0.02700
H 	H 	0.12720 0.47350 0.81660 0.05700
H 	H 	0.04670 0.47320 0.81310 0.02900
H 	H 	0.19080 0.73760 0.69970 0.08400
C 	C 	0.15709 0.63304 0.66629 -0.00300
H 	H 	0.17950 0.60930 0.67000 0.00700
H 	H 	0.04830 0.72180 0.68420 0.17700
H 	H 	0.10290 0.75720 0.72840 -0.10300
O 	O 	0.02300 0.78200 0.74000 0.52100
H 	H 	0.04660 0.77940 0.75620 -0.11900
H 	H 	0.02120 0.71750 0.73660 -0.37900
H 	H 	0.98650 0.73330 0.76360 -0.74100
N 	N 	0.38610 0.03823 0.76927 -0.28300
N 	N 	0.38172 0.14001 0.80592 -0.29200
C 	C 	0.35506 0.02312 0.79890 0.04400
H 	H 	0.33570 0.04210 0.81740 -0.00800
H 	H 	0.45960 0.02660 0.71570 0.06400
H 	H 	0.39930 0.02680 0.66150 0.00300
C 	C 	0.38964 0.11643 0.85072 -0.03300
H 	H 	0.39360 0.08420 0.85530 0.00900
H 	H 	0.38830 0.24560 0.79210 0.09100
C 	C 	0.38499 0.02336 0.81650 -0.09000
H 	H 	0.38430 0.04280 0.84290 0.03200
H 	H 	0.37280 0.97350 0.68340 0.08200
H 	H 	0.45330 0.97320 0.68690 0.04800
H 	H 	0.30920 0.23760 0.80030 0.07300
C 	C 	0.34291 0.13304 0.83371 -0.00300
H 	H 	0.32050 0.10930 0.83000 0.00600
H 	H 	0.45170 0.22180 0.81580 0.17800
H 	H 	0.39710 0.25720 0.77160 -0.09200
O 	O 	0.47700 0.28200 0.76000 0.47600
H 	H 	0.45340 0.27940 0.74380 -0.10700
H 	H 	0.47880 0.21750 0.76340 -0.38600
H 	H 	0.51350 0.23330 0.73640 -0.72400
N 	N 	0.88610 0.53823 0.26927 -0.28900
N 	N 	0.88172 0.64001 0.30592 -0.29300
C 	C 	0.85506 0.52312 0.29890 0.06500
H 	H 	0.83570 0.54210 0.31740 -0.01100
H 	H 	0.95960 0.52660 0.21570 0.06500
H 	H 	0.89930 0.52680 0.16150 0.00200
C 	C 	0.88964 0.61643 0.35072 -0.03500
H 	H 	0.89360 0.58420 0.35530 0.01200
H 	H 	0.88830 0.74560 0.29210 0.09200
C 	C 	0.88499 0.52336 0.31650 -0.06800
H 	H 	0.88430 0.54280 0.34290 0.02800
H 	H 	0.87280 0.47350 0.18340 0.05700
H 	H 	0.95330 0.47320 0.18690 0.03400
H 	H 	0.80920 0.73760 0.30030 0.08300
C 	C 	0.84291 0.63304 0.33371 -0.00400
H 	H 	0.82050 0.60930 0.33000 0.00700
H 	H 	0.95170 0.72180 0.31580 0.18500
H 	H 	0.89710 0.75720 0.27160 -0.10300
O 	O 	0.97700 0.78200 0.26000 0.55400
H 	H 	0.95340 0.77940 0.24380 -0.12800
H 	H 	0.97880 0.71750 0.26340 -0.37000
H 	H 	0.01350 0.73330 0.23640 -0.75100
N 	N 	0.61390 0.76927 0.03823 -0.28300
N 	N 	0.61828 0.80592 0.14001 -0.29200
C 	C 	0.64494 0.79890 0.02312 0.04400
H 	H 	0.66430 0.81740 0.04210 -0.00800
H 	H 	0.54040 0.71570 0.02660 0.06400
H 	H 	0.60070 0.66150 0.02680 0.00300
C 	C 	0.61036 0.85072 0.11643 -0.03300
H 	H 	0.60640 0.85530 0.08420 0.01000
H 	H 	0.61170 0.79210 0.24560 0.09100
C 	C 	0.61501 0.81650 0.02336 -0.09000
H 	H 	0.61570 0.84290 0.04280 0.03200
H 	H 	0.62720 0.68340 0.97350 0.08200
H 	H 	0.54670 0.68690 0.97320 0.04800
H 	H 	0.69080 0.80030 0.23760 0.07300
C 	C 	0.65709 0.83371 0.13304 -0.00300
H 	H 	0.67950 0.83000 0.10930 0.00700
H 	H 	0.54830 0.81580 0.22180 0.17800
H 	H 	0.60290 0.77160 0.25720 -0.09200
O 	O 	0.52300 0.76000 0.28200 0.47600
H 	H 	0.54660 0.74380 0.27940 -0.10700
H 	H 	0.52120 0.76340 0.21750 -0.38600
H 	H 	0.48650 0.73640 0.23330 -0.72400
N 	N 	0.11390 0.26927 0.53823 -0.28800
N 	N 	0.11828 0.30592 0.64001 -0.29200
C 	C 	0.14494 0.29890 0.52312 0.06700
H 	H 	0.16430 0.31740 0.54210 -0.01200
H 	H 	0.04040 0.21570 0.52660 0.05300
H 	H 	0.10070 0.16150 0.52680 0.00100
C 	C 	0.11036 0.35072 0.61643 -0.03500
H 	H 	0.10640 0.35530 0.58420 0.01100
H 	H 	0.11170 0.29210 0.74560 0.09200
C 	C 	0.11501 0.31650 0.52336 -0.07000
H 	H 	0.11570 0.34290 0.54280 0.02700
H 	H 	0.12720 0.18340 0.47350 0.05800
H 	H 	0.04670 0.18690 0.47320 0.02600
H 	H 	0.19080 0.30030 0.73760 0.08400
C 	C 	0.15709 0.33371 0.63304 -0.00300
H 	H 	0.17950 0.33000 0.60930 0.00700
H 	H 	0.04830 0.31580 0.72180 0.17700
H 	H 	0.10290 0.27160 0.75720 -0.10400
O 	O 	0.02300 0.26000 0.78200 0.52100
H 	H 	0.04660 0.24380 0.77940 -0.12000
H 	H 	0.02120 0.26340 0.71750 -0.37900
H 	H 	0.98650 0.23640 0.73330 -0.74000
N 	N 	0.38610 0.23073 0.03823 -0.28300
N 	N 	0.38172 0.19408 0.14001 -0.29200
C 	C 	0.35506 0.20110 0.02312 0.04400
H 	H 	0.33570 0.18260 0.04210 -0.01000
H 	H 	0.45960 0.28430 0.02660 0.06400
H 	H 	0.39930 0.33850 0.02680 0.00300
C 	C 	0.38964 0.14928 0.11643 -0.03500
H 	H 	0.39360 0.14470 0.08420 0.00800
H 	H 	0.38830 0.20790 0.24560 0.09100
C 	C 	0.38499 0.18350 0.02336 -0.09000
H 	H 	0.38430 0.15710 0.04280 0.03000
H 	H 	0.37280 0.31660 0.97350 0.08100
H 	H 	0.45330 0.31310 0.97320 0.04800
H 	H 	0.30920 0.19970 0.23760 0.07100
C 	C 	0.34291 0.16629 0.13304 -0.00300
H 	H 	0.32050 0.17000 0.10930 0.00400
H 	H 	0.45170 0.18420 0.22180 0.17800
H 	H 	0.39710 0.22840 0.25720 -0.09200
O 	O 	0.47700 0.24000 0.28200 0.47600
H 	H 	0.45340 0.25620 0.27940 -0.10700
H 	H 	0.47880 0.23660 0.21750 -0.38600
H 	H 	0.51350 0.26360 0.23330 -0.72400
N 	N 	0.88610 0.73073 0.53823 -0.28900
N 	N 	0.88172 0.69408 0.64001 -0.29300
C 	C 	0.85506 0.70110 0.52312 0.06500
H 	H 	0.83570 0.68260 0.54210 -0.01100
H 	H 	0.95960 0.78430 0.52660 0.06300
H 	H 	0.89930 0.83850 0.52680 0.00400
C 	C 	0.88964 0.64928 0.61643 -0.03500
H 	H 	0.89360 0.64470 0.58420 0.01200
H 	H 	0.88830 0.70790 0.74560 0.09200
C 	C 	0.88499 0.68350 0.52336 -0.06800
H 	H 	0.88430 0.65710 0.54280 0.02800
H 	H 	0.87280 0.81660 0.47350 0.05600
H 	H 	0.95330 0.81310 0.47320 0.03600
H 	H 	0.80920 0.69970 0.73760 0.08300
C 	C 	0.84291 0.66629 0.63304 -0.00400
H 	H 	0.82050 0.67000 0.60930 0.00700
H 	H 	0.95170 0.68420 0.72180 0.18500
H 	H 	0.89710 0.72840 0.75720 -0.10200
O 	O 	0.97700 0.74000 0.78200 0.55400
H 	H 	0.95340 0.75620 0.77940 -0.12700
H 	H 	0.97880 0.73660 0.71750 -0.37000
H 	H 	0.01350 0.76360 0.73330 -0.75200
N 	N 	0.61390 0.23073 0.96177 -0.28400
N 	N 	0.61828 0.19408 0.85999 -0.29200
C 	C 	0.64494 0.20110 0.97688 0.08400
H 	H 	0.66430 0.18260 0.95790 -0.01600
H 	H 	0.54040 0.28430 0.97340 0.07700
H 	H 	0.60070 0.33850 0.97320 0.01800
C 	C 	0.61036 0.14928 0.88357 -0.03600
H 	H 	0.60640 0.14470 0.91580 0.01300
H 	H 	0.61170 0.20790 0.75440 0.09100
C 	C 	0.61501 0.18350 0.97664 -0.04400
H 	H 	0.61570 0.15710 0.95720 0.02200
H 	H 	0.62720 0.31660 0.02650 0.06700
H 	H 	0.54670 0.31310 0.02680 0.03500
H 	H 	0.69080 0.19970 0.76240 0.07300
C 	C 	0.65709 0.16629 0.86696 -0.00200
H 	H 	0.67950 0.17000 0.89070 0.00800
H 	H 	0.54830 0.18420 0.77820 0.17800
H 	H 	0.60290 0.22840 0.74280 -0.09200
O 	O 	0.52300 0.24000 0.71800 0.47600
H 	H 	0.54660 0.25620 0.72060 -0.10700
H 	H 	0.52120 0.23660 0.78250 -0.38600
H 	H 	0.48650 0.26360 0.76670 -0.72400
N 	N 	0.11390 0.73073 0.46177 -0.28800
N 	N 	0.11828 0.69408 0.35999 -0.29200
C 	C 	0.14494 0.70110 0.47688 0.06700
H 	H 	0.16430 0.68260 0.45790 -0.01200
H 	H 	0.04040 0.78430 0.47340 0.05200
H 	H 	0.10070 0.83850 0.47320 0.00400
C 	C 	0.11036 0.64928 0.38357 -0.03500
H 	H 	0.10640 0.64470 0.41580 0.01100
H 	H 	0.11170 0.70790 0.25440 0.09200
C 	C 	0.11501 0.68350 0.47664 -0.07000
H 	H 	0.11570 0.65710 0.45720 0.02700
H 	H 	0.12720 0.81660 0.52650 0.05700
H 	H 	0.04670 0.81310 0.52680 0.02900
H 	H 	0.19080 0.69970 0.26240 0.08500
C 	C 	0.15709 0.66629 0.36696 -0.00300
H 	H 	0.17950 0.67000 0.39070 0.00700
H 	H 	0.04830 0.68420 0.27820 0.17700
H 	H 	0.10290 0.72840 0.24280 -0.10400
O 	O 	0.02300 0.74000 0.21800 0.52100
H 	H 	0.04660 0.75620 0.22060 -0.12100
H 	H 	0.02120 0.73660 0.28250 -0.37900
H 	H 	0.98650 0.76360 0.26670 -0.74000
N 	N 	0.38610 0.76927 0.96177 -0.28400
N 	N 	0.38172 0.80592 0.85999 -0.29200
C 	C 	0.35506 0.79890 0.97688 0.08400
H 	H 	0.33570 0.81740 0.95790 -0.01500
H 	H 	0.45960 0.71570 0.97340 0.07700
H 	H 	0.39930 0.66150 0.97320 0.01800
C 	C 	0.38964 0.85072 0.88357 -0.03400
H 	H 	0.39360 0.85530 0.91580 0.01500
H 	H 	0.38830 0.79210 0.75440 0.09000
C 	C 	0.38499 0.81650 0.97664 -0.04300
H 	H 	0.38430 0.84290 0.95720 0.02400
H 	H 	0.37280 0.68340 0.02650 0.06700
H 	H 	0.45330 0.68690 0.02680 0.03500
H 	H 	0.30920 0.80030 0.76240 0.07400
C 	C 	0.34291 0.83371 0.86696 -0.00200
H 	H 	0.32050 0.83000 0.89070 0.00900
H 	H 	0.45170 0.81580 0.77820 0.17800
H 	H 	0.39710 0.77160 0.74280 -0.09200
O 	O 	0.47700 0.76000 0.71800 0.47600
H 	H 	0.45340 0.74380 0.72060 -0.10700
H 	H 	0.47880 0.76340 0.78250 -0.38600
H 	H 	0.51350 0.73640 0.76670 -0.72400
N 	N 	0.88610 0.26927 0.46177 -0.28900
N 	N 	0.88172 0.30592 0.35999 -0.29300
C 	C 	0.85506 0.29890 0.47688 0.06500
H 	H 	0.83570 0.31740 0.45790 -0.01100
H 	H 	0.95960 0.21570 0.47340 0.06500
H 	H 	0.89930 0.16150 0.47320 0.00200
C 	C 	0.88964 0.35072 0.38357 -0.03500
H 	H 	0.89360 0.35530 0.41580 0.01200
H 	H 	0.88830 0.29210 0.25440 0.09300
C 	C 	0.88499 0.31650 0.47664 -0.06800
H 	H 	0.88430 0.34290 0.45720 0.02800
H 	H 	0.87280 0.18340 0.52650 0.05700
H 	H 	0.95330 0.18690 0.52680 0.03400
H 	H 	0.80920 0.30030 0.26240 0.08400
C 	C 	0.84291 0.33371 0.36696 -0.00400
H 	H 	0.82050 0.33000 0.39070 0.00700
H 	H 	0.95170 0.31580 0.27820 0.18500
H 	H 	0.89710 0.27160 0.24280 -0.10400
O 	O 	0.97700 0.26000 0.21800 0.55400
H 	H 	0.95340 0.24380 0.22060 -0.13000
H 	H 	0.97880 0.26340 0.28250 -0.36900
H 	H 	0.01350 0.23640 0.26670 -0.75100
N 	N 	0.76927 0.96177 0.38610 -0.28400
N 	N 	0.80592 0.85999 0.38172 -0.29200
C 	C 	0.79890 0.97688 0.35506 0.08400
H 	H 	0.81740 0.95790 0.33570 -0.01500
H 	H 	0.71570 0.97340 0.45960 0.07700
H 	H 	0.66150 0.97320 0.39930 0.01800
C 	C 	0.85072 0.88357 0.38964 -0.03400
H 	H 	0.85530 0.91580 0.39360 0.01500
H 	H 	0.79210 0.75440 0.38830 0.09000
C 	C 	0.81650 0.97664 0.38499 -0.04300
H 	H 	0.84290 0.95720 0.38430 0.02400
H 	H 	0.68340 0.02650 0.37280 0.06700
H 	H 	0.68690 0.02680 0.45330 0.03500
H 	H 	0.80030 0.76240 0.30920 0.07400
C 	C 	0.83371 0.86696 0.34291 -0.00200
H 	H 	0.83000 0.89070 0.32050 0.00900
H 	H 	0.81580 0.77820 0.45170 0.17800
H 	H 	0.77160 0.74280 0.39710 -0.09200
O 	O 	0.76000 0.71800 0.47700 0.47600
H 	H 	0.74380 0.72060 0.45340 -0.10700
H 	H 	0.76340 0.78250 0.47880 -0.38600
H 	H 	0.73640 0.76670 0.51350 -0.72400
N 	N 	0.26927 0.46177 0.88610 -0.28900
N 	N 	0.30592 0.35999 0.88172 -0.29300
C 	C 	0.29890 0.47688 0.85506 0.06500
H 	H 	0.31740 0.45790 0.83570 -0.01100
H 	H 	0.21570 0.47340 0.95960 0.06500
H 	H 	0.16150 0.47320 0.89930 0.00200
C 	C 	0.35072 0.38357 0.88964 -0.03500
H 	H 	0.35530 0.41580 0.89360 0.01200
H 	H 	0.29210 0.25440 0.88830 0.09300
C 	C 	0.31650 0.47664 0.88499 -0.06800
H 	H 	0.34290 0.45720 0.88430 0.02800
H 	H 	0.18340 0.52650 0.87280 0.05700
H 	H 	0.18690 0.52680 0.95330 0.03400
H 	H 	0.30030 0.26240 0.80920 0.08400
C 	C 	0.33371 0.36696 0.84291 -0.00400
H 	H 	0.33000 0.39070 0.82050 0.00700
H 	H 	0.31580 0.27820 0.95170 0.18500
H 	H 	0.27160 0.24280 0.89710 -0.10400
O 	O 	0.26000 0.21800 0.97700 0.55400
H 	H 	0.24380 0.22060 0.95340 -0.13000
H 	H 	0.26340 0.28250 0.97880 -0.36900
H 	H 	0.23640 0.26670 0.01350 -0.75100
N 	N 	0.23073 0.96177 0.61390 -0.28400
N 	N 	0.19408 0.85999 0.61828 -0.29200
C 	C 	0.20110 0.97688 0.64494 0.08400
H 	H 	0.18260 0.95790 0.66430 -0.01600
H 	H 	0.28430 0.97340 0.54040 0.07700
H 	H 	0.33850 0.97320 0.60070 0.01800
C 	C 	0.14928 0.88357 0.61036 -0.03600
H 	H 	0.14470 0.91580 0.60640 0.01300
H 	H 	0.20790 0.75440 0.61170 0.09100
C 	C 	0.18350 0.97664 0.61501 -0.04400
H 	H 	0.15710 0.95720 0.61570 0.02200
H 	H 	0.31660 0.02650 0.62720 0.06700
H 	H 	0.31310 0.02680 0.54670 0.03500
H 	H 	0.19970 0.76240 0.69080 0.07300
C 	C 	0.16629 0.86696 0.65709 -0.00200
H 	H 	0.17000 0.89070 0.67950 0.00800
H 	H 	0.18420 0.77820 0.54830 0.17800
H 	H 	0.22840 0.74280 0.60290 -0.09200
O 	O 	0.24000 0.71800 0.52300 0.47600
H 	H 	0.25620 0.72060 0.54660 -0.10700
H 	H 	0.23660 0.78250 0.52120 -0.38600
H 	H 	0.26360 0.76670 0.48650 -0.72400
N 	N 	0.73073 0.46177 0.11390 -0.28800
N 	N 	0.69408 0.35999 0.11828 -0.29200
C 	C 	0.70110 0.47688 0.14494 0.06700
H 	H 	0.68260 0.45790 0.16430 -0.01200
H 	H 	0.78430 0.47340 0.04040 0.05200
H 	H 	0.83850 0.47320 0.10070 0.00400
C 	C 	0.64928 0.38357 0.11036 -0.03500
H 	H 	0.64470 0.41580 0.10640 0.01100
H 	H 	0.70790 0.25440 0.11170 0.09200
C 	C 	0.68350 0.47664 0.11501 -0.07000
H 	H 	0.65710 0.45720 0.11570 0.02700
H 	H 	0.81660 0.52650 0.12720 0.05700
H 	H 	0.81310 0.52680 0.04670 0.02900
H 	H 	0.69970 0.26240 0.19080 0.08500
C 	C 	0.66629 0.36696 0.15709 -0.00300
H 	H 	0.67000 0.39070 0.17950 0.00700
H 	H 	0.68420 0.27820 0.04830 0.17700
H 	H 	0.72840 0.24280 0.10290 -0.10400
O 	O 	0.74000 0.21800 0.02300 0.52100
H 	H 	0.75620 0.22060 0.04660 -0.12100
H 	H 	0.73660 0.28250 0.02120 -0.37900
H 	H 	0.76360 0.26670 0.98650 -0.74000
N 	N 	0.23073 0.03823 0.38610 -0.28300
N 	N 	0.19408 0.14001 0.38172 -0.29200
C 	C 	0.20110 0.02312 0.35506 0.04400
H 	H 	0.18260 0.04210 0.33570 -0.01000
H 	H 	0.28430 0.02660 0.45960 0.06400
H 	H 	0.33850 0.02680 0.39930 0.00300
C 	C 	0.14928 0.11643 0.38964 -0.03500
H 	H 	0.14470 0.08420 0.39360 0.00800
H 	H 	0.20790 0.24560 0.38830 0.09100
C 	C 	0.18350 0.02336 0.38499 -0.09000
H 	H 	0.15710 0.04280 0.38430 0.03000
H 	H 	0.31660 0.97350 0.37280 0.08100
H 	H 	0.31310 0.97320 0.45330 0.04800
H 	H 	0.19970 0.23760 0.30920 0.07100
C 	C 	0.16629 0.13304 0.34291 -0.00300
H 	H 	0.17000 0.10930 0.32050 0.00400
H 	H 	0.18420 0.22180 0.45170 0.17800
H 	H 	0.22840 0.25720 0.39710 -0.09200
O 	O 	0.24000 0.28200 0.47700 0.47600
H 	H 	0.25620 0.27940 0.45340 -0.10700
H 	H 	0.23660 0.21750 0.47880 -0.38600
H 	H 	0.26360 0.23330 0.51350 -0.72400
N 	N 	0.73073 0.53823 0.88610 -0.28900
N 	N 	0.69408 0.64001 0.88172 -0.29300
C 	C 	0.70110 0.52312 0.85506 0.06500
H 	H 	0.68260 0.54210 0.83570 -0.01100
H 	H 	0.78430 0.52660 0.95960 0.06300
H 	H 	0.83850 0.52680 0.89930 0.00400
C 	C 	0.64928 0.61643 0.88964 -0.03500
H 	H 	0.64470 0.58420 0.89360 0.01200
H 	H 	0.70790 0.74560 0.88830 0.09200
C 	C 	0.68350 0.52336 0.88499 -0.06800
H 	H 	0.65710 0.54280 0.88430 0.02800
H 	H 	0.81660 0.47350 0.87280 0.05600
H 	H 	0.81310 0.47320 0.95330 0.03600
H 	H 	0.69970 0.73760 0.80920 0.08300
C 	C 	0.66629 0.63304 0.84291 -0.00400
H 	H 	0.67000 0.60930 0.82050 0.00700
H 	H 	0.68420 0.72180 0.95170 0.18500
H 	H 	0.72840 0.75720 0.89710 -0.10200
O 	O 	0.74000 0.78200 0.97700 0.55400
H 	H 	0.75620 0.77940 0.95340 -0.12700
H 	H 	0.73660 0.71750 0.97880 -0.37000
H 	H 	0.76360 0.73330 0.01350 -0.75200
N 	N 	0.76927 0.03823 0.61390 -0.28300
N 	N 	0.80592 0.14001 0.61828 -0.29200
C 	C 	0.79890 0.02312 0.64494 0.04400
H 	H 	0.81740 0.04210 0.66430 -0.00800
H 	H 	0.71570 0.02660 0.54040 0.06400
H 	H 	0.66150 0.02680 0.60070 0.00300
C 	C 	0.85072 0.11643 0.61036 -0.03300
H 	H 	0.85530 0.08420 0.60640 0.01000
H 	H 	0.79210 0.24560 0.61170 0.09100
C 	C 	0.81650 0.02336 0.61501 -0.09000
H 	H 	0.84290 0.04280 0.61570 0.03200
H 	H 	0.68340 0.97350 0.62720 0.08200
H 	H 	0.68690 0.97320 0.54670 0.04800
H 	H 	0.80030 0.23760 0.69080 0.07300
C 	C 	0.83371 0.13304 0.65709 -0.00300
H 	H 	0.83000 0.10930 0.67950 0.00700
H 	H 	0.81580 0.22180 0.54830 0.17800
H 	H 	0.77160 0.25720 0.60290 -0.09200
O 	O 	0.76000 0.28200 0.52300 0.47600
H 	H 	0.74380 0.27940 0.54660 -0.10700
H 	H 	0.76340 0.21750 0.52120 -0.38600
H 	H 	0.73640 0.23330 0.48650 -0.72400
N 	N 	0.26927 0.53823 0.11390 -0.28800
N 	N 	0.30592 0.64001 0.11828 -0.29200
C 	C 	0.29890 0.52312 0.14494 0.06700
H 	H 	0.31740 0.54210 0.16430 -0.01200
H 	H 	0.21570 0.52660 0.04040 0.05300
H 	H 	0.16150 0.52680 0.10070 0.00100
C 	C 	0.35072 0.61643 0.11036 -0.03500
H 	H 	0.35530 0.58420 0.10640 0.01100
H 	H 	0.29210 0.74560 0.11170 0.09200
C 	C 	0.31650 0.52336 0.11501 -0.07000
H 	H 	0.34290 0.54280 0.11570 0.02700
H 	H 	0.18340 0.47350 0.12720 0.05800
H 	H 	0.18690 0.47320 0.04670 0.02600
H 	H 	0.30030 0.73760 0.19080 0.08400
C 	C 	0.33371 0.63304 0.15709 -0.00300
H 	H 	0.33000 0.60930 0.17950 0.00700
H 	H 	0.31580 0.72180 0.04830 0.17700
H 	H 	0.27160 0.75720 0.10290 -0.10400
O 	O 	0.26000 0.78200 0.02300 0.52100
H 	H 	0.24380 0.77940 0.04660 -0.12000
H 	H 	0.26340 0.71750 0.02120 -0.37900
H 	H 	0.23640 0.73330 0.98650 -0.74000
N 	N 	0.96177 0.61390 0.23073 -0.28400
N 	N 	0.85999 0.61828 0.19408 -0.29200
C 	C 	0.97688 0.64494 0.20110 0.08400
H 	H 	0.95790 0.66430 0.18260 -0.01600
H 	H 	0.97340 0.54040 0.28430 0.07700
H 	H 	0.97320 0.60070 0.33850 0.01800
C 	C 	0.88357 0.61036 0.14928 -0.03600
H 	H 	0.91580 0.60640 0.14470 0.01300
H 	H 	0.75440 0.61170 0.20790 0.09100
C 	C 	0.97664 0.61501 0.18350 -0.04400
H 	H 	0.95720 0.61570 0.15710 0.02200
H 	H 	0.02650 0.62720 0.31660 0.06700
H 	H 	0.02680 0.54670 0.31310 0.03500
H 	H 	0.76240 0.69080 0.19970 0.07300
C 	C 	0.86696 0.65709 0.16629 -0.00200
H 	H 	0.89070 0.67950 0.17000 0.00800
H 	H 	0.77820 0.54830 0.18420 0.17800
H 	H 	0.74280 0.60290 0.22840 -0.09200
O 	O 	0.71800 0.52300 0.24000 0.47600
H 	H 	0.72060 0.54660 0.25620 -0.10700
H 	H 	0.78250 0.52120 0.23660 -0.38600
H 	H 	0.76670 0.48650 0.26360 -0.72400
N 	N 	0.46177 0.11390 0.73073 -0.28800
N 	N 	0.35999 0.11828 0.69408 -0.29200
C 	C 	0.47688 0.14494 0.70110 0.06700
H 	H 	0.45790 0.16430 0.68260 -0.01200
H 	H 	0.47340 0.04040 0.78430 0.05200
H 	H 	0.47320 0.10070 0.83850 0.00400
C 	C 	0.38357 0.11036 0.64928 -0.03500
H 	H 	0.41580 0.10640 0.64470 0.01100
H 	H 	0.25440 0.11170 0.70790 0.09200
C 	C 	0.47664 0.11501 0.68350 -0.07000
H 	H 	0.45720 0.11570 0.65710 0.02700
H 	H 	0.52650 0.12720 0.81660 0.05700
H 	H 	0.52680 0.04670 0.81310 0.02900
H 	H 	0.26240 0.19080 0.69970 0.08500
C 	C 	0.36696 0.15709 0.66629 -0.00300
H 	H 	0.39070 0.17950 0.67000 0.00700
H 	H 	0.27820 0.04830 0.68420 0.17700
H 	H 	0.24280 0.10290 0.72840 -0.10400
O 	O 	0.21800 0.02300 0.74000 0.52100
H 	H 	0.22060 0.04660 0.75620 -0.12100
H 	H 	0.28250 0.02120 0.73660 -0.37900
H 	H 	0.26670 0.98650 0.76360 -0.74000
N 	N 	0.96177 0.38610 0.76927 -0.28400
N 	N 	0.85999 0.38172 0.80592 -0.29200
C 	C 	0.97688 0.35506 0.79890 0.08400
H 	H 	0.95790 0.33570 0.81740 -0.01500
H 	H 	0.97340 0.45960 0.71570 0.07700
H 	H 	0.97320 0.39930 0.66150 0.01800
C 	C 	0.88357 0.38964 0.85072 -0.03400
H 	H 	0.91580 0.39360 0.85530 0.01500
H 	H 	0.75440 0.38830 0.79210 0.09000
C 	C 	0.97664 0.38499 0.81650 -0.04300
H 	H 	0.95720 0.38430 0.84290 0.02400
H 	H 	0.02650 0.37280 0.68340 0.06700
H 	H 	0.02680 0.45330 0.68690 0.03500
H 	H 	0.76240 0.30920 0.80030 0.07400
C 	C 	0.86696 0.34291 0.83371 -0.00200
H 	H 	0.89070 0.32050 0.83000 0.00900
H 	H 	0.77820 0.45170 0.81580 0.17800
H 	H 	0.74280 0.39710 0.77160 -0.09200
O 	O 	0.71800 0.47700 0.76000 0.47600
H 	H 	0.72060 0.45340 0.74380 -0.10700
H 	H 	0.78250 0.47880 0.76340 -0.38600
H 	H 	0.76670 0.51350 0.73640 -0.72400
N 	N 	0.46177 0.88610 0.26927 -0.28900
N 	N 	0.35999 0.88172 0.30592 -0.29300
C 	C 	0.47688 0.85506 0.29890 0.06500
H 	H 	0.45790 0.83570 0.31740 -0.01100
H 	H 	0.47340 0.95960 0.21570 0.06500
H 	H 	0.47320 0.89930 0.16150 0.00200
C 	C 	0.38357 0.88964 0.35072 -0.03500
H 	H 	0.41580 0.89360 0.35530 0.01200
H 	H 	0.25440 0.88830 0.29210 0.09300
C 	C 	0.47664 0.88499 0.31650 -0.06800
H 	H 	0.45720 0.88430 0.34290 0.02800
H 	H 	0.52650 0.87280 0.18340 0.05700
H 	H 	0.52680 0.95330 0.18690 0.03400
H 	H 	0.26240 0.80920 0.30030 0.08400
C 	C 	0.36696 0.84291 0.33371 -0.00400
H 	H 	0.39070 0.82050 0.33000 0.00700
H 	H 	0.27820 0.95170 0.31580 0.18500
H 	H 	0.24280 0.89710 0.27160 -0.10400
O 	O 	0.21800 0.97700 0.26000 0.55400
H 	H 	0.22060 0.95340 0.24380 -0.13000
H 	H 	0.28250 0.97880 0.26340 -0.36900
H 	H 	0.26670 0.01350 0.23640 -0.75100
N 	N 	0.03823 0.61390 0.76927 -0.28300
N 	N 	0.14001 0.61828 0.80592 -0.29200
C 	C 	0.02312 0.64494 0.79890 0.04400
H 	H 	0.04210 0.66430 0.81740 -0.00800
H 	H 	0.02660 0.54040 0.71570 0.06400
H 	H 	0.02680 0.60070 0.66150 0.00300
C 	C 	0.11643 0.61036 0.85072 -0.03300
H 	H 	0.08420 0.60640 0.85530 0.01000
H 	H 	0.24560 0.61170 0.79210 0.09100
C 	C 	0.02336 0.61501 0.81650 -0.09000
H 	H 	0.04280 0.61570 0.84290 0.03200
H 	H 	0.97350 0.62720 0.68340 0.08200
H 	H 	0.97320 0.54670 0.68690 0.04800
H 	H 	0.23760 0.69080 0.80030 0.07300
C 	C 	0.13304 0.65709 0.83371 -0.00300
H 	H 	0.10930 0.67950 0.83000 0.00700
H 	H 	0.22180 0.54830 0.81580 0.17800
H 	H 	0.25720 0.60290 0.77160 -0.09200
O 	O 	0.28200 0.52300 0.76000 0.47600
H 	H 	0.27940 0.54660 0.74380 -0.10700
H 	H 	0.21750 0.52120 0.76340 -0.38600
H 	H 	0.23330 0.48650 0.73640 -0.72400
N 	N 	0.53823 0.11390 0.26927 -0.28800
N 	N 	0.64001 0.11828 0.30592 -0.29200
C 	C 	0.52312 0.14494 0.29890 0.06700
H 	H 	0.54210 0.16430 0.31740 -0.01200
H 	H 	0.52660 0.04040 0.21570 0.05300
H 	H 	0.52680 0.10070 0.16150 0.00100
C 	C 	0.61643 0.11036 0.35072 -0.03500
H 	H 	0.58420 0.10640 0.35530 0.01100
H 	H 	0.74560 0.11170 0.29210 0.09200
C 	C 	0.52336 0.11501 0.31650 -0.07000
H 	H 	0.54280 0.11570 0.34290 0.02700
H 	H 	0.47350 0.12720 0.18340 0.05800
H 	H 	0.47320 0.04670 0.18690 0.02600
H 	H 	0.73760 0.19080 0.30030 0.08400
C 	C 	0.63304 0.15709 0.33371 -0.00300
H 	H 	0.60930 0.17950 0.33000 0.00700
H 	H 	0.72180 0.04830 0.31580 0.17700
H 	H 	0.75720 0.10290 0.27160 -0.10400
O 	O 	0.78200 0.02300 0.26000 0.52100
H 	H 	0.77940 0.04660 0.24380 -0.12000
H 	H 	0.71750 0.02120 0.26340 -0.37900
H 	H 	0.73330 0.98650 0.23640 -0.74000
N 	N 	0.03823 0.38610 0.23073 -0.28300
N 	N 	0.14001 0.38172 0.19408 -0.29200
C 	C 	0.02312 0.35506 0.20110 0.04400
H 	H 	0.04210 0.33570 0.18260 -0.01000
H 	H 	0.02660 0.45960 0.28430 0.06400
H 	H 	0.02680 0.39930 0.33850 0.00300
C 	C 	0.11643 0.38964 0.14928 -0.03500
H 	H 	0.08420 0.39360 0.14470 0.00800
H 	H 	0.24560 0.38830 0.20790 0.09100
C 	C 	0.02336 0.38499 0.18350 -0.09000
H 	H 	0.04280 0.38430 0.15710 0.03000
H 	H 	0.97350 0.37280 0.31660 0.08100
H 	H 	0.97320 0.45330 0.31310 0.04800
H 	H 	0.23760 0.30920 0.19970 0.07100
C 	C 	0.13304 0.34291 0.16629 -0.00300
H 	H 	0.10930 0.32050 0.17000 0.00400
H 	H 	0.22180 0.45170 0.18420 0.17800
H 	H 	0.25720 0.39710 0.22840 -0.09200
O 	O 	0.28200 0.47700 0.24000 0.47600
H 	H 	0.27940 0.45340 0.25620 -0.10700
H 	H 	0.21750 0.47880 0.23660 -0.38600
H 	H 	0.23330 0.51350 0.26360 -0.72400
N 	N 	0.53823 0.88610 0.73073 -0.28900
N 	N 	0.64001 0.88172 0.69408 -0.29300
C 	C 	0.52312 0.85506 0.70110 0.06500
H 	H 	0.54210 0.83570 0.68260 -0.01100
H 	H 	0.52660 0.95960 0.78430 0.06300
H 	H 	0.52680 0.89930 0.83850 0.00400
C 	C 	0.61643 0.88964 0.64928 -0.03500
H 	H 	0.58420 0.89360 0.64470 0.01200
H 	H 	0.74560 0.88830 0.70790 0.09200
C 	C 	0.52336 0.88499 0.68350 -0.06800
H 	H 	0.54280 0.88430 0.65710 0.02800
H 	H 	0.47350 0.87280 0.81660 0.05600
H 	H 	0.47320 0.95330 0.81310 0.03600
H 	H 	0.73760 0.80920 0.69970 0.08300
C 	C 	0.63304 0.84291 0.66629 -0.00400
H 	H 	0.60930 0.82050 0.67000 0.00700
H 	H 	0.72180 0.95170 0.68420 0.18500
H 	H 	0.75720 0.89710 0.72840 -0.10200
O 	O 	0.78200 0.97700 0.74000 0.55400
H 	H 	0.77940 0.95340 0.75620 -0.12700
H 	H 	0.71750 0.97880 0.73660 -0.37000
H 	H 	0.73330 0.01350 0.76360 -0.75200
Zn	Zn	0.25000 0.39625 0.10375 1.17400
Zn	Zn	0.75000 0.60375 0.10375 1.17400
Zn	Zn	0.75000 0.39625 0.89625 1.17400
Zn	Zn	0.25000 0.60375 0.89625 1.17400
Zn	Zn	0.10375 0.25000 0.39625 1.17400
Zn	Zn	0.10375 0.75000 0.60375 1.17400
Zn	Zn	0.89625 0.75000 0.39625 1.17400
Zn	Zn	0.89625 0.25000 0.60375 1.17400
Zn	Zn	0.39625 0.10375 0.25000 1.17400
Zn	Zn	0.60375 0.10375 0.75000 1.17400
Zn	Zn	0.39625 0.89625 0.75000 1.17400
Zn	Zn	0.60375 0.89625 0.25000 1.17400
Zn	Zn	0.39625 0.25000 0.89625 1.17400
Zn	Zn	0.60375 0.75000 0.89625 1.17400
Zn	Zn	0.39625 0.75000 0.10375 1.17400
Zn	Zn	0.60375 0.25000 0.10375 1.17400
Zn	Zn	0.25000 0.10375 0.60375 1.17400
Zn	Zn	0.75000 0.10375 0.39625 1.17400
Zn	Zn	0.75000 0.89625 0.60375 1.17400
Zn	Zn	0.25000 0.89625 0.39625 1.17400
Zn	Zn	0.10375 0.39625 0.75000 1.17400
Zn	Zn	0.10375 0.60375 0.25000 1.17400
Zn	Zn	0.89625 0.39625 0.25000 1.17400
Zn	Zn	0.89625 0.60375 0.75000 1.17400
Zn	Zn	0.75000 0.60375 0.89625 1.17400
Zn	Zn	0.25000 0.10375 0.39625 1.17400
Zn	Zn	0.25000 0.39625 0.89625 1.17400
Zn	Zn	0.25000 0.60375 0.10375 1.17400
Zn	Zn	0.75000 0.39625 0.10375 1.17400
Zn	Zn	0.89625 0.75000 0.60375 1.17400
Zn	Zn	0.39625 0.25000 0.10375 1.17400
Zn	Zn	0.89625 0.25000 0.39625 1.17400
Zn	Zn	0.10375 0.25000 0.60375 1.17400
Zn	Zn	0.10375 0.75000 0.39625 1.17400
Zn	Zn	0.60375 0.89625 0.75000 1.17400
Zn	Zn	0.10375 0.39625 0.25000 1.17400
Zn	Zn	0.39625 0.89625 0.25000 1.17400
Zn	Zn	0.60375 0.10375 0.25000 1.17400
Zn	Zn	0.39625 0.10375 0.75000 1.17400
Zn	Zn	0.60375 0.75000 0.10375 1.17400
Zn	Zn	0.60375 0.25000 0.89625 1.17400
Zn	Zn	0.39625 0.75000 0.89625 1.17400
Zn	Zn	0.75000 0.89625 0.39625 1.17400
Zn	Zn	0.25000 0.89625 0.60375 1.17400
Zn	Zn	0.75000 0.10375 0.60375 1.17400
Zn	Zn	0.89625 0.60375 0.25000 1.17400
Zn	Zn	0.89625 0.39625 0.75000 1.17400
Zn	Zn	0.10375 0.60375 0.75000 1.17400
C 	C 	0.24990 0.40460 -0.00000 0.10400
C 	C 	0.28760 0.44060 -0.00000 -0.27300
C 	C 	0.33490 0.41790 -0.00000 0.04300
H 	H 	0.35760 0.44160 -0.00000 -0.01100
C 	C 	0.25450 0.38684 -0.00000 0.04100
C 	C 	0.30550 0.38860 -0.00000 -0.25700
C 	C 	0.32350 0.43740 -0.00000 -0.02700
H 	H 	0.35620 0.43610 -0.00000 -0.00500
C 	C 	0.74990 0.90460 0.50000 0.11300
C 	C 	0.78760 0.94060 0.50000 -0.24000
C 	C 	0.83490 0.91790 0.50000 0.04300
H 	H 	0.85760 0.94160 0.50000 -0.00400
C 	C 	0.75450 0.88684 0.50000 0.04200
C 	C 	0.80550 0.88860 0.50000 -0.20600
C 	C 	0.82350 0.93740 0.50000 -0.02700
H 	H 	0.85620 0.93610 0.50000 0.00500
C 	C 	0.75010 0.59540 -0.00000 0.10400
C 	C 	0.71240 0.55940 -0.00000 -0.27400
C 	C 	0.66510 0.58210 -0.00000 0.04300
H 	H 	0.64240 0.55840 -0.00000 -0.01100
C 	C 	0.74550 0.61316 -0.00000 0.04200
C 	C 	0.69450 0.61140 -0.00000 -0.25700
C 	C 	0.67650 0.56260 -0.00000 -0.02700
H 	H 	0.64380 0.56390 -0.00000 -0.00500
C 	C 	0.25010 0.09540 0.50000 0.11900
C 	C 	0.21240 0.05940 0.50000 -0.23300
C 	C 	0.16510 0.08210 0.50000 0.04500
H 	H 	0.14240 0.05840 0.50000 -0.00800
C 	C 	0.24550 0.11316 0.50000 0.03500
C 	C 	0.19450 0.11140 0.50000 -0.21100
C 	C 	0.17650 0.06260 0.50000 -0.01700
H 	H 	0.14380 0.06390 0.50000 -0.00400
C 	C 	0.75010 0.40460 -0.00000 0.10400
C 	C 	0.71240 0.44060 -0.00000 -0.27400
C 	C 	0.66510 0.41790 -0.00000 0.04300
H 	H 	0.64240 0.44160 -0.00000 -0.01100
C 	C 	0.74550 0.38684 -0.00000 0.04200
C 	C 	0.69450 0.38860 -0.00000 -0.25700
C 	C 	0.67650 0.43740 -0.00000 -0.02700
H 	H 	0.64380 0.43610 -0.00000 -0.00500
C 	C 	0.25010 0.90460 0.50000 0.11300
C 	C 	0.21240 0.94060 0.50000 -0.24400
C 	C 	0.16510 0.91790 0.50000 0.04800
H 	H 	0.14240 0.94160 0.50000 -0.00700
C 	C 	0.24550 0.88684 0.50000 0.04300
C 	C 	0.19450 0.88860 0.50000 -0.20900
C 	C 	0.17650 0.93740 0.50000 -0.02200
H 	H 	0.14380 0.93610 0.50000 0.00300
C 	C 	0.24990 0.59540 -0.00000 0.10400
C 	C 	0.28760 0.55940 -0.00000 -0.27300
C 	C 	0.33490 0.58210 -0.00000 0.04300
H 	H 	0.35760 0.55840 -0.00000 -0.01100
C 	C 	0.25450 0.61316 -0.00000 0.04100
C 	C 	0.30550 0.61140 -0.00000 -0.25700
C 	C 	0.32350 0.56260 -0.00000 -0.02700
H 	H 	0.35620 0.56390 -0.00000 -0.00500
C 	C 	0.74990 0.09540 0.50000 0.11900
C 	C 	0.78760 0.05940 0.50000 -0.22900
C 	C 	0.83490 0.08210 0.50000 0.04100
H 	H 	0.85760 0.05840 0.50000 -0.00500
C 	C 	0.75450 0.11316 0.50000 0.03400
C 	C 	0.80550 0.11140 0.50000 -0.20800
C 	C 	0.82350 0.06260 0.50000 -0.02100
H 	H 	0.85620 0.06390 0.50000 -0.00200
C 	C 	-0.00000 0.24990 0.40460 0.10400
C 	C 	-0.00000 0.28760 0.44060 -0.27300
C 	C 	0.00000 0.33490 0.41790 0.04300
H 	H 	0.00000 0.35760 0.44160 -0.01100
C 	C 	0.00000 0.25450 0.38684 0.04100
C 	C 	-0.00000 0.30550 0.38860 -0.25700
C 	C 	-0.00000 0.32350 0.43740 -0.02700
H 	H 	0.00000 0.35620 0.43610 -0.00500
C 	C 	0.50000 0.74990 0.90460 0.11300
C 	C 	0.50000 0.78760 0.94060 -0.24000
C 	C 	0.50000 0.83490 0.91790 0.04300
H 	H 	0.50000 0.85760 0.94160 -0.00400
C 	C 	0.50000 0.75450 0.88684 0.04200
C 	C 	0.50000 0.80550 0.88860 -0.20600
C 	C 	0.50000 0.82350 0.93740 -0.02700
H 	H 	0.50000 0.85620 0.93610 0.00500
C 	C 	0.00000 0.75010 0.59540 0.10400
C 	C 	-0.00000 0.71240 0.55940 -0.27400
C 	C 	0.00000 0.66510 0.58210 0.04300
H 	H 	-0.00000 0.64240 0.55840 -0.01100
C 	C 	-0.00000 0.74550 0.61316 0.04200
C 	C 	0.00000 0.69450 0.61140 -0.25700
C 	C 	0.00000 0.67650 0.56260 -0.02700
H 	H 	-0.00000 0.64380 0.56390 -0.00500
C 	C 	0.50000 0.25010 0.09540 0.11900
C 	C 	0.50000 0.21240 0.05940 -0.23300
C 	C 	0.50000 0.16510 0.08210 0.04500
H 	H 	0.50000 0.14240 0.05840 -0.00800
C 	C 	0.50000 0.24550 0.11316 0.03500
C 	C 	0.50000 0.19450 0.11140 -0.21100
C 	C 	0.50000 0.17650 0.06260 -0.01700
H 	H 	0.50000 0.14380 0.06390 -0.00400
C 	C 	-0.00000 0.75010 0.40460 0.10400
C 	C 	-0.00000 0.71240 0.44060 -0.27400
C 	C 	0.00000 0.66510 0.41790 0.04300
H 	H 	0.00000 0.64240 0.44160 -0.01100
C 	C 	-0.00000 0.74550 0.38684 0.04200
C 	C 	-0.00000 0.69450 0.38860 -0.25700
C 	C 	0.00000 0.67650 0.43740 -0.02700
H 	H 	-0.00000 0.64380 0.43610 -0.00500
C 	C 	0.50000 0.25010 0.90460 0.11300
C 	C 	0.50000 0.21240 0.94060 -0.24400
C 	C 	0.50000 0.16510 0.91790 0.04800
H 	H 	0.50000 0.14240 0.94160 -0.00700
C 	C 	0.50000 0.24550 0.88684 0.04300
C 	C 	0.50000 0.19450 0.88860 -0.20900
C 	C 	0.50000 0.17650 0.93740 -0.02200
H 	H 	0.50000 0.14380 0.93610 0.00300
C 	C 	-0.00000 0.24990 0.59540 0.10400
C 	C 	-0.00000 0.28760 0.55940 -0.27300
C 	C 	-0.00000 0.33490 0.58210 0.04300
H 	H 	-0.00000 0.35760 0.55840 -0.01100
C 	C 	0.00000 0.25450 0.61316 0.04100
C 	C 	0.00000 0.30550 0.61140 -0.25700
C 	C 	-0.00000 0.32350 0.56260 -0.02700
H 	H 	-0.00000 0.35620 0.56390 -0.00500
C 	C 	0.50000 0.74990 0.09540 0.11900
C 	C 	0.50000 0.78760 0.05940 -0.22900
C 	C 	0.50000 0.83490 0.08210 0.04100
H 	H 	0.50000 0.85760 0.05840 -0.00500
C 	C 	0.50000 0.75450 0.11316 0.03400
C 	C 	0.50000 0.80550 0.11140 -0.20800
C 	C 	0.50000 0.82350 0.06260 -0.02100
H 	H 	0.50000 0.85620 0.06390 -0.00200
C 	C 	0.40460 0.00000 0.24990 0.10400
C 	C 	0.44060 -0.00000 0.28760 -0.27300
C 	C 	0.41790 -0.00000 0.33490 0.04300
H 	H 	0.44160 0.00000 0.35760 -0.01100
C 	C 	0.38684 -0.00000 0.25450 0.04100
C 	C 	0.38860 -0.00000 0.30550 -0.25700
C 	C 	0.43740 -0.00000 0.32350 -0.02700
H 	H 	0.43610 0.00000 0.35620 -0.00500
C 	C 	0.90460 0.50000 0.74990 0.11300
C 	C 	0.94060 0.50000 0.78760 -0.24000
C 	C 	0.91790 0.50000 0.83490 0.04300
H 	H 	0.94160 0.50000 0.85760 -0.00400
C 	C 	0.88684 0.50000 0.75450 0.04200
C 	C 	0.88860 0.50000 0.80550 -0.20600
C 	C 	0.93740 0.50000 0.82350 -0.02700
H 	H 	0.93610 0.50000 0.85620 0.00500
C 	C 	0.59540 -0.00000 0.75010 0.10400
C 	C 	0.55940 0.00000 0.71240 -0.27400
C 	C 	0.58210 0.00000 0.66510 0.04300
H 	H 	0.55840 -0.00000 0.64240 -0.01100
C 	C 	0.61316 -0.00000 0.74550 0.04200
C 	C 	0.61140 0.00000 0.69450 -0.25700
C 	C 	0.56260 0.00000 0.67650 -0.02700
H 	H 	0.56390 0.00000 0.64380 -0.00500
C 	C 	0.09540 0.50000 0.25010 0.11900
C 	C 	0.05940 0.50000 0.21240 -0.23300
C 	C 	0.08210 0.50000 0.16510 0.04500
H 	H 	0.05840 0.50000 0.14240 -0.00800
C 	C 	0.11316 0.50000 0.24550 0.03500
C 	C 	0.11140 0.50000 0.19450 -0.21100
C 	C 	0.06260 0.50000 0.17650 -0.01700
H 	H 	0.06390 0.50000 0.14380 -0.00400
C 	C 	0.40460 -0.00000 0.75010 0.10400
C 	C 	0.44060 0.00000 0.71240 -0.27400
C 	C 	0.41790 0.00000 0.66510 0.04300
H 	H 	0.44160 -0.00000 0.64240 -0.01100
C 	C 	0.38684 -0.00000 0.74550 0.04200
C 	C 	0.38860 0.00000 0.69450 -0.25700
C 	C 	0.43740 0.00000 0.67650 -0.02700
H 	H 	0.43610 0.00000 0.64380 -0.00500
C 	C 	0.90460 0.50000 0.25010 0.11300
C 	C 	0.94060 0.50000 0.21240 -0.24400
C 	C 	0.91790 0.50000 0.16510 0.04800
H 	H 	0.94160 0.50000 0.14240 -0.00700
C 	C 	0.88684 0.50000 0.24550 0.04300
C 	C 	0.88860 0.50000 0.19450 -0.20900
C 	C 	0.93740 0.50000 0.17650 -0.02200
H 	H 	0.93610 0.50000 0.14380 0.00300
C 	C 	0.59540 0.00000 0.24990 0.10400
C 	C 	0.55940 -0.00000 0.28760 -0.27300
C 	C 	0.58210 -0.00000 0.33490 0.04300
H 	H 	0.55840 0.00000 0.35760 -0.01100
C 	C 	0.61316 -0.00000 0.25450 0.04100
C 	C 	0.61140 -0.00000 0.30550 -0.25700
C 	C 	0.56260 -0.00000 0.32350 -0.02700
H 	H 	0.56390 0.00000 0.35620 -0.00500
C 	C 	0.09540 0.50000 0.74990 0.11900
C 	C 	0.05940 0.50000 0.78760 -0.22900
C 	C 	0.08210 0.50000 0.83490 0.04100
H 	H 	0.05840 0.50000 0.85760 -0.00500
C 	C 	0.11316 0.50000 0.75450 0.03400
C 	C 	0.11140 0.50000 0.80550 -0.20800
C 	C 	0.06260 0.50000 0.82350 -0.02100
H 	H 	0.06390 0.50000 0.85620 -0.00200
C 	C 	0.40460 0.24990 -0.00000 0.10400
C 	C 	0.44060 0.28760 -0.00000 -0.27300
C 	C 	0.41790 0.33490 -0.00000 0.04300
H 	H 	0.44160 0.35760 -0.00000 -0.01100
C 	C 	0.38684 0.25450 -0.00000 0.04100
C 	C 	0.38860 0.30550 -0.00000 -0.25700
C 	C 	0.43740 0.32350 -0.00000 -0.02700
H 	H 	0.43610 0.35620 -0.00000 -0.00500
C 	C 	0.90460 0.74990 0.50000 0.11300
C 	C 	0.94060 0.78760 0.50000 -0.24000
C 	C 	0.91790 0.83490 0.50000 0.04300
H 	H 	0.94160 0.85760 0.50000 -0.00400
C 	C 	0.88684 0.75450 0.50000 0.04200
C 	C 	0.88860 0.80550 0.50000 -0.20600
C 	C 	0.93740 0.82350 0.50000 -0.02700
H 	H 	0.93610 0.85620 0.50000 0.00500
C 	C 	0.59540 0.75010 -0.00000 0.10400
C 	C 	0.55940 0.71240 -0.00000 -0.27400
C 	C 	0.58210 0.66510 -0.00000 0.04300
H 	H 	0.55840 0.64240 -0.00000 -0.01100
C 	C 	0.61316 0.74550 -0.00000 0.04200
C 	C 	0.61140 0.69450 -0.00000 -0.25700
C 	C 	0.56260 0.67650 -0.00000 -0.02700
H 	H 	0.56390 0.64380 -0.00000 -0.00500
C 	C 	0.09540 0.25010 0.50000 0.11900
C 	C 	0.05940 0.21240 0.50000 -0.23300
C 	C 	0.08210 0.16510 0.50000 0.04500
H 	H 	0.05840 0.14240 0.50000 -0.00800
C 	C 	0.11316 0.24550 0.50000 0.03500
C 	C 	0.11140 0.19450 0.50000 -0.21100
C 	C 	0.06260 0.17650 0.50000 -0.01700
H 	H 	0.06390 0.14380 0.50000 -0.00400
C 	C 	0.40460 0.75010 -0.00000 0.10400
C 	C 	0.44060 0.71240 -0.00000 -0.27400
C 	C 	0.41790 0.66510 -0.00000 0.04300
H 	H 	0.44160 0.64240 -0.00000 -0.01100
C 	C 	0.38684 0.74550 -0.00000 0.04200
C 	C 	0.38860 0.69450 -0.00000 -0.25700
C 	C 	0.43740 0.67650 -0.00000 -0.02700
H 	H 	0.43610 0.64380 -0.00000 -0.00500
C 	C 	0.90460 0.25010 0.50000 0.11300
C 	C 	0.94060 0.21240 0.50000 -0.24400
C 	C 	0.91790 0.16510 0.50000 0.04800
H 	H 	0.94160 0.14240 0.50000 -0.00700
C 	C 	0.88684 0.24550 0.50000 0.04300
C 	C 	0.88860 0.19450 0.50000 -0.20900
C 	C 	0.93740 0.17650 0.50000 -0.02200
H 	H 	0.93610 0.14380 0.50000 0.00300
C 	C 	0.59540 0.24990 -0.00000 0.10400
C 	C 	0.55940 0.28760 -0.00000 -0.27300
C 	C 	0.58210 0.33490 -0.00000 0.04300
H 	H 	0.55840 0.35760 -0.00000 -0.01100
C 	C 	0.61316 0.25450 -0.00000 0.04100
C 	C 	0.61140 0.30550 -0.00000 -0.25700
C 	C 	0.56260 0.32350 -0.00000 -0.02700
H 	H 	0.56390 0.35620 -0.00000 -0.00500
C 	C 	0.09540 0.74990 0.50000 0.11900
C 	C 	0.05940 0.78760 0.50000 -0.22900
C 	C 	0.08210 0.83490 0.50000 0.04100
H 	H 	0.05840 0.85760 0.50000 -0.00500
C 	C 	0.11316 0.75450 0.50000 0.03400
C 	C 	0.11140 0.80550 0.50000 -0.20800
C 	C 	0.06260 0.82350 0.50000 -0.02100
H 	H 	0.06390 0.85620 0.50000 -0.00200
C 	C 	0.24990 0.00000 0.59540 0.10400
C 	C 	0.28760 0.00000 0.55940 -0.27300
C 	C 	0.33490 0.00000 0.58210 0.04300
H 	H 	0.35760 0.00000 0.55840 -0.01100
C 	C 	0.25450 0.00000 0.61316 0.04100
C 	C 	0.30550 -0.00000 0.61140 -0.25700
C 	C 	0.32350 0.00000 0.56260 -0.02700
H 	H 	0.35620 0.00000 0.56390 -0.00500
C 	C 	0.74990 0.50000 0.09540 0.11900
C 	C 	0.78760 0.50000 0.05940 -0.22900
C 	C 	0.83490 0.50000 0.08210 0.04100
H 	H 	0.85760 0.50000 0.05840 -0.00500
C 	C 	0.75450 0.50000 0.11316 0.03400
C 	C 	0.80550 0.50000 0.11140 -0.20800
C 	C 	0.82350 0.50000 0.06260 -0.02100
H 	H 	0.85620 0.50000 0.06390 -0.00200
C 	C 	0.75010 -0.00000 0.40460 0.10400
C 	C 	0.71240 0.00000 0.44060 -0.27400
C 	C 	0.66510 0.00000 0.41790 0.04300
H 	H 	0.64240 0.00000 0.44160 -0.01100
C 	C 	0.74550 0.00000 0.38684 0.04200
C 	C 	0.69450 -0.00000 0.38860 -0.25700
C 	C 	0.67650 0.00000 0.43740 -0.02700
H 	H 	0.64380 0.00000 0.43610 -0.00500
C 	C 	0.25010 0.50000 0.90460 0.11300
C 	C 	0.21240 0.50000 0.94060 -0.24400
C 	C 	0.16510 0.50000 0.91790 0.04800
H 	H 	0.14240 0.50000 0.94160 -0.00700
C 	C 	0.24550 0.50000 0.88684 0.04300
C 	C 	0.19450 0.50000 0.88860 -0.20900
C 	C 	0.17650 0.50000 0.93740 -0.02200
H 	H 	0.14380 0.50000 0.93610 0.00300
C 	C 	0.75010 0.00000 0.59540 0.10400
C 	C 	0.71240 0.00000 0.55940 -0.27400
C 	C 	0.66510 0.00000 0.58210 0.04300
H 	H 	0.64240 0.00000 0.55840 -0.01100
C 	C 	0.74550 0.00000 0.61316 0.04200
C 	C 	0.69450 -0.00000 0.61140 -0.25700
C 	C 	0.67650 0.00000 0.56260 -0.02700
H 	H 	0.64380 0.00000 0.56390 -0.00500
C 	C 	0.25010 0.50000 0.09540 0.11900
C 	C 	0.21240 0.50000 0.05940 -0.23300
C 	C 	0.16510 0.50000 0.08210 0.04500
H 	H 	0.14240 0.50000 0.05840 -0.00800
C 	C 	0.24550 0.50000 0.11316 0.03500
C 	C 	0.19450 0.50000 0.11140 -0.21100
C 	C 	0.17650 0.50000 0.06260 -0.01700
H 	H 	0.14380 0.50000 0.06390 -0.00400
C 	C 	0.24990 -0.00000 0.40460 0.10400
C 	C 	0.28760 0.00000 0.44060 -0.27300
C 	C 	0.33490 0.00000 0.41790 0.04300
H 	H 	0.35760 0.00000 0.44160 -0.01100
C 	C 	0.25450 0.00000 0.38684 0.04100
C 	C 	0.30550 -0.00000 0.38860 -0.25700
C 	C 	0.32350 0.00000 0.43740 -0.02700
H 	H 	0.35620 0.00000 0.43610 -0.00500
C 	C 	0.74990 0.50000 0.90460 0.11300
C 	C 	0.78760 0.50000 0.94060 -0.24000
C 	C 	0.83490 0.50000 0.91790 0.04300
H 	H 	0.85760 0.50000 0.94160 -0.00400
C 	C 	0.75450 0.50000 0.88684 0.04200
C 	C 	0.80550 0.50000 0.88860 -0.20600
C 	C 	0.82350 0.50000 0.93740 -0.02700
H 	H 	0.85620 0.50000 0.93610 0.00500
C 	C 	-0.00000 0.40460 0.75010 0.10400
C 	C 	-0.00000 0.44060 0.71240 -0.27400
C 	C 	0.00000 0.41790 0.66510 0.04300
H 	H 	0.00000 0.44160 0.64240 -0.01100
C 	C 	-0.00000 0.38684 0.74550 0.04200
C 	C 	-0.00000 0.38860 0.69450 -0.25700
C 	C 	0.00000 0.43740 0.67650 -0.02700
H 	H 	-0.00000 0.43610 0.64380 -0.00500
C 	C 	0.50000 0.90460 0.25010 0.11300
C 	C 	0.50000 0.94060 0.21240 -0.24400
C 	C 	0.50000 0.91790 0.16510 0.04800
H 	H 	0.50000 0.94160 0.14240 -0.00700
C 	C 	0.50000 0.88684 0.24550 0.04300
C 	C 	0.50000 0.88860 0.19450 -0.20900
C 	C 	0.50000 0.93740 0.17650 -0.02200
H 	H 	0.50000 0.93610 0.14380 0.00300
C 	C 	-0.00000 0.59540 0.24990 0.10400
C 	C 	0.00000 0.55940 0.28760 -0.27300
C 	C 	-0.00000 0.58210 0.33490 0.04300
H 	H 	0.00000 0.55840 0.35760 -0.01100
C 	C 	-0.00000 0.61316 0.25450 0.04100
C 	C 	0.00000 0.61140 0.30550 -0.25700
C 	C 	-0.00000 0.56260 0.32350 -0.02700
H 	H 	0.00000 0.56390 0.35620 -0.00500
C 	C 	0.50000 0.09540 0.74990 0.11900
C 	C 	0.50000 0.05940 0.78760 -0.22900
C 	C 	0.50000 0.08210 0.83490 0.04100
H 	H 	0.50000 0.05840 0.85760 -0.00500
C 	C 	0.50000 0.11316 0.75450 0.03400
C 	C 	0.50000 0.11140 0.80550 -0.20800
C 	C 	0.50000 0.06260 0.82350 -0.02100
H 	H 	0.50000 0.06390 0.85620 -0.00200
C 	C 	-0.00000 0.40460 0.24990 0.10400
C 	C 	-0.00000 0.44060 0.28760 -0.27300
C 	C 	0.00000 0.41790 0.33490 0.04300
H 	H 	0.00000 0.44160 0.35760 -0.01100
C 	C 	0.00000 0.38684 0.25450 0.04100
C 	C 	-0.00000 0.38860 0.30550 -0.25700
C 	C 	-0.00000 0.43740 0.32350 -0.02700
H 	H 	0.00000 0.43610 0.35620 -0.00500
C 	C 	0.50000 0.90460 0.74990 0.11300
C 	C 	0.50000 0.94060 0.78760 -0.24000
C 	C 	0.50000 0.91790 0.83490 0.04300
H 	H 	0.50000 0.94160 0.85760 -0.00400
C 	C 	0.50000 0.88684 0.75450 0.04200
C 	C 	0.50000 0.88860 0.80550 -0.20600
C 	C 	0.50000 0.93740 0.82350 -0.02700
H 	H 	0.50000 0.93610 0.85620 0.00500
C 	C 	0.00000 0.59540 0.75010 0.10400
C 	C 	-0.00000 0.55940 0.71240 -0.27400
C 	C 	0.00000 0.58210 0.66510 0.04300
H 	H 	-0.00000 0.55840 0.64240 -0.01100
C 	C 	-0.00000 0.61316 0.74550 0.04200
C 	C 	0.00000 0.61140 0.69450 -0.25700
C 	C 	0.00000 0.56260 0.67650 -0.02700
H 	H 	-0.00000 0.56390 0.64380 -0.00500
C 	C 	0.50000 0.09540 0.25010 0.11900
C 	C 	0.50000 0.05940 0.21240 -0.23300
C 	C 	0.50000 0.08210 0.16510 0.04500
H 	H 	0.50000 0.05840 0.14240 -0.00800
C 	C 	0.50000 0.11316 0.24550 0.03500
C 	C 	0.50000 0.11140 0.19450 -0.21100
C 	C 	0.50000 0.06260 0.17650 -0.01700
H 	H 	0.50000 0.06390 0.14380 -0.00400
C 	C 	0.18130 0.37994 0.18130 0.05000
C 	C 	0.21770 0.37370 0.21770 -0.15700
C 	C 	0.22720 0.32370 0.22720 -0.25200
H 	H 	0.25040 0.32100 0.25040 0.09200
C 	C 	0.18220 0.39580 0.18220 0.13600
C 	C 	0.20620 0.43290 0.20620 -0.34500
C 	C 	0.24010 0.41540 0.24010 0.19100
H 	H 	0.25560 0.44040 0.25560 0.08100
C 	C 	0.68130 0.87994 0.68130 0.05800
C 	C 	0.71770 0.87370 0.71770 -0.15000
C 	C 	0.72720 0.82370 0.72720 -0.27600
H 	H 	0.75040 0.82100 0.75040 0.10200
C 	C 	0.68220 0.89580 0.68220 0.13000
C 	C 	0.70620 0.93290 0.70620 -0.36600
C 	C 	0.74010 0.91540 0.74010 0.21900
H 	H 	0.75560 0.94040 0.75560 0.08100
C 	C 	0.81870 0.62006 0.18130 0.05100
C 	C 	0.78230 0.62630 0.21770 -0.15500
C 	C 	0.77280 0.67630 0.22720 -0.25500
H 	H 	0.74960 0.67900 0.25040 0.09300
C 	C 	0.81780 0.60420 0.18220 0.13500
C 	C 	0.79380 0.56710 0.20620 -0.34600
C 	C 	0.75990 0.58460 0.24010 0.19200
H 	H 	0.74440 0.55960 0.25560 0.08000
C 	C 	0.31870 0.12006 0.68130 0.05400
C 	C 	0.28230 0.12630 0.71770 -0.15000
C 	C 	0.27280 0.17630 0.72720 -0.27800
H 	H 	0.24960 0.17900 0.75040 0.10100
C 	C 	0.31780 0.10420 0.68220 0.13300
C 	C 	0.29380 0.06710 0.70620 -0.35700
C 	C 	0.25990 0.08460 0.74010 0.21900
H 	H 	0.24440 0.05960 0.75560 0.07900
C 	C 	0.81870 0.37994 0.81870 0.05100
C 	C 	0.78230 0.37370 0.78230 -0.15300
C 	C 	0.77280 0.32370 0.77280 -0.25900
H 	H 	0.74960 0.32100 0.74960 0.09400
C 	C 	0.81780 0.39580 0.81780 0.13500
C 	C 	0.79380 0.43290 0.79380 -0.34600
C 	C 	0.75990 0.41540 0.75990 0.19300
H 	H 	0.74440 0.44040 0.74440 0.08000
C 	C 	0.31870 0.87994 0.31870 0.05900
C 	C 	0.28230 0.87370 0.28230 -0.15100
C 	C 	0.27280 0.82370 0.27280 -0.27600
H 	H 	0.24960 0.82100 0.24960 0.10100
C 	C 	0.31780 0.89580 0.31780 0.13000
C 	C 	0.29380 0.93290 0.29380 -0.36600
C 	C 	0.25990 0.91540 0.25990 0.21900
H 	H 	0.24440 0.94040 0.24440 0.08200
C 	C 	0.18130 0.62006 0.81870 0.05100
C 	C 	0.21770 0.62630 0.78230 -0.15500
C 	C 	0.22720 0.67630 0.77280 -0.25500
H 	H 	0.25040 0.67900 0.74960 0.09300
C 	C 	0.18220 0.60420 0.81780 0.13500
C 	C 	0.20620 0.56710 0.79380 -0.34600
C 	C 	0.24010 0.58460 0.75990 0.19200
H 	H 	0.25560 0.55960 0.74440 0.08000
C 	C 	0.68130 0.12006 0.31870 0.05400
C 	C 	0.71770 0.12630 0.28230 -0.15000
C 	C 	0.72720 0.17630 0.27280 -0.27800
H 	H 	0.75040 0.17900 0.24960 0.10100
C 	C 	0.68220 0.10420 0.31780 0.13300
C 	C 	0.70620 0.06710 0.29380 -0.35700
C 	C 	0.74010 0.08460 0.25990 0.21900
H 	H 	0.75560 0.05960 0.24440 0.07900
C 	C 	0.18130 0.18130 0.37994 0.05000
C 	C 	0.21770 0.21770 0.37370 -0.15700
C 	C 	0.22720 0.22720 0.32370 -0.25200
H 	H 	0.25040 0.25040 0.32100 0.09200
C 	C 	0.18220 0.18220 0.39580 0.13600
C 	C 	0.20620 0.20620 0.43290 -0.34500
C 	C 	0.24010 0.24010 0.41540 0.19100
H 	H 	0.25560 0.25560 0.44040 0.08100
C 	C 	0.68130 0.68130 0.87994 0.05800
C 	C 	0.71770 0.71770 0.87370 -0.15000
C 	C 	0.72720 0.72720 0.82370 -0.27600
H 	H 	0.75040 0.75040 0.82100 0.10200
C 	C 	0.68220 0.68220 0.89580 0.13000
C 	C 	0.70620 0.70620 0.93290 -0.36600
C 	C 	0.74010 0.74010 0.91540 0.21900
H 	H 	0.75560 0.75560 0.94040 0.08100
C 	C 	0.18130 0.81870 0.62006 0.05100
C 	C 	0.21770 0.78230 0.62630 -0.15500
C 	C 	0.22720 0.77280 0.67630 -0.25500
H 	H 	0.25040 0.74960 0.67900 0.09300
C 	C 	0.18220 0.81780 0.60420 0.13500
C 	C 	0.20620 0.79380 0.56710 -0.34600
C 	C 	0.24010 0.75990 0.58460 0.19200
H 	H 	0.25560 0.74440 0.55960 0.08000
C 	C 	0.68130 0.31870 0.12006 0.05400
C 	C 	0.71770 0.28230 0.12630 -0.15000
C 	C 	0.72720 0.27280 0.17630 -0.27800
H 	H 	0.75040 0.24960 0.17900 0.10100
C 	C 	0.68220 0.31780 0.10420 0.13300
C 	C 	0.70620 0.29380 0.06710 -0.35700
C 	C 	0.74010 0.25990 0.08460 0.21900
H 	H 	0.75560 0.24440 0.05960 0.07900
C 	C 	0.81870 0.81870 0.37994 0.05100
C 	C 	0.78230 0.78230 0.37370 -0.15300
C 	C 	0.77280 0.77280 0.32370 -0.25900
H 	H 	0.74960 0.74960 0.32100 0.09400
C 	C 	0.81780 0.81780 0.39580 0.13500
C 	C 	0.79380 0.79380 0.43290 -0.34600
C 	C 	0.75990 0.75990 0.41540 0.19300
H 	H 	0.74440 0.74440 0.44040 0.08000
C 	C 	0.31870 0.31870 0.87994 0.05900
C 	C 	0.28230 0.28230 0.87370 -0.15100
C 	C 	0.27280 0.27280 0.82370 -0.27600
H 	H 	0.24960 0.24960 0.82100 0.10100
C 	C 	0.31780 0.31780 0.89580 0.13000
C 	C 	0.29380 0.29380 0.93290 -0.36600
C 	C 	0.25990 0.25990 0.91540 0.21900
H 	H 	0.24440 0.24440 0.94040 0.08200
C 	C 	0.81870 0.18130 0.62006 0.05100
C 	C 	0.78230 0.21770 0.62630 -0.15500
C 	C 	0.77280 0.22720 0.67630 -0.25500
H 	H 	0.74960 0.25040 0.67900 0.09300
C 	C 	0.81780 0.18220 0.60420 0.13500
C 	C 	0.79380 0.20620 0.56710 -0.34600
C 	C 	0.75990 0.24010 0.58460 0.19200
H 	H 	0.74440 0.25560 0.55960 0.08000
C 	C 	0.31870 0.68130 0.12006 0.05400
C 	C 	0.28230 0.71770 0.12630 -0.15000
C 	C 	0.27280 0.72720 0.17630 -0.27800
H 	H 	0.24960 0.75040 0.17900 0.10100
C 	C 	0.31780 0.68220 0.10420 0.13300
C 	C 	0.29380 0.70620 0.06710 -0.35700
C 	C 	0.25990 0.74010 0.08460 0.21900
H 	H 	0.24440 0.75560 0.05960 0.07900
C 	C 	0.37994 0.18130 0.18130 0.05000
C 	C 	0.37370 0.21770 0.21770 -0.15700
C 	C 	0.32370 0.22720 0.22720 -0.25200
H 	H 	0.32100 0.25040 0.25040 0.09200
C 	C 	0.39580 0.18220 0.18220 0.13600
C 	C 	0.43290 0.20620 0.20620 -0.34500
C 	C 	0.41540 0.24010 0.24010 0.19100
H 	H 	0.44040 0.25560 0.25560 0.08100
C 	C 	0.87994 0.68130 0.68130 0.05800
C 	C 	0.87370 0.71770 0.71770 -0.15000
C 	C 	0.82370 0.72720 0.72720 -0.27600
H 	H 	0.82100 0.75040 0.75040 0.10200
C 	C 	0.89580 0.68220 0.68220 0.13000
C 	C 	0.93290 0.70620 0.70620 -0.36600
C 	C 	0.91540 0.74010 0.74010 0.21900
H 	H 	0.94040 0.75560 0.75560 0.08100
C 	C 	0.62006 0.18130 0.81870 0.05100
C 	C 	0.62630 0.21770 0.78230 -0.15500
C 	C 	0.67630 0.22720 0.77280 -0.25500
H 	H 	0.67900 0.25040 0.74960 0.09300
C 	C 	0.60420 0.18220 0.81780 0.13500
C 	C 	0.56710 0.20620 0.79380 -0.34600
C 	C 	0.58460 0.24010 0.75990 0.19200
H 	H 	0.55960 0.25560 0.74440 0.08000
C 	C 	0.12006 0.68130 0.31870 0.05400
C 	C 	0.12630 0.71770 0.28230 -0.15000
C 	C 	0.17630 0.72720 0.27280 -0.27800
H 	H 	0.17900 0.75040 0.24960 0.10100
C 	C 	0.10420 0.68220 0.31780 0.13300
C 	C 	0.06710 0.70620 0.29380 -0.35700
C 	C 	0.08460 0.74010 0.25990 0.21900
H 	H 	0.05960 0.75560 0.24440 0.07900
C 	C 	0.37994 0.81870 0.81870 0.05100
C 	C 	0.37370 0.78230 0.78230 -0.15300
C 	C 	0.32370 0.77280 0.77280 -0.25900
H 	H 	0.32100 0.74960 0.74960 0.09400
C 	C 	0.39580 0.81780 0.81780 0.13500
C 	C 	0.43290 0.79380 0.79380 -0.34600
C 	C 	0.41540 0.75990 0.75990 0.19300
H 	H 	0.44040 0.74440 0.74440 0.08000
C 	C 	0.87994 0.31870 0.31870 0.05900
C 	C 	0.87370 0.28230 0.28230 -0.15100
C 	C 	0.82370 0.27280 0.27280 -0.27600
H 	H 	0.82100 0.24960 0.24960 0.10100
C 	C 	0.89580 0.31780 0.31780 0.13000
C 	C 	0.93290 0.29380 0.29380 -0.36600
C 	C 	0.91540 0.25990 0.25990 0.21900
H 	H 	0.94040 0.24440 0.24440 0.08200
C 	C 	0.62006 0.81870 0.18130 0.05100
C 	C 	0.62630 0.78230 0.21770 -0.15500
C 	C 	0.67630 0.77280 0.22720 -0.25500
H 	H 	0.67900 0.74960 0.25040 0.09300
C 	C 	0.60420 0.81780 0.18220 0.13500
C 	C 	0.56710 0.79380 0.20620 -0.34600
C 	C 	0.58460 0.75990 0.24010 0.19200
H 	H 	0.55960 0.74440 0.25560 0.08000
C 	C 	0.12006 0.31870 0.68130 0.05400
C 	C 	0.12630 0.28230 0.71770 -0.15000
C 	C 	0.17630 0.27280 0.72720 -0.27800
H 	H 	0.17900 0.24960 0.75040 0.10100
C 	C 	0.10420 0.31780 0.68220 0.13300
C 	C 	0.06710 0.29380 0.70620 -0.35700
C 	C 	0.08460 0.25990 0.74010 0.21900
H 	H 	0.05960 0.24440 0.75560 0.07900
C 	C 	0.37994 0.18130 0.81870 0.05100
C 	C 	0.37370 0.21770 0.78230 -0.15500
C 	C 	0.32370 0.22720 0.77280 -0.25500
H 	H 	0.32100 0.25040 0.74960 0.09300
C 	C 	0.39580 0.18220 0.81780 0.13500
C 	C 	0.43290 0.20620 0.79380 -0.34600
C 	C 	0.41540 0.24010 0.75990 0.19200
H 	H 	0.44040 0.25560 0.74440 0.08000
C 	C 	0.87994 0.68130 0.31870 0.05900
C 	C 	0.87370 0.71770 0.28230 -0.15100
C 	C 	0.82370 0.72720 0.27280 -0.27600
H 	H 	0.82100 0.75040 0.24960 0.10200
C 	C 	0.89580 0.68220 0.31780 0.13000
C 	C 	0.93290 0.70620 0.29380 -0.36600
C 	C 	0.91540 0.74010 0.25990 0.21900
H 	H 	0.94040 0.75560 0.24440 0.08200
C 	C 	0.62006 0.81870 0.81870 0.05100
C 	C 	0.62630 0.78230 0.78230 -0.15300
C 	C 	0.67630 0.77280 0.77280 -0.25900
H 	H 	0.67900 0.74960 0.74960 0.09400
C 	C 	0.60420 0.81780 0.81780 0.13500
C 	C 	0.56710 0.79380 0.79380 -0.34600
C 	C 	0.58460 0.75990 0.75990 0.19300
H 	H 	0.55960 0.74440 0.74440 0.08000
C 	C 	0.12006 0.31870 0.31870 0.05400
C 	C 	0.12630 0.28230 0.28230 -0.15100
C 	C 	0.17630 0.27280 0.27280 -0.27700
H 	H 	0.17900 0.24960 0.24960 0.10000
C 	C 	0.10420 0.31780 0.31780 0.13300
C 	C 	0.06710 0.29380 0.29380 -0.35700
C 	C 	0.08460 0.25990 0.25990 0.21900
H 	H 	0.05960 0.24440 0.24440 0.07900
C 	C 	0.37994 0.81870 0.18130 0.05100
C 	C 	0.37370 0.78230 0.21770 -0.15500
C 	C 	0.32370 0.77280 0.22720 -0.25500
H 	H 	0.32100 0.74960 0.25040 0.09300
C 	C 	0.39580 0.81780 0.18220 0.13500
C 	C 	0.43290 0.79380 0.20620 -0.34600
C 	C 	0.41540 0.75990 0.24010 0.19200
H 	H 	0.44040 0.74440 0.25560 0.08000
C 	C 	0.87994 0.31870 0.68130 0.05900
C 	C 	0.87370 0.28230 0.71770 -0.15100
C 	C 	0.82370 0.27280 0.72720 -0.27600
H 	H 	0.82100 0.24960 0.75040 0.10200
C 	C 	0.89580 0.31780 0.68220 0.13000
C 	C 	0.93290 0.29380 0.70620 -0.36600
C 	C 	0.91540 0.25990 0.74010 0.21900
H 	H 	0.94040 0.24440 0.75560 0.08200
C 	C 	0.62006 0.18130 0.18130 0.05000
C 	C 	0.62630 0.21770 0.21770 -0.15600
C 	C 	0.67630 0.22720 0.22720 -0.25200
H 	H 	0.67900 0.25040 0.25040 0.09200
C 	C 	0.60420 0.18220 0.18220 0.13600
C 	C 	0.56710 0.20620 0.20620 -0.34500
C 	C 	0.58460 0.24010 0.24010 0.19100
H 	H 	0.55960 0.25560 0.25560 0.08100
C 	C 	0.12006 0.68130 0.68130 0.05400
C 	C 	0.12630 0.71770 0.71770 -0.15000
C 	C 	0.17630 0.72720 0.72720 -0.27800
H 	H 	0.17900 0.75040 0.75040 0.10200
C 	C 	0.10420 0.68220 0.68220 0.13300
C 	C 	0.06710 0.70620 0.70620 -0.35700
C 	C 	0.08460 0.74010 0.74010 0.21900
H 	H 	0.05960 0.75560 0.75560 0.07800
C 	C 	0.18130 0.18130 0.62006 0.05000
C 	C 	0.21770 0.21770 0.62630 -0.15600
C 	C 	0.22720 0.22720 0.67630 -0.25200
H 	H 	0.25040 0.25040 0.67900 0.09200
C 	C 	0.18220 0.18220 0.60420 0.13600
C 	C 	0.20620 0.20620 0.56710 -0.34500
C 	C 	0.24010 0.24010 0.58460 0.19100
H 	H 	0.25560 0.25560 0.55960 0.08100
C 	C 	0.68130 0.68130 0.12006 0.05400
C 	C 	0.71770 0.71770 0.12630 -0.15000
C 	C 	0.72720 0.72720 0.17630 -0.27800
H 	H 	0.75040 0.75040 0.17900 0.10200
C 	C 	0.68220 0.68220 0.10420 0.13300
C 	C 	0.70620 0.70620 0.06710 -0.35700
C 	C 	0.74010 0.74010 0.08460 0.21900
H 	H 	0.75560 0.75560 0.05960 0.07800
C 	C 	0.81870 0.18130 0.37994 0.05100
C 	C 	0.78230 0.21770 0.37370 -0.15500
C 	C 	0.77280 0.22720 0.32370 -0.25500
H 	H 	0.74960 0.25040 0.32100 0.09300
C 	C 	0.81780 0.18220 0.39580 0.13500
C 	C 	0.79380 0.20620 0.43290 -0.34600
C 	C 	0.75990 0.24010 0.41540 0.19200
H 	H 	0.74440 0.25560 0.44040 0.08000
C 	C 	0.31870 0.68130 0.87994 0.05900
C 	C 	0.28230 0.71770 0.87370 -0.15100
C 	C 	0.27280 0.72720 0.82370 -0.27600
H 	H 	0.24960 0.75040 0.82100 0.10200
C 	C 	0.31780 0.68220 0.89580 0.13000
C 	C 	0.29380 0.70620 0.93290 -0.36600
C 	C 	0.25990 0.74010 0.91540 0.21900
H 	H 	0.24440 0.75560 0.94040 0.08200
C 	C 	0.81870 0.81870 0.62006 0.05100
C 	C 	0.78230 0.78230 0.62630 -0.15300
C 	C 	0.77280 0.77280 0.67630 -0.25900
H 	H 	0.74960 0.74960 0.67900 0.09400
C 	C 	0.81780 0.81780 0.60420 0.13500
C 	C 	0.79380 0.79380 0.56710 -0.34600
C 	C 	0.75990 0.75990 0.58460 0.19300
H 	H 	0.74440 0.74440 0.55960 0.08000
C 	C 	0.31870 0.31870 0.12006 0.05400
C 	C 	0.28230 0.28230 0.12630 -0.15100
C 	C 	0.27280 0.27280 0.17630 -0.27700
H 	H 	0.24960 0.24960 0.17900 0.10000
C 	C 	0.31780 0.31780 0.10420 0.13300
C 	C 	0.29380 0.29380 0.06710 -0.35700
C 	C 	0.25990 0.25990 0.08460 0.21900
H 	H 	0.24440 0.24440 0.05960 0.07900
C 	C 	0.18130 0.81870 0.37994 0.05100
C 	C 	0.21770 0.78230 0.37370 -0.15500
C 	C 	0.22720 0.77280 0.32370 -0.25500
H 	H 	0.25040 0.74960 0.32100 0.09300
C 	C 	0.18220 0.81780 0.39580 0.13500
C 	C 	0.20620 0.79380 0.43290 -0.34600
C 	C 	0.24010 0.75990 0.41540 0.19200
H 	H 	0.25560 0.74440 0.44040 0.08000
C 	C 	0.68130 0.31870 0.87994 0.05900
C 	C 	0.71770 0.28230 0.87370 -0.15100
C 	C 	0.72720 0.27280 0.82370 -0.27600
H 	H 	0.75040 0.24960 0.82100 0.10200
C 	C 	0.68220 0.31780 0.89580 0.13000
C 	C 	0.70620 0.29380 0.93290 -0.36600
C 	C 	0.74010 0.25990 0.91540 0.21900
H 	H 	0.75560 0.24440 0.94040 0.08200
C 	C 	0.18130 0.37994 0.81870 0.05100
C 	C 	0.21770 0.37370 0.78230 -0.15500
C 	C 	0.22720 0.32370 0.77280 -0.25500
H 	H 	0.25040 0.32100 0.74960 0.09300
C 	C 	0.18220 0.39580 0.81780 0.13500
C 	C 	0.20620 0.43290 0.79380 -0.34600
C 	C 	0.24010 0.41540 0.75990 0.19200
H 	H 	0.25560 0.44040 0.74440 0.08000
C 	C 	0.68130 0.87994 0.31870 0.05900
C 	C 	0.71770 0.87370 0.28230 -0.15100
C 	C 	0.72720 0.82370 0.27280 -0.27600
H 	H 	0.75040 0.82100 0.24960 0.10200
C 	C 	0.68220 0.89580 0.31780 0.13000
C 	C 	0.70620 0.93290 0.29380 -0.36600
C 	C 	0.74010 0.91540 0.25990 0.21900
H 	H 	0.75560 0.94040 0.24440 0.08200
C 	C 	0.18130 0.62006 0.18130 0.05000
C 	C 	0.21770 0.62630 0.21770 -0.15600
C 	C 	0.22720 0.67630 0.22720 -0.25200
H 	H 	0.25040 0.67900 0.25040 0.09200
C 	C 	0.18220 0.60420 0.18220 0.13600
C 	C 	0.20620 0.56710 0.20620 -0.34500
C 	C 	0.24010 0.58460 0.24010 0.19100
H 	H 	0.25560 0.55960 0.25560 0.08100
C 	C 	0.68130 0.12006 0.68130 0.05400
C 	C 	0.71770 0.12630 0.71770 -0.15000
C 	C 	0.72720 0.17630 0.72720 -0.27800
H 	H 	0.75040 0.17900 0.75040 0.10200
C 	C 	0.68220 0.10420 0.68220 0.13300
C 	C 	0.70620 0.06710 0.70620 -0.35700
C 	C 	0.74010 0.08460 0.74010 0.21900
H 	H 	0.75560 0.05960 0.75560 0.07800
C 	C 	0.81870 0.37994 0.18130 0.05100
C 	C 	0.78230 0.37370 0.21770 -0.15500
C 	C 	0.77280 0.32370 0.22720 -0.25500
H 	H 	0.74960 0.32100 0.25040 0.09300
C 	C 	0.81780 0.39580 0.18220 0.13500
C 	C 	0.79380 0.43290 0.20620 -0.34600
C 	C 	0.75990 0.41540 0.24010 0.19200
H 	H 	0.74440 0.44040 0.25560 0.08000
C 	C 	0.31870 0.87994 0.68130 0.05900
C 	C 	0.28230 0.87370 0.71770 -0.15100
C 	C 	0.27280 0.82370 0.72720 -0.27600
H 	H 	0.24960 0.82100 0.75040 0.10200
C 	C 	0.31780 0.89580 0.68220 0.13000
C 	C 	0.29380 0.93290 0.70620 -0.36600
C 	C 	0.25990 0.91540 0.74010 0.21900
H 	H 	0.24440 0.94040 0.75560 0.08200
C 	C 	0.81870 0.62006 0.81870 0.05100
C 	C 	0.78230 0.62630 0.78230 -0.15300
C 	C 	0.77280 0.67630 0.77280 -0.25900
H 	H 	0.74960 0.67900 0.74960 0.09400
C 	C 	0.81780 0.60420 0.81780 0.13500
C 	C 	0.79380 0.56710 0.79380 -0.34600
C 	C 	0.75990 0.58460 0.75990 0.19300
H 	H 	0.74440 0.55960 0.74440 0.08000
C 	C 	0.31870 0.12006 0.31870 0.05400
C 	C 	0.28230 0.12630 0.28230 -0.15100
C 	C 	0.27280 0.17630 0.27280 -0.27700
H 	H 	0.24960 0.17900 0.24960 0.10000
C 	C 	0.31780 0.10420 0.31780 0.13300
C 	C 	0.29380 0.06710 0.29380 -0.35700
C 	C 	0.25990 0.08460 0.25990 0.21900
H 	H 	0.24440 0.05960 0.24440 0.07900
O 	O 	0.23820 0.50000 0.23820 2.59600
O 	O 	0.73820 -0.00000 0.73820 2.56300
O 	O 	0.76180 0.50000 0.23820 2.59600
O 	O 	0.26180 -0.00000 0.73820 2.56100
O 	O 	0.76180 0.50000 0.76180 2.59600
O 	O 	0.26180 0.00000 0.26180 2.55800
O 	O 	0.23820 0.50000 0.76180 2.59600
O 	O 	0.73820 0.00000 0.26180 2.56100
O 	O 	0.23820 0.23820 0.50000 2.59600
O 	O 	0.73820 0.73820 -0.00000 2.56300
O 	O 	0.23820 0.76180 0.50000 2.59600
O 	O 	0.73820 0.26180 -0.00000 2.56100
O 	O 	0.76180 0.76180 0.50000 2.59600
O 	O 	0.26180 0.26180 -0.00000 2.55800
O 	O 	0.76180 0.23820 0.50000 2.59600
O 	O 	0.26180 0.73820 -0.00000 2.56100
O 	O 	0.50000 0.23820 0.23820 2.59600
O 	O 	0.00000 0.73820 0.73820 2.56300
O 	O 	0.50000 0.23820 0.76180 2.59600
O 	O 	-0.00000 0.73820 0.26180 2.56100
O 	O 	0.50000 0.76180 0.76180 2.59600
O 	O 	-0.00000 0.26180 0.26180 2.55800
O 	O 	0.50000 0.76180 0.23820 2.59600
O 	O 	-0.00000 0.26180 0.73820 2.56100
H 	H 	0.25430 0.50000 0.29960 -0.13800
H 	H 	0.75430 -0.00000 0.79960 -0.18400
H 	H 	0.74570 0.50000 0.29960 -0.13800
H 	H 	0.24570 -0.00000 0.79960 -0.18600
H 	H 	0.74570 0.50000 0.70040 -0.13800
H 	H 	0.24570 0.00000 0.20040 -0.18900
H 	H 	0.25430 0.50000 0.70040 -0.13800
H 	H 	0.75430 0.00000 0.20040 -0.18700
H 	H 	0.29960 0.25430 0.50000 -0.13800
H 	H 	0.79960 0.75430 -0.00000 -0.18400
H 	H 	0.29960 0.74570 0.50000 -0.13800
H 	H 	0.79960 0.24570 -0.00000 -0.18600
H 	H 	0.70040 0.74570 0.50000 -0.13800
H 	H 	0.20040 0.24570 -0.00000 -0.18900
H 	H 	0.70040 0.25430 0.50000 -0.13800
H 	H 	0.20040 0.75430 -0.00000 -0.18700
H 	H 	0.50000 0.29960 0.25430 -0.13800
H 	H 	-0.00000 0.79960 0.75430 -0.18400
H 	H 	0.50000 0.29960 0.74570 -0.13800
H 	H 	-0.00000 0.79960 0.24570 -0.18600
H 	H 	0.50000 0.70040 0.74570 -0.13800
H 	H 	0.00000 0.20040 0.24570 -0.18900
H 	H 	0.50000 0.70040 0.25430 -0.13800
H 	H 	-0.00000 0.20040 0.75430 -0.18700
H 	H 	0.50000 0.25430 0.70040 -0.13800
H 	H 	-0.00000 0.75430 0.20040 -0.18700
H 	H 	0.50000 0.74570 0.70040 -0.13800
H 	H 	0.00000 0.24570 0.20040 -0.18900
H 	H 	0.50000 0.74570 0.29960 -0.13800
H 	H 	-0.00000 0.24570 0.79960 -0.18600
H 	H 	0.50000 0.25430 0.29960 -0.13800
H 	H 	-0.00000 0.75430 0.79960 -0.18400
H 	H 	0.25430 0.29960 0.50000 -0.13800
H 	H 	0.75430 0.79960 -0.00000 -0.18400
H 	H 	0.74570 0.29960 0.50000 -0.13800
H 	H 	0.24570 0.79960 -0.00000 -0.18600
H 	H 	0.74570 0.70040 0.50000 -0.13800
H 	H 	0.24570 0.20040 -0.00000 -0.18900
H 	H 	0.25430 0.70040 0.50000 -0.13800
H 	H 	0.75430 0.20040 -0.00000 -0.18700
H 	H 	0.29960 0.50000 0.74570 -0.13800
H 	H 	0.79960 -0.00000 0.24570 -0.18600
H 	H 	0.29960 0.50000 0.25430 -0.13800
H 	H 	0.79960 -0.00000 0.75430 -0.18400
H 	H 	0.70040 0.50000 0.25430 -0.13800
H 	H 	0.20040 -0.00000 0.75430 -0.18700
H 	H 	0.70040 0.50000 0.74570 -0.13800
H 	H 	0.20040 -0.00000 0.24570 -0.18900
