data_crystal

_cell_length_a 22.97650
_cell_length_b 22.97650
_cell_length_c 22.97650
_cell_angle_alpha 109.47100
_cell_angle_beta  109.47100
_cell_angle_gamma 109.47100

_symmetry_space_group_name_	'P 1'
_symmetry_space_group_name_H-M	'P 1'

loop_
_symmetry_equiv_pos_as_xyz
  x,y,z

loop_
_atom_site_label
_atom_site_type_symbol
_atom_site_fract_x
_atom_site_fract_y
_atom_site_fract_z
_atom_site_charge
Zn	Zn	0.07264 0.03632 0.28632 1.16900
Zn	Zn	0.25000 0.78632 0.21368 1.16900
Zn	Zn	0.25000 0.46368 0.53632 1.16900
Zn	Zn	0.42736 0.71368 0.96368 1.16900
Zn	Zn	0.03632 0.25000 0.96368 1.16800
Zn	Zn	0.46368 0.42736 0.21368 1.16900
Zn	Zn	0.78632 0.07264 0.53632 1.16900
Zn	Zn	0.71368 0.25000 0.28632 1.16900
Zn	Zn	0.78632 0.71368 0.75000 1.16900
Zn	Zn	0.03632 0.78632 0.57264 1.16900
Zn	Zn	0.71368 0.46368 0.92736 1.16900
Zn	Zn	0.46368 0.03632 0.75000 1.16900
Zn	Zn	0.92736 0.96368 0.71368 1.16900
Zn	Zn	0.75000 0.21368 0.78632 1.16900
Zn	Zn	0.75000 0.53632 0.46368 1.16900
Zn	Zn	0.57264 0.28632 0.03632 1.16900
Zn	Zn	0.96368 0.75000 0.03632 1.16900
Zn	Zn	0.53632 0.57264 0.78632 1.17000
Zn	Zn	0.21368 0.92736 0.46368 1.17000
Zn	Zn	0.28632 0.75000 0.71368 1.17000
Zn	Zn	0.21368 0.28632 0.25000 1.17000
Zn	Zn	0.96368 0.21368 0.42736 1.17000
Zn	Zn	0.28632 0.53632 0.07264 1.17000
Zn	Zn	0.53632 0.96368 0.25000 1.17000
H 	H 	0.23080 0.09970 0.31010 0.00300
H 	H 	0.28920 0.20340 0.29840 0.00300
H 	H 	0.05510 0.15720 0.17870 0.05000
H 	H 	0.02310 0.10520 0.20350 0.04200
H 	H 	0.00800 0.20200 0.24420 0.07300
H 	H 	0.09220 0.25430 0.28510 0.05200
H 	H 	0.05950 0.20100 0.31050 0.06600
H 	H 	0.28960 0.92070 0.18990 0.00300
H 	H 	0.40500 0.99080 0.20160 0.00300
H 	H 	0.47850 0.87640 0.32130 0.05000
H 	H 	0.40170 0.81960 0.29650 0.04200
H 	H 	0.45780 0.76380 0.25580 0.07300
H 	H 	0.46920 0.80710 0.21490 0.05200
H 	H 	0.39050 0.74900 0.18950 0.06600
H 	H 	0.21040 0.40030 0.63110 0.00300
H 	H 	0.09500 0.29660 0.58580 0.00200
H 	H 	0.02150 0.34280 0.39790 0.05000
H 	H 	0.09830 0.39480 0.41790 0.04200
H 	H 	0.04220 0.29800 0.30600 0.07300
H 	H 	0.03080 0.24570 0.33790 0.05200
H 	H 	0.10950 0.29900 0.35850 0.06600
H 	H 	0.26920 0.57930 0.86890 0.00300
H 	H 	0.21080 0.50920 0.91420 0.00300
H 	H 	0.44490 0.62360 0.10210 0.05100
H 	H 	0.47690 0.68040 0.08210 0.04200
H 	H 	0.49200 0.73620 0.19400 0.07200
H 	H 	0.40780 0.69290 0.16210 0.05100
H 	H 	0.44050 0.75100 0.14150 0.06600
H 	H 	0.13110 0.21040 0.90030 0.00200
H 	H 	0.08580 0.09500 0.79660 0.00300
H 	H 	0.89790 0.02150 0.84280 0.05200
H 	H 	0.91790 0.09830 0.89480 0.04400
H 	H 	0.80600 0.04220 0.79800 0.07200
H 	H 	0.83790 0.03080 0.74570 0.05100
H 	H 	0.85850 0.10950 0.79900 0.06500
H 	H 	0.36890 0.26920 0.07930 0.00300
H 	H 	0.41420 0.21080 0.00920 0.00300
H 	H 	0.60210 0.44490 0.12360 0.05000
H 	H 	0.58210 0.47690 0.18040 0.04200
H 	H 	0.69400 0.49200 0.23620 0.07300
H 	H 	0.66210 0.40780 0.19290 0.05200
H 	H 	0.64150 0.44050 0.25100 0.06600
H 	H 	0.81010 0.23080 0.59970 0.00300
H 	H 	0.79840 0.28920 0.70340 0.00300
H 	H 	0.67870 0.05510 0.65720 0.05000
H 	H 	0.70350 0.02310 0.60520 0.04200
H 	H 	0.74420 0.00800 0.70200 0.07300
H 	H 	0.78510 0.09220 0.75430 0.05200
H 	H 	0.81050 0.05950 0.70100 0.06600
H 	H 	0.68990 0.28960 0.42070 0.00300
H 	H 	0.70160 0.40500 0.49080 0.00300
H 	H 	0.82130 0.47850 0.37640 0.05000
H 	H 	0.79650 0.40170 0.31960 0.04200
H 	H 	0.75580 0.45780 0.26380 0.07300
H 	H 	0.71490 0.46920 0.30710 0.05200
H 	H 	0.68950 0.39050 0.24900 0.06600
H 	H 	0.92070 0.68990 0.78960 0.00300
H 	H 	0.99080 0.70160 0.90500 0.00300
H 	H 	0.87640 0.82130 0.97850 0.05100
H 	H 	0.81960 0.79650 0.90170 0.04200
H 	H 	0.76380 0.75580 0.95780 0.07300
H 	H 	0.80710 0.71490 0.96920 0.05200
H 	H 	0.74900 0.68950 0.89050 0.06600
H 	H 	0.09970 0.81010 0.73080 0.00300
H 	H 	0.20340 0.79840 0.78920 0.00300
H 	H 	0.15720 0.67870 0.55510 0.05000
H 	H 	0.10520 0.70350 0.52310 0.04200
H 	H 	0.20200 0.74420 0.50800 0.07300
H 	H 	0.25430 0.78510 0.59220 0.05200
H 	H 	0.20100 0.81050 0.55950 0.06600
H 	H 	0.57930 0.36890 0.76920 0.00300
H 	H 	0.50920 0.41420 0.71080 0.00300
H 	H 	0.62360 0.60210 0.94490 0.05000
H 	H 	0.68040 0.58210 0.97690 0.04200
H 	H 	0.73620 0.69400 0.99200 0.07300
H 	H 	0.69290 0.66210 0.90780 0.05200
H 	H 	0.75100 0.64150 0.94050 0.06600
H 	H 	0.40030 0.13110 0.71040 0.00300
H 	H 	0.29660 0.08580 0.59500 0.00300
H 	H 	0.34280 0.89790 0.52150 0.05000
H 	H 	0.39480 0.91790 0.59830 0.04200
H 	H 	0.29800 0.80600 0.54220 0.07300
H 	H 	0.24570 0.83790 0.53080 0.05200
H 	H 	0.29900 0.85850 0.60950 0.06600
H 	H 	0.40030 0.26920 0.18990 0.00300
H 	H 	0.29660 0.21080 0.20160 0.00300
H 	H 	0.34280 0.44490 0.32130 0.05000
H 	H 	0.39480 0.47690 0.29650 0.04200
H 	H 	0.29800 0.49200 0.25580 0.07300
H 	H 	0.24570 0.40780 0.21490 0.05200
H 	H 	0.29900 0.44050 0.18950 0.06600
H 	H 	0.57930 0.21040 0.31010 0.00300
H 	H 	0.50920 0.09500 0.29840 0.00300
H 	H 	0.62360 0.02150 0.17870 0.05000
H 	H 	0.68040 0.09830 0.20350 0.04200
H 	H 	0.73620 0.04220 0.24420 0.07300
H 	H 	0.69290 0.03080 0.28510 0.05200
H 	H 	0.75100 0.10950 0.31050 0.06600
H 	H 	0.09970 0.28960 0.86890 0.00200
H 	H 	0.20340 0.40500 0.91420 0.00300
H 	H 	0.15720 0.47850 0.10210 0.05100
H 	H 	0.10520 0.40170 0.08210 0.04300
H 	H 	0.20200 0.45780 0.19400 0.07200
H 	H 	0.25430 0.46920 0.16210 0.05100
H 	H 	0.20100 0.39050 0.14150 0.06500
H 	H 	0.92070 0.23080 0.63110 0.00300
H 	H 	0.99080 0.28920 0.58580 0.00300
H 	H 	0.87640 0.05510 0.39790 0.05100
H 	H 	0.81960 0.02310 0.41790 0.04200
H 	H 	0.76380 0.00800 0.30600 0.07300
H 	H 	0.80710 0.09220 0.33790 0.05200
H 	H 	0.74900 0.05950 0.35850 0.06600
H 	H 	0.28960 0.36890 0.59970 0.00300
H 	H 	0.40500 0.41420 0.70340 0.00300
H 	H 	0.47850 0.60210 0.65720 0.05000
H 	H 	0.40170 0.58210 0.60520 0.04200
H 	H 	0.45780 0.69400 0.70200 0.07300
H 	H 	0.46920 0.66210 0.75430 0.05200
H 	H 	0.39050 0.64150 0.70100 0.06600
H 	H 	0.23080 0.13110 0.42070 0.00300
H 	H 	0.28920 0.08580 0.49080 0.00300
H 	H 	0.05510 0.89790 0.37640 0.05100
H 	H 	0.02310 0.91790 0.31960 0.04300
H 	H 	0.00800 0.80600 0.26380 0.07300
H 	H 	0.09220 0.83790 0.30710 0.05100
H 	H 	0.05950 0.85850 0.24900 0.06600
H 	H 	0.26920 0.68990 0.90030 0.00300
H 	H 	0.21080 0.70160 0.79660 0.00300
H 	H 	0.44490 0.82130 0.84280 0.05000
H 	H 	0.47690 0.79650 0.89480 0.04200
H 	H 	0.49200 0.75580 0.79800 0.07300
H 	H 	0.40780 0.71490 0.74570 0.05200
H 	H 	0.44050 0.68950 0.79900 0.06600
H 	H 	0.21040 0.81010 0.07930 0.00300
H 	H 	0.09500 0.79840 0.00920 0.00400
H 	H 	0.02150 0.67870 0.12360 0.05100
H 	H 	0.09830 0.70350 0.18040 0.04200
H 	H 	0.04220 0.74420 0.23620 0.07300
H 	H 	0.03080 0.78510 0.19290 0.05300
H 	H 	0.10950 0.81050 0.25100 0.06600
H 	H 	0.81010 0.57930 0.71040 0.00300
H 	H 	0.79840 0.50920 0.59500 0.00300
H 	H 	0.67870 0.62360 0.52150 0.05000
H 	H 	0.70350 0.68040 0.59830 0.04200
H 	H 	0.74420 0.73620 0.54220 0.07300
H 	H 	0.78510 0.69290 0.53080 0.05200
H 	H 	0.81050 0.75100 0.60950 0.06600
H 	H 	0.68990 0.40030 0.76920 0.00300
H 	H 	0.70160 0.29660 0.71080 0.00300
H 	H 	0.82130 0.34280 0.94490 0.05100
H 	H 	0.79650 0.39480 0.97690 0.04200
H 	H 	0.75580 0.29800 0.99200 0.07300
H 	H 	0.71490 0.24570 0.90780 0.05200
H 	H 	0.68950 0.29900 0.94050 0.06600
H 	H 	0.13110 0.92070 0.73080 0.00300
H 	H 	0.08580 0.99080 0.78920 0.00300
H 	H 	0.89790 0.87640 0.55510 0.05000
H 	H 	0.91790 0.81960 0.52310 0.04100
H 	H 	0.80600 0.76380 0.50800 0.07300
H 	H 	0.83790 0.80710 0.59220 0.05200
H 	H 	0.85850 0.74900 0.55950 0.06600
H 	H 	0.36890 0.09970 0.78960 0.00300
H 	H 	0.41420 0.20340 0.90500 0.00300
H 	H 	0.60210 0.15720 0.97850 0.05100
H 	H 	0.58210 0.10520 0.90170 0.04200
H 	H 	0.69400 0.20200 0.95780 0.07300
H 	H 	0.66210 0.25430 0.96920 0.05200
H 	H 	0.64150 0.20100 0.89050 0.06600
H 	H 	0.76920 0.90030 0.68990 0.00300
H 	H 	0.71080 0.79660 0.70160 0.00300
H 	H 	0.94490 0.84280 0.82130 0.05000
H 	H 	0.97690 0.89480 0.79650 0.04200
H 	H 	0.99200 0.79800 0.75580 0.07300
H 	H 	0.90780 0.74570 0.71490 0.05200
H 	H 	0.94050 0.79900 0.68950 0.06600
H 	H 	0.71040 0.07930 0.81010 0.00300
H 	H 	0.59500 0.00920 0.79840 0.00300
H 	H 	0.52150 0.12360 0.67870 0.05000
H 	H 	0.59830 0.18040 0.70350 0.04200
H 	H 	0.54220 0.23620 0.74420 0.07300
H 	H 	0.53080 0.19290 0.78510 0.05200
H 	H 	0.60950 0.25100 0.81050 0.06600
H 	H 	0.78960 0.59970 0.36890 0.00300
H 	H 	0.90500 0.70340 0.41420 0.00200
H 	H 	0.97850 0.65720 0.60210 0.05000
H 	H 	0.90170 0.60520 0.58210 0.04200
H 	H 	0.95780 0.70200 0.69400 0.07300
H 	H 	0.96920 0.75430 0.66210 0.05200
H 	H 	0.89050 0.70100 0.64150 0.06600
H 	H 	0.73080 0.42070 0.13110 0.00300
H 	H 	0.78920 0.49080 0.08580 0.00300
H 	H 	0.55510 0.37640 0.89790 0.05100
H 	H 	0.52310 0.31960 0.91790 0.04200
H 	H 	0.50800 0.26380 0.80600 0.07200
H 	H 	0.59220 0.30710 0.83790 0.05100
H 	H 	0.55950 0.24900 0.85850 0.06600
H 	H 	0.86890 0.78960 0.09970 0.00200
H 	H 	0.91420 0.90500 0.20340 0.00300
H 	H 	0.10210 0.97850 0.15720 0.05200
H 	H 	0.08210 0.90170 0.10520 0.04400
H 	H 	0.19400 0.95780 0.20200 0.07200
H 	H 	0.16210 0.96920 0.25430 0.05100
H 	H 	0.14150 0.89050 0.20100 0.06500
H 	H 	0.63110 0.73080 0.92070 0.00300
H 	H 	0.58580 0.78920 0.99080 0.00300
H 	H 	0.39790 0.55510 0.87640 0.05000
H 	H 	0.41790 0.52310 0.81960 0.04200
H 	H 	0.30600 0.50800 0.76380 0.07300
H 	H 	0.33790 0.59220 0.80710 0.05200
H 	H 	0.35850 0.55950 0.74900 0.06600
H 	H 	0.18990 0.76920 0.40030 0.00300
H 	H 	0.20160 0.71080 0.29660 0.00300
H 	H 	0.32130 0.94490 0.34280 0.05000
H 	H 	0.29650 0.97690 0.39480 0.04200
H 	H 	0.25580 0.99200 0.29800 0.07300
H 	H 	0.21490 0.90780 0.24570 0.05200
H 	H 	0.18950 0.94050 0.29900 0.06600
H 	H 	0.31010 0.71040 0.57930 0.00300
H 	H 	0.29840 0.59500 0.50920 0.00300
H 	H 	0.17870 0.52150 0.62360 0.05000
H 	H 	0.20350 0.59830 0.68040 0.04200
H 	H 	0.24420 0.54220 0.73620 0.07300
H 	H 	0.28510 0.53080 0.69290 0.05200
H 	H 	0.31050 0.60950 0.75100 0.06600
H 	H 	0.07930 0.31010 0.21040 0.00300
H 	H 	0.00920 0.29840 0.09500 0.00300
H 	H 	0.12360 0.17870 0.02150 0.05100
H 	H 	0.18040 0.20350 0.09830 0.04200
H 	H 	0.23620 0.24420 0.04220 0.07300
H 	H 	0.19290 0.28510 0.03080 0.05200
H 	H 	0.25100 0.31050 0.10950 0.06600
H 	H 	0.90030 0.18990 0.26920 0.00300
H 	H 	0.79660 0.20160 0.21080 0.00300
H 	H 	0.84280 0.32130 0.44490 0.05000
H 	H 	0.89480 0.29650 0.47690 0.04200
H 	H 	0.79800 0.25580 0.49200 0.07300
H 	H 	0.74570 0.21490 0.40780 0.05200
H 	H 	0.79900 0.18950 0.44050 0.06600
H 	H 	0.42070 0.63110 0.23080 0.00300
H 	H 	0.49080 0.58580 0.28920 0.00300
H 	H 	0.37640 0.39790 0.05510 0.05000
H 	H 	0.31960 0.41790 0.02310 0.04200
H 	H 	0.26380 0.30600 0.00800 0.07300
H 	H 	0.30710 0.33790 0.09220 0.05200
H 	H 	0.24900 0.35850 0.05950 0.06600
H 	H 	0.59970 0.86890 0.28960 0.00300
H 	H 	0.70340 0.91420 0.40500 0.00300
H 	H 	0.65720 0.10210 0.47850 0.05000
H 	H 	0.60520 0.08210 0.40170 0.04200
H 	H 	0.70200 0.19400 0.45780 0.07300
H 	H 	0.75430 0.16210 0.46920 0.05200
H 	H 	0.70100 0.14150 0.39050 0.06600
H 	H 	0.59970 0.73080 0.81010 0.00300
H 	H 	0.70340 0.78920 0.79840 0.00300
H 	H 	0.65720 0.55510 0.67870 0.05000
H 	H 	0.60520 0.52310 0.70350 0.04200
H 	H 	0.70200 0.50800 0.74420 0.07300
H 	H 	0.75430 0.59220 0.78510 0.05200
H 	H 	0.70100 0.55950 0.81050 0.06600
H 	H 	0.42070 0.78960 0.68990 0.00300
H 	H 	0.49080 0.90500 0.70160 0.00300
H 	H 	0.37640 0.97850 0.82130 0.05000
H 	H 	0.31960 0.90170 0.79650 0.04200
H 	H 	0.26380 0.95780 0.75580 0.07300
H 	H 	0.30710 0.96920 0.71490 0.05200
H 	H 	0.24900 0.89050 0.68950 0.06600
H 	H 	0.90030 0.71040 0.13110 0.00200
H 	H 	0.79660 0.59500 0.08580 0.00300
H 	H 	0.84280 0.52150 0.89790 0.05100
H 	H 	0.89480 0.59830 0.91790 0.04300
H 	H 	0.79800 0.54220 0.80600 0.07200
H 	H 	0.74570 0.53080 0.83790 0.05100
H 	H 	0.79900 0.60950 0.85850 0.06500
H 	H 	0.07930 0.76920 0.36890 0.00300
H 	H 	0.00920 0.71080 0.41420 0.00300
H 	H 	0.12360 0.94490 0.60210 0.05100
H 	H 	0.18040 0.97690 0.58210 0.04200
H 	H 	0.23620 0.99200 0.69400 0.07300
H 	H 	0.19290 0.90780 0.66210 0.05200
H 	H 	0.25100 0.94050 0.64150 0.06600
H 	H 	0.71040 0.63110 0.40030 0.00300
H 	H 	0.59500 0.58580 0.29660 0.00300
H 	H 	0.52150 0.39790 0.34280 0.05000
H 	H 	0.59830 0.41790 0.39480 0.04200
H 	H 	0.54220 0.30600 0.29800 0.07300
H 	H 	0.53080 0.33790 0.24570 0.05200
H 	H 	0.60950 0.35850 0.29900 0.06600
H 	H 	0.76920 0.86890 0.57930 0.00300
H 	H 	0.71080 0.91420 0.50920 0.00300
H 	H 	0.94490 0.10210 0.62360 0.05100
H 	H 	0.97690 0.08210 0.68040 0.04300
H 	H 	0.99200 0.19400 0.73620 0.07300
H 	H 	0.90780 0.16210 0.69290 0.05100
H 	H 	0.94050 0.14150 0.75100 0.06600
H 	H 	0.73080 0.31010 0.09970 0.00300
H 	H 	0.78920 0.29840 0.20340 0.00300
H 	H 	0.55510 0.17870 0.15720 0.05000
H 	H 	0.52310 0.20350 0.10520 0.04200
H 	H 	0.50800 0.24420 0.20200 0.07300
H 	H 	0.59220 0.28510 0.25430 0.05200
H 	H 	0.55950 0.31050 0.20100 0.06600
H 	H 	0.78960 0.18990 0.92070 0.00300
H 	H 	0.90500 0.20160 0.99080 0.00400
H 	H 	0.97850 0.32130 0.87640 0.05100
H 	H 	0.90170 0.29650 0.81960 0.04200
H 	H 	0.95780 0.25580 0.76380 0.07300
H 	H 	0.96920 0.21490 0.80710 0.05300
H 	H 	0.89050 0.18950 0.74900 0.06600
H 	H 	0.18990 0.42070 0.28960 0.00300
H 	H 	0.20160 0.49080 0.40500 0.00300
H 	H 	0.32130 0.37640 0.47850 0.05000
H 	H 	0.29650 0.31960 0.40170 0.04200
H 	H 	0.25580 0.26380 0.45780 0.07300
H 	H 	0.21490 0.30710 0.46920 0.05200
H 	H 	0.18950 0.24900 0.39050 0.06600
H 	H 	0.31010 0.59970 0.23080 0.00300
H 	H 	0.29840 0.70340 0.28920 0.00300
H 	H 	0.17870 0.65720 0.05510 0.05100
H 	H 	0.20350 0.60520 0.02310 0.04200
H 	H 	0.24420 0.70200 0.00800 0.07300
H 	H 	0.28510 0.75430 0.09220 0.05200
H 	H 	0.31050 0.70100 0.05950 0.06600
H 	H 	0.86890 0.07930 0.26920 0.00300
H 	H 	0.91420 0.00920 0.21080 0.00300
H 	H 	0.10210 0.12360 0.44490 0.05000
H 	H 	0.08210 0.18040 0.47690 0.04100
H 	H 	0.19400 0.23620 0.49200 0.07300
H 	H 	0.16210 0.19290 0.40780 0.05200
H 	H 	0.14150 0.25100 0.44050 0.06600
H 	H 	0.63110 0.90030 0.21040 0.00300
H 	H 	0.58580 0.79660 0.09500 0.00300
H 	H 	0.39790 0.84280 0.02150 0.05100
H 	H 	0.41790 0.89480 0.09830 0.04200
H 	H 	0.30600 0.79800 0.04220 0.07300
H 	H 	0.33790 0.74570 0.03080 0.05200
H 	H 	0.35850 0.79900 0.10950 0.06600
C 	C 	0.20867 0.12355 0.29324 -0.01200
C 	C 	0.24073 0.18040 0.28649 -0.01400
C 	C 	0.13056 0.15283 0.25119 0.10600
C 	C 	0.06149 0.15169 0.22008 -0.17300
C 	C 	0.05470 0.20700 0.26910 -0.21100
C 	C 	0.33031 0.91543 0.20676 -0.01200
C 	C 	0.39391 0.95424 0.21351 -0.01300
C 	C 	0.40164 0.87937 0.24881 0.10600
C 	C 	0.43161 0.84141 0.27992 -0.17300
C 	C 	0.43790 0.78560 0.23090 -0.21100
C 	C 	0.16969 0.37645 0.58512 -0.01200
C 	C 	0.10609 0.31960 0.56033 -0.01400
C 	C 	0.09836 0.34717 0.47773 0.10600
C 	C 	0.06839 0.34831 0.40980 -0.17300
C 	C 	0.06210 0.29300 0.34770 -0.21100
C 	C 	0.29133 0.58457 0.91488 -0.01200
C 	C 	0.25927 0.54576 0.93967 -0.01500
C 	C 	0.36944 0.62063 0.02227 0.10700
C 	C 	0.43851 0.65859 0.09020 -0.17400
C 	C 	0.44530 0.71440 0.15230 -0.21000
C 	C 	0.08512 0.16969 0.87645 -0.01100
C 	C 	0.06033 0.10609 0.81960 -0.01800
C 	C 	0.97773 0.09836 0.84717 0.11100
C 	C 	0.90980 0.06839 0.84831 -0.17700
C 	C 	0.84770 0.06210 0.79300 -0.20700
C 	C 	0.41488 0.29133 0.08457 -0.01200
C 	C 	0.43967 0.25927 0.04576 -0.01300
C 	C 	0.52227 0.36944 0.12063 0.10600
C 	C 	0.59020 0.43851 0.15859 -0.17300
C 	C 	0.65230 0.44530 0.21440 -0.21100
C 	C 	0.79324 0.20867 0.62355 -0.01200
C 	C 	0.78649 0.24073 0.68040 -0.01400
C 	C 	0.75119 0.13056 0.65283 0.10600
C 	C 	0.72008 0.06149 0.65169 -0.17200
C 	C 	0.76910 0.05470 0.70700 -0.21200
C 	C 	0.70676 0.33031 0.41543 -0.01200
C 	C 	0.71351 0.39391 0.45424 -0.01400
C 	C 	0.74881 0.40164 0.37937 0.10600
C 	C 	0.77992 0.43161 0.34141 -0.17300
C 	C 	0.73090 0.43790 0.28560 -0.21100
C 	C 	0.91543 0.70676 0.83031 -0.01200
C 	C 	0.95424 0.71351 0.89391 -0.01400
C 	C 	0.87937 0.74881 0.90164 0.10600
C 	C 	0.84141 0.77992 0.93161 -0.17300
C 	C 	0.78560 0.73090 0.93790 -0.21200
C 	C 	0.12355 0.79324 0.70867 -0.01200
C 	C 	0.18040 0.78649 0.74073 -0.01400
C 	C 	0.15283 0.75119 0.63056 0.10600
C 	C 	0.15169 0.72008 0.56149 -0.17300
C 	C 	0.20700 0.76910 0.55470 -0.21100
C 	C 	0.58457 0.41488 0.79133 -0.01200
C 	C 	0.54576 0.43967 0.75927 -0.01400
C 	C 	0.62063 0.52227 0.86944 0.10700
C 	C 	0.65859 0.59020 0.93851 -0.17300
C 	C 	0.71440 0.65230 0.94530 -0.21100
C 	C 	0.37645 0.08512 0.66969 -0.01200
C 	C 	0.31960 0.06033 0.60609 -0.01400
C 	C 	0.34717 0.97773 0.59836 0.10700
C 	C 	0.34831 0.90980 0.56839 -0.17300
C 	C 	0.29300 0.84770 0.56210 -0.21100
C 	C 	0.37645 0.29133 0.20676 -0.01200
C 	C 	0.31960 0.25927 0.21351 -0.01300
C 	C 	0.34717 0.36944 0.24881 0.10600
C 	C 	0.34831 0.43851 0.27992 -0.17300
C 	C 	0.29300 0.44530 0.23090 -0.21200
C 	C 	0.58457 0.16969 0.29324 -0.01200
C 	C 	0.54576 0.10609 0.28649 -0.01400
C 	C 	0.62063 0.09836 0.25119 0.10600
C 	C 	0.65859 0.06839 0.22008 -0.17300
C 	C 	0.71440 0.06210 0.26910 -0.21100
C 	C 	0.12355 0.33031 0.91488 -0.01200
C 	C 	0.18040 0.39391 0.93967 -0.01600
C 	C 	0.15283 0.40164 0.02227 0.10900
C 	C 	0.15169 0.43161 0.09020 -0.17500
C 	C 	0.20700 0.43790 0.15230 -0.20900
C 	C 	0.91543 0.20867 0.58512 -0.01200
C 	C 	0.95424 0.24073 0.56033 -0.01300
C 	C 	0.87937 0.13056 0.47773 0.10700
C 	C 	0.84141 0.06149 0.40980 -0.17300
C 	C 	0.78560 0.05470 0.34770 -0.21100
C 	C 	0.33031 0.41488 0.62355 -0.01200
C 	C 	0.39391 0.43967 0.68040 -0.01400
C 	C 	0.40164 0.52227 0.65283 0.10600
C 	C 	0.43161 0.59020 0.65169 -0.17300
C 	C 	0.43790 0.65230 0.70700 -0.21100
C 	C 	0.20867 0.08512 0.41543 -0.01200
C 	C 	0.24073 0.06033 0.45424 -0.01500
C 	C 	0.13056 0.97773 0.37937 0.10800
C 	C 	0.06149 0.90980 0.34141 -0.17500
C 	C 	0.05470 0.84770 0.28560 -0.21000
C 	C 	0.29133 0.70676 0.87645 -0.01200
C 	C 	0.25927 0.71351 0.81960 -0.01400
C 	C 	0.36944 0.74881 0.84717 0.10600
C 	C 	0.43851 0.77992 0.84831 -0.17300
C 	C 	0.44530 0.73090 0.79300 -0.21100
C 	C 	0.16969 0.79324 0.08457 -0.01200
C 	C 	0.10609 0.78649 0.04576 -0.01300
C 	C 	0.09836 0.75119 0.12063 0.10700
C 	C 	0.06839 0.72008 0.15859 -0.17300
C 	C 	0.06210 0.76910 0.21440 -0.21200
C 	C 	0.79324 0.58457 0.66969 -0.01200
C 	C 	0.78649 0.54576 0.60609 -0.01400
C 	C 	0.75119 0.62063 0.59836 0.10600
C 	C 	0.72008 0.65859 0.56839 -0.17300
C 	C 	0.76910 0.71440 0.56210 -0.21100
C 	C 	0.70676 0.37645 0.79133 -0.01200
C 	C 	0.71351 0.31960 0.75927 -0.01300
C 	C 	0.74881 0.34717 0.86944 0.10700
C 	C 	0.77992 0.34831 0.93851 -0.17300
C 	C 	0.73090 0.29300 0.94530 -0.21100
C 	C 	0.08512 0.91543 0.70867 -0.01200
C 	C 	0.06033 0.95424 0.74073 -0.01300
C 	C 	0.97773 0.87937 0.63056 0.10600
C 	C 	0.90980 0.84141 0.56149 -0.17200
C 	C 	0.84770 0.78560 0.55470 -0.21200
C 	C 	0.41488 0.12355 0.83031 -0.01200
C 	C 	0.43967 0.18040 0.89391 -0.01400
C 	C 	0.52227 0.15283 0.90164 0.10600
C 	C 	0.59020 0.15169 0.93161 -0.17300
C 	C 	0.65230 0.20700 0.93790 -0.21100
C 	C 	0.79133 0.87645 0.70676 -0.01200
C 	C 	0.75927 0.81960 0.71351 -0.01400
C 	C 	0.86944 0.84717 0.74881 0.10600
C 	C 	0.93851 0.84831 0.77992 -0.17300
C 	C 	0.94530 0.79300 0.73090 -0.21100
C 	C 	0.66969 0.08457 0.79324 -0.01200
C 	C 	0.60609 0.04576 0.78649 -0.01300
C 	C 	0.59836 0.12063 0.75119 0.10600
C 	C 	0.56839 0.15859 0.72008 -0.17300
C 	C 	0.56210 0.21440 0.76910 -0.21100
C 	C 	0.83031 0.62355 0.41488 -0.01200
C 	C 	0.89391 0.68040 0.43967 -0.01400
C 	C 	0.90164 0.65283 0.52227 0.10600
C 	C 	0.93161 0.65169 0.59020 -0.17300
C 	C 	0.93790 0.70700 0.65230 -0.21100
C 	C 	0.70867 0.41543 0.08512 -0.01200
C 	C 	0.74073 0.45424 0.06033 -0.01500
C 	C 	0.63056 0.37937 0.97773 0.10700
C 	C 	0.56149 0.34141 0.90980 -0.17400
C 	C 	0.55470 0.28560 0.84770 -0.21000
C 	C 	0.91488 0.83031 0.12355 -0.01100
C 	C 	0.93967 0.89391 0.18040 -0.01800
C 	C 	0.02227 0.90164 0.15283 0.11100
C 	C 	0.09020 0.93161 0.15169 -0.17700
C 	C 	0.15230 0.93790 0.20700 -0.20700
C 	C 	0.58512 0.70867 0.91543 -0.01200
C 	C 	0.56033 0.74073 0.95424 -0.01300
C 	C 	0.47773 0.63056 0.87937 0.10600
C 	C 	0.40980 0.56149 0.84141 -0.17300
C 	C 	0.34770 0.55470 0.78560 -0.21100
C 	C 	0.20676 0.79133 0.37645 -0.01200
C 	C 	0.21351 0.75927 0.31960 -0.01400
C 	C 	0.24881 0.86944 0.34717 0.10600
C 	C 	0.27992 0.93851 0.34831 -0.17200
C 	C 	0.23090 0.94530 0.29300 -0.21200
C 	C 	0.29324 0.66969 0.58457 -0.01200
C 	C 	0.28649 0.60609 0.54576 -0.01400
C 	C 	0.25119 0.59836 0.62063 0.10600
C 	C 	0.22008 0.56839 0.65859 -0.17300
C 	C 	0.26910 0.56210 0.71440 -0.21100
C 	C 	0.08457 0.29324 0.16969 -0.01200
C 	C 	0.04576 0.28649 0.10609 -0.01400
C 	C 	0.12063 0.25119 0.09836 0.10600
C 	C 	0.15859 0.22008 0.06839 -0.17300
C 	C 	0.21440 0.26910 0.06210 -0.21200
C 	C 	0.87645 0.20676 0.29133 -0.01200
C 	C 	0.81960 0.21351 0.25927 -0.01400
C 	C 	0.84717 0.24881 0.36944 0.10600
C 	C 	0.84831 0.27992 0.43851 -0.17300
C 	C 	0.79300 0.23090 0.44530 -0.21100
C 	C 	0.41543 0.58512 0.20867 -0.01200
C 	C 	0.45424 0.56033 0.24073 -0.01400
C 	C 	0.37937 0.47773 0.13056 0.10700
C 	C 	0.34141 0.40980 0.06149 -0.17300
C 	C 	0.28560 0.34770 0.05470 -0.21100
C 	C 	0.62355 0.91488 0.33031 -0.01200
C 	C 	0.68040 0.93967 0.39391 -0.01400
C 	C 	0.65283 0.02227 0.40164 0.10700
C 	C 	0.65169 0.09020 0.43161 -0.17300
C 	C 	0.70700 0.15230 0.43790 -0.21100
C 	C 	0.62355 0.70867 0.79324 -0.01200
C 	C 	0.68040 0.74073 0.78649 -0.01300
C 	C 	0.65283 0.63056 0.75119 0.10600
C 	C 	0.65169 0.56149 0.72008 -0.17300
C 	C 	0.70700 0.55470 0.76910 -0.21200
C 	C 	0.41543 0.83031 0.70676 -0.01200
C 	C 	0.45424 0.89391 0.71351 -0.01400
C 	C 	0.37937 0.90164 0.74881 0.10600
C 	C 	0.34141 0.93161 0.77992 -0.17300
C 	C 	0.28560 0.93790 0.73090 -0.21100
C 	C 	0.87645 0.66969 0.08512 -0.01200
C 	C 	0.81960 0.60609 0.06033 -0.01600
C 	C 	0.84717 0.59836 0.97773 0.10900
C 	C 	0.84831 0.56839 0.90980 -0.17500
C 	C 	0.79300 0.56210 0.84770 -0.20900
C 	C 	0.08457 0.79133 0.41488 -0.01200
C 	C 	0.04576 0.75927 0.43967 -0.01300
C 	C 	0.12063 0.86944 0.52227 0.10700
C 	C 	0.15859 0.93851 0.59020 -0.17300
C 	C 	0.21440 0.94530 0.65230 -0.21100
C 	C 	0.66969 0.58512 0.37645 -0.01200
C 	C 	0.60609 0.56033 0.31960 -0.01400
C 	C 	0.59836 0.47773 0.34717 0.10600
C 	C 	0.56839 0.40980 0.34831 -0.17300
C 	C 	0.56210 0.34770 0.29300 -0.21100
C 	C 	0.79133 0.91488 0.58457 -0.01200
C 	C 	0.75927 0.93967 0.54576 -0.01500
C 	C 	0.86944 0.02227 0.62063 0.10800
C 	C 	0.93851 0.09020 0.65859 -0.17500
C 	C 	0.94530 0.15230 0.71440 -0.21000
C 	C 	0.70867 0.29324 0.12355 -0.01200
C 	C 	0.74073 0.28649 0.18040 -0.01400
C 	C 	0.63056 0.25119 0.15283 0.10600
C 	C 	0.56149 0.22008 0.15169 -0.17300
C 	C 	0.55470 0.26910 0.20700 -0.21100
C 	C 	0.83031 0.20676 0.91543 -0.01200
C 	C 	0.89391 0.21351 0.95424 -0.01300
C 	C 	0.90164 0.24881 0.87937 0.10700
C 	C 	0.93161 0.27992 0.84141 -0.17300
C 	C 	0.93790 0.23090 0.78560 -0.21200
C 	C 	0.20676 0.41543 0.33031 -0.01200
C 	C 	0.21351 0.45424 0.39391 -0.01400
C 	C 	0.24881 0.37937 0.40164 0.10600
C 	C 	0.27992 0.34141 0.43161 -0.17300
C 	C 	0.23090 0.28560 0.43790 -0.21100
C 	C 	0.29324 0.62355 0.20867 -0.01200
C 	C 	0.28649 0.68040 0.24073 -0.01300
C 	C 	0.25119 0.65283 0.13056 0.10700
C 	C 	0.22008 0.65169 0.06149 -0.17300
C 	C 	0.26910 0.70700 0.05470 -0.21100
C 	C 	0.91488 0.08457 0.29133 -0.01200
C 	C 	0.93967 0.04576 0.25927 -0.01300
C 	C 	0.02227 0.12063 0.36944 0.10600
C 	C 	0.09020 0.15859 0.43851 -0.17200
C 	C 	0.15230 0.21440 0.44530 -0.21200
C 	C 	0.58512 0.87645 0.16969 -0.01200
C 	C 	0.56033 0.81960 0.10609 -0.01400
C 	C 	0.47773 0.84717 0.09836 0.10600
C 	C 	0.40980 0.84831 0.06839 -0.17300
C 	C 	0.34770 0.79300 0.06210 -0.21100
N 	N 	0.13855 0.10612 0.27155 -0.28400
N 	N 	0.19097 0.19908 0.25943 -0.28600
N 	N 	0.33457 0.86700 0.22845 -0.28400
N 	N 	0.43965 0.93154 0.24057 -0.28600
N 	N 	0.16543 0.39388 0.53243 -0.28400
N 	N 	0.06035 0.30092 0.49189 -0.28700
N 	N 	0.36145 0.63300 0.96757 -0.28500
N 	N 	0.30903 0.56846 0.00811 -0.28600
N 	N 	0.03243 0.16543 0.89388 -0.28700
N 	N 	0.99189 0.06035 0.80092 -0.28500
N 	N 	0.46757 0.36145 0.13300 -0.28400
N 	N 	0.50811 0.30903 0.06846 -0.28600
N 	N 	0.77155 0.13855 0.60612 -0.28400
N 	N 	0.75943 0.19097 0.69908 -0.28600
N 	N 	0.72845 0.33457 0.36700 -0.28400
N 	N 	0.74057 0.43965 0.43154 -0.28600
N 	N 	0.86700 0.72845 0.83457 -0.28400
N 	N 	0.93154 0.74057 0.93965 -0.28600
N 	N 	0.10612 0.77155 0.63855 -0.28400
N 	N 	0.19908 0.75943 0.69097 -0.28600
N 	N 	0.63300 0.46757 0.86145 -0.28400
N 	N 	0.56846 0.50811 0.80903 -0.28600
N 	N 	0.39388 0.03243 0.66543 -0.28400
N 	N 	0.30092 0.99189 0.56035 -0.28600
N 	N 	0.39388 0.36145 0.22845 -0.28400
N 	N 	0.30092 0.30903 0.24057 -0.28600
N 	N 	0.63300 0.16543 0.27155 -0.28400
N 	N 	0.56846 0.06035 0.25943 -0.28600
N 	N 	0.10612 0.33457 0.96757 -0.28600
N 	N 	0.19908 0.43965 0.00811 -0.28600
N 	N 	0.86700 0.13855 0.53243 -0.28400
N 	N 	0.93154 0.19097 0.49189 -0.28600
N 	N 	0.33457 0.46757 0.60612 -0.28400
N 	N 	0.43965 0.50811 0.69908 -0.28600
N 	N 	0.13855 0.03243 0.36700 -0.28500
N 	N 	0.19097 0.99189 0.43154 -0.28600
N 	N 	0.36145 0.72845 0.89388 -0.28400
N 	N 	0.30903 0.74057 0.80092 -0.28600
N 	N 	0.16543 0.77155 0.13300 -0.28400
N 	N 	0.06035 0.75943 0.06846 -0.28600
N 	N 	0.77155 0.63300 0.66543 -0.28400
N 	N 	0.75943 0.56846 0.56035 -0.28600
N 	N 	0.72845 0.39388 0.86145 -0.28400
N 	N 	0.74057 0.30092 0.80903 -0.28600
N 	N 	0.03243 0.86700 0.63855 -0.28300
N 	N 	0.99189 0.93154 0.69097 -0.28600
N 	N 	0.46757 0.10612 0.83457 -0.28400
N 	N 	0.50811 0.19908 0.93965 -0.28600
N 	N 	0.86145 0.89388 0.72845 -0.28400
N 	N 	0.80903 0.80092 0.74057 -0.28600
N 	N 	0.66543 0.13300 0.77155 -0.28400
N 	N 	0.56035 0.06846 0.75943 -0.28600
N 	N 	0.83457 0.60612 0.46757 -0.28400
N 	N 	0.93965 0.69908 0.50811 -0.28700
N 	N 	0.63855 0.36700 0.03243 -0.28500
N 	N 	0.69097 0.43154 0.99189 -0.28600
N 	N 	0.96757 0.83457 0.10612 -0.28700
N 	N 	0.00811 0.93965 0.19908 -0.28500
N 	N 	0.53243 0.63855 0.86700 -0.28400
N 	N 	0.49189 0.69097 0.93154 -0.28600
N 	N 	0.22845 0.86145 0.39388 -0.28400
N 	N 	0.24057 0.80903 0.30092 -0.28600
N 	N 	0.27155 0.66543 0.63300 -0.28400
N 	N 	0.25943 0.56035 0.56846 -0.28600
N 	N 	0.13300 0.27155 0.16543 -0.28400
N 	N 	0.06846 0.25943 0.06035 -0.28600
N 	N 	0.89388 0.22845 0.36145 -0.28400
N 	N 	0.80092 0.24057 0.30903 -0.28600
N 	N 	0.36700 0.53243 0.13855 -0.28400
N 	N 	0.43154 0.49189 0.19097 -0.28600
N 	N 	0.60612 0.96757 0.33457 -0.28400
N 	N 	0.69908 0.00811 0.43965 -0.28600
N 	N 	0.60612 0.63855 0.77155 -0.28400
N 	N 	0.69908 0.69097 0.75943 -0.28600
N 	N 	0.36700 0.83457 0.72845 -0.28400
N 	N 	0.43154 0.93965 0.74057 -0.28600
N 	N 	0.89388 0.66543 0.03243 -0.28600
N 	N 	0.80092 0.56035 0.99189 -0.28600
N 	N 	0.13300 0.86145 0.46757 -0.28400
N 	N 	0.06846 0.80903 0.50811 -0.28600
N 	N 	0.66543 0.53243 0.39388 -0.28400
N 	N 	0.56035 0.49189 0.30092 -0.28600
N 	N 	0.86145 0.96757 0.63300 -0.28500
N 	N 	0.80903 0.00811 0.56846 -0.28600
N 	N 	0.63855 0.27155 0.10612 -0.28400
N 	N 	0.69097 0.25943 0.19908 -0.28600
N 	N 	0.83457 0.22845 0.86700 -0.28400
N 	N 	0.93965 0.24057 0.93154 -0.28600
N 	N 	0.22845 0.36700 0.33457 -0.28400
N 	N 	0.24057 0.43154 0.43965 -0.28600
N 	N 	0.27155 0.60612 0.13855 -0.28400
N 	N 	0.25943 0.69908 0.19097 -0.28600
N 	N 	0.96757 0.13300 0.36145 -0.28300
N 	N 	0.00811 0.06846 0.30903 -0.28600
N 	N 	0.53243 0.89388 0.16543 -0.28400
N 	N 	0.49189 0.80092 0.06035 -0.28600
