data_crystal

_cell_length_a 38.14280
_cell_length_b 38.14280
_cell_length_c 39.24560
_cell_angle_alpha 66.47770
_cell_angle_beta  66.47800
_cell_angle_gamma 100.29500

_symmetry_space_group_name_	'P 1'
_symmetry_space_group_name_H-M	'P 1'

loop_
_symmetry_equiv_pos_as_xyz
  x,y,z

loop_
_atom_site_label
_atom_site_type_symbol
_atom_site_fract_x
_atom_site_fract_y
_atom_site_fract_z
_atom_site_charge
Mn	Mn	0.25000 0.00000 0.25000 1.26400
Mn	Mn	-0.00000 0.25000 0.25000 1.26500
Mn	Mn	0.25000 0.25000 0.25000 1.23700
Mn	Mn	-0.00000 0.00000 0.25000 1.21700
Mn	Mn	0.34170 0.34170 0.14617 1.17000
Mn	Mn	0.01213 0.01213 0.14617 1.15500
Mn	Mn	0.15830 0.15830 0.35383 1.16900
Mn	Mn	0.48787 0.48787 0.35383 1.16100
Mn	Mn	0.01458 0.29276 -0.00000 1.28500
Mn	Mn	0.48542 0.20725 -0.00000 1.29300
Mn	Mn	0.20725 0.48542 -0.00000 1.29300
Mn	Mn	0.29276 0.01458 -0.00000 1.28500
H 	H 	0.35165 0.12985 0.22070 0.06600
H 	H 	0.27320 0.14190 0.13500 0.05700
H 	H 	0.28410 0.16780 0.20550 0.03500
H 	H 	0.38605 0.26695 0.10140 0.02200
H 	H 	0.36965 0.15345 0.11780 0.05400
H 	H 	0.42765 0.14945 0.22070 0.05900
H 	H 	0.09180 0.22310 0.13500 0.06000
H 	H 	0.01040 0.12670 0.20550 0.03100
H 	H 	0.01255 0.13165 0.10140 0.01700
H 	H 	0.01255 0.22875 0.11780 0.05300
H 	H 	0.37015 0.14835 0.27930 0.06100
H 	H 	0.35810 0.22680 0.36500 0.06100
H 	H 	0.33220 0.21590 0.29450 0.03600
H 	H 	0.23305 0.11395 0.39860 0.02300
H 	H 	0.34655 0.13035 0.38220 0.05400
H 	H 	0.35055 0.07235 0.27930 0.04700
H 	H 	0.27690 0.40820 0.36500 0.06100
H 	H 	0.37330 0.48960 0.29450 0.03600
H 	H 	0.36835 0.48745 0.39860 0.02000
H 	H 	0.27125 0.48745 0.38220 0.05600
H 	H 	0.14835 0.37015 0.27930 0.06100
H 	H 	0.22680 0.35810 0.36500 0.06100
H 	H 	0.21590 0.33220 0.29450 0.03600
H 	H 	0.11395 0.23305 0.39860 0.02300
H 	H 	0.13035 0.34655 0.38220 0.05400
H 	H 	0.07235 0.35055 0.27930 0.04700
H 	H 	0.40820 0.27690 0.36500 0.06000
H 	H 	0.48960 0.37330 0.29450 0.03600
H 	H 	0.48745 0.36835 0.39860 0.02000
H 	H 	0.48745 0.27125 0.38220 0.05600
H 	H 	0.12985 0.35165 0.22070 0.06500
H 	H 	0.14190 0.27320 0.13500 0.05700
H 	H 	0.16780 0.28410 0.20550 0.03500
H 	H 	0.26695 0.38605 0.10140 0.02200
H 	H 	0.15345 0.36965 0.11780 0.05400
H 	H 	0.14945 0.42765 0.22070 0.05900
H 	H 	0.22310 0.09180 0.13500 0.06000
H 	H 	0.12670 0.01040 0.20550 0.03100
H 	H 	0.13165 0.01255 0.10140 0.01300
H 	H 	0.22875 0.01255 0.11780 0.05300
C 	C 	0.33605 0.10155 0.23400 -0.09200
C 	C 	0.30804 0.08366 0.22400 0.09600
C 	C 	0.29953 0.10703 0.19294 -0.11800
C 	C 	0.27158 0.08924 0.18438 0.09000
C 	C 	0.26225 0.11295 0.15240 -0.07700
C 	C 	0.32319 0.15308 0.16633 0.02800
C 	C 	0.30945 0.17915 0.17980 -0.01200
C 	C 	0.33272 0.22122 0.15587 -0.14300
C 	C 	0.37015 0.23825 0.11770 0.05700
C 	C 	0.38458 0.21298 0.10315 -0.10700
C 	C 	0.36053 0.17053 0.12754 -0.03000
C 	C 	0.31750 0.24920 0.17080 0.45700
C 	C 	0.42635 0.23115 0.06250 0.39300
C 	C 	0.42995 0.16445 0.23400 -0.08000
C 	C 	0.46796 0.19234 0.22400 0.09300
C 	C 	0.00753 0.20003 0.19294 -0.15200
C 	C 	0.04404 0.22638 0.18438 0.10000
C 	C 	0.08535 0.23465 0.15240 -0.08600
C 	C 	0.01048 0.18059 0.16633 0.03300
C 	C 	0.01075 0.14105 0.17980 -0.01700
C 	C 	0.01141 0.12292 0.15587 -0.14900
C 	C 	0.01215 0.14405 0.11770 0.05700
C 	C 	0.01227 0.18388 0.10315 -0.11100
C 	C 	0.01193 0.20193 0.12754 -0.03600
C 	C 	0.01170 0.08000 0.17080 0.45700
C 	C 	0.01115 0.20635 0.06250 0.39400
C 	C 	0.39845 0.16395 0.26600 -0.08200
C 	C 	0.41634 0.19196 0.27600 0.09300
C 	C 	0.39297 0.20047 0.30706 -0.11700
C 	C 	0.41076 0.22842 0.31562 0.09100
C 	C 	0.38705 0.23775 0.34760 -0.07800
C 	C 	0.34692 0.17681 0.33367 0.02800
C 	C 	0.32085 0.19055 0.32020 -0.01200
C 	C 	0.27879 0.16729 0.34413 -0.14200
C 	C 	0.26175 0.12985 0.38230 0.05700
C 	C 	0.28703 0.11543 0.39685 -0.10700
C 	C 	0.32947 0.13947 0.37246 -0.03000
C 	C 	0.25080 0.18250 0.32920 0.45700
C 	C 	0.26885 0.07365 0.43750 0.39500
C 	C 	0.33555 0.07005 0.26600 -0.06200
C 	C 	0.30766 0.03204 0.27600 0.05400
C 	C 	0.29997 0.49247 0.30706 -0.11600
C 	C 	0.27362 0.45596 0.31562 0.09100
C 	C 	0.26535 0.41465 0.34760 -0.07800
C 	C 	0.31942 0.48952 0.33367 0.02700
C 	C 	0.35895 0.48925 0.32020 -0.01100
C 	C 	0.37709 0.48859 0.34413 -0.14500
C 	C 	0.35595 0.48785 0.38230 0.05700
C 	C 	0.31612 0.48773 0.39685 -0.10700
C 	C 	0.29807 0.48807 0.37246 -0.03000
C 	C 	0.42000 0.48830 0.32920 0.45700
C 	C 	0.29365 0.48885 0.43750 0.39400
C 	C 	0.16395 0.39845 0.26600 -0.08200
C 	C 	0.19196 0.41634 0.27600 0.09300
C 	C 	0.20047 0.39297 0.30706 -0.11700
C 	C 	0.22842 0.41076 0.31562 0.09200
C 	C 	0.23775 0.38705 0.34760 -0.07800
C 	C 	0.17682 0.34692 0.33367 0.02800
C 	C 	0.19055 0.32085 0.32020 -0.01200
C 	C 	0.16729 0.27879 0.34413 -0.14200
C 	C 	0.12985 0.26175 0.38230 0.05700
C 	C 	0.11543 0.28703 0.39685 -0.10600
C 	C 	0.13947 0.32947 0.37246 -0.03000
C 	C 	0.18250 0.25080 0.32920 0.45700
C 	C 	0.07365 0.26885 0.43750 0.39400
C 	C 	0.07005 0.33555 0.26600 -0.06200
C 	C 	0.03204 0.30766 0.27600 0.05600
C 	C 	0.49247 0.29997 0.30706 -0.11600
C 	C 	0.45596 0.27362 0.31562 0.09100
C 	C 	0.41465 0.26535 0.34760 -0.07800
C 	C 	0.48952 0.31942 0.33367 0.02700
C 	C 	0.48925 0.35895 0.32020 -0.01100
C 	C 	0.48859 0.37708 0.34413 -0.14500
C 	C 	0.48785 0.35595 0.38230 0.05700
C 	C 	0.48773 0.31613 0.39685 -0.10700
C 	C 	0.48807 0.29807 0.37246 -0.03000
C 	C 	0.48830 0.42000 0.32920 0.45600
C 	C 	0.48885 0.29365 0.43750 0.39400
C 	C 	0.10155 0.33605 0.23400 -0.09200
C 	C 	0.08366 0.30804 0.22400 0.09600
C 	C 	0.10703 0.29953 0.19294 -0.11800
C 	C 	0.08924 0.27158 0.18438 0.09000
C 	C 	0.11295 0.26225 0.15240 -0.07700
C 	C 	0.15309 0.32319 0.16633 0.02800
C 	C 	0.17915 0.30945 0.17980 -0.01200
C 	C 	0.22122 0.33271 0.15587 -0.14300
C 	C 	0.23825 0.37015 0.11770 0.05700
C 	C 	0.21298 0.38458 0.10315 -0.10700
C 	C 	0.17053 0.36053 0.12754 -0.03000
C 	C 	0.24920 0.31750 0.17080 0.45700
C 	C 	0.23115 0.42635 0.06250 0.39300
C 	C 	0.16445 0.42995 0.23400 -0.08000
C 	C 	0.19234 0.46796 0.22400 0.09300
C 	C 	0.20003 0.00753 0.19294 -0.15200
C 	C 	0.22638 0.04404 0.18438 0.10000
C 	C 	0.23465 0.08535 0.15240 -0.08600
C 	C 	0.18059 0.01049 0.16633 0.03100
C 	C 	0.14105 0.01075 0.17980 -0.01700
C 	C 	0.12292 0.01141 0.15587 -0.15200
C 	C 	0.14405 0.01215 0.11770 0.05700
C 	C 	0.18388 0.01227 0.10315 -0.11300
C 	C 	0.20193 0.01193 0.12754 -0.03500
C 	C 	0.08000 0.01170 0.17080 0.45700
C 	C 	0.20635 0.01115 0.06250 0.39400
N 	N 	0.24918 0.04738 0.20344 -0.28800
N 	N 	0.04738 0.24918 0.20344 -0.28700
N 	N 	0.45262 0.25082 0.29656 -0.28300
N 	N 	0.25082 0.45262 0.29656 -0.28300
N 	N 	0.29120 0.04120 0.25000 -0.28200
N 	N 	0.45880 0.20880 0.25000 -0.28400
N 	N 	0.20880 0.45880 0.25000 -0.28400
N 	N 	0.04120 0.29120 0.25000 -0.28200
Cl	Cl	0.04150 0.35295 -0.00000 -0.53200
Cl	Cl	0.45850 0.14705 -0.00000 -0.52300
Cl	Cl	0.14705 0.45850 -0.00000 -0.52300
Cl	Cl	0.35295 0.04150 -0.00000 -0.53200
Cl	Cl	0.19219 0.00158 0.30623 -0.50600
Cl	Cl	0.00158 0.19219 0.30623 -0.50500
Cl	Cl	0.49842 0.30782 0.19377 -0.48700
Cl	Cl	0.30782 0.49842 0.19377 -0.48600
O 	O 	0.28492 0.23250 0.20629 -0.52800
O 	O 	0.33965 0.28705 0.14700 -0.56300
O 	O 	0.45033 0.26733 0.04715 -0.45500
O 	O 	0.43381 0.20780 0.04809 -0.46800
O 	O 	0.00879 0.06122 0.20629 -0.54100
O 	O 	0.01335 0.06595 0.14700 -0.57400
O 	O 	0.00252 0.18553 0.04715 -0.46800
O 	O 	0.01810 0.24411 0.04809 -0.47400
O 	O 	0.26751 0.21509 0.29371 -0.52700
O 	O 	0.21295 0.16035 0.35300 -0.56200
O 	O 	0.23268 0.04967 0.45285 -0.45800
O 	O 	0.29220 0.06619 0.45191 -0.46600
O 	O 	0.43879 0.49121 0.29371 -0.52900
O 	O 	0.43405 0.48665 0.35300 -0.56900
O 	O 	0.31448 0.49748 0.45285 -0.45200
O 	O 	0.25589 0.48190 0.45191 -0.46000
O 	O 	0.21509 0.26751 0.29371 -0.52700
O 	O 	0.16035 0.21295 0.35300 -0.56200
O 	O 	0.04968 0.23267 0.45285 -0.45700
O 	O 	0.06619 0.29220 0.45191 -0.46500
O 	O 	0.49121 0.43879 0.29371 -0.52900
O 	O 	0.48665 0.43405 0.35300 -0.56900
O 	O 	0.49748 0.31448 0.45285 -0.45200
O 	O 	0.48190 0.25589 0.45191 -0.46000
O 	O 	0.23250 0.28492 0.20629 -0.52800
O 	O 	0.28705 0.33965 0.14700 -0.56300
O 	O 	0.26733 0.45033 0.04715 -0.45500
O 	O 	0.20780 0.43381 0.04809 -0.46800
O 	O 	0.06122 0.00880 0.20629 -0.54200
O 	O 	0.06595 0.01335 0.14700 -0.57800
O 	O 	0.18553 0.00252 0.04715 -0.47200
O 	O 	0.24411 0.01810 0.04809 -0.47400
Mn	Mn	0.75000 0.00000 0.25000 1.30300
Mn	Mn	0.50000 0.25000 0.25000 1.27400
Mn	Mn	0.75000 0.25000 0.25000 1.23600
Mn	Mn	0.50000 0.00000 0.25000 1.22600
Mn	Mn	0.84170 0.34170 0.14617 1.16800
Mn	Mn	0.51213 0.01213 0.14617 1.16100
Mn	Mn	0.65830 0.15830 0.35383 1.16600
Mn	Mn	0.98787 0.48787 0.35383 1.17400
Mn	Mn	0.51459 0.29276 -0.00000 1.29300
Mn	Mn	0.98542 0.20725 -0.00000 1.30100
Mn	Mn	0.70725 0.48542 -0.00000 1.29300
Mn	Mn	0.79276 0.01458 -0.00000 1.28500
H 	H 	0.85165 0.12985 0.22070 0.06500
H 	H 	0.77320 0.14190 0.13500 0.05700
H 	H 	0.78410 0.16780 0.20550 0.03400
H 	H 	0.88605 0.26695 0.10140 0.02100
H 	H 	0.86965 0.15345 0.11780 0.06700
H 	H 	0.92765 0.14945 0.22070 0.07300
H 	H 	0.59180 0.22310 0.13500 0.05700
H 	H 	0.51040 0.12670 0.20550 0.02300
H 	H 	0.51255 0.13165 0.10140 0.01600
H 	H 	0.51255 0.22875 0.11780 0.06600
H 	H 	0.87015 0.14835 0.27930 0.05700
H 	H 	0.85810 0.22680 0.36500 0.06200
H 	H 	0.83220 0.21590 0.29450 0.02800
H 	H 	0.73305 0.11395 0.39860 0.02300
H 	H 	0.84655 0.13035 0.38220 0.06800
H 	H 	0.85055 0.07235 0.27930 0.05200
H 	H 	0.77690 0.40820 0.36500 0.06000
H 	H 	0.87330 0.48960 0.29450 0.03900
H 	H 	0.86835 0.48745 0.39860 0.02700
H 	H 	0.77125 0.48745 0.38220 0.05600
H 	H 	0.64835 0.37015 0.27930 0.05900
H 	H 	0.72680 0.35810 0.36500 0.06000
H 	H 	0.71590 0.33220 0.29450 0.03500
H 	H 	0.61395 0.23305 0.39860 0.02000
H 	H 	0.63035 0.34655 0.38220 0.05500
H 	H 	0.57235 0.35055 0.27930 0.05900
H 	H 	0.90820 0.27690 0.36500 0.05800
H 	H 	0.98960 0.37330 0.29450 0.03000
H 	H 	0.98745 0.36835 0.39860 0.02500
H 	H 	0.98745 0.27125 0.38220 0.07000
H 	H 	0.62985 0.35165 0.22070 0.06200
H 	H 	0.64190 0.27320 0.13500 0.05700
H 	H 	0.66780 0.28410 0.20550 0.02700
H 	H 	0.76695 0.38605 0.10140 0.02200
H 	H 	0.65345 0.36965 0.11780 0.06700
H 	H 	0.64945 0.42765 0.22070 0.06200
H 	H 	0.72310 0.09180 0.13500 0.06100
H 	H 	0.62670 0.01040 0.20550 0.03300
H 	H 	0.63165 0.01255 0.10140 0.02000
H 	H 	0.72875 0.01255 0.11780 0.06400
C 	C 	0.83605 0.10155 0.23400 -0.08800
C 	C 	0.80804 0.08366 0.22400 0.10900
C 	C 	0.79953 0.10703 0.19294 -0.11300
C 	C 	0.77158 0.08924 0.18438 0.10200
C 	C 	0.76225 0.11295 0.15240 -0.07500
C 	C 	0.82319 0.15308 0.16633 0.03100
C 	C 	0.80945 0.17915 0.17980 -0.01400
C 	C 	0.83272 0.22122 0.15587 -0.14400
C 	C 	0.87015 0.23825 0.11770 0.05400
C 	C 	0.88458 0.21298 0.10315 -0.10300
C 	C 	0.86053 0.17053 0.12754 -0.03300
C 	C 	0.81750 0.24920 0.17080 0.45600
C 	C 	0.92635 0.23115 0.06250 0.39200
C 	C 	0.92995 0.16445 0.23400 -0.09700
C 	C 	0.96796 0.19234 0.22400 0.13200
C 	C 	0.50753 0.20003 0.19294 -0.11600
C 	C 	0.54404 0.22638 0.18438 0.09000
C 	C 	0.58535 0.23465 0.15240 -0.07900
C 	C 	0.51049 0.18058 0.16633 0.02500
C 	C 	0.51075 0.14105 0.17980 -0.01000
C 	C 	0.51142 0.12292 0.15587 -0.15100
C 	C 	0.51215 0.14405 0.11770 0.05900
C 	C 	0.51228 0.18388 0.10315 -0.10900
C 	C 	0.51193 0.20193 0.12754 -0.02900
C 	C 	0.51170 0.08000 0.17080 0.45800
C 	C 	0.51115 0.20635 0.06250 0.39400
C 	C 	0.89845 0.16395 0.26600 -0.07000
C 	C 	0.91634 0.19196 0.27600 0.09300
C 	C 	0.89297 0.20047 0.30706 -0.11400
C 	C 	0.91076 0.22842 0.31562 0.09400
C 	C 	0.88705 0.23775 0.34760 -0.08100
C 	C 	0.84692 0.17681 0.33367 0.02900
C 	C 	0.82085 0.19055 0.32020 -0.01200
C 	C 	0.77879 0.16729 0.34413 -0.14300
C 	C 	0.76175 0.12985 0.38230 0.05700
C 	C 	0.78703 0.11543 0.39685 -0.10400
C 	C 	0.82947 0.13947 0.37246 -0.03100
C 	C 	0.75080 0.18250 0.32920 0.45700
C 	C 	0.76885 0.07365 0.43750 0.39400
C 	C 	0.83555 0.07005 0.26600 -0.06200
C 	C 	0.80766 0.03204 0.27600 0.06900
C 	C 	0.79997 0.49247 0.30706 -0.11700
C 	C 	0.77362 0.45596 0.31562 0.09200
C 	C 	0.76535 0.41465 0.34760 -0.07900
C 	C 	0.81942 0.48952 0.33367 0.03000
C 	C 	0.85895 0.48925 0.32020 -0.01500
C 	C 	0.87709 0.48859 0.34413 -0.13700
C 	C 	0.85595 0.48785 0.38230 0.05400
C 	C 	0.81613 0.48773 0.39685 -0.10200
C 	C 	0.79807 0.48807 0.37246 -0.03200
C 	C 	0.92000 0.48830 0.32920 0.45400
C 	C 	0.79365 0.48885 0.43750 0.39300
C 	C 	0.66395 0.39845 0.26600 -0.07900
C 	C 	0.69196 0.41634 0.27600 0.09200
C 	C 	0.70047 0.39297 0.30706 -0.11600
C 	C 	0.72842 0.41076 0.31562 0.09100
C 	C 	0.73775 0.38705 0.34760 -0.07900
C 	C 	0.67682 0.34692 0.33367 0.02600
C 	C 	0.69055 0.32085 0.32020 -0.01100
C 	C 	0.66729 0.27879 0.34413 -0.14500
C 	C 	0.62985 0.26175 0.38230 0.05700
C 	C 	0.61543 0.28703 0.39685 -0.10700
C 	C 	0.63947 0.32947 0.37246 -0.03000
C 	C 	0.68250 0.25080 0.32920 0.45600
C 	C 	0.57365 0.26885 0.43750 0.39400
C 	C 	0.57005 0.33555 0.26600 -0.07900
C 	C 	0.53204 0.30766 0.27600 0.09200
C 	C 	0.99247 0.29997 0.30706 -0.07900
C 	C 	0.95596 0.27362 0.31562 0.08300
C 	C 	0.91465 0.26535 0.34760 -0.07100
C 	C 	0.98952 0.31942 0.33367 0.02300
C 	C 	0.98925 0.35895 0.32020 -0.00600
C 	C 	0.98859 0.37708 0.34413 -0.14200
C 	C 	0.98785 0.35595 0.38230 0.05700
C 	C 	0.98773 0.31613 0.39685 -0.10100
C 	C 	0.98807 0.29807 0.37246 -0.02500
C 	C 	0.98830 0.42000 0.32920 0.45600
C 	C 	0.98885 0.29365 0.43750 0.39400
C 	C 	0.60155 0.33605 0.23400 -0.08200
C 	C 	0.58366 0.30804 0.22400 0.09500
C 	C 	0.60703 0.29953 0.19294 -0.11700
C 	C 	0.58924 0.27158 0.18438 0.09000
C 	C 	0.61295 0.26225 0.15240 -0.08000
C 	C 	0.65309 0.32319 0.16633 0.02900
C 	C 	0.67915 0.30945 0.17980 -0.01300
C 	C 	0.72122 0.33271 0.15587 -0.14400
C 	C 	0.73825 0.37015 0.11770 0.05600
C 	C 	0.71298 0.38458 0.10315 -0.10400
C 	C 	0.67053 0.36053 0.12754 -0.03200
C 	C 	0.74920 0.31750 0.17080 0.45700
C 	C 	0.73115 0.42635 0.06250 0.39200
C 	C 	0.66445 0.42995 0.23400 -0.08200
C 	C 	0.69234 0.46796 0.22400 0.09500
C 	C 	0.70003 0.00753 0.19294 -0.14800
C 	C 	0.72638 0.04404 0.18438 0.11300
C 	C 	0.73465 0.08535 0.15240 -0.08500
C 	C 	0.68059 0.01049 0.16633 0.03800
C 	C 	0.64105 0.01075 0.17980 -0.02200
C 	C 	0.62292 0.01141 0.15587 -0.14400
C 	C 	0.64405 0.01215 0.11770 0.05300
C 	C 	0.68388 0.01227 0.10315 -0.10600
C 	C 	0.70193 0.01193 0.12754 -0.04100
C 	C 	0.58000 0.01170 0.17080 0.45600
C 	C 	0.70635 0.01115 0.06250 0.39200
N 	N 	0.74918 0.04738 0.20344 -0.26800
N 	N 	0.54738 0.24918 0.20344 -0.28300
N 	N 	0.95262 0.25082 0.29656 -0.27400
N 	N 	0.75082 0.45262 0.29656 -0.28300
N 	N 	0.79120 0.04120 0.25000 -0.26200
N 	N 	0.95880 0.20880 0.25000 -0.28100
N 	N 	0.70880 0.45880 0.25000 -0.28400
N 	N 	0.54120 0.29120 0.25000 -0.28400
Cl	Cl	0.54150 0.35295 -0.00000 -0.51700
Cl	Cl	0.95850 0.14705 -0.00000 -0.51200
Cl	Cl	0.64705 0.45850 -0.00000 -0.51700
Cl	Cl	0.85295 0.04150 -0.00000 -0.53100
Cl	Cl	0.69219 0.00158 0.30623 -0.50900
Cl	Cl	0.80782 0.49842 0.19377 -0.48600
O 	O 	0.78492 0.23250 0.20629 -0.53000
O 	O 	0.83965 0.28705 0.14700 -0.56700
O 	O 	0.95033 0.26733 0.04715 -0.44800
O 	O 	0.93381 0.20780 0.04809 -0.45900
O 	O 	0.50879 0.06121 0.20629 -0.53900
O 	O 	0.51335 0.06595 0.14700 -0.57300
O 	O 	0.50253 0.18553 0.04715 -0.46000
O 	O 	0.51810 0.24411 0.04809 -0.46400
O 	O 	0.76751 0.21509 0.29371 -0.53000
O 	O 	0.71295 0.16035 0.35300 -0.56400
O 	O 	0.73268 0.04967 0.45285 -0.45800
O 	O 	0.79220 0.06619 0.45191 -0.46100
O 	O 	0.93879 0.49121 0.29371 -0.51800
O 	O 	0.93405 0.48665 0.35300 -0.55600
O 	O 	0.81448 0.49748 0.45285 -0.44600
O 	O 	0.75589 0.48190 0.45191 -0.46000
O 	O 	0.71509 0.26751 0.29371 -0.53000
O 	O 	0.66035 0.21295 0.35300 -0.56800
O 	O 	0.54968 0.23267 0.45285 -0.45200
O 	O 	0.56619 0.29220 0.45191 -0.46100
O 	O 	0.99121 0.43879 0.29371 -0.52000
O 	O 	0.98665 0.43405 0.35300 -0.56000
O 	O 	0.99748 0.31447 0.45285 -0.43900
O 	O 	0.98190 0.25589 0.45191 -0.44900
O 	O 	0.73250 0.28492 0.20629 -0.53100
O 	O 	0.78705 0.33965 0.14700 -0.56400
O 	O 	0.76733 0.45033 0.04715 -0.45500
O 	O 	0.70780 0.43381 0.04809 -0.46400
O 	O 	0.56122 0.00880 0.20629 -0.53600
O 	O 	0.56595 0.01335 0.14700 -0.57000
O 	O 	0.68553 0.00252 0.04715 -0.46700
O 	O 	0.74411 0.01810 0.04809 -0.47000
Mn	Mn	0.25000 0.50000 0.25000 1.27400
Mn	Mn	-0.00000 0.75000 0.25000 1.26600
Mn	Mn	0.25000 0.75000 0.25000 1.23600
Mn	Mn	-0.00000 0.50000 0.25000 1.22600
Mn	Mn	0.34170 0.84170 0.14617 1.16800
Mn	Mn	0.01213 0.51213 0.14617 1.16100
Mn	Mn	0.15830 0.65830 0.35383 1.16700
Mn	Mn	0.48787 0.98787 0.35383 1.17300
Mn	Mn	0.01458 0.79276 -0.00000 1.28500
Mn	Mn	0.48542 0.70725 -0.00000 1.29400
Mn	Mn	0.20725 0.98542 -0.00000 1.30100
Mn	Mn	0.29276 0.51458 -0.00000 1.29400
H 	H 	0.35165 0.62985 0.22070 0.06200
H 	H 	0.27320 0.64190 0.13500 0.05700
H 	H 	0.28410 0.66780 0.20550 0.02700
H 	H 	0.38605 0.76695 0.10140 0.02200
H 	H 	0.36965 0.65345 0.11780 0.06700
H 	H 	0.42765 0.64945 0.22070 0.06200
H 	H 	0.09180 0.72310 0.13500 0.05900
H 	H 	0.01040 0.62670 0.20550 0.03300
H 	H 	0.01255 0.63165 0.10140 0.01900
H 	H 	0.01255 0.72875 0.11780 0.05300
H 	H 	0.37015 0.64835 0.27930 0.05900
H 	H 	0.35810 0.72680 0.36500 0.06000
H 	H 	0.33220 0.71590 0.29450 0.03500
H 	H 	0.23305 0.61395 0.39860 0.02100
H 	H 	0.34655 0.63035 0.38220 0.05500
H 	H 	0.35055 0.57235 0.27930 0.05900
H 	H 	0.27690 0.90820 0.36500 0.05800
H 	H 	0.37330 0.98960 0.29450 0.03000
H 	H 	0.36835 0.98745 0.39860 0.02500
H 	H 	0.27125 0.98745 0.38220 0.07000
H 	H 	0.14835 0.87015 0.27930 0.05800
H 	H 	0.22680 0.85810 0.36500 0.06200
H 	H 	0.21590 0.83220 0.29450 0.02800
H 	H 	0.11395 0.73305 0.39860 0.02300
H 	H 	0.13035 0.84655 0.38220 0.06800
H 	H 	0.07235 0.85055 0.27930 0.05100
H 	H 	0.40820 0.77690 0.36500 0.06000
H 	H 	0.48960 0.87330 0.29450 0.03900
H 	H 	0.48745 0.86835 0.39860 0.02700
H 	H 	0.48745 0.77125 0.38220 0.05600
H 	H 	0.12985 0.85165 0.22070 0.06400
H 	H 	0.14190 0.77320 0.13500 0.05600
H 	H 	0.16780 0.78410 0.20550 0.03400
H 	H 	0.26695 0.88605 0.10140 0.02000
H 	H 	0.15345 0.86965 0.11780 0.05500
H 	H 	0.14945 0.92765 0.22070 0.07100
H 	H 	0.22310 0.59180 0.13500 0.05700
H 	H 	0.12670 0.51040 0.20550 0.02300
H 	H 	0.13165 0.51255 0.10140 0.01700
H 	H 	0.22875 0.51255 0.11780 0.06600
C 	C 	0.33605 0.60155 0.23400 -0.08200
C 	C 	0.30804 0.58366 0.22400 0.09500
C 	C 	0.29953 0.60703 0.19294 -0.11700
C 	C 	0.27158 0.58924 0.18438 0.09100
C 	C 	0.26225 0.61295 0.15240 -0.08000
C 	C 	0.32319 0.65309 0.16633 0.02900
C 	C 	0.30945 0.67915 0.17980 -0.01300
C 	C 	0.33272 0.72122 0.15587 -0.14400
C 	C 	0.37015 0.73825 0.11770 0.05600
C 	C 	0.38458 0.71298 0.10315 -0.10400
C 	C 	0.36053 0.67053 0.12754 -0.03200
C 	C 	0.31750 0.74920 0.17080 0.45700
C 	C 	0.42635 0.73115 0.06250 0.39200
C 	C 	0.42995 0.66445 0.23400 -0.08200
C 	C 	0.46796 0.69234 0.22400 0.09500
C 	C 	0.00753 0.70003 0.19294 -0.15200
C 	C 	0.04404 0.72638 0.18438 0.10000
C 	C 	0.08535 0.73465 0.15240 -0.08700
C 	C 	0.01048 0.68059 0.16633 0.03400
C 	C 	0.01075 0.64105 0.17980 -0.01900
C 	C 	0.01141 0.62292 0.15587 -0.14600
C 	C 	0.01215 0.64405 0.11770 0.05500
C 	C 	0.01227 0.68388 0.10315 -0.10900
C 	C 	0.01193 0.70193 0.12754 -0.03700
C 	C 	0.01170 0.58000 0.17080 0.45700
C 	C 	0.01115 0.70635 0.06250 0.39300
C 	C 	0.39845 0.66395 0.26600 -0.07900
C 	C 	0.41634 0.69196 0.27600 0.09200
C 	C 	0.39297 0.70047 0.30706 -0.11600
C 	C 	0.41076 0.72842 0.31562 0.09100
C 	C 	0.38705 0.73775 0.34760 -0.07900
C 	C 	0.34692 0.67681 0.33367 0.02700
C 	C 	0.32085 0.69055 0.32020 -0.01100
C 	C 	0.27879 0.66729 0.34413 -0.14500
C 	C 	0.26175 0.62985 0.38230 0.05700
C 	C 	0.28703 0.61543 0.39685 -0.10700
C 	C 	0.32947 0.63947 0.37246 -0.03000
C 	C 	0.25080 0.68250 0.32920 0.45600
C 	C 	0.26885 0.57365 0.43750 0.39400
C 	C 	0.33555 0.57005 0.26600 -0.07900
C 	C 	0.30766 0.53204 0.27600 0.09200
C 	C 	0.29997 0.99247 0.30706 -0.07800
C 	C 	0.27362 0.95596 0.31562 0.08300
C 	C 	0.26535 0.91465 0.34760 -0.07100
C 	C 	0.31942 0.98952 0.33367 0.02200
C 	C 	0.35895 0.98925 0.32020 -0.00500
C 	C 	0.37709 0.98859 0.34413 -0.14200
C 	C 	0.35595 0.98785 0.38230 0.05700
C 	C 	0.31612 0.98773 0.39685 -0.10100
C 	C 	0.29807 0.98807 0.37246 -0.02400
C 	C 	0.42000 0.98830 0.32920 0.45600
C 	C 	0.29365 0.98885 0.43750 0.39300
C 	C 	0.16395 0.89845 0.26600 -0.07100
C 	C 	0.19196 0.91634 0.27600 0.09400
C 	C 	0.20047 0.89297 0.30706 -0.11500
C 	C 	0.22842 0.91076 0.31562 0.09400
C 	C 	0.23775 0.88705 0.34760 -0.08100
C 	C 	0.17682 0.84692 0.33367 0.02900
C 	C 	0.19055 0.82085 0.32020 -0.01300
C 	C 	0.16729 0.77879 0.34413 -0.14300
C 	C 	0.12985 0.76175 0.38230 0.05600
C 	C 	0.11543 0.78703 0.39685 -0.10300
C 	C 	0.13947 0.82947 0.37246 -0.03200
C 	C 	0.18250 0.75080 0.32920 0.45700
C 	C 	0.07365 0.76885 0.43750 0.39300
C 	C 	0.07005 0.83555 0.26600 -0.06400
C 	C 	0.03204 0.80766 0.27600 0.05900
C 	C 	0.49247 0.79997 0.30706 -0.11700
C 	C 	0.45596 0.77362 0.31562 0.09200
C 	C 	0.41465 0.76535 0.34760 -0.07900
C 	C 	0.48952 0.81942 0.33367 0.03000
C 	C 	0.48925 0.85895 0.32020 -0.01400
C 	C 	0.48859 0.87708 0.34413 -0.13700
C 	C 	0.48785 0.85595 0.38230 0.05400
C 	C 	0.48773 0.81613 0.39685 -0.10200
C 	C 	0.48807 0.79807 0.37246 -0.03200
C 	C 	0.48830 0.92000 0.32920 0.45400
C 	C 	0.48885 0.79365 0.43750 0.39300
C 	C 	0.10155 0.83605 0.23400 -0.08900
C 	C 	0.08366 0.80804 0.22400 0.09500
C 	C 	0.10703 0.79953 0.19294 -0.11800
C 	C 	0.08924 0.77158 0.18438 0.08900
C 	C 	0.11295 0.76225 0.15240 -0.07700
C 	C 	0.15309 0.82319 0.16633 0.02700
C 	C 	0.17915 0.80945 0.17980 -0.01100
C 	C 	0.22122 0.83272 0.15587 -0.14600
C 	C 	0.23825 0.87015 0.11770 0.05600
C 	C 	0.21298 0.88458 0.10315 -0.10700
C 	C 	0.17053 0.86053 0.12754 -0.03000
C 	C 	0.24920 0.81750 0.17080 0.45600
C 	C 	0.23115 0.92635 0.06250 0.39300
C 	C 	0.16445 0.92995 0.23400 -0.09700
C 	C 	0.19234 0.96796 0.22400 0.13200
C 	C 	0.20003 0.50753 0.19294 -0.11600
C 	C 	0.22638 0.54404 0.18438 0.09000
C 	C 	0.23465 0.58535 0.15240 -0.07900
C 	C 	0.18059 0.51049 0.16633 0.02600
C 	C 	0.14105 0.51075 0.17980 -0.01000
C 	C 	0.12292 0.51141 0.15587 -0.15100
C 	C 	0.14405 0.51215 0.11770 0.05800
C 	C 	0.18388 0.51227 0.10315 -0.10900
C 	C 	0.20193 0.51193 0.12754 -0.02900
C 	C 	0.08000 0.51170 0.17080 0.45800
C 	C 	0.20635 0.51115 0.06250 0.39400
N 	N 	0.24918 0.54738 0.20344 -0.28300
N 	N 	0.04738 0.74918 0.20344 -0.28700
N 	N 	0.45262 0.75082 0.29656 -0.28300
N 	N 	0.25082 0.95262 0.29656 -0.27300
N 	N 	0.29120 0.54120 0.25000 -0.28400
N 	N 	0.45880 0.70880 0.25000 -0.28400
N 	N 	0.20880 0.95880 0.25000 -0.28100
N 	N 	0.04120 0.79120 0.25000 -0.28200
Cl	Cl	0.04150 0.85295 -0.00000 -0.54300
Cl	Cl	0.45850 0.64705 -0.00000 -0.50300
Cl	Cl	0.14705 0.95850 -0.00000 -0.52500
Cl	Cl	0.35295 0.54150 -0.00000 -0.50300
Cl	Cl	0.00158 0.69219 0.30623 -0.50500
Cl	Cl	0.49842 0.80782 0.19377 -0.48600
O 	O 	0.28492 0.73250 0.20629 -0.53100
O 	O 	0.33965 0.78705 0.14700 -0.56400
O 	O 	0.45033 0.76733 0.04715 -0.45500
O 	O 	0.43381 0.70780 0.04809 -0.46300
O 	O 	0.00879 0.56122 0.20629 -0.53600
O 	O 	0.01335 0.56595 0.14700 -0.57000
O 	O 	0.00252 0.68553 0.04715 -0.46700
O 	O 	0.01810 0.74411 0.04809 -0.47400
O 	O 	0.26751 0.71509 0.29371 -0.53000
O 	O 	0.21295 0.66035 0.35300 -0.56700
O 	O 	0.23268 0.54967 0.45285 -0.45200
O 	O 	0.29220 0.56619 0.45191 -0.46100
O 	O 	0.43879 0.99121 0.29371 -0.52000
O 	O 	0.43405 0.98665 0.35300 -0.56000
O 	O 	0.31448 0.99748 0.45285 -0.43900
O 	O 	0.25589 0.98190 0.45191 -0.44900
O 	O 	0.21509 0.76751 0.29371 -0.53000
O 	O 	0.16035 0.71295 0.35300 -0.56300
O 	O 	0.04968 0.73267 0.45285 -0.45700
O 	O 	0.06619 0.79220 0.45191 -0.46100
O 	O 	0.49121 0.93879 0.29371 -0.51800
O 	O 	0.48665 0.93405 0.35300 -0.55700
O 	O 	0.49748 0.81448 0.45285 -0.44700
O 	O 	0.48190 0.75589 0.45191 -0.46000
O 	O 	0.23250 0.78492 0.20629 -0.53000
O 	O 	0.28705 0.83965 0.14700 -0.56700
O 	O 	0.26733 0.95033 0.04715 -0.44900
O 	O 	0.20780 0.93381 0.04809 -0.46300
O 	O 	0.06122 0.50880 0.20629 -0.53800
O 	O 	0.06595 0.51335 0.14700 -0.57300
O 	O 	0.18553 0.50253 0.04715 -0.46000
O 	O 	0.24411 0.51810 0.04809 -0.46400
Mn	Mn	0.75000 0.50000 0.25000 1.27400
Mn	Mn	0.50000 0.75000 0.25000 1.27400
Mn	Mn	0.75000 0.75000 0.25000 1.23500
Mn	Mn	0.50000 0.50000 0.25000 1.23600
Mn	Mn	0.84170 0.84170 0.14617 1.16900
Mn	Mn	0.51213 0.51213 0.14617 1.17100
Mn	Mn	0.65830 0.65830 0.35383 1.16200
Mn	Mn	0.98787 0.98787 0.35383 1.18500
Mn	Mn	0.51459 0.79276 -0.00000 1.29300
Mn	Mn	0.98542 0.70725 -0.00000 1.30100
Mn	Mn	0.70725 0.98542 -0.00000 1.30200
Mn	Mn	0.79276 0.51458 -0.00000 1.29300
H 	H 	0.85165 0.62985 0.22070 0.06100
H 	H 	0.77320 0.64190 0.13500 0.05700
H 	H 	0.78410 0.66780 0.20550 0.02500
H 	H 	0.88605 0.76695 0.10140 0.02100
H 	H 	0.86965 0.65345 0.11780 0.06800
H 	H 	0.92765 0.64945 0.22070 0.07500
H 	H 	0.59180 0.72310 0.13500 0.05700
H 	H 	0.51040 0.62670 0.20550 0.02600
H 	H 	0.51255 0.63165 0.10140 0.02200
H 	H 	0.51255 0.72875 0.11780 0.06700
H 	H 	0.87015 0.64835 0.27930 0.05600
H 	H 	0.85810 0.72680 0.36500 0.06200
H 	H 	0.83220 0.71590 0.29450 0.02800
H 	H 	0.73305 0.61395 0.39860 0.02000
H 	H 	0.84655 0.63035 0.38220 0.06900
H 	H 	0.85055 0.57235 0.27930 0.06300
H 	H 	0.77690 0.90820 0.36500 0.05900
H 	H 	0.87330 0.98960 0.29450 0.04100
H 	H 	0.86835 0.98745 0.39860 0.03200
H 	H 	0.77125 0.98745 0.38220 0.07100
H 	H 	0.64835 0.87015 0.27930 0.05700
H 	H 	0.72680 0.85810 0.36500 0.06200
H 	H 	0.71590 0.83220 0.29450 0.03500
H 	H 	0.61395 0.73305 0.39860 0.02100
H 	H 	0.63035 0.84655 0.38220 0.06900
H 	H 	0.57235 0.85055 0.27930 0.06300
H 	H 	0.90820 0.77690 0.36500 0.05800
H 	H 	0.98960 0.87330 0.29450 0.03400
H 	H 	0.98745 0.86835 0.39860 0.03200
H 	H 	0.98745 0.77125 0.38220 0.07200
H 	H 	0.62985 0.85165 0.22070 0.06300
H 	H 	0.64190 0.77320 0.13500 0.05700
H 	H 	0.66780 0.78410 0.20550 0.02600
H 	H 	0.76695 0.88605 0.10140 0.02400
H 	H 	0.65345 0.86965 0.11780 0.06900
H 	H 	0.64945 0.92765 0.22070 0.07600
H 	H 	0.72310 0.59180 0.13500 0.05700
H 	H 	0.62670 0.51040 0.20550 0.02600
H 	H 	0.63165 0.51255 0.10140 0.02200
H 	H 	0.72875 0.51255 0.11780 0.06700
C 	C 	0.83605 0.60155 0.23400 -0.07900
C 	C 	0.80804 0.58366 0.22400 0.09400
C 	C 	0.79953 0.60703 0.19294 -0.11700
C 	C 	0.77158 0.58924 0.18438 0.09000
C 	C 	0.76225 0.61295 0.15240 -0.08000
C 	C 	0.82319 0.65308 0.16633 0.02800
C 	C 	0.80945 0.67915 0.17980 -0.01200
C 	C 	0.83272 0.72122 0.15587 -0.14700
C 	C 	0.87015 0.73825 0.11770 0.05600
C 	C 	0.88458 0.71298 0.10315 -0.10400
C 	C 	0.86053 0.67053 0.12754 -0.03100
C 	C 	0.81750 0.74920 0.17080 0.45600
C 	C 	0.92635 0.73115 0.06250 0.39200
C 	C 	0.92995 0.66445 0.23400 -0.09800
C 	C 	0.96796 0.69234 0.22400 0.13300
C 	C 	0.50753 0.70003 0.19294 -0.11800
C 	C 	0.54404 0.72638 0.18438 0.09000
C 	C 	0.58535 0.73465 0.15240 -0.08000
C 	C 	0.51049 0.68059 0.16633 0.02800
C 	C 	0.51075 0.64105 0.17980 -0.01200
C 	C 	0.51142 0.62292 0.15587 -0.14500
C 	C 	0.51215 0.64405 0.11770 0.05700
C 	C 	0.51228 0.68388 0.10315 -0.10500
C 	C 	0.51193 0.70193 0.12754 -0.03100
C 	C 	0.51170 0.58000 0.17080 0.45700
C 	C 	0.51115 0.70635 0.06250 0.39300
C 	C 	0.89845 0.66395 0.26600 -0.06800
C 	C 	0.91634 0.69196 0.27600 0.09300
C 	C 	0.89297 0.70047 0.30706 -0.11400
C 	C 	0.91076 0.72842 0.31562 0.09400
C 	C 	0.88705 0.73775 0.34760 -0.08000
C 	C 	0.84692 0.67681 0.33367 0.02900
C 	C 	0.82085 0.69055 0.32020 -0.01200
C 	C 	0.77879 0.66729 0.34413 -0.14500
C 	C 	0.76175 0.62985 0.38230 0.05600
C 	C 	0.78703 0.61543 0.39685 -0.10400
C 	C 	0.82947 0.63947 0.37246 -0.03100
C 	C 	0.75080 0.68250 0.32920 0.45600
C 	C 	0.76885 0.57365 0.43750 0.39300
C 	C 	0.83555 0.57005 0.26600 -0.08100
C 	C 	0.80766 0.53204 0.27600 0.09400
C 	C 	0.79997 0.99247 0.30706 -0.07400
C 	C 	0.77362 0.95596 0.31562 0.09600
C 	C 	0.76535 0.91465 0.34760 -0.07000
C 	C 	0.81942 0.98952 0.33367 0.02800
C 	C 	0.85895 0.98925 0.32020 -0.01100
C 	C 	0.87709 0.98859 0.34413 -0.13200
C 	C 	0.85595 0.98785 0.38230 0.05300
C 	C 	0.81613 0.98773 0.39685 -0.09400
C 	C 	0.79807 0.98807 0.37246 -0.02900
C 	C 	0.92000 0.98830 0.32920 0.45300
C 	C 	0.79365 0.98885 0.43750 0.39200
C 	C 	0.66395 0.89845 0.26600 -0.06600
C 	C 	0.69196 0.91634 0.27600 0.10500
C 	C 	0.70047 0.89297 0.30706 -0.10800
C 	C 	0.72842 0.91076 0.31562 0.10600
C 	C 	0.73775 0.88705 0.34760 -0.07900
C 	C 	0.67682 0.84692 0.33367 0.03100
C 	C 	0.69055 0.82085 0.32020 -0.01400
C 	C 	0.66729 0.77879 0.34413 -0.14400
C 	C 	0.62985 0.76175 0.38230 0.05500
C 	C 	0.61543 0.78703 0.39685 -0.10300
C 	C 	0.63947 0.82947 0.37246 -0.03300
C 	C 	0.68250 0.75080 0.32920 0.45600
C 	C 	0.57365 0.76885 0.43750 0.39300
C 	C 	0.57005 0.83555 0.26600 -0.07900
C 	C 	0.53204 0.80766 0.27600 0.09400
C 	C 	0.99247 0.79997 0.30706 -0.08100
C 	C 	0.95596 0.77362 0.31562 0.08400
C 	C 	0.91465 0.76535 0.34760 -0.07200
C 	C 	0.98952 0.81942 0.33367 0.02700
C 	C 	0.98925 0.85895 0.32020 -0.01000
C 	C 	0.98859 0.87708 0.34413 -0.13300
C 	C 	0.98785 0.85595 0.38230 0.05400
C 	C 	0.98773 0.81613 0.39685 -0.09500
C 	C 	0.98807 0.79807 0.37246 -0.02800
C 	C 	0.98830 0.92000 0.32920 0.45300
C 	C 	0.98885 0.79365 0.43750 0.39200
C 	C 	0.60155 0.83605 0.23400 -0.08000
C 	C 	0.58366 0.80804 0.22400 0.09500
C 	C 	0.60703 0.79953 0.19294 -0.11800
C 	C 	0.58924 0.77158 0.18438 0.09000
C 	C 	0.61295 0.76225 0.15240 -0.08000
C 	C 	0.65309 0.82319 0.16633 0.03000
C 	C 	0.67915 0.80945 0.17980 -0.01300
C 	C 	0.72122 0.83272 0.15587 -0.14300
C 	C 	0.73825 0.87015 0.11770 0.05500
C 	C 	0.71298 0.88458 0.10315 -0.10100
C 	C 	0.67053 0.86053 0.12754 -0.03200
C 	C 	0.74920 0.81750 0.17080 0.45700
C 	C 	0.73115 0.92635 0.06250 0.39100
C 	C 	0.66445 0.92995 0.23400 -0.09700
C 	C 	0.69234 0.96796 0.22400 0.14800
C 	C 	0.70003 0.50753 0.19294 -0.11800
C 	C 	0.72638 0.54404 0.18438 0.09000
C 	C 	0.73465 0.58535 0.15240 -0.08000
C 	C 	0.68059 0.51049 0.16633 0.02800
C 	C 	0.64105 0.51075 0.17980 -0.01200
C 	C 	0.62292 0.51141 0.15587 -0.14500
C 	C 	0.64405 0.51215 0.11770 0.05700
C 	C 	0.68388 0.51227 0.10315 -0.10500
C 	C 	0.70193 0.51193 0.12754 -0.03100
C 	C 	0.58000 0.51170 0.17080 0.45700
C 	C 	0.70635 0.51115 0.06250 0.39300
N 	N 	0.74918 0.54738 0.20344 -0.28300
N 	N 	0.54738 0.74918 0.20344 -0.28300
N 	N 	0.95262 0.75082 0.29656 -0.27400
N 	N 	0.75082 0.95262 0.29656 -0.25400
N 	N 	0.79120 0.54120 0.25000 -0.28400
N 	N 	0.95880 0.70880 0.25000 -0.28100
N 	N 	0.70880 0.95880 0.25000 -0.26100
N 	N 	0.54120 0.79120 0.25000 -0.28400
Cl	Cl	0.54150 0.85295 -0.00000 -0.51500
Cl	Cl	0.95850 0.64705 -0.00000 -0.50500
Cl	Cl	0.64705 0.95850 -0.00000 -0.50500
Cl	Cl	0.85295 0.54150 -0.00000 -0.51500
Cl	Cl	0.80782 0.99842 0.19377 -0.46600
O 	O 	0.78492 0.73250 0.20629 -0.53400
O 	O 	0.83965 0.78705 0.14700 -0.56700
O 	O 	0.95033 0.76733 0.04715 -0.44900
O 	O 	0.93381 0.70780 0.04809 -0.45800
O 	O 	0.50879 0.56122 0.20629 -0.53200
O 	O 	0.51335 0.56595 0.14700 -0.56300
O 	O 	0.50253 0.68553 0.04715 -0.45500
O 	O 	0.51810 0.74411 0.04809 -0.46400
O 	O 	0.76751 0.71509 0.29371 -0.53200
O 	O 	0.71295 0.66035 0.35300 -0.56900
O 	O 	0.73268 0.54967 0.45285 -0.45200
O 	O 	0.79220 0.56619 0.45191 -0.45600
O 	O 	0.93879 0.99121 0.29371 -0.50700
O 	O 	0.93405 0.98665 0.35300 -0.54800
O 	O 	0.81448 0.99748 0.45285 -0.43300
O 	O 	0.75589 0.98190 0.45191 -0.44900
O 	O 	0.71509 0.76751 0.29371 -0.53000
O 	O 	0.66035 0.71295 0.35300 -0.56900
O 	O 	0.54968 0.73268 0.45285 -0.45200
O 	O 	0.56619 0.79220 0.45191 -0.45600
O 	O 	0.99121 0.93879 0.29371 -0.50900
O 	O 	0.98665 0.93405 0.35300 -0.54800
O 	O 	0.99748 0.81448 0.45285 -0.43300
O 	O 	0.98190 0.75589 0.45191 -0.44900
O 	O 	0.73250 0.78492 0.20629 -0.53200
O 	O 	0.78705 0.83965 0.14700 -0.56300
O 	O 	0.76733 0.95033 0.04715 -0.44500
O 	O 	0.70780 0.93381 0.04809 -0.45800
O 	O 	0.56122 0.50880 0.20629 -0.53200
O 	O 	0.56595 0.51335 0.14700 -0.56300
O 	O 	0.68553 0.50253 0.04715 -0.45500
O 	O 	0.74411 0.51810 0.04809 -0.46400
Mn	Mn	0.25000 0.00000 0.75000 1.26200
Mn	Mn	-0.00000 0.25000 0.75000 1.26200
Mn	Mn	0.25000 0.25000 0.75000 1.23400
Mn	Mn	-0.00000 0.00000 0.75000 1.21700
Mn	Mn	0.34170 0.34170 0.64617 1.16200
Mn	Mn	0.01213 0.01213 0.64617 1.16400
Mn	Mn	0.15830 0.15830 0.85383 1.16200
Mn	Mn	0.48787 0.48787 0.85383 1.17200
Mn	Mn	0.01458 0.29276 0.50000 1.29700
Mn	Mn	0.48542 0.20725 0.50000 1.30500
Mn	Mn	0.20725 0.48542 0.50000 1.30500
Mn	Mn	0.29276 0.01458 0.50000 1.29700
H 	H 	0.35165 0.12985 0.72070 0.06300
H 	H 	0.27320 0.14190 0.63500 0.05800
H 	H 	0.28410 0.16780 0.70550 0.02400
H 	H 	0.38605 0.26695 0.60140 0.02000
H 	H 	0.36965 0.15345 0.61780 0.06600
H 	H 	0.42765 0.14945 0.72070 0.06000
H 	H 	0.09180 0.22310 0.63500 0.06200
H 	H 	0.01040 0.12670 0.70550 0.02200
H 	H 	0.01255 0.13165 0.60140 0.02200
H 	H 	0.01255 0.22875 0.61780 0.06600
H 	H 	0.37015 0.14835 0.77930 0.05800
H 	H 	0.35810 0.22680 0.86500 0.06300
H 	H 	0.33220 0.21590 0.79450 0.02600
H 	H 	0.23305 0.11395 0.89860 0.02300
H 	H 	0.34655 0.13035 0.88220 0.07000
H 	H 	0.35055 0.07235 0.77930 0.04900
H 	H 	0.27690 0.40820 0.86500 0.06300
H 	H 	0.37330 0.48960 0.79450 0.02800
H 	H 	0.36835 0.48745 0.89860 0.03200
H 	H 	0.27125 0.48745 0.88220 0.07300
H 	H 	0.14835 0.37015 0.77930 0.05900
H 	H 	0.22680 0.35810 0.86500 0.06300
H 	H 	0.21590 0.33220 0.79450 0.02600
H 	H 	0.11395 0.23305 0.89860 0.02400
H 	H 	0.13035 0.34655 0.88220 0.07000
H 	H 	0.07235 0.35055 0.77930 0.04900
H 	H 	0.40820 0.27690 0.86500 0.06300
H 	H 	0.48960 0.37330 0.79450 0.02700
H 	H 	0.48745 0.36835 0.89860 0.02800
H 	H 	0.48745 0.27125 0.88220 0.07300
H 	H 	0.12985 0.35165 0.72070 0.06300
H 	H 	0.14190 0.27320 0.63500 0.05800
H 	H 	0.16780 0.28410 0.70550 0.02500
H 	H 	0.26695 0.38605 0.60140 0.02000
H 	H 	0.15345 0.36965 0.61780 0.06600
H 	H 	0.14945 0.42765 0.72070 0.06100
H 	H 	0.22310 0.09180 0.63500 0.06200
H 	H 	0.12670 0.01040 0.70550 0.02200
H 	H 	0.13165 0.01255 0.60140 0.02200
H 	H 	0.22875 0.01255 0.61780 0.06600
C 	C 	0.33605 0.10155 0.73400 -0.09100
C 	C 	0.30804 0.08366 0.72400 0.09500
C 	C 	0.29953 0.10703 0.69294 -0.11900
C 	C 	0.27158 0.08924 0.68438 0.08800
C 	C 	0.26225 0.11295 0.65240 -0.07700
C 	C 	0.32319 0.15308 0.66633 0.02700
C 	C 	0.30945 0.17915 0.67980 -0.01100
C 	C 	0.33272 0.22122 0.65587 -0.14800
C 	C 	0.37015 0.23825 0.61770 0.05700
C 	C 	0.38458 0.21298 0.60315 -0.10600
C 	C 	0.36053 0.17053 0.62754 -0.03000
C 	C 	0.31750 0.24920 0.67080 0.45700
C 	C 	0.42635 0.23115 0.56250 0.39400
C 	C 	0.42995 0.16445 0.73400 -0.08100
C 	C 	0.46796 0.19234 0.72400 0.09200
C 	C 	0.00753 0.20003 0.69294 -0.15400
C 	C 	0.04404 0.22638 0.68438 0.09900
C 	C 	0.08535 0.23465 0.65240 -0.08700
C 	C 	0.01048 0.18059 0.66633 0.03600
C 	C 	0.01075 0.14105 0.67980 -0.02000
C 	C 	0.01141 0.12292 0.65587 -0.14600
C 	C 	0.01215 0.14405 0.61770 0.05400
C 	C 	0.01227 0.18388 0.60315 -0.10400
C 	C 	0.01193 0.20193 0.62754 -0.03900
C 	C 	0.01170 0.08000 0.67080 0.45700
C 	C 	0.01115 0.20635 0.56250 0.39300
C 	C 	0.39845 0.16395 0.76600 -0.08100
C 	C 	0.41634 0.19196 0.77600 0.09400
C 	C 	0.39297 0.20047 0.80706 -0.11800
C 	C 	0.41076 0.22842 0.81562 0.09200
C 	C 	0.38705 0.23775 0.84760 -0.07800
C 	C 	0.34692 0.17681 0.83367 0.03000
C 	C 	0.32085 0.19055 0.82020 -0.01300
C 	C 	0.27879 0.16729 0.84413 -0.14400
C 	C 	0.26175 0.12985 0.88230 0.05400
C 	C 	0.28703 0.11543 0.89685 -0.10000
C 	C 	0.32947 0.13947 0.87246 -0.03400
C 	C 	0.25080 0.18250 0.82920 0.45600
C 	C 	0.26885 0.07365 0.93750 0.38900
C 	C 	0.33555 0.07005 0.76600 -0.06400
C 	C 	0.30766 0.03204 0.77600 0.05300
C 	C 	0.29997 0.49247 0.80706 -0.11900
C 	C 	0.27362 0.45596 0.81562 0.09200
C 	C 	0.26535 0.41465 0.84760 -0.07800
C 	C 	0.31942 0.48952 0.83367 0.03400
C 	C 	0.35895 0.48925 0.82020 -0.01700
C 	C 	0.37709 0.48859 0.84413 -0.13700
C 	C 	0.35595 0.48785 0.88230 0.05100
C 	C 	0.31612 0.48773 0.89685 -0.09100
C 	C 	0.29807 0.48807 0.87246 -0.03700
C 	C 	0.42000 0.48830 0.82920 0.45500
C 	C 	0.29365 0.48885 0.93750 0.38700
C 	C 	0.16395 0.39845 0.76600 -0.08100
C 	C 	0.19196 0.41634 0.77600 0.09400
C 	C 	0.20047 0.39297 0.80706 -0.11800
C 	C 	0.22842 0.41076 0.81562 0.09200
C 	C 	0.23775 0.38705 0.84760 -0.07800
C 	C 	0.17682 0.34692 0.83367 0.03000
C 	C 	0.19055 0.32085 0.82020 -0.01400
C 	C 	0.16729 0.27879 0.84413 -0.14400
C 	C 	0.12985 0.26175 0.88230 0.05400
C 	C 	0.11543 0.28703 0.89685 -0.09900
C 	C 	0.13947 0.32947 0.87246 -0.03400
C 	C 	0.18250 0.25080 0.82920 0.45600
C 	C 	0.07365 0.26885 0.93750 0.38900
C 	C 	0.07005 0.33555 0.76600 -0.06400
C 	C 	0.03204 0.30766 0.77600 0.05500
C 	C 	0.49247 0.29997 0.80706 -0.11800
C 	C 	0.45596 0.27362 0.81562 0.09200
C 	C 	0.41465 0.26535 0.84760 -0.07800
C 	C 	0.48952 0.31942 0.83367 0.03300
C 	C 	0.48925 0.35895 0.82020 -0.01600
C 	C 	0.48859 0.37708 0.84413 -0.14000
C 	C 	0.48785 0.35595 0.88230 0.05100
C 	C 	0.48773 0.31613 0.89685 -0.09400
C 	C 	0.48807 0.29807 0.87246 -0.03600
C 	C 	0.48830 0.42000 0.82920 0.45500
C 	C 	0.48885 0.29365 0.93750 0.38700
C 	C 	0.10155 0.33605 0.73400 -0.09100
C 	C 	0.08366 0.30804 0.72400 0.09500
C 	C 	0.10703 0.29953 0.69294 -0.11900
C 	C 	0.08924 0.27158 0.68438 0.08800
C 	C 	0.11295 0.26225 0.65240 -0.07700
C 	C 	0.15309 0.32319 0.66633 0.02700
C 	C 	0.17915 0.30945 0.67980 -0.01100
C 	C 	0.22122 0.33271 0.65587 -0.14800
C 	C 	0.23825 0.37015 0.61770 0.05700
C 	C 	0.21298 0.38458 0.60315 -0.10500
C 	C 	0.17053 0.36053 0.62754 -0.03000
C 	C 	0.24920 0.31750 0.67080 0.45700
C 	C 	0.23115 0.42635 0.56250 0.39400
C 	C 	0.16445 0.42995 0.73400 -0.08200
C 	C 	0.19234 0.46796 0.72400 0.09300
C 	C 	0.20003 0.00753 0.69294 -0.15600
C 	C 	0.22638 0.04404 0.68438 0.09900
C 	C 	0.23465 0.08535 0.65240 -0.08700
C 	C 	0.18059 0.01049 0.66633 0.03600
C 	C 	0.14105 0.01075 0.67980 -0.02000
C 	C 	0.12292 0.01141 0.65587 -0.14600
C 	C 	0.14405 0.01215 0.61770 0.05400
C 	C 	0.18388 0.01227 0.60315 -0.10400
C 	C 	0.20193 0.01193 0.62754 -0.03900
C 	C 	0.08000 0.01170 0.67080 0.45700
C 	C 	0.20635 0.01115 0.56250 0.39300
N 	N 	0.24918 0.04738 0.70344 -0.29000
N 	N 	0.04738 0.24918 0.70344 -0.28900
N 	N 	0.45262 0.25082 0.79656 -0.28300
N 	N 	0.25082 0.45262 0.79656 -0.28300
N 	N 	0.29120 0.04120 0.75000 -0.28300
N 	N 	0.45880 0.20880 0.75000 -0.28400
N 	N 	0.20880 0.45880 0.75000 -0.28400
N 	N 	0.04120 0.29120 0.75000 -0.28300
Cl	Cl	0.04150 0.35295 0.50000 -0.50700
Cl	Cl	0.45850 0.14705 0.50000 -0.50000
Cl	Cl	0.14705 0.45850 0.50000 -0.49800
Cl	Cl	0.35295 0.04150 0.50000 -0.50900
O 	O 	0.28492 0.23250 0.70629 -0.53500
O 	O 	0.33965 0.28705 0.64700 -0.57000
O 	O 	0.45033 0.26733 0.54715 -0.45200
O 	O 	0.43381 0.20780 0.54809 -0.45700
O 	O 	0.00879 0.06122 0.70629 -0.54400
O 	O 	0.01335 0.06595 0.64700 -0.56900
O 	O 	0.00252 0.18553 0.54715 -0.45900
O 	O 	0.01810 0.24411 0.54809 -0.46300
O 	O 	0.26751 0.21509 0.79371 -0.53300
O 	O 	0.21295 0.16035 0.85300 -0.56700
O 	O 	0.23268 0.04967 0.95285 -0.44300
O 	O 	0.29220 0.06619 0.95191 -0.44400
O 	O 	0.43879 0.49121 0.79371 -0.53100
O 	O 	0.43405 0.48665 0.85300 -0.55700
O 	O 	0.31448 0.49748 0.95285 -0.42700
O 	O 	0.25589 0.48190 0.95191 -0.43700
O 	O 	0.21509 0.26751 0.79371 -0.53300
O 	O 	0.16035 0.21295 0.85300 -0.56700
O 	O 	0.04968 0.23267 0.95285 -0.44300
O 	O 	0.06619 0.29220 0.95191 -0.44300
O 	O 	0.49121 0.43879 0.79371 -0.53200
O 	O 	0.48665 0.43405 0.85300 -0.56100
O 	O 	0.49748 0.31448 0.95285 -0.43000
O 	O 	0.48190 0.25589 0.95191 -0.43700
O 	O 	0.23250 0.28492 0.70629 -0.53500
O 	O 	0.28705 0.33965 0.64700 -0.57000
O 	O 	0.26733 0.45033 0.54715 -0.45200
O 	O 	0.20780 0.43381 0.54809 -0.45700
O 	O 	0.06122 0.00880 0.70629 -0.54400
O 	O 	0.06595 0.01335 0.64700 -0.56900
O 	O 	0.18553 0.00252 0.54715 -0.45900
O 	O 	0.24411 0.01810 0.54809 -0.46300
Mn	Mn	0.75000 0.00000 0.75000 1.26300
Mn	Mn	0.50000 0.25000 0.75000 1.27400
Mn	Mn	0.75000 0.25000 0.75000 1.23700
Mn	Mn	0.50000 0.00000 0.75000 1.22600
Mn	Mn	0.84170 0.34170 0.64617 1.17500
Mn	Mn	0.51213 0.01213 0.64617 1.16300
Mn	Mn	0.65830 0.15830 0.85383 1.16900
Mn	Mn	0.98787 0.48787 0.85383 1.17700
Mn	Mn	0.51459 0.29276 0.50000 1.30500
Mn	Mn	0.98542 0.20725 0.50000 1.31500
Mn	Mn	0.70725 0.48542 0.50000 1.30500
Mn	Mn	0.79276 0.01458 0.50000 1.29800
H 	H 	0.85165 0.12985 0.72070 0.06700
H 	H 	0.77320 0.14190 0.63500 0.05900
H 	H 	0.78410 0.16780 0.70550 0.02800
H 	H 	0.88605 0.26695 0.60140 0.02900
H 	H 	0.86965 0.15345 0.61780 0.07000
H 	H 	0.92765 0.14945 0.72070 0.07400
H 	H 	0.59180 0.22310 0.63500 0.06000
H 	H 	0.51040 0.12670 0.70550 0.03300
H 	H 	0.51255 0.13165 0.60140 0.02300
H 	H 	0.51255 0.22875 0.61780 0.05500
H 	H 	0.87015 0.14835 0.77930 0.05500
H 	H 	0.85810 0.22680 0.86500 0.06500
H 	H 	0.83220 0.21590 0.79450 0.03800
H 	H 	0.73305 0.11395 0.89860 0.02500
H 	H 	0.84655 0.13035 0.88220 0.06000
H 	H 	0.85055 0.07235 0.77930 0.04800
H 	H 	0.77690 0.40820 0.86500 0.06500
H 	H 	0.87330 0.48960 0.79450 0.04100
H 	H 	0.86835 0.48745 0.89860 0.03000
H 	H 	0.77125 0.48745 0.88220 0.06200
H 	H 	0.64835 0.37015 0.77930 0.06200
H 	H 	0.72680 0.35810 0.86500 0.06400
H 	H 	0.71590 0.33220 0.79450 0.03900
H 	H 	0.61395 0.23305 0.89860 0.03100
H 	H 	0.63035 0.34655 0.88220 0.06200
H 	H 	0.57235 0.35055 0.77930 0.06000
H 	H 	0.90820 0.27690 0.86500 0.06200
H 	H 	0.98960 0.37330 0.79450 0.04100
H 	H 	0.98745 0.36835 0.89860 0.03400
H 	H 	0.98745 0.27125 0.88220 0.06300
H 	H 	0.62985 0.35165 0.72070 0.06200
H 	H 	0.64190 0.27320 0.63500 0.06000
H 	H 	0.66780 0.28410 0.70550 0.03600
H 	H 	0.76695 0.38605 0.60140 0.02600
H 	H 	0.65345 0.36965 0.61780 0.05600
H 	H 	0.64945 0.42765 0.72070 0.06000
H 	H 	0.72310 0.09180 0.63500 0.06300
H 	H 	0.62670 0.01040 0.70550 0.02500
H 	H 	0.63165 0.01255 0.60140 0.01900
H 	H 	0.72875 0.01255 0.61780 0.06700
C 	C 	0.83605 0.10155 0.73400 -0.09300
C 	C 	0.80804 0.08366 0.72400 0.09800
C 	C 	0.79953 0.10703 0.69294 -0.12000
C 	C 	0.77158 0.08924 0.68438 0.09000
C 	C 	0.76225 0.11295 0.65240 -0.07600
C 	C 	0.82319 0.15308 0.66633 0.03300
C 	C 	0.80945 0.17915 0.67980 -0.01600
C 	C 	0.83272 0.22122 0.65587 -0.13900
C 	C 	0.87015 0.23825 0.61770 0.05300
C 	C 	0.88458 0.21298 0.60315 -0.09600
C 	C 	0.86053 0.17053 0.62754 -0.03500
C 	C 	0.81750 0.24920 0.67080 0.45600
C 	C 	0.92635 0.23115 0.56250 0.39100
C 	C 	0.92995 0.16445 0.73400 -0.10000
C 	C 	0.96796 0.19234 0.72400 0.13300
C 	C 	0.50753 0.20003 0.69294 -0.11700
C 	C 	0.54404 0.22638 0.68438 0.09100
C 	C 	0.58535 0.23465 0.65240 -0.07900
C 	C 	0.51049 0.18058 0.66633 0.02600
C 	C 	0.51075 0.14105 0.67980 -0.01000
C 	C 	0.51142 0.12292 0.65587 -0.14500
C 	C 	0.51215 0.14405 0.61770 0.05800
C 	C 	0.51228 0.18388 0.60315 -0.10600
C 	C 	0.51193 0.20193 0.62754 -0.02900
C 	C 	0.51170 0.08000 0.67080 0.45800
C 	C 	0.51115 0.20635 0.56250 0.39400
C 	C 	0.89845 0.16395 0.76600 -0.06800
C 	C 	0.91634 0.19196 0.77600 0.09100
C 	C 	0.89297 0.20047 0.80706 -0.11400
C 	C 	0.91076 0.22842 0.81562 0.09400
C 	C 	0.88705 0.23775 0.84760 -0.07900
C 	C 	0.84692 0.17681 0.83367 0.03000
C 	C 	0.82085 0.19055 0.82020 -0.01400
C 	C 	0.77879 0.16729 0.84413 -0.14000
C 	C 	0.76175 0.12985 0.88230 0.05300
C 	C 	0.78703 0.11543 0.89685 -0.10000
C 	C 	0.82947 0.13947 0.87246 -0.03400
C 	C 	0.75080 0.18250 0.82920 0.45500
C 	C 	0.76885 0.07365 0.93750 0.38900
C 	C 	0.83555 0.07005 0.76600 -0.06100
C 	C 	0.80766 0.03204 0.77600 0.05400
C 	C 	0.79997 0.49247 0.80706 -0.11700
C 	C 	0.77362 0.45596 0.81562 0.09400
C 	C 	0.76535 0.41465 0.84760 -0.07700
C 	C 	0.81942 0.48952 0.83367 0.03400
C 	C 	0.85895 0.48925 0.82020 -0.01800
C 	C 	0.87709 0.48859 0.84413 -0.13400
C 	C 	0.85595 0.48785 0.88230 0.04900
C 	C 	0.81613 0.48773 0.89685 -0.09400
C 	C 	0.79807 0.48807 0.87246 -0.03700
C 	C 	0.92000 0.48830 0.82920 0.45200
C 	C 	0.79365 0.48885 0.93750 0.38700
C 	C 	0.66395 0.39845 0.76600 -0.08100
C 	C 	0.69196 0.41634 0.77600 0.09500
C 	C 	0.70047 0.39297 0.80706 -0.11800
C 	C 	0.72842 0.41076 0.81562 0.09400
C 	C 	0.73775 0.38705 0.84760 -0.07700
C 	C 	0.67682 0.34692 0.83367 0.03400
C 	C 	0.69055 0.32085 0.82020 -0.01700
C 	C 	0.66729 0.27879 0.84413 -0.13500
C 	C 	0.62985 0.26175 0.88230 0.05100
C 	C 	0.61543 0.28703 0.89685 -0.09400
C 	C 	0.63947 0.32947 0.87246 -0.03600
C 	C 	0.68250 0.25080 0.82920 0.45500
C 	C 	0.57365 0.26885 0.93750 0.38800
C 	C 	0.57005 0.33555 0.76600 -0.08000
C 	C 	0.53204 0.30766 0.77600 0.09500
C 	C 	0.99247 0.29997 0.80706 -0.08100
C 	C 	0.95596 0.27362 0.81562 0.08400
C 	C 	0.91465 0.26535 0.84760 -0.07000
C 	C 	0.98952 0.31942 0.83367 0.02600
C 	C 	0.98925 0.35895 0.82020 -0.00900
C 	C 	0.98859 0.37708 0.84413 -0.13200
C 	C 	0.98785 0.35595 0.88230 0.05300
C 	C 	0.98773 0.31613 0.89685 -0.09200
C 	C 	0.98807 0.29807 0.87246 -0.02800
C 	C 	0.98830 0.42000 0.82920 0.45400
C 	C 	0.98885 0.29365 0.93750 0.38800
C 	C 	0.60155 0.33605 0.73400 -0.08100
C 	C 	0.58366 0.30804 0.72400 0.09300
C 	C 	0.60703 0.29953 0.69294 -0.11700
C 	C 	0.58924 0.27158 0.68438 0.09100
C 	C 	0.61295 0.26225 0.65240 -0.07900
C 	C 	0.65309 0.32319 0.66633 0.02900
C 	C 	0.67915 0.30945 0.67980 -0.01300
C 	C 	0.72122 0.33271 0.65587 -0.14100
C 	C 	0.73825 0.37015 0.61770 0.05600
C 	C 	0.71298 0.38458 0.60315 -0.10300
C 	C 	0.67053 0.36053 0.62754 -0.03100
C 	C 	0.74920 0.31750 0.67080 0.45600
C 	C 	0.73115 0.42635 0.56250 0.39300
C 	C 	0.66445 0.42995 0.73400 -0.07900
C 	C 	0.69234 0.46796 0.72400 0.09400
C 	C 	0.70003 0.00753 0.69294 -0.15500
C 	C 	0.72638 0.04404 0.68438 0.10100
C 	C 	0.73465 0.08535 0.65240 -0.08600
C 	C 	0.68059 0.01049 0.66633 0.03700
C 	C 	0.64105 0.01075 0.67980 -0.02100
C 	C 	0.62292 0.01141 0.65587 -0.14600
C 	C 	0.64405 0.01215 0.61770 0.05300
C 	C 	0.68388 0.01227 0.60315 -0.10500
C 	C 	0.70193 0.01193 0.62754 -0.04000
C 	C 	0.58000 0.01170 0.67080 0.45500
C 	C 	0.70635 0.01115 0.56250 0.39300
N 	N 	0.74918 0.04738 0.70344 -0.28900
N 	N 	0.54738 0.24918 0.70344 -0.28300
N 	N 	0.95262 0.25082 0.79656 -0.27500
N 	N 	0.75082 0.45262 0.79656 -0.28200
N 	N 	0.79120 0.04120 0.75000 -0.28300
N 	N 	0.95880 0.20880 0.75000 -0.28300
N 	N 	0.70880 0.45880 0.75000 -0.28300
N 	N 	0.54120 0.29120 0.75000 -0.28400
Cl	Cl	0.54150 0.35295 0.50000 -0.51300
Cl	Cl	0.95850 0.14705 0.50000 -0.46800
Cl	Cl	0.64705 0.45850 0.50000 -0.51300
Cl	Cl	0.85295 0.04150 0.50000 -0.48700
Cl	Cl	0.50158 0.19219 0.80623 -0.48500
Cl	Cl	0.99842 0.30782 0.69377 -0.46200
Cl	Cl	0.80782 0.49842 0.69377 -0.48100
O 	O 	0.78492 0.23250 0.70629 -0.53000
O 	O 	0.83965 0.28705 0.64700 -0.55800
O 	O 	0.95033 0.26733 0.54715 -0.43600
O 	O 	0.93381 0.20780 0.54809 -0.45000
O 	O 	0.50879 0.06121 0.70629 -0.53500
O 	O 	0.51335 0.06595 0.64700 -0.56600
O 	O 	0.50253 0.18553 0.54715 -0.44900
O 	O 	0.51810 0.24411 0.54809 -0.46100
O 	O 	0.76751 0.21509 0.79371 -0.52700
O 	O 	0.71295 0.16035 0.85300 -0.56300
O 	O 	0.73268 0.04967 0.95285 -0.44200
O 	O 	0.79220 0.06619 0.95191 -0.44700
O 	O 	0.93879 0.49121 0.79371 -0.51700
O 	O 	0.93405 0.48665 0.85300 -0.55600
O 	O 	0.81448 0.49748 0.95285 -0.43000
O 	O 	0.75589 0.48190 0.95191 -0.44000
O 	O 	0.71509 0.26751 0.79371 -0.52500
O 	O 	0.66035 0.21295 0.85300 -0.55800
O 	O 	0.54968 0.23267 0.95285 -0.42800
O 	O 	0.56619 0.29220 0.95191 -0.44000
O 	O 	0.99121 0.43879 0.79371 -0.51400
O 	O 	0.98665 0.43405 0.85300 -0.55100
O 	O 	0.99748 0.31447 0.95285 -0.41600
O 	O 	0.98190 0.25589 0.95191 -0.43400
O 	O 	0.73250 0.28492 0.70629 -0.52800
O 	O 	0.78705 0.33965 0.64700 -0.55900
O 	O 	0.76733 0.45033 0.54715 -0.44600
O 	O 	0.70780 0.43381 0.54809 -0.46000
O 	O 	0.56122 0.00880 0.70629 -0.53900
O 	O 	0.56595 0.01335 0.64700 -0.57200
O 	O 	0.68553 0.00252 0.54715 -0.46200
O 	O 	0.74411 0.01810 0.54809 -0.46200
Mn	Mn	0.25000 0.50000 0.75000 1.27400
Mn	Mn	-0.00000 0.75000 0.75000 1.26300
Mn	Mn	0.25000 0.75000 0.75000 1.23600
Mn	Mn	-0.00000 0.50000 0.75000 1.22700
Mn	Mn	0.34170 0.84170 0.64617 1.17000
Mn	Mn	0.01213 0.51213 0.64617 1.16800
Mn	Mn	0.15830 0.65830 0.85383 1.16900
Mn	Mn	0.48787 0.98787 0.85383 1.17700
Mn	Mn	0.01458 0.79276 0.50000 1.29800
Mn	Mn	0.48542 0.70725 0.50000 1.30500
Mn	Mn	0.20725 0.98542 0.50000 1.31500
Mn	Mn	0.29276 0.51458 0.50000 1.30500
H 	H 	0.35165 0.62985 0.72070 0.05900
H 	H 	0.27320 0.64190 0.63500 0.06000
H 	H 	0.28410 0.66780 0.70550 0.03500
H 	H 	0.38605 0.76695 0.60140 0.02200
H 	H 	0.36965 0.65345 0.61780 0.05500
H 	H 	0.42765 0.64945 0.72070 0.05900
H 	H 	0.09180 0.72310 0.63500 0.06300
H 	H 	0.01040 0.62670 0.70550 0.02600
H 	H 	0.01255 0.63165 0.60140 0.02400
H 	H 	0.01255 0.72875 0.61780 0.06700
H 	H 	0.37015 0.64835 0.77930 0.06300
H 	H 	0.35810 0.72680 0.86500 0.06400
H 	H 	0.33220 0.71590 0.79450 0.03000
H 	H 	0.23305 0.61395 0.89860 0.03100
H 	H 	0.34655 0.63035 0.88220 0.07400
H 	H 	0.35055 0.57235 0.77930 0.06300
H 	H 	0.27690 0.90820 0.86500 0.06100
H 	H 	0.37330 0.98960 0.79450 0.03900
H 	H 	0.36835 0.98745 0.89860 0.03400
H 	H 	0.27125 0.98745 0.88220 0.06300
H 	H 	0.14835 0.87015 0.77930 0.05500
H 	H 	0.22680 0.85810 0.86500 0.06400
H 	H 	0.21590 0.83220 0.79450 0.03600
H 	H 	0.11395 0.73305 0.89860 0.02500
H 	H 	0.13035 0.84655 0.88220 0.05900
H 	H 	0.07235 0.85055 0.77930 0.04800
H 	H 	0.40820 0.77690 0.86500 0.06400
H 	H 	0.48960 0.87330 0.79450 0.03200
H 	H 	0.48745 0.86835 0.89860 0.03000
H 	H 	0.48745 0.77125 0.88220 0.07400
H 	H 	0.12985 0.85165 0.72070 0.06700
H 	H 	0.14190 0.77320 0.63500 0.05900
H 	H 	0.16780 0.78410 0.70550 0.02800
H 	H 	0.26695 0.88605 0.60140 0.02800
H 	H 	0.15345 0.86965 0.61780 0.07000
H 	H 	0.14945 0.92765 0.72070 0.07400
H 	H 	0.22310 0.59180 0.63500 0.06000
H 	H 	0.12670 0.51040 0.70550 0.03300
H 	H 	0.13165 0.51255 0.60140 0.02400
H 	H 	0.22875 0.51255 0.61780 0.05500
C 	C 	0.33605 0.60155 0.73400 -0.07800
C 	C 	0.30804 0.58366 0.72400 0.09200
C 	C 	0.29953 0.60703 0.69294 -0.11600
C 	C 	0.27158 0.58924 0.68438 0.09100
C 	C 	0.26225 0.61295 0.65240 -0.07900
C 	C 	0.32319 0.65309 0.66633 0.02700
C 	C 	0.30945 0.67915 0.67980 -0.01100
C 	C 	0.33272 0.72122 0.65587 -0.14500
C 	C 	0.37015 0.73825 0.61770 0.05600
C 	C 	0.38458 0.71298 0.60315 -0.10600
C 	C 	0.36053 0.67053 0.62754 -0.03000
C 	C 	0.31750 0.74920 0.67080 0.45600
C 	C 	0.42635 0.73115 0.56250 0.39400
C 	C 	0.42995 0.66445 0.73400 -0.07800
C 	C 	0.46796 0.69234 0.72400 0.09300
C 	C 	0.00753 0.70003 0.69294 -0.15400
C 	C 	0.04404 0.72638 0.68438 0.10100
C 	C 	0.08535 0.73465 0.65240 -0.08600
C 	C 	0.01048 0.68059 0.66633 0.03800
C 	C 	0.01075 0.64105 0.67980 -0.02200
C 	C 	0.01141 0.62292 0.65587 -0.14200
C 	C 	0.01215 0.64405 0.61770 0.05200
C 	C 	0.01227 0.68388 0.60315 -0.10100
C 	C 	0.01193 0.70193 0.62754 -0.04100
C 	C 	0.01170 0.58000 0.67080 0.45500
C 	C 	0.01115 0.70635 0.56250 0.39200
C 	C 	0.39845 0.66395 0.76600 -0.08200
C 	C 	0.41634 0.69196 0.77600 0.09600
C 	C 	0.39297 0.70047 0.80706 -0.11900
C 	C 	0.41076 0.72842 0.81562 0.09400
C 	C 	0.38705 0.73775 0.84760 -0.07700
C 	C 	0.34692 0.67681 0.83367 0.03500
C 	C 	0.32085 0.69055 0.82020 -0.01700
C 	C 	0.27879 0.66729 0.84413 -0.13600
C 	C 	0.26175 0.62985 0.88230 0.05000
C 	C 	0.28703 0.61543 0.89685 -0.09100
C 	C 	0.32947 0.63947 0.87246 -0.03800
C 	C 	0.25080 0.68250 0.82920 0.45500
C 	C 	0.26885 0.57365 0.93750 0.38700
C 	C 	0.33555 0.57005 0.76600 -0.08200
C 	C 	0.30766 0.53204 0.77600 0.09600
C 	C 	0.29997 0.99247 0.80706 -0.07900
C 	C 	0.27362 0.95596 0.81562 0.08300
C 	C 	0.26535 0.91465 0.84760 -0.07100
C 	C 	0.31942 0.98952 0.83367 0.02500
C 	C 	0.35895 0.98925 0.82020 -0.00800
C 	C 	0.37709 0.98859 0.84413 -0.13400
C 	C 	0.35595 0.98785 0.88230 0.05400
C 	C 	0.31612 0.98773 0.89685 -0.09200
C 	C 	0.29807 0.98807 0.87246 -0.02800
C 	C 	0.42000 0.98830 0.82920 0.45500
C 	C 	0.29365 0.98885 0.93750 0.38800
C 	C 	0.16395 0.89845 0.76600 -0.06800
C 	C 	0.19196 0.91634 0.77600 0.09000
C 	C 	0.20047 0.89297 0.80706 -0.11400
C 	C 	0.22842 0.91076 0.81562 0.09400
C 	C 	0.23775 0.88705 0.84760 -0.08000
C 	C 	0.17682 0.84692 0.83367 0.02900
C 	C 	0.19055 0.82085 0.82020 -0.01300
C 	C 	0.16729 0.77879 0.84413 -0.14100
C 	C 	0.12985 0.76175 0.88230 0.05300
C 	C 	0.11543 0.78703 0.89685 -0.10100
C 	C 	0.13947 0.82947 0.87246 -0.03300
C 	C 	0.18250 0.75080 0.82920 0.45500
C 	C 	0.07365 0.76885 0.93750 0.38900
C 	C 	0.07005 0.83555 0.76600 -0.06100
C 	C 	0.03204 0.80766 0.77600 0.05600
C 	C 	0.49247 0.79997 0.80706 -0.11800
C 	C 	0.45596 0.77362 0.81562 0.09400
C 	C 	0.41465 0.76535 0.84760 -0.07700
C 	C 	0.48952 0.81942 0.83367 0.03600
C 	C 	0.48925 0.85895 0.82020 -0.01900
C 	C 	0.48859 0.87708 0.84413 -0.13400
C 	C 	0.48785 0.85595 0.88230 0.04800
C 	C 	0.48773 0.81613 0.89685 -0.09100
C 	C 	0.48807 0.79807 0.87246 -0.03900
C 	C 	0.48830 0.92000 0.82920 0.45200
C 	C 	0.48885 0.79365 0.93750 0.38600
C 	C 	0.10155 0.83605 0.73400 -0.09200
C 	C 	0.08366 0.80804 0.72400 0.09800
C 	C 	0.10703 0.79953 0.69294 -0.12000
C 	C 	0.08924 0.77158 0.68438 0.09000
C 	C 	0.11295 0.76225 0.65240 -0.07600
C 	C 	0.15309 0.82319 0.66633 0.03200
C 	C 	0.17915 0.80945 0.67980 -0.01500
C 	C 	0.22122 0.83272 0.65587 -0.13900
C 	C 	0.23825 0.87015 0.61770 0.05300
C 	C 	0.21298 0.88458 0.60315 -0.09700
C 	C 	0.17053 0.86053 0.62754 -0.03400
C 	C 	0.24920 0.81750 0.67080 0.45600
C 	C 	0.23115 0.92635 0.56250 0.39100
C 	C 	0.16445 0.92995 0.73400 -0.10000
C 	C 	0.19234 0.96796 0.72400 0.13400
C 	C 	0.20003 0.50753 0.69294 -0.11700
C 	C 	0.22638 0.54404 0.68438 0.09100
C 	C 	0.23465 0.58535 0.65240 -0.07900
C 	C 	0.18059 0.51049 0.66633 0.02700
C 	C 	0.14105 0.51075 0.67980 -0.01100
C 	C 	0.12292 0.51141 0.65587 -0.14400
C 	C 	0.14405 0.51215 0.61770 0.05800
C 	C 	0.18388 0.51227 0.60315 -0.10500
C 	C 	0.20193 0.51193 0.62754 -0.03000
C 	C 	0.08000 0.51170 0.67080 0.45700
C 	C 	0.20635 0.51115 0.56250 0.39400
N 	N 	0.24918 0.54738 0.70344 -0.28300
N 	N 	0.04738 0.74918 0.70344 -0.28900
N 	N 	0.45262 0.75082 0.79656 -0.28300
N 	N 	0.25082 0.95262 0.79656 -0.27500
N 	N 	0.29120 0.54120 0.75000 -0.28400
N 	N 	0.45880 0.70880 0.75000 -0.28300
N 	N 	0.20880 0.95880 0.75000 -0.28300
N 	N 	0.04120 0.79120 0.75000 -0.28300
Cl	Cl	0.04150 0.85295 0.50000 -0.48600
Cl	Cl	0.45850 0.64705 0.50000 -0.51300
Cl	Cl	0.14705 0.95850 0.50000 -0.46700
Cl	Cl	0.35295 0.54150 0.50000 -0.51300
Cl	Cl	0.19219 0.50158 0.80623 -0.48500
Cl	Cl	0.30782 0.99842 0.69377 -0.46400
O 	O 	0.28492 0.73250 0.70629 -0.53000
O 	O 	0.33965 0.78705 0.64700 -0.56500
O 	O 	0.45033 0.76733 0.54715 -0.45100
O 	O 	0.43381 0.70780 0.54809 -0.46100
O 	O 	0.00879 0.56122 0.70629 -0.53700
O 	O 	0.01335 0.56595 0.64700 -0.56500
O 	O 	0.00252 0.68553 0.54715 -0.45800
O 	O 	0.01810 0.74411 0.54809 -0.46200
O 	O 	0.26751 0.71509 0.79371 -0.52900
O 	O 	0.21295 0.66035 0.85300 -0.55800
O 	O 	0.23268 0.54967 0.95285 -0.42800
O 	O 	0.29220 0.56619 0.95191 -0.43600
O 	O 	0.43879 0.99121 0.79371 -0.51600
O 	O 	0.43405 0.98665 0.85300 -0.55100
O 	O 	0.31448 0.99748 0.95285 -0.41600
O 	O 	0.25589 0.98190 0.95191 -0.43400
O 	O 	0.21509 0.76751 0.79371 -0.52800
O 	O 	0.16035 0.71295 0.85300 -0.56400
O 	O 	0.04968 0.73267 0.95285 -0.44200
O 	O 	0.06619 0.79220 0.95191 -0.44700
O 	O 	0.49121 0.93879 0.79371 -0.52000
O 	O 	0.48665 0.93405 0.85300 -0.55700
O 	O 	0.49748 0.81448 0.95285 -0.42900
O 	O 	0.48190 0.75589 0.95191 -0.43600
O 	O 	0.23250 0.78492 0.70629 -0.53000
O 	O 	0.28705 0.83965 0.64700 -0.56000
O 	O 	0.26733 0.95033 0.54715 -0.43600
O 	O 	0.20780 0.93381 0.54809 -0.45000
O 	O 	0.06122 0.50880 0.70629 -0.53400
O 	O 	0.06595 0.51335 0.64700 -0.56400
O 	O 	0.18553 0.50253 0.54715 -0.44900
O 	O 	0.24411 0.51810 0.54809 -0.46100
Mn	Mn	0.75000 0.50000 0.75000 1.27400
Mn	Mn	0.50000 0.75000 0.75000 1.27400
Mn	Mn	0.75000 0.75000 0.75000 1.23700
Mn	Mn	0.50000 0.50000 0.75000 1.23500
Mn	Mn	0.84170 0.84170 0.64617 1.17700
Mn	Mn	0.51213 0.51213 0.64617 1.16200
Mn	Mn	0.65830 0.65830 0.85383 1.17200
Mn	Mn	0.98787 0.98787 0.85383 1.17700
Mn	Mn	0.51459 0.79276 0.50000 1.30600
Mn	Mn	0.98542 0.70725 0.50000 1.31400
Mn	Mn	0.70725 0.98542 0.50000 1.31400
Mn	Mn	0.79276 0.51458 0.50000 1.30600
H 	H 	0.85165 0.62985 0.72070 0.06400
H 	H 	0.77320 0.64190 0.63500 0.06100
H 	H 	0.78410 0.66780 0.70550 0.02900
H 	H 	0.88605 0.76695 0.60140 0.03000
H 	H 	0.86965 0.65345 0.61780 0.07100
H 	H 	0.92765 0.64945 0.72070 0.07500
H 	H 	0.59180 0.72310 0.63500 0.06000
H 	H 	0.51040 0.62670 0.70550 0.03500
H 	H 	0.51255 0.63165 0.60140 0.02000
H 	H 	0.51255 0.72875 0.61780 0.05600
H 	H 	0.87015 0.64835 0.77930 0.05600
H 	H 	0.85810 0.72680 0.86500 0.06600
H 	H 	0.83220 0.71590 0.79450 0.03900
H 	H 	0.73305 0.61395 0.89860 0.02900
H 	H 	0.84655 0.63035 0.88220 0.06300
H 	H 	0.85055 0.57235 0.77930 0.06100
H 	H 	0.77690 0.90820 0.86500 0.06200
H 	H 	0.87330 0.98960 0.79450 0.04300
H 	H 	0.86835 0.98745 0.89860 0.03200
H 	H 	0.77125 0.98745 0.88220 0.06400
H 	H 	0.64835 0.87015 0.77930 0.05900
H 	H 	0.72680 0.85810 0.86500 0.06600
H 	H 	0.71590 0.83220 0.79450 0.03900
H 	H 	0.61395 0.73305 0.89860 0.03200
H 	H 	0.63035 0.84655 0.88220 0.06300
H 	H 	0.57235 0.85055 0.77930 0.06100
H 	H 	0.90820 0.77690 0.86500 0.06200
H 	H 	0.98960 0.87330 0.79450 0.04300
H 	H 	0.98745 0.86835 0.89860 0.03200
H 	H 	0.98745 0.77125 0.88220 0.06400
H 	H 	0.62985 0.85165 0.72070 0.06300
H 	H 	0.64190 0.77320 0.63500 0.06000
H 	H 	0.66780 0.78410 0.70550 0.03700
H 	H 	0.76695 0.88605 0.60140 0.03000
H 	H 	0.65345 0.86965 0.61780 0.05900
H 	H 	0.64945 0.92765 0.72070 0.07300
H 	H 	0.72310 0.59180 0.63500 0.06000
H 	H 	0.62670 0.51040 0.70550 0.02800
H 	H 	0.63165 0.51255 0.60140 0.02000
H 	H 	0.72875 0.51255 0.61780 0.06800
C 	C 	0.83605 0.60155 0.73400 -0.08100
C 	C 	0.80804 0.58366 0.72400 0.09700
C 	C 	0.79953 0.60703 0.69294 -0.11800
C 	C 	0.77158 0.58924 0.68438 0.09300
C 	C 	0.76225 0.61295 0.65240 -0.07900
C 	C 	0.82319 0.65308 0.66633 0.03400
C 	C 	0.80945 0.67915 0.67980 -0.01700
C 	C 	0.83272 0.72122 0.65587 -0.13700
C 	C 	0.87015 0.73825 0.61770 0.05200
C 	C 	0.88458 0.71298 0.60315 -0.09500
C 	C 	0.86053 0.67053 0.62754 -0.03500
C 	C 	0.81750 0.74920 0.67080 0.45500
C 	C 	0.92635 0.73115 0.56250 0.39100
C 	C 	0.92995 0.66445 0.73400 -0.09900
C 	C 	0.96796 0.69234 0.72400 0.13400
C 	C 	0.50753 0.70003 0.69294 -0.11600
C 	C 	0.54404 0.72638 0.68438 0.09100
C 	C 	0.58535 0.73465 0.65240 -0.07800
C 	C 	0.51049 0.68059 0.66633 0.02700
C 	C 	0.51075 0.64105 0.67980 -0.01100
C 	C 	0.51142 0.62292 0.65587 -0.14600
C 	C 	0.51215 0.64405 0.61770 0.05700
C 	C 	0.51228 0.68388 0.60315 -0.10700
C 	C 	0.51193 0.70193 0.62754 -0.03000
C 	C 	0.51170 0.58000 0.67080 0.45700
C 	C 	0.51115 0.70635 0.56250 0.39500
C 	C 	0.89845 0.66395 0.76600 -0.06800
C 	C 	0.91634 0.69196 0.77600 0.09200
C 	C 	0.89297 0.70047 0.80706 -0.11500
C 	C 	0.91076 0.72842 0.81562 0.09500
C 	C 	0.88705 0.73775 0.84760 -0.07900
C 	C 	0.84692 0.67681 0.83367 0.03300
C 	C 	0.82085 0.69055 0.82020 -0.01600
C 	C 	0.77879 0.66729 0.84413 -0.13700
C 	C 	0.76175 0.62985 0.88230 0.05100
C 	C 	0.78703 0.61543 0.89685 -0.09500
C 	C 	0.82947 0.63947 0.87246 -0.03600
C 	C 	0.75080 0.68250 0.82920 0.45400
C 	C 	0.76885 0.57365 0.93750 0.38800
C 	C 	0.83555 0.57005 0.76600 -0.07800
C 	C 	0.80766 0.53204 0.77600 0.09500
C 	C 	0.79997 0.99247 0.80706 -0.08000
C 	C 	0.77362 0.95596 0.81562 0.08400
C 	C 	0.76535 0.91465 0.84760 -0.07000
C 	C 	0.81942 0.98952 0.83367 0.02700
C 	C 	0.85895 0.98925 0.82020 -0.01000
C 	C 	0.87709 0.98859 0.84413 -0.13200
C 	C 	0.85595 0.98785 0.88230 0.05200
C 	C 	0.81613 0.98773 0.89685 -0.09300
C 	C 	0.79807 0.98807 0.87246 -0.02900
C 	C 	0.92000 0.98830 0.82920 0.45200
C 	C 	0.79365 0.98885 0.93750 0.38800
C 	C 	0.66395 0.89845 0.76600 -0.07000
C 	C 	0.69196 0.91634 0.77600 0.09300
C 	C 	0.70047 0.89297 0.80706 -0.11600
C 	C 	0.72842 0.91076 0.81562 0.09600
C 	C 	0.73775 0.88705 0.84760 -0.07900
C 	C 	0.67682 0.84692 0.83367 0.03400
C 	C 	0.69055 0.82085 0.82020 -0.01700
C 	C 	0.66729 0.77879 0.84413 -0.13400
C 	C 	0.62985 0.76175 0.88230 0.05000
C 	C 	0.61543 0.78703 0.89685 -0.09300
C 	C 	0.63947 0.82947 0.87246 -0.03700
C 	C 	0.68250 0.75080 0.82920 0.45400
C 	C 	0.57365 0.76885 0.93750 0.38700
C 	C 	0.57005 0.83555 0.76600 -0.07900
C 	C 	0.53204 0.80766 0.77600 0.09600
C 	C 	0.99247 0.79997 0.80706 -0.08100
C 	C 	0.95596 0.77362 0.81562 0.08500
C 	C 	0.91465 0.76535 0.84760 -0.07000
C 	C 	0.98952 0.81942 0.83367 0.02700
C 	C 	0.98925 0.85895 0.82020 -0.01000
C 	C 	0.98859 0.87708 0.84413 -0.13200
C 	C 	0.98785 0.85595 0.88230 0.05200
C 	C 	0.98773 0.81613 0.89685 -0.09300
C 	C 	0.98807 0.79807 0.87246 -0.02900
C 	C 	0.98830 0.92000 0.82920 0.45200
C 	C 	0.98885 0.79365 0.93750 0.38800
C 	C 	0.60155 0.83605 0.73400 -0.08000
C 	C 	0.58366 0.80804 0.72400 0.09500
C 	C 	0.60703 0.79953 0.69294 -0.11700
C 	C 	0.58924 0.77158 0.68438 0.09200
C 	C 	0.61295 0.76225 0.65240 -0.07900
C 	C 	0.65309 0.82319 0.66633 0.03100
C 	C 	0.67915 0.80945 0.67980 -0.01500
C 	C 	0.72122 0.83272 0.65587 -0.13700
C 	C 	0.73825 0.87015 0.61770 0.05300
C 	C 	0.71298 0.88458 0.60315 -0.09800
C 	C 	0.67053 0.86053 0.62754 -0.03400
C 	C 	0.74920 0.81750 0.67080 0.45500
C 	C 	0.73115 0.92635 0.56250 0.39200
C 	C 	0.66445 0.92995 0.73400 -0.09700
C 	C 	0.69234 0.96796 0.72400 0.13500
C 	C 	0.70003 0.50753 0.69294 -0.11700
C 	C 	0.72638 0.54404 0.68438 0.09200
C 	C 	0.73465 0.58535 0.65240 -0.07800
C 	C 	0.68059 0.51049 0.66633 0.02900
C 	C 	0.64105 0.51075 0.67980 -0.01300
C 	C 	0.62292 0.51141 0.65587 -0.14600
C 	C 	0.64405 0.51215 0.61770 0.05600
C 	C 	0.68388 0.51227 0.60315 -0.10400
C 	C 	0.70193 0.51193 0.62754 -0.03200
C 	C 	0.58000 0.51170 0.67080 0.45600
C 	C 	0.70635 0.51115 0.56250 0.39400
N 	N 	0.74918 0.54738 0.70344 -0.28300
N 	N 	0.54738 0.74918 0.70344 -0.28300
N 	N 	0.95262 0.75082 0.79656 -0.27500
N 	N 	0.75082 0.95262 0.79656 -0.27500
N 	N 	0.79120 0.54120 0.75000 -0.28300
N 	N 	0.95880 0.70880 0.75000 -0.28200
N 	N 	0.70880 0.95880 0.75000 -0.28200
N 	N 	0.54120 0.79120 0.75000 -0.28300
Cl	Cl	0.54150 0.85295 0.50000 -0.49000
Cl	Cl	0.95850 0.64705 0.50000 -0.46500
Cl	Cl	0.64705 0.95850 0.50000 -0.48000
Cl	Cl	0.85295 0.54150 0.50000 -0.47400
Cl	Cl	0.50158 0.69219 0.80623 -0.48000
Cl	Cl	0.99842 0.80782 0.69377 -0.45800
Cl	Cl	0.80782 0.99842 0.69377 -0.45800
O 	O 	0.78492 0.73250 0.70629 -0.52900
O 	O 	0.83965 0.78705 0.64700 -0.55600
O 	O 	0.95033 0.76733 0.54715 -0.43500
O 	O 	0.93381 0.70780 0.54809 -0.44900
O 	O 	0.50879 0.56122 0.70629 -0.53000
O 	O 	0.51335 0.56595 0.64700 -0.56900
O 	O 	0.50253 0.68553 0.54715 -0.45300
O 	O 	0.51810 0.74411 0.54809 -0.46000
O 	O 	0.76751 0.71509 0.79371 -0.52600
O 	O 	0.71295 0.66035 0.85300 -0.56100
O 	O 	0.73268 0.54967 0.95285 -0.43100
O 	O 	0.79220 0.56619 0.95191 -0.44000
O 	O 	0.93879 0.99121 0.79371 -0.50700
O 	O 	0.93405 0.98665 0.85300 -0.55300
O 	O 	0.81448 0.99748 0.95285 -0.41900
O 	O 	0.75589 0.98190 0.95191 -0.43400
O 	O 	0.71509 0.76751 0.79371 -0.52500
O 	O 	0.66035 0.71295 0.85300 -0.55600
O 	O 	0.54968 0.73268 0.95285 -0.42700
O 	O 	0.56619 0.79220 0.95191 -0.44000
O 	O 	0.99121 0.93879 0.79371 -0.50700
O 	O 	0.98665 0.93405 0.85300 -0.55300
O 	O 	0.99748 0.81448 0.95285 -0.42000
O 	O 	0.98190 0.75589 0.95191 -0.43400
O 	O 	0.73250 0.78492 0.70629 -0.52700
O 	O 	0.78705 0.83965 0.64700 -0.55600
O 	O 	0.76733 0.95033 0.54715 -0.43500
O 	O 	0.70780 0.93381 0.54809 -0.45300
O 	O 	0.56122 0.50880 0.70629 -0.53200
O 	O 	0.56595 0.51335 0.64700 -0.56900
O 	O 	0.68553 0.50253 0.54715 -0.45200
O 	O 	0.74411 0.51810 0.54809 -0.45600
