data_crystal

_cell_length_a 18.94160
_cell_length_b 18.94160
_cell_length_c 19.97400
_cell_angle_alpha 112.63800
_cell_angle_beta  112.63800
_cell_angle_gamma 100.85000

_symmetry_space_group_name_	'P 1'
_symmetry_space_group_name_H-M	'P 1'

loop_
_symmetry_equiv_pos_as_xyz
  x,y,z

loop_
_atom_site_label
_atom_site_type_symbol
_atom_site_fract_x
_atom_site_fract_y
_atom_site_fract_z
_atom_site_charge
Mn	Mn	1.00000 0.50000 0.50000 1.30000
Mn	Mn	0.50000 -0.00000 0.50000 1.31500
Cd	Cd	0.52972 0.08668 -0.00000 1.15300
Cd	Cd	0.47028 0.91332 -0.00000 1.17700
Cd	Cd	0.91332 0.47028 -0.00000 1.14700
Cd	Cd	0.08668 0.52972 -0.00000 1.18300
Cd	Cd	1.00000 -0.00000 0.50000 1.25400
Cd	Cd	0.50000 0.50000 0.50000 1.29600
Cd	Cd	0.81701 0.81701 0.30802 1.17500
Cd	Cd	0.49101 0.49101 0.30802 1.17600
Cd	Cd	0.18299 0.18299 0.69198 1.19400
Cd	Cd	0.50899 0.50899 0.69198 1.19300
H 	H 	0.94510 0.21650 0.26800 0.06000
H 	H 	0.79310 0.23830 0.43300 0.06300
H 	H 	0.75250 0.18350 0.22440 0.03300
H 	H 	0.72180 0.96040 0.20760 0.06900
H 	H 	0.92450 0.16330 0.40400 0.06100
H 	H 	0.32290 0.05150 0.26800 0.06300
H 	H 	0.63990 0.19470 0.43300 0.06200
H 	H 	0.47190 0.04090 0.22440 0.02700
H 	H 	0.48580 0.24720 0.20760 -0.01700
H 	H 	0.47950 0.24070 0.40400 0.05200
H 	H 	0.78350 0.05490 0.73200 0.07400
H 	H 	0.76170 0.20690 0.56700 0.06500
H 	H 	0.81650 0.24750 0.77560 0.07500
H 	H 	0.03960 0.27820 0.79240 0.16600
H 	H 	0.83670 0.07550 0.59600 0.08500
H 	H 	0.94850 0.67710 0.73200 0.09400
H 	H 	0.80530 0.36010 0.56700 0.06400
H 	H 	0.95910 0.52810 0.77560 0.04900
H 	H 	0.75280 0.51420 0.79240 0.02400
H 	H 	0.75930 0.52050 0.59600 0.05700
H 	H 	0.05490 0.78350 0.73200 0.05700
H 	H 	0.20690 0.76170 0.56700 0.06700
H 	H 	0.24750 0.81650 0.77560 0.05400
H 	H 	0.27820 0.03960 0.79240 -0.04200
H 	H 	0.07550 0.83670 0.59600 0.05900
H 	H 	0.67710 0.94850 0.73200 0.05300
H 	H 	0.36010 0.80530 0.56700 0.06700
H 	H 	0.52810 0.95910 0.77560 0.05900
H 	H 	0.51420 0.75280 0.79240 0.03400
H 	H 	0.52050 0.75930 0.59600 0.06700
H 	H 	0.21650 0.94510 0.26800 0.04300
H 	H 	0.23830 0.79310 0.43300 0.06400
H 	H 	0.18350 0.75250 0.22440 0.01300
H 	H 	0.96040 0.72180 0.20760 -0.13900
H 	H 	0.16330 0.92450 0.40400 0.03600
H 	H 	0.05150 0.32290 0.26800 0.02200
H 	H 	0.19470 0.63990 0.43300 0.06500
H 	H 	0.04090 0.47190 0.22440 0.03600
H 	H 	0.24720 0.48580 0.20760 -0.00600
H 	H 	0.24070 0.47950 0.40400 0.06200
C 	C 	0.96640 0.27400 0.30180 -0.17500
C 	C 	0.94360 0.32140 0.36780 0.02100
C 	C 	0.89450 0.28610 0.38720 -0.08600
C 	C 	0.88880 0.34320 0.45620 0.06900
C 	C 	0.82620 0.29500 0.46420 -0.08100
C 	C 	0.84620 0.18740 0.32120 0.03000
C 	C 	0.77140 0.15100 0.24620 -0.06300
C 	C 	0.72470 0.06590 0.20360 -0.09800
C 	C 	0.75290 0.01730 0.23600 -0.06700
C 	C 	0.82780 0.05380 0.31120 -0.07600
C 	C 	0.87440 0.13880 0.35360 -0.05800
C 	C 	0.64830 0.05070 0.12540 0.43500
C 	C 	0.86160 0.00260 0.34920 0.34900
C 	C 	0.33540 0.02780 0.30180 -0.13000
C 	C 	0.42420 0.04640 0.36780 0.07300
C 	C 	0.49270 0.10110 0.38720 -0.09000
C 	C 	0.56740 0.11300 0.45620 0.07800
C 	C 	0.63800 0.16920 0.46420 -0.08000
C 	C 	0.47500 0.13380 0.32120 0.00800
C 	C 	0.47480 0.09520 0.24620 -0.01900
C 	C 	0.47890 0.13770 0.20360 -0.16500
C 	C 	0.48310 0.21870 0.23600 0.08400
C 	C 	0.48340 0.25740 0.31120 -0.14200
C 	C 	0.47920 0.21480 0.35360 -0.01100
C 	C 	0.47710 0.07470 0.12540 0.52700
C 	C 	0.48760 0.34660 0.34920 0.43500
C 	C 	0.72600 0.03360 0.69820 -0.12900
C 	C 	0.67860 0.05640 0.63220 0.04900
C 	C 	0.71390 0.10550 0.61280 -0.10100
C 	C 	0.65680 0.11120 0.54380 0.08200
C 	C 	0.70500 0.17380 0.53580 -0.08400
C 	C 	0.81260 0.15380 0.67880 0.08100
C 	C 	0.84900 0.22860 0.75380 -0.12000
C 	C 	0.93410 0.27530 0.79640 0.00900
C 	C 	0.98270 0.24710 0.76400 -0.19700
C 	C 	0.94620 0.17220 0.68880 0.01000
C 	C 	0.86120 0.12560 0.64640 -0.11200
C 	C 	0.94930 0.35170 0.87460 0.33400
C 	C 	0.99740 0.13840 0.65080 0.28400
C 	C 	0.97220 0.66460 0.69820 -0.16400
C 	C 	0.95360 0.57580 0.63220 0.08400
C 	C 	0.89890 0.50730 0.61280 -0.10000
C 	C 	0.88700 0.43260 0.54380 0.08000
C 	C 	0.83080 0.36200 0.53580 -0.08300
C 	C 	0.86620 0.52500 0.67880 0.03000
C 	C 	0.90480 0.52520 0.75380 -0.04000
C 	C 	0.86230 0.52110 0.79640 -0.11200
C 	C 	0.78130 0.51690 0.76400 0.06000
C 	C 	0.74260 0.51660 0.68880 -0.11200
C 	C 	0.78520 0.52080 0.64640 -0.02700
C 	C 	0.92530 0.52290 0.87460 0.48900
C 	C 	0.65340 0.51240 0.65080 0.42800
C 	C 	0.03360 0.72600 0.69820 0.03800
C 	C 	0.05640 0.67860 0.63220 0.10900
C 	C 	0.10550 0.71390 0.61280 -0.08700
C 	C 	0.11120 0.65680 0.54380 0.09400
C 	C 	0.17380 0.70500 0.53580 -0.07900
C 	C 	0.15380 0.81260 0.67880 0.01500
C 	C 	0.22860 0.84900 0.75380 -0.00700
C 	C 	0.27530 0.93410 0.79640 -0.15300
C 	C 	0.24710 0.98270 0.76400 0.18500
C 	C 	0.17220 0.94620 0.68880 -0.15800
C 	C 	0.12560 0.86120 0.64640 0.00900
C 	C 	0.35170 0.94930 0.87460 0.55700
C 	C 	0.13840 0.99740 0.65080 0.49600
C 	C 	0.66460 0.97220 0.69820 0.00300
C 	C 	0.57580 0.95360 0.63220 0.05900
C 	C 	0.50730 0.89890 0.61280 -0.08100
C 	C 	0.43260 0.88700 0.54380 0.08600
C 	C 	0.36200 0.83080 0.53580 -0.08000
C 	C 	0.52500 0.86620 0.67880 0.03400
C 	C 	0.52520 0.90480 0.75380 -0.04600
C 	C 	0.52110 0.86230 0.79640 -0.09400
C 	C 	0.51690 0.78130 0.76400 0.05200
C 	C 	0.51660 0.74260 0.68880 -0.10100
C 	C 	0.52080 0.78520 0.64640 -0.03100
C 	C 	0.52290 0.92530 0.87460 0.47300
C 	C 	0.51240 0.65340 0.65080 0.42700
C 	C 	0.27400 0.96640 0.30180 -0.00900
C 	C 	0.32140 0.94360 0.36780 0.08400
C 	C 	0.28610 0.89450 0.38720 -0.07200
C 	C 	0.34320 0.88880 0.45620 0.08300
C 	C 	0.29500 0.82620 0.46420 -0.07600
C 	C 	0.18740 0.84620 0.32120 -0.03500
C 	C 	0.15100 0.77140 0.24620 0.04900
C 	C 	0.06590 0.72470 0.20360 -0.25900
C 	C 	0.01730 0.75290 0.23600 0.31500
C 	C 	0.05380 0.82780 0.31120 -0.24400
C 	C 	0.13880 0.87440 0.35360 0.06300
C 	C 	0.05070 0.64830 0.12540 0.65800
C 	C 	0.00260 0.86160 0.34920 0.56100
C 	C 	0.02780 0.33540 0.30180 0.03600
C 	C 	0.04640 0.42420 0.36780 0.04500
C 	C 	0.10110 0.49270 0.38720 -0.07000
C 	C 	0.11300 0.56740 0.45620 0.08200
C 	C 	0.16920 0.63800 0.46420 -0.07700
C 	C 	0.13380 0.47500 0.32120 0.01100
C 	C 	0.09520 0.47480 0.24620 -0.02500
C 	C 	0.13770 0.47890 0.20360 -0.14700
C 	C 	0.21870 0.48310 0.23600 0.07700
C 	C 	0.25740 0.48340 0.31120 -0.13200
C 	C 	0.21480 0.47920 0.35360 -0.01400
C 	C 	0.07470 0.47710 0.12540 0.51100
C 	C 	0.34660 0.48760 0.34920 0.43400
N 	N 	0.00290 0.40910 0.41200 -0.20700
N 	N 	0.40910 0.00290 0.41200 -0.28200
N 	N 	0.59090 0.99710 0.58800 -0.22600
N 	N 	0.99710 0.59090 0.58800 -0.30200
N 	N 	0.93330 0.43330 0.50000 -0.37300
N 	N 	0.56670 0.06670 0.50000 -0.36700
N 	N 	0.06670 0.56670 0.50000 -0.34000
N 	N 	0.43330 0.93330 0.50000 -0.34700
Cl	Cl	0.88770 0.88770 0.47120 -0.63800
Cl	Cl	0.58350 0.58350 0.47120 -0.63300
Cl	Cl	0.11230 0.11230 0.52880 -0.60000
Cl	Cl	0.41650 0.41650 0.52880 -0.62200
Cl	Cl	0.50470 0.88610 0.39080 -0.45400
Cl	Cl	0.11390 0.49530 0.60920 -0.40300
O 	O 	0.62470 0.09070 0.09720 -0.60400
O 	O 	0.61120 0.97600 0.09300 -0.46300
O 	O 	0.81690 0.92750 0.30820 -0.47700
O 	O 	0.92850 0.03370 0.41640 -0.44600
O 	O 	0.47250 0.00650 0.09720 -0.63200
O 	O 	0.48180 0.11700 0.09300 -0.53200
O 	O 	0.49130 0.38070 0.30820 -0.53400
O 	O 	0.48790 0.38270 0.41640 -0.43400
O 	O 	0.90930 0.37530 0.90280 -0.47600
O 	O 	0.02400 0.38880 0.90700 -0.30200
O 	O 	0.07250 0.18310 0.69180 -0.41000
O 	O 	0.96630 0.07150 0.58360 -0.42400
O 	O 	0.99350 0.52750 0.90280 -0.53400
O 	O 	0.88300 0.51820 0.90700 -0.41700
O 	O 	0.61930 0.50870 0.69180 -0.50600
O 	O 	0.61730 0.51210 0.58360 -0.42800
O 	O 	0.37530 0.90930 0.90280 -0.50500
O 	O 	0.38880 0.02400 0.90700 -0.45800
O 	O 	0.18310 0.07250 0.69180 -0.54300
O 	O 	0.07150 0.96630 0.58360 -0.39900
O 	O 	0.52750 0.99350 0.90280 -0.47900
O 	O 	0.51820 0.88300 0.90700 -0.39400
O 	O 	0.50870 0.61930 0.69180 -0.49800
O 	O 	0.51210 0.61730 0.58360 -0.42300
O 	O 	0.09070 0.62470 0.09720 -0.63300
O 	O 	0.97600 0.61120 0.09300 -0.61900
O 	O 	0.92750 0.81690 0.30820 -0.61100
O 	O 	0.03370 0.92850 0.41640 -0.42000
O 	O 	0.00650 0.47250 0.09720 -0.57700
O 	O 	0.11700 0.48180 0.09300 -0.50900
O 	O 	0.38070 0.49130 0.30820 -0.52600
O 	O 	0.38270 0.48790 0.41640 -0.42900
