data_crystal

_cell_length_a 18.77720
_cell_length_b 18.77720
_cell_length_c 19.74400
_cell_angle_alpha 112.88100
_cell_angle_beta  112.88100
_cell_angle_gamma 100.50500

_symmetry_space_group_name_	'P 1'
_symmetry_space_group_name_H-M	'P 1'

loop_
_symmetry_equiv_pos_as_xyz
  x,y,z

loop_
_atom_site_label
_atom_site_type_symbol
_atom_site_fract_x
_atom_site_fract_y
_atom_site_fract_z
_atom_site_charge
Mn	Mn	0.31527 0.31527 0.30246 1.20800
Mn	Mn	0.98719 0.98719 0.30246 1.20500
Mn	Mn	0.68473 0.68473 0.69754 1.21900
Mn	Mn	0.01281 0.01281 0.69754 1.22400
Mn	Mn	0.50000 0.50000 0.50000 1.30900
Mn	Mn	1.00000 0.00000 0.50000 1.25100
Mn	Mn	0.03029 0.58589 -0.00000 1.30200
Mn	Mn	0.96971 0.41411 -0.00000 1.25000
Mn	Mn	0.41411 0.96971 -0.00000 1.29800
Mn	Mn	0.58589 0.03029 -0.00000 1.25400
Ni	Ni	0.50000 0.00000 0.50000 1.01200
Ni	Ni	1.00000 0.50000 0.50000 1.00700
H 	H 	0.29410 0.73810 0.44140 0.05700
H 	H 	0.44670 0.71910 0.26540 0.06000
H 	H 	0.42640 0.66340 0.40980 0.05100
H 	H 	0.22590 0.46470 0.20480 0.02400
H 	H 	0.26020 0.69040 0.23180 0.06600
H 	H 	0.14730 0.70330 0.44140 0.10400
H 	H 	0.81870 0.54630 0.26540 0.06500
H 	H 	0.98340 0.74640 0.40980 0.05000
H 	H 	0.97890 0.74010 0.20480 0.01400
H 	H 	0.97160 0.54140 0.23180 0.05300
H 	H 	0.26190 0.70590 0.55860 0.05600
H 	H 	0.28090 0.55330 0.73460 0.07700
H 	H 	0.33660 0.57360 0.59020 0.05600
H 	H 	0.53530 0.77410 0.79520 0.04900
H 	H 	0.30960 0.73980 0.76820 0.08400
H 	H 	0.29670 0.85270 0.55860 0.10000
H 	H 	0.45370 0.18130 0.73460 0.08000
H 	H 	0.25360 0.01660 0.59020 0.05600
H 	H 	0.25990 0.02110 0.79520 0.04300
H 	H 	0.45860 0.02840 0.76820 0.07300
H 	H 	0.70590 0.26190 0.55860 0.06800
H 	H 	0.55330 0.28090 0.73460 0.06900
H 	H 	0.57360 0.33660 0.59020 0.05000
H 	H 	0.77410 0.53530 0.79520 0.03600
H 	H 	0.73980 0.30960 0.76820 0.06600
H 	H 	0.85270 0.29670 0.55860 0.02000
H 	H 	0.18130 0.45370 0.73460 0.06400
H 	H 	0.01660 0.25360 0.59020 0.05400
H 	H 	0.02110 0.25990 0.79520 0.04800
H 	H 	0.02840 0.45860 0.76820 0.08000
H 	H 	0.73810 0.29410 0.44140 0.06900
H 	H 	0.71910 0.44670 0.26540 0.05200
H 	H 	0.66340 0.42640 0.40980 0.04600
H 	H 	0.46470 0.22590 0.20480 0.01200
H 	H 	0.69040 0.26020 0.23180 0.04700
H 	H 	0.70330 0.14730 0.44140 0.02400
H 	H 	0.54630 0.81870 0.26540 0.04900
H 	H 	0.74640 0.98340 0.40980 0.04700
H 	H 	0.74010 0.97890 0.20480 0.01900
H 	H 	0.54140 0.97160 0.23180 0.06000
C 	C 	0.32590 0.79510 0.46800 -0.04800
C 	C 	0.38260 0.83240 0.44840 0.08500
C 	C 	0.39753 0.78633 0.38406 -0.11200
C 	C 	0.45140 0.82360 0.36720 0.09700
C 	C 	0.46970 0.77710 0.30100 -0.08500
C 	C 	0.34900 0.69280 0.33200 0.03500
C 	C 	0.37610 0.64090 0.35900 -0.02600
C 	C 	0.32900 0.55400 0.31120 -0.13100
C 	C 	0.25740 0.52240 0.23660 0.05500
C 	C 	0.22920 0.57220 0.20620 -0.09900
C 	C 	0.27674 0.65634 0.25328 -0.03400
C 	C 	0.14630 0.53530 0.12380 0.39200
C 	C 	0.36120 0.49920 0.34280 0.44800
C 	C 	0.14210 0.67290 0.46800 -0.13100
C 	C 	0.06580 0.61600 0.44840 0.20900
C 	C 	0.98653 0.59773 0.38406 -0.23100
C 	C 	0.91580 0.54360 0.36720 0.12200
C 	C 	0.83130 0.52390 0.30100 -0.10100
C 	C 	0.98300 0.63920 0.33200 0.05500
C 	C 	0.98290 0.71810 0.35900 -0.05000
C 	C 	0.98220 0.75720 0.31120 -0.13300
C 	C 	0.97920 0.71420 0.23660 0.05000
C 	C 	0.97700 0.63400 0.20620 -0.11300
C 	C 	0.97654 0.59694 0.25328 -0.05500
C 	C 	0.97750 0.58850 0.12380 0.39400
C 	C 	0.98160 0.84360 0.34280 0.44300
C 	C 	0.20490 0.67410 0.53200 -0.04600
C 	C 	0.16760 0.61740 0.55160 0.08700
C 	C 	0.21367 0.60247 0.61594 -0.11500
C 	C 	0.17640 0.54860 0.63280 0.10400
C 	C 	0.22290 0.53030 0.69900 -0.08200
C 	C 	0.30720 0.65100 0.66800 0.05100
C 	C 	0.35910 0.62390 0.64100 -0.03800
C 	C 	0.44600 0.67100 0.68880 -0.10900
C 	C 	0.47760 0.74260 0.76340 0.03800
C 	C 	0.42780 0.77080 0.79380 -0.06400
C 	C 	0.34366 0.72326 0.74672 -0.05100
C 	C 	0.46470 0.85370 0.87620 0.37700
C 	C 	0.50080 0.63880 0.65720 0.44300
C 	C 	0.32710 0.85790 0.53200 -0.12600
C 	C 	0.38400 0.93420 0.55160 0.19500
C 	C 	0.40227 0.01347 0.61594 -0.21900
C 	C 	0.45640 0.08420 0.63280 0.12500
C 	C 	0.47610 0.16870 0.69900 -0.09300
C 	C 	0.36080 0.01700 0.66800 0.07000
C 	C 	0.28190 0.01710 0.64100 -0.06000
C 	C 	0.24280 0.01780 0.68880 -0.10800
C 	C 	0.28580 0.02080 0.76340 0.03100
C 	C 	0.36600 0.02300 0.79380 -0.07500
C 	C 	0.40306 0.02346 0.74672 -0.07100
C 	C 	0.41150 0.02250 0.87620 0.37800
C 	C 	0.15640 0.01840 0.65720 0.43600
C 	C 	0.67410 0.20490 0.53200 -0.11500
C 	C 	0.61740 0.16760 0.55160 0.09300
C 	C 	0.60247 0.21367 0.61594 -0.12700
C 	C 	0.54860 0.17640 0.63280 0.09200
C 	C 	0.53030 0.22290 0.69900 -0.06400
C 	C 	0.65100 0.30720 0.66800 0.04100
C 	C 	0.62390 0.35910 0.64100 -0.03100
C 	C 	0.67100 0.44600 0.68880 -0.12200
C 	C 	0.74260 0.47760 0.76340 0.04900
C 	C 	0.77080 0.42780 0.79380 -0.08900
C 	C 	0.72326 0.34366 0.74672 -0.04300
C 	C 	0.85370 0.46470 0.87620 0.38500
C 	C 	0.63880 0.50080 0.65720 0.44600
C 	C 	0.85790 0.32710 0.53200 -0.03000
C 	C 	0.93420 0.38400 0.55160 -0.03300
C 	C 	0.01347 0.40227 0.61594 -0.00500
C 	C 	0.08420 0.45640 0.63280 0.06600
C 	C 	0.16870 0.47610 0.69900 -0.04800
C 	C 	0.01700 0.36080 0.66800 0.02300
C 	C 	0.01710 0.28190 0.64100 -0.00800
C 	C 	0.01780 0.24280 0.68880 -0.11500
C 	C 	0.02080 0.28580 0.76340 0.05100
C 	C 	0.02300 0.36600 0.79380 -0.07200
C 	C 	0.02346 0.40306 0.74672 -0.02200
C 	C 	0.02250 0.41150 0.87620 0.38200
C 	C 	0.01840 0.15640 0.65720 0.44600
C 	C 	0.79510 0.32590 0.46800 -0.11700
C 	C 	0.83240 0.38260 0.44840 0.09100
C 	C 	0.78633 0.39753 0.38406 -0.12400
C 	C 	0.82360 0.45140 0.36720 0.08400
C 	C 	0.77710 0.46970 0.30100 -0.06700
C 	C 	0.69280 0.34900 0.33200 0.02500
C 	C 	0.64090 0.37610 0.35900 -0.01900
C 	C 	0.55400 0.32900 0.31120 -0.14400
C 	C 	0.52240 0.25740 0.23660 0.06600
C 	C 	0.57220 0.22920 0.20620 -0.12400
C 	C 	0.65634 0.27674 0.25328 -0.02600
C 	C 	0.53530 0.14630 0.12380 0.40000
C 	C 	0.49920 0.36120 0.34280 0.45200
C 	C 	0.67290 0.14210 0.46800 -0.03600
C 	C 	0.61600 0.06580 0.44840 -0.01800
C 	C 	0.59773 0.98653 0.38406 -0.01800
C 	C 	0.54360 0.91580 0.36720 0.06300
C 	C 	0.52390 0.83130 0.30100 -0.05600
C 	C 	0.63920 0.98300 0.33200 0.00800
C 	C 	0.71810 0.98290 0.35900 0.00200
C 	C 	0.75720 0.98220 0.31120 -0.14000
C 	C 	0.71420 0.97920 0.23660 0.07100
C 	C 	0.63400 0.97700 0.20620 -0.11100
C 	C 	0.59694 0.97654 0.25328 -0.00700
C 	C 	0.58850 0.97750 0.12380 0.39800
C 	C 	0.84360 0.98160 0.34280 0.45200
N 	N 	0.41900 0.91900 0.50000 -0.27200
N 	N 	0.08100 0.58100 0.50000 -0.27100
N 	N 	0.58100 0.08100 0.50000 -0.27700
N 	N 	0.91900 0.41900 0.50000 -0.27700
N 	N 	0.49840 0.90620 0.40460 -0.24900
N 	N 	0.90620 0.49840 0.40460 -0.29000
N 	N 	0.09380 0.50160 0.59540 -0.24600
N 	N 	0.50160 0.09380 0.59540 -0.28800
Cl	Cl	0.08857 0.70677 -0.00000 -0.50300
Cl	Cl	0.91143 0.29323 -0.00000 -0.60400
Cl	Cl	0.29323 0.91143 -0.00000 -0.50700
Cl	Cl	0.70677 0.08857 -0.00000 -0.60000
O 	O 	0.13303 0.58323 0.09506 -0.45600
O 	O 	0.09654 0.46334 0.09328 -0.44300
O 	O 	0.31730 0.42390 0.29660 -0.53200
O 	O 	0.42714 0.53342 0.41236 -0.47000
O 	O 	0.96203 0.51183 0.09506 -0.49500
O 	O 	0.99674 0.62994 0.09328 -0.50700
O 	O 	0.97930 0.87270 0.29660 -0.54000
O 	O 	0.98522 0.87894 0.41236 -0.46800
O 	O 	0.41677 0.86697 0.90494 -0.39000
O 	O 	0.53666 0.90346 0.90672 -0.37600
O 	O 	0.57610 0.68270 0.70340 -0.51400
O 	O 	0.46658 0.57286 0.58764 -0.46600
O 	O 	0.48817 0.03797 0.90494 -0.42300
O 	O 	0.37006 0.00326 0.90672 -0.42900
O 	O 	0.12730 0.02070 0.70340 -0.51500
O 	O 	0.12106 0.01478 0.58764 -0.45600
O 	O 	0.86697 0.41677 0.90494 -0.42700
O 	O 	0.90346 0.53666 0.90672 -0.43500
O 	O 	0.68270 0.57610 0.70340 -0.52100
O 	O 	0.57286 0.46658 0.58764 -0.46900
O 	O 	0.03797 0.48817 0.90494 -0.38600
O 	O 	0.00326 0.37006 0.90672 -0.36900
O 	O 	0.02070 0.12730 0.70340 -0.50800
O 	O 	0.01478 0.12106 0.58764 -0.45000
O 	O 	0.58323 0.13303 0.09506 -0.49300
O 	O 	0.46334 0.09654 0.09328 -0.50200
O 	O 	0.42390 0.31730 0.29660 -0.53900
O 	O 	0.53342 0.42714 0.41236 -0.47300
O 	O 	0.51183 0.96203 0.09506 -0.45900
O 	O 	0.62994 0.99674 0.09328 -0.44800
O 	O 	0.87270 0.97930 0.29660 -0.53200
O 	O 	0.87894 0.98522 0.41236 -0.46200
O 	O 	0.38270 0.38270 0.44740 -0.44700
O 	O 	0.06470 0.06470 0.44740 -0.43400
O 	O 	0.61730 0.61730 0.55260 -0.44500
O 	O 	0.93530 0.93530 0.55260 -0.44300
