data_crystal

_cell_length_a 17.81300
_cell_length_b 29.89090
_cell_length_c 29.89090
_cell_angle_alpha 84.90640
_cell_angle_beta  72.66450
_cell_angle_gamma 72.66460

_symmetry_space_group_name_	'P 1'
_symmetry_space_group_name_H-M	'P 1'

loop_
_symmetry_equiv_pos_as_xyz
  x,y,z

loop_
_atom_site_label
_atom_site_type_symbol
_atom_site_fract_x
_atom_site_fract_y
_atom_site_fract_z
_atom_site_charge
Mn	Mn	0.07886 0.91508 0.35766 1.33500
Mn	Mn	0.23983 0.87981 0.46933 1.32000
Mn	Mn	0.20912 0.00521 0.57379 1.33200
Mn	Mn	0.85160 0.58492 0.14234 1.33500
Mn	Mn	0.08897 0.62019 0.03067 1.31900
Mn	Mn	0.28812 0.49479 0.92621 1.33100
Mn	Mn	0.43652 0.64234 0.41508 1.33500
Mn	Mn	0.70916 0.53067 0.37981 1.32000
Mn	Mn	0.78291 0.42621 0.50521 1.33100
Mn	Mn	0.99394 0.85766 0.08492 1.33600
Mn	Mn	0.11964 0.96933 0.12019 1.31900
Mn	Mn	0.21433 0.07379 0.99479 1.33100
Mn	Mn	0.92114 0.08492 0.64234 1.33500
Mn	Mn	0.76017 0.12019 0.53067 1.32000
Mn	Mn	0.79088 0.99479 0.42621 1.33200
Mn	Mn	0.14840 0.41508 0.85766 1.33500
Mn	Mn	0.91103 0.37981 0.96933 1.31900
Mn	Mn	0.71188 0.50521 0.07379 1.33100
Mn	Mn	0.56348 0.35766 0.58492 1.33400
Mn	Mn	0.29084 0.46933 0.62019 1.31900
Mn	Mn	0.21709 0.57379 0.49479 1.33000
Mn	Mn	0.00606 0.14234 0.91508 1.33500
Mn	Mn	0.88036 0.03067 0.87981 1.31800
Mn	Mn	0.78567 0.92621 0.00521 1.33000
H 	H 	0.25850 0.75370 0.40350 -0.00600
H 	H 	0.25390 0.69260 0.36380 0.13100
H 	H 	0.17400 0.70710 0.31330 -0.04600
H 	H 	0.09650 0.78240 0.30340 0.15700
H 	H 	0.05800 0.01860 0.45840 0.29600
H 	H 	0.13990 0.98960 0.46920 0.30600
H 	H 	0.14260 0.02190 0.42490 0.31500
H 	H 	0.40480 0.33690 0.57510 -0.02500
H 	H 	0.35160 0.27860 0.56780 0.11100
H 	H 	0.55170 0.18660 0.58760 0.12200
H 	H 	0.60210 0.24750 0.59010 -0.02000
H 	H 	0.41930 0.18780 0.52960 0.09900
H 	H 	0.46240 0.15540 0.56440 0.10600
H 	H 	0.43440 0.98320 0.46400 -0.00900
H 	H 	0.53760 0.97550 0.39290 0.11800
H 	H 	0.53900 0.92510 0.33610 -0.04500
H 	H 	0.44200 0.88880 0.34760 0.15300
H 	H 	0.08160 0.89200 0.61700 0.29100
H 	H 	0.07780 0.94490 0.61890 0.28100
H 	H 	0.02210 0.93040 0.59440 0.28900
H 	H 	0.97130 0.98710 0.25030 -0.01100
H 	H 	0.89750 0.03090 0.20170 0.11300
H 	H 	0.75880 0.07100 0.23380 -0.04600
H 	H 	0.69850 0.06750 0.31190 0.14000
H 	H 	0.00360 0.87230 0.46310 0.29800
H 	H 	0.92010 0.88000 0.50260 0.31400
H 	H 	0.97640 0.91220 0.50020 0.29700
H 	H 	0.22890 0.06950 0.64630 -0.01000
H 	H 	0.27560 0.13240 0.65220 0.08500
H 	H 	0.36110 0.13140 0.51400 0.08000
H 	H 	0.30880 0.07080 0.51100 -0.00000
H 	H 	0.35140 0.18530 0.62170 0.04200
H 	H 	0.30940 0.21140 0.58380 0.03800
H 	H 	0.91570 0.74630 0.09650 -0.00600
H 	H 	0.81030 0.80740 0.13620 0.13000
H 	H 	0.69440 0.79290 0.18670 -0.04600
H 	H 	0.68230 0.71760 0.19660 0.15700
H 	H 	0.03500 0.48140 0.04160 0.29800
H 	H 	0.09870 0.51040 0.03080 0.30900
H 	H 	0.08940 0.47810 0.07510 0.31700
H 	H 	0.81680 0.16310 0.92490 -0.02500
H 	H 	0.69800 0.22140 0.93220 0.11100
H 	H 	0.82590 0.31340 0.91240 0.12200
H 	H 	0.93970 0.25250 0.90990 -0.02100
H 	H 	0.63670 0.31220 0.97040 0.09900
H 	H 	0.68220 0.34460 0.93560 0.10700
H 	H 	0.38160 0.51680 0.03600 -0.00900
H 	H 	0.40600 0.52450 0.10710 0.11800
H 	H 	0.30020 0.57490 0.16390 -0.04500
H 	H 	0.17840 0.61120 0.15240 0.15200
H 	H 	0.09060 0.60800 0.88300 0.29100
H 	H 	0.14160 0.55510 0.88110 0.28200
H 	H 	0.04690 0.56960 0.90560 0.29000
H 	H 	0.70870 0.51290 0.24970 -0.01100
H 	H 	0.63010 0.46910 0.29830 0.11300
H 	H 	0.56360 0.42900 0.26620 -0.04600
H 	H 	0.57790 0.43250 0.18810 0.14000
H 	H 	0.83900 0.62770 0.03690 0.29800
H 	H 	0.80270 0.62000 0.99740 0.31300
H 	H 	0.88880 0.58780 0.99980 0.29600
H 	H 	0.44470 0.43050 0.85370 -0.01000
H 	H 	0.56020 0.36760 0.84780 0.08500
H 	H 	0.50650 0.36860 0.98600 0.08000
H 	H 	0.39060 0.42920 0.98900 -0.00000
H 	H 	0.65840 0.31470 0.87830 0.04200
H 	H 	0.60460 0.28860 0.91620 0.03700
H 	H 	0.66200 0.59650 0.25370 -0.00600
H 	H 	0.61770 0.63620 0.19260 0.13100
H 	H 	0.48730 0.68670 0.20710 -0.04600
H 	H 	0.39990 0.69660 0.28240 0.15700
H 	H 	0.51640 0.54160 0.51860 0.29700
H 	H 	0.60910 0.53080 0.48960 0.30800
H 	H 	0.56750 0.57510 0.52190 0.31700
H 	H 	0.97990 0.42490 0.83690 -0.02800
H 	H 	0.91940 0.43220 0.77860 0.11400
H 	H 	0.13930 0.41240 0.68660 0.12400
H 	H 	0.19220 0.40990 0.74750 -0.02200
H 	H 	0.94890 0.47040 0.68780 0.10300
H 	H 	0.02680 0.43560 0.65540 0.11100
H 	H 	0.89840 0.53600 0.48320 -0.00900
H 	H 	0.93050 0.60710 0.47550 0.11800
H 	H 	0.87510 0.66390 0.42510 -0.04500
H 	H 	0.78960 0.65240 0.38880 0.15300
H 	H 	0.69860 0.38300 0.39200 0.29100
H 	H 	0.69670 0.38110 0.44490 0.28200
H 	H 	0.61650 0.40560 0.43040 0.28900
H 	H 	0.22160 0.74970 0.48710 -0.01100
H 	H 	0.09920 0.79830 0.53090 0.11300
H 	H 	0.99260 0.76620 0.57100 -0.04500
H 	H 	0.01040 0.68810 0.56750 0.14000
H 	H 	0.46670 0.53690 0.37230 0.29900
H 	H 	0.42270 0.49740 0.38000 0.31500
H 	H 	0.47660 0.49980 0.41220 0.29800
H 	H 	0.87520 0.35370 0.56950 -0.00900
H 	H 	0.92780 0.34780 0.63240 0.08300
H 	H 	0.87510 0.48600 0.63140 0.07900
H 	H 	0.81980 0.48900 0.57080 0.00000
H 	H 	0.97310 0.37830 0.68530 0.03800
H 	H 	0.89320 0.41620 0.71140 0.03400
H 	H 	0.01220 0.90350 0.24630 -0.00800
H 	H 	0.94650 0.86380 0.30740 0.13100
H 	H 	0.88110 0.81330 0.29290 -0.04600
H 	H 	0.87890 0.80340 0.21760 0.15800
H 	H 	0.07660 0.95840 0.98140 0.29300
H 	H 	0.12950 0.96920 0.01040 0.30200
H 	H 	0.16450 0.92490 0.97810 0.31200
H 	H 	0.74170 0.07510 0.66310 -0.02500
H 	H 	0.63020 0.06780 0.72140 0.11100
H 	H 	0.73830 0.08760 0.81340 0.12200
H 	H 	0.84960 0.09010 0.75250 -0.02000
H 	H 	0.60710 0.02960 0.81220 0.09900
H 	H 	0.61780 0.06440 0.84460 0.10600
H 	H 	0.41760 0.96400 0.01680 -0.00900
H 	H 	0.51310 0.89290 0.02450 0.11800
H 	H 	0.46410 0.83610 0.07490 -0.04500
H 	H 	0.33080 0.84760 0.11120 0.15200
H 	H 	0.97360 0.11700 0.10800 0.29000
H 	H 	0.02270 0.11890 0.05510 0.28100
H 	H 	0.95250 0.09440 0.06960 0.28900
H 	H 	0.95840 0.75030 0.01290 -0.01000
H 	H 	0.92840 0.70170 0.96910 0.11300
H 	H 	0.82980 0.73380 0.92900 -0.04500
H 	H 	0.76600 0.81190 0.93250 0.14000
H 	H 	0.87590 0.96310 0.12770 0.30100
H 	H 	0.80010 0.00260 0.12000 0.31700
H 	H 	0.88860 0.00020 0.08780 0.30000
H 	H 	0.29840 0.14630 0.93050 -0.01000
H 	H 	0.40800 0.15220 0.86760 0.08500
H 	H 	0.49250 0.01400 0.86860 0.08000
H 	H 	0.37960 0.01100 0.92920 -0.00100
H 	H 	0.53670 0.12170 0.81470 0.04200
H 	H 	0.52080 0.08380 0.78860 0.03800
H 	H 	0.74150 0.24630 0.59650 -0.00600
H 	H 	0.74610 0.30740 0.63620 0.13100
H 	H 	0.82600 0.29290 0.68670 -0.04600
H 	H 	0.90350 0.21760 0.69660 0.15700
H 	H 	0.94200 0.98140 0.54160 0.29600
H 	H 	0.86010 0.01040 0.53080 0.30600
H 	H 	0.85740 0.97810 0.57510 0.31500
H 	H 	0.59520 0.66310 0.42490 -0.02500
H 	H 	0.64840 0.72140 0.43220 0.11100
H 	H 	0.44830 0.81340 0.41240 0.12200
H 	H 	0.39790 0.75250 0.40990 -0.02000
H 	H 	0.58070 0.81220 0.47040 0.09900
H 	H 	0.53760 0.84460 0.43560 0.10600
H 	H 	0.56560 0.01680 0.53600 -0.00900
H 	H 	0.46240 0.02450 0.60710 0.11800
H 	H 	0.46100 0.07490 0.66390 -0.04500
H 	H 	0.55800 0.11120 0.65240 0.15300
H 	H 	0.91840 0.10800 0.38300 0.29100
H 	H 	0.92220 0.05510 0.38110 0.28100
H 	H 	0.97790 0.06960 0.40560 0.28900
H 	H 	0.02870 0.01290 0.74970 -0.01100
H 	H 	0.10250 0.96910 0.79830 0.11300
H 	H 	0.24120 0.92900 0.76620 -0.04600
H 	H 	0.30150 0.93250 0.68810 0.14000
H 	H 	0.99640 0.12770 0.53690 0.29800
H 	H 	0.07990 0.12000 0.49740 0.31400
H 	H 	0.02360 0.08780 0.49980 0.29700
H 	H 	0.77110 0.93050 0.35370 -0.01000
H 	H 	0.72440 0.86760 0.34780 0.08500
H 	H 	0.63890 0.86860 0.48600 0.08000
H 	H 	0.69120 0.92920 0.48900 -0.00000
H 	H 	0.64860 0.81470 0.37830 0.04200
H 	H 	0.69060 0.78860 0.41620 0.03800
H 	H 	0.08430 0.25370 0.90350 -0.00600
H 	H 	0.18970 0.19260 0.86380 0.13000
H 	H 	0.30560 0.20710 0.81330 -0.04600
H 	H 	0.31770 0.28240 0.80340 0.15700
H 	H 	0.96500 0.51860 0.95840 0.29800
H 	H 	0.90130 0.48960 0.96920 0.30900
H 	H 	0.91060 0.52190 0.92490 0.31700
H 	H 	0.18320 0.83690 0.07510 -0.02500
H 	H 	0.30200 0.77860 0.06780 0.11100
H 	H 	0.17410 0.68660 0.08760 0.12200
H 	H 	0.06030 0.74750 0.09010 -0.02100
H 	H 	0.36330 0.68780 0.02960 0.09900
H 	H 	0.31780 0.65540 0.06440 0.10700
H 	H 	0.61840 0.48320 0.96400 -0.00900
H 	H 	0.59400 0.47550 0.89290 0.11800
H 	H 	0.69980 0.42510 0.83610 -0.04500
H 	H 	0.82160 0.38880 0.84760 0.15200
H 	H 	0.90940 0.39200 0.11700 0.29100
H 	H 	0.85840 0.44490 0.11890 0.28200
H 	H 	0.95310 0.43040 0.09440 0.29000
H 	H 	0.29130 0.48710 0.75030 -0.01100
H 	H 	0.36990 0.53090 0.70170 0.11300
H 	H 	0.43640 0.57100 0.73380 -0.04600
H 	H 	0.42210 0.56750 0.81190 0.14000
H 	H 	0.16100 0.37230 0.96310 0.29800
H 	H 	0.19730 0.38000 0.00260 0.31300
H 	H 	0.11120 0.41220 0.00020 0.29600
H 	H 	0.55530 0.56950 0.14630 -0.01000
H 	H 	0.43980 0.63240 0.15220 0.08500
H 	H 	0.49350 0.63140 0.01400 0.08000
H 	H 	0.60940 0.57080 0.01100 -0.00000
H 	H 	0.34160 0.68530 0.12170 0.04200
H 	H 	0.39540 0.71140 0.08380 0.03700
H 	H 	0.33800 0.40350 0.74630 -0.00600
H 	H 	0.38230 0.36380 0.80740 0.13100
H 	H 	0.51270 0.31330 0.79290 -0.04600
H 	H 	0.60010 0.30340 0.71760 0.15700
H 	H 	0.48360 0.45840 0.48140 0.29700
H 	H 	0.39090 0.46920 0.51040 0.30800
H 	H 	0.43250 0.42490 0.47810 0.31700
H 	H 	0.02010 0.57510 0.16310 -0.02800
H 	H 	0.08060 0.56780 0.22140 0.11400
H 	H 	0.86070 0.58760 0.31340 0.12400
H 	H 	0.80780 0.59010 0.25250 -0.02200
H 	H 	0.05110 0.52960 0.31220 0.10300
H 	H 	0.97320 0.56440 0.34460 0.11100
H 	H 	0.10160 0.46400 0.51680 -0.00900
H 	H 	0.06950 0.39290 0.52450 0.11800
H 	H 	0.12490 0.33610 0.57490 -0.04500
H 	H 	0.21040 0.34760 0.61120 0.15300
H 	H 	0.30140 0.61700 0.60800 0.29100
H 	H 	0.30330 0.61890 0.55510 0.28200
H 	H 	0.38350 0.59440 0.56960 0.28900
H 	H 	0.77840 0.25030 0.51290 -0.01100
H 	H 	0.90080 0.20170 0.46910 0.11300
H 	H 	0.00740 0.23380 0.42900 -0.04500
H 	H 	0.98960 0.31190 0.43250 0.14000
H 	H 	0.53330 0.46310 0.62770 0.29900
H 	H 	0.57730 0.50260 0.62000 0.31500
H 	H 	0.52340 0.50020 0.58780 0.29800
H 	H 	0.12480 0.64630 0.43050 -0.00900
H 	H 	0.07220 0.65220 0.36760 0.08300
H 	H 	0.12490 0.51400 0.36860 0.07900
H 	H 	0.18020 0.51100 0.42920 0.00000
H 	H 	0.02690 0.62170 0.31470 0.03800
H 	H 	0.10680 0.58380 0.28860 0.03400
H 	H 	0.98780 0.09650 0.75370 -0.00800
H 	H 	0.05350 0.13620 0.69260 0.13100
H 	H 	0.11890 0.18670 0.70710 -0.04600
H 	H 	0.12110 0.19660 0.78240 0.15800
H 	H 	0.92340 0.04160 0.01860 0.29300
H 	H 	0.87050 0.03080 0.98960 0.30200
H 	H 	0.83550 0.07510 0.02190 0.31200
H 	H 	0.25830 0.92490 0.33690 -0.02500
H 	H 	0.36980 0.93220 0.27860 0.11100
H 	H 	0.26170 0.91240 0.18660 0.12200
H 	H 	0.15040 0.90990 0.24750 -0.02000
H 	H 	0.39290 0.97040 0.18780 0.09900
H 	H 	0.38220 0.93560 0.15540 0.10600
H 	H 	0.58240 0.03600 0.98320 -0.00900
H 	H 	0.48690 0.10710 0.97550 0.11800
H 	H 	0.53590 0.16390 0.92510 -0.04500
H 	H 	0.66920 0.15240 0.88880 0.15200
H 	H 	0.02640 0.88300 0.89200 0.29000
H 	H 	0.97730 0.88110 0.94490 0.28100
H 	H 	0.04750 0.90560 0.93040 0.28900
H 	H 	0.04160 0.24970 0.98710 -0.01000
H 	H 	0.07160 0.29830 0.03090 0.11300
H 	H 	0.17020 0.26620 0.07100 -0.04500
H 	H 	0.23400 0.18810 0.06750 0.14000
H 	H 	0.12410 0.03690 0.87230 0.30100
H 	H 	0.19990 0.99740 0.88000 0.31700
H 	H 	0.11140 0.99980 0.91220 0.30000
H 	H 	0.70160 0.85370 0.06950 -0.01000
H 	H 	0.59200 0.84780 0.13240 0.08500
H 	H 	0.50750 0.98600 0.13140 0.08000
H 	H 	0.62040 0.98900 0.07080 -0.00100
H 	H 	0.46330 0.87830 0.18530 0.04200
H 	H 	0.47920 0.91620 0.21140 0.03800
C 	C 	0.12880 0.81410 0.34770 0.33000
C 	C 	0.17780 0.80560 0.37880 -0.27000
C 	C 	0.22510 0.75950 0.38370 0.17900
C 	C 	0.22300 0.72300 0.35980 -0.26600
C 	C 	0.17520 0.73170 0.32990 0.20300
C 	C 	0.12850 0.77710 0.32390 -0.33000
C 	C 	0.18220 0.84190 0.40650 0.27600
C 	C 	0.11830 0.96170 0.41670 0.44800
C 	C 	0.11440 0.00140 0.44480 -0.97800
C 	C 	0.43600 0.30610 0.57650 0.13700
C 	C 	0.40370 0.27110 0.57190 -0.24600
C 	C 	0.44820 0.22510 0.57330 0.20300
C 	C 	0.52160 0.21700 0.58300 -0.26200
C 	C 	0.55020 0.25420 0.58580 0.14800
C 	C 	0.42190 0.18470 0.56170 -0.26300
C 	C 	0.37940 0.91060 0.41460 0.32400
C 	C 	0.37460 0.94150 0.44870 -0.27300
C 	C 	0.43560 0.96420 0.44060 0.16200
C 	C 	0.49800 0.95960 0.39840 -0.24700
C 	C 	0.49780 0.92940 0.36440 0.20000
C 	C 	0.44110 0.90710 0.37150 -0.33400
C 	C 	0.31070 0.95060 0.49300 0.27100
C 	C 	0.14220 0.91570 0.55390 0.40400
C 	C 	0.07470 0.92130 0.60030 -0.89800
C 	C 	0.79800 0.02600 0.33120 0.31000
C 	C 	0.88220 0.00090 0.31070 -0.26800
C 	C 	0.91650 0.00350 0.26310 0.16800
C 	C 	0.87250 0.02950 0.23370 -0.24900
C 	C 	0.78950 0.05360 0.25300 0.17900
C 	C 	0.75380 0.05160 0.29980 -0.30000
C 	C 	0.93170 0.97120 0.33900 0.28200
C 	C 	0.91480 0.92880 0.45100 0.42500
C 	C 	0.95750 0.89530 0.48210 -0.95400
C 	C 	0.25690 0.08170 0.61890 0.08900
C 	C 	0.28480 0.12020 0.62280 -0.16700
C 	C 	0.32480 0.13900 0.58400 0.09600
C 	C 	0.33400 0.11940 0.54180 -0.16400
C 	C 	0.30390 0.08200 0.54020 0.09100
C 	C 	0.35070 0.18370 0.58950 -0.05000
C 	C 	0.79060 0.68590 0.15230 0.33000
C 	C 	0.86220 0.69440 0.12120 -0.27000
C 	C 	0.86830 0.74050 0.11630 0.17900
C 	C 	0.80580 0.77700 0.14020 -0.26600
C 	C 	0.73680 0.76830 0.17010 0.20300
C 	C 	0.72950 0.72290 0.17610 -0.33000
C 	C 	0.93060 0.65810 0.09350 0.27600
C 	C 	0.99670 0.53830 0.08330 0.45200
C 	C 	0.06060 0.49860 0.05520 -0.98500
C 	C 	0.81860 0.19390 0.92350 0.13600
C 	C 	0.74670 0.22890 0.92810 -0.24600
C 	C 	0.74660 0.27490 0.92670 0.20300
C 	C 	0.82160 0.28300 0.91700 -0.26200
C 	C 	0.89020 0.24580 0.91420 0.14800
C 	C 	0.66830 0.31530 0.93830 -0.26400
C 	C 	0.20460 0.58940 0.08540 0.32400
C 	C 	0.26480 0.55850 0.05130 -0.27300
C 	C 	0.34040 0.53580 0.05940 0.16100
C 	C 	0.35600 0.54040 0.10160 -0.24700
C 	C 	0.29160 0.57060 0.13560 0.20000
C 	C 	0.21970 0.59290 0.12850 -0.33400
C 	C 	0.25430 0.54940 0.00700 0.27000
C 	C 	0.11180 0.58430 0.94610 0.40400
C 	C 	0.09630 0.57870 0.89970 -0.89800
C 	C 	0.65520 0.47400 0.16880 0.31000
C 	C 	0.69380 0.49910 0.18930 -0.26700
C 	C 	0.68310 0.49650 0.23690 0.16800
C 	C 	0.63570 0.47050 0.26630 -0.24900
C 	C 	0.59610 0.44640 0.24700 0.17900
C 	C 	0.60520 0.44840 0.20020 -0.30000
C 	C 	0.74190 0.52880 0.16100 0.28000
C 	C 	0.79460 0.57120 0.04900 0.42400
C 	C 	0.83490 0.60470 0.01790 -0.95200
C 	C 	0.45750 0.41830 0.88110 0.08900
C 	C 	0.52780 0.37980 0.87720 -0.16700
C 	C 	0.54780 0.36100 0.91600 0.09600
C 	C 	0.49520 0.38060 0.95820 -0.16300
C 	C 	0.42610 0.41800 0.95980 0.09100
C 	C 	0.62390 0.31630 0.91050 -0.05000
C 	C 	0.47650 0.65230 0.31410 0.33000
C 	C 	0.55660 0.62120 0.30560 -0.27000
C 	C 	0.60880 0.61630 0.25950 0.17900
C 	C 	0.58280 0.64020 0.22300 -0.26600
C 	C 	0.50510 0.67010 0.23170 0.20300
C 	C 	0.45240 0.67610 0.27710 -0.33000
C 	C 	0.58870 0.59350 0.34190 0.27600
C 	C 	0.53500 0.58330 0.46170 0.45000
C 	C 	0.55920 0.55520 0.50140 -0.98300
C 	C 	0.01250 0.42350 0.80610 0.14300
C 	C 	0.97560 0.42810 0.77110 -0.25400
C 	C 	0.02150 0.42670 0.72510 0.21200
C 	C 	0.10460 0.41700 0.71700 -0.26700
C 	C 	0.13600 0.41420 0.75420 0.15100
C 	C 	0.98360 0.43830 0.68470 -0.27700
C 	C 	0.79400 0.58540 0.41060 0.32400
C 	C 	0.82330 0.55130 0.44150 -0.27300
C 	C 	0.87620 0.55940 0.46420 0.16200
C 	C 	0.89640 0.60160 0.45960 -0.24700
C 	C 	0.86220 0.63560 0.42940 0.20000
C 	C 	0.81260 0.62850 0.40710 -0.33400
C 	C 	0.80370 0.50700 0.45060 0.27100
C 	C 	0.69610 0.44610 0.41570 0.40400
C 	C 	0.67500 0.39970 0.42130 -0.89800
C 	C 	0.12920 0.66880 0.52600 0.31000
C 	C 	0.19290 0.68930 0.50090 -0.26700
C 	C 	0.17960 0.73690 0.50350 0.16700
C 	C 	0.10620 0.76630 0.52950 -0.24800
C 	C 	0.04250 0.74700 0.55360 0.17800
C 	C 	0.05360 0.70020 0.55160 -0.30000
C 	C 	0.27070 0.66100 0.47120 0.28000
C 	C 	0.36580 0.54900 0.42880 0.42500
C 	C 	0.43960 0.51790 0.39530 -0.95700
C 	C 	0.87580 0.38110 0.58170 0.08800
C 	C 	0.90760 0.37720 0.62020 -0.16400
C 	C 	0.90880 0.41600 0.63900 0.09100
C 	C 	0.87580 0.45820 0.61940 -0.16000
C 	C 	0.84410 0.45980 0.58200 0.08900
C 	C 	0.94020 0.41050 0.68370 -0.03900
C 	C 	0.94290 0.84770 0.18590 0.33000
C 	C 	0.98340 0.87880 0.19440 -0.27000
C 	C 	0.98460 0.88370 0.24050 0.18200
C 	C 	0.94600 0.85980 0.27700 -0.26700
C 	C 	0.90690 0.82990 0.26830 0.20500
C 	C 	0.90560 0.82390 0.22290 -0.33000
C 	C 	0.02410 0.90650 0.15810 0.27500
C 	C 	0.08000 0.91670 0.03830 0.44400
C 	C 	0.11580 0.94480 0.99860 -0.96700
C 	C 	0.74210 0.07650 0.69390 0.13600
C 	C 	0.67480 0.07190 0.72890 -0.24600
C 	C 	0.67330 0.07330 0.77490 0.20300
C 	C 	0.73860 0.08300 0.78300 -0.26100
C 	C 	0.80440 0.08580 0.74580 0.14800
C 	C 	0.60660 0.06170 0.81530 -0.26300
C 	C 	0.29000 0.91460 0.08940 0.32300
C 	C 	0.31610 0.94870 0.05850 -0.27200
C 	C 	0.39980 0.94060 0.03580 0.16100
C 	C 	0.45760 0.89840 0.04040 -0.24600
C 	C 	0.42720 0.86440 0.07060 0.20000
C 	C 	0.34820 0.87150 0.09290 -0.33400
C 	C 	0.26130 0.99300 0.04940 0.26800
C 	C 	0.05790 0.05390 0.08430 0.40400
C 	C 	0.99600 0.10030 0.07870 -0.89700
C 	C 	0.82400 0.83120 0.97400 0.31000
C 	C 	0.88310 0.81070 0.99910 -0.26700
C 	C 	0.92000 0.76310 0.99650 0.16700
C 	C 	0.90200 0.73370 0.97050 -0.24800
C 	C 	0.84310 0.75300 0.94640 0.17800
C 	C 	0.80540 0.79980 0.94840 -0.30000
C 	C 	0.90290 0.83900 0.02880 0.28000
C 	C 	0.84360 0.95100 0.07120 0.42700
C 	C 	0.85280 0.98210 0.10470 -0.96300
C 	C 	0.33860 0.11890 0.91830 0.08900
C 	C 	0.40500 0.12280 0.87980 -0.16700
C 	C 	0.46380 0.08400 0.86100 0.09600
C 	C 	0.45340 0.04180 0.88060 -0.16400
C 	C 	0.38590 0.04020 0.91800 0.09100
C 	C 	0.53440 0.08950 0.81630 -0.05100
C 	C 	0.87120 0.18590 0.65230 0.33000
C 	C 	0.82220 0.19440 0.62120 -0.27000
C 	C 	0.77490 0.24050 0.61630 0.17900
C 	C 	0.77700 0.27700 0.64020 -0.26600
C 	C 	0.82480 0.26830 0.67010 0.20300
C 	C 	0.87150 0.22290 0.67610 -0.33000
C 	C 	0.81780 0.15810 0.59350 0.27600
C 	C 	0.88170 0.03830 0.58330 0.44800
C 	C 	0.88560 0.99860 0.55520 -0.97800
C 	C 	0.56400 0.69390 0.42350 0.13700
C 	C 	0.59630 0.72890 0.42810 -0.24600
C 	C 	0.55180 0.77490 0.42670 0.20300
C 	C 	0.47840 0.78300 0.41700 -0.26200
C 	C 	0.44980 0.74580 0.41420 0.14800
C 	C 	0.57810 0.81530 0.43830 -0.26300
C 	C 	0.62060 0.08940 0.58540 0.32400
C 	C 	0.62540 0.05850 0.55130 -0.27300
C 	C 	0.56440 0.03580 0.55940 0.16200
C 	C 	0.50200 0.04040 0.60160 -0.24700
C 	C 	0.50220 0.07060 0.63560 0.20000
C 	C 	0.55890 0.09290 0.62850 -0.33400
C 	C 	0.68930 0.04940 0.50700 0.27100
C 	C 	0.85780 0.08430 0.44610 0.40400
C 	C 	0.92530 0.07870 0.39970 -0.89800
C 	C 	0.20200 0.97400 0.66880 0.31000
C 	C 	0.11780 0.99910 0.68930 -0.26800
C 	C 	0.08350 0.99650 0.73690 0.16800
C 	C 	0.12750 0.97050 0.76630 -0.24900
C 	C 	0.21050 0.94640 0.74700 0.17900
C 	C 	0.24620 0.94840 0.70020 -0.30000
C 	C 	0.06830 0.02880 0.66100 0.28200
C 	C 	0.08520 0.07120 0.54900 0.42500
C 	C 	0.04250 0.10470 0.51790 -0.95400
C 	C 	0.74310 0.91830 0.38110 0.08900
C 	C 	0.71520 0.87980 0.37720 -0.16700
C 	C 	0.67520 0.86100 0.41600 0.09600
C 	C 	0.66600 0.88060 0.45820 -0.16400
C 	C 	0.69610 0.91800 0.45980 0.09100
C 	C 	0.64930 0.81630 0.41050 -0.05000
C 	C 	0.20940 0.31410 0.84770 0.33000
C 	C 	0.13780 0.30560 0.87880 -0.27000
C 	C 	0.13170 0.25950 0.88370 0.17900
C 	C 	0.19420 0.22300 0.85980 -0.26600
C 	C 	0.26320 0.23170 0.82990 0.20300
C 	C 	0.27050 0.27710 0.82390 -0.33000
C 	C 	0.06940 0.34190 0.90650 0.27600
C 	C 	0.00330 0.46170 0.91670 0.45200
C 	C 	0.93940 0.50140 0.94480 -0.98500
C 	C 	0.18140 0.80610 0.07650 0.13600
C 	C 	0.25330 0.77110 0.07190 -0.24600
C 	C 	0.25340 0.72510 0.07330 0.20300
C 	C 	0.17840 0.71700 0.08300 -0.26200
C 	C 	0.10980 0.75420 0.08580 0.14800
C 	C 	0.33170 0.68470 0.06170 -0.26400
C 	C 	0.79540 0.41060 0.91460 0.32400
C 	C 	0.73520 0.44150 0.94870 -0.27300
C 	C 	0.65960 0.46420 0.94060 0.16100
C 	C 	0.64400 0.45960 0.89840 -0.24700
C 	C 	0.70840 0.42940 0.86440 0.20000
C 	C 	0.78030 0.40710 0.87150 -0.33400
C 	C 	0.74570 0.45060 0.99300 0.27000
C 	C 	0.88820 0.41570 0.05390 0.40400
C 	C 	0.90370 0.42130 0.10030 -0.89800
C 	C 	0.34480 0.52600 0.83120 0.31000
C 	C 	0.30620 0.50090 0.81070 -0.26700
C 	C 	0.31690 0.50350 0.76310 0.16800
C 	C 	0.36430 0.52950 0.73370 -0.24900
C 	C 	0.40390 0.55360 0.75300 0.17900
C 	C 	0.39480 0.55160 0.79980 -0.30000
C 	C 	0.25810 0.47120 0.83900 0.28000
C 	C 	0.20540 0.42880 0.95100 0.42400
C 	C 	0.16510 0.39530 0.98210 -0.95200
C 	C 	0.54250 0.58170 0.11890 0.08900
C 	C 	0.47220 0.62020 0.12280 -0.16700
C 	C 	0.45220 0.63900 0.08400 0.09600
C 	C 	0.50480 0.61940 0.04180 -0.16300
C 	C 	0.57390 0.58200 0.04020 0.09100
C 	C 	0.37610 0.68370 0.08950 -0.05000
C 	C 	0.52350 0.34770 0.68590 0.33000
C 	C 	0.44340 0.37880 0.69440 -0.27000
C 	C 	0.39120 0.38370 0.74050 0.17900
C 	C 	0.41720 0.35980 0.77700 -0.26600
C 	C 	0.49490 0.32990 0.76830 0.20300
C 	C 	0.54760 0.32390 0.72290 -0.33000
C 	C 	0.41130 0.40650 0.65810 0.27600
C 	C 	0.46500 0.41670 0.53830 0.45000
C 	C 	0.44080 0.44480 0.49860 -0.98300
C 	C 	0.98750 0.57650 0.19390 0.14300
C 	C 	0.02440 0.57190 0.22890 -0.25400
C 	C 	0.97850 0.57330 0.27490 0.21200
C 	C 	0.89540 0.58300 0.28300 -0.26700
C 	C 	0.86400 0.58580 0.24580 0.15100
C 	C 	0.01640 0.56170 0.31530 -0.27700
C 	C 	0.20600 0.41460 0.58940 0.32400
C 	C 	0.17670 0.44870 0.55850 -0.27300
C 	C 	0.12380 0.44060 0.53580 0.16200
C 	C 	0.10360 0.39840 0.54040 -0.24700
C 	C 	0.13780 0.36440 0.57060 0.20000
C 	C 	0.18740 0.37150 0.59290 -0.33400
C 	C 	0.19630 0.49300 0.54940 0.27100
C 	C 	0.30390 0.55390 0.58430 0.40400
C 	C 	0.32500 0.60030 0.57870 -0.89800
C 	C 	0.87080 0.33120 0.47400 0.31000
C 	C 	0.80710 0.31070 0.49910 -0.26700
C 	C 	0.82040 0.26310 0.49650 0.16700
C 	C 	0.89380 0.23370 0.47050 -0.24800
C 	C 	0.95750 0.25300 0.44640 0.17800
C 	C 	0.94640 0.29980 0.44840 -0.30000
C 	C 	0.72930 0.33900 0.52880 0.28000
C 	C 	0.63420 0.45100 0.57120 0.42500
C 	C 	0.56040 0.48210 0.60470 -0.95700
C 	C 	0.12420 0.61890 0.41830 0.08800
C 	C 	0.09240 0.62280 0.37980 -0.16400
C 	C 	0.09120 0.58400 0.36100 0.09100
C 	C 	0.12420 0.54180 0.38060 -0.16000
C 	C 	0.15590 0.54020 0.41800 0.08900
C 	C 	0.05980 0.58950 0.31630 -0.03900
C 	C 	0.05710 0.15230 0.81410 0.33000
C 	C 	0.01660 0.12120 0.80560 -0.27000
C 	C 	0.01540 0.11630 0.75950 0.18200
C 	C 	0.05400 0.14020 0.72300 -0.26700
C 	C 	0.09310 0.17010 0.73170 0.20500
C 	C 	0.09440 0.17610 0.77710 -0.33000
C 	C 	0.97590 0.09350 0.84190 0.27500
C 	C 	0.92000 0.08330 0.96170 0.44400
C 	C 	0.88420 0.05520 0.00140 -0.96700
C 	C 	0.25790 0.92350 0.30610 0.13600
C 	C 	0.32520 0.92810 0.27110 -0.24600
C 	C 	0.32670 0.92670 0.22510 0.20300
C 	C 	0.26140 0.91700 0.21700 -0.26100
C 	C 	0.19560 0.91420 0.25420 0.14800
C 	C 	0.39340 0.93830 0.18470 -0.26300
C 	C 	0.71000 0.08540 0.91060 0.32300
C 	C 	0.68390 0.05130 0.94150 -0.27200
C 	C 	0.60020 0.05940 0.96420 0.16100
C 	C 	0.54240 0.10160 0.95960 -0.24600
C 	C 	0.57280 0.13560 0.92940 0.20000
C 	C 	0.65180 0.12850 0.90710 -0.33400
C 	C 	0.73870 0.00700 0.95060 0.26800
C 	C 	0.94210 0.94610 0.91570 0.40400
C 	C 	0.00400 0.89970 0.92130 -0.89700
C 	C 	0.17600 0.16880 0.02600 0.31000
C 	C 	0.11690 0.18930 0.00090 -0.26700
C 	C 	0.08000 0.23690 0.00350 0.16700
C 	C 	0.09800 0.26630 0.02950 -0.24800
C 	C 	0.15690 0.24700 0.05360 0.17800
C 	C 	0.19460 0.20020 0.05160 -0.30000
C 	C 	0.09710 0.16100 0.97120 0.28000
C 	C 	0.15640 0.04900 0.92880 0.42700
C 	C 	0.14720 0.01790 0.89530 -0.96300
C 	C 	0.66140 0.88110 0.08170 0.08900
C 	C 	0.59500 0.87720 0.12020 -0.16700
C 	C 	0.53620 0.91600 0.13900 0.09600
C 	C 	0.54660 0.95820 0.11940 -0.16400
C 	C 	0.61410 0.95980 0.08200 0.09100
C 	C 	0.46560 0.91050 0.18370 -0.05100
N 	N 	0.14394 0.88642 0.40050 -0.28600
N 	N 	0.15171 0.91909 0.42849 -0.27700
N 	N 	0.51000 0.29830 0.58290 -0.25000
N 	N 	0.25178 0.92853 0.50251 -0.29700
N 	N 	0.19290 0.94103 0.54637 -0.27100
N 	N 	0.89871 0.96389 0.38349 -0.28800
N 	N 	0.95020 0.93140 0.40620 -0.26900
N 	N 	0.26800 0.06170 0.57870 -0.22500
N 	N 	0.93086 0.61358 0.09950 -0.28600
N 	N 	0.99929 0.58091 0.07151 -0.27700
N 	N 	0.89120 0.20170 0.91710 -0.25000
N 	N 	0.18282 0.57147 0.99749 -0.29600
N 	N 	0.18030 0.55897 0.95363 -0.27100
N 	N 	0.74609 0.53611 0.11651 -0.28700
N 	N 	0.78780 0.56860 0.09380 -0.26900
N 	N 	0.40840 0.43830 0.92130 -0.22500
N 	N 	0.54444 0.59950 0.38642 -0.28600
N 	N 	0.58020 0.57151 0.41909 -0.27700
N 	N 	0.09290 0.41710 0.79830 -0.25100
N 	N 	0.75429 0.49749 0.42853 -0.29700
N 	N 	0.73927 0.45363 0.44103 -0.27100
N 	N 	0.28220 0.61651 0.46389 -0.28700
N 	N 	0.35640 0.59380 0.43140 -0.27000
N 	N 	0.84670 0.42130 0.56170 -0.22400
N 	N 	0.03036 0.90050 0.11358 -0.28600
N 	N 	0.07080 0.92849 0.08091 -0.27600
N 	N 	0.80830 0.08290 0.70170 -0.25000
N 	N 	0.18031 0.00251 0.07147 -0.29500
N 	N 	0.13393 0.04637 0.05897 -0.27100
N 	N 	0.86260 0.88349 0.03611 -0.28700
N 	N 	0.88160 0.90620 0.06860 -0.27000
N 	N 	0.32970 0.07870 0.93830 -0.22500
N 	N 	0.85606 0.11358 0.59950 -0.28600
N 	N 	0.84829 0.08091 0.57151 -0.27700
N 	N 	0.49000 0.70170 0.41710 -0.25000
N 	N 	0.74822 0.07147 0.49749 -0.29700
N 	N 	0.80710 0.05897 0.45363 -0.27100
N 	N 	0.10129 0.03611 0.61651 -0.28800
N 	N 	0.04980 0.06860 0.59380 -0.26900
N 	N 	0.73200 0.93830 0.42130 -0.22500
N 	N 	0.06914 0.38642 0.90050 -0.28600
N 	N 	0.00071 0.41909 0.92849 -0.27700
N 	N 	0.10880 0.79830 0.08290 -0.25000
N 	N 	0.81718 0.42853 0.00251 -0.29600
N 	N 	0.81970 0.44103 0.04637 -0.27100
N 	N 	0.25391 0.46389 0.88349 -0.28700
N 	N 	0.21220 0.43140 0.90620 -0.26900
N 	N 	0.59160 0.56170 0.07870 -0.22500
N 	N 	0.45556 0.40050 0.61358 -0.28600
N 	N 	0.41980 0.42849 0.58091 -0.27700
N 	N 	0.90710 0.58290 0.20170 -0.25100
N 	N 	0.24571 0.50251 0.57147 -0.29700
N 	N 	0.26073 0.54637 0.55897 -0.27100
N 	N 	0.71780 0.38349 0.53611 -0.28700
N 	N 	0.64360 0.40620 0.56860 -0.27000
N 	N 	0.15330 0.57870 0.43830 -0.22400
N 	N 	0.96964 0.09950 0.88642 -0.28600
N 	N 	0.92920 0.07151 0.91909 -0.27600
N 	N 	0.19170 0.91710 0.29830 -0.25000
N 	N 	0.81969 0.99749 0.92853 -0.29500
N 	N 	0.86607 0.95363 0.94103 -0.27100
N 	N 	0.13740 0.11651 0.96389 -0.28700
N 	N 	0.11840 0.09380 0.93140 -0.27000
N 	N 	0.67030 0.92130 0.06170 -0.22500
O 	O 	0.08198 0.85688 0.33976 -0.47900
O 	O 	0.22240 0.83019 0.43741 -0.42400
O 	O 	0.08329 0.97080 0.38362 -0.50100
O 	O 	0.32929 0.88427 0.41955 -0.48800
O 	O 	0.31076 0.97928 0.52260 -0.41000
O 	O 	0.14974 0.88366 0.52546 -0.50600
O 	O 	0.75772 0.02642 0.37594 -0.48000
O 	O 	0.00683 0.95126 0.31908 -0.41700
O 	O 	0.84127 0.95533 0.47073 -0.48900
O 	O 	0.77862 0.64312 0.16024 -0.47900
O 	O 	0.99000 0.66981 0.06259 -0.42400
O 	O 	0.93771 0.52920 0.11638 -0.50200
O 	O 	0.13311 0.61573 0.08045 -0.48800
O 	O 	0.31264 0.52072 0.97740 -0.40900
O 	O 	0.05886 0.61634 0.97454 -0.50500
O 	O 	0.66008 0.47358 0.12406 -0.48000
O 	O 	0.77717 0.54874 0.18092 -0.41600
O 	O 	0.76733 0.54467 0.02927 -0.48900
O 	O 	0.42174 0.66024 0.35688 -0.47900
O 	O 	0.65981 0.56259 0.33019 -0.42400
O 	O 	0.46691 0.61638 0.47080 -0.50100
O 	O 	0.74884 0.58045 0.38427 -0.48800
O 	O 	0.83336 0.47740 0.47928 -0.41000
O 	O 	0.67520 0.47454 0.38366 -0.50600
O 	O 	0.13366 0.62406 0.52642 -0.48000
O 	O 	0.32591 0.68092 0.45126 -0.41600
O 	O 	0.31200 0.52927 0.45533 -0.48900
O 	O 	0.93886 0.83976 0.14312 -0.47900
O 	O 	0.05259 0.93741 0.16981 -0.42500
O 	O 	0.05409 0.88362 0.02920 -0.50100
O 	O 	0.21356 0.91955 0.11573 -0.48800
O 	O 	0.29004 0.02260 0.02072 -0.40800
O 	O 	0.03340 0.02546 0.11634 -0.50500
O 	O 	0.78414 0.87594 0.97358 -0.47900
O 	O 	0.95809 0.81908 0.04874 -0.41600
O 	O 	0.79660 0.97073 0.04467 -0.48900
O 	O 	0.91802 0.14312 0.66024 -0.47900
O 	O 	0.77760 0.16981 0.56259 -0.42400
O 	O 	0.91671 0.02920 0.61638 -0.50100
O 	O 	0.67071 0.11573 0.58045 -0.48800
O 	O 	0.68924 0.02072 0.47740 -0.41000
O 	O 	0.85026 0.11634 0.47454 -0.50600
O 	O 	0.24228 0.97358 0.62406 -0.48000
O 	O 	0.99317 0.04874 0.68092 -0.41700
O 	O 	0.15873 0.04467 0.52927 -0.48900
O 	O 	0.22138 0.35688 0.83976 -0.47900
O 	O 	0.01000 0.33019 0.93741 -0.42400
O 	O 	0.06229 0.47080 0.88362 -0.50200
O 	O 	0.86689 0.38427 0.91955 -0.48800
O 	O 	0.68736 0.47928 0.02260 -0.40900
O 	O 	0.94114 0.38366 0.02546 -0.50500
O 	O 	0.33992 0.52642 0.87594 -0.48000
O 	O 	0.22283 0.45126 0.81908 -0.41600
O 	O 	0.23267 0.45533 0.97073 -0.48900
O 	O 	0.57826 0.33976 0.64312 -0.47900
O 	O 	0.34019 0.43741 0.66981 -0.42400
O 	O 	0.53309 0.38362 0.52920 -0.50100
O 	O 	0.25116 0.41955 0.61573 -0.48800
O 	O 	0.16664 0.52260 0.52072 -0.41000
O 	O 	0.32480 0.52546 0.61634 -0.50600
O 	O 	0.86634 0.37594 0.47358 -0.48000
O 	O 	0.67409 0.31908 0.54874 -0.41600
O 	O 	0.68800 0.47073 0.54467 -0.48900
O 	O 	0.06114 0.16024 0.85688 -0.47900
O 	O 	0.94741 0.06259 0.83019 -0.42500
O 	O 	0.94591 0.11638 0.97080 -0.50100
O 	O 	0.78644 0.08045 0.88427 -0.48800
O 	O 	0.70996 0.97740 0.97928 -0.40800
O 	O 	0.96660 0.97454 0.88366 -0.50500
O 	O 	0.21586 0.12406 0.02642 -0.47900
O 	O 	0.04191 0.18092 0.95126 -0.41600
O 	O 	0.20340 0.02927 0.95533 -0.48900
