data_crystal

_cell_length_a 15.26880
_cell_length_b 15.35520
_cell_length_c 15.40300
_cell_angle_alpha 106.78700
_cell_angle_beta  117.05900
_cell_angle_gamma 103.19500

_symmetry_space_group_name_	'P 1'
_symmetry_space_group_name_H-M	'P 1'

loop_
_symmetry_equiv_pos_as_xyz
  x,y,z

loop_
_atom_site_label
_atom_site_type_symbol
_atom_site_fract_x
_atom_site_fract_y
_atom_site_fract_z
_atom_site_charge
La	La	0.94298 0.80254 0.63424 1.68000
La	La	0.67839 0.81607 0.38335 1.69000
La	La	0.91512 0.14639 0.56324 1.63100
La	La	0.05702 0.19746 0.36576 1.68000
La	La	0.32161 0.18393 0.61665 1.69000
La	La	0.08488 0.85361 0.43676 1.63100
P 	P 	0.87410 0.98320 0.69100 0.44400
P 	P 	0.80330 0.69340 0.32440 0.45000
P 	P 	0.11750 0.02510 0.64390 0.45900
P 	P 	0.12590 0.01680 0.30900 0.44400
P 	P 	0.19670 0.30660 0.67560 0.45000
P 	P 	0.88250 0.97490 0.35610 0.45900
H 	H 	0.29330 0.52470 0.17670 0.26100
H 	H 	0.66240 0.94510 0.60860 0.11800
H 	H 	0.84130 0.56220 0.40420 0.12100
H 	H 	0.25420 0.21410 0.82060 0.13100
H 	H 	0.82720 0.01010 0.81660 0.10800
H 	H 	0.77790 0.89490 0.74180 0.11200
H 	H 	0.59510 0.81710 0.63690 0.06000
H 	H 	0.61090 0.89560 0.74060 0.05300
H 	H 	0.42940 0.82730 0.59500 0.05000
H 	H 	0.46400 0.85690 0.52230 0.05900
H 	H 	0.49150 0.99290 0.71040 0.08300
H 	H 	0.57490 0.12550 0.69150 0.04900
H 	H 	0.55820 0.05240 0.58460 0.05900
H 	H 	0.70170 0.07970 0.79740 0.05700
H 	H 	0.73630 0.10960 0.72480 0.05300
H 	H 	0.70070 0.52440 0.19640 0.11500
H 	H 	0.66090 0.55040 0.27420 0.12000
H 	H 	0.78490 0.41850 0.20870 0.05900
H 	H 	0.88770 0.52140 0.28070 0.05600
H 	H 	0.96920 0.47540 0.41690 0.05900
H 	H 	0.93260 0.38860 0.30690 0.05200
H 	H 	0.78580 0.29240 0.29350 0.08000
H 	H 	0.83890 0.44540 0.48740 0.06100
H 	H 	0.73800 0.34090 0.41560 0.05300
H 	H 	0.68500 0.46480 0.37680 0.05900
H 	H 	0.66270 0.38230 0.27150 0.05100
H 	H 	0.27580 0.06160 0.80620 0.11400
H 	H 	0.17760 0.03540 0.81750 0.11000
H 	H 	0.09570 0.16650 0.81490 0.05000
H 	H 	0.16460 0.17210 0.93080 0.06000
H 	H 	0.19290 0.33710 0.88450 0.06500
H 	H 	0.14320 0.31980 0.95090 0.05800
H 	H 	0.30910 0.34500 0.09500 0.07400
H 	H 	0.40420 0.37150 0.97900 0.08000
H 	H 	0.46210 0.37040 0.09260 0.05600
H 	H 	0.34900 0.19720 0.01020 0.04900
H 	H 	0.40730 0.21250 0.95050 0.05500
H 	H 	0.27800 0.68300 0.06220 0.06800
H 	H 	0.13510 0.68770 0.92320 0.04700
H 	H 	0.34190 0.91470 0.94040 0.04400
H 	H 	0.48570 0.91580 0.08710 0.04900
H 	H 	0.50860 0.53520 0.67120 0.04800
H 	H 	0.63110 0.65670 0.67310 0.04400
H 	H 	0.72870 0.45760 0.56070 0.04300
H 	H 	0.60370 0.33220 0.55270 0.04500
H 	H 	0.70670 0.47530 0.82330 0.26100
H 	H 	0.33760 0.05490 0.39140 0.11800
H 	H 	0.15870 0.43780 0.59580 0.12100
H 	H 	0.74580 0.78590 0.17940 0.13100
H 	H 	0.17280 0.98990 0.18340 0.10800
H 	H 	0.22210 0.10510 0.25820 0.11200
H 	H 	0.40490 0.18290 0.36310 0.06000
H 	H 	0.38910 0.10440 0.25940 0.05300
H 	H 	0.57060 0.17270 0.40500 0.05000
H 	H 	0.53600 0.14310 0.47770 0.05900
H 	H 	0.50850 0.00710 0.28960 0.08300
H 	H 	0.42510 0.87450 0.30850 0.04900
H 	H 	0.44180 0.94760 0.41540 0.05900
H 	H 	0.29830 0.92030 0.20260 0.05700
H 	H 	0.26370 0.89040 0.27520 0.05300
H 	H 	0.29930 0.47560 0.80360 0.11500
H 	H 	0.33910 0.44960 0.72580 0.12000
H 	H 	0.21510 0.58150 0.79130 0.05900
H 	H 	0.11230 0.47860 0.71930 0.05600
H 	H 	0.03080 0.52460 0.58310 0.05900
H 	H 	0.06740 0.61140 0.69310 0.05200
H 	H 	0.21420 0.70760 0.70650 0.08000
H 	H 	0.16110 0.55460 0.51260 0.06100
H 	H 	0.26200 0.65910 0.58440 0.05300
H 	H 	0.31500 0.53520 0.62320 0.05900
H 	H 	0.33730 0.61770 0.72850 0.05100
H 	H 	0.72420 0.93840 0.19380 0.11400
H 	H 	0.82240 0.96460 0.18250 0.11000
H 	H 	0.90430 0.83350 0.18510 0.05000
H 	H 	0.83540 0.82790 0.06920 0.06000
H 	H 	0.80710 0.66290 0.11550 0.06500
H 	H 	0.85680 0.68020 0.04910 0.05800
H 	H 	0.69090 0.65500 0.90500 0.07400
H 	H 	0.59580 0.62850 0.02100 0.08000
H 	H 	0.53790 0.62960 0.90740 0.05600
H 	H 	0.65100 0.80280 0.98980 0.04900
H 	H 	0.59270 0.78750 0.04950 0.05500
H 	H 	0.72200 0.31700 0.93780 0.06800
H 	H 	0.86490 0.31230 0.07680 0.04700
H 	H 	0.65810 0.08530 0.05960 0.04400
H 	H 	0.51430 0.08420 0.91290 0.04900
H 	H 	0.49140 0.46480 0.32880 0.04800
H 	H 	0.36890 0.34330 0.32690 0.04400
H 	H 	0.27130 0.54240 0.43930 0.04300
H 	H 	0.39630 0.66780 0.44730 0.04500
C 	C 	0.78880 0.95950 0.74150 -0.23100
C 	C 	0.59500 0.88170 0.66810 -0.06400
C 	C 	0.48270 0.87730 0.59650 -0.06200
C 	C 	0.47900 0.97780 0.63830 -0.14900
C 	C 	0.57250 0.06090 0.65540 -0.06300
C 	C 	0.68170 0.06060 0.72290 -0.06400
C 	C 	0.36920 0.97530 0.56680 0.37000
C 	C 	0.72480 0.55940 0.27210 -0.23200
C 	C 	0.84060 0.46920 0.28320 -0.06800
C 	C 	0.90650 0.42240 0.34680 -0.06400
C 	C 	0.84280 0.34880 0.36560 -0.13700
C 	C 	0.78550 0.39280 0.41320 -0.07000
C 	C 	0.71940 0.43580 0.34420 -0.05900
C 	C 	0.91000 0.30530 0.43420 0.36200
C 	C 	0.21210 0.07360 0.79270 -0.23500
C 	C 	0.16710 0.20020 0.88260 -0.05600
C 	C 	0.19590 0.31010 0.93500 -0.07800
C 	C 	0.31110 0.36770 0.04230 -0.13800
C 	C 	0.39320 0.34190 0.02300 -0.07900
C 	C 	0.35470 0.22660 0.96400 -0.05600
C 	C 	0.33940 0.47970 0.08970 0.41000
C 	C 	0.49070 0.79240 0.17620 0.30900
C 	C 	0.39700 0.79340 0.08450 -0.06000
C 	C 	0.29170 0.73000 0.03780 -0.04100
C 	C 	0.20550 0.73390 0.95590 -0.01700
C 	C 	0.22350 0.80590 0.92240 -0.07000
C 	C 	0.32880 0.86980 0.96730 -0.02000
C 	C 	0.41570 0.86780 0.05210 -0.04000
C 	C 	0.12900 0.81050 0.83100 0.30600
C 	C 	0.45890 0.33700 0.60020 0.31500
C 	C 	0.53820 0.41790 0.60490 -0.06900
C 	C 	0.55070 0.51860 0.64640 -0.03000
C 	C 	0.62620 0.59180 0.64960 -0.01700
C 	C 	0.69380 0.57210 0.61950 -0.07200
C 	C 	0.68370 0.47270 0.58190 -0.02300
C 	C 	0.60790 0.39700 0.57600 -0.03100
C 	C 	0.77380 0.64980 0.62230 0.31200
C 	C 	0.21120 0.04050 0.25850 -0.23100
C 	C 	0.40500 0.11830 0.33190 -0.06400
C 	C 	0.51730 0.12270 0.40350 -0.06200
C 	C 	0.52100 0.02220 0.36170 -0.14900
C 	C 	0.42750 0.93910 0.34460 -0.06300
C 	C 	0.31830 0.93940 0.27710 -0.06400
C 	C 	0.63080 0.02470 0.43320 0.37000
C 	C 	0.27520 0.44060 0.72790 -0.23200
C 	C 	0.15940 0.53080 0.71680 -0.06800
C 	C 	0.09350 0.57760 0.65320 -0.06400
C 	C 	0.15720 0.65120 0.63440 -0.13700
C 	C 	0.21450 0.60720 0.58680 -0.07000
C 	C 	0.28060 0.56420 0.65580 -0.05900
C 	C 	0.09000 0.69470 0.56580 0.36200
C 	C 	0.78790 0.92640 0.20730 -0.23500
C 	C 	0.83290 0.79980 0.11740 -0.05600
C 	C 	0.80410 0.68990 0.06500 -0.07800
C 	C 	0.68890 0.63230 0.95770 -0.13800
C 	C 	0.60680 0.65810 0.97700 -0.07900
C 	C 	0.64530 0.77340 0.03600 -0.05600
C 	C 	0.66060 0.52030 0.91030 0.41000
C 	C 	0.50930 0.20760 0.82380 0.30900
C 	C 	0.60300 0.20660 0.91550 -0.06000
C 	C 	0.70830 0.27000 0.96220 -0.04100
C 	C 	0.79450 0.26610 0.04410 -0.01700
C 	C 	0.77650 0.19410 0.07760 -0.07000
C 	C 	0.67120 0.13020 0.03270 -0.02000
C 	C 	0.58430 0.13220 0.94790 -0.04000
C 	C 	0.87100 0.18950 0.16900 0.30600
C 	C 	0.54110 0.66300 0.39980 0.31500
C 	C 	0.46180 0.58210 0.39510 -0.06900
C 	C 	0.44930 0.48140 0.35360 -0.03000
C 	C 	0.37380 0.40820 0.35040 -0.01700
C 	C 	0.30620 0.42790 0.38050 -0.07200
C 	C 	0.31630 0.52730 0.41810 -0.02300
C 	C 	0.39210 0.60300 0.42400 -0.03100
C 	C 	0.22620 0.35020 0.37770 0.31200
N 	N 	0.67900 0.95970 0.67670 -0.12500
N 	N 	0.78840 0.51350 0.33620 -0.12500
N 	N 	0.24800 0.18170 0.85920 -0.13000
N 	N 	0.32100 0.04030 0.32330 -0.12500
N 	N 	0.21160 0.48650 0.66380 -0.12500
N 	N 	0.75200 0.81830 0.14080 -0.13000
O 	O 	0.97640 0.97470 0.76620 -0.36900
O 	O 	0.81330 0.89170 0.57850 -0.50000
O 	O 	0.88620 0.08100 0.68500 -0.40100
O 	O 	0.28750 0.90330 0.53880 -0.41800
O 	O 	0.36470 0.04470 0.53920 -0.41700
O 	O 	0.72080 0.72230 0.25020 -0.37200
O 	O 	0.82470 0.74400 0.43760 -0.49600
O 	O 	0.90310 0.70740 0.32280 -0.40200
O 	O 	0.86960 0.25680 0.46890 -0.41600
O 	O 	0.00340 0.32190 0.45050 -0.40700
O 	O 	0.05710 0.91110 0.59740 -0.48400
O 	O 	0.04690 0.08030 0.62880 -0.42600
O 	O 	0.18220 0.03910 0.59280 -0.48100
O 	O 	0.27660 0.50720 0.11170 -0.47800
O 	O 	0.41980 0.53190 0.10300 -0.28400
O 	O 	0.47490 0.72790 0.20800 -0.33200
O 	O 	0.58340 0.85930 0.22450 -0.37700
O 	O 	0.03610 0.76550 0.80440 -0.35800
O 	O 	0.14840 0.85920 0.78340 -0.36900
O 	O 	0.40700 0.36120 0.64070 -0.36700
O 	O 	0.44390 0.24930 0.55580 -0.37300
O 	O 	0.79800 0.74120 0.67570 -0.36600
O 	O 	0.81610 0.62460 0.57220 -0.36800
O 	O 	0.02360 0.02530 0.23380 -0.36900
O 	O 	0.18670 0.10830 0.42150 -0.50000
O 	O 	0.11380 0.91900 0.31500 -0.40100
O 	O 	0.71250 0.09670 0.46120 -0.41800
O 	O 	0.63530 0.95530 0.46080 -0.41700
O 	O 	0.27920 0.27770 0.74980 -0.37200
O 	O 	0.17530 0.25600 0.56240 -0.49600
O 	O 	0.09690 0.29260 0.67720 -0.40200
O 	O 	0.13040 0.74320 0.53110 -0.41600
O 	O 	0.99660 0.67810 0.54950 -0.40700
O 	O 	0.94290 0.08890 0.40260 -0.48400
O 	O 	0.95310 0.91970 0.37120 -0.42600
O 	O 	0.81780 0.96090 0.40720 -0.48100
O 	O 	0.72340 0.49280 0.88830 -0.47800
O 	O 	0.58020 0.46810 0.89700 -0.28400
O 	O 	0.52510 0.27210 0.79200 -0.33200
O 	O 	0.41660 0.14070 0.77550 -0.37700
O 	O 	0.96390 0.23450 0.19560 -0.35800
O 	O 	0.85160 0.14080 0.21660 -0.36900
O 	O 	0.59300 0.63880 0.35930 -0.36700
O 	O 	0.55610 0.75070 0.44420 -0.37300
O 	O 	0.20200 0.25880 0.32430 -0.36600
O 	O 	0.18390 0.37540 0.42780 -0.36800
