data_crystal

_cell_length_a 15.12200
_cell_length_b 15.16700
_cell_length_c 15.24200
_cell_angle_alpha 106.19900
_cell_angle_beta  103.35000
_cell_angle_gamma 116.99000

_symmetry_space_group_name_	'P 1'
_symmetry_space_group_name_H-M	'P 1'

loop_
_symmetry_equiv_pos_as_xyz
  x,y,z

loop_
_atom_site_label
_atom_site_type_symbol
_atom_site_fract_x
_atom_site_fract_y
_atom_site_fract_z
_atom_site_charge
Pr	Pr	0.81893 0.11428 0.68211 2.08300
Pr	Pr	0.55711 0.86584 0.69764 2.07900
Pr	Pr	0.41521 0.06337 0.64476 2.05700
Pr	Pr	0.18107 0.88572 0.31789 2.08200
Pr	Pr	0.44289 0.13416 0.30236 2.07800
Pr	Pr	0.58479 0.93663 0.35524 2.05700
P 	P 	0.61670 0.14240 0.52360 0.49400
P 	P 	0.69490 0.17420 0.80370 0.44900
P 	P 	0.62530 0.80840 0.51850 0.46300
P 	P 	0.38330 0.85760 0.47640 0.49400
P 	P 	0.30510 0.82580 0.19630 0.44900
P 	P 	0.37470 0.19160 0.48150 0.46300
H 	H 	0.79910 0.62690 0.06530 0.26100
H 	H 	0.75130 0.31910 0.71110 0.13100
H 	H 	0.65830 0.09670 0.93920 0.12200
H 	H 	0.83940 0.89180 0.55580 0.12000
H 	H 	0.67310 0.31450 0.52840 0.11800
H 	H 	0.77340 0.30430 0.55690 0.12700
H 	H 	0.84610 0.51240 0.69410 0.04900
H 	H 	0.90630 0.45290 0.70910 0.05400
H 	H 	0.96570 0.59490 0.86540 0.05900
H 	H 	0.90410 0.47990 0.86680 0.08300
H 	H 	0.80480 0.59730 0.84010 0.08100
H 	H 	0.64120 0.45150 0.81690 0.06200
H 	H 	0.69400 0.38610 0.83490 0.06500
H 	H 	0.58920 0.31470 0.65990 0.04800
H 	H 	0.66220 0.43230 0.66670 0.06300
H 	H 	0.83740 0.22170 0.94790 0.12200
H 	H 	0.80180 0.30360 0.97270 0.11700
H 	H 	0.71800 0.29320 0.08090 0.05800
H 	H 	0.61390 0.22300 0.97870 0.05200
H 	H 	0.56570 0.19350 0.10740 0.04800
H 	H 	0.52980 0.08270 0.02440 0.05800
H 	H 	0.71410 0.20630 0.20620 0.09400
H 	H 	0.76620 0.08820 0.16320 0.04500
H 	H 	0.66280 0.01270 0.06070 0.05600
H 	H 	0.80990 0.11630 0.03220 0.06800
H 	H 	0.83750 0.22500 0.11190 0.05700
H 	H 	0.67030 0.68070 0.48640 0.11700
H 	H 	0.71890 0.74710 0.60250 0.11700
H 	H 	0.88760 0.75460 0.60020 0.05400
H 	H 	0.90460 0.85440 0.68320 0.06100
H 	H 	0.07140 0.89760 0.67190 0.05100
H 	H 	0.03620 0.97170 0.64180 0.06400
H 	H 	0.00550 0.78590 0.50490 0.09100
H 	H 	0.92350 0.81150 0.37380 0.04800
H 	H 	0.94200 0.91720 0.44970 0.06000
H 	H 	0.76230 0.77310 0.39020 0.05000
H 	H 	0.80070 0.70300 0.42430 0.05700
H 	H 	0.00020 0.16550 0.02910 0.04700
H 	H 	0.12880 0.17500 0.15780 0.04200
H 	H 	0.24060 0.06970 0.96160 0.04400
H 	H 	0.06180 0.00520 0.87820 0.04700
H 	H 	0.01190 0.41060 0.58310 0.04400
H 	H 	0.15770 0.55020 0.57250 0.04600
H 	H 	0.36940 0.57840 0.81790 0.05000
H 	H 	0.21690 0.44400 0.82890 0.04400
H 	H 	0.20090 0.37310 0.93470 0.26100
H 	H 	0.24870 0.68090 0.28890 0.13100
H 	H 	0.34170 0.90330 0.06080 0.12200
H 	H 	0.16060 0.10820 0.44420 0.12000
H 	H 	0.32690 0.68550 0.47160 0.11800
H 	H 	0.22660 0.69570 0.44310 0.12700
H 	H 	0.15390 0.48760 0.30590 0.04900
H 	H 	0.09370 0.54710 0.29090 0.05400
H 	H 	0.03430 0.40510 0.13460 0.05900
H 	H 	0.09590 0.52010 0.13320 0.08300
H 	H 	0.19520 0.40270 0.15990 0.08100
H 	H 	0.35880 0.54850 0.18310 0.06200
H 	H 	0.30600 0.61390 0.16510 0.06500
H 	H 	0.41080 0.68530 0.34010 0.04800
H 	H 	0.33780 0.56770 0.33330 0.06300
H 	H 	0.16260 0.77830 0.05210 0.12200
H 	H 	0.19820 0.69640 0.02730 0.11700
H 	H 	0.28200 0.70680 0.91910 0.05800
H 	H 	0.38610 0.77700 0.02130 0.05200
H 	H 	0.43430 0.80650 0.89260 0.04800
H 	H 	0.47020 0.91730 0.97560 0.05800
H 	H 	0.28590 0.79370 0.79380 0.09400
H 	H 	0.23380 0.91180 0.83680 0.04500
H 	H 	0.33720 0.98730 0.93930 0.05600
H 	H 	0.19010 0.88370 0.96780 0.06800
H 	H 	0.16250 0.77500 0.88810 0.05700
H 	H 	0.32970 0.31930 0.51360 0.11700
H 	H 	0.28110 0.25290 0.39750 0.11700
H 	H 	0.11240 0.24540 0.39980 0.05400
H 	H 	0.09540 0.14560 0.31680 0.06100
H 	H 	0.92860 0.10240 0.32810 0.05100
H 	H 	0.96380 0.02830 0.35820 0.06400
H 	H 	0.99450 0.21410 0.49510 0.09100
H 	H 	0.07650 0.18850 0.62620 0.04800
H 	H 	0.05800 0.08280 0.55030 0.06000
H 	H 	0.23770 0.22690 0.60980 0.05000
H 	H 	0.19930 0.29700 0.57570 0.05700
H 	H 	0.99980 0.83450 0.97090 0.04700
H 	H 	0.87120 0.82500 0.84220 0.04200
H 	H 	0.75940 0.93030 0.03840 0.04400
H 	H 	0.93820 0.99480 0.12180 0.04700
H 	H 	0.98810 0.58940 0.41690 0.04400
H 	H 	0.84230 0.44980 0.42750 0.04600
H 	H 	0.63060 0.42160 0.18210 0.05000
H 	H 	0.78310 0.55600 0.17110 0.04400
C 	C 	0.70850 0.28980 0.56780 -0.26200
C 	C 	0.85320 0.46560 0.72380 -0.05100
C 	C 	0.89530 0.52590 0.83690 -0.09700
C 	C 	0.80700 0.54430 0.86290 -0.12100
C 	C 	0.69440 0.43620 0.80660 -0.08300
C 	C 	0.66200 0.38170 0.69430 -0.06000
C 	C 	0.84200 0.58900 0.97600 0.37400
C 	C 	0.77470 0.22700 0.93920 -0.23500
C 	C 	0.66050 0.21910 0.03130 -0.06600
C 	C 	0.59270 0.15330 0.07580 -0.05100
C 	C 	0.65790 0.13470 0.15180 -0.17500
C 	C 	0.71650 0.08810 0.10960 -0.04300
C 	C 	0.77820 0.15190 0.06170 -0.07500
C 	C 	0.59130 0.06760 0.19530 0.39300
C 	C 	0.70940 0.75360 0.53990 -0.24500
C 	C 	0.90500 0.82840 0.61830 -0.07000
C 	C 	0.01740 0.89730 0.62230 -0.05400
C 	C 	0.01970 0.85840 0.52050 -0.16300
C 	C 	0.92630 0.84490 0.43870 -0.06400
C 	C 	0.81900 0.77680 0.44000 -0.06200
C 	C 	0.13030 0.93260 0.52280 0.40000
C 	C 	0.95490 0.09710 0.83390 0.32000
C 	C 	0.04110 0.10880 0.92020 -0.05800
C 	C 	0.04770 0.14260 0.01620 -0.02300
C 	C 	0.12500 0.15150 0.09080 -0.01300
C 	C 	0.19650 0.12040 0.07150 -0.06900
C 	C 	0.19120 0.08990 0.97420 -0.02200
C 	C 	0.11220 0.08080 0.89390 -0.02400
C 	C 	0.27710 0.12310 0.14890 0.32100
C 	C 	0.00850 0.32290 0.70780 0.28900
C 	C 	0.10280 0.41570 0.70490 -0.06500
C 	C 	0.08580 0.44760 0.63310 -0.02200
C 	C 	0.16930 0.52710 0.62510 -0.02600
C 	C 	0.27670 0.58020 0.69570 -0.06500
C 	C 	0.29570 0.54420 0.76880 -0.02700
C 	C 	0.20660 0.46310 0.77330 -0.02100
C 	C 	0.37030 0.66850 0.68940 0.30100
C 	C 	0.29150 0.71020 0.43220 -0.26200
C 	C 	0.14680 0.53440 0.27620 -0.05100
C 	C 	0.10470 0.47410 0.16310 -0.09700
C 	C 	0.19300 0.45570 0.13710 -0.12100
C 	C 	0.30560 0.56380 0.19340 -0.08300
C 	C 	0.33800 0.61830 0.30570 -0.06000
C 	C 	0.15800 0.41100 0.02400 0.37400
C 	C 	0.22530 0.77300 0.06080 -0.23500
C 	C 	0.33950 0.78090 0.96870 -0.06600
C 	C 	0.40730 0.84670 0.92420 -0.05100
C 	C 	0.34210 0.86530 0.84820 -0.17500
C 	C 	0.28350 0.91190 0.89040 -0.04300
C 	C 	0.22180 0.84810 0.93830 -0.07500
C 	C 	0.40870 0.93240 0.80470 0.39300
C 	C 	0.29060 0.24640 0.46010 -0.24500
C 	C 	0.09500 0.17160 0.38170 -0.07000
C 	C 	0.98260 0.10270 0.37770 -0.05400
C 	C 	0.98030 0.14160 0.47950 -0.16300
C 	C 	0.07370 0.15510 0.56130 -0.06400
C 	C 	0.18100 0.22320 0.56000 -0.06200
C 	C 	0.86970 0.06740 0.47720 0.40000
C 	C 	0.04510 0.90290 0.16610 0.32000
C 	C 	0.95890 0.89120 0.07980 -0.05800
C 	C 	0.95230 0.85740 0.98380 -0.02300
C 	C 	0.87500 0.84850 0.90920 -0.01300
C 	C 	0.80350 0.87960 0.92850 -0.06900
C 	C 	0.80880 0.91010 0.02580 -0.02200
C 	C 	0.88780 0.91920 0.10610 -0.02400
C 	C 	0.72290 0.87690 0.85110 0.32100
C 	C 	0.99150 0.67710 0.29220 0.28900
C 	C 	0.89720 0.58430 0.29510 -0.06500
C 	C 	0.91420 0.55240 0.36690 -0.02200
C 	C 	0.83070 0.47290 0.37490 -0.02600
C 	C 	0.72330 0.41980 0.30430 -0.06500
C 	C 	0.70430 0.45580 0.23120 -0.02700
C 	C 	0.79340 0.53690 0.22670 -0.02100
C 	C 	0.62970 0.33150 0.31060 0.30100
N 	N 	0.74530 0.35860 0.67730 -0.12500
N 	N 	0.71270 0.16540 0.98680 -0.12300
N 	N 	0.82210 0.82250 0.54090 -0.12300
N 	N 	0.25470 0.64140 0.32270 -0.12500
N 	N 	0.28730 0.83460 0.01320 -0.12300
N 	N 	0.17790 0.17750 0.45910 -0.12300
O 	O 	0.55820 0.09830 0.41130 -0.58900
O 	O 	0.54520 0.12630 0.57980 -0.50000
O 	O 	0.68250 0.09140 0.53750 -0.59000
O 	O 	0.92660 0.60760 0.03380 -0.27300
O 	O 	0.77400 0.60300 0.00140 -0.46100
O 	O 	0.77930 0.24850 0.77400 -0.41900
O 	O 	0.67150 0.05790 0.75210 -0.60400
O 	O 	0.59250 0.17430 0.78660 -0.46800
O 	O 	0.49800 0.05000 0.18110 -0.47100
O 	O 	0.62820 0.02640 0.24360 -0.47800
O 	O 	0.61340 0.81630 0.42130 -0.47000
O 	O 	0.68790 0.92230 0.61010 -0.61100
O 	O 	0.52360 0.73580 0.52980 -0.42700
O 	O 	0.21350 0.96190 0.59710 -0.47900
O 	O 	0.13570 0.96040 0.45440 -0.48700
O 	O 	0.91420 0.27460 0.63770 -0.40800
O 	O 	0.02130 0.29080 0.77440 -0.37600
O 	O 	0.35120 0.71760 0.64150 -0.41200
O 	O 	0.46470 0.69430 0.73570 -0.39300
O 	O 	0.94180 0.05320 0.74470 -0.41000
O 	O 	0.90210 0.13580 0.85430 -0.43200
O 	O 	0.30120 0.17940 0.24110 -0.40700
O 	O 	0.31830 0.07250 0.12600 -0.42600
O 	O 	0.44180 0.90170 0.58870 -0.58900
O 	O 	0.45480 0.87370 0.42020 -0.50000
O 	O 	0.31750 0.90860 0.46250 -0.59000
O 	O 	0.07340 0.39240 0.96620 -0.27300
O 	O 	0.22600 0.39700 0.99860 -0.46100
O 	O 	0.22070 0.75150 0.22600 -0.41900
O 	O 	0.32850 0.94210 0.24790 -0.60400
O 	O 	0.40750 0.82570 0.21340 -0.46800
O 	O 	0.50200 0.95000 0.81890 -0.47100
O 	O 	0.37180 0.97360 0.75640 -0.47800
O 	O 	0.38660 0.18370 0.57870 -0.47000
O 	O 	0.31210 0.07770 0.38990 -0.61100
O 	O 	0.47640 0.26420 0.47020 -0.42700
O 	O 	0.78650 0.03810 0.40290 -0.47900
O 	O 	0.86430 0.03960 0.54560 -0.48700
O 	O 	0.08580 0.72540 0.36230 -0.40800
O 	O 	0.97870 0.70920 0.22560 -0.37600
O 	O 	0.64880 0.28240 0.35850 -0.41200
O 	O 	0.53530 0.30570 0.26430 -0.39300
O 	O 	0.05820 0.94680 0.25530 -0.41000
O 	O 	0.09790 0.86420 0.14570 -0.43200
O 	O 	0.69880 0.82060 0.75890 -0.40700
O 	O 	0.68170 0.92750 0.87400 -0.42600
