data_crystal

_cell_length_a 15.12300
_cell_length_b 12.30500
_cell_length_c 19.26400
_cell_angle_alpha 90.00000
_cell_angle_beta  98.62000
_cell_angle_gamma 90.00000

_symmetry_space_group_name_	'P 1'
_symmetry_space_group_name_H-M	'P 1'

loop_
_symmetry_equiv_pos_as_xyz
  x,y,z

loop_
_atom_site_label
_atom_site_type_symbol
_atom_site_fract_x
_atom_site_fract_y
_atom_site_fract_z
_atom_site_charge
Mo	Mo	0.48260 0.39580 0.67660 1.07300
Mo	Mo	0.37640 0.49270 0.57600 1.08900
Mo	Mo	0.25140 0.34170 0.44280 1.10900
Mo	Mo	0.26200 0.13050 0.44390 1.07600
Mo	Mo	0.40000 0.99640 0.57900 1.07900
Mo	Mo	0.49370 0.11100 0.68090 1.09700
Mo	Mo	0.50230 0.39270 0.32200 1.07500
Mo	Mo	0.59350 0.50500 0.41910 1.07900
Mo	Mo	0.73510 0.36920 0.55910 1.08200
Mo	Mo	0.74470 0.15940 0.56100 1.08200
Mo	Mo	0.61490 0.00040 0.42520 1.07700
Mo	Mo	0.51530 0.10310 0.32440 1.10000
P 	P 	0.30500 0.24100 0.61000 0.53900
P 	P 	0.46500 0.24900 0.82300 0.53900
P 	P 	0.16100 0.51400 0.54100 0.51200
P 	P 	0.18300 0.95200 0.54800 0.51700
P 	P 	0.70000 0.26200 0.39400 0.49700
P 	P 	0.53300 0.24200 0.17800 0.53800
P 	P 	0.81000 0.55600 0.45800 0.54400
P 	P 	0.83800 0.97700 0.46200 0.56000
Cd	Cd	0.50000 0.24570 0.50000 1.25800
Cd	Cd	0.50040 0.25100 0.00060 1.23600
O 	O 	0.36400 0.47000 0.67100 -0.44700
O 	O 	0.47900 0.39100 0.57000 -0.58800
O 	O 	0.46400 0.35600 0.78000 -0.35300
O 	O 	0.56000 0.25400 0.68300 -0.47900
O 	O 	0.38600 0.24900 0.66300 -0.41400
O 	O 	0.34400 0.46100 0.46600 -0.47400
O 	O 	0.25500 0.56900 0.56100 -0.37000
O 	O 	0.29700 0.34100 0.56600 -0.42400
O 	O 	0.35000 0.24800 0.44400 -0.62600
O 	O 	0.17100 0.25000 0.46800 -0.47100
O 	O 	0.16100 0.44400 0.47400 -0.38700
O 	O 	0.31000 0.14500 0.56000 -0.43800
O 	O 	0.18400 0.00700 0.47200 -0.39100
O 	O 	0.36100 0.01800 0.47500 -0.50000
O 	O 	0.39100 0.01300 0.68000 -0.43900
O 	O 	0.27800 0.92200 0.58100 -0.36800
O 	O 	0.49200 0.11600 0.57900 -0.62300
O 	O 	0.47400 0.15800 0.77800 -0.39600
O 	O 	0.60300 0.25900 0.34700 -0.40100
O 	O 	0.61000 0.47600 0.32400 -0.46100
O 	O 	0.50800 0.39200 0.42500 -0.61700
O 	O 	0.43000 0.23900 0.32300 -0.46500
O 	O 	0.52100 0.35400 0.21900 -0.36200
O 	O 	0.69600 0.36600 0.44100 -0.40500
O 	O 	0.62600 0.48200 0.53500 -0.44500
O 	O 	0.71400 0.59000 0.43200 -0.38500
O 	O 	0.63700 0.26300 0.55800 -0.60700
O 	O 	0.81700 0.49100 0.52300 -0.37400
O 	O 	0.82600 0.26600 0.54100 -0.45700
O 	O 	0.64600 0.02800 0.53400 -0.46300
O 	O 	0.83200 0.04500 0.52900 -0.36000
O 	O 	0.70400 0.16000 0.44600 -0.40200
O 	O 	0.74800 0.94300 0.43000 -0.37900
O 	O 	0.52400 0.11200 0.42300 -0.64600
O 	O 	0.62200 0.02800 0.32400 -0.46300
O 	O 	0.51200 0.14700 0.22100 -0.39500
O 	O 	0.21400 0.22500 0.64200 -0.16100
O 	O 	0.53100 0.24800 0.89100 -0.35500
O 	O 	0.36300 0.24300 0.83700 -0.17400
O 	O 	0.14000 0.44500 0.60500 -0.18800
O 	O 	0.09400 0.60900 0.52800 -0.36500
O 	O 	0.12100 0.85700 0.54700 -0.34400
O 	O 	0.14300 0.03200 0.59400 -0.19200
O 	O 	0.77400 0.26300 0.35500 -0.17900
O 	O 	0.47400 0.23600 0.11200 -0.40300
O 	O 	0.63400 0.24200 0.16200 -0.17500
O 	O 	0.84200 0.47500 0.39700 -0.14800
O 	O 	0.86700 0.65500 0.46700 -0.32800
O 	O 	0.86600 0.07000 0.40700 -0.14200
O 	O 	0.91600 0.91000 0.46900 -0.31700
Mo	Mo	0.98260 0.60420 0.17660 1.09500
Mo	Mo	0.87640 0.50730 0.07600 1.07800
Mo	Mo	0.75140 0.65830 0.94280 1.12300
Mo	Mo	0.76200 0.86950 0.94390 1.09300
Mo	Mo	0.90000 0.00360 0.07900 1.06600
Mo	Mo	0.99370 0.88900 0.18090 1.12000
Mo	Mo	0.00230 0.60730 0.82200 1.05300
Mo	Mo	0.09350 0.49500 0.91910 1.08700
Mo	Mo	0.23510 0.63080 0.05910 1.06400
Mo	Mo	0.24470 0.84060 0.06100 1.06400
Mo	Mo	0.11490 0.99960 0.92520 1.08400
Mo	Mo	0.01530 0.89690 0.82440 1.07800
P 	P 	0.80500 0.75900 0.11000 0.54100
P 	P 	0.96500 0.75100 0.32300 0.60400
P 	P 	0.66100 0.48600 0.04100 0.46000
P 	P 	0.68300 0.04800 0.04800 0.47300
P 	P 	0.20000 0.73800 0.89400 0.49800
P 	P 	0.03300 0.75800 0.67800 0.46700
P 	P 	0.31000 0.44400 0.95800 0.60100
P 	P 	0.33800 0.02300 0.96200 0.61600
Cd	Cd	-0.00000 0.75430 -0.00000 1.20700
Cd	Cd	0.00040 0.74900 0.50060 1.23400
O 	O 	0.86400 0.53000 0.17100 -0.44200
O 	O 	0.97900 0.60900 0.07000 -0.56400
O 	O 	0.96400 0.64400 0.28000 -0.34100
O 	O 	0.06000 0.74600 0.18300 -0.55400
O 	O 	0.88600 0.75100 0.16300 -0.40800
O 	O 	0.84400 0.53900 0.96600 -0.40900
O 	O 	0.75500 0.43100 0.06100 -0.37800
O 	O 	0.79700 0.65900 0.06600 -0.45400
O 	O 	0.85000 0.75200 0.94400 -0.57700
O 	O 	0.67100 0.75000 0.96800 -0.42600
O 	O 	0.66100 0.55600 0.97400 -0.31400
O 	O 	0.81000 0.85500 0.06000 -0.47000
O 	O 	0.68400 0.99300 0.97200 -0.32900
O 	O 	0.86100 0.98200 0.97500 -0.43500
O 	O 	0.89100 0.98700 0.18000 -0.43200
O 	O 	0.77800 0.07800 0.08100 -0.37200
O 	O 	0.99200 0.88400 0.07900 -0.59300
O 	O 	0.97400 0.84200 0.27800 -0.38400
O 	O 	0.10300 0.74100 0.84700 -0.40700
O 	O 	0.11000 0.52400 0.82400 -0.46600
O 	O 	0.00800 0.60800 0.92500 -0.62800
O 	O 	0.93000 0.76100 0.82300 -0.38900
O 	O 	0.02100 0.64600 0.71900 -0.37500
O 	O 	0.19600 0.63400 0.94100 -0.37300
O 	O 	0.12600 0.51800 0.03500 -0.50700
O 	O 	0.21400 0.41000 0.93200 -0.38000
O 	O 	0.13700 0.73700 0.05800 -0.64500
O 	O 	0.31700 0.50900 0.02300 -0.45300
O 	O 	0.32600 0.73400 0.04100 -0.50200
O 	O 	0.14600 0.97200 0.03400 -0.52600
O 	O 	0.33200 0.95500 0.02900 -0.43200
O 	O 	0.20400 0.84000 0.94600 -0.36900
O 	O 	0.24800 0.05700 0.93000 -0.37200
O 	O 	0.02400 0.88800 0.92300 -0.65800
O 	O 	0.12200 0.97200 0.82400 -0.47000
O 	O 	0.01200 0.85300 0.72100 -0.41200
O 	O 	0.71400 0.77500 0.14200 -0.16400
O 	O 	0.03100 0.75200 0.39100 -0.45600
O 	O 	0.86300 0.75700 0.33700 -0.17600
O 	O 	0.64000 0.55500 0.10500 -0.18000
O 	O 	0.59400 0.39100 0.02800 -0.36300
O 	O 	0.62100 0.14300 0.04700 -0.33900
O 	O 	0.64300 0.96800 0.09400 -0.18900
O 	O 	0.27400 0.73700 0.85500 -0.17900
O 	O 	0.97400 0.76400 0.61200 -0.29400
O 	O 	0.13400 0.75800 0.66200 -0.17400
O 	O 	0.34200 0.52500 0.89700 -0.15400
O 	O 	0.36700 0.34500 0.96700 -0.32800
O 	O 	0.36600 0.93000 0.90700 -0.15100
O 	O 	0.41600 0.09000 0.96900 -0.32500
