data_crystal

_cell_length_a 21.80000
_cell_length_b 21.80000
_cell_length_c 35.40700
_cell_angle_alpha 90.00000
_cell_angle_beta  90.00000
_cell_angle_gamma 90.00000

_symmetry_space_group_name_	'P 1'
_symmetry_space_group_name_H-M	'P 1'

loop_
_symmetry_equiv_pos_as_xyz
  x,y,z

loop_
_atom_site_label
_atom_site_type_symbol
_atom_site_fract_x
_atom_site_fract_y
_atom_site_fract_z
_atom_site_charge
Fe	Fe	0.71909 0.99980 0.90135 1.21600
Fe	Fe	0.65711 0.00270 0.98651 1.22900
Fe	Fe	0.80733 0.99276 0.97681 1.22600
Fe	Fe	0.28091 0.00020 0.40135 1.21600
Fe	Fe	0.34289 0.99730 0.48651 1.22900
Fe	Fe	0.19267 0.00724 0.47681 1.22600
Fe	Fe	0.78091 0.49980 0.34865 1.21600
Fe	Fe	0.84289 0.50270 0.26349 1.22800
Fe	Fe	0.69267 0.49276 0.27319 1.22600
Fe	Fe	0.21909 0.50020 0.84865 1.21600
Fe	Fe	0.15711 0.49730 0.76349 1.22800
Fe	Fe	0.30733 0.50724 0.77319 1.22600
H 	H 	0.56630 0.88530 0.86140 0.02400
H 	H 	0.50330 0.80520 0.84510 0.07200
H 	H 	0.49160 0.75430 0.95370 0.06400
H 	H 	0.55790 0.83590 0.97080 0.03100
H 	H 	0.50360 0.69320 0.84200 0.08800
H 	H 	0.43420 0.62150 0.81870 0.01000
H 	H 	0.32650 0.64530 0.90760 0.01200
H 	H 	0.39260 0.71920 0.93040 0.08000
H 	H 	0.92110 0.14340 0.94740 0.02300
H 	H 	0.97330 0.22790 0.93050 0.06700
H 	H 	0.89160 0.22660 0.83240 0.06200
H 	H 	0.83350 0.13800 0.85020 0.02400
H 	H 	0.04530 0.27070 0.90740 0.06700
H 	H 	0.11630 0.34920 0.88990 0.02100
H 	H 	0.00690 0.38070 0.80060 0.01500
H 	H 	0.94310 0.30280 0.81950 0.07200
H 	H 	0.66070 0.14900 0.06290 0.02200
H 	H 	0.66950 0.21490 0.11330 0.08400
H 	H 	0.85080 0.18840 0.11570 0.07100
H 	H 	0.84250 0.11630 0.06830 0.01800
H 	H 	0.68770 0.22880 0.17670 0.06800
H 	H 	0.68500 0.31560 0.21750 0.04100
H 	H 	0.84650 0.37330 0.17580 0.02600
H 	H 	0.84940 0.29010 0.13540 0.06300
H 	H 	0.43370 0.11470 0.36140 0.02300
H 	H 	0.49670 0.19480 0.34510 0.07100
H 	H 	0.50840 0.24570 0.45370 0.06300
H 	H 	0.44210 0.16410 0.47080 0.03000
H 	H 	0.49640 0.30680 0.34200 0.08700
H 	H 	0.56580 0.37850 0.31870 0.00900
H 	H 	0.67350 0.35470 0.40760 0.01100
H 	H 	0.60740 0.28080 0.43040 0.07900
H 	H 	0.07890 0.85660 0.44740 0.02300
H 	H 	0.02670 0.77210 0.43050 0.06700
H 	H 	0.10840 0.77340 0.33240 0.06200
H 	H 	0.16650 0.86200 0.35020 0.02400
H 	H 	0.95470 0.72930 0.40740 0.06700
H 	H 	0.88370 0.65080 0.38990 0.02100
H 	H 	0.99310 0.61930 0.30060 0.01500
H 	H 	0.05690 0.69720 0.31950 0.07200
H 	H 	0.33930 0.85100 0.56290 0.02200
H 	H 	0.33050 0.78510 0.61330 0.08400
H 	H 	0.14920 0.81160 0.61570 0.07100
H 	H 	0.15750 0.88370 0.56830 0.01800
H 	H 	0.31230 0.77120 0.67670 0.06800
H 	H 	0.31500 0.68440 0.71750 0.04100
H 	H 	0.15350 0.62670 0.67580 0.02600
H 	H 	0.15060 0.70990 0.63540 0.06300
H 	H 	0.93370 0.38530 0.38860 0.02400
H 	H 	0.99670 0.30520 0.40490 0.07000
H 	H 	0.00840 0.25430 0.29630 0.06200
H 	H 	0.94210 0.33590 0.27920 0.03100
H 	H 	0.99640 0.19320 0.40800 0.08900
H 	H 	0.06580 0.12150 0.43130 0.00800
H 	H 	0.17350 0.14530 0.34240 0.01000
H 	H 	0.10740 0.21920 0.31960 0.08000
H 	H 	0.57890 0.64340 0.30260 0.02200
H 	H 	0.52670 0.72790 0.31950 0.06600
H 	H 	0.60840 0.72660 0.41760 0.06200
H 	H 	0.66650 0.63800 0.39980 0.02300
H 	H 	0.45470 0.77070 0.34260 0.06700
H 	H 	0.38370 0.84920 0.36010 0.02100
H 	H 	0.49310 0.88070 0.44940 0.01500
H 	H 	0.55690 0.80280 0.43050 0.07200
H 	H 	0.83930 0.64900 0.18710 0.02200
H 	H 	0.83050 0.71490 0.13670 0.08400
H 	H 	0.64920 0.68840 0.13430 0.07100
H 	H 	0.65750 0.61630 0.18170 0.01800
H 	H 	0.81230 0.72880 0.07330 0.06800
H 	H 	0.81500 0.81560 0.03250 0.04100
H 	H 	0.65350 0.87330 0.07420 0.02600
H 	H 	0.65060 0.79010 0.11460 0.06300
H 	H 	0.06630 0.61470 0.88860 0.02400
H 	H 	0.00330 0.69480 0.90490 0.07000
H 	H 	0.99160 0.74570 0.79630 0.06100
H 	H 	0.05790 0.66410 0.77920 0.03100
H 	H 	0.00360 0.80680 0.90800 0.08900
H 	H 	0.93420 0.87850 0.93130 0.00800
H 	H 	0.82650 0.85470 0.84240 0.01000
H 	H 	0.89260 0.78080 0.81960 0.08000
H 	H 	0.42110 0.35660 0.80260 0.02200
H 	H 	0.47330 0.27210 0.81950 0.06600
H 	H 	0.39160 0.27340 0.91760 0.06200
H 	H 	0.33350 0.36200 0.89980 0.02300
H 	H 	0.54530 0.22930 0.84260 0.06700
H 	H 	0.61630 0.15080 0.86010 0.02100
H 	H 	0.50690 0.11930 0.94940 0.01500
H 	H 	0.44310 0.19720 0.93050 0.07200
H 	H 	0.16070 0.35100 0.68710 0.02200
H 	H 	0.16950 0.28510 0.63670 0.08400
H 	H 	0.35080 0.31160 0.63430 0.07100
H 	H 	0.34250 0.38370 0.68170 0.01800
H 	H 	0.18770 0.27120 0.57330 0.06800
H 	H 	0.18500 0.18440 0.53250 0.04100
H 	H 	0.34650 0.12670 0.57420 0.02600
H 	H 	0.34940 0.20990 0.61460 0.06300
C 	C 	0.61520 0.91530 0.92830 0.38100
C 	C 	0.57210 0.86510 0.91830 -0.12600
C 	C 	0.55250 0.85750 0.88030 0.04500
C 	C 	0.51440 0.81080 0.87080 -0.10200
C 	C 	0.49080 0.77030 0.89840 0.03100
C 	C 	0.50740 0.78040 0.93460 -0.09900
C 	C 	0.54810 0.82920 0.94500 0.04300
C 	C 	0.45200 0.71760 0.88710 0.07500
C 	C 	0.46640 0.68540 0.85500 -0.14500
C 	C 	0.42560 0.64140 0.84200 0.09000
C 	C 	0.37370 0.62540 0.86120 -0.16800
C 	C 	0.36230 0.65520 0.89360 0.09000
C 	C 	0.40130 0.70010 0.90690 -0.14200
C 	C 	0.33010 0.58130 0.84380 0.40600
C 	C 	0.82800 0.08450 0.91690 0.40600
C 	C 	0.86680 0.13590 0.90180 -0.14100
C 	C 	0.91330 0.16080 0.92330 0.06200
C 	C 	0.94830 0.20800 0.91230 -0.11600
C 	C 	0.94940 0.22820 0.87650 0.03900
C 	C 	0.90060 0.20700 0.85570 -0.10300
C 	C 	0.86180 0.15610 0.86730 0.05500
C 	C 	0.99120 0.27540 0.86290 0.06500
C 	C 	0.03940 0.29160 0.88410 -0.12000
C 	C 	0.08300 0.33840 0.87400 0.06000
C 	C 	0.07310 0.36650 0.83960 -0.15500
C 	C 	0.01830 0.35590 0.82160 0.07600
C 	C 	0.97980 0.30990 0.83330 -0.13400
C 	C 	0.11760 0.41510 0.82670 0.45900
C 	C 	0.74260 0.07880 0.03010 0.38600
C 	C 	0.75160 0.12630 0.06080 -0.13600
C 	C 	0.69960 0.15610 0.07410 0.06300
C 	C 	0.70540 0.19590 0.10360 -0.12800
C 	C 	0.75930 0.20930 0.11960 0.06300
C 	C 	0.81170 0.17930 0.10530 -0.12200
C 	C 	0.80710 0.13750 0.07680 0.06300
C 	C 	0.76450 0.25460 0.14870 0.03100
C 	C 	0.71880 0.25920 0.17520 -0.09300
C 	C 	0.71850 0.31040 0.20060 0.03800
C 	C 	0.76660 0.35280 0.20100 -0.13100
C 	C 	0.81360 0.34470 0.17610 0.05000
C 	C 	0.81460 0.29600 0.15120 -0.10000
C 	C 	0.76440 0.40730 0.22540 0.39800
C 	C 	0.38480 0.08470 0.42830 0.38100
C 	C 	0.42790 0.13490 0.41830 -0.12600
C 	C 	0.44750 0.14250 0.38030 0.04500
C 	C 	0.48560 0.18920 0.37080 -0.10200
C 	C 	0.50920 0.22970 0.39840 0.03100
C 	C 	0.49260 0.21960 0.43460 -0.09900
C 	C 	0.45190 0.17080 0.44500 0.04300
C 	C 	0.54800 0.28240 0.38710 0.07500
C 	C 	0.53360 0.31460 0.35500 -0.14500
C 	C 	0.57440 0.35860 0.34200 0.09000
C 	C 	0.62630 0.37460 0.36120 -0.16800
C 	C 	0.63770 0.34480 0.39360 0.09000
C 	C 	0.59870 0.29990 0.40690 -0.14200
C 	C 	0.66990 0.41870 0.34380 0.40600
C 	C 	0.17200 0.91550 0.41690 0.40600
C 	C 	0.13320 0.86410 0.40180 -0.14100
C 	C 	0.08670 0.83920 0.42330 0.06200
C 	C 	0.05170 0.79200 0.41230 -0.11600
C 	C 	0.05060 0.77180 0.37650 0.03900
C 	C 	0.09940 0.79300 0.35570 -0.10300
C 	C 	0.13820 0.84390 0.36730 0.05500
C 	C 	0.00880 0.72460 0.36290 0.06500
C 	C 	0.96060 0.70840 0.38410 -0.12000
C 	C 	0.91700 0.66160 0.37400 0.06000
C 	C 	0.92690 0.63350 0.33960 -0.15500
C 	C 	0.98170 0.64410 0.32160 0.07600
C 	C 	0.02020 0.69010 0.33330 -0.13400
C 	C 	0.88240 0.58490 0.32670 0.45900
C 	C 	0.25740 0.92120 0.53010 0.38600
C 	C 	0.24840 0.87370 0.56080 -0.13600
C 	C 	0.30040 0.84390 0.57410 0.06300
C 	C 	0.29460 0.80410 0.60360 -0.12800
C 	C 	0.24070 0.79070 0.61960 0.06300
C 	C 	0.18830 0.82070 0.60530 -0.12200
C 	C 	0.19290 0.86250 0.57680 0.06300
C 	C 	0.23550 0.74540 0.64870 0.03100
C 	C 	0.28120 0.74080 0.67520 -0.09300
C 	C 	0.28150 0.68960 0.70060 0.03800
C 	C 	0.23340 0.64720 0.70100 -0.13100
C 	C 	0.18640 0.65530 0.67610 0.05000
C 	C 	0.18540 0.70400 0.65120 -0.10000
C 	C 	0.23560 0.59270 0.72540 0.39800
C 	C 	0.88480 0.41530 0.32170 0.38000
C 	C 	0.92790 0.36510 0.33170 -0.12400
C 	C 	0.94750 0.35750 0.36970 0.04200
C 	C 	0.98560 0.31080 0.37920 -0.09800
C 	C 	0.00920 0.27030 0.35160 0.02700
C 	C 	0.99260 0.28040 0.31540 -0.09400
C 	C 	0.95190 0.32920 0.30500 0.04100
C 	C 	0.04800 0.21760 0.36290 0.07800
C 	C 	0.03360 0.18540 0.39500 -0.14800
C 	C 	0.07440 0.14140 0.40800 0.09200
C 	C 	0.12630 0.12540 0.38880 -0.17000
C 	C 	0.13770 0.15520 0.35640 0.09200
C 	C 	0.09870 0.20010 0.34310 -0.14500
C 	C 	0.16990 0.08130 0.40620 0.40700
C 	C 	0.67200 0.58450 0.33310 0.40600
C 	C 	0.63320 0.63590 0.34820 -0.14100
C 	C 	0.58670 0.66080 0.32670 0.06200
C 	C 	0.55170 0.70800 0.33770 -0.11700
C 	C 	0.55060 0.72820 0.37350 0.03900
C 	C 	0.59940 0.70700 0.39430 -0.10300
C 	C 	0.63820 0.65610 0.38270 0.05500
C 	C 	0.50880 0.77540 0.38710 0.06400
C 	C 	0.46060 0.79160 0.36590 -0.11800
C 	C 	0.41700 0.83840 0.37600 0.05900
C 	C 	0.42690 0.86650 0.41040 -0.15500
C 	C 	0.48170 0.85590 0.42840 0.07600
C 	C 	0.52020 0.80990 0.41670 -0.13400
C 	C 	0.38240 0.91510 0.42330 0.45900
C 	C 	0.75740 0.57880 0.21990 0.38600
C 	C 	0.74840 0.62630 0.18920 -0.13600
C 	C 	0.80040 0.65610 0.17590 0.06300
C 	C 	0.79460 0.69590 0.14640 -0.12800
C 	C 	0.74070 0.70930 0.13040 0.06300
C 	C 	0.68830 0.67930 0.14470 -0.12200
C 	C 	0.69290 0.63750 0.17320 0.06300
C 	C 	0.73550 0.75460 0.10130 0.03100
C 	C 	0.78120 0.75920 0.07480 -0.09300
C 	C 	0.78150 0.81040 0.04940 0.03800
C 	C 	0.73340 0.85280 0.04900 -0.13100
C 	C 	0.68640 0.84470 0.07390 0.05000
C 	C 	0.68540 0.79600 0.09880 -0.10000
C 	C 	0.73560 0.90730 0.02460 0.39800
C 	C 	0.11520 0.58470 0.82170 0.38000
C 	C 	0.07210 0.63490 0.83170 -0.12400
C 	C 	0.05250 0.64250 0.86970 0.04200
C 	C 	0.01440 0.68920 0.87920 -0.09800
C 	C 	0.99080 0.72970 0.85160 0.02700
C 	C 	0.00740 0.71960 0.81540 -0.09400
C 	C 	0.04810 0.67080 0.80500 0.04000
C 	C 	0.95200 0.78240 0.86290 0.07800
C 	C 	0.96640 0.81460 0.89500 -0.14900
C 	C 	0.92560 0.85860 0.90800 0.09300
C 	C 	0.87370 0.87460 0.88880 -0.17000
C 	C 	0.86230 0.84480 0.85640 0.09200
C 	C 	0.90130 0.79990 0.84310 -0.14500
C 	C 	0.83010 0.91870 0.90620 0.40700
C 	C 	0.32800 0.41550 0.83310 0.40600
C 	C 	0.36680 0.36410 0.84820 -0.14100
C 	C 	0.41330 0.33920 0.82670 0.06200
C 	C 	0.44830 0.29200 0.83770 -0.11700
C 	C 	0.44940 0.27180 0.87350 0.03900
C 	C 	0.40060 0.29300 0.89430 -0.10300
C 	C 	0.36180 0.34390 0.88270 0.05500
C 	C 	0.49120 0.22460 0.88710 0.06400
C 	C 	0.53940 0.20840 0.86590 -0.11800
C 	C 	0.58300 0.16160 0.87600 0.05900
C 	C 	0.57310 0.13350 0.91040 -0.15500
C 	C 	0.51830 0.14410 0.92840 0.07600
C 	C 	0.47980 0.19010 0.91670 -0.13400
C 	C 	0.61760 0.08490 0.92330 0.45900
C 	C 	0.24260 0.42120 0.71990 0.38600
C 	C 	0.25160 0.37370 0.68920 -0.13600
C 	C 	0.19960 0.34390 0.67590 0.06300
C 	C 	0.20540 0.30410 0.64640 -0.12800
C 	C 	0.25930 0.29070 0.63040 0.06300
C 	C 	0.31170 0.32070 0.64470 -0.12200
C 	C 	0.30710 0.36250 0.67320 0.06300
C 	C 	0.26450 0.24540 0.60130 0.03100
C 	C 	0.21880 0.24080 0.57480 -0.09300
C 	C 	0.21850 0.18960 0.54940 0.03800
C 	C 	0.26660 0.14720 0.54900 -0.13100
C 	C 	0.31360 0.15530 0.57390 0.05000
C 	C 	0.31460 0.20400 0.59880 -0.10000
C 	C 	0.26440 0.09270 0.52460 0.39800
O 	O 	0.64760 0.93910 0.90240 -0.43500
O 	O 	0.61470 0.93140 0.96270 -0.43500
O 	O 	0.34420 0.55910 0.81280 -0.46300
O 	O 	0.27900 0.56880 0.86100 -0.43500
O 	O 	0.83840 0.06780 0.94980 -0.44300
O 	O 	0.78890 0.06250 0.89450 -0.43600
O 	O 	0.10780 0.43670 0.79530 -0.46200
O 	O 	0.15720 0.43010 0.84880 -0.47000
O 	O 	0.79040 0.04870 0.02040 -0.44000
O 	O 	0.68990 0.07280 0.01660 -0.44300
O 	O 	0.81030 0.44200 0.22510 -0.44400
O 	O 	0.71600 0.41590 0.24390 -0.43700
O 	O 	0.72680 0.99770 0.95514 -0.65600
O 	O 	0.35240 0.06090 0.40240 -0.43500
O 	O 	0.38530 0.06860 0.46270 -0.43500
O 	O 	0.65580 0.44090 0.31280 -0.46300
O 	O 	0.72100 0.43120 0.36100 -0.43500
O 	O 	0.16160 0.93220 0.44980 -0.44300
O 	O 	0.21110 0.93750 0.39450 -0.43600
O 	O 	0.89220 0.56330 0.29530 -0.46200
O 	O 	0.84280 0.56990 0.34880 -0.47000
O 	O 	0.20960 0.95130 0.52040 -0.44000
O 	O 	0.31010 0.92720 0.51660 -0.44300
O 	O 	0.18970 0.55800 0.72510 -0.44400
O 	O 	0.28400 0.58410 0.74390 -0.43700
O 	O 	0.27320 0.00230 0.45514 -0.65600
O 	O 	0.85240 0.43910 0.34760 -0.43500
O 	O 	0.88530 0.43140 0.28730 -0.43500
O 	O 	0.15580 0.05910 0.43720 -0.46300
O 	O 	0.22100 0.06880 0.38900 -0.43500
O 	O 	0.66160 0.56780 0.30020 -0.44300
O 	O 	0.71110 0.56250 0.35550 -0.43600
O 	O 	0.39220 0.93670 0.45470 -0.46200
O 	O 	0.34280 0.93010 0.40120 -0.47000
O 	O 	0.70960 0.54870 0.22960 -0.44100
O 	O 	0.81010 0.57280 0.23340 -0.44300
O 	O 	0.68970 0.94200 0.02490 -0.44400
O 	O 	0.78400 0.91590 0.00610 -0.43700
O 	O 	0.77320 0.49770 0.29486 -0.65600
O 	O 	0.14760 0.56090 0.84760 -0.43500
O 	O 	0.11470 0.56860 0.78730 -0.43500
O 	O 	0.84420 0.94090 0.93720 -0.46300
O 	O 	0.77900 0.93120 0.88900 -0.43500
O 	O 	0.33840 0.43220 0.80020 -0.44300
O 	O 	0.28890 0.43750 0.85550 -0.43600
O 	O 	0.60780 0.06330 0.95470 -0.46200
O 	O 	0.65720 0.06990 0.90120 -0.47000
O 	O 	0.29040 0.45130 0.72960 -0.44100
O 	O 	0.18990 0.42720 0.73340 -0.44300
O 	O 	0.31030 0.05800 0.52490 -0.44400
O 	O 	0.21600 0.08410 0.50610 -0.43700
O 	O 	0.22680 0.50230 0.79486 -0.65600
Fe	Fe	0.50020 0.21909 0.15135 1.21500
Fe	Fe	0.49730 0.15711 0.23651 1.22700
Fe	Fe	0.50724 0.30733 0.22681 1.22500
Fe	Fe	0.49980 0.78091 0.65135 1.21500
Fe	Fe	0.50270 0.84289 0.73651 1.22700
Fe	Fe	0.49276 0.69267 0.72681 1.22500
Fe	Fe	0.99980 0.71909 0.09865 1.21500
Fe	Fe	0.00270 0.65711 0.01349 1.22800
Fe	Fe	0.99276 0.80733 0.02319 1.22500
Fe	Fe	0.00020 0.28091 0.59865 1.21500
Fe	Fe	0.99730 0.34289 0.51349 1.22800
Fe	Fe	0.00724 0.19267 0.52319 1.22500
H 	H 	0.61470 0.06630 0.11140 0.02400
H 	H 	0.69480 0.00330 0.09510 0.07000
H 	H 	0.74570 0.99160 0.20370 0.06100
H 	H 	0.66410 0.05790 0.22080 0.03100
H 	H 	0.80680 0.00360 0.09200 0.08900
H 	H 	0.87850 0.93420 0.06870 0.00800
H 	H 	0.85470 0.82650 0.15760 0.01000
H 	H 	0.78080 0.89260 0.18040 0.08000
H 	H 	0.35660 0.42110 0.19740 0.02200
H 	H 	0.27210 0.47330 0.18050 0.06600
H 	H 	0.27340 0.39160 0.08240 0.06200
H 	H 	0.36200 0.33350 0.10020 0.02300
H 	H 	0.22930 0.54530 0.15740 0.06700
H 	H 	0.15080 0.61630 0.13990 0.02100
H 	H 	0.11930 0.50690 0.05060 0.01500
H 	H 	0.19720 0.44310 0.06950 0.07200
H 	H 	0.35100 0.16070 0.31290 0.02200
H 	H 	0.28510 0.16950 0.36330 0.08400
H 	H 	0.31160 0.35080 0.36570 0.07100
H 	H 	0.38370 0.34250 0.31830 0.01800
H 	H 	0.27120 0.18770 0.42670 0.06800
H 	H 	0.18440 0.18500 0.46750 0.04100
H 	H 	0.12670 0.34650 0.42580 0.02600
H 	H 	0.20990 0.34940 0.38540 0.06300
H 	H 	0.38530 0.93370 0.61140 0.02400
H 	H 	0.30520 0.99670 0.59510 0.07000
H 	H 	0.25430 0.00840 0.70370 0.06200
H 	H 	0.33590 0.94210 0.72080 0.03100
H 	H 	0.19320 0.99640 0.59200 0.08900
H 	H 	0.12150 0.06580 0.56870 0.00800
H 	H 	0.14530 0.17350 0.65760 0.01000
H 	H 	0.21920 0.10740 0.68040 0.08000
H 	H 	0.64340 0.57890 0.69740 0.02200
H 	H 	0.72790 0.52670 0.68050 0.06600
H 	H 	0.72660 0.60840 0.58240 0.06200
H 	H 	0.63800 0.66650 0.60020 0.02300
H 	H 	0.77070 0.45470 0.65740 0.06700
H 	H 	0.84920 0.38370 0.63990 0.02100
H 	H 	0.88070 0.49310 0.55060 0.01500
H 	H 	0.80280 0.55690 0.56950 0.07200
H 	H 	0.64900 0.83930 0.81290 0.02200
H 	H 	0.71490 0.83050 0.86330 0.08400
H 	H 	0.68840 0.64920 0.86570 0.07100
H 	H 	0.61630 0.65750 0.81830 0.01800
H 	H 	0.72880 0.81230 0.92670 0.06800
H 	H 	0.81560 0.81500 0.96750 0.04100
H 	H 	0.87330 0.65350 0.92580 0.02600
H 	H 	0.79010 0.65060 0.88540 0.06300
H 	H 	0.88530 0.56630 0.13860 0.02300
H 	H 	0.80520 0.50330 0.15490 0.07100
H 	H 	0.75430 0.49160 0.04630 0.06300
H 	H 	0.83590 0.55790 0.02920 0.03000
H 	H 	0.69320 0.50360 0.15800 0.08700
H 	H 	0.62150 0.43420 0.18130 0.00900
H 	H 	0.64530 0.32650 0.09240 0.01100
H 	H 	0.71920 0.39260 0.06960 0.07900
H 	H 	0.14340 0.92110 0.05260 0.02300
H 	H 	0.22790 0.97330 0.06950 0.06700
H 	H 	0.22660 0.89160 0.16760 0.06200
H 	H 	0.13800 0.83350 0.14980 0.02400
H 	H 	0.27070 0.04530 0.09260 0.06700
H 	H 	0.34920 0.11630 0.11010 0.02100
H 	H 	0.38070 0.00690 0.19940 0.01500
H 	H 	0.30280 0.94310 0.18050 0.07200
H 	H 	0.14900 0.66070 0.93710 0.02200
H 	H 	0.21490 0.66950 0.88670 0.08400
H 	H 	0.18840 0.85080 0.88430 0.07100
H 	H 	0.11630 0.84250 0.93170 0.01800
H 	H 	0.22880 0.68770 0.82330 0.06800
H 	H 	0.31560 0.68500 0.78250 0.04100
H 	H 	0.37330 0.84650 0.82420 0.02600
H 	H 	0.29010 0.84940 0.86460 0.06300
H 	H 	0.11470 0.43370 0.63860 0.02300
H 	H 	0.19480 0.49670 0.65490 0.07100
H 	H 	0.24570 0.50840 0.54630 0.06300
H 	H 	0.16410 0.44210 0.52920 0.03000
H 	H 	0.30680 0.49640 0.65800 0.08700
H 	H 	0.37850 0.56580 0.68130 0.00900
H 	H 	0.35470 0.67350 0.59240 0.01100
H 	H 	0.28080 0.60740 0.56960 0.07900
H 	H 	0.85660 0.07890 0.55260 0.02300
H 	H 	0.77210 0.02670 0.56950 0.06700
H 	H 	0.77340 0.10840 0.66760 0.06200
H 	H 	0.86200 0.16650 0.64980 0.02400
H 	H 	0.72930 0.95470 0.59260 0.06700
H 	H 	0.65080 0.88370 0.61010 0.02100
H 	H 	0.61930 0.99310 0.69940 0.01500
H 	H 	0.69720 0.05690 0.68050 0.07200
H 	H 	0.85100 0.33930 0.43710 0.02200
H 	H 	0.78510 0.33050 0.38670 0.08400
H 	H 	0.81160 0.14920 0.38430 0.07100
H 	H 	0.88370 0.15750 0.43170 0.01800
H 	H 	0.77120 0.31230 0.32330 0.06800
H 	H 	0.68440 0.31500 0.28250 0.04100
H 	H 	0.62670 0.15350 0.32420 0.02600
H 	H 	0.70990 0.15060 0.36460 0.06300
C 	C 	0.58470 0.11520 0.17830 0.38000
C 	C 	0.63490 0.07210 0.16830 -0.12400
C 	C 	0.64250 0.05250 0.13030 0.04200
C 	C 	0.68920 0.01440 0.12080 -0.09800
C 	C 	0.72970 0.99080 0.14840 0.02700
C 	C 	0.71960 0.00740 0.18460 -0.09400
C 	C 	0.67080 0.04810 0.19500 0.04000
C 	C 	0.78240 0.95200 0.13710 0.07800
C 	C 	0.81460 0.96640 0.10500 -0.14900
C 	C 	0.85860 0.92560 0.09200 0.09300
C 	C 	0.87460 0.87370 0.11120 -0.17000
C 	C 	0.84480 0.86230 0.14360 0.09200
C 	C 	0.79990 0.90130 0.15690 -0.14500
C 	C 	0.91870 0.83010 0.09380 0.40700
C 	C 	0.41550 0.32800 0.16690 0.40600
C 	C 	0.36410 0.36680 0.15180 -0.14100
C 	C 	0.33920 0.41330 0.17330 0.06200
C 	C 	0.29200 0.44830 0.16230 -0.11700
C 	C 	0.27180 0.44940 0.12650 0.03900
C 	C 	0.29300 0.40060 0.10570 -0.10300
C 	C 	0.34390 0.36180 0.11730 0.05500
C 	C 	0.22460 0.49120 0.11290 0.06400
C 	C 	0.20840 0.53940 0.13410 -0.11800
C 	C 	0.16160 0.58300 0.12400 0.05900
C 	C 	0.13350 0.57310 0.08960 -0.15500
C 	C 	0.14410 0.51830 0.07160 0.07600
C 	C 	0.19010 0.47980 0.08330 -0.13400
C 	C 	0.08490 0.61760 0.07670 0.45900
C 	C 	0.42120 0.24260 0.28010 0.38600
C 	C 	0.37370 0.25160 0.31080 -0.13600
C 	C 	0.34390 0.19960 0.32410 0.06300
C 	C 	0.30410 0.20540 0.35360 -0.12800
C 	C 	0.29070 0.25930 0.36960 0.06300
C 	C 	0.32070 0.31170 0.35530 -0.12200
C 	C 	0.36250 0.30710 0.32680 0.06300
C 	C 	0.24540 0.26450 0.39870 0.03100
C 	C 	0.24080 0.21880 0.42520 -0.09300
C 	C 	0.18960 0.21850 0.45060 0.03800
C 	C 	0.14720 0.26660 0.45100 -0.13100
C 	C 	0.15530 0.31360 0.42610 0.05000
C 	C 	0.20400 0.31460 0.40120 -0.10000
C 	C 	0.09270 0.26440 0.47540 0.39800
C 	C 	0.41530 0.88480 0.67830 0.38000
C 	C 	0.36510 0.92790 0.66830 -0.12400
C 	C 	0.35750 0.94750 0.63030 0.04200
C 	C 	0.31080 0.98560 0.62080 -0.09800
C 	C 	0.27030 0.00920 0.64840 0.02700
C 	C 	0.28040 0.99260 0.68460 -0.09400
C 	C 	0.32920 0.95190 0.69500 0.04100
C 	C 	0.21760 0.04800 0.63710 0.07800
C 	C 	0.18540 0.03360 0.60500 -0.14800
C 	C 	0.14140 0.07440 0.59200 0.09200
C 	C 	0.12540 0.12630 0.61120 -0.17000
C 	C 	0.15520 0.13770 0.64360 0.09200
C 	C 	0.20010 0.09870 0.65690 -0.14500
C 	C 	0.08130 0.16990 0.59380 0.40700
C 	C 	0.58450 0.67200 0.66690 0.40600
C 	C 	0.63590 0.63320 0.65180 -0.14100
C 	C 	0.66080 0.58670 0.67330 0.06200
C 	C 	0.70800 0.55170 0.66230 -0.11700
C 	C 	0.72820 0.55060 0.62650 0.03900
C 	C 	0.70700 0.59940 0.60570 -0.10300
C 	C 	0.65610 0.63820 0.61730 0.05500
C 	C 	0.77540 0.50880 0.61290 0.06400
C 	C 	0.79160 0.46060 0.63410 -0.11800
C 	C 	0.83840 0.41700 0.62400 0.05900
C 	C 	0.86650 0.42690 0.58960 -0.15500
C 	C 	0.85590 0.48170 0.57160 0.07600
C 	C 	0.80990 0.52020 0.58330 -0.13400
C 	C 	0.91510 0.38240 0.57670 0.45900
C 	C 	0.57880 0.75740 0.78010 0.38600
C 	C 	0.62630 0.74840 0.81080 -0.13600
C 	C 	0.65610 0.80040 0.82410 0.06300
C 	C 	0.69590 0.79460 0.85360 -0.12800
C 	C 	0.70930 0.74070 0.86960 0.06300
C 	C 	0.67930 0.68830 0.85530 -0.12200
C 	C 	0.63750 0.69290 0.82680 0.06300
C 	C 	0.75460 0.73550 0.89870 0.03100
C 	C 	0.75920 0.78120 0.92520 -0.09300
C 	C 	0.81040 0.78150 0.95060 0.03800
C 	C 	0.85280 0.73340 0.95100 -0.13100
C 	C 	0.84470 0.68640 0.92610 0.05000
C 	C 	0.79600 0.68540 0.90120 -0.10000
C 	C 	0.90730 0.73560 0.97540 0.39800
C 	C 	0.91530 0.61520 0.07170 0.38100
C 	C 	0.86510 0.57210 0.08170 -0.12600
C 	C 	0.85750 0.55250 0.11970 0.04500
C 	C 	0.81080 0.51440 0.12920 -0.10200
C 	C 	0.77030 0.49080 0.10160 0.03100
C 	C 	0.78040 0.50740 0.06540 -0.09900
C 	C 	0.82920 0.54810 0.05500 0.04300
C 	C 	0.71760 0.45200 0.11290 0.07500
C 	C 	0.68540 0.46640 0.14500 -0.14500
C 	C 	0.64140 0.42560 0.15800 0.09000
C 	C 	0.62540 0.37370 0.13880 -0.16800
C 	C 	0.65520 0.36230 0.10640 0.09000
C 	C 	0.70010 0.40130 0.09310 -0.14200
C 	C 	0.58130 0.33010 0.15620 0.40600
C 	C 	0.08450 0.82800 0.08310 0.40600
C 	C 	0.13590 0.86680 0.09820 -0.14100
C 	C 	0.16080 0.91330 0.07670 0.06200
C 	C 	0.20800 0.94830 0.08770 -0.11600
C 	C 	0.22820 0.94940 0.12350 0.03900
C 	C 	0.20700 0.90060 0.14430 -0.10300
C 	C 	0.15610 0.86180 0.13270 0.05500
C 	C 	0.27540 0.99120 0.13710 0.06500
C 	C 	0.29160 0.03940 0.11590 -0.12000
C 	C 	0.33840 0.08300 0.12600 0.06000
C 	C 	0.36650 0.07310 0.16040 -0.15500
C 	C 	0.35590 0.01830 0.17840 0.07600
C 	C 	0.30990 0.97980 0.16670 -0.13400
C 	C 	0.41510 0.11760 0.17330 0.45900
C 	C 	0.07880 0.74260 0.96990 0.38600
C 	C 	0.12630 0.75160 0.93920 -0.13600
C 	C 	0.15610 0.69960 0.92590 0.06300
C 	C 	0.19590 0.70540 0.89640 -0.12800
C 	C 	0.20930 0.75930 0.88040 0.06300
C 	C 	0.17930 0.81170 0.89470 -0.12200
C 	C 	0.13750 0.80710 0.92320 0.06300
C 	C 	0.25460 0.76450 0.85130 0.03100
C 	C 	0.25920 0.71880 0.82480 -0.09300
C 	C 	0.31040 0.71850 0.79940 0.03800
C 	C 	0.35280 0.76660 0.79900 -0.13100
C 	C 	0.34470 0.81360 0.82390 0.05000
C 	C 	0.29600 0.81460 0.84880 -0.10000
C 	C 	0.40730 0.76440 0.77460 0.39800
C 	C 	0.08470 0.38480 0.57170 0.38100
C 	C 	0.13490 0.42790 0.58170 -0.12600
C 	C 	0.14250 0.44750 0.61970 0.04500
C 	C 	0.18920 0.48560 0.62920 -0.10200
C 	C 	0.22970 0.50920 0.60160 0.03100
C 	C 	0.21960 0.49260 0.56540 -0.09900
C 	C 	0.17080 0.45190 0.55500 0.04300
C 	C 	0.28240 0.54800 0.61290 0.07500
C 	C 	0.31460 0.53360 0.64500 -0.14500
C 	C 	0.35860 0.57440 0.65800 0.09000
C 	C 	0.37460 0.62630 0.63880 -0.16800
C 	C 	0.34480 0.63770 0.60640 0.09000
C 	C 	0.29990 0.59870 0.59310 -0.14200
C 	C 	0.41870 0.66990 0.65620 0.40600
C 	C 	0.91550 0.17200 0.58310 0.40600
C 	C 	0.86410 0.13320 0.59820 -0.14100
C 	C 	0.83920 0.08670 0.57670 0.06200
C 	C 	0.79200 0.05170 0.58770 -0.11600
C 	C 	0.77180 0.05060 0.62350 0.03900
C 	C 	0.79300 0.09940 0.64430 -0.10300
C 	C 	0.84390 0.13820 0.63270 0.05500
C 	C 	0.72460 0.00880 0.63710 0.06500
C 	C 	0.70840 0.96060 0.61590 -0.12000
C 	C 	0.66160 0.91700 0.62600 0.06000
C 	C 	0.63350 0.92690 0.66040 -0.15500
C 	C 	0.64410 0.98170 0.67840 0.07600
C 	C 	0.69010 0.02020 0.66670 -0.13400
C 	C 	0.58490 0.88240 0.67330 0.45900
C 	C 	0.92120 0.25740 0.46990 0.38600
C 	C 	0.87370 0.24840 0.43920 -0.13600
C 	C 	0.84390 0.30040 0.42590 0.06300
C 	C 	0.80410 0.29460 0.39640 -0.12800
C 	C 	0.79070 0.24070 0.38040 0.06300
C 	C 	0.82070 0.18830 0.39470 -0.12200
C 	C 	0.86250 0.19290 0.42320 0.06300
C 	C 	0.74540 0.23550 0.35130 0.03100
C 	C 	0.74080 0.28120 0.32480 -0.09300
C 	C 	0.68960 0.28150 0.29940 0.03800
C 	C 	0.64720 0.23340 0.29900 -0.13100
C 	C 	0.65530 0.18640 0.32390 0.05000
C 	C 	0.70400 0.18540 0.34880 -0.10000
C 	C 	0.59270 0.23560 0.27460 0.39800
O 	O 	0.56090 0.14760 0.15240 -0.43500
O 	O 	0.56860 0.11470 0.21270 -0.43500
O 	O 	0.94090 0.84420 0.06280 -0.46300
O 	O 	0.93120 0.77900 0.11100 -0.43500
O 	O 	0.43220 0.33840 0.19980 -0.44300
O 	O 	0.43750 0.28890 0.14450 -0.43600
O 	O 	0.06330 0.60780 0.04530 -0.46200
O 	O 	0.06990 0.65720 0.09880 -0.47000
O 	O 	0.45130 0.29040 0.27040 -0.44100
O 	O 	0.42720 0.18990 0.26660 -0.44300
O 	O 	0.05800 0.31030 0.47510 -0.44400
O 	O 	0.08410 0.21600 0.49390 -0.43700
O 	O 	0.50230 0.22680 0.20514 -0.65600
O 	O 	0.43910 0.85240 0.65240 -0.43500
O 	O 	0.43140 0.88530 0.71270 -0.43500
O 	O 	0.05910 0.15580 0.56280 -0.46300
O 	O 	0.06880 0.22100 0.61100 -0.43500
O 	O 	0.56780 0.66160 0.69980 -0.44300
O 	O 	0.56250 0.71110 0.64450 -0.43600
O 	O 	0.93670 0.39220 0.54530 -0.46200
O 	O 	0.93010 0.34280 0.59880 -0.47000
O 	O 	0.54870 0.70960 0.77040 -0.44100
O 	O 	0.57280 0.81010 0.76660 -0.44300
O 	O 	0.94200 0.68970 0.97510 -0.44400
O 	O 	0.91590 0.78400 0.99390 -0.43700
O 	O 	0.49770 0.77320 0.70514 -0.65600
O 	O 	0.93910 0.64760 0.09760 -0.43500
O 	O 	0.93140 0.61470 0.03730 -0.43500
O 	O 	0.55910 0.34420 0.18720 -0.46300
O 	O 	0.56880 0.27900 0.13900 -0.43500
O 	O 	0.06780 0.83840 0.05020 -0.44300
O 	O 	0.06250 0.78890 0.10550 -0.43600
O 	O 	0.43670 0.10780 0.20470 -0.46200
O 	O 	0.43010 0.15720 0.15120 -0.47000
O 	O 	0.04870 0.79040 0.97960 -0.44000
O 	O 	0.07280 0.68990 0.98340 -0.44300
O 	O 	0.44200 0.81030 0.77490 -0.44400
O 	O 	0.41590 0.71600 0.75610 -0.43700
O 	O 	0.99770 0.72680 0.04486 -0.65600
O 	O 	0.06090 0.35240 0.59760 -0.43500
O 	O 	0.06860 0.38530 0.53730 -0.43500
O 	O 	0.44090 0.65580 0.68720 -0.46300
O 	O 	0.43120 0.72100 0.63900 -0.43500
O 	O 	0.93220 0.16160 0.55020 -0.44300
O 	O 	0.93750 0.21110 0.60550 -0.43600
O 	O 	0.56330 0.89220 0.70470 -0.46200
O 	O 	0.56990 0.84280 0.65120 -0.47000
O 	O 	0.95130 0.20960 0.47960 -0.44000
O 	O 	0.92720 0.31010 0.48340 -0.44300
O 	O 	0.55800 0.18970 0.27490 -0.44400
O 	O 	0.58410 0.28400 0.25610 -0.43700
O 	O 	0.00230 0.27320 0.54486 -0.65600
