data_crystal

_cell_length_a 17.03700
_cell_length_b 19.25500
_cell_length_c 29.99700
_cell_angle_alpha 90.00000
_cell_angle_beta  90.92200
_cell_angle_gamma 90.00000

_symmetry_space_group_name_	'P 1'
_symmetry_space_group_name_H-M	'P 1'

loop_
_symmetry_equiv_pos_as_xyz
  x,y,z

loop_
_atom_site_label
_atom_site_type_symbol
_atom_site_fract_x
_atom_site_fract_y
_atom_site_fract_z
_atom_site_charge
Cd	Cd	0.12346 0.87077 0.12580 1.16300
Cd	Cd	0.62858 0.61980 0.12421 1.16400
F 	F 	0.79233 0.16675 0.18619 -0.38800
F 	F 	0.90762 0.18418 0.04536 -0.42100
F 	F 	0.83387 0.29779 0.20389 -0.42000
F 	F 	0.94892 0.31498 0.06290 -0.38800
F 	F 	0.42966 0.15439 0.05996 -0.39400
F 	F 	0.35996 0.19889 0.20849 -0.41700
F 	F 	0.39724 0.28592 0.03861 -0.41900
F 	F 	0.32787 0.33029 0.18723 -0.39400
F 	F 	0.24622 0.51107 0.15541 -0.40300
F 	F 	0.34569 0.57985 0.29608 -0.37700
F 	F 	0.16644 0.40932 0.19348 -0.37600
F 	F 	0.26615 0.47753 0.33398 -0.39700
F 	F 	0.91316 0.58988 0.95053 -0.37700
F 	F 	0.99497 0.49167 0.91013 -0.40400
F 	F 	0.51423 0.97366 0.08827 -0.39700
F 	F 	0.58897 0.08132 0.05414 -0.38000
N 	N 	0.02453 0.95770 0.11616 -0.26500
N 	N 	0.72400 0.53062 0.13423 -0.26300
N 	N 	0.22101 0.95509 0.13655 -0.28500
N 	N 	0.53406 0.53165 0.11100 -0.26800
N 	N 	0.20540 0.78009 0.15632 -0.25900
N 	N 	0.29481 0.20584 0.33843 -0.26300
N 	N 	0.04390 0.78090 0.09439 -0.26200
N 	N 	0.55053 0.70729 0.08866 -0.26300
C 	C 	0.00300 0.99791 0.14999 0.12600
H 	H 	0.03260 0.99520 0.17710 -0.03400
C 	C 	0.98283 0.96447 0.07778 0.11200
H 	H 	0.99780 0.93750 0.05280 -0.02300
C 	C 	0.94070 0.04305 0.14806 -0.21400
H 	H 	0.92820 0.07040 0.17330 0.14100
C 	C 	0.91946 0.00874 0.07299 -0.19700
H 	H 	0.89210 0.01190 0.04520 0.11600
C 	C 	0.89588 0.04869 0.10905 0.22500
C 	C 	0.82569 0.09737 0.10492 -0.23600
H 	H 	0.80360 0.09470 0.07420 0.15000
H 	H 	0.78460 0.08220 0.12570 0.19800
C 	C 	0.84808 0.17095 0.11507 -0.02800
C 	C 	0.83082 0.20282 0.15503 0.21800
C 	C 	0.88873 0.21157 0.08513 0.21700
C 	C 	0.85213 0.27006 0.16385 0.21100
C 	C 	0.90979 0.27870 0.09398 0.21200
C 	C 	0.89247 0.31060 0.13421 -0.02500
C 	C 	0.91596 0.38429 0.14467 -0.23600
H 	H 	0.95710 0.39910 0.12380 0.19700
H 	H 	0.93860 0.38630 0.17530 0.14700
C 	C 	0.84695 0.43430 0.14115 0.22700
C 	C 	0.82378 0.47303 0.17769 -0.20300
H 	H 	0.84920 0.46690 0.20580 0.11600
C 	C 	0.80501 0.44324 0.10145 -0.21300
H 	H 	0.81780 0.41670 0.07590 0.14100
C 	C 	0.76370 0.52047 0.17286 0.11600
H 	H 	0.74960 0.54740 0.19800 -0.02300
C 	C 	0.74489 0.49080 0.09949 0.12100
H 	H 	0.71660 0.49580 0.07210 -0.03200
C 	C 	0.23150 0.00520 0.10772 0.15300
H 	H 	0.19450 0.00910 0.08380 -0.04100
C 	C 	0.27120 0.95530 0.17049 0.13800
H 	H 	0.26450 0.92140 0.19310 -0.03300
C 	C 	0.33320 0.00160 0.17559 -0.23400
H 	H 	0.36640 0.99960 0.20130 0.12500
C 	C 	0.29180 0.05260 0.10930 -0.24600
H 	H 	0.29570 0.08710 0.08680 0.15400
C 	C 	0.34604 0.05001 0.14328 0.25500
C 	C 	0.41606 0.09846 0.14749 -0.25300
H 	H 	0.43620 0.09740 0.17860 0.15600
H 	H 	0.45830 0.08140 0.12800 0.19900
C 	C 	0.39650 0.17230 0.13498 -0.02500
C 	C 	0.40402 0.19742 0.09203 0.21200
C 	C 	0.36991 0.21898 0.16629 0.22400
C 	C 	0.38816 0.26541 0.08082 0.22800
C 	C 	0.35337 0.28690 0.15510 0.21600
C 	C 	0.36189 0.31209 0.11219 -0.03300
C 	C 	0.34211 0.38651 0.09975 -0.23600
H 	H 	0.32140 0.38760 0.06870 0.14700
H 	H 	0.30020 0.40350 0.11950 0.19300
C 	C 	0.41182 0.43491 0.10349 0.23000
C 	C 	0.45760 0.44010 0.14211 -0.22100
H 	H 	0.44780 0.41060 0.16680 0.15000
C 	C 	0.43135 0.47811 0.06859 -0.21500
H 	H 	0.40320 0.47510 0.04110 0.11500
C 	C 	0.51690 0.48795 0.14434 0.12700
H 	H 	0.54780 0.49040 0.17100 -0.03400
C 	C 	0.49132 0.52545 0.07342 0.12400
H 	H 	0.50290 0.55500 0.04900 -0.02600
C 	C 	0.23185 0.77564 0.19819 0.12800
H 	H 	0.21900 0.81200 0.21820 0.00800
C 	C 	0.22445 0.72833 0.12893 0.11100
H 	H 	0.20640 0.73050 0.09880 -0.02300
C 	C 	0.27697 0.72122 0.21423 -0.19200
H 	H 	0.29450 0.72080 0.24440 0.16700
C 	C 	0.26929 0.67145 0.14205 -0.19000
H 	H 	0.28120 0.63590 0.12120 0.13300
C 	C 	0.29650 0.66689 0.18565 0.18800
C 	C 	0.34590 0.60578 0.20156 -0.16600
H 	H 	0.38660 0.62290 0.22270 0.11500
H 	H 	0.37300 0.58550 0.17570 0.09600
C 	C 	0.29890 0.54907 0.22420 -0.05500
C 	C 	0.25230 0.50350 0.20001 0.23200
C 	C 	0.30122 0.53852 0.26969 0.24100
C 	C 	0.21110 0.45056 0.21978 0.23700
C 	C 	0.26036 0.48534 0.28925 0.21800
C 	C 	0.21336 0.43949 0.26512 -0.04800
C 	C 	0.16673 0.38254 0.28758 -0.17700
H 	H 	0.14000 0.40290 0.31360 0.10300
H 	H 	0.12540 0.36640 0.26640 0.12200
C 	C 	0.21318 0.32042 0.30323 0.20200
C 	C 	0.17441 0.26601 0.32354 -0.20200
H 	H 	0.11880 0.26660 0.32550 0.09800
C 	C 	0.29320 0.31434 0.29979 -0.17200
H 	H 	0.32230 0.34950 0.28520 0.15100
C 	C 	0.21679 0.21112 0.34082 0.12600
H 	H 	0.18900 0.17500 0.35520 -0.03300
C 	C 	0.33142 0.25707 0.31747 0.13700
H 	H 	0.38670 0.25410 0.31450 -0.01800
C 	C 	0.01632 0.77861 0.05247 0.12500
H 	H 	0.02760 0.81640 0.03320 0.00800
C 	C 	0.02635 0.72708 0.12063 0.11400
H 	H 	0.04440 0.72780 0.15080 -0.02500
C 	C 	0.97193 0.72374 0.03563 -0.19400
H 	H 	0.95330 0.72470 0.00560 0.16400
C 	C 	0.98330 0.67058 0.10611 -0.19700
H 	H 	0.97300 0.63340 0.12600 0.13600
C 	C 	0.95508 0.66799 0.06262 0.19200
C 	C 	0.90738 0.60695 0.04568 -0.16900
H 	H 	0.86590 0.62420 0.02500 0.11300
H 	H 	0.88120 0.58460 0.07120 0.09700
C 	C 	0.95623 0.55287 0.02178 -0.05600
C 	C 	0.95620 0.54638 0.97598 0.23900
C 	C 	0.99907 0.49495 0.95495 0.22900
C 	C 	0.47215 0.70938 0.08986 0.12700
H 	H 	0.44530 0.67160 0.10310 -0.03300
C 	C 	0.58533 0.76075 0.06907 0.14200
H 	H 	0.64090 0.75990 0.06690 -0.02000
C 	C 	0.42851 0.76361 0.07287 -0.20300
H 	H 	0.37290 0.76230 0.07420 0.10000
C 	C 	0.54583 0.81719 0.05168 -0.17200
H 	H 	0.57410 0.85400 0.03830 0.15400
C 	C 	0.46530 0.82004 0.05382 0.20500
C 	C 	0.41572 0.88163 0.03870 -0.17400
H 	H 	0.37640 0.86500 0.01660 0.12400
H 	H 	0.38680 0.89930 0.06470 0.10200
C 	C 	0.46010 0.94155 0.01838 -0.05000
C 	C 	0.50620 0.98572 0.04404 0.22000
C 	C 	0.54515 0.04211 0.02644 0.24700
Cd	Cd	0.87654 0.37077 0.37420 1.16200
Cd	Cd	0.37142 0.11980 0.37579 1.16300
F 	F 	0.20767 0.66675 0.31381 -0.38900
F 	F 	0.09238 0.68418 0.45464 -0.42200
F 	F 	0.16613 0.79779 0.29611 -0.42100
F 	F 	0.05108 0.81498 0.43710 -0.38900
F 	F 	0.57034 0.65439 0.44004 -0.39500
F 	F 	0.64004 0.69889 0.29151 -0.41800
F 	F 	0.60276 0.78592 0.46139 -0.42000
F 	F 	0.67213 0.83029 0.31277 -0.39500
F 	F 	0.75378 0.01107 0.34459 -0.40300
F 	F 	0.65431 0.07985 0.20392 -0.37700
F 	F 	0.83356 0.90932 0.30652 -0.37600
F 	F 	0.73385 0.97753 0.16602 -0.39700
F 	F 	0.08684 0.08988 0.54947 -0.37700
F 	F 	0.00503 0.99167 0.58987 -0.40400
F 	F 	0.48577 0.47366 0.41173 -0.39700
F 	F 	0.41103 0.58132 0.44586 -0.38000
N 	N 	0.97547 0.45770 0.38384 -0.26500
N 	N 	0.27600 0.03062 0.36577 -0.26300
N 	N 	0.77899 0.45509 0.36345 -0.28400
N 	N 	0.46594 0.03165 0.38900 -0.26800
N 	N 	0.79460 0.28009 0.34368 -0.25900
N 	N 	0.70519 0.70584 0.16157 -0.26300
N 	N 	0.95610 0.28090 0.40561 -0.26200
N 	N 	0.44947 0.20729 0.41134 -0.26300
C 	C 	0.99700 0.49791 0.35001 0.12800
H 	H 	0.96740 0.49520 0.32290 -0.03500
C 	C 	0.01717 0.46447 0.42222 0.11400
H 	H 	0.00220 0.43750 0.44720 -0.02300
C 	C 	0.05930 0.54305 0.35194 -0.21600
H 	H 	0.07180 0.57040 0.32670 0.14200
C 	C 	0.08054 0.50874 0.42701 -0.19900
H 	H 	0.10790 0.51190 0.45480 0.11700
C 	C 	0.10412 0.54869 0.39095 0.22600
C 	C 	0.17431 0.59737 0.39508 -0.23600
H 	H 	0.19640 0.59470 0.42580 0.15000
H 	H 	0.21540 0.58220 0.37430 0.19800
C 	C 	0.15192 0.67095 0.38493 -0.02800
C 	C 	0.16918 0.70282 0.34497 0.21800
C 	C 	0.11127 0.71157 0.41487 0.21700
C 	C 	0.14787 0.77006 0.33615 0.21100
C 	C 	0.09021 0.77870 0.40602 0.21200
C 	C 	0.10753 0.81060 0.36579 -0.02500
C 	C 	0.08404 0.88429 0.35533 -0.23600
H 	H 	0.04290 0.89910 0.37620 0.19700
H 	H 	0.06140 0.88630 0.32470 0.14700
C 	C 	0.15305 0.93430 0.35885 0.22700
C 	C 	0.17622 0.97303 0.32231 -0.20300
H 	H 	0.15080 0.96690 0.29420 0.11600
C 	C 	0.19499 0.94324 0.39855 -0.21300
H 	H 	0.18220 0.91670 0.42410 0.14100
C 	C 	0.23630 0.02047 0.32714 0.11700
H 	H 	0.25040 0.04740 0.30200 -0.02300
C 	C 	0.25511 0.99080 0.40051 0.12100
H 	H 	0.28340 0.99580 0.42790 -0.03200
C 	C 	0.76850 0.50520 0.39228 0.15200
H 	H 	0.80550 0.50910 0.41620 -0.04100
C 	C 	0.72880 0.45530 0.32951 0.14000
H 	H 	0.73550 0.42140 0.30690 -0.03400
C 	C 	0.66680 0.50160 0.32441 -0.23700
H 	H 	0.63360 0.49960 0.29870 0.12700
C 	C 	0.70820 0.55260 0.39070 -0.24700
H 	H 	0.70430 0.58710 0.41320 0.15400
C 	C 	0.65396 0.55001 0.35672 0.25600
C 	C 	0.58394 0.59846 0.35251 -0.25400
H 	H 	0.56380 0.59740 0.32140 0.15600
H 	H 	0.54170 0.58140 0.37200 0.19900
C 	C 	0.60350 0.67230 0.36502 -0.02500
C 	C 	0.59598 0.69742 0.40797 0.21200
C 	C 	0.63009 0.71898 0.33371 0.22400
C 	C 	0.61184 0.76541 0.41918 0.22800
C 	C 	0.64663 0.78690 0.34490 0.21600
C 	C 	0.63811 0.81209 0.38781 -0.03300
C 	C 	0.65789 0.88651 0.40025 -0.23600
H 	H 	0.67860 0.88760 0.43130 0.14700
H 	H 	0.69980 0.90350 0.38050 0.19300
C 	C 	0.58818 0.93491 0.39651 0.23000
C 	C 	0.54240 0.94010 0.35789 -0.22100
H 	H 	0.55220 0.91060 0.33320 0.15000
C 	C 	0.56865 0.97811 0.43141 -0.21500
H 	H 	0.59680 0.97510 0.45890 0.11500
C 	C 	0.48310 0.98795 0.35566 0.12700
H 	H 	0.45220 0.99040 0.32900 -0.03400
C 	C 	0.50868 0.02545 0.42658 0.12400
H 	H 	0.49710 0.05500 0.45100 -0.02600
C 	C 	0.76815 0.27564 0.30181 0.12800
H 	H 	0.78100 0.31200 0.28180 0.00800
C 	C 	0.77555 0.22833 0.37107 0.11100
H 	H 	0.79360 0.23050 0.40120 -0.02300
C 	C 	0.72303 0.22122 0.28577 -0.19200
H 	H 	0.70550 0.22080 0.25560 0.16700
C 	C 	0.73071 0.17145 0.35795 -0.19000
H 	H 	0.71880 0.13590 0.37880 0.13300
C 	C 	0.70350 0.16689 0.31435 0.18800
C 	C 	0.65410 0.10578 0.29844 -0.16600
H 	H 	0.61340 0.12290 0.27730 0.11500
H 	H 	0.62700 0.08550 0.32430 0.09600
C 	C 	0.70110 0.04907 0.27580 -0.05500
C 	C 	0.74770 0.00350 0.29999 0.23300
C 	C 	0.69878 0.03852 0.23031 0.24200
C 	C 	0.78890 0.95056 0.28022 0.23600
C 	C 	0.73964 0.98534 0.21075 0.21700
C 	C 	0.78664 0.93949 0.23488 -0.04800
C 	C 	0.83327 0.88254 0.21242 -0.17700
H 	H 	0.86000 0.90290 0.18640 0.10300
H 	H 	0.87460 0.86640 0.23360 0.12200
C 	C 	0.78682 0.82042 0.19677 0.20200
C 	C 	0.82559 0.76601 0.17646 -0.20200
H 	H 	0.88120 0.76660 0.17450 0.09800
C 	C 	0.70680 0.81434 0.20021 -0.17200
H 	H 	0.67770 0.84950 0.21480 0.15100
C 	C 	0.78321 0.71112 0.15918 0.12600
H 	H 	0.81100 0.67500 0.14480 -0.03300
C 	C 	0.66858 0.75707 0.18253 0.13700
H 	H 	0.61330 0.75410 0.18550 -0.01800
C 	C 	0.98368 0.27861 0.44753 0.12500
H 	H 	0.97240 0.31640 0.46680 0.00800
C 	C 	0.97365 0.22708 0.37937 0.11400
H 	H 	0.95560 0.22780 0.34920 -0.02500
C 	C 	0.02807 0.22374 0.46437 -0.19400
H 	H 	0.04670 0.22470 0.49440 0.16500
C 	C 	0.01670 0.17058 0.39389 -0.19700
H 	H 	0.02700 0.13340 0.37400 0.13600
C 	C 	0.04492 0.16799 0.43738 0.19300
C 	C 	0.09262 0.10695 0.45432 -0.17000
H 	H 	0.13410 0.12420 0.47500 0.11300
H 	H 	0.11880 0.08460 0.42880 0.09700
C 	C 	0.04377 0.05287 0.47822 -0.05600
C 	C 	0.04380 0.04638 0.52402 0.23900
C 	C 	0.00093 0.99495 0.54505 0.23000
C 	C 	0.52785 0.20938 0.41014 0.12700
H 	H 	0.55470 0.17160 0.39690 -0.03300
C 	C 	0.41467 0.26075 0.43093 0.14200
H 	H 	0.35910 0.25990 0.43310 -0.02000
C 	C 	0.57149 0.26361 0.42713 -0.20300
H 	H 	0.62710 0.26230 0.42580 0.10000
C 	C 	0.45417 0.31719 0.44832 -0.17200
H 	H 	0.42590 0.35400 0.46170 0.15400
C 	C 	0.53470 0.32004 0.44618 0.20500
C 	C 	0.58428 0.38163 0.46130 -0.17500
H 	H 	0.62360 0.36500 0.48340 0.12500
H 	H 	0.61320 0.39930 0.43530 0.10300
C 	C 	0.53990 0.44155 0.48162 -0.04900
C 	C 	0.49380 0.48572 0.45596 0.22000
C 	C 	0.45485 0.54211 0.47356 0.24600
Cd	Cd	0.87654 0.12923 0.87420 1.16200
Cd	Cd	0.37142 0.38020 0.87579 1.16300
F 	F 	0.20767 0.83325 0.81381 -0.38900
F 	F 	0.09238 0.81582 0.95464 -0.42200
F 	F 	0.16613 0.70221 0.79611 -0.42100
F 	F 	0.05108 0.68502 0.93710 -0.38900
F 	F 	0.57034 0.84561 0.94004 -0.39500
F 	F 	0.64004 0.80111 0.79151 -0.41800
F 	F 	0.60276 0.71408 0.96139 -0.42000
F 	F 	0.67213 0.66971 0.81277 -0.39500
F 	F 	0.75378 0.48893 0.84459 -0.40300
F 	F 	0.65431 0.42015 0.70392 -0.37700
F 	F 	0.83356 0.59068 0.80652 -0.37600
F 	F 	0.73385 0.52247 0.66602 -0.39700
F 	F 	0.08684 0.41012 0.04947 -0.37700
F 	F 	0.00503 0.50833 0.08987 -0.40400
F 	F 	0.48577 0.02634 0.91173 -0.39700
F 	F 	0.41103 0.91868 0.94586 -0.38000
N 	N 	0.97547 0.04230 0.88384 -0.26500
N 	N 	0.27600 0.46938 0.86577 -0.26300
N 	N 	0.77899 0.04491 0.86345 -0.28500
N 	N 	0.46594 0.46835 0.88900 -0.26800
N 	N 	0.79460 0.21991 0.84368 -0.25900
N 	N 	0.70519 0.79416 0.66157 -0.26300
N 	N 	0.95610 0.21910 0.90561 -0.26200
N 	N 	0.44947 0.29271 0.91134 -0.26300
C 	C 	0.99700 0.00209 0.85001 0.12600
H 	H 	0.96740 0.00480 0.82290 -0.03400
C 	C 	0.01717 0.03553 0.92222 0.11200
H 	H 	0.00220 0.06250 0.94720 -0.02300
C 	C 	0.05930 0.95695 0.85194 -0.21400
H 	H 	0.07180 0.92960 0.82670 0.14100
C 	C 	0.08054 0.99126 0.92701 -0.19700
H 	H 	0.10790 0.98810 0.95480 0.11600
C 	C 	0.10412 0.95131 0.89095 0.22500
C 	C 	0.17431 0.90263 0.89508 -0.23600
H 	H 	0.19640 0.90530 0.92580 0.15000
H 	H 	0.21540 0.91780 0.87430 0.19800
C 	C 	0.15192 0.82905 0.88493 -0.02800
C 	C 	0.16918 0.79718 0.84497 0.21800
C 	C 	0.11127 0.78843 0.91487 0.21700
C 	C 	0.14787 0.72994 0.83615 0.21100
C 	C 	0.09021 0.72130 0.90602 0.21200
C 	C 	0.10753 0.68940 0.86579 -0.02500
C 	C 	0.08404 0.61571 0.85533 -0.23600
H 	H 	0.04290 0.60090 0.87620 0.19700
H 	H 	0.06140 0.61370 0.82470 0.14700
C 	C 	0.15305 0.56570 0.85885 0.22700
C 	C 	0.17622 0.52697 0.82231 -0.20300
H 	H 	0.15080 0.53310 0.79420 0.11600
C 	C 	0.19499 0.55676 0.89855 -0.21300
H 	H 	0.18220 0.58330 0.92410 0.14100
C 	C 	0.23630 0.47953 0.82714 0.11600
H 	H 	0.25040 0.45260 0.80200 -0.02300
C 	C 	0.25511 0.50920 0.90051 0.12100
H 	H 	0.28340 0.50420 0.92790 -0.03200
C 	C 	0.76850 0.99480 0.89228 0.15300
H 	H 	0.80550 0.99090 0.91620 -0.04100
C 	C 	0.72880 0.04470 0.82951 0.13800
H 	H 	0.73550 0.07860 0.80690 -0.03300
C 	C 	0.66680 0.99840 0.82441 -0.23400
H 	H 	0.63360 0.00040 0.79870 0.12500
C 	C 	0.70820 0.94740 0.89070 -0.24600
H 	H 	0.70430 0.91290 0.91320 0.15400
C 	C 	0.65396 0.94999 0.85672 0.25500
C 	C 	0.58394 0.90154 0.85251 -0.25300
H 	H 	0.56380 0.90260 0.82140 0.15600
H 	H 	0.54170 0.91860 0.87200 0.19900
C 	C 	0.60350 0.82770 0.86502 -0.02500
C 	C 	0.59598 0.80258 0.90797 0.21200
C 	C 	0.63009 0.78102 0.83371 0.22400
C 	C 	0.61184 0.73459 0.91918 0.22800
C 	C 	0.64663 0.71310 0.84490 0.21600
C 	C 	0.63811 0.68791 0.88781 -0.03300
C 	C 	0.65789 0.61349 0.90025 -0.23600
H 	H 	0.67860 0.61240 0.93130 0.14700
H 	H 	0.69980 0.59650 0.88050 0.19300
C 	C 	0.58818 0.56509 0.89651 0.23000
C 	C 	0.54240 0.55990 0.85789 -0.22100
H 	H 	0.55220 0.58940 0.83320 0.15000
C 	C 	0.56865 0.52189 0.93141 -0.21500
H 	H 	0.59680 0.52490 0.95890 0.11500
C 	C 	0.48310 0.51205 0.85566 0.12700
H 	H 	0.45220 0.50960 0.82900 -0.03400
C 	C 	0.50868 0.47455 0.92658 0.12400
H 	H 	0.49710 0.44500 0.95100 -0.02600
C 	C 	0.76815 0.22436 0.80181 0.12800
H 	H 	0.78100 0.18800 0.78180 0.00800
C 	C 	0.77555 0.27167 0.87107 0.11100
H 	H 	0.79360 0.26950 0.90120 -0.02300
C 	C 	0.72303 0.27878 0.78577 -0.19200
H 	H 	0.70550 0.27920 0.75560 0.16700
C 	C 	0.73071 0.32855 0.85795 -0.19000
H 	H 	0.71880 0.36410 0.87880 0.13300
C 	C 	0.70350 0.33311 0.81435 0.18800
C 	C 	0.65410 0.39422 0.79844 -0.16600
H 	H 	0.61340 0.37710 0.77730 0.11500
H 	H 	0.62700 0.41450 0.82430 0.09600
C 	C 	0.70110 0.45093 0.77580 -0.05500
C 	C 	0.74770 0.49650 0.79999 0.23200
C 	C 	0.69878 0.46148 0.73031 0.24100
C 	C 	0.78890 0.54944 0.78022 0.23700
C 	C 	0.73964 0.51466 0.71075 0.21800
C 	C 	0.78664 0.56051 0.73488 -0.04800
C 	C 	0.83327 0.61746 0.71242 -0.17700
H 	H 	0.86000 0.59710 0.68640 0.10300
H 	H 	0.87460 0.63360 0.73360 0.12200
C 	C 	0.78682 0.67958 0.69677 0.20200
C 	C 	0.82559 0.73399 0.67646 -0.20200
H 	H 	0.88120 0.73340 0.67450 0.09800
C 	C 	0.70680 0.68566 0.70021 -0.17200
H 	H 	0.67770 0.65050 0.71480 0.15100
C 	C 	0.78321 0.78888 0.65918 0.12600
H 	H 	0.81100 0.82500 0.64480 -0.03300
C 	C 	0.66858 0.74293 0.68253 0.13700
H 	H 	0.61330 0.74590 0.68550 -0.01800
C 	C 	0.98368 0.22139 0.94753 0.12500
H 	H 	0.97240 0.18360 0.96680 0.00800
C 	C 	0.97365 0.27292 0.87937 0.11400
H 	H 	0.95560 0.27220 0.84920 -0.02500
C 	C 	0.02807 0.27626 0.96437 -0.19400
H 	H 	0.04670 0.27530 0.99440 0.16400
C 	C 	0.01670 0.32942 0.89389 -0.19700
H 	H 	0.02700 0.36660 0.87400 0.13600
C 	C 	0.04492 0.33201 0.93738 0.19200
C 	C 	0.09262 0.39305 0.95432 -0.16900
H 	H 	0.13410 0.37580 0.97500 0.11300
H 	H 	0.11880 0.41540 0.92880 0.09700
C 	C 	0.04377 0.44713 0.97822 -0.05600
C 	C 	0.04380 0.45362 0.02402 0.23900
C 	C 	0.00093 0.50505 0.04505 0.22900
C 	C 	0.52785 0.29062 0.91014 0.12700
H 	H 	0.55470 0.32840 0.89690 -0.03300
C 	C 	0.41467 0.23925 0.93093 0.14200
H 	H 	0.35910 0.24010 0.93310 -0.02000
C 	C 	0.57149 0.23639 0.92713 -0.20300
H 	H 	0.62710 0.23770 0.92580 0.10000
C 	C 	0.45417 0.18281 0.94832 -0.17200
H 	H 	0.42590 0.14600 0.96170 0.15400
C 	C 	0.53470 0.17996 0.94618 0.20500
C 	C 	0.58428 0.11837 0.96130 -0.17400
H 	H 	0.62360 0.13500 0.98340 0.12400
H 	H 	0.61320 0.10070 0.93530 0.10200
C 	C 	0.53990 0.05845 0.98162 -0.05000
C 	C 	0.49380 0.01428 0.95596 0.22000
C 	C 	0.45485 0.95789 0.97356 0.24700
Cd	Cd	0.12346 0.62923 0.62580 1.16200
Cd	Cd	0.62858 0.88020 0.62421 1.16300
F 	F 	0.79233 0.33325 0.68619 -0.38900
F 	F 	0.90762 0.31582 0.54536 -0.42200
F 	F 	0.83387 0.20221 0.70389 -0.42100
F 	F 	0.94892 0.18502 0.56290 -0.38900
F 	F 	0.42966 0.34561 0.55996 -0.39500
F 	F 	0.35996 0.30111 0.70849 -0.41800
F 	F 	0.39724 0.21408 0.53861 -0.42000
F 	F 	0.32787 0.16971 0.68723 -0.39500
F 	F 	0.24622 0.98893 0.65541 -0.40300
F 	F 	0.34569 0.92015 0.79608 -0.37700
F 	F 	0.16644 0.09068 0.69348 -0.37600
F 	F 	0.26615 0.02247 0.83398 -0.39700
F 	F 	0.91316 0.91012 0.45053 -0.37700
F 	F 	0.99497 0.00833 0.41013 -0.40400
F 	F 	0.51423 0.52634 0.58827 -0.39700
F 	F 	0.58897 0.41868 0.55414 -0.38000
N 	N 	0.02453 0.54230 0.61616 -0.26500
N 	N 	0.72400 0.96938 0.63423 -0.26300
N 	N 	0.22101 0.54491 0.63655 -0.28400
N 	N 	0.53406 0.96835 0.61100 -0.26800
N 	N 	0.20540 0.71991 0.65632 -0.25900
N 	N 	0.29481 0.29416 0.83843 -0.26300
N 	N 	0.04390 0.71910 0.59439 -0.26200
N 	N 	0.55053 0.79271 0.58866 -0.26300
C 	C 	0.00300 0.50209 0.64999 0.12800
H 	H 	0.03260 0.50480 0.67710 -0.03500
C 	C 	0.98283 0.53553 0.57778 0.11400
H 	H 	0.99780 0.56250 0.55280 -0.02300
C 	C 	0.94070 0.45695 0.64806 -0.21600
H 	H 	0.92820 0.42960 0.67330 0.14200
C 	C 	0.91946 0.49126 0.57299 -0.19900
H 	H 	0.89210 0.48810 0.54520 0.11700
C 	C 	0.89588 0.45131 0.60905 0.22600
C 	C 	0.82569 0.40263 0.60492 -0.23600
H 	H 	0.80360 0.40530 0.57420 0.15000
H 	H 	0.78460 0.41780 0.62570 0.19800
C 	C 	0.84808 0.32905 0.61507 -0.02800
C 	C 	0.83082 0.29718 0.65503 0.21800
C 	C 	0.88873 0.28843 0.58513 0.21700
C 	C 	0.85213 0.22994 0.66385 0.21100
C 	C 	0.90979 0.22130 0.59398 0.21200
C 	C 	0.89247 0.18940 0.63421 -0.02500
C 	C 	0.91596 0.11571 0.64467 -0.23600
H 	H 	0.95710 0.10090 0.62380 0.19700
H 	H 	0.93860 0.11370 0.67530 0.14700
C 	C 	0.84695 0.06570 0.64115 0.22700
C 	C 	0.82378 0.02697 0.67769 -0.20300
H 	H 	0.84920 0.03310 0.70580 0.11600
C 	C 	0.80501 0.05676 0.60145 -0.21300
H 	H 	0.81780 0.08330 0.57590 0.14100
C 	C 	0.76370 0.97953 0.67286 0.11700
H 	H 	0.74960 0.95260 0.69800 -0.02300
C 	C 	0.74489 0.00920 0.59949 0.12100
H 	H 	0.71660 0.00420 0.57210 -0.03200
C 	C 	0.23150 0.49480 0.60772 0.15200
H 	H 	0.19450 0.49090 0.58380 -0.04100
C 	C 	0.27120 0.54470 0.67049 0.14000
H 	H 	0.26450 0.57860 0.69310 -0.03400
C 	C 	0.33320 0.49840 0.67559 -0.23700
H 	H 	0.36640 0.50040 0.70130 0.12700
C 	C 	0.29180 0.44740 0.60930 -0.24700
H 	H 	0.29570 0.41290 0.58680 0.15400
C 	C 	0.34604 0.44999 0.64328 0.25600
C 	C 	0.41606 0.40154 0.64749 -0.25400
H 	H 	0.43620 0.40260 0.67860 0.15600
H 	H 	0.45830 0.41860 0.62800 0.19900
C 	C 	0.39650 0.32770 0.63498 -0.02500
C 	C 	0.40402 0.30258 0.59203 0.21200
C 	C 	0.36991 0.28102 0.66629 0.22400
C 	C 	0.38816 0.23459 0.58082 0.22800
C 	C 	0.35337 0.21310 0.65510 0.21600
C 	C 	0.36189 0.18791 0.61219 -0.03300
C 	C 	0.34211 0.11349 0.59975 -0.23600
H 	H 	0.32140 0.11240 0.56870 0.14700
H 	H 	0.30020 0.09650 0.61950 0.19300
C 	C 	0.41182 0.06509 0.60349 0.23000
C 	C 	0.45760 0.05990 0.64211 -0.22100
H 	H 	0.44780 0.08940 0.66680 0.15000
C 	C 	0.43135 0.02189 0.56859 -0.21500
H 	H 	0.40320 0.02490 0.54110 0.11500
C 	C 	0.51690 0.01205 0.64434 0.12700
H 	H 	0.54780 0.00960 0.67100 -0.03400
C 	C 	0.49132 0.97455 0.57342 0.12400
H 	H 	0.50290 0.94500 0.54900 -0.02600
C 	C 	0.23185 0.72436 0.69819 0.12800
H 	H 	0.21900 0.68800 0.71820 0.00800
C 	C 	0.22445 0.77167 0.62893 0.11100
H 	H 	0.20640 0.76950 0.59880 -0.02300
C 	C 	0.27697 0.77878 0.71423 -0.19200
H 	H 	0.29450 0.77920 0.74440 0.16700
C 	C 	0.26929 0.82855 0.64205 -0.19000
H 	H 	0.28120 0.86410 0.62120 0.13300
C 	C 	0.29650 0.83311 0.68565 0.18800
C 	C 	0.34590 0.89422 0.70156 -0.16600
H 	H 	0.38660 0.87710 0.72270 0.11500
H 	H 	0.37300 0.91450 0.67570 0.09600
C 	C 	0.29890 0.95093 0.72420 -0.05500
C 	C 	0.25230 0.99650 0.70001 0.23300
C 	C 	0.30122 0.96148 0.76969 0.24200
C 	C 	0.21110 0.04944 0.71978 0.23600
C 	C 	0.26036 0.01466 0.78925 0.21700
C 	C 	0.21336 0.06051 0.76512 -0.04800
C 	C 	0.16673 0.11746 0.78758 -0.17700
H 	H 	0.14000 0.09710 0.81360 0.10300
H 	H 	0.12540 0.13360 0.76640 0.12200
C 	C 	0.21318 0.17958 0.80323 0.20200
C 	C 	0.17441 0.23399 0.82354 -0.20200
H 	H 	0.11880 0.23340 0.82550 0.09800
C 	C 	0.29320 0.18566 0.79979 -0.17200
H 	H 	0.32230 0.15050 0.78520 0.15100
C 	C 	0.21679 0.28888 0.84082 0.12600
H 	H 	0.18900 0.32500 0.85520 -0.03300
C 	C 	0.33142 0.24293 0.81747 0.13700
H 	H 	0.38670 0.24590 0.81450 -0.01800
C 	C 	0.01632 0.72139 0.55247 0.12500
H 	H 	0.02760 0.68360 0.53320 0.00800
C 	C 	0.02635 0.77292 0.62063 0.11400
H 	H 	0.04440 0.77220 0.65080 -0.02500
C 	C 	0.97193 0.77626 0.53563 -0.19400
H 	H 	0.95330 0.77530 0.50560 0.16500
C 	C 	0.98330 0.82942 0.60611 -0.19700
H 	H 	0.97300 0.86660 0.62600 0.13600
C 	C 	0.95508 0.83201 0.56262 0.19300
C 	C 	0.90738 0.89305 0.54568 -0.17000
H 	H 	0.86590 0.87580 0.52500 0.11300
H 	H 	0.88120 0.91540 0.57120 0.09700
C 	C 	0.95623 0.94713 0.52178 -0.05600
C 	C 	0.95620 0.95362 0.47598 0.23900
C 	C 	0.99907 0.00505 0.45495 0.23000
C 	C 	0.47215 0.79062 0.58986 0.12700
H 	H 	0.44530 0.82840 0.60310 -0.03300
C 	C 	0.58533 0.73925 0.56907 0.14200
H 	H 	0.64090 0.74010 0.56690 -0.02000
C 	C 	0.42851 0.73639 0.57287 -0.20300
H 	H 	0.37290 0.73770 0.57420 0.10000
C 	C 	0.54583 0.68281 0.55168 -0.17200
H 	H 	0.57410 0.64600 0.53830 0.15400
C 	C 	0.46530 0.67996 0.55382 0.20500
C 	C 	0.41572 0.61837 0.53870 -0.17500
H 	H 	0.37640 0.63500 0.51660 0.12500
H 	H 	0.38680 0.60070 0.56470 0.10300
C 	C 	0.46010 0.55845 0.51838 -0.04900
C 	C 	0.50620 0.51428 0.54404 0.22000
C 	C 	0.54515 0.45789 0.52644 0.24600
