data_crystal

_cell_length_a 12.78330
_cell_length_b 25.55990
_cell_length_c 25.55990
_cell_angle_alpha 90.00000
_cell_angle_beta  90.00000
_cell_angle_gamma 90.00000

_symmetry_space_group_name_	'P 1'
_symmetry_space_group_name_H-M	'P 1'

loop_
_symmetry_equiv_pos_as_xyz
  x,y,z

loop_
_atom_site_label
_atom_site_type_symbol
_atom_site_fract_x
_atom_site_fract_y
_atom_site_fract_z
_atom_site_charge
Zn	Zn	0.83950 0.95558 0.79485 1.21200
Zn	Zn	0.83950 0.04442 0.20515 1.21200
Zn	Zn	0.33950 0.70515 0.45558 1.21000
Zn	Zn	0.33950 0.29485 0.54442 1.21000
Zn	Zn	0.66050 0.54442 0.29485 1.21100
Zn	Zn	0.66050 0.45558 0.70515 1.21100
Zn	Zn	0.16050 0.79485 0.95558 1.21000
Zn	Zn	0.16050 0.20515 0.04442 1.21000
Zn	Zn	-0.00000 0.87486 0.87486 1.23400
Zn	Zn	-0.00000 0.12514 0.12514 1.23400
Zn	Zn	0.50000 0.62514 0.37486 1.24300
Zn	Zn	0.50000 0.37486 0.62514 1.24300
H 	H 	0.90070 0.77140 0.61310 0.04800
H 	H 	0.85010 0.83370 0.67540 0.04500
H 	H 	0.12010 0.81250 0.75340 0.05300
H 	H 	0.16680 0.74750 0.69480 0.05300
H 	H 	0.27590 0.63200 0.67800 0.06900
H 	H 	0.41880 0.57660 0.69850 0.03200
H 	H 	0.37590 0.50100 0.56100 0.03600
H 	H 	0.23680 0.55690 0.53950 0.07300
H 	H 	0.00990 0.57160 0.48500 0.03900
H 	H 	0.90500 0.55190 0.41310 0.03300
H 	H 	0.73960 0.68330 0.43750 0.02500
H 	H 	0.85580 0.70900 0.50270 0.08000
H 	H 	0.90070 0.22860 0.38690 0.04800
H 	H 	0.85010 0.16630 0.32460 0.04500
H 	H 	0.12010 0.18750 0.24660 0.05300
H 	H 	0.16680 0.25250 0.30520 0.05300
H 	H 	0.27590 0.36800 0.32200 0.06900
H 	H 	0.41880 0.42340 0.30150 0.03200
H 	H 	0.37590 0.49900 0.43900 0.03600
H 	H 	0.23680 0.44310 0.46050 0.07300
H 	H 	0.00990 0.42840 0.51500 0.03900
H 	H 	0.90500 0.44810 0.58690 0.03300
H 	H 	0.73960 0.31670 0.56250 0.02500
H 	H 	0.85580 0.29100 0.49730 0.08000
H 	H 	0.40070 0.88690 0.27140 0.06900
H 	H 	0.35010 0.82460 0.33370 0.02400
H 	H 	0.62010 0.74660 0.31250 0.03000
H 	H 	0.66680 0.80520 0.24750 0.07500
H 	H 	0.77590 0.82200 0.13200 0.06600
H 	H 	0.91880 0.80150 0.07660 0.04500
H 	H 	0.87590 0.93900 0.00100 0.04800
H 	H 	0.73680 0.96050 0.05690 0.06800
H 	H 	0.50990 0.01500 0.07160 0.07300
H 	H 	0.40500 0.08690 0.05190 0.01900
H 	H 	0.23960 0.06250 0.18330 0.01800
H 	H 	0.35580 0.99730 0.20900 0.07700
H 	H 	0.40070 0.11310 0.72860 0.06900
H 	H 	0.35010 0.17540 0.66630 0.02400
H 	H 	0.62010 0.25340 0.68750 0.03000
H 	H 	0.66680 0.19480 0.75250 0.07500
H 	H 	0.77590 0.17800 0.86800 0.06600
H 	H 	0.91880 0.19850 0.92340 0.04500
H 	H 	0.87590 0.06100 0.99900 0.04800
H 	H 	0.73680 0.03950 0.94310 0.06800
H 	H 	0.50990 0.98500 0.92840 0.07300
H 	H 	0.40500 0.91310 0.94810 0.01900
H 	H 	0.23960 0.93750 0.81670 0.01800
H 	H 	0.35580 0.00270 0.79100 0.07700
H 	H 	0.59930 0.72860 0.11310 0.07100
H 	H 	0.64990 0.66630 0.17540 0.02800
H 	H 	0.37990 0.68750 0.25340 0.02900
H 	H 	0.33320 0.75250 0.19480 0.07000
H 	H 	0.22410 0.86800 0.17800 0.07100
H 	H 	0.08120 0.92340 0.19850 0.01900
H 	H 	0.12410 0.99900 0.06100 0.02600
H 	H 	0.26320 0.94310 0.03950 0.07700
H 	H 	0.49010 0.92840 0.98500 0.07200
H 	H 	0.59500 0.94810 0.91310 0.02100
H 	H 	0.76040 0.81670 0.93750 0.02500
H 	H 	0.64420 0.79100 0.00270 0.07900
H 	H 	0.59930 0.27140 0.88690 0.07100
H 	H 	0.64990 0.33370 0.82460 0.02800
H 	H 	0.37990 0.31250 0.74660 0.02900
H 	H 	0.33320 0.24750 0.80520 0.07000
H 	H 	0.22410 0.13200 0.82200 0.07100
H 	H 	0.08120 0.07660 0.80150 0.01900
H 	H 	0.12410 0.00100 0.93900 0.02600
H 	H 	0.26320 0.05690 0.96050 0.07700
H 	H 	0.49010 0.07160 0.01500 0.07200
H 	H 	0.59500 0.05190 0.08690 0.02100
H 	H 	0.76040 0.18330 0.06250 0.02500
H 	H 	0.64420 0.20900 0.99730 0.07900
H 	H 	0.09930 0.61310 0.77140 0.09200
H 	H 	0.14990 0.67540 0.83370 0.00700
H 	H 	0.87990 0.75340 0.81250 0.00700
H 	H 	0.83320 0.69480 0.74750 0.09300
H 	H 	0.72410 0.67800 0.63200 0.06900
H 	H 	0.58120 0.69850 0.57660 0.03200
H 	H 	0.62410 0.56100 0.50100 0.03600
H 	H 	0.76320 0.53950 0.55690 0.07200
H 	H 	0.99010 0.48500 0.57160 0.10300
H 	H 	0.09500 0.41310 0.55190 0.00900
H 	H 	0.26040 0.43750 0.68330 0.02100
H 	H 	0.14420 0.50270 0.70900 0.07100
H 	H 	0.09930 0.38690 0.22860 0.09200
H 	H 	0.14990 0.32460 0.16630 0.00700
H 	H 	0.87990 0.24660 0.18750 0.00700
H 	H 	0.83320 0.30520 0.25250 0.09300
H 	H 	0.72410 0.32200 0.36800 0.06900
H 	H 	0.58120 0.30150 0.42340 0.03200
H 	H 	0.62410 0.43900 0.49900 0.03600
H 	H 	0.76320 0.46050 0.44310 0.07200
H 	H 	0.99010 0.51500 0.42840 0.10300
H 	H 	0.09500 0.58690 0.44810 0.00900
H 	H 	0.26040 0.56250 0.31670 0.02100
H 	H 	0.14420 0.49730 0.29100 0.07100
C 	C 	0.94500 0.87340 0.75340 0.38800
C 	C 	0.50200 0.49240 0.65170 0.49000
C 	C 	0.74200 0.59660 0.37630 0.44900
C 	C 	0.05700 0.70560 0.61640 0.08500
C 	C 	0.16700 0.63540 0.59580 0.08600
C 	C 	0.02000 0.65300 0.54280 0.05100
C 	C 	0.03400 0.75010 0.65160 -0.02300
C 	C 	0.94300 0.77800 0.64280 -0.02600
C 	C 	0.91600 0.81710 0.67800 -0.01600
C 	C 	0.98400 0.83200 0.71740 -0.06300
C 	C 	0.07500 0.80420 0.72490 -0.03100
C 	C 	0.10200 0.76490 0.69110 -0.05000
C 	C 	0.25400 0.60000 0.60600 0.04000
C 	C 	0.30000 0.60610 0.65410 -0.09400
C 	C 	0.38200 0.57270 0.66650 0.02300
C 	C 	0.40800 0.53380 0.63100 -0.09700
C 	C 	0.35600 0.52810 0.58440 0.03600
C 	C 	0.27500 0.56110 0.57100 -0.09900
C 	C 	0.94100 0.64190 0.50200 0.06600
C 	C 	0.95600 0.59510 0.47470 -0.06500
C 	C 	0.89300 0.58290 0.43250 0.03800
C 	C 	0.81100 0.61540 0.41860 -0.14800
C 	C 	0.79700 0.66120 0.44620 0.07000
C 	C 	0.86300 0.67590 0.48620 -0.11900
C 	C 	0.94500 0.12660 0.24660 0.38800
C 	C 	0.50200 0.50760 0.34830 0.49000
C 	C 	0.74200 0.40340 0.62370 0.44900
C 	C 	0.05700 0.29440 0.38360 0.08500
C 	C 	0.16700 0.36460 0.40420 0.08600
C 	C 	0.02000 0.34700 0.45720 0.05100
C 	C 	0.03400 0.24990 0.34840 -0.02300
C 	C 	0.94300 0.22200 0.35720 -0.02600
C 	C 	0.91600 0.18290 0.32200 -0.01600
C 	C 	0.98400 0.16800 0.28260 -0.06300
C 	C 	0.07500 0.19580 0.27510 -0.03100
C 	C 	0.10200 0.23510 0.30890 -0.05000
C 	C 	0.25400 0.40000 0.39400 0.04000
C 	C 	0.30000 0.39390 0.34590 -0.09400
C 	C 	0.38200 0.42730 0.33350 0.02300
C 	C 	0.40800 0.46620 0.36900 -0.09700
C 	C 	0.35600 0.47190 0.41560 0.03600
C 	C 	0.27500 0.43890 0.42900 -0.09900
C 	C 	0.94100 0.35810 0.49800 0.06600
C 	C 	0.95600 0.40490 0.52530 -0.06500
C 	C 	0.89300 0.41710 0.56750 0.03800
C 	C 	0.81100 0.38460 0.58140 -0.14800
C 	C 	0.79700 0.33880 0.55380 0.07000
C 	C 	0.86300 0.32410 0.51380 -0.11900
C 	C 	0.44500 0.74660 0.37340 0.38100
C 	C 	0.00200 0.84830 0.99240 0.46400
C 	C 	0.24200 0.12370 0.09660 0.45500
C 	C 	0.55700 0.88360 0.20560 0.09000
C 	C 	0.66700 0.90420 0.13540 0.09400
C 	C 	0.52000 0.95720 0.15300 0.08900
C 	C 	0.53400 0.84840 0.25010 0.04400
C 	C 	0.44300 0.85720 0.27800 -0.10400
C 	C 	0.41600 0.82200 0.31710 0.04000
C 	C 	0.48400 0.78260 0.33200 -0.12800
C 	C 	0.57500 0.77510 0.30420 0.05200
C 	C 	0.60200 0.80890 0.26490 -0.10700
C 	C 	0.75400 0.89400 0.10000 0.03000
C 	C 	0.80000 0.84590 0.10610 -0.07800
C 	C 	0.88200 0.83350 0.07270 0.00700
C 	C 	0.90800 0.86900 0.03380 -0.06400
C 	C 	0.85600 0.91560 0.02810 0.01700
C 	C 	0.77500 0.92900 0.06110 -0.08200
C 	C 	0.44100 0.99800 0.14190 0.05900
C 	C 	0.45600 0.02530 0.09510 -0.11900
C 	C 	0.39300 0.06750 0.08290 0.06500
C 	C 	0.31100 0.08140 0.11540 -0.16500
C 	C 	0.29700 0.05380 0.16120 0.07800
C 	C 	0.36300 0.01380 0.17590 -0.12500
C 	C 	0.44500 0.25340 0.62660 0.38100
C 	C 	0.00200 0.15170 0.00760 0.46400
C 	C 	0.24200 0.87630 0.90340 0.45500
C 	C 	0.55700 0.11640 0.79440 0.09000
C 	C 	0.66700 0.09580 0.86460 0.09400
C 	C 	0.52000 0.04280 0.84700 0.08900
C 	C 	0.53400 0.15160 0.74990 0.04400
C 	C 	0.44300 0.14280 0.72200 -0.10400
C 	C 	0.41600 0.17800 0.68290 0.04000
C 	C 	0.48400 0.21740 0.66800 -0.12800
C 	C 	0.57500 0.22490 0.69580 0.05200
C 	C 	0.60200 0.19110 0.73510 -0.10700
C 	C 	0.75400 0.10600 0.90000 0.03000
C 	C 	0.80000 0.15410 0.89390 -0.07800
C 	C 	0.88200 0.16650 0.92730 0.00700
C 	C 	0.90800 0.13100 0.96620 -0.06400
C 	C 	0.85600 0.08440 0.97190 0.01700
C 	C 	0.77500 0.07100 0.93890 -0.08200
C 	C 	0.44100 0.00200 0.85810 0.05900
C 	C 	0.45600 0.97470 0.90490 -0.11900
C 	C 	0.39300 0.93250 0.91710 0.06500
C 	C 	0.31100 0.91860 0.88460 -0.16500
C 	C 	0.29700 0.94620 0.83880 0.07800
C 	C 	0.36300 0.98620 0.82410 -0.12500
C 	C 	0.55500 0.62660 0.25340 0.38000
C 	C 	0.99800 0.00760 0.15170 0.51000
C 	C 	0.75800 0.90340 0.87630 0.45200
C 	C 	0.44300 0.79440 0.11640 0.08900
C 	C 	0.33300 0.86460 0.09580 0.08700
C 	C 	0.48000 0.84700 0.04280 0.08800
C 	C 	0.46600 0.74990 0.15160 0.04200
C 	C 	0.55700 0.72200 0.14280 -0.10200
C 	C 	0.58400 0.68290 0.17800 0.03800
C 	C 	0.51600 0.66800 0.21740 -0.12600
C 	C 	0.42500 0.69580 0.22490 0.04900
C 	C 	0.39800 0.73510 0.19110 -0.10600
C 	C 	0.24600 0.90000 0.10600 0.04700
C 	C 	0.20000 0.89390 0.15410 -0.10600
C 	C 	0.11800 0.92730 0.16650 0.03700
C 	C 	0.09200 0.96620 0.13100 -0.12600
C 	C 	0.14400 0.97190 0.08440 0.05100
C 	C 	0.22500 0.93890 0.07100 -0.11100
C 	C 	0.55900 0.85810 0.00200 0.05700
C 	C 	0.54400 0.90490 0.97470 -0.11700
C 	C 	0.60700 0.91710 0.93250 0.06200
C 	C 	0.68900 0.88460 0.91860 -0.16000
C 	C 	0.70300 0.83880 0.94620 0.07600
C 	C 	0.63700 0.82410 0.98620 -0.12300
C 	C 	0.55500 0.37340 0.74660 0.38000
C 	C 	0.99800 0.99240 0.84830 0.51000
C 	C 	0.75800 0.09660 0.12370 0.45200
C 	C 	0.44300 0.20560 0.88360 0.08900
C 	C 	0.33300 0.13540 0.90420 0.08700
C 	C 	0.48000 0.15300 0.95720 0.08800
C 	C 	0.46600 0.25010 0.84840 0.04200
C 	C 	0.55700 0.27800 0.85720 -0.10200
C 	C 	0.58400 0.31710 0.82200 0.03800
C 	C 	0.51600 0.33200 0.78260 -0.12600
C 	C 	0.42500 0.30420 0.77510 0.04900
C 	C 	0.39800 0.26490 0.80890 -0.10600
C 	C 	0.24600 0.10000 0.89400 0.04700
C 	C 	0.20000 0.10610 0.84590 -0.10600
C 	C 	0.11800 0.07270 0.83350 0.03700
C 	C 	0.09200 0.03380 0.86900 -0.12600
C 	C 	0.14400 0.02810 0.91560 0.05100
C 	C 	0.22500 0.06110 0.92900 -0.11100
C 	C 	0.55900 0.14190 0.99800 0.05700
C 	C 	0.54400 0.09510 0.02530 -0.11700
C 	C 	0.60700 0.08290 0.06750 0.06200
C 	C 	0.68900 0.11540 0.08140 -0.16000
C 	C 	0.70300 0.16120 0.05380 0.07600
C 	C 	0.63700 0.17590 0.01380 -0.12300
C 	C 	0.05500 0.75340 0.87340 0.37300
C 	C 	0.49800 0.65170 0.49240 0.49000
C 	C 	0.25800 0.37630 0.59660 0.45600
C 	C 	0.94300 0.61640 0.70560 0.09500
C 	C 	0.83300 0.59580 0.63540 0.09500
C 	C 	0.98000 0.54280 0.65300 0.12800
C 	C 	0.96600 0.65160 0.75010 0.10800
C 	C 	0.05700 0.64280 0.77800 -0.18100
C 	C 	0.08400 0.67800 0.81710 0.09400
C 	C 	0.01600 0.71740 0.83200 -0.19200
C 	C 	0.92500 0.72490 0.80420 0.13100
C 	C 	0.89800 0.69110 0.76490 -0.16300
C 	C 	0.74600 0.60600 0.60000 0.03800
C 	C 	0.70000 0.65410 0.60610 -0.09100
C 	C 	0.61800 0.66650 0.57270 0.02200
C 	C 	0.59200 0.63100 0.53380 -0.09600
C 	C 	0.64400 0.58440 0.52810 0.03400
C 	C 	0.72500 0.57100 0.56110 -0.09600
C 	C 	0.05900 0.50200 0.64190 0.04000
C 	C 	0.04400 0.47470 0.59510 -0.16200
C 	C 	0.10700 0.43250 0.58290 0.08300
C 	C 	0.18900 0.41860 0.61540 -0.17200
C 	C 	0.20300 0.44620 0.66120 0.07600
C 	C 	0.13700 0.48620 0.67590 -0.11700
C 	C 	0.05500 0.24660 0.12660 0.37300
C 	C 	0.49800 0.34830 0.50760 0.49000
C 	C 	0.25800 0.62370 0.40340 0.45600
C 	C 	0.94300 0.38360 0.29440 0.09500
C 	C 	0.83300 0.40420 0.36460 0.09500
C 	C 	0.98000 0.45720 0.34700 0.12800
C 	C 	0.96600 0.34840 0.24990 0.10800
C 	C 	0.05700 0.35720 0.22200 -0.18100
C 	C 	0.08400 0.32200 0.18290 0.09400
C 	C 	0.01600 0.28260 0.16800 -0.19200
C 	C 	0.92500 0.27510 0.19580 0.13100
C 	C 	0.89800 0.30890 0.23510 -0.16300
C 	C 	0.74600 0.39400 0.40000 0.03800
C 	C 	0.70000 0.34590 0.39390 -0.09100
C 	C 	0.61800 0.33350 0.42730 0.02200
C 	C 	0.59200 0.36900 0.46620 -0.09600
C 	C 	0.64400 0.41560 0.47190 0.03400
C 	C 	0.72500 0.42900 0.43890 -0.09600
C 	C 	0.05900 0.49800 0.35810 0.04000
C 	C 	0.04400 0.52530 0.40490 -0.16200
C 	C 	0.10700 0.56750 0.41710 0.08300
C 	C 	0.18900 0.58140 0.38460 -0.17200
C 	C 	0.20300 0.55380 0.33880 0.07600
C 	C 	0.13700 0.51380 0.32410 -0.11700
N 	N 	0.99330 0.69390 0.57430 -0.10800
N 	N 	0.13800 0.67350 0.63070 -0.13300
N 	N 	0.10300 0.62120 0.55570 -0.12900
N 	N 	0.99330 0.30610 0.42570 -0.10800
N 	N 	0.13800 0.32650 0.36930 -0.13300
N 	N 	0.10300 0.37880 0.44430 -0.12900
N 	N 	0.49330 0.92570 0.19390 -0.13300
N 	N 	0.63800 0.86930 0.17350 -0.13300
N 	N 	0.60300 0.94430 0.12120 -0.13200
N 	N 	0.49330 0.07430 0.80610 -0.13300
N 	N 	0.63800 0.13070 0.82650 -0.13300
N 	N 	0.60300 0.05570 0.87880 -0.13200
N 	N 	0.50670 0.80610 0.07430 -0.13200
N 	N 	0.36200 0.82650 0.13070 -0.13300
N 	N 	0.39700 0.87880 0.05570 -0.13100
N 	N 	0.50670 0.19390 0.92570 -0.13200
N 	N 	0.36200 0.17350 0.86930 -0.13300
N 	N 	0.39700 0.12120 0.94430 -0.13100
N 	N 	0.00670 0.57430 0.69390 -0.15800
N 	N 	0.86200 0.63070 0.67350 -0.13200
N 	N 	0.89700 0.55570 0.62120 -0.13500
N 	N 	0.00670 0.42570 0.30610 -0.15800
N 	N 	0.86200 0.36930 0.32650 -0.13200
N 	N 	0.89700 0.44430 0.37880 -0.13500
O 	O 	0.00730 0.87770 0.79360 -0.47000
O 	O 	0.86950 0.90210 0.74430 -0.50400
O 	O 	0.50280 0.45750 0.62230 -0.51200
O 	O 	0.55460 0.50500 0.68760 -0.56000
O 	O 	0.75860 0.56190 0.34780 -0.54400
O 	O 	0.66550 0.62980 0.37240 -0.45200
O 	O 	0.00730 0.12230 0.20640 -0.47000
O 	O 	0.86950 0.09790 0.25570 -0.50400
O 	O 	0.50280 0.54250 0.37770 -0.51200
O 	O 	0.55460 0.49500 0.31240 -0.56000
O 	O 	0.75860 0.43810 0.65220 -0.54400
O 	O 	0.66550 0.37020 0.62760 -0.45200
O 	O 	0.50730 0.70640 0.37770 -0.44600
O 	O 	0.36950 0.75570 0.40210 -0.50800
O 	O 	0.00280 0.87770 0.95750 -0.51900
O 	O 	0.05460 0.81240 0.00500 -0.56100
O 	O 	0.25860 0.15220 0.06190 -0.55000
O 	O 	0.16550 0.12760 0.12980 -0.45800
O 	O 	0.50730 0.29360 0.62230 -0.44600
O 	O 	0.36950 0.24430 0.59790 -0.50800
O 	O 	0.00280 0.12230 0.04250 -0.51900
O 	O 	0.05460 0.18760 0.99500 -0.56100
O 	O 	0.25860 0.84780 0.93810 -0.55000
O 	O 	0.16550 0.87240 0.87020 -0.45800
O 	O 	0.49270 0.62230 0.29360 -0.44600
O 	O 	0.63050 0.59790 0.24430 -0.50400
O 	O 	0.99720 0.04250 0.12230 -0.50300
O 	O 	0.94540 0.99500 0.18760 -0.55600
O 	O 	0.74140 0.93810 0.84780 -0.54700
O 	O 	0.83450 0.87020 0.87240 -0.44700
O 	O 	0.49270 0.37770 0.70640 -0.44600
O 	O 	0.63050 0.40210 0.75570 -0.50400
O 	O 	0.99720 0.95750 0.87770 -0.50300
O 	O 	0.94540 0.00500 0.81240 -0.55600
O 	O 	0.74140 0.06190 0.15220 -0.54700
O 	O 	0.83450 0.12980 0.12760 -0.44700
O 	O 	0.99270 0.79360 0.87770 -0.41900
O 	O 	0.13050 0.74430 0.90210 -0.50800
O 	O 	0.49720 0.62230 0.45750 -0.51200
O 	O 	0.44540 0.68760 0.50500 -0.56100
O 	O 	0.24140 0.34780 0.56190 -0.55200
O 	O 	0.33450 0.37240 0.62980 -0.45500
O 	O 	0.99270 0.20640 0.12230 -0.41900
O 	O 	0.13050 0.25570 0.09790 -0.50800
O 	O 	0.49720 0.37770 0.54250 -0.51200
O 	O 	0.44540 0.31240 0.49500 -0.56100
O 	O 	0.24140 0.65220 0.43810 -0.55200
O 	O 	0.33450 0.62760 0.37020 -0.45500
