data_crystal

_cell_length_a 8.98600
_cell_length_b 14.91500
_cell_length_c 26.75900
_cell_angle_alpha 96.27200
_cell_angle_beta  90.00000
_cell_angle_gamma 90.00000

_symmetry_space_group_name_	'P 1'
_symmetry_space_group_name_H-M	'P 1'

loop_
_symmetry_equiv_pos_as_xyz
  x,y,z

loop_
_atom_site_label
_atom_site_type_symbol
_atom_site_fract_x
_atom_site_fract_y
_atom_site_fract_z
_atom_site_charge
Cd	Cd	0.81228 0.55884 0.85851 1.22300
Cd	Cd	0.68772 0.05884 0.35851 1.22300
H 	H 	0.99760 0.40860 0.99610 0.05300
H 	H 	0.98220 0.24850 0.86540 0.04100
H 	H 	0.40240 0.68200 0.97490 0.04500
H 	H 	0.25760 0.79820 0.01260 0.06900
H 	H 	0.46440 0.97100 0.93070 0.06400
H 	H 	0.60850 0.85430 0.89330 0.04100
H 	H 	0.23090 0.92160 0.06830 0.07300
H 	H 	0.03130 0.16170 0.06590 0.07000
H 	H 	0.25620 0.05170 0.94490 0.07200
H 	H 	0.22980 0.97120 0.15650 0.06600
H 	H 	0.12430 0.96520 0.23470 0.03900
H 	H 	0.75840 0.08640 0.19110 0.03900
H 	H 	0.86240 0.09600 0.11310 0.06500
H 	H 	0.09160 0.29130 0.03550 0.05200
H 	H 	0.07630 0.13090 0.90500 0.07100
H 	H 	0.50240 0.90860 0.49610 0.05600
H 	H 	0.51780 0.74850 0.36540 0.04500
H 	H 	0.09760 0.18200 0.47490 0.04400
H 	H 	0.24240 0.29820 0.51260 0.06800
H 	H 	0.03560 0.47100 0.43070 0.06400
H 	H 	0.89150 0.35430 0.39330 0.04200
H 	H 	0.26910 0.42160 0.56830 0.07400
H 	H 	0.46870 0.66170 0.56590 0.07100
H 	H 	0.24380 0.55170 0.44490 0.07400
H 	H 	0.27020 0.47120 0.65650 0.06500
H 	H 	0.37570 0.46520 0.73470 0.03900
H 	H 	0.74160 0.58640 0.69110 0.03900
H 	H 	0.63760 0.59600 0.61310 0.06400
H 	H 	0.40840 0.79130 0.53550 0.04800
H 	H 	0.42370 0.63090 0.40500 0.06700
C 	C 	0.01240 0.35270 0.97771 0.01500
C 	C 	0.97750 0.34120 0.92673 -0.09000
C 	C 	0.00320 0.25710 0.89967 0.02500
C 	C 	0.91820 0.41710 0.90118 0.31800
C 	C 	0.86120 0.02330 0.27187 0.31800
C 	C 	0.52200 0.75590 0.93107 -0.08500
C 	C 	0.41590 0.74020 0.96628 0.01800
C 	C 	0.32890 0.81010 0.98902 -0.09600
C 	C 	0.34760 0.89820 0.97671 0.02700
C 	C 	0.45240 0.91320 0.94009 -0.09200
C 	C 	0.53880 0.84320 0.91759 0.01700
C 	C 	0.25810 0.97420 0.00248 0.05200
C 	C 	0.20740 0.97100 0.05141 -0.12000
C 	C 	0.12140 0.04100 0.07540 0.05200
C 	C 	0.08800 0.11480 0.05001 -0.11200
C 	C 	0.13810 0.12010 0.00097 0.05300
C 	C 	0.22280 0.04910 0.97757 -0.11300
C 	C 	0.05880 0.03570 0.12608 0.03100
C 	C 	0.13560 0.99540 0.16323 -0.09700
C 	C 	0.07150 0.99130 0.21011 0.02100
C 	C 	0.93140 0.02510 0.22085 -0.08900
C 	C 	0.85360 0.06380 0.18423 0.02000
C 	C 	0.91600 0.06950 0.13736 -0.10000
C 	C 	0.09140 0.19770 0.97473 0.03200
C 	C 	0.06860 0.28230 0.00140 -0.08500
C 	C 	0.05950 0.18650 0.92344 -0.09800
C 	C 	0.61970 0.68200 0.90712 0.30900
C 	C 	0.48760 0.85270 0.47771 0.00400
C 	C 	0.52250 0.84120 0.42673 -0.08100
C 	C 	0.49680 0.75710 0.39967 0.01400
C 	C 	0.58180 0.91710 0.40118 0.31500
C 	C 	0.63880 0.52330 0.77187 0.32000
C 	C 	0.97800 0.25590 0.43107 -0.08600
C 	C 	0.08410 0.24020 0.46628 0.01800
C 	C 	0.17110 0.31010 0.48902 -0.09500
C 	C 	0.15240 0.39820 0.47671 0.02600
C 	C 	0.04760 0.41320 0.44009 -0.09100
C 	C 	0.96120 0.34320 0.41759 0.01700
C 	C 	0.24190 0.47420 0.50248 0.05500
C 	C 	0.29260 0.47100 0.55141 -0.12200
C 	C 	0.37860 0.54100 0.57540 0.05500
C 	C 	0.41200 0.61480 0.55001 -0.11600
C 	C 	0.36190 0.62010 0.50097 0.05900
C 	C 	0.27720 0.54910 0.47757 -0.11900
C 	C 	0.44120 0.53570 0.62608 0.02900
C 	C 	0.36440 0.49540 0.66323 -0.09500
C 	C 	0.42850 0.49130 0.71011 0.02100
C 	C 	0.56860 0.52510 0.72085 -0.08900
C 	C 	0.64640 0.56380 0.68423 0.02000
C 	C 	0.58400 0.56950 0.63736 -0.09800
C 	C 	0.40860 0.69770 0.47473 0.02300
C 	C 	0.43140 0.78230 0.50140 -0.07500
C 	C 	0.44050 0.68650 0.42344 -0.08900
C 	C 	0.88030 0.18200 0.40712 0.30900
O 	O 	0.93260 0.99530 0.30655 -0.31300
O 	O 	0.73040 0.05400 0.27676 -0.40800
O 	O 	0.88420 0.40537 0.85620 -0.37300
O 	O 	0.90340 0.49323 0.92633 -0.38700
O 	O 	0.72150 0.70045 0.87829 -0.40100
O 	O 	0.59740 0.60220 0.91720 -0.32900
O 	O 	0.56740 0.49530 0.80655 -0.31500
O 	O 	0.76960 0.55400 0.77676 -0.40800
O 	O 	0.61580 0.90537 0.35620 -0.37200
O 	O 	0.59660 0.99323 0.42633 -0.38600
O 	O 	0.77850 0.20045 0.37829 -0.40100
O 	O 	0.90260 0.10220 0.41720 -0.33000
Cd	Cd	0.31228 0.94116 0.64149 1.22200
Cd	Cd	0.18772 0.44116 0.14149 1.22200
H 	H 	0.49760 0.09140 0.50390 0.05600
H 	H 	0.48220 0.25150 0.63460 0.04500
H 	H 	0.90240 0.81800 0.52510 0.04400
H 	H 	0.75760 0.70180 0.48740 0.06800
H 	H 	0.96440 0.52900 0.56930 0.06400
H 	H 	0.10850 0.64570 0.60670 0.04200
H 	H 	0.73090 0.57840 0.43170 0.07400
H 	H 	0.53130 0.33830 0.43410 0.07100
H 	H 	0.75620 0.44830 0.55510 0.07400
H 	H 	0.72980 0.52880 0.34350 0.06500
H 	H 	0.62430 0.53480 0.26530 0.03900
H 	H 	0.25840 0.41360 0.30890 0.03900
H 	H 	0.36240 0.40400 0.38690 0.06400
H 	H 	0.59160 0.20870 0.46450 0.04800
H 	H 	0.57630 0.36910 0.59500 0.06700
H 	H 	0.00240 0.59140 0.00390 0.05200
H 	H 	0.01780 0.75150 0.13460 0.04000
H 	H 	0.59760 0.31800 0.02510 0.04400
H 	H 	0.74240 0.20180 0.98740 0.06800
H 	H 	0.53560 0.02900 0.06930 0.06400
H 	H 	0.39150 0.14570 0.10670 0.04100
H 	H 	0.76910 0.07840 0.93170 0.07300
H 	H 	0.96870 0.83830 0.93410 0.07000
H 	H 	0.74380 0.94830 0.05510 0.07200
H 	H 	0.77020 0.02880 0.84350 0.06600
H 	H 	0.87570 0.03480 0.76530 0.03900
H 	H 	0.24160 0.91360 0.80890 0.03900
H 	H 	0.13760 0.90400 0.88690 0.06500
H 	H 	0.90840 0.70870 0.96450 0.05200
H 	H 	0.92370 0.86910 0.09500 0.07100
C 	C 	0.51240 0.14730 0.52229 0.00400
C 	C 	0.47750 0.15880 0.57327 -0.08100
C 	C 	0.50320 0.24290 0.60033 0.01400
C 	C 	0.41820 0.08290 0.59882 0.31500
C 	C 	0.36120 0.47670 0.22813 0.32000
C 	C 	0.02200 0.74410 0.56893 -0.08600
C 	C 	0.91590 0.75980 0.53372 0.01800
C 	C 	0.82890 0.68990 0.51098 -0.09500
C 	C 	0.84760 0.60180 0.52329 0.02600
C 	C 	0.95240 0.58680 0.55991 -0.09100
C 	C 	0.03880 0.65680 0.58241 0.01700
C 	C 	0.75810 0.52580 0.49752 0.05500
C 	C 	0.70740 0.52900 0.44859 -0.12200
C 	C 	0.62140 0.45900 0.42460 0.05500
C 	C 	0.58800 0.38520 0.44999 -0.11600
C 	C 	0.63810 0.37990 0.49903 0.05900
C 	C 	0.72280 0.45090 0.52243 -0.11900
C 	C 	0.55880 0.46430 0.37392 0.02900
C 	C 	0.63560 0.50460 0.33677 -0.09500
C 	C 	0.57150 0.50870 0.28989 0.02100
C 	C 	0.43140 0.47490 0.27915 -0.08900
C 	C 	0.35360 0.43620 0.31577 0.02000
C 	C 	0.41600 0.43050 0.36264 -0.09800
C 	C 	0.59140 0.30230 0.52527 0.02300
C 	C 	0.56860 0.21770 0.49860 -0.07500
C 	C 	0.55950 0.31350 0.57656 -0.08900
C 	C 	0.11970 0.81800 0.59288 0.30900
C 	C 	0.98760 0.64730 0.02229 0.01500
C 	C 	0.02250 0.65880 0.07327 -0.09000
C 	C 	0.99680 0.74290 0.10033 0.02500
C 	C 	0.08180 0.58290 0.09882 0.31800
C 	C 	0.13880 0.97670 0.72813 0.31800
C 	C 	0.47800 0.24410 0.06893 -0.08500
C 	C 	0.58410 0.25980 0.03372 0.01800
C 	C 	0.67110 0.18990 0.01098 -0.09600
C 	C 	0.65240 0.10180 0.02329 0.02700
C 	C 	0.54760 0.08680 0.05991 -0.09200
C 	C 	0.46120 0.15680 0.08241 0.01700
C 	C 	0.74190 0.02580 0.99752 0.05200
C 	C 	0.79260 0.02900 0.94859 -0.12000
C 	C 	0.87860 0.95900 0.92460 0.05200
C 	C 	0.91200 0.88520 0.94999 -0.11200
C 	C 	0.86190 0.87990 0.99903 0.05300
C 	C 	0.77720 0.95090 0.02243 -0.11300
C 	C 	0.94120 0.96430 0.87392 0.03100
C 	C 	0.86440 0.00460 0.83677 -0.09700
C 	C 	0.92850 0.00870 0.78989 0.02100
C 	C 	0.06860 0.97490 0.77915 -0.08900
C 	C 	0.14640 0.93620 0.81577 0.02000
C 	C 	0.08400 0.93050 0.86264 -0.10000
C 	C 	0.90860 0.80230 0.02527 0.03200
C 	C 	0.93140 0.71770 0.99860 -0.08500
C 	C 	0.94050 0.81350 0.07656 -0.09800
C 	C 	0.38030 0.31800 0.09288 0.30900
O 	O 	0.43260 0.50470 0.19345 -0.31500
O 	O 	0.23040 0.44600 0.22324 -0.40800
O 	O 	0.38420 0.09463 0.64380 -0.37200
O 	O 	0.40340 0.00677 0.57367 -0.38600
O 	O 	0.22150 0.79955 0.62171 -0.40100
O 	O 	0.09740 0.89780 0.58280 -0.33000
O 	O 	0.06740 0.00470 0.69345 -0.31300
O 	O 	0.26960 0.94600 0.72324 -0.40800
O 	O 	0.11580 0.59463 0.14380 -0.37300
O 	O 	0.09660 0.50677 0.07367 -0.38700
O 	O 	0.27850 0.29955 0.12171 -0.40100
O 	O 	0.40260 0.39780 0.08280 -0.32900
