data_crystal

_cell_length_a 10.75740
_cell_length_b 15.81350
_cell_length_c 17.49570
_cell_angle_alpha 114.10700
_cell_angle_beta  104.09300
_cell_angle_gamma 98.13200

_symmetry_space_group_name_	'P 1'
_symmetry_space_group_name_H-M	'P 1'

loop_
_symmetry_equiv_pos_as_xyz
  x,y,z

loop_
_atom_site_label
_atom_site_type_symbol
_atom_site_fract_x
_atom_site_fract_y
_atom_site_fract_z
_atom_site_charge
Mg	Mg	0.50000 0.00000 0.50000 1.45800
Mg	Mg	0.50000 0.50000 0.50000 1.46300
H 	H 	0.49160 0.08010 0.96180 0.06800
H 	H 	0.39120 0.08800 0.83300 0.02000
H 	H 	0.70970 0.04230 0.75500 0.00900
H 	H 	0.80990 0.03070 0.88220 0.06000
H 	H 	0.67710 0.15890 0.09940 0.05200
H 	H 	0.59880 0.12860 0.24080 0.06200
H 	H 	0.57190 0.24770 0.36500 0.02200
H 	H 	0.94990 0.40310 0.43940 0.04500
H 	H 	0.97730 0.28520 0.31480 0.09200
H 	H 	0.97020 0.88170 0.96180 0.07400
H 	H 	0.94180 0.74500 0.83300 0.03100
H 	H 	0.54530 0.71270 0.75500 0.02700
H 	H 	0.57230 0.85150 0.88220 0.07200
H 	H 	0.92230 0.94050 0.09940 0.04400
H 	H 	0.14200 0.11220 0.24080 0.07700
H 	H 	0.29310 0.11730 0.36500 0.01000
H 	H 	0.98950 0.03630 0.43940 0.01900
H 	H 	0.83750 0.02960 0.31480 0.08900
H 	H 	0.50840 0.91990 0.03820 0.07700
H 	H 	0.60880 0.91200 0.16700 0.04200
H 	H 	0.29030 0.95770 0.24500 0.04100
H 	H 	0.19010 0.96930 0.11780 0.07900
H 	H 	0.32290 0.84110 0.90060 0.05400
H 	H 	0.40120 0.87140 0.75920 0.09300
H 	H 	0.42810 0.75230 0.63500 0.02500
H 	H 	0.05010 0.59690 0.56060 0.04300
H 	H 	0.02270 0.71480 0.68520 0.09700
H 	H 	0.02980 0.11830 0.03820 0.07000
H 	H 	0.05820 0.25500 0.16700 0.03000
H 	H 	0.45470 0.28730 0.24500 0.02400
H 	H 	0.42770 0.14850 0.11780 0.06600
H 	H 	0.07770 0.05950 0.90060 0.06300
H 	H 	0.85800 0.88780 0.75920 0.07800
H 	H 	0.70690 0.88270 0.63500 0.03600
H 	H 	0.01050 0.96370 0.56060 0.06500
H 	H 	0.16250 0.97040 0.68520 0.10300
C 	C 	0.65852 0.05002 0.93504 0.06500
C 	C 	0.53526 0.06976 0.91892 -0.13600
C 	C 	0.47554 0.07484 0.84228 0.05100
C 	C 	0.53733 0.06093 0.77806 -0.14400
C 	C 	0.66356 0.04736 0.79592 0.05300
C 	C 	0.72381 0.04111 0.87202 -0.13300
C 	C 	0.72544 0.04454 0.01748 -0.06500
C 	C 	0.72783 0.11433 0.09926 -0.05900
C 	C 	0.80129 0.12209 0.18118 -0.00100
C 	C 	0.79075 0.19695 0.26450 0.06100
C 	C 	0.66988 0.18478 0.28036 -0.11900
C 	C 	0.65445 0.25575 0.35470 0.04300
C 	C 	0.75687 0.33747 0.41354 -0.12700
C 	C 	0.87787 0.34787 0.39874 0.04900
C 	C 	0.89414 0.27744 0.32428 -0.11400
C 	C 	0.46912 0.05792 0.69084 0.38100
C 	C 	0.73498 0.41268 0.49056 0.35200
C 	C 	0.77652 0.88502 0.93504 0.05200
C 	C 	0.88366 0.84916 0.91892 -0.10800
C 	C 	0.86674 0.76744 0.84228 0.04300
C 	C 	0.74073 0.71713 0.77806 -0.12300
C 	C 	0.63236 0.74856 0.79592 0.04400
C 	C 	0.64821 0.83091 0.87202 -0.10300
C 	C 	0.79204 0.97294 0.01748 0.03200
C 	C 	0.87143 0.98493 0.09926 0.00600
C 	C 	0.87989 0.05909 0.18118 -0.07800
C 	C 	0.97375 0.06755 0.26450 0.09100
C 	C 	0.11048 0.09558 0.28036 -0.14900
C 	C 	0.20025 0.09895 0.35470 0.06300
C 	C 	0.15667 0.07607 0.41354 -0.15400
C 	C 	0.02087 0.05087 0.39874 0.07700
C 	C 	0.93014 0.04684 0.32428 -0.15200
C 	C 	0.72172 0.63292 0.69084 0.37700
C 	C 	0.25558 0.07788 0.49056 0.36100
C 	C 	0.34148 0.94998 0.06496 0.05800
C 	C 	0.46474 0.93024 0.08108 -0.10200
C 	C 	0.52446 0.92516 0.15772 0.04400
C 	C 	0.46267 0.93907 0.22194 -0.10900
C 	C 	0.33644 0.95264 0.20408 0.04400
C 	C 	0.27619 0.95889 0.12798 -0.09700
C 	C 	0.27456 0.95546 0.98252 0.03200
C 	C 	0.27217 0.88567 0.90074 -0.05800
C 	C 	0.19871 0.87791 0.81882 -0.02300
C 	C 	0.20925 0.80305 0.73550 0.08400
C 	C 	0.33012 0.81522 0.71964 -0.13300
C 	C 	0.34555 0.74425 0.64530 0.06000
C 	C 	0.24313 0.66253 0.58646 -0.13300
C 	C 	0.12213 0.65213 0.60126 0.06100
C 	C 	0.10586 0.72256 0.67572 -0.12800
C 	C 	0.53088 0.94208 0.30916 0.37500
C 	C 	0.26502 0.58732 0.50944 0.35600
C 	C 	0.22348 0.11498 0.06496 0.06400
C 	C 	0.11634 0.15084 0.08108 -0.12700
C 	C 	0.13326 0.23256 0.15772 0.04900
C 	C 	0.25927 0.28287 0.22194 -0.12900
C 	C 	0.36764 0.25144 0.20408 0.05000
C 	C 	0.35179 0.16909 0.12798 -0.12400
C 	C 	0.20796 0.02706 0.98252 -0.05500
C 	C 	0.12857 0.01507 0.90074 -0.12200
C 	C 	0.12011 0.94091 0.81882 0.05000
C 	C 	0.02625 0.93245 0.73550 0.05500
C 	C 	0.88952 0.90442 0.71964 -0.10300
C 	C 	0.79975 0.90105 0.64530 0.04200
C 	C 	0.84333 0.92393 0.58646 -0.10900
C 	C 	0.97913 0.94913 0.60126 0.04100
C 	C 	0.06986 0.95316 0.67572 -0.09500
C 	C 	0.27828 0.36708 0.30916 0.37900
C 	C 	0.74442 0.92212 0.50944 0.34900
O 	O 	0.52256 0.03526 0.63272 -0.51000
O 	O 	0.35811 0.07871 0.68342 -0.26900
O 	O 	0.62253 0.40823 0.49646 -0.48000
O 	O 	0.83974 0.48304 0.54788 -0.24500
O 	O 	0.61016 0.59746 0.63272 -0.48900
O 	O 	0.82531 0.60471 0.68342 -0.25600
O 	O 	0.37393 0.08823 0.49646 -0.49600
O 	O 	0.20814 0.06484 0.54788 -0.26100
O 	O 	0.47744 0.96474 0.36728 -0.46600
O 	O 	0.64189 0.92129 0.31658 -0.23900
O 	O 	0.37747 0.59177 0.50354 -0.47900
O 	O 	0.16026 0.51696 0.45212 -0.24300
O 	O 	0.38984 0.40254 0.36728 -0.48900
O 	O 	0.17469 0.39529 0.31658 -0.25300
O 	O 	0.62607 0.91177 0.50354 -0.46200
O 	O 	0.79186 0.93516 0.45212 -0.22500
