data_crystal

_cell_length_a 13.84600
_cell_length_b 16.95400
_cell_length_c 16.95400
_cell_angle_alpha 120.00000
_cell_angle_beta  90.00000
_cell_angle_gamma 90.00000

_symmetry_space_group_name_	'P 1'
_symmetry_space_group_name_H-M	'P 1'

loop_
_symmetry_equiv_pos_as_xyz
  x,y,z

loop_
_atom_site_label
_atom_site_type_symbol
_atom_site_fract_x
_atom_site_fract_y
_atom_site_fract_z
_atom_site_charge
Ni	Ni	0.39827 0.33333 0.66666 1.10500
Ni	Ni	0.10173 0.33333 0.66666 1.10500
Ni	Ni	0.60173 0.66667 0.33334 1.10500
Ni	Ni	0.89827 0.66667 0.33334 1.10500
H 	H 	0.11200 0.06680 0.49470 0.09700
H 	H 	0.08760 0.78330 0.41870 -0.00900
H 	H 	0.84740 0.77720 0.21430 0.08500
H 	H 	0.83640 0.89580 0.18350 0.03200
H 	H 	0.94470 0.01550 0.24510 0.04100
H 	H 	0.06390 0.02510 0.34640 0.06500
H 	H 	0.11200 0.42790 0.93320 0.09600
H 	H 	0.08760 0.63540 0.21670 -0.01000
H 	H 	0.84740 0.43710 0.22280 0.08400
H 	H 	0.83640 0.28770 0.10420 0.03100
H 	H 	0.94470 0.22960 0.98450 0.04100
H 	H 	0.06390 0.32130 0.97490 0.06500
H 	H 	0.11200 0.50530 0.57210 0.09600
H 	H 	0.08760 0.58130 0.36460 -0.01000
H 	H 	0.84740 0.78570 0.56290 0.08500
H 	H 	0.83640 0.81650 0.71230 0.03000
H 	H 	0.94470 0.75490 0.77040 0.04200
H 	H 	0.06390 0.65360 0.67870 0.06300
H 	H 	0.38800 0.42790 0.49470 0.09600
H 	H 	0.41240 0.63540 0.41870 -0.01000
H 	H 	0.65260 0.43710 0.21430 0.08500
H 	H 	0.66360 0.28770 0.18350 0.03000
H 	H 	0.55530 0.22960 0.24510 0.04200
H 	H 	0.43610 0.32130 0.34640 0.06300
H 	H 	0.38800 0.50530 0.93320 0.09600
H 	H 	0.41240 0.58130 0.21670 -0.01000
H 	H 	0.65260 0.78570 0.22280 0.08400
H 	H 	0.66360 0.81650 0.10420 0.03000
H 	H 	0.55530 0.75490 0.98450 0.04200
H 	H 	0.43610 0.65360 0.97490 0.06300
H 	H 	0.38800 0.06680 0.57210 0.09600
H 	H 	0.41240 0.78330 0.36460 -0.01000
H 	H 	0.65260 0.77720 0.56290 0.08400
H 	H 	0.66360 0.89580 0.71230 0.03000
H 	H 	0.55530 0.01550 0.77040 0.04200
H 	H 	0.43610 0.02510 0.67870 0.06300
H 	H 	0.88800 0.93320 0.50530 0.09600
H 	H 	0.91240 0.21670 0.58130 -0.01000
H 	H 	0.15260 0.22280 0.78570 0.08400
H 	H 	0.16360 0.10420 0.81650 0.03100
H 	H 	0.05530 0.98450 0.75490 0.04100
H 	H 	0.93610 0.97490 0.65360 0.06500
H 	H 	0.88800 0.57210 0.06680 0.09600
H 	H 	0.91240 0.36460 0.78330 -0.01000
H 	H 	0.15260 0.56290 0.77720 0.08400
H 	H 	0.16360 0.71230 0.89580 0.03100
H 	H 	0.05530 0.77040 0.01550 0.04100
H 	H 	0.93610 0.67870 0.02510 0.06500
H 	H 	0.88800 0.49470 0.42790 0.09600
H 	H 	0.91240 0.41870 0.63540 -0.01000
H 	H 	0.15260 0.21430 0.43710 0.08500
H 	H 	0.16360 0.18350 0.28770 0.03000
H 	H 	0.05530 0.24510 0.22960 0.04200
H 	H 	0.93610 0.34640 0.32130 0.06300
H 	H 	0.61200 0.57210 0.50530 0.09600
H 	H 	0.58760 0.36460 0.58130 -0.01000
H 	H 	0.34740 0.56290 0.78570 0.08500
H 	H 	0.33640 0.71230 0.81650 0.03000
H 	H 	0.44470 0.77040 0.75490 0.04200
H 	H 	0.56390 0.67870 0.65360 0.06300
H 	H 	0.61200 0.49470 0.06680 0.09600
H 	H 	0.58760 0.41870 0.78330 -0.01000
H 	H 	0.34740 0.21430 0.77720 0.08400
H 	H 	0.33640 0.18350 0.89580 0.03000
H 	H 	0.44470 0.24510 0.01550 0.04200
H 	H 	0.56390 0.34640 0.02510 0.06300
H 	H 	0.61200 0.93320 0.42790 0.09600
H 	H 	0.58760 0.21670 0.63540 -0.01000
H 	H 	0.34740 0.22280 0.43710 0.08400
H 	H 	0.33640 0.10420 0.28770 0.03000
H 	H 	0.44470 0.98450 0.22960 0.04200
H 	H 	0.56390 0.97490 0.32130 0.06300
H 	H 	0.25000 0.82990 0.41495 0.10900
H 	H 	0.25000 0.58505 0.17010 0.10900
H 	H 	0.25000 0.58505 0.41495 0.10900
H 	H 	0.75000 0.17010 0.58505 0.10900
H 	H 	0.75000 0.41495 0.82990 0.10900
H 	H 	0.75000 0.41495 0.58505 0.10900
C 	C 	0.16730 0.03534 0.49398 -0.14400
C 	C 	0.16885 0.94147 0.44627 0.16000
C 	C 	0.05757 0.80940 0.38818 0.09200
C 	C 	0.96150 0.83160 0.30136 0.07000
C 	C 	0.88980 0.82620 0.24090 -0.11500
C 	C 	0.88450 0.89690 0.22230 -0.00800
C 	C 	0.94950 0.97010 0.26050 -0.03200
C 	C 	0.02100 0.97640 0.32070 -0.08800
C 	C 	0.02540 0.90660 0.34080 0.05800
C 	C 	0.16730 0.45864 0.96466 -0.14400
C 	C 	0.16885 0.50480 0.05853 0.16000
C 	C 	0.05757 0.57878 0.19060 0.09200
C 	C 	0.96150 0.46976 0.16840 0.07000
C 	C 	0.88980 0.41470 0.17380 -0.11500
C 	C 	0.88450 0.32540 0.10310 -0.00800
C 	C 	0.94950 0.29040 0.02990 -0.03300
C 	C 	0.02100 0.34430 0.02360 -0.08700
C 	C 	0.02540 0.43420 0.09340 0.05800
C 	C 	0.16730 0.50602 0.54136 -0.14500
C 	C 	0.16885 0.55373 0.49520 0.16100
C 	C 	0.05757 0.61182 0.42122 0.09200
C 	C 	0.96150 0.69864 0.53024 0.07000
C 	C 	0.88980 0.75910 0.58530 -0.11600
C 	C 	0.88450 0.77770 0.67460 -0.00600
C 	C 	0.94950 0.73950 0.70960 -0.03600
C 	C 	0.02100 0.67930 0.65570 -0.08400
C 	C 	0.02540 0.65920 0.56580 0.05700
C 	C 	0.33270 0.45864 0.49398 -0.14500
C 	C 	0.33115 0.50480 0.44627 0.16100
C 	C 	0.44243 0.57878 0.38818 0.09200
C 	C 	0.53850 0.46976 0.30136 0.07000
C 	C 	0.61020 0.41470 0.24090 -0.11600
C 	C 	0.61550 0.32540 0.22230 -0.00600
C 	C 	0.55050 0.29040 0.26050 -0.03600
C 	C 	0.47900 0.34430 0.32070 -0.08400
C 	C 	0.47460 0.43420 0.34080 0.05700
C 	C 	0.33270 0.50602 0.96466 -0.14400
C 	C 	0.33115 0.55373 0.05853 0.16000
C 	C 	0.44243 0.61182 0.19060 0.09200
C 	C 	0.53850 0.69864 0.16840 0.07000
C 	C 	0.61020 0.75910 0.17380 -0.11600
C 	C 	0.61550 0.77770 0.10310 -0.00600
C 	C 	0.55050 0.73950 0.02990 -0.03600
C 	C 	0.47900 0.67930 0.02360 -0.08400
C 	C 	0.47460 0.65920 0.09340 0.05700
C 	C 	0.33270 0.03534 0.54136 -0.14400
C 	C 	0.33115 0.94147 0.49520 0.16000
C 	C 	0.44243 0.80940 0.42122 0.09200
C 	C 	0.53850 0.83160 0.53024 0.07000
C 	C 	0.61020 0.82620 0.58530 -0.11600
C 	C 	0.61550 0.89690 0.67460 -0.00600
C 	C 	0.55050 0.97010 0.70960 -0.03600
C 	C 	0.47900 0.97640 0.65570 -0.08400
C 	C 	0.47460 0.90660 0.56580 0.05700
C 	C 	0.83270 0.96466 0.50602 -0.14400
C 	C 	0.83115 0.05853 0.55373 0.16000
C 	C 	0.94243 0.19060 0.61182 0.09200
C 	C 	0.03850 0.16840 0.69864 0.07000
C 	C 	0.11020 0.17380 0.75910 -0.11500
C 	C 	0.11550 0.10310 0.77770 -0.00800
C 	C 	0.05050 0.02990 0.73950 -0.03200
C 	C 	0.97900 0.02360 0.67930 -0.08800
C 	C 	0.97460 0.09340 0.65920 0.05800
C 	C 	0.83270 0.54136 0.03534 -0.14400
C 	C 	0.83115 0.49520 0.94147 0.16000
C 	C 	0.94243 0.42122 0.80940 0.09200
C 	C 	0.03850 0.53024 0.83160 0.07000
C 	C 	0.11020 0.58530 0.82620 -0.11500
C 	C 	0.11550 0.67460 0.89690 -0.00800
C 	C 	0.05050 0.70960 0.97010 -0.03300
C 	C 	0.97900 0.65570 0.97640 -0.08700
C 	C 	0.97460 0.56580 0.90660 0.05800
C 	C 	0.83270 0.49398 0.45864 -0.14500
C 	C 	0.83115 0.44627 0.50480 0.16100
C 	C 	0.94243 0.38818 0.57878 0.09200
C 	C 	0.03850 0.30136 0.46976 0.07000
C 	C 	0.11020 0.24090 0.41470 -0.11600
C 	C 	0.11550 0.22230 0.32540 -0.00600
C 	C 	0.05050 0.26050 0.29040 -0.03600
C 	C 	0.97900 0.32070 0.34430 -0.08400
C 	C 	0.97460 0.34080 0.43420 0.05700
C 	C 	0.66730 0.54136 0.50602 -0.14500
C 	C 	0.66885 0.49520 0.55373 0.16100
C 	C 	0.55757 0.42122 0.61182 0.09200
C 	C 	0.46150 0.53024 0.69864 0.07000
C 	C 	0.38980 0.58530 0.75910 -0.11600
C 	C 	0.38450 0.67460 0.77770 -0.00600
C 	C 	0.44950 0.70960 0.73950 -0.03600
C 	C 	0.52100 0.65570 0.67930 -0.08400
C 	C 	0.52540 0.56580 0.65920 0.05700
C 	C 	0.66730 0.49398 0.03534 -0.14400
C 	C 	0.66885 0.44627 0.94147 0.16000
C 	C 	0.55757 0.38818 0.80940 0.09200
C 	C 	0.46150 0.30136 0.83160 0.07000
C 	C 	0.38980 0.24090 0.82620 -0.11600
C 	C 	0.38450 0.22230 0.89690 -0.00600
C 	C 	0.44950 0.26050 0.97010 -0.03600
C 	C 	0.52100 0.32070 0.97640 -0.08400
C 	C 	0.52540 0.34080 0.90660 0.05700
C 	C 	0.66730 0.96466 0.45864 -0.14400
C 	C 	0.66885 0.05853 0.50480 0.16000
C 	C 	0.55757 0.19060 0.57878 0.09200
C 	C 	0.46150 0.16840 0.46976 0.07000
C 	C 	0.38980 0.17380 0.41470 -0.11600
C 	C 	0.38450 0.10310 0.32540 -0.00600
C 	C 	0.44950 0.02990 0.29040 -0.03600
C 	C 	0.52100 0.02360 0.34430 -0.08400
C 	C 	0.52540 0.09340 0.43420 0.05700
C 	C 	0.25000 0.18480 0.59240 0.32600
C 	C 	0.25000 0.08240 0.54120 0.01100
C 	C 	0.25000 0.89320 0.44660 -0.21200
C 	C 	0.25000 0.40760 0.81520 0.32600
C 	C 	0.25000 0.45880 0.91760 0.01100
C 	C 	0.25000 0.55340 0.10680 -0.21200
C 	C 	0.25000 0.40760 0.59240 0.32600
C 	C 	0.25000 0.45880 0.54120 0.01200
C 	C 	0.25000 0.55340 0.44660 -0.21300
C 	C 	0.75000 0.81520 0.40760 0.32600
C 	C 	0.75000 0.91760 0.45880 0.01100
C 	C 	0.75000 0.10680 0.55340 -0.21200
C 	C 	0.75000 0.59240 0.18480 0.32600
C 	C 	0.75000 0.54120 0.08240 0.01100
C 	C 	0.75000 0.44660 0.89320 -0.21200
C 	C 	0.75000 0.59240 0.40760 0.32600
C 	C 	0.75000 0.54120 0.45880 0.01200
C 	C 	0.75000 0.44660 0.55340 -0.21300
N 	N 	0.08583 0.89055 0.39654 -0.15600
N 	N 	0.98406 0.77193 0.33310 -0.22300
N 	N 	0.08583 0.50599 0.10945 -0.15600
N 	N 	0.98406 0.56117 0.22807 -0.22300
N 	N 	0.08583 0.60346 0.49401 -0.15600
N 	N 	0.98406 0.66690 0.43883 -0.22400
N 	N 	0.41417 0.50599 0.39654 -0.15600
N 	N 	0.51594 0.56117 0.33310 -0.22400
N 	N 	0.41417 0.60346 0.10945 -0.15600
N 	N 	0.51594 0.66690 0.22807 -0.22400
N 	N 	0.41417 0.89055 0.49401 -0.15600
N 	N 	0.51594 0.77193 0.43883 -0.22400
N 	N 	0.91417 0.10945 0.60346 -0.15600
N 	N 	0.01594 0.22807 0.66690 -0.22300
N 	N 	0.91417 0.49401 0.89055 -0.15600
N 	N 	0.01594 0.43883 0.77193 -0.22300
N 	N 	0.91417 0.39654 0.50599 -0.15600
N 	N 	0.01594 0.33310 0.56117 -0.22400
N 	N 	0.58583 0.49401 0.60346 -0.15600
N 	N 	0.48406 0.43883 0.66690 -0.22400
N 	N 	0.58583 0.39654 0.89055 -0.15600
N 	N 	0.48406 0.33310 0.77193 -0.22400
N 	N 	0.58583 0.10945 0.50599 -0.15600
N 	N 	0.48406 0.22807 0.56117 -0.22400
O 	O 	0.31936 0.22311 0.64669 -0.40500
O 	O 	0.31936 0.42358 0.77689 -0.40500
O 	O 	0.31936 0.35331 0.57642 -0.40500
O 	O 	0.18064 0.42358 0.64669 -0.40500
O 	O 	0.18064 0.35331 0.77689 -0.40500
O 	O 	0.18064 0.22311 0.57642 -0.40500
O 	O 	0.68064 0.77689 0.35331 -0.40500
O 	O 	0.68064 0.57642 0.22311 -0.40500
O 	O 	0.68064 0.64669 0.42358 -0.40500
O 	O 	0.81936 0.57642 0.35331 -0.40500
O 	O 	0.81936 0.64669 0.22311 -0.40500
O 	O 	0.81936 0.77689 0.42358 -0.40500
