data_crystal

_cell_length_a 14.10700
_cell_length_b 17.27500
_cell_length_c 17.27500
_cell_angle_alpha 120.00000
_cell_angle_beta  90.00000
_cell_angle_gamma 90.00000

_symmetry_space_group_name_	'P 1'
_symmetry_space_group_name_H-M	'P 1'

loop_
_symmetry_equiv_pos_as_xyz
  x,y,z

loop_
_atom_site_label
_atom_site_type_symbol
_atom_site_fract_x
_atom_site_fract_y
_atom_site_fract_z
_atom_site_charge
Mn	Mn	0.89616 0.33333 0.66666 1.28400
Mn	Mn	0.60384 0.33333 0.66666 1.28400
Mn	Mn	0.10384 0.66667 0.33334 1.28400
Mn	Mn	0.39616 0.66667 0.33334 1.28400
H 	H 	0.61540 0.06470 0.57090 0.09200
H 	H 	0.59140 0.78540 0.36830 -0.01500
H 	H 	0.35290 0.78490 0.56120 0.07600
H 	H 	0.33720 0.90400 0.70520 0.02900
H 	H 	0.44520 0.02020 0.76250 0.04100
H 	H 	0.56420 0.02710 0.67450 0.06200
H 	H 	0.61540 0.50620 0.93530 0.09200
H 	H 	0.59140 0.58290 0.21460 -0.01500
H 	H 	0.35290 0.77630 0.21510 0.07600
H 	H 	0.33720 0.80120 0.09600 0.02900
H 	H 	0.44520 0.74230 0.97980 0.04100
H 	H 	0.56420 0.64740 0.97290 0.06200
H 	H 	0.61540 0.42910 0.49380 0.09200
H 	H 	0.59140 0.63170 0.41710 -0.01500
H 	H 	0.35290 0.43880 0.22370 0.07600
H 	H 	0.33720 0.29480 0.19880 0.02900
H 	H 	0.44520 0.23750 0.25770 0.04200
H 	H 	0.56420 0.32550 0.35260 0.06300
H 	H 	0.88460 0.50620 0.57090 0.09300
H 	H 	0.90860 0.58290 0.36830 -0.01400
H 	H 	0.14710 0.77630 0.56120 0.07700
H 	H 	0.16280 0.80120 0.70520 0.03000
H 	H 	0.05480 0.74230 0.76250 0.04200
H 	H 	0.93580 0.64740 0.67450 0.06300
H 	H 	0.88460 0.42910 0.93530 0.09300
H 	H 	0.90860 0.63170 0.21460 -0.01400
H 	H 	0.14710 0.43880 0.21510 0.07700
H 	H 	0.16280 0.29480 0.09600 0.03100
H 	H 	0.05480 0.23750 0.97980 0.04100
H 	H 	0.93580 0.32550 0.97290 0.06400
H 	H 	0.88460 0.06470 0.49380 0.09300
H 	H 	0.90860 0.78540 0.41710 -0.01300
H 	H 	0.14710 0.78490 0.22370 0.07700
H 	H 	0.16280 0.90400 0.19880 0.03100
H 	H 	0.05480 0.02020 0.25770 0.04100
H 	H 	0.93580 0.02710 0.35260 0.06400
H 	H 	0.38460 0.93530 0.42910 0.09300
H 	H 	0.40860 0.21460 0.63170 -0.01400
H 	H 	0.64710 0.21510 0.43880 0.07700
H 	H 	0.66280 0.09600 0.29480 0.03000
H 	H 	0.55480 0.97980 0.23750 0.04200
H 	H 	0.43580 0.97290 0.32550 0.06300
H 	H 	0.38460 0.49380 0.06470 0.09300
H 	H 	0.40860 0.41710 0.78540 -0.01400
H 	H 	0.64710 0.22370 0.78490 0.07700
H 	H 	0.66280 0.19880 0.90400 0.03000
H 	H 	0.55480 0.25770 0.02020 0.04200
H 	H 	0.43580 0.35260 0.02710 0.06300
H 	H 	0.38460 0.57090 0.50620 0.09300
H 	H 	0.40860 0.36830 0.58290 -0.01400
H 	H 	0.64710 0.56120 0.77630 0.07700
H 	H 	0.66280 0.70520 0.80120 0.03000
H 	H 	0.55480 0.76250 0.74230 0.04200
H 	H 	0.43580 0.67450 0.64740 0.06300
H 	H 	0.11540 0.49380 0.42910 0.09300
H 	H 	0.09140 0.41710 0.63170 -0.01400
H 	H 	0.85290 0.22370 0.43880 0.07700
H 	H 	0.83720 0.19880 0.29480 0.03000
H 	H 	0.94520 0.25770 0.23750 0.04200
H 	H 	0.06420 0.35260 0.32550 0.06300
H 	H 	0.11540 0.57090 0.06470 0.09300
H 	H 	0.09140 0.36830 0.78540 -0.01400
H 	H 	0.85290 0.56120 0.78490 0.07700
H 	H 	0.83720 0.70520 0.90400 0.03100
H 	H 	0.94520 0.76250 0.02020 0.04100
H 	H 	0.06420 0.67450 0.02710 0.06400
H 	H 	0.11540 0.93530 0.50620 0.09300
H 	H 	0.09140 0.21460 0.58290 -0.01300
H 	H 	0.85290 0.21510 0.77630 0.07700
H 	H 	0.83720 0.09600 0.80120 0.03100
H 	H 	0.94520 0.97980 0.74230 0.04100
H 	H 	0.06420 0.97290 0.64740 0.06400
H 	H 	0.75000 0.83240 0.41620 0.11000
H 	H 	0.75000 0.58380 0.16760 0.11000
H 	H 	0.75000 0.58380 0.41620 0.11000
H 	H 	0.25000 0.16760 0.58380 0.11000
H 	H 	0.25000 0.41620 0.83240 0.11000
H 	H 	0.25000 0.41620 0.58380 0.11000
C 	C 	0.66953 0.03378 0.54029 -0.14000
C 	C 	0.67082 0.94124 0.49448 0.16100
C 	C 	0.56160 0.81180 0.42372 0.09100
C 	C 	0.46543 0.83659 0.53018 0.06600
C 	C 	0.39430 0.83330 0.58310 -0.11700
C 	C 	0.38630 0.90360 0.66900 -0.00500
C 	C 	0.45090 0.97490 0.70330 -0.03500
C 	C 	0.52200 0.97940 0.65190 -0.08400
C 	C 	0.52820 0.90959 0.56452 0.05700
C 	C 	0.66953 0.50651 0.96622 -0.14000
C 	C 	0.67082 0.55324 0.05876 0.16100
C 	C 	0.56160 0.61192 0.18820 0.09100
C 	C 	0.46543 0.69359 0.16341 0.06600
C 	C 	0.39430 0.74980 0.16670 -0.11700
C 	C 	0.38630 0.76540 0.09640 -0.00500
C 	C 	0.45090 0.72840 0.02510 -0.03500
C 	C 	0.52200 0.67250 0.02060 -0.08400
C 	C 	0.52820 0.65493 0.09041 0.05700
C 	C 	0.66953 0.45971 0.49349 -0.14000
C 	C 	0.67082 0.50552 0.44676 0.16200
C 	C 	0.56160 0.57628 0.38808 0.09100
C 	C 	0.46543 0.46982 0.30641 0.06600
C 	C 	0.39430 0.41690 0.25020 -0.11700
C 	C 	0.38630 0.33100 0.23460 -0.00500
C 	C 	0.45090 0.29670 0.27160 -0.03500
C 	C 	0.52200 0.34810 0.32750 -0.08400
C 	C 	0.52820 0.43548 0.34507 0.05700
C 	C 	0.83047 0.50651 0.54029 -0.14000
C 	C 	0.82918 0.55324 0.49448 0.16200
C 	C 	0.93840 0.61192 0.42372 0.09100
C 	C 	0.03457 0.69359 0.53018 0.06600
C 	C 	0.10570 0.74980 0.58310 -0.11700
C 	C 	0.11370 0.76540 0.66900 -0.00500
C 	C 	0.04910 0.72840 0.70330 -0.03500
C 	C 	0.97800 0.67250 0.65190 -0.08400
C 	C 	0.97180 0.65493 0.56452 0.05700
C 	C 	0.83047 0.45971 0.96622 -0.14000
C 	C 	0.82918 0.50552 0.05876 0.16100
C 	C 	0.93840 0.57628 0.18820 0.09100
C 	C 	0.03457 0.46982 0.16341 0.06600
C 	C 	0.10570 0.41690 0.16670 -0.11600
C 	C 	0.11370 0.33100 0.09640 -0.00700
C 	C 	0.04910 0.29670 0.02510 -0.03200
C 	C 	0.97800 0.34810 0.02060 -0.08700
C 	C 	0.97180 0.43548 0.09041 0.05700
C 	C 	0.83047 0.03378 0.49349 -0.14000
C 	C 	0.82918 0.94124 0.44676 0.16100
C 	C 	0.93840 0.81180 0.38808 0.09100
C 	C 	0.03457 0.83659 0.30641 0.06600
C 	C 	0.10570 0.83330 0.25020 -0.11600
C 	C 	0.11370 0.90360 0.23460 -0.00700
C 	C 	0.04910 0.97490 0.27160 -0.03100
C 	C 	0.97800 0.97940 0.32750 -0.08800
C 	C 	0.97180 0.90959 0.34507 0.05800
C 	C 	0.33047 0.96622 0.45971 -0.14000
C 	C 	0.32918 0.05876 0.50552 0.16100
C 	C 	0.43840 0.18820 0.57628 0.09100
C 	C 	0.53457 0.16341 0.46982 0.06600
C 	C 	0.60570 0.16670 0.41690 -0.11700
C 	C 	0.61370 0.09640 0.33100 -0.00500
C 	C 	0.54910 0.02510 0.29670 -0.03500
C 	C 	0.47800 0.02060 0.34810 -0.08400
C 	C 	0.47180 0.09041 0.43548 0.05700
C 	C 	0.33047 0.49349 0.03378 -0.14000
C 	C 	0.32918 0.44676 0.94124 0.16100
C 	C 	0.43840 0.38808 0.81180 0.09100
C 	C 	0.53457 0.30641 0.83659 0.06600
C 	C 	0.60570 0.25020 0.83330 -0.11700
C 	C 	0.61370 0.23460 0.90360 -0.00500
C 	C 	0.54910 0.27160 0.97490 -0.03500
C 	C 	0.47800 0.32750 0.97940 -0.08400
C 	C 	0.47180 0.34507 0.90959 0.05700
C 	C 	0.33047 0.54029 0.50651 -0.14000
C 	C 	0.32918 0.49448 0.55324 0.16200
C 	C 	0.43840 0.42372 0.61192 0.09100
C 	C 	0.53457 0.53018 0.69359 0.06600
C 	C 	0.60570 0.58310 0.74980 -0.11700
C 	C 	0.61370 0.66900 0.76540 -0.00500
C 	C 	0.54910 0.70330 0.72840 -0.03500
C 	C 	0.47800 0.65190 0.67250 -0.08400
C 	C 	0.47180 0.56452 0.65493 0.05700
C 	C 	0.16953 0.49349 0.45971 -0.14000
C 	C 	0.17082 0.44676 0.50552 0.16200
C 	C 	0.06160 0.38808 0.57628 0.09100
C 	C 	0.96543 0.30641 0.46982 0.06600
C 	C 	0.89430 0.25020 0.41690 -0.11700
C 	C 	0.88630 0.23460 0.33100 -0.00500
C 	C 	0.95090 0.27160 0.29670 -0.03500
C 	C 	0.02200 0.32750 0.34810 -0.08400
C 	C 	0.02820 0.34507 0.43548 0.05700
C 	C 	0.16953 0.54029 0.03378 -0.14000
C 	C 	0.17082 0.49448 0.94124 0.16100
C 	C 	0.06160 0.42372 0.81180 0.09100
C 	C 	0.96543 0.53018 0.83659 0.06600
C 	C 	0.89430 0.58310 0.83330 -0.11600
C 	C 	0.88630 0.66900 0.90360 -0.00700
C 	C 	0.95090 0.70330 0.97490 -0.03200
C 	C 	0.02200 0.65190 0.97940 -0.08700
C 	C 	0.02820 0.56452 0.90959 0.05700
C 	C 	0.16953 0.96622 0.50651 -0.14000
C 	C 	0.17082 0.05876 0.55324 0.16100
C 	C 	0.06160 0.18820 0.61192 0.09100
C 	C 	0.96543 0.16341 0.69359 0.06600
C 	C 	0.89430 0.16670 0.74980 -0.11600
C 	C 	0.88630 0.09640 0.76540 -0.00700
C 	C 	0.95090 0.02510 0.72840 -0.03100
C 	C 	0.02200 0.02060 0.67250 -0.08800
C 	C 	0.02820 0.09041 0.65493 0.05800
C 	C 	0.75000 0.18000 0.59000 0.34000
C 	C 	0.75000 0.07990 0.53995 0.00400
C 	C 	0.75000 0.89460 0.44730 -0.21600
C 	C 	0.75000 0.41000 0.82000 0.34000
C 	C 	0.75000 0.46005 0.92010 0.00400
C 	C 	0.75000 0.55270 0.10540 -0.21600
C 	C 	0.75000 0.41000 0.59000 0.33900
C 	C 	0.75000 0.46005 0.53995 0.00400
C 	C 	0.75000 0.55270 0.44730 -0.21700
C 	C 	0.25000 0.82000 0.41000 0.34000
C 	C 	0.25000 0.92010 0.46005 0.00400
C 	C 	0.25000 0.10540 0.55270 -0.21600
C 	C 	0.25000 0.59000 0.18000 0.34000
C 	C 	0.25000 0.53995 0.07990 0.00400
C 	C 	0.25000 0.44730 0.89460 -0.21600
C 	C 	0.25000 0.59000 0.41000 0.33900
C 	C 	0.25000 0.53995 0.46005 0.00400
C 	C 	0.25000 0.44730 0.55270 -0.21700
N 	N 	0.58962 0.89170 0.49425 -0.15600
N 	N 	0.48872 0.77557 0.44128 -0.23400
N 	N 	0.58962 0.60255 0.10830 -0.15600
N 	N 	0.48872 0.66571 0.22443 -0.23400
N 	N 	0.58962 0.50575 0.39745 -0.15600
N 	N 	0.48872 0.55872 0.33429 -0.23400
N 	N 	0.91038 0.60255 0.49425 -0.15600
N 	N 	0.01128 0.66571 0.44128 -0.23400
N 	N 	0.91038 0.50575 0.10830 -0.15600
N 	N 	0.01128 0.55872 0.22443 -0.23400
N 	N 	0.91038 0.89170 0.39745 -0.15600
N 	N 	0.01128 0.77557 0.33429 -0.23400
N 	N 	0.41038 0.10830 0.50575 -0.15600
N 	N 	0.51128 0.22443 0.55872 -0.23400
N 	N 	0.41038 0.39745 0.89170 -0.15600
N 	N 	0.51128 0.33429 0.77557 -0.23400
N 	N 	0.41038 0.49425 0.60255 -0.15600
N 	N 	0.51128 0.44128 0.66571 -0.23400
N 	N 	0.08962 0.39745 0.50575 -0.15600
N 	N 	0.98872 0.33429 0.55872 -0.23400
N 	N 	0.08962 0.49425 0.89170 -0.15600
N 	N 	0.98872 0.44128 0.77557 -0.23400
N 	N 	0.08962 0.10830 0.60255 -0.15600
N 	N 	0.98872 0.22443 0.66571 -0.23400
O 	O 	0.81787 0.21800 0.57493 -0.44100
O 	O 	0.81787 0.35693 0.78200 -0.44100
O 	O 	0.81787 0.42507 0.64307 -0.44100
O 	O 	0.68213 0.35693 0.57493 -0.44100
O 	O 	0.68213 0.42507 0.78200 -0.44100
O 	O 	0.68213 0.21800 0.64307 -0.44100
O 	O 	0.18213 0.78200 0.42507 -0.44100
O 	O 	0.18213 0.64307 0.21800 -0.44100
O 	O 	0.18213 0.57493 0.35693 -0.44100
O 	O 	0.31787 0.64307 0.42507 -0.44100
O 	O 	0.31787 0.57493 0.21800 -0.44100
O 	O 	0.31787 0.78200 0.35693 -0.44100
