data_crystal

_cell_length_a 11.22760
_cell_length_b 32.86700
_cell_length_c 32.86700
_cell_angle_alpha 88.32820
_cell_angle_beta  80.16550
_cell_angle_gamma 80.16560

_symmetry_space_group_name_	'P 1'
_symmetry_space_group_name_H-M	'P 1'

loop_
_symmetry_equiv_pos_as_xyz
  x,y,z

loop_
_atom_site_label
_atom_site_type_symbol
_atom_site_fract_x
_atom_site_fract_y
_atom_site_fract_z
_atom_site_charge
Nd	Nd	0.81681 0.97073 0.17109 1.95600
Nd	Nd	0.31759 0.97373 0.17318 2.00600
Nd	Nd	0.45863 0.52927 0.32891 1.95700
Nd	Nd	0.96449 0.52627 0.32682 2.00200
Nd	Nd	0.98790 0.82891 0.47073 1.95000
Nd	Nd	0.49076 0.82682 0.47374 2.00500
Nd	Nd	0.78754 0.67109 0.02927 1.95600
Nd	Nd	0.29132 0.67318 0.02626 2.00500
Nd	Nd	0.18319 0.02927 0.82891 1.95500
Nd	Nd	0.68241 0.02627 0.82682 2.00500
Nd	Nd	0.54137 0.47073 0.67109 1.95600
Nd	Nd	0.03551 0.47373 0.67318 2.00100
Nd	Nd	0.01210 0.17109 0.52927 1.94900
Nd	Nd	0.50924 0.17318 0.52626 2.00400
Nd	Nd	0.21246 0.32891 0.97073 1.95600
Nd	Nd	0.70868 0.32682 0.97374 2.00500
Co	Co	0.67461 0.03689 0.37083 1.11800
Co	Co	0.58233 0.46311 0.12917 1.11800
Co	Co	0.04544 0.62917 0.53689 1.11900
Co	Co	0.71150 0.87083 0.96311 1.11800
Co	Co	0.32539 0.96311 0.62917 1.11800
Co	Co	0.41767 0.53689 0.87083 1.11800
Co	Co	0.95456 0.37083 0.46311 1.11900
Co	Co	0.28850 0.12917 0.03689 1.11800
H 	H 	0.37210 0.95660 0.29020 -0.01100
H 	H 	0.69830 0.02610 0.03830 0.00800
H 	H 	0.31850 0.96300 0.36180 0.09000
H 	H 	0.65350 0.02790 0.97170 0.08700
H 	H 	0.42400 0.00060 0.39600 -0.01900
H 	H 	0.63590 0.96720 0.94180 -0.02200
H 	H 	0.66450 0.12530 0.21970 0.03200
H 	H 	0.84390 0.08720 0.31180 0.00000
H 	H 	0.54980 0.84110 0.13210 0.02300
H 	H 	0.75760 0.79770 0.02630 -0.02100
H 	H 	0.82250 0.12930 0.25570 0.08900
H 	H 	0.95080 0.01860 0.06100 -0.01100
H 	H 	0.10160 0.95670 0.31290 -0.00100
H 	H 	0.66360 0.78600 0.09300 0.08700
H 	H 	0.93620 0.06350 0.00550 0.09200
H 	H 	0.01040 0.92470 0.37170 0.10800
H 	H 	0.05660 0.11490 0.99750 -0.01400
H 	H 	0.95720 0.86450 0.36350 -0.01600
H 	H 	0.16440 0.12660 0.21100 0.03100
H 	H 	0.41250 0.13960 0.11240 -0.00300
H 	H 	0.12070 0.84360 0.13480 0.02600
H 	H 	0.27660 0.75910 0.20590 0.01900
H 	H 	0.34740 0.14800 0.18120 0.09200
H 	H 	0.26220 0.78290 0.14030 0.09000
H 	H 	0.11890 0.54340 0.20980 -0.01000
H 	H 	0.26270 0.47390 0.46170 0.00800
H 	H 	0.14330 0.53700 0.13820 0.09000
H 	H 	0.15310 0.47210 0.52830 0.08700
H 	H 	0.32060 0.49940 0.10400 -0.01900
H 	H 	0.04490 0.53280 0.55820 -0.02200
H 	H 	0.50950 0.37470 0.28030 0.03200
H 	H 	0.74290 0.41280 0.18820 0.00000
H 	H 	0.02300 0.65890 0.36790 0.02400
H 	H 	0.08160 0.70230 0.47370 -0.02100
H 	H 	0.70750 0.37070 0.24430 0.08900
H 	H 	0.53040 0.48140 0.43900 -0.01100
H 	H 	0.87120 0.54330 0.18710 -0.00300
H 	H 	0.04260 0.71400 0.40700 0.08800
H 	H 	0.50520 0.43650 0.49450 0.09200
H 	H 	0.80680 0.57530 0.12830 0.11100
H 	H 	0.66900 0.38510 0.50250 -0.01500
H 	H 	0.68520 0.63550 0.13650 -0.01900
H 	H 	0.00200 0.37340 0.28900 0.03200
H 	H 	0.16450 0.36040 0.38760 -0.00200
H 	H 	0.59910 0.65640 0.36520 0.02500
H 	H 	0.74160 0.74090 0.29410 0.01900
H 	H 	0.17660 0.35200 0.31880 0.09100
H 	H 	0.68540 0.71710 0.35970 0.09000
H 	H 	0.66230 0.70980 0.45660 -0.01100
H 	H 	0.73660 0.96170 0.52610 0.00800
H 	H 	0.68030 0.63820 0.46300 0.09000
H 	H 	0.62520 0.02830 0.52790 0.08700
H 	H 	0.82000 0.60400 0.50060 -0.01900
H 	H 	0.57770 0.05820 0.46720 -0.02200
H 	H 	0.88420 0.78030 0.62530 0.03300
H 	H 	0.15570 0.68820 0.58720 0.00100
H 	H 	0.68190 0.86790 0.34110 0.02300
H 	H 	0.78390 0.97370 0.29770 -0.02100
H 	H 	0.07820 0.74430 0.62930 0.08800
H 	H 	0.01180 0.93900 0.51860 -0.01100
H 	H 	0.41450 0.68710 0.45670 -0.00300
H 	H 	0.75660 0.90700 0.28600 0.08700
H 	H 	0.94170 0.99450 0.56350 0.09300
H 	H 	0.38210 0.62830 0.42470 0.11100
H 	H 	0.05410 0.00250 0.61490 -0.01600
H 	H 	0.32070 0.63650 0.36450 -0.01900
H 	H 	0.37540 0.78900 0.62660 0.03100
H 	H 	0.52490 0.88760 0.63960 -0.00300
H 	H 	0.25550 0.86520 0.34360 0.02600
H 	H 	0.48250 0.79410 0.25910 0.01900
H 	H 	0.52860 0.81880 0.64800 0.09200
H 	H 	0.40250 0.85970 0.28290 0.09000
H 	H 	0.32870 0.79020 0.04340 -0.01100
H 	H 	0.72440 0.53830 0.97390 0.00800
H 	H 	0.28150 0.86180 0.03700 0.09000
H 	H 	0.68140 0.47170 0.97210 0.08700
H 	H 	0.42460 0.89600 0.99940 -0.01900
H 	H 	0.60310 0.44180 0.03280 -0.02200
H 	H 	0.78980 0.71970 0.87470 0.03200
H 	H 	0.93110 0.81180 0.91280 0.00000
H 	H 	0.39090 0.63210 0.15890 0.02300
H 	H 	0.55530 0.52630 0.20230 -0.02100
H 	H 	0.95180 0.75570 0.87070 0.08900
H 	H 	0.96940 0.56100 0.98140 -0.01300
H 	H 	0.05830 0.81290 0.04330 -0.00400
H 	H 	0.44960 0.59300 0.21400 0.08800
H 	H 	0.99970 0.50550 0.93650 0.09400
H 	H 	0.93510 0.87170 0.07530 0.11200
H 	H 	0.17150 0.49750 0.88510 -0.01500
H 	H 	0.82170 0.86350 0.13550 -0.02000
H 	H 	0.29100 0.71100 0.87340 0.03200
H 	H 	0.55210 0.61240 0.86040 -0.00300
H 	H 	0.96430 0.63480 0.15640 0.02700
H 	H 	0.03570 0.70590 0.24090 0.02000
H 	H 	0.49540 0.68120 0.85200 0.09200
H 	H 	0.04510 0.64030 0.21710 0.09000
H 	H 	0.62790 0.04340 0.70980 -0.01100
H 	H 	0.30170 0.97390 0.96170 0.00800
H 	H 	0.68150 0.03700 0.63820 0.09000
H 	H 	0.34650 0.97210 0.02830 0.08700
H 	H 	0.57600 0.99940 0.60400 -0.01900
H 	H 	0.36410 0.03280 0.05820 -0.02200
H 	H 	0.33550 0.87470 0.78030 0.03200
H 	H 	0.15610 0.91280 0.68820 0.00000
H 	H 	0.45020 0.15890 0.86790 0.02300
H 	H 	0.24240 0.20230 0.97370 -0.02100
H 	H 	0.17750 0.87070 0.74430 0.08900
H 	H 	0.04920 0.98140 0.93900 -0.01100
H 	H 	0.89840 0.04330 0.68710 -0.00100
H 	H 	0.33640 0.21400 0.90700 0.08700
H 	H 	0.06380 0.93650 0.99450 0.09200
H 	H 	0.98960 0.07530 0.62830 0.10800
H 	H 	0.94340 0.88510 0.00250 -0.01400
H 	H 	0.04280 0.13550 0.63650 -0.01600
H 	H 	0.83560 0.87340 0.78900 0.03100
H 	H 	0.58750 0.86040 0.88760 -0.00300
H 	H 	0.87930 0.15640 0.86520 0.02600
H 	H 	0.72340 0.24090 0.79410 0.01900
H 	H 	0.65260 0.85200 0.81880 0.09200
H 	H 	0.73780 0.21710 0.85970 0.09000
H 	H 	0.88110 0.45660 0.79020 -0.01000
H 	H 	0.73730 0.52610 0.53830 0.00800
H 	H 	0.85670 0.46300 0.86180 0.09000
H 	H 	0.84690 0.52790 0.47170 0.08700
H 	H 	0.67940 0.50060 0.89600 -0.01900
H 	H 	0.95510 0.46720 0.44180 -0.02200
H 	H 	0.49050 0.62530 0.71970 0.03200
H 	H 	0.25710 0.58720 0.81180 0.00000
H 	H 	0.97700 0.34110 0.63210 0.02400
H 	H 	0.91840 0.29770 0.52630 -0.02100
H 	H 	0.29250 0.62930 0.75570 0.08900
H 	H 	0.46960 0.51860 0.56100 -0.01100
H 	H 	0.12880 0.45670 0.81290 -0.00300
H 	H 	0.95740 0.28600 0.59300 0.08800
H 	H 	0.49480 0.56350 0.50550 0.09200
H 	H 	0.19320 0.42470 0.87170 0.11100
H 	H 	0.33100 0.61490 0.49750 -0.01500
H 	H 	0.31480 0.36450 0.86350 -0.01900
H 	H 	0.99800 0.62660 0.71100 0.03200
H 	H 	0.83550 0.63960 0.61240 -0.00200
H 	H 	0.40090 0.34360 0.63480 0.02500
H 	H 	0.25840 0.25910 0.70590 0.01900
H 	H 	0.82340 0.64800 0.68120 0.09100
H 	H 	0.31460 0.28290 0.64030 0.09000
H 	H 	0.33770 0.29020 0.54340 -0.01100
H 	H 	0.26340 0.03830 0.47390 0.00800
H 	H 	0.31970 0.36180 0.53700 0.09000
H 	H 	0.37480 0.97170 0.47210 0.08700
H 	H 	0.18000 0.39600 0.49940 -0.01900
H 	H 	0.42230 0.94180 0.53280 -0.02200
H 	H 	0.11580 0.21970 0.37470 0.03300
H 	H 	0.84430 0.31180 0.41280 0.00100
H 	H 	0.31810 0.13210 0.65890 0.02300
H 	H 	0.21610 0.02630 0.70230 -0.02100
H 	H 	0.92180 0.25570 0.37070 0.08800
H 	H 	0.98820 0.06100 0.48140 -0.01100
H 	H 	0.58550 0.31290 0.54330 -0.00300
H 	H 	0.24340 0.09300 0.71400 0.08700
H 	H 	0.05830 0.00550 0.43650 0.09300
H 	H 	0.61790 0.37170 0.57530 0.11100
H 	H 	0.94590 0.99750 0.38510 -0.01600
H 	H 	0.67930 0.36350 0.63550 -0.01900
H 	H 	0.62460 0.21100 0.37340 0.03100
H 	H 	0.47510 0.11240 0.36040 -0.00300
H 	H 	0.74450 0.13480 0.65640 0.02600
H 	H 	0.51750 0.20590 0.74090 0.01900
H 	H 	0.47140 0.18120 0.35200 0.09200
H 	H 	0.59750 0.14030 0.71710 0.09000
H 	H 	0.67130 0.20980 0.95660 -0.01100
H 	H 	0.27560 0.46170 0.02610 0.00800
H 	H 	0.71850 0.13820 0.96300 0.09000
H 	H 	0.31860 0.52830 0.02790 0.08700
H 	H 	0.57540 0.10400 0.00060 -0.01900
H 	H 	0.39690 0.55820 0.96720 -0.02200
H 	H 	0.21020 0.28030 0.12530 0.03200
H 	H 	0.06890 0.18820 0.08720 0.00000
H 	H 	0.60910 0.36790 0.84110 0.02300
H 	H 	0.44470 0.47370 0.79770 -0.02100
H 	H 	0.04820 0.24430 0.12930 0.08900
H 	H 	0.03060 0.43900 0.01860 -0.01300
H 	H 	0.94170 0.18710 0.95670 -0.00400
H 	H 	0.55040 0.40700 0.78600 0.08800
H 	H 	0.00030 0.49450 0.06350 0.09400
H 	H 	0.06490 0.12830 0.92470 0.11200
H 	H 	0.82850 0.50250 0.11490 -0.01500
H 	H 	0.17830 0.13650 0.86450 -0.02000
H 	H 	0.70900 0.28900 0.12660 0.03200
H 	H 	0.44790 0.38760 0.13960 -0.00300
H 	H 	0.03570 0.36520 0.84360 0.02700
H 	H 	0.96430 0.29410 0.75910 0.02000
H 	H 	0.50460 0.31880 0.14800 0.09200
H 	H 	0.95490 0.35970 0.78290 0.09000
C 	C 	0.53616 0.98895 0.23733 0.52800
C 	C 	0.72841 0.96403 0.09135 0.32700
C 	C 	0.49003 0.99707 0.28307 -0.20000
C 	C 	0.68671 0.96577 0.04941 -0.10900
C 	C 	0.40760 0.97410 0.30450 0.11500
C 	C 	0.53588 0.02470 0.30554 0.09200
C 	C 	0.68403 0.00235 0.02659 0.05800
C 	C 	0.66291 0.93123 0.03035 0.06100
C 	C 	0.37770 0.97700 0.34720 -0.17900
C 	C 	0.61489 0.05554 0.28788 0.04800
C 	C 	0.66024 0.00334 0.98658 -0.14500
C 	C 	0.65390 0.89081 0.05079 0.05500
C 	C 	0.43720 0.00090 0.36730 0.10400
C 	C 	0.59599 0.08072 0.25370 -0.10200
C 	C 	0.07146 0.01768 0.12280 0.52100
C 	C 	0.18587 0.92876 0.23830 0.34300
C 	C 	0.50240 0.91980 0.11440 0.32100
C 	C 	0.64669 0.96698 0.96924 0.09600
C 	C 	0.58851 0.88574 0.09004 -0.11800
C 	C 	0.67458 0.10813 0.24231 0.04200
C 	C 	0.49354 0.07869 0.22923 0.30600
C 	C 	0.78119 0.08549 0.29713 0.07200
C 	C 	0.05505 0.04903 0.08907 -0.20700
C 	C 	0.11381 0.90902 0.27376 -0.13400
C 	C 	0.59204 0.84545 0.10587 0.05400
C 	C 	0.71590 0.82006 0.04274 0.09100
C 	C 	0.76883 0.11081 0.26373 -0.12200
C 	C 	0.11097 0.08380 0.08526 0.09600
C 	C 	0.99060 0.04130 0.05870 0.11900
C 	C 	0.08260 0.87010 0.27110 0.09400
C 	C 	0.08360 0.93030 0.31130 0.08200
C 	C 	0.65783 0.81271 0.08243 -0.13900
C 	C 	0.17365 0.10012 0.11678 0.04400
C 	C 	0.98450 0.06720 0.02500 -0.17200
C 	C 	0.11980 0.84520 0.23300 0.08400
C 	C 	0.02720 0.91210 0.34590 -0.17500
C 	C 	0.12836 0.10455 0.15833 -0.10500
C 	C 	0.05350 0.09880 0.02120 0.09800
C 	C 	0.98870 0.89780 0.19140 0.34000
C 	C 	0.08510 0.85850 0.19630 -0.11300
C 	C 	0.99860 0.87590 0.34030 0.11900
C 	C 	0.00964 0.09017 0.17835 0.30500
C 	C 	0.19345 0.12300 0.18290 0.03900
C 	C 	0.33984 0.13082 0.12430 0.07600
C 	C 	0.13930 0.83460 0.16040 0.05000
C 	C 	0.23230 0.78530 0.20270 0.08500
C 	C 	0.30198 0.13604 0.16520 -0.12900
C 	C 	0.21970 0.79790 0.16350 -0.13000
C 	C 	0.26244 0.51105 0.26267 0.52700
C 	C 	0.28379 0.53597 0.40865 0.32600
C 	C 	0.27017 0.50293 0.21693 -0.20000
C 	C 	0.20189 0.53423 0.45059 -0.10900
C 	C 	0.18620 0.52590 0.19550 0.11500
C 	C 	0.36612 0.47530 0.19446 0.09200
C 	C 	0.21297 0.49765 0.47341 0.05800
C 	C 	0.12449 0.56877 0.46965 0.06100
C 	C 	0.20190 0.52300 0.15280 -0.17800
C 	C 	0.45831 0.44446 0.21212 0.04800
C 	C 	0.15016 0.49666 0.51342 -0.14500
C 	C 	0.09550 0.60919 0.44921 0.05600
C 	C 	0.30540 0.49910 0.13270 0.10400
C 	C 	0.43041 0.41928 0.24630 -0.10200
C 	C 	0.71194 0.48232 0.37720 0.52000
C 	C 	0.85293 0.57124 0.26170 0.34400
C 	C 	0.03660 0.58020 0.38560 0.32300
C 	C 	0.08291 0.53302 0.53076 0.09600
C 	C 	0.06429 0.61426 0.40996 -0.11900
C 	C 	0.52502 0.39187 0.25769 0.04200
C 	C 	0.30146 0.42131 0.27077 0.30600
C 	C 	0.66381 0.41451 0.20287 0.07200
C 	C 	0.69315 0.45097 0.41093 -0.20700
C 	C 	0.79659 0.59098 0.22624 -0.13700
C 	C 	0.04336 0.65455 0.39413 0.05500
C 	C 	0.07870 0.67994 0.45726 0.09200
C 	C 	0.64337 0.38919 0.23627 -0.12200
C 	C 	0.78003 0.41620 0.41474 0.09600
C 	C 	0.59060 0.45870 0.44130 0.11900
C 	C 	0.72380 0.62990 0.22890 0.09400
C 	C 	0.82520 0.56970 0.18870 0.08800
C 	C 	0.05297 0.68729 0.41757 -0.13900
C 	C 	0.89055 0.39988 0.38322 0.04400
C 	C 	0.57670 0.43280 0.47500 -0.17400
C 	C 	0.69800 0.65480 0.26700 0.08400
C 	C 	0.78520 0.58790 0.15410 -0.18600
C 	C 	0.89124 0.39545 0.34167 -0.10500
C 	C 	0.67350 0.40120 0.47880 0.10000
C 	C 	0.57790 0.60220 0.30860 0.34300
C 	C 	0.63990 0.64150 0.30370 -0.11500
C 	C 	0.71480 0.62410 0.15970 0.12900
C 	C 	0.77816 0.40983 0.32165 0.30600
C 	C 	0.99935 0.37700 0.31710 0.03800
C 	C 	0.09496 0.36918 0.37570 0.07500
C 	C 	0.63430 0.66540 0.33960 0.05100
C 	C 	0.72030 0.71470 0.29730 0.08500
C 	C 	0.10322 0.36396 0.33480 -0.12800
C 	C 	0.68110 0.70210 0.33650 -0.13200
C 	C 	0.77349 0.76267 0.48895 0.52700
C 	C 	0.81976 0.90865 0.46403 0.32700
C 	C 	0.77310 0.71693 0.49707 -0.20000
C 	C 	0.73612 0.95059 0.46577 -0.10900
C 	C 	0.71210 0.69550 0.47410 0.11500
C 	C 	0.84142 0.69446 0.52470 0.09200
C 	C 	0.71062 0.97341 0.50235 0.05700
C 	C 	0.69326 0.96965 0.43123 0.06100
C 	C 	0.72490 0.65280 0.47700 -0.17900
C 	C 	0.90277 0.71212 0.55554 0.04600
C 	C 	0.64682 0.01342 0.50334 -0.14500
C 	C 	0.70469 0.94921 0.39081 0.05500
C 	C 	0.80450 0.63270 0.50090 0.10300
C 	C 	0.84969 0.74630 0.58072 -0.10000
C 	C 	0.19426 0.87720 0.51768 0.52000
C 	C 	0.42417 0.76170 0.42876 0.34300
C 	C 	0.61680 0.88560 0.41980 0.32100
C 	C 	0.61593 0.03076 0.46698 0.09600
C 	C 	0.67855 0.90996 0.38574 -0.11800
C 	C 	0.91689 0.75769 0.60813 0.03900
C 	C 	0.72277 0.77077 0.57869 0.30500
C 	C 	0.07832 0.70287 0.58549 0.07100
C 	C 	0.14412 0.91093 0.54903 -0.20700
C 	C 	0.38757 0.72624 0.40902 -0.13700
C 	C 	0.69791 0.89413 0.34545 0.05400
C 	C 	0.75864 0.95726 0.32006 0.09100
C 	C 	0.03256 0.73627 0.61081 -0.11800
C 	C 	0.19623 0.91474 0.58380 0.09600
C 	C 	0.04930 0.94130 0.54130 0.11900
C 	C 	0.35370 0.72890 0.37010 0.09400
C 	C 	0.39490 0.68870 0.43030 0.08800
C 	C 	0.74026 0.91757 0.31271 -0.13900
C 	C 	0.29043 0.88322 0.60012 0.04400
C 	C 	0.00950 0.97500 0.56720 -0.17500
C 	C 	0.35280 0.76700 0.34520 0.08400
C 	C 	0.37310 0.65410 0.41210 -0.18600
C 	C 	0.28669 0.84167 0.60455 -0.10500
C 	C 	0.07470 0.97880 0.59880 0.10100
C 	C 	0.18010 0.80860 0.39780 0.34300
C 	C 	0.28140 0.80370 0.35850 -0.11500
C 	C 	0.33890 0.65970 0.37590 0.12900
C 	C 	0.18799 0.82165 0.59017 0.30600
C 	C 	0.37635 0.81710 0.62300 0.03900
C 	C 	0.46414 0.87570 0.63082 0.07600
C 	C 	0.29970 0.83960 0.33460 0.05100
C 	C 	0.43500 0.79730 0.28530 0.08500
C 	C 	0.46718 0.83480 0.63604 -0.12900
C 	C 	0.38320 0.83650 0.29790 -0.13100
C 	C 	0.52511 0.73733 0.01105 0.52800
C 	C 	0.69244 0.59135 0.03597 0.32700
C 	C 	0.48710 0.78307 0.00293 -0.20000
C 	C 	0.65248 0.54941 0.03423 -0.10900
C 	C 	0.38170 0.80450 0.02590 0.11600
C 	C 	0.56058 0.80554 0.97530 0.09200
C 	C 	0.68638 0.52659 0.99765 0.05800
C 	C 	0.59414 0.53035 0.06877 0.06100
C 	C 	0.35470 0.84720 0.02300 -0.17900
C 	C 	0.67043 0.78788 0.94446 0.04800
C 	C 	0.66358 0.48658 0.99666 -0.14500
C 	C 	0.54471 0.55079 0.10919 0.05600
C 	C 	0.43810 0.86730 0.99910 0.10400
C 	C 	0.67671 0.75370 0.91928 -0.10200
C 	C 	0.08914 0.62280 0.98232 0.52200
C 	C 	0.11463 0.73830 0.07124 0.34300
C 	C 	0.42220 0.61440 0.08020 0.32100
C 	C 	0.61367 0.46924 0.03302 0.09600
C 	C 	0.47425 0.59004 0.11426 -0.11800
C 	C 	0.78271 0.74231 0.89187 0.04200
C 	C 	0.57223 0.72923 0.92131 0.30600
C 	C 	0.86668 0.79713 0.91451 0.07200
C 	C 	0.10408 0.58907 0.95097 -0.20800
C 	C 	0.02283 0.77376 0.09098 -0.13500
C 	C 	0.43749 0.60587 0.15455 0.05400
C 	C 	0.53596 0.54274 0.17994 0.09100
C 	C 	0.87964 0.76373 0.88919 -0.12200
C 	C 	0.19477 0.58526 0.91620 0.09600
C 	C 	0.03190 0.55870 0.95870 0.12200
C 	C 	0.95270 0.77110 0.12990 0.09200
C 	C 	0.01390 0.81130 0.06970 0.09100
C 	C 	0.47054 0.58243 0.18729 -0.13900
C 	C 	0.27377 0.61678 0.89988 0.04400
C 	C 	0.05170 0.52500 0.93280 -0.17700
C 	C 	0.96500 0.73300 0.15480 0.08400
C 	C 	0.93930 0.84590 0.08790 -0.18900
C 	C 	0.23291 0.65833 0.89545 -0.10500
C 	C 	0.15230 0.52120 0.90120 0.10100
C 	C 	0.88650 0.69140 0.10220 0.34200
C 	C 	0.94360 0.69630 0.14150 -0.11400
C 	C 	0.87450 0.84030 0.12410 0.13000
C 	C 	0.09981 0.67835 0.90983 0.30600
C 	C 	0.31645 0.68290 0.87700 0.03900
C 	C 	0.47066 0.62430 0.86918 0.07600
C 	C 	0.97390 0.66040 0.16540 0.04600
C 	C 	0.01760 0.70270 0.21470 0.08600
C 	C 	0.43802 0.66520 0.86396 -0.12900
C 	C 	0.01760 0.66350 0.20210 -0.12700
C 	C 	0.46384 0.01105 0.76267 0.52800
C 	C 	0.27159 0.03597 0.90865 0.32700
C 	C 	0.50997 0.00293 0.71693 -0.20000
C 	C 	0.31329 0.03423 0.95059 -0.10900
C 	C 	0.59240 0.02590 0.69550 0.11500
C 	C 	0.46412 0.97530 0.69446 0.09200
C 	C 	0.31597 0.99765 0.97341 0.05800
C 	C 	0.33709 0.06877 0.96965 0.06100
C 	C 	0.62230 0.02300 0.65280 -0.17900
C 	C 	0.38511 0.94446 0.71212 0.04800
C 	C 	0.33976 0.99666 0.01342 -0.14500
C 	C 	0.34610 0.10919 0.94921 0.05500
C 	C 	0.56280 0.99910 0.63270 0.10400
C 	C 	0.40401 0.91928 0.74630 -0.10200
C 	C 	0.92854 0.98232 0.87720 0.52100
C 	C 	0.81413 0.07124 0.76170 0.34300
C 	C 	0.49760 0.08020 0.88560 0.32100
C 	C 	0.35331 0.03302 0.03076 0.09600
C 	C 	0.41149 0.11426 0.90996 -0.11800
C 	C 	0.32542 0.89187 0.75769 0.04200
C 	C 	0.50646 0.92131 0.77077 0.30600
C 	C 	0.21881 0.91451 0.70287 0.07200
C 	C 	0.94495 0.95097 0.91093 -0.20700
C 	C 	0.88619 0.09098 0.72624 -0.13400
C 	C 	0.40796 0.15455 0.89413 0.05400
C 	C 	0.28410 0.17994 0.95726 0.09100
C 	C 	0.23117 0.88919 0.73627 -0.12200
C 	C 	0.88903 0.91620 0.91474 0.09600
C 	C 	0.00940 0.95870 0.94130 0.11900
C 	C 	0.91740 0.12990 0.72890 0.09400
C 	C 	0.91640 0.06970 0.68870 0.08200
C 	C 	0.34217 0.18729 0.91757 -0.13900
C 	C 	0.82635 0.89988 0.88322 0.04400
C 	C 	0.01550 0.93280 0.97500 -0.17200
C 	C 	0.88020 0.15480 0.76700 0.08400
C 	C 	0.97280 0.08790 0.65410 -0.17500
C 	C 	0.87164 0.89545 0.84167 -0.10500
C 	C 	0.94650 0.90120 0.97880 0.09800
C 	C 	0.01130 0.10220 0.80860 0.34000
C 	C 	0.91490 0.14150 0.80370 -0.11300
C 	C 	0.00140 0.12410 0.65970 0.11900
C 	C 	0.99036 0.90983 0.82165 0.30500
C 	C 	0.80655 0.87700 0.81710 0.03900
C 	C 	0.66016 0.86918 0.87570 0.07600
C 	C 	0.86070 0.16540 0.83960 0.05000
C 	C 	0.76770 0.21470 0.79730 0.08500
C 	C 	0.69802 0.86396 0.83480 -0.12900
C 	C 	0.78030 0.20210 0.83650 -0.13000
C 	C 	0.73756 0.48895 0.73733 0.52700
C 	C 	0.71621 0.46403 0.59135 0.32600
C 	C 	0.72983 0.49707 0.78307 -0.20000
C 	C 	0.79811 0.46577 0.54941 -0.10900
C 	C 	0.81380 0.47410 0.80450 0.11500
C 	C 	0.63388 0.52470 0.80554 0.09200
C 	C 	0.78703 0.50235 0.52659 0.05800
C 	C 	0.87551 0.43123 0.53035 0.06100
C 	C 	0.79810 0.47700 0.84720 -0.17800
C 	C 	0.54169 0.55554 0.78788 0.04800
C 	C 	0.84984 0.50334 0.48658 -0.14500
C 	C 	0.90450 0.39081 0.55079 0.05600
C 	C 	0.69460 0.50090 0.86730 0.10400
C 	C 	0.56959 0.58072 0.75370 -0.10200
C 	C 	0.28806 0.51768 0.62280 0.52000
C 	C 	0.14707 0.42876 0.73830 0.34400
C 	C 	0.96340 0.41980 0.61440 0.32300
C 	C 	0.91709 0.46698 0.46924 0.09600
C 	C 	0.93571 0.38574 0.59004 -0.11900
C 	C 	0.47498 0.60813 0.74231 0.04200
C 	C 	0.69854 0.57869 0.72923 0.30600
C 	C 	0.33619 0.58549 0.79713 0.07200
C 	C 	0.30685 0.54903 0.58907 -0.20700
C 	C 	0.20341 0.40902 0.77376 -0.13700
C 	C 	0.95664 0.34545 0.60587 0.05500
C 	C 	0.92130 0.32006 0.54274 0.09200
C 	C 	0.35663 0.61081 0.76373 -0.12200
C 	C 	0.21997 0.58380 0.58526 0.09600
C 	C 	0.40940 0.54130 0.55870 0.11900
C 	C 	0.27620 0.37010 0.77110 0.09400
C 	C 	0.17480 0.43030 0.81130 0.08800
C 	C 	0.94703 0.31271 0.58243 -0.13900
C 	C 	0.10945 0.60012 0.61678 0.04400
C 	C 	0.42330 0.56720 0.52500 -0.17400
C 	C 	0.30200 0.34520 0.73300 0.08400
C 	C 	0.21480 0.41210 0.84590 -0.18600
C 	C 	0.10876 0.60455 0.65833 -0.10500
C 	C 	0.32650 0.59880 0.52120 0.10000
C 	C 	0.42210 0.39780 0.69140 0.34300
C 	C 	0.36010 0.35850 0.69630 -0.11500
C 	C 	0.28520 0.37590 0.84030 0.12900
C 	C 	0.22184 0.59017 0.67835 0.30600
C 	C 	0.00065 0.62300 0.68290 0.03800
C 	C 	0.90504 0.63082 0.62430 0.07500
C 	C 	0.36570 0.33460 0.66040 0.05100
C 	C 	0.27970 0.28530 0.70270 0.08500
C 	C 	0.89678 0.63604 0.66520 -0.12800
C 	C 	0.31890 0.29790 0.66350 -0.13200
C 	C 	0.22651 0.23733 0.51105 0.52700
C 	C 	0.18024 0.09135 0.53597 0.32700
C 	C 	0.22690 0.28307 0.50293 -0.20000
C 	C 	0.26388 0.04941 0.53423 -0.10900
C 	C 	0.28790 0.30450 0.52590 0.11500
C 	C 	0.15858 0.30554 0.47530 0.09200
C 	C 	0.28938 0.02659 0.49765 0.05700
C 	C 	0.30674 0.03035 0.56877 0.06100
C 	C 	0.27510 0.34720 0.52300 -0.17900
C 	C 	0.09723 0.28788 0.44446 0.04600
C 	C 	0.35318 0.98658 0.49666 -0.14500
C 	C 	0.29531 0.05079 0.60919 0.05500
C 	C 	0.19550 0.36730 0.49910 0.10300
C 	C 	0.15031 0.25370 0.41928 -0.10000
C 	C 	0.80574 0.12280 0.48232 0.52000
C 	C 	0.57583 0.23830 0.57124 0.34300
C 	C 	0.38320 0.11440 0.58020 0.32100
C 	C 	0.38407 0.96924 0.53302 0.09600
C 	C 	0.32145 0.09004 0.61426 -0.11800
C 	C 	0.08311 0.24231 0.39187 0.03900
C 	C 	0.27723 0.22923 0.42131 0.30500
C 	C 	0.92168 0.29713 0.41451 0.07100
C 	C 	0.85588 0.08907 0.45097 -0.20700
C 	C 	0.61243 0.27376 0.59098 -0.13700
C 	C 	0.30209 0.10587 0.65455 0.05400
C 	C 	0.24136 0.04274 0.67994 0.09100
C 	C 	0.96744 0.26373 0.38919 -0.11800
C 	C 	0.80377 0.08526 0.41620 0.09600
C 	C 	0.95070 0.05870 0.45870 0.11900
C 	C 	0.64630 0.27110 0.62990 0.09400
C 	C 	0.60510 0.31130 0.56970 0.08800
C 	C 	0.25974 0.08243 0.68729 -0.13900
C 	C 	0.70957 0.11678 0.39988 0.04400
C 	C 	0.99050 0.02500 0.43280 -0.17500
C 	C 	0.64720 0.23300 0.65480 0.08400
C 	C 	0.62690 0.34590 0.58790 -0.18600
C 	C 	0.71331 0.15833 0.39545 -0.10500
C 	C 	0.92530 0.02120 0.40120 0.10100
C 	C 	0.81990 0.19140 0.60220 0.34300
C 	C 	0.71860 0.19630 0.64150 -0.11500
C 	C 	0.66110 0.34030 0.62410 0.12900
C 	C 	0.81201 0.17835 0.40983 0.30600
C 	C 	0.62365 0.18290 0.37700 0.03900
C 	C 	0.53586 0.12430 0.36918 0.07600
C 	C 	0.70030 0.16040 0.66540 0.05100
C 	C 	0.56500 0.20270 0.71470 0.08500
C 	C 	0.53282 0.16520 0.36396 -0.12900
C 	C 	0.61680 0.16350 0.70210 -0.13100
C 	C 	0.47489 0.26267 0.98895 0.52800
C 	C 	0.30756 0.40865 0.96403 0.32700
C 	C 	0.51290 0.21693 0.99707 -0.20000
C 	C 	0.34752 0.45059 0.96577 -0.10900
C 	C 	0.61830 0.19550 0.97410 0.11600
C 	C 	0.43942 0.19446 0.02470 0.09200
C 	C 	0.31362 0.47341 0.00235 0.05800
C 	C 	0.40586 0.46965 0.93123 0.06100
C 	C 	0.64530 0.15280 0.97700 -0.17900
C 	C 	0.32957 0.21212 0.05554 0.04800
C 	C 	0.33642 0.51342 0.00334 -0.14500
C 	C 	0.45529 0.44921 0.89081 0.05600
C 	C 	0.56190 0.13270 0.00090 0.10400
C 	C 	0.32329 0.24630 0.08072 -0.10200
C 	C 	0.91086 0.37720 0.01768 0.52200
C 	C 	0.88537 0.26170 0.92876 0.34300
C 	C 	0.57780 0.38560 0.91980 0.32100
C 	C 	0.38633 0.53076 0.96698 0.09600
C 	C 	0.52575 0.40996 0.88574 -0.11800
C 	C 	0.21729 0.25769 0.10813 0.04200
C 	C 	0.42777 0.27077 0.07869 0.30600
C 	C 	0.13332 0.20287 0.08549 0.07200
C 	C 	0.89592 0.41093 0.04903 -0.20800
C 	C 	0.97717 0.22624 0.90902 -0.13500
C 	C 	0.56251 0.39413 0.84545 0.05400
C 	C 	0.46404 0.45726 0.82006 0.09100
C 	C 	0.12036 0.23627 0.11081 -0.12200
C 	C 	0.80523 0.41474 0.08380 0.09600
C 	C 	0.96810 0.44130 0.04130 0.12200
C 	C 	0.04730 0.22890 0.87010 0.09200
C 	C 	0.98610 0.18870 0.93030 0.09100
C 	C 	0.52946 0.41757 0.81271 -0.13900
C 	C 	0.72623 0.38322 0.10012 0.04400
C 	C 	0.94830 0.47500 0.06720 -0.17700
C 	C 	0.03500 0.26700 0.84520 0.08400
C 	C 	0.06070 0.15410 0.91210 -0.18900
C 	C 	0.76709 0.34167 0.10455 -0.10500
C 	C 	0.84770 0.47880 0.09880 0.10100
C 	C 	0.11350 0.30860 0.89780 0.34200
C 	C 	0.05640 0.30370 0.85850 -0.11400
C 	C 	0.12550 0.15970 0.87590 0.13000
C 	C 	0.90019 0.32165 0.09017 0.30600
C 	C 	0.68355 0.31710 0.12300 0.03900
C 	C 	0.52934 0.37570 0.13082 0.07600
C 	C 	0.02610 0.33960 0.83460 0.04600
C 	C 	0.98240 0.29730 0.78530 0.08600
C 	C 	0.56198 0.33480 0.13604 -0.12900
C 	C 	0.98240 0.33650 0.79790 -0.12700
N 	N 	0.51406 0.02485 0.34743 -0.24300
N 	N 	0.64847 0.93153 0.99033 -0.23900
N 	N 	0.70553 0.05819 0.30935 -0.24200
N 	N 	0.71377 0.85794 0.02732 -0.24100
N 	N 	0.72171 0.88631 0.90027 -0.24700
N 	N 	0.88425 0.89291 0.94939 -0.24400
N 	N 	0.02090 0.85252 0.30488 -0.12800
N 	N 	0.18630 0.80740 0.23680 -0.12100
N 	N 	0.38634 0.47515 0.15257 -0.24300
N 	N 	0.07033 0.56847 0.50967 -0.23900
N 	N 	0.57307 0.44181 0.19065 -0.24200
N 	N 	0.09903 0.64206 0.47268 -0.24100
N 	N 	0.00829 0.61369 0.59973 -0.24600
N 	N 	0.22655 0.60709 0.55061 -0.24400
N 	N 	0.67830 0.64748 0.19512 -0.13200
N 	N 	0.73050 0.69260 0.26320 -0.12200
N 	N 	0.86149 0.65257 0.52485 -0.24300
N 	N 	0.63880 0.00967 0.43153 -0.23900
N 	N 	0.01488 0.69065 0.55819 -0.24100
N 	N 	0.74109 0.97268 0.35794 -0.24100
N 	N 	0.62198 0.09973 0.38631 -0.24700
N 	N 	0.83364 0.05061 0.39291 -0.24500
N 	N 	0.32578 0.69512 0.35252 -0.13100
N 	N 	0.42310 0.76320 0.30740 -0.12100
N 	N 	0.53891 0.84743 0.97515 -0.24300
N 	N 	0.58000 0.49033 0.06847 -0.23900
N 	N 	0.76372 0.80935 0.94181 -0.24200
N 	N 	0.57171 0.52732 0.14206 -0.24100
N 	N 	0.60802 0.40027 0.11369 -0.24700
N 	N 	0.77716 0.44939 0.10709 -0.24500
N 	N 	0.87342 0.80488 0.14748 -0.13200
N 	N 	0.99370 0.73680 0.19260 -0.12300
N 	N 	0.48594 0.97515 0.65257 -0.24300
N 	N 	0.35153 0.06847 0.00967 -0.23900
N 	N 	0.29447 0.94181 0.69065 -0.24200
N 	N 	0.28623 0.14206 0.97268 -0.24100
N 	N 	0.27829 0.11369 0.09973 -0.24700
N 	N 	0.11575 0.10709 0.05061 -0.24400
N 	N 	0.97910 0.14748 0.69512 -0.12800
N 	N 	0.81370 0.19260 0.76320 -0.12100
N 	N 	0.61366 0.52485 0.84743 -0.24300
N 	N 	0.92967 0.43153 0.49033 -0.23900
N 	N 	0.42693 0.55819 0.80935 -0.24200
N 	N 	0.90097 0.35794 0.52732 -0.24100
N 	N 	0.99171 0.38631 0.40027 -0.24600
N 	N 	0.77345 0.39291 0.44939 -0.24400
N 	N 	0.32170 0.35252 0.80488 -0.13200
N 	N 	0.26950 0.30740 0.73680 -0.12200
N 	N 	0.13851 0.34743 0.47515 -0.24300
N 	N 	0.36120 0.99033 0.56847 -0.23900
N 	N 	0.98512 0.30935 0.44181 -0.24100
N 	N 	0.25891 0.02732 0.64206 -0.24100
N 	N 	0.37802 0.90027 0.61369 -0.24700
N 	N 	0.16636 0.94939 0.60709 -0.24500
N 	N 	0.67422 0.30488 0.64748 -0.13100
N 	N 	0.57690 0.23680 0.69260 -0.12100
N 	N 	0.46109 0.15257 0.02485 -0.24300
N 	N 	0.42000 0.50967 0.93153 -0.23900
N 	N 	0.23628 0.19065 0.05819 -0.24200
N 	N 	0.42829 0.47268 0.85794 -0.24100
N 	N 	0.39198 0.59973 0.88631 -0.24700
N 	N 	0.22284 0.55061 0.89291 -0.24500
N 	N 	0.12658 0.19512 0.85252 -0.13200
N 	N 	0.00630 0.26320 0.80740 -0.12300
O 	O 	0.64547 0.99309 0.22497 -0.55800
O 	O 	0.66324 0.98575 0.12057 -0.44700
O 	O 	0.83072 0.94309 0.09407 -0.38800
O 	O 	0.98874 0.99578 0.13234 -0.54700
O 	O 	0.99396 0.91234 0.15654 -0.44600
O 	O 	0.90624 0.91063 0.22109 -0.40500
O 	O 	0.46469 0.97737 0.21685 -0.56300
O 	O 	0.16923 0.01424 0.13730 -0.56300
O 	O 	0.13188 0.96023 0.22161 -0.46700
O 	O 	0.29521 0.91460 0.22638 -0.40800
O 	O 	0.44479 0.94878 0.09664 -0.39600
O 	O 	0.48597 0.91617 0.15369 -0.44700
O 	O 	0.38712 0.07846 0.24930 -0.25900
O 	O 	0.52325 0.07715 0.19095 -0.28100
O 	O 	0.01324 0.07047 0.21145 -0.28000
O 	O 	0.91805 0.09930 0.16080 -0.26000
O 	O 	0.36353 0.50691 0.27503 -0.55800
O 	O 	0.26956 0.51425 0.37943 -0.44700
O 	O 	0.36788 0.55691 0.40593 -0.38800
O 	O 	0.61686 0.50422 0.36766 -0.54700
O 	O 	0.56284 0.58766 0.34346 -0.44500
O 	O 	0.53796 0.58937 0.27891 -0.40500
O 	O 	0.15891 0.52263 0.28315 -0.56200
O 	O 	0.82077 0.48576 0.36270 -0.56300
O 	O 	0.81372 0.53977 0.27839 -0.46800
O 	O 	0.93619 0.58540 0.27362 -0.40900
O 	O 	0.99021 0.55122 0.40336 -0.39800
O 	O 	0.05583 0.58383 0.34631 -0.44600
O 	O 	0.21488 0.42154 0.25070 -0.25800
O 	O 	0.29135 0.42285 0.30905 -0.28100
O 	O 	0.79516 0.42953 0.28855 -0.28000
O 	O 	0.67815 0.40070 0.33920 -0.26000
O 	O 	0.87044 0.77503 0.49309 -0.55800
O 	O 	0.78381 0.87943 0.48575 -0.44700
O 	O 	0.92479 0.90593 0.44309 -0.38900
O 	O 	0.12108 0.86766 0.49578 -0.54500
O 	O 	0.15050 0.84346 0.41234 -0.44400
O 	O 	0.12733 0.77891 0.41063 -0.40400
O 	O 	0.68154 0.78315 0.47737 -0.56300
O 	O 	0.30653 0.86270 0.51424 -0.56300
O 	O 	0.35349 0.77839 0.46023 -0.46700
O 	O 	0.52159 0.77362 0.41460 -0.40800
O 	O 	0.54143 0.90336 0.44878 -0.39600
O 	O 	0.63966 0.84631 0.41617 -0.44700
O 	O 	0.63642 0.75070 0.57846 -0.25800
O 	O 	0.71420 0.80905 0.57715 -0.28100
O 	O 	0.22469 0.78855 0.57047 -0.27900
O 	O 	0.07885 0.83920 0.59930 -0.26000
O 	O 	0.63856 0.72497 0.00691 -0.55800
O 	O 	0.64899 0.62057 0.01425 -0.44700
O 	O 	0.77381 0.59407 0.05691 -0.38800
O 	O 	0.98452 0.63234 0.00422 -0.54700
O 	O 	0.90630 0.65654 0.08766 -0.44500
O 	O 	0.81687 0.72109 0.08937 -0.40500
O 	O 	0.44206 0.71685 0.02263 -0.56300
O 	O 	0.18347 0.63730 0.98576 -0.56300
O 	O 	0.09211 0.72161 0.03977 -0.46700
O 	O 	0.20981 0.72638 0.08540 -0.40700
O 	O 	0.39357 0.59664 0.05122 -0.39600
O 	O 	0.40214 0.65369 0.08383 -0.44700
O 	O 	0.46558 0.74930 0.92154 -0.25900
O 	O 	0.60040 0.69095 0.92285 -0.28100
O 	O 	0.08371 0.71145 0.92953 -0.27900
O 	O 	0.01735 0.66080 0.90070 -0.26000
O 	O 	0.35453 0.00691 0.77503 -0.55800
O 	O 	0.33676 0.01425 0.87943 -0.44700
O 	O 	0.16928 0.05691 0.90593 -0.38800
O 	O 	0.01126 0.00422 0.86766 -0.54700
O 	O 	0.00604 0.08766 0.84346 -0.44600
O 	O 	0.09376 0.08937 0.77891 -0.40500
O 	O 	0.53531 0.02263 0.78315 -0.56300
O 	O 	0.83077 0.98576 0.86270 -0.56300
O 	O 	0.86812 0.03977 0.77839 -0.46700
O 	O 	0.70479 0.08540 0.77362 -0.40800
O 	O 	0.55521 0.05122 0.90336 -0.39600
O 	O 	0.51403 0.08383 0.84631 -0.44700
O 	O 	0.61288 0.92154 0.75070 -0.25900
O 	O 	0.47675 0.92285 0.80905 -0.28100
O 	O 	0.98676 0.92953 0.78855 -0.28000
O 	O 	0.08195 0.90070 0.83920 -0.26000
O 	O 	0.63647 0.49309 0.72497 -0.55800
O 	O 	0.73044 0.48575 0.62057 -0.44700
O 	O 	0.63212 0.44309 0.59407 -0.38800
O 	O 	0.38314 0.49578 0.63234 -0.54700
O 	O 	0.43716 0.41234 0.65654 -0.44500
O 	O 	0.46204 0.41063 0.72109 -0.40500
O 	O 	0.84109 0.47737 0.71685 -0.56200
O 	O 	0.17923 0.51424 0.63730 -0.56300
O 	O 	0.18628 0.46023 0.72161 -0.46800
O 	O 	0.06381 0.41460 0.72638 -0.40900
O 	O 	0.00979 0.44878 0.59664 -0.39800
O 	O 	0.94417 0.41617 0.65369 -0.44600
O 	O 	0.78512 0.57846 0.74930 -0.25800
O 	O 	0.70865 0.57715 0.69095 -0.28100
O 	O 	0.20484 0.57047 0.71145 -0.28000
O 	O 	0.32185 0.59930 0.66080 -0.26000
O 	O 	0.12956 0.22497 0.50691 -0.55800
O 	O 	0.21619 0.12057 0.51425 -0.44700
O 	O 	0.07521 0.09407 0.55691 -0.38900
O 	O 	0.87892 0.13234 0.50422 -0.54500
O 	O 	0.84950 0.15654 0.58766 -0.44400
O 	O 	0.87267 0.22109 0.58937 -0.40400
O 	O 	0.31846 0.21685 0.52263 -0.56300
O 	O 	0.69347 0.13730 0.48576 -0.56300
O 	O 	0.64651 0.22161 0.53977 -0.46700
O 	O 	0.47841 0.22638 0.58540 -0.40800
O 	O 	0.45857 0.09664 0.55122 -0.39600
O 	O 	0.36034 0.15369 0.58383 -0.44700
O 	O 	0.36358 0.24930 0.42154 -0.25800
O 	O 	0.28580 0.19095 0.42285 -0.28100
O 	O 	0.77531 0.21145 0.42953 -0.27900
O 	O 	0.92115 0.16080 0.40070 -0.26000
O 	O 	0.36144 0.27503 0.99309 -0.55800
O 	O 	0.35101 0.37943 0.98575 -0.44700
O 	O 	0.22619 0.40593 0.94309 -0.38800
O 	O 	0.01548 0.36766 0.99578 -0.54700
O 	O 	0.09370 0.34346 0.91234 -0.44500
O 	O 	0.18313 0.27891 0.91063 -0.40500
O 	O 	0.55794 0.28315 0.97737 -0.56300
O 	O 	0.81653 0.36270 0.01424 -0.56300
O 	O 	0.90789 0.27839 0.96023 -0.46700
O 	O 	0.79019 0.27362 0.91460 -0.40700
O 	O 	0.60643 0.40336 0.94878 -0.39600
O 	O 	0.59786 0.34631 0.91617 -0.44700
O 	O 	0.53442 0.25070 0.07846 -0.25900
O 	O 	0.39960 0.30905 0.07715 -0.28100
O 	O 	0.91629 0.28855 0.07047 -0.27900
O 	O 	0.98265 0.33920 0.09930 -0.26000
