data_crystal

_cell_length_a 11.23670
_cell_length_b 32.96820
_cell_length_c 32.96820
_cell_angle_alpha 88.33570
_cell_angle_beta  80.18790
_cell_angle_gamma 80.18770

_symmetry_space_group_name_	'P 1'
_symmetry_space_group_name_H-M	'P 1'

loop_
_symmetry_equiv_pos_as_xyz
  x,y,z

loop_
_atom_site_label
_atom_site_type_symbol
_atom_site_fract_x
_atom_site_fract_y
_atom_site_fract_z
_atom_site_charge
Pr	Pr	0.81646 0.97138 0.17134 2.02400
Pr	Pr	0.31687 0.97408 0.17314 2.03000
Pr	Pr	0.45918 0.52862 0.32866 2.02400
Pr	Pr	0.96409 0.52592 0.32686 2.03000
Pr	Pr	0.98780 0.82866 0.47138 2.02300
Pr	Pr	0.49002 0.82685 0.47408 2.03000
Pr	Pr	0.78784 0.67134 0.02862 2.02400
Pr	Pr	0.29094 0.67315 0.02592 2.03000
Pr	Pr	0.18354 0.02862 0.82866 2.02400
Pr	Pr	0.68313 0.02592 0.82686 2.03000
Pr	Pr	0.54082 0.47138 0.67134 2.02400
Pr	Pr	0.03591 0.47408 0.67314 2.03000
Pr	Pr	0.01220 0.17134 0.52862 2.02300
Pr	Pr	0.50998 0.17315 0.52592 2.03000
Pr	Pr	0.21216 0.32866 0.97138 2.02300
Pr	Pr	0.70906 0.32685 0.97408 2.02900
Co	Co	0.71127 0.87107 0.96359 1.12000
Co	Co	0.04593 0.62893 0.53641 1.12000
Co	Co	0.67486 0.03641 0.37107 1.12000
Co	Co	0.58234 0.46359 0.12893 1.12000
Co	Co	0.28873 0.12893 0.03641 1.12000
Co	Co	0.95407 0.37107 0.46359 1.12000
Co	Co	0.32514 0.96359 0.62893 1.12000
Co	Co	0.41766 0.53641 0.87107 1.12000
H 	H 	0.95980 0.01650 0.05930 0.00200
H 	H 	0.93570 0.06390 0.00610 0.08600
H 	H 	0.06610 0.11370 0.99670 -0.01100
H 	H 	0.41440 0.13890 0.11170 0.00000
H 	H 	0.34710 0.14820 0.18000 0.09200
H 	H 	0.16510 0.12670 0.20970 0.03200
H 	H 	0.55540 0.84230 0.13270 0.02600
H 	H 	0.66350 0.78740 0.09360 0.09100
H 	H 	0.75920 0.79890 0.02670 -0.02100
H 	H 	0.63590 0.96680 0.94180 -0.01900
H 	H 	0.65270 0.02830 0.97230 0.09000
H 	H 	0.69730 0.02600 0.03800 0.00900
H 	H 	0.66700 0.12360 0.21980 0.03400
H 	H 	0.82460 0.12810 0.25570 0.09100
H 	H 	0.84250 0.08660 0.31300 0.00000
H 	H 	0.42380 0.99950 0.39610 -0.01300
H 	H 	0.31880 0.96260 0.36100 0.08500
H 	H 	0.37520 0.95550 0.29030 -0.00100
H 	H 	0.10210 0.95650 0.31350 -0.00200
H 	H 	0.01560 0.92540 0.37180 0.11300
H 	H 	0.95770 0.86550 0.36330 -0.01300
H 	H 	0.26820 0.75970 0.20590 0.02300
H 	H 	0.26730 0.78550 0.13950 0.08900
H 	H 	0.12700 0.84520 0.13400 0.02900
H 	H 	0.53560 0.48350 0.44070 0.00100
H 	H 	0.50570 0.43610 0.49390 0.08600
H 	H 	0.67650 0.38630 0.50330 -0.01200
H 	H 	0.16500 0.36110 0.38830 0.00000
H 	H 	0.17530 0.35180 0.32000 0.09100
H 	H 	0.00150 0.37330 0.29030 0.03300
H 	H 	0.03040 0.65770 0.36730 0.02600
H 	H 	0.04450 0.71260 0.40640 0.09200
H 	H 	0.08480 0.70110 0.47330 -0.02100
H 	H 	0.04450 0.53320 0.55820 -0.01900
H 	H 	0.15330 0.47170 0.52770 0.08900
H 	H 	0.26130 0.47400 0.46200 0.00900
H 	H 	0.51040 0.37640 0.28020 0.03400
H 	H 	0.70840 0.37190 0.24430 0.09100
H 	H 	0.74210 0.41340 0.18700 0.00000
H 	H 	0.31940 0.50050 0.10390 -0.01300
H 	H 	0.14240 0.53740 0.13900 0.08500
H 	H 	0.12100 0.54450 0.20970 0.00000
H 	H 	0.87210 0.54350 0.18650 -0.00400
H 	H 	0.81280 0.57460 0.12820 0.11600
H 	H 	0.68650 0.63450 0.13670 -0.01600
H 	H 	0.73380 0.74030 0.29410 0.02200
H 	H 	0.69230 0.71450 0.36050 0.08900
H 	H 	0.60620 0.65480 0.36600 0.02800
H 	H 	0.01910 0.94070 0.51650 0.00100
H 	H 	0.94180 0.99390 0.56390 0.08600
H 	H 	0.06280 0.00330 0.61370 -0.01200
H 	H 	0.52610 0.88830 0.63890 0.00000
H 	H 	0.52710 0.82000 0.64820 0.09200
H 	H 	0.37480 0.79030 0.62670 0.03200
H 	H 	0.68810 0.86730 0.34230 0.02600
H 	H 	0.75710 0.90640 0.28740 0.09100
H 	H 	0.78590 0.97330 0.29890 -0.02100
H 	H 	0.57770 0.05820 0.46680 -0.01900
H 	H 	0.62500 0.02770 0.52830 0.08900
H 	H 	0.73530 0.96200 0.52600 0.00900
H 	H 	0.88680 0.78020 0.62360 0.03500
H 	H 	0.08030 0.74430 0.62810 0.09000
H 	H 	0.15550 0.68700 0.58660 0.00100
H 	H 	0.81990 0.60390 0.49950 -0.01400
H 	H 	0.67980 0.63900 0.46260 0.08500
H 	H 	0.66550 0.70970 0.45550 -0.00100
H 	H 	0.41560 0.68650 0.45650 -0.00400
H 	H 	0.38740 0.62820 0.42540 0.11600
H 	H 	0.32100 0.63670 0.36550 -0.01600
H 	H 	0.47410 0.79410 0.25970 0.02300
H 	H 	0.40680 0.86050 0.28550 0.08900
H 	H 	0.26100 0.86600 0.34520 0.02900
H 	H 	0.97630 0.55930 0.98350 0.00000
H 	H 	0.99960 0.50610 0.93610 0.08800
H 	H 	0.17980 0.49670 0.88630 -0.01200
H 	H 	0.55330 0.61170 0.86110 0.00000
H 	H 	0.49530 0.68000 0.85180 0.09200
H 	H 	0.29180 0.70970 0.87330 0.03300
H 	H 	0.39770 0.63270 0.15770 0.02600
H 	H 	0.45090 0.59360 0.21260 0.09100
H 	H 	0.55810 0.52670 0.20110 -0.02100
H 	H 	0.60270 0.44180 0.03320 -0.01900
H 	H 	0.68100 0.47230 0.97170 0.08900
H 	H 	0.72330 0.53800 0.97400 0.00900
H 	H 	0.79060 0.71980 0.87640 0.03400
H 	H 	0.95270 0.75570 0.87190 0.09100
H 	H 	0.92910 0.81300 0.91340 -0.00000
H 	H 	0.42330 0.89610 0.00050 -0.01400
H 	H 	0.28140 0.86100 0.03740 0.08500
H 	H 	0.33070 0.79030 0.04450 -0.00100
H 	H 	0.05860 0.81350 0.04350 -0.00500
H 	H 	0.94100 0.87180 0.07460 0.11700
H 	H 	0.82320 0.86330 0.13450 -0.01600
H 	H 	0.02790 0.70590 0.24030 0.02300
H 	H 	0.05280 0.63950 0.21450 0.08900
H 	H 	0.97220 0.63400 0.15480 0.03000
H 	H 	0.04020 0.98350 0.94070 0.00200
H 	H 	0.06430 0.93610 0.99390 0.08600
H 	H 	0.93390 0.88630 0.00330 -0.01100
H 	H 	0.58560 0.86110 0.88830 0.00000
H 	H 	0.65290 0.85180 0.82000 0.09200
H 	H 	0.83490 0.87330 0.79030 0.03200
H 	H 	0.44460 0.15770 0.86730 0.02600
H 	H 	0.33650 0.21260 0.90640 0.09100
H 	H 	0.24080 0.20110 0.97330 -0.02100
H 	H 	0.36410 0.03320 0.05820 -0.01900
H 	H 	0.34730 0.97170 0.02770 0.09000
H 	H 	0.30270 0.97400 0.96200 0.00900
H 	H 	0.33300 0.87640 0.78020 0.03400
H 	H 	0.17540 0.87190 0.74430 0.09100
H 	H 	0.15750 0.91340 0.68700 0.00000
H 	H 	0.57620 0.00050 0.60390 -0.01300
H 	H 	0.68120 0.03740 0.63900 0.08500
H 	H 	0.62480 0.04450 0.70970 -0.00100
H 	H 	0.89790 0.04350 0.68650 -0.00200
H 	H 	0.98440 0.07460 0.62820 0.11300
H 	H 	0.04230 0.13450 0.63670 -0.01300
H 	H 	0.73180 0.24030 0.79410 0.02300
H 	H 	0.73270 0.21450 0.86050 0.08900
H 	H 	0.87300 0.15480 0.86600 0.02900
H 	H 	0.46440 0.51650 0.55930 0.00100
H 	H 	0.49430 0.56390 0.50610 0.08600
H 	H 	0.32350 0.61370 0.49670 -0.01200
H 	H 	0.83500 0.63890 0.61170 0.00000
H 	H 	0.82470 0.64820 0.68000 0.09100
H 	H 	0.99850 0.62670 0.70970 0.03300
H 	H 	0.96960 0.34230 0.63270 0.02600
H 	H 	0.95550 0.28740 0.59360 0.09200
H 	H 	0.91520 0.29890 0.52670 -0.02100
H 	H 	0.95550 0.46680 0.44180 -0.01900
H 	H 	0.84670 0.52830 0.47230 0.08900
H 	H 	0.73870 0.52600 0.53800 0.00900
H 	H 	0.48960 0.62360 0.71980 0.03400
H 	H 	0.29160 0.62810 0.75570 0.09100
H 	H 	0.25790 0.58660 0.81300 0.00000
H 	H 	0.68060 0.49950 0.89610 -0.01300
H 	H 	0.85760 0.46260 0.86100 0.08500
H 	H 	0.87900 0.45550 0.79030 0.00000
H 	H 	0.12790 0.45650 0.81350 -0.00400
H 	H 	0.18720 0.42540 0.87180 0.11600
H 	H 	0.31350 0.36550 0.86330 -0.01600
H 	H 	0.26620 0.25970 0.70590 0.02200
H 	H 	0.30770 0.28550 0.63950 0.08900
H 	H 	0.39380 0.34520 0.63400 0.02800
H 	H 	0.98090 0.05930 0.48350 0.00100
H 	H 	0.05820 0.00610 0.43610 0.08600
H 	H 	0.93720 0.99670 0.38630 -0.01200
H 	H 	0.47390 0.11170 0.36110 0.00000
H 	H 	0.47290 0.18000 0.35180 0.09200
H 	H 	0.62520 0.20970 0.37330 0.03200
H 	H 	0.31190 0.13270 0.65770 0.02600
H 	H 	0.24290 0.09360 0.71260 0.09100
H 	H 	0.21410 0.02670 0.70110 -0.02100
H 	H 	0.42230 0.94180 0.53320 -0.01900
H 	H 	0.37500 0.97230 0.47170 0.08900
H 	H 	0.26470 0.03800 0.47400 0.00900
H 	H 	0.11320 0.21980 0.37640 0.03500
H 	H 	0.91970 0.25570 0.37190 0.09000
H 	H 	0.84450 0.31300 0.41340 0.00100
H 	H 	0.18010 0.39610 0.50050 -0.01400
H 	H 	0.32020 0.36100 0.53740 0.08500
H 	H 	0.33450 0.29030 0.54450 -0.00100
H 	H 	0.58440 0.31350 0.54350 -0.00400
H 	H 	0.61260 0.37180 0.57460 0.11600
H 	H 	0.67900 0.36330 0.63450 -0.01600
H 	H 	0.52590 0.20590 0.74030 0.02300
H 	H 	0.59320 0.13950 0.71450 0.08900
H 	H 	0.73900 0.13400 0.65480 0.02900
H 	H 	0.02370 0.44070 0.01650 0.00000
H 	H 	0.00040 0.49390 0.06390 0.08800
H 	H 	0.82020 0.50330 0.11370 -0.01200
H 	H 	0.44670 0.38830 0.13890 0.00000
H 	H 	0.50470 0.32000 0.14820 0.09200
H 	H 	0.70820 0.29030 0.12670 0.03300
H 	H 	0.60230 0.36730 0.84230 0.02600
H 	H 	0.54910 0.40640 0.78740 0.09100
H 	H 	0.44190 0.47330 0.79890 -0.02100
H 	H 	0.39730 0.55820 0.96680 -0.01900
H 	H 	0.31900 0.52770 0.02830 0.08900
H 	H 	0.27670 0.46200 0.02600 0.00900
H 	H 	0.20940 0.28020 0.12360 0.03400
H 	H 	0.04730 0.24430 0.12810 0.09100
H 	H 	0.07090 0.18700 0.08660 -0.00000
H 	H 	0.57670 0.10390 0.99950 -0.01400
H 	H 	0.71860 0.13900 0.96260 0.08500
H 	H 	0.66930 0.20970 0.95550 -0.00100
H 	H 	0.94140 0.18650 0.95650 -0.00500
H 	H 	0.05900 0.12820 0.92540 0.11700
H 	H 	0.17680 0.13670 0.86550 -0.01600
H 	H 	0.97210 0.29410 0.75970 0.02300
H 	H 	0.94720 0.36050 0.78550 0.08900
H 	H 	0.02780 0.36600 0.84520 0.03000
C 	C 	0.06920 0.01790 0.12310 0.49400
C 	C 	0.05450 0.04950 0.08910 -0.18700
C 	C 	0.99450 0.04030 0.05790 0.09300
C 	C 	0.98670 0.06670 0.02490 -0.15100
C 	C 	0.05930 0.09840 0.02080 0.08800
C 	C 	0.11110 0.08340 0.08480 0.09500
C 	C 	0.17450 0.10050 0.11630 0.04900
C 	C 	0.34140 0.13040 0.12360 0.07000
C 	C 	0.30250 0.13590 0.16390 -0.12700
C 	C 	0.19310 0.12300 0.18160 0.04200
C 	C 	0.12640 0.10490 0.15830 -0.11600
C 	C 	0.01040 0.09110 0.17770 0.31100
C 	C 	0.50130 0.92130 0.11350 0.30900
C 	C 	0.58820 0.88610 0.08970 -0.11000
C 	C 	0.59460 0.84650 0.10610 0.05600
C 	C 	0.65840 0.81400 0.08320 -0.14100
C 	C 	0.71730 0.82120 0.04280 0.09200
C 	C 	0.65650 0.89160 0.05020 0.05400
C 	C 	0.66500 0.93140 0.03000 0.06200
C 	C 	0.64560 0.96670 0.96930 0.09300
C 	C 	0.65930 0.00380 0.98700 -0.14500
C 	C 	0.68270 0.00220 0.02640 0.06300
C 	C 	0.68510 0.96600 0.05000 -0.11100
C 	C 	0.72940 0.96350 0.09050 0.32000
C 	C 	0.49200 0.07930 0.23070 0.30300
C 	C 	0.59480 0.08010 0.25490 -0.10600
C 	C 	0.67600 0.10700 0.24280 0.03900
C 	C 	0.77040 0.10990 0.26390 -0.12100
C 	C 	0.78090 0.08470 0.29790 0.07300
C 	C 	0.61600 0.05550 0.28810 0.05500
C 	C 	0.53850 0.02440 0.30580 0.08100
C 	C 	0.43840 0.99980 0.36740 0.09300
C 	C 	0.37890 0.97640 0.34680 -0.16100
C 	C 	0.40930 0.97330 0.30450 0.09600
C 	C 	0.48990 0.99660 0.28340 -0.17700
C 	C 	0.53510 0.98890 0.23770 0.48700
C 	C 	0.11310 0.90900 0.27380 -0.13700
C 	C 	0.08370 0.93030 0.31210 0.09300
C 	C 	0.03020 0.91300 0.34600 -0.18400
C 	C 	0.99960 0.87690 0.34010 0.11800
C 	C 	0.08170 0.87000 0.27060 0.09700
C 	C 	0.11900 0.84600 0.23260 0.08600
C 	C 	0.22880 0.78650 0.20270 0.08000
C 	C 	0.22190 0.79990 0.16250 -0.12500
C 	C 	0.14320 0.83580 0.15960 0.04700
C 	C 	0.08370 0.85960 0.19660 -0.11300
C 	C 	0.99080 0.89940 0.19180 0.34600
C 	C 	0.18760 0.92900 0.23880 0.35600
C 	C 	0.71020 0.48210 0.37690 0.49300
C 	C 	0.69310 0.45050 0.41090 -0.18700
C 	C 	0.59270 0.45970 0.44210 0.09400
C 	C 	0.57830 0.43330 0.47510 -0.15200
C 	C 	0.67850 0.40160 0.47920 0.09000
C 	C 	0.77930 0.41660 0.41520 0.09500
C 	C 	0.89130 0.39950 0.38370 0.04900
C 	C 	0.09540 0.36960 0.37640 0.06900
C 	C 	0.10230 0.36410 0.33610 -0.12600
C 	C 	0.99770 0.37700 0.31840 0.04100
C 	C 	0.88960 0.39510 0.34170 -0.11600
C 	C 	0.77920 0.40890 0.32230 0.31200
C 	C 	0.03610 0.57870 0.38650 0.31200
C 	C 	0.06400 0.61390 0.41030 -0.11000
C 	C 	0.04720 0.65350 0.39390 0.05700
C 	C 	0.05560 0.68600 0.41680 -0.14000
C 	C 	0.08130 0.67880 0.45720 0.09300
C 	C 	0.09830 0.60840 0.44980 0.05500
C 	C 	0.12640 0.56860 0.47000 0.06200
C 	C 	0.08160 0.53330 0.53070 0.09300
C 	C 	0.15010 0.49620 0.51300 -0.14400
C 	C 	0.21130 0.49780 0.47360 0.06300
C 	C 	0.20110 0.53400 0.45000 -0.11000
C 	C 	0.28340 0.53650 0.40950 0.32000
C 	C 	0.30200 0.42070 0.26930 0.30300
C 	C 	0.42980 0.41990 0.24510 -0.10600
C 	C 	0.52580 0.39300 0.25720 0.03900
C 	C 	0.64420 0.39010 0.23610 -0.12100
C 	C 	0.66350 0.41530 0.20210 0.07300
C 	C 	0.45960 0.44450 0.21190 0.05500
C 	C 	0.36870 0.47560 0.19420 0.08100
C 	C 	0.30560 0.50020 0.13260 0.09300
C 	C 	0.20210 0.52360 0.15320 -0.16100
C 	C 	0.18710 0.52670 0.19550 0.09600
C 	C 	0.26990 0.50340 0.21660 -0.17700
C 	C 	0.26170 0.51110 0.26230 0.48700
C 	C 	0.79590 0.59100 0.22620 -0.14000
C 	C 	0.82610 0.56970 0.18790 0.09900
C 	C 	0.78920 0.58700 0.15400 -0.19500
C 	C 	0.71660 0.62310 0.15990 0.12900
C 	C 	0.72230 0.63000 0.22940 0.09700
C 	C 	0.69760 0.65400 0.26740 0.08600
C 	C 	0.71800 0.71350 0.29730 0.08000
C 	C 	0.68430 0.70010 0.33750 -0.12600
C 	C 	0.63860 0.66420 0.34040 0.04800
C 	C 	0.63990 0.64040 0.30340 -0.11600
C 	C 	0.58200 0.60060 0.30820 0.34900
C 	C 	0.85540 0.57100 0.26120 0.35700
C 	C 	0.19230 0.87690 0.51790 0.49300
C 	C 	0.14360 0.91090 0.54950 -0.18700
C 	C 	0.05240 0.94210 0.54030 0.09400
C 	C 	0.01160 0.97510 0.56670 -0.15300
C 	C 	0.08010 0.97920 0.59840 0.09100
C 	C 	0.19590 0.91520 0.58340 0.09500
C 	C 	0.29080 0.88370 0.60050 0.04900
C 	C 	0.46500 0.87640 0.63040 0.07000
C 	C 	0.46640 0.83610 0.63590 -0.12700
C 	C 	0.37470 0.81840 0.62300 0.04200
C 	C 	0.28470 0.84170 0.60490 -0.11600
C 	C 	0.18810 0.82230 0.59110 0.31200
C 	C 	0.61480 0.88650 0.42130 0.30900
C 	C 	0.67790 0.91030 0.38610 -0.11000
C 	C 	0.70070 0.89390 0.34650 0.05600
C 	C 	0.74160 0.91680 0.31400 -0.14100
C 	C 	0.76010 0.95720 0.32120 0.09200
C 	C 	0.70670 0.94980 0.39160 0.05400
C 	C 	0.69500 0.97000 0.43140 0.06200
C 	C 	0.61490 0.03070 0.46670 0.09300
C 	C 	0.64630 0.01300 0.50380 -0.14400
C 	C 	0.70910 0.97360 0.50220 0.06200
C 	C 	0.73510 0.95000 0.46600 -0.11100
C 	C 	0.81990 0.90950 0.46350 0.32000
C 	C 	0.72270 0.76930 0.57930 0.30200
C 	C 	0.84970 0.74510 0.58010 -0.10500
C 	C 	0.91880 0.75720 0.60700 0.03500
C 	C 	0.03430 0.73610 0.60990 -0.11700
C 	C 	0.07880 0.70210 0.58470 0.07100
C 	C 	0.90410 0.71190 0.55550 0.05300
C 	C 	0.84430 0.69420 0.52440 0.08100
C 	C 	0.80580 0.63260 0.49980 0.09300
C 	C 	0.72570 0.65320 0.47640 -0.16200
C 	C 	0.71380 0.69550 0.47330 0.09600
C 	C 	0.77330 0.71660 0.49660 -0.17800
C 	C 	0.77280 0.76230 0.48890 0.48700
C 	C 	0.38690 0.72620 0.40900 -0.13900
C 	C 	0.39580 0.68790 0.43030 0.09900
C 	C 	0.37620 0.65400 0.41300 -0.19400
C 	C 	0.33970 0.65990 0.37690 0.12900
C 	C 	0.35230 0.72940 0.37000 0.09700
C 	C 	0.35160 0.76740 0.34600 0.08600
C 	C 	0.43150 0.79730 0.28650 0.08000
C 	C 	0.38440 0.83750 0.29990 -0.12600
C 	C 	0.30280 0.84040 0.33580 0.04800
C 	C 	0.28030 0.80340 0.35960 -0.11500
C 	C 	0.18260 0.80820 0.39940 0.34900
C 	C 	0.42640 0.76120 0.42900 0.35700
C 	C 	0.08710 0.62310 0.98210 0.49500
C 	C 	0.10400 0.58910 0.95050 -0.18800
C 	C 	0.03480 0.55790 0.95970 0.09700
C 	C 	0.05340 0.52490 0.93330 -0.15500
C 	C 	0.15770 0.52080 0.90160 0.09100
C 	C 	0.19450 0.58480 0.91660 0.09500
C 	C 	0.27500 0.61630 0.89950 0.04900
C 	C 	0.47180 0.62360 0.86960 0.07000
C 	C 	0.43840 0.66390 0.86410 -0.12700
C 	C 	0.31610 0.68160 0.87700 0.04200
C 	C 	0.23130 0.65830 0.89510 -0.11600
C 	C 	0.10150 0.67770 0.90890 0.31200
C 	C 	0.42260 0.61350 0.07870 0.30900
C 	C 	0.47430 0.58970 0.11390 -0.11000
C 	C 	0.44110 0.60610 0.15350 0.05600
C 	C 	0.47240 0.58320 0.18600 -0.14100
C 	C 	0.53850 0.54280 0.17880 0.09200
C 	C 	0.54810 0.55020 0.10840 0.05400
C 	C 	0.59640 0.53000 0.06860 0.06200
C 	C 	0.61230 0.46930 0.03330 0.09300
C 	C 	0.66310 0.48700 0.99620 -0.14400
C 	C 	0.68490 0.52640 0.99780 0.06300
C 	C 	0.65110 0.55000 0.03400 -0.11100
C 	C 	0.69290 0.59050 0.03650 0.32000
C 	C 	0.57130 0.73070 0.92070 0.30300
C 	C 	0.67490 0.75490 0.91990 -0.10600
C 	C 	0.78300 0.74280 0.89300 0.03900
C 	C 	0.88030 0.76390 0.89010 -0.12100
C 	C 	0.86560 0.79790 0.91530 0.07300
C 	C 	0.67150 0.78810 0.94450 0.05500
C 	C 	0.56290 0.80580 0.97560 0.08100
C 	C 	0.43820 0.86740 0.00020 0.09300
C 	C 	0.35530 0.84680 0.02360 -0.16200
C 	C 	0.38260 0.80450 0.02670 0.09700
C 	C 	0.48650 0.78340 0.00340 -0.17700
C 	C 	0.52400 0.73770 0.01110 0.48700
C 	C 	0.02210 0.77380 0.09100 -0.13800
C 	C 	0.01400 0.81210 0.06970 0.10200
C 	C 	0.94320 0.84600 0.08700 -0.19900
C 	C 	0.87650 0.84010 0.12310 0.13000
C 	C 	0.95170 0.77060 0.13000 0.09500
C 	C 	0.96500 0.73260 0.15400 0.08500
C 	C 	0.01530 0.70270 0.21350 0.08200
C 	C 	0.02180 0.66250 0.20010 -0.12100
C 	C 	0.97900 0.65960 0.16420 0.04300
C 	C 	0.94330 0.69660 0.14040 -0.11500
C 	C 	0.89020 0.69180 0.10060 0.34800
C 	C 	0.11660 0.73880 0.07100 0.35700
C 	C 	0.93080 0.98210 0.87690 0.49400
C 	C 	0.94550 0.95050 0.91090 -0.18700
C 	C 	0.00550 0.95970 0.94210 0.09300
C 	C 	0.01330 0.93330 0.97510 -0.15100
C 	C 	0.94070 0.90160 0.97920 0.08800
C 	C 	0.88890 0.91660 0.91520 0.09500
C 	C 	0.82550 0.89950 0.88370 0.04900
C 	C 	0.65860 0.86960 0.87640 0.07000
C 	C 	0.69750 0.86410 0.83610 -0.12700
C 	C 	0.80690 0.87700 0.81840 0.04200
C 	C 	0.87360 0.89510 0.84170 -0.11600
C 	C 	0.98960 0.90890 0.82230 0.31100
C 	C 	0.49870 0.07870 0.88650 0.30900
C 	C 	0.41180 0.11390 0.91030 -0.11000
C 	C 	0.40540 0.15350 0.89390 0.05600
C 	C 	0.34160 0.18600 0.91680 -0.14100
C 	C 	0.28270 0.17880 0.95720 0.09200
C 	C 	0.34350 0.10840 0.94980 0.05400
C 	C 	0.33500 0.06860 0.97000 0.06200
C 	C 	0.35440 0.03330 0.03070 0.09300
C 	C 	0.34070 0.99620 0.01300 -0.14500
C 	C 	0.31730 0.99780 0.97360 0.06300
C 	C 	0.31490 0.03400 0.95000 -0.11100
C 	C 	0.27060 0.03650 0.90950 0.32000
C 	C 	0.50800 0.92070 0.76930 0.30300
C 	C 	0.40520 0.91990 0.74510 -0.10600
C 	C 	0.32400 0.89300 0.75720 0.03900
C 	C 	0.22960 0.89010 0.73610 -0.12100
C 	C 	0.21910 0.91530 0.70210 0.07300
C 	C 	0.38400 0.94450 0.71190 0.05500
C 	C 	0.46150 0.97560 0.69420 0.08100
C 	C 	0.56160 0.00020 0.63260 0.09300
C 	C 	0.62110 0.02360 0.65320 -0.16100
C 	C 	0.59070 0.02670 0.69550 0.09600
C 	C 	0.51010 0.00340 0.71660 -0.17700
C 	C 	0.46490 0.01110 0.76230 0.48700
C 	C 	0.88690 0.09100 0.72620 -0.13700
C 	C 	0.91630 0.06970 0.68790 0.09300
C 	C 	0.96980 0.08700 0.65400 -0.18400
C 	C 	0.00040 0.12310 0.65990 0.11800
C 	C 	0.91830 0.13000 0.72940 0.09700
C 	C 	0.88100 0.15400 0.76740 0.08600
C 	C 	0.77120 0.21350 0.79730 0.08000
C 	C 	0.77810 0.20010 0.83750 -0.12500
C 	C 	0.85680 0.16420 0.84040 0.04700
C 	C 	0.91630 0.14040 0.80340 -0.11300
C 	C 	0.00920 0.10060 0.80820 0.34600
C 	C 	0.81240 0.07100 0.76120 0.35600
C 	C 	0.28980 0.51790 0.62310 0.49300
C 	C 	0.30690 0.54950 0.58910 -0.18700
C 	C 	0.40730 0.54030 0.55790 0.09400
C 	C 	0.42170 0.56670 0.52490 -0.15200
C 	C 	0.32150 0.59840 0.52080 0.09000
C 	C 	0.22070 0.58340 0.58480 0.09500
C 	C 	0.10870 0.60050 0.61630 0.04900
C 	C 	0.90460 0.63040 0.62360 0.06900
C 	C 	0.89770 0.63590 0.66390 -0.12600
C 	C 	0.00230 0.62300 0.68160 0.04100
C 	C 	0.11040 0.60490 0.65830 -0.11600
C 	C 	0.22080 0.59110 0.67770 0.31200
C 	C 	0.96390 0.42130 0.61350 0.31200
C 	C 	0.93600 0.38610 0.58970 -0.11000
C 	C 	0.95280 0.34650 0.60610 0.05700
C 	C 	0.94440 0.31400 0.58320 -0.14000
C 	C 	0.91870 0.32120 0.54280 0.09300
C 	C 	0.90170 0.39160 0.55020 0.05500
C 	C 	0.87360 0.43140 0.53000 0.06200
C 	C 	0.91840 0.46670 0.46930 0.09300
C 	C 	0.84990 0.50380 0.48700 -0.14400
C 	C 	0.78870 0.50220 0.52640 0.06300
C 	C 	0.79890 0.46600 0.55000 -0.11000
C 	C 	0.71660 0.46350 0.59050 0.32000
C 	C 	0.69800 0.57930 0.73070 0.30300
C 	C 	0.57020 0.58010 0.75490 -0.10600
C 	C 	0.47420 0.60700 0.74280 0.03900
C 	C 	0.35580 0.60990 0.76390 -0.12100
C 	C 	0.33650 0.58470 0.79790 0.07300
C 	C 	0.54040 0.55550 0.78810 0.05500
C 	C 	0.63130 0.52440 0.80580 0.08100
C 	C 	0.69440 0.49980 0.86740 0.09300
C 	C 	0.79790 0.47640 0.84680 -0.16100
C 	C 	0.81290 0.47330 0.80450 0.09600
C 	C 	0.73010 0.49660 0.78340 -0.17700
C 	C 	0.73830 0.48890 0.73770 0.48700
C 	C 	0.20410 0.40900 0.77380 -0.14000
C 	C 	0.17390 0.43030 0.81210 0.09900
C 	C 	0.21080 0.41300 0.84600 -0.19500
C 	C 	0.28340 0.37690 0.84010 0.12900
C 	C 	0.27770 0.37000 0.77060 0.09700
C 	C 	0.30240 0.34600 0.73260 0.08600
C 	C 	0.28200 0.28650 0.70270 0.08000
C 	C 	0.31570 0.29990 0.66250 -0.12600
C 	C 	0.36140 0.33580 0.65960 0.04800
C 	C 	0.36010 0.35960 0.69660 -0.11600
C 	C 	0.41800 0.39940 0.69180 0.34900
C 	C 	0.14460 0.42900 0.73880 0.35700
C 	C 	0.80770 0.12310 0.48210 0.49300
C 	C 	0.85640 0.08910 0.45050 -0.18700
C 	C 	0.94760 0.05790 0.45970 0.09400
C 	C 	0.98840 0.02490 0.43330 -0.15300
C 	C 	0.91990 0.02080 0.40160 0.09100
C 	C 	0.80410 0.08480 0.41660 0.09500
C 	C 	0.70920 0.11630 0.39950 0.04900
C 	C 	0.53500 0.12360 0.36960 0.07000
C 	C 	0.53360 0.16390 0.36410 -0.12700
C 	C 	0.62530 0.18160 0.37700 0.04200
C 	C 	0.71530 0.15830 0.39510 -0.11600
C 	C 	0.81190 0.17770 0.40890 0.31200
C 	C 	0.38520 0.11350 0.57870 0.30900
C 	C 	0.32210 0.08970 0.61390 -0.11000
C 	C 	0.29930 0.10610 0.65350 0.05600
C 	C 	0.25840 0.08320 0.68600 -0.14100
C 	C 	0.23990 0.04280 0.67880 0.09200
C 	C 	0.29330 0.05020 0.60840 0.05400
C 	C 	0.30500 0.03000 0.56860 0.06200
C 	C 	0.38510 0.96930 0.53330 0.09300
C 	C 	0.35370 0.98700 0.49620 -0.14400
C 	C 	0.29090 0.02640 0.49780 0.06200
C 	C 	0.26490 0.05000 0.53400 -0.11100
C 	C 	0.18010 0.09050 0.53650 0.32000
C 	C 	0.27730 0.23070 0.42070 0.30200
C 	C 	0.15030 0.25490 0.41990 -0.10500
C 	C 	0.08120 0.24280 0.39300 0.03500
C 	C 	0.96570 0.26390 0.39010 -0.11700
C 	C 	0.92120 0.29790 0.41530 0.07100
C 	C 	0.09590 0.28810 0.44450 0.05300
C 	C 	0.15570 0.30580 0.47560 0.08100
C 	C 	0.19420 0.36740 0.50020 0.09300
C 	C 	0.27430 0.34680 0.52360 -0.16200
C 	C 	0.28620 0.30450 0.52670 0.09600
C 	C 	0.22670 0.28340 0.50340 -0.17800
C 	C 	0.22720 0.23770 0.51110 0.48700
C 	C 	0.61310 0.27380 0.59100 -0.13900
C 	C 	0.60420 0.31210 0.56970 0.09900
C 	C 	0.62380 0.34600 0.58700 -0.19400
C 	C 	0.66030 0.34010 0.62310 0.12900
C 	C 	0.64770 0.27060 0.63000 0.09700
C 	C 	0.64840 0.23260 0.65400 0.08600
C 	C 	0.56850 0.20270 0.71350 0.08000
C 	C 	0.61560 0.16250 0.70010 -0.12600
C 	C 	0.69720 0.15960 0.66420 0.04800
C 	C 	0.71970 0.19660 0.64040 -0.11500
C 	C 	0.81740 0.19180 0.60060 0.34900
C 	C 	0.57360 0.23880 0.57100 0.35700
C 	C 	0.91290 0.37690 0.01790 0.49500
C 	C 	0.89600 0.41090 0.04950 -0.18800
C 	C 	0.96520 0.44210 0.04030 0.09700
C 	C 	0.94660 0.47510 0.06670 -0.15500
C 	C 	0.84230 0.47920 0.09840 0.09100
C 	C 	0.80550 0.41520 0.08340 0.09500
C 	C 	0.72500 0.38370 0.10050 0.04900
C 	C 	0.52820 0.37640 0.13040 0.07000
C 	C 	0.56160 0.33610 0.13590 -0.12700
C 	C 	0.68390 0.31840 0.12300 0.04200
C 	C 	0.76870 0.34170 0.10490 -0.11600
C 	C 	0.89850 0.32230 0.09110 0.31200
C 	C 	0.57740 0.38650 0.92130 0.30900
C 	C 	0.52570 0.41030 0.88610 -0.11000
C 	C 	0.55890 0.39390 0.84650 0.05600
C 	C 	0.52760 0.41680 0.81400 -0.14100
C 	C 	0.46150 0.45720 0.82120 0.09200
C 	C 	0.45190 0.44980 0.89160 0.05400
C 	C 	0.40360 0.47000 0.93140 0.06200
C 	C 	0.38770 0.53070 0.96670 0.09300
C 	C 	0.33690 0.51300 0.00380 -0.14400
C 	C 	0.31510 0.47360 0.00220 0.06300
C 	C 	0.34890 0.45000 0.96600 -0.11100
C 	C 	0.30710 0.40950 0.96350 0.32000
C 	C 	0.42870 0.26930 0.07930 0.30300
C 	C 	0.32510 0.24510 0.08010 -0.10600
C 	C 	0.21700 0.25720 0.10700 0.03900
C 	C 	0.11970 0.23610 0.10990 -0.12100
C 	C 	0.13440 0.20210 0.08470 0.07300
C 	C 	0.32850 0.21190 0.05550 0.05500
C 	C 	0.43710 0.19420 0.02440 0.08100
C 	C 	0.56180 0.13260 0.99980 0.09300
C 	C 	0.64470 0.15320 0.97640 -0.16200
C 	C 	0.61740 0.19550 0.97330 0.09700
C 	C 	0.51350 0.21660 0.99660 -0.17700
C 	C 	0.47600 0.26230 0.98890 0.48700
C 	C 	0.97790 0.22620 0.90900 -0.13800
C 	C 	0.98600 0.18790 0.93030 0.10200
C 	C 	0.05680 0.15400 0.91300 -0.19900
C 	C 	0.12350 0.15990 0.87690 0.13000
C 	C 	0.04830 0.22940 0.87000 0.09500
C 	C 	0.03500 0.26740 0.84600 0.08500
C 	C 	0.98470 0.29730 0.78650 0.08200
C 	C 	0.97820 0.33750 0.79990 -0.12100
C 	C 	0.02100 0.34040 0.83580 0.04300
C 	C 	0.05670 0.30340 0.85960 -0.11500
C 	C 	0.10980 0.30820 0.89940 0.34800
C 	C 	0.88340 0.26120 0.92900 0.35700
N 	N 	0.11730 0.10680 0.05040 -0.24400
N 	N 	0.27910 0.11280 0.09900 -0.24500
N 	N 	0.64630 0.93160 0.99020 -0.23800
N 	N 	0.71470 0.85840 0.02720 -0.24100
N 	N 	0.70580 0.05780 0.30960 -0.24300
N 	N 	0.51760 0.02350 0.34770 -0.24000
N 	N 	0.02000 0.85340 0.30540 -0.12600
N 	N 	0.18510 0.80800 0.23700 -0.11900
N 	N 	0.77450 0.39320 0.44960 -0.24400
N 	N 	0.99090 0.38720 0.40100 -0.24400
N 	N 	0.06810 0.56840 0.50980 -0.23800
N 	N 	0.10030 0.64160 0.47280 -0.24100
N 	N 	0.57320 0.44220 0.19040 -0.24300
N 	N 	0.38880 0.47650 0.15230 -0.24000
N 	N 	0.67880 0.64660 0.19460 -0.12900
N 	N 	0.73010 0.69200 0.26300 -0.11900
N 	N 	0.16770 0.94960 0.60680 -0.24400
N 	N 	0.37810 0.90100 0.61280 -0.24500
N 	N 	0.63650 0.00980 0.43160 -0.23800
N 	N 	0.74190 0.97280 0.35840 -0.24100
N 	N 	0.01540 0.69040 0.55780 -0.24100
N 	N 	0.86530 0.65230 0.52350 -0.24000
N 	N 	0.32540 0.69460 0.35340 -0.12900
N 	N 	0.42210 0.76300 0.30800 -0.11900
N 	N 	0.22410 0.55040 0.89320 -0.24400
N 	N 	0.39190 0.59900 0.88720 -0.24500
N 	N 	0.57790 0.49020 0.06840 -0.23800
N 	N 	0.57310 0.52720 0.14160 -0.24100
N 	N 	0.76360 0.80960 0.94220 -0.24300
N 	N 	0.54110 0.84770 0.97650 -0.24000
N 	N 	0.87340 0.80540 0.14660 -0.12900
N 	N 	0.99310 0.73700 0.19200 -0.12100
N 	N 	0.88270 0.89320 0.94960 -0.24400
N 	N 	0.72090 0.88720 0.90100 -0.24500
N 	N 	0.35370 0.06840 0.00980 -0.23800
N 	N 	0.28530 0.14160 0.97280 -0.24100
N 	N 	0.29420 0.94220 0.69040 -0.24300
N 	N 	0.48240 0.97650 0.65230 -0.24000
N 	N 	0.98000 0.14660 0.69460 -0.12600
N 	N 	0.81490 0.19200 0.76300 -0.11900
N 	N 	0.22550 0.60680 0.55040 -0.24400
N 	N 	0.00910 0.61280 0.59900 -0.24400
N 	N 	0.93190 0.43160 0.49020 -0.23800
N 	N 	0.89970 0.35840 0.52720 -0.24100
N 	N 	0.42680 0.55780 0.80960 -0.24300
N 	N 	0.61120 0.52350 0.84770 -0.24000
N 	N 	0.32120 0.35340 0.80540 -0.12900
N 	N 	0.26990 0.30800 0.73700 -0.11900
N 	N 	0.83230 0.05040 0.39320 -0.24400
N 	N 	0.62190 0.09900 0.38720 -0.24500
N 	N 	0.36350 0.99020 0.56840 -0.23800
N 	N 	0.25810 0.02720 0.64160 -0.24100
N 	N 	0.98460 0.30960 0.44220 -0.24100
N 	N 	0.13470 0.34770 0.47650 -0.24000
N 	N 	0.67460 0.30540 0.64660 -0.12900
N 	N 	0.57790 0.23700 0.69200 -0.11900
N 	N 	0.77590 0.44960 0.10680 -0.24400
N 	N 	0.60810 0.40100 0.11280 -0.24500
N 	N 	0.42210 0.50980 0.93160 -0.23800
N 	N 	0.42690 0.47280 0.85840 -0.24100
N 	N 	0.23640 0.19040 0.05780 -0.24300
N 	N 	0.45890 0.15230 0.02350 -0.24000
N 	N 	0.12660 0.19460 0.85340 -0.12900
N 	N 	0.00690 0.26300 0.80800 -0.12100
O 	O 	0.48858 0.91723 0.15341 -0.44600
O 	O 	0.44470 0.94930 0.09650 -0.41200
O 	O 	0.83100 0.94270 0.09370 -0.39600
O 	O 	0.66443 0.98607 0.11967 -0.45700
O 	O 	0.98788 0.99670 0.13194 -0.56100
O 	O 	0.16628 0.01514 0.13790 -0.55900
O 	O 	0.91781 0.10003 0.16055 -0.25900
O 	O 	0.01176 0.07202 0.21086 -0.28300
O 	O 	0.52203 0.07769 0.19185 -0.27700
O 	O 	0.38682 0.07867 0.25009 -0.25700
O 	O 	0.64398 0.99283 0.22521 -0.55900
O 	O 	0.46291 0.97763 0.21735 -0.55700
O 	O 	0.13370 0.96010 0.22350 -0.48700
O 	O 	0.29580 0.91460 0.22600 -0.42200
O 	O 	0.99390 0.91320 0.15780 -0.47100
O 	O 	0.90640 0.91100 0.22160 -0.41700
O 	O 	0.05922 0.58277 0.34659 -0.44500
O 	O 	0.99050 0.55070 0.40350 -0.41500
O 	O 	0.36740 0.55730 0.40630 -0.39600
O 	O 	0.27017 0.51393 0.38033 -0.45700
O 	O 	0.61652 0.50330 0.36806 -0.56000
O 	O 	0.81932 0.48486 0.36210 -0.55900
O 	O 	0.67839 0.39997 0.33945 -0.25900
O 	O 	0.79464 0.42798 0.28914 -0.28300
O 	O 	0.29157 0.42231 0.30815 -0.27700
O 	O 	0.21558 0.42133 0.24991 -0.25700
O 	O 	0.36202 0.50717 0.27479 -0.55900
O 	O 	0.15789 0.52237 0.28265 -0.55600
O 	O 	0.81730 0.53990 0.27650 -0.48700
O 	O 	0.93640 0.58540 0.27400 -0.42400
O 	O 	0.56490 0.58680 0.34220 -0.47100
O 	O 	0.53900 0.58900 0.27840 -0.41700
O 	O 	0.64199 0.84659 0.41723 -0.44600
O 	O 	0.54120 0.90350 0.44930 -0.41200
O 	O 	0.92470 0.90630 0.44270 -0.39700
O 	O 	0.78410 0.88033 0.48607 -0.45700
O 	O 	0.11982 0.86806 0.49670 -0.55900
O 	O 	0.30418 0.86210 0.51514 -0.55900
O 	O 	0.07836 0.83945 0.60003 -0.25900
O 	O 	0.22262 0.78914 0.57202 -0.28300
O 	O 	0.71388 0.80815 0.57769 -0.27700
O 	O 	0.63691 0.74991 0.57867 -0.25700
O 	O 	0.86919 0.77479 0.49283 -0.56000
O 	O 	0.68026 0.78265 0.47763 -0.55700
O 	O 	0.35720 0.77650 0.46010 -0.48700
O 	O 	0.52180 0.77400 0.41460 -0.42300
O 	O 	0.15170 0.84220 0.41320 -0.47000
O 	O 	0.12800 0.77840 0.41100 -0.41700
O 	O 	0.40581 0.65341 0.08277 -0.44600
O 	O 	0.39400 0.59650 0.05070 -0.41200
O 	O 	0.77370 0.59370 0.05730 -0.39600
O 	O 	0.65050 0.61967 0.01393 -0.45700
O 	O 	0.98458 0.63194 0.00330 -0.56000
O 	O 	0.18142 0.63790 0.98486 -0.55900
O 	O 	0.01784 0.66055 0.89997 -0.25900
O 	O 	0.08378 0.71086 0.92798 -0.28200
O 	O 	0.59972 0.69185 0.92231 -0.27700
O 	O 	0.46549 0.75009 0.92133 -0.25700
O 	O 	0.63681 0.72521 0.00717 -0.55900
O 	O 	0.44054 0.71735 0.02237 -0.55700
O 	O 	0.09380 0.72350 0.03990 -0.48700
O 	O 	0.21040 0.72600 0.08540 -0.42200
O 	O 	0.90710 0.65780 0.08680 -0.47100
O 	O 	0.81740 0.72160 0.08900 -0.41700
O 	O 	0.51142 0.08277 0.84659 -0.44600
O 	O 	0.55530 0.05070 0.90350 -0.41200
O 	O 	0.16900 0.05730 0.90630 -0.39600
O 	O 	0.33557 0.01393 0.88033 -0.45700
O 	O 	0.01212 0.00330 0.86806 -0.56100
O 	O 	0.83372 0.98486 0.86210 -0.55900
O 	O 	0.08219 0.89997 0.83945 -0.25900
O 	O 	0.98824 0.92798 0.78914 -0.28300
O 	O 	0.47797 0.92231 0.80815 -0.27700
O 	O 	0.61318 0.92133 0.74991 -0.25700
O 	O 	0.35602 0.00717 0.77479 -0.55900
O 	O 	0.53709 0.02237 0.78265 -0.55700
O 	O 	0.86630 0.03990 0.77650 -0.48700
O 	O 	0.70420 0.08540 0.77400 -0.42200
O 	O 	0.00610 0.08680 0.84220 -0.47100
O 	O 	0.09360 0.08900 0.77840 -0.41700
O 	O 	0.94078 0.41723 0.65341 -0.44500
O 	O 	0.00950 0.44930 0.59650 -0.41500
O 	O 	0.63260 0.44270 0.59370 -0.39600
O 	O 	0.72983 0.48607 0.61967 -0.45700
O 	O 	0.38348 0.49670 0.63194 -0.56000
O 	O 	0.18068 0.51514 0.63790 -0.55900
O 	O 	0.32161 0.60003 0.66055 -0.25900
O 	O 	0.20536 0.57202 0.71086 -0.28300
O 	O 	0.70843 0.57769 0.69185 -0.27700
O 	O 	0.78442 0.57867 0.75009 -0.25700
O 	O 	0.63798 0.49283 0.72521 -0.55900
O 	O 	0.84211 0.47763 0.71735 -0.55600
O 	O 	0.18270 0.46010 0.72350 -0.48700
O 	O 	0.06360 0.41460 0.72600 -0.42400
O 	O 	0.43510 0.41320 0.65780 -0.47100
O 	O 	0.46100 0.41100 0.72160 -0.41700
O 	O 	0.35801 0.15341 0.58277 -0.44600
O 	O 	0.45880 0.09650 0.55070 -0.41200
O 	O 	0.07530 0.09370 0.55730 -0.39700
O 	O 	0.21590 0.11967 0.51393 -0.45700
O 	O 	0.88018 0.13194 0.50330 -0.55900
O 	O 	0.69582 0.13790 0.48486 -0.55900
O 	O 	0.92164 0.16055 0.39997 -0.25900
O 	O 	0.77738 0.21086 0.42798 -0.28300
O 	O 	0.28612 0.19185 0.42231 -0.27700
O 	O 	0.36309 0.25009 0.42133 -0.25700
O 	O 	0.13081 0.22521 0.50717 -0.56000
O 	O 	0.31974 0.21735 0.52237 -0.55700
O 	O 	0.64280 0.22350 0.53990 -0.48700
O 	O 	0.47820 0.22600 0.58540 -0.42300
O 	O 	0.84830 0.15780 0.58680 -0.47000
O 	O 	0.87200 0.22160 0.58900 -0.41700
O 	O 	0.59419 0.34659 0.91723 -0.44600
O 	O 	0.60600 0.40350 0.94930 -0.41200
O 	O 	0.22630 0.40630 0.94270 -0.39600
O 	O 	0.34950 0.38033 0.98607 -0.45700
O 	O 	0.01542 0.36806 0.99670 -0.56000
O 	O 	0.81858 0.36210 0.01514 -0.55900
O 	O 	0.98216 0.33945 0.10003 -0.25900
O 	O 	0.91622 0.28914 0.07202 -0.28200
O 	O 	0.40028 0.30815 0.07769 -0.27700
O 	O 	0.53451 0.24991 0.07867 -0.25700
O 	O 	0.36319 0.27479 0.99283 -0.55900
O 	O 	0.55946 0.28265 0.97763 -0.55700
O 	O 	0.90620 0.27650 0.96010 -0.48700
O 	O 	0.78960 0.27400 0.91460 -0.42200
O 	O 	0.09290 0.34220 0.91320 -0.47100
O 	O 	0.18260 0.27840 0.91100 -0.41700
