data_crystal

_cell_length_a 11.18340
_cell_length_b 32.98290
_cell_length_c 32.98290
_cell_angle_alpha 88.35300
_cell_angle_beta  80.23930
_cell_angle_gamma 80.23930

_symmetry_space_group_name_	'P 1'
_symmetry_space_group_name_H-M	'P 1'

loop_
_symmetry_equiv_pos_as_xyz
  x,y,z

loop_
_atom_site_label
_atom_site_type_symbol
_atom_site_fract_x
_atom_site_fract_y
_atom_site_fract_z
_atom_site_charge
Sm	Sm	0.31814 0.97477 0.17363 1.83900
Sm	Sm	0.81794 0.97200 0.17079 1.80900
Sm	Sm	0.96654 0.52523 0.32637 1.83700
Sm	Sm	0.46073 0.52800 0.32920 1.80900
Sm	Sm	0.49177 0.82637 0.47477 1.83900
Sm	Sm	0.98872 0.82921 0.47201 1.80500
Sm	Sm	0.29291 0.67363 0.02523 1.83900
Sm	Sm	0.78994 0.67079 0.02800 1.80900
Sm	Sm	0.68186 0.02523 0.82637 1.83900
Sm	Sm	0.18207 0.02800 0.82920 1.80900
Sm	Sm	0.03346 0.47477 0.67363 1.83700
Sm	Sm	0.53928 0.47200 0.67079 1.80900
Sm	Sm	0.50823 0.17363 0.52523 1.83900
Sm	Sm	0.01128 0.17079 0.52799 1.80500
Sm	Sm	0.70709 0.32637 0.97477 1.83900
Sm	Sm	0.21006 0.32921 0.97201 1.80900
Co	Co	0.71162 0.87094 0.96391 1.11700
Co	Co	0.04646 0.62906 0.53610 1.11700
Co	Co	0.67553 0.03609 0.37094 1.11700
Co	Co	0.58256 0.46391 0.12905 1.11700
Co	Co	0.28838 0.12906 0.03610 1.11700
Co	Co	0.95354 0.37094 0.46391 1.11700
Co	Co	0.32448 0.96391 0.62905 1.11700
Co	Co	0.41744 0.53609 0.87095 1.11700
H 	H 	0.16820 0.12710 0.20950 0.03100
H 	H 	0.35040 0.14840 0.18000 0.09100
H 	H 	0.41670 0.13940 0.11100 -0.00100
H 	H 	0.05400 0.11430 0.99870 -0.01900
H 	H 	0.93670 0.06310 0.00630 0.09600
H 	H 	0.94670 0.01940 0.06300 -0.01000
H 	H 	0.69810 0.02620 0.03780 0.00200
H 	H 	0.65570 0.02710 0.97190 0.09600
H 	H 	0.63460 0.96730 0.94270 -0.02200
H 	H 	0.75740 0.79870 0.02790 -0.01800
H 	H 	0.65960 0.78800 0.09380 0.09600
H 	H 	0.54890 0.84310 0.13170 0.01900
H 	H 	0.11450 0.84610 0.13750 0.02400
H 	H 	0.25950 0.78630 0.14170 0.09100
H 	H 	0.28020 0.76350 0.20810 0.02000
H 	H 	0.96010 0.86630 0.36470 -0.01500
H 	H 	0.01570 0.92730 0.37170 0.11000
H 	H 	0.10670 0.95840 0.31360 -0.00200
H 	H 	0.37520 0.95560 0.28940 -0.01100
H 	H 	0.32230 0.96130 0.35970 0.09500
H 	H 	0.42460 0.99910 0.39450 -0.02100
H 	H 	0.84510 0.08640 0.31220 -0.00200
H 	H 	0.82530 0.12840 0.25700 0.09300
H 	H 	0.66770 0.12500 0.22080 0.03100
H 	H 	0.00480 0.37290 0.29050 0.03100
H 	H 	0.17880 0.35160 0.32000 0.09100
H 	H 	0.16710 0.36060 0.38900 -0.00100
H 	H 	0.66700 0.38570 0.50130 -0.01900
H 	H 	0.50610 0.43690 0.49370 0.09600
H 	H 	0.52910 0.48060 0.43700 -0.01000
H 	H 	0.26210 0.47380 0.46220 0.00200
H 	H 	0.15470 0.47290 0.52810 0.09600
H 	H 	0.04460 0.53270 0.55730 -0.02100
H 	H 	0.08400 0.70130 0.47210 -0.01700
H 	H 	0.04140 0.71200 0.40620 0.09600
H 	H 	0.02370 0.65690 0.36830 0.02000
H 	H 	0.59810 0.65390 0.36250 0.02300
H 	H 	0.68750 0.71370 0.35830 0.09100
H 	H 	0.75180 0.73650 0.29190 0.02000
H 	H 	0.69110 0.63370 0.13530 -0.01200
H 	H 	0.81470 0.57270 0.12830 0.10800
H 	H 	0.87870 0.54160 0.18640 -0.00100
H 	H 	0.12020 0.54440 0.21060 -0.01000
H 	H 	0.14330 0.53870 0.14030 0.09500
H 	H 	0.31820 0.50090 0.10550 -0.02100
H 	H 	0.74370 0.41360 0.18780 -0.00200
H 	H 	0.71070 0.37160 0.24300 0.09300
H 	H 	0.51350 0.37500 0.27920 0.03100
H 	H 	0.37770 0.79050 0.62710 0.03100
H 	H 	0.53040 0.82000 0.64840 0.09100
H 	H 	0.52770 0.88900 0.63940 -0.00200
H 	H 	0.05270 0.00130 0.61430 -0.02000
H 	H 	0.94300 0.99370 0.56310 0.09600
H 	H 	0.00970 0.93700 0.51940 -0.01000
H 	H 	0.73590 0.96220 0.52620 0.00200
H 	H 	0.62760 0.02810 0.52710 0.09600
H 	H 	0.57730 0.05730 0.46730 -0.02100
H 	H 	0.78530 0.97210 0.29870 -0.01800
H 	H 	0.75340 0.90620 0.28800 0.09600
H 	H 	0.68060 0.86830 0.34310 0.01900
H 	H 	0.25200 0.86250 0.34610 0.02300
H 	H 	0.40120 0.85830 0.28630 0.09100
H 	H 	0.48830 0.79190 0.26350 0.02000
H 	H 	0.32480 0.63530 0.36630 -0.01100
H 	H 	0.38740 0.62830 0.42730 0.10800
H 	H 	0.42030 0.68640 0.45840 -0.00100
H 	H 	0.66460 0.71060 0.45560 -0.01100
H 	H 	0.68200 0.64030 0.46130 0.09500
H 	H 	0.81910 0.60550 0.49910 -0.02100
H 	H 	0.15730 0.68780 0.58640 -0.00200
H 	H 	0.08230 0.74300 0.62840 0.09100
H 	H 	0.88850 0.77920 0.62500 0.03200
H 	H 	0.29530 0.70950 0.87290 0.03100
H 	H 	0.49880 0.68000 0.85160 0.09100
H 	H 	0.55610 0.61100 0.86060 -0.00100
H 	H 	0.16830 0.49870 0.88570 -0.02000
H 	H 	0.99980 0.50630 0.93690 0.09700
H 	H 	0.96610 0.56300 0.98060 -0.01100
H 	H 	0.72430 0.53780 0.97380 0.00200
H 	H 	0.68280 0.47190 0.97290 0.09600
H 	H 	0.60190 0.44270 0.03270 -0.02200
H 	H 	0.55610 0.52790 0.20130 -0.01800
H 	H 	0.44760 0.59380 0.21200 0.09600
H 	H 	0.39200 0.63170 0.15690 0.01900
H 	H 	0.96060 0.63750 0.15390 0.02400
H 	H 	0.04580 0.64170 0.21370 0.09000
H 	H 	0.04370 0.70810 0.23650 0.02000
H 	H 	0.82640 0.86470 0.13370 -0.01200
H 	H 	0.94300 0.87170 0.07270 0.10900
H 	H 	0.06510 0.81360 0.04160 -0.00100
H 	H 	0.33080 0.78940 0.04440 -0.01100
H 	H 	0.28360 0.85970 0.03870 0.09500
H 	H 	0.42370 0.89450 0.00090 -0.02100
H 	H 	0.93150 0.81220 0.91360 -0.00300
H 	H 	0.95370 0.75700 0.87160 0.09200
H 	H 	0.79270 0.72080 0.87500 0.03100
H 	H 	0.83180 0.87290 0.79050 0.03100
H 	H 	0.64960 0.85160 0.82000 0.09100
H 	H 	0.58330 0.86060 0.88900 -0.00100
H 	H 	0.94600 0.88570 0.00130 -0.01900
H 	H 	0.06330 0.93690 0.99370 0.09600
H 	H 	0.05330 0.98060 0.93700 -0.01000
H 	H 	0.30190 0.97380 0.96220 0.00200
H 	H 	0.34430 0.97290 0.02810 0.09600
H 	H 	0.36540 0.03270 0.05730 -0.02200
H 	H 	0.24260 0.20130 0.97210 -0.01800
H 	H 	0.34040 0.21200 0.90620 0.09600
H 	H 	0.45110 0.15690 0.86830 0.01900
H 	H 	0.88550 0.15390 0.86250 0.02400
H 	H 	0.74050 0.21370 0.85830 0.09100
H 	H 	0.71980 0.23650 0.79190 0.02000
H 	H 	0.03990 0.13370 0.63530 -0.01500
H 	H 	0.98430 0.07270 0.62830 0.11000
H 	H 	0.89330 0.04160 0.68640 -0.00200
H 	H 	0.62480 0.04440 0.71060 -0.01100
H 	H 	0.67770 0.03870 0.64030 0.09500
H 	H 	0.57540 0.00090 0.60550 -0.02100
H 	H 	0.15490 0.91360 0.68780 -0.00200
H 	H 	0.17470 0.87160 0.74300 0.09300
H 	H 	0.33230 0.87500 0.77920 0.03100
H 	H 	0.99520 0.62710 0.70950 0.03100
H 	H 	0.82120 0.64840 0.68000 0.09100
H 	H 	0.83290 0.63940 0.61100 -0.00100
H 	H 	0.33300 0.61430 0.49870 -0.01900
H 	H 	0.49390 0.56310 0.50630 0.09600
H 	H 	0.47090 0.51940 0.56300 -0.01000
H 	H 	0.73790 0.52620 0.53780 0.00200
H 	H 	0.84530 0.52710 0.47190 0.09600
H 	H 	0.95540 0.46730 0.44270 -0.02100
H 	H 	0.91600 0.29870 0.52790 -0.01700
H 	H 	0.95860 0.28800 0.59380 0.09600
H 	H 	0.97630 0.34310 0.63170 0.02000
H 	H 	0.40190 0.34610 0.63750 0.02300
H 	H 	0.31250 0.28630 0.64170 0.09100
H 	H 	0.24820 0.26350 0.70810 0.02000
H 	H 	0.30890 0.36630 0.86470 -0.01100
H 	H 	0.18530 0.42730 0.87170 0.10800
H 	H 	0.12130 0.45840 0.81360 -0.00100
H 	H 	0.87980 0.45560 0.78940 -0.01000
H 	H 	0.85670 0.46130 0.85970 0.09500
H 	H 	0.68180 0.49910 0.89450 -0.02100
H 	H 	0.25630 0.58640 0.81220 -0.00200
H 	H 	0.28930 0.62840 0.75700 0.09300
H 	H 	0.48650 0.62500 0.72080 0.03100
H 	H 	0.62230 0.20950 0.37290 0.03100
H 	H 	0.46960 0.18000 0.35160 0.09100
H 	H 	0.47230 0.11100 0.36060 -0.00200
H 	H 	0.94730 0.99870 0.38570 -0.02000
H 	H 	0.05700 0.00630 0.43690 0.09600
H 	H 	0.99030 0.06300 0.48060 -0.01000
H 	H 	0.26410 0.03780 0.47380 0.00200
H 	H 	0.37240 0.97190 0.47290 0.09600
H 	H 	0.42270 0.94270 0.53270 -0.02200
H 	H 	0.21470 0.02790 0.70130 -0.01800
H 	H 	0.24660 0.09380 0.71200 0.09600
H 	H 	0.31940 0.13170 0.65690 0.01900
H 	H 	0.74800 0.13750 0.65390 0.02300
H 	H 	0.59880 0.14170 0.71370 0.09100
H 	H 	0.51170 0.20810 0.73650 0.02000
H 	H 	0.67520 0.36470 0.63370 -0.01100
H 	H 	0.61260 0.37170 0.57270 0.10800
H 	H 	0.57970 0.31360 0.54160 -0.00100
H 	H 	0.33540 0.28940 0.54440 -0.01100
H 	H 	0.31800 0.35970 0.53870 0.09500
H 	H 	0.18090 0.39450 0.50090 -0.02100
H 	H 	0.84270 0.31220 0.41360 -0.00200
H 	H 	0.91770 0.25700 0.37160 0.09100
H 	H 	0.11150 0.22080 0.37500 0.03200
H 	H 	0.70470 0.29050 0.12710 0.03100
H 	H 	0.50120 0.32000 0.14840 0.09100
H 	H 	0.44390 0.38900 0.13940 -0.00100
H 	H 	0.83170 0.50130 0.11430 -0.02000
H 	H 	0.00020 0.49370 0.06310 0.09700
H 	H 	0.03390 0.43700 0.01940 -0.01100
H 	H 	0.27570 0.46220 0.02620 0.00200
H 	H 	0.31720 0.52810 0.02710 0.09600
H 	H 	0.39810 0.55730 0.96730 -0.02200
H 	H 	0.44390 0.47210 0.79870 -0.01800
H 	H 	0.55240 0.40620 0.78800 0.09600
H 	H 	0.60800 0.36830 0.84310 0.01900
H 	H 	0.03940 0.36250 0.84610 0.02400
H 	H 	0.95420 0.35830 0.78630 0.09000
H 	H 	0.95630 0.29190 0.76350 0.02000
H 	H 	0.17360 0.13530 0.86630 -0.01200
H 	H 	0.05700 0.12830 0.92730 0.10900
H 	H 	0.93490 0.18640 0.95840 -0.00100
H 	H 	0.66920 0.21060 0.95560 -0.01100
H 	H 	0.71640 0.14030 0.96130 0.09500
H 	H 	0.57630 0.10550 0.99910 -0.02100
H 	H 	0.06850 0.18780 0.08640 -0.00300
H 	H 	0.04630 0.24300 0.12840 0.09200
H 	H 	0.20730 0.27920 0.12500 0.03100
C 	C 	0.01196 0.09109 0.17819 0.31100
C 	C 	0.13064 0.10529 0.15783 -0.10600
C 	C 	0.19673 0.12347 0.18147 0.04400
C 	C 	0.30495 0.13630 0.16400 -0.12700
C 	C 	0.34364 0.13084 0.12288 0.07500
C 	C 	0.17709 0.10011 0.11611 0.04600
C 	C 	0.11275 0.08385 0.08525 0.09700
C 	C 	0.05200 0.09819 0.02241 0.11000
C 	C 	0.98415 0.06712 0.02598 -0.18100
C 	C 	0.98879 0.04163 0.06019 0.12100
C 	C 	0.05592 0.04915 0.09001 -0.20700
C 	C 	0.07363 0.01792 0.12322 0.51900
C 	C 	0.73291 0.96475 0.09023 0.34600
C 	C 	0.68947 0.96604 0.04902 -0.12600
C 	C 	0.68497 0.00225 0.02621 0.07900
C 	C 	0.66143 0.00280 0.98694 -0.16300
C 	C 	0.64648 0.96712 0.96992 0.10700
C 	C 	0.66371 0.93176 0.03082 0.06900
C 	C 	0.65536 0.89171 0.05117 0.05400
C 	C 	0.71522 0.82116 0.04380 0.09700
C 	C 	0.65563 0.81445 0.08309 -0.15000
C 	C 	0.59106 0.84729 0.10559 0.06700
C 	C 	0.58717 0.88675 0.09031 -0.12300
C 	C 	0.49888 0.92156 0.11348 0.33400
C 	C 	0.98605 0.89987 0.19283 0.36700
C 	C 	0.08332 0.86162 0.19774 -0.13100
C 	C 	0.13560 0.83760 0.16280 0.06100
C 	C 	0.21820 0.80120 0.16500 -0.13200
C 	C 	0.23380 0.78920 0.20480 0.08300
C 	C 	0.11890 0.84813 0.23367 0.09300
C 	C 	0.08300 0.87313 0.27187 0.09600
C 	C 	0.00070 0.87780 0.34140 0.12700
C 	C 	0.03160 0.91445 0.34615 -0.18300
C 	C 	0.08760 0.93225 0.31195 0.09000
C 	C 	0.11678 0.91112 0.27392 -0.14200
C 	C 	0.18744 0.93040 0.23852 0.35300
C 	C 	0.53822 0.98848 0.23688 0.52100
C 	C 	0.49239 0.99654 0.28228 -0.20100
C 	C 	0.41041 0.97312 0.30366 0.12400
C 	C 	0.38115 0.97565 0.34545 -0.18900
C 	C 	0.43942 0.99941 0.36595 0.11200
C 	C 	0.53899 0.02349 0.30513 0.09500
C 	C 	0.61747 0.05453 0.28793 0.05000
C 	C 	0.78253 0.08461 0.29733 0.08300
C 	C 	0.77124 0.10990 0.26462 -0.13000
C 	C 	0.67807 0.10757 0.24309 0.04800
C 	C 	0.59900 0.07938 0.25422 -0.10300
C 	C 	0.49596 0.07841 0.22947 0.31400
C 	C 	0.78124 0.40891 0.32181 0.31200
C 	C 	0.89376 0.39471 0.34217 -0.10600
C 	C 	0.00167 0.37653 0.31853 0.04400
C 	C 	0.10525 0.36370 0.33600 -0.12700
C 	C 	0.09736 0.36916 0.37712 0.07500
C 	C 	0.89331 0.39989 0.38389 0.04600
C 	C 	0.78185 0.41615 0.41475 0.09800
C 	C 	0.67260 0.40181 0.47759 0.11200
C 	C 	0.57725 0.43288 0.47402 -0.18200
C 	C 	0.59061 0.45837 0.43981 0.12100
C 	C 	0.69508 0.45085 0.40999 -0.20700
C 	C 	0.71477 0.48208 0.37678 0.51900
C 	C 	0.28789 0.53525 0.40977 0.34600
C 	C 	0.20453 0.53396 0.45098 -0.12600
C 	C 	0.21343 0.49775 0.47379 0.07800
C 	C 	0.15117 0.49720 0.51306 -0.16300
C 	C 	0.08352 0.53288 0.53008 0.10700
C 	C 	0.12629 0.56824 0.46918 0.06900
C 	C 	0.09824 0.60829 0.44883 0.05400
C 	C 	0.08018 0.67884 0.45620 0.09800
C 	C 	0.05317 0.68555 0.41691 -0.15000
C 	C 	0.04394 0.65271 0.39441 0.06800
C 	C 	0.06423 0.61325 0.40969 -0.12300
C 	C 	0.03392 0.57844 0.38652 0.33600
C 	C 	0.57875 0.60013 0.30717 0.36900
C 	C 	0.64268 0.63838 0.30226 -0.13300
C 	C 	0.63600 0.66240 0.33720 0.06100
C 	C 	0.68440 0.69880 0.33500 -0.13300
C 	C 	0.72780 0.71080 0.29520 0.08300
C 	C 	0.70070 0.65187 0.26633 0.09400
C 	C 	0.72800 0.62687 0.22813 0.09500
C 	C 	0.71990 0.62220 0.15860 0.12200
C 	C 	0.79220 0.58555 0.15385 -0.17900
C 	C 	0.83180 0.56775 0.18805 0.08800
C 	C 	0.80182 0.58888 0.22608 -0.14100
C 	C 	0.85636 0.56960 0.26148 0.35300
C 	C 	0.26358 0.51152 0.26312 0.52100
C 	C 	0.27121 0.50346 0.21772 -0.20100
C 	C 	0.18719 0.52688 0.19634 0.12400
C 	C 	0.20225 0.52435 0.15455 -0.18900
C 	C 	0.30478 0.50059 0.13405 0.11200
C 	C 	0.36761 0.47651 0.19487 0.09500
C 	C 	0.45993 0.44547 0.21207 0.05000
C 	C 	0.66447 0.41539 0.20267 0.08300
C 	C 	0.64576 0.39010 0.23538 -0.13000
C 	C 	0.52873 0.39243 0.25691 0.04800
C 	C 	0.43260 0.42062 0.24578 -0.10300
C 	C 	0.30384 0.42159 0.27053 0.31400
C 	C 	0.19015 0.82181 0.59109 0.31200
C 	C 	0.28847 0.84217 0.60529 -0.10600
C 	C 	0.37820 0.81853 0.62347 0.04400
C 	C 	0.46895 0.83600 0.63630 -0.12700
C 	C 	0.46652 0.87712 0.63084 0.07500
C 	C 	0.29320 0.88389 0.60011 0.04600
C 	C 	0.19800 0.91475 0.58385 0.09800
C 	C 	0.07441 0.97759 0.59819 0.11300
C 	C 	0.01013 0.97402 0.56712 -0.18300
C 	C 	0.04898 0.93981 0.54163 0.12100
C 	C 	0.14593 0.90999 0.54915 -0.20700
C 	C 	0.19685 0.87678 0.51792 0.51900
C 	C 	0.82314 0.90977 0.46475 0.34600
C 	C 	0.73849 0.95098 0.46604 -0.12600
C 	C 	0.71118 0.97379 0.50225 0.07800
C 	C 	0.64837 0.01306 0.50280 -0.16300
C 	C 	0.61640 0.03008 0.46712 0.10700
C 	C 	0.69453 0.96918 0.43176 0.06900
C 	C 	0.70653 0.94883 0.39171 0.05400
C 	C 	0.75902 0.95620 0.32116 0.09700
C 	C 	0.73872 0.91691 0.31445 -0.15000
C 	C 	0.69665 0.89441 0.34729 0.06700
C 	C 	0.67748 0.90969 0.38675 -0.12300
C 	C 	0.61236 0.88652 0.42156 0.33400
C 	C 	0.17888 0.80717 0.39987 0.36900
C 	C 	0.28106 0.80226 0.36162 -0.13300
C 	C 	0.29840 0.83720 0.33760 0.06200
C 	C 	0.38320 0.83500 0.30120 -0.13300
C 	C 	0.43860 0.79520 0.28920 0.08300
C 	C 	0.35257 0.76633 0.34813 0.09400
C 	C 	0.35487 0.72813 0.37313 0.09500
C 	C 	0.34210 0.65860 0.37780 0.12200
C 	C 	0.37775 0.65385 0.41445 -0.17900
C 	C 	0.39955 0.68805 0.43225 0.08800
C 	C 	0.39070 0.72608 0.41112 -0.14100
C 	C 	0.42596 0.76148 0.43040 0.35300
C 	C 	0.77510 0.76312 0.48848 0.52100
C 	C 	0.77467 0.71772 0.49654 -0.20200
C 	C 	0.71407 0.69634 0.47312 0.12400
C 	C 	0.72660 0.65455 0.47565 -0.18900
C 	C 	0.80537 0.63405 0.49941 0.11100
C 	C 	0.84412 0.69487 0.52349 0.09500
C 	C 	0.90540 0.71207 0.55453 0.04800
C 	C 	0.07986 0.70267 0.58461 0.08100
C 	C 	0.03586 0.73538 0.60990 -0.12600
C 	C 	0.92116 0.75691 0.60757 0.04400
C 	C 	0.85322 0.74578 0.57938 -0.10200
C 	C 	0.72543 0.77053 0.57841 0.31400
C 	C 	0.10305 0.67819 0.90891 0.31200
C 	C 	0.23593 0.65783 0.89471 -0.10600
C 	C 	0.32020 0.68147 0.87653 0.04400
C 	C 	0.44125 0.66400 0.86370 -0.12700
C 	C 	0.47448 0.62288 0.86916 0.07500
C 	C 	0.27720 0.61611 0.89989 0.04600
C 	C 	0.19660 0.58525 0.91615 0.09800
C 	C 	0.15019 0.52241 0.90181 0.11300
C 	C 	0.05127 0.52598 0.93288 -0.18400
C 	C 	0.03042 0.56019 0.95837 0.12400
C 	C 	0.10507 0.59001 0.95085 -0.20800
C 	C 	0.09155 0.62322 0.98208 0.52100
C 	C 	0.69766 0.59023 0.03525 0.34600
C 	C 	0.65551 0.54902 0.03396 -0.12600
C 	C 	0.68722 0.52621 0.99775 0.07800
C 	C 	0.66423 0.48694 0.99720 -0.16300
C 	C 	0.61360 0.46992 0.03288 0.10700
C 	C 	0.59547 0.53082 0.06824 0.06900
C 	C 	0.54707 0.55117 0.10829 0.05400
C 	C 	0.53638 0.54380 0.17884 0.09700
C 	C 	0.47008 0.58309 0.18555 -0.15000
C 	C 	0.43835 0.60559 0.15271 0.06700
C 	C 	0.47392 0.59031 0.11325 -0.12300
C 	C 	0.42044 0.61348 0.07844 0.33400
C 	C 	0.88592 0.69283 0.10013 0.36800
C 	C 	0.94494 0.69774 0.13838 -0.13200
C 	C 	0.97320 0.66280 0.16240 0.05800
C 	C 	0.01940 0.66500 0.19880 -0.12900
C 	C 	0.02300 0.70480 0.21080 0.08500
C 	C 	0.96703 0.73367 0.15187 0.09300
C 	C 	0.95613 0.77187 0.12687 0.09300
C 	C 	0.87850 0.84140 0.12220 0.12300
C 	C 	0.94605 0.84615 0.08555 -0.18200
C 	C 	0.01985 0.81195 0.06775 0.09000
C 	C 	0.02790 0.77392 0.08888 -0.14000
C 	C 	0.11784 0.73852 0.06960 0.35200
C 	C 	0.52670 0.73688 0.01152 0.52100
C 	C 	0.48893 0.78228 0.00346 -0.20100
C 	C 	0.38353 0.80366 0.02688 0.12400
C 	C 	0.35680 0.84545 0.02435 -0.18900
C 	C 	0.43883 0.86595 0.00059 0.11200
C 	C 	0.56248 0.80513 0.97651 0.09500
C 	C 	0.67200 0.78793 0.94547 0.05000
C 	C 	0.86714 0.79733 0.91539 0.08300
C 	C 	0.88114 0.76462 0.89010 -0.13000
C 	C 	0.78564 0.74309 0.89243 0.04800
C 	C 	0.67838 0.75422 0.92062 -0.10300
C 	C 	0.57437 0.72947 0.92159 0.31400
C 	C 	0.98804 0.90891 0.82181 0.31100
C 	C 	0.86936 0.89471 0.84217 -0.10600
C 	C 	0.80327 0.87653 0.81853 0.04400
C 	C 	0.69505 0.86370 0.83600 -0.12700
C 	C 	0.65636 0.86916 0.87712 0.07500
C 	C 	0.82291 0.89989 0.88389 0.04600
C 	C 	0.88725 0.91615 0.91475 0.09700
C 	C 	0.94800 0.90181 0.97759 0.11000
C 	C 	0.01585 0.93288 0.97402 -0.18000
C 	C 	0.01121 0.95837 0.93981 0.12100
C 	C 	0.94408 0.95085 0.90999 -0.20700
C 	C 	0.92637 0.98208 0.87678 0.51900
C 	C 	0.26709 0.03525 0.90977 0.34600
C 	C 	0.31053 0.03396 0.95098 -0.12600
C 	C 	0.31503 0.99775 0.97379 0.07900
C 	C 	0.33857 0.99720 0.01306 -0.16300
C 	C 	0.35352 0.03288 0.03008 0.10700
C 	C 	0.33629 0.06824 0.96918 0.06900
C 	C 	0.34464 0.10829 0.94883 0.05400
C 	C 	0.28478 0.17884 0.95620 0.09700
C 	C 	0.34437 0.18555 0.91691 -0.15000
C 	C 	0.40894 0.15271 0.89441 0.06700
C 	C 	0.41283 0.11325 0.90969 -0.12300
C 	C 	0.50112 0.07844 0.88652 0.33400
C 	C 	0.01395 0.10013 0.80717 0.36700
C 	C 	0.91668 0.13838 0.80226 -0.13100
C 	C 	0.86440 0.16240 0.83720 0.06100
C 	C 	0.78180 0.19880 0.83500 -0.13200
C 	C 	0.76620 0.21080 0.79520 0.08300
C 	C 	0.88110 0.15187 0.76633 0.09300
C 	C 	0.91700 0.12687 0.72813 0.09600
C 	C 	0.99930 0.12220 0.65860 0.12700
C 	C 	0.96840 0.08555 0.65385 -0.18300
C 	C 	0.91240 0.06775 0.68805 0.09000
C 	C 	0.88322 0.08888 0.72608 -0.14200
C 	C 	0.81256 0.06960 0.76148 0.35300
C 	C 	0.46178 0.01152 0.76312 0.52100
C 	C 	0.50761 0.00346 0.71772 -0.20100
C 	C 	0.58959 0.02688 0.69634 0.12400
C 	C 	0.61885 0.02435 0.65455 -0.18900
C 	C 	0.56058 0.00059 0.63405 0.11200
C 	C 	0.46101 0.97651 0.69487 0.09500
C 	C 	0.38253 0.94547 0.71207 0.05000
C 	C 	0.21747 0.91539 0.70267 0.08300
C 	C 	0.22876 0.89010 0.73538 -0.13000
C 	C 	0.32193 0.89243 0.75691 0.04800
C 	C 	0.40100 0.92062 0.74578 -0.10300
C 	C 	0.50404 0.92159 0.77053 0.31400
C 	C 	0.21876 0.59109 0.67819 0.31200
C 	C 	0.10624 0.60529 0.65783 -0.10600
C 	C 	0.99833 0.62347 0.68147 0.04400
C 	C 	0.89475 0.63630 0.66400 -0.12700
C 	C 	0.90264 0.63084 0.62288 0.07500
C 	C 	0.10669 0.60011 0.61611 0.04600
C 	C 	0.21815 0.58385 0.58525 0.09800
C 	C 	0.32740 0.59819 0.52241 0.11200
C 	C 	0.42275 0.56712 0.52598 -0.18200
C 	C 	0.40939 0.54163 0.56019 0.12100
C 	C 	0.30492 0.54915 0.59001 -0.20700
C 	C 	0.28523 0.51792 0.62322 0.51900
C 	C 	0.71211 0.46475 0.59023 0.34600
C 	C 	0.79547 0.46604 0.54902 -0.12600
C 	C 	0.78657 0.50225 0.52621 0.07800
C 	C 	0.84883 0.50280 0.48694 -0.16300
C 	C 	0.91648 0.46712 0.46992 0.10700
C 	C 	0.87371 0.43176 0.53082 0.06900
C 	C 	0.90176 0.39171 0.55117 0.05400
C 	C 	0.91982 0.32116 0.54380 0.09800
C 	C 	0.94683 0.31445 0.58309 -0.15000
C 	C 	0.95606 0.34729 0.60559 0.06800
C 	C 	0.93577 0.38675 0.59031 -0.12300
C 	C 	0.96608 0.42156 0.61348 0.33600
C 	C 	0.42125 0.39987 0.69283 0.36900
C 	C 	0.35732 0.36162 0.69774 -0.13300
C 	C 	0.36400 0.33760 0.66280 0.06100
C 	C 	0.31560 0.30120 0.66500 -0.13300
C 	C 	0.27220 0.28920 0.70480 0.08300
C 	C 	0.29930 0.34813 0.73367 0.09400
C 	C 	0.27200 0.37313 0.77187 0.09500
C 	C 	0.28010 0.37780 0.84140 0.12200
C 	C 	0.20780 0.41445 0.84615 -0.17900
C 	C 	0.16820 0.43225 0.81195 0.08800
C 	C 	0.19818 0.41112 0.77392 -0.14100
C 	C 	0.14364 0.43040 0.73852 0.35300
C 	C 	0.73642 0.48848 0.73688 0.52100
C 	C 	0.72879 0.49654 0.78228 -0.20100
C 	C 	0.81281 0.47312 0.80366 0.12400
C 	C 	0.79775 0.47565 0.84545 -0.18900
C 	C 	0.69522 0.49941 0.86595 0.11200
C 	C 	0.63239 0.52349 0.80513 0.09500
C 	C 	0.54007 0.55453 0.78793 0.05000
C 	C 	0.33553 0.58461 0.79733 0.08300
C 	C 	0.35424 0.60990 0.76462 -0.13000
C 	C 	0.47127 0.60757 0.74309 0.04800
C 	C 	0.56740 0.57938 0.75422 -0.10300
C 	C 	0.69616 0.57841 0.72947 0.31400
C 	C 	0.80985 0.17819 0.40891 0.31200
C 	C 	0.71153 0.15783 0.39471 -0.10600
C 	C 	0.62180 0.18147 0.37653 0.04400
C 	C 	0.53105 0.16400 0.36370 -0.12700
C 	C 	0.53348 0.12288 0.36916 0.07500
C 	C 	0.70680 0.11611 0.39989 0.04600
C 	C 	0.80200 0.08525 0.41615 0.09800
C 	C 	0.92559 0.02241 0.40181 0.11300
C 	C 	0.98987 0.02598 0.43288 -0.18300
C 	C 	0.95102 0.06019 0.45837 0.12100
C 	C 	0.85407 0.09001 0.45085 -0.20700
C 	C 	0.80315 0.12322 0.48208 0.51900
C 	C 	0.17686 0.09023 0.53525 0.34600
C 	C 	0.26151 0.04902 0.53396 -0.12600
C 	C 	0.28882 0.02621 0.49775 0.07800
C 	C 	0.35163 0.98694 0.49720 -0.16300
C 	C 	0.38360 0.96992 0.53288 0.10700
C 	C 	0.30547 0.03082 0.56824 0.06900
C 	C 	0.29347 0.05117 0.60829 0.05400
C 	C 	0.24098 0.04380 0.67884 0.09700
C 	C 	0.26128 0.08309 0.68555 -0.15000
C 	C 	0.30335 0.10559 0.65271 0.06700
C 	C 	0.32252 0.09031 0.61325 -0.12300
C 	C 	0.38764 0.11348 0.57844 0.33400
C 	C 	0.82112 0.19283 0.60013 0.36900
C 	C 	0.71894 0.19774 0.63838 -0.13300
C 	C 	0.70160 0.16280 0.66240 0.06200
C 	C 	0.61680 0.16500 0.69880 -0.13300
C 	C 	0.56140 0.20480 0.71080 0.08300
C 	C 	0.64743 0.23367 0.65187 0.09400
C 	C 	0.64513 0.27187 0.62687 0.09500
C 	C 	0.65790 0.34140 0.62220 0.12200
C 	C 	0.62225 0.34615 0.58555 -0.17900
C 	C 	0.60045 0.31195 0.56775 0.08800
C 	C 	0.60930 0.27392 0.58888 -0.14100
C 	C 	0.57404 0.23852 0.56960 0.35300
C 	C 	0.22490 0.23688 0.51152 0.52100
C 	C 	0.22533 0.28228 0.50346 -0.20200
C 	C 	0.28593 0.30366 0.52688 0.12400
C 	C 	0.27340 0.34545 0.52435 -0.18900
C 	C 	0.19463 0.36595 0.50059 0.11100
C 	C 	0.15588 0.30513 0.47651 0.09500
C 	C 	0.09460 0.28793 0.44547 0.04800
C 	C 	0.92014 0.29733 0.41539 0.08100
C 	C 	0.96414 0.26462 0.39010 -0.12600
C 	C 	0.07884 0.24309 0.39243 0.04400
C 	C 	0.14678 0.25422 0.42062 -0.10200
C 	C 	0.27457 0.22947 0.42159 0.31400
C 	C 	0.89695 0.32181 0.09109 0.31200
C 	C 	0.76407 0.34217 0.10529 -0.10600
C 	C 	0.67980 0.31853 0.12347 0.04400
C 	C 	0.55875 0.33600 0.13630 -0.12700
C 	C 	0.52552 0.37712 0.13084 0.07500
C 	C 	0.72280 0.38389 0.10011 0.04600
C 	C 	0.80340 0.41475 0.08385 0.09800
C 	C 	0.84981 0.47759 0.09819 0.11300
C 	C 	0.94873 0.47402 0.06712 -0.18400
C 	C 	0.96958 0.43981 0.04163 0.12400
C 	C 	0.89493 0.40999 0.04915 -0.20800
C 	C 	0.90845 0.37678 0.01792 0.52100
C 	C 	0.30234 0.40977 0.96475 0.34600
C 	C 	0.34449 0.45098 0.96604 -0.12600
C 	C 	0.31278 0.47379 0.00225 0.07800
C 	C 	0.33577 0.51306 0.00280 -0.16300
C 	C 	0.38640 0.53008 0.96712 0.10700
C 	C 	0.40453 0.46918 0.93176 0.06900
C 	C 	0.45293 0.44883 0.89171 0.05400
C 	C 	0.46362 0.45620 0.82116 0.09700
C 	C 	0.52992 0.41691 0.81445 -0.15000
C 	C 	0.56165 0.39441 0.84729 0.06700
C 	C 	0.52608 0.40969 0.88675 -0.12300
C 	C 	0.57956 0.38652 0.92156 0.33400
C 	C 	0.11408 0.30717 0.89987 0.36800
C 	C 	0.05506 0.30226 0.86162 -0.13200
C 	C 	0.02680 0.33720 0.83760 0.05800
C 	C 	0.98060 0.33500 0.80120 -0.12900
C 	C 	0.97700 0.29520 0.78920 0.08500
C 	C 	0.03297 0.26633 0.84813 0.09300
C 	C 	0.04387 0.22813 0.87313 0.09300
C 	C 	0.12150 0.15860 0.87780 0.12300
C 	C 	0.05395 0.15385 0.91445 -0.18200
C 	C 	0.98015 0.18805 0.93225 0.09000
C 	C 	0.97210 0.22608 0.91112 -0.14000
C 	C 	0.88216 0.26148 0.93040 0.35200
C 	C 	0.47330 0.26312 0.98848 0.52100
C 	C 	0.51107 0.21772 0.99654 -0.20100
C 	C 	0.61647 0.19634 0.97312 0.12400
C 	C 	0.64320 0.15455 0.97565 -0.18900
C 	C 	0.56117 0.13405 0.99941 0.11200
C 	C 	0.43752 0.19487 0.02349 0.09500
C 	C 	0.32800 0.21207 0.05453 0.05000
C 	C 	0.13286 0.20267 0.08461 0.08300
C 	C 	0.11886 0.23538 0.10990 -0.13000
C 	C 	0.21436 0.25691 0.10757 0.04800
C 	C 	0.32162 0.24578 0.07938 -0.10300
C 	C 	0.42563 0.27053 0.07841 0.31400
N 	N 	0.70835 0.05722 0.30948 -0.24300
N 	N 	0.51719 0.02332 0.34670 -0.24600
N 	N 	0.02230 0.85555 0.30605 -0.13100
N 	N 	0.18771 0.81148 0.23850 -0.12300
N 	N 	0.11537 0.10678 0.05088 -0.24800
N 	N 	0.28097 0.11367 0.09879 -0.24600
N 	N 	0.64840 0.93194 0.99106 -0.24100
N 	N 	0.71431 0.85865 0.02793 -0.24100
N 	N 	0.57505 0.44278 0.19052 -0.24300
N 	N 	0.38721 0.47668 0.15330 -0.24600
N 	N 	0.68390 0.64445 0.19395 -0.13000
N 	N 	0.73769 0.68852 0.26150 -0.12400
N 	N 	0.77303 0.39322 0.44912 -0.24800
N 	N 	0.99343 0.38633 0.40121 -0.24500
N 	N 	0.07140 0.56806 0.50894 -0.24000
N 	N 	0.10089 0.64135 0.47207 -0.24100
N 	N 	0.01783 0.69052 0.55722 -0.24200
N 	N 	0.86389 0.65330 0.52332 -0.24600
N 	N 	0.32835 0.69395 0.35555 -0.13000
N 	N 	0.42621 0.76150 0.31148 -0.12400
N 	N 	0.16625 0.94912 0.60678 -0.24800
N 	N 	0.37976 0.90121 0.61367 -0.24600
N 	N 	0.63946 0.00894 0.43194 -0.24100
N 	N 	0.74224 0.97207 0.35865 -0.24100
N 	N 	0.76557 0.80948 0.94278 -0.24300
N 	N 	0.54051 0.84670 0.97668 -0.24600
N 	N 	0.87785 0.80605 0.14445 -0.13000
N 	N 	0.99919 0.73850 0.18852 -0.12500
N 	N 	0.22215 0.55088 0.89322 -0.24800
N 	N 	0.39464 0.59879 0.88633 -0.24500
N 	N 	0.58034 0.49106 0.06806 -0.24100
N 	N 	0.57296 0.52793 0.14135 -0.24100
N 	N 	0.29165 0.94278 0.69052 -0.24300
N 	N 	0.48281 0.97668 0.65330 -0.24600
N 	N 	0.97770 0.14445 0.69395 -0.13100
N 	N 	0.81229 0.18852 0.76150 -0.12300
N 	N 	0.88463 0.89322 0.94912 -0.24800
N 	N 	0.71903 0.88633 0.90121 -0.24500
N 	N 	0.35160 0.06806 0.00894 -0.24100
N 	N 	0.28569 0.14135 0.97207 -0.24100
N 	N 	0.42495 0.55722 0.80948 -0.24300
N 	N 	0.61279 0.52332 0.84670 -0.24600
N 	N 	0.31610 0.35555 0.80605 -0.13000
N 	N 	0.26231 0.31148 0.73850 -0.12400
N 	N 	0.22697 0.60678 0.55088 -0.24800
N 	N 	0.00657 0.61367 0.59879 -0.24500
N 	N 	0.92860 0.43194 0.49106 -0.24000
N 	N 	0.89911 0.35865 0.52793 -0.24100
N 	N 	0.98217 0.30948 0.44278 -0.24200
N 	N 	0.13611 0.34670 0.47668 -0.24600
N 	N 	0.67165 0.30605 0.64445 -0.13000
N 	N 	0.57379 0.23850 0.68852 -0.12400
N 	N 	0.83375 0.05088 0.39322 -0.24800
N 	N 	0.62024 0.09879 0.38633 -0.24600
N 	N 	0.36054 0.99106 0.56806 -0.24100
N 	N 	0.25776 0.02793 0.64135 -0.24100
N 	N 	0.23443 0.19052 0.05722 -0.24300
N 	N 	0.45949 0.15330 0.02332 -0.24600
N 	N 	0.12215 0.19395 0.85555 -0.13000
N 	N 	0.00081 0.26150 0.81148 -0.12500
N 	N 	0.77785 0.44912 0.10678 -0.24800
N 	N 	0.60536 0.40121 0.11367 -0.24500
N 	N 	0.41966 0.50894 0.93194 -0.24100
N 	N 	0.42704 0.47207 0.85865 -0.24100
O 	O 	0.92012 0.09988 0.16088 -0.25900
O 	O 	0.01645 0.07143 0.21087 -0.27600
O 	O 	0.99129 0.99629 0.13293 -0.52500
O 	O 	0.17186 0.01462 0.13726 -0.53900
O 	O 	0.13476 0.96232 0.22296 -0.44800
O 	O 	0.29640 0.91611 0.22569 -0.39500
O 	O 	0.44268 0.94936 0.09508 -0.37700
O 	O 	0.48562 0.91923 0.15253 -0.43600
O 	O 	0.46603 0.97745 0.21649 -0.53600
O 	O 	0.64796 0.99229 0.22419 -0.53700
O 	O 	0.83419 0.94411 0.09351 -0.37600
O 	O 	0.66905 0.98615 0.11955 -0.43400
O 	O 	0.90461 0.91304 0.22214 -0.39500
O 	O 	0.99057 0.91492 0.15874 -0.44900
O 	O 	0.39068 0.07830 0.24954 -0.26000
O 	O 	0.52626 0.07698 0.19150 -0.27900
O 	O 	0.68088 0.40012 0.33912 -0.25900
O 	O 	0.79875 0.42857 0.28913 -0.27600
O 	O 	0.62051 0.50371 0.36707 -0.52400
O 	O 	0.82374 0.48538 0.36274 -0.53900
O 	O 	0.82004 0.53768 0.27704 -0.44800
O 	O 	0.93820 0.58389 0.27431 -0.39600
O 	O 	0.98712 0.55064 0.40492 -0.37900
O 	O 	0.05738 0.58077 0.34747 -0.43600
O 	O 	0.15997 0.52255 0.28351 -0.53500
O 	O 	0.36444 0.50771 0.27581 -0.53700
O 	O 	0.37181 0.55589 0.40649 -0.37500
O 	O 	0.27475 0.51385 0.38045 -0.43400
O 	O 	0.53979 0.58696 0.27786 -0.39500
O 	O 	0.56423 0.58508 0.34126 -0.44900
O 	O 	0.21852 0.42170 0.25046 -0.25900
O 	O 	0.29474 0.42302 0.30850 -0.27900
O 	O 	0.08100 0.83912 0.59988 -0.25900
O 	O 	0.22732 0.78913 0.57143 -0.27600
O 	O 	0.12422 0.86707 0.49629 -0.52300
O 	O 	0.30912 0.86274 0.51462 -0.53900
O 	O 	0.35772 0.77704 0.46232 -0.44800
O 	O 	0.52209 0.77431 0.41611 -0.39500
O 	O 	0.53776 0.90492 0.44936 -0.37700
O 	O 	0.63815 0.84747 0.41923 -0.43700
O 	O 	0.68252 0.78351 0.47745 -0.53600
O 	O 	0.87215 0.77581 0.49229 -0.53700
O 	O 	0.92770 0.90649 0.44411 -0.37600
O 	O 	0.78860 0.88045 0.48615 -0.43400
O 	O 	0.12675 0.77786 0.41304 -0.39400
O 	O 	0.14931 0.84126 0.41492 -0.44800
O 	O 	0.64022 0.75046 0.57830 -0.25900
O 	O 	0.71776 0.80850 0.57698 -0.27900
O 	O 	0.02000 0.66088 0.90012 -0.25900
O 	O 	0.08788 0.71087 0.92857 -0.27500
O 	O 	0.98758 0.63293 0.00371 -0.52500
O 	O 	0.18648 0.63726 0.98538 -0.53900
O 	O 	0.09708 0.72296 0.03768 -0.44700
O 	O 	0.21251 0.72569 0.08389 -0.39500
O 	O 	0.39204 0.59508 0.05064 -0.37700
O 	O 	0.40485 0.65253 0.08077 -0.43600
O 	O 	0.44348 0.71649 0.02255 -0.53600
O 	O 	0.64025 0.72419 0.00771 -0.53700
O 	O 	0.77830 0.59351 0.05589 -0.37600
O 	O 	0.65520 0.61955 0.01385 -0.43400
O 	O 	0.81765 0.72214 0.08696 -0.39500
O 	O 	0.90549 0.65874 0.08508 -0.44900
O 	O 	0.46898 0.74954 0.92170 -0.26000
O 	O 	0.60324 0.69150 0.92302 -0.28000
O 	O 	0.07988 0.90012 0.83912 -0.25900
O 	O 	0.98355 0.92857 0.78913 -0.27600
O 	O 	0.00871 0.00371 0.86707 -0.52500
O 	O 	0.82814 0.98538 0.86274 -0.53900
O 	O 	0.86524 0.03768 0.77704 -0.44800
O 	O 	0.70360 0.08389 0.77431 -0.39500
O 	O 	0.55732 0.05064 0.90492 -0.37700
O 	O 	0.51438 0.08077 0.84747 -0.43600
O 	O 	0.53397 0.02255 0.78351 -0.53600
O 	O 	0.35204 0.00771 0.77581 -0.53700
O 	O 	0.16581 0.05589 0.90649 -0.37600
O 	O 	0.33095 0.01385 0.88045 -0.43400
O 	O 	0.09539 0.08696 0.77786 -0.39500
O 	O 	0.00943 0.08508 0.84126 -0.44900
O 	O 	0.60932 0.92170 0.75046 -0.26000
O 	O 	0.47374 0.92302 0.80850 -0.27900
O 	O 	0.31912 0.59988 0.66088 -0.25900
O 	O 	0.20125 0.57143 0.71087 -0.27600
O 	O 	0.37949 0.49629 0.63293 -0.52400
O 	O 	0.17626 0.51462 0.63726 -0.53900
O 	O 	0.17996 0.46232 0.72296 -0.44800
O 	O 	0.06180 0.41611 0.72569 -0.39600
O 	O 	0.01288 0.44936 0.59508 -0.37900
O 	O 	0.94262 0.41923 0.65253 -0.43600
O 	O 	0.84003 0.47745 0.71649 -0.53500
O 	O 	0.63556 0.49229 0.72419 -0.53700
O 	O 	0.62819 0.44411 0.59351 -0.37600
O 	O 	0.72525 0.48615 0.61955 -0.43400
O 	O 	0.46021 0.41304 0.72214 -0.39500
O 	O 	0.43577 0.41492 0.65874 -0.44900
O 	O 	0.78148 0.57830 0.74954 -0.25900
O 	O 	0.70526 0.57698 0.69150 -0.27900
O 	O 	0.91900 0.16088 0.40012 -0.25900
O 	O 	0.77268 0.21087 0.42857 -0.27600
O 	O 	0.87578 0.13293 0.50371 -0.52300
O 	O 	0.69088 0.13726 0.48538 -0.53900
O 	O 	0.64228 0.22296 0.53768 -0.44800
O 	O 	0.47791 0.22569 0.58389 -0.39500
O 	O 	0.46224 0.09508 0.55064 -0.37700
O 	O 	0.36185 0.15253 0.58077 -0.43700
O 	O 	0.31748 0.21649 0.52255 -0.53600
O 	O 	0.12785 0.22419 0.50771 -0.53700
O 	O 	0.07230 0.09351 0.55589 -0.37600
O 	O 	0.21140 0.11955 0.51385 -0.43400
O 	O 	0.87325 0.22214 0.58696 -0.39400
O 	O 	0.85069 0.15874 0.58508 -0.44800
O 	O 	0.35978 0.24954 0.42170 -0.25900
O 	O 	0.28224 0.19150 0.42302 -0.27900
O 	O 	0.98000 0.33912 0.09988 -0.25900
O 	O 	0.91212 0.28913 0.07143 -0.27500
O 	O 	0.01242 0.36707 0.99629 -0.52500
O 	O 	0.81352 0.36274 0.01462 -0.53900
O 	O 	0.90292 0.27704 0.96232 -0.44700
O 	O 	0.78749 0.27431 0.91611 -0.39500
O 	O 	0.60796 0.40492 0.94936 -0.37700
O 	O 	0.59515 0.34747 0.91923 -0.43600
O 	O 	0.55652 0.28351 0.97745 -0.53600
O 	O 	0.35975 0.27581 0.99229 -0.53700
O 	O 	0.22170 0.40649 0.94411 -0.37500
O 	O 	0.34480 0.38045 0.98615 -0.43400
O 	O 	0.18235 0.27786 0.91304 -0.39500
O 	O 	0.09451 0.34126 0.91492 -0.44900
O 	O 	0.53102 0.25046 0.07830 -0.26000
O 	O 	0.39676 0.30850 0.07698 -0.28000
