data_crystal

_cell_length_a 11.00460
_cell_length_b 32.86490
_cell_length_c 32.86490
_cell_angle_alpha 88.39380
_cell_angle_beta  80.36200
_cell_angle_gamma 80.36200

_symmetry_space_group_name_	'P 1'
_symmetry_space_group_name_H-M	'P 1'

loop_
_symmetry_equiv_pos_as_xyz
  x,y,z

loop_
_atom_site_label
_atom_site_type_symbol
_atom_site_fract_x
_atom_site_fract_y
_atom_site_fract_z
_atom_site_charge
Tb	Tb	0.71517 0.32868 0.97304 1.66900
Tb	Tb	0.21509 0.32502 0.97529 1.68600
Tb	Tb	0.51689 0.17132 0.52696 1.66900
Tb	Tb	0.01541 0.17498 0.52470 1.68000
Tb	Tb	0.68821 0.02696 0.82868 1.67000
Tb	Tb	0.19038 0.02471 0.82502 1.68600
Tb	Tb	0.04385 0.47304 0.67132 1.66500
Tb	Tb	0.54011 0.47529 0.67499 1.68600
Tb	Tb	0.28483 0.67132 0.02696 1.66900
Tb	Tb	0.78491 0.67498 0.02470 1.68500
Tb	Tb	0.48311 0.82868 0.47304 1.66800
Tb	Tb	0.98459 0.82502 0.47529 1.67900
Tb	Tb	0.31179 0.97304 0.17132 1.66900
Tb	Tb	0.80962 0.97529 0.17498 1.68500
Tb	Tb	0.95615 0.52696 0.32868 1.66400
Tb	Tb	0.45988 0.52471 0.32502 1.68500
Co	Co	0.78980 0.12864 0.03624 1.11800
Co	Co	0.45468 0.37136 0.46376 1.11800
Co	Co	0.82604 0.96376 0.62864 1.11800
Co	Co	0.91844 0.53624 0.87136 1.11900
Co	Co	0.21020 0.87136 0.96376 1.11800
Co	Co	0.54532 0.62864 0.53624 1.11800
Co	Co	0.17396 0.03624 0.37136 1.11800
Co	Co	0.08156 0.46376 0.12864 1.11900
H 	H 	0.53860 0.43820 0.01780 -0.00100
H 	H 	0.50210 0.49540 0.06080 0.09100
H 	H 	0.33190 0.50270 0.11370 -0.01500
H 	H 	0.94150 0.38820 0.13960 0.00000
H 	H 	0.00170 0.31900 0.14940 0.09000
H 	H 	0.20960 0.28960 0.12940 0.03400
H 	H 	0.70950 0.27930 0.12590 0.03500
H 	H 	0.54520 0.24290 0.12990 0.08700
H 	H 	0.56620 0.18710 0.08650 0.00200
H 	H 	0.08290 0.10420 0.00100 -0.01600
H 	H 	0.22670 0.13900 0.96220 0.09100
H 	H 	0.17970 0.20990 0.95690 -0.00400
H 	H 	0.77320 0.46090 0.02710 0.01000
H 	H 	0.81150 0.52870 0.02830 0.09200
H 	H 	0.89600 0.55820 0.96820 -0.01100
H 	H 	0.95010 0.47180 0.79860 -0.01000
H 	H 	0.06190 0.40500 0.78800 0.09700
H 	H 	0.11780 0.36720 0.84460 0.02400
H 	H 	0.54460 0.36230 0.84830 0.03100
H 	H 	0.43440 0.36450 0.78870 0.08600
H 	H 	0.46540 0.29630 0.76170 0.02700
H 	H 	0.66600 0.13230 0.87390 -0.01600
H 	H 	0.54760 0.12660 0.93160 0.13300
H 	H 	0.43550 0.18770 0.95830 -0.01200
H 	H 	0.49460 0.06180 0.48220 -0.00100
H 	H 	0.55830 0.00460 0.43920 0.09100
H 	H 	0.44830 0.99730 0.38630 -0.01500
H 	H 	0.96930 0.11180 0.36040 0.00200
H 	H 	0.97010 0.18100 0.35060 0.08900
H 	H 	0.12860 0.21040 0.37060 0.03400
H 	H 	0.61470 0.22070 0.37410 0.03500
H 	H 	0.41800 0.25710 0.37010 0.08700
H 	H 	0.33980 0.31290 0.41350 0.00200
H 	H 	0.68810 0.39580 0.49900 -0.01600
H 	H 	0.82790 0.36100 0.53780 0.09100
H 	H 	0.84650 0.29010 0.54310 -0.00300
H 	H 	0.76120 0.03910 0.47290 0.01000
H 	H 	0.86850 0.97130 0.47170 0.09100
H 	H 	0.92240 0.94180 0.53180 -0.01200
H 	H 	0.72050 0.02820 0.70140 -0.00900
H 	H 	0.75490 0.09500 0.71200 0.09600
H 	H 	0.82960 0.13280 0.65540 0.02600
H 	H 	0.25520 0.13770 0.65170 0.03100
H 	H 	0.08760 0.13550 0.71130 0.08600
H 	H 	0.02340 0.20370 0.73830 0.02600
H 	H 	0.17220 0.36770 0.62610 -0.01600
H 	H 	0.10580 0.37340 0.56840 0.13300
H 	H 	0.08150 0.31230 0.54170 -0.01200
H 	H 	0.55640 0.98220 0.93820 -0.00100
H 	H 	0.56290 0.93920 0.99540 0.09100
H 	H 	0.44560 0.88630 0.00270 -0.01500
H 	H 	0.08110 0.86040 0.88820 0.00200
H 	H 	0.15110 0.85060 0.81900 0.08900
H 	H 	0.33900 0.87060 0.78960 0.03400
H 	H 	0.83540 0.87410 0.77930 0.03500
H 	H 	0.67510 0.87010 0.74290 0.08700
H 	H 	0.65270 0.91350 0.68710 0.00200
H 	H 	0.08390 0.99900 0.60420 -0.01600
H 	H 	0.18890 0.03780 0.63900 0.09100
H 	H 	0.13660 0.04310 0.70990 -0.00500
H 	H 	0.80030 0.97290 0.96090 0.01000
H 	H 	0.83980 0.97170 0.02870 0.09200
H 	H 	0.86420 0.03180 0.05820 -0.01200
H 	H 	0.74870 0.20140 0.97180 -0.00900
H 	H 	0.84990 0.21200 0.90500 0.09600
H 	H 	0.96240 0.15540 0.86720 0.02700
H 	H 	0.39290 0.15170 0.86230 0.03100
H 	H 	0.22310 0.21130 0.86450 0.08600
H 	H 	0.22710 0.23830 0.79630 0.02600
H 	H 	0.53990 0.12610 0.63230 -0.01600
H 	H 	0.47920 0.06840 0.62660 0.13300
H 	H 	0.39380 0.04170 0.68770 -0.01200
H 	H 	0.97680 0.51780 0.56180 -0.00000
H 	H 	0.99750 0.56080 0.50460 0.09000
H 	H 	0.83460 0.61370 0.49730 -0.01500
H 	H 	0.32970 0.63960 0.61180 0.00200
H 	H 	0.32070 0.64940 0.68100 0.08900
H 	H 	0.49920 0.62940 0.71040 0.03400
H 	H 	0.98880 0.62590 0.72070 0.03400
H 	H 	0.78810 0.62990 0.75710 0.08800
H 	H 	0.75330 0.58650 0.81290 0.00200
H 	H 	0.18710 0.50100 0.89580 -0.01600
H 	H 	0.36570 0.46220 0.86100 0.09100
H 	H 	0.38960 0.45690 0.79010 -0.00400
H 	H 	0.23410 0.52710 0.53910 0.01000
H 	H 	0.34020 0.52830 0.47130 0.09200
H 	H 	0.45420 0.46820 0.44180 -0.01100
H 	H 	0.42190 0.29860 0.52820 -0.00900
H 	H 	0.46690 0.28800 0.59500 0.09600
H 	H 	0.48500 0.34460 0.63280 0.02600
H 	H 	0.90690 0.34830 0.63770 0.03200
H 	H 	0.79890 0.28870 0.63550 0.08600
H 	H 	0.76170 0.26170 0.70370 0.02700
H 	H 	0.79830 0.37390 0.86770 -0.01600
H 	H 	0.67420 0.43160 0.87340 0.13300
H 	H 	0.62320 0.45830 0.81230 -0.01200
H 	H 	0.46140 0.56180 0.98220 -0.00100
H 	H 	0.49790 0.50460 0.93920 0.09100
H 	H 	0.66810 0.49730 0.88630 -0.01500
H 	H 	0.05850 0.61180 0.86040 0.00000
H 	H 	0.99830 0.68100 0.85060 0.09000
H 	H 	0.79040 0.71040 0.87060 0.03400
H 	H 	0.29050 0.72070 0.87410 0.03500
H 	H 	0.45480 0.75710 0.87010 0.08700
H 	H 	0.43380 0.81290 0.91350 0.00200
H 	H 	0.91710 0.89580 0.99900 -0.01600
H 	H 	0.77330 0.86100 0.03780 0.09100
H 	H 	0.82030 0.79010 0.04310 -0.00400
H 	H 	0.22680 0.53910 0.97290 0.01000
H 	H 	0.18850 0.47130 0.97170 0.09200
H 	H 	0.10400 0.44180 0.03180 -0.01100
H 	H 	0.04990 0.52820 0.20140 -0.01000
H 	H 	0.93810 0.59500 0.21200 0.09700
H 	H 	0.88220 0.63280 0.15540 0.02400
H 	H 	0.45540 0.63770 0.15170 0.03100
H 	H 	0.56560 0.63550 0.21130 0.08600
H 	H 	0.53460 0.70370 0.23830 0.02700
H 	H 	0.33400 0.86770 0.12610 -0.01600
H 	H 	0.45240 0.87340 0.06840 0.13300
H 	H 	0.56450 0.81230 0.04170 -0.01200
H 	H 	0.50540 0.93820 0.51780 -0.00100
H 	H 	0.44170 0.99540 0.56080 0.09100
H 	H 	0.55170 0.00270 0.61370 -0.01500
H 	H 	0.03070 0.88820 0.63960 0.00200
H 	H 	0.02990 0.81900 0.64940 0.08900
H 	H 	0.87140 0.78960 0.62940 0.03400
H 	H 	0.38530 0.77930 0.62590 0.03500
H 	H 	0.58200 0.74290 0.62990 0.08700
H 	H 	0.66020 0.68710 0.58650 0.00200
H 	H 	0.31190 0.60420 0.50100 -0.01600
H 	H 	0.17210 0.63900 0.46220 0.09100
H 	H 	0.15350 0.70990 0.45690 -0.00300
H 	H 	0.23880 0.96090 0.52710 0.01000
H 	H 	0.13150 0.02870 0.52830 0.09100
H 	H 	0.07760 0.05820 0.46820 -0.01200
H 	H 	0.27950 0.97180 0.29860 -0.00900
H 	H 	0.24510 0.90500 0.28800 0.09600
H 	H 	0.17040 0.86720 0.34460 0.02600
H 	H 	0.74480 0.86230 0.34830 0.03100
H 	H 	0.91240 0.86450 0.28870 0.08600
H 	H 	0.97660 0.79630 0.26170 0.02600
H 	H 	0.82780 0.63230 0.37390 -0.01600
H 	H 	0.89420 0.62660 0.43160 0.13300
H 	H 	0.91850 0.68770 0.45830 -0.01200
H 	H 	0.44360 0.01780 0.06180 -0.00100
H 	H 	0.43710 0.06080 0.00460 0.09100
H 	H 	0.55440 0.11370 0.99730 -0.01500
H 	H 	0.91890 0.13960 0.11180 0.00200
H 	H 	0.84890 0.14940 0.18100 0.08900
H 	H 	0.66100 0.12940 0.21040 0.03400
H 	H 	0.16460 0.12590 0.22070 0.03500
H 	H 	0.32490 0.12990 0.25710 0.08700
H 	H 	0.34730 0.08650 0.31290 0.00200
H 	H 	0.91610 0.00100 0.39580 -0.01600
H 	H 	0.81110 0.96220 0.36100 0.09100
H 	H 	0.86340 0.95690 0.29010 -0.00500
H 	H 	0.19970 0.02710 0.03910 0.01000
H 	H 	0.16020 0.02830 0.97130 0.09200
H 	H 	0.13580 0.96820 0.94180 -0.01200
H 	H 	0.25130 0.79860 0.02820 -0.00900
H 	H 	0.15010 0.78800 0.09500 0.09600
H 	H 	0.03760 0.84460 0.13280 0.02700
H 	H 	0.60710 0.84830 0.13770 0.03100
H 	H 	0.77690 0.78870 0.13550 0.08600
H 	H 	0.77290 0.76170 0.20370 0.02600
H 	H 	0.46010 0.87390 0.36770 -0.01600
H 	H 	0.52080 0.93160 0.37340 0.13300
H 	H 	0.60620 0.95830 0.31230 -0.01200
H 	H 	0.02320 0.48220 0.43820 -0.00000
H 	H 	0.00250 0.43920 0.49540 0.09000
H 	H 	0.16540 0.38630 0.50270 -0.01500
H 	H 	0.67030 0.36040 0.38820 0.00200
H 	H 	0.67930 0.35060 0.31900 0.08900
H 	H 	0.50080 0.37060 0.28960 0.03400
H 	H 	0.01120 0.37410 0.27930 0.03400
H 	H 	0.21190 0.37010 0.24290 0.08800
H 	H 	0.24670 0.41350 0.18710 0.00200
H 	H 	0.81290 0.49900 0.10420 -0.01600
H 	H 	0.63430 0.53780 0.13900 0.09100
H 	H 	0.61040 0.54310 0.20990 -0.00400
H 	H 	0.76590 0.47290 0.46090 0.01000
H 	H 	0.65980 0.47170 0.52870 0.09200
H 	H 	0.54580 0.53180 0.55820 -0.01100
H 	H 	0.57810 0.70140 0.47180 -0.00900
H 	H 	0.53310 0.71200 0.40500 0.09600
H 	H 	0.51500 0.65540 0.36720 0.02600
H 	H 	0.09310 0.65170 0.36230 0.03200
H 	H 	0.20110 0.71130 0.36450 0.08600
H 	H 	0.23830 0.73830 0.29630 0.02700
H 	H 	0.20170 0.62610 0.13230 -0.01600
H 	H 	0.32580 0.56840 0.12660 0.13300
H 	H 	0.37680 0.54170 0.18770 -0.01200
C 	C 	0.41525 0.37612 0.01758 0.50900
C 	C 	0.39908 0.41017 0.04867 -0.19100
C 	C 	0.47393 0.44089 0.04025 0.10500
C 	C 	0.45131 0.47525 0.06533 -0.16400
C 	C 	0.35063 0.47895 0.09759 0.09600
C 	C 	0.30682 0.41469 0.08367 0.09500
C 	C 	0.22570 0.38337 0.10023 0.04700
C 	C 	0.02469 0.37646 0.13116 0.07300
C 	C 	0.05988 0.33507 0.13717 -0.12000
C 	C 	0.18339 0.31751 0.12471 0.04000
C 	C 	0.26818 0.34175 0.10529 -0.10100
C 	C 	0.40246 0.32184 0.09104 0.30400
C 	C 	0.93116 0.27001 0.07847 0.30200
C 	C 	0.82401 0.24586 0.08012 -0.09500
C 	C 	0.71606 0.25703 0.10845 0.03800
C 	C 	0.61831 0.23533 0.11105 -0.11300
C 	C 	0.63175 0.20196 0.08494 0.07200
C 	C 	0.83099 0.21191 0.05451 0.04700
C 	C 	0.94255 0.19400 0.02410 0.09300
C 	C 	0.06773 0.13288 0.00086 0.10000
C 	C 	0.15271 0.15344 0.97654 -0.17400
C 	C 	0.12545 0.19560 0.97410 0.11200
C 	C 	0.01801 0.21699 0.99699 -0.18800
C 	C 	0.97877 0.26272 0.98874 0.50400
C 	C 	0.80416 0.40886 0.96482 0.32800
C 	C 	0.84475 0.45050 0.96680 -0.11100
C 	C 	0.81044 0.47287 0.00325 0.05700
C 	C 	0.83219 0.51350 0.00392 -0.14000
C 	C 	0.88482 0.53080 0.96796 0.09200
C 	C 	0.90621 0.46927 0.93231 0.06000
C 	C 	0.95655 0.44871 0.89199 0.06100
C 	C 	0.96955 0.45586 0.82124 0.09200
C 	C 	0.03851 0.41593 0.81445 -0.14200
C 	C 	0.07053 0.39349 0.84825 0.06000
C 	C 	0.03246 0.40986 0.88802 -0.12300
C 	C 	0.08713 0.38723 0.92311 0.34000
C 	C 	0.62170 0.30550 0.90150 0.43400
C 	C 	0.55900 0.30150 0.86150 -0.13200
C 	C 	0.52720 0.33790 0.83870 0.04700
C 	C 	0.46970 0.34070 0.80130 -0.11700
C 	C 	0.47980 0.29960 0.78840 0.07300
C 	C 	0.53450 0.26630 0.84790 0.09300
C 	C 	0.54890 0.22800 0.87220 0.08800
C 	C 	0.61460 0.15670 0.88370 0.17000
C 	C 	0.54900 0.15180 0.91800 -0.24900
C 	C 	0.48250 0.18740 0.93200 0.12900
C 	C 	0.47710 0.22550 0.90990 -0.15400
C 	C 	0.38524 0.26008 0.93004 0.35500
C 	C 	0.30895 0.12388 0.48242 0.50900
C 	C 	0.35792 0.08983 0.45133 -0.19100
C 	C 	0.45507 0.05911 0.45975 0.10500
C 	C 	0.49189 0.02475 0.43467 -0.16400
C 	C 	0.42717 0.02105 0.40241 0.09600
C 	C 	0.30518 0.08531 0.41633 0.09500
C 	C 	0.20930 0.11663 0.39977 0.04600
C 	C 	0.03231 0.12354 0.36884 0.07000
C 	C 	0.03212 0.16493 0.36283 -0.11900
C 	C 	0.12561 0.18249 0.37529 0.03900
C 	C 	0.21522 0.15825 0.39471 -0.10100
C 	C 	0.31534 0.17816 0.40896 0.30400
C 	C 	0.77964 0.22999 0.42153 0.30200
C 	C 	0.64999 0.25414 0.41988 -0.09500
C 	C 	0.58154 0.24297 0.39155 0.03800
C 	C 	0.46469 0.26467 0.38895 -0.11400
C 	C 	0.41865 0.29804 0.41506 0.07200
C 	C 	0.59741 0.28809 0.44549 0.04700
C 	C 	0.66065 0.30600 0.47590 0.09200
C 	C 	0.70147 0.36712 0.49914 0.09900
C 	C 	0.78269 0.34656 0.52346 -0.17200
C 	C 	0.79515 0.30440 0.52590 0.11100
C 	C 	0.73199 0.28301 0.50301 -0.18600
C 	C 	0.73023 0.23728 0.51126 0.50100
C 	C 	0.67784 0.09114 0.53518 0.32800
C 	C 	0.76205 0.04950 0.53320 -0.11100
C 	C 	0.78656 0.02713 0.49675 0.05700
C 	C 	0.84961 0.98650 0.49608 -0.14000
C 	C 	0.88358 0.96920 0.53204 0.09200
C 	C 	0.80779 0.03073 0.56769 0.06100
C 	C 	0.79725 0.05129 0.60801 0.05800
C 	C 	0.74665 0.04414 0.67876 0.08600
C 	C 	0.76889 0.08407 0.68555 -0.13500
C 	C 	0.81227 0.10651 0.65175 0.05600
C 	C 	0.83034 0.09014 0.61198 -0.11800
C 	C 	0.89747 0.11277 0.57689 0.33900
C 	C 	0.32870 0.19450 0.59850 0.43400
C 	C 	0.22200 0.19850 0.63850 -0.13200
C 	C 	0.20380 0.16210 0.66130 0.04700
C 	C 	0.11170 0.15930 0.69870 -0.11700
C 	C 	0.06780 0.20040 0.71160 0.07200
C 	C 	0.14870 0.23370 0.65210 0.09300
C 	C 	0.14910 0.27200 0.62780 0.08700
C 	C 	0.15500 0.34330 0.61630 0.16900
C 	C 	0.11880 0.34820 0.58200 -0.24800
C 	C 	0.10190 0.31260 0.56800 0.12700
C 	C 	0.11250 0.27450 0.59010 -0.15300
C 	C 	0.07536 0.23992 0.56996 0.35100
C 	C 	0.43283 0.98242 0.87612 0.50900
C 	C 	0.44775 0.95133 0.91017 -0.19100
C 	C 	0.51418 0.95975 0.94089 0.10500
C 	C 	0.51664 0.93467 0.97525 -0.16400
C 	C 	0.44822 0.90241 0.97895 0.09600
C 	C 	0.39049 0.91633 0.91469 0.09500
C 	C 	0.32593 0.89977 0.88337 0.04600
C 	C 	0.15585 0.86884 0.87646 0.07000
C 	C 	0.19705 0.86283 0.83507 -0.11800
C 	C 	0.30810 0.87529 0.81751 0.03800
C 	C 	0.37347 0.89471 0.84175 -0.10100
C 	C 	0.49350 0.90896 0.82184 0.30400
C 	C 	0.00963 0.92153 0.77001 0.30000
C 	C 	0.90413 0.91988 0.74586 -0.09400
C 	C 	0.82451 0.89155 0.75703 0.03700
C 	C 	0.72936 0.88895 0.73533 -0.11300
C 	C 	0.71669 0.91506 0.70196 0.07200
C 	C 	0.88550 0.94549 0.71191 0.04600
C 	C 	0.96665 0.97590 0.69400 0.09400
C 	C 	0.06859 0.99914 0.63288 0.09900
C 	C 	0.12925 0.02346 0.65344 -0.17400
C 	C 	0.09955 0.02590 0.69560 0.11300
C 	C 	0.01500 0.00301 0.71699 -0.19000
C 	C 	0.96751 0.01126 0.76272 0.50500
C 	C 	0.76898 0.03518 0.90886 0.32900
C 	C 	0.81155 0.03320 0.95050 -0.11100
C 	C 	0.81369 0.99675 0.97287 0.05800
C 	C 	0.83611 0.99608 0.01350 -0.14000
C 	C 	0.85278 0.03204 0.03080 0.09200
C 	C 	0.83852 0.06769 0.96927 0.06100
C 	C 	0.84854 0.10801 0.94871 0.05700
C 	C 	0.79079 0.17876 0.95586 0.08600
C 	C 	0.85296 0.18555 0.91593 -0.13400
C 	C 	0.91878 0.15175 0.89349 0.05500
C 	C 	0.92048 0.11198 0.90986 -0.11700
C 	C 	0.01024 0.07689 0.88723 0.33700
C 	C 	0.52320 0.09850 0.80550 0.43400
C 	C 	0.42050 0.13850 0.80150 -0.13200
C 	C 	0.36590 0.16130 0.83790 0.04700
C 	C 	0.27100 0.19870 0.84070 -0.11700
C 	C 	0.26820 0.21160 0.79960 0.07300
C 	C 	0.38240 0.15210 0.76630 0.09300
C 	C 	0.42110 0.12780 0.72800 0.08800
C 	C 	0.49830 0.11630 0.65670 0.17000
C 	C 	0.46700 0.08200 0.65180 -0.24900
C 	C 	0.41450 0.06800 0.68740 0.12900
C 	C 	0.38700 0.09010 0.72550 -0.15400
C 	C 	0.31528 0.06996 0.76008 0.35500
C 	C 	0.79137 0.51758 0.62388 0.50800
C 	C 	0.80925 0.54867 0.58983 -0.19100
C 	C 	0.91482 0.54025 0.55911 0.10400
C 	C 	0.92656 0.56533 0.52475 -0.16400
C 	C 	0.82958 0.59759 0.52105 0.09600
C 	C 	0.72151 0.58367 0.58531 0.09500
C 	C 	0.60907 0.60023 0.61663 0.04600
C 	C 	0.40115 0.63116 0.62354 0.07000
C 	C 	0.39495 0.63717 0.66493 -0.11700
C 	C 	0.50090 0.62471 0.68249 0.03800
C 	C 	0.60993 0.60529 0.65825 -0.10100
C 	C 	0.72430 0.59104 0.67816 0.30400
C 	C 	0.20117 0.57847 0.72999 0.30300
C 	C 	0.06987 0.58012 0.75414 -0.09700
C 	C 	0.97309 0.60845 0.74297 0.04200
C 	C 	0.85364 0.61105 0.76467 -0.11500
C 	C 	0.83371 0.58494 0.79804 0.07300
C 	C 	0.04290 0.55451 0.78809 0.04700
C 	C 	0.13655 0.52410 0.80600 0.09200
C 	C 	0.20061 0.50086 0.86712 0.09900
C 	C 	0.30615 0.47654 0.84656 -0.17300
C 	C 	0.32105 0.47410 0.80440 0.11100
C 	C 	0.23500 0.49699 0.78301 -0.18600
C 	C 	0.24149 0.48874 0.73728 0.50100
C 	C 	0.21302 0.46482 0.59114 0.32900
C 	C 	0.29525 0.46680 0.54950 -0.11100
C 	C 	0.28331 0.50325 0.52713 0.05700
C 	C 	0.34569 0.50392 0.48650 -0.14000
C 	C 	0.41562 0.46796 0.46920 0.09200
C 	C 	0.37548 0.43231 0.53073 0.06100
C 	C 	0.40526 0.39199 0.55129 0.05800
C 	C 	0.42541 0.32124 0.54414 0.08600
C 	C 	0.45444 0.31445 0.58407 -0.13500
C 	C 	0.46402 0.34825 0.60651 0.05600
C 	C 	0.44232 0.38802 0.59014 -0.11900
C 	C 	0.47436 0.42311 0.61277 0.33900
C 	C 	0.92720 0.40150 0.69450 0.43400
C 	C 	0.86050 0.36150 0.69850 -0.13100
C 	C 	0.86510 0.33870 0.66210 0.04700
C 	C 	0.81040 0.30130 0.65930 -0.11600
C 	C 	0.77940 0.28840 0.70040 0.07300
C 	C 	0.80080 0.34790 0.73370 0.09300
C 	C 	0.77690 0.37220 0.77200 0.08800
C 	C 	0.77130 0.38370 0.84330 0.17000
C 	C 	0.70080 0.41800 0.84820 -0.24900
C 	C 	0.66990 0.43200 0.81260 0.12900
C 	C 	0.70260 0.40990 0.77450 -0.15400
C 	C 	0.64532 0.43004 0.73992 0.35500
C 	C 	0.58475 0.62388 0.98242 0.50900
C 	C 	0.60092 0.58983 0.95133 -0.19100
C 	C 	0.52607 0.55911 0.95975 0.10500
C 	C 	0.54869 0.52475 0.93467 -0.16400
C 	C 	0.64937 0.52105 0.90241 0.09600
C 	C 	0.69318 0.58531 0.91633 0.09500
C 	C 	0.77430 0.61663 0.89977 0.04700
C 	C 	0.97531 0.62354 0.86884 0.07300
C 	C 	0.94012 0.66493 0.86283 -0.12000
C 	C 	0.81661 0.68249 0.87529 0.04000
C 	C 	0.73182 0.65825 0.89471 -0.10100
C 	C 	0.59754 0.67816 0.90896 0.30400
C 	C 	0.06884 0.72999 0.92153 0.30200
C 	C 	0.17599 0.75414 0.91988 -0.09500
C 	C 	0.28394 0.74297 0.89155 0.03800
C 	C 	0.38169 0.76467 0.88895 -0.11300
C 	C 	0.36825 0.79804 0.91506 0.07200
C 	C 	0.16901 0.78809 0.94549 0.04700
C 	C 	0.05745 0.80600 0.97590 0.09300
C 	C 	0.93227 0.86712 0.99914 0.10000
C 	C 	0.84729 0.84656 0.02346 -0.17400
C 	C 	0.87455 0.80440 0.02590 0.11200
C 	C 	0.98199 0.78301 0.00301 -0.18800
C 	C 	0.02123 0.73728 0.01126 0.50400
C 	C 	0.19584 0.59114 0.03518 0.32800
C 	C 	0.15525 0.54950 0.03320 -0.11100
C 	C 	0.18956 0.52713 0.99675 0.05700
C 	C 	0.16781 0.48650 0.99608 -0.14000
C 	C 	0.11518 0.46920 0.03204 0.09200
C 	C 	0.09379 0.53073 0.06769 0.06000
C 	C 	0.04345 0.55129 0.10801 0.06100
C 	C 	0.03045 0.54414 0.17876 0.09200
C 	C 	0.96149 0.58407 0.18555 -0.14200
C 	C 	0.92947 0.60651 0.15175 0.06000
C 	C 	0.96754 0.59014 0.11198 -0.12300
C 	C 	0.91287 0.61277 0.07689 0.34000
C 	C 	0.37830 0.69450 0.09850 0.43400
C 	C 	0.44100 0.69850 0.13850 -0.13200
C 	C 	0.47280 0.66210 0.16130 0.04700
C 	C 	0.53030 0.65930 0.19870 -0.11700
C 	C 	0.52020 0.70040 0.21160 0.07300
C 	C 	0.46550 0.73370 0.15210 0.09300
C 	C 	0.45110 0.77200 0.12780 0.08800
C 	C 	0.38540 0.84330 0.11630 0.17000
C 	C 	0.45100 0.84820 0.08200 -0.24900
C 	C 	0.51750 0.81260 0.06800 0.12900
C 	C 	0.52290 0.77450 0.09010 -0.15400
C 	C 	0.61476 0.73992 0.06996 0.35500
C 	C 	0.69105 0.87612 0.51758 0.50900
C 	C 	0.64208 0.91017 0.54867 -0.19100
C 	C 	0.54493 0.94089 0.54025 0.10500
C 	C 	0.50811 0.97525 0.56533 -0.16400
C 	C 	0.57283 0.97895 0.59759 0.09600
C 	C 	0.69482 0.91469 0.58367 0.09500
C 	C 	0.79070 0.88337 0.60023 0.04600
C 	C 	0.96769 0.87646 0.63116 0.07000
C 	C 	0.96788 0.83507 0.63717 -0.11900
C 	C 	0.87439 0.81751 0.62471 0.03900
C 	C 	0.78478 0.84175 0.60529 -0.10100
C 	C 	0.68466 0.82184 0.59104 0.30400
C 	C 	0.22036 0.77001 0.57847 0.30200
C 	C 	0.35001 0.74586 0.58012 -0.09500
C 	C 	0.41846 0.75703 0.60845 0.03800
C 	C 	0.53531 0.73533 0.61105 -0.11400
C 	C 	0.58135 0.70196 0.58494 0.07200
C 	C 	0.40259 0.71191 0.55451 0.04700
C 	C 	0.33935 0.69400 0.52410 0.09200
C 	C 	0.29853 0.63288 0.50086 0.09900
C 	C 	0.21731 0.65344 0.47654 -0.17200
C 	C 	0.20485 0.69560 0.47410 0.11100
C 	C 	0.26801 0.71699 0.49699 -0.18600
C 	C 	0.26977 0.76272 0.48874 0.50100
C 	C 	0.32216 0.90886 0.46482 0.32800
C 	C 	0.23795 0.95050 0.46680 -0.11100
C 	C 	0.21344 0.97287 0.50325 0.05700
C 	C 	0.15039 0.01350 0.50392 -0.14000
C 	C 	0.11642 0.03080 0.46796 0.09200
C 	C 	0.19221 0.96927 0.43231 0.06100
C 	C 	0.20275 0.94871 0.39199 0.05800
C 	C 	0.25335 0.95586 0.32124 0.08600
C 	C 	0.23111 0.91593 0.31445 -0.13500
C 	C 	0.18773 0.89349 0.34825 0.05600
C 	C 	0.16966 0.90986 0.38802 -0.11800
C 	C 	0.10253 0.88723 0.42311 0.33900
C 	C 	0.67130 0.80550 0.40150 0.43400
C 	C 	0.77800 0.80150 0.36150 -0.13200
C 	C 	0.79620 0.83790 0.33870 0.04700
C 	C 	0.88830 0.84070 0.30130 -0.11700
C 	C 	0.93220 0.79960 0.28840 0.07200
C 	C 	0.85130 0.76630 0.34790 0.09300
C 	C 	0.85090 0.72800 0.37220 0.08700
C 	C 	0.84500 0.65670 0.38370 0.16900
C 	C 	0.88120 0.65180 0.41800 -0.24800
C 	C 	0.89810 0.68740 0.43200 0.12700
C 	C 	0.88750 0.72550 0.40990 -0.15300
C 	C 	0.92464 0.76008 0.43004 0.35100
C 	C 	0.56717 0.01758 0.12388 0.50900
C 	C 	0.55225 0.04867 0.08983 -0.19100
C 	C 	0.48582 0.04025 0.05911 0.10500
C 	C 	0.48336 0.06533 0.02475 -0.16400
C 	C 	0.55178 0.09759 0.02105 0.09600
C 	C 	0.60951 0.08367 0.08531 0.09500
C 	C 	0.67407 0.10023 0.11663 0.04600
C 	C 	0.84415 0.13116 0.12354 0.07000
C 	C 	0.80295 0.13717 0.16493 -0.11800
C 	C 	0.69190 0.12471 0.18249 0.03800
C 	C 	0.62653 0.10529 0.15825 -0.10100
C 	C 	0.50650 0.09104 0.17816 0.30400
C 	C 	0.99037 0.07847 0.22999 0.30000
C 	C 	0.09587 0.08012 0.25414 -0.09400
C 	C 	0.17549 0.10845 0.24297 0.03700
C 	C 	0.27064 0.11105 0.26467 -0.11300
C 	C 	0.28331 0.08494 0.29804 0.07200
C 	C 	0.11450 0.05451 0.28809 0.04600
C 	C 	0.03335 0.02410 0.30600 0.09400
C 	C 	0.93141 0.00086 0.36712 0.09900
C 	C 	0.87075 0.97654 0.34656 -0.17400
C 	C 	0.90045 0.97410 0.30440 0.11300
C 	C 	0.98500 0.99699 0.28301 -0.19000
C 	C 	0.03249 0.98874 0.23728 0.50600
C 	C 	0.23102 0.96482 0.09114 0.32900
C 	C 	0.18845 0.96680 0.04950 -0.11100
C 	C 	0.18631 0.00325 0.02713 0.05800
C 	C 	0.16389 0.00392 0.98650 -0.14000
C 	C 	0.14722 0.96796 0.96920 0.09200
C 	C 	0.16148 0.93231 0.03073 0.06100
C 	C 	0.15146 0.89199 0.05129 0.05700
C 	C 	0.20921 0.82124 0.04414 0.08600
C 	C 	0.14704 0.81445 0.08407 -0.13400
C 	C 	0.08122 0.84825 0.10651 0.05500
C 	C 	0.07952 0.88802 0.09014 -0.11700
C 	C 	0.98976 0.92311 0.11277 0.33700
C 	C 	0.47680 0.90150 0.19450 0.43400
C 	C 	0.57950 0.86150 0.19850 -0.13200
C 	C 	0.63410 0.83870 0.16210 0.04700
C 	C 	0.72900 0.80130 0.15930 -0.11700
C 	C 	0.73180 0.78840 0.20040 0.07300
C 	C 	0.61760 0.84790 0.23370 0.09300
C 	C 	0.57890 0.87220 0.27200 0.08800
C 	C 	0.50170 0.88370 0.34330 0.17000
C 	C 	0.53300 0.91800 0.34820 -0.24900
C 	C 	0.58550 0.93200 0.31260 0.12900
C 	C 	0.61300 0.90990 0.27450 -0.15400
C 	C 	0.68472 0.93004 0.23992 0.35500
C 	C 	0.20863 0.48242 0.37612 0.50800
C 	C 	0.19075 0.45133 0.41017 -0.19100
C 	C 	0.08518 0.45975 0.44089 0.10400
C 	C 	0.07344 0.43467 0.47525 -0.16400
C 	C 	0.17042 0.40241 0.47895 0.09600
C 	C 	0.27849 0.41633 0.41469 0.09500
C 	C 	0.39093 0.39977 0.38337 0.04600
C 	C 	0.59885 0.36884 0.37646 0.07000
C 	C 	0.60505 0.36283 0.33507 -0.11700
C 	C 	0.49910 0.37529 0.31751 0.03800
C 	C 	0.39007 0.39471 0.34175 -0.10100
C 	C 	0.27570 0.40896 0.32184 0.30400
C 	C 	0.79883 0.42153 0.27001 0.30300
C 	C 	0.93013 0.41988 0.24586 -0.09700
C 	C 	0.02691 0.39155 0.25703 0.04200
C 	C 	0.14636 0.38895 0.23533 -0.11500
C 	C 	0.16629 0.41506 0.20196 0.07300
C 	C 	0.95710 0.44549 0.21191 0.04700
C 	C 	0.86345 0.47590 0.19400 0.09200
C 	C 	0.79939 0.49914 0.13288 0.09900
C 	C 	0.69385 0.52346 0.15344 -0.17300
C 	C 	0.67895 0.52590 0.19560 0.11100
C 	C 	0.76500 0.50301 0.21699 -0.18600
C 	C 	0.75851 0.51126 0.26272 0.50100
C 	C 	0.78698 0.53518 0.40886 0.32900
C 	C 	0.70475 0.53320 0.45050 -0.11100
C 	C 	0.71669 0.49675 0.47287 0.05700
C 	C 	0.65431 0.49608 0.51350 -0.14000
C 	C 	0.58438 0.53204 0.53080 0.09200
C 	C 	0.62452 0.56769 0.46927 0.06100
C 	C 	0.59474 0.60801 0.44871 0.05800
C 	C 	0.57459 0.67876 0.45586 0.08600
C 	C 	0.54556 0.68555 0.41593 -0.13500
C 	C 	0.53598 0.65175 0.39349 0.05600
C 	C 	0.55768 0.61198 0.40986 -0.11900
C 	C 	0.52564 0.57689 0.38723 0.33900
C 	C 	0.07280 0.59850 0.30550 0.43400
C 	C 	0.13950 0.63850 0.30150 -0.13100
C 	C 	0.13490 0.66130 0.33790 0.04700
C 	C 	0.18960 0.69870 0.34070 -0.11600
C 	C 	0.22060 0.71160 0.29960 0.07300
C 	C 	0.19920 0.65210 0.26630 0.09300
C 	C 	0.22310 0.62780 0.22800 0.08800
C 	C 	0.22870 0.61630 0.15670 0.17000
C 	C 	0.29920 0.58200 0.15180 -0.24900
C 	C 	0.33010 0.56800 0.18740 0.12900
C 	C 	0.29740 0.59010 0.22550 -0.15400
C 	C 	0.35468 0.56996 0.26008 0.35500
N 	N 	0.27963 0.44937 0.10617 -0.24300
N 	N 	0.10566 0.40084 0.11364 -0.24300
N 	N 	0.73551 0.19035 0.05763 -0.23900
N 	N 	0.96373 0.15267 0.02427 -0.24400
N 	N 	0.93093 0.47178 0.85896 -0.24000
N 	N 	0.92030 0.50942 0.93258 -0.23500
N 	N 	0.62950 0.18840 0.85720 -0.13500
N 	N 	0.50720 0.26450 0.80930 -0.12000
N 	N 	0.33517 0.05063 0.39383 -0.24300
N 	N 	0.12014 0.09916 0.38636 -0.24300
N 	N 	0.48349 0.30965 0.44237 -0.23900
N 	N 	0.64067 0.34733 0.47573 -0.24400
N 	N 	0.76167 0.02822 0.64104 -0.23900
N 	N 	0.86230 0.99058 0.56742 -0.23600
N 	N 	0.17510 0.31160 0.64280 -0.13500
N 	N 	0.08100 0.23550 0.69070 -0.12000
N 	N 	0.38580 0.89383 0.94937 -0.24300
N 	N 	0.21930 0.88636 0.90084 -0.24300
N 	N 	0.79314 0.94237 0.69035 -0.23800
N 	N 	0.98800 0.97573 0.65267 -0.24400
N 	N 	0.78989 0.14104 0.97178 -0.23900
N 	N 	0.85288 0.06742 0.00942 -0.23600
N 	N 	0.48670 0.14280 0.68840 -0.13500
N 	N 	0.31650 0.19070 0.76450 -0.12000
N 	N 	0.72900 0.60617 0.55063 -0.24300
N 	N 	0.50650 0.61364 0.59916 -0.24300
N 	N 	0.92586 0.55763 0.80965 -0.23800
N 	N 	0.11640 0.52427 0.84733 -0.24400
N 	N 	0.40271 0.35896 0.52822 -0.23900
N 	N 	0.42972 0.43258 0.49058 -0.23600
N 	N 	0.81790 0.35720 0.81160 -0.13400
N 	N 	0.77170 0.30930 0.73550 -0.11900
N 	N 	0.72037 0.55063 0.89383 -0.24300
N 	N 	0.89434 0.59916 0.88636 -0.24300
N 	N 	0.26449 0.80965 0.94237 -0.23900
N 	N 	0.03627 0.84733 0.97573 -0.24400
N 	N 	0.06907 0.52822 0.14104 -0.24000
N 	N 	0.07970 0.49058 0.06742 -0.23500
N 	N 	0.37050 0.81160 0.14280 -0.13500
N 	N 	0.49280 0.73550 0.19070 -0.12000
N 	N 	0.66483 0.94937 0.60617 -0.24300
N 	N 	0.87986 0.90084 0.61364 -0.24300
N 	N 	0.51651 0.69035 0.55763 -0.23900
N 	N 	0.35933 0.65267 0.52427 -0.24400
N 	N 	0.23833 0.97178 0.35896 -0.23900
N 	N 	0.13770 0.00942 0.43258 -0.23600
N 	N 	0.82490 0.68840 0.35720 -0.13500
N 	N 	0.91900 0.76450 0.30930 -0.12000
N 	N 	0.61420 0.10617 0.05063 -0.24300
N 	N 	0.78070 0.11364 0.09916 -0.24300
N 	N 	0.20686 0.05763 0.30965 -0.23800
N 	N 	0.01200 0.02427 0.34733 -0.24400
N 	N 	0.21011 0.85896 0.02822 -0.23900
N 	N 	0.14712 0.93258 0.99058 -0.23600
N 	N 	0.51330 0.85720 0.31160 -0.13500
N 	N 	0.68350 0.80930 0.23550 -0.12000
N 	N 	0.27100 0.39383 0.44937 -0.24300
N 	N 	0.49350 0.38636 0.40084 -0.24300
N 	N 	0.07414 0.44237 0.19035 -0.23800
N 	N 	0.88360 0.47573 0.15267 -0.24400
N 	N 	0.59729 0.64104 0.47178 -0.23900
N 	N 	0.57028 0.56742 0.50942 -0.23600
N 	N 	0.18210 0.64280 0.18840 -0.13400
N 	N 	0.22830 0.69070 0.26450 -0.11900
O 	O 	0.51990 0.36718 0.99602 -0.50800
O 	O 	0.31933 0.36128 0.01466 -0.51900
O 	O 	0.41998 0.28898 0.07146 -0.26900
O 	O 	0.48698 0.33998 0.10006 -0.25100
O 	O 	0.72147 0.40555 0.94411 -0.35300
O 	O 	0.85056 0.37909 0.98559 -0.41400
O 	O 	0.11846 0.40623 0.94965 -0.35800
O 	O 	0.10055 0.34785 0.92165 -0.42000
O 	O 	0.90497 0.30833 0.07653 -0.27000
O 	O 	0.03851 0.24944 0.07914 -0.24900
O 	O 	0.86361 0.27516 0.99222 -0.51300
O 	O 	0.06420 0.28309 0.97751 -0.50900
O 	O 	0.60129 0.33670 0.91632 -0.48500
O 	O 	0.69342 0.27562 0.91334 -0.38900
O 	O 	0.40627 0.27462 0.96264 -0.43300
O 	O 	0.29024 0.27407 0.91545 -0.37600
O 	O 	0.38310 0.13282 0.50398 -0.50800
O 	O 	0.19527 0.13872 0.48534 -0.51900
O 	O 	0.28042 0.21102 0.42854 -0.26900
O 	O 	0.42702 0.16002 0.39994 -0.25100
O 	O 	0.57113 0.09445 0.55589 -0.35300
O 	O 	0.71524 0.12091 0.51441 -0.41500
O 	O 	0.97434 0.09377 0.55035 -0.35700
O 	O 	0.87005 0.15215 0.57835 -0.41900
O 	O 	0.78983 0.19167 0.42347 -0.27000
O 	O 	0.86709 0.25056 0.42086 -0.24900
O 	O 	0.63099 0.22484 0.50778 -0.51300
O 	O 	0.82480 0.21691 0.52249 -0.50700
O 	O 	0.35431 0.16330 0.58368 -0.48500
O 	O 	0.38238 0.22438 0.58666 -0.39000
O 	O 	0.14353 0.22538 0.53736 -0.43200
O 	O 	0.97976 0.22593 0.58455 -0.37200
O 	O 	0.51592 0.00398 0.86718 -0.50800
O 	O 	0.33399 0.98534 0.86128 -0.51900
O 	O 	0.49144 0.92854 0.78898 -0.26900
O 	O 	0.58704 0.89994 0.83998 -0.25100
O 	O 	0.66558 0.05589 0.90555 -0.35300
O 	O 	0.83615 0.01441 0.87909 -0.41400
O 	O 	0.06811 0.05035 0.90623 -0.35800
O 	O 	0.02220 0.07835 0.84785 -0.42000
O 	O 	0.98150 0.92347 0.80833 -0.26900
O 	O 	0.11765 0.92086 0.74944 -0.24900
O 	O 	0.85583 0.00778 0.77516 -0.51400
O 	O 	0.04171 0.02249 0.78309 -0.51000
O 	O 	0.51761 0.08368 0.83670 -0.48500
O 	O 	0.60676 0.08666 0.77562 -0.39000
O 	O 	0.36891 0.03736 0.77462 -0.43300
O 	O 	0.20569 0.08455 0.77407 -0.37600
O 	O 	0.88708 0.49602 0.63282 -0.50600
O 	O 	0.68061 0.51466 0.63872 -0.51900
O 	O 	0.70896 0.57146 0.71102 -0.26900
O 	O 	0.82696 0.60006 0.66002 -0.25100
O 	O 	0.12702 0.44411 0.59445 -0.35300
O 	O 	0.22965 0.48559 0.62091 -0.41500
O 	O 	0.52469 0.44965 0.59377 -0.35800
O 	O 	0.44840 0.42165 0.65215 -0.42000
O 	O 	0.21330 0.57653 0.69167 -0.27000
O 	O 	0.28795 0.57914 0.75056 -0.25000
O 	O 	0.13877 0.49222 0.72484 -0.51300
O 	O 	0.34729 0.47751 0.71691 -0.50800
O 	O 	0.93799 0.41632 0.66330 -0.48300
O 	O 	0.96904 0.41334 0.72438 -0.38800
O 	O 	0.68089 0.46264 0.72538 -0.43300
O 	O 	0.56431 0.41545 0.72593 -0.37600
O 	O 	0.48010 0.63282 0.00398 -0.50800
O 	O 	0.68067 0.63872 0.98534 -0.51900
O 	O 	0.58002 0.71102 0.92854 -0.26900
O 	O 	0.51302 0.66002 0.89994 -0.25100
O 	O 	0.27853 0.59445 0.05589 -0.35300
O 	O 	0.14944 0.62091 0.01441 -0.41400
O 	O 	0.88154 0.59377 0.05035 -0.35800
O 	O 	0.89945 0.65215 0.07835 -0.42000
O 	O 	0.09503 0.69167 0.92347 -0.27000
O 	O 	0.96149 0.75056 0.92086 -0.24900
O 	O 	0.13639 0.72484 0.00778 -0.51300
O 	O 	0.93580 0.71691 0.02249 -0.50900
O 	O 	0.39871 0.66330 0.08368 -0.48500
O 	O 	0.30658 0.72438 0.08666 -0.38900
O 	O 	0.59373 0.72538 0.03736 -0.43300
O 	O 	0.70976 0.72593 0.08455 -0.37600
O 	O 	0.61690 0.86718 0.49602 -0.50800
O 	O 	0.80473 0.86128 0.51466 -0.51900
O 	O 	0.71958 0.78898 0.57146 -0.26900
O 	O 	0.57298 0.83998 0.60006 -0.25100
O 	O 	0.42887 0.90555 0.44411 -0.35300
O 	O 	0.28476 0.87909 0.48559 -0.41500
O 	O 	0.02566 0.90623 0.44965 -0.35700
O 	O 	0.12995 0.84785 0.42165 -0.41900
O 	O 	0.21017 0.80833 0.57653 -0.27000
O 	O 	0.13291 0.74944 0.57914 -0.24900
O 	O 	0.36901 0.77516 0.49222 -0.51300
O 	O 	0.17520 0.78309 0.47751 -0.50700
O 	O 	0.64569 0.83670 0.41632 -0.48500
O 	O 	0.61762 0.77562 0.41334 -0.39000
O 	O 	0.85647 0.77462 0.46264 -0.43200
O 	O 	0.02024 0.77407 0.41545 -0.37200
O 	O 	0.48408 0.99602 0.13282 -0.50800
O 	O 	0.66601 0.01466 0.13872 -0.51900
O 	O 	0.50856 0.07146 0.21102 -0.26900
O 	O 	0.41296 0.10006 0.16002 -0.25100
O 	O 	0.33442 0.94411 0.09445 -0.35300
O 	O 	0.16385 0.98559 0.12091 -0.41400
O 	O 	0.93189 0.94965 0.09377 -0.35800
O 	O 	0.97780 0.92165 0.15215 -0.42000
O 	O 	0.01850 0.07653 0.19167 -0.26900
O 	O 	0.88235 0.07914 0.25056 -0.24900
O 	O 	0.14417 0.99222 0.22484 -0.51400
O 	O 	0.95829 0.97751 0.21691 -0.51000
O 	O 	0.48239 0.91632 0.16330 -0.48500
O 	O 	0.39324 0.91334 0.22438 -0.39000
O 	O 	0.63109 0.96264 0.22538 -0.43300
O 	O 	0.79431 0.91545 0.22593 -0.37600
O 	O 	0.11292 0.50398 0.36718 -0.50600
O 	O 	0.31939 0.48534 0.36128 -0.51900
O 	O 	0.29104 0.42854 0.28898 -0.26900
O 	O 	0.17304 0.39994 0.33998 -0.25100
O 	O 	0.87298 0.55589 0.40555 -0.35300
O 	O 	0.77035 0.51441 0.37909 -0.41500
O 	O 	0.47531 0.55035 0.40623 -0.35800
O 	O 	0.55160 0.57835 0.34785 -0.42000
O 	O 	0.78670 0.42347 0.30833 -0.27000
O 	O 	0.71205 0.42086 0.24944 -0.25000
O 	O 	0.86123 0.50778 0.27516 -0.51300
O 	O 	0.65271 0.52249 0.28309 -0.50800
O 	O 	0.06201 0.58368 0.33670 -0.48300
O 	O 	0.03096 0.58666 0.27562 -0.38800
O 	O 	0.31911 0.53736 0.27462 -0.43300
O 	O 	0.43569 0.58455 0.27407 -0.37600
