data_crystal

_cell_length_a 11.70560
_cell_length_b 12.32160
_cell_length_c 12.78120
_cell_angle_alpha 90.00000
_cell_angle_beta  98.15400
_cell_angle_gamma 90.00000

_symmetry_space_group_name_	'P 1'
_symmetry_space_group_name_H-M	'P 1'

loop_
_symmetry_equiv_pos_as_xyz
  x,y,z

loop_
_atom_site_label
_atom_site_type_symbol
_atom_site_fract_x
_atom_site_fract_y
_atom_site_fract_z
_atom_site_charge
Mn	Mn	0.35960 0.87620 0.33510 1.31800
Mn	Mn	0.64040 0.37620 0.16490 1.31500
Mn	Mn	0.64040 0.12380 0.66490 1.30900
Mn	Mn	0.35960 0.62380 0.83510 1.31200
Mn	Mn	0.50000 0.50000 0.50000 1.29500
Mn	Mn	0.50000 0.00000 -0.00000 1.27000
H 	H 	0.40750 0.66360 0.27650 0.13400
H 	H 	0.42040 0.79220 0.14720 0.10100
H 	H 	0.56090 0.00150 0.36890 0.07000
H 	H 	0.54730 0.87420 0.49770 0.13700
H 	H 	0.27800 0.64780 0.45970 -0.01600
H 	H 	0.08290 0.65480 0.45630 0.10900
H 	H 	0.09320 0.34430 0.54350 0.10500
H 	H 	0.28770 0.34820 0.54410 0.00900
H 	H 	0.59250 0.16360 0.22350 0.12000
H 	H 	0.57960 0.29220 0.35280 0.11700
H 	H 	0.43910 0.50150 0.13110 0.11600
H 	H 	0.45270 0.37420 0.00230 0.10500
H 	H 	0.72200 0.14780 0.04030 -0.02700
H 	H 	0.91710 0.15480 0.04370 0.14900
H 	H 	0.90680 0.84430 0.95650 0.14600
H 	H 	0.71230 0.84820 0.95590 -0.00900
H 	H 	0.59250 0.33640 0.72350 0.11900
H 	H 	0.57960 0.20780 0.85280 0.13300
H 	H 	0.43910 0.99850 0.63110 0.16700
H 	H 	0.45270 0.12580 0.50230 0.09700
H 	H 	0.72200 0.35220 0.54030 -0.00900
H 	H 	0.91710 0.34520 0.54370 0.08700
H 	H 	0.90680 0.65570 0.45650 0.08600
H 	H 	0.71230 0.65180 0.45590 0.01600
H 	H 	0.40750 0.83640 0.77650 0.13100
H 	H 	0.42040 0.70780 0.64720 0.11700
H 	H 	0.56090 0.49850 0.86890 0.12600
H 	H 	0.54730 0.62580 0.99770 0.12700
H 	H 	0.27800 0.85220 0.95970 0.00300
H 	H 	0.08290 0.84520 0.95630 0.04700
H 	H 	0.09320 0.15570 0.04350 0.04500
H 	H 	0.28770 0.15180 0.04410 0.03400
C 	C 	0.49330 0.74390 0.40240 0.21000
C 	C 	0.44600 0.72820 0.29550 -0.28900
C 	C 	0.45460 0.80680 0.21600 -0.22800
C 	C 	0.51350 0.90710 0.23740 0.15300
C 	C 	0.53820 0.93140 0.34850 -0.16000
C 	C 	0.52930 0.85400 0.42710 -0.29300
C 	C 	0.30050 0.87110 0.45680 -0.24600
C 	C 	0.22800 0.82480 0.26250 -0.23800
C 	C 	0.31590 0.01470 0.30910 -0.28000
C 	C 	0.24020 0.58530 0.47710 0.11000
C 	C 	0.12240 0.59070 0.47490 -0.15700
C 	C 	0.06390 0.49970 0.50060 0.10700
C 	C 	0.12850 0.40810 0.52620 -0.15300
C 	C 	0.24590 0.41130 0.52610 0.10700
C 	C 	0.50670 0.24390 0.09760 0.18300
C 	C 	0.55400 0.22820 0.20450 -0.26200
C 	C 	0.54540 0.30680 0.28400 -0.25800
C 	C 	0.48650 0.40710 0.26260 0.19000
C 	C 	0.46180 0.43140 0.15150 -0.25000
C 	C 	0.47070 0.35400 0.07290 -0.24500
C 	C 	0.69950 0.37110 0.04320 -0.30400
C 	C 	0.77200 0.32480 0.23750 -0.24700
C 	C 	0.68410 0.51470 0.19090 -0.25700
C 	C 	0.75980 0.08530 0.02290 0.11100
C 	C 	0.87760 0.09070 0.02510 -0.31800
C 	C 	0.93610 0.99970 0.99940 0.30400
C 	C 	0.87150 0.90810 0.97380 -0.26100
C 	C 	0.75410 0.91130 0.97390 0.17700
C 	C 	0.50670 0.25610 0.59760 0.16400
C 	C 	0.55400 0.27180 0.70450 -0.24100
C 	C 	0.54540 0.19320 0.78400 -0.28000
C 	C 	0.48650 0.09290 0.76260 0.22200
C 	C 	0.46180 0.06860 0.65150 -0.32800
C 	C 	0.47070 0.14600 0.57290 -0.20300
C 	C 	0.69950 0.12890 0.54320 -0.26500
C 	C 	0.77200 0.17520 0.73750 -0.25400
C 	C 	0.68410 0.98530 0.69090 -0.22600
C 	C 	0.75980 0.41470 0.52290 0.08900
C 	C 	0.87760 0.40930 0.52510 -0.12100
C 	C 	0.93610 0.50030 0.49940 0.04600
C 	C 	0.87150 0.59190 0.47380 -0.11800
C 	C 	0.75410 0.58870 0.47390 0.08700
C 	C 	0.49330 0.75610 0.90240 0.18500
C 	C 	0.44600 0.77180 0.79550 -0.26200
C 	C 	0.45460 0.69320 0.71600 -0.25600
C 	C 	0.51350 0.59290 0.73740 0.19000
C 	C 	0.53820 0.56860 0.84850 -0.24600
C 	C 	0.52930 0.64600 0.92710 -0.24400
C 	C 	0.30050 0.62890 0.95680 -0.20900
C 	C 	0.22800 0.67520 0.76250 -0.24600
C 	C 	0.31590 0.48530 0.80910 -0.24900
C 	C 	0.24020 0.91470 0.97710 0.08700
C 	C 	0.12240 0.90930 0.97490 0.03500
C 	C 	0.06390 0.00030 0.00060 -0.14800
C 	C 	0.12850 0.09190 0.02620 -0.01100
C 	C 	0.24590 0.08870 0.02610 0.01700
N 	N 	0.30350 0.49810 0.50210 -0.23700
N 	N 	0.69650 0.99810 0.99790 -0.21700
N 	N 	0.69650 0.50190 0.49790 -0.22900
N 	N 	0.30350 0.00190 0.00210 -0.24400
O 	O 	0.49550 0.67310 0.47550 -0.39600
O 	O 	0.53560 0.97560 0.16840 -0.36200
O 	O 	0.26710 0.86580 0.53660 -0.07700
O 	O 	0.14690 0.78920 0.21560 -0.07600
O 	O 	0.28990 0.10300 0.29330 -0.07200
O 	O 	0.50450 0.17310 0.02450 -0.40400
O 	O 	0.46440 0.47560 0.33160 -0.38700
O 	O 	0.73290 0.36580 0.96340 -0.03900
O 	O 	0.85310 0.28920 0.28440 -0.08200
O 	O 	0.71010 0.60300 0.20670 -0.08200
O 	O 	0.50450 0.32690 0.52450 -0.38400
O 	O 	0.46440 0.02440 0.83160 -0.39700
O 	O 	0.73290 0.13420 0.46340 -0.08700
O 	O 	0.85310 0.21080 0.78440 -0.07200
O 	O 	0.71010 0.89700 0.70670 -0.07800
O 	O 	0.49550 0.82690 0.97550 -0.36800
O 	O 	0.53560 0.52440 0.66840 -0.38500
O 	O 	0.26710 0.63420 0.03660 -0.12200
O 	O 	0.14690 0.71080 0.71560 -0.06700
O 	O 	0.28990 0.39700 0.79330 -0.06800
