data_crystal

_cell_length_a 32.24410
_cell_length_b 32.24410
_cell_length_c 32.24410
_cell_angle_alpha 60.00000
_cell_angle_beta  60.00000
_cell_angle_gamma 60.00000

_symmetry_space_group_name_	'P 1'
_symmetry_space_group_name_H-M	'P 1'

loop_
_symmetry_equiv_pos_as_xyz
  x,y,z

loop_
_atom_site_label
_atom_site_type_symbol
_atom_site_fract_x
_atom_site_fract_y
_atom_site_fract_z
_atom_site_charge
Zn	Zn	0.52593 0.34299 0.15657 1.17200
Zn	Zn	0.34299 0.52593 0.97451 1.17200
Zn	Zn	0.15657 0.97451 0.52593 1.17200
Zn	Zn	0.97451 0.15657 0.34299 1.17200
Zn	Zn	0.52593 0.15657 0.97451 1.17200
Zn	Zn	0.34299 0.97451 0.15657 1.17200
Zn	Zn	0.15657 0.52593 0.34299 1.17300
Zn	Zn	0.97451 0.34299 0.52593 1.17300
Zn	Zn	0.52593 0.97451 0.34299 1.17300
Zn	Zn	0.34299 0.15657 0.52593 1.17300
Zn	Zn	0.15657 0.34299 0.97451 1.17300
Zn	Zn	0.97451 0.52593 0.15657 1.17300
Zn	Zn	0.65701 0.47407 0.84343 1.17300
Zn	Zn	0.47407 0.65701 0.02549 1.17300
Zn	Zn	0.02549 0.84343 0.47407 1.17300
Zn	Zn	0.84343 0.02549 0.65701 1.17300
Zn	Zn	0.84343 0.47407 0.02549 1.17300
Zn	Zn	0.02549 0.65701 0.84343 1.17300
Zn	Zn	0.47407 0.84343 0.65701 1.17300
Zn	Zn	0.65701 0.02549 0.47407 1.17300
Zn	Zn	0.02549 0.47407 0.65701 1.17300
Zn	Zn	0.84343 0.65701 0.47407 1.17300
Zn	Zn	0.65701 0.84343 0.02549 1.17300
Zn	Zn	0.47407 0.02549 0.84343 1.17300
Zn	Zn	0.47407 0.65701 0.84343 1.17300
Zn	Zn	0.65701 0.47407 0.02549 1.17300
Zn	Zn	0.84343 0.02549 0.47407 1.17300
Zn	Zn	0.02549 0.84343 0.65701 1.17300
Zn	Zn	0.47407 0.84343 0.02549 1.17300
Zn	Zn	0.65701 0.02549 0.84343 1.17300
Zn	Zn	0.84343 0.47407 0.65701 1.17300
Zn	Zn	0.02549 0.65701 0.47407 1.17300
Zn	Zn	0.47407 0.02549 0.65701 1.17300
Zn	Zn	0.65701 0.84343 0.47407 1.17300
Zn	Zn	0.84343 0.65701 0.02549 1.17300
Zn	Zn	0.02549 0.47407 0.84343 1.17300
Zn	Zn	0.34299 0.52593 0.15657 1.17300
Zn	Zn	0.52593 0.34299 0.97451 1.17300
Zn	Zn	0.97451 0.15657 0.52593 1.17300
Zn	Zn	0.15657 0.97451 0.34299 1.17300
Zn	Zn	0.15657 0.52593 0.97451 1.17300
Zn	Zn	0.97451 0.34299 0.15657 1.17300
Zn	Zn	0.52593 0.15657 0.34299 1.17300
Zn	Zn	0.34299 0.97451 0.52593 1.17300
Zn	Zn	0.97451 0.52593 0.34299 1.17300
Zn	Zn	0.15657 0.34299 0.52593 1.17300
Zn	Zn	0.34299 0.15657 0.97451 1.17300
Zn	Zn	0.52593 0.97451 0.15657 1.17300
H 	H 	0.42970 0.30070 0.20630 0.03900
H 	H 	0.36850 0.28110 0.21230 0.02700
H 	H 	0.64070 0.26230 0.11390 0.04400
H 	H 	0.71940 0.23260 0.06840 0.02600
H 	H 	0.49960 0.35740 0.26260 0.04700
H 	H 	0.46290 0.38890 0.32690 0.02900
H 	H 	0.61210 0.33110 0.18930 0.04300
H 	H 	0.65620 0.30940 0.23640 0.02800
H 	H 	0.30070 0.42970 0.06330 0.03900
H 	H 	0.28110 0.36850 0.13810 0.02700
H 	H 	0.26230 0.64070 0.98310 0.04300
H 	H 	0.23260 0.71940 0.97960 0.02600
H 	H 	0.35740 0.49960 0.88040 0.04700
H 	H 	0.38890 0.46290 0.82130 0.02900
H 	H 	0.33110 0.61210 0.86750 0.04300
H 	H 	0.30940 0.65620 0.79800 0.02800
H 	H 	0.20630 0.06330 0.42970 0.03900
H 	H 	0.21230 0.13810 0.36850 0.02700
H 	H 	0.11390 0.98310 0.64070 0.04300
H 	H 	0.06840 0.97960 0.71940 0.02600
H 	H 	0.26260 0.88040 0.49960 0.04700
H 	H 	0.32690 0.82130 0.46290 0.02900
H 	H 	0.18930 0.86750 0.61210 0.04300
H 	H 	0.23640 0.79800 0.65620 0.02800
H 	H 	0.06330 0.20630 0.30070 0.03900
H 	H 	0.13810 0.21230 0.28110 0.02700
H 	H 	0.98310 0.11390 0.26230 0.04300
H 	H 	0.97960 0.06840 0.23260 0.02500
H 	H 	0.88040 0.26260 0.35740 0.04700
H 	H 	0.82130 0.32690 0.38890 0.02900
H 	H 	0.86750 0.18930 0.33110 0.04300
H 	H 	0.79800 0.23640 0.30940 0.02800
H 	H 	0.42970 0.20630 0.06330 0.03900
H 	H 	0.36850 0.21230 0.13810 0.02700
H 	H 	0.64070 0.11390 0.98310 0.04300
H 	H 	0.71940 0.06840 0.97960 0.02600
H 	H 	0.49960 0.26260 0.88040 0.04700
H 	H 	0.46290 0.32690 0.82130 0.02900
H 	H 	0.61210 0.18930 0.86750 0.04300
H 	H 	0.65620 0.23640 0.79800 0.02800
H 	H 	0.30070 0.06330 0.20630 0.03900
H 	H 	0.28110 0.13810 0.21230 0.02700
H 	H 	0.26230 0.98310 0.11390 0.04300
H 	H 	0.23260 0.97960 0.06840 0.02500
H 	H 	0.35740 0.88040 0.26260 0.04700
H 	H 	0.38890 0.82130 0.32690 0.02900
H 	H 	0.33110 0.86750 0.18930 0.04300
H 	H 	0.30940 0.79800 0.23640 0.02800
H 	H 	0.20630 0.42970 0.30070 0.03900
H 	H 	0.21230 0.36850 0.28110 0.02700
H 	H 	0.11390 0.64070 0.26230 0.04400
H 	H 	0.06840 0.71940 0.23260 0.02600
H 	H 	0.26260 0.49960 0.35740 0.04700
H 	H 	0.32690 0.46290 0.38890 0.02900
H 	H 	0.18930 0.61210 0.33110 0.04300
H 	H 	0.23640 0.65620 0.30940 0.02800
H 	H 	0.06330 0.30070 0.42970 0.03900
H 	H 	0.13810 0.28110 0.36850 0.02700
H 	H 	0.98310 0.26230 0.64070 0.04300
H 	H 	0.97960 0.23260 0.71940 0.02600
H 	H 	0.88040 0.35740 0.49960 0.04700
H 	H 	0.82130 0.38890 0.46290 0.02900
H 	H 	0.86750 0.33110 0.61210 0.04300
H 	H 	0.79800 0.30940 0.65620 0.02800
H 	H 	0.42970 0.06330 0.30070 0.03900
H 	H 	0.36850 0.13810 0.28110 0.02700
H 	H 	0.64070 0.98310 0.26230 0.04300
H 	H 	0.71940 0.97960 0.23260 0.02600
H 	H 	0.49960 0.88040 0.35740 0.04700
H 	H 	0.46290 0.82130 0.38890 0.02900
H 	H 	0.61210 0.86750 0.33110 0.04300
H 	H 	0.65620 0.79800 0.30940 0.02800
H 	H 	0.30070 0.20630 0.42970 0.03900
H 	H 	0.28110 0.21230 0.36850 0.02700
H 	H 	0.26230 0.11390 0.64070 0.04400
H 	H 	0.23260 0.06840 0.71940 0.02600
H 	H 	0.35740 0.26260 0.49960 0.04700
H 	H 	0.38890 0.32690 0.46290 0.02900
H 	H 	0.33110 0.18930 0.61210 0.04300
H 	H 	0.30940 0.23640 0.65620 0.02800
H 	H 	0.20630 0.30070 0.06330 0.03900
H 	H 	0.21230 0.28110 0.13810 0.02700
H 	H 	0.11390 0.26230 0.98310 0.04300
H 	H 	0.06840 0.23260 0.97960 0.02500
H 	H 	0.26260 0.35740 0.88040 0.04700
H 	H 	0.32690 0.38890 0.82130 0.02900
H 	H 	0.18930 0.33110 0.86750 0.04300
H 	H 	0.23640 0.30940 0.79800 0.02800
H 	H 	0.06330 0.42970 0.20630 0.03900
H 	H 	0.13810 0.36850 0.21230 0.02700
H 	H 	0.98310 0.64070 0.11390 0.04300
H 	H 	0.97960 0.71940 0.06840 0.02600
H 	H 	0.88040 0.49960 0.26260 0.04700
H 	H 	0.82130 0.46290 0.32690 0.02900
H 	H 	0.86750 0.61210 0.18930 0.04300
H 	H 	0.79800 0.65620 0.23640 0.02800
H 	H 	0.69930 0.57030 0.79370 0.03900
H 	H 	0.71890 0.63150 0.78770 0.02700
H 	H 	0.73770 0.35930 0.88610 0.04400
H 	H 	0.76740 0.28060 0.93160 0.02600
H 	H 	0.64260 0.50040 0.73740 0.04700
H 	H 	0.61110 0.53710 0.67310 0.02900
H 	H 	0.66890 0.38790 0.81070 0.04300
H 	H 	0.69060 0.34380 0.76360 0.02800
H 	H 	0.57030 0.69930 0.93670 0.03900
H 	H 	0.63150 0.71890 0.86190 0.02700
H 	H 	0.35930 0.73770 0.01690 0.04300
H 	H 	0.28060 0.76740 0.02040 0.02600
H 	H 	0.50040 0.64260 0.11960 0.04700
H 	H 	0.53710 0.61110 0.17870 0.02900
H 	H 	0.38790 0.66890 0.13250 0.04300
H 	H 	0.34380 0.69060 0.20200 0.02800
H 	H 	0.93670 0.79370 0.57030 0.03900
H 	H 	0.86190 0.78770 0.63150 0.02700
H 	H 	0.01690 0.88610 0.35930 0.04300
H 	H 	0.02040 0.93160 0.28060 0.02600
H 	H 	0.11960 0.73740 0.50040 0.04700
H 	H 	0.17870 0.67310 0.53710 0.02900
H 	H 	0.13250 0.81070 0.38790 0.04300
H 	H 	0.20200 0.76360 0.34380 0.02800
H 	H 	0.79370 0.93670 0.69930 0.03900
H 	H 	0.78770 0.86190 0.71890 0.02700
H 	H 	0.88610 0.01690 0.73770 0.04300
H 	H 	0.93160 0.02040 0.76740 0.02500
H 	H 	0.73740 0.11960 0.64260 0.04700
H 	H 	0.67310 0.17870 0.61110 0.02900
H 	H 	0.81070 0.13250 0.66890 0.04300
H 	H 	0.76360 0.20200 0.69060 0.02800
H 	H 	0.79370 0.57030 0.93670 0.03900
H 	H 	0.78770 0.63150 0.86190 0.02700
H 	H 	0.88610 0.35930 0.01690 0.04300
H 	H 	0.93160 0.28060 0.02040 0.02600
H 	H 	0.73740 0.50040 0.11960 0.04700
H 	H 	0.67310 0.53710 0.17870 0.02900
H 	H 	0.81070 0.38790 0.13250 0.04300
H 	H 	0.76360 0.34380 0.20200 0.02800
H 	H 	0.93670 0.69930 0.79370 0.03900
H 	H 	0.86190 0.71890 0.78770 0.02700
H 	H 	0.01690 0.73770 0.88610 0.04300
H 	H 	0.02040 0.76740 0.93160 0.02500
H 	H 	0.11960 0.64260 0.73740 0.04700
H 	H 	0.17870 0.61110 0.67310 0.02900
H 	H 	0.13250 0.66890 0.81070 0.04300
H 	H 	0.20200 0.69060 0.76360 0.02800
H 	H 	0.57030 0.79370 0.69930 0.03900
H 	H 	0.63150 0.78770 0.71890 0.02700
H 	H 	0.35930 0.88610 0.73770 0.04400
H 	H 	0.28060 0.93160 0.76740 0.02600
H 	H 	0.50040 0.73740 0.64260 0.04700
H 	H 	0.53710 0.67310 0.61110 0.02900
H 	H 	0.38790 0.81070 0.66890 0.04300
H 	H 	0.34380 0.76360 0.69060 0.02800
H 	H 	0.69930 0.93670 0.57030 0.03900
H 	H 	0.71890 0.86190 0.63150 0.02700
H 	H 	0.73770 0.01690 0.35930 0.04300
H 	H 	0.76740 0.02040 0.28060 0.02600
H 	H 	0.64260 0.11960 0.50040 0.04700
H 	H 	0.61110 0.17870 0.53710 0.02900
H 	H 	0.66890 0.13250 0.38790 0.04300
H 	H 	0.69060 0.20200 0.34380 0.02800
H 	H 	0.93670 0.57030 0.69930 0.03900
H 	H 	0.86190 0.63150 0.71890 0.02700
H 	H 	0.01690 0.35930 0.73770 0.04300
H 	H 	0.02040 0.28060 0.76740 0.02600
H 	H 	0.11960 0.50040 0.64260 0.04700
H 	H 	0.17870 0.53710 0.61110 0.02900
H 	H 	0.13250 0.38790 0.66890 0.04300
H 	H 	0.20200 0.34380 0.69060 0.02800
H 	H 	0.79370 0.69930 0.57030 0.03900
H 	H 	0.78770 0.71890 0.63150 0.02700
H 	H 	0.88610 0.73770 0.35930 0.04400
H 	H 	0.93160 0.76740 0.28060 0.02600
H 	H 	0.73740 0.64260 0.50040 0.04700
H 	H 	0.67310 0.61110 0.53710 0.02900
H 	H 	0.81070 0.66890 0.38790 0.04300
H 	H 	0.76360 0.69060 0.34380 0.02800
H 	H 	0.69930 0.79370 0.93670 0.03900
H 	H 	0.71890 0.78770 0.86190 0.02700
H 	H 	0.73770 0.88610 0.01690 0.04300
H 	H 	0.76740 0.93160 0.02040 0.02500
H 	H 	0.64260 0.73740 0.11960 0.04700
H 	H 	0.61110 0.67310 0.17870 0.02900
H 	H 	0.66890 0.81070 0.13250 0.04300
H 	H 	0.69060 0.76360 0.20200 0.02800
H 	H 	0.57030 0.93670 0.79370 0.03900
H 	H 	0.63150 0.86190 0.78770 0.02700
H 	H 	0.35930 0.01690 0.88610 0.04300
H 	H 	0.28060 0.02040 0.93160 0.02600
H 	H 	0.50040 0.11960 0.73740 0.04700
H 	H 	0.53710 0.17870 0.67310 0.02900
H 	H 	0.38790 0.13250 0.81070 0.04300
H 	H 	0.34380 0.20200 0.76360 0.02800
H 	H 	0.57030 0.69930 0.79370 0.03900
H 	H 	0.63150 0.71890 0.78770 0.02700
H 	H 	0.35930 0.73770 0.88610 0.04400
H 	H 	0.28060 0.76740 0.93160 0.02600
H 	H 	0.50040 0.64260 0.73740 0.04700
H 	H 	0.53710 0.61110 0.67310 0.02900
H 	H 	0.38790 0.66890 0.81070 0.04300
H 	H 	0.34380 0.69060 0.76360 0.02800
H 	H 	0.69930 0.57030 0.93670 0.03900
H 	H 	0.71890 0.63150 0.86190 0.02700
H 	H 	0.73770 0.35930 0.01690 0.04300
H 	H 	0.76740 0.28060 0.02040 0.02600
H 	H 	0.64260 0.50040 0.11960 0.04700
H 	H 	0.61110 0.53710 0.17870 0.02900
H 	H 	0.66890 0.38790 0.13250 0.04300
H 	H 	0.69060 0.34380 0.20200 0.02800
H 	H 	0.79370 0.93670 0.57030 0.03900
H 	H 	0.78770 0.86190 0.63150 0.02700
H 	H 	0.88610 0.01690 0.35930 0.04300
H 	H 	0.93160 0.02040 0.28060 0.02600
H 	H 	0.73740 0.11960 0.50040 0.04700
H 	H 	0.67310 0.17870 0.53710 0.02900
H 	H 	0.81070 0.13250 0.38790 0.04300
H 	H 	0.76360 0.20200 0.34380 0.02800
H 	H 	0.93670 0.79370 0.69930 0.03900
H 	H 	0.86190 0.78770 0.71890 0.02700
H 	H 	0.01690 0.88610 0.73770 0.04300
H 	H 	0.02040 0.93160 0.76740 0.02500
H 	H 	0.11960 0.73740 0.64260 0.04700
H 	H 	0.17870 0.67310 0.61110 0.02900
H 	H 	0.13250 0.81070 0.66890 0.04300
H 	H 	0.20200 0.76360 0.69060 0.02800
H 	H 	0.57030 0.79370 0.93670 0.03900
H 	H 	0.63150 0.78770 0.86190 0.02700
H 	H 	0.35930 0.88610 0.01690 0.04300
H 	H 	0.28060 0.93160 0.02040 0.02600
H 	H 	0.50040 0.73740 0.11960 0.04700
H 	H 	0.53710 0.67310 0.17870 0.02900
H 	H 	0.38790 0.81070 0.13250 0.04300
H 	H 	0.34380 0.76360 0.20200 0.02800
H 	H 	0.69930 0.93670 0.79370 0.03900
H 	H 	0.71890 0.86190 0.78770 0.02700
H 	H 	0.73770 0.01690 0.88610 0.04300
H 	H 	0.76740 0.02040 0.93160 0.02500
H 	H 	0.64260 0.11960 0.73740 0.04700
H 	H 	0.61110 0.17870 0.67310 0.02900
H 	H 	0.66890 0.13250 0.81070 0.04300
H 	H 	0.69060 0.20200 0.76360 0.02800
H 	H 	0.79370 0.57030 0.69930 0.03900
H 	H 	0.78770 0.63150 0.71890 0.02700
H 	H 	0.88610 0.35930 0.73770 0.04400
H 	H 	0.93160 0.28060 0.76740 0.02600
H 	H 	0.73740 0.50040 0.64260 0.04700
H 	H 	0.67310 0.53710 0.61110 0.02900
H 	H 	0.81070 0.38790 0.66890 0.04300
H 	H 	0.76360 0.34380 0.69060 0.02800
H 	H 	0.93670 0.69930 0.57030 0.03900
H 	H 	0.86190 0.71890 0.63150 0.02700
H 	H 	0.01690 0.73770 0.35930 0.04300
H 	H 	0.02040 0.76740 0.28060 0.02600
H 	H 	0.11960 0.64260 0.50040 0.04700
H 	H 	0.17870 0.61110 0.53710 0.02900
H 	H 	0.13250 0.66890 0.38790 0.04300
H 	H 	0.20200 0.69060 0.34380 0.02800
H 	H 	0.57030 0.93670 0.69930 0.03900
H 	H 	0.63150 0.86190 0.71890 0.02700
H 	H 	0.35930 0.01690 0.73770 0.04300
H 	H 	0.28060 0.02040 0.76740 0.02600
H 	H 	0.50040 0.11960 0.64260 0.04700
H 	H 	0.53710 0.17870 0.61110 0.02900
H 	H 	0.38790 0.13250 0.66890 0.04300
H 	H 	0.34380 0.20200 0.69060 0.02800
H 	H 	0.69930 0.79370 0.57030 0.03900
H 	H 	0.71890 0.78770 0.63150 0.02700
H 	H 	0.73770 0.88610 0.35930 0.04400
H 	H 	0.76740 0.93160 0.28060 0.02600
H 	H 	0.64260 0.73740 0.50040 0.04700
H 	H 	0.61110 0.67310 0.53710 0.02900
H 	H 	0.66890 0.81070 0.38790 0.04300
H 	H 	0.69060 0.76360 0.34380 0.02800
H 	H 	0.79370 0.69930 0.93670 0.03900
H 	H 	0.78770 0.71890 0.86190 0.02700
H 	H 	0.88610 0.73770 0.01690 0.04300
H 	H 	0.93160 0.76740 0.02040 0.02500
H 	H 	0.73740 0.64260 0.11960 0.04700
H 	H 	0.67310 0.61110 0.17870 0.02900
H 	H 	0.81070 0.66890 0.13250 0.04300
H 	H 	0.76360 0.69060 0.20200 0.02800
H 	H 	0.93670 0.57030 0.79370 0.03900
H 	H 	0.86190 0.63150 0.78770 0.02700
H 	H 	0.01690 0.35930 0.88610 0.04300
H 	H 	0.02040 0.28060 0.93160 0.02600
H 	H 	0.11960 0.50040 0.73740 0.04700
H 	H 	0.17870 0.53710 0.67310 0.02900
H 	H 	0.13250 0.38790 0.81070 0.04300
H 	H 	0.20200 0.34380 0.76360 0.02800
H 	H 	0.30070 0.42970 0.20630 0.03900
H 	H 	0.28110 0.36850 0.21230 0.02700
H 	H 	0.26230 0.64070 0.11390 0.04400
H 	H 	0.23260 0.71940 0.06840 0.02600
H 	H 	0.35740 0.49960 0.26260 0.04700
H 	H 	0.38890 0.46290 0.32690 0.02900
H 	H 	0.33110 0.61210 0.18930 0.04300
H 	H 	0.30940 0.65620 0.23640 0.02800
H 	H 	0.42970 0.30070 0.06330 0.03900
H 	H 	0.36850 0.28110 0.13810 0.02700
H 	H 	0.64070 0.26230 0.98310 0.04300
H 	H 	0.71940 0.23260 0.97960 0.02600
H 	H 	0.49960 0.35740 0.88040 0.04700
H 	H 	0.46290 0.38890 0.82130 0.02900
H 	H 	0.61210 0.33110 0.86750 0.04300
H 	H 	0.65620 0.30940 0.79800 0.02800
H 	H 	0.06330 0.20630 0.42970 0.03900
H 	H 	0.13810 0.21230 0.36850 0.02700
H 	H 	0.98310 0.11390 0.64070 0.04300
H 	H 	0.97960 0.06840 0.71940 0.02600
H 	H 	0.88040 0.26260 0.49960 0.04700
H 	H 	0.82130 0.32690 0.46290 0.02900
H 	H 	0.86750 0.18930 0.61210 0.04300
H 	H 	0.79800 0.23640 0.65620 0.02800
H 	H 	0.20630 0.06330 0.30070 0.03900
H 	H 	0.21230 0.13810 0.28110 0.02700
H 	H 	0.11390 0.98310 0.26230 0.04300
H 	H 	0.06840 0.97960 0.23260 0.02500
H 	H 	0.26260 0.88040 0.35740 0.04700
H 	H 	0.32690 0.82130 0.38890 0.02900
H 	H 	0.18930 0.86750 0.33110 0.04300
H 	H 	0.23640 0.79800 0.30940 0.02800
H 	H 	0.20630 0.42970 0.06330 0.03900
H 	H 	0.21230 0.36850 0.13810 0.02700
H 	H 	0.11390 0.64070 0.98310 0.04300
H 	H 	0.06840 0.71940 0.97960 0.02600
H 	H 	0.26260 0.49960 0.88040 0.04700
H 	H 	0.32690 0.46290 0.82130 0.02900
H 	H 	0.18930 0.61210 0.86750 0.04300
H 	H 	0.23640 0.65620 0.79800 0.02800
H 	H 	0.06330 0.30070 0.20630 0.03900
H 	H 	0.13810 0.28110 0.21230 0.02700
H 	H 	0.98310 0.26230 0.11390 0.04300
H 	H 	0.97960 0.23260 0.06840 0.02500
H 	H 	0.88040 0.35740 0.26260 0.04700
H 	H 	0.82130 0.38890 0.32690 0.02900
H 	H 	0.86750 0.33110 0.18930 0.04300
H 	H 	0.79800 0.30940 0.23640 0.02800
H 	H 	0.42970 0.20630 0.30070 0.03900
H 	H 	0.36850 0.21230 0.28110 0.02700
H 	H 	0.64070 0.11390 0.26230 0.04400
H 	H 	0.71940 0.06840 0.23260 0.02600
H 	H 	0.49960 0.26260 0.35740 0.04700
H 	H 	0.46290 0.32690 0.38890 0.02900
H 	H 	0.61210 0.18930 0.33110 0.04300
H 	H 	0.65620 0.23640 0.30940 0.02800
H 	H 	0.30070 0.06330 0.42970 0.03900
H 	H 	0.28110 0.13810 0.36850 0.02700
H 	H 	0.26230 0.98310 0.64070 0.04300
H 	H 	0.23260 0.97960 0.71940 0.02600
H 	H 	0.35740 0.88040 0.49960 0.04700
H 	H 	0.38890 0.82130 0.46290 0.02900
H 	H 	0.33110 0.86750 0.61210 0.04300
H 	H 	0.30940 0.79800 0.65620 0.02800
H 	H 	0.06330 0.42970 0.30070 0.03900
H 	H 	0.13810 0.36850 0.28110 0.02700
H 	H 	0.98310 0.64070 0.26230 0.04300
H 	H 	0.97960 0.71940 0.23260 0.02600
H 	H 	0.88040 0.49960 0.35740 0.04700
H 	H 	0.82130 0.46290 0.38890 0.02900
H 	H 	0.86750 0.61210 0.33110 0.04300
H 	H 	0.79800 0.65620 0.30940 0.02800
H 	H 	0.20630 0.30070 0.42970 0.03900
H 	H 	0.21230 0.28110 0.36850 0.02700
H 	H 	0.11390 0.26230 0.64070 0.04400
H 	H 	0.06840 0.23260 0.71940 0.02600
H 	H 	0.26260 0.35740 0.49960 0.04700
H 	H 	0.32690 0.38890 0.46290 0.02900
H 	H 	0.18930 0.33110 0.61210 0.04300
H 	H 	0.23640 0.30940 0.65620 0.02800
H 	H 	0.30070 0.20630 0.06330 0.03900
H 	H 	0.28110 0.21230 0.13810 0.02700
H 	H 	0.26230 0.11390 0.98310 0.04300
H 	H 	0.23260 0.06840 0.97960 0.02500
H 	H 	0.35740 0.26260 0.88040 0.04700
H 	H 	0.38890 0.32690 0.82130 0.02900
H 	H 	0.33110 0.18930 0.86750 0.04300
H 	H 	0.30940 0.23640 0.79800 0.02800
H 	H 	0.42970 0.06330 0.20630 0.03900
H 	H 	0.36850 0.13810 0.21230 0.02700
H 	H 	0.64070 0.98310 0.11390 0.04300
H 	H 	0.71940 0.97960 0.06840 0.02600
H 	H 	0.49960 0.88040 0.26260 0.04700
H 	H 	0.46290 0.82130 0.32690 0.02900
H 	H 	0.61210 0.86750 0.18930 0.04300
H 	H 	0.65620 0.79800 0.23640 0.02800
H 	H 	0.55390 0.34750 0.04930 -0.05600
H 	H 	0.34750 0.55390 0.04930 -0.05600
H 	H 	0.04930 0.04930 0.55390 -0.05600
H 	H 	0.04930 0.04930 0.34750 -0.05500
H 	H 	0.55390 0.04930 0.04930 -0.05600
H 	H 	0.34750 0.04930 0.04930 -0.05500
H 	H 	0.04930 0.55390 0.34750 -0.05600
H 	H 	0.04930 0.34750 0.55390 -0.05600
H 	H 	0.55390 0.04930 0.34750 -0.05600
H 	H 	0.34750 0.04930 0.55390 -0.05600
H 	H 	0.04930 0.34750 0.04930 -0.05500
H 	H 	0.04930 0.55390 0.04930 -0.05600
H 	H 	0.65250 0.44610 0.95070 -0.05600
H 	H 	0.44610 0.65250 0.95070 -0.05600
H 	H 	0.95070 0.95070 0.44610 -0.05600
H 	H 	0.95070 0.95070 0.65250 -0.05500
H 	H 	0.95070 0.44610 0.95070 -0.05600
H 	H 	0.95070 0.65250 0.95070 -0.05500
H 	H 	0.44610 0.95070 0.65250 -0.05600
H 	H 	0.65250 0.95070 0.44610 -0.05600
H 	H 	0.95070 0.44610 0.65250 -0.05600
H 	H 	0.95070 0.65250 0.44610 -0.05600
H 	H 	0.65250 0.95070 0.95070 -0.05500
H 	H 	0.44610 0.95070 0.95070 -0.05600
H 	H 	0.56090 0.43910 0.09170 -0.05400
H 	H 	0.43910 0.56090 0.90830 -0.05400
H 	H 	0.09170 0.90830 0.56090 -0.05400
H 	H 	0.90830 0.09170 0.43910 -0.05400
H 	H 	0.56090 0.09170 0.90830 -0.05400
H 	H 	0.43910 0.90830 0.09170 -0.05400
H 	H 	0.09170 0.56090 0.43910 -0.05400
H 	H 	0.90830 0.43910 0.56090 -0.05400
H 	H 	0.56090 0.90830 0.43910 -0.05400
H 	H 	0.43910 0.09170 0.56090 -0.05400
H 	H 	0.09170 0.43910 0.90830 -0.05400
H 	H 	0.90830 0.56090 0.09170 -0.05400
H 	H 	0.56090 0.43910 0.90830 -0.05400
H 	H 	0.43910 0.56090 0.09170 -0.05400
H 	H 	0.09170 0.90830 0.43910 -0.05400
H 	H 	0.90830 0.09170 0.56090 -0.05400
H 	H 	0.90830 0.43910 0.09170 -0.05400
H 	H 	0.09170 0.56090 0.90830 -0.05400
H 	H 	0.43910 0.90830 0.56090 -0.05400
H 	H 	0.56090 0.09170 0.43910 -0.05400
H 	H 	0.09170 0.43910 0.56090 -0.05400
H 	H 	0.90830 0.56090 0.43910 -0.05400
H 	H 	0.56090 0.90830 0.09170 -0.05400
H 	H 	0.43910 0.09170 0.90830 -0.05400
H 	H 	0.43540 0.43540 0.12960 -0.06100
H 	H 	0.43540 0.43540 0.99960 -0.06100
H 	H 	0.12960 0.99960 0.43540 -0.06100
H 	H 	0.99960 0.12960 0.43540 -0.06100
H 	H 	0.43540 0.12960 0.99960 -0.06100
H 	H 	0.43540 0.99960 0.12960 -0.06100
H 	H 	0.12960 0.43540 0.43540 -0.06100
H 	H 	0.99960 0.43540 0.43540 -0.06100
H 	H 	0.43540 0.99960 0.43540 -0.06100
H 	H 	0.43540 0.12960 0.43540 -0.06100
H 	H 	0.12960 0.43540 0.99960 -0.06100
H 	H 	0.99960 0.43540 0.12960 -0.06100
H 	H 	0.56460 0.56460 0.87040 -0.06100
H 	H 	0.56460 0.56460 0.00040 -0.06100
H 	H 	0.00040 0.87040 0.56460 -0.06100
H 	H 	0.87040 0.00040 0.56460 -0.06100
H 	H 	0.87040 0.56460 0.00040 -0.06100
H 	H 	0.00040 0.56460 0.87040 -0.06100
H 	H 	0.56460 0.87040 0.56460 -0.06100
H 	H 	0.56460 0.00040 0.56460 -0.06100
H 	H 	0.00040 0.56460 0.56460 -0.06100
H 	H 	0.87040 0.56460 0.56460 -0.06100
H 	H 	0.56460 0.87040 0.00040 -0.06100
H 	H 	0.56460 0.00040 0.87040 -0.06100
H 	H 	0.50640 0.24060 0.24060 -0.06300
H 	H 	0.24060 0.50640 0.01240 -0.06200
H 	H 	0.24060 0.01240 0.50640 -0.06200
H 	H 	0.01240 0.24060 0.24060 -0.06100
H 	H 	0.50640 0.24060 0.01240 -0.06200
H 	H 	0.24060 0.01240 0.24060 -0.06100
H 	H 	0.24060 0.50640 0.24060 -0.06300
H 	H 	0.01240 0.24060 0.50640 -0.06200
H 	H 	0.50640 0.01240 0.24060 -0.06200
H 	H 	0.24060 0.24060 0.50640 -0.06300
H 	H 	0.24060 0.24060 0.01240 -0.06100
H 	H 	0.01240 0.50640 0.24060 -0.06200
H 	H 	0.75940 0.49360 0.75940 -0.06300
H 	H 	0.49360 0.75940 0.98760 -0.06200
H 	H 	0.98760 0.75940 0.49360 -0.06200
H 	H 	0.75940 0.98760 0.75940 -0.06100
H 	H 	0.75940 0.49360 0.98760 -0.06200
H 	H 	0.98760 0.75940 0.75940 -0.06100
H 	H 	0.49360 0.75940 0.75940 -0.06300
H 	H 	0.75940 0.98760 0.49360 -0.06200
H 	H 	0.98760 0.49360 0.75940 -0.06200
H 	H 	0.75940 0.75940 0.49360 -0.06300
H 	H 	0.75940 0.75940 0.98760 -0.06100
H 	H 	0.49360 0.98760 0.75940 -0.06200
C 	C 	0.46390 0.31530 0.13230 0.04900
C 	C 	0.42900 0.30160 0.17740 -0.11300
C 	C 	0.39340 0.28960 0.18100 -0.01800
C 	C 	0.63520 0.33420 0.08760 0.05100
C 	C 	0.65920 0.28440 0.09160 -0.11300
C 	C 	0.70580 0.26640 0.06640 -0.01200
C 	C 	0.45340 0.41080 0.22380 0.04700
C 	C 	0.47150 0.38690 0.26230 -0.11600
C 	C 	0.44940 0.40500 0.30080 -0.02000
C 	C 	0.58070 0.27570 0.23370 0.04100
C 	C 	0.61080 0.30300 0.21900 -0.11000
C 	C 	0.63730 0.28990 0.24590 -0.01700
C 	C 	0.31530 0.46390 0.08850 0.04900
C 	C 	0.30160 0.42900 0.09200 -0.11300
C 	C 	0.28960 0.39340 0.13600 -0.01800
C 	C 	0.33420 0.63520 0.94300 0.05100
C 	C 	0.28440 0.65920 0.96480 -0.11300
C 	C 	0.26640 0.70580 0.96140 -0.01200
C 	C 	0.41080 0.45340 0.91200 0.04700
C 	C 	0.38690 0.47150 0.87930 -0.11600
C 	C 	0.40500 0.44940 0.84480 -0.02000
C 	C 	0.27570 0.58070 0.90990 0.04100
C 	C 	0.30300 0.61080 0.86720 -0.11000
C 	C 	0.28990 0.63730 0.82690 -0.01700
C 	C 	0.13230 0.08850 0.46390 0.04900
C 	C 	0.17740 0.09200 0.42900 -0.11300
C 	C 	0.18100 0.13600 0.39340 -0.01800
C 	C 	0.08760 0.94300 0.63520 0.05100
C 	C 	0.09160 0.96480 0.65920 -0.11300
C 	C 	0.06640 0.96140 0.70580 -0.01200
C 	C 	0.22380 0.91200 0.45340 0.04700
C 	C 	0.26230 0.87930 0.47150 -0.11600
C 	C 	0.30080 0.84480 0.44940 -0.02000
C 	C 	0.23370 0.90990 0.58070 0.04100
C 	C 	0.21900 0.86720 0.61080 -0.11000
C 	C 	0.24590 0.82690 0.63730 -0.01700
C 	C 	0.08850 0.13230 0.31530 0.04900
C 	C 	0.09200 0.17740 0.30160 -0.11300
C 	C 	0.13600 0.18100 0.28960 -0.01800
C 	C 	0.94300 0.08760 0.33420 0.05100
C 	C 	0.96480 0.09160 0.28440 -0.11400
C 	C 	0.96140 0.06640 0.26640 -0.01200
C 	C 	0.91200 0.22380 0.41080 0.04700
C 	C 	0.87930 0.26230 0.38690 -0.11600
C 	C 	0.84480 0.30080 0.40500 -0.02000
C 	C 	0.90990 0.23370 0.27570 0.04100
C 	C 	0.86720 0.21900 0.30300 -0.11000
C 	C 	0.82690 0.24590 0.28990 -0.01700
C 	C 	0.46390 0.13230 0.08850 0.04900
C 	C 	0.42900 0.17740 0.09200 -0.11300
C 	C 	0.39340 0.18100 0.13600 -0.01800
C 	C 	0.63520 0.08760 0.94300 0.05100
C 	C 	0.65920 0.09160 0.96480 -0.11300
C 	C 	0.70580 0.06640 0.96140 -0.01200
C 	C 	0.45340 0.22380 0.91200 0.04700
C 	C 	0.47150 0.26230 0.87930 -0.11600
C 	C 	0.44940 0.30080 0.84480 -0.02000
C 	C 	0.58070 0.23370 0.90990 0.04100
C 	C 	0.61080 0.21900 0.86720 -0.11000
C 	C 	0.63730 0.24590 0.82690 -0.01700
C 	C 	0.31530 0.08850 0.13230 0.04900
C 	C 	0.30160 0.09200 0.17740 -0.11300
C 	C 	0.28960 0.13600 0.18100 -0.01800
C 	C 	0.33420 0.94300 0.08760 0.05100
C 	C 	0.28440 0.96480 0.09160 -0.11400
C 	C 	0.26640 0.96140 0.06640 -0.01200
C 	C 	0.41080 0.91200 0.22380 0.04700
C 	C 	0.38690 0.87930 0.26230 -0.11600
C 	C 	0.40500 0.84480 0.30080 -0.02000
C 	C 	0.27570 0.90990 0.23370 0.04100
C 	C 	0.30300 0.86720 0.21900 -0.11000
C 	C 	0.28990 0.82690 0.24590 -0.01700
C 	C 	0.13230 0.46390 0.31530 0.04900
C 	C 	0.17740 0.42900 0.30160 -0.11300
C 	C 	0.18100 0.39340 0.28960 -0.01800
C 	C 	0.08760 0.63520 0.33420 0.05100
C 	C 	0.09160 0.65920 0.28440 -0.11300
C 	C 	0.06640 0.70580 0.26640 -0.01200
C 	C 	0.22380 0.45340 0.41080 0.04700
C 	C 	0.26230 0.47150 0.38690 -0.11600
C 	C 	0.30080 0.44940 0.40500 -0.02000
C 	C 	0.23370 0.58070 0.27570 0.04100
C 	C 	0.21900 0.61080 0.30300 -0.11000
C 	C 	0.24590 0.63730 0.28990 -0.01700
C 	C 	0.08850 0.31530 0.46390 0.04900
C 	C 	0.09200 0.30160 0.42900 -0.11300
C 	C 	0.13600 0.28960 0.39340 -0.01800
C 	C 	0.94300 0.33420 0.63520 0.05100
C 	C 	0.96480 0.28440 0.65920 -0.11300
C 	C 	0.96140 0.26640 0.70580 -0.01200
C 	C 	0.91200 0.41080 0.45340 0.04700
C 	C 	0.87930 0.38690 0.47150 -0.11600
C 	C 	0.84480 0.40500 0.44940 -0.02000
C 	C 	0.90990 0.27570 0.58070 0.04100
C 	C 	0.86720 0.30300 0.61080 -0.11000
C 	C 	0.82690 0.28990 0.63730 -0.01700
C 	C 	0.46390 0.08850 0.31530 0.04900
C 	C 	0.42900 0.09200 0.30160 -0.11300
C 	C 	0.39340 0.13600 0.28960 -0.01800
C 	C 	0.63520 0.94300 0.33420 0.05100
C 	C 	0.65920 0.96480 0.28440 -0.11300
C 	C 	0.70580 0.96140 0.26640 -0.01200
C 	C 	0.45340 0.91200 0.41080 0.04700
C 	C 	0.47150 0.87930 0.38690 -0.11600
C 	C 	0.44940 0.84480 0.40500 -0.02000
C 	C 	0.58070 0.90990 0.27570 0.04100
C 	C 	0.61080 0.86720 0.30300 -0.11000
C 	C 	0.63730 0.82690 0.28990 -0.01700
C 	C 	0.31530 0.13230 0.46390 0.04900
C 	C 	0.30160 0.17740 0.42900 -0.11300
C 	C 	0.28960 0.18100 0.39340 -0.01800
C 	C 	0.33420 0.08760 0.63520 0.05100
C 	C 	0.28440 0.09160 0.65920 -0.11300
C 	C 	0.26640 0.06640 0.70580 -0.01200
C 	C 	0.41080 0.22380 0.45340 0.04700
C 	C 	0.38690 0.26230 0.47150 -0.11600
C 	C 	0.40500 0.30080 0.44940 -0.02000
C 	C 	0.27570 0.23370 0.58070 0.04100
C 	C 	0.30300 0.21900 0.61080 -0.11000
C 	C 	0.28990 0.24590 0.63730 -0.01700
C 	C 	0.13230 0.31530 0.08850 0.04900
C 	C 	0.17740 0.30160 0.09200 -0.11300
C 	C 	0.18100 0.28960 0.13600 -0.01800
C 	C 	0.08760 0.33420 0.94300 0.05100
C 	C 	0.09160 0.28440 0.96480 -0.11400
C 	C 	0.06640 0.26640 0.96140 -0.01200
C 	C 	0.22380 0.41080 0.91200 0.04700
C 	C 	0.26230 0.38690 0.87930 -0.11600
C 	C 	0.30080 0.40500 0.84480 -0.02000
C 	C 	0.23370 0.27570 0.90990 0.04100
C 	C 	0.21900 0.30300 0.86720 -0.11000
C 	C 	0.24590 0.28990 0.82690 -0.01700
C 	C 	0.08850 0.46390 0.13230 0.04900
C 	C 	0.09200 0.42900 0.17740 -0.11300
C 	C 	0.13600 0.39340 0.18100 -0.01800
C 	C 	0.94300 0.63520 0.08760 0.05100
C 	C 	0.96480 0.65920 0.09160 -0.11300
C 	C 	0.96140 0.70580 0.06640 -0.01200
C 	C 	0.91200 0.45340 0.22380 0.04700
C 	C 	0.87930 0.47150 0.26230 -0.11600
C 	C 	0.84480 0.44940 0.30080 -0.02000
C 	C 	0.90990 0.58070 0.23370 0.04100
C 	C 	0.86720 0.61080 0.21900 -0.11000
C 	C 	0.82690 0.63730 0.24590 -0.01700
C 	C 	0.68470 0.53610 0.86770 0.04900
C 	C 	0.69840 0.57100 0.82260 -0.11300
C 	C 	0.71040 0.60660 0.81900 -0.01800
C 	C 	0.66580 0.36480 0.91240 0.05100
C 	C 	0.71560 0.34080 0.90840 -0.11300
C 	C 	0.73360 0.29420 0.93360 -0.01200
C 	C 	0.58920 0.54660 0.77620 0.04700
C 	C 	0.61310 0.52850 0.73770 -0.11600
C 	C 	0.59500 0.55060 0.69920 -0.02000
C 	C 	0.72430 0.41930 0.76630 0.04100
C 	C 	0.69700 0.38920 0.78100 -0.11000
C 	C 	0.71010 0.36270 0.75410 -0.01700
C 	C 	0.53610 0.68470 0.91150 0.04900
C 	C 	0.57100 0.69840 0.90800 -0.11300
C 	C 	0.60660 0.71040 0.86400 -0.01800
C 	C 	0.36480 0.66580 0.05700 0.05100
C 	C 	0.34080 0.71560 0.03520 -0.11300
C 	C 	0.29420 0.73360 0.03860 -0.01200
C 	C 	0.54660 0.58920 0.08800 0.04700
C 	C 	0.52850 0.61310 0.12070 -0.11600
C 	C 	0.55060 0.59500 0.15520 -0.02000
C 	C 	0.41930 0.72430 0.09010 0.04100
C 	C 	0.38920 0.69700 0.13280 -0.11000
C 	C 	0.36270 0.71010 0.17310 -0.01700
C 	C 	0.91150 0.86770 0.53610 0.04900
C 	C 	0.90800 0.82260 0.57100 -0.11300
C 	C 	0.86400 0.81900 0.60660 -0.01800
C 	C 	0.05700 0.91240 0.36480 0.05100
C 	C 	0.03520 0.90840 0.34080 -0.11300
C 	C 	0.03860 0.93360 0.29420 -0.01200
C 	C 	0.08800 0.77620 0.54660 0.04700
C 	C 	0.12070 0.73770 0.52850 -0.11600
C 	C 	0.15520 0.69920 0.55060 -0.02000
C 	C 	0.09010 0.76630 0.41930 0.04100
C 	C 	0.13280 0.78100 0.38920 -0.11000
C 	C 	0.17310 0.75410 0.36270 -0.01700
C 	C 	0.86770 0.91150 0.68470 0.04900
C 	C 	0.82260 0.90800 0.69840 -0.11300
C 	C 	0.81900 0.86400 0.71040 -0.01800
C 	C 	0.91240 0.05700 0.66580 0.05100
C 	C 	0.90840 0.03520 0.71560 -0.11400
C 	C 	0.93360 0.03860 0.73360 -0.01200
C 	C 	0.77620 0.08800 0.58920 0.04700
C 	C 	0.73770 0.12070 0.61310 -0.11600
C 	C 	0.69920 0.15520 0.59500 -0.02000
C 	C 	0.76630 0.09010 0.72430 0.04100
C 	C 	0.78100 0.13280 0.69700 -0.11000
C 	C 	0.75410 0.17310 0.71010 -0.01700
C 	C 	0.86770 0.53610 0.91150 0.04900
C 	C 	0.82260 0.57100 0.90800 -0.11300
C 	C 	0.81900 0.60660 0.86400 -0.01800
C 	C 	0.91240 0.36480 0.05700 0.05100
C 	C 	0.90840 0.34080 0.03520 -0.11300
C 	C 	0.93360 0.29420 0.03860 -0.01200
C 	C 	0.77620 0.54660 0.08800 0.04700
C 	C 	0.73770 0.52850 0.12070 -0.11600
C 	C 	0.69920 0.55060 0.15520 -0.02000
C 	C 	0.76630 0.41930 0.09010 0.04100
C 	C 	0.78100 0.38920 0.13280 -0.11000
C 	C 	0.75410 0.36270 0.17310 -0.01700
C 	C 	0.91150 0.68470 0.86770 0.04900
C 	C 	0.90800 0.69840 0.82260 -0.11300
C 	C 	0.86400 0.71040 0.81900 -0.01800
C 	C 	0.05700 0.66580 0.91240 0.05100
C 	C 	0.03520 0.71560 0.90840 -0.11400
C 	C 	0.03860 0.73360 0.93360 -0.01200
C 	C 	0.08800 0.58920 0.77620 0.04700
C 	C 	0.12070 0.61310 0.73770 -0.11600
C 	C 	0.15520 0.59500 0.69920 -0.02000
C 	C 	0.09010 0.72430 0.76630 0.04100
C 	C 	0.13280 0.69700 0.78100 -0.11000
C 	C 	0.17310 0.71010 0.75410 -0.01700
C 	C 	0.53610 0.86770 0.68470 0.04900
C 	C 	0.57100 0.82260 0.69840 -0.11300
C 	C 	0.60660 0.81900 0.71040 -0.01800
C 	C 	0.36480 0.91240 0.66580 0.05100
C 	C 	0.34080 0.90840 0.71560 -0.11300
C 	C 	0.29420 0.93360 0.73360 -0.01200
C 	C 	0.54660 0.77620 0.58920 0.04700
C 	C 	0.52850 0.73770 0.61310 -0.11600
C 	C 	0.55060 0.69920 0.59500 -0.02000
C 	C 	0.41930 0.76630 0.72430 0.04100
C 	C 	0.38920 0.78100 0.69700 -0.11000
C 	C 	0.36270 0.75410 0.71010 -0.01700
C 	C 	0.68470 0.91150 0.53610 0.04900
C 	C 	0.69840 0.90800 0.57100 -0.11300
C 	C 	0.71040 0.86400 0.60660 -0.01800
C 	C 	0.66580 0.05700 0.36480 0.05100
C 	C 	0.71560 0.03520 0.34080 -0.11300
C 	C 	0.73360 0.03860 0.29420 -0.01200
C 	C 	0.58920 0.08800 0.54660 0.04700
C 	C 	0.61310 0.12070 0.52850 -0.11600
C 	C 	0.59500 0.15520 0.55060 -0.02000
C 	C 	0.72430 0.09010 0.41930 0.04100
C 	C 	0.69700 0.13280 0.38920 -0.11000
C 	C 	0.71010 0.17310 0.36270 -0.01700
C 	C 	0.91150 0.53610 0.68470 0.04900
C 	C 	0.90800 0.57100 0.69840 -0.11300
C 	C 	0.86400 0.60660 0.71040 -0.01800
C 	C 	0.05700 0.36480 0.66580 0.05100
C 	C 	0.03520 0.34080 0.71560 -0.11300
C 	C 	0.03860 0.29420 0.73360 -0.01200
C 	C 	0.08800 0.54660 0.58920 0.04700
C 	C 	0.12070 0.52850 0.61310 -0.11600
C 	C 	0.15520 0.55060 0.59500 -0.02000
C 	C 	0.09010 0.41930 0.72430 0.04100
C 	C 	0.13280 0.38920 0.69700 -0.11000
C 	C 	0.17310 0.36270 0.71010 -0.01700
C 	C 	0.86770 0.68470 0.53610 0.04900
C 	C 	0.82260 0.69840 0.57100 -0.11300
C 	C 	0.81900 0.71040 0.60660 -0.01800
C 	C 	0.91240 0.66580 0.36480 0.05100
C 	C 	0.90840 0.71560 0.34080 -0.11300
C 	C 	0.93360 0.73360 0.29420 -0.01200
C 	C 	0.77620 0.58920 0.54660 0.04700
C 	C 	0.73770 0.61310 0.52850 -0.11600
C 	C 	0.69920 0.59500 0.55060 -0.02000
C 	C 	0.76630 0.72430 0.41930 0.04100
C 	C 	0.78100 0.69700 0.38920 -0.11000
C 	C 	0.75410 0.71010 0.36270 -0.01700
C 	C 	0.68470 0.86770 0.91150 0.04900
C 	C 	0.69840 0.82260 0.90800 -0.11300
C 	C 	0.71040 0.81900 0.86400 -0.01800
C 	C 	0.66580 0.91240 0.05700 0.05100
C 	C 	0.71560 0.90840 0.03520 -0.11400
C 	C 	0.73360 0.93360 0.03860 -0.01200
C 	C 	0.58920 0.77620 0.08800 0.04700
C 	C 	0.61310 0.73770 0.12070 -0.11600
C 	C 	0.59500 0.69920 0.15520 -0.02000
C 	C 	0.72430 0.76630 0.09010 0.04100
C 	C 	0.69700 0.78100 0.13280 -0.11000
C 	C 	0.71010 0.75410 0.17310 -0.01700
C 	C 	0.53610 0.91150 0.86770 0.04900
C 	C 	0.57100 0.90800 0.82260 -0.11300
C 	C 	0.60660 0.86400 0.81900 -0.01800
C 	C 	0.36480 0.05700 0.91240 0.05100
C 	C 	0.34080 0.03520 0.90840 -0.11300
C 	C 	0.29420 0.03860 0.93360 -0.01200
C 	C 	0.54660 0.08800 0.77620 0.04700
C 	C 	0.52850 0.12070 0.73770 -0.11600
C 	C 	0.55060 0.15520 0.69920 -0.02000
C 	C 	0.41930 0.09010 0.76630 0.04100
C 	C 	0.38920 0.13280 0.78100 -0.11000
C 	C 	0.36270 0.17310 0.75410 -0.01700
C 	C 	0.53610 0.68470 0.86770 0.04900
C 	C 	0.57100 0.69840 0.82260 -0.11300
C 	C 	0.60660 0.71040 0.81900 -0.01800
C 	C 	0.36480 0.66580 0.91240 0.05100
C 	C 	0.34080 0.71560 0.90840 -0.11300
C 	C 	0.29420 0.73360 0.93360 -0.01200
C 	C 	0.54660 0.58920 0.77620 0.04700
C 	C 	0.52850 0.61310 0.73770 -0.11600
C 	C 	0.55060 0.59500 0.69920 -0.02000
C 	C 	0.41930 0.72430 0.76630 0.04100
C 	C 	0.38920 0.69700 0.78100 -0.11000
C 	C 	0.36270 0.71010 0.75410 -0.01700
C 	C 	0.68470 0.53610 0.91150 0.04900
C 	C 	0.69840 0.57100 0.90800 -0.11300
C 	C 	0.71040 0.60660 0.86400 -0.01800
C 	C 	0.66580 0.36480 0.05700 0.05100
C 	C 	0.71560 0.34080 0.03520 -0.11300
C 	C 	0.73360 0.29420 0.03860 -0.01200
C 	C 	0.58920 0.54660 0.08800 0.04700
C 	C 	0.61310 0.52850 0.12070 -0.11600
C 	C 	0.59500 0.55060 0.15520 -0.02000
C 	C 	0.72430 0.41930 0.09010 0.04100
C 	C 	0.69700 0.38920 0.13280 -0.11000
C 	C 	0.71010 0.36270 0.17310 -0.01700
C 	C 	0.86770 0.91150 0.53610 0.04900
C 	C 	0.82260 0.90800 0.57100 -0.11300
C 	C 	0.81900 0.86400 0.60660 -0.01800
C 	C 	0.91240 0.05700 0.36480 0.05100
C 	C 	0.90840 0.03520 0.34080 -0.11300
C 	C 	0.93360 0.03860 0.29420 -0.01200
C 	C 	0.77620 0.08800 0.54660 0.04700
C 	C 	0.73770 0.12070 0.52850 -0.11600
C 	C 	0.69920 0.15520 0.55060 -0.02000
C 	C 	0.76630 0.09010 0.41930 0.04100
C 	C 	0.78100 0.13280 0.38920 -0.11000
C 	C 	0.75410 0.17310 0.36270 -0.01700
C 	C 	0.91150 0.86770 0.68470 0.04900
C 	C 	0.90800 0.82260 0.69840 -0.11300
C 	C 	0.86400 0.81900 0.71040 -0.01800
C 	C 	0.05700 0.91240 0.66580 0.05100
C 	C 	0.03520 0.90840 0.71560 -0.11400
C 	C 	0.03860 0.93360 0.73360 -0.01200
C 	C 	0.08800 0.77620 0.58920 0.04700
C 	C 	0.12070 0.73770 0.61310 -0.11600
C 	C 	0.15520 0.69920 0.59500 -0.02000
C 	C 	0.09010 0.76630 0.72430 0.04100
C 	C 	0.13280 0.78100 0.69700 -0.11000
C 	C 	0.17310 0.75410 0.71010 -0.01700
C 	C 	0.53610 0.86770 0.91150 0.04900
C 	C 	0.57100 0.82260 0.90800 -0.11300
C 	C 	0.60660 0.81900 0.86400 -0.01800
C 	C 	0.36480 0.91240 0.05700 0.05100
C 	C 	0.34080 0.90840 0.03520 -0.11300
C 	C 	0.29420 0.93360 0.03860 -0.01200
C 	C 	0.54660 0.77620 0.08800 0.04700
C 	C 	0.52850 0.73770 0.12070 -0.11600
C 	C 	0.55060 0.69920 0.15520 -0.02000
C 	C 	0.41930 0.76630 0.09010 0.04100
C 	C 	0.38920 0.78100 0.13280 -0.11000
C 	C 	0.36270 0.75410 0.17310 -0.01700
C 	C 	0.68470 0.91150 0.86770 0.04900
C 	C 	0.69840 0.90800 0.82260 -0.11300
C 	C 	0.71040 0.86400 0.81900 -0.01800
C 	C 	0.66580 0.05700 0.91240 0.05100
C 	C 	0.71560 0.03520 0.90840 -0.11400
C 	C 	0.73360 0.03860 0.93360 -0.01200
C 	C 	0.58920 0.08800 0.77620 0.04700
C 	C 	0.61310 0.12070 0.73770 -0.11600
C 	C 	0.59500 0.15520 0.69920 -0.02000
C 	C 	0.72430 0.09010 0.76630 0.04100
C 	C 	0.69700 0.13280 0.78100 -0.11000
C 	C 	0.71010 0.17310 0.75410 -0.01700
C 	C 	0.86770 0.53610 0.68470 0.04900
C 	C 	0.82260 0.57100 0.69840 -0.11300
C 	C 	0.81900 0.60660 0.71040 -0.01800
C 	C 	0.91240 0.36480 0.66580 0.05100
C 	C 	0.90840 0.34080 0.71560 -0.11300
C 	C 	0.93360 0.29420 0.73360 -0.01200
C 	C 	0.77620 0.54660 0.58920 0.04700
C 	C 	0.73770 0.52850 0.61310 -0.11600
C 	C 	0.69920 0.55060 0.59500 -0.02000
C 	C 	0.76630 0.41930 0.72430 0.04100
C 	C 	0.78100 0.38920 0.69700 -0.11000
C 	C 	0.75410 0.36270 0.71010 -0.01700
C 	C 	0.91150 0.68470 0.53610 0.04900
C 	C 	0.90800 0.69840 0.57100 -0.11300
C 	C 	0.86400 0.71040 0.60660 -0.01800
C 	C 	0.05700 0.66580 0.36480 0.05100
C 	C 	0.03520 0.71560 0.34080 -0.11300
C 	C 	0.03860 0.73360 0.29420 -0.01200
C 	C 	0.08800 0.58920 0.54660 0.04700
C 	C 	0.12070 0.61310 0.52850 -0.11600
C 	C 	0.15520 0.59500 0.55060 -0.02000
C 	C 	0.09010 0.72430 0.41930 0.04100
C 	C 	0.13280 0.69700 0.38920 -0.11000
C 	C 	0.17310 0.71010 0.36270 -0.01700
C 	C 	0.53610 0.91150 0.68470 0.04900
C 	C 	0.57100 0.90800 0.69840 -0.11300
C 	C 	0.60660 0.86400 0.71040 -0.01800
C 	C 	0.36480 0.05700 0.66580 0.05100
C 	C 	0.34080 0.03520 0.71560 -0.11300
C 	C 	0.29420 0.03860 0.73360 -0.01200
C 	C 	0.54660 0.08800 0.58920 0.04700
C 	C 	0.52850 0.12070 0.61310 -0.11600
C 	C 	0.55060 0.15520 0.59500 -0.02000
C 	C 	0.41930 0.09010 0.72430 0.04100
C 	C 	0.38920 0.13280 0.69700 -0.11000
C 	C 	0.36270 0.17310 0.71010 -0.01700
C 	C 	0.68470 0.86770 0.53610 0.04900
C 	C 	0.69840 0.82260 0.57100 -0.11300
C 	C 	0.71040 0.81900 0.60660 -0.01800
C 	C 	0.66580 0.91240 0.36480 0.05100
C 	C 	0.71560 0.90840 0.34080 -0.11300
C 	C 	0.73360 0.93360 0.29420 -0.01200
C 	C 	0.58920 0.77620 0.54660 0.04700
C 	C 	0.61310 0.73770 0.52850 -0.11600
C 	C 	0.59500 0.69920 0.55060 -0.02000
C 	C 	0.72430 0.76630 0.41930 0.04100
C 	C 	0.69700 0.78100 0.38920 -0.11000
C 	C 	0.71010 0.75410 0.36270 -0.01700
C 	C 	0.86770 0.68470 0.91150 0.04900
C 	C 	0.82260 0.69840 0.90800 -0.11300
C 	C 	0.81900 0.71040 0.86400 -0.01800
C 	C 	0.91240 0.66580 0.05700 0.05100
C 	C 	0.90840 0.71560 0.03520 -0.11400
C 	C 	0.93360 0.73360 0.03860 -0.01200
C 	C 	0.77620 0.58920 0.08800 0.04700
C 	C 	0.73770 0.61310 0.12070 -0.11600
C 	C 	0.69920 0.59500 0.15520 -0.02000
C 	C 	0.76630 0.72430 0.09010 0.04100
C 	C 	0.78100 0.69700 0.13280 -0.11000
C 	C 	0.75410 0.71010 0.17310 -0.01700
C 	C 	0.91150 0.53610 0.86770 0.04900
C 	C 	0.90800 0.57100 0.82260 -0.11300
C 	C 	0.86400 0.60660 0.81900 -0.01800
C 	C 	0.05700 0.36480 0.91240 0.05100
C 	C 	0.03520 0.34080 0.90840 -0.11300
C 	C 	0.03860 0.29420 0.93360 -0.01200
C 	C 	0.08800 0.54660 0.77620 0.04700
C 	C 	0.12070 0.52850 0.73770 -0.11600
C 	C 	0.15520 0.55060 0.69920 -0.02000
C 	C 	0.09010 0.41930 0.76630 0.04100
C 	C 	0.13280 0.38920 0.78100 -0.11000
C 	C 	0.17310 0.36270 0.75410 -0.01700
C 	C 	0.31530 0.46390 0.13230 0.04900
C 	C 	0.30160 0.42900 0.17740 -0.11300
C 	C 	0.28960 0.39340 0.18100 -0.01800
C 	C 	0.33420 0.63520 0.08760 0.05100
C 	C 	0.28440 0.65920 0.09160 -0.11300
C 	C 	0.26640 0.70580 0.06640 -0.01200
C 	C 	0.41080 0.45340 0.22380 0.04700
C 	C 	0.38690 0.47150 0.26230 -0.11600
C 	C 	0.40500 0.44940 0.30080 -0.02000
C 	C 	0.27570 0.58070 0.23370 0.04100
C 	C 	0.30300 0.61080 0.21900 -0.11000
C 	C 	0.28990 0.63730 0.24590 -0.01700
C 	C 	0.46390 0.31530 0.08850 0.04900
C 	C 	0.42900 0.30160 0.09200 -0.11300
C 	C 	0.39340 0.28960 0.13600 -0.01800
C 	C 	0.63520 0.33420 0.94300 0.05100
C 	C 	0.65920 0.28440 0.96480 -0.11300
C 	C 	0.70580 0.26640 0.96140 -0.01200
C 	C 	0.45340 0.41080 0.91200 0.04700
C 	C 	0.47150 0.38690 0.87930 -0.11600
C 	C 	0.44940 0.40500 0.84480 -0.02000
C 	C 	0.58070 0.27570 0.90990 0.04100
C 	C 	0.61080 0.30300 0.86720 -0.11000
C 	C 	0.63730 0.28990 0.82690 -0.01700
C 	C 	0.08850 0.13230 0.46390 0.04900
C 	C 	0.09200 0.17740 0.42900 -0.11300
C 	C 	0.13600 0.18100 0.39340 -0.01800
C 	C 	0.94300 0.08760 0.63520 0.05100
C 	C 	0.96480 0.09160 0.65920 -0.11300
C 	C 	0.96140 0.06640 0.70580 -0.01200
C 	C 	0.91200 0.22380 0.45340 0.04700
C 	C 	0.87930 0.26230 0.47150 -0.11600
C 	C 	0.84480 0.30080 0.44940 -0.02000
C 	C 	0.90990 0.23370 0.58070 0.04100
C 	C 	0.86720 0.21900 0.61080 -0.11000
C 	C 	0.82690 0.24590 0.63730 -0.01700
C 	C 	0.13230 0.08850 0.31530 0.04900
C 	C 	0.17740 0.09200 0.30160 -0.11300
C 	C 	0.18100 0.13600 0.28960 -0.01800
C 	C 	0.08760 0.94300 0.33420 0.05100
C 	C 	0.09160 0.96480 0.28440 -0.11400
C 	C 	0.06640 0.96140 0.26640 -0.01200
C 	C 	0.22380 0.91200 0.41080 0.04700
C 	C 	0.26230 0.87930 0.38690 -0.11600
C 	C 	0.30080 0.84480 0.40500 -0.02000
C 	C 	0.23370 0.90990 0.27570 0.04100
C 	C 	0.21900 0.86720 0.30300 -0.11000
C 	C 	0.24590 0.82690 0.28990 -0.01700
C 	C 	0.13230 0.46390 0.08850 0.04900
C 	C 	0.17740 0.42900 0.09200 -0.11300
C 	C 	0.18100 0.39340 0.13600 -0.01800
C 	C 	0.08760 0.63520 0.94300 0.05100
C 	C 	0.09160 0.65920 0.96480 -0.11300
C 	C 	0.06640 0.70580 0.96140 -0.01200
C 	C 	0.22380 0.45340 0.91200 0.04700
C 	C 	0.26230 0.47150 0.87930 -0.11600
C 	C 	0.30080 0.44940 0.84480 -0.02000
C 	C 	0.23370 0.58070 0.90990 0.04100
C 	C 	0.21900 0.61080 0.86720 -0.11000
C 	C 	0.24590 0.63730 0.82690 -0.01700
C 	C 	0.08850 0.31530 0.13230 0.04900
C 	C 	0.09200 0.30160 0.17740 -0.11300
C 	C 	0.13600 0.28960 0.18100 -0.01800
C 	C 	0.94300 0.33420 0.08760 0.05100
C 	C 	0.96480 0.28440 0.09160 -0.11400
C 	C 	0.96140 0.26640 0.06640 -0.01200
C 	C 	0.91200 0.41080 0.22380 0.04700
C 	C 	0.87930 0.38690 0.26230 -0.11600
C 	C 	0.84480 0.40500 0.30080 -0.02000
C 	C 	0.90990 0.27570 0.23370 0.04100
C 	C 	0.86720 0.30300 0.21900 -0.11000
C 	C 	0.82690 0.28990 0.24590 -0.01700
C 	C 	0.46390 0.13230 0.31530 0.04900
C 	C 	0.42900 0.17740 0.30160 -0.11300
C 	C 	0.39340 0.18100 0.28960 -0.01800
C 	C 	0.63520 0.08760 0.33420 0.05100
C 	C 	0.65920 0.09160 0.28440 -0.11300
C 	C 	0.70580 0.06640 0.26640 -0.01200
C 	C 	0.45340 0.22380 0.41080 0.04700
C 	C 	0.47150 0.26230 0.38690 -0.11600
C 	C 	0.44940 0.30080 0.40500 -0.02000
C 	C 	0.58070 0.23370 0.27570 0.04100
C 	C 	0.61080 0.21900 0.30300 -0.11000
C 	C 	0.63730 0.24590 0.28990 -0.01700
C 	C 	0.31530 0.08850 0.46390 0.04900
C 	C 	0.30160 0.09200 0.42900 -0.11300
C 	C 	0.28960 0.13600 0.39340 -0.01800
C 	C 	0.33420 0.94300 0.63520 0.05100
C 	C 	0.28440 0.96480 0.65920 -0.11300
C 	C 	0.26640 0.96140 0.70580 -0.01200
C 	C 	0.41080 0.91200 0.45340 0.04700
C 	C 	0.38690 0.87930 0.47150 -0.11600
C 	C 	0.40500 0.84480 0.44940 -0.02000
C 	C 	0.27570 0.90990 0.58070 0.04100
C 	C 	0.30300 0.86720 0.61080 -0.11000
C 	C 	0.28990 0.82690 0.63730 -0.01700
C 	C 	0.08850 0.46390 0.31530 0.04900
C 	C 	0.09200 0.42900 0.30160 -0.11300
C 	C 	0.13600 0.39340 0.28960 -0.01800
C 	C 	0.94300 0.63520 0.33420 0.05100
C 	C 	0.96480 0.65920 0.28440 -0.11300
C 	C 	0.96140 0.70580 0.26640 -0.01200
C 	C 	0.91200 0.45340 0.41080 0.04700
C 	C 	0.87930 0.47150 0.38690 -0.11600
C 	C 	0.84480 0.44940 0.40500 -0.02000
C 	C 	0.90990 0.58070 0.27570 0.04100
C 	C 	0.86720 0.61080 0.30300 -0.11000
C 	C 	0.82690 0.63730 0.28990 -0.01700
C 	C 	0.13230 0.31530 0.46390 0.04900
C 	C 	0.17740 0.30160 0.42900 -0.11300
C 	C 	0.18100 0.28960 0.39340 -0.01800
C 	C 	0.08760 0.33420 0.63520 0.05100
C 	C 	0.09160 0.28440 0.65920 -0.11300
C 	C 	0.06640 0.26640 0.70580 -0.01200
C 	C 	0.22380 0.41080 0.45340 0.04700
C 	C 	0.26230 0.38690 0.47150 -0.11600
C 	C 	0.30080 0.40500 0.44940 -0.02000
C 	C 	0.23370 0.27570 0.58070 0.04100
C 	C 	0.21900 0.30300 0.61080 -0.11000
C 	C 	0.24590 0.28990 0.63730 -0.01700
C 	C 	0.31530 0.13230 0.08850 0.04900
C 	C 	0.30160 0.17740 0.09200 -0.11300
C 	C 	0.28960 0.18100 0.13600 -0.01800
C 	C 	0.33420 0.08760 0.94300 0.05100
C 	C 	0.28440 0.09160 0.96480 -0.11400
C 	C 	0.26640 0.06640 0.96140 -0.01200
C 	C 	0.41080 0.22380 0.91200 0.04700
C 	C 	0.38690 0.26230 0.87930 -0.11600
C 	C 	0.40500 0.30080 0.84480 -0.02000
C 	C 	0.27570 0.23370 0.90990 0.04100
C 	C 	0.30300 0.21900 0.86720 -0.11000
C 	C 	0.28990 0.24590 0.82690 -0.01700
C 	C 	0.46390 0.08850 0.13230 0.04900
C 	C 	0.42900 0.09200 0.17740 -0.11300
C 	C 	0.39340 0.13600 0.18100 -0.01800
C 	C 	0.63520 0.94300 0.08760 0.05100
C 	C 	0.65920 0.96480 0.09160 -0.11300
C 	C 	0.70580 0.96140 0.06640 -0.01200
C 	C 	0.45340 0.91200 0.22380 0.04700
C 	C 	0.47150 0.87930 0.26230 -0.11600
C 	C 	0.44940 0.84480 0.30080 -0.02000
C 	C 	0.58070 0.90990 0.23370 0.04100
C 	C 	0.61080 0.86720 0.21900 -0.11000
C 	C 	0.63730 0.82690 0.24590 -0.01700
C 	C 	0.52530 0.33730 0.06870 0.09800
C 	C 	0.33730 0.52530 0.06870 0.09800
C 	C 	0.06870 0.06870 0.52530 0.09800
C 	C 	0.06870 0.06870 0.33730 0.09800
C 	C 	0.52530 0.06870 0.06870 0.09800
C 	C 	0.33730 0.06870 0.06870 0.09800
C 	C 	0.06870 0.52530 0.33730 0.09800
C 	C 	0.06870 0.33730 0.52530 0.09800
C 	C 	0.52530 0.06870 0.33730 0.09800
C 	C 	0.33730 0.06870 0.52530 0.09800
C 	C 	0.06870 0.33730 0.06870 0.09800
C 	C 	0.06870 0.52530 0.06870 0.09800
C 	C 	0.66270 0.47470 0.93130 0.09800
C 	C 	0.47470 0.66270 0.93130 0.09800
C 	C 	0.93130 0.93130 0.47470 0.09800
C 	C 	0.93130 0.93130 0.66270 0.09800
C 	C 	0.93130 0.47470 0.93130 0.09800
C 	C 	0.93130 0.66270 0.93130 0.09800
C 	C 	0.47470 0.93130 0.66270 0.09800
C 	C 	0.66270 0.93130 0.47470 0.09800
C 	C 	0.93130 0.47470 0.66270 0.09800
C 	C 	0.93130 0.66270 0.47470 0.09800
C 	C 	0.66270 0.93130 0.93130 0.09800
C 	C 	0.47470 0.93130 0.93130 0.09800
C 	C 	0.58920 0.41080 0.08580 0.07700
C 	C 	0.41080 0.58920 0.91420 0.07700
C 	C 	0.08580 0.91420 0.58920 0.07600
C 	C 	0.91420 0.08580 0.41080 0.07600
C 	C 	0.58920 0.08580 0.91420 0.07600
C 	C 	0.41080 0.91420 0.08580 0.07600
C 	C 	0.08580 0.58920 0.41080 0.07700
C 	C 	0.91420 0.41080 0.58920 0.07700
C 	C 	0.58920 0.91420 0.41080 0.07700
C 	C 	0.41080 0.08580 0.58920 0.07700
C 	C 	0.08580 0.41080 0.91420 0.07600
C 	C 	0.91420 0.58920 0.08580 0.07600
C 	C 	0.58920 0.41080 0.91420 0.07700
C 	C 	0.41080 0.58920 0.08580 0.07700
C 	C 	0.08580 0.91420 0.41080 0.07600
C 	C 	0.91420 0.08580 0.58920 0.07600
C 	C 	0.91420 0.41080 0.08580 0.07600
C 	C 	0.08580 0.58920 0.91420 0.07600
C 	C 	0.41080 0.91420 0.58920 0.07700
C 	C 	0.58920 0.08580 0.41080 0.07700
C 	C 	0.08580 0.41080 0.58920 0.07700
C 	C 	0.91420 0.58920 0.41080 0.07700
C 	C 	0.58920 0.91420 0.08580 0.07600
C 	C 	0.41080 0.08580 0.91420 0.07600
C 	C 	0.43440 0.43440 0.15940 0.09300
C 	C 	0.43440 0.43440 0.97180 0.09300
C 	C 	0.15940 0.97180 0.43440 0.09300
C 	C 	0.97180 0.15940 0.43440 0.09300
C 	C 	0.43440 0.15940 0.97180 0.09300
C 	C 	0.43440 0.97180 0.15940 0.09300
C 	C 	0.15940 0.43440 0.43440 0.09300
C 	C 	0.97180 0.43440 0.43440 0.09300
C 	C 	0.43440 0.97180 0.43440 0.09300
C 	C 	0.43440 0.15940 0.43440 0.09300
C 	C 	0.15940 0.43440 0.97180 0.09300
C 	C 	0.97180 0.43440 0.15940 0.09300
C 	C 	0.56560 0.56560 0.84060 0.09300
C 	C 	0.56560 0.56560 0.02820 0.09300
C 	C 	0.02820 0.84060 0.56560 0.09300
C 	C 	0.84060 0.02820 0.56560 0.09300
C 	C 	0.84060 0.56560 0.02820 0.09300
C 	C 	0.02820 0.56560 0.84060 0.09300
C 	C 	0.56560 0.84060 0.56560 0.09300
C 	C 	0.56560 0.02820 0.56560 0.09300
C 	C 	0.02820 0.56560 0.56560 0.09300
C 	C 	0.84060 0.56560 0.56560 0.09300
C 	C 	0.56560 0.84060 0.02820 0.09300
C 	C 	0.56560 0.02820 0.84060 0.09300
C 	C 	0.53070 0.24470 0.24470 0.11500
C 	C 	0.24470 0.53070 0.97990 0.11300
C 	C 	0.24470 0.97990 0.53070 0.11300
C 	C 	0.97990 0.24470 0.24470 0.11100
C 	C 	0.53070 0.24470 0.97990 0.11300
C 	C 	0.24470 0.97990 0.24470 0.11100
C 	C 	0.24470 0.53070 0.24470 0.11500
C 	C 	0.97990 0.24470 0.53070 0.11300
C 	C 	0.53070 0.97990 0.24470 0.11300
C 	C 	0.24470 0.24470 0.53070 0.11500
C 	C 	0.24470 0.24470 0.97990 0.11100
C 	C 	0.97990 0.53070 0.24470 0.11300
C 	C 	0.75530 0.46930 0.75530 0.11500
C 	C 	0.46930 0.75530 0.02010 0.11300
C 	C 	0.02010 0.75530 0.46930 0.11300
C 	C 	0.75530 0.02010 0.75530 0.11100
C 	C 	0.75530 0.46930 0.02010 0.11300
C 	C 	0.02010 0.75530 0.75530 0.11100
C 	C 	0.46930 0.75530 0.75530 0.11500
C 	C 	0.75530 0.02010 0.46930 0.11300
C 	C 	0.02010 0.46930 0.75530 0.11300
C 	C 	0.75530 0.75530 0.46930 0.11500
C 	C 	0.75530 0.75530 0.02010 0.11100
C 	C 	0.46930 0.02010 0.75530 0.11300
N 	N 	0.50416 0.32984 0.11764 -0.30000
N 	N 	0.58663 0.36371 0.10595 -0.29400
N 	N 	0.46914 0.39820 0.18136 -0.30300
N 	N 	0.54845 0.28225 0.21297 -0.30100
N 	N 	0.32984 0.50416 0.04836 -0.30000
N 	N 	0.36371 0.58663 0.94371 -0.29400
N 	N 	0.39820 0.46914 0.95130 -0.30300
N 	N 	0.28225 0.54845 0.95633 -0.30000
N 	N 	0.11764 0.04836 0.50416 -0.30000
N 	N 	0.10595 0.94371 0.58663 -0.29400
N 	N 	0.18136 0.95130 0.46914 -0.30400
N 	N 	0.21297 0.95633 0.54845 -0.30000
N 	N 	0.04836 0.11764 0.32984 -0.29900
N 	N 	0.94371 0.10595 0.36371 -0.29400
N 	N 	0.95130 0.18136 0.39820 -0.30400
N 	N 	0.95633 0.21297 0.28225 -0.30000
N 	N 	0.50416 0.11764 0.04836 -0.30000
N 	N 	0.58663 0.10595 0.94371 -0.29400
N 	N 	0.46914 0.18136 0.95130 -0.30400
N 	N 	0.54845 0.21297 0.95633 -0.30000
N 	N 	0.32984 0.04836 0.11764 -0.29900
N 	N 	0.36371 0.94371 0.10595 -0.29400
N 	N 	0.39820 0.95130 0.18136 -0.30400
N 	N 	0.28225 0.95633 0.21297 -0.30000
N 	N 	0.11764 0.50416 0.32984 -0.30000
N 	N 	0.10595 0.58663 0.36371 -0.29400
N 	N 	0.18136 0.46914 0.39820 -0.30300
N 	N 	0.21297 0.54845 0.28225 -0.30100
N 	N 	0.04836 0.32984 0.50416 -0.30000
N 	N 	0.94371 0.36371 0.58663 -0.29400
N 	N 	0.95130 0.39820 0.46914 -0.30300
N 	N 	0.95633 0.28225 0.54845 -0.30000
N 	N 	0.50416 0.04836 0.32984 -0.30000
N 	N 	0.58663 0.94371 0.36371 -0.29400
N 	N 	0.46914 0.95130 0.39820 -0.30300
N 	N 	0.54845 0.95633 0.28225 -0.30000
N 	N 	0.32984 0.11764 0.50416 -0.30000
N 	N 	0.36371 0.10595 0.58663 -0.29400
N 	N 	0.39820 0.18136 0.46914 -0.30300
N 	N 	0.28225 0.21297 0.54845 -0.30100
N 	N 	0.11764 0.32984 0.04836 -0.29900
N 	N 	0.10595 0.36371 0.94371 -0.29400
N 	N 	0.18136 0.39820 0.95130 -0.30400
N 	N 	0.21297 0.28225 0.95633 -0.30000
N 	N 	0.04836 0.50416 0.11764 -0.30000
N 	N 	0.94371 0.58663 0.10595 -0.29400
N 	N 	0.95130 0.46914 0.18136 -0.30400
N 	N 	0.95633 0.54845 0.21297 -0.30000
N 	N 	0.67016 0.49584 0.88236 -0.30000
N 	N 	0.63629 0.41337 0.89405 -0.29400
N 	N 	0.60180 0.53086 0.81864 -0.30300
N 	N 	0.71775 0.45155 0.78703 -0.30100
N 	N 	0.49584 0.67016 0.95164 -0.30000
N 	N 	0.41337 0.63629 0.05629 -0.29400
N 	N 	0.53086 0.60180 0.04870 -0.30300
N 	N 	0.45155 0.71775 0.04367 -0.30000
N 	N 	0.95164 0.88236 0.49584 -0.30000
N 	N 	0.05629 0.89405 0.41337 -0.29400
N 	N 	0.04870 0.81864 0.53086 -0.30400
N 	N 	0.04367 0.78703 0.45155 -0.30000
N 	N 	0.88236 0.95164 0.67016 -0.29900
N 	N 	0.89405 0.05629 0.63629 -0.29400
N 	N 	0.81864 0.04870 0.60180 -0.30400
N 	N 	0.78703 0.04367 0.71775 -0.30000
N 	N 	0.88236 0.49584 0.95164 -0.30000
N 	N 	0.89405 0.41337 0.05629 -0.29400
N 	N 	0.81864 0.53086 0.04870 -0.30400
N 	N 	0.78703 0.45155 0.04367 -0.30000
N 	N 	0.95164 0.67016 0.88236 -0.29900
N 	N 	0.05629 0.63629 0.89405 -0.29400
N 	N 	0.04870 0.60180 0.81864 -0.30400
N 	N 	0.04367 0.71775 0.78703 -0.30000
N 	N 	0.49584 0.88236 0.67016 -0.30000
N 	N 	0.41337 0.89405 0.63629 -0.29400
N 	N 	0.53086 0.81864 0.60180 -0.30300
N 	N 	0.45155 0.78703 0.71775 -0.30100
N 	N 	0.67016 0.95164 0.49584 -0.30000
N 	N 	0.63629 0.05629 0.41337 -0.29400
N 	N 	0.60180 0.04870 0.53086 -0.30300
N 	N 	0.71775 0.04367 0.45155 -0.30000
N 	N 	0.95164 0.49584 0.67016 -0.30000
N 	N 	0.05629 0.41337 0.63629 -0.29400
N 	N 	0.04870 0.53086 0.60180 -0.30300
N 	N 	0.04367 0.45155 0.71775 -0.30000
N 	N 	0.88236 0.67016 0.49584 -0.30000
N 	N 	0.89405 0.63629 0.41337 -0.29400
N 	N 	0.81864 0.60180 0.53086 -0.30300
N 	N 	0.78703 0.71775 0.45155 -0.30100
N 	N 	0.67016 0.88236 0.95164 -0.29900
N 	N 	0.63629 0.89405 0.05629 -0.29400
N 	N 	0.60180 0.81864 0.04870 -0.30400
N 	N 	0.71775 0.78703 0.04367 -0.30000
N 	N 	0.49584 0.95164 0.88236 -0.30000
N 	N 	0.41337 0.05629 0.89405 -0.29400
N 	N 	0.53086 0.04870 0.81864 -0.30400
N 	N 	0.45155 0.04367 0.78703 -0.30000
N 	N 	0.49584 0.67016 0.88236 -0.30000
N 	N 	0.41337 0.63629 0.89405 -0.29400
N 	N 	0.53086 0.60180 0.81864 -0.30300
N 	N 	0.45155 0.71775 0.78703 -0.30100
N 	N 	0.67016 0.49584 0.95164 -0.30000
N 	N 	0.63629 0.41337 0.05629 -0.29400
N 	N 	0.60180 0.53086 0.04870 -0.30300
N 	N 	0.71775 0.45155 0.04367 -0.30000
N 	N 	0.88236 0.95164 0.49584 -0.30000
N 	N 	0.89405 0.05629 0.41337 -0.29400
N 	N 	0.81864 0.04870 0.53086 -0.30400
N 	N 	0.78703 0.04367 0.45155 -0.30000
N 	N 	0.95164 0.88236 0.67016 -0.29900
N 	N 	0.05629 0.89405 0.63629 -0.29400
N 	N 	0.04870 0.81864 0.60180 -0.30400
N 	N 	0.04367 0.78703 0.71775 -0.30000
N 	N 	0.49584 0.88236 0.95164 -0.30000
N 	N 	0.41337 0.89405 0.05629 -0.29400
N 	N 	0.53086 0.81864 0.04870 -0.30400
N 	N 	0.45155 0.78703 0.04367 -0.30000
N 	N 	0.67016 0.95164 0.88236 -0.29900
N 	N 	0.63629 0.05629 0.89405 -0.29400
N 	N 	0.60180 0.04870 0.81864 -0.30400
N 	N 	0.71775 0.04367 0.78703 -0.30000
N 	N 	0.88236 0.49584 0.67016 -0.30000
N 	N 	0.89405 0.41337 0.63629 -0.29400
N 	N 	0.81864 0.53086 0.60180 -0.30300
N 	N 	0.78703 0.45155 0.71775 -0.30100
N 	N 	0.95164 0.67016 0.49584 -0.30000
N 	N 	0.05629 0.63629 0.41337 -0.29400
N 	N 	0.04870 0.60180 0.53086 -0.30300
N 	N 	0.04367 0.71775 0.45155 -0.30000
N 	N 	0.49584 0.95164 0.67016 -0.30000
N 	N 	0.41337 0.05629 0.63629 -0.29400
N 	N 	0.53086 0.04870 0.60180 -0.30300
N 	N 	0.45155 0.04367 0.71775 -0.30000
N 	N 	0.67016 0.88236 0.49584 -0.30000
N 	N 	0.63629 0.89405 0.41337 -0.29400
N 	N 	0.60180 0.81864 0.53086 -0.30300
N 	N 	0.71775 0.78703 0.45155 -0.30100
N 	N 	0.88236 0.67016 0.95164 -0.29900
N 	N 	0.89405 0.63629 0.05629 -0.29400
N 	N 	0.81864 0.60180 0.04870 -0.30400
N 	N 	0.78703 0.71775 0.04367 -0.30000
N 	N 	0.95164 0.49584 0.88236 -0.30000
N 	N 	0.05629 0.41337 0.89405 -0.29400
N 	N 	0.04870 0.53086 0.81864 -0.30400
N 	N 	0.04367 0.45155 0.78703 -0.30000
N 	N 	0.32984 0.50416 0.11764 -0.30000
N 	N 	0.36371 0.58663 0.10595 -0.29400
N 	N 	0.39820 0.46914 0.18136 -0.30300
N 	N 	0.28225 0.54845 0.21297 -0.30100
N 	N 	0.50416 0.32984 0.04836 -0.30000
N 	N 	0.58663 0.36371 0.94371 -0.29400
N 	N 	0.46914 0.39820 0.95130 -0.30300
N 	N 	0.54845 0.28225 0.95633 -0.30000
N 	N 	0.04836 0.11764 0.50416 -0.30000
N 	N 	0.94371 0.10595 0.58663 -0.29400
N 	N 	0.95130 0.18136 0.46914 -0.30400
N 	N 	0.95633 0.21297 0.54845 -0.30000
N 	N 	0.11764 0.04836 0.32984 -0.29900
N 	N 	0.10595 0.94371 0.36371 -0.29400
N 	N 	0.18136 0.95130 0.39820 -0.30400
N 	N 	0.21297 0.95633 0.28225 -0.30000
N 	N 	0.11764 0.50416 0.04836 -0.30000
N 	N 	0.10595 0.58663 0.94371 -0.29400
N 	N 	0.18136 0.46914 0.95130 -0.30400
N 	N 	0.21297 0.54845 0.95633 -0.30000
N 	N 	0.04836 0.32984 0.11764 -0.29900
N 	N 	0.94371 0.36371 0.10595 -0.29400
N 	N 	0.95130 0.39820 0.18136 -0.30400
N 	N 	0.95633 0.28225 0.21297 -0.30000
N 	N 	0.50416 0.11764 0.32984 -0.30000
N 	N 	0.58663 0.10595 0.36371 -0.29400
N 	N 	0.46914 0.18136 0.39820 -0.30300
N 	N 	0.54845 0.21297 0.28225 -0.30100
N 	N 	0.32984 0.04836 0.50416 -0.30000
N 	N 	0.36371 0.94371 0.58663 -0.29400
N 	N 	0.39820 0.95130 0.46914 -0.30300
N 	N 	0.28225 0.95633 0.54845 -0.30000
N 	N 	0.04836 0.50416 0.32984 -0.30000
N 	N 	0.94371 0.58663 0.36371 -0.29400
N 	N 	0.95130 0.46914 0.39820 -0.30300
N 	N 	0.95633 0.54845 0.28225 -0.30000
N 	N 	0.11764 0.32984 0.50416 -0.30000
N 	N 	0.10595 0.36371 0.58663 -0.29400
N 	N 	0.18136 0.39820 0.46914 -0.30300
N 	N 	0.21297 0.28225 0.54845 -0.30100
N 	N 	0.32984 0.11764 0.04836 -0.29900
N 	N 	0.36371 0.10595 0.94371 -0.29400
N 	N 	0.39820 0.18136 0.95130 -0.30400
N 	N 	0.28225 0.21297 0.95633 -0.30000
N 	N 	0.50416 0.04836 0.11764 -0.30000
N 	N 	0.58663 0.94371 0.10595 -0.29400
N 	N 	0.46914 0.95130 0.18136 -0.30400
N 	N 	0.54845 0.95633 0.21297 -0.30000
