data_crystal

_cell_length_a 32.15390
_cell_length_b 32.15390
_cell_length_c 32.15390
_cell_angle_alpha 60.00000
_cell_angle_beta  60.00000
_cell_angle_gamma 60.00000

_symmetry_space_group_name_	'P 1'
_symmetry_space_group_name_H-M	'P 1'

loop_
_symmetry_equiv_pos_as_xyz
  x,y,z

loop_
_atom_site_label
_atom_site_type_symbol
_atom_site_fract_x
_atom_site_fract_y
_atom_site_fract_z
_atom_site_charge
Co	Co	0.34332 0.52540 0.15786 1.11200
Co	Co	0.52540 0.34332 0.97342 1.11200
Co	Co	0.15786 0.97342 0.34332 1.11200
Co	Co	0.97342 0.15786 0.52540 1.11200
Co	Co	0.34332 0.15786 0.97342 1.11200
Co	Co	0.52540 0.97342 0.15786 1.11200
Co	Co	0.15786 0.34332 0.52540 1.11200
Co	Co	0.97342 0.52540 0.34332 1.11200
Co	Co	0.34332 0.97342 0.52540 1.11200
Co	Co	0.52540 0.15786 0.34332 1.11200
Co	Co	0.15786 0.52540 0.97342 1.11200
Co	Co	0.97342 0.34332 0.15786 1.11200
Co	Co	0.47460 0.65668 0.84214 1.11200
Co	Co	0.65668 0.47460 0.02658 1.11200
Co	Co	0.02658 0.84214 0.65668 1.11200
Co	Co	0.84214 0.02658 0.47460 1.11200
Co	Co	0.84214 0.65668 0.02658 1.11200
Co	Co	0.02658 0.47460 0.84214 1.11200
Co	Co	0.65668 0.84214 0.47460 1.11200
Co	Co	0.47460 0.02658 0.65668 1.11200
Co	Co	0.02658 0.65668 0.47460 1.11200
Co	Co	0.84214 0.47460 0.65668 1.11200
Co	Co	0.47460 0.84214 0.02658 1.11200
Co	Co	0.65668 0.02658 0.84214 1.11200
Co	Co	0.65668 0.47460 0.84214 1.11200
Co	Co	0.47460 0.65668 0.02658 1.11200
Co	Co	0.84214 0.02658 0.65668 1.11200
Co	Co	0.02658 0.84214 0.47460 1.11200
Co	Co	0.65668 0.84214 0.02658 1.11200
Co	Co	0.47460 0.02658 0.84214 1.11200
Co	Co	0.84214 0.65668 0.47460 1.11200
Co	Co	0.02658 0.47460 0.65668 1.11200
Co	Co	0.65668 0.02658 0.47460 1.11200
Co	Co	0.47460 0.84214 0.65668 1.11200
Co	Co	0.84214 0.47460 0.02658 1.11200
Co	Co	0.02658 0.65668 0.84214 1.11200
Co	Co	0.52540 0.34332 0.15786 1.11200
Co	Co	0.34332 0.52540 0.97342 1.11200
Co	Co	0.97342 0.15786 0.34332 1.11200
Co	Co	0.15786 0.97342 0.52540 1.11200
Co	Co	0.15786 0.34332 0.97342 1.11200
Co	Co	0.97342 0.52540 0.15786 1.11200
Co	Co	0.34332 0.15786 0.52540 1.11200
Co	Co	0.52540 0.97342 0.34332 1.11200
Co	Co	0.97342 0.34332 0.52540 1.11200
Co	Co	0.15786 0.52540 0.34332 1.11200
Co	Co	0.52540 0.15786 0.97342 1.11200
Co	Co	0.34332 0.97342 0.15786 1.11200
H 	H 	0.29080 0.43700 0.20380 0.02900
H 	H 	0.38950 0.50670 0.23710 0.02800
H 	H 	0.25710 0.70630 0.18910 0.03600
H 	H 	0.23700 0.61820 0.14700 0.04100
H 	H 	0.43700 0.29080 0.06840 0.02900
H 	H 	0.50670 0.38950 0.86670 0.02800
H 	H 	0.70630 0.25710 0.84750 0.03600
H 	H 	0.61820 0.23700 0.99780 0.04100
H 	H 	0.20380 0.06840 0.29080 0.02900
H 	H 	0.23710 0.86670 0.38950 0.02800
H 	H 	0.18910 0.84750 0.25710 0.03600
H 	H 	0.14700 0.99780 0.23700 0.03800
H 	H 	0.06840 0.20380 0.43700 0.02900
H 	H 	0.86670 0.23710 0.50670 0.02800
H 	H 	0.84750 0.18910 0.70630 0.03600
H 	H 	0.99780 0.14700 0.61820 0.04000
H 	H 	0.29080 0.20380 0.06840 0.02900
H 	H 	0.38950 0.23710 0.86670 0.02800
H 	H 	0.25710 0.18910 0.84750 0.03600
H 	H 	0.23700 0.14700 0.99780 0.03800
H 	H 	0.43700 0.06840 0.20380 0.02900
H 	H 	0.50670 0.86670 0.23710 0.02800
H 	H 	0.70630 0.84750 0.18910 0.03600
H 	H 	0.61820 0.99780 0.14700 0.04000
H 	H 	0.20380 0.29080 0.43700 0.02900
H 	H 	0.23710 0.38950 0.50670 0.02800
H 	H 	0.18910 0.25710 0.70630 0.03600
H 	H 	0.14700 0.23700 0.61820 0.04100
H 	H 	0.06840 0.43700 0.29080 0.02900
H 	H 	0.86670 0.50670 0.38950 0.02800
H 	H 	0.84750 0.70630 0.25710 0.03600
H 	H 	0.99780 0.61820 0.23700 0.04100
H 	H 	0.29080 0.06840 0.43700 0.02900
H 	H 	0.38950 0.86670 0.50670 0.02800
H 	H 	0.25710 0.84750 0.70630 0.03600
H 	H 	0.23700 0.99780 0.61820 0.04100
H 	H 	0.43700 0.20380 0.29080 0.02900
H 	H 	0.50670 0.23710 0.38950 0.02800
H 	H 	0.70630 0.18910 0.25710 0.03600
H 	H 	0.61820 0.14700 0.23700 0.04100
H 	H 	0.20380 0.43700 0.06840 0.02900
H 	H 	0.23710 0.50670 0.86670 0.02800
H 	H 	0.18910 0.70630 0.84750 0.03600
H 	H 	0.14700 0.61820 0.99780 0.04000
H 	H 	0.06840 0.29080 0.20380 0.02900
H 	H 	0.86670 0.38950 0.23710 0.02800
H 	H 	0.84750 0.25710 0.18910 0.03600
H 	H 	0.99780 0.23700 0.14700 0.03800
H 	H 	0.56300 0.70920 0.79620 0.02900
H 	H 	0.49330 0.61050 0.76290 0.02800
H 	H 	0.29370 0.74290 0.81090 0.03600
H 	H 	0.38180 0.76300 0.85300 0.04100
H 	H 	0.70920 0.56300 0.93160 0.02900
H 	H 	0.61050 0.49330 0.13330 0.02800
H 	H 	0.74290 0.29370 0.15250 0.03600
H 	H 	0.76300 0.38180 0.00220 0.04100
H 	H 	0.93160 0.79620 0.70920 0.02900
H 	H 	0.13330 0.76290 0.61050 0.02800
H 	H 	0.15250 0.81090 0.74290 0.03600
H 	H 	0.00220 0.85300 0.76300 0.03800
H 	H 	0.79620 0.93160 0.56300 0.02900
H 	H 	0.76290 0.13330 0.49330 0.02800
H 	H 	0.81090 0.15250 0.29370 0.03600
H 	H 	0.85300 0.00220 0.38180 0.04000
H 	H 	0.79620 0.70920 0.93160 0.02900
H 	H 	0.76290 0.61050 0.13330 0.02800
H 	H 	0.81090 0.74290 0.15250 0.03600
H 	H 	0.85300 0.76300 0.00220 0.03800
H 	H 	0.93160 0.56300 0.79620 0.02900
H 	H 	0.13330 0.49330 0.76290 0.02800
H 	H 	0.15250 0.29370 0.81090 0.03600
H 	H 	0.00220 0.38180 0.85300 0.04000
H 	H 	0.70920 0.79620 0.56300 0.02900
H 	H 	0.61050 0.76290 0.49330 0.02800
H 	H 	0.74290 0.81090 0.29370 0.03600
H 	H 	0.76300 0.85300 0.38180 0.04100
H 	H 	0.56300 0.93160 0.70920 0.02900
H 	H 	0.49330 0.13330 0.61050 0.02800
H 	H 	0.29370 0.15250 0.74290 0.03500
H 	H 	0.38180 0.00220 0.76300 0.04000
H 	H 	0.93160 0.70920 0.56300 0.02800
H 	H 	0.13330 0.61050 0.49330 0.02700
H 	H 	0.15250 0.74290 0.29370 0.03500
H 	H 	0.00220 0.76300 0.38180 0.04000
H 	H 	0.79620 0.56300 0.70920 0.02800
H 	H 	0.76290 0.49330 0.61050 0.02700
H 	H 	0.81090 0.29370 0.74290 0.03500
H 	H 	0.85300 0.38180 0.76300 0.04000
H 	H 	0.56300 0.79620 0.93160 0.02800
H 	H 	0.49330 0.76290 0.13330 0.02700
H 	H 	0.29370 0.81090 0.15250 0.03500
H 	H 	0.38180 0.85300 0.00220 0.03900
H 	H 	0.70920 0.93160 0.79620 0.02800
H 	H 	0.61050 0.13330 0.76290 0.02700
H 	H 	0.74290 0.15250 0.81090 0.03500
H 	H 	0.76300 0.00220 0.85300 0.03700
H 	H 	0.70920 0.56300 0.79620 0.02800
H 	H 	0.61050 0.49330 0.76290 0.02700
H 	H 	0.74290 0.29370 0.81090 0.03500
H 	H 	0.76300 0.38180 0.85300 0.04000
H 	H 	0.56300 0.70920 0.93160 0.02800
H 	H 	0.49330 0.61050 0.13330 0.02700
H 	H 	0.29370 0.74290 0.15250 0.03500
H 	H 	0.38180 0.76300 0.00220 0.04000
H 	H 	0.79620 0.93160 0.70920 0.02800
H 	H 	0.76290 0.13330 0.61050 0.02700
H 	H 	0.81090 0.15250 0.74290 0.03500
H 	H 	0.85300 0.00220 0.76300 0.03700
H 	H 	0.93160 0.79620 0.56300 0.02800
H 	H 	0.13330 0.76290 0.49330 0.02700
H 	H 	0.15250 0.81090 0.29370 0.03500
H 	H 	0.00220 0.85300 0.38180 0.03900
H 	H 	0.70920 0.79620 0.93160 0.02800
H 	H 	0.61050 0.76290 0.13330 0.02700
H 	H 	0.74290 0.81090 0.15250 0.03500
H 	H 	0.76300 0.85300 0.00220 0.03700
H 	H 	0.56300 0.93160 0.79620 0.02800
H 	H 	0.49330 0.13330 0.76290 0.02700
H 	H 	0.29370 0.15250 0.81090 0.03500
H 	H 	0.38180 0.00220 0.85300 0.03900
H 	H 	0.79620 0.70920 0.56300 0.02800
H 	H 	0.76290 0.61050 0.49330 0.02700
H 	H 	0.81090 0.74290 0.29370 0.03500
H 	H 	0.85300 0.76300 0.38180 0.04000
H 	H 	0.93160 0.56300 0.70920 0.02800
H 	H 	0.13330 0.49330 0.61050 0.02700
H 	H 	0.15250 0.29370 0.74290 0.03500
H 	H 	0.00220 0.38180 0.76300 0.04000
H 	H 	0.70920 0.93160 0.56300 0.02800
H 	H 	0.61050 0.13330 0.49330 0.02700
H 	H 	0.74290 0.15250 0.29370 0.03500
H 	H 	0.76300 0.00220 0.38180 0.04000
H 	H 	0.56300 0.79620 0.70920 0.02800
H 	H 	0.49330 0.76290 0.61050 0.02700
H 	H 	0.29370 0.81090 0.74290 0.03500
H 	H 	0.38180 0.85300 0.76300 0.04000
H 	H 	0.79620 0.56300 0.93160 0.02800
H 	H 	0.76290 0.49330 0.13330 0.02700
H 	H 	0.81090 0.29370 0.15250 0.03500
H 	H 	0.85300 0.38180 0.00220 0.03900
H 	H 	0.93160 0.70920 0.79620 0.02800
H 	H 	0.13330 0.61050 0.76290 0.02700
H 	H 	0.15250 0.74290 0.81090 0.03500
H 	H 	0.00220 0.76300 0.85300 0.03700
H 	H 	0.43700 0.29080 0.20380 0.02800
H 	H 	0.50670 0.38950 0.23710 0.02700
H 	H 	0.70630 0.25710 0.18910 0.03500
H 	H 	0.61820 0.23700 0.14700 0.04000
H 	H 	0.29080 0.43700 0.06840 0.02800
H 	H 	0.38950 0.50670 0.86670 0.02700
H 	H 	0.25710 0.70630 0.84750 0.03500
H 	H 	0.23700 0.61820 0.99780 0.04000
H 	H 	0.06840 0.20380 0.29080 0.02800
H 	H 	0.86670 0.23710 0.38950 0.02700
H 	H 	0.84750 0.18910 0.25710 0.03500
H 	H 	0.99780 0.14700 0.23700 0.03700
H 	H 	0.20380 0.06840 0.43700 0.02800
H 	H 	0.23710 0.86670 0.50670 0.02700
H 	H 	0.18910 0.84750 0.70630 0.03500
H 	H 	0.14700 0.99780 0.61820 0.03900
H 	H 	0.20380 0.29080 0.06840 0.02800
H 	H 	0.23710 0.38950 0.86670 0.02700
H 	H 	0.18910 0.25710 0.84750 0.03500
H 	H 	0.14700 0.23700 0.99780 0.03700
H 	H 	0.06840 0.43700 0.20380 0.02800
H 	H 	0.86670 0.50670 0.23710 0.02700
H 	H 	0.84750 0.70630 0.18910 0.03500
H 	H 	0.99780 0.61820 0.14700 0.03900
H 	H 	0.29080 0.20380 0.43700 0.02800
H 	H 	0.38950 0.23710 0.50670 0.02700
H 	H 	0.25710 0.18910 0.70630 0.03500
H 	H 	0.23700 0.14700 0.61820 0.04000
H 	H 	0.43700 0.06840 0.29080 0.02800
H 	H 	0.50670 0.86670 0.38950 0.02700
H 	H 	0.70630 0.84750 0.25710 0.03500
H 	H 	0.61820 0.99780 0.23700 0.04000
H 	H 	0.06840 0.29080 0.43700 0.02800
H 	H 	0.86670 0.38950 0.50670 0.02700
H 	H 	0.84750 0.25710 0.70630 0.03500
H 	H 	0.99780 0.23700 0.61820 0.04000
H 	H 	0.20380 0.43700 0.29080 0.02800
H 	H 	0.23710 0.50670 0.38950 0.02700
H 	H 	0.18910 0.70630 0.25710 0.03500
H 	H 	0.14700 0.61820 0.23700 0.04000
H 	H 	0.43700 0.20380 0.06840 0.02800
H 	H 	0.50670 0.23710 0.86670 0.02700
H 	H 	0.70630 0.18910 0.84750 0.03500
H 	H 	0.61820 0.14700 0.99780 0.03900
H 	H 	0.29080 0.06840 0.20380 0.02800
H 	H 	0.38950 0.86670 0.23710 0.02700
H 	H 	0.25710 0.84750 0.18910 0.03500
H 	H 	0.23700 0.99780 0.14700 0.03700
H 	H 	0.45110 0.45110 0.15430 -0.03900
H 	H 	0.45110 0.45110 0.94350 -0.03900
H 	H 	0.15430 0.94350 0.45110 -0.03900
H 	H 	0.94350 0.15430 0.45110 -0.03900
H 	H 	0.45110 0.15430 0.94350 -0.03900
H 	H 	0.45110 0.94350 0.15430 -0.03900
H 	H 	0.15430 0.45110 0.45110 -0.03900
H 	H 	0.94350 0.45110 0.45110 -0.03900
H 	H 	0.45110 0.94350 0.45110 -0.03900
H 	H 	0.45110 0.15430 0.45110 -0.03900
H 	H 	0.15430 0.45110 0.94350 -0.03900
H 	H 	0.94350 0.45110 0.15430 -0.03900
H 	H 	0.54890 0.54890 0.84570 -0.03900
H 	H 	0.54890 0.54890 0.05650 -0.03900
H 	H 	0.05650 0.84570 0.54890 -0.03900
H 	H 	0.84570 0.05650 0.54890 -0.03900
H 	H 	0.84570 0.54890 0.05650 -0.03900
H 	H 	0.05650 0.54890 0.84570 -0.03900
H 	H 	0.54890 0.84570 0.54890 -0.03900
H 	H 	0.54890 0.05650 0.54890 -0.03900
H 	H 	0.05650 0.54890 0.54890 -0.03900
H 	H 	0.84570 0.54890 0.54890 -0.03900
H 	H 	0.54890 0.84570 0.05650 -0.03900
H 	H 	0.54890 0.05650 0.84570 -0.03900
H 	H 	0.40640 0.59360 0.06020 -0.04200
H 	H 	0.59360 0.40640 0.93980 -0.04200
H 	H 	0.06020 0.93980 0.40640 -0.04200
H 	H 	0.93980 0.06020 0.59360 -0.04200
H 	H 	0.40640 0.06020 0.93980 -0.04200
H 	H 	0.59360 0.93980 0.06020 -0.04200
H 	H 	0.06020 0.40640 0.59360 -0.04200
H 	H 	0.93980 0.59360 0.40640 -0.04200
H 	H 	0.40640 0.93980 0.59360 -0.04200
H 	H 	0.59360 0.06020 0.40640 -0.04200
H 	H 	0.06020 0.59360 0.93980 -0.04200
H 	H 	0.93980 0.40640 0.06020 -0.04200
H 	H 	0.40640 0.59360 0.93980 -0.04200
H 	H 	0.59360 0.40640 0.06020 -0.04200
H 	H 	0.06020 0.93980 0.59360 -0.04200
H 	H 	0.93980 0.06020 0.40640 -0.04200
H 	H 	0.93980 0.59360 0.06020 -0.04200
H 	H 	0.06020 0.40640 0.93980 -0.04200
H 	H 	0.59360 0.93980 0.40640 -0.04200
H 	H 	0.40640 0.06020 0.59360 -0.04200
H 	H 	0.06020 0.59360 0.40640 -0.04200
H 	H 	0.93980 0.40640 0.59360 -0.04200
H 	H 	0.40640 0.93980 0.06020 -0.04200
H 	H 	0.59360 0.06020 0.93980 -0.04200
H 	H 	0.26010 0.48730 0.26010 -0.04400
H 	H 	0.48730 0.26010 0.99250 -0.04400
H 	H 	0.26010 0.99250 0.26010 -0.04500
H 	H 	0.99250 0.26010 0.48730 -0.04400
H 	H 	0.26010 0.26010 0.99250 -0.04500
H 	H 	0.48730 0.99250 0.26010 -0.04400
H 	H 	0.26010 0.26010 0.48730 -0.04400
H 	H 	0.99250 0.48730 0.26010 -0.04400
H 	H 	0.26010 0.99250 0.48730 -0.04400
H 	H 	0.48730 0.26010 0.26010 -0.04400
H 	H 	0.26010 0.48730 0.99250 -0.04400
H 	H 	0.99250 0.26010 0.26010 -0.04500
H 	H 	0.51270 0.73990 0.73990 -0.04400
H 	H 	0.73990 0.51270 0.00750 -0.04400
H 	H 	0.00750 0.73990 0.73990 -0.04500
H 	H 	0.73990 0.00750 0.51270 -0.04400
H 	H 	0.73990 0.73990 0.00750 -0.04500
H 	H 	0.00750 0.51270 0.73990 -0.04400
H 	H 	0.73990 0.73990 0.51270 -0.04400
H 	H 	0.51270 0.00750 0.73990 -0.04400
H 	H 	0.00750 0.73990 0.51270 -0.04400
H 	H 	0.73990 0.51270 0.73990 -0.04400
H 	H 	0.51270 0.73990 0.00750 -0.04400
H 	H 	0.73990 0.00750 0.73990 -0.04500
H 	H 	0.37670 0.50470 0.05930 -0.05500
H 	H 	0.50470 0.37670 0.05930 -0.05500
H 	H 	0.05930 0.05930 0.37670 -0.05500
H 	H 	0.05930 0.05930 0.50470 -0.05500
H 	H 	0.37670 0.05930 0.05930 -0.05500
H 	H 	0.50470 0.05930 0.05930 -0.05500
H 	H 	0.05930 0.37670 0.50470 -0.05500
H 	H 	0.05930 0.50470 0.37670 -0.05500
H 	H 	0.37670 0.05930 0.50470 -0.05500
H 	H 	0.50470 0.05930 0.37670 -0.05500
H 	H 	0.05930 0.50470 0.05930 -0.05500
H 	H 	0.05930 0.37670 0.05930 -0.05500
H 	H 	0.49530 0.62330 0.94070 -0.05500
H 	H 	0.62330 0.49530 0.94070 -0.05500
H 	H 	0.94070 0.94070 0.62330 -0.05500
H 	H 	0.94070 0.94070 0.49530 -0.05500
H 	H 	0.94070 0.62330 0.94070 -0.05500
H 	H 	0.94070 0.49530 0.94070 -0.05500
H 	H 	0.62330 0.94070 0.49530 -0.05500
H 	H 	0.49530 0.94070 0.62330 -0.05500
H 	H 	0.94070 0.62330 0.49530 -0.05500
H 	H 	0.94070 0.49530 0.62330 -0.05500
H 	H 	0.49530 0.94070 0.94070 -0.05500
H 	H 	0.62330 0.94070 0.94070 -0.05500
C 	C 	0.36777 0.41057 0.18683 0.03800
C 	C 	0.32110 0.40850 0.20110 -0.03300
C 	C 	0.41479 0.55467 0.16629 0.03900
C 	C 	0.40840 0.52940 0.21620 -0.02700
C 	C 	0.26478 0.59158 0.22294 0.07400
C 	C 	0.24775 0.67641 0.20809 0.00600
C 	C 	0.27520 0.58526 0.09082 0.03800
C 	C 	0.23714 0.61756 0.11766 -0.03800
C 	C 	0.41057 0.36777 0.03483 0.03800
C 	C 	0.40850 0.32110 0.06930 -0.03300
C 	C 	0.55467 0.41479 0.86425 0.03900
C 	C 	0.52940 0.40840 0.84600 -0.02700
C 	C 	0.59158 0.26478 0.92070 0.07400
C 	C 	0.67641 0.24775 0.86775 0.00500
C 	C 	0.58526 0.27520 0.04872 0.03800
C 	C 	0.61756 0.23714 0.02764 -0.03600
C 	C 	0.18683 0.03483 0.36777 0.03900
C 	C 	0.20110 0.06930 0.32110 -0.03300
C 	C 	0.16629 0.86425 0.41479 0.03900
C 	C 	0.21620 0.84600 0.40840 -0.02700
C 	C 	0.22294 0.92070 0.26478 0.07400
C 	C 	0.20809 0.86775 0.24775 0.00500
C 	C 	0.09082 0.04872 0.27520 0.03700
C 	C 	0.11766 0.02764 0.23714 -0.03300
C 	C 	0.03483 0.18683 0.41057 0.03900
C 	C 	0.06930 0.20110 0.40850 -0.03300
C 	C 	0.86425 0.16629 0.55467 0.03900
C 	C 	0.84600 0.21620 0.52940 -0.02700
C 	C 	0.92070 0.22294 0.59158 0.07400
C 	C 	0.86775 0.20809 0.67641 0.00500
C 	C 	0.04872 0.09082 0.58526 0.03800
C 	C 	0.02764 0.11766 0.61756 -0.03600
C 	C 	0.36777 0.18683 0.03483 0.03900
C 	C 	0.32110 0.20110 0.06930 -0.03300
C 	C 	0.41479 0.16629 0.86425 0.03900
C 	C 	0.40840 0.21620 0.84600 -0.02700
C 	C 	0.26478 0.22294 0.92070 0.07400
C 	C 	0.24775 0.20809 0.86775 0.00500
C 	C 	0.27520 0.09082 0.04872 0.03700
C 	C 	0.23714 0.11766 0.02764 -0.03300
C 	C 	0.41057 0.03483 0.18683 0.03900
C 	C 	0.40850 0.06930 0.20110 -0.03300
C 	C 	0.55467 0.86425 0.16629 0.03900
C 	C 	0.52940 0.84600 0.21620 -0.02700
C 	C 	0.59158 0.92070 0.22294 0.07400
C 	C 	0.67641 0.86775 0.20809 0.00500
C 	C 	0.58526 0.04872 0.09082 0.03800
C 	C 	0.61756 0.02764 0.11766 -0.03600
C 	C 	0.18683 0.36777 0.41057 0.03800
C 	C 	0.20110 0.32110 0.40850 -0.03300
C 	C 	0.16629 0.41479 0.55467 0.03900
C 	C 	0.21620 0.40840 0.52940 -0.02700
C 	C 	0.22294 0.26478 0.59158 0.07400
C 	C 	0.20809 0.24775 0.67641 0.00600
C 	C 	0.09082 0.27520 0.58526 0.03800
C 	C 	0.11766 0.23714 0.61756 -0.03800
C 	C 	0.03483 0.41057 0.36777 0.03800
C 	C 	0.06930 0.40850 0.32110 -0.03300
C 	C 	0.86425 0.55467 0.41479 0.03900
C 	C 	0.84600 0.52940 0.40840 -0.02700
C 	C 	0.92070 0.59158 0.26478 0.07400
C 	C 	0.86775 0.67641 0.24775 0.00500
C 	C 	0.04872 0.58526 0.27520 0.03800
C 	C 	0.02764 0.61756 0.23714 -0.03600
C 	C 	0.36777 0.03483 0.41057 0.03800
C 	C 	0.32110 0.06930 0.40850 -0.03300
C 	C 	0.41479 0.86425 0.55467 0.03900
C 	C 	0.40840 0.84600 0.52940 -0.02700
C 	C 	0.26478 0.92070 0.59158 0.07400
C 	C 	0.24775 0.86775 0.67641 0.00500
C 	C 	0.27520 0.04872 0.58526 0.03800
C 	C 	0.23714 0.02764 0.61756 -0.03600
C 	C 	0.41057 0.18683 0.36777 0.03800
C 	C 	0.40850 0.20110 0.32110 -0.03300
C 	C 	0.55467 0.16629 0.41479 0.03900
C 	C 	0.52940 0.21620 0.40840 -0.02700
C 	C 	0.59158 0.22294 0.26478 0.07400
C 	C 	0.67641 0.20809 0.24775 0.00600
C 	C 	0.58526 0.09082 0.27520 0.03800
C 	C 	0.61756 0.11766 0.23714 -0.03800
C 	C 	0.18683 0.41057 0.03483 0.03900
C 	C 	0.20110 0.40850 0.06930 -0.03300
C 	C 	0.16629 0.55467 0.86425 0.03900
C 	C 	0.21620 0.52940 0.84600 -0.02700
C 	C 	0.22294 0.59158 0.92070 0.07400
C 	C 	0.20809 0.67641 0.86775 0.00500
C 	C 	0.09082 0.58526 0.04872 0.03800
C 	C 	0.11766 0.61756 0.02764 -0.03600
C 	C 	0.03483 0.36777 0.18683 0.03900
C 	C 	0.06930 0.32110 0.20110 -0.03300
C 	C 	0.86425 0.41479 0.16629 0.03900
C 	C 	0.84600 0.40840 0.21620 -0.02700
C 	C 	0.92070 0.26478 0.22294 0.07400
C 	C 	0.86775 0.24775 0.20809 0.00500
C 	C 	0.04872 0.27520 0.09082 0.03700
C 	C 	0.02764 0.23714 0.11766 -0.03300
C 	C 	0.58943 0.63223 0.81317 0.03800
C 	C 	0.59150 0.67890 0.79890 -0.03300
C 	C 	0.44533 0.58521 0.83371 0.03900
C 	C 	0.47060 0.59160 0.78380 -0.02700
C 	C 	0.40842 0.73522 0.77706 0.07400
C 	C 	0.32359 0.75225 0.79191 0.00600
C 	C 	0.41474 0.72480 0.90918 0.03800
C 	C 	0.38244 0.76286 0.88234 -0.03800
C 	C 	0.63223 0.58943 0.96517 0.03800
C 	C 	0.67890 0.59150 0.93070 -0.03300
C 	C 	0.58521 0.44533 0.13575 0.03900
C 	C 	0.59160 0.47060 0.15400 -0.02700
C 	C 	0.73522 0.40842 0.07930 0.07400
C 	C 	0.75225 0.32359 0.13225 0.00500
C 	C 	0.72480 0.41474 0.95128 0.03800
C 	C 	0.76286 0.38244 0.97236 -0.03600
C 	C 	0.96517 0.81317 0.63223 0.03900
C 	C 	0.93070 0.79890 0.67890 -0.03300
C 	C 	0.13575 0.83371 0.58521 0.03900
C 	C 	0.15400 0.78380 0.59160 -0.02700
C 	C 	0.07930 0.77706 0.73522 0.07400
C 	C 	0.13225 0.79191 0.75225 0.00500
C 	C 	0.95128 0.90918 0.72480 0.03700
C 	C 	0.97236 0.88234 0.76286 -0.03300
C 	C 	0.81317 0.96517 0.58943 0.03900
C 	C 	0.79890 0.93070 0.59150 -0.03300
C 	C 	0.83371 0.13575 0.44533 0.03900
C 	C 	0.78380 0.15400 0.47060 -0.02700
C 	C 	0.77706 0.07930 0.40842 0.07400
C 	C 	0.79191 0.13225 0.32359 0.00500
C 	C 	0.90918 0.95128 0.41474 0.03800
C 	C 	0.88234 0.97236 0.38244 -0.03600
C 	C 	0.81317 0.63223 0.96517 0.03900
C 	C 	0.79890 0.67890 0.93070 -0.03300
C 	C 	0.83371 0.58521 0.13575 0.03900
C 	C 	0.78380 0.59160 0.15400 -0.02700
C 	C 	0.77706 0.73522 0.07930 0.07400
C 	C 	0.79191 0.75225 0.13225 0.00500
C 	C 	0.90918 0.72480 0.95128 0.03700
C 	C 	0.88234 0.76286 0.97236 -0.03300
C 	C 	0.96517 0.58943 0.81317 0.03900
C 	C 	0.93070 0.59150 0.79890 -0.03300
C 	C 	0.13575 0.44533 0.83371 0.03900
C 	C 	0.15400 0.47060 0.78380 -0.02700
C 	C 	0.07930 0.40842 0.77706 0.07400
C 	C 	0.13225 0.32359 0.79191 0.00500
C 	C 	0.95128 0.41474 0.90918 0.03800
C 	C 	0.97236 0.38244 0.88234 -0.03600
C 	C 	0.63223 0.81317 0.58943 0.03800
C 	C 	0.67890 0.79890 0.59150 -0.03300
C 	C 	0.58521 0.83371 0.44533 0.03900
C 	C 	0.59160 0.78380 0.47060 -0.02700
C 	C 	0.73522 0.77706 0.40842 0.07400
C 	C 	0.75225 0.79191 0.32359 0.00600
C 	C 	0.72480 0.90918 0.41474 0.03800
C 	C 	0.76286 0.88234 0.38244 -0.03800
C 	C 	0.58943 0.96517 0.63223 0.03800
C 	C 	0.59150 0.93070 0.67890 -0.03300
C 	C 	0.44533 0.13575 0.58521 0.03900
C 	C 	0.47060 0.15400 0.59160 -0.02700
C 	C 	0.40842 0.07930 0.73522 0.07400
C 	C 	0.32359 0.13225 0.75225 0.00500
C 	C 	0.41474 0.95128 0.72480 0.03800
C 	C 	0.38244 0.97236 0.76286 -0.03600
C 	C 	0.96517 0.63223 0.58943 0.03800
C 	C 	0.93070 0.67890 0.59150 -0.03300
C 	C 	0.13575 0.58521 0.44533 0.03900
C 	C 	0.15400 0.59160 0.47060 -0.02700
C 	C 	0.07930 0.73522 0.40842 0.07400
C 	C 	0.13225 0.75225 0.32359 0.00500
C 	C 	0.95128 0.72480 0.41474 0.03800
C 	C 	0.97236 0.76286 0.38244 -0.03600
C 	C 	0.81317 0.58943 0.63223 0.03800
C 	C 	0.79890 0.59150 0.67890 -0.03300
C 	C 	0.83371 0.44533 0.58521 0.03900
C 	C 	0.78380 0.47060 0.59160 -0.02700
C 	C 	0.77706 0.40842 0.73522 0.07400
C 	C 	0.79191 0.32359 0.75225 0.00600
C 	C 	0.90918 0.41474 0.72480 0.03800
C 	C 	0.88234 0.38244 0.76286 -0.03800
C 	C 	0.58943 0.81317 0.96517 0.03900
C 	C 	0.59150 0.79890 0.93070 -0.03300
C 	C 	0.44533 0.83371 0.13575 0.03900
C 	C 	0.47060 0.78380 0.15400 -0.02700
C 	C 	0.40842 0.77706 0.07930 0.07400
C 	C 	0.32359 0.79191 0.13225 0.00500
C 	C 	0.41474 0.90918 0.95128 0.03800
C 	C 	0.38244 0.88234 0.97236 -0.03600
C 	C 	0.63223 0.96517 0.81317 0.03900
C 	C 	0.67890 0.93070 0.79890 -0.03300
C 	C 	0.58521 0.13575 0.83371 0.03900
C 	C 	0.59160 0.15400 0.78380 -0.02700
C 	C 	0.73522 0.07930 0.77706 0.07400
C 	C 	0.75225 0.13225 0.79191 0.00500
C 	C 	0.72480 0.95128 0.90918 0.03700
C 	C 	0.76286 0.97236 0.88234 -0.03300
C 	C 	0.63223 0.58943 0.81317 0.03800
C 	C 	0.67890 0.59150 0.79890 -0.03300
C 	C 	0.58521 0.44533 0.83371 0.03900
C 	C 	0.59160 0.47060 0.78380 -0.02700
C 	C 	0.73522 0.40842 0.77706 0.07400
C 	C 	0.75225 0.32359 0.79191 0.00600
C 	C 	0.72480 0.41474 0.90918 0.03800
C 	C 	0.76286 0.38244 0.88234 -0.03800
C 	C 	0.58943 0.63223 0.96517 0.03800
C 	C 	0.59150 0.67890 0.93070 -0.03300
C 	C 	0.44533 0.58521 0.13575 0.03900
C 	C 	0.47060 0.59160 0.15400 -0.02700
C 	C 	0.40842 0.73522 0.07930 0.07400
C 	C 	0.32359 0.75225 0.13225 0.00500
C 	C 	0.41474 0.72480 0.95128 0.03800
C 	C 	0.38244 0.76286 0.97236 -0.03600
C 	C 	0.81317 0.96517 0.63223 0.03900
C 	C 	0.79890 0.93070 0.67890 -0.03300
C 	C 	0.83371 0.13575 0.58521 0.03900
C 	C 	0.78380 0.15400 0.59160 -0.02700
C 	C 	0.77706 0.07930 0.73522 0.07400
C 	C 	0.79191 0.13225 0.75225 0.00500
C 	C 	0.90918 0.95128 0.72480 0.03700
C 	C 	0.88234 0.97236 0.76286 -0.03300
C 	C 	0.96517 0.81317 0.58943 0.03900
C 	C 	0.93070 0.79890 0.59150 -0.03300
C 	C 	0.13575 0.83371 0.44533 0.03900
C 	C 	0.15400 0.78380 0.47060 -0.02700
C 	C 	0.07930 0.77706 0.40842 0.07400
C 	C 	0.13225 0.79191 0.32359 0.00500
C 	C 	0.95128 0.90918 0.41474 0.03800
C 	C 	0.97236 0.88234 0.38244 -0.03600
C 	C 	0.63223 0.81317 0.96517 0.03900
C 	C 	0.67890 0.79890 0.93070 -0.03300
C 	C 	0.58521 0.83371 0.13575 0.03900
C 	C 	0.59160 0.78380 0.15400 -0.02700
C 	C 	0.73522 0.77706 0.07930 0.07400
C 	C 	0.75225 0.79191 0.13225 0.00500
C 	C 	0.72480 0.90918 0.95128 0.03700
C 	C 	0.76286 0.88234 0.97236 -0.03300
C 	C 	0.58943 0.96517 0.81317 0.03900
C 	C 	0.59150 0.93070 0.79890 -0.03300
C 	C 	0.44533 0.13575 0.83371 0.03900
C 	C 	0.47060 0.15400 0.78380 -0.02700
C 	C 	0.40842 0.07930 0.77706 0.07400
C 	C 	0.32359 0.13225 0.79191 0.00500
C 	C 	0.41474 0.95128 0.90918 0.03800
C 	C 	0.38244 0.97236 0.88234 -0.03600
C 	C 	0.81317 0.63223 0.58943 0.03800
C 	C 	0.79890 0.67890 0.59150 -0.03300
C 	C 	0.83371 0.58521 0.44533 0.03900
C 	C 	0.78380 0.59160 0.47060 -0.02700
C 	C 	0.77706 0.73522 0.40842 0.07400
C 	C 	0.79191 0.75225 0.32359 0.00600
C 	C 	0.90918 0.72480 0.41474 0.03800
C 	C 	0.88234 0.76286 0.38244 -0.03800
C 	C 	0.96517 0.58943 0.63223 0.03800
C 	C 	0.93070 0.59150 0.67890 -0.03300
C 	C 	0.13575 0.44533 0.58521 0.03900
C 	C 	0.15400 0.47060 0.59160 -0.02700
C 	C 	0.07930 0.40842 0.73522 0.07400
C 	C 	0.13225 0.32359 0.75225 0.00500
C 	C 	0.95128 0.41474 0.72480 0.03800
C 	C 	0.97236 0.38244 0.76286 -0.03600
C 	C 	0.63223 0.96517 0.58943 0.03800
C 	C 	0.67890 0.93070 0.59150 -0.03300
C 	C 	0.58521 0.13575 0.44533 0.03900
C 	C 	0.59160 0.15400 0.47060 -0.02700
C 	C 	0.73522 0.07930 0.40842 0.07400
C 	C 	0.75225 0.13225 0.32359 0.00500
C 	C 	0.72480 0.95128 0.41474 0.03800
C 	C 	0.76286 0.97236 0.38244 -0.03600
C 	C 	0.58943 0.81317 0.63223 0.03800
C 	C 	0.59150 0.79890 0.67890 -0.03300
C 	C 	0.44533 0.83371 0.58521 0.03900
C 	C 	0.47060 0.78380 0.59160 -0.02700
C 	C 	0.40842 0.77706 0.73522 0.07400
C 	C 	0.32359 0.79191 0.75225 0.00600
C 	C 	0.41474 0.90918 0.72480 0.03800
C 	C 	0.38244 0.88234 0.76286 -0.03800
C 	C 	0.81317 0.58943 0.96517 0.03900
C 	C 	0.79890 0.59150 0.93070 -0.03300
C 	C 	0.83371 0.44533 0.13575 0.03900
C 	C 	0.78380 0.47060 0.15400 -0.02700
C 	C 	0.77706 0.40842 0.07930 0.07400
C 	C 	0.79191 0.32359 0.13225 0.00500
C 	C 	0.90918 0.41474 0.95128 0.03800
C 	C 	0.88234 0.38244 0.97236 -0.03600
C 	C 	0.96517 0.63223 0.81317 0.03900
C 	C 	0.93070 0.67890 0.79890 -0.03300
C 	C 	0.13575 0.58521 0.83371 0.03900
C 	C 	0.15400 0.59160 0.78380 -0.02700
C 	C 	0.07930 0.73522 0.77706 0.07400
C 	C 	0.13225 0.75225 0.79191 0.00500
C 	C 	0.95128 0.72480 0.90918 0.03700
C 	C 	0.97236 0.76286 0.88234 -0.03300
C 	C 	0.41057 0.36777 0.18683 0.03800
C 	C 	0.40850 0.32110 0.20110 -0.03300
C 	C 	0.55467 0.41479 0.16629 0.03900
C 	C 	0.52940 0.40840 0.21620 -0.02700
C 	C 	0.59158 0.26478 0.22294 0.07400
C 	C 	0.67641 0.24775 0.20809 0.00600
C 	C 	0.58526 0.27520 0.09082 0.03800
C 	C 	0.61756 0.23714 0.11766 -0.03800
C 	C 	0.36777 0.41057 0.03483 0.03800
C 	C 	0.32110 0.40850 0.06930 -0.03300
C 	C 	0.41479 0.55467 0.86425 0.03900
C 	C 	0.40840 0.52940 0.84600 -0.02700
C 	C 	0.26478 0.59158 0.92070 0.07400
C 	C 	0.24775 0.67641 0.86775 0.00500
C 	C 	0.27520 0.58526 0.04872 0.03800
C 	C 	0.23714 0.61756 0.02764 -0.03600
C 	C 	0.03483 0.18683 0.36777 0.03900
C 	C 	0.06930 0.20110 0.32110 -0.03300
C 	C 	0.86425 0.16629 0.41479 0.03900
C 	C 	0.84600 0.21620 0.40840 -0.02700
C 	C 	0.92070 0.22294 0.26478 0.07400
C 	C 	0.86775 0.20809 0.24775 0.00500
C 	C 	0.04872 0.09082 0.27520 0.03700
C 	C 	0.02764 0.11766 0.23714 -0.03300
C 	C 	0.18683 0.03483 0.41057 0.03900
C 	C 	0.20110 0.06930 0.40850 -0.03300
C 	C 	0.16629 0.86425 0.55467 0.03900
C 	C 	0.21620 0.84600 0.52940 -0.02700
C 	C 	0.22294 0.92070 0.59158 0.07400
C 	C 	0.20809 0.86775 0.67641 0.00500
C 	C 	0.09082 0.04872 0.58526 0.03800
C 	C 	0.11766 0.02764 0.61756 -0.03600
C 	C 	0.18683 0.36777 0.03483 0.03900
C 	C 	0.20110 0.32110 0.06930 -0.03300
C 	C 	0.16629 0.41479 0.86425 0.03900
C 	C 	0.21620 0.40840 0.84600 -0.02700
C 	C 	0.22294 0.26478 0.92070 0.07400
C 	C 	0.20809 0.24775 0.86775 0.00500
C 	C 	0.09082 0.27520 0.04872 0.03700
C 	C 	0.11766 0.23714 0.02764 -0.03300
C 	C 	0.03483 0.41057 0.18683 0.03900
C 	C 	0.06930 0.40850 0.20110 -0.03300
C 	C 	0.86425 0.55467 0.16629 0.03900
C 	C 	0.84600 0.52940 0.21620 -0.02700
C 	C 	0.92070 0.59158 0.22294 0.07400
C 	C 	0.86775 0.67641 0.20809 0.00500
C 	C 	0.04872 0.58526 0.09082 0.03800
C 	C 	0.02764 0.61756 0.11766 -0.03600
C 	C 	0.36777 0.18683 0.41057 0.03800
C 	C 	0.32110 0.20110 0.40850 -0.03300
C 	C 	0.41479 0.16629 0.55467 0.03900
C 	C 	0.40840 0.21620 0.52940 -0.02700
C 	C 	0.26478 0.22294 0.59158 0.07400
C 	C 	0.24775 0.20809 0.67641 0.00600
C 	C 	0.27520 0.09082 0.58526 0.03800
C 	C 	0.23714 0.11766 0.61756 -0.03800
C 	C 	0.41057 0.03483 0.36777 0.03800
C 	C 	0.40850 0.06930 0.32110 -0.03300
C 	C 	0.55467 0.86425 0.41479 0.03900
C 	C 	0.52940 0.84600 0.40840 -0.02700
C 	C 	0.59158 0.92070 0.26478 0.07400
C 	C 	0.67641 0.86775 0.24775 0.00500
C 	C 	0.58526 0.04872 0.27520 0.03800
C 	C 	0.61756 0.02764 0.23714 -0.03600
C 	C 	0.03483 0.36777 0.41057 0.03800
C 	C 	0.06930 0.32110 0.40850 -0.03300
C 	C 	0.86425 0.41479 0.55467 0.03900
C 	C 	0.84600 0.40840 0.52940 -0.02700
C 	C 	0.92070 0.26478 0.59158 0.07400
C 	C 	0.86775 0.24775 0.67641 0.00500
C 	C 	0.04872 0.27520 0.58526 0.03800
C 	C 	0.02764 0.23714 0.61756 -0.03600
C 	C 	0.18683 0.41057 0.36777 0.03800
C 	C 	0.20110 0.40850 0.32110 -0.03300
C 	C 	0.16629 0.55467 0.41479 0.03900
C 	C 	0.21620 0.52940 0.40840 -0.02700
C 	C 	0.22294 0.59158 0.26478 0.07400
C 	C 	0.20809 0.67641 0.24775 0.00600
C 	C 	0.09082 0.58526 0.27520 0.03800
C 	C 	0.11766 0.61756 0.23714 -0.03800
C 	C 	0.41057 0.18683 0.03483 0.03900
C 	C 	0.40850 0.20110 0.06930 -0.03300
C 	C 	0.55467 0.16629 0.86425 0.03900
C 	C 	0.52940 0.21620 0.84600 -0.02700
C 	C 	0.59158 0.22294 0.92070 0.07400
C 	C 	0.67641 0.20809 0.86775 0.00500
C 	C 	0.58526 0.09082 0.04872 0.03800
C 	C 	0.61756 0.11766 0.02764 -0.03600
C 	C 	0.36777 0.03483 0.18683 0.03900
C 	C 	0.32110 0.06930 0.20110 -0.03300
C 	C 	0.41479 0.86425 0.16629 0.03900
C 	C 	0.40840 0.84600 0.21620 -0.02700
C 	C 	0.26478 0.92070 0.22294 0.07400
C 	C 	0.24775 0.86775 0.20809 0.00500
C 	C 	0.27520 0.04872 0.09082 0.03700
C 	C 	0.23714 0.02764 0.11766 -0.03300
C 	C 	0.43130 0.43130 0.16478 0.07500
C 	C 	0.43130 0.43130 0.97262 0.07500
C 	C 	0.16478 0.97262 0.43130 0.07500
C 	C 	0.97262 0.16478 0.43130 0.07500
C 	C 	0.43130 0.16478 0.97262 0.07500
C 	C 	0.43130 0.97262 0.16478 0.07500
C 	C 	0.16478 0.43130 0.43130 0.07500
C 	C 	0.97262 0.43130 0.43130 0.07500
C 	C 	0.43130 0.97262 0.43130 0.07500
C 	C 	0.43130 0.16478 0.43130 0.07500
C 	C 	0.16478 0.43130 0.97262 0.07500
C 	C 	0.97262 0.43130 0.16478 0.07500
C 	C 	0.56870 0.56870 0.83522 0.07500
C 	C 	0.56870 0.56870 0.02738 0.07500
C 	C 	0.02738 0.83522 0.56870 0.07500
C 	C 	0.83522 0.02738 0.56870 0.07500
C 	C 	0.83522 0.56870 0.02738 0.07500
C 	C 	0.02738 0.56870 0.83522 0.07500
C 	C 	0.56870 0.83522 0.56870 0.07500
C 	C 	0.56870 0.02738 0.56870 0.07500
C 	C 	0.02738 0.56870 0.56870 0.07500
C 	C 	0.83522 0.56870 0.56870 0.07500
C 	C 	0.56870 0.83522 0.02738 0.07500
C 	C 	0.56870 0.02738 0.83522 0.07500
C 	C 	0.41370 0.58630 0.08890 0.07700
C 	C 	0.58630 0.41370 0.91110 0.07700
C 	C 	0.08890 0.91110 0.41370 0.07700
C 	C 	0.91110 0.08890 0.58630 0.07700
C 	C 	0.41370 0.08890 0.91110 0.07700
C 	C 	0.58630 0.91110 0.08890 0.07700
C 	C 	0.08890 0.41370 0.58630 0.07700
C 	C 	0.91110 0.58630 0.41370 0.07700
C 	C 	0.41370 0.91110 0.58630 0.07700
C 	C 	0.58630 0.08890 0.41370 0.07700
C 	C 	0.08890 0.58630 0.91110 0.07700
C 	C 	0.91110 0.41370 0.08890 0.07700
C 	C 	0.41370 0.58630 0.91110 0.07700
C 	C 	0.58630 0.41370 0.08890 0.07700
C 	C 	0.08890 0.91110 0.58630 0.07700
C 	C 	0.91110 0.08890 0.41370 0.07700
C 	C 	0.91110 0.58630 0.08890 0.07700
C 	C 	0.08890 0.41370 0.91110 0.07700
C 	C 	0.58630 0.91110 0.41370 0.07700
C 	C 	0.41370 0.08890 0.58630 0.07700
C 	C 	0.08890 0.58630 0.41370 0.07700
C 	C 	0.91110 0.41370 0.58630 0.07700
C 	C 	0.41370 0.91110 0.08890 0.07700
C 	C 	0.58630 0.08890 0.91110 0.07700
C 	C 	0.25470 0.52130 0.25470 0.08500
C 	C 	0.52130 0.25470 0.96930 0.08500
C 	C 	0.25470 0.96930 0.25470 0.08500
C 	C 	0.96930 0.25470 0.52130 0.08500
C 	C 	0.25470 0.25470 0.96930 0.08500
C 	C 	0.52130 0.96930 0.25470 0.08500
C 	C 	0.25470 0.25470 0.52130 0.08500
C 	C 	0.96930 0.52130 0.25470 0.08500
C 	C 	0.25470 0.96930 0.52130 0.08500
C 	C 	0.52130 0.25470 0.25470 0.08500
C 	C 	0.25470 0.52130 0.96930 0.08500
C 	C 	0.96930 0.25470 0.25470 0.08500
C 	C 	0.47870 0.74530 0.74530 0.08500
C 	C 	0.74530 0.47870 0.03070 0.08500
C 	C 	0.03070 0.74530 0.74530 0.08500
C 	C 	0.74530 0.03070 0.47870 0.08500
C 	C 	0.74530 0.74530 0.03070 0.08500
C 	C 	0.03070 0.47870 0.74530 0.08500
C 	C 	0.74530 0.74530 0.47870 0.08500
C 	C 	0.47870 0.03070 0.74530 0.08500
C 	C 	0.03070 0.74530 0.47870 0.08500
C 	C 	0.74530 0.47870 0.74530 0.08500
C 	C 	0.47870 0.74530 0.03070 0.08500
C 	C 	0.74530 0.03070 0.74530 0.08500
C 	C 	0.34370 0.52978 0.06326 0.09800
C 	C 	0.52978 0.34370 0.06326 0.09800
C 	C 	0.06326 0.06326 0.34370 0.09800
C 	C 	0.06326 0.06326 0.52978 0.09800
C 	C 	0.34370 0.06326 0.06326 0.09800
C 	C 	0.52978 0.06326 0.06326 0.09800
C 	C 	0.06326 0.34370 0.52978 0.09800
C 	C 	0.06326 0.52978 0.34370 0.09800
C 	C 	0.34370 0.06326 0.52978 0.09800
C 	C 	0.52978 0.06326 0.34370 0.09800
C 	C 	0.06326 0.52978 0.06326 0.09800
C 	C 	0.06326 0.34370 0.06326 0.09800
C 	C 	0.47022 0.65630 0.93674 0.09800
C 	C 	0.65630 0.47022 0.93674 0.09800
C 	C 	0.93674 0.93674 0.65630 0.09800
C 	C 	0.93674 0.93674 0.47022 0.09800
C 	C 	0.93674 0.65630 0.93674 0.09800
C 	C 	0.93674 0.47022 0.93674 0.09800
C 	C 	0.65630 0.93674 0.47022 0.09800
C 	C 	0.47022 0.93674 0.65630 0.09800
C 	C 	0.93674 0.65630 0.47022 0.09800
C 	C 	0.93674 0.47022 0.65630 0.09800
C 	C 	0.47022 0.93674 0.93674 0.09800
C 	C 	0.65630 0.93674 0.93674 0.09800
N 	N 	0.32162 0.36198 0.21130 -0.05500
N 	N 	0.43140 0.54000 0.23300 -0.05900
N 	N 	0.27833 0.63425 0.19119 -0.12900
N 	N 	0.19931 0.64877 0.09617 -0.05700
N 	N 	0.38108 0.45184 0.17260 -0.27900
N 	N 	0.39404 0.55544 0.13618 -0.27400
N 	N 	0.28602 0.54660 0.21540 -0.28400
N 	N 	0.31987 0.54793 0.10143 -0.28200
N 	N 	0.36198 0.32162 0.10510 -0.05500
N 	N 	0.54000 0.43140 0.79560 -0.05900
N 	N 	0.63425 0.27833 0.89623 -0.12900
N 	N 	0.64877 0.19931 0.05575 -0.05700
N 	N 	0.45184 0.38108 0.99448 -0.27900
N 	N 	0.55544 0.39404 0.91434 -0.27400
N 	N 	0.54660 0.28602 0.95198 -0.28400
N 	N 	0.54793 0.31987 0.03077 -0.28100
N 	N 	0.21130 0.10510 0.32162 -0.05500
N 	N 	0.23300 0.79560 0.43140 -0.05900
N 	N 	0.19119 0.89623 0.27833 -0.12900
N 	N 	0.09617 0.05575 0.19931 -0.05700
N 	N 	0.17260 0.99448 0.38108 -0.28000
N 	N 	0.13618 0.91434 0.39404 -0.27400
N 	N 	0.21540 0.95198 0.28602 -0.28400
N 	N 	0.10143 0.03077 0.31987 -0.28100
N 	N 	0.10510 0.21130 0.36198 -0.05500
N 	N 	0.79560 0.23300 0.54000 -0.05900
N 	N 	0.89623 0.19119 0.63425 -0.12900
N 	N 	0.05575 0.09617 0.64877 -0.05700
N 	N 	0.99448 0.17260 0.45184 -0.28000
N 	N 	0.91434 0.13618 0.55544 -0.27400
N 	N 	0.95198 0.21540 0.54660 -0.28400
N 	N 	0.03077 0.10143 0.54793 -0.28100
N 	N 	0.32162 0.21130 0.10510 -0.05500
N 	N 	0.43140 0.23300 0.79560 -0.05900
N 	N 	0.27833 0.19119 0.89623 -0.12900
N 	N 	0.19931 0.09617 0.05575 -0.05700
N 	N 	0.38108 0.17260 0.99448 -0.28000
N 	N 	0.39404 0.13618 0.91434 -0.27400
N 	N 	0.28602 0.21540 0.95198 -0.28400
N 	N 	0.31987 0.10143 0.03077 -0.28100
N 	N 	0.36198 0.10510 0.21130 -0.05500
N 	N 	0.54000 0.79560 0.23300 -0.05900
N 	N 	0.63425 0.89623 0.19119 -0.12900
N 	N 	0.64877 0.05575 0.09617 -0.05700
N 	N 	0.45184 0.99448 0.17260 -0.28000
N 	N 	0.55544 0.91434 0.13618 -0.27400
N 	N 	0.54660 0.95198 0.21540 -0.28400
N 	N 	0.54793 0.03077 0.10143 -0.28100
N 	N 	0.21130 0.32162 0.36198 -0.05500
N 	N 	0.23300 0.43140 0.54000 -0.05900
N 	N 	0.19119 0.27833 0.63425 -0.12900
N 	N 	0.09617 0.19931 0.64877 -0.05700
N 	N 	0.17260 0.38108 0.45184 -0.27900
N 	N 	0.13618 0.39404 0.55544 -0.27400
N 	N 	0.21540 0.28602 0.54660 -0.28400
N 	N 	0.10143 0.31987 0.54793 -0.28200
N 	N 	0.10510 0.36198 0.32162 -0.05500
N 	N 	0.79560 0.54000 0.43140 -0.05900
N 	N 	0.89623 0.63425 0.27833 -0.12900
N 	N 	0.05575 0.64877 0.19931 -0.05700
N 	N 	0.99448 0.45184 0.38108 -0.27900
N 	N 	0.91434 0.55544 0.39404 -0.27400
N 	N 	0.95198 0.54660 0.28602 -0.28400
N 	N 	0.03077 0.54793 0.31987 -0.28100
N 	N 	0.32162 0.10510 0.36198 -0.05500
N 	N 	0.43140 0.79560 0.54000 -0.05900
N 	N 	0.27833 0.89623 0.63425 -0.12900
N 	N 	0.19931 0.05575 0.64877 -0.05700
N 	N 	0.38108 0.99448 0.45184 -0.27900
N 	N 	0.39404 0.91434 0.55544 -0.27400
N 	N 	0.28602 0.95198 0.54660 -0.28400
N 	N 	0.31987 0.03077 0.54793 -0.28100
N 	N 	0.36198 0.21130 0.32162 -0.05500
N 	N 	0.54000 0.23300 0.43140 -0.05900
N 	N 	0.63425 0.19119 0.27833 -0.12900
N 	N 	0.64877 0.09617 0.19931 -0.05700
N 	N 	0.45184 0.17260 0.38108 -0.27900
N 	N 	0.55544 0.13618 0.39404 -0.27400
N 	N 	0.54660 0.21540 0.28602 -0.28400
N 	N 	0.54793 0.10143 0.31987 -0.28200
N 	N 	0.21130 0.36198 0.10510 -0.05500
N 	N 	0.23300 0.54000 0.79560 -0.05900
N 	N 	0.19119 0.63425 0.89623 -0.12900
N 	N 	0.09617 0.64877 0.05575 -0.05700
N 	N 	0.17260 0.45184 0.99448 -0.28000
N 	N 	0.13618 0.55544 0.91434 -0.27400
N 	N 	0.21540 0.54660 0.95198 -0.28400
N 	N 	0.10143 0.54793 0.03077 -0.28100
N 	N 	0.10510 0.32162 0.21130 -0.05500
N 	N 	0.79560 0.43140 0.23300 -0.05900
N 	N 	0.89623 0.27833 0.19119 -0.12900
N 	N 	0.05575 0.19931 0.09617 -0.05700
N 	N 	0.99448 0.38108 0.17260 -0.28000
N 	N 	0.91434 0.39404 0.13618 -0.27400
N 	N 	0.95198 0.28602 0.21540 -0.28400
N 	N 	0.03077 0.31987 0.10143 -0.28100
N 	N 	0.63802 0.67838 0.78870 -0.05500
N 	N 	0.46000 0.56860 0.76700 -0.05900
N 	N 	0.36575 0.72167 0.80881 -0.12900
N 	N 	0.35123 0.80069 0.90383 -0.05700
N 	N 	0.54816 0.61892 0.82740 -0.27900
N 	N 	0.44456 0.60596 0.86382 -0.27400
N 	N 	0.45340 0.71398 0.78460 -0.28400
N 	N 	0.45207 0.68013 0.89857 -0.28200
N 	N 	0.67838 0.63802 0.89490 -0.05500
N 	N 	0.56860 0.46000 0.20440 -0.05900
N 	N 	0.72167 0.36575 0.10377 -0.12900
N 	N 	0.80069 0.35123 0.94425 -0.05700
N 	N 	0.61892 0.54816 0.00552 -0.27900
N 	N 	0.60596 0.44456 0.08566 -0.27400
N 	N 	0.71398 0.45340 0.04802 -0.28400
N 	N 	0.68013 0.45207 0.96923 -0.28100
N 	N 	0.89490 0.78870 0.67838 -0.05500
N 	N 	0.20440 0.76700 0.56860 -0.05900
N 	N 	0.10377 0.80881 0.72167 -0.12900
N 	N 	0.94425 0.90383 0.80069 -0.05700
N 	N 	0.00552 0.82740 0.61892 -0.28000
N 	N 	0.08566 0.86382 0.60596 -0.27400
N 	N 	0.04802 0.78460 0.71398 -0.28400
N 	N 	0.96923 0.89857 0.68013 -0.28100
N 	N 	0.78870 0.89490 0.63802 -0.05500
N 	N 	0.76700 0.20440 0.46000 -0.05900
N 	N 	0.80881 0.10377 0.36575 -0.12900
N 	N 	0.90383 0.94425 0.35123 -0.05700
N 	N 	0.82740 0.00552 0.54816 -0.28000
N 	N 	0.86382 0.08566 0.44456 -0.27400
N 	N 	0.78460 0.04802 0.45340 -0.28400
N 	N 	0.89857 0.96923 0.45207 -0.28100
N 	N 	0.78870 0.67838 0.89490 -0.05500
N 	N 	0.76700 0.56860 0.20440 -0.05900
N 	N 	0.80881 0.72167 0.10377 -0.12900
N 	N 	0.90383 0.80069 0.94425 -0.05700
N 	N 	0.82740 0.61892 0.00552 -0.28000
N 	N 	0.86382 0.60596 0.08566 -0.27400
N 	N 	0.78460 0.71398 0.04802 -0.28400
N 	N 	0.89857 0.68013 0.96923 -0.28100
N 	N 	0.89490 0.63802 0.78870 -0.05500
N 	N 	0.20440 0.46000 0.76700 -0.05900
N 	N 	0.10377 0.36575 0.80881 -0.12900
N 	N 	0.94425 0.35123 0.90383 -0.05700
N 	N 	0.00552 0.54816 0.82740 -0.28000
N 	N 	0.08566 0.44456 0.86382 -0.27400
N 	N 	0.04802 0.45340 0.78460 -0.28400
N 	N 	0.96923 0.45207 0.89857 -0.28100
N 	N 	0.67838 0.78870 0.63802 -0.05500
N 	N 	0.56860 0.76700 0.46000 -0.05900
N 	N 	0.72167 0.80881 0.36575 -0.12900
N 	N 	0.80069 0.90383 0.35123 -0.05700
N 	N 	0.61892 0.82740 0.54816 -0.27900
N 	N 	0.60596 0.86382 0.44456 -0.27400
N 	N 	0.71398 0.78460 0.45340 -0.28400
N 	N 	0.68013 0.89857 0.45207 -0.28200
N 	N 	0.63802 0.89490 0.67838 -0.05500
N 	N 	0.46000 0.20440 0.56860 -0.05900
N 	N 	0.36575 0.10377 0.72167 -0.12900
N 	N 	0.35123 0.94425 0.80069 -0.05700
N 	N 	0.54816 0.00552 0.61892 -0.27900
N 	N 	0.44456 0.08566 0.60596 -0.27400
N 	N 	0.45340 0.04802 0.71398 -0.28400
N 	N 	0.45207 0.96923 0.68013 -0.28100
N 	N 	0.89490 0.67838 0.63802 -0.05500
N 	N 	0.20440 0.56860 0.46000 -0.05900
N 	N 	0.10377 0.72167 0.36575 -0.12900
N 	N 	0.94425 0.80069 0.35123 -0.05700
N 	N 	0.00552 0.61892 0.54816 -0.27900
N 	N 	0.08566 0.60596 0.44456 -0.27400
N 	N 	0.04802 0.71398 0.45340 -0.28400
N 	N 	0.96923 0.68013 0.45207 -0.28100
N 	N 	0.78870 0.63802 0.67838 -0.05500
N 	N 	0.76700 0.46000 0.56860 -0.05900
N 	N 	0.80881 0.36575 0.72167 -0.12900
N 	N 	0.90383 0.35123 0.80069 -0.05700
N 	N 	0.82740 0.54816 0.61892 -0.27900
N 	N 	0.86382 0.44456 0.60596 -0.27400
N 	N 	0.78460 0.45340 0.71398 -0.28400
N 	N 	0.89857 0.45207 0.68013 -0.28200
N 	N 	0.63802 0.78870 0.89490 -0.05500
N 	N 	0.46000 0.76700 0.20440 -0.05900
N 	N 	0.36575 0.80881 0.10377 -0.12900
N 	N 	0.35123 0.90383 0.94425 -0.05700
N 	N 	0.54816 0.82740 0.00552 -0.28000
N 	N 	0.44456 0.86382 0.08566 -0.27400
N 	N 	0.45340 0.78460 0.04802 -0.28400
N 	N 	0.45207 0.89857 0.96923 -0.28100
N 	N 	0.67838 0.89490 0.78870 -0.05500
N 	N 	0.56860 0.20440 0.76700 -0.05900
N 	N 	0.72167 0.10377 0.80881 -0.12900
N 	N 	0.80069 0.94425 0.90383 -0.05700
N 	N 	0.61892 0.00552 0.82740 -0.28000
N 	N 	0.60596 0.08566 0.86382 -0.27400
N 	N 	0.71398 0.04802 0.78460 -0.28400
N 	N 	0.68013 0.96923 0.89857 -0.28100
N 	N 	0.67838 0.63802 0.78870 -0.05500
N 	N 	0.56860 0.46000 0.76700 -0.05900
N 	N 	0.72167 0.36575 0.80881 -0.12900
N 	N 	0.80069 0.35123 0.90383 -0.05700
N 	N 	0.61892 0.54816 0.82740 -0.27900
N 	N 	0.60596 0.44456 0.86382 -0.27400
N 	N 	0.71398 0.45340 0.78460 -0.28400
N 	N 	0.68013 0.45207 0.89857 -0.28200
N 	N 	0.63802 0.67838 0.89490 -0.05500
N 	N 	0.46000 0.56860 0.20440 -0.05900
N 	N 	0.36575 0.72167 0.10377 -0.12900
N 	N 	0.35123 0.80069 0.94425 -0.05700
N 	N 	0.54816 0.61892 0.00552 -0.27900
N 	N 	0.44456 0.60596 0.08566 -0.27400
N 	N 	0.45340 0.71398 0.04802 -0.28400
N 	N 	0.45207 0.68013 0.96923 -0.28100
N 	N 	0.78870 0.89490 0.67838 -0.05500
N 	N 	0.76700 0.20440 0.56860 -0.05900
N 	N 	0.80881 0.10377 0.72167 -0.12900
N 	N 	0.90383 0.94425 0.80069 -0.05700
N 	N 	0.82740 0.00552 0.61892 -0.28000
N 	N 	0.86382 0.08566 0.60596 -0.27400
N 	N 	0.78460 0.04802 0.71398 -0.28400
N 	N 	0.89857 0.96923 0.68013 -0.28100
N 	N 	0.89490 0.78870 0.63802 -0.05500
N 	N 	0.20440 0.76700 0.46000 -0.05900
N 	N 	0.10377 0.80881 0.36575 -0.12900
N 	N 	0.94425 0.90383 0.35123 -0.05700
N 	N 	0.00552 0.82740 0.54816 -0.28000
N 	N 	0.08566 0.86382 0.44456 -0.27400
N 	N 	0.04802 0.78460 0.45340 -0.28400
N 	N 	0.96923 0.89857 0.45207 -0.28100
N 	N 	0.67838 0.78870 0.89490 -0.05500
N 	N 	0.56860 0.76700 0.20440 -0.05900
N 	N 	0.72167 0.80881 0.10377 -0.12900
N 	N 	0.80069 0.90383 0.94425 -0.05700
N 	N 	0.61892 0.82740 0.00552 -0.28000
N 	N 	0.60596 0.86382 0.08566 -0.27400
N 	N 	0.71398 0.78460 0.04802 -0.28400
N 	N 	0.68013 0.89857 0.96923 -0.28100
N 	N 	0.63802 0.89490 0.78870 -0.05500
N 	N 	0.46000 0.20440 0.76700 -0.05900
N 	N 	0.36575 0.10377 0.80881 -0.12900
N 	N 	0.35123 0.94425 0.90383 -0.05700
N 	N 	0.54816 0.00552 0.82740 -0.28000
N 	N 	0.44456 0.08566 0.86382 -0.27400
N 	N 	0.45340 0.04802 0.78460 -0.28400
N 	N 	0.45207 0.96923 0.89857 -0.28100
N 	N 	0.78870 0.67838 0.63802 -0.05500
N 	N 	0.76700 0.56860 0.46000 -0.05900
N 	N 	0.80881 0.72167 0.36575 -0.12900
N 	N 	0.90383 0.80069 0.35123 -0.05700
N 	N 	0.82740 0.61892 0.54816 -0.27900
N 	N 	0.86382 0.60596 0.44456 -0.27400
N 	N 	0.78460 0.71398 0.45340 -0.28400
N 	N 	0.89857 0.68013 0.45207 -0.28200
N 	N 	0.89490 0.63802 0.67838 -0.05500
N 	N 	0.20440 0.46000 0.56860 -0.05900
N 	N 	0.10377 0.36575 0.72167 -0.12900
N 	N 	0.94425 0.35123 0.80069 -0.05700
N 	N 	0.00552 0.54816 0.61892 -0.27900
N 	N 	0.08566 0.44456 0.60596 -0.27400
N 	N 	0.04802 0.45340 0.71398 -0.28400
N 	N 	0.96923 0.45207 0.68013 -0.28100
N 	N 	0.67838 0.89490 0.63802 -0.05500
N 	N 	0.56860 0.20440 0.46000 -0.05900
N 	N 	0.72167 0.10377 0.36575 -0.12900
N 	N 	0.80069 0.94425 0.35123 -0.05700
N 	N 	0.61892 0.00552 0.54816 -0.27900
N 	N 	0.60596 0.08566 0.44456 -0.27400
N 	N 	0.71398 0.04802 0.45340 -0.28400
N 	N 	0.68013 0.96923 0.45207 -0.28100
N 	N 	0.63802 0.78870 0.67838 -0.05500
N 	N 	0.46000 0.76700 0.56860 -0.05900
N 	N 	0.36575 0.80881 0.72167 -0.12900
N 	N 	0.35123 0.90383 0.80069 -0.05700
N 	N 	0.54816 0.82740 0.61892 -0.27900
N 	N 	0.44456 0.86382 0.60596 -0.27400
N 	N 	0.45340 0.78460 0.71398 -0.28400
N 	N 	0.45207 0.89857 0.68013 -0.28200
N 	N 	0.78870 0.63802 0.89490 -0.05500
N 	N 	0.76700 0.46000 0.20440 -0.05900
N 	N 	0.80881 0.36575 0.10377 -0.12900
N 	N 	0.90383 0.35123 0.94425 -0.05700
N 	N 	0.82740 0.54816 0.00552 -0.28000
N 	N 	0.86382 0.44456 0.08566 -0.27400
N 	N 	0.78460 0.45340 0.04802 -0.28400
N 	N 	0.89857 0.45207 0.96923 -0.28100
N 	N 	0.89490 0.67838 0.78870 -0.05500
N 	N 	0.20440 0.56860 0.76700 -0.05900
N 	N 	0.10377 0.72167 0.80881 -0.12900
N 	N 	0.94425 0.80069 0.90383 -0.05700
N 	N 	0.00552 0.61892 0.82740 -0.28000
N 	N 	0.08566 0.60596 0.86382 -0.27400
N 	N 	0.04802 0.71398 0.78460 -0.28400
N 	N 	0.96923 0.68013 0.89857 -0.28100
N 	N 	0.36198 0.32162 0.21130 -0.05500
N 	N 	0.54000 0.43140 0.23300 -0.05900
N 	N 	0.63425 0.27833 0.19119 -0.12900
N 	N 	0.64877 0.19931 0.09617 -0.05700
N 	N 	0.45184 0.38108 0.17260 -0.27900
N 	N 	0.55544 0.39404 0.13618 -0.27400
N 	N 	0.54660 0.28602 0.21540 -0.28400
N 	N 	0.54793 0.31987 0.10143 -0.28200
N 	N 	0.32162 0.36198 0.10510 -0.05500
N 	N 	0.43140 0.54000 0.79560 -0.05900
N 	N 	0.27833 0.63425 0.89623 -0.12900
N 	N 	0.19931 0.64877 0.05575 -0.05700
N 	N 	0.38108 0.45184 0.99448 -0.27900
N 	N 	0.39404 0.55544 0.91434 -0.27400
N 	N 	0.28602 0.54660 0.95198 -0.28400
N 	N 	0.31987 0.54793 0.03077 -0.28100
N 	N 	0.10510 0.21130 0.32162 -0.05500
N 	N 	0.79560 0.23300 0.43140 -0.05900
N 	N 	0.89623 0.19119 0.27833 -0.12900
N 	N 	0.05575 0.09617 0.19931 -0.05700
N 	N 	0.99448 0.17260 0.38108 -0.28000
N 	N 	0.91434 0.13618 0.39404 -0.27400
N 	N 	0.95198 0.21540 0.28602 -0.28400
N 	N 	0.03077 0.10143 0.31987 -0.28100
N 	N 	0.21130 0.10510 0.36198 -0.05500
N 	N 	0.23300 0.79560 0.54000 -0.05900
N 	N 	0.19119 0.89623 0.63425 -0.12900
N 	N 	0.09617 0.05575 0.64877 -0.05700
N 	N 	0.17260 0.99448 0.45184 -0.28000
N 	N 	0.13618 0.91434 0.55544 -0.27400
N 	N 	0.21540 0.95198 0.54660 -0.28400
N 	N 	0.10143 0.03077 0.54793 -0.28100
N 	N 	0.21130 0.32162 0.10510 -0.05500
N 	N 	0.23300 0.43140 0.79560 -0.05900
N 	N 	0.19119 0.27833 0.89623 -0.12900
N 	N 	0.09617 0.19931 0.05575 -0.05700
N 	N 	0.17260 0.38108 0.99448 -0.28000
N 	N 	0.13618 0.39404 0.91434 -0.27400
N 	N 	0.21540 0.28602 0.95198 -0.28400
N 	N 	0.10143 0.31987 0.03077 -0.28100
N 	N 	0.10510 0.36198 0.21130 -0.05500
N 	N 	0.79560 0.54000 0.23300 -0.05900
N 	N 	0.89623 0.63425 0.19119 -0.12900
N 	N 	0.05575 0.64877 0.09617 -0.05700
N 	N 	0.99448 0.45184 0.17260 -0.28000
N 	N 	0.91434 0.55544 0.13618 -0.27400
N 	N 	0.95198 0.54660 0.21540 -0.28400
N 	N 	0.03077 0.54793 0.10143 -0.28100
N 	N 	0.32162 0.21130 0.36198 -0.05500
N 	N 	0.43140 0.23300 0.54000 -0.05900
N 	N 	0.27833 0.19119 0.63425 -0.12900
N 	N 	0.19931 0.09617 0.64877 -0.05700
N 	N 	0.38108 0.17260 0.45184 -0.27900
N 	N 	0.39404 0.13618 0.55544 -0.27400
N 	N 	0.28602 0.21540 0.54660 -0.28400
N 	N 	0.31987 0.10143 0.54793 -0.28200
N 	N 	0.36198 0.10510 0.32162 -0.05500
N 	N 	0.54000 0.79560 0.43140 -0.05900
N 	N 	0.63425 0.89623 0.27833 -0.12900
N 	N 	0.64877 0.05575 0.19931 -0.05700
N 	N 	0.45184 0.99448 0.38108 -0.27900
N 	N 	0.55544 0.91434 0.39404 -0.27400
N 	N 	0.54660 0.95198 0.28602 -0.28400
N 	N 	0.54793 0.03077 0.31987 -0.28100
N 	N 	0.10510 0.32162 0.36198 -0.05500
N 	N 	0.79560 0.43140 0.54000 -0.05900
N 	N 	0.89623 0.27833 0.63425 -0.12900
N 	N 	0.05575 0.19931 0.64877 -0.05700
N 	N 	0.99448 0.38108 0.45184 -0.27900
N 	N 	0.91434 0.39404 0.55544 -0.27400
N 	N 	0.95198 0.28602 0.54660 -0.28400
N 	N 	0.03077 0.31987 0.54793 -0.28100
N 	N 	0.21130 0.36198 0.32162 -0.05500
N 	N 	0.23300 0.54000 0.43140 -0.05900
N 	N 	0.19119 0.63425 0.27833 -0.12900
N 	N 	0.09617 0.64877 0.19931 -0.05700
N 	N 	0.17260 0.45184 0.38108 -0.27900
N 	N 	0.13618 0.55544 0.39404 -0.27400
N 	N 	0.21540 0.54660 0.28602 -0.28400
N 	N 	0.10143 0.54793 0.31987 -0.28200
N 	N 	0.36198 0.21130 0.10510 -0.05500
N 	N 	0.54000 0.23300 0.79560 -0.05900
N 	N 	0.63425 0.19119 0.89623 -0.12900
N 	N 	0.64877 0.09617 0.05575 -0.05700
N 	N 	0.45184 0.17260 0.99448 -0.28000
N 	N 	0.55544 0.13618 0.91434 -0.27400
N 	N 	0.54660 0.21540 0.95198 -0.28400
N 	N 	0.54793 0.10143 0.03077 -0.28100
N 	N 	0.32162 0.10510 0.21130 -0.05500
N 	N 	0.43140 0.79560 0.23300 -0.05900
N 	N 	0.27833 0.89623 0.19119 -0.12900
N 	N 	0.19931 0.05575 0.09617 -0.05700
N 	N 	0.38108 0.99448 0.17260 -0.28000
N 	N 	0.39404 0.91434 0.13618 -0.27400
N 	N 	0.28602 0.95198 0.21540 -0.28400
N 	N 	0.31987 0.03077 0.10143 -0.28100
