data_crystal

_cell_length_a 7.45950
_cell_length_b 11.47400
_cell_length_c 16.47670
_cell_angle_alpha 98.95110
_cell_angle_beta  90.98630
_cell_angle_gamma 91.31090

_symmetry_space_group_name_	'P 1'
_symmetry_space_group_name_H-M	'P 1'

loop_
_symmetry_equiv_pos_as_xyz
  x,y,z

loop_
_atom_site_label
_atom_site_type_symbol
_atom_site_fract_x
_atom_site_fract_y
_atom_site_fract_z
_atom_site_charge
Pr	Pr	0.75915 0.57644 0.00495 2.05800
Pr	Pr	0.24085 0.42356 0.99505 2.05800
H 	H 	0.31280 0.39130 0.41070 0.06100
H 	H 	0.08690 0.35880 0.51380 0.05600
H 	H 	0.94690 0.00600 0.68450 0.06200
H 	H 	0.10010 0.82310 0.70330 0.06500
H 	H 	0.40930 0.08240 0.48510 0.14000
H 	H 	0.79980 0.21580 0.53020 0.06700
H 	H 	0.58540 0.33140 0.60490 0.04300
H 	H 	0.63210 0.39780 0.74440 0.04300
H 	H 	0.10720 0.23290 0.73740 0.05600
H 	H 	0.80840 0.39840 0.41500 0.05700
H 	H 	0.89040 0.54180 0.33590 0.04400
H 	H 	0.75430 0.54310 0.20720 0.02400
H 	H 	0.44570 0.25920 0.23890 0.06800
H 	H 	0.19120 0.73700 0.94240 -0.10100
H 	H 	0.68720 0.60870 0.58930 0.06100
H 	H 	0.91310 0.64120 0.48620 0.05600
H 	H 	0.05310 0.99400 0.31550 0.06200
H 	H 	0.89990 0.17690 0.29670 0.06500
H 	H 	0.59070 0.91760 0.51490 0.14000
H 	H 	0.20020 0.78420 0.46980 0.06700
H 	H 	0.41460 0.66860 0.39510 0.04300
H 	H 	0.36790 0.60220 0.25560 0.04300
H 	H 	0.89280 0.76710 0.26260 0.05600
H 	H 	0.19160 0.60160 0.58500 0.05700
H 	H 	0.10960 0.45820 0.66410 0.04400
H 	H 	0.24570 0.45690 0.79280 0.02400
H 	H 	0.55430 0.74080 0.76110 0.06800
H 	H 	0.80880 0.26300 0.05760 -0.10100
C 	C 	0.42320 0.22800 0.43060 0.11600
C 	C 	0.30530 0.32560 0.43920 -0.08200
C 	C 	0.18090 0.30730 0.49540 -0.08000
C 	C 	0.21600 0.19670 0.52210 0.11900
C 	C 	0.12300 0.14590 0.58100 -0.09900
C 	C 	0.16420 0.03710 0.60540 0.09900
C 	C 	0.05600 0.97890 0.66030 -0.07300
C 	C 	0.13890 0.87950 0.67040 -0.07500
C 	C 	0.29860 0.87470 0.62170 0.09700
C 	C 	0.57750 0.21660 0.38310 -0.10000
C 	C 	0.97750 0.21490 0.62620 0.05400
C 	C 	0.81970 0.24330 0.58710 -0.08500
C 	C 	0.69180 0.31180 0.63170 -0.02800
C 	C 	0.71960 0.35110 0.71450 -0.01400
C 	C 	0.87480 0.32290 0.75440 -0.08700
C 	C 	0.00230 0.25370 0.71000 -0.05200
C 	C 	0.91090 0.37030 0.84400 0.40900
C 	C 	0.62020 0.31280 0.33420 0.05300
C 	C 	0.75190 0.39860 0.36290 -0.08000
C 	C 	0.80070 0.48380 0.31580 -0.03200
C 	C 	0.71970 0.48510 0.23970 -0.00900
C 	C 	0.58750 0.40090 0.21120 -0.08500
C 	C 	0.53750 0.31590 0.25850 -0.05000
C 	C 	0.49520 0.40030 0.12990 0.37200
C 	C 	0.08250 0.70130 0.95680 0.43100
C 	C 	0.57680 0.77200 0.56940 0.11600
C 	C 	0.69470 0.67440 0.56080 -0.08200
C 	C 	0.81910 0.69270 0.50460 -0.08000
C 	C 	0.78400 0.80330 0.47790 0.11900
C 	C 	0.87700 0.85410 0.41900 -0.09900
C 	C 	0.83580 0.96290 0.39460 0.09900
C 	C 	0.94400 0.02110 0.33970 -0.07300
C 	C 	0.86110 0.12050 0.32960 -0.07500
C 	C 	0.70140 0.12530 0.37830 0.09700
C 	C 	0.42250 0.78340 0.61690 -0.10000
C 	C 	0.02250 0.78510 0.37380 0.05400
C 	C 	0.18030 0.75670 0.41290 -0.08500
C 	C 	0.30820 0.68820 0.36830 -0.02800
C 	C 	0.28040 0.64890 0.28550 -0.01400
C 	C 	0.12520 0.67710 0.24560 -0.08700
C 	C 	0.99770 0.74630 0.29000 -0.05200
C 	C 	0.08910 0.62970 0.15600 0.40900
C 	C 	0.37980 0.68720 0.66580 0.05300
C 	C 	0.24810 0.60140 0.63710 -0.08000
C 	C 	0.19930 0.51620 0.68420 -0.03200
C 	C 	0.28030 0.51490 0.76030 -0.00900
C 	C 	0.41250 0.59910 0.78880 -0.08500
C 	C 	0.46250 0.68410 0.74150 -0.05000
C 	C 	0.50480 0.59970 0.87010 0.37200
C 	C 	0.91750 0.29870 0.04320 0.43100
N 	N 	0.36190 0.15070 0.48057 -0.21800
N 	N 	0.31020 0.97100 0.58218 -0.14200
N 	N 	0.63810 0.84930 0.51943 -0.21800
N 	N 	0.68980 0.02900 0.41782 -0.14200
O 	O 	0.78870 0.42600 0.88302 -0.49700
O 	O 	0.06310 0.34890 0.87358 -0.50700
O 	O 	0.54960 0.46900 0.08066 -0.61700
O 	O 	0.36180 0.33290 0.11180 -0.45000
O 	O 	0.95660 0.76570 0.97840 -0.41300
O 	O 	0.07510 0.58980 0.95257 -0.61800
O 	O 	0.21130 0.57400 0.11698 -0.49700
O 	O 	0.93690 0.65110 0.12642 -0.50700
O 	O 	0.45040 0.53100 0.91934 -0.61700
O 	O 	0.63820 0.66710 0.88820 -0.45000
O 	O 	0.04340 0.23430 0.02160 -0.41300
O 	O 	0.92490 0.41020 0.04743 -0.61800
