data_crystal

_cell_length_a 17.22100
_cell_length_b 17.22100
_cell_length_c 40.96490
_cell_angle_alpha 90.00000
_cell_angle_beta  90.00000
_cell_angle_gamma 90.00000

_symmetry_space_group_name_	'P 1'
_symmetry_space_group_name_H-M	'P 1'

loop_
_symmetry_equiv_pos_as_xyz
  x,y,z

loop_
_atom_site_label
_atom_site_type_symbol
_atom_site_fract_x
_atom_site_fract_y
_atom_site_fract_z
_atom_site_charge
N 	N 	0.93910 0.81020 0.12971 -0.27600
C 	C 	0.86140 0.81620 0.13070 0.16300
H 	H 	0.83520 0.79160 0.14770 -0.05300
C 	C 	0.81870 0.85620 0.10840 -0.30700
H 	H 	0.76500 0.85850 0.11040 0.12400
C 	C 	0.85560 0.89350 0.08261 0.27900
C 	C 	0.93550 0.89030 0.08180 -0.34400
H 	H 	0.96250 0.91690 0.06560 0.16500
C 	C 	0.97590 0.84830 0.10486 0.27500
H 	H 	0.02970 0.84570 0.10350 -0.11900
C 	C 	0.80820 0.93950 0.05750 -0.42400
H 	H 	0.78060 0.98060 0.06880 0.14300
H 	H 	0.84370 0.96360 0.04220 0.14900
C 	C 	0.75020 0.89150 0.03860 0.20900
H 	H 	0.71480 0.86660 0.05370 -0.04300
H 	H 	0.77740 0.85110 0.02670 -0.04000
C 	C 	0.70390 0.94050 0.01470 -0.41100
H 	H 	0.67120 0.97590 0.02690 0.13800
H 	H 	0.73970 0.97140 0.00180 0.13800
N 	N 	0.56300 0.80640 0.94887 -0.26500
C 	C 	0.64090 0.80400 0.94770 0.13600
H 	H 	0.66460 0.77270 0.93210 -0.04800
C 	C 	0.68730 0.84650 0.96890 -0.27000
H 	H 	0.74110 0.84300 0.96740 0.11200
C 	C 	0.65400 0.89370 0.99210 0.24700
C 	C 	0.57360 0.89510 0.99330 -0.27200
H 	H 	0.54850 0.92660 0.00850 0.11200
C 	C 	0.53040 0.84960 0.97200 0.14300
H 	H 	0.47660 0.84930 0.97390 -0.04700
N 	N 	0.43910 0.31020 0.62971 -0.26000
C 	C 	0.36140 0.31620 0.63070 0.13800
H 	H 	0.33520 0.29160 0.64770 -0.04800
C 	C 	0.31870 0.35620 0.60840 -0.26400
H 	H 	0.26500 0.35850 0.61040 0.10700
C 	C 	0.35560 0.39350 0.58261 0.22100
C 	C 	0.43550 0.39030 0.58180 -0.25100
H 	H 	0.46250 0.41690 0.56560 0.11400
C 	C 	0.47590 0.34830 0.60486 0.12500
H 	H 	0.52970 0.34570 0.60350 -0.03300
C 	C 	0.30820 0.43950 0.55750 -0.36900
H 	H 	0.28060 0.48060 0.56880 0.12600
H 	H 	0.34370 0.46360 0.54220 0.13000
C 	C 	0.25020 0.39150 0.53860 0.15700
H 	H 	0.21480 0.36660 0.55370 -0.03000
H 	H 	0.27740 0.35110 0.52670 -0.02600
C 	C 	0.20390 0.44050 0.51470 -0.35200
H 	H 	0.17120 0.47590 0.52690 0.11700
H 	H 	0.23970 0.47140 0.50180 0.12000
N 	N 	0.06300 0.30640 0.44887 -0.24200
C 	C 	0.14090 0.30400 0.44770 0.10900
H 	H 	0.16460 0.27270 0.43210 -0.04000
C 	C 	0.18730 0.34650 0.46890 -0.22700
H 	H 	0.24110 0.34300 0.46740 0.09500
C 	C 	0.15400 0.39370 0.49210 0.18500
C 	C 	0.07360 0.39510 0.49330 -0.18100
H 	H 	0.04850 0.42660 0.50850 0.06300
C 	C 	0.03040 0.34960 0.47200 -0.00700
H 	H 	0.97660 0.34930 0.47390 0.04300
N 	N 	0.56090 0.18980 0.62971 -0.26200
C 	C 	0.63860 0.18380 0.63070 0.14500
H 	H 	0.66480 0.20840 0.64770 -0.04700
C 	C 	0.68130 0.14380 0.60840 -0.27600
H 	H 	0.73500 0.14150 0.61040 0.11800
C 	C 	0.64440 0.10650 0.58261 0.23700
C 	C 	0.56450 0.10970 0.58180 -0.26200
H 	H 	0.53750 0.08310 0.56560 0.11800
C 	C 	0.52410 0.15170 0.60486 0.13100
H 	H 	0.47030 0.15430 0.60350 -0.03500
C 	C 	0.69180 0.06050 0.55750 -0.40200
H 	H 	0.71940 0.01940 0.56880 0.13900
H 	H 	0.65630 0.03640 0.54220 0.14000
C 	C 	0.74980 0.10850 0.53860 0.21000
H 	H 	0.78520 0.13340 0.55370 -0.03800
H 	H 	0.72260 0.14890 0.52670 -0.04100
C 	C 	0.79610 0.05950 0.51470 -0.43700
H 	H 	0.82880 0.02410 0.52690 0.15100
H 	H 	0.76030 0.02860 0.50180 0.14600
N 	N 	0.93700 0.19360 0.44887 -0.27900
C 	C 	0.85910 0.19600 0.44770 0.15700
H 	H 	0.83540 0.22730 0.43210 -0.05100
C 	C 	0.81270 0.15350 0.46890 -0.30100
H 	H 	0.75890 0.15700 0.46740 0.12100
C 	C 	0.84600 0.10630 0.49210 0.29300
C 	C 	0.92640 0.10490 0.49330 -0.35200
H 	H 	0.95150 0.07340 0.50850 0.15700
C 	C 	0.96960 0.15040 0.47200 0.28600
H 	H 	0.02340 0.15070 0.47390 -0.13300
N 	N 	0.06090 0.68980 0.12971 -0.24100
C 	C 	0.13860 0.68380 0.13070 0.11800
H 	H 	0.16480 0.70840 0.14770 -0.04100
C 	C 	0.18130 0.64380 0.10840 -0.23200
H 	H 	0.23500 0.64150 0.11040 0.10000
C 	C 	0.14440 0.60650 0.08261 0.17800
C 	C 	0.06450 0.60970 0.08180 -0.16800
H 	H 	0.03750 0.58310 0.06560 0.06800
C 	C 	0.02410 0.65170 0.10486 -0.01900
H 	H 	0.97030 0.65430 0.10350 0.05300
C 	C 	0.19180 0.56050 0.05750 -0.34600
H 	H 	0.21940 0.51940 0.06880 0.12200
H 	H 	0.15630 0.53640 0.04220 0.12100
C 	C 	0.24980 0.60850 0.03860 0.15800
H 	H 	0.28520 0.63340 0.05370 -0.02600
H 	H 	0.22260 0.64890 0.02670 -0.02700
C 	C 	0.29610 0.55950 0.01470 -0.37800
H 	H 	0.32880 0.52410 0.02690 0.12900
H 	H 	0.26030 0.52860 0.00180 0.12800
N 	N 	0.43700 0.69360 0.94887 -0.26300
C 	C 	0.35910 0.69600 0.94770 0.13000
H 	H 	0.33540 0.72730 0.93210 -0.04600
C 	C 	0.31270 0.65350 0.96890 -0.25900
H 	H 	0.25890 0.65700 0.96740 0.10500
C 	C 	0.34600 0.60630 0.99210 0.23200
C 	C 	0.42640 0.60490 0.99330 -0.26200
H 	H 	0.45150 0.57340 0.00850 0.10800
C 	C 	0.46960 0.65040 0.97200 0.13700
H 	H 	0.52340 0.65070 0.97390 -0.04600
N 	N 	0.93980 0.18910 0.37971 -0.24600
C 	C 	0.93380 0.11140 0.38070 0.14500
H 	H 	0.95840 0.08520 0.39770 -0.03400
C 	C 	0.89380 0.06870 0.35840 -0.26000
H 	H 	0.89150 0.01500 0.36040 0.11600
C 	C 	0.85650 0.10560 0.33261 0.22600
C 	C 	0.85970 0.18550 0.33180 -0.25100
H 	H 	0.83310 0.21250 0.31560 0.11500
C 	C 	0.90170 0.22590 0.35486 0.13300
H 	H 	0.90430 0.27970 0.35350 -0.02500
C 	C 	0.81050 0.05820 0.30750 -0.37100
H 	H 	0.76940 0.03060 0.31880 0.12900
H 	H 	0.78640 0.09370 0.29220 0.13100
C 	C 	0.85850 0.00020 0.28860 0.16200
H 	H 	0.88340 0.96480 0.30370 -0.01900
H 	H 	0.89890 0.02740 0.27670 -0.01900
C 	C 	0.80950 0.95390 0.26470 -0.37900
H 	H 	0.77410 0.92120 0.27690 0.13000
H 	H 	0.77860 0.98970 0.25180 0.12900
N 	N 	0.94360 0.81300 0.19887 -0.24800
C 	C 	0.94600 0.89090 0.19770 0.13600
H 	H 	0.97730 0.91460 0.18210 -0.03100
C 	C 	0.90350 0.93730 0.21890 -0.25600
H 	H 	0.90700 0.99110 0.21740 0.11400
C 	C 	0.85630 0.90400 0.24210 0.23600
C 	C 	0.85490 0.82360 0.24330 -0.25900
H 	H 	0.82340 0.79850 0.25850 0.11100
C 	C 	0.90040 0.78040 0.22200 0.14200
H 	H 	0.90070 0.72660 0.22390 -0.03400
N 	N 	0.43980 0.68910 0.87971 -0.26100
C 	C 	0.43380 0.61140 0.88070 0.14100
H 	H 	0.45840 0.58520 0.89770 -0.04700
C 	C 	0.39380 0.56870 0.85840 -0.26900
H 	H 	0.39150 0.51500 0.86040 0.11200
C 	C 	0.35650 0.60560 0.83261 0.22800
C 	C 	0.35970 0.68550 0.83180 -0.25600
H 	H 	0.33310 0.71250 0.81560 0.11600
C 	C 	0.40170 0.72590 0.85486 0.12800
H 	H 	0.40430 0.77970 0.85350 -0.03400
C 	C 	0.31050 0.55820 0.80750 -0.38300
H 	H 	0.26940 0.53060 0.81880 0.13100
H 	H 	0.28640 0.59370 0.79220 0.13400
C 	C 	0.35850 0.50020 0.78860 0.18100
H 	H 	0.38340 0.46480 0.80370 -0.03400
H 	H 	0.39890 0.52740 0.77670 -0.03300
C 	C 	0.30950 0.45390 0.76470 -0.39100
H 	H 	0.27410 0.42120 0.77690 0.13100
H 	H 	0.27860 0.48970 0.75180 0.13100
N 	N 	0.44360 0.31300 0.69887 -0.26400
C 	C 	0.44600 0.39090 0.69770 0.13200
H 	H 	0.47730 0.41460 0.68210 -0.04600
C 	C 	0.40350 0.43730 0.71890 -0.26300
H 	H 	0.40700 0.49110 0.71740 0.10800
C 	C 	0.35630 0.40400 0.74210 0.23700
C 	C 	0.35490 0.32360 0.74330 -0.26600
H 	H 	0.32340 0.29850 0.75850 0.10900
C 	C 	0.40040 0.28040 0.72200 0.13900
H 	H 	0.40070 0.22660 0.72390 -0.04600
N 	N 	0.56020 0.81090 0.87971 -0.26100
C 	C 	0.56620 0.88860 0.88070 0.14100
H 	H 	0.54160 0.91480 0.89770 -0.04700
C 	C 	0.60620 0.93130 0.85840 -0.27000
H 	H 	0.60850 0.98500 0.86040 0.11300
C 	C 	0.64350 0.89440 0.83261 0.22900
C 	C 	0.64030 0.81450 0.83180 -0.25700
H 	H 	0.66690 0.78750 0.81560 0.11600
C 	C 	0.59830 0.77410 0.85486 0.12800
H 	H 	0.59570 0.72030 0.85350 -0.03400
C 	C 	0.68950 0.94180 0.80750 -0.38500
H 	H 	0.73060 0.96940 0.81880 0.13300
H 	H 	0.71360 0.90630 0.79220 0.13500
C 	C 	0.64150 0.99980 0.78860 0.18300
H 	H 	0.61660 0.03520 0.80370 -0.03300
H 	H 	0.60110 0.97260 0.77670 -0.03400
C 	C 	0.69050 0.04610 0.76470 -0.39600
H 	H 	0.72590 0.07880 0.77690 0.13600
H 	H 	0.72140 0.01030 0.75180 0.13500
N 	N 	0.55640 0.18700 0.69887 -0.26400
C 	C 	0.55400 0.10910 0.69770 0.13400
H 	H 	0.52270 0.08540 0.68210 -0.04700
C 	C 	0.59650 0.06270 0.71890 -0.26500
H 	H 	0.59300 0.00890 0.71740 0.10900
C 	C 	0.64370 0.09600 0.74210 0.24100
C 	C 	0.64510 0.17640 0.74330 -0.26700
H 	H 	0.67660 0.20150 0.75850 0.11100
C 	C 	0.59960 0.21960 0.72200 0.14100
H 	H 	0.59930 0.27340 0.72390 -0.04600
N 	N 	0.06020 0.31090 0.37971 -0.26900
C 	C 	0.06620 0.38860 0.38070 0.13600
H 	H 	0.04160 0.41480 0.39770 -0.05800
C 	C 	0.10620 0.43130 0.35840 -0.27800
H 	H 	0.10850 0.48500 0.36040 0.10800
C 	C 	0.14350 0.39440 0.33261 0.23100
C 	C 	0.14030 0.31450 0.33180 -0.26000
H 	H 	0.16690 0.28750 0.31560 0.11700
C 	C 	0.09830 0.27410 0.35486 0.12300
H 	H 	0.09570 0.22030 0.35350 -0.04100
C 	C 	0.18950 0.44180 0.30750 -0.39700
H 	H 	0.23060 0.46940 0.31880 0.13600
H 	H 	0.21360 0.40630 0.29220 0.13800
C 	C 	0.14150 0.49980 0.28860 0.20100
H 	H 	0.11660 0.53520 0.30370 -0.04800
H 	H 	0.10110 0.47260 0.27670 -0.04700
C 	C 	0.19050 0.54610 0.26470 -0.40800
H 	H 	0.22590 0.57880 0.27690 0.13600
H 	H 	0.22140 0.51030 0.25180 0.13700
N 	N 	0.05640 0.68700 0.19887 -0.27300
C 	C 	0.05400 0.60910 0.19770 0.13000
H 	H 	0.02270 0.58540 0.18210 -0.06000
C 	C 	0.09650 0.56270 0.21890 -0.27200
H 	H 	0.09300 0.50890 0.21740 0.10300
C 	C 	0.14370 0.59600 0.24210 0.24200
C 	C 	0.14510 0.67640 0.24330 -0.27400
H 	H 	0.17660 0.70150 0.25850 0.10900
C 	C 	0.09960 0.71960 0.22200 0.13700
H 	H 	0.09930 0.77340 0.22390 -0.05600
Cu	Cu	0.00000 0.75000 0.16412 0.82300
Cu	Cu	0.50000 0.25000 0.66412 0.84700
Cu	Cu	-0.00000 0.25000 0.41412 0.82400
Cu	Cu	0.50000 0.75000 0.91412 0.84700
N 	N 	0.93690 0.30800 0.25561 -0.27600
C 	C 	0.85940 0.31160 0.25379 0.15700
H 	H 	0.83470 0.28360 0.23740 -0.05100
C 	C 	0.81420 0.35440 0.27486 -0.30000
H 	H 	0.76050 0.35500 0.27240 0.11900
C 	C 	0.84860 0.39620 0.29958 0.27800
C 	C 	0.92860 0.39250 0.30222 -0.33900
H 	H 	0.95410 0.41900 0.31890 0.16200
C 	C 	0.97040 0.34890 0.27978 0.27700
H 	H 	0.02420 0.34790 0.28160 -0.11900
C 	C 	0.79890 0.44310 0.32300 -0.41200
H 	H 	0.76510 0.47700 0.31050 0.14000
H 	H 	0.83230 0.47550 0.33630 0.14500
C 	C 	0.74910 0.39170 0.34540 0.19000
H 	H 	0.71980 0.35500 0.33230 -0.03700
H 	H 	0.78250 0.36240 0.36000 -0.03600
C 	C 	0.69380 0.44120 0.36523 -0.39600
H 	H 	0.72340 0.48140 0.37620 0.13700
H 	H 	0.65780 0.46660 0.35050 0.13900
N 	N 	0.56200 0.30910 0.43574 -0.25900
C 	C 	0.64000 0.31350 0.43757 0.12700
H 	H 	0.66540 0.28710 0.45420 -0.04200
C 	C 	0.68360 0.35620 0.41543 -0.25900
H 	H 	0.73740 0.35780 0.41760 0.10800
C 	C 	0.64830 0.39640 0.39024 0.23100
C 	C 	0.56730 0.39120 0.38875 -0.25500
H 	H 	0.54020 0.41650 0.37220 0.11600
C 	C 	0.52720 0.34820 0.41197 0.13700
H 	H 	0.47330 0.34660 0.41080 -0.03700
N 	N 	0.43690 0.80800 0.75561 -0.26100
C 	C 	0.35940 0.81160 0.75379 0.13200
H 	H 	0.33470 0.78360 0.73740 -0.04600
C 	C 	0.31420 0.85440 0.77486 -0.25800
H 	H 	0.26050 0.85500 0.77240 0.10300
C 	C 	0.34860 0.89620 0.79958 0.21800
C 	C 	0.42860 0.89250 0.80222 -0.24900
H 	H 	0.45410 0.91900 0.81890 0.11100
C 	C 	0.47040 0.84890 0.77978 0.12800
H 	H 	0.52420 0.84790 0.78160 -0.03400
C 	C 	0.29890 0.94310 0.82300 -0.35600
H 	H 	0.26510 0.97700 0.81050 0.12200
H 	H 	0.33230 0.97550 0.83630 0.12300
C 	C 	0.24910 0.89170 0.84540 0.14000
H 	H 	0.21980 0.85500 0.83230 -0.02300
H 	H 	0.28250 0.86240 0.86000 -0.02200
C 	C 	0.19380 0.94120 0.86523 -0.34100
H 	H 	0.22340 0.98140 0.87620 0.12000
H 	H 	0.15780 0.96660 0.85050 0.12100
N 	N 	0.06200 0.80910 0.93574 -0.23600
C 	C 	0.14000 0.81350 0.93757 0.10300
H 	H 	0.16540 0.78710 0.95420 -0.03400
C 	C 	0.18360 0.85620 0.91543 -0.21900
H 	H 	0.23740 0.85780 0.91760 0.09200
C 	C 	0.14830 0.89640 0.89024 0.17500
C 	C 	0.06730 0.89120 0.88875 -0.16700
H 	H 	0.04020 0.91650 0.87220 0.06800
C 	C 	0.02720 0.84820 0.91197 -0.01000
H 	H 	0.97330 0.84660 0.91080 0.05000
N 	N 	0.56310 0.69200 0.75561 -0.26300
C 	C 	0.64060 0.68840 0.75379 0.13700
H 	H 	0.66530 0.71640 0.73740 -0.04700
C 	C 	0.68580 0.64560 0.77486 -0.26800
H 	H 	0.73950 0.64500 0.77240 0.10900
C 	C 	0.65140 0.60380 0.79958 0.23100
C 	C 	0.57140 0.60750 0.80222 -0.25800
H 	H 	0.54590 0.58100 0.81890 0.11400
C 	C 	0.52960 0.65110 0.77978 0.13300
H 	H 	0.47580 0.65210 0.78160 -0.03500
C 	C 	0.70110 0.55690 0.82300 -0.38400
H 	H 	0.73490 0.52300 0.81050 0.13100
H 	H 	0.66770 0.52450 0.83630 0.13000
C 	C 	0.75090 0.60830 0.84540 0.18600
H 	H 	0.78020 0.64500 0.83230 -0.03400
H 	H 	0.71750 0.63760 0.86000 -0.03700
C 	C 	0.80620 0.55880 0.86523 -0.41500
H 	H 	0.77660 0.51860 0.87620 0.14000
H 	H 	0.84220 0.53340 0.85050 0.14700
N 	N 	0.93800 0.69090 0.93574 -0.27300
C 	C 	0.86000 0.68650 0.93757 0.14500
H 	H 	0.83460 0.71290 0.95420 -0.04500
C 	C 	0.81640 0.64380 0.91543 -0.28700
H 	H 	0.76260 0.64220 0.91760 0.11500
C 	C 	0.85170 0.60360 0.89024 0.27000
C 	C 	0.93270 0.60880 0.88875 -0.33200
H 	H 	0.95980 0.58350 0.87220 0.16000
C 	C 	0.97280 0.65180 0.91197 0.27900
H 	H 	0.02670 0.65340 0.91080 -0.12000
N 	N 	0.06310 0.19200 0.25561 -0.24100
C 	C 	0.14060 0.18840 0.25379 0.11100
H 	H 	0.16530 0.21640 0.23740 -0.03900
C 	C 	0.18580 0.14560 0.27486 -0.22500
H 	H 	0.23950 0.14500 0.27240 0.09300
C 	C 	0.15140 0.10380 0.29958 0.17200
C 	C 	0.07140 0.10750 0.30222 -0.16900
H 	H 	0.04590 0.08100 0.31890 0.06500
C 	C 	0.02960 0.15110 0.27978 -0.01400
H 	H 	0.97580 0.15210 0.28160 0.05100
C 	C 	0.20110 0.05690 0.32300 -0.32800
H 	H 	0.23490 0.02300 0.31050 0.11300
H 	H 	0.16770 0.02450 0.33630 0.10900
C 	C 	0.25090 0.10830 0.34540 0.13600
H 	H 	0.28020 0.14500 0.33230 -0.02000
H 	H 	0.21750 0.13760 0.36000 -0.02300
C 	C 	0.30620 0.05880 0.36523 -0.36100
H 	H 	0.27660 0.01860 0.37620 0.12300
H 	H 	0.34220 0.03340 0.35050 0.12900
N 	N 	0.43800 0.19090 0.43574 -0.25700
C 	C 	0.36000 0.18650 0.43757 0.12100
H 	H 	0.33460 0.21290 0.45420 -0.04000
C 	C 	0.31640 0.14380 0.41543 -0.24700
H 	H 	0.26260 0.14220 0.41760 0.10000
C 	C 	0.35170 0.10360 0.39024 0.21400
C 	C 	0.43270 0.10880 0.38875 -0.24400
H 	H 	0.45980 0.08350 0.37220 0.11200
C 	C 	0.47280 0.15180 0.41197 0.13200
H 	H 	0.52670 0.15340 0.41080 -0.03500
N 	N 	0.44200 0.18690 0.50561 -0.26100
C 	C 	0.43840 0.10940 0.50379 0.13300
H 	H 	0.46640 0.08470 0.48740 -0.04600
C 	C 	0.39560 0.06420 0.52486 -0.26100
H 	H 	0.39500 0.01050 0.52240 0.10500
C 	C 	0.35380 0.09860 0.54958 0.22100
C 	C 	0.35750 0.17860 0.55222 -0.25200
H 	H 	0.33100 0.20410 0.56890 0.11100
C 	C 	0.40110 0.22040 0.52978 0.12900
H 	H 	0.40210 0.27420 0.53160 -0.03400
C 	C 	0.30690 0.04890 0.57300 -0.36400
H 	H 	0.27300 0.01510 0.56050 0.12400
H 	H 	0.27450 0.08230 0.58630 0.12300
C 	C 	0.35830 0.99910 0.59540 0.15700
H 	H 	0.39500 0.96980 0.58230 -0.02700
H 	H 	0.38760 0.03250 0.61000 -0.02800
C 	C 	0.30880 0.94380 0.61523 -0.37400
H 	H 	0.26860 0.97340 0.62620 0.12800
H 	H 	0.28340 0.90780 0.60050 0.13300
N 	N 	0.44090 0.81200 0.68574 -0.25800
C 	C 	0.43650 0.89000 0.68757 0.12300
H 	H 	0.46290 0.91540 0.70420 -0.04100
C 	C 	0.39380 0.93360 0.66543 -0.25200
H 	H 	0.39220 0.98740 0.66760 0.10300
C 	C 	0.35360 0.89830 0.64024 0.22100
C 	C 	0.35880 0.81730 0.63875 -0.24800
H 	H 	0.33350 0.79020 0.62220 0.11300
C 	C 	0.40180 0.77720 0.66197 0.13400
H 	H 	0.40340 0.72330 0.66080 -0.03600
N 	N 	0.94200 0.68690 0.00561 -0.24600
C 	C 	0.93840 0.60940 0.00379 0.13900
H 	H 	0.96640 0.58470 0.98740 -0.03200
C 	C 	0.89560 0.56420 0.02486 -0.25300
H 	H 	0.89500 0.51050 0.02240 0.11100
C 	C 	0.85380 0.59860 0.04958 0.22200
C 	C 	0.85750 0.67860 0.05222 -0.24800
H 	H 	0.83100 0.70410 0.06890 0.11200
C 	C 	0.90110 0.72040 0.02978 0.13500
H 	H 	0.90210 0.77420 0.03160 -0.02600
C 	C 	0.80690 0.54890 0.07300 -0.35600
H 	H 	0.77300 0.51510 0.06050 0.12300
H 	H 	0.77450 0.58230 0.08630 0.12300
C 	C 	0.85830 0.49910 0.09540 0.14300
H 	H 	0.89500 0.46980 0.08230 -0.01300
H 	H 	0.88760 0.53250 0.11000 -0.01500
C 	C 	0.80880 0.44380 0.11523 -0.36400
H 	H 	0.76860 0.47340 0.12620 0.12600
H 	H 	0.78340 0.40780 0.10050 0.13000
N 	N 	0.94090 0.31200 0.18574 -0.24200
C 	C 	0.93650 0.39000 0.18757 0.12900
H 	H 	0.96290 0.41540 0.20420 -0.02500
C 	C 	0.89380 0.43360 0.16543 -0.24300
H 	H 	0.89220 0.48740 0.16760 0.11000
C 	C 	0.85360 0.39830 0.14024 0.21900
C 	C 	0.85880 0.31730 0.13875 -0.24400
H 	H 	0.83350 0.29020 0.12220 0.11300
C 	C 	0.90180 0.27720 0.16197 0.13800
H 	H 	0.90340 0.22330 0.16080 -0.02700
N 	N 	0.05800 0.81310 0.00561 -0.27100
C 	C 	0.06160 0.89060 0.00379 0.12900
H 	H 	0.03360 0.91530 0.98740 -0.05900
C 	C 	0.10440 0.93580 0.02486 -0.27200
H 	H 	0.10500 0.98950 0.02240 0.10100
C 	C 	0.14620 0.90140 0.04958 0.22700
C 	C 	0.14250 0.82140 0.05222 -0.25800
H 	H 	0.16900 0.79590 0.06890 0.11400
C 	C 	0.09890 0.77960 0.02978 0.12600
H 	H 	0.09790 0.72580 0.03160 -0.04100
C 	C 	0.19310 0.95110 0.07300 -0.38200
H 	H 	0.22700 0.98490 0.06050 0.13000
H 	H 	0.22550 0.91770 0.08630 0.13000
C 	C 	0.14170 0.00090 0.09540 0.18100
H 	H 	0.10500 0.03020 0.08230 -0.04400
H 	H 	0.11240 0.96750 0.11000 -0.04300
C 	C 	0.19120 0.05620 0.11523 -0.39100
H 	H 	0.23140 0.02660 0.12620 0.13300
H 	H 	0.21660 0.09220 0.10050 0.13700
N 	N 	0.05910 0.18800 0.18574 -0.26700
C 	C 	0.06350 0.11000 0.18757 0.11900
H 	H 	0.03710 0.08460 0.20420 -0.05500
C 	C 	0.10620 0.06640 0.16543 -0.26300
H 	H 	0.10780 0.01260 0.16760 0.09800
C 	C 	0.14640 0.10170 0.14024 0.22500
C 	C 	0.14120 0.18270 0.13875 -0.25400
H 	H 	0.16650 0.20980 0.12220 0.11500
C 	C 	0.09820 0.22280 0.16197 0.13000
H 	H 	0.09660 0.27670 0.16080 -0.04200
N 	N 	0.55800 0.31310 0.50561 -0.26200
C 	C 	0.56160 0.39060 0.50379 0.13500
H 	H 	0.53360 0.41530 0.48740 -0.04700
C 	C 	0.60440 0.43580 0.52486 -0.26500
H 	H 	0.60500 0.48950 0.52240 0.10600
C 	C 	0.64620 0.40140 0.54958 0.22800
C 	C 	0.64250 0.32140 0.55222 -0.25500
H 	H 	0.66900 0.29590 0.56890 0.11500
C 	C 	0.59890 0.27960 0.52978 0.13200
H 	H 	0.59790 0.22580 0.53160 -0.03500
C 	C 	0.69310 0.45110 0.57300 -0.37500
H 	H 	0.72700 0.48490 0.56050 0.12900
H 	H 	0.72550 0.41770 0.58630 0.13100
C 	C 	0.64170 0.50090 0.59540 0.16700
H 	H 	0.60500 0.53020 0.58230 -0.03000
H 	H 	0.61240 0.46750 0.61000 -0.03100
C 	C 	0.69120 0.55620 0.61523 -0.38100
H 	H 	0.73140 0.52660 0.62620 0.13200
H 	H 	0.71660 0.59220 0.60050 0.13500
N 	N 	0.55910 0.68800 0.68574 -0.25800
C 	C 	0.56350 0.61000 0.68757 0.12400
H 	H 	0.53710 0.58460 0.70420 -0.04100
C 	C 	0.60620 0.56640 0.66543 -0.25400
H 	H 	0.60780 0.51260 0.66760 0.10400
C 	C 	0.64640 0.60170 0.64024 0.22400
C 	C 	0.64120 0.68270 0.63875 -0.25100
H 	H 	0.66650 0.70980 0.62220 0.11400
C 	C 	0.59820 0.72280 0.66197 0.13500
H 	H 	0.59660 0.77670 0.66080 -0.03600
Cu	Cu	-0.00000 0.25000 0.22114 0.82100
Cu	Cu	0.50000 0.75000 0.72114 0.84500
Cu	Cu	0.50000 0.25000 0.47114 0.84500
Cu	Cu	0.00000 0.75000 0.97114 0.82100
N 	N 	0.06090 0.18980 0.87029 -0.24100
C 	C 	0.13860 0.18380 0.86930 0.11800
H 	H 	0.16480 0.20840 0.85230 -0.04100
C 	C 	0.18130 0.14380 0.89160 -0.23300
H 	H 	0.23500 0.14150 0.88960 0.10000
C 	C 	0.14440 0.10650 0.91739 0.17900
C 	C 	0.06450 0.10970 0.91820 -0.16900
H 	H 	0.03750 0.08310 0.93440 0.06800
C 	C 	0.02410 0.15170 0.89514 -0.01800
H 	H 	0.97030 0.15430 0.89650 0.05300
C 	C 	0.19180 0.06050 0.94250 -0.34700
H 	H 	0.21940 0.01940 0.93120 0.12200
H 	H 	0.15630 0.03640 0.95780 0.12100
C 	C 	0.24980 0.10850 0.96140 0.15800
H 	H 	0.28520 0.13340 0.94630 -0.02600
H 	H 	0.22260 0.14890 0.97330 -0.02700
C 	C 	0.29610 0.05950 0.98530 -0.37900
H 	H 	0.32880 0.02410 0.97310 0.12900
H 	H 	0.26030 0.02860 0.99820 0.12800
N 	N 	0.43700 0.19360 0.05113 -0.26300
C 	C 	0.35910 0.19600 0.05230 0.13000
H 	H 	0.33540 0.22730 0.06790 -0.04600
C 	C 	0.31270 0.15350 0.03110 -0.25900
H 	H 	0.25890 0.15700 0.03260 0.10500
C 	C 	0.34600 0.10630 0.00790 0.23200
C 	C 	0.42640 0.10490 0.00670 -0.26300
H 	H 	0.45150 0.07340 0.99150 0.10900
C 	C 	0.46960 0.15040 0.02800 0.13700
H 	H 	0.52340 0.15070 0.02610 -0.04600
N 	N 	0.56090 0.68980 0.37029 -0.26200
C 	C 	0.63860 0.68380 0.36930 0.14500
H 	H 	0.66480 0.70840 0.35230 -0.04700
C 	C 	0.68130 0.64380 0.39160 -0.27600
H 	H 	0.73500 0.64150 0.38960 0.11800
C 	C 	0.64440 0.60650 0.41739 0.23700
C 	C 	0.56450 0.60970 0.41820 -0.26200
H 	H 	0.53750 0.58310 0.43440 0.11800
C 	C 	0.52410 0.65170 0.39514 0.13100
H 	H 	0.47030 0.65430 0.39650 -0.03500
C 	C 	0.69180 0.56050 0.44250 -0.40200
H 	H 	0.71940 0.51940 0.43120 0.13900
H 	H 	0.65630 0.53640 0.45780 0.14000
C 	C 	0.74980 0.60850 0.46140 0.21000
H 	H 	0.78520 0.63340 0.44630 -0.03900
H 	H 	0.72260 0.64890 0.47330 -0.04100
C 	C 	0.79610 0.55950 0.48530 -0.43700
H 	H 	0.82880 0.52410 0.47310 0.15100
H 	H 	0.76030 0.52860 0.49820 0.14600
N 	N 	0.93700 0.69360 0.55113 -0.28000
C 	C 	0.85910 0.69600 0.55230 0.15700
H 	H 	0.83540 0.72730 0.56790 -0.05100
C 	C 	0.81270 0.65350 0.53110 -0.30200
H 	H 	0.75890 0.65700 0.53260 0.12200
C 	C 	0.84600 0.60630 0.50790 0.29400
C 	C 	0.92640 0.60490 0.50670 -0.35300
H 	H 	0.95150 0.57340 0.49150 0.15700
C 	C 	0.96960 0.65040 0.52800 0.28700
H 	H 	0.02340 0.65070 0.52610 -0.13300
N 	N 	0.43910 0.81020 0.37029 -0.26000
C 	C 	0.36140 0.81620 0.36930 0.13800
H 	H 	0.33520 0.79160 0.35230 -0.04800
C 	C 	0.31870 0.85620 0.39160 -0.26400
H 	H 	0.26500 0.85850 0.38960 0.10700
C 	C 	0.35560 0.89350 0.41739 0.22100
C 	C 	0.43550 0.89030 0.41820 -0.25100
H 	H 	0.46250 0.91690 0.43440 0.11400
C 	C 	0.47590 0.84830 0.39514 0.12500
H 	H 	0.52970 0.84570 0.39650 -0.03300
C 	C 	0.30820 0.93950 0.44250 -0.36900
H 	H 	0.28060 0.98060 0.43120 0.12700
H 	H 	0.34370 0.96360 0.45780 0.13000
C 	C 	0.25020 0.89150 0.46140 0.15800
H 	H 	0.21480 0.86660 0.44630 -0.03000
H 	H 	0.27740 0.85110 0.47330 -0.02600
C 	C 	0.20390 0.94050 0.48530 -0.35300
H 	H 	0.17120 0.97590 0.47310 0.11700
H 	H 	0.23970 0.97140 0.49820 0.12000
N 	N 	0.06300 0.80640 0.55113 -0.24200
C 	C 	0.14090 0.80400 0.55230 0.10900
H 	H 	0.16460 0.77270 0.56790 -0.04000
C 	C 	0.18730 0.84650 0.53110 -0.22700
H 	H 	0.24110 0.84300 0.53260 0.09500
C 	C 	0.15400 0.89370 0.50790 0.18600
C 	C 	0.07360 0.89510 0.50670 -0.18200
H 	H 	0.04850 0.92660 0.49150 0.06300
C 	C 	0.03040 0.84960 0.52800 -0.00600
H 	H 	0.97660 0.84930 0.52610 0.04200
N 	N 	0.93910 0.31020 0.87029 -0.27500
C 	C 	0.86140 0.31620 0.86930 0.16400
H 	H 	0.83520 0.29160 0.85230 -0.05200
C 	C 	0.81870 0.35620 0.89160 -0.30700
H 	H 	0.76500 0.35850 0.88960 0.12500
C 	C 	0.85560 0.39350 0.91739 0.28000
C 	C 	0.93550 0.39030 0.91820 -0.34500
H 	H 	0.96250 0.41690 0.93440 0.16500
C 	C 	0.97590 0.34830 0.89514 0.27600
H 	H 	0.02970 0.34570 0.89650 -0.12000
C 	C 	0.80820 0.43950 0.94250 -0.42400
H 	H 	0.78060 0.48060 0.93120 0.14300
H 	H 	0.84370 0.46360 0.95780 0.14900
C 	C 	0.75020 0.39150 0.96140 0.21000
H 	H 	0.71480 0.36660 0.94630 -0.04300
H 	H 	0.77740 0.35110 0.97330 -0.04000
C 	C 	0.70390 0.44050 0.98530 -0.41100
H 	H 	0.67120 0.47590 0.97310 0.13800
H 	H 	0.73970 0.47140 0.99820 0.13800
N 	N 	0.56300 0.30640 0.05113 -0.26500
C 	C 	0.64090 0.30400 0.05230 0.13600
H 	H 	0.66460 0.27270 0.06790 -0.04800
C 	C 	0.68730 0.34650 0.03110 -0.27000
H 	H 	0.74110 0.34300 0.03260 0.11200
C 	C 	0.65400 0.39370 0.00790 0.24700
C 	C 	0.57360 0.39510 0.00670 -0.27200
H 	H 	0.54850 0.42660 0.99150 0.11200
C 	C 	0.53040 0.34960 0.02800 0.14300
H 	H 	0.47660 0.34930 0.02610 -0.04700
N 	N 	0.06020 0.81090 0.62029 -0.26900
C 	C 	0.06620 0.88860 0.61930 0.13600
H 	H 	0.04160 0.91480 0.60230 -0.05800
C 	C 	0.10620 0.93130 0.64160 -0.27700
H 	H 	0.10850 0.98500 0.63960 0.10800
C 	C 	0.14350 0.89440 0.66739 0.23000
C 	C 	0.14030 0.81450 0.66820 -0.26000
H 	H 	0.16690 0.78750 0.68440 0.11700
C 	C 	0.09830 0.77410 0.64514 0.12300
H 	H 	0.09570 0.72030 0.64650 -0.04100
C 	C 	0.18950 0.94180 0.69250 -0.39500
H 	H 	0.23060 0.96940 0.68120 0.13500
H 	H 	0.21360 0.90630 0.70780 0.13800
C 	C 	0.14150 0.99980 0.71140 0.19800
H 	H 	0.11660 0.03520 0.69630 -0.04600
H 	H 	0.10110 0.97260 0.72330 -0.04600
C 	C 	0.19050 0.04610 0.73530 -0.40500
H 	H 	0.22590 0.07880 0.72310 0.13600
H 	H 	0.22140 0.01030 0.74820 0.13600
N 	N 	0.05640 0.18700 0.80113 -0.27300
C 	C 	0.05400 0.10910 0.80230 0.13000
H 	H 	0.02270 0.08540 0.81790 -0.06000
C 	C 	0.09650 0.06270 0.78110 -0.27100
H 	H 	0.09300 0.00890 0.78260 0.10300
C 	C 	0.14370 0.09600 0.75790 0.24100
C 	C 	0.14510 0.17640 0.75670 -0.27300
H 	H 	0.17660 0.20150 0.74150 0.10800
C 	C 	0.09960 0.21960 0.77800 0.13600
H 	H 	0.09930 0.27340 0.77610 -0.05600
N 	N 	0.56020 0.31090 0.12029 -0.26100
C 	C 	0.56620 0.38860 0.11930 0.14200
H 	H 	0.54160 0.41480 0.10230 -0.04700
C 	C 	0.60620 0.43130 0.14160 -0.27000
H 	H 	0.60850 0.48500 0.13960 0.11300
C 	C 	0.64350 0.39440 0.16739 0.23000
C 	C 	0.64030 0.31450 0.16820 -0.25800
H 	H 	0.66690 0.28750 0.18440 0.11700
C 	C 	0.59830 0.27410 0.14514 0.12900
H 	H 	0.59570 0.22030 0.14650 -0.03400
C 	C 	0.68950 0.44180 0.19250 -0.38800
H 	H 	0.73060 0.46940 0.18120 0.13400
H 	H 	0.71360 0.40630 0.20780 0.13600
C 	C 	0.64150 0.49980 0.21140 0.18700
H 	H 	0.61660 0.53520 0.19630 -0.03500
H 	H 	0.60110 0.47260 0.22330 -0.03500
C 	C 	0.69050 0.54610 0.23530 -0.39900
H 	H 	0.72590 0.57880 0.22310 0.13700
H 	H 	0.72140 0.51030 0.24820 0.13500
N 	N 	0.55640 0.68700 0.30113 -0.26400
C 	C 	0.55400 0.60910 0.30230 0.13400
H 	H 	0.52270 0.58540 0.31790 -0.04700
C 	C 	0.59650 0.56270 0.28110 -0.26600
H 	H 	0.59300 0.50890 0.28260 0.10900
C 	C 	0.64370 0.59600 0.25790 0.24200
C 	C 	0.64510 0.67640 0.25670 -0.26800
H 	H 	0.67660 0.70150 0.24150 0.11100
C 	C 	0.59960 0.71960 0.27800 0.14100
H 	H 	0.59930 0.77340 0.27610 -0.04600
N 	N 	0.43980 0.18910 0.12029 -0.26100
C 	C 	0.43380 0.11140 0.11930 0.14000
H 	H 	0.45840 0.08520 0.10230 -0.04700
C 	C 	0.39380 0.06870 0.14160 -0.26900
H 	H 	0.39150 0.01500 0.13960 0.11200
C 	C 	0.35650 0.10560 0.16739 0.22800
C 	C 	0.35970 0.18550 0.16820 -0.25500
H 	H 	0.33310 0.21250 0.18440 0.11600
C 	C 	0.40170 0.22590 0.14514 0.12700
H 	H 	0.40430 0.27970 0.14650 -0.03400
C 	C 	0.31050 0.05820 0.19250 -0.38200
H 	H 	0.26940 0.03060 0.18120 0.13100
H 	H 	0.28640 0.09370 0.20780 0.13400
C 	C 	0.35850 0.00020 0.21140 0.17800
H 	H 	0.38340 0.96480 0.19630 -0.03300
H 	H 	0.39890 0.02740 0.22330 -0.03200
C 	C 	0.30950 0.95390 0.23530 -0.39000
H 	H 	0.27410 0.92120 0.22310 0.13000
H 	H 	0.27860 0.98970 0.24820 0.13100
N 	N 	0.44360 0.81300 0.30113 -0.26400
C 	C 	0.44600 0.89090 0.30230 0.13200
H 	H 	0.47730 0.91460 0.31790 -0.04600
C 	C 	0.40350 0.93730 0.28110 -0.26300
H 	H 	0.40700 0.99110 0.28260 0.10800
C 	C 	0.35630 0.90400 0.25790 0.23600
C 	C 	0.35490 0.82360 0.25670 -0.26600
H 	H 	0.32340 0.79850 0.24150 0.10900
C 	C 	0.40040 0.78040 0.27800 0.13900
H 	H 	0.40070 0.72660 0.27610 -0.04600
N 	N 	0.93980 0.68910 0.62029 -0.24600
C 	C 	0.93380 0.61140 0.61930 0.14600
H 	H 	0.95840 0.58520 0.60230 -0.03400
C 	C 	0.89380 0.56870 0.64160 -0.26100
H 	H 	0.89150 0.51500 0.63960 0.11700
C 	C 	0.85650 0.60560 0.66739 0.22700
C 	C 	0.85970 0.68550 0.66820 -0.25200
H 	H 	0.83310 0.71250 0.68440 0.11500
C 	C 	0.90170 0.72590 0.64514 0.13300
H 	H 	0.90430 0.77970 0.64650 -0.02500
C 	C 	0.81050 0.55820 0.69250 -0.37300
H 	H 	0.76940 0.53060 0.68120 0.12900
H 	H 	0.78640 0.59370 0.70780 0.13200
C 	C 	0.85850 0.50020 0.71140 0.16500
H 	H 	0.88340 0.46480 0.69630 -0.02000
H 	H 	0.89890 0.52740 0.72330 -0.02000
C 	C 	0.80950 0.45390 0.73530 -0.38100
H 	H 	0.77410 0.42120 0.72310 0.13100
H 	H 	0.77860 0.48970 0.74820 0.12900
N 	N 	0.94360 0.31300 0.80113 -0.24900
C 	C 	0.94600 0.39090 0.80230 0.13600
H 	H 	0.97730 0.41460 0.81790 -0.03100
C 	C 	0.90350 0.43730 0.78110 -0.25700
H 	H 	0.90700 0.49110 0.78260 0.11500
C 	C 	0.85630 0.40400 0.75790 0.23600
C 	C 	0.85490 0.32360 0.75670 -0.26000
H 	H 	0.82340 0.29850 0.74150 0.11100
C 	C 	0.90040 0.28040 0.77800 0.14300
H 	H 	0.90070 0.22660 0.77610 -0.03500
Cu	Cu	-0.00000 0.25000 0.83588 0.82300
Cu	Cu	0.50000 0.75000 0.33588 0.84700
Cu	Cu	-0.00000 0.75000 0.58588 0.82300
Cu	Cu	0.50000 0.25000 0.08588 0.84700
N 	N 	0.06310 0.69200 0.74439 -0.24100
C 	C 	0.14060 0.68840 0.74621 0.11100
H 	H 	0.16530 0.71640 0.76260 -0.03900
C 	C 	0.18580 0.64560 0.72514 -0.22500
H 	H 	0.23950 0.64500 0.72760 0.09300
C 	C 	0.15140 0.60380 0.70042 0.17200
C 	C 	0.07140 0.60750 0.69778 -0.16800
H 	H 	0.04590 0.58100 0.68110 0.06400
C 	C 	0.02960 0.65110 0.72022 -0.01500
H 	H 	0.97580 0.65210 0.71840 0.05200
C 	C 	0.20110 0.55690 0.67700 -0.32800
H 	H 	0.23490 0.52300 0.68950 0.11300
H 	H 	0.16770 0.52450 0.66370 0.10900
C 	C 	0.25090 0.60830 0.65460 0.13600
H 	H 	0.28020 0.64500 0.66770 -0.02000
H 	H 	0.21750 0.63760 0.64000 -0.02300
C 	C 	0.30620 0.55880 0.63477 -0.36000
H 	H 	0.27660 0.51860 0.62380 0.12300
H 	H 	0.34220 0.53340 0.64950 0.12900
N 	N 	0.43800 0.69090 0.56426 -0.25700
C 	C 	0.36000 0.68650 0.56243 0.12100
H 	H 	0.33460 0.71290 0.54580 -0.04000
C 	C 	0.31640 0.64380 0.58457 -0.24700
H 	H 	0.26260 0.64220 0.58240 0.10000
C 	C 	0.35170 0.60360 0.60976 0.21400
C 	C 	0.43270 0.60880 0.61125 -0.24400
H 	H 	0.45980 0.58350 0.62780 0.11200
C 	C 	0.47280 0.65180 0.58803 0.13200
H 	H 	0.52670 0.65340 0.58920 -0.03500
N 	N 	0.56310 0.19200 0.24439 -0.26300
C 	C 	0.64060 0.18840 0.24621 0.13700
H 	H 	0.66530 0.21640 0.26260 -0.04700
C 	C 	0.68580 0.14560 0.22514 -0.26700
H 	H 	0.73950 0.14500 0.22760 0.10900
C 	C 	0.65140 0.10380 0.20042 0.23100
C 	C 	0.57140 0.10750 0.19778 -0.25800
H 	H 	0.54590 0.08100 0.18110 0.11400
C 	C 	0.52960 0.15110 0.22022 0.13300
H 	H 	0.47580 0.15210 0.21840 -0.03500
C 	C 	0.70110 0.05690 0.17700 -0.38300
H 	H 	0.73490 0.02300 0.18950 0.13100
H 	H 	0.66770 0.02450 0.16370 0.13000
C 	C 	0.75090 0.10830 0.15460 0.18600
H 	H 	0.78020 0.14500 0.16770 -0.03400
H 	H 	0.71750 0.13760 0.14000 -0.03700
C 	C 	0.80620 0.05880 0.13477 -0.41400
H 	H 	0.77660 0.01860 0.12380 0.13900
H 	H 	0.84220 0.03340 0.14950 0.14700
N 	N 	0.93800 0.19090 0.06426 -0.27300
C 	C 	0.86000 0.18650 0.06243 0.14500
H 	H 	0.83460 0.21290 0.04580 -0.04500
C 	C 	0.81640 0.14380 0.08457 -0.28700
H 	H 	0.76260 0.14220 0.08240 0.11500
C 	C 	0.85170 0.10360 0.10976 0.26900
C 	C 	0.93270 0.10880 0.11125 -0.33100
H 	H 	0.95980 0.08350 0.12780 0.16000
C 	C 	0.97280 0.15180 0.08803 0.27800
H 	H 	0.02670 0.15340 0.08920 -0.12000
N 	N 	0.43690 0.30800 0.24439 -0.26100
C 	C 	0.35940 0.31160 0.24621 0.13200
H 	H 	0.33470 0.28360 0.26260 -0.04600
C 	C 	0.31420 0.35440 0.22514 -0.25800
H 	H 	0.26050 0.35500 0.22760 0.10300
C 	C 	0.34860 0.39620 0.20042 0.21800
C 	C 	0.42860 0.39250 0.19778 -0.24900
H 	H 	0.45410 0.41900 0.18110 0.11100
C 	C 	0.47040 0.34890 0.22022 0.12900
H 	H 	0.52420 0.34790 0.21840 -0.03400
C 	C 	0.29890 0.44310 0.17700 -0.35600
H 	H 	0.26510 0.47700 0.18950 0.12200
H 	H 	0.33230 0.47550 0.16370 0.12300
C 	C 	0.24910 0.39170 0.15460 0.14000
H 	H 	0.21980 0.35500 0.16770 -0.02300
H 	H 	0.28250 0.36240 0.14000 -0.02200
C 	C 	0.19380 0.44120 0.13477 -0.34100
H 	H 	0.22340 0.48140 0.12380 0.12000
H 	H 	0.15780 0.46660 0.14950 0.12100
N 	N 	0.06200 0.30910 0.06426 -0.23600
C 	C 	0.14000 0.31350 0.06243 0.10200
H 	H 	0.16540 0.28710 0.04580 -0.03400
C 	C 	0.18360 0.35620 0.08457 -0.21900
H 	H 	0.23740 0.35780 0.08240 0.09200
C 	C 	0.14830 0.39640 0.10976 0.17500
C 	C 	0.06730 0.39120 0.11125 -0.16700
H 	H 	0.04020 0.41650 0.12780 0.06800
C 	C 	0.02720 0.34820 0.08803 -0.01100
H 	H 	0.97330 0.34660 0.08920 0.05100
N 	N 	0.93690 0.80800 0.74439 -0.27600
C 	C 	0.85940 0.81160 0.74621 0.15700
H 	H 	0.83470 0.78360 0.76260 -0.05100
C 	C 	0.81420 0.85440 0.72514 -0.29900
H 	H 	0.76050 0.85500 0.72760 0.11800
C 	C 	0.84860 0.89620 0.70042 0.27700
C 	C 	0.92860 0.89250 0.69778 -0.33800
H 	H 	0.95410 0.91900 0.68110 0.16100
C 	C 	0.97040 0.84890 0.72022 0.27600
H 	H 	0.02420 0.84790 0.71840 -0.11800
C 	C 	0.79890 0.94310 0.67700 -0.41100
H 	H 	0.76510 0.97700 0.68950 0.14000
H 	H 	0.83230 0.97550 0.66370 0.14400
C 	C 	0.74910 0.89170 0.65460 0.18900
H 	H 	0.71980 0.85500 0.66770 -0.03700
H 	H 	0.78250 0.86240 0.64000 -0.03600
C 	C 	0.69380 0.94120 0.63477 -0.39500
H 	H 	0.72340 0.98140 0.62380 0.13600
H 	H 	0.65780 0.96660 0.64950 0.13900
N 	N 	0.56200 0.80910 0.56426 -0.25900
C 	C 	0.64000 0.81350 0.56243 0.12700
H 	H 	0.66540 0.78710 0.54580 -0.04200
C 	C 	0.68360 0.85620 0.58457 -0.25900
H 	H 	0.73740 0.85780 0.58240 0.10800
C 	C 	0.64830 0.89640 0.60976 0.23000
C 	C 	0.56730 0.89120 0.61125 -0.25500
H 	H 	0.54020 0.91650 0.62780 0.11500
C 	C 	0.52720 0.84820 0.58803 0.13700
H 	H 	0.47330 0.84660 0.58920 -0.03700
N 	N 	0.55800 0.81310 0.49439 -0.26200
C 	C 	0.56160 0.89060 0.49621 0.13500
H 	H 	0.53360 0.91530 0.51260 -0.04700
C 	C 	0.60440 0.93580 0.47514 -0.26400
H 	H 	0.60500 0.98950 0.47760 0.10600
C 	C 	0.64620 0.90140 0.45042 0.22700
C 	C 	0.64250 0.82140 0.44778 -0.25500
H 	H 	0.66900 0.79590 0.43110 0.11500
C 	C 	0.59890 0.77960 0.47022 0.13200
H 	H 	0.59790 0.72580 0.46840 -0.03400
C 	C 	0.69310 0.95110 0.42700 -0.37300
H 	H 	0.72700 0.98490 0.43950 0.12900
H 	H 	0.72550 0.91770 0.41370 0.13000
C 	C 	0.64170 0.00090 0.40460 0.16500
H 	H 	0.60500 0.03020 0.41770 -0.03000
H 	H 	0.61240 0.96750 0.39000 -0.03000
C 	C 	0.69120 0.05620 0.38477 -0.38000
H 	H 	0.73140 0.02660 0.37380 0.13100
H 	H 	0.71660 0.09220 0.39950 0.13500
N 	N 	0.55910 0.18800 0.31426 -0.25800
C 	C 	0.56350 0.11000 0.31243 0.12400
H 	H 	0.53710 0.08460 0.29580 -0.04100
C 	C 	0.60620 0.06640 0.33457 -0.25400
H 	H 	0.60780 0.01260 0.33240 0.10400
C 	C 	0.64640 0.10170 0.35976 0.22300
C 	C 	0.64120 0.18270 0.36125 -0.25000
H 	H 	0.66650 0.20980 0.37780 0.11400
C 	C 	0.59820 0.22280 0.33803 0.13500
H 	H 	0.59660 0.27670 0.33920 -0.03600
N 	N 	0.05800 0.31310 0.99439 -0.27100
C 	C 	0.06160 0.39060 0.99621 0.12900
H 	H 	0.03360 0.41530 0.01260 -0.05900
C 	C 	0.10440 0.43580 0.97514 -0.27200
H 	H 	0.10500 0.48950 0.97760 0.10100
C 	C 	0.14620 0.40140 0.95042 0.22700
C 	C 	0.14250 0.32140 0.94778 -0.25800
H 	H 	0.16900 0.29590 0.93110 0.11400
C 	C 	0.09890 0.27960 0.97022 0.12600
H 	H 	0.09790 0.22580 0.96840 -0.04100
C 	C 	0.19310 0.45110 0.92700 -0.38300
H 	H 	0.22700 0.48490 0.93950 0.13000
H 	H 	0.22550 0.41770 0.91370 0.13000
C 	C 	0.14170 0.50090 0.90460 0.18200
H 	H 	0.10500 0.53020 0.91770 -0.04400
H 	H 	0.11240 0.46750 0.89000 -0.04400
C 	C 	0.19120 0.55620 0.88477 -0.39200
H 	H 	0.23140 0.52660 0.87380 0.13400
H 	H 	0.21660 0.59220 0.89950 0.13800
N 	N 	0.05910 0.68800 0.81426 -0.26700
C 	C 	0.06350 0.61000 0.81243 0.11900
H 	H 	0.03710 0.58460 0.79580 -0.05500
C 	C 	0.10620 0.56640 0.83457 -0.26300
H 	H 	0.10780 0.51260 0.83240 0.09800
C 	C 	0.14640 0.60170 0.85976 0.22500
C 	C 	0.14120 0.68270 0.86125 -0.25400
H 	H 	0.16650 0.70980 0.87780 0.11500
C 	C 	0.09820 0.72280 0.83803 0.13000
H 	H 	0.09660 0.77670 0.83920 -0.04200
N 	N 	0.94200 0.18690 0.99439 -0.24600
C 	C 	0.93840 0.10940 0.99621 0.13800
H 	H 	0.96640 0.08470 0.01260 -0.03200
C 	C 	0.89560 0.06420 0.97514 -0.25200
H 	H 	0.89500 0.01050 0.97760 0.11000
C 	C 	0.85380 0.09860 0.95042 0.22100
C 	C 	0.85750 0.17860 0.94778 -0.24800
H 	H 	0.83100 0.20410 0.93110 0.11100
C 	C 	0.90110 0.22040 0.97022 0.13500
H 	H 	0.90210 0.27420 0.96840 -0.02600
C 	C 	0.80690 0.04890 0.92700 -0.35400
H 	H 	0.77300 0.01510 0.93950 0.12200
H 	H 	0.77450 0.08230 0.91370 0.12300
C 	C 	0.85830 0.99910 0.90460 0.14000
H 	H 	0.89500 0.96980 0.91770 -0.01200
H 	H 	0.88760 0.03250 0.89000 -0.01400
C 	C 	0.80880 0.94380 0.88477 -0.36200
H 	H 	0.76860 0.97340 0.87380 0.12500
H 	H 	0.78340 0.90780 0.89950 0.12900
N 	N 	0.94090 0.81200 0.81426 -0.24200
C 	C 	0.93650 0.89000 0.81243 0.12900
H 	H 	0.96290 0.91540 0.79580 -0.02500
C 	C 	0.89380 0.93360 0.83457 -0.24200
H 	H 	0.89220 0.98740 0.83240 0.11000
C 	C 	0.85360 0.89830 0.85976 0.21800
C 	C 	0.85880 0.81730 0.86125 -0.24300
H 	H 	0.83350 0.79020 0.87780 0.11200
C 	C 	0.90180 0.77720 0.83803 0.13800
H 	H 	0.90340 0.72330 0.83920 -0.02700
N 	N 	0.44200 0.68690 0.49439 -0.26100
C 	C 	0.43840 0.60940 0.49621 0.13300
H 	H 	0.46640 0.58470 0.51260 -0.04600
C 	C 	0.39560 0.56420 0.47514 -0.26100
H 	H 	0.39500 0.51050 0.47760 0.10500
C 	C 	0.35380 0.59860 0.45042 0.22200
C 	C 	0.35750 0.67860 0.44778 -0.25200
H 	H 	0.33100 0.70410 0.43110 0.11100
C 	C 	0.40110 0.72040 0.47022 0.12900
H 	H 	0.40210 0.77420 0.46840 -0.03400
C 	C 	0.30690 0.54890 0.42700 -0.36600
H 	H 	0.27300 0.51510 0.43950 0.12400
H 	H 	0.27450 0.58230 0.41370 0.12300
C 	C 	0.35830 0.49910 0.40460 0.16000
H 	H 	0.39500 0.46980 0.41770 -0.02800
H 	H 	0.38760 0.53250 0.39000 -0.02900
C 	C 	0.30880 0.44380 0.38477 -0.37500
H 	H 	0.26860 0.47340 0.37380 0.12800
H 	H 	0.28340 0.40780 0.39950 0.13300
N 	N 	0.44090 0.31200 0.31426 -0.25800
C 	C 	0.43650 0.39000 0.31243 0.12300
H 	H 	0.46290 0.41540 0.29580 -0.04100
C 	C 	0.39380 0.43360 0.33457 -0.25200
H 	H 	0.39220 0.48740 0.33240 0.10300
C 	C 	0.35360 0.39830 0.35976 0.22100
C 	C 	0.35880 0.31730 0.36125 -0.24900
H 	H 	0.33350 0.29020 0.37780 0.11300
C 	C 	0.40180 0.27720 0.33803 0.13400
H 	H 	0.40340 0.22330 0.33920 -0.03600
Cu	Cu	0.00000 0.75000 0.77886 0.82100
Cu	Cu	0.50000 0.25000 0.27886 0.84500
Cu	Cu	0.50000 0.75000 0.52886 0.84500
Cu	Cu	-0.00000 0.25000 0.02886 0.82100
