data_crystal

_cell_length_a 6.61690
_cell_length_b 9.43000
_cell_length_c 9.46420
_cell_angle_alpha 107.57700
_cell_angle_beta  107.72500
_cell_angle_gamma 93.20880

_symmetry_space_group_name_	'P 1'
_symmetry_space_group_name_H-M	'P 1'

loop_
_symmetry_equiv_pos_as_xyz
  x,y,z

loop_
_atom_site_label
_atom_site_type_symbol
_atom_site_fract_x
_atom_site_fract_y
_atom_site_fract_z
_atom_site_charge
O 	O 	0.25330 0.93290 0.01700 -1.03400
O 	O 	0.49470 0.17840 0.17360 -0.97300
O 	O 	0.17960 0.17040 0.16640 -1.09200
O 	O 	0.96250 0.91150 0.16700 -0.50800
O 	O 	0.63830 0.89560 0.15470 -0.63500
C 	C 	0.36380 0.23200 0.23070 0.75500
C 	C 	0.44310 0.34700 0.39330 -0.20900
C 	C 	0.65030 0.43670 0.39130 -0.00700
C 	C 	0.27940 0.43880 0.44670 -0.03500
C 	C 	0.82700 0.89040 0.23126 0.55500
C 	C 	0.88080 0.84670 0.37470 -0.20500
C 	C 	0.74860 0.95110 0.44970 0.48500
C 	C 	0.88180 0.09290 0.55250 -0.25800
O 	O 	0.74670 0.06710 0.98300 -0.73300
O 	O 	0.50530 0.82160 0.82640 -0.38400
O 	O 	0.82040 0.82960 0.83360 -0.35700
O 	O 	0.03750 0.08850 0.83300 -0.57600
O 	O 	0.36170 0.10440 0.84530 -0.47600
C 	C 	0.63620 0.76800 0.76930 0.59100
C 	C 	0.55690 0.65300 0.60670 -0.12800
C 	C 	0.34970 0.56330 0.60870 0.09700
C 	C 	0.72060 0.56120 0.55330 0.15200
C 	C 	0.17300 0.10960 0.76874 0.43000
C 	C 	0.11920 0.15330 0.62530 -0.03800
C 	C 	0.25140 0.04890 0.55030 -0.42000
C 	C 	0.11820 0.90710 0.44750 0.33900
Al	Al	-0.00000 0.00000 -0.00000 2.32800
Al	Al	0.50000 0.00000 -0.00000 2.33600
