data_crystal

_cell_length_a 27.20100
_cell_length_b 39.70500
_cell_length_c 39.70500
_cell_angle_alpha 90.00000
_cell_angle_beta  90.00000
_cell_angle_gamma 90.00000

_symmetry_space_group_name_	'P 1'
_symmetry_space_group_name_H-M	'P 1'

loop_
_symmetry_equiv_pos_as_xyz
  x,y,z

loop_
_atom_site_label
_atom_site_type_symbol
_atom_site_fract_x
_atom_site_fract_y
_atom_site_fract_z
_atom_site_charge
Cu	Cu	0.03144 0.44071 0.01573 0.73900
Cu	Cu	0.57417 0.98829 0.50963 0.73800
Cu	Cu	0.82270 0.07982 0.75000 0.90300
Cu	Cu	0.60511 0.43920 0.01289 0.75900
Cu	Cu	0.03144 0.44071 0.48427 0.73900
Cu	Cu	0.53144 0.48427 0.05929 0.73900
Cu	Cu	0.53144 0.01573 0.44071 0.73900
Cu	Cu	0.57417 0.51171 0.99037 0.73800
Cu	Cu	0.57417 0.98829 0.99037 0.73800
Cu	Cu	0.60511 0.43920 0.48711 0.75900
Cu	Cu	0.82766 0.01277 0.75000 0.93500
Cu	Cu	0.82270 0.42018 0.75000 0.90300
Cu	Cu	0.10511 0.01289 0.43920 0.75900
Cu	Cu	0.10511 0.01289 0.06080 0.75900
Cu	Cu	0.32766 0.75000 0.01277 0.93500
Cu	Cu	0.60511 0.06080 0.01289 0.75900
Cu	Cu	0.10511 0.48711 0.06080 0.75900
Cu	Cu	0.12083 0.25000 0.25000 0.91300
Cu	Cu	0.53144 0.48427 0.44071 0.73900
Cu	Cu	0.60511 0.06080 0.48711 0.75900
Cu	Cu	0.52358 0.25000 0.25000 0.89900
Cu	Cu	0.07417 0.50963 0.51171 0.73800
Cu	Cu	0.02358 0.25000 0.25000 0.89900
Cu	Cu	0.07417 0.99037 0.98829 0.73800
Cu	Cu	0.62083 0.25000 0.25000 0.91300
Cu	Cu	0.53144 0.01573 0.05929 0.73900
Cu	Cu	0.03144 0.05929 0.01573 0.73900
Cu	Cu	0.32270 0.75000 0.07982 0.90300
Cu	Cu	0.57417 0.51171 0.50963 0.73800
Cu	Cu	0.82766 0.48723 0.75000 0.93500
Cu	Cu	0.07417 0.99037 0.51171 0.73800
Cu	Cu	0.10511 0.48711 0.43920 0.75900
Cu	Cu	0.32270 0.75000 0.42018 0.90300
Cu	Cu	0.07417 0.50963 0.98829 0.73800
Cu	Cu	0.32766 0.75000 0.48723 0.93500
Cu	Cu	0.03144 0.05929 0.48427 0.73900
H 	H 	0.66630 0.37790 0.43280 0.16500
H 	H 	0.70270 0.40430 0.56560 0.19800
H 	H 	0.46750 0.88180 0.40590 0.07300
H 	H 	0.50810 0.03870 0.12940 0.13100
H 	H 	0.75130 0.50990 0.66150 0.01400
H 	H 	0.65510 0.54070 0.92030 0.14500
H 	H 	0.42760 0.66950 0.09970 0.00500
H 	H 	0.11930 0.60690 0.52390 0.15800
H 	H 	0.42580 0.67160 0.50180 0.00800
H 	H 	0.16630 0.43280 0.37790 0.16500
H 	H 	0.75130 0.99010 0.83850 0.01400
H 	H 	0.95110 0.09260 0.52720 0.13500
H 	H 	0.45890 0.88180 0.99300 0.05100
H 	H 	0.99390 0.11120 0.95240 0.14300
H 	H 	0.46900 0.06590 0.11650 0.14900
H 	H 	0.70270 0.09570 0.93440 0.19800
H 	H 	0.84500 0.89360 0.80100 0.05700
H 	H 	0.84500 0.89360 0.69900 0.05700
H 	H 	0.68410 0.09850 0.52750 0.16100
H 	H 	0.63490 0.37460 0.46680 0.14600
H 	H 	0.49610 0.36650 0.36570 0.09000
H 	H 	0.64450 0.36320 0.12860 0.08600
H 	H 	0.92580 0.50180 0.82840 0.00700
H 	H 	0.56290 0.88910 0.98790 0.15400
H 	H 	0.99610 0.13430 0.13350 0.08900
H 	H 	0.49810 0.17580 0.32470 -0.00100
H 	H 	0.70270 0.09570 0.56560 0.19700
H 	H 	0.45890 0.61820 0.99300 0.05000
H 	H 	0.71040 0.41110 0.83170 0.01500
H 	H 	0.50470 0.07480 0.35270 0.17600
H 	H 	0.62540 0.34910 0.43630 0.19200
H 	H 	0.16630 0.06720 0.37790 0.16400
H 	H 	0.95110 0.09260 0.97280 0.13400
H 	H 	0.45110 0.52720 0.40740 0.13400
H 	H 	0.44610 0.93300 0.09800 0.17300
H 	H 	0.66220 0.08290 0.88100 0.08100
H 	H 	0.56290 0.61090 0.98790 0.15400
H 	H 	0.14580 0.32700 0.17600 -0.00000
H 	H 	0.42580 0.82840 0.50180 0.00700
H 	H 	0.94610 0.40200 0.93300 0.17300
H 	H 	0.06430 0.53410 0.92290 0.09000
H 	H 	0.64580 0.17600 0.32700 -0.00000
H 	H 	0.18410 0.52750 0.09850 0.16000
H 	H 	0.83420 0.95210 0.80100 0.01000
H 	H 	0.95890 0.99300 0.88180 0.05000
H 	H 	0.44610 0.56700 0.40200 0.17300
H 	H 	0.71040 0.41110 0.66830 0.01500
H 	H 	0.11930 0.89310 0.97610 0.15700
H 	H 	0.96900 0.38350 0.43410 0.14800
H 	H 	0.59740 0.96170 0.92770 0.09200
H 	H 	0.25130 0.66150 0.50990 0.01300
H 	H 	0.92580 0.99820 0.82840 0.00700
H 	H 	0.14450 0.37140 0.36320 0.08500
H 	H 	0.14580 0.17300 0.32400 -0.00000
H 	H 	0.34500 0.69900 0.89360 0.05600
H 	H 	0.20270 0.56560 0.40430 0.19700
H 	H 	0.09740 0.92770 0.96170 0.09200
H 	H 	0.00470 0.14730 0.07480 0.17600
H 	H 	0.49810 0.17580 0.17530 -0.00100
H 	H 	0.20270 0.56560 0.09570 0.19700
H 	H 	0.92760 0.09970 0.66950 0.00400
H 	H 	0.46750 0.88180 0.09410 0.07200
H 	H 	0.59740 0.53830 0.57230 0.09200
H 	H 	0.25130 0.83850 0.99010 0.01300
H 	H 	0.96750 0.09410 0.61820 0.07200
H 	H 	0.64880 0.39020 0.55770 0.18900
H 	H 	0.11930 0.60690 0.97610 0.15700
H 	H 	0.45110 0.52720 0.09260 0.13400
H 	H 	0.12540 0.43630 0.15090 0.19200
H 	H 	0.13490 0.03320 0.12540 0.14500
H 	H 	0.42760 0.66950 0.40030 0.00400
H 	H 	0.06290 0.51210 0.61090 0.15400
H 	H 	0.18410 0.97250 0.40150 0.16000
H 	H 	0.00470 0.35270 0.42520 0.17600
H 	H 	0.71200 0.98640 0.60860 0.06400
H 	H 	0.12540 0.06370 0.34910 0.19200
H 	H 	0.62540 0.34910 0.06370 0.19200
H 	H 	0.99390 0.38880 0.95240 0.14200
H 	H 	0.14880 0.94230 0.39020 0.18900
H 	H 	0.59740 0.96170 0.57230 0.09200
H 	H 	0.50810 0.03870 0.37060 0.13000
H 	H 	0.25130 0.66150 0.99010 0.01300
H 	H 	0.99390 0.38880 0.54760 0.14200
H 	H 	0.56430 0.92290 0.96590 0.09000
H 	H 	0.21040 0.83170 0.41110 0.01500
H 	H 	0.25130 0.83850 0.50990 0.01300
H 	H 	0.62540 0.15090 0.43630 0.19200
H 	H 	0.75130 0.50990 0.83850 0.01300
H 	H 	0.64450 0.36320 0.37140 0.08500
H 	H 	0.75130 0.99010 0.66150 0.01300
H 	H 	0.84500 0.60640 0.80100 0.05600
H 	H 	0.49390 0.95240 0.11120 0.14200
H 	H 	0.99810 0.17530 0.32420 -0.00100
H 	H 	0.95890 0.50700 0.88180 0.05000
H 	H 	0.42580 0.82840 0.99820 0.00700
H 	H 	0.66630 0.37790 0.06720 0.16400
H 	H 	0.61930 0.52390 0.89310 0.15700
H 	H 	0.20270 0.93440 0.09570 0.19700
H 	H 	0.16220 0.61900 0.08290 0.08100
H 	H 	0.44610 0.56700 0.09800 0.17300
H 	H 	0.06290 0.98790 0.88910 0.15400
H 	H 	0.33420 0.80100 0.54790 0.01000
H 	H 	0.85050 0.63570 0.75000 0.02800
H 	H 	0.21200 0.60860 0.51360 0.06400
H 	H 	0.66220 0.41710 0.88100 0.08100
H 	H 	0.34500 0.69900 0.60640 0.05600
H 	H 	0.56290 0.61090 0.51210 0.15400
H 	H 	0.33420 0.80100 0.95210 0.01000
H 	H 	0.50810 0.46130 0.37060 0.13000
H 	H 	0.45110 0.97280 0.09260 0.13400
H 	H 	0.14880 0.55770 0.10980 0.18900
H 	H 	0.99610 0.13430 0.36650 0.08900
H 	H 	0.20270 0.93440 0.40430 0.19700
H 	H 	0.49810 0.32420 0.32470 -0.00100
H 	H 	0.01500 0.96780 0.59890 0.14000
H 	H 	0.95110 0.40740 0.97280 0.13400
H 	H 	0.49610 0.13350 0.36570 0.08900
H 	H 	0.45890 0.61820 0.50700 0.05000
H 	H 	0.15510 0.92030 0.54070 0.14400
H 	H 	0.00810 0.12940 0.03870 0.13000
H 	H 	0.64580 0.17600 0.17300 -0.00000
H 	H 	0.71200 0.98640 0.89140 0.06400
H 	H 	0.61930 0.97610 0.89310 0.15700
H 	H 	0.09740 0.57230 0.96170 0.09200
H 	H 	0.63490 0.12540 0.46680 0.14500
H 	H 	0.46750 0.61820 0.40590 0.07200
H 	H 	0.45110 0.97280 0.40740 0.13400
H 	H 	0.94610 0.40200 0.56700 0.17300
H 	H 	0.62540 0.15090 0.06370 0.19200
H 	H 	0.14450 0.12860 0.36320 0.08500
H 	H 	0.65510 0.95930 0.57970 0.14400
H 	H 	0.12540 0.06370 0.15090 0.19200
H 	H 	0.64880 0.39020 0.94230 0.18900
H 	H 	0.14880 0.55770 0.39020 0.18900
H 	H 	0.68410 0.09850 0.97250 0.16100
H 	H 	0.66630 0.12210 0.43280 0.16400
H 	H 	0.99610 0.36570 0.13350 0.08900
H 	H 	0.51500 0.90110 0.53220 0.14000
H 	H 	0.61930 0.97610 0.60690 0.15700
H 	H 	0.06430 0.53410 0.57710 0.09000
H 	H 	0.01500 0.53220 0.90110 0.14000
H 	H 	0.16220 0.88100 0.41710 0.08100
H 	H 	0.00810 0.37060 0.03870 0.13000
H 	H 	0.35050 0.75000 0.63570 0.02800
H 	H 	0.21040 0.83170 0.08890 0.01500
H 	H 	0.63490 0.12540 0.03320 0.14500
H 	H 	0.15510 0.57970 0.54070 0.14400
H 	H 	0.92760 0.40030 0.66950 0.00400
H 	H 	0.71200 0.51360 0.89140 0.06400
H 	H 	0.46900 0.06590 0.38350 0.14800
H 	H 	0.35050 0.75000 0.86430 0.02800
H 	H 	0.68410 0.40150 0.52750 0.16000
H 	H 	0.64450 0.13680 0.37140 0.08500
H 	H 	0.59740 0.53830 0.92770 0.09200
H 	H 	0.00470 0.14730 0.42520 0.17600
H 	H 	0.34500 0.80100 0.60640 0.05600
H 	H 	0.95890 0.99300 0.61820 0.05000
H 	H 	0.92580 0.50180 0.67160 0.00700
H 	H 	0.64880 0.10980 0.94230 0.19000
H 	H 	0.96750 0.40590 0.88180 0.07200
H 	H 	0.99810 0.32470 0.17580 -0.00100
H 	H 	0.66220 0.41710 0.61900 0.08100
H 	H 	0.00810 0.37060 0.46130 0.12900
H 	H 	0.96900 0.38350 0.06590 0.14800
H 	H 	0.21040 0.66830 0.41110 0.01500
H 	H 	0.06430 0.96590 0.92290 0.09000
H 	H 	0.84500 0.60640 0.69900 0.05600
H 	H 	0.16220 0.88100 0.08290 0.08100
H 	H 	0.96900 0.11650 0.43410 0.14800
H 	H 	0.06430 0.96590 0.57710 0.09000
H 	H 	0.64580 0.32400 0.17300 -0.00000
H 	H 	0.83420 0.54790 0.69900 0.01000
H 	H 	0.65510 0.54070 0.57970 0.14400
H 	H 	0.13490 0.46680 0.12540 0.14500
H 	H 	0.14580 0.17300 0.17600 -0.00000
H 	H 	0.92760 0.40030 0.83050 0.00400
H 	H 	0.51500 0.59890 0.53220 0.14000
H 	H 	0.42580 0.67160 0.99820 0.00700
H 	H 	0.92760 0.09970 0.83050 0.00400
H 	H 	0.50470 0.42520 0.14730 0.17600
H 	H 	0.11930 0.89310 0.52390 0.15700
H 	H 	0.09740 0.92770 0.53830 0.09200
H 	H 	0.16630 0.06720 0.12210 0.16400
H 	H 	0.99610 0.36570 0.36650 0.08900
H 	H 	0.33420 0.69900 0.54790 0.01000
H 	H 	0.99810 0.17530 0.17580 -0.00100
H 	H 	0.00810 0.12940 0.46130 0.12900
H 	H 	0.96750 0.09410 0.88180 0.07200
H 	H 	0.50470 0.07480 0.14730 0.17600
H 	H 	0.70270 0.40430 0.93440 0.19700
H 	H 	0.14880 0.94230 0.10980 0.19000
H 	H 	0.83420 0.95210 0.69900 0.01000
H 	H 	0.85050 0.86430 0.75000 0.02800
H 	H 	0.46900 0.43410 0.11650 0.14800
H 	H 	0.51500 0.59890 0.96780 0.14000
H 	H 	0.64880 0.10980 0.55770 0.18900
H 	H 	0.06290 0.51210 0.88910 0.15400
H 	H 	0.66630 0.12210 0.06720 0.16400
H 	H 	0.13490 0.03320 0.37460 0.14500
H 	H 	0.01500 0.96780 0.90110 0.14000
H 	H 	0.14580 0.32700 0.32400 -0.00000
H 	H 	0.51500 0.90110 0.96780 0.14000
H 	H 	0.09740 0.57230 0.53830 0.09200
H 	H 	0.21040 0.66830 0.08890 0.01500
H 	H 	0.71040 0.08890 0.66830 0.01500
H 	H 	0.66220 0.08290 0.61900 0.08100
H 	H 	0.49390 0.95240 0.38880 0.14200
H 	H 	0.50810 0.46130 0.12940 0.13000
H 	H 	0.95890 0.50700 0.61820 0.05000
H 	H 	0.99810 0.32470 0.32420 -0.00100
H 	H 	0.45890 0.88180 0.50700 0.05000
H 	H 	0.00470 0.35270 0.07480 0.17600
H 	H 	0.56430 0.57710 0.53410 0.09000
H 	H 	0.95110 0.40740 0.52720 0.13400
H 	H 	0.18410 0.97250 0.09850 0.16100
H 	H 	0.49390 0.54760 0.11120 0.14200
H 	H 	0.46750 0.61820 0.09410 0.07200
H 	H 	0.68410 0.40150 0.97250 0.16000
H 	H 	0.61930 0.52390 0.60690 0.15700
H 	H 	0.64450 0.13680 0.12860 0.08500
H 	H 	0.49390 0.54760 0.38880 0.14200
H 	H 	0.56430 0.92290 0.53410 0.09000
H 	H 	0.16630 0.43280 0.12210 0.16400
H 	H 	0.96900 0.11650 0.06590 0.14800
H 	H 	0.56290 0.88910 0.51210 0.15400
H 	H 	0.49610 0.13350 0.13430 0.08900
H 	H 	0.46900 0.43410 0.38350 0.14800
H 	H 	0.21200 0.89140 0.51360 0.06400
H 	H 	0.42760 0.83050 0.09970 0.00400
H 	H 	0.71040 0.08890 0.83170 0.01500
H 	H 	0.94610 0.09800 0.93300 0.17300
H 	H 	0.18410 0.52750 0.40150 0.16000
H 	H 	0.83420 0.54790 0.80100 0.01000
H 	H 	0.06290 0.98790 0.61090 0.15400
H 	H 	0.15510 0.57970 0.95930 0.14400
H 	H 	0.13490 0.46680 0.37460 0.14500
H 	H 	0.16220 0.61900 0.41710 0.08100
H 	H 	0.21200 0.60860 0.98640 0.06400
H 	H 	0.34500 0.80100 0.89360 0.05600
H 	H 	0.49610 0.36650 0.13430 0.08900
H 	H 	0.65510 0.95930 0.92030 0.14400
H 	H 	0.63490 0.37460 0.03320 0.14500
H 	H 	0.44610 0.93300 0.40200 0.17300
H 	H 	0.15510 0.92030 0.95930 0.14400
H 	H 	0.99390 0.11120 0.54760 0.14200
H 	H 	0.14450 0.12860 0.13680 0.08500
H 	H 	0.49810 0.32420 0.17530 -0.00100
H 	H 	0.64580 0.32400 0.32700 -0.00000
H 	H 	0.96750 0.40590 0.61820 0.07200
H 	H 	0.33420 0.69900 0.95210 0.01000
H 	H 	0.42760 0.83050 0.40030 0.00400
H 	H 	0.56430 0.57710 0.96590 0.09000
H 	H 	0.14450 0.37140 0.13680 0.08500
H 	H 	0.21200 0.89140 0.98640 0.06400
H 	H 	0.94610 0.09800 0.56700 0.17300
H 	H 	0.01500 0.53220 0.59890 0.14000
H 	H 	0.50470 0.42520 0.35270 0.17600
H 	H 	0.71200 0.51360 0.60860 0.06400
H 	H 	0.12540 0.43630 0.34910 0.19200
H 	H 	0.92580 0.99820 0.67160 0.00700
C 	C 	0.49400 0.55460 0.05980 0.17800
C 	C 	0.59580 0.10380 0.42790 0.23000
C 	C 	0.11450 0.36170 0.14430 -0.20900
C 	C 	0.18900 0.60940 0.03550 0.14300
C 	C 	0.96900 0.09330 0.95140 -0.54200
C 	C 	0.06850 0.10090 0.39570 -0.24800
C 	C 	0.73460 0.46000 0.83100 -0.12100
C 	C 	0.17410 0.94930 0.09370 -0.60300
C 	C 	0.17410 0.94930 0.40630 -0.60300
C 	C 	0.38660 0.79590 0.45040 0.42800
C 	C 	0.23460 0.83100 0.04000 -0.12100
C 	C 	0.23520 0.84800 0.00910 0.05100
C 	C 	0.04390 0.51960 0.59130 -0.50300
C 	C 	0.91910 0.45160 0.82490 -0.18300
C 	C 	0.34280 0.78022 0.59440 -0.09900
C 	C 	0.12560 0.91720 0.52700 -0.52600
C 	C 	0.00210 0.12580 0.43720 -0.55900
C 	C 	0.52820 0.33240 0.33380 0.11900
C 	C 	0.83640 0.94020 0.78019 0.04500
C 	C 	0.91910 0.04840 0.67510 -0.18300
C 	C 	0.02820 0.33380 0.16760 0.11900
C 	C 	0.02730 0.01120 0.57090 0.12600
C 	C 	0.33640 0.71981 0.55980 0.04500
C 	C 	0.61450 0.35570 0.36170 -0.20900
C 	C 	0.26600 0.79690 0.45950 0.37100
C 	C 	0.83640 0.55980 0.78019 0.04500
C 	C 	0.76600 0.45950 0.79690 0.37100
C 	C 	0.91910 0.45160 0.67510 -0.18300
C 	C 	0.52820 0.33240 0.16620 0.11900
C 	C 	0.50210 0.43720 0.37420 -0.55900
C 	C 	0.56850 0.39570 0.10090 -0.24800
C 	C 	0.57670 0.20610 0.29570 0.44600
C 	C 	0.02730 0.48880 0.92910 0.12600
C 	C 	0.47170 0.88700 0.04420 0.12600
C 	C 	0.00010 0.03810 0.91830 -0.21600
C 	C 	0.13300 0.93350 0.49320 0.19200
C 	C 	0.57210 0.31950 0.17820 -0.20000
C 	C 	0.84280 0.90560 0.78022 -0.09900
C 	C 	0.49400 0.55460 0.44020 0.17800
C 	C 	0.70940 0.06810 0.65650 0.06000
C 	C 	0.46900 0.95140 0.09330 -0.54200
C 	C 	0.23520 0.84800 0.49090 0.05100
C 	C 	0.52670 0.14270 0.14130 -0.21200
C 	C 	0.34280 0.71978 0.59440 -0.09900
C 	C 	0.95840 0.42610 0.87060 -0.18100
C 	C 	0.02820 0.16620 0.16760 0.11900
C 	C 	0.99400 0.44020 0.94540 0.17800
C 	C 	0.43270 0.84040 0.48170 0.08600
C 	C 	0.17410 0.55070 0.09370 -0.60300
C 	C 	0.57210 0.18050 0.17820 -0.20000
C 	C 	0.54390 0.59130 0.51960 -0.50300
C 	C 	0.65900 0.46610 0.57740 -0.22500
C 	C 	0.43270 0.65960 0.48170 0.08600
C 	C 	0.09580 0.42790 0.39620 0.23000
C 	C 	0.70940 0.06810 0.84350 0.06000
C 	C 	0.68300 0.43460 0.87310 -0.18100
C 	C 	0.13300 0.56650 0.00680 0.19200
C 	C 	0.12560 0.58280 0.97300 -0.52600
C 	C 	0.50210 0.06280 0.12580 -0.55900
C 	C 	0.00210 0.37420 0.43720 -0.55900
C 	C 	0.52670 0.35730 0.35870 -0.21200
C 	C 	0.84280 0.59440 0.78022 -0.09900
C 	C 	0.65370 0.05820 0.55280 0.22200
C 	C 	0.65900 0.03390 0.57740 -0.22600
C 	C 	0.68900 0.46450 0.89060 0.14300
C 	C 	0.09580 0.07210 0.10380 0.23000
C 	C 	0.41910 0.67510 0.45160 -0.18300
C 	C 	0.99400 0.44020 0.55460 0.17800
C 	C 	0.71210 0.49320 0.87880 -0.18200
C 	C 	0.43380 0.84010 0.07820 0.08500
C 	C 	0.52670 0.14270 0.35870 -0.21200
C 	C 	0.73520 0.49090 0.65200 0.05100
C 	C 	0.52670 0.35730 0.14130 -0.21200
C 	C 	0.15370 0.94720 0.05820 0.22200
C 	C 	0.84620 0.61190 0.75000 0.01900
C 	C 	0.71210 0.00680 0.87880 -0.18100
C 	C 	0.18300 0.62690 0.43460 -0.18100
C 	C 	0.91910 0.04840 0.82490 -0.18300
C 	C 	0.20940 0.84350 0.06810 0.06000
C 	C 	0.15370 0.94720 0.44180 0.22200
C 	C 	0.49400 0.94540 0.44020 0.17800
C 	C 	0.34620 0.75000 0.88810 0.01900
C 	C 	0.06850 0.10090 0.10430 -0.24800
C 	C 	0.07020 0.37330 0.13160 0.17800
C 	C 	0.65370 0.44180 0.55280 0.22200
C 	C 	0.62560 0.52700 0.91720 -0.52600
C 	C 	0.11510 0.16450 0.33180 0.11000
C 	C 	0.52730 0.92910 0.01120 0.12700
C 	C 	0.57210 0.18050 0.32180 -0.20000
C 	C 	0.54390 0.90870 0.51960 -0.50300
C 	C 	0.73460 0.46000 0.66900 -0.12100
C 	C 	0.20940 0.84350 0.43190 0.06000
C 	C 	0.95500 0.48550 0.87160 -0.19800
C 	C 	0.56850 0.10430 0.10090 -0.24800
C 	C 	0.23460 0.66900 0.04000 -0.12100
C 	C 	0.99400 0.05980 0.94540 0.17800
C 	C 	0.26600 0.79690 0.04050 0.37100
C 	C 	0.97170 0.45580 0.61300 0.12600
C 	C 	0.68300 0.06540 0.62690 -0.18100
C 	C 	0.76600 0.04050 0.70310 0.37100
C 	C 	0.67410 0.40630 0.94930 -0.60300
C 	C 	0.63300 0.00680 0.93350 0.19200
C 	C 	0.57670 0.29390 0.29570 0.44600
C 	C 	0.15370 0.55280 0.05820 0.22200
C 	C 	0.68900 0.46450 0.60940 0.14300
C 	C 	0.63300 0.49320 0.93350 0.19200
C 	C 	0.95500 0.01450 0.62840 -0.19800
C 	C 	0.95500 0.01450 0.87160 -0.19700
C 	C 	0.46900 0.95140 0.40670 -0.54200
C 	C 	0.50010 0.91830 0.03810 -0.21600
C 	C 	0.73520 0.00910 0.84800 0.05100
C 	C 	0.02730 0.48880 0.57090 0.12600
C 	C 	0.07670 0.29570 0.20610 0.44600
C 	C 	0.67410 0.09370 0.94930 -0.60300
C 	C 	0.57670 0.20610 0.20430 0.44600
C 	C 	0.15900 0.92260 0.46610 -0.22600
C 	C 	0.20940 0.65650 0.06810 0.06000
C 	C 	0.53990 0.42340 0.39870 0.21500
C 	C 	0.21210 0.87880 0.49320 -0.18200
C 	C 	0.52820 0.16760 0.16620 0.11900
C 	C 	0.03990 0.10130 0.07660 0.21500
C 	C 	0.34280 0.71978 0.90560 -0.09900
C 	C 	0.61510 0.16820 0.33550 0.11000
C 	C 	0.15900 0.57740 0.46610 -0.22500
C 	C 	0.43270 0.65960 0.01830 0.08600
C 	C 	0.68300 0.06540 0.87310 -0.18100
C 	C 	0.63400 0.37240 0.44220 -0.58300
C 	C 	0.45500 0.87160 0.48550 -0.19800
C 	C 	0.43270 0.84040 0.01830 0.08600
C 	C 	0.63300 0.00680 0.56650 0.19200
C 	C 	0.50010 0.58170 0.03810 -0.21500
C 	C 	0.62560 0.52700 0.58280 -0.52600
C 	C 	0.15900 0.57740 0.03390 -0.22600
C 	C 	0.71210 0.00680 0.62120 -0.18200
C 	C 	0.52730 0.57090 0.48880 0.12600
C 	C 	0.95500 0.48550 0.62840 -0.19800
C 	C 	0.21210 0.62120 0.49320 -0.18200
C 	C 	0.63400 0.12760 0.05780 -0.58300
C 	C 	0.23460 0.83100 0.46000 -0.12100
C 	C 	0.54390 0.59130 0.98040 -0.50300
C 	C 	0.56850 0.10430 0.39910 -0.24800
C 	C 	0.84280 0.90560 0.71978 -0.09900
C 	C 	0.43380 0.65990 0.42180 0.08500
C 	C 	0.15370 0.55280 0.44180 0.22200
C 	C 	0.00210 0.12580 0.06280 -0.55900
C 	C 	0.33640 0.78019 0.55980 0.04500
C 	C 	0.47170 0.61300 0.45580 0.12600
C 	C 	0.88660 0.45040 0.70410 0.42800
C 	C 	0.18300 0.87310 0.43460 -0.18100
C 	C 	0.04390 0.51960 0.90870 -0.50300
C 	C 	0.52730 0.92910 0.48880 0.12600
C 	C 	0.93380 0.42180 0.65990 0.08500
C 	C 	0.02670 0.35870 0.14270 -0.21200
C 	C 	0.41910 0.82490 0.04840 -0.18300
C 	C 	0.33640 0.71981 0.94020 0.04500
C 	C 	0.07020 0.37330 0.36840 0.17800
C 	C 	0.02730 0.01120 0.92910 0.12700
C 	C 	0.59580 0.39620 0.07210 0.23000
C 	C 	0.96900 0.09330 0.54860 -0.54200
C 	C 	0.73460 0.04000 0.83100 -0.12100
C 	C 	0.18300 0.87310 0.06540 -0.18100
C 	C 	0.83640 0.55980 0.71981 0.04500
C 	C 	0.52820 0.16760 0.33380 0.11900
C 	C 	0.07670 0.20430 0.20610 0.44600
C 	C 	0.57210 0.31950 0.32180 -0.20000
C 	C 	0.11450 0.13830 0.35570 -0.20900
C 	C 	0.73520 0.49090 0.84800 0.05100
C 	C 	0.61450 0.14430 0.36170 -0.20900
C 	C 	0.45840 0.62940 0.42610 -0.18100
C 	C 	0.93270 0.48170 0.84040 0.08600
C 	C 	0.02820 0.16620 0.33240 0.11900
C 	C 	0.00210 0.37420 0.06280 -0.55900
C 	C 	0.76600 0.04050 0.79690 0.37100
C 	C 	0.67410 0.40630 0.55070 -0.60300
C 	C 	0.45840 0.62940 0.07390 -0.18100
C 	C 	0.68900 0.03550 0.60940 0.14300
C 	C 	0.12560 0.91720 0.97300 -0.52700
C 	C 	0.13300 0.56650 0.49320 0.19200
C 	C 	0.20940 0.65650 0.43190 0.06000
C 	C 	0.47170 0.61300 0.04420 0.12600
C 	C 	0.61510 0.33180 0.16450 0.11000
C 	C 	0.93270 0.01830 0.84040 0.08600
C 	C 	0.26600 0.70310 0.04050 0.37100
C 	C 	0.13300 0.93350 0.00680 0.19200
C 	C 	0.65900 0.03390 0.92260 -0.22600
C 	C 	0.02670 0.14130 0.14270 -0.21200
C 	C 	0.11450 0.36170 0.35570 -0.20900
C 	C 	0.03990 0.39870 0.07660 0.21500
C 	C 	0.04390 0.98040 0.90870 -0.50300
C 	C 	0.11510 0.16450 0.16820 0.11000
C 	C 	0.95840 0.42610 0.62940 -0.18100
C 	C 	0.83640 0.94020 0.71981 0.04500
C 	C 	0.07210 0.32180 0.31950 -0.20000
C 	C 	0.46900 0.54860 0.09330 -0.54200
C 	C 	0.63400 0.12760 0.44220 -0.58300
C 	C 	0.53990 0.42340 0.10130 0.21500
C 	C 	0.49400 0.94540 0.05980 0.17800
C 	C 	0.07210 0.32180 0.18050 -0.20000
C 	C 	0.61510 0.33180 0.33550 0.11000
C 	C 	0.00010 0.46190 0.91830 -0.21600
C 	C 	0.02820 0.33380 0.33240 0.11900
C 	C 	0.34280 0.78022 0.90560 -0.09900
C 	C 	0.18900 0.60940 0.46450 0.14300
C 	C 	0.93380 0.42180 0.84010 0.08500
C 	C 	0.03990 0.39870 0.42340 0.21500
C 	C 	0.57020 0.36840 0.37330 0.17800
C 	C 	0.38660 0.70410 0.04960 0.42800
C 	C 	0.63400 0.37240 0.05780 -0.58300
C 	C 	0.07020 0.12670 0.36840 0.17800
C 	C 	0.38660 0.70410 0.45040 0.42800
C 	C 	0.00010 0.03810 0.58170 -0.21500
C 	C 	0.06850 0.39910 0.10430 -0.24800
C 	C 	0.13400 0.05780 0.12760 -0.58300
C 	C 	0.41910 0.82490 0.45160 -0.18300
C 	C 	0.18900 0.89060 0.46450 0.14300
C 	C 	0.63300 0.49320 0.56650 0.19200
C 	C 	0.45840 0.87060 0.42610 -0.18100
C 	C 	0.02670 0.35870 0.35730 -0.21200
C 	C 	0.18900 0.89060 0.03550 0.14300
C 	C 	0.52730 0.57090 0.01120 0.12600
C 	C 	0.93270 0.48170 0.65960 0.08600
C 	C 	0.99400 0.05980 0.55460 0.17800
C 	C 	0.95840 0.07390 0.62940 -0.18100
C 	C 	0.47170 0.88700 0.45580 0.12600
C 	C 	0.57020 0.36840 0.12670 0.17800
C 	C 	0.07020 0.12670 0.13160 0.17800
C 	C 	0.59580 0.39620 0.42790 0.23000
C 	C 	0.65370 0.05820 0.94720 0.22200
C 	C 	0.13400 0.44220 0.12760 -0.58300
C 	C 	0.97170 0.04420 0.88700 0.12600
C 	C 	0.45500 0.87160 0.01450 -0.19700
C 	C 	0.70940 0.43190 0.65650 0.06000
C 	C 	0.45500 0.62840 0.01450 -0.19800
C 	C 	0.61450 0.35570 0.13830 -0.20900
C 	C 	0.23460 0.66900 0.46000 -0.12100
C 	C 	0.09580 0.07210 0.39620 0.23000
C 	C 	0.50210 0.06280 0.37420 -0.55900
C 	C 	0.23520 0.65200 0.49090 0.05100
C 	C 	0.97170 0.45580 0.88700 0.12600
C 	C 	0.21210 0.62120 0.00680 -0.18100
C 	C 	0.88660 0.04960 0.79590 0.42800
C 	C 	0.84620 0.88810 0.75000 0.01900
C 	C 	0.07210 0.17820 0.31950 -0.20000
C 	C 	0.18300 0.62690 0.06540 -0.18100
C 	C 	0.23520 0.65200 0.00910 0.05100
C 	C 	0.61450 0.14430 0.13830 -0.20900
C 	C 	0.07210 0.17820 0.18050 -0.20000
C 	C 	0.34620 0.75000 0.61190 0.01900
C 	C 	0.61510 0.16820 0.16450 0.11000
C 	C 	0.07670 0.20430 0.29390 0.44600
C 	C 	0.17410 0.55070 0.40630 -0.60300
C 	C 	0.21210 0.87880 0.00680 -0.18100
C 	C 	0.76600 0.45950 0.70310 0.37100
C 	C 	0.73520 0.00910 0.65200 0.05100
C 	C 	0.70940 0.43190 0.84350 0.06000
C 	C 	0.26600 0.70310 0.45950 0.37100
C 	C 	0.68300 0.43460 0.62690 -0.18100
C 	C 	0.11450 0.13830 0.14430 -0.20900
C 	C 	0.71210 0.49320 0.62120 -0.18200
C 	C 	0.93270 0.01830 0.65960 0.08600
C 	C 	0.62560 0.97300 0.91720 -0.52600
C 	C 	0.59580 0.10380 0.07210 0.23000
C 	C 	0.06850 0.39910 0.39570 -0.24800
C 	C 	0.45500 0.62840 0.48550 -0.19800
C 	C 	0.93380 0.07820 0.65990 0.08500
C 	C 	0.96900 0.40670 0.54860 -0.54200
C 	C 	0.84280 0.59440 0.71978 -0.09900
C 	C 	0.00010 0.46190 0.58170 -0.21500
C 	C 	0.02670 0.14130 0.35730 -0.21200
C 	C 	0.54390 0.90870 0.98040 -0.50300
C 	C 	0.50210 0.43720 0.12580 -0.55900
C 	C 	0.03990 0.10130 0.42340 0.21500
C 	C 	0.41910 0.67510 0.04840 -0.18300
C 	C 	0.53990 0.07660 0.10130 0.21500
C 	C 	0.68900 0.03550 0.89060 0.14300
C 	C 	0.67410 0.09370 0.55070 -0.60300
C 	C 	0.04390 0.98040 0.59130 -0.50300
C 	C 	0.46900 0.54860 0.40670 -0.54200
C 	C 	0.73460 0.04000 0.66900 -0.12100
C 	C 	0.50010 0.91830 0.46190 -0.21500
C 	C 	0.15900 0.92260 0.03390 -0.22600
C 	C 	0.65370 0.44180 0.94720 0.22200
C 	C 	0.96900 0.40670 0.95140 -0.54200
C 	C 	0.97170 0.04420 0.61300 0.12600
C 	C 	0.12560 0.58280 0.52700 -0.52600
C 	C 	0.57020 0.13160 0.37330 0.17800
C 	C 	0.56850 0.39570 0.39910 -0.24800
C 	C 	0.07670 0.29570 0.29390 0.44600
C 	C 	0.38660 0.79590 0.04960 0.42800
C 	C 	0.13400 0.44220 0.37240 -0.58300
C 	C 	0.13400 0.05780 0.37240 -0.58300
C 	C 	0.11510 0.33550 0.33180 0.11000
C 	C 	0.65900 0.46610 0.92260 -0.22600
C 	C 	0.88660 0.45040 0.79590 0.42800
C 	C 	0.50010 0.58170 0.46190 -0.21500
C 	C 	0.45840 0.87060 0.07390 -0.18100
C 	C 	0.33640 0.78019 0.94020 0.04500
C 	C 	0.11510 0.33550 0.16820 0.11000
C 	C 	0.53990 0.07660 0.39870 0.21500
C 	C 	0.57020 0.13160 0.12670 0.17800
C 	C 	0.62560 0.97300 0.58280 -0.52600
C 	C 	0.57670 0.29390 0.20430 0.44600
C 	C 	0.43380 0.65990 0.07820 0.08500
C 	C 	0.88660 0.04960 0.70410 0.42800
C 	C 	0.43380 0.84010 0.42180 0.08500
C 	C 	0.09580 0.42790 0.10380 0.23000
C 	C 	0.95840 0.07390 0.87060 -0.18100
C 	C 	0.93380 0.07820 0.84010 0.08500
N 	N 	0.12550 0.52820 0.45490 -0.29700
N 	N 	0.58370 0.07600 0.44500 -0.30000
N 	N 	0.51740 0.97290 0.45350 -0.32100
N 	N 	0.83310 0.95770 0.75000 -0.17100
N 	N 	0.03670 0.48240 0.96240 -0.32700
N 	N 	0.01740 0.45350 0.52710 -0.32100
N 	N 	0.03670 0.48240 0.53760 -0.32700
N 	N 	0.58370 0.42400 0.44500 -0.30000
N 	N 	0.62550 0.04510 0.97180 -0.29700
N 	N 	0.11200 0.96380 0.48610 -0.31300
N 	N 	0.08370 0.44500 0.42400 -0.30000
N 	N 	0.53670 0.96240 0.48240 -0.32700
N 	N 	0.11200 0.53620 0.48610 -0.31300
N 	N 	0.12550 0.97180 0.04510 -0.29700
N 	N 	0.54990 0.44080 0.07250 -0.29800
N 	N 	0.61200 0.01390 0.53620 -0.31300
N 	N 	0.51740 0.52710 0.04650 -0.32100
N 	N 	0.61200 0.48610 0.53620 -0.31300
N 	N 	0.04990 0.42750 0.44080 -0.29800
N 	N 	0.04990 0.07250 0.44080 -0.29800
N 	N 	0.01740 0.04650 0.97290 -0.32100
N 	N 	0.62550 0.45490 0.97180 -0.29700
N 	N 	0.58370 0.07600 0.05500 -0.30000
N 	N 	0.04990 0.07250 0.05920 -0.29800
N 	N 	0.83310 0.54230 0.75000 -0.17100
N 	N 	0.61200 0.48610 0.96380 -0.31300
N 	N 	0.54990 0.44080 0.42750 -0.29800
N 	N 	0.12550 0.97180 0.45490 -0.29700
N 	N 	0.62550 0.04510 0.52820 -0.29700
N 	N 	0.11200 0.53620 0.01390 -0.31300
N 	N 	0.53670 0.53760 0.01760 -0.32700
N 	N 	0.61200 0.01390 0.96380 -0.31300
N 	N 	0.33310 0.75000 0.95770 -0.17100
N 	N 	0.51740 0.97290 0.04650 -0.32100
N 	N 	0.12550 0.52820 0.04510 -0.29700
N 	N 	0.54990 0.05920 0.07250 -0.29800
N 	N 	0.53670 0.96240 0.01760 -0.32700
N 	N 	0.03670 0.01760 0.96240 -0.32700
N 	N 	0.08370 0.44500 0.07600 -0.30000
N 	N 	0.51740 0.52710 0.45350 -0.32100
N 	N 	0.53670 0.53760 0.48240 -0.32700
N 	N 	0.62550 0.45490 0.52820 -0.29700
N 	N 	0.01740 0.45350 0.97290 -0.32100
N 	N 	0.58370 0.42400 0.05500 -0.30000
N 	N 	0.04990 0.42750 0.05920 -0.29800
N 	N 	0.08370 0.05500 0.07600 -0.30000
N 	N 	0.54990 0.05920 0.42750 -0.29800
N 	N 	0.33310 0.75000 0.54230 -0.17100
N 	N 	0.03670 0.01760 0.53760 -0.32700
N 	N 	0.08370 0.05500 0.42400 -0.30000
N 	N 	0.01740 0.04650 0.52710 -0.32100
N 	N 	0.11200 0.96380 0.01390 -0.31300
O 	O 	0.03330 0.21493 0.28475 -0.42200
O 	O 	0.11390 0.28495 0.21537 -0.46400
O 	O 	0.27970 0.78516 0.01428 -0.42800
O 	O 	0.27360 0.71387 0.07043 -0.40900
O 	O 	0.37250 0.71495 0.07729 -0.43700
O 	O 	0.61390 0.21537 0.21505 -0.46400
O 	O 	0.11390 0.28495 0.28463 -0.46400
O 	O 	0.61390 0.28463 0.28495 -0.46400
O 	O 	0.53330 0.28475 0.21493 -0.42200
O 	O 	0.11390 0.21505 0.28463 -0.46400
O 	O 	0.27360 0.78613 0.42957 -0.40900
O 	O 	0.87490 0.47787 0.71562 -0.44200
O 	O 	0.27360 0.78613 0.07043 -0.40900
O 	O 	0.37490 0.78438 0.02213 -0.44200
O 	O 	0.77360 0.42957 0.78613 -0.40900
O 	O 	0.87250 0.42271 0.78505 -0.43700
O 	O 	0.53330 0.21525 0.28507 -0.42200
O 	O 	0.37250 0.78505 0.42271 -0.43700
O 	O 	0.61390 0.28463 0.21505 -0.46400
O 	O 	0.37250 0.78505 0.07729 -0.43700
O 	O 	0.87490 0.02213 0.71562 -0.44200
O 	O 	0.37490 0.71562 0.02213 -0.44200
O 	O 	0.77970 0.48572 0.78516 -0.42800
O 	O 	0.27970 0.71484 0.01428 -0.42800
O 	O 	0.87250 0.07729 0.71495 -0.43700
O 	O 	0.87490 0.47787 0.78438 -0.44200
O 	O 	0.77970 0.01428 0.78516 -0.42800
O 	O 	0.77970 0.48572 0.71484 -0.42800
O 	O 	0.77360 0.07043 0.71387 -0.40900
O 	O 	0.87250 0.07729 0.78505 -0.43700
O 	O 	0.03330 0.28507 0.21525 -0.42200
O 	O 	0.27970 0.78516 0.48572 -0.42800
O 	O 	0.37250 0.71495 0.42271 -0.43700
O 	O 	0.87250 0.42271 0.71495 -0.43700
O 	O 	0.77360 0.07043 0.78613 -0.40900
O 	O 	0.03330 0.28507 0.28475 -0.42200
O 	O 	0.03330 0.21493 0.21525 -0.42200
O 	O 	0.27970 0.71484 0.48572 -0.42800
O 	O 	0.37490 0.78438 0.47787 -0.44200
O 	O 	0.87490 0.02213 0.78438 -0.44200
O 	O 	0.11390 0.21505 0.21537 -0.46400
O 	O 	0.77360 0.42957 0.71387 -0.40900
O 	O 	0.53330 0.28475 0.28507 -0.42200
O 	O 	0.27360 0.71387 0.42957 -0.40900
O 	O 	0.53330 0.21525 0.21493 -0.42200
O 	O 	0.61390 0.21537 0.28495 -0.46400
O 	O 	0.37490 0.71562 0.47787 -0.44200
O 	O 	0.77970 0.01428 0.71484 -0.42800
Cu	Cu	0.47642 0.75000 0.75000 0.89800
Cu	Cu	0.97642 0.75000 0.75000 0.89800
Cu	Cu	0.46856 0.51573 0.94071 0.73800
Cu	Cu	0.89489 0.98711 0.93920 0.75800
Cu	Cu	0.42583 0.48829 0.49037 0.73700
Cu	Cu	0.89489 0.98711 0.56080 0.75800
Cu	Cu	0.42583 0.48829 0.00963 0.73700
Cu	Cu	0.39489 0.93920 0.98711 0.75800
Cu	Cu	0.17234 0.51277 0.25000 0.93400
Cu	Cu	0.17730 0.92018 0.25000 0.90200
Cu	Cu	0.67234 0.25000 0.51277 0.93400
Cu	Cu	0.96856 0.94071 0.51573 0.73800
Cu	Cu	0.39489 0.56080 0.51289 0.75800
Cu	Cu	0.89489 0.51289 0.56080 0.75800
Cu	Cu	0.42583 0.01171 0.00963 0.73700
Cu	Cu	0.67234 0.25000 0.98723 0.93400
Cu	Cu	0.17730 0.57982 0.25000 0.90200
Cu	Cu	0.92583 0.00963 0.48829 0.73700
Cu	Cu	0.96856 0.55929 0.51573 0.73800
Cu	Cu	0.39489 0.93920 0.51289 0.75800
Cu	Cu	0.92583 0.49037 0.01171 0.73700
Cu	Cu	0.92583 0.49037 0.48829 0.73700
Cu	Cu	0.92583 0.00963 0.01171 0.73700
Cu	Cu	0.46856 0.98427 0.55929 0.73800
Cu	Cu	0.67730 0.25000 0.57982 0.90200
Cu	Cu	0.87917 0.75000 0.75000 0.91200
Cu	Cu	0.96856 0.55929 0.98427 0.73800
Cu	Cu	0.96856 0.94071 0.98427 0.73800
Cu	Cu	0.67730 0.25000 0.92018 0.90200
Cu	Cu	0.37917 0.75000 0.75000 0.91200
Cu	Cu	0.39489 0.56080 0.98711 0.75800
Cu	Cu	0.46856 0.98427 0.94071 0.73800
Cu	Cu	0.89489 0.51289 0.93920 0.75800
Cu	Cu	0.46856 0.51573 0.55929 0.73800
Cu	Cu	0.42583 0.01171 0.49037 0.73700
Cu	Cu	0.17234 0.98723 0.25000 0.93400
H 	H 	0.85420 0.67300 0.67600 -0.00000
H 	H 	0.40260 0.46170 0.07230 0.09200
H 	H 	0.07420 0.00180 0.17160 0.00700
H 	H 	0.53250 0.38180 0.90590 0.07200
H 	H 	0.15500 0.10640 0.19900 0.05600
H 	H 	0.54890 0.47280 0.59260 0.13400
H 	H 	0.50190 0.67580 0.82470 -0.00100
H 	H 	0.38070 0.47610 0.39310 0.15700
H 	H 	0.99190 0.87060 0.96130 0.13000
H 	H 	0.07240 0.59970 0.33050 0.00400
H 	H 	0.49190 0.53870 0.62940 0.13000
H 	H 	0.49190 0.53870 0.87060 0.13000
H 	H 	0.03100 0.61650 0.93410 0.14800
H 	H 	0.48500 0.40110 0.03220 0.14000
H 	H 	0.35550 0.86320 0.62860 0.08500
H 	H 	0.07240 0.90030 0.33050 0.00400
H 	H 	0.37460 0.84910 0.93630 0.19200
H 	H 	0.49190 0.96130 0.62940 0.13000
H 	H 	0.99530 0.64730 0.57480 0.17600
H 	H 	0.48500 0.09890 0.46780 0.14000
H 	H 	0.53100 0.93410 0.61650 0.14800
H 	H 	0.36510 0.62540 0.96680 0.14500
H 	H 	0.54110 0.11820 0.49300 0.05000
H 	H 	0.03100 0.61650 0.56590 0.14800
H 	H 	0.24870 0.00990 0.33850 0.01300
H 	H 	0.85420 0.67300 0.82400 -0.00000
H 	H 	0.65500 0.30100 0.39360 0.05600
H 	H 	0.36510 0.62540 0.53320 0.14500
H 	H 	0.54110 0.38180 0.00700 0.05000
H 	H 	0.99190 0.62940 0.53870 0.12900
H 	H 	0.15500 0.39360 0.30100 0.05600
H 	H 	0.49530 0.92520 0.85270 0.17600
H 	H 	0.54110 0.11820 0.00700 0.05000
H 	H 	0.86510 0.96680 0.62540 0.14500
H 	H 	0.83780 0.38100 0.91710 0.08100
H 	H 	0.04890 0.90740 0.47280 0.13400
H 	H 	0.35120 0.60980 0.05770 0.18900
H 	H 	0.55390 0.06700 0.59800 0.17300
H 	H 	0.16580 0.45210 0.19900 0.01000
H 	H 	0.31590 0.90150 0.02750 0.16100
H 	H 	0.99190 0.62940 0.96130 0.13000
H 	H 	0.40260 0.46170 0.42770 0.09200
H 	H 	0.74870 0.16150 0.00990 0.01300
H 	H 	0.33780 0.58290 0.38100 0.08100
H 	H 	0.43570 0.07710 0.03410 0.09000
H 	H 	0.99530 0.64730 0.92520 0.17600
H 	H 	0.36510 0.87460 0.53320 0.14500
H 	H 	0.87460 0.56370 0.65090 0.19200
H 	H 	0.79730 0.06560 0.59570 0.19700
H 	H 	0.35550 0.63680 0.87140 0.08500
H 	H 	0.57420 0.32840 0.00180 0.00700
H 	H 	0.57240 0.16950 0.90030 0.00400
H 	H 	0.84490 0.07970 0.45930 0.14400
H 	H 	0.43570 0.07710 0.46590 0.09000
H 	H 	0.24870 0.49010 0.33850 0.01300
H 	H 	0.04110 0.49300 0.11820 0.05000
H 	H 	0.78960 0.33170 0.58890 0.01500
H 	H 	0.35550 0.86320 0.87140 0.08500
H 	H 	0.37460 0.65090 0.93630 0.19200
H 	H 	0.34490 0.04070 0.07970 0.14400
H 	H 	0.74870 0.33850 0.00990 0.01300
H 	H 	0.53250 0.11820 0.59410 0.07200
H 	H 	0.86510 0.96680 0.87460 0.14500
H 	H 	0.35120 0.89020 0.44230 0.18900
H 	H 	0.54890 0.02720 0.90740 0.13400
H 	H 	0.85420 0.82700 0.82400 -0.00000
H 	H 	0.64950 0.25000 0.36430 0.02800
H 	H 	0.78800 0.39140 0.48640 0.06400
H 	H 	0.28800 0.48640 0.39140 0.06400
H 	H 	0.00390 0.63430 0.86650 0.08900
H 	H 	0.98500 0.46780 0.40110 0.14000
H 	H 	0.65500 0.19900 0.10640 0.05600
H 	H 	0.07420 0.49820 0.32840 0.00700
H 	H 	0.04110 0.00700 0.38180 0.05000
H 	H 	0.93710 0.48790 0.11090 0.15400
H 	H 	0.50610 0.04760 0.88880 0.14200
H 	H 	0.78960 0.16830 0.58890 0.01500
H 	H 	0.57420 0.17160 0.00180 0.00700
H 	H 	0.93570 0.46590 0.07710 0.09000
H 	H 	0.33780 0.91710 0.11900 0.08100
H 	H 	0.85550 0.87140 0.86320 0.08500
H 	H 	0.38070 0.02390 0.10690 0.15700
H 	H 	0.05390 0.90200 0.43300 0.17300
H 	H 	0.05390 0.59800 0.06700 0.17300
H 	H 	0.85550 0.62860 0.86320 0.08500
H 	H 	0.00390 0.86570 0.86650 0.08900
H 	H 	0.78800 0.10860 0.48640 0.06400
H 	H 	0.64950 0.25000 0.13570 0.02800
H 	H 	0.84490 0.42030 0.04070 0.14400
H 	H 	0.50190 0.67580 0.67530 -0.00100
H 	H 	0.00190 0.67530 0.67580 -0.00100
H 	H 	0.14950 0.36430 0.25000 0.02800
H 	H 	0.85120 0.05770 0.89020 0.19000
H 	H 	0.81590 0.47250 0.59850 0.16000
H 	H 	0.53250 0.11820 0.90590 0.07200
H 	H 	0.50610 0.45240 0.88880 0.14200
H 	H 	0.83370 0.93280 0.87790 0.16400
H 	H 	0.34490 0.04070 0.42030 0.14400
H 	H 	0.54110 0.38180 0.49300 0.05000
H 	H 	0.49530 0.57480 0.85270 0.17600
H 	H 	0.66580 0.30100 0.45210 0.01000
H 	H 	0.43710 0.38910 0.01210 0.15400
H 	H 	0.14950 0.13570 0.25000 0.02800
H 	H 	0.86510 0.53320 0.87460 0.14500
H 	H 	0.28800 0.48640 0.10860 0.06400
H 	H 	0.66580 0.19900 0.45210 0.01000
H 	H 	0.98500 0.03220 0.40110 0.14000
H 	H 	0.00610 0.61120 0.04760 0.14200
H 	H 	0.07240 0.59970 0.16950 0.00400
H 	H 	0.81590 0.02750 0.90150 0.16100
H 	H 	0.16580 0.04790 0.19900 0.01000
H 	H 	0.00610 0.88880 0.04760 0.14200
H 	H 	0.87460 0.56370 0.84910 0.19200
H 	H 	0.66580 0.30100 0.04790 0.01000
H 	H 	0.29730 0.90430 0.43440 0.19700
H 	H 	0.87460 0.93630 0.65090 0.19200
H 	H 	0.35420 0.82400 0.82700 -0.00000
H 	H 	0.83780 0.38100 0.58290 0.08100
H 	H 	0.33370 0.87790 0.56720 0.16400
H 	H 	0.35420 0.67600 0.82700 -0.00000
H 	H 	0.31590 0.59850 0.02750 0.16000
H 	H 	0.35120 0.89020 0.05770 0.19000
H 	H 	0.35420 0.82400 0.67300 -0.00000
H 	H 	0.33370 0.62210 0.93280 0.16400
H 	H 	0.38070 0.02390 0.39310 0.15700
H 	H 	0.55390 0.06700 0.90200 0.17300
H 	H 	0.78960 0.16830 0.91110 0.01500
H 	H 	0.28960 0.91110 0.16830 0.01500
H 	H 	0.65500 0.19900 0.39360 0.05600
H 	H 	0.86510 0.53320 0.62540 0.14500
H 	H 	0.03250 0.90590 0.38180 0.07200
H 	H 	0.99530 0.85270 0.92520 0.17600
H 	H 	0.53250 0.38180 0.59410 0.07200
H 	H 	0.93570 0.03410 0.42290 0.09000
H 	H 	0.29730 0.59570 0.43440 0.19700
H 	H 	0.03100 0.88350 0.56590 0.14800
H 	H 	0.53100 0.93410 0.88350 0.14800
H 	H 	0.49530 0.92520 0.64730 0.17600
H 	H 	0.85120 0.05770 0.60980 0.18900
H 	H 	0.49530 0.57480 0.64730 0.17600
H 	H 	0.28800 0.01360 0.39140 0.06400
H 	H 	0.90260 0.42770 0.46170 0.09200
H 	H 	0.33370 0.87790 0.93280 0.16400
H 	H 	0.00190 0.67530 0.82420 -0.00100
H 	H 	0.88070 0.39310 0.47610 0.15700
H 	H 	0.78960 0.33170 0.91110 0.01500
H 	H 	0.43710 0.38910 0.48790 0.15400
H 	H 	0.50610 0.04760 0.61120 0.14200
H 	H 	0.57420 0.17160 0.49820 0.00700
H 	H 	0.83370 0.56720 0.62210 0.16400
H 	H 	0.99530 0.85270 0.57480 0.17600
H 	H 	0.85420 0.82700 0.67600 -0.00000
H 	H 	0.99190 0.87060 0.53870 0.12900
H 	H 	0.00390 0.86570 0.63350 0.08900
H 	H 	0.48500 0.09890 0.03220 0.14000
H 	H 	0.07420 0.49820 0.17160 0.00700
H 	H 	0.04890 0.59260 0.02720 0.13400
H 	H 	0.81590 0.47250 0.90150 0.16000
H 	H 	0.83370 0.56720 0.87790 0.16400
H 	H 	0.50390 0.63350 0.86570 0.08900
H 	H 	0.50390 0.86650 0.63430 0.08900
H 	H 	0.33370 0.62210 0.56720 0.16400
H 	H 	0.03100 0.88350 0.93410 0.14800
H 	H 	0.15500 0.10640 0.30100 0.05600
H 	H 	0.79730 0.43440 0.59570 0.19700
H 	H 	0.79730 0.43440 0.90430 0.19700
H 	H 	0.43710 0.11090 0.48790 0.15400
H 	H 	0.00390 0.63430 0.63350 0.08900
H 	H 	0.83370 0.93280 0.62210 0.16400
H 	H 	0.35550 0.63680 0.62860 0.08500
H 	H 	0.24870 0.49010 0.16150 0.01300
H 	H 	0.98500 0.03220 0.09890 0.14000
H 	H 	0.65500 0.30100 0.10640 0.05600
H 	H 	0.15500 0.39360 0.19900 0.05600
H 	H 	0.90260 0.07230 0.46170 0.09200
H 	H 	0.55390 0.43300 0.59800 0.17300
H 	H 	0.57240 0.16950 0.59970 0.00400
H 	H 	0.50190 0.82420 0.82470 -0.00100
H 	H 	0.90260 0.42770 0.03830 0.09200
H 	H 	0.54890 0.02720 0.59260 0.13400
H 	H 	0.93570 0.03410 0.07710 0.09000
H 	H 	0.31590 0.59850 0.47250 0.16000
H 	H 	0.35120 0.60980 0.44230 0.18900
H 	H 	0.36510 0.87460 0.96680 0.14500
H 	H 	0.40260 0.03830 0.07230 0.09200
H 	H 	0.74870 0.33850 0.49010 0.01300
H 	H 	0.98500 0.46780 0.09890 0.14000
H 	H 	0.50610 0.45240 0.61120 0.14200
H 	H 	0.93710 0.48790 0.38910 0.15400
H 	H 	0.00190 0.82470 0.82420 -0.00100
H 	H 	0.66580 0.19900 0.04790 0.01000
H 	H 	0.90260 0.07230 0.03830 0.09200
H 	H 	0.83780 0.11900 0.58290 0.08100
H 	H 	0.57240 0.33050 0.90030 0.00400
H 	H 	0.00610 0.88880 0.45240 0.14200
H 	H 	0.85120 0.44230 0.60980 0.18900
H 	H 	0.31590 0.90150 0.47250 0.16000
H 	H 	0.85550 0.87140 0.63680 0.08500
H 	H 	0.00610 0.61120 0.45240 0.14200
H 	H 	0.93570 0.46590 0.42290 0.09000
H 	H 	0.78800 0.39140 0.01360 0.06400
H 	H 	0.24870 0.00990 0.16150 0.01300
H 	H 	0.29730 0.59570 0.06560 0.19700
H 	H 	0.43710 0.11090 0.01210 0.15400
H 	H 	0.85550 0.62860 0.63680 0.08500
H 	H 	0.38070 0.47610 0.10690 0.15700
H 	H 	0.37460 0.65090 0.56370 0.19200
H 	H 	0.33780 0.91710 0.38100 0.08100
H 	H 	0.50190 0.82420 0.67530 -0.00100
H 	H 	0.40260 0.03830 0.42770 0.09200
H 	H 	0.34490 0.45930 0.07970 0.14400
H 	H 	0.03250 0.59410 0.11820 0.07200
H 	H 	0.35420 0.67600 0.67300 -0.00000
H 	H 	0.16580 0.04790 0.30100 0.01000
H 	H 	0.74870 0.16150 0.49010 0.01300
H 	H 	0.83780 0.11900 0.91710 0.08100
H 	H 	0.37460 0.84910 0.56370 0.19200
H 	H 	0.05390 0.59800 0.43300 0.17300
H 	H 	0.05390 0.90200 0.06700 0.17300
H 	H 	0.50390 0.63350 0.63430 0.08900
H 	H 	0.03250 0.59410 0.38180 0.07200
H 	H 	0.04110 0.49300 0.38180 0.05000
H 	H 	0.28960 0.58890 0.16830 0.01500
H 	H 	0.50390 0.86650 0.86570 0.08900
H 	H 	0.53100 0.56590 0.88350 0.14800
H 	H 	0.53100 0.56590 0.61650 0.14800
H 	H 	0.88070 0.39310 0.02390 0.15700
H 	H 	0.87460 0.93630 0.84910 0.19200
H 	H 	0.04890 0.90740 0.02720 0.13400
H 	H 	0.04110 0.00700 0.11820 0.05000
H 	H 	0.07240 0.90030 0.16950 0.00400
H 	H 	0.28960 0.91110 0.33170 0.01500
H 	H 	0.88070 0.10690 0.02390 0.15700
H 	H 	0.00190 0.82470 0.67580 -0.00100
H 	H 	0.84490 0.42030 0.45930 0.14400
H 	H 	0.34490 0.45930 0.42030 0.14400
H 	H 	0.85120 0.44230 0.89020 0.18900
H 	H 	0.93710 0.01210 0.11090 0.15400
H 	H 	0.88070 0.10690 0.47610 0.15700
H 	H 	0.79730 0.06560 0.90430 0.19700
H 	H 	0.03250 0.90590 0.11820 0.07200
H 	H 	0.57240 0.33050 0.59970 0.00400
H 	H 	0.84490 0.07970 0.04070 0.14400
H 	H 	0.93710 0.01210 0.38910 0.15400
H 	H 	0.07420 0.00180 0.32840 0.00700
H 	H 	0.43570 0.42290 0.46590 0.09000
H 	H 	0.48500 0.40110 0.46780 0.14000
H 	H 	0.55390 0.43300 0.90200 0.17300
H 	H 	0.29730 0.90430 0.06560 0.19700
H 	H 	0.43570 0.42290 0.03410 0.09000
H 	H 	0.28800 0.01360 0.10860 0.06400
H 	H 	0.54890 0.47280 0.90740 0.13400
H 	H 	0.33780 0.58290 0.11900 0.08100
H 	H 	0.49190 0.96130 0.87060 0.13000
H 	H 	0.16580 0.45210 0.30100 0.01000
H 	H 	0.81590 0.02750 0.59850 0.16000
H 	H 	0.04890 0.59260 0.47280 0.13400
H 	H 	0.57420 0.32840 0.49820 0.00700
H 	H 	0.28960 0.58890 0.33170 0.01500
H 	H 	0.78800 0.10860 0.01360 0.06400
C 	C 	0.49990 0.08170 0.96190 -0.21600
C 	C 	0.38550 0.85570 0.86170 -0.20900
C 	C 	0.78790 0.12120 0.99320 -0.18100
C 	C 	0.36600 0.62760 0.55780 -0.58300
C 	C 	0.36700 0.50680 0.43350 0.19200
C 	C 	0.90420 0.57210 0.60380 0.23000
C 	C 	0.84100 0.07740 0.53390 -0.22600
C 	C 	0.49790 0.93720 0.62580 -0.55900
C 	C 	0.26480 0.50910 0.15200 0.05100
C 	C 	0.53100 0.45140 0.59330 -0.54200
C 	C 	0.06730 0.98170 0.34040 0.08600
C 	C 	0.28790 0.99320 0.37880 -0.18200
C 	C 	0.56730 0.34040 0.51830 0.08600
C 	C 	0.00600 0.94020 0.05460 0.17800
C 	C 	0.97270 0.98880 0.07090 0.12700
C 	C 	0.49990 0.41830 0.96190 -0.21500
C 	C 	0.42330 0.79390 0.70430 0.44600
C 	C 	0.06730 0.51830 0.15960 0.08600
C 	C 	0.23400 0.95950 0.29690 0.37100
C 	C 	0.97180 0.66620 0.83240 0.11900
C 	C 	0.06620 0.57820 0.15990 0.08500
C 	C 	0.79060 0.34350 0.56810 0.06000
C 	C 	0.88490 0.83550 0.66820 0.11000
C 	C 	0.11340 0.54960 0.20410 0.42800
C 	C 	0.15380 0.38810 0.25000 0.01900
C 	C 	0.03100 0.90670 0.04860 -0.54200
C 	C 	0.84100 0.42260 0.53390 -0.22500
C 	C 	0.58090 0.17510 0.95160 -0.18300
C 	C 	0.54500 0.37160 0.98550 -0.19800
C 	C 	0.42790 0.68050 0.67820 -0.20000
C 	C 	0.04160 0.57390 0.12940 -0.18100
C 	C 	0.31700 0.93460 0.12690 -0.18100
C 	C 	0.47330 0.64270 0.64130 -0.21200
C 	C 	0.92980 0.62670 0.63160 0.17800
C 	C 	0.65380 0.25000 0.38810 0.01900
C 	C 	0.29060 0.56810 0.34350 0.06000
C 	C 	0.52830 0.11300 0.54420 0.12600
C 	C 	0.84630 0.05280 0.55820 0.22200
C 	C 	0.04500 0.98550 0.12840 -0.19700
C 	C 	0.47180 0.66760 0.83380 0.11900
C 	C 	0.37440 0.02700 0.08280 -0.52600
C 	C 	0.43150 0.60430 0.89910 -0.24800
C 	C 	0.76540 0.33100 0.54000 -0.12100
C 	C 	0.38490 0.66820 0.66450 0.11000
C 	C 	0.96010 0.89870 0.92340 0.21500
C 	C 	0.65720 0.21978 0.09440 -0.09900
C 	C 	0.40420 0.89620 0.92790 0.23000
C 	C 	0.99990 0.53810 0.41830 -0.21500
C 	C 	0.52830 0.38700 0.95580 0.12600
C 	C 	0.73400 0.20310 0.95950 0.37100
C 	C 	0.15380 0.11190 0.25000 0.01900
C 	C 	0.16360 0.05980 0.28019 0.04500
C 	C 	0.15720 0.40560 0.21978 -0.09900
C 	C 	0.49990 0.08170 0.53810 -0.21500
C 	C 	0.86700 0.06650 0.99320 0.19200
C 	C 	0.42980 0.86840 0.87330 0.17800
C 	C 	0.50600 0.44540 0.94020 0.17800
C 	C 	0.56620 0.34010 0.57820 0.08500
C 	C 	0.84630 0.44720 0.94180 0.22200
C 	C 	0.38490 0.83180 0.66450 0.11000
C 	C 	0.92790 0.82180 0.81950 -0.20000
C 	C 	0.79060 0.34350 0.93190 0.06000
C 	C 	0.97180 0.83380 0.66760 0.11900
C 	C 	0.96010 0.60130 0.92340 0.21500
C 	C 	0.43150 0.89570 0.60090 -0.24800
C 	C 	0.99790 0.87420 0.93720 -0.55900
C 	C 	0.82590 0.44930 0.90630 -0.60300
C 	C 	0.92330 0.70430 0.70610 0.44600
C 	C 	0.81700 0.12690 0.93460 -0.18100
C 	C 	0.82590 0.44930 0.59370 -0.60300
C 	C 	0.58090 0.32490 0.54840 -0.18300
C 	C 	0.45610 0.09130 0.48040 -0.50300
C 	C 	0.29060 0.93190 0.34350 0.06000
C 	C 	0.16360 0.44020 0.28019 0.04500
C 	C 	0.53100 0.45140 0.90670 -0.54200
C 	C 	0.95610 0.48040 0.40870 -0.50300
C 	C 	0.45610 0.09130 0.01960 -0.50300
C 	C 	0.26480 0.50910 0.34800 0.05100
C 	C 	0.34100 0.53390 0.42260 -0.22500
C 	C 	0.78790 0.12120 0.50680 -0.18200
C 	C 	0.47180 0.83240 0.66620 0.11900
C 	C 	0.40420 0.89620 0.57210 0.23000
C 	C 	0.42330 0.70610 0.70430 0.44600
C 	C 	0.73400 0.20310 0.54050 0.37100
C 	C 	0.47270 0.07090 0.98880 0.12700
C 	C 	0.34100 0.96610 0.07740 -0.22600
C 	C 	0.56620 0.15990 0.57820 0.08500
C 	C 	0.34630 0.55820 0.05280 0.22200
C 	C 	0.53100 0.04860 0.59330 -0.54200
C 	C 	0.03100 0.59330 0.04860 -0.54200
C 	C 	0.88550 0.86170 0.85570 -0.20900
C 	C 	0.47330 0.64270 0.85870 -0.21200
C 	C 	0.29060 0.56810 0.15650 0.06000
C 	C 	0.92790 0.67820 0.68050 -0.20000
C 	C 	0.65720 0.28022 0.09440 -0.09900
C 	C 	0.42330 0.70610 0.79570 0.44600
C 	C 	0.90420 0.92790 0.89620 0.23000
C 	C 	0.88550 0.86170 0.64430 -0.20900
C 	C 	0.16360 0.05980 0.21981 0.04500
C 	C 	0.81100 0.39060 0.53550 0.14300
C 	C 	0.93150 0.89910 0.60430 -0.24800
C 	C 	0.61340 0.20410 0.54960 0.42800
C 	C 	0.42790 0.81950 0.67820 -0.20000
C 	C 	0.97270 0.98880 0.42910 0.12600
C 	C 	0.02830 0.54420 0.38700 0.12600
C 	C 	0.97270 0.51120 0.07090 0.12600
C 	C 	0.61340 0.29590 0.95040 0.42800
C 	C 	0.28790 0.50680 0.37880 -0.18200
C 	C 	0.54500 0.37160 0.51450 -0.19800
C 	C 	0.54160 0.12940 0.57390 -0.18100
C 	C 	0.04160 0.92610 0.12940 -0.18100
C 	C 	0.26540 0.54000 0.33100 -0.12100
C 	C 	0.49990 0.41830 0.53810 -0.21500
C 	C 	0.50600 0.44540 0.55980 0.17800
C 	C 	0.58090 0.32490 0.95160 -0.18300
C 	C 	0.26540 0.96000 0.16900 -0.12100
C 	C 	0.93150 0.60090 0.89570 -0.24800
C 	C 	0.99990 0.96190 0.08170 -0.21600
C 	C 	0.95610 0.01960 0.40870 -0.50300
C 	C 	0.38550 0.64430 0.86170 -0.20900
C 	C 	0.32590 0.90630 0.05070 -0.60300
C 	C 	0.40420 0.60380 0.92790 0.23000
C 	C 	0.26480 0.99090 0.34800 0.05100
C 	C 	0.06620 0.57820 0.34010 0.08500
C 	C 	0.86600 0.55780 0.62760 -0.58300
C 	C 	0.56730 0.34040 0.98170 0.08600
C 	C 	0.29060 0.93190 0.15650 0.06000
C 	C 	0.76540 0.16900 0.54000 -0.12100
C 	C 	0.88490 0.66450 0.83180 0.11000
C 	C 	0.37440 0.47300 0.41720 -0.52600
C 	C 	0.81100 0.39060 0.96450 0.14300
C 	C 	0.11340 0.95040 0.20410 0.42800
C 	C 	0.31100 0.96450 0.10940 0.14300
C 	C 	0.36700 0.99320 0.06650 0.19200
C 	C 	0.15720 0.09440 0.28022 -0.09900
C 	C 	0.31100 0.53550 0.10940 0.14300
C 	C 	0.73400 0.29690 0.95950 0.37100
C 	C 	0.03100 0.90670 0.45140 -0.54200
C 	C 	0.45610 0.40870 0.48040 -0.50300
C 	C 	0.04500 0.51450 0.37160 -0.19800
C 	C 	0.42790 0.68050 0.82180 -0.20000
C 	C 	0.86600 0.94220 0.62760 -0.58300
C 	C 	0.96010 0.89870 0.57660 0.21500
C 	C 	0.58090 0.17510 0.54840 -0.18300
C 	C 	0.87440 0.41720 0.02700 -0.52600
C 	C 	0.38490 0.66820 0.83550 0.11000
C 	C 	0.00600 0.55980 0.44540 0.17800
C 	C 	0.65380 0.25000 0.11190 0.01900
C 	C 	0.76540 0.16900 0.96000 -0.12100
C 	C 	0.47270 0.42910 0.98880 0.12600
C 	C 	0.87440 0.08280 0.47300 -0.52600
C 	C 	0.56730 0.15960 0.98170 0.08600
C 	C 	0.93150 0.89910 0.89570 -0.24800
C 	C 	0.38550 0.64430 0.63830 -0.20900
C 	C 	0.61340 0.29590 0.54960 0.42800
C 	C 	0.11340 0.95040 0.29590 0.42800
C 	C 	0.46010 0.92340 0.89870 0.21500
C 	C 	0.99990 0.96190 0.41830 -0.21500
C 	C 	0.06620 0.92180 0.15990 0.08500
C 	C 	0.00600 0.94020 0.44540 0.17800
C 	C 	0.16360 0.44020 0.21981 0.04500
C 	C 	0.06730 0.98170 0.15960 0.08600
C 	C 	0.08090 0.95160 0.32490 -0.18300
C 	C 	0.34630 0.55820 0.44720 0.22200
C 	C 	0.23400 0.95950 0.20310 0.37100
C 	C 	0.34630 0.94180 0.05280 0.22200
C 	C 	0.86600 0.55780 0.87240 -0.58300
C 	C 	0.46010 0.92340 0.60130 0.21500
C 	C 	0.31100 0.53550 0.39060 0.14300
C 	C 	0.81700 0.12690 0.56540 -0.18100
C 	C 	0.86600 0.94220 0.87240 -0.58300
C 	C 	0.54160 0.12940 0.92610 -0.18100
C 	C 	0.08090 0.54840 0.17510 -0.18300
C 	C 	0.38490 0.83180 0.83550 0.11000
C 	C 	0.99990 0.53810 0.08170 -0.21600
C 	C 	0.82590 0.05070 0.90630 -0.60300
C 	C 	0.28790 0.50680 0.12120 -0.18200
C 	C 	0.86700 0.06650 0.50680 0.19200
C 	C 	0.56620 0.15990 0.92180 0.08500
C 	C 	0.84630 0.05280 0.94180 0.22200
C 	C 	0.81100 0.10940 0.96450 0.14300
C 	C 	0.90420 0.57210 0.89620 0.23000
C 	C 	0.93150 0.60090 0.60430 -0.24800
C 	C 	0.79060 0.15650 0.56810 0.06000
C 	C 	0.92980 0.87330 0.63160 0.17800
C 	C 	0.88490 0.66450 0.66820 0.11000
C 	C 	0.23400 0.54050 0.29690 0.37100
C 	C 	0.37440 0.02700 0.41720 -0.52600
C 	C 	0.79060 0.15650 0.93190 0.06000
C 	C 	0.08090 0.54840 0.32490 -0.18300
C 	C 	0.52830 0.11300 0.95580 0.12600
C 	C 	0.04160 0.92610 0.37060 -0.18100
C 	C 	0.54500 0.12840 0.51450 -0.19800
C 	C 	0.46010 0.57660 0.60130 0.21500
C 	C 	0.37440 0.47300 0.08280 -0.52600
C 	C 	0.34100 0.53390 0.07740 -0.22600
C 	C 	0.31100 0.96450 0.39060 0.14300
C 	C 	0.66360 0.28019 0.44020 0.04500
C 	C 	0.86700 0.43350 0.99320 0.19200
C 	C 	0.26540 0.96000 0.33100 -0.12100
C 	C 	0.42980 0.63160 0.62670 0.17800
C 	C 	0.95610 0.01960 0.09130 -0.50300
C 	C 	0.99790 0.62580 0.56280 -0.55900
C 	C 	0.42790 0.81950 0.82180 -0.20000
C 	C 	0.78790 0.37880 0.99320 -0.18100
C 	C 	0.90420 0.92790 0.60380 0.23000
C 	C 	0.02830 0.95580 0.38700 0.12600
C 	C 	0.66360 0.28019 0.05980 0.04500
C 	C 	0.00600 0.55980 0.05460 0.17800
C 	C 	0.49790 0.56280 0.62580 -0.55900
C 	C 	0.04500 0.51450 0.12840 -0.19800
C 	C 	0.42980 0.86840 0.62670 0.17800
C 	C 	0.92980 0.62670 0.86840 0.17800
C 	C 	0.82590 0.05070 0.59370 -0.60300
C 	C 	0.66360 0.21981 0.05980 0.04500
C 	C 	0.88490 0.83550 0.83180 0.11000
C 	C 	0.76480 0.15200 0.50910 0.05100
C 	C 	0.61340 0.20410 0.95040 0.42800
C 	C 	0.38550 0.85570 0.63830 -0.20900
C 	C 	0.92330 0.70430 0.79390 0.44600
C 	C 	0.76540 0.33100 0.96000 -0.12100
C 	C 	0.78790 0.37880 0.50680 -0.18200
C 	C 	0.97330 0.64130 0.85730 -0.21200
C 	C 	0.42980 0.63160 0.87330 0.17800
C 	C 	0.06730 0.51830 0.34040 0.08600
C 	C 	0.04500 0.98550 0.37160 -0.19800
C 	C 	0.92330 0.79570 0.79390 0.44600
C 	C 	0.92330 0.79570 0.70610 0.44600
C 	C 	0.88550 0.63830 0.64430 -0.20900
C 	C 	0.84630 0.44720 0.55820 0.22200
C 	C 	0.47270 0.42910 0.51120 0.12600
C 	C 	0.31700 0.56540 0.12690 -0.18100
C 	C 	0.02830 0.95580 0.11300 0.12600
C 	C 	0.02830 0.54420 0.11300 0.12600
C 	C 	0.87440 0.08280 0.02700 -0.52700
C 	C 	0.47330 0.85730 0.85870 -0.21200
C 	C 	0.50600 0.05460 0.55980 0.17800
C 	C 	0.47180 0.83240 0.83380 0.11900
C 	C 	0.54500 0.12840 0.98550 -0.19700
C 	C 	0.76480 0.34800 0.50910 0.05100
C 	C 	0.54160 0.37060 0.57390 -0.18100
C 	C 	0.97180 0.83380 0.83240 0.11900
C 	C 	0.52830 0.38700 0.54420 0.12600
C 	C 	0.86700 0.43350 0.50680 0.19200
C 	C 	0.50600 0.05460 0.94020 0.17800
C 	C 	0.36600 0.87240 0.55780 -0.58300
C 	C 	0.32590 0.90630 0.44930 -0.60300
C 	C 	0.92980 0.87330 0.86840 0.17800
C 	C 	0.99790 0.62580 0.93720 -0.55900
C 	C 	0.26540 0.54000 0.16900 -0.12100
C 	C 	0.15720 0.40560 0.28022 -0.09900
C 	C 	0.87440 0.41720 0.47300 -0.52600
C 	C 	0.97330 0.64130 0.64270 -0.21200
C 	C 	0.32590 0.59370 0.05070 -0.60300
C 	C 	0.36700 0.50680 0.06650 0.19200
C 	C 	0.36600 0.62760 0.94220 -0.58300
C 	C 	0.45610 0.40870 0.01960 -0.50300
C 	C 	0.46010 0.57660 0.89870 0.21500
C 	C 	0.81100 0.10940 0.53550 0.14300
C 	C 	0.81700 0.37310 0.93460 -0.18100
C 	C 	0.06620 0.92180 0.34010 0.08500
C 	C 	0.34100 0.96610 0.42260 -0.22600
C 	C 	0.43150 0.89570 0.89910 -0.24800
C 	C 	0.96010 0.60130 0.57660 0.21500
C 	C 	0.65720 0.21978 0.40560 -0.09900
C 	C 	0.56730 0.15960 0.51830 0.08600
C 	C 	0.49790 0.56280 0.87420 -0.55900
C 	C 	0.08090 0.95160 0.17510 -0.18300
C 	C 	0.31700 0.93460 0.37310 -0.18100
C 	C 	0.36600 0.87240 0.94220 -0.58300
C 	C 	0.11340 0.54960 0.29590 0.42800
C 	C 	0.97330 0.85870 0.64270 -0.21200
C 	C 	0.81700 0.37310 0.56540 -0.18100
C 	C 	0.23400 0.54050 0.20310 0.37100
C 	C 	0.28790 0.99320 0.12120 -0.18100
C 	C 	0.40420 0.60380 0.57210 0.23000
C 	C 	0.47270 0.07090 0.51120 0.12600
C 	C 	0.47330 0.85730 0.64130 -0.21200
C 	C 	0.97270 0.51120 0.42910 0.12600
C 	C 	0.34630 0.94180 0.44720 0.22200
C 	C 	0.56620 0.34010 0.92180 0.08500
C 	C 	0.84100 0.07740 0.96610 -0.22600
C 	C 	0.04160 0.57390 0.37060 -0.18100
C 	C 	0.53100 0.04860 0.90670 -0.54200
C 	C 	0.88550 0.63830 0.85570 -0.20900
C 	C 	0.03100 0.59330 0.45140 -0.54200
C 	C 	0.73400 0.29690 0.54050 0.37100
C 	C 	0.92790 0.67820 0.81950 -0.20000
C 	C 	0.95610 0.48040 0.09130 -0.50300
C 	C 	0.32590 0.59370 0.44930 -0.60300
C 	C 	0.84100 0.42260 0.96610 -0.22600
C 	C 	0.49790 0.93720 0.87420 -0.55900
C 	C 	0.42330 0.79390 0.79570 0.44600
C 	C 	0.66360 0.21981 0.44020 0.04500
C 	C 	0.65720 0.28022 0.40560 -0.09900
C 	C 	0.97330 0.85870 0.85730 -0.21200
C 	C 	0.92790 0.82180 0.68050 -0.20000
C 	C 	0.31700 0.56540 0.37310 -0.18100
C 	C 	0.54160 0.37060 0.92610 -0.18100
C 	C 	0.76480 0.15200 0.99090 0.05100
C 	C 	0.36700 0.99320 0.43350 0.19200
C 	C 	0.47180 0.66760 0.66620 0.11900
C 	C 	0.43150 0.60430 0.60090 -0.24800
C 	C 	0.26480 0.99090 0.15200 0.05100
C 	C 	0.76480 0.34800 0.99090 0.05100
C 	C 	0.99790 0.87420 0.56280 -0.55900
C 	C 	0.15720 0.09440 0.21978 -0.09900
C 	C 	0.97180 0.66620 0.66760 0.11900
N 	N 	0.87450 0.02820 0.54510 -0.29700
N 	N 	0.48260 0.47290 0.95350 -0.32100
N 	N 	0.66690 0.25000 0.45770 -0.17100
N 	N 	0.95010 0.57250 0.94080 -0.29800
N 	N 	0.45010 0.94080 0.57250 -0.29800
N 	N 	0.16690 0.04230 0.25000 -0.17100
N 	N 	0.45010 0.55920 0.92750 -0.29800
N 	N 	0.38800 0.51390 0.46380 -0.31300
N 	N 	0.98260 0.54650 0.02710 -0.32100
N 	N 	0.91630 0.55500 0.57600 -0.30000
N 	N 	0.48260 0.02710 0.54650 -0.32100
N 	N 	0.98260 0.95350 0.02710 -0.32100
N 	N 	0.38800 0.98610 0.03620 -0.31300
N 	N 	0.37450 0.95490 0.47180 -0.29700
N 	N 	0.66690 0.25000 0.04230 -0.17100
N 	N 	0.37450 0.54510 0.47180 -0.29700
N 	N 	0.37450 0.95490 0.02820 -0.29700
N 	N 	0.88800 0.46380 0.98610 -0.31300
N 	N 	0.95010 0.92750 0.55920 -0.29800
N 	N 	0.96330 0.51760 0.03760 -0.32700
N 	N 	0.96330 0.51760 0.46240 -0.32700
N 	N 	0.41630 0.92400 0.94500 -0.30000
N 	N 	0.91630 0.94500 0.92400 -0.30000
N 	N 	0.37450 0.54510 0.02820 -0.29700
N 	N 	0.91630 0.55500 0.92400 -0.30000
N 	N 	0.46330 0.46240 0.51760 -0.32700
N 	N 	0.95010 0.92750 0.94080 -0.29800
N 	N 	0.45010 0.94080 0.92750 -0.29800
N 	N 	0.38800 0.98610 0.46380 -0.31300
N 	N 	0.41630 0.92400 0.55500 -0.30000
N 	N 	0.88800 0.46380 0.51390 -0.31300
N 	N 	0.95010 0.57250 0.55920 -0.29800
N 	N 	0.46330 0.03760 0.51760 -0.32700
N 	N 	0.87450 0.02820 0.95490 -0.29700
N 	N 	0.87450 0.47180 0.54510 -0.29700
N 	N 	0.98260 0.54650 0.47290 -0.32100
N 	N 	0.46330 0.03760 0.98240 -0.32700
N 	N 	0.41630 0.57600 0.94500 -0.30000
N 	N 	0.48260 0.47290 0.54650 -0.32100
N 	N 	0.96330 0.98240 0.03760 -0.32700
N 	N 	0.88800 0.03620 0.98610 -0.31300
N 	N 	0.16690 0.45770 0.25000 -0.17100
N 	N 	0.46330 0.46240 0.98240 -0.32700
N 	N 	0.96330 0.98240 0.46240 -0.32700
N 	N 	0.38800 0.51390 0.03620 -0.31300
N 	N 	0.91630 0.94500 0.57600 -0.30000
N 	N 	0.87450 0.47180 0.95490 -0.29700
N 	N 	0.98260 0.95350 0.47290 -0.32100
N 	N 	0.88800 0.03620 0.51390 -0.31300
N 	N 	0.48260 0.02710 0.95350 -0.32100
N 	N 	0.45010 0.55920 0.57250 -0.29800
N 	N 	0.41630 0.57600 0.55500 -0.30000
O 	O 	0.12510 0.97787 0.21562 -0.44200
O 	O 	0.96670 0.78507 0.78475 -0.42200
O 	O 	0.72030 0.28516 0.51428 -0.42800
O 	O 	0.22640 0.92957 0.21387 -0.40900
O 	O 	0.88610 0.71505 0.78463 -0.46400
O 	O 	0.46670 0.78475 0.71493 -0.42200
O 	O 	0.62510 0.21562 0.52213 -0.44200
O 	O 	0.22030 0.98572 0.21484 -0.42800
O 	O 	0.22640 0.92957 0.28613 -0.40900
O 	O 	0.96670 0.78507 0.71525 -0.42200
O 	O 	0.38610 0.71537 0.78495 -0.46400
O 	O 	0.88610 0.78495 0.71537 -0.46400
O 	O 	0.62750 0.21495 0.57729 -0.43700
O 	O 	0.22030 0.98572 0.28516 -0.42800
O 	O 	0.62750 0.28505 0.92271 -0.43700
O 	O 	0.62510 0.28438 0.97787 -0.44200
O 	O 	0.62510 0.21562 0.97787 -0.44200
O 	O 	0.72030 0.21484 0.51428 -0.42800
O 	O 	0.38610 0.78463 0.71505 -0.46400
O 	O 	0.12750 0.92271 0.28505 -0.43700
O 	O 	0.96670 0.71493 0.78475 -0.42200
O 	O 	0.72030 0.28516 0.98572 -0.42800
O 	O 	0.62510 0.28438 0.52213 -0.44200
O 	O 	0.12750 0.57729 0.28505 -0.43700
O 	O 	0.62750 0.21495 0.92271 -0.43700
O 	O 	0.22030 0.51428 0.21484 -0.42800
O 	O 	0.12510 0.52213 0.21562 -0.44200
O 	O 	0.72640 0.21387 0.57043 -0.40900
O 	O 	0.96670 0.71493 0.71525 -0.42200
O 	O 	0.12750 0.92271 0.21495 -0.43700
O 	O 	0.72640 0.28613 0.57043 -0.40900
O 	O 	0.22640 0.57043 0.28613 -0.40900
O 	O 	0.38610 0.71537 0.71505 -0.46400
O 	O 	0.22030 0.51428 0.28516 -0.42800
O 	O 	0.12510 0.97787 0.28438 -0.44200
O 	O 	0.46670 0.71525 0.71493 -0.42200
O 	O 	0.22640 0.57043 0.21387 -0.40900
O 	O 	0.72640 0.28613 0.92957 -0.40900
O 	O 	0.72640 0.21387 0.92957 -0.40900
O 	O 	0.72030 0.21484 0.98572 -0.42800
O 	O 	0.88610 0.71505 0.71537 -0.46400
O 	O 	0.46670 0.78475 0.78507 -0.42200
O 	O 	0.46670 0.71525 0.78507 -0.42200
O 	O 	0.88610 0.78495 0.78463 -0.46400
O 	O 	0.12510 0.52213 0.28438 -0.44200
O 	O 	0.38610 0.78463 0.78495 -0.46400
O 	O 	0.62750 0.28505 0.57729 -0.43700
O 	O 	0.12750 0.57729 0.21495 -0.43700
