data_crystal

_cell_length_a 18.51500
_cell_length_b 57.37700
_cell_length_c 48.82200
_cell_angle_alpha 90.00000
_cell_angle_beta  90.00000
_cell_angle_gamma 90.00000

_symmetry_space_group_name_	'P 1'
_symmetry_space_group_name_H-M	'P 1'

loop_
_symmetry_equiv_pos_as_xyz
  x,y,z

loop_
_atom_site_label
_atom_site_type_symbol
_atom_site_fract_x
_atom_site_fract_y
_atom_site_fract_z
_atom_site_charge
C 	C 	0.07500 0.28240 0.04410 -1.71300
H 	H 	0.10020 0.28710 0.06080 0.98500
H 	H 	0.02840 0.29070 0.04310 0.54100
H 	H 	0.10400 0.28630 0.02810 0.55400
C 	C 	0.14300 0.34120 0.01770 -0.08600
H 	H 	0.10370 0.35270 0.01670 0.04200
H 	H 	0.18780 0.34890 0.02440 0.03300
C 	C 	0.15600 0.32880 0.98950 0.02300
H 	H 	0.12400 0.31510 0.98730 0.00400
H 	H 	0.20680 0.32410 0.98710 0.00200
C 	C 	0.13400 0.34910 0.96960 -0.38000
H 	H 	0.17790 0.35570 0.96120 0.11100
H 	H 	0.10920 0.36140 0.97990 0.12000
H 	H 	0.10230 0.34310 0.95530 0.12700
C 	C 	0.66070 0.35279 0.00658 -0.01800
C 	C 	0.65650 0.33945 0.03031 0.01700
C 	C 	0.64180 0.35317 0.05240 -0.03000
H 	H 	0.63820 0.34700 0.07040 0.04800
C 	C 	0.63290 0.37552 0.04728 -0.09500
C 	C 	0.96230 0.39058 0.94027 0.32900
C 	C 	0.93590 0.37295 0.96221 -0.07300
C 	C 	0.93220 0.34989 0.95991 -0.05300
H 	H 	0.94000 0.34160 0.94330 0.05500
C 	C 	0.91450 0.33862 0.98630 0.04200
C 	C 	0.91060 0.35551 0.00597 -0.03800
C 	C 	0.89540 0.35229 0.03563 0.01400
C 	C 	0.93170 0.34030 0.05500 -0.08300
C 	C 	0.89330 0.34008 0.08023 0.03000
H 	H 	0.90770 0.33050 0.09510 0.00900
C 	C 	0.83780 0.35367 0.08189 -0.12500
C 	C 	0.78990 0.35798 0.10623 0.39000
C 	C 	0.90580 0.31316 0.98840 -0.13300
H 	H 	0.89440 0.30890 0.00760 0.06200
H 	H 	0.95170 0.30540 0.98340 0.06000
C 	C 	0.84580 0.30450 0.96970 -0.09800
H 	H 	0.79860 0.31120 0.97520 0.05900
H 	H 	0.85560 0.30880 0.95040 0.06100
C 	C 	0.84620 0.27822 0.97340 -0.02200
H 	H 	0.89190 0.27140 0.96650 0.02500
H 	H 	0.84050 0.27400 0.99290 0.02200
C 	C 	0.78260 0.26955 0.95677 -0.21300
H 	H 	0.77120 0.25320 0.96150 0.08200
H 	H 	0.73930 0.27930 0.96020 0.08700
C 	C 	0.80550 0.27140 0.92740 0.13100
H 	H 	0.84480 0.26020 0.92340 -0.01900
H 	H 	0.82300 0.28740 0.92330 -0.01200
C 	C 	0.73940 0.26590 0.91050 -0.46000
H 	H 	0.75110 0.26730 0.89100 0.12300
H 	H 	0.70070 0.27680 0.91510 0.14600
H 	H 	0.72350 0.24990 0.91450 0.14700
C 	C 	0.99820 0.32540 0.04800 0.15200
H 	H 	0.00050 0.32430 0.02780 -0.03700
H 	H 	0.98850 0.30950 0.05490 0.08200
C 	C 	0.07500 0.33240 0.05810 -0.39700
H 	H 	0.08480 0.32630 0.07670 0.07200
H 	H 	0.08220 0.34950 0.05780 0.12300
C 	C 	0.12240 0.31980 0.03600 -0.14300
H 	H 	0.16550 0.31230 0.04420 -0.01000
H 	H 	0.09440 0.30810 0.02560 0.03100
C 	C 	0.78290 0.34590 0.90780 0.34900
C 	C 	0.72680 0.34288 0.93351 -0.06000
C 	C 	0.67740 0.32730 0.93669 -0.06000
H 	H 	0.66520 0.31600 0.92330 0.03800
C 	C 	0.64300 0.32930 0.96285 0.04300
C 	C 	0.67810 0.34610 0.97852 -0.03400
C 	C 	0.60910 0.39437 0.06448 0.31900
C 	C 	0.58250 0.31440 0.97110 -0.16700
H 	H 	0.57270 0.31670 0.99090 0.07100
H 	H 	0.59590 0.29790 0.96830 0.06500
C 	C 	0.51430 0.31970 0.95490 -0.03800
H 	H 	0.47620 0.30800 0.95880 0.02800
H 	H 	0.52430 0.31970 0.93500 0.01500
C 	C 	0.49160 0.34380 0.96460 -0.07300
H 	H 	0.47110 0.34310 0.98330 0.03900
H 	H 	0.53330 0.35460 0.96460 0.04900
C 	C 	0.43470 0.35160 0.94400 -0.16400
H 	H 	0.40220 0.36350 0.95220 0.05500
H 	H 	0.45760 0.35830 0.92740 0.06100
C 	C 	0.39350 0.32950 0.93710 0.10100
H 	H 	0.34270 0.33300 0.93230 -0.02200
H 	H 	0.39410 0.31840 0.95270 -0.01100
C 	C 	0.43400 0.31940 0.91260 -0.44600
H 	H 	0.40300 0.30810 0.90320 0.13400
H 	H 	0.47800 0.31170 0.91890 0.14500
H 	H 	0.44640 0.33200 0.89990 0.13700
C 	C 	0.67890 0.31325 0.03305 -0.12000
H 	H 	0.63620 0.30420 0.03910 0.05900
H 	H 	0.69290 0.30740 0.01470 0.05900
C 	C 	0.74050 0.30848 0.05286 -0.09900
H 	H 	0.78610 0.31530 0.04600 0.05900
H 	H 	0.72990 0.31520 0.07110 0.05900
C 	C 	0.74650 0.28239 0.05460 -0.02400
H 	H 	0.73690 0.27510 0.03660 0.02300
H 	H 	0.71200 0.27600 0.06820 0.03200
C 	C 	0.82350 0.27810 0.06350 -0.21900
H 	H 	0.84660 0.26620 0.05170 0.07900
H 	H 	0.85210 0.29260 0.06250 0.08300
C 	C 	0.81820 0.26950 0.09260 0.14700
H 	H 	0.77390 0.27540 0.10160 -0.02600
H 	H 	0.86070 0.27450 0.10350 -0.03900
C 	C 	0.81600 0.24310 0.08980 -0.48700
H 	H 	0.80800 0.23600 0.10780 0.14900
H 	H 	0.86170 0.23750 0.08220 0.15400
H 	H 	0.77620 0.23870 0.07750 0.15300
C 	C 	0.04410 0.39150 0.85080 0.40600
C 	C 	0.15450 0.41331 0.79084 0.02600
C 	C 	0.07750 0.39685 0.82203 -0.09400
C 	C 	0.12720 0.41360 0.81740 -0.03900
H 	H 	0.14200 0.42450 0.83090 0.03600
C 	C 	0.11930 0.39835 0.77405 -0.02900
C 	C 	0.11890 0.39297 0.74547 -0.02200
C 	C 	0.12090 0.40700 0.72303 0.03000
C 	C 	0.12850 0.39566 0.69729 -0.05100
H 	H 	0.12830 0.40300 0.67980 0.05800
C 	C 	0.13620 0.37231 0.70213 -0.07300
C 	C 	0.15220 0.35389 0.68145 0.30100
C 	C 	0.22010 0.42670 0.78000 -0.14400
H 	H 	0.20750 0.44350 0.77960 0.05600
H 	H 	0.22880 0.42180 0.76090 0.06500
C 	C 	0.29160 0.42400 0.79610 -0.06200
H 	H 	0.28280 0.42230 0.81600 0.03400
H 	H 	0.32430 0.43740 0.79290 0.02800
C 	C 	0.32310 0.40110 0.78360 -0.08000
H 	H 	0.35950 0.40440 0.76930 0.03200
H 	H 	0.28460 0.39100 0.77600 0.04900
C 	C 	0.35820 0.39010 0.80990 -0.13900
H 	H 	0.35510 0.40070 0.82580 0.05400
H 	H 	0.40920 0.38570 0.80670 0.04900
C 	C 	0.30900 0.36810 0.81350 0.04200
H 	H 	0.25960 0.37080 0.80590 0.01400
H 	H 	0.32990 0.35410 0.80490 -0.00100
C 	C 	0.30700 0.36610 0.84550 -0.38800
H 	H 	0.27390 0.35360 0.85090 0.12600
H 	H 	0.29060 0.38090 0.85340 0.12400
H 	H 	0.35570 0.36250 0.85220 0.11900
C 	C 	0.10880 0.43370 0.72330 -0.12600
H 	H 	0.10560 0.43920 0.74250 0.05900
H 	H 	0.15060 0.44150 0.71460 0.05900
C 	C 	0.03970 0.44038 0.70810 -0.09400
H 	H 	0.04100 0.43460 0.68900 0.06100
H 	H 	0.99670 0.43380 0.71740 0.05800
C 	C 	0.03820 0.46671 0.70870 -0.03400
H 	H 	0.04960 0.47250 0.72730 0.02600
H 	H 	0.07390 0.47320 0.69570 0.03300
C 	C 	0.96300 0.47370 0.70060 -0.18600
H 	H 	0.95520 0.49050 0.70440 0.06800
H 	H 	0.92690 0.46460 0.71110 0.07100
C 	C 	0.95580 0.46880 0.67040 0.09700
H 	H 	0.94960 0.45190 0.66700 -0.00900
H 	H 	0.99880 0.47440 0.66020 -0.00700
C 	C 	0.88850 0.48230 0.66190 -0.43400
H 	H 	0.87790 0.47930 0.64260 0.12200
H 	H 	0.89690 0.49900 0.66460 0.13600
H 	H 	0.84750 0.47740 0.67320 0.13100
C 	C 	0.94770 0.31613 0.88080 0.40800
C 	C 	0.97140 0.29631 0.89260 -0.14000
C 	C 	0.02050 0.29710 0.91270 -0.00800
H 	H 	0.03240 0.31170 0.92070 0.03200
C 	C 	0.06170 0.27300 0.92430 -0.00400
C 	C 	0.02550 0.25728 0.90420 -0.01700
C 	C 	0.03900 0.23222 0.90420 -0.03100
C 	C 	0.00820 0.21470 0.91540 0.03100
C 	C 	0.03120 0.19201 0.90730 -0.04800
H 	H 	0.01240 0.17780 0.91430 0.04800
C 	C 	0.08390 0.19382 0.88828 -0.07600
C 	C 	0.12630 0.17442 0.87490 0.34500
C 	C 	0.10410 0.27300 0.95090 -0.08000
H 	H 	0.10900 0.28890 0.95860 0.04000
H 	H 	0.15250 0.26590 0.94860 0.03600
C 	C 	0.05350 0.25750 0.96840 -0.17500
H 	H 	0.05170 0.24130 0.96140 0.07900
H 	H 	0.00390 0.26390 0.96920 0.07500
C 	C 	0.09140 0.25860 0.99710 0.12600
H 	H 	0.11000 0.27440 0.00120 -0.06200
H 	H 	0.13110 0.24710 0.99870 -0.01900
C 	C 	0.02570 0.25200 0.01590 -0.48000
H 	H 	0.98420 0.26270 0.01310 0.16100
H 	H 	0.00990 0.23570 0.01300 0.15700
C 	C 	0.06070 0.25550 0.04480 0.70700
H 	H 	0.10620 0.24660 0.04660 -0.20100
H 	H 	0.02720 0.25110 0.05970 -0.20800
C 	C 	0.94110 0.21550 0.93350 -0.14400
H 	H 	0.90500 0.20580 0.92380 0.06400
H 	H 	0.92350 0.23180 0.93190 0.06800
C 	C 	0.93200 0.20930 0.96420 -0.06800
H 	H 	0.96220 0.21930 0.97600 0.03600
H 	H 	0.94380 0.19270 0.96770 0.04000
C 	C 	0.85020 0.21420 0.96830 -0.07500
H 	H 	0.84100 0.23100 0.97150 0.04100
H 	H 	0.82130 0.20890 0.95240 0.04400
C 	C 	0.83400 0.19950 0.99420 -0.15100
H 	H 	0.86530 0.18560 0.99530 0.06300
H 	H 	0.78260 0.19460 0.99480 0.06100
C 	C 	0.85200 0.21740 0.01720 0.06500
H 	H 	0.86590 0.23270 0.00960 -0.00500
H 	H 	0.88990 0.21150 0.02960 -0.00600
C 	C 	0.77700 0.21870 0.03200 -0.41800
H 	H 	0.77020 0.23430 0.03960 0.13200
H 	H 	0.77560 0.20710 0.04680 0.13300
H 	H 	0.73840 0.21530 0.01880 0.13700
C 	C 	0.67140 0.43595 0.12990 0.36400
C 	C 	0.71540 0.45669 0.14300 -0.07200
C 	C 	0.76360 0.45488 0.16170 -0.04900
H 	H 	0.77600 0.44080 0.17080 0.04800
C 	C 	0.79550 0.47676 0.16670 0.03600
C 	C 	0.76580 0.49519 0.15161 -0.02500
C 	C 	0.78600 0.51933 0.14960 -0.02800
C 	C 	0.74540 0.53920 0.15840 0.03700
C 	C 	0.84010 0.55709 0.13755 -0.13700
C 	C 	0.77630 0.55974 0.15190 -0.02300
H 	H 	0.75630 0.57440 0.15660 0.04000
C 	C 	0.88230 0.57409 0.12530 0.43500
C 	C 	0.84700 0.48110 0.18880 -0.14300
H 	H 	0.86420 0.49730 0.18600 0.06700
H 	H 	0.88880 0.47090 0.18500 0.06100
C 	C 	0.83250 0.47880 0.21947 -0.07500
H 	H 	0.87660 0.48240 0.23020 0.03000
H 	H 	0.81620 0.46290 0.22410 0.03800
C 	C 	0.77290 0.49670 0.22529 -0.05200
H 	H 	0.78690 0.51230 0.21860 0.03800
H 	H 	0.72700 0.49200 0.21650 0.04000
C 	C 	0.76570 0.49660 0.25652 -0.19400
H 	H 	0.75360 0.48080 0.26330 0.07100
H 	H 	0.81120 0.50170 0.26530 0.06700
C 	C 	0.70490 0.51360 0.26260 0.12500
H 	H 	0.71820 0.52960 0.25680 -0.02500
H 	H 	0.66010 0.50900 0.25290 -0.02600
C 	C 	0.69430 0.51250 0.29340 -0.46300
H 	H 	0.65620 0.52340 0.29880 0.14300
H 	H 	0.73960 0.51670 0.30260 0.13900
H 	H 	0.68050 0.49660 0.29870 0.14200
C 	C 	0.67700 0.53680 0.16880 -0.13700
H 	H 	0.66640 0.52010 0.17250 0.06700
H 	H 	0.64080 0.54270 0.15560 0.06000
C 	C 	0.67460 0.55090 0.19540 -0.10500
H 	H 	0.68580 0.56750 0.19200 0.04800
H 	H 	0.70870 0.54460 0.20920 0.05200
C 	C 	0.59550 0.54760 0.20460 0.00600
H 	H 	0.56740 0.56220 0.20240 0.00200
H 	H 	0.57160 0.53500 0.19410 0.01600
C 	C 	0.60400 0.54100 0.23500 -0.24600
H 	H 	0.60280 0.52390 0.23760 0.09600
H 	H 	0.65000 0.54720 0.24260 0.09200
C 	C 	0.68010 0.36496 0.19161 0.27800
C 	C 	0.65830 0.38246 0.21125 -0.07800
C 	C 	0.65960 0.40524 0.20525 -0.04500
H 	H 	0.67270 0.41180 0.18810 0.05400
C 	C 	0.62160 0.40390 0.25198 -0.01900
C 	C 	0.60690 0.40952 0.28077 -0.02500
C 	C 	0.54240 0.40791 0.32506 -0.08700
C 	C 	0.49110 0.40510 0.34950 0.37500
C 	C 	0.61960 0.44515 0.22938 -0.12000
H 	H 	0.60630 0.45040 0.24800 0.05800
H 	H 	0.66400 0.45360 0.22400 0.05800
C 	C 	0.55940 0.45165 0.20986 -0.10300
H 	H 	0.57030 0.44570 0.19130 0.06100
H 	H 	0.51330 0.44460 0.21600 0.06100
C 	C 	0.48440 0.48344 0.19434 -0.21100
H 	H 	0.44480 0.47310 0.20040 0.08000
H 	H 	0.47030 0.49980 0.19820 0.07600
C 	C 	0.42880 0.48650 0.14980 -0.45600
H 	H 	0.43590 0.48510 0.13000 0.12500
H 	H 	0.41550 0.50260 0.15430 0.13600
H 	H 	0.39030 0.47590 0.15570 0.13800
C 	C 	0.76870 0.43020 0.31250 -0.09700
H 	H 	0.75290 0.43080 0.33190 0.04100
H 	H 	0.78390 0.41410 0.30810 0.04800
C 	C 	0.83010 0.44720 0.30760 -0.02600
H 	H 	0.84940 0.45310 0.32510 0.01800
H 	H 	0.81380 0.46050 0.29630 0.01900
C 	C 	0.63660 0.41861 0.23026 0.02100
C 	C 	0.63710 0.42333 0.29775 0.01100
C 	C 	0.59530 0.42365 0.32497 -0.03500
H 	H 	0.60580 0.43380 0.33980 0.03400
C 	C 	0.55310 0.47754 0.20937 -0.02000
H 	H 	0.59520 0.48450 0.19990 0.02800
H 	H 	0.55140 0.48380 0.22830 0.02400
C 	C 	0.49800 0.48030 0.16440 0.12700
H 	H 	0.51150 0.46390 0.16050 -0.01800
H 	H 	0.53780 0.49050 0.15830 -0.02000
C 	C 	0.70790 0.43790 0.29370 -0.11700
H 	H 	0.72400 0.43640 0.27440 0.05600
H 	H 	0.69720 0.45460 0.29710 0.04300
C 	C 	0.88660 0.43290 0.29250 -0.20900
H 	H 	0.86800 0.42760 0.27450 0.07800
H 	H 	0.90080 0.41910 0.30340 0.07300
C 	C 	0.95020 0.44940 0.28890 0.14000
H 	H 	0.95300 0.46050 0.30430 -0.02800
H 	H 	0.99610 0.44060 0.28780 -0.03300
C 	C 	0.93500 0.46210 0.26220 -0.48700
H 	H 	0.97500 0.47300 0.25850 0.13700
H 	H 	0.89000 0.47070 0.26370 0.16100
H 	H 	0.93200 0.45080 0.24730 0.16100
O 	O 	0.96710 0.41075 0.94558 -0.44700
O 	O 	0.97250 0.38237 0.91570 -0.52200
O 	O 	0.74160 0.37259 0.10469 -0.44400
O 	O 	0.80900 0.34580 0.12772 -0.50400
O 	O 	0.81860 0.36274 0.90577 -0.44200
O 	O 	0.76860 0.32811 0.88946 -0.48800
O 	O 	0.60010 0.41465 0.05536 -0.42200
O 	O 	0.59430 0.39015 0.09032 -0.51800
O 	O 	0.06850 0.40491 0.86974 -0.50800
O 	O 	0.99660 0.37728 0.85193 -0.46100
O 	O 	0.15690 0.35877 0.65551 -0.50400
O 	O 	0.16920 0.33337 0.68989 -0.42900
O 	O 	0.95440 0.33653 0.88874 -0.45100
O 	O 	0.89950 0.30906 0.86303 -0.46700
O 	O 	0.17830 0.18128 0.85795 -0.47000
O 	O 	0.10550 0.15393 0.87901 -0.42400
O 	O 	0.68490 0.41599 0.13644 -0.44100
O 	O 	0.62260 0.44223 0.11152 -0.46300
O 	O 	0.94150 0.56729 0.11430 -0.47700
O 	O 	0.86800 0.59475 0.12783 -0.45500
O 	O 	0.69260 0.34335 0.19900 -0.40900
O 	O 	0.70120 0.37040 0.16620 -0.50300
O 	O 	0.44890 0.38906 0.34832 -0.44300
O 	O 	0.51370 0.41761 0.37035 -0.49300
S 	S 	0.92339 0.38344 0.99415 0.01300
S 	S 	0.82249 0.36654 0.05074 0.03100
S 	S 	0.74680 0.35973 0.96111 0.02400
S 	S 	0.64692 0.38142 0.01308 0.01700
S 	S 	0.05412 0.38314 0.79364 0.03200
S 	S 	0.13425 0.36460 0.73552 0.01400
S 	S 	0.96910 0.26891 0.88137 0.02100
S 	S 	0.10425 0.22233 0.88048 0.00100
S 	S 	0.69772 0.48371 0.13075 -0.00200
S 	S 	0.86027 0.52713 0.13284 0.01500
S 	S 	0.63630 0.37452 0.24318 0.01300
S 	S 	0.53301 0.39387 0.29530 0.03100
Mn	Mn	0.02892 0.41672 0.90670 1.23700
Mn	Mn	0.90966 0.37034 0.87962 1.31900
Mn	Mn	0.79831 0.32154 0.85096 1.24600
Mn	Mn	0.53610 0.42528 0.09299 1.23900
Mn	Mn	0.64743 0.38069 0.12859 1.31800
Mn	Mn	0.75874 0.33510 0.16237 1.24800
H 	H 	0.02250 0.33140 0.03130 0.03900
H 	H 	0.98430 0.30900 0.04490 -0.17400
C 	C 	0.04820 0.32770 0.07340 -0.26200
H 	H 	0.02750 0.31970 0.08960 0.06400
H 	H 	0.05770 0.34420 0.07800 0.11300
C 	C 	0.11780 0.31530 0.06310 0.81600
H 	H 	0.11370 0.29810 0.06460 -0.74900
H 	H 	0.12900 0.31950 0.04390 -0.05900
C 	C 	0.17510 0.32520 0.08320 -0.64400
H 	H 	0.15370 0.32860 0.10130 0.19300
H 	H 	0.19790 0.33950 0.07580 0.19800
C 	C 	0.22980 0.30470 0.08470 0.34100
H 	H 	0.27270 0.30760 0.07310 -0.08800
H 	H 	0.20730 0.28970 0.07930 -0.09100
C 	C 	0.24900 0.30510 0.11580 -0.60700
H 	H 	0.28970 0.29450 0.11920 0.18400
H 	H 	0.20740 0.30010 0.12650 0.18000
H 	H 	0.26310 0.32100 0.12110 0.18600
H 	H 	0.54750 0.55590 0.26810 -0.03400
H 	H 	0.49470 0.54310 0.24660 -0.05200
H 	H 	0.49510 0.58580 0.24140 0.14600
H 	H 	0.51480 0.57240 0.21370 0.16800
H 	H 	0.57750 0.58380 0.23180 0.16200
C 	C 	0.53900 0.55280 0.24850 0.20000
C 	C 	0.53100 0.57580 0.23240 -0.51100
C 	C 	0.57500 0.78240 0.04410 -1.69800
H 	H 	0.60020 0.78710 0.06080 0.97700
H 	H 	0.52840 0.79070 0.04310 0.53800
H 	H 	0.60400 0.78630 0.02810 0.55100
C 	C 	0.64300 0.84120 0.01770 -0.08700
H 	H 	0.60370 0.85270 0.01670 0.04400
H 	H 	0.68780 0.84890 0.02440 0.03400
C 	C 	0.65600 0.82880 0.98950 0.02600
H 	H 	0.62400 0.81510 0.98730 0.00400
H 	H 	0.70680 0.82410 0.98710 0.00200
C 	C 	0.63400 0.84910 0.96960 -0.38100
H 	H 	0.67790 0.85570 0.96120 0.11200
H 	H 	0.60920 0.86140 0.97990 0.12200
H 	H 	0.60230 0.84310 0.95530 0.12900
C 	C 	0.16070 0.85279 0.00658 -0.01800
C 	C 	0.15650 0.83945 0.03031 0.01800
C 	C 	0.14180 0.85317 0.05240 -0.02900
H 	H 	0.13820 0.84700 0.07040 0.04900
C 	C 	0.13290 0.87552 0.04728 -0.09400
C 	C 	0.46230 0.89058 0.94027 0.33000
C 	C 	0.43590 0.87295 0.96221 -0.07300
C 	C 	0.43220 0.84989 0.95991 -0.05300
H 	H 	0.44000 0.84160 0.94330 0.05500
C 	C 	0.41450 0.83862 0.98630 0.04100
C 	C 	0.41060 0.85551 0.00597 -0.03700
C 	C 	0.39540 0.85229 0.03563 0.01200
C 	C 	0.43170 0.84030 0.05500 -0.08000
C 	C 	0.39330 0.84008 0.08023 0.02800
H 	H 	0.40770 0.83050 0.09510 0.00900
C 	C 	0.33780 0.85367 0.08189 -0.12400
C 	C 	0.28990 0.85798 0.10623 0.39000
C 	C 	0.40580 0.81316 0.98840 -0.13200
H 	H 	0.39440 0.80890 0.00760 0.06100
H 	H 	0.45170 0.80540 0.98340 0.05900
C 	C 	0.34580 0.80450 0.96970 -0.09900
H 	H 	0.29860 0.81120 0.97520 0.06000
H 	H 	0.35560 0.80880 0.95040 0.06200
C 	C 	0.34620 0.77822 0.97340 -0.02100
H 	H 	0.39190 0.77140 0.96650 0.02400
H 	H 	0.34050 0.77400 0.99290 0.02200
C 	C 	0.28260 0.76955 0.95677 -0.21400
H 	H 	0.27120 0.75320 0.96150 0.08200
H 	H 	0.23930 0.77930 0.96020 0.08700
C 	C 	0.30550 0.77140 0.92740 0.13100
H 	H 	0.34480 0.76020 0.92340 -0.01900
H 	H 	0.32300 0.78740 0.92330 -0.01300
C 	C 	0.23940 0.76590 0.91050 -0.46000
H 	H 	0.25110 0.76730 0.89100 0.12300
H 	H 	0.20070 0.77680 0.91510 0.14600
H 	H 	0.22350 0.74990 0.91450 0.14700
C 	C 	0.49820 0.82540 0.04800 0.14200
H 	H 	0.50050 0.82430 0.02780 -0.03300
H 	H 	0.48850 0.80950 0.05490 0.08500
C 	C 	0.57500 0.83240 0.05810 -0.39000
H 	H 	0.58480 0.82630 0.07670 0.07100
H 	H 	0.58220 0.84950 0.05780 0.12100
C 	C 	0.62240 0.81980 0.03600 -0.14000
H 	H 	0.66550 0.81230 0.04420 -0.01000
H 	H 	0.59440 0.80810 0.02560 0.03100
C 	C 	0.28290 0.84590 0.90780 0.34900
C 	C 	0.22680 0.84288 0.93351 -0.06100
C 	C 	0.17740 0.82730 0.93669 -0.05900
H 	H 	0.16520 0.81600 0.92330 0.03800
C 	C 	0.14300 0.82930 0.96285 0.04100
C 	C 	0.17810 0.84610 0.97852 -0.03300
C 	C 	0.10910 0.89437 0.06448 0.31900
C 	C 	0.08250 0.81440 0.97110 -0.16100
H 	H 	0.07270 0.81670 0.99090 0.06900
H 	H 	0.09590 0.79790 0.96830 0.06300
C 	C 	0.01430 0.81970 0.95490 -0.04900
H 	H 	0.97620 0.80800 0.95880 0.03200
H 	H 	0.02430 0.81970 0.93500 0.01800
C 	C 	0.99160 0.84380 0.96460 -0.06000
H 	H 	0.97110 0.84310 0.98330 0.03600
H 	H 	0.03330 0.85460 0.96460 0.04400
C 	C 	0.93470 0.85160 0.94400 -0.17100
H 	H 	0.90220 0.86350 0.95220 0.05700
H 	H 	0.95760 0.85830 0.92740 0.06300
C 	C 	0.89350 0.82950 0.93710 0.10600
H 	H 	0.84270 0.83300 0.93230 -0.02400
H 	H 	0.89410 0.81840 0.95270 -0.01200
C 	C 	0.93400 0.81940 0.91260 -0.45100
H 	H 	0.90300 0.80810 0.90320 0.13500
H 	H 	0.97800 0.81170 0.91890 0.14600
H 	H 	0.94640 0.83200 0.89990 0.13800
C 	C 	0.17890 0.81325 0.03305 -0.12000
H 	H 	0.13620 0.80420 0.03910 0.05900
H 	H 	0.19290 0.80740 0.01470 0.05900
C 	C 	0.24050 0.80848 0.05286 -0.09900
H 	H 	0.28610 0.81530 0.04600 0.05900
H 	H 	0.22990 0.81520 0.07110 0.05900
C 	C 	0.24650 0.78239 0.05460 -0.02400
H 	H 	0.23690 0.77510 0.03660 0.02300
H 	H 	0.21200 0.77600 0.06820 0.03200
C 	C 	0.32350 0.77810 0.06350 -0.21900
H 	H 	0.34660 0.76620 0.05170 0.07900
H 	H 	0.35210 0.79260 0.06250 0.08300
C 	C 	0.31820 0.76950 0.09260 0.14700
H 	H 	0.27390 0.77540 0.10160 -0.02600
H 	H 	0.36070 0.77450 0.10350 -0.03900
C 	C 	0.31600 0.74310 0.08980 -0.48700
H 	H 	0.30800 0.73600 0.10780 0.14900
H 	H 	0.36170 0.73750 0.08220 0.15400
H 	H 	0.27620 0.73870 0.07750 0.15300
C 	C 	0.54410 0.89150 0.85080 0.40800
C 	C 	0.65450 0.91331 0.79084 0.02600
C 	C 	0.57750 0.89685 0.82203 -0.09400
C 	C 	0.62720 0.91360 0.81740 -0.03900
H 	H 	0.64200 0.92450 0.83090 0.03600
C 	C 	0.61930 0.89835 0.77405 -0.02900
C 	C 	0.61890 0.89297 0.74547 -0.02200
C 	C 	0.62090 0.90700 0.72303 0.03000
C 	C 	0.62850 0.89566 0.69729 -0.05100
H 	H 	0.62830 0.90300 0.67980 0.05700
C 	C 	0.63620 0.87231 0.70213 -0.07400
C 	C 	0.65220 0.85389 0.68145 0.30100
C 	C 	0.72010 0.92670 0.78000 -0.14300
H 	H 	0.70750 0.94350 0.77960 0.05600
H 	H 	0.72880 0.92180 0.76090 0.06500
C 	C 	0.79160 0.92400 0.79610 -0.06200
H 	H 	0.78280 0.92230 0.81600 0.03400
H 	H 	0.82430 0.93740 0.79290 0.02800
C 	C 	0.82310 0.90110 0.78360 -0.08000
H 	H 	0.85950 0.90440 0.76930 0.03200
H 	H 	0.78460 0.89100 0.77600 0.04900
C 	C 	0.85820 0.89010 0.80990 -0.13900
H 	H 	0.85510 0.90070 0.82580 0.05500
H 	H 	0.90920 0.88570 0.80670 0.05000
C 	C 	0.80900 0.86810 0.81350 0.04200
H 	H 	0.75960 0.87080 0.80590 0.01400
H 	H 	0.82990 0.85410 0.80490 -0.00100
C 	C 	0.80700 0.86610 0.84550 -0.38900
H 	H 	0.77390 0.85360 0.85090 0.12600
H 	H 	0.79060 0.88090 0.85340 0.12400
H 	H 	0.85570 0.86250 0.85220 0.11900
C 	C 	0.60880 0.93370 0.72330 -0.12600
H 	H 	0.60560 0.93920 0.74250 0.05900
H 	H 	0.65060 0.94150 0.71460 0.05900
C 	C 	0.53970 0.94038 0.70810 -0.09400
H 	H 	0.54100 0.93460 0.68900 0.06100
H 	H 	0.49670 0.93380 0.71740 0.05900
C 	C 	0.53820 0.96671 0.70870 -0.03500
H 	H 	0.54960 0.97250 0.72730 0.02600
H 	H 	0.57390 0.97320 0.69570 0.03300
C 	C 	0.46300 0.97370 0.70060 -0.18400
H 	H 	0.45520 0.99050 0.70440 0.06800
H 	H 	0.42690 0.96460 0.71110 0.07100
C 	C 	0.45580 0.96880 0.67040 0.09600
H 	H 	0.44960 0.95190 0.66700 -0.00900
H 	H 	0.49880 0.97440 0.66020 -0.00700
C 	C 	0.38850 0.98230 0.66190 -0.43400
H 	H 	0.37790 0.97930 0.64260 0.12200
H 	H 	0.39690 0.99900 0.66460 0.13600
H 	H 	0.34750 0.97740 0.67320 0.13100
C 	C 	0.44770 0.81613 0.88080 0.40900
C 	C 	0.47140 0.79631 0.89260 -0.14200
C 	C 	0.52050 0.79710 0.91270 -0.00600
H 	H 	0.53240 0.81170 0.92070 0.03200
C 	C 	0.56170 0.77300 0.92430 -0.00500
C 	C 	0.52550 0.75728 0.90420 -0.01500
C 	C 	0.53900 0.73222 0.90420 -0.03200
C 	C 	0.50820 0.71470 0.91540 0.03400
C 	C 	0.53120 0.69201 0.90730 -0.04900
H 	H 	0.51240 0.67780 0.91430 0.04800
C 	C 	0.58390 0.69382 0.88828 -0.07600
C 	C 	0.62630 0.67442 0.87490 0.34400
C 	C 	0.60410 0.77300 0.95090 -0.08000
H 	H 	0.60900 0.78890 0.95860 0.04000
H 	H 	0.65250 0.76590 0.94860 0.03600
C 	C 	0.55350 0.75750 0.96840 -0.17400
H 	H 	0.55170 0.74130 0.96140 0.07900
H 	H 	0.50390 0.76390 0.96920 0.07600
C 	C 	0.59140 0.75860 0.99710 0.12300
H 	H 	0.61000 0.77440 0.00120 -0.06000
H 	H 	0.63110 0.74710 0.99870 -0.01800
C 	C 	0.52570 0.75200 0.01590 -0.47300
H 	H 	0.48420 0.76270 0.01310 0.15700
H 	H 	0.50990 0.73570 0.01300 0.15600
C 	C 	0.56070 0.75550 0.04480 0.70000
H 	H 	0.60620 0.74660 0.04660 -0.19900
H 	H 	0.52720 0.75110 0.05970 -0.20500
C 	C 	0.44110 0.71550 0.93350 -0.14700
H 	H 	0.40500 0.70580 0.92380 0.06400
H 	H 	0.42350 0.73180 0.93190 0.06800
C 	C 	0.43200 0.70930 0.96420 -0.06600
H 	H 	0.46220 0.71930 0.97600 0.03500
H 	H 	0.44380 0.69270 0.96770 0.03900
C 	C 	0.35020 0.71420 0.96830 -0.07600
H 	H 	0.34100 0.73100 0.97150 0.04100
H 	H 	0.32130 0.70890 0.95240 0.04500
C 	C 	0.33400 0.69950 0.99420 -0.15100
H 	H 	0.36530 0.68560 0.99530 0.06300
H 	H 	0.28260 0.69460 0.99480 0.06100
C 	C 	0.35200 0.71740 0.01720 0.06400
H 	H 	0.36590 0.73270 0.00960 -0.00500
H 	H 	0.38990 0.71150 0.02960 -0.00600
C 	C 	0.27700 0.71870 0.03200 -0.41800
H 	H 	0.27020 0.73430 0.03960 0.13200
H 	H 	0.27560 0.70710 0.04680 0.13300
H 	H 	0.23840 0.71530 0.01880 0.13700
C 	C 	0.17140 0.93595 0.12990 0.36400
C 	C 	0.21540 0.95669 0.14300 -0.07200
C 	C 	0.26360 0.95488 0.16170 -0.04900
H 	H 	0.27600 0.94080 0.17080 0.04800
C 	C 	0.29550 0.97676 0.16670 0.03500
C 	C 	0.26580 0.99519 0.15161 -0.02500
C 	C 	0.28600 0.01933 0.14960 -0.02800
C 	C 	0.24540 0.03920 0.15840 0.03700
C 	C 	0.34010 0.05709 0.13755 -0.13700
C 	C 	0.27630 0.05974 0.15190 -0.02300
H 	H 	0.25630 0.07440 0.15660 0.03900
C 	C 	0.38230 0.07409 0.12530 0.43500
C 	C 	0.34700 0.98110 0.18880 -0.14300
H 	H 	0.36420 0.99730 0.18600 0.06700
H 	H 	0.38880 0.97090 0.18500 0.06000
C 	C 	0.33250 0.97880 0.21947 -0.07500
H 	H 	0.37660 0.98240 0.23020 0.03000
H 	H 	0.31620 0.96290 0.22410 0.03800
C 	C 	0.27290 0.99670 0.22529 -0.05200
H 	H 	0.28690 0.01230 0.21860 0.03800
H 	H 	0.22700 0.99200 0.21650 0.04000
C 	C 	0.26570 0.99660 0.25652 -0.19400
H 	H 	0.25360 0.98080 0.26330 0.07100
H 	H 	0.31120 0.00170 0.26530 0.06700
C 	C 	0.20490 0.01360 0.26260 0.12500
H 	H 	0.21820 0.02960 0.25680 -0.02500
H 	H 	0.16010 0.00900 0.25290 -0.02600
C 	C 	0.19430 0.01250 0.29340 -0.46300
H 	H 	0.15620 0.02340 0.29880 0.14300
H 	H 	0.23960 0.01670 0.30260 0.13900
H 	H 	0.18050 0.99660 0.29870 0.14200
C 	C 	0.17700 0.03680 0.16880 -0.13700
H 	H 	0.16640 0.02010 0.17250 0.06700
H 	H 	0.14080 0.04270 0.15560 0.05900
C 	C 	0.17460 0.05090 0.19540 -0.10500
H 	H 	0.18580 0.06750 0.19200 0.04800
H 	H 	0.20870 0.04460 0.20920 0.05200
C 	C 	0.09550 0.04760 0.20460 0.00600
H 	H 	0.06740 0.06220 0.20240 0.00200
H 	H 	0.07160 0.03500 0.19410 0.01500
C 	C 	0.10400 0.04100 0.23500 -0.24600
H 	H 	0.10280 0.02390 0.23760 0.09600
H 	H 	0.15000 0.04720 0.24260 0.09200
C 	C 	0.18010 0.86496 0.19161 0.27800
C 	C 	0.15830 0.88246 0.21125 -0.07800
C 	C 	0.15960 0.90524 0.20525 -0.04500
H 	H 	0.17270 0.91180 0.18810 0.05400
C 	C 	0.12160 0.90390 0.25198 -0.01900
C 	C 	0.10690 0.90952 0.28077 -0.02500
C 	C 	0.04240 0.90791 0.32506 -0.08600
C 	C 	0.99110 0.90510 0.34950 0.37300
C 	C 	0.11960 0.94515 0.22938 -0.11900
H 	H 	0.10630 0.95040 0.24800 0.05800
H 	H 	0.16400 0.95360 0.22400 0.05700
C 	C 	0.05940 0.95165 0.20986 -0.10400
H 	H 	0.07030 0.94570 0.19130 0.06200
H 	H 	0.01330 0.94460 0.21600 0.06100
C 	C 	0.98440 0.98344 0.19434 -0.21400
H 	H 	0.94480 0.97310 0.20040 0.08100
H 	H 	0.97030 0.99980 0.19820 0.07700
C 	C 	0.92880 0.98650 0.14980 -0.46300
H 	H 	0.93590 0.98510 0.13000 0.12800
H 	H 	0.91550 0.00260 0.15430 0.13800
H 	H 	0.89030 0.97590 0.15570 0.14000
C 	C 	0.26870 0.93020 0.31250 -0.09700
H 	H 	0.25290 0.93080 0.33190 0.04100
H 	H 	0.28390 0.91410 0.30810 0.04800
C 	C 	0.33010 0.94720 0.30760 -0.02700
H 	H 	0.34940 0.95310 0.32510 0.01800
H 	H 	0.31380 0.96050 0.29630 0.01900
C 	C 	0.13660 0.91861 0.23026 0.02100
C 	C 	0.13710 0.92333 0.29775 0.01200
C 	C 	0.09530 0.92365 0.32497 -0.03500
H 	H 	0.10580 0.93380 0.33980 0.03400
C 	C 	0.05310 0.97754 0.20937 -0.01800
H 	H 	0.09520 0.98450 0.19990 0.02800
H 	H 	0.05140 0.98380 0.22830 0.02300
C 	C 	0.99800 0.98030 0.16440 0.13400
H 	H 	0.01150 0.96390 0.16050 -0.02000
H 	H 	0.03780 0.99050 0.15830 -0.02200
C 	C 	0.20790 0.93790 0.29370 -0.11700
H 	H 	0.22400 0.93640 0.27440 0.05600
H 	H 	0.19720 0.95460 0.29710 0.04300
C 	C 	0.38660 0.93290 0.29250 -0.20900
H 	H 	0.36800 0.92760 0.27450 0.07800
H 	H 	0.40080 0.91910 0.30340 0.07300
C 	C 	0.45020 0.94940 0.28890 0.13900
H 	H 	0.45300 0.96050 0.30430 -0.02700
H 	H 	0.49610 0.94060 0.28780 -0.03300
C 	C 	0.43500 0.96210 0.26220 -0.48700
H 	H 	0.47500 0.97300 0.25850 0.13700
H 	H 	0.39000 0.97070 0.26370 0.16100
H 	H 	0.43200 0.95080 0.24730 0.16000
O 	O 	0.46710 0.91075 0.94558 -0.44800
O 	O 	0.47250 0.88237 0.91570 -0.52300
O 	O 	0.24160 0.87259 0.10469 -0.44400
O 	O 	0.30900 0.84580 0.12772 -0.50400
O 	O 	0.31860 0.86274 0.90577 -0.44200
O 	O 	0.26860 0.82811 0.88946 -0.48800
O 	O 	0.10010 0.91465 0.05536 -0.42200
O 	O 	0.09430 0.89015 0.09032 -0.51800
O 	O 	0.56850 0.90491 0.86974 -0.50800
O 	O 	0.49660 0.87728 0.85193 -0.46200
O 	O 	0.65690 0.85877 0.65551 -0.50400
O 	O 	0.66920 0.83337 0.68989 -0.42900
O 	O 	0.45440 0.83653 0.88874 -0.45100
O 	O 	0.39950 0.80906 0.86303 -0.46800
O 	O 	0.67830 0.68128 0.85795 -0.47000
O 	O 	0.60550 0.65393 0.87901 -0.42400
O 	O 	0.18490 0.91599 0.13644 -0.44100
O 	O 	0.12260 0.94223 0.11152 -0.46400
O 	O 	0.44150 0.06729 0.11430 -0.47700
O 	O 	0.36800 0.09475 0.12783 -0.45500
O 	O 	0.19260 0.84335 0.19900 -0.40900
O 	O 	0.20120 0.87040 0.16620 -0.50300
O 	O 	0.94890 0.88906 0.34832 -0.44300
O 	O 	0.01370 0.91761 0.37035 -0.49200
S 	S 	0.42339 0.88344 0.99415 0.01200
S 	S 	0.32249 0.86654 0.05074 0.03100
S 	S 	0.24680 0.85973 0.96111 0.02400
S 	S 	0.14692 0.88142 0.01308 0.01700
S 	S 	0.55412 0.88314 0.79364 0.03300
S 	S 	0.63425 0.86460 0.73552 0.01400
S 	S 	0.46910 0.76891 0.88137 0.01900
S 	S 	0.60425 0.72233 0.88048 0.00200
S 	S 	0.19772 0.98371 0.13075 -0.00200
S 	S 	0.36027 0.02713 0.13284 0.01400
S 	S 	0.13630 0.87452 0.24318 0.01300
S 	S 	0.03301 0.89387 0.29530 0.03100
Mn	Mn	0.52892 0.91672 0.90670 1.23800
Mn	Mn	0.40966 0.87034 0.87962 1.31900
Mn	Mn	0.29831 0.82154 0.85096 1.24600
Mn	Mn	0.03610 0.92528 0.09299 1.23800
Mn	Mn	0.14743 0.88069 0.12859 1.31800
Mn	Mn	0.25874 0.83510 0.16237 1.24700
H 	H 	0.52250 0.83140 0.03130 0.04000
H 	H 	0.48430 0.80900 0.04490 -0.17400
C 	C 	0.54820 0.82770 0.07340 -0.26000
H 	H 	0.52750 0.81970 0.08960 0.06400
H 	H 	0.55770 0.84420 0.07800 0.11300
C 	C 	0.61780 0.81530 0.06310 0.80600
H 	H 	0.61370 0.79810 0.06460 -0.74200
H 	H 	0.62900 0.81950 0.04390 -0.06000
C 	C 	0.67510 0.82520 0.08320 -0.63900
H 	H 	0.65370 0.82860 0.10130 0.19200
H 	H 	0.69790 0.83950 0.07580 0.19700
C 	C 	0.72980 0.80470 0.08470 0.33900
H 	H 	0.77270 0.80760 0.07310 -0.08800
H 	H 	0.70730 0.78970 0.07930 -0.09000
C 	C 	0.74900 0.80510 0.11580 -0.60500
H 	H 	0.78970 0.79450 0.11920 0.18400
H 	H 	0.70740 0.80010 0.12650 0.18000
H 	H 	0.76310 0.82100 0.12110 0.18600
H 	H 	0.04750 0.05590 0.26810 -0.03400
H 	H 	0.99470 0.04310 0.24660 -0.05200
H 	H 	0.99510 0.08580 0.24140 0.14600
H 	H 	0.01480 0.07240 0.21370 0.16800
H 	H 	0.07750 0.08380 0.23180 0.16200
C 	C 	0.03900 0.05280 0.24850 0.20000
C 	C 	0.03100 0.07580 0.23240 -0.51100
C 	C 	0.92500 0.71760 0.54410 -1.71200
H 	H 	0.89980 0.71290 0.56080 0.98600
H 	H 	0.97160 0.70930 0.54310 0.54200
H 	H 	0.89600 0.71370 0.52810 0.55500
C 	C 	0.85700 0.65880 0.51770 -0.08500
H 	H 	0.89630 0.64730 0.51670 0.04300
H 	H 	0.81220 0.65110 0.52440 0.03400
C 	C 	0.84400 0.67120 0.48950 0.02400
H 	H 	0.87600 0.68490 0.48730 0.00500
H 	H 	0.79320 0.67590 0.48710 0.00300
C 	C 	0.86600 0.65090 0.46960 -0.37900
H 	H 	0.82210 0.64430 0.46120 0.11200
H 	H 	0.89080 0.63860 0.47990 0.12100
H 	H 	0.89770 0.65690 0.45530 0.12800
C 	C 	0.33930 0.64721 0.50658 -0.01700
C 	C 	0.34350 0.66055 0.53031 0.01800
C 	C 	0.35820 0.64683 0.55240 -0.02900
H 	H 	0.36180 0.65300 0.57040 0.04900
C 	C 	0.36710 0.62448 0.54728 -0.09400
C 	C 	0.03770 0.60942 0.44027 0.33000
C 	C 	0.06410 0.62705 0.46221 -0.07300
C 	C 	0.06780 0.65011 0.45991 -0.05300
H 	H 	0.06000 0.65840 0.44330 0.05500
C 	C 	0.08550 0.66138 0.48630 0.04200
C 	C 	0.08940 0.64449 0.50597 -0.03800
C 	C 	0.10460 0.64771 0.53563 0.01400
C 	C 	0.06830 0.65970 0.55500 -0.08300
C 	C 	0.10670 0.65992 0.58023 0.03000
H 	H 	0.09230 0.66950 0.59510 0.00900
C 	C 	0.16220 0.64633 0.58189 -0.12500
C 	C 	0.21010 0.64202 0.60623 0.39000
C 	C 	0.09420 0.68684 0.48840 -0.13300
H 	H 	0.10560 0.69110 0.50760 0.06200
H 	H 	0.04830 0.69460 0.48340 0.06000
C 	C 	0.15420 0.69550 0.46970 -0.09800
H 	H 	0.20140 0.68880 0.47520 0.05900
H 	H 	0.14440 0.69120 0.45040 0.06100
C 	C 	0.15380 0.72178 0.47340 -0.02200
H 	H 	0.10810 0.72860 0.46650 0.02500
H 	H 	0.15950 0.72600 0.49290 0.02200
C 	C 	0.21740 0.73045 0.45677 -0.21300
H 	H 	0.22880 0.74680 0.46150 0.08200
H 	H 	0.26070 0.72070 0.46020 0.08700
C 	C 	0.19450 0.72860 0.42740 0.13100
H 	H 	0.15520 0.73980 0.42340 -0.01900
H 	H 	0.17700 0.71260 0.42330 -0.01200
C 	C 	0.26060 0.73410 0.41050 -0.46000
H 	H 	0.24890 0.73270 0.39100 0.12300
H 	H 	0.29930 0.72320 0.41510 0.14600
H 	H 	0.27650 0.75010 0.41450 0.14700
C 	C 	0.00180 0.67460 0.54800 0.15200
H 	H 	0.99950 0.67570 0.52780 -0.03700
H 	H 	0.01150 0.69050 0.55490 0.08200
C 	C 	0.92500 0.66760 0.55810 -0.39700
H 	H 	0.91520 0.67370 0.57670 0.07200
H 	H 	0.91780 0.65050 0.55780 0.12300
C 	C 	0.87760 0.68020 0.53600 -0.14300
H 	H 	0.83450 0.68770 0.54420 -0.01000
H 	H 	0.90560 0.69190 0.52560 0.03100
C 	C 	0.21710 0.65410 0.40780 0.34900
C 	C 	0.27320 0.65712 0.43351 -0.06000
C 	C 	0.32260 0.67270 0.43669 -0.06000
H 	H 	0.33480 0.68400 0.42330 0.03800
C 	C 	0.35700 0.67070 0.46285 0.04300
C 	C 	0.32190 0.65390 0.47852 -0.03400
C 	C 	0.39090 0.60563 0.56448 0.31900
C 	C 	0.41750 0.68560 0.47110 -0.16700
H 	H 	0.42730 0.68330 0.49090 0.07100
H 	H 	0.40410 0.70210 0.46830 0.06500
C 	C 	0.48570 0.68030 0.45490 -0.03800
H 	H 	0.52380 0.69200 0.45880 0.02800
H 	H 	0.47570 0.68030 0.43500 0.01500
C 	C 	0.50840 0.65620 0.46460 -0.07300
H 	H 	0.52890 0.65690 0.48330 0.03900
H 	H 	0.46670 0.64540 0.46460 0.04900
C 	C 	0.56530 0.64840 0.44400 -0.16400
H 	H 	0.59780 0.63650 0.45220 0.05500
H 	H 	0.54240 0.64170 0.42740 0.06100
C 	C 	0.60650 0.67050 0.43710 0.10100
H 	H 	0.65730 0.66700 0.43230 -0.02200
H 	H 	0.60590 0.68160 0.45270 -0.01100
C 	C 	0.56600 0.68060 0.41260 -0.44600
H 	H 	0.59700 0.69190 0.40320 0.13400
H 	H 	0.52200 0.68830 0.41890 0.14500
H 	H 	0.55360 0.66800 0.39990 0.13700
C 	C 	0.32110 0.68675 0.53305 -0.12000
H 	H 	0.36380 0.69580 0.53910 0.05900
H 	H 	0.30710 0.69260 0.51470 0.05900
C 	C 	0.25950 0.69152 0.55286 -0.09900
H 	H 	0.21390 0.68470 0.54600 0.05900
H 	H 	0.27010 0.68480 0.57110 0.05900
C 	C 	0.25350 0.71761 0.55460 -0.02400
H 	H 	0.26310 0.72490 0.53660 0.02300
H 	H 	0.28800 0.72400 0.56820 0.03200
C 	C 	0.17650 0.72190 0.56350 -0.21900
H 	H 	0.15340 0.73380 0.55170 0.07900
H 	H 	0.14790 0.70740 0.56250 0.08300
C 	C 	0.18180 0.73050 0.59260 0.14700
H 	H 	0.22610 0.72460 0.60160 -0.02600
H 	H 	0.13930 0.72550 0.60350 -0.03900
C 	C 	0.18400 0.75690 0.58980 -0.48700
H 	H 	0.19200 0.76400 0.60780 0.14900
H 	H 	0.13830 0.76250 0.58220 0.15400
H 	H 	0.22380 0.76130 0.57750 0.15300
C 	C 	0.95590 0.60850 0.35080 0.40600
C 	C 	0.84550 0.58669 0.29084 0.02600
C 	C 	0.92250 0.60315 0.32203 -0.09400
C 	C 	0.87280 0.58640 0.31740 -0.03900
H 	H 	0.85800 0.57550 0.33090 0.03600
C 	C 	0.88070 0.60165 0.27405 -0.02900
C 	C 	0.88110 0.60703 0.24547 -0.02200
C 	C 	0.87910 0.59300 0.22303 0.03000
C 	C 	0.87150 0.60434 0.19729 -0.05100
H 	H 	0.87170 0.59700 0.17980 0.05800
C 	C 	0.86380 0.62769 0.20213 -0.07300
C 	C 	0.84780 0.64611 0.18145 0.30100
C 	C 	0.77990 0.57330 0.28000 -0.14400
H 	H 	0.79250 0.55650 0.27960 0.05600
H 	H 	0.77120 0.57820 0.26090 0.06500
C 	C 	0.70840 0.57600 0.29610 -0.06200
H 	H 	0.71720 0.57770 0.31600 0.03400
H 	H 	0.67570 0.56260 0.29290 0.02800
C 	C 	0.67690 0.59890 0.28360 -0.08000
H 	H 	0.64050 0.59560 0.26930 0.03200
H 	H 	0.71540 0.60900 0.27600 0.04900
C 	C 	0.64180 0.60990 0.30990 -0.13900
H 	H 	0.64490 0.59930 0.32580 0.05400
H 	H 	0.59080 0.61430 0.30670 0.04900
C 	C 	0.69100 0.63190 0.31350 0.04200
H 	H 	0.74040 0.62920 0.30590 0.01400
H 	H 	0.67010 0.64590 0.30490 -0.00100
C 	C 	0.69300 0.63390 0.34550 -0.38800
H 	H 	0.72610 0.64640 0.35090 0.12600
H 	H 	0.70940 0.61910 0.35340 0.12400
H 	H 	0.64430 0.63750 0.35220 0.11900
C 	C 	0.89120 0.56630 0.22330 -0.12600
H 	H 	0.89440 0.56080 0.24250 0.05900
H 	H 	0.84940 0.55850 0.21460 0.05900
C 	C 	0.96030 0.55962 0.20810 -0.09400
H 	H 	0.95900 0.56540 0.18900 0.06100
H 	H 	0.00330 0.56620 0.21740 0.05800
C 	C 	0.96180 0.53329 0.20870 -0.03400
H 	H 	0.95040 0.52750 0.22730 0.02600
H 	H 	0.92610 0.52680 0.19570 0.03300
C 	C 	0.03700 0.52630 0.20060 -0.18600
H 	H 	0.04480 0.50950 0.20440 0.06800
H 	H 	0.07310 0.53540 0.21110 0.07100
C 	C 	0.04420 0.53120 0.17040 0.09700
H 	H 	0.05040 0.54810 0.16700 -0.00900
H 	H 	0.00120 0.52560 0.16020 -0.00700
C 	C 	0.11150 0.51770 0.16190 -0.43400
H 	H 	0.12210 0.52070 0.14260 0.12200
H 	H 	0.10310 0.50100 0.16460 0.13600
H 	H 	0.15250 0.52260 0.17320 0.13100
C 	C 	0.05230 0.68387 0.38080 0.40800
C 	C 	0.02860 0.70369 0.39260 -0.14000
C 	C 	0.97950 0.70290 0.41270 -0.00800
H 	H 	0.96760 0.68830 0.42070 0.03200
C 	C 	0.93830 0.72700 0.42430 -0.00400
C 	C 	0.97450 0.74272 0.40420 -0.01700
C 	C 	0.96100 0.76778 0.40420 -0.03100
C 	C 	0.99180 0.78530 0.41540 0.03100
C 	C 	0.96880 0.80799 0.40730 -0.04800
H 	H 	0.98760 0.82220 0.41430 0.04800
C 	C 	0.91610 0.80618 0.38828 -0.07600
C 	C 	0.87370 0.82558 0.37490 0.34500
C 	C 	0.89590 0.72700 0.45090 -0.08000
H 	H 	0.89100 0.71110 0.45860 0.04000
H 	H 	0.84750 0.73410 0.44860 0.03600
C 	C 	0.94650 0.74250 0.46840 -0.17500
H 	H 	0.94830 0.75870 0.46140 0.07900
H 	H 	0.99610 0.73610 0.46920 0.07500
C 	C 	0.90860 0.74140 0.49710 0.12600
H 	H 	0.89000 0.72560 0.50120 -0.06200
H 	H 	0.86890 0.75290 0.49870 -0.01900
C 	C 	0.97430 0.74800 0.51590 -0.48000
H 	H 	0.01580 0.73730 0.51310 0.16100
H 	H 	0.99010 0.76430 0.51300 0.15700
C 	C 	0.93930 0.74450 0.54480 0.70800
H 	H 	0.89380 0.75340 0.54660 -0.20100
H 	H 	0.97280 0.74890 0.55970 -0.20800
C 	C 	0.05890 0.78450 0.43350 -0.14400
H 	H 	0.09500 0.79420 0.42380 0.06400
H 	H 	0.07650 0.76820 0.43190 0.06800
C 	C 	0.06800 0.79070 0.46420 -0.06800
H 	H 	0.03780 0.78070 0.47600 0.03600
H 	H 	0.05620 0.80730 0.46770 0.04000
C 	C 	0.14980 0.78580 0.46830 -0.07500
H 	H 	0.15900 0.76900 0.47150 0.04100
H 	H 	0.17870 0.79110 0.45240 0.04400
C 	C 	0.16600 0.80050 0.49420 -0.15100
H 	H 	0.13470 0.81440 0.49530 0.06300
H 	H 	0.21740 0.80540 0.49480 0.06100
C 	C 	0.14800 0.78260 0.51720 0.06500
H 	H 	0.13410 0.76730 0.50960 -0.00500
H 	H 	0.11010 0.78850 0.52960 -0.00600
C 	C 	0.22300 0.78130 0.53200 -0.41800
H 	H 	0.22980 0.76570 0.53960 0.13200
H 	H 	0.22440 0.79290 0.54680 0.13300
H 	H 	0.26160 0.78470 0.51880 0.13700
C 	C 	0.32860 0.56405 0.62990 0.36400
C 	C 	0.28460 0.54331 0.64300 -0.07200
C 	C 	0.23640 0.54512 0.66170 -0.04900
H 	H 	0.22400 0.55920 0.67080 0.04800
C 	C 	0.20450 0.52324 0.66670 0.03600
C 	C 	0.23420 0.50481 0.65161 -0.02500
C 	C 	0.21400 0.48067 0.64960 -0.02800
C 	C 	0.25460 0.46080 0.65840 0.03700
C 	C 	0.15990 0.44291 0.63755 -0.13700
C 	C 	0.22370 0.44026 0.65190 -0.02300
H 	H 	0.24370 0.42560 0.65660 0.04000
C 	C 	0.11770 0.42591 0.62530 0.43500
C 	C 	0.15300 0.51890 0.68880 -0.14300
H 	H 	0.13580 0.50270 0.68600 0.06700
H 	H 	0.11120 0.52910 0.68500 0.06100
C 	C 	0.16750 0.52120 0.71947 -0.07500
H 	H 	0.12340 0.51760 0.73020 0.03000
H 	H 	0.18380 0.53710 0.72410 0.03800
C 	C 	0.22710 0.50330 0.72529 -0.05200
H 	H 	0.21310 0.48770 0.71860 0.03800
H 	H 	0.27300 0.50800 0.71650 0.04000
C 	C 	0.23430 0.50340 0.75652 -0.19400
H 	H 	0.24640 0.51920 0.76330 0.07100
H 	H 	0.18880 0.49830 0.76530 0.06700
C 	C 	0.29510 0.48640 0.76260 0.12500
H 	H 	0.28180 0.47040 0.75680 -0.02500
H 	H 	0.33990 0.49100 0.75290 -0.02600
C 	C 	0.30570 0.48750 0.79340 -0.46300
H 	H 	0.34380 0.47660 0.79880 0.14300
H 	H 	0.26040 0.48330 0.80260 0.13900
H 	H 	0.31950 0.50340 0.79870 0.14200
C 	C 	0.32300 0.46320 0.66880 -0.13700
H 	H 	0.33360 0.47990 0.67250 0.06700
H 	H 	0.35920 0.45730 0.65560 0.06000
C 	C 	0.32540 0.44910 0.69540 -0.10500
H 	H 	0.31420 0.43250 0.69200 0.04800
H 	H 	0.29130 0.45540 0.70920 0.05200
C 	C 	0.40450 0.45240 0.70460 0.00600
H 	H 	0.43260 0.43780 0.70240 0.00200
H 	H 	0.42840 0.46500 0.69410 0.01600
C 	C 	0.39600 0.45900 0.73500 -0.24600
H 	H 	0.39720 0.47610 0.73760 0.09600
H 	H 	0.35000 0.45280 0.74260 0.09200
C 	C 	0.31990 0.63504 0.69161 0.27800
C 	C 	0.34170 0.61754 0.71125 -0.07800
C 	C 	0.34040 0.59476 0.70525 -0.04500
H 	H 	0.32730 0.58820 0.68810 0.05400
C 	C 	0.37840 0.59610 0.75198 -0.01900
C 	C 	0.39310 0.59048 0.78077 -0.02500
C 	C 	0.45760 0.59209 0.82506 -0.08700
C 	C 	0.50890 0.59490 0.84950 0.37500
C 	C 	0.38040 0.55485 0.72938 -0.12000
H 	H 	0.39370 0.54960 0.74800 0.05800
H 	H 	0.33600 0.54640 0.72400 0.05800
C 	C 	0.44060 0.54835 0.70986 -0.10300
H 	H 	0.42970 0.55430 0.69130 0.06100
H 	H 	0.48670 0.55540 0.71600 0.06100
C 	C 	0.51560 0.51656 0.69434 -0.21100
H 	H 	0.55520 0.52690 0.70040 0.08000
H 	H 	0.52970 0.50020 0.69820 0.07600
C 	C 	0.57120 0.51350 0.64980 -0.45600
H 	H 	0.56410 0.51490 0.63000 0.12500
H 	H 	0.58450 0.49740 0.65430 0.13600
H 	H 	0.60970 0.52410 0.65570 0.13800
C 	C 	0.23130 0.56980 0.81250 -0.09700
H 	H 	0.24710 0.56920 0.83190 0.04100
H 	H 	0.21610 0.58590 0.80810 0.04800
C 	C 	0.16990 0.55280 0.80760 -0.02600
H 	H 	0.15060 0.54690 0.82510 0.01800
H 	H 	0.18620 0.53950 0.79630 0.01900
C 	C 	0.36340 0.58139 0.73026 0.02100
C 	C 	0.36290 0.57667 0.79775 0.01100
C 	C 	0.40470 0.57635 0.82497 -0.03500
H 	H 	0.39420 0.56620 0.83980 0.03400
C 	C 	0.44690 0.52246 0.70937 -0.02000
H 	H 	0.40480 0.51550 0.69990 0.02800
H 	H 	0.44860 0.51620 0.72830 0.02400
C 	C 	0.50200 0.51970 0.66440 0.12700
H 	H 	0.48850 0.53610 0.66050 -0.01800
H 	H 	0.46220 0.50950 0.65830 -0.02000
C 	C 	0.29210 0.56210 0.79370 -0.11700
H 	H 	0.27600 0.56360 0.77440 0.05600
H 	H 	0.30280 0.54540 0.79710 0.04300
C 	C 	0.11340 0.56710 0.79250 -0.20900
H 	H 	0.13200 0.57240 0.77450 0.07800
H 	H 	0.09920 0.58090 0.80340 0.07300
C 	C 	0.04980 0.55060 0.78890 0.14000
H 	H 	0.04700 0.53950 0.80430 -0.02800
H 	H 	0.00390 0.55940 0.78780 -0.03300
C 	C 	0.06500 0.53790 0.76220 -0.48700
H 	H 	0.02500 0.52700 0.75850 0.13700
H 	H 	0.11000 0.52930 0.76370 0.16100
H 	H 	0.06800 0.54920 0.74730 0.16100
O 	O 	0.03290 0.58925 0.44558 -0.44700
O 	O 	0.02750 0.61763 0.41570 -0.52200
O 	O 	0.25840 0.62741 0.60469 -0.44400
O 	O 	0.19100 0.65420 0.62772 -0.50400
O 	O 	0.18140 0.63726 0.40577 -0.44200
O 	O 	0.23140 0.67189 0.38946 -0.48800
O 	O 	0.39990 0.58535 0.55536 -0.42200
O 	O 	0.40570 0.60985 0.59032 -0.51800
O 	O 	0.93150 0.59509 0.36974 -0.50800
O 	O 	0.00340 0.62272 0.35193 -0.46100
O 	O 	0.84310 0.64123 0.15551 -0.50400
O 	O 	0.83080 0.66663 0.18989 -0.42900
O 	O 	0.04560 0.66347 0.38874 -0.45100
O 	O 	0.10050 0.69094 0.36303 -0.46700
O 	O 	0.82170 0.81872 0.35795 -0.47000
O 	O 	0.89450 0.84607 0.37901 -0.42400
O 	O 	0.31510 0.58401 0.63644 -0.44100
O 	O 	0.37740 0.55777 0.61152 -0.46300
O 	O 	0.05850 0.43271 0.61430 -0.47700
O 	O 	0.13200 0.40525 0.62783 -0.45500
O 	O 	0.30740 0.65665 0.69900 -0.40900
O 	O 	0.29880 0.62960 0.66620 -0.50300
O 	O 	0.55110 0.61094 0.84832 -0.44300
O 	O 	0.48630 0.58239 0.87035 -0.49300
S 	S 	0.07661 0.61656 0.49415 0.01300
S 	S 	0.17751 0.63346 0.55074 0.03100
S 	S 	0.25320 0.64027 0.46111 0.02400
S 	S 	0.35308 0.61858 0.51308 0.01700
S 	S 	0.94588 0.61686 0.29364 0.03200
S 	S 	0.86575 0.63540 0.23552 0.01400
S 	S 	0.03090 0.73109 0.38137 0.02100
S 	S 	0.89575 0.77767 0.38048 0.00100
S 	S 	0.30228 0.51629 0.63075 -0.00200
S 	S 	0.13973 0.47287 0.63284 0.01500
S 	S 	0.36370 0.62548 0.74318 0.01300
S 	S 	0.46699 0.60613 0.79530 0.03100
Mn	Mn	0.97108 0.58328 0.40670 1.23700
Mn	Mn	0.09034 0.62966 0.37962 1.31900
Mn	Mn	0.20169 0.67846 0.35096 1.24600
Mn	Mn	0.46390 0.57472 0.59299 1.23900
Mn	Mn	0.35257 0.61931 0.62859 1.31800
Mn	Mn	0.24126 0.66490 0.66237 1.24800
H 	H 	0.97750 0.66860 0.53130 0.03900
H 	H 	0.01570 0.69100 0.54490 -0.17400
C 	C 	0.95180 0.67230 0.57340 -0.26200
H 	H 	0.97250 0.68030 0.58960 0.06400
H 	H 	0.94230 0.65580 0.57800 0.11400
C 	C 	0.88220 0.68470 0.56310 0.81600
H 	H 	0.88630 0.70190 0.56460 -0.75000
H 	H 	0.87100 0.68050 0.54390 -0.05900
C 	C 	0.82490 0.67480 0.58320 -0.64400
H 	H 	0.84630 0.67140 0.60130 0.19300
H 	H 	0.80210 0.66050 0.57580 0.19800
C 	C 	0.77020 0.69530 0.58470 0.34100
H 	H 	0.72730 0.69240 0.57310 -0.08800
H 	H 	0.79270 0.71030 0.57930 -0.09100
C 	C 	0.75100 0.69490 0.61580 -0.60700
H 	H 	0.71030 0.70550 0.61920 0.18400
H 	H 	0.79260 0.69990 0.62650 0.18000
H 	H 	0.73690 0.67900 0.62110 0.18600
H 	H 	0.45250 0.44410 0.76810 -0.03400
H 	H 	0.50530 0.45690 0.74660 -0.05200
H 	H 	0.50490 0.41420 0.74140 0.14600
H 	H 	0.48520 0.42760 0.71370 0.16800
H 	H 	0.42250 0.41620 0.73180 0.16200
C 	C 	0.46100 0.44720 0.74850 0.20000
C 	C 	0.46900 0.42420 0.73240 -0.51100
C 	C 	0.42500 0.21760 0.54410 -1.69800
H 	H 	0.39980 0.21290 0.56080 0.97700
H 	H 	0.47160 0.20930 0.54310 0.53800
H 	H 	0.39600 0.21370 0.52810 0.55100
C 	C 	0.35700 0.15880 0.51770 -0.08700
H 	H 	0.39630 0.14730 0.51670 0.04400
H 	H 	0.31220 0.15110 0.52440 0.03400
C 	C 	0.34400 0.17120 0.48950 0.02600
H 	H 	0.37600 0.18490 0.48730 0.00400
H 	H 	0.29320 0.17590 0.48710 0.00200
C 	C 	0.36600 0.15090 0.46960 -0.38100
H 	H 	0.32210 0.14430 0.46120 0.11200
H 	H 	0.39080 0.13860 0.47990 0.12200
H 	H 	0.39770 0.15690 0.45530 0.12900
C 	C 	0.83930 0.14721 0.50658 -0.01800
C 	C 	0.84350 0.16055 0.53031 0.01800
C 	C 	0.85820 0.14683 0.55240 -0.02900
H 	H 	0.86180 0.15300 0.57040 0.04900
C 	C 	0.86710 0.12448 0.54728 -0.09400
C 	C 	0.53770 0.10942 0.44027 0.33000
C 	C 	0.56410 0.12705 0.46221 -0.07300
C 	C 	0.56780 0.15011 0.45991 -0.05300
H 	H 	0.56000 0.15840 0.44330 0.05500
C 	C 	0.58550 0.16138 0.48630 0.04100
C 	C 	0.58940 0.14449 0.50597 -0.03700
C 	C 	0.60460 0.14771 0.53563 0.01200
C 	C 	0.56830 0.15970 0.55500 -0.08000
C 	C 	0.60670 0.15992 0.58023 0.02800
H 	H 	0.59230 0.16950 0.59510 0.00900
C 	C 	0.66220 0.14633 0.58189 -0.12400
C 	C 	0.71010 0.14202 0.60623 0.39000
C 	C 	0.59420 0.18684 0.48840 -0.13200
H 	H 	0.60560 0.19110 0.50760 0.06100
H 	H 	0.54830 0.19460 0.48340 0.05900
C 	C 	0.65420 0.19550 0.46970 -0.09900
H 	H 	0.70140 0.18880 0.47520 0.06000
H 	H 	0.64440 0.19120 0.45040 0.06200
C 	C 	0.65380 0.22178 0.47340 -0.02100
H 	H 	0.60810 0.22860 0.46650 0.02400
H 	H 	0.65950 0.22600 0.49290 0.02200
C 	C 	0.71740 0.23045 0.45677 -0.21400
H 	H 	0.72880 0.24680 0.46150 0.08200
H 	H 	0.76070 0.22070 0.46020 0.08700
C 	C 	0.69450 0.22860 0.42740 0.13100
H 	H 	0.65520 0.23980 0.42340 -0.01900
H 	H 	0.67700 0.21260 0.42330 -0.01300
C 	C 	0.76060 0.23410 0.41050 -0.46000
H 	H 	0.74890 0.23270 0.39100 0.12300
H 	H 	0.79930 0.22320 0.41510 0.14600
H 	H 	0.77650 0.25010 0.41450 0.14700
C 	C 	0.50180 0.17460 0.54800 0.14200
H 	H 	0.49950 0.17570 0.52780 -0.03300
H 	H 	0.51150 0.19050 0.55490 0.08500
C 	C 	0.42500 0.16760 0.55810 -0.39000
H 	H 	0.41520 0.17370 0.57670 0.07100
H 	H 	0.41780 0.15050 0.55780 0.12100
C 	C 	0.37760 0.18020 0.53600 -0.14000
H 	H 	0.33450 0.18770 0.54420 -0.01000
H 	H 	0.40560 0.19190 0.52560 0.03100
C 	C 	0.71710 0.15410 0.40780 0.34900
C 	C 	0.77320 0.15712 0.43351 -0.06100
C 	C 	0.82260 0.17270 0.43669 -0.05900
H 	H 	0.83480 0.18400 0.42330 0.03800
C 	C 	0.85700 0.17070 0.46285 0.04100
C 	C 	0.82190 0.15390 0.47852 -0.03300
C 	C 	0.89090 0.10563 0.56448 0.31900
C 	C 	0.91750 0.18560 0.47110 -0.16100
H 	H 	0.92730 0.18330 0.49090 0.06900
H 	H 	0.90410 0.20210 0.46830 0.06300
C 	C 	0.98570 0.18030 0.45490 -0.04900
H 	H 	0.02380 0.19200 0.45880 0.03200
H 	H 	0.97570 0.18030 0.43500 0.01800
C 	C 	0.00840 0.15620 0.46460 -0.06000
H 	H 	0.02890 0.15690 0.48330 0.03600
H 	H 	0.96670 0.14540 0.46460 0.04400
C 	C 	0.06530 0.14840 0.44400 -0.17100
H 	H 	0.09780 0.13650 0.45220 0.05700
H 	H 	0.04240 0.14170 0.42740 0.06300
C 	C 	0.10650 0.17050 0.43710 0.10600
H 	H 	0.15730 0.16700 0.43230 -0.02400
H 	H 	0.10590 0.18160 0.45270 -0.01200
C 	C 	0.06600 0.18060 0.41260 -0.45100
H 	H 	0.09700 0.19190 0.40320 0.13500
H 	H 	0.02200 0.18830 0.41890 0.14600
H 	H 	0.05360 0.16800 0.39990 0.13800
C 	C 	0.82110 0.18675 0.53305 -0.12000
H 	H 	0.86380 0.19580 0.53910 0.05900
H 	H 	0.80710 0.19260 0.51470 0.05900
C 	C 	0.75950 0.19152 0.55286 -0.09900
H 	H 	0.71390 0.18470 0.54600 0.05900
H 	H 	0.77010 0.18480 0.57110 0.05900
C 	C 	0.75350 0.21761 0.55460 -0.02400
H 	H 	0.76310 0.22490 0.53660 0.02300
H 	H 	0.78800 0.22400 0.56820 0.03200
C 	C 	0.67650 0.22190 0.56350 -0.21900
H 	H 	0.65340 0.23380 0.55170 0.07900
H 	H 	0.64790 0.20740 0.56250 0.08300
C 	C 	0.68180 0.23050 0.59260 0.14700
H 	H 	0.72610 0.22460 0.60160 -0.02600
H 	H 	0.63930 0.22550 0.60350 -0.03900
C 	C 	0.68400 0.25690 0.58980 -0.48700
H 	H 	0.69200 0.26400 0.60780 0.14900
H 	H 	0.63830 0.26250 0.58220 0.15400
H 	H 	0.72380 0.26130 0.57750 0.15300
C 	C 	0.45590 0.10850 0.35080 0.40800
C 	C 	0.34550 0.08669 0.29084 0.02600
C 	C 	0.42250 0.10315 0.32203 -0.09400
C 	C 	0.37280 0.08640 0.31740 -0.03900
H 	H 	0.35800 0.07550 0.33090 0.03600
C 	C 	0.38070 0.10165 0.27405 -0.02900
C 	C 	0.38110 0.10703 0.24547 -0.02200
C 	C 	0.37910 0.09300 0.22303 0.03000
C 	C 	0.37150 0.10434 0.19729 -0.05100
H 	H 	0.37170 0.09700 0.17980 0.05700
C 	C 	0.36380 0.12769 0.20213 -0.07400
C 	C 	0.34780 0.14611 0.18145 0.30100
C 	C 	0.27990 0.07330 0.28000 -0.14300
H 	H 	0.29250 0.05650 0.27960 0.05600
H 	H 	0.27120 0.07820 0.26090 0.06500
C 	C 	0.20840 0.07600 0.29610 -0.06200
H 	H 	0.21720 0.07770 0.31600 0.03400
H 	H 	0.17570 0.06260 0.29290 0.02800
C 	C 	0.17690 0.09890 0.28360 -0.08000
H 	H 	0.14050 0.09560 0.26930 0.03200
H 	H 	0.21540 0.10900 0.27600 0.04900
C 	C 	0.14180 0.10990 0.30990 -0.13900
H 	H 	0.14490 0.09930 0.32580 0.05500
H 	H 	0.09080 0.11430 0.30670 0.05000
C 	C 	0.19100 0.13190 0.31350 0.04200
H 	H 	0.24040 0.12920 0.30590 0.01400
H 	H 	0.17010 0.14590 0.30490 -0.00100
C 	C 	0.19300 0.13390 0.34550 -0.38900
H 	H 	0.22610 0.14640 0.35090 0.12600
H 	H 	0.20940 0.11910 0.35340 0.12400
H 	H 	0.14430 0.13750 0.35220 0.11900
C 	C 	0.39120 0.06630 0.22330 -0.12600
H 	H 	0.39440 0.06080 0.24250 0.05900
H 	H 	0.34940 0.05850 0.21460 0.05900
C 	C 	0.46030 0.05962 0.20810 -0.09400
H 	H 	0.45900 0.06540 0.18900 0.06100
H 	H 	0.50330 0.06620 0.21740 0.05900
C 	C 	0.46180 0.03329 0.20870 -0.03500
H 	H 	0.45040 0.02750 0.22730 0.02600
H 	H 	0.42610 0.02680 0.19570 0.03300
C 	C 	0.53700 0.02630 0.20060 -0.18400
H 	H 	0.54480 0.00950 0.20440 0.06800
H 	H 	0.57310 0.03540 0.21110 0.07100
C 	C 	0.54420 0.03120 0.17040 0.09600
H 	H 	0.55040 0.04810 0.16700 -0.00900
H 	H 	0.50120 0.02560 0.16020 -0.00700
C 	C 	0.61150 0.01770 0.16190 -0.43400
H 	H 	0.62210 0.02070 0.14260 0.12200
H 	H 	0.60310 0.00100 0.16460 0.13600
H 	H 	0.65250 0.02260 0.17320 0.13100
C 	C 	0.55230 0.18387 0.38080 0.40900
C 	C 	0.52860 0.20369 0.39260 -0.14200
C 	C 	0.47950 0.20290 0.41270 -0.00600
H 	H 	0.46760 0.18830 0.42070 0.03200
C 	C 	0.43830 0.22700 0.42430 -0.00500
C 	C 	0.47450 0.24272 0.40420 -0.01500
C 	C 	0.46100 0.26778 0.40420 -0.03200
C 	C 	0.49180 0.28530 0.41540 0.03400
C 	C 	0.46880 0.30799 0.40730 -0.04900
H 	H 	0.48760 0.32220 0.41430 0.04800
C 	C 	0.41610 0.30618 0.38828 -0.07600
C 	C 	0.37370 0.32558 0.37490 0.34400
C 	C 	0.39590 0.22700 0.45090 -0.08000
H 	H 	0.39100 0.21110 0.45860 0.04000
H 	H 	0.34750 0.23410 0.44860 0.03600
C 	C 	0.44650 0.24250 0.46840 -0.17400
H 	H 	0.44830 0.25870 0.46140 0.07900
H 	H 	0.49610 0.23610 0.46920 0.07600
C 	C 	0.40860 0.24140 0.49710 0.12300
H 	H 	0.39000 0.22560 0.50120 -0.06000
H 	H 	0.36890 0.25290 0.49870 -0.01800
C 	C 	0.47430 0.24800 0.51590 -0.47300
H 	H 	0.51580 0.23730 0.51310 0.15700
H 	H 	0.49010 0.26430 0.51300 0.15600
C 	C 	0.43930 0.24450 0.54480 0.70000
H 	H 	0.39380 0.25340 0.54660 -0.19900
H 	H 	0.47280 0.24890 0.55970 -0.20500
C 	C 	0.55890 0.28450 0.43350 -0.14700
H 	H 	0.59500 0.29420 0.42380 0.06400
H 	H 	0.57650 0.26820 0.43190 0.06800
C 	C 	0.56800 0.29070 0.46420 -0.06600
H 	H 	0.53780 0.28070 0.47600 0.03500
H 	H 	0.55620 0.30730 0.46770 0.03900
C 	C 	0.64980 0.28580 0.46830 -0.07600
H 	H 	0.65900 0.26900 0.47150 0.04100
H 	H 	0.67870 0.29110 0.45240 0.04500
C 	C 	0.66600 0.30050 0.49420 -0.15100
H 	H 	0.63470 0.31440 0.49530 0.06300
H 	H 	0.71740 0.30540 0.49480 0.06100
C 	C 	0.64800 0.28260 0.51720 0.06400
H 	H 	0.63410 0.26730 0.50960 -0.00500
H 	H 	0.61010 0.28850 0.52960 -0.00600
C 	C 	0.72300 0.28130 0.53200 -0.41800
H 	H 	0.72980 0.26570 0.53960 0.13200
H 	H 	0.72440 0.29290 0.54680 0.13300
H 	H 	0.76160 0.28470 0.51880 0.13700
C 	C 	0.82860 0.06405 0.62990 0.36400
C 	C 	0.78460 0.04331 0.64300 -0.07200
C 	C 	0.73640 0.04512 0.66170 -0.04900
H 	H 	0.72400 0.05920 0.67080 0.04800
C 	C 	0.70450 0.02324 0.66670 0.03500
C 	C 	0.73420 0.00481 0.65161 -0.02500
C 	C 	0.71400 0.98067 0.64960 -0.02800
C 	C 	0.75460 0.96080 0.65840 0.03700
C 	C 	0.65990 0.94291 0.63755 -0.13700
C 	C 	0.72370 0.94026 0.65190 -0.02300
H 	H 	0.74370 0.92560 0.65660 0.03900
C 	C 	0.61770 0.92591 0.62530 0.43500
C 	C 	0.65300 0.01890 0.68880 -0.14300
H 	H 	0.63580 0.00270 0.68600 0.06700
H 	H 	0.61120 0.02910 0.68500 0.06000
C 	C 	0.66750 0.02120 0.71947 -0.07500
H 	H 	0.62340 0.01760 0.73020 0.03000
H 	H 	0.68380 0.03710 0.72410 0.03800
C 	C 	0.72710 0.00330 0.72529 -0.05200
H 	H 	0.71310 0.98770 0.71860 0.03800
H 	H 	0.77300 0.00800 0.71650 0.04000
C 	C 	0.73430 0.00340 0.75652 -0.19400
H 	H 	0.74640 0.01920 0.76330 0.07100
H 	H 	0.68880 0.99830 0.76530 0.06700
C 	C 	0.79510 0.98640 0.76260 0.12500
H 	H 	0.78180 0.97040 0.75680 -0.02500
H 	H 	0.83990 0.99100 0.75290 -0.02600
C 	C 	0.80570 0.98750 0.79340 -0.46300
H 	H 	0.84380 0.97660 0.79880 0.14300
H 	H 	0.76040 0.98330 0.80260 0.13900
H 	H 	0.81950 0.00340 0.79870 0.14200
C 	C 	0.82300 0.96320 0.66880 -0.13700
H 	H 	0.83360 0.97990 0.67250 0.06700
H 	H 	0.85920 0.95730 0.65560 0.05900
C 	C 	0.82540 0.94910 0.69540 -0.10500
H 	H 	0.81420 0.93250 0.69200 0.04800
H 	H 	0.79130 0.95540 0.70920 0.05200
C 	C 	0.90450 0.95240 0.70460 0.00600
H 	H 	0.93260 0.93780 0.70240 0.00200
H 	H 	0.92840 0.96500 0.69410 0.01500
C 	C 	0.89600 0.95900 0.73500 -0.24600
H 	H 	0.89720 0.97610 0.73760 0.09600
H 	H 	0.85000 0.95280 0.74260 0.09200
C 	C 	0.81990 0.13504 0.69161 0.27800
C 	C 	0.84170 0.11754 0.71125 -0.07800
C 	C 	0.84040 0.09476 0.70525 -0.04500
H 	H 	0.82730 0.08820 0.68810 0.05400
C 	C 	0.87840 0.09610 0.75198 -0.01900
C 	C 	0.89310 0.09048 0.78077 -0.02500
C 	C 	0.95760 0.09209 0.82506 -0.08600
C 	C 	0.00890 0.09490 0.84950 0.37300
C 	C 	0.88040 0.05485 0.72938 -0.11900
H 	H 	0.89370 0.04960 0.74800 0.05800
H 	H 	0.83600 0.04640 0.72400 0.05700
C 	C 	0.94060 0.04835 0.70986 -0.10400
H 	H 	0.92970 0.05430 0.69130 0.06200
H 	H 	0.98670 0.05540 0.71600 0.06100
C 	C 	0.01560 0.01656 0.69434 -0.21400
H 	H 	0.05520 0.02690 0.70040 0.08100
H 	H 	0.02970 0.00020 0.69820 0.07700
C 	C 	0.07120 0.01350 0.64980 -0.46300
H 	H 	0.06410 0.01490 0.63000 0.12800
H 	H 	0.08450 0.99740 0.65430 0.13800
H 	H 	0.10970 0.02410 0.65570 0.14000
C 	C 	0.73130 0.06980 0.81250 -0.09700
H 	H 	0.74710 0.06920 0.83190 0.04100
H 	H 	0.71610 0.08590 0.80810 0.04800
C 	C 	0.66990 0.05280 0.80760 -0.02700
H 	H 	0.65060 0.04690 0.82510 0.01800
H 	H 	0.68620 0.03950 0.79630 0.01900
C 	C 	0.86340 0.08139 0.73026 0.02100
C 	C 	0.86290 0.07667 0.79775 0.01200
C 	C 	0.90470 0.07635 0.82497 -0.03500
H 	H 	0.89420 0.06620 0.83980 0.03400
C 	C 	0.94690 0.02246 0.70937 -0.01800
H 	H 	0.90480 0.01550 0.69990 0.02800
H 	H 	0.94860 0.01620 0.72830 0.02300
C 	C 	0.00200 0.01970 0.66440 0.13400
H 	H 	0.98850 0.03610 0.66050 -0.02000
H 	H 	0.96220 0.00950 0.65830 -0.02200
C 	C 	0.79210 0.06210 0.79370 -0.11700
H 	H 	0.77600 0.06360 0.77440 0.05600
H 	H 	0.80280 0.04540 0.79710 0.04300
C 	C 	0.61340 0.06710 0.79250 -0.20900
H 	H 	0.63200 0.07240 0.77450 0.07800
H 	H 	0.59920 0.08090 0.80340 0.07300
C 	C 	0.54980 0.05060 0.78890 0.13900
H 	H 	0.54700 0.03950 0.80430 -0.02700
H 	H 	0.50390 0.05940 0.78780 -0.03300
C 	C 	0.56500 0.03790 0.76220 -0.48700
H 	H 	0.52500 0.02700 0.75850 0.13700
H 	H 	0.61000 0.02930 0.76370 0.16100
H 	H 	0.56800 0.04920 0.74730 0.16000
O 	O 	0.53290 0.08925 0.44558 -0.44800
O 	O 	0.52750 0.11763 0.41570 -0.52300
O 	O 	0.75840 0.12741 0.60469 -0.44400
O 	O 	0.69100 0.15420 0.62772 -0.50400
O 	O 	0.68140 0.13726 0.40577 -0.44200
O 	O 	0.73140 0.17189 0.38946 -0.48800
O 	O 	0.89990 0.08535 0.55536 -0.42200
O 	O 	0.90570 0.10985 0.59032 -0.51800
O 	O 	0.43150 0.09509 0.36974 -0.50800
O 	O 	0.50340 0.12272 0.35193 -0.46200
O 	O 	0.34310 0.14123 0.15551 -0.50400
O 	O 	0.33080 0.16663 0.18989 -0.42900
O 	O 	0.54560 0.16347 0.38874 -0.45100
O 	O 	0.60050 0.19094 0.36303 -0.46800
O 	O 	0.32170 0.31872 0.35795 -0.47000
O 	O 	0.39450 0.34607 0.37901 -0.42400
O 	O 	0.81510 0.08401 0.63644 -0.44100
O 	O 	0.87740 0.05777 0.61152 -0.46400
O 	O 	0.55850 0.93271 0.61430 -0.47700
O 	O 	0.63200 0.90525 0.62783 -0.45500
O 	O 	0.80740 0.15665 0.69900 -0.40900
O 	O 	0.79880 0.12960 0.66620 -0.50300
O 	O 	0.05110 0.11094 0.84832 -0.44300
O 	O 	0.98630 0.08239 0.87035 -0.49200
S 	S 	0.57661 0.11656 0.49415 0.01200
S 	S 	0.67751 0.13346 0.55074 0.03100
S 	S 	0.75320 0.14027 0.46111 0.02400
S 	S 	0.85308 0.11858 0.51308 0.01700
S 	S 	0.44588 0.11686 0.29364 0.03300
S 	S 	0.36575 0.13540 0.23552 0.01400
S 	S 	0.53090 0.23109 0.38137 0.01900
S 	S 	0.39575 0.27767 0.38048 0.00200
S 	S 	0.80228 0.01629 0.63075 -0.00200
S 	S 	0.63973 0.97287 0.63284 0.01400
S 	S 	0.86370 0.12548 0.74318 0.01300
S 	S 	0.96699 0.10613 0.79530 0.03100
Mn	Mn	0.47108 0.08328 0.40670 1.23800
Mn	Mn	0.59034 0.12966 0.37962 1.31900
Mn	Mn	0.70169 0.17846 0.35096 1.24600
Mn	Mn	0.96390 0.07472 0.59299 1.23800
Mn	Mn	0.85257 0.11931 0.62859 1.31800
Mn	Mn	0.74126 0.16490 0.66237 1.24700
H 	H 	0.47750 0.16860 0.53130 0.04000
H 	H 	0.51570 0.19100 0.54490 -0.17400
C 	C 	0.45180 0.17230 0.57340 -0.26000
H 	H 	0.47250 0.18030 0.58960 0.06400
H 	H 	0.44230 0.15580 0.57800 0.11300
C 	C 	0.38220 0.18470 0.56310 0.80600
H 	H 	0.38630 0.20190 0.56460 -0.74200
H 	H 	0.37100 0.18050 0.54390 -0.06000
C 	C 	0.32490 0.17480 0.58320 -0.63900
H 	H 	0.34630 0.17140 0.60130 0.19200
H 	H 	0.30210 0.16050 0.57580 0.19700
C 	C 	0.27020 0.19530 0.58470 0.33900
H 	H 	0.22730 0.19240 0.57310 -0.08800
H 	H 	0.29270 0.21030 0.57930 -0.09000
C 	C 	0.25100 0.19490 0.61580 -0.60600
H 	H 	0.21030 0.20550 0.61920 0.18400
H 	H 	0.29260 0.19990 0.62650 0.18000
H 	H 	0.23690 0.17900 0.62110 0.18600
H 	H 	0.95250 0.94410 0.76810 -0.03400
H 	H 	0.00530 0.95690 0.74660 -0.05200
H 	H 	0.00490 0.91420 0.74140 0.14600
H 	H 	0.98520 0.92760 0.71370 0.16800
H 	H 	0.92250 0.91620 0.73180 0.16200
C 	C 	0.96100 0.94720 0.74850 0.20000
C 	C 	0.96900 0.92420 0.73240 -0.51100
C 	C 	0.92500 0.28240 0.45590 -1.71200
H 	H 	0.89980 0.28710 0.43920 0.98600
H 	H 	0.97160 0.29070 0.45690 0.54200
H 	H 	0.89600 0.28630 0.47190 0.55500
C 	C 	0.85700 0.34120 0.48230 -0.08500
H 	H 	0.89630 0.35270 0.48330 0.04300
H 	H 	0.81220 0.34890 0.47560 0.03400
C 	C 	0.84400 0.32880 0.51050 0.02400
H 	H 	0.87600 0.31510 0.51270 0.00500
H 	H 	0.79320 0.32410 0.51290 0.00300
C 	C 	0.86600 0.34910 0.53040 -0.37900
H 	H 	0.82210 0.35570 0.53880 0.11200
H 	H 	0.89080 0.36140 0.52010 0.12100
H 	H 	0.89770 0.34310 0.54470 0.12800
C 	C 	0.33930 0.35279 0.49342 -0.01700
C 	C 	0.34350 0.33945 0.46969 0.01800
C 	C 	0.35820 0.35317 0.44760 -0.02900
H 	H 	0.36180 0.34700 0.42960 0.04900
C 	C 	0.36710 0.37552 0.45272 -0.09400
C 	C 	0.03770 0.39058 0.55973 0.33000
C 	C 	0.06410 0.37295 0.53779 -0.07300
C 	C 	0.06780 0.34989 0.54009 -0.05300
H 	H 	0.06000 0.34160 0.55670 0.05500
C 	C 	0.08550 0.33862 0.51370 0.04200
C 	C 	0.08940 0.35551 0.49403 -0.03800
C 	C 	0.10460 0.35229 0.46437 0.01400
C 	C 	0.06830 0.34030 0.44500 -0.08300
C 	C 	0.10670 0.34008 0.41977 0.03000
H 	H 	0.09230 0.33050 0.40490 0.00900
C 	C 	0.16220 0.35367 0.41811 -0.12500
C 	C 	0.21010 0.35798 0.39377 0.39000
C 	C 	0.09420 0.31316 0.51160 -0.13300
H 	H 	0.10560 0.30890 0.49240 0.06200
H 	H 	0.04830 0.30540 0.51660 0.06000
C 	C 	0.15420 0.30450 0.53030 -0.09800
H 	H 	0.20140 0.31120 0.52480 0.05900
H 	H 	0.14440 0.30880 0.54960 0.06100
C 	C 	0.15380 0.27822 0.52660 -0.02200
H 	H 	0.10810 0.27140 0.53350 0.02500
H 	H 	0.15950 0.27400 0.50710 0.02200
C 	C 	0.21740 0.26955 0.54323 -0.21300
H 	H 	0.22880 0.25320 0.53850 0.08200
H 	H 	0.26070 0.27930 0.53980 0.08700
C 	C 	0.19450 0.27140 0.57260 0.13100
H 	H 	0.15520 0.26020 0.57660 -0.01900
H 	H 	0.17700 0.28740 0.57670 -0.01200
C 	C 	0.26060 0.26590 0.58950 -0.46000
H 	H 	0.24890 0.26730 0.60900 0.12300
H 	H 	0.29930 0.27680 0.58490 0.14600
H 	H 	0.27650 0.24990 0.58550 0.14700
C 	C 	0.00180 0.32540 0.45200 0.15200
H 	H 	0.99950 0.32430 0.47220 -0.03700
H 	H 	0.01150 0.30950 0.44510 0.08200
C 	C 	0.92500 0.33240 0.44190 -0.39700
H 	H 	0.91520 0.32630 0.42330 0.07200
H 	H 	0.91780 0.34950 0.44220 0.12300
C 	C 	0.87760 0.31980 0.46400 -0.14300
H 	H 	0.83450 0.31230 0.45580 -0.01000
H 	H 	0.90560 0.30810 0.47440 0.03100
C 	C 	0.21710 0.34590 0.59220 0.34900
C 	C 	0.27320 0.34288 0.56649 -0.06000
C 	C 	0.32260 0.32730 0.56331 -0.06000
H 	H 	0.33480 0.31600 0.57670 0.03800
C 	C 	0.35700 0.32930 0.53715 0.04300
C 	C 	0.32190 0.34610 0.52148 -0.03400
C 	C 	0.39090 0.39437 0.43552 0.31900
C 	C 	0.41750 0.31440 0.52890 -0.16700
H 	H 	0.42730 0.31670 0.50910 0.07100
H 	H 	0.40410 0.29790 0.53170 0.06500
C 	C 	0.48570 0.31970 0.54510 -0.03800
H 	H 	0.52380 0.30800 0.54120 0.02800
H 	H 	0.47570 0.31970 0.56500 0.01500
C 	C 	0.50840 0.34380 0.53540 -0.07300
H 	H 	0.52890 0.34310 0.51670 0.03900
H 	H 	0.46670 0.35460 0.53540 0.04900
C 	C 	0.56530 0.35160 0.55600 -0.16400
H 	H 	0.59780 0.36350 0.54780 0.05500
H 	H 	0.54240 0.35830 0.57260 0.06100
C 	C 	0.60650 0.32950 0.56290 0.10100
H 	H 	0.65730 0.33300 0.56770 -0.02200
H 	H 	0.60590 0.31840 0.54730 -0.01100
C 	C 	0.56600 0.31940 0.58740 -0.44600
H 	H 	0.59700 0.30810 0.59680 0.13400
H 	H 	0.52200 0.31170 0.58110 0.14500
H 	H 	0.55360 0.33200 0.60010 0.13700
C 	C 	0.32110 0.31325 0.46695 -0.12000
H 	H 	0.36380 0.30420 0.46090 0.05900
H 	H 	0.30710 0.30740 0.48530 0.05900
C 	C 	0.25950 0.30848 0.44714 -0.09900
H 	H 	0.21390 0.31530 0.45400 0.05900
H 	H 	0.27010 0.31520 0.42890 0.05900
C 	C 	0.25350 0.28239 0.44540 -0.02400
H 	H 	0.26310 0.27510 0.46340 0.02300
H 	H 	0.28800 0.27600 0.43180 0.03200
C 	C 	0.17650 0.27810 0.43650 -0.21900
H 	H 	0.15340 0.26620 0.44830 0.07900
H 	H 	0.14790 0.29260 0.43750 0.08300
C 	C 	0.18180 0.26950 0.40740 0.14700
H 	H 	0.22610 0.27540 0.39840 -0.02600
H 	H 	0.13930 0.27450 0.39650 -0.03900
C 	C 	0.18400 0.24310 0.41020 -0.48700
H 	H 	0.19200 0.23600 0.39220 0.14900
H 	H 	0.13830 0.23750 0.41780 0.15400
H 	H 	0.22380 0.23870 0.42250 0.15300
C 	C 	0.95590 0.39150 0.64920 0.40600
C 	C 	0.84550 0.41331 0.70916 0.02600
C 	C 	0.92250 0.39685 0.67797 -0.09400
C 	C 	0.87280 0.41360 0.68260 -0.03900
H 	H 	0.85800 0.42450 0.66910 0.03600
C 	C 	0.88070 0.39835 0.72595 -0.02900
C 	C 	0.88110 0.39297 0.75453 -0.02200
C 	C 	0.87910 0.40700 0.77697 0.03000
C 	C 	0.87150 0.39566 0.80271 -0.05100
H 	H 	0.87170 0.40300 0.82020 0.05800
C 	C 	0.86380 0.37231 0.79787 -0.07300
C 	C 	0.84780 0.35389 0.81855 0.30100
C 	C 	0.77990 0.42670 0.72000 -0.14400
H 	H 	0.79250 0.44350 0.72040 0.05600
H 	H 	0.77120 0.42180 0.73910 0.06500
C 	C 	0.70840 0.42400 0.70390 -0.06200
H 	H 	0.71720 0.42230 0.68400 0.03400
H 	H 	0.67570 0.43740 0.70710 0.02800
C 	C 	0.67690 0.40110 0.71640 -0.08000
H 	H 	0.64050 0.40440 0.73070 0.03200
H 	H 	0.71540 0.39100 0.72400 0.04900
C 	C 	0.64180 0.39010 0.69010 -0.13900
H 	H 	0.64490 0.40070 0.67420 0.05400
H 	H 	0.59080 0.38570 0.69330 0.04900
C 	C 	0.69100 0.36810 0.68650 0.04200
H 	H 	0.74040 0.37080 0.69410 0.01400
H 	H 	0.67010 0.35410 0.69510 -0.00100
C 	C 	0.69300 0.36610 0.65450 -0.38800
H 	H 	0.72610 0.35360 0.64910 0.12600
H 	H 	0.70940 0.38090 0.64660 0.12400
H 	H 	0.64430 0.36250 0.64780 0.11900
C 	C 	0.89120 0.43370 0.77670 -0.12600
H 	H 	0.89440 0.43920 0.75750 0.05900
H 	H 	0.84940 0.44150 0.78540 0.05900
C 	C 	0.96030 0.44038 0.79190 -0.09400
H 	H 	0.95900 0.43460 0.81100 0.06100
H 	H 	0.00330 0.43380 0.78260 0.05800
C 	C 	0.96180 0.46671 0.79130 -0.03400
H 	H 	0.95040 0.47250 0.77270 0.02600
H 	H 	0.92610 0.47320 0.80430 0.03300
C 	C 	0.03700 0.47370 0.79940 -0.18600
H 	H 	0.04480 0.49050 0.79560 0.06800
H 	H 	0.07310 0.46460 0.78890 0.07100
C 	C 	0.04420 0.46880 0.82960 0.09700
H 	H 	0.05040 0.45190 0.83300 -0.00900
H 	H 	0.00120 0.47440 0.83980 -0.00700
C 	C 	0.11150 0.48230 0.83810 -0.43400
H 	H 	0.12210 0.47930 0.85740 0.12200
H 	H 	0.10310 0.49900 0.83540 0.13600
H 	H 	0.15250 0.47740 0.82680 0.13100
C 	C 	0.05230 0.31613 0.61920 0.40800
C 	C 	0.02860 0.29631 0.60740 -0.14000
C 	C 	0.97950 0.29710 0.58730 -0.00800
H 	H 	0.96760 0.31170 0.57930 0.03200
C 	C 	0.93830 0.27300 0.57570 -0.00400
C 	C 	0.97450 0.25728 0.59580 -0.01700
C 	C 	0.96100 0.23222 0.59580 -0.03100
C 	C 	0.99180 0.21470 0.58460 0.03100
C 	C 	0.96880 0.19201 0.59270 -0.04800
H 	H 	0.98760 0.17780 0.58570 0.04800
C 	C 	0.91610 0.19382 0.61172 -0.07600
C 	C 	0.87370 0.17442 0.62510 0.34500
C 	C 	0.89590 0.27300 0.54910 -0.08000
H 	H 	0.89100 0.28890 0.54140 0.04000
H 	H 	0.84750 0.26590 0.55140 0.03600
C 	C 	0.94650 0.25750 0.53160 -0.17500
H 	H 	0.94830 0.24130 0.53860 0.07900
H 	H 	0.99610 0.26390 0.53080 0.07500
C 	C 	0.90860 0.25860 0.50290 0.12600
H 	H 	0.89000 0.27440 0.49880 -0.06200
H 	H 	0.86890 0.24710 0.50130 -0.01900
C 	C 	0.97430 0.25200 0.48410 -0.48000
H 	H 	0.01580 0.26270 0.48690 0.16100
H 	H 	0.99010 0.23570 0.48700 0.15700
C 	C 	0.93930 0.25550 0.45520 0.70800
H 	H 	0.89380 0.24660 0.45340 -0.20100
H 	H 	0.97280 0.25110 0.44030 -0.20800
C 	C 	0.05890 0.21550 0.56650 -0.14400
H 	H 	0.09500 0.20580 0.57620 0.06400
H 	H 	0.07650 0.23180 0.56810 0.06800
C 	C 	0.06800 0.20930 0.53580 -0.06800
H 	H 	0.03780 0.21930 0.52400 0.03600
H 	H 	0.05620 0.19270 0.53230 0.04000
C 	C 	0.14980 0.21420 0.53170 -0.07500
H 	H 	0.15900 0.23100 0.52850 0.04100
H 	H 	0.17870 0.20890 0.54760 0.04400
C 	C 	0.16600 0.19950 0.50580 -0.15100
H 	H 	0.13470 0.18560 0.50470 0.06300
H 	H 	0.21740 0.19460 0.50520 0.06100
C 	C 	0.14800 0.21740 0.48280 0.06500
H 	H 	0.13410 0.23270 0.49040 -0.00500
H 	H 	0.11010 0.21150 0.47040 -0.00600
C 	C 	0.22300 0.21870 0.46800 -0.41800
H 	H 	0.22980 0.23430 0.46040 0.13200
H 	H 	0.22440 0.20710 0.45320 0.13300
H 	H 	0.26160 0.21530 0.48120 0.13700
C 	C 	0.32860 0.43595 0.37010 0.36400
C 	C 	0.28460 0.45669 0.35700 -0.07200
C 	C 	0.23640 0.45488 0.33830 -0.04900
H 	H 	0.22400 0.44080 0.32920 0.04800
C 	C 	0.20450 0.47676 0.33330 0.03600
C 	C 	0.23420 0.49519 0.34839 -0.02500
C 	C 	0.21400 0.51933 0.35040 -0.02800
C 	C 	0.25460 0.53920 0.34160 0.03700
C 	C 	0.15990 0.55709 0.36245 -0.13700
C 	C 	0.22370 0.55974 0.34810 -0.02300
H 	H 	0.24370 0.57440 0.34340 0.04000
C 	C 	0.11770 0.57409 0.37470 0.43500
C 	C 	0.15300 0.48110 0.31120 -0.14300
H 	H 	0.13580 0.49730 0.31400 0.06700
H 	H 	0.11120 0.47090 0.31500 0.06100
C 	C 	0.16750 0.47880 0.28053 -0.07500
H 	H 	0.12340 0.48240 0.26980 0.03000
H 	H 	0.18380 0.46290 0.27590 0.03800
C 	C 	0.22710 0.49670 0.27471 -0.05200
H 	H 	0.21310 0.51230 0.28140 0.03800
H 	H 	0.27300 0.49200 0.28350 0.04000
C 	C 	0.23430 0.49660 0.24348 -0.19400
H 	H 	0.24640 0.48080 0.23670 0.07100
H 	H 	0.18880 0.50170 0.23470 0.06700
C 	C 	0.29510 0.51360 0.23740 0.12500
H 	H 	0.28180 0.52960 0.24320 -0.02500
H 	H 	0.33990 0.50900 0.24710 -0.02600
C 	C 	0.30570 0.51250 0.20660 -0.46300
H 	H 	0.34380 0.52340 0.20120 0.14300
H 	H 	0.26040 0.51670 0.19740 0.13900
H 	H 	0.31950 0.49660 0.20130 0.14200
C 	C 	0.32300 0.53680 0.33120 -0.13700
H 	H 	0.33360 0.52010 0.32750 0.06700
H 	H 	0.35920 0.54270 0.34440 0.06000
C 	C 	0.32540 0.55090 0.30460 -0.10500
H 	H 	0.31420 0.56750 0.30800 0.04800
H 	H 	0.29130 0.54460 0.29080 0.05200
C 	C 	0.40450 0.54760 0.29540 0.00600
H 	H 	0.43260 0.56220 0.29760 0.00200
H 	H 	0.42840 0.53500 0.30590 0.01600
C 	C 	0.39600 0.54100 0.26500 -0.24600
H 	H 	0.39720 0.52390 0.26240 0.09600
H 	H 	0.35000 0.54720 0.25740 0.09200
C 	C 	0.31990 0.36496 0.30839 0.27800
C 	C 	0.34170 0.38246 0.28875 -0.07800
C 	C 	0.34040 0.40524 0.29475 -0.04500
H 	H 	0.32730 0.41180 0.31190 0.05400
C 	C 	0.37840 0.40390 0.24802 -0.01900
C 	C 	0.39310 0.40952 0.21923 -0.02500
C 	C 	0.45760 0.40791 0.17494 -0.08700
C 	C 	0.50890 0.40510 0.15050 0.37500
C 	C 	0.38040 0.44515 0.27062 -0.12000
H 	H 	0.39370 0.45040 0.25200 0.05800
H 	H 	0.33600 0.45360 0.27600 0.05800
C 	C 	0.44060 0.45165 0.29014 -0.10300
H 	H 	0.42970 0.44570 0.30870 0.06100
H 	H 	0.48670 0.44460 0.28400 0.06100
C 	C 	0.51560 0.48344 0.30566 -0.21100
H 	H 	0.55520 0.47310 0.29960 0.08000
H 	H 	0.52970 0.49980 0.30180 0.07600
C 	C 	0.57120 0.48650 0.35020 -0.45600
H 	H 	0.56410 0.48510 0.37000 0.12500
H 	H 	0.58450 0.50260 0.34570 0.13600
H 	H 	0.60970 0.47590 0.34430 0.13800
C 	C 	0.23130 0.43020 0.18750 -0.09700
H 	H 	0.24710 0.43080 0.16810 0.04100
H 	H 	0.21610 0.41410 0.19190 0.04800
C 	C 	0.16990 0.44720 0.19240 -0.02600
H 	H 	0.15060 0.45310 0.17490 0.01800
H 	H 	0.18620 0.46050 0.20370 0.01900
C 	C 	0.36340 0.41861 0.26974 0.02100
C 	C 	0.36290 0.42333 0.20225 0.01100
C 	C 	0.40470 0.42365 0.17503 -0.03500
H 	H 	0.39420 0.43380 0.16020 0.03400
C 	C 	0.44690 0.47754 0.29063 -0.02000
H 	H 	0.40480 0.48450 0.30010 0.02800
H 	H 	0.44860 0.48380 0.27170 0.02400
C 	C 	0.50200 0.48030 0.33560 0.12700
H 	H 	0.48850 0.46390 0.33950 -0.01800
H 	H 	0.46220 0.49050 0.34170 -0.02000
C 	C 	0.29210 0.43790 0.20630 -0.11700
H 	H 	0.27600 0.43640 0.22560 0.05600
H 	H 	0.30280 0.45460 0.20290 0.04300
C 	C 	0.11340 0.43290 0.20750 -0.20900
H 	H 	0.13200 0.42760 0.22550 0.07800
H 	H 	0.09920 0.41910 0.19660 0.07300
C 	C 	0.04980 0.44940 0.21110 0.14000
H 	H 	0.04700 0.46050 0.19570 -0.02800
H 	H 	0.00390 0.44060 0.21220 -0.03300
C 	C 	0.06500 0.46210 0.23780 -0.48700
H 	H 	0.02500 0.47300 0.24150 0.13700
H 	H 	0.11000 0.47070 0.23630 0.16100
H 	H 	0.06800 0.45080 0.25270 0.16100
O 	O 	0.03290 0.41075 0.55442 -0.44700
O 	O 	0.02750 0.38237 0.58430 -0.52200
O 	O 	0.25840 0.37259 0.39531 -0.44400
O 	O 	0.19100 0.34580 0.37228 -0.50400
O 	O 	0.18140 0.36274 0.59423 -0.44200
O 	O 	0.23140 0.32811 0.61054 -0.48800
O 	O 	0.39990 0.41465 0.44464 -0.42200
O 	O 	0.40570 0.39015 0.40968 -0.51800
O 	O 	0.93150 0.40491 0.63026 -0.50800
O 	O 	0.00340 0.37728 0.64807 -0.46100
O 	O 	0.84310 0.35877 0.84449 -0.50400
O 	O 	0.83080 0.33337 0.81011 -0.42900
O 	O 	0.04560 0.33653 0.61126 -0.45100
O 	O 	0.10050 0.30906 0.63697 -0.46700
O 	O 	0.82170 0.18128 0.64205 -0.47000
O 	O 	0.89450 0.15393 0.62099 -0.42400
O 	O 	0.31510 0.41599 0.36356 -0.44100
O 	O 	0.37740 0.44223 0.38848 -0.46300
O 	O 	0.05850 0.56729 0.38570 -0.47700
O 	O 	0.13200 0.59475 0.37217 -0.45500
O 	O 	0.30740 0.34335 0.30100 -0.40900
O 	O 	0.29880 0.37040 0.33380 -0.50300
O 	O 	0.55110 0.38906 0.15168 -0.44300
O 	O 	0.48630 0.41761 0.12965 -0.49300
S 	S 	0.07661 0.38344 0.50585 0.01300
S 	S 	0.17751 0.36654 0.44926 0.03100
S 	S 	0.25320 0.35973 0.53889 0.02400
S 	S 	0.35308 0.38142 0.48692 0.01700
S 	S 	0.94588 0.38314 0.70636 0.03200
S 	S 	0.86575 0.36460 0.76448 0.01400
S 	S 	0.03090 0.26891 0.61863 0.02100
S 	S 	0.89575 0.22233 0.61952 0.00100
S 	S 	0.30228 0.48371 0.36925 -0.00200
S 	S 	0.13973 0.52713 0.36716 0.01500
S 	S 	0.36370 0.37452 0.25682 0.01300
S 	S 	0.46699 0.39387 0.20470 0.03100
Mn	Mn	0.97108 0.41672 0.59330 1.23700
Mn	Mn	0.09034 0.37034 0.62038 1.31900
Mn	Mn	0.20169 0.32154 0.64904 1.24600
Mn	Mn	0.46390 0.42528 0.40701 1.23900
Mn	Mn	0.35257 0.38069 0.37141 1.31800
Mn	Mn	0.24126 0.33510 0.33763 1.24800
H 	H 	0.97750 0.33140 0.46870 0.03900
H 	H 	0.01570 0.30900 0.45510 -0.17400
C 	C 	0.95180 0.32770 0.42660 -0.26200
H 	H 	0.97250 0.31970 0.41040 0.06400
H 	H 	0.94230 0.34420 0.42200 0.11400
C 	C 	0.88220 0.31530 0.43690 0.81600
H 	H 	0.88630 0.29810 0.43540 -0.75000
H 	H 	0.87100 0.31950 0.45610 -0.05900
C 	C 	0.82490 0.32520 0.41680 -0.64400
H 	H 	0.84630 0.32860 0.39870 0.19300
H 	H 	0.80210 0.33950 0.42420 0.19800
C 	C 	0.77020 0.30470 0.41530 0.34100
H 	H 	0.72730 0.30760 0.42690 -0.08800
H 	H 	0.79270 0.28970 0.42070 -0.09100
C 	C 	0.75100 0.30510 0.38420 -0.60700
H 	H 	0.71030 0.29450 0.38080 0.18400
H 	H 	0.79260 0.30010 0.37350 0.18000
H 	H 	0.73690 0.32100 0.37890 0.18600
H 	H 	0.45250 0.55590 0.23190 -0.03400
H 	H 	0.50530 0.54310 0.25340 -0.05200
H 	H 	0.50490 0.58580 0.25860 0.14600
H 	H 	0.48520 0.57240 0.28630 0.16800
H 	H 	0.42250 0.58380 0.26820 0.16200
C 	C 	0.46100 0.55280 0.25150 0.20000
C 	C 	0.46900 0.57580 0.26760 -0.51100
C 	C 	0.42500 0.78240 0.45590 -1.69800
H 	H 	0.39980 0.78710 0.43920 0.97700
H 	H 	0.47160 0.79070 0.45690 0.53800
H 	H 	0.39600 0.78630 0.47190 0.55100
C 	C 	0.35700 0.84120 0.48230 -0.08700
H 	H 	0.39630 0.85270 0.48330 0.04400
H 	H 	0.31220 0.84890 0.47560 0.03400
C 	C 	0.34400 0.82880 0.51050 0.02600
H 	H 	0.37600 0.81510 0.51270 0.00400
H 	H 	0.29320 0.82410 0.51290 0.00200
C 	C 	0.36600 0.84910 0.53040 -0.38100
H 	H 	0.32210 0.85570 0.53880 0.11200
H 	H 	0.39080 0.86140 0.52010 0.12200
H 	H 	0.39770 0.84310 0.54470 0.12900
C 	C 	0.83930 0.85279 0.49342 -0.01800
C 	C 	0.84350 0.83945 0.46969 0.01800
C 	C 	0.85820 0.85317 0.44760 -0.02900
H 	H 	0.86180 0.84700 0.42960 0.04900
C 	C 	0.86710 0.87552 0.45272 -0.09400
C 	C 	0.53770 0.89058 0.55973 0.33000
C 	C 	0.56410 0.87295 0.53779 -0.07300
C 	C 	0.56780 0.84989 0.54009 -0.05300
H 	H 	0.56000 0.84160 0.55670 0.05500
C 	C 	0.58550 0.83862 0.51370 0.04100
C 	C 	0.58940 0.85551 0.49403 -0.03700
C 	C 	0.60460 0.85229 0.46437 0.01200
C 	C 	0.56830 0.84030 0.44500 -0.08000
C 	C 	0.60670 0.84008 0.41977 0.02800
H 	H 	0.59230 0.83050 0.40490 0.00900
C 	C 	0.66220 0.85367 0.41811 -0.12400
C 	C 	0.71010 0.85798 0.39377 0.39000
C 	C 	0.59420 0.81316 0.51160 -0.13200
H 	H 	0.60560 0.80890 0.49240 0.06100
H 	H 	0.54830 0.80540 0.51660 0.05900
C 	C 	0.65420 0.80450 0.53030 -0.09900
H 	H 	0.70140 0.81120 0.52480 0.06000
H 	H 	0.64440 0.80880 0.54960 0.06200
C 	C 	0.65380 0.77822 0.52660 -0.02100
H 	H 	0.60810 0.77140 0.53350 0.02400
H 	H 	0.65950 0.77400 0.50710 0.02200
C 	C 	0.71740 0.76955 0.54323 -0.21400
H 	H 	0.72880 0.75320 0.53850 0.08200
H 	H 	0.76070 0.77930 0.53980 0.08700
C 	C 	0.69450 0.77140 0.57260 0.13100
H 	H 	0.65520 0.76020 0.57660 -0.01900
H 	H 	0.67700 0.78740 0.57670 -0.01300
C 	C 	0.76060 0.76590 0.58950 -0.46000
H 	H 	0.74890 0.76730 0.60900 0.12300
H 	H 	0.79930 0.77680 0.58490 0.14600
H 	H 	0.77650 0.74990 0.58550 0.14700
C 	C 	0.50180 0.82540 0.45200 0.14200
H 	H 	0.49950 0.82430 0.47220 -0.03300
H 	H 	0.51150 0.80950 0.44510 0.08500
C 	C 	0.42500 0.83240 0.44190 -0.39000
H 	H 	0.41520 0.82630 0.42330 0.07100
H 	H 	0.41780 0.84950 0.44220 0.12100
C 	C 	0.37760 0.81980 0.46400 -0.14000
H 	H 	0.33450 0.81230 0.45580 -0.01000
H 	H 	0.40560 0.80810 0.47440 0.03100
C 	C 	0.71710 0.84590 0.59220 0.34900
C 	C 	0.77320 0.84288 0.56649 -0.06100
C 	C 	0.82260 0.82730 0.56331 -0.05900
H 	H 	0.83480 0.81600 0.57670 0.03800
C 	C 	0.85700 0.82930 0.53715 0.04100
C 	C 	0.82190 0.84610 0.52148 -0.03300
C 	C 	0.89090 0.89437 0.43552 0.31900
C 	C 	0.91750 0.81440 0.52890 -0.16100
H 	H 	0.92730 0.81670 0.50910 0.06900
H 	H 	0.90410 0.79790 0.53170 0.06300
C 	C 	0.98570 0.81970 0.54510 -0.04900
H 	H 	0.02380 0.80800 0.54120 0.03200
H 	H 	0.97570 0.81970 0.56500 0.01800
C 	C 	0.00840 0.84380 0.53540 -0.06000
H 	H 	0.02890 0.84310 0.51670 0.03600
H 	H 	0.96670 0.85460 0.53540 0.04400
C 	C 	0.06530 0.85160 0.55600 -0.17100
H 	H 	0.09780 0.86350 0.54780 0.05700
H 	H 	0.04240 0.85830 0.57260 0.06300
C 	C 	0.10650 0.82950 0.56290 0.10600
H 	H 	0.15730 0.83300 0.56770 -0.02400
H 	H 	0.10590 0.81840 0.54730 -0.01200
C 	C 	0.06600 0.81940 0.58740 -0.45100
H 	H 	0.09700 0.80810 0.59680 0.13500
H 	H 	0.02200 0.81170 0.58110 0.14600
H 	H 	0.05360 0.83200 0.60010 0.13800
C 	C 	0.82110 0.81325 0.46695 -0.12000
H 	H 	0.86380 0.80420 0.46090 0.05900
H 	H 	0.80710 0.80740 0.48530 0.05900
C 	C 	0.75950 0.80848 0.44714 -0.09900
H 	H 	0.71390 0.81530 0.45400 0.05900
H 	H 	0.77010 0.81520 0.42890 0.05900
C 	C 	0.75350 0.78239 0.44540 -0.02400
H 	H 	0.76310 0.77510 0.46340 0.02300
H 	H 	0.78800 0.77600 0.43180 0.03200
C 	C 	0.67650 0.77810 0.43650 -0.21900
H 	H 	0.65340 0.76620 0.44830 0.07900
H 	H 	0.64790 0.79260 0.43750 0.08300
C 	C 	0.68180 0.76950 0.40740 0.14700
H 	H 	0.72610 0.77540 0.39840 -0.02600
H 	H 	0.63930 0.77450 0.39650 -0.03900
C 	C 	0.68400 0.74310 0.41020 -0.48700
H 	H 	0.69200 0.73600 0.39220 0.14900
H 	H 	0.63830 0.73750 0.41780 0.15400
H 	H 	0.72380 0.73870 0.42250 0.15300
C 	C 	0.45590 0.89150 0.64920 0.40800
C 	C 	0.34550 0.91331 0.70916 0.02600
C 	C 	0.42250 0.89685 0.67797 -0.09400
C 	C 	0.37280 0.91360 0.68260 -0.03900
H 	H 	0.35800 0.92450 0.66910 0.03600
C 	C 	0.38070 0.89835 0.72595 -0.02900
C 	C 	0.38110 0.89297 0.75453 -0.02200
C 	C 	0.37910 0.90700 0.77697 0.03000
C 	C 	0.37150 0.89566 0.80271 -0.05100
H 	H 	0.37170 0.90300 0.82020 0.05700
C 	C 	0.36380 0.87231 0.79787 -0.07400
C 	C 	0.34780 0.85389 0.81855 0.30100
C 	C 	0.27990 0.92670 0.72000 -0.14300
H 	H 	0.29250 0.94350 0.72040 0.05600
H 	H 	0.27120 0.92180 0.73910 0.06500
C 	C 	0.20840 0.92400 0.70390 -0.06200
H 	H 	0.21720 0.92230 0.68400 0.03400
H 	H 	0.17570 0.93740 0.70710 0.02800
C 	C 	0.17690 0.90110 0.71640 -0.08000
H 	H 	0.14050 0.90440 0.73070 0.03200
H 	H 	0.21540 0.89100 0.72400 0.04900
C 	C 	0.14180 0.89010 0.69010 -0.13900
H 	H 	0.14490 0.90070 0.67420 0.05500
H 	H 	0.09080 0.88570 0.69330 0.05000
C 	C 	0.19100 0.86810 0.68650 0.04200
H 	H 	0.24040 0.87080 0.69410 0.01400
H 	H 	0.17010 0.85410 0.69510 -0.00100
C 	C 	0.19300 0.86610 0.65450 -0.38900
H 	H 	0.22610 0.85360 0.64910 0.12600
H 	H 	0.20940 0.88090 0.64660 0.12400
H 	H 	0.14430 0.86250 0.64780 0.11900
C 	C 	0.39120 0.93370 0.77670 -0.12600
H 	H 	0.39440 0.93920 0.75750 0.05900
H 	H 	0.34940 0.94150 0.78540 0.05900
C 	C 	0.46030 0.94038 0.79190 -0.09400
H 	H 	0.45900 0.93460 0.81100 0.06100
H 	H 	0.50330 0.93380 0.78260 0.05900
C 	C 	0.46180 0.96671 0.79130 -0.03500
H 	H 	0.45040 0.97250 0.77270 0.02600
H 	H 	0.42610 0.97320 0.80430 0.03300
C 	C 	0.53700 0.97370 0.79940 -0.18400
H 	H 	0.54480 0.99050 0.79560 0.06800
H 	H 	0.57310 0.96460 0.78890 0.07100
C 	C 	0.54420 0.96880 0.82960 0.09600
H 	H 	0.55040 0.95190 0.83300 -0.00900
H 	H 	0.50120 0.97440 0.83980 -0.00700
C 	C 	0.61150 0.98230 0.83810 -0.43400
H 	H 	0.62210 0.97930 0.85740 0.12200
H 	H 	0.60310 0.99900 0.83540 0.13600
H 	H 	0.65250 0.97740 0.82680 0.13100
C 	C 	0.55230 0.81613 0.61920 0.40900
C 	C 	0.52860 0.79631 0.60740 -0.14200
C 	C 	0.47950 0.79710 0.58730 -0.00600
H 	H 	0.46760 0.81170 0.57930 0.03200
C 	C 	0.43830 0.77300 0.57570 -0.00500
C 	C 	0.47450 0.75728 0.59580 -0.01500
C 	C 	0.46100 0.73222 0.59580 -0.03200
C 	C 	0.49180 0.71470 0.58460 0.03400
C 	C 	0.46880 0.69201 0.59270 -0.04900
H 	H 	0.48760 0.67780 0.58570 0.04800
C 	C 	0.41610 0.69382 0.61172 -0.07600
C 	C 	0.37370 0.67442 0.62510 0.34400
C 	C 	0.39590 0.77300 0.54910 -0.08000
H 	H 	0.39100 0.78890 0.54140 0.04000
H 	H 	0.34750 0.76590 0.55140 0.03600
C 	C 	0.44650 0.75750 0.53160 -0.17400
H 	H 	0.44830 0.74130 0.53860 0.07900
H 	H 	0.49610 0.76390 0.53080 0.07600
C 	C 	0.40860 0.75860 0.50290 0.12300
H 	H 	0.39000 0.77440 0.49880 -0.06000
H 	H 	0.36890 0.74710 0.50130 -0.01800
C 	C 	0.47430 0.75200 0.48410 -0.47300
H 	H 	0.51580 0.76270 0.48690 0.15700
H 	H 	0.49010 0.73570 0.48700 0.15600
C 	C 	0.43930 0.75550 0.45520 0.70000
H 	H 	0.39380 0.74660 0.45340 -0.19900
H 	H 	0.47280 0.75110 0.44030 -0.20500
C 	C 	0.55890 0.71550 0.56650 -0.14700
H 	H 	0.59500 0.70580 0.57620 0.06400
H 	H 	0.57650 0.73180 0.56810 0.06800
C 	C 	0.56800 0.70930 0.53580 -0.06600
H 	H 	0.53780 0.71930 0.52400 0.03500
H 	H 	0.55620 0.69270 0.53230 0.03900
C 	C 	0.64980 0.71420 0.53170 -0.07600
H 	H 	0.65900 0.73100 0.52850 0.04100
H 	H 	0.67870 0.70890 0.54760 0.04500
C 	C 	0.66600 0.69950 0.50580 -0.15100
H 	H 	0.63470 0.68560 0.50470 0.06300
H 	H 	0.71740 0.69460 0.50520 0.06100
C 	C 	0.64800 0.71740 0.48280 0.06400
H 	H 	0.63410 0.73270 0.49040 -0.00500
H 	H 	0.61010 0.71150 0.47040 -0.00600
C 	C 	0.72300 0.71870 0.46800 -0.41800
H 	H 	0.72980 0.73430 0.46040 0.13200
H 	H 	0.72440 0.70710 0.45320 0.13300
H 	H 	0.76160 0.71530 0.48120 0.13700
C 	C 	0.82860 0.93595 0.37010 0.36400
C 	C 	0.78460 0.95669 0.35700 -0.07200
C 	C 	0.73640 0.95488 0.33830 -0.04900
H 	H 	0.72400 0.94080 0.32920 0.04800
C 	C 	0.70450 0.97676 0.33330 0.03500
C 	C 	0.73420 0.99519 0.34839 -0.02500
C 	C 	0.71400 0.01933 0.35040 -0.02800
C 	C 	0.75460 0.03920 0.34160 0.03700
C 	C 	0.65990 0.05709 0.36245 -0.13700
C 	C 	0.72370 0.05974 0.34810 -0.02300
H 	H 	0.74370 0.07440 0.34340 0.03900
C 	C 	0.61770 0.07409 0.37470 0.43500
C 	C 	0.65300 0.98110 0.31120 -0.14300
H 	H 	0.63580 0.99730 0.31400 0.06700
H 	H 	0.61120 0.97090 0.31500 0.06000
C 	C 	0.66750 0.97880 0.28053 -0.07500
H 	H 	0.62340 0.98240 0.26980 0.03000
H 	H 	0.68380 0.96290 0.27590 0.03800
C 	C 	0.72710 0.99670 0.27471 -0.05200
H 	H 	0.71310 0.01230 0.28140 0.03800
H 	H 	0.77300 0.99200 0.28350 0.04000
C 	C 	0.73430 0.99660 0.24348 -0.19400
H 	H 	0.74640 0.98080 0.23670 0.07100
H 	H 	0.68880 0.00170 0.23470 0.06700
C 	C 	0.79510 0.01360 0.23740 0.12500
H 	H 	0.78180 0.02960 0.24320 -0.02500
H 	H 	0.83990 0.00900 0.24710 -0.02600
C 	C 	0.80570 0.01250 0.20660 -0.46300
H 	H 	0.84380 0.02340 0.20120 0.14300
H 	H 	0.76040 0.01670 0.19740 0.13900
H 	H 	0.81950 0.99660 0.20130 0.14200
C 	C 	0.82300 0.03680 0.33120 -0.13700
H 	H 	0.83360 0.02010 0.32750 0.06700
H 	H 	0.85920 0.04270 0.34440 0.05900
C 	C 	0.82540 0.05090 0.30460 -0.10500
H 	H 	0.81420 0.06750 0.30800 0.04800
H 	H 	0.79130 0.04460 0.29080 0.05200
C 	C 	0.90450 0.04760 0.29540 0.00600
H 	H 	0.93260 0.06220 0.29760 0.00200
H 	H 	0.92840 0.03500 0.30590 0.01500
C 	C 	0.89600 0.04100 0.26500 -0.24600
H 	H 	0.89720 0.02390 0.26240 0.09600
H 	H 	0.85000 0.04720 0.25740 0.09200
C 	C 	0.81990 0.86496 0.30839 0.27800
C 	C 	0.84170 0.88246 0.28875 -0.07800
C 	C 	0.84040 0.90524 0.29475 -0.04500
H 	H 	0.82730 0.91180 0.31190 0.05400
C 	C 	0.87840 0.90390 0.24802 -0.01900
C 	C 	0.89310 0.90952 0.21923 -0.02500
C 	C 	0.95760 0.90791 0.17494 -0.08600
C 	C 	0.00890 0.90510 0.15050 0.37300
C 	C 	0.88040 0.94515 0.27062 -0.11900
H 	H 	0.89370 0.95040 0.25200 0.05800
H 	H 	0.83600 0.95360 0.27600 0.05700
C 	C 	0.94060 0.95165 0.29014 -0.10400
H 	H 	0.92970 0.94570 0.30870 0.06200
H 	H 	0.98670 0.94460 0.28400 0.06100
C 	C 	0.01560 0.98344 0.30566 -0.21400
H 	H 	0.05520 0.97310 0.29960 0.08100
H 	H 	0.02970 0.99980 0.30180 0.07700
C 	C 	0.07120 0.98650 0.35020 -0.46300
H 	H 	0.06410 0.98510 0.37000 0.12800
H 	H 	0.08450 0.00260 0.34570 0.13800
H 	H 	0.10970 0.97590 0.34430 0.14000
C 	C 	0.73130 0.93020 0.18750 -0.09700
H 	H 	0.74710 0.93080 0.16810 0.04100
H 	H 	0.71610 0.91410 0.19190 0.04800
C 	C 	0.66990 0.94720 0.19240 -0.02700
H 	H 	0.65060 0.95310 0.17490 0.01800
H 	H 	0.68620 0.96050 0.20370 0.01900
C 	C 	0.86340 0.91861 0.26974 0.02100
C 	C 	0.86290 0.92333 0.20225 0.01200
C 	C 	0.90470 0.92365 0.17503 -0.03500
H 	H 	0.89420 0.93380 0.16020 0.03400
C 	C 	0.94690 0.97754 0.29063 -0.01800
H 	H 	0.90480 0.98450 0.30010 0.02800
H 	H 	0.94860 0.98380 0.27170 0.02300
C 	C 	0.00200 0.98030 0.33560 0.13400
H 	H 	0.98850 0.96390 0.33950 -0.02000
H 	H 	0.96220 0.99050 0.34170 -0.02200
C 	C 	0.79210 0.93790 0.20630 -0.11700
H 	H 	0.77600 0.93640 0.22560 0.05600
H 	H 	0.80280 0.95460 0.20290 0.04300
C 	C 	0.61340 0.93290 0.20750 -0.20900
H 	H 	0.63200 0.92760 0.22550 0.07800
H 	H 	0.59920 0.91910 0.19660 0.07300
C 	C 	0.54980 0.94940 0.21110 0.13900
H 	H 	0.54700 0.96050 0.19570 -0.02700
H 	H 	0.50390 0.94060 0.21220 -0.03300
C 	C 	0.56500 0.96210 0.23780 -0.48700
H 	H 	0.52500 0.97300 0.24150 0.13700
H 	H 	0.61000 0.97070 0.23630 0.16100
H 	H 	0.56800 0.95080 0.25270 0.16000
O 	O 	0.53290 0.91075 0.55442 -0.44800
O 	O 	0.52750 0.88237 0.58430 -0.52300
O 	O 	0.75840 0.87259 0.39531 -0.44400
O 	O 	0.69100 0.84580 0.37228 -0.50400
O 	O 	0.68140 0.86274 0.59423 -0.44200
O 	O 	0.73140 0.82811 0.61054 -0.48800
O 	O 	0.89990 0.91465 0.44464 -0.42200
O 	O 	0.90570 0.89015 0.40968 -0.51800
O 	O 	0.43150 0.90491 0.63026 -0.50800
O 	O 	0.50340 0.87728 0.64807 -0.46200
O 	O 	0.34310 0.85877 0.84449 -0.50400
O 	O 	0.33080 0.83337 0.81011 -0.42900
O 	O 	0.54560 0.83653 0.61126 -0.45100
O 	O 	0.60050 0.80906 0.63697 -0.46800
O 	O 	0.32170 0.68128 0.64205 -0.47000
O 	O 	0.39450 0.65393 0.62099 -0.42400
O 	O 	0.81510 0.91599 0.36356 -0.44100
O 	O 	0.87740 0.94223 0.38848 -0.46400
O 	O 	0.55850 0.06729 0.38570 -0.47700
O 	O 	0.63200 0.09475 0.37217 -0.45500
O 	O 	0.80740 0.84335 0.30100 -0.40900
O 	O 	0.79880 0.87040 0.33380 -0.50300
O 	O 	0.05110 0.88906 0.15168 -0.44300
O 	O 	0.98630 0.91761 0.12965 -0.49200
S 	S 	0.57661 0.88344 0.50585 0.01200
S 	S 	0.67751 0.86654 0.44926 0.03100
S 	S 	0.75320 0.85973 0.53889 0.02400
S 	S 	0.85308 0.88142 0.48692 0.01700
S 	S 	0.44588 0.88314 0.70636 0.03300
S 	S 	0.36575 0.86460 0.76448 0.01400
S 	S 	0.53090 0.76891 0.61863 0.01900
S 	S 	0.39575 0.72233 0.61952 0.00200
S 	S 	0.80228 0.98371 0.36925 -0.00200
S 	S 	0.63973 0.02713 0.36716 0.01400
S 	S 	0.86370 0.87452 0.25682 0.01300
S 	S 	0.96699 0.89387 0.20470 0.03100
Mn	Mn	0.47108 0.91672 0.59330 1.23800
Mn	Mn	0.59034 0.87034 0.62038 1.31900
Mn	Mn	0.70169 0.82154 0.64904 1.24600
Mn	Mn	0.96390 0.92528 0.40701 1.23800
Mn	Mn	0.85257 0.88069 0.37141 1.31800
Mn	Mn	0.74126 0.83510 0.33763 1.24700
H 	H 	0.47750 0.83140 0.46870 0.04000
H 	H 	0.51570 0.80900 0.45510 -0.17400
C 	C 	0.45180 0.82770 0.42660 -0.26000
H 	H 	0.47250 0.81970 0.41040 0.06400
H 	H 	0.44230 0.84420 0.42200 0.11300
C 	C 	0.38220 0.81530 0.43690 0.80600
H 	H 	0.38630 0.79810 0.43540 -0.74200
H 	H 	0.37100 0.81950 0.45610 -0.06000
C 	C 	0.32490 0.82520 0.41680 -0.63900
H 	H 	0.34630 0.82860 0.39870 0.19200
H 	H 	0.30210 0.83950 0.42420 0.19700
C 	C 	0.27020 0.80470 0.41530 0.33900
H 	H 	0.22730 0.80760 0.42690 -0.08800
H 	H 	0.29270 0.78970 0.42070 -0.09000
C 	C 	0.25100 0.80510 0.38420 -0.60600
H 	H 	0.21030 0.79450 0.38080 0.18400
H 	H 	0.29260 0.80010 0.37350 0.18000
H 	H 	0.23690 0.82100 0.37890 0.18600
H 	H 	0.95250 0.05590 0.23190 -0.03400
H 	H 	0.00530 0.04310 0.25340 -0.05200
H 	H 	0.00490 0.08580 0.25860 0.14600
H 	H 	0.98520 0.07240 0.28630 0.16800
H 	H 	0.92250 0.08380 0.26820 0.16200
C 	C 	0.96100 0.05280 0.25150 0.20000
C 	C 	0.96900 0.07580 0.26760 -0.51100
C 	C 	0.07500 0.71760 0.95590 -1.71200
H 	H 	0.10020 0.71290 0.93920 0.98600
H 	H 	0.02840 0.70930 0.95690 0.54200
H 	H 	0.10400 0.71370 0.97190 0.55500
C 	C 	0.14300 0.65880 0.98230 -0.08500
H 	H 	0.10370 0.64730 0.98330 0.04300
H 	H 	0.18780 0.65110 0.97560 0.03400
C 	C 	0.15600 0.67120 0.01050 0.02400
H 	H 	0.12400 0.68490 0.01270 0.00500
H 	H 	0.20680 0.67590 0.01290 0.00300
C 	C 	0.13400 0.65090 0.03040 -0.37900
H 	H 	0.17790 0.64430 0.03880 0.11200
H 	H 	0.10920 0.63860 0.02010 0.12100
H 	H 	0.10230 0.65690 0.04470 0.12800
C 	C 	0.66070 0.64721 0.99342 -0.01700
C 	C 	0.65650 0.66055 0.96969 0.01800
C 	C 	0.64180 0.64683 0.94760 -0.02900
H 	H 	0.63820 0.65300 0.92960 0.04900
C 	C 	0.63290 0.62448 0.95272 -0.09400
C 	C 	0.96230 0.60942 0.05973 0.33000
C 	C 	0.93590 0.62705 0.03779 -0.07300
C 	C 	0.93220 0.65011 0.04009 -0.05300
H 	H 	0.94000 0.65840 0.05670 0.05500
C 	C 	0.91450 0.66138 0.01370 0.04200
C 	C 	0.91060 0.64449 0.99403 -0.03800
C 	C 	0.89540 0.64771 0.96437 0.01400
C 	C 	0.93170 0.65970 0.94500 -0.08300
C 	C 	0.89330 0.65992 0.91977 0.03000
H 	H 	0.90770 0.66950 0.90490 0.00900
C 	C 	0.83780 0.64633 0.91811 -0.12500
C 	C 	0.78990 0.64202 0.89377 0.39000
C 	C 	0.90580 0.68684 0.01160 -0.13300
H 	H 	0.89440 0.69110 0.99240 0.06200
H 	H 	0.95170 0.69460 0.01660 0.06000
C 	C 	0.84580 0.69550 0.03030 -0.09800
H 	H 	0.79860 0.68880 0.02480 0.05900
H 	H 	0.85560 0.69120 0.04960 0.06100
C 	C 	0.84620 0.72178 0.02660 -0.02200
H 	H 	0.89190 0.72860 0.03350 0.02500
H 	H 	0.84050 0.72600 0.00710 0.02200
C 	C 	0.78260 0.73045 0.04323 -0.21300
H 	H 	0.77120 0.74680 0.03850 0.08200
H 	H 	0.73930 0.72070 0.03980 0.08700
C 	C 	0.80550 0.72860 0.07260 0.13100
H 	H 	0.84480 0.73980 0.07660 -0.01900
H 	H 	0.82300 0.71260 0.07670 -0.01200
C 	C 	0.73940 0.73410 0.08950 -0.46000
H 	H 	0.75110 0.73270 0.10900 0.12300
H 	H 	0.70070 0.72320 0.08490 0.14600
H 	H 	0.72350 0.75010 0.08550 0.14700
C 	C 	0.99820 0.67460 0.95200 0.15200
H 	H 	0.00050 0.67570 0.97220 -0.03700
H 	H 	0.98850 0.69050 0.94510 0.08200
C 	C 	0.07500 0.66760 0.94190 -0.39700
H 	H 	0.08480 0.67370 0.92330 0.07200
H 	H 	0.08220 0.65050 0.94220 0.12300
C 	C 	0.12240 0.68020 0.96400 -0.14300
H 	H 	0.16550 0.68770 0.95580 -0.01000
H 	H 	0.09440 0.69190 0.97440 0.03100
C 	C 	0.78290 0.65410 0.09220 0.34900
C 	C 	0.72680 0.65712 0.06649 -0.06000
C 	C 	0.67740 0.67270 0.06331 -0.06000
H 	H 	0.66520 0.68400 0.07670 0.03800
C 	C 	0.64300 0.67070 0.03715 0.04300
C 	C 	0.67810 0.65390 0.02148 -0.03400
C 	C 	0.60910 0.60563 0.93552 0.31900
C 	C 	0.58250 0.68560 0.02890 -0.16700
H 	H 	0.57270 0.68330 0.00910 0.07100
H 	H 	0.59590 0.70210 0.03170 0.06500
C 	C 	0.51430 0.68030 0.04510 -0.03800
H 	H 	0.47620 0.69200 0.04120 0.02800
H 	H 	0.52430 0.68030 0.06500 0.01500
C 	C 	0.49160 0.65620 0.03540 -0.07300
H 	H 	0.47110 0.65690 0.01670 0.03900
H 	H 	0.53330 0.64540 0.03540 0.04900
C 	C 	0.43470 0.64840 0.05600 -0.16400
H 	H 	0.40220 0.63650 0.04780 0.05500
H 	H 	0.45760 0.64170 0.07260 0.06100
C 	C 	0.39350 0.67050 0.06290 0.10100
H 	H 	0.34270 0.66700 0.06770 -0.02200
H 	H 	0.39410 0.68160 0.04730 -0.01100
C 	C 	0.43400 0.68060 0.08740 -0.44600
H 	H 	0.40300 0.69190 0.09680 0.13400
H 	H 	0.47800 0.68830 0.08110 0.14500
H 	H 	0.44640 0.66800 0.10010 0.13700
C 	C 	0.67890 0.68675 0.96695 -0.12000
H 	H 	0.63620 0.69580 0.96090 0.05900
H 	H 	0.69290 0.69260 0.98530 0.05900
C 	C 	0.74050 0.69152 0.94714 -0.09900
H 	H 	0.78610 0.68470 0.95400 0.05900
H 	H 	0.72990 0.68480 0.92890 0.05900
C 	C 	0.74650 0.71761 0.94540 -0.02400
H 	H 	0.73690 0.72490 0.96340 0.02300
H 	H 	0.71200 0.72400 0.93180 0.03200
C 	C 	0.82350 0.72190 0.93650 -0.21900
H 	H 	0.84660 0.73380 0.94830 0.07900
H 	H 	0.85210 0.70740 0.93750 0.08300
C 	C 	0.81820 0.73050 0.90740 0.14700
H 	H 	0.77390 0.72460 0.89840 -0.02600
H 	H 	0.86070 0.72550 0.89650 -0.03900
C 	C 	0.81600 0.75690 0.91020 -0.48700
H 	H 	0.80800 0.76400 0.89220 0.14900
H 	H 	0.86170 0.76250 0.91780 0.15400
H 	H 	0.77620 0.76130 0.92250 0.15300
C 	C 	0.04410 0.60850 0.14920 0.40600
C 	C 	0.15450 0.58669 0.20916 0.02600
C 	C 	0.07750 0.60315 0.17797 -0.09400
C 	C 	0.12720 0.58640 0.18260 -0.03900
H 	H 	0.14200 0.57550 0.16910 0.03600
C 	C 	0.11930 0.60165 0.22595 -0.02900
C 	C 	0.11890 0.60703 0.25453 -0.02200
C 	C 	0.12090 0.59300 0.27697 0.03000
C 	C 	0.12850 0.60434 0.30271 -0.05100
H 	H 	0.12830 0.59700 0.32020 0.05800
C 	C 	0.13620 0.62769 0.29787 -0.07300
C 	C 	0.15220 0.64611 0.31855 0.30100
C 	C 	0.22010 0.57330 0.22000 -0.14400
H 	H 	0.20750 0.55650 0.22040 0.05600
H 	H 	0.22880 0.57820 0.23910 0.06500
C 	C 	0.29160 0.57600 0.20390 -0.06200
H 	H 	0.28280 0.57770 0.18400 0.03400
H 	H 	0.32430 0.56260 0.20710 0.02800
C 	C 	0.32310 0.59890 0.21640 -0.08000
H 	H 	0.35950 0.59560 0.23070 0.03200
H 	H 	0.28460 0.60900 0.22400 0.04900
C 	C 	0.35820 0.60990 0.19010 -0.13900
H 	H 	0.35510 0.59930 0.17420 0.05400
H 	H 	0.40920 0.61430 0.19330 0.04900
C 	C 	0.30900 0.63190 0.18650 0.04200
H 	H 	0.25960 0.62920 0.19410 0.01400
H 	H 	0.32990 0.64590 0.19510 -0.00100
C 	C 	0.30700 0.63390 0.15450 -0.38800
H 	H 	0.27390 0.64640 0.14910 0.12600
H 	H 	0.29060 0.61910 0.14660 0.12400
H 	H 	0.35570 0.63750 0.14780 0.11900
C 	C 	0.10880 0.56630 0.27670 -0.12600
H 	H 	0.10560 0.56080 0.25750 0.05900
H 	H 	0.15060 0.55850 0.28540 0.05900
C 	C 	0.03970 0.55962 0.29190 -0.09400
H 	H 	0.04100 0.56540 0.31100 0.06100
H 	H 	0.99670 0.56620 0.28260 0.05800
C 	C 	0.03820 0.53329 0.29130 -0.03400
H 	H 	0.04960 0.52750 0.27270 0.02600
H 	H 	0.07390 0.52680 0.30430 0.03300
C 	C 	0.96300 0.52630 0.29940 -0.18600
H 	H 	0.95520 0.50950 0.29560 0.06800
H 	H 	0.92690 0.53540 0.28890 0.07100
C 	C 	0.95580 0.53120 0.32960 0.09700
H 	H 	0.94960 0.54810 0.33300 -0.00900
H 	H 	0.99880 0.52560 0.33980 -0.00700
C 	C 	0.88850 0.51770 0.33810 -0.43400
H 	H 	0.87790 0.52070 0.35740 0.12200
H 	H 	0.89690 0.50100 0.33540 0.13600
H 	H 	0.84750 0.52260 0.32680 0.13100
C 	C 	0.94770 0.68387 0.11920 0.40800
C 	C 	0.97140 0.70369 0.10740 -0.14000
C 	C 	0.02050 0.70290 0.08730 -0.00800
H 	H 	0.03240 0.68830 0.07930 0.03200
C 	C 	0.06170 0.72700 0.07570 -0.00400
C 	C 	0.02550 0.74272 0.09580 -0.01700
C 	C 	0.03900 0.76778 0.09580 -0.03100
C 	C 	0.00820 0.78530 0.08460 0.03100
C 	C 	0.03120 0.80799 0.09270 -0.04800
H 	H 	0.01240 0.82220 0.08570 0.04800
C 	C 	0.08390 0.80618 0.11172 -0.07600
C 	C 	0.12630 0.82558 0.12510 0.34500
C 	C 	0.10410 0.72700 0.04910 -0.08000
H 	H 	0.10900 0.71110 0.04140 0.04000
H 	H 	0.15250 0.73410 0.05140 0.03600
C 	C 	0.05350 0.74250 0.03160 -0.17500
H 	H 	0.05170 0.75870 0.03860 0.07900
H 	H 	0.00390 0.73610 0.03080 0.07500
C 	C 	0.09140 0.74140 0.00290 0.12600
H 	H 	0.11000 0.72560 0.99880 -0.06200
H 	H 	0.13110 0.75290 0.00130 -0.01900
C 	C 	0.02570 0.74800 0.98410 -0.48000
H 	H 	0.98420 0.73730 0.98690 0.16100
H 	H 	0.00990 0.76430 0.98700 0.15700
C 	C 	0.06070 0.74450 0.95520 0.70700
H 	H 	0.10620 0.75340 0.95340 -0.20100
H 	H 	0.02720 0.74890 0.94030 -0.20800
C 	C 	0.94110 0.78450 0.06650 -0.14400
H 	H 	0.90500 0.79420 0.07620 0.06400
H 	H 	0.92350 0.76820 0.06810 0.06800
C 	C 	0.93200 0.79070 0.03580 -0.06800
H 	H 	0.96220 0.78070 0.02400 0.03600
H 	H 	0.94380 0.80730 0.03230 0.04000
C 	C 	0.85020 0.78580 0.03170 -0.07500
H 	H 	0.84100 0.76900 0.02850 0.04100
H 	H 	0.82130 0.79110 0.04760 0.04400
C 	C 	0.83400 0.80050 0.00580 -0.15100
H 	H 	0.86530 0.81440 0.00470 0.06300
H 	H 	0.78260 0.80540 0.00520 0.06100
C 	C 	0.85200 0.78260 0.98280 0.06500
H 	H 	0.86590 0.76730 0.99040 -0.00500
H 	H 	0.88990 0.78850 0.97040 -0.00600
C 	C 	0.77700 0.78130 0.96800 -0.41800
H 	H 	0.77020 0.76570 0.96040 0.13200
H 	H 	0.77560 0.79290 0.95320 0.13300
H 	H 	0.73840 0.78470 0.98120 0.13700
C 	C 	0.67140 0.56405 0.87010 0.36400
C 	C 	0.71540 0.54331 0.85700 -0.07200
C 	C 	0.76360 0.54512 0.83830 -0.04900
H 	H 	0.77600 0.55920 0.82920 0.04800
C 	C 	0.79550 0.52324 0.83330 0.03600
C 	C 	0.76580 0.50481 0.84839 -0.02500
C 	C 	0.78600 0.48067 0.85040 -0.02800
C 	C 	0.74540 0.46080 0.84160 0.03700
C 	C 	0.84010 0.44291 0.86245 -0.13700
C 	C 	0.77630 0.44026 0.84810 -0.02300
H 	H 	0.75630 0.42560 0.84340 0.04000
C 	C 	0.88230 0.42591 0.87470 0.43500
C 	C 	0.84700 0.51890 0.81120 -0.14300
H 	H 	0.86420 0.50270 0.81400 0.06700
H 	H 	0.88880 0.52910 0.81500 0.06100
C 	C 	0.83250 0.52120 0.78053 -0.07500
H 	H 	0.87660 0.51760 0.76980 0.03000
H 	H 	0.81620 0.53710 0.77590 0.03800
C 	C 	0.77290 0.50330 0.77471 -0.05200
H 	H 	0.78690 0.48770 0.78140 0.03800
H 	H 	0.72700 0.50800 0.78350 0.04000
C 	C 	0.76570 0.50340 0.74348 -0.19400
H 	H 	0.75360 0.51920 0.73670 0.07100
H 	H 	0.81120 0.49830 0.73470 0.06700
C 	C 	0.70490 0.48640 0.73740 0.12500
H 	H 	0.71820 0.47040 0.74320 -0.02500
H 	H 	0.66010 0.49100 0.74710 -0.02600
C 	C 	0.69430 0.48750 0.70660 -0.46300
H 	H 	0.65620 0.47660 0.70120 0.14300
H 	H 	0.73960 0.48330 0.69740 0.13900
H 	H 	0.68050 0.50340 0.70130 0.14200
C 	C 	0.67700 0.46320 0.83120 -0.13700
H 	H 	0.66640 0.47990 0.82750 0.06700
H 	H 	0.64080 0.45730 0.84440 0.06000
C 	C 	0.67460 0.44910 0.80460 -0.10500
H 	H 	0.68580 0.43250 0.80800 0.04800
H 	H 	0.70870 0.45540 0.79080 0.05200
C 	C 	0.59550 0.45240 0.79540 0.00600
H 	H 	0.56740 0.43780 0.79760 0.00200
H 	H 	0.57160 0.46500 0.80590 0.01600
C 	C 	0.60400 0.45900 0.76500 -0.24600
H 	H 	0.60280 0.47610 0.76240 0.09600
H 	H 	0.65000 0.45280 0.75740 0.09200
C 	C 	0.68010 0.63504 0.80839 0.27800
C 	C 	0.65830 0.61754 0.78875 -0.07800
C 	C 	0.65960 0.59476 0.79475 -0.04500
H 	H 	0.67270 0.58820 0.81190 0.05400
C 	C 	0.62160 0.59610 0.74802 -0.01900
C 	C 	0.60690 0.59048 0.71923 -0.02500
C 	C 	0.54240 0.59209 0.67494 -0.08700
C 	C 	0.49110 0.59490 0.65050 0.37500
C 	C 	0.61960 0.55485 0.77062 -0.12000
H 	H 	0.60630 0.54960 0.75200 0.05800
H 	H 	0.66400 0.54640 0.77600 0.05800
C 	C 	0.55940 0.54835 0.79014 -0.10300
H 	H 	0.57030 0.55430 0.80870 0.06100
H 	H 	0.51330 0.55540 0.78400 0.06100
C 	C 	0.48440 0.51656 0.80566 -0.21100
H 	H 	0.44480 0.52690 0.79960 0.08000
H 	H 	0.47030 0.50020 0.80180 0.07600
C 	C 	0.42880 0.51350 0.85020 -0.45600
H 	H 	0.43590 0.51490 0.87000 0.12500
H 	H 	0.41550 0.49740 0.84570 0.13600
H 	H 	0.39030 0.52410 0.84430 0.13800
C 	C 	0.76870 0.56980 0.68750 -0.09700
H 	H 	0.75290 0.56920 0.66810 0.04100
H 	H 	0.78390 0.58590 0.69190 0.04800
C 	C 	0.83010 0.55280 0.69240 -0.02600
H 	H 	0.84940 0.54690 0.67490 0.01800
H 	H 	0.81380 0.53950 0.70370 0.01900
C 	C 	0.63660 0.58139 0.76974 0.02100
C 	C 	0.63710 0.57667 0.70225 0.01100
C 	C 	0.59530 0.57635 0.67503 -0.03500
H 	H 	0.60580 0.56620 0.66020 0.03400
C 	C 	0.55310 0.52246 0.79063 -0.02000
H 	H 	0.59520 0.51550 0.80010 0.02800
H 	H 	0.55140 0.51620 0.77170 0.02400
C 	C 	0.49800 0.51970 0.83560 0.12700
H 	H 	0.51150 0.53610 0.83950 -0.01800
H 	H 	0.53780 0.50950 0.84170 -0.02000
C 	C 	0.70790 0.56210 0.70630 -0.11700
H 	H 	0.72400 0.56360 0.72560 0.05600
H 	H 	0.69720 0.54540 0.70290 0.04300
C 	C 	0.88660 0.56710 0.70750 -0.20900
H 	H 	0.86800 0.57240 0.72550 0.07800
H 	H 	0.90080 0.58090 0.69660 0.07300
C 	C 	0.95020 0.55060 0.71110 0.14000
H 	H 	0.95300 0.53950 0.69570 -0.02800
H 	H 	0.99610 0.55940 0.71220 -0.03300
C 	C 	0.93500 0.53790 0.73780 -0.48700
H 	H 	0.97500 0.52700 0.74150 0.13700
H 	H 	0.89000 0.52930 0.73630 0.16100
H 	H 	0.93200 0.54920 0.75270 0.16100
O 	O 	0.96710 0.58925 0.05442 -0.44700
O 	O 	0.97250 0.61763 0.08430 -0.52200
O 	O 	0.74160 0.62741 0.89531 -0.44400
O 	O 	0.80900 0.65420 0.87228 -0.50400
O 	O 	0.81860 0.63726 0.09423 -0.44200
O 	O 	0.76860 0.67189 0.11054 -0.48800
O 	O 	0.60010 0.58535 0.94464 -0.42200
O 	O 	0.59430 0.60985 0.90968 -0.51800
O 	O 	0.06850 0.59509 0.13026 -0.50800
O 	O 	0.99660 0.62272 0.14807 -0.46100
O 	O 	0.15690 0.64123 0.34449 -0.50400
O 	O 	0.16920 0.66663 0.31011 -0.42900
O 	O 	0.95440 0.66347 0.11126 -0.45100
O 	O 	0.89950 0.69094 0.13697 -0.46700
O 	O 	0.17830 0.81872 0.14205 -0.47000
O 	O 	0.10550 0.84607 0.12099 -0.42400
O 	O 	0.68490 0.58401 0.86356 -0.44100
O 	O 	0.62260 0.55777 0.88848 -0.46300
O 	O 	0.94150 0.43271 0.88570 -0.47700
O 	O 	0.86800 0.40525 0.87217 -0.45500
O 	O 	0.69260 0.65665 0.80100 -0.40900
O 	O 	0.70120 0.62960 0.83380 -0.50300
O 	O 	0.44890 0.61094 0.65168 -0.44300
O 	O 	0.51370 0.58239 0.62965 -0.49300
S 	S 	0.92339 0.61656 0.00585 0.01300
S 	S 	0.82249 0.63346 0.94926 0.03100
S 	S 	0.74680 0.64027 0.03889 0.02400
S 	S 	0.64692 0.61858 0.98692 0.01700
S 	S 	0.05412 0.61686 0.20636 0.03200
S 	S 	0.13425 0.63540 0.26448 0.01400
S 	S 	0.96910 0.73109 0.11863 0.02100
S 	S 	0.10425 0.77767 0.11952 0.00100
S 	S 	0.69772 0.51629 0.86925 -0.00200
S 	S 	0.86027 0.47287 0.86716 0.01500
S 	S 	0.63630 0.62548 0.75682 0.01300
S 	S 	0.53301 0.60613 0.70470 0.03100
Mn	Mn	0.02892 0.58328 0.09330 1.23700
Mn	Mn	0.90966 0.62966 0.12038 1.31900
Mn	Mn	0.79831 0.67846 0.14904 1.24600
Mn	Mn	0.53610 0.57472 0.90701 1.23900
Mn	Mn	0.64743 0.61931 0.87141 1.31800
Mn	Mn	0.75874 0.66490 0.83763 1.24800
H 	H 	0.02250 0.66860 0.96870 0.03900
H 	H 	0.98430 0.69100 0.95510 -0.17400
C 	C 	0.04820 0.67230 0.92660 -0.26200
H 	H 	0.02750 0.68030 0.91040 0.06400
H 	H 	0.05770 0.65580 0.92200 0.11300
C 	C 	0.11780 0.68470 0.93690 0.81600
H 	H 	0.11370 0.70190 0.93540 -0.74900
H 	H 	0.12900 0.68050 0.95610 -0.05900
C 	C 	0.17510 0.67480 0.91680 -0.64400
H 	H 	0.15370 0.67140 0.89870 0.19300
H 	H 	0.19790 0.66050 0.92420 0.19800
C 	C 	0.22980 0.69530 0.91530 0.34100
H 	H 	0.27270 0.69240 0.92690 -0.08800
H 	H 	0.20730 0.71030 0.92070 -0.09100
C 	C 	0.24900 0.69490 0.88420 -0.60700
H 	H 	0.28970 0.70550 0.88080 0.18400
H 	H 	0.20740 0.69990 0.87350 0.18000
H 	H 	0.26310 0.67900 0.87890 0.18600
H 	H 	0.54750 0.44410 0.73190 -0.03400
H 	H 	0.49470 0.45690 0.75340 -0.05200
H 	H 	0.49510 0.41420 0.75860 0.14600
H 	H 	0.51480 0.42760 0.78630 0.16800
H 	H 	0.57750 0.41620 0.76820 0.16200
C 	C 	0.53900 0.44720 0.75150 0.20000
C 	C 	0.53100 0.42420 0.76760 -0.51100
C 	C 	0.57500 0.21760 0.95590 -1.69800
H 	H 	0.60020 0.21290 0.93920 0.97700
H 	H 	0.52840 0.20930 0.95690 0.53800
H 	H 	0.60400 0.21370 0.97190 0.55100
C 	C 	0.64300 0.15880 0.98230 -0.08700
H 	H 	0.60370 0.14730 0.98330 0.04400
H 	H 	0.68780 0.15110 0.97560 0.03400
C 	C 	0.65600 0.17120 0.01050 0.02600
H 	H 	0.62400 0.18490 0.01270 0.00400
H 	H 	0.70680 0.17590 0.01290 0.00200
C 	C 	0.63400 0.15090 0.03040 -0.38100
H 	H 	0.67790 0.14430 0.03880 0.11200
H 	H 	0.60920 0.13860 0.02010 0.12200
H 	H 	0.60230 0.15690 0.04470 0.12900
C 	C 	0.16070 0.14721 0.99342 -0.01800
C 	C 	0.15650 0.16055 0.96969 0.01800
C 	C 	0.14180 0.14683 0.94760 -0.02900
H 	H 	0.13820 0.15300 0.92960 0.04900
C 	C 	0.13290 0.12448 0.95272 -0.09400
C 	C 	0.46230 0.10942 0.05973 0.33000
C 	C 	0.43590 0.12705 0.03779 -0.07300
C 	C 	0.43220 0.15011 0.04009 -0.05300
H 	H 	0.44000 0.15840 0.05670 0.05500
C 	C 	0.41450 0.16138 0.01370 0.04100
C 	C 	0.41060 0.14449 0.99403 -0.03700
C 	C 	0.39540 0.14771 0.96437 0.01200
C 	C 	0.43170 0.15970 0.94500 -0.08000
C 	C 	0.39330 0.15992 0.91977 0.02800
H 	H 	0.40770 0.16950 0.90490 0.00900
C 	C 	0.33780 0.14633 0.91811 -0.12400
C 	C 	0.28990 0.14202 0.89377 0.39000
C 	C 	0.40580 0.18684 0.01160 -0.13200
H 	H 	0.39440 0.19110 0.99240 0.06100
H 	H 	0.45170 0.19460 0.01660 0.05900
C 	C 	0.34580 0.19550 0.03030 -0.09900
H 	H 	0.29860 0.18880 0.02480 0.06000
H 	H 	0.35560 0.19120 0.04960 0.06200
C 	C 	0.34620 0.22178 0.02660 -0.02100
H 	H 	0.39190 0.22860 0.03350 0.02400
H 	H 	0.34050 0.22600 0.00710 0.02200
C 	C 	0.28260 0.23045 0.04323 -0.21400
H 	H 	0.27120 0.24680 0.03850 0.08200
H 	H 	0.23930 0.22070 0.03980 0.08700
C 	C 	0.30550 0.22860 0.07260 0.13100
H 	H 	0.34480 0.23980 0.07660 -0.01900
H 	H 	0.32300 0.21260 0.07670 -0.01300
C 	C 	0.23940 0.23410 0.08950 -0.46000
H 	H 	0.25110 0.23270 0.10900 0.12300
H 	H 	0.20070 0.22320 0.08490 0.14600
H 	H 	0.22350 0.25010 0.08550 0.14700
C 	C 	0.49820 0.17460 0.95200 0.14200
H 	H 	0.50050 0.17570 0.97220 -0.03300
H 	H 	0.48850 0.19050 0.94510 0.08500
C 	C 	0.57500 0.16760 0.94190 -0.39000
H 	H 	0.58480 0.17370 0.92330 0.07100
H 	H 	0.58220 0.15050 0.94220 0.12100
C 	C 	0.62240 0.18020 0.96400 -0.14000
H 	H 	0.66550 0.18770 0.95580 -0.01000
H 	H 	0.59440 0.19190 0.97440 0.03100
C 	C 	0.28290 0.15410 0.09220 0.34900
C 	C 	0.22680 0.15712 0.06649 -0.06100
C 	C 	0.17740 0.17270 0.06331 -0.05900
H 	H 	0.16520 0.18400 0.07670 0.03800
C 	C 	0.14300 0.17070 0.03715 0.04100
C 	C 	0.17810 0.15390 0.02148 -0.03300
C 	C 	0.10910 0.10563 0.93552 0.31900
C 	C 	0.08250 0.18560 0.02890 -0.16100
H 	H 	0.07270 0.18330 0.00910 0.06900
H 	H 	0.09590 0.20210 0.03170 0.06300
C 	C 	0.01430 0.18030 0.04510 -0.04900
H 	H 	0.97620 0.19200 0.04120 0.03200
H 	H 	0.02430 0.18030 0.06500 0.01800
C 	C 	0.99160 0.15620 0.03540 -0.06000
H 	H 	0.97110 0.15690 0.01670 0.03600
H 	H 	0.03330 0.14540 0.03540 0.04400
C 	C 	0.93470 0.14840 0.05600 -0.17100
H 	H 	0.90220 0.13650 0.04780 0.05700
H 	H 	0.95760 0.14170 0.07260 0.06300
C 	C 	0.89350 0.17050 0.06290 0.10600
H 	H 	0.84270 0.16700 0.06770 -0.02400
H 	H 	0.89410 0.18160 0.04730 -0.01200
C 	C 	0.93400 0.18060 0.08740 -0.45100
H 	H 	0.90300 0.19190 0.09680 0.13500
H 	H 	0.97800 0.18830 0.08110 0.14600
H 	H 	0.94640 0.16800 0.10010 0.13800
C 	C 	0.17890 0.18675 0.96695 -0.12000
H 	H 	0.13620 0.19580 0.96090 0.05900
H 	H 	0.19290 0.19260 0.98530 0.05900
C 	C 	0.24050 0.19152 0.94714 -0.09900
H 	H 	0.28610 0.18470 0.95400 0.05900
H 	H 	0.22990 0.18480 0.92890 0.05900
C 	C 	0.24650 0.21761 0.94540 -0.02400
H 	H 	0.23690 0.22490 0.96340 0.02300
H 	H 	0.21200 0.22400 0.93180 0.03200
C 	C 	0.32350 0.22190 0.93650 -0.21900
H 	H 	0.34660 0.23380 0.94830 0.07900
H 	H 	0.35210 0.20740 0.93750 0.08300
C 	C 	0.31820 0.23050 0.90740 0.14700
H 	H 	0.27390 0.22460 0.89840 -0.02600
H 	H 	0.36070 0.22550 0.89650 -0.03900
C 	C 	0.31600 0.25690 0.91020 -0.48700
H 	H 	0.30800 0.26400 0.89220 0.14900
H 	H 	0.36170 0.26250 0.91780 0.15400
H 	H 	0.27620 0.26130 0.92250 0.15300
C 	C 	0.54410 0.10850 0.14920 0.40800
C 	C 	0.65450 0.08669 0.20916 0.02600
C 	C 	0.57750 0.10315 0.17797 -0.09400
C 	C 	0.62720 0.08640 0.18260 -0.03900
H 	H 	0.64200 0.07550 0.16910 0.03600
C 	C 	0.61930 0.10165 0.22595 -0.02900
C 	C 	0.61890 0.10703 0.25453 -0.02200
C 	C 	0.62090 0.09300 0.27697 0.03000
C 	C 	0.62850 0.10434 0.30271 -0.05100
H 	H 	0.62830 0.09700 0.32020 0.05700
C 	C 	0.63620 0.12769 0.29787 -0.07400
C 	C 	0.65220 0.14611 0.31855 0.30100
C 	C 	0.72010 0.07330 0.22000 -0.14300
H 	H 	0.70750 0.05650 0.22040 0.05600
H 	H 	0.72880 0.07820 0.23910 0.06500
C 	C 	0.79160 0.07600 0.20390 -0.06200
H 	H 	0.78280 0.07770 0.18400 0.03400
H 	H 	0.82430 0.06260 0.20710 0.02800
C 	C 	0.82310 0.09890 0.21640 -0.08000
H 	H 	0.85950 0.09560 0.23070 0.03200
H 	H 	0.78460 0.10900 0.22400 0.04900
C 	C 	0.85820 0.10990 0.19010 -0.13900
H 	H 	0.85510 0.09930 0.17420 0.05500
H 	H 	0.90920 0.11430 0.19330 0.05000
C 	C 	0.80900 0.13190 0.18650 0.04200
H 	H 	0.75960 0.12920 0.19410 0.01400
H 	H 	0.82990 0.14590 0.19510 -0.00100
C 	C 	0.80700 0.13390 0.15450 -0.38900
H 	H 	0.77390 0.14640 0.14910 0.12600
H 	H 	0.79060 0.11910 0.14660 0.12400
H 	H 	0.85570 0.13750 0.14780 0.11900
C 	C 	0.60880 0.06630 0.27670 -0.12600
H 	H 	0.60560 0.06080 0.25750 0.05900
H 	H 	0.65060 0.05850 0.28540 0.05900
C 	C 	0.53970 0.05962 0.29190 -0.09400
H 	H 	0.54100 0.06540 0.31100 0.06100
H 	H 	0.49670 0.06620 0.28260 0.05900
C 	C 	0.53820 0.03329 0.29130 -0.03500
H 	H 	0.54960 0.02750 0.27270 0.02600
H 	H 	0.57390 0.02680 0.30430 0.03300
C 	C 	0.46300 0.02630 0.29940 -0.18400
H 	H 	0.45520 0.00950 0.29560 0.06800
H 	H 	0.42690 0.03540 0.28890 0.07100
C 	C 	0.45580 0.03120 0.32960 0.09600
H 	H 	0.44960 0.04810 0.33300 -0.00900
H 	H 	0.49880 0.02560 0.33980 -0.00700
C 	C 	0.38850 0.01770 0.33810 -0.43400
H 	H 	0.37790 0.02070 0.35740 0.12200
H 	H 	0.39690 0.00100 0.33540 0.13600
H 	H 	0.34750 0.02260 0.32680 0.13100
C 	C 	0.44770 0.18387 0.11920 0.40900
C 	C 	0.47140 0.20369 0.10740 -0.14200
C 	C 	0.52050 0.20290 0.08730 -0.00600
H 	H 	0.53240 0.18830 0.07930 0.03200
C 	C 	0.56170 0.22700 0.07570 -0.00500
C 	C 	0.52550 0.24272 0.09580 -0.01500
C 	C 	0.53900 0.26778 0.09580 -0.03200
C 	C 	0.50820 0.28530 0.08460 0.03400
C 	C 	0.53120 0.30799 0.09270 -0.04900
H 	H 	0.51240 0.32220 0.08570 0.04800
C 	C 	0.58390 0.30618 0.11172 -0.07600
C 	C 	0.62630 0.32558 0.12510 0.34400
C 	C 	0.60410 0.22700 0.04910 -0.08000
H 	H 	0.60900 0.21110 0.04140 0.04000
H 	H 	0.65250 0.23410 0.05140 0.03600
C 	C 	0.55350 0.24250 0.03160 -0.17400
H 	H 	0.55170 0.25870 0.03860 0.07900
H 	H 	0.50390 0.23610 0.03080 0.07600
C 	C 	0.59140 0.24140 0.00290 0.12300
H 	H 	0.61000 0.22560 0.99880 -0.06000
H 	H 	0.63110 0.25290 0.00130 -0.01800
C 	C 	0.52570 0.24800 0.98410 -0.47300
H 	H 	0.48420 0.23730 0.98690 0.15700
H 	H 	0.50990 0.26430 0.98700 0.15600
C 	C 	0.56070 0.24450 0.95520 0.70000
H 	H 	0.60620 0.25340 0.95340 -0.19900
H 	H 	0.52720 0.24890 0.94030 -0.20500
C 	C 	0.44110 0.28450 0.06650 -0.14700
H 	H 	0.40500 0.29420 0.07620 0.06400
H 	H 	0.42350 0.26820 0.06810 0.06800
C 	C 	0.43200 0.29070 0.03580 -0.06600
H 	H 	0.46220 0.28070 0.02400 0.03500
H 	H 	0.44380 0.30730 0.03230 0.03900
C 	C 	0.35020 0.28580 0.03170 -0.07600
H 	H 	0.34100 0.26900 0.02850 0.04100
H 	H 	0.32130 0.29110 0.04760 0.04500
C 	C 	0.33400 0.30050 0.00580 -0.15100
H 	H 	0.36530 0.31440 0.00470 0.06300
H 	H 	0.28260 0.30540 0.00520 0.06100
C 	C 	0.35200 0.28260 0.98280 0.06400
H 	H 	0.36590 0.26730 0.99040 -0.00500
H 	H 	0.38990 0.28850 0.97040 -0.00600
C 	C 	0.27700 0.28130 0.96800 -0.41800
H 	H 	0.27020 0.26570 0.96040 0.13200
H 	H 	0.27560 0.29290 0.95320 0.13300
H 	H 	0.23840 0.28470 0.98120 0.13700
C 	C 	0.17140 0.06405 0.87010 0.36400
C 	C 	0.21540 0.04331 0.85700 -0.07200
C 	C 	0.26360 0.04512 0.83830 -0.04900
H 	H 	0.27600 0.05920 0.82920 0.04800
C 	C 	0.29550 0.02324 0.83330 0.03500
C 	C 	0.26580 0.00481 0.84839 -0.02500
C 	C 	0.28600 0.98067 0.85040 -0.02800
C 	C 	0.24540 0.96080 0.84160 0.03700
C 	C 	0.34010 0.94291 0.86245 -0.13700
C 	C 	0.27630 0.94026 0.84810 -0.02300
H 	H 	0.25630 0.92560 0.84340 0.03900
C 	C 	0.38230 0.92591 0.87470 0.43500
C 	C 	0.34700 0.01890 0.81120 -0.14300
H 	H 	0.36420 0.00270 0.81400 0.06700
H 	H 	0.38880 0.02910 0.81500 0.06000
C 	C 	0.33250 0.02120 0.78053 -0.07500
H 	H 	0.37660 0.01760 0.76980 0.03000
H 	H 	0.31620 0.03710 0.77590 0.03800
C 	C 	0.27290 0.00330 0.77471 -0.05200
H 	H 	0.28690 0.98770 0.78140 0.03800
H 	H 	0.22700 0.00800 0.78350 0.04000
C 	C 	0.26570 0.00340 0.74348 -0.19400
H 	H 	0.25360 0.01920 0.73670 0.07100
H 	H 	0.31120 0.99830 0.73470 0.06700
C 	C 	0.20490 0.98640 0.73740 0.12500
H 	H 	0.21820 0.97040 0.74320 -0.02500
H 	H 	0.16010 0.99100 0.74710 -0.02600
C 	C 	0.19430 0.98750 0.70660 -0.46300
H 	H 	0.15620 0.97660 0.70120 0.14300
H 	H 	0.23960 0.98330 0.69740 0.13900
H 	H 	0.18050 0.00340 0.70130 0.14200
C 	C 	0.17700 0.96320 0.83120 -0.13700
H 	H 	0.16640 0.97990 0.82750 0.06700
H 	H 	0.14080 0.95730 0.84440 0.05900
C 	C 	0.17460 0.94910 0.80460 -0.10500
H 	H 	0.18580 0.93250 0.80800 0.04800
H 	H 	0.20870 0.95540 0.79080 0.05200
C 	C 	0.09550 0.95240 0.79540 0.00600
H 	H 	0.06740 0.93780 0.79760 0.00200
H 	H 	0.07160 0.96500 0.80590 0.01500
C 	C 	0.10400 0.95900 0.76500 -0.24600
H 	H 	0.10280 0.97610 0.76240 0.09600
H 	H 	0.15000 0.95280 0.75740 0.09200
C 	C 	0.18010 0.13504 0.80839 0.27800
C 	C 	0.15830 0.11754 0.78875 -0.07800
C 	C 	0.15960 0.09476 0.79475 -0.04500
H 	H 	0.17270 0.08820 0.81190 0.05400
C 	C 	0.12160 0.09610 0.74802 -0.01900
C 	C 	0.10690 0.09048 0.71923 -0.02500
C 	C 	0.04240 0.09209 0.67494 -0.08600
C 	C 	0.99110 0.09490 0.65050 0.37300
C 	C 	0.11960 0.05485 0.77062 -0.11900
H 	H 	0.10630 0.04960 0.75200 0.05800
H 	H 	0.16400 0.04640 0.77600 0.05700
C 	C 	0.05940 0.04835 0.79014 -0.10400
H 	H 	0.07030 0.05430 0.80870 0.06200
H 	H 	0.01330 0.05540 0.78400 0.06100
C 	C 	0.98440 0.01656 0.80566 -0.21400
H 	H 	0.94480 0.02690 0.79960 0.08100
H 	H 	0.97030 0.00020 0.80180 0.07700
C 	C 	0.92880 0.01350 0.85020 -0.46300
H 	H 	0.93590 0.01490 0.87000 0.12800
H 	H 	0.91550 0.99740 0.84570 0.13800
H 	H 	0.89030 0.02410 0.84430 0.14000
C 	C 	0.26870 0.06980 0.68750 -0.09700
H 	H 	0.25290 0.06920 0.66810 0.04100
H 	H 	0.28390 0.08590 0.69190 0.04800
C 	C 	0.33010 0.05280 0.69240 -0.02700
H 	H 	0.34940 0.04690 0.67490 0.01800
H 	H 	0.31380 0.03950 0.70370 0.01900
C 	C 	0.13660 0.08139 0.76974 0.02100
C 	C 	0.13710 0.07667 0.70225 0.01200
C 	C 	0.09530 0.07635 0.67503 -0.03500
H 	H 	0.10580 0.06620 0.66020 0.03400
C 	C 	0.05310 0.02246 0.79063 -0.01800
H 	H 	0.09520 0.01550 0.80010 0.02800
H 	H 	0.05140 0.01620 0.77170 0.02300
C 	C 	0.99800 0.01970 0.83560 0.13400
H 	H 	0.01150 0.03610 0.83950 -0.02000
H 	H 	0.03780 0.00950 0.84170 -0.02200
C 	C 	0.20790 0.06210 0.70630 -0.11700
H 	H 	0.22400 0.06360 0.72560 0.05600
H 	H 	0.19720 0.04540 0.70290 0.04300
C 	C 	0.38660 0.06710 0.70750 -0.20900
H 	H 	0.36800 0.07240 0.72550 0.07800
H 	H 	0.40080 0.08090 0.69660 0.07300
C 	C 	0.45020 0.05060 0.71110 0.13900
H 	H 	0.45300 0.03950 0.69570 -0.02700
H 	H 	0.49610 0.05940 0.71220 -0.03300
C 	C 	0.43500 0.03790 0.73780 -0.48700
H 	H 	0.47500 0.02700 0.74150 0.13700
H 	H 	0.39000 0.02930 0.73630 0.16100
H 	H 	0.43200 0.04920 0.75270 0.16000
O 	O 	0.46710 0.08925 0.05442 -0.44800
O 	O 	0.47250 0.11763 0.08430 -0.52300
O 	O 	0.24160 0.12741 0.89531 -0.44400
O 	O 	0.30900 0.15420 0.87228 -0.50400
O 	O 	0.31860 0.13726 0.09423 -0.44200
O 	O 	0.26860 0.17189 0.11054 -0.48800
O 	O 	0.10010 0.08535 0.94464 -0.42200
O 	O 	0.09430 0.10985 0.90968 -0.51800
O 	O 	0.56850 0.09509 0.13026 -0.50800
O 	O 	0.49660 0.12272 0.14807 -0.46200
O 	O 	0.65690 0.14123 0.34449 -0.50400
O 	O 	0.66920 0.16663 0.31011 -0.42900
O 	O 	0.45440 0.16347 0.11126 -0.45100
O 	O 	0.39950 0.19094 0.13697 -0.46800
O 	O 	0.67830 0.31872 0.14205 -0.47000
O 	O 	0.60550 0.34607 0.12099 -0.42400
O 	O 	0.18490 0.08401 0.86356 -0.44100
O 	O 	0.12260 0.05777 0.88848 -0.46400
O 	O 	0.44150 0.93271 0.88570 -0.47700
O 	O 	0.36800 0.90525 0.87217 -0.45500
O 	O 	0.19260 0.15665 0.80100 -0.40900
O 	O 	0.20120 0.12960 0.83380 -0.50300
O 	O 	0.94890 0.11094 0.65168 -0.44300
O 	O 	0.01370 0.08239 0.62965 -0.49200
S 	S 	0.42339 0.11656 0.00585 0.01200
S 	S 	0.32249 0.13346 0.94926 0.03100
S 	S 	0.24680 0.14027 0.03889 0.02400
S 	S 	0.14692 0.11858 0.98692 0.01700
S 	S 	0.55412 0.11686 0.20636 0.03300
S 	S 	0.63425 0.13540 0.26448 0.01400
S 	S 	0.46910 0.23109 0.11863 0.01900
S 	S 	0.60425 0.27767 0.11952 0.00200
S 	S 	0.19772 0.01629 0.86925 -0.00200
S 	S 	0.36027 0.97287 0.86716 0.01400
S 	S 	0.13630 0.12548 0.75682 0.01300
S 	S 	0.03301 0.10613 0.70470 0.03100
Mn	Mn	0.52892 0.08328 0.09330 1.23800
Mn	Mn	0.40966 0.12966 0.12038 1.31900
Mn	Mn	0.29831 0.17846 0.14904 1.24600
Mn	Mn	0.03610 0.07472 0.90701 1.23800
Mn	Mn	0.14743 0.11931 0.87141 1.31800
Mn	Mn	0.25874 0.16490 0.83763 1.24700
H 	H 	0.52250 0.16860 0.96870 0.04000
H 	H 	0.48430 0.19100 0.95510 -0.17400
C 	C 	0.54820 0.17230 0.92660 -0.26000
H 	H 	0.52750 0.18030 0.91040 0.06400
H 	H 	0.55770 0.15580 0.92200 0.11300
C 	C 	0.61780 0.18470 0.93690 0.80600
H 	H 	0.61370 0.20190 0.93540 -0.74200
H 	H 	0.62900 0.18050 0.95610 -0.06000
C 	C 	0.67510 0.17480 0.91680 -0.63900
H 	H 	0.65370 0.17140 0.89870 0.19200
H 	H 	0.69790 0.16050 0.92420 0.19700
C 	C 	0.72980 0.19530 0.91530 0.33900
H 	H 	0.77270 0.19240 0.92690 -0.08800
H 	H 	0.70730 0.21030 0.92070 -0.09000
C 	C 	0.74900 0.19490 0.88420 -0.60500
H 	H 	0.78970 0.20550 0.88080 0.18400
H 	H 	0.70740 0.19990 0.87350 0.18000
H 	H 	0.76310 0.17900 0.87890 0.18600
H 	H 	0.04750 0.94410 0.73190 -0.03400
H 	H 	0.99470 0.95690 0.75340 -0.05200
H 	H 	0.99510 0.91420 0.75860 0.14600
H 	H 	0.01480 0.92760 0.78630 0.16800
H 	H 	0.07750 0.91620 0.76820 0.16200
C 	C 	0.03900 0.94720 0.75150 0.20000
C 	C 	0.03100 0.92420 0.76760 -0.51100
