data_crystal

_cell_length_a 7.20750
_cell_length_b 10.75620
_cell_length_c 17.21800
_cell_angle_alpha 97.07200
_cell_angle_beta  90.00000
_cell_angle_gamma 90.00000

_symmetry_space_group_name_	'P 1'
_symmetry_space_group_name_H-M	'P 1'

loop_
_symmetry_equiv_pos_as_xyz
  x,y,z

loop_
_atom_site_label
_atom_site_type_symbol
_atom_site_fract_x
_atom_site_fract_y
_atom_site_fract_z
_atom_site_charge
Eu	Eu	0.48036 0.32562 0.75305 1.97300
Eu	Eu	0.98036 0.17438 0.74695 1.95300
Eu	Eu	0.51964 0.67438 0.24695 1.97200
Eu	Eu	0.01964 0.82562 0.25305 1.95200
H 	H 	0.54240 0.67160 0.55960 0.28700
H 	H 	0.68390 0.49250 0.01950 0.05800
H 	H 	0.14770 0.66520 0.45050 0.04800
H 	H 	0.04240 0.82840 0.94040 0.28100
H 	H 	0.18390 0.00750 0.48050 0.05900
H 	H 	0.64770 0.83480 0.04950 0.04900
H 	H 	0.45760 0.32840 0.44040 0.28700
H 	H 	0.31610 0.50750 0.98050 0.05800
H 	H 	0.85230 0.33480 0.54950 0.04800
H 	H 	0.95760 0.17160 0.05960 0.28100
H 	H 	0.81610 0.99250 0.51950 0.05900
H 	H 	0.35230 0.16520 0.95050 0.04900
C 	C 	0.17180 0.41600 0.85190 0.35400
C 	C 	0.74950 0.40540 0.87460 0.37700
C 	C 	0.88250 0.45190 0.93810 -0.07400
C 	C 	0.07460 0.45760 0.92710 -0.04900
C 	C 	0.81140 0.49520 0.01140 0.00700
C 	C 	0.14850 0.39210 0.63380 0.45000
C 	C 	0.07090 0.45270 0.56670 -0.08700
C 	C 	0.31820 0.62250 0.57810 0.37100
C 	C 	0.15790 0.55260 0.53670 -0.04200
C 	C 	0.08780 0.59920 0.47020 0.01100
C 	C 	0.67180 0.08400 0.64810 0.35600
C 	C 	0.24950 0.09460 0.62540 0.37500
C 	C 	0.38250 0.04810 0.56190 -0.06900
C 	C 	0.57460 0.04240 0.57290 -0.05600
C 	C 	0.31140 0.00480 0.48860 0.00800
C 	C 	0.64850 0.10790 0.86620 0.45200
C 	C 	0.57090 0.04730 0.93330 -0.09400
C 	C 	0.81820 0.87750 0.92190 0.36900
C 	C 	0.65790 0.94740 0.96330 -0.03800
C 	C 	0.58780 0.90080 0.02980 0.01300
C 	C 	0.82820 0.58400 0.14810 0.35400
C 	C 	0.25050 0.59460 0.12540 0.37700
C 	C 	0.11750 0.54810 0.06190 -0.07400
C 	C 	0.92540 0.54240 0.07290 -0.04900
C 	C 	0.18860 0.50480 0.98860 0.00700
C 	C 	0.85150 0.60790 0.36620 0.45000
C 	C 	0.92910 0.54730 0.43330 -0.08700
C 	C 	0.68180 0.37750 0.42190 0.37100
C 	C 	0.84210 0.44740 0.46330 -0.04200
C 	C 	0.91220 0.40080 0.52980 0.01100
C 	C 	0.32820 0.91600 0.35190 0.35600
C 	C 	0.75050 0.90540 0.37460 0.37500
C 	C 	0.61750 0.95190 0.43810 -0.06900
C 	C 	0.42540 0.95760 0.42710 -0.05600
C 	C 	0.68860 0.99520 0.51140 0.00800
C 	C 	0.35150 0.89210 0.13380 0.45200
C 	C 	0.42910 0.95270 0.06670 -0.09400
C 	C 	0.18180 0.12250 0.07810 0.36900
C 	C 	0.34210 0.05260 0.03670 -0.03800
C 	C 	0.41220 0.09920 0.97020 0.01300
O 	O 	0.58030 0.41780 0.88650 -0.42700
O 	O 	0.31550 0.65360 0.64920 -0.27400
O 	O 	0.45160 0.64830 0.53300 -0.47300
O 	O 	0.19240 0.29740 0.83020 -0.57100
O 	O 	0.81120 0.35620 0.80800 -0.56200
O 	O 	0.25190 0.49370 0.81550 -0.38800
O 	O 	0.32160 0.38850 0.64240 -0.48200
O 	O 	0.03230 0.34440 0.67580 -0.49700
O 	O 	0.08030 0.08220 0.61350 -0.42000
O 	O 	0.81550 0.84640 0.85080 -0.27100
O 	O 	0.95160 0.85170 0.96700 -0.46500
O 	O 	0.69240 0.20260 0.66980 -0.57500
O 	O 	0.31120 0.14380 0.69200 -0.55900
O 	O 	0.75190 0.00630 0.68450 -0.39100
O 	O 	0.82160 0.11150 0.85760 -0.48400
O 	O 	0.53230 0.15560 0.82420 -0.50200
O 	O 	0.41970 0.58220 0.11350 -0.42700
O 	O 	0.68450 0.34640 0.35080 -0.27400
O 	O 	0.54840 0.35170 0.46700 -0.47300
O 	O 	0.80760 0.70260 0.16980 -0.57100
O 	O 	0.18880 0.64380 0.19200 -0.56200
O 	O 	0.74810 0.50630 0.18450 -0.38800
O 	O 	0.67840 0.61150 0.35760 -0.48200
O 	O 	0.96770 0.65560 0.32420 -0.49700
O 	O 	0.91970 0.91780 0.38650 -0.42000
O 	O 	0.18450 0.15360 0.14920 -0.27100
O 	O 	0.04840 0.14830 0.03300 -0.46500
O 	O 	0.30760 0.79740 0.33020 -0.57500
O 	O 	0.68880 0.85620 0.30800 -0.55900
O 	O 	0.24810 0.99370 0.31550 -0.39100
O 	O 	0.17840 0.88850 0.14240 -0.48400
O 	O 	0.46770 0.84440 0.17580 -0.50200
