data_crystal

_cell_length_a 5.72520
_cell_length_b 13.63370
_cell_length_c 13.63370
_cell_angle_alpha 99.50380
_cell_angle_beta  91.77360
_cell_angle_gamma 88.22640

_symmetry_space_group_name_	'P 1'
_symmetry_space_group_name_H-M	'P 1'

loop_
_symmetry_equiv_pos_as_xyz
  x,y,z

loop_
_atom_site_label
_atom_site_type_symbol
_atom_site_fract_x
_atom_site_fract_y
_atom_site_fract_z
_atom_site_charge
Yb	Yb	0.58434 0.37595 0.10033 1.50600
Yb	Yb	0.41566 0.10033 0.37595 1.50600
Yb	Yb	0.41566 0.62405 0.89967 1.50600
Yb	Yb	0.58434 0.89967 0.62405 1.50600
H 	H 	0.78310 0.62200 0.37800 0.07300
H 	H 	0.38290 0.76530 0.23470 0.02800
H 	H 	0.21690 0.37800 0.62200 0.07300
H 	H 	0.61710 0.23470 0.76530 0.02800
C 	C 	0.99420 0.60260 0.26040 -0.00800
C 	C 	0.17170 0.64460 0.21800 -0.10100
C 	C 	0.87230 0.51190 0.20670 0.27100
C 	C 	0.27960 0.60270 0.11890 0.42400
C 	C 	0.78890 0.19030 0.08450 0.31100
C 	C 	0.90060 0.09030 0.04810 -0.05900
C 	C 	0.00580 0.26040 0.60260 -0.00800
C 	C 	0.82830 0.21800 0.64460 -0.10100
C 	C 	0.12770 0.20670 0.51190 0.27100
C 	C 	0.72040 0.11890 0.60270 0.42400
C 	C 	0.21110 0.08450 0.19030 0.31100
C 	C 	0.09940 0.04810 0.09030 -0.05900
C 	C 	0.00580 0.39740 0.73960 -0.00800
C 	C 	0.82830 0.35540 0.78200 -0.10100
C 	C 	0.12770 0.48810 0.79330 0.27100
C 	C 	0.72040 0.39730 0.88110 0.42400
C 	C 	0.21110 0.80970 0.91550 0.31100
C 	C 	0.09940 0.90970 0.95190 -0.05900
C 	C 	0.99420 0.73960 0.39740 -0.00800
C 	C 	0.17170 0.78200 0.35540 -0.10100
C 	C 	0.87230 0.79330 0.48810 0.27100
C 	C 	0.27960 0.88110 0.39730 0.42400
C 	C 	0.78890 0.91550 0.80970 0.31100
C 	C 	0.90060 0.95190 0.90970 -0.05900
C 	C 	0.90500 0.65030 0.34970 -0.04900
C 	C 	0.26400 0.73610 0.26390 0.04000
C 	C 	0.09500 0.34970 0.65030 -0.04900
C 	C 	0.73600 0.26390 0.73610 0.04000
C 	C 	0.80700 0.04160 0.95840 0.07600
C 	C 	0.19300 0.95840 0.04160 0.07600
O 	O 	0.75130 0.45970 0.25310 -0.37300
O 	O 	0.88670 0.49260 0.11300 -0.36400
O 	O 	0.39520 0.52190 0.11370 -0.48200
O 	O 	0.25220 0.65220 0.05160 -0.43900
O 	O 	0.90520 0.26390 0.12970 -0.37500
O 	O 	0.57860 0.20350 0.06210 -0.39500
O 	O 	0.24870 0.25310 0.45970 -0.37300
O 	O 	0.11330 0.11300 0.49260 -0.36400
O 	O 	0.60480 0.11370 0.52190 -0.48200
O 	O 	0.74780 0.05160 0.65220 -0.43900
O 	O 	0.09480 0.12970 0.26390 -0.37500
O 	O 	0.42140 0.06210 0.20350 -0.39500
O 	O 	0.24870 0.54030 0.74690 -0.37300
O 	O 	0.11330 0.50740 0.88700 -0.36400
O 	O 	0.60480 0.47810 0.88630 -0.48200
O 	O 	0.74780 0.34780 0.94840 -0.43900
O 	O 	0.09480 0.73610 0.87030 -0.37500
O 	O 	0.42140 0.79650 0.93790 -0.39500
O 	O 	0.75130 0.74690 0.54030 -0.37300
O 	O 	0.88670 0.88700 0.50740 -0.36400
O 	O 	0.39520 0.88630 0.47810 -0.48200
O 	O 	0.25220 0.94840 0.34780 -0.43900
O 	O 	0.90520 0.87030 0.73610 -0.37500
O 	O 	0.57860 0.93790 0.79650 -0.39500
