data_crystal

_cell_length_a 9.67390
_cell_length_b 11.00390
_cell_length_c 11.55230
_cell_angle_alpha 104.83300
_cell_angle_beta  91.00000
_cell_angle_gamma 114.25700

_symmetry_space_group_name_	'P 1'
_symmetry_space_group_name_H-M	'P 1'

loop_
_symmetry_equiv_pos_as_xyz
  x,y,z

loop_
_atom_site_label
_atom_site_type_symbol
_atom_site_fract_x
_atom_site_fract_y
_atom_site_fract_z
_atom_site_charge
Er	Er	0.49227 0.99276 0.25353 1.60200
Er	Er	0.51686 0.42447 0.32999 1.68500
Er	Er	0.50773 0.00724 0.74647 1.60100
Er	Er	0.48314 0.57553 0.67001 1.68400
H 	H 	0.99300 0.31650 0.34470 0.04400
H 	H 	0.08980 0.20220 0.15930 0.04500
H 	H 	0.01260 0.21780 0.59100 0.04300
H 	H 	0.00700 0.68350 0.65530 0.04400
H 	H 	0.91020 0.79780 0.84070 0.04500
H 	H 	0.98740 0.78220 0.40900 0.04300
C 	C 	0.71750 0.25020 0.39310 0.36300
C 	C 	0.85920 0.38230 0.45010 -0.08300
C 	C 	0.99530 0.39030 0.40720 0.01000
C 	C 	0.86560 0.49480 0.54530 -0.07900
C 	C 	0.72810 0.49820 0.60090 0.35000
C 	C 	0.31410 0.12930 0.11180 0.45900
C 	C 	0.15290 0.06440 0.05090 -0.09800
C 	C 	0.05340 0.12080 0.09530 0.01600
C 	C 	0.09890 0.94160 0.95400 -0.05700
C 	C 	0.20960 0.88710 0.89720 0.39300
C 	C 	0.25850 0.25360 0.49110 0.43700
C 	C 	0.12660 0.11930 0.49640 -0.09500
C 	C 	0.00770 0.13010 0.55410 0.00900
C 	C 	0.12030 0.98800 0.44170 -0.03700
C 	C 	0.24960 0.97010 0.38240 0.30400
C 	C 	0.28250 0.74980 0.60690 0.36300
C 	C 	0.14080 0.61770 0.54990 -0.08300
C 	C 	0.00470 0.60970 0.59280 0.01000
C 	C 	0.13440 0.50520 0.45470 -0.07900
C 	C 	0.27190 0.50180 0.39910 0.35000
C 	C 	0.68590 0.87070 0.88820 0.45900
C 	C 	0.84710 0.93560 0.94910 -0.09800
C 	C 	0.94660 0.87920 0.90470 0.01600
C 	C 	0.90110 0.05840 0.04600 -0.05700
C 	C 	0.79040 0.11290 0.10280 0.39300
C 	C 	0.74150 0.74640 0.50890 0.43700
C 	C 	0.87340 0.88070 0.50360 -0.09500
C 	C 	0.99230 0.86990 0.44590 0.00900
C 	C 	0.87970 0.01200 0.55830 -0.03700
C 	C 	0.75040 0.02990 0.61760 0.30400
O 	O 	0.71720 0.13880 0.39850 -0.40900
O 	O 	0.60560 0.25100 0.33320 -0.50900
O 	O 	0.59880 0.44670 0.53360 -0.52400
O 	O 	0.74220 0.55840 0.70970 -0.37400
O 	O 	0.37130 0.05020 0.12650 -0.49200
O 	O 	0.38360 0.26120 0.14940 -0.48900
O 	O 	0.31880 0.97100 0.85990 -0.47800
O 	O 	0.18320 0.76370 0.88680 -0.30000
O 	O 	0.29540 0.35350 0.58760 -0.50000
O 	O 	0.31370 0.25820 0.39470 -0.44200
O 	O 	0.38770 0.04810 0.43200 -0.40000
O 	O 	0.22360 0.87970 0.28300 -0.39300
O 	O 	0.28280 0.86120 0.60150 -0.40900
O 	O 	0.39440 0.74900 0.66680 -0.50900
O 	O 	0.40120 0.55330 0.46640 -0.52400
O 	O 	0.25780 0.44160 0.29030 -0.37400
O 	O 	0.62870 0.94980 0.87350 -0.49200
O 	O 	0.61640 0.73880 0.85060 -0.48900
O 	O 	0.68120 0.02900 0.14010 -0.47800
O 	O 	0.81680 0.23630 0.11320 -0.30000
O 	O 	0.70460 0.64650 0.41240 -0.50000
O 	O 	0.68630 0.74180 0.60530 -0.44200
O 	O 	0.61230 0.95190 0.56800 -0.40000
O 	O 	0.77640 0.12030 0.71700 -0.39300
