data_crystal

_cell_length_a 7.16930
_cell_length_b 10.72460
_cell_length_c 17.15800
_cell_angle_alpha 97.10900
_cell_angle_beta  90.00000
_cell_angle_gamma 90.00000

_symmetry_space_group_name_	'P 1'
_symmetry_space_group_name_H-M	'P 1'

loop_
_symmetry_equiv_pos_as_xyz
  x,y,z

loop_
_atom_site_label
_atom_site_type_symbol
_atom_site_fract_x
_atom_site_fract_y
_atom_site_fract_z
_atom_site_charge
Tb	Tb	0.47995 0.82429 0.25327 1.89900
Tb	Tb	0.97995 0.67571 0.24673 1.88500
Tb	Tb	0.52005 0.17571 0.74673 1.89900
Tb	Tb	0.02005 0.32429 0.75327 1.88500
H 	H 	0.68450 0.99010 0.51880 0.06300
H 	H 	0.35020 0.66450 0.45040 0.05200
H 	H 	0.18450 0.50990 0.98120 0.06100
H 	H 	0.85020 0.83550 0.04960 0.05600
H 	H 	0.31550 0.00990 0.48120 0.06300
H 	H 	0.64980 0.33550 0.54960 0.05200
H 	H 	0.81550 0.49010 0.01880 0.06100
H 	H 	0.14980 0.16450 0.95040 0.05600
C 	C 	0.81270 0.99310 0.51110 0.00400
C 	C 	0.88200 0.95050 0.43780 -0.07300
C 	C 	0.07580 0.95940 0.42590 -0.03200
C 	C 	0.74850 0.90490 0.37330 0.38200
C 	C 	0.17240 0.91400 0.35120 0.34000
C 	C 	0.41080 0.59840 0.47010 0.00700
C 	C 	0.57170 0.54800 0.43230 -0.08400
C 	C 	0.66110 0.44690 0.46390 -0.01400
C 	C 	0.64750 0.61090 0.36410 0.47000
C 	C 	0.81940 0.37970 0.42220 0.27000
C 	C 	0.31270 0.50690 0.98890 0.00900
C 	C 	0.38200 0.54950 0.06220 -0.06400
C 	C 	0.57580 0.54060 0.07410 -0.04400
C 	C 	0.24850 0.59510 0.12670 0.38000
C 	C 	0.67240 0.58600 0.14880 0.34300
C 	C 	0.91080 0.90160 0.02990 -0.01100
C 	C 	0.07170 0.95200 0.06770 -0.07000
C 	C 	0.16110 0.05310 0.03610 -0.01200
C 	C 	0.14750 0.88910 0.13590 0.46600
C 	C 	0.31940 0.12030 0.07780 0.26900
C 	C 	0.18730 0.00690 0.48890 0.00400
C 	C 	0.11800 0.04950 0.56220 -0.07300
C 	C 	0.92420 0.04060 0.57410 -0.03200
C 	C 	0.25150 0.09510 0.62670 0.38200
C 	C 	0.82760 0.08600 0.64880 0.34000
C 	C 	0.58920 0.40160 0.52990 0.00700
C 	C 	0.42830 0.45200 0.56770 -0.08400
C 	C 	0.33890 0.55310 0.53610 -0.01400
C 	C 	0.35250 0.38910 0.63590 0.47000
C 	C 	0.18060 0.62030 0.57780 0.27000
C 	C 	0.68730 0.49310 0.01110 0.00900
C 	C 	0.61800 0.45050 0.93780 -0.06400
C 	C 	0.42420 0.45940 0.92590 -0.04400
C 	C 	0.75150 0.40490 0.87330 0.38000
C 	C 	0.32760 0.41400 0.85120 0.34300
C 	C 	0.08920 0.09840 0.97010 -0.01100
C 	C 	0.92830 0.04800 0.93230 -0.07000
C 	C 	0.83890 0.94690 0.96390 -0.01200
C 	C 	0.85250 0.11090 0.86410 0.46600
C 	C 	0.68060 0.87970 0.92220 0.26900
O 	O 	0.57610 0.91640 0.38610 -0.41600
O 	O 	0.80960 0.85350 0.30830 -0.55800
O 	O 	0.19200 0.79490 0.32990 -0.55400
O 	O 	0.25210 0.99380 0.31500 -0.36400
O 	O 	0.52880 0.65480 0.32370 -0.50300
O 	O 	0.82120 0.61390 0.35680 -0.47500
O 	O 	0.81940 0.34800 0.35050 -0.21500
O 	O 	0.95600 0.34970 0.46770 -0.19500
O 	O 	0.07610 0.58360 0.11390 -0.41000
O 	O 	0.30960 0.64650 0.19170 -0.55400
O 	O 	0.69200 0.70510 0.17010 -0.55900
O 	O 	0.75210 0.50620 0.18500 -0.36600
O 	O 	0.02880 0.84520 0.17630 -0.49600
O 	O 	0.32120 0.88610 0.14320 -0.47500
O 	O 	0.31940 0.15200 0.14950 -0.21600
O 	O 	0.45600 0.15030 0.03230 -0.19600
O 	O 	0.42390 0.08360 0.61390 -0.41600
O 	O 	0.19040 0.14650 0.69170 -0.55800
O 	O 	0.80800 0.20510 0.67010 -0.55400
O 	O 	0.74790 0.00620 0.68500 -0.36400
O 	O 	0.47120 0.34520 0.67630 -0.50300
O 	O 	0.17880 0.38610 0.64320 -0.47500
O 	O 	0.18060 0.65200 0.64950 -0.21500
O 	O 	0.04400 0.65030 0.53230 -0.19500
O 	O 	0.92390 0.41640 0.88610 -0.41000
O 	O 	0.69040 0.35350 0.80830 -0.55400
O 	O 	0.30800 0.29490 0.82990 -0.55900
O 	O 	0.24790 0.49380 0.81500 -0.36600
O 	O 	0.97120 0.15480 0.82370 -0.49600
O 	O 	0.67880 0.11390 0.85680 -0.47500
O 	O 	0.68060 0.84800 0.85050 -0.21600
O 	O 	0.54400 0.84970 0.96770 -0.19600
