data_crystal

_cell_length_a 18.91530
_cell_length_b 18.91530
_cell_length_c 18.91530
_cell_angle_alpha 90.00000
_cell_angle_beta  90.00000
_cell_angle_gamma 90.00000

_symmetry_space_group_name_	'P 1'
_symmetry_space_group_name_H-M	'P 1'

loop_
_symmetry_equiv_pos_as_xyz
  x,y,z

loop_
_atom_site_label
_atom_site_type_symbol
_atom_site_fract_x
_atom_site_fract_y
_atom_site_fract_z
_atom_site_charge
N 	N 	0.41677 0.36733 0.92018 -0.23700
N 	N 	0.40639 0.32334 0.86722 -0.32800
N 	N 	0.58323 0.63267 0.92018 -0.23300
N 	N 	0.59361 0.67666 0.86722 -0.32000
N 	N 	0.58323 0.36733 0.07982 -0.27800
N 	N 	0.59361 0.32334 0.13278 -0.34000
N 	N 	0.41677 0.63267 0.07982 -0.27600
N 	N 	0.40639 0.67666 0.13278 -0.33600
N 	N 	0.92018 0.41677 0.36733 -0.23700
N 	N 	0.86722 0.40639 0.32334 -0.32800
N 	N 	0.92018 0.58323 0.63267 -0.23300
N 	N 	0.86722 0.59361 0.67666 -0.32000
N 	N 	0.07982 0.58323 0.36733 -0.27800
N 	N 	0.13278 0.59361 0.32334 -0.34000
N 	N 	0.07982 0.41677 0.63267 -0.27600
N 	N 	0.13278 0.40639 0.67666 -0.33700
N 	N 	0.36733 0.92018 0.41677 -0.23800
N 	N 	0.32334 0.86722 0.40639 -0.32900
N 	N 	0.63267 0.92018 0.58323 -0.23400
N 	N 	0.67666 0.86722 0.59361 -0.32100
N 	N 	0.36733 0.07982 0.58323 -0.27900
N 	N 	0.32334 0.13278 0.59361 -0.34100
N 	N 	0.63267 0.07982 0.41677 -0.27700
N 	N 	0.67666 0.13278 0.40639 -0.33700
N 	N 	0.36733 0.41677 0.07982 -0.28000
N 	N 	0.32334 0.40639 0.13278 -0.34300
N 	N 	0.63267 0.58323 0.07982 -0.27500
N 	N 	0.67666 0.59361 0.13278 -0.33500
N 	N 	0.36733 0.58323 0.92018 -0.23700
N 	N 	0.32334 0.59361 0.86722 -0.32700
N 	N 	0.63267 0.41677 0.92018 -0.23500
N 	N 	0.67666 0.40639 0.86722 -0.32300
N 	N 	0.41677 0.92018 0.63267 -0.23500
N 	N 	0.40639 0.86722 0.67666 -0.32300
N 	N 	0.58323 0.92018 0.36733 -0.23700
N 	N 	0.59361 0.86722 0.32334 -0.32700
N 	N 	0.58323 0.07982 0.63267 -0.27500
N 	N 	0.59361 0.13278 0.67666 -0.33500
N 	N 	0.41677 0.07982 0.36733 -0.28000
N 	N 	0.40639 0.13278 0.32334 -0.34300
N 	N 	0.92018 0.36733 0.58323 -0.23700
N 	N 	0.86722 0.32334 0.59361 -0.32700
N 	N 	0.92018 0.63267 0.41677 -0.23500
N 	N 	0.86722 0.67666 0.40639 -0.32300
N 	N 	0.07982 0.36733 0.41677 -0.28000
N 	N 	0.13278 0.32334 0.40639 -0.34300
N 	N 	0.07982 0.63267 0.58323 -0.27500
N 	N 	0.13278 0.67666 0.59361 -0.33500
N 	N 	0.58323 0.63267 0.07982 -0.27500
N 	N 	0.59361 0.67666 0.13278 -0.33500
N 	N 	0.41677 0.36733 0.07982 -0.28000
N 	N 	0.40639 0.32334 0.13278 -0.34300
N 	N 	0.41677 0.63267 0.92018 -0.23500
N 	N 	0.40639 0.67666 0.86722 -0.32300
N 	N 	0.58323 0.36733 0.92018 -0.23700
N 	N 	0.59361 0.32334 0.86722 -0.32700
N 	N 	0.07982 0.58323 0.63267 -0.27500
N 	N 	0.13278 0.59361 0.67666 -0.33500
N 	N 	0.07982 0.41677 0.36733 -0.28000
N 	N 	0.13278 0.40639 0.32334 -0.34300
N 	N 	0.92018 0.41677 0.63267 -0.23500
N 	N 	0.86722 0.40639 0.67666 -0.32300
N 	N 	0.92018 0.58323 0.36733 -0.23700
N 	N 	0.86722 0.59361 0.32334 -0.32700
N 	N 	0.63267 0.07982 0.58323 -0.27500
N 	N 	0.67666 0.13278 0.59361 -0.33500
N 	N 	0.36733 0.07982 0.41677 -0.28000
N 	N 	0.32334 0.13278 0.40639 -0.34300
N 	N 	0.63267 0.92018 0.41677 -0.23500
N 	N 	0.67666 0.86722 0.40639 -0.32300
N 	N 	0.36733 0.92018 0.58323 -0.23700
N 	N 	0.32334 0.86722 0.59361 -0.32700
N 	N 	0.63267 0.58323 0.92018 -0.23400
N 	N 	0.67666 0.59361 0.86722 -0.32100
N 	N 	0.36733 0.41677 0.92018 -0.23800
N 	N 	0.32334 0.40639 0.86722 -0.32900
N 	N 	0.63267 0.41677 0.07982 -0.27700
N 	N 	0.67666 0.40639 0.13278 -0.33700
N 	N 	0.36733 0.58323 0.07982 -0.27900
N 	N 	0.32334 0.59361 0.13278 -0.34100
N 	N 	0.58323 0.07982 0.36733 -0.27900
N 	N 	0.59361 0.13278 0.32334 -0.34100
N 	N 	0.41677 0.07982 0.63267 -0.27700
N 	N 	0.40639 0.13278 0.67666 -0.33700
N 	N 	0.41677 0.92018 0.36733 -0.23800
N 	N 	0.40639 0.86722 0.32334 -0.32900
N 	N 	0.58323 0.92018 0.63267 -0.23400
N 	N 	0.59361 0.86722 0.67666 -0.32100
N 	N 	0.07982 0.63267 0.41677 -0.27700
N 	N 	0.13278 0.67666 0.40639 -0.33700
N 	N 	0.07982 0.36733 0.58323 -0.27900
N 	N 	0.13278 0.32334 0.59361 -0.34100
N 	N 	0.92018 0.63267 0.58323 -0.23400
N 	N 	0.86722 0.67666 0.59361 -0.32100
N 	N 	0.92018 0.36733 0.41677 -0.23800
N 	N 	0.86722 0.32334 0.40639 -0.32900
Cl	Cl	0.50000 0.50000 -0.00000 -1.03900
Cl	Cl	0.00000 0.50000 0.50000 -1.03900
Cl	Cl	0.50000 0.00000 0.50000 -1.03900
Mn	Mn	0.50000 0.35958 -0.00000 1.08200
Mn	Mn	0.50000 0.64042 -0.00000 1.08600
Mn	Mn	0.00000 0.50000 0.35958 1.08200
Mn	Mn	0.00000 0.50000 0.64042 1.08600
Mn	Mn	0.35958 0.00000 0.50000 1.08200
Mn	Mn	0.64042 0.00000 0.50000 1.08600
Mn	Mn	0.35958 0.50000 -0.00000 1.08200
Mn	Mn	0.64042 0.50000 -0.00000 1.08600
Mn	Mn	0.50000 0.00000 0.64042 1.08600
Mn	Mn	0.50000 0.00000 0.35958 1.08200
Mn	Mn	-0.00000 0.35958 0.50000 1.08200
Mn	Mn	0.00000 0.64042 0.50000 1.08600
C 	C 	0.34880 0.34880 0.83440 0.13700
C 	C 	0.31690 0.31690 0.77210 -0.33800
C 	C 	0.65120 0.65120 0.83440 0.14400
C 	C 	0.68310 0.68310 0.77210 -0.32200
C 	C 	0.65120 0.34880 0.16560 0.12800
C 	C 	0.68310 0.31690 0.22790 -0.34200
C 	C 	0.34880 0.65120 0.16560 0.12800
C 	C 	0.31690 0.68310 0.22790 -0.34200
C 	C 	0.83440 0.34880 0.34880 0.13700
C 	C 	0.77210 0.31690 0.31690 -0.33800
C 	C 	0.83440 0.65120 0.65120 0.14400
C 	C 	0.77210 0.68310 0.68310 -0.32200
C 	C 	0.16560 0.65120 0.34880 0.12800
C 	C 	0.22790 0.68310 0.31690 -0.34200
C 	C 	0.16560 0.34880 0.65120 0.12800
C 	C 	0.22790 0.31690 0.68310 -0.34200
C 	C 	0.34880 0.83440 0.34880 0.13700
C 	C 	0.31690 0.77210 0.31690 -0.33800
C 	C 	0.65120 0.83440 0.65120 0.14400
C 	C 	0.68310 0.77210 0.68310 -0.32200
C 	C 	0.34880 0.16560 0.65120 0.12800
C 	C 	0.31690 0.22790 0.68310 -0.34200
C 	C 	0.65120 0.16560 0.34880 0.12800
C 	C 	0.68310 0.22790 0.31690 -0.34200
C 	C 	0.34880 0.34880 0.16560 0.12500
C 	C 	0.31690 0.31690 0.22790 -0.35000
C 	C 	0.65120 0.65120 0.16560 0.13200
C 	C 	0.68310 0.68310 0.22790 -0.33400
C 	C 	0.34880 0.65120 0.83440 0.14000
C 	C 	0.31690 0.68310 0.77210 -0.33000
C 	C 	0.65120 0.34880 0.83440 0.14000
C 	C 	0.68310 0.31690 0.77210 -0.33000
C 	C 	0.34880 0.83440 0.65120 0.14000
C 	C 	0.31690 0.77210 0.68310 -0.33000
C 	C 	0.65120 0.83440 0.34880 0.14000
C 	C 	0.68310 0.77210 0.31690 -0.33000
C 	C 	0.65120 0.16560 0.65120 0.13200
C 	C 	0.68310 0.22790 0.68310 -0.33400
C 	C 	0.34880 0.16560 0.34880 0.12500
C 	C 	0.31690 0.22790 0.31690 -0.35000
C 	C 	0.83440 0.34880 0.65120 0.14000
C 	C 	0.77210 0.31690 0.68310 -0.33000
C 	C 	0.83440 0.65120 0.34880 0.14000
C 	C 	0.77210 0.68310 0.31690 -0.33000
C 	C 	0.16560 0.34880 0.34880 0.12500
C 	C 	0.22790 0.31690 0.31690 -0.35000
C 	C 	0.16560 0.65120 0.65120 0.13200
C 	C 	0.22790 0.68310 0.68310 -0.33400
C 	C 	0.34680 0.25760 0.74240 0.20400
H 	H 	0.38710 0.23770 0.76230 -0.24700
C 	C 	0.65320 0.74240 0.74240 0.20400
H 	H 	0.61290 0.76230 0.76230 -0.23400
C 	C 	0.65320 0.25760 0.25760 0.20300
H 	H 	0.61290 0.23770 0.23770 -0.25400
C 	C 	0.34680 0.74240 0.25760 0.20400
H 	H 	0.38710 0.76230 0.23770 -0.24700
C 	C 	0.74240 0.34680 0.25760 0.20400
H 	H 	0.76230 0.38710 0.23770 -0.24700
C 	C 	0.74240 0.65320 0.74240 0.20400
H 	H 	0.76230 0.61290 0.76230 -0.23400
C 	C 	0.25760 0.65320 0.25760 0.20300
H 	H 	0.23770 0.61290 0.23770 -0.25400
C 	C 	0.25760 0.34680 0.74240 0.20400
H 	H 	0.23770 0.38710 0.76230 -0.24700
C 	C 	0.25760 0.74240 0.34680 0.20400
H 	H 	0.23770 0.76230 0.38710 -0.24700
C 	C 	0.74240 0.74240 0.65320 0.20400
H 	H 	0.76230 0.76230 0.61290 -0.23400
C 	C 	0.25760 0.25760 0.65320 0.20300
H 	H 	0.23770 0.23770 0.61290 -0.25400
C 	C 	0.74240 0.25760 0.34680 0.20400
H 	H 	0.76230 0.23770 0.38710 -0.24700
C 	C 	0.25760 0.34680 0.25760 0.20300
H 	H 	0.23770 0.38710 0.23770 -0.25700
C 	C 	0.74240 0.65320 0.25760 0.20400
H 	H 	0.76230 0.61290 0.23770 -0.24400
C 	C 	0.25760 0.65320 0.74240 0.20400
H 	H 	0.23770 0.61290 0.76230 -0.24400
C 	C 	0.74240 0.34680 0.74240 0.20400
H 	H 	0.76230 0.38710 0.76230 -0.23700
C 	C 	0.34680 0.74240 0.74240 0.20400
H 	H 	0.38710 0.76230 0.76230 -0.23700
C 	C 	0.65320 0.74240 0.25760 0.20400
H 	H 	0.61290 0.76230 0.23770 -0.24400
C 	C 	0.65320 0.25760 0.74240 0.20400
H 	H 	0.61290 0.23770 0.76230 -0.24400
C 	C 	0.34680 0.25760 0.25760 0.20300
H 	H 	0.38710 0.23770 0.23770 -0.25700
C 	C 	0.74240 0.25760 0.65320 0.20400
H 	H 	0.76230 0.23770 0.61290 -0.24400
C 	C 	0.74240 0.74240 0.34680 0.20400
H 	H 	0.76230 0.76230 0.38710 -0.23700
C 	C 	0.25760 0.25760 0.34680 0.20300
H 	H 	0.23770 0.23770 0.38710 -0.25700
C 	C 	0.25760 0.74240 0.65320 0.20400
H 	H 	0.23770 0.76230 0.61290 -0.24400
Mn	Mn	0.50000 0.25840 0.85740 1.01400
Mn	Mn	0.50000 0.74160 0.85740 1.02600
Mn	Mn	0.50000 0.25840 0.14260 0.99100
Mn	Mn	0.50000 0.74160 0.14260 1.00300
Mn	Mn	0.85740 0.50000 0.25840 1.01400
Mn	Mn	0.85740 0.50000 0.74160 1.02600
Mn	Mn	0.14260 0.50000 0.25840 0.99100
Mn	Mn	0.14260 0.50000 0.74160 1.00300
Mn	Mn	0.25840 0.85740 0.50000 1.01400
Mn	Mn	0.74160 0.85740 0.50000 1.02600
Mn	Mn	0.25840 0.14260 0.50000 0.99100
Mn	Mn	0.74160 0.14260 0.50000 1.00300
Mn	Mn	0.25840 0.50000 0.14260 0.99100
Mn	Mn	0.74160 0.50000 0.14260 1.00300
Mn	Mn	0.25840 0.50000 0.85740 1.01400
Mn	Mn	0.74160 0.50000 0.85740 1.02600
Mn	Mn	0.50000 0.85740 0.74160 1.02600
Mn	Mn	0.50000 0.85740 0.25840 1.01400
Mn	Mn	0.50000 0.14260 0.74160 1.00300
Mn	Mn	0.50000 0.14260 0.25840 0.99100
Mn	Mn	0.85740 0.25840 0.50000 1.01400
Mn	Mn	0.85740 0.74160 0.50000 1.02600
Mn	Mn	0.14260 0.25840 0.50000 0.99100
Mn	Mn	0.14260 0.74160 0.50000 1.00300
