data_crystal

_cell_length_a 24.99330
_cell_length_b 28.20780
_cell_length_c 38.87330
_cell_angle_alpha 90.00000
_cell_angle_beta  90.00000
_cell_angle_gamma 90.00000

_symmetry_space_group_name_	'P 1'
_symmetry_space_group_name_H-M	'P 1'

loop_
_symmetry_equiv_pos_as_xyz
  x,y,z

loop_
_atom_site_label
_atom_site_type_symbol
_atom_site_fract_x
_atom_site_fract_y
_atom_site_fract_z
_atom_site_charge
O 	O 	0.24053 0.04888 0.20514 -0.42400
O 	O 	0.05462 0.23720 0.20526 -0.42100
C 	C 	0.20037 0.06391 0.21933 0.36200
C 	C 	0.07057 0.20119 0.22065 0.35800
C 	C 	0.11035 0.16998 0.20210 -0.05500
C 	C 	0.12240 0.17995 0.16813 -0.07500
H 	H 	0.10630 0.20530 0.15690 0.07400
C 	C 	0.15892 0.15141 0.15122 0.09600
C 	C 	0.13422 0.13214 0.21838 -0.00300
H 	H 	0.12530 0.12510 0.24100 0.05800
C 	C 	0.17109 0.10468 0.20130 -0.05000
C 	C 	0.18388 0.11416 0.16749 -0.07600
H 	H 	0.20890 0.09570 0.15590 0.08400
C 	C 	0.16040 0.19750 0.09587 0.00200
H 	H 	0.14500 0.22590 0.10290 0.03200
C 	C 	0.17650 0.18604 0.06351 0.03300
C 	C 	0.17720 0.21350 0.03127 0.06200
N 	N 	0.17096 0.16010 0.11552 -0.09400
N 	N 	0.19530 0.12764 0.09663 -0.04800
N 	N 	0.19660 0.14350 0.06464 -0.08100
O 	O 	0.17916 0.04970 0.24681 -0.41700
O 	O 	0.05519 0.18670 0.24937 -0.41900
C 	C 	0.16970 0.26100 0.03141 -0.11500
H 	H 	0.16760 0.27720 0.05220 0.07400
O 	O 	0.24053 0.54888 0.70514 -0.41400
O 	O 	0.05462 0.73720 0.70526 -0.42000
C 	C 	0.20037 0.56391 0.71933 0.36000
C 	C 	0.07057 0.70119 0.72065 0.35500
C 	C 	0.11035 0.66998 0.70210 -0.05100
C 	C 	0.12240 0.67995 0.66813 -0.07800
H 	H 	0.10630 0.70530 0.65690 0.07500
C 	C 	0.15892 0.65141 0.65122 0.10000
C 	C 	0.13422 0.63214 0.71838 -0.00700
H 	H 	0.12530 0.62510 0.74100 0.06100
C 	C 	0.17109 0.60468 0.70130 -0.04400
C 	C 	0.18388 0.61416 0.66749 -0.07900
H 	H 	0.20890 0.59570 0.65590 0.09000
C 	C 	0.16040 0.69750 0.59587 0.00300
H 	H 	0.14500 0.72590 0.60290 0.03300
C 	C 	0.17650 0.68604 0.56351 0.03400
C 	C 	0.17720 0.71350 0.53127 0.06500
N 	N 	0.17096 0.66010 0.61552 -0.09400
N 	N 	0.19530 0.62764 0.59663 -0.04400
N 	N 	0.19660 0.64350 0.56464 -0.07700
O 	O 	0.17916 0.54970 0.74681 -0.40700
O 	O 	0.05519 0.68670 0.74937 -0.41600
C 	C 	0.16970 0.76100 0.53141 -0.11600
H 	H 	0.16760 0.77720 0.55220 0.07600
O 	O 	0.74053 0.04888 0.70514 -0.42200
O 	O 	0.55462 0.23720 0.70526 -0.40900
C 	C 	0.70037 0.06391 0.71933 0.35900
C 	C 	0.57057 0.20119 0.72065 0.35500
C 	C 	0.61035 0.16998 0.70210 -0.04600
C 	C 	0.62240 0.17995 0.66813 -0.07900
H 	H 	0.60630 0.20530 0.65690 0.08000
C 	C 	0.65892 0.15141 0.65122 0.10200
C 	C 	0.63422 0.13214 0.71838 -0.00800
H 	H 	0.62530 0.12510 0.74100 0.06300
C 	C 	0.67109 0.10468 0.70130 -0.04400
C 	C 	0.68388 0.11416 0.66749 -0.07900
H 	H 	0.70890 0.09570 0.65590 0.08800
C 	C 	0.66040 0.19750 0.59587 0.00400
H 	H 	0.64500 0.22590 0.60290 0.03500
C 	C 	0.67650 0.18604 0.56351 0.03600
C 	C 	0.67720 0.21350 0.53127 0.06500
N 	N 	0.67096 0.16010 0.61552 -0.09300
N 	N 	0.69530 0.12764 0.59663 -0.04500
N 	N 	0.69660 0.14350 0.56464 -0.07800
O 	O 	0.67916 0.04970 0.74681 -0.41200
O 	O 	0.55519 0.18670 0.74937 -0.40600
C 	C 	0.66970 0.26100 0.53141 -0.11400
H 	H 	0.66760 0.27720 0.55220 0.07700
O 	O 	0.74053 0.54888 0.20514 -0.41100
O 	O 	0.55462 0.73720 0.20526 -0.40700
C 	C 	0.70037 0.56391 0.21933 0.35800
C 	C 	0.57057 0.70119 0.22065 0.35400
C 	C 	0.61035 0.66998 0.20210 -0.04100
C 	C 	0.62240 0.67995 0.16813 -0.08200
H 	H 	0.60630 0.70530 0.15690 0.08200
C 	C 	0.65892 0.65141 0.15122 0.10700
C 	C 	0.63422 0.63214 0.21838 -0.01100
H 	H 	0.62530 0.62510 0.24100 0.06600
C 	C 	0.67109 0.60468 0.20130 -0.03700
C 	C 	0.68388 0.61416 0.16749 -0.08200
H 	H 	0.70890 0.59570 0.15590 0.09400
C 	C 	0.66040 0.69750 0.09587 0.00500
H 	H 	0.64500 0.72590 0.10290 0.03600
C 	C 	0.67650 0.68604 0.06351 0.03700
C 	C 	0.67720 0.71350 0.03127 0.06700
N 	N 	0.67096 0.66010 0.11552 -0.09300
N 	N 	0.69530 0.62764 0.09663 -0.04100
N 	N 	0.69660 0.64350 0.06464 -0.07500
O 	O 	0.67916 0.54970 0.24681 -0.40200
O 	O 	0.55519 0.68670 0.24937 -0.40300
C 	C 	0.66970 0.76100 0.03141 -0.11400
H 	H 	0.66760 0.77720 0.05220 0.07900
O 	O 	0.75947 0.95112 0.20514 -0.39200
O 	O 	0.94538 0.76280 0.20526 -0.38300
C 	C 	0.79963 0.93609 0.21933 0.35200
C 	C 	0.92943 0.79881 0.22065 0.34700
C 	C 	0.88965 0.83002 0.20210 -0.02600
C 	C 	0.87760 0.82005 0.16813 -0.08900
H 	H 	0.89370 0.79470 0.15690 0.09000
C 	C 	0.84108 0.84859 0.15122 0.11800
C 	C 	0.86578 0.86786 0.21838 -0.02000
H 	H 	0.87470 0.87490 0.24100 0.07700
C 	C 	0.82891 0.89532 0.20130 -0.02200
C 	C 	0.81612 0.88584 0.16749 -0.08900
H 	H 	0.79110 0.90430 0.15590 0.10100
C 	C 	0.83960 0.80250 0.09587 0.00900
H 	H 	0.85500 0.77410 0.10290 0.03900
C 	C 	0.82350 0.81396 0.06351 0.04000
C 	C 	0.82280 0.78650 0.03127 0.07200
N 	N 	0.82904 0.83990 0.11552 -0.09300
N 	N 	0.80470 0.87236 0.09663 -0.03500
N 	N 	0.80340 0.85650 0.06464 -0.07100
O 	O 	0.82084 0.95030 0.24681 -0.37700
O 	O 	0.94481 0.81330 0.24937 -0.37600
C 	C 	0.83030 0.73900 0.03141 -0.11400
H 	H 	0.83240 0.72280 0.05220 0.08100
O 	O 	0.75947 0.45112 0.70514 -0.41200
O 	O 	0.94538 0.26280 0.70526 -0.38500
C 	C 	0.79963 0.43609 0.71933 0.35700
C 	C 	0.92943 0.29881 0.72065 0.34900
C 	C 	0.88965 0.33002 0.70210 -0.03100
C 	C 	0.87760 0.32005 0.66813 -0.08500
H 	H 	0.89370 0.29470 0.65690 0.08800
C 	C 	0.84108 0.34859 0.65122 0.11300
C 	C 	0.86578 0.36786 0.71838 -0.01500
H 	H 	0.87470 0.37490 0.74100 0.07200
C 	C 	0.82891 0.39532 0.70130 -0.03100
C 	C 	0.81612 0.38584 0.66749 -0.08500
H 	H 	0.79110 0.40430 0.65590 0.09500
C 	C 	0.83960 0.30250 0.59587 0.00800
H 	H 	0.85500 0.27410 0.60290 0.03800
C 	C 	0.82350 0.31396 0.56351 0.03900
C 	C 	0.82280 0.28650 0.53127 0.06900
N 	N 	0.82904 0.33990 0.61552 -0.09300
N 	N 	0.80470 0.37236 0.59663 -0.04000
N 	N 	0.80340 0.35650 0.56464 -0.07400
O 	O 	0.82084 0.45030 0.74681 -0.39700
O 	O 	0.94481 0.31330 0.74937 -0.37900
C 	C 	0.83030 0.23900 0.53141 -0.11400
H 	H 	0.83240 0.22280 0.55220 0.07900
O 	O 	0.25947 0.95112 0.70514 -0.39500
O 	O 	0.44538 0.76280 0.70526 -0.40700
C 	C 	0.29963 0.93609 0.71933 0.35400
C 	C 	0.42943 0.79881 0.72065 0.35300
C 	C 	0.38965 0.83002 0.70210 -0.03800
C 	C 	0.37760 0.82005 0.66813 -0.08300
H 	H 	0.39370 0.79470 0.65690 0.08300
C 	C 	0.34108 0.84859 0.65122 0.11000
C 	C 	0.36578 0.86786 0.71838 -0.01400
H 	H 	0.37470 0.87490 0.74100 0.07000
C 	C 	0.32891 0.89532 0.70130 -0.03000
C 	C 	0.31612 0.88584 0.66749 -0.08500
H 	H 	0.29110 0.90430 0.65590 0.09700
C 	C 	0.33960 0.80250 0.59587 0.00700
H 	H 	0.35500 0.77410 0.60290 0.03500
C 	C 	0.32350 0.81396 0.56351 0.03700
C 	C 	0.32280 0.78650 0.53127 0.06900
N 	N 	0.32904 0.83990 0.61552 -0.09300
N 	N 	0.30470 0.87236 0.59663 -0.03900
N 	N 	0.30340 0.85650 0.56464 -0.07300
O 	O 	0.32084 0.95030 0.74681 -0.38200
O 	O 	0.44481 0.81330 0.74937 -0.40000
C 	C 	0.33030 0.73900 0.53141 -0.11600
H 	H 	0.33240 0.72280 0.55220 0.07800
O 	O 	0.25947 0.45112 0.20514 -0.41500
O 	O 	0.44538 0.26280 0.20526 -0.40900
C 	C 	0.29963 0.43609 0.21933 0.35900
C 	C 	0.42943 0.29881 0.22065 0.35500
C 	C 	0.38965 0.33002 0.20210 -0.04400
C 	C 	0.37760 0.32005 0.16813 -0.08000
H 	H 	0.39370 0.29470 0.15690 0.08000
C 	C 	0.34108 0.34859 0.15122 0.10400
C 	C 	0.36578 0.36786 0.21838 -0.00900
H 	H 	0.37470 0.37490 0.24100 0.06600
C 	C 	0.32891 0.39532 0.20130 -0.03900
C 	C 	0.31612 0.38584 0.16749 -0.08000
H 	H 	0.29110 0.40430 0.15590 0.09000
C 	C 	0.33960 0.30250 0.09587 0.00500
H 	H 	0.35500 0.27410 0.10290 0.03400
C 	C 	0.32350 0.31396 0.06351 0.03600
C 	C 	0.32280 0.28650 0.03127 0.06600
N 	N 	0.32904 0.33990 0.11552 -0.09300
N 	N 	0.30470 0.37236 0.09663 -0.04300
N 	N 	0.30340 0.35650 0.06464 -0.07700
O 	O 	0.32084 0.45030 0.24681 -0.40200
O 	O 	0.44481 0.31330 0.24937 -0.40300
C 	C 	0.33030 0.23900 0.03141 -0.11500
H 	H 	0.33240 0.22280 0.05220 0.07600
O 	O 	0.75947 0.04888 0.79486 -0.42200
O 	O 	0.94538 0.23720 0.79474 -0.38400
C 	C 	0.79963 0.06391 0.78067 0.35800
C 	C 	0.92943 0.20119 0.77935 0.35000
C 	C 	0.88965 0.16998 0.79790 -0.03500
C 	C 	0.87760 0.17995 0.83187 -0.08300
H 	H 	0.89370 0.20530 0.84310 0.08700
C 	C 	0.84108 0.15141 0.84878 0.10800
C 	C 	0.86578 0.13214 0.78162 -0.01300
H 	H 	0.87470 0.12510 0.75900 0.06900
C 	C 	0.82891 0.10468 0.79870 -0.03800
C 	C 	0.81612 0.11416 0.83251 -0.08200
H 	H 	0.79110 0.09570 0.84410 0.08900
C 	C 	0.83960 0.19750 0.90413 0.00600
H 	H 	0.85500 0.22590 0.89710 0.03900
C 	C 	0.82350 0.18604 0.93649 0.03900
C 	C 	0.82280 0.21350 0.96873 0.06700
N 	N 	0.82904 0.16010 0.88448 -0.09300
N 	N 	0.80470 0.12764 0.90337 -0.04400
N 	N 	0.80340 0.14350 0.93536 -0.07700
O 	O 	0.82084 0.04970 0.75319 -0.40700
O 	O 	0.94481 0.18670 0.75063 -0.38100
C 	C 	0.83030 0.26100 0.96859 -0.11000
H 	H 	0.83240 0.27720 0.94780 0.08000
O 	O 	0.75947 0.54888 0.29486 -0.41200
O 	O 	0.94538 0.73720 0.29474 -0.38300
C 	C 	0.79963 0.56391 0.28067 0.35700
C 	C 	0.92943 0.70119 0.27935 0.34800
C 	C 	0.88965 0.66998 0.29790 -0.03000
C 	C 	0.87760 0.67995 0.33187 -0.08600
H 	H 	0.89370 0.70530 0.34310 0.08900
C 	C 	0.84108 0.65141 0.34878 0.11300
C 	C 	0.86578 0.63214 0.28162 -0.01600
H 	H 	0.87470 0.62510 0.25900 0.07200
C 	C 	0.82891 0.60468 0.29870 -0.03100
C 	C 	0.81612 0.61416 0.33251 -0.08500
H 	H 	0.79110 0.59570 0.34410 0.09500
C 	C 	0.83960 0.69750 0.40413 0.00700
H 	H 	0.85500 0.72590 0.39710 0.04000
C 	C 	0.82350 0.68604 0.43649 0.04000
C 	C 	0.82280 0.71350 0.46873 0.06900
N 	N 	0.82904 0.66010 0.38448 -0.09300
N 	N 	0.80470 0.62764 0.40337 -0.04000
N 	N 	0.80340 0.64350 0.43536 -0.07400
O 	O 	0.82084 0.54970 0.25319 -0.39700
O 	O 	0.94481 0.68670 0.25063 -0.37900
C 	C 	0.83030 0.76100 0.46859 -0.11200
H 	H 	0.83240 0.77720 0.44780 0.08200
O 	O 	0.25947 0.04888 0.29486 -0.42500
O 	O 	0.44538 0.23720 0.29474 -0.40900
C 	C 	0.29963 0.06391 0.28067 0.36100
C 	C 	0.42943 0.20119 0.27935 0.35500
C 	C 	0.38965 0.16998 0.29790 -0.04700
C 	C 	0.37760 0.17995 0.33187 -0.07800
H 	H 	0.39370 0.20530 0.34310 0.07900
C 	C 	0.34108 0.15141 0.34878 0.10000
C 	C 	0.36578 0.13214 0.28162 -0.00700
H 	H 	0.37470 0.12510 0.25900 0.06200
C 	C 	0.32891 0.10468 0.29870 -0.04600
C 	C 	0.31612 0.11416 0.33251 -0.07700
H 	H 	0.29110 0.09570 0.34410 0.08400
C 	C 	0.33960 0.19750 0.40413 0.00300
H 	H 	0.35500 0.22590 0.39710 0.03600
C 	C 	0.32350 0.18604 0.43649 0.03600
C 	C 	0.32280 0.21350 0.46873 0.06400
N 	N 	0.32904 0.16010 0.38448 -0.09300
N 	N 	0.30470 0.12764 0.40337 -0.04700
N 	N 	0.30340 0.14350 0.43536 -0.08000
O 	O 	0.32084 0.04970 0.25319 -0.41300
O 	O 	0.44481 0.18670 0.25063 -0.40600
C 	C 	0.33030 0.26100 0.46859 -0.11300
H 	H 	0.33240 0.27720 0.44780 0.07600
O 	O 	0.25947 0.54888 0.79486 -0.41500
O 	O 	0.44538 0.73720 0.79474 -0.40700
C 	C 	0.29963 0.56391 0.78067 0.35900
C 	C 	0.42943 0.70119 0.77935 0.35400
C 	C 	0.38965 0.66998 0.79790 -0.04200
C 	C 	0.37760 0.67995 0.83187 -0.08100
H 	H 	0.39370 0.70530 0.84310 0.08200
C 	C 	0.34108 0.65141 0.84878 0.10500
C 	C 	0.36578 0.63214 0.78162 -0.01000
H 	H 	0.37470 0.62510 0.75900 0.06600
C 	C 	0.32891 0.60468 0.79870 -0.03900
C 	C 	0.31612 0.61416 0.83251 -0.08100
H 	H 	0.29110 0.59570 0.84410 0.09000
C 	C 	0.33960 0.69750 0.90413 0.00500
H 	H 	0.35500 0.72590 0.89710 0.03700
C 	C 	0.32350 0.68604 0.93649 0.03700
C 	C 	0.32280 0.71350 0.96873 0.06700
N 	N 	0.32904 0.66010 0.88448 -0.09300
N 	N 	0.30470 0.62764 0.90337 -0.04300
N 	N 	0.30340 0.64350 0.93536 -0.07700
O 	O 	0.32084 0.54970 0.75319 -0.40200
O 	O 	0.44481 0.68670 0.75063 -0.40300
C 	C 	0.33030 0.76100 0.96859 -0.11200
H 	H 	0.33240 0.77720 0.94780 0.07800
O 	O 	0.24053 0.95112 0.79486 -0.39400
O 	O 	0.05462 0.76280 0.79474 -0.42000
C 	C 	0.20037 0.93609 0.78067 0.35500
C 	C 	0.07057 0.79881 0.77935 0.35400
C 	C 	0.11035 0.83002 0.79790 -0.04600
C 	C 	0.12240 0.82005 0.83187 -0.08100
H 	H 	0.10630 0.79470 0.84310 0.07600
C 	C 	0.15892 0.84859 0.84878 0.10500
C 	C 	0.13422 0.86786 0.78162 -0.01100
H 	H 	0.12530 0.87490 0.75900 0.06500
C 	C 	0.17109 0.89532 0.79870 -0.03500
C 	C 	0.18388 0.88584 0.83251 -0.08300
H 	H 	0.20890 0.90430 0.84410 0.09700
C 	C 	0.16040 0.80250 0.90413 0.00500
H 	H 	0.14500 0.77410 0.89710 0.03200
C 	C 	0.17650 0.81396 0.93649 0.03400
C 	C 	0.17720 0.78650 0.96873 0.06800
N 	N 	0.17096 0.83990 0.88448 -0.09400
N 	N 	0.19530 0.87236 0.90337 -0.03900
N 	N 	0.19660 0.85650 0.93536 -0.07400
O 	O 	0.17916 0.95030 0.75319 -0.38600
O 	O 	0.05519 0.81330 0.75063 -0.41300
C 	C 	0.16970 0.73900 0.96859 -0.11700
H 	H 	0.16760 0.72280 0.94780 0.07500
O 	O 	0.24053 0.45112 0.29486 -0.41400
O 	O 	0.05462 0.26280 0.29474 -0.42200
C 	C 	0.20037 0.43609 0.28067 0.36000
C 	C 	0.07057 0.29881 0.27935 0.35600
C 	C 	0.11035 0.33002 0.29790 -0.05200
C 	C 	0.12240 0.32005 0.33187 -0.07800
H 	H 	0.10630 0.29470 0.34310 0.07400
C 	C 	0.15892 0.34859 0.34878 0.09900
C 	C 	0.13422 0.36786 0.28162 -0.00700
H 	H 	0.12530 0.37490 0.25900 0.06100
C 	C 	0.17109 0.39532 0.29870 -0.04400
C 	C 	0.18388 0.38584 0.33251 -0.07800
H 	H 	0.20890 0.40430 0.34410 0.09000
C 	C 	0.16040 0.30250 0.40413 0.00300
H 	H 	0.14500 0.27410 0.39710 0.03100
C 	C 	0.17650 0.31396 0.43649 0.03300
C 	C 	0.17720 0.28650 0.46873 0.06500
N 	N 	0.17096 0.33990 0.38448 -0.09400
N 	N 	0.19530 0.37236 0.40337 -0.04400
N 	N 	0.19660 0.35650 0.43536 -0.07700
O 	O 	0.17916 0.45030 0.25319 -0.40700
O 	O 	0.05519 0.31330 0.25063 -0.41600
C 	C 	0.16970 0.23900 0.46859 -0.11800
H 	H 	0.16760 0.22280 0.44780 0.07300
O 	O 	0.74053 0.95112 0.29486 -0.39100
O 	O 	0.55462 0.76280 0.29474 -0.40700
C 	C 	0.70037 0.93609 0.28067 0.35300
C 	C 	0.57057 0.79881 0.27935 0.35300
C 	C 	0.61035 0.83002 0.29790 -0.03700
C 	C 	0.62240 0.82005 0.33187 -0.08500
H 	H 	0.60630 0.79470 0.34310 0.08300
C 	C 	0.65892 0.84859 0.34878 0.11300
C 	C 	0.63422 0.86786 0.28162 -0.01600
H 	H 	0.62530 0.87490 0.25900 0.07100
C 	C 	0.67109 0.89532 0.29870 -0.02700
C 	C 	0.68388 0.88584 0.33251 -0.08600
H 	H 	0.70890 0.90430 0.34410 0.10100
C 	C 	0.66040 0.80250 0.40413 0.00800
H 	H 	0.64500 0.77410 0.39710 0.03500
C 	C 	0.67650 0.81396 0.43649 0.03700
C 	C 	0.67720 0.78650 0.46873 0.07000
N 	N 	0.67096 0.83990 0.38448 -0.09300
N 	N 	0.69530 0.87236 0.40337 -0.03600
N 	N 	0.69660 0.85650 0.43536 -0.07100
O 	O 	0.67916 0.95030 0.25319 -0.38200
O 	O 	0.55519 0.81330 0.25063 -0.40000
C 	C 	0.66970 0.73900 0.46859 -0.11700
H 	H 	0.66760 0.72280 0.44780 0.07800
O 	O 	0.74053 0.45112 0.79486 -0.41100
O 	O 	0.55462 0.26280 0.79474 -0.40900
C 	C 	0.70037 0.43609 0.78067 0.35800
C 	C 	0.57057 0.29881 0.77935 0.35400
C 	C 	0.61035 0.33002 0.79790 -0.04200
C 	C 	0.62240 0.32005 0.83187 -0.08100
H 	H 	0.60630 0.29470 0.84310 0.08100
C 	C 	0.65892 0.34859 0.84878 0.10700
C 	C 	0.63422 0.36786 0.78162 -0.01100
H 	H 	0.62530 0.37490 0.75900 0.06600
C 	C 	0.67109 0.39532 0.79870 -0.03700
C 	C 	0.68388 0.38584 0.83251 -0.08200
H 	H 	0.70890 0.40430 0.84410 0.09400
C 	C 	0.66040 0.30250 0.90413 0.00600
H 	H 	0.64500 0.27410 0.89710 0.03400
C 	C 	0.67650 0.31396 0.93649 0.03600
C 	C 	0.67720 0.28650 0.96873 0.06800
N 	N 	0.67096 0.33990 0.88448 -0.09300
N 	N 	0.69530 0.37236 0.90337 -0.04100
N 	N 	0.69660 0.35650 0.93536 -0.07400
O 	O 	0.67916 0.45030 0.75319 -0.40200
O 	O 	0.55519 0.31330 0.75063 -0.40300
C 	C 	0.66970 0.23900 0.96859 -0.11500
H 	H 	0.66760 0.22280 0.94780 0.07600
O 	O 	0.75947 0.95112 0.79486 -0.39200
O 	O 	0.94538 0.76280 0.79474 -0.38300
C 	C 	0.79963 0.93609 0.78067 0.35200
C 	C 	0.92943 0.79881 0.77935 0.34700
C 	C 	0.88965 0.83002 0.79790 -0.02600
C 	C 	0.87760 0.82005 0.83187 -0.08900
H 	H 	0.89370 0.79470 0.84310 0.09000
C 	C 	0.84108 0.84859 0.84878 0.11900
C 	C 	0.86578 0.86786 0.78162 -0.02000
H 	H 	0.87470 0.87490 0.75900 0.07700
C 	C 	0.82891 0.89532 0.79870 -0.02200
C 	C 	0.81612 0.88584 0.83251 -0.08900
H 	H 	0.79110 0.90430 0.84410 0.10100
C 	C 	0.83960 0.80250 0.90413 0.00900
H 	H 	0.85500 0.77410 0.89710 0.03900
C 	C 	0.82350 0.81396 0.93649 0.04000
C 	C 	0.82280 0.78650 0.96873 0.07200
N 	N 	0.82904 0.83990 0.88448 -0.09300
N 	N 	0.80470 0.87236 0.90337 -0.03500
N 	N 	0.80340 0.85650 0.93536 -0.07000
O 	O 	0.82084 0.95030 0.75319 -0.37700
O 	O 	0.94481 0.81330 0.75063 -0.37600
C 	C 	0.83030 0.73900 0.96859 -0.11300
H 	H 	0.83240 0.72280 0.94780 0.08100
O 	O 	0.75947 0.45112 0.29486 -0.41200
O 	O 	0.94538 0.26280 0.29474 -0.38500
C 	C 	0.79963 0.43609 0.28067 0.35700
C 	C 	0.92943 0.29881 0.27935 0.34900
C 	C 	0.88965 0.33002 0.29790 -0.03100
C 	C 	0.87760 0.32005 0.33187 -0.08500
H 	H 	0.89370 0.29470 0.34310 0.08800
C 	C 	0.84108 0.34859 0.34878 0.11300
C 	C 	0.86578 0.36786 0.28162 -0.01500
H 	H 	0.87470 0.37490 0.25900 0.07200
C 	C 	0.82891 0.39532 0.29870 -0.03100
C 	C 	0.81612 0.38584 0.33251 -0.08500
H 	H 	0.79110 0.40430 0.34410 0.09500
C 	C 	0.83960 0.30250 0.40413 0.00800
H 	H 	0.85500 0.27410 0.39710 0.03800
C 	C 	0.82350 0.31396 0.43649 0.03900
C 	C 	0.82280 0.28650 0.46873 0.06900
N 	N 	0.82904 0.33990 0.38448 -0.09300
N 	N 	0.80470 0.37236 0.40337 -0.04000
N 	N 	0.80340 0.35650 0.43536 -0.07400
O 	O 	0.82084 0.45030 0.25319 -0.39700
O 	O 	0.94481 0.31330 0.25063 -0.37900
C 	C 	0.83030 0.23900 0.46859 -0.11400
H 	H 	0.83240 0.22280 0.44780 0.07900
O 	O 	0.25947 0.95112 0.29486 -0.39500
O 	O 	0.44538 0.76280 0.29474 -0.40700
C 	C 	0.29963 0.93609 0.28067 0.35400
C 	C 	0.42943 0.79881 0.27935 0.35300
C 	C 	0.38965 0.83002 0.29790 -0.03800
C 	C 	0.37760 0.82005 0.33187 -0.08300
H 	H 	0.39370 0.79470 0.34310 0.08300
C 	C 	0.34108 0.84859 0.34878 0.11000
C 	C 	0.36578 0.86786 0.28162 -0.01400
H 	H 	0.37470 0.87490 0.25900 0.07000
C 	C 	0.32891 0.89532 0.29870 -0.03000
C 	C 	0.31612 0.88584 0.33251 -0.08500
H 	H 	0.29110 0.90430 0.34410 0.09700
C 	C 	0.33960 0.80250 0.40413 0.00700
H 	H 	0.35500 0.77410 0.39710 0.03500
C 	C 	0.32350 0.81396 0.43649 0.03700
C 	C 	0.32280 0.78650 0.46873 0.06900
N 	N 	0.32904 0.83990 0.38448 -0.09300
N 	N 	0.30470 0.87236 0.40337 -0.03900
N 	N 	0.30340 0.85650 0.43536 -0.07300
O 	O 	0.32084 0.95030 0.25319 -0.38200
O 	O 	0.44481 0.81330 0.25063 -0.40000
C 	C 	0.33030 0.73900 0.46859 -0.11600
H 	H 	0.33240 0.72280 0.44780 0.07800
O 	O 	0.25947 0.45112 0.79486 -0.41500
O 	O 	0.44538 0.26280 0.79474 -0.40900
C 	C 	0.29963 0.43609 0.78067 0.35900
C 	C 	0.42943 0.29881 0.77935 0.35500
C 	C 	0.38965 0.33002 0.79790 -0.04300
C 	C 	0.37760 0.32005 0.83187 -0.08000
H 	H 	0.39370 0.29470 0.84310 0.08000
C 	C 	0.34108 0.34859 0.84878 0.10400
C 	C 	0.36578 0.36786 0.78162 -0.00900
H 	H 	0.37470 0.37490 0.75900 0.06600
C 	C 	0.32891 0.39532 0.79870 -0.03900
C 	C 	0.31612 0.38584 0.83251 -0.08000
H 	H 	0.29110 0.40430 0.84410 0.09000
C 	C 	0.33960 0.30250 0.90413 0.00500
H 	H 	0.35500 0.27410 0.89710 0.03400
C 	C 	0.32350 0.31396 0.93649 0.03600
C 	C 	0.32280 0.28650 0.96873 0.06700
N 	N 	0.32904 0.33990 0.88448 -0.09300
N 	N 	0.30470 0.37236 0.90337 -0.04300
N 	N 	0.30340 0.35650 0.93536 -0.07700
O 	O 	0.32084 0.45030 0.75319 -0.40200
O 	O 	0.44481 0.31330 0.75063 -0.40300
C 	C 	0.33030 0.23900 0.96859 -0.11400
H 	H 	0.33240 0.22280 0.94780 0.07600
O 	O 	0.24053 0.04888 0.79486 -0.42500
O 	O 	0.05462 0.23720 0.79474 -0.42100
C 	C 	0.20037 0.06391 0.78067 0.36100
C 	C 	0.07057 0.20119 0.77935 0.35700
C 	C 	0.11035 0.16998 0.79790 -0.05600
C 	C 	0.12240 0.17995 0.83187 -0.07600
H 	H 	0.10630 0.20530 0.84310 0.07300
C 	C 	0.15892 0.15141 0.84878 0.09500
C 	C 	0.13422 0.13214 0.78162 -0.00400
H 	H 	0.12530 0.12510 0.75900 0.05700
C 	C 	0.17109 0.10468 0.79870 -0.05100
C 	C 	0.18388 0.11416 0.83251 -0.07600
H 	H 	0.20890 0.09570 0.84410 0.08400
C 	C 	0.16040 0.19750 0.90413 0.00200
H 	H 	0.14500 0.22590 0.89710 0.03200
C 	C 	0.17650 0.18604 0.93649 0.03300
C 	C 	0.17720 0.21350 0.96873 0.06300
N 	N 	0.17096 0.16010 0.88448 -0.09400
N 	N 	0.19530 0.12764 0.90337 -0.04800
N 	N 	0.19660 0.14350 0.93536 -0.08100
O 	O 	0.17916 0.04970 0.75319 -0.41700
O 	O 	0.05519 0.18670 0.75063 -0.41900
C 	C 	0.16970 0.26100 0.96859 -0.11400
H 	H 	0.16760 0.27720 0.94780 0.07400
O 	O 	0.24053 0.54888 0.29486 -0.41400
O 	O 	0.05462 0.73720 0.29474 -0.42000
C 	C 	0.20037 0.56391 0.28067 0.36000
C 	C 	0.07057 0.70119 0.27935 0.35500
C 	C 	0.11035 0.66998 0.29790 -0.05100
C 	C 	0.12240 0.67995 0.33187 -0.07800
H 	H 	0.10630 0.70530 0.34310 0.07500
C 	C 	0.15892 0.65141 0.34878 0.10000
C 	C 	0.13422 0.63214 0.28162 -0.00700
H 	H 	0.12530 0.62510 0.25900 0.06100
C 	C 	0.17109 0.60468 0.29870 -0.04400
C 	C 	0.18388 0.61416 0.33251 -0.07900
H 	H 	0.20890 0.59570 0.34410 0.09000
C 	C 	0.16040 0.69750 0.40413 0.00300
H 	H 	0.14500 0.72590 0.39710 0.03300
C 	C 	0.17650 0.68604 0.43649 0.03400
C 	C 	0.17720 0.71350 0.46873 0.06500
N 	N 	0.17096 0.66010 0.38448 -0.09400
N 	N 	0.19530 0.62764 0.40337 -0.04400
N 	N 	0.19660 0.64350 0.43536 -0.07700
O 	O 	0.17916 0.54970 0.25319 -0.40700
O 	O 	0.05519 0.68670 0.25063 -0.41600
C 	C 	0.16970 0.76100 0.46859 -0.11600
H 	H 	0.16760 0.77720 0.44780 0.07600
O 	O 	0.74053 0.04888 0.29486 -0.42200
O 	O 	0.55462 0.23720 0.29474 -0.40900
C 	C 	0.70037 0.06391 0.28067 0.35900
C 	C 	0.57057 0.20119 0.27935 0.35500
C 	C 	0.61035 0.16998 0.29790 -0.04600
C 	C 	0.62240 0.17995 0.33187 -0.07900
H 	H 	0.60630 0.20530 0.34310 0.08000
C 	C 	0.65892 0.15141 0.34878 0.10200
C 	C 	0.63422 0.13214 0.28162 -0.00800
H 	H 	0.62530 0.12510 0.25900 0.06300
C 	C 	0.67109 0.10468 0.29870 -0.04400
C 	C 	0.68388 0.11416 0.33251 -0.07900
H 	H 	0.70890 0.09570 0.34410 0.08800
C 	C 	0.66040 0.19750 0.40413 0.00400
H 	H 	0.64500 0.22590 0.39710 0.03500
C 	C 	0.67650 0.18604 0.43649 0.03600
C 	C 	0.67720 0.21350 0.46873 0.06500
N 	N 	0.67096 0.16010 0.38448 -0.09300
N 	N 	0.69530 0.12764 0.40337 -0.04500
N 	N 	0.69660 0.14350 0.43536 -0.07800
O 	O 	0.67916 0.04970 0.25319 -0.41200
O 	O 	0.55519 0.18670 0.25063 -0.40600
C 	C 	0.66970 0.26100 0.46859 -0.11400
H 	H 	0.66760 0.27720 0.44780 0.07700
O 	O 	0.74053 0.54888 0.79486 -0.41100
O 	O 	0.55462 0.73720 0.79474 -0.40700
C 	C 	0.70037 0.56391 0.78067 0.35800
C 	C 	0.57057 0.70119 0.77935 0.35400
C 	C 	0.61035 0.66998 0.79790 -0.04100
C 	C 	0.62240 0.67995 0.83187 -0.08200
H 	H 	0.60630 0.70530 0.84310 0.08200
C 	C 	0.65892 0.65141 0.84878 0.10700
C 	C 	0.63422 0.63214 0.78162 -0.01200
H 	H 	0.62530 0.62510 0.75900 0.06600
C 	C 	0.67109 0.60468 0.79870 -0.03600
C 	C 	0.68388 0.61416 0.83251 -0.08200
H 	H 	0.70890 0.59570 0.84410 0.09400
C 	C 	0.66040 0.69750 0.90413 0.00600
H 	H 	0.64500 0.72590 0.89710 0.03600
C 	C 	0.67650 0.68604 0.93649 0.03700
C 	C 	0.67720 0.71350 0.96873 0.06800
N 	N 	0.67096 0.66010 0.88448 -0.09300
N 	N 	0.69530 0.62764 0.90337 -0.04100
N 	N 	0.69660 0.64350 0.93536 -0.07500
O 	O 	0.67916 0.54970 0.75319 -0.40200
O 	O 	0.55519 0.68670 0.75063 -0.40300
C 	C 	0.66970 0.76100 0.96859 -0.11300
H 	H 	0.66760 0.77720 0.94780 0.07900
O 	O 	0.24053 0.95112 0.20514 -0.39400
O 	O 	0.05462 0.76280 0.20526 -0.42000
C 	C 	0.20037 0.93609 0.21933 0.35500
C 	C 	0.07057 0.79881 0.22065 0.35400
C 	C 	0.11035 0.83002 0.20210 -0.04600
C 	C 	0.12240 0.82005 0.16813 -0.08100
H 	H 	0.10630 0.79470 0.15690 0.07600
C 	C 	0.15892 0.84859 0.15122 0.10500
C 	C 	0.13422 0.86786 0.21838 -0.01100
H 	H 	0.12530 0.87490 0.24100 0.06500
C 	C 	0.17109 0.89532 0.20130 -0.03500
C 	C 	0.18388 0.88584 0.16749 -0.08300
H 	H 	0.20890 0.90430 0.15590 0.09600
C 	C 	0.16040 0.80250 0.09587 0.00500
H 	H 	0.14500 0.77410 0.10290 0.03200
C 	C 	0.17650 0.81396 0.06351 0.03400
C 	C 	0.17720 0.78650 0.03127 0.06700
N 	N 	0.17096 0.83990 0.11552 -0.09400
N 	N 	0.19530 0.87236 0.09663 -0.04000
N 	N 	0.19660 0.85650 0.06464 -0.07400
O 	O 	0.17916 0.95030 0.24681 -0.38700
O 	O 	0.05519 0.81330 0.24937 -0.41300
C 	C 	0.16970 0.73900 0.03141 -0.11800
H 	H 	0.16760 0.72280 0.05220 0.07500
O 	O 	0.24053 0.45112 0.70514 -0.41400
O 	O 	0.05462 0.26280 0.70526 -0.42200
C 	C 	0.20037 0.43609 0.71933 0.36000
C 	C 	0.07057 0.29881 0.72065 0.35600
C 	C 	0.11035 0.33002 0.70210 -0.05200
C 	C 	0.12240 0.32005 0.66813 -0.07800
H 	H 	0.10630 0.29470 0.65690 0.07400
C 	C 	0.15892 0.34859 0.65122 0.09900
C 	C 	0.13422 0.36786 0.71838 -0.00700
H 	H 	0.12530 0.37490 0.74100 0.06100
C 	C 	0.17109 0.39532 0.70130 -0.04400
C 	C 	0.18388 0.38584 0.66749 -0.07800
H 	H 	0.20890 0.40430 0.65590 0.09000
C 	C 	0.16040 0.30250 0.59587 0.00300
H 	H 	0.14500 0.27410 0.60290 0.03100
C 	C 	0.17650 0.31396 0.56351 0.03300
C 	C 	0.17720 0.28650 0.53127 0.06500
N 	N 	0.17096 0.33990 0.61552 -0.09400
N 	N 	0.19530 0.37236 0.59663 -0.04400
N 	N 	0.19660 0.35650 0.56464 -0.07700
O 	O 	0.17916 0.45030 0.74681 -0.40700
O 	O 	0.05519 0.31330 0.74937 -0.41600
C 	C 	0.16970 0.23900 0.53141 -0.11800
H 	H 	0.16760 0.22280 0.55220 0.07300
O 	O 	0.74053 0.95112 0.70514 -0.39100
O 	O 	0.55462 0.76280 0.70526 -0.40700
C 	C 	0.70037 0.93609 0.71933 0.35300
C 	C 	0.57057 0.79881 0.72065 0.35300
C 	C 	0.61035 0.83002 0.70210 -0.03700
C 	C 	0.62240 0.82005 0.66813 -0.08500
H 	H 	0.60630 0.79470 0.65690 0.08300
C 	C 	0.65892 0.84859 0.65122 0.11300
C 	C 	0.63422 0.86786 0.71838 -0.01600
H 	H 	0.62530 0.87490 0.74100 0.07100
C 	C 	0.67109 0.89532 0.70130 -0.02700
C 	C 	0.68388 0.88584 0.66749 -0.08600
H 	H 	0.70890 0.90430 0.65590 0.10100
C 	C 	0.66040 0.80250 0.59587 0.00800
H 	H 	0.64500 0.77410 0.60290 0.03500
C 	C 	0.67650 0.81396 0.56351 0.03700
C 	C 	0.67720 0.78650 0.53127 0.07000
N 	N 	0.67096 0.83990 0.61552 -0.09300
N 	N 	0.69530 0.87236 0.59663 -0.03600
N 	N 	0.69660 0.85650 0.56464 -0.07100
O 	O 	0.67916 0.95030 0.74681 -0.38200
O 	O 	0.55519 0.81330 0.74937 -0.40000
C 	C 	0.66970 0.73900 0.53141 -0.11700
H 	H 	0.66760 0.72280 0.55220 0.07800
O 	O 	0.74053 0.45112 0.20514 -0.41100
O 	O 	0.55462 0.26280 0.20526 -0.40900
C 	C 	0.70037 0.43609 0.21933 0.35800
C 	C 	0.57057 0.29881 0.22065 0.35400
C 	C 	0.61035 0.33002 0.20210 -0.04200
C 	C 	0.62240 0.32005 0.16813 -0.08100
H 	H 	0.60630 0.29470 0.15690 0.08100
C 	C 	0.65892 0.34859 0.15122 0.10600
C 	C 	0.63422 0.36786 0.21838 -0.01100
H 	H 	0.62530 0.37490 0.24100 0.06600
C 	C 	0.67109 0.39532 0.20130 -0.03700
C 	C 	0.68388 0.38584 0.16749 -0.08200
H 	H 	0.70890 0.40430 0.15590 0.09400
C 	C 	0.66040 0.30250 0.09587 0.00600
H 	H 	0.64500 0.27410 0.10290 0.03400
C 	C 	0.67650 0.31396 0.06351 0.03600
C 	C 	0.67720 0.28650 0.03127 0.06800
N 	N 	0.67096 0.33990 0.11552 -0.09300
N 	N 	0.69530 0.37236 0.09663 -0.04100
N 	N 	0.69660 0.35650 0.06464 -0.07500
O 	O 	0.67916 0.45030 0.24681 -0.40200
O 	O 	0.55519 0.31330 0.24937 -0.40300
C 	C 	0.66970 0.23900 0.03141 -0.11600
H 	H 	0.66760 0.22280 0.05220 0.07600
O 	O 	0.75947 0.04888 0.20514 -0.42200
O 	O 	0.94538 0.23720 0.20526 -0.38400
C 	C 	0.79963 0.06391 0.21933 0.35800
C 	C 	0.92943 0.20119 0.22065 0.35000
C 	C 	0.88965 0.16998 0.20210 -0.03500
C 	C 	0.87760 0.17995 0.16813 -0.08300
H 	H 	0.89370 0.20530 0.15690 0.08700
C 	C 	0.84108 0.15141 0.15122 0.10800
C 	C 	0.86578 0.13214 0.21838 -0.01300
H 	H 	0.87470 0.12510 0.24100 0.06900
C 	C 	0.82891 0.10468 0.20130 -0.03800
C 	C 	0.81612 0.11416 0.16749 -0.08200
H 	H 	0.79110 0.09570 0.15590 0.08900
C 	C 	0.83960 0.19750 0.09587 0.00600
H 	H 	0.85500 0.22590 0.10290 0.03900
C 	C 	0.82350 0.18604 0.06351 0.03900
C 	C 	0.82280 0.21350 0.03127 0.06700
N 	N 	0.82904 0.16010 0.11552 -0.09300
N 	N 	0.80470 0.12764 0.09663 -0.04400
N 	N 	0.80340 0.14350 0.06464 -0.07800
O 	O 	0.82084 0.04970 0.24681 -0.40700
O 	O 	0.94481 0.18670 0.24937 -0.38100
C 	C 	0.83030 0.26100 0.03141 -0.11100
H 	H 	0.83240 0.27720 0.05220 0.08000
O 	O 	0.75947 0.54888 0.70514 -0.41200
O 	O 	0.94538 0.73720 0.70526 -0.38300
C 	C 	0.79963 0.56391 0.71933 0.35700
C 	C 	0.92943 0.70119 0.72065 0.34800
C 	C 	0.88965 0.66998 0.70210 -0.03000
C 	C 	0.87760 0.67995 0.66813 -0.08600
H 	H 	0.89370 0.70530 0.65690 0.08900
C 	C 	0.84108 0.65141 0.65122 0.11300
C 	C 	0.86578 0.63214 0.71838 -0.01600
H 	H 	0.87470 0.62510 0.74100 0.07300
C 	C 	0.82891 0.60468 0.70130 -0.03100
C 	C 	0.81612 0.61416 0.66749 -0.08500
H 	H 	0.79110 0.59570 0.65590 0.09500
C 	C 	0.83960 0.69750 0.59587 0.00700
H 	H 	0.85500 0.72590 0.60290 0.04000
C 	C 	0.82350 0.68604 0.56351 0.04000
C 	C 	0.82280 0.71350 0.53127 0.06900
N 	N 	0.82904 0.66010 0.61552 -0.09300
N 	N 	0.80470 0.62764 0.59663 -0.04000
N 	N 	0.80340 0.64350 0.56464 -0.07400
O 	O 	0.82084 0.54970 0.74681 -0.39700
O 	O 	0.94481 0.68670 0.74937 -0.37900
C 	C 	0.83030 0.76100 0.53141 -0.11200
H 	H 	0.83240 0.77720 0.55220 0.08200
O 	O 	0.25947 0.04888 0.70514 -0.42500
O 	O 	0.44538 0.23720 0.70526 -0.40900
C 	C 	0.29963 0.06391 0.71933 0.36100
C 	C 	0.42943 0.20119 0.72065 0.35500
C 	C 	0.38965 0.16998 0.70210 -0.04700
C 	C 	0.37760 0.17995 0.66813 -0.07800
H 	H 	0.39370 0.20530 0.65690 0.07900
C 	C 	0.34108 0.15141 0.65122 0.10000
C 	C 	0.36578 0.13214 0.71838 -0.00700
H 	H 	0.37470 0.12510 0.74100 0.06200
C 	C 	0.32891 0.10468 0.70130 -0.04600
C 	C 	0.31612 0.11416 0.66749 -0.07700
H 	H 	0.29110 0.09570 0.65590 0.08400
C 	C 	0.33960 0.19750 0.59587 0.00300
H 	H 	0.35500 0.22590 0.60290 0.03600
C 	C 	0.32350 0.18604 0.56351 0.03600
C 	C 	0.32280 0.21350 0.53127 0.06400
N 	N 	0.32904 0.16010 0.61552 -0.09300
N 	N 	0.30470 0.12764 0.59663 -0.04700
N 	N 	0.30340 0.14350 0.56464 -0.08000
O 	O 	0.32084 0.04970 0.74681 -0.41300
O 	O 	0.44481 0.18670 0.74937 -0.40600
C 	C 	0.33030 0.26100 0.53141 -0.11300
H 	H 	0.33240 0.27720 0.55220 0.07600
O 	O 	0.25947 0.54888 0.20514 -0.41500
O 	O 	0.44538 0.73720 0.20526 -0.40700
C 	C 	0.29963 0.56391 0.21933 0.35900
C 	C 	0.42943 0.70119 0.22065 0.35400
C 	C 	0.38965 0.66998 0.20210 -0.04200
C 	C 	0.37760 0.67995 0.16813 -0.08100
H 	H 	0.39370 0.70530 0.15690 0.08200
C 	C 	0.34108 0.65141 0.15122 0.10500
C 	C 	0.36578 0.63214 0.21838 -0.01000
H 	H 	0.37470 0.62510 0.24100 0.06600
C 	C 	0.32891 0.60468 0.20130 -0.03900
C 	C 	0.31612 0.61416 0.16749 -0.08100
H 	H 	0.29110 0.59570 0.15590 0.09000
C 	C 	0.33960 0.69750 0.09587 0.00500
H 	H 	0.35500 0.72590 0.10290 0.03700
C 	C 	0.32350 0.68604 0.06351 0.03700
C 	C 	0.32280 0.71350 0.03127 0.06600
N 	N 	0.32904 0.66010 0.11552 -0.09300
N 	N 	0.30470 0.62764 0.09663 -0.04300
N 	N 	0.30340 0.64350 0.06464 -0.07700
O 	O 	0.32084 0.54970 0.24681 -0.40200
O 	O 	0.44481 0.68670 0.24937 -0.40300
C 	C 	0.33030 0.76100 0.03141 -0.11300
H 	H 	0.33240 0.77720 0.05220 0.07800
Cu	Cu	0.00000 0.27981 0.22391 0.88200
Cu	Cu	0.00000 0.77981 0.72391 0.88300
Cu	Cu	0.50000 0.27981 0.72391 0.90400
Cu	Cu	0.50000 0.77981 0.22391 0.90500
Cu	Cu	0.00000 0.72019 0.22391 0.88200
Cu	Cu	0.00000 0.22019 0.72391 0.88100
Cu	Cu	0.50000 0.72019 0.72391 0.90400
Cu	Cu	0.50000 0.22019 0.22391 0.90300
Cu	Cu	0.00000 0.27981 0.77609 0.88200
Cu	Cu	0.00000 0.77981 0.27609 0.88300
Cu	Cu	0.50000 0.27981 0.27609 0.90400
Cu	Cu	0.50000 0.77981 0.77609 0.90500
Cu	Cu	-0.00000 0.72019 0.77609 0.88200
Cu	Cu	-0.00000 0.22019 0.27609 0.88100
Cu	Cu	0.50000 0.72019 0.27609 0.90400
Cu	Cu	0.50000 0.22019 0.77609 0.90300
Cu	Cu	0.28657 0.00000 0.22531 0.88700
Cu	Cu	0.28657 0.50000 0.72531 0.90500
Cu	Cu	0.78657 -0.00000 0.72531 0.88800
Cu	Cu	0.78657 0.50000 0.22531 0.90700
Cu	Cu	0.71343 0.00000 0.22531 0.88700
Cu	Cu	0.71343 0.50000 0.72531 0.90500
Cu	Cu	0.21343 -0.00000 0.72531 0.88500
Cu	Cu	0.21343 0.50000 0.22531 0.90400
Cu	Cu	0.71343 -0.00000 0.77469 0.88700
Cu	Cu	0.71343 0.50000 0.27469 0.90500
Cu	Cu	0.21343 -0.00000 0.27469 0.88500
Cu	Cu	0.21343 0.50000 0.77469 0.90400
Cu	Cu	0.28657 -0.00000 0.77469 0.88700
Cu	Cu	0.28657 0.50000 0.27469 0.90500
Cu	Cu	0.78657 -0.00000 0.27469 0.88800
Cu	Cu	0.78657 0.50000 0.77469 0.90700
C 	C 	0.18060 0.18770 -0.00000 -0.12000
H 	H 	0.18490 0.15500 -0.00000 0.09100
C 	C 	0.16510 0.28620 -0.00000 0.03000
H 	H 	0.15910 0.31870 -0.00000 0.02200
C 	C 	0.18060 0.68770 0.50000 -0.12000
H 	H 	0.18490 0.65500 0.50000 0.09500
C 	C 	0.16510 0.78620 0.50000 0.03300
H 	H 	0.15910 0.81870 0.50000 0.02600
C 	C 	0.68060 0.18770 0.50000 -0.11800
H 	H 	0.68490 0.15500 0.50000 0.09400
C 	C 	0.66510 0.28620 0.50000 0.03400
H 	H 	0.65910 0.31870 0.50000 0.02700
C 	C 	0.68060 0.68770 -0.00000 -0.11900
H 	H 	0.68490 0.65500 -0.00000 0.09900
C 	C 	0.66510 0.78620 -0.00000 0.03500
H 	H 	0.65910 0.81870 -0.00000 0.03100
C 	C 	0.81940 0.81230 -0.00000 -0.11900
H 	H 	0.81510 0.84500 -0.00000 0.10400
C 	C 	0.83490 0.71380 -0.00000 0.03900
H 	H 	0.84090 0.68130 -0.00000 0.03100
C 	C 	0.81940 0.31230 0.50000 -0.11700
H 	H 	0.81510 0.34500 0.50000 0.10000
C 	C 	0.83490 0.21380 0.50000 0.03800
H 	H 	0.84090 0.18130 0.50000 0.02700
C 	C 	0.31940 0.81230 0.50000 -0.11900
H 	H 	0.31510 0.84500 0.50000 0.10100
C 	C 	0.33490 0.71380 0.50000 0.03700
H 	H 	0.34090 0.68130 0.50000 0.02600
C 	C 	0.31940 0.31230 -0.00000 -0.11900
H 	H 	0.31510 0.34500 -0.00000 0.09700
C 	C 	0.33490 0.21380 -0.00000 0.03400
H 	H 	0.34090 0.18130 -0.00000 0.02300
C 	C 	0.81940 0.18770 -0.00000 -0.11600
H 	H 	0.81510 0.15500 -0.00000 0.09600
C 	C 	0.83490 0.28620 -0.00000 0.03600
H 	H 	0.84090 0.31870 -0.00000 0.03200
C 	C 	0.81940 0.68770 0.50000 -0.11600
H 	H 	0.81510 0.65500 0.50000 0.10000
C 	C 	0.83490 0.78620 0.50000 0.03800
H 	H 	0.84090 0.81870 0.50000 0.03500
C 	C 	0.31940 0.18770 0.50000 -0.11700
H 	H 	0.31510 0.15500 0.50000 0.09200
C 	C 	0.33490 0.28620 0.50000 0.03300
H 	H 	0.34090 0.31870 0.50000 0.02700
C 	C 	0.31940 0.68770 -0.00000 -0.11800
H 	H 	0.31510 0.65500 -0.00000 0.09600
C 	C 	0.33490 0.78620 -0.00000 0.03400
H 	H 	0.34090 0.81870 -0.00000 0.03000
C 	C 	0.18060 0.81230 -0.00000 -0.12200
H 	H 	0.18490 0.84500 -0.00000 0.10000
C 	C 	0.16510 0.71380 -0.00000 0.03400
H 	H 	0.15910 0.68130 -0.00000 0.02200
C 	C 	0.18060 0.31230 0.50000 -0.12100
H 	H 	0.18490 0.34500 0.50000 0.09500
C 	C 	0.16510 0.21380 0.50000 0.03300
H 	H 	0.15910 0.18130 0.50000 0.01800
C 	C 	0.68060 0.81230 0.50000 -0.12000
H 	H 	0.68490 0.84500 0.50000 0.10300
C 	C 	0.66510 0.71380 0.50000 0.03800
H 	H 	0.65910 0.68130 0.50000 0.02600
C 	C 	0.68060 0.31230 -0.00000 -0.12000
H 	H 	0.68490 0.34500 -0.00000 0.09900
C 	C 	0.66510 0.21380 -0.00000 0.03500
H 	H 	0.65910 0.18130 -0.00000 0.02300
