data_crystal

_cell_length_a 14.89660
_cell_length_b 14.89660
_cell_length_c 14.89660
_cell_angle_alpha 78.24530
_cell_angle_beta  78.24530
_cell_angle_gamma 78.24530

_symmetry_space_group_name_	'P 1'
_symmetry_space_group_name_H-M	'P 1'

loop_
_symmetry_equiv_pos_as_xyz
  x,y,z

loop_
_atom_site_label
_atom_site_type_symbol
_atom_site_fract_x
_atom_site_fract_y
_atom_site_fract_z
_atom_site_charge
Cu	Cu	0.48611 0.91873 0.48608 0.90700
Cu	Cu	0.48608 0.48611 0.91873 0.90700
Cu	Cu	0.91873 0.48608 0.48611 0.90700
Cu	Cu	0.51389 0.08127 0.51392 0.90700
Cu	Cu	0.51392 0.51389 0.08127 0.90700
Cu	Cu	0.08127 0.51392 0.51389 0.90700
H 	H 	0.77130 0.76510 0.47810 0.07500
H 	H 	0.19150 0.97970 0.50330 0.08500
H 	H 	0.97080 0.18800 0.51510 0.08700
H 	H 	0.47810 0.77130 0.76510 0.07500
H 	H 	0.50330 0.19150 0.97970 0.08500
H 	H 	0.51510 0.97080 0.18800 0.08700
H 	H 	0.76510 0.47810 0.77130 0.07500
H 	H 	0.97970 0.50330 0.19150 0.08500
H 	H 	0.18800 0.51510 0.97080 0.08700
H 	H 	0.22870 0.23490 0.52190 0.07500
H 	H 	0.80850 0.02030 0.49670 0.08500
H 	H 	0.02920 0.81200 0.48490 0.08700
H 	H 	0.52190 0.22870 0.23490 0.07500
H 	H 	0.49670 0.80850 0.02030 0.08500
H 	H 	0.48490 0.02920 0.81200 0.08700
H 	H 	0.23490 0.52190 0.22870 0.07500
H 	H 	0.02030 0.49670 0.80850 0.08500
H 	H 	0.81200 0.48490 0.02920 0.08700
C 	C 	0.22940 0.09410 0.51930 -0.03300
C 	C 	0.09420 0.23000 0.51320 -0.01200
C 	C 	0.18960 0.19400 0.51860 -0.03100
C 	C 	0.16940 0.04260 0.50810 -0.08100
C 	C 	0.32710 0.06780 0.51900 0.29500
C 	C 	0.03550 0.16880 0.51130 -0.08500
C 	C 	0.07830 0.07660 0.50310 0.10500
C 	C 	0.93900 0.66560 0.48430 0.29900
C 	C 	0.51930 0.22940 0.09410 -0.03300
C 	C 	0.51320 0.09420 0.23000 -0.01200
C 	C 	0.51860 0.18960 0.19400 -0.03100
C 	C 	0.50810 0.16940 0.04260 -0.08100
C 	C 	0.51900 0.32710 0.06780 0.29500
C 	C 	0.51130 0.03550 0.16880 -0.08500
C 	C 	0.50310 0.07830 0.07660 0.10500
C 	C 	0.48430 0.93900 0.66560 0.29900
C 	C 	0.09410 0.51930 0.22940 -0.03300
C 	C 	0.23000 0.51320 0.09420 -0.01200
C 	C 	0.19400 0.51860 0.18960 -0.03100
C 	C 	0.04260 0.50810 0.16940 -0.08100
C 	C 	0.06780 0.51900 0.32710 0.29500
C 	C 	0.16880 0.51130 0.03550 -0.08500
C 	C 	0.07660 0.50310 0.07830 0.10500
C 	C 	0.66560 0.48430 0.93900 0.29900
C 	C 	0.77060 0.90590 0.48070 -0.03300
C 	C 	0.90580 0.77000 0.48680 -0.01200
C 	C 	0.81040 0.80600 0.48140 -0.03100
C 	C 	0.83060 0.95740 0.49190 -0.08100
C 	C 	0.67290 0.93220 0.48100 0.29500
C 	C 	0.96450 0.83120 0.48870 -0.08500
C 	C 	0.92170 0.92340 0.49690 0.10500
C 	C 	0.06100 0.33440 0.51570 0.29900
C 	C 	0.48070 0.77060 0.90590 -0.03300
C 	C 	0.48680 0.90580 0.77000 -0.01200
C 	C 	0.48140 0.81040 0.80600 -0.03100
C 	C 	0.49190 0.83060 0.95740 -0.08100
C 	C 	0.48100 0.67290 0.93220 0.29500
C 	C 	0.48870 0.96450 0.83120 -0.08500
C 	C 	0.49690 0.92170 0.92340 0.10500
C 	C 	0.51570 0.06100 0.33440 0.29900
C 	C 	0.90590 0.48070 0.77060 -0.03300
C 	C 	0.77000 0.48680 0.90580 -0.01200
C 	C 	0.80600 0.48140 0.81040 -0.03100
C 	C 	0.95740 0.49190 0.83060 -0.08100
C 	C 	0.93220 0.48100 0.67290 0.29500
C 	C 	0.83120 0.48870 0.96450 -0.08500
C 	C 	0.92340 0.49690 0.92170 0.10500
C 	C 	0.33440 0.51570 0.06100 0.29900
N 	N 	0.02000 0.01700 0.50400 -0.07400
N 	N 	0.50400 0.02000 0.01700 -0.07400
N 	N 	0.01700 0.50400 0.02000 -0.07400
N 	N 	0.98000 0.98300 0.49600 -0.07400
N 	N 	0.49600 0.98000 0.98300 -0.07400
N 	N 	0.98300 0.49600 0.98000 -0.07400
O 	O 	0.38310 0.12030 0.52150 -0.39200
O 	O 	0.87770 0.61980 0.47680 -0.38200
O 	O 	0.02200 0.64300 0.50040 -0.39300
O 	O 	0.35530 0.97810 0.50550 -0.37000
O 	O 	0.52150 0.38310 0.12030 -0.39200
O 	O 	0.47680 0.87770 0.61980 -0.38200
O 	O 	0.50040 0.02200 0.64300 -0.39300
O 	O 	0.50550 0.35530 0.97810 -0.37000
O 	O 	0.12030 0.52150 0.38310 -0.39200
O 	O 	0.61980 0.47680 0.87770 -0.38200
O 	O 	0.64300 0.50040 0.02200 -0.39300
O 	O 	0.97810 0.50550 0.35530 -0.37000
O 	O 	0.61690 0.87970 0.47850 -0.39200
O 	O 	0.12230 0.38020 0.52320 -0.38200
O 	O 	0.97800 0.35700 0.49960 -0.39300
O 	O 	0.64470 0.02190 0.49450 -0.37000
O 	O 	0.47850 0.61690 0.87970 -0.39200
O 	O 	0.52320 0.12230 0.38020 -0.38200
O 	O 	0.49960 0.97800 0.35700 -0.39300
O 	O 	0.49450 0.64470 0.02190 -0.37000
O 	O 	0.87970 0.47850 0.61690 -0.39200
O 	O 	0.38020 0.52320 0.12230 -0.38200
O 	O 	0.35700 0.49960 0.97800 -0.39300
O 	O 	0.02190 0.49450 0.64470 -0.37000
