data_crystal

_cell_length_a 15.04880
_cell_length_b 15.04880
_cell_length_c 15.04880
_cell_angle_alpha 77.28640
_cell_angle_beta  77.28640
_cell_angle_gamma 77.28640

_symmetry_space_group_name_	'P 1'
_symmetry_space_group_name_H-M	'P 1'

loop_
_symmetry_equiv_pos_as_xyz
  x,y,z

loop_
_atom_site_label
_atom_site_type_symbol
_atom_site_fract_x
_atom_site_fract_y
_atom_site_fract_z
_atom_site_charge
Cu	Cu	0.58050 0.01294 0.01284 0.89800
Cu	Cu	0.01284 0.58050 0.01294 0.89800
Cu	Cu	0.01294 0.01284 0.58050 0.89800
Cu	Cu	0.41950 0.98706 0.98716 0.89800
Cu	Cu	0.98716 0.41950 0.98706 0.89800
Cu	Cu	0.98706 0.98716 0.41950 0.89800
H 	H 	0.28920 0.97620 0.25280 0.06500
H 	H 	0.29740 0.98790 0.51070 0.07000
H 	H 	0.51850 0.99230 0.32570 0.06000
H 	H 	0.46070 0.98530 0.57170 0.06000
H 	H 	0.25280 0.28920 0.97620 0.06500
H 	H 	0.51070 0.29740 0.98790 0.07000
H 	H 	0.32570 0.51850 0.99230 0.05900
H 	H 	0.57170 0.46070 0.98530 0.05900
H 	H 	0.97620 0.25280 0.28920 0.06400
H 	H 	0.98790 0.51070 0.29740 0.06900
H 	H 	0.99230 0.32570 0.51850 0.05900
H 	H 	0.98530 0.57170 0.46070 0.05900
H 	H 	0.71080 0.02380 0.74720 0.06400
H 	H 	0.70260 0.01210 0.48930 0.06900
H 	H 	0.48150 0.00770 0.67430 0.05900
H 	H 	0.53930 0.01470 0.42830 0.05900
H 	H 	0.74720 0.71080 0.02380 0.06400
H 	H 	0.48930 0.70260 0.01210 0.06900
H 	H 	0.67430 0.48150 0.00770 0.05900
H 	H 	0.42830 0.53930 0.01470 0.05900
H 	H 	0.02380 0.74720 0.71080 0.06400
H 	H 	0.01210 0.48930 0.70260 0.06900
H 	H 	0.00770 0.67430 0.48150 0.05900
H 	H 	0.01470 0.42830 0.53930 0.05900
C 	C 	0.43930 0.98220 0.16930 0.34200
C 	C 	0.32170 0.98020 0.29730 -0.00700
C 	C 	0.41320 0.98430 0.27460 -0.04600
C 	C 	0.32920 0.98710 0.45030 -0.05500
C 	C 	0.45580 0.98960 0.34400 -0.04900
C 	C 	0.42250 0.99150 0.43510 0.04000
C 	C 	0.49090 0.00070 0.47630 -0.06400
C 	C 	0.27800 0.98180 0.38710 -0.06200
C 	C 	0.82440 0.01600 0.56760 0.37900
C 	C 	0.16930 0.43930 0.98220 0.34200
C 	C 	0.29730 0.32170 0.98020 -0.00700
C 	C 	0.27460 0.41320 0.98430 -0.04600
C 	C 	0.45030 0.32920 0.98710 -0.05500
C 	C 	0.34400 0.45580 0.98960 -0.04900
C 	C 	0.43510 0.42250 0.99150 0.04000
C 	C 	0.47630 0.49090 0.00070 -0.06400
C 	C 	0.38710 0.27800 0.98180 -0.06200
C 	C 	0.56760 0.82440 0.01600 0.37900
C 	C 	0.98220 0.16930 0.43930 0.34200
C 	C 	0.98020 0.29730 0.32170 -0.00700
C 	C 	0.98430 0.27460 0.41320 -0.04600
C 	C 	0.98710 0.45030 0.32920 -0.05500
C 	C 	0.98960 0.34400 0.45580 -0.04900
C 	C 	0.99150 0.43510 0.42250 0.04000
C 	C 	0.00070 0.47630 0.49090 -0.06400
C 	C 	0.98180 0.38710 0.27800 -0.06200
C 	C 	0.01600 0.56760 0.82440 0.37900
C 	C 	0.56070 0.01780 0.83070 0.34200
C 	C 	0.67830 0.01980 0.70270 -0.00700
C 	C 	0.58680 0.01570 0.72540 -0.04600
C 	C 	0.67080 0.01290 0.54970 -0.05500
C 	C 	0.54420 0.01040 0.65600 -0.04900
C 	C 	0.57750 0.00850 0.56490 0.04000
C 	C 	0.50910 0.99930 0.52370 -0.06400
C 	C 	0.72200 0.01820 0.61290 -0.06200
C 	C 	0.17560 0.98400 0.43240 0.37900
C 	C 	0.83070 0.56070 0.01780 0.34200
C 	C 	0.70270 0.67830 0.01980 -0.00700
C 	C 	0.72540 0.58680 0.01570 -0.04600
C 	C 	0.54970 0.67080 0.01290 -0.05500
C 	C 	0.65600 0.54420 0.01040 -0.04900
C 	C 	0.56490 0.57750 0.00850 0.04000
C 	C 	0.52370 0.50910 0.99930 -0.06400
C 	C 	0.61290 0.72200 0.01820 -0.06200
C 	C 	0.43240 0.17560 0.98400 0.37900
C 	C 	0.01780 0.83070 0.56070 0.34200
C 	C 	0.01980 0.70270 0.67830 -0.00700
C 	C 	0.01570 0.72540 0.58680 -0.04600
C 	C 	0.01290 0.54970 0.67080 -0.05500
C 	C 	0.01040 0.65600 0.54420 -0.04900
C 	C 	0.00850 0.56490 0.57750 0.04000
C 	C 	0.99930 0.52370 0.50910 -0.06400
C 	C 	0.01820 0.61290 0.72200 -0.06200
C 	C 	0.98400 0.43240 0.17560 0.37900
O 	O 	0.38200 0.97750 0.12300 -0.40300
O 	O 	0.52070 0.99780 0.14220 -0.40400
O 	O 	0.87760 0.02410 0.61460 -0.41500
O 	O 	0.85340 0.00430 0.48580 -0.40600
O 	O 	0.12300 0.38200 0.97750 -0.40300
O 	O 	0.14220 0.52070 0.99780 -0.40400
O 	O 	0.61460 0.87760 0.02410 -0.41500
O 	O 	0.48580 0.85340 0.00430 -0.40600
O 	O 	0.97750 0.12300 0.38200 -0.40300
O 	O 	0.99780 0.14220 0.52070 -0.40400
O 	O 	0.02410 0.61460 0.87760 -0.41500
O 	O 	0.00430 0.48580 0.85340 -0.40600
O 	O 	0.61800 0.02250 0.87700 -0.40300
O 	O 	0.47930 0.00220 0.85780 -0.40400
O 	O 	0.12240 0.97590 0.38540 -0.41500
O 	O 	0.14660 0.99570 0.51420 -0.40600
O 	O 	0.87700 0.61800 0.02250 -0.40300
O 	O 	0.85780 0.47930 0.00220 -0.40400
O 	O 	0.38540 0.12240 0.97590 -0.41500
O 	O 	0.51420 0.14660 0.99570 -0.40600
O 	O 	0.02250 0.87700 0.61800 -0.40300
O 	O 	0.00220 0.85780 0.47930 -0.40400
O 	O 	0.97590 0.38540 0.12240 -0.41500
O 	O 	0.99570 0.51420 0.14660 -0.40600
