data_crystal

_cell_length_a 10.97000
_cell_length_b 23.74400
_cell_length_c 15.90600
_cell_angle_alpha 90.00000
_cell_angle_beta  90.00000
_cell_angle_gamma 90.00000

_symmetry_space_group_name_	'P 1'
_symmetry_space_group_name_H-M	'P 1'

loop_
_symmetry_equiv_pos_as_xyz
  x,y,z

loop_
_atom_site_label
_atom_site_type_symbol
_atom_site_fract_x
_atom_site_fract_y
_atom_site_fract_z
_atom_site_charge
C 	C 	0.10170 0.33310 0.34810 -0.30200
N 	N 	0.15590 0.30700 0.39390 -0.19900
C 	C 	0.74910 0.10640 0.61480 -0.25800
N 	N 	0.18440 0.38720 0.16730 -0.20500
C 	C 	0.60170 0.83310 0.34810 -0.26000
N 	N 	0.65590 0.80700 0.39390 -0.19400
C 	C 	0.24910 0.60640 0.61480 -0.29600
N 	N 	0.68440 0.88720 0.16730 -0.19300
C 	C 	0.89830 0.66690 0.34810 -0.20100
N 	N 	0.84410 0.69300 0.39390 -0.19900
C 	C 	0.25090 0.89360 0.61480 -0.30700
N 	N 	0.81560 0.61280 0.16730 -0.17000
C 	C 	0.39830 0.16690 0.34810 -0.27100
N 	N 	0.34410 0.19300 0.39390 -0.20100
C 	C 	0.75090 0.39360 0.61480 -0.25800
N 	N 	0.31560 0.11280 0.16730 -0.19600
C 	C 	0.89830 0.33310 0.15190 -0.21700
N 	N 	0.84410 0.30700 0.10610 -0.21200
C 	C 	0.25090 0.10640 0.88520 -0.21700
N 	N 	0.81560 0.38720 0.33270 -0.17000
C 	C 	0.39830 0.83310 0.15190 -0.28600
N 	N 	0.34410 0.80700 0.10610 -0.21400
C 	C 	0.75090 0.60640 0.88520 -0.16700
N 	N 	0.31560 0.88720 0.33270 -0.19600
C 	C 	0.10170 0.66690 0.15190 -0.31900
N 	N 	0.15590 0.69300 0.10610 -0.21300
C 	C 	0.74910 0.89360 0.88520 -0.16700
N 	N 	0.18440 0.61280 0.33270 -0.20500
C 	C 	0.60170 0.16690 0.15190 -0.27600
N 	N 	0.65590 0.19300 0.10610 -0.20700
C 	C 	0.24910 0.39360 0.88520 -0.20500
N 	N 	0.68440 0.11280 0.33270 -0.19400
C 	C 	0.89830 0.66690 0.65190 -0.18700
N 	N 	0.84410 0.69300 0.60610 -0.19700
C 	C 	0.25090 0.89360 0.38520 -0.31600
N 	N 	0.81560 0.61280 0.83270 -0.17400
C 	C 	0.39830 0.16690 0.65190 -0.25700
N 	N 	0.34410 0.19300 0.60610 -0.19900
C 	C 	0.75090 0.39360 0.38520 -0.26800
N 	N 	0.31560 0.11280 0.83270 -0.20100
C 	C 	0.10170 0.33310 0.65190 -0.29000
N 	N 	0.15590 0.30700 0.60610 -0.19800
C 	C 	0.74910 0.10640 0.38520 -0.26700
N 	N 	0.18440 0.38720 0.83270 -0.21000
C 	C 	0.60170 0.83310 0.65190 -0.24600
N 	N 	0.65590 0.80700 0.60610 -0.19200
C 	C 	0.24910 0.60640 0.38520 -0.30600
N 	N 	0.68440 0.88720 0.83270 -0.19800
C 	C 	0.10170 0.66690 0.84810 -0.26300
N 	N 	0.15590 0.69300 0.89390 -0.15700
C 	C 	0.74910 0.89360 0.11480 -0.30000
N 	N 	0.18440 0.61280 0.66730 -0.19900
C 	C 	0.60170 0.16690 0.84810 -0.21900
N 	N 	0.65590 0.19300 0.89390 -0.15100
C 	C 	0.24910 0.39360 0.11480 -0.33800
N 	N 	0.68440 0.11280 0.66730 -0.18700
C 	C 	0.89830 0.33310 0.84810 -0.16000
N 	N 	0.84410 0.30700 0.89390 -0.15600
C 	C 	0.25090 0.10640 0.11480 -0.34800
N 	N 	0.81560 0.38720 0.66730 -0.16400
C 	C 	0.39830 0.83310 0.84810 -0.23000
N 	N 	0.34410 0.80700 0.89390 -0.15800
C 	C 	0.75090 0.60640 0.11480 -0.30100
N 	N 	0.31560 0.88720 0.66730 -0.19000
Cd	Cd	0.25000 0.25000 0.50000 1.16300
Cd	Cd	0.75000 0.75000 0.50000 1.17300
Cd	Cd	0.75000 0.25000 -0.00000 1.14200
Cd	Cd	0.25000 0.75000 -0.00000 1.13200
Cd	Cd	0.00000 0.38180 0.25000 1.12900
C 	C 	-0.00000 0.47660 0.25000 -0.29000
Cd	Cd	0.50000 0.88180 0.25000 1.15400
C 	C 	0.50000 0.97660 0.25000 -0.25600
Cd	Cd	0.00000 0.61820 0.25000 1.12900
C 	C 	-0.00000 0.52340 0.25000 -0.29000
Cd	Cd	0.50000 0.11820 0.25000 1.15400
C 	C 	0.50000 0.02340 0.25000 -0.25700
Cd	Cd	0.00000 0.61820 0.75000 1.13700
C 	C 	0.00000 0.52340 0.75000 -0.26700
Cd	Cd	0.50000 0.11820 0.75000 1.16300
C 	C 	0.50000 0.02340 0.75000 -0.23400
Cd	Cd	0.00000 0.38180 0.75000 1.13700
C 	C 	-0.00000 0.47660 0.75000 -0.26700
Cd	Cd	0.50000 0.88180 0.75000 1.16300
C 	C 	0.50000 0.97660 0.75000 -0.23200
Cd	Cd	0.86020 0.09851 0.50000 1.16700
C 	C 	0.01140 0.16150 0.50000 -0.34100
N 	N 	0.08710 0.19290 0.50000 -0.21300
C 	C 	0.96950 0.02040 0.50000 -0.08200
Cd	Cd	0.36020 0.59851 0.50000 1.15300
C 	C 	0.51140 0.66150 0.50000 -0.26200
N 	N 	0.58710 0.69290 0.50000 -0.21300
C 	C 	0.46950 0.52040 0.50000 -0.26700
Cd	Cd	0.13980 0.90149 0.50000 1.14300
C 	C 	0.98860 0.83850 0.50000 -0.18300
N 	N 	0.91290 0.80710 0.50000 -0.21800
C 	C 	0.03050 0.97960 0.50000 -0.45200
Cd	Cd	0.63980 0.40149 0.50000 1.15900
C 	C 	0.48860 0.33850 0.50000 -0.25800
N 	N 	0.41290 0.30710 0.50000 -0.21700
C 	C 	0.53050 0.47960 0.50000 -0.25900
Cd	Cd	0.13980 0.09851 -0.00000 1.11500
C 	C 	0.98860 0.16150 -0.00000 -0.24200
N 	N 	0.91290 0.19290 -0.00000 -0.24000
C 	C 	0.03050 0.02040 -0.00000 -0.48900
Cd	Cd	0.63980 0.59851 -0.00000 1.13100
C 	C 	0.48860 0.66150 -0.00000 -0.31600
N 	N 	0.41290 0.69290 -0.00000 -0.23900
C 	C 	0.53050 0.52040 -0.00000 -0.30100
Cd	Cd	0.86020 0.90149 -0.00000 1.13900
C 	C 	0.01140 0.83850 -0.00000 -0.39500
N 	N 	0.08710 0.80710 -0.00000 -0.23500
C 	C 	0.96950 0.97960 -0.00000 -0.12700
Cd	Cd	0.36020 0.40149 -0.00000 1.12500
C 	C 	0.51140 0.33850 -0.00000 -0.32000
N 	N 	0.58710 0.30710 -0.00000 -0.23500
C 	C 	0.46950 0.47960 -0.00000 -0.30900
