data_crystal

_cell_length_a 14.64900
_cell_length_b 15.07940
_cell_length_c 29.96000
_cell_angle_alpha 87.27890
_cell_angle_beta  84.39110
_cell_angle_gamma 60.93970

_symmetry_space_group_name_	'P 1'
_symmetry_space_group_name_H-M	'P 1'

loop_
_symmetry_equiv_pos_as_xyz
  x,y,z

loop_
_atom_site_label
_atom_site_type_symbol
_atom_site_fract_x
_atom_site_fract_y
_atom_site_fract_z
_atom_site_charge
Cu	Cu	0.22506 0.08238 0.67779 0.85300
Cu	Cu	0.69256 0.08238 0.82221 0.85400
Cu	Cu	0.77494 0.91762 0.32221 0.85300
Cu	Cu	0.30744 0.91762 0.17779 0.85200
Cu	Cu	0.00000 0.50000 0.50000 0.84500
Cu	Cu	0.50000 0.50000 -0.00000 0.84500
H 	H 	0.03150 0.38240 0.59600 -0.03900
H 	H 	0.80390 0.46100 0.51980 -0.02100
H 	H 	0.69540 0.41840 0.61680 0.03800
H 	H 	0.69440 0.39580 0.56630 0.03500
H 	H 	0.82280 0.24460 0.62670 0.08600
H 	H 	0.71680 0.25520 0.61370 0.05700
H 	H 	0.78740 0.17860 0.54770 0.04800
H 	H 	0.86260 0.22580 0.54040 0.07400
H 	H 	0.95470 0.04240 0.55270 0.04400
H 	H 	0.90270 0.06300 0.60220 0.04200
H 	H 	0.01970 0.07960 0.65700 -0.01100
H 	H 	0.18880 0.15460 0.57210 -0.01300
H 	H 	0.03530 0.27080 0.49790 0.00100
H 	H 	0.17900 0.38360 0.41860 0.00300
H 	H 	0.09580 0.10360 0.45330 0.03800
H 	H 	0.16790 0.08960 0.40900 0.04400
H 	H 	0.26150 0.96100 0.45730 0.05100
H 	H 	0.23580 0.03800 0.49580 0.06100
H 	H 	0.41080 0.96840 0.46730 0.06000
H 	H 	0.35270 0.08680 0.46220 0.07500
H 	H 	0.39330 0.95160 0.39230 0.04800
H 	H 	0.33500 0.07020 0.38720 0.06500
H 	H 	0.58470 0.87860 0.35890 -0.01200
H 	H 	0.63490 0.09500 0.39340 -0.02000
H 	H 	0.30200 0.14140 0.76480 -0.02100
H 	H 	0.39590 0.87380 0.71710 -0.01600
H 	H 	0.55750 0.83880 0.81110 0.06600
H 	H 	0.47530 0.80020 0.81500 0.05200
H 	H 	0.54020 0.73500 0.74180 0.05300
H 	H 	0.60960 0.67720 0.78070 0.04500
H 	H 	0.10330 0.03920 0.76360 -0.01400
H 	H 	0.04070 0.29680 0.70920 -0.02400
H 	H 	0.92790 0.39500 0.79880 0.04200
H 	H 	0.84460 0.35720 0.80480 0.05800
H 	H 	0.87370 0.41040 0.71870 0.06600
H 	H 	0.82640 0.50240 0.75250 0.05000
H 	H 	0.58610 0.38240 0.90400 -0.02000
H 	H 	0.73510 0.46100 0.98020 -0.01800
H 	H 	0.88620 0.41840 0.88320 0.04800
H 	H 	0.90980 0.39580 0.93370 0.04700
H 	H 	0.93260 0.24460 0.87330 0.07100
H 	H 	0.02800 0.25520 0.88630 0.03400
H 	H 	0.03400 0.17860 0.95230 0.04600
H 	H 	0.91160 0.22580 0.95960 0.07900
H 	H 	0.00290 0.04240 0.94730 0.01600
H 	H 	0.03430 0.06300 0.89780 0.01400
H 	H 	0.90070 0.07960 0.84300 -0.00500
H 	H 	0.65660 0.15460 0.92790 -0.01000
H 	H 	0.69390 0.27080 0.00210 0.00000
H 	H 	0.43740 0.38360 0.08140 0.00300
H 	H 	0.80060 0.10360 0.04670 0.04100
H 	H 	0.74250 0.08960 0.09100 0.04700
H 	H 	0.77750 0.96100 0.04270 0.04800
H 	H 	0.72620 0.03800 0.00420 0.05800
H 	H 	0.62080 0.96840 0.03270 0.05700
H 	H 	0.56050 0.08680 0.03780 0.07200
H 	H 	0.65510 0.95160 0.10770 0.04700
H 	H 	0.59480 0.07020 0.11280 0.06500
H 	H 	0.53670 0.87860 0.14110 -0.01200
H 	H 	0.27010 0.09500 0.10660 -0.02400
H 	H 	0.55660 0.14140 0.73520 -0.02000
H 	H 	0.73030 0.87380 0.78290 -0.01500
H 	H 	0.60370 0.83880 0.68890 0.06500
H 	H 	0.72450 0.80020 0.68500 0.05200
H 	H 	0.72480 0.73500 0.75820 0.05500
H 	H 	0.71320 0.67720 0.71930 0.04700
H 	H 	0.85750 0.03920 0.73640 -0.01400
H 	H 	0.66250 0.29680 0.79080 -0.02500
H 	H 	0.67710 0.39500 0.70120 0.03900
H 	H 	0.79820 0.35720 0.69520 0.05900
H 	H 	0.71590 0.41040 0.78130 0.06300
H 	H 	0.67120 0.50240 0.74750 0.04700
H 	H 	0.96850 0.61760 0.40400 -0.00300
H 	H 	0.19610 0.53900 0.48020 -0.02400
H 	H 	0.30460 0.58160 0.38320 0.03700
H 	H 	0.30560 0.60420 0.43370 0.03400
H 	H 	0.17720 0.75540 0.37330 0.08400
H 	H 	0.28320 0.74480 0.38630 0.05900
H 	H 	0.21260 0.82140 0.45230 0.04400
H 	H 	0.13740 0.77420 0.45960 0.06500
H 	H 	0.04530 0.95760 0.44730 0.04500
H 	H 	0.09730 0.93700 0.39780 0.04500
H 	H 	0.98030 0.92040 0.34300 -0.00300
H 	H 	0.81120 0.84540 0.42790 -0.01200
H 	H 	0.96470 0.72920 0.50210 0.00800
H 	H 	0.82100 0.61640 0.58140 0.00400
H 	H 	0.90420 0.89640 0.54670 0.04400
H 	H 	0.83210 0.91040 0.59100 0.04800
H 	H 	0.73850 0.03900 0.54270 0.05000
H 	H 	0.76420 0.96200 0.50420 0.06100
H 	H 	0.58920 0.03160 0.53270 0.05900
H 	H 	0.64730 0.91320 0.53780 0.07500
H 	H 	0.60670 0.04840 0.60770 0.04600
H 	H 	0.66500 0.92980 0.61280 0.06400
H 	H 	0.41530 0.12140 0.64110 -0.01300
H 	H 	0.36510 0.90500 0.60660 -0.02200
H 	H 	0.69800 0.85860 0.23520 -0.01900
H 	H 	0.60410 0.12620 0.28290 -0.01500
H 	H 	0.44250 0.16120 0.18890 0.06500
H 	H 	0.52470 0.19980 0.18500 0.05200
H 	H 	0.45980 0.26500 0.25820 0.05400
H 	H 	0.39040 0.32280 0.21930 0.04600
H 	H 	0.89670 0.96080 0.23640 -0.01800
H 	H 	0.95930 0.70320 0.29080 -0.02600
H 	H 	0.07210 0.60500 0.20120 0.03700
H 	H 	0.15540 0.64280 0.19520 0.05700
H 	H 	0.12630 0.58960 0.28130 0.06100
H 	H 	0.17360 0.49760 0.24750 0.04600
H 	H 	0.41390 0.61760 0.09600 -0.02100
H 	H 	0.26490 0.53900 0.01980 -0.02700
H 	H 	0.11380 0.58160 0.11680 0.02900
H 	H 	0.09020 0.60420 0.06630 0.02500
H 	H 	0.06740 0.75540 0.12670 0.09500
H 	H 	0.97200 0.74480 0.11370 0.07800
H 	H 	0.96600 0.82140 0.04770 0.04600
H 	H 	0.08840 0.77420 0.04040 0.06000
H 	H 	0.99710 0.95760 0.05270 0.06500
H 	H 	0.96570 0.93700 0.10220 0.06500
H 	H 	0.09930 0.92040 0.15700 -0.00700
H 	H 	0.34340 0.84540 0.07210 -0.01500
H 	H 	0.30610 0.72920 0.99790 0.00900
H 	H 	0.56260 0.61640 0.91860 0.00400
H 	H 	0.19940 0.89640 0.95330 0.04400
H 	H 	0.25750 0.91040 0.90900 0.04800
H 	H 	0.22250 0.03900 0.95730 0.04700
H 	H 	0.27380 0.96200 0.99580 0.06300
H 	H 	0.37920 0.03160 0.96730 0.06200
H 	H 	0.43950 0.91320 0.96220 0.07900
H 	H 	0.34490 0.04840 0.89230 0.04400
H 	H 	0.40520 0.92980 0.88720 0.06300
H 	H 	0.46330 0.12140 0.85890 -0.01200
H 	H 	0.72990 0.90500 0.89340 -0.01800
H 	H 	0.44340 0.85860 0.26480 -0.02000
H 	H 	0.26970 0.12620 0.21710 -0.01600
H 	H 	0.39630 0.16120 0.31110 0.06600
H 	H 	0.27550 0.19980 0.31500 0.05100
H 	H 	0.27520 0.26500 0.24180 0.05200
H 	H 	0.28680 0.32280 0.28070 0.04500
H 	H 	0.14250 0.96080 0.26360 -0.01800
H 	H 	0.33750 0.70320 0.20920 -0.02500
H 	H 	0.32290 0.60500 0.29880 0.03900
H 	H 	0.20180 0.64280 0.30480 0.05600
H 	H 	0.28410 0.58960 0.21870 0.06400
H 	H 	0.32880 0.49760 0.25250 0.04900
C 	C 	0.96890 0.39340 0.58570 0.11500
C 	C 	0.84640 0.43640 0.54350 0.09200
C 	C 	0.73780 0.37660 0.59130 -0.03100
C 	C 	0.77650 0.26400 0.60280 -0.11200
C 	C 	0.83560 0.19260 0.56210 -0.09500
C 	C 	0.92810 0.09080 0.57720 -0.03400
C 	C 	0.04740 0.09680 0.63090 0.08000
C 	C 	0.13780 0.13820 0.58410 0.09200
C 	C 	0.07750 0.27980 0.47490 0.07500
C 	C 	0.15670 0.33940 0.43160 0.06800
C 	C 	0.15790 0.10640 0.44060 -0.04000
C 	C 	0.25240 0.02740 0.46370 -0.10100
C 	C 	0.35720 0.02460 0.45180 -0.09900
C 	C 	0.38820 0.01380 0.40280 -0.05100
C 	C 	0.57670 0.93900 0.36970 0.07500
C 	C 	0.60100 0.05840 0.38840 0.10300
C 	C 	0.33820 0.07120 0.76110 0.10500
C 	C 	0.38700 0.92700 0.73470 0.08300
C 	C 	0.51440 0.82280 0.79390 -0.06000
C 	C 	0.58340 0.73920 0.76330 -0.08800
C 	C 	0.07180 0.10860 0.75830 0.07700
C 	C 	0.03940 0.24680 0.72820 0.08900
C 	C 	0.89330 0.36620 0.78330 -0.04400
C 	C 	0.83660 0.43480 0.74790 -0.10100
C 	C 	0.63770 0.39340 0.91430 0.08900
C 	C 	0.71720 0.43640 0.95650 0.09100
C 	C 	0.88560 0.37660 0.90870 -0.05600
C 	C 	0.95950 0.26400 0.89720 -0.06500
C 	C 	0.97180 0.19260 0.93790 -0.11100
C 	C 	0.98110 0.09080 0.92280 0.01900
C 	C 	0.85580 0.09680 0.86910 0.08700
C 	C 	0.72400 0.13820 0.91590 0.09500
C 	C 	0.64270 0.27980 0.02510 0.07500
C 	C 	0.50390 0.33940 0.06840 0.06800
C 	C 	0.73570 0.10640 0.05940 -0.04400
C 	C 	0.72020 0.02740 0.03630 -0.09600
C 	C 	0.61820 0.02460 0.04820 -0.09800
C 	C 	0.59800 0.01380 0.09720 -0.05100
C 	C 	0.48430 0.93900 0.13030 0.07400
C 	C 	0.34060 0.05840 0.11160 0.10100
C 	C 	0.59060 0.07120 0.73890 0.10500
C 	C 	0.68600 0.92700 0.76530 0.08200
C 	C 	0.66280 0.82280 0.70610 -0.05800
C 	C 	0.67740 0.73920 0.73670 -0.09100
C 	C 	0.81960 0.10860 0.74170 0.09300
C 	C 	0.71380 0.24680 0.77180 0.10600
C 	C 	0.74050 0.36620 0.71670 -0.04500
C 	C 	0.72860 0.43480 0.75210 -0.09800
C 	C 	0.03110 0.60660 0.41430 0.06400
C 	C 	0.15360 0.56360 0.45650 0.09100
C 	C 	0.26220 0.62340 0.40870 -0.03000
C 	C 	0.22350 0.73600 0.39720 -0.11800
C 	C 	0.16440 0.80740 0.43790 -0.08300
C 	C 	0.07190 0.90920 0.42280 -0.06100
C 	C 	0.95260 0.90320 0.36910 0.08200
C 	C 	0.86220 0.86180 0.41590 0.09400
C 	C 	0.92250 0.72020 0.52510 0.07700
C 	C 	0.84330 0.66060 0.56840 0.07000
C 	C 	0.84210 0.89360 0.55940 -0.04500
C 	C 	0.74760 0.97260 0.53630 -0.09600
C 	C 	0.64280 0.97540 0.54820 -0.10000
C 	C 	0.61180 0.98620 0.59720 -0.04900
C 	C 	0.42330 0.06100 0.63030 0.07400
C 	C 	0.39900 0.94160 0.61160 0.10400
C 	C 	0.66180 0.92880 0.23890 0.10500
C 	C 	0.61300 0.07300 0.26530 0.08200
C 	C 	0.48560 0.17720 0.20610 -0.05800
C 	C 	0.41660 0.26080 0.23670 -0.09100
C 	C 	0.92820 0.89140 0.24170 0.10500
C 	C 	0.96060 0.75320 0.27180 0.11900
C 	C 	0.10670 0.63380 0.21670 -0.04400
C 	C 	0.16340 0.56520 0.25210 -0.09800
C 	C 	0.36230 0.60660 0.08570 0.08800
C 	C 	0.28280 0.56360 0.04350 0.09200
C 	C 	0.11440 0.62340 0.09130 -0.01000
C 	C 	0.04050 0.73600 0.10280 -0.15500
C 	C 	0.02820 0.80740 0.06210 -0.07200
C 	C 	0.01890 0.90920 0.07720 -0.10000
C 	C 	0.14420 0.90320 0.13090 0.07700
C 	C 	0.27600 0.86180 0.08410 0.09200
C 	C 	0.35730 0.72020 0.97490 0.07700
C 	C 	0.49610 0.66060 0.93160 0.07000
C 	C 	0.26430 0.89360 0.94060 -0.04600
C 	C 	0.27980 0.97260 0.96370 -0.09100
C 	C 	0.38180 0.97540 0.95180 -0.10400
C 	C 	0.40200 0.98620 0.90280 -0.04400
C 	C 	0.51570 0.06100 0.86970 0.07500
C 	C 	0.65940 0.94160 0.88840 0.10400
C 	C 	0.40940 0.92880 0.26110 0.10500
C 	C 	0.31400 0.07300 0.23470 0.08000
C 	C 	0.33720 0.17720 0.29390 -0.06000
C 	C 	0.32260 0.26080 0.26330 -0.08700
C 	C 	0.18040 0.89140 0.25830 0.09200
C 	C 	0.28620 0.75320 0.22820 0.10500
C 	C 	0.25950 0.63380 0.28330 -0.04300
C 	C 	0.27140 0.56520 0.24790 -0.10100
N 	N 	0.93510 0.44000 0.54510 -0.24500
N 	N 	0.90510 0.36580 0.60850 -0.09900
N 	N 	0.82660 0.39380 0.57960 -0.09700
N 	N 	0.01310 0.10560 0.59080 -0.10000
N 	N 	0.06990 0.13500 0.55980 -0.10300
N 	N 	0.12800 0.11580 0.62830 -0.24000
N 	N 	0.08230 0.36560 0.46790 -0.24000
N 	N 	0.19390 0.24360 0.41690 -0.09500
N 	N 	0.14090 0.20840 0.44500 -0.09300
N 	N 	0.49080 0.01160 0.39270 -0.08800
N 	N 	0.50480 0.08860 0.40300 -0.10200
N 	N 	0.64920 0.97120 0.36550 -0.24700
N 	N 	0.32190 0.02600 0.72840 -0.24100
N 	N 	0.40960 0.01000 0.78840 -0.09800
N 	N 	0.43720 0.91920 0.77150 -0.08300
N 	N 	0.10310 0.15000 0.72290 -0.24700
N 	N 	0.99170 0.17660 0.78460 -0.08700
N 	N 	0.97340 0.26500 0.76350 -0.08700
N 	N 	0.62490 0.44000 0.95490 -0.24100
N 	N 	0.72910 0.36580 0.89150 -0.09800
N 	N 	0.77960 0.39380 0.92040 -0.09400
N 	N 	0.88130 0.10560 0.90920 -0.09900
N 	N 	0.79510 0.13500 0.94020 -0.09600
N 	N 	0.75620 0.11580 0.87170 -0.24000
N 	N 	0.55210 0.36560 0.03210 -0.24000
N 	N 	0.56250 0.24360 0.08310 -0.09500
N 	N 	0.65070 0.20840 0.05500 -0.09200
N 	N 	0.49760 0.01160 0.10730 -0.08800
N 	N 	0.40660 0.08860 0.09700 -0.10400
N 	N 	0.37960 0.97120 0.13450 -0.24700
N 	N 	0.65210 0.02600 0.77160 -0.24000
N 	N 	0.58040 0.01000 0.71160 -0.09800
N 	N 	0.64360 0.91920 0.72850 -0.08400
N 	N 	0.74690 0.15000 0.77710 -0.25000
N 	N 	0.83170 0.17660 0.71540 -0.09400
N 	N 	0.76160 0.26500 0.73650 -0.09500
N 	N 	0.06490 0.56000 0.45490 -0.24400
N 	N 	0.09490 0.63420 0.39150 -0.09600
N 	N 	0.17340 0.60620 0.42040 -0.09800
N 	N 	0.98690 0.89440 0.40920 -0.08500
N 	N 	0.93010 0.86500 0.44020 -0.09800
N 	N 	0.87200 0.88420 0.37170 -0.23900
N 	N 	0.91770 0.63440 0.53210 -0.23500
N 	N 	0.80610 0.75640 0.58310 -0.09400
N 	N 	0.85910 0.79160 0.55500 -0.09100
N 	N 	0.50920 0.98840 0.60730 -0.08700
N 	N 	0.49520 0.91140 0.59700 -0.10200
N 	N 	0.35080 0.02880 0.63450 -0.24800
N 	N 	0.67810 0.97400 0.27160 -0.24000
N 	N 	0.59040 0.99000 0.21160 -0.09700
N 	N 	0.56280 0.08080 0.22850 -0.08400
N 	N 	0.89690 0.85000 0.27710 -0.25400
N 	N 	0.00830 0.82340 0.21540 -0.10400
N 	N 	0.02660 0.73500 0.23650 -0.10300
N 	N 	0.37510 0.56000 0.04510 -0.24700
N 	N 	0.27090 0.63420 0.10850 -0.09700
N 	N 	0.22040 0.60620 0.07960 -0.10100
N 	N 	0.11870 0.89440 0.09080 -0.08600
N 	N 	0.20490 0.86500 0.05980 -0.10400
N 	N 	0.24380 0.88420 0.12830 -0.23900
N 	N 	0.44790 0.63440 0.96790 -0.23500
N 	N 	0.43750 0.75640 0.91690 -0.09400
N 	N 	0.34930 0.79160 0.94500 -0.09100
N 	N 	0.50240 0.98840 0.89270 -0.08800
N 	N 	0.59340 0.91140 0.90300 -0.10100
N 	N 	0.62040 0.02880 0.86550 -0.24700
N 	N 	0.34790 0.97400 0.22840 -0.24000
N 	N 	0.41960 0.99000 0.28840 -0.09700
N 	N 	0.35640 0.08080 0.27150 -0.08400
N 	N 	0.25310 0.85000 0.22290 -0.25100
N 	N 	0.16830 0.82340 0.28460 -0.09800
N 	N 	0.23840 0.73500 0.26350 -0.09600
