data_crystal

_cell_length_a 6.72200
_cell_length_b 14.23900
_cell_length_c 22.88000
_cell_angle_alpha 90.00000
_cell_angle_beta  90.00000
_cell_angle_gamma 90.00000

_symmetry_space_group_name_	'P 1'
_symmetry_space_group_name_H-M	'P 1'

loop_
_symmetry_equiv_pos_as_xyz
  x,y,z

loop_
_atom_site_label
_atom_site_type_symbol
_atom_site_fract_x
_atom_site_fract_y
_atom_site_fract_z
_atom_site_charge
Tb	Tb	0.75000 0.95243 0.64044 1.92200
Tb	Tb	0.25000 0.54757 0.14044 1.92600
Tb	Tb	0.25000 0.04757 0.35956 1.92200
Tb	Tb	0.75000 0.45243 0.85956 1.92600
H 	H 	0.75000 0.98730 0.79470 0.03000
H 	H 	0.75000 0.90740 0.88160 0.08500
H 	H 	0.75000 0.74790 0.88310 0.04800
H 	H 	0.75000 0.76920 0.53540 0.01200
H 	H 	0.75000 0.73880 0.43740 0.10300
H 	H 	0.75000 0.86220 0.37120 0.01100
H 	H 	0.25000 0.51270 0.29470 0.02900
H 	H 	0.25000 0.59260 0.38160 0.08500
H 	H 	0.25000 0.75210 0.38310 0.04700
H 	H 	0.25000 0.73080 0.03540 0.01200
H 	H 	0.25000 0.76120 0.93740 0.10300
H 	H 	0.25000 0.63780 0.87120 0.01100
H 	H 	0.25000 0.01270 0.20530 0.02900
H 	H 	0.25000 0.09260 0.11840 0.08400
H 	H 	0.25000 0.25210 0.11690 0.04700
H 	H 	0.25000 0.23080 0.46460 0.01100
H 	H 	0.25000 0.26120 0.56260 0.10300
H 	H 	0.25000 0.13780 0.62880 0.01100
H 	H 	0.75000 0.48730 0.70530 0.02900
H 	H 	0.75000 0.40740 0.61840 0.08500
H 	H 	0.75000 0.24790 0.61690 0.04700
H 	H 	0.75000 0.26920 0.96460 0.01200
H 	H 	0.75000 0.23880 0.06260 0.10300
H 	H 	0.75000 0.36220 0.12880 0.01100
C 	C 	0.75000 0.92200 0.79430 0.07200
C 	C 	0.75000 0.87410 0.84670 -0.10600
C 	C 	0.75000 0.78000 0.84770 0.02000
C 	C 	0.75000 0.73020 0.79470 -0.05400
C 	C 	0.75000 0.62320 0.79720 0.30900
C 	C 	0.75000 0.78080 0.74260 -0.00500
C 	C 	0.75000 0.73470 0.68370 0.33900
C 	C 	0.75000 0.81950 0.50950 0.12800
C 	C 	0.75000 0.80060 0.45060 -0.16300
C 	C 	0.75000 0.87390 0.41120 0.10300
C 	C 	0.75000 0.96650 0.43250 -0.18500
C 	C 	0.75000 0.04550 0.38880 0.50500
C 	C 	0.75000 0.97960 0.49340 0.02600
C 	C 	0.75000 0.07650 0.52060 0.30300
C 	C 	0.25000 0.57800 0.29430 0.07200
C 	C 	0.25000 0.62590 0.34670 -0.10600
C 	C 	0.25000 0.72000 0.34770 0.02000
C 	C 	0.25000 0.76980 0.29470 -0.05400
C 	C 	0.25000 0.87680 0.29720 0.30900
C 	C 	0.25000 0.71920 0.24260 -0.00500
C 	C 	0.25000 0.76530 0.18370 0.33900
C 	C 	0.25000 0.68050 0.00950 0.12900
C 	C 	0.25000 0.69940 0.95060 -0.16400
C 	C 	0.25000 0.62610 0.91120 0.10400
C 	C 	0.25000 0.53350 0.93250 -0.18500
C 	C 	0.25000 0.45450 0.88880 0.50500
C 	C 	0.25000 0.52040 0.99340 0.02800
C 	C 	0.25000 0.42350 0.02060 0.29900
C 	C 	0.25000 0.07800 0.20570 0.07200
C 	C 	0.25000 0.12590 0.15330 -0.10600
C 	C 	0.25000 0.22000 0.15230 0.02000
C 	C 	0.25000 0.26980 0.20530 -0.05400
C 	C 	0.25000 0.37680 0.20280 0.30900
C 	C 	0.25000 0.21920 0.25740 -0.00500
C 	C 	0.25000 0.26530 0.31630 0.33900
C 	C 	0.25000 0.18050 0.49050 0.12800
C 	C 	0.25000 0.19940 0.54940 -0.16300
C 	C 	0.25000 0.12610 0.58880 0.10300
C 	C 	0.25000 0.03350 0.56750 -0.18500
C 	C 	0.25000 0.95450 0.61120 0.50500
C 	C 	0.25000 0.02040 0.50660 0.02600
C 	C 	0.25000 0.92350 0.47940 0.30300
C 	C 	0.75000 0.42200 0.70570 0.07200
C 	C 	0.75000 0.37410 0.65330 -0.10600
C 	C 	0.75000 0.28000 0.65230 0.02000
C 	C 	0.75000 0.23020 0.70530 -0.05400
C 	C 	0.75000 0.12320 0.70280 0.30900
C 	C 	0.75000 0.28080 0.75740 -0.00500
C 	C 	0.75000 0.23470 0.81630 0.33900
C 	C 	0.75000 0.31950 0.99050 0.12900
C 	C 	0.75000 0.30060 0.04940 -0.16400
C 	C 	0.75000 0.37390 0.08880 0.10400
C 	C 	0.75000 0.46650 0.06750 -0.18500
C 	C 	0.75000 0.54550 0.11120 0.50500
C 	C 	0.75000 0.47960 0.00660 0.02800
C 	C 	0.75000 0.57650 0.97940 0.29900
N 	N 	0.75000 0.87570 0.74130 -0.20600
N 	N 	0.75000 0.90660 0.53130 -0.21400
N 	N 	0.25000 0.62430 0.24130 -0.20600
N 	N 	0.25000 0.59340 0.03130 -0.21500
N 	N 	0.25000 0.12430 0.25870 -0.20600
N 	N 	0.25000 0.09340 0.46870 -0.21400
N 	N 	0.75000 0.37570 0.75870 -0.20600
N 	N 	0.75000 0.40660 0.96870 -0.21500
O 	O 	0.91300 0.58020 0.80339 -0.37800
O 	O 	0.91550 0.07550 0.37073 -0.49100
O 	O 	0.08700 0.91980 0.30339 -0.37600
O 	O 	0.08450 0.42450 0.87073 -0.49200
O 	O 	0.41300 0.41980 0.19661 -0.37600
O 	O 	0.41550 0.92450 0.62927 -0.49300
O 	O 	0.58700 0.08020 0.69661 -0.37500
O 	O 	0.58450 0.57550 0.12927 -0.49400
O 	O 	0.08700 0.41980 0.19661 -0.37800
O 	O 	0.08450 0.92450 0.62927 -0.49100
O 	O 	0.91300 0.08020 0.69661 -0.37600
O 	O 	0.91550 0.57550 0.12927 -0.49200
O 	O 	0.58700 0.58020 0.80339 -0.37600
O 	O 	0.58450 0.07550 0.37073 -0.49300
O 	O 	0.41300 0.91980 0.30339 -0.37500
O 	O 	0.41550 0.42450 0.87073 -0.49400
O 	O 	0.75000 0.78880 0.64020 -0.42800
O 	O 	0.75000 0.64710 0.68100 -0.23700
O 	O 	0.75000 0.07790 0.57670 -0.44000
O 	O 	0.75000 0.14520 0.48700 -0.24000
O 	O 	0.25000 0.71120 0.14020 -0.42800
O 	O 	0.25000 0.85290 0.18100 -0.23600
O 	O 	0.25000 0.42210 0.07670 -0.44100
O 	O 	0.25000 0.35480 0.98700 -0.23900
O 	O 	0.25000 0.21120 0.35980 -0.42800
O 	O 	0.25000 0.35290 0.31900 -0.23700
O 	O 	0.25000 0.92210 0.42330 -0.44000
O 	O 	0.25000 0.85480 0.51300 -0.24000
O 	O 	0.75000 0.28880 0.85980 -0.42800
O 	O 	0.75000 0.14710 0.81900 -0.23600
O 	O 	0.75000 0.57790 0.92330 -0.44100
O 	O 	0.75000 0.64520 0.01300 -0.23900
