data_crystal

_cell_length_a 14.22130
_cell_length_b 20.28300
_cell_length_c 19.83900
_cell_angle_alpha 110.32600
_cell_angle_beta  90.00000
_cell_angle_gamma 90.00000

_symmetry_space_group_name_	'P 1'
_symmetry_space_group_name_H-M	'P 1'

loop_
_symmetry_equiv_pos_as_xyz
  x,y,z

loop_
_atom_site_label
_atom_site_type_symbol
_atom_site_fract_x
_atom_site_fract_y
_atom_site_fract_z
_atom_site_charge
Ca	Ca	0.54360 0.43975 0.20367 1.49100
Ca	Ca	0.19711 0.06133 0.30959 1.49100
Ca	Ca	0.80289 0.93867 0.69041 1.49100
Ca	Ca	0.69711 0.93867 0.19041 1.49100
Ca	Ca	0.30289 0.06133 0.80959 1.49100
Ca	Ca	0.04360 0.56025 0.29633 1.49100
Ca	Ca	0.45640 0.56025 0.79633 1.49100
Ca	Ca	0.95640 0.43975 0.70367 1.49100
Cd	Cd	0.05767 0.97432 0.75831 1.22900
Cd	Cd	0.30084 0.53120 0.25677 1.22500
Cd	Cd	0.94233 0.02568 0.24169 1.22900
Cd	Cd	0.19916 0.53120 0.75677 1.22600
Cd	Cd	0.44233 0.97432 0.25831 1.22800
Cd	Cd	0.69916 0.46880 0.74323 1.22500
Cd	Cd	0.55767 0.02568 0.74169 1.22800
Cd	Cd	0.80084 0.46880 0.24323 1.22600
H 	H 	0.06770 0.46860 0.38740 0.00900
H 	H 	0.51530 0.78070 0.70950 0.02600
H 	H 	0.35010 0.02830 0.62780 0.02700
H 	H 	0.34740 0.53890 0.49830 0.04600
H 	H 	0.64990 0.97170 0.37220 0.02700
H 	H 	0.79390 0.22010 0.21920 0.06400
H 	H 	0.70610 0.22010 0.71920 0.06400
H 	H 	0.76780 0.71510 0.27390 0.02200
H 	H 	0.29830 0.18220 0.72960 0.00800
H 	H 	0.83960 0.52050 0.51380 0.03800
H 	H 	0.98580 0.62290 0.73890 0.02800
H 	H 	0.31240 0.96310 0.91310 0.01700
H 	H 	0.55140 0.27380 0.76250 0.06300
H 	H 	0.22820 0.88150 0.27510 0.03000
H 	H 	0.72820 0.11850 0.22490 0.02900
H 	H 	0.07480 0.02740 0.02400 0.06500
H 	H 	0.51420 0.62290 0.23890 0.03000
H 	H 	0.18760 0.96310 0.41310 0.01800
H 	H 	0.05040 0.67840 0.21550 0.01200
H 	H 	0.48580 0.37710 0.76110 0.03000
H 	H 	0.68760 0.03690 0.08690 0.01700
H 	H 	0.38600 0.95970 0.01530 0.02500
H 	H 	0.15260 0.53890 0.99830 0.04500
H 	H 	0.56770 0.53140 0.11260 0.00900
H 	H 	0.65260 0.46110 0.50170 0.04600
H 	H 	0.44960 0.67840 0.71550 0.01300
H 	H 	0.79830 0.81780 0.77040 0.00900
H 	H 	0.94860 0.27380 0.26250 0.06600
H 	H 	0.70170 0.81780 0.27040 0.00800
H 	H 	0.57480 0.97260 0.47600 0.06400
H 	H 	0.44860 0.72620 0.23750 0.06300
H 	H 	0.26780 0.28490 0.22610 0.02200
H 	H 	0.40910 0.53160 0.60310 0.04500
H 	H 	0.42520 0.02740 0.52400 0.06400
H 	H 	0.20170 0.18220 0.22960 0.00900
H 	H 	0.66040 0.52050 0.01380 0.03800
H 	H 	0.01420 0.37710 0.26110 0.02800
H 	H 	0.29390 0.77990 0.28080 0.06400
H 	H 	0.48470 0.21930 0.29050 0.02600
H 	H 	0.92520 0.97260 0.97600 0.06500
H 	H 	0.55040 0.32160 0.28450 0.01300
H 	H 	0.73220 0.71510 0.77390 0.02200
H 	H 	0.27180 0.88150 0.77510 0.02900
H 	H 	0.11400 0.95970 0.51530 0.02400
H 	H 	0.90910 0.46840 0.89690 0.04600
H 	H 	0.85010 0.97170 0.87220 0.02600
H 	H 	0.43230 0.46860 0.88740 0.00900
H 	H 	0.98470 0.78070 0.20950 0.02800
H 	H 	0.23220 0.28490 0.72610 0.02200
H 	H 	0.16040 0.47950 0.48620 0.03800
H 	H 	0.33960 0.47950 0.98620 0.03800
H 	H 	0.77180 0.11850 0.72490 0.03000
H 	H 	0.84740 0.46110 0.00170 0.04500
H 	H 	0.20610 0.77990 0.78080 0.06400
H 	H 	0.88600 0.04030 0.48470 0.02400
H 	H 	0.01530 0.21930 0.79050 0.02800
H 	H 	0.93230 0.53140 0.61260 0.00900
H 	H 	0.09090 0.53160 0.10310 0.04600
H 	H 	0.05140 0.72620 0.73750 0.06600
H 	H 	0.61400 0.04030 0.98470 0.02500
H 	H 	0.14990 0.02830 0.12780 0.02600
H 	H 	0.81240 0.03690 0.58690 0.01800
H 	H 	0.94960 0.32160 0.78450 0.01200
H 	H 	0.59090 0.46840 0.39690 0.04500
C 	C 	0.94770 0.66180 0.74480 0.00700
C 	C 	0.02450 0.15215 0.25230 0.34700
C 	C 	0.69200 0.15910 0.23620 0.00400
C 	C 	0.90390 0.51220 0.50820 -0.02700
C 	C 	0.16400 0.22150 0.23630 -0.03800
C 	C 	0.64880 0.65764 0.25480 -0.12200
C 	C 	0.11620 0.51200 0.62320 0.33100
C 	C 	0.98690 0.72370 0.74380 -0.03900
C 	C 	0.58610 0.28070 0.27180 -0.03700
C 	C 	0.63760 0.98590 0.47780 -0.03700
C 	C 	0.57640 0.49140 0.63290 0.40500
C 	C 	0.41390 0.71930 0.72820 -0.03700
C 	C 	0.72110 0.34616 0.24300 0.34200
C 	C 	0.30800 0.84090 0.76380 0.00400
C 	C 	0.46300 0.50420 0.43640 -0.10000
C 	C 	0.85120 0.65764 0.75480 -0.12400
C 	C 	0.55230 0.66180 0.24480 0.00400
C 	C 	0.80800 0.15910 0.73620 0.00200
C 	C 	0.42360 0.50860 0.36710 0.40500
C 	C 	0.83600 0.77850 0.76370 -0.03800
C 	C 	0.38380 0.51200 0.12320 0.33100
C 	C 	0.44470 0.90950 0.74420 0.40200
C 	C 	0.26870 0.78000 0.76720 -0.03400
C 	C 	0.69200 0.58965 0.25180 0.40100
C 	C 	0.97550 0.84785 0.74770 0.34700
C 	C 	0.05420 0.51890 0.06170 -0.02100
C 	C 	0.88380 0.48800 0.37680 0.33100
C 	C 	0.13760 0.01410 0.02220 -0.04000
C 	C 	0.44770 0.33820 0.75520 0.00400
C 	C 	0.67760 0.00890 0.85110 0.39700
C 	C 	0.23130 0.78000 0.26720 -0.03300
C 	C 	0.80800 0.58965 0.75180 0.40200
C 	C 	0.55570 0.49350 0.94030 -0.11200
C 	C 	0.29630 0.28320 0.73460 -0.00500
C 	C 	0.94430 0.49350 0.44030 -0.11100
C 	C 	0.30800 0.41035 0.74820 0.40100
C 	C 	0.76870 0.22000 0.73280 -0.03300
C 	C 	0.45960 0.48130 0.93270 -0.04300
C 	C 	0.68580 0.00520 0.54210 -0.09300
C 	C 	0.53700 0.49580 0.56360 -0.10000
C 	C 	0.19200 0.41035 0.24820 0.40200
C 	C 	0.31420 0.99480 0.45790 -0.09300
C 	C 	0.13670 0.99410 0.89074 0.33500
C 	C 	0.20370 0.28320 0.23460 -0.00300
C 	C 	0.47550 0.15215 0.75230 0.35000
C 	C 	0.55420 0.48110 0.43830 -0.01600
C 	C 	0.63670 0.00590 0.60926 0.33500
C 	C 	0.33600 0.22150 0.73630 -0.03500
C 	C 	0.32240 0.99110 0.14890 0.39700
C 	C 	0.79630 0.71680 0.76540 -0.00300
C 	C 	0.27480 0.99240 0.08210 -0.12200
C 	C 	0.40110 0.84210 0.74370 -0.12000
C 	C 	0.03700 0.50420 0.93640 -0.09800
C 	C 	0.93140 0.78201 0.75190 -0.09200
C 	C 	0.82240 0.00890 0.35110 0.39900
C 	C 	0.48690 0.27630 0.75620 -0.03400
C 	C 	0.45340 0.78080 0.72470 -0.00300
C 	C 	0.95340 0.21920 0.77530 -0.00700
C 	C 	0.18580 0.99480 0.95790 -0.09100
C 	C 	0.73130 0.22000 0.23280 -0.03400
C 	C 	0.06860 0.21799 0.24810 -0.09200
C 	C 	0.96300 0.49580 0.06360 -0.09800
C 	C 	0.82160 0.28136 0.74960 -0.09400
C 	C 	0.01310 0.27630 0.25620 -0.03900
C 	C 	0.27890 0.65384 0.75700 0.34200
C 	C 	0.22110 0.65384 0.25700 0.34300
C 	C 	0.55530 0.09050 0.25580 0.40200
C 	C 	0.86240 0.98590 0.97780 -0.04000
C 	C 	0.31760 0.01390 0.58440 0.00700
C 	C 	0.51310 0.72370 0.24380 -0.03400
C 	C 	0.77910 0.02480 0.54390 -0.04600
C 	C 	0.07640 0.50860 0.86710 0.40500
C 	C 	0.86330 0.00590 0.10926 0.33500
C 	C 	0.68240 0.98610 0.41560 0.00700
C 	C 	0.67840 0.28136 0.24960 -0.09300
C 	C 	0.05570 0.50650 0.55970 -0.11100
C 	C 	0.22090 0.97520 0.45610 -0.04600
C 	C 	0.05230 0.33820 0.25520 0.00700
C 	C 	0.54040 0.51870 0.06730 -0.04300
C 	C 	0.44580 0.51890 0.56170 -0.01600
C 	C 	0.17660 0.97350 0.51730 -0.00200
C 	C 	0.22520 0.99240 0.58210 -0.12000
C 	C 	0.18240 0.01390 0.08440 0.01000
C 	C 	0.32340 0.97350 0.01730 -0.00600
C 	C 	0.81420 0.00520 0.04210 -0.09100
C 	C 	0.52450 0.84785 0.24770 0.35000
C 	C 	0.09610 0.48780 0.49180 -0.02700
C 	C 	0.81760 0.98610 0.91560 0.01000
C 	C 	0.59610 0.51220 0.00820 -0.02700
C 	C 	0.40390 0.48780 0.99180 -0.02700
C 	C 	0.04040 0.48130 0.43270 -0.04300
C 	C 	0.27910 0.97520 0.95610 -0.04300
C 	C 	0.94470 0.09050 0.75580 0.40100
C 	C 	0.04660 0.78080 0.22470 -0.00700
C 	C 	0.35120 0.34236 0.74520 -0.12200
C 	C 	0.90870 0.47680 0.00110 -0.01000
C 	C 	0.91390 0.28070 0.77180 -0.03500
C 	C 	0.90110 0.15790 0.75630 -0.11900
C 	C 	0.17840 0.71864 0.25040 -0.09400
C 	C 	0.61620 0.48800 0.87680 0.33100
C 	C 	0.59890 0.15790 0.25630 -0.12000
C 	C 	0.36330 0.99410 0.39074 0.33500
C 	C 	0.72090 0.02480 0.04390 -0.04300
C 	C 	0.54660 0.21920 0.27530 -0.00300
C 	C 	0.05530 0.90950 0.24420 0.40100
C 	C 	0.56860 0.78201 0.25190 -0.09400
C 	C 	0.92360 0.49140 0.13290 0.40500
C 	C 	0.09890 0.84210 0.24370 -0.11900
C 	C 	0.43140 0.21799 0.74810 -0.09400
C 	C 	0.95960 0.51870 0.56730 -0.04300
C 	C 	0.72520 0.00760 0.91790 -0.12200
C 	C 	0.77480 0.00760 0.41790 -0.12000
C 	C 	0.09130 0.52320 0.99890 -0.01000
C 	C 	0.40870 0.52320 0.49890 -0.01300
C 	C 	0.94580 0.48110 0.93830 -0.02100
C 	C 	0.66400 0.77850 0.26370 -0.03500
C 	C 	0.32160 0.71864 0.75040 -0.09300
C 	C 	0.19200 0.84090 0.26380 0.00200
C 	C 	0.59130 0.47680 0.50110 -0.01300
C 	C 	0.44430 0.50650 0.05970 -0.11200
C 	C 	0.17760 0.99110 0.64890 0.39900
C 	C 	0.36240 0.01410 0.52220 -0.03700
C 	C 	0.14880 0.34236 0.24520 -0.12400
C 	C 	0.67660 0.02650 0.98270 -0.00600
C 	C 	0.70370 0.71680 0.26540 -0.00500
C 	C 	0.08610 0.71930 0.22820 -0.03500
C 	C 	0.77890 0.34616 0.74300 0.34300
C 	C 	0.82340 0.02650 0.48270 -0.00200
O 	O 	0.14470 0.46534 0.26962 -0.55700
O 	O 	0.54967 0.00732 0.61320 -0.37300
O 	O 	0.30670 0.65201 0.27012 -0.39000
O 	O 	0.96690 0.52220 0.18906 -0.53300
O 	O 	0.95033 0.00732 0.11320 -0.37100
O 	O 	0.92613 0.49018 0.32018 -0.57200
O 	O 	0.09880 0.96587 0.27368 -0.55200
O 	O 	0.45033 0.99268 0.38680 -0.37300
O 	O 	0.77690 0.58835 0.26958 -0.44600
O 	O 	0.59880 0.03413 0.22632 -0.55100
O 	O 	0.27690 0.41165 0.23042 -0.44700
O 	O 	0.33160 0.60093 0.74743 -0.57400
O 	O 	0.40120 0.96587 0.77368 -0.55100
O 	O 	0.34850 0.54224 0.36961 -0.44600
O 	O 	0.70230 0.48226 0.87876 -0.35100
O 	O 	0.83160 0.39907 0.75257 -0.57400
O 	O 	0.68777 0.00711 0.66236 -0.56500
O 	O 	0.56286 0.14584 0.75113 -0.38700
O 	O 	0.07760 0.10330 0.25571 -0.57400
O 	O 	0.02420 0.09138 0.78278 -0.44400
O 	O 	0.21500 0.02520 0.70794 -0.54400
O 	O 	0.97580 0.90862 0.21722 -0.44400
O 	O 	0.42240 0.10330 0.75571 -0.57400
O 	O 	0.53310 0.52220 0.68906 -0.53300
O 	O 	0.80670 0.34799 0.22988 -0.39000
O 	O 	0.57387 0.49018 0.82018 -0.57200
O 	O 	0.29770 0.51774 0.12124 -0.35100
O 	O 	0.42613 0.50982 0.17982 -0.57200
O 	O 	0.04967 0.99268 0.88680 -0.37100
O 	O 	0.46690 0.47780 0.31094 -0.53300
O 	O 	0.71500 0.97480 0.79206 -0.54200
O 	O 	0.03310 0.47780 0.81094 -0.53300
O 	O 	0.78500 0.97480 0.29206 -0.54400
O 	O 	0.31223 0.99289 0.33764 -0.56500
O 	O 	0.06286 0.85416 0.74887 -0.38500
O 	O 	0.16840 0.60093 0.24743 -0.57400
O 	O 	0.10290 0.95664 0.64369 -0.44800
O 	O 	0.85530 0.53466 0.73038 -0.55700
O 	O 	0.90120 0.03413 0.72632 -0.55200
O 	O 	0.92240 0.89670 0.74429 -0.57400
O 	O 	0.43714 0.85416 0.24887 -0.38700
O 	O 	0.20230 0.51774 0.62124 -0.35100
O 	O 	0.72310 0.58835 0.76958 -0.44700
O 	O 	0.52420 0.90862 0.71722 -0.44400
O 	O 	0.47580 0.09138 0.28278 -0.44400
O 	O 	0.60290 0.04336 0.85631 -0.44900
O 	O 	0.57760 0.89670 0.24429 -0.57400
O 	O 	0.19330 0.65201 0.77012 -0.39000
O 	O 	0.84850 0.45776 0.13039 -0.44600
O 	O 	0.22310 0.41165 0.73042 -0.44600
O 	O 	0.66840 0.39907 0.25257 -0.57400
O 	O 	0.89710 0.04336 0.35631 -0.44800
O 	O 	0.35530 0.46534 0.76962 -0.55700
O 	O 	0.79770 0.48226 0.37876 -0.35100
O 	O 	0.18777 0.99289 0.83764 -0.56400
O 	O 	0.64470 0.53466 0.23038 -0.55700
O 	O 	0.15150 0.54224 0.86961 -0.44600
O 	O 	0.07387 0.50982 0.67982 -0.57200
O 	O 	0.69330 0.34799 0.72988 -0.39000
O 	O 	0.39710 0.95664 0.14369 -0.44900
O 	O 	0.28500 0.02520 0.20794 -0.54200
O 	O 	0.65150 0.45776 0.63039 -0.44600
O 	O 	0.81223 0.00711 0.16236 -0.56400
O 	O 	0.93714 0.14584 0.25113 -0.38500
