data_crystal

_cell_length_a 14.56500
_cell_length_b 14.56500
_cell_length_c 18.04500
_cell_angle_alpha 69.83470
_cell_angle_beta  69.83470
_cell_angle_gamma 87.86640

_symmetry_space_group_name_	'P 1'
_symmetry_space_group_name_H-M	'P 1'

loop_
_symmetry_equiv_pos_as_xyz
  x,y,z

loop_
_atom_site_label
_atom_site_type_symbol
_atom_site_fract_x
_atom_site_fract_y
_atom_site_fract_z
_atom_site_charge
Eu	Eu	0.40698 0.05624 0.23300 2.01600
Eu	Eu	0.94376 0.59302 0.26700 2.01200
Eu	Eu	0.59302 0.94376 0.76700 2.01600
Eu	Eu	0.05624 0.40698 0.73300 2.01200
Eu	Eu	0.02444 0.97556 0.25000 2.07800
Eu	Eu	0.97556 0.02444 0.75000 2.07800
Eu	Eu	0.31333 0.68667 0.75000 1.74400
Eu	Eu	0.68667 0.31333 0.25000 1.74400
Co	Co	0.70979 0.00445 0.24399 1.16800
Co	Co	0.99555 0.29021 0.25601 1.16700
Co	Co	0.29021 0.99555 0.75601 1.16800
Co	Co	0.00445 0.70979 0.74399 1.16700
Co	Co	0.66620 0.33380 0.75000 1.06500
Co	Co	0.33380 0.66620 0.25000 1.06500
H 	H 	0.45270 0.86230 0.52420 0.04000
H 	H 	0.72540 0.89420 0.53110 0.05300
H 	H 	0.09020 0.74560 0.02520 0.06500
H 	H 	0.09480 0.02100 0.02970 0.06600
H 	H 	0.40490 0.14070 0.97880 0.01800
H 	H 	0.28750 0.86190 0.06840 0.00800
H 	H 	0.13770 0.54730 0.97580 0.03200
H 	H 	0.10580 0.27460 0.96890 0.05400
H 	H 	0.25440 0.90980 0.47480 0.05300
H 	H 	0.97900 0.90520 0.47030 0.06800
H 	H 	0.85930 0.59510 0.52120 0.02000
H 	H 	0.13810 0.71250 0.43160 0.01000
H 	H 	0.54730 0.13770 0.47580 0.04000
H 	H 	0.27460 0.10580 0.46890 0.05300
H 	H 	0.90980 0.25440 0.97480 0.06500
H 	H 	0.90520 0.97900 0.97030 0.06600
H 	H 	0.59510 0.85930 0.02120 0.01800
H 	H 	0.71250 0.13810 0.93160 0.00800
H 	H 	0.86230 0.45270 0.02420 0.03200
H 	H 	0.89420 0.72540 0.03110 0.05400
H 	H 	0.74560 0.09020 0.52520 0.05300
H 	H 	0.02100 0.09480 0.52970 0.06800
H 	H 	0.14070 0.40490 0.47880 0.02000
H 	H 	0.86190 0.28750 0.56840 0.01000
C 	C 	0.56120 0.92300 0.41060 -0.04500
C 	C 	0.51950 0.88230 0.49740 0.03000
C 	C 	0.58190 0.87190 0.54410 -0.15400
C 	C 	0.68280 0.89920 0.50180 0.03300
C 	C 	0.71670 0.93410 0.41360 -0.03200
C 	C 	0.50420 0.94880 0.34900 0.32300
C 	C 	0.53860 0.83440 0.63970 0.53500
C 	C 	0.82370 0.95990 0.35780 0.29700
C 	C 	0.17210 0.84950 0.91670 -0.03000
C 	C 	0.11170 0.81210 0.99900 0.00900
C 	C 	0.08280 0.87760 0.04300 -0.12900
C 	C 	0.11480 0.97660 0.00190 -0.00500
C 	C 	0.17750 0.00770 0.91850 -0.00700
C 	C 	0.21160 0.79300 0.85830 0.28500
C 	C 	0.02140 0.83860 0.13550 0.53500
C 	C 	0.22340 0.11160 0.86430 0.29500
C 	C 	0.46690 0.06290 0.90430 -0.06600
C 	C 	0.40330 0.07910 0.97420 0.05800
C 	C 	0.33610 0.00270 0.03820 -0.15900
C 	C 	0.33330 0.91330 0.02790 0.05300
C 	C 	0.40070 0.90150 0.95560 -0.07500
C 	C 	0.54530 0.13830 0.83270 0.36900
C 	C 	0.27230 0.01490 0.12010 0.48600
C 	C 	0.41090 0.80570 0.93930 0.33800
C 	C 	0.07700 0.43880 0.08940 -0.04900
C 	C 	0.11770 0.48050 0.00260 0.04400
C 	C 	0.12810 0.41810 0.95590 -0.16200
C 	C 	0.10080 0.31720 0.99820 0.02900
C 	C 	0.06590 0.28330 0.08640 -0.02800
C 	C 	0.05120 0.49580 0.15100 0.32500
C 	C 	0.16560 0.46140 0.86030 0.53700
C 	C 	0.04010 0.17630 0.14220 0.29600
C 	C 	0.15050 0.82790 0.58330 -0.03700
C 	C 	0.18790 0.88830 0.50100 0.03200
C 	C 	0.12240 0.91720 0.45700 -0.13900
C 	C 	0.02340 0.88520 0.49810 -0.01000
C 	C 	0.99230 0.82250 0.58150 -0.00200
C 	C 	0.20700 0.78840 0.64170 0.28900
C 	C 	0.16140 0.97860 0.36450 0.53400
C 	C 	0.88840 0.77660 0.63570 0.29400
C 	C 	0.93710 0.53310 0.59570 -0.06500
C 	C 	0.92090 0.59670 0.52580 0.05500
C 	C 	0.99730 0.66390 0.46180 -0.15300
C 	C 	0.08670 0.66670 0.47210 0.04400
C 	C 	0.09850 0.59930 0.54440 -0.06900
C 	C 	0.86170 0.45470 0.66730 0.36800
C 	C 	0.98510 0.72770 0.37990 0.48300
C 	C 	0.19430 0.58910 0.56070 0.33600
C 	C 	0.43880 0.07700 0.58940 -0.04500
C 	C 	0.48050 0.11770 0.50260 0.03000
C 	C 	0.41810 0.12810 0.45590 -0.15400
C 	C 	0.31720 0.10080 0.49820 0.03300
C 	C 	0.28330 0.06590 0.58640 -0.03200
C 	C 	0.49580 0.05120 0.65100 0.32300
C 	C 	0.46140 0.16560 0.36030 0.53500
C 	C 	0.17630 0.04010 0.64220 0.29700
C 	C 	0.82790 0.15050 0.08330 -0.03000
C 	C 	0.88830 0.18790 0.00100 0.00900
C 	C 	0.91720 0.12240 0.95700 -0.12900
C 	C 	0.88520 0.02340 0.99810 -0.00500
C 	C 	0.82250 0.99230 0.08150 -0.00700
C 	C 	0.78840 0.20700 0.14170 0.28500
C 	C 	0.97860 0.16140 0.86450 0.53500
C 	C 	0.77660 0.88840 0.13570 0.29500
C 	C 	0.53310 0.93710 0.09570 -0.06600
C 	C 	0.59670 0.92090 0.02580 0.05800
C 	C 	0.66390 0.99730 0.96180 -0.15900
C 	C 	0.66670 0.08670 0.97210 0.05300
C 	C 	0.59930 0.09850 0.04440 -0.07500
C 	C 	0.45470 0.86170 0.16730 0.36900
C 	C 	0.72770 0.98510 0.87990 0.48600
C 	C 	0.58910 0.19430 0.06070 0.33800
C 	C 	0.92300 0.56120 0.91060 -0.04900
C 	C 	0.88230 0.51950 0.99740 0.04400
C 	C 	0.87190 0.58190 0.04410 -0.16200
C 	C 	0.89920 0.68280 0.00180 0.02900
C 	C 	0.93410 0.71670 0.91360 -0.02800
C 	C 	0.94880 0.50420 0.84900 0.32500
C 	C 	0.83440 0.53860 0.13970 0.53700
C 	C 	0.95990 0.82370 0.85780 0.29600
C 	C 	0.84950 0.17210 0.41670 -0.03700
C 	C 	0.81210 0.11170 0.49900 0.03200
C 	C 	0.87760 0.08280 0.54300 -0.13900
C 	C 	0.97660 0.11480 0.50190 -0.01000
C 	C 	0.00770 0.17750 0.41850 -0.00200
C 	C 	0.79300 0.21160 0.35830 0.28900
C 	C 	0.83860 0.02140 0.63550 0.53400
C 	C 	0.11160 0.22340 0.36430 0.29400
C 	C 	0.06290 0.46690 0.40430 -0.06500
C 	C 	0.07910 0.40330 0.47420 0.05500
C 	C 	0.00270 0.33610 0.53820 -0.15300
C 	C 	0.91330 0.33330 0.52790 0.04400
C 	C 	0.90150 0.40070 0.45560 -0.06900
C 	C 	0.13830 0.54530 0.33270 0.36800
C 	C 	0.01490 0.27230 0.62010 0.48300
C 	C 	0.80570 0.41090 0.43930 0.33600
N 	N 	0.65770 0.94870 0.37040 -0.20100
N 	N 	0.20530 0.94490 0.87860 -0.21600
N 	N 	0.46700 0.97480 0.89460 -0.17900
N 	N 	0.05130 0.34230 0.12960 -0.20000
N 	N 	0.05510 0.79470 0.62140 -0.21500
N 	N 	0.02520 0.53300 0.60540 -0.18000
N 	N 	0.34230 0.05130 0.62960 -0.20100
N 	N 	0.79470 0.05510 0.12140 -0.21600
N 	N 	0.53300 0.02520 0.10540 -0.17900
N 	N 	0.94870 0.65770 0.87040 -0.20000
N 	N 	0.94490 0.20530 0.37860 -0.21500
N 	N 	0.97480 0.46700 0.39460 -0.18000
O 	O 	0.55660 0.99680 0.27350 -0.53100
O 	O 	0.41670 0.92750 0.37530 -0.36600
O 	O 	0.46320 0.77860 0.67450 -0.57000
O 	O 	0.58510 0.86030 0.67630 -0.52300
O 	O 	0.88870 0.95110 0.38750 -0.39900
O 	O 	0.84200 0.99020 0.27750 -0.50000
O 	O 	0.27930 0.83790 0.78650 -0.50900
O 	O 	0.17970 0.70670 0.87950 -0.37500
O 	O 	0.00690 0.74910 0.16890 -0.53600
O 	O 	0.98880 0.89700 0.17180 -0.55000
O 	O 	0.20620 0.17640 0.89350 -0.25500
O 	O 	0.28240 0.12100 0.78960 -0.38400
O 	O 	0.60130 0.10610 0.77540 -0.46900
O 	O 	0.55220 0.22200 0.83360 -0.47400
O 	O 	0.19050 0.96650 0.15930 -0.50800
O 	O 	0.31150 0.07030 0.14260 -0.50400
O 	O 	0.35380 0.73360 0.98840 -0.29900
O 	O 	0.48140 0.80680 0.87170 -0.47500
O 	O 	0.00320 0.44340 0.22650 -0.53100
O 	O 	0.07250 0.58330 0.12470 -0.36500
O 	O 	0.22140 0.53680 0.82550 -0.57100
O 	O 	0.13970 0.41490 0.82370 -0.52400
O 	O 	0.04890 0.11130 0.11250 -0.39700
O 	O 	0.00980 0.15800 0.22250 -0.49800
O 	O 	0.16210 0.72070 0.71350 -0.51000
O 	O 	0.29330 0.82030 0.62050 -0.37500
O 	O 	0.25090 0.99310 0.33110 -0.53800
O 	O 	0.10300 0.01120 0.32820 -0.54700
O 	O 	0.82360 0.79380 0.60650 -0.25300
O 	O 	0.87900 0.71760 0.71040 -0.38300
O 	O 	0.89390 0.39870 0.72460 -0.46800
O 	O 	0.77800 0.44780 0.66640 -0.47400
O 	O 	0.03350 0.80950 0.34070 -0.50800
O 	O 	0.92970 0.68850 0.35740 -0.50300
O 	O 	0.26640 0.64620 0.51160 -0.29600
O 	O 	0.19320 0.51860 0.62830 -0.47400
O 	O 	0.44340 0.00320 0.72650 -0.53100
O 	O 	0.58330 0.07250 0.62470 -0.36600
O 	O 	0.53680 0.22140 0.32550 -0.57000
O 	O 	0.41490 0.13970 0.32370 -0.52300
O 	O 	0.11130 0.04890 0.61250 -0.39900
O 	O 	0.15800 0.00980 0.72250 -0.50000
O 	O 	0.72070 0.16210 0.21350 -0.50900
O 	O 	0.82030 0.29330 0.12050 -0.37500
O 	O 	0.99310 0.25090 0.83110 -0.53600
O 	O 	0.01120 0.10300 0.82820 -0.55000
O 	O 	0.79380 0.82360 0.10650 -0.25500
O 	O 	0.71760 0.87900 0.21040 -0.38400
O 	O 	0.39870 0.89390 0.22460 -0.46900
O 	O 	0.44780 0.77800 0.16640 -0.47400
O 	O 	0.80950 0.03350 0.84070 -0.50800
O 	O 	0.68850 0.92970 0.85740 -0.50400
O 	O 	0.64620 0.26640 0.01160 -0.29900
O 	O 	0.51860 0.19320 0.12830 -0.47500
O 	O 	0.99680 0.55660 0.77350 -0.53100
O 	O 	0.92750 0.41670 0.87530 -0.36500
O 	O 	0.77860 0.46320 0.17450 -0.57100
O 	O 	0.86030 0.58510 0.17630 -0.52400
O 	O 	0.95110 0.88870 0.88750 -0.39700
O 	O 	0.99020 0.84200 0.77750 -0.49800
O 	O 	0.83790 0.27930 0.28650 -0.51000
O 	O 	0.70670 0.17970 0.37950 -0.37500
O 	O 	0.74910 0.00690 0.66890 -0.53800
O 	O 	0.89700 0.98880 0.67180 -0.54700
O 	O 	0.17640 0.20620 0.39350 -0.25300
O 	O 	0.12100 0.28240 0.28960 -0.38300
O 	O 	0.10610 0.60130 0.27540 -0.46800
O 	O 	0.22200 0.55220 0.33360 -0.47400
O 	O 	0.96650 0.19050 0.65930 -0.50800
O 	O 	0.07030 0.31150 0.64260 -0.50300
O 	O 	0.73360 0.35380 0.48840 -0.29600
O 	O 	0.80680 0.48140 0.37170 -0.47400
