data_crystal

_cell_length_a 39.07400
_cell_length_b 9.96450
_cell_length_c 38.84600
_cell_angle_alpha 90.00000
_cell_angle_beta  136.43800
_cell_angle_gamma 90.00000

_symmetry_space_group_name_	'P 1'
_symmetry_space_group_name_H-M	'P 1'

loop_
_symmetry_equiv_pos_as_xyz
  x,y,z

loop_
_atom_site_label
_atom_site_type_symbol
_atom_site_fract_x
_atom_site_fract_y
_atom_site_fract_z
_atom_site_charge
C 	C 	0.36510 0.22740 0.09000 0.74400
N 	N 	0.22210 0.34600 0.04720 -0.18800
H 	H 	0.19280 0.33940 0.01720 0.10800
Zn	Zn	0.32502 0.31988 0.13035 1.24400
O 	O 	0.32580 0.24090 0.04430 -0.60800
N 	N 	0.05700 0.33680 0.04720 -0.35700
H 	H 	0.05920 0.36720 0.06940 0.11600
H 	H 	0.02920 0.30570 0.01950 0.07000
C 	C 	0.41110 0.18700 0.10400 -1.28900
H 	H 	0.40650 0.09910 0.09110 0.41100
H 	H 	0.43900 0.18620 0.13970 0.42000
H 	H 	0.41710 0.25010 0.09020 0.40400
Zn	Zn	0.38484 0.20435 0.25416 1.21600
N 	N 	0.39700 0.44430 0.22320 -0.18900
H 	H 	0.41780 0.46120 0.25460 0.12600
O 	O 	0.36930 0.24430 0.12490 -0.57000
Zn	Zn	0.44640 0.08808 0.37755 1.24500
O 	O 	0.26284 0.34370 0.05550 -0.46000
N 	N 	0.44190 0.07410 0.26920 -0.35800
H 	H 	0.43280 0.14120 0.25020 0.08500
H 	H 	0.45880 0.08720 0.30000 0.10900
O 	O 	0.27010 0.37410 0.12830 -0.38300
N 	N 	0.36840 0.96610 0.28300 -0.17300
H 	H 	0.34540 0.95360 0.25120 0.13100
C 	C 	0.22750 0.35790 0.08430 0.24300
O 	O 	0.38050 0.31580 0.20650 -0.43400
C 	C 	0.18200 0.35220 0.07320 -0.19800
N 	N 	0.32680 0.33410 0.23750 -0.34100
H 	H 	0.30890 0.31910 0.20650 0.12500
H 	H 	0.33830 0.26810 0.25770 0.07600
O 	O 	0.35310 0.51760 0.14670 -0.38800
N 	N 	0.53260 0.93990 0.45460 -0.17600
H 	H 	0.55300 0.88950 0.48050 0.12600
C 	C 	0.13730 0.29810 0.02910 0.16800
H 	H 	0.13520 0.26520 0.00520 -0.06900
O 	O 	0.30210 0.11740 0.12630 -0.55500
C 	C 	0.09890 0.33790 0.05610 0.24500
N 	N 	0.64440 0.54490 0.43060 -0.33900
H 	H 	0.63980 0.53350 0.40550 0.16000
H 	H 	0.66520 0.49500 0.45660 0.13500
O 	O 	0.32270 0.08140 0.19520 -0.56800
C 	C 	0.14310 0.38750 0.10030 -0.28200
H 	H 	0.14550 0.41770 0.12460 0.13300
O 	O 	0.44470 0.32900 0.31280 -0.57300
C 	C 	0.18420 0.39300 0.10890 0.13900
H 	H 	0.21410 0.42490 0.13940 -0.01500
O 	O 	0.46940 0.28030 0.38390 -0.57200
C 	C 	0.38180 0.54140 0.19230 0.25300
O 	O 	0.38959 0.09050 0.30180 -0.44700
C 	C 	0.40060 0.67870 0.21370 -0.16800
O 	O 	0.41410 0.88640 0.36010 -0.35500
C 	C 	0.42770 0.70730 0.26220 0.13200
H 	H 	0.43720 0.63720 0.28360 -0.02600
O 	O 	0.50175 0.02530 0.44960 -0.45800
C 	C 	0.44140 0.83640 0.28070 -0.25500
H 	H 	0.45880 0.85290 0.31360 0.12800
O 	O 	0.50130 0.00850 0.38230 -0.41700
C 	C 	0.42900 0.94190 0.24980 0.23100
O 	O 	0.40210 0.16200 0.38470 -0.54800
C 	C 	0.40240 0.91550 0.20150 -0.25200
H 	H 	0.39370 0.98550 0.18050 0.12700
O 	O 	0.44420 0.14960 0.46460 -0.54500
C 	C 	0.38780 0.78340 0.18280 0.12000
H 	H 	0.36960 0.76660 0.14960 -0.00800
C 	C 	0.29520 0.06660 0.15000 0.72900
C 	C 	0.25100 0.97840 0.12310 -1.15600
H 	H 	0.24590 0.96460 0.14360 0.37400
H 	H 	0.25650 0.89350 0.11610 0.36700
H 	H 	0.22210 0.02030 0.09230 0.34400
C 	C 	0.47050 0.34970 0.35810 0.76000
C 	C 	0.50420 0.46930 0.38240 -1.31100
H 	H 	0.48870 0.54200 0.38320 0.42500
H 	H 	0.51060 0.49580 0.36370 0.42100
H 	H 	0.53500 0.44660 0.41590 0.41000
C 	C 	0.38270 0.86650 0.31290 0.23400
C 	C 	0.36310 0.73120 0.29140 -0.15200
C 	C 	0.33200 0.70480 0.24170 0.11000
H 	H 	0.31900 0.77590 0.21960 -0.01800
C 	C 	0.31930 0.57450 0.22340 -0.23700
H 	H 	0.29850 0.55920 0.18960 0.11800
C 	C 	0.33750 0.46790 0.25530 0.20400
C 	C 	0.36630 0.49310 0.30490 -0.23900
H 	H 	0.37730 0.42240 0.32650 0.10900
C 	C 	0.37900 0.62370 0.32250 0.10300
H 	H 	0.39870 0.63950 0.35610 -0.00300
C 	C 	0.53090 0.93550 0.41890 0.27700
C 	C 	0.56390 0.83720 0.42550 -0.18600
C 	C 	0.56020 0.82090 0.38790 0.12200
H 	H 	0.53950 0.87850 0.36060 -0.01100
C 	C 	0.58560 0.72310 0.38870 -0.26700
H 	H 	0.58010 0.71210 0.36120 0.12200
C 	C 	0.61860 0.64270 0.42910 0.22000
C 	C 	0.62400 0.65570 0.46940 -0.24800
H 	H 	0.64580 0.60040 0.49730 0.08600
C 	C 	0.59640 0.75210 0.46630 0.11200
H 	H 	0.59960 0.76010 0.49240 -0.02900
C 	C 	0.40860 0.18840 0.42000 0.69000
C 	C 	0.37070 0.27860 0.41080 -1.13300
H 	H 	0.38760 0.35210 0.43390 0.36100
H 	H 	0.35340 0.22730 0.41540 0.35700
H 	H 	0.34720 0.31270 0.37720 0.36200
C 	C 	0.09610 0.29220 0.02010 -0.36300
H 	H 	0.06630 0.25790 0.99000 0.17300
C 	C 	0.86510 0.72740 0.09000 0.75500
N 	N 	0.72210 0.84600 0.04720 -0.18700
H 	H 	0.69280 0.83940 0.01720 0.11100
Zn	Zn	0.82502 0.81988 0.13035 1.24700
O 	O 	0.82580 0.74090 0.04430 -0.60600
N 	N 	0.55700 0.83680 0.04720 -0.35800
H 	H 	0.55920 0.86720 0.06940 0.12400
H 	H 	0.52920 0.80570 0.01950 0.07700
C 	C 	0.91110 0.68700 0.10400 -1.31400
H 	H 	0.90650 0.59910 0.09110 0.42500
H 	H 	0.93900 0.68620 0.13970 0.43400
H 	H 	0.91710 0.75010 0.09020 0.41600
Zn	Zn	0.88484 0.70435 0.25416 1.21700
N 	N 	0.89700 0.94430 0.22320 -0.18200
H 	H 	0.91780 0.96120 0.25460 0.13000
O 	O 	0.86930 0.74430 0.12490 -0.56700
Zn	Zn	0.94640 0.58808 0.37755 1.25000
O 	O 	0.76284 0.84370 0.05550 -0.45700
N 	N 	0.94190 0.57410 0.26920 -0.34600
H 	H 	0.93280 0.64120 0.25020 0.08800
H 	H 	0.95880 0.58720 0.30000 0.11400
O 	O 	0.77010 0.87410 0.12830 -0.38100
N 	N 	0.86840 0.46610 0.28300 -0.18000
H 	H 	0.84540 0.45360 0.25120 0.12700
C 	C 	0.72750 0.85790 0.08430 0.24400
O 	O 	0.88050 0.81580 0.20650 -0.43100
C 	C 	0.68200 0.85220 0.07320 -0.19500
N 	N 	0.82680 0.83410 0.23750 -0.34300
H 	H 	0.80890 0.81910 0.20650 0.12800
H 	H 	0.83830 0.76810 0.25770 0.07800
O 	O 	0.85310 0.01760 0.14670 -0.39100
N 	N 	0.03260 0.43990 0.45460 -0.18000
H 	H 	0.05300 0.38950 0.48050 0.12300
C 	C 	0.63730 0.79810 0.02910 0.16600
H 	H 	0.63520 0.76520 0.00520 -0.06500
O 	O 	0.80210 0.61740 0.12630 -0.56700
C 	C 	0.59890 0.83790 0.05610 0.24700
N 	N 	0.14440 0.04490 0.43060 -0.34700
H 	H 	0.13980 0.03350 0.40550 0.15800
H 	H 	0.16520 0.99500 0.45660 0.14400
O 	O 	0.82270 0.58140 0.19520 -0.57700
C 	C 	0.64310 0.88750 0.10030 -0.28000
H 	H 	0.64550 0.91770 0.12460 0.13700
O 	O 	0.94470 0.82900 0.31280 -0.57700
C 	C 	0.68420 0.89300 0.10890 0.13900
H 	H 	0.71410 0.92490 0.13940 -0.01200
O 	O 	0.96940 0.78030 0.38390 -0.57400
C 	C 	0.88180 0.04140 0.19230 0.24200
O 	O 	0.88959 0.59050 0.30180 -0.43600
C 	C 	0.90060 0.17870 0.21370 -0.15900
O 	O 	0.91410 0.38640 0.36010 -0.35800
C 	C 	0.92770 0.20730 0.26220 0.12100
H 	H 	0.93720 0.13720 0.28360 -0.02400
O 	O 	0.00175 0.52530 0.44960 -0.45400
C 	C 	0.94140 0.33640 0.28070 -0.24100
H 	H 	0.95880 0.35290 0.31360 0.12400
O 	O 	0.00130 0.50850 0.38230 -0.40500
C 	C 	0.92900 0.44190 0.24980 0.20900
O 	O 	0.90210 0.66200 0.38470 -0.54400
C 	C 	0.90240 0.41550 0.20150 -0.23800
H 	H 	0.89370 0.48550 0.18050 0.11600
O 	O 	0.94420 0.64960 0.46460 -0.53800
C 	C 	0.88780 0.28340 0.18280 0.10700
H 	H 	0.86960 0.26660 0.14960 -0.00600
C 	C 	0.79520 0.56660 0.15000 0.78800
C 	C 	0.75100 0.47840 0.12310 -1.30800
H 	H 	0.74590 0.46460 0.14360 0.41300
H 	H 	0.75650 0.39350 0.11610 0.40700
H 	H 	0.72210 0.52030 0.09230 0.40100
C 	C 	0.97050 0.84970 0.35810 0.79100
C 	C 	0.00420 0.96930 0.38240 -1.37700
H 	H 	0.98870 0.04200 0.38320 0.44600
H 	H 	0.01060 0.99580 0.36370 0.44000
H 	H 	0.03500 0.94660 0.41590 0.42900
C 	C 	0.88270 0.36650 0.31290 0.23100
C 	C 	0.86310 0.23120 0.29140 -0.14700
C 	C 	0.83200 0.20480 0.24170 0.11200
H 	H 	0.81900 0.27590 0.21960 -0.02200
C 	C 	0.81930 0.07450 0.22340 -0.25500
H 	H 	0.79850 0.05920 0.18960 0.11900
C 	C 	0.83750 0.96790 0.25530 0.21400
C 	C 	0.86630 0.99310 0.30490 -0.21800
H 	H 	0.87730 0.92240 0.32650 0.10500
C 	C 	0.87900 0.12370 0.32250 0.08000
H 	H 	0.89870 0.13950 0.35610 0.00300
C 	C 	0.03090 0.43550 0.41890 0.25200
C 	C 	0.06390 0.33720 0.42550 -0.18300
C 	C 	0.06020 0.32090 0.38790 0.11400
H 	H 	0.03950 0.37850 0.36060 -0.01700
C 	C 	0.08560 0.22310 0.38870 -0.26700
H 	H 	0.08010 0.21210 0.36120 0.11800
C 	C 	0.11860 0.14270 0.42910 0.21500
C 	C 	0.12400 0.15570 0.46940 -0.24700
H 	H 	0.14580 0.10040 0.49730 0.08100
C 	C 	0.09640 0.25210 0.46630 0.10300
H 	H 	0.09960 0.26010 0.49240 -0.02900
C 	C 	0.90860 0.68840 0.42000 0.69600
C 	C 	0.87070 0.77860 0.41080 -1.14800
H 	H 	0.88760 0.85210 0.43390 0.37000
H 	H 	0.85340 0.72730 0.41540 0.36500
H 	H 	0.84720 0.81270 0.37720 0.37000
C 	C 	0.59610 0.79220 0.02010 -0.35500
H 	H 	0.56630 0.75790 0.99000 0.17200
C 	C 	0.63490 0.77260 0.91000 0.75400
N 	N 	0.77790 0.65400 0.95280 -0.18400
H 	H 	0.80720 0.66060 0.98280 0.13300
Zn	Zn	0.67498 0.68012 0.86965 1.24700
O 	O 	0.67420 0.75910 0.95570 -0.57400
N 	N 	0.94300 0.66320 0.95280 -0.34100
H 	H 	0.94080 0.63280 0.93060 0.12400
H 	H 	0.97080 0.69430 0.98050 0.10500
C 	C 	0.58890 0.81300 0.89600 -1.31800
H 	H 	0.59350 0.90090 0.90890 0.43700
H 	H 	0.56100 0.81380 0.86030 0.43300
H 	H 	0.58290 0.74990 0.90980 0.42300
Zn	Zn	0.61516 0.79565 0.74584 1.21700
N 	N 	0.60300 0.55570 0.77680 -0.18700
H 	H 	0.58220 0.53880 0.74540 0.12500
O 	O 	0.63070 0.75570 0.87510 -0.56500
Zn	Zn	0.55360 0.91192 0.62245 1.24800
O 	O 	0.73716 0.65630 0.94450 -0.44000
N 	N 	0.55810 0.92590 0.73080 -0.33800
H 	H 	0.56720 0.85880 0.74980 0.08500
H 	H 	0.54120 0.91280 0.70000 0.10900
O 	O 	0.72990 0.62590 0.87170 -0.37700
N 	N 	0.63160 0.03390 0.71700 -0.18600
H 	H 	0.65460 0.04640 0.74880 0.12600
C 	C 	0.77250 0.64210 0.91570 0.22400
O 	O 	0.61950 0.68420 0.79350 -0.43300
C 	C 	0.81800 0.64780 0.92680 -0.11500
N 	N 	0.67320 0.66590 0.76250 -0.34200
H 	H 	0.69110 0.68090 0.79350 0.12600
H 	H 	0.66170 0.73190 0.74230 0.07900
O 	O 	0.64690 0.48240 0.85330 -0.38500
N 	N 	0.46740 0.06010 0.54540 -0.18300
H 	H 	0.44700 0.11050 0.51950 0.12300
C 	C 	0.86270 0.70190 0.97090 0.03000
H 	H 	0.86480 0.73480 0.99480 0.01100
O 	O 	0.69790 0.88260 0.87370 -0.57200
C 	C 	0.90110 0.66210 0.94390 0.16100
N 	N 	0.35560 0.45510 0.56940 -0.33700
H 	H 	0.36020 0.46650 0.59450 0.15900
H 	H 	0.33480 0.50500 0.54340 0.13400
O 	O 	0.67730 0.91860 0.80480 -0.58600
C 	C 	0.85690 0.61250 0.89970 -0.19900
H 	H 	0.85450 0.58230 0.87540 0.10700
O 	O 	0.55530 0.67100 0.68720 -0.57300
C 	C 	0.81580 0.60700 0.89110 0.06500
H 	H 	0.78590 0.57510 0.86060 0.01100
O 	O 	0.53060 0.71970 0.61610 -0.57200
C 	C 	0.61820 0.45860 0.80770 0.24700
O 	O 	0.61041 0.90950 0.69820 -0.43100
C 	C 	0.59940 0.32130 0.78630 -0.15300
O 	O 	0.58590 0.11360 0.63990 -0.36500
C 	C 	0.57230 0.29270 0.73780 0.11000
H 	H 	0.56280 0.36280 0.71640 -0.01900
O 	O 	0.49825 0.97470 0.55040 -0.43700
C 	C 	0.55860 0.16360 0.71930 -0.22900
H 	H 	0.54120 0.14710 0.68640 0.11300
O 	O 	0.49870 0.99150 0.61770 -0.38300
C 	C 	0.57100 0.05810 0.75020 0.18900
O 	O 	0.59790 0.83800 0.61530 -0.54200
C 	C 	0.59760 0.08450 0.79850 -0.22600
H 	H 	0.60630 0.01450 0.81950 0.10800
O 	O 	0.55580 0.85040 0.53540 -0.53900
C 	C 	0.61220 0.21660 0.81720 0.09700
H 	H 	0.63040 0.23340 0.85040 0.00000
C 	C 	0.70480 0.93340 0.85000 0.83400
C 	C 	0.74900 0.02160 0.87690 -1.42600
H 	H 	0.75410 0.03540 0.85640 0.44800
H 	H 	0.74350 0.10650 0.88390 0.45000
H 	H 	0.77790 0.97970 0.90770 0.45400
C 	C 	0.52950 0.65030 0.64190 0.76000
C 	C 	0.49580 0.53070 0.61760 -1.31100
H 	H 	0.51130 0.45800 0.61680 0.42500
H 	H 	0.48940 0.50420 0.63630 0.42100
H 	H 	0.46500 0.55340 0.58410 0.41000
C 	C 	0.61730 0.13350 0.68710 0.23300
C 	C 	0.63690 0.26880 0.70860 -0.15400
C 	C 	0.66800 0.29520 0.75830 0.11200
H 	H 	0.68100 0.22410 0.78040 -0.02200
C 	C 	0.68070 0.42550 0.77660 -0.24000
H 	H 	0.70150 0.44080 0.81040 0.11900
C 	C 	0.66250 0.53210 0.74470 0.20600
C 	C 	0.63370 0.50690 0.69510 -0.24000
H 	H 	0.62270 0.57760 0.67350 0.11000
C 	C 	0.62100 0.37630 0.67750 0.10400
H 	H 	0.60130 0.36050 0.64390 -0.00300
C 	C 	0.46910 0.06450 0.58110 0.23600
C 	C 	0.43610 0.16280 0.57450 -0.17400
C 	C 	0.43980 0.17910 0.61210 0.10900
H 	H 	0.46050 0.12150 0.63940 -0.01400
C 	C 	0.41440 0.27690 0.61130 -0.26100
H 	H 	0.41990 0.28790 0.63880 0.11800
C 	C 	0.38140 0.35730 0.57090 0.21300
C 	C 	0.37600 0.34430 0.53060 -0.24200
H 	H 	0.35420 0.39960 0.50270 0.08300
C 	C 	0.40360 0.24790 0.53370 0.09900
H 	H 	0.40040 0.23990 0.50760 -0.02600
C 	C 	0.59140 0.81160 0.58000 0.69300
C 	C 	0.62930 0.72140 0.58920 -1.13900
H 	H 	0.61240 0.64790 0.56610 0.36300
H 	H 	0.64660 0.77270 0.58460 0.36400
H 	H 	0.65280 0.68730 0.62280 0.36500
C 	C 	0.90390 0.70780 0.97990 -0.11800
H 	H 	0.93370 0.74210 0.01000 0.04400
C 	C 	0.13490 0.27260 0.91000 0.74700
N 	N 	0.27790 0.15400 0.95280 -0.18400
H 	H 	0.30720 0.16060 0.98280 0.13300
Zn	Zn	0.17498 0.18012 0.86965 1.24500
O 	O 	0.17420 0.25910 0.95570 -0.57100
N 	N 	0.44300 0.16320 0.95280 -0.33700
H 	H 	0.44080 0.13280 0.93060 0.11900
H 	H 	0.47080 0.19430 0.98050 0.10000
C 	C 	0.08890 0.31300 0.89600 -1.30200
H 	H 	0.09350 0.40090 0.90890 0.43000
H 	H 	0.06100 0.31380 0.86030 0.42300
H 	H 	0.08290 0.24990 0.90980 0.41500
Zn	Zn	0.11516 0.29565 0.74584 1.21700
N 	N 	0.10300 0.05570 0.77680 -0.19600
H 	H 	0.08220 0.03880 0.74540 0.12100
O 	O 	0.13070 0.25570 0.87510 -0.56800
Zn	Zn	0.05360 0.41192 0.62245 1.24400
O 	O 	0.23716 0.15630 0.94450 -0.44200
N 	N 	0.05810 0.42590 0.73080 -0.34300
H 	H 	0.06720 0.35880 0.74980 0.08300
H 	H 	0.04120 0.41280 0.70000 0.10500
O 	O 	0.22990 0.12590 0.87170 -0.38000
N 	N 	0.13160 0.53390 0.71700 -0.18100
H 	H 	0.15460 0.54640 0.74880 0.12800
C 	C 	0.27250 0.14210 0.91570 0.22000
O 	O 	0.11950 0.18420 0.79350 -0.43600
C 	C 	0.31800 0.14780 0.92680 -0.10900
N 	N 	0.17320 0.16590 0.76250 -0.34000
H 	H 	0.19110 0.18090 0.79350 0.12300
H 	H 	0.16170 0.23190 0.74230 0.07700
O 	O 	0.14690 0.98240 0.85330 -0.38000
N 	N 	0.96740 0.56010 0.54540 -0.17900
H 	H 	0.94700 0.61050 0.51950 0.12600
C 	C 	0.36270 0.20190 0.97090 0.01500
H 	H 	0.36480 0.23480 0.99480 0.01600
O 	O 	0.19790 0.38260 0.87370 -0.56400
C 	C 	0.40110 0.16210 0.94390 0.14800
N 	N 	0.85560 0.95510 0.56940 -0.32200
H 	H 	0.86020 0.96650 0.59450 0.16000
H 	H 	0.83480 0.00500 0.54340 0.11800
O 	O 	0.17730 0.41860 0.80480 -0.58100
C 	C 	0.35690 0.11250 0.89970 -0.19200
H 	H 	0.35450 0.08230 0.87540 0.10100
O 	O 	0.05530 0.17100 0.68720 -0.57100
C 	C 	0.31580 0.10700 0.89110 0.05600
H 	H 	0.28590 0.07510 0.86060 0.01100
O 	O 	0.03060 0.21970 0.61610 -0.57300
C 	C 	0.11820 0.95860 0.80770 0.26100
O 	O 	0.11041 0.40950 0.69820 -0.43800
C 	C 	0.09940 0.82130 0.78630 -0.15800
O 	O 	0.08590 0.61360 0.63990 -0.36400
C 	C 	0.07230 0.79270 0.73780 0.11600
H 	H 	0.06280 0.86280 0.71640 -0.01800
O 	O 	0.99825 0.47470 0.55040 -0.43900
C 	C 	0.05860 0.66360 0.71930 -0.23600
H 	H 	0.04120 0.64710 0.68640 0.11500
O 	O 	0.99870 0.49150 0.61770 -0.38900
C 	C 	0.07100 0.55810 0.75020 0.19900
O 	O 	0.09790 0.33800 0.61530 -0.54600
C 	C 	0.09760 0.58450 0.79850 -0.23300
H 	H 	0.10630 0.51450 0.81950 0.11400
O 	O 	0.05580 0.35040 0.53540 -0.54600
C 	C 	0.11220 0.71660 0.81720 0.10300
H 	H 	0.13040 0.73340 0.85040 -0.00000
C 	C 	0.20480 0.43340 0.85000 0.80300
C 	C 	0.24900 0.52160 0.87690 -1.34800
H 	H 	0.25410 0.53540 0.85640 0.42800
H 	H 	0.24350 0.60650 0.88390 0.43100
H 	H 	0.27790 0.47970 0.90770 0.42600
C 	C 	0.02950 0.15030 0.64190 0.73700
C 	C 	0.99580 0.03070 0.61760 -1.27300
H 	H 	0.01130 0.95800 0.61680 0.41500
H 	H 	0.98940 0.00420 0.63630 0.40800
H 	H 	0.96500 0.05340 0.58410 0.39700
C 	C 	0.11730 0.63350 0.68710 0.23500
C 	C 	0.13690 0.76880 0.70860 -0.15900
C 	C 	0.16800 0.79520 0.75830 0.11000
H 	H 	0.18100 0.72410 0.78040 -0.01900
C 	C 	0.18070 0.92550 0.77660 -0.22100
H 	H 	0.20150 0.94080 0.81040 0.11800
C 	C 	0.16250 0.03210 0.74470 0.19400
C 	C 	0.13370 0.00690 0.69510 -0.26100
H 	H 	0.12270 0.07760 0.67350 0.11400
C 	C 	0.12100 0.87630 0.67750 0.12700
H 	H 	0.10130 0.86050 0.64390 -0.00900
C 	C 	0.96910 0.56450 0.58110 0.25300
C 	C 	0.93610 0.66280 0.57450 -0.17600
C 	C 	0.93980 0.67910 0.61210 0.11400
H 	H 	0.96050 0.62150 0.63940 -0.01000
C 	C 	0.91440 0.77690 0.61130 -0.26000
H 	H 	0.91990 0.78790 0.63880 0.12100
C 	C 	0.88140 0.85730 0.57090 0.21700
C 	C 	0.87600 0.84430 0.53060 -0.24200
H 	H 	0.85420 0.89960 0.50270 0.09100
C 	C 	0.90360 0.74790 0.53370 0.10600
H 	H 	0.90040 0.73990 0.50760 -0.02600
C 	C 	0.09140 0.31160 0.58000 0.68800
C 	C 	0.12930 0.22140 0.58920 -1.12700
H 	H 	0.11240 0.14790 0.56610 0.35500
H 	H 	0.14660 0.27270 0.58460 0.35700
H 	H 	0.15280 0.18730 0.62280 0.35900
C 	C 	0.40390 0.20780 0.97990 -0.09800
H 	H 	0.43370 0.24210 0.01000 0.02900
Zn	Zn	0.25000 0.25000 -0.00000 1.19000
Zn	Zn	0.75000 0.75000 -0.00000 1.19200
Zn	Zn	0.00000 0.50000 0.50000 1.21400
Zn	Zn	0.50000 0.00000 0.50000 1.21400
C 	C 	0.63490 0.22740 0.41000 0.74600
N 	N 	0.77790 0.34600 0.45280 -0.18500
H 	H 	0.80720 0.33940 0.48280 0.12100
Zn	Zn	0.67498 0.31988 0.36965 1.24500
O 	O 	0.67420 0.24090 0.45570 -0.59200
N 	N 	0.94300 0.33680 0.45280 -0.34900
H 	H 	0.94080 0.36720 0.43060 0.12300
H 	H 	0.97080 0.30570 0.48050 0.09100
C 	C 	0.58890 0.18700 0.39600 -1.29500
H 	H 	0.59350 0.09910 0.40890 0.41800
H 	H 	0.56100 0.18620 0.36030 0.42200
H 	H 	0.58290 0.25010 0.40980 0.41000
Zn	Zn	0.61516 0.20435 0.24584 1.21600
N 	N 	0.60300 0.44430 0.27680 -0.18800
H 	H 	0.58220 0.46120 0.24540 0.12600
O 	O 	0.63070 0.24430 0.37510 -0.56900
Zn	Zn	0.55360 0.08808 0.12245 1.24500
O 	O 	0.73716 0.34370 0.44450 -0.45200
N 	N 	0.55810 0.07410 0.23080 -0.35800
H 	H 	0.56720 0.14120 0.24980 0.08500
H 	H 	0.54120 0.08720 0.20000 0.10900
O 	O 	0.72990 0.37410 0.37170 -0.38000
N 	N 	0.63160 0.96610 0.21700 -0.17300
H 	H 	0.65460 0.95360 0.24880 0.13100
C 	C 	0.77250 0.35790 0.41570 0.23300
O 	O 	0.61950 0.31580 0.29350 -0.43400
C 	C 	0.81800 0.35220 0.42680 -0.15300
N 	N 	0.67320 0.33410 0.26250 -0.34100
H 	H 	0.69110 0.31910 0.29350 0.12500
H 	H 	0.66170 0.26810 0.24230 0.07600
O 	O 	0.64690 0.51760 0.35330 -0.38700
N 	N 	0.46740 0.93990 0.04540 -0.17500
H 	H 	0.44700 0.88950 0.01950 0.11300
C 	C 	0.86270 0.29810 0.47090 0.09400
H 	H 	0.86480 0.26520 0.49480 -0.02600
O 	O 	0.69790 0.11740 0.37370 -0.55300
C 	C 	0.90110 0.33790 0.44390 0.19900
N 	N 	0.35560 0.54490 0.06940 -0.33600
H 	H 	0.36020 0.53350 0.09450 0.15700
H 	H 	0.33480 0.49500 0.04340 0.12700
O 	O 	0.67730 0.08140 0.30480 -0.56900
C 	C 	0.85690 0.38750 0.39970 -0.23800
H 	H 	0.85450 0.41770 0.37540 0.11900
O 	O 	0.55530 0.32900 0.18720 -0.57200
C 	C 	0.81580 0.39300 0.39110 0.09900
H 	H 	0.78590 0.42490 0.36060 -0.00100
O 	O 	0.53060 0.28030 0.11610 -0.57300
C 	C 	0.61820 0.54140 0.30770 0.25300
O 	O 	0.61041 0.09050 0.19820 -0.44800
C 	C 	0.59940 0.67870 0.28630 -0.16700
O 	O 	0.58590 0.88640 0.13990 -0.35600
C 	C 	0.57230 0.70730 0.23780 0.13100
H 	H 	0.56280 0.63720 0.21640 -0.02600
O 	O 	0.49825 0.02530 0.05040 -0.46700
C 	C 	0.55860 0.83640 0.21930 -0.25500
H 	H 	0.54120 0.85290 0.18640 0.12800
O 	O 	0.49870 0.00850 0.11770 -0.41800
C 	C 	0.57100 0.94190 0.25020 0.23100
O 	O 	0.59790 0.16200 0.11530 -0.54900
C 	C 	0.59760 0.91550 0.29850 -0.25100
H 	H 	0.60630 0.98550 0.31950 0.12800
O 	O 	0.55580 0.14960 0.03540 -0.56300
C 	C 	0.61220 0.78340 0.31720 0.11900
H 	H 	0.63040 0.76660 0.35040 -0.00600
C 	C 	0.70480 0.06660 0.35000 0.73400
C 	C 	0.74900 0.97840 0.37690 -1.17200
H 	H 	0.75410 0.96460 0.35640 0.38000
H 	H 	0.74350 0.89350 0.38390 0.37700
H 	H 	0.77790 0.02030 0.40770 0.35500
C 	C 	0.52950 0.34970 0.14190 0.75600
C 	C 	0.49580 0.46930 0.11760 -1.30100
H 	H 	0.51130 0.54200 0.11680 0.42000
H 	H 	0.48940 0.49580 0.13630 0.41800
H 	H 	0.46500 0.44660 0.08410 0.40300
C 	C 	0.61730 0.86650 0.18710 0.23400
C 	C 	0.63690 0.73120 0.20860 -0.15300
C 	C 	0.66800 0.70480 0.25830 0.11100
H 	H 	0.68100 0.77590 0.28040 -0.01800
C 	C 	0.68070 0.57450 0.27660 -0.23800
H 	H 	0.70150 0.55920 0.31040 0.11900
C 	C 	0.66250 0.46790 0.24470 0.20500
C 	C 	0.63370 0.49310 0.19510 -0.24000
H 	H 	0.62270 0.42240 0.17350 0.10900
C 	C 	0.62100 0.62370 0.17750 0.10400
H 	H 	0.60130 0.63950 0.14390 -0.00500
C 	C 	0.46910 0.93550 0.08110 0.27300
C 	C 	0.43610 0.83720 0.07450 -0.18800
C 	C 	0.43980 0.82090 0.11210 0.11900
H 	H 	0.46050 0.87850 0.13940 -0.01000
C 	C 	0.41440 0.72310 0.11130 -0.26500
H 	H 	0.41990 0.71210 0.13880 0.12000
C 	C 	0.38140 0.64270 0.07090 0.21300
C 	C 	0.37600 0.65570 0.03060 -0.24800
H 	H 	0.35420 0.60040 0.00270 0.07300
C 	C 	0.40360 0.75210 0.03370 0.10700
H 	H 	0.40040 0.76010 0.00760 -0.03900
C 	C 	0.59140 0.18840 0.08000 0.68600
C 	C 	0.62930 0.27860 0.08920 -1.12100
H 	H 	0.61240 0.35210 0.06610 0.34900
H 	H 	0.64660 0.22730 0.08460 0.34700
H 	H 	0.65280 0.31270 0.12280 0.35700
C 	C 	0.90390 0.29220 0.47990 -0.23200
H 	H 	0.93370 0.25790 0.51000 0.10400
C 	C 	0.13490 0.72740 0.41000 0.75000
N 	N 	0.27790 0.84600 0.45280 -0.18500
H 	H 	0.30720 0.83940 0.48280 0.12200
Zn	Zn	0.17498 0.81988 0.36965 1.24700
O 	O 	0.17420 0.74090 0.45570 -0.59100
N 	N 	0.44300 0.83680 0.45280 -0.34800
H 	H 	0.44080 0.86720 0.43060 0.12300
H 	H 	0.47080 0.80570 0.48050 0.08800
C 	C 	0.08890 0.68700 0.39600 -1.30000
H 	H 	0.09350 0.59910 0.40890 0.42400
H 	H 	0.06100 0.68620 0.36030 0.42400
H 	H 	0.08290 0.75010 0.40980 0.41200
Zn	Zn	0.11516 0.70435 0.24584 1.21600
N 	N 	0.10300 0.94430 0.27680 -0.18100
H 	H 	0.08220 0.96120 0.24540 0.12600
O 	O 	0.13070 0.74430 0.37510 -0.56600
Zn	Zn	0.05360 0.58808 0.12245 1.24300
O 	O 	0.23716 0.84370 0.44450 -0.44900
N 	N 	0.05810 0.57410 0.23080 -0.34300
H 	H 	0.06720 0.64120 0.24980 0.08300
H 	H 	0.04120 0.58720 0.20000 0.10400
O 	O 	0.22990 0.87410 0.37170 -0.37700
N 	N 	0.13160 0.46610 0.21700 -0.18100
H 	H 	0.15460 0.45360 0.24880 0.12700
C 	C 	0.27250 0.85790 0.41570 0.23300
O 	O 	0.11950 0.81580 0.29350 -0.43300
C 	C 	0.31800 0.85220 0.42680 -0.15200
N 	N 	0.17320 0.83410 0.26250 -0.34300
H 	H 	0.19110 0.81910 0.29350 0.12700
H 	H 	0.16170 0.76810 0.24230 0.07800
O 	O 	0.14690 0.01760 0.35330 -0.39000
N 	N 	0.96740 0.43990 0.04540 -0.17800
H 	H 	0.94700 0.38950 0.01950 0.11400
C 	C 	0.36270 0.79810 0.47090 0.09400
H 	H 	0.36480 0.76520 0.49480 -0.02600
O 	O 	0.19790 0.61740 0.37370 -0.56600
C 	C 	0.40110 0.83790 0.44390 0.20100
N 	N 	0.85560 0.04490 0.06940 -0.34500
H 	H 	0.86020 0.03350 0.09450 0.15700
H 	H 	0.83480 0.99500 0.04340 0.13700
O 	O 	0.17730 0.58140 0.30480 -0.57900
C 	C 	0.35690 0.88750 0.39970 -0.23500
H 	H 	0.35450 0.91770 0.37540 0.12200
O 	O 	0.05530 0.82900 0.18720 -0.55400
C 	C 	0.31580 0.89300 0.39110 0.10000
H 	H 	0.28590 0.92490 0.36060 0.00200
O 	O 	0.03060 0.78030 0.11610 -0.55800
C 	C 	0.11820 0.04140 0.30770 0.23800
O 	O 	0.11041 0.59050 0.19820 -0.43800
C 	C 	0.09940 0.17870 0.28630 -0.15600
O 	O 	0.08590 0.38640 0.13990 -0.36500
C 	C 	0.07230 0.20730 0.23780 0.11300
H 	H 	0.06280 0.13720 0.21640 -0.02300
O 	O 	0.99825 0.52530 0.05040 -0.44600
C 	C 	0.05860 0.33640 0.21930 -0.23500
H 	H 	0.04120 0.35290 0.18640 0.11300
O 	O 	0.99870 0.50850 0.11770 -0.38600
C 	C 	0.07100 0.44190 0.25020 0.19800
O 	O 	0.09790 0.66200 0.11530 -0.54800
C 	C 	0.09760 0.41550 0.29850 -0.23200
H 	H 	0.10630 0.48550 0.31950 0.11300
O 	O 	0.05580 0.64960 0.03540 -0.56400
C 	C 	0.11220 0.28340 0.31720 0.10100
H 	H 	0.13040 0.26660 0.35040 -0.00300
C 	C 	0.20480 0.56660 0.35000 0.79500
C 	C 	0.24900 0.47840 0.37690 -1.32500
H 	H 	0.25410 0.46460 0.35640 0.42000
H 	H 	0.24350 0.39350 0.38390 0.41700
H 	H 	0.27790 0.52030 0.40770 0.41200
C 	C 	0.02950 0.84970 0.14190 0.68900
C 	C 	0.99580 0.96930 0.11760 -1.11200
H 	H 	0.01130 0.04200 0.11680 0.34600
H 	H 	0.98940 0.99580 0.13630 0.37100
H 	H 	0.96500 0.94660 0.08410 0.35400
C 	C 	0.11730 0.36650 0.18710 0.23200
C 	C 	0.13690 0.23120 0.20860 -0.15000
C 	C 	0.16800 0.20480 0.25830 0.11400
H 	H 	0.18100 0.27590 0.28040 -0.02200
C 	C 	0.18070 0.07450 0.27660 -0.25600
H 	H 	0.20150 0.05920 0.31040 0.12000
C 	C 	0.16250 0.96790 0.24470 0.21500
C 	C 	0.13370 0.99310 0.19510 -0.22100
H 	H 	0.12270 0.92240 0.17350 0.10500
C 	C 	0.12100 0.12370 0.17750 0.08400
H 	H 	0.10130 0.13950 0.14390 -0.00100
C 	C 	0.96910 0.43550 0.08110 0.24800
C 	C 	0.93610 0.33720 0.07450 -0.17600
C 	C 	0.93980 0.32090 0.11210 0.11000
H 	H 	0.96050 0.37850 0.13940 -0.00800
C 	C 	0.91440 0.22310 0.11130 -0.25900
H 	H 	0.91990 0.21210 0.13880 0.11900
C 	C 	0.88140 0.14270 0.07090 0.20900
C 	C 	0.87600 0.15570 0.03060 -0.24300
H 	H 	0.85420 0.10040 0.00270 0.06900
C 	C 	0.90360 0.25210 0.03370 0.09900
H 	H 	0.90040 0.26010 0.00760 -0.03600
C 	C 	0.09140 0.68840 0.08000 0.69200
C 	C 	0.12930 0.77860 0.08920 -1.13300
H 	H 	0.11240 0.85210 0.06610 0.35500
H 	H 	0.14660 0.72730 0.08460 0.35400
H 	H 	0.15280 0.81270 0.12280 0.36400
C 	C 	0.40390 0.79220 0.47990 -0.22900
H 	H 	0.43370 0.75790 0.51000 0.10300
C 	C 	0.36510 0.77260 0.59000 0.75500
N 	N 	0.22210 0.65400 0.54720 -0.18500
H 	H 	0.19280 0.66060 0.51720 0.12100
Zn	Zn	0.32502 0.68012 0.63035 1.24600
O 	O 	0.32580 0.75910 0.54430 -0.59200
N 	N 	0.05700 0.66320 0.54720 -0.34600
H 	H 	0.05920 0.63280 0.56940 0.11800
H 	H 	0.02920 0.69430 0.51950 0.08300
C 	C 	0.41110 0.81300 0.60400 -1.31400
H 	H 	0.40650 0.90090 0.59110 0.43200
H 	H 	0.43900 0.81380 0.63970 0.43200
H 	H 	0.41710 0.74990 0.59020 0.41700
Zn	Zn	0.38484 0.79565 0.75416 1.21800
N 	N 	0.39700 0.55570 0.72320 -0.18700
H 	H 	0.41780 0.53880 0.75460 0.12500
O 	O 	0.36930 0.75570 0.62490 -0.56600
Zn	Zn	0.44640 0.91192 0.87755 1.24900
O 	O 	0.26284 0.65630 0.55550 -0.45100
N 	N 	0.44190 0.92590 0.76920 -0.33800
H 	H 	0.43280 0.85880 0.75020 0.08500
H 	H 	0.45880 0.91280 0.80000 0.10900
O 	O 	0.27010 0.62590 0.62830 -0.38000
N 	N 	0.36840 0.03390 0.78300 -0.18600
H 	H 	0.34540 0.04640 0.75120 0.12600
C 	C 	0.22750 0.64210 0.58430 0.23200
O 	O 	0.38050 0.68420 0.70650 -0.43200
C 	C 	0.18200 0.64780 0.57320 -0.15200
N 	N 	0.32680 0.66590 0.73750 -0.34200
H 	H 	0.30890 0.68090 0.70650 0.12600
H 	H 	0.33830 0.73190 0.75770 0.07900
O 	O 	0.35310 0.48240 0.64670 -0.38700
N 	N 	0.53260 0.06010 0.95460 -0.18500
H 	H 	0.55300 0.11050 0.98050 0.13700
C 	C 	0.13730 0.70190 0.52910 0.09100
H 	H 	0.13520 0.73480 0.50520 -0.02500
O 	O 	0.30210 0.88260 0.62630 -0.57400
C 	C 	0.09890 0.66210 0.55610 0.19700
N 	N 	0.64440 0.45510 0.93060 -0.34000
H 	H 	0.63980 0.46650 0.90550 0.16100
H 	H 	0.66520 0.50500 0.95660 0.14200
O 	O 	0.32270 0.91860 0.69520 -0.58500
C 	C 	0.14310 0.61250 0.60030 -0.23400
H 	H 	0.14550 0.58230 0.62460 0.11900
O 	O 	0.44470 0.67100 0.81280 -0.57300
C 	C 	0.18420 0.60700 0.60890 0.09800
H 	H 	0.21410 0.57510 0.63940 -0.00000
O 	O 	0.46940 0.71970 0.88390 -0.57100
C 	C 	0.38180 0.45860 0.69230 0.24800
O 	O 	0.38959 0.90950 0.80180 -0.43000
C 	C 	0.40060 0.32130 0.71370 -0.15400
O 	O 	0.41410 0.11360 0.86010 -0.36400
C 	C 	0.42770 0.29270 0.76220 0.11100
H 	H 	0.43720 0.36280 0.78360 -0.01900
O 	O 	0.50175 0.97470 0.94960 -0.42400
C 	C 	0.44140 0.16360 0.78070 -0.22900
H 	H 	0.45880 0.14710 0.81360 0.11300
O 	O 	0.50130 0.99150 0.88230 -0.38300
C 	C 	0.42900 0.05810 0.74980 0.18900
O 	O 	0.40210 0.83800 0.88470 -0.54100
C 	C 	0.40240 0.08450 0.70150 -0.22700
H 	H 	0.39370 0.01450 0.68050 0.10800
O 	O 	0.44420 0.85040 0.96460 -0.51700
C 	C 	0.38780 0.21660 0.68280 0.09800
H 	H 	0.36960 0.23340 0.64960 -0.00200
C 	C 	0.29520 0.93340 0.65000 0.83100
C 	C 	0.25100 0.02160 0.62310 -1.41700
H 	H 	0.24590 0.03540 0.64360 0.44400
H 	H 	0.25650 0.10650 0.61610 0.44300
H 	H 	0.22210 0.97970 0.59230 0.44600
C 	C 	0.47050 0.65030 0.85810 0.76300
C 	C 	0.50420 0.53070 0.88240 -1.32000
H 	H 	0.48870 0.45800 0.88320 0.42900
H 	H 	0.51060 0.50420 0.86370 0.42400
H 	H 	0.53500 0.55340 0.91590 0.41700
C 	C 	0.38270 0.13350 0.81290 0.23200
C 	C 	0.36310 0.26880 0.79140 -0.15300
C 	C 	0.33200 0.29520 0.74170 0.11100
H 	H 	0.31900 0.22410 0.71960 -0.02200
C 	C 	0.31930 0.42550 0.72340 -0.23900
H 	H 	0.29850 0.44080 0.68960 0.11800
C 	C 	0.33750 0.53210 0.75530 0.20500
C 	C 	0.36630 0.50690 0.80490 -0.23900
H 	H 	0.37730 0.57760 0.82650 0.11000
C 	C 	0.37900 0.37630 0.82250 0.10300
H 	H 	0.39870 0.36050 0.85610 -0.00100
C 	C 	0.53090 0.06450 0.91890 0.24200
C 	C 	0.56390 0.16280 0.92550 -0.17400
C 	C 	0.56020 0.17910 0.88790 0.11200
H 	H 	0.53950 0.12150 0.86060 -0.01400
C 	C 	0.58560 0.27690 0.88870 -0.26400
H 	H 	0.58010 0.28790 0.86120 0.12000
C 	C 	0.61860 0.35730 0.92910 0.22000
C 	C 	0.62400 0.34430 0.96940 -0.24200
H 	H 	0.64580 0.39960 0.99730 0.09600
C 	C 	0.59640 0.24790 0.96630 0.10400
H 	H 	0.59960 0.23990 0.99240 -0.01600
C 	C 	0.40860 0.81160 0.92000 0.69500
C 	C 	0.37070 0.72140 0.91080 -1.15100
H 	H 	0.38760 0.64790 0.93390 0.37500
H 	H 	0.35340 0.77270 0.91540 0.37300
H 	H 	0.34720 0.68730 0.87720 0.37000
C 	C 	0.09610 0.70780 0.52010 -0.22700
H 	H 	0.06630 0.74210 0.49000 0.10000
C 	C 	0.86510 0.27260 0.59000 0.75200
N 	N 	0.72210 0.15400 0.54720 -0.18600
H 	H 	0.69280 0.16060 0.51720 0.12000
Zn	Zn	0.82502 0.18012 0.63035 1.24400
O 	O 	0.82580 0.25910 0.54430 -0.59300
N 	N 	0.55700 0.16320 0.54720 -0.34700
H 	H 	0.55920 0.13280 0.56940 0.11700
H 	H 	0.52920 0.19430 0.51950 0.08600
C 	C 	0.91110 0.31300 0.60400 -1.31200
H 	H 	0.90650 0.40090 0.59110 0.42900
H 	H 	0.93900 0.31380 0.63970 0.43100
H 	H 	0.91710 0.24990 0.59020 0.41600
Zn	Zn	0.88484 0.29565 0.75416 1.21700
N 	N 	0.89700 0.05570 0.72320 -0.19700
H 	H 	0.91780 0.03880 0.75460 0.12400
O 	O 	0.86930 0.25570 0.62490 -0.56900
Zn	Zn	0.94640 0.41192 0.87755 1.25000
O 	O 	0.76284 0.15630 0.55550 -0.45500
N 	N 	0.94190 0.42590 0.76920 -0.34600
H 	H 	0.93280 0.35880 0.75020 0.08700
H 	H 	0.95880 0.41280 0.80000 0.11200
O 	O 	0.77010 0.12590 0.62830 -0.38400
N 	N 	0.86840 0.53390 0.78300 -0.18100
H 	H 	0.84540 0.54640 0.75120 0.12800
C 	C 	0.72750 0.14210 0.58430 0.23100
O 	O 	0.88050 0.18420 0.70650 -0.43400
C 	C 	0.68200 0.14780 0.57320 -0.15400
N 	N 	0.82680 0.16590 0.73750 -0.34000
H 	H 	0.80890 0.18090 0.70650 0.12400
H 	H 	0.83830 0.23190 0.75770 0.07700
O 	O 	0.85310 0.98240 0.64670 -0.38200
N 	N 	0.03260 0.56010 0.95460 -0.18200
H 	H 	0.05300 0.61050 0.98050 0.13900
C 	C 	0.63730 0.20190 0.52910 0.09100
H 	H 	0.63520 0.23480 0.50520 -0.02600
O 	O 	0.80210 0.38260 0.62630 -0.56600
C 	C 	0.59890 0.16210 0.55610 0.19600
N 	N 	0.14440 0.95510 0.93060 -0.32600
H 	H 	0.13980 0.96650 0.90550 0.16200
H 	H 	0.16520 0.00500 0.95660 0.12800
O 	O 	0.82270 0.41860 0.69520 -0.58000
C 	C 	0.64310 0.11250 0.60030 -0.23700
H 	H 	0.64550 0.08230 0.62460 0.11600
O 	O 	0.94470 0.17100 0.81280 -0.58800
C 	C 	0.68420 0.10700 0.60890 0.09700
H 	H 	0.71410 0.07510 0.63940 -0.00300
O 	O 	0.96940 0.21970 0.88390 -0.58400
C 	C 	0.88180 0.95860 0.69230 0.26400
O 	O 	0.88959 0.40950 0.80180 -0.43700
C 	C 	0.90060 0.82130 0.71370 -0.16100
O 	O 	0.91410 0.61360 0.86010 -0.35800
C 	C 	0.92770 0.79270 0.76220 0.12200
H 	H 	0.93720 0.86280 0.78360 -0.01800
O 	O 	0.00175 0.47470 0.94960 -0.43900
C 	C 	0.94140 0.66360 0.78070 -0.24000
H 	H 	0.95880 0.64710 0.81360 0.12200
O 	O 	0.00130 0.49150 0.88230 -0.40400
C 	C 	0.92900 0.55810 0.74980 0.20800
O 	O 	0.90210 0.33800 0.88470 -0.54200
C 	C 	0.90240 0.58450 0.70150 -0.23700
H 	H 	0.89370 0.51450 0.68050 0.11600
O 	O 	0.94420 0.35040 0.96460 -0.51900
C 	C 	0.88780 0.71660 0.68280 0.10900
H 	H 	0.86960 0.73340 0.64960 -0.00400
C 	C 	0.79520 0.43340 0.65000 0.79700
C 	C 	0.75100 0.52160 0.62310 -1.33000
H 	H 	0.74590 0.53540 0.64360 0.42200
H 	H 	0.75650 0.60650 0.61610 0.42000
H 	H 	0.72210 0.47970 0.59230 0.41400
C 	C 	0.97050 0.15030 0.85810 0.81600
C 	C 	0.00420 0.03070 0.88240 -1.47500
H 	H 	0.98870 0.95800 0.88320 0.49100
H 	H 	0.01060 0.00420 0.86370 0.46100
H 	H 	0.03500 0.05340 0.91590 0.45700
C 	C 	0.88270 0.63350 0.81290 0.23400
C 	C 	0.86310 0.76880 0.79140 -0.15600
C 	C 	0.83200 0.79520 0.74170 0.10800
H 	H 	0.81900 0.72410 0.71960 -0.01800
C 	C 	0.81930 0.92550 0.72340 -0.22000
H 	H 	0.79850 0.94080 0.68960 0.11700
C 	C 	0.83750 0.03210 0.75530 0.19300
C 	C 	0.86630 0.00690 0.80490 -0.25800
H 	H 	0.87730 0.07760 0.82650 0.11400
C 	C 	0.87900 0.87630 0.82250 0.12300
H 	H 	0.89870 0.86050 0.85610 -0.00600
C 	C 	0.03090 0.56450 0.91890 0.25800
C 	C 	0.06390 0.66280 0.92550 -0.18100
C 	C 	0.06020 0.67910 0.88790 0.11900
H 	H 	0.03950 0.62150 0.86060 -0.01700
C 	C 	0.08560 0.77690 0.88870 -0.26800
H 	H 	0.08010 0.78790 0.86120 0.12100
C 	C 	0.11860 0.85730 0.92910 0.22500
C 	C 	0.12400 0.84430 0.96940 -0.24500
H 	H 	0.14580 0.89960 0.99730 0.10400
C 	C 	0.09640 0.74790 0.96630 0.11100
H 	H 	0.09960 0.73990 0.99240 -0.01700
C 	C 	0.90860 0.31160 0.92000 0.69000
C 	C 	0.87070 0.22140 0.91080 -1.14000
H 	H 	0.88760 0.14790 0.93390 0.36900
H 	H 	0.85340 0.27270 0.91540 0.36600
H 	H 	0.84720 0.18730 0.87720 0.36400
C 	C 	0.59610 0.20780 0.52010 -0.23000
H 	H 	0.56630 0.24210 0.49000 0.10200
Zn	Zn	0.75000 0.25000 0.50000 1.20300
Zn	Zn	0.25000 0.75000 0.50000 1.20400
Zn	Zn	-0.00000 0.50000 -0.00000 1.20200
Zn	Zn	0.50000 0.00000 -0.00000 1.20100
