data_crystal

_cell_length_a 22.87000
_cell_length_b 34.64700
_cell_length_c 9.53500
_cell_angle_alpha 90.00000
_cell_angle_beta  90.00000
_cell_angle_gamma 90.00000

_symmetry_space_group_name_	'P 1'
_symmetry_space_group_name_H-M	'P 1'

loop_
_symmetry_equiv_pos_as_xyz
  x,y,z

loop_
_atom_site_label
_atom_site_type_symbol
_atom_site_fract_x
_atom_site_fract_y
_atom_site_fract_z
_atom_site_charge
Ag	Ag	0.32282 0.12520 0.63884 0.50800
Ag	Ag	0.44127 0.14111 0.96205 0.50300
N 	N 	0.49725 0.06394 0.70310 -0.10700
N 	N 	0.53247 0.09694 0.70360 -0.17300
N 	N 	0.50978 0.08443 0.49040 -0.11400
N 	N 	0.50591 0.08803 0.34520 -0.11400
N 	N 	0.48314 0.11088 0.14320 -0.17200
N 	N 	0.51594 0.07759 0.12210 -0.12400
N 	N 	0.32210 0.93627 0.05210 -0.16800
N 	N 	0.35689 0.92670 0.93720 -0.15200
N 	N 	0.34546 0.98848 0.94230 -0.10900
N 	N 	0.35111 0.02693 0.90640 -0.10800
N 	N 	0.38347 0.08539 0.89810 -0.15000
N 	N 	0.33940 0.08084 0.79710 -0.17300
C 	C 	0.53980 0.10772 0.57650 0.08600
H 	H 	0.56250 0.12860 0.54810 -0.01500
C 	C 	0.48386 0.05727 0.57310 0.07800
H 	H 	0.46030 0.03720 0.54140 0.01000
C 	C 	0.47744 0.11662 0.27690 0.08500
H 	H 	0.45730 0.13690 0.31860 -0.01100
C 	C 	0.52891 0.06473 0.24640 0.08000
H 	H 	0.55080 0.04270 0.26450 0.00500
C 	C 	0.31530 0.97347 0.05270 0.08400
H 	H 	0.29350 0.98750 0.11750 -0.00700
C 	C 	0.36996 0.95853 0.87440 0.08300
H 	H 	0.39290 0.96050 0.79420 0.00600
C 	C 	0.38918 0.05279 0.96090 0.08300
H 	H 	0.41550 0.04770 0.03290 0.01200
C 	C 	0.32092 0.04582 0.80530 0.08400
H 	H 	0.29150 0.03520 0.75040 -0.02000
Ag	Ag	0.32282 0.62520 0.13884 0.51000
Ag	Ag	0.44127 0.64111 0.46205 0.50500
N 	N 	0.49725 0.56394 0.20310 -0.10600
N 	N 	0.53247 0.59694 0.20360 -0.17200
N 	N 	0.50978 0.58443 0.99040 -0.11600
N 	N 	0.50591 0.58803 0.84520 -0.11300
N 	N 	0.48314 0.61088 0.64320 -0.17100
N 	N 	0.51594 0.57759 0.62210 -0.12300
N 	N 	0.32210 0.43627 0.55210 -0.16900
N 	N 	0.35689 0.42670 0.43720 -0.15100
N 	N 	0.34546 0.48848 0.44230 -0.10700
N 	N 	0.35111 0.52693 0.40640 -0.10800
N 	N 	0.38347 0.58539 0.39810 -0.15100
N 	N 	0.33940 0.58084 0.29710 -0.17300
C 	C 	0.53980 0.60772 0.07650 0.08900
H 	H 	0.56250 0.62860 0.04810 -0.01500
C 	C 	0.48386 0.55727 0.07310 0.08000
H 	H 	0.46030 0.53720 0.04140 0.01000
C 	C 	0.47744 0.61662 0.77690 0.08500
H 	H 	0.45730 0.63690 0.81860 -0.01200
C 	C 	0.52891 0.56473 0.74640 0.08000
H 	H 	0.55080 0.54270 0.76450 0.00500
C 	C 	0.31530 0.47347 0.55270 0.08100
H 	H 	0.29350 0.48750 0.61750 -0.00700
C 	C 	0.36996 0.45853 0.37440 0.08400
H 	H 	0.39290 0.46050 0.29420 0.00600
C 	C 	0.38918 0.55279 0.46090 0.08900
H 	H 	0.41550 0.54770 0.53290 0.00700
C 	C 	0.32092 0.54582 0.30530 0.08500
H 	H 	0.29150 0.53520 0.25040 -0.02000
Ag	Ag	0.82282 0.12520 0.13884 0.51000
Ag	Ag	0.94127 0.14111 0.46205 0.50500
N 	N 	0.99725 0.06394 0.20310 -0.10600
N 	N 	0.03247 0.09694 0.20360 -0.17200
N 	N 	0.00978 0.08443 0.99040 -0.11500
N 	N 	0.00591 0.08803 0.84520 -0.11300
N 	N 	0.98314 0.11088 0.64320 -0.17100
N 	N 	0.01594 0.07759 0.62210 -0.12300
N 	N 	0.82210 0.93627 0.55210 -0.16900
N 	N 	0.85689 0.92670 0.43720 -0.15100
N 	N 	0.84546 0.98848 0.44230 -0.10700
N 	N 	0.85111 0.02693 0.40640 -0.10800
N 	N 	0.88347 0.08539 0.39810 -0.15100
N 	N 	0.83940 0.08084 0.29710 -0.17300
C 	C 	0.03980 0.10772 0.07650 0.08900
H 	H 	0.06250 0.12860 0.04810 -0.01500
C 	C 	0.98386 0.05727 0.07310 0.08000
H 	H 	0.96030 0.03720 0.04140 0.01000
C 	C 	0.97744 0.11662 0.77690 0.08500
H 	H 	0.95730 0.13690 0.81860 -0.01200
C 	C 	0.02891 0.06473 0.74640 0.08000
H 	H 	0.05080 0.04270 0.76450 0.00500
C 	C 	0.81530 0.97347 0.55270 0.08100
H 	H 	0.79350 0.98750 0.61750 -0.00700
C 	C 	0.86996 0.95853 0.37440 0.08400
H 	H 	0.89290 0.96050 0.29420 0.00600
C 	C 	0.88918 0.05279 0.46090 0.08900
H 	H 	0.91550 0.04770 0.53290 0.00700
C 	C 	0.82092 0.04582 0.30530 0.08500
H 	H 	0.79150 0.03520 0.25040 -0.02000
Ag	Ag	0.82282 0.62520 0.63884 0.50900
Ag	Ag	0.94127 0.64111 0.96205 0.50400
N 	N 	0.99725 0.56394 0.70310 -0.10600
N 	N 	0.03247 0.59694 0.70360 -0.17200
N 	N 	0.00978 0.58443 0.49040 -0.11300
N 	N 	0.00591 0.58803 0.34520 -0.11300
N 	N 	0.98314 0.61088 0.14320 -0.17100
N 	N 	0.01594 0.57759 0.12210 -0.12300
N 	N 	0.82210 0.43627 0.05210 -0.16800
N 	N 	0.85689 0.42670 0.93720 -0.15200
N 	N 	0.84546 0.48848 0.94230 -0.10900
N 	N 	0.85111 0.52693 0.90640 -0.10800
N 	N 	0.88347 0.58539 0.89810 -0.15000
N 	N 	0.83940 0.58084 0.79710 -0.17300
C 	C 	0.03980 0.60772 0.57650 0.08600
H 	H 	0.06250 0.62860 0.54810 -0.01500
C 	C 	0.98386 0.55727 0.57310 0.07700
H 	H 	0.96030 0.53720 0.54140 0.01000
C 	C 	0.97744 0.61662 0.27690 0.08500
H 	H 	0.95730 0.63690 0.31860 -0.01100
C 	C 	0.02891 0.56473 0.24640 0.08000
H 	H 	0.05080 0.54270 0.26450 0.00500
C 	C 	0.81530 0.47347 0.05270 0.08400
H 	H 	0.79350 0.48750 0.11750 -0.00700
C 	C 	0.86996 0.45853 0.87440 0.08300
H 	H 	0.89290 0.46050 0.79420 0.00600
C 	C 	0.88918 0.55279 0.96090 0.08300
H 	H 	0.91550 0.54770 0.03290 0.01200
C 	C 	0.82092 0.54582 0.80530 0.08400
H 	H 	0.79150 0.53520 0.75040 -0.02000
Ag	Ag	0.67718 0.87480 0.63884 0.50900
Ag	Ag	0.55873 0.85889 0.96205 0.50400
N 	N 	0.50275 0.93606 0.70310 -0.10600
N 	N 	0.46753 0.90306 0.70360 -0.17200
N 	N 	0.49022 0.91557 0.49040 -0.11300
N 	N 	0.49409 0.91197 0.34520 -0.11300
N 	N 	0.51686 0.88912 0.14320 -0.17100
N 	N 	0.48406 0.92241 0.12210 -0.12300
N 	N 	0.67790 0.06373 0.05210 -0.16800
N 	N 	0.64311 0.07330 0.93720 -0.15200
N 	N 	0.65454 0.01152 0.94230 -0.10900
N 	N 	0.64889 0.97307 0.90640 -0.10800
N 	N 	0.61653 0.91461 0.89810 -0.15000
N 	N 	0.66060 0.91916 0.79710 -0.17300
C 	C 	0.46020 0.89228 0.57650 0.08600
H 	H 	0.43750 0.87140 0.54810 -0.01500
C 	C 	0.51614 0.94273 0.57310 0.07800
H 	H 	0.53970 0.96280 0.54140 0.01000
C 	C 	0.52256 0.88338 0.27690 0.08500
H 	H 	0.54270 0.86310 0.31860 -0.01100
C 	C 	0.47109 0.93527 0.24640 0.08000
H 	H 	0.44920 0.95730 0.26450 0.00500
C 	C 	0.68470 0.02653 0.05270 0.08400
H 	H 	0.70650 0.01250 0.11750 -0.00700
C 	C 	0.63004 0.04147 0.87440 0.08300
H 	H 	0.60710 0.03950 0.79420 0.00600
C 	C 	0.61082 0.94721 0.96090 0.08300
H 	H 	0.58450 0.95230 0.03290 0.01200
C 	C 	0.67908 0.95418 0.80530 0.08400
H 	H 	0.70850 0.96480 0.75040 -0.02000
Ag	Ag	0.67718 0.37480 0.13884 0.51000
Ag	Ag	0.55873 0.35889 0.46205 0.50500
N 	N 	0.50275 0.43606 0.20310 -0.10600
N 	N 	0.46753 0.40306 0.20360 -0.17200
N 	N 	0.49022 0.41557 0.99040 -0.11600
N 	N 	0.49409 0.41197 0.84520 -0.11300
N 	N 	0.51686 0.38912 0.64320 -0.17100
N 	N 	0.48406 0.42241 0.62210 -0.12300
N 	N 	0.67790 0.56373 0.55210 -0.16900
N 	N 	0.64311 0.57330 0.43720 -0.15100
N 	N 	0.65454 0.51152 0.44230 -0.10700
N 	N 	0.64889 0.47307 0.40640 -0.10800
N 	N 	0.61653 0.41461 0.39810 -0.15100
N 	N 	0.66060 0.41916 0.29710 -0.17300
C 	C 	0.46020 0.39228 0.07650 0.08900
H 	H 	0.43750 0.37140 0.04810 -0.01500
C 	C 	0.51614 0.44273 0.07310 0.08000
H 	H 	0.53970 0.46280 0.04140 0.01000
C 	C 	0.52256 0.38338 0.77690 0.08500
H 	H 	0.54270 0.36310 0.81860 -0.01200
C 	C 	0.47109 0.43527 0.74640 0.08000
H 	H 	0.44920 0.45730 0.76450 0.00500
C 	C 	0.68470 0.52653 0.55270 0.08100
H 	H 	0.70650 0.51250 0.61750 -0.00700
C 	C 	0.63004 0.54147 0.37440 0.08400
H 	H 	0.60710 0.53950 0.29420 0.00600
C 	C 	0.61082 0.44721 0.46090 0.08900
H 	H 	0.58450 0.45230 0.53290 0.00700
C 	C 	0.67908 0.45418 0.30530 0.08500
H 	H 	0.70850 0.46480 0.25040 -0.02000
Ag	Ag	0.17718 0.87480 0.13884 0.51000
Ag	Ag	0.05873 0.85889 0.46205 0.50500
N 	N 	0.00275 0.93606 0.20310 -0.10600
N 	N 	0.96753 0.90306 0.20360 -0.17200
N 	N 	0.99022 0.91557 0.99040 -0.11500
N 	N 	0.99409 0.91197 0.84520 -0.11300
N 	N 	0.01686 0.88912 0.64320 -0.17100
N 	N 	0.98406 0.92241 0.62210 -0.12300
N 	N 	0.17790 0.06373 0.55210 -0.16900
N 	N 	0.14311 0.07330 0.43720 -0.15100
N 	N 	0.15454 0.01152 0.44230 -0.10700
N 	N 	0.14889 0.97307 0.40640 -0.10800
N 	N 	0.11653 0.91461 0.39810 -0.15100
N 	N 	0.16060 0.91916 0.29710 -0.17300
C 	C 	0.96020 0.89228 0.07650 0.08900
H 	H 	0.93750 0.87140 0.04810 -0.01500
C 	C 	0.01614 0.94273 0.07310 0.08000
H 	H 	0.03970 0.96280 0.04140 0.01000
C 	C 	0.02256 0.88338 0.77690 0.08500
H 	H 	0.04270 0.86310 0.81860 -0.01200
C 	C 	0.97109 0.93527 0.74640 0.08000
H 	H 	0.94920 0.95730 0.76450 0.00500
C 	C 	0.18470 0.02653 0.55270 0.08100
H 	H 	0.20650 0.01250 0.61750 -0.00700
C 	C 	0.13004 0.04147 0.37440 0.08400
H 	H 	0.10710 0.03950 0.29420 0.00600
C 	C 	0.11082 0.94721 0.46090 0.08900
H 	H 	0.08450 0.95230 0.53290 0.00700
C 	C 	0.17908 0.95418 0.30530 0.08500
H 	H 	0.20850 0.96480 0.25040 -0.02000
Ag	Ag	0.17718 0.37480 0.63884 0.50900
Ag	Ag	0.05873 0.35889 0.96205 0.50400
N 	N 	0.00275 0.43606 0.70310 -0.10600
N 	N 	0.96753 0.40306 0.70360 -0.17200
N 	N 	0.99022 0.41557 0.49040 -0.11300
N 	N 	0.99409 0.41197 0.34520 -0.11300
N 	N 	0.01686 0.38912 0.14320 -0.17100
N 	N 	0.98406 0.42241 0.12210 -0.12300
N 	N 	0.17790 0.56373 0.05210 -0.16800
N 	N 	0.14311 0.57330 0.93720 -0.15200
N 	N 	0.15454 0.51152 0.94230 -0.10900
N 	N 	0.14889 0.47307 0.90640 -0.10800
N 	N 	0.11653 0.41461 0.89810 -0.15000
N 	N 	0.16060 0.41916 0.79710 -0.17300
C 	C 	0.96020 0.39228 0.57650 0.08600
H 	H 	0.93750 0.37140 0.54810 -0.01500
C 	C 	0.01614 0.44273 0.57310 0.07700
H 	H 	0.03970 0.46280 0.54140 0.01000
C 	C 	0.02256 0.38338 0.27690 0.08500
H 	H 	0.04270 0.36310 0.31860 -0.01100
C 	C 	0.97109 0.43527 0.24640 0.08000
H 	H 	0.94920 0.45730 0.26450 0.00500
C 	C 	0.18470 0.52653 0.05270 0.08400
H 	H 	0.20650 0.51250 0.11750 -0.00700
C 	C 	0.13004 0.54147 0.87440 0.08300
H 	H 	0.10710 0.53950 0.79420 0.00600
C 	C 	0.11082 0.44721 0.96090 0.08300
H 	H 	0.08450 0.45230 0.03290 0.01200
C 	C 	0.17908 0.45418 0.80530 0.08400
H 	H 	0.20850 0.46480 0.75040 -0.02000
Ag	Ag	0.57282 0.12480 0.88884 0.50800
Ag	Ag	0.69127 0.10889 0.21205 0.50500
N 	N 	0.74725 0.18606 0.95310 -0.10600
N 	N 	0.78247 0.15306 0.95360 -0.17300
N 	N 	0.75978 0.16557 0.74040 -0.11300
N 	N 	0.75591 0.16197 0.59520 -0.11300
N 	N 	0.73314 0.13912 0.39320 -0.17100
N 	N 	0.76594 0.17241 0.37210 -0.12300
N 	N 	0.57210 0.31373 0.30210 -0.16900
N 	N 	0.60689 0.32330 0.18720 -0.15100
N 	N 	0.59546 0.26152 0.19230 -0.10700
N 	N 	0.60111 0.22307 0.15640 -0.10800
N 	N 	0.63347 0.16461 0.14810 -0.15000
N 	N 	0.58940 0.16916 0.04710 -0.17200
C 	C 	0.78980 0.14228 0.82650 0.08600
H 	H 	0.81250 0.12140 0.79810 -0.01500
C 	C 	0.73386 0.19273 0.82310 0.07700
H 	H 	0.71030 0.21280 0.79140 0.01000
C 	C 	0.72744 0.13338 0.52690 0.08500
H 	H 	0.70730 0.11310 0.56860 -0.01100
C 	C 	0.77891 0.18527 0.49640 0.08000
H 	H 	0.80080 0.20730 0.51450 0.00500
C 	C 	0.56530 0.27653 0.30270 0.08100
H 	H 	0.54350 0.26250 0.36750 -0.00700
C 	C 	0.61996 0.29147 0.12440 0.08400
H 	H 	0.64290 0.28950 0.04420 0.00700
C 	C 	0.63918 0.19721 0.21090 0.08900
H 	H 	0.66550 0.20230 0.28290 0.00700
C 	C 	0.57092 0.20418 0.05530 0.08500
H 	H 	0.54150 0.21480 0.00040 -0.01900
Ag	Ag	0.57282 0.62480 0.38884 0.50900
Ag	Ag	0.69127 0.60890 0.71205 0.50500
N 	N 	0.74725 0.68606 0.45310 -0.10500
N 	N 	0.78247 0.65306 0.45360 -0.17200
N 	N 	0.75978 0.66557 0.24040 -0.11300
N 	N 	0.75591 0.66197 0.09520 -0.11100
N 	N 	0.73314 0.63912 0.89320 -0.17300
N 	N 	0.76594 0.67241 0.87210 -0.12200
N 	N 	0.57210 0.81373 0.80210 -0.16900
N 	N 	0.60689 0.82330 0.68720 -0.15100
N 	N 	0.59546 0.76152 0.69230 -0.10700
N 	N 	0.60111 0.72307 0.65640 -0.10800
N 	N 	0.63347 0.66461 0.64810 -0.15100
N 	N 	0.58940 0.66916 0.54710 -0.17300
C 	C 	0.78980 0.64228 0.32650 0.08600
H 	H 	0.81250 0.62140 0.29810 -0.01500
C 	C 	0.73386 0.69273 0.32310 0.07800
H 	H 	0.71030 0.71280 0.29140 0.01000
C 	C 	0.72744 0.63338 0.02690 0.08900
H 	H 	0.70730 0.61310 0.06860 -0.01200
C 	C 	0.77891 0.68527 0.99640 0.07100
H 	H 	0.80080 0.70730 0.01450 0.01000
C 	C 	0.56530 0.77653 0.80270 0.08100
H 	H 	0.54350 0.76250 0.86750 -0.00700
C 	C 	0.61996 0.79147 0.62440 0.08400
H 	H 	0.64290 0.78950 0.54420 0.00600
C 	C 	0.63918 0.69721 0.71090 0.08900
H 	H 	0.66550 0.70230 0.78290 0.00700
C 	C 	0.57092 0.70418 0.55530 0.08500
H 	H 	0.54150 0.71480 0.50040 -0.02000
Ag	Ag	0.07282 0.12480 0.38884 0.50900
Ag	Ag	0.19127 0.10889 0.71205 0.50500
N 	N 	0.24725 0.18606 0.45310 -0.10500
N 	N 	0.28247 0.15306 0.45360 -0.17200
N 	N 	0.25978 0.16557 0.24040 -0.11300
N 	N 	0.25591 0.16197 0.09520 -0.11100
N 	N 	0.23314 0.13912 0.89320 -0.17300
N 	N 	0.26594 0.17241 0.87210 -0.12200
N 	N 	0.07210 0.31373 0.80210 -0.16900
N 	N 	0.10689 0.32330 0.68720 -0.15100
N 	N 	0.09546 0.26152 0.69230 -0.10700
N 	N 	0.10111 0.22307 0.65640 -0.10800
N 	N 	0.13347 0.16461 0.64810 -0.15100
N 	N 	0.08940 0.16916 0.54710 -0.17300
C 	C 	0.28980 0.14228 0.32650 0.08600
H 	H 	0.31250 0.12140 0.29810 -0.01500
C 	C 	0.23386 0.19273 0.32310 0.07800
H 	H 	0.21030 0.21280 0.29140 0.01000
C 	C 	0.22744 0.13338 0.02690 0.08900
H 	H 	0.20730 0.11310 0.06860 -0.01200
C 	C 	0.27891 0.18527 0.99640 0.07100
H 	H 	0.30080 0.20730 0.01450 0.01000
C 	C 	0.06530 0.27653 0.80270 0.08100
H 	H 	0.04350 0.26250 0.86750 -0.00700
C 	C 	0.11996 0.29147 0.62440 0.08400
H 	H 	0.14290 0.28950 0.54420 0.00600
C 	C 	0.13918 0.19721 0.71090 0.08900
H 	H 	0.16550 0.20230 0.78290 0.00700
C 	C 	0.07092 0.20418 0.55530 0.08500
H 	H 	0.04150 0.21480 0.50040 -0.02000
Ag	Ag	0.07282 0.62480 0.88884 0.50800
Ag	Ag	0.19127 0.60890 0.21205 0.50500
N 	N 	0.24725 0.68606 0.95310 -0.10600
N 	N 	0.28247 0.65306 0.95360 -0.17300
N 	N 	0.25978 0.66557 0.74040 -0.11300
N 	N 	0.25591 0.66197 0.59520 -0.11300
N 	N 	0.23314 0.63912 0.39320 -0.17100
N 	N 	0.26594 0.67241 0.37210 -0.12300
N 	N 	0.07210 0.81373 0.30210 -0.16900
N 	N 	0.10689 0.82330 0.18720 -0.15100
N 	N 	0.09546 0.76152 0.19230 -0.10700
N 	N 	0.10111 0.72307 0.15640 -0.10800
N 	N 	0.13347 0.66461 0.14810 -0.15000
N 	N 	0.08940 0.66916 0.04710 -0.17200
C 	C 	0.28980 0.64228 0.82650 0.08600
H 	H 	0.31250 0.62140 0.79810 -0.01500
C 	C 	0.23386 0.69273 0.82310 0.07700
H 	H 	0.21030 0.71280 0.79140 0.01000
C 	C 	0.22744 0.63338 0.52690 0.08500
H 	H 	0.20730 0.61310 0.56860 -0.01100
C 	C 	0.27891 0.68527 0.49640 0.08000
H 	H 	0.30080 0.70730 0.51450 0.00500
C 	C 	0.06530 0.77653 0.30270 0.08100
H 	H 	0.04350 0.76250 0.36750 -0.00700
C 	C 	0.11996 0.79147 0.12440 0.08400
H 	H 	0.14290 0.78950 0.04420 0.00700
C 	C 	0.13918 0.69721 0.21090 0.08900
H 	H 	0.16550 0.70230 0.28290 0.00700
C 	C 	0.07092 0.70418 0.05530 0.08500
H 	H 	0.04150 0.71480 0.00040 -0.01900
Ag	Ag	0.92718 0.37520 0.88884 0.50800
Ag	Ag	0.80873 0.39111 0.21205 0.50500
N 	N 	0.75275 0.31394 0.95310 -0.10600
N 	N 	0.71753 0.34694 0.95360 -0.17300
N 	N 	0.74022 0.33443 0.74040 -0.11300
N 	N 	0.74409 0.33803 0.59520 -0.11300
N 	N 	0.76686 0.36088 0.39320 -0.17100
N 	N 	0.73406 0.32759 0.37210 -0.12300
N 	N 	0.92790 0.18627 0.30210 -0.16900
N 	N 	0.89311 0.17670 0.18720 -0.15100
N 	N 	0.90454 0.23848 0.19230 -0.10700
N 	N 	0.89889 0.27693 0.15640 -0.10800
N 	N 	0.86653 0.33539 0.14810 -0.15000
N 	N 	0.91060 0.33084 0.04710 -0.17200
C 	C 	0.71020 0.35772 0.82650 0.08600
H 	H 	0.68750 0.37860 0.79810 -0.01500
C 	C 	0.76614 0.30727 0.82310 0.07700
H 	H 	0.78970 0.28720 0.79140 0.01000
C 	C 	0.77256 0.36662 0.52690 0.08500
H 	H 	0.79270 0.38690 0.56860 -0.01100
C 	C 	0.72109 0.31473 0.49640 0.08000
H 	H 	0.69920 0.29270 0.51450 0.00500
C 	C 	0.93470 0.22347 0.30270 0.08100
H 	H 	0.95650 0.23750 0.36750 -0.00700
C 	C 	0.88004 0.20853 0.12440 0.08400
H 	H 	0.85710 0.21050 0.04420 0.00700
C 	C 	0.86082 0.30279 0.21090 0.08900
H 	H 	0.83450 0.29770 0.28290 0.00700
C 	C 	0.92908 0.29582 0.05530 0.08500
H 	H 	0.95850 0.28520 0.00040 -0.01900
Ag	Ag	0.92718 0.87520 0.38884 0.50900
Ag	Ag	0.80873 0.89111 0.71205 0.50500
N 	N 	0.75275 0.81394 0.45310 -0.10500
N 	N 	0.71753 0.84694 0.45360 -0.17200
N 	N 	0.74022 0.83443 0.24040 -0.11300
N 	N 	0.74409 0.83803 0.09520 -0.11100
N 	N 	0.76686 0.86088 0.89320 -0.17300
N 	N 	0.73406 0.82759 0.87210 -0.12200
N 	N 	0.92790 0.68627 0.80210 -0.16900
N 	N 	0.89311 0.67670 0.68720 -0.15100
N 	N 	0.90454 0.73848 0.69230 -0.10700
N 	N 	0.89889 0.77693 0.65640 -0.10800
N 	N 	0.86653 0.83539 0.64810 -0.15100
N 	N 	0.91060 0.83084 0.54710 -0.17300
C 	C 	0.71020 0.85772 0.32650 0.08600
H 	H 	0.68750 0.87860 0.29810 -0.01500
C 	C 	0.76614 0.80727 0.32310 0.07800
H 	H 	0.78970 0.78720 0.29140 0.01000
C 	C 	0.77256 0.86662 0.02690 0.08900
H 	H 	0.79270 0.88690 0.06860 -0.01200
C 	C 	0.72109 0.81473 0.99640 0.07100
H 	H 	0.69920 0.79270 0.01450 0.01000
C 	C 	0.93470 0.72347 0.80270 0.08100
H 	H 	0.95650 0.73750 0.86750 -0.00700
C 	C 	0.88004 0.70853 0.62440 0.08400
H 	H 	0.85710 0.71050 0.54420 0.00600
C 	C 	0.86082 0.80279 0.71090 0.08900
H 	H 	0.83450 0.79770 0.78290 0.00700
C 	C 	0.92908 0.79582 0.55530 0.08500
H 	H 	0.95850 0.78520 0.50040 -0.02000
Ag	Ag	0.42718 0.37520 0.38884 0.50900
Ag	Ag	0.30873 0.39111 0.71205 0.50500
N 	N 	0.25275 0.31394 0.45310 -0.10500
N 	N 	0.21753 0.34694 0.45360 -0.17200
N 	N 	0.24022 0.33443 0.24040 -0.11300
N 	N 	0.24409 0.33803 0.09520 -0.11100
N 	N 	0.26686 0.36088 0.89320 -0.17300
N 	N 	0.23406 0.32759 0.87210 -0.12200
N 	N 	0.42790 0.18627 0.80210 -0.16900
N 	N 	0.39311 0.17670 0.68720 -0.15100
N 	N 	0.40454 0.23848 0.69230 -0.10700
N 	N 	0.39889 0.27693 0.65640 -0.10800
N 	N 	0.36653 0.33539 0.64810 -0.15100
N 	N 	0.41060 0.33084 0.54710 -0.17300
C 	C 	0.21020 0.35772 0.32650 0.08600
H 	H 	0.18750 0.37860 0.29810 -0.01500
C 	C 	0.26614 0.30727 0.32310 0.07800
H 	H 	0.28970 0.28720 0.29140 0.01000
C 	C 	0.27256 0.36662 0.02690 0.08900
H 	H 	0.29270 0.38690 0.06860 -0.01200
C 	C 	0.22109 0.31473 0.99640 0.07100
H 	H 	0.19920 0.29270 0.01450 0.01000
C 	C 	0.43470 0.22347 0.80270 0.08100
H 	H 	0.45650 0.23750 0.86750 -0.00700
C 	C 	0.38004 0.20853 0.62440 0.08400
H 	H 	0.35710 0.21050 0.54420 0.00600
C 	C 	0.36082 0.30279 0.71090 0.08900
H 	H 	0.33450 0.29770 0.78290 0.00700
C 	C 	0.42908 0.29582 0.55530 0.08500
H 	H 	0.45850 0.28520 0.50040 -0.02000
Ag	Ag	0.42718 0.87520 0.88884 0.50800
Ag	Ag	0.30873 0.89111 0.21205 0.50500
N 	N 	0.25275 0.81394 0.95310 -0.10600
N 	N 	0.21753 0.84694 0.95360 -0.17300
N 	N 	0.24022 0.83443 0.74040 -0.11300
N 	N 	0.24409 0.83803 0.59520 -0.11300
N 	N 	0.26686 0.86088 0.39320 -0.17100
N 	N 	0.23406 0.82759 0.37210 -0.12300
N 	N 	0.42790 0.68627 0.30210 -0.16900
N 	N 	0.39311 0.67670 0.18720 -0.15100
N 	N 	0.40454 0.73848 0.19230 -0.10700
N 	N 	0.39889 0.77693 0.15640 -0.10800
N 	N 	0.36653 0.83539 0.14810 -0.15000
N 	N 	0.41060 0.83084 0.04710 -0.17200
C 	C 	0.21020 0.85772 0.82650 0.08600
H 	H 	0.18750 0.87860 0.79810 -0.01500
C 	C 	0.26614 0.80727 0.82310 0.07700
H 	H 	0.28970 0.78720 0.79140 0.01000
C 	C 	0.27256 0.86662 0.52690 0.08500
H 	H 	0.29270 0.88690 0.56860 -0.01100
C 	C 	0.22109 0.81473 0.49640 0.08000
H 	H 	0.19920 0.79270 0.51450 0.00500
C 	C 	0.43470 0.72347 0.30270 0.08100
H 	H 	0.45650 0.73750 0.36750 -0.00700
C 	C 	0.38004 0.70853 0.12440 0.08400
H 	H 	0.35710 0.71050 0.04420 0.00700
C 	C 	0.36082 0.80279 0.21090 0.08900
H 	H 	0.33450 0.79770 0.28290 0.00700
C 	C 	0.42908 0.79582 0.05530 0.08500
H 	H 	0.45850 0.78520 0.00040 -0.01900
