data_crystal

_cell_length_a 20.90980
_cell_length_b 17.88550
_cell_length_c 14.79130
_cell_angle_alpha 90.00000
_cell_angle_beta  134.84200
_cell_angle_gamma 90.00000

_symmetry_space_group_name_	'P 1'
_symmetry_space_group_name_H-M	'P 1'

loop_
_symmetry_equiv_pos_as_xyz
  x,y,z

loop_
_atom_site_label
_atom_site_type_symbol
_atom_site_fract_x
_atom_site_fract_y
_atom_site_fract_z
_atom_site_charge
Mg	Mg	0.63370 0.57910 0.86970 1.47300
Mg	Mg	0.86610 0.41720 0.12020 1.47200
Mg	Mg	0.48660 0.66860 0.10620 1.47300
Mg	Mg	0.50110 0.82990 0.88460 1.47400
P 	P 	0.51200 0.64500 0.91410 0.61100
P 	P 	0.85030 0.60020 0.11410 0.59700
P 	P 	0.64960 0.39550 0.89640 0.58600
P 	P 	0.00440 0.34960 0.40390 0.59300
O 	O 	0.57870 0.59650 0.92990 -0.53800
O 	O 	0.53690 0.72650 0.92530 -0.55300
O 	O 	0.41490 0.62790 0.78570 -0.52300
O 	O 	0.51970 0.62320 0.02290 -0.47200
O 	O 	0.91120 0.61260 0.09340 -0.54900
O 	O 	0.87920 0.65100 0.22220 -0.50600
O 	O 	0.85160 0.51920 0.14780 -0.53500
O 	O 	0.75280 0.62330 0.98980 -0.48200
O 	O 	0.63870 0.47450 0.84980 -0.55200
O 	O 	0.59180 0.34030 0.78500 -0.55100
O 	O 	0.74910 0.37070 0.98480 -0.47300
O 	O 	0.62270 0.38940 0.97090 -0.49600
O 	O 	0.91480 0.35260 0.26290 -0.51800
O 	O 	0.04630 0.27170 0.44460 -0.53900
O 	O 	0.07030 0.40790 0.42900 -0.52200
O 	O 	0.98600 0.37460 0.48390 -0.47400
Mg	Mg	0.13370 0.07910 0.86970 1.47400
Mg	Mg	0.36610 0.91720 0.12020 1.47300
Mg	Mg	0.98660 0.16860 0.10620 1.47300
Mg	Mg	0.00110 0.32990 0.88460 1.47300
P 	P 	0.01200 0.14500 0.91410 0.60300
P 	P 	0.35030 0.10020 0.11410 0.60300
P 	P 	0.14960 0.89550 0.89640 0.58600
P 	P 	0.50440 0.84960 0.40390 0.58800
O 	O 	0.07870 0.09650 0.92990 -0.54100
O 	O 	0.03690 0.22650 0.92530 -0.55500
O 	O 	0.91490 0.12790 0.78570 -0.51800
O 	O 	0.01970 0.12320 0.02290 -0.46100
O 	O 	0.41120 0.11260 0.09340 -0.54600
O 	O 	0.37920 0.15100 0.22220 -0.50600
O 	O 	0.35160 0.01920 0.14780 -0.53400
O 	O 	0.25280 0.12330 0.98980 -0.49100
O 	O 	0.13870 0.97450 0.84980 -0.55100
O 	O 	0.09180 0.84030 0.78500 -0.55000
O 	O 	0.24910 0.87070 0.98480 -0.47300
O 	O 	0.12270 0.88940 0.97090 -0.49600
O 	O 	0.41480 0.85260 0.26290 -0.51800
O 	O 	0.54630 0.77170 0.44460 -0.54000
O 	O 	0.57030 0.90790 0.42900 -0.52400
O 	O 	0.48600 0.87460 0.48390 -0.47600
Mg	Mg	0.36630 0.57910 0.63030 1.47400
Mg	Mg	0.13390 0.41720 0.37980 1.47300
Mg	Mg	0.51340 0.66860 0.39380 1.47300
Mg	Mg	0.49890 0.82990 0.61540 1.47400
P 	P 	0.48800 0.64500 0.58590 0.61000
P 	P 	0.14970 0.60020 0.38590 0.59900
P 	P 	0.35040 0.39550 0.60360 0.58600
P 	P 	0.99560 0.34960 0.09610 0.58500
O 	O 	0.42130 0.59650 0.57010 -0.53700
O 	O 	0.46310 0.72650 0.57470 -0.55300
O 	O 	0.58510 0.62790 0.71430 -0.52300
O 	O 	0.48030 0.62320 0.47710 -0.46900
O 	O 	0.08880 0.61260 0.40660 -0.54400
O 	O 	0.12080 0.65100 0.27780 -0.50400
O 	O 	0.14840 0.51920 0.35220 -0.53300
O 	O 	0.24720 0.62330 0.51020 -0.48400
O 	O 	0.36130 0.47450 0.65020 -0.55200
O 	O 	0.40820 0.34030 0.71500 -0.55100
O 	O 	0.25090 0.37070 0.51520 -0.47200
O 	O 	0.37730 0.38940 0.52910 -0.49500
O 	O 	0.08520 0.35260 0.23710 -0.51300
O 	O 	0.95370 0.27170 0.05540 -0.54100
O 	O 	0.92970 0.40790 0.07100 -0.52500
O 	O 	0.01400 0.37460 0.01610 -0.47000
Mg	Mg	0.86630 0.07910 0.63030 1.47400
Mg	Mg	0.63390 0.91720 0.37980 1.47300
Mg	Mg	0.01340 0.16860 0.39380 1.47400
Mg	Mg	0.99890 0.32990 0.61540 1.47400
P 	P 	0.98800 0.14500 0.58590 0.61600
P 	P 	0.64970 0.10020 0.38590 0.59900
P 	P 	0.85040 0.89550 0.60360 0.58600
P 	P 	0.49560 0.84960 0.09610 0.58800
O 	O 	0.92130 0.09650 0.57010 -0.53600
O 	O 	0.96310 0.22650 0.57470 -0.55100
O 	O 	0.08510 0.12790 0.71430 -0.52600
O 	O 	0.98030 0.12320 0.47710 -0.46700
O 	O 	0.58880 0.11260 0.40660 -0.54700
O 	O 	0.62080 0.15100 0.27780 -0.50600
O 	O 	0.64840 0.01920 0.35220 -0.53400
O 	O 	0.74720 0.12330 0.51020 -0.48300
O 	O 	0.86130 0.97450 0.65020 -0.55100
O 	O 	0.90820 0.84030 0.71500 -0.54800
O 	O 	0.75090 0.87070 0.51520 -0.47200
O 	O 	0.87730 0.88940 0.52910 -0.49500
O 	O 	0.58520 0.85260 0.23710 -0.51800
O 	O 	0.45370 0.77170 0.05540 -0.54200
O 	O 	0.42970 0.90790 0.07100 -0.52600
O 	O 	0.51400 0.87460 0.01610 -0.48000
Mg	Mg	0.36630 0.42090 0.13030 1.47400
Mg	Mg	0.13390 0.58280 0.87980 1.47300
Mg	Mg	0.51340 0.33140 0.89380 1.47300
Mg	Mg	0.49890 0.17010 0.11540 1.47400
P 	P 	0.48800 0.35500 0.08590 0.61100
P 	P 	0.14970 0.39980 0.88590 0.59700
P 	P 	0.35040 0.60450 0.10360 0.58600
P 	P 	0.99560 0.65040 0.59610 0.59300
O 	O 	0.42130 0.40350 0.07010 -0.53800
O 	O 	0.46310 0.27350 0.07470 -0.55300
O 	O 	0.58510 0.37210 0.21430 -0.52300
O 	O 	0.48030 0.37680 0.97710 -0.47200
O 	O 	0.08880 0.38740 0.90660 -0.54900
O 	O 	0.12080 0.34900 0.77780 -0.50600
O 	O 	0.14840 0.48080 0.85220 -0.53500
O 	O 	0.24720 0.37670 0.01020 -0.48200
O 	O 	0.36130 0.52550 0.15020 -0.55200
O 	O 	0.40820 0.65970 0.21500 -0.55100
O 	O 	0.25090 0.62930 0.01520 -0.47300
O 	O 	0.37730 0.61060 0.02910 -0.49600
O 	O 	0.08520 0.64740 0.73710 -0.51800
O 	O 	0.95370 0.72830 0.55540 -0.53900
O 	O 	0.92970 0.59210 0.57100 -0.52200
O 	O 	0.01400 0.62540 0.51610 -0.47400
Mg	Mg	0.86630 0.92090 0.13030 1.47400
Mg	Mg	0.63390 0.08280 0.87980 1.47300
Mg	Mg	0.01340 0.83140 0.89380 1.47300
Mg	Mg	0.99890 0.67010 0.11540 1.47300
P 	P 	0.98800 0.85500 0.08590 0.60300
P 	P 	0.64970 0.89980 0.88590 0.60300
P 	P 	0.85040 0.10450 0.10360 0.58600
P 	P 	0.49560 0.15040 0.59610 0.58800
O 	O 	0.92130 0.90350 0.07010 -0.54100
O 	O 	0.96310 0.77350 0.07470 -0.55500
O 	O 	0.08510 0.87210 0.21430 -0.51800
O 	O 	0.98030 0.87680 0.97710 -0.46100
O 	O 	0.58880 0.88740 0.90660 -0.54600
O 	O 	0.62080 0.84900 0.77780 -0.50600
O 	O 	0.64840 0.98080 0.85220 -0.53400
O 	O 	0.74720 0.87670 0.01020 -0.49100
O 	O 	0.86130 0.02550 0.15020 -0.55100
O 	O 	0.90820 0.15970 0.21500 -0.55000
O 	O 	0.75090 0.12930 0.01520 -0.47300
O 	O 	0.87730 0.11060 0.02910 -0.49600
O 	O 	0.58520 0.14740 0.73710 -0.51800
O 	O 	0.45370 0.22830 0.55540 -0.54000
O 	O 	0.42970 0.09210 0.57100 -0.52400
O 	O 	0.51400 0.12540 0.51610 -0.47600
Mg	Mg	0.63370 0.42090 0.36970 1.47400
Mg	Mg	0.86610 0.58280 0.62020 1.47300
Mg	Mg	0.48660 0.33140 0.60620 1.47300
Mg	Mg	0.50110 0.17010 0.38460 1.47400
P 	P 	0.51200 0.35500 0.41410 0.61000
P 	P 	0.85030 0.39980 0.61410 0.59900
P 	P 	0.64960 0.60450 0.39640 0.58600
P 	P 	0.00440 0.65040 0.90390 0.58500
O 	O 	0.57870 0.40350 0.42990 -0.53700
O 	O 	0.53690 0.27350 0.42530 -0.55300
O 	O 	0.41490 0.37210 0.28570 -0.52300
O 	O 	0.51970 0.37680 0.52290 -0.46900
O 	O 	0.91120 0.38740 0.59340 -0.54400
O 	O 	0.87920 0.34900 0.72220 -0.50400
O 	O 	0.85160 0.48080 0.64780 -0.53300
O 	O 	0.75280 0.37670 0.48980 -0.48400
O 	O 	0.63870 0.52550 0.34980 -0.55200
O 	O 	0.59180 0.65970 0.28500 -0.55100
O 	O 	0.74910 0.62930 0.48480 -0.47200
O 	O 	0.62270 0.61060 0.47090 -0.49500
O 	O 	0.91480 0.64740 0.76290 -0.51300
O 	O 	0.04630 0.72830 0.94460 -0.54100
O 	O 	0.07030 0.59210 0.92900 -0.52500
O 	O 	0.98600 0.62540 0.98390 -0.47000
Mg	Mg	0.13370 0.92090 0.36970 1.47400
Mg	Mg	0.36610 0.08280 0.62020 1.47300
Mg	Mg	0.98660 0.83140 0.60620 1.47400
Mg	Mg	0.00110 0.67010 0.38460 1.47400
P 	P 	0.01200 0.85500 0.41410 0.61600
P 	P 	0.35030 0.89980 0.61410 0.59900
P 	P 	0.14960 0.10450 0.39640 0.58600
P 	P 	0.50440 0.15040 0.90390 0.58800
O 	O 	0.07870 0.90350 0.42990 -0.53600
O 	O 	0.03690 0.77350 0.42530 -0.55100
O 	O 	0.91490 0.87210 0.28570 -0.52600
O 	O 	0.01970 0.87680 0.52290 -0.46700
O 	O 	0.41120 0.88740 0.59340 -0.54700
O 	O 	0.37920 0.84900 0.72220 -0.50600
O 	O 	0.35160 0.98080 0.64780 -0.53400
O 	O 	0.25280 0.87670 0.48980 -0.48300
O 	O 	0.13870 0.02550 0.34980 -0.55100
O 	O 	0.09180 0.15970 0.28500 -0.54800
O 	O 	0.24910 0.12930 0.48480 -0.47200
O 	O 	0.12270 0.11060 0.47090 -0.49500
O 	O 	0.41480 0.14740 0.76290 -0.51800
O 	O 	0.54630 0.22830 0.94460 -0.54200
O 	O 	0.57030 0.09210 0.92900 -0.52600
O 	O 	0.48600 0.12540 0.98390 -0.48000
