data_crystal

_cell_length_a 14.63150
_cell_length_b 24.77600
_cell_length_c 33.16900
_cell_angle_alpha 90.00000
_cell_angle_beta  90.00000
_cell_angle_gamma 90.00000

_symmetry_space_group_name_	'P 1'
_symmetry_space_group_name_H-M	'P 1'

loop_
_symmetry_equiv_pos_as_xyz
  x,y,z

loop_
_atom_site_label
_atom_site_type_symbol
_atom_site_fract_x
_atom_site_fract_y
_atom_site_fract_z
_atom_site_charge
Cu	Cu	0.56113 0.17568 0.59036 0.89600
C 	C 	0.50780 0.07990 0.54442 0.41000
C 	C 	0.42930 0.05280 0.52150 -0.28600
H 	H 	0.45390 0.03360 0.49850 0.13200
H 	H 	0.40010 0.02660 0.53900 0.12100
C 	C 	0.35960 0.10570 0.46850 0.05600
H 	H 	0.40230 0.09040 0.45120 0.02400
C 	C 	0.30050 0.11400 0.53290 0.06200
H 	H 	0.30230 0.10460 0.56000 0.01500
C 	C 	0.29690 0.14200 0.45370 -0.11300
H 	H 	0.29740 0.15120 0.42660 0.07100
C 	C 	0.23690 0.14980 0.51971 -0.11600
H 	H 	0.19530 0.16460 0.53790 0.06600
C 	C 	0.23330 0.16470 0.47930 0.04200
C 	C 	0.16120 0.20160 0.46360 0.06800
C 	C 	0.14370 0.20440 0.42270 -0.14400
H 	H 	0.17730 0.18340 0.40480 0.07800
C 	C 	0.10780 0.23350 0.48844 -0.14000
H 	H 	0.11690 0.23260 0.51620 0.07800
C 	C 	0.07660 0.23820 0.40847 0.08500
H 	H 	0.06570 0.23940 0.38090 -0.01400
C 	C 	0.04170 0.26630 0.47258 0.09400
H 	H 	0.00630 0.28700 0.49000 0.00300
N 	N 	0.36000 0.09220 0.50743 -0.08800
N 	N 	0.02610 0.26955 0.43273 -0.21700
O 	O 	0.48610 0.12220 0.56270 -0.44100
O 	O 	0.58180 0.05592 0.54412 -0.40200
Cu	Cu	0.56113 0.67568 0.09036 0.89700
C 	C 	0.50780 0.57990 0.04442 0.41100
C 	C 	0.42930 0.55280 0.02150 -0.28500
H 	H 	0.45390 0.53360 0.99850 0.13300
H 	H 	0.40010 0.52660 0.03900 0.12200
C 	C 	0.35960 0.60570 0.96850 0.05800
H 	H 	0.40230 0.59040 0.95120 0.02500
C 	C 	0.30050 0.61400 0.03290 0.06400
H 	H 	0.30230 0.60460 0.06000 0.01600
C 	C 	0.29690 0.64200 0.95370 -0.11300
H 	H 	0.29740 0.65120 0.92660 0.07300
C 	C 	0.23690 0.64980 0.01971 -0.11700
H 	H 	0.19530 0.66460 0.03790 0.06700
C 	C 	0.23330 0.66470 0.97930 0.04400
C 	C 	0.16120 0.70160 0.96360 0.06800
C 	C 	0.14370 0.70440 0.92270 -0.14200
H 	H 	0.17730 0.68340 0.90480 0.07900
C 	C 	0.10780 0.73350 0.98844 -0.13700
H 	H 	0.11690 0.73260 0.01620 0.07800
C 	C 	0.07660 0.73820 0.90847 0.08600
H 	H 	0.06570 0.73940 0.88090 -0.01200
C 	C 	0.04170 0.76630 0.97258 0.09400
H 	H 	0.00630 0.78700 0.99000 0.00500
N 	N 	0.36000 0.59220 0.00743 -0.08800
N 	N 	0.02610 0.76955 0.93273 -0.21600
O 	O 	0.48610 0.62220 0.06270 -0.44100
O 	O 	0.58180 0.55592 0.04412 -0.40200
Cu	Cu	0.06113 0.17568 0.09036 0.89700
C 	C 	0.00780 0.07990 0.04442 0.40700
C 	C 	0.92930 0.05280 0.02150 -0.28100
H 	H 	0.95390 0.03360 0.99850 0.13200
H 	H 	0.90010 0.02660 0.03900 0.12200
C 	C 	0.85960 0.10570 0.96850 0.05600
H 	H 	0.90230 0.09040 0.95120 0.02600
C 	C 	0.80050 0.11400 0.03290 0.06300
H 	H 	0.80230 0.10460 0.06000 0.01600
C 	C 	0.79690 0.14200 0.95370 -0.11100
H 	H 	0.79740 0.15120 0.92660 0.07200
C 	C 	0.73690 0.14980 0.01971 -0.11400
H 	H 	0.69530 0.16460 0.03790 0.06700
C 	C 	0.73330 0.16470 0.97930 0.04100
C 	C 	0.66120 0.20160 0.96360 0.07000
C 	C 	0.64370 0.20440 0.92270 -0.14400
H 	H 	0.67730 0.18340 0.90480 0.07900
C 	C 	0.60780 0.23350 0.98844 -0.14000
H 	H 	0.61690 0.23260 0.01620 0.08000
C 	C 	0.57660 0.23820 0.90847 0.08600
H 	H 	0.56570 0.23940 0.88090 -0.01300
C 	C 	0.54170 0.26630 0.97258 0.09500
H 	H 	0.50630 0.28700 0.99000 0.00400
N 	N 	0.86000 0.09220 0.00743 -0.08700
N 	N 	0.52610 0.26955 0.93273 -0.21700
O 	O 	0.98610 0.12220 0.06270 -0.43800
O 	O 	0.08180 0.05592 0.04412 -0.40200
Cu	Cu	0.06113 0.67568 0.59036 0.89800
C 	C 	0.00780 0.57990 0.54442 0.41200
C 	C 	0.92930 0.55280 0.52150 -0.28600
H 	H 	0.95390 0.53360 0.49850 0.13300
H 	H 	0.90010 0.52660 0.53900 0.12300
C 	C 	0.85960 0.60570 0.46850 0.05700
H 	H 	0.90230 0.59040 0.45120 0.02600
C 	C 	0.80050 0.61400 0.53290 0.06300
H 	H 	0.80230 0.60460 0.56000 0.01600
C 	C 	0.79690 0.64200 0.45370 -0.11200
H 	H 	0.79740 0.65120 0.42660 0.07200
C 	C 	0.73690 0.64980 0.51971 -0.11500
H 	H 	0.69530 0.66460 0.53790 0.06700
C 	C 	0.73330 0.66470 0.47930 0.04300
C 	C 	0.66120 0.70160 0.46360 0.06900
C 	C 	0.64370 0.70440 0.42270 -0.14300
H 	H 	0.67730 0.68340 0.40480 0.07900
C 	C 	0.60780 0.73350 0.48844 -0.13900
H 	H 	0.61690 0.73260 0.51620 0.07900
C 	C 	0.57660 0.73820 0.40847 0.08600
H 	H 	0.56570 0.73940 0.38090 -0.01300
C 	C 	0.54170 0.76630 0.47258 0.09500
H 	H 	0.50630 0.78700 0.49000 0.00500
N 	N 	0.86000 0.59220 0.50743 -0.08700
N 	N 	0.52610 0.76955 0.43273 -0.21700
O 	O 	0.98610 0.62220 0.56270 -0.44100
O 	O 	0.08180 0.55592 0.54412 -0.40200
Cu	Cu	0.18887 0.57432 0.59036 0.89700
C 	C 	0.24220 0.67010 0.54442 0.41100
C 	C 	0.32070 0.69720 0.52150 -0.28500
H 	H 	0.29610 0.71640 0.49850 0.13300
H 	H 	0.34990 0.72340 0.53900 0.12200
C 	C 	0.39040 0.64430 0.46850 0.05700
H 	H 	0.34770 0.65960 0.45120 0.02600
C 	C 	0.44950 0.63600 0.53290 0.06300
H 	H 	0.44770 0.64540 0.56000 0.01600
C 	C 	0.45310 0.60800 0.45370 -0.11200
H 	H 	0.45260 0.59880 0.42660 0.07200
C 	C 	0.51310 0.60020 0.51971 -0.11500
H 	H 	0.55470 0.58540 0.53790 0.06700
C 	C 	0.51670 0.58530 0.47930 0.04300
C 	C 	0.58880 0.54840 0.46360 0.06900
C 	C 	0.60630 0.54560 0.42270 -0.14300
H 	H 	0.57270 0.56660 0.40480 0.07900
C 	C 	0.64220 0.51650 0.48844 -0.13900
H 	H 	0.63310 0.51740 0.51620 0.07900
C 	C 	0.67340 0.51180 0.40847 0.08600
H 	H 	0.68430 0.51060 0.38090 -0.01300
C 	C 	0.70830 0.48370 0.47258 0.09500
H 	H 	0.74370 0.46300 0.49000 0.00500
N 	N 	0.39000 0.65780 0.50743 -0.08700
N 	N 	0.72390 0.48045 0.43273 -0.21700
O 	O 	0.26390 0.62780 0.56270 -0.44100
O 	O 	0.16820 0.69408 0.54412 -0.40200
Cu	Cu	0.18887 0.07432 0.09036 0.89700
C 	C 	0.24220 0.17010 0.04442 0.41200
C 	C 	0.32070 0.19720 0.02150 -0.28600
H 	H 	0.29610 0.21640 0.99850 0.13300
H 	H 	0.34990 0.22340 0.03900 0.12300
C 	C 	0.39040 0.14430 0.96850 0.05700
H 	H 	0.34770 0.15960 0.95120 0.02600
C 	C 	0.44950 0.13600 0.03290 0.06300
H 	H 	0.44770 0.14540 0.06000 0.01600
C 	C 	0.45310 0.10800 0.95370 -0.11200
H 	H 	0.45260 0.09880 0.92660 0.07200
C 	C 	0.51310 0.10020 0.01971 -0.11500
H 	H 	0.55470 0.08540 0.03790 0.06700
C 	C 	0.51670 0.08530 0.97930 0.04200
C 	C 	0.58880 0.04840 0.96360 0.06900
C 	C 	0.60630 0.04560 0.92270 -0.14400
H 	H 	0.57270 0.06660 0.90480 0.07900
C 	C 	0.64220 0.01650 0.98844 -0.14000
H 	H 	0.63310 0.01740 0.01620 0.08000
C 	C 	0.67340 0.01180 0.90847 0.08700
H 	H 	0.68430 0.01060 0.88090 -0.01300
C 	C 	0.70830 0.98370 0.97258 0.09500
H 	H 	0.74370 0.96300 0.99000 0.00400
N 	N 	0.39000 0.15780 0.00743 -0.08700
N 	N 	0.72390 0.98045 0.93273 -0.21700
O 	O 	0.26390 0.12780 0.06270 -0.44100
O 	O 	0.16820 0.19408 0.04412 -0.40300
Cu	Cu	0.68887 0.57432 0.09036 0.89700
C 	C 	0.74220 0.67010 0.04442 0.41100
C 	C 	0.82070 0.69720 0.02150 -0.28400
H 	H 	0.79610 0.71640 0.99850 0.13200
H 	H 	0.84990 0.72340 0.03900 0.12200
C 	C 	0.89040 0.64430 0.96850 0.05800
H 	H 	0.84770 0.65960 0.95120 0.02500
C 	C 	0.94950 0.63600 0.03290 0.06600
H 	H 	0.94770 0.64540 0.06000 0.01500
C 	C 	0.95310 0.60800 0.95370 -0.11600
H 	H 	0.95260 0.59880 0.92660 0.07300
C 	C 	0.01310 0.60020 0.01971 -0.11900
H 	H 	0.05470 0.58540 0.03790 0.06800
C 	C 	0.01670 0.58530 0.97930 0.04700
C 	C 	0.08880 0.54840 0.96360 0.06700
C 	C 	0.10630 0.54560 0.92270 -0.14200
H 	H 	0.07270 0.56660 0.90480 0.07900
C 	C 	0.14220 0.51650 0.98844 -0.13700
H 	H 	0.13310 0.51740 0.01620 0.07800
C 	C 	0.17340 0.51180 0.90847 0.08500
H 	H 	0.18430 0.51060 0.88090 -0.01200
C 	C 	0.20830 0.48370 0.97258 0.09400
H 	H 	0.24370 0.46300 0.99000 0.00500
N 	N 	0.89000 0.65780 0.00743 -0.08800
N 	N 	0.22390 0.48045 0.93273 -0.21700
O 	O 	0.76390 0.62780 0.06270 -0.44100
O 	O 	0.66820 0.69408 0.04412 -0.40200
Cu	Cu	0.68887 0.07432 0.59036 0.89700
C 	C 	0.74220 0.17010 0.54442 0.41100
C 	C 	0.82070 0.19720 0.52150 -0.28500
H 	H 	0.79610 0.21640 0.49850 0.13300
H 	H 	0.84990 0.22340 0.53900 0.12300
C 	C 	0.89040 0.14430 0.46850 0.05600
H 	H 	0.84770 0.15960 0.45120 0.02600
C 	C 	0.94950 0.13600 0.53290 0.06500
H 	H 	0.94770 0.14540 0.56000 0.01600
C 	C 	0.95310 0.10800 0.45370 -0.11000
H 	H 	0.95260 0.09880 0.42660 0.07200
C 	C 	0.01310 0.10020 0.51971 -0.11600
H 	H 	0.05470 0.08540 0.53790 0.06700
C 	C 	0.01670 0.08530 0.47930 0.04100
C 	C 	0.08880 0.04840 0.46360 0.07000
C 	C 	0.10630 0.04560 0.42270 -0.14400
H 	H 	0.07270 0.06660 0.40480 0.07900
C 	C 	0.14220 0.01650 0.48844 -0.14100
H 	H 	0.13310 0.01740 0.51620 0.08000
C 	C 	0.17340 0.01180 0.40847 0.08600
H 	H 	0.18430 0.01060 0.38090 -0.01300
C 	C 	0.20830 0.98370 0.47258 0.09700
H 	H 	0.24370 0.96300 0.49000 0.00400
N 	N 	0.89000 0.15780 0.50743 -0.08700
N 	N 	0.22390 0.98045 0.43273 -0.21700
O 	O 	0.76390 0.12780 0.56270 -0.44100
O 	O 	0.66820 0.19408 0.54412 -0.40200
Cu	Cu	0.18887 0.17568 0.15964 0.89700
C 	C 	0.24220 0.07990 0.20558 0.41100
C 	C 	0.32070 0.05280 0.22850 -0.28500
H 	H 	0.29610 0.03360 0.25150 0.13300
H 	H 	0.34990 0.02660 0.21100 0.12200
C 	C 	0.39040 0.10570 0.28150 0.05700
H 	H 	0.34770 0.09040 0.29880 0.02500
C 	C 	0.44950 0.11400 0.21710 0.06300
H 	H 	0.44770 0.10460 0.19000 0.01600
C 	C 	0.45310 0.14200 0.29630 -0.11200
H 	H 	0.45260 0.15120 0.32340 0.07200
C 	C 	0.51310 0.14980 0.23029 -0.11500
H 	H 	0.55470 0.16460 0.21210 0.06700
C 	C 	0.51670 0.16470 0.27070 0.04300
C 	C 	0.58880 0.20160 0.28640 0.06900
C 	C 	0.60630 0.20440 0.32730 -0.14300
H 	H 	0.57270 0.18340 0.34520 0.07900
C 	C 	0.64220 0.23350 0.26156 -0.13900
H 	H 	0.63310 0.23260 0.23380 0.07900
C 	C 	0.67340 0.23820 0.34153 0.08600
H 	H 	0.68430 0.23940 0.36910 -0.01300
C 	C 	0.70830 0.26630 0.27742 0.09500
H 	H 	0.74370 0.28700 0.26000 0.00500
N 	N 	0.39000 0.09220 0.24257 -0.08700
N 	N 	0.72390 0.26955 0.31727 -0.21700
O 	O 	0.26390 0.12220 0.18730 -0.44100
O 	O 	0.16820 0.05592 0.20588 -0.40300
Cu	Cu	0.18887 0.67568 0.65964 0.89700
C 	C 	0.24220 0.57990 0.70558 0.41100
C 	C 	0.32070 0.55280 0.72850 -0.28500
H 	H 	0.29610 0.53360 0.75150 0.13300
H 	H 	0.34990 0.52660 0.71100 0.12200
C 	C 	0.39040 0.60570 0.78150 0.05700
H 	H 	0.34770 0.59040 0.79880 0.02600
C 	C 	0.44950 0.61400 0.71710 0.06300
H 	H 	0.44770 0.60460 0.69000 0.01600
C 	C 	0.45310 0.64200 0.79630 -0.11200
H 	H 	0.45260 0.65120 0.82340 0.07200
C 	C 	0.51310 0.64980 0.73029 -0.11500
H 	H 	0.55470 0.66460 0.71210 0.06700
C 	C 	0.51670 0.66470 0.77070 0.04300
C 	C 	0.58880 0.70160 0.78640 0.06900
C 	C 	0.60630 0.70440 0.82730 -0.14300
H 	H 	0.57270 0.68340 0.84520 0.07900
C 	C 	0.64220 0.73350 0.76156 -0.13900
H 	H 	0.63310 0.73260 0.73380 0.07900
C 	C 	0.67340 0.73820 0.84153 0.08600
H 	H 	0.68430 0.73940 0.86910 -0.01300
C 	C 	0.70830 0.76630 0.77742 0.09500
H 	H 	0.74370 0.78700 0.76000 0.00400
N 	N 	0.39000 0.59220 0.74257 -0.08700
N 	N 	0.72390 0.76955 0.81727 -0.21700
O 	O 	0.26390 0.62220 0.68730 -0.44100
O 	O 	0.16820 0.55592 0.70588 -0.40200
Cu	Cu	0.68887 0.17568 0.65964 0.89700
C 	C 	0.74220 0.07990 0.70558 0.41100
C 	C 	0.82070 0.05280 0.72850 -0.28500
H 	H 	0.79610 0.03360 0.75150 0.13300
H 	H 	0.84990 0.02660 0.71100 0.12300
C 	C 	0.89040 0.10570 0.78150 0.05700
H 	H 	0.84770 0.09040 0.79880 0.02600
C 	C 	0.94950 0.11400 0.71710 0.06500
H 	H 	0.94770 0.10460 0.69000 0.01600
C 	C 	0.95310 0.14200 0.79630 -0.11100
H 	H 	0.95260 0.15120 0.82340 0.07200
C 	C 	0.01310 0.14980 0.73029 -0.11600
H 	H 	0.05470 0.16460 0.71210 0.06700
C 	C 	0.01670 0.16470 0.77070 0.04200
C 	C 	0.08880 0.20160 0.78640 0.06900
C 	C 	0.10630 0.20440 0.82730 -0.14300
H 	H 	0.07270 0.18340 0.84520 0.07900
C 	C 	0.14220 0.23350 0.76156 -0.13900
H 	H 	0.13310 0.23260 0.73380 0.07900
C 	C 	0.17340 0.23820 0.84153 0.08600
H 	H 	0.18430 0.23940 0.86910 -0.01300
C 	C 	0.20830 0.26630 0.77742 0.09500
H 	H 	0.24370 0.28700 0.76000 0.00400
N 	N 	0.89000 0.09220 0.74257 -0.08800
N 	N 	0.22390 0.26955 0.81727 -0.21700
O 	O 	0.76390 0.12220 0.68730 -0.44100
O 	O 	0.66820 0.05592 0.70588 -0.40200
Cu	Cu	0.68887 0.67568 0.15964 0.89700
C 	C 	0.74220 0.57990 0.20558 0.41100
C 	C 	0.82070 0.55280 0.22850 -0.28500
H 	H 	0.79610 0.53360 0.25150 0.13300
H 	H 	0.84990 0.52660 0.21100 0.12300
C 	C 	0.89040 0.60570 0.28150 0.05700
H 	H 	0.84770 0.59040 0.29880 0.02500
C 	C 	0.94950 0.61400 0.21710 0.06300
H 	H 	0.94770 0.60460 0.19000 0.01600
C 	C 	0.95310 0.64200 0.29630 -0.11300
H 	H 	0.95260 0.65120 0.32340 0.07200
C 	C 	0.01310 0.64980 0.23029 -0.11500
H 	H 	0.05470 0.66460 0.21210 0.06700
C 	C 	0.01670 0.66470 0.27070 0.04300
C 	C 	0.08880 0.70160 0.28640 0.06900
C 	C 	0.10630 0.70440 0.32730 -0.14300
H 	H 	0.07270 0.68340 0.34520 0.07900
C 	C 	0.14220 0.73350 0.26156 -0.13900
H 	H 	0.13310 0.73260 0.23380 0.07900
C 	C 	0.17340 0.73820 0.34153 0.08600
H 	H 	0.18430 0.73940 0.36910 -0.01300
C 	C 	0.20830 0.76630 0.27742 0.09500
H 	H 	0.24370 0.78700 0.26000 0.00500
N 	N 	0.89000 0.59220 0.24257 -0.08700
N 	N 	0.22390 0.76955 0.31727 -0.21700
O 	O 	0.76390 0.62220 0.18730 -0.44100
O 	O 	0.66820 0.55592 0.20588 -0.40200
Cu	Cu	0.56113 0.57432 0.15964 0.89700
C 	C 	0.50780 0.67010 0.20558 0.41100
C 	C 	0.42930 0.69720 0.22850 -0.28500
H 	H 	0.45390 0.71640 0.25150 0.13300
H 	H 	0.40010 0.72340 0.21100 0.12200
C 	C 	0.35960 0.64430 0.28150 0.05700
H 	H 	0.40230 0.65960 0.29880 0.02600
C 	C 	0.30050 0.63600 0.21710 0.06300
H 	H 	0.30230 0.64540 0.19000 0.01600
C 	C 	0.29690 0.60800 0.29630 -0.11200
H 	H 	0.29740 0.59880 0.32340 0.07200
C 	C 	0.23690 0.60020 0.23029 -0.11500
H 	H 	0.19530 0.58540 0.21210 0.06700
C 	C 	0.23330 0.58530 0.27070 0.04300
C 	C 	0.16120 0.54840 0.28640 0.06900
C 	C 	0.14370 0.54560 0.32730 -0.14300
H 	H 	0.17730 0.56660 0.34520 0.07900
C 	C 	0.10780 0.51650 0.26156 -0.13900
H 	H 	0.11690 0.51740 0.23380 0.07900
C 	C 	0.07660 0.51180 0.34153 0.08600
H 	H 	0.06570 0.51060 0.36910 -0.01300
C 	C 	0.04170 0.48370 0.27742 0.09500
H 	H 	0.00630 0.46300 0.26000 0.00400
N 	N 	0.36000 0.65780 0.24257 -0.08700
N 	N 	0.02610 0.48045 0.31727 -0.21700
O 	O 	0.48610 0.62780 0.18730 -0.44100
O 	O 	0.58180 0.69408 0.20588 -0.40200
Cu	Cu	0.56113 0.07432 0.65964 0.89700
C 	C 	0.50780 0.17010 0.70558 0.41100
C 	C 	0.42930 0.19720 0.72850 -0.28500
H 	H 	0.45390 0.21640 0.75150 0.13300
H 	H 	0.40010 0.22340 0.71100 0.12200
C 	C 	0.35960 0.14430 0.78150 0.05700
H 	H 	0.40230 0.15960 0.79880 0.02600
C 	C 	0.30050 0.13600 0.71710 0.06300
H 	H 	0.30230 0.14540 0.69000 0.01600
C 	C 	0.29690 0.10800 0.79630 -0.11200
H 	H 	0.29740 0.09880 0.82340 0.07200
C 	C 	0.23690 0.10020 0.73029 -0.11500
H 	H 	0.19530 0.08540 0.71210 0.06700
C 	C 	0.23330 0.08530 0.77070 0.04200
C 	C 	0.16120 0.04840 0.78640 0.06900
C 	C 	0.14370 0.04560 0.82730 -0.14300
H 	H 	0.17730 0.06660 0.84520 0.07900
C 	C 	0.10780 0.01650 0.76156 -0.14200
H 	H 	0.11690 0.01740 0.73380 0.08000
C 	C 	0.07660 0.01180 0.84153 0.08500
H 	H 	0.06570 0.01060 0.86910 -0.01300
C 	C 	0.04170 0.98370 0.77742 0.09700
H 	H 	0.00630 0.96300 0.76000 0.00400
N 	N 	0.36000 0.15780 0.74257 -0.08700
N 	N 	0.02610 0.98045 0.81727 -0.21600
O 	O 	0.48610 0.12780 0.68730 -0.44100
O 	O 	0.58180 0.19408 0.70588 -0.40200
Cu	Cu	0.06113 0.57432 0.65964 0.89800
C 	C 	0.00780 0.67010 0.70558 0.41300
C 	C 	0.92930 0.69720 0.72850 -0.28600
H 	H 	0.95390 0.71640 0.75150 0.13300
H 	H 	0.90010 0.72340 0.71100 0.12300
C 	C 	0.85960 0.64430 0.78150 0.05700
H 	H 	0.90230 0.65960 0.79880 0.02500
C 	C 	0.80050 0.63600 0.71710 0.06300
H 	H 	0.80230 0.64540 0.69000 0.01600
C 	C 	0.79690 0.60800 0.79630 -0.11200
H 	H 	0.79740 0.59880 0.82340 0.07200
C 	C 	0.73690 0.60020 0.73029 -0.11500
H 	H 	0.69530 0.58540 0.71210 0.06700
C 	C 	0.73330 0.58530 0.77070 0.04300
C 	C 	0.66120 0.54840 0.78640 0.06900
C 	C 	0.64370 0.54560 0.82730 -0.14300
H 	H 	0.67730 0.56660 0.84520 0.07900
C 	C 	0.60780 0.51650 0.76156 -0.13900
H 	H 	0.61690 0.51740 0.73380 0.07900
C 	C 	0.57660 0.51180 0.84153 0.08600
H 	H 	0.56570 0.51060 0.86910 -0.01300
C 	C 	0.54170 0.48370 0.77742 0.09500
H 	H 	0.50630 0.46300 0.76000 0.00400
N 	N 	0.86000 0.65780 0.74257 -0.08700
N 	N 	0.52610 0.48045 0.81727 -0.21700
O 	O 	0.98610 0.62780 0.68730 -0.44200
O 	O 	0.08180 0.69408 0.70588 -0.40300
Cu	Cu	0.06113 0.07432 0.15964 0.89700
C 	C 	0.00780 0.17010 0.20558 0.40800
C 	C 	0.92930 0.19720 0.22850 -0.28300
H 	H 	0.95390 0.21640 0.25150 0.13300
H 	H 	0.90010 0.22340 0.21100 0.12200
C 	C 	0.85960 0.14430 0.28150 0.05700
H 	H 	0.90230 0.15960 0.29880 0.02600
C 	C 	0.80050 0.13600 0.21710 0.06400
H 	H 	0.80230 0.14540 0.19000 0.01600
C 	C 	0.79690 0.10800 0.29630 -0.11200
H 	H 	0.79740 0.09880 0.32340 0.07300
C 	C 	0.73690 0.10020 0.23029 -0.11500
H 	H 	0.69530 0.08540 0.21210 0.06700
C 	C 	0.73330 0.08530 0.27070 0.04300
C 	C 	0.66120 0.04840 0.28640 0.06900
C 	C 	0.64370 0.04560 0.32730 -0.14300
H 	H 	0.67730 0.06660 0.34520 0.07900
C 	C 	0.60780 0.01650 0.26156 -0.13900
H 	H 	0.61690 0.01740 0.23380 0.07900
C 	C 	0.57660 0.01180 0.34153 0.08600
H 	H 	0.56570 0.01060 0.36910 -0.01300
C 	C 	0.54170 0.98370 0.27742 0.09400
H 	H 	0.50630 0.96300 0.26000 0.00500
N 	N 	0.86000 0.15780 0.24257 -0.08800
N 	N 	0.52610 0.98045 0.31727 -0.21700
O 	O 	0.98610 0.12780 0.18730 -0.43900
O 	O 	0.08180 0.19408 0.20588 -0.40200
Cu	Cu	0.43887 0.82432 0.40964 0.89700
C 	C 	0.49220 0.92010 0.45558 0.41100
C 	C 	0.57070 0.94720 0.47850 -0.28500
H 	H 	0.54610 0.96640 0.50150 0.13300
H 	H 	0.59990 0.97340 0.46100 0.12200
C 	C 	0.64040 0.89430 0.53150 0.05700
H 	H 	0.59770 0.90960 0.54880 0.02500
C 	C 	0.69950 0.88600 0.46710 0.06300
H 	H 	0.69770 0.89540 0.44000 0.01600
C 	C 	0.70310 0.85800 0.54630 -0.11200
H 	H 	0.70260 0.84880 0.57340 0.07200
C 	C 	0.76310 0.85020 0.48029 -0.11500
H 	H 	0.80470 0.83540 0.46210 0.06700
C 	C 	0.76670 0.83530 0.52070 0.04300
C 	C 	0.83880 0.79840 0.53640 0.06900
C 	C 	0.85630 0.79560 0.57730 -0.14300
H 	H 	0.82270 0.81660 0.59520 0.07900
C 	C 	0.89220 0.76650 0.51156 -0.13900
H 	H 	0.88310 0.76740 0.48380 0.07900
C 	C 	0.92340 0.76180 0.59153 0.08600
H 	H 	0.93430 0.76060 0.61910 -0.01300
C 	C 	0.95830 0.73370 0.52742 0.09500
H 	H 	0.99370 0.71300 0.51000 0.00400
N 	N 	0.64000 0.90780 0.49257 -0.08700
N 	N 	0.97390 0.73045 0.56727 -0.21700
O 	O 	0.51390 0.87780 0.43730 -0.44100
O 	O 	0.41820 0.94408 0.45588 -0.40200
Cu	Cu	0.43887 0.32432 0.90964 0.89700
C 	C 	0.49220 0.42010 0.95558 0.41100
C 	C 	0.57070 0.44720 0.97850 -0.28500
H 	H 	0.54610 0.46640 0.00150 0.13300
H 	H 	0.59990 0.47340 0.96100 0.12200
C 	C 	0.64040 0.39430 0.03150 0.05800
H 	H 	0.59770 0.40960 0.04880 0.02500
C 	C 	0.69950 0.38600 0.96710 0.06400
H 	H 	0.69770 0.39540 0.94000 0.01600
C 	C 	0.70310 0.35800 0.04630 -0.11300
H 	H 	0.70260 0.34880 0.07340 0.07300
C 	C 	0.76310 0.35020 0.98029 -0.11700
H 	H 	0.80470 0.33540 0.96210 0.06700
C 	C 	0.76670 0.33530 0.02070 0.04400
C 	C 	0.83880 0.29840 0.03640 0.06800
C 	C 	0.85630 0.29560 0.07730 -0.14200
H 	H 	0.82270 0.31660 0.09520 0.07900
C 	C 	0.89220 0.26650 0.01156 -0.13700
H 	H 	0.88310 0.26740 0.98380 0.07800
C 	C 	0.92340 0.26180 0.09153 0.08600
H 	H 	0.93430 0.26060 0.11910 -0.01200
C 	C 	0.95830 0.23370 0.02742 0.09400
H 	H 	0.99370 0.21300 0.01000 0.00500
N 	N 	0.64000 0.40780 0.99257 -0.08800
N 	N 	0.97390 0.23045 0.06727 -0.21600
O 	O 	0.51390 0.37780 0.93730 -0.44100
O 	O 	0.41820 0.44408 0.95588 -0.40200
Cu	Cu	0.93887 0.82432 0.90964 0.89700
C 	C 	0.99220 0.92010 0.95558 0.40700
C 	C 	0.07070 0.94720 0.97850 -0.28100
H 	H 	0.04610 0.96640 0.00150 0.13200
H 	H 	0.09990 0.97340 0.96100 0.12200
C 	C 	0.14040 0.89430 0.03150 0.05600
H 	H 	0.09770 0.90960 0.04880 0.02600
C 	C 	0.19950 0.88600 0.96710 0.06300
H 	H 	0.19770 0.89540 0.94000 0.01600
C 	C 	0.20310 0.85800 0.04630 -0.11100
H 	H 	0.20260 0.84880 0.07340 0.07200
C 	C 	0.26310 0.85020 0.98029 -0.11400
H 	H 	0.30470 0.83540 0.96210 0.06700
C 	C 	0.26670 0.83530 0.02070 0.04100
C 	C 	0.33880 0.79840 0.03640 0.07000
C 	C 	0.35630 0.79560 0.07730 -0.14400
H 	H 	0.32270 0.81660 0.09520 0.07900
C 	C 	0.39220 0.76650 0.01156 -0.14000
H 	H 	0.38310 0.76740 0.98380 0.08000
C 	C 	0.42340 0.76180 0.09153 0.08600
H 	H 	0.43430 0.76060 0.11910 -0.01300
C 	C 	0.45830 0.73370 0.02742 0.09500
H 	H 	0.49370 0.71300 0.01000 0.00400
N 	N 	0.14000 0.90780 0.99257 -0.08700
N 	N 	0.47390 0.73045 0.06727 -0.21700
O 	O 	0.01390 0.87780 0.93730 -0.43800
O 	O 	0.91820 0.94408 0.95588 -0.40200
Cu	Cu	0.93887 0.32432 0.40964 0.89800
C 	C 	0.99220 0.42010 0.45558 0.41200
C 	C 	0.07070 0.44720 0.47850 -0.28600
H 	H 	0.04610 0.46640 0.50150 0.13300
H 	H 	0.09990 0.47340 0.46100 0.12300
C 	C 	0.14040 0.39430 0.53150 0.05700
H 	H 	0.09770 0.40960 0.54880 0.02600
C 	C 	0.19950 0.38600 0.46710 0.06300
H 	H 	0.19770 0.39540 0.44000 0.01600
C 	C 	0.20310 0.35800 0.54630 -0.11200
H 	H 	0.20260 0.34880 0.57340 0.07200
C 	C 	0.26310 0.35020 0.48029 -0.11500
H 	H 	0.30470 0.33540 0.46210 0.06700
C 	C 	0.26670 0.33530 0.52070 0.04300
C 	C 	0.33880 0.29840 0.53640 0.06900
C 	C 	0.35630 0.29560 0.57730 -0.14300
H 	H 	0.32270 0.31660 0.59520 0.07900
C 	C 	0.39220 0.26650 0.51156 -0.13900
H 	H 	0.38310 0.26740 0.48380 0.07900
C 	C 	0.42340 0.26180 0.59153 0.08600
H 	H 	0.43430 0.26060 0.61910 -0.01300
C 	C 	0.45830 0.23370 0.52742 0.09500
H 	H 	0.49370 0.21300 0.51000 0.00500
N 	N 	0.14000 0.40780 0.49257 -0.08700
N 	N 	0.47390 0.23045 0.56727 -0.21700
O 	O 	0.01390 0.37780 0.43730 -0.44100
O 	O 	0.91820 0.44408 0.45588 -0.40200
Cu	Cu	0.81113 0.42568 0.40964 0.89700
C 	C 	0.75780 0.32990 0.45558 0.41100
C 	C 	0.67930 0.30280 0.47850 -0.28500
H 	H 	0.70390 0.28360 0.50150 0.13300
H 	H 	0.65010 0.27660 0.46100 0.12200
C 	C 	0.60960 0.35570 0.53150 0.05700
H 	H 	0.65230 0.34040 0.54880 0.02600
C 	C 	0.55050 0.36400 0.46710 0.06300
H 	H 	0.55230 0.35460 0.44000 0.01600
C 	C 	0.54690 0.39200 0.54630 -0.11200
H 	H 	0.54740 0.40120 0.57340 0.07200
C 	C 	0.48690 0.39980 0.48029 -0.11500
H 	H 	0.44530 0.41460 0.46210 0.06700
C 	C 	0.48330 0.41470 0.52070 0.04300
C 	C 	0.41120 0.45160 0.53640 0.06900
C 	C 	0.39370 0.45440 0.57730 -0.14300
H 	H 	0.42730 0.43340 0.59520 0.07900
C 	C 	0.35780 0.48350 0.51156 -0.13900
H 	H 	0.36690 0.48260 0.48380 0.07900
C 	C 	0.32660 0.48820 0.59153 0.08600
H 	H 	0.31570 0.48940 0.61910 -0.01300
C 	C 	0.29170 0.51630 0.52742 0.09500
H 	H 	0.25630 0.53700 0.51000 0.00500
N 	N 	0.61000 0.34220 0.49257 -0.08700
N 	N 	0.27610 0.51955 0.56727 -0.21700
O 	O 	0.73610 0.37220 0.43730 -0.44100
O 	O 	0.83180 0.30592 0.45588 -0.40200
Cu	Cu	0.81113 0.92568 0.90964 0.89700
C 	C 	0.75780 0.82990 0.95558 0.41200
C 	C 	0.67930 0.80280 0.97850 -0.28600
H 	H 	0.70390 0.78360 0.00150 0.13300
H 	H 	0.65010 0.77660 0.96100 0.12300
C 	C 	0.60960 0.85570 0.03150 0.05700
H 	H 	0.65230 0.84040 0.04880 0.02600
C 	C 	0.55050 0.86400 0.96710 0.06300
H 	H 	0.55230 0.85460 0.94000 0.01600
C 	C 	0.54690 0.89200 0.04630 -0.11200
H 	H 	0.54740 0.90120 0.07340 0.07200
C 	C 	0.48690 0.89980 0.98029 -0.11500
H 	H 	0.44530 0.91460 0.96210 0.06700
C 	C 	0.48330 0.91470 0.02070 0.04200
C 	C 	0.41120 0.95160 0.03640 0.06900
C 	C 	0.39370 0.95440 0.07730 -0.14400
H 	H 	0.42730 0.93340 0.09520 0.07900
C 	C 	0.35780 0.98350 0.01156 -0.14000
H 	H 	0.36690 0.98260 0.98380 0.08000
C 	C 	0.32660 0.98820 0.09153 0.08700
H 	H 	0.31570 0.98940 0.11910 -0.01300
C 	C 	0.29170 0.01630 0.02742 0.09500
H 	H 	0.25630 0.03700 0.01000 0.00400
N 	N 	0.61000 0.84220 0.99257 -0.08700
N 	N 	0.27610 0.01955 0.06727 -0.21700
O 	O 	0.73610 0.87220 0.93730 -0.44100
O 	O 	0.83180 0.80592 0.95588 -0.40300
Cu	Cu	0.31113 0.42568 0.90964 0.89700
C 	C 	0.25780 0.32990 0.95558 0.41100
C 	C 	0.17930 0.30280 0.97850 -0.28400
H 	H 	0.20390 0.28360 0.00150 0.13200
H 	H 	0.15010 0.27660 0.96100 0.12200
C 	C 	0.10960 0.35570 0.03150 0.05800
H 	H 	0.15230 0.34040 0.04880 0.02500
C 	C 	0.05050 0.36400 0.96710 0.06600
H 	H 	0.05230 0.35460 0.94000 0.01500
C 	C 	0.04690 0.39200 0.04630 -0.11600
H 	H 	0.04740 0.40120 0.07340 0.07300
C 	C 	0.98690 0.39980 0.98029 -0.11900
H 	H 	0.94530 0.41460 0.96210 0.06800
C 	C 	0.98330 0.41470 0.02070 0.04700
C 	C 	0.91120 0.45160 0.03640 0.06700
C 	C 	0.89370 0.45440 0.07730 -0.14200
H 	H 	0.92730 0.43340 0.09520 0.07900
C 	C 	0.85780 0.48350 0.01156 -0.13700
H 	H 	0.86690 0.48260 0.98380 0.07800
C 	C 	0.82660 0.48820 0.09153 0.08500
H 	H 	0.81570 0.48940 0.11910 -0.01200
C 	C 	0.79170 0.51630 0.02742 0.09400
H 	H 	0.75630 0.53700 0.01000 0.00500
N 	N 	0.11000 0.34220 0.99257 -0.08800
N 	N 	0.77610 0.51955 0.06727 -0.21700
O 	O 	0.23610 0.37220 0.93730 -0.44100
O 	O 	0.33180 0.30592 0.95588 -0.40200
Cu	Cu	0.31113 0.92568 0.40964 0.89700
C 	C 	0.25780 0.82990 0.45558 0.41100
C 	C 	0.17930 0.80280 0.47850 -0.28500
H 	H 	0.20390 0.78360 0.50150 0.13300
H 	H 	0.15010 0.77660 0.46100 0.12300
C 	C 	0.10960 0.85570 0.53150 0.05600
H 	H 	0.15230 0.84040 0.54880 0.02600
C 	C 	0.05050 0.86400 0.46710 0.06500
H 	H 	0.05230 0.85460 0.44000 0.01600
C 	C 	0.04690 0.89200 0.54630 -0.11000
H 	H 	0.04740 0.90120 0.57340 0.07200
C 	C 	0.98690 0.89980 0.48029 -0.11600
H 	H 	0.94530 0.91460 0.46210 0.06700
C 	C 	0.98330 0.91470 0.52070 0.04100
C 	C 	0.91120 0.95160 0.53640 0.07000
C 	C 	0.89370 0.95440 0.57730 -0.14400
H 	H 	0.92730 0.93340 0.59520 0.07900
C 	C 	0.85780 0.98350 0.51156 -0.14100
H 	H 	0.86690 0.98260 0.48380 0.08000
C 	C 	0.82660 0.98820 0.59153 0.08600
H 	H 	0.81570 0.98940 0.61910 -0.01300
C 	C 	0.79170 0.01630 0.52742 0.09700
H 	H 	0.75630 0.03700 0.51000 0.00400
N 	N 	0.11000 0.84220 0.49257 -0.08700
N 	N 	0.77610 0.01955 0.56727 -0.21700
O 	O 	0.23610 0.87220 0.43730 -0.44100
O 	O 	0.33180 0.80592 0.45588 -0.40200
Cu	Cu	0.81113 0.82432 0.84036 0.89700
C 	C 	0.75780 0.92010 0.79442 0.41100
C 	C 	0.67930 0.94720 0.77150 -0.28500
H 	H 	0.70390 0.96640 0.74850 0.13300
H 	H 	0.65010 0.97340 0.78900 0.12200
C 	C 	0.60960 0.89430 0.71850 0.05700
H 	H 	0.65230 0.90960 0.70120 0.02500
C 	C 	0.55050 0.88600 0.78290 0.06300
H 	H 	0.55230 0.89540 0.81000 0.01600
C 	C 	0.54690 0.85800 0.70370 -0.11200
H 	H 	0.54740 0.84880 0.67660 0.07200
C 	C 	0.48690 0.85020 0.76971 -0.11500
H 	H 	0.44530 0.83540 0.78790 0.06700
C 	C 	0.48330 0.83530 0.72930 0.04300
C 	C 	0.41120 0.79840 0.71360 0.06900
C 	C 	0.39370 0.79560 0.67270 -0.14300
H 	H 	0.42730 0.81660 0.65480 0.07900
C 	C 	0.35780 0.76650 0.73844 -0.13900
H 	H 	0.36690 0.76740 0.76620 0.07900
C 	C 	0.32660 0.76180 0.65847 0.08600
H 	H 	0.31570 0.76060 0.63090 -0.01300
C 	C 	0.29170 0.73370 0.72258 0.09500
H 	H 	0.25630 0.71300 0.74000 0.00500
N 	N 	0.61000 0.90780 0.75743 -0.08700
N 	N 	0.27610 0.73045 0.68273 -0.21700
O 	O 	0.73610 0.87780 0.81270 -0.44100
O 	O 	0.83180 0.94408 0.79412 -0.40300
Cu	Cu	0.81113 0.32432 0.34036 0.89700
C 	C 	0.75780 0.42010 0.29442 0.41100
C 	C 	0.67930 0.44720 0.27150 -0.28500
H 	H 	0.70390 0.46640 0.24850 0.13300
H 	H 	0.65010 0.47340 0.28900 0.12200
C 	C 	0.60960 0.39430 0.21850 0.05700
H 	H 	0.65230 0.40960 0.20120 0.02600
C 	C 	0.55050 0.38600 0.28290 0.06300
H 	H 	0.55230 0.39540 0.31000 0.01600
C 	C 	0.54690 0.35800 0.20370 -0.11200
H 	H 	0.54740 0.34880 0.17660 0.07200
C 	C 	0.48690 0.35020 0.26971 -0.11500
H 	H 	0.44530 0.33540 0.28790 0.06700
C 	C 	0.48330 0.33530 0.22930 0.04300
C 	C 	0.41120 0.29840 0.21360 0.06900
C 	C 	0.39370 0.29560 0.17270 -0.14300
H 	H 	0.42730 0.31660 0.15480 0.07900
C 	C 	0.35780 0.26650 0.23844 -0.13900
H 	H 	0.36690 0.26740 0.26620 0.07900
C 	C 	0.32660 0.26180 0.15847 0.08600
H 	H 	0.31570 0.26060 0.13090 -0.01300
C 	C 	0.29170 0.23370 0.22258 0.09500
H 	H 	0.25630 0.21300 0.24000 0.00400
N 	N 	0.61000 0.40780 0.25743 -0.08700
N 	N 	0.27610 0.23045 0.18273 -0.21700
O 	O 	0.73610 0.37780 0.31270 -0.44100
O 	O 	0.83180 0.44408 0.29412 -0.40200
Cu	Cu	0.31113 0.82432 0.34036 0.89700
C 	C 	0.25780 0.92010 0.29442 0.41100
C 	C 	0.17930 0.94720 0.27150 -0.28500
H 	H 	0.20390 0.96640 0.24850 0.13300
H 	H 	0.15010 0.97340 0.28900 0.12300
C 	C 	0.10960 0.89430 0.21850 0.05700
H 	H 	0.15230 0.90960 0.20120 0.02600
C 	C 	0.05050 0.88600 0.28290 0.06500
H 	H 	0.05230 0.89540 0.31000 0.01600
C 	C 	0.04690 0.85800 0.20370 -0.11100
H 	H 	0.04740 0.84880 0.17660 0.07200
C 	C 	0.98690 0.85020 0.26971 -0.11600
H 	H 	0.94530 0.83540 0.28790 0.06700
C 	C 	0.98330 0.83530 0.22930 0.04200
C 	C 	0.91120 0.79840 0.21360 0.06900
C 	C 	0.89370 0.79560 0.17270 -0.14300
H 	H 	0.92730 0.81660 0.15480 0.07900
C 	C 	0.85780 0.76650 0.23844 -0.13900
H 	H 	0.86690 0.76740 0.26620 0.07900
C 	C 	0.82660 0.76180 0.15847 0.08600
H 	H 	0.81570 0.76060 0.13090 -0.01300
C 	C 	0.79170 0.73370 0.22258 0.09500
H 	H 	0.75630 0.71300 0.24000 0.00400
N 	N 	0.11000 0.90780 0.25743 -0.08800
N 	N 	0.77610 0.73045 0.18273 -0.21700
O 	O 	0.23610 0.87780 0.31270 -0.44100
O 	O 	0.33180 0.94408 0.29412 -0.40200
Cu	Cu	0.31113 0.32432 0.84036 0.89700
C 	C 	0.25780 0.42010 0.79442 0.41100
C 	C 	0.17930 0.44720 0.77150 -0.28500
H 	H 	0.20390 0.46640 0.74850 0.13300
H 	H 	0.15010 0.47340 0.78900 0.12300
C 	C 	0.10960 0.39430 0.71850 0.05700
H 	H 	0.15230 0.40960 0.70120 0.02500
C 	C 	0.05050 0.38600 0.78290 0.06300
H 	H 	0.05230 0.39540 0.81000 0.01600
C 	C 	0.04690 0.35800 0.70370 -0.11300
H 	H 	0.04740 0.34880 0.67660 0.07200
C 	C 	0.98690 0.35020 0.76971 -0.11500
H 	H 	0.94530 0.33540 0.78790 0.06700
C 	C 	0.98330 0.33530 0.72930 0.04300
C 	C 	0.91120 0.29840 0.71360 0.06900
C 	C 	0.89370 0.29560 0.67270 -0.14300
H 	H 	0.92730 0.31660 0.65480 0.07900
C 	C 	0.85780 0.26650 0.73844 -0.13900
H 	H 	0.86690 0.26740 0.76620 0.07900
C 	C 	0.82660 0.26180 0.65847 0.08600
H 	H 	0.81570 0.26060 0.63090 -0.01300
C 	C 	0.79170 0.23370 0.72258 0.09500
H 	H 	0.75630 0.21300 0.74000 0.00500
N 	N 	0.11000 0.40780 0.75743 -0.08700
N 	N 	0.77610 0.23045 0.68273 -0.21700
O 	O 	0.23610 0.37780 0.81270 -0.44100
O 	O 	0.33180 0.44408 0.79412 -0.40200
Cu	Cu	0.43887 0.42568 0.84036 0.89700
C 	C 	0.49220 0.32990 0.79442 0.41100
C 	C 	0.57070 0.30280 0.77150 -0.28500
H 	H 	0.54610 0.28360 0.74850 0.13300
H 	H 	0.59990 0.27660 0.78900 0.12200
C 	C 	0.64040 0.35570 0.71850 0.05700
H 	H 	0.59770 0.34040 0.70120 0.02600
C 	C 	0.69950 0.36400 0.78290 0.06300
H 	H 	0.69770 0.35460 0.81000 0.01600
C 	C 	0.70310 0.39200 0.70370 -0.11200
H 	H 	0.70260 0.40120 0.67660 0.07200
C 	C 	0.76310 0.39980 0.76971 -0.11500
H 	H 	0.80470 0.41460 0.78790 0.06700
C 	C 	0.76670 0.41470 0.72930 0.04300
C 	C 	0.83880 0.45160 0.71360 0.06900
C 	C 	0.85630 0.45440 0.67270 -0.14300
H 	H 	0.82270 0.43340 0.65480 0.07900
C 	C 	0.89220 0.48350 0.73844 -0.13900
H 	H 	0.88310 0.48260 0.76620 0.07900
C 	C 	0.92340 0.48820 0.65847 0.08600
H 	H 	0.93430 0.48940 0.63090 -0.01300
C 	C 	0.95830 0.51630 0.72258 0.09500
H 	H 	0.99370 0.53700 0.74000 0.00400
N 	N 	0.64000 0.34220 0.75743 -0.08700
N 	N 	0.97390 0.51955 0.68273 -0.21700
O 	O 	0.51390 0.37220 0.81270 -0.44100
O 	O 	0.41820 0.30592 0.79412 -0.40200
Cu	Cu	0.43887 0.92568 0.34036 0.89700
C 	C 	0.49220 0.82990 0.29442 0.41100
C 	C 	0.57070 0.80280 0.27150 -0.28500
H 	H 	0.54610 0.78360 0.24850 0.13300
H 	H 	0.59990 0.77660 0.28900 0.12200
C 	C 	0.64040 0.85570 0.21850 0.05700
H 	H 	0.59770 0.84040 0.20120 0.02600
C 	C 	0.69950 0.86400 0.28290 0.06300
H 	H 	0.69770 0.85460 0.31000 0.01600
C 	C 	0.70310 0.89200 0.20370 -0.11200
H 	H 	0.70260 0.90120 0.17660 0.07200
C 	C 	0.76310 0.89980 0.26971 -0.11500
H 	H 	0.80470 0.91460 0.28790 0.06700
C 	C 	0.76670 0.91470 0.22930 0.04200
C 	C 	0.83880 0.95160 0.21360 0.06900
C 	C 	0.85630 0.95440 0.17270 -0.14300
H 	H 	0.82270 0.93340 0.15480 0.07900
C 	C 	0.89220 0.98350 0.23844 -0.14200
H 	H 	0.88310 0.98260 0.26620 0.08000
C 	C 	0.92340 0.98820 0.15847 0.08500
H 	H 	0.93430 0.98940 0.13090 -0.01300
C 	C 	0.95830 0.01630 0.22258 0.09700
H 	H 	0.99370 0.03700 0.24000 0.00400
N 	N 	0.64000 0.84220 0.25743 -0.08700
N 	N 	0.97390 0.01955 0.18273 -0.21600
O 	O 	0.51390 0.87220 0.31270 -0.44100
O 	O 	0.41820 0.80592 0.29412 -0.40200
Cu	Cu	0.93887 0.42568 0.34036 0.89800
C 	C 	0.99220 0.32990 0.29442 0.41300
C 	C 	0.07070 0.30280 0.27150 -0.28600
H 	H 	0.04610 0.28360 0.24850 0.13300
H 	H 	0.09990 0.27660 0.28900 0.12300
C 	C 	0.14040 0.35570 0.21850 0.05700
H 	H 	0.09770 0.34040 0.20120 0.02500
C 	C 	0.19950 0.36400 0.28290 0.06300
H 	H 	0.19770 0.35460 0.31000 0.01600
C 	C 	0.20310 0.39200 0.20370 -0.11200
H 	H 	0.20260 0.40120 0.17660 0.07200
C 	C 	0.26310 0.39980 0.26971 -0.11500
H 	H 	0.30470 0.41460 0.28790 0.06700
C 	C 	0.26670 0.41470 0.22930 0.04300
C 	C 	0.33880 0.45160 0.21360 0.06900
C 	C 	0.35630 0.45440 0.17270 -0.14300
H 	H 	0.32270 0.43340 0.15480 0.07900
C 	C 	0.39220 0.48350 0.23844 -0.13900
H 	H 	0.38310 0.48260 0.26620 0.07900
C 	C 	0.42340 0.48820 0.15847 0.08600
H 	H 	0.43430 0.48940 0.13090 -0.01300
C 	C 	0.45830 0.51630 0.22258 0.09500
H 	H 	0.49370 0.53700 0.24000 0.00400
N 	N 	0.14000 0.34220 0.25743 -0.08700
N 	N 	0.47390 0.51955 0.18273 -0.21700
O 	O 	0.01390 0.37220 0.31270 -0.44200
O 	O 	0.91820 0.30592 0.29412 -0.40300
Cu	Cu	0.93887 0.92568 0.84036 0.89700
C 	C 	0.99220 0.82990 0.79442 0.40800
C 	C 	0.07070 0.80280 0.77150 -0.28300
H 	H 	0.04610 0.78360 0.74850 0.13300
H 	H 	0.09990 0.77660 0.78900 0.12200
C 	C 	0.14040 0.85570 0.71850 0.05700
H 	H 	0.09770 0.84040 0.70120 0.02600
C 	C 	0.19950 0.86400 0.78290 0.06400
H 	H 	0.19770 0.85460 0.81000 0.01600
C 	C 	0.20310 0.89200 0.70370 -0.11200
H 	H 	0.20260 0.90120 0.67660 0.07300
C 	C 	0.26310 0.89980 0.76971 -0.11500
H 	H 	0.30470 0.91460 0.78790 0.06700
C 	C 	0.26670 0.91470 0.72930 0.04300
C 	C 	0.33880 0.95160 0.71360 0.06900
C 	C 	0.35630 0.95440 0.67270 -0.14300
H 	H 	0.32270 0.93340 0.65480 0.07900
C 	C 	0.39220 0.98350 0.73844 -0.13900
H 	H 	0.38310 0.98260 0.76620 0.07900
C 	C 	0.42340 0.98820 0.65847 0.08600
H 	H 	0.43430 0.98940 0.63090 -0.01300
C 	C 	0.45830 0.01630 0.72258 0.09400
H 	H 	0.49370 0.03700 0.74000 0.00500
N 	N 	0.14000 0.84220 0.75743 -0.08800
N 	N 	0.47390 0.01955 0.68273 -0.21700
O 	O 	0.01390 0.87220 0.81270 -0.43900
O 	O 	0.91820 0.80592 0.79412 -0.40200
N 	N 	0.62500 0.22890 0.62500 -0.26600
N 	N 	0.62500 0.27670 0.62500 -0.03500
N 	N 	0.62500 0.32280 0.62500 -0.08600
N 	N 	0.62500 0.72890 0.12500 -0.26600
N 	N 	0.62500 0.77670 0.12500 -0.03500
N 	N 	0.62500 0.82280 0.12500 -0.08600
N 	N 	0.12500 0.52110 0.62500 -0.26600
N 	N 	0.12500 0.47330 0.62500 -0.03500
N 	N 	0.12500 0.42720 0.62500 -0.08600
N 	N 	0.12500 0.02110 0.12500 -0.26600
N 	N 	0.12500 0.97330 0.12500 -0.03400
N 	N 	0.12500 0.92720 0.12500 -0.08500
N 	N 	0.62500 0.02110 0.62500 -0.26500
N 	N 	0.62500 0.97330 0.62500 -0.03500
N 	N 	0.62500 0.92720 0.62500 -0.08600
N 	N 	0.12500 0.22890 0.12500 -0.26600
N 	N 	0.12500 0.27670 0.12500 -0.03500
N 	N 	0.12500 0.32280 0.12500 -0.08600
N 	N 	0.12500 0.72890 0.62500 -0.26500
N 	N 	0.12500 0.77670 0.62500 -0.03500
N 	N 	0.12500 0.82280 0.62500 -0.08500
N 	N 	0.62500 0.52110 0.12500 -0.26600
N 	N 	0.62500 0.47330 0.12500 -0.03500
N 	N 	0.62500 0.42720 0.12500 -0.08600
N 	N 	0.37500 0.77110 0.37500 -0.26600
N 	N 	0.37500 0.72330 0.37500 -0.03500
N 	N 	0.37500 0.67720 0.37500 -0.08600
N 	N 	0.37500 0.27110 0.87500 -0.26600
N 	N 	0.37500 0.22330 0.87500 -0.03500
N 	N 	0.37500 0.17720 0.87500 -0.08600
N 	N 	0.87500 0.47890 0.37500 -0.26600
N 	N 	0.87500 0.52670 0.37500 -0.03500
N 	N 	0.87500 0.57280 0.37500 -0.08600
N 	N 	0.87500 0.97890 0.87500 -0.26600
N 	N 	0.87500 0.02670 0.87500 -0.03400
N 	N 	0.87500 0.07280 0.87500 -0.08500
N 	N 	0.87500 0.77110 0.87500 -0.26600
N 	N 	0.87500 0.72330 0.87500 -0.03500
N 	N 	0.87500 0.67720 0.87500 -0.08600
N 	N 	0.87500 0.27110 0.37500 -0.26500
N 	N 	0.87500 0.22330 0.37500 -0.03500
N 	N 	0.87500 0.17720 0.37500 -0.08500
N 	N 	0.37500 0.47890 0.87500 -0.26600
N 	N 	0.37500 0.52670 0.87500 -0.03500
N 	N 	0.37500 0.57280 0.87500 -0.08600
N 	N 	0.37500 0.97890 0.37500 -0.26500
N 	N 	0.37500 0.02670 0.37500 -0.03500
N 	N 	0.37500 0.07280 0.37500 -0.08600
O 	O 	0.62500 0.12500 0.62500 -0.68600
O 	O 	0.12500 0.62500 0.62500 -0.68600
O 	O 	0.12500 0.12500 0.12500 -0.68600
O 	O 	0.62500 0.62500 0.12500 -0.68600
O 	O 	0.37500 0.87500 0.37500 -0.68600
O 	O 	0.87500 0.37500 0.37500 -0.68600
O 	O 	0.87500 0.87500 0.87500 -0.68600
O 	O 	0.37500 0.37500 0.87500 -0.68600
