data_crystal

_cell_length_a 9.80400
_cell_length_b 16.83860
_cell_length_c 16.83860
_cell_angle_alpha 85.13840
_cell_angle_beta  73.07520
_cell_angle_gamma 73.07530

_symmetry_space_group_name_	'P 1'
_symmetry_space_group_name_H-M	'P 1'

loop_
_symmetry_equiv_pos_as_xyz
  x,y,z

loop_
_atom_site_label
_atom_site_type_symbol
_atom_site_fract_x
_atom_site_fract_y
_atom_site_fract_z
_atom_site_charge
Cu	Cu	0.00000 0.50000 0.50000 0.77400
Cu	Cu	0.50000 0.00000 -0.00000 0.73700
Cu	Cu	0.50000 0.50000 -0.00000 0.76100
Cu	Cu	0.50000 0.00000 0.50000 0.76100
H 	H 	0.27570 0.52080 0.38520 -0.08800
H 	H 	0.51420 0.44640 0.32340 0.13200
H 	H 	0.40670 0.24130 0.42190 0.13200
H 	H 	0.16960 0.32200 0.47620 -0.08200
H 	H 	0.69810 0.34890 0.23670 0.00500
H 	H 	0.75460 0.36110 0.31210 -0.00000
H 	H 	0.68170 0.97920 0.11480 0.01400
H 	H 	0.78400 0.05360 0.17660 0.08400
H 	H 	0.56990 0.25870 0.07810 0.11600
H 	H 	0.46780 0.17800 0.02380 -0.08300
H 	H 	0.78370 0.15110 0.26330 0.00400
H 	H 	0.92780 0.13890 0.18790 -0.00400
H 	H 	0.66090 0.61480 0.02080 -0.18100
H 	H 	0.83760 0.67660 0.94640 0.18200
H 	H 	0.82860 0.57810 0.74130 0.14600
H 	H 	0.64580 0.52380 0.82200 -0.07700
H 	H 	0.93480 0.76330 0.84890 0.07700
H 	H 	0.06670 0.68790 0.86110 0.04000
H 	H 	0.79650 0.88520 0.47920 -0.06900
H 	H 	0.96060 0.82340 0.55360 0.14100
H 	H 	0.64800 0.92190 0.75870 0.14100
H 	H 	0.49160 0.97620 0.67800 -0.06100
H 	H 	0.04700 0.73670 0.65110 0.02100
H 	H 	0.11570 0.81210 0.63890 0.02100
H 	H 	0.72430 0.47920 0.61480 -0.07800
H 	H 	0.48580 0.55360 0.67660 0.13100
H 	H 	0.59330 0.75870 0.57810 0.13500
H 	H 	0.83040 0.67800 0.52380 -0.06900
H 	H 	0.30190 0.65110 0.76330 0.02300
H 	H 	0.24540 0.63890 0.68790 0.01000
H 	H 	0.31830 0.02080 0.88520 -0.17300
H 	H 	0.21600 0.94640 0.82340 0.17700
H 	H 	0.43010 0.74130 0.92190 0.15000
H 	H 	0.53220 0.82200 0.97620 -0.06300
H 	H 	0.21630 0.84890 0.73670 0.02400
H 	H 	0.07220 0.86110 0.81210 0.01400
H 	H 	0.33910 0.38520 0.97920 0.01600
H 	H 	0.16240 0.32340 0.05360 0.08100
H 	H 	0.17140 0.42190 0.25870 0.12000
H 	H 	0.35420 0.47620 0.17800 -0.07300
H 	H 	0.06520 0.23670 0.15110 -0.04500
H 	H 	0.93330 0.31210 0.13890 -0.02800
H 	H 	0.20350 0.11480 0.52080 -0.09600
H 	H 	0.03940 0.17660 0.44640 0.12200
H 	H 	0.35200 0.07810 0.24130 0.12700
H 	H 	0.50840 0.02380 0.32200 -0.08900
H 	H 	0.95300 0.26330 0.34890 0.00600
H 	H 	0.88430 0.18790 0.36110 -0.01100
C 	C 	0.30319 0.46365 0.39281 0.17500
C 	C 	0.44628 0.41972 0.35600 -0.33600
C 	C 	0.48752 0.33608 0.36786 0.32400
C 	C 	0.38246 0.29848 0.41364 -0.32200
C 	C 	0.24146 0.34748 0.44664 0.17500
C 	C 	0.73416 0.32091 0.28247 0.09700
C 	C 	0.65965 0.03635 0.10719 0.00800
C 	C 	0.72200 0.08028 0.14400 -0.23800
C 	C 	0.69146 0.16392 0.13214 0.27100
C 	C 	0.59458 0.20152 0.08636 -0.28600
C 	C 	0.53558 0.15252 0.05336 0.14400
C 	C 	0.83754 0.17909 0.21753 0.09600
C 	C 	0.69600 0.60719 0.96365 0.33600
C 	C 	0.80228 0.64400 0.91972 -0.41700
C 	C 	0.85538 0.63214 0.83608 0.35800
C 	C 	0.79610 0.58636 0.79848 -0.34400
C 	C 	0.68810 0.55336 0.84748 0.19900
C 	C 	0.01663 0.71753 0.82091 -0.05700
C 	C 	0.76684 0.89281 0.53635 0.17800
C 	C 	0.86600 0.85600 0.58028 -0.32000
C 	C 	0.82360 0.86786 0.66392 0.31900
C 	C 	0.68094 0.91364 0.70152 -0.30700
C 	C 	0.58894 0.94664 0.65252 0.17800
C 	C 	0.05507 0.78247 0.67909 0.00600
C 	C 	0.69681 0.53635 0.60719 0.17300
C 	C 	0.55372 0.58028 0.64400 -0.32900
C 	C 	0.51248 0.66392 0.63214 0.31800
C 	C 	0.61754 0.70152 0.58636 -0.31500
C 	C 	0.75854 0.65252 0.55336 0.17300
C 	C 	0.26584 0.67909 0.71753 0.04300
C 	C 	0.34035 0.96365 0.89281 0.33500
C 	C 	0.27800 0.91972 0.85600 -0.42200
C 	C 	0.30854 0.83608 0.86786 0.36900
C 	C 	0.40542 0.79848 0.91364 -0.34700
C 	C 	0.46442 0.84748 0.94664 0.20200
C 	C 	0.16246 0.82091 0.78247 0.04400
C 	C 	0.30400 0.39281 0.03635 0.01300
C 	C 	0.19772 0.35600 0.08028 -0.24600
C 	C 	0.14462 0.36786 0.16392 0.28200
C 	C 	0.20390 0.41364 0.20152 -0.29100
C 	C 	0.31190 0.44664 0.15252 0.14900
C 	C 	0.98337 0.28247 0.17909 0.19000
C 	C 	0.23316 0.10719 0.46365 0.17000
C 	C 	0.13400 0.14400 0.41972 -0.34300
C 	C 	0.17640 0.13214 0.33608 0.32200
C 	C 	0.31906 0.08636 0.29848 -0.32900
C 	C 	0.41106 0.05336 0.34748 0.17100
C 	C 	0.94493 0.21753 0.32091 0.13200
C 	C 	0.87500 0.25000 0.25000 -0.09100
C 	C 	0.12500 0.75000 0.75000 0.00700
N 	N 	0.20209 0.42860 0.43878 -0.31500
N 	N 	0.56947 0.07140 0.06122 -0.29200
N 	N 	0.64087 0.56122 0.92860 -0.32600
N 	N 	0.63069 0.93878 0.57140 -0.29400
N 	N 	0.79791 0.57140 0.56122 -0.30300
N 	N 	0.43053 0.92860 0.93878 -0.31200
N 	N 	0.35913 0.43878 0.07140 -0.28700
N 	N 	0.36931 0.06122 0.42860 -0.31900
O 	O 	0.62580 0.28509 0.33711 -0.28500
O 	O 	0.74800 0.21491 0.16289 -0.27400
O 	O 	0.96291 0.66289 0.78509 -0.24400
O 	O 	0.91089 0.83711 0.71491 -0.24200
O 	O 	0.37420 0.71491 0.66289 -0.27300
O 	O 	0.25200 0.78509 0.83711 -0.28300
O 	O 	0.03709 0.33711 0.21491 -0.31100
O 	O 	0.08911 0.16289 0.28509 -0.31200
