data_crystal

_cell_length_a 8.05760
_cell_length_b 22.11380
_cell_length_c 22.11380
_cell_angle_alpha 90.00000
_cell_angle_beta  90.00000
_cell_angle_gamma 90.00000

_symmetry_space_group_name_	'P 1'
_symmetry_space_group_name_H-M	'P 1'

loop_
_symmetry_equiv_pos_as_xyz
  x,y,z

loop_
_atom_site_label
_atom_site_type_symbol
_atom_site_fract_x
_atom_site_fract_y
_atom_site_fract_z
_atom_site_charge
Co	Co	0.24233 0.74480 0.24464 1.12500
Co	Co	0.24233 0.25520 0.75537 1.12500
Co	Co	0.75767 0.24464 0.25520 1.12500
Co	Co	0.75767 0.75537 0.74480 1.12500
Co	Co	0.25767 0.75520 0.74463 1.12400
Co	Co	0.25767 0.24480 0.25537 1.12400
Co	Co	0.74233 0.25537 0.75520 1.12400
Co	Co	0.74233 0.74463 0.24480 1.12400
H 	H 	0.99220 0.81550 0.22260 0.21300
H 	H 	0.99220 0.76580 0.17360 0.21400
H 	H 	0.36200 0.74360 0.49440 -0.02400
H 	H 	0.00040 0.83100 0.58500 -0.10100
H 	H 	0.98920 0.82320 0.40360 -0.10200
H 	H 	0.66520 0.79220 0.48740 0.55300
H 	H 	0.56300 0.84990 0.46960 0.52100
H 	H 	0.69160 0.82250 0.42400 0.54200
H 	H 	0.72370 0.94750 0.45110 0.48400
H 	H 	0.91230 0.95040 0.46830 0.46400
H 	H 	0.85480 0.91230 0.41240 0.50600
H 	H 	0.73830 0.85760 0.58140 0.53500
H 	H 	0.83500 0.91830 0.57130 0.50100
H 	H 	0.64820 0.91320 0.55210 0.49200
H 	H 	0.99220 0.18450 0.77740 0.21300
H 	H 	0.99220 0.23420 0.82640 0.21400
H 	H 	0.36200 0.25640 0.50560 -0.02400
H 	H 	0.00040 0.16900 0.41500 -0.10100
H 	H 	0.98920 0.17680 0.59640 -0.10200
H 	H 	0.66520 0.20780 0.51260 0.55300
H 	H 	0.56300 0.15010 0.53040 0.52100
H 	H 	0.69160 0.17750 0.57600 0.54200
H 	H 	0.72370 0.05250 0.54890 0.48400
H 	H 	0.91230 0.04960 0.53170 0.46400
H 	H 	0.85480 0.08770 0.58760 0.50600
H 	H 	0.73830 0.14240 0.41860 0.53500
H 	H 	0.83500 0.08170 0.42870 0.50100
H 	H 	0.64820 0.08680 0.44790 0.49200
H 	H 	0.00780 0.22260 0.18450 0.21300
H 	H 	0.00780 0.17360 0.23420 0.21400
H 	H 	0.63800 0.49440 0.25640 -0.02400
H 	H 	0.99960 0.58500 0.16900 -0.10100
H 	H 	0.01080 0.40360 0.17680 -0.10200
H 	H 	0.33480 0.48740 0.20780 0.55300
H 	H 	0.43700 0.46960 0.15010 0.52100
H 	H 	0.30840 0.42400 0.17750 0.54200
H 	H 	0.27630 0.45110 0.05250 0.48400
H 	H 	0.08770 0.46830 0.04960 0.46400
H 	H 	0.14520 0.41240 0.08770 0.50600
H 	H 	0.26170 0.58140 0.14240 0.53500
H 	H 	0.16500 0.57130 0.08170 0.50100
H 	H 	0.35180 0.55210 0.08680 0.49200
H 	H 	0.00780 0.77740 0.81550 0.21300
H 	H 	0.00780 0.82640 0.76580 0.21400
H 	H 	0.63800 0.50560 0.74360 -0.02400
H 	H 	0.99960 0.41500 0.83100 -0.10100
H 	H 	0.01080 0.59640 0.82320 -0.10200
H 	H 	0.33480 0.51260 0.79220 0.55300
H 	H 	0.43700 0.53040 0.84990 0.52100
H 	H 	0.30840 0.57600 0.82250 0.54200
H 	H 	0.27630 0.54890 0.94750 0.48400
H 	H 	0.08770 0.53170 0.95040 0.46400
H 	H 	0.14520 0.58760 0.91230 0.50600
H 	H 	0.26170 0.41860 0.85760 0.53500
H 	H 	0.16500 0.42870 0.91830 0.50100
H 	H 	0.35180 0.44790 0.91320 0.49200
H 	H 	0.50780 0.68450 0.72260 0.21300
H 	H 	0.50780 0.73420 0.67360 0.21400
H 	H 	0.13800 0.75640 0.99440 -0.02500
H 	H 	0.49960 0.66900 0.08500 -0.10300
H 	H 	0.51080 0.67680 0.90360 -0.10700
H 	H 	0.83480 0.70780 0.98740 0.55300
H 	H 	0.93700 0.65010 0.96960 0.52100
H 	H 	0.80840 0.67750 0.92400 0.54200
H 	H 	0.77630 0.55250 0.95110 0.48400
H 	H 	0.58770 0.54960 0.96830 0.46400
H 	H 	0.64520 0.58770 0.91240 0.50600
H 	H 	0.76170 0.64240 0.08140 0.53500
H 	H 	0.66500 0.58170 0.07130 0.50100
H 	H 	0.85180 0.58680 0.05210 0.49200
H 	H 	0.50780 0.31550 0.27740 0.21300
H 	H 	0.50780 0.26580 0.32640 0.21400
H 	H 	0.13800 0.24360 0.00560 -0.02500
H 	H 	0.49960 0.33100 0.91500 -0.10300
H 	H 	0.51080 0.32320 0.09640 -0.10700
H 	H 	0.83480 0.29220 0.01260 0.55300
H 	H 	0.93700 0.34990 0.03040 0.52100
H 	H 	0.80840 0.32250 0.07600 0.54200
H 	H 	0.77630 0.44750 0.04890 0.48400
H 	H 	0.58770 0.45040 0.03170 0.46400
H 	H 	0.64520 0.41230 0.08760 0.50600
H 	H 	0.76170 0.35760 0.91860 0.53500
H 	H 	0.66500 0.41830 0.92870 0.50100
H 	H 	0.85180 0.41320 0.94790 0.49200
H 	H 	0.49220 0.27740 0.68450 0.21300
H 	H 	0.49220 0.32640 0.73420 0.21400
H 	H 	0.86200 0.00560 0.75640 -0.02500
H 	H 	0.50040 0.91500 0.66900 -0.10300
H 	H 	0.48920 0.09640 0.67680 -0.10700
H 	H 	0.16520 0.01260 0.70780 0.55300
H 	H 	0.06300 0.03040 0.65010 0.52100
H 	H 	0.19160 0.07600 0.67750 0.54200
H 	H 	0.22370 0.04890 0.55250 0.48400
H 	H 	0.41230 0.03170 0.54960 0.46400
H 	H 	0.35480 0.08760 0.58770 0.50600
H 	H 	0.23830 0.91860 0.64240 0.53500
H 	H 	0.33500 0.92870 0.58170 0.50100
H 	H 	0.14820 0.94790 0.58680 0.49200
H 	H 	0.49220 0.72260 0.31550 0.21300
H 	H 	0.49220 0.67360 0.26580 0.21400
H 	H 	0.86200 0.99440 0.24360 -0.02500
H 	H 	0.50040 0.08500 0.33100 -0.10300
H 	H 	0.48920 0.90360 0.32320 -0.10700
H 	H 	0.16520 0.98740 0.29220 0.55300
H 	H 	0.06300 0.96960 0.34990 0.52100
H 	H 	0.19160 0.92400 0.32250 0.54200
H 	H 	0.22370 0.95110 0.44750 0.48400
H 	H 	0.41230 0.96830 0.45040 0.46400
H 	H 	0.35480 0.91240 0.41230 0.50600
H 	H 	0.23830 0.08140 0.35760 0.53500
H 	H 	0.33500 0.07130 0.41830 0.50100
H 	H 	0.14820 0.05210 0.41320 0.49200
C 	C 	0.18550 0.78014 0.44001 -0.27800
C 	C 	0.26365 0.76562 0.49437 0.16100
C 	C 	0.19272 0.78452 0.54884 -0.27400
C 	C 	0.04604 0.81852 0.54842 0.27500
C 	C 	0.96637 0.83418 0.49434 -0.55500
C 	C 	0.03968 0.81384 0.44026 0.27500
C 	C 	0.26126 0.75912 0.38152 0.38400
C 	C 	0.27534 0.76832 0.60765 0.38900
C 	C 	0.80443 0.87021 0.49275 1.25700
C 	C 	0.66830 0.82995 0.46594 -1.75600
C 	C 	0.82580 0.92513 0.45245 -1.70600
C 	C 	0.75160 0.89180 0.55514 -1.73100
C 	C 	0.18550 0.21986 0.55999 -0.27800
C 	C 	0.26365 0.23438 0.50563 0.16100
C 	C 	0.19272 0.21548 0.45116 -0.27400
C 	C 	0.04604 0.18148 0.45158 0.27500
C 	C 	0.96637 0.16582 0.50566 -0.55500
C 	C 	0.03968 0.18616 0.55974 0.27500
C 	C 	0.26126 0.24088 0.61848 0.38400
C 	C 	0.27534 0.23168 0.39235 0.38900
C 	C 	0.80443 0.12979 0.50725 1.25700
C 	C 	0.66830 0.17005 0.53406 -1.75600
C 	C 	0.82580 0.07487 0.54755 -1.70600
C 	C 	0.75160 0.10820 0.44486 -1.73100
C 	C 	0.81450 0.44001 0.21986 -0.27800
C 	C 	0.73635 0.49437 0.23438 0.16100
C 	C 	0.80728 0.54884 0.21548 -0.27400
C 	C 	0.95396 0.54842 0.18148 0.27500
C 	C 	0.03363 0.49434 0.16582 -0.55500
C 	C 	0.96032 0.44026 0.18616 0.27500
C 	C 	0.73874 0.38152 0.24088 0.38400
C 	C 	0.72466 0.60765 0.23168 0.38900
C 	C 	0.19557 0.49275 0.12979 1.25700
C 	C 	0.33170 0.46594 0.17005 -1.75600
C 	C 	0.17420 0.45245 0.07487 -1.70600
C 	C 	0.24840 0.55514 0.10820 -1.73100
C 	C 	0.81450 0.55999 0.78014 -0.27800
C 	C 	0.73635 0.50563 0.76562 0.16100
C 	C 	0.80728 0.45116 0.78452 -0.27400
C 	C 	0.95396 0.45158 0.81852 0.27500
C 	C 	0.03363 0.50566 0.83418 -0.55500
C 	C 	0.96032 0.55974 0.81384 0.27500
C 	C 	0.73874 0.61848 0.75912 0.38400
C 	C 	0.72466 0.39235 0.76832 0.38900
C 	C 	0.19557 0.50725 0.87021 1.25700
C 	C 	0.33170 0.53406 0.82995 -1.75600
C 	C 	0.17420 0.54755 0.92513 -1.70600
C 	C 	0.24840 0.44486 0.89180 -1.73100
C 	C 	0.31450 0.71986 0.94001 -0.28300
C 	C 	0.23635 0.73438 0.99437 0.16600
C 	C 	0.30728 0.71548 0.04884 -0.27800
C 	C 	0.45396 0.68148 0.04842 0.28300
C 	C 	0.53363 0.66582 0.99434 -0.56400
C 	C 	0.46032 0.68616 0.94026 0.28600
C 	C 	0.23874 0.74088 0.88152 0.38600
C 	C 	0.22466 0.73168 0.10765 0.39100
C 	C 	0.69557 0.62979 0.99275 1.26000
C 	C 	0.83170 0.67005 0.96594 -1.75700
C 	C 	0.67420 0.57487 0.95245 -1.70800
C 	C 	0.74840 0.60820 0.05514 -1.73300
C 	C 	0.31450 0.28014 0.05999 -0.28300
C 	C 	0.23635 0.26562 0.00563 0.16600
C 	C 	0.30728 0.28452 0.95116 -0.27800
C 	C 	0.45396 0.31852 0.95158 0.28300
C 	C 	0.53363 0.33418 0.00566 -0.56400
C 	C 	0.46032 0.31384 0.05974 0.28600
C 	C 	0.23874 0.25912 0.11848 0.38600
C 	C 	0.22466 0.26832 0.89235 0.39100
C 	C 	0.69557 0.37021 0.00725 1.26000
C 	C 	0.83170 0.32995 0.03406 -1.75700
C 	C 	0.67420 0.42513 0.04755 -1.70800
C 	C 	0.74840 0.39180 0.94486 -1.73300
C 	C 	0.68550 0.05999 0.71986 -0.28300
C 	C 	0.76365 0.00563 0.73438 0.16600
C 	C 	0.69272 0.95116 0.71548 -0.27800
C 	C 	0.54604 0.95158 0.68148 0.28300
C 	C 	0.46637 0.00566 0.66582 -0.56400
C 	C 	0.53968 0.05974 0.68616 0.28600
C 	C 	0.76126 0.11848 0.74088 0.38600
C 	C 	0.77534 0.89235 0.73168 0.39100
C 	C 	0.30443 0.00725 0.62979 1.26000
C 	C 	0.16830 0.03406 0.67005 -1.75700
C 	C 	0.32580 0.04755 0.57487 -1.70800
C 	C 	0.25160 0.94486 0.60820 -1.73300
C 	C 	0.68550 0.94001 0.28014 -0.28300
C 	C 	0.76365 0.99437 0.26562 0.16600
C 	C 	0.69272 0.04884 0.28452 -0.27800
C 	C 	0.54604 0.04842 0.31852 0.28300
C 	C 	0.46637 0.99434 0.33418 -0.56400
C 	C 	0.53968 0.94026 0.31384 0.28600
C 	C 	0.76126 0.88152 0.25912 0.38600
C 	C 	0.77534 0.10765 0.26832 0.39100
C 	C 	0.30443 0.99275 0.37021 1.26000
C 	C 	0.16830 0.96594 0.32995 -1.75700
C 	C 	0.32580 0.95245 0.42513 -1.70800
C 	C 	0.25160 0.05514 0.39180 -1.73300
O 	O 	0.17450 0.76470 0.33355 -0.47100
O 	O 	0.40440 0.73739 0.38222 -0.36200
O 	O 	0.18880 0.77392 0.65559 -0.47200
O 	O 	0.42138 0.75016 0.60670 -0.36700
O 	O 	0.99221 0.77200 0.21698 -0.69100
O 	O 	0.17450 0.23530 0.66645 -0.47100
O 	O 	0.40440 0.26261 0.61778 -0.36200
O 	O 	0.18880 0.22608 0.34441 -0.47200
O 	O 	0.42138 0.24984 0.39330 -0.36700
O 	O 	0.99221 0.22800 0.78302 -0.69100
O 	O 	0.82550 0.33355 0.23530 -0.47100
O 	O 	0.59560 0.38222 0.26261 -0.36200
O 	O 	0.81120 0.65559 0.22608 -0.47200
O 	O 	0.57862 0.60670 0.24984 -0.36700
O 	O 	0.00779 0.21698 0.22800 -0.69100
O 	O 	0.82550 0.66645 0.76470 -0.47100
O 	O 	0.59560 0.61778 0.73739 -0.36200
O 	O 	0.81120 0.34441 0.77392 -0.47200
O 	O 	0.57862 0.39330 0.75016 -0.36700
O 	O 	0.00779 0.78302 0.77200 -0.69100
O 	O 	0.32550 0.73530 0.83355 -0.47100
O 	O 	0.09560 0.76261 0.88222 -0.36200
O 	O 	0.31120 0.72608 0.15559 -0.47200
O 	O 	0.07862 0.74984 0.10670 -0.36700
O 	O 	0.50779 0.72800 0.71698 -0.69200
O 	O 	0.32550 0.26470 0.16645 -0.47100
O 	O 	0.09560 0.23739 0.11778 -0.36200
O 	O 	0.31120 0.27392 0.84441 -0.47200
O 	O 	0.07862 0.25016 0.89330 -0.36700
O 	O 	0.50779 0.27200 0.28302 -0.69200
O 	O 	0.67450 0.16645 0.73530 -0.47100
O 	O 	0.90440 0.11778 0.76261 -0.36200
O 	O 	0.68880 0.84441 0.72608 -0.47200
O 	O 	0.92138 0.89330 0.74984 -0.36700
O 	O 	0.49221 0.28302 0.72800 -0.69200
O 	O 	0.67450 0.83355 0.26470 -0.47100
O 	O 	0.90440 0.88222 0.23739 -0.36200
O 	O 	0.68880 0.15559 0.27392 -0.47200
O 	O 	0.92138 0.10670 0.25016 -0.36700
O 	O 	0.49221 0.71698 0.27200 -0.69200
