data_crystal

_cell_length_a 14.42010
_cell_length_b 19.68320
_cell_length_c 24.39370
_cell_angle_alpha 90.00000
_cell_angle_beta  95.63200
_cell_angle_gamma 90.00000

_symmetry_space_group_name_	'P 1'
_symmetry_space_group_name_H-M	'P 1'

loop_
_symmetry_equiv_pos_as_xyz
  x,y,z

loop_
_atom_site_label
_atom_site_type_symbol
_atom_site_fract_x
_atom_site_fract_y
_atom_site_fract_z
_atom_site_charge
C 	C 	0.15840 0.67400 0.20170 -0.91900
H 	H 	0.16420 0.66100 0.16380 0.39900
H 	H 	0.20000 0.64550 0.22540 0.22100
C 	C 	0.18680 0.74790 0.20990 0.04200
H 	H 	0.25120 0.75300 0.20210 0.10500
H 	H 	0.18310 0.76010 0.24810 0.53100
C 	C 	0.12620 0.79620 0.17320 -1.02600
H 	H 	0.06210 0.79190 0.18170 0.28200
H 	H 	0.12870 0.78320 0.13500 0.55200
C 	C 	0.15650 0.87020 0.18040 0.80200
C 	C 	0.23310 0.88700 0.21940 -0.95100
H 	H 	0.26740 0.85300 0.23840 0.36300
C 	C 	0.25530 0.95300 0.22850 0.86400
H 	H 	0.30520 0.96270 0.25450 -0.27000
C 	C 	0.13960 0.99020 0.16770 0.84800
H 	H 	0.10570 0.02520 0.14970 -0.31100
C 	C 	0.11260 0.92270 0.15620 -1.04500
H 	H 	0.06160 0.91470 0.13060 0.36500
N 	N 	0.21080 0.00540 0.20280 -0.32000
C 	C 	0.14010 0.67170 0.17940 -0.35900
H 	H 	0.18890 0.63940 0.19100 0.17900
H 	H 	0.11890 0.66250 0.14110 -0.08300
C 	C 	0.17880 0.74370 0.18480 1.50400
H 	H 	0.24310 0.74180 0.17640 -0.53900
H 	H 	0.18000 0.75640 0.22330 -0.85700
C 	C 	0.13200 0.80240 0.15080 -0.47200
H 	H 	0.06510 0.79610 0.14670 0.12800
H 	H 	0.15370 0.80300 0.11440 -0.10900
C 	C 	0.20340 0.91010 0.14230 0.35100
H 	H 	0.21690 0.89160 0.10890 -0.10200
C 	C 	0.22750 0.97460 0.15550 -0.56000
H 	H 	0.25770 0.99960 0.13020 0.18500
C 	C 	0.16840 0.96910 0.23710 -0.57100
H 	H 	0.15550 0.98840 0.27030 0.19900
C 	C 	0.14110 0.90140 0.22580 0.27800
H 	H 	0.11070 0.87790 0.25190 -0.11400
C 	C 	0.76880 0.22020 0.08050 -0.42100
H 	H 	0.80460 0.17930 0.07530 0.11800
H 	H 	0.81170 0.25770 0.08810 0.13800
C 	C 	0.70180 0.23500 0.02860 0.01200
H 	H 	0.66230 0.19580 0.01970 0.02300
H 	H 	0.66210 0.27330 0.03540 -0.00600
C 	C 	0.75890 0.25100 0.98070 -0.25600
H 	H 	0.79260 0.21120 0.97020 0.07900
H 	H 	0.80300 0.28740 0.99030 0.10900
C 	C 	0.22430 0.75130 0.40580 -0.05000
H 	H 	0.20500 0.79250 0.38600 -0.01300
H 	H 	0.16910 0.72440 0.41000 0.05100
C 	C 	0.27210 0.76980 0.46280 0.20900
H 	H 	0.32040 0.80130 0.45440 -0.04400
H 	H 	0.22590 0.79740 0.47870 -0.05000
C 	C 	0.31690 0.73130 0.51130 -0.20800
H 	H 	0.38100 0.72110 0.50550 0.06800
H 	H 	0.28440 0.68860 0.51470 0.08800
C 	C 	0.34620 0.14990 0.57880 -0.60400
H 	H 	0.29660 0.12280 0.59080 0.14600
H 	H 	0.32060 0.18480 0.55430 0.31800
H 	H 	0.38050 0.17040 0.61030 0.18800
C 	C 	0.44580 0.04780 0.58990 -0.08100
H 	H 	0.48070 0.06780 0.62140 0.02900
H 	H 	0.48480 0.01650 0.57250 -0.01000
H 	H 	0.39290 0.02410 0.60140 0.09200
C 	C 	0.49420 0.14530 0.53500 -0.01100
H 	H 	0.53050 0.15830 0.56850 -0.02200
H 	H 	0.47300 0.18520 0.51500 -0.14100
H 	H 	0.53190 0.11860 0.51290 0.28400
C 	C 	0.61640 0.57820 0.89830 -0.33500
H 	H 	0.61900 0.52950 0.89950 0.03200
H 	H 	0.67670 0.59590 0.89260 0.11000
H 	H 	0.57180 0.59240 0.86870 0.11900
C 	C 	0.48230 0.58840 0.95360 -0.68900
H 	H 	0.44620 0.61370 0.92540 0.23600
H 	H 	0.46390 0.60090 0.98900 -0.06300
H 	H 	0.47170 0.54070 0.94760 0.26500
C 	C 	0.59560 0.68190 0.95350 -0.22700
H 	H 	0.65930 0.69470 0.96340 -0.10600
H 	H 	0.55750 0.69930 0.98040 0.20600
H 	H 	0.57490 0.70040 0.91800 0.07400
Co	Co	0.49573 0.14072 0.27004 1.18400
Co	Co	0.25169 0.10819 0.22647 1.14200
O 	O 	0.43410 0.23279 0.25781 -0.46000
O 	O 	0.28210 0.20820 0.24375 -0.48400
O 	O 	0.52390 0.47740 0.27130 -0.35600
O 	O 	0.42970 0.55027 0.22445 -0.44600
O 	O 	0.12670 0.91660 0.42211 -0.33100
O 	O 	0.13590 0.93630 0.51160 -0.53000
H 	H 	0.10720 0.96920 0.52170 0.24600
O 	O 	0.28550 0.06910 0.30322 -0.45000
O 	O 	0.42420 0.11030 0.33622 -0.43400
O 	O 	0.39480 0.09349 0.20874 -1.05300
H 	H 	0.38690 0.10430 0.17580 0.37100
H 	H 	0.41390 0.05410 0.21320 0.43600
N 	N 	0.88610 0.63030 0.25000 -0.32900
N 	N 	0.58630 0.17140 0.20570 -0.26700
N 	N 	0.58680 0.31660 0.83760 -0.25300
C 	C 	0.34940 0.24860 0.24670 0.45300
C 	C 	0.32740 0.32240 0.23710 -0.32200
C 	C 	0.23610 0.34190 0.22140 0.35700
H 	H 	0.19020 0.30870 0.21570 -0.11900
C 	C 	0.21180 0.40980 0.21390 -0.62100
C 	C 	0.28250 0.45730 0.22060 0.35900
H 	H 	0.26800 0.50290 0.21460 -0.12800
C 	C 	0.37440 0.43930 0.23610 -0.31100
C 	C 	0.39740 0.37140 0.24520 0.22000
H 	H 	0.45850 0.35880 0.25650 -0.02700
C 	C 	0.44870 0.49250 0.24440 0.42300
C 	C 	0.11140 0.43380 0.20030 1.32200
C 	C 	0.10250 0.47120 0.14520 -1.86900
H 	H 	0.14270 0.51020 0.14770 0.57300
H 	H 	0.03920 0.48550 0.13650 0.58000
H 	H 	0.12010 0.44130 0.11690 0.57100
C 	C 	0.08510 0.48080 0.24580 -1.86700
H 	H 	0.09040 0.45670 0.28020 0.57000
H 	H 	0.02210 0.49610 0.23740 0.57800
H 	H 	0.12630 0.51920 0.24850 0.57400
C 	C 	0.04200 0.37240 0.19690 -1.75700
H 	H 	0.05850 0.34100 0.16940 0.54300
H 	H 	0.97980 0.38870 0.18730 0.54800
H 	H 	0.04520 0.35000 0.23200 0.53900
C 	C 	0.34830 0.08170 0.34100 0.42200
C 	C 	0.32770 0.06090 0.39830 -0.19700
C 	C 	0.25660 0.01470 0.40530 0.13800
H 	H 	0.22330 0.99500 0.37480 -0.01500
C 	C 	0.23560 0.99810 0.45800 -0.23300
C 	C 	0.28560 0.02770 0.50360 0.13700
H 	H 	0.27000 0.01700 0.53870 -0.03200
C 	C 	0.35790 0.07290 0.49800 -0.22200
C 	C 	0.37790 0.08810 0.44450 0.11900
H 	H 	0.42690 0.11750 0.43970 -0.00500
C 	C 	0.16140 0.94770 0.46460 0.41100
C 	C 	0.41210 0.10430 0.54850 0.45700
C 	C 	0.90640 0.62340 0.19840 0.30000
H 	H 	0.86040 0.60610 0.17280 -0.08700
C 	C 	0.99040 0.64020 0.18030 -0.62400
H 	H 	0.99890 0.63550 0.14320 0.22400
C 	C 	0.05890 0.66280 0.21470 0.63600
C 	C 	0.04040 0.67110 0.26930 -0.55500
H 	H 	0.08670 0.68700 0.29540 0.19300
C 	C 	0.95300 0.65580 0.28460 0.27800
H 	H 	0.94090 0.66390 0.32080 -0.11400
C 	C 	0.60100 0.23520 0.19320 0.16500
H 	H 	0.56920 0.26870 0.21070 -0.03600
C 	C 	0.66130 0.25510 0.15550 -0.34600
H 	H 	0.66880 0.30130 0.14930 0.13300
C 	C 	0.70930 0.21090 0.12750 0.31300
C 	C 	0.69430 0.14750 0.14060 -0.34000
H 	H 	0.72630 0.11350 0.12380 0.12300
C 	C 	0.63260 0.12830 0.17870 0.16300
H 	H 	0.62420 0.08220 0.18500 -0.04600
C 	C 	0.68520 0.27290 0.93430 0.28100
C 	C 	0.62570 0.22820 0.90200 -0.26900
H 	H 	0.61830 0.18330 0.91270 0.11700
C 	C 	0.57930 0.25280 0.85460 0.16400
H 	H 	0.54050 0.22350 0.83310 -0.02100
C 	C 	0.63980 0.35770 0.87070 0.18600
H 	H 	0.64500 0.40280 0.86020 -0.04800
C 	C 	0.68660 0.33750 0.91860 -0.34700
H 	H 	0.72010 0.36920 0.94080 0.15200
C 	C 	0.84160 0.17400 0.29830 -0.93200
H 	H 	0.83580 0.16100 0.33620 0.40600
H 	H 	0.80000 0.14550 0.27460 0.22600
C 	C 	0.81320 0.24790 0.29010 0.04300
H 	H 	0.74880 0.25300 0.29790 0.11100
H 	H 	0.81690 0.26010 0.25190 0.54500
C 	C 	0.87380 0.29620 0.32680 -1.04500
H 	H 	0.93790 0.29190 0.31830 0.28700
H 	H 	0.87130 0.28320 0.36500 0.56300
C 	C 	0.84350 0.37020 0.31960 0.82300
C 	C 	0.76690 0.38700 0.28060 -0.71000
H 	H 	0.73260 0.35300 0.26160 0.27700
C 	C 	0.74470 0.45300 0.27150 0.59800
H 	H 	0.69480 0.46270 0.24550 -0.17600
C 	C 	0.86040 0.49020 0.33230 0.61900
H 	H 	0.89430 0.52520 0.35030 -0.23300
C 	C 	0.88740 0.42270 0.34380 -0.82900
H 	H 	0.93840 0.41470 0.36940 0.29000
N 	N 	0.78920 0.50540 0.29720 -0.32800
C 	C 	0.85990 0.17170 0.32060 -0.36500
H 	H 	0.81110 0.13940 0.30900 0.18200
H 	H 	0.88110 0.16250 0.35890 -0.08500
C 	C 	0.82120 0.24370 0.31520 1.53700
H 	H 	0.75690 0.24180 0.32360 -0.55300
H 	H 	0.82000 0.25640 0.27670 -0.87700
C 	C 	0.86800 0.30240 0.34920 -0.48300
H 	H 	0.93490 0.29610 0.35330 0.13200
H 	H 	0.84630 0.30300 0.38560 -0.11200
C 	C 	0.79660 0.41010 0.35770 0.12000
H 	H 	0.78310 0.39160 0.39110 -0.02000
C 	C 	0.77250 0.47460 0.34450 -0.31200
H 	H 	0.74230 0.49960 0.36980 0.09900
C 	C 	0.83160 0.46910 0.26290 -0.29800
H 	H 	0.84450 0.48840 0.22970 0.10400
C 	C 	0.85890 0.40140 0.27420 0.02000
H 	H 	0.88930 0.37790 0.24810 -0.02400
C 	C 	0.23120 0.72020 0.41950 -0.42300
H 	H 	0.19540 0.67930 0.42470 0.11900
H 	H 	0.18830 0.75770 0.41190 0.13800
C 	C 	0.29820 0.73500 0.47140 0.01200
H 	H 	0.33770 0.69580 0.48030 0.02400
H 	H 	0.33790 0.77330 0.46460 -0.00500
C 	C 	0.24110 0.75100 0.51930 -0.25300
H 	H 	0.20740 0.71120 0.52980 0.07700
H 	H 	0.19700 0.78740 0.50970 0.10800
C 	C 	0.77570 0.25130 0.09420 -0.05000
H 	H 	0.79500 0.29250 0.11400 -0.01400
H 	H 	0.83090 0.22440 0.09000 0.05000
C 	C 	0.72790 0.26980 0.03720 0.20700
H 	H 	0.67960 0.30130 0.04560 -0.04300
H 	H 	0.77410 0.29740 0.02130 -0.05000
C 	C 	0.68310 0.23130 0.98870 -0.20500
H 	H 	0.61900 0.22110 0.99450 0.06700
H 	H 	0.71560 0.18860 0.98530 0.08800
C 	C 	0.65380 0.64990 0.92120 -0.60200
H 	H 	0.70340 0.62280 0.90920 0.14500
H 	H 	0.67940 0.68480 0.94570 0.31600
H 	H 	0.61950 0.67040 0.88970 0.18700
C 	C 	0.55420 0.54780 0.91010 -0.08200
H 	H 	0.51930 0.56780 0.87860 0.02900
H 	H 	0.51520 0.51650 0.92750 -0.01000
H 	H 	0.60710 0.52410 0.89860 0.09100
C 	C 	0.50580 0.64530 0.96500 -0.01100
H 	H 	0.46950 0.65830 0.93150 -0.02200
H 	H 	0.52700 0.68520 0.98500 -0.14000
H 	H 	0.46810 0.61860 0.98710 0.28300
C 	C 	0.38360 0.07820 0.60170 -0.33800
H 	H 	0.38100 0.02950 0.60050 0.03200
H 	H 	0.32330 0.09590 0.60740 0.11100
H 	H 	0.42820 0.09240 0.63130 0.12100
C 	C 	0.51770 0.08840 0.54640 -0.69200
H 	H 	0.55380 0.11370 0.57460 0.23700
H 	H 	0.53610 0.10090 0.51100 -0.06300
H 	H 	0.52830 0.04070 0.55240 0.26600
C 	C 	0.40440 0.18190 0.54650 -0.22800
H 	H 	0.34070 0.19470 0.53660 -0.10700
H 	H 	0.44250 0.19930 0.51960 0.20700
H 	H 	0.42510 0.20040 0.58200 0.07400
Co	Co	0.50427 0.64072 0.22996 1.18400
Co	Co	0.74831 0.60819 0.27353 1.14200
O 	O 	0.56590 0.73279 0.24219 -0.45900
O 	O 	0.71790 0.70820 0.25625 -0.48400
O 	O 	0.47610 0.97740 0.22870 -0.35500
O 	O 	0.57030 0.05027 0.27555 -0.44700
O 	O 	0.87330 0.41660 0.07789 -0.33000
O 	O 	0.86410 0.43630 0.98840 -0.52800
H 	H 	0.89280 0.46920 0.97830 0.24700
O 	O 	0.71450 0.56910 0.19678 -0.45000
O 	O 	0.57580 0.61030 0.16378 -0.43300
O 	O 	0.60520 0.59349 0.29126 -1.05400
H 	H 	0.61310 0.60430 0.32420 0.37200
H 	H 	0.58610 0.55410 0.28680 0.43600
N 	N 	0.11390 0.13030 0.25000 -0.33000
N 	N 	0.41370 0.67140 0.29430 -0.26700
N 	N 	0.41320 0.81660 0.66240 -0.25300
C 	C 	0.65060 0.74860 0.25330 0.45100
C 	C 	0.67260 0.82240 0.26290 -0.31900
C 	C 	0.76390 0.84190 0.27860 0.34800
H 	H 	0.80980 0.80870 0.28430 -0.11500
C 	C 	0.78820 0.90980 0.28610 -0.60700
C 	C 	0.71750 0.95730 0.27940 0.35800
H 	H 	0.73200 0.00290 0.28540 -0.12900
C 	C 	0.62560 0.93930 0.26390 -0.30900
C 	C 	0.60260 0.87140 0.25480 0.21700
H 	H 	0.54150 0.85880 0.24350 -0.02600
C 	C 	0.55130 0.99250 0.25560 0.42400
C 	C 	0.88860 0.93380 0.29970 1.28600
C 	C 	0.89750 0.97120 0.35480 -1.81400
H 	H 	0.85730 0.01020 0.35230 0.55300
H 	H 	0.96080 0.98550 0.36350 0.56500
H 	H 	0.87990 0.94130 0.38310 0.55600
C 	C 	0.91490 0.98080 0.25420 -1.80900
H 	H 	0.90960 0.95670 0.21980 0.55500
H 	H 	0.97790 0.99610 0.26260 0.56300
H 	H 	0.87370 0.01920 0.25150 0.55300
C 	C 	0.95800 0.87240 0.30310 -1.71400
H 	H 	0.94150 0.84100 0.33060 0.53100
H 	H 	0.02020 0.88870 0.31270 0.53600
H 	H 	0.95480 0.85000 0.26800 0.52900
C 	C 	0.65170 0.58170 0.15900 0.41800
C 	C 	0.67230 0.56090 0.10170 -0.18700
C 	C 	0.74340 0.51470 0.09470 0.11700
H 	H 	0.77670 0.49500 0.12520 -0.00500
C 	C 	0.76440 0.49810 0.04200 -0.21700
C 	C 	0.71440 0.52770 0.99640 0.12300
H 	H 	0.73000 0.51700 0.96130 -0.02900
C 	C 	0.64210 0.57290 0.00200 -0.21400
C 	C 	0.62210 0.58810 0.05550 0.11100
H 	H 	0.57310 0.61750 0.06030 -0.00200
C 	C 	0.83860 0.44770 0.03540 0.40600
C 	C 	0.58790 0.60430 0.95150 0.45200
C 	C 	0.09360 0.12340 0.30160 0.30100
H 	H 	0.13960 0.10610 0.32720 -0.08800
C 	C 	0.00960 0.14020 0.31970 -0.62500
H 	H 	0.00110 0.13550 0.35680 0.22600
C 	C 	0.94110 0.16280 0.28530 0.64100
C 	C 	0.95960 0.17110 0.23070 -0.56400
H 	H 	0.91330 0.18700 0.20460 0.19600
C 	C 	0.04700 0.15580 0.21540 0.28500
H 	H 	0.05910 0.16390 0.17920 -0.11500
C 	C 	0.39900 0.73520 0.30680 0.16500
H 	H 	0.43080 0.76870 0.28930 -0.03700
C 	C 	0.33870 0.75510 0.34450 -0.34700
H 	H 	0.33120 0.80130 0.35070 0.13300
C 	C 	0.29070 0.71090 0.37250 0.31500
C 	C 	0.30570 0.64750 0.35940 -0.34100
H 	H 	0.27370 0.61350 0.37620 0.12400
C 	C 	0.36740 0.62830 0.32130 0.16400
H 	H 	0.37580 0.58220 0.31500 -0.04600
C 	C 	0.31480 0.77290 0.56570 0.28100
C 	C 	0.37430 0.72820 0.59800 -0.26900
H 	H 	0.38170 0.68330 0.58730 0.11700
C 	C 	0.42070 0.75280 0.64540 0.16400
H 	H 	0.45950 0.72350 0.66690 -0.02100
C 	C 	0.36020 0.85770 0.62930 0.18600
H 	H 	0.35500 0.90280 0.63980 -0.04900
C 	C 	0.31340 0.83750 0.58140 -0.34700
H 	H 	0.27990 0.86920 0.55920 0.15200
C 	C 	0.84160 0.32600 0.79830 -0.91800
H 	H 	0.83580 0.33900 0.83620 0.40000
H 	H 	0.80000 0.35450 0.77460 0.22200
C 	C 	0.81320 0.25210 0.79010 0.04300
H 	H 	0.74880 0.24700 0.79790 0.10600
H 	H 	0.81690 0.23990 0.75190 0.53200
C 	C 	0.87380 0.20380 0.82680 -1.02500
H 	H 	0.93790 0.20810 0.81830 0.28300
H 	H 	0.87130 0.21680 0.86500 0.55200
C 	C 	0.84350 0.12980 0.81960 0.80200
C 	C 	0.76690 0.11300 0.78060 -0.95100
H 	H 	0.73260 0.14700 0.76160 0.36300
C 	C 	0.74470 0.04700 0.77150 0.86400
H 	H 	0.69480 0.03730 0.74550 -0.27000
C 	C 	0.86040 0.00980 0.83230 0.84800
H 	H 	0.89430 0.97480 0.85030 -0.31100
C 	C 	0.88740 0.07730 0.84380 -1.04500
H 	H 	0.93840 0.08530 0.86940 0.36500
N 	N 	0.78920 0.99460 0.79720 -0.32000
C 	C 	0.85990 0.32830 0.82060 -0.35900
H 	H 	0.81110 0.36060 0.80900 0.17900
H 	H 	0.88110 0.33750 0.85890 -0.08300
C 	C 	0.82120 0.25630 0.81520 1.50400
H 	H 	0.75690 0.25820 0.82360 -0.53900
H 	H 	0.82000 0.24360 0.77670 -0.85700
C 	C 	0.86800 0.19760 0.84920 -0.47200
H 	H 	0.93490 0.20390 0.85330 0.12800
H 	H 	0.84630 0.19700 0.88560 -0.10900
C 	C 	0.79660 0.08990 0.85770 0.35100
H 	H 	0.78310 0.10840 0.89110 -0.10200
C 	C 	0.77250 0.02540 0.84450 -0.56000
H 	H 	0.74230 0.00040 0.86980 0.18500
C 	C 	0.83160 0.03090 0.76290 -0.57100
H 	H 	0.84450 0.01160 0.72970 0.19900
C 	C 	0.85890 0.09860 0.77420 0.27800
H 	H 	0.88930 0.12210 0.74810 -0.11400
C 	C 	0.23120 0.77980 0.91950 -0.42100
H 	H 	0.19540 0.82070 0.92470 0.11800
H 	H 	0.18830 0.74230 0.91190 0.13800
C 	C 	0.29820 0.76500 0.97140 0.01200
H 	H 	0.33770 0.80420 0.98030 0.02300
H 	H 	0.33790 0.72670 0.96460 -0.00600
C 	C 	0.24110 0.74900 0.01930 -0.25600
H 	H 	0.20740 0.78880 0.02980 0.07900
H 	H 	0.19700 0.71260 0.00970 0.10900
C 	C 	0.77570 0.24870 0.59420 -0.05000
H 	H 	0.79500 0.20750 0.61400 -0.01300
H 	H 	0.83090 0.27560 0.59000 0.05100
C 	C 	0.72790 0.23020 0.53720 0.20900
H 	H 	0.67960 0.19870 0.54560 -0.04400
H 	H 	0.77410 0.20260 0.52130 -0.05000
C 	C 	0.68310 0.26870 0.48870 -0.20800
H 	H 	0.61900 0.27890 0.49450 0.06800
H 	H 	0.71560 0.31140 0.48530 0.08800
C 	C 	0.65380 0.85010 0.42120 -0.60400
H 	H 	0.70340 0.87720 0.40920 0.14600
H 	H 	0.67940 0.81520 0.44570 0.31800
H 	H 	0.61950 0.82960 0.38970 0.18800
C 	C 	0.55420 0.95220 0.41010 -0.08100
H 	H 	0.51930 0.93220 0.37860 0.02900
H 	H 	0.51520 0.98350 0.42750 -0.01000
H 	H 	0.60710 0.97590 0.39860 0.09200
C 	C 	0.50580 0.85470 0.46500 -0.01100
H 	H 	0.46950 0.84170 0.43150 -0.02200
H 	H 	0.52700 0.81480 0.48500 -0.14100
H 	H 	0.46810 0.88140 0.48710 0.28400
C 	C 	0.38360 0.42180 0.10170 -0.33500
H 	H 	0.38100 0.47050 0.10050 0.03200
H 	H 	0.32330 0.40410 0.10740 0.11000
H 	H 	0.42820 0.40760 0.13130 0.11900
C 	C 	0.51770 0.41160 0.04640 -0.68900
H 	H 	0.55380 0.38630 0.07460 0.23600
H 	H 	0.53610 0.39910 0.01100 -0.06300
H 	H 	0.52830 0.45930 0.05240 0.26500
C 	C 	0.40440 0.31810 0.04650 -0.22700
H 	H 	0.34070 0.30530 0.03660 -0.10600
H 	H 	0.44250 0.30070 0.01960 0.20600
H 	H 	0.42510 0.29960 0.08200 0.07400
Co	Co	0.50427 0.85928 0.72996 1.18400
Co	Co	0.74831 0.89181 0.77353 1.14200
O 	O 	0.56590 0.76721 0.74219 -0.46000
O 	O 	0.71790 0.79180 0.75625 -0.48400
O 	O 	0.47610 0.52260 0.72870 -0.35600
O 	O 	0.57030 0.44973 0.77555 -0.44600
O 	O 	0.87330 0.08340 0.57789 -0.33100
O 	O 	0.86410 0.06370 0.48840 -0.53000
H 	H 	0.89280 0.03080 0.47830 0.24600
O 	O 	0.71450 0.93090 0.69678 -0.45000
O 	O 	0.57580 0.88970 0.66378 -0.43400
O 	O 	0.60520 0.90651 0.79126 -1.05300
H 	H 	0.61310 0.89570 0.82420 0.37100
H 	H 	0.58610 0.94590 0.78680 0.43600
N 	N 	0.11390 0.36970 0.75000 -0.32900
N 	N 	0.41370 0.82860 0.79430 -0.26700
N 	N 	0.41320 0.68340 0.16240 -0.25300
C 	C 	0.65060 0.75140 0.75330 0.45300
C 	C 	0.67260 0.67760 0.76290 -0.32200
C 	C 	0.76390 0.65810 0.77860 0.35700
H 	H 	0.80980 0.69130 0.78430 -0.11900
C 	C 	0.78820 0.59020 0.78610 -0.62100
C 	C 	0.71750 0.54270 0.77940 0.35900
H 	H 	0.73200 0.49710 0.78540 -0.12800
C 	C 	0.62560 0.56070 0.76390 -0.31100
C 	C 	0.60260 0.62860 0.75480 0.22000
H 	H 	0.54150 0.64120 0.74350 -0.02700
C 	C 	0.55130 0.50750 0.75560 0.42300
C 	C 	0.88860 0.56620 0.79970 1.32200
C 	C 	0.89750 0.52880 0.85480 -1.86900
H 	H 	0.85730 0.48980 0.85230 0.57300
H 	H 	0.96080 0.51450 0.86350 0.58000
H 	H 	0.87990 0.55870 0.88310 0.57100
C 	C 	0.91490 0.51920 0.75420 -1.86700
H 	H 	0.90960 0.54330 0.71980 0.57000
H 	H 	0.97790 0.50390 0.76260 0.57800
H 	H 	0.87370 0.48080 0.75150 0.57400
C 	C 	0.95800 0.62760 0.80310 -1.75700
H 	H 	0.94150 0.65900 0.83060 0.54300
H 	H 	0.02020 0.61130 0.81270 0.54800
H 	H 	0.95480 0.65000 0.76800 0.53900
C 	C 	0.65170 0.91830 0.65900 0.42200
C 	C 	0.67230 0.93910 0.60170 -0.19700
C 	C 	0.74340 0.98530 0.59470 0.13800
H 	H 	0.77670 0.00500 0.62520 -0.01500
C 	C 	0.76440 0.00190 0.54200 -0.23300
C 	C 	0.71440 0.97230 0.49640 0.13700
H 	H 	0.73000 0.98300 0.46130 -0.03200
C 	C 	0.64210 0.92710 0.50200 -0.22200
C 	C 	0.62210 0.91190 0.55550 0.11900
H 	H 	0.57310 0.88250 0.56030 -0.00500
C 	C 	0.83860 0.05230 0.53540 0.41100
C 	C 	0.58790 0.89570 0.45150 0.45700
C 	C 	0.09360 0.37660 0.80160 0.30000
H 	H 	0.13960 0.39390 0.82720 -0.08700
C 	C 	0.00960 0.35980 0.81970 -0.62400
H 	H 	0.00110 0.36450 0.85680 0.22400
C 	C 	0.94110 0.33720 0.78530 0.63600
C 	C 	0.95960 0.32890 0.73070 -0.55500
H 	H 	0.91330 0.31300 0.70460 0.19300
C 	C 	0.04700 0.34420 0.71540 0.27800
H 	H 	0.05910 0.33610 0.67920 -0.11400
C 	C 	0.39900 0.76480 0.80680 0.16500
H 	H 	0.43080 0.73130 0.78930 -0.03600
C 	C 	0.33870 0.74490 0.84450 -0.34600
H 	H 	0.33120 0.69870 0.85070 0.13300
C 	C 	0.29070 0.78910 0.87250 0.31300
C 	C 	0.30570 0.85250 0.85940 -0.34000
H 	H 	0.27370 0.88650 0.87620 0.12300
C 	C 	0.36740 0.87170 0.82130 0.16300
H 	H 	0.37580 0.91780 0.81500 -0.04600
C 	C 	0.31480 0.72710 0.06570 0.28100
C 	C 	0.37430 0.77180 0.09800 -0.26900
H 	H 	0.38170 0.81670 0.08730 0.11700
C 	C 	0.42070 0.74720 0.14540 0.16400
H 	H 	0.45950 0.77650 0.16690 -0.02100
C 	C 	0.36020 0.64230 0.12930 0.18600
H 	H 	0.35500 0.59720 0.13980 -0.04800
C 	C 	0.31340 0.66250 0.08140 -0.34700
H 	H 	0.27990 0.63080 0.05920 0.15200
C 	C 	0.15840 0.82600 0.70170 -0.93200
H 	H 	0.16420 0.83900 0.66380 0.40600
H 	H 	0.20000 0.85450 0.72540 0.22600
C 	C 	0.18680 0.75210 0.70990 0.04300
H 	H 	0.25120 0.74700 0.70210 0.11100
H 	H 	0.18310 0.73990 0.74810 0.54500
C 	C 	0.12620 0.70380 0.67320 -1.04500
H 	H 	0.06210 0.70810 0.68170 0.28700
H 	H 	0.12870 0.71680 0.63500 0.56300
C 	C 	0.15650 0.62980 0.68040 0.82300
C 	C 	0.23310 0.61300 0.71940 -0.71000
H 	H 	0.26740 0.64700 0.73840 0.27700
C 	C 	0.25530 0.54700 0.72850 0.59800
H 	H 	0.30520 0.53730 0.75450 -0.17600
C 	C 	0.13960 0.50980 0.66770 0.61900
H 	H 	0.10570 0.47480 0.64970 -0.23300
C 	C 	0.11260 0.57730 0.65620 -0.82900
H 	H 	0.06160 0.58530 0.63060 0.29000
N 	N 	0.21080 0.49460 0.70280 -0.32800
C 	C 	0.14010 0.82830 0.67940 -0.36500
H 	H 	0.18890 0.86060 0.69100 0.18200
H 	H 	0.11890 0.83750 0.64110 -0.08500
C 	C 	0.17880 0.75630 0.68480 1.53700
H 	H 	0.24310 0.75820 0.67640 -0.55300
H 	H 	0.18000 0.74360 0.72330 -0.87700
C 	C 	0.13200 0.69760 0.65080 -0.48300
H 	H 	0.06510 0.70390 0.64670 0.13200
H 	H 	0.15370 0.69700 0.61440 -0.11200
C 	C 	0.20340 0.58990 0.64230 0.12000
H 	H 	0.21690 0.60840 0.60890 -0.02000
C 	C 	0.22750 0.52540 0.65550 -0.31200
H 	H 	0.25770 0.50040 0.63020 0.09900
C 	C 	0.16840 0.53090 0.73710 -0.29800
H 	H 	0.15550 0.51160 0.77030 0.10400
C 	C 	0.14110 0.59860 0.72580 0.02000
H 	H 	0.11070 0.62210 0.75190 -0.02400
C 	C 	0.76880 0.27980 0.58050 -0.42300
H 	H 	0.80460 0.32070 0.57530 0.11900
H 	H 	0.81170 0.24230 0.58810 0.13800
C 	C 	0.70180 0.26500 0.52860 0.01200
H 	H 	0.66230 0.30420 0.51970 0.02400
H 	H 	0.66210 0.22670 0.53540 -0.00500
C 	C 	0.75890 0.24900 0.48070 -0.25300
H 	H 	0.79260 0.28880 0.47020 0.07700
H 	H 	0.80300 0.21260 0.49030 0.10800
C 	C 	0.22430 0.74870 0.90580 -0.05000
H 	H 	0.20500 0.70750 0.88600 -0.01400
H 	H 	0.16910 0.77560 0.91000 0.05000
C 	C 	0.27210 0.73020 0.96280 0.20700
H 	H 	0.32040 0.69870 0.95440 -0.04300
H 	H 	0.22590 0.70260 0.97870 -0.05000
C 	C 	0.31690 0.76870 0.01130 -0.20500
H 	H 	0.38100 0.77890 0.00550 0.06700
H 	H 	0.28440 0.81140 0.01470 0.08800
C 	C 	0.34620 0.35010 0.07880 -0.60200
H 	H 	0.29660 0.37720 0.09080 0.14500
H 	H 	0.32060 0.31520 0.05430 0.31600
H 	H 	0.38050 0.32960 0.11030 0.18700
C 	C 	0.44580 0.45220 0.08990 -0.08200
H 	H 	0.48070 0.43220 0.12140 0.02900
H 	H 	0.48480 0.48350 0.07250 -0.01000
H 	H 	0.39290 0.47590 0.10140 0.09100
C 	C 	0.49420 0.35470 0.03500 -0.01100
H 	H 	0.53050 0.34170 0.06850 -0.02200
H 	H 	0.47300 0.31480 0.01500 -0.14000
H 	H 	0.53190 0.38140 0.01290 0.28300
C 	C 	0.61640 0.92180 0.39830 -0.33800
H 	H 	0.61900 0.97050 0.39950 0.03200
H 	H 	0.67670 0.90410 0.39260 0.11100
H 	H 	0.57180 0.90760 0.36870 0.12100
C 	C 	0.48230 0.91160 0.45360 -0.69200
H 	H 	0.44620 0.88630 0.42540 0.23700
H 	H 	0.46390 0.89910 0.48900 -0.06300
H 	H 	0.47170 0.95930 0.44760 0.26600
C 	C 	0.59560 0.81810 0.45350 -0.22800
H 	H 	0.65930 0.80530 0.46340 -0.10700
H 	H 	0.55750 0.80070 0.48040 0.20700
H 	H 	0.57490 0.79960 0.41800 0.07400
Co	Co	0.49573 0.35928 0.77004 1.18400
Co	Co	0.25169 0.39181 0.72647 1.14200
O 	O 	0.43410 0.26721 0.75781 -0.45900
O 	O 	0.28210 0.29180 0.74375 -0.48400
O 	O 	0.52390 0.02260 0.77130 -0.35500
O 	O 	0.42970 0.94973 0.72445 -0.44700
O 	O 	0.12670 0.58340 0.92211 -0.33000
O 	O 	0.13590 0.56370 0.01160 -0.52800
H 	H 	0.10720 0.53080 0.02170 0.24700
O 	O 	0.28550 0.43090 0.80322 -0.45000
O 	O 	0.42420 0.38970 0.83622 -0.43300
O 	O 	0.39480 0.40651 0.70874 -1.05400
H 	H 	0.38690 0.39570 0.67580 0.37200
H 	H 	0.41390 0.44590 0.71320 0.43600
N 	N 	0.88610 0.86970 0.75000 -0.33000
N 	N 	0.58630 0.32860 0.70570 -0.26700
N 	N 	0.58680 0.18340 0.33760 -0.25300
C 	C 	0.34940 0.25140 0.74670 0.45100
C 	C 	0.32740 0.17760 0.73710 -0.31900
C 	C 	0.23610 0.15810 0.72140 0.34800
H 	H 	0.19020 0.19130 0.71570 -0.11500
C 	C 	0.21180 0.09020 0.71390 -0.60700
C 	C 	0.28250 0.04270 0.72060 0.35800
H 	H 	0.26800 0.99710 0.71460 -0.12900
C 	C 	0.37440 0.06070 0.73610 -0.30900
C 	C 	0.39740 0.12860 0.74520 0.21700
H 	H 	0.45850 0.14120 0.75650 -0.02600
C 	C 	0.44870 0.00750 0.74440 0.42400
C 	C 	0.11140 0.06620 0.70030 1.28600
C 	C 	0.10250 0.02880 0.64520 -1.81400
H 	H 	0.14270 0.98980 0.64770 0.55300
H 	H 	0.03920 0.01450 0.63650 0.56500
H 	H 	0.12010 0.05870 0.61690 0.55600
C 	C 	0.08510 0.01920 0.74580 -1.80900
H 	H 	0.09040 0.04330 0.78020 0.55500
H 	H 	0.02210 0.00390 0.73740 0.56300
H 	H 	0.12630 0.98080 0.74850 0.55300
C 	C 	0.04200 0.12760 0.69690 -1.71400
H 	H 	0.05850 0.15900 0.66940 0.53100
H 	H 	0.97980 0.11130 0.68730 0.53600
H 	H 	0.04520 0.15000 0.73200 0.52900
C 	C 	0.34830 0.41830 0.84100 0.41800
C 	C 	0.32770 0.43910 0.89830 -0.18700
C 	C 	0.25660 0.48530 0.90530 0.11700
H 	H 	0.22330 0.50500 0.87480 -0.00500
C 	C 	0.23560 0.50190 0.95800 -0.21700
C 	C 	0.28560 0.47230 0.00360 0.12300
H 	H 	0.27000 0.48300 0.03870 -0.02900
C 	C 	0.35790 0.42710 0.99800 -0.21400
C 	C 	0.37790 0.41190 0.94450 0.11100
H 	H 	0.42690 0.38250 0.93970 -0.00200
C 	C 	0.16140 0.55230 0.96460 0.40600
C 	C 	0.41210 0.39570 0.04850 0.45200
C 	C 	0.90640 0.87660 0.69840 0.30100
H 	H 	0.86040 0.89390 0.67280 -0.08800
C 	C 	0.99040 0.85980 0.68030 -0.62500
H 	H 	0.99890 0.86450 0.64320 0.22600
C 	C 	0.05890 0.83720 0.71470 0.64100
C 	C 	0.04040 0.82890 0.76930 -0.56400
H 	H 	0.08670 0.81300 0.79540 0.19600
C 	C 	0.95300 0.84420 0.78460 0.28500
H 	H 	0.94090 0.83610 0.82080 -0.11500
C 	C 	0.60100 0.26480 0.69320 0.16500
H 	H 	0.56920 0.23130 0.71070 -0.03700
C 	C 	0.66130 0.24490 0.65550 -0.34700
H 	H 	0.66880 0.19870 0.64930 0.13300
C 	C 	0.70930 0.28910 0.62750 0.31500
C 	C 	0.69430 0.35250 0.64060 -0.34100
H 	H 	0.72630 0.38650 0.62380 0.12400
C 	C 	0.63260 0.37170 0.67870 0.16400
H 	H 	0.62420 0.41780 0.68500 -0.04600
C 	C 	0.68520 0.22710 0.43430 0.28100
C 	C 	0.62570 0.27180 0.40200 -0.26900
H 	H 	0.61830 0.31670 0.41270 0.11700
C 	C 	0.57930 0.24720 0.35460 0.16400
H 	H 	0.54050 0.27650 0.33310 -0.02100
C 	C 	0.63980 0.14230 0.37070 0.18600
H 	H 	0.64500 0.09720 0.36020 -0.04900
C 	C 	0.68660 0.16250 0.41860 -0.34700
H 	H 	0.72010 0.13080 0.44080 0.15200
