data_crystal

_cell_length_a 32.22300
_cell_length_b 32.22300
_cell_length_c 20.82730
_cell_angle_alpha 90.00000
_cell_angle_beta  90.00000
_cell_angle_gamma 120.00000

_symmetry_space_group_name_	'P 1'
_symmetry_space_group_name_H-M	'P 1'

loop_
_symmetry_equiv_pos_as_xyz
  x,y,z

loop_
_atom_site_label
_atom_site_type_symbol
_atom_site_fract_x
_atom_site_fract_y
_atom_site_fract_z
_atom_site_charge
Ag	Ag	0.14932 0.04590 0.23113 0.53900
Ag	Ag	0.37039 0.04775 0.33030 0.53900
N 	N 	0.30390 0.05850 0.30940 -0.16600
N 	N 	0.22050 0.05740 0.26860 -0.17100
C 	C 	0.24590 0.04730 0.22830 0.02100
C 	C 	0.28760 0.04740 0.24930 0.01900
C 	C 	0.27890 0.07090 0.34940 0.05500
C 	C 	0.29550 0.08420 0.41420 -0.09300
H 	H 	0.32410 0.08530 0.42790 0.04900
C 	C 	0.27000 0.09520 0.45560 -0.01900
H 	H 	0.28030 0.10240 0.49900 0.03000
C 	C 	0.22840 0.09610 0.43580 -0.03800
H 	H 	0.21220 0.10570 0.46520 0.03700
C 	C 	0.21080 0.08290 0.37260 -0.08000
H 	H 	0.18250 0.08250 0.35910 0.03300
C 	C 	0.23700 0.07020 0.33030 0.03900
N 	N 	0.18900 0.03330 0.14560 -0.16600
N 	N 	0.24210 0.01260 0.05760 -0.17100
C 	C 	0.25650 0.02440 0.11720 0.02200
C 	C 	0.22920 0.03520 0.16320 0.02200
C 	C 	0.17370 0.02230 0.08290 0.05500
C 	C 	0.13200 0.02040 0.06420 -0.09300
H 	H 	0.11340 0.02640 0.09410 0.04700
C 	C 	0.11780 0.00970 0.00150 -0.01700
H 	H 	0.08890 0.00850 0.98840 0.03100
C 	C 	0.14330 0.00070 0.95750 -0.03100
H 	H 	0.13220 0.99370 0.91440 0.03600
C 	C 	0.18540 0.00140 0.97410 -0.08200
H 	H 	0.20290 0.99470 0.94320 0.03800
C 	C 	0.20160 0.01250 0.03860 0.04500
N 	N 	0.32230 0.01190 0.09790 -0.16900
N 	N 	0.35220 0.03200 0.22590 -0.17200
C 	C 	0.31460 0.03440 0.20480 0.02000
C 	C 	0.29960 0.02320 0.13900 0.02600
C 	C 	0.36160 0.01030 0.11820 0.05400
C 	C 	0.38660 0.99770 0.07540 -0.09000
H 	H 	0.37650 0.99020 0.03200 0.04500
C 	C 	0.42680 0.99620 0.09710 -0.02600
H 	H 	0.44440 0.98850 0.06780 0.03300
C 	C 	0.44140 0.00590 0.16060 -0.03200
H 	H 	0.46880 0.00460 0.17420 0.03600
C 	C 	0.41690 0.01730 0.20360 -0.08200
H 	H 	0.42690 0.02370 0.24720 0.03500
C 	C 	0.37640 0.01950 0.18300 0.04100
N 	N 	0.07150 0.97660 0.23690 -0.16600
N 	N 	0.97560 0.90440 0.23640 -0.17200
C 	C 	0.98770 0.95050 0.24000 0.01800
C 	C 	0.03660 0.98660 0.24070 0.02500
C 	C 	0.05940 0.93040 0.23320 0.05600
C 	C 	0.09560 0.91720 0.22670 -0.09200
H 	H 	0.12860 0.94110 0.22770 0.04900
C 	C 	0.08270 0.87070 0.21930 -0.01700
H 	H 	0.10690 0.86250 0.21280 0.03200
C 	C 	0.03520 0.83460 0.22100 -0.03600
H 	H 	0.02760 0.80210 0.21760 0.04100
C 	C 	0.99880 0.84480 0.22740 -0.08200
H 	H 	0.96630 0.81980 0.22830 0.03300
C 	C 	0.01080 0.89360 0.23260 0.04300
Ag	Ag	0.81599 0.37923 0.56446 0.54000
Ag	Ag	0.03706 0.38108 0.66363 0.54000
N 	N 	0.97057 0.39183 0.64273 -0.16500
N 	N 	0.88717 0.39073 0.60193 -0.17000
C 	C 	0.91257 0.38063 0.56163 0.02200
C 	C 	0.95427 0.38073 0.58263 0.02000
C 	C 	0.94557 0.40423 0.68273 0.05600
C 	C 	0.96217 0.41753 0.74753 -0.09200
H 	H 	0.99077 0.41863 0.76123 0.05000
C 	C 	0.93667 0.42853 0.78893 -0.01800
H 	H 	0.94697 0.43573 0.83233 0.03100
C 	C 	0.89507 0.42943 0.76913 -0.03700
H 	H 	0.87887 0.43903 0.79853 0.03800
C 	C 	0.87747 0.41623 0.70593 -0.07900
H 	H 	0.84917 0.41583 0.69243 0.03400
C 	C 	0.90367 0.40353 0.66363 0.04000
N 	N 	0.85567 0.36663 0.47893 -0.16600
N 	N 	0.90877 0.34593 0.39093 -0.17100
C 	C 	0.92317 0.35773 0.45053 0.02200
C 	C 	0.89587 0.36853 0.49653 0.02200
C 	C 	0.84037 0.35563 0.41623 0.05500
C 	C 	0.79867 0.35373 0.39753 -0.09400
H 	H 	0.78007 0.35973 0.42743 0.04700
C 	C 	0.78447 0.34303 0.33483 -0.01600
H 	H 	0.75557 0.34183 0.32173 0.03100
C 	C 	0.80997 0.33403 0.29083 -0.03100
H 	H 	0.79887 0.32703 0.24773 0.03700
C 	C 	0.85207 0.33473 0.30743 -0.08200
H 	H 	0.86957 0.32803 0.27653 0.03900
C 	C 	0.86827 0.34583 0.37193 0.04500
N 	N 	0.98897 0.34523 0.43123 -0.16900
N 	N 	0.01887 0.36533 0.55923 -0.17200
C 	C 	0.98127 0.36773 0.53813 0.02000
C 	C 	0.96627 0.35653 0.47233 0.02600
C 	C 	0.02827 0.34363 0.45153 0.05400
C 	C 	0.05327 0.33103 0.40873 -0.09000
H 	H 	0.04317 0.32353 0.36533 0.04500
C 	C 	0.09347 0.32953 0.43043 -0.02600
H 	H 	0.11107 0.32183 0.40113 0.03300
C 	C 	0.10807 0.33923 0.49393 -0.03100
H 	H 	0.13547 0.33793 0.50753 0.03600
C 	C 	0.08357 0.35063 0.53693 -0.08200
H 	H 	0.09357 0.35703 0.58053 0.03500
C 	C 	0.04307 0.35283 0.51633 0.04100
N 	N 	0.73817 0.30993 0.57023 -0.16600
N 	N 	0.64227 0.23773 0.56973 -0.17200
C 	C 	0.65437 0.28383 0.57333 0.01800
C 	C 	0.70327 0.31993 0.57403 0.02500
C 	C 	0.72607 0.26373 0.56653 0.05600
C 	C 	0.76227 0.25053 0.56003 -0.09300
H 	H 	0.79527 0.27443 0.56103 0.05000
C 	C 	0.74937 0.20403 0.55263 -0.01600
H 	H 	0.77357 0.19583 0.54613 0.03200
C 	C 	0.70187 0.16793 0.55433 -0.03600
H 	H 	0.69427 0.13543 0.55093 0.04100
C 	C 	0.66547 0.17813 0.56073 -0.08100
H 	H 	0.63297 0.15313 0.56163 0.03300
C 	C 	0.67747 0.22693 0.56593 0.04300
Ag	Ag	0.48265 0.71257 0.89780 0.54000
Ag	Ag	0.70372 0.71442 0.99697 0.54000
N 	N 	0.63723 0.72517 0.97607 -0.16500
N 	N 	0.55383 0.72407 0.93527 -0.17000
C 	C 	0.57923 0.71397 0.89497 0.02200
C 	C 	0.62093 0.71407 0.91597 0.02000
C 	C 	0.61223 0.73757 0.01607 0.05600
C 	C 	0.62883 0.75087 0.08087 -0.09200
H 	H 	0.65743 0.75197 0.09457 0.05000
C 	C 	0.60333 0.76187 0.12227 -0.01800
H 	H 	0.61363 0.76907 0.16567 0.03100
C 	C 	0.56173 0.76277 0.10247 -0.03800
H 	H 	0.54553 0.77237 0.13187 0.03800
C 	C 	0.54413 0.74957 0.03927 -0.07900
H 	H 	0.51583 0.74917 0.02577 0.03400
C 	C 	0.57033 0.73687 0.99697 0.04000
N 	N 	0.52233 0.69997 0.81227 -0.16600
N 	N 	0.57543 0.67927 0.72427 -0.17100
C 	C 	0.58983 0.69107 0.78387 0.02200
C 	C 	0.56253 0.70187 0.82987 0.02200
C 	C 	0.50703 0.68897 0.74957 0.05500
C 	C 	0.46533 0.68707 0.73087 -0.09400
H 	H 	0.44673 0.69307 0.76077 0.04700
C 	C 	0.45113 0.67637 0.66817 -0.01600
H 	H 	0.42223 0.67517 0.65507 0.03100
C 	C 	0.47663 0.66737 0.62417 -0.03100
H 	H 	0.46553 0.66037 0.58107 0.03700
C 	C 	0.51873 0.66807 0.64077 -0.08200
H 	H 	0.53623 0.66137 0.60987 0.03900
C 	C 	0.53493 0.67917 0.70527 0.04500
N 	N 	0.65563 0.67857 0.76457 -0.16900
N 	N 	0.68553 0.69867 0.89257 -0.17200
C 	C 	0.64793 0.70107 0.87147 0.02000
C 	C 	0.63293 0.68987 0.80567 0.02600
C 	C 	0.69493 0.67697 0.78487 0.05400
C 	C 	0.71993 0.66437 0.74207 -0.09000
H 	H 	0.70983 0.65687 0.69867 0.04500
C 	C 	0.76013 0.66287 0.76377 -0.02600
H 	H 	0.77773 0.65517 0.73447 0.03300
C 	C 	0.77473 0.67257 0.82727 -0.03100
H 	H 	0.80213 0.67127 0.84087 0.03600
C 	C 	0.75023 0.68397 0.87027 -0.08200
H 	H 	0.76023 0.69037 0.91387 0.03500
C 	C 	0.70973 0.68617 0.84967 0.04100
N 	N 	0.40483 0.64327 0.90357 -0.16600
N 	N 	0.30893 0.57107 0.90307 -0.17200
C 	C 	0.32103 0.61717 0.90667 0.01800
C 	C 	0.36993 0.65327 0.90737 0.02500
C 	C 	0.39273 0.59707 0.89987 0.05600
C 	C 	0.42893 0.58387 0.89337 -0.09300
H 	H 	0.46193 0.60777 0.89437 0.05000
C 	C 	0.41603 0.53737 0.88597 -0.01600
H 	H 	0.44023 0.52917 0.87947 0.03200
C 	C 	0.36853 0.50127 0.88767 -0.03600
H 	H 	0.36093 0.46877 0.88427 0.04100
C 	C 	0.33213 0.51147 0.89407 -0.08100
H 	H 	0.29963 0.48647 0.89497 0.03300
C 	C 	0.34413 0.56027 0.89927 0.04300
Ag	Ag	0.95410 0.10342 0.23113 0.54000
Ag	Ag	0.95225 0.32264 0.33030 0.54000
N 	N 	0.94150 0.24540 0.30940 -0.16500
N 	N 	0.94260 0.16310 0.26860 -0.17000
C 	C 	0.95270 0.19860 0.22830 0.02200
C 	C 	0.95260 0.24020 0.24930 0.02000
C 	C 	0.92910 0.20800 0.34940 0.05600
C 	C 	0.91580 0.21130 0.41420 -0.09200
H 	H 	0.91470 0.23880 0.42790 0.05000
C 	C 	0.90480 0.17480 0.45560 -0.01800
H 	H 	0.89760 0.17790 0.49900 0.03100
C 	C 	0.90390 0.13230 0.43580 -0.03800
H 	H 	0.89430 0.10650 0.46520 0.03800
C 	C 	0.91710 0.12790 0.37260 -0.07900
H 	H 	0.91750 0.10000 0.35910 0.03400
C 	C 	0.92980 0.16680 0.33030 0.04000
N 	N 	0.96670 0.15570 0.14560 -0.16600
N 	N 	0.98740 0.22950 0.05760 -0.17100
C 	C 	0.97560 0.23210 0.11720 0.02200
C 	C 	0.96480 0.19400 0.16320 0.02200
C 	C 	0.97770 0.15140 0.08290 0.05500
C 	C 	0.97960 0.11160 0.06420 -0.09200
H 	H 	0.97360 0.08700 0.09410 0.04700
C 	C 	0.99030 0.10810 0.00150 -0.01900
H 	H 	0.99150 0.08040 0.98840 0.03200
C 	C 	0.99930 0.14260 0.95750 -0.02900
H 	H 	0.00630 0.13850 0.91440 0.03600
C 	C 	0.99860 0.18400 0.97410 -0.08200
H 	H 	0.00530 0.20820 0.94320 0.03900
C 	C 	0.98750 0.18910 0.03860 0.04500
N 	N 	0.98810 0.31040 0.09790 -0.16900
N 	N 	0.96800 0.32020 0.22590 -0.17200
C 	C 	0.96560 0.28020 0.20480 0.02000
C 	C 	0.97680 0.27640 0.13900 0.02600
C 	C 	0.98970 0.35130 0.11820 0.05400
C 	C 	0.00230 0.38890 0.07540 -0.09000
H 	H 	0.00980 0.38630 0.03200 0.04500
C 	C 	0.00380 0.43060 0.09710 -0.02600
H 	H 	0.01150 0.45590 0.06780 0.03300
C 	C 	0.99410 0.43550 0.16060 -0.03200
H 	H 	0.99540 0.46420 0.17420 0.03600
C 	C 	0.98270 0.39960 0.20360 -0.08200
H 	H 	0.97630 0.40320 0.24720 0.03500
C 	C 	0.98050 0.35690 0.18300 0.04100
N 	N 	0.02340 0.09490 0.23690 -0.16600
N 	N 	0.09560 0.07120 0.23640 -0.17200
C 	C 	0.04950 0.03720 0.24000 0.01800
C 	C 	0.01340 0.05000 0.24070 0.02500
C 	C 	0.06960 0.12900 0.23320 0.05600
C 	C 	0.08280 0.17840 0.22670 -0.09300
H 	H 	0.05890 0.18750 0.22770 0.05000
C 	C 	0.12930 0.21200 0.21930 -0.01600
H 	H 	0.13750 0.24440 0.21280 0.03200
C 	C 	0.16540 0.20060 0.22100 -0.03600
H 	H 	0.19790 0.22550 0.21760 0.04100
C 	C 	0.15520 0.15400 0.22740 -0.08100
H 	H 	0.18020 0.14650 0.22830 0.03300
C 	C 	0.10640 0.11720 0.23260 0.04300
Ag	Ag	0.62077 0.43675 0.56446 0.54000
Ag	Ag	0.61892 0.65597 0.66363 0.54000
N 	N 	0.60817 0.57873 0.64273 -0.16500
N 	N 	0.60927 0.49643 0.60193 -0.17000
C 	C 	0.61937 0.53193 0.56163 0.02200
C 	C 	0.61927 0.57353 0.58263 0.02000
C 	C 	0.59577 0.54133 0.68273 0.05600
C 	C 	0.58247 0.54463 0.74753 -0.09200
H 	H 	0.58137 0.57213 0.76123 0.05000
C 	C 	0.57147 0.50813 0.78893 -0.01800
H 	H 	0.56427 0.51123 0.83233 0.03100
C 	C 	0.57057 0.46563 0.76913 -0.03700
H 	H 	0.56097 0.43983 0.79853 0.03800
C 	C 	0.58377 0.46123 0.70593 -0.07900
H 	H 	0.58417 0.43333 0.69243 0.03400
C 	C 	0.59647 0.50013 0.66363 0.04000
N 	N 	0.63337 0.48903 0.47893 -0.16600
N 	N 	0.65407 0.56283 0.39093 -0.17100
C 	C 	0.64227 0.56543 0.45053 0.02200
C 	C 	0.63147 0.52733 0.49653 0.02200
C 	C 	0.64437 0.48473 0.41623 0.05500
C 	C 	0.64627 0.44493 0.39753 -0.09400
H 	H 	0.64027 0.42033 0.42743 0.04700
C 	C 	0.65697 0.44143 0.33483 -0.01600
H 	H 	0.65817 0.41373 0.32173 0.03100
C 	C 	0.66597 0.47593 0.29083 -0.03100
H 	H 	0.67297 0.47183 0.24773 0.03700
C 	C 	0.66527 0.51733 0.30743 -0.08200
H 	H 	0.67197 0.54153 0.27653 0.03900
C 	C 	0.65417 0.52243 0.37193 0.04500
N 	N 	0.65477 0.64373 0.43123 -0.16900
N 	N 	0.63467 0.65353 0.55923 -0.17200
C 	C 	0.63227 0.61353 0.53813 0.02000
C 	C 	0.64347 0.60973 0.47233 0.02600
C 	C 	0.65637 0.68463 0.45153 0.05400
C 	C 	0.66897 0.72223 0.40873 -0.09000
H 	H 	0.67647 0.71963 0.36533 0.04500
C 	C 	0.67047 0.76393 0.43043 -0.02600
H 	H 	0.67817 0.78923 0.40113 0.03300
C 	C 	0.66077 0.76883 0.49393 -0.03100
H 	H 	0.66207 0.79753 0.50753 0.03600
C 	C 	0.64937 0.73293 0.53693 -0.08200
H 	H 	0.64297 0.73653 0.58053 0.03500
C 	C 	0.64717 0.69023 0.51633 0.04100
N 	N 	0.69007 0.42823 0.57023 -0.16600
N 	N 	0.76227 0.40453 0.56973 -0.17200
C 	C 	0.71617 0.37053 0.57333 0.01800
C 	C 	0.68007 0.38333 0.57403 0.02500
C 	C 	0.73627 0.46233 0.56653 0.05600
C 	C 	0.74947 0.51173 0.56003 -0.09300
H 	H 	0.72557 0.52083 0.56103 0.05000
C 	C 	0.79597 0.54533 0.55263 -0.01600
H 	H 	0.80417 0.57773 0.54613 0.03200
C 	C 	0.83207 0.53393 0.55433 -0.03600
H 	H 	0.86457 0.55883 0.55093 0.04100
C 	C 	0.82187 0.48733 0.56073 -0.08100
H 	H 	0.84687 0.47983 0.56163 0.03300
C 	C 	0.77307 0.45053 0.56593 0.04300
Ag	Ag	0.28743 0.77009 0.89780 0.54000
Ag	Ag	0.28558 0.98931 0.99697 0.54000
N 	N 	0.27483 0.91207 0.97607 -0.16500
N 	N 	0.27593 0.82977 0.93527 -0.17000
C 	C 	0.28603 0.86527 0.89497 0.02200
C 	C 	0.28593 0.90687 0.91597 0.02000
C 	C 	0.26243 0.87467 0.01607 0.05700
C 	C 	0.24913 0.87797 0.08087 -0.09200
H 	H 	0.24803 0.90547 0.09457 0.05000
C 	C 	0.23813 0.84147 0.12227 -0.01800
H 	H 	0.23093 0.84457 0.16567 0.03100
C 	C 	0.23723 0.79897 0.10247 -0.03800
H 	H 	0.22763 0.77317 0.13187 0.03800
C 	C 	0.25043 0.79457 0.03927 -0.07800
H 	H 	0.25083 0.76667 0.02577 0.03400
C 	C 	0.26313 0.83347 0.99697 0.03900
N 	N 	0.30003 0.82237 0.81227 -0.16600
N 	N 	0.32073 0.89617 0.72427 -0.17100
C 	C 	0.30893 0.89877 0.78387 0.02200
C 	C 	0.29813 0.86067 0.82987 0.02200
C 	C 	0.31103 0.81807 0.74957 0.05500
C 	C 	0.31293 0.77827 0.73087 -0.09400
H 	H 	0.30693 0.75367 0.76077 0.04700
C 	C 	0.32363 0.77477 0.66817 -0.01600
H 	H 	0.32483 0.74707 0.65507 0.03100
C 	C 	0.33263 0.80927 0.62417 -0.03100
H 	H 	0.33963 0.80517 0.58107 0.03700
C 	C 	0.33193 0.85067 0.64077 -0.08200
H 	H 	0.33863 0.87487 0.60987 0.03900
C 	C 	0.32083 0.85577 0.70527 0.04500
N 	N 	0.32143 0.97707 0.76457 -0.16900
N 	N 	0.30133 0.98687 0.89257 -0.17200
C 	C 	0.29893 0.94687 0.87147 0.02000
C 	C 	0.31013 0.94307 0.80567 0.02600
C 	C 	0.32303 0.01797 0.78487 0.05400
C 	C 	0.33563 0.05557 0.74207 -0.09000
H 	H 	0.34313 0.05297 0.69867 0.04500
C 	C 	0.33713 0.09727 0.76377 -0.02600
H 	H 	0.34483 0.12257 0.73447 0.03300
C 	C 	0.32743 0.10217 0.82727 -0.03100
H 	H 	0.32873 0.13087 0.84087 0.03600
C 	C 	0.31603 0.06627 0.87027 -0.08200
H 	H 	0.30963 0.06987 0.91387 0.03500
C 	C 	0.31383 0.02357 0.84967 0.04100
N 	N 	0.35673 0.76157 0.90357 -0.16600
N 	N 	0.42893 0.73787 0.90307 -0.17200
C 	C 	0.38283 0.70387 0.90667 0.01800
C 	C 	0.34673 0.71667 0.90737 0.02500
C 	C 	0.40293 0.79567 0.89987 0.05600
C 	C 	0.41613 0.84507 0.89337 -0.09300
H 	H 	0.39223 0.85417 0.89437 0.05000
C 	C 	0.46263 0.87867 0.88597 -0.01600
H 	H 	0.47083 0.91107 0.87947 0.03200
C 	C 	0.49873 0.86727 0.88767 -0.03600
H 	H 	0.53123 0.89217 0.88427 0.04100
C 	C 	0.48853 0.82067 0.89407 -0.08100
H 	H 	0.51353 0.81317 0.89497 0.03300
C 	C 	0.43973 0.78387 0.89927 0.04300
Ag	Ag	0.89658 0.85068 0.23113 0.54000
Ag	Ag	0.67736 0.62961 0.33030 0.54000
N 	N 	0.75460 0.69610 0.30940 -0.16500
N 	N 	0.83690 0.77950 0.26860 -0.17000
C 	C 	0.80140 0.75410 0.22830 0.02200
C 	C 	0.75980 0.71240 0.24930 0.02000
C 	C 	0.79200 0.72110 0.34940 0.05600
C 	C 	0.78870 0.70450 0.41420 -0.09200
H 	H 	0.76120 0.67590 0.42790 0.05000
C 	C 	0.82520 0.73000 0.45560 -0.01800
H 	H 	0.82210 0.71970 0.49900 0.03100
C 	C 	0.86770 0.77160 0.43580 -0.03800
H 	H 	0.89350 0.78780 0.46520 0.03800
C 	C 	0.87210 0.78920 0.37260 -0.07900
H 	H 	0.90000 0.81750 0.35910 0.03400
C 	C 	0.83320 0.76300 0.33030 0.04000
N 	N 	0.84430 0.81100 0.14560 -0.16600
N 	N 	0.77050 0.75790 0.05760 -0.17100
C 	C 	0.76790 0.74350 0.11720 0.02200
C 	C 	0.80600 0.77080 0.16320 0.02200
C 	C 	0.84860 0.82630 0.08290 0.05600
C 	C 	0.88840 0.86800 0.06420 -0.09400
H 	H 	0.91300 0.88660 0.09410 0.04700
C 	C 	0.89190 0.88220 0.00150 -0.01600
H 	H 	0.91960 0.91110 0.98840 0.03100
C 	C 	0.85740 0.85670 0.95750 -0.03100
H 	H 	0.86150 0.86780 0.91440 0.03700
C 	C 	0.81600 0.81460 0.97410 -0.08200
H 	H 	0.79180 0.79710 0.94320 0.03900
C 	C 	0.81090 0.79840 0.03860 0.04500
N 	N 	0.68960 0.67770 0.09790 -0.16900
N 	N 	0.67980 0.64780 0.22590 -0.17200
C 	C 	0.71980 0.68540 0.20480 0.02000
C 	C 	0.72360 0.70040 0.13900 0.02600
C 	C 	0.64870 0.63840 0.11820 0.05400
C 	C 	0.61110 0.61340 0.07540 -0.09000
H 	H 	0.61370 0.62350 0.03200 0.04500
C 	C 	0.56940 0.57320 0.09710 -0.02600
H 	H 	0.54410 0.55560 0.06780 0.03300
C 	C 	0.56450 0.55860 0.16060 -0.03100
H 	H 	0.53580 0.53120 0.17420 0.03600
C 	C 	0.60040 0.58310 0.20360 -0.08200
H 	H 	0.59680 0.57310 0.24720 0.03500
C 	C 	0.64310 0.62360 0.18300 0.04100
N 	N 	0.90510 0.92850 0.23690 -0.16600
N 	N 	0.92880 0.02440 0.23640 -0.17200
C 	C 	0.96280 0.01230 0.24000 0.01800
C 	C 	0.95000 0.96340 0.24070 0.02500
C 	C 	0.87100 0.94060 0.23320 0.05600
C 	C 	0.82160 0.90440 0.22670 -0.09200
H 	H 	0.81250 0.87140 0.22770 0.04900
C 	C 	0.78800 0.91730 0.21930 -0.01700
H 	H 	0.75560 0.89310 0.21280 0.03200
C 	C 	0.79940 0.96480 0.22100 -0.03600
H 	H 	0.77450 0.97240 0.21760 0.04100
C 	C 	0.84600 0.00120 0.22740 -0.08200
H 	H 	0.85350 0.03370 0.22830 0.03300
C 	C 	0.88280 0.98920 0.23260 0.04300
Ag	Ag	0.56325 0.18401 0.56446 0.54000
Ag	Ag	0.34403 0.96294 0.66363 0.54000
N 	N 	0.42127 0.02943 0.64273 -0.16500
N 	N 	0.50357 0.11283 0.60193 -0.17000
C 	C 	0.46807 0.08743 0.56163 0.02200
C 	C 	0.42647 0.04573 0.58263 0.02000
C 	C 	0.45867 0.05443 0.68273 0.05600
C 	C 	0.45537 0.03783 0.74753 -0.09200
H 	H 	0.42787 0.00923 0.76123 0.05000
C 	C 	0.49187 0.06333 0.78893 -0.01800
H 	H 	0.48877 0.05303 0.83233 0.03100
C 	C 	0.53437 0.10493 0.76913 -0.03700
H 	H 	0.56017 0.12113 0.79853 0.03800
C 	C 	0.53877 0.12253 0.70593 -0.07900
H 	H 	0.56667 0.15083 0.69243 0.03400
C 	C 	0.49987 0.09633 0.66363 0.04000
N 	N 	0.51097 0.14433 0.47893 -0.16600
N 	N 	0.43717 0.09123 0.39093 -0.17100
C 	C 	0.43457 0.07683 0.45053 0.02200
C 	C 	0.47267 0.10413 0.49653 0.02200
C 	C 	0.51527 0.15963 0.41623 0.05500
C 	C 	0.55507 0.20133 0.39753 -0.09400
H 	H 	0.57967 0.21993 0.42743 0.04700
C 	C 	0.55857 0.21553 0.33483 -0.01600
H 	H 	0.58627 0.24443 0.32173 0.03100
C 	C 	0.52407 0.19003 0.29083 -0.03100
H 	H 	0.52817 0.20113 0.24773 0.03700
C 	C 	0.48267 0.14793 0.30743 -0.08200
H 	H 	0.45847 0.13043 0.27653 0.03900
C 	C 	0.47757 0.13173 0.37193 0.04500
N 	N 	0.35627 0.01103 0.43123 -0.16900
N 	N 	0.34647 0.98113 0.55923 -0.17200
C 	C 	0.38647 0.01873 0.53813 0.02000
C 	C 	0.39027 0.03373 0.47233 0.02600
C 	C 	0.31537 0.97173 0.45153 0.05400
C 	C 	0.27777 0.94673 0.40873 -0.09000
H 	H 	0.28037 0.95683 0.36533 0.04500
C 	C 	0.23607 0.90653 0.43043 -0.02600
H 	H 	0.21077 0.88893 0.40113 0.03300
C 	C 	0.23117 0.89193 0.49393 -0.03100
H 	H 	0.20247 0.86453 0.50753 0.03600
C 	C 	0.26707 0.91643 0.53693 -0.08200
H 	H 	0.26347 0.90643 0.58053 0.03500
C 	C 	0.30977 0.95693 0.51633 0.04100
N 	N 	0.57177 0.26183 0.57023 -0.16600
N 	N 	0.59547 0.35773 0.56973 -0.17200
C 	C 	0.62947 0.34563 0.57333 0.01800
C 	C 	0.61667 0.29673 0.57403 0.02500
C 	C 	0.53767 0.27393 0.56653 0.05600
C 	C 	0.48827 0.23773 0.56003 -0.09300
H 	H 	0.47917 0.20473 0.56103 0.05000
C 	C 	0.45467 0.25063 0.55263 -0.01600
H 	H 	0.42227 0.22643 0.54613 0.03200
C 	C 	0.46607 0.29813 0.55433 -0.03600
H 	H 	0.44117 0.30573 0.55093 0.04100
C 	C 	0.51267 0.33453 0.56073 -0.08100
H 	H 	0.52017 0.36703 0.56163 0.03300
C 	C 	0.54947 0.32253 0.56593 0.04300
Ag	Ag	0.22991 0.51735 0.89780 0.54000
Ag	Ag	0.01069 0.29628 0.99697 0.54000
N 	N 	0.08793 0.36277 0.97607 -0.16500
N 	N 	0.17023 0.44617 0.93527 -0.17000
C 	C 	0.13473 0.42077 0.89497 0.02200
C 	C 	0.09313 0.37907 0.91597 0.02000
C 	C 	0.12533 0.38777 0.01607 0.05600
C 	C 	0.12203 0.37117 0.08087 -0.09200
H 	H 	0.09453 0.34257 0.09457 0.05000
C 	C 	0.15853 0.39667 0.12227 -0.01800
H 	H 	0.15543 0.38637 0.16567 0.03100
C 	C 	0.20103 0.43827 0.10247 -0.03800
H 	H 	0.22683 0.45447 0.13187 0.03800
C 	C 	0.20543 0.45587 0.03927 -0.07900
H 	H 	0.23333 0.48417 0.02577 0.03400
C 	C 	0.16653 0.42967 0.99697 0.04000
N 	N 	0.17763 0.47767 0.81227 -0.16600
N 	N 	0.10383 0.42457 0.72427 -0.17100
C 	C 	0.10123 0.41017 0.78387 0.02200
C 	C 	0.13933 0.43747 0.82987 0.02200
C 	C 	0.18193 0.49297 0.74957 0.05500
C 	C 	0.22173 0.53467 0.73087 -0.09400
H 	H 	0.24633 0.55327 0.76077 0.04700
C 	C 	0.22523 0.54887 0.66817 -0.01600
H 	H 	0.25293 0.57777 0.65507 0.03100
C 	C 	0.19073 0.52337 0.62417 -0.03100
H 	H 	0.19483 0.53447 0.58107 0.03700
C 	C 	0.14933 0.48127 0.64077 -0.08200
H 	H 	0.12513 0.46377 0.60987 0.03900
C 	C 	0.14423 0.46507 0.70527 0.04500
N 	N 	0.02293 0.34437 0.76457 -0.16900
N 	N 	0.01313 0.31447 0.89257 -0.17200
C 	C 	0.05313 0.35207 0.87147 0.02000
C 	C 	0.05693 0.36707 0.80567 0.02600
C 	C 	0.98203 0.30507 0.78487 0.05400
C 	C 	0.94443 0.28007 0.74207 -0.09000
H 	H 	0.94703 0.29017 0.69867 0.04500
C 	C 	0.90273 0.23987 0.76377 -0.02600
H 	H 	0.87743 0.22227 0.73447 0.03300
C 	C 	0.89783 0.22527 0.82727 -0.03100
H 	H 	0.86913 0.19787 0.84087 0.03600
C 	C 	0.93373 0.24977 0.87027 -0.08200
H 	H 	0.93013 0.23977 0.91387 0.03500
C 	C 	0.97643 0.29027 0.84967 0.04100
N 	N 	0.23843 0.59517 0.90357 -0.16600
N 	N 	0.26213 0.69107 0.90307 -0.17200
C 	C 	0.29613 0.67897 0.90667 0.01800
C 	C 	0.28333 0.63007 0.90737 0.02500
C 	C 	0.20433 0.60727 0.89987 0.05600
C 	C 	0.15493 0.57107 0.89337 -0.09300
H 	H 	0.14583 0.53807 0.89437 0.05000
C 	C 	0.12133 0.58397 0.88597 -0.01600
H 	H 	0.08893 0.55977 0.87947 0.03200
C 	C 	0.13273 0.63147 0.88767 -0.03600
H 	H 	0.10783 0.63907 0.88427 0.04100
C 	C 	0.17933 0.66787 0.89407 -0.08100
H 	H 	0.18683 0.70037 0.89497 0.03300
C 	C 	0.21613 0.65587 0.89927 0.04300
Ag	Ag	0.85068 0.95410 0.76887 0.54000
Ag	Ag	0.62961 0.95225 0.66970 0.54000
N 	N 	0.69610 0.94150 0.69060 -0.16500
N 	N 	0.77950 0.94260 0.73140 -0.17000
C 	C 	0.75410 0.95270 0.77170 0.02200
C 	C 	0.71240 0.95260 0.75070 0.02000
C 	C 	0.72110 0.92910 0.65060 0.05600
C 	C 	0.70450 0.91580 0.58580 -0.09200
H 	H 	0.67590 0.91470 0.57210 0.05000
C 	C 	0.73000 0.90480 0.54440 -0.01800
H 	H 	0.71970 0.89760 0.50100 0.03100
C 	C 	0.77160 0.90390 0.56420 -0.03700
H 	H 	0.78780 0.89430 0.53480 0.03800
C 	C 	0.78920 0.91710 0.62740 -0.07900
H 	H 	0.81750 0.91750 0.64090 0.03400
C 	C 	0.76300 0.92980 0.66970 0.04000
N 	N 	0.81100 0.96670 0.85440 -0.16600
N 	N 	0.75790 0.98740 0.94240 -0.17100
C 	C 	0.74350 0.97560 0.88280 0.02200
C 	C 	0.77080 0.96480 0.83680 0.02200
C 	C 	0.82630 0.97770 0.91710 0.05500
C 	C 	0.86800 0.97960 0.93580 -0.09300
H 	H 	0.88660 0.97360 0.90590 0.04700
C 	C 	0.88220 0.99030 0.99850 -0.01700
H 	H 	0.91110 0.99150 0.01160 0.03100
C 	C 	0.85670 0.99930 0.04250 -0.03100
H 	H 	0.86780 0.00630 0.08560 0.03600
C 	C 	0.81460 0.99860 0.02590 -0.08200
H 	H 	0.79710 0.00530 0.05680 0.03800
C 	C 	0.79840 0.98750 0.96140 0.04500
N 	N 	0.67770 0.98810 0.90210 -0.16900
N 	N 	0.64780 0.96800 0.77410 -0.17200
C 	C 	0.68540 0.96560 0.79520 0.02000
C 	C 	0.70040 0.97680 0.86100 0.02600
C 	C 	0.63840 0.98970 0.88180 0.05400
C 	C 	0.61340 0.00230 0.92460 -0.09000
H 	H 	0.62350 0.00980 0.96800 0.04500
C 	C 	0.57320 0.00380 0.90290 -0.02600
H 	H 	0.55560 0.01150 0.93220 0.03300
C 	C 	0.55860 0.99410 0.83940 -0.03200
H 	H 	0.53120 0.99540 0.82580 0.03600
C 	C 	0.58310 0.98270 0.79640 -0.08200
H 	H 	0.57310 0.97630 0.75280 0.03500
C 	C 	0.62360 0.98050 0.81700 0.04100
N 	N 	0.92850 0.02340 0.76310 -0.16600
N 	N 	0.02440 0.09560 0.76360 -0.17200
C 	C 	0.01230 0.04950 0.76000 0.01800
C 	C 	0.96340 0.01340 0.75930 0.02500
C 	C 	0.94060 0.06960 0.76680 0.05600
C 	C 	0.90440 0.08280 0.77330 -0.09200
H 	H 	0.87140 0.05890 0.77230 0.04900
C 	C 	0.91730 0.12930 0.78070 -0.01700
H 	H 	0.89310 0.13750 0.78720 0.03200
C 	C 	0.96480 0.16540 0.77900 -0.03600
H 	H 	0.97240 0.19790 0.78240 0.04100
C 	C 	0.00120 0.15520 0.77260 -0.08200
H 	H 	0.03370 0.18020 0.77170 0.03300
C 	C 	0.98920 0.10640 0.76740 0.04300
Ag	Ag	0.51735 0.28743 0.10220 0.54000
Ag	Ag	0.29628 0.28558 0.00303 0.54000
N 	N 	0.36277 0.27483 0.02393 -0.16500
N 	N 	0.44617 0.27593 0.06473 -0.17000
C 	C 	0.42077 0.28603 0.10503 0.02200
C 	C 	0.37907 0.28593 0.08403 0.02000
C 	C 	0.38777 0.26243 0.98393 0.05600
C 	C 	0.37117 0.24913 0.91913 -0.09200
H 	H 	0.34257 0.24803 0.90543 0.05000
C 	C 	0.39667 0.23813 0.87773 -0.01800
H 	H 	0.38637 0.23093 0.83433 0.03100
C 	C 	0.43827 0.23723 0.89753 -0.03800
H 	H 	0.45447 0.22763 0.86813 0.03800
C 	C 	0.45587 0.25043 0.96073 -0.07900
H 	H 	0.48417 0.25083 0.97423 0.03400
C 	C 	0.42967 0.26313 0.00303 0.04000
N 	N 	0.47767 0.30003 0.18773 -0.16600
N 	N 	0.42457 0.32073 0.27573 -0.17100
C 	C 	0.41017 0.30893 0.21613 0.02200
C 	C 	0.43747 0.29813 0.17013 0.02200
C 	C 	0.49297 0.31103 0.25043 0.05500
C 	C 	0.53467 0.31293 0.26913 -0.09400
H 	H 	0.55327 0.30693 0.23923 0.04700
C 	C 	0.54887 0.32363 0.33183 -0.01600
H 	H 	0.57777 0.32483 0.34493 0.03100
C 	C 	0.52337 0.33263 0.37583 -0.03100
H 	H 	0.53447 0.33963 0.41893 0.03700
C 	C 	0.48127 0.33193 0.35923 -0.08200
H 	H 	0.46377 0.33863 0.39013 0.03900
C 	C 	0.46507 0.32083 0.29473 0.04500
N 	N 	0.34437 0.32143 0.23543 -0.16900
N 	N 	0.31447 0.30133 0.10743 -0.17200
C 	C 	0.35207 0.29893 0.12853 0.02000
C 	C 	0.36707 0.31013 0.19433 0.02600
C 	C 	0.30507 0.32303 0.21513 0.05400
C 	C 	0.28007 0.33563 0.25793 -0.09000
H 	H 	0.29017 0.34313 0.30133 0.04500
C 	C 	0.23987 0.33713 0.23623 -0.02600
H 	H 	0.22227 0.34483 0.26553 0.03300
C 	C 	0.22527 0.32743 0.17273 -0.03100
H 	H 	0.19787 0.32873 0.15913 0.03600
C 	C 	0.24977 0.31603 0.12973 -0.08200
H 	H 	0.23977 0.30963 0.08613 0.03500
C 	C 	0.29027 0.31383 0.15033 0.04100
N 	N 	0.59517 0.35673 0.09643 -0.16600
N 	N 	0.69107 0.42893 0.09693 -0.17200
C 	C 	0.67897 0.38283 0.09333 0.01800
C 	C 	0.63007 0.34673 0.09263 0.02500
C 	C 	0.60727 0.40293 0.10013 0.05600
C 	C 	0.57107 0.41613 0.10663 -0.09300
H 	H 	0.53807 0.39223 0.10563 0.05000
C 	C 	0.58397 0.46263 0.11403 -0.01600
H 	H 	0.55977 0.47083 0.12053 0.03200
C 	C 	0.63147 0.49873 0.11233 -0.03600
H 	H 	0.63907 0.53123 0.11573 0.04100
C 	C 	0.66787 0.48853 0.10593 -0.08100
H 	H 	0.70037 0.51353 0.10503 0.03300
C 	C 	0.65587 0.43973 0.10073 0.04300
Ag	Ag	0.18401 0.62077 0.43554 0.54000
Ag	Ag	0.96294 0.61892 0.33637 0.54000
N 	N 	0.02943 0.60817 0.35727 -0.16500
N 	N 	0.11283 0.60927 0.39807 -0.17000
C 	C 	0.08743 0.61937 0.43837 0.02200
C 	C 	0.04573 0.61927 0.41737 0.02000
C 	C 	0.05443 0.59577 0.31727 0.05600
C 	C 	0.03783 0.58247 0.25247 -0.09200
H 	H 	0.00923 0.58137 0.23877 0.05000
C 	C 	0.06333 0.57147 0.21107 -0.01800
H 	H 	0.05303 0.56427 0.16767 0.03100
C 	C 	0.10493 0.57057 0.23087 -0.03700
H 	H 	0.12113 0.56097 0.20147 0.03800
C 	C 	0.12253 0.58377 0.29407 -0.07900
H 	H 	0.15083 0.58417 0.30757 0.03400
C 	C 	0.09633 0.59647 0.33637 0.04000
N 	N 	0.14433 0.63337 0.52107 -0.16600
N 	N 	0.09123 0.65407 0.60907 -0.17100
C 	C 	0.07683 0.64227 0.54947 0.02200
C 	C 	0.10413 0.63147 0.50347 0.02200
C 	C 	0.15963 0.64437 0.58377 0.05500
C 	C 	0.20133 0.64627 0.60247 -0.09400
H 	H 	0.21993 0.64027 0.57257 0.04700
C 	C 	0.21553 0.65697 0.66517 -0.01600
H 	H 	0.24443 0.65817 0.67827 0.03100
C 	C 	0.19003 0.66597 0.70917 -0.03100
H 	H 	0.20113 0.67297 0.75227 0.03700
C 	C 	0.14793 0.66527 0.69257 -0.08200
H 	H 	0.13043 0.67197 0.72347 0.03900
C 	C 	0.13173 0.65417 0.62807 0.04500
N 	N 	0.01103 0.65477 0.56877 -0.16900
N 	N 	0.98113 0.63467 0.44077 -0.17200
C 	C 	0.01873 0.63227 0.46187 0.02000
C 	C 	0.03373 0.64347 0.52767 0.02600
C 	C 	0.97173 0.65637 0.54847 0.05400
C 	C 	0.94673 0.66897 0.59127 -0.09000
H 	H 	0.95683 0.67647 0.63467 0.04500
C 	C 	0.90653 0.67047 0.56957 -0.02600
H 	H 	0.88893 0.67817 0.59887 0.03300
C 	C 	0.89193 0.66077 0.50607 -0.03100
H 	H 	0.86453 0.66207 0.49247 0.03600
C 	C 	0.91643 0.64937 0.46307 -0.08200
H 	H 	0.90643 0.64297 0.41947 0.03500
C 	C 	0.95693 0.64717 0.48367 0.04100
N 	N 	0.26183 0.69007 0.42977 -0.16600
N 	N 	0.35773 0.76227 0.43027 -0.17200
C 	C 	0.34563 0.71617 0.42667 0.01800
C 	C 	0.29673 0.68007 0.42597 0.02500
C 	C 	0.27393 0.73627 0.43347 0.05600
C 	C 	0.23773 0.74947 0.43997 -0.09300
H 	H 	0.20473 0.72557 0.43897 0.05000
C 	C 	0.25063 0.79597 0.44737 -0.01600
H 	H 	0.22643 0.80417 0.45387 0.03200
C 	C 	0.29813 0.83207 0.44567 -0.03600
H 	H 	0.30573 0.86457 0.44907 0.04100
C 	C 	0.33453 0.82187 0.43927 -0.08100
H 	H 	0.36703 0.84687 0.43837 0.03300
C 	C 	0.32253 0.77307 0.43407 0.04300
Ag	Ag	0.04590 0.89658 0.76887 0.54000
Ag	Ag	0.04775 0.67736 0.66970 0.54000
N 	N 	0.05850 0.75460 0.69060 -0.16500
N 	N 	0.05740 0.83690 0.73140 -0.17000
C 	C 	0.04730 0.80140 0.77170 0.02200
C 	C 	0.04740 0.75980 0.75070 0.02000
C 	C 	0.07090 0.79200 0.65060 0.05600
C 	C 	0.08420 0.78870 0.58580 -0.09200
H 	H 	0.08530 0.76120 0.57210 0.05000
C 	C 	0.09520 0.82520 0.54440 -0.01800
H 	H 	0.10240 0.82210 0.50100 0.03100
C 	C 	0.09610 0.86770 0.56420 -0.03800
H 	H 	0.10570 0.89350 0.53480 0.03800
C 	C 	0.08290 0.87210 0.62740 -0.07900
H 	H 	0.08250 0.90000 0.64090 0.03400
C 	C 	0.07020 0.83320 0.66970 0.04000
N 	N 	0.03330 0.84430 0.85440 -0.16600
N 	N 	0.01260 0.77050 0.94240 -0.17100
C 	C 	0.02440 0.76790 0.88280 0.02200
C 	C 	0.03520 0.80600 0.83680 0.02200
C 	C 	0.02230 0.84860 0.91710 0.05500
C 	C 	0.02040 0.88840 0.93580 -0.09200
H 	H 	0.02640 0.91300 0.90590 0.04700
C 	C 	0.00970 0.89190 0.99850 -0.01900
H 	H 	0.00850 0.91960 0.01160 0.03200
C 	C 	0.00070 0.85740 0.04250 -0.02900
H 	H 	0.99370 0.86150 0.08560 0.03600
C 	C 	0.00140 0.81600 0.02590 -0.08200
H 	H 	0.99470 0.79180 0.05680 0.03900
C 	C 	0.01250 0.81090 0.96140 0.04500
N 	N 	0.01190 0.68960 0.90210 -0.16900
N 	N 	0.03200 0.67980 0.77410 -0.17200
C 	C 	0.03440 0.71980 0.79520 0.02000
C 	C 	0.02320 0.72360 0.86100 0.02600
C 	C 	0.01030 0.64870 0.88180 0.05400
C 	C 	0.99770 0.61110 0.92460 -0.09000
H 	H 	0.99020 0.61370 0.96800 0.04500
C 	C 	0.99620 0.56940 0.90290 -0.02600
H 	H 	0.98850 0.54410 0.93220 0.03300
C 	C 	0.00590 0.56450 0.83940 -0.03200
H 	H 	0.00460 0.53580 0.82580 0.03600
C 	C 	0.01730 0.60040 0.79640 -0.08200
H 	H 	0.02370 0.59680 0.75280 0.03500
C 	C 	0.01950 0.64310 0.81700 0.04100
N 	N 	0.97660 0.90510 0.76310 -0.16600
N 	N 	0.90440 0.92880 0.76360 -0.17200
C 	C 	0.95050 0.96280 0.76000 0.01800
C 	C 	0.98660 0.95000 0.75930 0.02500
C 	C 	0.93040 0.87100 0.76680 0.05600
C 	C 	0.91720 0.82160 0.77330 -0.09300
H 	H 	0.94110 0.81250 0.77230 0.05000
C 	C 	0.87070 0.78800 0.78070 -0.01600
H 	H 	0.86250 0.75560 0.78720 0.03200
C 	C 	0.83460 0.79940 0.77900 -0.03600
H 	H 	0.80210 0.77450 0.78240 0.04100
C 	C 	0.84480 0.84600 0.77260 -0.08100
H 	H 	0.81980 0.85350 0.77170 0.03300
C 	C 	0.89360 0.88280 0.76740 0.04300
Ag	Ag	0.71257 0.22991 0.10220 0.54000
Ag	Ag	0.71442 0.01069 0.00303 0.54000
N 	N 	0.72517 0.08793 0.02393 -0.16500
N 	N 	0.72407 0.17023 0.06473 -0.17000
C 	C 	0.71397 0.13473 0.10503 0.02200
C 	C 	0.71407 0.09313 0.08403 0.02000
C 	C 	0.73757 0.12533 0.98393 0.05700
C 	C 	0.75087 0.12203 0.91913 -0.09200
H 	H 	0.75197 0.09453 0.90543 0.05000
C 	C 	0.76187 0.15853 0.87773 -0.01800
H 	H 	0.76907 0.15543 0.83433 0.03100
C 	C 	0.76277 0.20103 0.89753 -0.03800
H 	H 	0.77237 0.22683 0.86813 0.03800
C 	C 	0.74957 0.20543 0.96073 -0.07800
H 	H 	0.74917 0.23333 0.97423 0.03400
C 	C 	0.73687 0.16653 0.00303 0.03900
N 	N 	0.69997 0.17763 0.18773 -0.16600
N 	N 	0.67927 0.10383 0.27573 -0.17100
C 	C 	0.69107 0.10123 0.21613 0.02200
C 	C 	0.70187 0.13933 0.17013 0.02200
C 	C 	0.68897 0.18193 0.25043 0.05500
C 	C 	0.68707 0.22173 0.26913 -0.09400
H 	H 	0.69307 0.24633 0.23923 0.04700
C 	C 	0.67637 0.22523 0.33183 -0.01600
H 	H 	0.67517 0.25293 0.34493 0.03100
C 	C 	0.66737 0.19073 0.37583 -0.03100
H 	H 	0.66037 0.19483 0.41893 0.03700
C 	C 	0.66807 0.14933 0.35923 -0.08200
H 	H 	0.66137 0.12513 0.39013 0.03900
C 	C 	0.67917 0.14423 0.29473 0.04500
N 	N 	0.67857 0.02293 0.23543 -0.16900
N 	N 	0.69867 0.01313 0.10743 -0.17200
C 	C 	0.70107 0.05313 0.12853 0.02000
C 	C 	0.68987 0.05693 0.19433 0.02600
C 	C 	0.67697 0.98203 0.21513 0.05400
C 	C 	0.66437 0.94443 0.25793 -0.09000
H 	H 	0.65687 0.94703 0.30133 0.04500
C 	C 	0.66287 0.90273 0.23623 -0.02600
H 	H 	0.65517 0.87743 0.26553 0.03300
C 	C 	0.67257 0.89783 0.17273 -0.03100
H 	H 	0.67127 0.86913 0.15913 0.03600
C 	C 	0.68397 0.93373 0.12973 -0.08200
H 	H 	0.69037 0.93013 0.08613 0.03500
C 	C 	0.68617 0.97643 0.15033 0.04100
N 	N 	0.64327 0.23843 0.09643 -0.16600
N 	N 	0.57107 0.26213 0.09693 -0.17200
C 	C 	0.61717 0.29613 0.09333 0.01800
C 	C 	0.65327 0.28333 0.09263 0.02500
C 	C 	0.59707 0.20433 0.10013 0.05600
C 	C 	0.58387 0.15493 0.10663 -0.09300
H 	H 	0.60777 0.14583 0.10563 0.05000
C 	C 	0.53737 0.12133 0.11403 -0.01600
H 	H 	0.52917 0.08893 0.12053 0.03200
C 	C 	0.50127 0.13273 0.11233 -0.03600
H 	H 	0.46877 0.10783 0.11573 0.04100
C 	C 	0.51147 0.17933 0.10593 -0.08100
H 	H 	0.48647 0.18683 0.10503 0.03300
C 	C 	0.56027 0.21613 0.10073 0.04300
Ag	Ag	0.37923 0.56325 0.43554 0.54000
Ag	Ag	0.38108 0.34403 0.33637 0.54000
N 	N 	0.39183 0.42127 0.35727 -0.16500
N 	N 	0.39073 0.50357 0.39807 -0.17000
C 	C 	0.38063 0.46807 0.43837 0.02200
C 	C 	0.38073 0.42647 0.41737 0.02000
C 	C 	0.40423 0.45867 0.31727 0.05600
C 	C 	0.41753 0.45537 0.25247 -0.09200
H 	H 	0.41863 0.42787 0.23877 0.05000
C 	C 	0.42853 0.49187 0.21107 -0.01800
H 	H 	0.43573 0.48877 0.16767 0.03100
C 	C 	0.42943 0.53437 0.23087 -0.03700
H 	H 	0.43903 0.56017 0.20147 0.03800
C 	C 	0.41623 0.53877 0.29407 -0.07900
H 	H 	0.41583 0.56667 0.30757 0.03400
C 	C 	0.40353 0.49987 0.33637 0.04000
N 	N 	0.36663 0.51097 0.52107 -0.16600
N 	N 	0.34593 0.43717 0.60907 -0.17100
C 	C 	0.35773 0.43457 0.54947 0.02200
C 	C 	0.36853 0.47267 0.50347 0.02200
C 	C 	0.35563 0.51527 0.58377 0.05500
C 	C 	0.35373 0.55507 0.60247 -0.09400
H 	H 	0.35973 0.57967 0.57257 0.04700
C 	C 	0.34303 0.55857 0.66517 -0.01600
H 	H 	0.34183 0.58627 0.67827 0.03100
C 	C 	0.33403 0.52407 0.70917 -0.03100
H 	H 	0.32703 0.52817 0.75227 0.03700
C 	C 	0.33473 0.48267 0.69257 -0.08200
H 	H 	0.32803 0.45847 0.72347 0.03900
C 	C 	0.34583 0.47757 0.62807 0.04500
N 	N 	0.34523 0.35627 0.56877 -0.16900
N 	N 	0.36533 0.34647 0.44077 -0.17200
C 	C 	0.36773 0.38647 0.46187 0.02000
C 	C 	0.35653 0.39027 0.52767 0.02600
C 	C 	0.34363 0.31537 0.54847 0.05400
C 	C 	0.33103 0.27777 0.59127 -0.09000
H 	H 	0.32353 0.28037 0.63467 0.04500
C 	C 	0.32953 0.23607 0.56957 -0.02600
H 	H 	0.32183 0.21077 0.59887 0.03300
C 	C 	0.33923 0.23117 0.50607 -0.03100
H 	H 	0.33793 0.20247 0.49247 0.03600
C 	C 	0.35063 0.26707 0.46307 -0.08200
H 	H 	0.35703 0.26347 0.41947 0.03500
C 	C 	0.35283 0.30977 0.48367 0.04100
N 	N 	0.30993 0.57177 0.42977 -0.16600
N 	N 	0.23773 0.59547 0.43027 -0.17200
C 	C 	0.28383 0.62947 0.42667 0.01800
C 	C 	0.31993 0.61667 0.42597 0.02500
C 	C 	0.26373 0.53767 0.43347 0.05600
C 	C 	0.25053 0.48827 0.43997 -0.09300
H 	H 	0.27443 0.47917 0.43897 0.05000
C 	C 	0.20403 0.45467 0.44737 -0.01600
H 	H 	0.19583 0.42227 0.45387 0.03200
C 	C 	0.16793 0.46607 0.44567 -0.03600
H 	H 	0.13543 0.44117 0.44907 0.04100
C 	C 	0.17813 0.51267 0.43927 -0.08100
H 	H 	0.15313 0.52017 0.43837 0.03300
C 	C 	0.22693 0.54947 0.43407 0.04300
Ag	Ag	0.10342 0.14932 0.76887 0.54000
Ag	Ag	0.32264 0.37039 0.66970 0.54000
N 	N 	0.24540 0.30390 0.69060 -0.16500
N 	N 	0.16310 0.22050 0.73140 -0.17000
C 	C 	0.19860 0.24590 0.77170 0.02200
C 	C 	0.24020 0.28760 0.75070 0.02000
C 	C 	0.20800 0.27890 0.65060 0.05600
C 	C 	0.21130 0.29550 0.58580 -0.09200
H 	H 	0.23880 0.32410 0.57210 0.05000
C 	C 	0.17480 0.27000 0.54440 -0.01800
H 	H 	0.17790 0.28030 0.50100 0.03100
C 	C 	0.13230 0.22840 0.56420 -0.03800
H 	H 	0.10650 0.21220 0.53480 0.03800
C 	C 	0.12790 0.21080 0.62740 -0.07900
H 	H 	0.10000 0.18250 0.64090 0.03400
C 	C 	0.16680 0.23700 0.66970 0.04000
N 	N 	0.15570 0.18900 0.85440 -0.16600
N 	N 	0.22950 0.24210 0.94240 -0.17100
C 	C 	0.23210 0.25650 0.88280 0.02200
C 	C 	0.19400 0.22920 0.83680 0.02200
C 	C 	0.15140 0.17370 0.91710 0.05600
C 	C 	0.11160 0.13200 0.93580 -0.09400
H 	H 	0.08700 0.11340 0.90590 0.04700
C 	C 	0.10810 0.11780 0.99850 -0.01600
H 	H 	0.08040 0.08890 0.01160 0.03100
C 	C 	0.14260 0.14330 0.04250 -0.03100
H 	H 	0.13850 0.13220 0.08560 0.03700
C 	C 	0.18400 0.18540 0.02590 -0.08200
H 	H 	0.20820 0.20290 0.05680 0.03900
C 	C 	0.18910 0.20160 0.96140 0.04500
N 	N 	0.31040 0.32230 0.90210 -0.16900
N 	N 	0.32020 0.35220 0.77410 -0.17200
C 	C 	0.28020 0.31460 0.79520 0.02000
C 	C 	0.27640 0.29960 0.86100 0.02600
C 	C 	0.35130 0.36160 0.88180 0.05400
C 	C 	0.38890 0.38660 0.92460 -0.09000
H 	H 	0.38630 0.37650 0.96800 0.04500
C 	C 	0.43060 0.42680 0.90290 -0.02600
H 	H 	0.45590 0.44440 0.93220 0.03300
C 	C 	0.43550 0.44140 0.83940 -0.03100
H 	H 	0.46420 0.46880 0.82580 0.03600
C 	C 	0.39960 0.41690 0.79640 -0.08200
H 	H 	0.40320 0.42690 0.75280 0.03500
C 	C 	0.35690 0.37640 0.81700 0.04100
N 	N 	0.09490 0.07150 0.76310 -0.16600
N 	N 	0.07120 0.97560 0.76360 -0.17200
C 	C 	0.03720 0.98770 0.76000 0.01800
C 	C 	0.05000 0.03660 0.75930 0.02500
C 	C 	0.12900 0.05940 0.76680 0.05600
C 	C 	0.17840 0.09560 0.77330 -0.09200
H 	H 	0.18750 0.12860 0.77230 0.04900
C 	C 	0.21200 0.08270 0.78070 -0.01700
H 	H 	0.24440 0.10690 0.78720 0.03200
C 	C 	0.20060 0.03520 0.77900 -0.03600
H 	H 	0.22550 0.02760 0.78240 0.04100
C 	C 	0.15400 0.99880 0.77260 -0.08200
H 	H 	0.14650 0.96630 0.77170 0.03300
C 	C 	0.11720 0.01080 0.76740 0.04300
Ag	Ag	0.77009 0.48265 0.10220 0.54000
Ag	Ag	0.98931 0.70372 0.00303 0.54000
N 	N 	0.91207 0.63723 0.02393 -0.16500
N 	N 	0.82977 0.55383 0.06473 -0.17000
C 	C 	0.86527 0.57923 0.10503 0.02200
C 	C 	0.90687 0.62093 0.08403 0.02000
C 	C 	0.87467 0.61223 0.98393 0.05600
C 	C 	0.87797 0.62883 0.91913 -0.09200
H 	H 	0.90547 0.65743 0.90543 0.05000
C 	C 	0.84147 0.60333 0.87773 -0.01800
H 	H 	0.84457 0.61363 0.83433 0.03100
C 	C 	0.79897 0.56173 0.89753 -0.03800
H 	H 	0.77317 0.54553 0.86813 0.03800
C 	C 	0.79457 0.54413 0.96073 -0.07900
H 	H 	0.76667 0.51583 0.97423 0.03400
C 	C 	0.83347 0.57033 0.00303 0.04000
N 	N 	0.82237 0.52233 0.18773 -0.16600
N 	N 	0.89617 0.57543 0.27573 -0.17100
C 	C 	0.89877 0.58983 0.21613 0.02200
C 	C 	0.86067 0.56253 0.17013 0.02200
C 	C 	0.81807 0.50703 0.25043 0.05500
C 	C 	0.77827 0.46533 0.26913 -0.09400
H 	H 	0.75367 0.44673 0.23923 0.04700
C 	C 	0.77477 0.45113 0.33183 -0.01600
H 	H 	0.74707 0.42223 0.34493 0.03100
C 	C 	0.80927 0.47663 0.37583 -0.03100
H 	H 	0.80517 0.46553 0.41893 0.03700
C 	C 	0.85067 0.51873 0.35923 -0.08200
H 	H 	0.87487 0.53623 0.39013 0.03900
C 	C 	0.85577 0.53493 0.29473 0.04500
N 	N 	0.97707 0.65563 0.23543 -0.16900
N 	N 	0.98687 0.68553 0.10743 -0.17200
C 	C 	0.94687 0.64793 0.12853 0.02000
C 	C 	0.94307 0.63293 0.19433 0.02600
C 	C 	0.01797 0.69493 0.21513 0.05400
C 	C 	0.05557 0.71993 0.25793 -0.09000
H 	H 	0.05297 0.70983 0.30133 0.04500
C 	C 	0.09727 0.76013 0.23623 -0.02600
H 	H 	0.12257 0.77773 0.26553 0.03300
C 	C 	0.10217 0.77473 0.17273 -0.03100
H 	H 	0.13087 0.80213 0.15913 0.03600
C 	C 	0.06627 0.75023 0.12973 -0.08200
H 	H 	0.06987 0.76023 0.08613 0.03500
C 	C 	0.02357 0.70973 0.15033 0.04100
N 	N 	0.76157 0.40483 0.09643 -0.16600
N 	N 	0.73787 0.30893 0.09693 -0.17200
C 	C 	0.70387 0.32103 0.09333 0.01800
C 	C 	0.71667 0.36993 0.09263 0.02500
C 	C 	0.79567 0.39273 0.10013 0.05600
C 	C 	0.84507 0.42893 0.10663 -0.09300
H 	H 	0.85417 0.46193 0.10563 0.05000
C 	C 	0.87867 0.41603 0.11403 -0.01600
H 	H 	0.91107 0.44023 0.12053 0.03200
C 	C 	0.86727 0.36853 0.11233 -0.03600
H 	H 	0.89217 0.36093 0.11573 0.04100
C 	C 	0.82067 0.33213 0.10593 -0.08100
H 	H 	0.81317 0.29963 0.10503 0.03300
C 	C 	0.78387 0.34413 0.10073 0.04300
Ag	Ag	0.43675 0.81599 0.43554 0.54000
Ag	Ag	0.65597 0.03706 0.33637 0.54000
N 	N 	0.57873 0.97057 0.35727 -0.16500
N 	N 	0.49643 0.88717 0.39807 -0.17000
C 	C 	0.53193 0.91257 0.43837 0.02200
C 	C 	0.57353 0.95427 0.41737 0.02000
C 	C 	0.54133 0.94557 0.31727 0.05600
C 	C 	0.54463 0.96217 0.25247 -0.09200
H 	H 	0.57213 0.99077 0.23877 0.05000
C 	C 	0.50813 0.93667 0.21107 -0.01800
H 	H 	0.51123 0.94697 0.16767 0.03100
C 	C 	0.46563 0.89507 0.23087 -0.03700
H 	H 	0.43983 0.87887 0.20147 0.03800
C 	C 	0.46123 0.87747 0.29407 -0.07900
H 	H 	0.43333 0.84917 0.30757 0.03400
C 	C 	0.50013 0.90367 0.33637 0.04000
N 	N 	0.48903 0.85567 0.52107 -0.16600
N 	N 	0.56283 0.90877 0.60907 -0.17100
C 	C 	0.56543 0.92317 0.54947 0.02200
C 	C 	0.52733 0.89587 0.50347 0.02200
C 	C 	0.48473 0.84037 0.58377 0.05500
C 	C 	0.44493 0.79867 0.60247 -0.09400
H 	H 	0.42033 0.78007 0.57257 0.04700
C 	C 	0.44143 0.78447 0.66517 -0.01600
H 	H 	0.41373 0.75557 0.67827 0.03100
C 	C 	0.47593 0.80997 0.70917 -0.03100
H 	H 	0.47183 0.79887 0.75227 0.03700
C 	C 	0.51733 0.85207 0.69257 -0.08200
H 	H 	0.54153 0.86957 0.72347 0.03900
C 	C 	0.52243 0.86827 0.62807 0.04500
N 	N 	0.64373 0.98897 0.56877 -0.16900
N 	N 	0.65353 0.01887 0.44077 -0.17200
C 	C 	0.61353 0.98127 0.46187 0.02000
C 	C 	0.60973 0.96627 0.52767 0.02600
C 	C 	0.68463 0.02827 0.54847 0.05400
C 	C 	0.72223 0.05327 0.59127 -0.09000
H 	H 	0.71963 0.04317 0.63467 0.04500
C 	C 	0.76393 0.09347 0.56957 -0.02600
H 	H 	0.78923 0.11107 0.59887 0.03300
C 	C 	0.76883 0.10807 0.50607 -0.03100
H 	H 	0.79753 0.13547 0.49247 0.03600
C 	C 	0.73293 0.08357 0.46307 -0.08200
H 	H 	0.73653 0.09357 0.41947 0.03500
C 	C 	0.69023 0.04307 0.48367 0.04100
N 	N 	0.42823 0.73817 0.42977 -0.16600
N 	N 	0.40453 0.64227 0.43027 -0.17200
C 	C 	0.37053 0.65437 0.42667 0.01800
C 	C 	0.38333 0.70327 0.42597 0.02500
C 	C 	0.46233 0.72607 0.43347 0.05600
C 	C 	0.51173 0.76227 0.43997 -0.09300
H 	H 	0.52083 0.79527 0.43897 0.05000
C 	C 	0.54533 0.74937 0.44737 -0.01600
H 	H 	0.57773 0.77357 0.45387 0.03200
C 	C 	0.53393 0.70187 0.44567 -0.03600
H 	H 	0.55883 0.69427 0.44907 0.04100
C 	C 	0.48733 0.66547 0.43927 -0.08100
H 	H 	0.47983 0.63297 0.43837 0.03300
C 	C 	0.45053 0.67747 0.43407 0.04300
