data_crystal

_cell_length_a 30.30240
_cell_length_b 30.30240
_cell_length_c 30.30240
_cell_angle_alpha 60.00000
_cell_angle_beta  60.00000
_cell_angle_gamma 60.00000

_symmetry_space_group_name_	'P 1'
_symmetry_space_group_name_H-M	'P 1'

loop_
_symmetry_equiv_pos_as_xyz
  x,y,z

loop_
_atom_site_label
_atom_site_type_symbol
_atom_site_fract_x
_atom_site_fract_y
_atom_site_fract_z
_atom_site_charge
Zn	Zn	0.75780 0.50000 0.50000 1.20500
Zn	Zn	0.85729 0.50000 0.50000 1.20600
Zn	Zn	0.50000 0.75780 0.24220 1.20500
Zn	Zn	0.50000 0.85729 0.14271 1.20600
Zn	Zn	0.50000 0.24220 0.75780 1.20500
Zn	Zn	0.50000 0.14271 0.85729 1.20600
Zn	Zn	0.24220 0.50000 0.50000 1.20500
Zn	Zn	0.14271 0.50000 0.50000 1.20600
Zn	Zn	0.75780 0.50000 0.24220 1.20500
Zn	Zn	0.85729 0.50000 0.14271 1.20600
Zn	Zn	0.50000 0.24220 0.50000 1.20500
Zn	Zn	0.50000 0.14271 0.50000 1.20600
Zn	Zn	0.50000 0.75780 0.50000 1.20400
Zn	Zn	0.50000 0.85729 0.50000 1.20500
Zn	Zn	0.24220 0.50000 0.75780 1.20400
Zn	Zn	0.14271 0.50000 0.85729 1.20500
Zn	Zn	0.75780 0.24220 0.50000 1.20400
Zn	Zn	0.85729 0.14271 0.50000 1.20500
Zn	Zn	0.50000 0.50000 0.75780 1.20400
Zn	Zn	0.50000 0.50000 0.85729 1.20500
Zn	Zn	0.50000 0.50000 0.24220 1.20400
Zn	Zn	0.50000 0.50000 0.14271 1.20500
Zn	Zn	0.24220 0.75780 0.50000 1.20400
Zn	Zn	0.14271 0.85729 0.50000 1.20500
H 	H 	0.80500 0.46400 0.67140 0.03700
H 	H 	0.46400 0.80500 0.05960 0.03700
H 	H 	0.67140 0.05960 0.80500 0.03700
H 	H 	0.05960 0.67140 0.46400 0.03700
H 	H 	0.80500 0.67140 0.05960 0.03700
H 	H 	0.46400 0.05960 0.67140 0.03700
H 	H 	0.67140 0.80500 0.46400 0.03700
H 	H 	0.05960 0.46400 0.80500 0.03700
H 	H 	0.80500 0.05960 0.46400 0.03700
H 	H 	0.46400 0.67140 0.80500 0.03700
H 	H 	0.67140 0.46400 0.05960 0.03700
H 	H 	0.05960 0.80500 0.67140 0.03700
H 	H 	0.53600 0.19500 0.32860 0.03700
H 	H 	0.19500 0.53600 0.94040 0.03700
H 	H 	0.94040 0.32860 0.19500 0.03700
H 	H 	0.32860 0.94040 0.53600 0.03700
H 	H 	0.32860 0.19500 0.94040 0.03700
H 	H 	0.94040 0.53600 0.32860 0.03700
H 	H 	0.19500 0.32860 0.53600 0.03700
H 	H 	0.53600 0.94040 0.19500 0.03700
H 	H 	0.94040 0.19500 0.53600 0.03700
H 	H 	0.32860 0.53600 0.19500 0.03700
H 	H 	0.53600 0.32860 0.94040 0.03700
H 	H 	0.19500 0.94040 0.32860 0.03700
H 	H 	0.19500 0.53600 0.32860 0.03700
H 	H 	0.53600 0.19500 0.94040 0.03700
H 	H 	0.32860 0.94040 0.19500 0.03700
H 	H 	0.94040 0.32860 0.53600 0.03700
H 	H 	0.19500 0.32860 0.94040 0.03700
H 	H 	0.53600 0.94040 0.32860 0.03700
H 	H 	0.32860 0.19500 0.53600 0.03700
H 	H 	0.94040 0.53600 0.19500 0.03700
H 	H 	0.19500 0.94040 0.53600 0.03700
H 	H 	0.53600 0.32860 0.19500 0.03700
H 	H 	0.32860 0.53600 0.94040 0.03700
H 	H 	0.94040 0.19500 0.32860 0.03700
H 	H 	0.46400 0.80500 0.67140 0.03700
H 	H 	0.80500 0.46400 0.05960 0.03700
H 	H 	0.05960 0.67140 0.80500 0.03700
H 	H 	0.67140 0.05960 0.46400 0.03700
H 	H 	0.67140 0.80500 0.05960 0.03700
H 	H 	0.05960 0.46400 0.67140 0.03700
H 	H 	0.80500 0.67140 0.46400 0.03700
H 	H 	0.46400 0.05960 0.80500 0.03700
H 	H 	0.05960 0.80500 0.46400 0.03700
H 	H 	0.67140 0.46400 0.80500 0.03700
H 	H 	0.46400 0.67140 0.05960 0.03700
H 	H 	0.80500 0.05960 0.67140 0.03700
H 	H 	0.66520 0.48480 0.66520 0.02800
H 	H 	0.48480 0.66520 0.18480 0.02800
H 	H 	0.66520 0.18480 0.66520 0.02800
H 	H 	0.18480 0.66520 0.48480 0.02800
H 	H 	0.66520 0.66520 0.18480 0.02800
H 	H 	0.48480 0.18480 0.66520 0.02800
H 	H 	0.66520 0.66520 0.48480 0.02800
H 	H 	0.18480 0.48480 0.66520 0.02800
H 	H 	0.66520 0.18480 0.48480 0.02800
H 	H 	0.48480 0.66520 0.66520 0.02800
H 	H 	0.66520 0.48480 0.18480 0.02800
H 	H 	0.18480 0.66520 0.66520 0.02800
H 	H 	0.51520 0.33480 0.33480 0.02800
H 	H 	0.33480 0.51520 0.81520 0.02800
H 	H 	0.81520 0.33480 0.33480 0.02800
H 	H 	0.33480 0.81520 0.51520 0.02800
H 	H 	0.33480 0.33480 0.81520 0.02800
H 	H 	0.81520 0.51520 0.33480 0.02800
H 	H 	0.33480 0.33480 0.51520 0.02800
H 	H 	0.51520 0.81520 0.33480 0.02800
H 	H 	0.81520 0.33480 0.51520 0.02800
H 	H 	0.33480 0.51520 0.33480 0.02800
H 	H 	0.51520 0.33480 0.81520 0.02800
H 	H 	0.33480 0.81520 0.33480 0.02800
H 	H 	0.89480 0.44740 0.76300 0.10600
H 	H 	0.44740 0.89480 0.89480 0.10600
H 	H 	0.76300 0.89480 0.89480 0.10600
H 	H 	0.89480 0.76300 0.44740 0.10600
H 	H 	0.89480 0.76300 0.89480 0.10600
H 	H 	0.44740 0.89480 0.76300 0.10600
H 	H 	0.76300 0.89480 0.44740 0.10600
H 	H 	0.89480 0.44740 0.89480 0.10600
H 	H 	0.89480 0.89480 0.44740 0.10600
H 	H 	0.44740 0.76300 0.89480 0.10600
H 	H 	0.76300 0.44740 0.89480 0.10600
H 	H 	0.89480 0.89480 0.76300 0.10600
H 	H 	0.55260 0.10520 0.23700 0.10600
H 	H 	0.10520 0.55260 0.10520 0.10600
H 	H 	0.10520 0.23700 0.10520 0.10600
H 	H 	0.23700 0.10520 0.55260 0.10600
H 	H 	0.23700 0.10520 0.10520 0.10600
H 	H 	0.10520 0.55260 0.23700 0.10600
H 	H 	0.10520 0.23700 0.55260 0.10600
H 	H 	0.55260 0.10520 0.10520 0.10600
H 	H 	0.10520 0.10520 0.55260 0.10600
H 	H 	0.23700 0.55260 0.10520 0.10600
H 	H 	0.55260 0.23700 0.10520 0.10600
H 	H 	0.10520 0.10520 0.23700 0.10600
C 	C 	0.76491 0.48379 0.60053 0.42300
C 	C 	0.73833 0.47713 0.65935 -0.13100
C 	C 	0.76768 0.46836 0.68812 0.01800
C 	C 	0.48379 0.76491 0.15077 0.42300
C 	C 	0.47713 0.73833 0.12519 -0.13100
C 	C 	0.46836 0.76768 0.07584 0.01800
C 	C 	0.60053 0.15077 0.76491 0.42300
C 	C 	0.65935 0.12519 0.73833 -0.13100
C 	C 	0.68812 0.07584 0.76768 0.01800
C 	C 	0.15077 0.60053 0.48379 0.42300
C 	C 	0.12519 0.65935 0.47713 -0.13100
C 	C 	0.07584 0.68812 0.46836 0.01800
C 	C 	0.76491 0.60053 0.15077 0.42300
C 	C 	0.73833 0.65935 0.12519 -0.13100
C 	C 	0.76768 0.68812 0.07584 0.01800
C 	C 	0.48379 0.15077 0.60053 0.42300
C 	C 	0.47713 0.12519 0.65935 -0.13100
C 	C 	0.46836 0.07584 0.68812 0.01800
C 	C 	0.60053 0.76491 0.48379 0.42300
C 	C 	0.65935 0.73833 0.47713 -0.13100
C 	C 	0.68812 0.76768 0.46836 0.01800
C 	C 	0.15077 0.48379 0.76491 0.42300
C 	C 	0.12519 0.47713 0.73833 -0.13100
C 	C 	0.07584 0.46836 0.76768 0.01800
C 	C 	0.76491 0.15077 0.48379 0.42300
C 	C 	0.73833 0.12519 0.47713 -0.13100
C 	C 	0.76768 0.07584 0.46836 0.01800
C 	C 	0.48379 0.60053 0.76491 0.42300
C 	C 	0.47713 0.65935 0.73833 -0.13100
C 	C 	0.46836 0.68812 0.76768 0.01800
C 	C 	0.60053 0.48379 0.15077 0.42300
C 	C 	0.65935 0.47713 0.12519 -0.13100
C 	C 	0.68812 0.46836 0.07584 0.01800
C 	C 	0.15077 0.76491 0.60053 0.42300
C 	C 	0.12519 0.73833 0.65935 -0.13100
C 	C 	0.07584 0.76768 0.68812 0.01800
C 	C 	0.51621 0.23509 0.39947 0.42300
C 	C 	0.52287 0.26167 0.34065 -0.13100
C 	C 	0.53164 0.23232 0.31188 0.01800
C 	C 	0.23509 0.51621 0.84923 0.42300
C 	C 	0.26167 0.52287 0.87481 -0.13100
C 	C 	0.23232 0.53164 0.92416 0.01800
C 	C 	0.84923 0.39947 0.23509 0.42300
C 	C 	0.87481 0.34065 0.26167 -0.13100
C 	C 	0.92416 0.31188 0.23232 0.01800
C 	C 	0.39947 0.84923 0.51621 0.42300
C 	C 	0.34065 0.87481 0.52287 -0.13100
C 	C 	0.31188 0.92416 0.53164 0.01800
C 	C 	0.39947 0.23509 0.84923 0.42300
C 	C 	0.34065 0.26167 0.87481 -0.13100
C 	C 	0.31188 0.23232 0.92416 0.01800
C 	C 	0.84923 0.51621 0.39947 0.42300
C 	C 	0.87481 0.52287 0.34065 -0.13100
C 	C 	0.92416 0.53164 0.31188 0.01800
C 	C 	0.23509 0.39947 0.51621 0.42300
C 	C 	0.26167 0.34065 0.52287 -0.13100
C 	C 	0.23232 0.31188 0.53164 0.01800
C 	C 	0.51621 0.84923 0.23509 0.42300
C 	C 	0.52287 0.87481 0.26167 -0.13100
C 	C 	0.53164 0.92416 0.23232 0.01800
C 	C 	0.84923 0.23509 0.51621 0.42300
C 	C 	0.87481 0.26167 0.52287 -0.13100
C 	C 	0.92416 0.23232 0.53164 0.01800
C 	C 	0.39947 0.51621 0.23509 0.42300
C 	C 	0.34065 0.52287 0.26167 -0.13100
C 	C 	0.31188 0.53164 0.23232 0.01800
C 	C 	0.51621 0.39947 0.84923 0.42300
C 	C 	0.52287 0.34065 0.87481 -0.13100
C 	C 	0.53164 0.31188 0.92416 0.01800
C 	C 	0.23509 0.84923 0.39947 0.42300
C 	C 	0.26167 0.87481 0.34065 -0.13100
C 	C 	0.23232 0.92416 0.31188 0.01800
C 	C 	0.23509 0.51621 0.39947 0.42300
C 	C 	0.26167 0.52287 0.34065 -0.13100
C 	C 	0.23232 0.53164 0.31188 0.01800
C 	C 	0.51621 0.23509 0.84923 0.42300
C 	C 	0.52287 0.26167 0.87481 -0.13100
C 	C 	0.53164 0.23232 0.92416 0.01800
C 	C 	0.39947 0.84923 0.23509 0.42300
C 	C 	0.34065 0.87481 0.26167 -0.13100
C 	C 	0.31188 0.92416 0.23232 0.01800
C 	C 	0.84923 0.39947 0.51621 0.42300
C 	C 	0.87481 0.34065 0.52287 -0.13100
C 	C 	0.92416 0.31188 0.53164 0.01800
C 	C 	0.23509 0.39947 0.84923 0.42300
C 	C 	0.26167 0.34065 0.87481 -0.13100
C 	C 	0.23232 0.31188 0.92416 0.01800
C 	C 	0.51621 0.84923 0.39947 0.42300
C 	C 	0.52287 0.87481 0.34065 -0.13100
C 	C 	0.53164 0.92416 0.31188 0.01800
C 	C 	0.39947 0.23509 0.51621 0.42300
C 	C 	0.34065 0.26167 0.52287 -0.13100
C 	C 	0.31188 0.23232 0.53164 0.01800
C 	C 	0.84923 0.51621 0.23509 0.42300
C 	C 	0.87481 0.52287 0.26167 -0.13100
C 	C 	0.92416 0.53164 0.23232 0.01800
C 	C 	0.23509 0.84923 0.51621 0.42300
C 	C 	0.26167 0.87481 0.52287 -0.13100
C 	C 	0.23232 0.92416 0.53164 0.01800
C 	C 	0.51621 0.39947 0.23509 0.42300
C 	C 	0.52287 0.34065 0.26167 -0.13100
C 	C 	0.53164 0.31188 0.23232 0.01800
C 	C 	0.39947 0.51621 0.84923 0.42300
C 	C 	0.34065 0.52287 0.87481 -0.13100
C 	C 	0.31188 0.53164 0.92416 0.01800
C 	C 	0.84923 0.23509 0.39947 0.42300
C 	C 	0.87481 0.26167 0.34065 -0.13100
C 	C 	0.92416 0.23232 0.31188 0.01800
C 	C 	0.48379 0.76491 0.60053 0.42300
C 	C 	0.47713 0.73833 0.65935 -0.13100
C 	C 	0.46836 0.76768 0.68812 0.01800
C 	C 	0.76491 0.48379 0.15077 0.42300
C 	C 	0.73833 0.47713 0.12519 -0.13100
C 	C 	0.76768 0.46836 0.07584 0.01800
C 	C 	0.15077 0.60053 0.76491 0.42300
C 	C 	0.12519 0.65935 0.73833 -0.13100
C 	C 	0.07584 0.68812 0.76768 0.01800
C 	C 	0.60053 0.15077 0.48379 0.42300
C 	C 	0.65935 0.12519 0.47713 -0.13100
C 	C 	0.68812 0.07584 0.46836 0.01800
C 	C 	0.60053 0.76491 0.15077 0.42300
C 	C 	0.65935 0.73833 0.12519 -0.13100
C 	C 	0.68812 0.76768 0.07584 0.01800
C 	C 	0.15077 0.48379 0.60053 0.42300
C 	C 	0.12519 0.47713 0.65935 -0.13100
C 	C 	0.07584 0.46836 0.68812 0.01800
C 	C 	0.76491 0.60053 0.48379 0.42300
C 	C 	0.73833 0.65935 0.47713 -0.13100
C 	C 	0.76768 0.68812 0.46836 0.01800
C 	C 	0.48379 0.15077 0.76491 0.42300
C 	C 	0.47713 0.12519 0.73833 -0.13100
C 	C 	0.46836 0.07584 0.76768 0.01800
C 	C 	0.15077 0.76491 0.48379 0.42300
C 	C 	0.12519 0.73833 0.47713 -0.13100
C 	C 	0.07584 0.76768 0.46836 0.01800
C 	C 	0.60053 0.48379 0.76491 0.42300
C 	C 	0.65935 0.47713 0.73833 -0.13100
C 	C 	0.68812 0.46836 0.76768 0.01800
C 	C 	0.48379 0.60053 0.15077 0.42300
C 	C 	0.47713 0.65935 0.12519 -0.13100
C 	C 	0.46836 0.68812 0.07584 0.01800
C 	C 	0.76491 0.15077 0.60053 0.42300
C 	C 	0.73833 0.12519 0.65935 -0.13100
C 	C 	0.76768 0.07584 0.68812 0.01800
C 	C 	0.68464 0.48034 0.68464 0.07200
C 	C 	0.74154 0.46610 0.74154 -0.03100
C 	C 	0.77210 0.45530 0.77210 0.02900
C 	C 	0.79770 0.44590 0.79770 -0.08500
C 	C 	0.82460 0.44700 0.82460 0.16000
C 	C 	0.48034 0.68464 0.15038 0.07200
C 	C 	0.46610 0.74154 0.05082 -0.03100
C 	C 	0.45530 0.77210 0.00050 0.02900
C 	C 	0.44590 0.79770 0.95870 -0.08500
C 	C 	0.44700 0.82460 0.90380 0.16000
C 	C 	0.68464 0.15038 0.68464 0.07200
C 	C 	0.74154 0.05082 0.74154 -0.03100
C 	C 	0.77210 0.00050 0.77210 0.02900
C 	C 	0.79770 0.95870 0.79770 -0.08500
C 	C 	0.82460 0.90380 0.82460 0.16000
C 	C 	0.15038 0.68464 0.48034 0.07200
C 	C 	0.05082 0.74154 0.46610 -0.03100
C 	C 	0.00050 0.77210 0.45530 0.02900
C 	C 	0.95870 0.79770 0.44590 -0.08500
C 	C 	0.90380 0.82460 0.44700 0.16000
C 	C 	0.68464 0.68464 0.15038 0.07200
C 	C 	0.74154 0.74154 0.05082 -0.03100
C 	C 	0.77210 0.77210 0.00050 0.02900
C 	C 	0.79770 0.79770 0.95870 -0.08500
C 	C 	0.82460 0.82460 0.90380 0.16000
C 	C 	0.48034 0.15038 0.68464 0.07200
C 	C 	0.46610 0.05082 0.74154 -0.03100
C 	C 	0.45530 0.00050 0.77210 0.02900
C 	C 	0.44590 0.95870 0.79770 -0.08500
C 	C 	0.44700 0.90380 0.82460 0.16000
C 	C 	0.68464 0.68464 0.48034 0.07200
C 	C 	0.74154 0.74154 0.46610 -0.03100
C 	C 	0.77210 0.77210 0.45530 0.02900
C 	C 	0.79770 0.79770 0.44590 -0.08500
C 	C 	0.82460 0.82460 0.44700 0.16000
C 	C 	0.15038 0.48034 0.68464 0.07200
C 	C 	0.05082 0.46610 0.74154 -0.03100
C 	C 	0.00050 0.45530 0.77210 0.02900
C 	C 	0.95870 0.44590 0.79770 -0.08500
C 	C 	0.90380 0.44700 0.82460 0.16000
C 	C 	0.68464 0.15038 0.48034 0.07200
C 	C 	0.74154 0.05082 0.46610 -0.03100
C 	C 	0.77210 0.00050 0.45530 0.02900
C 	C 	0.79770 0.95870 0.44590 -0.08500
C 	C 	0.82460 0.90380 0.44700 0.16000
C 	C 	0.48034 0.68464 0.68464 0.07200
C 	C 	0.46610 0.74154 0.74154 -0.03100
C 	C 	0.45530 0.77210 0.77210 0.02900
C 	C 	0.44590 0.79770 0.79770 -0.08500
C 	C 	0.44700 0.82460 0.82460 0.16000
C 	C 	0.68464 0.48034 0.15038 0.07200
C 	C 	0.74154 0.46610 0.05082 -0.03100
C 	C 	0.77210 0.45530 0.00050 0.02900
C 	C 	0.79770 0.44590 0.95870 -0.08500
C 	C 	0.82460 0.44700 0.90380 0.16000
C 	C 	0.15038 0.68464 0.68464 0.07200
C 	C 	0.05082 0.74154 0.74154 -0.03100
C 	C 	0.00050 0.77210 0.77210 0.02900
C 	C 	0.95870 0.79770 0.79770 -0.08500
C 	C 	0.90380 0.82460 0.82460 0.16000
C 	C 	0.51966 0.31536 0.31536 0.07200
C 	C 	0.53390 0.25846 0.25846 -0.03100
C 	C 	0.54470 0.22790 0.22790 0.02900
C 	C 	0.55410 0.20230 0.20230 -0.08500
C 	C 	0.55300 0.17540 0.17540 0.16000
C 	C 	0.31536 0.51966 0.84962 0.07200
C 	C 	0.25846 0.53390 0.94918 -0.03100
C 	C 	0.22790 0.54470 0.99950 0.02900
C 	C 	0.20230 0.55410 0.04130 -0.08500
C 	C 	0.17540 0.55300 0.09620 0.16000
C 	C 	0.84962 0.31536 0.31536 0.07200
C 	C 	0.94918 0.25846 0.25846 -0.03100
C 	C 	0.99950 0.22790 0.22790 0.02900
C 	C 	0.04130 0.20230 0.20230 -0.08500
C 	C 	0.09620 0.17540 0.17540 0.16000
C 	C 	0.31536 0.84962 0.51966 0.07200
C 	C 	0.25846 0.94918 0.53390 -0.03100
C 	C 	0.22790 0.99950 0.54470 0.02900
C 	C 	0.20230 0.04130 0.55410 -0.08500
C 	C 	0.17540 0.09620 0.55300 0.16000
C 	C 	0.31536 0.31536 0.84962 0.07200
C 	C 	0.25846 0.25846 0.94918 -0.03100
C 	C 	0.22790 0.22790 0.99950 0.02900
C 	C 	0.20230 0.20230 0.04130 -0.08500
C 	C 	0.17540 0.17540 0.09620 0.16000
C 	C 	0.84962 0.51966 0.31536 0.07200
C 	C 	0.94918 0.53390 0.25846 -0.03100
C 	C 	0.99950 0.54470 0.22790 0.02900
C 	C 	0.04130 0.55410 0.20230 -0.08500
C 	C 	0.09620 0.55300 0.17540 0.16000
C 	C 	0.31536 0.31536 0.51966 0.07200
C 	C 	0.25846 0.25846 0.53390 -0.03100
C 	C 	0.22790 0.22790 0.54470 0.02900
C 	C 	0.20230 0.20230 0.55410 -0.08500
C 	C 	0.17540 0.17540 0.55300 0.16000
C 	C 	0.51966 0.84962 0.31536 0.07200
C 	C 	0.53390 0.94918 0.25846 -0.03100
C 	C 	0.54470 0.99950 0.22790 0.02900
C 	C 	0.55410 0.04130 0.20230 -0.08500
C 	C 	0.55300 0.09620 0.17540 0.16000
C 	C 	0.84962 0.31536 0.51966 0.07200
C 	C 	0.94918 0.25846 0.53390 -0.03100
C 	C 	0.99950 0.22790 0.54470 0.02900
C 	C 	0.04130 0.20230 0.55410 -0.08500
C 	C 	0.09620 0.17540 0.55300 0.16000
C 	C 	0.31536 0.51966 0.31536 0.07200
C 	C 	0.25846 0.53390 0.25846 -0.03100
C 	C 	0.22790 0.54470 0.22790 0.02900
C 	C 	0.20230 0.55410 0.20230 -0.08500
C 	C 	0.17540 0.55300 0.17540 0.16000
C 	C 	0.51966 0.31536 0.84962 0.07200
C 	C 	0.53390 0.25846 0.94918 -0.03100
C 	C 	0.54470 0.22790 0.99950 0.02900
C 	C 	0.55410 0.20230 0.04130 -0.08500
C 	C 	0.55300 0.17540 0.09620 0.16000
C 	C 	0.31536 0.84962 0.31536 0.07200
C 	C 	0.25846 0.94918 0.25846 -0.03100
C 	C 	0.22790 0.99950 0.22790 0.02900
C 	C 	0.20230 0.04130 0.20230 -0.08500
C 	C 	0.17540 0.09620 0.17540 0.16000
C 	C 	0.87680 0.44720 0.79920 -0.21400
C 	C 	0.44720 0.87680 0.87680 -0.21400
C 	C 	0.79920 0.87680 0.87680 -0.21400
C 	C 	0.87680 0.79920 0.44720 -0.21400
C 	C 	0.87680 0.79920 0.87680 -0.21400
C 	C 	0.44720 0.87680 0.79920 -0.21400
C 	C 	0.79920 0.87680 0.44720 -0.21400
C 	C 	0.87680 0.44720 0.87680 -0.21400
C 	C 	0.87680 0.87680 0.44720 -0.21400
C 	C 	0.44720 0.79920 0.87680 -0.21400
C 	C 	0.79920 0.44720 0.87680 -0.21400
C 	C 	0.87680 0.87680 0.79920 -0.21400
C 	C 	0.55280 0.12320 0.20080 -0.21400
C 	C 	0.12320 0.55280 0.12320 -0.21400
C 	C 	0.12320 0.20080 0.12320 -0.21400
C 	C 	0.20080 0.12320 0.55280 -0.21400
C 	C 	0.20080 0.12320 0.12320 -0.21400
C 	C 	0.12320 0.55280 0.20080 -0.21400
C 	C 	0.12320 0.20080 0.55280 -0.21400
C 	C 	0.55280 0.12320 0.12320 -0.21400
C 	C 	0.12320 0.12320 0.55280 -0.21400
C 	C 	0.20080 0.55280 0.12320 -0.21400
C 	C 	0.55280 0.20080 0.12320 -0.21400
C 	C 	0.12320 0.12320 0.20080 -0.21400
O 	O 	0.73771 0.48681 0.57835 -0.49200
O 	O 	0.81125 0.48717 0.57813 -0.49000
O 	O 	0.48681 0.73771 0.19713 -0.49200
O 	O 	0.48717 0.81125 0.12345 -0.49000
O 	O 	0.57835 0.19713 0.73771 -0.49200
O 	O 	0.57813 0.12345 0.81125 -0.49000
O 	O 	0.19713 0.57835 0.48681 -0.49200
O 	O 	0.12345 0.57813 0.48717 -0.49000
O 	O 	0.73771 0.57835 0.19713 -0.49200
O 	O 	0.81125 0.57813 0.12345 -0.49000
O 	O 	0.48681 0.19713 0.57835 -0.49200
O 	O 	0.48717 0.12345 0.57813 -0.49000
O 	O 	0.57835 0.73771 0.48681 -0.49200
O 	O 	0.57813 0.81125 0.48717 -0.49000
O 	O 	0.19713 0.48681 0.73771 -0.49200
O 	O 	0.12345 0.48717 0.81125 -0.49000
O 	O 	0.73771 0.19713 0.48681 -0.49200
O 	O 	0.81125 0.12345 0.48717 -0.49000
O 	O 	0.48681 0.57835 0.73771 -0.49200
O 	O 	0.48717 0.57813 0.81125 -0.49000
O 	O 	0.57835 0.48681 0.19713 -0.49200
O 	O 	0.57813 0.48717 0.12345 -0.49000
O 	O 	0.19713 0.73771 0.57835 -0.49200
O 	O 	0.12345 0.81125 0.57813 -0.49000
O 	O 	0.51319 0.26229 0.42165 -0.49200
O 	O 	0.51283 0.18875 0.42187 -0.49000
O 	O 	0.26229 0.51319 0.80287 -0.49200
O 	O 	0.18875 0.51283 0.87655 -0.49000
O 	O 	0.80287 0.42165 0.26229 -0.49200
O 	O 	0.87655 0.42187 0.18875 -0.49000
O 	O 	0.42165 0.80287 0.51319 -0.49200
O 	O 	0.42187 0.87655 0.51283 -0.49000
O 	O 	0.42165 0.26229 0.80287 -0.49200
O 	O 	0.42187 0.18875 0.87655 -0.49000
O 	O 	0.80287 0.51319 0.42165 -0.49200
O 	O 	0.87655 0.51283 0.42187 -0.49000
O 	O 	0.26229 0.42165 0.51319 -0.49200
O 	O 	0.18875 0.42187 0.51283 -0.49000
O 	O 	0.51319 0.80287 0.26229 -0.49200
O 	O 	0.51283 0.87655 0.18875 -0.49000
O 	O 	0.80287 0.26229 0.51319 -0.49200
O 	O 	0.87655 0.18875 0.51283 -0.49000
O 	O 	0.42165 0.51319 0.26229 -0.49200
O 	O 	0.42187 0.51283 0.18875 -0.49000
O 	O 	0.51319 0.42165 0.80287 -0.49200
O 	O 	0.51283 0.42187 0.87655 -0.49000
O 	O 	0.26229 0.80287 0.42165 -0.49200
O 	O 	0.18875 0.87655 0.42187 -0.49000
O 	O 	0.26229 0.51319 0.42165 -0.49200
O 	O 	0.18875 0.51283 0.42187 -0.49000
O 	O 	0.51319 0.26229 0.80287 -0.49200
O 	O 	0.51283 0.18875 0.87655 -0.49000
O 	O 	0.42165 0.80287 0.26229 -0.49200
O 	O 	0.42187 0.87655 0.18875 -0.49000
O 	O 	0.80287 0.42165 0.51319 -0.49200
O 	O 	0.87655 0.42187 0.51283 -0.49000
O 	O 	0.26229 0.42165 0.80287 -0.49200
O 	O 	0.18875 0.42187 0.87655 -0.49000
O 	O 	0.51319 0.80287 0.42165 -0.49200
O 	O 	0.51283 0.87655 0.42187 -0.49000
O 	O 	0.42165 0.26229 0.51319 -0.49200
O 	O 	0.42187 0.18875 0.51283 -0.49000
O 	O 	0.80287 0.51319 0.26229 -0.49200
O 	O 	0.87655 0.51283 0.18875 -0.49000
O 	O 	0.26229 0.80287 0.51319 -0.49200
O 	O 	0.18875 0.87655 0.51283 -0.49000
O 	O 	0.51319 0.42165 0.26229 -0.49200
O 	O 	0.51283 0.42187 0.18875 -0.49000
O 	O 	0.42165 0.51319 0.80287 -0.49200
O 	O 	0.42187 0.51283 0.87655 -0.49000
O 	O 	0.80287 0.26229 0.42165 -0.49200
O 	O 	0.87655 0.18875 0.42187 -0.49000
O 	O 	0.48681 0.73771 0.57835 -0.49200
O 	O 	0.48717 0.81125 0.57813 -0.49000
O 	O 	0.73771 0.48681 0.19713 -0.49200
O 	O 	0.81125 0.48717 0.12345 -0.49000
O 	O 	0.19713 0.57835 0.73771 -0.49200
O 	O 	0.12345 0.57813 0.81125 -0.49000
O 	O 	0.57835 0.19713 0.48681 -0.49200
O 	O 	0.57813 0.12345 0.48717 -0.49000
O 	O 	0.57835 0.73771 0.19713 -0.49200
O 	O 	0.57813 0.81125 0.12345 -0.49000
O 	O 	0.19713 0.48681 0.57835 -0.49200
O 	O 	0.12345 0.48717 0.57813 -0.49000
O 	O 	0.73771 0.57835 0.48681 -0.49200
O 	O 	0.81125 0.57813 0.48717 -0.49000
O 	O 	0.48681 0.19713 0.73771 -0.49200
O 	O 	0.48717 0.12345 0.81125 -0.49000
O 	O 	0.19713 0.73771 0.48681 -0.49200
O 	O 	0.12345 0.81125 0.48717 -0.49000
O 	O 	0.57835 0.48681 0.73771 -0.49200
O 	O 	0.57813 0.48717 0.81125 -0.49000
O 	O 	0.48681 0.57835 0.19713 -0.49200
O 	O 	0.48717 0.57813 0.12345 -0.49000
O 	O 	0.73771 0.19713 0.57835 -0.49200
O 	O 	0.81125 0.12345 0.57813 -0.49000
