data_crystal

_cell_length_a 8.56270
_cell_length_b 14.07800
_cell_length_c 20.29700
_cell_angle_alpha 88.56800
_cell_angle_beta  86.32500
_cell_angle_gamma 81.38200

_symmetry_space_group_name_	'P 1'
_symmetry_space_group_name_H-M	'P 1'

loop_
_symmetry_equiv_pos_as_xyz
  x,y,z

loop_
_atom_site_label
_atom_site_type_symbol
_atom_site_fract_x
_atom_site_fract_y
_atom_site_fract_z
_atom_site_charge
Tb	Tb	0.27365 0.76272 0.98096 1.92900
Tb	Tb	0.23516 0.48561 0.24797 1.51600
O 	O 	0.21270 0.67510 0.07920 -0.46200
O 	O 	0.19000 0.54220 0.13580 -0.45500
O 	O 	0.44010 0.41750 0.17520 -0.49800
O 	O 	0.58950 0.31130 0.11400 -0.48100
O 	O 	0.06420 0.68840 0.94330 -0.44000
O 	O 	0.80790 0.69980 0.92010 -0.28000
O 	O 	0.25520 0.89110 0.06470 -0.43600
O 	O 	0.11140 0.98970 0.13640 -0.44800
O 	O 	0.52560 0.74660 0.02920 -0.39400
O 	O 	0.50000 0.85570 0.94930 -0.35300
O 	O 	0.82870 0.11930 0.09470 -0.43500
O 	O 	0.69840 0.03650 0.17430 -0.26400
O 	O 	0.27390 0.53620 0.35570 -0.46700
O 	O 	0.22400 0.66410 0.41770 -0.43500
O 	O 	0.02810 0.68160 0.61370 -0.47100
O 	O 	0.95530 0.56230 0.67520 -0.50000
N 	N 	0.40040 0.58560 0.98800 -0.16800
N 	N 	0.07210 0.57430 0.50830 -0.15000
N 	N 	0.99960 0.83600 0.02290 -0.17200
N 	N 	0.69460 0.92410 0.05650 -0.10200
C 	C 	0.25210 0.58660 0.09150 0.40100
C 	C 	0.39000 0.53740 0.04640 -0.02400
C 	C 	0.49210 0.45390 0.06080 -0.05600
C 	C 	0.50700 0.38860 0.12160 0.46900
C 	C 	0.13000 0.93270 0.09090 0.40900
C 	C 	0.97600 0.91240 0.06290 -0.05200
C 	C 	0.82200 0.95470 0.07600 0.01400
C 	C 	0.72100 0.84920 0.01630 0.03800
C 	C 	0.86500 0.80250 0.99690 -0.05800
C 	C 	0.92100 0.71910 0.95200 0.34900
C 	C 	0.77900 0.04430 0.12030 0.31800
C 	C 	0.57400 0.81380 0.99730 0.28600
C 	C 	0.20400 0.58120 0.40190 0.40400
C 	C 	0.08800 0.53830 0.45300 -0.00700
C 	C 	0.98010 0.54770 0.55800 -0.05000
C 	C 	0.98600 0.60160 0.62230 0.44900
Tb	Tb	0.11784 0.76033 0.51433 1.75100
Tb	Tb	0.21131 0.02985 0.24113 1.27800
O 	O 	0.45730 0.00750 0.29130 -0.38700
O 	O 	0.55980 0.09180 0.36670 -0.25200
O 	O 	0.07690 0.88570 0.43250 -0.43400
O 	O 	0.14860 0.99970 0.36330 -0.42100
O 	O 	0.36490 0.69330 0.55710 -0.43900
O 	O 	0.62050 0.68270 0.56680 -0.28000
O 	O 	0.84580 0.84220 0.54580 -0.36500
O 	O 	0.87310 0.74030 0.45920 -0.34400
N 	N 	0.35680 0.83290 0.47230 -0.18100
N 	N 	0.62280 0.91570 0.43110 -0.09500
C 	C 	0.49100 0.02310 0.35330 0.28400
C 	C 	0.47800 0.94400 0.40650 0.00400
C 	C 	0.34600 0.90220 0.42720 -0.03900
C 	C 	0.49800 0.80010 0.49490 -0.03600
C 	C 	0.62600 0.83950 0.47470 0.02600
C 	C 	0.78800 0.80680 0.49760 0.26000
C 	C 	0.49700 0.71700 0.54390 0.37800
C 	C 	0.17700 0.93320 0.40230 0.37000
Tb	Tb	0.72635 0.23728 0.01904 1.92800
Tb	Tb	0.76484 0.51439 0.75203 1.51500
O 	O 	0.78730 0.32490 0.92080 -0.46300
O 	O 	0.81000 0.45780 0.86420 -0.45600
O 	O 	0.55990 0.58250 0.82480 -0.49800
O 	O 	0.41050 0.68870 0.88600 -0.48100
O 	O 	0.93580 0.31160 0.05670 -0.44000
O 	O 	0.19210 0.30020 0.07990 -0.28000
O 	O 	0.74480 0.10890 0.93530 -0.43600
O 	O 	0.88860 0.01030 0.86360 -0.44800
O 	O 	0.47440 0.25340 0.97080 -0.39400
O 	O 	0.50000 0.14430 0.05070 -0.35300
O 	O 	0.17130 0.88070 0.90530 -0.43500
O 	O 	0.30160 0.96350 0.82570 -0.26400
O 	O 	0.72610 0.46380 0.64430 -0.46700
O 	O 	0.77600 0.33590 0.58230 -0.43500
O 	O 	0.97190 0.31840 0.38630 -0.47100
O 	O 	0.04470 0.43770 0.32480 -0.50000
N 	N 	0.59960 0.41440 0.01200 -0.16800
N 	N 	0.92790 0.42570 0.49170 -0.15000
N 	N 	0.00040 0.16400 0.97710 -0.17200
N 	N 	0.30540 0.07590 0.94350 -0.10200
C 	C 	0.74790 0.41340 0.90850 0.40100
C 	C 	0.61000 0.46260 0.95360 -0.02400
C 	C 	0.50790 0.54610 0.93920 -0.05600
C 	C 	0.49300 0.61140 0.87840 0.46900
C 	C 	0.87000 0.06730 0.90910 0.40900
C 	C 	0.02400 0.08760 0.93710 -0.05200
C 	C 	0.17800 0.04530 0.92400 0.01400
C 	C 	0.27900 0.15080 0.98370 0.03800
C 	C 	0.13500 0.19750 0.00310 -0.05800
C 	C 	0.07900 0.28090 0.04800 0.34900
C 	C 	0.22100 0.95570 0.87970 0.31800
C 	C 	0.42600 0.18620 0.00270 0.28600
C 	C 	0.79600 0.41880 0.59810 0.40400
C 	C 	0.91200 0.46170 0.54700 -0.00700
C 	C 	0.01990 0.45230 0.44200 -0.05000
C 	C 	0.01400 0.39840 0.37770 0.44900
Tb	Tb	0.88216 0.23967 0.48567 1.75100
Tb	Tb	0.78869 0.97015 0.75887 1.27800
O 	O 	0.54270 0.99250 0.70870 -0.38700
O 	O 	0.44020 0.90820 0.63330 -0.25200
O 	O 	0.92310 0.11430 0.56750 -0.43400
O 	O 	0.85140 0.00030 0.63670 -0.42100
O 	O 	0.63510 0.30670 0.44290 -0.43900
O 	O 	0.37950 0.31730 0.43320 -0.28000
O 	O 	0.15420 0.15780 0.45420 -0.36500
O 	O 	0.12690 0.25970 0.54080 -0.34400
N 	N 	0.64320 0.16710 0.52770 -0.18100
N 	N 	0.37720 0.08430 0.56890 -0.09500
C 	C 	0.50900 0.97690 0.64670 0.28400
C 	C 	0.52200 0.05600 0.59350 0.00400
C 	C 	0.65400 0.09780 0.57280 -0.03900
C 	C 	0.50200 0.19990 0.50510 -0.03600
C 	C 	0.37400 0.16050 0.52530 0.02600
C 	C 	0.21200 0.19320 0.50240 0.26000
C 	C 	0.50300 0.28300 0.45610 0.37800
C 	C 	0.82300 0.06680 0.59770 0.37000
