data_crystal

_cell_length_a 8.56070
_cell_length_b 14.10230
_cell_length_c 20.29400
_cell_angle_alpha 88.53920
_cell_angle_beta  86.49980
_cell_angle_gamma 81.25190

_symmetry_space_group_name_	'P 1'
_symmetry_space_group_name_H-M	'P 1'

loop_
_symmetry_equiv_pos_as_xyz
  x,y,z

loop_
_atom_site_label
_atom_site_type_symbol
_atom_site_fract_x
_atom_site_fract_y
_atom_site_fract_z
_atom_site_charge
C 	C 	0.25250 0.58830 0.09227 0.37600
C 	C 	0.38730 0.53620 0.04726 -0.01700
C 	C 	0.49050 0.45080 0.05874 -0.02800
C 	C 	0.50430 0.38760 0.12180 0.40500
C 	C 	0.12710 0.93270 0.09011 0.36000
C 	C 	0.97760 0.91050 0.06190 -0.02900
C 	C 	0.82160 0.95660 0.07765 -0.00500
C 	C 	0.72380 0.84840 0.01594 0.02500
C 	C 	0.87540 0.80380 0.99791 -0.02800
C 	C 	0.91900 0.72110 0.95020 0.32200
C 	C 	0.78230 0.04550 0.11890 0.33400
C 	C 	0.57560 0.81250 0.99720 0.28400
C 	C 	0.20630 0.58220 0.40344 0.37200
C 	C 	0.09150 0.53530 0.45065 -0.01300
C 	C 	0.98250 0.54520 0.55902 -0.02600
C 	C 	0.98990 0.59990 0.62193 0.39400
C 	C 	0.49270 0.02150 0.35210 0.33900
C 	C 	0.48130 0.94520 0.40640 -0.00100
C 	C 	0.34500 0.90540 0.42695 -0.03000
C 	C 	0.49570 0.79910 0.49636 -0.01800
C 	C 	0.63100 0.84060 0.47433 0.02100
C 	C 	0.79520 0.80440 0.49700 0.29800
C 	C 	0.49650 0.71730 0.54468 0.32300
C 	C 	0.17760 0.93310 0.40563 0.34800
N 	N 	0.07140 0.57770 0.50935 -0.14000
N 	N 	0.35650 0.83350 0.47182 -0.16600
N 	N 	0.00060 0.83580 0.02209 -0.15800
N 	N 	0.69640 0.92360 0.05561 -0.08900
N 	N 	0.62160 0.91370 0.43163 -0.09100
O 	O 	0.21560 0.67570 0.07924 -0.41800
O 	O 	0.18570 0.54260 0.13631 -0.40700
N 	N 	0.40060 0.58260 0.98907 -0.15000
O 	O 	0.43830 0.41980 0.17464 -0.43900
O 	O 	0.58680 0.30670 0.11474 -0.41200
O 	O 	0.06500 0.68820 0.94271 -0.38300
O 	O 	0.80890 0.69510 0.92119 -0.26400
O 	O 	0.25490 0.89120 0.06385 -0.38300
O 	O 	0.10980 0.98930 0.13775 -0.40200
O 	O 	0.53060 0.74430 0.03041 -0.34900
O 	O 	0.49750 0.85570 0.95153 -0.33100
O 	O 	0.83010 0.12100 0.09551 -0.39900
O 	O 	0.70210 0.03900 0.17163 -0.26100
O 	O 	0.27850 0.53620 0.35698 -0.40600
O 	O 	0.22460 0.66600 0.41849 -0.39400
O 	O 	0.03320 0.68110 0.61352 -0.41200
O 	O 	0.96210 0.56030 0.67619 -0.43800
O 	O 	0.44550 0.00390 0.29744 -0.39800
O 	O 	0.55760 0.09200 0.36598 -0.25800
O 	O 	0.14930 0.00050 0.36364 -0.37500
O 	O 	0.07670 0.88650 0.43284 -0.39400
O 	O 	0.36180 0.69060 0.55860 -0.37900
O 	O 	0.62440 0.68120 0.56684 -0.24800
O 	O 	0.84570 0.84050 0.54451 -0.35100
O 	O 	0.87610 0.74110 0.45989 -0.33800
Gd	Gd	0.27504 0.76286 0.98096 1.64100
Gd	Gd	0.23167 0.48581 0.24766 1.31300
Gd	Gd	0.11899 0.75955 0.51428 1.52200
Gd	Gd	0.21156 0.03019 0.24149 1.15300
C 	C 	0.74750 0.41170 0.90773 0.37500
C 	C 	0.61270 0.46380 0.95274 -0.01800
C 	C 	0.50950 0.54920 0.94126 -0.02900
C 	C 	0.49570 0.61240 0.87820 0.40400
C 	C 	0.87290 0.06730 0.90989 0.36000
C 	C 	0.02240 0.08950 0.93810 -0.02900
C 	C 	0.17840 0.04340 0.92235 -0.00500
C 	C 	0.27620 0.15160 0.98406 0.02500
C 	C 	0.12460 0.19620 0.00209 -0.02800
C 	C 	0.08100 0.27890 0.04980 0.32200
C 	C 	0.21770 0.95450 0.88110 0.33400
C 	C 	0.42440 0.18750 0.00280 0.28400
C 	C 	0.79370 0.41780 0.59656 0.37200
C 	C 	0.90850 0.46470 0.54935 -0.01300
C 	C 	0.01750 0.45480 0.44098 -0.02600
C 	C 	0.01010 0.40010 0.37807 0.39400
C 	C 	0.50730 0.97850 0.64790 0.33900
C 	C 	0.51870 0.05480 0.59360 -0.00100
C 	C 	0.65500 0.09460 0.57305 -0.03000
C 	C 	0.50430 0.20090 0.50364 -0.01800
C 	C 	0.36900 0.15940 0.52567 0.02100
C 	C 	0.20480 0.19560 0.50300 0.29800
C 	C 	0.50350 0.28270 0.45532 0.32300
C 	C 	0.82240 0.06690 0.59437 0.34800
N 	N 	0.92860 0.42230 0.49065 -0.14000
N 	N 	0.64350 0.16650 0.52818 -0.16600
N 	N 	0.99940 0.16420 0.97791 -0.15800
N 	N 	0.30360 0.07640 0.94439 -0.08900
N 	N 	0.37840 0.08630 0.56837 -0.09100
O 	O 	0.78440 0.32430 0.92076 -0.41800
O 	O 	0.81430 0.45740 0.86369 -0.40700
N 	N 	0.59940 0.41740 0.01093 -0.15000
O 	O 	0.56170 0.58020 0.82536 -0.43900
O 	O 	0.41320 0.69330 0.88526 -0.41200
O 	O 	0.93500 0.31180 0.05729 -0.38300
O 	O 	0.19110 0.30490 0.07881 -0.26400
O 	O 	0.74510 0.10880 0.93615 -0.38300
O 	O 	0.89020 0.01070 0.86225 -0.40200
O 	O 	0.46940 0.25570 0.96959 -0.34900
O 	O 	0.50250 0.14430 0.04847 -0.33100
O 	O 	0.16990 0.87900 0.90449 -0.39900
O 	O 	0.29790 0.96100 0.82837 -0.26100
O 	O 	0.72150 0.46380 0.64302 -0.40600
O 	O 	0.77540 0.33400 0.58151 -0.39400
O 	O 	0.96680 0.31890 0.38648 -0.41200
O 	O 	0.03790 0.43970 0.32381 -0.43800
O 	O 	0.55450 0.99610 0.70256 -0.39800
O 	O 	0.44240 0.90800 0.63402 -0.25800
O 	O 	0.85070 0.99950 0.63636 -0.37500
O 	O 	0.92330 0.11350 0.56716 -0.39400
O 	O 	0.63820 0.30940 0.44140 -0.37900
O 	O 	0.37560 0.31880 0.43316 -0.24800
O 	O 	0.15430 0.15950 0.45549 -0.35100
O 	O 	0.12390 0.25890 0.54011 -0.33800
Gd	Gd	0.72496 0.23714 0.01904 1.64100
Gd	Gd	0.76833 0.51419 0.75234 1.31300
Gd	Gd	0.88101 0.24045 0.48572 1.52200
Gd	Gd	0.78844 0.96981 0.75851 1.15300
