data_crystal

_cell_length_a 17.92700
_cell_length_b 12.86900
_cell_length_c 11.05500
_cell_angle_alpha 90.00000
_cell_angle_beta  93.14000
_cell_angle_gamma 90.00000

_symmetry_space_group_name_	'P 1'
_symmetry_space_group_name_H-M	'P 1'

loop_
_symmetry_equiv_pos_as_xyz
  x,y,z

loop_
_atom_site_label
_atom_site_type_symbol
_atom_site_fract_x
_atom_site_fract_y
_atom_site_fract_z
_atom_site_charge
Zn	Zn	0.41923 0.05185 0.99894 1.19200
C 	C 	0.36510 0.22560 0.82970 0.37400
C 	C 	0.30120 0.29300 0.77900 -0.09500
C 	C 	0.24720 0.32920 0.85220 -0.06000
H 	H 	0.24910 0.31540 0.93480 0.06300
C 	C 	0.18890 0.38840 0.79530 0.03500
C 	C 	0.18750 0.41010 0.67150 0.07700
C 	C 	0.24310 0.37470 0.59900 -0.15400
H 	H 	0.24210 0.39000 0.51670 0.06600
C 	C 	0.29880 0.31690 0.65300 0.04000
H 	H 	0.33660 0.29220 0.60640 0.01600
H 	H 	0.53800 0.14000 0.96700 0.27000
N 	N 	0.12728 0.43520 0.83890 -0.23800
N 	N 	0.09047 0.48240 0.74610 -0.20800
N 	N 	0.12593 0.46870 0.64440 -0.25000
O 	O 	0.35978 0.18700 0.93310 -0.45600
O 	O 	0.41789 0.21230 0.76100 -0.46600
O 	O 	0.51720 0.08540 0.93490 -0.86300
Zn	Zn	0.91923 0.55185 0.99894 1.21000
C 	C 	0.86510 0.72560 0.82970 0.37100
C 	C 	0.80120 0.79300 0.77900 -0.08100
C 	C 	0.74720 0.82920 0.85220 -0.06100
H 	H 	0.74910 0.81540 0.93480 0.06900
C 	C 	0.68890 0.88840 0.79530 0.04300
C 	C 	0.68750 0.91010 0.67150 0.07800
C 	C 	0.74310 0.87470 0.59900 -0.14400
H 	H 	0.74210 0.89000 0.51670 0.06700
C 	C 	0.79880 0.81690 0.65300 0.03600
H 	H 	0.83660 0.79220 0.60640 0.02700
H 	H 	0.03800 0.64000 0.96700 0.26600
N 	N 	0.62728 0.93520 0.83890 -0.23000
N 	N 	0.59047 0.98240 0.74610 -0.19000
N 	N 	0.62593 0.96870 0.64440 -0.24100
O 	O 	0.85978 0.68700 0.93310 -0.43400
O 	O 	0.91789 0.71230 0.76100 -0.42100
O 	O 	0.01720 0.58540 0.93490 -0.91800
Zn	Zn	0.58077 0.05185 0.50106 1.19400
C 	C 	0.63490 0.22560 0.67030 0.37600
C 	C 	0.69880 0.29300 0.72100 -0.09200
C 	C 	0.75280 0.32920 0.64780 -0.05600
H 	H 	0.75090 0.31540 0.56520 0.06400
C 	C 	0.81110 0.38840 0.70470 0.04300
C 	C 	0.81250 0.41010 0.82850 0.08100
C 	C 	0.75690 0.37470 0.90100 -0.15000
H 	H 	0.75790 0.39000 0.98330 0.06500
C 	C 	0.70120 0.31690 0.84700 0.04100
H 	H 	0.66340 0.29220 0.89360 0.01600
H 	H 	0.46200 0.14000 0.53300 0.27000
N 	N 	0.87272 0.43520 0.66110 -0.22400
N 	N 	0.90953 0.48240 0.75390 -0.16800
N 	N 	0.87407 0.46870 0.85560 -0.23400
O 	O 	0.64022 0.18700 0.56690 -0.45400
O 	O 	0.58211 0.21230 0.73900 -0.46600
O 	O 	0.48280 0.08540 0.56510 -0.86200
Zn	Zn	0.08077 0.55185 0.50106 1.17700
C 	C 	0.13490 0.72560 0.67030 0.37800
C 	C 	0.19880 0.79300 0.72100 -0.10300
C 	C 	0.25280 0.82920 0.64780 -0.05500
H 	H 	0.25090 0.81540 0.56520 0.05900
C 	C 	0.31110 0.88840 0.70470 0.03500
C 	C 	0.31250 0.91010 0.82850 0.08200
C 	C 	0.25690 0.87470 0.90100 -0.15800
H 	H 	0.25790 0.89000 0.98330 0.06600
C 	C 	0.20120 0.81690 0.84700 0.04400
H 	H 	0.16340 0.79220 0.89360 0.00700
H 	H 	0.96200 0.64000 0.53300 0.27500
N 	N 	0.37272 0.93520 0.66110 -0.23200
N 	N 	0.40953 0.98240 0.75390 -0.19000
N 	N 	0.37407 0.96870 0.85560 -0.24100
O 	O 	0.14022 0.68700 0.56690 -0.47300
O 	O 	0.08211 0.71230 0.73900 -0.49800
O 	O 	0.98280 0.58540 0.56510 -0.78800
Zn	Zn	0.58077 0.94815 0.00106 1.19200
C 	C 	0.63490 0.77440 0.17030 0.37700
C 	C 	0.69880 0.70700 0.22100 -0.09200
C 	C 	0.75280 0.67080 0.14780 -0.05500
H 	H 	0.75090 0.68460 0.06520 0.06300
C 	C 	0.81110 0.61160 0.20470 0.04300
C 	C 	0.81250 0.58990 0.32850 0.08200
C 	C 	0.75690 0.62530 0.40100 -0.15000
H 	H 	0.75790 0.61000 0.48330 0.06600
C 	C 	0.70120 0.68310 0.34700 0.04200
H 	H 	0.66340 0.70780 0.39360 0.01600
H 	H 	0.46200 0.86000 0.03300 0.26900
N 	N 	0.87272 0.56480 0.16110 -0.22400
N 	N 	0.90953 0.51760 0.25390 -0.16600
N 	N 	0.87407 0.53130 0.35560 -0.23300
O 	O 	0.64022 0.81300 0.06690 -0.45500
O 	O 	0.58211 0.78770 0.23900 -0.46600
O 	O 	0.48280 0.91460 0.06510 -0.86400
Zn	Zn	0.08077 0.44815 0.00106 1.17600
C 	C 	0.13490 0.27440 0.17030 0.37800
C 	C 	0.19880 0.20700 0.22100 -0.10300
C 	C 	0.25280 0.17080 0.14780 -0.05600
H 	H 	0.25090 0.18460 0.06520 0.05900
C 	C 	0.31110 0.11160 0.20470 0.03500
C 	C 	0.31250 0.08990 0.32850 0.08000
C 	C 	0.25690 0.12530 0.40100 -0.15800
H 	H 	0.25790 0.11000 0.48330 0.06300
C 	C 	0.20120 0.18310 0.34700 0.04300
H 	H 	0.16340 0.20780 0.39360 0.00600
H 	H 	0.96200 0.36000 0.03300 0.27600
N 	N 	0.37272 0.06480 0.16110 -0.23100
N 	N 	0.40953 0.01760 0.25390 -0.19000
N 	N 	0.37407 0.03130 0.35560 -0.24200
O 	O 	0.14022 0.31300 0.06690 -0.47300
O 	O 	0.08211 0.28770 0.23900 -0.49900
O 	O 	0.98280 0.41460 0.06510 -0.78600
Zn	Zn	0.41923 0.94815 0.49894 1.19400
C 	C 	0.36510 0.77440 0.32970 0.37500
C 	C 	0.30120 0.70700 0.27900 -0.09500
C 	C 	0.24720 0.67080 0.35220 -0.06100
H 	H 	0.24910 0.68460 0.43480 0.06200
C 	C 	0.18890 0.61160 0.29530 0.03400
C 	C 	0.18750 0.58990 0.17150 0.07600
C 	C 	0.24310 0.62530 0.09900 -0.15400
H 	H 	0.24210 0.61000 0.01670 0.06400
C 	C 	0.29880 0.68310 0.15300 0.03900
H 	H 	0.33660 0.70780 0.10640 0.01500
H 	H 	0.53800 0.86000 0.46700 0.27100
N 	N 	0.12728 0.56480 0.33890 -0.23900
N 	N 	0.09047 0.51760 0.24610 -0.20800
N 	N 	0.12593 0.53130 0.14440 -0.25000
O 	O 	0.35978 0.81300 0.43310 -0.45600
O 	O 	0.41789 0.78770 0.26100 -0.46700
O 	O 	0.51720 0.91460 0.43490 -0.86200
Zn	Zn	0.91923 0.44815 0.49894 1.21200
C 	C 	0.86510 0.27440 0.32970 0.37100
C 	C 	0.80120 0.20700 0.27900 -0.08100
C 	C 	0.74720 0.17080 0.35220 -0.06100
H 	H 	0.74910 0.18460 0.43480 0.06800
C 	C 	0.68890 0.11160 0.29530 0.04300
C 	C 	0.68750 0.08990 0.17150 0.07900
C 	C 	0.74310 0.12530 0.09900 -0.14400
H 	H 	0.74210 0.11000 0.01670 0.06900
C 	C 	0.79880 0.18310 0.15300 0.03700
H 	H 	0.83660 0.20780 0.10640 0.02800
H 	H 	0.03800 0.36000 0.46700 0.26400
N 	N 	0.62728 0.06480 0.33890 -0.23200
N 	N 	0.59047 0.01760 0.24610 -0.19000
N 	N 	0.62593 0.03130 0.14440 -0.23900
O 	O 	0.85978 0.31300 0.43310 -0.43400
O 	O 	0.91789 0.28770 0.26100 -0.41900
O 	O 	0.01720 0.41460 0.43490 -0.92200
Zn	Zn	0.50000 0.10186 0.75000 1.21100
Zn	Zn	0.00000 0.60186 0.75000 1.17500
Zn	Zn	0.50000 0.89814 0.25000 1.21100
Zn	Zn	-0.00000 0.39814 0.25000 1.17400
