data_crystal

_cell_length_a 14.69780
_cell_length_b 19.39330
_cell_length_c 10.35600
_cell_angle_alpha 90.00000
_cell_angle_beta  90.00000
_cell_angle_gamma 90.00000

_symmetry_space_group_name_	'P 1'
_symmetry_space_group_name_H-M	'P 1'

loop_
_symmetry_equiv_pos_as_xyz
  x,y,z

loop_
_atom_site_label
_atom_site_type_symbol
_atom_site_fract_x
_atom_site_fract_y
_atom_site_fract_z
_atom_site_charge
Cu	Cu	0.34552 0.38215 0.75452 0.81100
N 	N 	0.09470 0.33589 0.32960 -0.24200
N 	N 	0.32760 0.52242 0.44490 -0.19600
N 	N 	0.34420 0.45002 0.61340 -0.23100
N 	N 	0.40650 0.50304 0.62510 -0.24100
N 	N 	0.50970 0.62976 0.58220 -0.16400
N 	N 	0.44230 0.64023 0.38830 -0.24000
N 	N 	0.50330 0.69355 0.40000 -0.23100
N 	N 	0.74210 0.81770 0.68240 -0.23600
C 	C 	0.12710 0.39290 0.27190 0.04400
H 	H 	0.10370 0.40450 0.19130 -0.02200
C 	C 	0.19300 0.43530 0.32470 -0.10600
H 	H 	0.21450 0.47300 0.27830 0.04500
C 	C 	0.22660 0.42160 0.44650 -0.00400
C 	C 	0.18940 0.36530 0.51040 -0.09900
H 	H 	0.20700 0.35530 0.59460 0.02000
C 	C 	0.12600 0.32430 0.44810 0.03700
H 	H 	0.10380 0.28600 0.49210 -0.02200
C 	C 	0.29920 0.46420 0.50360 0.08800
C 	C 	0.39340 0.54310 0.52290 0.03600
C 	C 	0.44860 0.60490 0.49780 0.02300
C 	C 	0.54080 0.68510 0.51780 0.07500
C 	C 	0.60860 0.73190 0.57370 0.00300
C 	C 	0.63490 0.79230 0.51480 -0.09600
H 	H 	0.60890 0.80530 0.43670 0.01400
C 	C 	0.70050 0.83390 0.57220 0.04600
H 	H 	0.71610 0.87500 0.53170 -0.00600
C 	C 	0.71600 0.75870 0.73860 0.05600
H 	H 	0.74400 0.74640 0.81580 -0.01600
C 	C 	0.65050 0.71500 0.68960 -0.10200
H 	H 	0.63460 0.67490 0.73350 0.06200
Cu	Cu	0.15448 0.11785 0.25452 0.80600
N 	N 	0.40530 0.16411 0.82960 -0.23000
N 	N 	0.17240 0.97758 0.94490 -0.19400
N 	N 	0.15580 0.04998 0.11340 -0.23500
N 	N 	0.09350 0.99696 0.12510 -0.25900
N 	N 	0.99030 0.87024 0.08220 -0.09600
N 	N 	0.05770 0.85977 0.88830 -0.26900
N 	N 	0.99670 0.80645 0.90000 -0.16800
N 	N 	0.75790 0.68230 0.18240 -0.23900
C 	C 	0.37290 0.10710 0.77190 0.05500
H 	H 	0.39630 0.09550 0.69130 -0.00600
C 	C 	0.30700 0.06470 0.82470 -0.10700
H 	H 	0.28550 0.02700 0.77830 0.05100
C 	C 	0.27340 0.07840 0.94650 0.01100
C 	C 	0.31060 0.13470 0.01040 -0.10600
H 	H 	0.29300 0.14470 0.09460 0.02700
C 	C 	0.37400 0.17570 0.94810 0.05300
H 	H 	0.39620 0.21400 0.99210 -0.00300
C 	C 	0.20080 0.03580 0.00360 0.07900
C 	C 	0.10660 0.95690 0.02290 0.03700
C 	C 	0.05140 0.89510 0.99780 -0.06300
C 	C 	0.95920 0.81490 0.01780 0.09000
C 	C 	0.89140 0.76810 0.07370 0.02600
C 	C 	0.86510 0.70770 0.01480 -0.10900
H 	H 	0.89110 0.69470 0.93670 0.03700
C 	C 	0.79950 0.66610 0.07220 0.06000
H 	H 	0.78390 0.62500 0.03170 -0.00800
C 	C 	0.78400 0.74130 0.23860 0.06600
H 	H 	0.75600 0.75360 0.31580 -0.01900
C 	C 	0.84950 0.78500 0.18960 -0.10700
H 	H 	0.86540 0.82510 0.23350 0.07700
Cu	Cu	0.65448 0.38215 0.74548 0.81200
N 	N 	0.90530 0.33589 0.17040 -0.19700
N 	N 	0.67240 0.52242 0.05510 -0.19900
N 	N 	0.65580 0.45002 0.88660 -0.23200
N 	N 	0.59350 0.50304 0.87490 -0.24300
N 	N 	0.49030 0.62976 0.91780 -0.16200
N 	N 	0.55770 0.64023 0.11170 -0.23900
N 	N 	0.49670 0.69355 0.10000 -0.23300
N 	N 	0.25790 0.81770 0.81760 -0.23600
C 	C 	0.87290 0.39290 0.22810 0.05000
H 	H 	0.89630 0.40450 0.30870 0.01800
C 	C 	0.80700 0.43530 0.17530 -0.08200
H 	H 	0.78550 0.47300 0.22170 0.04800
C 	C 	0.77340 0.42160 0.05350 -0.01400
C 	C 	0.81060 0.36530 0.98960 -0.06700
H 	H 	0.79300 0.35530 0.90540 0.02000
C 	C 	0.87400 0.32430 0.05190 0.03800
H 	H 	0.89620 0.28600 0.00790 0.02600
C 	C 	0.70080 0.46420 0.99640 0.10100
C 	C 	0.60660 0.54310 0.97710 0.04200
C 	C 	0.55140 0.60490 0.00220 0.01700
C 	C 	0.45920 0.68510 0.98220 0.08000
C 	C 	0.39140 0.73190 0.92630 -0.00300
C 	C 	0.36510 0.79230 0.98520 -0.08400
H 	H 	0.39110 0.80530 0.06330 0.00700
C 	C 	0.29950 0.83390 0.92780 0.03800
H 	H 	0.28390 0.87500 0.96830 -0.00300
C 	C 	0.28400 0.75870 0.76140 0.05200
H 	H 	0.25600 0.74640 0.68420 -0.01600
C 	C 	0.34950 0.71500 0.81040 -0.09700
H 	H 	0.36540 0.67490 0.76650 0.06100
Cu	Cu	0.84552 0.11785 0.24548 0.81900
N 	N 	0.59470 0.16411 0.67040 -0.22700
N 	N 	0.82760 0.97758 0.55510 -0.19100
N 	N 	0.84420 0.04998 0.38660 -0.22600
N 	N 	0.90650 0.99696 0.37490 -0.21000
N 	N 	0.00970 0.87024 0.41780 -0.22900
N 	N 	0.94230 0.85977 0.61170 -0.20800
N 	N 	0.00330 0.80645 0.60000 -0.28000
N 	N 	0.24210 0.68230 0.31760 -0.23800
C 	C 	0.62710 0.10710 0.72810 0.04900
H 	H 	0.60370 0.09550 0.80870 -0.00400
C 	C 	0.69300 0.06470 0.67530 -0.09700
H 	H 	0.71450 0.02700 0.72170 0.04800
C 	C 	0.72660 0.07840 0.55350 -0.00300
C 	C 	0.68940 0.13470 0.48960 -0.08900
H 	H 	0.70700 0.14470 0.40540 0.02200
C 	C 	0.62600 0.17570 0.55190 0.04200
H 	H 	0.60380 0.21400 0.50790 -0.00100
C 	C 	0.79920 0.03580 0.49640 0.09600
C 	C 	0.89340 0.95690 0.47710 0.03100
C 	C 	0.94860 0.89510 0.50220 0.12400
C 	C 	0.04080 0.81490 0.48220 0.05300
C 	C 	0.10860 0.76810 0.42630 -0.00900
C 	C 	0.13490 0.70770 0.48520 -0.10000
H 	H 	0.10890 0.69470 0.56330 0.00300
C 	C 	0.20050 0.66610 0.42780 0.03700
H 	H 	0.21610 0.62500 0.46830 -0.00800
C 	C 	0.21600 0.74130 0.26140 0.04700
H 	H 	0.24400 0.75360 0.18420 -0.01800
C 	C 	0.15050 0.78500 0.31040 -0.10300
H 	H 	0.13460 0.82510 0.26650 0.05100
Cu	Cu	0.65448 0.61785 0.24548 0.81200
N 	N 	0.90530 0.66411 0.67040 -0.19900
N 	N 	0.67240 0.47758 0.55510 -0.19500
N 	N 	0.65580 0.54998 0.38660 -0.23200
N 	N 	0.59350 0.49696 0.37490 -0.24200
N 	N 	0.49030 0.37024 0.41780 -0.16400
N 	N 	0.55770 0.35977 0.61170 -0.24000
N 	N 	0.49670 0.30645 0.60000 -0.23100
N 	N 	0.25790 0.18230 0.31760 -0.23800
C 	C 	0.87290 0.60710 0.72810 0.05400
H 	H 	0.89630 0.59550 0.80870 0.01600
C 	C 	0.80700 0.56470 0.67530 -0.08800
H 	H 	0.78550 0.52700 0.72170 0.05000
C 	C 	0.77340 0.57840 0.55350 -0.00300
C 	C 	0.81060 0.63470 0.48960 -0.07900
H 	H 	0.79300 0.64470 0.40540 0.02400
C 	C 	0.87400 0.67570 0.55190 0.04600
H 	H 	0.89620 0.71400 0.50790 0.02400
C 	C 	0.70080 0.53580 0.49640 0.09400
C 	C 	0.60660 0.45690 0.47710 0.03600
C 	C 	0.55140 0.39510 0.50220 0.02300
C 	C 	0.45920 0.31490 0.48220 0.07500
C 	C 	0.39140 0.26810 0.42630 0.00200
C 	C 	0.36510 0.20770 0.48520 -0.09600
H 	H 	0.39110 0.19470 0.56330 0.01400
C 	C 	0.29950 0.16610 0.42780 0.04300
H 	H 	0.28390 0.12500 0.46830 -0.00600
C 	C 	0.28400 0.24130 0.26140 0.05300
H 	H 	0.25600 0.25360 0.18420 -0.01800
C 	C 	0.34950 0.28500 0.31040 -0.10100
H 	H 	0.36540 0.32510 0.26650 0.06200
Cu	Cu	0.84552 0.88215 0.74548 0.82000
N 	N 	0.59470 0.83589 0.17040 -0.22500
N 	N 	0.82760 0.02242 0.05510 -0.19400
N 	N 	0.84420 0.95002 0.88660 -0.22700
N 	N 	0.90650 0.00304 0.87490 -0.21100
N 	N 	0.00970 0.12976 0.91780 -0.22700
N 	N 	0.94230 0.14023 0.11170 -0.20700
N 	N 	0.00330 0.19355 0.10000 -0.28200
N 	N 	0.24210 0.31770 0.81760 -0.23600
C 	C 	0.62710 0.89290 0.22810 0.04400
H 	H 	0.60370 0.90450 0.30870 -0.00300
C 	C 	0.69300 0.93530 0.17530 -0.08900
H 	H 	0.71450 0.97300 0.22170 0.04500
C 	C 	0.72660 0.92160 0.05350 -0.01700
C 	C 	0.68940 0.86530 0.98960 -0.07300
H 	H 	0.70700 0.85530 0.90540 0.01700
C 	C 	0.62600 0.82430 0.05190 0.03100
H 	H 	0.60380 0.78600 0.00790 0.00100
C 	C 	0.79920 0.96420 0.99640 0.10300
C 	C 	0.89340 0.04310 0.97710 0.03500
C 	C 	0.94860 0.10490 0.00220 0.11800
C 	C 	0.04080 0.18510 0.98220 0.05900
C 	C 	0.10860 0.23190 0.92630 -0.01400
C 	C 	0.13490 0.29230 0.98520 -0.08800
H 	H 	0.10890 0.30530 0.06330 -0.00300
C 	C 	0.20050 0.33390 0.92780 0.03200
H 	H 	0.21610 0.37500 0.96830 -0.00500
C 	C 	0.21600 0.25870 0.76140 0.04500
H 	H 	0.24400 0.24640 0.68420 -0.01600
C 	C 	0.15050 0.21500 0.81040 -0.10000
H 	H 	0.13460 0.17490 0.76650 0.05000
Cu	Cu	0.34552 0.61785 0.25452 0.81000
N 	N 	0.09470 0.66411 0.82960 -0.24600
N 	N 	0.32760 0.47758 0.94490 -0.19200
N 	N 	0.34420 0.54998 0.11340 -0.23100
N 	N 	0.40650 0.49696 0.12510 -0.24200
N 	N 	0.50970 0.37024 0.08220 -0.16500
N 	N 	0.44230 0.35977 0.88830 -0.24100
N 	N 	0.50330 0.30645 0.90000 -0.22900
N 	N 	0.74210 0.18230 0.18240 -0.23700
C 	C 	0.12710 0.60710 0.77190 0.05000
H 	H 	0.10370 0.59550 0.69130 -0.02400
C 	C 	0.19300 0.56470 0.82470 -0.11500
H 	H 	0.21450 0.52700 0.77830 0.04800
C 	C 	0.22660 0.57840 0.94650 0.01200
C 	C 	0.18940 0.63470 0.01040 -0.11800
H 	H 	0.20700 0.64470 0.09460 0.02600
C 	C 	0.12600 0.67570 0.94810 0.05000
H 	H 	0.10380 0.71400 0.99210 -0.02500
C 	C 	0.29920 0.53580 0.00360 0.07800
C 	C 	0.39340 0.45690 0.02290 0.03000
C 	C 	0.44860 0.39510 0.99780 0.02900
C 	C 	0.54080 0.31490 0.01780 0.07000
C 	C 	0.60860 0.26810 0.07370 0.00700
C 	C 	0.63490 0.20770 0.01480 -0.10600
H 	H 	0.60890 0.19470 0.93670 0.01900
C 	C 	0.70050 0.16610 0.07220 0.05000
H 	H 	0.71610 0.12500 0.03170 -0.00900
C 	C 	0.71600 0.24130 0.23860 0.05800
H 	H 	0.74400 0.25360 0.31580 -0.01700
C 	C 	0.65050 0.28500 0.18960 -0.10500
H 	H 	0.63460 0.32510 0.23350 0.06300
Cu	Cu	0.15448 0.88215 0.75452 0.80600
N 	N 	0.40530 0.83589 0.32960 -0.22700
N 	N 	0.17240 0.02242 0.44490 -0.19900
N 	N 	0.15580 0.95002 0.61340 -0.23600
N 	N 	0.09350 0.00304 0.62510 -0.25900
N 	N 	0.99030 0.12976 0.58220 -0.09300
N 	N 	0.05770 0.14023 0.38830 -0.26900
N 	N 	0.99670 0.19355 0.40000 -0.16900
N 	N 	0.75790 0.31770 0.68240 -0.23800
C 	C 	0.37290 0.89290 0.27190 0.05000
H 	H 	0.39630 0.90450 0.19130 -0.00500
C 	C 	0.30700 0.93530 0.32470 -0.09900
H 	H 	0.28550 0.97300 0.27830 0.04700
C 	C 	0.27340 0.92160 0.44650 -0.00200
C 	C 	0.31060 0.86530 0.51040 -0.09000
H 	H 	0.29300 0.85530 0.59460 0.02200
C 	C 	0.37400 0.82430 0.44810 0.04200
H 	H 	0.39620 0.78600 0.49210 -0.00100
C 	C 	0.20080 0.96420 0.50360 0.08700
C 	C 	0.10660 0.04310 0.52290 0.04600
C 	C 	0.05140 0.10490 0.49780 -0.07200
C 	C 	0.95920 0.18510 0.51780 0.09600
C 	C 	0.89140 0.23190 0.57370 0.02100
C 	C 	0.86510 0.29230 0.51480 -0.09800
H 	H 	0.89110 0.30530 0.43670 0.03200
C 	C 	0.79950 0.33390 0.57220 0.05600
H 	H 	0.78390 0.37500 0.53170 -0.00500
C 	C 	0.78400 0.25870 0.73860 0.06500
H 	H 	0.75600 0.24640 0.81580 -0.01800
C 	C 	0.84950 0.21500 0.68960 -0.10400
H 	H 	0.86540 0.17490 0.73350 0.07600
Cu	Cu	0.00000 0.26499 0.25000 0.77600
Cu	Cu	0.50000 0.23501 0.75000 0.82100
Cu	Cu	-0.00000 0.73501 0.75000 0.77700
Cu	Cu	0.50000 0.76499 0.25000 0.82100
Cu	Cu	0.50000 0.50941 0.75000 0.80200
Cu	Cu	-0.00000 0.99059 0.25000 0.75800
Cu	Cu	0.50000 0.49059 0.25000 0.80100
Cu	Cu	0.00000 0.00941 0.75000 0.75800
