data_crystal

_cell_length_a 11.40600
_cell_length_b 14.98100
_cell_length_c 16.86700
_cell_angle_alpha 90.00000
_cell_angle_beta  90.00000
_cell_angle_gamma 90.00000

_symmetry_space_group_name_	'P 1'
_symmetry_space_group_name_H-M	'P 1'

loop_
_symmetry_equiv_pos_as_xyz
  x,y,z

loop_
_atom_site_label
_atom_site_type_symbol
_atom_site_fract_x
_atom_site_fract_y
_atom_site_fract_z
_atom_site_charge
N 	N 	0.34030 0.44320 0.64912 -0.23300
N 	N 	0.45080 0.43230 0.61869 -0.21700
H 	H 	0.51340 0.44970 0.64250 0.10100
N 	N 	0.17920 0.30830 0.34588 -0.23300
N 	N 	0.24020 0.23390 0.36515 -0.20200
H 	H 	0.23730 0.18520 0.33820 0.07500
C 	C 	0.13990 0.39970 0.61010 -0.66000
H 	H 	0.12620 0.39280 0.66590 0.18000
H 	H 	0.10880 0.34900 0.58230 0.19800
H 	H 	0.10210 0.45300 0.59170 0.18400
C 	C 	0.26980 0.40620 0.59510 0.20800
C 	C 	0.33390 0.37300 0.52990 -0.15600
C 	C 	0.45130 0.39100 0.54700 0.26100
C 	C 	0.56110 0.37190 0.50230 -0.77100
H 	H 	0.61350 0.42180 0.50680 0.24300
H 	H 	0.54260 0.36190 0.44750 0.25200
H 	H 	0.59790 0.31960 0.52380 0.23800
C 	C 	0.38130 0.17080 0.46260 -0.69200
H 	H 	0.34470 0.11420 0.45250 0.19900
H 	H 	0.39110 0.17860 0.51870 0.21000
H 	H 	0.45650 0.17250 0.43710 0.20400
C 	C 	0.30560 0.24400 0.43060 0.22900
C 	C 	0.28590 0.32980 0.45740 -0.14200
C 	C 	0.20750 0.36830 0.40130 0.21800
C 	C 	0.16270 0.46160 0.39760 -0.67900
H 	H 	0.22520 0.50100 0.38250 0.20700
H 	H 	0.13320 0.47870 0.44870 0.19800
H 	H 	0.10080 0.46510 0.35920 0.17600
N 	N 	0.15970 0.94320 0.35088 -0.23100
N 	N 	0.04920 0.93230 0.38131 -0.21300
H 	H 	0.98660 0.94970 0.35750 0.09500
N 	N 	0.32080 0.80830 0.65412 -0.23100
N 	N 	0.25980 0.73390 0.63485 -0.20200
H 	H 	0.26270 0.68520 0.66180 0.07700
C 	C 	0.36010 0.89970 0.38990 -0.66400
H 	H 	0.37380 0.89280 0.33410 0.18100
H 	H 	0.39120 0.84900 0.41770 0.20000
H 	H 	0.39790 0.95300 0.40830 0.18500
C 	C 	0.23020 0.90620 0.40490 0.21100
C 	C 	0.16610 0.87300 0.47010 -0.15900
C 	C 	0.04870 0.89100 0.45300 0.26900
C 	C 	0.93890 0.87190 0.49770 -0.78500
H 	H 	0.88650 0.92180 0.49320 0.24500
H 	H 	0.95740 0.86190 0.55250 0.25300
H 	H 	0.90210 0.81960 0.47620 0.24100
C 	C 	0.11870 0.67080 0.53740 -0.69400
H 	H 	0.15530 0.61420 0.54750 0.20000
H 	H 	0.10890 0.67860 0.48130 0.21100
H 	H 	0.04350 0.67250 0.56290 0.20600
C 	C 	0.19440 0.74400 0.56940 0.23000
C 	C 	0.21410 0.82980 0.54260 -0.13800
C 	C 	0.29250 0.86830 0.59870 0.21400
C 	C 	0.33730 0.96160 0.60240 -0.66200
H 	H 	0.27480 0.00100 0.61750 0.19900
H 	H 	0.36680 0.97870 0.55130 0.19400
H 	H 	0.39920 0.96510 0.64080 0.17200
N 	N 	0.65970 0.55680 0.14912 -0.23200
N 	N 	0.54920 0.56770 0.11869 -0.21600
H 	H 	0.48660 0.55030 0.14250 0.10100
N 	N 	0.82080 0.69170 0.84588 -0.23300
N 	N 	0.75980 0.76610 0.86515 -0.20300
H 	H 	0.76270 0.81480 0.83820 0.07600
C 	C 	0.86010 0.60030 0.11010 -0.66400
H 	H 	0.87380 0.60720 0.16590 0.18100
H 	H 	0.89120 0.65100 0.08230 0.20100
H 	H 	0.89790 0.54700 0.09170 0.18600
C 	C 	0.73020 0.59380 0.09510 0.20900
C 	C 	0.66610 0.62700 0.02990 -0.15400
C 	C 	0.54870 0.60900 0.04700 0.26000
C 	C 	0.43890 0.62810 0.00230 -0.77200
H 	H 	0.38650 0.57820 0.00680 0.24200
H 	H 	0.45740 0.63810 0.94750 0.25300
H 	H 	0.40210 0.68040 0.02380 0.23800
C 	C 	0.61870 0.82920 0.96260 -0.70000
H 	H 	0.65530 0.88580 0.95250 0.20100
H 	H 	0.60890 0.82140 0.01870 0.21300
H 	H 	0.54350 0.82750 0.93710 0.20600
C 	C 	0.69440 0.75600 0.93060 0.23200
C 	C 	0.71410 0.67020 0.95740 -0.14500
C 	C 	0.79250 0.63170 0.90130 0.21800
C 	C 	0.83730 0.53840 0.89760 -0.67700
H 	H 	0.77480 0.49900 0.88250 0.20600
H 	H 	0.86680 0.52130 0.94870 0.19600
H 	H 	0.89920 0.53490 0.85920 0.17500
N 	N 	0.84030 0.05680 0.85088 -0.23100
N 	N 	0.95080 0.06770 0.88131 -0.21200
H 	H 	0.01340 0.05030 0.85750 0.09700
N 	N 	0.67920 0.19170 0.15412 -0.23100
N 	N 	0.74020 0.26610 0.13485 -0.20100
H 	H 	0.73730 0.31480 0.16180 0.07600
C 	C 	0.63990 0.10030 0.88990 -0.66300
H 	H 	0.62620 0.10720 0.83410 0.18100
H 	H 	0.60880 0.15100 0.91770 0.19900
H 	H 	0.60210 0.04700 0.90830 0.18500
C 	C 	0.76980 0.09380 0.90490 0.21000
C 	C 	0.83390 0.12700 0.97010 -0.15800
C 	C 	0.95130 0.10900 0.95300 0.25600
C 	C 	0.06110 0.12810 0.99770 -0.74900
H 	H 	0.11350 0.07820 0.99320 0.23600
H 	H 	0.04260 0.13810 0.05250 0.24000
H 	H 	0.09790 0.18040 0.97620 0.23100
C 	C 	0.88130 0.32920 0.03740 -0.67400
H 	H 	0.84470 0.38580 0.04750 0.19500
H 	H 	0.89110 0.32140 0.98130 0.20200
H 	H 	0.95650 0.32750 0.06290 0.20100
C 	C 	0.80560 0.25600 0.06940 0.22500
C 	C 	0.78590 0.17020 0.04260 -0.13400
C 	C 	0.70750 0.13170 0.09870 0.21300
C 	C 	0.66270 0.03840 0.10240 -0.66100
H 	H 	0.72520 0.99900 0.11750 0.20000
H 	H 	0.63320 0.02130 0.05130 0.19400
H 	H 	0.60080 0.03490 0.14080 0.17200
N 	N 	0.65970 0.55680 0.35088 -0.23200
N 	N 	0.54920 0.56770 0.38131 -0.21600
H 	H 	0.48660 0.55030 0.35750 0.10100
N 	N 	0.82080 0.69170 0.65412 -0.23300
N 	N 	0.75980 0.76610 0.63485 -0.20200
H 	H 	0.76270 0.81480 0.66180 0.07500
C 	C 	0.86010 0.60030 0.38990 -0.66000
H 	H 	0.87380 0.60720 0.33410 0.18000
H 	H 	0.89120 0.65100 0.41770 0.19800
H 	H 	0.89790 0.54700 0.40830 0.18400
C 	C 	0.73020 0.59380 0.40490 0.20800
C 	C 	0.66610 0.62700 0.47010 -0.15600
C 	C 	0.54870 0.60900 0.45300 0.26100
C 	C 	0.43890 0.62810 0.49770 -0.77100
H 	H 	0.38650 0.57820 0.49320 0.24300
H 	H 	0.45740 0.63810 0.55250 0.25200
H 	H 	0.40210 0.68040 0.47620 0.23800
C 	C 	0.61870 0.82920 0.53740 -0.69200
H 	H 	0.65530 0.88580 0.54750 0.19900
H 	H 	0.60890 0.82140 0.48130 0.21000
H 	H 	0.54350 0.82750 0.56290 0.20400
C 	C 	0.69440 0.75600 0.56940 0.22900
C 	C 	0.71410 0.67020 0.54260 -0.14200
C 	C 	0.79250 0.63170 0.59870 0.21800
C 	C 	0.83730 0.53840 0.60240 -0.67900
H 	H 	0.77480 0.49900 0.61750 0.20700
H 	H 	0.86680 0.52130 0.55130 0.19800
H 	H 	0.89920 0.53490 0.64080 0.17600
N 	N 	0.84030 0.05680 0.64912 -0.23100
N 	N 	0.95080 0.06770 0.61869 -0.21300
H 	H 	0.01340 0.05030 0.64250 0.09500
N 	N 	0.67920 0.19170 0.34588 -0.23100
N 	N 	0.74020 0.26610 0.36515 -0.20200
H 	H 	0.73730 0.31480 0.33820 0.07700
C 	C 	0.63990 0.10030 0.61010 -0.66400
H 	H 	0.62620 0.10720 0.66590 0.18100
H 	H 	0.60880 0.15100 0.58230 0.20000
H 	H 	0.60210 0.04700 0.59170 0.18500
C 	C 	0.76980 0.09380 0.59510 0.21100
C 	C 	0.83390 0.12700 0.52990 -0.15900
C 	C 	0.95130 0.10900 0.54700 0.26900
C 	C 	0.06110 0.12810 0.50230 -0.78500
H 	H 	0.11350 0.07820 0.50680 0.24500
H 	H 	0.04260 0.13810 0.44750 0.25300
H 	H 	0.09790 0.18040 0.52380 0.24100
C 	C 	0.88130 0.32920 0.46260 -0.69400
H 	H 	0.84470 0.38580 0.45250 0.20000
H 	H 	0.89110 0.32140 0.51870 0.21100
H 	H 	0.95650 0.32750 0.43710 0.20600
C 	C 	0.80560 0.25600 0.43060 0.23000
C 	C 	0.78590 0.17020 0.45740 -0.13800
C 	C 	0.70750 0.13170 0.40130 0.21400
C 	C 	0.66270 0.03840 0.39760 -0.66200
H 	H 	0.72520 0.99900 0.38250 0.19900
H 	H 	0.63320 0.02130 0.44870 0.19400
H 	H 	0.60080 0.03490 0.35920 0.17200
N 	N 	0.34030 0.44320 0.85088 -0.23200
N 	N 	0.45080 0.43230 0.88131 -0.21600
H 	H 	0.51340 0.44970 0.85750 0.10100
N 	N 	0.17920 0.30830 0.15412 -0.23300
N 	N 	0.24020 0.23390 0.13485 -0.20300
H 	H 	0.23730 0.18520 0.16180 0.07600
C 	C 	0.13990 0.39970 0.88990 -0.66400
H 	H 	0.12620 0.39280 0.83410 0.18100
H 	H 	0.10880 0.34900 0.91770 0.20100
H 	H 	0.10210 0.45300 0.90830 0.18600
C 	C 	0.26980 0.40620 0.90490 0.20900
C 	C 	0.33390 0.37300 0.97010 -0.15400
C 	C 	0.45130 0.39100 0.95300 0.26000
C 	C 	0.56110 0.37190 0.99770 -0.77200
H 	H 	0.61350 0.42180 0.99320 0.24200
H 	H 	0.54260 0.36190 0.05250 0.25300
H 	H 	0.59790 0.31960 0.97620 0.23800
C 	C 	0.38130 0.17080 0.03740 -0.70000
H 	H 	0.34470 0.11420 0.04750 0.20100
H 	H 	0.39110 0.17860 0.98130 0.21300
H 	H 	0.45650 0.17250 0.06290 0.20600
C 	C 	0.30560 0.24400 0.06940 0.23200
C 	C 	0.28590 0.32980 0.04260 -0.14500
C 	C 	0.20750 0.36830 0.09870 0.21800
C 	C 	0.16270 0.46160 0.10240 -0.67700
H 	H 	0.22520 0.50100 0.11750 0.20600
H 	H 	0.13320 0.47870 0.05130 0.19600
H 	H 	0.10080 0.46510 0.14080 0.17500
N 	N 	0.15970 0.94320 0.14912 -0.23100
N 	N 	0.04920 0.93230 0.11869 -0.21200
H 	H 	0.98660 0.94970 0.14250 0.09700
N 	N 	0.32080 0.80830 0.84588 -0.23100
N 	N 	0.25980 0.73390 0.86515 -0.20100
H 	H 	0.26270 0.68520 0.83820 0.07600
C 	C 	0.36010 0.89970 0.11010 -0.66300
H 	H 	0.37380 0.89280 0.16590 0.18100
H 	H 	0.39120 0.84900 0.08230 0.19900
H 	H 	0.39790 0.95300 0.09170 0.18500
C 	C 	0.23020 0.90620 0.09510 0.21000
C 	C 	0.16610 0.87300 0.02990 -0.15800
C 	C 	0.04870 0.89100 0.04700 0.25600
C 	C 	0.93890 0.87190 0.00230 -0.74900
H 	H 	0.88650 0.92180 0.00680 0.23600
H 	H 	0.95740 0.86190 0.94750 0.24000
H 	H 	0.90210 0.81960 0.02380 0.23100
C 	C 	0.11870 0.67080 0.96260 -0.67400
H 	H 	0.15530 0.61420 0.95250 0.19500
H 	H 	0.10890 0.67860 0.01870 0.20200
H 	H 	0.04350 0.67250 0.93710 0.20100
C 	C 	0.19440 0.74400 0.93060 0.22500
C 	C 	0.21410 0.82980 0.95740 -0.13400
C 	C 	0.29250 0.86830 0.90130 0.21300
C 	C 	0.33730 0.96160 0.89760 -0.66100
H 	H 	0.27480 0.00100 0.88250 0.20000
H 	H 	0.36680 0.97870 0.94870 0.19400
H 	H 	0.39920 0.96510 0.85920 0.17200
I 	I 	0.50293 0.62500 0.75000 -0.44500
Cu	Cu	0.31122 0.51716 0.75000 0.83600
Cu	Cu	0.43060 0.81664 0.75000 0.83400
N 	N 	0.15900 0.57880 0.75000 -0.21000
C 	C 	0.07180 0.61380 0.75000 -0.21500
I 	I 	0.99707 0.12500 0.25000 -0.43300
Cu	Cu	0.18878 0.01716 0.25000 0.83200
Cu	Cu	0.06940 0.31664 0.25000 0.83100
N 	N 	0.34100 0.07880 0.25000 -0.21100
C 	C 	0.42820 0.11380 0.25000 -0.21700
I 	I 	0.49707 0.37500 0.25000 -0.44500
Cu	Cu	0.68878 0.48284 0.25000 0.83600
Cu	Cu	0.56940 0.18336 0.25000 0.83400
N 	N 	0.84100 0.42120 0.25000 -0.21000
C 	C 	0.92820 0.38620 0.25000 -0.21500
I 	I 	0.00293 0.87500 0.75000 -0.43300
Cu	Cu	0.81122 0.98284 0.75000 0.83200
Cu	Cu	0.93060 0.68336 0.75000 0.83100
N 	N 	0.65900 0.92120 0.75000 -0.21100
C 	C 	0.57180 0.88620 0.75000 -0.21700
