data_crystal

_cell_length_a 18.19800
_cell_length_b 18.19800
_cell_length_c 28.87200
_cell_angle_alpha 90.00000
_cell_angle_beta  90.00000
_cell_angle_gamma 90.00000

_symmetry_space_group_name_	'P 1'
_symmetry_space_group_name_H-M	'P 1'

loop_
_symmetry_equiv_pos_as_xyz
  x,y,z

loop_
_atom_site_label
_atom_site_type_symbol
_atom_site_fract_x
_atom_site_fract_y
_atom_site_fract_z
_atom_site_charge
Zn	Zn	0.24231 0.05531 0.39258 1.19100
N 	N 	0.18984 0.04091 0.33198 -0.26700
N 	N 	0.16033 0.02474 0.25905 -0.16800
N 	N 	0.34931 0.20112 0.10296 -0.27200
N 	N 	0.25871 0.12373 0.11560 -0.16100
N 	N 	0.02174 0.82008 0.09785 -0.26700
N 	N 	0.09739 0.91115 0.11330 -0.15800
O 	O 	0.16480 0.06970 0.44074 -0.44900
O 	O 	0.15894 0.95127 0.42864 -0.30200
C 	C 	0.12910 0.96880 0.18540 -0.28700
H 	H 	0.10200 0.93320 0.20100 0.14000
C 	C 	0.16550 0.02360 0.20947 0.23400
C 	C 	0.20690 0.07590 0.18712 -0.28900
H 	H 	0.23060 0.11280 0.20370 0.13000
C 	C 	0.21256 0.07260 0.13923 0.24000
C 	C 	0.17530 0.01960 0.11435 -0.29200
H 	H 	0.17810 0.01840 0.08220 0.15200
C 	C 	0.13380 0.96830 0.13785 0.25000
C 	C 	0.21120 0.05100 0.28913 0.11100
H 	H 	0.25510 0.07310 0.28050 -0.03100
C 	C 	0.12180 0.00680 0.32901 -0.03500
H 	H 	0.09290 0.99360 0.35420 0.06600
C 	C 	0.10410 0.99560 0.28503 0.04800
H 	H 	0.06200 0.97270 0.27390 0.02200
C 	C 	0.31450 0.16240 0.13395 0.12900
H 	H 	0.32680 0.16170 0.16520 -0.03400
C 	C 	0.31360 0.18620 0.06185 0.00500
H 	H 	0.32590 0.20650 0.03330 0.01700
C 	C 	0.25890 0.13830 0.06885 0.01300
H 	H 	0.22730 0.11890 0.04660 0.03400
C 	C 	0.03770 0.87370 0.12738 0.11500
H 	H 	0.01130 0.88400 0.15420 -0.02100
C 	C 	0.07340 0.82430 0.06326 0.01700
H 	H 	0.07570 0.79340 0.03770 0.03000
C 	C 	0.12000 0.87980 0.07190 0.01500
H 	H 	0.15960 0.89440 0.05370 0.04400
C 	C 	0.13380 0.00900 0.44576 0.29500
C 	C 	0.06340 0.00500 0.47297 -0.02800
C 	C 	0.05280 0.05160 0.51061 0.03100
H 	H 	0.08800 0.08690 0.51770 0.03500
C 	C 	0.99050 0.04570 0.53740 -0.14400
Br	Br	0.99526 0.10591 0.59616 -0.44800
H 	H 	0.98500 0.07650 0.56420 0.29100
Zn	Zn	0.25769 0.44469 0.39258 1.19200
N 	N 	0.31016 0.45909 0.33198 -0.27000
N 	N 	0.33967 0.47526 0.25905 -0.16400
N 	N 	0.15069 0.29888 0.10296 -0.27300
N 	N 	0.24129 0.37627 0.11560 -0.16100
N 	N 	0.47826 0.67992 0.09785 -0.26800
N 	N 	0.40261 0.58885 0.11330 -0.15800
O 	O 	0.33520 0.43030 0.44074 -0.45000
O 	O 	0.34106 0.54873 0.42864 -0.30500
C 	C 	0.37090 0.53120 0.18540 -0.29100
H 	H 	0.39800 0.56680 0.20100 0.14000
C 	C 	0.33450 0.47640 0.20947 0.23800
C 	C 	0.29310 0.42410 0.18712 -0.28900
H 	H 	0.26940 0.38720 0.20370 0.13100
C 	C 	0.28744 0.42740 0.13923 0.23900
C 	C 	0.32470 0.48040 0.11435 -0.28700
H 	H 	0.32190 0.48160 0.08220 0.15100
C 	C 	0.36620 0.53170 0.13785 0.24700
C 	C 	0.28880 0.44900 0.28913 0.11200
H 	H 	0.24490 0.42690 0.28050 -0.03100
C 	C 	0.37820 0.49320 0.32901 -0.01500
H 	H 	0.40710 0.50640 0.35420 0.05700
C 	C 	0.39590 0.50440 0.28503 0.03100
H 	H 	0.43800 0.52730 0.27390 0.02800
C 	C 	0.18550 0.33760 0.13395 0.12900
H 	H 	0.17320 0.33830 0.16520 -0.03400
C 	C 	0.18640 0.31380 0.06185 0.00500
H 	H 	0.17410 0.29350 0.03330 0.01700
C 	C 	0.24110 0.36170 0.06885 0.01300
H 	H 	0.27270 0.38110 0.04660 0.03400
C 	C 	0.46230 0.62630 0.12738 0.11400
H 	H 	0.48870 0.61600 0.15420 -0.02200
C 	C 	0.42660 0.67570 0.06326 0.01600
H 	H 	0.42430 0.70660 0.03770 0.03000
C 	C 	0.38000 0.62020 0.07190 0.01400
H 	H 	0.34040 0.60560 0.05370 0.04400
C 	C 	0.36620 0.49100 0.44576 0.29900
C 	C 	0.43660 0.49500 0.47297 -0.02200
C 	C 	0.44720 0.44840 0.51061 0.04000
H 	H 	0.41200 0.41310 0.51770 0.03300
C 	C 	0.50950 0.45430 0.53740 -0.15800
Br	Br	0.50474 0.39409 0.59616 -0.45300
H 	H 	0.51500 0.42350 0.56420 0.29700
Zn	Zn	0.44469 0.24231 0.89258 1.19200
N 	N 	0.45909 0.18984 0.83198 -0.27000
N 	N 	0.47526 0.16033 0.75905 -0.16400
N 	N 	0.29888 0.34931 0.60296 -0.27200
N 	N 	0.37627 0.25871 0.61560 -0.16100
N 	N 	0.67992 0.02174 0.59785 -0.26700
N 	N 	0.58885 0.09739 0.61330 -0.15800
O 	O 	0.43030 0.16480 0.94074 -0.45000
O 	O 	0.54873 0.15894 0.92864 -0.30500
C 	C 	0.53120 0.12910 0.68540 -0.29100
H 	H 	0.56680 0.10200 0.70100 0.14000
C 	C 	0.47640 0.16550 0.70947 0.23800
C 	C 	0.42410 0.20690 0.68712 -0.28900
H 	H 	0.38720 0.23060 0.70370 0.13100
C 	C 	0.42740 0.21256 0.63923 0.23900
C 	C 	0.48040 0.17530 0.61435 -0.28700
H 	H 	0.48160 0.17810 0.58220 0.15100
C 	C 	0.53170 0.13380 0.63785 0.24700
C 	C 	0.44900 0.21120 0.78913 0.11200
H 	H 	0.42690 0.25510 0.78050 -0.03100
C 	C 	0.49320 0.12180 0.82901 -0.01500
H 	H 	0.50640 0.09290 0.85420 0.05700
C 	C 	0.50440 0.10410 0.78503 0.03000
H 	H 	0.52730 0.06200 0.77390 0.02800
C 	C 	0.33760 0.31450 0.63395 0.12900
H 	H 	0.33830 0.32680 0.66520 -0.03400
C 	C 	0.31380 0.31360 0.56185 0.00500
H 	H 	0.29350 0.32590 0.53330 0.01700
C 	C 	0.36170 0.25890 0.56885 0.01300
H 	H 	0.38110 0.22730 0.54660 0.03400
C 	C 	0.62630 0.03770 0.62738 0.11500
H 	H 	0.61600 0.01130 0.65420 -0.02100
C 	C 	0.67570 0.07340 0.56326 0.01700
H 	H 	0.70660 0.07570 0.53770 0.03000
C 	C 	0.62020 0.12000 0.57190 0.01400
H 	H 	0.60560 0.15960 0.55370 0.04400
C 	C 	0.49100 0.13380 0.94576 0.29900
C 	C 	0.49500 0.06340 0.97297 -0.02200
C 	C 	0.44840 0.05280 0.01061 0.03900
H 	H 	0.41310 0.08800 0.01770 0.03300
C 	C 	0.45430 0.99050 0.03740 -0.15700
Br	Br	0.39409 0.99526 0.09616 -0.45200
H 	H 	0.42350 0.98500 0.06420 0.29600
Zn	Zn	0.05531 0.25769 0.89258 1.19100
N 	N 	0.04091 0.31016 0.83198 -0.26900
N 	N 	0.02474 0.33967 0.75905 -0.16500
N 	N 	0.20112 0.15069 0.60296 -0.27300
N 	N 	0.12373 0.24129 0.61560 -0.16100
N 	N 	0.82008 0.47826 0.59785 -0.26800
N 	N 	0.91115 0.40261 0.61330 -0.15800
O 	O 	0.06970 0.33520 0.94074 -0.44900
O 	O 	0.95127 0.34106 0.92864 -0.30400
C 	C 	0.96880 0.37090 0.68540 -0.28900
H 	H 	0.93320 0.39800 0.70100 0.14000
C 	C 	0.02360 0.33450 0.70947 0.23700
C 	C 	0.07590 0.29310 0.68712 -0.28900
H 	H 	0.11280 0.26940 0.70370 0.13000
C 	C 	0.07260 0.28744 0.63923 0.23900
C 	C 	0.01960 0.32470 0.61435 -0.28900
H 	H 	0.01840 0.32190 0.58220 0.15100
C 	C 	0.96830 0.36620 0.63785 0.24800
C 	C 	0.05100 0.28880 0.78913 0.11100
H 	H 	0.07310 0.24490 0.78050 -0.03100
C 	C 	0.00680 0.37820 0.82901 -0.02100
H 	H 	0.99360 0.40710 0.85420 0.05900
C 	C 	0.99560 0.39590 0.78503 0.03600
H 	H 	0.97270 0.43800 0.77390 0.02600
C 	C 	0.16240 0.18550 0.63395 0.12900
H 	H 	0.16170 0.17320 0.66520 -0.03400
C 	C 	0.18620 0.18640 0.56185 0.00400
H 	H 	0.20650 0.17410 0.53330 0.01700
C 	C 	0.13830 0.24110 0.56885 0.01300
H 	H 	0.11890 0.27270 0.54660 0.03400
C 	C 	0.87370 0.46230 0.62738 0.11400
H 	H 	0.88400 0.48870 0.65420 -0.02200
C 	C 	0.82430 0.42660 0.56326 0.01600
H 	H 	0.79340 0.42430 0.53770 0.03000
C 	C 	0.87980 0.38000 0.57190 0.01400
H 	H 	0.89440 0.34040 0.55370 0.04400
C 	C 	0.00900 0.36620 0.94576 0.29700
C 	C 	0.00500 0.43660 0.97297 -0.02200
C 	C 	0.05160 0.44720 0.01061 0.04000
H 	H 	0.08690 0.41200 0.01770 0.03300
C 	C 	0.04570 0.50950 0.03740 -0.15800
Br	Br	0.10591 0.50474 0.09616 -0.45300
H 	H 	0.07650 0.51500 0.06420 0.29600
Zn	Zn	0.25769 0.05531 0.60742 1.19100
N 	N 	0.31016 0.04091 0.66802 -0.26900
N 	N 	0.33967 0.02474 0.74095 -0.16500
N 	N 	0.15069 0.20112 0.89704 -0.27300
N 	N 	0.24129 0.12373 0.88440 -0.16100
N 	N 	0.47826 0.82008 0.90215 -0.26800
N 	N 	0.40261 0.91115 0.88670 -0.15800
O 	O 	0.33520 0.06970 0.55926 -0.44900
O 	O 	0.34106 0.95127 0.57136 -0.30400
C 	C 	0.37090 0.96880 0.81460 -0.28900
H 	H 	0.39800 0.93320 0.79900 0.14000
C 	C 	0.33450 0.02360 0.79053 0.23700
C 	C 	0.29310 0.07590 0.81288 -0.28900
H 	H 	0.26940 0.11280 0.79630 0.13000
C 	C 	0.28744 0.07260 0.86077 0.23900
C 	C 	0.32470 0.01960 0.88565 -0.28900
H 	H 	0.32190 0.01840 0.91780 0.15100
C 	C 	0.36620 0.96830 0.86215 0.24800
C 	C 	0.28880 0.05100 0.71087 0.11100
H 	H 	0.24490 0.07310 0.71950 -0.03100
C 	C 	0.37820 0.00680 0.67099 -0.02100
H 	H 	0.40710 0.99360 0.64580 0.05900
C 	C 	0.39590 0.99560 0.71497 0.03600
H 	H 	0.43800 0.97270 0.72610 0.02600
C 	C 	0.18550 0.16240 0.86605 0.12900
H 	H 	0.17320 0.16170 0.83480 -0.03400
C 	C 	0.18640 0.18620 0.93815 0.00400
H 	H 	0.17410 0.20650 0.96670 0.01600
C 	C 	0.24110 0.13830 0.93115 0.01300
H 	H 	0.27270 0.11890 0.95340 0.03400
C 	C 	0.46230 0.87370 0.87262 0.11400
H 	H 	0.48870 0.88400 0.84580 -0.02200
C 	C 	0.42660 0.82430 0.93674 0.01600
H 	H 	0.42430 0.79340 0.96230 0.03000
C 	C 	0.38000 0.87980 0.92810 0.01400
H 	H 	0.34040 0.89440 0.94630 0.04400
C 	C 	0.36620 0.00900 0.55424 0.29700
C 	C 	0.43660 0.00500 0.52703 -0.02200
C 	C 	0.44720 0.05160 0.48939 0.04000
H 	H 	0.41200 0.08690 0.48230 0.03300
C 	C 	0.50950 0.04570 0.46260 -0.15800
Br	Br	0.50474 0.10591 0.40384 -0.45300
H 	H 	0.51500 0.07650 0.43580 0.29600
Zn	Zn	0.24231 0.44469 0.60742 1.19200
N 	N 	0.18984 0.45909 0.66802 -0.27000
N 	N 	0.16033 0.47526 0.74095 -0.16400
N 	N 	0.34931 0.29888 0.89704 -0.27200
N 	N 	0.25871 0.37627 0.88440 -0.16100
N 	N 	0.02174 0.67992 0.90215 -0.26700
N 	N 	0.09739 0.58885 0.88670 -0.15800
O 	O 	0.16480 0.43030 0.55926 -0.45000
O 	O 	0.15894 0.54873 0.57136 -0.30500
C 	C 	0.12910 0.53120 0.81460 -0.29100
H 	H 	0.10200 0.56680 0.79900 0.14000
C 	C 	0.16550 0.47640 0.79053 0.23800
C 	C 	0.20690 0.42410 0.81288 -0.28900
H 	H 	0.23060 0.38720 0.79630 0.13100
C 	C 	0.21256 0.42740 0.86077 0.23900
C 	C 	0.17530 0.48040 0.88565 -0.28700
H 	H 	0.17810 0.48160 0.91780 0.15100
C 	C 	0.13380 0.53170 0.86215 0.24700
C 	C 	0.21120 0.44900 0.71087 0.11200
H 	H 	0.25510 0.42690 0.71950 -0.03100
C 	C 	0.12180 0.49320 0.67099 -0.01500
H 	H 	0.09290 0.50640 0.64580 0.05600
C 	C 	0.10410 0.50440 0.71497 0.03000
H 	H 	0.06200 0.52730 0.72610 0.02800
C 	C 	0.31450 0.33760 0.86605 0.12900
H 	H 	0.32680 0.33830 0.83480 -0.03400
C 	C 	0.31360 0.31380 0.93815 0.00500
H 	H 	0.32590 0.29350 0.96670 0.01700
C 	C 	0.25890 0.36170 0.93115 0.01300
H 	H 	0.22730 0.38110 0.95340 0.03400
C 	C 	0.03770 0.62630 0.87262 0.11500
H 	H 	0.01130 0.61600 0.84580 -0.02100
C 	C 	0.07340 0.67570 0.93674 0.01700
H 	H 	0.07570 0.70660 0.96230 0.03000
C 	C 	0.12000 0.62020 0.92810 0.01400
H 	H 	0.15960 0.60560 0.94630 0.04400
C 	C 	0.13380 0.49100 0.55424 0.29900
C 	C 	0.06340 0.49500 0.52703 -0.02200
C 	C 	0.05280 0.44840 0.48939 0.03900
H 	H 	0.08800 0.41310 0.48230 0.03300
C 	C 	0.99050 0.45430 0.46260 -0.15700
Br	Br	0.99526 0.39409 0.40384 -0.45200
H 	H 	0.98500 0.42350 0.43580 0.29600
Zn	Zn	0.05531 0.24231 0.10742 1.19200
N 	N 	0.04091 0.18984 0.16802 -0.26700
N 	N 	0.02474 0.16033 0.24095 -0.16800
N 	N 	0.20112 0.34931 0.39704 -0.27200
N 	N 	0.12373 0.25871 0.38440 -0.16100
N 	N 	0.82008 0.02174 0.40215 -0.26700
N 	N 	0.91115 0.09739 0.38670 -0.15800
O 	O 	0.06970 0.16480 0.05926 -0.44900
O 	O 	0.95127 0.15894 0.07136 -0.30200
C 	C 	0.96880 0.12910 0.31460 -0.28700
H 	H 	0.93320 0.10200 0.29900 0.14000
C 	C 	0.02360 0.16550 0.29053 0.23400
C 	C 	0.07590 0.20690 0.31288 -0.28900
H 	H 	0.11280 0.23060 0.29630 0.13000
C 	C 	0.07260 0.21256 0.36077 0.24000
C 	C 	0.01960 0.17530 0.38565 -0.29200
H 	H 	0.01840 0.17810 0.41780 0.15200
C 	C 	0.96830 0.13380 0.36215 0.25000
C 	C 	0.05100 0.21120 0.21087 0.11100
H 	H 	0.07310 0.25510 0.21950 -0.03100
C 	C 	0.00680 0.12180 0.17099 -0.03500
H 	H 	0.99360 0.09290 0.14580 0.06600
C 	C 	0.99560 0.10410 0.21497 0.04800
H 	H 	0.97270 0.06200 0.22610 0.02200
C 	C 	0.16240 0.31450 0.36605 0.12900
H 	H 	0.16170 0.32680 0.33480 -0.03400
C 	C 	0.18620 0.31360 0.43815 0.00500
H 	H 	0.20650 0.32590 0.46670 0.01700
C 	C 	0.13830 0.25890 0.43115 0.01300
H 	H 	0.11890 0.22730 0.45340 0.03400
C 	C 	0.87370 0.03770 0.37262 0.11500
H 	H 	0.88400 0.01130 0.34580 -0.02100
C 	C 	0.82430 0.07340 0.43674 0.01700
H 	H 	0.79340 0.07570 0.46230 0.03000
C 	C 	0.87980 0.12000 0.42810 0.01500
H 	H 	0.89440 0.15960 0.44630 0.04400
C 	C 	0.00900 0.13380 0.05424 0.29500
C 	C 	0.00500 0.06340 0.02703 -0.02700
C 	C 	0.05160 0.05280 0.98939 0.03100
H 	H 	0.08690 0.08800 0.98230 0.03500
C 	C 	0.04570 0.99050 0.96260 -0.14400
Br	Br	0.10591 0.99526 0.90384 -0.44800
H 	H 	0.07650 0.98500 0.93580 0.29100
Zn	Zn	0.44469 0.25769 0.10742 1.19200
N 	N 	0.45909 0.31016 0.16802 -0.27000
N 	N 	0.47526 0.33967 0.24095 -0.16400
N 	N 	0.29888 0.15069 0.39704 -0.27300
N 	N 	0.37627 0.24129 0.38440 -0.16100
N 	N 	0.67992 0.47826 0.40215 -0.26800
N 	N 	0.58885 0.40261 0.38670 -0.15800
O 	O 	0.43030 0.33520 0.05926 -0.45000
O 	O 	0.54873 0.34106 0.07136 -0.30500
C 	C 	0.53120 0.37090 0.31460 -0.29100
H 	H 	0.56680 0.39800 0.29900 0.14000
C 	C 	0.47640 0.33450 0.29053 0.23800
C 	C 	0.42410 0.29310 0.31288 -0.28900
H 	H 	0.38720 0.26940 0.29630 0.13100
C 	C 	0.42740 0.28744 0.36077 0.23900
C 	C 	0.48040 0.32470 0.38565 -0.28700
H 	H 	0.48160 0.32190 0.41780 0.15100
C 	C 	0.53170 0.36620 0.36215 0.24700
C 	C 	0.44900 0.28880 0.21087 0.11200
H 	H 	0.42690 0.24490 0.21950 -0.03100
C 	C 	0.49320 0.37820 0.17099 -0.01500
H 	H 	0.50640 0.40710 0.14580 0.05700
C 	C 	0.50440 0.39590 0.21497 0.03100
H 	H 	0.52730 0.43800 0.22610 0.02800
C 	C 	0.33760 0.18550 0.36605 0.12900
H 	H 	0.33830 0.17320 0.33480 -0.03400
C 	C 	0.31380 0.18640 0.43815 0.00500
H 	H 	0.29350 0.17410 0.46670 0.01700
C 	C 	0.36170 0.24110 0.43115 0.01300
H 	H 	0.38110 0.27270 0.45340 0.03400
C 	C 	0.62630 0.46230 0.37262 0.11400
H 	H 	0.61600 0.48870 0.34580 -0.02200
C 	C 	0.67570 0.42660 0.43674 0.01600
H 	H 	0.70660 0.42430 0.46230 0.03000
C 	C 	0.62020 0.38000 0.42810 0.01400
H 	H 	0.60560 0.34040 0.44630 0.04400
C 	C 	0.49100 0.36620 0.05424 0.29900
C 	C 	0.49500 0.43660 0.02703 -0.02200
C 	C 	0.44840 0.44720 0.98939 0.04000
H 	H 	0.41310 0.41200 0.98230 0.03300
C 	C 	0.45430 0.50950 0.96260 -0.15800
Br	Br	0.39409 0.50474 0.90384 -0.45300
H 	H 	0.42350 0.51500 0.93580 0.29700
Zn	Zn	0.75769 0.94469 0.60742 1.19100
N 	N 	0.81016 0.95909 0.66802 -0.26700
N 	N 	0.83967 0.97526 0.74095 -0.16800
N 	N 	0.65069 0.79888 0.89704 -0.27200
N 	N 	0.74129 0.87627 0.88440 -0.16100
N 	N 	0.97826 0.17992 0.90215 -0.26700
N 	N 	0.90261 0.08885 0.88670 -0.15800
O 	O 	0.83520 0.93030 0.55926 -0.44900
O 	O 	0.84106 0.04873 0.57136 -0.30200
C 	C 	0.87090 0.03120 0.81460 -0.28700
H 	H 	0.89800 0.06680 0.79900 0.14000
C 	C 	0.83450 0.97640 0.79053 0.23400
C 	C 	0.79310 0.92410 0.81288 -0.28900
H 	H 	0.76940 0.88720 0.79630 0.13000
C 	C 	0.78744 0.92740 0.86077 0.24000
C 	C 	0.82470 0.98040 0.88565 -0.29200
H 	H 	0.82190 0.98160 0.91780 0.15200
C 	C 	0.86620 0.03170 0.86215 0.25000
C 	C 	0.78880 0.94900 0.71087 0.11100
H 	H 	0.74490 0.92690 0.71950 -0.03100
C 	C 	0.87820 0.99320 0.67099 -0.03500
H 	H 	0.90710 0.00640 0.64580 0.06600
C 	C 	0.89590 0.00440 0.71497 0.04800
H 	H 	0.93800 0.02730 0.72610 0.02200
C 	C 	0.68550 0.83760 0.86605 0.12900
H 	H 	0.67320 0.83830 0.83480 -0.03400
C 	C 	0.68640 0.81380 0.93815 0.00500
H 	H 	0.67410 0.79350 0.96670 0.01700
C 	C 	0.74110 0.86170 0.93115 0.01300
H 	H 	0.77270 0.88110 0.95340 0.03400
C 	C 	0.96230 0.12630 0.87262 0.11500
H 	H 	0.98870 0.11600 0.84580 -0.02100
C 	C 	0.92660 0.17570 0.93674 0.01700
H 	H 	0.92430 0.20660 0.96230 0.03000
C 	C 	0.88000 0.12020 0.92810 0.01500
H 	H 	0.84040 0.10560 0.94630 0.04400
C 	C 	0.86620 0.99100 0.55424 0.29500
C 	C 	0.93660 0.99500 0.52703 -0.02800
C 	C 	0.94720 0.94840 0.48939 0.03100
H 	H 	0.91200 0.91310 0.48230 0.03500
C 	C 	0.00950 0.95430 0.46260 -0.14400
Br	Br	0.00474 0.89409 0.40384 -0.44800
H 	H 	0.01500 0.92350 0.43580 0.29100
Zn	Zn	0.74231 0.55531 0.60742 1.19200
N 	N 	0.68984 0.54091 0.66802 -0.27000
N 	N 	0.66033 0.52474 0.74095 -0.16400
N 	N 	0.84931 0.70112 0.89704 -0.27300
N 	N 	0.75871 0.62373 0.88440 -0.16100
N 	N 	0.52174 0.32008 0.90215 -0.26800
N 	N 	0.59739 0.41115 0.88670 -0.15800
O 	O 	0.66480 0.56970 0.55926 -0.45000
O 	O 	0.65894 0.45127 0.57136 -0.30500
C 	C 	0.62910 0.46880 0.81460 -0.29100
H 	H 	0.60200 0.43320 0.79900 0.14000
C 	C 	0.66550 0.52360 0.79053 0.23800
C 	C 	0.70690 0.57590 0.81288 -0.28900
H 	H 	0.73060 0.61280 0.79630 0.13100
C 	C 	0.71256 0.57260 0.86077 0.23900
C 	C 	0.67530 0.51960 0.88565 -0.28700
H 	H 	0.67810 0.51840 0.91780 0.15100
C 	C 	0.63380 0.46830 0.86215 0.24700
C 	C 	0.71120 0.55100 0.71087 0.11200
H 	H 	0.75510 0.57310 0.71950 -0.03100
C 	C 	0.62180 0.50680 0.67099 -0.01500
H 	H 	0.59290 0.49360 0.64580 0.05700
C 	C 	0.60410 0.49560 0.71497 0.03100
H 	H 	0.56200 0.47270 0.72610 0.02800
C 	C 	0.81450 0.66240 0.86605 0.12900
H 	H 	0.82680 0.66170 0.83480 -0.03400
C 	C 	0.81360 0.68620 0.93815 0.00500
H 	H 	0.82590 0.70650 0.96670 0.01700
C 	C 	0.75890 0.63830 0.93115 0.01300
H 	H 	0.72730 0.61890 0.95340 0.03400
C 	C 	0.53770 0.37370 0.87262 0.11400
H 	H 	0.51130 0.38400 0.84580 -0.02200
C 	C 	0.57340 0.32430 0.93674 0.01600
H 	H 	0.57570 0.29340 0.96230 0.03000
C 	C 	0.62000 0.37980 0.92810 0.01400
H 	H 	0.65960 0.39440 0.94630 0.04400
C 	C 	0.63380 0.50900 0.55424 0.29900
C 	C 	0.56340 0.50500 0.52703 -0.02200
C 	C 	0.55280 0.55160 0.48939 0.04000
H 	H 	0.58800 0.58690 0.48230 0.03300
C 	C 	0.49050 0.54570 0.46260 -0.15800
Br	Br	0.49526 0.60591 0.40384 -0.45300
H 	H 	0.48500 0.57650 0.43580 0.29700
Zn	Zn	0.55531 0.75769 0.10742 1.19200
N 	N 	0.54091 0.81016 0.16802 -0.27000
N 	N 	0.52474 0.83967 0.24095 -0.16400
N 	N 	0.70112 0.65069 0.39704 -0.27200
N 	N 	0.62373 0.74129 0.38440 -0.16100
N 	N 	0.32008 0.97826 0.40215 -0.26700
N 	N 	0.41115 0.90261 0.38670 -0.15800
O 	O 	0.56970 0.83520 0.05926 -0.45000
O 	O 	0.45127 0.84106 0.07136 -0.30500
C 	C 	0.46880 0.87090 0.31460 -0.29100
H 	H 	0.43320 0.89800 0.29900 0.14000
C 	C 	0.52360 0.83450 0.29053 0.23800
C 	C 	0.57590 0.79310 0.31288 -0.28900
H 	H 	0.61280 0.76940 0.29630 0.13100
C 	C 	0.57260 0.78744 0.36077 0.23900
C 	C 	0.51960 0.82470 0.38565 -0.28700
H 	H 	0.51840 0.82190 0.41780 0.15100
C 	C 	0.46830 0.86620 0.36215 0.24700
C 	C 	0.55100 0.78880 0.21087 0.11200
H 	H 	0.57310 0.74490 0.21950 -0.03100
C 	C 	0.50680 0.87820 0.17099 -0.01500
H 	H 	0.49360 0.90710 0.14580 0.05700
C 	C 	0.49560 0.89590 0.21497 0.03000
H 	H 	0.47270 0.93800 0.22610 0.02800
C 	C 	0.66240 0.68550 0.36605 0.12900
H 	H 	0.66170 0.67320 0.33480 -0.03400
C 	C 	0.68620 0.68640 0.43815 0.00500
H 	H 	0.70650 0.67410 0.46670 0.01700
C 	C 	0.63830 0.74110 0.43115 0.01300
H 	H 	0.61890 0.77270 0.45340 0.03400
C 	C 	0.37370 0.96230 0.37262 0.11500
H 	H 	0.38400 0.98870 0.34580 -0.02100
C 	C 	0.32430 0.92660 0.43674 0.01700
H 	H 	0.29340 0.92430 0.46230 0.03000
C 	C 	0.37980 0.88000 0.42810 0.01400
H 	H 	0.39440 0.84040 0.44630 0.04400
C 	C 	0.50900 0.86620 0.05424 0.29900
C 	C 	0.50500 0.93660 0.02703 -0.02200
C 	C 	0.55160 0.94720 0.98939 0.03900
H 	H 	0.58690 0.91200 0.98230 0.03300
C 	C 	0.54570 0.00950 0.96260 -0.15700
Br	Br	0.60591 0.00474 0.90384 -0.45200
H 	H 	0.57650 0.01500 0.93580 0.29600
Zn	Zn	0.94469 0.74231 0.10742 1.19100
N 	N 	0.95909 0.68984 0.16802 -0.26900
N 	N 	0.97526 0.66033 0.24095 -0.16500
N 	N 	0.79888 0.84931 0.39704 -0.27300
N 	N 	0.87627 0.75871 0.38440 -0.16100
N 	N 	0.17992 0.52174 0.40215 -0.26800
N 	N 	0.08885 0.59739 0.38670 -0.15800
O 	O 	0.93030 0.66480 0.05926 -0.44900
O 	O 	0.04873 0.65894 0.07136 -0.30400
C 	C 	0.03120 0.62910 0.31460 -0.28900
H 	H 	0.06680 0.60200 0.29900 0.14000
C 	C 	0.97640 0.66550 0.29053 0.23700
C 	C 	0.92410 0.70690 0.31288 -0.28900
H 	H 	0.88720 0.73060 0.29630 0.13000
C 	C 	0.92740 0.71256 0.36077 0.23900
C 	C 	0.98040 0.67530 0.38565 -0.28900
H 	H 	0.98160 0.67810 0.41780 0.15100
C 	C 	0.03170 0.63380 0.36215 0.24800
C 	C 	0.94900 0.71120 0.21087 0.11100
H 	H 	0.92690 0.75510 0.21950 -0.03100
C 	C 	0.99320 0.62180 0.17099 -0.02100
H 	H 	0.00640 0.59290 0.14580 0.05900
C 	C 	0.00440 0.60410 0.21497 0.03600
H 	H 	0.02730 0.56200 0.22610 0.02600
C 	C 	0.83760 0.81450 0.36605 0.12900
H 	H 	0.83830 0.82680 0.33480 -0.03400
C 	C 	0.81380 0.81360 0.43815 0.00400
H 	H 	0.79350 0.82590 0.46670 0.01700
C 	C 	0.86170 0.75890 0.43115 0.01300
H 	H 	0.88110 0.72730 0.45340 0.03400
C 	C 	0.12630 0.53770 0.37262 0.11400
H 	H 	0.11600 0.51130 0.34580 -0.02200
C 	C 	0.17570 0.57340 0.43674 0.01600
H 	H 	0.20660 0.57570 0.46230 0.03000
C 	C 	0.12020 0.62000 0.42810 0.01400
H 	H 	0.10560 0.65960 0.44630 0.04400
C 	C 	0.99100 0.63380 0.05424 0.29700
C 	C 	0.99500 0.56340 0.02703 -0.02200
C 	C 	0.94840 0.55280 0.98939 0.04000
H 	H 	0.91310 0.58800 0.98230 0.03300
C 	C 	0.95430 0.49050 0.96260 -0.15800
Br	Br	0.89409 0.49526 0.90384 -0.45300
H 	H 	0.92350 0.48500 0.93580 0.29600
Zn	Zn	0.74231 0.94469 0.39258 1.19100
N 	N 	0.68984 0.95909 0.33198 -0.26900
N 	N 	0.66033 0.97526 0.25905 -0.16500
N 	N 	0.84931 0.79888 0.10296 -0.27300
N 	N 	0.75871 0.87627 0.11560 -0.16100
N 	N 	0.52174 0.17992 0.09785 -0.26800
N 	N 	0.59739 0.08885 0.11330 -0.15800
O 	O 	0.66480 0.93030 0.44074 -0.44900
O 	O 	0.65894 0.04873 0.42864 -0.30400
C 	C 	0.62910 0.03120 0.18540 -0.28900
H 	H 	0.60200 0.06680 0.20100 0.14000
C 	C 	0.66550 0.97640 0.20947 0.23700
C 	C 	0.70690 0.92410 0.18712 -0.28900
H 	H 	0.73060 0.88720 0.20370 0.13000
C 	C 	0.71256 0.92740 0.13923 0.23900
C 	C 	0.67530 0.98040 0.11435 -0.28900
H 	H 	0.67810 0.98160 0.08220 0.15100
C 	C 	0.63380 0.03170 0.13785 0.24800
C 	C 	0.71120 0.94900 0.28913 0.11100
H 	H 	0.75510 0.92690 0.28050 -0.03100
C 	C 	0.62180 0.99320 0.32901 -0.02100
H 	H 	0.59290 0.00640 0.35420 0.05900
C 	C 	0.60410 0.00440 0.28503 0.03600
H 	H 	0.56200 0.02730 0.27390 0.02600
C 	C 	0.81450 0.83760 0.13395 0.12900
H 	H 	0.82680 0.83830 0.16520 -0.03400
C 	C 	0.81360 0.81380 0.06185 0.00400
H 	H 	0.82590 0.79350 0.03330 0.01600
C 	C 	0.75890 0.86170 0.06885 0.01300
H 	H 	0.72730 0.88110 0.04660 0.03400
C 	C 	0.53770 0.12630 0.12738 0.11400
H 	H 	0.51130 0.11600 0.15420 -0.02200
C 	C 	0.57340 0.17570 0.06326 0.01600
H 	H 	0.57570 0.20660 0.03770 0.03000
C 	C 	0.62000 0.12020 0.07190 0.01400
H 	H 	0.65960 0.10560 0.05370 0.04400
C 	C 	0.63380 0.99100 0.44576 0.29700
C 	C 	0.56340 0.99500 0.47297 -0.02200
C 	C 	0.55280 0.94840 0.51061 0.04000
H 	H 	0.58800 0.91310 0.51770 0.03300
C 	C 	0.49050 0.95430 0.53740 -0.15800
Br	Br	0.49526 0.89409 0.59616 -0.45300
H 	H 	0.48500 0.92350 0.56420 0.29600
Zn	Zn	0.75769 0.55531 0.39258 1.19200
N 	N 	0.81016 0.54091 0.33198 -0.27000
N 	N 	0.83967 0.52474 0.25905 -0.16400
N 	N 	0.65069 0.70112 0.10296 -0.27200
N 	N 	0.74129 0.62373 0.11560 -0.16100
N 	N 	0.97826 0.32008 0.09785 -0.26700
N 	N 	0.90261 0.41115 0.11330 -0.15800
O 	O 	0.83520 0.56970 0.44074 -0.45000
O 	O 	0.84106 0.45127 0.42864 -0.30500
C 	C 	0.87090 0.46880 0.18540 -0.29100
H 	H 	0.89800 0.43320 0.20100 0.14000
C 	C 	0.83450 0.52360 0.20947 0.23800
C 	C 	0.79310 0.57590 0.18712 -0.28900
H 	H 	0.76940 0.61280 0.20370 0.13100
C 	C 	0.78744 0.57260 0.13923 0.23900
C 	C 	0.82470 0.51960 0.11435 -0.28700
H 	H 	0.82190 0.51840 0.08220 0.15100
C 	C 	0.86620 0.46830 0.13785 0.24700
C 	C 	0.78880 0.55100 0.28913 0.11200
H 	H 	0.74490 0.57310 0.28050 -0.03100
C 	C 	0.87820 0.50680 0.32901 -0.01500
H 	H 	0.90710 0.49360 0.35420 0.05600
C 	C 	0.89590 0.49560 0.28503 0.03000
H 	H 	0.93800 0.47270 0.27390 0.02800
C 	C 	0.68550 0.66240 0.13395 0.12900
H 	H 	0.67320 0.66170 0.16520 -0.03400
C 	C 	0.68640 0.68620 0.06185 0.00500
H 	H 	0.67410 0.70650 0.03330 0.01700
C 	C 	0.74110 0.63830 0.06885 0.01300
H 	H 	0.77270 0.61890 0.04660 0.03400
C 	C 	0.96230 0.37370 0.12738 0.11500
H 	H 	0.98870 0.38400 0.15420 -0.02100
C 	C 	0.92660 0.32430 0.06326 0.01700
H 	H 	0.92430 0.29340 0.03770 0.03000
C 	C 	0.88000 0.37980 0.07190 0.01400
H 	H 	0.84040 0.39440 0.05370 0.04400
C 	C 	0.86620 0.50900 0.44576 0.29900
C 	C 	0.93660 0.50500 0.47297 -0.02200
C 	C 	0.94720 0.55160 0.51061 0.03900
H 	H 	0.91200 0.58690 0.51770 0.03300
C 	C 	0.00950 0.54570 0.53740 -0.15700
Br	Br	0.00474 0.60591 0.59616 -0.45200
H 	H 	0.01500 0.57650 0.56420 0.29600
Zn	Zn	0.94469 0.75769 0.89258 1.19200
N 	N 	0.95909 0.81016 0.83198 -0.26700
N 	N 	0.97526 0.83967 0.75905 -0.16800
N 	N 	0.79888 0.65069 0.60296 -0.27200
N 	N 	0.87627 0.74129 0.61560 -0.16100
N 	N 	0.17992 0.97826 0.59785 -0.26700
N 	N 	0.08885 0.90261 0.61330 -0.15800
O 	O 	0.93030 0.83520 0.94074 -0.44900
O 	O 	0.04873 0.84106 0.92864 -0.30200
C 	C 	0.03120 0.87090 0.68540 -0.28700
H 	H 	0.06680 0.89800 0.70100 0.14000
C 	C 	0.97640 0.83450 0.70947 0.23400
C 	C 	0.92410 0.79310 0.68712 -0.28900
H 	H 	0.88720 0.76940 0.70370 0.13000
C 	C 	0.92740 0.78744 0.63923 0.24000
C 	C 	0.98040 0.82470 0.61435 -0.29200
H 	H 	0.98160 0.82190 0.58220 0.15200
C 	C 	0.03170 0.86620 0.63785 0.25000
C 	C 	0.94900 0.78880 0.78913 0.11100
H 	H 	0.92690 0.74490 0.78050 -0.03100
C 	C 	0.99320 0.87820 0.82901 -0.03500
H 	H 	0.00640 0.90710 0.85420 0.06600
C 	C 	0.00440 0.89590 0.78503 0.04800
H 	H 	0.02730 0.93800 0.77390 0.02200
C 	C 	0.83760 0.68550 0.63395 0.12900
H 	H 	0.83830 0.67320 0.66520 -0.03400
C 	C 	0.81380 0.68640 0.56185 0.00500
H 	H 	0.79350 0.67410 0.53330 0.01700
C 	C 	0.86170 0.74110 0.56885 0.01300
H 	H 	0.88110 0.77270 0.54660 0.03400
C 	C 	0.12630 0.96230 0.62738 0.11500
H 	H 	0.11600 0.98870 0.65420 -0.02100
C 	C 	0.17570 0.92660 0.56326 0.01700
H 	H 	0.20660 0.92430 0.53770 0.03000
C 	C 	0.12020 0.88000 0.57190 0.01500
H 	H 	0.10560 0.84040 0.55370 0.04400
C 	C 	0.99100 0.86620 0.94576 0.29500
C 	C 	0.99500 0.93660 0.97297 -0.02700
C 	C 	0.94840 0.94720 0.01061 0.03100
H 	H 	0.91310 0.91200 0.01770 0.03500
C 	C 	0.95430 0.00950 0.03740 -0.14400
Br	Br	0.89409 0.00474 0.09616 -0.44800
H 	H 	0.92350 0.01500 0.06420 0.29100
Zn	Zn	0.55531 0.74231 0.89258 1.19200
N 	N 	0.54091 0.68984 0.83198 -0.27000
N 	N 	0.52474 0.66033 0.75905 -0.16400
N 	N 	0.70112 0.84931 0.60296 -0.27300
N 	N 	0.62373 0.75871 0.61560 -0.16100
N 	N 	0.32008 0.52174 0.59785 -0.26800
N 	N 	0.41115 0.59739 0.61330 -0.15800
O 	O 	0.56970 0.66480 0.94074 -0.45000
O 	O 	0.45127 0.65894 0.92864 -0.30500
C 	C 	0.46880 0.62910 0.68540 -0.29100
H 	H 	0.43320 0.60200 0.70100 0.14000
C 	C 	0.52360 0.66550 0.70947 0.23800
C 	C 	0.57590 0.70690 0.68712 -0.28900
H 	H 	0.61280 0.73060 0.70370 0.13100
C 	C 	0.57260 0.71256 0.63923 0.23900
C 	C 	0.51960 0.67530 0.61435 -0.28700
H 	H 	0.51840 0.67810 0.58220 0.15100
C 	C 	0.46830 0.63380 0.63785 0.24700
C 	C 	0.55100 0.71120 0.78913 0.11200
H 	H 	0.57310 0.75510 0.78050 -0.03100
C 	C 	0.50680 0.62180 0.82901 -0.01500
H 	H 	0.49360 0.59290 0.85420 0.05700
C 	C 	0.49560 0.60410 0.78503 0.03100
H 	H 	0.47270 0.56200 0.77390 0.02800
C 	C 	0.66240 0.81450 0.63395 0.12900
H 	H 	0.66170 0.82680 0.66520 -0.03400
C 	C 	0.68620 0.81360 0.56185 0.00500
H 	H 	0.70650 0.82590 0.53330 0.01700
C 	C 	0.63830 0.75890 0.56885 0.01300
H 	H 	0.61890 0.72730 0.54660 0.03400
C 	C 	0.37370 0.53770 0.62738 0.11400
H 	H 	0.38400 0.51130 0.65420 -0.02200
C 	C 	0.32430 0.57340 0.56326 0.01600
H 	H 	0.29340 0.57570 0.53770 0.03000
C 	C 	0.37980 0.62000 0.57190 0.01400
H 	H 	0.39440 0.65960 0.55370 0.04400
C 	C 	0.50900 0.63380 0.94576 0.29900
C 	C 	0.50500 0.56340 0.97297 -0.02200
C 	C 	0.55160 0.55280 0.01061 0.04000
H 	H 	0.58690 0.58800 0.01770 0.03300
C 	C 	0.54570 0.49050 0.03740 -0.15800
Br	Br	0.60591 0.49526 0.09616 -0.45300
H 	H 	0.57650 0.48500 0.06420 0.29700
