data_crystal

_cell_length_a 10.61500
_cell_length_b 14.58890
_cell_length_c 29.85600
_cell_angle_alpha 90.00000
_cell_angle_beta  90.39500
_cell_angle_gamma 90.00000

_symmetry_space_group_name_	'P 1'
_symmetry_space_group_name_H-M	'P 1'

loop_
_symmetry_equiv_pos_as_xyz
  x,y,z

loop_
_atom_site_label
_atom_site_type_symbol
_atom_site_fract_x
_atom_site_fract_y
_atom_site_fract_z
_atom_site_charge
Cd	Cd	0.35457 0.16625 0.22468 1.21700
Cd	Cd	0.81476 0.95873 0.25048 1.21600
Cd	Cd	0.64543 0.66625 0.27532 1.21700
Cd	Cd	0.18524 0.45873 0.24952 1.21700
Cd	Cd	0.64543 0.83375 0.77532 1.21700
Cd	Cd	0.18524 0.04127 0.74952 1.21600
Cd	Cd	0.35457 0.33375 0.72468 1.21700
Cd	Cd	0.81476 0.54127 0.75048 1.21700
H 	H 	0.10740 0.87490 0.15720 0.03400
H 	H 	0.14010 0.02770 0.17410 0.03200
H 	H 	0.69800 0.42790 0.20600 0.02800
H 	H 	0.88430 0.50320 0.22080 0.00500
H 	H 	0.47210 0.34710 0.18220 -0.00800
H 	H 	0.56280 0.40250 0.11720 0.11000
H 	H 	0.35470 0.21840 0.05050 0.09600
H 	H 	0.27960 0.16790 0.11880 0.00400
H 	H 	0.34590 0.36450 0.99940 0.07100
H 	H 	0.78640 0.41860 0.98880 0.07100
H 	H 	0.54940 0.36270 0.86850 0.12100
H 	H 	0.61980 0.41140 0.80010 -0.00300
H 	H 	0.87360 0.56700 0.85660 -0.01200
H 	H 	0.81030 0.52110 0.92640 0.09700
H 	H 	0.25480 0.36290 0.94240 0.04800
H 	H 	0.26490 0.45620 0.96930 0.05300
H 	H 	0.25440 0.44790 0.87390 0.02200
H 	H 	0.25670 0.53990 0.90180 0.05400
H 	H 	0.06830 0.41590 0.90500 0.22300
H 	H 	0.93740 0.16360 0.11430 0.27000
H 	H 	0.90510 0.40330 0.05590 0.08000
H 	H 	0.88030 0.32100 0.02390 0.07000
H 	H 	0.92390 0.30140 0.11420 0.02900
H 	H 	0.03170 0.30340 0.07990 0.01700
H 	H 	0.89260 0.37490 0.34280 0.03200
H 	H 	0.85990 0.52770 0.32590 0.03400
H 	H 	0.30200 0.92790 0.29400 0.02800
H 	H 	0.11570 0.00320 0.27920 0.00100
H 	H 	0.52790 0.84710 0.31780 -0.00900
H 	H 	0.43720 0.90250 0.38280 0.11000
H 	H 	0.64530 0.71840 0.44950 0.09600
H 	H 	0.72040 0.66790 0.38120 0.00400
H 	H 	0.65410 0.86450 0.50060 0.07100
H 	H 	0.21360 0.91860 0.51120 0.07300
H 	H 	0.45060 0.86270 0.63150 0.11900
H 	H 	0.38020 0.91140 0.69990 -0.00100
H 	H 	0.12640 0.06700 0.64340 -0.00800
H 	H 	0.18970 0.02110 0.57360 0.08900
H 	H 	0.74520 0.86290 0.55760 0.04700
H 	H 	0.73510 0.95620 0.53070 0.05200
H 	H 	0.74560 0.94790 0.62610 0.02300
H 	H 	0.74330 0.03990 0.59820 0.05600
H 	H 	0.93170 0.91590 0.59500 0.22300
H 	H 	0.06260 0.66360 0.38570 0.27000
H 	H 	0.09490 0.90330 0.44410 0.08200
H 	H 	0.11970 0.82100 0.47610 0.07100
H 	H 	0.07610 0.80140 0.38580 0.02900
H 	H 	0.96830 0.80340 0.42010 0.01600
H 	H 	0.89260 0.12510 0.84280 0.03300
H 	H 	0.85990 0.97230 0.82590 0.03100
H 	H 	0.30200 0.57210 0.79400 0.02700
H 	H 	0.11570 0.49680 0.77920 0.00400
H 	H 	0.52790 0.65290 0.81780 -0.00900
H 	H 	0.43720 0.59750 0.88280 0.10900
H 	H 	0.64530 0.78160 0.94950 0.09600
H 	H 	0.72040 0.83210 0.88120 0.00400
H 	H 	0.65410 0.63550 0.00060 0.07100
H 	H 	0.21360 0.58140 0.01120 0.07100
H 	H 	0.45060 0.63730 0.13150 0.12100
H 	H 	0.38020 0.58860 0.19990 -0.00300
H 	H 	0.12640 0.43300 0.14340 -0.01200
H 	H 	0.18970 0.47890 0.07360 0.09700
H 	H 	0.74520 0.63710 0.05760 0.04800
H 	H 	0.73510 0.54380 0.03070 0.05300
H 	H 	0.74560 0.55210 0.12610 0.02200
H 	H 	0.74330 0.46010 0.09820 0.05400
H 	H 	0.93170 0.58410 0.09500 0.22300
H 	H 	0.06260 0.83640 0.88570 0.27000
H 	H 	0.09490 0.59670 0.94410 0.08000
H 	H 	0.11970 0.67900 0.97610 0.07000
H 	H 	0.07610 0.69860 0.88580 0.02900
H 	H 	0.96830 0.69660 0.92010 0.01700
H 	H 	0.10740 0.62510 0.65720 0.03200
H 	H 	0.14010 0.47230 0.67410 0.03400
H 	H 	0.69800 0.07210 0.70600 0.02800
H 	H 	0.88430 0.99680 0.72080 0.00100
H 	H 	0.47210 0.15290 0.68220 -0.00900
H 	H 	0.56280 0.09750 0.61720 0.11000
H 	H 	0.35470 0.28160 0.55050 0.09600
H 	H 	0.27960 0.33210 0.61880 0.00400
H 	H 	0.34590 0.13550 0.49940 0.07100
H 	H 	0.78640 0.08140 0.48880 0.07300
H 	H 	0.54940 0.13730 0.36850 0.11900
H 	H 	0.61980 0.08860 0.30010 -0.00100
H 	H 	0.87360 0.93300 0.35660 -0.00800
H 	H 	0.81030 0.97890 0.42640 0.08900
H 	H 	0.25480 0.13710 0.44240 0.04700
H 	H 	0.26490 0.04380 0.46930 0.05200
H 	H 	0.25440 0.05210 0.37390 0.02300
H 	H 	0.25670 0.96010 0.40180 0.05600
H 	H 	0.06830 0.08410 0.40500 0.22300
H 	H 	0.93740 0.33640 0.61430 0.27000
H 	H 	0.90510 0.09670 0.55590 0.08200
H 	H 	0.88030 0.17900 0.52390 0.07100
H 	H 	0.92390 0.19860 0.61420 0.02900
H 	H 	0.03170 0.19660 0.57990 0.01600
C 	C 	0.41150 0.95640 0.19977 -0.03900
C 	C 	0.39860 0.86350 0.19160 0.01200
C 	C 	0.18490 0.89440 0.16830 0.00300
C 	C 	0.20540 0.98610 0.17845 0.00500
C 	C 	0.53400 0.99720 0.21742 0.32900
C 	C 	0.49970 0.79270 0.20177 0.32000
C 	C 	0.99350 0.30380 0.21861 -0.02600
C 	C 	0.88350 0.25450 0.21070 -0.00200
C 	C 	0.77200 0.39450 0.20970 0.00600
C 	C 	0.88450 0.43970 0.21823 0.01100
C 	C 	0.12200 0.25800 0.22070 0.28700
C 	C 	0.87950 0.15130 0.20550 0.33000
C 	C 	0.46370 0.31370 0.15580 0.11000
C 	C 	0.50830 0.35260 0.11630 -0.16600
C 	C 	0.47030 0.31570 0.07560 0.12900
C 	C 	0.38580 0.24330 0.07700 -0.15700
C 	C 	0.34750 0.20810 0.11780 0.07200
C 	C 	0.50140 0.39880 0.96040 0.15500
C 	C 	0.63020 0.40290 0.94990 -0.05700
C 	C 	0.51730 0.35180 0.03360 -0.05100
C 	C 	0.43310 0.37030 0.99810 -0.10400
C 	C 	0.70350 0.39800 0.98840 -0.10500
C 	C 	0.64750 0.36050 0.02650 0.14700
C 	C 	0.67250 0.43530 0.90590 0.13600
C 	C 	0.61600 0.40410 0.86700 -0.17800
C 	C 	0.65830 0.43420 0.82588 0.10000
C 	C 	0.80750 0.52550 0.85890 0.10500
C 	C 	0.76990 0.49770 0.90110 -0.17700
C 	C 	0.28380 0.42590 0.94130 -0.03700
C 	C 	0.22960 0.47640 0.90190 0.04600
C 	C 	0.86900 0.34200 0.05430 -0.08100
C 	C 	0.94700 0.28140 0.08400 0.08600
C 	C 	0.58850 0.45640 0.30023 -0.04000
C 	C 	0.60140 0.36350 0.30840 0.01200
C 	C 	0.81510 0.39440 0.33170 0.00500
C 	C 	0.79460 0.48610 0.32155 0.00100
C 	C 	0.46600 0.49720 0.28258 0.33100
C 	C 	0.50030 0.29270 0.29823 0.32000
C 	C 	0.00650 0.80380 0.28139 -0.02500
C 	C 	0.11650 0.75450 0.28930 -0.00200
C 	C 	0.22800 0.89450 0.29030 0.00400
C 	C 	0.11550 0.93970 0.28177 0.01500
C 	C 	0.87800 0.75800 0.27930 0.28700
C 	C 	0.12050 0.65130 0.29450 0.33000
C 	C 	0.53630 0.81370 0.34420 0.11000
C 	C 	0.49170 0.85260 0.38370 -0.16700
C 	C 	0.52970 0.81570 0.42440 0.12900
C 	C 	0.61420 0.74330 0.42300 -0.15700
C 	C 	0.65250 0.70810 0.38220 0.07200
C 	C 	0.49860 0.89880 0.53960 0.15300
C 	C 	0.36980 0.90290 0.55010 -0.05300
C 	C 	0.48270 0.85180 0.46640 -0.05200
C 	C 	0.56690 0.87030 0.50190 -0.10200
C 	C 	0.29650 0.89800 0.51160 -0.10700
C 	C 	0.35250 0.86050 0.47350 0.14800
C 	C 	0.32750 0.93530 0.59410 0.12800
C 	C 	0.38400 0.90410 0.63300 -0.17200
C 	C 	0.34170 0.93420 0.67412 0.09700
C 	C 	0.19250 0.02550 0.64110 0.09000
C 	C 	0.23010 0.99770 0.59890 -0.15900
C 	C 	0.71620 0.92590 0.55870 -0.03600
C 	C 	0.77040 0.97640 0.59810 0.04300
C 	C 	0.13100 0.84200 0.44570 -0.08200
C 	C 	0.05300 0.78140 0.41600 0.08800
C 	C 	0.58850 0.04360 0.80023 -0.03900
C 	C 	0.60140 0.13650 0.80840 0.01200
C 	C 	0.81510 0.10560 0.83170 0.00300
C 	C 	0.79460 0.01390 0.82155 0.00500
C 	C 	0.46600 0.00280 0.78258 0.32900
C 	C 	0.50030 0.20730 0.79823 0.32000
C 	C 	0.00650 0.69620 0.78139 -0.02600
C 	C 	0.11650 0.74550 0.78930 -0.00200
C 	C 	0.22800 0.60550 0.79030 0.00600
C 	C 	0.11550 0.56030 0.78177 0.01100
C 	C 	0.87800 0.74200 0.77930 0.28700
C 	C 	0.12050 0.84870 0.79450 0.33000
C 	C 	0.53630 0.68630 0.84420 0.11000
C 	C 	0.49170 0.64740 0.88370 -0.16600
C 	C 	0.52970 0.68430 0.92440 0.12900
C 	C 	0.61420 0.75670 0.92300 -0.15700
C 	C 	0.65250 0.79190 0.88220 0.07200
C 	C 	0.49860 0.60120 0.03960 0.15500
C 	C 	0.36980 0.59710 0.05010 -0.05700
C 	C 	0.48270 0.64820 0.96640 -0.05100
C 	C 	0.56690 0.62970 0.00190 -0.10400
C 	C 	0.29650 0.60200 0.01160 -0.10500
C 	C 	0.35250 0.63950 0.97350 0.14700
C 	C 	0.32750 0.56470 0.09410 0.13600
C 	C 	0.38400 0.59590 0.13300 -0.17800
C 	C 	0.34170 0.56580 0.17412 0.10000
C 	C 	0.19250 0.47450 0.14110 0.10500
C 	C 	0.23010 0.50230 0.09890 -0.17700
C 	C 	0.71620 0.57410 0.05870 -0.03700
C 	C 	0.77040 0.52360 0.09810 0.04600
C 	C 	0.13100 0.65800 0.94570 -0.08100
C 	C 	0.05300 0.71860 0.91600 0.08600
C 	C 	0.41150 0.54360 0.69977 -0.04000
C 	C 	0.39860 0.63650 0.69160 0.01200
C 	C 	0.18490 0.60560 0.66830 0.00500
C 	C 	0.20540 0.51390 0.67845 0.00100
C 	C 	0.53400 0.50280 0.71742 0.33100
C 	C 	0.49970 0.70730 0.70177 0.32000
C 	C 	0.99350 0.19620 0.71861 -0.02500
C 	C 	0.88350 0.24550 0.71070 -0.00200
C 	C 	0.77200 0.10550 0.70970 0.00400
C 	C 	0.88450 0.06030 0.71823 0.01500
C 	C 	0.12200 0.24200 0.72070 0.28700
C 	C 	0.87950 0.34870 0.70550 0.33000
C 	C 	0.46370 0.18630 0.65580 0.11000
C 	C 	0.50830 0.14740 0.61630 -0.16700
C 	C 	0.47030 0.18430 0.57560 0.12900
C 	C 	0.38580 0.25670 0.57700 -0.15700
C 	C 	0.34750 0.29190 0.61780 0.07200
C 	C 	0.50140 0.10120 0.46040 0.15300
C 	C 	0.63020 0.09710 0.44990 -0.05300
C 	C 	0.51730 0.14820 0.53360 -0.05200
C 	C 	0.43310 0.12970 0.49810 -0.10200
C 	C 	0.70350 0.10200 0.48840 -0.10700
C 	C 	0.64750 0.13950 0.52650 0.14800
C 	C 	0.67250 0.06470 0.40590 0.12800
C 	C 	0.61600 0.09590 0.36700 -0.17200
C 	C 	0.65830 0.06580 0.32588 0.09700
C 	C 	0.80750 0.97450 0.35890 0.09000
C 	C 	0.76990 0.00230 0.40110 -0.15900
C 	C 	0.28380 0.07410 0.44130 -0.03600
C 	C 	0.22960 0.02360 0.40190 0.04300
C 	C 	0.86900 0.15800 0.55430 -0.08200
C 	C 	0.94700 0.21860 0.58400 0.08800
N 	N 	0.31620 0.01670 0.19421 -0.18800
N 	N 	0.28230 0.83210 0.17520 -0.08900
N 	N 	0.99360 0.39450 0.22283 -0.19800
N 	N 	0.76960 0.30140 0.20680 -0.08500
N 	N 	0.41050 0.23270 0.15790 -0.22900
N 	N 	0.75280 0.49520 0.82151 -0.23800
N 	N 	0.68380 0.51670 0.30579 -0.18700
N 	N 	0.71770 0.33210 0.32480 -0.08900
N 	N 	0.00640 0.89450 0.27717 -0.19800
N 	N 	0.23040 0.80140 0.29320 -0.08400
N 	N 	0.58950 0.73270 0.34210 -0.22900
N 	N 	0.24720 0.99520 0.67849 -0.23300
N 	N 	0.68380 0.98330 0.80579 -0.18800
N 	N 	0.71770 0.16790 0.82480 -0.08900
N 	N 	0.00640 0.60550 0.77717 -0.19800
N 	N 	0.23040 0.69860 0.79320 -0.08500
N 	N 	0.58950 0.76730 0.84210 -0.22900
N 	N 	0.24720 0.50480 0.17849 -0.23800
N 	N 	0.31620 0.48330 0.69421 -0.18700
N 	N 	0.28230 0.66790 0.67520 -0.08900
N 	N 	0.99360 0.10550 0.72283 -0.19800
N 	N 	0.76960 0.19860 0.70680 -0.08400
N 	N 	0.41050 0.26730 0.65790 -0.22900
N 	N 	0.75280 0.00480 0.32151 -0.23300
O 	O 	0.53830 0.07970 0.22767 -0.40500
O 	O 	0.62460 0.94160 0.21933 -0.40700
O 	O 	0.50340 0.76450 0.24101 -0.37500
O 	O 	0.56340 0.76270 0.16925 -0.27100
O 	O 	0.21570 0.30540 0.23328 -0.47900
O 	O 	0.13040 0.17620 0.20943 -0.37400
O 	O 	0.86840 0.11800 0.16685 -0.28900
O 	O 	0.87980 0.10850 0.24176 -0.39300
O 	O 	0.42020 0.43200 0.93010 -0.21100
O 	O 	0.09070 0.46920 0.90860 -0.36800
O 	O 	0.72860 0.35270 0.06130 -0.19200
O 	O 	0.96350 0.17950 0.08970 -0.36200
O 	O 	0.46170 0.57970 0.27233 -0.40700
O 	O 	0.37540 0.44160 0.28067 -0.40700
O 	O 	0.49660 0.26450 0.25899 -0.37500
O 	O 	0.43660 0.26270 0.33075 -0.27100
O 	O 	0.78430 0.80540 0.26672 -0.47900
O 	O 	0.86960 0.67620 0.29057 -0.37300
O 	O 	0.13160 0.61800 0.33315 -0.29000
O 	O 	0.12020 0.60850 0.25824 -0.39400
O 	O 	0.57980 0.93200 0.56990 -0.21000
O 	O 	0.90930 0.96920 0.59140 -0.36800
O 	O 	0.27140 0.85270 0.43870 -0.19200
O 	O 	0.03650 0.67950 0.41030 -0.36300
O 	O 	0.46170 0.92030 0.77233 -0.40500
O 	O 	0.37540 0.05840 0.78067 -0.40700
O 	O 	0.49660 0.23550 0.75899 -0.37500
O 	O 	0.43660 0.23730 0.83075 -0.27100
O 	O 	0.78430 0.69460 0.76672 -0.47900
O 	O 	0.86960 0.82380 0.79057 -0.37400
O 	O 	0.13160 0.88200 0.83315 -0.28900
O 	O 	0.12020 0.89150 0.75824 -0.39300
O 	O 	0.57980 0.56800 0.06990 -0.21100
O 	O 	0.90930 0.53080 0.09140 -0.36800
O 	O 	0.27140 0.64730 0.93870 -0.19200
O 	O 	0.03650 0.82050 0.91030 -0.36200
O 	O 	0.53830 0.42030 0.72767 -0.40700
O 	O 	0.62460 0.55840 0.71933 -0.40700
O 	O 	0.50340 0.73550 0.74101 -0.37500
O 	O 	0.56340 0.73730 0.66925 -0.27100
O 	O 	0.21570 0.19460 0.73328 -0.47900
O 	O 	0.13040 0.32380 0.70943 -0.37300
O 	O 	0.86840 0.38200 0.66685 -0.29000
O 	O 	0.87980 0.39150 0.74176 -0.39400
O 	O 	0.42020 0.06800 0.43010 -0.21000
O 	O 	0.09070 0.03080 0.40860 -0.36800
O 	O 	0.72860 0.14730 0.56130 -0.19200
O 	O 	0.96350 0.32050 0.58970 -0.36300
