data_crystal

_cell_length_a 32.81710
_cell_length_b 32.81710
_cell_length_c 9.23050
_cell_angle_alpha 90.00000
_cell_angle_beta  90.00000
_cell_angle_gamma 120.00000

_symmetry_space_group_name_	'P 1'
_symmetry_space_group_name_H-M	'P 1'

loop_
_symmetry_equiv_pos_as_xyz
  x,y,z

loop_
_atom_site_label
_atom_site_type_symbol
_atom_site_fract_x
_atom_site_fract_y
_atom_site_fract_z
_atom_site_charge
N 	N 	0.53592 0.00274 0.17780 -0.28000
N 	N 	0.49861 0.05665 0.07060 -0.27100
N 	N 	0.62304 0.86420 0.23570 -0.24000
N 	N 	0.62030 0.20810 0.90980 -0.11900
C 	C 	0.55666 0.97585 0.20450 0.12100
C 	C 	0.58491 0.99207 0.33380 -0.07900
H 	H 	0.60210 0.97950 0.37460 0.06000
C 	C 	0.58174 0.02854 0.38430 -0.09900
H 	H 	0.59630 0.04610 0.46680 0.06400
C 	C 	0.55154 0.03551 0.28730 0.10300
C 	C 	0.54199 0.07258 0.30000 -0.14200
C 	C 	0.51674 0.08146 0.19690 0.10900
C 	C 	0.50431 0.11746 0.21080 -0.08900
H 	H 	0.51280 0.13910 0.28600 0.06600
C 	C 	0.47805 0.11407 0.09490 -0.07400
H 	H 	0.46480 0.13270 0.07500 0.05700
C 	C 	0.47433 0.07624 0.00790 0.07800
C 	C 	0.55189 0.93907 0.11870 -0.19600
C 	C 	0.57742 0.91375 0.16330 0.17800
C 	C 	0.55943 0.87910 0.26750 -0.22200
H 	H 	0.53160 0.87170 0.31540 0.11400
C 	C 	0.58323 0.85545 0.29980 0.12300
H 	H 	0.57070 0.83210 0.37040 -0.02000
C 	C 	0.61877 0.92319 0.09680 -0.22800
H 	H 	0.63220 0.94640 0.02620 0.10400
C 	C 	0.64017 0.89779 0.13610 0.12200
H 	H 	0.66810 0.90450 0.09020 -0.02400
C 	C 	0.55952 0.10328 0.43050 0.11100
C 	C 	0.54166 0.08532 0.56570 -0.14200
H 	H 	0.51890 0.05380 0.57480 0.08000
C 	C 	0.55703 0.11334 0.68780 0.01900
H 	H 	0.54440 0.10080 0.77800 0.02200
C 	C 	0.59131 0.16010 0.67520 -0.05300
C 	C 	0.60938 0.17867 0.54180 0.01600
H 	H 	0.63230 0.21020 0.53350 0.03400
C 	C 	0.59361 0.15059 0.41920 -0.13800
H 	H 	0.60590 0.16340 0.32890 0.08100
C 	C 	0.60790 0.18783 0.80550 0.10000
N 	N 	0.46408 0.99726 0.82220 -0.25600
N 	N 	0.50139 0.94335 0.92940 -0.26700
N 	N 	0.37696 0.13580 0.76430 -0.23500
N 	N 	0.37970 0.79190 0.09020 -0.13100
C 	C 	0.44334 0.02415 0.79550 0.10000
C 	C 	0.41509 0.00793 0.66620 -0.09800
H 	H 	0.39790 0.02050 0.62540 0.06400
C 	C 	0.41826 0.97146 0.61570 -0.06700
H 	H 	0.40370 0.95390 0.53320 0.05700
C 	C 	0.44846 0.96449 0.71270 0.09900
C 	C 	0.45801 0.92742 0.70000 -0.13500
C 	C 	0.48326 0.91854 0.80310 0.10300
C 	C 	0.49569 0.88254 0.78920 -0.06600
H 	H 	0.48720 0.86090 0.71400 0.05900
C 	C 	0.52195 0.88593 0.90510 -0.10600
H 	H 	0.53520 0.86730 0.92500 0.08200
C 	C 	0.52567 0.92376 0.99210 0.15100
C 	C 	0.44811 0.06093 0.88130 -0.13100
C 	C 	0.42258 0.08625 0.83670 0.16100
C 	C 	0.44057 0.12090 0.73250 -0.20600
H 	H 	0.46840 0.12830 0.68460 0.10900
C 	C 	0.41677 0.14455 0.70020 0.11700
H 	H 	0.42930 0.16790 0.62960 -0.01700
C 	C 	0.38123 0.07681 0.90320 -0.20900
H 	H 	0.36780 0.05360 0.97380 0.10900
C 	C 	0.35983 0.10221 0.86390 0.11900
H 	H 	0.33190 0.09550 0.90980 -0.01600
C 	C 	0.44048 0.89672 0.56950 0.11300
C 	C 	0.45834 0.91468 0.43430 -0.14700
H 	H 	0.48110 0.94620 0.42520 0.08500
C 	C 	0.44297 0.88666 0.31220 0.02600
H 	H 	0.45560 0.89920 0.22200 0.01400
C 	C 	0.40869 0.83990 0.32480 -0.05800
C 	C 	0.39062 0.82133 0.45820 0.02000
H 	H 	0.36770 0.78980 0.46650 0.03300
C 	C 	0.40639 0.84941 0.58080 -0.14100
H 	H 	0.39410 0.83660 0.67110 0.08700
C 	C 	0.39210 0.81217 0.19450 0.09600
Co	Co	0.50000 0.00000 -0.00000 1.12400
N 	N 	0.20259 0.33607 0.51113 -0.26900
N 	N 	0.16528 0.38998 0.40393 -0.26900
N 	N 	0.28971 0.19753 0.56903 -0.23800
N 	N 	0.28697 0.54143 0.24313 -0.12600
C 	C 	0.22333 0.30918 0.53783 0.11100
C 	C 	0.25158 0.32540 0.66713 -0.08700
H 	H 	0.26877 0.31283 0.70793 0.06500
C 	C 	0.24841 0.36187 0.71763 -0.08100
H 	H 	0.26297 0.37943 0.80013 0.06500
C 	C 	0.21821 0.36884 0.62063 0.10100
C 	C 	0.20866 0.40591 0.63333 -0.13600
C 	C 	0.18341 0.41479 0.53023 0.10600
C 	C 	0.17098 0.45079 0.54413 -0.07900
H 	H 	0.17947 0.47243 0.61933 0.06500
C 	C 	0.14472 0.44740 0.42823 -0.08500
H 	H 	0.13147 0.46603 0.40833 0.06800
C 	C 	0.14100 0.40957 0.34123 0.10700
C 	C 	0.21856 0.27240 0.45203 -0.16400
C 	C 	0.24409 0.24708 0.49663 0.17000
C 	C 	0.22610 0.21243 0.60083 -0.21400
H 	H 	0.19827 0.20503 0.64873 0.11300
C 	C 	0.24990 0.18878 0.63313 0.12100
H 	H 	0.23737 0.16543 0.70373 -0.01800
C 	C 	0.28544 0.25652 0.43013 -0.21900
H 	H 	0.29887 0.27973 0.35953 0.10600
C 	C 	0.30684 0.23112 0.46943 0.12100
H 	H 	0.33477 0.23783 0.42353 -0.02100
C 	C 	0.22619 0.43661 0.76383 0.10500
C 	C 	0.20833 0.41865 0.89903 -0.10800
H 	H 	0.18557 0.38713 0.90813 0.07700
C 	C 	0.22370 0.44667 0.02113 -0.00800
H 	H 	0.21107 0.43413 0.11133 0.02700
C 	C 	0.25798 0.49343 0.00853 -0.07500
C 	C 	0.27605 0.51200 0.87513 0.04800
H 	H 	0.29897 0.54353 0.86683 0.02900
C 	C 	0.26028 0.48392 0.75253 -0.14500
H 	H 	0.27257 0.49673 0.66223 0.08700
C 	C 	0.27457 0.52116 0.13883 0.09800
N 	N 	0.13075 0.33059 0.15553 -0.26400
N 	N 	0.16806 0.27668 0.26273 -0.27100
N 	N 	0.04363 0.46913 0.09763 -0.22500
N 	N 	0.04637 0.12523 0.42353 -0.12600
C 	C 	0.11001 0.35748 0.12883 0.08200
C 	C 	0.08176 0.34126 0.99953 -0.06100
H 	H 	0.06457 0.35383 0.95873 0.05800
C 	C 	0.08493 0.30479 0.94903 -0.06600
H 	H 	0.07037 0.28723 0.86653 0.05700
C 	C 	0.11513 0.29782 0.04603 0.08100
C 	C 	0.12468 0.26075 0.03333 -0.14700
C 	C 	0.14993 0.25187 0.13643 0.10400
C 	C 	0.16236 0.21587 0.12253 -0.07700
H 	H 	0.15387 0.19423 0.04733 0.05600
C 	C 	0.18862 0.21926 0.23843 -0.09200
H 	H 	0.20187 0.20063 0.25833 0.07000
C 	C 	0.19234 0.25709 0.32543 0.11400
C 	C 	0.11478 0.39426 0.21463 -0.14700
C 	C 	0.08925 0.41958 0.17003 0.13800
C 	C 	0.10724 0.45423 0.06583 -0.17300
H 	H 	0.13507 0.46163 0.01793 0.09100
C 	C 	0.08344 0.47788 0.03353 0.05500
H 	H 	0.09597 0.50123 0.96293 0.02000
C 	C 	0.04790 0.41014 0.23653 -0.19100
H 	H 	0.03447 0.38693 0.30713 0.09400
C 	C 	0.02650 0.43554 0.19723 0.08700
H 	H 	0.99857 0.42883 0.24313 -0.00400
C 	C 	0.10715 0.23005 0.90283 0.11000
C 	C 	0.12501 0.24801 0.76763 -0.13600
H 	H 	0.14777 0.27953 0.75853 0.08300
C 	C 	0.10964 0.21999 0.64553 0.01200
H 	H 	0.12227 0.23253 0.55533 0.02200
C 	C 	0.07536 0.17323 0.65813 -0.04100
C 	C 	0.05729 0.15466 0.79153 -0.01200
H 	H 	0.03437 0.12313 0.79983 0.04500
C 	C 	0.07306 0.18274 0.91413 -0.08800
H 	H 	0.06077 0.16993 0.00443 0.05100
C 	C 	0.05877 0.14550 0.52783 0.09100
Co	Co	0.16667 0.33333 0.33333 1.13800
N 	N 	0.86925 0.66941 0.84447 -0.27400
N 	N 	0.83194 0.72332 0.73727 -0.27100
N 	N 	0.95637 0.53087 0.90237 -0.24700
N 	N 	0.95363 0.87477 0.57647 -0.12300
C 	C 	0.88999 0.64252 0.87117 0.13900
C 	C 	0.91824 0.65874 0.00047 -0.11500
H 	H 	0.93543 0.64617 0.04127 0.06600
C 	C 	0.91507 0.69521 0.05097 -0.09800
H 	H 	0.92963 0.71277 0.13347 0.06500
C 	C 	0.88487 0.70218 0.95397 0.12100
C 	C 	0.87532 0.73925 0.96667 -0.13100
C 	C 	0.85007 0.74813 0.86357 0.10700
C 	C 	0.83764 0.78413 0.87747 -0.07600
H 	H 	0.84613 0.80577 0.95267 0.06900
C 	C 	0.81138 0.78074 0.76157 -0.08800
H 	H 	0.79813 0.79937 0.74167 0.07000
C 	C 	0.80766 0.74291 0.67457 0.11400
C 	C 	0.88522 0.60574 0.78537 -0.18000
C 	C 	0.91075 0.58042 0.82997 0.20000
C 	C 	0.89276 0.54577 0.93417 -0.25400
H 	H 	0.86493 0.53837 0.98207 0.13200
C 	C 	0.91656 0.52212 0.96647 0.18400
H 	H 	0.90403 0.49877 0.03707 -0.05500
C 	C 	0.95210 0.58986 0.76347 -0.24500
H 	H 	0.96553 0.61307 0.69287 0.11900
C 	C 	0.97350 0.56446 0.80277 0.15200
H 	H 	0.00143 0.57117 0.75687 -0.03500
C 	C 	0.89285 0.76995 0.09717 0.11300
C 	C 	0.87499 0.75199 0.23237 -0.15300
H 	H 	0.85223 0.72047 0.24147 0.08200
C 	C 	0.89036 0.78001 0.35447 0.03400
H 	H 	0.87773 0.76747 0.44467 0.01400
C 	C 	0.92464 0.82677 0.34187 -0.07000
C 	C 	0.94271 0.84534 0.20847 0.04700
H 	H 	0.96563 0.87687 0.20017 0.02300
C 	C 	0.92694 0.81726 0.08587 -0.18900
H 	H 	0.93923 0.83007 0.99557 0.11600
C 	C 	0.94123 0.85450 0.47217 0.10400
N 	N 	0.79741 0.66393 0.48887 -0.26900
N 	N 	0.83472 0.61002 0.59607 -0.27200
N 	N 	0.71029 0.80247 0.43097 -0.23700
N 	N 	0.71303 0.45857 0.75687 -0.12300
C 	C 	0.77667 0.69082 0.46217 0.11000
C 	C 	0.74842 0.67460 0.33287 -0.08900
H 	H 	0.73123 0.68717 0.29207 0.06000
C 	C 	0.75159 0.63813 0.28237 -0.08400
H 	H 	0.73703 0.62057 0.19987 0.05700
C 	C 	0.78179 0.63116 0.37937 0.10100
C 	C 	0.79134 0.59409 0.36667 -0.14200
C 	C 	0.81659 0.58521 0.46977 0.10500
C 	C 	0.82902 0.54921 0.45587 -0.07500
H 	H 	0.82053 0.52757 0.38067 0.06000
C 	C 	0.85528 0.55260 0.57177 -0.09500
H 	H 	0.86853 0.53397 0.59167 0.07200
C 	C 	0.85900 0.59043 0.65877 0.12200
C 	C 	0.78144 0.72760 0.54797 -0.16400
C 	C 	0.75591 0.75292 0.50337 0.16900
C 	C 	0.77390 0.78757 0.39917 -0.21400
H 	H 	0.80173 0.79497 0.35127 0.11000
C 	C 	0.75010 0.81122 0.36687 0.11900
H 	H 	0.76263 0.83457 0.29627 -0.01900
C 	C 	0.71456 0.74348 0.56987 -0.21800
H 	H 	0.70113 0.72027 0.64047 0.10700
C 	C 	0.69316 0.76888 0.53057 0.12000
H 	H 	0.66523 0.76217 0.57647 -0.02000
C 	C 	0.77381 0.56339 0.23617 0.11800
C 	C 	0.79167 0.58135 0.10097 -0.18200
H 	H 	0.81443 0.61287 0.09187 0.08800
C 	C 	0.77630 0.55333 0.97887 0.05400
H 	H 	0.78893 0.56587 0.88867 0.01000
C 	C 	0.74202 0.50657 0.99147 -0.03600
C 	C 	0.72395 0.48800 0.12487 -0.01300
H 	H 	0.70103 0.45647 0.13317 0.03800
C 	C 	0.73972 0.51608 0.24747 -0.13400
H 	H 	0.72743 0.50327 0.33777 0.08100
C 	C 	0.72543 0.47884 0.86117 0.09800
Co	Co	0.83333 0.66667 0.66667 1.13800
N 	N 	0.99726 0.53318 0.17780 -0.26800
N 	N 	0.94335 0.44196 0.07060 -0.26800
N 	N 	0.13580 0.75884 0.23570 -0.23900
N 	N 	0.79190 0.41220 0.90980 -0.11800
C 	C 	0.02415 0.58081 0.20450 0.11700
C 	C 	0.00793 0.59284 0.33380 -0.11100
H 	H 	0.02050 0.62260 0.37460 0.06800
C 	C 	0.97146 0.55320 0.38430 -0.06200
H 	H 	0.95390 0.55020 0.46680 0.05500
C 	C 	0.96449 0.51603 0.28730 0.09600
C 	C 	0.92742 0.46941 0.30000 -0.13700
C 	C 	0.91854 0.43528 0.19690 0.10700
C 	C 	0.88254 0.38685 0.21080 -0.08700
H 	H 	0.86090 0.37370 0.28600 0.06500
C 	C 	0.88593 0.36398 0.09490 -0.07500
H 	H 	0.86730 0.33210 0.07500 0.05800
C 	C 	0.92376 0.39809 0.00790 0.08000
C 	C 	0.06093 0.61282 0.11870 -0.19700
C 	C 	0.08625 0.66367 0.16330 0.17700
C 	C 	0.12090 0.68033 0.26750 -0.22200
H 	H 	0.12830 0.65990 0.31540 0.11400
C 	C 	0.14455 0.72778 0.29980 0.12200
H 	H 	0.16790 0.73860 0.37040 -0.01900
C 	C 	0.07681 0.69558 0.09680 -0.22700
H 	H 	0.05360 0.68580 0.02620 0.10100
C 	C 	0.10221 0.74238 0.13610 0.12100
H 	H 	0.09550 0.76360 0.09020 -0.02500
C 	C 	0.89672 0.45624 0.43050 0.10900
C 	C 	0.91468 0.45634 0.56570 -0.14200
H 	H 	0.94620 0.46510 0.57480 0.08300
C 	C 	0.88666 0.44369 0.68780 0.02000
H 	H 	0.89920 0.44360 0.77800 0.02300
C 	C 	0.83990 0.43121 0.67520 -0.05300
C 	C 	0.82133 0.43071 0.54180 0.01500
H 	H 	0.78980 0.42210 0.53350 0.03400
C 	C 	0.84941 0.44302 0.41920 -0.13700
H 	H 	0.83660 0.44250 0.32890 0.08100
C 	C 	0.81217 0.42007 0.80550 0.10000
N 	N 	0.00274 0.46682 0.82220 -0.26600
N 	N 	0.05665 0.55804 0.92940 -0.27000
N 	N 	0.86420 0.24116 0.76430 -0.23500
N 	N 	0.20810 0.58780 0.09020 -0.13100
C 	C 	0.97585 0.41919 0.79550 0.10500
C 	C 	0.99207 0.40716 0.66620 -0.06600
H 	H 	0.97950 0.37740 0.62540 0.05600
C 	C 	0.02854 0.44680 0.61570 -0.10200
H 	H 	0.04610 0.44980 0.53320 0.06700
C 	C 	0.03551 0.48397 0.71270 0.10700
C 	C 	0.07258 0.53059 0.70000 -0.14000
C 	C 	0.08146 0.56472 0.80310 0.10400
C 	C 	0.11746 0.61315 0.78920 -0.06700
H 	H 	0.13910 0.62630 0.71400 0.06000
C 	C 	0.11407 0.63602 0.90510 -0.10500
H 	H 	0.13270 0.66790 0.92500 0.08200
C 	C 	0.07624 0.60191 0.99210 0.14900
C 	C 	0.93907 0.38718 0.88130 -0.13000
C 	C 	0.91375 0.33633 0.83670 0.16200
C 	C 	0.87910 0.31967 0.73250 -0.20700
H 	H 	0.87170 0.34010 0.68460 0.11000
C 	C 	0.85545 0.27222 0.70020 0.11800
H 	H 	0.83210 0.26140 0.62960 -0.01700
C 	C 	0.92319 0.30442 0.90320 -0.20900
H 	H 	0.94640 0.31420 0.97380 0.11200
C 	C 	0.89779 0.25762 0.86390 0.12000
H 	H 	0.90450 0.23640 0.90980 -0.01600
C 	C 	0.10328 0.54376 0.56950 0.11400
C 	C 	0.08532 0.54366 0.43430 -0.14700
H 	H 	0.05380 0.53490 0.42520 0.08200
C 	C 	0.11334 0.55631 0.31220 0.02600
H 	H 	0.10080 0.55640 0.22200 0.01400
C 	C 	0.16010 0.56879 0.32480 -0.05800
C 	C 	0.17867 0.56929 0.45820 0.02100
H 	H 	0.21020 0.57790 0.46650 0.03300
C 	C 	0.15059 0.55698 0.58080 -0.14200
H 	H 	0.16340 0.55750 0.67110 0.08700
C 	C 	0.18783 0.57993 0.19450 0.09600
Co	Co	-0.00000 0.50000 -0.00000 1.12400
N 	N 	0.66393 0.86651 0.51113 -0.27000
N 	N 	0.61002 0.77529 0.40393 -0.27000
N 	N 	0.80247 0.09217 0.56903 -0.24500
N 	N 	0.45857 0.74553 0.24313 -0.12600
C 	C 	0.69082 0.91414 0.53783 0.11600
C 	C 	0.67460 0.92617 0.66713 -0.09100
H 	H 	0.68717 0.95593 0.70793 0.06800
C 	C 	0.63813 0.88653 0.71763 -0.07800
H 	H 	0.62057 0.88353 0.80013 0.06400
C 	C 	0.63116 0.84936 0.62063 0.10000
C 	C 	0.59409 0.80274 0.63333 -0.13600
C 	C 	0.58521 0.76861 0.53023 0.10600
C 	C 	0.54921 0.72018 0.54413 -0.07900
H 	H 	0.52757 0.70703 0.61933 0.06500
C 	C 	0.55260 0.69731 0.42823 -0.08600
H 	H 	0.53397 0.66543 0.40833 0.06900
C 	C 	0.59043 0.73142 0.34123 0.10800
C 	C 	0.72760 0.94615 0.45203 -0.17500
C 	C 	0.75292 0.99700 0.49663 0.21000
C 	C 	0.78757 0.01366 0.60083 -0.26400
H 	H 	0.79497 0.99323 0.64873 0.13600
C 	C 	0.81122 0.06111 0.63313 0.14600
H 	H 	0.83457 0.07193 0.70373 -0.02700
C 	C 	0.74348 0.02891 0.43013 -0.25100
H 	H 	0.72027 0.01913 0.35953 0.11400
C 	C 	0.76888 0.07571 0.46943 0.13700
H 	H 	0.76217 0.09693 0.42353 -0.02700
C 	C 	0.56339 0.78957 0.76383 0.10500
C 	C 	0.58135 0.78967 0.89903 -0.10800
H 	H 	0.61287 0.79843 0.90813 0.07700
C 	C 	0.55333 0.77702 0.02113 -0.00800
H 	H 	0.56587 0.77693 0.11133 0.02600
C 	C 	0.50657 0.76454 0.00853 -0.07500
C 	C 	0.48800 0.76404 0.87513 0.04800
H 	H 	0.45647 0.75543 0.86683 0.02900
C 	C 	0.51608 0.77635 0.75253 -0.14500
H 	H 	0.50327 0.77583 0.66223 0.08700
C 	C 	0.47884 0.75340 0.13883 0.09800
N 	N 	0.66941 0.80015 0.15553 -0.26500
N 	N 	0.72332 0.89137 0.26273 -0.27100
N 	N 	0.53087 0.57449 0.09763 -0.22800
N 	N 	0.87477 0.92113 0.42353 -0.12200
C 	C 	0.64252 0.75252 0.12883 0.08400
C 	C 	0.65874 0.74049 0.99953 -0.06200
H 	H 	0.64617 0.71073 0.95873 0.06000
C 	C 	0.69521 0.78013 0.94903 -0.06600
H 	H 	0.71277 0.78313 0.86653 0.05800
C 	C 	0.70218 0.81730 0.04603 0.08200
C 	C 	0.73925 0.86392 0.03333 -0.14800
C 	C 	0.74813 0.89805 0.13643 0.10800
C 	C 	0.78413 0.94648 0.12253 -0.08800
H 	H 	0.80577 0.95963 0.04733 0.06200
C 	C 	0.78074 0.96935 0.23843 -0.07100
H 	H 	0.79937 0.00123 0.25833 0.05700
C 	C 	0.74291 0.93524 0.32543 0.11300
C 	C 	0.60574 0.72051 0.21463 -0.14900
C 	C 	0.58042 0.66966 0.17003 0.14500
C 	C 	0.54577 0.65300 0.06583 -0.17800
H 	H 	0.53837 0.67343 0.01793 0.09200
C 	C 	0.52212 0.60555 0.03353 0.05900
H 	H 	0.49877 0.59473 0.96293 0.01800
C 	C 	0.58986 0.63775 0.23653 -0.20300
H 	H 	0.61307 0.64753 0.30713 0.10000
C 	C 	0.56446 0.59095 0.19723 0.10800
H 	H 	0.57117 0.56973 0.24313 -0.01700
C 	C 	0.76995 0.87709 0.90283 0.11100
C 	C 	0.75199 0.87699 0.76763 -0.13600
H 	H 	0.72047 0.86823 0.75853 0.08300
C 	C 	0.78001 0.88964 0.64553 0.01200
H 	H 	0.76747 0.88973 0.55533 0.02200
C 	C 	0.82677 0.90212 0.65813 -0.04000
C 	C 	0.84534 0.90262 0.79153 -0.01000
H 	H 	0.87687 0.91123 0.79983 0.04800
C 	C 	0.81726 0.89031 0.91413 -0.08900
H 	H 	0.83007 0.89083 0.00443 0.05400
C 	C 	0.85450 0.91326 0.52783 0.09400
Co	Co	0.66667 0.83333 0.33333 1.13800
N 	N 	0.33059 0.19985 0.84447 -0.27400
N 	N 	0.27668 0.10863 0.73727 -0.27000
N 	N 	0.46913 0.42551 0.90237 -0.24500
N 	N 	0.12523 0.07887 0.57647 -0.12700
C 	C 	0.35748 0.24748 0.87117 0.13800
C 	C 	0.34126 0.25951 0.00047 -0.11500
H 	H 	0.35383 0.28927 0.04127 0.06500
C 	C 	0.30479 0.21987 0.05097 -0.09900
H 	H 	0.28723 0.21687 0.13347 0.06400
C 	C 	0.29782 0.18270 0.95397 0.12100
C 	C 	0.26075 0.13608 0.96667 -0.13000
C 	C 	0.25187 0.10195 0.86357 0.10400
C 	C 	0.21587 0.05352 0.87747 -0.06600
H 	H 	0.19423 0.04037 0.95267 0.06300
C 	C 	0.21926 0.03065 0.76157 -0.10800
H 	H 	0.20063 0.99877 0.74167 0.08300
C 	C 	0.25709 0.06476 0.67457 0.11600
C 	C 	0.39426 0.27949 0.78537 -0.17900
C 	C 	0.41958 0.33034 0.82997 0.19500
C 	C 	0.45423 0.34700 0.93417 -0.25000
H 	H 	0.46163 0.32657 0.98207 0.13100
C 	C 	0.47788 0.39445 0.96647 0.18200
H 	H 	0.50123 0.40527 0.03707 -0.05500
C 	C 	0.41014 0.36225 0.76347 -0.23400
H 	H 	0.38693 0.35247 0.69287 0.11300
C 	C 	0.43554 0.40905 0.80277 0.13300
H 	H 	0.42883 0.43027 0.75687 -0.02300
C 	C 	0.23005 0.12291 0.09717 0.11300
C 	C 	0.24801 0.12301 0.23237 -0.15400
H 	H 	0.27953 0.13177 0.24147 0.08200
C 	C 	0.21999 0.11036 0.35447 0.03500
H 	H 	0.23253 0.11027 0.44467 0.01400
C 	C 	0.17323 0.09788 0.34187 -0.07200
C 	C 	0.15466 0.09738 0.20847 0.04800
H 	H 	0.12313 0.08877 0.20017 0.01800
C 	C 	0.18274 0.10969 0.08587 -0.19200
H 	H 	0.16993 0.10917 0.99557 0.11500
C 	C 	0.14550 0.08674 0.47217 0.10200
N 	N 	0.33607 0.13349 0.48887 -0.26900
N 	N 	0.38998 0.22471 0.59607 -0.27200
N 	N 	0.19753 0.90783 0.43097 -0.22900
N 	N 	0.54143 0.25447 0.75687 -0.12300
C 	C 	0.30918 0.08586 0.46217 0.10500
C 	C 	0.32540 0.07383 0.33287 -0.08600
H 	H 	0.31283 0.04407 0.29207 0.05600
C 	C 	0.36187 0.11347 0.28237 -0.08600
H 	H 	0.37943 0.11647 0.19987 0.05800
C 	C 	0.36884 0.15064 0.37937 0.10200
C 	C 	0.40591 0.19726 0.36667 -0.14200
C 	C 	0.41479 0.23139 0.46977 0.10600
C 	C 	0.45079 0.27982 0.45587 -0.07500
H 	H 	0.47243 0.29297 0.38067 0.06000
C 	C 	0.44740 0.30269 0.57177 -0.09400
H 	H 	0.46603 0.33457 0.59167 0.07100
C 	C 	0.40957 0.26858 0.65877 0.12100
C 	C 	0.27240 0.05385 0.54797 -0.15300
C 	C 	0.24708 0.00300 0.50337 0.12900
C 	C 	0.21243 0.98634 0.39917 -0.16400
H 	H 	0.20503 0.00677 0.35127 0.08700
C 	C 	0.18878 0.93889 0.36687 0.09500
H 	H 	0.16543 0.92807 0.29627 -0.01000
C 	C 	0.25652 0.97109 0.56987 -0.18500
H 	H 	0.27973 0.98087 0.64047 0.09800
C 	C 	0.23112 0.92429 0.53057 0.10300
H 	H 	0.23783 0.90307 0.57647 -0.01400
C 	C 	0.43661 0.21043 0.23617 0.11900
C 	C 	0.41865 0.21033 0.10097 -0.18200
H 	H 	0.38713 0.20157 0.09187 0.08800
C 	C 	0.44667 0.22298 0.97887 0.05500
H 	H 	0.43413 0.22307 0.88867 0.00900
C 	C 	0.49343 0.23546 0.99147 -0.03600
C 	C 	0.51200 0.23596 0.12487 -0.01200
H 	H 	0.54353 0.24457 0.13317 0.03700
C 	C 	0.48392 0.22365 0.24747 -0.13500
H 	H 	0.49673 0.22417 0.33777 0.08100
C 	C 	0.52116 0.24660 0.86117 0.09800
Co	Co	0.33333 0.16667 0.66667 1.13800
N 	N 	0.46682 0.46408 0.17780 -0.27400
N 	N 	0.55804 0.50139 0.07060 -0.27000
N 	N 	0.24116 0.37696 0.23570 -0.23900
N 	N 	0.58780 0.37970 0.90980 -0.11800
C 	C 	0.41919 0.44334 0.20450 0.11900
C 	C 	0.40716 0.41509 0.33380 -0.09500
H 	H 	0.37740 0.39790 0.37460 0.06500
C 	C 	0.44680 0.41826 0.38430 -0.08000
H 	H 	0.44980 0.40370 0.46680 0.06000
C 	C 	0.48397 0.44846 0.28730 0.09900
C 	C 	0.53059 0.45801 0.30000 -0.14000
C 	C 	0.56472 0.48326 0.19690 0.10800
C 	C 	0.61315 0.49569 0.21080 -0.08800
H 	H 	0.62630 0.48720 0.28600 0.06500
C 	C 	0.63602 0.52195 0.09490 -0.07500
H 	H 	0.66790 0.53520 0.07500 0.05800
C 	C 	0.60191 0.52567 0.00790 0.07900
C 	C 	0.38718 0.44811 0.11870 -0.19700
C 	C 	0.33633 0.42258 0.16330 0.17800
C 	C 	0.31967 0.44057 0.26750 -0.22200
H 	H 	0.34010 0.46840 0.31540 0.11400
C 	C 	0.27222 0.41677 0.29980 0.12300
H 	H 	0.26140 0.42930 0.37040 -0.01900
C 	C 	0.30442 0.38123 0.09680 -0.22800
H 	H 	0.31420 0.36780 0.02620 0.10300
C 	C 	0.25762 0.35983 0.13610 0.12100
H 	H 	0.23640 0.33190 0.09020 -0.02500
C 	C 	0.54376 0.44048 0.43050 0.11000
C 	C 	0.54366 0.45834 0.56570 -0.14200
H 	H 	0.53490 0.48110 0.57480 0.08200
C 	C 	0.55631 0.44297 0.68780 0.02000
H 	H 	0.55640 0.45560 0.77800 0.02300
C 	C 	0.56879 0.40869 0.67520 -0.05300
C 	C 	0.56929 0.39062 0.54180 0.01500
H 	H 	0.57790 0.36770 0.53350 0.03400
C 	C 	0.55698 0.40639 0.41920 -0.13800
H 	H 	0.55750 0.39410 0.32890 0.08100
C 	C 	0.57993 0.39210 0.80550 0.10000
N 	N 	0.53318 0.53592 0.82220 -0.26200
N 	N 	0.44196 0.49861 0.92940 -0.26900
N 	N 	0.75884 0.62304 0.76430 -0.23500
N 	N 	0.41220 0.62030 0.09020 -0.13100
C 	C 	0.58081 0.55666 0.79550 0.10200
C 	C 	0.59284 0.58491 0.66620 -0.08100
H 	H 	0.62260 0.60210 0.62540 0.06000
C 	C 	0.55320 0.58174 0.61570 -0.08500
H 	H 	0.55020 0.59630 0.53320 0.06200
C 	C 	0.51603 0.55154 0.71270 0.10300
C 	C 	0.46941 0.54199 0.70000 -0.13800
C 	C 	0.43528 0.51674 0.80310 0.10400
C 	C 	0.38685 0.50431 0.78920 -0.06600
H 	H 	0.37370 0.51280 0.71400 0.06000
C 	C 	0.36398 0.47805 0.90510 -0.10500
H 	H 	0.33210 0.46480 0.92500 0.08200
C 	C 	0.39809 0.47433 0.99210 0.15000
C 	C 	0.61282 0.55189 0.88130 -0.13100
C 	C 	0.66367 0.57742 0.83670 0.16200
C 	C 	0.68033 0.55943 0.73250 -0.20600
H 	H 	0.65990 0.53160 0.68460 0.11000
C 	C 	0.72778 0.58323 0.70020 0.11800
H 	H 	0.73860 0.57070 0.62960 -0.01700
C 	C 	0.69558 0.61877 0.90320 -0.20900
H 	H 	0.68580 0.63220 0.97380 0.11000
C 	C 	0.74238 0.64017 0.86390 0.11900
H 	H 	0.76360 0.66810 0.90980 -0.01600
C 	C 	0.45624 0.55952 0.56950 0.11300
C 	C 	0.45634 0.54166 0.43430 -0.14700
H 	H 	0.46510 0.51890 0.42520 0.08300
C 	C 	0.44369 0.55703 0.31220 0.02600
H 	H 	0.44360 0.54440 0.22200 0.01400
C 	C 	0.43121 0.59131 0.32480 -0.05800
C 	C 	0.43071 0.60938 0.45820 0.02000
H 	H 	0.42210 0.63230 0.46650 0.03300
C 	C 	0.44302 0.59361 0.58080 -0.14100
H 	H 	0.44250 0.60590 0.67110 0.08700
C 	C 	0.42007 0.60790 0.19450 0.09600
Co	Co	0.50000 0.50000 -0.00000 1.12800
N 	N 	0.13349 0.79741 0.51113 -0.26900
N 	N 	0.22471 0.83472 0.40393 -0.27000
N 	N 	0.90783 0.71029 0.56903 -0.23000
N 	N 	0.25447 0.71303 0.24313 -0.12600
C 	C 	0.08586 0.77667 0.53783 0.10600
C 	C 	0.07383 0.74842 0.66713 -0.08400
H 	H 	0.04407 0.73123 0.70793 0.06200
C 	C 	0.11347 0.75159 0.71763 -0.08300
H 	H 	0.11647 0.73703 0.80013 0.06500
C 	C 	0.15064 0.78179 0.62063 0.10200
C 	C 	0.19726 0.79134 0.63333 -0.13600
C 	C 	0.23139 0.81659 0.53023 0.10600
C 	C 	0.27982 0.82902 0.54413 -0.07800
H 	H 	0.29297 0.82053 0.61933 0.06500
C 	C 	0.30269 0.85528 0.42823 -0.08600
H 	H 	0.33457 0.86853 0.40833 0.06900
C 	C 	0.26858 0.85900 0.34123 0.10900
C 	C 	0.05385 0.78144 0.45203 -0.15400
C 	C 	0.00300 0.75591 0.49663 0.13300
C 	C 	0.98634 0.77390 0.60083 -0.16700
H 	H 	0.00677 0.80173 0.64873 0.09200
C 	C 	0.93889 0.75010 0.63313 0.09900
H 	H 	0.92807 0.76263 0.70373 -0.00900
C 	C 	0.97109 0.71456 0.43013 -0.18800
H 	H 	0.98087 0.70113 0.35953 0.09800
C 	C 	0.92429 0.69316 0.46943 0.10500
H 	H 	0.90307 0.66523 0.42353 -0.01500
C 	C 	0.21043 0.77381 0.76383 0.10500
C 	C 	0.21033 0.79167 0.89903 -0.10800
H 	H 	0.20157 0.81443 0.90813 0.07700
C 	C 	0.22298 0.77630 0.02113 -0.00800
H 	H 	0.22307 0.78893 0.11133 0.02600
C 	C 	0.23546 0.74202 0.00853 -0.07500
C 	C 	0.23596 0.72395 0.87513 0.04800
H 	H 	0.24457 0.70103 0.86683 0.02900
C 	C 	0.22365 0.73972 0.75253 -0.14500
H 	H 	0.22417 0.72743 0.66223 0.08700
C 	C 	0.24660 0.72543 0.13883 0.09800
N 	N 	0.19985 0.86925 0.15553 -0.26400
N 	N 	0.10863 0.83194 0.26273 -0.27000
N 	N 	0.42551 0.95637 0.09763 -0.23100
N 	N 	0.07887 0.95363 0.42353 -0.12300
C 	C 	0.24748 0.88999 0.12883 0.08600
C 	C 	0.25951 0.91824 0.99953 -0.06300
H 	H 	0.28927 0.93543 0.95873 0.06100
C 	C 	0.21987 0.91507 0.94903 -0.06300
H 	H 	0.21687 0.92963 0.86653 0.05800
C 	C 	0.18270 0.88487 0.04603 0.08000
C 	C 	0.13608 0.87532 0.03333 -0.14500
C 	C 	0.10195 0.85007 0.13643 0.10000
C 	C 	0.05352 0.83764 0.12253 -0.06700
H 	H 	0.04037 0.84613 0.04733 0.05000
C 	C 	0.03065 0.81138 0.23843 -0.11100
H 	H 	0.99877 0.79813 0.25833 0.08200
C 	C 	0.06476 0.80766 0.32543 0.11600
C 	C 	0.27949 0.88522 0.21463 -0.15200
C 	C 	0.33034 0.91075 0.17003 0.15200
C 	C 	0.34700 0.89276 0.06583 -0.18300
H 	H 	0.32657 0.86493 0.01793 0.09400
C 	C 	0.39445 0.91656 0.03353 0.06300
H 	H 	0.40527 0.90403 0.96293 0.01700
C 	C 	0.36225 0.95210 0.23653 -0.21500
H 	H 	0.35247 0.96553 0.30713 0.10700
C 	C 	0.40905 0.97350 0.19723 0.13000
H 	H 	0.43027 0.00143 0.24313 -0.03000
C 	C 	0.12291 0.89285 0.90283 0.10900
C 	C 	0.12301 0.87499 0.76763 -0.13500
H 	H 	0.13177 0.85223 0.75853 0.08200
C 	C 	0.11036 0.89036 0.64553 0.01100
H 	H 	0.11027 0.87773 0.55533 0.02200
C 	C 	0.09788 0.92464 0.65813 -0.04000
C 	C 	0.09738 0.94271 0.79153 -0.01200
H 	H 	0.08877 0.96563 0.79983 0.04900
C 	C 	0.10969 0.92694 0.91413 -0.08700
H 	H 	0.10917 0.93923 0.00443 0.05300
C 	C 	0.08674 0.94123 0.52783 0.09300
Co	Co	0.16667 0.83333 0.33333 1.13700
N 	N 	0.80015 0.13075 0.84447 -0.27400
N 	N 	0.89137 0.16806 0.73727 -0.27100
N 	N 	0.57449 0.04363 0.90237 -0.24200
N 	N 	0.92113 0.04637 0.57647 -0.12600
C 	C 	0.75252 0.11001 0.87117 0.13600
C 	C 	0.74049 0.08176 0.00047 -0.11300
H 	H 	0.71073 0.06457 0.04127 0.06300
C 	C 	0.78013 0.08493 0.05097 -0.10100
H 	H 	0.78313 0.07037 0.13347 0.06400
C 	C 	0.81730 0.11513 0.95397 0.12200
C 	C 	0.86392 0.12468 0.96667 -0.13300
C 	C 	0.89805 0.14993 0.86357 0.11100
C 	C 	0.94648 0.16236 0.87747 -0.08700
H 	H 	0.95963 0.15387 0.95267 0.07400
C 	C 	0.96935 0.18862 0.76157 -0.07000
H 	H 	0.00123 0.20187 0.74167 0.05800
C 	C 	0.93524 0.19234 0.67457 0.11300
C 	C 	0.72051 0.11478 0.78537 -0.17600
C 	C 	0.66966 0.08925 0.82997 0.18800
C 	C 	0.65300 0.10724 0.93417 -0.24600
H 	H 	0.67343 0.13507 0.98207 0.13000
C 	C 	0.60555 0.08344 0.96647 0.17800
H 	H 	0.59473 0.09597 0.03707 -0.05400
C 	C 	0.63775 0.04790 0.76347 -0.22200
H 	H 	0.64753 0.03447 0.69287 0.10700
C 	C 	0.59095 0.02650 0.80277 0.11200
H 	H 	0.56973 0.99857 0.75687 -0.01000
C 	C 	0.87709 0.10715 0.09717 0.11400
C 	C 	0.87699 0.12501 0.23237 -0.15500
H 	H 	0.86823 0.14777 0.24147 0.08300
C 	C 	0.88964 0.10964 0.35447 0.03500
H 	H 	0.88973 0.12227 0.44467 0.01400
C 	C 	0.90212 0.07536 0.34187 -0.07200
C 	C 	0.90262 0.05729 0.20847 0.04800
H 	H 	0.91123 0.03437 0.20017 0.01800
C 	C 	0.89031 0.07306 0.08587 -0.19200
H 	H 	0.89083 0.06077 0.99557 0.11500
C 	C 	0.91326 0.05877 0.47217 0.10300
N 	N 	0.86651 0.20259 0.48887 -0.27000
N 	N 	0.77529 0.16528 0.59607 -0.27100
N 	N 	0.09217 0.28971 0.43097 -0.24500
N 	N 	0.74553 0.28697 0.75687 -0.12300
C 	C 	0.91414 0.22333 0.46217 0.11600
C 	C 	0.92617 0.25158 0.33287 -0.09300
H 	H 	0.95593 0.26877 0.29207 0.06300
C 	C 	0.88653 0.24841 0.28237 -0.08100
H 	H 	0.88353 0.26297 0.19987 0.05600
C 	C 	0.84936 0.21821 0.37937 0.10100
C 	C 	0.80274 0.20866 0.36667 -0.14200
C 	C 	0.76861 0.18341 0.46977 0.10600
C 	C 	0.72018 0.17098 0.45587 -0.07600
H 	H 	0.70703 0.17947 0.38067 0.06000
C 	C 	0.69731 0.14472 0.57177 -0.09400
H 	H 	0.66543 0.13147 0.59167 0.07100
C 	C 	0.73142 0.14100 0.65877 0.12000
C 	C 	0.94615 0.21856 0.54797 -0.17400
C 	C 	0.99700 0.24409 0.50337 0.20800
C 	C 	0.01366 0.22610 0.39917 -0.26300
H 	H 	0.99323 0.19827 0.35127 0.13200
C 	C 	0.06111 0.24990 0.36687 0.14200
H 	H 	0.07193 0.23737 0.29627 -0.02800
C 	C 	0.02891 0.28544 0.56987 -0.25000
H 	H 	0.01913 0.29887 0.64047 0.11500
C 	C 	0.07571 0.30684 0.53057 0.13600
H 	H 	0.09693 0.33477 0.57647 -0.02500
C 	C 	0.78957 0.22619 0.23617 0.11800
C 	C 	0.78967 0.20833 0.10097 -0.18200
H 	H 	0.79843 0.18557 0.09187 0.08800
C 	C 	0.77702 0.22370 0.97887 0.05400
H 	H 	0.77693 0.21107 0.88867 0.01000
C 	C 	0.76454 0.25798 0.99147 -0.03600
C 	C 	0.76404 0.27605 0.12487 -0.01200
H 	H 	0.75543 0.29897 0.13317 0.03800
C 	C 	0.77635 0.26028 0.24747 -0.13400
H 	H 	0.77583 0.27257 0.33777 0.08100
C 	C 	0.75340 0.27457 0.86117 0.09800
Co	Co	0.83333 0.16667 0.66667 1.13800
