data_crystal

_cell_length_a 7.85160
_cell_length_b 10.73830
_cell_length_c 14.19280
_cell_angle_alpha 112.22900
_cell_angle_beta  90.00000
_cell_angle_gamma 90.00000

_symmetry_space_group_name_	'P 1'
_symmetry_space_group_name_H-M	'P 1'

loop_
_symmetry_equiv_pos_as_xyz
  x,y,z

loop_
_atom_site_label
_atom_site_type_symbol
_atom_site_fract_x
_atom_site_fract_y
_atom_site_fract_z
_atom_site_charge
Cd	Cd	0.03270 0.01092 0.02184 1.18300
Cd	Cd	0.45390 0.23973 0.47946 1.18500
Cd	Cd	0.53270 0.98908 0.97816 1.17400
Cd	Cd	0.95390 0.76027 0.52054 1.17400
Cd	Cd	0.74600 0.62408 0.24816 1.18000
Cd	Cd	0.24600 0.37592 0.75184 1.18600
H 	H 	0.99570 0.81420 0.16520 -0.03900
H 	H 	0.52300 0.73340 0.07340 -0.03200
H 	H 	0.56210 0.36880 0.30020 -0.04000
H 	H 	0.74380 0.50300 0.57240 -0.02800
H 	H 	0.49570 0.18580 0.83480 -0.02900
H 	H 	0.02300 0.26660 0.92660 -0.02500
H 	H 	0.06210 0.63120 0.69980 -0.03200
H 	H 	0.24380 0.49700 0.42760 -0.02200
H 	H 	0.49570 0.64900 0.83480 -0.03100
H 	H 	0.02300 0.66000 0.92660 -0.02500
H 	H 	0.06210 0.06860 0.69980 -0.03200
H 	H 	0.24380 0.93060 0.42760 -0.02200
H 	H 	0.99570 0.35100 0.16520 -0.03900
H 	H 	0.52300 0.34000 0.07340 -0.03300
H 	H 	0.56210 0.93140 0.30020 -0.03900
H 	H 	0.74380 0.06940 0.57240 -0.02800
H 	H 	0.57840 0.11930 0.23860 -0.03500
H 	H 	0.09320 0.14880 0.29760 -0.03300
H 	H 	0.07840 0.88070 0.76140 0.01000
H 	H 	0.59320 0.85120 0.70240 -0.04000
C 	C 	0.89100 0.81310 0.13420 0.08300
C 	C 	0.63300 0.76800 0.08400 0.08100
C 	C 	0.61700 0.42190 0.35980 0.09700
C 	C 	0.71500 0.49430 0.50660 0.08400
C 	C 	0.39100 0.18690 0.86580 0.08600
C 	C 	0.13300 0.23200 0.91600 0.08300
C 	C 	0.11700 0.57810 0.64020 0.10100
C 	C 	0.21500 0.50570 0.49340 0.08900
C 	C 	0.39100 0.67890 0.86580 0.08500
C 	C 	0.13300 0.68400 0.91600 0.08300
C 	C 	0.11700 0.06210 0.64020 0.09600
C 	C 	0.21500 0.98770 0.49340 0.09500
C 	C 	0.89100 0.32110 0.13420 0.08200
C 	C 	0.63300 0.31600 0.08400 0.08000
C 	C 	0.61700 0.93790 0.35980 0.09900
C 	C 	0.71500 0.01230 0.50660 0.08500
C 	C 	0.46100 0.11490 0.22980 0.05700
C 	C 	0.19500 0.13090 0.26180 0.10700
C 	C 	0.96100 0.88510 0.77020 -0.01300
C 	C 	0.69500 0.86910 0.73820 0.10300
Br	Br	0.05990 0.65536 0.31072 -0.58900
Br	Br	0.55990 0.34464 0.68928 -0.62600
N 	N 	0.85600 0.88820 0.08440 -0.23300
N 	N 	0.68900 0.85980 0.05000 -0.21900
N 	N 	0.75700 0.73050 0.13660 -0.26000
N 	N 	0.69600 0.53300 0.37060 -0.22500
N 	N 	0.75900 0.58260 0.46520 -0.21900
N 	N 	0.62400 0.39270 0.44240 -0.25500
N 	N 	0.35600 0.11180 0.91560 -0.22800
N 	N 	0.18900 0.14020 0.95000 -0.21600
N 	N 	0.25700 0.26950 0.86340 -0.25600
N 	N 	0.19600 0.46700 0.62940 -0.22000
N 	N 	0.25900 0.41740 0.53480 -0.21300
N 	N 	0.12400 0.60730 0.55760 -0.24700
N 	N 	0.35600 0.80380 0.91560 -0.23000
N 	N 	0.18900 0.80980 0.95000 -0.21700
N 	N 	0.25700 0.59390 0.86340 -0.25600
N 	N 	0.19600 0.16240 0.62940 -0.21900
N 	N 	0.25900 0.11740 0.53480 -0.21500
N 	N 	0.12400 0.95030 0.55760 -0.24500
N 	N 	0.85600 0.19620 0.08440 -0.23500
N 	N 	0.68900 0.19020 0.05000 -0.22200
N 	N 	0.75700 0.40610 0.13660 -0.26000
N 	N 	0.69600 0.83760 0.37060 -0.22500
N 	N 	0.75900 0.88260 0.46520 -0.21900
N 	N 	0.62400 0.04970 0.44240 -0.25600
N 	N 	0.34700 0.15200 0.30400 -0.23700
N 	N 	0.37300 0.06630 0.13260 -0.21500
N 	N 	0.20800 0.08040 0.16080 -0.22000
N 	N 	0.84700 0.84800 0.69600 -0.23200
N 	N 	0.87300 0.93370 0.86740 -0.21700
N 	N 	0.70800 0.91960 0.83920 -0.22500
