data_crystal

_cell_length_a 19.72440
_cell_length_b 17.08140
_cell_length_c 9.95540
_cell_angle_alpha 90.00000
_cell_angle_beta  90.00000
_cell_angle_gamma 90.00000

_symmetry_space_group_name_	'P 1'
_symmetry_space_group_name_H-M	'P 1'

loop_
_symmetry_equiv_pos_as_xyz
  x,y,z

loop_
_atom_site_label
_atom_site_type_symbol
_atom_site_fract_x
_atom_site_fract_y
_atom_site_fract_z
_atom_site_charge
In	In	0.18128 0.84014 0.91388 1.99800
O 	O 	0.29948 0.85524 0.92650 -0.40000
O 	O 	0.22936 0.95496 0.93020 -0.44500
O 	O 	0.29863 0.21519 0.06950 -0.45800
O 	O 	0.40554 0.24392 0.10030 -0.39500
O 	O 	0.19374 0.83450 0.68380 -0.42100
O 	O 	0.11067 0.90145 0.77400 -0.42500
O 	O 	0.19710 0.83410 0.15870 -0.38400
O 	O 	0.11040 0.88810 0.06190 -0.44800
H 	H 	0.42350 0.90680 0.95170 0.07500
H 	H 	0.28210 0.07610 0.00780 0.08700
H 	H 	0.47990 0.12590 0.06540 0.07500
H 	H 	0.03950 0.96690 0.61400 0.07700
H 	H 	0.18330 0.84010 0.41750 0.07400
H 	H 	0.04180 0.95980 0.20820 0.07900
C 	C 	0.46390 0.01190 0.00960 0.02400
C 	C 	0.41240 0.95910 0.97520 -0.04700
C 	C 	0.34590 0.98280 0.97540 -0.02300
C 	C 	0.32810 0.05990 0.00830 -0.02200
C 	C 	0.37960 0.11210 0.04160 -0.02700
C 	C 	0.44560 0.08920 0.04230 -0.04700
C 	C 	0.28920 0.92730 0.93910 0.28400
C 	C 	0.36030 0.19550 0.07410 0.29200
C 	C 	0.02960 0.97360 0.41370 0.02400
C 	C 	0.05890 0.94940 0.53200 -0.04000
C 	C 	0.11610 0.90030 0.53840 -0.03500
C 	C 	0.14470 0.87340 0.41740 -0.00600
C 	C 	0.11520 0.89690 0.29940 -0.03900
C 	C 	0.05990 0.94520 0.29300 -0.03900
C 	C 	0.14220 0.87660 0.67250 0.29700
C 	C 	0.14290 0.87030 0.16640 0.31100
In	In	0.81872 0.15986 0.91388 1.99900
O 	O 	0.70052 0.14476 0.92650 -0.39900
O 	O 	0.77064 0.04504 0.93020 -0.44400
O 	O 	0.70137 0.78481 0.06950 -0.45700
O 	O 	0.59446 0.75608 0.10030 -0.39500
O 	O 	0.80626 0.16550 0.68380 -0.42100
O 	O 	0.88933 0.09855 0.77400 -0.42500
O 	O 	0.80290 0.16590 0.15870 -0.38400
O 	O 	0.88960 0.11190 0.06190 -0.44800
H 	H 	0.57650 0.09320 0.95170 0.07500
H 	H 	0.71790 0.92390 0.00780 0.08700
H 	H 	0.52010 0.87410 0.06540 0.07500
H 	H 	0.96050 0.03310 0.61400 0.07700
H 	H 	0.81670 0.15990 0.41750 0.07400
H 	H 	0.95820 0.04020 0.20820 0.07900
C 	C 	0.53610 0.98810 0.00960 0.02400
C 	C 	0.58760 0.04090 0.97520 -0.04700
C 	C 	0.65410 0.01720 0.97540 -0.02300
C 	C 	0.67190 0.94010 0.00830 -0.02200
C 	C 	0.62040 0.88790 0.04160 -0.02700
C 	C 	0.55440 0.91080 0.04230 -0.04700
C 	C 	0.71080 0.07270 0.93910 0.28400
C 	C 	0.63970 0.80450 0.07410 0.29200
C 	C 	0.97040 0.02640 0.41370 0.02400
C 	C 	0.94110 0.05060 0.53200 -0.04000
C 	C 	0.88390 0.09970 0.53840 -0.03500
C 	C 	0.85530 0.12660 0.41740 -0.00600
C 	C 	0.88480 0.10310 0.29940 -0.03900
C 	C 	0.94010 0.05480 0.29300 -0.03900
C 	C 	0.85780 0.12340 0.67250 0.29700
C 	C 	0.85710 0.12970 0.16640 0.31100
In	In	0.31872 0.34014 0.08612 1.99900
O 	O 	0.20052 0.35524 0.07350 -0.39900
O 	O 	0.27064 0.45496 0.06980 -0.44400
O 	O 	0.20137 0.71519 0.93050 -0.45700
O 	O 	0.09446 0.74392 0.89970 -0.39500
O 	O 	0.30626 0.33450 0.31620 -0.42100
O 	O 	0.38933 0.40145 0.22600 -0.42500
O 	O 	0.30290 0.33410 0.84130 -0.38400
O 	O 	0.38960 0.38810 0.93810 -0.44700
H 	H 	0.07650 0.40680 0.04830 0.07500
H 	H 	0.21790 0.57610 0.99220 0.08700
H 	H 	0.02010 0.62590 0.93460 0.07600
H 	H 	0.46050 0.46690 0.38600 0.07700
H 	H 	0.31670 0.34010 0.58250 0.07400
H 	H 	0.45820 0.45980 0.79180 0.07900
C 	C 	0.03610 0.51190 0.99040 0.02500
C 	C 	0.08760 0.45910 0.02480 -0.04800
C 	C 	0.15410 0.48280 0.02460 -0.02400
C 	C 	0.17190 0.55990 0.99170 -0.02100
C 	C 	0.12040 0.61210 0.95840 -0.02700
C 	C 	0.05440 0.58920 0.95770 -0.04700
C 	C 	0.21080 0.42730 0.06090 0.28400
C 	C 	0.13970 0.69550 0.92590 0.29200
C 	C 	0.47040 0.47360 0.58630 0.02400
C 	C 	0.44110 0.44940 0.46800 -0.04000
C 	C 	0.38390 0.40030 0.46160 -0.03500
C 	C 	0.35530 0.37340 0.58260 -0.00600
C 	C 	0.38480 0.39690 0.70060 -0.03900
C 	C 	0.44010 0.44520 0.70700 -0.03900
C 	C 	0.35780 0.37660 0.32750 0.29700
C 	C 	0.35710 0.37030 0.83360 0.31100
In	In	0.68128 0.65986 0.08612 1.99900
O 	O 	0.79948 0.64476 0.07350 -0.39900
O 	O 	0.72936 0.54504 0.06980 -0.44400
O 	O 	0.79863 0.28481 0.93050 -0.45700
O 	O 	0.90554 0.25608 0.89970 -0.39500
O 	O 	0.69374 0.66550 0.31620 -0.42100
O 	O 	0.61067 0.59855 0.22600 -0.42500
O 	O 	0.69710 0.66590 0.84130 -0.38400
O 	O 	0.61040 0.61190 0.93810 -0.44700
H 	H 	0.92350 0.59320 0.04830 0.07500
H 	H 	0.78210 0.42390 0.99220 0.08700
H 	H 	0.97990 0.37410 0.93460 0.07600
H 	H 	0.53950 0.53310 0.38600 0.07700
H 	H 	0.68330 0.65990 0.58250 0.07400
H 	H 	0.54180 0.54020 0.79180 0.07900
C 	C 	0.96390 0.48810 0.99040 0.02500
C 	C 	0.91240 0.54090 0.02480 -0.04800
C 	C 	0.84590 0.51720 0.02460 -0.02400
C 	C 	0.82810 0.44010 0.99170 -0.02100
C 	C 	0.87960 0.38790 0.95840 -0.02700
C 	C 	0.94560 0.41080 0.95770 -0.04700
C 	C 	0.78920 0.57270 0.06090 0.28400
C 	C 	0.86030 0.30450 0.92590 0.29200
C 	C 	0.52960 0.52640 0.58630 0.02400
C 	C 	0.55890 0.55060 0.46800 -0.04000
C 	C 	0.61610 0.59970 0.46160 -0.03500
C 	C 	0.64470 0.62660 0.58260 -0.00600
C 	C 	0.61520 0.60310 0.70060 -0.03900
C 	C 	0.55990 0.55480 0.70700 -0.03900
C 	C 	0.64220 0.62340 0.32750 0.29700
C 	C 	0.64290 0.62970 0.83360 0.31100
