data_crystal

_cell_length_a 33.32000
_cell_length_b 33.32000
_cell_length_c 9.28560
_cell_angle_alpha 90.00000
_cell_angle_beta  90.00000
_cell_angle_gamma 120.00000

_symmetry_space_group_name_	'P 1'
_symmetry_space_group_name_H-M	'P 1'

loop_
_symmetry_equiv_pos_as_xyz
  x,y,z

loop_
_atom_site_label
_atom_site_type_symbol
_atom_site_fract_x
_atom_site_fract_y
_atom_site_fract_z
_atom_site_charge
C 	C 	0.46959 0.92887 0.19700 -0.15800
C 	C 	0.43439 0.91839 0.29930 0.10700
C 	C 	0.39775 0.92248 0.49160 0.10500
C 	C 	0.38881 0.93767 0.62260 -0.16000
C 	C 	0.38591 0.88376 0.28360 -0.08200
H 	H 	0.37260 0.86360 0.20630 0.06200
C 	C 	0.51606 0.96600 0.20490 0.09900
C 	C 	0.58041 0.02628 0.28740 0.09900
C 	C 	0.45694 0.89724 0.07060 0.16300
C 	C 	0.36355 0.88609 0.40150 -0.08200
H 	H 	0.33210 0.86770 0.42110 0.06700
C 	C 	0.55346 0.97201 0.11130 -0.06800
H 	H 	0.55110 0.95400 0.03170 0.05600
C 	C 	0.45762 0.91253 0.93170 -0.21800
H 	H 	0.46710 0.94350 0.91460 0.10800
C 	C 	0.59282 0.00934 0.16290 -0.10100
H 	H 	0.62240 0.02160 0.12430 0.06400
C 	C 	0.44291 0.85070 0.08760 -0.20800
H 	H 	0.44170 0.83870 0.17890 0.10400
C 	C 	0.43082 0.82253 0.96870 0.11000
H 	H 	0.42190 0.79150 0.98210 -0.00100
C 	C 	0.44442 0.88216 0.82020 0.12000
H 	H 	0.44450 0.89320 0.72810 -0.01200
C 	C 	0.33819 0.91307 0.66590 0.16600
C 	C 	0.30726 0.92385 0.60290 -0.21700
H 	H 	0.31730 0.94710 0.53370 0.10700
C 	C 	0.32136 0.87870 0.76930 -0.21500
H 	H 	0.34090 0.87050 0.81610 0.11100
C 	C 	0.26138 0.89992 0.64320 0.12000
H 	H 	0.24100 0.90750 0.59900 -0.02400
C 	C 	0.27463 0.85679 0.80110 0.12500
H 	H 	0.26340 0.83330 0.86980 -0.02500
N 	N 	0.44029 0.94077 0.42660 -0.27700
N 	N 	0.53341 0.99965 0.30810 -0.27000
N 	N 	0.24479 0.86670 0.74140 -0.24600
N 	N 	0.43125 0.83725 0.83520 -0.14700
C 	C 	0.53041 0.07113 0.80300 -0.16200
C 	C 	0.56561 0.08161 0.70070 0.10800
C 	C 	0.60225 0.07752 0.50840 0.10200
C 	C 	0.61119 0.06233 0.37740 -0.16100
C 	C 	0.61409 0.11624 0.71640 -0.08400
H 	H 	0.62740 0.13640 0.79370 0.06300
C 	C 	0.48394 0.03400 0.79510 0.10600
C 	C 	0.41959 0.97372 0.71260 0.10500
C 	C 	0.54306 0.10276 0.92940 0.16400
C 	C 	0.63645 0.11391 0.59850 -0.08200
H 	H 	0.66790 0.13230 0.57890 0.06600
C 	C 	0.44654 0.02799 0.88870 -0.10300
H 	H 	0.44890 0.04600 0.96830 0.06600
C 	C 	0.54238 0.08747 0.06830 -0.21700
H 	H 	0.53290 0.05650 0.08540 0.10400
C 	C 	0.40718 0.99066 0.83710 -0.06800
H 	H 	0.37760 0.97840 0.87570 0.05700
C 	C 	0.55709 0.14930 0.91240 -0.20900
H 	H 	0.55830 0.16130 0.82110 0.10400
C 	C 	0.56918 0.17747 0.03130 0.11100
H 	H 	0.57810 0.20850 0.01790 -0.00100
C 	C 	0.55558 0.11784 0.17980 0.12000
H 	H 	0.55550 0.10680 0.27190 -0.01300
C 	C 	0.66181 0.08693 0.33410 0.16500
C 	C 	0.69274 0.07615 0.39710 -0.21600
H 	H 	0.68270 0.05290 0.46630 0.10300
C 	C 	0.67864 0.12130 0.23070 -0.21500
H 	H 	0.65910 0.12950 0.18390 0.11000
C 	C 	0.73862 0.10008 0.35680 0.11900
H 	H 	0.75900 0.09250 0.40100 -0.02500
C 	C 	0.72537 0.14321 0.19890 0.12400
H 	H 	0.73660 0.16670 0.13020 -0.02500
N 	N 	0.55971 0.05923 0.57340 -0.28000
N 	N 	0.46659 0.00035 0.69190 -0.28300
N 	N 	0.75521 0.13330 0.25860 -0.24600
N 	N 	0.56875 0.16275 0.16480 -0.14700
Mn	Mn	0.50000 0.00000 0.50000 1.25300
C 	C 	0.13626 0.26220 0.53033 -0.15800
C 	C 	0.10106 0.25172 0.63263 0.10400
C 	C 	0.06442 0.25581 0.82493 0.10600
C 	C 	0.05548 0.27100 0.95593 -0.15000
C 	C 	0.05258 0.21709 0.61693 -0.07200
H 	H 	0.03927 0.19693 0.53963 0.05600
C 	C 	0.18273 0.29933 0.53823 0.10200
C 	C 	0.24708 0.35961 0.62073 0.10200
C 	C 	0.12361 0.23057 0.40393 0.16200
C 	C 	0.03022 0.21942 0.73483 -0.10400
H 	H 	0.99877 0.20103 0.75443 0.08100
C 	C 	0.22013 0.30534 0.44463 -0.08500
H 	H 	0.21777 0.28733 0.36503 0.06100
C 	C 	0.12429 0.24586 0.26503 -0.21700
H 	H 	0.13377 0.27683 0.24793 0.10600
C 	C 	0.25949 0.34267 0.49623 -0.08500
H 	H 	0.28907 0.35493 0.45763 0.06100
C 	C 	0.10958 0.18403 0.42093 -0.20900
H 	H 	0.10837 0.17203 0.51223 0.10300
C 	C 	0.09749 0.15586 0.30203 0.11100
H 	H 	0.08857 0.12483 0.31543 -0.00300
C 	C 	0.11109 0.21549 0.15353 0.12000
H 	H 	0.11117 0.22653 0.06143 -0.01300
C 	C 	0.00486 0.24640 0.99923 0.12300
C 	C 	0.97393 0.25718 0.93623 -0.18100
H 	H 	0.98397 0.28043 0.86703 0.09600
C 	C 	0.98803 0.21203 0.10263 -0.16100
H 	H 	0.00757 0.20383 0.14943 0.08600
C 	C 	0.92805 0.23325 0.97653 0.10200
H 	H 	0.90767 0.24083 0.93233 -0.01800
C 	C 	0.94130 0.19012 0.13443 0.09800
H 	H 	0.93007 0.16663 0.20313 -0.01500
N 	N 	0.10696 0.27410 0.75993 -0.27800
N 	N 	0.20008 0.33298 0.64143 -0.27700
N 	N 	0.91146 0.20003 0.07473 -0.23800
N 	N 	0.09792 0.17058 0.16853 -0.14800
C 	C 	0.19708 0.40446 0.13633 -0.16000
C 	C 	0.23228 0.41494 0.03403 0.10900
C 	C 	0.26892 0.41085 0.84173 0.10400
C 	C 	0.27786 0.39566 0.71073 -0.16100
C 	C 	0.28076 0.44957 0.04973 -0.08200
H 	H 	0.29407 0.46973 0.12703 0.06200
C 	C 	0.15061 0.36733 0.12843 0.10300
C 	C 	0.08626 0.30705 0.04593 0.09700
C 	C 	0.20973 0.43609 0.26273 0.16300
C 	C 	0.30312 0.44724 0.93183 -0.08300
H 	H 	0.33457 0.46563 0.91223 0.06700
C 	C 	0.11321 0.36132 0.22203 -0.08800
H 	H 	0.11557 0.37933 0.30163 0.06200
C 	C 	0.20905 0.42080 0.40163 -0.21700
H 	H 	0.19957 0.38983 0.41873 0.10600
C 	C 	0.07385 0.32399 0.17043 -0.08100
H 	H 	0.04427 0.31173 0.20903 0.05700
C 	C 	0.22376 0.48263 0.24573 -0.20900
H 	H 	0.22497 0.49463 0.15443 0.10400
C 	C 	0.23585 0.51080 0.36463 0.11200
H 	H 	0.24477 0.54183 0.35123 -0.00100
C 	C 	0.22225 0.45117 0.51313 0.12000
H 	H 	0.22217 0.44013 0.60523 -0.01300
C 	C 	0.32848 0.42026 0.66743 0.16600
C 	C 	0.35941 0.40948 0.73043 -0.21700
H 	H 	0.34937 0.38623 0.79963 0.10500
C 	C 	0.34531 0.45463 0.56403 -0.21500
H 	H 	0.32577 0.46283 0.51723 0.11100
C 	C 	0.40529 0.43341 0.69013 0.11900
H 	H 	0.42567 0.42583 0.73433 -0.02500
C 	C 	0.39204 0.47654 0.53223 0.12400
H 	H 	0.40327 0.50003 0.46353 -0.02500
N 	N 	0.22638 0.39256 0.90673 -0.27900
N 	N 	0.13326 0.33368 0.02523 -0.27600
N 	N 	0.42188 0.46663 0.59193 -0.24600
N 	N 	0.23542 0.49608 0.49813 -0.14700
Mn	Mn	0.16667 0.33333 0.83333 1.25600
C 	C 	0.80292 0.59554 0.86367 -0.15900
C 	C 	0.76772 0.58506 0.96597 0.10800
C 	C 	0.73108 0.58915 0.15827 0.10400
C 	C 	0.72214 0.60434 0.28927 -0.16100
C 	C 	0.71924 0.55043 0.95027 -0.08200
H 	H 	0.70593 0.53027 0.87297 0.06200
C 	C 	0.84939 0.63267 0.87157 0.10200
C 	C 	0.91374 0.69295 0.95407 0.10700
C 	C 	0.79027 0.56391 0.73727 0.16300
C 	C 	0.69688 0.55276 0.06817 -0.08300
H 	H 	0.66543 0.53437 0.08777 0.06700
C 	C 	0.88679 0.63868 0.77797 -0.08300
H 	H 	0.88443 0.62067 0.69837 0.06100
C 	C 	0.79095 0.57920 0.59837 -0.21700
H 	H 	0.80043 0.61017 0.58127 0.10600
C 	C 	0.92615 0.67601 0.82957 -0.08800
H 	H 	0.95573 0.68827 0.79097 0.06400
C 	C 	0.77624 0.51737 0.75427 -0.20900
H 	H 	0.77503 0.50537 0.84557 0.10400
C 	C 	0.76415 0.48920 0.63537 0.11100
H 	H 	0.75523 0.45817 0.64877 -0.00100
C 	C 	0.77775 0.54883 0.48687 0.12000
H 	H 	0.77783 0.55987 0.39477 -0.01300
C 	C 	0.67152 0.57974 0.33257 0.16600
C 	C 	0.64059 0.59052 0.26957 -0.21700
H 	H 	0.65063 0.61377 0.20037 0.10500
C 	C 	0.65469 0.54537 0.43597 -0.21500
H 	H 	0.67423 0.53717 0.48277 0.11100
C 	C 	0.59471 0.56659 0.30987 0.11900
H 	H 	0.57433 0.57417 0.26567 -0.02500
C 	C 	0.60796 0.52346 0.46777 0.12400
H 	H 	0.59673 0.49997 0.53647 -0.02500
N 	N 	0.77362 0.60744 0.09327 -0.27900
N 	N 	0.86674 0.66632 0.97477 -0.27700
N 	N 	0.57812 0.53337 0.40807 -0.24600
N 	N 	0.76458 0.50392 0.50187 -0.14700
C 	C 	0.86374 0.73780 0.46967 -0.16100
C 	C 	0.89894 0.74828 0.36737 0.11200
C 	C 	0.93558 0.74419 0.17507 0.10300
C 	C 	0.94452 0.72900 0.04407 -0.17200
C 	C 	0.94742 0.78291 0.38307 -0.09400
H 	H 	0.96073 0.80307 0.46037 0.06900
C 	C 	0.81727 0.70067 0.46177 0.10300
C 	C 	0.75292 0.64039 0.37927 0.10200
C 	C 	0.87639 0.76943 0.59607 0.16400
C 	C 	0.96978 0.78058 0.26517 -0.06000
H 	H 	0.00123 0.79897 0.24557 0.05300
C 	C 	0.77987 0.69466 0.55537 -0.08600
H 	H 	0.78223 0.71267 0.63497 0.06100
C 	C 	0.87571 0.75414 0.73497 -0.21700
H 	H 	0.86623 0.72317 0.75207 0.10600
C 	C 	0.74051 0.65733 0.50377 -0.08400
H 	H 	0.71093 0.64507 0.54237 0.06100
C 	C 	0.89042 0.81597 0.57907 -0.20900
H 	H 	0.89163 0.82797 0.48777 0.10500
C 	C 	0.90251 0.84414 0.69797 0.11200
H 	H 	0.91143 0.87517 0.68457 0.00100
C 	C 	0.88891 0.78451 0.84647 0.12000
H 	H 	0.88883 0.77347 0.93857 -0.01200
C 	C 	0.99514 0.75360 0.00077 0.20800
C 	C 	0.02607 0.74282 0.06377 -0.25200
H 	H 	0.01603 0.71957 0.13297 0.11400
C 	C 	0.01197 0.78797 0.89737 -0.26900
H 	H 	0.99243 0.79617 0.85057 0.13500
C 	C 	0.07195 0.76675 0.02347 0.13800
H 	H 	0.09233 0.75917 0.06767 -0.03100
C 	C 	0.05870 0.80988 0.86557 0.15100
H 	H 	0.06993 0.83337 0.79687 -0.03500
N 	N 	0.89304 0.72590 0.24007 -0.27900
N 	N 	0.79992 0.66702 0.35857 -0.27700
N 	N 	0.08854 0.79997 0.92527 -0.25500
N 	N 	0.90208 0.82942 0.83147 -0.14600
Mn	Mn	0.83333 0.66667 0.16667 1.25600
C 	C 	0.07113 0.54072 0.19700 -0.16200
C 	C 	0.08161 0.51600 0.29930 0.10800
C 	C 	0.07752 0.47527 0.49160 0.10200
C 	C 	0.06233 0.45114 0.62260 -0.16100
C 	C 	0.11624 0.50215 0.28360 -0.08400
H 	H 	0.13640 0.50900 0.20630 0.06300
C 	C 	0.03400 0.55006 0.20490 0.10600
C 	C 	0.97372 0.55413 0.28740 0.10500
C 	C 	0.10276 0.55970 0.07060 0.16400
C 	C 	0.11391 0.47746 0.40150 -0.08200
H 	H 	0.13230 0.46440 0.42110 0.06600
C 	C 	0.02799 0.58145 0.11130 -0.10300
H 	H 	0.04600 0.59710 0.03170 0.06600
C 	C 	0.08747 0.54509 0.93170 -0.21700
H 	H 	0.05650 0.52360 0.91460 0.10400
C 	C 	0.99066 0.58348 0.16290 -0.06800
H 	H 	0.97840 0.60080 0.12430 0.05700
C 	C 	0.14930 0.59221 0.08760 -0.20900
H 	H 	0.16130 0.60300 0.17890 0.10400
C 	C 	0.17747 0.60829 0.96870 0.11100
H 	H 	0.20850 0.63040 0.98210 -0.00100
C 	C 	0.11784 0.56226 0.82020 0.12000
H 	H 	0.10680 0.55130 0.72810 -0.01300
C 	C 	0.08693 0.42512 0.66590 0.16500
C 	C 	0.07615 0.38341 0.60290 -0.21600
H 	H 	0.05290 0.37020 0.53370 0.10300
C 	C 	0.12130 0.44266 0.76930 -0.21500
H 	H 	0.12950 0.47040 0.81610 0.11000
C 	C 	0.10008 0.36146 0.64320 0.11900
H 	H 	0.09250 0.33350 0.59900 -0.02500
C 	C 	0.14321 0.41784 0.80110 0.12400
H 	H 	0.16670 0.43010 0.86980 -0.02500
N 	N 	0.05923 0.49952 0.42660 -0.28000
N 	N 	0.00035 0.53376 0.30810 -0.28300
N 	N 	0.13330 0.37809 0.74140 -0.24600
N 	N 	0.16275 0.59400 0.83520 -0.14700
C 	C 	0.92887 0.45928 0.80300 -0.15700
C 	C 	0.91839 0.48400 0.70070 0.10800
C 	C 	0.92248 0.52473 0.50840 0.10600
C 	C 	0.93767 0.54886 0.37740 -0.16000
C 	C 	0.88376 0.49785 0.71640 -0.08200
H 	H 	0.86360 0.49100 0.79370 0.06200
C 	C 	0.96600 0.44994 0.79510 0.09900
C 	C 	0.02628 0.44587 0.71260 0.09900
C 	C 	0.89724 0.44030 0.92940 0.16300
C 	C 	0.88609 0.52254 0.59850 -0.08200
H 	H 	0.86770 0.53560 0.57890 0.06700
C 	C 	0.97201 0.41855 0.88870 -0.06800
H 	H 	0.95400 0.40290 0.96830 0.05600
C 	C 	0.91253 0.45491 0.06830 -0.21800
H 	H 	0.94350 0.47640 0.08540 0.10800
C 	C 	0.00934 0.41652 0.83710 -0.10100
H 	H 	0.02160 0.39920 0.87570 0.06400
C 	C 	0.85070 0.40779 0.91240 -0.20800
H 	H 	0.83870 0.39700 0.82110 0.10400
C 	C 	0.82253 0.39171 0.03130 0.11000
H 	H 	0.79150 0.36960 0.01790 -0.00100
C 	C 	0.88216 0.43774 0.17980 0.12000
H 	H 	0.89320 0.44870 0.27190 -0.01200
C 	C 	0.91307 0.57488 0.33410 0.16600
C 	C 	0.92385 0.61659 0.39710 -0.21700
H 	H 	0.94710 0.62980 0.46630 0.10700
C 	C 	0.87870 0.55734 0.23070 -0.21500
H 	H 	0.87050 0.52960 0.18390 0.11100
C 	C 	0.89992 0.63854 0.35680 0.12000
H 	H 	0.90750 0.66650 0.40100 -0.02400
C 	C 	0.85679 0.58216 0.19890 0.12500
H 	H 	0.83330 0.56990 0.13020 -0.02500
N 	N 	0.94077 0.50048 0.57340 -0.27700
N 	N 	0.99965 0.46624 0.69190 -0.27000
N 	N 	0.86670 0.62191 0.25860 -0.24600
N 	N 	0.83725 0.40600 0.16480 -0.14700
Mn	Mn	-0.00000 0.50000 0.50000 1.25300
C 	C 	0.73780 0.87405 0.53033 -0.16000
C 	C 	0.74828 0.84933 0.63263 0.10800
C 	C 	0.74419 0.80860 0.82493 0.10400
C 	C 	0.72900 0.78447 0.95593 -0.16100
C 	C 	0.78291 0.83548 0.61693 -0.08300
H 	H 	0.80307 0.84233 0.53963 0.06300
C 	C 	0.70067 0.88339 0.53823 0.10300
C 	C 	0.64039 0.88746 0.62073 0.10300
C 	C 	0.76943 0.89303 0.40393 0.16300
C 	C 	0.78058 0.81079 0.73483 -0.08200
H 	H 	0.79897 0.79773 0.75443 0.06700
C 	C 	0.69466 0.91478 0.44463 -0.08500
H 	H 	0.71267 0.93043 0.36503 0.06200
C 	C 	0.75414 0.87842 0.26503 -0.21700
H 	H 	0.72317 0.85693 0.24793 0.10600
C 	C 	0.65733 0.91681 0.49623 -0.08400
H 	H 	0.64507 0.93413 0.45763 0.06200
C 	C 	0.81597 0.92554 0.42093 -0.20800
H 	H 	0.82797 0.93633 0.51223 0.10600
C 	C 	0.84414 0.94162 0.30203 0.11200
H 	H 	0.87517 0.96373 0.31543 0.00200
C 	C 	0.78451 0.89559 0.15353 0.12000
H 	H 	0.77347 0.88463 0.06143 -0.01200
C 	C 	0.75360 0.75845 0.99923 0.16600
C 	C 	0.74282 0.71674 0.93623 -0.21700
H 	H 	0.71957 0.70353 0.86703 0.10500
C 	C 	0.78797 0.77599 0.10263 -0.21500
H 	H 	0.79617 0.80373 0.14943 0.11100
C 	C 	0.76675 0.69479 0.97653 0.12000
H 	H 	0.75917 0.66683 0.93233 -0.02500
C 	C 	0.80988 0.75117 0.13443 0.12400
H 	H 	0.83337 0.76343 0.20313 -0.02500
N 	N 	0.72590 0.83285 0.75993 -0.27900
N 	N 	0.66702 0.86709 0.64143 -0.27700
N 	N 	0.79997 0.71142 0.07473 -0.24700
N 	N 	0.82942 0.92733 0.16853 -0.14500
C 	C 	0.59554 0.79261 0.13633 -0.16000
C 	C 	0.58506 0.81733 0.03403 0.10800
C 	C 	0.58915 0.85806 0.84173 0.10400
C 	C 	0.60434 0.88219 0.71073 -0.16000
C 	C 	0.55043 0.83118 0.04973 -0.08200
H 	H 	0.53027 0.82433 0.12703 0.06200
C 	C 	0.63267 0.78327 0.12843 0.10300
C 	C 	0.69295 0.77920 0.04593 0.10200
C 	C 	0.56391 0.77363 0.26273 0.16300
C 	C 	0.55276 0.85587 0.93183 -0.08300
H 	H 	0.53437 0.86893 0.91223 0.06700
C 	C 	0.63868 0.75188 0.22203 -0.08600
H 	H 	0.62067 0.73623 0.30163 0.06100
C 	C 	0.57920 0.78824 0.40163 -0.21700
H 	H 	0.61017 0.80973 0.41873 0.10600
C 	C 	0.67601 0.74985 0.17043 -0.08500
H 	H 	0.68827 0.73253 0.20903 0.06100
C 	C 	0.51737 0.74112 0.24573 -0.20900
H 	H 	0.50537 0.73033 0.15443 0.10400
C 	C 	0.48920 0.72504 0.36463 0.11200
H 	H 	0.45817 0.70293 0.35123 -0.00100
C 	C 	0.54883 0.77107 0.51313 0.12000
H 	H 	0.55987 0.78203 0.60523 -0.01300
C 	C 	0.57974 0.90821 0.66743 0.16600
C 	C 	0.59052 0.94992 0.73043 -0.21600
H 	H 	0.61377 0.96313 0.79963 0.10600
C 	C 	0.54537 0.89067 0.56403 -0.21500
H 	H 	0.53717 0.86293 0.51723 0.11100
C 	C 	0.56659 0.97187 0.69013 0.12000
H 	H 	0.57417 0.99983 0.73433 -0.02100
C 	C 	0.52346 0.91549 0.53223 0.12500
H 	H 	0.49997 0.90323 0.46353 -0.02500
N 	N 	0.60744 0.83381 0.90673 -0.27900
N 	N 	0.66632 0.79957 0.02523 -0.27700
N 	N 	0.53337 0.95524 0.59193 -0.24500
N 	N 	0.50392 0.73933 0.49813 -0.14700
Mn	Mn	0.66667 0.83333 0.83333 1.25600
C 	C 	0.40446 0.20739 0.86367 -0.16000
C 	C 	0.41494 0.18267 0.96597 0.10900
C 	C 	0.41085 0.14194 0.15827 0.10400
C 	C 	0.39566 0.11781 0.28927 -0.16100
C 	C 	0.44957 0.16882 0.95027 -0.08300
H 	H 	0.46973 0.17567 0.87297 0.06200
C 	C 	0.36733 0.21673 0.87157 0.10300
C 	C 	0.30705 0.22080 0.95407 0.10200
C 	C 	0.43609 0.22637 0.73727 0.16300
C 	C 	0.44724 0.14413 0.06817 -0.08300
H 	H 	0.46563 0.13107 0.08777 0.06700
C 	C 	0.36132 0.24812 0.77797 -0.08600
H 	H 	0.37933 0.26377 0.69837 0.06100
C 	C 	0.42080 0.21176 0.59837 -0.21700
H 	H 	0.38983 0.19027 0.58127 0.10600
C 	C 	0.32399 0.25015 0.82957 -0.08400
H 	H 	0.31173 0.26747 0.79097 0.06100
C 	C 	0.48263 0.25888 0.75427 -0.20900
H 	H 	0.49463 0.26967 0.84557 0.10400
C 	C 	0.51080 0.27496 0.63537 0.11200
H 	H 	0.54183 0.29707 0.64877 -0.00100
C 	C 	0.45117 0.22893 0.48687 0.12000
H 	H 	0.44013 0.21797 0.39477 -0.01300
C 	C 	0.42026 0.09179 0.33257 0.16500
C 	C 	0.40948 0.05008 0.26957 -0.21700
H 	H 	0.38623 0.03687 0.20037 0.10300
C 	C 	0.45463 0.10933 0.43597 -0.21500
H 	H 	0.46283 0.13707 0.48277 0.11100
C 	C 	0.43341 0.02813 0.30987 0.11900
H 	H 	0.42583 0.00017 0.26567 -0.02800
C 	C 	0.47654 0.08451 0.46777 0.12400
H 	H 	0.50003 0.09677 0.53647 -0.02500
N 	N 	0.39256 0.16619 0.09327 -0.27900
N 	N 	0.33368 0.20043 0.97477 -0.27700
N 	N 	0.46663 0.04476 0.40807 -0.24800
N 	N 	0.49608 0.26067 0.50187 -0.14700
C 	C 	0.26220 0.12595 0.46967 -0.16000
C 	C 	0.25172 0.15067 0.36737 0.10800
C 	C 	0.25581 0.19140 0.17507 0.10400
C 	C 	0.27100 0.21553 0.04407 -0.16100
C 	C 	0.21709 0.16452 0.38307 -0.08300
H 	H 	0.19693 0.15767 0.46037 0.06200
C 	C 	0.29933 0.11661 0.46177 0.10300
C 	C 	0.35961 0.11254 0.37927 0.10100
C 	C 	0.23057 0.10697 0.59607 0.16300
C 	C 	0.21942 0.18921 0.26517 -0.08200
H 	H 	0.20103 0.20227 0.24557 0.06700
C 	C 	0.30534 0.08522 0.55537 -0.08700
H 	H 	0.28733 0.06957 0.63497 0.06100
C 	C 	0.24586 0.12158 0.73497 -0.21700
H 	H 	0.27683 0.14307 0.75207 0.10600
C 	C 	0.34267 0.08319 0.50377 -0.08500
H 	H 	0.35493 0.06587 0.54237 0.05900
C 	C 	0.18403 0.07446 0.57907 -0.21000
H 	H 	0.17203 0.06367 0.48777 0.10300
C 	C 	0.15586 0.05838 0.69797 0.11100
H 	H 	0.12483 0.03627 0.68457 -0.00400
C 	C 	0.21549 0.10441 0.84647 0.12000
H 	H 	0.22653 0.11537 0.93857 -0.01300
C 	C 	0.24640 0.24155 0.00077 0.16600
C 	C 	0.25718 0.28326 0.06377 -0.21700
H 	H 	0.28043 0.29647 0.13297 0.10500
C 	C 	0.21203 0.22401 0.89737 -0.21500
H 	H 	0.20383 0.19627 0.85057 0.11000
C 	C 	0.23325 0.30521 0.02347 0.12000
H 	H 	0.24083 0.33317 0.06767 -0.02500
C 	C 	0.19012 0.24883 0.86557 0.12400
H 	H 	0.16663 0.23657 0.79687 -0.02500
N 	N 	0.27410 0.16715 0.24007 -0.27900
N 	N 	0.33298 0.13291 0.35857 -0.27700
N 	N 	0.20003 0.28858 0.92527 -0.24700
N 	N 	0.17058 0.07267 0.83147 -0.14800
Mn	Mn	0.33333 0.16667 0.16667 1.25600
C 	C 	0.45928 0.53041 0.19700 -0.16000
C 	C 	0.48400 0.56561 0.29930 0.10800
C 	C 	0.52473 0.60225 0.49160 0.10400
C 	C 	0.54886 0.61119 0.62260 -0.16000
C 	C 	0.49785 0.61409 0.28360 -0.08300
H 	H 	0.49100 0.62740 0.20630 0.06300
C 	C 	0.44994 0.48394 0.20490 0.10300
C 	C 	0.44587 0.41959 0.28740 0.10200
C 	C 	0.44030 0.54306 0.07060 0.16300
C 	C 	0.52254 0.63645 0.40150 -0.08200
H 	H 	0.53560 0.66790 0.42110 0.06700
C 	C 	0.41855 0.44654 0.11130 -0.08600
H 	H 	0.40290 0.44890 0.03170 0.06100
C 	C 	0.45491 0.54238 0.93170 -0.21700
H 	H 	0.47640 0.53290 0.91460 0.10600
C 	C 	0.41652 0.40718 0.16290 -0.08400
H 	H 	0.39920 0.37760 0.12430 0.06100
C 	C 	0.40779 0.55709 0.08760 -0.20800
H 	H 	0.39700 0.55830 0.17890 0.10400
C 	C 	0.39171 0.56918 0.96870 0.11100
H 	H 	0.36960 0.57810 0.98210 -0.00100
C 	C 	0.43774 0.55558 0.82020 0.12000
H 	H 	0.44870 0.55550 0.72810 -0.01300
C 	C 	0.57488 0.66181 0.66590 0.16600
C 	C 	0.61659 0.69274 0.60290 -0.21700
H 	H 	0.62980 0.68270 0.53370 0.10500
C 	C 	0.55734 0.67864 0.76930 -0.21500
H 	H 	0.52960 0.65910 0.81610 0.11000
C 	C 	0.63854 0.73862 0.64320 0.11900
H 	H 	0.66650 0.75900 0.59900 -0.02500
C 	C 	0.58216 0.72537 0.80110 0.12400
H 	H 	0.56990 0.73660 0.86980 -0.02500
N 	N 	0.50048 0.55971 0.42660 -0.27900
N 	N 	0.46624 0.46659 0.30810 -0.27700
N 	N 	0.62191 0.75521 0.74140 -0.24600
N 	N 	0.40600 0.56875 0.83520 -0.14700
C 	C 	0.54072 0.46959 0.80300 -0.16000
C 	C 	0.51600 0.43439 0.70070 0.10800
C 	C 	0.47527 0.39775 0.50840 0.10400
C 	C 	0.45114 0.38881 0.37740 -0.16000
C 	C 	0.50215 0.38591 0.71640 -0.08300
H 	H 	0.50900 0.37260 0.79370 0.06300
C 	C 	0.55006 0.51606 0.79510 0.10300
C 	C 	0.55413 0.58041 0.71260 0.10200
C 	C 	0.55970 0.45694 0.92940 0.16300
C 	C 	0.47746 0.36355 0.59850 -0.08200
H 	H 	0.46440 0.33210 0.57890 0.06700
C 	C 	0.58145 0.55346 0.88870 -0.08600
H 	H 	0.59710 0.55110 0.96830 0.06100
C 	C 	0.54509 0.45762 0.06830 -0.21700
H 	H 	0.52360 0.46710 0.08540 0.10600
C 	C 	0.58348 0.59282 0.83710 -0.08400
H 	H 	0.60080 0.62240 0.87570 0.06100
C 	C 	0.59221 0.44291 0.91240 -0.20800
H 	H 	0.60300 0.44170 0.82110 0.10400
C 	C 	0.60829 0.43082 0.03130 0.11100
H 	H 	0.63040 0.42190 0.01790 -0.00100
C 	C 	0.56226 0.44442 0.17980 0.12000
H 	H 	0.55130 0.44450 0.27190 -0.01300
C 	C 	0.42512 0.33819 0.33410 0.16600
C 	C 	0.38341 0.30726 0.39710 -0.21700
H 	H 	0.37020 0.31730 0.46630 0.10500
C 	C 	0.44266 0.32136 0.23070 -0.21500
H 	H 	0.47040 0.34090 0.18390 0.11100
C 	C 	0.36146 0.26138 0.35680 0.11900
H 	H 	0.33350 0.24100 0.40100 -0.02500
C 	C 	0.41784 0.27463 0.19890 0.12400
H 	H 	0.43010 0.26340 0.13020 -0.02500
N 	N 	0.49952 0.44029 0.57340 -0.27900
N 	N 	0.53376 0.53341 0.69190 -0.27700
N 	N 	0.37809 0.24479 0.25860 -0.24600
N 	N 	0.59400 0.43125 0.16480 -0.14700
Mn	Mn	0.50000 0.50000 0.50000 1.25600
C 	C 	0.12595 0.86374 0.53033 -0.16100
C 	C 	0.15067 0.89894 0.63263 0.11200
C 	C 	0.19140 0.93558 0.82493 0.10200
C 	C 	0.21553 0.94452 0.95593 -0.17200
C 	C 	0.16452 0.94742 0.61693 -0.09500
H 	H 	0.15767 0.96073 0.53963 0.06900
C 	C 	0.11661 0.81727 0.53823 0.10300
C 	C 	0.11254 0.75292 0.62073 0.10100
C 	C 	0.10697 0.87639 0.40393 0.16400
C 	C 	0.18921 0.96978 0.73483 -0.06100
H 	H 	0.20227 0.00123 0.75443 0.05300
C 	C 	0.08522 0.77987 0.44463 -0.08700
H 	H 	0.06957 0.78223 0.36503 0.06100
C 	C 	0.12158 0.87571 0.26503 -0.21700
H 	H 	0.14307 0.86623 0.24793 0.10600
C 	C 	0.08319 0.74051 0.49623 -0.08400
H 	H 	0.06587 0.71093 0.45763 0.05900
C 	C 	0.07446 0.89042 0.42093 -0.21000
H 	H 	0.06367 0.89163 0.51223 0.10400
C 	C 	0.05838 0.90251 0.30203 0.11200
H 	H 	0.03627 0.91143 0.31543 -0.00200
C 	C 	0.10441 0.88891 0.15353 0.12000
H 	H 	0.11537 0.88883 0.06143 -0.01300
C 	C 	0.24155 0.99514 0.99923 0.20900
C 	C 	0.28326 0.02607 0.93623 -0.25200
H 	H 	0.29647 0.01603 0.86703 0.11400
C 	C 	0.22401 0.01197 0.10263 -0.27000
H 	H 	0.19627 0.99243 0.14943 0.13500
C 	C 	0.30521 0.07195 0.97653 0.13800
H 	H 	0.33317 0.09233 0.93233 -0.03100
C 	C 	0.24883 0.05870 0.13443 0.15100
H 	H 	0.23657 0.06993 0.20313 -0.03600
N 	N 	0.16715 0.89304 0.75993 -0.27900
N 	N 	0.13291 0.79992 0.64143 -0.27700
N 	N 	0.28858 0.08854 0.07473 -0.25500
N 	N 	0.07267 0.90208 0.16853 -0.14700
C 	C 	0.20739 0.80292 0.13633 -0.15900
C 	C 	0.18267 0.76772 0.03403 0.10900
C 	C 	0.14194 0.73108 0.84173 0.10400
C 	C 	0.11781 0.72214 0.71073 -0.16100
C 	C 	0.16882 0.71924 0.04973 -0.08200
H 	H 	0.17567 0.70593 0.12703 0.06200
C 	C 	0.21673 0.84939 0.12843 0.10200
C 	C 	0.22080 0.91374 0.04593 0.10800
C 	C 	0.22637 0.79027 0.26273 0.16300
C 	C 	0.14413 0.69688 0.93183 -0.08300
H 	H 	0.13107 0.66543 0.91223 0.06700
C 	C 	0.24812 0.88679 0.22203 -0.08300
H 	H 	0.26377 0.88443 0.30163 0.06100
C 	C 	0.21176 0.79095 0.40163 -0.21700
H 	H 	0.19027 0.80043 0.41873 0.10600
C 	C 	0.25015 0.92615 0.17043 -0.08800
H 	H 	0.26747 0.95573 0.20903 0.06400
C 	C 	0.25888 0.77624 0.24573 -0.20900
H 	H 	0.26967 0.77503 0.15443 0.10400
C 	C 	0.27496 0.76415 0.36463 0.11100
H 	H 	0.29707 0.75523 0.35123 -0.00100
C 	C 	0.22893 0.77775 0.51313 0.12000
H 	H 	0.21797 0.77783 0.60523 -0.01300
C 	C 	0.09179 0.67152 0.66743 0.16500
C 	C 	0.05008 0.64059 0.73043 -0.21700
H 	H 	0.03687 0.65063 0.79963 0.10300
C 	C 	0.10933 0.65469 0.56403 -0.21500
H 	H 	0.13707 0.67423 0.51723 0.11100
C 	C 	0.02813 0.59471 0.69013 0.11900
H 	H 	0.00017 0.57433 0.73433 -0.02800
C 	C 	0.08451 0.60796 0.53223 0.12400
H 	H 	0.09677 0.59673 0.46353 -0.02500
N 	N 	0.16619 0.77362 0.90673 -0.27900
N 	N 	0.20043 0.86674 0.02523 -0.27700
N 	N 	0.04476 0.57812 0.59193 -0.24800
N 	N 	0.26067 0.76458 0.49813 -0.14700
Mn	Mn	0.16667 0.83333 0.83333 1.25600
C 	C 	0.79261 0.19708 0.86367 -0.16000
C 	C 	0.81733 0.23228 0.96597 0.10900
C 	C 	0.85806 0.26892 0.15827 0.10400
C 	C 	0.88219 0.27786 0.28927 -0.16000
C 	C 	0.83118 0.28076 0.95027 -0.08200
H 	H 	0.82433 0.29407 0.87297 0.06200
C 	C 	0.78327 0.15061 0.87157 0.10300
C 	C 	0.77920 0.08626 0.95407 0.09700
C 	C 	0.77363 0.20973 0.73727 0.16300
C 	C 	0.85587 0.30312 0.06817 -0.08300
H 	H 	0.86893 0.33457 0.08777 0.06700
C 	C 	0.75188 0.11321 0.77797 -0.08800
H 	H 	0.73623 0.11557 0.69837 0.06200
C 	C 	0.78824 0.20905 0.59837 -0.21700
H 	H 	0.80973 0.19957 0.58127 0.10600
C 	C 	0.74985 0.07385 0.82957 -0.08100
H 	H 	0.73253 0.04427 0.79097 0.05700
C 	C 	0.74112 0.22376 0.75427 -0.20900
H 	H 	0.73033 0.22497 0.84557 0.10400
C 	C 	0.72504 0.23585 0.63537 0.11200
H 	H 	0.70293 0.24477 0.64877 -0.00100
C 	C 	0.77107 0.22225 0.48687 0.12000
H 	H 	0.78203 0.22217 0.39477 -0.01300
C 	C 	0.90821 0.32848 0.33257 0.16600
C 	C 	0.94992 0.35941 0.26957 -0.21600
H 	H 	0.96313 0.34937 0.20037 0.10600
C 	C 	0.89067 0.34531 0.43597 -0.21500
H 	H 	0.86293 0.32577 0.48277 0.11100
C 	C 	0.97187 0.40529 0.30987 0.12000
H 	H 	0.99983 0.42567 0.26567 -0.02100
C 	C 	0.91549 0.39204 0.46777 0.12500
H 	H 	0.90323 0.40327 0.53647 -0.02500
N 	N 	0.83381 0.22638 0.09327 -0.27900
N 	N 	0.79957 0.13326 0.97477 -0.27600
N 	N 	0.95524 0.42188 0.40807 -0.24500
N 	N 	0.73933 0.23542 0.50187 -0.14700
C 	C 	0.87405 0.13626 0.46967 -0.15800
C 	C 	0.84933 0.10106 0.36737 0.10400
C 	C 	0.80860 0.06442 0.17507 0.10600
C 	C 	0.78447 0.05548 0.04407 -0.15000
C 	C 	0.83548 0.05258 0.38307 -0.07200
H 	H 	0.84233 0.03927 0.46037 0.05600
C 	C 	0.88339 0.18273 0.46177 0.10200
C 	C 	0.88746 0.24708 0.37927 0.10300
C 	C 	0.89303 0.12361 0.59607 0.16200
C 	C 	0.81079 0.03022 0.26517 -0.10400
H 	H 	0.79773 0.99877 0.24557 0.08100
C 	C 	0.91478 0.22013 0.55537 -0.08400
H 	H 	0.93043 0.21777 0.63497 0.06200
C 	C 	0.87842 0.12429 0.73497 -0.21600
H 	H 	0.85693 0.13377 0.75207 0.10600
C 	C 	0.91681 0.25949 0.50377 -0.08400
H 	H 	0.93413 0.28907 0.54237 0.06200
C 	C 	0.92554 0.10958 0.57907 -0.20800
H 	H 	0.93633 0.10837 0.48777 0.10500
C 	C 	0.94162 0.09749 0.69797 0.11100
H 	H 	0.96373 0.08857 0.68457 0.00000
C 	C 	0.89559 0.11109 0.84647 0.12000
H 	H 	0.88463 0.11117 0.93857 -0.01200
C 	C 	0.75845 0.00486 0.00077 0.12300
C 	C 	0.71674 0.97393 0.06377 -0.18100
H 	H 	0.70353 0.98397 0.13297 0.09600
C 	C 	0.77599 0.98803 0.89737 -0.16100
H 	H 	0.80373 0.00757 0.85057 0.08600
C 	C 	0.69479 0.92805 0.02347 0.10200
H 	H 	0.66683 0.90767 0.06767 -0.01800
C 	C 	0.75117 0.94130 0.86557 0.09800
H 	H 	0.76343 0.93007 0.79687 -0.01500
N 	N 	0.83285 0.10696 0.24007 -0.27800
N 	N 	0.86709 0.20008 0.35857 -0.27700
N 	N 	0.71142 0.91146 0.92527 -0.23800
N 	N 	0.92733 0.09792 0.83147 -0.14600
Mn	Mn	0.83333 0.16667 0.16667 1.25600
