data_crystal

_cell_length_a 16.15840
_cell_length_b 23.74090
_cell_length_c 30.79110
_cell_angle_alpha 90.00000
_cell_angle_beta  90.00000
_cell_angle_gamma 90.00000

_symmetry_space_group_name_	'P 1'
_symmetry_space_group_name_H-M	'P 1'

loop_
_symmetry_equiv_pos_as_xyz
  x,y,z

loop_
_atom_site_label
_atom_site_type_symbol
_atom_site_fract_x
_atom_site_fract_y
_atom_site_fract_z
_atom_site_charge
C 	C 	0.07910 0.72809 0.23235 -0.08100
C 	C 	0.04610 0.77798 0.21522 -0.01300
H 	H 	0.06550 0.79200 0.18890 0.05600
C 	C 	0.98380 0.80653 0.23790 -0.03100
H 	H 	0.96190 0.83970 0.22660 0.05100
C 	C 	0.95500 0.78582 0.27670 -0.06600
C 	C 	0.98730 0.73632 0.29435 -0.02900
H 	H 	0.96750 0.72240 0.32060 0.06000
C 	C 	0.05010 0.70785 0.27164 -0.00800
H 	H 	0.07250 0.67500 0.28320 0.04800
C 	C 	0.14320 0.69591 0.20688 0.37500
C 	C 	0.88480 0.81475 0.30089 0.33800
C 	C 	0.37910 0.63001 0.06922 0.30300
C 	C 	0.47130 0.68110 0.01707 -0.01500
H 	H 	0.45230 0.71500 0.02860 0.08700
C 	C 	0.44310 0.63028 0.03360 -0.05100
C 	C 	0.47320 0.57970 0.01711 -0.02800
H 	H 	0.45660 0.54580 0.02950 0.05400
C 	C 	0.11720 0.63760 0.07234 0.32700
C 	C 	0.02960 0.68920 0.01619 -0.01900
H 	H 	0.05230 0.72310 0.02550 0.07100
C 	C 	0.05620 0.63733 0.03558 -0.05300
C 	C 	0.02710 0.58730 0.01743 -0.02000
H 	H 	0.04450 0.55310 0.02900 0.05700
C 	C 	0.35230 0.48800 0.16615 0.15600
H 	H 	0.32510 0.49840 0.14080 0.00000
C 	C 	0.48080 0.44300 0.18727 -1.01600
H 	H 	0.52470 0.42310 0.17290 0.19400
H 	H 	0.46810 0.42460 0.21420 0.19100
H 	H 	0.49790 0.48100 0.19290 0.13200
C 	C 	0.39010 0.39890 0.12563 -0.50800
H 	H 	0.34370 0.41040 0.10820 0.19600
H 	H 	0.37760 0.36380 0.13970 0.20100
H 	H 	0.43790 0.39440 0.10740 0.20200
C 	C 	0.34360 0.79929 0.10306 0.06300
H 	H 	0.38750 0.77630 0.11140 0.04200
C 	C 	0.29540 0.88772 0.07839 -0.04900
C 	C 	0.21590 0.86646 0.07818 0.35600
C 	C 	0.20000 0.81210 0.09121 -0.13900
H 	H 	0.14600 0.79870 0.09160 0.12200
C 	C 	0.31750 0.94689 0.06699 0.05600
H 	H 	0.27800 0.96100 0.04550 0.10300
C 	C 	0.40410 0.94941 0.04780 -0.52900
H 	H 	0.44350 0.93680 0.06900 0.20900
H 	H 	0.41670 0.98750 0.03960 0.18800
H 	H 	0.40690 0.92550 0.02270 0.20500
C 	C 	0.31560 0.98661 0.10810 0.26000
C 	C 	0.34830 0.04666 0.09890 -0.33100
C 	C 	0.41240 0.06839 0.12532 0.36700
H 	H 	0.43440 0.04620 0.14740 -0.07200
C 	C 	0.44200 0.12051 0.11900 -0.56200
H 	H 	0.48390 0.13410 0.13690 0.25100
C 	C 	0.41040 0.15491 0.08573 0.69500
C 	C 	0.34840 0.13491 0.06109 -0.67400
H 	H 	0.32620 0.15800 0.03970 0.32200
C 	C 	0.31630 0.08125 0.06629 0.59000
C 	C 	0.22590 0.99224 0.12481 -0.23700
H 	H 	0.19080 0.00470 0.10120 0.18500
H 	H 	0.20640 0.95550 0.13410 0.13300
C 	C 	0.20940 0.10924 0.19244 0.10100
H 	H 	0.20150 0.14740 0.19790 0.01200
C 	C 	0.23680 0.02491 0.20245 0.09100
H 	H 	0.25210 0.99070 0.21470 -0.01100
Co	Co	0.25328 0.69200 0.12544 1.18900
Co	Co	0.25569 0.58859 0.20916 1.15600
F 	F 	0.15334 0.89837 0.06668 -0.44300
F 	F 	0.25291 0.06123 0.04147 -0.48200
F 	F 	0.43839 0.20757 0.07961 -0.53500
N 	N 	0.40730 0.44328 0.15951 0.03800
N 	N 	0.26430 0.77759 0.10368 -0.16600
N 	N 	0.35980 0.85400 0.09048 -0.09000
N 	N 	0.21820 0.03178 0.16093 -0.06000
N 	N 	0.20050 0.08757 0.15375 -0.07600
N 	N 	0.23100 0.07217 0.22422 -0.23800
O 	O 	0.16708 0.71699 0.17170 -0.41700
O 	O 	0.17266 0.65136 0.22359 -0.44300
O 	O 	0.85195 0.79015 0.33236 -0.40800
O 	O 	0.86140 0.86250 0.28446 -0.42200
O 	O 	0.34081 0.67523 0.07747 -0.36600
O 	O 	0.36966 0.58353 0.09022 -0.24900
O 	O 	0.15626 0.68205 0.08072 -0.37400
O 	O 	0.12378 0.59239 0.09267 -0.25300
O 	O 	0.24930 0.60333 0.14224 -0.38900
O 	O 	0.33150 0.51671 0.19743 -0.37200
O 	O 	0.36425 0.96448 0.14199 -0.32000
H 	H 	0.33090 0.95790 0.16730 0.16700
H 	H 	0.46910 0.46270 0.21380 0.20700
H 	H 	0.52570 0.46120 0.17240 0.22600
H 	H 	0.49590 0.40480 0.19380 0.20400
C 	C 	0.57910 0.22809 0.73235 -0.08000
C 	C 	0.54610 0.27798 0.71522 -0.01200
H 	H 	0.56550 0.29200 0.68890 0.05700
C 	C 	0.48380 0.30653 0.73790 -0.03000
H 	H 	0.46190 0.33970 0.72660 0.05200
C 	C 	0.45500 0.28582 0.77670 -0.06500
C 	C 	0.48730 0.23632 0.79435 -0.02800
H 	H 	0.46750 0.22240 0.82060 0.06100
C 	C 	0.55010 0.20785 0.77164 -0.00800
H 	H 	0.57250 0.17500 0.78320 0.04800
C 	C 	0.64320 0.19591 0.70688 0.37500
C 	C 	0.38480 0.31475 0.80089 0.33800
C 	C 	0.87910 0.13001 0.56922 0.30300
C 	C 	0.97130 0.18110 0.51707 -0.01500
H 	H 	0.95230 0.21500 0.52860 0.08700
C 	C 	0.94310 0.13028 0.53360 -0.05100
C 	C 	0.97320 0.07970 0.51711 -0.02800
H 	H 	0.95660 0.04580 0.52950 0.05400
C 	C 	0.61720 0.13760 0.57234 0.32700
C 	C 	0.52960 0.18920 0.51619 -0.01900
H 	H 	0.55230 0.22310 0.52550 0.07100
C 	C 	0.55620 0.13733 0.53558 -0.05300
C 	C 	0.52710 0.08730 0.51743 -0.02000
H 	H 	0.54450 0.05310 0.52900 0.05700
C 	C 	0.85230 0.98800 0.66615 0.15600
H 	H 	0.82510 0.99840 0.64080 0.00000
C 	C 	0.98080 0.94300 0.68727 -1.01600
H 	H 	0.02470 0.92310 0.67290 0.19400
H 	H 	0.96810 0.92460 0.71420 0.19100
H 	H 	0.99790 0.98100 0.69290 0.13200
C 	C 	0.89010 0.89890 0.62563 -0.50800
H 	H 	0.84370 0.91040 0.60820 0.19600
H 	H 	0.87760 0.86380 0.63970 0.20100
H 	H 	0.93790 0.89440 0.60740 0.20200
C 	C 	0.84360 0.29929 0.60306 0.06300
H 	H 	0.88750 0.27630 0.61140 0.04200
C 	C 	0.79540 0.38772 0.57839 -0.04900
C 	C 	0.71590 0.36646 0.57818 0.35600
C 	C 	0.70000 0.31210 0.59121 -0.13900
H 	H 	0.64600 0.29870 0.59160 0.12200
C 	C 	0.81750 0.44689 0.56699 0.05600
H 	H 	0.77800 0.46100 0.54550 0.10300
C 	C 	0.90410 0.44941 0.54780 -0.52900
H 	H 	0.94350 0.43680 0.56900 0.20900
H 	H 	0.91670 0.48750 0.53960 0.18800
H 	H 	0.90690 0.42550 0.52270 0.20500
C 	C 	0.81560 0.48661 0.60810 0.26000
C 	C 	0.84830 0.54666 0.59890 -0.33100
C 	C 	0.91240 0.56839 0.62532 0.36700
H 	H 	0.93440 0.54620 0.64740 -0.07200
C 	C 	0.94200 0.62051 0.61900 -0.56200
H 	H 	0.98390 0.63410 0.63690 0.25100
C 	C 	0.91040 0.65491 0.58573 0.69500
C 	C 	0.84840 0.63491 0.56109 -0.67400
H 	H 	0.82620 0.65800 0.53970 0.32200
C 	C 	0.81630 0.58125 0.56629 0.59000
C 	C 	0.72590 0.49224 0.62481 -0.23700
H 	H 	0.69080 0.50470 0.60120 0.18500
H 	H 	0.70640 0.45550 0.63410 0.13300
C 	C 	0.70940 0.60924 0.69244 0.10100
H 	H 	0.70150 0.64740 0.69790 0.01200
C 	C 	0.73680 0.52491 0.70245 0.09100
H 	H 	0.75210 0.49070 0.71470 -0.01100
Co	Co	0.75328 0.19200 0.62544 1.18900
Co	Co	0.75569 0.08859 0.70916 1.15600
F 	F 	0.65334 0.39837 0.56668 -0.44300
F 	F 	0.75291 0.56123 0.54147 -0.48200
F 	F 	0.93839 0.70757 0.57961 -0.53500
N 	N 	0.90730 0.94328 0.65951 0.03800
N 	N 	0.76430 0.27759 0.60368 -0.16600
N 	N 	0.85980 0.35400 0.59048 -0.09000
N 	N 	0.71820 0.53178 0.66093 -0.06000
N 	N 	0.70050 0.58757 0.65375 -0.07600
N 	N 	0.73100 0.57217 0.72422 -0.23800
O 	O 	0.66708 0.21699 0.67170 -0.41700
O 	O 	0.67266 0.15136 0.72359 -0.44300
O 	O 	0.35195 0.29015 0.83236 -0.40800
O 	O 	0.36140 0.36250 0.78446 -0.42200
O 	O 	0.84081 0.17523 0.57747 -0.36600
O 	O 	0.86966 0.08353 0.59022 -0.24800
O 	O 	0.65626 0.18205 0.58072 -0.37400
O 	O 	0.62378 0.09239 0.59267 -0.25300
O 	O 	0.74930 0.10333 0.64224 -0.38900
O 	O 	0.83150 0.01671 0.69743 -0.37200
O 	O 	0.86425 0.46448 0.64199 -0.32000
H 	H 	0.83090 0.45790 0.66730 0.16700
H 	H 	0.96910 0.96270 0.71380 0.20700
H 	H 	0.02570 0.96120 0.67240 0.22600
H 	H 	0.99590 0.90480 0.69380 0.20500
C 	C 	0.92090 0.27191 0.23235 -0.08000
C 	C 	0.95390 0.22202 0.21522 -0.01200
H 	H 	0.93450 0.20800 0.18890 0.05700
C 	C 	0.01620 0.19347 0.23790 -0.03000
H 	H 	0.03810 0.16030 0.22660 0.05200
C 	C 	0.04500 0.21418 0.27670 -0.06500
C 	C 	0.01270 0.26368 0.29435 -0.02800
H 	H 	0.03250 0.27760 0.32060 0.06100
C 	C 	0.94990 0.29215 0.27164 -0.00800
H 	H 	0.92750 0.32500 0.28320 0.04800
C 	C 	0.85680 0.30409 0.20688 0.37500
C 	C 	0.11520 0.18525 0.30089 0.33800
C 	C 	0.62090 0.36999 0.06922 0.30300
C 	C 	0.52870 0.31890 0.01707 -0.01500
H 	H 	0.54770 0.28500 0.02860 0.08700
C 	C 	0.55690 0.36972 0.03360 -0.05100
C 	C 	0.52680 0.42030 0.01711 -0.02800
H 	H 	0.54340 0.45420 0.02950 0.05400
C 	C 	0.88280 0.36240 0.07234 0.32700
C 	C 	0.97040 0.31080 0.01619 -0.01900
H 	H 	0.94770 0.27690 0.02550 0.07100
C 	C 	0.94380 0.36267 0.03558 -0.05300
C 	C 	0.97290 0.41270 0.01743 -0.02000
H 	H 	0.95550 0.44690 0.02900 0.05700
C 	C 	0.64770 0.51200 0.16615 0.15600
H 	H 	0.67490 0.50160 0.14080 0.00000
C 	C 	0.51920 0.55700 0.18727 -1.01600
H 	H 	0.47530 0.57690 0.17290 0.19400
H 	H 	0.53190 0.57540 0.21420 0.19100
H 	H 	0.50210 0.51900 0.19290 0.13200
C 	C 	0.60990 0.60110 0.12563 -0.50800
H 	H 	0.65630 0.58960 0.10820 0.19600
H 	H 	0.62240 0.63620 0.13970 0.20100
H 	H 	0.56210 0.60560 0.10740 0.20200
C 	C 	0.65640 0.20071 0.10306 0.06300
H 	H 	0.61250 0.22370 0.11140 0.04200
C 	C 	0.70460 0.11228 0.07839 -0.04900
C 	C 	0.78410 0.13354 0.07818 0.35600
C 	C 	0.80000 0.18790 0.09121 -0.13900
H 	H 	0.85400 0.20130 0.09160 0.12200
C 	C 	0.68250 0.05311 0.06699 0.05600
H 	H 	0.72200 0.03900 0.04550 0.10300
C 	C 	0.59590 0.05059 0.04780 -0.52900
H 	H 	0.55650 0.06320 0.06900 0.20900
H 	H 	0.58330 0.01250 0.03960 0.18800
H 	H 	0.59310 0.07450 0.02270 0.20500
C 	C 	0.68440 0.01339 0.10810 0.26000
C 	C 	0.65170 0.95334 0.09890 -0.33100
C 	C 	0.58760 0.93161 0.12532 0.36700
H 	H 	0.56560 0.95380 0.14740 -0.07200
C 	C 	0.55800 0.87949 0.11900 -0.56200
H 	H 	0.51610 0.86590 0.13690 0.25100
C 	C 	0.58960 0.84509 0.08573 0.69500
C 	C 	0.65160 0.86509 0.06109 -0.67400
H 	H 	0.67380 0.84200 0.03970 0.32200
C 	C 	0.68370 0.91875 0.06629 0.59000
C 	C 	0.77410 0.00776 0.12481 -0.23700
H 	H 	0.80920 0.99530 0.10120 0.18500
H 	H 	0.79360 0.04450 0.13410 0.13300
C 	C 	0.79060 0.89076 0.19244 0.10100
H 	H 	0.79850 0.85260 0.19790 0.01200
C 	C 	0.76320 0.97509 0.20245 0.09100
H 	H 	0.74790 0.00930 0.21470 -0.01100
Co	Co	0.74672 0.30800 0.12544 1.18900
Co	Co	0.74431 0.41141 0.20916 1.15600
F 	F 	0.84666 0.10163 0.06668 -0.44300
F 	F 	0.74709 0.93877 0.04147 -0.48200
F 	F 	0.56161 0.79243 0.07961 -0.53500
N 	N 	0.59270 0.55672 0.15951 0.03800
N 	N 	0.73570 0.22241 0.10368 -0.16600
N 	N 	0.64020 0.14600 0.09048 -0.09000
N 	N 	0.78180 0.96822 0.16093 -0.06000
N 	N 	0.79950 0.91243 0.15375 -0.07600
N 	N 	0.76900 0.92783 0.22422 -0.23800
O 	O 	0.83292 0.28301 0.17170 -0.41700
O 	O 	0.82734 0.34864 0.22359 -0.44300
O 	O 	0.14805 0.20985 0.33236 -0.40800
O 	O 	0.13860 0.13750 0.28446 -0.42200
O 	O 	0.65919 0.32477 0.07747 -0.36600
O 	O 	0.63034 0.41647 0.09022 -0.24900
O 	O 	0.84374 0.31795 0.08072 -0.37400
O 	O 	0.87622 0.40761 0.09267 -0.25300
O 	O 	0.75070 0.39667 0.14224 -0.38900
O 	O 	0.66850 0.48329 0.19743 -0.37200
O 	O 	0.63575 0.03552 0.14199 -0.32000
H 	H 	0.66910 0.04210 0.16730 0.16700
H 	H 	0.53090 0.53730 0.21380 0.20700
H 	H 	0.47430 0.53880 0.17240 0.22600
H 	H 	0.50410 0.59520 0.19380 0.20400
C 	C 	0.42090 0.77191 0.73235 -0.08000
C 	C 	0.45390 0.72202 0.71522 -0.01200
H 	H 	0.43450 0.70800 0.68890 0.05700
C 	C 	0.51620 0.69347 0.73790 -0.03000
H 	H 	0.53810 0.66030 0.72660 0.05200
C 	C 	0.54500 0.71418 0.77670 -0.06500
C 	C 	0.51270 0.76368 0.79435 -0.02800
H 	H 	0.53250 0.77760 0.82060 0.06100
C 	C 	0.44990 0.79215 0.77164 -0.00800
H 	H 	0.42750 0.82500 0.78320 0.04800
C 	C 	0.35680 0.80409 0.70688 0.37500
C 	C 	0.61520 0.68525 0.80089 0.33800
C 	C 	0.12090 0.86999 0.56922 0.30300
C 	C 	0.02870 0.81890 0.51707 -0.01500
H 	H 	0.04770 0.78500 0.52860 0.08700
C 	C 	0.05690 0.86972 0.53360 -0.05100
C 	C 	0.02680 0.92030 0.51711 -0.02800
H 	H 	0.04340 0.95420 0.52950 0.05400
C 	C 	0.38280 0.86240 0.57234 0.32700
C 	C 	0.47040 0.81080 0.51619 -0.01900
H 	H 	0.44770 0.77690 0.52550 0.07100
C 	C 	0.44380 0.86267 0.53558 -0.05300
C 	C 	0.47290 0.91270 0.51743 -0.02000
H 	H 	0.45550 0.94690 0.52900 0.05700
C 	C 	0.14770 0.01200 0.66615 0.15600
H 	H 	0.17490 0.00160 0.64080 0.00000
C 	C 	0.01920 0.05700 0.68727 -1.01600
H 	H 	0.97530 0.07690 0.67290 0.19400
H 	H 	0.03190 0.07540 0.71420 0.19100
H 	H 	0.00210 0.01900 0.69290 0.13200
C 	C 	0.10990 0.10110 0.62563 -0.50800
H 	H 	0.15630 0.08960 0.60820 0.19600
H 	H 	0.12240 0.13620 0.63970 0.20100
H 	H 	0.06210 0.10560 0.60740 0.20200
C 	C 	0.15640 0.70071 0.60306 0.06300
H 	H 	0.11250 0.72370 0.61140 0.04200
C 	C 	0.20460 0.61228 0.57839 -0.04900
C 	C 	0.28410 0.63354 0.57818 0.35600
C 	C 	0.30000 0.68790 0.59121 -0.13900
H 	H 	0.35400 0.70130 0.59160 0.12200
C 	C 	0.18250 0.55311 0.56699 0.05600
H 	H 	0.22200 0.53900 0.54550 0.10300
C 	C 	0.09590 0.55059 0.54780 -0.52900
H 	H 	0.05650 0.56320 0.56900 0.20900
H 	H 	0.08330 0.51250 0.53960 0.18800
H 	H 	0.09310 0.57450 0.52270 0.20500
C 	C 	0.18440 0.51339 0.60810 0.26000
C 	C 	0.15170 0.45334 0.59890 -0.33100
C 	C 	0.08760 0.43161 0.62532 0.36700
H 	H 	0.06560 0.45380 0.64740 -0.07200
C 	C 	0.05800 0.37949 0.61900 -0.56200
H 	H 	0.01610 0.36590 0.63690 0.25100
C 	C 	0.08960 0.34509 0.58573 0.69500
C 	C 	0.15160 0.36509 0.56109 -0.67400
H 	H 	0.17380 0.34200 0.53970 0.32200
C 	C 	0.18370 0.41875 0.56629 0.59000
C 	C 	0.27410 0.50776 0.62481 -0.23700
H 	H 	0.30920 0.49530 0.60120 0.18500
H 	H 	0.29360 0.54450 0.63410 0.13300
C 	C 	0.29060 0.39076 0.69244 0.10100
H 	H 	0.29850 0.35260 0.69790 0.01200
C 	C 	0.26320 0.47509 0.70245 0.09100
H 	H 	0.24790 0.50930 0.71470 -0.01100
Co	Co	0.24672 0.80800 0.62544 1.18900
Co	Co	0.24431 0.91141 0.70916 1.15600
F 	F 	0.34666 0.60163 0.56668 -0.44300
F 	F 	0.24709 0.43877 0.54147 -0.48200
F 	F 	0.06161 0.29243 0.57961 -0.53500
N 	N 	0.09270 0.05672 0.65951 0.03800
N 	N 	0.23570 0.72241 0.60368 -0.16600
N 	N 	0.14020 0.64600 0.59048 -0.09000
N 	N 	0.28180 0.46822 0.66093 -0.06000
N 	N 	0.29950 0.41243 0.65375 -0.07600
N 	N 	0.26900 0.42783 0.72422 -0.23800
O 	O 	0.33292 0.78301 0.67170 -0.41700
O 	O 	0.32734 0.84864 0.72359 -0.44300
O 	O 	0.64805 0.70985 0.83236 -0.40800
O 	O 	0.63860 0.63750 0.78446 -0.42200
O 	O 	0.15919 0.82477 0.57747 -0.36600
O 	O 	0.13034 0.91647 0.59022 -0.24800
O 	O 	0.34374 0.81795 0.58072 -0.37400
O 	O 	0.37622 0.90761 0.59267 -0.25300
O 	O 	0.25070 0.89667 0.64224 -0.38900
O 	O 	0.16850 0.98329 0.69743 -0.37200
O 	O 	0.13575 0.53552 0.64199 -0.32000
H 	H 	0.16910 0.54210 0.66730 0.16700
H 	H 	0.03090 0.03730 0.71380 0.20700
H 	H 	0.97430 0.03880 0.67240 0.22600
H 	H 	0.00410 0.09520 0.69380 0.20500
C 	C 	0.92090 0.72809 0.76765 -0.08000
C 	C 	0.95390 0.77798 0.78478 -0.01200
H 	H 	0.93450 0.79200 0.81110 0.05700
C 	C 	0.01620 0.80653 0.76210 -0.03000
H 	H 	0.03810 0.83970 0.77340 0.05200
C 	C 	0.04500 0.78582 0.72330 -0.06500
C 	C 	0.01270 0.73632 0.70565 -0.02800
H 	H 	0.03250 0.72240 0.67940 0.06100
C 	C 	0.94990 0.70785 0.72836 -0.00800
H 	H 	0.92750 0.67500 0.71680 0.04800
C 	C 	0.85680 0.69591 0.79312 0.37500
C 	C 	0.11520 0.81475 0.69911 0.33800
C 	C 	0.62090 0.63001 0.93078 0.30300
C 	C 	0.52870 0.68110 0.98293 -0.01500
H 	H 	0.54770 0.71500 0.97140 0.08700
C 	C 	0.55690 0.63028 0.96640 -0.05100
C 	C 	0.52680 0.57970 0.98289 -0.02800
H 	H 	0.54340 0.54580 0.97050 0.05400
C 	C 	0.88280 0.63760 0.92766 0.32700
C 	C 	0.97040 0.68920 0.98381 -0.01900
H 	H 	0.94770 0.72310 0.97450 0.07100
C 	C 	0.94380 0.63733 0.96442 -0.05300
C 	C 	0.97290 0.58730 0.98257 -0.02000
H 	H 	0.95550 0.55310 0.97100 0.05700
C 	C 	0.64770 0.48800 0.83385 0.15600
H 	H 	0.67490 0.49840 0.85920 0.00000
C 	C 	0.51920 0.44300 0.81273 -1.01600
H 	H 	0.47530 0.42310 0.82710 0.19400
H 	H 	0.53190 0.42460 0.78580 0.19100
H 	H 	0.50210 0.48100 0.80710 0.13200
C 	C 	0.60990 0.39890 0.87437 -0.50800
H 	H 	0.65630 0.41040 0.89180 0.19600
H 	H 	0.62240 0.36380 0.86030 0.20100
H 	H 	0.56210 0.39440 0.89260 0.20200
C 	C 	0.65640 0.79929 0.89694 0.06300
H 	H 	0.61250 0.77630 0.88860 0.04200
C 	C 	0.70460 0.88772 0.92161 -0.04900
C 	C 	0.78410 0.86646 0.92182 0.35600
C 	C 	0.80000 0.81210 0.90879 -0.13900
H 	H 	0.85400 0.79870 0.90840 0.12200
C 	C 	0.68250 0.94689 0.93301 0.05600
H 	H 	0.72200 0.96100 0.95450 0.10300
C 	C 	0.59590 0.94941 0.95220 -0.52900
H 	H 	0.55650 0.93680 0.93100 0.20900
H 	H 	0.58330 0.98750 0.96040 0.18800
H 	H 	0.59310 0.92550 0.97730 0.20500
C 	C 	0.68440 0.98661 0.89190 0.26000
C 	C 	0.65170 0.04666 0.90110 -0.33100
C 	C 	0.58760 0.06839 0.87468 0.36700
H 	H 	0.56560 0.04620 0.85260 -0.07200
C 	C 	0.55800 0.12051 0.88100 -0.56200
H 	H 	0.51610 0.13410 0.86310 0.25100
C 	C 	0.58960 0.15491 0.91427 0.69500
C 	C 	0.65160 0.13491 0.93891 -0.67400
H 	H 	0.67380 0.15800 0.96030 0.32200
C 	C 	0.68370 0.08125 0.93371 0.59000
C 	C 	0.77410 0.99224 0.87519 -0.23700
H 	H 	0.80920 0.00470 0.89880 0.18500
H 	H 	0.79360 0.95550 0.86590 0.13300
C 	C 	0.79060 0.10924 0.80756 0.10100
H 	H 	0.79850 0.14740 0.80210 0.01200
C 	C 	0.76320 0.02491 0.79755 0.09100
H 	H 	0.74790 0.99070 0.78530 -0.01100
Co	Co	0.74672 0.69200 0.87456 1.18900
Co	Co	0.74431 0.58859 0.79084 1.15600
F 	F 	0.84666 0.89837 0.93332 -0.44300
F 	F 	0.74709 0.06123 0.95853 -0.48200
F 	F 	0.56161 0.20757 0.92039 -0.53500
N 	N 	0.59270 0.44328 0.84049 0.03800
N 	N 	0.73570 0.77759 0.89632 -0.16600
N 	N 	0.64020 0.85400 0.90952 -0.09000
N 	N 	0.78180 0.03178 0.83907 -0.06000
N 	N 	0.79950 0.08757 0.84625 -0.07600
N 	N 	0.76900 0.07217 0.77578 -0.23800
O 	O 	0.83292 0.71699 0.82830 -0.41700
O 	O 	0.82734 0.65136 0.77641 -0.44300
O 	O 	0.14805 0.79015 0.66764 -0.40800
O 	O 	0.13860 0.86250 0.71554 -0.42200
O 	O 	0.65919 0.67523 0.92253 -0.36600
O 	O 	0.63034 0.58353 0.90978 -0.24900
O 	O 	0.84374 0.68205 0.91928 -0.37400
O 	O 	0.87622 0.59239 0.90733 -0.25300
O 	O 	0.75070 0.60333 0.85776 -0.38900
O 	O 	0.66850 0.51671 0.80257 -0.37200
O 	O 	0.63575 0.96448 0.85801 -0.32000
H 	H 	0.66910 0.95790 0.83270 0.16700
H 	H 	0.53090 0.46270 0.78620 0.20700
H 	H 	0.47430 0.46120 0.82760 0.22600
H 	H 	0.50410 0.40480 0.80620 0.20400
C 	C 	0.42090 0.22809 0.26765 -0.08000
C 	C 	0.45390 0.27798 0.28478 -0.01200
H 	H 	0.43450 0.29200 0.31110 0.05700
C 	C 	0.51620 0.30653 0.26210 -0.03000
H 	H 	0.53810 0.33970 0.27340 0.05200
C 	C 	0.54500 0.28582 0.22330 -0.06500
C 	C 	0.51270 0.23632 0.20565 -0.02800
H 	H 	0.53250 0.22240 0.17940 0.06100
C 	C 	0.44990 0.20785 0.22836 -0.00800
H 	H 	0.42750 0.17500 0.21680 0.04800
C 	C 	0.35680 0.19591 0.29312 0.37500
C 	C 	0.61520 0.31475 0.19911 0.33800
C 	C 	0.12090 0.13001 0.43078 0.30300
C 	C 	0.02870 0.18110 0.48293 -0.01500
H 	H 	0.04770 0.21500 0.47140 0.08700
C 	C 	0.05690 0.13028 0.46640 -0.05100
C 	C 	0.02680 0.07970 0.48289 -0.02800
H 	H 	0.04340 0.04580 0.47050 0.05400
C 	C 	0.38280 0.13760 0.42766 0.32700
C 	C 	0.47040 0.18920 0.48381 -0.01900
H 	H 	0.44770 0.22310 0.47450 0.07100
C 	C 	0.44380 0.13733 0.46442 -0.05300
C 	C 	0.47290 0.08730 0.48257 -0.02000
H 	H 	0.45550 0.05310 0.47100 0.05700
C 	C 	0.14770 0.98800 0.33385 0.15600
H 	H 	0.17490 0.99840 0.35920 0.00000
C 	C 	0.01920 0.94300 0.31273 -1.01600
H 	H 	0.97530 0.92310 0.32710 0.19400
H 	H 	0.03190 0.92460 0.28580 0.19100
H 	H 	0.00210 0.98100 0.30710 0.13200
C 	C 	0.10990 0.89890 0.37437 -0.50800
H 	H 	0.15630 0.91040 0.39180 0.19600
H 	H 	0.12240 0.86380 0.36030 0.20100
H 	H 	0.06210 0.89440 0.39260 0.20200
C 	C 	0.15640 0.29929 0.39694 0.06300
H 	H 	0.11250 0.27630 0.38860 0.04200
C 	C 	0.20460 0.38772 0.42161 -0.04900
C 	C 	0.28410 0.36646 0.42182 0.35600
C 	C 	0.30000 0.31210 0.40879 -0.13900
H 	H 	0.35400 0.29870 0.40840 0.12200
C 	C 	0.18250 0.44689 0.43301 0.05600
H 	H 	0.22200 0.46100 0.45450 0.10300
C 	C 	0.09590 0.44941 0.45220 -0.52900
H 	H 	0.05650 0.43680 0.43100 0.20900
H 	H 	0.08330 0.48750 0.46040 0.18800
H 	H 	0.09310 0.42550 0.47730 0.20500
C 	C 	0.18440 0.48661 0.39190 0.26000
C 	C 	0.15170 0.54666 0.40110 -0.33100
C 	C 	0.08760 0.56839 0.37468 0.36700
H 	H 	0.06560 0.54620 0.35260 -0.07200
C 	C 	0.05800 0.62051 0.38100 -0.56200
H 	H 	0.01610 0.63410 0.36310 0.25100
C 	C 	0.08960 0.65491 0.41427 0.69500
C 	C 	0.15160 0.63491 0.43891 -0.67400
H 	H 	0.17380 0.65800 0.46030 0.32200
C 	C 	0.18370 0.58125 0.43371 0.59000
C 	C 	0.27410 0.49224 0.37519 -0.23700
H 	H 	0.30920 0.50470 0.39880 0.18500
H 	H 	0.29360 0.45550 0.36590 0.13300
C 	C 	0.29060 0.60924 0.30756 0.10100
H 	H 	0.29850 0.64740 0.30210 0.01200
C 	C 	0.26320 0.52491 0.29755 0.09100
H 	H 	0.24790 0.49070 0.28530 -0.01100
Co	Co	0.24672 0.19200 0.37456 1.18900
Co	Co	0.24431 0.08859 0.29084 1.15600
F 	F 	0.34666 0.39837 0.43332 -0.44300
F 	F 	0.24709 0.56123 0.45853 -0.48200
F 	F 	0.06161 0.70757 0.42039 -0.53500
N 	N 	0.09270 0.94328 0.34049 0.03800
N 	N 	0.23570 0.27759 0.39632 -0.16600
N 	N 	0.14020 0.35400 0.40952 -0.09000
N 	N 	0.28180 0.53178 0.33907 -0.06000
N 	N 	0.29950 0.58757 0.34625 -0.07600
N 	N 	0.26900 0.57217 0.27578 -0.23800
O 	O 	0.33292 0.21699 0.32830 -0.41700
O 	O 	0.32734 0.15136 0.27641 -0.44300
O 	O 	0.64805 0.29015 0.16764 -0.40800
O 	O 	0.63860 0.36250 0.21554 -0.42200
O 	O 	0.15919 0.17523 0.42253 -0.36600
O 	O 	0.13034 0.08353 0.40978 -0.24800
O 	O 	0.34374 0.18205 0.41928 -0.37400
O 	O 	0.37622 0.09239 0.40733 -0.25300
O 	O 	0.25070 0.10333 0.35776 -0.38900
O 	O 	0.16850 0.01671 0.30257 -0.37200
O 	O 	0.13575 0.46448 0.35801 -0.32000
H 	H 	0.16910 0.45790 0.33270 0.16700
H 	H 	0.03090 0.96270 0.28620 0.20700
H 	H 	0.97430 0.96120 0.32760 0.22600
H 	H 	0.00410 0.90480 0.30620 0.20500
C 	C 	0.07910 0.27191 0.76765 -0.08000
C 	C 	0.04610 0.22202 0.78478 -0.01200
H 	H 	0.06550 0.20800 0.81110 0.05700
C 	C 	0.98380 0.19347 0.76210 -0.03000
H 	H 	0.96190 0.16030 0.77340 0.05200
C 	C 	0.95500 0.21418 0.72330 -0.06500
C 	C 	0.98730 0.26368 0.70565 -0.02800
H 	H 	0.96750 0.27760 0.67940 0.06100
C 	C 	0.05010 0.29215 0.72836 -0.00800
H 	H 	0.07250 0.32500 0.71680 0.04800
C 	C 	0.14320 0.30409 0.79312 0.37500
C 	C 	0.88480 0.18525 0.69911 0.33800
C 	C 	0.37910 0.36999 0.93078 0.30300
C 	C 	0.47130 0.31890 0.98293 -0.01500
H 	H 	0.45230 0.28500 0.97140 0.08700
C 	C 	0.44310 0.36972 0.96640 -0.05100
C 	C 	0.47320 0.42030 0.98289 -0.02800
H 	H 	0.45660 0.45420 0.97050 0.05400
C 	C 	0.11720 0.36240 0.92766 0.32700
C 	C 	0.02960 0.31080 0.98381 -0.01900
H 	H 	0.05230 0.27690 0.97450 0.07100
C 	C 	0.05620 0.36267 0.96442 -0.05300
C 	C 	0.02710 0.41270 0.98257 -0.02000
H 	H 	0.04450 0.44690 0.97100 0.05700
C 	C 	0.35230 0.51200 0.83385 0.15600
H 	H 	0.32510 0.50160 0.85920 0.00000
C 	C 	0.48080 0.55700 0.81273 -1.01600
H 	H 	0.52470 0.57690 0.82710 0.19400
H 	H 	0.46810 0.57540 0.78580 0.19100
H 	H 	0.49790 0.51900 0.80710 0.13200
C 	C 	0.39010 0.60110 0.87437 -0.50800
H 	H 	0.34370 0.58960 0.89180 0.19600
H 	H 	0.37760 0.63620 0.86030 0.20100
H 	H 	0.43790 0.60560 0.89260 0.20200
C 	C 	0.34360 0.20071 0.89694 0.06300
H 	H 	0.38750 0.22370 0.88860 0.04200
C 	C 	0.29540 0.11228 0.92161 -0.04900
C 	C 	0.21590 0.13354 0.92182 0.35600
C 	C 	0.20000 0.18790 0.90879 -0.13900
H 	H 	0.14600 0.20130 0.90840 0.12200
C 	C 	0.31750 0.05311 0.93301 0.05600
H 	H 	0.27800 0.03900 0.95450 0.10300
C 	C 	0.40410 0.05059 0.95220 -0.52900
H 	H 	0.44350 0.06320 0.93100 0.20900
H 	H 	0.41670 0.01250 0.96040 0.18800
H 	H 	0.40690 0.07450 0.97730 0.20500
C 	C 	0.31560 0.01339 0.89190 0.26000
C 	C 	0.34830 0.95334 0.90110 -0.33100
C 	C 	0.41240 0.93161 0.87468 0.36700
H 	H 	0.43440 0.95380 0.85260 -0.07200
C 	C 	0.44200 0.87949 0.88100 -0.56200
H 	H 	0.48390 0.86590 0.86310 0.25100
C 	C 	0.41040 0.84509 0.91427 0.69500
C 	C 	0.34840 0.86509 0.93891 -0.67400
H 	H 	0.32620 0.84200 0.96030 0.32200
C 	C 	0.31630 0.91875 0.93371 0.59000
C 	C 	0.22590 0.00776 0.87519 -0.23700
H 	H 	0.19080 0.99530 0.89880 0.18500
H 	H 	0.20640 0.04450 0.86590 0.13300
C 	C 	0.20940 0.89076 0.80756 0.10100
H 	H 	0.20150 0.85260 0.80210 0.01200
C 	C 	0.23680 0.97509 0.79755 0.09100
H 	H 	0.25210 0.00930 0.78530 -0.01100
Co	Co	0.25328 0.30800 0.87456 1.18900
Co	Co	0.25569 0.41141 0.79084 1.15600
F 	F 	0.15334 0.10163 0.93332 -0.44300
F 	F 	0.25291 0.93877 0.95853 -0.48200
F 	F 	0.43839 0.79243 0.92039 -0.53500
N 	N 	0.40730 0.55672 0.84049 0.03800
N 	N 	0.26430 0.22241 0.89632 -0.16600
N 	N 	0.35980 0.14600 0.90952 -0.09000
N 	N 	0.21820 0.96822 0.83907 -0.06000
N 	N 	0.20050 0.91243 0.84625 -0.07600
N 	N 	0.23100 0.92783 0.77578 -0.23800
O 	O 	0.16708 0.28301 0.82830 -0.41700
O 	O 	0.17266 0.34864 0.77641 -0.44300
O 	O 	0.85195 0.20985 0.66764 -0.40800
O 	O 	0.86140 0.13750 0.71554 -0.42200
O 	O 	0.34081 0.32477 0.92253 -0.36600
O 	O 	0.36966 0.41647 0.90978 -0.24900
O 	O 	0.15626 0.31795 0.91928 -0.37400
O 	O 	0.12378 0.40761 0.90733 -0.25300
O 	O 	0.24930 0.39667 0.85776 -0.38900
O 	O 	0.33150 0.48329 0.80257 -0.37200
O 	O 	0.36425 0.03552 0.85801 -0.32000
H 	H 	0.33090 0.04210 0.83270 0.16700
H 	H 	0.46910 0.53730 0.78620 0.20700
H 	H 	0.52570 0.53880 0.82760 0.22600
H 	H 	0.49590 0.59520 0.80620 0.20400
C 	C 	0.57910 0.77191 0.26765 -0.08000
C 	C 	0.54610 0.72202 0.28478 -0.01200
H 	H 	0.56550 0.70800 0.31110 0.05700
C 	C 	0.48380 0.69347 0.26210 -0.03000
H 	H 	0.46190 0.66030 0.27340 0.05200
C 	C 	0.45500 0.71418 0.22330 -0.06500
C 	C 	0.48730 0.76368 0.20565 -0.02800
H 	H 	0.46750 0.77760 0.17940 0.06100
C 	C 	0.55010 0.79215 0.22836 -0.00800
H 	H 	0.57250 0.82500 0.21680 0.04800
C 	C 	0.64320 0.80409 0.29312 0.37500
C 	C 	0.38480 0.68525 0.19911 0.33800
C 	C 	0.87910 0.86999 0.43078 0.30300
C 	C 	0.97130 0.81890 0.48293 -0.01500
H 	H 	0.95230 0.78500 0.47140 0.08700
C 	C 	0.94310 0.86972 0.46640 -0.05100
C 	C 	0.97320 0.92030 0.48289 -0.02800
H 	H 	0.95660 0.95420 0.47050 0.05400
C 	C 	0.61720 0.86240 0.42766 0.32700
C 	C 	0.52960 0.81080 0.48381 -0.01900
H 	H 	0.55230 0.77690 0.47450 0.07100
C 	C 	0.55620 0.86267 0.46442 -0.05300
C 	C 	0.52710 0.91270 0.48257 -0.02000
H 	H 	0.54450 0.94690 0.47100 0.05700
C 	C 	0.85230 0.01200 0.33385 0.15600
H 	H 	0.82510 0.00160 0.35920 0.00000
C 	C 	0.98080 0.05700 0.31273 -1.01600
H 	H 	0.02470 0.07690 0.32710 0.19400
H 	H 	0.96810 0.07540 0.28580 0.19100
H 	H 	0.99790 0.01900 0.30710 0.13200
C 	C 	0.89010 0.10110 0.37437 -0.50800
H 	H 	0.84370 0.08960 0.39180 0.19600
H 	H 	0.87760 0.13620 0.36030 0.20100
H 	H 	0.93790 0.10560 0.39260 0.20200
C 	C 	0.84360 0.70071 0.39694 0.06300
H 	H 	0.88750 0.72370 0.38860 0.04200
C 	C 	0.79540 0.61228 0.42161 -0.04900
C 	C 	0.71590 0.63354 0.42182 0.35600
C 	C 	0.70000 0.68790 0.40879 -0.13900
H 	H 	0.64600 0.70130 0.40840 0.12200
C 	C 	0.81750 0.55311 0.43301 0.05600
H 	H 	0.77800 0.53900 0.45450 0.10300
C 	C 	0.90410 0.55059 0.45220 -0.52900
H 	H 	0.94350 0.56320 0.43100 0.20900
H 	H 	0.91670 0.51250 0.46040 0.18800
H 	H 	0.90690 0.57450 0.47730 0.20500
C 	C 	0.81560 0.51339 0.39190 0.26000
C 	C 	0.84830 0.45334 0.40110 -0.33100
C 	C 	0.91240 0.43161 0.37468 0.36700
H 	H 	0.93440 0.45380 0.35260 -0.07200
C 	C 	0.94200 0.37949 0.38100 -0.56200
H 	H 	0.98390 0.36590 0.36310 0.25100
C 	C 	0.91040 0.34509 0.41427 0.69500
C 	C 	0.84840 0.36509 0.43891 -0.67400
H 	H 	0.82620 0.34200 0.46030 0.32200
C 	C 	0.81630 0.41875 0.43371 0.59000
C 	C 	0.72590 0.50776 0.37519 -0.23700
H 	H 	0.69080 0.49530 0.39880 0.18500
H 	H 	0.70640 0.54450 0.36590 0.13300
C 	C 	0.70940 0.39076 0.30756 0.10100
H 	H 	0.70150 0.35260 0.30210 0.01200
C 	C 	0.73680 0.47509 0.29755 0.09100
H 	H 	0.75210 0.50930 0.28530 -0.01100
Co	Co	0.75328 0.80800 0.37456 1.18900
Co	Co	0.75569 0.91141 0.29084 1.15600
F 	F 	0.65334 0.60163 0.43332 -0.44300
F 	F 	0.75291 0.43877 0.45853 -0.48200
F 	F 	0.93839 0.29243 0.42039 -0.53500
N 	N 	0.90730 0.05672 0.34049 0.03800
N 	N 	0.76430 0.72241 0.39632 -0.16600
N 	N 	0.85980 0.64600 0.40952 -0.09000
N 	N 	0.71820 0.46822 0.33907 -0.06000
N 	N 	0.70050 0.41243 0.34625 -0.07600
N 	N 	0.73100 0.42783 0.27578 -0.23800
O 	O 	0.66708 0.78301 0.32830 -0.41700
O 	O 	0.67266 0.84864 0.27641 -0.44300
O 	O 	0.35195 0.70985 0.16764 -0.40800
O 	O 	0.36140 0.63750 0.21554 -0.42200
O 	O 	0.84081 0.82477 0.42253 -0.36600
O 	O 	0.86966 0.91647 0.40978 -0.24800
O 	O 	0.65626 0.81795 0.41928 -0.37400
O 	O 	0.62378 0.90761 0.40733 -0.25300
O 	O 	0.74930 0.89667 0.35776 -0.38900
O 	O 	0.83150 0.98329 0.30257 -0.37200
O 	O 	0.86425 0.53552 0.35801 -0.32000
H 	H 	0.83090 0.54210 0.33270 0.16700
H 	H 	0.96910 0.03730 0.28620 0.20700
H 	H 	0.02570 0.03880 0.32760 0.22600
H 	H 	0.99590 0.09520 0.30620 0.20500
