data_crystal

_cell_length_a 19.69200
_cell_length_b 19.69200
_cell_length_c 20.10100
_cell_angle_alpha 90.00000
_cell_angle_beta  90.00000
_cell_angle_gamma 90.00000

_symmetry_space_group_name_	'P 1'
_symmetry_space_group_name_H-M	'P 1'

loop_
_symmetry_equiv_pos_as_xyz
  x,y,z

loop_
_atom_site_label
_atom_site_type_symbol
_atom_site_fract_x
_atom_site_fract_y
_atom_site_fract_z
_atom_site_charge
Mn	Mn	0.60456 0.51543 0.02730 1.20700
N 	N 	0.83850 0.36950 0.82764 -0.24600
N 	N 	0.68980 0.47850 0.95706 -0.21000
N 	N 	0.75880 0.46930 0.95652 -0.09900
N 	N 	0.71522 0.42061 0.86507 -0.25200
N 	N 	0.55269 0.47066 0.93824 -0.23700
N 	N 	0.48790 0.46380 0.91367 -0.24500
N 	N 	0.56070 0.42670 0.83578 -0.15500
C 	C 	0.89830 0.34600 0.80600 0.07800
H 	H 	0.89860 0.31520 0.77090 -0.03300
C 	C 	0.95910 0.36520 0.83300 -0.14500
H 	H 	0.99960 0.34780 0.81630 0.06100
C 	C 	0.95960 0.40990 0.88430 0.05000
H 	H 	0.00040 0.42400 0.90310 0.00100
C 	C 	0.89810 0.43420 0.90840 -0.12400
H 	H 	0.89710 0.46500 0.94350 0.07300
C 	C 	0.83870 0.41200 0.87950 0.05300
C 	C 	0.77150 0.43500 0.90060 0.05800
C 	C 	0.66590 0.44900 0.90230 0.05400
C 	C 	0.59350 0.44820 0.89030 0.03700
C 	C 	0.49530 0.43820 0.85340 0.08700
H 	H 	0.45880 0.42890 0.82550 -0.01700
Mn	Mn	0.10456 0.01543 0.52730 1.20700
N 	N 	0.33850 0.86950 0.32764 -0.24500
N 	N 	0.18980 0.97850 0.45706 -0.20900
N 	N 	0.25880 0.96930 0.45652 -0.09800
N 	N 	0.21522 0.92061 0.36507 -0.25200
N 	N 	0.05269 0.97066 0.43824 -0.23600
N 	N 	0.98790 0.96380 0.41367 -0.24500
N 	N 	0.06070 0.92670 0.33578 -0.15400
C 	C 	0.39830 0.84600 0.30600 0.07800
H 	H 	0.39860 0.81520 0.27090 -0.03300
C 	C 	0.45910 0.86520 0.33300 -0.14400
H 	H 	0.49960 0.84780 0.31630 0.06100
C 	C 	0.45960 0.90990 0.38430 0.04900
H 	H 	0.50040 0.92400 0.40310 0.00200
C 	C 	0.39810 0.93420 0.40840 -0.12400
H 	H 	0.39710 0.96500 0.44350 0.07300
C 	C 	0.33870 0.91200 0.37950 0.05300
C 	C 	0.27150 0.93500 0.40060 0.05800
C 	C 	0.16590 0.94900 0.40230 0.05400
C 	C 	0.09350 0.94820 0.39030 0.03700
C 	C 	0.99530 0.93820 0.35340 0.08500
H 	H 	0.95880 0.92890 0.32550 -0.01700
Mn	Mn	0.89544 0.48457 0.52730 1.20800
N 	N 	0.66150 0.63050 0.32764 -0.24500
N 	N 	0.81020 0.52150 0.45706 -0.20900
N 	N 	0.74120 0.53070 0.45652 -0.09800
N 	N 	0.78478 0.57939 0.36507 -0.25200
N 	N 	0.94731 0.52934 0.43824 -0.23700
N 	N 	0.01210 0.53620 0.41367 -0.24500
N 	N 	0.93930 0.57330 0.33578 -0.15600
C 	C 	0.60170 0.65400 0.30600 0.07800
H 	H 	0.60140 0.68480 0.27090 -0.03300
C 	C 	0.54090 0.63480 0.33300 -0.14400
H 	H 	0.50040 0.65220 0.31630 0.06100
C 	C 	0.54040 0.59010 0.38430 0.04900
H 	H 	0.49960 0.57600 0.40310 0.00200
C 	C 	0.60190 0.56580 0.40840 -0.12400
H 	H 	0.60290 0.53500 0.44350 0.07300
C 	C 	0.66130 0.58800 0.37950 0.05300
C 	C 	0.72850 0.56500 0.40060 0.05800
C 	C 	0.83410 0.55100 0.40230 0.05400
C 	C 	0.90650 0.55180 0.39030 0.03600
C 	C 	0.00470 0.56180 0.35340 0.08700
H 	H 	0.04120 0.57110 0.32550 -0.01700
Mn	Mn	0.39544 0.98457 0.02730 1.20800
N 	N 	0.16150 0.13050 0.82764 -0.24400
N 	N 	0.31020 0.02150 0.95706 -0.20900
N 	N 	0.24120 0.03070 0.95652 -0.09800
N 	N 	0.28478 0.07939 0.86507 -0.25200
N 	N 	0.44731 0.02934 0.93824 -0.23700
N 	N 	0.51210 0.03620 0.91367 -0.24500
N 	N 	0.43930 0.07330 0.83578 -0.15500
C 	C 	0.10170 0.15400 0.80600 0.07500
H 	H 	0.10140 0.18480 0.77090 -0.03300
C 	C 	0.04090 0.13480 0.83300 -0.14000
H 	H 	0.00040 0.15220 0.81630 0.05900
C 	C 	0.04040 0.09010 0.88430 0.04300
H 	H 	0.99960 0.07600 0.90310 0.00500
C 	C 	0.10190 0.06580 0.90840 -0.12000
H 	H 	0.10290 0.03500 0.94350 0.07100
C 	C 	0.16130 0.08800 0.87950 0.05100
C 	C 	0.22850 0.06500 0.90060 0.05800
C 	C 	0.33410 0.05100 0.90230 0.05400
C 	C 	0.40650 0.05180 0.89030 0.03600
C 	C 	0.50470 0.06180 0.85340 0.08700
H 	H 	0.54120 0.07110 0.82550 -0.01700
Mn	Mn	0.23457 0.85456 0.27730 1.20800
N 	N 	0.38050 0.08850 0.07764 -0.24400
N 	N 	0.27150 0.93980 0.20706 -0.20900
N 	N 	0.28070 0.00880 0.20652 -0.09800
N 	N 	0.32939 0.96522 0.11507 -0.25200
N 	N 	0.27934 0.80269 0.18824 -0.23700
N 	N 	0.28620 0.73790 0.16367 -0.24500
N 	N 	0.32330 0.81070 0.08578 -0.15500
C 	C 	0.40400 0.14830 0.05600 0.07800
H 	H 	0.43480 0.14860 0.02090 -0.03300
C 	C 	0.38480 0.20910 0.08300 -0.14400
H 	H 	0.40220 0.24960 0.06630 0.06100
C 	C 	0.34010 0.20960 0.13430 0.04900
H 	H 	0.32600 0.25040 0.15310 0.00200
C 	C 	0.31580 0.14810 0.15840 -0.12300
H 	H 	0.28500 0.14710 0.19350 0.07200
C 	C 	0.33800 0.08870 0.12950 0.05300
C 	C 	0.31500 0.02150 0.15060 0.05800
C 	C 	0.30100 0.91590 0.15230 0.05400
C 	C 	0.30180 0.84350 0.14030 0.03700
C 	C 	0.31180 0.74530 0.10340 0.08700
H 	H 	0.32110 0.70880 0.07550 -0.01700
Mn	Mn	0.73457 0.35456 0.77730 1.20800
N 	N 	0.88050 0.58850 0.57764 -0.24500
N 	N 	0.77150 0.43980 0.70706 -0.20900
N 	N 	0.78070 0.50880 0.70652 -0.09800
N 	N 	0.82939 0.46522 0.61507 -0.25200
N 	N 	0.77934 0.30269 0.68824 -0.23700
N 	N 	0.78620 0.23790 0.66367 -0.24500
N 	N 	0.82330 0.31070 0.58578 -0.15500
C 	C 	0.90400 0.64830 0.55600 0.07800
H 	H 	0.93480 0.64860 0.52090 -0.03300
C 	C 	0.88480 0.70910 0.58300 -0.14400
H 	H 	0.90220 0.74960 0.56630 0.06000
C 	C 	0.84010 0.70960 0.63430 0.04900
H 	H 	0.82600 0.75040 0.65310 0.00200
C 	C 	0.81580 0.64810 0.65840 -0.12400
H 	H 	0.78500 0.64710 0.69350 0.07300
C 	C 	0.83800 0.58870 0.62950 0.05300
C 	C 	0.81500 0.52150 0.65060 0.05800
C 	C 	0.80100 0.41590 0.65230 0.05400
C 	C 	0.80180 0.34350 0.64030 0.03700
C 	C 	0.81180 0.24530 0.60340 0.08700
H 	H 	0.82110 0.20880 0.57550 -0.01700
Mn	Mn	0.26543 0.14544 0.77730 1.20800
N 	N 	0.11950 0.91150 0.57764 -0.24400
N 	N 	0.22850 0.06020 0.70706 -0.21000
N 	N 	0.21930 0.99120 0.70652 -0.09700
N 	N 	0.17061 0.03478 0.61507 -0.25300
N 	N 	0.22066 0.19731 0.68824 -0.23700
N 	N 	0.21380 0.26210 0.66367 -0.24500
N 	N 	0.17670 0.18930 0.58578 -0.15500
C 	C 	0.09600 0.85170 0.55600 0.07800
H 	H 	0.06520 0.85140 0.52090 -0.03300
C 	C 	0.11520 0.79090 0.58300 -0.14400
H 	H 	0.09780 0.75040 0.56630 0.06100
C 	C 	0.15990 0.79040 0.63430 0.04900
H 	H 	0.17400 0.74960 0.65310 0.00200
C 	C 	0.18420 0.85190 0.65840 -0.12300
H 	H 	0.21500 0.85290 0.69350 0.07300
C 	C 	0.16200 0.91130 0.62950 0.05300
C 	C 	0.18500 0.97850 0.65060 0.05900
C 	C 	0.19900 0.08410 0.65230 0.05400
C 	C 	0.19820 0.15650 0.64030 0.03600
C 	C 	0.18820 0.25470 0.60340 0.08700
H 	H 	0.17890 0.29120 0.57550 -0.01700
Mn	Mn	0.76543 0.64544 0.27730 1.20800
N 	N 	0.61950 0.41150 0.07764 -0.24400
N 	N 	0.72850 0.56020 0.20706 -0.20900
N 	N 	0.71930 0.49120 0.20652 -0.09800
N 	N 	0.67061 0.53478 0.11507 -0.25200
N 	N 	0.72066 0.69731 0.18824 -0.23700
N 	N 	0.71380 0.76210 0.16367 -0.24500
N 	N 	0.67670 0.68930 0.08578 -0.15500
C 	C 	0.59600 0.35170 0.05600 0.07800
H 	H 	0.56520 0.35140 0.02090 -0.03300
C 	C 	0.61520 0.29090 0.08300 -0.14400
H 	H 	0.59780 0.25040 0.06630 0.06100
C 	C 	0.65990 0.29040 0.13430 0.04900
H 	H 	0.67400 0.24960 0.15310 0.00200
C 	C 	0.68420 0.35190 0.15840 -0.12400
H 	H 	0.71500 0.35290 0.19350 0.07300
C 	C 	0.66200 0.41130 0.12950 0.05300
C 	C 	0.68500 0.47850 0.15060 0.05800
C 	C 	0.69900 0.58410 0.15230 0.05400
C 	C 	0.69820 0.65650 0.14030 0.03700
C 	C 	0.68820 0.75470 0.10340 0.08700
H 	H 	0.67890 0.79120 0.07550 -0.01700
Mn	Mn	0.39544 0.48457 0.97270 1.20800
N 	N 	0.16150 0.63050 0.17236 -0.24500
N 	N 	0.31020 0.52150 0.04294 -0.20900
N 	N 	0.24120 0.53070 0.04348 -0.09800
N 	N 	0.28478 0.57939 0.13493 -0.25200
N 	N 	0.44731 0.52934 0.06176 -0.23700
N 	N 	0.51210 0.53620 0.08633 -0.24500
N 	N 	0.43930 0.57330 0.16422 -0.15500
C 	C 	0.10170 0.65400 0.19400 0.07800
H 	H 	0.10140 0.68480 0.22910 -0.03300
C 	C 	0.04090 0.63480 0.16700 -0.14500
H 	H 	0.00040 0.65220 0.18370 0.06100
C 	C 	0.04040 0.59010 0.11570 0.05000
H 	H 	0.99960 0.57600 0.09690 0.00100
C 	C 	0.10190 0.56580 0.09160 -0.12400
H 	H 	0.10290 0.53500 0.05650 0.07300
C 	C 	0.16130 0.58800 0.12050 0.05300
C 	C 	0.22850 0.56500 0.09940 0.05800
C 	C 	0.33410 0.55100 0.09770 0.05400
C 	C 	0.40650 0.55180 0.10970 0.03700
C 	C 	0.50470 0.56180 0.14660 0.08700
H 	H 	0.54120 0.57110 0.17450 -0.01700
Mn	Mn	0.89544 0.98457 0.47270 1.20700
N 	N 	0.66150 0.13050 0.67236 -0.24500
N 	N 	0.81020 0.02150 0.54294 -0.20900
N 	N 	0.74120 0.03070 0.54348 -0.09800
N 	N 	0.78478 0.07939 0.63493 -0.25200
N 	N 	0.94731 0.02934 0.56176 -0.23600
N 	N 	0.01210 0.03620 0.58633 -0.24500
N 	N 	0.93930 0.07330 0.66422 -0.15400
C 	C 	0.60170 0.15400 0.69400 0.07800
H 	H 	0.60140 0.18480 0.72910 -0.03300
C 	C 	0.54090 0.13480 0.66700 -0.14400
H 	H 	0.50040 0.15220 0.68370 0.06100
C 	C 	0.54040 0.09010 0.61570 0.04900
H 	H 	0.49960 0.07600 0.59690 0.00200
C 	C 	0.60190 0.06580 0.59160 -0.12400
H 	H 	0.60290 0.03500 0.55650 0.07300
C 	C 	0.66130 0.08800 0.62050 0.05300
C 	C 	0.72850 0.06500 0.59940 0.05800
C 	C 	0.83410 0.05100 0.59770 0.05400
C 	C 	0.90650 0.05180 0.60970 0.03700
C 	C 	0.00470 0.06180 0.64660 0.08500
H 	H 	0.04120 0.07110 0.67450 -0.01700
Mn	Mn	0.10456 0.51543 0.47270 1.20800
N 	N 	0.33850 0.36950 0.67236 -0.24500
N 	N 	0.18980 0.47850 0.54294 -0.20900
N 	N 	0.25880 0.46930 0.54348 -0.09800
N 	N 	0.21522 0.42061 0.63493 -0.25200
N 	N 	0.05269 0.47066 0.56176 -0.23700
N 	N 	0.98790 0.46380 0.58633 -0.24500
N 	N 	0.06070 0.42670 0.66422 -0.15600
C 	C 	0.39830 0.34600 0.69400 0.07800
H 	H 	0.39860 0.31520 0.72910 -0.03300
C 	C 	0.45910 0.36520 0.66700 -0.14400
H 	H 	0.49960 0.34780 0.68370 0.06100
C 	C 	0.45960 0.40990 0.61570 0.04900
H 	H 	0.50040 0.42400 0.59690 0.00200
C 	C 	0.39810 0.43420 0.59160 -0.12400
H 	H 	0.39710 0.46500 0.55650 0.07300
C 	C 	0.33870 0.41200 0.62050 0.05300
C 	C 	0.27150 0.43500 0.59940 0.05800
C 	C 	0.16590 0.44900 0.59770 0.05400
C 	C 	0.09350 0.44820 0.60970 0.03600
C 	C 	0.99530 0.43820 0.64660 0.08700
H 	H 	0.95880 0.42890 0.67450 -0.01700
Mn	Mn	0.60456 0.01543 0.97270 1.20800
N 	N 	0.83850 0.86950 0.17236 -0.24400
N 	N 	0.68980 0.97850 0.04294 -0.20900
N 	N 	0.75880 0.96930 0.04348 -0.09800
N 	N 	0.71522 0.92061 0.13493 -0.25200
N 	N 	0.55269 0.97066 0.06176 -0.23700
N 	N 	0.48790 0.96380 0.08633 -0.24500
N 	N 	0.56070 0.92670 0.16422 -0.15500
C 	C 	0.89830 0.84600 0.19400 0.07500
H 	H 	0.89860 0.81520 0.22910 -0.03300
C 	C 	0.95910 0.86520 0.16700 -0.14000
H 	H 	0.99960 0.84780 0.18370 0.05900
C 	C 	0.95960 0.90990 0.11570 0.04300
H 	H 	0.00040 0.92400 0.09690 0.00500
C 	C 	0.89810 0.93420 0.09160 -0.12000
H 	H 	0.89710 0.96500 0.05650 0.07100
C 	C 	0.83870 0.91200 0.12050 0.05100
C 	C 	0.77150 0.93500 0.09940 0.05800
C 	C 	0.66590 0.94900 0.09770 0.05400
C 	C 	0.59350 0.94820 0.10970 0.03600
C 	C 	0.49530 0.93820 0.14660 0.08700
H 	H 	0.45880 0.92890 0.17450 -0.01700
Mn	Mn	0.76543 0.14544 0.72270 1.20800
N 	N 	0.61950 0.91150 0.92236 -0.24400
N 	N 	0.72850 0.06020 0.79294 -0.20900
N 	N 	0.71930 0.99120 0.79348 -0.09800
N 	N 	0.67061 0.03478 0.88493 -0.25200
N 	N 	0.72066 0.19731 0.81176 -0.23700
N 	N 	0.71380 0.26210 0.83633 -0.24500
N 	N 	0.67670 0.18930 0.91422 -0.15500
C 	C 	0.59600 0.85170 0.94400 0.07800
H 	H 	0.56520 0.85140 0.97910 -0.03300
C 	C 	0.61520 0.79090 0.91700 -0.14400
H 	H 	0.59780 0.75040 0.93370 0.06100
C 	C 	0.65990 0.79040 0.86570 0.04900
H 	H 	0.67400 0.74960 0.84690 0.00200
C 	C 	0.68420 0.85190 0.84160 -0.12300
H 	H 	0.71500 0.85290 0.80650 0.07200
C 	C 	0.66200 0.91130 0.87050 0.05300
C 	C 	0.68500 0.97850 0.84940 0.05800
C 	C 	0.69900 0.08410 0.84770 0.05400
C 	C 	0.69820 0.15650 0.85970 0.03700
C 	C 	0.68820 0.25470 0.89660 0.08700
H 	H 	0.67890 0.29120 0.92450 -0.01700
Mn	Mn	0.26543 0.64544 0.22270 1.20800
N 	N 	0.11950 0.41150 0.42236 -0.24500
N 	N 	0.22850 0.56020 0.29294 -0.20900
N 	N 	0.21930 0.49120 0.29348 -0.09800
N 	N 	0.17061 0.53478 0.38493 -0.25200
N 	N 	0.22066 0.69731 0.31176 -0.23700
N 	N 	0.21380 0.76210 0.33633 -0.24500
N 	N 	0.17670 0.68930 0.41422 -0.15500
C 	C 	0.09600 0.35170 0.44400 0.07800
H 	H 	0.06520 0.35140 0.47910 -0.03300
C 	C 	0.11520 0.29090 0.41700 -0.14400
H 	H 	0.09780 0.25040 0.43370 0.06000
C 	C 	0.15990 0.29040 0.36570 0.04900
H 	H 	0.17400 0.24960 0.34690 0.00200
C 	C 	0.18420 0.35190 0.34160 -0.12400
H 	H 	0.21500 0.35290 0.30650 0.07300
C 	C 	0.16200 0.41130 0.37050 0.05300
C 	C 	0.18500 0.47850 0.34940 0.05800
C 	C 	0.19900 0.58410 0.34770 0.05400
C 	C 	0.19820 0.65650 0.35970 0.03700
C 	C 	0.18820 0.75470 0.39660 0.08700
H 	H 	0.17890 0.79120 0.42450 -0.01700
Mn	Mn	0.73457 0.85456 0.22270 1.20800
N 	N 	0.88050 0.08850 0.42236 -0.24400
N 	N 	0.77150 0.93980 0.29294 -0.21000
N 	N 	0.78070 0.00880 0.29348 -0.09700
N 	N 	0.82939 0.96522 0.38493 -0.25300
N 	N 	0.77934 0.80269 0.31176 -0.23700
N 	N 	0.78620 0.73790 0.33633 -0.24500
N 	N 	0.82330 0.81070 0.41422 -0.15500
C 	C 	0.90400 0.14830 0.44400 0.07800
H 	H 	0.93480 0.14860 0.47910 -0.03300
C 	C 	0.88480 0.20910 0.41700 -0.14400
H 	H 	0.90220 0.24960 0.43370 0.06100
C 	C 	0.84010 0.20960 0.36570 0.04900
H 	H 	0.82600 0.25040 0.34690 0.00200
C 	C 	0.81580 0.14810 0.34160 -0.12300
H 	H 	0.78500 0.14710 0.30650 0.07300
C 	C 	0.83800 0.08870 0.37050 0.05300
C 	C 	0.81500 0.02150 0.34940 0.05900
C 	C 	0.80100 0.91590 0.34770 0.05400
C 	C 	0.80180 0.84350 0.35970 0.03600
C 	C 	0.81180 0.74530 0.39660 0.08700
H 	H 	0.82110 0.70880 0.42450 -0.01700
Mn	Mn	0.23457 0.35456 0.72270 1.20800
N 	N 	0.38050 0.58850 0.92236 -0.24400
N 	N 	0.27150 0.43980 0.79294 -0.20900
N 	N 	0.28070 0.50880 0.79348 -0.09800
N 	N 	0.32939 0.46522 0.88493 -0.25200
N 	N 	0.27934 0.30269 0.81176 -0.23700
N 	N 	0.28620 0.23790 0.83633 -0.24500
N 	N 	0.32330 0.31070 0.91422 -0.15500
C 	C 	0.40400 0.64830 0.94400 0.07800
H 	H 	0.43480 0.64860 0.97910 -0.03300
C 	C 	0.38480 0.70910 0.91700 -0.14400
H 	H 	0.40220 0.74960 0.93370 0.06100
C 	C 	0.34010 0.70960 0.86570 0.04900
H 	H 	0.32600 0.75040 0.84690 0.00200
C 	C 	0.31580 0.64810 0.84160 -0.12400
H 	H 	0.28500 0.64710 0.80650 0.07300
C 	C 	0.33800 0.58870 0.87050 0.05300
C 	C 	0.31500 0.52150 0.84940 0.05800
C 	C 	0.30100 0.41590 0.84770 0.05400
C 	C 	0.30180 0.34350 0.85970 0.03700
C 	C 	0.31180 0.24530 0.89660 0.08700
H 	H 	0.32110 0.20880 0.92450 -0.01700
