data_crystal

_cell_length_a 44.99800
_cell_length_b 20.61300
_cell_length_c 16.16940
_cell_angle_alpha 90.00000
_cell_angle_beta  94.77700
_cell_angle_gamma 90.00000

_symmetry_space_group_name_	'P 1'
_symmetry_space_group_name_H-M	'P 1'

loop_
_symmetry_equiv_pos_as_xyz
  x,y,z

loop_
_atom_site_label
_atom_site_type_symbol
_atom_site_fract_x
_atom_site_fract_y
_atom_site_fract_z
_atom_site_charge
Co	Co	0.07871 0.17770 0.53715 1.10600
N 	N 	0.08324 0.27983 0.55680 -0.21500
O 	O 	0.06332 0.19736 0.42024 -0.47600
O 	O 	0.12782 0.18089 0.53796 -0.50800
O 	O 	0.10575 0.15820 0.65015 -0.41800
N 	N 	0.10331 0.31229 0.51230 -0.20200
C 	C 	0.07057 0.32270 0.60030 0.11900
C 	C 	0.07878 0.21820 0.36350 0.39700
Co	Co	0.13667 0.25963 0.45512 1.17300
C 	C 	0.12914 0.16900 0.61600 0.35000
C 	C 	0.10155 0.37330 0.53070 0.12600
N 	N 	0.08072 0.38266 0.58570 -0.17400
H 	H 	0.05630 0.31330 0.63700 0.00300
O 	O 	0.10677 0.22052 0.36836 -0.44100
C 	C 	0.06199 0.24340 0.28600 -0.14700
N 	N 	0.16919 0.19921 0.41158 -0.20700
O 	O 	0.14308 0.33494 0.37464 -0.43800
O 	O 	0.16518 0.30204 0.54968 -0.46800
C 	C 	0.15867 0.16812 0.66550 -0.13700
H 	H 	0.11290 0.40600 0.50930 -0.01100
C 	C 	0.07217 0.44235 0.62170 0.23100
C 	C 	0.03142 0.25590 0.28560 0.07700
C 	C 	0.07664 0.25700 0.21670 0.08800
N 	N 	0.19884 0.21761 0.41180 -0.22200
C 	C 	0.16733 0.14020 0.38390 0.12100
C 	C 	0.16163 0.38000 0.36990 0.39600
C 	C 	0.18770 0.31680 0.59520 0.39800
C 	C 	0.15932 0.17221 0.75230 0.07400
C 	C 	0.18536 0.16845 0.62780 0.06600
C 	C 	0.05685 0.44120 0.69300 -0.25200
H 	H 	0.02150 0.24640 0.33230 0.02100
C 	C 	0.01587 0.28230 0.21600 -0.13200
C 	C 	0.06134 0.28150 0.14580 -0.14400
H 	H 	0.09710 0.24970 0.21750 0.03300
Co	Co	0.21386 0.30818 0.44757 1.16600
C 	C 	0.21315 0.16866 0.38330 0.12100
N 	N 	0.19430 0.11820 0.36490 -0.17400
H 	H 	0.14980 0.11610 0.37780 0.00500
O 	O 	0.18858 0.37889 0.39949 -0.45300
C 	C 	0.15160 0.44170 0.32780 -0.13900
O 	O 	0.21346 0.32282 0.56971 -0.44200
C 	C 	0.18470 0.32840 0.68590 -0.14000
H 	H 	0.14150 0.17170 0.77780 0.02900
C 	C 	0.18611 0.17695 0.80010 -0.14000
C 	C 	0.21223 0.17458 0.67490 -0.12500
H 	H 	0.18510 0.16450 0.57040 0.02100
H 	H 	0.05140 0.40210 0.71630 0.12600
C 	C 	0.03083 0.29400 0.14610 0.07800
C 	C 	0.98271 0.29450 0.21760 0.35600
C 	C 	0.07691 0.29080 0.06880 0.40600
O 	O 	0.23585 0.30491 0.31836 -0.35100
O 	O 	0.25805 0.32303 0.44163 -0.42100
H 	H 	0.23350 0.16820 0.37660 0.00000
C 	C 	0.20195 0.05714 0.32860 0.23500
C 	C 	0.13336 0.44140 0.25450 0.06100
C 	C 	0.15684 0.32902 0.71650 0.07600
C 	C 	0.21018 0.33477 0.74100 0.07100
C 	C 	0.21240 0.17854 0.76000 0.07000
C 	C 	0.18720 0.18472 0.89220 0.39200
C 	C 	0.24109 0.18240 0.63670 0.32100
H 	H 	0.02040 0.31040 0.09850 0.03600
O 	O 	0.97004 0.27326 0.27740 -0.31000
O 	O 	0.97011 0.32532 0.15687 -0.42500
O 	O 	0.10463 0.28194 0.07410 -0.44200
O 	O 	0.06123 0.30644 0.00360 -0.44600
C 	C 	0.21810 0.05880 0.26120 -0.25100
H 	H 	0.12640 0.40210 0.23210 0.03600
H 	H 	0.13980 0.32440 0.68010 0.02900
C 	C 	0.15396 0.33644 0.80110 -0.13400
C 	C 	0.20741 0.34468 0.82540 -0.11800
H 	H 	0.22900 0.33240 0.72140 0.03100
H 	H 	0.23050 0.18240 0.79170 0.03700
O 	O 	0.16419 0.19844 0.92565 -0.47500
O 	O 	0.21254 0.17662 0.93198 -0.44400
Co	Co	0.92681 0.32138 0.11157 1.15400
Co	Co	0.13309 0.24190 0.99956 1.17200
H 	H 	0.22330 0.09810 0.23810 0.13200
C 	C 	0.17936 0.34578 0.85460 0.06200
C 	C 	0.12411 0.33280 0.83480 0.34700
C 	C 	0.23459 0.35010 0.88590 0.33700
Co	Co	0.20817 0.18769 0.05171 1.16800
O 	O 	0.89906 0.34031 0.21139 -0.40100
O 	O 	0.87716 0.31984 0.08772 -0.49800
N 	N 	0.92041 0.21970 0.12770 -0.20300
O 	O 	0.10316 0.44750 0.09170 -0.25300
H 	H 	0.17750 0.35290 0.91080 0.02400
O 	O 	0.23473 0.38949 0.94370 -0.28300
O 	O 	0.25619 0.31323 0.87187 -0.43900
N 	N 	0.10104 0.18908 0.92410 -0.20400
N 	N 	0.16634 0.30053 0.05916 -0.20800
O 	O 	0.13664 0.16311 0.08371 -0.43100
N 	N 	0.19586 0.28103 0.06990 -0.23100
O 	O 	0.18267 0.12123 0.09209 -0.46700
C 	C 	0.10109 0.12830 0.90240 0.12700
C 	C 	0.16539 0.36020 0.08310 0.12200
C 	C 	0.15521 0.11980 0.10400 0.39700
C 	C 	0.21130 0.33020 0.10060 0.12600
C 	C 	0.06772 0.17620 0.82200 0.12400
N 	N 	0.08036 0.11705 0.83870 -0.17700
H 	H 	0.11370 0.09690 0.92740 -0.01100
N 	N 	0.19311 0.38149 0.11050 -0.17300
H 	H 	0.14810 0.38520 0.08170 0.00900
C 	C 	0.14543 0.05872 0.14390 -0.13500
H 	H 	0.23180 0.33010 0.11370 0.00200
H 	H 	0.05270 0.18420 0.78040 -0.00700
C 	C 	0.07348 0.05750 0.79700 0.23100
C 	C 	0.20198 0.44296 0.14700 0.25500
C 	C 	0.12792 0.05870 0.21060 0.06100
C 	C 	0.05961 0.05870 0.71860 -0.24100
C 	C 	0.22041 0.44200 0.21990 -0.28300
H 	H 	0.12120 0.09770 0.23110 0.03400
H 	H 	0.05500 0.09790 0.69210 0.09100
H 	H 	0.22680 0.40280 0.24360 0.15300
O 	O 	0.10105 0.05333 0.36090 -0.26800
Co	Co	0.57871 0.67770 0.53715 1.10700
N 	N 	0.58324 0.77983 0.55680 -0.21400
O 	O 	0.56332 0.69736 0.42024 -0.47400
O 	O 	0.62782 0.68089 0.53796 -0.50600
O 	O 	0.60575 0.65820 0.65015 -0.41800
N 	N 	0.60331 0.81229 0.51230 -0.20200
C 	C 	0.57057 0.82270 0.60030 0.12000
C 	C 	0.57878 0.71820 0.36350 0.39700
Co	Co	0.63667 0.75963 0.45512 1.17300
C 	C 	0.62914 0.66900 0.61600 0.35000
C 	C 	0.60155 0.87330 0.53070 0.12700
N 	N 	0.58072 0.88266 0.58570 -0.17500
H 	H 	0.55630 0.81330 0.63700 0.00300
O 	O 	0.60677 0.72052 0.36836 -0.44100
C 	C 	0.56199 0.74340 0.28600 -0.14600
N 	N 	0.66919 0.69921 0.41158 -0.20700
O 	O 	0.64308 0.83494 0.37464 -0.43600
O 	O 	0.66518 0.80204 0.54968 -0.46700
C 	C 	0.65867 0.66812 0.66550 -0.13600
H 	H 	0.61290 0.90600 0.50930 -0.00800
C 	C 	0.57217 0.94235 0.62170 0.23900
C 	C 	0.53142 0.75590 0.28560 0.07700
C 	C 	0.57664 0.75700 0.21670 0.08800
N 	N 	0.69884 0.71761 0.41180 -0.22200
C 	C 	0.66733 0.64020 0.38390 0.12100
C 	C 	0.66163 0.88000 0.36990 0.39300
C 	C 	0.68770 0.81680 0.59520 0.39900
C 	C 	0.65932 0.67221 0.75230 0.07400
C 	C 	0.68536 0.66845 0.62780 0.06600
C 	C 	0.55685 0.94120 0.69300 -0.23500
H 	H 	0.52150 0.74640 0.33230 0.02100
C 	C 	0.51587 0.78230 0.21600 -0.13100
C 	C 	0.56134 0.78150 0.14580 -0.14300
H 	H 	0.59710 0.74970 0.21750 0.03300
Co	Co	0.71386 0.80818 0.44757 1.16600
C 	C 	0.71315 0.66866 0.38330 0.12100
N 	N 	0.69430 0.61820 0.36490 -0.17400
H 	H 	0.64980 0.61610 0.37780 0.00600
O 	O 	0.68858 0.87889 0.39949 -0.45000
C 	C 	0.65160 0.94170 0.32780 -0.12700
O 	O 	0.71346 0.82282 0.56971 -0.44100
C 	C 	0.68470 0.82840 0.68590 -0.13900
H 	H 	0.64150 0.67170 0.77780 0.02900
C 	C 	0.68611 0.67695 0.80010 -0.14000
C 	C 	0.71223 0.67458 0.67490 -0.12400
H 	H 	0.68510 0.66450 0.57040 0.02200
H 	H 	0.55140 0.90210 0.71630 0.12200
C 	C 	0.53083 0.79400 0.14610 0.07800
C 	C 	0.48271 0.79450 0.21760 0.35600
C 	C 	0.57691 0.79080 0.06880 0.40600
O 	O 	0.73585 0.80491 0.31836 -0.35000
O 	O 	0.75805 0.82303 0.44163 -0.42000
H 	H 	0.73350 0.66820 0.37660 0.00000
C 	C 	0.70195 0.55714 0.32860 0.23500
C 	C 	0.63336 0.94140 0.25450 0.06900
C 	C 	0.65684 0.82902 0.71650 0.07600
C 	C 	0.71018 0.83477 0.74100 0.07100
C 	C 	0.71240 0.67854 0.76000 0.07100
C 	C 	0.68720 0.68472 0.89220 0.39200
C 	C 	0.74109 0.68240 0.63670 0.32100
H 	H 	0.52040 0.81040 0.09850 0.03700
O 	O 	0.47004 0.77326 0.27740 -0.30900
O 	O 	0.47011 0.82532 0.15687 -0.42400
O 	O 	0.60463 0.78194 0.07410 -0.44200
O 	O 	0.56123 0.80644 0.00360 -0.44500
C 	C 	0.71810 0.55880 0.26120 -0.25700
H 	H 	0.62640 0.90210 0.23210 0.03500
H 	H 	0.63980 0.82440 0.68010 0.02900
C 	C 	0.65396 0.83644 0.80110 -0.13300
C 	C 	0.70741 0.84468 0.82540 -0.11700
H 	H 	0.72900 0.83240 0.72140 0.03200
H 	H 	0.73050 0.68240 0.79170 0.03700
O 	O 	0.66419 0.69844 0.92565 -0.47500
O 	O 	0.71254 0.67662 0.93198 -0.44400
Co	Co	0.42681 0.82138 0.11157 1.15500
Co	Co	0.63309 0.74190 0.99956 1.17200
H 	H 	0.72330 0.59810 0.23810 0.13500
C 	C 	0.67936 0.84578 0.85460 0.06100
C 	C 	0.62411 0.83280 0.83480 0.34700
C 	C 	0.73459 0.85010 0.88590 0.33700
Co	Co	0.70817 0.68769 0.05171 1.16800
O 	O 	0.39906 0.84031 0.21139 -0.40000
O 	O 	0.37716 0.81984 0.08772 -0.49700
N 	N 	0.42041 0.71970 0.12770 -0.20300
O 	O 	0.60316 0.94750 0.09170 -0.24200
H 	H 	0.67750 0.85290 0.91080 0.02500
O 	O 	0.73473 0.88949 0.94370 -0.28000
O 	O 	0.75619 0.81323 0.87187 -0.43900
N 	N 	0.60104 0.68908 0.92410 -0.20300
N 	N 	0.66634 0.80053 0.05916 -0.20800
O 	O 	0.63664 0.66311 0.08371 -0.43100
N 	N 	0.69586 0.78103 0.06990 -0.23100
O 	O 	0.68267 0.62123 0.09209 -0.46700
C 	C 	0.60109 0.62830 0.90240 0.12700
C 	C 	0.66539 0.86020 0.08310 0.12300
C 	C 	0.65521 0.61980 0.10400 0.39900
C 	C 	0.71130 0.83020 0.10060 0.12600
C 	C 	0.56772 0.67620 0.82200 0.12500
N 	N 	0.58036 0.61705 0.83870 -0.17600
H 	H 	0.61370 0.59690 0.92740 -0.01000
N 	N 	0.69311 0.88149 0.11050 -0.17400
H 	H 	0.64810 0.88520 0.08170 0.01000
C 	C 	0.64543 0.55872 0.14390 -0.13800
H 	H 	0.73180 0.83010 0.11370 0.00200
H 	H 	0.55270 0.68420 0.78040 -0.00700
C 	C 	0.57348 0.55750 0.79700 0.23200
C 	C 	0.70198 0.94296 0.14700 0.26200
C 	C 	0.62792 0.55870 0.21060 0.06300
C 	C 	0.55961 0.55870 0.71860 -0.24700
C 	C 	0.72041 0.94200 0.21990 -0.26600
H 	H 	0.62120 0.59770 0.23110 0.03400
H 	H 	0.55500 0.59790 0.69210 0.09400
H 	H 	0.72680 0.90280 0.24360 0.14900
O 	O 	0.60105 0.55333 0.36090 -0.26900
Co	Co	0.92129 0.17770 0.46285 1.10700
N 	N 	0.91676 0.27983 0.44320 -0.21400
O 	O 	0.93668 0.19736 0.57976 -0.47500
O 	O 	0.87218 0.18089 0.46204 -0.50700
O 	O 	0.89425 0.15820 0.34985 -0.41800
N 	N 	0.89669 0.31229 0.48770 -0.20200
C 	C 	0.92943 0.32270 0.39970 0.11900
C 	C 	0.92122 0.21820 0.63650 0.39700
Co	Co	0.86333 0.25963 0.54488 1.17300
C 	C 	0.87086 0.16900 0.38400 0.35000
C 	C 	0.89845 0.37330 0.46930 0.12600
N 	N 	0.91928 0.38266 0.41430 -0.17400
H 	H 	0.94370 0.31330 0.36300 0.00300
O 	O 	0.89323 0.22052 0.63164 -0.44100
C 	C 	0.93801 0.24340 0.71400 -0.14700
N 	N 	0.83081 0.19921 0.58842 -0.20700
O 	O 	0.85692 0.33494 0.62536 -0.43800
O 	O 	0.83482 0.30204 0.45032 -0.46800
C 	C 	0.84133 0.16812 0.33450 -0.13700
H 	H 	0.88710 0.40600 0.49070 -0.01100
C 	C 	0.92783 0.44235 0.37830 0.23100
C 	C 	0.96858 0.25590 0.71440 0.07700
C 	C 	0.92336 0.25700 0.78330 0.08800
N 	N 	0.80116 0.21761 0.58820 -0.22200
C 	C 	0.83267 0.14020 0.61610 0.12100
C 	C 	0.83837 0.38000 0.63010 0.39600
C 	C 	0.81230 0.31680 0.40480 0.39800
C 	C 	0.84068 0.17221 0.24770 0.07400
C 	C 	0.81464 0.16845 0.37220 0.06600
C 	C 	0.94315 0.44120 0.30700 -0.25200
H 	H 	0.97850 0.24640 0.66770 0.02100
C 	C 	0.98413 0.28230 0.78400 -0.13200
C 	C 	0.93866 0.28150 0.85420 -0.14400
H 	H 	0.90290 0.24970 0.78250 0.03300
Co	Co	0.78614 0.30818 0.55243 1.16600
C 	C 	0.78685 0.16866 0.61670 0.12100
N 	N 	0.80570 0.11820 0.63510 -0.17400
H 	H 	0.85020 0.11610 0.62220 0.00500
O 	O 	0.81142 0.37889 0.60051 -0.45300
C 	C 	0.84840 0.44170 0.67220 -0.13900
O 	O 	0.78654 0.32282 0.43029 -0.44200
C 	C 	0.81530 0.32840 0.31410 -0.14000
H 	H 	0.85850 0.17170 0.22220 0.02900
C 	C 	0.81389 0.17695 0.19990 -0.14000
C 	C 	0.78777 0.17458 0.32510 -0.12500
H 	H 	0.81490 0.16450 0.42960 0.02100
H 	H 	0.94860 0.40210 0.28370 0.12600
C 	C 	0.96917 0.29400 0.85390 0.07800
C 	C 	0.01729 0.29450 0.78240 0.35600
C 	C 	0.92309 0.29080 0.93120 0.40600
O 	O 	0.76415 0.30491 0.68164 -0.35100
O 	O 	0.74195 0.32303 0.55837 -0.42100
H 	H 	0.76650 0.16820 0.62340 0.00000
C 	C 	0.79805 0.05714 0.67140 0.23500
C 	C 	0.86664 0.44140 0.74550 0.06100
C 	C 	0.84316 0.32902 0.28350 0.07600
C 	C 	0.78982 0.33477 0.25900 0.07100
C 	C 	0.78760 0.17854 0.24000 0.07000
C 	C 	0.81280 0.18472 0.10780 0.39200
C 	C 	0.75891 0.18240 0.36330 0.32100
H 	H 	0.97960 0.31040 0.90150 0.03600
O 	O 	0.02996 0.27326 0.72260 -0.31000
O 	O 	0.02989 0.32532 0.84313 -0.42500
O 	O 	0.89537 0.28194 0.92590 -0.44200
O 	O 	0.93877 0.30644 0.99640 -0.44600
C 	C 	0.78190 0.05880 0.73880 -0.25100
H 	H 	0.87360 0.40210 0.76790 0.03600
H 	H 	0.86020 0.32440 0.31990 0.02900
C 	C 	0.84604 0.33644 0.19890 -0.13400
C 	C 	0.79259 0.34468 0.17460 -0.11800
H 	H 	0.77100 0.33240 0.27860 0.03100
H 	H 	0.76950 0.18240 0.20830 0.03700
O 	O 	0.83581 0.19844 0.07435 -0.47500
O 	O 	0.78746 0.17662 0.06802 -0.44400
Co	Co	0.07319 0.32138 0.88843 1.15400
Co	Co	0.86691 0.24190 0.00044 1.17200
H 	H 	0.77670 0.09810 0.76190 0.13200
C 	C 	0.82064 0.34578 0.14540 0.06200
C 	C 	0.87589 0.33280 0.16520 0.34700
C 	C 	0.76541 0.35010 0.11410 0.33700
Co	Co	0.79183 0.18769 0.94829 1.16800
O 	O 	0.10094 0.34031 0.78861 -0.40100
O 	O 	0.12284 0.31984 0.91228 -0.49800
N 	N 	0.07959 0.21970 0.87230 -0.20300
O 	O 	0.89684 0.44750 0.90830 -0.25300
H 	H 	0.82250 0.35290 0.08920 0.02400
O 	O 	0.76527 0.38949 0.05630 -0.28300
O 	O 	0.74381 0.31323 0.12813 -0.43900
N 	N 	0.89896 0.18908 0.07590 -0.20400
N 	N 	0.83366 0.30053 0.94084 -0.20800
O 	O 	0.86336 0.16311 0.91629 -0.43100
N 	N 	0.80414 0.28103 0.93010 -0.23100
O 	O 	0.81733 0.12123 0.90791 -0.46700
C 	C 	0.89891 0.12830 0.09760 0.12700
C 	C 	0.83461 0.36020 0.91690 0.12200
C 	C 	0.84479 0.11980 0.89600 0.39700
C 	C 	0.78870 0.33020 0.89940 0.12600
C 	C 	0.93228 0.17620 0.17800 0.12400
N 	N 	0.91964 0.11705 0.16130 -0.17700
H 	H 	0.88630 0.09690 0.07260 -0.01100
N 	N 	0.80689 0.38149 0.88950 -0.17300
H 	H 	0.85190 0.38520 0.91830 0.00900
C 	C 	0.85457 0.05872 0.85610 -0.13500
H 	H 	0.76820 0.33010 0.88630 0.00200
H 	H 	0.94730 0.18420 0.21960 -0.00700
C 	C 	0.92652 0.05750 0.20300 0.23100
C 	C 	0.79802 0.44296 0.85300 0.25500
C 	C 	0.87208 0.05870 0.78940 0.06100
C 	C 	0.94039 0.05870 0.28140 -0.24100
C 	C 	0.77959 0.44200 0.78010 -0.28300
H 	H 	0.87880 0.09770 0.76890 0.03400
H 	H 	0.94500 0.09790 0.30790 0.09100
H 	H 	0.77320 0.40280 0.75640 0.15300
O 	O 	0.89895 0.05333 0.63910 -0.26800
Co	Co	0.42129 0.67770 0.46285 1.10700
N 	N 	0.41676 0.77983 0.44320 -0.21400
O 	O 	0.43668 0.69736 0.57976 -0.47400
O 	O 	0.37218 0.68089 0.46204 -0.50600
O 	O 	0.39425 0.65820 0.34985 -0.41800
N 	N 	0.39669 0.81229 0.48770 -0.20200
C 	C 	0.42943 0.82270 0.39970 0.12000
C 	C 	0.42122 0.71820 0.63650 0.39700
Co	Co	0.36333 0.75963 0.54488 1.17300
C 	C 	0.37086 0.66900 0.38400 0.35000
C 	C 	0.39845 0.87330 0.46930 0.12700
N 	N 	0.41928 0.88266 0.41430 -0.17500
H 	H 	0.44370 0.81330 0.36300 0.00300
O 	O 	0.39323 0.72052 0.63164 -0.44100
C 	C 	0.43801 0.74340 0.71400 -0.14600
N 	N 	0.33081 0.69921 0.58842 -0.20700
O 	O 	0.35692 0.83494 0.62536 -0.43600
O 	O 	0.33482 0.80204 0.45032 -0.46700
C 	C 	0.34133 0.66812 0.33450 -0.13600
H 	H 	0.38710 0.90600 0.49070 -0.00800
C 	C 	0.42783 0.94235 0.37830 0.23900
C 	C 	0.46858 0.75590 0.71440 0.07700
C 	C 	0.42336 0.75700 0.78330 0.08800
N 	N 	0.30116 0.71761 0.58820 -0.22200
C 	C 	0.33267 0.64020 0.61610 0.12100
C 	C 	0.33837 0.88000 0.63010 0.39300
C 	C 	0.31230 0.81680 0.40480 0.39900
C 	C 	0.34068 0.67221 0.24770 0.07400
C 	C 	0.31464 0.66845 0.37220 0.06600
C 	C 	0.44315 0.94120 0.30700 -0.23500
H 	H 	0.47850 0.74640 0.66770 0.02100
C 	C 	0.48413 0.78230 0.78400 -0.13100
C 	C 	0.43866 0.78150 0.85420 -0.14300
H 	H 	0.40290 0.74970 0.78250 0.03300
Co	Co	0.28614 0.80818 0.55243 1.16600
C 	C 	0.28685 0.66866 0.61670 0.12100
N 	N 	0.30570 0.61820 0.63510 -0.17400
H 	H 	0.35020 0.61610 0.62220 0.00600
O 	O 	0.31142 0.87889 0.60051 -0.45000
C 	C 	0.34840 0.94170 0.67220 -0.12700
O 	O 	0.28654 0.82282 0.43029 -0.44100
C 	C 	0.31530 0.82840 0.31410 -0.13900
H 	H 	0.35850 0.67170 0.22220 0.02900
C 	C 	0.31389 0.67695 0.19990 -0.14000
C 	C 	0.28777 0.67458 0.32510 -0.12400
H 	H 	0.31490 0.66450 0.42960 0.02200
H 	H 	0.44860 0.90210 0.28370 0.12200
C 	C 	0.46917 0.79400 0.85390 0.07800
C 	C 	0.51729 0.79450 0.78240 0.35600
C 	C 	0.42309 0.79080 0.93120 0.40600
O 	O 	0.26415 0.80491 0.68164 -0.35000
O 	O 	0.24195 0.82303 0.55837 -0.42000
H 	H 	0.26650 0.66820 0.62340 0.00000
C 	C 	0.29805 0.55714 0.67140 0.23500
C 	C 	0.36664 0.94140 0.74550 0.06900
C 	C 	0.34316 0.82902 0.28350 0.07600
C 	C 	0.28982 0.83477 0.25900 0.07100
C 	C 	0.28760 0.67854 0.24000 0.07100
C 	C 	0.31280 0.68472 0.10780 0.39200
C 	C 	0.25891 0.68240 0.36330 0.32100
H 	H 	0.47960 0.81040 0.90150 0.03700
O 	O 	0.52996 0.77326 0.72260 -0.30900
O 	O 	0.52989 0.82532 0.84313 -0.42400
O 	O 	0.39537 0.78194 0.92590 -0.44200
O 	O 	0.43877 0.80644 0.99640 -0.44500
C 	C 	0.28190 0.55880 0.73880 -0.25700
H 	H 	0.37360 0.90210 0.76790 0.03500
H 	H 	0.36020 0.82440 0.31990 0.02900
C 	C 	0.34604 0.83644 0.19890 -0.13300
C 	C 	0.29259 0.84468 0.17460 -0.11700
H 	H 	0.27100 0.83240 0.27860 0.03200
H 	H 	0.26950 0.68240 0.20830 0.03700
O 	O 	0.33581 0.69844 0.07435 -0.47500
O 	O 	0.28746 0.67662 0.06802 -0.44400
Co	Co	0.57319 0.82138 0.88843 1.15500
Co	Co	0.36691 0.74190 0.00044 1.17200
H 	H 	0.27670 0.59810 0.76190 0.13500
C 	C 	0.32064 0.84578 0.14540 0.06100
C 	C 	0.37589 0.83280 0.16520 0.34700
C 	C 	0.26541 0.85010 0.11410 0.33700
Co	Co	0.29183 0.68769 0.94829 1.16800
O 	O 	0.60094 0.84031 0.78861 -0.40000
O 	O 	0.62284 0.81984 0.91228 -0.49700
N 	N 	0.57959 0.71970 0.87230 -0.20300
O 	O 	0.39684 0.94750 0.90830 -0.24200
H 	H 	0.32250 0.85290 0.08920 0.02500
O 	O 	0.26527 0.88949 0.05630 -0.28000
O 	O 	0.24381 0.81323 0.12813 -0.43900
N 	N 	0.39896 0.68908 0.07590 -0.20300
N 	N 	0.33366 0.80053 0.94084 -0.20800
O 	O 	0.36336 0.66311 0.91629 -0.43100
N 	N 	0.30414 0.78103 0.93010 -0.23100
O 	O 	0.31733 0.62123 0.90791 -0.46700
C 	C 	0.39891 0.62830 0.09760 0.12700
C 	C 	0.33461 0.86020 0.91690 0.12300
C 	C 	0.34479 0.61980 0.89600 0.39900
C 	C 	0.28870 0.83020 0.89940 0.12600
C 	C 	0.43228 0.67620 0.17800 0.12500
N 	N 	0.41964 0.61705 0.16130 -0.17600
H 	H 	0.38630 0.59690 0.07260 -0.01000
N 	N 	0.30689 0.88149 0.88950 -0.17400
H 	H 	0.35190 0.88520 0.91830 0.01000
C 	C 	0.35457 0.55872 0.85610 -0.13800
H 	H 	0.26820 0.83010 0.88630 0.00200
H 	H 	0.44730 0.68420 0.21960 -0.00700
C 	C 	0.42652 0.55750 0.20300 0.23200
C 	C 	0.29802 0.94296 0.85300 0.26200
C 	C 	0.37208 0.55870 0.78940 0.06300
C 	C 	0.44039 0.55870 0.28140 -0.24700
C 	C 	0.27959 0.94200 0.78010 -0.26600
H 	H 	0.37880 0.59770 0.76890 0.03400
H 	H 	0.44500 0.59790 0.30790 0.09400
H 	H 	0.27320 0.90280 0.75640 0.14900
O 	O 	0.39895 0.55333 0.63910 -0.26900
Co	Co	0.92129 0.82230 0.46285 1.10800
N 	N 	0.91676 0.72017 0.44320 -0.21400
O 	O 	0.93668 0.80264 0.57976 -0.47300
O 	O 	0.87218 0.81911 0.46204 -0.50600
O 	O 	0.89425 0.84180 0.34985 -0.41700
N 	N 	0.89669 0.68771 0.48770 -0.20300
C 	C 	0.92943 0.67730 0.39970 0.11900
C 	C 	0.92122 0.78180 0.63650 0.39700
Co	Co	0.86333 0.74037 0.54488 1.17300
C 	C 	0.87086 0.83100 0.38400 0.35100
C 	C 	0.89845 0.62670 0.46930 0.12600
N 	N 	0.91928 0.61734 0.41430 -0.17400
H 	H 	0.94370 0.68670 0.36300 0.00300
O 	O 	0.89323 0.77948 0.63164 -0.44100
C 	C 	0.93801 0.75660 0.71400 -0.14600
N 	N 	0.83081 0.80079 0.58842 -0.20700
O 	O 	0.85692 0.66506 0.62536 -0.43800
O 	O 	0.83482 0.69796 0.45032 -0.46800
C 	C 	0.84133 0.83188 0.33450 -0.13500
H 	H 	0.88710 0.59400 0.49070 -0.01100
C 	C 	0.92783 0.55765 0.37830 0.23100
C 	C 	0.96858 0.74410 0.71440 0.07700
C 	C 	0.92336 0.74300 0.78330 0.08800
N 	N 	0.80116 0.78239 0.58820 -0.22200
C 	C 	0.83267 0.85980 0.61610 0.12200
C 	C 	0.83837 0.62000 0.63010 0.39600
C 	C 	0.81230 0.68320 0.40480 0.39800
C 	C 	0.84068 0.82779 0.24770 0.07500
C 	C 	0.81464 0.83155 0.37220 0.06600
C 	C 	0.94315 0.55880 0.30700 -0.25200
H 	H 	0.97850 0.75360 0.66770 0.02100
C 	C 	0.98413 0.71770 0.78400 -0.13100
C 	C 	0.93866 0.71850 0.85420 -0.14300
H 	H 	0.90290 0.75030 0.78250 0.03300
Co	Co	0.78614 0.69182 0.55243 1.16600
C 	C 	0.78685 0.83134 0.61670 0.12100
N 	N 	0.80570 0.88180 0.63510 -0.17400
H 	H 	0.85020 0.88390 0.62220 0.00700
O 	O 	0.81142 0.62111 0.60051 -0.45300
C 	C 	0.84840 0.55830 0.67220 -0.13900
O 	O 	0.78654 0.67718 0.43029 -0.44200
C 	C 	0.81530 0.67160 0.31410 -0.14000
H 	H 	0.85850 0.82830 0.22220 0.03000
C 	C 	0.81389 0.82305 0.19990 -0.13900
C 	C 	0.78777 0.82542 0.32510 -0.12300
H 	H 	0.81490 0.83550 0.42960 0.02300
H 	H 	0.94860 0.59790 0.28370 0.12600
C 	C 	0.96917 0.70600 0.85390 0.07800
C 	C 	0.01729 0.70550 0.78240 0.35600
C 	C 	0.92309 0.70920 0.93120 0.40600
O 	O 	0.76415 0.69509 0.68164 -0.35100
O 	O 	0.74195 0.67697 0.55837 -0.42100
H 	H 	0.76650 0.83180 0.62340 0.00100
C 	C 	0.79805 0.94286 0.67140 0.24300
C 	C 	0.86664 0.55860 0.74550 0.06100
C 	C 	0.84316 0.67098 0.28350 0.07600
C 	C 	0.78982 0.66523 0.25900 0.07100
C 	C 	0.78760 0.82146 0.24000 0.07100
C 	C 	0.81280 0.81528 0.10780 0.39200
C 	C 	0.75891 0.81760 0.36330 0.32100
H 	H 	0.97960 0.68960 0.90150 0.03700
O 	O 	0.02996 0.72674 0.72260 -0.30900
O 	O 	0.02989 0.67468 0.84313 -0.42500
O 	O 	0.89537 0.71806 0.92590 -0.44200
O 	O 	0.93877 0.69356 0.99640 -0.44600
C 	C 	0.78190 0.94120 0.73880 -0.24100
H 	H 	0.87360 0.59790 0.76790 0.03600
H 	H 	0.86020 0.67560 0.31990 0.02900
C 	C 	0.84604 0.66356 0.19890 -0.13400
C 	C 	0.79259 0.65532 0.17460 -0.11800
H 	H 	0.77100 0.66760 0.27860 0.03100
H 	H 	0.76950 0.81760 0.20830 0.03700
O 	O 	0.83581 0.80156 0.07435 -0.47500
O 	O 	0.78746 0.82338 0.06802 -0.44300
Co	Co	0.07319 0.67862 0.88843 1.15400
Co	Co	0.86691 0.75810 0.00044 1.17200
H 	H 	0.77670 0.90190 0.76190 0.13000
C 	C 	0.82064 0.65422 0.14540 0.06200
C 	C 	0.87589 0.66720 0.16520 0.34700
C 	C 	0.76541 0.64990 0.11410 0.33700
Co	Co	0.79183 0.81231 0.94829 1.16800
O 	O 	0.10094 0.65969 0.78861 -0.40100
O 	O 	0.12284 0.68016 0.91228 -0.49800
N 	N 	0.07959 0.78030 0.87230 -0.20300
O 	O 	0.89684 0.55250 0.90830 -0.25300
H 	H 	0.82250 0.64710 0.08920 0.02400
O 	O 	0.76527 0.61051 0.05630 -0.28300
O 	O 	0.74381 0.68677 0.12813 -0.44000
N 	N 	0.89896 0.81092 0.07590 -0.20300
N 	N 	0.83366 0.69947 0.94084 -0.20800
O 	O 	0.86336 0.83689 0.91629 -0.43000
N 	N 	0.80414 0.71897 0.93010 -0.23100
O 	O 	0.81733 0.87877 0.90791 -0.46400
C 	C 	0.89891 0.87170 0.09760 0.12800
C 	C 	0.83461 0.63980 0.91690 0.12200
C 	C 	0.84479 0.88020 0.89600 0.39600
C 	C 	0.78870 0.66980 0.89940 0.12600
C 	C 	0.93228 0.82380 0.17800 0.12500
N 	N 	0.91964 0.88295 0.16130 -0.17700
H 	H 	0.88630 0.90310 0.07260 -0.00800
N 	N 	0.80689 0.61851 0.88950 -0.17300
H 	H 	0.85190 0.61480 0.91830 0.00900
C 	C 	0.85457 0.94128 0.85610 -0.12700
H 	H 	0.76820 0.66990 0.88630 0.00200
H 	H 	0.94730 0.81580 0.21960 -0.00700
C 	C 	0.92652 0.94250 0.20300 0.23900
C 	C 	0.79802 0.55704 0.85300 0.25500
C 	C 	0.87208 0.94130 0.78940 0.07100
C 	C 	0.94039 0.94130 0.28140 -0.23100
C 	C 	0.77959 0.55800 0.78010 -0.28300
H 	H 	0.87880 0.90230 0.76890 0.03200
H 	H 	0.94500 0.90210 0.30790 0.09000
H 	H 	0.77320 0.59720 0.75640 0.15300
O 	O 	0.89895 0.94667 0.63910 -0.25900
Co	Co	0.42129 0.32230 0.46285 1.10700
N 	N 	0.41676 0.22017 0.44320 -0.21400
O 	O 	0.43668 0.30264 0.57976 -0.47400
O 	O 	0.37218 0.31911 0.46204 -0.50600
O 	O 	0.39425 0.34180 0.34985 -0.41800
N 	N 	0.39669 0.18771 0.48770 -0.20300
C 	C 	0.42943 0.17730 0.39970 0.11900
C 	C 	0.42122 0.28180 0.63650 0.39700
Co	Co	0.36333 0.24037 0.54488 1.17300
C 	C 	0.37086 0.33100 0.38400 0.35000
C 	C 	0.39845 0.12670 0.46930 0.12600
N 	N 	0.41928 0.11734 0.41430 -0.17500
H 	H 	0.44370 0.18670 0.36300 0.00300
O 	O 	0.39323 0.27948 0.63164 -0.44100
C 	C 	0.43801 0.25660 0.71400 -0.14700
N 	N 	0.33081 0.30079 0.58842 -0.20700
O 	O 	0.35692 0.16506 0.62536 -0.43700
O 	O 	0.33482 0.19796 0.45032 -0.46800
C 	C 	0.34133 0.33188 0.33450 -0.13600
H 	H 	0.38710 0.09400 0.49070 -0.01200
C 	C 	0.42783 0.05765 0.37830 0.23100
C 	C 	0.46858 0.24410 0.71440 0.07700
C 	C 	0.42336 0.24300 0.78330 0.08800
N 	N 	0.30116 0.28239 0.58820 -0.22200
C 	C 	0.33267 0.35980 0.61610 0.12100
C 	C 	0.33837 0.12000 0.63010 0.39400
C 	C 	0.31230 0.18320 0.40480 0.39800
C 	C 	0.34068 0.32779 0.24770 0.07400
C 	C 	0.31464 0.33155 0.37220 0.06600
C 	C 	0.44315 0.05880 0.30700 -0.24600
H 	H 	0.47850 0.25360 0.66770 0.02100
C 	C 	0.48413 0.21770 0.78400 -0.13200
C 	C 	0.43866 0.21850 0.85420 -0.14400
H 	H 	0.40290 0.25030 0.78250 0.03300
Co	Co	0.28614 0.19182 0.55243 1.16600
C 	C 	0.28685 0.33134 0.61670 0.12100
N 	N 	0.30570 0.38180 0.63510 -0.17400
H 	H 	0.35020 0.38390 0.62220 0.00600
O 	O 	0.31142 0.12111 0.60051 -0.45300
C 	C 	0.34840 0.05830 0.67220 -0.13500
O 	O 	0.28654 0.17718 0.43029 -0.44200
C 	C 	0.31530 0.17160 0.31410 -0.14000
H 	H 	0.35850 0.32830 0.22220 0.02900
C 	C 	0.31389 0.32305 0.19990 -0.14000
C 	C 	0.28777 0.32542 0.32510 -0.12400
H 	H 	0.31490 0.33550 0.42960 0.02200
H 	H 	0.44860 0.09790 0.28370 0.12300
C 	C 	0.46917 0.20600 0.85390 0.07800
C 	C 	0.51729 0.20550 0.78240 0.35600
C 	C 	0.42309 0.20920 0.93120 0.40600
O 	O 	0.26415 0.19509 0.68164 -0.35100
O 	O 	0.24195 0.17697 0.55837 -0.42200
H 	H 	0.26650 0.33180 0.62340 0.00000
C 	C 	0.29805 0.44286 0.67140 0.23500
C 	C 	0.36664 0.05860 0.74550 0.05900
C 	C 	0.34316 0.17098 0.28350 0.07600
C 	C 	0.28982 0.16523 0.25900 0.07100
C 	C 	0.28760 0.32146 0.24000 0.07100
C 	C 	0.31280 0.31528 0.10780 0.39200
C 	C 	0.25891 0.31760 0.36330 0.32100
H 	H 	0.47960 0.18960 0.90150 0.03600
O 	O 	0.52996 0.22674 0.72260 -0.31000
O 	O 	0.52989 0.17468 0.84313 -0.42600
O 	O 	0.39537 0.21806 0.92590 -0.44300
O 	O 	0.43877 0.19356 0.99640 -0.44600
C 	C 	0.28190 0.44120 0.73880 -0.25700
H 	H 	0.37360 0.09790 0.76790 0.03700
H 	H 	0.36020 0.17560 0.31990 0.02900
C 	C 	0.34604 0.16356 0.19890 -0.13500
C 	C 	0.29259 0.15532 0.17460 -0.11900
H 	H 	0.27100 0.16760 0.27860 0.03100
H 	H 	0.26950 0.31760 0.20830 0.03700
O 	O 	0.33581 0.30156 0.07435 -0.47500
O 	O 	0.28746 0.32338 0.06802 -0.44400
Co	Co	0.57319 0.17862 0.88843 1.15400
Co	Co	0.36691 0.25810 0.00044 1.17200
H 	H 	0.27670 0.40190 0.76190 0.13500
C 	C 	0.32064 0.15422 0.14540 0.06100
C 	C 	0.37589 0.16720 0.16520 0.34700
C 	C 	0.26541 0.14990 0.11410 0.33800
Co	Co	0.29183 0.31231 0.94829 1.16800
O 	O 	0.60094 0.15969 0.78861 -0.40200
O 	O 	0.62284 0.18016 0.91228 -0.49800
N 	N 	0.57959 0.28030 0.87230 -0.20300
O 	O 	0.39684 0.05250 0.90830 -0.25200
H 	H 	0.32250 0.14710 0.08920 0.02300
O 	O 	0.26527 0.11051 0.05630 -0.28400
O 	O 	0.24381 0.18677 0.12813 -0.44000
N 	N 	0.39896 0.31092 0.07590 -0.20300
N 	N 	0.33366 0.19947 0.94084 -0.20800
O 	O 	0.36336 0.33689 0.91629 -0.43100
N 	N 	0.30414 0.21897 0.93010 -0.23100
O 	O 	0.31733 0.37877 0.90791 -0.46700
C 	C 	0.39891 0.37170 0.09760 0.12700
C 	C 	0.33461 0.13980 0.91690 0.12100
C 	C 	0.34479 0.38020 0.89600 0.39900
C 	C 	0.28870 0.16980 0.89940 0.12600
C 	C 	0.43228 0.32380 0.17800 0.12500
N 	N 	0.41964 0.38295 0.16130 -0.17600
H 	H 	0.38630 0.40310 0.07260 -0.01000
N 	N 	0.30689 0.11851 0.88950 -0.17300
H 	H 	0.35190 0.11480 0.91830 0.00900
C 	C 	0.35457 0.44128 0.85610 -0.13800
H 	H 	0.26820 0.16990 0.88630 0.00200
H 	H 	0.44730 0.31580 0.21960 -0.00700
C 	C 	0.42652 0.44250 0.20300 0.23200
C 	C 	0.29802 0.05704 0.85300 0.25400
C 	C 	0.37208 0.44130 0.78940 0.06300
C 	C 	0.44039 0.44130 0.28140 -0.24700
C 	C 	0.27959 0.05800 0.78010 -0.27600
H 	H 	0.37880 0.40230 0.76890 0.03400
H 	H 	0.44500 0.40210 0.30790 0.09400
H 	H 	0.27320 0.09720 0.75640 0.15100
O 	O 	0.39895 0.44667 0.63910 -0.26900
Co	Co	0.07871 0.82230 0.53715 1.10800
N 	N 	0.08324 0.72017 0.55680 -0.21400
O 	O 	0.06332 0.80264 0.42024 -0.47300
O 	O 	0.12782 0.81911 0.53796 -0.50600
O 	O 	0.10575 0.84180 0.65015 -0.41700
N 	N 	0.10331 0.68771 0.51230 -0.20300
C 	C 	0.07057 0.67730 0.60030 0.11900
C 	C 	0.07878 0.78180 0.36350 0.39700
Co	Co	0.13667 0.74037 0.45512 1.17300
C 	C 	0.12914 0.83100 0.61600 0.35100
C 	C 	0.10155 0.62670 0.53070 0.12600
N 	N 	0.08072 0.61734 0.58570 -0.17400
H 	H 	0.05630 0.68670 0.63700 0.00300
O 	O 	0.10677 0.77948 0.36836 -0.44100
C 	C 	0.06199 0.75660 0.28600 -0.14600
N 	N 	0.16919 0.80079 0.41158 -0.20700
O 	O 	0.14308 0.66506 0.37464 -0.43800
O 	O 	0.16518 0.69796 0.54968 -0.46800
C 	C 	0.15867 0.83188 0.66550 -0.13500
H 	H 	0.11290 0.59400 0.50930 -0.01100
C 	C 	0.07217 0.55765 0.62170 0.23100
C 	C 	0.03142 0.74410 0.28560 0.07700
C 	C 	0.07664 0.74300 0.21670 0.08800
N 	N 	0.19884 0.78239 0.41180 -0.22200
C 	C 	0.16733 0.85980 0.38390 0.12200
C 	C 	0.16163 0.62000 0.36990 0.39600
C 	C 	0.18770 0.68320 0.59520 0.39800
C 	C 	0.15932 0.82779 0.75230 0.07500
C 	C 	0.18536 0.83155 0.62780 0.06600
C 	C 	0.05685 0.55880 0.69300 -0.25200
H 	H 	0.02150 0.75360 0.33230 0.02100
C 	C 	0.01587 0.71770 0.21600 -0.13100
C 	C 	0.06134 0.71850 0.14580 -0.14300
H 	H 	0.09710 0.75030 0.21750 0.03300
Co	Co	0.21386 0.69182 0.44757 1.16600
C 	C 	0.21315 0.83134 0.38330 0.12100
N 	N 	0.19430 0.88180 0.36490 -0.17400
H 	H 	0.14980 0.88390 0.37780 0.00700
O 	O 	0.18858 0.62111 0.39949 -0.45300
C 	C 	0.15160 0.55830 0.32780 -0.13900
O 	O 	0.21346 0.67718 0.56971 -0.44200
C 	C 	0.18470 0.67160 0.68590 -0.14000
H 	H 	0.14150 0.82830 0.77780 0.03000
C 	C 	0.18611 0.82305 0.80010 -0.13900
C 	C 	0.21223 0.82542 0.67490 -0.12300
H 	H 	0.18510 0.83550 0.57040 0.02300
H 	H 	0.05140 0.59790 0.71630 0.12600
C 	C 	0.03083 0.70600 0.14610 0.07800
C 	C 	0.98271 0.70550 0.21760 0.35600
C 	C 	0.07691 0.70920 0.06880 0.40600
O 	O 	0.23585 0.69509 0.31836 -0.35100
O 	O 	0.25805 0.67697 0.44163 -0.42100
H 	H 	0.23350 0.83180 0.37660 0.00100
C 	C 	0.20195 0.94286 0.32860 0.24300
C 	C 	0.13336 0.55860 0.25450 0.06100
C 	C 	0.15684 0.67098 0.71650 0.07600
C 	C 	0.21018 0.66523 0.74100 0.07100
C 	C 	0.21240 0.82146 0.76000 0.07100
C 	C 	0.18720 0.81528 0.89220 0.39200
C 	C 	0.24109 0.81760 0.63670 0.32100
H 	H 	0.02040 0.68960 0.09850 0.03700
O 	O 	0.97004 0.72674 0.27740 -0.30900
O 	O 	0.97011 0.67468 0.15687 -0.42500
O 	O 	0.10463 0.71806 0.07410 -0.44200
O 	O 	0.06123 0.69356 0.00360 -0.44600
C 	C 	0.21810 0.94120 0.26120 -0.24100
H 	H 	0.12640 0.59790 0.23210 0.03600
H 	H 	0.13980 0.67560 0.68010 0.02900
C 	C 	0.15396 0.66356 0.80110 -0.13400
C 	C 	0.20741 0.65532 0.82540 -0.11800
H 	H 	0.22900 0.66760 0.72140 0.03100
H 	H 	0.23050 0.81760 0.79170 0.03700
O 	O 	0.16419 0.80156 0.92565 -0.47500
O 	O 	0.21254 0.82338 0.93198 -0.44300
Co	Co	0.92681 0.67862 0.11157 1.15400
Co	Co	0.13309 0.75810 0.99956 1.17200
H 	H 	0.22330 0.90190 0.23810 0.13000
C 	C 	0.17936 0.65422 0.85460 0.06200
C 	C 	0.12411 0.66720 0.83480 0.34700
C 	C 	0.23459 0.64990 0.88590 0.33700
Co	Co	0.20817 0.81231 0.05171 1.16800
O 	O 	0.89906 0.65969 0.21139 -0.40100
O 	O 	0.87716 0.68016 0.08772 -0.49800
N 	N 	0.92041 0.78030 0.12770 -0.20300
O 	O 	0.10316 0.55250 0.09170 -0.25300
H 	H 	0.17750 0.64710 0.91080 0.02400
O 	O 	0.23473 0.61051 0.94370 -0.28300
O 	O 	0.25619 0.68677 0.87187 -0.44000
N 	N 	0.10104 0.81092 0.92410 -0.20300
N 	N 	0.16634 0.69947 0.05916 -0.20800
O 	O 	0.13664 0.83689 0.08371 -0.43000
N 	N 	0.19586 0.71897 0.06990 -0.23100
O 	O 	0.18267 0.87877 0.09209 -0.46400
C 	C 	0.10109 0.87170 0.90240 0.12800
C 	C 	0.16539 0.63980 0.08310 0.12200
C 	C 	0.15521 0.88020 0.10400 0.39600
C 	C 	0.21130 0.66980 0.10060 0.12600
C 	C 	0.06772 0.82380 0.82200 0.12500
N 	N 	0.08036 0.88295 0.83870 -0.17700
H 	H 	0.11370 0.90310 0.92740 -0.00800
N 	N 	0.19311 0.61851 0.11050 -0.17300
H 	H 	0.14810 0.61480 0.08170 0.00900
C 	C 	0.14543 0.94128 0.14390 -0.12700
H 	H 	0.23180 0.66990 0.11370 0.00200
H 	H 	0.05270 0.81580 0.78040 -0.00700
C 	C 	0.07348 0.94250 0.79700 0.23900
C 	C 	0.20198 0.55704 0.14700 0.25500
C 	C 	0.12792 0.94130 0.21060 0.07100
C 	C 	0.05961 0.94130 0.71860 -0.23100
C 	C 	0.22041 0.55800 0.21990 -0.28300
H 	H 	0.12120 0.90230 0.23110 0.03200
H 	H 	0.05500 0.90210 0.69210 0.09000
H 	H 	0.22680 0.59720 0.24360 0.15300
O 	O 	0.10105 0.94667 0.36090 -0.25900
Co	Co	0.57871 0.32230 0.53715 1.10700
N 	N 	0.58324 0.22017 0.55680 -0.21400
O 	O 	0.56332 0.30264 0.42024 -0.47400
O 	O 	0.62782 0.31911 0.53796 -0.50600
O 	O 	0.60575 0.34180 0.65015 -0.41800
N 	N 	0.60331 0.18771 0.51230 -0.20300
C 	C 	0.57057 0.17730 0.60030 0.11900
C 	C 	0.57878 0.28180 0.36350 0.39700
Co	Co	0.63667 0.24037 0.45512 1.17300
C 	C 	0.62914 0.33100 0.61600 0.35000
C 	C 	0.60155 0.12670 0.53070 0.12600
N 	N 	0.58072 0.11734 0.58570 -0.17500
H 	H 	0.55630 0.18670 0.63700 0.00300
O 	O 	0.60677 0.27948 0.36836 -0.44100
C 	C 	0.56199 0.25660 0.28600 -0.14700
N 	N 	0.66919 0.30079 0.41158 -0.20700
O 	O 	0.64308 0.16506 0.37464 -0.43700
O 	O 	0.66518 0.19796 0.54968 -0.46800
C 	C 	0.65867 0.33188 0.66550 -0.13600
H 	H 	0.61290 0.09400 0.50930 -0.01200
C 	C 	0.57217 0.05765 0.62170 0.23100
C 	C 	0.53142 0.24410 0.28560 0.07700
C 	C 	0.57664 0.24300 0.21670 0.08800
N 	N 	0.69884 0.28239 0.41180 -0.22200
C 	C 	0.66733 0.35980 0.38390 0.12100
C 	C 	0.66163 0.12000 0.36990 0.39400
C 	C 	0.68770 0.18320 0.59520 0.39800
C 	C 	0.65932 0.32779 0.75230 0.07400
C 	C 	0.68536 0.33155 0.62780 0.06600
C 	C 	0.55685 0.05880 0.69300 -0.24600
H 	H 	0.52150 0.25360 0.33230 0.02100
C 	C 	0.51587 0.21770 0.21600 -0.13200
C 	C 	0.56134 0.21850 0.14580 -0.14400
H 	H 	0.59710 0.25030 0.21750 0.03300
Co	Co	0.71386 0.19182 0.44757 1.16600
C 	C 	0.71315 0.33134 0.38330 0.12100
N 	N 	0.69430 0.38180 0.36490 -0.17400
H 	H 	0.64980 0.38390 0.37780 0.00600
O 	O 	0.68858 0.12111 0.39949 -0.45300
C 	C 	0.65160 0.05830 0.32780 -0.13500
O 	O 	0.71346 0.17718 0.56971 -0.44200
C 	C 	0.68470 0.17160 0.68590 -0.14000
H 	H 	0.64150 0.32830 0.77780 0.02900
C 	C 	0.68611 0.32305 0.80010 -0.14000
C 	C 	0.71223 0.32542 0.67490 -0.12400
H 	H 	0.68510 0.33550 0.57040 0.02200
H 	H 	0.55140 0.09790 0.71630 0.12300
C 	C 	0.53083 0.20600 0.14610 0.07800
C 	C 	0.48271 0.20550 0.21760 0.35600
C 	C 	0.57691 0.20920 0.06880 0.40600
O 	O 	0.73585 0.19509 0.31836 -0.35100
O 	O 	0.75805 0.17697 0.44163 -0.42200
H 	H 	0.73350 0.33180 0.37660 0.00000
C 	C 	0.70195 0.44286 0.32860 0.23500
C 	C 	0.63336 0.05860 0.25450 0.05900
C 	C 	0.65684 0.17098 0.71650 0.07600
C 	C 	0.71018 0.16523 0.74100 0.07100
C 	C 	0.71240 0.32146 0.76000 0.07100
C 	C 	0.68720 0.31528 0.89220 0.39200
C 	C 	0.74109 0.31760 0.63670 0.32100
H 	H 	0.52040 0.18960 0.09850 0.03600
O 	O 	0.47004 0.22674 0.27740 -0.31000
O 	O 	0.47011 0.17468 0.15687 -0.42600
O 	O 	0.60463 0.21806 0.07410 -0.44300
O 	O 	0.56123 0.19356 0.00360 -0.44600
C 	C 	0.71810 0.44120 0.26120 -0.25700
H 	H 	0.62640 0.09790 0.23210 0.03700
H 	H 	0.63980 0.17560 0.68010 0.02900
C 	C 	0.65396 0.16356 0.80110 -0.13500
C 	C 	0.70741 0.15532 0.82540 -0.11900
H 	H 	0.72900 0.16760 0.72140 0.03100
H 	H 	0.73050 0.31760 0.79170 0.03700
O 	O 	0.66419 0.30156 0.92565 -0.47500
O 	O 	0.71254 0.32338 0.93198 -0.44400
Co	Co	0.42681 0.17862 0.11157 1.15400
Co	Co	0.63309 0.25810 0.99956 1.17200
H 	H 	0.72330 0.40190 0.23810 0.13500
C 	C 	0.67936 0.15422 0.85460 0.06100
C 	C 	0.62411 0.16720 0.83480 0.34700
C 	C 	0.73459 0.14990 0.88590 0.33800
Co	Co	0.70817 0.31231 0.05171 1.16800
O 	O 	0.39906 0.15969 0.21139 -0.40200
O 	O 	0.37716 0.18016 0.08772 -0.49800
N 	N 	0.42041 0.28030 0.12770 -0.20300
O 	O 	0.60316 0.05250 0.09170 -0.25200
H 	H 	0.67750 0.14710 0.91080 0.02300
O 	O 	0.73473 0.11051 0.94370 -0.28400
O 	O 	0.75619 0.18677 0.87187 -0.44000
N 	N 	0.60104 0.31092 0.92410 -0.20300
N 	N 	0.66634 0.19947 0.05916 -0.20800
O 	O 	0.63664 0.33689 0.08371 -0.43100
N 	N 	0.69586 0.21897 0.06990 -0.23100
O 	O 	0.68267 0.37877 0.09209 -0.46700
C 	C 	0.60109 0.37170 0.90240 0.12700
C 	C 	0.66539 0.13980 0.08310 0.12100
C 	C 	0.65521 0.38020 0.10400 0.39900
C 	C 	0.71130 0.16980 0.10060 0.12600
C 	C 	0.56772 0.32380 0.82200 0.12500
N 	N 	0.58036 0.38295 0.83870 -0.17600
H 	H 	0.61370 0.40310 0.92740 -0.01000
N 	N 	0.69311 0.11851 0.11050 -0.17300
H 	H 	0.64810 0.11480 0.08170 0.00900
C 	C 	0.64543 0.44128 0.14390 -0.13800
H 	H 	0.73180 0.16990 0.11370 0.00200
H 	H 	0.55270 0.31580 0.78040 -0.00700
C 	C 	0.57348 0.44250 0.79700 0.23200
C 	C 	0.70198 0.05704 0.14700 0.25400
C 	C 	0.62792 0.44130 0.21060 0.06300
C 	C 	0.55961 0.44130 0.71860 -0.24700
C 	C 	0.72041 0.05800 0.21990 -0.27600
H 	H 	0.62120 0.40230 0.23110 0.03400
H 	H 	0.55500 0.40210 0.69210 0.09400
H 	H 	0.72680 0.09720 0.24360 0.15100
O 	O 	0.60105 0.44667 0.36090 -0.26900
C 	C 	0.07927 0.50000 0.58540 -0.28500
C 	C 	0.04990 0.50000 0.72830 0.16200
H 	H 	0.08880 0.50000 0.53660 0.14000
C 	C 	0.16217 0.50000 0.36000 0.08000
H 	H 	0.04030 0.50000 0.77700 -0.02900
C 	C 	0.12503 0.50000 0.21290 -0.10700
H 	H 	0.17670 0.50000 0.40440 0.02700
C 	C 	0.10930 0.50000 0.12620 0.32200
C 	C 	0.19281 0.50000 0.10950 -0.30000
C 	C 	0.22915 0.50000 0.25720 0.21000
H 	H 	0.18070 0.50000 0.06000 0.15600
H 	H 	0.24090 0.50000 0.30730 -0.03200
C 	C 	0.57927 0.00000 0.58540 -0.29800
C 	C 	0.54990 0.00000 0.72830 0.14200
H 	H 	0.58880 -0.00000 0.53660 0.14100
C 	C 	0.66217 0.00000 0.36000 0.06200
H 	H 	0.54030 -0.00000 0.77700 -0.02600
C 	C 	0.62503 0.00000 0.21290 -0.11400
H 	H 	0.67670 -0.00000 0.40440 0.03000
C 	C 	0.60930 -0.00000 0.12620 0.31000
C 	C 	0.69281 0.00000 0.10950 -0.31200
C 	C 	0.72915 0.00000 0.25720 0.18900
H 	H 	0.68070 0.00000 0.06000 0.15700
H 	H 	0.74090 0.00000 0.30730 -0.02800
C 	C 	0.92073 0.50000 0.41460 -0.28500
C 	C 	0.95010 0.50000 0.27170 0.16200
H 	H 	0.91120 0.50000 0.46340 0.14000
C 	C 	0.83783 0.50000 0.64000 0.08000
H 	H 	0.95970 0.50000 0.22300 -0.02900
C 	C 	0.87497 0.50000 0.78710 -0.10700
H 	H 	0.82330 0.50000 0.59560 0.02700
C 	C 	0.89070 0.50000 0.87380 0.32200
C 	C 	0.80719 0.50000 0.89050 -0.30000
C 	C 	0.77085 0.50000 0.74280 0.21000
H 	H 	0.81930 0.50000 0.94000 0.15600
H 	H 	0.75910 0.50000 0.69270 -0.03200
C 	C 	0.42073 0.00000 0.41460 -0.29800
C 	C 	0.45010 -0.00000 0.27170 0.14200
H 	H 	0.41120 0.00000 0.46340 0.14100
C 	C 	0.33783 0.00000 0.64000 0.06200
H 	H 	0.45970 0.00000 0.22300 -0.02600
C 	C 	0.37497 0.00000 0.78710 -0.11400
H 	H 	0.32330 0.00000 0.59560 0.03000
C 	C 	0.39070 -0.00000 0.87380 0.31000
C 	C 	0.30719 0.00000 0.89050 -0.31200
C 	C 	0.27085 0.00000 0.74280 0.18900
H 	H 	0.31930 -0.00000 0.94000 0.15700
H 	H 	0.25910 0.00000 0.69270 -0.02800
C 	C 	0.19312 -0.00000 0.36350 -0.29900
C 	C 	0.22664 0.00000 0.22750 0.15400
H 	H 	0.18170 0.00000 0.40880 0.14600
H 	H 	0.23810 0.00000 0.18230 -0.00800
C 	C 	0.15529 -0.00000 0.11470 0.06200
C 	C 	0.07994 0.00000 0.83770 -0.29900
C 	C 	0.12040 0.00000 0.24700 -0.11600
H 	H 	0.16890 0.00000 0.07450 0.02900
C 	C 	0.05245 0.00000 0.67900 0.12400
H 	H 	0.08850 0.00000 0.89210 0.14100
C 	C 	0.10588 0.00000 0.32920 0.31300
H 	H 	0.04280 0.00000 0.62590 -0.04800
C 	C 	0.69312 0.50000 0.36350 -0.28600
C 	C 	0.72664 0.50000 0.22750 0.17300
H 	H 	0.68170 0.50000 0.40880 0.14500
H 	H 	0.73810 0.50000 0.18230 -0.01100
C 	C 	0.65529 0.50000 0.11470 0.07900
C 	C 	0.57994 0.50000 0.83770 -0.28600
C 	C 	0.62040 0.50000 0.24700 -0.10800
H 	H 	0.66890 0.50000 0.07450 0.02700
C 	C 	0.55245 0.50000 0.67900 0.14300
H 	H 	0.58850 0.50000 0.89210 0.14000
C 	C 	0.60588 0.50000 0.32920 0.32500
H 	H 	0.54280 0.50000 0.62590 -0.05100
C 	C 	0.80688 -0.00000 0.63650 -0.29900
C 	C 	0.77336 0.00000 0.77250 0.15400
H 	H 	0.81830 0.00000 0.59120 0.14600
H 	H 	0.76190 -0.00000 0.81770 -0.00800
C 	C 	0.84471 0.00000 0.88530 0.06200
C 	C 	0.92006 -0.00000 0.16230 -0.29900
C 	C 	0.87960 0.00000 0.75300 -0.11600
H 	H 	0.83110 -0.00000 0.92550 0.02900
C 	C 	0.94755 -0.00000 0.32100 0.12400
H 	H 	0.91150 -0.00000 0.10790 0.14100
C 	C 	0.89412 0.00000 0.67080 0.31300
H 	H 	0.95720 0.00000 0.37410 -0.04800
C 	C 	0.30688 0.50000 0.63650 -0.28600
C 	C 	0.27336 0.50000 0.77250 0.17300
H 	H 	0.31830 0.50000 0.59120 0.14500
H 	H 	0.26190 0.50000 0.81770 -0.01100
C 	C 	0.34471 0.50000 0.88530 0.07900
C 	C 	0.42006 0.50000 0.16230 -0.28600
C 	C 	0.37960 0.50000 0.75300 -0.10800
H 	H 	0.33110 0.50000 0.92550 0.02700
C 	C 	0.44755 0.50000 0.32100 0.14300
H 	H 	0.41150 0.50000 0.10790 0.14000
C 	C 	0.39412 0.50000 0.67080 0.32500
H 	H 	0.45720 0.50000 0.37410 -0.05100
