data_crystal

_cell_length_a 38.35130
_cell_length_b 38.35130
_cell_length_c 38.35130
_cell_angle_alpha 90.00000
_cell_angle_beta  90.00000
_cell_angle_gamma 90.00000

_symmetry_space_group_name_	'P 1'
_symmetry_space_group_name_H-M	'P 1'

loop_
_symmetry_equiv_pos_as_xyz
  x,y,z

loop_
_atom_site_label
_atom_site_type_symbol
_atom_site_fract_x
_atom_site_fract_y
_atom_site_fract_z
_atom_site_charge
Sm	Sm	0.25693 0.08890 0.24333 2.09500
O 	O 	0.34240 0.03846 0.21930 -0.53200
O 	O 	0.31849 0.08729 0.23780 -0.54600
O 	O 	0.38257 0.19982 0.23898 -0.46400
O 	O 	0.43899 0.19990 0.23280 -0.42300
O 	O 	0.20050 0.06107 0.25120 -0.44500
O 	O 	0.20025 0.11683 0.24350 -0.47900
O 	O 	0.08739 0.18207 0.25522 -0.57900
O 	O 	0.05370 0.16060 0.29620 -0.58800
O 	O 	0.26763 0.02831 0.23015 -0.69500
C 	C 	0.34390 0.07071 0.22634 0.48400
C 	C 	0.37640 0.09190 0.22010 -0.05600
C 	C 	0.37640 0.12670 0.23000 0.01800
H 	H 	0.35660 0.13650 0.24010 0.01400
C 	C 	0.40590 0.14710 0.22470 -0.02000
C 	C 	0.43540 0.13250 0.20960 -0.01400
H 	H 	0.45520 0.14610 0.20600 0.02800
C 	C 	0.43540 0.09770 0.19970 -0.01200
C 	C 	0.40590 0.07730 0.20500 -0.02500
H 	H 	0.40590 0.05400 0.19840 -0.05200
C 	C 	0.41070 0.18419 0.23271 0.32400
C 	C 	0.46860 0.08570 0.18360 0.06300
C 	C 	0.46857 0.06200 0.15590 -0.06900
H 	H 	0.44750 0.05410 0.14680 0.05100
C 	C 	0.18474 0.08946 0.25104 0.35900
C 	C 	0.14685 0.09121 0.26000 -0.13000
C 	C 	0.12791 0.12210 0.25940 0.09300
H 	H 	0.13760 0.14210 0.24970 0.00200
C 	C 	0.09442 0.12313 0.27320 -0.20400
C 	C 	0.07987 0.09326 0.28770 0.06000
H 	H 	0.05750 0.09390 0.29690 0.02000
C 	C 	0.09880 0.06237 0.28830 -0.06600
C 	C 	0.13230 0.06134 0.27450 0.02700
H 	H 	0.14500 0.04070 0.27500 0.04600
C 	C 	0.07747 0.15810 0.27460 0.54100
C 	C 	0.08170 0.03123 0.30290 0.11200
C 	C 	0.05690 0.03153 0.32940 -0.15600
H 	H 	0.04870 0.05260 0.33820 0.09000
C 	C 	0.37700 0.09230 0.22294 -0.06500
C 	C 	0.37920 0.12790 0.22915 0.00200
H 	H 	0.35940 0.14030 0.23590 0.01000
C 	C 	0.41080 0.14510 0.22525 -0.05000
C 	C 	0.44030 0.12660 0.21510 -0.00300
H 	H 	0.46150 0.13810 0.21250 0.03200
C 	C 	0.43820 0.09100 0.20890 -0.00600
C 	C 	0.40650 0.07380 0.21283 0.02700
H 	H 	0.40500 0.05000 0.20870 0.08600
C 	C 	0.46861 0.07070 0.19820 0.01400
C 	C 	0.46857 0.04200 0.17610 -0.05500
H 	H 	0.44750 0.03240 0.16870 0.04500
Sm	Sm	0.75693 0.58890 0.74333 2.09700
O 	O 	0.84240 0.53846 0.71930 -0.53300
O 	O 	0.81849 0.58729 0.73780 -0.54700
O 	O 	0.88257 0.69982 0.73898 -0.46400
O 	O 	0.93899 0.69990 0.73280 -0.42100
O 	O 	0.70050 0.56107 0.75120 -0.44300
O 	O 	0.70025 0.61683 0.74350 -0.47900
O 	O 	0.58739 0.68207 0.75522 -0.57900
O 	O 	0.55370 0.66060 0.79620 -0.59000
O 	O 	0.76763 0.52831 0.73015 -0.69900
C 	C 	0.84390 0.57071 0.72634 0.48500
C 	C 	0.87640 0.59190 0.72010 -0.05600
C 	C 	0.87640 0.62670 0.73000 0.01800
H 	H 	0.85660 0.63650 0.74010 0.01400
C 	C 	0.90590 0.64710 0.72470 -0.01900
C 	C 	0.93540 0.63250 0.70960 -0.01500
H 	H 	0.95520 0.64610 0.70600 0.02600
C 	C 	0.93540 0.59770 0.69970 -0.01600
C 	C 	0.90590 0.57730 0.70500 -0.02800
H 	H 	0.90590 0.55400 0.69840 -0.05900
C 	C 	0.91070 0.68419 0.73271 0.32400
C 	C 	0.96860 0.58570 0.68360 0.04900
C 	C 	0.96857 0.56200 0.65590 -0.05000
H 	H 	0.94750 0.55410 0.64680 0.04600
C 	C 	0.68474 0.58946 0.75104 0.35900
C 	C 	0.64685 0.59121 0.76000 -0.12900
C 	C 	0.62791 0.62210 0.75940 0.09400
H 	H 	0.63760 0.64210 0.74970 0.00200
C 	C 	0.59442 0.62313 0.77320 -0.20400
C 	C 	0.57987 0.59326 0.78770 0.06100
H 	H 	0.55750 0.59390 0.79690 0.02100
C 	C 	0.59880 0.56237 0.78830 -0.06700
C 	C 	0.63230 0.56134 0.77450 0.02700
H 	H 	0.64500 0.54070 0.77500 0.04700
C 	C 	0.57747 0.65810 0.77460 0.54300
C 	C 	0.58170 0.53123 0.80290 0.11700
C 	C 	0.55690 0.53153 0.82940 -0.16300
H 	H 	0.54870 0.55260 0.83820 0.09500
C 	C 	0.87700 0.59230 0.72294 -0.06300
C 	C 	0.87920 0.62790 0.72915 0.00300
H 	H 	0.85940 0.64030 0.73590 0.01100
C 	C 	0.91080 0.64510 0.72525 -0.04900
C 	C 	0.94030 0.62660 0.71510 -0.00000
H 	H 	0.96150 0.63810 0.71250 0.03700
C 	C 	0.93820 0.59100 0.70890 -0.00000
C 	C 	0.90650 0.57380 0.71283 0.03100
H 	H 	0.90500 0.55000 0.70870 0.09500
C 	C 	0.96861 0.57070 0.69820 0.03100
C 	C 	0.96857 0.54200 0.67610 -0.05100
H 	H 	0.94750 0.53240 0.66870 0.04800
Sm	Sm	0.74307 0.91110 0.24333 2.09700
O 	O 	0.65760 0.96154 0.21930 -0.52500
O 	O 	0.68151 0.91271 0.23780 -0.54500
O 	O 	0.61743 0.80018 0.23898 -0.46300
O 	O 	0.56101 0.80010 0.23280 -0.42200
O 	O 	0.79950 0.93893 0.25120 -0.44000
O 	O 	0.79975 0.88317 0.24350 -0.47800
O 	O 	0.91261 0.81793 0.25522 -0.57700
O 	O 	0.94630 0.83940 0.29620 -0.58300
O 	O 	0.73237 0.97169 0.23015 -0.68600
C 	C 	0.65610 0.92929 0.22634 0.48400
C 	C 	0.62360 0.90810 0.22010 -0.05500
C 	C 	0.62360 0.87330 0.23000 0.01900
H 	H 	0.64340 0.86350 0.24010 0.01500
C 	C 	0.59410 0.85290 0.22470 -0.01900
C 	C 	0.56460 0.86750 0.20960 -0.01300
H 	H 	0.54480 0.85390 0.20600 0.03000
C 	C 	0.56460 0.90230 0.19970 -0.01900
C 	C 	0.59410 0.92270 0.20500 -0.02700
H 	H 	0.59410 0.94600 0.19840 -0.05300
C 	C 	0.58930 0.81581 0.23271 0.32600
C 	C 	0.53140 0.91430 0.18360 0.03200
C 	C 	0.53143 0.93800 0.15590 -0.04600
H 	H 	0.55250 0.94590 0.14680 0.04600
C 	C 	0.81526 0.91054 0.25104 0.35900
C 	C 	0.85315 0.90879 0.26000 -0.12500
C 	C 	0.87209 0.87790 0.25940 0.09300
H 	H 	0.86240 0.85790 0.24970 0.00400
C 	C 	0.90558 0.87687 0.27320 -0.19900
C 	C 	0.92013 0.90674 0.28770 0.06000
H 	H 	0.94250 0.90610 0.29690 0.02500
C 	C 	0.90120 0.93763 0.28830 -0.06200
C 	C 	0.86770 0.93866 0.27450 0.02700
H 	H 	0.85500 0.95930 0.27500 0.05100
C 	C 	0.92253 0.84190 0.27460 0.54100
C 	C 	0.91830 0.96877 0.30290 0.12000
C 	C 	0.94310 0.96847 0.32940 -0.14400
H 	H 	0.95130 0.94740 0.33820 0.09200
C 	C 	0.62300 0.90770 0.22294 -0.06300
C 	C 	0.62080 0.87210 0.22915 0.00300
H 	H 	0.64060 0.85970 0.23590 0.01100
C 	C 	0.58920 0.85490 0.22525 -0.04900
C 	C 	0.55970 0.87340 0.21510 -0.00100
H 	H 	0.53850 0.86190 0.21250 0.03100
C 	C 	0.56180 0.90900 0.20890 0.00500
C 	C 	0.59350 0.92620 0.21283 0.02900
H 	H 	0.59500 0.95000 0.20870 0.09200
C 	C 	0.53139 0.92930 0.19820 0.04400
C 	C 	0.53143 0.95800 0.17610 -0.06100
H 	H 	0.55250 0.96760 0.16870 0.05200
Sm	Sm	0.24307 0.41110 0.74333 2.09800
O 	O 	0.15760 0.46154 0.71930 -0.53200
O 	O 	0.18151 0.41271 0.73780 -0.54600
O 	O 	0.11743 0.30018 0.73898 -0.46300
O 	O 	0.06101 0.30010 0.73280 -0.42300
O 	O 	0.29950 0.43893 0.75120 -0.44200
O 	O 	0.29975 0.38317 0.74350 -0.47800
O 	O 	0.41261 0.31793 0.75522 -0.57800
O 	O 	0.44630 0.33940 0.79620 -0.58900
O 	O 	0.23237 0.47169 0.73015 -0.69800
C 	C 	0.15610 0.42929 0.72634 0.48600
C 	C 	0.12360 0.40810 0.72010 -0.05500
C 	C 	0.12360 0.37330 0.73000 0.01900
H 	H 	0.14340 0.36350 0.74010 0.01500
C 	C 	0.09410 0.35290 0.72470 -0.01900
C 	C 	0.06460 0.36750 0.70960 -0.01300
H 	H 	0.04480 0.35390 0.70600 0.03100
C 	C 	0.06460 0.40230 0.69970 -0.01500
C 	C 	0.09410 0.42270 0.70500 -0.02600
H 	H 	0.09410 0.44600 0.69840 -0.05100
C 	C 	0.08930 0.31581 0.73271 0.32600
C 	C 	0.03140 0.41430 0.68360 0.04700
C 	C 	0.03143 0.43800 0.65590 -0.05500
H 	H 	0.05250 0.44590 0.64680 0.04800
C 	C 	0.31526 0.41054 0.75104 0.36000
C 	C 	0.35315 0.40879 0.76000 -0.12800
C 	C 	0.37209 0.37790 0.75940 0.09500
H 	H 	0.36240 0.35790 0.74970 0.00300
C 	C 	0.40558 0.37687 0.77320 -0.20300
C 	C 	0.42013 0.40674 0.78770 0.06200
H 	H 	0.44250 0.40610 0.79690 0.02200
C 	C 	0.40120 0.43763 0.78830 -0.06600
C 	C 	0.36770 0.43866 0.77450 0.02800
H 	H 	0.35500 0.45930 0.77500 0.04800
C 	C 	0.42253 0.34190 0.77460 0.54400
C 	C 	0.41830 0.46877 0.80290 0.11800
C 	C 	0.44310 0.46847 0.82940 -0.16200
H 	H 	0.45130 0.44740 0.83820 0.09500
C 	C 	0.12300 0.40770 0.72294 -0.06300
C 	C 	0.12080 0.37210 0.72915 0.00300
H 	H 	0.14060 0.35970 0.73590 0.01100
C 	C 	0.08920 0.35490 0.72525 -0.04900
C 	C 	0.05970 0.37340 0.71510 -0.00200
H 	H 	0.03850 0.36190 0.71250 0.03000
C 	C 	0.06180 0.40900 0.70890 -0.00000
C 	C 	0.09350 0.42620 0.71283 0.02800
H 	H 	0.09500 0.45000 0.70870 0.08800
C 	C 	0.03139 0.42930 0.69820 0.02800
C 	C 	0.03143 0.45800 0.67610 -0.05600
H 	H 	0.05250 0.46760 0.66870 0.04800
Sm	Sm	0.74307 0.08890 0.75667 2.09600
O 	O 	0.65760 0.03846 0.78070 -0.53100
O 	O 	0.68151 0.08729 0.76220 -0.54500
O 	O 	0.61743 0.19982 0.76102 -0.46300
O 	O 	0.56101 0.19990 0.76720 -0.42200
O 	O 	0.79950 0.06107 0.74880 -0.44300
O 	O 	0.79975 0.11683 0.75650 -0.47800
O 	O 	0.91261 0.18207 0.74478 -0.57700
O 	O 	0.94630 0.16060 0.70380 -0.58300
O 	O 	0.73237 0.02831 0.76985 -0.69400
C 	C 	0.65610 0.07071 0.77366 0.48500
C 	C 	0.62360 0.09190 0.77990 -0.05500
C 	C 	0.62360 0.12670 0.77000 0.01900
H 	H 	0.64340 0.13650 0.75990 0.01500
C 	C 	0.59410 0.14710 0.77530 -0.01900
C 	C 	0.56460 0.13250 0.79040 -0.01300
H 	H 	0.54480 0.14610 0.79400 0.03000
C 	C 	0.56460 0.09770 0.80030 -0.01100
C 	C 	0.59410 0.07730 0.79500 -0.02400
H 	H 	0.59410 0.05400 0.80160 -0.04900
C 	C 	0.58930 0.18419 0.76729 0.32500
C 	C 	0.53140 0.08570 0.81640 0.06500
C 	C 	0.53143 0.06200 0.84410 -0.06700
H 	H 	0.55250 0.05410 0.85320 0.05200
C 	C 	0.81526 0.08946 0.74896 0.36000
C 	C 	0.85315 0.09121 0.74000 -0.12700
C 	C 	0.87209 0.12210 0.74060 0.09300
H 	H 	0.86240 0.14210 0.75030 0.00400
C 	C 	0.90558 0.12313 0.72680 -0.20000
C 	C 	0.92013 0.09326 0.71230 0.06000
H 	H 	0.94250 0.09390 0.70310 0.02400
C 	C 	0.90120 0.06237 0.71170 -0.06300
C 	C 	0.86770 0.06134 0.72550 0.02700
H 	H 	0.85500 0.04070 0.72500 0.04700
C 	C 	0.92253 0.15810 0.72540 0.54200
C 	C 	0.91830 0.03123 0.69710 0.11300
C 	C 	0.94310 0.03153 0.67060 -0.15300
H 	H 	0.95130 0.05260 0.66180 0.09300
C 	C 	0.62300 0.09230 0.77706 -0.06400
C 	C 	0.62080 0.12790 0.77085 0.00300
H 	H 	0.64060 0.14030 0.76410 0.01100
C 	C 	0.58920 0.14510 0.77475 -0.04900
C 	C 	0.55970 0.12660 0.78490 -0.00200
H 	H 	0.53850 0.13810 0.78750 0.03200
C 	C 	0.56180 0.09100 0.79110 -0.00500
C 	C 	0.59350 0.07380 0.78717 0.02700
H 	H 	0.59500 0.05000 0.79130 0.08600
C 	C 	0.53139 0.07070 0.80180 0.01400
C 	C 	0.53143 0.04200 0.82390 -0.05500
H 	H 	0.55250 0.03240 0.83130 0.04700
Sm	Sm	0.24307 0.58890 0.25667 2.09800
O 	O 	0.15760 0.53846 0.28070 -0.53200
O 	O 	0.18151 0.58729 0.26220 -0.54600
O 	O 	0.11743 0.69982 0.26102 -0.46300
O 	O 	0.06101 0.69990 0.26720 -0.42300
O 	O 	0.29950 0.56107 0.24880 -0.44200
O 	O 	0.29975 0.61683 0.25650 -0.47800
O 	O 	0.41261 0.68207 0.24478 -0.57800
O 	O 	0.44630 0.66060 0.20380 -0.58900
O 	O 	0.23237 0.52831 0.26985 -0.69800
C 	C 	0.15610 0.57071 0.27366 0.48600
C 	C 	0.12360 0.59190 0.27990 -0.05500
C 	C 	0.12360 0.62670 0.27000 0.01900
H 	H 	0.14340 0.63650 0.25990 0.01500
C 	C 	0.09410 0.64710 0.27530 -0.01900
C 	C 	0.06460 0.63250 0.29040 -0.01300
H 	H 	0.04480 0.64610 0.29400 0.03100
C 	C 	0.06460 0.59770 0.30030 -0.01500
C 	C 	0.09410 0.57730 0.29500 -0.02500
H 	H 	0.09410 0.55400 0.30160 -0.05000
C 	C 	0.08930 0.68419 0.26729 0.32600
C 	C 	0.03140 0.58570 0.31640 0.04700
C 	C 	0.03143 0.56200 0.34410 -0.05500
H 	H 	0.05250 0.55410 0.35320 0.04800
C 	C 	0.31526 0.58946 0.24896 0.36000
C 	C 	0.35315 0.59121 0.24000 -0.12800
C 	C 	0.37209 0.62210 0.24060 0.09500
H 	H 	0.36240 0.64210 0.25030 0.00300
C 	C 	0.40558 0.62313 0.22680 -0.20300
C 	C 	0.42013 0.59326 0.21230 0.06200
H 	H 	0.44250 0.59390 0.20310 0.02200
C 	C 	0.40120 0.56237 0.21170 -0.06600
C 	C 	0.36770 0.56134 0.22550 0.02800
H 	H 	0.35500 0.54070 0.22500 0.04800
C 	C 	0.42253 0.65810 0.22540 0.54400
C 	C 	0.41830 0.53123 0.19710 0.11800
C 	C 	0.44310 0.53153 0.17060 -0.16200
H 	H 	0.45130 0.55260 0.16180 0.09500
C 	C 	0.12300 0.59230 0.27706 -0.06300
C 	C 	0.12080 0.62790 0.27085 0.00300
H 	H 	0.14060 0.64030 0.26410 0.01100
C 	C 	0.08920 0.64510 0.27475 -0.04900
C 	C 	0.05970 0.62660 0.28490 -0.00200
H 	H 	0.03850 0.63810 0.28750 0.03000
C 	C 	0.06180 0.59100 0.29110 -0.00000
C 	C 	0.09350 0.57380 0.28717 0.02800
H 	H 	0.09500 0.55000 0.29130 0.08700
C 	C 	0.03139 0.57070 0.30180 0.02800
C 	C 	0.03143 0.54200 0.32390 -0.05600
H 	H 	0.05250 0.53240 0.33130 0.04800
Sm	Sm	0.25693 0.91110 0.75667 2.09800
O 	O 	0.34240 0.96154 0.78070 -0.52500
O 	O 	0.31849 0.91271 0.76220 -0.54500
O 	O 	0.38257 0.80018 0.76102 -0.46300
O 	O 	0.43899 0.80010 0.76720 -0.42200
O 	O 	0.20050 0.93893 0.74880 -0.44000
O 	O 	0.20025 0.88317 0.75650 -0.47800
O 	O 	0.08739 0.81793 0.74478 -0.57800
O 	O 	0.05370 0.83940 0.70380 -0.58700
O 	O 	0.26763 0.97169 0.76985 -0.68600
C 	C 	0.34390 0.92929 0.77366 0.48500
C 	C 	0.37640 0.90810 0.77990 -0.05500
C 	C 	0.37640 0.87330 0.77000 0.01900
H 	H 	0.35660 0.86350 0.75990 0.01500
C 	C 	0.40590 0.85290 0.77530 -0.01900
C 	C 	0.43540 0.86750 0.79040 -0.01300
H 	H 	0.45520 0.85390 0.79400 0.03100
C 	C 	0.43540 0.90230 0.80030 -0.01900
C 	C 	0.40590 0.92270 0.79500 -0.02700
H 	H 	0.40590 0.94600 0.80160 -0.05200
C 	C 	0.41070 0.81581 0.76729 0.32600
C 	C 	0.46860 0.91430 0.81640 0.03200
C 	C 	0.46857 0.93800 0.84410 -0.04600
H 	H 	0.44750 0.94590 0.85320 0.04600
C 	C 	0.18474 0.91054 0.74896 0.35900
C 	C 	0.14685 0.90879 0.74000 -0.12600
C 	C 	0.12791 0.87790 0.74060 0.09400
H 	H 	0.13760 0.85790 0.75030 0.00400
C 	C 	0.09442 0.87687 0.72680 -0.20100
C 	C 	0.07987 0.90674 0.71230 0.06100
H 	H 	0.05750 0.90610 0.70310 0.02200
C 	C 	0.09880 0.93763 0.71170 -0.06400
C 	C 	0.13230 0.93866 0.72550 0.02700
H 	H 	0.14500 0.95930 0.72500 0.05100
C 	C 	0.07747 0.84190 0.72540 0.54200
C 	C 	0.08170 0.96877 0.69710 0.11900
C 	C 	0.05690 0.96847 0.67060 -0.14600
H 	H 	0.04870 0.94740 0.66180 0.09000
C 	C 	0.37700 0.90770 0.77706 -0.06300
C 	C 	0.37920 0.87210 0.77085 0.00300
H 	H 	0.35940 0.85970 0.76410 0.01100
C 	C 	0.41080 0.85490 0.77475 -0.04900
C 	C 	0.44030 0.87340 0.78490 -0.00100
H 	H 	0.46150 0.86190 0.78750 0.03100
C 	C 	0.43820 0.90900 0.79110 0.00500
C 	C 	0.40650 0.92620 0.78717 0.02900
H 	H 	0.40500 0.95000 0.79130 0.09000
C 	C 	0.46861 0.92930 0.80180 0.04400
C 	C 	0.46857 0.95800 0.82390 -0.06200
H 	H 	0.44750 0.96760 0.83130 0.05200
Sm	Sm	0.75693 0.41110 0.25667 2.09800
O 	O 	0.84240 0.46154 0.28070 -0.53200
O 	O 	0.81849 0.41271 0.26220 -0.54600
O 	O 	0.88257 0.30018 0.26102 -0.46300
O 	O 	0.93899 0.30010 0.26720 -0.42000
O 	O 	0.70050 0.43893 0.24880 -0.44200
O 	O 	0.70025 0.38317 0.25650 -0.47800
O 	O 	0.58739 0.31793 0.24478 -0.57800
O 	O 	0.55370 0.33940 0.20380 -0.58900
O 	O 	0.76763 0.47169 0.26985 -0.69800
C 	C 	0.84390 0.42929 0.27366 0.48600
C 	C 	0.87640 0.40810 0.27990 -0.05500
C 	C 	0.87640 0.37330 0.27000 0.01900
H 	H 	0.85660 0.36350 0.25990 0.01500
C 	C 	0.90590 0.35290 0.27530 -0.01800
C 	C 	0.93540 0.36750 0.29040 -0.01400
H 	H 	0.95520 0.35390 0.29400 0.02800
C 	C 	0.93540 0.40230 0.30030 -0.01500
C 	C 	0.90590 0.42270 0.29500 -0.02700
H 	H 	0.90590 0.44600 0.30160 -0.05700
C 	C 	0.91070 0.31581 0.26729 0.32500
C 	C 	0.96860 0.41430 0.31640 0.05100
C 	C 	0.96857 0.43800 0.34410 -0.04900
H 	H 	0.94750 0.44590 0.35320 0.04700
C 	C 	0.68474 0.41054 0.24896 0.36000
C 	C 	0.64685 0.40879 0.24000 -0.12800
C 	C 	0.62791 0.37790 0.24060 0.09500
H 	H 	0.63760 0.35790 0.25030 0.00300
C 	C 	0.59442 0.37687 0.22680 -0.20300
C 	C 	0.57987 0.40674 0.21230 0.06200
H 	H 	0.55750 0.40610 0.20310 0.02200
C 	C 	0.59880 0.43763 0.21170 -0.06600
C 	C 	0.63230 0.43866 0.22550 0.02800
H 	H 	0.64500 0.45930 0.22500 0.04800
C 	C 	0.57747 0.34190 0.22540 0.54400
C 	C 	0.58170 0.46877 0.19710 0.11800
C 	C 	0.55690 0.46847 0.17060 -0.16200
H 	H 	0.54870 0.44740 0.16180 0.09500
C 	C 	0.87700 0.40770 0.27706 -0.06300
C 	C 	0.87920 0.37210 0.27085 0.00300
H 	H 	0.85940 0.35970 0.26410 0.01100
C 	C 	0.91080 0.35490 0.27475 -0.04900
C 	C 	0.94030 0.37340 0.28490 -0.00000
H 	H 	0.96150 0.36190 0.28750 0.03700
C 	C 	0.93820 0.40900 0.29110 -0.00000
C 	C 	0.90650 0.42620 0.28717 0.03000
H 	H 	0.90500 0.45000 0.29130 0.09400
C 	C 	0.96861 0.42930 0.30180 0.03100
C 	C 	0.96857 0.45800 0.32390 -0.05100
H 	H 	0.94750 0.46760 0.33130 0.04800
Sm	Sm	0.24333 0.25693 0.08890 2.09600
O 	O 	0.21930 0.34240 0.03846 -0.53100
O 	O 	0.23780 0.31849 0.08729 -0.54500
O 	O 	0.23898 0.38257 0.19982 -0.46300
O 	O 	0.23280 0.43899 0.19990 -0.42200
O 	O 	0.25120 0.20050 0.06107 -0.44400
O 	O 	0.24350 0.20025 0.11683 -0.47800
O 	O 	0.25522 0.08739 0.18207 -0.57800
O 	O 	0.29620 0.05370 0.16060 -0.58700
O 	O 	0.23015 0.26763 0.02831 -0.69400
C 	C 	0.22634 0.34390 0.07071 0.48500
C 	C 	0.22010 0.37640 0.09190 -0.05500
C 	C 	0.23000 0.37640 0.12670 0.01900
H 	H 	0.24010 0.35660 0.13650 0.01500
C 	C 	0.22470 0.40590 0.14710 -0.01900
C 	C 	0.20960 0.43540 0.13250 -0.01300
H 	H 	0.20600 0.45520 0.14610 0.02900
C 	C 	0.19970 0.43540 0.09770 -0.01100
C 	C 	0.20500 0.40590 0.07730 -0.02400
H 	H 	0.19840 0.40590 0.05400 -0.05100
C 	C 	0.23271 0.41070 0.18419 0.32500
C 	C 	0.18360 0.46860 0.08570 0.06400
C 	C 	0.15590 0.46857 0.06200 -0.06800
H 	H 	0.14680 0.44750 0.05410 0.05200
C 	C 	0.25104 0.18474 0.08946 0.36000
C 	C 	0.26000 0.14685 0.09121 -0.12900
C 	C 	0.25940 0.12791 0.12210 0.09400
H 	H 	0.24970 0.13760 0.14210 0.00300
C 	C 	0.27320 0.09442 0.12313 -0.20300
C 	C 	0.28770 0.07987 0.09326 0.06100
H 	H 	0.29690 0.05750 0.09390 0.02100
C 	C 	0.28830 0.09880 0.06237 -0.06500
C 	C 	0.27450 0.13230 0.06134 0.02800
H 	H 	0.27500 0.14500 0.04070 0.04700
C 	C 	0.27460 0.07747 0.15810 0.54200
C 	C 	0.30290 0.08170 0.03123 0.11300
C 	C 	0.32940 0.05690 0.03153 -0.15500
H 	H 	0.33820 0.04870 0.05260 0.09100
C 	C 	0.22294 0.37700 0.09230 -0.06400
C 	C 	0.22915 0.37920 0.12790 0.00300
H 	H 	0.23590 0.35940 0.14030 0.01100
C 	C 	0.22525 0.41080 0.14510 -0.04900
C 	C 	0.21510 0.44030 0.12660 -0.00200
H 	H 	0.21250 0.46150 0.13810 0.03300
C 	C 	0.20890 0.43820 0.09100 -0.00500
C 	C 	0.21283 0.40650 0.07380 0.02800
H 	H 	0.20870 0.40500 0.05000 0.08700
C 	C 	0.19820 0.46861 0.07070 0.01500
C 	C 	0.17610 0.46857 0.04200 -0.05400
H 	H 	0.16870 0.44750 0.03240 0.04600
Sm	Sm	0.74333 0.75693 0.58890 2.09800
O 	O 	0.71930 0.84240 0.53846 -0.53200
O 	O 	0.73780 0.81849 0.58729 -0.54600
O 	O 	0.73898 0.88257 0.69982 -0.46300
O 	O 	0.73280 0.93899 0.69990 -0.42000
O 	O 	0.75120 0.70050 0.56107 -0.44200
O 	O 	0.74350 0.70025 0.61683 -0.47800
O 	O 	0.75522 0.58739 0.68207 -0.57800
O 	O 	0.79620 0.55370 0.66060 -0.58900
O 	O 	0.73015 0.76763 0.52831 -0.69800
C 	C 	0.72634 0.84390 0.57071 0.48600
C 	C 	0.72010 0.87640 0.59190 -0.05500
C 	C 	0.73000 0.87640 0.62670 0.01900
H 	H 	0.74010 0.85660 0.63650 0.01500
C 	C 	0.72470 0.90590 0.64710 -0.01800
C 	C 	0.70960 0.93540 0.63250 -0.01400
H 	H 	0.70600 0.95520 0.64610 0.02700
C 	C 	0.69970 0.93540 0.59770 -0.01500
C 	C 	0.70500 0.90590 0.57730 -0.02700
H 	H 	0.69840 0.90590 0.55400 -0.05800
C 	C 	0.73271 0.91070 0.68419 0.32500
C 	C 	0.68360 0.96860 0.58570 0.05000
C 	C 	0.65590 0.96857 0.56200 -0.04900
H 	H 	0.64680 0.94750 0.55410 0.04700
C 	C 	0.75104 0.68474 0.58946 0.36000
C 	C 	0.76000 0.64685 0.59121 -0.12800
C 	C 	0.75940 0.62791 0.62210 0.09500
H 	H 	0.74970 0.63760 0.64210 0.00300
C 	C 	0.77320 0.59442 0.62313 -0.20300
C 	C 	0.78770 0.57987 0.59326 0.06200
H 	H 	0.79690 0.55750 0.59390 0.02200
C 	C 	0.78830 0.59880 0.56237 -0.06600
C 	C 	0.77450 0.63230 0.56134 0.02800
H 	H 	0.77500 0.64500 0.54070 0.04800
C 	C 	0.77460 0.57747 0.65810 0.54400
C 	C 	0.80290 0.58170 0.53123 0.11800
C 	C 	0.82940 0.55690 0.53153 -0.16200
H 	H 	0.83820 0.54870 0.55260 0.09500
C 	C 	0.72294 0.87700 0.59230 -0.06300
C 	C 	0.72915 0.87920 0.62790 0.00300
H 	H 	0.73590 0.85940 0.64030 0.01100
C 	C 	0.72525 0.91080 0.64510 -0.04900
C 	C 	0.71510 0.94030 0.62660 -0.00000
H 	H 	0.71250 0.96150 0.63810 0.03700
C 	C 	0.70890 0.93820 0.59100 -0.00000
C 	C 	0.71283 0.90650 0.57380 0.03100
H 	H 	0.70870 0.90500 0.55000 0.09500
C 	C 	0.69820 0.96861 0.57070 0.03100
C 	C 	0.67610 0.96857 0.54200 -0.05100
H 	H 	0.66870 0.94750 0.53240 0.04800
Sm	Sm	0.24333 0.74307 0.91110 2.09700
O 	O 	0.21930 0.65760 0.96154 -0.52500
O 	O 	0.23780 0.68151 0.91271 -0.54500
O 	O 	0.23898 0.61743 0.80018 -0.46300
O 	O 	0.23280 0.56101 0.80010 -0.42200
O 	O 	0.25120 0.79950 0.93893 -0.44000
O 	O 	0.24350 0.79975 0.88317 -0.47800
O 	O 	0.25522 0.91261 0.81793 -0.57700
O 	O 	0.29620 0.94630 0.83940 -0.58300
O 	O 	0.23015 0.73237 0.97169 -0.68600
C 	C 	0.22634 0.65610 0.92929 0.48400
C 	C 	0.22010 0.62360 0.90810 -0.05500
C 	C 	0.23000 0.62360 0.87330 0.01900
H 	H 	0.24010 0.64340 0.86350 0.01500
C 	C 	0.22470 0.59410 0.85290 -0.01900
C 	C 	0.20960 0.56460 0.86750 -0.01300
H 	H 	0.20600 0.54480 0.85390 0.03000
C 	C 	0.19970 0.56460 0.90230 -0.01900
C 	C 	0.20500 0.59410 0.92270 -0.02700
H 	H 	0.19840 0.59410 0.94600 -0.05300
C 	C 	0.23271 0.58930 0.81581 0.32600
C 	C 	0.18360 0.53140 0.91430 0.03200
C 	C 	0.15590 0.53143 0.93800 -0.04600
H 	H 	0.14680 0.55250 0.94590 0.04600
C 	C 	0.25104 0.81526 0.91054 0.35900
C 	C 	0.26000 0.85315 0.90879 -0.12500
C 	C 	0.25940 0.87209 0.87790 0.09300
H 	H 	0.24970 0.86240 0.85790 0.00400
C 	C 	0.27320 0.90558 0.87687 -0.19900
C 	C 	0.28770 0.92013 0.90674 0.06000
H 	H 	0.29690 0.94250 0.90610 0.02500
C 	C 	0.28830 0.90120 0.93763 -0.06200
C 	C 	0.27450 0.86770 0.93866 0.02700
H 	H 	0.27500 0.85500 0.95930 0.05100
C 	C 	0.27460 0.92253 0.84190 0.54100
C 	C 	0.30290 0.91830 0.96877 0.12000
C 	C 	0.32940 0.94310 0.96847 -0.14400
H 	H 	0.33820 0.95130 0.94740 0.09200
C 	C 	0.22294 0.62300 0.90770 -0.06300
C 	C 	0.22915 0.62080 0.87210 0.00300
H 	H 	0.23590 0.64060 0.85970 0.01100
C 	C 	0.22525 0.58920 0.85490 -0.04900
C 	C 	0.21510 0.55970 0.87340 -0.00100
H 	H 	0.21250 0.53850 0.86190 0.03100
C 	C 	0.20890 0.56180 0.90900 0.00500
C 	C 	0.21283 0.59350 0.92620 0.02900
H 	H 	0.20870 0.59500 0.95000 0.09200
C 	C 	0.19820 0.53139 0.92930 0.04400
C 	C 	0.17610 0.53143 0.95800 -0.06100
H 	H 	0.16870 0.55250 0.96760 0.05200
Sm	Sm	0.74333 0.24307 0.41110 2.09800
O 	O 	0.71930 0.15760 0.46154 -0.53200
O 	O 	0.73780 0.18151 0.41271 -0.54600
O 	O 	0.73898 0.11743 0.30018 -0.46300
O 	O 	0.73280 0.06101 0.30010 -0.42300
O 	O 	0.75120 0.29950 0.43893 -0.44200
O 	O 	0.74350 0.29975 0.38317 -0.47800
O 	O 	0.75522 0.41261 0.31793 -0.57800
O 	O 	0.79620 0.44630 0.33940 -0.58900
O 	O 	0.73015 0.23237 0.47169 -0.69800
C 	C 	0.72634 0.15610 0.42929 0.48600
C 	C 	0.72010 0.12360 0.40810 -0.05500
C 	C 	0.73000 0.12360 0.37330 0.01900
H 	H 	0.74010 0.14340 0.36350 0.01500
C 	C 	0.72470 0.09410 0.35290 -0.01900
C 	C 	0.70960 0.06460 0.36750 -0.01300
H 	H 	0.70600 0.04480 0.35390 0.03100
C 	C 	0.69970 0.06460 0.40230 -0.01500
C 	C 	0.70500 0.09410 0.42270 -0.02600
H 	H 	0.69840 0.09410 0.44600 -0.05100
C 	C 	0.73271 0.08930 0.31581 0.32600
C 	C 	0.68360 0.03140 0.41430 0.04700
C 	C 	0.65590 0.03143 0.43800 -0.05500
H 	H 	0.64680 0.05250 0.44590 0.04800
C 	C 	0.75104 0.31526 0.41054 0.36000
C 	C 	0.76000 0.35315 0.40879 -0.12800
C 	C 	0.75940 0.37209 0.37790 0.09500
H 	H 	0.74970 0.36240 0.35790 0.00300
C 	C 	0.77320 0.40558 0.37687 -0.20300
C 	C 	0.78770 0.42013 0.40674 0.06200
H 	H 	0.79690 0.44250 0.40610 0.02200
C 	C 	0.78830 0.40120 0.43763 -0.06600
C 	C 	0.77450 0.36770 0.43866 0.02800
H 	H 	0.77500 0.35500 0.45930 0.04800
C 	C 	0.77460 0.42253 0.34190 0.54400
C 	C 	0.80290 0.41830 0.46877 0.11800
C 	C 	0.82940 0.44310 0.46847 -0.16200
H 	H 	0.83820 0.45130 0.44740 0.09500
C 	C 	0.72294 0.12300 0.40770 -0.06300
C 	C 	0.72915 0.12080 0.37210 0.00300
H 	H 	0.73590 0.14060 0.35970 0.01100
C 	C 	0.72525 0.08920 0.35490 -0.04900
C 	C 	0.71510 0.05970 0.37340 -0.00200
H 	H 	0.71250 0.03850 0.36190 0.03000
C 	C 	0.70890 0.06180 0.40900 -0.00000
C 	C 	0.71283 0.09350 0.42620 0.02800
H 	H 	0.70870 0.09500 0.45000 0.08800
C 	C 	0.69820 0.03139 0.42930 0.02800
C 	C 	0.67610 0.03143 0.45800 -0.05600
H 	H 	0.66870 0.05250 0.46760 0.04800
Sm	Sm	0.75667 0.74307 0.08890 2.09600
O 	O 	0.78070 0.65760 0.03846 -0.53100
O 	O 	0.76220 0.68151 0.08729 -0.54500
O 	O 	0.76102 0.61743 0.19982 -0.46300
O 	O 	0.76720 0.56101 0.19990 -0.42200
O 	O 	0.74880 0.79950 0.06107 -0.44300
O 	O 	0.75650 0.79975 0.11683 -0.47800
O 	O 	0.74478 0.91261 0.18207 -0.57700
O 	O 	0.70380 0.94630 0.16060 -0.58300
O 	O 	0.76985 0.73237 0.02831 -0.69400
C 	C 	0.77366 0.65610 0.07071 0.48500
C 	C 	0.77990 0.62360 0.09190 -0.05500
C 	C 	0.77000 0.62360 0.12670 0.01900
H 	H 	0.75990 0.64340 0.13650 0.01500
C 	C 	0.77530 0.59410 0.14710 -0.01900
C 	C 	0.79040 0.56460 0.13250 -0.01300
H 	H 	0.79400 0.54480 0.14610 0.03000
C 	C 	0.80030 0.56460 0.09770 -0.01100
C 	C 	0.79500 0.59410 0.07730 -0.02400
H 	H 	0.80160 0.59410 0.05400 -0.04900
C 	C 	0.76729 0.58930 0.18419 0.32500
C 	C 	0.81640 0.53140 0.08570 0.06500
C 	C 	0.84410 0.53143 0.06200 -0.06700
H 	H 	0.85320 0.55250 0.05410 0.05200
C 	C 	0.74896 0.81526 0.08946 0.36000
C 	C 	0.74000 0.85315 0.09121 -0.12700
C 	C 	0.74060 0.87209 0.12210 0.09300
H 	H 	0.75030 0.86240 0.14210 0.00400
C 	C 	0.72680 0.90558 0.12313 -0.20000
C 	C 	0.71230 0.92013 0.09326 0.06000
H 	H 	0.70310 0.94250 0.09390 0.02400
C 	C 	0.71170 0.90120 0.06237 -0.06300
C 	C 	0.72550 0.86770 0.06134 0.02700
H 	H 	0.72500 0.85500 0.04070 0.04700
C 	C 	0.72540 0.92253 0.15810 0.54200
C 	C 	0.69710 0.91830 0.03123 0.11300
C 	C 	0.67060 0.94310 0.03153 -0.15300
H 	H 	0.66180 0.95130 0.05260 0.09300
C 	C 	0.77706 0.62300 0.09230 -0.06400
C 	C 	0.77085 0.62080 0.12790 0.00300
H 	H 	0.76410 0.64060 0.14030 0.01100
C 	C 	0.77475 0.58920 0.14510 -0.04900
C 	C 	0.78490 0.55970 0.12660 -0.00200
H 	H 	0.78750 0.53850 0.13810 0.03200
C 	C 	0.79110 0.56180 0.09100 -0.00500
C 	C 	0.78717 0.59350 0.07380 0.02700
H 	H 	0.79130 0.59500 0.05000 0.08600
C 	C 	0.80180 0.53139 0.07070 0.01400
C 	C 	0.82390 0.53143 0.04200 -0.05500
H 	H 	0.83130 0.55250 0.03240 0.04700
Sm	Sm	0.25667 0.24307 0.58890 2.09800
O 	O 	0.28070 0.15760 0.53846 -0.53200
O 	O 	0.26220 0.18151 0.58729 -0.54600
O 	O 	0.26102 0.11743 0.69982 -0.46300
O 	O 	0.26720 0.06101 0.69990 -0.42300
O 	O 	0.24880 0.29950 0.56107 -0.44200
O 	O 	0.25650 0.29975 0.61683 -0.47800
O 	O 	0.24478 0.41261 0.68207 -0.57800
O 	O 	0.20380 0.44630 0.66060 -0.58900
O 	O 	0.26985 0.23237 0.52831 -0.69800
C 	C 	0.27366 0.15610 0.57071 0.48600
C 	C 	0.27990 0.12360 0.59190 -0.05500
C 	C 	0.27000 0.12360 0.62670 0.01900
H 	H 	0.25990 0.14340 0.63650 0.01500
C 	C 	0.27530 0.09410 0.64710 -0.01900
C 	C 	0.29040 0.06460 0.63250 -0.01300
H 	H 	0.29400 0.04480 0.64610 0.03100
C 	C 	0.30030 0.06460 0.59770 -0.01500
C 	C 	0.29500 0.09410 0.57730 -0.02500
H 	H 	0.30160 0.09410 0.55400 -0.05000
C 	C 	0.26729 0.08930 0.68419 0.32600
C 	C 	0.31640 0.03140 0.58570 0.04700
C 	C 	0.34410 0.03143 0.56200 -0.05500
H 	H 	0.35320 0.05250 0.55410 0.04800
C 	C 	0.24896 0.31526 0.58946 0.36000
C 	C 	0.24000 0.35315 0.59121 -0.12800
C 	C 	0.24060 0.37209 0.62210 0.09500
H 	H 	0.25030 0.36240 0.64210 0.00300
C 	C 	0.22680 0.40558 0.62313 -0.20300
C 	C 	0.21230 0.42013 0.59326 0.06200
H 	H 	0.20310 0.44250 0.59390 0.02200
C 	C 	0.21170 0.40120 0.56237 -0.06600
C 	C 	0.22550 0.36770 0.56134 0.02800
H 	H 	0.22500 0.35500 0.54070 0.04800
C 	C 	0.22540 0.42253 0.65810 0.54400
C 	C 	0.19710 0.41830 0.53123 0.11800
C 	C 	0.17060 0.44310 0.53153 -0.16200
H 	H 	0.16180 0.45130 0.55260 0.09500
C 	C 	0.27706 0.12300 0.59230 -0.06300
C 	C 	0.27085 0.12080 0.62790 0.00300
H 	H 	0.26410 0.14060 0.64030 0.01100
C 	C 	0.27475 0.08920 0.64510 -0.04900
C 	C 	0.28490 0.05970 0.62660 -0.00200
H 	H 	0.28750 0.03850 0.63810 0.03000
C 	C 	0.29110 0.06180 0.59100 -0.00000
C 	C 	0.28717 0.09350 0.57380 0.02800
H 	H 	0.29130 0.09500 0.55000 0.08700
C 	C 	0.30180 0.03139 0.57070 0.02800
C 	C 	0.32390 0.03143 0.54200 -0.05600
H 	H 	0.33130 0.05250 0.53240 0.04800
Sm	Sm	0.75667 0.25693 0.91110 2.09800
O 	O 	0.78070 0.34240 0.96154 -0.52500
O 	O 	0.76220 0.31849 0.91271 -0.54500
O 	O 	0.76102 0.38257 0.80018 -0.46300
O 	O 	0.76720 0.43899 0.80010 -0.42200
O 	O 	0.74880 0.20050 0.93893 -0.44000
O 	O 	0.75650 0.20025 0.88317 -0.47800
O 	O 	0.74478 0.08739 0.81793 -0.57800
O 	O 	0.70380 0.05370 0.83940 -0.58700
O 	O 	0.76985 0.26763 0.97169 -0.68600
C 	C 	0.77366 0.34390 0.92929 0.48500
C 	C 	0.77990 0.37640 0.90810 -0.05500
C 	C 	0.77000 0.37640 0.87330 0.01900
H 	H 	0.75990 0.35660 0.86350 0.01500
C 	C 	0.77530 0.40590 0.85290 -0.01900
C 	C 	0.79040 0.43540 0.86750 -0.01300
H 	H 	0.79400 0.45520 0.85390 0.03100
C 	C 	0.80030 0.43540 0.90230 -0.01900
C 	C 	0.79500 0.40590 0.92270 -0.02700
H 	H 	0.80160 0.40590 0.94600 -0.05200
C 	C 	0.76729 0.41070 0.81581 0.32600
C 	C 	0.81640 0.46860 0.91430 0.03200
C 	C 	0.84410 0.46857 0.93800 -0.04600
H 	H 	0.85320 0.44750 0.94590 0.04600
C 	C 	0.74896 0.18474 0.91054 0.35900
C 	C 	0.74000 0.14685 0.90879 -0.12600
C 	C 	0.74060 0.12791 0.87790 0.09400
H 	H 	0.75030 0.13760 0.85790 0.00400
C 	C 	0.72680 0.09442 0.87687 -0.20100
C 	C 	0.71230 0.07987 0.90674 0.06100
H 	H 	0.70310 0.05750 0.90610 0.02200
C 	C 	0.71170 0.09880 0.93763 -0.06400
C 	C 	0.72550 0.13230 0.93866 0.02700
H 	H 	0.72500 0.14500 0.95930 0.05100
C 	C 	0.72540 0.07747 0.84190 0.54200
C 	C 	0.69710 0.08170 0.96877 0.11900
C 	C 	0.67060 0.05690 0.96847 -0.14600
H 	H 	0.66180 0.04870 0.94740 0.09000
C 	C 	0.77706 0.37700 0.90770 -0.06300
C 	C 	0.77085 0.37920 0.87210 0.00300
H 	H 	0.76410 0.35940 0.85970 0.01100
C 	C 	0.77475 0.41080 0.85490 -0.04900
C 	C 	0.78490 0.44030 0.87340 -0.00100
H 	H 	0.78750 0.46150 0.86190 0.03100
C 	C 	0.79110 0.43820 0.90900 0.00500
C 	C 	0.78717 0.40650 0.92620 0.02900
H 	H 	0.79130 0.40500 0.95000 0.09000
C 	C 	0.80180 0.46861 0.92930 0.04400
C 	C 	0.82390 0.46857 0.95800 -0.06200
H 	H 	0.83130 0.44750 0.96760 0.05200
Sm	Sm	0.25667 0.75693 0.41110 2.09800
O 	O 	0.28070 0.84240 0.46154 -0.53200
O 	O 	0.26220 0.81849 0.41271 -0.54600
O 	O 	0.26102 0.88257 0.30018 -0.46300
O 	O 	0.26720 0.93899 0.30010 -0.42000
O 	O 	0.24880 0.70050 0.43893 -0.44200
O 	O 	0.25650 0.70025 0.38317 -0.47800
O 	O 	0.24478 0.58739 0.31793 -0.57800
O 	O 	0.20380 0.55370 0.33940 -0.58900
O 	O 	0.26985 0.76763 0.47169 -0.69800
C 	C 	0.27366 0.84390 0.42929 0.48600
C 	C 	0.27990 0.87640 0.40810 -0.05500
C 	C 	0.27000 0.87640 0.37330 0.01900
H 	H 	0.25990 0.85660 0.36350 0.01500
C 	C 	0.27530 0.90590 0.35290 -0.01800
C 	C 	0.29040 0.93540 0.36750 -0.01400
H 	H 	0.29400 0.95520 0.35390 0.02800
C 	C 	0.30030 0.93540 0.40230 -0.01500
C 	C 	0.29500 0.90590 0.42270 -0.02700
H 	H 	0.30160 0.90590 0.44600 -0.05700
C 	C 	0.26729 0.91070 0.31581 0.32500
C 	C 	0.31640 0.96860 0.41430 0.05100
C 	C 	0.34410 0.96857 0.43800 -0.04900
H 	H 	0.35320 0.94750 0.44590 0.04700
C 	C 	0.24896 0.68474 0.41054 0.36000
C 	C 	0.24000 0.64685 0.40879 -0.12800
C 	C 	0.24060 0.62791 0.37790 0.09500
H 	H 	0.25030 0.63760 0.35790 0.00300
C 	C 	0.22680 0.59442 0.37687 -0.20300
C 	C 	0.21230 0.57987 0.40674 0.06200
H 	H 	0.20310 0.55750 0.40610 0.02200
C 	C 	0.21170 0.59880 0.43763 -0.06600
C 	C 	0.22550 0.63230 0.43866 0.02800
H 	H 	0.22500 0.64500 0.45930 0.04800
C 	C 	0.22540 0.57747 0.34190 0.54400
C 	C 	0.19710 0.58170 0.46877 0.11800
C 	C 	0.17060 0.55690 0.46847 -0.16200
H 	H 	0.16180 0.54870 0.44740 0.09500
C 	C 	0.27706 0.87700 0.40770 -0.06300
C 	C 	0.27085 0.87920 0.37210 0.00300
H 	H 	0.26410 0.85940 0.35970 0.01100
C 	C 	0.27475 0.91080 0.35490 -0.04900
C 	C 	0.28490 0.94030 0.37340 -0.00000
H 	H 	0.28750 0.96150 0.36190 0.03700
C 	C 	0.29110 0.93820 0.40900 -0.00000
C 	C 	0.28717 0.90650 0.42620 0.03000
H 	H 	0.29130 0.90500 0.45000 0.09400
C 	C 	0.30180 0.96861 0.42930 0.03100
C 	C 	0.32390 0.96857 0.45800 -0.05100
H 	H 	0.33130 0.94750 0.46760 0.04800
Sm	Sm	0.08890 0.24333 0.25693 2.09600
O 	O 	0.03846 0.21930 0.34240 -0.53100
O 	O 	0.08729 0.23780 0.31849 -0.54500
O 	O 	0.19982 0.23898 0.38257 -0.46300
O 	O 	0.19990 0.23280 0.43899 -0.42200
O 	O 	0.06107 0.25120 0.20050 -0.44400
O 	O 	0.11683 0.24350 0.20025 -0.47800
O 	O 	0.18207 0.25522 0.08739 -0.57800
O 	O 	0.16060 0.29620 0.05370 -0.58700
O 	O 	0.02831 0.23015 0.26763 -0.69400
C 	C 	0.07071 0.22634 0.34390 0.48500
C 	C 	0.09190 0.22010 0.37640 -0.05500
C 	C 	0.12670 0.23000 0.37640 0.01900
H 	H 	0.13650 0.24010 0.35660 0.01500
C 	C 	0.14710 0.22470 0.40590 -0.01900
C 	C 	0.13250 0.20960 0.43540 -0.01300
H 	H 	0.14610 0.20600 0.45520 0.02900
C 	C 	0.09770 0.19970 0.43540 -0.01100
C 	C 	0.07730 0.20500 0.40590 -0.02400
H 	H 	0.05400 0.19840 0.40590 -0.05100
C 	C 	0.18419 0.23271 0.41070 0.32500
C 	C 	0.08570 0.18360 0.46860 0.06400
C 	C 	0.06200 0.15590 0.46857 -0.06800
H 	H 	0.05410 0.14680 0.44750 0.05200
C 	C 	0.08946 0.25104 0.18474 0.36000
C 	C 	0.09121 0.26000 0.14685 -0.12900
C 	C 	0.12210 0.25940 0.12791 0.09400
H 	H 	0.14210 0.24970 0.13760 0.00300
C 	C 	0.12313 0.27320 0.09442 -0.20300
C 	C 	0.09326 0.28770 0.07987 0.06100
H 	H 	0.09390 0.29690 0.05750 0.02100
C 	C 	0.06237 0.28830 0.09880 -0.06500
C 	C 	0.06134 0.27450 0.13230 0.02800
H 	H 	0.04070 0.27500 0.14500 0.04700
C 	C 	0.15810 0.27460 0.07747 0.54200
C 	C 	0.03123 0.30290 0.08170 0.11300
C 	C 	0.03153 0.32940 0.05690 -0.15500
H 	H 	0.05260 0.33820 0.04870 0.09100
C 	C 	0.09230 0.22294 0.37700 -0.06400
C 	C 	0.12790 0.22915 0.37920 0.00300
H 	H 	0.14030 0.23590 0.35940 0.01100
C 	C 	0.14510 0.22525 0.41080 -0.04900
C 	C 	0.12660 0.21510 0.44030 -0.00200
H 	H 	0.13810 0.21250 0.46150 0.03300
C 	C 	0.09100 0.20890 0.43820 -0.00500
C 	C 	0.07380 0.21283 0.40650 0.02800
H 	H 	0.05000 0.20870 0.40500 0.08700
C 	C 	0.07070 0.19820 0.46861 0.01500
C 	C 	0.04200 0.17610 0.46857 -0.05400
H 	H 	0.03240 0.16870 0.44750 0.04600
Sm	Sm	0.58890 0.74333 0.75693 2.09800
O 	O 	0.53846 0.71930 0.84240 -0.53200
O 	O 	0.58729 0.73780 0.81849 -0.54600
O 	O 	0.69982 0.73898 0.88257 -0.46300
O 	O 	0.69990 0.73280 0.93899 -0.42000
O 	O 	0.56107 0.75120 0.70050 -0.44200
O 	O 	0.61683 0.74350 0.70025 -0.47800
O 	O 	0.68207 0.75522 0.58739 -0.57800
O 	O 	0.66060 0.79620 0.55370 -0.58900
O 	O 	0.52831 0.73015 0.76763 -0.69800
C 	C 	0.57071 0.72634 0.84390 0.48600
C 	C 	0.59190 0.72010 0.87640 -0.05500
C 	C 	0.62670 0.73000 0.87640 0.01900
H 	H 	0.63650 0.74010 0.85660 0.01500
C 	C 	0.64710 0.72470 0.90590 -0.01800
C 	C 	0.63250 0.70960 0.93540 -0.01400
H 	H 	0.64610 0.70600 0.95520 0.02700
C 	C 	0.59770 0.69970 0.93540 -0.01500
C 	C 	0.57730 0.70500 0.90590 -0.02700
H 	H 	0.55400 0.69840 0.90590 -0.05800
C 	C 	0.68419 0.73271 0.91070 0.32500
C 	C 	0.58570 0.68360 0.96860 0.05000
C 	C 	0.56200 0.65590 0.96857 -0.04900
H 	H 	0.55410 0.64680 0.94750 0.04700
C 	C 	0.58946 0.75104 0.68474 0.36000
C 	C 	0.59121 0.76000 0.64685 -0.12800
C 	C 	0.62210 0.75940 0.62791 0.09500
H 	H 	0.64210 0.74970 0.63760 0.00300
C 	C 	0.62313 0.77320 0.59442 -0.20300
C 	C 	0.59326 0.78770 0.57987 0.06200
H 	H 	0.59390 0.79690 0.55750 0.02200
C 	C 	0.56237 0.78830 0.59880 -0.06600
C 	C 	0.56134 0.77450 0.63230 0.02800
H 	H 	0.54070 0.77500 0.64500 0.04800
C 	C 	0.65810 0.77460 0.57747 0.54400
C 	C 	0.53123 0.80290 0.58170 0.11800
C 	C 	0.53153 0.82940 0.55690 -0.16200
H 	H 	0.55260 0.83820 0.54870 0.09500
C 	C 	0.59230 0.72294 0.87700 -0.06300
C 	C 	0.62790 0.72915 0.87920 0.00300
H 	H 	0.64030 0.73590 0.85940 0.01100
C 	C 	0.64510 0.72525 0.91080 -0.04900
C 	C 	0.62660 0.71510 0.94030 -0.00000
H 	H 	0.63810 0.71250 0.96150 0.03700
C 	C 	0.59100 0.70890 0.93820 -0.00000
C 	C 	0.57380 0.71283 0.90650 0.03100
H 	H 	0.55000 0.70870 0.90500 0.09500
C 	C 	0.57070 0.69820 0.96861 0.03100
C 	C 	0.54200 0.67610 0.96857 -0.05100
H 	H 	0.53240 0.66870 0.94750 0.04800
Sm	Sm	0.91110 0.24333 0.74307 2.09700
O 	O 	0.96154 0.21930 0.65760 -0.52500
O 	O 	0.91271 0.23780 0.68151 -0.54500
O 	O 	0.80018 0.23898 0.61743 -0.46300
O 	O 	0.80010 0.23280 0.56101 -0.42200
O 	O 	0.93893 0.25120 0.79950 -0.44000
O 	O 	0.88317 0.24350 0.79975 -0.47800
O 	O 	0.81793 0.25522 0.91261 -0.57700
O 	O 	0.83940 0.29620 0.94630 -0.58300
O 	O 	0.97169 0.23015 0.73237 -0.68600
C 	C 	0.92929 0.22634 0.65610 0.48400
C 	C 	0.90810 0.22010 0.62360 -0.05500
C 	C 	0.87330 0.23000 0.62360 0.01900
H 	H 	0.86350 0.24010 0.64340 0.01500
C 	C 	0.85290 0.22470 0.59410 -0.01900
C 	C 	0.86750 0.20960 0.56460 -0.01300
H 	H 	0.85390 0.20600 0.54480 0.03000
C 	C 	0.90230 0.19970 0.56460 -0.01900
C 	C 	0.92270 0.20500 0.59410 -0.02700
H 	H 	0.94600 0.19840 0.59410 -0.05300
C 	C 	0.81581 0.23271 0.58930 0.32600
C 	C 	0.91430 0.18360 0.53140 0.03200
C 	C 	0.93800 0.15590 0.53143 -0.04600
H 	H 	0.94590 0.14680 0.55250 0.04600
C 	C 	0.91054 0.25104 0.81526 0.35900
C 	C 	0.90879 0.26000 0.85315 -0.12500
C 	C 	0.87790 0.25940 0.87209 0.09300
H 	H 	0.85790 0.24970 0.86240 0.00400
C 	C 	0.87687 0.27320 0.90558 -0.19900
C 	C 	0.90674 0.28770 0.92013 0.06000
H 	H 	0.90610 0.29690 0.94250 0.02500
C 	C 	0.93763 0.28830 0.90120 -0.06200
C 	C 	0.93866 0.27450 0.86770 0.02700
H 	H 	0.95930 0.27500 0.85500 0.05100
C 	C 	0.84190 0.27460 0.92253 0.54100
C 	C 	0.96877 0.30290 0.91830 0.12000
C 	C 	0.96847 0.32940 0.94310 -0.14400
H 	H 	0.94740 0.33820 0.95130 0.09200
C 	C 	0.90770 0.22294 0.62300 -0.06300
C 	C 	0.87210 0.22915 0.62080 0.00300
H 	H 	0.85970 0.23590 0.64060 0.01100
C 	C 	0.85490 0.22525 0.58920 -0.04900
C 	C 	0.87340 0.21510 0.55970 -0.00100
H 	H 	0.86190 0.21250 0.53850 0.03100
C 	C 	0.90900 0.20890 0.56180 0.00500
C 	C 	0.92620 0.21283 0.59350 0.02900
H 	H 	0.95000 0.20870 0.59500 0.09200
C 	C 	0.92930 0.19820 0.53139 0.04400
C 	C 	0.95800 0.17610 0.53143 -0.06100
H 	H 	0.96760 0.16870 0.55250 0.05200
Sm	Sm	0.41110 0.74333 0.24307 2.09800
O 	O 	0.46154 0.71930 0.15760 -0.53200
O 	O 	0.41271 0.73780 0.18151 -0.54600
O 	O 	0.30018 0.73898 0.11743 -0.46300
O 	O 	0.30010 0.73280 0.06101 -0.42300
O 	O 	0.43893 0.75120 0.29950 -0.44200
O 	O 	0.38317 0.74350 0.29975 -0.47800
O 	O 	0.31793 0.75522 0.41261 -0.57800
O 	O 	0.33940 0.79620 0.44630 -0.58900
O 	O 	0.47169 0.73015 0.23237 -0.69800
C 	C 	0.42929 0.72634 0.15610 0.48600
C 	C 	0.40810 0.72010 0.12360 -0.05500
C 	C 	0.37330 0.73000 0.12360 0.01900
H 	H 	0.36350 0.74010 0.14340 0.01500
C 	C 	0.35290 0.72470 0.09410 -0.01900
C 	C 	0.36750 0.70960 0.06460 -0.01300
H 	H 	0.35390 0.70600 0.04480 0.03100
C 	C 	0.40230 0.69970 0.06460 -0.01500
C 	C 	0.42270 0.70500 0.09410 -0.02600
H 	H 	0.44600 0.69840 0.09410 -0.05100
C 	C 	0.31581 0.73271 0.08930 0.32600
C 	C 	0.41430 0.68360 0.03140 0.04700
C 	C 	0.43800 0.65590 0.03143 -0.05500
H 	H 	0.44590 0.64680 0.05250 0.04800
C 	C 	0.41054 0.75104 0.31526 0.36000
C 	C 	0.40879 0.76000 0.35315 -0.12800
C 	C 	0.37790 0.75940 0.37209 0.09500
H 	H 	0.35790 0.74970 0.36240 0.00300
C 	C 	0.37687 0.77320 0.40558 -0.20300
C 	C 	0.40674 0.78770 0.42013 0.06200
H 	H 	0.40610 0.79690 0.44250 0.02200
C 	C 	0.43763 0.78830 0.40120 -0.06600
C 	C 	0.43866 0.77450 0.36770 0.02800
H 	H 	0.45930 0.77500 0.35500 0.04800
C 	C 	0.34190 0.77460 0.42253 0.54400
C 	C 	0.46877 0.80290 0.41830 0.11800
C 	C 	0.46847 0.82940 0.44310 -0.16200
H 	H 	0.44740 0.83820 0.45130 0.09500
C 	C 	0.40770 0.72294 0.12300 -0.06300
C 	C 	0.37210 0.72915 0.12080 0.00300
H 	H 	0.35970 0.73590 0.14060 0.01100
C 	C 	0.35490 0.72525 0.08920 -0.04900
C 	C 	0.37340 0.71510 0.05970 -0.00200
H 	H 	0.36190 0.71250 0.03850 0.03000
C 	C 	0.40900 0.70890 0.06180 -0.00000
C 	C 	0.42620 0.71283 0.09350 0.02800
H 	H 	0.45000 0.70870 0.09500 0.08800
C 	C 	0.42930 0.69820 0.03139 0.02800
C 	C 	0.45800 0.67610 0.03143 -0.05600
H 	H 	0.46760 0.66870 0.05250 0.04800
Sm	Sm	0.08890 0.75667 0.74307 2.09600
O 	O 	0.03846 0.78070 0.65760 -0.53100
O 	O 	0.08729 0.76220 0.68151 -0.54500
O 	O 	0.19982 0.76102 0.61743 -0.46300
O 	O 	0.19990 0.76720 0.56101 -0.42200
O 	O 	0.06107 0.74880 0.79950 -0.44300
O 	O 	0.11683 0.75650 0.79975 -0.47800
O 	O 	0.18207 0.74478 0.91261 -0.57700
O 	O 	0.16060 0.70380 0.94630 -0.58300
O 	O 	0.02831 0.76985 0.73237 -0.69400
C 	C 	0.07071 0.77366 0.65610 0.48500
C 	C 	0.09190 0.77990 0.62360 -0.05500
C 	C 	0.12670 0.77000 0.62360 0.01900
H 	H 	0.13650 0.75990 0.64340 0.01500
C 	C 	0.14710 0.77530 0.59410 -0.01900
C 	C 	0.13250 0.79040 0.56460 -0.01300
H 	H 	0.14610 0.79400 0.54480 0.03000
C 	C 	0.09770 0.80030 0.56460 -0.01100
C 	C 	0.07730 0.79500 0.59410 -0.02400
H 	H 	0.05400 0.80160 0.59410 -0.04900
C 	C 	0.18419 0.76729 0.58930 0.32500
C 	C 	0.08570 0.81640 0.53140 0.06500
C 	C 	0.06200 0.84410 0.53143 -0.06700
H 	H 	0.05410 0.85320 0.55250 0.05200
C 	C 	0.08946 0.74896 0.81526 0.36000
C 	C 	0.09121 0.74000 0.85315 -0.12700
C 	C 	0.12210 0.74060 0.87209 0.09300
H 	H 	0.14210 0.75030 0.86240 0.00400
C 	C 	0.12313 0.72680 0.90558 -0.20000
C 	C 	0.09326 0.71230 0.92013 0.06000
H 	H 	0.09390 0.70310 0.94250 0.02400
C 	C 	0.06237 0.71170 0.90120 -0.06300
C 	C 	0.06134 0.72550 0.86770 0.02700
H 	H 	0.04070 0.72500 0.85500 0.04700
C 	C 	0.15810 0.72540 0.92253 0.54200
C 	C 	0.03123 0.69710 0.91830 0.11300
C 	C 	0.03153 0.67060 0.94310 -0.15300
H 	H 	0.05260 0.66180 0.95130 0.09300
C 	C 	0.09230 0.77706 0.62300 -0.06400
C 	C 	0.12790 0.77085 0.62080 0.00300
H 	H 	0.14030 0.76410 0.64060 0.01100
C 	C 	0.14510 0.77475 0.58920 -0.04900
C 	C 	0.12660 0.78490 0.55970 -0.00200
H 	H 	0.13810 0.78750 0.53850 0.03200
C 	C 	0.09100 0.79110 0.56180 -0.00500
C 	C 	0.07380 0.78717 0.59350 0.02700
H 	H 	0.05000 0.79130 0.59500 0.08600
C 	C 	0.07070 0.80180 0.53139 0.01400
C 	C 	0.04200 0.82390 0.53143 -0.05500
H 	H 	0.03240 0.83130 0.55250 0.04700
Sm	Sm	0.58890 0.25667 0.24307 2.09800
O 	O 	0.53846 0.28070 0.15760 -0.53200
O 	O 	0.58729 0.26220 0.18151 -0.54600
O 	O 	0.69982 0.26102 0.11743 -0.46300
O 	O 	0.69990 0.26720 0.06101 -0.42300
O 	O 	0.56107 0.24880 0.29950 -0.44200
O 	O 	0.61683 0.25650 0.29975 -0.47800
O 	O 	0.68207 0.24478 0.41261 -0.57800
O 	O 	0.66060 0.20380 0.44630 -0.58900
O 	O 	0.52831 0.26985 0.23237 -0.69800
C 	C 	0.57071 0.27366 0.15610 0.48600
C 	C 	0.59190 0.27990 0.12360 -0.05500
C 	C 	0.62670 0.27000 0.12360 0.01900
H 	H 	0.63650 0.25990 0.14340 0.01500
C 	C 	0.64710 0.27530 0.09410 -0.01900
C 	C 	0.63250 0.29040 0.06460 -0.01300
H 	H 	0.64610 0.29400 0.04480 0.03100
C 	C 	0.59770 0.30030 0.06460 -0.01500
C 	C 	0.57730 0.29500 0.09410 -0.02500
H 	H 	0.55400 0.30160 0.09410 -0.05000
C 	C 	0.68419 0.26729 0.08930 0.32600
C 	C 	0.58570 0.31640 0.03140 0.04700
C 	C 	0.56200 0.34410 0.03143 -0.05500
H 	H 	0.55410 0.35320 0.05250 0.04800
C 	C 	0.58946 0.24896 0.31526 0.36000
C 	C 	0.59121 0.24000 0.35315 -0.12800
C 	C 	0.62210 0.24060 0.37209 0.09500
H 	H 	0.64210 0.25030 0.36240 0.00300
C 	C 	0.62313 0.22680 0.40558 -0.20300
C 	C 	0.59326 0.21230 0.42013 0.06200
H 	H 	0.59390 0.20310 0.44250 0.02200
C 	C 	0.56237 0.21170 0.40120 -0.06600
C 	C 	0.56134 0.22550 0.36770 0.02800
H 	H 	0.54070 0.22500 0.35500 0.04800
C 	C 	0.65810 0.22540 0.42253 0.54400
C 	C 	0.53123 0.19710 0.41830 0.11800
C 	C 	0.53153 0.17060 0.44310 -0.16200
H 	H 	0.55260 0.16180 0.45130 0.09500
C 	C 	0.59230 0.27706 0.12300 -0.06300
C 	C 	0.62790 0.27085 0.12080 0.00300
H 	H 	0.64030 0.26410 0.14060 0.01100
C 	C 	0.64510 0.27475 0.08920 -0.04900
C 	C 	0.62660 0.28490 0.05970 -0.00200
H 	H 	0.63810 0.28750 0.03850 0.03000
C 	C 	0.59100 0.29110 0.06180 -0.00000
C 	C 	0.57380 0.28717 0.09350 0.02800
H 	H 	0.55000 0.29130 0.09500 0.08700
C 	C 	0.57070 0.30180 0.03139 0.02800
C 	C 	0.54200 0.32390 0.03143 -0.05600
H 	H 	0.53240 0.33130 0.05250 0.04800
Sm	Sm	0.91110 0.75667 0.25693 2.09800
O 	O 	0.96154 0.78070 0.34240 -0.52500
O 	O 	0.91271 0.76220 0.31849 -0.54500
O 	O 	0.80018 0.76102 0.38257 -0.46300
O 	O 	0.80010 0.76720 0.43899 -0.42200
O 	O 	0.93893 0.74880 0.20050 -0.44000
O 	O 	0.88317 0.75650 0.20025 -0.47800
O 	O 	0.81793 0.74478 0.08739 -0.57800
O 	O 	0.83940 0.70380 0.05370 -0.58700
O 	O 	0.97169 0.76985 0.26763 -0.68600
C 	C 	0.92929 0.77366 0.34390 0.48500
C 	C 	0.90810 0.77990 0.37640 -0.05500
C 	C 	0.87330 0.77000 0.37640 0.01900
H 	H 	0.86350 0.75990 0.35660 0.01500
C 	C 	0.85290 0.77530 0.40590 -0.01900
C 	C 	0.86750 0.79040 0.43540 -0.01300
H 	H 	0.85390 0.79400 0.45520 0.03100
C 	C 	0.90230 0.80030 0.43540 -0.01900
C 	C 	0.92270 0.79500 0.40590 -0.02700
H 	H 	0.94600 0.80160 0.40590 -0.05200
C 	C 	0.81581 0.76729 0.41070 0.32600
C 	C 	0.91430 0.81640 0.46860 0.03200
C 	C 	0.93800 0.84410 0.46857 -0.04600
H 	H 	0.94590 0.85320 0.44750 0.04600
C 	C 	0.91054 0.74896 0.18474 0.35900
C 	C 	0.90879 0.74000 0.14685 -0.12600
C 	C 	0.87790 0.74060 0.12791 0.09400
H 	H 	0.85790 0.75030 0.13760 0.00400
C 	C 	0.87687 0.72680 0.09442 -0.20100
C 	C 	0.90674 0.71230 0.07987 0.06100
H 	H 	0.90610 0.70310 0.05750 0.02200
C 	C 	0.93763 0.71170 0.09880 -0.06400
C 	C 	0.93866 0.72550 0.13230 0.02700
H 	H 	0.95930 0.72500 0.14500 0.05100
C 	C 	0.84190 0.72540 0.07747 0.54200
C 	C 	0.96877 0.69710 0.08170 0.11900
C 	C 	0.96847 0.67060 0.05690 -0.14600
H 	H 	0.94740 0.66180 0.04870 0.09000
C 	C 	0.90770 0.77706 0.37700 -0.06300
C 	C 	0.87210 0.77085 0.37920 0.00300
H 	H 	0.85970 0.76410 0.35940 0.01100
C 	C 	0.85490 0.77475 0.41080 -0.04900
C 	C 	0.87340 0.78490 0.44030 -0.00100
H 	H 	0.86190 0.78750 0.46150 0.03100
C 	C 	0.90900 0.79110 0.43820 0.00500
C 	C 	0.92620 0.78717 0.40650 0.02900
H 	H 	0.95000 0.79130 0.40500 0.09000
C 	C 	0.92930 0.80180 0.46861 0.04400
C 	C 	0.95800 0.82390 0.46857 -0.06200
H 	H 	0.96760 0.83130 0.44750 0.05200
Sm	Sm	0.41110 0.25667 0.75693 2.09800
O 	O 	0.46154 0.28070 0.84240 -0.53200
O 	O 	0.41271 0.26220 0.81849 -0.54600
O 	O 	0.30018 0.26102 0.88257 -0.46300
O 	O 	0.30010 0.26720 0.93899 -0.42000
O 	O 	0.43893 0.24880 0.70050 -0.44200
O 	O 	0.38317 0.25650 0.70025 -0.47800
O 	O 	0.31793 0.24478 0.58739 -0.57800
O 	O 	0.33940 0.20380 0.55370 -0.58900
O 	O 	0.47169 0.26985 0.76763 -0.69800
C 	C 	0.42929 0.27366 0.84390 0.48600
C 	C 	0.40810 0.27990 0.87640 -0.05500
C 	C 	0.37330 0.27000 0.87640 0.01900
H 	H 	0.36350 0.25990 0.85660 0.01500
C 	C 	0.35290 0.27530 0.90590 -0.01800
C 	C 	0.36750 0.29040 0.93540 -0.01400
H 	H 	0.35390 0.29400 0.95520 0.02800
C 	C 	0.40230 0.30030 0.93540 -0.01500
C 	C 	0.42270 0.29500 0.90590 -0.02700
H 	H 	0.44600 0.30160 0.90590 -0.05700
C 	C 	0.31581 0.26729 0.91070 0.32500
C 	C 	0.41430 0.31640 0.96860 0.05100
C 	C 	0.43800 0.34410 0.96857 -0.04900
H 	H 	0.44590 0.35320 0.94750 0.04700
C 	C 	0.41054 0.24896 0.68474 0.36000
C 	C 	0.40879 0.24000 0.64685 -0.12800
C 	C 	0.37790 0.24060 0.62791 0.09500
H 	H 	0.35790 0.25030 0.63760 0.00300
C 	C 	0.37687 0.22680 0.59442 -0.20300
C 	C 	0.40674 0.21230 0.57987 0.06200
H 	H 	0.40610 0.20310 0.55750 0.02200
C 	C 	0.43763 0.21170 0.59880 -0.06600
C 	C 	0.43866 0.22550 0.63230 0.02800
H 	H 	0.45930 0.22500 0.64500 0.04800
C 	C 	0.34190 0.22540 0.57747 0.54400
C 	C 	0.46877 0.19710 0.58170 0.11800
C 	C 	0.46847 0.17060 0.55690 -0.16200
H 	H 	0.44740 0.16180 0.54870 0.09500
C 	C 	0.40770 0.27706 0.87700 -0.06300
C 	C 	0.37210 0.27085 0.87920 0.00300
H 	H 	0.35970 0.26410 0.85940 0.01100
C 	C 	0.35490 0.27475 0.91080 -0.04900
C 	C 	0.37340 0.28490 0.94030 -0.00000
H 	H 	0.36190 0.28750 0.96150 0.03700
C 	C 	0.40900 0.29110 0.93820 -0.00000
C 	C 	0.42620 0.28717 0.90650 0.03000
H 	H 	0.45000 0.29130 0.90500 0.09400
C 	C 	0.42930 0.30180 0.96861 0.03100
C 	C 	0.45800 0.32390 0.96857 -0.05100
H 	H 	0.46760 0.33130 0.94750 0.04800
Sm	Sm	0.74307 0.91110 0.75667 2.09800
O 	O 	0.65760 0.96154 0.78070 -0.52500
O 	O 	0.68151 0.91271 0.76220 -0.54500
O 	O 	0.61743 0.80018 0.76102 -0.46300
O 	O 	0.56101 0.80010 0.76720 -0.42200
O 	O 	0.79950 0.93893 0.74880 -0.44000
O 	O 	0.79975 0.88317 0.75650 -0.47700
O 	O 	0.91261 0.81793 0.74478 -0.57600
O 	O 	0.94630 0.83940 0.70380 -0.58300
O 	O 	0.73237 0.97169 0.76985 -0.68600
C 	C 	0.65610 0.92929 0.77366 0.48500
C 	C 	0.62360 0.90810 0.77990 -0.05500
C 	C 	0.62360 0.87330 0.77000 0.01900
H 	H 	0.64340 0.86350 0.75990 0.01500
C 	C 	0.59410 0.85290 0.77530 -0.01900
C 	C 	0.56460 0.86750 0.79040 -0.01300
H 	H 	0.54480 0.85390 0.79400 0.03100
C 	C 	0.56460 0.90230 0.80030 -0.01900
C 	C 	0.59410 0.92270 0.79500 -0.02700
H 	H 	0.59410 0.94600 0.80160 -0.05200
C 	C 	0.58930 0.81581 0.76729 0.32600
C 	C 	0.53140 0.91430 0.81640 0.03200
C 	C 	0.53143 0.93800 0.84410 -0.04600
H 	H 	0.55250 0.94590 0.85320 0.04600
C 	C 	0.81526 0.91054 0.74896 0.35900
C 	C 	0.85315 0.90879 0.74000 -0.12500
C 	C 	0.87209 0.87790 0.74060 0.09300
H 	H 	0.86240 0.85790 0.75030 0.00400
C 	C 	0.90558 0.87687 0.72680 -0.19900
C 	C 	0.92013 0.90674 0.71230 0.06000
H 	H 	0.94250 0.90610 0.70310 0.02500
C 	C 	0.90120 0.93763 0.71170 -0.06200
C 	C 	0.86770 0.93866 0.72550 0.02700
H 	H 	0.85500 0.95930 0.72500 0.05100
C 	C 	0.92253 0.84190 0.72540 0.54100
C 	C 	0.91830 0.96877 0.69710 0.12000
C 	C 	0.94310 0.96847 0.67060 -0.14400
H 	H 	0.95130 0.94740 0.66180 0.09200
C 	C 	0.62300 0.90770 0.77706 -0.06300
C 	C 	0.62080 0.87210 0.77085 0.00300
H 	H 	0.64060 0.85970 0.76410 0.01100
C 	C 	0.58920 0.85490 0.77475 -0.04900
C 	C 	0.55970 0.87340 0.78490 -0.00100
H 	H 	0.53850 0.86190 0.78750 0.03100
C 	C 	0.56180 0.90900 0.79110 0.00500
C 	C 	0.59350 0.92620 0.78717 0.02900
H 	H 	0.59500 0.95000 0.79130 0.09000
C 	C 	0.53139 0.92930 0.80180 0.04400
C 	C 	0.53143 0.95800 0.82390 -0.06200
H 	H 	0.55250 0.96760 0.83130 0.05200
Sm	Sm	0.24307 0.41110 0.25667 2.09800
O 	O 	0.15760 0.46154 0.28070 -0.53200
O 	O 	0.18151 0.41271 0.26220 -0.54600
O 	O 	0.11743 0.30018 0.26102 -0.46300
O 	O 	0.06101 0.30010 0.26720 -0.42300
O 	O 	0.29950 0.43893 0.24880 -0.44200
O 	O 	0.29975 0.38317 0.25650 -0.47800
O 	O 	0.41261 0.31793 0.24478 -0.57800
O 	O 	0.44630 0.33940 0.20380 -0.58900
O 	O 	0.23237 0.47169 0.26985 -0.69800
C 	C 	0.15610 0.42929 0.27366 0.48600
C 	C 	0.12360 0.40810 0.27990 -0.05500
C 	C 	0.12360 0.37330 0.27000 0.01900
H 	H 	0.14340 0.36350 0.25990 0.01500
C 	C 	0.09410 0.35290 0.27530 -0.01900
C 	C 	0.06460 0.36750 0.29040 -0.01300
H 	H 	0.04480 0.35390 0.29400 0.03100
C 	C 	0.06460 0.40230 0.30030 -0.01500
C 	C 	0.09410 0.42270 0.29500 -0.02500
H 	H 	0.09410 0.44600 0.30160 -0.05000
C 	C 	0.08930 0.31581 0.26729 0.32600
C 	C 	0.03140 0.41430 0.31640 0.04700
C 	C 	0.03143 0.43800 0.34410 -0.05500
H 	H 	0.05250 0.44590 0.35320 0.04800
C 	C 	0.31526 0.41054 0.24896 0.36000
C 	C 	0.35315 0.40879 0.24000 -0.12800
C 	C 	0.37209 0.37790 0.24060 0.09500
H 	H 	0.36240 0.35790 0.25030 0.00300
C 	C 	0.40558 0.37687 0.22680 -0.20300
C 	C 	0.42013 0.40674 0.21230 0.06200
H 	H 	0.44250 0.40610 0.20310 0.02200
C 	C 	0.40120 0.43763 0.21170 -0.06600
C 	C 	0.36770 0.43866 0.22550 0.02800
H 	H 	0.35500 0.45930 0.22500 0.04800
C 	C 	0.42253 0.34190 0.22540 0.54400
C 	C 	0.41830 0.46877 0.19710 0.11800
C 	C 	0.44310 0.46847 0.17060 -0.16200
H 	H 	0.45130 0.44740 0.16180 0.09500
C 	C 	0.12300 0.40770 0.27706 -0.06300
C 	C 	0.12080 0.37210 0.27085 0.00300
H 	H 	0.14060 0.35970 0.26410 0.01100
C 	C 	0.08920 0.35490 0.27475 -0.04900
C 	C 	0.05970 0.37340 0.28490 -0.00200
H 	H 	0.03850 0.36190 0.28750 0.03000
C 	C 	0.06180 0.40900 0.29110 -0.00000
C 	C 	0.09350 0.42620 0.28717 0.02800
H 	H 	0.09500 0.45000 0.29130 0.08700
C 	C 	0.03139 0.42930 0.30180 0.02800
C 	C 	0.03143 0.45800 0.32390 -0.05600
H 	H 	0.05250 0.46760 0.33130 0.04800
Sm	Sm	0.25693 0.08890 0.75667 2.09600
O 	O 	0.34240 0.03846 0.78070 -0.53100
O 	O 	0.31849 0.08729 0.76220 -0.54500
O 	O 	0.38257 0.19982 0.76102 -0.46300
O 	O 	0.43899 0.19990 0.76720 -0.42200
O 	O 	0.20050 0.06107 0.74880 -0.44300
O 	O 	0.20025 0.11683 0.75650 -0.47800
O 	O 	0.08739 0.18207 0.74478 -0.57800
O 	O 	0.05370 0.16060 0.70380 -0.58700
O 	O 	0.26763 0.02831 0.76985 -0.69400
C 	C 	0.34390 0.07071 0.77366 0.48500
C 	C 	0.37640 0.09190 0.77990 -0.05500
C 	C 	0.37640 0.12670 0.77000 0.01900
H 	H 	0.35660 0.13650 0.75990 0.01500
C 	C 	0.40590 0.14710 0.77530 -0.01900
C 	C 	0.43540 0.13250 0.79040 -0.01300
H 	H 	0.45520 0.14610 0.79400 0.03000
C 	C 	0.43540 0.09770 0.80030 -0.01100
C 	C 	0.40590 0.07730 0.79500 -0.02400
H 	H 	0.40590 0.05400 0.80160 -0.04900
C 	C 	0.41070 0.18419 0.76729 0.32600
C 	C 	0.46860 0.08570 0.81640 0.06500
C 	C 	0.46857 0.06200 0.84410 -0.06700
H 	H 	0.44750 0.05410 0.85320 0.05200
C 	C 	0.18474 0.08946 0.74896 0.36000
C 	C 	0.14685 0.09121 0.74000 -0.12800
C 	C 	0.12791 0.12210 0.74060 0.09400
H 	H 	0.13760 0.14210 0.75030 0.00300
C 	C 	0.09442 0.12313 0.72680 -0.20200
C 	C 	0.07987 0.09326 0.71230 0.06100
H 	H 	0.05750 0.09390 0.70310 0.02100
C 	C 	0.09880 0.06237 0.71170 -0.06500
C 	C 	0.13230 0.06134 0.72550 0.02800
H 	H 	0.14500 0.04070 0.72500 0.04700
C 	C 	0.07747 0.15810 0.72540 0.54200
C 	C 	0.08170 0.03123 0.69710 0.11300
C 	C 	0.05690 0.03153 0.67060 -0.15500
H 	H 	0.04870 0.05260 0.66180 0.09100
C 	C 	0.37700 0.09230 0.77706 -0.06400
C 	C 	0.37920 0.12790 0.77085 0.00300
H 	H 	0.35940 0.14030 0.76410 0.01100
C 	C 	0.41080 0.14510 0.77475 -0.04900
C 	C 	0.44030 0.12660 0.78490 -0.00200
H 	H 	0.46150 0.13810 0.78750 0.03200
C 	C 	0.43820 0.09100 0.79110 -0.00500
C 	C 	0.40650 0.07380 0.78717 0.02700
H 	H 	0.40500 0.05000 0.79130 0.08600
C 	C 	0.46861 0.07070 0.80180 0.01500
C 	C 	0.46857 0.04200 0.82390 -0.05500
H 	H 	0.44750 0.03240 0.83130 0.04700
Sm	Sm	0.75693 0.58890 0.25667 2.09800
O 	O 	0.84240 0.53846 0.28070 -0.53200
O 	O 	0.81849 0.58729 0.26220 -0.54600
O 	O 	0.88257 0.69982 0.26102 -0.46300
O 	O 	0.93899 0.69990 0.26720 -0.42000
O 	O 	0.70050 0.56107 0.24880 -0.44200
O 	O 	0.70025 0.61683 0.25650 -0.47800
O 	O 	0.58739 0.68207 0.24478 -0.57800
O 	O 	0.55370 0.66060 0.20380 -0.58900
O 	O 	0.76763 0.52831 0.26985 -0.69800
C 	C 	0.84390 0.57071 0.27366 0.48600
C 	C 	0.87640 0.59190 0.27990 -0.05500
C 	C 	0.87640 0.62670 0.27000 0.01900
H 	H 	0.85660 0.63650 0.25990 0.01500
C 	C 	0.90590 0.64710 0.27530 -0.01800
C 	C 	0.93540 0.63250 0.29040 -0.01400
H 	H 	0.95520 0.64610 0.29400 0.02800
C 	C 	0.93540 0.59770 0.30030 -0.01500
C 	C 	0.90590 0.57730 0.29500 -0.02700
H 	H 	0.90590 0.55400 0.30160 -0.05700
C 	C 	0.91070 0.68419 0.26729 0.32500
C 	C 	0.96860 0.58570 0.31640 0.05100
C 	C 	0.96857 0.56200 0.34410 -0.04900
H 	H 	0.94750 0.55410 0.35320 0.04700
C 	C 	0.68474 0.58946 0.24896 0.36000
C 	C 	0.64685 0.59121 0.24000 -0.12800
C 	C 	0.62791 0.62210 0.24060 0.09500
H 	H 	0.63760 0.64210 0.25030 0.00300
C 	C 	0.59442 0.62313 0.22680 -0.20300
C 	C 	0.57987 0.59326 0.21230 0.06200
H 	H 	0.55750 0.59390 0.20310 0.02200
C 	C 	0.59880 0.56237 0.21170 -0.06600
C 	C 	0.63230 0.56134 0.22550 0.02800
H 	H 	0.64500 0.54070 0.22500 0.04800
C 	C 	0.57747 0.65810 0.22540 0.54400
C 	C 	0.58170 0.53123 0.19710 0.11800
C 	C 	0.55690 0.53153 0.17060 -0.16200
H 	H 	0.54870 0.55260 0.16180 0.09500
C 	C 	0.87700 0.59230 0.27706 -0.06300
C 	C 	0.87920 0.62790 0.27085 0.00300
H 	H 	0.85940 0.64030 0.26410 0.01100
C 	C 	0.91080 0.64510 0.27475 -0.04900
C 	C 	0.94030 0.62660 0.28490 -0.00000
H 	H 	0.96150 0.63810 0.28750 0.03700
C 	C 	0.93820 0.59100 0.29110 -0.00000
C 	C 	0.90650 0.57380 0.28717 0.03000
H 	H 	0.90500 0.55000 0.29130 0.09400
C 	C 	0.96861 0.57070 0.30180 0.03100
C 	C 	0.96857 0.54200 0.32390 -0.05100
H 	H 	0.94750 0.53240 0.33130 0.04800
Sm	Sm	0.25693 0.91110 0.24333 2.09700
O 	O 	0.34240 0.96154 0.21930 -0.52500
O 	O 	0.31849 0.91271 0.23780 -0.54500
O 	O 	0.38257 0.80018 0.23898 -0.46300
O 	O 	0.43899 0.80010 0.23280 -0.42200
O 	O 	0.20050 0.93893 0.25120 -0.44000
O 	O 	0.20025 0.88317 0.24350 -0.47800
O 	O 	0.08739 0.81793 0.25522 -0.57800
O 	O 	0.05370 0.83940 0.29620 -0.58700
O 	O 	0.26763 0.97169 0.23015 -0.68600
C 	C 	0.34390 0.92929 0.22634 0.48500
C 	C 	0.37640 0.90810 0.22010 -0.05500
C 	C 	0.37640 0.87330 0.23000 0.01900
H 	H 	0.35660 0.86350 0.24010 0.01500
C 	C 	0.40590 0.85290 0.22470 -0.01900
C 	C 	0.43540 0.86750 0.20960 -0.01300
H 	H 	0.45520 0.85390 0.20600 0.03000
C 	C 	0.43540 0.90230 0.19970 -0.01900
C 	C 	0.40590 0.92270 0.20500 -0.02700
H 	H 	0.40590 0.94600 0.19840 -0.05300
C 	C 	0.41070 0.81581 0.23271 0.32600
C 	C 	0.46860 0.91430 0.18360 0.03200
C 	C 	0.46857 0.93800 0.15590 -0.04600
H 	H 	0.44750 0.94590 0.14680 0.04600
C 	C 	0.18474 0.91054 0.25104 0.35900
C 	C 	0.14685 0.90879 0.26000 -0.12700
C 	C 	0.12791 0.87790 0.25940 0.09400
H 	H 	0.13760 0.85790 0.24970 0.00300
C 	C 	0.09442 0.87687 0.27320 -0.20200
C 	C 	0.07987 0.90674 0.28770 0.06100
H 	H 	0.05750 0.90610 0.29690 0.02200
C 	C 	0.09880 0.93763 0.28830 -0.06400
C 	C 	0.13230 0.93866 0.27450 0.02700
H 	H 	0.14500 0.95930 0.27500 0.05100
C 	C 	0.07747 0.84190 0.27460 0.54200
C 	C 	0.08170 0.96877 0.30290 0.11900
C 	C 	0.05690 0.96847 0.32940 -0.14600
H 	H 	0.04870 0.94740 0.33820 0.09000
C 	C 	0.37700 0.90770 0.22294 -0.06300
C 	C 	0.37920 0.87210 0.22915 0.00300
H 	H 	0.35940 0.85970 0.23590 0.01100
C 	C 	0.41080 0.85490 0.22525 -0.04900
C 	C 	0.44030 0.87340 0.21510 -0.00100
H 	H 	0.46150 0.86190 0.21250 0.03100
C 	C 	0.43820 0.90900 0.20890 0.00500
C 	C 	0.40650 0.92620 0.21283 0.02900
H 	H 	0.40500 0.95000 0.20870 0.09200
C 	C 	0.46861 0.92930 0.19820 0.04400
C 	C 	0.46857 0.95800 0.17610 -0.06100
H 	H 	0.44750 0.96760 0.16870 0.05200
Sm	Sm	0.75693 0.41110 0.74333 2.09800
O 	O 	0.84240 0.46154 0.71930 -0.53200
O 	O 	0.81849 0.41271 0.73780 -0.54600
O 	O 	0.88257 0.30018 0.73898 -0.46300
O 	O 	0.93899 0.30010 0.73280 -0.42000
O 	O 	0.70050 0.43893 0.75120 -0.44200
O 	O 	0.70025 0.38317 0.74350 -0.47800
O 	O 	0.58739 0.31793 0.75522 -0.57800
O 	O 	0.55370 0.33940 0.79620 -0.58900
O 	O 	0.76763 0.47169 0.73015 -0.69800
C 	C 	0.84390 0.42929 0.72634 0.48600
C 	C 	0.87640 0.40810 0.72010 -0.05500
C 	C 	0.87640 0.37330 0.73000 0.01900
H 	H 	0.85660 0.36350 0.74010 0.01500
C 	C 	0.90590 0.35290 0.72470 -0.01800
C 	C 	0.93540 0.36750 0.70960 -0.01400
H 	H 	0.95520 0.35390 0.70600 0.02700
C 	C 	0.93540 0.40230 0.69970 -0.01500
C 	C 	0.90590 0.42270 0.70500 -0.02700
H 	H 	0.90590 0.44600 0.69840 -0.05800
C 	C 	0.91070 0.31581 0.73271 0.32500
C 	C 	0.96860 0.41430 0.68360 0.05100
C 	C 	0.96857 0.43800 0.65590 -0.04900
H 	H 	0.94750 0.44590 0.64680 0.04700
C 	C 	0.68474 0.41054 0.75104 0.36000
C 	C 	0.64685 0.40879 0.76000 -0.12800
C 	C 	0.62791 0.37790 0.75940 0.09500
H 	H 	0.63760 0.35790 0.74970 0.00300
C 	C 	0.59442 0.37687 0.77320 -0.20300
C 	C 	0.57987 0.40674 0.78770 0.06200
H 	H 	0.55750 0.40610 0.79690 0.02200
C 	C 	0.59880 0.43763 0.78830 -0.06600
C 	C 	0.63230 0.43866 0.77450 0.02800
H 	H 	0.64500 0.45930 0.77500 0.04800
C 	C 	0.57747 0.34190 0.77460 0.54400
C 	C 	0.58170 0.46877 0.80290 0.11800
C 	C 	0.55690 0.46847 0.82940 -0.16200
H 	H 	0.54870 0.44740 0.83820 0.09500
C 	C 	0.87700 0.40770 0.72294 -0.06300
C 	C 	0.87920 0.37210 0.72915 0.00300
H 	H 	0.85940 0.35970 0.73590 0.01100
C 	C 	0.91080 0.35490 0.72525 -0.04900
C 	C 	0.94030 0.37340 0.71510 -0.00000
H 	H 	0.96150 0.36190 0.71250 0.03700
C 	C 	0.93820 0.40900 0.70890 -0.00000
C 	C 	0.90650 0.42620 0.71283 0.03100
H 	H 	0.90500 0.45000 0.70870 0.09500
C 	C 	0.96861 0.42930 0.69820 0.03100
C 	C 	0.96857 0.45800 0.67610 -0.05100
H 	H 	0.94750 0.46760 0.66870 0.04800
Sm	Sm	0.74307 0.08890 0.24333 2.09600
O 	O 	0.65760 0.03846 0.21930 -0.53100
O 	O 	0.68151 0.08729 0.23780 -0.54500
O 	O 	0.61743 0.19982 0.23898 -0.46300
O 	O 	0.56101 0.19990 0.23280 -0.42200
O 	O 	0.79950 0.06107 0.25120 -0.44300
O 	O 	0.79975 0.11683 0.24350 -0.47800
O 	O 	0.91261 0.18207 0.25522 -0.57700
O 	O 	0.94630 0.16060 0.29620 -0.58300
O 	O 	0.73237 0.02831 0.23015 -0.69400
C 	C 	0.65610 0.07071 0.22634 0.48500
C 	C 	0.62360 0.09190 0.22010 -0.05500
C 	C 	0.62360 0.12670 0.23000 0.01900
H 	H 	0.64340 0.13650 0.24010 0.01500
C 	C 	0.59410 0.14710 0.22470 -0.01900
C 	C 	0.56460 0.13250 0.20960 -0.01300
H 	H 	0.54480 0.14610 0.20600 0.02900
C 	C 	0.56460 0.09770 0.19970 -0.01100
C 	C 	0.59410 0.07730 0.20500 -0.02400
H 	H 	0.59410 0.05400 0.19840 -0.05100
C 	C 	0.58930 0.18419 0.23271 0.32500
C 	C 	0.53140 0.08570 0.18360 0.06400
C 	C 	0.53143 0.06200 0.15590 -0.06800
H 	H 	0.55250 0.05410 0.14680 0.05200
C 	C 	0.81526 0.08946 0.25104 0.36000
C 	C 	0.85315 0.09121 0.26000 -0.12700
C 	C 	0.87209 0.12210 0.25940 0.09300
H 	H 	0.86240 0.14210 0.24970 0.00400
C 	C 	0.90558 0.12313 0.27320 -0.20000
C 	C 	0.92013 0.09326 0.28770 0.06000
H 	H 	0.94250 0.09390 0.29690 0.02400
C 	C 	0.90120 0.06237 0.28830 -0.06400
C 	C 	0.86770 0.06134 0.27450 0.02700
H 	H 	0.85500 0.04070 0.27500 0.04700
C 	C 	0.92253 0.15810 0.27460 0.54100
C 	C 	0.91830 0.03123 0.30290 0.11300
C 	C 	0.94310 0.03153 0.32940 -0.15300
H 	H 	0.95130 0.05260 0.33820 0.09300
C 	C 	0.62300 0.09230 0.22294 -0.06400
C 	C 	0.62080 0.12790 0.22915 0.00300
H 	H 	0.64060 0.14030 0.23590 0.01100
C 	C 	0.58920 0.14510 0.22525 -0.04900
C 	C 	0.55970 0.12660 0.21510 -0.00200
H 	H 	0.53850 0.13810 0.21250 0.03300
C 	C 	0.56180 0.09100 0.20890 -0.00500
C 	C 	0.59350 0.07380 0.21283 0.02800
H 	H 	0.59500 0.05000 0.20870 0.08700
C 	C 	0.53139 0.07070 0.19820 0.01500
C 	C 	0.53143 0.04200 0.17610 -0.05400
H 	H 	0.55250 0.03240 0.16870 0.04600
Sm	Sm	0.24307 0.58890 0.74333 2.09800
O 	O 	0.15760 0.53846 0.71930 -0.53200
O 	O 	0.18151 0.58729 0.73780 -0.54600
O 	O 	0.11743 0.69982 0.73898 -0.46300
O 	O 	0.06101 0.69990 0.73280 -0.42300
O 	O 	0.29950 0.56107 0.75120 -0.44200
O 	O 	0.29975 0.61683 0.74350 -0.47800
O 	O 	0.41261 0.68207 0.75522 -0.57800
O 	O 	0.44630 0.66060 0.79620 -0.58900
O 	O 	0.23237 0.52831 0.73015 -0.69800
C 	C 	0.15610 0.57071 0.72634 0.48600
C 	C 	0.12360 0.59190 0.72010 -0.05500
C 	C 	0.12360 0.62670 0.73000 0.01900
H 	H 	0.14340 0.63650 0.74010 0.01500
C 	C 	0.09410 0.64710 0.72470 -0.01900
C 	C 	0.06460 0.63250 0.70960 -0.01300
H 	H 	0.04480 0.64610 0.70600 0.03100
C 	C 	0.06460 0.59770 0.69970 -0.01500
C 	C 	0.09410 0.57730 0.70500 -0.02600
H 	H 	0.09410 0.55400 0.69840 -0.05100
C 	C 	0.08930 0.68419 0.73271 0.32600
C 	C 	0.03140 0.58570 0.68360 0.04700
C 	C 	0.03143 0.56200 0.65590 -0.05500
H 	H 	0.05250 0.55410 0.64680 0.04800
C 	C 	0.31526 0.58946 0.75104 0.36000
C 	C 	0.35315 0.59121 0.76000 -0.12800
C 	C 	0.37209 0.62210 0.75940 0.09500
H 	H 	0.36240 0.64210 0.74970 0.00300
C 	C 	0.40558 0.62313 0.77320 -0.20300
C 	C 	0.42013 0.59326 0.78770 0.06200
H 	H 	0.44250 0.59390 0.79690 0.02200
C 	C 	0.40120 0.56237 0.78830 -0.06600
C 	C 	0.36770 0.56134 0.77450 0.02800
H 	H 	0.35500 0.54070 0.77500 0.04800
C 	C 	0.42253 0.65810 0.77460 0.54400
C 	C 	0.41830 0.53123 0.80290 0.11800
C 	C 	0.44310 0.53153 0.82940 -0.16200
H 	H 	0.45130 0.55260 0.83820 0.09500
C 	C 	0.12300 0.59230 0.72294 -0.06300
C 	C 	0.12080 0.62790 0.72915 0.00300
H 	H 	0.14060 0.64030 0.73590 0.01100
C 	C 	0.08920 0.64510 0.72525 -0.04900
C 	C 	0.05970 0.62660 0.71510 -0.00200
H 	H 	0.03850 0.63810 0.71250 0.03000
C 	C 	0.06180 0.59100 0.70890 -0.00000
C 	C 	0.09350 0.57380 0.71283 0.02800
H 	H 	0.09500 0.55000 0.70870 0.08800
C 	C 	0.03139 0.57070 0.69820 0.02800
C 	C 	0.03143 0.54200 0.67610 -0.05600
H 	H 	0.05250 0.53240 0.66870 0.04800
Sm	Sm	0.75667 0.74307 0.91110 2.09800
O 	O 	0.78070 0.65760 0.96154 -0.52500
O 	O 	0.76220 0.68151 0.91271 -0.54500
O 	O 	0.76102 0.61743 0.80018 -0.46300
O 	O 	0.76720 0.56101 0.80010 -0.42200
O 	O 	0.74880 0.79950 0.93893 -0.44000
O 	O 	0.75650 0.79975 0.88317 -0.47700
O 	O 	0.74478 0.91261 0.81793 -0.57600
O 	O 	0.70380 0.94630 0.83940 -0.58300
O 	O 	0.76985 0.73237 0.97169 -0.68600
C 	C 	0.77366 0.65610 0.92929 0.48500
C 	C 	0.77990 0.62360 0.90810 -0.05500
C 	C 	0.77000 0.62360 0.87330 0.01900
H 	H 	0.75990 0.64340 0.86350 0.01500
C 	C 	0.77530 0.59410 0.85290 -0.01900
C 	C 	0.79040 0.56460 0.86750 -0.01300
H 	H 	0.79400 0.54480 0.85390 0.03100
C 	C 	0.80030 0.56460 0.90230 -0.01900
C 	C 	0.79500 0.59410 0.92270 -0.02700
H 	H 	0.80160 0.59410 0.94600 -0.05200
C 	C 	0.76729 0.58930 0.81581 0.32600
C 	C 	0.81640 0.53140 0.91430 0.03200
C 	C 	0.84410 0.53143 0.93800 -0.04600
H 	H 	0.85320 0.55250 0.94590 0.04600
C 	C 	0.74896 0.81526 0.91054 0.35900
C 	C 	0.74000 0.85315 0.90879 -0.12500
C 	C 	0.74060 0.87209 0.87790 0.09300
H 	H 	0.75030 0.86240 0.85790 0.00400
C 	C 	0.72680 0.90558 0.87687 -0.19900
C 	C 	0.71230 0.92013 0.90674 0.06000
H 	H 	0.70310 0.94250 0.90610 0.02500
C 	C 	0.71170 0.90120 0.93763 -0.06200
C 	C 	0.72550 0.86770 0.93866 0.02700
H 	H 	0.72500 0.85500 0.95930 0.05100
C 	C 	0.72540 0.92253 0.84190 0.54100
C 	C 	0.69710 0.91830 0.96877 0.12000
C 	C 	0.67060 0.94310 0.96847 -0.14400
H 	H 	0.66180 0.95130 0.94740 0.09200
C 	C 	0.77706 0.62300 0.90770 -0.06300
C 	C 	0.77085 0.62080 0.87210 0.00300
H 	H 	0.76410 0.64060 0.85970 0.01100
C 	C 	0.77475 0.58920 0.85490 -0.04900
C 	C 	0.78490 0.55970 0.87340 -0.00100
H 	H 	0.78750 0.53850 0.86190 0.03100
C 	C 	0.79110 0.56180 0.90900 0.00500
C 	C 	0.78717 0.59350 0.92620 0.02900
H 	H 	0.79130 0.59500 0.95000 0.09000
C 	C 	0.80180 0.53139 0.92930 0.04400
C 	C 	0.82390 0.53143 0.95800 -0.06200
H 	H 	0.83130 0.55250 0.96760 0.05200
Sm	Sm	0.25667 0.24307 0.41110 2.09800
O 	O 	0.28070 0.15760 0.46154 -0.53200
O 	O 	0.26220 0.18151 0.41271 -0.54600
O 	O 	0.26102 0.11743 0.30018 -0.46300
O 	O 	0.26720 0.06101 0.30010 -0.42300
O 	O 	0.24880 0.29950 0.43893 -0.44200
O 	O 	0.25650 0.29975 0.38317 -0.47800
O 	O 	0.24478 0.41261 0.31793 -0.57800
O 	O 	0.20380 0.44630 0.33940 -0.58900
O 	O 	0.26985 0.23237 0.47169 -0.69800
C 	C 	0.27366 0.15610 0.42929 0.48600
C 	C 	0.27990 0.12360 0.40810 -0.05500
C 	C 	0.27000 0.12360 0.37330 0.01900
H 	H 	0.25990 0.14340 0.36350 0.01500
C 	C 	0.27530 0.09410 0.35290 -0.01900
C 	C 	0.29040 0.06460 0.36750 -0.01300
H 	H 	0.29400 0.04480 0.35390 0.03100
C 	C 	0.30030 0.06460 0.40230 -0.01500
C 	C 	0.29500 0.09410 0.42270 -0.02500
H 	H 	0.30160 0.09410 0.44600 -0.05000
C 	C 	0.26729 0.08930 0.31581 0.32600
C 	C 	0.31640 0.03140 0.41430 0.04700
C 	C 	0.34410 0.03143 0.43800 -0.05500
H 	H 	0.35320 0.05250 0.44590 0.04800
C 	C 	0.24896 0.31526 0.41054 0.36000
C 	C 	0.24000 0.35315 0.40879 -0.12800
C 	C 	0.24060 0.37209 0.37790 0.09500
H 	H 	0.25030 0.36240 0.35790 0.00300
C 	C 	0.22680 0.40558 0.37687 -0.20300
C 	C 	0.21230 0.42013 0.40674 0.06200
H 	H 	0.20310 0.44250 0.40610 0.02200
C 	C 	0.21170 0.40120 0.43763 -0.06600
C 	C 	0.22550 0.36770 0.43866 0.02800
H 	H 	0.22500 0.35500 0.45930 0.04800
C 	C 	0.22540 0.42253 0.34190 0.54400
C 	C 	0.19710 0.41830 0.46877 0.11800
C 	C 	0.17060 0.44310 0.46847 -0.16200
H 	H 	0.16180 0.45130 0.44740 0.09500
C 	C 	0.27706 0.12300 0.40770 -0.06300
C 	C 	0.27085 0.12080 0.37210 0.00300
H 	H 	0.26410 0.14060 0.35970 0.01100
C 	C 	0.27475 0.08920 0.35490 -0.04900
C 	C 	0.28490 0.05970 0.37340 -0.00200
H 	H 	0.28750 0.03850 0.36190 0.03000
C 	C 	0.29110 0.06180 0.40900 -0.00000
C 	C 	0.28717 0.09350 0.42620 0.02800
H 	H 	0.29130 0.09500 0.45000 0.08700
C 	C 	0.30180 0.03139 0.42930 0.02800
C 	C 	0.32390 0.03143 0.45800 -0.05600
H 	H 	0.33130 0.05250 0.46760 0.04800
Sm	Sm	0.75667 0.25693 0.08890 2.09600
O 	O 	0.78070 0.34240 0.03846 -0.53100
O 	O 	0.76220 0.31849 0.08729 -0.54500
O 	O 	0.76102 0.38257 0.19982 -0.46300
O 	O 	0.76720 0.43899 0.19990 -0.42200
O 	O 	0.74880 0.20050 0.06107 -0.44300
O 	O 	0.75650 0.20025 0.11683 -0.47800
O 	O 	0.74478 0.08739 0.18207 -0.57800
O 	O 	0.70380 0.05370 0.16060 -0.58700
O 	O 	0.76985 0.26763 0.02831 -0.69400
C 	C 	0.77366 0.34390 0.07071 0.48500
C 	C 	0.77990 0.37640 0.09190 -0.05500
C 	C 	0.77000 0.37640 0.12670 0.01900
H 	H 	0.75990 0.35660 0.13650 0.01500
C 	C 	0.77530 0.40590 0.14710 -0.01900
C 	C 	0.79040 0.43540 0.13250 -0.01300
H 	H 	0.79400 0.45520 0.14610 0.03000
C 	C 	0.80030 0.43540 0.09770 -0.01100
C 	C 	0.79500 0.40590 0.07730 -0.02400
H 	H 	0.80160 0.40590 0.05400 -0.04900
C 	C 	0.76729 0.41070 0.18419 0.32600
C 	C 	0.81640 0.46860 0.08570 0.06500
C 	C 	0.84410 0.46857 0.06200 -0.06700
H 	H 	0.85320 0.44750 0.05410 0.05200
C 	C 	0.74896 0.18474 0.08946 0.36000
C 	C 	0.74000 0.14685 0.09121 -0.12800
C 	C 	0.74060 0.12791 0.12210 0.09400
H 	H 	0.75030 0.13760 0.14210 0.00300
C 	C 	0.72680 0.09442 0.12313 -0.20200
C 	C 	0.71230 0.07987 0.09326 0.06100
H 	H 	0.70310 0.05750 0.09390 0.02100
C 	C 	0.71170 0.09880 0.06237 -0.06500
C 	C 	0.72550 0.13230 0.06134 0.02800
H 	H 	0.72500 0.14500 0.04070 0.04700
C 	C 	0.72540 0.07747 0.15810 0.54200
C 	C 	0.69710 0.08170 0.03123 0.11300
C 	C 	0.67060 0.05690 0.03153 -0.15500
H 	H 	0.66180 0.04870 0.05260 0.09100
C 	C 	0.77706 0.37700 0.09230 -0.06400
C 	C 	0.77085 0.37920 0.12790 0.00300
H 	H 	0.76410 0.35940 0.14030 0.01100
C 	C 	0.77475 0.41080 0.14510 -0.04900
C 	C 	0.78490 0.44030 0.12660 -0.00200
H 	H 	0.78750 0.46150 0.13810 0.03200
C 	C 	0.79110 0.43820 0.09100 -0.00500
C 	C 	0.78717 0.40650 0.07380 0.02700
H 	H 	0.79130 0.40500 0.05000 0.08600
C 	C 	0.80180 0.46861 0.07070 0.01500
C 	C 	0.82390 0.46857 0.04200 -0.05500
H 	H 	0.83130 0.44750 0.03240 0.04700
Sm	Sm	0.25667 0.75693 0.58890 2.09800
O 	O 	0.28070 0.84240 0.53846 -0.53200
O 	O 	0.26220 0.81849 0.58729 -0.54600
O 	O 	0.26102 0.88257 0.69982 -0.46300
O 	O 	0.26720 0.93899 0.69990 -0.42000
O 	O 	0.24880 0.70050 0.56107 -0.44200
O 	O 	0.25650 0.70025 0.61683 -0.47800
O 	O 	0.24478 0.58739 0.68207 -0.57800
O 	O 	0.20380 0.55370 0.66060 -0.58900
O 	O 	0.26985 0.76763 0.52831 -0.69800
C 	C 	0.27366 0.84390 0.57071 0.48600
C 	C 	0.27990 0.87640 0.59190 -0.05500
C 	C 	0.27000 0.87640 0.62670 0.01900
H 	H 	0.25990 0.85660 0.63650 0.01500
C 	C 	0.27530 0.90590 0.64710 -0.01800
C 	C 	0.29040 0.93540 0.63250 -0.01400
H 	H 	0.29400 0.95520 0.64610 0.02800
C 	C 	0.30030 0.93540 0.59770 -0.01500
C 	C 	0.29500 0.90590 0.57730 -0.02700
H 	H 	0.30160 0.90590 0.55400 -0.05700
C 	C 	0.26729 0.91070 0.68419 0.32500
C 	C 	0.31640 0.96860 0.58570 0.05100
C 	C 	0.34410 0.96857 0.56200 -0.04900
H 	H 	0.35320 0.94750 0.55410 0.04700
C 	C 	0.24896 0.68474 0.58946 0.36000
C 	C 	0.24000 0.64685 0.59121 -0.12800
C 	C 	0.24060 0.62791 0.62210 0.09500
H 	H 	0.25030 0.63760 0.64210 0.00300
C 	C 	0.22680 0.59442 0.62313 -0.20300
C 	C 	0.21230 0.57987 0.59326 0.06200
H 	H 	0.20310 0.55750 0.59390 0.02200
C 	C 	0.21170 0.59880 0.56237 -0.06600
C 	C 	0.22550 0.63230 0.56134 0.02800
H 	H 	0.22500 0.64500 0.54070 0.04800
C 	C 	0.22540 0.57747 0.65810 0.54400
C 	C 	0.19710 0.58170 0.53123 0.11800
C 	C 	0.17060 0.55690 0.53153 -0.16200
H 	H 	0.16180 0.54870 0.55260 0.09500
C 	C 	0.27706 0.87700 0.59230 -0.06300
C 	C 	0.27085 0.87920 0.62790 0.00300
H 	H 	0.26410 0.85940 0.64030 0.01100
C 	C 	0.27475 0.91080 0.64510 -0.04900
C 	C 	0.28490 0.94030 0.62660 -0.00000
H 	H 	0.28750 0.96150 0.63810 0.03700
C 	C 	0.29110 0.93820 0.59100 -0.00000
C 	C 	0.28717 0.90650 0.57380 0.03000
H 	H 	0.29130 0.90500 0.55000 0.09400
C 	C 	0.30180 0.96861 0.57070 0.03100
C 	C 	0.32390 0.96857 0.54200 -0.05100
H 	H 	0.33130 0.94750 0.53240 0.04800
Sm	Sm	0.24333 0.25693 0.91110 2.09700
O 	O 	0.21930 0.34240 0.96154 -0.52500
O 	O 	0.23780 0.31849 0.91271 -0.54500
O 	O 	0.23898 0.38257 0.80018 -0.46300
O 	O 	0.23280 0.43899 0.80010 -0.42200
O 	O 	0.25120 0.20050 0.93893 -0.44000
O 	O 	0.24350 0.20025 0.88317 -0.47800
O 	O 	0.25522 0.08739 0.81793 -0.57800
O 	O 	0.29620 0.05370 0.83940 -0.58700
O 	O 	0.23015 0.26763 0.97169 -0.68600
C 	C 	0.22634 0.34390 0.92929 0.48500
C 	C 	0.22010 0.37640 0.90810 -0.05500
C 	C 	0.23000 0.37640 0.87330 0.01900
H 	H 	0.24010 0.35660 0.86350 0.01500
C 	C 	0.22470 0.40590 0.85290 -0.01900
C 	C 	0.20960 0.43540 0.86750 -0.01300
H 	H 	0.20600 0.45520 0.85390 0.03000
C 	C 	0.19970 0.43540 0.90230 -0.01900
C 	C 	0.20500 0.40590 0.92270 -0.02700
H 	H 	0.19840 0.40590 0.94600 -0.05300
C 	C 	0.23271 0.41070 0.81581 0.32600
C 	C 	0.18360 0.46860 0.91430 0.03200
C 	C 	0.15590 0.46857 0.93800 -0.04600
H 	H 	0.14680 0.44750 0.94590 0.04600
C 	C 	0.25104 0.18474 0.91054 0.35900
C 	C 	0.26000 0.14685 0.90879 -0.12700
C 	C 	0.25940 0.12791 0.87790 0.09400
H 	H 	0.24970 0.13760 0.85790 0.00300
C 	C 	0.27320 0.09442 0.87687 -0.20200
C 	C 	0.28770 0.07987 0.90674 0.06100
H 	H 	0.29690 0.05750 0.90610 0.02200
C 	C 	0.28830 0.09880 0.93763 -0.06400
C 	C 	0.27450 0.13230 0.93866 0.02700
H 	H 	0.27500 0.14500 0.95930 0.05100
C 	C 	0.27460 0.07747 0.84190 0.54200
C 	C 	0.30290 0.08170 0.96877 0.11900
C 	C 	0.32940 0.05690 0.96847 -0.14600
H 	H 	0.33820 0.04870 0.94740 0.09000
C 	C 	0.22294 0.37700 0.90770 -0.06300
C 	C 	0.22915 0.37920 0.87210 0.00300
H 	H 	0.23590 0.35940 0.85970 0.01100
C 	C 	0.22525 0.41080 0.85490 -0.04900
C 	C 	0.21510 0.44030 0.87340 -0.00100
H 	H 	0.21250 0.46150 0.86190 0.03100
C 	C 	0.20890 0.43820 0.90900 0.00500
C 	C 	0.21283 0.40650 0.92620 0.02900
H 	H 	0.20870 0.40500 0.95000 0.09200
C 	C 	0.19820 0.46861 0.92930 0.04400
C 	C 	0.17610 0.46857 0.95800 -0.06100
H 	H 	0.16870 0.44750 0.96760 0.05200
Sm	Sm	0.74333 0.75693 0.41110 2.09800
O 	O 	0.71930 0.84240 0.46154 -0.53200
O 	O 	0.73780 0.81849 0.41271 -0.54600
O 	O 	0.73898 0.88257 0.30018 -0.46300
O 	O 	0.73280 0.93899 0.30010 -0.42000
O 	O 	0.75120 0.70050 0.43893 -0.44200
O 	O 	0.74350 0.70025 0.38317 -0.47800
O 	O 	0.75522 0.58739 0.31793 -0.57800
O 	O 	0.79620 0.55370 0.33940 -0.58900
O 	O 	0.73015 0.76763 0.47169 -0.69800
C 	C 	0.72634 0.84390 0.42929 0.48600
C 	C 	0.72010 0.87640 0.40810 -0.05500
C 	C 	0.73000 0.87640 0.37330 0.01900
H 	H 	0.74010 0.85660 0.36350 0.01500
C 	C 	0.72470 0.90590 0.35290 -0.01800
C 	C 	0.70960 0.93540 0.36750 -0.01400
H 	H 	0.70600 0.95520 0.35390 0.02700
C 	C 	0.69970 0.93540 0.40230 -0.01500
C 	C 	0.70500 0.90590 0.42270 -0.02700
H 	H 	0.69840 0.90590 0.44600 -0.05800
C 	C 	0.73271 0.91070 0.31581 0.32500
C 	C 	0.68360 0.96860 0.41430 0.05100
C 	C 	0.65590 0.96857 0.43800 -0.04900
H 	H 	0.64680 0.94750 0.44590 0.04700
C 	C 	0.75104 0.68474 0.41054 0.36000
C 	C 	0.76000 0.64685 0.40879 -0.12800
C 	C 	0.75940 0.62791 0.37790 0.09500
H 	H 	0.74970 0.63760 0.35790 0.00300
C 	C 	0.77320 0.59442 0.37687 -0.20300
C 	C 	0.78770 0.57987 0.40674 0.06200
H 	H 	0.79690 0.55750 0.40610 0.02200
C 	C 	0.78830 0.59880 0.43763 -0.06600
C 	C 	0.77450 0.63230 0.43866 0.02800
H 	H 	0.77500 0.64500 0.45930 0.04800
C 	C 	0.77460 0.57747 0.34190 0.54400
C 	C 	0.80290 0.58170 0.46877 0.11800
C 	C 	0.82940 0.55690 0.46847 -0.16200
H 	H 	0.83820 0.54870 0.44740 0.09500
C 	C 	0.72294 0.87700 0.40770 -0.06300
C 	C 	0.72915 0.87920 0.37210 0.00300
H 	H 	0.73590 0.85940 0.35970 0.01100
C 	C 	0.72525 0.91080 0.35490 -0.04900
C 	C 	0.71510 0.94030 0.37340 -0.00000
H 	H 	0.71250 0.96150 0.36190 0.03700
C 	C 	0.70890 0.93820 0.40900 -0.00000
C 	C 	0.71283 0.90650 0.42620 0.03100
H 	H 	0.70870 0.90500 0.45000 0.09500
C 	C 	0.69820 0.96861 0.42930 0.03100
C 	C 	0.67610 0.96857 0.45800 -0.05100
H 	H 	0.66870 0.94750 0.46760 0.04800
Sm	Sm	0.24333 0.74307 0.08890 2.09600
O 	O 	0.21930 0.65760 0.03846 -0.53100
O 	O 	0.23780 0.68151 0.08729 -0.54500
O 	O 	0.23898 0.61743 0.19982 -0.46300
O 	O 	0.23280 0.56101 0.19990 -0.42200
O 	O 	0.25120 0.79950 0.06107 -0.44300
O 	O 	0.24350 0.79975 0.11683 -0.47800
O 	O 	0.25522 0.91261 0.18207 -0.57700
O 	O 	0.29620 0.94630 0.16060 -0.58300
O 	O 	0.23015 0.73237 0.02831 -0.69400
C 	C 	0.22634 0.65610 0.07071 0.48500
C 	C 	0.22010 0.62360 0.09190 -0.05500
C 	C 	0.23000 0.62360 0.12670 0.01900
H 	H 	0.24010 0.64340 0.13650 0.01500
C 	C 	0.22470 0.59410 0.14710 -0.01900
C 	C 	0.20960 0.56460 0.13250 -0.01300
H 	H 	0.20600 0.54480 0.14610 0.02900
C 	C 	0.19970 0.56460 0.09770 -0.01100
C 	C 	0.20500 0.59410 0.07730 -0.02400
H 	H 	0.19840 0.59410 0.05400 -0.05100
C 	C 	0.23271 0.58930 0.18419 0.32500
C 	C 	0.18360 0.53140 0.08570 0.06400
C 	C 	0.15590 0.53143 0.06200 -0.06800
H 	H 	0.14680 0.55250 0.05410 0.05200
C 	C 	0.25104 0.81526 0.08946 0.36000
C 	C 	0.26000 0.85315 0.09121 -0.12700
C 	C 	0.25940 0.87209 0.12210 0.09300
H 	H 	0.24970 0.86240 0.14210 0.00400
C 	C 	0.27320 0.90558 0.12313 -0.20000
C 	C 	0.28770 0.92013 0.09326 0.06000
H 	H 	0.29690 0.94250 0.09390 0.02400
C 	C 	0.28830 0.90120 0.06237 -0.06400
C 	C 	0.27450 0.86770 0.06134 0.02700
H 	H 	0.27500 0.85500 0.04070 0.04700
C 	C 	0.27460 0.92253 0.15810 0.54100
C 	C 	0.30290 0.91830 0.03123 0.11300
C 	C 	0.32940 0.94310 0.03153 -0.15300
H 	H 	0.33820 0.95130 0.05260 0.09300
C 	C 	0.22294 0.62300 0.09230 -0.06400
C 	C 	0.22915 0.62080 0.12790 0.00300
H 	H 	0.23590 0.64060 0.14030 0.01100
C 	C 	0.22525 0.58920 0.14510 -0.04900
C 	C 	0.21510 0.55970 0.12660 -0.00200
H 	H 	0.21250 0.53850 0.13810 0.03300
C 	C 	0.20890 0.56180 0.09100 -0.00500
C 	C 	0.21283 0.59350 0.07380 0.02800
H 	H 	0.20870 0.59500 0.05000 0.08700
C 	C 	0.19820 0.53139 0.07070 0.01500
C 	C 	0.17610 0.53143 0.04200 -0.05400
H 	H 	0.16870 0.55250 0.03240 0.04600
Sm	Sm	0.74333 0.24307 0.58890 2.09800
O 	O 	0.71930 0.15760 0.53846 -0.53200
O 	O 	0.73780 0.18151 0.58729 -0.54600
O 	O 	0.73898 0.11743 0.69982 -0.46300
O 	O 	0.73280 0.06101 0.69990 -0.42300
O 	O 	0.75120 0.29950 0.56107 -0.44200
O 	O 	0.74350 0.29975 0.61683 -0.47800
O 	O 	0.75522 0.41261 0.68207 -0.57800
O 	O 	0.79620 0.44630 0.66060 -0.58900
O 	O 	0.73015 0.23237 0.52831 -0.69800
C 	C 	0.72634 0.15610 0.57071 0.48600
C 	C 	0.72010 0.12360 0.59190 -0.05500
C 	C 	0.73000 0.12360 0.62670 0.01900
H 	H 	0.74010 0.14340 0.63650 0.01500
C 	C 	0.72470 0.09410 0.64710 -0.01900
C 	C 	0.70960 0.06460 0.63250 -0.01300
H 	H 	0.70600 0.04480 0.64610 0.03100
C 	C 	0.69970 0.06460 0.59770 -0.01500
C 	C 	0.70500 0.09410 0.57730 -0.02600
H 	H 	0.69840 0.09410 0.55400 -0.05100
C 	C 	0.73271 0.08930 0.68419 0.32600
C 	C 	0.68360 0.03140 0.58570 0.04700
C 	C 	0.65590 0.03143 0.56200 -0.05500
H 	H 	0.64680 0.05250 0.55410 0.04800
C 	C 	0.75104 0.31526 0.58946 0.36000
C 	C 	0.76000 0.35315 0.59121 -0.12800
C 	C 	0.75940 0.37209 0.62210 0.09500
H 	H 	0.74970 0.36240 0.64210 0.00300
C 	C 	0.77320 0.40558 0.62313 -0.20300
C 	C 	0.78770 0.42013 0.59326 0.06200
H 	H 	0.79690 0.44250 0.59390 0.02200
C 	C 	0.78830 0.40120 0.56237 -0.06600
C 	C 	0.77450 0.36770 0.56134 0.02800
H 	H 	0.77500 0.35500 0.54070 0.04800
C 	C 	0.77460 0.42253 0.65810 0.54400
C 	C 	0.80290 0.41830 0.53123 0.11800
C 	C 	0.82940 0.44310 0.53153 -0.16200
H 	H 	0.83820 0.45130 0.55260 0.09500
C 	C 	0.72294 0.12300 0.59230 -0.06300
C 	C 	0.72915 0.12080 0.62790 0.00300
H 	H 	0.73590 0.14060 0.64030 0.01100
C 	C 	0.72525 0.08920 0.64510 -0.04900
C 	C 	0.71510 0.05970 0.62660 -0.00200
H 	H 	0.71250 0.03850 0.63810 0.03000
C 	C 	0.70890 0.06180 0.59100 -0.00000
C 	C 	0.71283 0.09350 0.57380 0.02800
H 	H 	0.70870 0.09500 0.55000 0.08800
C 	C 	0.69820 0.03139 0.57070 0.02800
C 	C 	0.67610 0.03143 0.54200 -0.05600
H 	H 	0.66870 0.05250 0.53240 0.04800
Sm	Sm	0.91110 0.75667 0.74307 2.09800
O 	O 	0.96154 0.78070 0.65760 -0.52500
O 	O 	0.91271 0.76220 0.68151 -0.54500
O 	O 	0.80018 0.76102 0.61743 -0.46300
O 	O 	0.80010 0.76720 0.56101 -0.42200
O 	O 	0.93893 0.74880 0.79950 -0.44000
O 	O 	0.88317 0.75650 0.79975 -0.47700
O 	O 	0.81793 0.74478 0.91261 -0.57600
O 	O 	0.83940 0.70380 0.94630 -0.58300
O 	O 	0.97169 0.76985 0.73237 -0.68600
C 	C 	0.92929 0.77366 0.65610 0.48500
C 	C 	0.90810 0.77990 0.62360 -0.05500
C 	C 	0.87330 0.77000 0.62360 0.01900
H 	H 	0.86350 0.75990 0.64340 0.01500
C 	C 	0.85290 0.77530 0.59410 -0.01900
C 	C 	0.86750 0.79040 0.56460 -0.01300
H 	H 	0.85390 0.79400 0.54480 0.03100
C 	C 	0.90230 0.80030 0.56460 -0.01900
C 	C 	0.92270 0.79500 0.59410 -0.02700
H 	H 	0.94600 0.80160 0.59410 -0.05200
C 	C 	0.81581 0.76729 0.58930 0.32600
C 	C 	0.91430 0.81640 0.53140 0.03200
C 	C 	0.93800 0.84410 0.53143 -0.04600
H 	H 	0.94590 0.85320 0.55250 0.04600
C 	C 	0.91054 0.74896 0.81526 0.35900
C 	C 	0.90879 0.74000 0.85315 -0.12500
C 	C 	0.87790 0.74060 0.87209 0.09300
H 	H 	0.85790 0.75030 0.86240 0.00400
C 	C 	0.87687 0.72680 0.90558 -0.19900
C 	C 	0.90674 0.71230 0.92013 0.06000
H 	H 	0.90610 0.70310 0.94250 0.02500
C 	C 	0.93763 0.71170 0.90120 -0.06200
C 	C 	0.93866 0.72550 0.86770 0.02700
H 	H 	0.95930 0.72500 0.85500 0.05100
C 	C 	0.84190 0.72540 0.92253 0.54100
C 	C 	0.96877 0.69710 0.91830 0.12000
C 	C 	0.96847 0.67060 0.94310 -0.14400
H 	H 	0.94740 0.66180 0.95130 0.09200
C 	C 	0.90770 0.77706 0.62300 -0.06300
C 	C 	0.87210 0.77085 0.62080 0.00300
H 	H 	0.85970 0.76410 0.64060 0.01100
C 	C 	0.85490 0.77475 0.58920 -0.04900
C 	C 	0.87340 0.78490 0.55970 -0.00100
H 	H 	0.86190 0.78750 0.53850 0.03100
C 	C 	0.90900 0.79110 0.56180 0.00500
C 	C 	0.92620 0.78717 0.59350 0.02900
H 	H 	0.95000 0.79130 0.59500 0.09000
C 	C 	0.92930 0.80180 0.53139 0.04400
C 	C 	0.95800 0.82390 0.53143 -0.06200
H 	H 	0.96760 0.83130 0.55250 0.05200
Sm	Sm	0.41110 0.25667 0.24307 2.09800
O 	O 	0.46154 0.28070 0.15760 -0.53200
O 	O 	0.41271 0.26220 0.18151 -0.54600
O 	O 	0.30018 0.26102 0.11743 -0.46300
O 	O 	0.30010 0.26720 0.06101 -0.42300
O 	O 	0.43893 0.24880 0.29950 -0.44200
O 	O 	0.38317 0.25650 0.29975 -0.47800
O 	O 	0.31793 0.24478 0.41261 -0.57800
O 	O 	0.33940 0.20380 0.44630 -0.58900
O 	O 	0.47169 0.26985 0.23237 -0.69800
C 	C 	0.42929 0.27366 0.15610 0.48600
C 	C 	0.40810 0.27990 0.12360 -0.05500
C 	C 	0.37330 0.27000 0.12360 0.01900
H 	H 	0.36350 0.25990 0.14340 0.01500
C 	C 	0.35290 0.27530 0.09410 -0.01900
C 	C 	0.36750 0.29040 0.06460 -0.01300
H 	H 	0.35390 0.29400 0.04480 0.03100
C 	C 	0.40230 0.30030 0.06460 -0.01500
C 	C 	0.42270 0.29500 0.09410 -0.02500
H 	H 	0.44600 0.30160 0.09410 -0.05000
C 	C 	0.31581 0.26729 0.08930 0.32600
C 	C 	0.41430 0.31640 0.03140 0.04700
C 	C 	0.43800 0.34410 0.03143 -0.05500
H 	H 	0.44590 0.35320 0.05250 0.04800
C 	C 	0.41054 0.24896 0.31526 0.36000
C 	C 	0.40879 0.24000 0.35315 -0.12800
C 	C 	0.37790 0.24060 0.37209 0.09500
H 	H 	0.35790 0.25030 0.36240 0.00300
C 	C 	0.37687 0.22680 0.40558 -0.20300
C 	C 	0.40674 0.21230 0.42013 0.06200
H 	H 	0.40610 0.20310 0.44250 0.02200
C 	C 	0.43763 0.21170 0.40120 -0.06600
C 	C 	0.43866 0.22550 0.36770 0.02800
H 	H 	0.45930 0.22500 0.35500 0.04800
C 	C 	0.34190 0.22540 0.42253 0.54400
C 	C 	0.46877 0.19710 0.41830 0.11800
C 	C 	0.46847 0.17060 0.44310 -0.16200
H 	H 	0.44740 0.16180 0.45130 0.09500
C 	C 	0.40770 0.27706 0.12300 -0.06300
C 	C 	0.37210 0.27085 0.12080 0.00300
H 	H 	0.35970 0.26410 0.14060 0.01100
C 	C 	0.35490 0.27475 0.08920 -0.04900
C 	C 	0.37340 0.28490 0.05970 -0.00200
H 	H 	0.36190 0.28750 0.03850 0.03000
C 	C 	0.40900 0.29110 0.06180 -0.00000
C 	C 	0.42620 0.28717 0.09350 0.02800
H 	H 	0.45000 0.29130 0.09500 0.08700
C 	C 	0.42930 0.30180 0.03139 0.02800
C 	C 	0.45800 0.32390 0.03143 -0.05600
H 	H 	0.46760 0.33130 0.05250 0.04800
Sm	Sm	0.08890 0.75667 0.25693 2.09600
O 	O 	0.03846 0.78070 0.34240 -0.53100
O 	O 	0.08729 0.76220 0.31849 -0.54500
O 	O 	0.19982 0.76102 0.38257 -0.46300
O 	O 	0.19990 0.76720 0.43899 -0.42200
O 	O 	0.06107 0.74880 0.20050 -0.44300
O 	O 	0.11683 0.75650 0.20025 -0.47800
O 	O 	0.18207 0.74478 0.08739 -0.57800
O 	O 	0.16060 0.70380 0.05370 -0.58700
O 	O 	0.02831 0.76985 0.26763 -0.69400
C 	C 	0.07071 0.77366 0.34390 0.48500
C 	C 	0.09190 0.77990 0.37640 -0.05500
C 	C 	0.12670 0.77000 0.37640 0.01900
H 	H 	0.13650 0.75990 0.35660 0.01500
C 	C 	0.14710 0.77530 0.40590 -0.01900
C 	C 	0.13250 0.79040 0.43540 -0.01300
H 	H 	0.14610 0.79400 0.45520 0.03000
C 	C 	0.09770 0.80030 0.43540 -0.01100
C 	C 	0.07730 0.79500 0.40590 -0.02400
H 	H 	0.05400 0.80160 0.40590 -0.04900
C 	C 	0.18419 0.76729 0.41070 0.32600
C 	C 	0.08570 0.81640 0.46860 0.06500
C 	C 	0.06200 0.84410 0.46857 -0.06700
H 	H 	0.05410 0.85320 0.44750 0.05200
C 	C 	0.08946 0.74896 0.18474 0.36000
C 	C 	0.09121 0.74000 0.14685 -0.12800
C 	C 	0.12210 0.74060 0.12791 0.09400
H 	H 	0.14210 0.75030 0.13760 0.00300
C 	C 	0.12313 0.72680 0.09442 -0.20200
C 	C 	0.09326 0.71230 0.07987 0.06100
H 	H 	0.09390 0.70310 0.05750 0.02100
C 	C 	0.06237 0.71170 0.09880 -0.06500
C 	C 	0.06134 0.72550 0.13230 0.02800
H 	H 	0.04070 0.72500 0.14500 0.04700
C 	C 	0.15810 0.72540 0.07747 0.54200
C 	C 	0.03123 0.69710 0.08170 0.11300
C 	C 	0.03153 0.67060 0.05690 -0.15500
H 	H 	0.05260 0.66180 0.04870 0.09100
C 	C 	0.09230 0.77706 0.37700 -0.06400
C 	C 	0.12790 0.77085 0.37920 0.00300
H 	H 	0.14030 0.76410 0.35940 0.01100
C 	C 	0.14510 0.77475 0.41080 -0.04900
C 	C 	0.12660 0.78490 0.44030 -0.00200
H 	H 	0.13810 0.78750 0.46150 0.03200
C 	C 	0.09100 0.79110 0.43820 -0.00500
C 	C 	0.07380 0.78717 0.40650 0.02700
H 	H 	0.05000 0.79130 0.40500 0.08600
C 	C 	0.07070 0.80180 0.46861 0.01500
C 	C 	0.04200 0.82390 0.46857 -0.05500
H 	H 	0.03240 0.83130 0.44750 0.04700
Sm	Sm	0.58890 0.25667 0.75693 2.09800
O 	O 	0.53846 0.28070 0.84240 -0.53200
O 	O 	0.58729 0.26220 0.81849 -0.54600
O 	O 	0.69982 0.26102 0.88257 -0.46300
O 	O 	0.69990 0.26720 0.93899 -0.42000
O 	O 	0.56107 0.24880 0.70050 -0.44200
O 	O 	0.61683 0.25650 0.70025 -0.47800
O 	O 	0.68207 0.24478 0.58739 -0.57800
O 	O 	0.66060 0.20380 0.55370 -0.58900
O 	O 	0.52831 0.26985 0.76763 -0.69800
C 	C 	0.57071 0.27366 0.84390 0.48600
C 	C 	0.59190 0.27990 0.87640 -0.05500
C 	C 	0.62670 0.27000 0.87640 0.01900
H 	H 	0.63650 0.25990 0.85660 0.01500
C 	C 	0.64710 0.27530 0.90590 -0.01800
C 	C 	0.63250 0.29040 0.93540 -0.01400
H 	H 	0.64610 0.29400 0.95520 0.02800
C 	C 	0.59770 0.30030 0.93540 -0.01500
C 	C 	0.57730 0.29500 0.90590 -0.02700
H 	H 	0.55400 0.30160 0.90590 -0.05700
C 	C 	0.68419 0.26729 0.91070 0.32500
C 	C 	0.58570 0.31640 0.96860 0.05100
C 	C 	0.56200 0.34410 0.96857 -0.04900
H 	H 	0.55410 0.35320 0.94750 0.04700
C 	C 	0.58946 0.24896 0.68474 0.36000
C 	C 	0.59121 0.24000 0.64685 -0.12800
C 	C 	0.62210 0.24060 0.62791 0.09500
H 	H 	0.64210 0.25030 0.63760 0.00300
C 	C 	0.62313 0.22680 0.59442 -0.20300
C 	C 	0.59326 0.21230 0.57987 0.06200
H 	H 	0.59390 0.20310 0.55750 0.02200
C 	C 	0.56237 0.21170 0.59880 -0.06600
C 	C 	0.56134 0.22550 0.63230 0.02800
H 	H 	0.54070 0.22500 0.64500 0.04800
C 	C 	0.65810 0.22540 0.57747 0.54400
C 	C 	0.53123 0.19710 0.58170 0.11800
C 	C 	0.53153 0.17060 0.55690 -0.16200
H 	H 	0.55260 0.16180 0.54870 0.09500
C 	C 	0.59230 0.27706 0.87700 -0.06300
C 	C 	0.62790 0.27085 0.87920 0.00300
H 	H 	0.64030 0.26410 0.85940 0.01100
C 	C 	0.64510 0.27475 0.91080 -0.04900
C 	C 	0.62660 0.28490 0.94030 -0.00000
H 	H 	0.63810 0.28750 0.96150 0.03700
C 	C 	0.59100 0.29110 0.93820 -0.00000
C 	C 	0.57380 0.28717 0.90650 0.03000
H 	H 	0.55000 0.29130 0.90500 0.09400
C 	C 	0.57070 0.30180 0.96861 0.03100
C 	C 	0.54200 0.32390 0.96857 -0.05100
H 	H 	0.53240 0.33130 0.94750 0.04800
Sm	Sm	0.91110 0.24333 0.25693 2.09700
O 	O 	0.96154 0.21930 0.34240 -0.52500
O 	O 	0.91271 0.23780 0.31849 -0.54500
O 	O 	0.80018 0.23898 0.38257 -0.46300
O 	O 	0.80010 0.23280 0.43899 -0.42200
O 	O 	0.93893 0.25120 0.20050 -0.44000
O 	O 	0.88317 0.24350 0.20025 -0.47800
O 	O 	0.81793 0.25522 0.08739 -0.57800
O 	O 	0.83940 0.29620 0.05370 -0.58700
O 	O 	0.97169 0.23015 0.26763 -0.68600
C 	C 	0.92929 0.22634 0.34390 0.48500
C 	C 	0.90810 0.22010 0.37640 -0.05500
C 	C 	0.87330 0.23000 0.37640 0.01900
H 	H 	0.86350 0.24010 0.35660 0.01500
C 	C 	0.85290 0.22470 0.40590 -0.01900
C 	C 	0.86750 0.20960 0.43540 -0.01300
H 	H 	0.85390 0.20600 0.45520 0.03000
C 	C 	0.90230 0.19970 0.43540 -0.01900
C 	C 	0.92270 0.20500 0.40590 -0.02700
H 	H 	0.94600 0.19840 0.40590 -0.05300
C 	C 	0.81581 0.23271 0.41070 0.32600
C 	C 	0.91430 0.18360 0.46860 0.03200
C 	C 	0.93800 0.15590 0.46857 -0.04600
H 	H 	0.94590 0.14680 0.44750 0.04600
C 	C 	0.91054 0.25104 0.18474 0.35900
C 	C 	0.90879 0.26000 0.14685 -0.12700
C 	C 	0.87790 0.25940 0.12791 0.09400
H 	H 	0.85790 0.24970 0.13760 0.00300
C 	C 	0.87687 0.27320 0.09442 -0.20200
C 	C 	0.90674 0.28770 0.07987 0.06100
H 	H 	0.90610 0.29690 0.05750 0.02200
C 	C 	0.93763 0.28830 0.09880 -0.06400
C 	C 	0.93866 0.27450 0.13230 0.02700
H 	H 	0.95930 0.27500 0.14500 0.05100
C 	C 	0.84190 0.27460 0.07747 0.54200
C 	C 	0.96877 0.30290 0.08170 0.11900
C 	C 	0.96847 0.32940 0.05690 -0.14600
H 	H 	0.94740 0.33820 0.04870 0.09000
C 	C 	0.90770 0.22294 0.37700 -0.06300
C 	C 	0.87210 0.22915 0.37920 0.00300
H 	H 	0.85970 0.23590 0.35940 0.01100
C 	C 	0.85490 0.22525 0.41080 -0.04900
C 	C 	0.87340 0.21510 0.44030 -0.00100
H 	H 	0.86190 0.21250 0.46150 0.03100
C 	C 	0.90900 0.20890 0.43820 0.00500
C 	C 	0.92620 0.21283 0.40650 0.02900
H 	H 	0.95000 0.20870 0.40500 0.09200
C 	C 	0.92930 0.19820 0.46861 0.04400
C 	C 	0.95800 0.17610 0.46857 -0.06100
H 	H 	0.96760 0.16870 0.44750 0.05200
Sm	Sm	0.41110 0.74333 0.75693 2.09800
O 	O 	0.46154 0.71930 0.84240 -0.53200
O 	O 	0.41271 0.73780 0.81849 -0.54600
O 	O 	0.30018 0.73898 0.88257 -0.46300
O 	O 	0.30010 0.73280 0.93899 -0.42000
O 	O 	0.43893 0.75120 0.70050 -0.44200
O 	O 	0.38317 0.74350 0.70025 -0.47800
O 	O 	0.31793 0.75522 0.58739 -0.57800
O 	O 	0.33940 0.79620 0.55370 -0.58900
O 	O 	0.47169 0.73015 0.76763 -0.69800
C 	C 	0.42929 0.72634 0.84390 0.48600
C 	C 	0.40810 0.72010 0.87640 -0.05500
C 	C 	0.37330 0.73000 0.87640 0.01900
H 	H 	0.36350 0.74010 0.85660 0.01500
C 	C 	0.35290 0.72470 0.90590 -0.01800
C 	C 	0.36750 0.70960 0.93540 -0.01400
H 	H 	0.35390 0.70600 0.95520 0.02700
C 	C 	0.40230 0.69970 0.93540 -0.01500
C 	C 	0.42270 0.70500 0.90590 -0.02700
H 	H 	0.44600 0.69840 0.90590 -0.05800
C 	C 	0.31581 0.73271 0.91070 0.32500
C 	C 	0.41430 0.68360 0.96860 0.05100
C 	C 	0.43800 0.65590 0.96857 -0.04900
H 	H 	0.44590 0.64680 0.94750 0.04700
C 	C 	0.41054 0.75104 0.68474 0.36000
C 	C 	0.40879 0.76000 0.64685 -0.12800
C 	C 	0.37790 0.75940 0.62791 0.09500
H 	H 	0.35790 0.74970 0.63760 0.00300
C 	C 	0.37687 0.77320 0.59442 -0.20300
C 	C 	0.40674 0.78770 0.57987 0.06200
H 	H 	0.40610 0.79690 0.55750 0.02200
C 	C 	0.43763 0.78830 0.59880 -0.06600
C 	C 	0.43866 0.77450 0.63230 0.02800
H 	H 	0.45930 0.77500 0.64500 0.04800
C 	C 	0.34190 0.77460 0.57747 0.54400
C 	C 	0.46877 0.80290 0.58170 0.11800
C 	C 	0.46847 0.82940 0.55690 -0.16200
H 	H 	0.44740 0.83820 0.54870 0.09500
C 	C 	0.40770 0.72294 0.87700 -0.06300
C 	C 	0.37210 0.72915 0.87920 0.00300
H 	H 	0.35970 0.73590 0.85940 0.01100
C 	C 	0.35490 0.72525 0.91080 -0.04900
C 	C 	0.37340 0.71510 0.94030 -0.00000
H 	H 	0.36190 0.71250 0.96150 0.03700
C 	C 	0.40900 0.70890 0.93820 -0.00000
C 	C 	0.42620 0.71283 0.90650 0.03100
H 	H 	0.45000 0.70870 0.90500 0.09500
C 	C 	0.42930 0.69820 0.96861 0.03100
C 	C 	0.45800 0.67610 0.96857 -0.05100
H 	H 	0.46760 0.66870 0.94750 0.04800
Sm	Sm	0.08890 0.24333 0.74307 2.09600
O 	O 	0.03846 0.21930 0.65760 -0.53100
O 	O 	0.08729 0.23780 0.68151 -0.54500
O 	O 	0.19982 0.23898 0.61743 -0.46300
O 	O 	0.19990 0.23280 0.56101 -0.42200
O 	O 	0.06107 0.25120 0.79950 -0.44300
O 	O 	0.11683 0.24350 0.79975 -0.47800
O 	O 	0.18207 0.25522 0.91261 -0.57700
O 	O 	0.16060 0.29620 0.94630 -0.58300
O 	O 	0.02831 0.23015 0.73237 -0.69400
C 	C 	0.07071 0.22634 0.65610 0.48500
C 	C 	0.09190 0.22010 0.62360 -0.05500
C 	C 	0.12670 0.23000 0.62360 0.01900
H 	H 	0.13650 0.24010 0.64340 0.01500
C 	C 	0.14710 0.22470 0.59410 -0.01900
C 	C 	0.13250 0.20960 0.56460 -0.01300
H 	H 	0.14610 0.20600 0.54480 0.02900
C 	C 	0.09770 0.19970 0.56460 -0.01100
C 	C 	0.07730 0.20500 0.59410 -0.02400
H 	H 	0.05400 0.19840 0.59410 -0.05100
C 	C 	0.18419 0.23271 0.58930 0.32500
C 	C 	0.08570 0.18360 0.53140 0.06400
C 	C 	0.06200 0.15590 0.53143 -0.06800
H 	H 	0.05410 0.14680 0.55250 0.05200
C 	C 	0.08946 0.25104 0.81526 0.36000
C 	C 	0.09121 0.26000 0.85315 -0.12700
C 	C 	0.12210 0.25940 0.87209 0.09300
H 	H 	0.14210 0.24970 0.86240 0.00400
C 	C 	0.12313 0.27320 0.90558 -0.20000
C 	C 	0.09326 0.28770 0.92013 0.06000
H 	H 	0.09390 0.29690 0.94250 0.02400
C 	C 	0.06237 0.28830 0.90120 -0.06400
C 	C 	0.06134 0.27450 0.86770 0.02700
H 	H 	0.04070 0.27500 0.85500 0.04700
C 	C 	0.15810 0.27460 0.92253 0.54100
C 	C 	0.03123 0.30290 0.91830 0.11300
C 	C 	0.03153 0.32940 0.94310 -0.15300
H 	H 	0.05260 0.33820 0.95130 0.09300
C 	C 	0.09230 0.22294 0.62300 -0.06400
C 	C 	0.12790 0.22915 0.62080 0.00300
H 	H 	0.14030 0.23590 0.64060 0.01100
C 	C 	0.14510 0.22525 0.58920 -0.04900
C 	C 	0.12660 0.21510 0.55970 -0.00200
H 	H 	0.13810 0.21250 0.53850 0.03300
C 	C 	0.09100 0.20890 0.56180 -0.00500
C 	C 	0.07380 0.21283 0.59350 0.02800
H 	H 	0.05000 0.20870 0.59500 0.08700
C 	C 	0.07070 0.19820 0.53139 0.01500
C 	C 	0.04200 0.17610 0.53143 -0.05400
H 	H 	0.03240 0.16870 0.55250 0.04600
Sm	Sm	0.58890 0.74333 0.24307 2.09800
O 	O 	0.53846 0.71930 0.15760 -0.53200
O 	O 	0.58729 0.73780 0.18151 -0.54600
O 	O 	0.69982 0.73898 0.11743 -0.46300
O 	O 	0.69990 0.73280 0.06101 -0.42300
O 	O 	0.56107 0.75120 0.29950 -0.44200
O 	O 	0.61683 0.74350 0.29975 -0.47800
O 	O 	0.68207 0.75522 0.41261 -0.57800
O 	O 	0.66060 0.79620 0.44630 -0.58900
O 	O 	0.52831 0.73015 0.23237 -0.69800
C 	C 	0.57071 0.72634 0.15610 0.48600
C 	C 	0.59190 0.72010 0.12360 -0.05500
C 	C 	0.62670 0.73000 0.12360 0.01900
H 	H 	0.63650 0.74010 0.14340 0.01500
C 	C 	0.64710 0.72470 0.09410 -0.01900
C 	C 	0.63250 0.70960 0.06460 -0.01300
H 	H 	0.64610 0.70600 0.04480 0.03100
C 	C 	0.59770 0.69970 0.06460 -0.01500
C 	C 	0.57730 0.70500 0.09410 -0.02600
H 	H 	0.55400 0.69840 0.09410 -0.05100
C 	C 	0.68419 0.73271 0.08930 0.32600
C 	C 	0.58570 0.68360 0.03140 0.04700
C 	C 	0.56200 0.65590 0.03143 -0.05500
H 	H 	0.55410 0.64680 0.05250 0.04800
C 	C 	0.58946 0.75104 0.31526 0.36000
C 	C 	0.59121 0.76000 0.35315 -0.12800
C 	C 	0.62210 0.75940 0.37209 0.09500
H 	H 	0.64210 0.74970 0.36240 0.00300
C 	C 	0.62313 0.77320 0.40558 -0.20300
C 	C 	0.59326 0.78770 0.42013 0.06200
H 	H 	0.59390 0.79690 0.44250 0.02200
C 	C 	0.56237 0.78830 0.40120 -0.06600
C 	C 	0.56134 0.77450 0.36770 0.02800
H 	H 	0.54070 0.77500 0.35500 0.04800
C 	C 	0.65810 0.77460 0.42253 0.54400
C 	C 	0.53123 0.80290 0.41830 0.11800
C 	C 	0.53153 0.82940 0.44310 -0.16200
H 	H 	0.55260 0.83820 0.45130 0.09500
C 	C 	0.59230 0.72294 0.12300 -0.06300
C 	C 	0.62790 0.72915 0.12080 0.00300
H 	H 	0.64030 0.73590 0.14060 0.01100
C 	C 	0.64510 0.72525 0.08920 -0.04900
C 	C 	0.62660 0.71510 0.05970 -0.00200
H 	H 	0.63810 0.71250 0.03850 0.03000
C 	C 	0.59100 0.70890 0.06180 -0.00000
C 	C 	0.57380 0.71283 0.09350 0.02800
H 	H 	0.55000 0.70870 0.09500 0.08800
C 	C 	0.57070 0.69820 0.03139 0.02800
C 	C 	0.54200 0.67610 0.03143 -0.05600
H 	H 	0.53240 0.66870 0.05250 0.04800
Sm	Sm	0.30942 0.00000 0.18572 2.23200
O 	O 	0.32370 0.00000 0.11910 -0.42800
O 	O 	0.36860 0.00000 0.15330 -0.42800
N 	N 	0.09430 0.00000 0.28940 -0.14000
C 	C 	0.04450 0.00000 0.34260 0.06300
H 	H 	0.02800 0.00000 0.36030 0.00500
C 	C 	0.25690 0.00000 0.24190 0.66900
H 	H 	0.24050 0.00000 0.25970 -0.19600
C 	C 	0.35570 0.00000 0.12330 0.41400
H 	H 	0.37040 0.00000 0.10400 -0.10200
Sm	Sm	0.80942 0.50000 0.68572 2.25100
O 	O 	0.82370 0.50000 0.61910 -0.42500
O 	O 	0.86860 0.50000 0.65330 -0.42500
N 	N 	0.59430 0.50000 0.78940 -0.13600
C 	C 	0.54450 0.50000 0.84260 0.08300
H 	H 	0.52800 0.50000 0.86030 0.00400
C 	C 	0.75690 0.50000 0.74190 0.68600
H 	H 	0.74050 0.50000 0.75970 -0.19900
C 	C 	0.85570 0.50000 0.62330 0.41300
H 	H 	0.87040 0.50000 0.60400 -0.09800
Sm	Sm	0.69058 0.00000 0.18572 2.23200
O 	O 	0.67630 0.00000 0.11910 -0.42800
O 	O 	0.63140 0.00000 0.15330 -0.42800
N 	N 	0.90570 0.00000 0.28940 -0.14000
C 	C 	0.95550 0.00000 0.34260 0.06400
H 	H 	0.97200 0.00000 0.36030 0.01000
C 	C 	0.74310 0.00000 0.24190 0.67000
H 	H 	0.75950 0.00000 0.25970 -0.19600
C 	C 	0.64430 0.00000 0.12330 0.41400
H 	H 	0.62960 0.00000 0.10400 -0.10200
Sm	Sm	0.19058 0.50000 0.68572 2.25100
O 	O 	0.17630 0.50000 0.61910 -0.42500
O 	O 	0.13140 0.50000 0.65330 -0.42600
N 	N 	0.40570 0.50000 0.78940 -0.13600
C 	C 	0.45550 0.50000 0.84260 0.08300
H 	H 	0.47200 0.50000 0.86030 0.00400
C 	C 	0.24310 0.50000 0.74190 0.68600
H 	H 	0.25950 0.50000 0.75970 -0.19900
C 	C 	0.14430 0.50000 0.62330 0.41300
H 	H 	0.12960 0.50000 0.60400 -0.09900
Sm	Sm	0.69058 0.00000 0.81428 2.23200
O 	O 	0.67630 0.00000 0.88090 -0.42700
O 	O 	0.63140 0.00000 0.84670 -0.42800
N 	N 	0.90570 0.00000 0.71060 -0.14000
C 	C 	0.95550 0.00000 0.65740 0.06400
H 	H 	0.97200 0.00000 0.63970 0.01000
C 	C 	0.74310 0.00000 0.75810 0.67000
H 	H 	0.75950 0.00000 0.74030 -0.19600
C 	C 	0.64430 -0.00000 0.87670 0.41300
H 	H 	0.62960 0.00000 0.89600 -0.10000
Sm	Sm	0.19058 0.50000 0.31428 2.25100
O 	O 	0.17630 0.50000 0.38090 -0.42500
O 	O 	0.13140 0.50000 0.34670 -0.42600
N 	N 	0.40570 0.50000 0.21060 -0.13600
C 	C 	0.45550 0.50000 0.15740 0.08300
H 	H 	0.47200 0.50000 0.13970 0.00300
C 	C 	0.24310 0.50000 0.25810 0.68600
H 	H 	0.25950 0.50000 0.24030 -0.19900
C 	C 	0.14430 0.50000 0.37670 0.41300
H 	H 	0.12960 0.50000 0.39600 -0.09900
Sm	Sm	0.30942 0.00000 0.81428 2.23200
O 	O 	0.32370 0.00000 0.88090 -0.42700
O 	O 	0.36860 0.00000 0.84670 -0.42700
N 	N 	0.09430 0.00000 0.71060 -0.14000
C 	C 	0.04450 0.00000 0.65740 0.06300
H 	H 	0.02800 0.00000 0.63970 0.00500
C 	C 	0.25690 0.00000 0.75810 0.67000
H 	H 	0.24050 0.00000 0.74030 -0.19600
C 	C 	0.35570 -0.00000 0.87670 0.41300
H 	H 	0.37040 0.00000 0.89600 -0.10000
Sm	Sm	0.80942 0.50000 0.31428 2.25100
O 	O 	0.82370 0.50000 0.38090 -0.42500
O 	O 	0.86860 0.50000 0.34670 -0.42500
N 	N 	0.59430 0.50000 0.21060 -0.13600
C 	C 	0.54450 0.50000 0.15740 0.08300
H 	H 	0.52800 0.50000 0.13970 0.00300
C 	C 	0.75690 0.50000 0.25810 0.68600
H 	H 	0.74050 0.50000 0.24030 -0.19900
C 	C 	0.85570 0.50000 0.37670 0.41300
H 	H 	0.87040 0.50000 0.39600 -0.09800
Sm	Sm	0.18572 0.30942 -0.00000 2.23200
O 	O 	0.11910 0.32370 -0.00000 -0.42800
O 	O 	0.15330 0.36860 -0.00000 -0.42800
N 	N 	0.28940 0.09430 -0.00000 -0.14000
C 	C 	0.34260 0.04450 -0.00000 0.06300
H 	H 	0.36030 0.02800 -0.00000 0.00500
C 	C 	0.24190 0.25690 -0.00000 0.66900
H 	H 	0.25970 0.24050 -0.00000 -0.19600
C 	C 	0.12330 0.35570 -0.00000 0.41400
H 	H 	0.10400 0.37040 -0.00000 -0.10200
Sm	Sm	0.68572 0.80942 0.50000 2.25100
O 	O 	0.61910 0.82370 0.50000 -0.42500
O 	O 	0.65330 0.86860 0.50000 -0.42500
N 	N 	0.78940 0.59430 0.50000 -0.13600
C 	C 	0.84260 0.54450 0.50000 0.08300
H 	H 	0.86030 0.52800 0.50000 0.00400
C 	C 	0.74190 0.75690 0.50000 0.68600
H 	H 	0.75970 0.74050 0.50000 -0.19900
C 	C 	0.62330 0.85570 0.50000 0.41300
H 	H 	0.60400 0.87040 0.50000 -0.09800
Sm	Sm	0.18572 0.69058 -0.00000 2.23200
O 	O 	0.11910 0.67630 -0.00000 -0.42800
O 	O 	0.15330 0.63140 -0.00000 -0.42800
N 	N 	0.28940 0.90570 -0.00000 -0.14000
C 	C 	0.34260 0.95550 -0.00000 0.06400
H 	H 	0.36030 0.97200 -0.00000 0.01000
C 	C 	0.24190 0.74310 -0.00000 0.67000
H 	H 	0.25970 0.75950 -0.00000 -0.19600
C 	C 	0.12330 0.64430 -0.00000 0.41400
H 	H 	0.10400 0.62960 -0.00000 -0.10200
Sm	Sm	0.68572 0.19058 0.50000 2.25100
O 	O 	0.61910 0.17630 0.50000 -0.42500
O 	O 	0.65330 0.13140 0.50000 -0.42600
N 	N 	0.78940 0.40570 0.50000 -0.13600
C 	C 	0.84260 0.45550 0.50000 0.08300
H 	H 	0.86030 0.47200 0.50000 0.00400
C 	C 	0.74190 0.24310 0.50000 0.68600
H 	H 	0.75970 0.25950 0.50000 -0.19900
C 	C 	0.62330 0.14430 0.50000 0.41300
H 	H 	0.60400 0.12960 0.50000 -0.09900
Sm	Sm	0.81428 0.69058 -0.00000 2.23200
O 	O 	0.88090 0.67630 -0.00000 -0.42700
O 	O 	0.84670 0.63140 -0.00000 -0.42800
N 	N 	0.71060 0.90570 -0.00000 -0.14000
C 	C 	0.65740 0.95550 -0.00000 0.06400
H 	H 	0.63970 0.97200 -0.00000 0.01000
C 	C 	0.75810 0.74310 -0.00000 0.67000
H 	H 	0.74030 0.75950 -0.00000 -0.19600
C 	C 	0.87670 0.64430 -0.00000 0.41300
H 	H 	0.89600 0.62960 -0.00000 -0.10000
Sm	Sm	0.31428 0.19058 0.50000 2.25100
O 	O 	0.38090 0.17630 0.50000 -0.42500
O 	O 	0.34670 0.13140 0.50000 -0.42600
N 	N 	0.21060 0.40570 0.50000 -0.13600
C 	C 	0.15740 0.45550 0.50000 0.08300
H 	H 	0.13970 0.47200 0.50000 0.00300
C 	C 	0.25810 0.24310 0.50000 0.68600
H 	H 	0.24030 0.25950 0.50000 -0.19900
C 	C 	0.37670 0.14430 0.50000 0.41300
H 	H 	0.39600 0.12960 0.50000 -0.09900
Sm	Sm	0.81428 0.30942 -0.00000 2.23200
O 	O 	0.88090 0.32370 -0.00000 -0.42700
O 	O 	0.84670 0.36860 -0.00000 -0.42700
N 	N 	0.71060 0.09430 -0.00000 -0.14000
C 	C 	0.65740 0.04450 -0.00000 0.06300
H 	H 	0.63970 0.02800 -0.00000 0.00500
C 	C 	0.75810 0.25690 -0.00000 0.67000
H 	H 	0.74030 0.24050 -0.00000 -0.19600
C 	C 	0.87670 0.35570 -0.00000 0.41300
H 	H 	0.89600 0.37040 -0.00000 -0.10000
Sm	Sm	0.31428 0.80942 0.50000 2.25100
O 	O 	0.38090 0.82370 0.50000 -0.42500
O 	O 	0.34670 0.86860 0.50000 -0.42500
N 	N 	0.21060 0.59430 0.50000 -0.13600
C 	C 	0.15740 0.54450 0.50000 0.08300
H 	H 	0.13970 0.52800 0.50000 0.00300
C 	C 	0.25810 0.75690 0.50000 0.68600
H 	H 	0.24030 0.74050 0.50000 -0.19900
C 	C 	0.37670 0.85570 0.50000 0.41300
H 	H 	0.39600 0.87040 0.50000 -0.09800
Sm	Sm	0.00000 0.18572 0.30942 2.23200
O 	O 	0.00000 0.11910 0.32370 -0.42800
O 	O 	-0.00000 0.15330 0.36860 -0.42800
N 	N 	0.00000 0.28940 0.09430 -0.14000
C 	C 	0.00000 0.34260 0.04450 0.06300
H 	H 	0.00000 0.36030 0.02800 0.00500
C 	C 	0.00000 0.24190 0.25690 0.66900
H 	H 	0.00000 0.25970 0.24050 -0.19600
C 	C 	0.00000 0.12330 0.35570 0.41400
H 	H 	-0.00000 0.10400 0.37040 -0.10200
Sm	Sm	0.50000 0.68572 0.80942 2.25100
O 	O 	0.50000 0.61910 0.82370 -0.42500
O 	O 	0.50000 0.65330 0.86860 -0.42500
N 	N 	0.50000 0.78940 0.59430 -0.13600
C 	C 	0.50000 0.84260 0.54450 0.08300
H 	H 	0.50000 0.86030 0.52800 0.00400
C 	C 	0.50000 0.74190 0.75690 0.68600
H 	H 	0.50000 0.75970 0.74050 -0.19900
C 	C 	0.50000 0.62330 0.85570 0.41300
H 	H 	0.50000 0.60400 0.87040 -0.09800
Sm	Sm	-0.00000 0.18572 0.69058 2.23200
O 	O 	0.00000 0.11910 0.67630 -0.42800
O 	O 	0.00000 0.15330 0.63140 -0.42800
N 	N 	0.00000 0.28940 0.90570 -0.14000
C 	C 	0.00000 0.34260 0.95550 0.06400
H 	H 	0.00000 0.36030 0.97200 0.01000
C 	C 	0.00000 0.24190 0.74310 0.67000
H 	H 	0.00000 0.25970 0.75950 -0.19600
C 	C 	0.00000 0.12330 0.64430 0.41400
H 	H 	-0.00000 0.10400 0.62960 -0.10200
Sm	Sm	0.50000 0.68572 0.19058 2.25100
O 	O 	0.50000 0.61910 0.17630 -0.42500
O 	O 	0.50000 0.65330 0.13140 -0.42600
N 	N 	0.50000 0.78940 0.40570 -0.13600
C 	C 	0.50000 0.84260 0.45550 0.08300
H 	H 	0.50000 0.86030 0.47200 0.00400
C 	C 	0.50000 0.74190 0.24310 0.68600
H 	H 	0.50000 0.75970 0.25950 -0.19900
C 	C 	0.50000 0.62330 0.14430 0.41300
H 	H 	0.50000 0.60400 0.12960 -0.09900
Sm	Sm	0.00000 0.81428 0.69058 2.23200
O 	O 	0.00000 0.88090 0.67630 -0.42700
O 	O 	0.00000 0.84670 0.63140 -0.42800
N 	N 	0.00000 0.71060 0.90570 -0.14000
C 	C 	-0.00000 0.65740 0.95550 0.06400
H 	H 	-0.00000 0.63970 0.97200 0.01000
C 	C 	0.00000 0.75810 0.74310 0.67000
H 	H 	0.00000 0.74030 0.75950 -0.19600
C 	C 	0.00000 0.87670 0.64430 0.41300
H 	H 	0.00000 0.89600 0.62960 -0.10000
Sm	Sm	0.50000 0.31428 0.19058 2.25100
O 	O 	0.50000 0.38090 0.17630 -0.42500
O 	O 	0.50000 0.34670 0.13140 -0.42600
N 	N 	0.50000 0.21060 0.40570 -0.13600
C 	C 	0.50000 0.15740 0.45550 0.08300
H 	H 	0.50000 0.13970 0.47200 0.00300
C 	C 	0.50000 0.25810 0.24310 0.68600
H 	H 	0.50000 0.24030 0.25950 -0.19900
C 	C 	0.50000 0.37670 0.14430 0.41300
H 	H 	0.50000 0.39600 0.12960 -0.09900
Sm	Sm	0.00000 0.81428 0.30942 2.23200
O 	O 	0.00000 0.88090 0.32370 -0.42700
O 	O 	0.00000 0.84670 0.36860 -0.42700
N 	N 	-0.00000 0.71060 0.09430 -0.14000
C 	C 	0.00000 0.65740 0.04450 0.06300
H 	H 	0.00000 0.63970 0.02800 0.00500
C 	C 	0.00000 0.75810 0.25690 0.67000
H 	H 	0.00000 0.74030 0.24050 -0.19600
C 	C 	-0.00000 0.87670 0.35570 0.41300
H 	H 	0.00000 0.89600 0.37040 -0.10000
Sm	Sm	0.50000 0.31428 0.80942 2.25100
O 	O 	0.50000 0.38090 0.82370 -0.42500
O 	O 	0.50000 0.34670 0.86860 -0.42500
N 	N 	0.50000 0.21060 0.59430 -0.13600
C 	C 	0.50000 0.15740 0.54450 0.08300
H 	H 	0.50000 0.13970 0.52800 0.00300
C 	C 	0.50000 0.25810 0.75690 0.68600
H 	H 	0.50000 0.24030 0.74050 -0.19900
C 	C 	0.50000 0.37670 0.85570 0.41300
H 	H 	0.50000 0.39600 0.87040 -0.09800
N 	N 	0.50000 0.09730 0.19710 -0.08400
C 	C 	0.50000 0.05010 0.14210 -0.00400
H 	H 	0.50000 0.03440 0.12360 0.02600
N 	N 	0.50000 0.08500 0.20930 -0.05000
C 	C 	0.50000 0.02760 0.16490 0.02300
H 	H 	0.50000 0.00840 0.15010 -0.01700
N 	N 	0.00000 0.59730 0.69710 -0.07900
C 	C 	0.00000 0.55010 0.64210 -0.01600
H 	H 	0.00000 0.53440 0.62360 0.02900
N 	N 	0.00000 0.58500 0.70930 -0.05900
C 	C 	0.00000 0.52760 0.66490 0.00200
H 	H 	0.00000 0.50840 0.65010 0.01300
N 	N 	0.50000 0.90270 0.19710 -0.06700
C 	C 	0.50000 0.94990 0.14210 -0.01000
H 	H 	0.50000 0.96560 0.12360 0.02900
N 	N 	0.50000 0.91500 0.20930 -0.06500
C 	C 	0.50000 0.97240 0.16490 -0.00300
H 	H 	0.50000 0.99160 0.15010 0.04100
N 	N 	0.00000 0.40270 0.69710 -0.07900
C 	C 	0.00000 0.44990 0.64210 -0.01600
H 	H 	0.00000 0.46560 0.62360 0.02900
N 	N 	0.00000 0.41500 0.70930 -0.05900
C 	C 	0.00000 0.47240 0.66490 0.00300
H 	H 	0.00000 0.49160 0.65010 0.01300
N 	N 	0.50000 0.09730 0.80290 -0.08400
C 	C 	0.50000 0.05010 0.85790 -0.00400
H 	H 	0.50000 0.03440 0.87640 0.02700
N 	N 	0.50000 0.08500 0.79070 -0.04900
C 	C 	0.50000 0.02760 0.83510 0.02300
H 	H 	0.50000 0.00840 0.84990 -0.01700
N 	N 	-0.00000 0.59730 0.30290 -0.07900
C 	C 	-0.00000 0.55010 0.35790 -0.01600
H 	H 	0.00000 0.53440 0.37640 0.02900
N 	N 	0.00000 0.58500 0.29070 -0.05900
C 	C 	0.00000 0.52760 0.33510 0.00300
H 	H 	0.00000 0.50840 0.34990 0.01300
N 	N 	0.50000 0.90270 0.80290 -0.06700
C 	C 	0.50000 0.94990 0.85790 -0.01000
H 	H 	0.50000 0.96560 0.87640 0.03000
N 	N 	0.50000 0.91500 0.79070 -0.06400
C 	C 	0.50000 0.97240 0.83510 -0.00300
H 	H 	0.50000 0.99160 0.84990 0.04100
N 	N 	-0.00000 0.40270 0.30290 -0.07900
C 	C 	0.00000 0.44990 0.35790 -0.01600
H 	H 	-0.00000 0.46560 0.37640 0.02900
N 	N 	0.00000 0.41500 0.29070 -0.05900
C 	C 	0.00000 0.47240 0.33510 0.00300
H 	H 	0.00000 0.49160 0.34990 0.01300
N 	N 	0.19710 0.50000 0.09730 -0.08400
C 	C 	0.14210 0.50000 0.05010 -0.00400
H 	H 	0.12360 0.50000 0.03440 0.02600
N 	N 	0.20930 0.50000 0.08500 -0.05000
C 	C 	0.16490 0.50000 0.02760 0.02300
H 	H 	0.15010 0.50000 0.00840 -0.01700
N 	N 	0.69710 0.00000 0.59730 -0.07900
C 	C 	0.64210 0.00000 0.55010 -0.01600
H 	H 	0.62360 0.00000 0.53440 0.02900
N 	N 	0.70930 0.00000 0.58500 -0.05900
C 	C 	0.66490 0.00000 0.52760 0.00200
H 	H 	0.65010 0.00000 0.50840 0.01300
N 	N 	0.19710 0.50000 0.90270 -0.06700
C 	C 	0.14210 0.50000 0.94990 -0.01000
H 	H 	0.12360 0.50000 0.96560 0.02900
N 	N 	0.20930 0.50000 0.91500 -0.06500
C 	C 	0.16490 0.50000 0.97240 -0.00300
H 	H 	0.15010 0.50000 0.99160 0.04100
N 	N 	0.69710 0.00000 0.40270 -0.07900
C 	C 	0.64210 0.00000 0.44990 -0.01600
H 	H 	0.62360 -0.00000 0.46560 0.02900
N 	N 	0.70930 0.00000 0.41500 -0.05900
C 	C 	0.66490 0.00000 0.47240 0.00300
H 	H 	0.65010 0.00000 0.49160 0.01300
N 	N 	0.80290 0.50000 0.09730 -0.08400
C 	C 	0.85790 0.50000 0.05010 -0.00400
H 	H 	0.87640 0.50000 0.03440 0.02700
N 	N 	0.79070 0.50000 0.08500 -0.04900
C 	C 	0.83510 0.50000 0.02760 0.02300
H 	H 	0.84990 0.50000 0.00840 -0.01700
N 	N 	0.30290 0.00000 0.59730 -0.07900
C 	C 	0.35790 0.00000 0.55010 -0.01600
H 	H 	0.37640 0.00000 0.53440 0.02900
N 	N 	0.29070 0.00000 0.58500 -0.05900
C 	C 	0.33510 0.00000 0.52760 0.00300
H 	H 	0.34990 0.00000 0.50840 0.01300
N 	N 	0.80290 0.50000 0.90270 -0.06700
C 	C 	0.85790 0.50000 0.94990 -0.01000
H 	H 	0.87640 0.50000 0.96560 0.03000
N 	N 	0.79070 0.50000 0.91500 -0.06400
C 	C 	0.83510 0.50000 0.97240 -0.00300
H 	H 	0.84990 0.50000 0.99160 0.04100
N 	N 	0.30290 0.00000 0.40270 -0.07900
C 	C 	0.35790 0.00000 0.44990 -0.01600
H 	H 	0.37640 -0.00000 0.46560 0.02900
N 	N 	0.29070 0.00000 0.41500 -0.05900
C 	C 	0.33510 0.00000 0.47240 0.00300
H 	H 	0.34990 0.00000 0.49160 0.01300
N 	N 	0.09730 0.19710 0.50000 -0.08400
C 	C 	0.05010 0.14210 0.50000 -0.00400
H 	H 	0.03440 0.12360 0.50000 0.02600
N 	N 	0.08500 0.20930 0.50000 -0.05000
C 	C 	0.02760 0.16490 0.50000 0.02300
H 	H 	0.00840 0.15010 0.50000 -0.01700
N 	N 	0.59730 0.69710 -0.00000 -0.07900
C 	C 	0.55010 0.64210 -0.00000 -0.01600
H 	H 	0.53440 0.62360 -0.00000 0.02900
N 	N 	0.58500 0.70930 -0.00000 -0.05900
C 	C 	0.52760 0.66490 -0.00000 0.00200
H 	H 	0.50840 0.65010 -0.00000 0.01300
N 	N 	0.90270 0.19710 0.50000 -0.06700
C 	C 	0.94990 0.14210 0.50000 -0.01000
H 	H 	0.96560 0.12360 0.50000 0.02900
N 	N 	0.91500 0.20930 0.50000 -0.06500
C 	C 	0.97240 0.16490 0.50000 -0.00300
H 	H 	0.99160 0.15010 0.50000 0.04100
N 	N 	0.40270 0.69710 -0.00000 -0.07900
C 	C 	0.44990 0.64210 -0.00000 -0.01600
H 	H 	0.46560 0.62360 -0.00000 0.02900
N 	N 	0.41500 0.70930 -0.00000 -0.05900
C 	C 	0.47240 0.66490 -0.00000 0.00300
H 	H 	0.49160 0.65010 -0.00000 0.01300
N 	N 	0.09730 0.80290 0.50000 -0.08400
C 	C 	0.05010 0.85790 0.50000 -0.00400
H 	H 	0.03440 0.87640 0.50000 0.02700
N 	N 	0.08500 0.79070 0.50000 -0.04900
C 	C 	0.02760 0.83510 0.50000 0.02300
H 	H 	0.00840 0.84990 0.50000 -0.01700
N 	N 	0.59730 0.30290 -0.00000 -0.07900
C 	C 	0.55010 0.35790 -0.00000 -0.01600
H 	H 	0.53440 0.37640 -0.00000 0.02900
N 	N 	0.58500 0.29070 -0.00000 -0.05900
C 	C 	0.52760 0.33510 -0.00000 0.00300
H 	H 	0.50840 0.34990 -0.00000 0.01300
N 	N 	0.90270 0.80290 0.50000 -0.06700
C 	C 	0.94990 0.85790 0.50000 -0.01000
H 	H 	0.96560 0.87640 0.50000 0.03000
N 	N 	0.91500 0.79070 0.50000 -0.06400
C 	C 	0.97240 0.83510 0.50000 -0.00300
H 	H 	0.99160 0.84990 0.50000 0.04100
N 	N 	0.40270 0.30290 -0.00000 -0.07900
C 	C 	0.44990 0.35790 -0.00000 -0.01600
H 	H 	0.46560 0.37640 -0.00000 0.02900
N 	N 	0.41500 0.29070 -0.00000 -0.05900
C 	C 	0.47240 0.33510 -0.00000 0.00300
H 	H 	0.49160 0.34990 -0.00000 0.01300
