data_crystal

_cell_length_a 35.93400
_cell_length_b 35.93400
_cell_length_c 35.93400
_cell_angle_alpha 90.00000
_cell_angle_beta  90.00000
_cell_angle_gamma 90.00000

_symmetry_space_group_name_	'P 1'
_symmetry_space_group_name_H-M	'P 1'

loop_
_symmetry_equiv_pos_as_xyz
  x,y,z

loop_
_atom_site_label
_atom_site_type_symbol
_atom_site_fract_x
_atom_site_fract_y
_atom_site_fract_z
_atom_site_charge
O 	O 	0.30226 0.29288 0.21259 -0.73500
O 	O 	0.32664 0.24805 0.24854 -0.72500
C 	C 	0.32856 0.27876 0.23172 0.56700
C 	C 	0.36394 0.29979 0.23388 -0.22500
C 	C 	0.39411 0.28566 0.25262 0.12800
H 	H 	0.39230 0.26240 0.26390 -0.00100
C 	C 	0.36697 0.33450 0.21663 0.12500
H 	H 	0.34680 0.34440 0.20390 -0.00200
C 	C 	0.42707 0.30531 0.25503 -0.17200
H 	H 	0.44700 0.29550 0.26830 0.08800
C 	C 	0.40001 0.35408 0.21856 -0.17100
H 	H 	0.40180 0.37710 0.20700 0.08800
C 	C 	0.43067 0.33999 0.23752 0.09100
C 	C 	0.46612 0.36106 0.23975 0.01400
C 	C 	0.46655 0.39955 0.24043 -0.09100
H 	H 	0.44400 0.41230 0.24120 0.05900
C 	C 	0.52590 0.47930 0.22280 -0.03700
H 	H 	0.54610 0.46600 0.21020 0.03700
C 	C 	0.52480 0.47965 0.25960 -0.03500
H 	H 	0.54430 0.46650 0.27350 0.03800
O 	O 	0.69774 0.70712 0.21259 -0.73500
O 	O 	0.67336 0.75195 0.24854 -0.72500
C 	C 	0.67144 0.72124 0.23172 0.56700
C 	C 	0.63606 0.70021 0.23388 -0.22500
C 	C 	0.60589 0.71434 0.25262 0.12800
H 	H 	0.60770 0.73760 0.26390 -0.00100
C 	C 	0.63303 0.66550 0.21663 0.12400
H 	H 	0.65320 0.65560 0.20390 -0.00300
C 	C 	0.57293 0.69469 0.25503 -0.17300
H 	H 	0.55300 0.70450 0.26830 0.08700
C 	C 	0.59999 0.64592 0.21856 -0.17200
H 	H 	0.59820 0.62290 0.20700 0.08700
C 	C 	0.56933 0.66001 0.23752 0.09000
C 	C 	0.53388 0.63894 0.23975 0.01300
C 	C 	0.53345 0.60045 0.24043 -0.09200
H 	H 	0.55600 0.58770 0.24120 0.05800
C 	C 	0.47410 0.52070 0.22280 -0.03800
H 	H 	0.45390 0.53400 0.21020 0.03600
C 	C 	0.47520 0.52035 0.25960 -0.03600
H 	H 	0.45570 0.53350 0.27350 0.03700
O 	O 	0.69774 0.29288 0.78741 -0.73600
O 	O 	0.67336 0.24805 0.75146 -0.72600
C 	C 	0.67144 0.27876 0.76828 0.56600
C 	C 	0.63606 0.29979 0.76612 -0.22600
C 	C 	0.60589 0.28566 0.74738 0.12700
H 	H 	0.60770 0.26240 0.73610 -0.00200
C 	C 	0.63303 0.33450 0.78337 0.12400
H 	H 	0.65320 0.34440 0.79610 -0.00300
C 	C 	0.57293 0.30531 0.74497 -0.17300
H 	H 	0.55300 0.29550 0.73170 0.08700
C 	C 	0.59999 0.35408 0.78144 -0.17200
H 	H 	0.59820 0.37710 0.79300 0.08700
C 	C 	0.56933 0.33999 0.76248 0.09000
C 	C 	0.53388 0.36106 0.76025 0.01300
C 	C 	0.53345 0.39955 0.75957 -0.09200
H 	H 	0.55600 0.41230 0.75880 0.05800
C 	C 	0.47410 0.47930 0.77720 -0.03800
H 	H 	0.45390 0.46600 0.78980 0.03600
C 	C 	0.47520 0.47965 0.74040 -0.03600
H 	H 	0.45570 0.46650 0.72650 0.03700
O 	O 	0.30226 0.70712 0.78741 -0.73600
O 	O 	0.32664 0.75195 0.75146 -0.72600
C 	C 	0.32856 0.72124 0.76828 0.56600
C 	C 	0.36394 0.70021 0.76612 -0.22600
C 	C 	0.39411 0.71434 0.74738 0.12700
H 	H 	0.39230 0.73760 0.73610 -0.00200
C 	C 	0.36697 0.66550 0.78337 0.12400
H 	H 	0.34680 0.65560 0.79610 -0.00300
C 	C 	0.42707 0.69469 0.74497 -0.17300
H 	H 	0.44700 0.70450 0.73170 0.08700
C 	C 	0.40001 0.64592 0.78144 -0.17200
H 	H 	0.40180 0.62290 0.79300 0.08700
C 	C 	0.43067 0.66001 0.76248 0.09000
C 	C 	0.46612 0.63894 0.76025 0.01300
C 	C 	0.46655 0.60045 0.75957 -0.09200
H 	H 	0.44400 0.58770 0.75880 0.05800
C 	C 	0.52590 0.52070 0.77720 -0.03800
H 	H 	0.54610 0.53400 0.78980 0.03600
C 	C 	0.52480 0.52035 0.74040 -0.03600
H 	H 	0.54430 0.53350 0.72650 0.03700
O 	O 	0.21259 0.30226 0.29288 -0.73600
O 	O 	0.24854 0.32664 0.24805 -0.72600
C 	C 	0.23172 0.32856 0.27876 0.56600
C 	C 	0.23388 0.36394 0.29979 -0.22600
C 	C 	0.25262 0.39411 0.28566 0.12700
H 	H 	0.26390 0.39230 0.26240 -0.00200
C 	C 	0.21663 0.36697 0.33450 0.12400
H 	H 	0.20390 0.34680 0.34440 -0.00300
C 	C 	0.25503 0.42707 0.30531 -0.17300
H 	H 	0.26830 0.44700 0.29550 0.08700
C 	C 	0.21856 0.40001 0.35408 -0.17200
H 	H 	0.20700 0.40180 0.37710 0.08700
C 	C 	0.23752 0.43067 0.33999 0.09000
C 	C 	0.23975 0.46612 0.36106 0.01300
C 	C 	0.24043 0.46655 0.39955 -0.09200
H 	H 	0.24120 0.44400 0.41230 0.05800
C 	C 	0.22280 0.52590 0.47930 -0.03800
H 	H 	0.21020 0.54610 0.46600 0.03600
C 	C 	0.25960 0.52480 0.47965 -0.03600
H 	H 	0.27350 0.54430 0.46650 0.03700
O 	O 	0.21259 0.69774 0.70712 -0.73600
O 	O 	0.24854 0.67336 0.75195 -0.72600
C 	C 	0.23172 0.67144 0.72124 0.56600
C 	C 	0.23388 0.63606 0.70021 -0.22600
C 	C 	0.25262 0.60589 0.71434 0.12700
H 	H 	0.26390 0.60770 0.73760 -0.00200
C 	C 	0.21663 0.63303 0.66550 0.12400
H 	H 	0.20390 0.65320 0.65560 -0.00300
C 	C 	0.25503 0.57293 0.69469 -0.17300
H 	H 	0.26830 0.55300 0.70450 0.08700
C 	C 	0.21856 0.59999 0.64592 -0.17200
H 	H 	0.20700 0.59820 0.62290 0.08700
C 	C 	0.23752 0.56933 0.66001 0.09000
C 	C 	0.23975 0.53388 0.63894 0.01300
C 	C 	0.24043 0.53345 0.60045 -0.09200
H 	H 	0.24120 0.55600 0.58770 0.05800
C 	C 	0.22280 0.47410 0.52070 -0.03800
H 	H 	0.21020 0.45390 0.53400 0.03600
C 	C 	0.25960 0.47520 0.52035 -0.03600
H 	H 	0.27350 0.45570 0.53350 0.03700
O 	O 	0.78741 0.69774 0.29288 -0.73600
O 	O 	0.75146 0.67336 0.24805 -0.72600
C 	C 	0.76828 0.67144 0.27876 0.56600
C 	C 	0.76612 0.63606 0.29979 -0.22600
C 	C 	0.74738 0.60589 0.28566 0.12700
H 	H 	0.73610 0.60770 0.26240 -0.00200
C 	C 	0.78337 0.63303 0.33450 0.12400
H 	H 	0.79610 0.65320 0.34440 -0.00300
C 	C 	0.74497 0.57293 0.30531 -0.17300
H 	H 	0.73170 0.55300 0.29550 0.08700
C 	C 	0.78144 0.59999 0.35408 -0.17200
H 	H 	0.79300 0.59820 0.37710 0.08700
C 	C 	0.76248 0.56933 0.33999 0.09000
C 	C 	0.76025 0.53388 0.36106 0.01300
C 	C 	0.75957 0.53345 0.39955 -0.09200
H 	H 	0.75880 0.55600 0.41230 0.05800
C 	C 	0.77720 0.47410 0.47930 -0.03800
H 	H 	0.78980 0.45390 0.46600 0.03600
C 	C 	0.74040 0.47520 0.47965 -0.03600
H 	H 	0.72650 0.45570 0.46650 0.03700
O 	O 	0.78741 0.30226 0.70712 -0.73600
O 	O 	0.75146 0.32664 0.75195 -0.72600
C 	C 	0.76828 0.32856 0.72124 0.56600
C 	C 	0.76612 0.36394 0.70021 -0.22600
C 	C 	0.74738 0.39411 0.71434 0.12700
H 	H 	0.73610 0.39230 0.73760 -0.00200
C 	C 	0.78337 0.36697 0.66550 0.12400
H 	H 	0.79610 0.34680 0.65560 -0.00300
C 	C 	0.74497 0.42707 0.69469 -0.17300
H 	H 	0.73170 0.44700 0.70450 0.08700
C 	C 	0.78144 0.40001 0.64592 -0.17200
H 	H 	0.79300 0.40180 0.62290 0.08700
C 	C 	0.76248 0.43067 0.66001 0.09000
C 	C 	0.76025 0.46612 0.63894 0.01300
C 	C 	0.75957 0.46655 0.60045 -0.09200
H 	H 	0.75880 0.44400 0.58770 0.05800
C 	C 	0.77720 0.52590 0.52070 -0.03800
H 	H 	0.78980 0.54610 0.53400 0.03600
C 	C 	0.74040 0.52480 0.52035 -0.03600
H 	H 	0.72650 0.54430 0.53350 0.03700
O 	O 	0.29288 0.21259 0.30226 -0.73600
O 	O 	0.24805 0.24854 0.32664 -0.72600
C 	C 	0.27876 0.23172 0.32856 0.56600
C 	C 	0.29979 0.23388 0.36394 -0.22600
C 	C 	0.28566 0.25262 0.39411 0.12700
H 	H 	0.26240 0.26390 0.39230 -0.00200
C 	C 	0.33450 0.21663 0.36697 0.12400
H 	H 	0.34440 0.20390 0.34680 -0.00300
C 	C 	0.30531 0.25503 0.42707 -0.17300
H 	H 	0.29550 0.26830 0.44700 0.08700
C 	C 	0.35408 0.21856 0.40001 -0.17200
H 	H 	0.37710 0.20700 0.40180 0.08700
C 	C 	0.33999 0.23752 0.43067 0.09000
C 	C 	0.36106 0.23975 0.46612 0.01300
C 	C 	0.39955 0.24043 0.46655 -0.09200
H 	H 	0.41230 0.24120 0.44400 0.05800
C 	C 	0.47930 0.22280 0.52590 -0.03800
H 	H 	0.46600 0.21020 0.54610 0.03600
C 	C 	0.47965 0.25960 0.52480 -0.03600
H 	H 	0.46650 0.27350 0.54430 0.03700
O 	O 	0.70712 0.21259 0.69774 -0.73600
O 	O 	0.75195 0.24854 0.67336 -0.72600
C 	C 	0.72124 0.23172 0.67144 0.56600
C 	C 	0.70021 0.23388 0.63606 -0.22600
C 	C 	0.71434 0.25262 0.60589 0.12700
H 	H 	0.73760 0.26390 0.60770 -0.00200
C 	C 	0.66550 0.21663 0.63303 0.12400
H 	H 	0.65560 0.20390 0.65320 -0.00300
C 	C 	0.69469 0.25503 0.57293 -0.17300
H 	H 	0.70450 0.26830 0.55300 0.08700
C 	C 	0.64592 0.21856 0.59999 -0.17200
H 	H 	0.62290 0.20700 0.59820 0.08700
C 	C 	0.66001 0.23752 0.56933 0.09000
C 	C 	0.63894 0.23975 0.53388 0.01300
C 	C 	0.60045 0.24043 0.53345 -0.09200
H 	H 	0.58770 0.24120 0.55600 0.05800
C 	C 	0.52070 0.22280 0.47410 -0.03800
H 	H 	0.53400 0.21020 0.45390 0.03600
C 	C 	0.52035 0.25960 0.47520 -0.03600
H 	H 	0.53350 0.27350 0.45570 0.03700
O 	O 	0.29288 0.78741 0.69774 -0.73600
O 	O 	0.24805 0.75146 0.67336 -0.72600
C 	C 	0.27876 0.76828 0.67144 0.56600
C 	C 	0.29979 0.76612 0.63606 -0.22600
C 	C 	0.28566 0.74738 0.60589 0.12700
H 	H 	0.26240 0.73610 0.60770 -0.00200
C 	C 	0.33450 0.78337 0.63303 0.12400
H 	H 	0.34440 0.79610 0.65320 -0.00300
C 	C 	0.30531 0.74497 0.57293 -0.17300
H 	H 	0.29550 0.73170 0.55300 0.08700
C 	C 	0.35408 0.78144 0.59999 -0.17200
H 	H 	0.37710 0.79300 0.59820 0.08700
C 	C 	0.33999 0.76248 0.56933 0.09000
C 	C 	0.36106 0.76025 0.53388 0.01300
C 	C 	0.39955 0.75957 0.53345 -0.09200
H 	H 	0.41230 0.75880 0.55600 0.05800
C 	C 	0.47930 0.77720 0.47410 -0.03800
H 	H 	0.46600 0.78980 0.45390 0.03600
C 	C 	0.47965 0.74040 0.47520 -0.03600
H 	H 	0.46650 0.72650 0.45570 0.03700
O 	O 	0.70712 0.78741 0.30226 -0.73600
O 	O 	0.75195 0.75146 0.32664 -0.72600
C 	C 	0.72124 0.76828 0.32856 0.56600
C 	C 	0.70021 0.76612 0.36394 -0.22600
C 	C 	0.71434 0.74738 0.39411 0.12700
H 	H 	0.73760 0.73610 0.39230 -0.00200
C 	C 	0.66550 0.78337 0.36697 0.12400
H 	H 	0.65560 0.79610 0.34680 -0.00300
C 	C 	0.69469 0.74497 0.42707 -0.17300
H 	H 	0.70450 0.73170 0.44700 0.08700
C 	C 	0.64592 0.78144 0.40001 -0.17200
H 	H 	0.62290 0.79300 0.40180 0.08700
C 	C 	0.66001 0.76248 0.43067 0.09000
C 	C 	0.63894 0.76025 0.46612 0.01300
C 	C 	0.60045 0.75957 0.46655 -0.09200
H 	H 	0.58770 0.75880 0.44400 0.05800
C 	C 	0.52070 0.77720 0.52590 -0.03800
H 	H 	0.53400 0.78980 0.54610 0.03600
C 	C 	0.52035 0.74040 0.52480 -0.03600
H 	H 	0.53350 0.72650 0.54430 0.03700
O 	O 	0.79288 0.80226 0.28741 -0.73600
O 	O 	0.74805 0.82664 0.25146 -0.72600
C 	C 	0.77876 0.82856 0.26828 0.56600
C 	C 	0.79979 0.86394 0.26612 -0.22600
C 	C 	0.78566 0.89411 0.24738 0.12700
H 	H 	0.76240 0.89230 0.23610 -0.00200
C 	C 	0.83450 0.86697 0.28337 0.12400
H 	H 	0.84440 0.84680 0.29610 -0.00300
C 	C 	0.80531 0.92707 0.24497 -0.17300
H 	H 	0.79550 0.94700 0.23170 0.08700
C 	C 	0.85408 0.90001 0.28144 -0.17200
H 	H 	0.87710 0.90180 0.29300 0.08700
C 	C 	0.83999 0.93067 0.26248 0.08900
C 	C 	0.86106 0.96612 0.26025 0.01300
C 	C 	0.89955 0.96655 0.25957 -0.09200
H 	H 	0.91230 0.94400 0.25880 0.05800
C 	C 	0.97930 0.02590 0.27720 -0.03800
H 	H 	0.96600 0.04610 0.28980 0.03600
C 	C 	0.97965 0.02480 0.24040 -0.03500
H 	H 	0.96650 0.04430 0.22650 0.03700
O 	O 	0.20712 0.19774 0.28741 -0.73600
O 	O 	0.25195 0.17336 0.25146 -0.72600
C 	C 	0.22124 0.17144 0.26828 0.56600
C 	C 	0.20021 0.13606 0.26612 -0.22600
C 	C 	0.21434 0.10589 0.24738 0.12700
H 	H 	0.23760 0.10770 0.23610 -0.00200
C 	C 	0.16550 0.13303 0.28337 0.12400
H 	H 	0.15560 0.15320 0.29610 -0.00300
C 	C 	0.19469 0.07293 0.24497 -0.17300
H 	H 	0.20450 0.05300 0.23170 0.08700
C 	C 	0.14592 0.09999 0.28144 -0.17200
H 	H 	0.12290 0.09820 0.29300 0.08700
C 	C 	0.16001 0.06933 0.26248 0.09000
C 	C 	0.13894 0.03388 0.26025 0.01300
C 	C 	0.10045 0.03345 0.25957 -0.09200
H 	H 	0.08770 0.05600 0.25880 0.05800
C 	C 	0.02070 0.97410 0.27720 -0.03800
H 	H 	0.03400 0.95390 0.28980 0.03600
C 	C 	0.02035 0.97520 0.24040 -0.03600
H 	H 	0.03350 0.95570 0.22650 0.03700
O 	O 	0.79288 0.19774 0.71259 -0.73600
O 	O 	0.74805 0.17336 0.74854 -0.72600
C 	C 	0.77876 0.17144 0.73172 0.56600
C 	C 	0.79979 0.13606 0.73388 -0.22600
C 	C 	0.78566 0.10589 0.75262 0.12700
H 	H 	0.76240 0.10770 0.76390 -0.00200
C 	C 	0.83450 0.13303 0.71663 0.12400
H 	H 	0.84440 0.15320 0.70390 -0.00300
C 	C 	0.80531 0.07293 0.75503 -0.17300
H 	H 	0.79550 0.05300 0.76830 0.08700
C 	C 	0.85408 0.09999 0.71856 -0.17200
H 	H 	0.87710 0.09820 0.70700 0.08700
C 	C 	0.83999 0.06933 0.73752 0.08900
C 	C 	0.86106 0.03388 0.73975 0.01300
C 	C 	0.89955 0.03345 0.74043 -0.09200
H 	H 	0.91230 0.05600 0.74120 0.05800
C 	C 	0.97930 0.97410 0.72280 -0.03800
H 	H 	0.96600 0.95390 0.71020 0.03600
C 	C 	0.97965 0.97520 0.75960 -0.03500
H 	H 	0.96650 0.95570 0.77350 0.03700
O 	O 	0.20712 0.80226 0.71259 -0.73600
O 	O 	0.25195 0.82664 0.74854 -0.72600
C 	C 	0.22124 0.82856 0.73172 0.56600
C 	C 	0.20021 0.86394 0.73388 -0.22600
C 	C 	0.21434 0.89411 0.75262 0.12700
H 	H 	0.23760 0.89230 0.76390 -0.00200
C 	C 	0.16550 0.86697 0.71663 0.12400
H 	H 	0.15560 0.84680 0.70390 -0.00300
C 	C 	0.19469 0.92707 0.75503 -0.17300
H 	H 	0.20450 0.94700 0.76830 0.08700
C 	C 	0.14592 0.90001 0.71856 -0.17200
H 	H 	0.12290 0.90180 0.70700 0.08700
C 	C 	0.16001 0.93067 0.73752 0.09000
C 	C 	0.13894 0.96612 0.73975 0.01300
C 	C 	0.10045 0.96655 0.74043 -0.09200
H 	H 	0.08770 0.94400 0.74120 0.05800
C 	C 	0.02070 0.02590 0.72280 -0.03800
H 	H 	0.03400 0.04610 0.71020 0.03600
C 	C 	0.02035 0.02480 0.75960 -0.03600
H 	H 	0.03350 0.04430 0.77350 0.03700
O 	O 	0.80226 0.71259 0.20712 -0.73600
O 	O 	0.82664 0.74854 0.25195 -0.72600
C 	C 	0.82856 0.73172 0.22124 0.56600
C 	C 	0.86394 0.73388 0.20021 -0.22600
C 	C 	0.89411 0.75262 0.21434 0.12700
H 	H 	0.89230 0.76390 0.23760 -0.00200
C 	C 	0.86697 0.71663 0.16550 0.12400
H 	H 	0.84680 0.70390 0.15560 -0.00300
C 	C 	0.92707 0.75503 0.19469 -0.17300
H 	H 	0.94700 0.76830 0.20450 0.08700
C 	C 	0.90001 0.71856 0.14592 -0.17200
H 	H 	0.90180 0.70700 0.12290 0.08700
C 	C 	0.93067 0.73752 0.16001 0.09000
C 	C 	0.96612 0.73975 0.13894 0.01300
C 	C 	0.96655 0.74043 0.10045 -0.09200
H 	H 	0.94400 0.74120 0.08770 0.05800
C 	C 	0.02590 0.72280 0.02070 -0.03800
H 	H 	0.04610 0.71020 0.03400 0.03600
C 	C 	0.02480 0.75960 0.02035 -0.03600
H 	H 	0.04430 0.77350 0.03350 0.03700
O 	O 	0.19774 0.71259 0.79288 -0.73600
O 	O 	0.17336 0.74854 0.74805 -0.72600
C 	C 	0.17144 0.73172 0.77876 0.56600
C 	C 	0.13606 0.73388 0.79979 -0.22600
C 	C 	0.10589 0.75262 0.78566 0.12700
H 	H 	0.10770 0.76390 0.76240 -0.00200
C 	C 	0.13303 0.71663 0.83450 0.12400
H 	H 	0.15320 0.70390 0.84440 -0.00300
C 	C 	0.07293 0.75503 0.80531 -0.17300
H 	H 	0.05300 0.76830 0.79550 0.08700
C 	C 	0.09999 0.71856 0.85408 -0.17200
H 	H 	0.09820 0.70700 0.87710 0.08700
C 	C 	0.06933 0.73752 0.83999 0.08900
C 	C 	0.03388 0.73975 0.86106 0.01300
C 	C 	0.03345 0.74043 0.89955 -0.09200
H 	H 	0.05600 0.74120 0.91230 0.05800
C 	C 	0.97410 0.72280 0.97930 -0.03800
H 	H 	0.95390 0.71020 0.96600 0.03600
C 	C 	0.97520 0.75960 0.97965 -0.03500
H 	H 	0.95570 0.77350 0.96650 0.03700
O 	O 	0.19774 0.28741 0.20712 -0.73600
O 	O 	0.17336 0.25146 0.25195 -0.72600
C 	C 	0.17144 0.26828 0.22124 0.56600
C 	C 	0.13606 0.26612 0.20021 -0.22600
C 	C 	0.10589 0.24738 0.21434 0.12700
H 	H 	0.10770 0.23610 0.23760 -0.00200
C 	C 	0.13303 0.28337 0.16550 0.12400
H 	H 	0.15320 0.29610 0.15560 -0.00300
C 	C 	0.07293 0.24497 0.19469 -0.17300
H 	H 	0.05300 0.23170 0.20450 0.08700
C 	C 	0.09999 0.28144 0.14592 -0.17200
H 	H 	0.09820 0.29300 0.12290 0.08700
C 	C 	0.06933 0.26248 0.16001 0.09000
C 	C 	0.03388 0.26025 0.13894 0.01300
C 	C 	0.03345 0.25957 0.10045 -0.09200
H 	H 	0.05600 0.25880 0.08770 0.05800
C 	C 	0.97410 0.27720 0.02070 -0.03800
H 	H 	0.95390 0.28980 0.03400 0.03600
C 	C 	0.97520 0.24040 0.02035 -0.03600
H 	H 	0.95570 0.22650 0.03350 0.03700
O 	O 	0.80226 0.28741 0.79288 -0.73600
O 	O 	0.82664 0.25146 0.74805 -0.72600
C 	C 	0.82856 0.26828 0.77876 0.56600
C 	C 	0.86394 0.26612 0.79979 -0.22600
C 	C 	0.89411 0.24738 0.78566 0.12700
H 	H 	0.89230 0.23610 0.76240 -0.00200
C 	C 	0.86697 0.28337 0.83450 0.12400
H 	H 	0.84680 0.29610 0.84440 -0.00300
C 	C 	0.92707 0.24497 0.80531 -0.17300
H 	H 	0.94700 0.23170 0.79550 0.08700
C 	C 	0.90001 0.28144 0.85408 -0.17200
H 	H 	0.90180 0.29300 0.87710 0.08700
C 	C 	0.93067 0.26248 0.83999 0.08900
C 	C 	0.96612 0.26025 0.86106 0.01300
C 	C 	0.96655 0.25957 0.89955 -0.09200
H 	H 	0.94400 0.25880 0.91230 0.05800
C 	C 	0.02590 0.27720 0.97930 -0.03800
H 	H 	0.04610 0.28980 0.96600 0.03600
C 	C 	0.02480 0.24040 0.97965 -0.03500
H 	H 	0.04430 0.22650 0.96650 0.03700
O 	O 	0.71259 0.79288 0.19774 -0.73600
O 	O 	0.74854 0.74805 0.17336 -0.72600
C 	C 	0.73172 0.77876 0.17144 0.56600
C 	C 	0.73388 0.79979 0.13606 -0.22600
C 	C 	0.75262 0.78566 0.10589 0.12700
H 	H 	0.76390 0.76240 0.10770 -0.00200
C 	C 	0.71663 0.83450 0.13303 0.12400
H 	H 	0.70390 0.84440 0.15320 -0.00300
C 	C 	0.75503 0.80531 0.07293 -0.17300
H 	H 	0.76830 0.79550 0.05300 0.08700
C 	C 	0.71856 0.85408 0.09999 -0.17200
H 	H 	0.70700 0.87710 0.09820 0.08700
C 	C 	0.73752 0.83999 0.06933 0.08900
C 	C 	0.73975 0.86106 0.03388 0.01300
C 	C 	0.74043 0.89955 0.03345 -0.09200
H 	H 	0.74120 0.91230 0.05600 0.05800
C 	C 	0.72280 0.97930 0.97410 -0.03800
H 	H 	0.71020 0.96600 0.95390 0.03600
C 	C 	0.75960 0.97965 0.97520 -0.03500
H 	H 	0.77350 0.96650 0.95570 0.03700
O 	O 	0.71259 0.20712 0.80226 -0.73600
O 	O 	0.74854 0.25195 0.82664 -0.72600
C 	C 	0.73172 0.22124 0.82856 0.56600
C 	C 	0.73388 0.20021 0.86394 -0.22600
C 	C 	0.75262 0.21434 0.89411 0.12700
H 	H 	0.76390 0.23760 0.89230 -0.00200
C 	C 	0.71663 0.16550 0.86697 0.12400
H 	H 	0.70390 0.15560 0.84680 -0.00300
C 	C 	0.75503 0.19469 0.92707 -0.17300
H 	H 	0.76830 0.20450 0.94700 0.08700
C 	C 	0.71856 0.14592 0.90001 -0.17200
H 	H 	0.70700 0.12290 0.90180 0.08700
C 	C 	0.73752 0.16001 0.93067 0.09000
C 	C 	0.73975 0.13894 0.96612 0.01300
C 	C 	0.74043 0.10045 0.96655 -0.09200
H 	H 	0.74120 0.08770 0.94400 0.05800
C 	C 	0.72280 0.02070 0.02590 -0.03800
H 	H 	0.71020 0.03400 0.04610 0.03600
C 	C 	0.75960 0.02035 0.02480 -0.03600
H 	H 	0.77350 0.03350 0.04430 0.03700
O 	O 	0.28741 0.79288 0.80226 -0.73600
O 	O 	0.25146 0.74805 0.82664 -0.72600
C 	C 	0.26828 0.77876 0.82856 0.56600
C 	C 	0.26612 0.79979 0.86394 -0.22600
C 	C 	0.24738 0.78566 0.89411 0.12700
H 	H 	0.23610 0.76240 0.89230 -0.00200
C 	C 	0.28337 0.83450 0.86697 0.12400
H 	H 	0.29610 0.84440 0.84680 -0.00300
C 	C 	0.24497 0.80531 0.92707 -0.17300
H 	H 	0.23170 0.79550 0.94700 0.08700
C 	C 	0.28144 0.85408 0.90001 -0.17200
H 	H 	0.29300 0.87710 0.90180 0.08700
C 	C 	0.26248 0.83999 0.93067 0.08900
C 	C 	0.26025 0.86106 0.96612 0.01300
C 	C 	0.25957 0.89955 0.96655 -0.09200
H 	H 	0.25880 0.91230 0.94400 0.05800
C 	C 	0.27720 0.97930 0.02590 -0.03800
H 	H 	0.28980 0.96600 0.04610 0.03600
C 	C 	0.24040 0.97965 0.02480 -0.03500
H 	H 	0.22650 0.96650 0.04430 0.03700
O 	O 	0.28741 0.20712 0.19774 -0.73600
O 	O 	0.25146 0.25195 0.17336 -0.72600
C 	C 	0.26828 0.22124 0.17144 0.56600
C 	C 	0.26612 0.20021 0.13606 -0.22600
C 	C 	0.24738 0.21434 0.10589 0.12700
H 	H 	0.23610 0.23760 0.10770 -0.00200
C 	C 	0.28337 0.16550 0.13303 0.12400
H 	H 	0.29610 0.15560 0.15320 -0.00300
C 	C 	0.24497 0.19469 0.07293 -0.17300
H 	H 	0.23170 0.20450 0.05300 0.08700
C 	C 	0.28144 0.14592 0.09999 -0.17200
H 	H 	0.29300 0.12290 0.09820 0.08700
C 	C 	0.26248 0.16001 0.06933 0.09000
C 	C 	0.26025 0.13894 0.03388 0.01300
C 	C 	0.25957 0.10045 0.03345 -0.09200
H 	H 	0.25880 0.08770 0.05600 0.05800
C 	C 	0.27720 0.02070 0.97410 -0.03800
H 	H 	0.28980 0.03400 0.95390 0.03600
C 	C 	0.24040 0.02035 0.97520 -0.03600
H 	H 	0.22650 0.03350 0.95570 0.03700
O 	O 	0.69774 0.70712 0.78741 -0.73600
O 	O 	0.67336 0.75195 0.75146 -0.72600
C 	C 	0.67144 0.72124 0.76828 0.56600
C 	C 	0.63606 0.70021 0.76612 -0.22600
C 	C 	0.60589 0.71434 0.74738 0.12700
H 	H 	0.60770 0.73760 0.73610 -0.00200
C 	C 	0.63303 0.66550 0.78337 0.12400
H 	H 	0.65320 0.65560 0.79610 -0.00300
C 	C 	0.57293 0.69469 0.74497 -0.17300
H 	H 	0.55300 0.70450 0.73170 0.08700
C 	C 	0.59999 0.64592 0.78144 -0.17200
H 	H 	0.59820 0.62290 0.79300 0.08700
C 	C 	0.56933 0.66001 0.76248 0.09000
C 	C 	0.53388 0.63894 0.76025 0.01300
C 	C 	0.53345 0.60045 0.75957 -0.09200
H 	H 	0.55600 0.58770 0.75880 0.05800
C 	C 	0.47410 0.52070 0.77720 -0.03800
H 	H 	0.45390 0.53400 0.78980 0.03600
C 	C 	0.47520 0.52035 0.74040 -0.03600
H 	H 	0.45570 0.53350 0.72650 0.03700
O 	O 	0.30226 0.29288 0.78741 -0.73600
O 	O 	0.32664 0.24805 0.75146 -0.72600
C 	C 	0.32856 0.27876 0.76828 0.56600
C 	C 	0.36394 0.29979 0.76612 -0.22600
C 	C 	0.39411 0.28566 0.74738 0.12700
H 	H 	0.39230 0.26240 0.73610 -0.00200
C 	C 	0.36697 0.33450 0.78337 0.12400
H 	H 	0.34680 0.34440 0.79610 -0.00300
C 	C 	0.42707 0.30531 0.74497 -0.17300
H 	H 	0.44700 0.29550 0.73170 0.08700
C 	C 	0.40001 0.35408 0.78144 -0.17200
H 	H 	0.40180 0.37710 0.79300 0.08700
C 	C 	0.43067 0.33999 0.76248 0.09000
C 	C 	0.46612 0.36106 0.76025 0.01300
C 	C 	0.46655 0.39955 0.75957 -0.09200
H 	H 	0.44400 0.41230 0.75880 0.05800
C 	C 	0.52590 0.47930 0.77720 -0.03800
H 	H 	0.54610 0.46600 0.78980 0.03600
C 	C 	0.52480 0.47965 0.74040 -0.03600
H 	H 	0.54430 0.46650 0.72650 0.03700
O 	O 	0.30226 0.70712 0.21259 -0.73600
O 	O 	0.32664 0.75195 0.24854 -0.72600
C 	C 	0.32856 0.72124 0.23172 0.56600
C 	C 	0.36394 0.70021 0.23388 -0.22600
C 	C 	0.39411 0.71434 0.25262 0.12700
H 	H 	0.39230 0.73760 0.26390 -0.00200
C 	C 	0.36697 0.66550 0.21663 0.12400
H 	H 	0.34680 0.65560 0.20390 -0.00300
C 	C 	0.42707 0.69469 0.25503 -0.17300
H 	H 	0.44700 0.70450 0.26830 0.08700
C 	C 	0.40001 0.64592 0.21856 -0.17200
H 	H 	0.40180 0.62290 0.20700 0.08700
C 	C 	0.43067 0.66001 0.23752 0.09000
C 	C 	0.46612 0.63894 0.23975 0.01300
C 	C 	0.46655 0.60045 0.24043 -0.09200
H 	H 	0.44400 0.58770 0.24120 0.05800
C 	C 	0.52590 0.52070 0.22280 -0.03800
H 	H 	0.54610 0.53400 0.21020 0.03600
C 	C 	0.52480 0.52035 0.25960 -0.03600
H 	H 	0.54430 0.53350 0.27350 0.03700
O 	O 	0.69774 0.29288 0.21259 -0.73600
O 	O 	0.67336 0.24805 0.24854 -0.72600
C 	C 	0.67144 0.27876 0.23172 0.56600
C 	C 	0.63606 0.29979 0.23388 -0.22600
C 	C 	0.60589 0.28566 0.25262 0.12700
H 	H 	0.60770 0.26240 0.26390 -0.00200
C 	C 	0.63303 0.33450 0.21663 0.12400
H 	H 	0.65320 0.34440 0.20390 -0.00300
C 	C 	0.57293 0.30531 0.25503 -0.17300
H 	H 	0.55300 0.29550 0.26830 0.08700
C 	C 	0.59999 0.35408 0.21856 -0.17200
H 	H 	0.59820 0.37710 0.20700 0.08700
C 	C 	0.56933 0.33999 0.23752 0.09000
C 	C 	0.53388 0.36106 0.23975 0.01300
C 	C 	0.53345 0.39955 0.24043 -0.09200
H 	H 	0.55600 0.41230 0.24120 0.05800
C 	C 	0.47410 0.47930 0.22280 -0.03800
H 	H 	0.45390 0.46600 0.21020 0.03600
C 	C 	0.47520 0.47965 0.25960 -0.03600
H 	H 	0.45570 0.46650 0.27350 0.03700
O 	O 	0.78741 0.69774 0.70712 -0.73600
O 	O 	0.75146 0.67336 0.75195 -0.72600
C 	C 	0.76828 0.67144 0.72124 0.56600
C 	C 	0.76612 0.63606 0.70021 -0.22600
C 	C 	0.74738 0.60589 0.71434 0.12700
H 	H 	0.73610 0.60770 0.73760 -0.00200
C 	C 	0.78337 0.63303 0.66550 0.12400
H 	H 	0.79610 0.65320 0.65560 -0.00300
C 	C 	0.74497 0.57293 0.69469 -0.17300
H 	H 	0.73170 0.55300 0.70450 0.08700
C 	C 	0.78144 0.59999 0.64592 -0.17200
H 	H 	0.79300 0.59820 0.62290 0.08700
C 	C 	0.76248 0.56933 0.66001 0.09000
C 	C 	0.76025 0.53388 0.63894 0.01300
C 	C 	0.75957 0.53345 0.60045 -0.09200
H 	H 	0.75880 0.55600 0.58770 0.05800
C 	C 	0.77720 0.47410 0.52070 -0.03800
H 	H 	0.78980 0.45390 0.53400 0.03600
C 	C 	0.74040 0.47520 0.52035 -0.03600
H 	H 	0.72650 0.45570 0.53350 0.03700
O 	O 	0.78741 0.30226 0.29288 -0.73600
O 	O 	0.75146 0.32664 0.24805 -0.72600
C 	C 	0.76828 0.32856 0.27876 0.56600
C 	C 	0.76612 0.36394 0.29979 -0.22600
C 	C 	0.74738 0.39411 0.28566 0.12700
H 	H 	0.73610 0.39230 0.26240 -0.00200
C 	C 	0.78337 0.36697 0.33450 0.12400
H 	H 	0.79610 0.34680 0.34440 -0.00300
C 	C 	0.74497 0.42707 0.30531 -0.17300
H 	H 	0.73170 0.44700 0.29550 0.08700
C 	C 	0.78144 0.40001 0.35408 -0.17200
H 	H 	0.79300 0.40180 0.37710 0.08700
C 	C 	0.76248 0.43067 0.33999 0.09000
C 	C 	0.76025 0.46612 0.36106 0.01300
C 	C 	0.75957 0.46655 0.39955 -0.09200
H 	H 	0.75880 0.44400 0.41230 0.05800
C 	C 	0.77720 0.52590 0.47930 -0.03800
H 	H 	0.78980 0.54610 0.46600 0.03600
C 	C 	0.74040 0.52480 0.47965 -0.03600
H 	H 	0.72650 0.54430 0.46650 0.03700
O 	O 	0.21259 0.30226 0.70712 -0.73600
O 	O 	0.24854 0.32664 0.75195 -0.72600
C 	C 	0.23172 0.32856 0.72124 0.56600
C 	C 	0.23388 0.36394 0.70021 -0.22600
C 	C 	0.25262 0.39411 0.71434 0.12700
H 	H 	0.26390 0.39230 0.73760 -0.00200
C 	C 	0.21663 0.36697 0.66550 0.12400
H 	H 	0.20390 0.34680 0.65560 -0.00300
C 	C 	0.25503 0.42707 0.69469 -0.17300
H 	H 	0.26830 0.44700 0.70450 0.08700
C 	C 	0.21856 0.40001 0.64592 -0.17200
H 	H 	0.20700 0.40180 0.62290 0.08700
C 	C 	0.23752 0.43067 0.66001 0.09000
C 	C 	0.23975 0.46612 0.63894 0.01300
C 	C 	0.24043 0.46655 0.60045 -0.09200
H 	H 	0.24120 0.44400 0.58770 0.05800
C 	C 	0.22280 0.52590 0.52070 -0.03800
H 	H 	0.21020 0.54610 0.53400 0.03600
C 	C 	0.25960 0.52480 0.52035 -0.03600
H 	H 	0.27350 0.54430 0.53350 0.03700
O 	O 	0.21259 0.69774 0.29288 -0.73600
O 	O 	0.24854 0.67336 0.24805 -0.72600
C 	C 	0.23172 0.67144 0.27876 0.56600
C 	C 	0.23388 0.63606 0.29979 -0.22600
C 	C 	0.25262 0.60589 0.28566 0.12700
H 	H 	0.26390 0.60770 0.26240 -0.00200
C 	C 	0.21663 0.63303 0.33450 0.12400
H 	H 	0.20390 0.65320 0.34440 -0.00300
C 	C 	0.25503 0.57293 0.30531 -0.17300
H 	H 	0.26830 0.55300 0.29550 0.08700
C 	C 	0.21856 0.59999 0.35408 -0.17200
H 	H 	0.20700 0.59820 0.37710 0.08700
C 	C 	0.23752 0.56933 0.33999 0.09000
C 	C 	0.23975 0.53388 0.36106 0.01300
C 	C 	0.24043 0.53345 0.39955 -0.09200
H 	H 	0.24120 0.55600 0.41230 0.05800
C 	C 	0.22280 0.47410 0.47930 -0.03800
H 	H 	0.21020 0.45390 0.46600 0.03600
C 	C 	0.25960 0.47520 0.47965 -0.03600
H 	H 	0.27350 0.45570 0.46650 0.03700
O 	O 	0.70712 0.78741 0.69774 -0.73600
O 	O 	0.75195 0.75146 0.67336 -0.72600
C 	C 	0.72124 0.76828 0.67144 0.56600
C 	C 	0.70021 0.76612 0.63606 -0.22600
C 	C 	0.71434 0.74738 0.60589 0.12700
H 	H 	0.73760 0.73610 0.60770 -0.00200
C 	C 	0.66550 0.78337 0.63303 0.12400
H 	H 	0.65560 0.79610 0.65320 -0.00300
C 	C 	0.69469 0.74497 0.57293 -0.17300
H 	H 	0.70450 0.73170 0.55300 0.08700
C 	C 	0.64592 0.78144 0.59999 -0.17200
H 	H 	0.62290 0.79300 0.59820 0.08700
C 	C 	0.66001 0.76248 0.56933 0.09000
C 	C 	0.63894 0.76025 0.53388 0.01300
C 	C 	0.60045 0.75957 0.53345 -0.09200
H 	H 	0.58770 0.75880 0.55600 0.05800
C 	C 	0.52070 0.77720 0.47410 -0.03800
H 	H 	0.53400 0.78980 0.45390 0.03600
C 	C 	0.52035 0.74040 0.47520 -0.03600
H 	H 	0.53350 0.72650 0.45570 0.03700
O 	O 	0.29288 0.78741 0.30226 -0.73600
O 	O 	0.24805 0.75146 0.32664 -0.72600
C 	C 	0.27876 0.76828 0.32856 0.56600
C 	C 	0.29979 0.76612 0.36394 -0.22600
C 	C 	0.28566 0.74738 0.39411 0.12700
H 	H 	0.26240 0.73610 0.39230 -0.00200
C 	C 	0.33450 0.78337 0.36697 0.12400
H 	H 	0.34440 0.79610 0.34680 -0.00300
C 	C 	0.30531 0.74497 0.42707 -0.17300
H 	H 	0.29550 0.73170 0.44700 0.08700
C 	C 	0.35408 0.78144 0.40001 -0.17200
H 	H 	0.37710 0.79300 0.40180 0.08700
C 	C 	0.33999 0.76248 0.43067 0.09000
C 	C 	0.36106 0.76025 0.46612 0.01300
C 	C 	0.39955 0.75957 0.46655 -0.09200
H 	H 	0.41230 0.75880 0.44400 0.05800
C 	C 	0.47930 0.77720 0.52590 -0.03800
H 	H 	0.46600 0.78980 0.54610 0.03600
C 	C 	0.47965 0.74040 0.52480 -0.03600
H 	H 	0.46650 0.72650 0.54430 0.03700
O 	O 	0.70712 0.21259 0.30226 -0.73600
O 	O 	0.75195 0.24854 0.32664 -0.72600
C 	C 	0.72124 0.23172 0.32856 0.56600
C 	C 	0.70021 0.23388 0.36394 -0.22600
C 	C 	0.71434 0.25262 0.39411 0.12700
H 	H 	0.73760 0.26390 0.39230 -0.00200
C 	C 	0.66550 0.21663 0.36697 0.12400
H 	H 	0.65560 0.20390 0.34680 -0.00300
C 	C 	0.69469 0.25503 0.42707 -0.17300
H 	H 	0.70450 0.26830 0.44700 0.08700
C 	C 	0.64592 0.21856 0.40001 -0.17200
H 	H 	0.62290 0.20700 0.40180 0.08700
C 	C 	0.66001 0.23752 0.43067 0.09000
C 	C 	0.63894 0.23975 0.46612 0.01300
C 	C 	0.60045 0.24043 0.46655 -0.09200
H 	H 	0.58770 0.24120 0.44400 0.05800
C 	C 	0.52070 0.22280 0.52590 -0.03800
H 	H 	0.53400 0.21020 0.54610 0.03600
C 	C 	0.52035 0.25960 0.52480 -0.03600
H 	H 	0.53350 0.27350 0.54430 0.03700
O 	O 	0.29288 0.21259 0.69774 -0.73600
O 	O 	0.24805 0.24854 0.67336 -0.72600
C 	C 	0.27876 0.23172 0.67144 0.56600
C 	C 	0.29979 0.23388 0.63606 -0.22600
C 	C 	0.28566 0.25262 0.60589 0.12700
H 	H 	0.26240 0.26390 0.60770 -0.00200
C 	C 	0.33450 0.21663 0.63303 0.12400
H 	H 	0.34440 0.20390 0.65320 -0.00300
C 	C 	0.30531 0.25503 0.57293 -0.17300
H 	H 	0.29550 0.26830 0.55300 0.08700
C 	C 	0.35408 0.21856 0.59999 -0.17200
H 	H 	0.37710 0.20700 0.59820 0.08700
C 	C 	0.33999 0.23752 0.56933 0.09000
C 	C 	0.36106 0.23975 0.53388 0.01300
C 	C 	0.39955 0.24043 0.53345 -0.09200
H 	H 	0.41230 0.24120 0.55600 0.05800
C 	C 	0.47930 0.22280 0.47410 -0.03800
H 	H 	0.46600 0.21020 0.45390 0.03600
C 	C 	0.47965 0.25960 0.47520 -0.03600
H 	H 	0.46650 0.27350 0.45570 0.03700
O 	O 	0.20712 0.19774 0.71259 -0.73600
O 	O 	0.25195 0.17336 0.74854 -0.72600
C 	C 	0.22124 0.17144 0.73172 0.56600
C 	C 	0.20021 0.13606 0.73388 -0.22600
C 	C 	0.21434 0.10589 0.75262 0.12700
H 	H 	0.23760 0.10770 0.76390 -0.00200
C 	C 	0.16550 0.13303 0.71663 0.12400
H 	H 	0.15560 0.15320 0.70390 -0.00300
C 	C 	0.19469 0.07293 0.75503 -0.17300
H 	H 	0.20450 0.05300 0.76830 0.08700
C 	C 	0.14592 0.09999 0.71856 -0.17200
H 	H 	0.12290 0.09820 0.70700 0.08700
C 	C 	0.16001 0.06933 0.73752 0.09000
C 	C 	0.13894 0.03388 0.73975 0.01300
C 	C 	0.10045 0.03345 0.74043 -0.09200
H 	H 	0.08770 0.05600 0.74120 0.05800
C 	C 	0.02070 0.97410 0.72280 -0.03800
H 	H 	0.03400 0.95390 0.71020 0.03600
C 	C 	0.02035 0.97520 0.75960 -0.03600
H 	H 	0.03350 0.95570 0.77350 0.03700
O 	O 	0.79288 0.80226 0.71259 -0.73600
O 	O 	0.74805 0.82664 0.74854 -0.72600
C 	C 	0.77876 0.82856 0.73172 0.56600
C 	C 	0.79979 0.86394 0.73388 -0.22600
C 	C 	0.78566 0.89411 0.75262 0.12700
H 	H 	0.76240 0.89230 0.76390 -0.00200
C 	C 	0.83450 0.86697 0.71663 0.12400
H 	H 	0.84440 0.84680 0.70390 -0.00300
C 	C 	0.80531 0.92707 0.75503 -0.17300
H 	H 	0.79550 0.94700 0.76830 0.08700
C 	C 	0.85408 0.90001 0.71856 -0.17200
H 	H 	0.87710 0.90180 0.70700 0.08700
C 	C 	0.83999 0.93067 0.73752 0.08900
C 	C 	0.86106 0.96612 0.73975 0.01300
C 	C 	0.89955 0.96655 0.74043 -0.09200
H 	H 	0.91230 0.94400 0.74120 0.05800
C 	C 	0.97930 0.02590 0.72280 -0.03800
H 	H 	0.96600 0.04610 0.71020 0.03600
C 	C 	0.97965 0.02480 0.75960 -0.03500
H 	H 	0.96650 0.04430 0.77350 0.03700
O 	O 	0.20712 0.80226 0.28741 -0.73600
O 	O 	0.25195 0.82664 0.25146 -0.72600
C 	C 	0.22124 0.82856 0.26828 0.56600
C 	C 	0.20021 0.86394 0.26612 -0.22600
C 	C 	0.21434 0.89411 0.24738 0.12700
H 	H 	0.23760 0.89230 0.23610 -0.00200
C 	C 	0.16550 0.86697 0.28337 0.12400
H 	H 	0.15560 0.84680 0.29610 -0.00300
C 	C 	0.19469 0.92707 0.24497 -0.17300
H 	H 	0.20450 0.94700 0.23170 0.08700
C 	C 	0.14592 0.90001 0.28144 -0.17200
H 	H 	0.12290 0.90180 0.29300 0.08700
C 	C 	0.16001 0.93067 0.26248 0.09000
C 	C 	0.13894 0.96612 0.26025 0.01300
C 	C 	0.10045 0.96655 0.25957 -0.09200
H 	H 	0.08770 0.94400 0.25880 0.05800
C 	C 	0.02070 0.02590 0.27720 -0.03800
H 	H 	0.03400 0.04610 0.28980 0.03600
C 	C 	0.02035 0.02480 0.24040 -0.03600
H 	H 	0.03350 0.04430 0.22650 0.03700
O 	O 	0.79288 0.19774 0.28741 -0.73600
O 	O 	0.74805 0.17336 0.25146 -0.72600
C 	C 	0.77876 0.17144 0.26828 0.56600
C 	C 	0.79979 0.13606 0.26612 -0.22600
C 	C 	0.78566 0.10589 0.24738 0.12700
H 	H 	0.76240 0.10770 0.23610 -0.00200
C 	C 	0.83450 0.13303 0.28337 0.12400
H 	H 	0.84440 0.15320 0.29610 -0.00300
C 	C 	0.80531 0.07293 0.24497 -0.17300
H 	H 	0.79550 0.05300 0.23170 0.08700
C 	C 	0.85408 0.09999 0.28144 -0.17200
H 	H 	0.87710 0.09820 0.29300 0.08700
C 	C 	0.83999 0.06933 0.26248 0.08900
C 	C 	0.86106 0.03388 0.26025 0.01300
C 	C 	0.89955 0.03345 0.25957 -0.09200
H 	H 	0.91230 0.05600 0.25880 0.05800
C 	C 	0.97930 0.97410 0.27720 -0.03800
H 	H 	0.96600 0.95390 0.28980 0.03600
C 	C 	0.97965 0.97520 0.24040 -0.03500
H 	H 	0.96650 0.95570 0.22650 0.03700
O 	O 	0.19774 0.28741 0.79288 -0.73600
O 	O 	0.17336 0.25146 0.74805 -0.72600
C 	C 	0.17144 0.26828 0.77876 0.56600
C 	C 	0.13606 0.26612 0.79979 -0.22600
C 	C 	0.10589 0.24738 0.78566 0.12700
H 	H 	0.10770 0.23610 0.76240 -0.00200
C 	C 	0.13303 0.28337 0.83450 0.12400
H 	H 	0.15320 0.29610 0.84440 -0.00300
C 	C 	0.07293 0.24497 0.80531 -0.17300
H 	H 	0.05300 0.23170 0.79550 0.08700
C 	C 	0.09999 0.28144 0.85408 -0.17200
H 	H 	0.09820 0.29300 0.87710 0.08700
C 	C 	0.06933 0.26248 0.83999 0.08900
C 	C 	0.03388 0.26025 0.86106 0.01300
C 	C 	0.03345 0.25957 0.89955 -0.09200
H 	H 	0.05600 0.25880 0.91230 0.05800
C 	C 	0.97410 0.27720 0.97930 -0.03800
H 	H 	0.95390 0.28980 0.96600 0.03600
C 	C 	0.97520 0.24040 0.97965 -0.03500
H 	H 	0.95570 0.22650 0.96650 0.03700
O 	O 	0.80226 0.28741 0.20712 -0.73600
O 	O 	0.82664 0.25146 0.25195 -0.72600
C 	C 	0.82856 0.26828 0.22124 0.56600
C 	C 	0.86394 0.26612 0.20021 -0.22600
C 	C 	0.89411 0.24738 0.21434 0.12700
H 	H 	0.89230 0.23610 0.23760 -0.00200
C 	C 	0.86697 0.28337 0.16550 0.12400
H 	H 	0.84680 0.29610 0.15560 -0.00300
C 	C 	0.92707 0.24497 0.19469 -0.17300
H 	H 	0.94700 0.23170 0.20450 0.08700
C 	C 	0.90001 0.28144 0.14592 -0.17200
H 	H 	0.90180 0.29300 0.12290 0.08700
C 	C 	0.93067 0.26248 0.16001 0.09000
C 	C 	0.96612 0.26025 0.13894 0.01300
C 	C 	0.96655 0.25957 0.10045 -0.09200
H 	H 	0.94400 0.25880 0.08770 0.05800
C 	C 	0.02590 0.27720 0.02070 -0.03800
H 	H 	0.04610 0.28980 0.03400 0.03600
C 	C 	0.02480 0.24040 0.02035 -0.03600
H 	H 	0.04430 0.22650 0.03350 0.03700
O 	O 	0.80226 0.71259 0.79288 -0.73600
O 	O 	0.82664 0.74854 0.74805 -0.72600
C 	C 	0.82856 0.73172 0.77876 0.56600
C 	C 	0.86394 0.73388 0.79979 -0.22600
C 	C 	0.89411 0.75262 0.78566 0.12700
H 	H 	0.89230 0.76390 0.76240 -0.00200
C 	C 	0.86697 0.71663 0.83450 0.12400
H 	H 	0.84680 0.70390 0.84440 -0.00300
C 	C 	0.92707 0.75503 0.80531 -0.17300
H 	H 	0.94700 0.76830 0.79550 0.08700
C 	C 	0.90001 0.71856 0.85408 -0.17200
H 	H 	0.90180 0.70700 0.87710 0.08700
C 	C 	0.93067 0.73752 0.83999 0.08900
C 	C 	0.96612 0.73975 0.86106 0.01300
C 	C 	0.96655 0.74043 0.89955 -0.09200
H 	H 	0.94400 0.74120 0.91230 0.05800
C 	C 	0.02590 0.72280 0.97930 -0.03800
H 	H 	0.04610 0.71020 0.96600 0.03600
C 	C 	0.02480 0.75960 0.97965 -0.03500
H 	H 	0.04430 0.77350 0.96650 0.03700
O 	O 	0.19774 0.71259 0.20712 -0.73600
O 	O 	0.17336 0.74854 0.25195 -0.72600
C 	C 	0.17144 0.73172 0.22124 0.56600
C 	C 	0.13606 0.73388 0.20021 -0.22600
C 	C 	0.10589 0.75262 0.21434 0.12700
H 	H 	0.10770 0.76390 0.23760 -0.00200
C 	C 	0.13303 0.71663 0.16550 0.12400
H 	H 	0.15320 0.70390 0.15560 -0.00300
C 	C 	0.07293 0.75503 0.19469 -0.17300
H 	H 	0.05300 0.76830 0.20450 0.08700
C 	C 	0.09999 0.71856 0.14592 -0.17200
H 	H 	0.09820 0.70700 0.12290 0.08700
C 	C 	0.06933 0.73752 0.16001 0.09000
C 	C 	0.03388 0.73975 0.13894 0.01300
C 	C 	0.03345 0.74043 0.10045 -0.09200
H 	H 	0.05600 0.74120 0.08770 0.05800
C 	C 	0.97410 0.72280 0.02070 -0.03800
H 	H 	0.95390 0.71020 0.03400 0.03600
C 	C 	0.97520 0.75960 0.02035 -0.03600
H 	H 	0.95570 0.77350 0.03350 0.03700
O 	O 	0.28741 0.20712 0.80226 -0.73600
O 	O 	0.25146 0.25195 0.82664 -0.72600
C 	C 	0.26828 0.22124 0.82856 0.56600
C 	C 	0.26612 0.20021 0.86394 -0.22600
C 	C 	0.24738 0.21434 0.89411 0.12700
H 	H 	0.23610 0.23760 0.89230 -0.00200
C 	C 	0.28337 0.16550 0.86697 0.12400
H 	H 	0.29610 0.15560 0.84680 -0.00300
C 	C 	0.24497 0.19469 0.92707 -0.17300
H 	H 	0.23170 0.20450 0.94700 0.08700
C 	C 	0.28144 0.14592 0.90001 -0.17200
H 	H 	0.29300 0.12290 0.90180 0.08700
C 	C 	0.26248 0.16001 0.93067 0.09000
C 	C 	0.26025 0.13894 0.96612 0.01300
C 	C 	0.25957 0.10045 0.96655 -0.09200
H 	H 	0.25880 0.08770 0.94400 0.05800
C 	C 	0.27720 0.02070 0.02590 -0.03800
H 	H 	0.28980 0.03400 0.04610 0.03600
C 	C 	0.24040 0.02035 0.02480 -0.03600
H 	H 	0.22650 0.03350 0.04430 0.03700
O 	O 	0.28741 0.79288 0.19774 -0.73600
O 	O 	0.25146 0.74805 0.17336 -0.72600
C 	C 	0.26828 0.77876 0.17144 0.56600
C 	C 	0.26612 0.79979 0.13606 -0.22600
C 	C 	0.24738 0.78566 0.10589 0.12700
H 	H 	0.23610 0.76240 0.10770 -0.00200
C 	C 	0.28337 0.83450 0.13303 0.12400
H 	H 	0.29610 0.84440 0.15320 -0.00300
C 	C 	0.24497 0.80531 0.07293 -0.17300
H 	H 	0.23170 0.79550 0.05300 0.08700
C 	C 	0.28144 0.85408 0.09999 -0.17200
H 	H 	0.29300 0.87710 0.09820 0.08700
C 	C 	0.26248 0.83999 0.06933 0.08900
C 	C 	0.26025 0.86106 0.03388 0.01300
C 	C 	0.25957 0.89955 0.03345 -0.09200
H 	H 	0.25880 0.91230 0.05600 0.05800
C 	C 	0.27720 0.97930 0.97410 -0.03800
H 	H 	0.28980 0.96600 0.95390 0.03600
C 	C 	0.24040 0.97965 0.97520 -0.03500
H 	H 	0.22650 0.96650 0.95570 0.03700
O 	O 	0.71259 0.20712 0.19774 -0.73600
O 	O 	0.74854 0.25195 0.17336 -0.72600
C 	C 	0.73172 0.22124 0.17144 0.56600
C 	C 	0.73388 0.20021 0.13606 -0.22600
C 	C 	0.75262 0.21434 0.10589 0.12700
H 	H 	0.76390 0.23760 0.10770 -0.00200
C 	C 	0.71663 0.16550 0.13303 0.12400
H 	H 	0.70390 0.15560 0.15320 -0.00300
C 	C 	0.75503 0.19469 0.07293 -0.17300
H 	H 	0.76830 0.20450 0.05300 0.08700
C 	C 	0.71856 0.14592 0.09999 -0.17200
H 	H 	0.70700 0.12290 0.09820 0.08700
C 	C 	0.73752 0.16001 0.06933 0.09000
C 	C 	0.73975 0.13894 0.03388 0.01300
C 	C 	0.74043 0.10045 0.03345 -0.09200
H 	H 	0.74120 0.08770 0.05600 0.05800
C 	C 	0.72280 0.02070 0.97410 -0.03800
H 	H 	0.71020 0.03400 0.95390 0.03600
C 	C 	0.75960 0.02035 0.97520 -0.03600
H 	H 	0.77350 0.03350 0.95570 0.03700
O 	O 	0.71259 0.79288 0.80226 -0.73600
O 	O 	0.74854 0.74805 0.82664 -0.72600
C 	C 	0.73172 0.77876 0.82856 0.56600
C 	C 	0.73388 0.79979 0.86394 -0.22600
C 	C 	0.75262 0.78566 0.89411 0.12700
H 	H 	0.76390 0.76240 0.89230 -0.00200
C 	C 	0.71663 0.83450 0.86697 0.12400
H 	H 	0.70390 0.84440 0.84680 -0.00300
C 	C 	0.75503 0.80531 0.92707 -0.17300
H 	H 	0.76830 0.79550 0.94700 0.08700
C 	C 	0.71856 0.85408 0.90001 -0.17200
H 	H 	0.70700 0.87710 0.90180 0.08700
C 	C 	0.73752 0.83999 0.93067 0.08900
C 	C 	0.73975 0.86106 0.96612 0.01300
C 	C 	0.74043 0.89955 0.96655 -0.09200
H 	H 	0.74120 0.91230 0.94400 0.05800
C 	C 	0.72280 0.97930 0.02590 -0.03800
H 	H 	0.71020 0.96600 0.04610 0.03600
C 	C 	0.75960 0.97965 0.02480 -0.03500
H 	H 	0.77350 0.96650 0.04430 0.03700
Al	Al	0.25000 0.28607 0.21393 2.39000
Al	Al	0.75000 0.71393 0.21393 2.39000
Al	Al	0.75000 0.28607 0.78607 2.39000
Al	Al	0.25000 0.71393 0.78607 2.39000
Al	Al	0.21393 0.25000 0.28607 2.39000
Al	Al	0.21393 0.75000 0.71393 2.39000
Al	Al	0.78607 0.75000 0.28607 2.39000
Al	Al	0.78607 0.25000 0.71393 2.39000
Al	Al	0.28607 0.21393 0.25000 2.39000
Al	Al	0.71393 0.21393 0.75000 2.39000
Al	Al	0.28607 0.78607 0.75000 2.39000
Al	Al	0.71393 0.78607 0.25000 2.39000
Al	Al	0.75000 0.71393 0.78607 2.39000
Al	Al	0.25000 0.28607 0.78607 2.39000
Al	Al	0.25000 0.71393 0.21393 2.39000
Al	Al	0.75000 0.28607 0.21393 2.39000
Al	Al	0.78607 0.75000 0.71393 2.39000
Al	Al	0.78607 0.25000 0.28607 2.39000
Al	Al	0.21393 0.25000 0.71393 2.39000
Al	Al	0.21393 0.75000 0.28607 2.39000
Al	Al	0.71393 0.78607 0.75000 2.39000
Al	Al	0.28607 0.78607 0.25000 2.39000
Al	Al	0.71393 0.21393 0.25000 2.39000
Al	Al	0.28607 0.21393 0.75000 2.39000
O 	O 	0.25000 0.25000 0.25000 -1.36300
O 	O 	0.75000 0.75000 0.25000 -1.36300
O 	O 	0.75000 0.25000 0.75000 -1.36300
O 	O 	0.25000 0.75000 0.75000 -1.36300
O 	O 	0.75000 0.75000 0.75000 -1.36300
O 	O 	0.25000 0.25000 0.75000 -1.36300
O 	O 	0.25000 0.75000 0.25000 -1.36300
O 	O 	0.75000 0.25000 0.25000 -1.36300
C 	C 	0.50000 0.34185 0.23890 -0.08500
H 	H 	0.50000 0.31600 0.23780 0.05700
C 	C 	0.50000 0.42007 0.24000 0.02900
C 	C 	0.50000 0.45999 0.24110 0.02000
C 	C 	0.50000 0.65815 0.23890 -0.08500
H 	H 	0.50000 0.68400 0.23780 0.05700
C 	C 	0.50000 0.57993 0.24000 0.02900
C 	C 	0.50000 0.54001 0.24110 0.02000
C 	C 	0.50000 0.34185 0.76110 -0.08500
H 	H 	0.50000 0.31600 0.76220 0.05700
C 	C 	0.50000 0.42007 0.76000 0.02900
C 	C 	0.50000 0.45999 0.75890 0.02000
C 	C 	0.50000 0.65815 0.76110 -0.08500
H 	H 	0.50000 0.68400 0.76220 0.05700
C 	C 	0.50000 0.57993 0.76000 0.02900
C 	C 	0.50000 0.54001 0.75890 0.02000
C 	C 	0.23890 0.50000 0.34185 -0.08500
H 	H 	0.23780 0.50000 0.31600 0.05700
C 	C 	0.24000 0.50000 0.42007 0.02900
C 	C 	0.24110 0.50000 0.45999 0.02000
C 	C 	0.23890 0.50000 0.65815 -0.08500
H 	H 	0.23780 0.50000 0.68400 0.05700
C 	C 	0.24000 0.50000 0.57993 0.02900
C 	C 	0.24110 0.50000 0.54001 0.02000
C 	C 	0.76110 0.50000 0.34185 -0.08500
H 	H 	0.76220 0.50000 0.31600 0.05700
C 	C 	0.76000 0.50000 0.42007 0.02900
C 	C 	0.75890 0.50000 0.45999 0.02000
C 	C 	0.76110 0.50000 0.65815 -0.08500
H 	H 	0.76220 0.50000 0.68400 0.05700
C 	C 	0.76000 0.50000 0.57993 0.02900
C 	C 	0.75890 0.50000 0.54001 0.02000
C 	C 	0.34185 0.23890 0.50000 -0.08500
H 	H 	0.31600 0.23780 0.50000 0.05700
C 	C 	0.42007 0.24000 0.50000 0.02900
C 	C 	0.45999 0.24110 0.50000 0.02000
C 	C 	0.65815 0.23890 0.50000 -0.08500
H 	H 	0.68400 0.23780 0.50000 0.05700
C 	C 	0.57993 0.24000 0.50000 0.02900
C 	C 	0.54001 0.24110 0.50000 0.02000
C 	C 	0.34185 0.76110 0.50000 -0.08500
H 	H 	0.31600 0.76220 0.50000 0.05700
C 	C 	0.42007 0.76000 0.50000 0.02900
C 	C 	0.45999 0.75890 0.50000 0.02000
C 	C 	0.65815 0.76110 0.50000 -0.08500
H 	H 	0.68400 0.76220 0.50000 0.05700
C 	C 	0.57993 0.76000 0.50000 0.02900
C 	C 	0.54001 0.75890 0.50000 0.02000
C 	C 	0.84185 -0.00000 0.26110 -0.08500
H 	H 	0.81600 0.00000 0.26220 0.05700
C 	C 	0.92007 0.00000 0.26000 0.02900
C 	C 	0.95999 -0.00000 0.25890 0.02000
C 	C 	0.15815 -0.00000 0.26110 -0.08500
H 	H 	0.18400 0.00000 0.26220 0.05700
C 	C 	0.07993 0.00000 0.26000 0.02900
C 	C 	0.04001 -0.00000 0.25890 0.02100
C 	C 	0.84185 0.00000 0.73890 -0.08500
H 	H 	0.81600 0.00000 0.73780 0.05700
C 	C 	0.92007 0.00000 0.74000 0.02900
C 	C 	0.95999 -0.00000 0.74110 0.02000
C 	C 	0.15815 0.00000 0.73890 -0.08500
H 	H 	0.18400 0.00000 0.73780 0.05700
C 	C 	0.07993 0.00000 0.74000 0.02900
C 	C 	0.04001 -0.00000 0.74110 0.02100
C 	C 	-0.00000 0.73890 0.15815 -0.08500
H 	H 	0.00000 0.73780 0.18400 0.05700
C 	C 	0.00000 0.74000 0.07993 0.02900
C 	C 	-0.00000 0.74110 0.04001 0.02100
C 	C 	-0.00000 0.73890 0.84185 -0.08500
H 	H 	-0.00000 0.73780 0.81600 0.05700
C 	C 	-0.00000 0.74000 0.92007 0.02900
C 	C 	0.00000 0.74110 0.95999 0.02000
C 	C 	-0.00000 0.26110 0.15815 -0.08500
H 	H 	0.00000 0.26220 0.18400 0.05700
C 	C 	-0.00000 0.26000 0.07993 0.02900
C 	C 	-0.00000 0.25890 0.04001 0.02100
C 	C 	-0.00000 0.26110 0.84185 -0.08500
H 	H 	0.00000 0.26220 0.81600 0.05700
C 	C 	-0.00000 0.26000 0.92007 0.02900
C 	C 	0.00000 0.25890 0.95999 0.02000
C 	C 	0.73890 0.84185 -0.00000 -0.08500
H 	H 	0.73780 0.81600 -0.00000 0.05700
C 	C 	0.74000 0.92007 -0.00000 0.02900
C 	C 	0.74110 0.95999 -0.00000 0.02000
C 	C 	0.73890 0.15815 -0.00000 -0.08500
H 	H 	0.73780 0.18400 -0.00000 0.05700
C 	C 	0.74000 0.07993 -0.00000 0.02900
C 	C 	0.74110 0.04001 -0.00000 0.02100
C 	C 	0.26110 0.84185 -0.00000 -0.08500
H 	H 	0.26220 0.81600 -0.00000 0.05700
C 	C 	0.26000 0.92007 -0.00000 0.02900
C 	C 	0.25890 0.95999 -0.00000 0.02000
C 	C 	0.26110 0.15815 -0.00000 -0.08500
H 	H 	0.26220 0.18400 -0.00000 0.05700
C 	C 	0.26000 0.07993 -0.00000 0.02900
C 	C 	0.25890 0.04001 -0.00000 0.02100
