data_crystal

_cell_length_a 35.73160
_cell_length_b 35.73160
_cell_length_c 35.73160
_cell_angle_alpha 90.00000
_cell_angle_beta  90.00000
_cell_angle_gamma 90.00000

_symmetry_space_group_name_	'P 1'
_symmetry_space_group_name_H-M	'P 1'

loop_
_symmetry_equiv_pos_as_xyz
  x,y,z

loop_
_atom_site_label
_atom_site_type_symbol
_atom_site_fract_x
_atom_site_fract_y
_atom_site_fract_z
_atom_site_charge
O 	O 	0.19802 0.28716 0.20682 -0.75200
O 	O 	0.17327 0.25166 0.25216 -0.72800
C 	C 	0.17181 0.26846 0.22095 0.58600
C 	C 	0.13607 0.26501 0.20005 -0.24100
C 	C 	0.13341 0.28139 0.16499 0.13600
H 	H 	0.15350 0.29470 0.15510 -0.00500
C 	C 	0.10616 0.24705 0.21463 0.14700
H 	H 	0.10810 0.23640 0.23830 -0.00500
C 	C 	0.07266 0.24411 0.19524 -0.18500
H 	H 	0.05240 0.23170 0.20590 0.09200
C 	C 	0.10056 0.27763 0.14482 -0.17800
H 	H 	0.09920 0.28730 0.12070 0.09000
C 	C 	0.06939 0.25971 0.16001 0.09800
C 	C 	0.03399 0.25660 0.13894 0.01700
C 	C 	0.03380 0.25540 0.10036 -0.10500
H 	H 	0.05630 0.25510 0.08730 0.06400
C 	C 	0.01910 0.21940 0.02090 0.01600
C 	C 	0.03530 0.18710 0.03810 -0.06000
H 	H 	0.04120 0.19000 0.06330 0.05500
C 	C 	0.04450 0.14900 0.02180 -0.03600
H 	H 	0.04950 0.12790 0.03630 0.04200
C 	C 	0.02090 0.26440 0.02140 -0.03900
H 	H 	0.04030 0.27740 0.03310 0.04100
O 	O 	0.80198 0.71284 0.20682 -0.75200
O 	O 	0.82673 0.74834 0.25216 -0.72800
C 	C 	0.82819 0.73154 0.22095 0.58600
C 	C 	0.86393 0.73499 0.20005 -0.24100
C 	C 	0.86659 0.71861 0.16499 0.13600
H 	H 	0.84650 0.70530 0.15510 -0.00500
C 	C 	0.89384 0.75295 0.21463 0.14700
H 	H 	0.89190 0.76360 0.23830 -0.00500
C 	C 	0.92734 0.75589 0.19524 -0.18500
H 	H 	0.94760 0.76830 0.20590 0.09200
C 	C 	0.89944 0.72237 0.14482 -0.17800
H 	H 	0.90080 0.71270 0.12070 0.09000
C 	C 	0.93061 0.74029 0.16001 0.09800
C 	C 	0.96601 0.74340 0.13894 0.01600
C 	C 	0.96620 0.74460 0.10036 -0.10500
H 	H 	0.94370 0.74490 0.08730 0.06300
C 	C 	0.98090 0.78060 0.02090 0.01500
C 	C 	0.96470 0.81290 0.03810 -0.06100
H 	H 	0.95880 0.81000 0.06330 0.05400
C 	C 	0.95550 0.85100 0.02180 -0.03700
H 	H 	0.95050 0.87210 0.03630 0.04100
C 	C 	0.97910 0.73560 0.02140 -0.04000
H 	H 	0.95970 0.72260 0.03310 0.04000
O 	O 	0.80198 0.28716 0.79318 -0.75400
O 	O 	0.82673 0.25166 0.74784 -0.72900
C 	C 	0.82819 0.26846 0.77905 0.58500
C 	C 	0.86393 0.26501 0.79995 -0.24300
C 	C 	0.86659 0.28139 0.83501 0.13600
H 	H 	0.84650 0.29470 0.84490 -0.00600
C 	C 	0.89384 0.24705 0.78537 0.14700
H 	H 	0.89190 0.23640 0.76170 -0.00700
C 	C 	0.92734 0.24411 0.80476 -0.18700
H 	H 	0.94760 0.23170 0.79410 0.09200
C 	C 	0.89944 0.27763 0.85518 -0.18100
H 	H 	0.90080 0.28730 0.87930 0.09000
C 	C 	0.93061 0.25971 0.83999 0.09900
C 	C 	0.96601 0.25660 0.86106 0.01200
C 	C 	0.96620 0.25540 0.89964 -0.09800
H 	H 	0.94370 0.25510 0.91270 0.06000
C 	C 	0.98090 0.21940 0.97910 0.01200
C 	C 	0.96470 0.18710 0.96190 -0.06000
H 	H 	0.95880 0.19000 0.93670 0.05400
C 	C 	0.95550 0.14900 0.97820 -0.03700
H 	H 	0.95050 0.12790 0.96370 0.04100
C 	C 	0.97910 0.26440 0.97860 -0.05600
H 	H 	0.95970 0.27740 0.96690 0.04600
O 	O 	0.19802 0.71284 0.79318 -0.75400
O 	O 	0.17327 0.74834 0.74784 -0.72900
C 	C 	0.17181 0.73154 0.77905 0.58500
C 	C 	0.13607 0.73499 0.79995 -0.24300
C 	C 	0.13341 0.71861 0.83501 0.13600
H 	H 	0.15350 0.70530 0.84490 -0.00600
C 	C 	0.10616 0.75295 0.78537 0.14700
H 	H 	0.10810 0.76360 0.76170 -0.00700
C 	C 	0.07266 0.75589 0.80476 -0.18800
H 	H 	0.05240 0.76830 0.79410 0.09200
C 	C 	0.10056 0.72237 0.85518 -0.18100
H 	H 	0.09920 0.71270 0.87930 0.09000
C 	C 	0.06939 0.74029 0.83999 0.09900
C 	C 	0.03399 0.74340 0.86106 0.01200
C 	C 	0.03380 0.74460 0.89964 -0.09800
H 	H 	0.05630 0.74490 0.91270 0.06000
C 	C 	0.01910 0.78060 0.97910 0.01100
C 	C 	0.03530 0.81290 0.96190 -0.06000
H 	H 	0.04120 0.81000 0.93670 0.05400
C 	C 	0.04450 0.85100 0.97820 -0.03800
H 	H 	0.04950 0.87210 0.96370 0.04100
C 	C 	0.02090 0.73560 0.97860 -0.05600
H 	H 	0.04030 0.72260 0.96690 0.04600
O 	O 	0.20682 0.19802 0.28716 -0.75300
O 	O 	0.25216 0.17327 0.25166 -0.72900
C 	C 	0.22095 0.17181 0.26846 0.58500
C 	C 	0.20005 0.13607 0.26501 -0.24200
C 	C 	0.16499 0.13341 0.28139 0.13500
H 	H 	0.15510 0.15350 0.29470 -0.00600
C 	C 	0.21463 0.10616 0.24705 0.14600
H 	H 	0.23830 0.10810 0.23640 -0.00600
C 	C 	0.19524 0.07266 0.24411 -0.18600
H 	H 	0.20590 0.05240 0.23170 0.09100
C 	C 	0.14482 0.10056 0.27763 -0.17900
H 	H 	0.12070 0.09920 0.28730 0.08900
C 	C 	0.16001 0.06939 0.25971 0.09700
C 	C 	0.13894 0.03399 0.25660 0.01600
C 	C 	0.10036 0.03380 0.25540 -0.10600
H 	H 	0.08730 0.05630 0.25510 0.06300
C 	C 	0.02090 0.01910 0.21940 0.01500
C 	C 	0.03810 0.03530 0.18710 -0.06100
H 	H 	0.06330 0.04120 0.19000 0.05400
C 	C 	0.02180 0.04450 0.14900 -0.03700
H 	H 	0.03630 0.04950 0.12790 0.04100
C 	C 	0.02140 0.02090 0.26440 -0.04000
H 	H 	0.03310 0.04030 0.27740 0.04000
O 	O 	0.20682 0.80198 0.71284 -0.75300
O 	O 	0.25216 0.82673 0.74834 -0.72900
C 	C 	0.22095 0.82819 0.73154 0.58500
C 	C 	0.20005 0.86393 0.73499 -0.24200
C 	C 	0.16499 0.86659 0.71861 0.13500
H 	H 	0.15510 0.84650 0.70530 -0.00600
C 	C 	0.21463 0.89384 0.75295 0.14600
H 	H 	0.23830 0.89190 0.76360 -0.00600
C 	C 	0.19524 0.92734 0.75589 -0.18600
H 	H 	0.20590 0.94760 0.76830 0.09100
C 	C 	0.14482 0.89944 0.72237 -0.17900
H 	H 	0.12070 0.90080 0.71270 0.08900
C 	C 	0.16001 0.93061 0.74029 0.09700
C 	C 	0.13894 0.96601 0.74340 0.01600
C 	C 	0.10036 0.96620 0.74460 -0.10500
H 	H 	0.08730 0.94370 0.74490 0.06300
C 	C 	0.02090 0.98090 0.78060 0.01500
C 	C 	0.03810 0.96470 0.81290 -0.06100
H 	H 	0.06330 0.95880 0.81000 0.05400
C 	C 	0.02180 0.95550 0.85100 -0.03700
H 	H 	0.03630 0.95050 0.87210 0.04100
C 	C 	0.02140 0.97910 0.73560 -0.04000
H 	H 	0.03310 0.95970 0.72260 0.04000
O 	O 	0.79318 0.80198 0.28716 -0.75400
O 	O 	0.74784 0.82673 0.25166 -0.72900
C 	C 	0.77905 0.82819 0.26846 0.58500
C 	C 	0.79995 0.86393 0.26501 -0.24300
C 	C 	0.83501 0.86659 0.28139 0.13600
H 	H 	0.84490 0.84650 0.29470 -0.00600
C 	C 	0.78537 0.89384 0.24705 0.14700
H 	H 	0.76170 0.89190 0.23640 -0.00700
C 	C 	0.80476 0.92734 0.24411 -0.18700
H 	H 	0.79410 0.94760 0.23170 0.09200
C 	C 	0.85518 0.89944 0.27763 -0.18100
H 	H 	0.87930 0.90080 0.28730 0.09000
C 	C 	0.83999 0.93061 0.25971 0.09900
C 	C 	0.86106 0.96601 0.25660 0.01200
C 	C 	0.89964 0.96620 0.25540 -0.09800
H 	H 	0.91270 0.94370 0.25510 0.06000
C 	C 	0.97910 0.98090 0.21940 0.01200
C 	C 	0.96190 0.96470 0.18710 -0.06000
H 	H 	0.93670 0.95880 0.19000 0.05400
C 	C 	0.97820 0.95550 0.14900 -0.03700
H 	H 	0.96370 0.95050 0.12790 0.04100
C 	C 	0.97860 0.97910 0.26440 -0.05600
H 	H 	0.96690 0.95970 0.27740 0.04600
O 	O 	0.79318 0.19802 0.71284 -0.75400
O 	O 	0.74784 0.17327 0.74834 -0.72900
C 	C 	0.77905 0.17181 0.73154 0.58500
C 	C 	0.79995 0.13607 0.73499 -0.24300
C 	C 	0.83501 0.13341 0.71861 0.13600
H 	H 	0.84490 0.15350 0.70530 -0.00600
C 	C 	0.78537 0.10616 0.75295 0.14700
H 	H 	0.76170 0.10810 0.76360 -0.00700
C 	C 	0.80476 0.07266 0.75589 -0.18800
H 	H 	0.79410 0.05240 0.76830 0.09200
C 	C 	0.85518 0.10056 0.72237 -0.18100
H 	H 	0.87930 0.09920 0.71270 0.09000
C 	C 	0.83999 0.06939 0.74029 0.09900
C 	C 	0.86106 0.03399 0.74340 0.01200
C 	C 	0.89964 0.03380 0.74460 -0.09800
H 	H 	0.91270 0.05630 0.74490 0.06000
C 	C 	0.97910 0.01910 0.78060 0.01100
C 	C 	0.96190 0.03530 0.81290 -0.06000
H 	H 	0.93670 0.04120 0.81000 0.05400
C 	C 	0.97820 0.04450 0.85100 -0.03800
H 	H 	0.96370 0.04950 0.87210 0.04100
C 	C 	0.97860 0.02090 0.73560 -0.05600
H 	H 	0.96690 0.04030 0.72260 0.04600
O 	O 	0.28716 0.20682 0.19802 -0.75300
O 	O 	0.25166 0.25216 0.17327 -0.72900
C 	C 	0.26846 0.22095 0.17181 0.58500
C 	C 	0.26501 0.20005 0.13607 -0.24200
C 	C 	0.28139 0.16499 0.13341 0.13500
H 	H 	0.29470 0.15510 0.15350 -0.00600
C 	C 	0.24705 0.21463 0.10616 0.14600
H 	H 	0.23640 0.23830 0.10810 -0.00600
C 	C 	0.24411 0.19524 0.07266 -0.18600
H 	H 	0.23170 0.20590 0.05240 0.09100
C 	C 	0.27763 0.14482 0.10056 -0.17900
H 	H 	0.28730 0.12070 0.09920 0.08900
C 	C 	0.25971 0.16001 0.06939 0.09700
C 	C 	0.25660 0.13894 0.03399 0.01600
C 	C 	0.25540 0.10036 0.03380 -0.10600
H 	H 	0.25510 0.08730 0.05630 0.06300
C 	C 	0.21940 0.02090 0.01910 0.01500
C 	C 	0.18710 0.03810 0.03530 -0.06100
H 	H 	0.19000 0.06330 0.04120 0.05400
C 	C 	0.14900 0.02180 0.04450 -0.03700
H 	H 	0.12790 0.03630 0.04950 0.04100
C 	C 	0.26440 0.02140 0.02090 -0.04000
H 	H 	0.27740 0.03310 0.04030 0.04000
O 	O 	0.71284 0.20682 0.80198 -0.75300
O 	O 	0.74834 0.25216 0.82673 -0.72900
C 	C 	0.73154 0.22095 0.82819 0.58500
C 	C 	0.73499 0.20005 0.86393 -0.24200
C 	C 	0.71861 0.16499 0.86659 0.13500
H 	H 	0.70530 0.15510 0.84650 -0.00600
C 	C 	0.75295 0.21463 0.89384 0.14600
H 	H 	0.76360 0.23830 0.89190 -0.00600
C 	C 	0.75589 0.19524 0.92734 -0.18600
H 	H 	0.76830 0.20590 0.94760 0.09100
C 	C 	0.72237 0.14482 0.89944 -0.17900
H 	H 	0.71270 0.12070 0.90080 0.08900
C 	C 	0.74029 0.16001 0.93061 0.09700
C 	C 	0.74340 0.13894 0.96601 0.01600
C 	C 	0.74460 0.10036 0.96620 -0.10500
H 	H 	0.74490 0.08730 0.94370 0.06300
C 	C 	0.78060 0.02090 0.98090 0.01500
C 	C 	0.81290 0.03810 0.96470 -0.06100
H 	H 	0.81000 0.06330 0.95880 0.05400
C 	C 	0.85100 0.02180 0.95550 -0.03700
H 	H 	0.87210 0.03630 0.95050 0.04100
C 	C 	0.73560 0.02140 0.97910 -0.04000
H 	H 	0.72260 0.03310 0.95970 0.04000
O 	O 	0.28716 0.79318 0.80198 -0.75400
O 	O 	0.25166 0.74784 0.82673 -0.72900
C 	C 	0.26846 0.77905 0.82819 0.58500
C 	C 	0.26501 0.79995 0.86393 -0.24300
C 	C 	0.28139 0.83501 0.86659 0.13600
H 	H 	0.29470 0.84490 0.84650 -0.00600
C 	C 	0.24705 0.78537 0.89384 0.14700
H 	H 	0.23640 0.76170 0.89190 -0.00700
C 	C 	0.24411 0.80476 0.92734 -0.18700
H 	H 	0.23170 0.79410 0.94760 0.09200
C 	C 	0.27763 0.85518 0.89944 -0.18100
H 	H 	0.28730 0.87930 0.90080 0.09000
C 	C 	0.25971 0.83999 0.93061 0.09900
C 	C 	0.25660 0.86106 0.96601 0.01200
C 	C 	0.25540 0.89964 0.96620 -0.09800
H 	H 	0.25510 0.91270 0.94370 0.06000
C 	C 	0.21940 0.97910 0.98090 0.01200
C 	C 	0.18710 0.96190 0.96470 -0.06000
H 	H 	0.19000 0.93670 0.95880 0.05400
C 	C 	0.14900 0.97820 0.95550 -0.03700
H 	H 	0.12790 0.96370 0.95050 0.04100
C 	C 	0.26440 0.97860 0.97910 -0.05600
H 	H 	0.27740 0.96690 0.95970 0.04600
O 	O 	0.71284 0.79318 0.19802 -0.75400
O 	O 	0.74834 0.74784 0.17327 -0.72900
C 	C 	0.73154 0.77905 0.17181 0.58500
C 	C 	0.73499 0.79995 0.13607 -0.24300
C 	C 	0.71861 0.83501 0.13341 0.13600
H 	H 	0.70530 0.84490 0.15350 -0.00600
C 	C 	0.75295 0.78537 0.10616 0.14700
H 	H 	0.76360 0.76170 0.10810 -0.00700
C 	C 	0.75589 0.80476 0.07266 -0.18800
H 	H 	0.76830 0.79410 0.05240 0.09200
C 	C 	0.72237 0.85518 0.10056 -0.18100
H 	H 	0.71270 0.87930 0.09920 0.09000
C 	C 	0.74029 0.83999 0.06939 0.09900
C 	C 	0.74340 0.86106 0.03399 0.01200
C 	C 	0.74460 0.89964 0.03380 -0.09800
H 	H 	0.74490 0.91270 0.05630 0.06000
C 	C 	0.78060 0.97910 0.01910 0.01100
C 	C 	0.81290 0.96190 0.03530 -0.06000
H 	H 	0.81000 0.93670 0.04120 0.05400
C 	C 	0.85100 0.97820 0.04450 -0.03800
H 	H 	0.87210 0.96370 0.04950 0.04100
C 	C 	0.73560 0.97860 0.02090 -0.05600
H 	H 	0.72260 0.96690 0.04030 0.04600
O 	O 	0.78716 0.69802 0.29318 -0.75400
O 	O 	0.75166 0.67327 0.24784 -0.72900
C 	C 	0.76846 0.67181 0.27905 0.58500
C 	C 	0.76501 0.63607 0.29995 -0.24200
C 	C 	0.78139 0.63341 0.33501 0.13600
H 	H 	0.79470 0.65350 0.34490 -0.00600
C 	C 	0.74705 0.60616 0.28537 0.14700
H 	H 	0.73640 0.60810 0.26170 -0.00700
C 	C 	0.74411 0.57266 0.30476 -0.18700
H 	H 	0.73170 0.55240 0.29410 0.09200
C 	C 	0.77763 0.60056 0.35518 -0.18000
H 	H 	0.78730 0.59920 0.37930 0.08900
C 	C 	0.75971 0.56939 0.33999 0.09800
C 	C 	0.75660 0.53399 0.36106 0.01400
C 	C 	0.75540 0.53380 0.39964 -0.10200
H 	H 	0.75510 0.55630 0.41270 0.06100
C 	C 	0.71940 0.51910 0.47910 0.01300
C 	C 	0.68710 0.53530 0.46190 -0.06000
H 	H 	0.69000 0.54120 0.43670 0.05400
C 	C 	0.64900 0.54450 0.47820 -0.03700
H 	H 	0.62790 0.54950 0.46370 0.04100
C 	C 	0.76440 0.52090 0.47860 -0.04800
H 	H 	0.77740 0.54030 0.46690 0.04300
O 	O 	0.21284 0.30198 0.29318 -0.75400
O 	O 	0.24834 0.32673 0.24784 -0.72900
C 	C 	0.23154 0.32819 0.27905 0.58500
C 	C 	0.23499 0.36393 0.29995 -0.24200
C 	C 	0.21861 0.36659 0.33501 0.13600
H 	H 	0.20530 0.34650 0.34490 -0.00600
C 	C 	0.25295 0.39384 0.28537 0.14700
H 	H 	0.26360 0.39190 0.26170 -0.00700
C 	C 	0.25589 0.42734 0.30476 -0.18700
H 	H 	0.26830 0.44760 0.29410 0.09200
C 	C 	0.22237 0.39944 0.35518 -0.18000
H 	H 	0.21270 0.40080 0.37930 0.08900
C 	C 	0.24029 0.43061 0.33999 0.09800
C 	C 	0.24340 0.46601 0.36106 0.01400
C 	C 	0.24460 0.46620 0.39964 -0.10200
H 	H 	0.24490 0.44370 0.41270 0.06100
C 	C 	0.28060 0.48090 0.47910 0.01300
C 	C 	0.31290 0.46470 0.46190 -0.06000
H 	H 	0.31000 0.45880 0.43670 0.05400
C 	C 	0.35100 0.45550 0.47820 -0.03700
H 	H 	0.37210 0.45050 0.46370 0.04100
C 	C 	0.23560 0.47910 0.47860 -0.04800
H 	H 	0.22260 0.45970 0.46690 0.04300
O 	O 	0.78716 0.30198 0.70682 -0.75400
O 	O 	0.75166 0.32673 0.75216 -0.72900
C 	C 	0.76846 0.32819 0.72095 0.58500
C 	C 	0.76501 0.36393 0.70005 -0.24200
C 	C 	0.78139 0.36659 0.66499 0.13600
H 	H 	0.79470 0.34650 0.65510 -0.00600
C 	C 	0.74705 0.39384 0.71463 0.14700
H 	H 	0.73640 0.39190 0.73830 -0.00700
C 	C 	0.74411 0.42734 0.69524 -0.18700
H 	H 	0.73170 0.44760 0.70590 0.09200
C 	C 	0.77763 0.39944 0.64482 -0.18000
H 	H 	0.78730 0.40080 0.62070 0.08900
C 	C 	0.75971 0.43061 0.66001 0.09800
C 	C 	0.75660 0.46601 0.63894 0.01400
C 	C 	0.75540 0.46620 0.60036 -0.10200
H 	H 	0.75510 0.44370 0.58730 0.06100
C 	C 	0.71940 0.48090 0.52090 0.01300
C 	C 	0.68710 0.46470 0.53810 -0.06000
H 	H 	0.69000 0.45880 0.56330 0.05400
C 	C 	0.64900 0.45550 0.52180 -0.03700
H 	H 	0.62790 0.45050 0.53630 0.04100
C 	C 	0.76440 0.47910 0.52140 -0.04800
H 	H 	0.77740 0.45970 0.53310 0.04300
O 	O 	0.21284 0.69802 0.70682 -0.75400
O 	O 	0.24834 0.67327 0.75216 -0.72900
C 	C 	0.23154 0.67181 0.72095 0.58500
C 	C 	0.23499 0.63607 0.70005 -0.24200
C 	C 	0.21861 0.63341 0.66499 0.13600
H 	H 	0.20530 0.65350 0.65510 -0.00600
C 	C 	0.25295 0.60616 0.71463 0.14700
H 	H 	0.26360 0.60810 0.73830 -0.00700
C 	C 	0.25589 0.57266 0.69524 -0.18700
H 	H 	0.26830 0.55240 0.70590 0.09200
C 	C 	0.22237 0.60056 0.64482 -0.18000
H 	H 	0.21270 0.59920 0.62070 0.08900
C 	C 	0.24029 0.56939 0.66001 0.09800
C 	C 	0.24340 0.53399 0.63894 0.01400
C 	C 	0.24460 0.53380 0.60036 -0.10200
H 	H 	0.24490 0.55630 0.58730 0.06100
C 	C 	0.28060 0.51910 0.52090 0.01300
C 	C 	0.31290 0.53530 0.53810 -0.06000
H 	H 	0.31000 0.54120 0.56330 0.05400
C 	C 	0.35100 0.54450 0.52180 -0.03700
H 	H 	0.37210 0.54950 0.53630 0.04100
C 	C 	0.23560 0.52090 0.52140 -0.04800
H 	H 	0.22260 0.54030 0.53310 0.04300
O 	O 	0.69802 0.70682 0.21284 -0.75400
O 	O 	0.67327 0.75216 0.24834 -0.72900
C 	C 	0.67181 0.72095 0.23154 0.58500
C 	C 	0.63607 0.70005 0.23499 -0.24200
C 	C 	0.63341 0.66499 0.21861 0.13600
H 	H 	0.65350 0.65510 0.20530 -0.00600
C 	C 	0.60616 0.71463 0.25295 0.14700
H 	H 	0.60810 0.73830 0.26360 -0.00700
C 	C 	0.57266 0.69524 0.25589 -0.18700
H 	H 	0.55240 0.70590 0.26830 0.09200
C 	C 	0.60056 0.64482 0.22237 -0.18000
H 	H 	0.59920 0.62070 0.21270 0.08900
C 	C 	0.56939 0.66001 0.24029 0.09800
C 	C 	0.53399 0.63894 0.24340 0.01400
C 	C 	0.53380 0.60036 0.24460 -0.10200
H 	H 	0.55630 0.58730 0.24490 0.06100
C 	C 	0.51910 0.52090 0.28060 0.01300
C 	C 	0.53530 0.53810 0.31290 -0.06000
H 	H 	0.54120 0.56330 0.31000 0.05400
C 	C 	0.54450 0.52180 0.35100 -0.03700
H 	H 	0.54950 0.53630 0.37210 0.04100
C 	C 	0.52090 0.52140 0.23560 -0.04800
H 	H 	0.54030 0.53310 0.22260 0.04300
O 	O 	0.30198 0.70682 0.78716 -0.75400
O 	O 	0.32673 0.75216 0.75166 -0.72900
C 	C 	0.32819 0.72095 0.76846 0.58500
C 	C 	0.36393 0.70005 0.76501 -0.24200
C 	C 	0.36659 0.66499 0.78139 0.13600
H 	H 	0.34650 0.65510 0.79470 -0.00600
C 	C 	0.39384 0.71463 0.74705 0.14700
H 	H 	0.39190 0.73830 0.73640 -0.00700
C 	C 	0.42734 0.69524 0.74411 -0.18700
H 	H 	0.44760 0.70590 0.73170 0.09200
C 	C 	0.39944 0.64482 0.77763 -0.18000
H 	H 	0.40080 0.62070 0.78730 0.08900
C 	C 	0.43061 0.66001 0.75971 0.09800
C 	C 	0.46601 0.63894 0.75660 0.01400
C 	C 	0.46620 0.60036 0.75540 -0.10200
H 	H 	0.44370 0.58730 0.75510 0.06100
C 	C 	0.48090 0.52090 0.71940 0.01300
C 	C 	0.46470 0.53810 0.68710 -0.06000
H 	H 	0.45880 0.56330 0.69000 0.05400
C 	C 	0.45550 0.52180 0.64900 -0.03700
H 	H 	0.45050 0.53630 0.62790 0.04100
C 	C 	0.47910 0.52140 0.76440 -0.04800
H 	H 	0.45970 0.53310 0.77740 0.04300
O 	O 	0.30198 0.29318 0.21284 -0.75400
O 	O 	0.32673 0.24784 0.24834 -0.72900
C 	C 	0.32819 0.27905 0.23154 0.58500
C 	C 	0.36393 0.29995 0.23499 -0.24200
C 	C 	0.36659 0.33501 0.21861 0.13600
H 	H 	0.34650 0.34490 0.20530 -0.00600
C 	C 	0.39384 0.28537 0.25295 0.14700
H 	H 	0.39190 0.26170 0.26360 -0.00700
C 	C 	0.42734 0.30476 0.25589 -0.18700
H 	H 	0.44760 0.29410 0.26830 0.09200
C 	C 	0.39944 0.35518 0.22237 -0.18000
H 	H 	0.40080 0.37930 0.21270 0.08900
C 	C 	0.43061 0.33999 0.24029 0.09800
C 	C 	0.46601 0.36106 0.24340 0.01400
C 	C 	0.46620 0.39964 0.24460 -0.10200
H 	H 	0.44370 0.41270 0.24490 0.06100
C 	C 	0.48090 0.47910 0.28060 0.01300
C 	C 	0.46470 0.46190 0.31290 -0.06000
H 	H 	0.45880 0.43670 0.31000 0.05400
C 	C 	0.45550 0.47820 0.35100 -0.03700
H 	H 	0.45050 0.46370 0.37210 0.04100
C 	C 	0.47910 0.47860 0.23560 -0.04800
H 	H 	0.45970 0.46690 0.22260 0.04300
O 	O 	0.69802 0.29318 0.78716 -0.75400
O 	O 	0.67327 0.24784 0.75166 -0.72900
C 	C 	0.67181 0.27905 0.76846 0.58500
C 	C 	0.63607 0.29995 0.76501 -0.24200
C 	C 	0.63341 0.33501 0.78139 0.13600
H 	H 	0.65350 0.34490 0.79470 -0.00600
C 	C 	0.60616 0.28537 0.74705 0.14700
H 	H 	0.60810 0.26170 0.73640 -0.00700
C 	C 	0.57266 0.30476 0.74411 -0.18700
H 	H 	0.55240 0.29410 0.73170 0.09200
C 	C 	0.60056 0.35518 0.77763 -0.18000
H 	H 	0.59920 0.37930 0.78730 0.08900
C 	C 	0.56939 0.33999 0.75971 0.09800
C 	C 	0.53399 0.36106 0.75660 0.01400
C 	C 	0.53380 0.39964 0.75540 -0.10200
H 	H 	0.55630 0.41270 0.75510 0.06100
C 	C 	0.51910 0.47910 0.71940 0.01300
C 	C 	0.53530 0.46190 0.68710 -0.06000
H 	H 	0.54120 0.43670 0.69000 0.05400
C 	C 	0.54450 0.47820 0.64900 -0.03700
H 	H 	0.54950 0.46370 0.62790 0.04100
C 	C 	0.52090 0.47860 0.76440 -0.04800
H 	H 	0.54030 0.46690 0.77740 0.04300
O 	O 	0.70682 0.78716 0.30198 -0.75400
O 	O 	0.75216 0.75166 0.32673 -0.72900
C 	C 	0.72095 0.76846 0.32819 0.58500
C 	C 	0.70005 0.76501 0.36393 -0.24200
C 	C 	0.66499 0.78139 0.36659 0.13600
H 	H 	0.65510 0.79470 0.34650 -0.00600
C 	C 	0.71463 0.74705 0.39384 0.14700
H 	H 	0.73830 0.73640 0.39190 -0.00700
C 	C 	0.69524 0.74411 0.42734 -0.18700
H 	H 	0.70590 0.73170 0.44760 0.09200
C 	C 	0.64482 0.77763 0.39944 -0.18000
H 	H 	0.62070 0.78730 0.40080 0.08900
C 	C 	0.66001 0.75971 0.43061 0.09800
C 	C 	0.63894 0.75660 0.46601 0.01400
C 	C 	0.60036 0.75540 0.46620 -0.10200
H 	H 	0.58730 0.75510 0.44370 0.06100
C 	C 	0.52090 0.71940 0.48090 0.01300
C 	C 	0.53810 0.68710 0.46470 -0.06000
H 	H 	0.56330 0.69000 0.45880 0.05400
C 	C 	0.52180 0.64900 0.45550 -0.03700
H 	H 	0.53630 0.62790 0.45050 0.04100
C 	C 	0.52140 0.76440 0.47910 -0.04800
H 	H 	0.53310 0.77740 0.45970 0.04300
O 	O 	0.70682 0.21284 0.69802 -0.75400
O 	O 	0.75216 0.24834 0.67327 -0.72900
C 	C 	0.72095 0.23154 0.67181 0.58500
C 	C 	0.70005 0.23499 0.63607 -0.24200
C 	C 	0.66499 0.21861 0.63341 0.13600
H 	H 	0.65510 0.20530 0.65350 -0.00600
C 	C 	0.71463 0.25295 0.60616 0.14700
H 	H 	0.73830 0.26360 0.60810 -0.00700
C 	C 	0.69524 0.25589 0.57266 -0.18700
H 	H 	0.70590 0.26830 0.55240 0.09200
C 	C 	0.64482 0.22237 0.60056 -0.18000
H 	H 	0.62070 0.21270 0.59920 0.08900
C 	C 	0.66001 0.24029 0.56939 0.09800
C 	C 	0.63894 0.24340 0.53399 0.01400
C 	C 	0.60036 0.24460 0.53380 -0.10200
H 	H 	0.58730 0.24490 0.55630 0.06100
C 	C 	0.52090 0.28060 0.51910 0.01300
C 	C 	0.53810 0.31290 0.53530 -0.06000
H 	H 	0.56330 0.31000 0.54120 0.05400
C 	C 	0.52180 0.35100 0.54450 -0.03700
H 	H 	0.53630 0.37210 0.54950 0.04100
C 	C 	0.52140 0.23560 0.52090 -0.04800
H 	H 	0.53310 0.22260 0.54030 0.04300
O 	O 	0.29318 0.78716 0.69802 -0.75400
O 	O 	0.24784 0.75166 0.67327 -0.72900
C 	C 	0.27905 0.76846 0.67181 0.58500
C 	C 	0.29995 0.76501 0.63607 -0.24200
C 	C 	0.33501 0.78139 0.63341 0.13600
H 	H 	0.34490 0.79470 0.65350 -0.00600
C 	C 	0.28537 0.74705 0.60616 0.14700
H 	H 	0.26170 0.73640 0.60810 -0.00700
C 	C 	0.30476 0.74411 0.57266 -0.18700
H 	H 	0.29410 0.73170 0.55240 0.09200
C 	C 	0.35518 0.77763 0.60056 -0.18000
H 	H 	0.37930 0.78730 0.59920 0.08900
C 	C 	0.33999 0.75971 0.56939 0.09800
C 	C 	0.36106 0.75660 0.53399 0.01400
C 	C 	0.39964 0.75540 0.53380 -0.10200
H 	H 	0.41270 0.75510 0.55630 0.06100
C 	C 	0.47910 0.71940 0.51910 0.01300
C 	C 	0.46190 0.68710 0.53530 -0.06000
H 	H 	0.43670 0.69000 0.54120 0.05400
C 	C 	0.47820 0.64900 0.54450 -0.03700
H 	H 	0.46370 0.62790 0.54950 0.04100
C 	C 	0.47860 0.76440 0.52090 -0.04800
H 	H 	0.46690 0.77740 0.54030 0.04300
O 	O 	0.29318 0.21284 0.30198 -0.75400
O 	O 	0.24784 0.24834 0.32673 -0.72900
C 	C 	0.27905 0.23154 0.32819 0.58500
C 	C 	0.29995 0.23499 0.36393 -0.24200
C 	C 	0.33501 0.21861 0.36659 0.13600
H 	H 	0.34490 0.20530 0.34650 -0.00600
C 	C 	0.28537 0.25295 0.39384 0.14700
H 	H 	0.26170 0.26360 0.39190 -0.00700
C 	C 	0.30476 0.25589 0.42734 -0.18700
H 	H 	0.29410 0.26830 0.44760 0.09200
C 	C 	0.35518 0.22237 0.39944 -0.18000
H 	H 	0.37930 0.21270 0.40080 0.08900
C 	C 	0.33999 0.24029 0.43061 0.09800
C 	C 	0.36106 0.24340 0.46601 0.01400
C 	C 	0.39964 0.24460 0.46620 -0.10200
H 	H 	0.41270 0.24490 0.44370 0.06100
C 	C 	0.47910 0.28060 0.48090 0.01300
C 	C 	0.46190 0.31290 0.46470 -0.06000
H 	H 	0.43670 0.31000 0.45880 0.05400
C 	C 	0.47820 0.35100 0.45550 -0.03700
H 	H 	0.46370 0.37210 0.45050 0.04100
C 	C 	0.47860 0.23560 0.47910 -0.04800
H 	H 	0.46690 0.22260 0.45970 0.04300
O 	O 	0.80198 0.71284 0.79318 -0.75400
O 	O 	0.82673 0.74834 0.74784 -0.72900
C 	C 	0.82819 0.73154 0.77905 0.58500
C 	C 	0.86393 0.73499 0.79995 -0.24300
C 	C 	0.86659 0.71861 0.83501 0.13600
H 	H 	0.84650 0.70530 0.84490 -0.00600
C 	C 	0.89384 0.75295 0.78537 0.14700
H 	H 	0.89190 0.76360 0.76170 -0.00700
C 	C 	0.92734 0.75589 0.80476 -0.18700
H 	H 	0.94760 0.76830 0.79410 0.09200
C 	C 	0.89944 0.72237 0.85518 -0.18100
H 	H 	0.90080 0.71270 0.87930 0.09000
C 	C 	0.93061 0.74029 0.83999 0.09900
C 	C 	0.96601 0.74340 0.86106 0.01200
C 	C 	0.96620 0.74460 0.89964 -0.09800
H 	H 	0.94370 0.74490 0.91270 0.06000
C 	C 	0.98090 0.78060 0.97910 0.01200
C 	C 	0.96470 0.81290 0.96190 -0.06000
H 	H 	0.95880 0.81000 0.93670 0.05400
C 	C 	0.95550 0.85100 0.97820 -0.03700
H 	H 	0.95050 0.87210 0.96370 0.04100
C 	C 	0.97910 0.73560 0.97860 -0.05600
H 	H 	0.95970 0.72260 0.96690 0.04600
O 	O 	0.19802 0.28716 0.79318 -0.75400
O 	O 	0.17327 0.25166 0.74784 -0.72900
C 	C 	0.17181 0.26846 0.77905 0.58500
C 	C 	0.13607 0.26501 0.79995 -0.24300
C 	C 	0.13341 0.28139 0.83501 0.13600
H 	H 	0.15350 0.29470 0.84490 -0.00600
C 	C 	0.10616 0.24705 0.78537 0.14700
H 	H 	0.10810 0.23640 0.76170 -0.00700
C 	C 	0.07266 0.24411 0.80476 -0.18800
H 	H 	0.05240 0.23170 0.79410 0.09200
C 	C 	0.10056 0.27763 0.85518 -0.18100
H 	H 	0.09920 0.28730 0.87930 0.09000
C 	C 	0.06939 0.25971 0.83999 0.09900
C 	C 	0.03399 0.25660 0.86106 0.01200
C 	C 	0.03380 0.25540 0.89964 -0.09800
H 	H 	0.05630 0.25510 0.91270 0.06000
C 	C 	0.01910 0.21940 0.97910 0.01100
C 	C 	0.03530 0.18710 0.96190 -0.06000
H 	H 	0.04120 0.19000 0.93670 0.05400
C 	C 	0.04450 0.14900 0.97820 -0.03800
H 	H 	0.04950 0.12790 0.96370 0.04100
C 	C 	0.02090 0.26440 0.97860 -0.05600
H 	H 	0.04030 0.27740 0.96690 0.04600
O 	O 	0.19802 0.71284 0.20682 -0.75300
O 	O 	0.17327 0.74834 0.25216 -0.72900
C 	C 	0.17181 0.73154 0.22095 0.58500
C 	C 	0.13607 0.73499 0.20005 -0.24200
C 	C 	0.13341 0.71861 0.16499 0.13500
H 	H 	0.15350 0.70530 0.15510 -0.00600
C 	C 	0.10616 0.75295 0.21463 0.14600
H 	H 	0.10810 0.76360 0.23830 -0.00600
C 	C 	0.07266 0.75589 0.19524 -0.18600
H 	H 	0.05240 0.76830 0.20590 0.09100
C 	C 	0.10056 0.72237 0.14482 -0.17900
H 	H 	0.09920 0.71270 0.12070 0.08900
C 	C 	0.06939 0.74029 0.16001 0.09700
C 	C 	0.03399 0.74340 0.13894 0.01600
C 	C 	0.03380 0.74460 0.10036 -0.10600
H 	H 	0.05630 0.74490 0.08730 0.06300
C 	C 	0.01910 0.78060 0.02090 0.01500
C 	C 	0.03530 0.81290 0.03810 -0.06100
H 	H 	0.04120 0.81000 0.06330 0.05400
C 	C 	0.04450 0.85100 0.02180 -0.03700
H 	H 	0.04950 0.87210 0.03630 0.04100
C 	C 	0.02090 0.73560 0.02140 -0.04000
H 	H 	0.04030 0.72260 0.03310 0.04000
O 	O 	0.80198 0.28716 0.20682 -0.75300
O 	O 	0.82673 0.25166 0.25216 -0.72900
C 	C 	0.82819 0.26846 0.22095 0.58500
C 	C 	0.86393 0.26501 0.20005 -0.24200
C 	C 	0.86659 0.28139 0.16499 0.13500
H 	H 	0.84650 0.29470 0.15510 -0.00600
C 	C 	0.89384 0.24705 0.21463 0.14600
H 	H 	0.89190 0.23640 0.23830 -0.00600
C 	C 	0.92734 0.24411 0.19524 -0.18600
H 	H 	0.94760 0.23170 0.20590 0.09100
C 	C 	0.89944 0.27763 0.14482 -0.17900
H 	H 	0.90080 0.28730 0.12070 0.08900
C 	C 	0.93061 0.25971 0.16001 0.09700
C 	C 	0.96601 0.25660 0.13894 0.01600
C 	C 	0.96620 0.25540 0.10036 -0.10500
H 	H 	0.94370 0.25510 0.08730 0.06300
C 	C 	0.98090 0.21940 0.02090 0.01500
C 	C 	0.96470 0.18710 0.03810 -0.06100
H 	H 	0.95880 0.19000 0.06330 0.05400
C 	C 	0.95550 0.14900 0.02180 -0.03700
H 	H 	0.95050 0.12790 0.03630 0.04100
C 	C 	0.97910 0.26440 0.02140 -0.04000
H 	H 	0.95970 0.27740 0.03310 0.04000
O 	O 	0.79318 0.80198 0.71284 -0.75400
O 	O 	0.74784 0.82673 0.74834 -0.72900
C 	C 	0.77905 0.82819 0.73154 0.58500
C 	C 	0.79995 0.86393 0.73499 -0.24300
C 	C 	0.83501 0.86659 0.71861 0.13600
H 	H 	0.84490 0.84650 0.70530 -0.00600
C 	C 	0.78537 0.89384 0.75295 0.14700
H 	H 	0.76170 0.89190 0.76360 -0.00700
C 	C 	0.80476 0.92734 0.75589 -0.18700
H 	H 	0.79410 0.94760 0.76830 0.09200
C 	C 	0.85518 0.89944 0.72237 -0.18100
H 	H 	0.87930 0.90080 0.71270 0.09000
C 	C 	0.83999 0.93061 0.74029 0.09900
C 	C 	0.86106 0.96601 0.74340 0.01200
C 	C 	0.89964 0.96620 0.74460 -0.09800
H 	H 	0.91270 0.94370 0.74490 0.06000
C 	C 	0.97910 0.98090 0.78060 0.01200
C 	C 	0.96190 0.96470 0.81290 -0.06000
H 	H 	0.93670 0.95880 0.81000 0.05400
C 	C 	0.97820 0.95550 0.85100 -0.03700
H 	H 	0.96370 0.95050 0.87210 0.04100
C 	C 	0.97860 0.97910 0.73560 -0.05600
H 	H 	0.96690 0.95970 0.72260 0.04600
O 	O 	0.79318 0.19802 0.28716 -0.75400
O 	O 	0.74784 0.17327 0.25166 -0.72900
C 	C 	0.77905 0.17181 0.26846 0.58500
C 	C 	0.79995 0.13607 0.26501 -0.24300
C 	C 	0.83501 0.13341 0.28139 0.13600
H 	H 	0.84490 0.15350 0.29470 -0.00600
C 	C 	0.78537 0.10616 0.24705 0.14700
H 	H 	0.76170 0.10810 0.23640 -0.00700
C 	C 	0.80476 0.07266 0.24411 -0.18800
H 	H 	0.79410 0.05240 0.23170 0.09200
C 	C 	0.85518 0.10056 0.27763 -0.18100
H 	H 	0.87930 0.09920 0.28730 0.09000
C 	C 	0.83999 0.06939 0.25971 0.09900
C 	C 	0.86106 0.03399 0.25660 0.01200
C 	C 	0.89964 0.03380 0.25540 -0.09800
H 	H 	0.91270 0.05630 0.25510 0.06000
C 	C 	0.97910 0.01910 0.21940 0.01100
C 	C 	0.96190 0.03530 0.18710 -0.06000
H 	H 	0.93670 0.04120 0.19000 0.05400
C 	C 	0.97820 0.04450 0.14900 -0.03800
H 	H 	0.96370 0.04950 0.12790 0.04100
C 	C 	0.97860 0.02090 0.26440 -0.05600
H 	H 	0.96690 0.04030 0.27740 0.04600
O 	O 	0.20682 0.19802 0.71284 -0.75300
O 	O 	0.25216 0.17327 0.74834 -0.72900
C 	C 	0.22095 0.17181 0.73154 0.58500
C 	C 	0.20005 0.13607 0.73499 -0.24200
C 	C 	0.16499 0.13341 0.71861 0.13500
H 	H 	0.15510 0.15350 0.70530 -0.00600
C 	C 	0.21463 0.10616 0.75295 0.14600
H 	H 	0.23830 0.10810 0.76360 -0.00600
C 	C 	0.19524 0.07266 0.75589 -0.18600
H 	H 	0.20590 0.05240 0.76830 0.09100
C 	C 	0.14482 0.10056 0.72237 -0.17900
H 	H 	0.12070 0.09920 0.71270 0.08900
C 	C 	0.16001 0.06939 0.74029 0.09700
C 	C 	0.13894 0.03399 0.74340 0.01600
C 	C 	0.10036 0.03380 0.74460 -0.10600
H 	H 	0.08730 0.05630 0.74490 0.06300
C 	C 	0.02090 0.01910 0.78060 0.01500
C 	C 	0.03810 0.03530 0.81290 -0.06100
H 	H 	0.06330 0.04120 0.81000 0.05400
C 	C 	0.02180 0.04450 0.85100 -0.03700
H 	H 	0.03630 0.04950 0.87210 0.04100
C 	C 	0.02140 0.02090 0.73560 -0.04000
H 	H 	0.03310 0.04030 0.72260 0.04000
O 	O 	0.20682 0.80198 0.28716 -0.75300
O 	O 	0.25216 0.82673 0.25166 -0.72900
C 	C 	0.22095 0.82819 0.26846 0.58500
C 	C 	0.20005 0.86393 0.26501 -0.24200
C 	C 	0.16499 0.86659 0.28139 0.13500
H 	H 	0.15510 0.84650 0.29470 -0.00600
C 	C 	0.21463 0.89384 0.24705 0.14600
H 	H 	0.23830 0.89190 0.23640 -0.00600
C 	C 	0.19524 0.92734 0.24411 -0.18600
H 	H 	0.20590 0.94760 0.23170 0.09100
C 	C 	0.14482 0.89944 0.27763 -0.17900
H 	H 	0.12070 0.90080 0.28730 0.08900
C 	C 	0.16001 0.93061 0.25971 0.09700
C 	C 	0.13894 0.96601 0.25660 0.01600
C 	C 	0.10036 0.96620 0.25540 -0.10500
H 	H 	0.08730 0.94370 0.25510 0.06300
C 	C 	0.02090 0.98090 0.21940 0.01500
C 	C 	0.03810 0.96470 0.18710 -0.06100
H 	H 	0.06330 0.95880 0.19000 0.05400
C 	C 	0.02180 0.95550 0.14900 -0.03700
H 	H 	0.03630 0.95050 0.12790 0.04100
C 	C 	0.02140 0.97910 0.26440 -0.04000
H 	H 	0.03310 0.95970 0.27740 0.04000
O 	O 	0.71284 0.79318 0.80198 -0.75400
O 	O 	0.74834 0.74784 0.82673 -0.72900
C 	C 	0.73154 0.77905 0.82819 0.58500
C 	C 	0.73499 0.79995 0.86393 -0.24300
C 	C 	0.71861 0.83501 0.86659 0.13600
H 	H 	0.70530 0.84490 0.84650 -0.00600
C 	C 	0.75295 0.78537 0.89384 0.14700
H 	H 	0.76360 0.76170 0.89190 -0.00700
C 	C 	0.75589 0.80476 0.92734 -0.18700
H 	H 	0.76830 0.79410 0.94760 0.09200
C 	C 	0.72237 0.85518 0.89944 -0.18100
H 	H 	0.71270 0.87930 0.90080 0.09000
C 	C 	0.74029 0.83999 0.93061 0.09900
C 	C 	0.74340 0.86106 0.96601 0.01200
C 	C 	0.74460 0.89964 0.96620 -0.09800
H 	H 	0.74490 0.91270 0.94370 0.06000
C 	C 	0.78060 0.97910 0.98090 0.01200
C 	C 	0.81290 0.96190 0.96470 -0.06000
H 	H 	0.81000 0.93670 0.95880 0.05400
C 	C 	0.85100 0.97820 0.95550 -0.03700
H 	H 	0.87210 0.96370 0.95050 0.04100
C 	C 	0.73560 0.97860 0.97910 -0.05600
H 	H 	0.72260 0.96690 0.95970 0.04600
O 	O 	0.28716 0.79318 0.19802 -0.75400
O 	O 	0.25166 0.74784 0.17327 -0.72900
C 	C 	0.26846 0.77905 0.17181 0.58500
C 	C 	0.26501 0.79995 0.13607 -0.24300
C 	C 	0.28139 0.83501 0.13341 0.13600
H 	H 	0.29470 0.84490 0.15350 -0.00600
C 	C 	0.24705 0.78537 0.10616 0.14700
H 	H 	0.23640 0.76170 0.10810 -0.00700
C 	C 	0.24411 0.80476 0.07266 -0.18800
H 	H 	0.23170 0.79410 0.05240 0.09200
C 	C 	0.27763 0.85518 0.10056 -0.18100
H 	H 	0.28730 0.87930 0.09920 0.09000
C 	C 	0.25971 0.83999 0.06939 0.09900
C 	C 	0.25660 0.86106 0.03399 0.01200
C 	C 	0.25540 0.89964 0.03380 -0.09800
H 	H 	0.25510 0.91270 0.05630 0.06000
C 	C 	0.21940 0.97910 0.01910 0.01100
C 	C 	0.18710 0.96190 0.03530 -0.06000
H 	H 	0.19000 0.93670 0.04120 0.05400
C 	C 	0.14900 0.97820 0.04450 -0.03800
H 	H 	0.12790 0.96370 0.04950 0.04100
C 	C 	0.26440 0.97860 0.02090 -0.05600
H 	H 	0.27740 0.96690 0.04030 0.04600
O 	O 	0.71284 0.20682 0.19802 -0.75300
O 	O 	0.74834 0.25216 0.17327 -0.72900
C 	C 	0.73154 0.22095 0.17181 0.58500
C 	C 	0.73499 0.20005 0.13607 -0.24200
C 	C 	0.71861 0.16499 0.13341 0.13500
H 	H 	0.70530 0.15510 0.15350 -0.00600
C 	C 	0.75295 0.21463 0.10616 0.14600
H 	H 	0.76360 0.23830 0.10810 -0.00600
C 	C 	0.75589 0.19524 0.07266 -0.18600
H 	H 	0.76830 0.20590 0.05240 0.09100
C 	C 	0.72237 0.14482 0.10056 -0.17900
H 	H 	0.71270 0.12070 0.09920 0.08900
C 	C 	0.74029 0.16001 0.06939 0.09700
C 	C 	0.74340 0.13894 0.03399 0.01600
C 	C 	0.74460 0.10036 0.03380 -0.10600
H 	H 	0.74490 0.08730 0.05630 0.06300
C 	C 	0.78060 0.02090 0.01910 0.01500
C 	C 	0.81290 0.03810 0.03530 -0.06100
H 	H 	0.81000 0.06330 0.04120 0.05400
C 	C 	0.85100 0.02180 0.04450 -0.03700
H 	H 	0.87210 0.03630 0.04950 0.04100
C 	C 	0.73560 0.02140 0.02090 -0.04000
H 	H 	0.72260 0.03310 0.04030 0.04000
O 	O 	0.28716 0.20682 0.80198 -0.75300
O 	O 	0.25166 0.25216 0.82673 -0.72900
C 	C 	0.26846 0.22095 0.82819 0.58500
C 	C 	0.26501 0.20005 0.86393 -0.24200
C 	C 	0.28139 0.16499 0.86659 0.13500
H 	H 	0.29470 0.15510 0.84650 -0.00600
C 	C 	0.24705 0.21463 0.89384 0.14600
H 	H 	0.23640 0.23830 0.89190 -0.00600
C 	C 	0.24411 0.19524 0.92734 -0.18600
H 	H 	0.23170 0.20590 0.94760 0.09100
C 	C 	0.27763 0.14482 0.89944 -0.17900
H 	H 	0.28730 0.12070 0.90080 0.08900
C 	C 	0.25971 0.16001 0.93061 0.09700
C 	C 	0.25660 0.13894 0.96601 0.01600
C 	C 	0.25540 0.10036 0.96620 -0.10500
H 	H 	0.25510 0.08730 0.94370 0.06300
C 	C 	0.21940 0.02090 0.98090 0.01500
C 	C 	0.18710 0.03810 0.96470 -0.06100
H 	H 	0.19000 0.06330 0.95880 0.05400
C 	C 	0.14900 0.02180 0.95550 -0.03700
H 	H 	0.12790 0.03630 0.95050 0.04100
C 	C 	0.26440 0.02140 0.97910 -0.04000
H 	H 	0.27740 0.03310 0.95970 0.04000
O 	O 	0.21284 0.30198 0.70682 -0.75400
O 	O 	0.24834 0.32673 0.75216 -0.72900
C 	C 	0.23154 0.32819 0.72095 0.58500
C 	C 	0.23499 0.36393 0.70005 -0.24200
C 	C 	0.21861 0.36659 0.66499 0.13600
H 	H 	0.20530 0.34650 0.65510 -0.00600
C 	C 	0.25295 0.39384 0.71463 0.14700
H 	H 	0.26360 0.39190 0.73830 -0.00700
C 	C 	0.25589 0.42734 0.69524 -0.18700
H 	H 	0.26830 0.44760 0.70590 0.09200
C 	C 	0.22237 0.39944 0.64482 -0.18000
H 	H 	0.21270 0.40080 0.62070 0.08900
C 	C 	0.24029 0.43061 0.66001 0.09800
C 	C 	0.24340 0.46601 0.63894 0.01400
C 	C 	0.24460 0.46620 0.60036 -0.10200
H 	H 	0.24490 0.44370 0.58730 0.06100
C 	C 	0.28060 0.48090 0.52090 0.01300
C 	C 	0.31290 0.46470 0.53810 -0.06000
H 	H 	0.31000 0.45880 0.56330 0.05400
C 	C 	0.35100 0.45550 0.52180 -0.03700
H 	H 	0.37210 0.45050 0.53630 0.04100
C 	C 	0.23560 0.47910 0.52140 -0.04800
H 	H 	0.22260 0.45970 0.53310 0.04300
O 	O 	0.78716 0.69802 0.70682 -0.75400
O 	O 	0.75166 0.67327 0.75216 -0.72900
C 	C 	0.76846 0.67181 0.72095 0.58500
C 	C 	0.76501 0.63607 0.70005 -0.24200
C 	C 	0.78139 0.63341 0.66499 0.13600
H 	H 	0.79470 0.65350 0.65510 -0.00600
C 	C 	0.74705 0.60616 0.71463 0.14700
H 	H 	0.73640 0.60810 0.73830 -0.00700
C 	C 	0.74411 0.57266 0.69524 -0.18700
H 	H 	0.73170 0.55240 0.70590 0.09200
C 	C 	0.77763 0.60056 0.64482 -0.18000
H 	H 	0.78730 0.59920 0.62070 0.08900
C 	C 	0.75971 0.56939 0.66001 0.09800
C 	C 	0.75660 0.53399 0.63894 0.01400
C 	C 	0.75540 0.53380 0.60036 -0.10200
H 	H 	0.75510 0.55630 0.58730 0.06100
C 	C 	0.71940 0.51910 0.52090 0.01300
C 	C 	0.68710 0.53530 0.53810 -0.06000
H 	H 	0.69000 0.54120 0.56330 0.05400
C 	C 	0.64900 0.54450 0.52180 -0.03700
H 	H 	0.62790 0.54950 0.53630 0.04100
C 	C 	0.76440 0.52090 0.52140 -0.04800
H 	H 	0.77740 0.54030 0.53310 0.04300
O 	O 	0.21284 0.69802 0.29318 -0.75400
O 	O 	0.24834 0.67327 0.24784 -0.72900
C 	C 	0.23154 0.67181 0.27905 0.58500
C 	C 	0.23499 0.63607 0.29995 -0.24200
C 	C 	0.21861 0.63341 0.33501 0.13600
H 	H 	0.20530 0.65350 0.34490 -0.00600
C 	C 	0.25295 0.60616 0.28537 0.14700
H 	H 	0.26360 0.60810 0.26170 -0.00700
C 	C 	0.25589 0.57266 0.30476 -0.18700
H 	H 	0.26830 0.55240 0.29410 0.09200
C 	C 	0.22237 0.60056 0.35518 -0.18000
H 	H 	0.21270 0.59920 0.37930 0.08900
C 	C 	0.24029 0.56939 0.33999 0.09800
C 	C 	0.24340 0.53399 0.36106 0.01400
C 	C 	0.24460 0.53380 0.39964 -0.10200
H 	H 	0.24490 0.55630 0.41270 0.06100
C 	C 	0.28060 0.51910 0.47910 0.01300
C 	C 	0.31290 0.53530 0.46190 -0.06000
H 	H 	0.31000 0.54120 0.43670 0.05400
C 	C 	0.35100 0.54450 0.47820 -0.03700
H 	H 	0.37210 0.54950 0.46370 0.04100
C 	C 	0.23560 0.52090 0.47860 -0.04800
H 	H 	0.22260 0.54030 0.46690 0.04300
O 	O 	0.78716 0.30198 0.29318 -0.75400
O 	O 	0.75166 0.32673 0.24784 -0.72900
C 	C 	0.76846 0.32819 0.27905 0.58500
C 	C 	0.76501 0.36393 0.29995 -0.24200
C 	C 	0.78139 0.36659 0.33501 0.13600
H 	H 	0.79470 0.34650 0.34490 -0.00600
C 	C 	0.74705 0.39384 0.28537 0.14700
H 	H 	0.73640 0.39190 0.26170 -0.00700
C 	C 	0.74411 0.42734 0.30476 -0.18700
H 	H 	0.73170 0.44760 0.29410 0.09200
C 	C 	0.77763 0.39944 0.35518 -0.18000
H 	H 	0.78730 0.40080 0.37930 0.08900
C 	C 	0.75971 0.43061 0.33999 0.09800
C 	C 	0.75660 0.46601 0.36106 0.01400
C 	C 	0.75540 0.46620 0.39964 -0.10200
H 	H 	0.75510 0.44370 0.41270 0.06100
C 	C 	0.71940 0.48090 0.47910 0.01300
C 	C 	0.68710 0.46470 0.46190 -0.06000
H 	H 	0.69000 0.45880 0.43670 0.05400
C 	C 	0.64900 0.45550 0.47820 -0.03700
H 	H 	0.62790 0.45050 0.46370 0.04100
C 	C 	0.76440 0.47910 0.47860 -0.04800
H 	H 	0.77740 0.45970 0.46690 0.04300
O 	O 	0.30198 0.29318 0.78716 -0.75400
O 	O 	0.32673 0.24784 0.75166 -0.72900
C 	C 	0.32819 0.27905 0.76846 0.58500
C 	C 	0.36393 0.29995 0.76501 -0.24200
C 	C 	0.36659 0.33501 0.78139 0.13600
H 	H 	0.34650 0.34490 0.79470 -0.00600
C 	C 	0.39384 0.28537 0.74705 0.14700
H 	H 	0.39190 0.26170 0.73640 -0.00700
C 	C 	0.42734 0.30476 0.74411 -0.18700
H 	H 	0.44760 0.29410 0.73170 0.09200
C 	C 	0.39944 0.35518 0.77763 -0.18000
H 	H 	0.40080 0.37930 0.78730 0.08900
C 	C 	0.43061 0.33999 0.75971 0.09800
C 	C 	0.46601 0.36106 0.75660 0.01400
C 	C 	0.46620 0.39964 0.75540 -0.10200
H 	H 	0.44370 0.41270 0.75510 0.06100
C 	C 	0.48090 0.47910 0.71940 0.01300
C 	C 	0.46470 0.46190 0.68710 -0.06000
H 	H 	0.45880 0.43670 0.69000 0.05400
C 	C 	0.45550 0.47820 0.64900 -0.03700
H 	H 	0.45050 0.46370 0.62790 0.04100
C 	C 	0.47910 0.47860 0.76440 -0.04800
H 	H 	0.45970 0.46690 0.77740 0.04300
O 	O 	0.69802 0.29318 0.21284 -0.75400
O 	O 	0.67327 0.24784 0.24834 -0.72900
C 	C 	0.67181 0.27905 0.23154 0.58500
C 	C 	0.63607 0.29995 0.23499 -0.24200
C 	C 	0.63341 0.33501 0.21861 0.13600
H 	H 	0.65350 0.34490 0.20530 -0.00600
C 	C 	0.60616 0.28537 0.25295 0.14700
H 	H 	0.60810 0.26170 0.26360 -0.00700
C 	C 	0.57266 0.30476 0.25589 -0.18700
H 	H 	0.55240 0.29410 0.26830 0.09200
C 	C 	0.60056 0.35518 0.22237 -0.18000
H 	H 	0.59920 0.37930 0.21270 0.08900
C 	C 	0.56939 0.33999 0.24029 0.09800
C 	C 	0.53399 0.36106 0.24340 0.01400
C 	C 	0.53380 0.39964 0.24460 -0.10200
H 	H 	0.55630 0.41270 0.24490 0.06100
C 	C 	0.51910 0.47910 0.28060 0.01300
C 	C 	0.53530 0.46190 0.31290 -0.06000
H 	H 	0.54120 0.43670 0.31000 0.05400
C 	C 	0.54450 0.47820 0.35100 -0.03700
H 	H 	0.54950 0.46370 0.37210 0.04100
C 	C 	0.52090 0.47860 0.23560 -0.04800
H 	H 	0.54030 0.46690 0.22260 0.04300
O 	O 	0.69802 0.70682 0.78716 -0.75400
O 	O 	0.67327 0.75216 0.75166 -0.72900
C 	C 	0.67181 0.72095 0.76846 0.58500
C 	C 	0.63607 0.70005 0.76501 -0.24200
C 	C 	0.63341 0.66499 0.78139 0.13600
H 	H 	0.65350 0.65510 0.79470 -0.00600
C 	C 	0.60616 0.71463 0.74705 0.14700
H 	H 	0.60810 0.73830 0.73640 -0.00700
C 	C 	0.57266 0.69524 0.74411 -0.18700
H 	H 	0.55240 0.70590 0.73170 0.09200
C 	C 	0.60056 0.64482 0.77763 -0.18000
H 	H 	0.59920 0.62070 0.78730 0.08900
C 	C 	0.56939 0.66001 0.75971 0.09800
C 	C 	0.53399 0.63894 0.75660 0.01400
C 	C 	0.53380 0.60036 0.75540 -0.10200
H 	H 	0.55630 0.58730 0.75510 0.06100
C 	C 	0.51910 0.52090 0.71940 0.01300
C 	C 	0.53530 0.53810 0.68710 -0.06000
H 	H 	0.54120 0.56330 0.69000 0.05400
C 	C 	0.54450 0.52180 0.64900 -0.03700
H 	H 	0.54950 0.53630 0.62790 0.04100
C 	C 	0.52090 0.52140 0.76440 -0.04800
H 	H 	0.54030 0.53310 0.77740 0.04300
O 	O 	0.30198 0.70682 0.21284 -0.75400
O 	O 	0.32673 0.75216 0.24834 -0.72900
C 	C 	0.32819 0.72095 0.23154 0.58500
C 	C 	0.36393 0.70005 0.23499 -0.24200
C 	C 	0.36659 0.66499 0.21861 0.13600
H 	H 	0.34650 0.65510 0.20530 -0.00600
C 	C 	0.39384 0.71463 0.25295 0.14700
H 	H 	0.39190 0.73830 0.26360 -0.00700
C 	C 	0.42734 0.69524 0.25589 -0.18700
H 	H 	0.44760 0.70590 0.26830 0.09200
C 	C 	0.39944 0.64482 0.22237 -0.18000
H 	H 	0.40080 0.62070 0.21270 0.08900
C 	C 	0.43061 0.66001 0.24029 0.09800
C 	C 	0.46601 0.63894 0.24340 0.01400
C 	C 	0.46620 0.60036 0.24460 -0.10200
H 	H 	0.44370 0.58730 0.24490 0.06100
C 	C 	0.48090 0.52090 0.28060 0.01300
C 	C 	0.46470 0.53810 0.31290 -0.06000
H 	H 	0.45880 0.56330 0.31000 0.05400
C 	C 	0.45550 0.52180 0.35100 -0.03700
H 	H 	0.45050 0.53630 0.37210 0.04100
C 	C 	0.47910 0.52140 0.23560 -0.04800
H 	H 	0.45970 0.53310 0.22260 0.04300
O 	O 	0.29318 0.21284 0.69802 -0.75400
O 	O 	0.24784 0.24834 0.67327 -0.72900
C 	C 	0.27905 0.23154 0.67181 0.58500
C 	C 	0.29995 0.23499 0.63607 -0.24200
C 	C 	0.33501 0.21861 0.63341 0.13600
H 	H 	0.34490 0.20530 0.65350 -0.00600
C 	C 	0.28537 0.25295 0.60616 0.14700
H 	H 	0.26170 0.26360 0.60810 -0.00700
C 	C 	0.30476 0.25589 0.57266 -0.18700
H 	H 	0.29410 0.26830 0.55240 0.09200
C 	C 	0.35518 0.22237 0.60056 -0.18000
H 	H 	0.37930 0.21270 0.59920 0.08900
C 	C 	0.33999 0.24029 0.56939 0.09800
C 	C 	0.36106 0.24340 0.53399 0.01400
C 	C 	0.39964 0.24460 0.53380 -0.10200
H 	H 	0.41270 0.24490 0.55630 0.06100
C 	C 	0.47910 0.28060 0.51910 0.01300
C 	C 	0.46190 0.31290 0.53530 -0.06000
H 	H 	0.43670 0.31000 0.54120 0.05400
C 	C 	0.47820 0.35100 0.54450 -0.03700
H 	H 	0.46370 0.37210 0.54950 0.04100
C 	C 	0.47860 0.23560 0.52090 -0.04800
H 	H 	0.46690 0.22260 0.54030 0.04300
O 	O 	0.29318 0.78716 0.30198 -0.75400
O 	O 	0.24784 0.75166 0.32673 -0.72900
C 	C 	0.27905 0.76846 0.32819 0.58500
C 	C 	0.29995 0.76501 0.36393 -0.24200
C 	C 	0.33501 0.78139 0.36659 0.13600
H 	H 	0.34490 0.79470 0.34650 -0.00600
C 	C 	0.28537 0.74705 0.39384 0.14700
H 	H 	0.26170 0.73640 0.39190 -0.00700
C 	C 	0.30476 0.74411 0.42734 -0.18700
H 	H 	0.29410 0.73170 0.44760 0.09200
C 	C 	0.35518 0.77763 0.39944 -0.18000
H 	H 	0.37930 0.78730 0.40080 0.08900
C 	C 	0.33999 0.75971 0.43061 0.09800
C 	C 	0.36106 0.75660 0.46601 0.01400
C 	C 	0.39964 0.75540 0.46620 -0.10200
H 	H 	0.41270 0.75510 0.44370 0.06100
C 	C 	0.47910 0.71940 0.48090 0.01300
C 	C 	0.46190 0.68710 0.46470 -0.06000
H 	H 	0.43670 0.69000 0.45880 0.05400
C 	C 	0.47820 0.64900 0.45550 -0.03700
H 	H 	0.46370 0.62790 0.45050 0.04100
C 	C 	0.47860 0.76440 0.47910 -0.04800
H 	H 	0.46690 0.77740 0.45970 0.04300
O 	O 	0.70682 0.21284 0.30198 -0.75400
O 	O 	0.75216 0.24834 0.32673 -0.72900
C 	C 	0.72095 0.23154 0.32819 0.58500
C 	C 	0.70005 0.23499 0.36393 -0.24200
C 	C 	0.66499 0.21861 0.36659 0.13600
H 	H 	0.65510 0.20530 0.34650 -0.00600
C 	C 	0.71463 0.25295 0.39384 0.14700
H 	H 	0.73830 0.26360 0.39190 -0.00700
C 	C 	0.69524 0.25589 0.42734 -0.18700
H 	H 	0.70590 0.26830 0.44760 0.09200
C 	C 	0.64482 0.22237 0.39944 -0.18000
H 	H 	0.62070 0.21270 0.40080 0.08900
C 	C 	0.66001 0.24029 0.43061 0.09800
C 	C 	0.63894 0.24340 0.46601 0.01400
C 	C 	0.60036 0.24460 0.46620 -0.10200
H 	H 	0.58730 0.24490 0.44370 0.06100
C 	C 	0.52090 0.28060 0.48090 0.01300
C 	C 	0.53810 0.31290 0.46470 -0.06000
H 	H 	0.56330 0.31000 0.45880 0.05400
C 	C 	0.52180 0.35100 0.45550 -0.03700
H 	H 	0.53630 0.37210 0.45050 0.04100
C 	C 	0.52140 0.23560 0.47910 -0.04800
H 	H 	0.53310 0.22260 0.45970 0.04300
O 	O 	0.70682 0.78716 0.69802 -0.75400
O 	O 	0.75216 0.75166 0.67327 -0.72900
C 	C 	0.72095 0.76846 0.67181 0.58500
C 	C 	0.70005 0.76501 0.63607 -0.24200
C 	C 	0.66499 0.78139 0.63341 0.13600
H 	H 	0.65510 0.79470 0.65350 -0.00600
C 	C 	0.71463 0.74705 0.60616 0.14700
H 	H 	0.73830 0.73640 0.60810 -0.00700
C 	C 	0.69524 0.74411 0.57266 -0.18700
H 	H 	0.70590 0.73170 0.55240 0.09200
C 	C 	0.64482 0.77763 0.60056 -0.18000
H 	H 	0.62070 0.78730 0.59920 0.08900
C 	C 	0.66001 0.75971 0.56939 0.09800
C 	C 	0.63894 0.75660 0.53399 0.01400
C 	C 	0.60036 0.75540 0.53380 -0.10200
H 	H 	0.58730 0.75510 0.55630 0.06100
C 	C 	0.52090 0.71940 0.51910 0.01300
C 	C 	0.53810 0.68710 0.53530 -0.06000
H 	H 	0.56330 0.69000 0.54120 0.05400
C 	C 	0.52180 0.64900 0.54450 -0.03700
H 	H 	0.53630 0.62790 0.54950 0.04100
C 	C 	0.52140 0.76440 0.52090 -0.04800
H 	H 	0.53310 0.77740 0.54030 0.04300
Al	Al	0.25000 0.28620 0.21380 2.39200
Al	Al	0.75000 0.71380 0.21380 2.39200
Al	Al	0.75000 0.28620 0.78620 2.39200
Al	Al	0.25000 0.71380 0.78620 2.39200
Al	Al	0.21380 0.25000 0.28620 2.39200
Al	Al	0.21380 0.75000 0.71380 2.39200
Al	Al	0.78620 0.75000 0.28620 2.39200
Al	Al	0.78620 0.25000 0.71380 2.39200
Al	Al	0.28620 0.21380 0.25000 2.39200
Al	Al	0.71380 0.21380 0.75000 2.39200
Al	Al	0.28620 0.78620 0.75000 2.39200
Al	Al	0.71380 0.78620 0.25000 2.39200
Al	Al	0.75000 0.71380 0.78620 2.39200
Al	Al	0.25000 0.28620 0.78620 2.39200
Al	Al	0.25000 0.71380 0.21380 2.39200
Al	Al	0.75000 0.28620 0.21380 2.39200
Al	Al	0.78620 0.75000 0.71380 2.39200
Al	Al	0.78620 0.25000 0.28620 2.39200
Al	Al	0.21380 0.25000 0.71380 2.39200
Al	Al	0.21380 0.75000 0.28620 2.39200
Al	Al	0.71380 0.78620 0.75000 2.39200
Al	Al	0.28620 0.78620 0.25000 2.39200
Al	Al	0.71380 0.21380 0.25000 2.39200
Al	Al	0.28620 0.21380 0.75000 2.39200
O 	O 	0.25000 0.25000 0.25000 -1.35600
O 	O 	0.75000 0.75000 0.25000 -1.35600
O 	O 	0.75000 0.25000 0.75000 -1.35600
O 	O 	0.25000 0.75000 0.75000 -1.35600
O 	O 	0.75000 0.75000 0.75000 -1.35600
O 	O 	0.25000 0.25000 0.75000 -1.35600
O 	O 	0.25000 0.75000 0.25000 -1.35600
O 	O 	0.75000 0.25000 0.25000 -1.35600
C 	C 	0.00000 0.25720 0.15817 -0.08800
H 	H 	0.00000 0.25800 0.18420 0.05700
C 	C 	-0.00000 0.25460 0.08079 0.04800
C 	C 	-0.00000 0.25040 0.04012 -0.00800
C 	C 	-0.00000 0.74280 0.15817 -0.08800
H 	H 	-0.00000 0.74200 0.18420 0.05700
C 	C 	-0.00000 0.74540 0.08079 0.04800
C 	C 	-0.00000 0.74960 0.04012 -0.00800
C 	C 	0.00000 0.25720 0.84183 -0.08300
H 	H 	0.00000 0.25800 0.81580 0.05500
C 	C 	-0.00000 0.25460 0.91921 0.03600
C 	C 	0.00000 0.25040 0.95988 0.01500
C 	C 	0.00000 0.74280 0.84183 -0.08300
H 	H 	0.00000 0.74200 0.81580 0.05500
C 	C 	0.00000 0.74540 0.91921 0.03600
C 	C 	-0.00000 0.74960 0.95988 0.01500
C 	C 	0.15817 -0.00000 0.25720 -0.08800
H 	H 	0.18420 0.00000 0.25800 0.05700
C 	C 	0.08079 0.00000 0.25460 0.04800
C 	C 	0.04012 0.00000 0.25040 -0.00800
C 	C 	0.15817 0.00000 0.74280 -0.08800
H 	H 	0.18420 0.00000 0.74200 0.05700
C 	C 	0.08079 0.00000 0.74540 0.04800
C 	C 	0.04012 0.00000 0.74960 -0.00800
C 	C 	0.84183 -0.00000 0.25720 -0.08300
H 	H 	0.81580 0.00000 0.25800 0.05500
C 	C 	0.91921 0.00000 0.25460 0.03600
C 	C 	0.95988 0.00000 0.25040 0.01500
C 	C 	0.84183 0.00000 0.74280 -0.08300
H 	H 	0.81580 0.00000 0.74200 0.05500
C 	C 	0.91921 0.00000 0.74540 0.03600
C 	C 	0.95988 0.00000 0.74960 0.01500
C 	C 	0.25720 0.15817 -0.00000 -0.08800
H 	H 	0.25800 0.18420 -0.00000 0.05700
C 	C 	0.25460 0.08079 -0.00000 0.04800
C 	C 	0.25040 0.04012 -0.00000 -0.00800
C 	C 	0.74280 0.15817 -0.00000 -0.08800
H 	H 	0.74200 0.18420 -0.00000 0.05700
C 	C 	0.74540 0.08079 -0.00000 0.04800
C 	C 	0.74960 0.04012 -0.00000 -0.00800
C 	C 	0.25720 0.84183 -0.00000 -0.08300
H 	H 	0.25800 0.81580 -0.00000 0.05500
C 	C 	0.25460 0.91921 -0.00000 0.03600
C 	C 	0.25040 0.95988 -0.00000 0.01500
C 	C 	0.74280 0.84183 -0.00000 -0.08300
H 	H 	0.74200 0.81580 -0.00000 0.05500
C 	C 	0.74540 0.91921 -0.00000 0.03600
C 	C 	0.74960 0.95988 -0.00000 0.01500
C 	C 	0.75720 0.50000 0.34183 -0.08500
H 	H 	0.75800 0.50000 0.31580 0.05600
C 	C 	0.75460 0.50000 0.41921 0.04200
C 	C 	0.75040 0.50000 0.45988 0.00400
C 	C 	0.24280 0.50000 0.34183 -0.08500
H 	H 	0.24200 0.50000 0.31580 0.05600
C 	C 	0.24540 0.50000 0.41921 0.04200
C 	C 	0.24960 0.50000 0.45988 0.00400
C 	C 	0.75720 0.50000 0.65817 -0.08500
H 	H 	0.75800 0.50000 0.68420 0.05600
C 	C 	0.75460 0.50000 0.58079 0.04200
C 	C 	0.75040 0.50000 0.54012 0.00400
C 	C 	0.24280 0.50000 0.65817 -0.08500
H 	H 	0.24200 0.50000 0.68420 0.05600
C 	C 	0.24540 0.50000 0.58079 0.04200
C 	C 	0.24960 0.50000 0.54012 0.00400
C 	C 	0.50000 0.65817 0.24280 -0.08500
H 	H 	0.50000 0.68420 0.24200 0.05600
C 	C 	0.50000 0.58079 0.24540 0.04200
C 	C 	0.50000 0.54012 0.24960 0.00400
C 	C 	0.50000 0.65817 0.75720 -0.08500
H 	H 	0.50000 0.68420 0.75800 0.05600
C 	C 	0.50000 0.58079 0.75460 0.04200
C 	C 	0.50000 0.54012 0.75040 0.00400
C 	C 	0.50000 0.34183 0.24280 -0.08500
H 	H 	0.50000 0.31580 0.24200 0.05600
C 	C 	0.50000 0.41921 0.24540 0.04200
C 	C 	0.50000 0.45988 0.24960 0.00400
C 	C 	0.50000 0.34183 0.75720 -0.08500
H 	H 	0.50000 0.31580 0.75800 0.05600
C 	C 	0.50000 0.41921 0.75460 0.04200
C 	C 	0.50000 0.45988 0.75040 0.00400
C 	C 	0.65817 0.75720 0.50000 -0.08500
H 	H 	0.68420 0.75800 0.50000 0.05600
C 	C 	0.58079 0.75460 0.50000 0.04200
C 	C 	0.54012 0.75040 0.50000 0.00400
C 	C 	0.65817 0.24280 0.50000 -0.08500
H 	H 	0.68420 0.24200 0.50000 0.05600
C 	C 	0.58079 0.24540 0.50000 0.04200
C 	C 	0.54012 0.24960 0.50000 0.00400
C 	C 	0.34183 0.75720 0.50000 -0.08500
H 	H 	0.31580 0.75800 0.50000 0.05600
C 	C 	0.41921 0.75460 0.50000 0.04200
C 	C 	0.45988 0.75040 0.50000 0.00400
C 	C 	0.34183 0.24280 0.50000 -0.08500
H 	H 	0.31580 0.24200 0.50000 0.05600
C 	C 	0.41921 0.24540 0.50000 0.04200
C 	C 	0.45988 0.24960 0.50000 0.00400
