data_crystal

_cell_length_a 8.38370
_cell_length_b 8.38370
_cell_length_c 16.84730
_cell_angle_alpha 90.00000
_cell_angle_beta  90.00000
_cell_angle_gamma 90.00000

_symmetry_space_group_name_	'P 1'
_symmetry_space_group_name_H-M	'P 1'

loop_
_symmetry_equiv_pos_as_xyz
  x,y,z

loop_
_atom_site_label
_atom_site_type_symbol
_atom_site_fract_x
_atom_site_fract_y
_atom_site_fract_z
_atom_site_charge
Co	Co	0.50000 0.50000 0.75000 1.20400
Co	Co	0.50000 0.50000 0.25000 1.20400
H 	H 	0.53850 0.31140 0.91100 0.00600
H 	H 	0.39120 0.17220 0.00280 0.09000
H 	H 	0.99590 0.28720 0.87940 0.09700
H 	H 	0.15480 0.42630 0.79220 0.01900
H 	H 	0.10350 0.13210 0.06170 0.06000
H 	H 	0.46150 0.68860 0.91100 0.00600
H 	H 	0.60880 0.82780 0.00280 0.09000
H 	H 	0.00410 0.71280 0.87940 0.09700
H 	H 	0.84520 0.57370 0.79220 0.01900
H 	H 	0.89650 0.86790 0.06170 0.06000
H 	H 	0.31140 0.46150 0.08900 0.00600
H 	H 	0.17220 0.60880 0.99720 0.09000
H 	H 	0.28720 0.00410 0.12060 0.09700
H 	H 	0.42630 0.84520 0.20780 0.01900
H 	H 	0.13210 0.89650 0.93830 0.06000
H 	H 	0.68860 0.53850 0.08900 0.00600
H 	H 	0.82780 0.39120 0.99720 0.09000
H 	H 	0.71280 0.99590 0.12060 0.09700
H 	H 	0.57370 0.15480 0.20780 0.01900
H 	H 	0.86790 0.10350 0.93830 0.06000
H 	H 	0.53850 0.68860 0.41100 0.00600
H 	H 	0.39120 0.82780 0.50280 0.09000
H 	H 	0.99590 0.71280 0.37940 0.09700
H 	H 	0.15480 0.57370 0.29220 0.01900
H 	H 	0.10350 0.86790 0.56170 0.06000
H 	H 	0.46150 0.31140 0.41100 0.00600
H 	H 	0.60880 0.17220 0.50280 0.09000
H 	H 	0.00410 0.28720 0.37940 0.09700
H 	H 	0.84520 0.42630 0.29220 0.01900
H 	H 	0.89650 0.13210 0.56170 0.06000
H 	H 	0.31140 0.53850 0.58900 0.00600
H 	H 	0.17220 0.39120 0.49720 0.09000
H 	H 	0.28720 0.99590 0.62060 0.09700
H 	H 	0.42630 0.15480 0.70780 0.01900
H 	H 	0.13210 0.10350 0.43830 0.06000
H 	H 	0.68860 0.46150 0.58900 0.00600
H 	H 	0.82780 0.60880 0.49720 0.09000
H 	H 	0.71280 0.00410 0.62060 0.09700
H 	H 	0.57370 0.84520 0.70780 0.01900
H 	H 	0.86790 0.89650 0.43830 0.06000
C 	C 	0.42730 0.30550 0.90430 0.09600
C 	C 	0.33981 0.22100 0.95959 -0.15900
C 	C 	0.17400 0.20823 0.95096 0.10500
C 	C 	0.10698 0.28900 0.88706 -0.15700
C 	C 	0.20330 0.37220 0.83473 0.09000
C 	C 	0.08071 0.10296 0.00590 -0.06600
C 	C 	0.57270 0.69450 0.90430 0.09600
C 	C 	0.66019 0.77900 0.95959 -0.15900
C 	C 	0.82600 0.79177 0.95096 0.10500
C 	C 	0.89302 0.71100 0.88706 -0.15700
C 	C 	0.79670 0.62780 0.83473 0.09000
C 	C 	0.91929 0.89704 0.00590 -0.06600
C 	C 	0.30550 0.57270 0.09570 0.09600
C 	C 	0.22100 0.66019 0.04041 -0.15900
C 	C 	0.20823 0.82600 0.04904 0.10500
C 	C 	0.28900 0.89302 0.11294 -0.15700
C 	C 	0.37220 0.79670 0.16527 0.09000
C 	C 	0.10296 0.91929 0.99410 -0.06600
C 	C 	0.69450 0.42730 0.09570 0.09600
C 	C 	0.77900 0.33981 0.04041 -0.15900
C 	C 	0.79177 0.17400 0.04904 0.10500
C 	C 	0.71100 0.10698 0.11294 -0.15700
C 	C 	0.62780 0.20330 0.16527 0.09000
C 	C 	0.89704 0.08071 0.99410 -0.06600
C 	C 	0.42730 0.69450 0.40430 0.09600
C 	C 	0.33981 0.77900 0.45959 -0.15900
C 	C 	0.17400 0.79177 0.45096 0.10500
C 	C 	0.10698 0.71100 0.38706 -0.15700
C 	C 	0.20330 0.62780 0.33473 0.09000
C 	C 	0.08071 0.89704 0.50590 -0.06600
C 	C 	0.57270 0.30550 0.40430 0.09600
C 	C 	0.66019 0.22100 0.45959 -0.15900
C 	C 	0.82600 0.20823 0.45096 0.10500
C 	C 	0.89302 0.28900 0.38706 -0.15700
C 	C 	0.79670 0.37220 0.33473 0.09000
C 	C 	0.91929 0.10296 0.50590 -0.06600
C 	C 	0.30550 0.42730 0.59570 0.09600
C 	C 	0.22100 0.33981 0.54041 -0.15900
C 	C 	0.20823 0.17400 0.54904 0.10500
C 	C 	0.28900 0.10698 0.61294 -0.15700
C 	C 	0.37220 0.20330 0.66527 0.09000
C 	C 	0.10296 0.08071 0.49410 -0.06600
C 	C 	0.69450 0.57270 0.59570 0.09600
C 	C 	0.77900 0.66019 0.54041 -0.15900
C 	C 	0.79177 0.82600 0.54904 0.10500
C 	C 	0.71100 0.89302 0.61294 -0.15700
C 	C 	0.62780 0.79670 0.66527 0.09000
C 	C 	0.89704 0.91929 0.49410 -0.06600
N 	N 	0.36241 0.37952 0.84177 -0.21600
N 	N 	0.63759 0.62048 0.84177 -0.21600
N 	N 	0.37952 0.63759 0.15823 -0.21600
N 	N 	0.62048 0.36241 0.15823 -0.21600
N 	N 	0.36241 0.62048 0.34177 -0.21600
N 	N 	0.63759 0.37952 0.34177 -0.21600
N 	N 	0.37952 0.36241 0.65823 -0.21600
N 	N 	0.62048 0.63759 0.65823 -0.21600
F 	F 	0.33254 0.66746 0.75000 -0.53200
F 	F 	0.66746 0.33254 0.75000 -0.53200
F 	F 	0.66746 0.66746 0.25000 -0.53200
F 	F 	0.33254 0.33254 0.25000 -0.53200
