data_crystal

_cell_length_a 8.77340
_cell_length_b 15.50700
_cell_length_c 17.26400
_cell_angle_alpha 90.00000
_cell_angle_beta  90.00000
_cell_angle_gamma 93.94000

_symmetry_space_group_name_	'P 1'
_symmetry_space_group_name_H-M	'P 1'

loop_
_symmetry_equiv_pos_as_xyz
  x,y,z

loop_
_atom_site_label
_atom_site_type_symbol
_atom_site_fract_x
_atom_site_fract_y
_atom_site_fract_z
_atom_site_charge
V 	V 	0.94123 0.33416 0.98200 1.70800
V 	V 	0.05877 0.16584 0.48200 1.71200
V 	V 	0.05877 0.66584 0.01800 1.70800
V 	V 	0.94123 0.83416 0.51800 1.71300
Co	Co	0.80822 0.63445 0.76042 1.09900
Co	Co	0.19178 0.86555 0.26042 1.09800
Co	Co	0.19178 0.36555 0.23958 1.09900
Co	Co	0.80822 0.13445 0.73958 1.09900
P 	P 	0.94376 0.51020 0.89318 0.45300
P 	P 	0.05624 0.98980 0.39318 0.45200
P 	P 	0.05624 0.48980 0.10682 0.45400
P 	P 	0.94376 0.01020 0.60682 0.47100
H 	H 	0.76540 0.52100 0.99480 0.07600
H 	H 	0.67950 0.52280 0.91280 0.08000
H 	H 	0.68700 0.40510 0.83300 0.14000
H 	H 	0.55100 0.35120 0.87670 0.13600
H 	H 	0.50290 0.37470 0.99200 0.10900
H 	H 	0.61470 0.42750 0.05110 0.11900
H 	H 	0.46330 0.61310 0.80780 -0.01000
H 	H 	0.25910 0.51010 0.80470 0.08900
H 	H 	0.51360 0.36240 0.66840 0.09800
H 	H 	0.70930 0.47010 0.67590 -0.02900
H 	H 	0.87120 0.32610 0.70960 -0.01500
H 	H 	0.06350 0.43530 0.71850 0.07100
H 	H 	0.36400 0.25150 0.75040 0.08000
H 	H 	0.16090 0.14790 0.74640 -0.01000
H 	H 	0.23460 0.97900 0.49480 0.06600
H 	H 	0.32050 0.97720 0.41280 0.06900
H 	H 	0.31300 0.09490 0.33300 0.14100
H 	H 	0.44900 0.14880 0.37670 0.13500
H 	H 	0.49710 0.12530 0.49200 0.11200
H 	H 	0.38530 0.07250 0.55110 0.12100
H 	H 	0.53670 0.88690 0.30780 -0.00200
H 	H 	0.74090 0.98990 0.30470 0.07100
H 	H 	0.48640 0.13760 0.16840 0.09600
H 	H 	0.29070 0.02990 0.17590 -0.02800
H 	H 	0.12880 0.17390 0.20960 -0.01600
H 	H 	0.93650 0.06470 0.21850 0.07500
H 	H 	0.63600 0.24850 0.25040 0.08100
H 	H 	0.83910 0.35210 0.24640 -0.01200
H 	H 	0.23460 0.47900 0.00520 0.07600
H 	H 	0.32050 0.47720 0.08720 0.08000
H 	H 	0.31300 0.59490 0.16700 0.14000
H 	H 	0.44900 0.64880 0.12330 0.13500
H 	H 	0.49710 0.62530 0.00800 0.10800
H 	H 	0.38530 0.57250 0.94890 0.11900
H 	H 	0.53670 0.38690 0.19220 -0.01000
H 	H 	0.74090 0.48990 0.19530 0.08900
H 	H 	0.48640 0.63760 0.33160 0.09700
H 	H 	0.29070 0.52990 0.32410 -0.02900
H 	H 	0.12880 0.67390 0.29040 -0.01600
H 	H 	0.93650 0.56470 0.28150 0.07100
H 	H 	0.63600 0.74850 0.24960 0.07900
H 	H 	0.83910 0.85210 0.25360 -0.01200
H 	H 	0.76540 0.02100 0.50520 0.08900
H 	H 	0.67950 0.02280 0.58720 0.09100
H 	H 	0.68700 0.90510 0.66700 0.14000
H 	H 	0.55100 0.85120 0.62330 0.13500
H 	H 	0.50290 0.87470 0.50800 0.11200
H 	H 	0.61470 0.92750 0.44890 0.11900
H 	H 	0.46330 0.11310 0.69220 -0.00900
H 	H 	0.25910 0.01010 0.69530 0.08700
H 	H 	0.51360 0.86240 0.83160 0.09500
H 	H 	0.70930 0.97010 0.82410 -0.02800
H 	H 	0.87120 0.82610 0.79040 -0.01500
H 	H 	0.06350 0.93530 0.78150 0.07000
H 	H 	0.36400 0.75150 0.74960 0.08000
H 	H 	0.16090 0.64790 0.75360 -0.01100
C 	C 	0.75860 0.49450 0.94260 -0.28100
C 	C 	0.66340 0.36240 0.87470 -0.35800
C 	C 	0.73480 0.27890 0.85440 0.44900
C 	C 	0.60820 0.37990 0.01280 -0.32200
C 	C 	0.64190 0.29570 0.05310 0.40500
C 	C 	0.47380 0.56100 0.77990 0.06700
C 	C 	0.35100 0.50000 0.77810 -0.14700
C 	C 	0.36390 0.42370 0.73700 0.06300
C 	C 	0.50070 0.41310 0.69800 -0.14800
C 	C 	0.61710 0.47770 0.70310 0.07500
C 	C 	0.97260 0.31110 0.71910 0.04800
C 	C 	0.08670 0.37650 0.72320 -0.11100
C 	C 	0.23630 0.35500 0.73420 0.04600
C 	C 	0.26300 0.26840 0.74270 -0.12300
C 	C 	0.14150 0.20700 0.73980 0.06600
C 	C 	0.24140 0.00550 0.44260 -0.25400
C 	C 	0.33660 0.13760 0.37470 -0.35700
C 	C 	0.26520 0.22110 0.35440 0.44900
C 	C 	0.39180 0.12010 0.51280 -0.32900
C 	C 	0.35810 0.20430 0.55310 0.40700
C 	C 	0.52620 0.93900 0.27990 0.04300
C 	C 	0.64900 -0.00000 0.27810 -0.11300
C 	C 	0.63610 0.07630 0.23700 0.05000
C 	C 	0.49930 0.08690 0.19800 -0.14200
C 	C 	0.38290 0.02230 0.20310 0.07900
C 	C 	0.02740 0.18890 0.21910 0.05000
C 	C 	0.91330 0.12350 0.22320 -0.11500
C 	C 	0.76370 0.14500 0.23420 0.05300
C 	C 	0.73700 0.23160 0.24270 -0.12800
C 	C 	0.85850 0.29300 0.23980 0.06800
C 	C 	0.24140 0.50550 0.05740 -0.28100
C 	C 	0.33660 0.63760 0.12530 -0.35800
C 	C 	0.26520 0.72110 0.14560 0.44900
C 	C 	0.39180 0.62010 0.98720 -0.32100
C 	C 	0.35810 0.70430 0.94690 0.40500
C 	C 	0.52620 0.43900 0.22010 0.06700
C 	C 	0.64900 0.50000 0.22190 -0.14700
C 	C 	0.63610 0.57630 0.26300 0.06300
C 	C 	0.49930 0.58690 0.30200 -0.14800
C 	C 	0.38290 0.52230 0.29690 0.07500
C 	C 	0.02740 0.68890 0.28090 0.04900
C 	C 	0.91330 0.62350 0.27680 -0.11200
C 	C 	0.76370 0.64500 0.26580 0.04600
C 	C 	0.73700 0.73160 0.25730 -0.12400
C 	C 	0.85850 0.79300 0.26020 0.06500
C 	C 	0.75860 0.99450 0.55740 -0.30600
C 	C 	0.66340 0.86240 0.62530 -0.35800
C 	C 	0.73480 0.77890 0.64560 0.44900
C 	C 	0.60820 0.87990 0.48720 -0.33100
C 	C 	0.64190 0.79570 0.44690 0.40700
C 	C 	0.47380 0.06100 0.72010 0.06300
C 	C 	0.35100 0.00000 0.72190 -0.13900
C 	C 	0.36390 0.92370 0.76300 0.05500
C 	C 	0.50070 0.91310 0.80200 -0.14200
C 	C 	0.61710 0.97770 0.79690 0.06800
C 	C 	0.97260 0.81110 0.78090 0.04700
C 	C 	0.08670 0.87650 0.77680 -0.11100
C 	C 	0.23630 0.85500 0.76580 0.04800
C 	C 	0.26300 0.76840 0.75730 -0.12500
C 	C 	0.14150 0.70700 0.76020 0.06700
N 	N 	0.71630 0.40046 0.94939 -0.09000
N 	N 	0.60710 0.55025 0.74423 -0.25100
N 	N 	0.99720 0.22727 0.72802 -0.25600
N 	N 	0.28370 0.09954 0.44939 -0.09000
N 	N 	0.39290 0.94975 0.24423 -0.25100
N 	N 	0.00280 0.27273 0.22802 -0.25700
N 	N 	0.28370 0.59954 0.05061 -0.09000
N 	N 	0.39290 0.44975 0.25577 -0.25100
N 	N 	0.00280 0.77273 0.27198 -0.25600
N 	N 	0.71630 0.90046 0.55061 -0.08500
N 	N 	0.60710 0.05025 0.75577 -0.24700
N 	N 	0.99720 0.72727 0.77198 -0.25700
O 	O 	0.91820 0.53310 0.80932 -0.43400
O 	O 	0.04210 0.58096 0.93448 -0.54000
O 	O 	0.01290 0.42274 0.90311 -0.49200
O 	O 	0.85100 0.26053 0.89396 -0.57300
O 	O 	0.68250 0.23443 0.79931 -0.45100
O 	O 	0.77580 0.26937 0.04514 -0.51300
O 	O 	0.53970 0.25840 0.09281 -0.31600
O 	O 	0.08180 0.96690 0.30932 -0.43700
O 	O 	0.95790 0.91904 0.43448 -0.54800
O 	O 	0.98710 0.07726 0.40311 -0.49500
O 	O 	0.14900 0.23947 0.39396 -0.57000
O 	O 	0.31750 0.26557 0.29931 -0.45100
O 	O 	0.22420 0.23063 0.54514 -0.51800
O 	O 	0.46030 0.24160 0.59281 -0.31700
O 	O 	0.08180 0.46690 0.19068 -0.43400
O 	O 	0.95790 0.41904 0.06552 -0.54100
O 	O 	0.98710 0.57726 0.09689 -0.49300
O 	O 	0.14900 0.73947 0.10604 -0.57400
O 	O 	0.31750 0.76557 0.20069 -0.45200
O 	O 	0.22420 0.73063 0.95486 -0.51400
O 	O 	0.46030 0.74160 0.90719 -0.31600
O 	O 	0.91820 0.03310 0.69068 -0.43500
O 	O 	0.04210 0.08096 0.56552 -0.54800
O 	O 	0.01290 0.92274 0.59689 -0.50200
O 	O 	0.85100 0.76053 0.60604 -0.57000
O 	O 	0.68250 0.73443 0.70069 -0.45100
O 	O 	0.77580 0.76937 0.45486 -0.51800
O 	O 	0.53970 0.75840 0.40719 -0.31700
