data_crystal

_cell_length_a 17.16940
_cell_length_b 32.19030
_cell_length_c 32.92500
_cell_angle_alpha 90.00000
_cell_angle_beta  90.00000
_cell_angle_gamma 90.00000

_symmetry_space_group_name_	'P 1'
_symmetry_space_group_name_H-M	'P 1'

loop_
_symmetry_equiv_pos_as_xyz
  x,y,z

loop_
_atom_site_label
_atom_site_type_symbol
_atom_site_fract_x
_atom_site_fract_y
_atom_site_fract_z
_atom_site_charge
C 	C 	0.64400 0.98710 0.26030 0.37800
C 	C 	0.55310 0.98820 0.26010 -0.06700
C 	C 	0.51430 0.95100 0.26820 -0.06700
H 	H 	0.54150 0.92680 0.27400 0.07200
C 	C 	0.39160 0.98760 0.26140 -0.00400
C 	C 	0.43200 0.02560 0.25680 -0.07200
H 	H 	0.40460 0.05040 0.25450 0.05500
C 	C 	0.51320 0.02560 0.25560 -0.00600
H 	H 	0.54040 0.05030 0.25190 0.03100
C 	C 	0.29990 0.98890 0.26240 0.00300
C 	C 	0.25580 0.96760 0.23430 0.06900
C 	C 	0.17980 0.97260 0.23350 -0.06400
H 	H 	0.15090 0.96120 0.21240 0.07300
C 	C 	0.14120 0.99530 0.26470 -0.07000
C 	C 	0.18760 0.01560 0.29340 0.00600
H 	H 	0.16410 0.03230 0.31290 0.04000
C 	C 	0.26500 0.01140 0.29340 -0.07500
H 	H 	0.29500 0.02340 0.31370 0.05800
C 	C 	0.05440 0.00060 0.26320 0.36700
C 	C 	0.43310 0.95170 0.26740 0.06700
N 	N 	0.39580 0.91330 0.27660 -0.11900
C 	C 	0.34550 0.89640 0.25100 0.02100
C 	C 	0.30160 0.85810 0.26170 0.05300
C 	C 	0.32260 0.83560 0.29600 -0.10000
H 	H 	0.36520 0.84380 0.31150 0.07400
C 	C 	0.28000 0.80070 0.30710 0.01200
H 	H 	0.29400 0.78560 0.33000 0.02500
C 	C 	0.21640 0.78830 0.28390 -0.08400
H 	H 	0.18780 0.76500 0.29140 0.05700
C 	C 	0.19540 0.81090 0.24970 0.01000
H 	H 	0.15280 0.80270 0.23420 0.03500
C 	C 	0.23800 0.84580 0.23850 -0.10000
H 	H 	0.22400 0.86090 0.21560 0.07200
C 	C 	0.33250 0.91550 0.20830 0.03700
C 	C 	0.37090 0.89020 0.17390 0.04900
C 	C 	0.42810 0.86060 0.18130 -0.10200
H 	H 	0.44340 0.85490 0.20780 0.07100
C 	C 	0.46260 0.83970 0.14900 0.01400
H 	H 	0.50090 0.81990 0.15400 0.02500
C 	C 	0.43980 0.84830 0.10940 -0.08900
H 	H 	0.46280 0.83430 0.08780 0.05900
C 	C 	0.38250 0.87790 0.10200 0.01200
H 	H 	0.36720 0.88360 0.07550 0.02400
C 	C 	0.34800 0.89880 0.13430 -0.10000
H 	H 	0.30970 0.91860 0.12930 0.07400
C 	C 	0.90700 0.10670 0.27990 0.36300
C 	C 	0.93510 0.15270 0.28190 -0.06000
C 	C 	0.92410 0.17880 0.24660 -0.01400
H 	H 	0.89700 0.16880 0.22420 0.04200
C 	C 	0.95330 0.21770 0.24650 -0.06800
H 	H 	0.94560 0.23420 0.22370 0.05400
C 	C 	0.99560 0.23420 0.28020 0.00200
C 	C 	0.00430 0.20690 0.31440 0.06700
C 	C 	0.97510 0.16890 0.31420 -0.06900
H 	H 	0.98210 0.15240 0.33710 0.07400
C 	C 	0.02890 0.27570 0.27850 -0.00900
C 	C 	0.08370 0.28620 0.24880 -0.05700
H 	H 	0.10080 0.26540 0.23120 0.05300
C 	C 	0.11310 0.32480 0.24410 -0.01900
H 	H 	0.14870 0.33020 0.22340 0.05200
C 	C 	0.09050 0.35610 0.26980 -0.04300
C 	C 	0.03670 0.34780 0.29860 -0.07700
H 	H 	0.02060 0.36890 0.31610 0.07700
C 	C 	0.00530 0.30870 0.30250 0.07600
C 	C 	0.02720 0.25310 0.36860 0.03500
C 	C 	0.07840 0.27110 0.40110 0.04900
C 	C 	0.06660 0.31040 0.41730 -0.10000
H 	H 	0.02490 0.32650 0.40850 0.07100
C 	C 	0.11700 0.32570 0.44680 0.01200
H 	H 	0.10910 0.35200 0.45760 0.02600
C 	C 	0.17930 0.30160 0.46000 -0.08700
H 	H 	0.21310 0.31190 0.47970 0.05700
C 	C 	0.19110 0.26230 0.44370 0.01100
H 	H 	0.23280 0.24620 0.45250 0.02400
C 	C 	0.14070 0.24700 0.41430 -0.09900
H 	H 	0.14860 0.22070 0.40340 0.07300
C 	C 	0.95500 0.27420 0.36040 0.01800
C 	C 	0.88720 0.26730 0.38950 0.05900
C 	C 	0.82240 0.29310 0.39070 -0.10800
H 	H 	0.81910 0.31570 0.37320 0.07600
C 	C 	0.76260 0.28520 0.41800 0.01900
H 	H 	0.71920 0.30250 0.41880 0.02300
C 	C 	0.76760 0.25140 0.44420 -0.09600
H 	H 	0.72750 0.24610 0.46250 0.06100
C 	C 	0.83240 0.22550 0.44300 0.01900
H 	H 	0.83570 0.20290 0.46050 0.02000
C 	C 	0.89220 0.23350 0.41560 -0.11000
H 	H 	0.93560 0.21620 0.41480 0.07300
C 	C 	0.12350 0.40150 0.26500 0.35400
C 	C 	0.83690 0.97410 0.36500 0.33900
C 	C 	0.81500 0.96760 0.41130 -0.03800
C 	C 	0.85760 0.98650 0.44020 -0.02900
H 	H 	0.90140 0.00210 0.43340 0.05200
C 	C 	0.83490 0.98230 0.47990 -0.05000
H 	H 	0.86550 0.99390 0.50030 0.05000
C 	C 	0.76480 0.96020 0.49100 -0.01600
C 	C 	0.75020 0.94220 0.42090 -0.09000
H 	H 	0.72480 0.92740 0.40060 0.08100
C 	C 	0.74230 0.95990 0.53250 0.01300
C 	C 	0.78250 0.94260 0.56340 -0.08000
H 	H 	0.82880 0.92920 0.55680 0.06100
C 	C 	0.67350 0.97670 0.54400 0.05700
C 	C 	0.76120 0.94290 0.60330 0.00400
H 	H 	0.79180 0.92990 0.62290 0.03700
C 	C 	0.64810 0.98000 0.58410 -0.04900
H 	H 	0.60170 0.99350 0.59020 0.06900
C 	C 	0.69240 0.96330 0.61420 -0.07300
C 	C 	0.67270 0.96730 0.65970 0.38200
C 	C 	0.59500 0.95700 0.48370 0.02400
C 	C 	0.50300 0.01810 0.45530 -0.10700
H 	H 	0.50350 0.03200 0.48000 0.07400
C 	C 	0.54100 0.98020 0.45120 0.05800
C 	C 	0.53900 0.95940 0.41420 -0.10700
H 	H 	0.56460 0.93400 0.41150 0.07300
C 	C 	0.50000 0.97660 0.38130 0.01700
H 	H 	0.49940 0.96270 0.35650 0.02900
C 	C 	0.46200 0.01450 0.38530 -0.09300
H 	H 	0.43620 0.02600 0.36330 0.06200
C 	C 	0.46400 0.03530 0.42230 0.01700
H 	H 	0.43830 0.06070 0.42510 0.02200
C 	C 	0.72600 0.93970 0.45940 0.08500
N 	N 	0.67000 0.90920 0.46940 -0.11900
C 	C 	0.59600 0.92060 0.47500 0.01200
C 	C 	0.54300 0.88810 0.49120 0.06400
C 	C 	0.55100 0.84600 0.48170 -0.10600
H 	H 	0.58860 0.83710 0.46330 0.07500
C 	C 	0.50200 0.81780 0.50040 0.01800
H 	H 	0.50620 0.78980 0.49400 0.02400
C 	C 	0.44500 0.83030 0.52900 -0.09000
H 	H 	0.41430 0.81060 0.54170 0.06200
C 	C 	0.43600 0.87230 0.53800 0.01600
H 	H 	0.39730 0.88180 0.55490 0.02600
C 	C 	0.48900 0.89990 0.51890 -0.10700
H 	H 	0.48730 0.92780 0.52610 0.07500
N 	N 	0.29100 0.94650 0.20020 -0.12300
N 	N 	0.04830 0.22140 0.34920 -0.12300
N 	N 	0.94570 0.30250 0.33070 -0.12200
N 	N 	0.61600 0.98690 0.51340 -0.11500
O 	O 	0.84720 0.00600 0.26230 -0.95100
O 	O 	0.67230 0.02130 0.24810 -0.51400
O 	O 	0.02060 0.99380 0.22880 -0.48600
O 	O 	0.67830 0.95630 0.27290 -0.51300
O 	O 	0.02080 0.00880 0.29560 -0.48400
O 	O 	0.86610 0.09650 0.25160 -0.51800
O 	O 	0.92880 0.08520 0.31030 -0.49600
O 	O 	0.17200 0.40620 0.23580 -0.48700
O 	O 	0.09480 0.42820 0.28770 -0.50200
O 	O 	0.88860 0.00110 0.35700 -0.50100
O 	O 	0.79430 0.95440 0.33980 -0.48900
O 	O 	0.61120 0.99060 0.66590 -0.48200
O 	O 	0.71330 0.95110 0.68480 -0.50200
Zn	Zn	0.77674 0.05277 0.24652 1.18400
Zn	Zn	0.78630 0.95868 0.28132 1.21600
Zn	Zn	0.91159 0.02636 0.30591 1.21000
Zn	Zn	0.91144 0.98753 0.21826 1.22100
C 	C 	0.85600 0.01290 0.76030 0.38000
C 	C 	0.94690 0.01180 0.76010 -0.06500
C 	C 	0.98570 0.04900 0.76820 -0.06500
H 	H 	0.95850 0.07320 0.77400 0.07300
C 	C 	0.10840 0.01240 0.76140 -0.00300
C 	C 	0.06800 0.97440 0.75680 -0.07000
H 	H 	0.09540 0.94960 0.75450 0.05500
C 	C 	0.98680 0.97440 0.75560 -0.00600
H 	H 	0.95960 0.94970 0.75190 0.03300
C 	C 	0.20010 0.01110 0.76240 0.00300
C 	C 	0.24420 0.03240 0.73430 0.06800
C 	C 	0.32020 0.02740 0.73350 -0.06400
H 	H 	0.34910 0.03880 0.71240 0.07300
C 	C 	0.35880 0.00470 0.76470 -0.07200
C 	C 	0.31240 0.98440 0.79340 0.00700
H 	H 	0.33590 0.96770 0.81290 0.04000
C 	C 	0.23500 0.98860 0.79340 -0.07500
H 	H 	0.20500 0.97660 0.81370 0.05800
C 	C 	0.44560 0.99940 0.76320 0.36800
C 	C 	0.06690 0.04830 0.76740 0.06700
N 	N 	0.10420 0.08670 0.77660 -0.11900
C 	C 	0.15450 0.10360 0.75100 0.02100
C 	C 	0.19840 0.14190 0.76170 0.05300
C 	C 	0.17740 0.16440 0.79600 -0.10000
H 	H 	0.13480 0.15620 0.81150 0.07400
C 	C 	0.22000 0.19930 0.80710 0.01200
H 	H 	0.20600 0.21440 0.83000 0.02500
C 	C 	0.28360 0.21170 0.78390 -0.08400
H 	H 	0.31220 0.23500 0.79140 0.05700
C 	C 	0.30460 0.18910 0.74970 0.01000
H 	H 	0.34720 0.19730 0.73420 0.03500
C 	C 	0.26200 0.15420 0.73850 -0.10000
H 	H 	0.27600 0.13910 0.71560 0.07200
C 	C 	0.16750 0.08450 0.70830 0.03700
C 	C 	0.12910 0.10980 0.67390 0.04800
C 	C 	0.07190 0.13940 0.68130 -0.10100
H 	H 	0.05660 0.14510 0.70780 0.07100
C 	C 	0.03740 0.16030 0.64900 0.01300
H 	H 	0.99910 0.18010 0.65400 0.02600
C 	C 	0.06020 0.15170 0.60940 -0.08700
H 	H 	0.03720 0.16570 0.58780 0.05900
C 	C 	0.11750 0.12210 0.60200 0.01100
H 	H 	0.13280 0.11640 0.57550 0.02400
C 	C 	0.15200 0.10120 0.63430 -0.09900
H 	H 	0.19030 0.08140 0.62930 0.07300
C 	C 	0.59300 0.89330 0.77990 0.36300
C 	C 	0.56490 0.84730 0.78190 -0.05900
C 	C 	0.57590 0.82120 0.74660 -0.01400
H 	H 	0.60300 0.83120 0.72420 0.04200
C 	C 	0.54670 0.78230 0.74650 -0.06700
H 	H 	0.55440 0.76580 0.72370 0.05300
C 	C 	0.50440 0.76580 0.78020 0.00100
C 	C 	0.49570 0.79310 0.81440 0.06800
C 	C 	0.52490 0.83110 0.81420 -0.07100
H 	H 	0.51790 0.84760 0.83710 0.07400
C 	C 	0.47110 0.72430 0.77850 -0.00800
C 	C 	0.41630 0.71380 0.74880 -0.05700
H 	H 	0.39920 0.73460 0.73120 0.05400
C 	C 	0.38690 0.67520 0.74410 -0.01900
H 	H 	0.35130 0.66980 0.72340 0.05100
C 	C 	0.40950 0.64390 0.76980 -0.04300
C 	C 	0.46330 0.65220 0.79860 -0.07700
H 	H 	0.47940 0.63110 0.81610 0.07700
C 	C 	0.49470 0.69130 0.80250 0.07600
C 	C 	0.47280 0.74690 0.86860 0.03600
C 	C 	0.42160 0.72890 0.90110 0.04900
C 	C 	0.43340 0.68960 0.91730 -0.10000
H 	H 	0.47510 0.67350 0.90850 0.07100
C 	C 	0.38300 0.67430 0.94680 0.01200
H 	H 	0.39090 0.64800 0.95760 0.02600
C 	C 	0.32070 0.69840 0.96000 -0.08700
H 	H 	0.28690 0.68810 0.97970 0.05700
C 	C 	0.30890 0.73770 0.94370 0.01100
H 	H 	0.26720 0.75380 0.95250 0.02400
C 	C 	0.35930 0.75300 0.91430 -0.09900
H 	H 	0.35140 0.77930 0.90340 0.07300
C 	C 	0.54500 0.72580 0.86040 0.01700
C 	C 	0.61280 0.73270 0.88950 0.05900
C 	C 	0.67760 0.70690 0.89070 -0.10800
H 	H 	0.68090 0.68430 0.87320 0.07600
C 	C 	0.73740 0.71480 0.91800 0.01900
H 	H 	0.78080 0.69750 0.91880 0.02300
C 	C 	0.73240 0.74860 0.94420 -0.09600
H 	H 	0.77250 0.75390 0.96250 0.06100
C 	C 	0.66760 0.77450 0.94300 0.01900
H 	H 	0.66430 0.79710 0.96050 0.02000
C 	C 	0.60780 0.76650 0.91560 -0.11100
H 	H 	0.56440 0.78380 0.91480 0.07300
C 	C 	0.37650 0.59850 0.76500 0.35400
C 	C 	0.66310 0.02590 0.86500 0.34000
C 	C 	0.68500 0.03240 0.91130 -0.03800
C 	C 	0.64240 0.01350 0.94020 -0.02800
H 	H 	0.59860 0.99790 0.93340 0.05200
C 	C 	0.66510 0.01770 0.97990 -0.05100
H 	H 	0.63450 0.00610 0.00030 0.05100
C 	C 	0.73520 0.03980 0.99100 -0.01600
C 	C 	0.74980 0.05780 0.92090 -0.09000
H 	H 	0.77520 0.07260 0.90060 0.08100
C 	C 	0.75770 0.04010 0.03250 0.01300
C 	C 	0.71750 0.05740 0.06340 -0.08000
H 	H 	0.67120 0.07080 0.05680 0.06100
C 	C 	0.82650 0.02330 0.04400 0.05700
C 	C 	0.73880 0.05710 0.10330 0.00500
H 	H 	0.70820 0.07010 0.12290 0.03700
C 	C 	0.85190 0.02000 0.08410 -0.04900
H 	H 	0.89830 0.00650 0.09020 0.06900
C 	C 	0.80760 0.03670 0.11420 -0.07300
C 	C 	0.82730 0.03270 0.15970 0.38200
C 	C 	0.90500 0.04300 0.98370 0.02500
C 	C 	0.99700 0.98190 0.95530 -0.10600
H 	H 	0.99650 0.96800 0.98000 0.07400
C 	C 	0.95900 0.01980 0.95120 0.05700
C 	C 	0.96100 0.04060 0.91420 -0.10400
H 	H 	0.93540 0.06600 0.91150 0.07300
C 	C 	-0.00000 0.02340 0.88130 0.01400
H 	H 	0.00060 0.03730 0.85650 0.03000
C 	C 	0.03800 0.98550 0.88530 -0.09100
H 	H 	0.06380 0.97400 0.86330 0.06100
C 	C 	0.03600 0.96470 0.92230 0.01600
H 	H 	0.06170 0.93930 0.92510 0.02200
C 	C 	0.77400 0.06030 0.95940 0.08500
N 	N 	0.83000 0.09080 0.96940 -0.11900
C 	C 	0.90400 0.07940 0.97500 0.01100
C 	C 	0.95700 0.11190 0.99120 0.06600
C 	C 	0.94900 0.15400 0.98170 -0.10800
H 	H 	0.91140 0.16290 0.96330 0.07500
C 	C 	0.99800 0.18220 0.00040 0.02000
H 	H 	0.99380 0.21020 0.99400 0.02300
C 	C 	0.05500 0.16970 0.02900 -0.09200
H 	H 	0.08570 0.18940 0.04170 0.06300
C 	C 	0.06400 0.12770 0.03800 0.01700
H 	H 	0.10270 0.11820 0.05490 0.02500
C 	C 	0.01100 0.10010 0.01890 -0.10900
H 	H 	0.01270 0.07220 0.02610 0.07600
N 	N 	0.20900 0.05350 0.70020 -0.12300
N 	N 	0.45170 0.77860 0.84920 -0.12400
N 	N 	0.55430 0.69750 0.83070 -0.12200
N 	N 	0.88400 0.01310 0.01340 -0.11500
O 	O 	0.65280 0.99400 0.76230 -0.95100
O 	O 	0.82770 0.97870 0.74810 -0.51400
O 	O 	0.47940 0.00620 0.72880 -0.48700
O 	O 	0.82170 0.04370 0.77290 -0.51300
O 	O 	0.47920 0.99120 0.79560 -0.48400
O 	O 	0.63390 0.90350 0.75160 -0.51800
O 	O 	0.57120 0.91480 0.81030 -0.49600
O 	O 	0.32800 0.59380 0.73580 -0.48700
O 	O 	0.40520 0.57180 0.78770 -0.50200
O 	O 	0.61140 0.99890 0.85700 -0.50200
O 	O 	0.70570 0.04560 0.83980 -0.48900
O 	O 	0.88880 0.00940 0.16590 -0.48200
O 	O 	0.78670 0.04890 0.18480 -0.50200
Zn	Zn	0.72326 0.94723 0.74652 1.18400
Zn	Zn	0.71370 0.04132 0.78132 1.21600
Zn	Zn	0.58841 0.97364 0.80591 1.21000
Zn	Zn	0.58856 0.01247 0.71826 1.22100
C 	C 	0.35600 0.48710 0.23970 0.38000
C 	C 	0.44690 0.48820 0.23990 -0.06600
C 	C 	0.48570 0.45100 0.23180 -0.06600
H 	H 	0.45850 0.42680 0.22600 0.07300
C 	C 	0.60840 0.48760 0.23860 -0.00300
C 	C 	0.56800 0.52560 0.24320 -0.07100
H 	H 	0.59540 0.55040 0.24550 0.05600
C 	C 	0.48680 0.52560 0.24440 -0.00600
H 	H 	0.45960 0.55030 0.24810 0.03200
C 	C 	0.70010 0.48890 0.23760 0.00300
C 	C 	0.74420 0.46760 0.26570 0.06800
C 	C 	0.82020 0.47260 0.26650 -0.06400
H 	H 	0.84910 0.46120 0.28760 0.07300
C 	C 	0.85880 0.49530 0.23530 -0.07100
C 	C 	0.81240 0.51560 0.20660 0.00600
H 	H 	0.83590 0.53230 0.18710 0.04000
C 	C 	0.73500 0.51140 0.20660 -0.07500
H 	H 	0.70500 0.52340 0.18630 0.05800
C 	C 	0.94560 0.50060 0.23680 0.36800
C 	C 	0.56690 0.45170 0.23260 0.06700
N 	N 	0.60420 0.41330 0.22340 -0.11900
C 	C 	0.65450 0.39640 0.24900 0.02100
C 	C 	0.69840 0.35810 0.23830 0.05300
C 	C 	0.67740 0.33560 0.20400 -0.10000
H 	H 	0.63480 0.34380 0.18850 0.07400
C 	C 	0.72000 0.30070 0.19290 0.01200
H 	H 	0.70600 0.28560 0.17000 0.02500
C 	C 	0.78360 0.28830 0.21610 -0.08400
H 	H 	0.81220 0.26500 0.20860 0.05700
C 	C 	0.80460 0.31090 0.25030 0.01000
H 	H 	0.84720 0.30270 0.26580 0.03500
C 	C 	0.76200 0.34580 0.26150 -0.10000
H 	H 	0.77600 0.36090 0.28440 0.07200
C 	C 	0.66750 0.41550 0.29170 0.03700
C 	C 	0.62910 0.39020 0.32610 0.04900
C 	C 	0.57190 0.36060 0.31870 -0.10200
H 	H 	0.55660 0.35490 0.29220 0.07100
C 	C 	0.53740 0.33970 0.35100 0.01400
H 	H 	0.49910 0.31990 0.34600 0.02500
C 	C 	0.56020 0.34830 0.39060 -0.08900
H 	H 	0.53720 0.33430 0.41220 0.05900
C 	C 	0.61750 0.37790 0.39800 0.01200
H 	H 	0.63280 0.38360 0.42450 0.02400
C 	C 	0.65200 0.39880 0.36570 -0.10000
H 	H 	0.69030 0.41860 0.37070 0.07400
C 	C 	0.09300 0.60670 0.22010 0.36300
C 	C 	0.06490 0.65270 0.21810 -0.05900
C 	C 	0.07590 0.67880 0.25340 -0.01500
H 	H 	0.10300 0.66880 0.27580 0.04200
C 	C 	0.04670 0.71770 0.25350 -0.06700
H 	H 	0.05440 0.73420 0.27630 0.05300
C 	C 	0.00440 0.73420 0.21980 0.00000
C 	C 	0.99570 0.70690 0.18560 0.06900
C 	C 	0.02490 0.66890 0.18580 -0.07100
H 	H 	0.01790 0.65240 0.16290 0.07400
C 	C 	0.97110 0.77570 0.22150 -0.00800
C 	C 	0.91630 0.78620 0.25120 -0.05800
H 	H 	0.89920 0.76540 0.26880 0.05400
C 	C 	0.88690 0.82480 0.25590 -0.01900
H 	H 	0.85130 0.83020 0.27660 0.05100
C 	C 	0.90950 0.85610 0.23020 -0.04300
C 	C 	0.96330 0.84780 0.20140 -0.07700
H 	H 	0.97940 0.86890 0.18390 0.07700
C 	C 	0.99470 0.80870 0.19750 0.07600
C 	C 	0.97280 0.75310 0.13140 0.03600
C 	C 	0.92160 0.77110 0.09890 0.04900
C 	C 	0.93340 0.81040 0.08270 -0.10000
H 	H 	0.97510 0.82650 0.09150 0.07100
C 	C 	0.88300 0.82570 0.05320 0.01200
H 	H 	0.89090 0.85200 0.04240 0.02600
C 	C 	0.82070 0.80160 0.04000 -0.08700
H 	H 	0.78690 0.81190 0.02030 0.05700
C 	C 	0.80890 0.76230 0.05630 0.01100
H 	H 	0.76720 0.74620 0.04750 0.02400
C 	C 	0.85930 0.74700 0.08570 -0.09900
H 	H 	0.85140 0.72070 0.09660 0.07300
C 	C 	0.04500 0.77420 0.13960 0.01700
C 	C 	0.11280 0.76730 0.11050 0.05900
C 	C 	0.17760 0.79310 0.10930 -0.10800
H 	H 	0.18090 0.81570 0.12680 0.07600
C 	C 	0.23740 0.78520 0.08200 0.01900
H 	H 	0.28080 0.80250 0.08120 0.02300
C 	C 	0.23240 0.75140 0.05580 -0.09600
H 	H 	0.27250 0.74610 0.03750 0.06100
C 	C 	0.16760 0.72550 0.05700 0.01900
H 	H 	0.16430 0.70290 0.03950 0.01900
C 	C 	0.10780 0.73350 0.08440 -0.11100
H 	H 	0.06440 0.71620 0.08520 0.07300
C 	C 	0.87650 0.90150 0.23500 0.35400
C 	C 	0.16310 0.47410 0.13500 0.34000
C 	C 	0.18500 0.46760 0.08870 -0.03800
C 	C 	0.14240 0.48650 0.05980 -0.02800
H 	H 	0.09860 0.50210 0.06660 0.05100
C 	C 	0.16510 0.48230 0.02010 -0.05100
H 	H 	0.13450 0.49390 0.99970 0.05100
C 	C 	0.23520 0.46020 0.00900 -0.01500
C 	C 	0.24980 0.44220 0.07910 -0.09000
H 	H 	0.27520 0.42740 0.09940 0.08100
C 	C 	0.25770 0.45990 0.96750 0.01300
C 	C 	0.21750 0.44260 0.93660 -0.08000
H 	H 	0.17120 0.42920 0.94320 0.06100
C 	C 	0.32650 0.47670 0.95600 0.05700
C 	C 	0.23880 0.44290 0.89670 0.00400
H 	H 	0.20820 0.42990 0.87710 0.03700
C 	C 	0.35190 0.48000 0.91590 -0.04900
H 	H 	0.39830 0.49350 0.90980 0.06900
C 	C 	0.30760 0.46330 0.88580 -0.07300
C 	C 	0.32730 0.46730 0.84030 0.38200
C 	C 	0.40500 0.45700 0.01630 0.02400
C 	C 	0.49700 0.51810 0.04470 -0.10700
H 	H 	0.49650 0.53200 0.02000 0.07400
C 	C 	0.45900 0.48020 0.04880 0.05800
C 	C 	0.46100 0.45940 0.08580 -0.10700
H 	H 	0.43540 0.43400 0.08850 0.07300
C 	C 	0.50000 0.47660 0.11870 0.01700
H 	H 	0.50060 0.46270 0.14350 0.02900
C 	C 	0.53800 0.51450 0.11470 -0.09300
H 	H 	0.56380 0.52600 0.13670 0.06200
C 	C 	0.53600 0.53530 0.07770 0.01700
H 	H 	0.56170 0.56070 0.07490 0.02200
C 	C 	0.27400 0.43970 0.04060 0.08500
N 	N 	0.33000 0.40920 0.03060 -0.11900
C 	C 	0.40400 0.42060 0.02500 0.01200
C 	C 	0.45700 0.38810 0.00880 0.06400
C 	C 	0.44900 0.34600 0.01830 -0.10600
H 	H 	0.41140 0.33710 0.03670 0.07400
C 	C 	0.49800 0.31780 0.99960 0.01700
H 	H 	0.49380 0.28980 0.00600 0.02400
C 	C 	0.55500 0.33030 0.97100 -0.08900
H 	H 	0.58570 0.31060 0.95830 0.06200
C 	C 	0.56400 0.37230 0.96200 0.01500
H 	H 	0.60270 0.38180 0.94510 0.02600
C 	C 	0.51100 0.39990 0.98110 -0.10700
H 	H 	0.51270 0.42780 0.97390 0.07500
N 	N 	0.70900 0.44650 0.29980 -0.12300
N 	N 	0.95170 0.72140 0.15080 -0.12400
N 	N 	0.05430 0.80250 0.16930 -0.12200
N 	N 	0.38400 0.48690 0.98660 -0.11500
O 	O 	0.15280 0.50600 0.23770 -0.95200
O 	O 	0.32770 0.52130 0.25190 -0.51400
O 	O 	0.97940 0.49380 0.27120 -0.48600
O 	O 	0.32170 0.45630 0.22710 -0.51300
O 	O 	0.97920 0.50880 0.20440 -0.48400
O 	O 	0.13390 0.59650 0.24840 -0.51800
O 	O 	0.07120 0.58520 0.18970 -0.49600
O 	O 	0.82800 0.90620 0.26420 -0.48700
O 	O 	0.90520 0.92820 0.21230 -0.50200
O 	O 	0.11140 0.50110 0.14300 -0.50200
O 	O 	0.20570 0.45440 0.16020 -0.48900
O 	O 	0.38880 0.49060 0.83410 -0.48200
O 	O 	0.28670 0.45110 0.81520 -0.50200
Zn	Zn	0.22326 0.55277 0.25348 1.18400
Zn	Zn	0.21370 0.45868 0.21868 1.21600
Zn	Zn	0.08841 0.52636 0.19409 1.21000
Zn	Zn	0.08856 0.48753 0.28174 1.22100
C 	C 	0.14400 0.51290 0.73970 0.37900
C 	C 	0.05310 0.51180 0.73990 -0.06500
C 	C 	0.01430 0.54900 0.73180 -0.06700
H 	H 	0.04150 0.57320 0.72600 0.07300
C 	C 	0.89160 0.51240 0.73860 -0.00300
C 	C 	0.93200 0.47440 0.74320 -0.07000
H 	H 	0.90460 0.44960 0.74550 0.05500
C 	C 	0.01320 0.47440 0.74440 -0.00700
H 	H 	0.04040 0.44970 0.74810 0.03300
C 	C 	0.79990 0.51110 0.73760 0.00300
C 	C 	0.75580 0.53240 0.76570 0.06800
C 	C 	0.67980 0.52740 0.76650 -0.06400
H 	H 	0.65090 0.53880 0.78760 0.07300
C 	C 	0.64120 0.50470 0.73530 -0.07100
C 	C 	0.68760 0.48440 0.70660 0.00700
H 	H 	0.66410 0.46770 0.68710 0.04000
C 	C 	0.76500 0.48860 0.70660 -0.07500
H 	H 	0.79500 0.47660 0.68630 0.05800
C 	C 	0.55440 0.49940 0.73680 0.36800
C 	C 	0.93310 0.54830 0.73260 0.06800
N 	N 	0.89580 0.58670 0.72340 -0.11900
C 	C 	0.84550 0.60360 0.74900 0.02100
C 	C 	0.80160 0.64190 0.73830 0.05300
C 	C 	0.82260 0.66440 0.70400 -0.10000
H 	H 	0.86520 0.65620 0.68850 0.07400
C 	C 	0.78000 0.69930 0.69290 0.01200
H 	H 	0.79400 0.71440 0.67000 0.02500
C 	C 	0.71640 0.71170 0.71610 -0.08400
H 	H 	0.68780 0.73500 0.70860 0.05700
C 	C 	0.69540 0.68910 0.75030 0.01000
H 	H 	0.65280 0.69730 0.76580 0.03500
C 	C 	0.73800 0.65420 0.76150 -0.10000
H 	H 	0.72400 0.63910 0.78440 0.07200
C 	C 	0.83250 0.58450 0.79170 0.03700
C 	C 	0.87090 0.60980 0.82610 0.04900
C 	C 	0.92810 0.63940 0.81870 -0.10200
H 	H 	0.94340 0.64510 0.79220 0.07100
C 	C 	0.96260 0.66030 0.85100 0.01500
H 	H 	0.00090 0.68010 0.84600 0.02400
C 	C 	0.93980 0.65170 0.89060 -0.08900
H 	H 	0.96280 0.66570 0.91220 0.05900
C 	C 	0.88250 0.62210 0.89800 0.01300
H 	H 	0.86720 0.61640 0.92450 0.02400
C 	C 	0.84800 0.60120 0.86570 -0.10000
H 	H 	0.80970 0.58140 0.87070 0.07400
C 	C 	0.40700 0.39330 0.72010 0.36300
C 	C 	0.43510 0.34730 0.71810 -0.05900
C 	C 	0.42410 0.32120 0.75340 -0.01400
H 	H 	0.39700 0.33120 0.77580 0.04200
C 	C 	0.45330 0.28230 0.75350 -0.06700
H 	H 	0.44560 0.26580 0.77630 0.05300
C 	C 	0.49560 0.26580 0.71980 0.00100
C 	C 	0.50430 0.29310 0.68560 0.06800
C 	C 	0.47510 0.33110 0.68580 -0.07100
H 	H 	0.48210 0.34760 0.66290 0.07400
C 	C 	0.52890 0.22430 0.72150 -0.00800
C 	C 	0.58370 0.21380 0.75120 -0.05700
H 	H 	0.60080 0.23460 0.76880 0.05400
C 	C 	0.61310 0.17520 0.75590 -0.01900
H 	H 	0.64870 0.16980 0.77660 0.05200
C 	C 	0.59050 0.14390 0.73020 -0.04300
C 	C 	0.53670 0.15220 0.70140 -0.07700
H 	H 	0.52060 0.13110 0.68390 0.07700
C 	C 	0.50530 0.19130 0.69750 0.07600
C 	C 	0.52720 0.24690 0.63140 0.03600
C 	C 	0.57840 0.22890 0.59890 0.04900
C 	C 	0.56660 0.18960 0.58270 -0.10000
H 	H 	0.52490 0.17350 0.59150 0.07100
C 	C 	0.61700 0.17430 0.55320 0.01200
H 	H 	0.60910 0.14800 0.54240 0.02600
C 	C 	0.67930 0.19840 0.54000 -0.08700
H 	H 	0.71310 0.18810 0.52030 0.05700
C 	C 	0.69110 0.23770 0.55630 0.01100
H 	H 	0.73280 0.25380 0.54750 0.02400
C 	C 	0.64070 0.25300 0.58570 -0.09900
H 	H 	0.64860 0.27930 0.59660 0.07300
C 	C 	0.45500 0.22580 0.63960 0.01700
C 	C 	0.38720 0.23270 0.61050 0.05900
C 	C 	0.32240 0.20690 0.60930 -0.10800
H 	H 	0.31910 0.18430 0.62680 0.07600
C 	C 	0.26260 0.21480 0.58200 0.01900
H 	H 	0.21920 0.19750 0.58120 0.02300
C 	C 	0.26760 0.24860 0.55580 -0.09600
H 	H 	0.22750 0.25390 0.53750 0.06100
C 	C 	0.33240 0.27450 0.55700 0.01900
H 	H 	0.33570 0.29710 0.53950 0.02000
C 	C 	0.39220 0.26650 0.58440 -0.11100
H 	H 	0.43560 0.28380 0.58520 0.07300
C 	C 	0.62350 0.09850 0.73500 0.35400
C 	C 	0.33690 0.52590 0.63500 0.34000
C 	C 	0.31500 0.53240 0.58870 -0.03800
C 	C 	0.35760 0.51350 0.55980 -0.02800
H 	H 	0.40140 0.49790 0.56660 0.05200
C 	C 	0.33490 0.51770 0.52010 -0.05100
H 	H 	0.36550 0.50610 0.49970 0.05100
C 	C 	0.26480 0.53980 0.50900 -0.01500
C 	C 	0.25020 0.55780 0.57910 -0.09000
H 	H 	0.22480 0.57260 0.59940 0.08100
C 	C 	0.24230 0.54010 0.46750 0.01300
C 	C 	0.28250 0.55740 0.43660 -0.08000
H 	H 	0.32880 0.57080 0.44320 0.06100
C 	C 	0.17350 0.52330 0.45600 0.05700
C 	C 	0.26120 0.55710 0.39670 0.00400
H 	H 	0.29180 0.57010 0.37710 0.03700
C 	C 	0.14810 0.52000 0.41590 -0.04900
H 	H 	0.10170 0.50650 0.40980 0.06900
C 	C 	0.19240 0.53670 0.38580 -0.07300
C 	C 	0.17270 0.53270 0.34030 0.38200
C 	C 	0.09500 0.54300 0.51630 0.02400
C 	C 	0.00300 0.48190 0.54470 -0.10700
H 	H 	0.00350 0.46800 0.52000 0.07400
C 	C 	0.04100 0.51980 0.54880 0.05700
C 	C 	0.03900 0.54060 0.58580 -0.10600
H 	H 	0.06460 0.56600 0.58850 0.07300
C 	C 	-0.00000 0.52340 0.61870 0.01500
H 	H 	0.99940 0.53730 0.64350 0.03000
C 	C 	0.96200 0.48550 0.61470 -0.09200
H 	H 	0.93620 0.47400 0.63670 0.06100
C 	C 	0.96400 0.46470 0.57770 0.01700
H 	H 	0.93830 0.43930 0.57490 0.02200
C 	C 	0.22600 0.56030 0.54060 0.08500
N 	N 	0.17000 0.59080 0.53060 -0.11900
C 	C 	0.09600 0.57940 0.52500 0.01200
C 	C 	0.04300 0.61190 0.50880 0.06300
C 	C 	0.05100 0.65400 0.51830 -0.10500
H 	H 	0.08860 0.66290 0.53670 0.07400
C 	C 	0.00200 0.68220 0.49960 0.01700
H 	H 	0.00620 0.71020 0.50600 0.02400
C 	C 	0.94500 0.66970 0.47100 -0.08900
H 	H 	0.91430 0.68940 0.45830 0.06200
C 	C 	0.93600 0.62770 0.46200 0.01500
H 	H 	0.89730 0.61820 0.44510 0.02600
C 	C 	0.98900 0.60010 0.48110 -0.10600
H 	H 	0.98730 0.57220 0.47390 0.07500
N 	N 	0.79100 0.55350 0.79980 -0.12300
N 	N 	0.54830 0.27860 0.65080 -0.12400
N 	N 	0.44570 0.19750 0.66930 -0.12200
N 	N 	0.11600 0.51310 0.48660 -0.11500
O 	O 	0.34720 0.49400 0.73770 -0.95200
O 	O 	0.17230 0.47870 0.75190 -0.51400
O 	O 	0.52060 0.50620 0.77120 -0.48600
O 	O 	0.17830 0.54370 0.72710 -0.51300
O 	O 	0.52080 0.49120 0.70440 -0.48400
O 	O 	0.36610 0.40350 0.74840 -0.51800
O 	O 	0.42880 0.41480 0.68970 -0.49600
O 	O 	0.67200 0.09380 0.76420 -0.48700
O 	O 	0.59480 0.07180 0.71230 -0.50200
O 	O 	0.38860 0.49890 0.64300 -0.50200
O 	O 	0.29430 0.54560 0.66020 -0.48900
O 	O 	0.11120 0.50940 0.33410 -0.48200
O 	O 	0.21330 0.54890 0.31520 -0.50200
Zn	Zn	0.27674 0.44723 0.75348 1.18400
Zn	Zn	0.28630 0.54132 0.71868 1.21600
Zn	Zn	0.41159 0.47364 0.69409 1.21000
Zn	Zn	0.41144 0.51247 0.78174 1.22100
