data_crystal

_cell_length_a 16.18950
_cell_length_b 16.18950
_cell_length_c 10.00360
_cell_angle_alpha 90.00000
_cell_angle_beta  90.00000
_cell_angle_gamma 120.00000

_symmetry_space_group_name_	'P 1'
_symmetry_space_group_name_H-M	'P 1'

loop_
_symmetry_equiv_pos_as_xyz
  x,y,z

loop_
_atom_site_label
_atom_site_type_symbol
_atom_site_fract_x
_atom_site_fract_y
_atom_site_fract_z
_atom_site_charge
P 	P 	0.60420 0.45110 0.06320 0.51100
P 	P 	0.20360 0.47150 0.45050 0.49400
O 	O 	0.65840 0.44140 0.17400 -0.55400
O 	O 	0.63590 0.42740 0.93730 -0.52800
O 	O 	0.62190 0.55180 0.05910 -0.21200
O 	O 	0.21580 0.54050 0.56000 -0.52900
O 	O 	0.25070 0.52450 0.32900 -0.53700
O 	O 	0.10130 0.40180 0.42780 -0.22200
N 	N 	0.41590 0.38390 0.17710 -0.09300
N 	N 	0.32210 0.38350 0.41740 -0.09200
C 	C 	0.47500 0.36000 0.08900 -0.03300
C 	C 	0.33060 0.29460 0.22580 0.04000
C 	C 	0.26930 0.31690 0.30740 0.04700
C 	C 	0.25930 0.39990 0.51010 -0.01800
C 	C 	0.41180 0.46810 0.37960 0.03400
C 	C 	0.46900 0.45530 0.27870 0.05000
C 	C 	0.18910 0.23010 0.36650 0.02000
C 	C 	0.27810 0.24090 0.10360 0.02700
P 	P 	0.54890 0.15310 0.06320 0.51100
P 	P 	0.52850 0.73210 0.45050 0.49500
O 	O 	0.55860 0.21700 0.17400 -0.55300
O 	O 	0.57260 0.20850 0.93730 -0.52600
O 	O 	0.44820 0.07010 0.05910 -0.21200
O 	O 	0.45950 0.67530 0.56000 -0.52800
O 	O 	0.47550 0.72620 0.32900 -0.53600
O 	O 	0.59820 0.69950 0.42780 -0.22100
N 	N 	0.61610 0.03200 0.17710 -0.09200
N 	N 	0.61650 0.93860 0.41740 -0.09100
C 	C 	0.64000 0.11500 0.08900 -0.03400
C 	C 	0.70540 0.03600 0.22580 0.04000
C 	C 	0.68310 0.95240 0.30740 0.04800
C 	C 	0.60010 0.85940 0.51010 -0.01800
C 	C 	0.53190 0.94370 0.37960 0.03500
C 	C 	0.54470 0.01370 0.27870 0.04900
C 	C 	0.76990 0.95900 0.36650 0.02000
C 	C 	0.75910 0.03720 0.10360 0.02600
P 	P 	0.84690 0.39580 0.06320 0.51100
P 	P 	0.26790 0.79640 0.45050 0.49500
O 	O 	0.78300 0.34160 0.17400 -0.55300
O 	O 	0.79150 0.36410 0.93730 -0.52600
O 	O 	0.92990 0.37810 0.05910 -0.21200
O 	O 	0.32470 0.78420 0.56000 -0.52800
O 	O 	0.27380 0.74930 0.32900 -0.53600
O 	O 	0.30050 0.89870 0.42780 -0.22100
N 	N 	0.96800 0.58410 0.17710 -0.09200
N 	N 	0.06140 0.67790 0.41740 -0.09100
C 	C 	0.88500 0.52500 0.08900 -0.03300
C 	C 	0.96400 0.66940 0.22580 0.04000
C 	C 	0.04760 0.73070 0.30740 0.04800
C 	C 	0.14060 0.74070 0.51010 -0.01800
C 	C 	0.05630 0.58820 0.37960 0.03500
C 	C 	0.98630 0.53100 0.27870 0.04900
C 	C 	0.04100 0.81090 0.36650 0.02000
C 	C 	0.96280 0.72190 0.10360 0.02700
P 	P 	0.39580 0.54890 0.93680 0.51200
P 	P 	0.79640 0.52850 0.54950 0.49500
O 	O 	0.34160 0.55860 0.82600 -0.55300
O 	O 	0.36410 0.57260 0.06270 -0.52700
O 	O 	0.37810 0.44820 0.94090 -0.21100
O 	O 	0.78420 0.45950 0.44000 -0.52800
O 	O 	0.74930 0.47550 0.67100 -0.53600
O 	O 	0.89870 0.59820 0.57220 -0.22100
N 	N 	0.58410 0.61610 0.82290 -0.09200
N 	N 	0.67790 0.61650 0.58260 -0.09100
C 	C 	0.52500 0.64000 0.91100 -0.03300
C 	C 	0.66940 0.70540 0.77420 0.04000
C 	C 	0.73070 0.68310 0.69260 0.04700
C 	C 	0.74070 0.60010 0.48990 -0.01800
C 	C 	0.58820 0.53190 0.62040 0.03400
C 	C 	0.53100 0.54470 0.72130 0.05000
C 	C 	0.81090 0.76990 0.63350 0.02000
C 	C 	0.72190 0.75910 0.89640 0.02700
P 	P 	0.45110 0.84690 0.93680 0.51100
P 	P 	0.47150 0.26790 0.54950 0.49500
O 	O 	0.44140 0.78300 0.82600 -0.55300
O 	O 	0.42740 0.79150 0.06270 -0.52600
O 	O 	0.55180 0.92990 0.94090 -0.21200
O 	O 	0.54050 0.32470 0.44000 -0.52800
O 	O 	0.52450 0.27380 0.67100 -0.53600
O 	O 	0.40180 0.30050 0.57220 -0.22100
N 	N 	0.38390 0.96800 0.82290 -0.09200
N 	N 	0.38350 0.06140 0.58260 -0.09100
C 	C 	0.36000 0.88500 0.91100 -0.03400
C 	C 	0.29460 0.96400 0.77420 0.04000
C 	C 	0.31690 0.04760 0.69260 0.04800
C 	C 	0.39990 0.14060 0.48990 -0.01800
C 	C 	0.46810 0.05630 0.62040 0.03500
C 	C 	0.45530 0.98630 0.72130 0.04900
C 	C 	0.23010 0.04100 0.63350 0.02000
C 	C 	0.24090 0.96280 0.89640 0.02600
P 	P 	0.15310 0.60420 0.93680 0.51100
P 	P 	0.73210 0.20360 0.54950 0.49500
O 	O 	0.21700 0.65840 0.82600 -0.55300
O 	O 	0.20850 0.63590 0.06270 -0.52600
O 	O 	0.07010 0.62190 0.94090 -0.21200
O 	O 	0.67530 0.21580 0.44000 -0.52800
O 	O 	0.72620 0.25070 0.67100 -0.53600
O 	O 	0.69950 0.10130 0.57220 -0.22100
N 	N 	0.03200 0.41590 0.82290 -0.09200
N 	N 	0.93860 0.32210 0.58260 -0.09100
C 	C 	0.11500 0.47500 0.91100 -0.03300
C 	C 	0.03600 0.33060 0.77420 0.04000
C 	C 	0.95240 0.26930 0.69260 0.04800
C 	C 	0.85940 0.25930 0.48990 -0.01800
C 	C 	0.94370 0.41180 0.62040 0.03500
C 	C 	0.01370 0.46900 0.72130 0.04900
C 	C 	0.95900 0.18910 0.63350 0.02000
C 	C 	0.03720 0.27810 0.89640 0.02700
Y 	Y 	0.66667 0.33333 0.30810 2.38100
Y 	Y 	0.66667 0.33333 0.79470 2.38100
Y 	Y 	0.33333 0.66667 0.69190 2.38100
Y 	Y 	0.33333 0.66667 0.20530 2.38100
