data_crystal

_cell_length_a 31.80330
_cell_length_b 31.80330
_cell_length_c 34.55930
_cell_angle_alpha 90.00000
_cell_angle_beta  90.00000
_cell_angle_gamma 90.00000

_symmetry_space_group_name_	'P 1'
_symmetry_space_group_name_H-M	'P 1'

loop_
_symmetry_equiv_pos_as_xyz
  x,y,z

loop_
_atom_site_label
_atom_site_type_symbol
_atom_site_fract_x
_atom_site_fract_y
_atom_site_fract_z
_atom_site_charge
P 	P 	0.05084 0.50152 0.17064 0.52500
P 	P 	0.17618 0.69861 0.32500 0.51100
P 	P 	0.96685 0.32645 0.07578 0.52200
P 	P 	0.15376 0.58464 0.27232 0.55000
O 	O 	0.22003 0.71025 0.34217 -0.41500
O 	O 	0.21739 0.65015 0.22290 -0.47300
O 	O 	0.15634 0.73952 0.30922 -0.41100
O 	O 	0.98302 0.32929 0.03414 -0.36900
O 	O 	0.96566 0.48094 0.05215 -0.60800
O 	O 	0.05809 0.51715 0.02728 -0.63100
O 	O 	0.93896 0.36456 0.08547 -0.37600
O 	O 	0.12432 0.49616 0.08138 -0.47300
O 	O 	0.00932 0.54589 0.08927 -0.47200
O 	O 	0.10658 0.69321 0.25626 -0.46300
O 	O 	0.14998 0.67728 0.35548 -0.14500
O 	O 	0.96691 0.43531 0.12457 -0.45800
O 	O 	0.18421 0.66951 0.28973 -0.41200
O 	O 	0.18590 0.73168 0.23377 -0.60800
O 	O 	0.00066 0.32018 0.10589 -0.16400
O 	O 	0.05816 0.51868 0.21071 -0.42600
O 	O 	0.20177 0.58587 0.27467 -0.38900
O 	O 	0.15624 0.80649 0.26561 -0.47000
O 	O 	0.07754 0.52567 0.14101 -0.38800
O 	O 	0.00431 0.50413 0.15991 -0.39100
O 	O 	0.13782 0.61619 0.24208 -0.38900
O 	O 	0.93704 0.28676 0.07547 -0.16600
O 	O 	0.13930 0.54118 0.26336 -0.43400
O 	O 	0.06374 0.45373 0.17202 -0.19700
O 	O 	0.13510 0.59702 0.31307 -0.16100
Mo	Mo	0.12816 0.74962 0.24913 1.08400
Mo	Mo	0.15711 0.67671 0.22935 1.08400
Mo	Mo	0.07437 0.53020 0.08095 1.08200
Mo	Mo	0.94356 0.42704 0.07316 1.08600
Mo	Mo	0.24492 0.63376 0.27578 1.08400
Mo	Mo	0.97411 0.49272 0.10758 1.09000
P 	P 	0.55084 0.00152 0.67064 0.50300
P 	P 	0.67618 0.19861 0.82500 0.51000
P 	P 	0.46685 0.82645 0.57578 0.50900
P 	P 	0.65376 0.08464 0.77232 0.54900
O 	O 	0.72003 0.21025 0.84217 -0.41600
O 	O 	0.71739 0.15015 0.72290 -0.47500
O 	O 	0.65634 0.23952 0.80922 -0.41100
O 	O 	0.48302 0.82929 0.53414 -0.36900
O 	O 	0.46566 0.98094 0.55215 -0.59600
O 	O 	0.55809 0.01715 0.52728 -0.63800
O 	O 	0.43896 0.86456 0.58547 -0.37400
O 	O 	0.62432 0.99616 0.58138 -0.45500
O 	O 	0.50932 0.04589 0.58927 -0.47300
O 	O 	0.60658 0.19321 0.75626 -0.46100
O 	O 	0.64998 0.17728 0.85548 -0.14500
O 	O 	0.46691 0.93531 0.62457 -0.45900
O 	O 	0.68421 0.16951 0.78973 -0.41200
O 	O 	0.68590 0.23168 0.73377 -0.60800
O 	O 	0.50066 0.82018 0.60589 -0.14900
O 	O 	0.55816 0.01868 0.71071 -0.43100
O 	O 	0.70177 0.08587 0.77467 -0.39300
O 	O 	0.65624 0.30649 0.76561 -0.47000
O 	O 	0.57754 0.02567 0.64101 -0.39500
O 	O 	0.50431 0.00413 0.65991 -0.39800
O 	O 	0.63782 0.11619 0.74208 -0.39000
O 	O 	0.43704 0.78676 0.57547 -0.16400
O 	O 	0.63930 0.04118 0.76336 -0.44400
O 	O 	0.56374 0.95373 0.67202 -0.17500
O 	O 	0.63510 0.09702 0.81307 -0.16200
Mo	Mo	0.62816 0.24962 0.74913 1.08500
Mo	Mo	0.65711 0.17671 0.72935 1.08400
Mo	Mo	0.57437 0.03020 0.58095 1.07200
Mo	Mo	0.44356 0.92704 0.57316 1.08700
Mo	Mo	0.74492 0.13376 0.77578 1.08300
Mo	Mo	0.47411 0.99272 0.60758 1.09700
P 	P 	0.44916 0.49848 0.67064 0.52400
P 	P 	0.32382 0.30139 0.82500 0.51000
P 	P 	0.53315 0.67355 0.57578 0.50900
P 	P 	0.34624 0.41536 0.77232 0.54900
O 	O 	0.27997 0.28975 0.84217 -0.41600
O 	O 	0.28261 0.34985 0.72290 -0.47300
O 	O 	0.34366 0.26048 0.80922 -0.41100
O 	O 	0.51698 0.67071 0.53414 -0.36900
O 	O 	0.53434 0.51906 0.55215 -0.61100
O 	O 	0.44191 0.48285 0.52728 -0.62000
O 	O 	0.56104 0.63544 0.58547 -0.37600
O 	O 	0.37568 0.50384 0.58138 -0.47200
O 	O 	0.49068 0.45411 0.58927 -0.46200
O 	O 	0.39342 0.30679 0.75626 -0.46100
O 	O 	0.35002 0.32272 0.85548 -0.14400
O 	O 	0.53309 0.56469 0.62457 -0.46500
O 	O 	0.31579 0.33049 0.78973 -0.41200
O 	O 	0.31410 0.26832 0.73377 -0.60700
O 	O 	0.49934 0.67982 0.60589 -0.14900
O 	O 	0.44184 0.48132 0.71071 -0.42400
O 	O 	0.29823 0.41413 0.77467 -0.38900
O 	O 	0.34376 0.19351 0.76561 -0.47200
O 	O 	0.42246 0.47433 0.64101 -0.38700
O 	O 	0.49569 0.49587 0.65991 -0.38300
O 	O 	0.36218 0.38381 0.74208 -0.38800
O 	O 	0.56296 0.71324 0.57547 -0.16500
O 	O 	0.36070 0.45882 0.76336 -0.43400
O 	O 	0.43626 0.54627 0.67202 -0.19500
O 	O 	0.36490 0.40298 0.81307 -0.16000
Mo	Mo	0.37184 0.25038 0.74913 1.08500
Mo	Mo	0.34289 0.32329 0.72935 1.08500
Mo	Mo	0.42563 0.46980 0.58095 1.08400
Mo	Mo	0.55644 0.57296 0.57316 1.08500
Mo	Mo	0.25508 0.36624 0.77578 1.08400
Mo	Mo	0.52589 0.50728 0.60758 1.08300
P 	P 	0.94916 0.99848 0.17064 0.54400
P 	P 	0.82382 0.80139 0.32500 0.51000
P 	P 	0.03315 0.17355 0.07578 0.49800
P 	P 	0.84624 0.91536 0.27232 0.54800
O 	O 	0.77997 0.78975 0.34217 -0.41600
O 	O 	0.78261 0.84985 0.22290 -0.47000
O 	O 	0.84366 0.76048 0.30922 -0.41100
O 	O 	0.01698 0.17071 0.03414 -0.38400
O 	O 	0.03434 0.01906 0.05215 -0.63200
O 	O 	0.94191 0.98285 0.02728 -0.60400
O 	O 	0.06104 0.13544 0.08547 -0.38000
O 	O 	0.87568 0.00384 0.08138 -0.48900
O 	O 	0.99068 0.95411 0.08927 -0.44400
O 	O 	0.89342 0.80679 0.25626 -0.45900
O 	O 	0.85002 0.82272 0.35548 -0.14400
O 	O 	0.03309 0.06469 0.12457 -0.47900
O 	O 	0.81579 0.83049 0.28973 -0.41200
O 	O 	0.81410 0.76832 0.23377 -0.60700
O 	O 	0.99934 0.17982 0.10589 -0.13600
O 	O 	0.94184 0.98132 0.21071 -0.41000
O 	O 	0.79823 0.91413 0.27467 -0.38300
O 	O 	0.84376 0.69351 0.26561 -0.47000
O 	O 	0.92246 0.97433 0.14101 -0.37800
O 	O 	0.99569 0.99587 0.15991 -0.36200
O 	O 	0.86218 0.88381 0.24208 -0.38500
O 	O 	0.06296 0.21324 0.07547 -0.16900
O 	O 	0.86070 0.95882 0.26336 -0.41900
O 	O 	0.93626 0.04627 0.17202 -0.21100
O 	O 	0.86490 0.90298 0.31307 -0.15700
Mo	Mo	0.87184 0.75038 0.24913 1.08500
Mo	Mo	0.84289 0.82329 0.22935 1.08500
Mo	Mo	0.92563 0.96980 0.08095 1.09500
Mo	Mo	0.05644 0.07296 0.07316 1.08000
Mo	Mo	0.75508 0.86624 0.27578 1.08600
Mo	Mo	0.02589 0.00728 0.10758 1.06200
P 	P 	0.74848 0.80084 0.42064 0.52400
P 	P 	0.55139 0.92618 0.57500 0.50900
P 	P 	0.92355 0.71685 0.32578 0.50900
P 	P 	0.66536 0.90376 0.52232 0.54800
O 	O 	0.53975 0.97003 0.59217 -0.40200
O 	O 	0.59985 0.96739 0.47290 -0.46000
O 	O 	0.51048 0.90634 0.55922 -0.41000
O 	O 	0.92071 0.73302 0.28414 -0.36700
O 	O 	0.76906 0.71566 0.30215 -0.61100
O 	O 	0.73285 0.80809 0.27728 -0.61900
O 	O 	0.88544 0.68896 0.33547 -0.37500
O 	O 	0.75384 0.87432 0.33138 -0.46900
O 	O 	0.70411 0.75932 0.33927 -0.46200
O 	O 	0.55679 0.85658 0.50626 -0.46100
O 	O 	0.57272 0.89998 0.60548 -0.14400
O 	O 	0.81469 0.71691 0.37457 -0.46500
O 	O 	0.58049 0.93421 0.53973 -0.40900
O 	O 	0.51832 0.93590 0.48377 -0.60000
O 	O 	0.92982 0.75066 0.35589 -0.14700
O 	O 	0.73132 0.80816 0.46071 -0.42300
O 	O 	0.66413 0.95177 0.52467 -0.38400
O 	O 	0.44351 0.90624 0.51561 -0.46700
O 	O 	0.72433 0.82754 0.39101 -0.38500
O 	O 	0.74587 0.75431 0.40991 -0.38300
O 	O 	0.63381 0.88782 0.49208 -0.38700
O 	O 	0.96324 0.68704 0.32547 -0.15800
O 	O 	0.70882 0.88930 0.51336 -0.43200
O 	O 	0.79627 0.81374 0.42202 -0.19500
O 	O 	0.65298 0.88510 0.56307 -0.15900
Mo	Mo	0.50038 0.87816 0.49913 1.08500
Mo	Mo	0.57329 0.90711 0.47935 1.08600
Mo	Mo	0.71980 0.82437 0.33095 1.08400
Mo	Mo	0.82296 0.69356 0.32316 1.08500
Mo	Mo	0.61624 0.99492 0.52578 1.09500
Mo	Mo	0.75728 0.72411 0.35758 1.08300
P 	P 	0.24848 0.30084 0.92064 0.52300
P 	P 	0.05139 0.42618 0.07500 0.51100
P 	P 	0.42355 0.21685 0.82578 0.50900
P 	P 	0.16536 0.40376 0.02232 0.53200
O 	O 	0.03975 0.47003 0.09217 -0.42000
O 	O 	0.09985 0.46739 0.97290 -0.46100
O 	O 	0.01048 0.40634 0.05922 -0.42400
O 	O 	0.42071 0.23302 0.78414 -0.37000
O 	O 	0.26906 0.21566 0.80215 -0.61100
O 	O 	0.23285 0.30809 0.77728 -0.62000
O 	O 	0.38544 0.18896 0.83547 -0.37700
O 	O 	0.25384 0.37432 0.83138 -0.47100
O 	O 	0.20411 0.25932 0.83927 -0.46200
O 	O 	0.05679 0.35658 0.00626 -0.48100
O 	O 	0.07272 0.39998 0.10548 -0.14700
O 	O 	0.31469 0.21691 0.87457 -0.46400
O 	O 	0.08049 0.43421 0.03973 -0.42000
O 	O 	0.01832 0.43590 0.98377 -0.60100
O 	O 	0.42982 0.25066 0.85589 -0.14900
O 	O 	0.23132 0.30816 0.96071 -0.41300
O 	O 	0.16413 0.45177 0.02467 -0.39400
O 	O 	0.94351 0.40624 0.01561 -0.47800
O 	O 	0.22433 0.32754 0.89101 -0.38500
O 	O 	0.24587 0.25431 0.90991 -0.38100
O 	O 	0.13381 0.38782 0.99208 -0.36700
O 	O 	0.46324 0.18704 0.82547 -0.16600
O 	O 	0.20882 0.38930 0.01336 -0.44200
O 	O 	0.29627 0.31374 0.92202 -0.19200
O 	O 	0.15298 0.38510 0.06307 -0.16100
Mo	Mo	0.00038 0.37816 0.99913 1.09500
Mo	Mo	0.07329 0.40711 0.97935 1.09200
Mo	Mo	0.21980 0.32437 0.83095 1.08300
Mo	Mo	0.32296 0.19356 0.82316 1.08400
Mo	Mo	0.11624 0.49492 0.02578 1.07800
Mo	Mo	0.25728 0.22411 0.85758 1.08300
P 	P 	0.75152 0.19916 0.92064 0.52300
P 	P 	0.94861 0.07382 0.07500 0.51200
P 	P 	0.57645 0.28315 0.82578 0.50900
P 	P 	0.83464 0.09624 0.02232 0.53200
O 	O 	0.96025 0.02997 0.09217 -0.42500
O 	O 	0.90015 0.03261 0.97290 -0.47100
O 	O 	0.98952 0.09366 0.05922 -0.40700
O 	O 	0.57929 0.26698 0.78414 -0.36900
O 	O 	0.73094 0.28434 0.80215 -0.61100
O 	O 	0.76715 0.19191 0.77728 -0.62000
O 	O 	0.61456 0.31104 0.83547 -0.37500
O 	O 	0.74616 0.12568 0.83138 -0.47300
O 	O 	0.79589 0.24068 0.83927 -0.46000
O 	O 	0.94321 0.14342 0.00626 -0.47500
O 	O 	0.92728 0.10002 0.10548 -0.14500
O 	O 	0.68531 0.28309 0.87457 -0.46300
O 	O 	0.91951 0.06579 0.03973 -0.42200
O 	O 	0.98168 0.06410 0.98377 -0.59300
O 	O 	0.57018 0.24934 0.85589 -0.14900
O 	O 	0.76868 0.19184 0.96071 -0.41200
O 	O 	0.83587 0.04823 0.02467 -0.39800
O 	O 	0.05649 0.09376 0.01561 -0.49200
O 	O 	0.77567 0.17246 0.89101 -0.38500
O 	O 	0.75413 0.24569 0.90991 -0.37900
O 	O 	0.86619 0.11218 0.99208 -0.36600
O 	O 	0.53676 0.31296 0.82547 -0.16500
O 	O 	0.79118 0.11070 0.01336 -0.44300
O 	O 	0.70373 0.18626 0.92202 -0.19200
O 	O 	0.84702 0.11490 0.06307 -0.16100
Mo	Mo	0.99962 0.12184 0.99913 1.10800
Mo	Mo	0.92671 0.09289 0.97935 1.09300
Mo	Mo	0.78020 0.17563 0.83095 1.08400
Mo	Mo	0.67704 0.30644 0.82316 1.08500
Mo	Mo	0.88376 0.00508 0.02578 1.06700
Mo	Mo	0.74272 0.27589 0.85758 1.08400
P 	P 	0.25152 0.69916 0.42064 0.52400
P 	P 	0.44861 0.57382 0.57500 0.51000
P 	P 	0.07645 0.78315 0.32578 0.50900
P 	P 	0.33464 0.59624 0.52232 0.54800
O 	O 	0.46025 0.52997 0.59217 -0.41600
O 	O 	0.40015 0.53261 0.47290 -0.47200
O 	O 	0.48952 0.59366 0.55922 -0.41100
O 	O 	0.07929 0.76698 0.28414 -0.37100
O 	O 	0.23094 0.78434 0.30215 -0.61000
O 	O 	0.26715 0.69191 0.27728 -0.62000
O 	O 	0.11456 0.81104 0.33547 -0.37500
O 	O 	0.24616 0.62568 0.33138 -0.47200
O 	O 	0.29589 0.74068 0.33927 -0.46200
O 	O 	0.44321 0.64342 0.50626 -0.46100
O 	O 	0.42728 0.60002 0.60548 -0.14500
O 	O 	0.18531 0.78309 0.37457 -0.46400
O 	O 	0.41951 0.56579 0.53973 -0.41200
O 	O 	0.48168 0.56410 0.48377 -0.60700
O 	O 	0.07018 0.74934 0.35589 -0.15200
O 	O 	0.26868 0.69184 0.46071 -0.42300
O 	O 	0.33587 0.54823 0.52467 -0.38900
O 	O 	0.55649 0.59376 0.51561 -0.47000
O 	O 	0.27567 0.67246 0.39101 -0.38600
O 	O 	0.25413 0.74569 0.40991 -0.38200
O 	O 	0.36619 0.61218 0.49208 -0.38800
O 	O 	0.03676 0.81296 0.32547 -0.17000
O 	O 	0.29118 0.61070 0.51336 -0.43400
O 	O 	0.20373 0.68626 0.42202 -0.19500
O 	O 	0.34702 0.61490 0.56307 -0.16000
Mo	Mo	0.49962 0.62184 0.49913 1.08500
Mo	Mo	0.42671 0.59289 0.47935 1.08500
Mo	Mo	0.28020 0.67563 0.33095 1.08400
Mo	Mo	0.17704 0.80644 0.32316 1.08600
Mo	Mo	0.38376 0.50508 0.52578 1.08500
Mo	Mo	0.24272 0.77589 0.35758 1.08400
P 	P 	0.44916 0.50152 0.82936 0.52400
P 	P 	0.32382 0.69861 0.67500 0.51000
P 	P 	0.53315 0.32645 0.92422 0.50800
P 	P 	0.34624 0.58464 0.72768 0.54800
O 	O 	0.27997 0.71025 0.65783 -0.41600
O 	O 	0.28261 0.65015 0.77710 -0.47200
O 	O 	0.34366 0.73952 0.69078 -0.41100
O 	O 	0.51698 0.32929 0.96586 -0.36100
O 	O 	0.53434 0.48094 0.94785 -0.60400
O 	O 	0.44191 0.51715 0.97272 -0.60800
O 	O 	0.56104 0.36456 0.91453 -0.37400
O 	O 	0.37568 0.49616 0.91862 -0.47000
O 	O 	0.49068 0.54589 0.91073 -0.46000
O 	O 	0.39342 0.69321 0.74374 -0.46000
O 	O 	0.35002 0.67728 0.64452 -0.14500
O 	O 	0.53309 0.43531 0.87543 -0.46500
O 	O 	0.31579 0.66951 0.71027 -0.41200
O 	O 	0.31410 0.73168 0.76623 -0.60700
O 	O 	0.49934 0.32018 0.89411 -0.14900
O 	O 	0.44184 0.51868 0.78929 -0.42300
O 	O 	0.29823 0.58587 0.72533 -0.38900
O 	O 	0.34376 0.80649 0.73439 -0.46800
O 	O 	0.42246 0.52567 0.85899 -0.38600
O 	O 	0.49569 0.50413 0.84009 -0.38300
O 	O 	0.36218 0.61619 0.75792 -0.38700
O 	O 	0.56296 0.28676 0.92453 -0.16100
O 	O 	0.36070 0.54118 0.73664 -0.43400
O 	O 	0.43626 0.45373 0.82798 -0.19500
O 	O 	0.36490 0.59702 0.68693 -0.16000
Mo	Mo	0.37184 0.74962 0.75087 1.08500
Mo	Mo	0.34289 0.67671 0.77065 1.08500
Mo	Mo	0.42563 0.53020 0.91905 1.08500
Mo	Mo	0.55644 0.42704 0.92684 1.08600
Mo	Mo	0.25508 0.63376 0.72422 1.08400
Mo	Mo	0.52589 0.49272 0.89242 1.08300
P 	P 	0.94916 0.00152 0.32936 0.50300
P 	P 	0.82382 0.19861 0.17500 0.51000
P 	P 	0.03315 0.82645 0.42422 0.49700
P 	P 	0.84624 0.08464 0.22768 0.54900
O 	O 	0.77997 0.21025 0.15783 -0.41600
O 	O 	0.78261 0.15015 0.27710 -0.47500
O 	O 	0.84366 0.23952 0.19078 -0.41100
O 	O 	0.01698 0.82929 0.46586 -0.37600
O 	O 	0.03434 0.98094 0.44785 -0.60100
O 	O 	0.94191 0.01715 0.47272 -0.63400
O 	O 	0.06104 0.86456 0.41453 -0.37500
O 	O 	0.87568 0.99616 0.41862 -0.45500
O 	O 	0.99068 0.04589 0.41073 -0.46400
O 	O 	0.89342 0.19321 0.24374 -0.45900
O 	O 	0.85002 0.17728 0.14452 -0.14500
O 	O 	0.03309 0.93531 0.37543 -0.46600
O 	O 	0.81579 0.16951 0.21027 -0.41200
O 	O 	0.81410 0.23168 0.26623 -0.60700
O 	O 	0.99934 0.82018 0.39411 -0.13500
O 	O 	0.94184 0.01868 0.28929 -0.42900
O 	O 	0.79823 0.08587 0.22533 -0.39400
O 	O 	0.84376 0.30649 0.23439 -0.46900
O 	O 	0.92246 0.02567 0.35899 -0.39400
O 	O 	0.99569 0.00413 0.34009 -0.39000
O 	O 	0.86218 0.11619 0.25792 -0.38900
O 	O 	0.06296 0.78676 0.42453 -0.16500
O 	O 	0.86070 0.04118 0.23664 -0.44400
O 	O 	0.93626 0.95373 0.32798 -0.17400
O 	O 	0.86490 0.09702 0.18693 -0.16200
Mo	Mo	0.87184 0.24962 0.25087 1.08600
Mo	Mo	0.84289 0.17671 0.27065 1.08500
Mo	Mo	0.92563 0.03020 0.41905 1.07200
Mo	Mo	0.05644 0.92704 0.42684 1.08500
Mo	Mo	0.75508 0.13376 0.22422 1.08300
Mo	Mo	0.02589 0.99272 0.39242 1.09000
P 	P 	0.05084 0.49848 0.32936 0.52400
P 	P 	0.17618 0.30139 0.17500 0.51000
P 	P 	0.96685 0.67355 0.42422 0.52000
P 	P 	0.15376 0.41536 0.22768 0.54900
O 	O 	0.22003 0.28975 0.15783 -0.41600
O 	O 	0.21739 0.34985 0.27710 -0.47200
O 	O 	0.15634 0.26048 0.19078 -0.41100
O 	O 	0.98302 0.67071 0.46586 -0.36200
O 	O 	0.96566 0.51906 0.44785 -0.60400
O 	O 	0.05809 0.48285 0.47272 -0.62200
O 	O 	0.93896 0.63544 0.41453 -0.37500
O 	O 	0.12432 0.50384 0.41862 -0.47200
O 	O 	0.00932 0.45411 0.41073 -0.47100
O 	O 	0.10658 0.30679 0.24374 -0.46300
O 	O 	0.14998 0.32272 0.14452 -0.14600
O 	O 	0.96691 0.56469 0.37543 -0.45800
O 	O 	0.18421 0.33049 0.21027 -0.41200
O 	O 	0.18590 0.26832 0.26623 -0.60800
O 	O 	0.00066 0.67982 0.39411 -0.16300
O 	O 	0.05816 0.48132 0.28929 -0.42600
O 	O 	0.20177 0.41413 0.22533 -0.38900
O 	O 	0.15624 0.19351 0.23439 -0.47300
O 	O 	0.07754 0.47433 0.35899 -0.38700
O 	O 	0.00431 0.49587 0.34009 -0.39100
O 	O 	0.13782 0.38381 0.25792 -0.38900
O 	O 	0.93704 0.71324 0.42453 -0.16300
O 	O 	0.13930 0.45882 0.23664 -0.43400
O 	O 	0.06374 0.54627 0.32798 -0.19700
O 	O 	0.13510 0.40298 0.18693 -0.16100
Mo	Mo	0.12816 0.25038 0.25087 1.08400
Mo	Mo	0.15711 0.32329 0.27065 1.08500
Mo	Mo	0.07437 0.46980 0.41905 1.08300
Mo	Mo	0.94356 0.57296 0.42684 1.08700
Mo	Mo	0.24492 0.36624 0.22422 1.08400
Mo	Mo	0.97411 0.50728 0.39242 1.09000
P 	P 	0.55084 0.99848 0.82936 0.54500
P 	P 	0.67618 0.80139 0.67500 0.51000
P 	P 	0.46685 0.17355 0.92422 0.50800
P 	P 	0.65376 0.91536 0.72768 0.54800
O 	O 	0.72003 0.78975 0.65783 -0.41600
O 	O 	0.71739 0.84985 0.77710 -0.46900
O 	O 	0.65634 0.76048 0.69078 -0.41100
O 	O 	0.48302 0.17071 0.96586 -0.36100
O 	O 	0.46566 0.01906 0.94785 -0.61600
O 	O 	0.55809 0.98285 0.97272 -0.58700
O 	O 	0.43896 0.13544 0.91453 -0.37600
O 	O 	0.62432 0.00384 0.91862 -0.48600
O 	O 	0.50932 0.95411 0.91073 -0.44900
O 	O 	0.60658 0.80679 0.74374 -0.46000
O 	O 	0.64998 0.82272 0.64452 -0.14500
O 	O 	0.46691 0.06469 0.87543 -0.47100
O 	O 	0.68421 0.83049 0.71027 -0.41200
O 	O 	0.68590 0.76832 0.76623 -0.60700
O 	O 	0.50066 0.17982 0.89411 -0.14900
O 	O 	0.55816 0.98132 0.78929 -0.41200
O 	O 	0.70177 0.91413 0.72533 -0.38300
O 	O 	0.65624 0.69351 0.73439 -0.47000
O 	O 	0.57754 0.97433 0.85899 -0.37700
O 	O 	0.50431 0.99587 0.84009 -0.36800
O 	O 	0.63782 0.88381 0.75792 -0.38500
O 	O 	0.43704 0.21324 0.92453 -0.16200
O 	O 	0.63930 0.95882 0.73664 -0.41900
O 	O 	0.56374 0.04627 0.82798 -0.21400
O 	O 	0.63510 0.90298 0.68693 -0.15800
Mo	Mo	0.62816 0.75038 0.75087 1.08500
Mo	Mo	0.65711 0.82329 0.77065 1.08600
Mo	Mo	0.57437 0.96980 0.91905 1.09700
Mo	Mo	0.44356 0.07296 0.92684 1.08400
Mo	Mo	0.74492 0.86624 0.72422 1.08600
Mo	Mo	0.47411 0.00728 0.89242 1.06900
P 	P 	0.75152 0.80084 0.57936 0.52400
P 	P 	0.94861 0.92618 0.42500 0.51000
P 	P 	0.57645 0.71685 0.67422 0.50900
P 	P 	0.83464 0.90376 0.47768 0.54800
O 	O 	0.96025 0.97003 0.40783 -0.39800
O 	O 	0.90015 0.96739 0.52710 -0.46000
O 	O 	0.98952 0.90634 0.44078 -0.40200
O 	O 	0.57929 0.73302 0.71586 -0.36800
O 	O 	0.73094 0.71566 0.69785 -0.61100
O 	O 	0.76715 0.80809 0.72272 -0.61900
O 	O 	0.61456 0.68896 0.66453 -0.37600
O 	O 	0.74616 0.87432 0.66862 -0.46800
O 	O 	0.79589 0.75932 0.66073 -0.46100
O 	O 	0.94321 0.85658 0.49374 -0.45800
O 	O 	0.92728 0.89998 0.39452 -0.14200
O 	O 	0.68531 0.71691 0.62543 -0.46500
O 	O 	0.91951 0.93421 0.46027 -0.40900
O 	O 	0.98168 0.93590 0.51623 -0.59300
O 	O 	0.57018 0.75066 0.64411 -0.14900
O 	O 	0.76868 0.80816 0.53929 -0.42300
O 	O 	0.83587 0.95177 0.47533 -0.38400
O 	O 	0.05649 0.90624 0.48439 -0.47200
O 	O 	0.77567 0.82754 0.60899 -0.38500
O 	O 	0.75413 0.75431 0.59009 -0.38300
O 	O 	0.86619 0.88782 0.50792 -0.38600
O 	O 	0.53676 0.68704 0.67453 -0.16400
O 	O 	0.79118 0.88930 0.48664 -0.43200
O 	O 	0.70373 0.81374 0.57798 -0.19500
O 	O 	0.84702 0.88510 0.43693 -0.15900
Mo	Mo	0.99962 0.87816 0.50087 1.09200
Mo	Mo	0.92671 0.90711 0.52065 1.08700
Mo	Mo	0.78020 0.82437 0.66905 1.08500
Mo	Mo	0.67704 0.69356 0.67684 1.08500
Mo	Mo	0.88376 0.99492 0.47422 1.09500
Mo	Mo	0.74272 0.72411 0.64242 1.08300
P 	P 	0.25152 0.30084 0.07936 0.52400
P 	P 	0.44861 0.42618 0.92500 0.51000
P 	P 	0.07645 0.21685 0.17422 0.50900
P 	P 	0.33464 0.40376 0.97768 0.56500
O 	O 	0.46025 0.47003 0.90783 -0.41600
O 	O 	0.40015 0.46739 0.02710 -0.48400
O 	O 	0.48952 0.40634 0.94078 -0.40600
O 	O 	0.07929 0.23302 0.21586 -0.37200
O 	O 	0.23094 0.21566 0.19785 -0.61200
O 	O 	0.26715 0.30809 0.22272 -0.62000
O 	O 	0.11456 0.18896 0.16453 -0.37900
O 	O 	0.24616 0.37432 0.16862 -0.47200
O 	O 	0.29589 0.25932 0.16073 -0.46400
O 	O 	0.44321 0.35658 0.99374 -0.44400
O 	O 	0.42728 0.39998 0.89452 -0.14400
O 	O 	0.18531 0.21691 0.12543 -0.46800
O 	O 	0.41951 0.43421 0.96027 -0.40300
O 	O 	0.48168 0.43590 0.01623 -0.61700
O 	O 	0.07018 0.25066 0.14411 -0.15300
O 	O 	0.26868 0.30816 0.03929 -0.43300
O 	O 	0.33587 0.45177 0.97533 -0.38300
O 	O 	0.55649 0.40624 0.98439 -0.45600
O 	O 	0.27567 0.32754 0.10899 -0.38800
O 	O 	0.25413 0.25431 0.09009 -0.38800
O 	O 	0.36619 0.38782 0.00792 -0.40900
O 	O 	0.03676 0.18704 0.17453 -0.17300
O 	O 	0.29118 0.38930 0.98664 -0.42300
O 	O 	0.20373 0.31374 0.07798 -0.19800
O 	O 	0.34702 0.38510 0.93693 -0.16000
Mo	Mo	0.49962 0.37816 0.00087 1.06800
Mo	Mo	0.42671 0.40711 0.02065 1.07700
Mo	Mo	0.28020 0.32437 0.16905 1.08300
Mo	Mo	0.17704 0.19356 0.17684 1.08300
Mo	Mo	0.38376 0.49492 0.97422 1.09200
Mo	Mo	0.24272 0.22411 0.14242 1.08100
P 	P 	0.74848 0.19916 0.07936 0.52400
P 	P 	0.55139 0.07382 0.92500 0.51000
P 	P 	0.92355 0.28315 0.17422 0.50900
P 	P 	0.66536 0.09624 0.97768 0.56500
O 	O 	0.53975 0.02997 0.90783 -0.42900
O 	O 	0.59985 0.03261 0.02710 -0.49500
O 	O 	0.51048 0.09366 0.94078 -0.40600
O 	O 	0.92071 0.26698 0.21586 -0.36600
O 	O 	0.76906 0.28434 0.19785 -0.61100
O 	O 	0.73285 0.19191 0.22272 -0.62000
O 	O 	0.88544 0.31104 0.16453 -0.37500
O 	O 	0.75384 0.12568 0.16862 -0.47500
O 	O 	0.70411 0.24068 0.16073 -0.46400
O 	O 	0.55679 0.14342 0.99374 -0.44400
O 	O 	0.57272 0.10002 0.89452 -0.14600
O 	O 	0.81469 0.28309 0.12543 -0.46700
O 	O 	0.58049 0.06579 0.96027 -0.40600
O 	O 	0.51832 0.06410 0.01623 -0.62200
O 	O 	0.92982 0.24934 0.14411 -0.14700
O 	O 	0.73132 0.19184 0.03929 -0.43200
O 	O 	0.66413 0.04823 0.97533 -0.38700
O 	O 	0.44351 0.09376 0.98439 -0.45900
O 	O 	0.72433 0.17246 0.10899 -0.38900
O 	O 	0.74587 0.24569 0.09009 -0.38700
O 	O 	0.63381 0.11218 0.00792 -0.41000
O 	O 	0.96324 0.31296 0.17453 -0.15800
O 	O 	0.70882 0.11070 0.98664 -0.42500
O 	O 	0.79627 0.18626 0.07798 -0.19800
O 	O 	0.65298 0.11490 0.93693 -0.16000
Mo	Mo	0.50038 0.12184 0.00087 1.06800
Mo	Mo	0.57329 0.09289 0.02065 1.07600
Mo	Mo	0.71980 0.17563 0.16905 1.08300
Mo	Mo	0.82296 0.30644 0.17684 1.08500
Mo	Mo	0.61624 0.00508 0.97422 1.08100
Mo	Mo	0.75728 0.27589 0.14242 1.08200
P 	P 	0.24848 0.69916 0.57936 0.52400
P 	P 	0.05139 0.57382 0.42500 0.51000
P 	P 	0.42355 0.78315 0.67422 0.50900
P 	P 	0.16536 0.59624 0.47768 0.54900
O 	O 	0.03975 0.52997 0.40783 -0.42000
O 	O 	0.09985 0.53261 0.52710 -0.47300
O 	O 	0.01048 0.59366 0.44078 -0.41900
O 	O 	0.42071 0.76698 0.71586 -0.36800
O 	O 	0.26906 0.78434 0.69785 -0.61000
O 	O 	0.23285 0.69191 0.72272 -0.62000
O 	O 	0.38544 0.81104 0.66453 -0.37400
O 	O 	0.25384 0.62568 0.66862 -0.47200
O 	O 	0.20411 0.74068 0.66073 -0.46200
O 	O 	0.05679 0.64342 0.49374 -0.46400
O 	O 	0.07272 0.60002 0.39452 -0.14600
O 	O 	0.31469 0.78309 0.62543 -0.46400
O 	O 	0.08049 0.56579 0.46027 -0.41200
O 	O 	0.01832 0.56410 0.51623 -0.61300
O 	O 	0.42982 0.74934 0.64411 -0.14900
O 	O 	0.23132 0.69184 0.53929 -0.42400
O 	O 	0.16413 0.54823 0.47533 -0.38900
O 	O 	0.94351 0.59376 0.48439 -0.46500
O 	O 	0.22433 0.67246 0.60899 -0.38700
O 	O 	0.24587 0.74569 0.59009 -0.38300
O 	O 	0.13381 0.61218 0.50792 -0.38800
O 	O 	0.46324 0.81296 0.67453 -0.16300
O 	O 	0.20882 0.61070 0.48664 -0.43400
O 	O 	0.29627 0.68626 0.57798 -0.19500
O 	O 	0.15298 0.61490 0.43693 -0.16000
Mo	Mo	0.00038 0.62184 0.50087 1.07800
Mo	Mo	0.07329 0.59289 0.52065 1.08400
Mo	Mo	0.21980 0.67563 0.66905 1.08300
Mo	Mo	0.32296 0.80644 0.67684 1.08600
Mo	Mo	0.11624 0.50508 0.47422 1.08500
Mo	Mo	0.25728 0.77589 0.64242 1.08400
P 	P 	0.94916 0.49848 0.82936 0.52300
P 	P 	0.82382 0.30139 0.67500 0.51000
P 	P 	0.03315 0.67355 0.92422 0.49700
P 	P 	0.84624 0.41536 0.72768 0.54800
O 	O 	0.77997 0.28975 0.65783 -0.41600
O 	O 	0.78261 0.34985 0.77710 -0.47200
O 	O 	0.84366 0.26048 0.69078 -0.41100
O 	O 	0.01698 0.67071 0.96586 -0.36900
O 	O 	0.03434 0.51906 0.94785 -0.61000
O 	O 	0.94191 0.48285 0.97272 -0.60500
O 	O 	0.06104 0.63544 0.91453 -0.37500
O 	O 	0.87568 0.50384 0.91862 -0.47000
O 	O 	0.99068 0.45411 0.91073 -0.45200
O 	O 	0.89342 0.30679 0.74374 -0.45900
O 	O 	0.85002 0.32272 0.64452 -0.14500
O 	O 	0.03309 0.56469 0.87543 -0.47200
O 	O 	0.81579 0.33049 0.71027 -0.41200
O 	O 	0.81410 0.26832 0.76623 -0.60700
O 	O 	0.99934 0.67982 0.89411 -0.13500
O 	O 	0.94184 0.48132 0.78929 -0.42100
O 	O 	0.79823 0.41413 0.72533 -0.38800
O 	O 	0.84376 0.19351 0.73439 -0.47100
O 	O 	0.92246 0.47433 0.85899 -0.38500
O 	O 	0.99569 0.49587 0.84009 -0.37600
O 	O 	0.86218 0.38381 0.75792 -0.38600
O 	O 	0.06296 0.71324 0.92453 -0.16300
O 	O 	0.86070 0.45882 0.73664 -0.43300
O 	O 	0.93626 0.54627 0.82798 -0.19300
O 	O 	0.86490 0.40298 0.68693 -0.16000
Mo	Mo	0.87184 0.25038 0.75087 1.08600
Mo	Mo	0.84289 0.32329 0.77065 1.08600
Mo	Mo	0.92563 0.46980 0.91905 1.08500
Mo	Mo	0.05644 0.57296 0.92684 1.08400
Mo	Mo	0.75508 0.36624 0.72422 1.08500
Mo	Mo	0.02589 0.50728 0.89242 1.07600
P 	P 	0.44916 0.99848 0.32936 0.54500
P 	P 	0.32382 0.80139 0.17500 0.51000
P 	P 	0.53315 0.17355 0.42422 0.50900
P 	P 	0.34624 0.91536 0.22768 0.54800
O 	O 	0.27997 0.78975 0.15783 -0.41600
O 	O 	0.28261 0.84985 0.27710 -0.47000
O 	O 	0.34366 0.76048 0.19078 -0.41100
O 	O 	0.51698 0.17071 0.46586 -0.36900
O 	O 	0.53434 0.01906 0.44785 -0.62300
O 	O 	0.44191 0.98285 0.47272 -0.59900
O 	O 	0.56104 0.13544 0.41453 -0.37700
O 	O 	0.37568 0.00384 0.41862 -0.48800
O 	O 	0.49068 0.95411 0.41073 -0.45100
O 	O 	0.39342 0.80679 0.24374 -0.46000
O 	O 	0.35002 0.82272 0.14452 -0.14500
O 	O 	0.53309 0.06469 0.37543 -0.47100
O 	O 	0.31579 0.83049 0.21027 -0.41200
O 	O 	0.31410 0.76832 0.26623 -0.60700
O 	O 	0.49934 0.17982 0.39411 -0.15000
O 	O 	0.44184 0.98132 0.28929 -0.41200
O 	O 	0.29823 0.91413 0.22533 -0.38400
O 	O 	0.34376 0.69351 0.23439 -0.47000
O 	O 	0.42246 0.97433 0.35899 -0.37700
O 	O 	0.49569 0.99587 0.34009 -0.36900
O 	O 	0.36218 0.88381 0.25792 -0.38600
O 	O 	0.56296 0.21324 0.42453 -0.16500
O 	O 	0.36070 0.95882 0.23664 -0.41900
O 	O 	0.43626 0.04627 0.32798 -0.21400
O 	O 	0.36490 0.90298 0.18693 -0.15800
Mo	Mo	0.37184 0.75038 0.25087 1.08500
Mo	Mo	0.34289 0.82329 0.27065 1.08500
Mo	Mo	0.42563 0.96980 0.41905 1.09600
Mo	Mo	0.55644 0.07296 0.42684 1.08300
Mo	Mo	0.25508 0.86624 0.22422 1.08600
Mo	Mo	0.52589 0.00728 0.39242 1.06900
P 	P 	0.55084 0.50152 0.32936 0.52400
P 	P 	0.67618 0.69861 0.17500 0.51000
P 	P 	0.46685 0.32645 0.42422 0.50900
P 	P 	0.65376 0.58464 0.22768 0.54800
O 	O 	0.72003 0.71025 0.15783 -0.41600
O 	O 	0.71739 0.65015 0.27710 -0.47200
O 	O 	0.65634 0.73952 0.19078 -0.41100
O 	O 	0.48302 0.32929 0.46586 -0.36900
O 	O 	0.46566 0.48094 0.44785 -0.61100
O 	O 	0.55809 0.51715 0.47272 -0.62000
O 	O 	0.43896 0.36456 0.41453 -0.37600
O 	O 	0.62432 0.49616 0.41862 -0.47200
O 	O 	0.50932 0.54589 0.41073 -0.46200
O 	O 	0.60658 0.69321 0.24374 -0.46100
O 	O 	0.64998 0.67728 0.14452 -0.14500
O 	O 	0.46691 0.43531 0.37543 -0.46500
O 	O 	0.68421 0.66951 0.21027 -0.41200
O 	O 	0.68590 0.73168 0.26623 -0.60700
O 	O 	0.50066 0.32018 0.39411 -0.14900
O 	O 	0.55816 0.51868 0.28929 -0.42400
O 	O 	0.70177 0.58587 0.22533 -0.38900
O 	O 	0.65624 0.80649 0.23439 -0.46900
O 	O 	0.57754 0.52567 0.35899 -0.38600
O 	O 	0.50431 0.50413 0.34009 -0.38300
O 	O 	0.63782 0.61619 0.25792 -0.38800
O 	O 	0.43704 0.28676 0.42453 -0.16400
O 	O 	0.63930 0.54118 0.23664 -0.43400
O 	O 	0.56374 0.45373 0.32798 -0.19500
O 	O 	0.63510 0.59702 0.18693 -0.16000
Mo	Mo	0.62816 0.74962 0.25087 1.08500
Mo	Mo	0.65711 0.67671 0.27065 1.08500
Mo	Mo	0.57437 0.53020 0.41905 1.08400
Mo	Mo	0.44356 0.42704 0.42684 1.08500
Mo	Mo	0.74492 0.63376 0.22422 1.08500
Mo	Mo	0.47411 0.49272 0.39242 1.08300
P 	P 	0.05084 0.00152 0.82936 0.50300
P 	P 	0.17618 0.19861 0.67500 0.51000
P 	P 	0.96685 0.82645 0.92422 0.51900
P 	P 	0.15376 0.08464 0.72768 0.54900
O 	O 	0.22003 0.21025 0.65783 -0.41600
O 	O 	0.21739 0.15015 0.77710 -0.47400
O 	O 	0.15634 0.23952 0.69078 -0.41100
O 	O 	0.98302 0.82929 0.96586 -0.35400
O 	O 	0.96566 0.98094 0.94785 -0.58300
O 	O 	0.05809 0.01715 0.97272 -0.62900
O 	O 	0.93896 0.86456 0.91453 -0.37100
O 	O 	0.12432 0.99616 0.91862 -0.45400
O 	O 	0.00932 0.04589 0.91073 -0.47900
O 	O 	0.10658 0.19321 0.74374 -0.46300
O 	O 	0.14998 0.17728 0.64452 -0.14500
O 	O 	0.96691 0.93531 0.87543 -0.45200
O 	O 	0.18421 0.16951 0.71027 -0.41200
O 	O 	0.18590 0.23168 0.76623 -0.60700
O 	O 	0.00066 0.82018 0.89411 -0.16200
O 	O 	0.05816 0.01868 0.78929 -0.43300
O 	O 	0.20177 0.08587 0.72533 -0.39300
O 	O 	0.15624 0.30649 0.73439 -0.47100
O 	O 	0.07754 0.02567 0.85899 -0.39500
O 	O 	0.00431 0.00413 0.84009 -0.40500
O 	O 	0.13782 0.11619 0.75792 -0.39000
O 	O 	0.93704 0.78676 0.92453 -0.16000
O 	O 	0.13930 0.04118 0.73664 -0.44400
O 	O 	0.06374 0.95373 0.82798 -0.17800
O 	O 	0.13510 0.09702 0.68693 -0.16300
Mo	Mo	0.12816 0.24962 0.75087 1.08400
Mo	Mo	0.15711 0.17671 0.77065 1.08500
Mo	Mo	0.07437 0.03020 0.91905 1.07200
Mo	Mo	0.94356 0.92704 0.92684 1.09000
Mo	Mo	0.24492 0.13376 0.72422 1.08300
Mo	Mo	0.97411 0.99272 0.89242 1.10400
P 	P 	0.25152 0.19916 0.57936 0.52400
P 	P 	0.44861 0.07382 0.42500 0.51100
P 	P 	0.07645 0.28315 0.67422 0.50900
P 	P 	0.33464 0.09624 0.47768 0.54900
O 	O 	0.46025 0.02997 0.40783 -0.43000
O 	O 	0.40015 0.03261 0.52710 -0.48400
O 	O 	0.48952 0.09366 0.44078 -0.41100
O 	O 	0.07929 0.26698 0.71586 -0.37100
O 	O 	0.23094 0.28434 0.69785 -0.61100
O 	O 	0.26715 0.19191 0.72272 -0.62000
O 	O 	0.11456 0.31104 0.66453 -0.37600
O 	O 	0.24616 0.12568 0.66862 -0.47400
O 	O 	0.29589 0.24068 0.66073 -0.46200
O 	O 	0.44321 0.14342 0.49374 -0.46100
O 	O 	0.42728 0.10002 0.39452 -0.14600
O 	O 	0.18531 0.28309 0.62543 -0.46500
O 	O 	0.41951 0.06579 0.46027 -0.41400
O 	O 	0.48168 0.06410 0.51623 -0.61200
O 	O 	0.07018 0.24934 0.64411 -0.15200
O 	O 	0.26868 0.19184 0.53929 -0.42400
O 	O 	0.33587 0.04823 0.47533 -0.39300
O 	O 	0.55649 0.09376 0.48439 -0.47300
O 	O 	0.27567 0.17246 0.60899 -0.38800
O 	O 	0.25413 0.24569 0.59009 -0.38400
O 	O 	0.36619 0.11218 0.50792 -0.38900
O 	O 	0.03676 0.31296 0.67453 -0.17100
O 	O 	0.29118 0.11070 0.48664 -0.43600
O 	O 	0.20373 0.18626 0.57798 -0.19500
O 	O 	0.34702 0.11490 0.43693 -0.16100
Mo	Mo	0.49962 0.12184 0.50087 1.08500
Mo	Mo	0.42671 0.09289 0.52065 1.08400
Mo	Mo	0.28020 0.17563 0.66905 1.08300
Mo	Mo	0.17704 0.30644 0.67684 1.08500
Mo	Mo	0.38376 0.00508 0.47422 1.07400
Mo	Mo	0.24272 0.27589 0.64242 1.08300
P 	P 	0.75152 0.69916 0.07936 0.52400
P 	P 	0.94861 0.57382 0.92500 0.51000
P 	P 	0.57645 0.78315 0.17422 0.50900
P 	P 	0.83464 0.59624 0.97768 0.56500
O 	O 	0.96025 0.52997 0.90783 -0.41200
O 	O 	0.90015 0.53261 0.02710 -0.48300
O 	O 	0.98952 0.59366 0.94078 -0.39800
O 	O 	0.57929 0.76698 0.21586 -0.36800
O 	O 	0.73094 0.78434 0.19785 -0.61000
O 	O 	0.76715 0.69191 0.22272 -0.62000
O 	O 	0.61456 0.81104 0.16453 -0.37500
O 	O 	0.74616 0.62568 0.16862 -0.47200
O 	O 	0.79589 0.74068 0.16073 -0.46200
O 	O 	0.94321 0.64342 0.99374 -0.44100
O 	O 	0.92728 0.60002 0.89452 -0.14300
O 	O 	0.68531 0.78309 0.12543 -0.46500
O 	O 	0.91951 0.56579 0.96027 -0.40300
O 	O 	0.98168 0.56410 0.01623 -0.61000
O 	O 	0.57018 0.74934 0.14411 -0.15000
O 	O 	0.76868 0.69184 0.03929 -0.43100
O 	O 	0.83587 0.54823 0.97533 -0.38300
O 	O 	0.05649 0.59376 0.98439 -0.46200
O 	O 	0.77567 0.67246 0.10899 -0.38800
O 	O 	0.75413 0.74569 0.09009 -0.38500
O 	O 	0.86619 0.61218 0.00792 -0.40800
O 	O 	0.53676 0.81296 0.17453 -0.16300
O 	O 	0.79118 0.61070 0.98664 -0.42300
O 	O 	0.70373 0.68626 0.07798 -0.19700
O 	O 	0.84702 0.61490 0.93693 -0.15900
Mo	Mo	0.99962 0.62184 0.00087 1.07600
Mo	Mo	0.92671 0.59289 0.02065 1.07800
Mo	Mo	0.78020 0.67563 0.16905 1.08400
Mo	Mo	0.67704 0.80644 0.17684 1.08600
Mo	Mo	0.88376 0.50508 0.97422 1.09200
Mo	Mo	0.74272 0.77589 0.14242 1.08300
P 	P 	0.24848 0.80084 0.07936 0.52400
P 	P 	0.05139 0.92618 0.92500 0.50900
P 	P 	0.42355 0.71685 0.17422 0.50900
P 	P 	0.16536 0.90376 0.97768 0.56500
O 	O 	0.03975 0.97003 0.90783 -0.40600
O 	O 	0.09985 0.96739 0.02710 -0.47300
O 	O 	0.01048 0.90634 0.94078 -0.41400
O 	O 	0.42071 0.73302 0.21586 -0.36900
O 	O 	0.26906 0.71566 0.19785 -0.61100
O 	O 	0.23285 0.80809 0.22272 -0.62000
O 	O 	0.38544 0.68896 0.16453 -0.37600
O 	O 	0.25384 0.87432 0.16862 -0.47000
O 	O 	0.20411 0.75932 0.16073 -0.46400
O 	O 	0.05679 0.85658 0.99374 -0.44700
O 	O 	0.07272 0.89998 0.89452 -0.14500
O 	O 	0.31469 0.71691 0.12543 -0.46700
O 	O 	0.08049 0.93421 0.96027 -0.40000
O 	O 	0.01832 0.93590 0.01623 -0.61600
O 	O 	0.42982 0.75066 0.14411 -0.15000
O 	O 	0.23132 0.80816 0.03929 -0.43200
O 	O 	0.16413 0.95177 0.97533 -0.37800
O 	O 	0.94351 0.90624 0.98439 -0.44800
O 	O 	0.22433 0.82754 0.10899 -0.38700
O 	O 	0.24587 0.75431 0.09009 -0.38700
O 	O 	0.13381 0.88782 0.00792 -0.40900
O 	O 	0.46324 0.68704 0.17453 -0.16500
O 	O 	0.20882 0.88930 0.98664 -0.42100
O 	O 	0.29627 0.81374 0.07798 -0.19700
O 	O 	0.15298 0.88510 0.93693 -0.15900
Mo	Mo	0.00038 0.87816 0.00087 1.06200
Mo	Mo	0.07329 0.90711 0.02065 1.07700
Mo	Mo	0.21980 0.82437 0.16905 1.08400
Mo	Mo	0.32296 0.69356 0.17684 1.08500
Mo	Mo	0.11624 0.99492 0.97422 1.10200
Mo	Mo	0.25728 0.72411 0.14242 1.08200
P 	P 	0.74848 0.30084 0.57936 0.52400
P 	P 	0.55139 0.42618 0.42500 0.51000
P 	P 	0.92355 0.21685 0.67422 0.50900
P 	P 	0.66536 0.40376 0.47768 0.54800
O 	O 	0.53975 0.47003 0.40783 -0.41600
O 	O 	0.59985 0.46739 0.52710 -0.47200
O 	O 	0.51048 0.40634 0.44078 -0.41100
O 	O 	0.92071 0.23302 0.71586 -0.36600
O 	O 	0.76906 0.21566 0.69785 -0.61100
O 	O 	0.73285 0.30809 0.72272 -0.62000
O 	O 	0.88544 0.18896 0.66453 -0.37700
O 	O 	0.75384 0.37432 0.66862 -0.47200
O 	O 	0.70411 0.25932 0.66073 -0.46300
O 	O 	0.55679 0.35658 0.49374 -0.46100
O 	O 	0.57272 0.39998 0.39452 -0.14500
O 	O 	0.81469 0.21691 0.62543 -0.46600
O 	O 	0.58049 0.43421 0.46027 -0.41200
O 	O 	0.51832 0.43590 0.51623 -0.60700
O 	O 	0.92982 0.25066 0.64411 -0.14700
O 	O 	0.73132 0.30816 0.53929 -0.42400
O 	O 	0.66413 0.45177 0.47533 -0.38800
O 	O 	0.44351 0.40624 0.48439 -0.47000
O 	O 	0.72433 0.32754 0.60899 -0.38700
O 	O 	0.74587 0.25431 0.59009 -0.38500
O 	O 	0.63381 0.38782 0.50792 -0.38800
O 	O 	0.96324 0.18704 0.67453 -0.15900
O 	O 	0.70882 0.38930 0.48664 -0.43400
O 	O 	0.79627 0.31374 0.57798 -0.19500
O 	O 	0.65298 0.38510 0.43693 -0.16000
Mo	Mo	0.50038 0.37816 0.50087 1.08500
Mo	Mo	0.57329 0.40711 0.52065 1.08500
Mo	Mo	0.71980 0.32437 0.66905 1.08400
Mo	Mo	0.82296 0.19356 0.67684 1.08400
Mo	Mo	0.61624 0.49492 0.47422 1.08500
Mo	Mo	0.75728 0.22411 0.64242 1.08200
P 	P 	0.55084 0.49848 0.17064 0.52400
P 	P 	0.67618 0.30139 0.32500 0.51000
P 	P 	0.46685 0.67355 0.07578 0.50900
P 	P 	0.65376 0.41536 0.27232 0.54900
O 	O 	0.72003 0.28975 0.34217 -0.41600
O 	O 	0.71739 0.34985 0.22290 -0.47300
O 	O 	0.65634 0.26048 0.30922 -0.41100
O 	O 	0.48302 0.67071 0.03414 -0.37700
O 	O 	0.46566 0.51906 0.05215 -0.61500
O 	O 	0.55809 0.48285 0.02728 -0.62900
O 	O 	0.43896 0.63544 0.08547 -0.37700
O 	O 	0.62432 0.50384 0.08138 -0.47300
O 	O 	0.50932 0.45411 0.08927 -0.46400
O 	O 	0.60658 0.30679 0.25626 -0.46100
O 	O 	0.64998 0.32272 0.35548 -0.14500
O 	O 	0.46691 0.56469 0.12457 -0.46500
O 	O 	0.68421 0.33049 0.28973 -0.41200
O 	O 	0.68590 0.26832 0.23377 -0.60800
O 	O 	0.50066 0.67982 0.10589 -0.15000
O 	O 	0.55816 0.48132 0.21071 -0.42400
O 	O 	0.70177 0.41413 0.27467 -0.38800
O 	O 	0.65624 0.19351 0.26561 -0.47200
O 	O 	0.57754 0.47433 0.14101 -0.38700
O 	O 	0.50431 0.49587 0.15991 -0.38400
O 	O 	0.63782 0.38381 0.24208 -0.38800
O 	O 	0.43704 0.71324 0.07547 -0.16700
O 	O 	0.63930 0.45882 0.26336 -0.43400
O 	O 	0.56374 0.54627 0.17202 -0.19500
O 	O 	0.63510 0.40298 0.31307 -0.16000
Mo	Mo	0.62816 0.25038 0.24913 1.08400
Mo	Mo	0.65711 0.32329 0.22935 1.08400
Mo	Mo	0.57437 0.46980 0.08095 1.08200
Mo	Mo	0.44356 0.57296 0.07316 1.08400
Mo	Mo	0.74492 0.36624 0.27578 1.08500
Mo	Mo	0.47411 0.50728 0.10758 1.08300
P 	P 	0.05084 0.99848 0.67064 0.54500
P 	P 	0.17618 0.80139 0.82500 0.51000
P 	P 	0.96685 0.17355 0.57578 0.52000
P 	P 	0.15376 0.91536 0.77232 0.54800
O 	O 	0.22003 0.78975 0.84217 -0.41600
O 	O 	0.21739 0.84985 0.72290 -0.47000
O 	O 	0.15634 0.76048 0.80922 -0.41100
O 	O 	0.98302 0.17071 0.53414 -0.36200
O 	O 	0.96566 0.01906 0.55215 -0.61600
O 	O 	0.05809 0.98285 0.52728 -0.60100
O 	O 	0.93896 0.13544 0.58547 -0.37600
O 	O 	0.12432 0.00384 0.58138 -0.48800
O 	O 	0.00932 0.95411 0.58927 -0.45900
O 	O 	0.10658 0.80679 0.75626 -0.46200
O 	O 	0.14998 0.82272 0.85548 -0.14500
O 	O 	0.96691 0.06469 0.62457 -0.46400
O 	O 	0.18421 0.83049 0.78973 -0.41200
O 	O 	0.18590 0.76832 0.73377 -0.60800
O 	O 	0.00066 0.17982 0.60589 -0.16400
O 	O 	0.05816 0.98132 0.71071 -0.41400
O 	O 	0.20177 0.91413 0.77467 -0.38300
O 	O 	0.15624 0.69351 0.76561 -0.47100
O 	O 	0.07754 0.97433 0.64101 -0.37800
O 	O 	0.00431 0.99587 0.65991 -0.37600
O 	O 	0.13782 0.88381 0.74208 -0.38600
O 	O 	0.93704 0.21324 0.57547 -0.16400
O 	O 	0.13930 0.95882 0.76336 -0.41900
O 	O 	0.06374 0.04627 0.67202 -0.21600
O 	O 	0.13510 0.90298 0.81307 -0.15800
Mo	Mo	0.12816 0.75038 0.74913 1.08400
Mo	Mo	0.15711 0.82329 0.72935 1.08500
Mo	Mo	0.07437 0.96980 0.58095 1.09500
Mo	Mo	0.94356 0.07296 0.57316 1.08500
Mo	Mo	0.24492 0.86624 0.77578 1.08600
Mo	Mo	0.97411 0.00728 0.60758 1.07600
P 	P 	0.94916 0.50152 0.67064 0.52300
P 	P 	0.82382 0.69861 0.82500 0.51000
P 	P 	0.03315 0.32645 0.57578 0.49700
P 	P 	0.84624 0.58464 0.77232 0.54800
O 	O 	0.77997 0.71025 0.84217 -0.41600
O 	O 	0.78261 0.65015 0.72290 -0.47200
O 	O 	0.84366 0.73952 0.80922 -0.41100
O 	O 	0.01698 0.32929 0.53414 -0.37700
O 	O 	0.03434 0.48094 0.55215 -0.61600
O 	O 	0.94191 0.51715 0.52728 -0.61600
O 	O 	0.06104 0.36456 0.58547 -0.37700
O 	O 	0.87568 0.49616 0.58138 -0.47200
O 	O 	0.99068 0.54589 0.58927 -0.45400
O 	O 	0.89342 0.69321 0.75626 -0.45900
O 	O 	0.85002 0.67728 0.85548 -0.14400
O 	O 	0.03309 0.43531 0.62457 -0.47200
O 	O 	0.81579 0.66951 0.78973 -0.41200
O 	O 	0.81410 0.73168 0.73377 -0.60700
O 	O 	0.99934 0.32018 0.60589 -0.13500
O 	O 	0.94184 0.51868 0.71071 -0.42200
O 	O 	0.79823 0.58587 0.77467 -0.38800
O 	O 	0.84376 0.80649 0.76561 -0.46800
O 	O 	0.92246 0.52567 0.64101 -0.38600
O 	O 	0.99569 0.50413 0.65991 -0.37600
O 	O 	0.86218 0.61619 0.74208 -0.38700
O 	O 	0.06296 0.28676 0.57547 -0.16600
O 	O 	0.86070 0.54118 0.76336 -0.43300
O 	O 	0.93626 0.45373 0.67202 -0.19300
O 	O 	0.86490 0.59702 0.81307 -0.16000
Mo	Mo	0.87184 0.74962 0.74913 1.08600
Mo	Mo	0.84289 0.67671 0.72935 1.08500
Mo	Mo	0.92563 0.53020 0.58095 1.08400
Mo	Mo	0.05644 0.42704 0.57316 1.08300
Mo	Mo	0.75508 0.63376 0.77578 1.08500
Mo	Mo	0.02589 0.49272 0.60758 1.07600
P 	P 	0.44916 0.00152 0.17064 0.50300
P 	P 	0.32382 0.19861 0.32500 0.51000
P 	P 	0.53315 0.82645 0.07578 0.50900
P 	P 	0.34624 0.08464 0.27232 0.54900
O 	O 	0.27997 0.21025 0.34217 -0.41600
O 	O 	0.28261 0.15015 0.22290 -0.47600
O 	O 	0.34366 0.23952 0.30922 -0.41100
O 	O 	0.51698 0.82929 0.03414 -0.37600
O 	O 	0.53434 0.98094 0.05215 -0.60000
O 	O 	0.44191 0.01715 0.02728 -0.64700
O 	O 	0.56104 0.86456 0.08547 -0.37500
O 	O 	0.37568 0.99616 0.08138 -0.45700
O 	O 	0.49068 0.04589 0.08927 -0.47500
O 	O 	0.39342 0.19321 0.25626 -0.46200
O 	O 	0.35002 0.17728 0.35548 -0.14500
O 	O 	0.53309 0.93531 0.12457 -0.45900
O 	O 	0.31579 0.16951 0.28973 -0.41100
O 	O 	0.31410 0.23168 0.23377 -0.60800
O 	O 	0.49934 0.82018 0.10589 -0.15000
O 	O 	0.44184 0.01868 0.21071 -0.43200
O 	O 	0.29823 0.08587 0.27467 -0.39400
O 	O 	0.34376 0.30649 0.26561 -0.47100
O 	O 	0.42246 0.02567 0.14101 -0.39600
O 	O 	0.49569 0.00413 0.15991 -0.39800
O 	O 	0.36218 0.11619 0.24208 -0.39000
O 	O 	0.56296 0.78676 0.07547 -0.16700
O 	O 	0.36070 0.04118 0.26336 -0.44400
O 	O 	0.43626 0.95373 0.17202 -0.17500
O 	O 	0.36490 0.09702 0.31307 -0.16200
Mo	Mo	0.37184 0.24962 0.24913 1.08400
Mo	Mo	0.34289 0.17671 0.22935 1.08400
Mo	Mo	0.42563 0.03020 0.08095 1.07000
Mo	Mo	0.55644 0.92704 0.07316 1.08600
Mo	Mo	0.25508 0.13376 0.27578 1.08300
Mo	Mo	0.52589 0.99272 0.10758 1.09700
P 	P 	0.24848 0.19916 0.42064 0.52400
P 	P 	0.05139 0.07382 0.57500 0.51100
P 	P 	0.42355 0.28315 0.32578 0.50900
P 	P 	0.16536 0.09624 0.52232 0.54900
O 	O 	0.03975 0.02997 0.59217 -0.43400
O 	O 	0.09985 0.03261 0.47290 -0.48400
O 	O 	0.01048 0.09366 0.55922 -0.41900
O 	O 	0.42071 0.26698 0.28414 -0.36900
O 	O 	0.26906 0.28434 0.30215 -0.61100
O 	O 	0.23285 0.19191 0.27728 -0.62100
O 	O 	0.38544 0.31104 0.33547 -0.37600
O 	O 	0.25384 0.12568 0.33138 -0.47500
O 	O 	0.20411 0.24068 0.33927 -0.46300
O 	O 	0.05679 0.14342 0.50626 -0.46400
O 	O 	0.07272 0.10002 0.60548 -0.14700
O 	O 	0.31469 0.28309 0.37457 -0.46500
O 	O 	0.08049 0.06579 0.53973 -0.41400
O 	O 	0.01832 0.06410 0.48377 -0.61800
O 	O 	0.42982 0.24934 0.35589 -0.14900
O 	O 	0.23132 0.19184 0.46071 -0.42400
O 	O 	0.16413 0.04823 0.52467 -0.39300
O 	O 	0.94351 0.09376 0.51561 -0.46800
O 	O 	0.22433 0.17246 0.39101 -0.38800
O 	O 	0.24587 0.24569 0.40991 -0.38400
O 	O 	0.13381 0.11218 0.49208 -0.38900
O 	O 	0.46324 0.31296 0.32547 -0.16500
O 	O 	0.20882 0.11070 0.51336 -0.43600
O 	O 	0.29627 0.18626 0.42202 -0.19500
O 	O 	0.15298 0.11490 0.56307 -0.16100
Mo	Mo	0.00038 0.12184 0.49913 1.07800
Mo	Mo	0.07329 0.09289 0.47935 1.08300
Mo	Mo	0.21980 0.17563 0.33095 1.08300
Mo	Mo	0.32296 0.30644 0.32316 1.08500
Mo	Mo	0.11624 0.00508 0.52578 1.07400
Mo	Mo	0.25728 0.27589 0.35758 1.08300
P 	P 	0.74848 0.69916 0.92064 0.52300
P 	P 	0.55139 0.57382 0.07500 0.51100
P 	P 	0.92355 0.78315 0.82578 0.50900
P 	P 	0.66536 0.59624 0.02232 0.53200
O 	O 	0.53975 0.52997 0.09217 -0.41600
O 	O 	0.59985 0.53261 0.97290 -0.46000
O 	O 	0.51048 0.59366 0.05922 -0.41500
O 	O 	0.92071 0.76698 0.78414 -0.36600
O 	O 	0.76906 0.78434 0.80215 -0.61000
O 	O 	0.73285 0.69191 0.77728 -0.62000
O 	O 	0.88544 0.81104 0.83547 -0.37300
O 	O 	0.75384 0.62568 0.83138 -0.47100
O 	O 	0.70411 0.74068 0.83927 -0.46000
O 	O 	0.55679 0.64342 0.00626 -0.47800
O 	O 	0.57272 0.60002 0.10548 -0.14500
O 	O 	0.81469 0.78309 0.87457 -0.46200
O 	O 	0.58049 0.56579 0.03973 -0.42000
O 	O 	0.51832 0.56410 0.98377 -0.59500
O 	O 	0.92982 0.74934 0.85589 -0.14600
O 	O 	0.73132 0.69184 0.96071 -0.41200
O 	O 	0.66413 0.54823 0.02467 -0.39400
O 	O 	0.44351 0.59376 0.01561 -0.48400
O 	O 	0.72433 0.67246 0.89101 -0.38400
O 	O 	0.74587 0.74569 0.90991 -0.37900
O 	O 	0.63381 0.61218 0.99208 -0.36600
O 	O 	0.96324 0.81296 0.82547 -0.15700
O 	O 	0.70882 0.61070 0.01336 -0.44100
O 	O 	0.79627 0.68626 0.92202 -0.19100
O 	O 	0.65298 0.61490 0.06307 -0.16000
Mo	Mo	0.50038 0.62184 0.99913 1.10200
Mo	Mo	0.57329 0.59289 0.97935 1.09300
Mo	Mo	0.71980 0.67563 0.83095 1.08400
Mo	Mo	0.82296 0.80644 0.82316 1.08700
Mo	Mo	0.61624 0.50508 0.02578 1.07800
Mo	Mo	0.75728 0.77589 0.85758 1.08500
P 	P 	0.25152 0.80084 0.92064 0.52300
P 	P 	0.44861 0.92618 0.07500 0.51000
P 	P 	0.07645 0.71685 0.82578 0.50900
P 	P 	0.33464 0.90376 0.02232 0.53200
O 	O 	0.46025 0.97003 0.09217 -0.40200
O 	O 	0.40015 0.96739 0.97290 -0.44900
O 	O 	0.48952 0.90634 0.05922 -0.41500
O 	O 	0.07929 0.73302 0.78414 -0.37200
O 	O 	0.23094 0.71566 0.80215 -0.61100
O 	O 	0.26715 0.80809 0.77728 -0.61900
O 	O 	0.11456 0.68896 0.83547 -0.37600
O 	O 	0.24616 0.87432 0.83138 -0.46800
O 	O 	0.29589 0.75932 0.83927 -0.46100
O 	O 	0.44321 0.85658 0.00626 -0.47800
O 	O 	0.42728 0.89998 0.10548 -0.14400
O 	O 	0.18531 0.71691 0.87457 -0.46300
O 	O 	0.41951 0.93421 0.03973 -0.41700
O 	O 	0.48168 0.93590 0.98377 -0.58800
O 	O 	0.07018 0.75066 0.85589 -0.15200
O 	O 	0.26868 0.80816 0.96071 -0.41200
O 	O 	0.33587 0.95177 0.02467 -0.39000
O 	O 	0.55649 0.90624 0.01561 -0.48000
O 	O 	0.27567 0.82754 0.89101 -0.38300
O 	O 	0.25413 0.75431 0.90991 -0.38000
O 	O 	0.36619 0.88782 0.99208 -0.36500
O 	O 	0.03676 0.68704 0.82547 -0.17100
O 	O 	0.29118 0.88930 0.01336 -0.43900
O 	O 	0.20373 0.81374 0.92202 -0.19200
O 	O 	0.34702 0.88510 0.06307 -0.16000
Mo	Mo	0.49962 0.87816 0.99913 1.10200
Mo	Mo	0.42671 0.90711 0.97935 1.09400
Mo	Mo	0.28020 0.82437 0.83095 1.08500
Mo	Mo	0.17704 0.69356 0.82316 1.08500
Mo	Mo	0.38376 0.99492 0.02578 1.08900
Mo	Mo	0.24272 0.72411 0.85758 1.08400
P 	P 	0.75152 0.30084 0.42064 0.52400
P 	P 	0.94861 0.42618 0.57500 0.51000
P 	P 	0.57645 0.21685 0.32578 0.50900
P 	P 	0.83464 0.40376 0.52232 0.54800
O 	O 	0.96025 0.47003 0.59217 -0.41200
O 	O 	0.90015 0.46739 0.47290 -0.47100
O 	O 	0.98952 0.40634 0.55922 -0.40200
O 	O 	0.57929 0.23302 0.28414 -0.37000
O 	O 	0.73094 0.21566 0.30215 -0.61100
O 	O 	0.76715 0.30809 0.27728 -0.62000
O 	O 	0.61456 0.18896 0.33547 -0.37700
O 	O 	0.74616 0.37432 0.33138 -0.47100
O 	O 	0.79589 0.25932 0.33927 -0.46200
O 	O 	0.94321 0.35658 0.50626 -0.45800
O 	O 	0.92728 0.39998 0.60548 -0.14300
O 	O 	0.68531 0.21691 0.37457 -0.46600
O 	O 	0.91951 0.43421 0.53973 -0.41200
O 	O 	0.98168 0.43590 0.48377 -0.60000
O 	O 	0.57018 0.25066 0.35589 -0.14900
O 	O 	0.76868 0.30816 0.46071 -0.42400
O 	O 	0.83587 0.45177 0.52467 -0.38800
O 	O 	0.05649 0.40624 0.51561 -0.47600
O 	O 	0.77567 0.32754 0.39101 -0.38600
O 	O 	0.75413 0.25431 0.40991 -0.38400
O 	O 	0.86619 0.38782 0.49208 -0.38700
O 	O 	0.53676 0.18704 0.32547 -0.16600
O 	O 	0.79118 0.38930 0.51336 -0.43400
O 	O 	0.70373 0.31374 0.42202 -0.19500
O 	O 	0.84702 0.38510 0.56307 -0.16000
Mo	Mo	0.99962 0.37816 0.49913 1.09200
Mo	Mo	0.92671 0.40711 0.47935 1.08600
Mo	Mo	0.78020 0.32437 0.33095 1.08400
Mo	Mo	0.67704 0.19356 0.32316 1.08400
Mo	Mo	0.88376 0.49492 0.52578 1.08500
Mo	Mo	0.74272 0.22411 0.35758 1.08200
Zn	Zn	0.09790 0.50000 0.25000 1.24700
Zn	Zn	0.59790 0.00000 0.75000 1.23700
Zn	Zn	0.40210 0.50000 0.75000 1.24700
Zn	Zn	0.90210 0.00000 0.25000 1.23700
Zn	Zn	0.75000 0.84790 0.50000 1.24700
Zn	Zn	0.25000 0.34790 -0.00000 1.23900
Zn	Zn	0.75000 0.15210 -0.00000 1.23900
Zn	Zn	0.25000 0.65210 0.50000 1.24700
Zn	Zn	0.90210 0.50000 0.75000 1.24700
Zn	Zn	0.40210 0.00000 0.25000 1.23700
Zn	Zn	0.59790 0.50000 0.25000 1.24700
Zn	Zn	0.09790 0.00000 0.75000 1.23700
Zn	Zn	0.25000 0.15210 0.50000 1.24700
Zn	Zn	0.75000 0.65210 -0.00000 1.23900
Zn	Zn	0.25000 0.84790 -0.00000 1.24000
Zn	Zn	0.75000 0.34790 0.50000 1.24700
Zn	Zn	0.25000 0.75000 0.25000 1.23900
Zn	Zn	0.25000 0.25000 0.75000 1.23900
Zn	Zn	0.50000 0.00000 0.50000 1.22900
Zn	Zn	-0.00000 0.50000 -0.00000 1.22600
Zn	Zn	-0.00000 0.00000 -0.00000 1.21700
Zn	Zn	0.50000 0.50000 0.50000 1.23900
Zn	Zn	0.25000 0.75000 0.75000 1.23900
Zn	Zn	0.25000 0.25000 0.25000 1.23900
Zn	Zn	0.00000 0.00000 0.50000 1.22400
Zn	Zn	0.50000 0.50000 -0.00000 1.23100
Zn	Zn	0.50000 0.00000 -0.00000 1.22200
Zn	Zn	-0.00000 0.50000 0.50000 1.23400
Zn	Zn	0.75000 0.25000 0.75000 1.23900
Zn	Zn	0.75000 0.75000 0.25000 1.23900
Zn	Zn	0.75000 0.25000 0.25000 1.23900
Zn	Zn	0.75000 0.75000 0.75000 1.23900
