data_crystal

_cell_length_a 18.96770
_cell_length_b 19.91860
_cell_length_c 31.73900
_cell_angle_alpha 90.00000
_cell_angle_beta  95.28700
_cell_angle_gamma 90.00000

_symmetry_space_group_name_	'P 1'
_symmetry_space_group_name_H-M	'P 1'

loop_
_symmetry_equiv_pos_as_xyz
  x,y,z

loop_
_atom_site_label
_atom_site_type_symbol
_atom_site_fract_x
_atom_site_fract_y
_atom_site_fract_z
_atom_site_charge
Zn	Zn	0.35819 0.85897 0.40850 1.23300
Zn	Zn	0.14390 0.08890 0.17478 1.16600
O 	O 	0.42580 0.82240 0.33230 -0.31600
O 	O 	0.46250 0.84130 0.39570 -0.45200
O 	O 	0.56070 0.81480 0.31370 -0.31600
O 	O 	0.23840 0.27130 0.03720 -0.26300
O 	O 	0.16720 0.26000 0.08960 -0.42600
O 	O 	0.29220 0.14910 0.05081 -0.36800
O 	O 	0.88280 0.39920 0.96490 -0.43300
O 	O 	0.77800 0.44520 0.96850 -0.28800
O 	O 	0.81920 0.47840 0.05440 -0.35600
O 	O 	0.14840 0.09440 0.23540 -0.46600
O 	O 	0.11300 0.19960 0.24260 -0.27000
O 	O 	0.07600 0.18300 0.32420 -0.32500
O 	O 	0.30980 0.91880 0.36920 -0.44600
O 	O 	0.20870 0.86320 0.37880 -0.27500
O 	O 	0.12520 0.95780 0.33300 -0.29800
O 	O 	0.22800 0.47390 0.31380 -0.19300
O 	O 	0.28450 0.55400 0.34610 -0.48600
O 	O 	0.09520 0.52540 0.31860 -0.37100
C 	C 	0.46960 0.82630 0.36020 0.34800
C 	C 	0.54400 0.79870 0.35540 0.11500
H 	H 	0.57860 0.81920 0.37640 0.00300
C 	C 	0.54840 0.72060 0.35840 -0.48200
H 	H 	0.59610 0.70640 0.35570 0.16000
H 	H 	0.51730 0.70100 0.33620 0.15400
H 	H 	0.53440 0.70630 0.38530 0.13700
C 	C 	0.59040 0.87400 0.30670 0.48700
C 	C 	0.58230 0.93210 0.33100 -0.56200
H 	H 	0.55680 0.93060 0.35460 0.22500
C 	C 	0.61230 0.99050 0.31950 0.50500
C 	C 	0.64850 0.99300 0.28300 -0.43200
C 	C 	0.65510 0.93630 0.25730 0.55200
C 	C 	0.62310 0.88040 0.26850 -0.58900
H 	H 	0.62220 0.84370 0.25040 0.22700
C 	C 	0.61160 0.05370 0.34670 -0.96000
H 	H 	0.65880 0.06340 0.35860 0.30300
H 	H 	0.58160 0.04660 0.36910 0.30600
H 	H 	0.59390 0.09080 0.32950 0.29900
C 	C 	0.69350 0.93640 0.21820 -1.03000
H 	H 	0.69010 0.89270 0.20540 0.29400
H 	H 	0.74240 0.94730 0.22550 0.29900
H 	H 	0.67260 0.96910 0.19860 0.30700
C 	C 	0.13100 0.14930 0.25990 0.20500
C 	C 	0.12780 0.14040 0.30530 0.19100
H 	H 	0.11900 0.09310 0.31150 -0.01800
C 	C 	0.20010 0.16100 0.32560 -0.63500
H 	H 	0.23350 0.12560 0.32220 0.20800
H 	H 	0.19730 0.16930 0.35520 0.22000
H 	H 	0.21520 0.20110 0.31230 0.21800
C 	C 	0.00640 0.16260 0.31090 0.55200
C 	C 	0.99000 0.11030 0.28480 -0.58100
H 	H 	0.02650 0.08500 0.27520 0.22700
C 	C 	0.91950 0.09260 0.27180 0.45100
C 	C 	0.86780 0.13760 0.28740 -0.43800
C 	C 	0.88440 0.19210 0.31350 0.66700
C 	C 	0.95470 0.20250 0.32480 -0.69200
H 	H 	0.96800 0.23810 0.34280 0.26200
C 	C 	0.90120 0.03560 0.24010 -0.84200
H 	H 	0.85090 0.02900 0.23690 0.26100
H 	H 	0.92410 0.99500 0.25040 0.22900
H 	H 	0.91740 0.04720 0.21330 0.24600
C 	C 	0.82800 0.23350 0.32730 -1.25900
H 	H 	0.84590 0.26000 0.35120 0.36400
H 	H 	0.79030 0.20530 0.33510 0.37900
H 	H 	0.81040 0.26260 0.30460 0.37400
C 	C 	0.83770 0.43340 0.98270 0.26600
C 	C 	0.87100 0.46530 0.02420 0.13500
H 	H 	0.90980 0.43750 0.03710 -0.00200
C 	C 	0.78350 0.42400 0.07310 0.65000
C 	C 	0.79230 0.36300 0.05920 -0.64000
H 	H 	0.82230 0.35420 0.03830 0.26600
C 	C 	0.75240 0.30880 0.07800 0.52700
C 	C 	0.70900 0.32500 0.10990 -0.51300
C 	C 	0.70390 0.39090 0.12190 0.68000
C 	C 	0.74310 0.43610 0.10330 -0.79300
H 	H 	0.74130 0.48020 0.11280 0.28000
C 	C 	0.75890 0.23390 0.06380 -0.99500
H 	H 	0.75130 0.20480 0.08710 0.31200
H 	H 	0.80540 0.22630 0.05510 0.31600
H 	H 	0.72410 0.22480 0.04070 0.33300
C 	C 	0.66210 0.41050 0.15900 -1.15700
H 	H 	0.66880 0.45750 0.16500 0.34100
H 	H 	0.67860 0.38470 0.18350 0.35700
H 	H 	0.61270 0.40180 0.15180 0.35100
C 	C 	0.20960 0.23960 0.06330 0.22600
C 	C 	0.22990 0.16770 0.06900 0.20500
H 	H 	0.23450 0.15650 0.09920 -0.04900
C 	C 	0.17500 0.12170 0.04540 -0.58600
H 	H 	0.12880 0.13210 0.05370 0.16600
H 	H 	0.18630 0.07570 0.05220 0.18400
H 	H 	0.17550 0.12830 0.01550 0.19100
C 	C 	0.35830 0.16430 0.07140 0.62500
C 	C 	0.41350 0.13830 0.05710 -0.74400
H 	H 	0.40840 0.11140 0.03300 0.27200
C 	C 	0.47970 0.14970 0.07680 0.62400
C 	C 	0.48630 0.19460 0.11080 -0.46900
C 	C 	0.42670 0.22190 0.12590 0.52300
C 	C 	0.36080 0.20560 0.10630 -0.62900
H 	H 	0.31960 0.22210 0.11620 0.25900
C 	C 	0.54390 0.11750 0.05920 -1.12400
H 	H 	0.57600 0.10150 0.08220 0.35000
H 	H 	0.56740 0.15020 0.04330 0.35000
H 	H 	0.52870 0.08060 0.04120 0.34000
C 	C 	0.43430 0.27140 0.16590 -0.93600
H 	H 	0.40130 0.30780 0.16130 0.31900
H 	H 	0.48170 0.28900 0.16950 0.29700
H 	H 	0.42460 0.24720 0.19090 0.28600
C 	C 	0.68620 0.05960 0.26930 0.18200
C 	C 	0.75360 0.07310 0.28550 -0.29100
H 	H 	0.77440 0.04780 0.30790 0.10200
C 	C 	0.79050 0.12390 0.26880 0.17400
C 	C 	0.76270 0.16510 0.23540 -0.08200
C 	C 	0.80090 0.21340 0.21520 -0.05500
H 	H 	0.84810 0.22050 0.22490 0.04800
C 	C 	0.77270 0.24950 0.18300 -0.02900
H 	H 	0.79940 0.28290 0.17160 0.04200
C 	C 	0.70010 0.23740 0.16530 -0.12400
C 	C 	0.66930 0.27370 0.12870 0.25700
C 	C 	0.60070 0.25870 0.11450 -0.33300
H 	H 	0.57960 0.28350 0.09190 0.14300
C 	C 	0.55890 0.20730 0.13200 0.22300
C 	C 	0.58800 0.17370 0.16660 -0.12500
C 	C 	0.55180 0.12220 0.18560 -0.01600
H 	H 	0.50550 0.11280 0.17510 0.04200
C 	C 	0.58090 0.08560 0.21840 -0.06100
H 	H 	0.55440 0.05240 0.23020 0.05400
C 	C 	0.65360 0.09790 0.23550 -0.08100
C 	C 	0.69110 0.14670 0.21960 0.00900
C 	C 	0.65960 0.18880 0.18360 0.04300
C 	C 	0.24360 0.90690 0.36010 0.23700
C 	C 	0.20440 0.96010 0.32950 0.11600
H 	H 	0.22350 0.00530 0.33450 0.00600
C 	C 	0.21480 0.93500 0.28390 -0.56300
H 	H 	0.26330 0.94100 0.27850 0.20300
H 	H 	0.18470 0.96030 0.26370 0.19000
H 	H 	0.20260 0.88830 0.28150 0.19200
C 	C 	0.10750 0.99430 0.36760 0.37700
C 	C 	0.15510 0.01760 0.39930 -0.42700
H 	H 	0.20340 0.00950 0.39910 0.19800
C 	C 	0.12750 0.05490 0.43280 0.40300
C 	C 	0.05530 0.06730 0.43190 -0.34900
C 	C 	0.00820 0.04090 0.39810 0.49300
C 	C 	0.03460 0.00320 0.36840 -0.47000
H 	H 	0.00380 0.98240 0.34800 0.16900
C 	C 	0.02610 0.10680 0.46670 0.14100
C 	C 	0.93070 0.05610 0.39730 -1.01900
H 	H 	0.90820 0.04800 0.36940 0.31300
H 	H 	0.92440 0.10230 0.40470 0.32300
H 	H 	0.90980 0.02770 0.41720 0.32300
C 	C 	0.18230 0.08460 0.46820 -0.86900
H 	H 	0.15730 0.10750 0.48890 0.27900
H 	H 	0.21310 0.11560 0.45570 0.27200
H 	H 	0.20990 0.04880 0.48160 0.30400
C 	C 	0.02700 0.18000 0.46630 -0.05100
C 	C 	0.02400 0.32140 0.46500 -0.12000
C 	C 	0.04790 0.28000 0.43180 -0.00500
H 	H 	0.06370 0.30210 0.40870 0.03100
C 	C 	0.04940 0.21470 0.43120 -0.08300
H 	H 	0.06490 0.19170 0.40830 0.06300
C 	C 	0.02290 0.39140 0.46570 0.22900
C 	C 	0.04320 0.42620 0.42820 -0.39300
C 	C 	0.99690 0.43490 0.39230 0.48300
C 	C 	0.01490 0.46370 0.35460 -0.59600
H 	H 	0.98480 0.46030 0.32990 0.23900
C 	C 	0.07570 0.49570 0.35520 0.52600
C 	C 	0.12410 0.49400 0.39140 -0.54000
H 	H 	0.16770 0.51500 0.39060 0.23100
C 	C 	0.10930 0.46260 0.42780 0.42800
C 	C 	0.16140 0.45650 0.46960 -0.83900
H 	H 	0.20450 0.48010 0.46590 0.25900
H 	H 	0.17170 0.41000 0.47530 0.26000
H 	H 	0.13940 0.47560 0.49290 0.25200
C 	C 	0.92410 0.40220 0.39330 -0.92900
H 	H 	0.88950 0.42820 0.37640 0.26800
H 	H 	0.91170 0.40060 0.42190 0.28400
H 	H 	0.92540 0.35750 0.38210 0.27800
C 	C 	0.89770 0.53890 0.01580 -0.50600
H 	H 	0.90250 0.54440 0.98610 0.15900
H 	H 	0.94270 0.54610 0.03150 0.16000
H 	H 	0.86410 0.57080 0.02450 0.17100
C 	C 	0.15080 0.60520 0.27740 -0.81300
H 	H 	0.13380 0.57560 0.25490 0.27600
H 	H 	0.19790 0.61970 0.27320 0.24700
H 	H 	0.12020 0.64360 0.27770 0.25300
C 	C 	0.21700 0.54000 0.32150 0.06600
C 	C 	0.15170 0.56930 0.31860 0.34900
H 	H 	0.14940 0.60200 0.34150 -0.07400
Zn	Zn	0.85819 0.35897 0.90850 1.23200
Zn	Zn	0.64390 0.58890 0.67478 1.16300
O 	O 	0.92580 0.32240 0.83230 -0.31400
O 	O 	0.96250 0.34130 0.89570 -0.45100
O 	O 	0.06070 0.31480 0.81370 -0.31900
O 	O 	0.73840 0.77130 0.53720 -0.26500
O 	O 	0.66720 0.76000 0.58960 -0.42800
O 	O 	0.79220 0.64910 0.55081 -0.36700
O 	O 	0.38280 0.89920 0.46490 -0.43600
O 	O 	0.27800 0.94520 0.46850 -0.29600
O 	O 	0.31920 0.97840 0.55440 -0.35800
O 	O 	0.64840 0.59440 0.73540 -0.47100
O 	O 	0.61300 0.69960 0.74260 -0.27200
O 	O 	0.57600 0.68300 0.82420 -0.32500
O 	O 	0.80980 0.41880 0.86920 -0.43900
O 	O 	0.70870 0.36320 0.87880 -0.27100
O 	O 	0.62520 0.45780 0.83300 -0.32200
O 	O 	0.72800 0.97390 0.81380 -0.21100
O 	O 	0.78450 0.05400 0.84610 -0.48500
O 	O 	0.59520 0.02540 0.81860 -0.35500
C 	C 	0.96960 0.32630 0.86020 0.34400
C 	C 	0.04400 0.29870 0.85540 0.12200
H 	H 	0.07860 0.31920 0.87640 0.00200
C 	C 	0.04840 0.22060 0.85840 -0.49200
H 	H 	0.09610 0.20640 0.85570 0.16400
H 	H 	0.01730 0.20100 0.83620 0.15900
H 	H 	0.03440 0.20630 0.88530 0.14200
C 	C 	0.09040 0.37400 0.80670 0.49600
C 	C 	0.08230 0.43210 0.83100 -0.57800
H 	H 	0.05680 0.43060 0.85460 0.23400
C 	C 	0.11230 0.49050 0.81950 0.53300
C 	C 	0.14850 0.49300 0.78300 -0.42500
C 	C 	0.15510 0.43630 0.75730 0.56100
C 	C 	0.12310 0.38040 0.76850 -0.59700
H 	H 	0.12220 0.34370 0.75040 0.23000
C 	C 	0.11160 0.55370 0.84670 -1.00400
H 	H 	0.15880 0.56340 0.85860 0.31000
H 	H 	0.08160 0.54660 0.86910 0.31300
H 	H 	0.09390 0.59080 0.82950 0.30900
C 	C 	0.19350 0.43640 0.71820 -1.04500
H 	H 	0.19010 0.39270 0.70540 0.29900
H 	H 	0.24240 0.44730 0.72550 0.30700
H 	H 	0.17260 0.46910 0.69860 0.31600
C 	C 	0.63100 0.64930 0.75990 0.20500
C 	C 	0.62780 0.64040 0.80530 0.19000
H 	H 	0.61900 0.59310 0.81150 -0.02100
C 	C 	0.70010 0.66100 0.82560 -0.63100
H 	H 	0.73350 0.62560 0.82220 0.20500
H 	H 	0.69730 0.66930 0.85520 0.21800
H 	H 	0.71520 0.70110 0.81230 0.21600
C 	C 	0.50640 0.66260 0.81090 0.54900
C 	C 	0.49000 0.61030 0.78480 -0.58400
H 	H 	0.52650 0.58500 0.77520 0.22400
C 	C 	0.41950 0.59260 0.77180 0.46700
C 	C 	0.36780 0.63760 0.78740 -0.44400
C 	C 	0.38440 0.69210 0.81350 0.66700
C 	C 	0.45470 0.70250 0.82480 -0.69000
H 	H 	0.46800 0.73810 0.84280 0.26200
C 	C 	0.40120 0.53560 0.74010 -0.92100
H 	H 	0.35090 0.52900 0.73690 0.27900
H 	H 	0.42410 0.49500 0.75040 0.26500
H 	H 	0.41740 0.54720 0.71330 0.26600
C 	C 	0.32800 0.73350 0.82730 -1.25700
H 	H 	0.34590 0.76000 0.85120 0.36300
H 	H 	0.29030 0.70530 0.83510 0.37700
H 	H 	0.31040 0.76260 0.80460 0.37400
C 	C 	0.33770 0.93340 0.48270 0.27300
C 	C 	0.37100 0.96530 0.52420 0.11300
H 	H 	0.40980 0.93750 0.53710 0.00200
C 	C 	0.28350 0.92400 0.57310 0.64100
C 	C 	0.29230 0.86300 0.55920 -0.63400
H 	H 	0.32230 0.85420 0.53830 0.26300
C 	C 	0.25240 0.80880 0.57800 0.52000
C 	C 	0.20900 0.82500 0.60990 -0.50700
C 	C 	0.20390 0.89090 0.62190 0.66900
C 	C 	0.24310 0.93610 0.60330 -0.78400
H 	H 	0.24130 0.98020 0.61280 0.27200
C 	C 	0.25890 0.73390 0.56380 -0.98500
H 	H 	0.25130 0.70480 0.58710 0.30800
H 	H 	0.30540 0.72630 0.55510 0.31200
H 	H 	0.22410 0.72480 0.54070 0.32900
C 	C 	0.16210 0.91050 0.65900 -1.14100
H 	H 	0.16880 0.95750 0.66500 0.33200
H 	H 	0.17860 0.88470 0.68350 0.35200
H 	H 	0.11270 0.90180 0.65180 0.34600
C 	C 	0.70960 0.73960 0.56330 0.22800
C 	C 	0.72990 0.66770 0.56900 0.19800
H 	H 	0.73450 0.65650 0.59920 -0.04700
C 	C 	0.67500 0.62170 0.54540 -0.57100
H 	H 	0.62880 0.63210 0.55370 0.16000
H 	H 	0.68630 0.57570 0.55220 0.17500
H 	H 	0.67550 0.62830 0.51550 0.18400
C 	C 	0.85830 0.66430 0.57140 0.61700
C 	C 	0.91350 0.63830 0.55710 -0.73300
H 	H 	0.90840 0.61140 0.53300 0.26400
C 	C 	0.97970 0.64970 0.57680 0.60700
C 	C 	0.98630 0.69460 0.61080 -0.46400
C 	C 	0.92670 0.72190 0.62590 0.51700
C 	C 	0.86080 0.70560 0.60630 -0.62300
H 	H 	0.81960 0.72210 0.61620 0.25700
C 	C 	0.04390 0.61750 0.55920 -1.09500
H 	H 	0.07600 0.60150 0.58220 0.33800
H 	H 	0.06740 0.65020 0.54330 0.34100
H 	H 	0.02870 0.58060 0.54120 0.32700
C 	C 	0.93430 0.77140 0.66590 -0.92900
H 	H 	0.90130 0.80780 0.66130 0.31600
H 	H 	0.98170 0.78900 0.66950 0.29400
H 	H 	0.92460 0.74720 0.69090 0.28300
C 	C 	0.18620 0.55960 0.76930 0.16500
C 	C 	0.25360 0.57310 0.78550 -0.28500
H 	H 	0.27440 0.54780 0.80790 0.09300
C 	C 	0.29050 0.62390 0.76880 0.17000
C 	C 	0.26270 0.66510 0.73540 -0.08100
C 	C 	0.30090 0.71340 0.71520 -0.05600
H 	H 	0.34810 0.72050 0.72490 0.04900
C 	C 	0.27270 0.74950 0.68300 -0.02900
H 	H 	0.29940 0.78290 0.67160 0.04200
C 	C 	0.20010 0.73740 0.66530 -0.12300
C 	C 	0.16930 0.77370 0.62870 0.25400
C 	C 	0.10070 0.75870 0.61450 -0.33000
H 	H 	0.07960 0.78350 0.59190 0.14200
C 	C 	0.05890 0.70730 0.63200 0.22200
C 	C 	0.08800 0.67370 0.66660 -0.12500
C 	C 	0.05180 0.62220 0.68560 -0.01600
H 	H 	0.00550 0.61280 0.67510 0.04100
C 	C 	0.08090 0.58560 0.71840 -0.06600
H 	H 	0.05440 0.55240 0.73020 0.05000
C 	C 	0.15360 0.59790 0.73550 -0.07800
C 	C 	0.19110 0.64670 0.71960 0.00500
C 	C 	0.15960 0.68880 0.68360 0.04200
C 	C 	0.74360 0.40690 0.86010 0.22500
C 	C 	0.70440 0.46010 0.82950 0.16500
H 	H 	0.72350 0.50530 0.83450 -0.02300
C 	C 	0.71480 0.43500 0.78390 -0.61100
H 	H 	0.76330 0.44100 0.77850 0.22100
H 	H 	0.68470 0.46030 0.76370 0.21000
H 	H 	0.70260 0.38830 0.78150 0.20700
C 	C 	0.60750 0.49430 0.86760 0.47200
C 	C 	0.65510 0.51760 0.89930 -0.50300
H 	H 	0.70340 0.50950 0.89910 0.21700
C 	C 	0.62750 0.55490 0.93280 0.43800
C 	C 	0.55530 0.56730 0.93190 -0.38700
C 	C 	0.50820 0.54090 0.89810 0.55400
C 	C 	0.53460 0.50320 0.86840 -0.58900
H 	H 	0.50380 0.48240 0.84800 0.22100
C 	C 	0.52610 0.60680 0.96670 0.15600
C 	C 	0.43070 0.55610 0.89730 -1.07900
H 	H 	0.40820 0.54800 0.86940 0.32600
H 	H 	0.42440 0.60230 0.90470 0.33900
H 	H 	0.40980 0.52770 0.91720 0.33600
C 	C 	0.68230 0.58460 0.96820 -0.89500
H 	H 	0.65730 0.60750 0.98890 0.28400
H 	H 	0.71310 0.61560 0.95570 0.27800
H 	H 	0.70990 0.54880 0.98160 0.30600
C 	C 	0.52700 0.68000 0.96630 -0.06600
C 	C 	0.52400 0.82140 0.96500 -0.11700
C 	C 	0.54790 0.78000 0.93180 -0.01400
H 	H 	0.56370 0.80210 0.90870 0.03300
C 	C 	0.54940 0.71470 0.93120 -0.07400
H 	H 	0.56490 0.69170 0.90830 0.06000
C 	C 	0.52290 0.89140 0.96570 0.22300
C 	C 	0.54320 0.92620 0.92820 -0.39900
C 	C 	0.49690 0.93490 0.89230 0.48900
C 	C 	0.51490 0.96370 0.85460 -0.60500
H 	H 	0.48480 0.96030 0.82990 0.23900
C 	C 	0.57570 0.99570 0.85520 0.52000
C 	C 	0.62410 0.99400 0.89140 -0.57600
H 	H 	0.66770 0.01500 0.89060 0.25500
C 	C 	0.60930 0.96260 0.92780 0.43500
C 	C 	0.66140 0.95650 0.96960 -0.83700
H 	H 	0.70450 0.98010 0.96590 0.25200
H 	H 	0.67170 0.91000 0.97530 0.25800
H 	H 	0.63940 0.97560 0.99290 0.24600
C 	C 	0.42410 0.90220 0.89330 -0.93100
H 	H 	0.38950 0.92820 0.87640 0.26600
H 	H 	0.41170 0.90060 0.92190 0.28300
H 	H 	0.42540 0.85750 0.88210 0.27800
C 	C 	0.39770 0.03890 0.51580 -0.48100
H 	H 	0.40250 0.04440 0.48610 0.16000
H 	H 	0.44270 0.04610 0.53150 0.15800
H 	H 	0.36410 0.07080 0.52450 0.16800
C 	C 	0.65080 0.10520 0.77740 -0.80100
H 	H 	0.63380 0.07560 0.75490 0.27600
H 	H 	0.69790 0.11970 0.77320 0.24400
H 	H 	0.62020 0.14360 0.77770 0.24900
C 	C 	0.71700 0.04000 0.82150 0.08700
C 	C 	0.65170 0.06930 0.81860 0.33400
H 	H 	0.64940 0.10200 0.84150 -0.06900
Zn	Zn	0.64181 0.85897 0.59150 1.23200
Zn	Zn	0.85610 0.08890 0.82522 1.16400
O 	O 	0.57420 0.82240 0.66770 -0.31600
O 	O 	0.53750 0.84130 0.60430 -0.45200
O 	O 	0.43930 0.81480 0.68630 -0.31600
O 	O 	0.76160 0.27130 0.96280 -0.26500
O 	O 	0.83280 0.26000 0.91040 -0.42800
O 	O 	0.70780 0.14910 0.94919 -0.36800
O 	O 	0.11720 0.39920 0.03510 -0.43100
O 	O 	0.22200 0.44520 0.03150 -0.28700
O 	O 	0.18080 0.47840 0.94560 -0.35700
O 	O 	0.85160 0.09440 0.76460 -0.46600
O 	O 	0.88700 0.19960 0.75740 -0.27200
O 	O 	0.92400 0.18300 0.67580 -0.31900
O 	O 	0.69020 0.91880 0.63080 -0.44600
O 	O 	0.79130 0.86320 0.62120 -0.27500
O 	O 	0.87480 0.95780 0.66700 -0.29700
O 	O 	0.77200 0.47390 0.68620 -0.19300
O 	O 	0.71550 0.55400 0.65390 -0.48600
O 	O 	0.90480 0.52540 0.68140 -0.37700
C 	C 	0.53040 0.82630 0.63980 0.34800
C 	C 	0.45600 0.79870 0.64460 0.11500
H 	H 	0.42140 0.81920 0.62360 0.00300
C 	C 	0.45160 0.72060 0.64160 -0.48200
H 	H 	0.40390 0.70640 0.64430 0.16000
H 	H 	0.48270 0.70100 0.66380 0.15400
H 	H 	0.46560 0.70630 0.61470 0.13700
C 	C 	0.40960 0.87400 0.69330 0.48700
C 	C 	0.41770 0.93210 0.66900 -0.56200
H 	H 	0.44320 0.93060 0.64540 0.22500
C 	C 	0.38770 0.99050 0.68050 0.50500
C 	C 	0.35150 0.99300 0.71700 -0.43200
C 	C 	0.34490 0.93630 0.74270 0.55200
C 	C 	0.37690 0.88040 0.73150 -0.58900
H 	H 	0.37780 0.84370 0.74960 0.22700
C 	C 	0.38840 0.05370 0.65330 -0.96000
H 	H 	0.34120 0.06340 0.64140 0.30300
H 	H 	0.41840 0.04660 0.63090 0.30600
H 	H 	0.40610 0.09080 0.67050 0.29900
C 	C 	0.30650 0.93640 0.78180 -1.03000
H 	H 	0.30990 0.89270 0.79460 0.29400
H 	H 	0.25760 0.94730 0.77450 0.29900
H 	H 	0.32740 0.96910 0.80140 0.30700
C 	C 	0.86900 0.14930 0.74010 0.20700
C 	C 	0.87220 0.14040 0.69470 0.18700
H 	H 	0.88100 0.09310 0.68850 -0.01700
C 	C 	0.79990 0.16100 0.67440 -0.63200
H 	H 	0.76650 0.12560 0.67780 0.20700
H 	H 	0.80270 0.16930 0.64480 0.21900
H 	H 	0.78480 0.20110 0.68770 0.21700
C 	C 	0.99360 0.16260 0.68910 0.52400
C 	C 	0.01000 0.11030 0.71520 -0.54800
H 	H 	0.97350 0.08500 0.72480 0.21300
C 	C 	0.08050 0.09260 0.72820 0.43500
C 	C 	0.13220 0.13760 0.71260 -0.42600
C 	C 	0.11560 0.19210 0.68650 0.64800
C 	C 	0.04530 0.20250 0.67520 -0.66500
H 	H 	0.03200 0.23810 0.65720 0.25500
C 	C 	0.09880 0.03560 0.75990 -0.82400
H 	H 	0.14910 0.02900 0.76310 0.25600
H 	H 	0.07590 0.99500 0.74960 0.22500
H 	H 	0.08260 0.04720 0.78670 0.24200
C 	C 	0.17200 0.23350 0.67270 -1.23400
H 	H 	0.15410 0.26000 0.64880 0.35700
H 	H 	0.20970 0.20530 0.66490 0.37200
H 	H 	0.18960 0.26260 0.69540 0.36700
C 	C 	0.16230 0.43340 0.01730 0.26900
C 	C 	0.12900 0.46530 0.97580 0.13700
H 	H 	0.09020 0.43750 0.96290 -0.00300
C 	C 	0.21650 0.42400 0.92690 0.64900
C 	C 	0.20770 0.36300 0.94080 -0.63900
H 	H 	0.17770 0.35420 0.96170 0.26400
C 	C 	0.24760 0.30880 0.92200 0.52500
C 	C 	0.29100 0.32500 0.89010 -0.51200
C 	C 	0.29610 0.39090 0.87810 0.67900
C 	C 	0.25690 0.43610 0.89670 -0.79200
H 	H 	0.25870 0.48020 0.88720 0.27900
C 	C 	0.24110 0.23390 0.93620 -0.99000
H 	H 	0.24870 0.20480 0.91290 0.31000
H 	H 	0.19460 0.22630 0.94490 0.31400
H 	H 	0.27590 0.22480 0.95930 0.33000
C 	C 	0.33790 0.41050 0.84100 -1.15600
H 	H 	0.33120 0.45750 0.83500 0.34000
H 	H 	0.32140 0.38470 0.81650 0.35700
H 	H 	0.38730 0.40180 0.84820 0.35100
C 	C 	0.79040 0.23960 0.93670 0.22700
C 	C 	0.77010 0.16770 0.93100 0.20100
H 	H 	0.76550 0.15650 0.90080 -0.04800
C 	C 	0.82500 0.12170 0.95460 -0.57900
H 	H 	0.87120 0.13210 0.94630 0.16300
H 	H 	0.81370 0.07570 0.94780 0.18100
H 	H 	0.82450 0.12830 0.98450 0.18800
C 	C 	0.64170 0.16430 0.92860 0.62300
C 	C 	0.58650 0.13830 0.94290 -0.74100
H 	H 	0.59160 0.11140 0.96700 0.27000
C 	C 	0.52030 0.14970 0.92320 0.62100
C 	C 	0.51370 0.19460 0.88920 -0.46800
C 	C 	0.57330 0.22190 0.87410 0.52200
C 	C 	0.63920 0.20560 0.89370 -0.62800
H 	H 	0.68040 0.22210 0.88380 0.25900
C 	C 	0.45610 0.11750 0.94080 -1.11800
H 	H 	0.42400 0.10150 0.91780 0.34800
H 	H 	0.43260 0.15020 0.95670 0.34700
H 	H 	0.47130 0.08060 0.95880 0.33700
C 	C 	0.56570 0.27140 0.83410 -0.93500
H 	H 	0.59870 0.30780 0.83870 0.31800
H 	H 	0.51830 0.28900 0.83050 0.29600
H 	H 	0.57540 0.24720 0.80910 0.28500
C 	C 	0.31380 0.05960 0.73070 0.18100
C 	C 	0.24640 0.07310 0.71450 -0.28800
H 	H 	0.22560 0.04780 0.69210 0.10100
C 	C 	0.20950 0.12390 0.73120 0.16900
C 	C 	0.23730 0.16510 0.76460 -0.08000
C 	C 	0.19910 0.21340 0.78480 -0.05700
H 	H 	0.15190 0.22050 0.77510 0.04900
C 	C 	0.22730 0.24950 0.81700 -0.02800
H 	H 	0.20060 0.28290 0.82840 0.04200
C 	C 	0.29990 0.23740 0.83470 -0.12400
C 	C 	0.33070 0.27370 0.87130 0.25700
C 	C 	0.39930 0.25870 0.88550 -0.33200
H 	H 	0.42040 0.28350 0.90810 0.14200
C 	C 	0.44110 0.20730 0.86800 0.22200
C 	C 	0.41200 0.17370 0.83340 -0.12500
C 	C 	0.44820 0.12220 0.81440 -0.01600
H 	H 	0.49450 0.11280 0.82490 0.04200
C 	C 	0.41910 0.08560 0.78160 -0.06200
H 	H 	0.44560 0.05240 0.76980 0.05400
C 	C 	0.34640 0.09790 0.76450 -0.07900
C 	C 	0.30890 0.14670 0.78040 0.00800
C 	C 	0.34040 0.18880 0.81640 0.04300
C 	C 	0.75640 0.90690 0.63990 0.23700
C 	C 	0.79560 0.96010 0.67050 0.11600
H 	H 	0.77650 0.00530 0.66550 0.00600
C 	C 	0.78520 0.93500 0.71610 -0.56200
H 	H 	0.73670 0.94100 0.72150 0.20200
H 	H 	0.81530 0.96030 0.73630 0.19000
H 	H 	0.79740 0.88830 0.71850 0.19100
C 	C 	0.89250 0.99430 0.63240 0.37300
C 	C 	0.84490 0.01760 0.60070 -0.42400
H 	H 	0.79660 0.00950 0.60090 0.19700
C 	C 	0.87250 0.05490 0.56720 0.39900
C 	C 	0.94470 0.06730 0.56810 -0.34400
C 	C 	0.99180 0.04090 0.60190 0.48200
C 	C 	0.96540 0.00320 0.63160 -0.46300
H 	H 	0.99620 0.98240 0.65200 0.16500
C 	C 	0.97390 0.10680 0.53330 0.13700
C 	C 	0.06930 0.05610 0.60270 -1.00200
H 	H 	0.09180 0.04800 0.63060 0.30900
H 	H 	0.07560 0.10230 0.59530 0.31900
H 	H 	0.09020 0.02770 0.58280 0.31900
C 	C 	0.81770 0.08460 0.53180 -0.86500
H 	H 	0.84270 0.10750 0.51110 0.27800
H 	H 	0.78690 0.11560 0.54430 0.27100
H 	H 	0.79010 0.04880 0.51840 0.30300
C 	C 	0.97300 0.18000 0.53370 -0.05200
C 	C 	0.97600 0.32140 0.53500 -0.12400
C 	C 	0.95210 0.28000 0.56820 -0.00400
H 	H 	0.93630 0.30210 0.59130 0.03000
C 	C 	0.95060 0.21470 0.56880 -0.08400
H 	H 	0.93510 0.19170 0.59170 0.06400
C 	C 	0.97710 0.39140 0.53430 0.23200
C 	C 	0.95680 0.42620 0.57180 -0.41000
C 	C 	0.00310 0.43490 0.60770 0.51300
C 	C 	0.98510 0.46370 0.64540 -0.63100
H 	H 	0.01520 0.46030 0.67010 0.25300
C 	C 	0.92430 0.49570 0.64480 0.54400
C 	C 	0.87590 0.49400 0.60860 -0.55500
H 	H 	0.83230 0.51500 0.60940 0.23600
C 	C 	0.89070 0.46260 0.57220 0.44000
C 	C 	0.83860 0.45650 0.53040 -0.84900
H 	H 	0.79550 0.48010 0.53410 0.26200
H 	H 	0.82830 0.41000 0.52470 0.26400
H 	H 	0.86060 0.47560 0.50710 0.25500
C 	C 	0.07590 0.40220 0.60670 -0.96000
H 	H 	0.11050 0.42820 0.62360 0.27800
H 	H 	0.08830 0.40060 0.57810 0.29500
H 	H 	0.07460 0.35750 0.61790 0.28800
C 	C 	0.10230 0.53890 0.98420 -0.52800
H 	H 	0.09750 0.54440 0.01390 0.17000
H 	H 	0.05730 0.54610 0.96850 0.16700
H 	H 	0.13590 0.57080 0.97550 0.17600
C 	C 	0.84920 0.60520 0.72260 -0.81500
H 	H 	0.86620 0.57560 0.74510 0.27600
H 	H 	0.80210 0.61970 0.72680 0.24700
H 	H 	0.87980 0.64360 0.72230 0.25200
C 	C 	0.78300 0.54000 0.67850 0.06500
C 	C 	0.84830 0.56930 0.68140 0.35200
H 	H 	0.85060 0.60200 0.65850 -0.07600
Zn	Zn	0.14181 0.35897 0.09150 1.23200
Zn	Zn	0.35610 0.58890 0.32522 1.16300
O 	O 	0.07420 0.32240 0.16770 -0.31500
O 	O 	0.03750 0.34130 0.10430 -0.45000
O 	O 	0.93930 0.31480 0.18630 -0.31800
O 	O 	0.26160 0.77130 0.46280 -0.26500
O 	O 	0.33280 0.76000 0.41040 -0.42800
O 	O 	0.20780 0.64910 0.44919 -0.36800
O 	O 	0.61720 0.89920 0.53510 -0.43600
O 	O 	0.72200 0.94520 0.53150 -0.29600
O 	O 	0.68080 0.97840 0.44560 -0.35700
O 	O 	0.35160 0.59440 0.26460 -0.47100
O 	O 	0.38700 0.69960 0.25740 -0.27100
O 	O 	0.42400 0.68300 0.17580 -0.32500
O 	O 	0.19020 0.41880 0.13080 -0.43800
O 	O 	0.29130 0.36320 0.12120 -0.27100
O 	O 	0.37480 0.45780 0.16700 -0.32200
O 	O 	0.27200 0.97390 0.18620 -0.21100
O 	O 	0.21550 0.05400 0.15390 -0.48400
O 	O 	0.40480 0.02540 0.18140 -0.35500
C 	C 	0.03040 0.32630 0.13980 0.35000
C 	C 	0.95600 0.29870 0.14460 0.11500
H 	H 	0.92140 0.31920 0.12360 0.00400
C 	C 	0.95160 0.22060 0.14160 -0.48400
H 	H 	0.90390 0.20640 0.14430 0.16200
H 	H 	0.98270 0.20100 0.16380 0.15500
H 	H 	0.96560 0.20630 0.11470 0.13900
C 	C 	0.90960 0.37400 0.19330 0.49400
C 	C 	0.91770 0.43210 0.16900 -0.57600
H 	H 	0.94320 0.43060 0.14540 0.23200
C 	C 	0.88770 0.49050 0.18050 0.53100
C 	C 	0.85150 0.49300 0.21700 -0.42500
C 	C 	0.84490 0.43630 0.24270 0.56000
C 	C 	0.87690 0.38040 0.23150 -0.59600
H 	H 	0.87780 0.34370 0.24960 0.22900
C 	C 	0.88840 0.55370 0.15330 -1.00200
H 	H 	0.84120 0.56340 0.14140 0.31000
H 	H 	0.91840 0.54660 0.13090 0.31200
H 	H 	0.90610 0.59080 0.17050 0.30800
C 	C 	0.80650 0.43640 0.28180 -1.04400
H 	H 	0.80990 0.39270 0.29460 0.29900
H 	H 	0.75760 0.44730 0.27450 0.30700
H 	H 	0.82740 0.46910 0.30140 0.31600
C 	C 	0.36900 0.64930 0.24010 0.20500
C 	C 	0.37220 0.64040 0.19470 0.19000
H 	H 	0.38100 0.59310 0.18850 -0.02100
C 	C 	0.29990 0.66100 0.17440 -0.63200
H 	H 	0.26650 0.62560 0.17780 0.20600
H 	H 	0.30270 0.66930 0.14480 0.21900
H 	H 	0.28480 0.70110 0.18770 0.21600
C 	C 	0.49360 0.66260 0.18910 0.54900
C 	C 	0.51000 0.61030 0.21520 -0.58500
H 	H 	0.47350 0.58500 0.22480 0.22400
C 	C 	0.58050 0.59260 0.22820 0.46700
C 	C 	0.63220 0.63760 0.21260 -0.44500
C 	C 	0.61560 0.69210 0.18650 0.66700
C 	C 	0.54530 0.70250 0.17520 -0.69000
H 	H 	0.53200 0.73810 0.15720 0.26200
C 	C 	0.59880 0.53560 0.25990 -0.92100
H 	H 	0.64910 0.52900 0.26310 0.27900
H 	H 	0.57590 0.49500 0.24960 0.26500
H 	H 	0.58260 0.54720 0.28670 0.26600
C 	C 	0.67200 0.73350 0.17270 -1.25700
H 	H 	0.65410 0.76000 0.14880 0.36300
H 	H 	0.70970 0.70530 0.16490 0.37800
H 	H 	0.68960 0.76260 0.19540 0.37400
C 	C 	0.66230 0.93340 0.51730 0.27300
C 	C 	0.62900 0.96530 0.47580 0.11300
H 	H 	0.59020 0.93750 0.46290 0.00200
C 	C 	0.71650 0.92400 0.42690 0.64000
C 	C 	0.70770 0.86300 0.44080 -0.63300
H 	H 	0.67770 0.85420 0.46170 0.26300
C 	C 	0.74760 0.80880 0.42200 0.51900
C 	C 	0.79100 0.82500 0.39010 -0.50500
C 	C 	0.79610 0.89090 0.37810 0.66600
C 	C 	0.75690 0.93610 0.39670 -0.78200
H 	H 	0.75870 0.98020 0.38720 0.27100
C 	C 	0.74110 0.73390 0.43620 -0.98400
H 	H 	0.74870 0.70480 0.41290 0.30700
H 	H 	0.69460 0.72630 0.44490 0.31100
H 	H 	0.77590 0.72480 0.45930 0.32800
C 	C 	0.83790 0.91050 0.34100 -1.13700
H 	H 	0.83120 0.95750 0.33500 0.33000
H 	H 	0.82140 0.88470 0.31650 0.35000
H 	H 	0.88730 0.90180 0.34820 0.34300
C 	C 	0.29040 0.73960 0.43670 0.22800
C 	C 	0.27010 0.66770 0.43100 0.19800
H 	H 	0.26550 0.65650 0.40080 -0.04700
C 	C 	0.32500 0.62170 0.45460 -0.57200
H 	H 	0.37120 0.63210 0.44630 0.16000
H 	H 	0.31370 0.57570 0.44780 0.17600
H 	H 	0.32450 0.62830 0.48450 0.18400
C 	C 	0.14170 0.66430 0.42860 0.61900
C 	C 	0.08650 0.63830 0.44290 -0.73700
H 	H 	0.09160 0.61140 0.46700 0.26700
C 	C 	0.02030 0.64970 0.42320 0.61500
C 	C 	0.01370 0.69460 0.38920 -0.46200
C 	C 	0.07330 0.72190 0.37410 0.51900
C 	C 	0.13920 0.70560 0.39370 -0.62500
H 	H 	0.18040 0.72210 0.38380 0.25800
C 	C 	0.95610 0.61750 0.44080 -1.10800
H 	H 	0.92400 0.60150 0.41780 0.34100
H 	H 	0.93260 0.65020 0.45670 0.34300
H 	H 	0.97130 0.58060 0.45880 0.32900
C 	C 	0.06570 0.77140 0.33410 -0.93200
H 	H 	0.09870 0.80780 0.33870 0.31700
H 	H 	0.01830 0.78900 0.33050 0.29600
H 	H 	0.07540 0.74720 0.30910 0.28400
C 	C 	0.81380 0.55960 0.23070 0.16500
C 	C 	0.74640 0.57310 0.21450 -0.28500
H 	H 	0.72560 0.54780 0.19210 0.09300
C 	C 	0.70950 0.62390 0.23120 0.17100
C 	C 	0.73730 0.66510 0.26460 -0.08100
C 	C 	0.69910 0.71340 0.28480 -0.05600
H 	H 	0.65190 0.72050 0.27510 0.04800
C 	C 	0.72730 0.74950 0.31700 -0.03000
H 	H 	0.70060 0.78290 0.32840 0.04300
C 	C 	0.79990 0.73740 0.33470 -0.12200
C 	C 	0.83070 0.77370 0.37130 0.25300
C 	C 	0.89930 0.75870 0.38550 -0.32800
H 	H 	0.92040 0.78350 0.40810 0.14000
C 	C 	0.94110 0.70730 0.36800 0.21700
C 	C 	0.91200 0.67370 0.33340 -0.12400
C 	C 	0.94820 0.62220 0.31440 -0.01800
H 	H 	0.99450 0.61280 0.32490 0.03900
C 	C 	0.91910 0.58560 0.28160 -0.06500
H 	H 	0.94560 0.55240 0.26980 0.04900
C 	C 	0.84640 0.59790 0.26450 -0.07900
C 	C 	0.80890 0.64670 0.28040 0.00600
C 	C 	0.84040 0.68880 0.31640 0.04100
C 	C 	0.25640 0.40690 0.13990 0.22500
C 	C 	0.29560 0.46010 0.17050 0.16600
H 	H 	0.27650 0.50530 0.16550 -0.02300
C 	C 	0.28520 0.43500 0.21610 -0.61100
H 	H 	0.23670 0.44100 0.22150 0.22100
H 	H 	0.31530 0.46030 0.23630 0.21000
H 	H 	0.29740 0.38830 0.21850 0.20700
C 	C 	0.39250 0.49430 0.13240 0.47300
C 	C 	0.34490 0.51760 0.10070 -0.50400
H 	H 	0.29660 0.50950 0.10090 0.21800
C 	C 	0.37250 0.55490 0.06720 0.44100
C 	C 	0.44470 0.56730 0.06810 -0.38900
C 	C 	0.49180 0.54090 0.10190 0.55600
C 	C 	0.46540 0.50320 0.13160 -0.59100
H 	H 	0.49620 0.48240 0.15200 0.22100
C 	C 	0.47390 0.60680 0.03330 0.15800
C 	C 	0.56930 0.55610 0.10270 -1.08200
H 	H 	0.59180 0.54800 0.13060 0.32700
H 	H 	0.57560 0.60230 0.09530 0.34100
H 	H 	0.59020 0.52770 0.08280 0.33700
C 	C 	0.31770 0.58460 0.03180 -0.90100
H 	H 	0.34270 0.60750 0.01110 0.28700
H 	H 	0.28690 0.61560 0.04430 0.28000
H 	H 	0.29010 0.54880 0.01840 0.30900
C 	C 	0.47300 0.68000 0.03370 -0.06400
C 	C 	0.47600 0.82140 0.03500 -0.11500
C 	C 	0.45210 0.78000 0.06820 -0.01300
H 	H 	0.43630 0.80210 0.09130 0.03300
C 	C 	0.45060 0.71470 0.06880 -0.07400
H 	H 	0.43510 0.69170 0.09170 0.06000
C 	C 	0.47710 0.89140 0.03430 0.22500
C 	C 	0.45680 0.92620 0.07180 -0.40000
C 	C 	0.50310 0.93490 0.10770 0.49100
C 	C 	0.48510 0.96370 0.14540 -0.60700
H 	H 	0.51520 0.96030 0.17010 0.23900
C 	C 	0.42430 0.99570 0.14480 0.52100
C 	C 	0.37590 0.99400 0.10860 -0.57800
H 	H 	0.33230 0.01500 0.10940 0.25600
C 	C 	0.39070 0.96260 0.07220 0.43800
C 	C 	0.33860 0.95650 0.03040 -0.84300
H 	H 	0.29550 0.98010 0.03410 0.25400
H 	H 	0.32830 0.91000 0.02470 0.26000
H 	H 	0.36060 0.97560 0.00710 0.24900
C 	C 	0.57590 0.90220 0.10670 -0.93500
H 	H 	0.61050 0.92820 0.12360 0.26800
H 	H 	0.58830 0.90060 0.07810 0.28500
H 	H 	0.57460 0.85750 0.11790 0.28000
C 	C 	0.60230 0.03890 0.48420 -0.48100
H 	H 	0.59750 0.04440 0.51390 0.16000
H 	H 	0.55730 0.04610 0.46850 0.15800
H 	H 	0.63590 0.07080 0.47550 0.16800
C 	C 	0.34920 0.10520 0.22260 -0.80200
H 	H 	0.36620 0.07560 0.24510 0.27600
H 	H 	0.30210 0.11970 0.22680 0.24400
H 	H 	0.37980 0.14360 0.22230 0.24900
C 	C 	0.28300 0.04000 0.17850 0.08700
C 	C 	0.34830 0.06930 0.18140 0.33400
H 	H 	0.35060 0.10200 0.15850 -0.06900
C 	C 	0.00000 0.07210 0.50000 -0.23800
H 	H 	0.00000 0.02540 0.50000 0.11700
C 	C 	0.00000 0.21160 0.50000 -0.01200
C 	C 	0.00000 0.28350 0.50000 0.04800
C 	C 	0.00000 0.42080 0.50000 -0.35200
H 	H 	0.00000 0.46740 0.50000 0.11400
C 	C 	0.50000 0.57210 -0.00000 -0.25700
H 	H 	0.50000 0.52540 -0.00000 0.11900
C 	C 	0.50000 0.71160 -0.00000 -0.00200
C 	C 	0.50000 0.78350 -0.00000 0.04100
C 	C 	0.50000 0.92080 -0.00000 -0.34500
H 	H 	0.50000 0.96740 -0.00000 0.10600
