data_crystal

_cell_length_a 26.15350
_cell_length_b 13.61680
_cell_length_c 17.18070
_cell_angle_alpha 90.00000
_cell_angle_beta  126.05600
_cell_angle_gamma 90.00000

_symmetry_space_group_name_	'P 1'
_symmetry_space_group_name_H-M	'P 1'

loop_
_symmetry_equiv_pos_as_xyz
  x,y,z

loop_
_atom_site_label
_atom_site_type_symbol
_atom_site_fract_x
_atom_site_fract_y
_atom_site_fract_z
_atom_site_charge
Co	Co	0.12292 0.22335 0.18843 1.13800
O 	O 	0.11890 0.35330 0.11120 -0.40800
O 	O 	0.09760 0.36910 0.21460 -0.40600
N 	N 	0.71950 0.25530 0.80350 -0.24300
N 	N 	0.02610 0.19640 0.07530 -0.23500
N 	N 	0.92510 0.15450 0.00050 -0.31700
N 	N 	0.85030 0.87810 0.87090 -0.25000
N 	N 	0.81160 0.19100 0.91990 -0.32000
N 	N 	0.88520 0.13930 0.21670 -0.24700
N 	N 	0.87490 0.10540 0.08170 -0.31200
N 	N 	0.84640 0.01600 0.93560 -0.31600
C 	C 	0.08220 0.51140 0.11940 -0.31200
H 	H 	0.06820 0.54160 0.15630 0.12600
H 	H 	0.11990 0.54790 0.13470 0.12100
C 	C 	0.03060 0.52110 0.01420 -0.01200
H 	H 	0.02440 0.59160 0.99650 0.03500
H 	H 	0.04380 0.48770 0.97740 0.04200
C 	C 	0.81630 0.29250 0.93040 0.04000
H 	H 	0.85240 0.32870 0.97870 0.00400
C 	C 	0.98150 0.16640 0.08490 0.13300
H 	H 	0.98900 0.15480 0.14540 -0.03300
C 	C 	0.93430 0.18200 0.93220 0.04300
H 	H 	0.90300 0.18350 0.86450 -0.00200
C 	C 	0.75190 0.17560 0.84100 0.15200
H 	H 	0.73530 0.11220 0.81550 -0.03600
C 	C 	0.87650 0.96460 0.90700 0.13500
H 	H 	0.91260 0.98800 0.91210 -0.04200
C 	C 	0.99530 0.20630 0.97850 -0.01900
H 	H 	0.01430 0.22740 0.94830 0.02700
C 	C 	0.76050 0.32920 0.85990 -0.02000
H 	H 	0.75040 0.39720 0.85000 0.02100
C 	C 	0.86670 0.17160 0.13180 0.13800
H 	H 	0.84940 0.23510 0.10810 -0.03700
C 	C 	0.79740 0.95620 0.91690 0.04000
H 	H 	0.76740 0.97100 0.92960 0.00400
C 	C 	0.90670 0.04620 0.22240 -0.01700
H 	H 	0.92370 0.00320 0.27590 0.01700
C 	C 	0.90020 0.02480 0.14040 0.04400
H 	H 	0.91120 0.96450 0.12590 0.00100
C 	C 	0.80060 0.87260 0.87720 -0.01400
H 	H 	0.77260 0.81840 0.85670 0.02300
C 	C 	0.10070 0.40430 0.15090 0.37800
B 	B 	0.86420 0.11730 0.98370 0.94900
Co	Co	0.62292 0.72335 0.18843 1.13700
O 	O 	0.61890 0.85330 0.11120 -0.40900
O 	O 	0.59760 0.86910 0.21460 -0.40700
N 	N 	0.21950 0.75530 0.80350 -0.24400
N 	N 	0.52610 0.69640 0.07530 -0.23600
N 	N 	0.42510 0.65450 0.00050 -0.31900
N 	N 	0.35030 0.37810 0.87090 -0.25100
N 	N 	0.31160 0.69100 0.91990 -0.32200
N 	N 	0.38520 0.63930 0.21670 -0.24900
N 	N 	0.37490 0.60540 0.08170 -0.31400
N 	N 	0.34640 0.51600 0.93560 -0.31700
C 	C 	0.58220 0.01140 0.11940 -0.31400
H 	H 	0.56820 0.04160 0.15630 0.12600
H 	H 	0.61990 0.04790 0.13470 0.12000
C 	C 	0.53060 0.02110 0.01420 -0.00900
H 	H 	0.52440 0.09160 0.99650 0.03200
H 	H 	0.54380 0.98770 0.97740 0.04100
C 	C 	0.31630 0.79250 0.93040 0.04000
H 	H 	0.35240 0.82870 0.97870 0.00500
C 	C 	0.48150 0.66640 0.08490 0.13200
H 	H 	0.48900 0.65480 0.14540 -0.03300
C 	C 	0.43430 0.68200 0.93220 0.04400
H 	H 	0.40300 0.68350 0.86450 -0.00200
C 	C 	0.25190 0.67560 0.84100 0.15200
H 	H 	0.23530 0.61220 0.81550 -0.03600
C 	C 	0.37650 0.46460 0.90700 0.13500
H 	H 	0.41260 0.48800 0.91210 -0.04200
C 	C 	0.49530 0.70630 0.97850 -0.01700
H 	H 	0.51430 0.72740 0.94830 0.02700
C 	C 	0.26050 0.82920 0.85990 -0.02000
H 	H 	0.25040 0.89720 0.85000 0.02200
C 	C 	0.36670 0.67160 0.13180 0.13800
H 	H 	0.34940 0.73510 0.10810 -0.03700
C 	C 	0.29740 0.45620 0.91690 0.04000
H 	H 	0.26740 0.47100 0.92960 0.00400
C 	C 	0.40670 0.54620 0.22240 -0.01600
H 	H 	0.42370 0.50320 0.27590 0.01700
C 	C 	0.40020 0.52480 0.14040 0.04200
H 	H 	0.41120 0.46450 0.12590 0.00200
C 	C 	0.30060 0.37260 0.87720 -0.01300
H 	H 	0.27260 0.31840 0.85670 0.02300
C 	C 	0.60070 0.90430 0.15090 0.37800
B 	B 	0.36420 0.61730 0.98370 0.95200
Co	Co	0.87708 0.22335 0.31157 1.13700
O 	O 	0.88110 0.35330 0.38880 -0.40900
O 	O 	0.90240 0.36910 0.28540 -0.40700
N 	N 	0.28050 0.25530 0.69650 -0.24400
N 	N 	0.97390 0.19640 0.42470 -0.23600
N 	N 	0.07490 0.15450 0.49950 -0.31900
N 	N 	0.14970 0.87810 0.62910 -0.25100
N 	N 	0.18840 0.19100 0.58010 -0.32200
N 	N 	0.11480 0.13930 0.28330 -0.24900
N 	N 	0.12510 0.10540 0.41830 -0.31400
N 	N 	0.15360 0.01600 0.56440 -0.31700
C 	C 	0.91780 0.51140 0.38060 -0.31400
H 	H 	0.93180 0.54160 0.34370 0.12600
H 	H 	0.88010 0.54790 0.36530 0.12000
C 	C 	0.96940 0.52110 0.48580 -0.01100
H 	H 	0.97560 0.59160 0.50350 0.03300
H 	H 	0.95620 0.48770 0.52260 0.04100
C 	C 	0.18370 0.29250 0.56960 0.04000
H 	H 	0.14760 0.32870 0.52130 0.00500
C 	C 	0.01850 0.16640 0.41510 0.13200
H 	H 	0.01100 0.15480 0.35460 -0.03300
C 	C 	0.06570 0.18200 0.56780 0.04400
H 	H 	0.09700 0.18350 0.63550 -0.00200
C 	C 	0.24810 0.17560 0.65900 0.15200
H 	H 	0.26470 0.11220 0.68450 -0.03600
C 	C 	0.12350 0.96460 0.59300 0.13500
H 	H 	0.08740 0.98800 0.58790 -0.04200
C 	C 	0.00470 0.20630 0.52150 -0.01900
H 	H 	0.98570 0.22740 0.55170 0.02700
C 	C 	0.23950 0.32920 0.64010 -0.02100
H 	H 	0.24960 0.39720 0.65000 0.02100
C 	C 	0.13330 0.17160 0.36820 0.13800
H 	H 	0.15060 0.23510 0.39190 -0.03700
C 	C 	0.20260 0.95620 0.58310 0.04000
H 	H 	0.23260 0.97100 0.57040 0.00400
C 	C 	0.09330 0.04620 0.27760 -0.01600
H 	H 	0.07630 0.00320 0.22410 0.01700
C 	C 	0.09980 0.02480 0.35960 0.04200
H 	H 	0.08880 0.96450 0.37410 0.00200
C 	C 	0.19940 0.87260 0.62280 -0.01300
H 	H 	0.22740 0.81840 0.64330 0.02300
C 	C 	0.89930 0.40430 0.34910 0.37900
B 	B 	0.13580 0.11730 0.51630 0.95100
Co	Co	0.37708 0.72335 0.31157 1.13700
O 	O 	0.38110 0.85330 0.38880 -0.40900
O 	O 	0.40240 0.86910 0.28540 -0.40700
N 	N 	0.78050 0.75530 0.69650 -0.24400
N 	N 	0.47390 0.69640 0.42470 -0.23600
N 	N 	0.57490 0.65450 0.49950 -0.31900
N 	N 	0.64970 0.37810 0.62910 -0.25100
N 	N 	0.68840 0.69100 0.58010 -0.32200
N 	N 	0.61480 0.63930 0.28330 -0.24900
N 	N 	0.62510 0.60540 0.41830 -0.31400
N 	N 	0.65360 0.51600 0.56440 -0.31700
C 	C 	0.41780 0.01140 0.38060 -0.31400
H 	H 	0.43180 0.04160 0.34370 0.12600
H 	H 	0.38010 0.04790 0.36530 0.12000
C 	C 	0.46940 0.02110 0.48580 -0.01100
H 	H 	0.47560 0.09160 0.50350 0.03300
H 	H 	0.45620 0.98770 0.52260 0.04100
C 	C 	0.68370 0.79250 0.56960 0.04000
H 	H 	0.64760 0.82870 0.52130 0.00500
C 	C 	0.51850 0.66640 0.41510 0.13200
H 	H 	0.51100 0.65480 0.35460 -0.03300
C 	C 	0.56570 0.68200 0.56780 0.04400
H 	H 	0.59700 0.68350 0.63550 -0.00200
C 	C 	0.74810 0.67560 0.65900 0.15200
H 	H 	0.76470 0.61220 0.68450 -0.03600
C 	C 	0.62350 0.46460 0.59300 0.13500
H 	H 	0.58740 0.48800 0.58790 -0.04200
C 	C 	0.50470 0.70630 0.52150 -0.01800
H 	H 	0.48570 0.72740 0.55170 0.02700
C 	C 	0.73950 0.82920 0.64010 -0.02100
H 	H 	0.74960 0.89720 0.65000 0.02100
C 	C 	0.63330 0.67160 0.36820 0.13800
H 	H 	0.65060 0.73510 0.39190 -0.03700
C 	C 	0.70260 0.45620 0.58310 0.03900
H 	H 	0.73260 0.47100 0.57040 0.00400
C 	C 	0.59330 0.54620 0.27760 -0.01600
H 	H 	0.57630 0.50320 0.22410 0.01700
C 	C 	0.59980 0.52480 0.35960 0.04200
H 	H 	0.58880 0.46450 0.37410 0.00200
C 	C 	0.69940 0.37260 0.62280 -0.01300
H 	H 	0.72740 0.31840 0.64330 0.02300
C 	C 	0.39930 0.90430 0.34910 0.37800
B 	B 	0.63580 0.61730 0.51630 0.95100
Co	Co	0.87708 0.77665 0.81157 1.13700
O 	O 	0.88110 0.64670 0.88880 -0.40900
O 	O 	0.90240 0.63090 0.78540 -0.40700
N 	N 	0.28050 0.74470 0.19650 -0.24400
N 	N 	0.97390 0.80360 0.92470 -0.23600
N 	N 	0.07490 0.84550 0.99950 -0.31800
N 	N 	0.14970 0.12190 0.12910 -0.25100
N 	N 	0.18840 0.80900 0.08010 -0.32100
N 	N 	0.11480 0.86070 0.78330 -0.24800
N 	N 	0.12510 0.89460 0.91830 -0.31300
N 	N 	0.15360 0.98400 0.06440 -0.31700
C 	C 	0.91780 0.48860 0.88060 -0.31300
H 	H 	0.93180 0.45840 0.84370 0.12500
H 	H 	0.88010 0.45210 0.86530 0.12000
C 	C 	0.96940 0.47890 0.98580 -0.01300
H 	H 	0.97560 0.40840 0.00350 0.03400
H 	H 	0.95620 0.51230 0.02260 0.04200
C 	C 	0.18370 0.70750 0.06960 0.04000
H 	H 	0.14760 0.67130 0.02130 0.00400
C 	C 	0.01850 0.83360 0.91510 0.13300
H 	H 	0.01100 0.84520 0.85460 -0.03300
C 	C 	0.06570 0.81800 0.06780 0.04300
H 	H 	0.09700 0.81650 0.13550 -0.00200
C 	C 	0.24810 0.82440 0.15900 0.15200
H 	H 	0.26470 0.88780 0.18450 -0.03600
C 	C 	0.12350 0.03540 0.09300 0.13500
H 	H 	0.08740 0.01200 0.08790 -0.04200
C 	C 	0.00470 0.79370 0.02150 -0.01900
H 	H 	0.98570 0.77260 0.05170 0.02700
C 	C 	0.23950 0.67080 0.14010 -0.02000
H 	H 	0.24960 0.60280 0.15000 0.02100
C 	C 	0.13330 0.82840 0.86820 0.13800
H 	H 	0.15060 0.76490 0.89190 -0.03700
C 	C 	0.20260 0.04380 0.08310 0.04000
H 	H 	0.23260 0.02900 0.07040 0.00400
C 	C 	0.09330 0.95380 0.77760 -0.01700
H 	H 	0.07630 0.99680 0.72410 0.01700
C 	C 	0.09980 0.97520 0.85960 0.04400
H 	H 	0.08880 0.03550 0.87410 0.00100
C 	C 	0.19940 0.12740 0.12280 -0.01400
H 	H 	0.22740 0.18160 0.14330 0.02300
C 	C 	0.89930 0.59570 0.84910 0.37800
B 	B 	0.13580 0.88270 0.01630 0.94900
Co	Co	0.37708 0.27665 0.81157 1.13700
O 	O 	0.38110 0.14670 0.88880 -0.40900
O 	O 	0.40240 0.13090 0.78540 -0.40700
N 	N 	0.78050 0.24470 0.19650 -0.24400
N 	N 	0.47390 0.30360 0.92470 -0.23600
N 	N 	0.57490 0.34550 0.99950 -0.31900
N 	N 	0.64970 0.62190 0.12910 -0.25100
N 	N 	0.68840 0.30900 0.08010 -0.32200
N 	N 	0.61480 0.36070 0.78330 -0.24900
N 	N 	0.62510 0.39460 0.91830 -0.31400
N 	N 	0.65360 0.48400 0.06440 -0.31700
C 	C 	0.41780 0.98860 0.88060 -0.31400
H 	H 	0.43180 0.95840 0.84370 0.12600
H 	H 	0.38010 0.95210 0.86530 0.12000
C 	C 	0.46940 0.97890 0.98580 -0.00900
H 	H 	0.47560 0.90840 0.00350 0.03200
H 	H 	0.45620 0.01230 0.02260 0.04100
C 	C 	0.68370 0.20750 0.06960 0.04000
H 	H 	0.64760 0.17130 0.02130 0.00500
C 	C 	0.51850 0.33360 0.91510 0.13200
H 	H 	0.51100 0.34520 0.85460 -0.03300
C 	C 	0.56570 0.31800 0.06780 0.04400
H 	H 	0.59700 0.31650 0.13550 -0.00200
C 	C 	0.74810 0.32440 0.15900 0.15200
H 	H 	0.76470 0.38780 0.18450 -0.03600
C 	C 	0.62350 0.53540 0.09300 0.13500
H 	H 	0.58740 0.51200 0.08790 -0.04200
C 	C 	0.50470 0.29370 0.02150 -0.01700
H 	H 	0.48570 0.27260 0.05170 0.02700
C 	C 	0.73950 0.17080 0.14010 -0.02000
H 	H 	0.74960 0.10280 0.15000 0.02200
C 	C 	0.63330 0.32840 0.86820 0.13800
H 	H 	0.65060 0.26490 0.89190 -0.03700
C 	C 	0.70260 0.54380 0.08310 0.04000
H 	H 	0.73260 0.52900 0.07040 0.00400
C 	C 	0.59330 0.45380 0.77760 -0.01600
H 	H 	0.57630 0.49680 0.72410 0.01700
C 	C 	0.59980 0.47520 0.85960 0.04200
H 	H 	0.58880 0.53550 0.87410 0.00200
C 	C 	0.69940 0.62740 0.12280 -0.01300
H 	H 	0.72740 0.68160 0.14330 0.02300
C 	C 	0.39930 0.09570 0.84910 0.37800
B 	B 	0.63580 0.38270 0.01630 0.95200
Co	Co	0.12292 0.77665 0.68843 1.13700
O 	O 	0.11890 0.64670 0.61120 -0.40900
O 	O 	0.09760 0.63090 0.71460 -0.40700
N 	N 	0.71950 0.74470 0.30350 -0.24400
N 	N 	0.02610 0.80360 0.57530 -0.23600
N 	N 	0.92510 0.84550 0.50050 -0.31900
N 	N 	0.85030 0.12190 0.37090 -0.25100
N 	N 	0.81160 0.80900 0.41990 -0.32200
N 	N 	0.88520 0.86070 0.71670 -0.24900
N 	N 	0.87490 0.89460 0.58170 -0.31400
N 	N 	0.84640 0.98400 0.43560 -0.31700
C 	C 	0.08220 0.48860 0.61940 -0.31400
H 	H 	0.06820 0.45840 0.65630 0.12600
H 	H 	0.11990 0.45210 0.63470 0.12000
C 	C 	0.03060 0.47890 0.51420 -0.01100
H 	H 	0.02440 0.40840 0.49650 0.03300
H 	H 	0.04380 0.51230 0.47740 0.04100
C 	C 	0.81630 0.70750 0.43040 0.04000
H 	H 	0.85240 0.67130 0.47870 0.00500
C 	C 	0.98150 0.83360 0.58490 0.13200
H 	H 	0.98900 0.84520 0.64540 -0.03300
C 	C 	0.93430 0.81800 0.43220 0.04400
H 	H 	0.90300 0.81650 0.36450 -0.00200
C 	C 	0.75190 0.82440 0.34100 0.15200
H 	H 	0.73530 0.88780 0.31550 -0.03600
C 	C 	0.87650 0.03540 0.40700 0.13500
H 	H 	0.91260 0.01200 0.41210 -0.04200
C 	C 	0.99530 0.79370 0.47850 -0.01900
H 	H 	0.01430 0.77260 0.44830 0.02700
C 	C 	0.76050 0.67080 0.35990 -0.02100
H 	H 	0.75040 0.60280 0.35000 0.02100
C 	C 	0.86670 0.82840 0.63180 0.13800
H 	H 	0.84940 0.76490 0.60810 -0.03700
C 	C 	0.79740 0.04380 0.41690 0.04000
H 	H 	0.76740 0.02900 0.42960 0.00400
C 	C 	0.90670 0.95380 0.72240 -0.01600
H 	H 	0.92370 0.99680 0.77590 0.01700
C 	C 	0.90020 0.97520 0.64040 0.04200
H 	H 	0.91120 0.03550 0.62590 0.00200
C 	C 	0.80060 0.12740 0.37720 -0.01300
H 	H 	0.77260 0.18160 0.35670 0.02300
C 	C 	0.10070 0.59570 0.65090 0.37900
B 	B 	0.86420 0.88270 0.48370 0.95100
Co	Co	0.62292 0.27665 0.68843 1.13700
O 	O 	0.61890 0.14670 0.61120 -0.40900
O 	O 	0.59760 0.13090 0.71460 -0.40700
N 	N 	0.21950 0.24470 0.30350 -0.24400
N 	N 	0.52610 0.30360 0.57530 -0.23600
N 	N 	0.42510 0.34550 0.50050 -0.31900
N 	N 	0.35030 0.62190 0.37090 -0.25100
N 	N 	0.31160 0.30900 0.41990 -0.32200
N 	N 	0.38520 0.36070 0.71670 -0.24900
N 	N 	0.37490 0.39460 0.58170 -0.31400
N 	N 	0.34640 0.48400 0.43560 -0.31700
C 	C 	0.58220 0.98860 0.61940 -0.31400
H 	H 	0.56820 0.95840 0.65630 0.12600
H 	H 	0.61990 0.95210 0.63470 0.12000
C 	C 	0.53060 0.97890 0.51420 -0.01100
H 	H 	0.52440 0.90840 0.49650 0.03300
H 	H 	0.54380 0.01230 0.47740 0.04100
C 	C 	0.31630 0.20750 0.43040 0.04000
H 	H 	0.35240 0.17130 0.47870 0.00500
C 	C 	0.48150 0.33360 0.58490 0.13200
H 	H 	0.48900 0.34520 0.64540 -0.03300
C 	C 	0.43430 0.31800 0.43220 0.04400
H 	H 	0.40300 0.31650 0.36450 -0.00200
C 	C 	0.25190 0.32440 0.34100 0.15200
H 	H 	0.23530 0.38780 0.31550 -0.03600
C 	C 	0.37650 0.53540 0.40700 0.13500
H 	H 	0.41260 0.51200 0.41210 -0.04200
C 	C 	0.49530 0.29370 0.47850 -0.01800
H 	H 	0.51430 0.27260 0.44830 0.02700
C 	C 	0.26050 0.17080 0.35990 -0.02100
H 	H 	0.25040 0.10280 0.35000 0.02100
C 	C 	0.36670 0.32840 0.63180 0.13800
H 	H 	0.34940 0.26490 0.60810 -0.03700
C 	C 	0.29740 0.54380 0.41690 0.03900
H 	H 	0.26740 0.52900 0.42960 0.00400
C 	C 	0.40670 0.45380 0.72240 -0.01600
H 	H 	0.42370 0.49680 0.77590 0.01700
C 	C 	0.40020 0.47520 0.64040 0.04200
H 	H 	0.41120 0.53550 0.62590 0.00200
C 	C 	0.30060 0.62740 0.37720 -0.01300
H 	H 	0.27260 0.68160 0.35670 0.02300
C 	C 	0.60070 0.09570 0.65090 0.37800
B 	B 	0.36420 0.38270 0.48370 0.95100
