data_crystal

_cell_length_a 10.09700
_cell_length_b 12.81010
_cell_length_c 10.92290
_cell_angle_alpha 90.00000
_cell_angle_beta  102.58100
_cell_angle_gamma 90.00000

_symmetry_space_group_name_	'P 1'
_symmetry_space_group_name_H-M	'P 1'

loop_
_symmetry_equiv_pos_as_xyz
  x,y,z

loop_
_atom_site_label
_atom_site_type_symbol
_atom_site_fract_x
_atom_site_fract_y
_atom_site_fract_z
_atom_site_charge
Zn	Zn	0.73124 0.35523 0.27988 1.21400
N 	N 	0.25840 0.74110 0.57390 -0.23600
N 	N 	0.26550 0.84620 0.58810 -0.04800
N 	N 	0.28060 0.88590 0.48180 -0.04700
N 	N 	0.28180 0.81070 0.39770 -0.23200
O 	O 	0.88950 0.45280 0.30590 -0.40900
O 	O 	0.00020 0.30630 0.28590 -0.29300
O 	O 	0.47520 0.32540 0.24910 -0.31200
O 	O 	0.59950 0.46670 0.30540 -0.39800
C 	C 	0.99660 0.40100 0.30370 0.30800
C 	C 	0.48670 0.41660 0.28610 0.29400
C 	C 	0.26780 0.72290 0.45780 0.14500
C 	C 	0.12860 0.46300 0.32930 -0.04600
C 	C 	0.24220 0.41740 0.29820 -0.00400
H 	H 	0.23560 0.35110 0.26290 0.07500
C 	C 	0.36560 0.47060 0.31970 -0.04400
C 	C 	0.37520 0.57150 0.36960 -0.01100
H 	H 	0.45680 0.60780 0.38200 0.06000
C 	C 	0.26050 0.61770 0.40090 -0.06900
C 	C 	0.13770 0.56310 0.38000 -0.00900
H 	H 	0.06170 0.59380 0.40000 0.05900
Zn	Zn	0.26876 0.85523 0.22012 1.21500
N 	N 	0.74160 0.24110 0.92610 -0.23400
N 	N 	0.73450 0.34620 0.91190 -0.04800
N 	N 	0.71940 0.38590 0.01820 -0.04700
N 	N 	0.71820 0.31070 0.10230 -0.23100
O 	O 	0.11050 0.95280 0.19410 -0.40800
O 	O 	0.99980 0.80630 0.21410 -0.28900
O 	O 	0.52480 0.82540 0.25090 -0.31100
O 	O 	0.40050 0.96670 0.19460 -0.39700
C 	C 	0.00340 0.90100 0.19630 0.30000
C 	C 	0.51330 0.91660 0.21390 0.29200
C 	C 	0.73220 0.22290 0.04220 0.14300
C 	C 	0.87140 0.96300 0.17070 -0.03300
C 	C 	0.75780 0.91740 0.20180 -0.01200
H 	H 	0.76440 0.85110 0.23710 0.07800
C 	C 	0.63440 0.97060 0.18030 -0.03700
C 	C 	0.62480 0.07150 0.13040 -0.02000
H 	H 	0.54320 0.10780 0.11800 0.06300
C 	C 	0.73950 0.11770 0.09910 -0.06200
C 	C 	0.86230 0.06310 0.12000 -0.02200
H 	H 	0.93830 0.09380 0.10000 0.06200
Zn	Zn	0.26876 0.64477 0.72012 1.21500
N 	N 	0.74160 0.25890 0.42610 -0.23500
N 	N 	0.73450 0.15380 0.41190 -0.04800
N 	N 	0.71940 0.11410 0.51820 -0.04700
N 	N 	0.71820 0.18930 0.60230 -0.23200
O 	O 	0.11050 0.54720 0.69410 -0.40900
O 	O 	0.99980 0.69370 0.71410 -0.29300
O 	O 	0.52480 0.67460 0.75090 -0.31200
O 	O 	0.40050 0.53330 0.69460 -0.39800
C 	C 	0.00340 0.59900 0.69630 0.30800
C 	C 	0.51330 0.58340 0.71390 0.29400
C 	C 	0.73220 0.27710 0.54220 0.14500
C 	C 	0.87140 0.53700 0.67070 -0.04600
C 	C 	0.75780 0.58260 0.70180 -0.00400
H 	H 	0.76440 0.64890 0.73710 0.07500
C 	C 	0.63440 0.52940 0.68030 -0.04400
C 	C 	0.62480 0.42850 0.63040 -0.01100
H 	H 	0.54320 0.39220 0.61800 0.06000
C 	C 	0.73950 0.38230 0.59910 -0.06900
C 	C 	0.86230 0.43690 0.62000 -0.00900
H 	H 	0.93830 0.40620 0.60000 0.05900
Zn	Zn	0.73124 0.14477 0.77988 1.21500
N 	N 	0.25840 0.75890 0.07390 -0.23400
N 	N 	0.26550 0.65380 0.08810 -0.04800
N 	N 	0.28060 0.61410 0.98180 -0.04700
N 	N 	0.28180 0.68930 0.89770 -0.23100
O 	O 	0.88950 0.04720 0.80590 -0.40800
O 	O 	0.00020 0.19370 0.78590 -0.28900
O 	O 	0.47520 0.17460 0.74910 -0.31100
O 	O 	0.59950 0.03330 0.80540 -0.39700
C 	C 	0.99660 0.09900 0.80370 0.30000
C 	C 	0.48670 0.08340 0.78610 0.29200
C 	C 	0.26780 0.77710 0.95780 0.14300
C 	C 	0.12860 0.03700 0.82930 -0.03300
C 	C 	0.24220 0.08260 0.79820 -0.01200
H 	H 	0.23560 0.14890 0.76290 0.07800
C 	C 	0.36560 0.02940 0.81970 -0.03700
C 	C 	0.37520 0.92850 0.86960 -0.02000
H 	H 	0.45680 0.89220 0.88200 0.06300
C 	C 	0.26050 0.88230 0.90090 -0.06200
C 	C 	0.13770 0.93690 0.88000 -0.02200
H 	H 	0.06170 0.90620 0.90000 0.06200
