data_crystal

_cell_length_a 19.25900
_cell_length_b 19.25900
_cell_length_c 61.22560
_cell_angle_alpha 90.00000
_cell_angle_beta  90.00000
_cell_angle_gamma 90.00000

_symmetry_space_group_name_	'P 1'
_symmetry_space_group_name_H-M	'P 1'

loop_
_symmetry_equiv_pos_as_xyz
  x,y,z

loop_
_atom_site_label
_atom_site_type_symbol
_atom_site_fract_x
_atom_site_fract_y
_atom_site_fract_z
_atom_site_charge
O 	O 	0.57032 0.44654 0.52481 -0.39700
O 	O 	0.57110 0.56140 0.52058 -0.40200
O 	O 	0.92880 0.67867 0.60665 -0.37500
C 	C 	0.76203 0.54031 0.60621 0.01200
C 	C 	0.63632 0.51408 0.54928 -0.10800
C 	C 	0.71907 0.53055 0.58638 0.05700
C 	C 	0.58946 0.50650 0.53008 0.36600
C 	C 	0.81398 0.59072 0.60625 -0.03500
H 	H 	0.82280 0.61690 0.59340 0.06300
C 	C 	0.69809 0.58816 0.57440 -0.10300
H 	H 	0.71200 0.63330 0.57890 0.07100
C 	C 	0.65668 0.58033 0.55579 0.04100
H 	H 	0.64250 0.61990 0.54770 0.03700
C 	C 	0.65769 0.45670 0.56098 0.04300
H 	H 	0.64440 0.41150 0.55630 0.03600
C 	C 	0.69861 0.46472 0.57953 -0.10600
H 	H 	0.71270 0.42500 0.58760 0.07200
C 	C 	0.55804 0.71429 0.49624 0.01500
H 	H 	0.60110 0.69030 0.49610 0.03800
O 	O 	0.07032 0.94654 0.02481 -0.41000
O 	O 	0.07110 0.06140 0.02058 -0.41300
O 	O 	0.42880 0.17867 0.10665 -0.40300
C 	C 	0.26203 0.04031 0.10621 0.00200
C 	C 	0.13632 0.01408 0.04928 -0.11700
C 	C 	0.21907 0.03055 0.08638 0.05600
C 	C 	0.08946 0.00650 0.03008 0.36300
C 	C 	0.31398 0.09072 0.10625 -0.03200
H 	H 	0.32280 0.11690 0.09340 0.05600
C 	C 	0.19809 0.08816 0.07440 -0.11100
H 	H 	0.21200 0.13330 0.07890 0.06700
C 	C 	0.15668 0.08033 0.05579 0.03900
H 	H 	0.14250 0.11990 0.04770 0.03100
C 	C 	0.15769 0.95670 0.06098 0.04200
H 	H 	0.14440 0.91150 0.05630 0.02900
C 	C 	0.19861 0.96472 0.07953 -0.11200
H 	H 	0.21270 0.92500 0.08760 0.06800
C 	C 	0.05804 0.21429 0.99624 0.00700
H 	H 	0.10110 0.19030 0.99610 0.03600
O 	O 	0.92968 0.55346 0.02481 -0.37300
O 	O 	0.92890 0.43860 0.02058 -0.37800
O 	O 	0.57120 0.32133 0.10665 -0.40200
C 	C 	0.73797 0.45969 0.10621 0.00900
C 	C 	0.86368 0.48592 0.04928 -0.10000
C 	C 	0.78093 0.46945 0.08638 0.05500
C 	C 	0.91054 0.49350 0.03008 0.36000
C 	C 	0.68602 0.40928 0.10625 -0.03400
H 	H 	0.67720 0.38310 0.09340 0.05800
C 	C 	0.80191 0.41184 0.07440 -0.10000
H 	H 	0.78800 0.36670 0.07890 0.07100
C 	C 	0.84332 0.41967 0.05579 0.03700
H 	H 	0.85750 0.38010 0.04770 0.04200
C 	C 	0.84231 0.54330 0.06098 0.04000
H 	H 	0.85560 0.58850 0.05630 0.04100
C 	C 	0.80139 0.53528 0.07953 -0.10200
H 	H 	0.78730 0.57500 0.08760 0.07100
C 	C 	0.94196 0.28571 0.99624 0.06200
H 	H 	0.89890 0.30970 0.99610 0.02700
O 	O 	0.42968 0.05346 0.52481 -0.40000
O 	O 	0.42890 0.93860 0.52058 -0.40400
O 	O 	0.07120 0.82133 0.60665 -0.41600
C 	C 	0.23797 0.95969 0.60621 0.00100
C 	C 	0.36368 0.98592 0.54928 -0.11200
C 	C 	0.28093 0.96945 0.58638 0.05600
C 	C 	0.41054 0.99350 0.53008 0.36400
C 	C 	0.18602 0.90928 0.60625 -0.03100
H 	H 	0.17720 0.88310 0.59340 0.05200
C 	C 	0.30191 0.91184 0.57440 -0.10800
H 	H 	0.28800 0.86670 0.57890 0.06800
C 	C 	0.34332 0.91967 0.55579 0.03800
H 	H 	0.35750 0.88010 0.54770 0.03500
C 	C 	0.34231 0.04330 0.56098 0.04100
H 	H 	0.35560 0.08850 0.55630 0.03300
C 	C 	0.30139 0.03528 0.57953 -0.11000
H 	H 	0.28730 0.07500 0.58760 0.06700
C 	C 	0.44196 0.78571 0.49624 0.01500
H 	H 	0.39890 0.80970 0.49610 0.03400
O 	O 	0.80346 0.32032 0.77481 -0.39500
O 	O 	0.68860 0.32110 0.77058 -0.40300
O 	O 	0.57133 0.67880 0.85665 -0.40200
C 	C 	0.70969 0.51203 0.85621 0.00800
C 	C 	0.73592 0.38632 0.79928 -0.10800
C 	C 	0.71945 0.46907 0.83638 0.05700
C 	C 	0.74350 0.33946 0.78008 0.36400
C 	C 	0.65928 0.56398 0.85625 -0.03300
H 	H 	0.63310 0.57280 0.84340 0.05800
C 	C 	0.66184 0.44809 0.82440 -0.10500
H 	H 	0.61670 0.46200 0.82890 0.06900
C 	C 	0.66967 0.40668 0.80579 0.03900
H 	H 	0.63010 0.39250 0.79770 0.03600
C 	C 	0.79330 0.40769 0.81098 0.04300
H 	H 	0.83850 0.39440 0.80630 0.04200
C 	C 	0.78528 0.44861 0.82953 -0.10500
H 	H 	0.82500 0.46270 0.83760 0.07600
C 	C 	0.53571 0.30804 0.74624 0.01500
H 	H 	0.55970 0.35110 0.74610 0.03600
O 	O 	0.30346 0.82032 0.27481 -0.40000
O 	O 	0.18860 0.82110 0.27058 -0.40700
O 	O 	0.07133 0.17880 0.35665 -0.41600
C 	C 	0.20969 0.01203 0.35621 0.00100
C 	C 	0.23592 0.88632 0.29928 -0.11300
C 	C 	0.21945 0.96907 0.33638 0.05500
C 	C 	0.24350 0.83946 0.28008 0.36400
C 	C 	0.15928 0.06398 0.35625 -0.03100
H 	H 	0.13310 0.07280 0.34340 0.05000
C 	C 	0.16184 0.94809 0.32440 -0.10900
H 	H 	0.11670 0.96200 0.32890 0.06000
C 	C 	0.16967 0.90668 0.30579 0.03700
H 	H 	0.13010 0.89250 0.29770 0.02800
C 	C 	0.29330 0.90769 0.31098 0.04200
H 	H 	0.33850 0.89440 0.30630 0.03400
C 	C 	0.28528 0.94861 0.32953 -0.10900
H 	H 	0.32500 0.96270 0.33760 0.07000
C 	C 	0.03571 0.80804 0.24624 -0.10200
H 	H 	0.05970 0.85110 0.24610 0.06200
O 	O 	0.69654 0.67968 0.27481 -0.39800
O 	O 	0.81140 0.67890 0.27058 -0.39900
O 	O 	0.92867 0.32120 0.35665 -0.37700
C 	C 	0.79031 0.48797 0.35621 0.01100
C 	C 	0.76408 0.61368 0.29928 -0.10800
C 	C 	0.78055 0.53093 0.33638 0.05700
C 	C 	0.75650 0.66054 0.28008 0.36400
C 	C 	0.84072 0.43602 0.35625 -0.03600
H 	H 	0.86690 0.42720 0.34340 0.06400
C 	C 	0.83816 0.55191 0.32440 -0.10300
H 	H 	0.88330 0.53800 0.32890 0.07800
C 	C 	0.83033 0.59332 0.30579 0.04100
H 	H 	0.86990 0.60750 0.29770 0.04400
C 	C 	0.70670 0.59231 0.31098 0.04200
H 	H 	0.66150 0.60560 0.30630 0.03500
C 	C 	0.71472 0.55139 0.32953 -0.10600
H 	H 	0.67500 0.53730 0.33760 0.07000
C 	C 	0.96429 0.69196 0.24624 0.13300
H 	H 	0.94030 0.64890 0.24610 0.01000
O 	O 	0.19654 0.17968 0.77481 -0.40300
O 	O 	0.31140 0.17890 0.77058 -0.40400
O 	O 	0.42867 0.82120 0.85665 -0.40400
C 	C 	0.29031 0.98797 0.85621 0.00300
C 	C 	0.26408 0.11368 0.79928 -0.11300
C 	C 	0.28055 0.03093 0.83638 0.05500
C 	C 	0.25650 0.16054 0.78008 0.36400
C 	C 	0.34072 0.93602 0.85625 -0.03300
H 	H 	0.36690 0.92720 0.84340 0.05600
C 	C 	0.33816 0.05191 0.82440 -0.10700
H 	H 	0.38330 0.03800 0.82890 0.06900
C 	C 	0.33033 0.09332 0.80579 0.03900
H 	H 	0.36990 0.10750 0.79770 0.03500
C 	C 	0.20670 0.09231 0.81098 0.04100
H 	H 	0.16150 0.10560 0.80630 0.02800
C 	C 	0.21472 0.05139 0.82953 -0.11000
H 	H 	0.17500 0.03730 0.83760 0.06300
C 	C 	0.46429 0.19196 0.74624 0.01500
H 	H 	0.44030 0.14890 0.74610 0.03500
O 	O 	0.92968 0.44654 0.97519 -0.37300
O 	O 	0.92890 0.56140 0.97942 -0.37800
O 	O 	0.57120 0.67867 0.89335 -0.40200
C 	C 	0.73797 0.54031 0.89379 0.00900
C 	C 	0.86368 0.51408 0.95072 -0.10000
C 	C 	0.78093 0.53055 0.91362 0.05500
C 	C 	0.91054 0.50650 0.96992 0.36000
C 	C 	0.68602 0.59072 0.89375 -0.03400
H 	H 	0.67720 0.61690 0.90660 0.05800
C 	C 	0.80191 0.58816 0.92560 -0.10000
H 	H 	0.78800 0.63330 0.92110 0.07100
C 	C 	0.84332 0.58033 0.94421 0.03700
H 	H 	0.85750 0.61990 0.95230 0.04200
C 	C 	0.84231 0.45670 0.93902 0.04000
H 	H 	0.85560 0.41150 0.94370 0.04100
C 	C 	0.80139 0.46472 0.92047 -0.10200
H 	H 	0.78730 0.42500 0.91240 0.07100
C 	C 	0.94196 0.71429 0.00376 0.06200
H 	H 	0.89890 0.69030 0.00390 0.02700
O 	O 	0.42968 0.94654 0.47519 -0.40000
O 	O 	0.42890 0.06140 0.47942 -0.40400
O 	O 	0.07120 0.17867 0.39335 -0.41600
C 	C 	0.23797 0.04031 0.39379 0.00100
C 	C 	0.36368 0.01408 0.45072 -0.11200
C 	C 	0.28093 0.03055 0.41362 0.05600
C 	C 	0.41054 0.00650 0.46992 0.36400
C 	C 	0.18602 0.09072 0.39375 -0.03100
H 	H 	0.17720 0.11690 0.40660 0.05200
C 	C 	0.30191 0.08816 0.42560 -0.10800
H 	H 	0.28800 0.13330 0.42110 0.06800
C 	C 	0.34332 0.08033 0.44421 0.03800
H 	H 	0.35750 0.11990 0.45230 0.03500
C 	C 	0.34231 0.95670 0.43902 0.04100
H 	H 	0.35560 0.91150 0.44370 0.03300
C 	C 	0.30139 0.96472 0.42047 -0.11000
H 	H 	0.28730 0.92500 0.41240 0.06700
C 	C 	0.44196 0.21429 0.50376 0.01500
H 	H 	0.39890 0.19030 0.50390 0.03400
O 	O 	0.57032 0.55346 0.47519 -0.39800
O 	O 	0.57110 0.43860 0.47942 -0.40300
O 	O 	0.92880 0.32133 0.39335 -0.37600
C 	C 	0.76203 0.45969 0.39379 0.01100
C 	C 	0.63632 0.48592 0.45072 -0.10900
C 	C 	0.71907 0.46945 0.41362 0.05600
C 	C 	0.58946 0.49350 0.46992 0.36500
C 	C 	0.81398 0.40928 0.39375 -0.03600
H 	H 	0.82280 0.38310 0.40660 0.06200
C 	C 	0.69809 0.41184 0.42560 -0.10400
H 	H 	0.71200 0.36670 0.42110 0.07000
C 	C 	0.65668 0.41967 0.44421 0.04000
H 	H 	0.64250 0.38010 0.45230 0.03700
C 	C 	0.65769 0.54330 0.43902 0.04300
H 	H 	0.64440 0.58850 0.44370 0.03600
C 	C 	0.69861 0.53528 0.42047 -0.10600
H 	H 	0.71270 0.57500 0.41240 0.07200
C 	C 	0.55804 0.28571 0.50376 0.01500
H 	H 	0.60110 0.30970 0.50390 0.03800
O 	O 	0.07032 0.05346 0.97519 -0.41000
O 	O 	0.07110 0.93860 0.97942 -0.41300
O 	O 	0.42880 0.82133 0.89335 -0.40300
C 	C 	0.26203 0.95969 0.89379 0.00200
C 	C 	0.13632 0.98592 0.95072 -0.11700
C 	C 	0.21907 0.96945 0.91362 0.05600
C 	C 	0.08946 0.99350 0.96992 0.36300
C 	C 	0.31398 0.90928 0.89375 -0.03200
H 	H 	0.32280 0.88310 0.90660 0.05600
C 	C 	0.19809 0.91184 0.92560 -0.11100
H 	H 	0.21200 0.86670 0.92110 0.06700
C 	C 	0.15668 0.91967 0.94421 0.03900
H 	H 	0.14250 0.88010 0.95230 0.03100
C 	C 	0.15769 0.04330 0.93902 0.04200
H 	H 	0.14440 0.08850 0.94370 0.02900
C 	C 	0.19861 0.03528 0.92047 -0.11200
H 	H 	0.21270 0.07500 0.91240 0.06800
C 	C 	0.05804 0.78571 0.00376 0.00700
H 	H 	0.10110 0.80970 0.00390 0.03600
O 	O 	0.69654 0.32032 0.72519 -0.39800
O 	O 	0.81140 0.32110 0.72942 -0.39900
O 	O 	0.92867 0.67880 0.64335 -0.37700
C 	C 	0.79031 0.51203 0.64379 0.01100
C 	C 	0.76408 0.38632 0.70072 -0.10800
C 	C 	0.78055 0.46907 0.66362 0.05700
C 	C 	0.75650 0.33946 0.71992 0.36400
C 	C 	0.84072 0.56398 0.64375 -0.03600
H 	H 	0.86690 0.57280 0.65660 0.06400
C 	C 	0.83816 0.44809 0.67560 -0.10300
H 	H 	0.88330 0.46200 0.67110 0.07800
C 	C 	0.83033 0.40668 0.69421 0.04100
H 	H 	0.86990 0.39250 0.70230 0.04400
C 	C 	0.70670 0.40769 0.68902 0.04200
H 	H 	0.66150 0.39440 0.69370 0.03500
C 	C 	0.71472 0.44861 0.67047 -0.10600
H 	H 	0.67500 0.46270 0.66240 0.07000
C 	C 	0.96429 0.30804 0.75376 0.13300
H 	H 	0.94030 0.35110 0.75390 0.01000
O 	O 	0.19654 0.82032 0.22519 -0.40300
O 	O 	0.31140 0.82110 0.22942 -0.40400
O 	O 	0.42867 0.17880 0.14335 -0.40400
C 	C 	0.29031 0.01203 0.14379 0.00300
C 	C 	0.26408 0.88632 0.20072 -0.11300
C 	C 	0.28055 0.96907 0.16362 0.05500
C 	C 	0.25650 0.83946 0.21992 0.36400
C 	C 	0.34072 0.06398 0.14375 -0.03300
H 	H 	0.36690 0.07280 0.15660 0.05600
C 	C 	0.33816 0.94809 0.17560 -0.10700
H 	H 	0.38330 0.96200 0.17110 0.06900
C 	C 	0.33033 0.90668 0.19421 0.03900
H 	H 	0.36990 0.89250 0.20230 0.03500
C 	C 	0.20670 0.90769 0.18902 0.04100
H 	H 	0.16150 0.89440 0.19370 0.02800
C 	C 	0.21472 0.94861 0.17047 -0.11000
H 	H 	0.17500 0.96270 0.16240 0.06300
C 	C 	0.46429 0.80804 0.25376 0.01500
H 	H 	0.44030 0.85110 0.25390 0.03500
O 	O 	0.80346 0.67968 0.22519 -0.39500
O 	O 	0.68860 0.67890 0.22942 -0.40300
O 	O 	0.57133 0.32120 0.14335 -0.40200
C 	C 	0.70969 0.48797 0.14379 0.00800
C 	C 	0.73592 0.61368 0.20072 -0.10800
C 	C 	0.71945 0.53093 0.16362 0.05700
C 	C 	0.74350 0.66054 0.21992 0.36400
C 	C 	0.65928 0.43602 0.14375 -0.03300
H 	H 	0.63310 0.42720 0.15660 0.05800
C 	C 	0.66184 0.55191 0.17560 -0.10500
H 	H 	0.61670 0.53800 0.17110 0.06900
C 	C 	0.66967 0.59332 0.19421 0.03900
H 	H 	0.63010 0.60750 0.20230 0.03600
C 	C 	0.79330 0.59231 0.18902 0.04300
H 	H 	0.83850 0.60560 0.19370 0.04200
C 	C 	0.78528 0.55139 0.17047 -0.10500
H 	H 	0.82500 0.53730 0.16240 0.07600
C 	C 	0.53571 0.69196 0.25376 0.01500
H 	H 	0.55970 0.64890 0.25390 0.03600
O 	O 	0.30346 0.17968 0.72519 -0.40000
O 	O 	0.18860 0.17890 0.72942 -0.40700
O 	O 	0.07133 0.82120 0.64335 -0.41600
C 	C 	0.20969 0.98797 0.64379 0.00100
C 	C 	0.23592 0.11368 0.70072 -0.11300
C 	C 	0.21945 0.03093 0.66362 0.05500
C 	C 	0.24350 0.16054 0.71992 0.36400
C 	C 	0.15928 0.93602 0.64375 -0.03100
H 	H 	0.13310 0.92720 0.65660 0.05000
C 	C 	0.16184 0.05191 0.67560 -0.10900
H 	H 	0.11670 0.03800 0.67110 0.06000
C 	C 	0.16967 0.09332 0.69421 0.03700
H 	H 	0.13010 0.10750 0.70230 0.02800
C 	C 	0.29330 0.09231 0.68902 0.04200
H 	H 	0.33850 0.10560 0.69370 0.03400
C 	C 	0.28528 0.05139 0.67047 -0.10900
H 	H 	0.32500 0.03730 0.66240 0.07000
C 	C 	0.03571 0.19196 0.75376 -0.10200
H 	H 	0.05970 0.14890 0.75390 0.06200
O 	O 	0.42968 0.55346 0.47519 -0.40000
O 	O 	0.42890 0.43860 0.47942 -0.40400
O 	O 	0.07120 0.32133 0.39335 -0.41700
C 	C 	0.23797 0.45969 0.39379 0.00100
C 	C 	0.36368 0.48592 0.45072 -0.11200
C 	C 	0.28093 0.46945 0.41362 0.05500
C 	C 	0.41054 0.49350 0.46992 0.36400
C 	C 	0.18602 0.40928 0.39375 -0.03100
H 	H 	0.17720 0.38310 0.40660 0.05200
C 	C 	0.30191 0.41184 0.42560 -0.10800
H 	H 	0.28800 0.36670 0.42110 0.06800
C 	C 	0.34332 0.41967 0.44421 0.03800
H 	H 	0.35750 0.38010 0.45230 0.03500
C 	C 	0.34231 0.54330 0.43902 0.04100
H 	H 	0.35560 0.58850 0.44370 0.03300
C 	C 	0.30139 0.53528 0.42047 -0.11000
H 	H 	0.28730 0.57500 0.41240 0.06700
C 	C 	0.44196 0.28571 0.50376 0.01500
H 	H 	0.39890 0.30970 0.50390 0.03400
O 	O 	0.92968 0.05346 0.97519 -0.37400
O 	O 	0.92890 0.93860 0.97942 -0.37800
O 	O 	0.57120 0.82133 0.89335 -0.40200
C 	C 	0.73797 0.95969 0.89379 0.00900
C 	C 	0.86368 0.98592 0.95072 -0.10000
C 	C 	0.78093 0.96945 0.91362 0.05500
C 	C 	0.91054 0.99350 0.96992 0.35900
C 	C 	0.68602 0.90928 0.89375 -0.03400
H 	H 	0.67720 0.88310 0.90660 0.05800
C 	C 	0.80191 0.91184 0.92560 -0.10000
H 	H 	0.78800 0.86670 0.92110 0.07100
C 	C 	0.84332 0.91967 0.94421 0.03700
H 	H 	0.85750 0.88010 0.95230 0.04200
C 	C 	0.84231 0.04330 0.93902 0.04000
H 	H 	0.85560 0.08850 0.94370 0.04100
C 	C 	0.80139 0.03528 0.92047 -0.10200
H 	H 	0.78730 0.07500 0.91240 0.07100
C 	C 	0.94196 0.78571 0.00376 0.06100
H 	H 	0.89890 0.80970 0.00390 0.02700
O 	O 	0.07032 0.44654 0.97519 -0.41000
O 	O 	0.07110 0.56140 0.97942 -0.41300
O 	O 	0.42880 0.67867 0.89335 -0.40300
C 	C 	0.26203 0.54031 0.89379 0.00200
C 	C 	0.13632 0.51408 0.95072 -0.11700
C 	C 	0.21907 0.53055 0.91362 0.05600
C 	C 	0.08946 0.50650 0.96992 0.36200
C 	C 	0.31398 0.59072 0.89375 -0.03200
H 	H 	0.32280 0.61690 0.90660 0.05600
C 	C 	0.19809 0.58816 0.92560 -0.11000
H 	H 	0.21200 0.63330 0.92110 0.06700
C 	C 	0.15668 0.58033 0.94421 0.03900
H 	H 	0.14250 0.61990 0.95230 0.03100
C 	C 	0.15769 0.45670 0.93902 0.04200
H 	H 	0.14440 0.41150 0.94370 0.02900
C 	C 	0.19861 0.46472 0.92047 -0.11200
H 	H 	0.21270 0.42500 0.91240 0.06800
C 	C 	0.05804 0.71429 0.00376 0.00700
H 	H 	0.10110 0.69030 0.00390 0.03600
O 	O 	0.57032 0.94654 0.47519 -0.39800
O 	O 	0.57110 0.06140 0.47942 -0.40300
O 	O 	0.92880 0.17867 0.39335 -0.37600
C 	C 	0.76203 0.04031 0.39379 0.01000
C 	C 	0.63632 0.01408 0.45072 -0.10900
C 	C 	0.71907 0.03055 0.41362 0.05700
C 	C 	0.58946 0.00650 0.46992 0.36500
C 	C 	0.81398 0.09072 0.39375 -0.03600
H 	H 	0.82280 0.11690 0.40660 0.06200
C 	C 	0.69809 0.08816 0.42560 -0.10400
H 	H 	0.71200 0.13330 0.42110 0.07000
C 	C 	0.65668 0.08033 0.44421 0.04000
H 	H 	0.64250 0.11990 0.45230 0.03700
C 	C 	0.65769 0.95670 0.43902 0.04300
H 	H 	0.64440 0.91150 0.44370 0.03600
C 	C 	0.69861 0.96472 0.42047 -0.10600
H 	H 	0.71270 0.92500 0.41240 0.07200
C 	C 	0.55804 0.21429 0.50376 0.01500
H 	H 	0.60110 0.19030 0.50390 0.03800
O 	O 	0.19654 0.67968 0.22519 -0.40300
O 	O 	0.31140 0.67890 0.22942 -0.40400
O 	O 	0.42867 0.32120 0.14335 -0.40400
C 	C 	0.29031 0.48797 0.14379 0.00300
C 	C 	0.26408 0.61368 0.20072 -0.11300
C 	C 	0.28055 0.53093 0.16362 0.05500
C 	C 	0.25650 0.66054 0.21992 0.36500
C 	C 	0.34072 0.43602 0.14375 -0.03300
H 	H 	0.36690 0.42720 0.15660 0.05600
C 	C 	0.33816 0.55191 0.17560 -0.10800
H 	H 	0.38330 0.53800 0.17110 0.06900
C 	C 	0.33033 0.59332 0.19421 0.03900
H 	H 	0.36990 0.60750 0.20230 0.03500
C 	C 	0.20670 0.59231 0.18902 0.04100
H 	H 	0.16150 0.60560 0.19370 0.02700
C 	C 	0.21472 0.55139 0.17047 -0.11100
H 	H 	0.17500 0.53730 0.16240 0.06300
C 	C 	0.46429 0.69196 0.25376 0.01500
H 	H 	0.44030 0.64890 0.25390 0.03500
O 	O 	0.69654 0.17968 0.72519 -0.39800
O 	O 	0.81140 0.17890 0.72942 -0.40000
O 	O 	0.92867 0.82120 0.64335 -0.37700
C 	C 	0.79031 0.98797 0.64379 0.01100
C 	C 	0.76408 0.11368 0.70072 -0.10800
C 	C 	0.78055 0.03093 0.66362 0.05600
C 	C 	0.75650 0.16054 0.71992 0.36400
C 	C 	0.84072 0.93602 0.64375 -0.03600
H 	H 	0.86690 0.92720 0.65660 0.06400
C 	C 	0.83816 0.05191 0.67560 -0.10300
H 	H 	0.88330 0.03800 0.67110 0.07800
C 	C 	0.83033 0.09332 0.69421 0.04100
H 	H 	0.86990 0.10750 0.70230 0.04400
C 	C 	0.70670 0.09231 0.68902 0.04200
H 	H 	0.66150 0.10560 0.69370 0.03500
C 	C 	0.71472 0.05139 0.67047 -0.10600
H 	H 	0.67500 0.03730 0.66240 0.06900
C 	C 	0.96429 0.19196 0.75376 0.13200
H 	H 	0.94030 0.14890 0.75390 0.01000
O 	O 	0.30346 0.32032 0.72519 -0.40000
O 	O 	0.18860 0.32110 0.72942 -0.40700
O 	O 	0.07133 0.67880 0.64335 -0.41600
C 	C 	0.20969 0.51203 0.64379 0.00100
C 	C 	0.23592 0.38632 0.70072 -0.11300
C 	C 	0.21945 0.46907 0.66362 0.05500
C 	C 	0.24350 0.33946 0.71992 0.36400
C 	C 	0.15928 0.56398 0.64375 -0.03100
H 	H 	0.13310 0.57280 0.65660 0.05000
C 	C 	0.16184 0.44809 0.67560 -0.10900
H 	H 	0.11670 0.46200 0.67110 0.06000
C 	C 	0.16967 0.40668 0.69421 0.03700
H 	H 	0.13010 0.39250 0.70230 0.02800
C 	C 	0.29330 0.40769 0.68902 0.04200
H 	H 	0.33850 0.39440 0.69370 0.03400
C 	C 	0.28528 0.44861 0.67047 -0.11000
H 	H 	0.32500 0.46270 0.66240 0.07000
C 	C 	0.03571 0.30804 0.75376 -0.10200
H 	H 	0.05970 0.35110 0.75390 0.06200
O 	O 	0.80346 0.82032 0.22519 -0.39500
O 	O 	0.68860 0.82110 0.22942 -0.40300
O 	O 	0.57133 0.17880 0.14335 -0.40200
C 	C 	0.70969 0.01203 0.14379 0.00900
C 	C 	0.73592 0.88632 0.20072 -0.10800
C 	C 	0.71945 0.96907 0.16362 0.05600
C 	C 	0.74350 0.83946 0.21992 0.36400
C 	C 	0.65928 0.06398 0.14375 -0.03400
H 	H 	0.63310 0.07280 0.15660 0.05800
C 	C 	0.66184 0.94809 0.17560 -0.10500
H 	H 	0.61670 0.96200 0.17110 0.06900
C 	C 	0.66967 0.90668 0.19421 0.03900
H 	H 	0.63010 0.89250 0.20230 0.03600
C 	C 	0.79330 0.90769 0.18902 0.04300
H 	H 	0.83850 0.89440 0.19370 0.04100
C 	C 	0.78528 0.94861 0.17047 -0.10500
H 	H 	0.82500 0.96270 0.16240 0.07600
C 	C 	0.53571 0.80804 0.25376 0.01500
H 	H 	0.55970 0.85110 0.25390 0.03600
O 	O 	0.07032 0.55346 0.02481 -0.41000
O 	O 	0.07110 0.43860 0.02058 -0.41300
O 	O 	0.42880 0.32133 0.10665 -0.40300
C 	C 	0.26203 0.45969 0.10621 0.00200
C 	C 	0.13632 0.48592 0.04928 -0.11700
C 	C 	0.21907 0.46945 0.08638 0.05600
C 	C 	0.08946 0.49350 0.03008 0.36200
C 	C 	0.31398 0.40928 0.10625 -0.03200
H 	H 	0.32280 0.38310 0.09340 0.05600
C 	C 	0.19809 0.41184 0.07440 -0.11000
H 	H 	0.21200 0.36670 0.07890 0.06700
C 	C 	0.15668 0.41967 0.05579 0.03900
H 	H 	0.14250 0.38010 0.04770 0.03100
C 	C 	0.15769 0.54330 0.06098 0.04200
H 	H 	0.14440 0.58850 0.05630 0.02900
C 	C 	0.19861 0.53528 0.07953 -0.11200
H 	H 	0.21270 0.57500 0.08760 0.06800
C 	C 	0.05804 0.28571 0.99624 0.00700
H 	H 	0.10110 0.30970 0.99610 0.03600
O 	O 	0.57032 0.05346 0.52481 -0.39800
O 	O 	0.57110 0.93860 0.52058 -0.40300
O 	O 	0.92880 0.82133 0.60665 -0.37600
C 	C 	0.76203 0.95969 0.60621 0.01000
C 	C 	0.63632 0.98592 0.54928 -0.10900
C 	C 	0.71907 0.96945 0.58638 0.05700
C 	C 	0.58946 0.99350 0.53008 0.36500
C 	C 	0.81398 0.90928 0.60625 -0.03600
H 	H 	0.82280 0.88310 0.59340 0.06200
C 	C 	0.69809 0.91184 0.57440 -0.10400
H 	H 	0.71200 0.86670 0.57890 0.07000
C 	C 	0.65668 0.91967 0.55579 0.04000
H 	H 	0.64250 0.88010 0.54770 0.03700
C 	C 	0.65769 0.04330 0.56098 0.04300
H 	H 	0.64440 0.08850 0.55630 0.03600
C 	C 	0.69861 0.03528 0.57953 -0.10600
H 	H 	0.71270 0.07500 0.58760 0.07200
C 	C 	0.55804 0.78571 0.49624 0.01500
H 	H 	0.60110 0.80970 0.49610 0.03800
O 	O 	0.42968 0.44654 0.52481 -0.40000
O 	O 	0.42890 0.56140 0.52058 -0.40400
O 	O 	0.07120 0.67867 0.60665 -0.41700
C 	C 	0.23797 0.54031 0.60621 0.00100
C 	C 	0.36368 0.51408 0.54928 -0.11200
C 	C 	0.28093 0.53055 0.58638 0.05500
C 	C 	0.41054 0.50650 0.53008 0.36400
C 	C 	0.18602 0.59072 0.60625 -0.03100
H 	H 	0.17720 0.61690 0.59340 0.05200
C 	C 	0.30191 0.58816 0.57440 -0.10800
H 	H 	0.28800 0.63330 0.57890 0.06800
C 	C 	0.34332 0.58033 0.55579 0.03800
H 	H 	0.35750 0.61990 0.54770 0.03500
C 	C 	0.34231 0.45670 0.56098 0.04100
H 	H 	0.35560 0.41150 0.55630 0.03300
C 	C 	0.30139 0.46472 0.57953 -0.11000
H 	H 	0.28730 0.42500 0.58760 0.06700
C 	C 	0.44196 0.71429 0.49624 0.01500
H 	H 	0.39890 0.69030 0.49610 0.03400
O 	O 	0.92968 0.94654 0.02481 -0.37400
O 	O 	0.92890 0.06140 0.02058 -0.37800
O 	O 	0.57120 0.17867 0.10665 -0.40200
C 	C 	0.73797 0.04031 0.10621 0.00900
C 	C 	0.86368 0.01408 0.04928 -0.10000
C 	C 	0.78093 0.03055 0.08638 0.05500
C 	C 	0.91054 0.00650 0.03008 0.35900
C 	C 	0.68602 0.09072 0.10625 -0.03400
H 	H 	0.67720 0.11690 0.09340 0.05800
C 	C 	0.80191 0.08816 0.07440 -0.10000
H 	H 	0.78800 0.13330 0.07890 0.07100
C 	C 	0.84332 0.08033 0.05579 0.03700
H 	H 	0.85750 0.11990 0.04770 0.04200
C 	C 	0.84231 0.95670 0.06098 0.04000
H 	H 	0.85560 0.91150 0.05630 0.04100
C 	C 	0.80139 0.96472 0.07953 -0.10200
H 	H 	0.78730 0.92500 0.08760 0.07100
C 	C 	0.94196 0.21429 0.99624 0.06100
H 	H 	0.89890 0.19030 0.99610 0.02700
O 	O 	0.30346 0.67968 0.27481 -0.40000
O 	O 	0.18860 0.67890 0.27058 -0.40700
O 	O 	0.07133 0.32120 0.35665 -0.41600
C 	C 	0.20969 0.48797 0.35621 0.00100
C 	C 	0.23592 0.61368 0.29928 -0.11300
C 	C 	0.21945 0.53093 0.33638 0.05500
C 	C 	0.24350 0.66054 0.28008 0.36400
C 	C 	0.15928 0.43602 0.35625 -0.03100
H 	H 	0.13310 0.42720 0.34340 0.05000
C 	C 	0.16184 0.55191 0.32440 -0.10900
H 	H 	0.11670 0.53800 0.32890 0.06000
C 	C 	0.16967 0.59332 0.30579 0.03700
H 	H 	0.13010 0.60750 0.29770 0.02800
C 	C 	0.29330 0.59231 0.31098 0.04200
H 	H 	0.33850 0.60560 0.30630 0.03400
C 	C 	0.28528 0.55139 0.32953 -0.11000
H 	H 	0.32500 0.53730 0.33760 0.07000
C 	C 	0.03571 0.69196 0.24624 -0.10200
H 	H 	0.05970 0.64890 0.24610 0.06200
O 	O 	0.80346 0.17968 0.77481 -0.39500
O 	O 	0.68860 0.17890 0.77058 -0.40300
O 	O 	0.57133 0.82120 0.85665 -0.40200
C 	C 	0.70969 0.98797 0.85621 0.00900
C 	C 	0.73592 0.11368 0.79928 -0.10800
C 	C 	0.71945 0.03093 0.83638 0.05600
C 	C 	0.74350 0.16054 0.78008 0.36400
C 	C 	0.65928 0.93602 0.85625 -0.03400
H 	H 	0.63310 0.92720 0.84340 0.05800
C 	C 	0.66184 0.05191 0.82440 -0.10500
H 	H 	0.61670 0.03800 0.82890 0.06900
C 	C 	0.66967 0.09332 0.80579 0.03900
H 	H 	0.63010 0.10750 0.79770 0.03600
C 	C 	0.79330 0.09231 0.81098 0.04300
H 	H 	0.83850 0.10560 0.80630 0.04100
C 	C 	0.78528 0.05139 0.82953 -0.10500
H 	H 	0.82500 0.03730 0.83760 0.07600
C 	C 	0.53571 0.19196 0.74624 0.01500
H 	H 	0.55970 0.14890 0.74610 0.03600
O 	O 	0.19654 0.32032 0.77481 -0.40300
O 	O 	0.31140 0.32110 0.77058 -0.40400
O 	O 	0.42867 0.67880 0.85665 -0.40400
C 	C 	0.29031 0.51203 0.85621 0.00300
C 	C 	0.26408 0.38632 0.79928 -0.11300
C 	C 	0.28055 0.46907 0.83638 0.05500
C 	C 	0.25650 0.33946 0.78008 0.36500
C 	C 	0.34072 0.56398 0.85625 -0.03300
H 	H 	0.36690 0.57280 0.84340 0.05600
C 	C 	0.33816 0.44809 0.82440 -0.10800
H 	H 	0.38330 0.46200 0.82890 0.06900
C 	C 	0.33033 0.40668 0.80579 0.03900
H 	H 	0.36990 0.39250 0.79770 0.03500
C 	C 	0.20670 0.40769 0.81098 0.04100
H 	H 	0.16150 0.39440 0.80630 0.02700
C 	C 	0.21472 0.44861 0.82953 -0.11100
H 	H 	0.17500 0.46270 0.83760 0.06300
C 	C 	0.46429 0.30804 0.74624 0.01500
H 	H 	0.44030 0.35110 0.74610 0.03500
O 	O 	0.69654 0.82032 0.27481 -0.39800
O 	O 	0.81140 0.82110 0.27058 -0.40000
O 	O 	0.92867 0.17880 0.35665 -0.37700
C 	C 	0.79031 0.01203 0.35621 0.01100
C 	C 	0.76408 0.88632 0.29928 -0.10800
C 	C 	0.78055 0.96907 0.33638 0.05600
C 	C 	0.75650 0.83946 0.28008 0.36400
C 	C 	0.84072 0.06398 0.35625 -0.03600
H 	H 	0.86690 0.07280 0.34340 0.06400
C 	C 	0.83816 0.94809 0.32440 -0.10300
H 	H 	0.88330 0.96200 0.32890 0.07800
C 	C 	0.83033 0.90668 0.30579 0.04100
H 	H 	0.86990 0.89250 0.29770 0.04400
C 	C 	0.70670 0.90769 0.31098 0.04200
H 	H 	0.66150 0.89440 0.30630 0.03500
C 	C 	0.71472 0.94861 0.32953 -0.10600
H 	H 	0.67500 0.96270 0.33760 0.06900
C 	C 	0.96429 0.80804 0.24624 0.13200
H 	H 	0.94030 0.85110 0.24610 0.01000
Cu	Cu	0.50000 0.56706 0.49777 0.91800
N 	N 	0.50000 0.67843 0.49643 -0.16500
Cu	Cu	0.00000 0.06706 0.99777 0.89700
N 	N 	0.00000 0.17843 0.99643 -0.20000
Cu	Cu	0.00000 0.43294 0.99777 0.89700
N 	N 	0.00000 0.32157 0.99643 -0.20000
Cu	Cu	0.50000 0.93294 0.49777 0.91800
N 	N 	0.50000 0.82157 0.49643 -0.16500
Cu	Cu	0.68294 0.25000 0.74777 0.91800
N 	N 	0.57157 0.25000 0.74643 -0.16500
Cu	Cu	0.81706 0.75000 0.24777 0.91900
N 	N 	0.92843 0.75000 0.24643 -0.19900
Cu	Cu	0.00000 0.56706 0.00223 0.89700
N 	N 	0.00000 0.67843 0.00357 -0.20000
Cu	Cu	0.50000 0.06706 0.50223 0.91800
N 	N 	0.50000 0.17843 0.50357 -0.16500
Cu	Cu	0.50000 0.43294 0.50223 0.91800
N 	N 	0.50000 0.32157 0.50357 -0.16500
Cu	Cu	-0.00000 0.93294 0.00223 0.89700
N 	N 	0.00000 0.82157 0.00357 -0.20000
Cu	Cu	0.81706 0.25000 0.75223 0.91900
N 	N 	0.92843 0.25000 0.75357 -0.19900
Cu	Cu	0.68294 0.75000 0.25223 0.91800
N 	N 	0.57157 0.75000 0.25357 -0.16500
Cu	Cu	0.31706 0.75000 0.25223 0.91800
N 	N 	0.42843 0.75000 0.25357 -0.16500
Cu	Cu	0.18294 0.25000 0.75223 0.91700
N 	N 	0.07157 0.25000 0.75357 -0.13000
Cu	Cu	0.18294 0.75000 0.24777 0.91700
N 	N 	0.07157 0.75000 0.24643 -0.13000
Cu	Cu	0.31706 0.25000 0.74777 0.91800
N 	N 	0.42843 0.25000 0.74643 -0.16500
Cu	Cu	-0.00000 0.75000 0.60329 0.88200
Cu	Cu	0.50000 0.25000 0.10329 0.90600
Cu	Cu	0.50000 0.75000 0.85329 0.90600
Cu	Cu	-0.00000 0.25000 0.35329 0.88200
Cu	Cu	0.50000 0.75000 0.89671 0.90600
Cu	Cu	0.00000 0.25000 0.39671 0.88200
Cu	Cu	-0.00000 0.75000 0.64671 0.88200
Cu	Cu	0.50000 0.25000 0.14671 0.90600
C 	C 	0.75129 0.50129 0.62500 -0.07000
H 	H 	0.71640 0.46640 0.62500 0.05700
C 	C 	0.85301 0.60301 0.62500 -0.04800
C 	C 	0.90759 0.65759 0.62500 0.33800
C 	C 	0.25129 0.00129 0.12500 -0.06700
H 	H 	0.21640 0.96640 0.12500 0.05100
C 	C 	0.35301 0.10301 0.12500 -0.06100
C 	C 	0.40759 0.15759 0.12500 0.34300
C 	C 	0.74871 0.49871 0.12500 -0.07000
H 	H 	0.78360 0.53360 0.12500 0.06000
C 	C 	0.64699 0.39699 0.12500 -0.05700
C 	C 	0.59241 0.34241 0.12500 0.34300
C 	C 	0.24871 0.99871 0.62500 -0.06700
H 	H 	0.28360 0.03360 0.62500 0.05400
C 	C 	0.14699 0.89699 0.62500 -0.06700
C 	C 	0.09241 0.84241 0.62500 0.34400
C 	C 	0.74871 0.50129 0.87500 -0.07000
H 	H 	0.78360 0.46640 0.87500 0.06000
C 	C 	0.64699 0.60301 0.87500 -0.05700
C 	C 	0.59241 0.65759 0.87500 0.34300
C 	C 	0.24871 0.00129 0.37500 -0.06700
H 	H 	0.28360 0.96640 0.37500 0.05400
C 	C 	0.14699 0.10301 0.37500 -0.06700
C 	C 	0.09241 0.15759 0.37500 0.34400
C 	C 	0.75129 0.49871 0.37500 -0.07000
H 	H 	0.71640 0.53360 0.37500 0.05700
C 	C 	0.85301 0.39699 0.37500 -0.04800
C 	C 	0.90759 0.34241 0.37500 0.33800
C 	C 	0.25129 0.99871 0.87500 -0.06700
H 	H 	0.21640 0.03360 0.87500 0.05100
C 	C 	0.35301 0.89699 0.87500 -0.06100
C 	C 	0.40759 0.84241 0.87500 0.34300
C 	C 	0.24871 0.49871 0.37500 -0.06800
H 	H 	0.28360 0.53360 0.37500 0.05400
C 	C 	0.14699 0.39699 0.37500 -0.06700
C 	C 	0.09241 0.34241 0.37500 0.34400
C 	C 	0.74871 0.99871 0.87500 -0.06900
H 	H 	0.78360 0.03360 0.87500 0.06000
C 	C 	0.64699 0.89699 0.87500 -0.05700
C 	C 	0.59241 0.84241 0.87500 0.34300
C 	C 	0.25129 0.50129 0.87500 -0.06800
H 	H 	0.21640 0.46640 0.87500 0.05100
C 	C 	0.35301 0.60301 0.87500 -0.06100
C 	C 	0.40759 0.65759 0.87500 0.34300
C 	C 	0.75129 0.00129 0.37500 -0.07000
H 	H 	0.71640 0.96640 0.37500 0.05700
C 	C 	0.85301 0.10301 0.37500 -0.04800
C 	C 	0.90759 0.15759 0.37500 0.33800
C 	C 	0.25129 0.49871 0.12500 -0.06800
H 	H 	0.21640 0.53360 0.12500 0.05100
C 	C 	0.35301 0.39699 0.12500 -0.06100
C 	C 	0.40759 0.34241 0.12500 0.34300
C 	C 	0.75129 0.99871 0.62500 -0.07000
H 	H 	0.71640 0.03360 0.62500 0.05700
C 	C 	0.85301 0.89699 0.62500 -0.04800
C 	C 	0.90759 0.84241 0.62500 0.33800
C 	C 	0.24871 0.50129 0.62500 -0.06800
H 	H 	0.28360 0.46640 0.62500 0.05400
C 	C 	0.14699 0.60301 0.62500 -0.06700
C 	C 	0.09241 0.65759 0.62500 0.34400
C 	C 	0.74871 0.00129 0.12500 -0.06900
H 	H 	0.78360 0.96640 0.12500 0.06000
C 	C 	0.64699 0.10301 0.12500 -0.05700
C 	C 	0.59241 0.15759 0.12500 0.34300
