data_crystal

_cell_length_a 29.20630
_cell_length_b 13.66070
_cell_length_c 13.92940
_cell_angle_alpha 90.00000
_cell_angle_beta  98.29100
_cell_angle_gamma 90.00000

_symmetry_space_group_name_	'P 1'
_symmetry_space_group_name_H-M	'P 1'

loop_
_symmetry_equiv_pos_as_xyz
  x,y,z

loop_
_atom_site_label
_atom_site_type_symbol
_atom_site_fract_x
_atom_site_fract_y
_atom_site_fract_z
_atom_site_charge
Eu	Eu	0.31733 0.29166 0.53680 1.89400
C 	C 	0.70769 0.10470 0.23810 -0.23200
C 	C 	0.73551 0.03840 0.29280 0.16800
H 	H 	0.76660 0.03190 0.28590 -0.01900
C 	C 	0.71631 0.98210 0.35760 -0.25600
C 	C 	0.67007 0.99200 0.36940 0.12900
H 	H 	0.65790 0.95110 0.41280 -0.02100
C 	C 	0.64184 0.06040 0.31870 -0.17300
C 	C 	0.66148 0.11520 0.25190 0.12100
H 	H 	0.64320 0.16090 0.21450 0.00100
C 	C 	0.72727 0.16450 0.16400 0.50700
C 	C 	0.74668 0.91090 0.41540 0.51400
C 	C 	0.59359 0.07790 0.33890 0.23000
C 	C 	0.56440 0.00540 0.36150 -0.25000
H 	H 	0.57460 0.94090 0.36110 0.11900
C 	C 	0.52081 0.02270 0.38490 0.13900
H 	H 	0.50250 0.96970 0.39730 -0.01800
C 	C 	0.50397 0.11370 0.39040 -0.18800
C 	C 	0.46123 0.13510 0.42370 0.14600
H 	H 	0.44290 0.08350 0.43940 -0.00800
C 	C 	0.44705 0.22390 0.43290 -0.24200
C 	C 	0.47534 0.29680 0.40670 0.17900
H 	H 	0.46590 0.36150 0.41100 -0.02800
C 	C 	0.51716 0.27870 0.37440 -0.29400
H 	H 	0.53470 0.33090 0.35700 0.12500
C 	C 	0.53287 0.18700 0.36780 0.25500
C 	C 	0.57685 0.16630 0.34050 -0.31200
H 	H 	0.59450 0.21810 0.32290 0.13900
C 	C 	0.40306 0.24570 0.47320 0.45900
O 	O 	0.70051 0.22611 0.12270 -0.48900
O 	O 	0.76824 0.14942 0.14994 -0.52500
O 	O 	0.78994 0.92405 0.43270 -0.49200
O 	O 	0.72807 0.84039 0.44739 -0.62100
O 	O 	0.38757 0.32693 0.46600 -0.48100
O 	O 	0.38272 0.18400 0.51420 -0.47700
Eu	Eu	0.81733 0.79166 0.53680 1.89300
C 	C 	0.20769 0.60470 0.23810 -0.23300
C 	C 	0.23551 0.53840 0.29280 0.16800
H 	H 	0.26660 0.53190 0.28590 -0.01800
C 	C 	0.21631 0.48210 0.35760 -0.25600
C 	C 	0.17007 0.49200 0.36940 0.12800
H 	H 	0.15790 0.45110 0.41280 -0.02100
C 	C 	0.14184 0.56040 0.31870 -0.17100
C 	C 	0.16148 0.61520 0.25190 0.12100
H 	H 	0.14320 0.66090 0.21450 0.00100
C 	C 	0.22727 0.66450 0.16400 0.50700
C 	C 	0.24668 0.41090 0.41540 0.51400
C 	C 	0.09359 0.57790 0.33890 0.22800
C 	C 	0.06440 0.50540 0.36150 -0.24800
H 	H 	0.07460 0.44090 0.36110 0.11800
C 	C 	0.02081 0.52270 0.38490 0.13900
H 	H 	0.00250 0.46970 0.39730 -0.01800
C 	C 	0.00397 0.61370 0.39040 -0.18700
C 	C 	0.96123 0.63510 0.42370 0.14500
H 	H 	0.94290 0.58350 0.43940 -0.00800
C 	C 	0.94705 0.72390 0.43290 -0.24200
C 	C 	0.97534 0.79680 0.40670 0.17800
H 	H 	0.96590 0.86150 0.41100 -0.02800
C 	C 	0.01716 0.77870 0.37440 -0.29300
H 	H 	0.03470 0.83090 0.35700 0.12500
C 	C 	0.03287 0.68700 0.36780 0.25400
C 	C 	0.07685 0.66630 0.34050 -0.31100
H 	H 	0.09450 0.71810 0.32290 0.13900
C 	C 	0.90306 0.74570 0.47320 0.45900
O 	O 	0.20051 0.72611 0.12270 -0.48800
O 	O 	0.26824 0.64942 0.14994 -0.52400
O 	O 	0.28994 0.42405 0.43270 -0.49200
O 	O 	0.22807 0.34039 0.44739 -0.62100
O 	O 	0.88757 0.82693 0.46600 -0.48100
O 	O 	0.88272 0.68400 0.51420 -0.47700
Eu	Eu	0.68267 0.29166 0.96320 1.89500
C 	C 	0.29231 0.10470 0.26190 -0.23300
C 	C 	0.26449 0.03840 0.20720 0.16600
H 	H 	0.23340 0.03190 0.21410 -0.01800
C 	C 	0.28369 0.98210 0.14240 -0.25500
C 	C 	0.32993 0.99200 0.13060 0.13000
H 	H 	0.34210 0.95110 0.08720 -0.02100
C 	C 	0.35816 0.06040 0.18130 -0.17400
C 	C 	0.33852 0.11520 0.24810 0.12100
H 	H 	0.35680 0.16090 0.28550 0.00100
C 	C 	0.27273 0.16450 0.33600 0.50700
C 	C 	0.25332 0.91090 0.08460 0.51400
C 	C 	0.40641 0.07790 0.16110 0.22900
C 	C 	0.43560 0.00540 0.13850 -0.24900
H 	H 	0.42540 0.94090 0.13890 0.11900
C 	C 	0.47919 0.02270 0.11510 0.13600
H 	H 	0.49750 0.96970 0.10270 -0.01600
C 	C 	0.49603 0.11370 0.10960 -0.18600
C 	C 	0.53877 0.13510 0.07630 0.14400
H 	H 	0.55710 0.08350 0.06060 -0.00800
C 	C 	0.55295 0.22390 0.06710 -0.24100
C 	C 	0.52466 0.29680 0.09330 0.17700
H 	H 	0.53410 0.36150 0.08900 -0.02700
C 	C 	0.48284 0.27870 0.12560 -0.29200
H 	H 	0.46530 0.33090 0.14300 0.12500
C 	C 	0.46713 0.18700 0.13220 0.25300
C 	C 	0.42315 0.16630 0.15950 -0.31100
H 	H 	0.40550 0.21810 0.17710 0.13900
C 	C 	0.59694 0.24570 0.02680 0.45700
O 	O 	0.29949 0.22611 0.37730 -0.48800
O 	O 	0.23176 0.14942 0.35006 -0.52500
O 	O 	0.21006 0.92405 0.06730 -0.49100
O 	O 	0.27193 0.84039 0.05261 -0.62100
O 	O 	0.61243 0.32693 0.03400 -0.48100
O 	O 	0.61728 0.18400 0.98580 -0.47500
Eu	Eu	0.18267 0.79166 0.96320 1.89000
C 	C 	0.79231 0.60470 0.26190 -0.23300
C 	C 	0.76449 0.53840 0.20720 0.16800
H 	H 	0.73340 0.53190 0.21410 -0.01800
C 	C 	0.78369 0.48210 0.14240 -0.25600
C 	C 	0.82993 0.49200 0.13060 0.12900
H 	H 	0.84210 0.45110 0.08720 -0.02100
C 	C 	0.85816 0.56040 0.18130 -0.17200
C 	C 	0.83852 0.61520 0.24810 0.12100
H 	H 	0.85680 0.66090 0.28550 0.00100
C 	C 	0.77273 0.66450 0.33600 0.50700
C 	C 	0.75332 0.41090 0.08460 0.51400
C 	C 	0.90641 0.57790 0.16110 0.22900
C 	C 	0.93560 0.50540 0.13850 -0.24800
H 	H 	0.92540 0.44090 0.13890 0.11800
C 	C 	0.97919 0.52270 0.11510 0.14000
H 	H 	0.99750 0.46970 0.10270 -0.01800
C 	C 	0.99603 0.61370 0.10960 -0.18900
C 	C 	0.03877 0.63510 0.07630 0.14700
H 	H 	0.05710 0.58350 0.06060 -0.00800
C 	C 	0.05295 0.72390 0.06710 -0.24300
C 	C 	0.02466 0.79680 0.09330 0.18000
H 	H 	0.03410 0.86150 0.08900 -0.02800
C 	C 	0.98284 0.77870 0.12560 -0.29400
H 	H 	0.96530 0.83090 0.14300 0.12600
C 	C 	0.96713 0.68700 0.13220 0.25500
C 	C 	0.92315 0.66630 0.15950 -0.31200
H 	H 	0.90550 0.71810 0.17710 0.13900
C 	C 	0.09694 0.74570 0.02680 0.46000
O 	O 	0.79949 0.72611 0.37730 -0.48800
O 	O 	0.73176 0.64942 0.35006 -0.52400
O 	O 	0.71006 0.42405 0.06730 -0.49200
O 	O 	0.77193 0.34039 0.05261 -0.62100
O 	O 	0.11243 0.82693 0.03400 -0.48100
O 	O 	0.11728 0.68400 0.98580 -0.47700
Eu	Eu	0.68267 0.70835 0.46320 1.89300
C 	C 	0.29231 0.89530 0.76190 -0.23300
C 	C 	0.26449 0.96160 0.70720 0.16800
H 	H 	0.23340 0.96810 0.71410 -0.01900
C 	C 	0.28369 0.01790 0.64240 -0.25600
C 	C 	0.32993 0.00800 0.63060 0.12900
H 	H 	0.34210 0.04890 0.58720 -0.02100
C 	C 	0.35816 0.93960 0.68130 -0.17300
C 	C 	0.33852 0.88480 0.74810 0.12100
H 	H 	0.35680 0.83910 0.78550 0.00100
C 	C 	0.27273 0.83550 0.83600 0.50700
C 	C 	0.25332 0.08910 0.58460 0.51400
C 	C 	0.40641 0.92210 0.66110 0.23000
C 	C 	0.43560 0.99460 0.63850 -0.25000
H 	H 	0.42540 0.05910 0.63890 0.11900
C 	C 	0.47919 0.97730 0.61510 0.13900
H 	H 	0.49750 0.03030 0.60270 -0.01800
C 	C 	0.49603 0.88630 0.60960 -0.18800
C 	C 	0.53877 0.86490 0.57630 0.14600
H 	H 	0.55710 0.91650 0.56060 -0.00800
C 	C 	0.55295 0.77610 0.56710 -0.24200
C 	C 	0.52466 0.70320 0.59330 0.17900
H 	H 	0.53410 0.63850 0.58900 -0.02800
C 	C 	0.48284 0.72130 0.62560 -0.29400
H 	H 	0.46530 0.66910 0.64300 0.12500
C 	C 	0.46713 0.81300 0.63220 0.25500
C 	C 	0.42315 0.83370 0.65950 -0.31200
H 	H 	0.40550 0.78190 0.67710 0.13900
C 	C 	0.59694 0.75430 0.52680 0.45900
O 	O 	0.29949 0.77389 0.87730 -0.48900
O 	O 	0.23176 0.85058 0.85006 -0.52500
O 	O 	0.21006 0.07595 0.56730 -0.49200
O 	O 	0.27193 0.15961 0.55261 -0.62100
O 	O 	0.61243 0.67307 0.53400 -0.48100
O 	O 	0.61728 0.81600 0.48580 -0.47700
Eu	Eu	0.18267 0.20835 0.46320 1.89300
C 	C 	0.79231 0.39530 0.76190 -0.23300
C 	C 	0.76449 0.46160 0.70720 0.16800
H 	H 	0.73340 0.46810 0.71410 -0.01800
C 	C 	0.78369 0.51790 0.64240 -0.25600
C 	C 	0.82993 0.50800 0.63060 0.12800
H 	H 	0.84210 0.54890 0.58720 -0.02100
C 	C 	0.85816 0.43960 0.68130 -0.17100
C 	C 	0.83852 0.38480 0.74810 0.12100
H 	H 	0.85680 0.33910 0.78550 0.00100
C 	C 	0.77273 0.33550 0.83600 0.50700
C 	C 	0.75332 0.58910 0.58460 0.51400
C 	C 	0.90641 0.42210 0.66110 0.22800
C 	C 	0.93560 0.49460 0.63850 -0.24800
H 	H 	0.92540 0.55910 0.63890 0.11800
C 	C 	0.97919 0.47730 0.61510 0.13900
H 	H 	0.99750 0.53030 0.60270 -0.01800
C 	C 	0.99603 0.38630 0.60960 -0.18700
C 	C 	0.03877 0.36490 0.57630 0.14500
H 	H 	0.05710 0.41650 0.56060 -0.00800
C 	C 	0.05295 0.27610 0.56710 -0.24200
C 	C 	0.02466 0.20320 0.59330 0.17800
H 	H 	0.03410 0.13850 0.58900 -0.02800
C 	C 	0.98284 0.22130 0.62560 -0.29300
H 	H 	0.96530 0.16910 0.64300 0.12500
C 	C 	0.96713 0.31300 0.63220 0.25400
C 	C 	0.92315 0.33370 0.65950 -0.31100
H 	H 	0.90550 0.28190 0.67710 0.13900
C 	C 	0.09694 0.25430 0.52680 0.45900
O 	O 	0.79949 0.27389 0.87730 -0.48800
O 	O 	0.73176 0.35058 0.85006 -0.52400
O 	O 	0.71006 0.57595 0.56730 -0.49200
O 	O 	0.77193 0.65961 0.55261 -0.62100
O 	O 	0.11243 0.17307 0.53400 -0.48100
O 	O 	0.11728 0.31600 0.48580 -0.47700
Eu	Eu	0.31733 0.70835 0.03680 1.89500
C 	C 	0.70769 0.89530 0.73810 -0.23300
C 	C 	0.73551 0.96160 0.79280 0.16600
H 	H 	0.76660 0.96810 0.78590 -0.01800
C 	C 	0.71631 0.01790 0.85760 -0.25500
C 	C 	0.67007 0.00800 0.86940 0.13000
H 	H 	0.65790 0.04890 0.91280 -0.02100
C 	C 	0.64184 0.93960 0.81870 -0.17400
C 	C 	0.66148 0.88480 0.75190 0.12100
H 	H 	0.64320 0.83910 0.71450 0.00100
C 	C 	0.72727 0.83550 0.66400 0.50700
C 	C 	0.74668 0.08910 0.91540 0.51400
C 	C 	0.59359 0.92210 0.83890 0.22900
C 	C 	0.56440 0.99460 0.86150 -0.24900
H 	H 	0.57460 0.05910 0.86110 0.11900
C 	C 	0.52081 0.97730 0.88490 0.13600
H 	H 	0.50250 0.03030 0.89730 -0.01600
C 	C 	0.50397 0.88630 0.89040 -0.18600
C 	C 	0.46123 0.86490 0.92370 0.14400
H 	H 	0.44290 0.91650 0.93940 -0.00800
C 	C 	0.44705 0.77610 0.93290 -0.24100
C 	C 	0.47534 0.70320 0.90670 0.17700
H 	H 	0.46590 0.63850 0.91100 -0.02700
C 	C 	0.51716 0.72130 0.87440 -0.29200
H 	H 	0.53470 0.66910 0.85700 0.12500
C 	C 	0.53287 0.81300 0.86780 0.25300
C 	C 	0.57685 0.83370 0.84050 -0.31100
H 	H 	0.59450 0.78190 0.82290 0.13900
C 	C 	0.40306 0.75430 0.97320 0.45700
O 	O 	0.70051 0.77389 0.62270 -0.48800
O 	O 	0.76824 0.85058 0.64994 -0.52500
O 	O 	0.78994 0.07595 0.93270 -0.49100
O 	O 	0.72807 0.15961 0.94739 -0.62100
O 	O 	0.38757 0.67307 0.96600 -0.48100
O 	O 	0.38272 0.81600 0.01420 -0.47500
Eu	Eu	0.81733 0.20835 0.03680 1.89000
C 	C 	0.20769 0.39530 0.73810 -0.23300
C 	C 	0.23551 0.46160 0.79280 0.16800
H 	H 	0.26660 0.46810 0.78590 -0.01800
C 	C 	0.21631 0.51790 0.85760 -0.25600
C 	C 	0.17007 0.50800 0.86940 0.12900
H 	H 	0.15790 0.54890 0.91280 -0.02100
C 	C 	0.14184 0.43960 0.81870 -0.17200
C 	C 	0.16148 0.38480 0.75190 0.12100
H 	H 	0.14320 0.33910 0.71450 0.00100
C 	C 	0.22727 0.33550 0.66400 0.50700
C 	C 	0.24668 0.58910 0.91540 0.51400
C 	C 	0.09359 0.42210 0.83890 0.22900
C 	C 	0.06440 0.49460 0.86150 -0.24800
H 	H 	0.07460 0.55910 0.86110 0.11800
C 	C 	0.02081 0.47730 0.88490 0.14000
H 	H 	0.00250 0.53030 0.89730 -0.01800
C 	C 	0.00397 0.38630 0.89040 -0.18900
C 	C 	0.96123 0.36490 0.92370 0.14700
H 	H 	0.94290 0.41650 0.93940 -0.00800
C 	C 	0.94705 0.27610 0.93290 -0.24300
C 	C 	0.97534 0.20320 0.90670 0.18000
H 	H 	0.96590 0.13850 0.91100 -0.02800
C 	C 	0.01716 0.22130 0.87440 -0.29400
H 	H 	0.03470 0.16910 0.85700 0.12600
C 	C 	0.03287 0.31300 0.86780 0.25500
C 	C 	0.07685 0.33370 0.84050 -0.31200
H 	H 	0.09450 0.28190 0.82290 0.13900
C 	C 	0.90306 0.25430 0.97320 0.46000
O 	O 	0.20051 0.27389 0.62270 -0.48800
O 	O 	0.26824 0.35058 0.64994 -0.52400
O 	O 	0.28994 0.57595 0.93270 -0.49200
O 	O 	0.22807 0.65961 0.94739 -0.62100
O 	O 	0.88757 0.17307 0.96600 -0.48100
O 	O 	0.88272 0.31600 0.01420 -0.47700
