data_crystal

_cell_length_a 28.85330
_cell_length_b 14.40380
_cell_length_c 13.74140
_cell_angle_alpha 90.00000
_cell_angle_beta  98.66600
_cell_angle_gamma 90.00000

_symmetry_space_group_name_	'P 1'
_symmetry_space_group_name_H-M	'P 1'

loop_
_symmetry_equiv_pos_as_xyz
  x,y,z

loop_
_atom_site_label
_atom_site_type_symbol
_atom_site_fract_x
_atom_site_fract_y
_atom_site_fract_z
_atom_site_charge
Tb	Tb	0.31708 0.29329 0.53688 1.73700
C 	C 	0.70690 0.10420 0.23610 -0.16300
C 	C 	0.73460 0.03790 0.29040 0.09200
H 	H 	0.76600 0.03150 0.28300 0.01100
C 	C 	0.71557 0.98130 0.35550 -0.16600
C 	C 	0.66891 0.99180 0.36860 0.03800
H 	H 	0.65640 0.95310 0.41230 0.01900
C 	C 	0.64053 0.06000 0.31670 -0.07100
C 	C 	0.66053 0.11490 0.24950 0.04300
H 	H 	0.64220 0.15960 0.21300 0.03100
C 	C 	0.72618 0.16380 0.16040 0.46700
C 	C 	0.74579 0.90960 0.41370 0.43300
C 	C 	0.59268 0.07820 0.33810 0.09500
C 	C 	0.56365 0.00530 0.36110 -0.11700
H 	H 	0.57420 0.94440 0.36010 0.07600
C 	C 	0.52010 0.02330 0.38470 -0.00200
H 	H 	0.50110 0.97390 0.39720 0.03300
C 	C 	0.50317 0.11510 0.39070 -0.03300
C 	C 	0.46053 0.13570 0.42460 -0.01200
H 	H 	0.44150 0.08750 0.44040 0.04600
C 	C 	0.44686 0.22570 0.43450 -0.09100
C 	C 	0.47470 0.29880 0.40760 0.03100
H 	H 	0.46480 0.35990 0.41220 0.02400
C 	C 	0.51640 0.28080 0.37470 -0.13500
H 	H 	0.53450 0.32960 0.35710 0.07300
C 	C 	0.53190 0.18810 0.36720 0.09400
C 	C 	0.57613 0.16720 0.33970 -0.16100
H 	H 	0.59450 0.21550 0.32210 0.08900
C 	C 	0.40250 0.24770 0.47480 0.32000
O 	O 	0.69975 0.22600 0.12030 -0.46700
O 	O 	0.76719 0.14790 0.14620 -0.50200
O 	O 	0.78901 0.92260 0.43230 -0.44600
O 	O 	0.72680 0.83840 0.44460 -0.54500
O 	O 	0.38655 0.32930 0.46590 -0.41900
O 	O 	0.38259 0.18590 0.51720 -0.40800
Tb	Tb	0.81708 0.79329 0.53688 1.73600
C 	C 	0.20690 0.60420 0.23610 -0.16400
C 	C 	0.23460 0.53790 0.29040 0.09200
H 	H 	0.26600 0.53150 0.28300 0.01000
C 	C 	0.21557 0.48130 0.35550 -0.16700
C 	C 	0.16891 0.49180 0.36860 0.03600
H 	H 	0.15640 0.45310 0.41230 0.01800
C 	C 	0.14053 0.56000 0.31670 -0.07100
C 	C 	0.16053 0.61490 0.24950 0.04200
H 	H 	0.14220 0.65960 0.21300 0.03000
C 	C 	0.22618 0.66380 0.16040 0.46600
C 	C 	0.24579 0.40960 0.41370 0.43200
C 	C 	0.09268 0.57820 0.33810 0.09300
C 	C 	0.06365 0.50530 0.36110 -0.11700
H 	H 	0.07420 0.44440 0.36010 0.07400
C 	C 	0.02010 0.52330 0.38470 -0.00400
H 	H 	0.00110 0.47390 0.39720 0.03200
C 	C 	0.00317 0.61510 0.39070 -0.03400
C 	C 	0.96053 0.63570 0.42460 -0.01200
H 	H 	0.94150 0.58750 0.44040 0.04700
C 	C 	0.94686 0.72570 0.43450 -0.09100
C 	C 	0.97470 0.79880 0.40760 0.03100
H 	H 	0.96480 0.85990 0.41220 0.02400
C 	C 	0.01640 0.78080 0.37470 -0.13500
H 	H 	0.03450 0.82960 0.35710 0.07300
C 	C 	0.03190 0.68810 0.36720 0.09400
C 	C 	0.07613 0.66720 0.33970 -0.16000
H 	H 	0.09450 0.71550 0.32210 0.08900
C 	C 	0.90250 0.74770 0.47480 0.31900
O 	O 	0.19975 0.72600 0.12030 -0.46600
O 	O 	0.26719 0.64790 0.14620 -0.50200
O 	O 	0.28901 0.42260 0.43230 -0.44600
O 	O 	0.22680 0.33840 0.44460 -0.54500
O 	O 	0.88655 0.82930 0.46590 -0.41900
O 	O 	0.88259 0.68590 0.51720 -0.40800
Tb	Tb	0.68292 0.29329 0.96312 1.73800
C 	C 	0.29310 0.10420 0.26390 -0.16400
C 	C 	0.26540 0.03790 0.20960 0.09000
H 	H 	0.23400 0.03150 0.21700 0.01000
C 	C 	0.28443 0.98130 0.14450 -0.16600
C 	C 	0.33109 0.99180 0.13140 0.03800
H 	H 	0.34360 0.95310 0.08770 0.01800
C 	C 	0.35947 0.06000 0.18330 -0.07300
C 	C 	0.33947 0.11490 0.25050 0.04200
H 	H 	0.35780 0.15960 0.28700 0.03000
C 	C 	0.27382 0.16380 0.33960 0.46600
C 	C 	0.25421 0.90960 0.08630 0.43100
C 	C 	0.40732 0.07820 0.16190 0.09400
C 	C 	0.43635 0.00530 0.13890 -0.11900
H 	H 	0.42580 0.94440 0.13990 0.07600
C 	C 	0.47990 0.02330 0.11530 -0.00500
H 	H 	0.49890 0.97390 0.10280 0.03400
C 	C 	0.49683 0.11510 0.10930 -0.03300
C 	C 	0.53947 0.13570 0.07540 -0.01300
H 	H 	0.55850 0.08750 0.05960 0.04600
C 	C 	0.55314 0.22570 0.06550 -0.09100
C 	C 	0.52530 0.29880 0.09240 0.03100
H 	H 	0.53520 0.35990 0.08780 0.02500
C 	C 	0.48360 0.28080 0.12530 -0.13400
H 	H 	0.46550 0.32960 0.14290 0.07300
C 	C 	0.46810 0.18810 0.13280 0.09400
C 	C 	0.42387 0.16720 0.16030 -0.16100
H 	H 	0.40550 0.21550 0.17790 0.08900
C 	C 	0.59750 0.24770 0.02520 0.31800
O 	O 	0.30025 0.22600 0.37970 -0.46600
O 	O 	0.23281 0.14790 0.35380 -0.50200
O 	O 	0.21099 0.92260 0.06770 -0.44500
O 	O 	0.27320 0.83840 0.05540 -0.54400
O 	O 	0.61345 0.32930 0.03410 -0.41900
O 	O 	0.61741 0.18590 0.98280 -0.40700
Tb	Tb	0.18292 0.79329 0.96312 1.73300
C 	C 	0.79310 0.60420 0.26390 -0.16400
C 	C 	0.76540 0.53790 0.20960 0.09200
H 	H 	0.73400 0.53150 0.21700 0.01000
C 	C 	0.78443 0.48130 0.14450 -0.16700
C 	C 	0.83109 0.49180 0.13140 0.03700
H 	H 	0.84360 0.45310 0.08770 0.01800
C 	C 	0.85947 0.56000 0.18330 -0.07100
C 	C 	0.83947 0.61490 0.25050 0.04200
H 	H 	0.85780 0.65960 0.28700 0.03000
C 	C 	0.77382 0.66380 0.33960 0.46600
C 	C 	0.75421 0.40960 0.08630 0.43200
C 	C 	0.90732 0.57820 0.16190 0.09400
C 	C 	0.93635 0.50530 0.13890 -0.11700
H 	H 	0.92580 0.44440 0.13990 0.07400
C 	C 	0.97990 0.52330 0.11530 -0.00300
H 	H 	0.99890 0.47390 0.10280 0.03200
C 	C 	0.99683 0.61510 0.10930 -0.03500
C 	C 	0.03947 0.63570 0.07540 -0.01100
H 	H 	0.05850 0.58750 0.05960 0.04600
C 	C 	0.05314 0.72570 0.06550 -0.09200
C 	C 	0.02530 0.79880 0.09240 0.03200
H 	H 	0.03520 0.85990 0.08780 0.02400
C 	C 	0.98360 0.78080 0.12530 -0.13600
H 	H 	0.96550 0.82960 0.14290 0.07300
C 	C 	0.96810 0.68810 0.13280 0.09500
C 	C 	0.92387 0.66720 0.16030 -0.16100
H 	H 	0.90550 0.71550 0.17790 0.09000
C 	C 	0.09750 0.74770 0.02520 0.32100
O 	O 	0.80025 0.72600 0.37970 -0.46600
O 	O 	0.73281 0.64790 0.35380 -0.50200
O 	O 	0.71099 0.42260 0.06770 -0.44600
O 	O 	0.77320 0.33840 0.05540 -0.54500
O 	O 	0.11345 0.82930 0.03410 -0.41900
O 	O 	0.11741 0.68590 0.98280 -0.40900
Tb	Tb	0.68292 0.70671 0.46312 1.73600
C 	C 	0.29310 0.89580 0.76390 -0.16400
C 	C 	0.26540 0.96210 0.70960 0.09100
H 	H 	0.23400 0.96850 0.71700 0.01000
C 	C 	0.28443 0.01870 0.64450 -0.16700
C 	C 	0.33109 0.00820 0.63140 0.03700
H 	H 	0.34360 0.04690 0.58770 0.01800
C 	C 	0.35947 0.94000 0.68330 -0.07200
C 	C 	0.33947 0.88510 0.75050 0.04200
H 	H 	0.35780 0.84040 0.78700 0.03000
C 	C 	0.27382 0.83620 0.83960 0.46600
C 	C 	0.25421 0.09040 0.58630 0.43200
C 	C 	0.40732 0.92180 0.66190 0.09400
C 	C 	0.43635 0.99470 0.63890 -0.11800
H 	H 	0.42580 0.05560 0.63990 0.07500
C 	C 	0.47990 0.97670 0.61530 -0.00300
H 	H 	0.49890 0.02610 0.60280 0.03200
C 	C 	0.49683 0.88490 0.60930 -0.03400
C 	C 	0.53947 0.86430 0.57540 -0.01200
H 	H 	0.55850 0.91250 0.55960 0.04600
C 	C 	0.55314 0.77430 0.56550 -0.09100
C 	C 	0.52530 0.70120 0.59240 0.03100
H 	H 	0.53520 0.64010 0.58780 0.02400
C 	C 	0.48360 0.71920 0.62530 -0.13500
H 	H 	0.46550 0.67040 0.64290 0.07300
C 	C 	0.46810 0.81190 0.63280 0.09400
C 	C 	0.42387 0.83280 0.66030 -0.16100
H 	H 	0.40550 0.78450 0.67790 0.08900
C 	C 	0.59750 0.75230 0.52520 0.32000
O 	O 	0.30025 0.77400 0.87970 -0.46700
O 	O 	0.23281 0.85210 0.85380 -0.50200
O 	O 	0.21099 0.07740 0.56770 -0.44600
O 	O 	0.27320 0.16160 0.55540 -0.54500
O 	O 	0.61345 0.67070 0.53410 -0.41900
O 	O 	0.61741 0.81410 0.48280 -0.40800
Tb	Tb	0.18292 0.20671 0.46312 1.73600
C 	C 	0.79310 0.39580 0.76390 -0.16400
C 	C 	0.76540 0.46210 0.70960 0.09200
H 	H 	0.73400 0.46850 0.71700 0.01000
C 	C 	0.78443 0.51870 0.64450 -0.16700
C 	C 	0.83109 0.50820 0.63140 0.03600
H 	H 	0.84360 0.54690 0.58770 0.01800
C 	C 	0.85947 0.44000 0.68330 -0.07100
C 	C 	0.83947 0.38510 0.75050 0.04200
H 	H 	0.85780 0.34040 0.78700 0.03000
C 	C 	0.77382 0.33620 0.83960 0.46600
C 	C 	0.75421 0.59040 0.58630 0.43200
C 	C 	0.90732 0.42180 0.66190 0.09300
C 	C 	0.93635 0.49470 0.63890 -0.11700
H 	H 	0.92580 0.55560 0.63990 0.07400
C 	C 	0.97990 0.47670 0.61530 -0.00400
H 	H 	0.99890 0.52610 0.60280 0.03200
C 	C 	0.99683 0.38490 0.60930 -0.03400
C 	C 	0.03947 0.36430 0.57540 -0.01200
H 	H 	0.05850 0.41250 0.55960 0.04700
C 	C 	0.05314 0.27430 0.56550 -0.09100
C 	C 	0.02530 0.20120 0.59240 0.03100
H 	H 	0.03520 0.14010 0.58780 0.02400
C 	C 	0.98360 0.21920 0.62530 -0.13500
H 	H 	0.96550 0.17040 0.64290 0.07300
C 	C 	0.96810 0.31190 0.63280 0.09400
C 	C 	0.92387 0.33280 0.66030 -0.16000
H 	H 	0.90550 0.28450 0.67790 0.08900
C 	C 	0.09750 0.25230 0.52520 0.31900
O 	O 	0.80025 0.27400 0.87970 -0.46600
O 	O 	0.73281 0.35210 0.85380 -0.50200
O 	O 	0.71099 0.57740 0.56770 -0.44600
O 	O 	0.77320 0.66160 0.55540 -0.54500
O 	O 	0.11345 0.17070 0.53410 -0.41900
O 	O 	0.11741 0.31410 0.48280 -0.40800
Tb	Tb	0.31708 0.70671 0.03688 1.73800
C 	C 	0.70690 0.89580 0.73610 -0.16400
C 	C 	0.73460 0.96210 0.79040 0.09000
H 	H 	0.76600 0.96850 0.78300 0.01000
C 	C 	0.71557 0.01870 0.85550 -0.16600
C 	C 	0.66891 0.00820 0.86860 0.03800
H 	H 	0.65640 0.04690 0.91230 0.01800
C 	C 	0.64053 0.94000 0.81670 -0.07300
C 	C 	0.66053 0.88510 0.74950 0.04200
H 	H 	0.64220 0.84040 0.71300 0.03000
C 	C 	0.72618 0.83620 0.66040 0.46600
C 	C 	0.74579 0.09040 0.91370 0.43100
C 	C 	0.59268 0.92180 0.83810 0.09400
C 	C 	0.56365 0.99470 0.86110 -0.11900
H 	H 	0.57420 0.05560 0.86010 0.07600
C 	C 	0.52010 0.97670 0.88470 -0.00500
H 	H 	0.50110 0.02610 0.89720 0.03400
C 	C 	0.50317 0.88490 0.89070 -0.03300
C 	C 	0.46053 0.86430 0.92460 -0.01300
H 	H 	0.44150 0.91250 0.94040 0.04600
C 	C 	0.44686 0.77430 0.93450 -0.09100
C 	C 	0.47470 0.70120 0.90760 0.03100
H 	H 	0.46480 0.64010 0.91220 0.02500
C 	C 	0.51640 0.71920 0.87470 -0.13400
H 	H 	0.53450 0.67040 0.85710 0.07300
C 	C 	0.53190 0.81190 0.86720 0.09400
C 	C 	0.57613 0.83280 0.83970 -0.16100
H 	H 	0.59450 0.78450 0.82210 0.08900
C 	C 	0.40250 0.75230 0.97480 0.31800
O 	O 	0.69975 0.77400 0.62030 -0.46600
O 	O 	0.76719 0.85210 0.64620 -0.50200
O 	O 	0.78901 0.07740 0.93230 -0.44500
O 	O 	0.72680 0.16160 0.94460 -0.54400
O 	O 	0.38655 0.67070 0.96590 -0.41900
O 	O 	0.38259 0.81410 0.01720 -0.40700
Tb	Tb	0.81708 0.20671 0.03688 1.73300
C 	C 	0.20690 0.39580 0.73610 -0.16400
C 	C 	0.23460 0.46210 0.79040 0.09200
H 	H 	0.26600 0.46850 0.78300 0.01000
C 	C 	0.21557 0.51870 0.85550 -0.16700
C 	C 	0.16891 0.50820 0.86860 0.03700
H 	H 	0.15640 0.54690 0.91230 0.01800
C 	C 	0.14053 0.44000 0.81670 -0.07100
C 	C 	0.16053 0.38510 0.74950 0.04200
H 	H 	0.14220 0.34040 0.71300 0.03000
C 	C 	0.22618 0.33620 0.66040 0.46600
C 	C 	0.24579 0.59040 0.91370 0.43200
C 	C 	0.09268 0.42180 0.83810 0.09400
C 	C 	0.06365 0.49470 0.86110 -0.11700
H 	H 	0.07420 0.55560 0.86010 0.07400
C 	C 	0.02010 0.47670 0.88470 -0.00300
H 	H 	0.00110 0.52610 0.89720 0.03200
C 	C 	0.00317 0.38490 0.89070 -0.03500
C 	C 	0.96053 0.36430 0.92460 -0.01100
H 	H 	0.94150 0.41250 0.94040 0.04600
C 	C 	0.94686 0.27430 0.93450 -0.09200
C 	C 	0.97470 0.20120 0.90760 0.03200
H 	H 	0.96480 0.14010 0.91220 0.02400
C 	C 	0.01640 0.21920 0.87470 -0.13600
H 	H 	0.03450 0.17040 0.85710 0.07300
C 	C 	0.03190 0.31190 0.86720 0.09500
C 	C 	0.07613 0.33280 0.83970 -0.16100
H 	H 	0.09450 0.28450 0.82210 0.09000
C 	C 	0.90250 0.25230 0.97480 0.32100
O 	O 	0.19975 0.27400 0.62030 -0.46600
O 	O 	0.26719 0.35210 0.64620 -0.50200
O 	O 	0.28901 0.57740 0.93230 -0.44600
O 	O 	0.22680 0.66160 0.94460 -0.54500
O 	O 	0.88655 0.17070 0.96590 -0.41900
O 	O 	0.88259 0.31410 0.01720 -0.40900
