data_crystal

_cell_length_a 7.31620
_cell_length_b 19.40400
_cell_length_c 26.15500
_cell_angle_alpha 90.00000
_cell_angle_beta  90.00000
_cell_angle_gamma 90.00000

_symmetry_space_group_name_	'P 1'
_symmetry_space_group_name_H-M	'P 1'

loop_
_symmetry_equiv_pos_as_xyz
  x,y,z

loop_
_atom_site_label
_atom_site_type_symbol
_atom_site_fract_x
_atom_site_fract_y
_atom_site_fract_z
_atom_site_charge
Ba	Ba	0.39829 0.69374 0.99298 1.82400
Ba	Ba	0.60171 0.30626 0.49298 1.92900
Ba	Ba	0.89829 0.80626 0.99298 1.80400
Ba	Ba	0.10171 0.19374 0.49298 1.90800
H 	H 	0.13180 0.12510 0.02800 0.11400
H 	H 	0.12920 0.22760 0.98180 0.02800
H 	H 	0.97980 0.31840 0.94190 0.05700
H 	H 	0.27090 0.40950 0.75040 0.06200
H 	H 	0.06970 0.21840 0.72970 0.07500
H 	H 	0.03000 0.41340 0.80550 0.06000
H 	H 	0.37160 0.41300 0.66780 0.01800
H 	H 	0.13070 0.21000 0.81750 0.06900
H 	H 	0.16780 0.22110 0.64440 -0.00500
H 	H 	0.02740 0.97630 0.06420 0.26300
H 	H 	0.93360 0.12750 0.85870 0.05600
H 	H 	0.79660 0.47930 0.84440 0.05800
H 	H 	0.08880 0.42870 0.96830 0.04200
H 	H 	0.75020 0.58960 0.87800 -0.01300
H 	H 	0.92380 0.02730 0.90530 0.02400
H 	H 	0.05820 0.53750 -0.00000 0.08300
H 	H 	0.86820 0.87490 0.52800 0.01700
H 	H 	0.87080 0.77240 0.48180 0.07300
H 	H 	0.02020 0.68160 0.44190 0.05000
H 	H 	0.72910 0.59050 0.25040 0.06300
H 	H 	0.93030 0.78160 0.22970 0.07600
H 	H 	0.97000 0.58660 0.30550 0.05100
H 	H 	0.62840 0.58700 0.16780 0.02100
H 	H 	0.86930 0.79000 0.31750 0.06000
H 	H 	0.83220 0.77890 0.14440 0.00100
H 	H 	0.97260 0.02370 0.56420 0.27400
H 	H 	0.06640 0.87250 0.35870 0.07800
H 	H 	0.20340 0.52070 0.34440 0.08200
H 	H 	0.91120 0.57130 0.46830 0.09300
H 	H 	0.24980 0.41040 0.37800 -0.03700
H 	H 	0.07620 0.97270 0.40530 0.00100
H 	H 	0.94180 0.46250 0.50000 -0.02900
H 	H 	0.63180 0.37490 0.02800 0.12000
H 	H 	0.62920 0.27240 0.98180 0.02200
H 	H 	0.47980 0.18160 0.94190 0.06900
H 	H 	0.77090 0.09050 0.75040 0.06000
H 	H 	0.56970 0.28160 0.72970 0.07400
H 	H 	0.53000 0.08660 0.80550 0.06300
H 	H 	0.87160 0.08700 0.66780 0.01800
H 	H 	0.63070 0.29000 0.81750 0.07300
H 	H 	0.66780 0.27890 0.64440 -0.00300
H 	H 	0.52740 0.52370 0.06420 0.26000
H 	H 	0.43360 0.37250 0.85870 0.05200
H 	H 	0.29660 0.02070 0.84440 0.05900
H 	H 	0.58880 0.07130 0.96830 0.04200
H 	H 	0.25020 0.91040 0.87800 -0.01300
H 	H 	0.42380 0.47270 0.90530 0.02800
H 	H 	0.55820 0.96250 -0.00000 0.08400
H 	H 	0.36820 0.62510 0.52800 0.01500
H 	H 	0.37080 0.72760 0.48180 0.07100
H 	H 	0.52020 0.81840 0.44190 0.06100
H 	H 	0.22910 0.90950 0.25040 0.06200
H 	H 	0.43030 0.71840 0.22970 0.07500
H 	H 	0.47000 0.91340 0.30550 0.05700
H 	H 	0.12840 0.91300 0.16780 0.02300
H 	H 	0.36930 0.71000 0.31750 0.06400
H 	H 	0.33220 0.72110 0.14440 0.00300
H 	H 	0.47260 0.47630 0.56420 0.27200
H 	H 	0.56640 0.62750 0.35870 0.07600
H 	H 	0.70340 0.97930 0.34440 0.07500
H 	H 	0.41120 0.92870 0.46830 0.08400
H 	H 	0.74980 0.08960 0.37800 -0.02900
H 	H 	0.57620 0.52730 0.40530 -0.00000
H 	H 	0.44180 0.03750 0.50000 -0.02100
C 	C 	0.09790 0.31160 0.80380 0.03500
C 	C 	0.08970 0.12550 0.99400 -0.10300
C 	C 	0.09210 0.18660 0.96560 -0.03200
C 	C 	0.15790 0.31300 0.74880 0.04800
C 	C 	0.26770 0.31600 0.64570 -0.14800
C 	C 	0.00480 0.31660 0.90660 -0.09500
C 	C 	0.24960 0.37160 0.72880 -0.12000
C 	C 	0.12870 0.25790 0.71700 -0.12900
C 	C 	0.03980 0.37350 0.82560 -0.10400
C 	C 	0.99570 0.37570 0.87820 0.03500
C 	C 	0.30730 0.37440 0.67990 0.04200
C 	C 	0.09800 0.25210 0.83280 -0.10800
C 	C 	0.05090 0.25320 0.88390 0.05100
C 	C 	0.04120 0.18910 0.91400 0.00900
C 	C 	0.18660 0.25990 0.66530 0.06800
C 	C 	0.33540 0.31810 0.59120 0.37800
C 	C 	0.01380 0.99960 0.99870 0.34800
C 	C 	0.02470 0.06560 0.97160 -0.07700
C 	C 	0.95160 0.44440 0.90150 0.02200
C 	C 	0.97460 0.12770 0.89280 -0.07900
C 	C 	0.84960 0.49130 0.87590 -0.11000
C 	C 	0.02460 0.46190 0.94930 -0.05600
C 	C 	0.82220 0.55750 0.89580 0.03500
C 	C 	0.96780 0.06780 0.92080 0.00300
C 	C 	0.00360 0.52610 0.96860 -0.05300
C 	C 	0.90220 0.57570 0.94240 -0.14600
C 	C 	0.89080 0.64970 0.96080 0.40000
C 	C 	0.90210 0.68840 0.30380 0.01800
C 	C 	0.91030 0.87450 0.49400 0.07500
C 	C 	0.90790 0.81340 0.46560 -0.13500
C 	C 	0.84210 0.68700 0.24880 0.05300
C 	C 	0.73230 0.68400 0.14570 -0.13900
C 	C 	0.99520 0.68340 0.40660 -0.06400
C 	C 	0.75040 0.62840 0.22880 -0.12100
C 	C 	0.87130 0.74210 0.21700 -0.12800
C 	C 	0.96020 0.62650 0.32560 -0.08100
C 	C 	0.00430 0.62430 0.37820 -0.00200
C 	C 	0.69270 0.62560 0.17990 0.04100
C 	C 	0.90200 0.74790 0.33280 -0.08300
C 	C 	0.94910 0.74680 0.38390 0.01400
C 	C 	0.95880 0.81090 0.41400 0.07200
C 	C 	0.81340 0.74010 0.16530 0.06500
C 	C 	0.66460 0.68190 0.09120 0.36900
C 	C 	0.98620 0.00040 0.49870 0.44100
C 	C 	0.97530 0.93440 0.47160 -0.16700
C 	C 	0.04840 0.55560 0.40150 0.09500
C 	C 	0.02540 0.87230 0.39280 -0.14200
C 	C 	0.15040 0.50870 0.37590 -0.17900
C 	C 	0.97540 0.53810 0.44930 -0.17800
C 	C 	0.17780 0.44250 0.39580 0.10500
C 	C 	0.03220 0.93220 0.42080 0.07600
C 	C 	0.99640 0.47390 0.46860 0.13600
C 	C 	0.09780 0.42430 0.44240 -0.23100
C 	C 	0.10920 0.35030 0.46080 0.44200
C 	C 	0.59790 0.18840 0.80380 0.04500
C 	C 	0.58970 0.37450 0.99400 -0.11800
C 	C 	0.59210 0.31340 0.96560 -0.02000
C 	C 	0.65790 0.18700 0.74880 0.04300
C 	C 	0.76770 0.18400 0.64570 -0.14500
C 	C 	0.50480 0.18340 0.90660 -0.12000
C 	C 	0.74960 0.12840 0.72880 -0.11700
C 	C 	0.62870 0.24210 0.71700 -0.12500
C 	C 	0.53980 0.12650 0.82560 -0.11800
C 	C 	0.49570 0.12430 0.87820 0.05200
C 	C 	0.80730 0.12560 0.67990 0.04000
C 	C 	0.59800 0.24790 0.83280 -0.12000
C 	C 	0.55090 0.24680 0.88390 0.06600
C 	C 	0.54120 0.31090 0.91400 -0.00700
C 	C 	0.68660 0.24010 0.66530 0.06600
C 	C 	0.83540 0.18190 0.59120 0.37800
C 	C 	0.51380 0.50040 0.99870 0.33100
C 	C 	0.52470 0.43440 0.97160 -0.06800
C 	C 	0.45160 0.05560 0.90150 0.02500
C 	C 	0.47460 0.37230 0.89280 -0.06500
C 	C 	0.34960 0.00870 0.87590 -0.11500
C 	C 	0.52460 0.03810 0.94930 -0.06300
C 	C 	0.32220 0.94250 0.89580 0.04100
C 	C 	0.46780 0.43220 0.92080 -0.00200
C 	C 	0.50360 0.97390 0.96860 -0.05700
C 	C 	0.40220 0.92430 0.94240 -0.14100
C 	C 	0.39080 0.85030 0.96080 0.40800
C 	C 	0.40210 0.81160 0.30380 0.02900
C 	C 	0.41030 0.62550 0.49400 0.07400
C 	C 	0.40790 0.68660 0.46560 -0.13300
C 	C 	0.34210 0.81300 0.24880 0.04800
C 	C 	0.23230 0.81600 0.14570 -0.13600
C 	C 	0.49520 0.81660 0.40660 -0.08900
C 	C 	0.25040 0.87160 0.22880 -0.11700
C 	C 	0.37130 0.75790 0.21700 -0.12400
C 	C 	0.46020 0.87350 0.32560 -0.09700
C 	C 	0.50430 0.87570 0.37820 0.02100
C 	C 	0.19270 0.87440 0.17990 0.03800
C 	C 	0.40200 0.75210 0.33280 -0.09400
C 	C 	0.44910 0.75320 0.38390 0.02700
C 	C 	0.45880 0.68910 0.41400 0.06300
C 	C 	0.31340 0.75990 0.16530 0.06300
C 	C 	0.16460 0.81810 0.09120 0.37000
C 	C 	0.48620 0.49960 0.49870 0.43800
C 	C 	0.47530 0.56560 0.47160 -0.17400
C 	C 	0.54840 0.94440 0.40150 0.07900
C 	C 	0.52540 0.62770 0.39280 -0.13600
C 	C 	0.65040 0.99130 0.37590 -0.15400
C 	C 	0.47540 0.96190 0.44930 -0.15500
C 	C 	0.67780 0.05750 0.39580 0.08200
C 	C 	0.53220 0.56780 0.42080 0.08100
C 	C 	0.49640 0.02610 0.46860 0.10400
C 	C 	0.59780 0.07570 0.44240 -0.20900
C 	C 	0.60920 0.14970 0.46080 0.44200
O 	O 	0.74970 0.68310 0.95170 -0.59100
O 	O 	0.02680 0.67170 0.98570 -0.59500
O 	O 	0.93910 0.94810 0.98010 -0.45300
O 	O 	0.42920 0.37040 0.57710 -0.41800
O 	O 	0.30690 0.26680 0.56387 -0.53200
O 	O 	0.09260 0.99820 0.04390 -0.42300
O 	O 	0.25030 0.31690 0.45170 -0.60900
O 	O 	0.97320 0.32830 0.48570 -0.60200
O 	O 	0.06090 0.05190 0.48010 -0.47300
O 	O 	0.57080 0.62960 0.07710 -0.39000
O 	O 	0.69310 0.73320 0.06387 -0.49000
O 	O 	0.90740 0.00180 0.54390 -0.49800
O 	O 	0.24970 0.81690 0.95170 -0.58900
O 	O 	0.52680 0.82830 0.98570 -0.60300
O 	O 	0.43910 0.55190 0.98010 -0.44500
O 	O 	0.92920 0.12960 0.57710 -0.41500
O 	O 	0.80690 0.23320 0.56387 -0.52900
O 	O 	0.59260 0.50180 0.04390 -0.42100
O 	O 	0.75030 0.18310 0.45170 -0.60700
O 	O 	0.47320 0.17170 0.48570 -0.60800
O 	O 	0.56090 0.44810 0.48010 -0.46600
O 	O 	0.07080 0.87040 0.07710 -0.38600
O 	O 	0.19310 0.76680 0.06387 -0.48800
O 	O 	0.40740 0.49820 0.54390 -0.49600
