data_crystal

_cell_length_a 9.77360
_cell_length_b 18.35390
_cell_length_c 18.35390
_cell_angle_alpha 120.00000
_cell_angle_beta  90.00000
_cell_angle_gamma 90.00000

_symmetry_space_group_name_	'P 1'
_symmetry_space_group_name_H-M	'P 1'

loop_
_symmetry_equiv_pos_as_xyz
  x,y,z

loop_
_atom_site_label
_atom_site_type_symbol
_atom_site_fract_x
_atom_site_fract_y
_atom_site_fract_z
_atom_site_charge
U 	U 	0.75000 0.64292 0.44095 0.03600
U 	U 	0.75000 0.79803 0.35708 0.03600
U 	U 	0.75000 0.55905 0.20197 0.03600
U 	U 	0.25000 0.35708 0.55905 0.03600
U 	U 	0.25000 0.20197 0.64292 0.03500
U 	U 	0.25000 0.44095 0.79803 0.03500
H 	H 	0.04150 0.91590 0.51550 0.09300
H 	H 	0.04150 0.59960 0.08410 0.09300
H 	H 	0.04150 0.48450 0.40040 0.09300
H 	H 	0.54150 0.08410 0.48450 0.09300
H 	H 	0.54150 0.40040 0.91590 0.09300
H 	H 	0.54150 0.51550 0.59960 0.09300
H 	H 	0.95850 0.08410 0.48450 0.09300
H 	H 	0.95850 0.40040 0.91590 0.09300
H 	H 	0.95850 0.51550 0.59960 0.09300
H 	H 	0.45850 0.91590 0.51550 0.09300
H 	H 	0.45850 0.59960 0.08410 0.09300
H 	H 	0.45850 0.48450 0.40040 0.09300
H 	H 	0.25000 0.70700 0.46330 0.07600
H 	H 	0.25000 0.75630 0.29300 0.07600
H 	H 	0.25000 0.53670 0.24370 0.07600
H 	H 	0.75000 0.29300 0.53670 0.07600
H 	H 	0.75000 0.24370 0.70700 0.07600
H 	H 	0.75000 0.46330 0.75630 0.07600
C 	C 	0.12700 0.80470 0.48710 -0.02400
C 	C 	0.12430 0.88890 0.51070 -0.01400
C 	C 	0.99360 0.76020 0.47190 0.27200
C 	C 	0.12700 0.68240 0.19530 -0.02400
C 	C 	0.12430 0.62180 0.11110 -0.01400
C 	C 	0.99360 0.71170 0.23980 0.27300
C 	C 	0.12700 0.51290 0.31760 -0.02300
C 	C 	0.12430 0.48930 0.37820 -0.01400
C 	C 	0.99360 0.52810 0.28830 0.27200
C 	C 	0.62700 0.19530 0.51290 -0.02300
C 	C 	0.62430 0.11110 0.48930 -0.01400
C 	C 	0.49360 0.23980 0.52810 0.27200
C 	C 	0.62700 0.31760 0.80470 -0.02300
C 	C 	0.62430 0.37820 0.88890 -0.01400
C 	C 	0.49360 0.28830 0.76020 0.27200
C 	C 	0.62700 0.48710 0.68240 -0.02300
C 	C 	0.62430 0.51070 0.62180 -0.01500
C 	C 	0.49360 0.47190 0.71170 0.27200
C 	C 	0.87300 0.19530 0.51290 -0.02400
C 	C 	0.87570 0.11110 0.48930 -0.01400
C 	C 	0.00640 0.23980 0.52810 0.27200
C 	C 	0.87300 0.31760 0.80470 -0.02400
C 	C 	0.87570 0.37820 0.88890 -0.01400
C 	C 	0.00640 0.28830 0.76020 0.27300
C 	C 	0.87300 0.48710 0.68240 -0.02300
C 	C 	0.87570 0.51070 0.62180 -0.01400
C 	C 	0.00640 0.47190 0.71170 0.27200
C 	C 	0.37300 0.80470 0.48710 -0.02300
C 	C 	0.37570 0.88890 0.51070 -0.01400
C 	C 	0.50640 0.76020 0.47190 0.27200
C 	C 	0.37300 0.68240 0.19530 -0.02300
C 	C 	0.37570 0.62180 0.11110 -0.01400
C 	C 	0.50640 0.71170 0.23980 0.27200
C 	C 	0.37300 0.51290 0.31760 -0.02300
C 	C 	0.37570 0.48930 0.37820 -0.01500
C 	C 	0.50640 0.52810 0.28830 0.27200
C 	C 	0.25000 0.93370 0.52760 -0.02500
C 	C 	0.25000 0.76310 0.47700 -0.01600
C 	C 	0.25000 0.02560 0.55820 0.27300
C 	C 	0.25000 0.59390 0.06630 -0.02500
C 	C 	0.25000 0.71390 0.23690 -0.01600
C 	C 	0.25000 0.53260 0.97440 0.27300
C 	C 	0.25000 0.47240 0.40610 -0.02500
C 	C 	0.25000 0.52300 0.28610 -0.01600
C 	C 	0.25000 0.44180 0.46740 0.27200
C 	C 	0.75000 0.06630 0.47240 -0.02500
C 	C 	0.75000 0.23690 0.52300 -0.01600
C 	C 	0.75000 0.97440 0.44180 0.27300
C 	C 	0.75000 0.40610 0.93370 -0.02500
C 	C 	0.75000 0.28610 0.76310 -0.01600
C 	C 	0.75000 0.46740 0.02560 0.27300
C 	C 	0.75000 0.52760 0.59390 -0.02500
C 	C 	0.75000 0.47700 0.71390 -0.01600
C 	C 	0.75000 0.55820 0.53260 0.27200
O 	O 	0.99130 0.68800 0.46180 -0.17700
O 	O 	0.36200 0.06500 0.57100 -0.17300
O 	O 	0.88400 0.79620 0.46700 -0.14600
O 	O 	0.99130 0.77380 0.31200 -0.17700
O 	O 	0.36200 0.50600 0.93500 -0.17300
O 	O 	0.88400 0.67080 0.20380 -0.14600
O 	O 	0.99130 0.53820 0.22620 -0.17700
O 	O 	0.36200 0.42900 0.49400 -0.17300
O 	O 	0.88400 0.53300 0.32920 -0.14600
O 	O 	0.49130 0.31200 0.53820 -0.17700
O 	O 	0.86200 0.93500 0.42900 -0.17300
O 	O 	0.38400 0.20380 0.53300 -0.14600
O 	O 	0.49130 0.22620 0.68800 -0.17700
O 	O 	0.86200 0.49400 0.06500 -0.17300
O 	O 	0.38400 0.32920 0.79620 -0.14600
O 	O 	0.49130 0.46180 0.77380 -0.17700
O 	O 	0.86200 0.57100 0.50600 -0.17300
O 	O 	0.38400 0.46700 0.67080 -0.14600
O 	O 	0.00870 0.31200 0.53820 -0.17700
O 	O 	0.63800 0.93500 0.42900 -0.17300
O 	O 	0.11600 0.20380 0.53300 -0.14600
O 	O 	0.00870 0.22620 0.68800 -0.17700
O 	O 	0.63800 0.49400 0.06500 -0.17300
O 	O 	0.11600 0.32920 0.79620 -0.14600
O 	O 	0.00870 0.46180 0.77380 -0.17700
O 	O 	0.63800 0.57100 0.50600 -0.17300
O 	O 	0.11600 0.46700 0.67080 -0.14600
O 	O 	0.50870 0.68800 0.46180 -0.17700
O 	O 	0.13800 0.06500 0.57100 -0.17300
O 	O 	0.61600 0.79620 0.46700 -0.14600
O 	O 	0.50870 0.77380 0.31200 -0.17700
O 	O 	0.13800 0.50600 0.93500 -0.17300
O 	O 	0.61600 0.67080 0.20380 -0.14600
O 	O 	0.50870 0.53820 0.22620 -0.17700
O 	O 	0.13800 0.42900 0.49400 -0.17300
O 	O 	0.61600 0.53300 0.32920 -0.14600
O 	O 	0.75000 0.66667 0.33334 -0.02000
O 	O 	0.25000 0.33333 0.66666 -0.02000
