data_crystal

_cell_length_a 26.07590
_cell_length_b 26.07590
_cell_length_c 26.07590
_cell_angle_alpha 90.00000
_cell_angle_beta  90.00000
_cell_angle_gamma 90.00000

_symmetry_space_group_name_	'P 1'
_symmetry_space_group_name_H-M	'P 1'

loop_
_symmetry_equiv_pos_as_xyz
  x,y,z

loop_
_atom_site_label
_atom_site_type_symbol
_atom_site_fract_x
_atom_site_fract_y
_atom_site_fract_z
_atom_site_charge
O 	O 	0.61453 0.05841 0.55512 -0.54300
C 	C 	0.60200 0.13890 0.66560 0.16800
H 	H 	0.57237 0.12513 0.68004 -0.02300
C 	C 	0.62520 0.17930 0.68890 -0.24100
H 	H 	0.61124 0.19256 0.71895 0.11400
O 	O 	0.38547 0.94159 0.55512 -0.48100
C 	C 	0.39800 0.86110 0.66560 0.15000
H 	H 	0.42763 0.87487 0.68004 -0.00400
C 	C 	0.37480 0.82070 0.68890 -0.22000
H 	H 	0.38876 0.80744 0.71895 0.10900
O 	O 	0.38547 0.05841 0.44488 -0.54400
C 	C 	0.39800 0.13890 0.33440 0.16700
H 	H 	0.42763 0.12513 0.31996 -0.02400
C 	C 	0.37480 0.17930 0.31110 -0.24200
H 	H 	0.38876 0.19256 0.28105 0.11300
O 	O 	0.61453 0.94159 0.44488 -0.48200
C 	C 	0.60200 0.86110 0.33440 0.14900
H 	H 	0.57237 0.87487 0.31996 -0.00500
C 	C 	0.62520 0.82070 0.31110 -0.22100
H 	H 	0.61124 0.80744 0.28105 0.10800
O 	O 	0.55512 0.61453 0.05841 -0.54400
C 	C 	0.66560 0.60200 0.13890 0.16700
H 	H 	0.68004 0.57237 0.12513 -0.02400
C 	C 	0.68890 0.62520 0.17930 -0.24200
H 	H 	0.71895 0.61124 0.19256 0.11300
O 	O 	0.55512 0.38547 0.94159 -0.48200
C 	C 	0.66560 0.39800 0.86110 0.14900
H 	H 	0.68004 0.42763 0.87487 -0.00500
C 	C 	0.68890 0.37480 0.82070 -0.22100
H 	H 	0.71895 0.38876 0.80744 0.10900
O 	O 	0.44488 0.38547 0.05841 -0.54400
C 	C 	0.33440 0.39800 0.13890 0.16700
H 	H 	0.31996 0.42763 0.12513 -0.02400
C 	C 	0.31110 0.37480 0.17930 -0.24200
H 	H 	0.28105 0.38876 0.19256 0.11300
O 	O 	0.44488 0.61453 0.94159 -0.48200
C 	C 	0.33440 0.60200 0.86110 0.14900
H 	H 	0.31996 0.57237 0.87487 -0.00500
C 	C 	0.31110 0.62520 0.82070 -0.22100
H 	H 	0.28105 0.61124 0.80744 0.10800
O 	O 	0.05841 0.55512 0.61453 -0.54400
C 	C 	0.13890 0.66560 0.60200 0.16700
H 	H 	0.12513 0.68004 0.57237 -0.02400
C 	C 	0.17930 0.68890 0.62520 -0.24200
H 	H 	0.19256 0.71895 0.61124 0.11300
O 	O 	0.94159 0.55512 0.38547 -0.48200
C 	C 	0.86110 0.66560 0.39800 0.14900
H 	H 	0.87487 0.68004 0.42763 -0.00500
C 	C 	0.82070 0.68890 0.37480 -0.22100
H 	H 	0.80744 0.71895 0.38876 0.10900
O 	O 	0.05841 0.44488 0.38547 -0.54400
C 	C 	0.13890 0.33440 0.39800 0.16700
H 	H 	0.12513 0.31996 0.42763 -0.02400
C 	C 	0.17930 0.31110 0.37480 -0.24200
H 	H 	0.19256 0.28105 0.38876 0.11300
O 	O 	0.94159 0.44488 0.61453 -0.48200
C 	C 	0.86110 0.33440 0.60200 0.14900
H 	H 	0.87487 0.31996 0.57237 -0.00500
C 	C 	0.82070 0.31110 0.62520 -0.22100
H 	H 	0.80744 0.28105 0.61124 0.10800
O 	O 	0.05841 0.61453 0.44488 -0.54400
C 	C 	0.13890 0.60200 0.33440 0.16700
H 	H 	0.12513 0.57237 0.31996 -0.02400
C 	C 	0.17930 0.62520 0.31110 -0.24200
H 	H 	0.19256 0.61124 0.28105 0.11300
O 	O 	0.94159 0.38547 0.44488 -0.48200
C 	C 	0.86110 0.39800 0.33440 0.14900
H 	H 	0.87487 0.42763 0.31996 -0.00600
C 	C 	0.82070 0.37480 0.31110 -0.22100
H 	H 	0.80744 0.38876 0.28105 0.10800
O 	O 	0.05841 0.38547 0.55512 -0.54400
C 	C 	0.13890 0.39800 0.66560 0.16700
H 	H 	0.12513 0.42763 0.68004 -0.02400
C 	C 	0.17930 0.37480 0.68890 -0.24200
H 	H 	0.19256 0.38876 0.71895 0.11400
O 	O 	0.94159 0.61453 0.55512 -0.48200
C 	C 	0.86110 0.60200 0.66560 0.14900
H 	H 	0.87487 0.57237 0.68004 -0.00500
C 	C 	0.82070 0.62520 0.68890 -0.22000
H 	H 	0.80744 0.61124 0.71895 0.10800
O 	O 	0.61453 0.55512 0.94159 -0.48200
C 	C 	0.60200 0.66560 0.86110 0.14900
H 	H 	0.57237 0.68004 0.87487 -0.00500
C 	C 	0.62520 0.68890 0.82070 -0.22000
H 	H 	0.61124 0.71895 0.80744 0.10800
O 	O 	0.38547 0.55512 0.05841 -0.54400
C 	C 	0.39800 0.66560 0.13890 0.16700
H 	H 	0.42763 0.68004 0.12513 -0.02400
C 	C 	0.37480 0.68890 0.17930 -0.24200
H 	H 	0.38876 0.71895 0.19256 0.11400
O 	O 	0.38547 0.44488 0.94159 -0.48200
C 	C 	0.39800 0.33440 0.86110 0.14900
H 	H 	0.42763 0.31996 0.87487 -0.00600
C 	C 	0.37480 0.31110 0.82070 -0.22100
H 	H 	0.38876 0.28105 0.80744 0.10800
O 	O 	0.61453 0.44488 0.05841 -0.54400
C 	C 	0.60200 0.33440 0.13890 0.16700
H 	H 	0.57237 0.31996 0.12513 -0.02400
C 	C 	0.62520 0.31110 0.17930 -0.24200
H 	H 	0.61124 0.28105 0.19256 0.11300
O 	O 	0.55512 0.05841 0.38547 -0.54400
C 	C 	0.66560 0.13890 0.39800 0.16700
H 	H 	0.68004 0.12513 0.42763 -0.02400
C 	C 	0.68890 0.17930 0.37480 -0.24200
H 	H 	0.71895 0.19256 0.38876 0.11400
O 	O 	0.55512 0.94159 0.61453 -0.48200
C 	C 	0.66560 0.86110 0.60200 0.14900
H 	H 	0.68004 0.87487 0.57237 -0.00500
C 	C 	0.68890 0.82070 0.62520 -0.22000
H 	H 	0.71895 0.80744 0.61124 0.10800
O 	O 	0.44488 0.05841 0.61453 -0.54400
C 	C 	0.33440 0.13890 0.60200 0.16700
H 	H 	0.31996 0.12513 0.57237 -0.02400
C 	C 	0.31110 0.17930 0.62520 -0.24200
H 	H 	0.28105 0.19256 0.61124 0.11300
O 	O 	0.44488 0.94159 0.38547 -0.48200
C 	C 	0.33440 0.86110 0.39800 0.14900
H 	H 	0.31996 0.87487 0.42763 -0.00600
C 	C 	0.31110 0.82070 0.37480 -0.22100
H 	H 	0.28105 0.80744 0.38876 0.10800
O 	O 	0.38547 0.94159 0.44488 -0.48200
C 	C 	0.39800 0.86110 0.33440 0.14900
H 	H 	0.42763 0.87487 0.31996 -0.00600
C 	C 	0.37480 0.82070 0.31110 -0.22100
H 	H 	0.38876 0.80744 0.28105 0.10800
O 	O 	0.61453 0.05841 0.44488 -0.54400
C 	C 	0.60200 0.13890 0.33440 0.16700
H 	H 	0.57237 0.12513 0.31996 -0.02400
C 	C 	0.62520 0.17930 0.31110 -0.24200
H 	H 	0.61124 0.19256 0.28105 0.11300
O 	O 	0.61453 0.94159 0.55512 -0.48200
C 	C 	0.60200 0.86110 0.66560 0.14900
H 	H 	0.57237 0.87487 0.68004 -0.00500
C 	C 	0.62520 0.82070 0.68890 -0.22000
H 	H 	0.61124 0.80744 0.71895 0.10800
O 	O 	0.38547 0.05841 0.55512 -0.54400
C 	C 	0.39800 0.13890 0.66560 0.16700
H 	H 	0.42763 0.12513 0.68004 -0.02400
C 	C 	0.37480 0.17930 0.68890 -0.24200
H 	H 	0.38876 0.19256 0.71895 0.11400
O 	O 	0.44488 0.38547 0.94159 -0.48200
C 	C 	0.33440 0.39800 0.86110 0.14900
H 	H 	0.31996 0.42763 0.87487 -0.00600
C 	C 	0.31110 0.37480 0.82070 -0.22100
H 	H 	0.28105 0.38876 0.80744 0.10800
O 	O 	0.44488 0.61453 0.05841 -0.54400
C 	C 	0.33440 0.60200 0.13890 0.16700
H 	H 	0.31996 0.57237 0.12513 -0.02400
C 	C 	0.31110 0.62520 0.17930 -0.24200
H 	H 	0.28105 0.61124 0.19256 0.11300
O 	O 	0.55512 0.61453 0.94159 -0.48200
C 	C 	0.66560 0.60200 0.86110 0.14900
H 	H 	0.68004 0.57237 0.87487 -0.00500
C 	C 	0.68890 0.62520 0.82070 -0.22000
H 	H 	0.71895 0.61124 0.80744 0.10800
O 	O 	0.55512 0.38547 0.05841 -0.54400
C 	C 	0.66560 0.39800 0.13890 0.16700
H 	H 	0.68004 0.42763 0.12513 -0.02400
C 	C 	0.68890 0.37480 0.17930 -0.24200
H 	H 	0.71895 0.38876 0.19256 0.11400
O 	O 	0.94159 0.44488 0.38547 -0.48200
C 	C 	0.86110 0.33440 0.39800 0.14900
H 	H 	0.87487 0.31996 0.42763 -0.00600
C 	C 	0.82070 0.31110 0.37480 -0.22100
H 	H 	0.80744 0.28105 0.38876 0.10800
O 	O 	0.05841 0.44488 0.61453 -0.54400
C 	C 	0.13890 0.33440 0.60200 0.16700
H 	H 	0.12513 0.31996 0.57237 -0.02400
C 	C 	0.17930 0.31110 0.62520 -0.24200
H 	H 	0.19256 0.28105 0.61124 0.11300
O 	O 	0.94159 0.55512 0.61453 -0.48200
C 	C 	0.86110 0.66560 0.60200 0.14900
H 	H 	0.87487 0.68004 0.57237 -0.00500
C 	C 	0.82070 0.68890 0.62520 -0.22000
H 	H 	0.80744 0.71895 0.61124 0.10800
O 	O 	0.05841 0.55512 0.38547 -0.54400
C 	C 	0.13890 0.66560 0.39800 0.16700
H 	H 	0.12513 0.68004 0.42763 -0.02400
C 	C 	0.17930 0.68890 0.37480 -0.24200
H 	H 	0.19256 0.71895 0.38876 0.11400
O 	O 	0.94159 0.38547 0.55512 -0.48200
C 	C 	0.86110 0.39800 0.66560 0.14900
H 	H 	0.87487 0.42763 0.68004 -0.00500
C 	C 	0.82070 0.37480 0.68890 -0.22100
H 	H 	0.80744 0.38876 0.71895 0.10900
O 	O 	0.05841 0.61453 0.55512 -0.54400
C 	C 	0.13890 0.60200 0.66560 0.16700
H 	H 	0.12513 0.57237 0.68004 -0.02400
C 	C 	0.17930 0.62520 0.68890 -0.24200
H 	H 	0.19256 0.61124 0.71895 0.11300
O 	O 	0.94159 0.61453 0.44488 -0.48200
C 	C 	0.86110 0.60200 0.33440 0.14900
H 	H 	0.87487 0.57237 0.31996 -0.00500
C 	C 	0.82070 0.62520 0.31110 -0.22100
H 	H 	0.80744 0.61124 0.28105 0.10800
O 	O 	0.05841 0.38547 0.44488 -0.54400
C 	C 	0.13890 0.39800 0.33440 0.16700
H 	H 	0.12513 0.42763 0.31996 -0.02400
C 	C 	0.17930 0.37480 0.31110 -0.24200
H 	H 	0.19256 0.38876 0.28105 0.11300
O 	O 	0.38547 0.44488 0.05841 -0.54400
C 	C 	0.39800 0.33440 0.13890 0.16700
H 	H 	0.42763 0.31996 0.12513 -0.02400
C 	C 	0.37480 0.31110 0.17930 -0.24200
H 	H 	0.38876 0.28105 0.19256 0.11300
O 	O 	0.61453 0.44488 0.94159 -0.48200
C 	C 	0.60200 0.33440 0.86110 0.14900
H 	H 	0.57237 0.31996 0.87487 -0.00500
C 	C 	0.62520 0.31110 0.82070 -0.22100
H 	H 	0.61124 0.28105 0.80744 0.10800
O 	O 	0.61453 0.55512 0.05841 -0.54400
C 	C 	0.60200 0.66560 0.13890 0.16700
H 	H 	0.57237 0.68004 0.12513 -0.02400
C 	C 	0.62520 0.68890 0.17930 -0.24200
H 	H 	0.61124 0.71895 0.19256 0.11300
O 	O 	0.38547 0.55512 0.94159 -0.48200
C 	C 	0.39800 0.66560 0.86110 0.14900
H 	H 	0.42763 0.68004 0.87487 -0.00500
C 	C 	0.37480 0.68890 0.82070 -0.22100
H 	H 	0.38876 0.71895 0.80744 0.10900
O 	O 	0.44488 0.94159 0.61453 -0.48200
C 	C 	0.33440 0.86110 0.60200 0.14900
H 	H 	0.31996 0.87487 0.57237 -0.00500
C 	C 	0.31110 0.82070 0.62520 -0.22100
H 	H 	0.28105 0.80744 0.61124 0.10800
O 	O 	0.44488 0.05841 0.38547 -0.54400
C 	C 	0.33440 0.13890 0.39800 0.16700
H 	H 	0.31996 0.12513 0.42763 -0.02400
C 	C 	0.31110 0.17930 0.37480 -0.24200
H 	H 	0.28105 0.19256 0.38876 0.11300
O 	O 	0.55512 0.94159 0.38547 -0.48200
C 	C 	0.66560 0.86110 0.39800 0.14900
H 	H 	0.68004 0.87487 0.42763 -0.00500
C 	C 	0.68890 0.82070 0.37480 -0.22100
H 	H 	0.71895 0.80744 0.38876 0.10900
O 	O 	0.55512 0.05841 0.61453 -0.54400
C 	C 	0.66560 0.13890 0.60200 0.16700
H 	H 	0.68004 0.12513 0.57237 -0.02400
C 	C 	0.68890 0.17930 0.62520 -0.24200
H 	H 	0.71895 0.19256 0.61124 0.11300
Mn	Mn	0.60644 0.00000 0.50000 1.22000
Mn	Mn	0.39356 0.00000 0.50000 1.22000
Mn	Mn	0.50000 0.60644 -0.00000 1.22000
Mn	Mn	0.50000 0.39356 -0.00000 1.22000
Mn	Mn	-0.00000 0.50000 0.60644 1.22000
Mn	Mn	0.00000 0.50000 0.39356 1.22000
Mn	Mn	0.00000 0.60644 0.50000 1.22000
Mn	Mn	0.00000 0.39356 0.50000 1.22000
Mn	Mn	0.60644 0.50000 -0.00000 1.22000
Mn	Mn	0.39356 0.50000 -0.00000 1.22000
Mn	Mn	0.50000 0.00000 0.39356 1.22000
Mn	Mn	0.50000 -0.00000 0.60644 1.22000
C 	C 	0.62115 0.11770 0.62115 -0.25000
C 	C 	0.59514 0.07404 0.59514 0.49200
C 	C 	0.66880 0.20080 0.66880 0.17100
C 	C 	0.69290 0.24570 0.69290 -0.08900
C 	C 	0.37885 0.88230 0.62115 -0.21700
C 	C 	0.40486 0.92596 0.59514 0.48000
C 	C 	0.33120 0.79920 0.66880 0.15800
C 	C 	0.30710 0.75430 0.69290 -0.08400
C 	C 	0.37885 0.11770 0.37885 -0.25100
C 	C 	0.40486 0.07404 0.40486 0.49200
C 	C 	0.33120 0.20080 0.33120 0.17200
C 	C 	0.30710 0.24570 0.30710 -0.09000
C 	C 	0.62115 0.88230 0.37885 -0.21700
C 	C 	0.59514 0.92596 0.40486 0.48000
C 	C 	0.66880 0.79920 0.33120 0.15800
C 	C 	0.69290 0.75430 0.30710 -0.08400
C 	C 	0.62115 0.62115 0.11770 -0.25000
C 	C 	0.59514 0.59514 0.07404 0.49200
C 	C 	0.66880 0.66880 0.20080 0.17100
C 	C 	0.69290 0.69290 0.24570 -0.08900
C 	C 	0.62115 0.37885 0.88230 -0.21700
C 	C 	0.59514 0.40486 0.92596 0.48000
C 	C 	0.66880 0.33120 0.79920 0.15800
C 	C 	0.69290 0.30710 0.75430 -0.08400
C 	C 	0.37885 0.37885 0.11770 -0.25100
C 	C 	0.40486 0.40486 0.07404 0.49200
C 	C 	0.33120 0.33120 0.20080 0.17200
C 	C 	0.30710 0.30710 0.24570 -0.09000
C 	C 	0.37885 0.62115 0.88230 -0.21700
C 	C 	0.40486 0.59514 0.92596 0.48000
C 	C 	0.33120 0.66880 0.79920 0.15800
C 	C 	0.30710 0.69290 0.75430 -0.08400
C 	C 	0.11770 0.62115 0.62115 -0.25000
C 	C 	0.07404 0.59514 0.59514 0.49200
C 	C 	0.20080 0.66880 0.66880 0.17100
C 	C 	0.24570 0.69290 0.69290 -0.08900
C 	C 	0.88230 0.62115 0.37885 -0.21700
C 	C 	0.92596 0.59514 0.40486 0.48000
C 	C 	0.79920 0.66880 0.33120 0.15800
C 	C 	0.75430 0.69290 0.30710 -0.08400
C 	C 	0.11770 0.37885 0.37885 -0.25100
C 	C 	0.07404 0.40486 0.40486 0.49200
C 	C 	0.20080 0.33120 0.33120 0.17200
C 	C 	0.24570 0.30710 0.30710 -0.09000
C 	C 	0.88230 0.37885 0.62115 -0.21700
C 	C 	0.92596 0.40486 0.59514 0.48000
C 	C 	0.79920 0.33120 0.66880 0.15800
C 	C 	0.75430 0.30710 0.69290 -0.08400
C 	C 	0.11770 0.62115 0.37885 -0.25100
C 	C 	0.07404 0.59514 0.40486 0.49200
C 	C 	0.20080 0.66880 0.33120 0.17100
C 	C 	0.24570 0.69290 0.30710 -0.08900
C 	C 	0.88230 0.37885 0.37885 -0.21700
C 	C 	0.92596 0.40486 0.40486 0.48000
C 	C 	0.79920 0.33120 0.33120 0.15800
C 	C 	0.75430 0.30710 0.30710 -0.08500
C 	C 	0.11770 0.37885 0.62115 -0.25100
C 	C 	0.07404 0.40486 0.59514 0.49200
C 	C 	0.20080 0.33120 0.66880 0.17100
C 	C 	0.24570 0.30710 0.69290 -0.08900
C 	C 	0.88230 0.62115 0.62115 -0.21700
C 	C 	0.92596 0.59514 0.59514 0.48000
C 	C 	0.79920 0.66880 0.66880 0.15700
C 	C 	0.75430 0.69290 0.69290 -0.08300
C 	C 	0.62115 0.62115 0.88230 -0.21700
C 	C 	0.59514 0.59514 0.92596 0.48000
C 	C 	0.66880 0.66880 0.79920 0.15700
C 	C 	0.69290 0.69290 0.75430 -0.08300
C 	C 	0.37885 0.62115 0.11770 -0.25100
C 	C 	0.40486 0.59514 0.07404 0.49200
C 	C 	0.33120 0.66880 0.20080 0.17100
C 	C 	0.30710 0.69290 0.24570 -0.08900
C 	C 	0.37885 0.37885 0.88230 -0.21700
C 	C 	0.40486 0.40486 0.92596 0.48000
C 	C 	0.33120 0.33120 0.79920 0.15800
C 	C 	0.30710 0.30710 0.75430 -0.08500
C 	C 	0.62115 0.37885 0.11770 -0.25100
C 	C 	0.59514 0.40486 0.07404 0.49200
C 	C 	0.66880 0.33120 0.20080 0.17100
C 	C 	0.69290 0.30710 0.24570 -0.08900
C 	C 	0.62115 0.11770 0.37885 -0.25100
C 	C 	0.59514 0.07404 0.40486 0.49200
C 	C 	0.66880 0.20080 0.33120 0.17100
C 	C 	0.69290 0.24570 0.30710 -0.08900
C 	C 	0.62115 0.88230 0.62115 -0.21700
C 	C 	0.59514 0.92596 0.59514 0.48000
C 	C 	0.66880 0.79920 0.66880 0.15700
C 	C 	0.69290 0.75430 0.69290 -0.08300
C 	C 	0.37885 0.11770 0.62115 -0.25100
C 	C 	0.40486 0.07404 0.59514 0.49200
C 	C 	0.33120 0.20080 0.66880 0.17100
C 	C 	0.30710 0.24570 0.69290 -0.08900
C 	C 	0.37885 0.88230 0.37885 -0.21700
C 	C 	0.40486 0.92596 0.40486 0.48000
C 	C 	0.33120 0.79920 0.33120 0.15800
C 	C 	0.30710 0.75430 0.30710 -0.08500
C 	C 	0.73457 0.26543 0.67040 0.03800
C 	C 	0.26543 0.73457 0.67040 0.03800
C 	C 	0.26543 0.26543 0.32960 0.04200
C 	C 	0.73457 0.73457 0.32960 0.03700
C 	C 	0.67040 0.73457 0.26543 0.03800
C 	C 	0.67040 0.26543 0.73457 0.03800
C 	C 	0.32960 0.26543 0.26543 0.04200
C 	C 	0.32960 0.73457 0.73457 0.03700
C 	C 	0.26543 0.67040 0.73457 0.03800
C 	C 	0.73457 0.67040 0.26543 0.03800
C 	C 	0.26543 0.32960 0.26543 0.04200
C 	C 	0.73457 0.32960 0.73457 0.03700
C 	C 	0.26543 0.73457 0.32960 0.03900
C 	C 	0.73457 0.26543 0.32960 0.03900
C 	C 	0.26543 0.26543 0.67040 0.04000
C 	C 	0.73457 0.73457 0.67040 0.03600
C 	C 	0.73457 0.67040 0.73457 0.03600
C 	C 	0.26543 0.67040 0.26543 0.04000
C 	C 	0.26543 0.32960 0.73457 0.03900
C 	C 	0.73457 0.32960 0.26543 0.03900
C 	C 	0.67040 0.26543 0.26543 0.04000
C 	C 	0.67040 0.73457 0.73457 0.03600
C 	C 	0.32960 0.26543 0.73457 0.03900
C 	C 	0.32960 0.73457 0.26543 0.03900
O 	O 	0.11453 0.55841 0.05512 -0.55900
C 	C 	0.10200 0.63890 0.16560 0.17300
H 	H 	0.07237 0.62513 0.18004 -0.03900
C 	C 	0.12520 0.67930 0.18890 -0.25300
H 	H 	0.11124 0.69256 0.21895 0.10800
O 	O 	0.88547 0.44159 0.05512 -0.53800
C 	C 	0.89800 0.36110 0.16560 0.15600
H 	H 	0.92763 0.37487 0.18004 0.00100
C 	C 	0.87480 0.32070 0.18890 -0.22800
H 	H 	0.88876 0.30744 0.21895 0.11700
O 	O 	0.88547 0.55841 0.94488 -0.46600
C 	C 	0.89800 0.63890 0.83440 0.14700
H 	H 	0.92763 0.62513 0.81996 0.01000
C 	C 	0.87480 0.67930 0.81110 -0.21100
H 	H 	0.88876 0.69256 0.78105 0.11800
O 	O 	0.11453 0.44159 0.94488 -0.48800
C 	C 	0.10200 0.36110 0.83440 0.15700
H 	H 	0.07237 0.37487 0.81996 -0.03000
C 	C 	0.12520 0.32070 0.81110 -0.23400
H 	H 	0.11124 0.30744 0.78105 0.10200
O 	O 	0.05512 0.11453 0.55841 -0.55900
C 	C 	0.16560 0.10200 0.63890 0.17300
H 	H 	0.18004 0.07237 0.62513 -0.03900
C 	C 	0.18890 0.12520 0.67930 -0.25300
H 	H 	0.21895 0.11124 0.69256 0.10800
O 	O 	0.05512 0.88547 0.44159 -0.53800
C 	C 	0.16560 0.89800 0.36110 0.15600
H 	H 	0.18004 0.92763 0.37487 0.00100
C 	C 	0.18890 0.87480 0.32070 -0.22800
H 	H 	0.21895 0.88876 0.30744 0.11700
O 	O 	0.94488 0.88547 0.55841 -0.46600
C 	C 	0.83440 0.89800 0.63890 0.14700
H 	H 	0.81996 0.92763 0.62513 0.01000
C 	C 	0.81110 0.87480 0.67930 -0.21100
H 	H 	0.78105 0.88876 0.69256 0.11800
O 	O 	0.94488 0.11453 0.44159 -0.48800
C 	C 	0.83440 0.10200 0.36110 0.15700
H 	H 	0.81996 0.07237 0.37487 -0.03000
C 	C 	0.81110 0.12520 0.32070 -0.23400
H 	H 	0.78105 0.11124 0.30744 0.10200
O 	O 	0.55841 0.05512 0.11453 -0.55900
C 	C 	0.63890 0.16560 0.10200 0.17300
H 	H 	0.62513 0.18004 0.07237 -0.03900
C 	C 	0.67930 0.18890 0.12520 -0.25300
H 	H 	0.69256 0.21895 0.11124 0.10800
O 	O 	0.44159 0.05512 0.88547 -0.53800
C 	C 	0.36110 0.16560 0.89800 0.15600
H 	H 	0.37487 0.18004 0.92763 0.00100
C 	C 	0.32070 0.18890 0.87480 -0.22800
H 	H 	0.30744 0.21895 0.88876 0.11700
O 	O 	0.55841 0.94488 0.88547 -0.46600
C 	C 	0.63890 0.83440 0.89800 0.14700
H 	H 	0.62513 0.81996 0.92763 0.01000
C 	C 	0.67930 0.81110 0.87480 -0.21100
H 	H 	0.69256 0.78105 0.88876 0.11800
O 	O 	0.44159 0.94488 0.11453 -0.48800
C 	C 	0.36110 0.83440 0.10200 0.15700
H 	H 	0.37487 0.81996 0.07237 -0.03000
C 	C 	0.32070 0.81110 0.12520 -0.23400
H 	H 	0.30744 0.78105 0.11124 0.10200
O 	O 	0.55841 0.11453 0.94488 -0.48700
C 	C 	0.63890 0.10200 0.83440 0.16000
H 	H 	0.62513 0.07237 0.81996 -0.03000
C 	C 	0.67930 0.12520 0.81110 -0.23500
H 	H 	0.69256 0.11124 0.78105 0.10500
O 	O 	0.44159 0.88547 0.94488 -0.46700
C 	C 	0.36110 0.89800 0.83440 0.14300
H 	H 	0.37487 0.92763 0.81996 0.01000
C 	C 	0.32070 0.87480 0.81110 -0.21000
H 	H 	0.30744 0.88876 0.78105 0.11500
O 	O 	0.55841 0.88547 0.05512 -0.53700
C 	C 	0.63890 0.89800 0.16560 0.16000
H 	H 	0.62513 0.92763 0.18004 0.00100
C 	C 	0.67930 0.87480 0.18890 -0.22800
H 	H 	0.69256 0.88876 0.21895 0.12000
O 	O 	0.44159 0.11453 0.05512 -0.55900
C 	C 	0.36110 0.10200 0.16560 0.17000
H 	H 	0.37487 0.07237 0.18004 -0.03900
C 	C 	0.32070 0.12520 0.18890 -0.25200
H 	H 	0.30744 0.11124 0.21895 0.10500
O 	O 	0.11453 0.05512 0.44159 -0.55900
C 	C 	0.10200 0.16560 0.36110 0.17000
H 	H 	0.07237 0.18004 0.37487 -0.03900
C 	C 	0.12520 0.18890 0.32070 -0.25200
H 	H 	0.11124 0.21895 0.30744 0.10500
O 	O 	0.88547 0.05512 0.55841 -0.53700
C 	C 	0.89800 0.16560 0.63890 0.16000
H 	H 	0.92763 0.18004 0.62513 0.00100
C 	C 	0.87480 0.18890 0.67930 -0.22800
H 	H 	0.88876 0.21895 0.69256 0.12000
O 	O 	0.88547 0.94488 0.44159 -0.46700
C 	C 	0.89800 0.83440 0.36110 0.14300
H 	H 	0.92763 0.81996 0.37487 0.01000
C 	C 	0.87480 0.81110 0.32070 -0.21000
H 	H 	0.88876 0.78105 0.30744 0.11500
O 	O 	0.11453 0.94488 0.55841 -0.48700
C 	C 	0.10200 0.83440 0.63890 0.16000
H 	H 	0.07237 0.81996 0.62513 -0.03000
C 	C 	0.12520 0.81110 0.67930 -0.23500
H 	H 	0.11124 0.78105 0.69256 0.10500
O 	O 	0.05512 0.55841 0.88547 -0.53700
C 	C 	0.16560 0.63890 0.89800 0.16000
H 	H 	0.18004 0.62513 0.92763 0.00100
C 	C 	0.18890 0.67930 0.87480 -0.22800
H 	H 	0.21895 0.69256 0.88876 0.12000
O 	O 	0.05512 0.44159 0.11453 -0.55900
C 	C 	0.16560 0.36110 0.10200 0.17000
H 	H 	0.18004 0.37487 0.07237 -0.03900
C 	C 	0.18890 0.32070 0.12520 -0.25200
H 	H 	0.21895 0.30744 0.11124 0.10500
O 	O 	0.94488 0.55841 0.11453 -0.48700
C 	C 	0.83440 0.63890 0.10200 0.16000
H 	H 	0.81996 0.62513 0.07237 -0.03000
C 	C 	0.81110 0.67930 0.12520 -0.23500
H 	H 	0.78105 0.69256 0.11124 0.10500
O 	O 	0.94488 0.44159 0.88547 -0.46700
C 	C 	0.83440 0.36110 0.89800 0.14300
H 	H 	0.81996 0.37487 0.92763 0.01000
C 	C 	0.81110 0.32070 0.87480 -0.21000
H 	H 	0.78105 0.30744 0.88876 0.11500
O 	O 	0.88547 0.44159 0.94488 -0.46700
C 	C 	0.89800 0.36110 0.83440 0.14300
H 	H 	0.92763 0.37487 0.81996 0.01000
C 	C 	0.87480 0.32070 0.81110 -0.21000
H 	H 	0.88876 0.30744 0.78105 0.11500
O 	O 	0.11453 0.55841 0.94488 -0.48700
C 	C 	0.10200 0.63890 0.83440 0.16000
H 	H 	0.07237 0.62513 0.81996 -0.03000
C 	C 	0.12520 0.67930 0.81110 -0.23500
H 	H 	0.11124 0.69256 0.78105 0.10500
O 	O 	0.11453 0.44159 0.05512 -0.55900
C 	C 	0.10200 0.36110 0.16560 0.17000
H 	H 	0.07237 0.37487 0.18004 -0.03900
C 	C 	0.12520 0.32070 0.18890 -0.25200
H 	H 	0.11124 0.30744 0.21895 0.10500
O 	O 	0.88547 0.55841 0.05512 -0.53700
C 	C 	0.89800 0.63890 0.16560 0.16000
H 	H 	0.92763 0.62513 0.18004 0.00100
C 	C 	0.87480 0.67930 0.18890 -0.22800
H 	H 	0.88876 0.69256 0.21895 0.12000
O 	O 	0.94488 0.88547 0.44159 -0.46700
C 	C 	0.83440 0.89800 0.36110 0.14300
H 	H 	0.81996 0.92763 0.37487 0.01000
C 	C 	0.81110 0.87480 0.32070 -0.21000
H 	H 	0.78105 0.88876 0.30744 0.11500
O 	O 	0.94488 0.11453 0.55841 -0.48700
C 	C 	0.83440 0.10200 0.63890 0.16000
H 	H 	0.81996 0.07237 0.62513 -0.03000
C 	C 	0.81110 0.12520 0.67930 -0.23500
H 	H 	0.78105 0.11124 0.69256 0.10500
O 	O 	0.05512 0.11453 0.44159 -0.55900
C 	C 	0.16560 0.10200 0.36110 0.17000
H 	H 	0.18004 0.07237 0.37487 -0.03900
C 	C 	0.18890 0.12520 0.32070 -0.25200
H 	H 	0.21895 0.11124 0.30744 0.10500
O 	O 	0.05512 0.88547 0.55841 -0.53700
C 	C 	0.16560 0.89800 0.63890 0.16000
H 	H 	0.18004 0.92763 0.62513 0.00100
C 	C 	0.18890 0.87480 0.67930 -0.22800
H 	H 	0.21895 0.88876 0.69256 0.12000
O 	O 	0.44159 0.94488 0.88547 -0.46700
C 	C 	0.36110 0.83440 0.89800 0.14300
H 	H 	0.37487 0.81996 0.92763 0.01000
C 	C 	0.32070 0.81110 0.87480 -0.21000
H 	H 	0.30744 0.78105 0.88876 0.11500
O 	O 	0.55841 0.94488 0.11453 -0.48700
C 	C 	0.63890 0.83440 0.10200 0.16000
H 	H 	0.62513 0.81996 0.07237 -0.03000
C 	C 	0.67930 0.81110 0.12520 -0.23500
H 	H 	0.69256 0.78105 0.11124 0.10500
O 	O 	0.44159 0.05512 0.11453 -0.55900
C 	C 	0.36110 0.16560 0.10200 0.17000
H 	H 	0.37487 0.18004 0.07237 -0.03900
C 	C 	0.32070 0.18890 0.12520 -0.25200
H 	H 	0.30744 0.21895 0.11124 0.10500
O 	O 	0.55841 0.05512 0.88547 -0.53700
C 	C 	0.63890 0.16560 0.89800 0.16000
H 	H 	0.62513 0.18004 0.92763 0.00100
C 	C 	0.67930 0.18890 0.87480 -0.22800
H 	H 	0.69256 0.21895 0.88876 0.12000
O 	O 	0.44159 0.88547 0.05512 -0.53800
C 	C 	0.36110 0.89800 0.16560 0.15600
H 	H 	0.37487 0.92763 0.18004 0.00100
C 	C 	0.32070 0.87480 0.18890 -0.22800
H 	H 	0.30744 0.88876 0.21895 0.11700
O 	O 	0.55841 0.11453 0.05512 -0.55900
C 	C 	0.63890 0.10200 0.16560 0.17300
H 	H 	0.62513 0.07237 0.18004 -0.03900
C 	C 	0.67930 0.12520 0.18890 -0.25300
H 	H 	0.69256 0.11124 0.21895 0.10800
O 	O 	0.44159 0.11453 0.94488 -0.48800
C 	C 	0.36110 0.10200 0.83440 0.15700
H 	H 	0.37487 0.07237 0.81996 -0.03000
C 	C 	0.32070 0.12520 0.81110 -0.23400
H 	H 	0.30744 0.11124 0.78105 0.10200
O 	O 	0.55841 0.88547 0.94488 -0.46600
C 	C 	0.63890 0.89800 0.83440 0.14700
H 	H 	0.62513 0.92763 0.81996 0.01000
C 	C 	0.67930 0.87480 0.81110 -0.21100
H 	H 	0.69256 0.88876 0.78105 0.11800
O 	O 	0.88547 0.94488 0.55841 -0.46600
C 	C 	0.89800 0.83440 0.63890 0.14700
H 	H 	0.92763 0.81996 0.62513 0.01000
C 	C 	0.87480 0.81110 0.67930 -0.21100
H 	H 	0.88876 0.78105 0.69256 0.11800
O 	O 	0.11453 0.94488 0.44159 -0.48800
C 	C 	0.10200 0.83440 0.36110 0.15700
H 	H 	0.07237 0.81996 0.37487 -0.03000
C 	C 	0.12520 0.81110 0.32070 -0.23400
H 	H 	0.11124 0.78105 0.30744 0.10200
O 	O 	0.11453 0.05512 0.55841 -0.55900
C 	C 	0.10200 0.16560 0.63890 0.17300
H 	H 	0.07237 0.18004 0.62513 -0.03900
C 	C 	0.12520 0.18890 0.67930 -0.25300
H 	H 	0.11124 0.21895 0.69256 0.10800
O 	O 	0.88547 0.05512 0.44159 -0.53800
C 	C 	0.89800 0.16560 0.36110 0.15600
H 	H 	0.92763 0.18004 0.37487 0.00100
C 	C 	0.87480 0.18890 0.32070 -0.22800
H 	H 	0.88876 0.21895 0.30744 0.11700
O 	O 	0.94488 0.44159 0.11453 -0.48800
C 	C 	0.83440 0.36110 0.10200 0.15700
H 	H 	0.81996 0.37487 0.07237 -0.03000
C 	C 	0.81110 0.32070 0.12520 -0.23400
H 	H 	0.78105 0.30744 0.11124 0.10200
O 	O 	0.94488 0.55841 0.88547 -0.46600
C 	C 	0.83440 0.63890 0.89800 0.14700
H 	H 	0.81996 0.62513 0.92763 0.01000
C 	C 	0.81110 0.67930 0.87480 -0.21100
H 	H 	0.78105 0.69256 0.88876 0.11800
O 	O 	0.05512 0.44159 0.88547 -0.53800
C 	C 	0.16560 0.36110 0.89800 0.15600
H 	H 	0.18004 0.37487 0.92763 0.00100
C 	C 	0.18890 0.32070 0.87480 -0.22800
H 	H 	0.21895 0.30744 0.88876 0.11700
O 	O 	0.05512 0.55841 0.11453 -0.55900
C 	C 	0.16560 0.63890 0.10200 0.17300
H 	H 	0.18004 0.62513 0.07237 -0.03900
C 	C 	0.18890 0.67930 0.12520 -0.25300
H 	H 	0.21895 0.69256 0.11124 0.10800
Mn	Mn	0.10644 0.50000 -0.00000 1.21500
Mn	Mn	0.89356 0.50000 -0.00000 1.22600
Mn	Mn	-0.00000 0.10644 0.50000 1.21500
Mn	Mn	0.00000 0.89356 0.50000 1.22600
Mn	Mn	0.50000 0.00000 0.10644 1.21500
Mn	Mn	0.50000 0.00000 0.89356 1.22600
Mn	Mn	0.50000 0.10644 -0.00000 1.21500
Mn	Mn	0.50000 0.89356 -0.00000 1.22600
Mn	Mn	0.10644 0.00000 0.50000 1.21500
Mn	Mn	0.89356 0.00000 0.50000 1.22600
Mn	Mn	0.00000 0.50000 0.89356 1.22600
Mn	Mn	-0.00000 0.50000 0.10644 1.21500
C 	C 	0.12115 0.61770 0.12115 -0.26700
C 	C 	0.09514 0.57404 0.09514 0.50100
C 	C 	0.16880 0.70080 0.16880 0.17000
C 	C 	0.19290 0.74570 0.19290 -0.09000
C 	C 	0.87885 0.38230 0.12115 -0.23400
C 	C 	0.90486 0.42596 0.09514 0.48500
C 	C 	0.83120 0.29920 0.16880 0.16200
C 	C 	0.80710 0.25430 0.19290 -0.08600
C 	C 	0.87885 0.61770 0.87885 -0.20100
C 	C 	0.90486 0.57404 0.90486 0.47200
C 	C 	0.83120 0.70080 0.83120 0.16500
C 	C 	0.80710 0.74570 0.80710 -0.08400
C 	C 	0.12115 0.38230 0.87885 -0.23400
C 	C 	0.09514 0.42596 0.90486 0.48500
C 	C 	0.16880 0.29920 0.83120 0.16200
C 	C 	0.19290 0.25430 0.80710 -0.08600
C 	C 	0.12115 0.12115 0.61770 -0.26700
C 	C 	0.09514 0.09514 0.57404 0.50100
C 	C 	0.16880 0.16880 0.70080 0.17000
C 	C 	0.19290 0.19290 0.74570 -0.09000
C 	C 	0.12115 0.87885 0.38230 -0.23400
C 	C 	0.09514 0.90486 0.42596 0.48500
C 	C 	0.16880 0.83120 0.29920 0.16200
C 	C 	0.19290 0.80710 0.25430 -0.08600
C 	C 	0.87885 0.87885 0.61770 -0.20100
C 	C 	0.90486 0.90486 0.57404 0.47200
C 	C 	0.83120 0.83120 0.70080 0.16500
C 	C 	0.80710 0.80710 0.74570 -0.08400
C 	C 	0.87885 0.12115 0.38230 -0.23400
C 	C 	0.90486 0.09514 0.42596 0.48500
C 	C 	0.83120 0.16880 0.29920 0.16200
C 	C 	0.80710 0.19290 0.25430 -0.08600
C 	C 	0.61770 0.12115 0.12115 -0.26700
C 	C 	0.57404 0.09514 0.09514 0.50100
C 	C 	0.70080 0.16880 0.16880 0.17000
C 	C 	0.74570 0.19290 0.19290 -0.09000
C 	C 	0.38230 0.12115 0.87885 -0.23400
C 	C 	0.42596 0.09514 0.90486 0.48500
C 	C 	0.29920 0.16880 0.83120 0.16200
C 	C 	0.25430 0.19290 0.80710 -0.08600
C 	C 	0.61770 0.87885 0.87885 -0.20100
C 	C 	0.57404 0.90486 0.90486 0.47200
C 	C 	0.70080 0.83120 0.83120 0.16500
C 	C 	0.74570 0.80710 0.80710 -0.08400
C 	C 	0.38230 0.87885 0.12115 -0.23400
C 	C 	0.42596 0.90486 0.09514 0.48500
C 	C 	0.29920 0.83120 0.16880 0.16200
C 	C 	0.25430 0.80710 0.19290 -0.08600
C 	C 	0.61770 0.12115 0.87885 -0.23400
C 	C 	0.57404 0.09514 0.90486 0.48700
C 	C 	0.70080 0.16880 0.83120 0.16700
C 	C 	0.74570 0.19290 0.80710 -0.08700
C 	C 	0.38230 0.87885 0.87885 -0.20000
C 	C 	0.42596 0.90486 0.90486 0.47100
C 	C 	0.29920 0.83120 0.83120 0.15900
C 	C 	0.25430 0.80710 0.80710 -0.08300
C 	C 	0.61770 0.87885 0.12115 -0.23400
C 	C 	0.57404 0.90486 0.09514 0.48700
C 	C 	0.70080 0.83120 0.16880 0.16700
C 	C 	0.74570 0.80710 0.19290 -0.08700
C 	C 	0.38230 0.12115 0.12115 -0.26700
C 	C 	0.42596 0.09514 0.09514 0.50000
C 	C 	0.29920 0.16880 0.16880 0.16500
C 	C 	0.25430 0.19290 0.19290 -0.08900
C 	C 	0.12115 0.12115 0.38230 -0.26700
C 	C 	0.09514 0.09514 0.42596 0.50000
C 	C 	0.16880 0.16880 0.29920 0.16500
C 	C 	0.19290 0.19290 0.25430 -0.08900
C 	C 	0.87885 0.12115 0.61770 -0.23400
C 	C 	0.90486 0.09514 0.57404 0.48700
C 	C 	0.83120 0.16880 0.70080 0.16700
C 	C 	0.80710 0.19290 0.74570 -0.08700
C 	C 	0.87885 0.87885 0.38230 -0.20000
C 	C 	0.90486 0.90486 0.42596 0.47100
C 	C 	0.83120 0.83120 0.29920 0.15900
C 	C 	0.80710 0.80710 0.25430 -0.08300
C 	C 	0.12115 0.87885 0.61770 -0.23400
C 	C 	0.09514 0.90486 0.57404 0.48700
C 	C 	0.16880 0.83120 0.70080 0.16700
C 	C 	0.19290 0.80710 0.74570 -0.08700
C 	C 	0.12115 0.61770 0.87885 -0.23400
C 	C 	0.09514 0.57404 0.90486 0.48700
C 	C 	0.16880 0.70080 0.83120 0.16700
C 	C 	0.19290 0.74570 0.80710 -0.08700
C 	C 	0.12115 0.38230 0.12115 -0.26700
C 	C 	0.09514 0.42596 0.09514 0.50000
C 	C 	0.16880 0.29920 0.16880 0.16500
C 	C 	0.19290 0.25430 0.19290 -0.08900
C 	C 	0.87885 0.61770 0.12115 -0.23400
C 	C 	0.90486 0.57404 0.09514 0.48700
C 	C 	0.83120 0.70080 0.16880 0.16700
C 	C 	0.80710 0.74570 0.19290 -0.08700
C 	C 	0.87885 0.38230 0.87885 -0.20000
C 	C 	0.90486 0.42596 0.90486 0.47100
C 	C 	0.83120 0.29920 0.83120 0.15900
C 	C 	0.80710 0.25430 0.80710 -0.08300
C 	C 	0.23457 0.76543 0.17040 0.03200
C 	C 	0.76543 0.23457 0.17040 0.03200
C 	C 	0.76543 0.76543 0.82960 0.05300
C 	C 	0.23457 0.23457 0.82960 0.04000
C 	C 	0.17040 0.23457 0.76543 0.03200
C 	C 	0.17040 0.76543 0.23457 0.03200
C 	C 	0.82960 0.76543 0.76543 0.05300
C 	C 	0.82960 0.23457 0.23457 0.04000
C 	C 	0.76543 0.17040 0.23457 0.03200
C 	C 	0.23457 0.17040 0.76543 0.03200
C 	C 	0.76543 0.82960 0.76543 0.05300
C 	C 	0.23457 0.82960 0.23457 0.04000
C 	C 	0.76543 0.23457 0.82960 0.04600
C 	C 	0.23457 0.76543 0.82960 0.04600
C 	C 	0.76543 0.76543 0.17040 0.03800
C 	C 	0.23457 0.23457 0.17040 0.02500
C 	C 	0.23457 0.17040 0.23457 0.02500
C 	C 	0.76543 0.17040 0.76543 0.03800
C 	C 	0.76543 0.82960 0.23457 0.04600
C 	C 	0.23457 0.82960 0.76543 0.04600
C 	C 	0.17040 0.76543 0.76543 0.03800
C 	C 	0.17040 0.23457 0.23457 0.02500
C 	C 	0.82960 0.76543 0.23457 0.04600
C 	C 	0.82960 0.23457 0.76543 0.04600
