data_crystal

_cell_length_a 15.10000
_cell_length_b 15.67700
_cell_length_c 15.67700
_cell_angle_alpha 120.00000
_cell_angle_beta  90.00000
_cell_angle_gamma 90.00000

_symmetry_space_group_name_	'P 1'
_symmetry_space_group_name_H-M	'P 1'

loop_
_symmetry_equiv_pos_as_xyz
  x,y,z

loop_
_atom_site_label
_atom_site_type_symbol
_atom_site_fract_x
_atom_site_fract_y
_atom_site_fract_z
_atom_site_charge
La	La	0.75000 0.33333 0.66666 1.69700
La	La	0.75000 0.66667 0.33334 1.68400
La	La	0.25000 0.66667 0.33334 1.66700
La	La	0.25000 0.33333 0.66666 1.68200
Mg	Mg	-0.00000 0.50000 -0.00000 1.43400
Mg	Mg	-0.00000 0.50000 0.50000 1.44600
Mg	Mg	-0.00000 1.00000 0.50000 1.43400
Mg	Mg	0.50000 0.50000 -0.00000 1.45200
Mg	Mg	0.50000 1.00000 0.50000 1.45200
Mg	Mg	0.50000 0.50000 0.50000 1.46500
H 	H 	0.84400 0.23500 0.94660 0.11800
H 	H 	0.84400 0.71160 0.76500 0.08200
H 	H 	0.84400 0.05340 0.28840 0.10600
H 	H 	0.84400 0.76500 0.05340 0.03400
H 	H 	0.84400 0.28840 0.23500 0.07100
H 	H 	0.84400 0.94660 0.71160 0.04600
H 	H 	0.65600 0.28840 0.05340 0.01900
H 	H 	0.65600 0.94660 0.23500 0.00600
H 	H 	0.65600 0.76500 0.71160 0.04400
H 	H 	0.65600 0.71160 0.94660 0.08100
H 	H 	0.65600 0.05340 0.76500 0.09300
H 	H 	0.65600 0.23500 0.28840 0.05500
H 	H 	0.15600 0.76500 0.05340 -0.02400
H 	H 	0.15600 0.28840 0.23500 0.01400
H 	H 	0.15600 0.94660 0.71160 -0.01200
H 	H 	0.15600 0.23500 0.94660 0.06500
H 	H 	0.15600 0.71160 0.76500 0.02500
H 	H 	0.15600 0.05340 0.28840 0.05200
H 	H 	0.34400 0.71160 0.94660 0.07700
H 	H 	0.34400 0.05340 0.76500 0.09000
H 	H 	0.34400 0.23500 0.28840 0.05100
H 	H 	0.34400 0.28840 0.05340 0.01400
H 	H 	0.34400 0.94660 0.23500 0.00200
H 	H 	0.34400 0.76500 0.71160 0.04000
H 	H 	0.75000 0.10100 0.89900 0.09400
H 	H 	0.75000 0.79800 0.89900 0.05500
H 	H 	0.75000 0.10100 0.20200 0.05500
H 	H 	0.75000 0.89900 0.10100 -0.00400
H 	H 	0.75000 0.20200 0.10100 0.03700
H 	H 	0.75000 0.89900 0.79800 0.03700
H 	H 	0.25000 0.89900 0.10100 -0.01400
H 	H 	0.25000 0.20200 0.10100 0.02700
H 	H 	0.25000 0.89900 0.79800 0.02700
H 	H 	0.25000 0.10100 0.89900 0.08700
H 	H 	0.25000 0.79800 0.89900 0.04600
H 	H 	0.25000 0.10100 0.20200 0.04600
C 	C 	0.80574 0.21511 0.89348 -0.02100
C 	C 	0.80306 0.26469 0.84108 0.00900
C 	C 	0.86094 0.35256 0.86598 0.35800
C 	C 	0.80574 0.67837 0.78489 -0.02900
C 	C 	0.80306 0.57639 0.73531 -0.01100
C 	C 	0.86094 0.51342 0.64744 0.36200
C 	C 	0.80574 0.10652 0.32163 -0.02900
C 	C 	0.80306 0.15892 0.42361 0.00100
C 	C 	0.86094 0.13402 0.48658 0.35600
C 	C 	0.80574 0.78489 0.10652 -0.03500
C 	C 	0.80306 0.73531 0.15892 -0.05000
C 	C 	0.86094 0.64744 0.13402 0.36400
C 	C 	0.80574 0.32163 0.21511 -0.02600
C 	C 	0.80306 0.42361 0.26469 -0.03000
C 	C 	0.86094 0.48658 0.35256 0.36100
C 	C 	0.80574 0.89348 0.67837 -0.02600
C 	C 	0.80306 0.84108 0.57639 -0.04200
C 	C 	0.86094 0.86598 0.51342 0.36600
C 	C 	0.69426 0.32163 0.10652 -0.02500
C 	C 	0.69694 0.42361 0.15892 -0.06000
C 	C 	0.63906 0.48658 0.13402 0.37100
C 	C 	0.69426 0.89348 0.21511 -0.03400
C 	C 	0.69694 0.84108 0.26469 -0.06800
C 	C 	0.63906 0.86598 0.35256 0.36900
C 	C 	0.69426 0.78489 0.67837 -0.02500
C 	C 	0.69694 0.73531 0.57639 -0.04800
C 	C 	0.63906 0.64744 0.51342 0.36500
C 	C 	0.69426 0.67837 0.89348 -0.02800
C 	C 	0.69694 0.57639 0.84108 -0.01600
C 	C 	0.63906 0.51342 0.86598 0.36000
C 	C 	0.69426 0.10652 0.78489 -0.02000
C 	C 	0.69694 0.15892 0.73531 -0.00800
C 	C 	0.63906 0.13402 0.64744 0.36200
C 	C 	0.69426 0.21511 0.32163 -0.02800
C 	C 	0.69694 0.26469 0.42361 -0.02900
C 	C 	0.63906 0.35256 0.48658 0.36700
C 	C 	0.19426 0.78489 0.10652 -0.02300
C 	C 	0.19694 0.73531 0.15892 -0.09700
C 	C 	0.13906 0.64744 0.13402 0.37300
C 	C 	0.19426 0.32163 0.21511 -0.01400
C 	C 	0.19694 0.42361 0.26469 -0.07600
C 	C 	0.13906 0.48658 0.35256 0.37000
C 	C 	0.19426 0.89348 0.67837 -0.01500
C 	C 	0.19694 0.84108 0.57639 -0.08800
C 	C 	0.13906 0.86598 0.51342 0.37500
C 	C 	0.19426 0.21511 0.89348 -0.00900
C 	C 	0.19694 0.26469 0.84108 -0.03400
C 	C 	0.13906 0.35256 0.86598 0.36600
C 	C 	0.19426 0.67837 0.78489 -0.01700
C 	C 	0.19694 0.57639 0.73531 -0.05700
C 	C 	0.13906 0.51342 0.64744 0.37100
C 	C 	0.19426 0.10652 0.32163 -0.01700
C 	C 	0.19694 0.15892 0.42361 -0.04300
C 	C 	0.13906 0.13402 0.48658 0.36500
C 	C 	0.30574 0.67837 0.89348 -0.01800
C 	C 	0.30306 0.57639 0.84108 -0.02700
C 	C 	0.36094 0.51342 0.86598 0.36200
C 	C 	0.30574 0.10652 0.78489 -0.00900
C 	C 	0.30306 0.15892 0.73531 -0.01800
C 	C 	0.36094 0.13402 0.64744 0.36400
C 	C 	0.30574 0.21511 0.32163 -0.01800
C 	C 	0.30306 0.26469 0.42361 -0.04000
C 	C 	0.36094 0.35256 0.48658 0.36800
C 	C 	0.30574 0.32163 0.10652 -0.01500
C 	C 	0.30306 0.42361 0.15892 -0.07100
C 	C 	0.36094 0.48658 0.13402 0.37200
C 	C 	0.30574 0.89348 0.21511 -0.02400
C 	C 	0.30306 0.84108 0.26469 -0.08000
C 	C 	0.36094 0.86598 0.35256 0.37000
C 	C 	0.30574 0.78489 0.67837 -0.01500
C 	C 	0.30306 0.73531 0.57639 -0.05900
C 	C 	0.36094 0.64744 0.51342 0.36700
C 	C 	0.75000 0.13525 0.86475 0.00600
C 	C 	0.75000 0.72950 0.86475 -0.01000
C 	C 	0.75000 0.13525 0.27050 -0.01000
C 	C 	0.75000 0.86475 0.13525 -0.07200
C 	C 	0.75000 0.27050 0.13525 -0.05600
C 	C 	0.75000 0.86475 0.72950 -0.05600
C 	C 	0.25000 0.86475 0.13525 -0.10300
C 	C 	0.25000 0.27050 0.13525 -0.08600
C 	C 	0.25000 0.86475 0.72950 -0.08600
C 	C 	0.25000 0.13525 0.86475 -0.02200
C 	C 	0.25000 0.72950 0.86475 -0.03900
C 	C 	0.25000 0.13525 0.27050 -0.03900
N 	N 	0.75000 0.23653 0.76348 -0.16500
N 	N 	0.75000 0.52695 0.76348 -0.16500
N 	N 	0.75000 0.23653 0.47306 -0.16500
N 	N 	0.75000 0.76347 0.23652 -0.16300
N 	N 	0.75000 0.47305 0.23652 -0.16300
N 	N 	0.75000 0.76347 0.52694 -0.16300
N 	N 	0.25000 0.76347 0.23652 -0.16000
N 	N 	0.25000 0.47305 0.23652 -0.15900
N 	N 	0.25000 0.76347 0.52694 -0.15900
N 	N 	0.25000 0.23653 0.76348 -0.16100
N 	N 	0.25000 0.52695 0.76348 -0.16200
N 	N 	0.25000 0.23653 0.47306 -0.16200
O 	O 	0.90539 0.38843 0.94261 -0.35900
O 	O 	0.85938 0.38344 0.80493 -0.36700
O 	O 	0.90539 0.55418 0.61157 -0.41300
O 	O 	0.85938 0.42149 0.61656 -0.38400
O 	O 	0.90539 0.05739 0.44582 -0.36300
O 	O 	0.85938 0.19507 0.57851 -0.36800
O 	O 	0.90539 0.61157 0.05739 -0.46900
O 	O 	0.85938 0.61656 0.19507 -0.40300
O 	O 	0.90539 0.44582 0.38843 -0.41800
O 	O 	0.85938 0.57851 0.38344 -0.38600
O 	O 	0.90539 0.94261 0.55418 -0.46600
O 	O 	0.85938 0.80493 0.42149 -0.40100
O 	O 	0.59461 0.44582 0.05739 -0.53700
O 	O 	0.64062 0.57851 0.19507 -0.44200
O 	O 	0.59461 0.94261 0.38843 -0.54200
O 	O 	0.64062 0.80493 0.38344 -0.44300
O 	O 	0.59461 0.61157 0.55418 -0.48900
O 	O 	0.64062 0.61656 0.42149 -0.42700
O 	O 	0.59461 0.55418 0.94261 -0.43100
O 	O 	0.64062 0.42149 0.80493 -0.40700
O 	O 	0.59461 0.05739 0.61157 -0.42600
O 	O 	0.64062 0.19507 0.61656 -0.40500
O 	O 	0.59461 0.38843 0.44582 -0.48400
O 	O 	0.64062 0.38344 0.57851 -0.42300
O 	O 	0.09461 0.61157 0.05739 -0.60600
O 	O 	0.14062 0.61656 0.19507 -0.48000
O 	O 	0.09461 0.44582 0.38843 -0.55200
O 	O 	0.14062 0.57851 0.38344 -0.46300
O 	O 	0.09461 0.94261 0.55418 -0.60100
O 	O 	0.14062 0.80493 0.42149 -0.47800
O 	O 	0.09461 0.38843 0.94261 -0.48700
O 	O 	0.14062 0.38344 0.80493 -0.44100
O 	O 	0.09461 0.55418 0.61157 -0.54800
O 	O 	0.14062 0.42149 0.61656 -0.46000
O 	O 	0.09461 0.05739 0.44582 -0.49200
O 	O 	0.14062 0.19507 0.57851 -0.44200
O 	O 	0.40539 0.55418 0.94261 -0.43000
O 	O 	0.35938 0.42149 0.80493 -0.40600
O 	O 	0.40539 0.05739 0.61157 -0.42600
O 	O 	0.35938 0.19507 0.61656 -0.40400
O 	O 	0.40539 0.38843 0.44582 -0.48500
O 	O 	0.35938 0.38344 0.57851 -0.42200
O 	O 	0.40539 0.44582 0.05739 -0.53900
O 	O 	0.35938 0.57851 0.19507 -0.44100
O 	O 	0.40539 0.94261 0.38843 -0.54300
O 	O 	0.35938 0.80493 0.38344 -0.44300
O 	O 	0.40539 0.61157 0.55418 -0.48900
O 	O 	0.35938 0.61656 0.42149 -0.42600
