data_crystal

_cell_length_a 30.75610
_cell_length_b 30.75610
_cell_length_c 30.75610
_cell_angle_alpha 90.00000
_cell_angle_beta  90.00000
_cell_angle_gamma 90.00000

_symmetry_space_group_name_	'P 1'
_symmetry_space_group_name_H-M	'P 1'

loop_
_symmetry_equiv_pos_as_xyz
  x,y,z

loop_
_atom_site_label
_atom_site_type_symbol
_atom_site_fract_x
_atom_site_fract_y
_atom_site_fract_z
_atom_site_charge
N 	N 	0.22790 0.15880 0.08220 -0.31100
C 	C 	0.23080 0.19840 0.06360 0.09700
H 	H 	0.20680 0.20910 0.04730 -0.05600
C 	C 	0.26690 0.22320 0.06760 -0.21500
H 	H 	0.26800 0.25090 0.05400 0.06700
C 	C 	0.30220 0.20840 0.09150 0.14000
H 	H 	0.32750 0.22590 0.09430 -0.06800
C 	C 	0.30060 0.16780 0.11120 -0.33100
C 	C 	0.26190 0.14460 0.10510 0.14100
H 	H 	0.25970 0.11680 0.11820 -0.08000
C 	C 	0.32460 0.10790 0.18570 -0.85300
H 	H 	0.30860 0.08410 0.17190 0.22600
H 	H 	0.34850 0.09590 0.20310 0.21500
H 	H 	0.30500 0.12440 0.20450 0.23800
C 	C 	0.37780 0.18970 0.16870 -0.84500
H 	H 	0.38950 0.20870 0.14600 0.21700
H 	H 	0.35820 0.20640 0.18750 0.23300
H 	H 	0.40170 0.17790 0.18610 0.22000
Si	Si	0.34709 0.14424 0.14314 0.67300
N 	N 	0.72790 0.65880 0.58220 -0.31100
C 	C 	0.73080 0.69840 0.56360 0.09700
H 	H 	0.70680 0.70910 0.54730 -0.05600
C 	C 	0.76690 0.72320 0.56760 -0.21500
H 	H 	0.76800 0.75090 0.55400 0.06700
C 	C 	0.80220 0.70840 0.59150 0.14000
H 	H 	0.82750 0.72590 0.59430 -0.06800
C 	C 	0.80060 0.66780 0.61120 -0.33100
C 	C 	0.76190 0.64460 0.60510 0.14100
H 	H 	0.75970 0.61680 0.61820 -0.08000
C 	C 	0.82460 0.60790 0.68570 -0.85300
H 	H 	0.80860 0.58410 0.67190 0.22600
H 	H 	0.84850 0.59590 0.70310 0.21500
H 	H 	0.80500 0.62440 0.70450 0.23800
C 	C 	0.87780 0.68970 0.66870 -0.84500
H 	H 	0.88950 0.70870 0.64600 0.21700
H 	H 	0.85820 0.70640 0.68750 0.23300
H 	H 	0.90170 0.67790 0.68610 0.22000
Si	Si	0.84709 0.64424 0.64314 0.67300
N 	N 	0.27210 0.84120 0.58220 -0.31100
C 	C 	0.26920 0.80160 0.56360 0.09700
H 	H 	0.29320 0.79090 0.54730 -0.05600
C 	C 	0.23310 0.77680 0.56760 -0.21500
H 	H 	0.23200 0.74910 0.55400 0.06700
C 	C 	0.19780 0.79160 0.59150 0.14000
H 	H 	0.17250 0.77410 0.59430 -0.06800
C 	C 	0.19940 0.83220 0.61120 -0.33100
C 	C 	0.23810 0.85540 0.60510 0.14100
H 	H 	0.24030 0.88320 0.61820 -0.08000
C 	C 	0.17540 0.89210 0.68570 -0.85300
H 	H 	0.19140 0.91590 0.67190 0.22600
H 	H 	0.15150 0.90410 0.70310 0.21500
H 	H 	0.19500 0.87560 0.70450 0.23800
C 	C 	0.12220 0.81030 0.66870 -0.84500
H 	H 	0.11050 0.79130 0.64600 0.21700
H 	H 	0.14180 0.79360 0.68750 0.23300
H 	H 	0.09830 0.82210 0.68610 0.22000
Si	Si	0.15291 0.85576 0.64314 0.67300
N 	N 	0.77210 0.34120 0.08220 -0.31100
C 	C 	0.76920 0.30160 0.06360 0.09700
H 	H 	0.79320 0.29090 0.04730 -0.05600
C 	C 	0.73310 0.27680 0.06760 -0.21500
H 	H 	0.73200 0.24910 0.05400 0.06700
C 	C 	0.69780 0.29160 0.09150 0.14000
H 	H 	0.67250 0.27410 0.09430 -0.06800
C 	C 	0.69940 0.33220 0.11120 -0.33100
C 	C 	0.73810 0.35540 0.10510 0.14100
H 	H 	0.74030 0.38320 0.11820 -0.08000
C 	C 	0.67540 0.39210 0.18570 -0.85300
H 	H 	0.69140 0.41590 0.17190 0.22600
H 	H 	0.65150 0.40410 0.20310 0.21500
H 	H 	0.69500 0.37560 0.20450 0.23800
C 	C 	0.62220 0.31030 0.16870 -0.84500
H 	H 	0.61050 0.29130 0.14600 0.21700
H 	H 	0.64180 0.29360 0.18750 0.23300
H 	H 	0.59830 0.32210 0.18610 0.22000
Si	Si	0.65291 0.35576 0.14314 0.67300
N 	N 	0.77210 0.65880 0.41780 -0.31100
C 	C 	0.76920 0.69840 0.43640 0.09700
H 	H 	0.79320 0.70910 0.45270 -0.05600
C 	C 	0.73310 0.72320 0.43240 -0.21500
H 	H 	0.73200 0.75090 0.44600 0.06700
C 	C 	0.69780 0.70840 0.40850 0.14000
H 	H 	0.67250 0.72590 0.40570 -0.06800
C 	C 	0.69940 0.66780 0.38880 -0.33100
C 	C 	0.73810 0.64460 0.39490 0.14100
H 	H 	0.74030 0.61680 0.38180 -0.08000
C 	C 	0.67540 0.60790 0.31430 -0.85300
H 	H 	0.69140 0.58410 0.32810 0.22600
H 	H 	0.65150 0.59590 0.29690 0.21500
H 	H 	0.69500 0.62440 0.29550 0.23800
C 	C 	0.62220 0.68970 0.33130 -0.84500
H 	H 	0.61050 0.70870 0.35400 0.21700
H 	H 	0.64180 0.70640 0.31250 0.23300
H 	H 	0.59830 0.67790 0.31390 0.22000
Si	Si	0.65291 0.64424 0.35686 0.67300
N 	N 	0.27210 0.15880 0.91780 -0.31100
C 	C 	0.26920 0.19840 0.93640 0.09700
H 	H 	0.29320 0.20910 0.95270 -0.05600
C 	C 	0.23310 0.22320 0.93240 -0.21500
H 	H 	0.23200 0.25090 0.94600 0.06700
C 	C 	0.19780 0.20840 0.90850 0.14000
H 	H 	0.17250 0.22590 0.90570 -0.06800
C 	C 	0.19940 0.16780 0.88880 -0.33100
C 	C 	0.23810 0.14460 0.89490 0.14100
H 	H 	0.24030 0.11680 0.88180 -0.08000
C 	C 	0.17540 0.10790 0.81430 -0.85300
H 	H 	0.19140 0.08410 0.82810 0.22600
H 	H 	0.15150 0.09590 0.79690 0.21500
H 	H 	0.19500 0.12440 0.79550 0.23700
C 	C 	0.12220 0.18970 0.83130 -0.84600
H 	H 	0.11050 0.20870 0.85400 0.21600
H 	H 	0.14180 0.20640 0.81250 0.23200
H 	H 	0.09830 0.17790 0.81390 0.21900
Si	Si	0.15291 0.14424 0.85686 0.67200
N 	N 	0.72790 0.34120 0.91780 -0.31200
C 	C 	0.73080 0.30160 0.93640 0.09600
H 	H 	0.70680 0.29090 0.95270 -0.05700
C 	C 	0.76690 0.27680 0.93240 -0.21600
H 	H 	0.76800 0.24910 0.94600 0.06600
C 	C 	0.80220 0.29160 0.90850 0.13900
H 	H 	0.82750 0.27410 0.90570 -0.06900
C 	C 	0.80060 0.33220 0.88880 -0.33200
C 	C 	0.76190 0.35540 0.89490 0.14000
H 	H 	0.75970 0.38320 0.88180 -0.08100
C 	C 	0.82460 0.39210 0.81430 -0.85400
H 	H 	0.80860 0.41590 0.82810 0.22500
H 	H 	0.84850 0.40410 0.79690 0.21400
H 	H 	0.80500 0.37560 0.79550 0.23700
C 	C 	0.87780 0.31030 0.83130 -0.84600
H 	H 	0.88950 0.29130 0.85400 0.21600
H 	H 	0.85820 0.29360 0.81250 0.23200
H 	H 	0.90170 0.32210 0.81390 0.21900
Si	Si	0.84709 0.35576 0.85686 0.67200
N 	N 	0.22790 0.84120 0.41780 -0.31200
C 	C 	0.23080 0.80160 0.43640 0.09600
H 	H 	0.20680 0.79090 0.45270 -0.05700
C 	C 	0.26690 0.77680 0.43240 -0.21600
H 	H 	0.26800 0.74910 0.44600 0.06600
C 	C 	0.30220 0.79160 0.40850 0.13900
H 	H 	0.32750 0.77410 0.40570 -0.06900
C 	C 	0.30060 0.83220 0.38880 -0.33200
C 	C 	0.26190 0.85540 0.39490 0.14000
H 	H 	0.25970 0.88320 0.38180 -0.08100
C 	C 	0.32460 0.89210 0.31430 -0.85400
H 	H 	0.30860 0.91590 0.32810 0.22500
H 	H 	0.34850 0.90410 0.29690 0.21400
H 	H 	0.30500 0.87560 0.29550 0.23700
C 	C 	0.37780 0.81030 0.33130 -0.84600
H 	H 	0.38950 0.79130 0.35400 0.21600
H 	H 	0.35820 0.79360 0.31250 0.23200
H 	H 	0.40170 0.82210 0.31390 0.21900
Si	Si	0.34709 0.85576 0.35686 0.67200
N 	N 	0.08220 0.22790 0.15880 -0.31200
C 	C 	0.06360 0.23080 0.19840 0.09600
H 	H 	0.04730 0.20680 0.20910 -0.05700
C 	C 	0.06760 0.26690 0.22320 -0.21600
H 	H 	0.05400 0.26800 0.25090 0.06600
C 	C 	0.09150 0.30220 0.20840 0.13900
H 	H 	0.09430 0.32750 0.22590 -0.06900
C 	C 	0.11120 0.30060 0.16780 -0.33200
C 	C 	0.10510 0.26190 0.14460 0.14000
H 	H 	0.11820 0.25970 0.11680 -0.08100
C 	C 	0.18570 0.32460 0.10790 -0.85400
H 	H 	0.17190 0.30860 0.08410 0.22500
H 	H 	0.20310 0.34850 0.09590 0.21400
H 	H 	0.20450 0.30500 0.12440 0.23700
C 	C 	0.16870 0.37780 0.18970 -0.84600
H 	H 	0.14600 0.38950 0.20870 0.21600
H 	H 	0.18750 0.35820 0.20640 0.23200
H 	H 	0.18610 0.40170 0.17790 0.21900
Si	Si	0.14314 0.34709 0.14424 0.67200
N 	N 	0.58220 0.72790 0.65880 -0.31200
C 	C 	0.56360 0.73080 0.69840 0.09600
H 	H 	0.54730 0.70680 0.70910 -0.05700
C 	C 	0.56760 0.76690 0.72320 -0.21600
H 	H 	0.55400 0.76800 0.75090 0.06600
C 	C 	0.59150 0.80220 0.70840 0.13900
H 	H 	0.59430 0.82750 0.72590 -0.06900
C 	C 	0.61120 0.80060 0.66780 -0.33200
C 	C 	0.60510 0.76190 0.64460 0.14000
H 	H 	0.61820 0.75970 0.61680 -0.08100
C 	C 	0.68570 0.82460 0.60790 -0.85400
H 	H 	0.67190 0.80860 0.58410 0.22500
H 	H 	0.70310 0.84850 0.59590 0.21400
H 	H 	0.70450 0.80500 0.62440 0.23700
C 	C 	0.66870 0.87780 0.68970 -0.84600
H 	H 	0.64600 0.88950 0.70870 0.21600
H 	H 	0.68750 0.85820 0.70640 0.23200
H 	H 	0.68610 0.90170 0.67790 0.21900
Si	Si	0.64314 0.84709 0.64424 0.67200
N 	N 	0.58220 0.27210 0.84120 -0.31200
C 	C 	0.56360 0.26920 0.80160 0.09600
H 	H 	0.54730 0.29320 0.79090 -0.05700
C 	C 	0.56760 0.23310 0.77680 -0.21600
H 	H 	0.55400 0.23200 0.74910 0.06600
C 	C 	0.59150 0.19780 0.79160 0.13900
H 	H 	0.59430 0.17250 0.77410 -0.06900
C 	C 	0.61120 0.19940 0.83220 -0.33200
C 	C 	0.60510 0.23810 0.85540 0.14000
H 	H 	0.61820 0.24030 0.88320 -0.08100
C 	C 	0.68570 0.17540 0.89210 -0.85400
H 	H 	0.67190 0.19140 0.91590 0.22500
H 	H 	0.70310 0.15150 0.90410 0.21400
H 	H 	0.70450 0.19500 0.87560 0.23700
C 	C 	0.66870 0.12220 0.81030 -0.84600
H 	H 	0.64600 0.11050 0.79130 0.21600
H 	H 	0.68750 0.14180 0.79360 0.23200
H 	H 	0.68610 0.09830 0.82210 0.21900
Si	Si	0.64314 0.15291 0.85576 0.67200
N 	N 	0.08220 0.77210 0.34120 -0.31200
C 	C 	0.06360 0.76920 0.30160 0.09600
H 	H 	0.04730 0.79320 0.29090 -0.05700
C 	C 	0.06760 0.73310 0.27680 -0.21600
H 	H 	0.05400 0.73200 0.24910 0.06600
C 	C 	0.09150 0.69780 0.29160 0.13900
H 	H 	0.09430 0.67250 0.27410 -0.06900
C 	C 	0.11120 0.69940 0.33220 -0.33200
C 	C 	0.10510 0.73810 0.35540 0.14000
H 	H 	0.11820 0.74030 0.38320 -0.08100
C 	C 	0.18570 0.67540 0.39210 -0.85400
H 	H 	0.17190 0.69140 0.41590 0.22500
H 	H 	0.20310 0.65150 0.40410 0.21400
H 	H 	0.20450 0.69500 0.37560 0.23700
C 	C 	0.16870 0.62220 0.31030 -0.84600
H 	H 	0.14600 0.61050 0.29130 0.21600
H 	H 	0.18750 0.64180 0.29360 0.23200
H 	H 	0.18610 0.59830 0.32210 0.21900
Si	Si	0.14314 0.65291 0.35576 0.67200
N 	N 	0.41780 0.77210 0.65880 -0.31200
C 	C 	0.43640 0.76920 0.69840 0.09600
H 	H 	0.45270 0.79320 0.70910 -0.05700
C 	C 	0.43240 0.73310 0.72320 -0.21600
H 	H 	0.44600 0.73200 0.75090 0.06600
C 	C 	0.40850 0.69780 0.70840 0.13900
H 	H 	0.40570 0.67250 0.72590 -0.06900
C 	C 	0.38880 0.69940 0.66780 -0.33200
C 	C 	0.39490 0.73810 0.64460 0.14000
H 	H 	0.38180 0.74030 0.61680 -0.08100
C 	C 	0.31430 0.67540 0.60790 -0.85400
H 	H 	0.32810 0.69140 0.58410 0.22500
H 	H 	0.29690 0.65150 0.59590 0.21400
H 	H 	0.29550 0.69500 0.62440 0.23700
C 	C 	0.33130 0.62220 0.68970 -0.84600
H 	H 	0.35400 0.61050 0.70870 0.21600
H 	H 	0.31250 0.64180 0.70640 0.23200
H 	H 	0.31390 0.59830 0.67790 0.21900
Si	Si	0.35686 0.65291 0.64424 0.67200
N 	N 	0.91780 0.27210 0.15880 -0.31200
C 	C 	0.93640 0.26920 0.19840 0.09600
H 	H 	0.95270 0.29320 0.20910 -0.05700
C 	C 	0.93240 0.23310 0.22320 -0.21600
H 	H 	0.94600 0.23200 0.25090 0.06600
C 	C 	0.90850 0.19780 0.20840 0.13900
H 	H 	0.90570 0.17250 0.22590 -0.06900
C 	C 	0.88880 0.19940 0.16780 -0.33200
C 	C 	0.89490 0.23810 0.14460 0.14000
H 	H 	0.88180 0.24030 0.11680 -0.08100
C 	C 	0.81430 0.17540 0.10790 -0.85400
H 	H 	0.82810 0.19140 0.08410 0.22500
H 	H 	0.79690 0.15150 0.09590 0.21400
H 	H 	0.79550 0.19500 0.12440 0.23700
C 	C 	0.83130 0.12220 0.18970 -0.84600
H 	H 	0.85400 0.11050 0.20870 0.21600
H 	H 	0.81250 0.14180 0.20640 0.23200
H 	H 	0.81390 0.09830 0.17790 0.21900
Si	Si	0.85686 0.15291 0.14424 0.67200
N 	N 	0.91780 0.72790 0.34120 -0.31200
C 	C 	0.93640 0.73080 0.30160 0.09600
H 	H 	0.95270 0.70680 0.29090 -0.05700
C 	C 	0.93240 0.76690 0.27680 -0.21600
H 	H 	0.94600 0.76800 0.24910 0.06600
C 	C 	0.90850 0.80220 0.29160 0.13900
H 	H 	0.90570 0.82750 0.27410 -0.06900
C 	C 	0.88880 0.80060 0.33220 -0.33200
C 	C 	0.89490 0.76190 0.35540 0.14000
H 	H 	0.88180 0.75970 0.38320 -0.08100
C 	C 	0.81430 0.82460 0.39210 -0.85400
H 	H 	0.82810 0.80860 0.41590 0.22500
H 	H 	0.79690 0.84850 0.40410 0.21400
H 	H 	0.79550 0.80500 0.37560 0.23700
C 	C 	0.83130 0.87780 0.31030 -0.84600
H 	H 	0.85400 0.88950 0.29130 0.21600
H 	H 	0.81250 0.85820 0.29360 0.23200
H 	H 	0.81390 0.90170 0.32210 0.21900
Si	Si	0.85686 0.84709 0.35576 0.67200
N 	N 	0.41780 0.22790 0.84120 -0.31200
C 	C 	0.43640 0.23080 0.80160 0.09600
H 	H 	0.45270 0.20680 0.79090 -0.05700
C 	C 	0.43240 0.26690 0.77680 -0.21600
H 	H 	0.44600 0.26800 0.74910 0.06600
C 	C 	0.40850 0.30220 0.79160 0.13900
H 	H 	0.40570 0.32750 0.77410 -0.06900
C 	C 	0.38880 0.30060 0.83220 -0.33200
C 	C 	0.39490 0.26190 0.85540 0.14000
H 	H 	0.38180 0.25970 0.88320 -0.08100
C 	C 	0.31430 0.32460 0.89210 -0.85400
H 	H 	0.32810 0.30860 0.91590 0.22500
H 	H 	0.29690 0.34850 0.90410 0.21400
H 	H 	0.29550 0.30500 0.87560 0.23700
C 	C 	0.33130 0.37780 0.81030 -0.84600
H 	H 	0.35400 0.38950 0.79130 0.21600
H 	H 	0.31250 0.35820 0.79360 0.23200
H 	H 	0.31390 0.40170 0.82210 0.21900
Si	Si	0.35686 0.34709 0.85576 0.67200
N 	N 	0.15880 0.08220 0.22790 -0.31200
C 	C 	0.19840 0.06360 0.23080 0.09600
H 	H 	0.20910 0.04730 0.20680 -0.05700
C 	C 	0.22320 0.06760 0.26690 -0.21600
H 	H 	0.25090 0.05400 0.26800 0.06600
C 	C 	0.20840 0.09150 0.30220 0.13900
H 	H 	0.22590 0.09430 0.32750 -0.06900
C 	C 	0.16780 0.11120 0.30060 -0.33200
C 	C 	0.14460 0.10510 0.26190 0.14000
H 	H 	0.11680 0.11820 0.25970 -0.08100
C 	C 	0.10790 0.18570 0.32460 -0.85400
H 	H 	0.08410 0.17190 0.30860 0.22500
H 	H 	0.09590 0.20310 0.34850 0.21400
H 	H 	0.12440 0.20450 0.30500 0.23700
C 	C 	0.18970 0.16870 0.37780 -0.84600
H 	H 	0.20870 0.14600 0.38950 0.21600
H 	H 	0.20640 0.18750 0.35820 0.23200
H 	H 	0.17790 0.18610 0.40170 0.21900
Si	Si	0.14424 0.14314 0.34709 0.67200
N 	N 	0.65880 0.58220 0.72790 -0.31200
C 	C 	0.69840 0.56360 0.73080 0.09600
H 	H 	0.70910 0.54730 0.70680 -0.05700
C 	C 	0.72320 0.56760 0.76690 -0.21600
H 	H 	0.75090 0.55400 0.76800 0.06600
C 	C 	0.70840 0.59150 0.80220 0.13900
H 	H 	0.72590 0.59430 0.82750 -0.06900
C 	C 	0.66780 0.61120 0.80060 -0.33200
C 	C 	0.64460 0.60510 0.76190 0.14000
H 	H 	0.61680 0.61820 0.75970 -0.08100
C 	C 	0.60790 0.68570 0.82460 -0.85400
H 	H 	0.58410 0.67190 0.80860 0.22500
H 	H 	0.59590 0.70310 0.84850 0.21400
H 	H 	0.62440 0.70450 0.80500 0.23700
C 	C 	0.68970 0.66870 0.87780 -0.84600
H 	H 	0.70870 0.64600 0.88950 0.21600
H 	H 	0.70640 0.68750 0.85820 0.23200
H 	H 	0.67790 0.68610 0.90170 0.21900
Si	Si	0.64424 0.64314 0.84709 0.67200
N 	N 	0.84120 0.58220 0.27210 -0.31200
C 	C 	0.80160 0.56360 0.26920 0.09600
H 	H 	0.79090 0.54730 0.29320 -0.05700
C 	C 	0.77680 0.56760 0.23310 -0.21600
H 	H 	0.74910 0.55400 0.23200 0.06600
C 	C 	0.79160 0.59150 0.19780 0.13900
H 	H 	0.77410 0.59430 0.17250 -0.06900
C 	C 	0.83220 0.61120 0.19940 -0.33200
C 	C 	0.85540 0.60510 0.23810 0.14000
H 	H 	0.88320 0.61820 0.24030 -0.08100
C 	C 	0.89210 0.68570 0.17540 -0.85400
H 	H 	0.91590 0.67190 0.19140 0.22500
H 	H 	0.90410 0.70310 0.15150 0.21400
H 	H 	0.87560 0.70450 0.19500 0.23700
C 	C 	0.81030 0.66870 0.12220 -0.84600
H 	H 	0.79130 0.64600 0.11050 0.21600
H 	H 	0.79360 0.68750 0.14180 0.23200
H 	H 	0.82210 0.68610 0.09830 0.21900
Si	Si	0.85576 0.64314 0.15291 0.67200
N 	N 	0.34120 0.08220 0.77210 -0.31200
C 	C 	0.30160 0.06360 0.76920 0.09600
H 	H 	0.29090 0.04730 0.79320 -0.05700
C 	C 	0.27680 0.06760 0.73310 -0.21600
H 	H 	0.24910 0.05400 0.73200 0.06600
C 	C 	0.29160 0.09150 0.69780 0.13900
H 	H 	0.27410 0.09430 0.67250 -0.06900
C 	C 	0.33220 0.11120 0.69940 -0.33200
C 	C 	0.35540 0.10510 0.73810 0.14000
H 	H 	0.38320 0.11820 0.74030 -0.08100
C 	C 	0.39210 0.18570 0.67540 -0.85400
H 	H 	0.41590 0.17190 0.69140 0.22500
H 	H 	0.40410 0.20310 0.65150 0.21400
H 	H 	0.37560 0.20450 0.69500 0.23700
C 	C 	0.31030 0.16870 0.62220 -0.84600
H 	H 	0.29130 0.14600 0.61050 0.21600
H 	H 	0.29360 0.18750 0.64180 0.23200
H 	H 	0.32210 0.18610 0.59830 0.21900
Si	Si	0.35576 0.14314 0.65291 0.67200
N 	N 	0.65880 0.41780 0.77210 -0.31200
C 	C 	0.69840 0.43640 0.76920 0.09600
H 	H 	0.70910 0.45270 0.79320 -0.05700
C 	C 	0.72320 0.43240 0.73310 -0.21600
H 	H 	0.75090 0.44600 0.73200 0.06600
C 	C 	0.70840 0.40850 0.69780 0.13900
H 	H 	0.72590 0.40570 0.67250 -0.06900
C 	C 	0.66780 0.38880 0.69940 -0.33200
C 	C 	0.64460 0.39490 0.73810 0.14000
H 	H 	0.61680 0.38180 0.74030 -0.08100
C 	C 	0.60790 0.31430 0.67540 -0.85400
H 	H 	0.58410 0.32810 0.69140 0.22500
H 	H 	0.59590 0.29690 0.65150 0.21400
H 	H 	0.62440 0.29550 0.69500 0.23700
C 	C 	0.68970 0.33130 0.62220 -0.84600
H 	H 	0.70870 0.35400 0.61050 0.21600
H 	H 	0.70640 0.31250 0.64180 0.23200
H 	H 	0.67790 0.31390 0.59830 0.21900
Si	Si	0.64424 0.35686 0.65291 0.67200
N 	N 	0.15880 0.91780 0.27210 -0.31200
C 	C 	0.19840 0.93640 0.26920 0.09600
H 	H 	0.20910 0.95270 0.29320 -0.05700
C 	C 	0.22320 0.93240 0.23310 -0.21600
H 	H 	0.25090 0.94600 0.23200 0.06600
C 	C 	0.20840 0.90850 0.19780 0.13900
H 	H 	0.22590 0.90570 0.17250 -0.06900
C 	C 	0.16780 0.88880 0.19940 -0.33200
C 	C 	0.14460 0.89490 0.23810 0.14000
H 	H 	0.11680 0.88180 0.24030 -0.08100
C 	C 	0.10790 0.81430 0.17540 -0.85400
H 	H 	0.08410 0.82810 0.19140 0.22500
H 	H 	0.09590 0.79690 0.15150 0.21400
H 	H 	0.12440 0.79550 0.19500 0.23700
C 	C 	0.18970 0.83130 0.12220 -0.84600
H 	H 	0.20870 0.85400 0.11050 0.21600
H 	H 	0.20640 0.81250 0.14180 0.23200
H 	H 	0.17790 0.81390 0.09830 0.21900
Si	Si	0.14424 0.85686 0.15291 0.67200
N 	N 	0.34120 0.91780 0.72790 -0.31200
C 	C 	0.30160 0.93640 0.73080 0.09600
H 	H 	0.29090 0.95270 0.70680 -0.05700
C 	C 	0.27680 0.93240 0.76690 -0.21600
H 	H 	0.24910 0.94600 0.76800 0.06600
C 	C 	0.29160 0.90850 0.80220 0.13900
H 	H 	0.27410 0.90570 0.82750 -0.06900
C 	C 	0.33220 0.88880 0.80060 -0.33200
C 	C 	0.35540 0.89490 0.76190 0.14000
H 	H 	0.38320 0.88180 0.75970 -0.08100
C 	C 	0.39210 0.81430 0.82460 -0.85400
H 	H 	0.41590 0.82810 0.80860 0.22500
H 	H 	0.40410 0.79690 0.84850 0.21400
H 	H 	0.37560 0.79550 0.80500 0.23700
C 	C 	0.31030 0.83130 0.87780 -0.84600
H 	H 	0.29130 0.85400 0.88950 0.21600
H 	H 	0.29360 0.81250 0.85820 0.23200
H 	H 	0.32210 0.81390 0.90170 0.21900
Si	Si	0.35576 0.85686 0.84709 0.67200
N 	N 	0.84120 0.41780 0.22790 -0.31200
C 	C 	0.80160 0.43640 0.23080 0.09600
H 	H 	0.79090 0.45270 0.20680 -0.05700
C 	C 	0.77680 0.43240 0.26690 -0.21600
H 	H 	0.74910 0.44600 0.26800 0.06600
C 	C 	0.79160 0.40850 0.30220 0.13900
H 	H 	0.77410 0.40570 0.32750 -0.06900
C 	C 	0.83220 0.38880 0.30060 -0.33200
C 	C 	0.85540 0.39490 0.26190 0.14000
H 	H 	0.88320 0.38180 0.25970 -0.08100
C 	C 	0.89210 0.31430 0.32460 -0.85400
H 	H 	0.91590 0.32810 0.30860 0.22500
H 	H 	0.90410 0.29690 0.34850 0.21400
H 	H 	0.87560 0.29550 0.30500 0.23700
C 	C 	0.81030 0.33130 0.37780 -0.84600
H 	H 	0.79130 0.35400 0.38950 0.21600
H 	H 	0.79360 0.31250 0.35820 0.23200
H 	H 	0.82210 0.31390 0.40170 0.21900
Si	Si	0.85576 0.35686 0.34709 0.67200
N 	N 	0.90880 0.47790 0.16780 -0.31200
C 	C 	0.94840 0.48080 0.18640 0.09600
H 	H 	0.95910 0.45680 0.20270 -0.05700
C 	C 	0.97320 0.51690 0.18240 -0.21600
H 	H 	0.00090 0.51800 0.19600 0.06600
C 	C 	0.95840 0.55220 0.15850 0.13900
H 	H 	0.97590 0.57750 0.15570 -0.06900
C 	C 	0.91780 0.55060 0.13880 -0.33200
C 	C 	0.89460 0.51190 0.14490 0.14000
H 	H 	0.86680 0.50970 0.13180 -0.08100
C 	C 	0.85790 0.57460 0.06430 -0.85400
H 	H 	0.83410 0.55860 0.07810 0.22500
H 	H 	0.84590 0.59850 0.04690 0.21400
H 	H 	0.87440 0.55500 0.04550 0.23700
C 	C 	0.93970 0.62780 0.08130 -0.84600
H 	H 	0.95870 0.63950 0.10400 0.21600
H 	H 	0.95640 0.60820 0.06250 0.23100
H 	H 	0.92790 0.65170 0.06390 0.21900
Si	Si	0.89424 0.59709 0.10686 0.67200
N 	N 	0.40880 0.97790 0.66780 -0.31200
C 	C 	0.44840 0.98080 0.68640 0.09600
H 	H 	0.45910 0.95680 0.70270 -0.05700
C 	C 	0.47320 0.01690 0.68240 -0.21600
H 	H 	0.50090 0.01800 0.69600 0.06600
C 	C 	0.45840 0.05220 0.65850 0.13900
H 	H 	0.47590 0.07750 0.65570 -0.06900
C 	C 	0.41780 0.05060 0.63880 -0.33200
C 	C 	0.39460 0.01190 0.64490 0.14000
H 	H 	0.36680 0.00970 0.63180 -0.08100
C 	C 	0.35790 0.07460 0.56430 -0.85400
H 	H 	0.33410 0.05860 0.57810 0.22500
H 	H 	0.34590 0.09850 0.54690 0.21400
H 	H 	0.37440 0.05500 0.54550 0.23700
C 	C 	0.43970 0.12780 0.58130 -0.84600
H 	H 	0.45870 0.13950 0.60400 0.21600
H 	H 	0.45640 0.10820 0.56250 0.23200
H 	H 	0.42790 0.15170 0.56390 0.21900
Si	Si	0.39424 0.09709 0.60686 0.67200
N 	N 	0.59120 0.52210 0.66780 -0.31200
C 	C 	0.55160 0.51920 0.68640 0.09600
H 	H 	0.54090 0.54320 0.70270 -0.05700
C 	C 	0.52680 0.48310 0.68240 -0.21600
H 	H 	0.49910 0.48200 0.69600 0.06600
C 	C 	0.54160 0.44780 0.65850 0.13900
H 	H 	0.52410 0.42250 0.65570 -0.06900
C 	C 	0.58220 0.44940 0.63880 -0.33200
C 	C 	0.60540 0.48810 0.64490 0.14000
H 	H 	0.63320 0.49030 0.63180 -0.08100
C 	C 	0.64210 0.42540 0.56430 -0.85400
H 	H 	0.66590 0.44140 0.57810 0.22500
H 	H 	0.65410 0.40150 0.54690 0.21400
H 	H 	0.62560 0.44500 0.54550 0.23700
C 	C 	0.56030 0.37220 0.58130 -0.84600
H 	H 	0.54130 0.36050 0.60400 0.21600
H 	H 	0.54360 0.39180 0.56250 0.23200
H 	H 	0.57210 0.34830 0.56390 0.21900
Si	Si	0.60576 0.40291 0.60686 0.67200
N 	N 	0.09120 0.02210 0.16780 -0.31200
C 	C 	0.05160 0.01920 0.18640 0.09600
H 	H 	0.04090 0.04320 0.20270 -0.05700
C 	C 	0.02680 0.98310 0.18240 -0.21600
H 	H 	0.99910 0.98200 0.19600 0.06600
C 	C 	0.04160 0.94780 0.15850 0.13900
H 	H 	0.02410 0.92250 0.15570 -0.06900
C 	C 	0.08220 0.94940 0.13880 -0.33200
C 	C 	0.10540 0.98810 0.14490 0.14000
H 	H 	0.13320 0.99030 0.13180 -0.08100
C 	C 	0.14210 0.92540 0.06430 -0.85400
H 	H 	0.16590 0.94140 0.07810 0.22500
H 	H 	0.15410 0.90150 0.04690 0.21400
H 	H 	0.12560 0.94500 0.04550 0.23700
C 	C 	0.06030 0.87220 0.08130 -0.84600
H 	H 	0.04130 0.86050 0.10400 0.21600
H 	H 	0.04360 0.89180 0.06250 0.23100
H 	H 	0.07210 0.84830 0.06390 0.21900
Si	Si	0.10576 0.90291 0.10686 0.67200
N 	N 	0.40880 0.02210 0.83220 -0.31200
C 	C 	0.44840 0.01920 0.81360 0.09600
H 	H 	0.45910 0.04320 0.79730 -0.05700
C 	C 	0.47320 0.98310 0.81760 -0.21600
H 	H 	0.50090 0.98200 0.80400 0.06600
C 	C 	0.45840 0.94780 0.84150 0.13900
H 	H 	0.47590 0.92250 0.84430 -0.06900
C 	C 	0.41780 0.94940 0.86120 -0.33200
C 	C 	0.39460 0.98810 0.85510 0.14000
H 	H 	0.36680 0.99030 0.86820 -0.08100
C 	C 	0.35790 0.92540 0.93570 -0.85400
H 	H 	0.33410 0.94140 0.92190 0.22500
H 	H 	0.34590 0.90150 0.95310 0.21400
H 	H 	0.37440 0.94500 0.95450 0.23700
C 	C 	0.43970 0.87220 0.91870 -0.84600
H 	H 	0.45870 0.86050 0.89600 0.21600
H 	H 	0.45640 0.89180 0.93750 0.23200
H 	H 	0.42790 0.84830 0.93610 0.21900
Si	Si	0.39424 0.90291 0.89314 0.67200
N 	N 	0.90880 0.52210 0.33220 -0.31200
C 	C 	0.94840 0.51920 0.31360 0.09600
H 	H 	0.95910 0.54320 0.29730 -0.05700
C 	C 	0.97320 0.48310 0.31760 -0.21600
H 	H 	0.00090 0.48200 0.30400 0.06600
C 	C 	0.95840 0.44780 0.34150 0.13900
H 	H 	0.97590 0.42250 0.34430 -0.06900
C 	C 	0.91780 0.44940 0.36120 -0.33200
C 	C 	0.89460 0.48810 0.35510 0.14000
H 	H 	0.86680 0.49030 0.36820 -0.08100
C 	C 	0.85790 0.42540 0.43570 -0.85400
H 	H 	0.83410 0.44140 0.42190 0.22500
H 	H 	0.84590 0.40150 0.45310 0.21400
H 	H 	0.87440 0.44500 0.45450 0.23700
C 	C 	0.93970 0.37220 0.41870 -0.84600
H 	H 	0.95870 0.36050 0.39600 0.21600
H 	H 	0.95640 0.39180 0.43750 0.23200
H 	H 	0.92790 0.34830 0.43610 0.21900
Si	Si	0.89424 0.40291 0.39314 0.67200
N 	N 	0.09120 0.97790 0.33220 -0.31200
C 	C 	0.05160 0.98080 0.31360 0.09600
H 	H 	0.04090 0.95680 0.29730 -0.05700
C 	C 	0.02680 0.01690 0.31760 -0.21600
H 	H 	0.99910 0.01800 0.30400 0.06600
C 	C 	0.04160 0.05220 0.34150 0.13900
H 	H 	0.02410 0.07750 0.34430 -0.06900
C 	C 	0.08220 0.05060 0.36120 -0.33200
C 	C 	0.10540 0.01190 0.35510 0.14000
H 	H 	0.13320 0.00970 0.36820 -0.08100
C 	C 	0.14210 0.07460 0.43570 -0.85400
H 	H 	0.16590 0.05860 0.42190 0.22500
H 	H 	0.15410 0.09850 0.45310 0.21400
H 	H 	0.12560 0.05500 0.45450 0.23700
C 	C 	0.06030 0.12780 0.41870 -0.84600
H 	H 	0.04130 0.13950 0.39600 0.21600
H 	H 	0.04360 0.10820 0.43750 0.23200
H 	H 	0.07210 0.15170 0.43610 0.21900
Si	Si	0.10576 0.09709 0.39314 0.67200
N 	N 	0.59120 0.47790 0.83220 -0.31200
C 	C 	0.55160 0.48080 0.81360 0.09600
H 	H 	0.54090 0.45680 0.79730 -0.05700
C 	C 	0.52680 0.51690 0.81760 -0.21600
H 	H 	0.49910 0.51800 0.80400 0.06600
C 	C 	0.54160 0.55220 0.84150 0.13900
H 	H 	0.52410 0.57750 0.84430 -0.06900
C 	C 	0.58220 0.55060 0.86120 -0.33200
C 	C 	0.60540 0.51190 0.85510 0.14000
H 	H 	0.63320 0.50970 0.86820 -0.08100
C 	C 	0.64210 0.57460 0.93570 -0.85400
H 	H 	0.66590 0.55860 0.92190 0.22500
H 	H 	0.65410 0.59850 0.95310 0.21400
H 	H 	0.62560 0.55500 0.95450 0.23700
C 	C 	0.56030 0.62780 0.91870 -0.84600
H 	H 	0.54130 0.63950 0.89600 0.21600
H 	H 	0.54360 0.60820 0.93750 0.23200
H 	H 	0.57210 0.65170 0.93610 0.21900
Si	Si	0.60576 0.59709 0.89314 0.67200
N 	N 	0.97790 0.33220 0.09120 -0.31200
C 	C 	0.98080 0.31360 0.05160 0.09600
H 	H 	0.95680 0.29730 0.04090 -0.05700
C 	C 	0.01690 0.31760 0.02680 -0.21600
H 	H 	0.01800 0.30400 0.99910 0.06600
C 	C 	0.05220 0.34150 0.04160 0.13900
H 	H 	0.07750 0.34430 0.02410 -0.06900
C 	C 	0.05060 0.36120 0.08220 -0.33200
C 	C 	0.01190 0.35510 0.10540 0.14000
H 	H 	0.00970 0.36820 0.13320 -0.08100
C 	C 	0.07460 0.43570 0.14210 -0.85400
H 	H 	0.05860 0.42190 0.16590 0.22500
H 	H 	0.09850 0.45310 0.15410 0.21400
H 	H 	0.05500 0.45450 0.12560 0.23700
C 	C 	0.12780 0.41870 0.06030 -0.84600
H 	H 	0.13950 0.39600 0.04130 0.21600
H 	H 	0.10820 0.43750 0.04360 0.23200
H 	H 	0.15170 0.43610 0.07210 0.21900
Si	Si	0.09709 0.39314 0.10576 0.67200
N 	N 	0.47790 0.83220 0.59120 -0.31200
C 	C 	0.48080 0.81360 0.55160 0.09600
H 	H 	0.45680 0.79730 0.54090 -0.05700
C 	C 	0.51690 0.81760 0.52680 -0.21600
H 	H 	0.51800 0.80400 0.49910 0.06600
C 	C 	0.55220 0.84150 0.54160 0.13900
H 	H 	0.57750 0.84430 0.52410 -0.06900
C 	C 	0.55060 0.86120 0.58220 -0.33200
C 	C 	0.51190 0.85510 0.60540 0.14000
H 	H 	0.50970 0.86820 0.63320 -0.08100
C 	C 	0.57460 0.93570 0.64210 -0.85400
H 	H 	0.55860 0.92190 0.66590 0.22500
H 	H 	0.59850 0.95310 0.65410 0.21400
H 	H 	0.55500 0.95450 0.62560 0.23700
C 	C 	0.62780 0.91870 0.56030 -0.84600
H 	H 	0.63950 0.89600 0.54130 0.21600
H 	H 	0.60820 0.93750 0.54360 0.23200
H 	H 	0.65170 0.93610 0.57210 0.21900
Si	Si	0.59709 0.89314 0.60576 0.67200
N 	N 	0.02210 0.83220 0.40880 -0.31200
C 	C 	0.01920 0.81360 0.44840 0.09600
H 	H 	0.04320 0.79730 0.45910 -0.05700
C 	C 	0.98310 0.81760 0.47320 -0.21600
H 	H 	0.98200 0.80400 0.50090 0.06600
C 	C 	0.94780 0.84150 0.45840 0.13900
H 	H 	0.92250 0.84430 0.47590 -0.06900
C 	C 	0.94940 0.86120 0.41780 -0.33200
C 	C 	0.98810 0.85510 0.39460 0.14000
H 	H 	0.99030 0.86820 0.36680 -0.08100
C 	C 	0.92540 0.93570 0.35790 -0.85400
H 	H 	0.94140 0.92190 0.33410 0.22500
H 	H 	0.90150 0.95310 0.34590 0.21400
H 	H 	0.94500 0.95450 0.37440 0.23700
C 	C 	0.87220 0.91870 0.43970 -0.84600
H 	H 	0.86050 0.89600 0.45870 0.21600
H 	H 	0.89180 0.93750 0.45640 0.23200
H 	H 	0.84830 0.93610 0.42790 0.21900
Si	Si	0.90291 0.89314 0.39424 0.67200
N 	N 	0.52210 0.33220 0.90880 -0.31200
C 	C 	0.51920 0.31360 0.94840 0.09600
H 	H 	0.54320 0.29730 0.95910 -0.05700
C 	C 	0.48310 0.31760 0.97320 -0.21600
H 	H 	0.48200 0.30400 0.00090 0.06600
C 	C 	0.44780 0.34150 0.95840 0.13900
H 	H 	0.42250 0.34430 0.97590 -0.06900
C 	C 	0.44940 0.36120 0.91780 -0.33200
C 	C 	0.48810 0.35510 0.89460 0.14000
H 	H 	0.49030 0.36820 0.86680 -0.08100
C 	C 	0.42540 0.43570 0.85790 -0.85400
H 	H 	0.44140 0.42190 0.83410 0.22500
H 	H 	0.40150 0.45310 0.84590 0.21400
H 	H 	0.44500 0.45450 0.87440 0.23700
C 	C 	0.37220 0.41870 0.93970 -0.84600
H 	H 	0.36050 0.39600 0.95870 0.21600
H 	H 	0.39180 0.43750 0.95640 0.23200
H 	H 	0.34830 0.43610 0.92790 0.21900
Si	Si	0.40291 0.39314 0.89424 0.67200
N 	N 	0.52210 0.66780 0.59120 -0.31200
C 	C 	0.51920 0.68640 0.55160 0.09600
H 	H 	0.54320 0.70270 0.54090 -0.05700
C 	C 	0.48310 0.68240 0.52680 -0.21600
H 	H 	0.48200 0.69600 0.49910 0.06600
C 	C 	0.44780 0.65850 0.54160 0.13900
H 	H 	0.42250 0.65570 0.52410 -0.06900
C 	C 	0.44940 0.63880 0.58220 -0.33200
C 	C 	0.48810 0.64490 0.60540 0.14000
H 	H 	0.49030 0.63180 0.63320 -0.08100
C 	C 	0.42540 0.56430 0.64210 -0.85400
H 	H 	0.44140 0.57810 0.66590 0.22500
H 	H 	0.40150 0.54690 0.65410 0.21400
H 	H 	0.44500 0.54550 0.62560 0.23700
C 	C 	0.37220 0.58130 0.56030 -0.84600
H 	H 	0.36050 0.60400 0.54130 0.21600
H 	H 	0.39180 0.56250 0.54360 0.23200
H 	H 	0.34830 0.56390 0.57210 0.21900
Si	Si	0.40291 0.60686 0.60576 0.67200
N 	N 	0.02210 0.16780 0.09120 -0.31200
C 	C 	0.01920 0.18640 0.05160 0.09600
H 	H 	0.04320 0.20270 0.04090 -0.05700
C 	C 	0.98310 0.18240 0.02680 -0.21600
H 	H 	0.98200 0.19600 0.99910 0.06600
C 	C 	0.94780 0.15850 0.04160 0.13900
H 	H 	0.92250 0.15570 0.02410 -0.06900
C 	C 	0.94940 0.13880 0.08220 -0.33200
C 	C 	0.98810 0.14490 0.10540 0.14000
H 	H 	0.99030 0.13180 0.13320 -0.08100
C 	C 	0.92540 0.06430 0.14210 -0.85400
H 	H 	0.94140 0.07810 0.16590 0.22500
H 	H 	0.90150 0.04690 0.15410 0.21400
H 	H 	0.94500 0.04550 0.12560 0.23700
C 	C 	0.87220 0.08130 0.06030 -0.84600
H 	H 	0.86050 0.10400 0.04130 0.21600
H 	H 	0.89180 0.06250 0.04360 0.23100
H 	H 	0.84830 0.06390 0.07210 0.21900
Si	Si	0.90291 0.10686 0.10576 0.67200
N 	N 	0.47790 0.16780 0.90880 -0.31200
C 	C 	0.48080 0.18640 0.94840 0.09600
H 	H 	0.45680 0.20270 0.95910 -0.05700
C 	C 	0.51690 0.18240 0.97320 -0.21600
H 	H 	0.51800 0.19600 0.00090 0.06600
C 	C 	0.55220 0.15850 0.95840 0.13900
H 	H 	0.57750 0.15570 0.97590 -0.06900
C 	C 	0.55060 0.13880 0.91780 -0.33200
C 	C 	0.51190 0.14490 0.89460 0.14000
H 	H 	0.50970 0.13180 0.86680 -0.08100
C 	C 	0.57460 0.06430 0.85790 -0.85400
H 	H 	0.55860 0.07810 0.83410 0.22500
H 	H 	0.59850 0.04690 0.84590 0.21400
H 	H 	0.55500 0.04550 0.87440 0.23700
C 	C 	0.62780 0.08130 0.93970 -0.84600
H 	H 	0.63950 0.10400 0.95870 0.21600
H 	H 	0.60820 0.06250 0.95640 0.23100
H 	H 	0.65170 0.06390 0.92790 0.21900
Si	Si	0.59709 0.10686 0.89424 0.67200
N 	N 	0.97790 0.66780 0.40880 -0.31200
C 	C 	0.98080 0.68640 0.44840 0.09600
H 	H 	0.95680 0.70270 0.45910 -0.05700
C 	C 	0.01690 0.68240 0.47320 -0.21600
H 	H 	0.01800 0.69600 0.50090 0.06600
C 	C 	0.05220 0.65850 0.45840 0.13900
H 	H 	0.07750 0.65570 0.47590 -0.06900
C 	C 	0.05060 0.63880 0.41780 -0.33200
C 	C 	0.01190 0.64490 0.39460 0.14000
H 	H 	0.00970 0.63180 0.36680 -0.08100
C 	C 	0.07460 0.56430 0.35790 -0.85400
H 	H 	0.05860 0.57810 0.33410 0.22500
H 	H 	0.09850 0.54690 0.34590 0.21400
H 	H 	0.05500 0.54550 0.37440 0.23700
C 	C 	0.12780 0.58130 0.43970 -0.84600
H 	H 	0.13950 0.60400 0.45870 0.21600
H 	H 	0.10820 0.56250 0.45640 0.23200
H 	H 	0.15170 0.56390 0.42790 0.21900
Si	Si	0.09709 0.60686 0.39424 0.67200
N 	N 	0.83220 0.40880 0.02210 -0.31200
C 	C 	0.81360 0.44840 0.01920 0.09600
H 	H 	0.79730 0.45910 0.04320 -0.05700
C 	C 	0.81760 0.47320 0.98310 -0.21600
H 	H 	0.80400 0.50090 0.98200 0.06600
C 	C 	0.84150 0.45840 0.94780 0.13900
H 	H 	0.84430 0.47590 0.92250 -0.06900
C 	C 	0.86120 0.41780 0.94940 -0.33200
C 	C 	0.85510 0.39460 0.98810 0.14000
H 	H 	0.86820 0.36680 0.99030 -0.08100
C 	C 	0.93570 0.35790 0.92540 -0.85400
H 	H 	0.92190 0.33410 0.94140 0.22500
H 	H 	0.95310 0.34590 0.90150 0.21400
H 	H 	0.95450 0.37440 0.94500 0.23700
C 	C 	0.91870 0.43970 0.87220 -0.84600
H 	H 	0.89600 0.45870 0.86050 0.21600
H 	H 	0.93750 0.45640 0.89180 0.23200
H 	H 	0.93610 0.42790 0.84830 0.21900
Si	Si	0.89314 0.39424 0.90291 0.67200
N 	N 	0.33220 0.90880 0.52210 -0.31200
C 	C 	0.31360 0.94840 0.51920 0.09600
H 	H 	0.29730 0.95910 0.54320 -0.05700
C 	C 	0.31760 0.97320 0.48310 -0.21600
H 	H 	0.30400 0.00090 0.48200 0.06600
C 	C 	0.34150 0.95840 0.44780 0.13900
H 	H 	0.34430 0.97590 0.42250 -0.06900
C 	C 	0.36120 0.91780 0.44940 -0.33200
C 	C 	0.35510 0.89460 0.48810 0.14000
H 	H 	0.36820 0.86680 0.49030 -0.08100
C 	C 	0.43570 0.85790 0.42540 -0.85400
H 	H 	0.42190 0.83410 0.44140 0.22500
H 	H 	0.45310 0.84590 0.40150 0.21400
H 	H 	0.45450 0.87440 0.44500 0.23700
C 	C 	0.41870 0.93970 0.37220 -0.84600
H 	H 	0.39600 0.95870 0.36050 0.21600
H 	H 	0.43750 0.95640 0.39180 0.23200
H 	H 	0.43610 0.92790 0.34830 0.21900
Si	Si	0.39314 0.89424 0.40291 0.67200
N 	N 	0.33220 0.09120 0.97790 -0.31200
C 	C 	0.31360 0.05160 0.98080 0.09600
H 	H 	0.29730 0.04090 0.95680 -0.05700
C 	C 	0.31760 0.02680 0.01690 -0.21600
H 	H 	0.30400 0.99910 0.01800 0.06600
C 	C 	0.34150 0.04160 0.05220 0.13900
H 	H 	0.34430 0.02410 0.07750 -0.06900
C 	C 	0.36120 0.08220 0.05060 -0.33200
C 	C 	0.35510 0.10540 0.01190 0.14000
H 	H 	0.36820 0.13320 0.00970 -0.08100
C 	C 	0.43570 0.14210 0.07460 -0.85400
H 	H 	0.42190 0.16590 0.05860 0.22500
H 	H 	0.45310 0.15410 0.09850 0.21400
H 	H 	0.45450 0.12560 0.05500 0.23700
C 	C 	0.41870 0.06030 0.12780 -0.84600
H 	H 	0.39600 0.04130 0.13950 0.21600
H 	H 	0.43750 0.04360 0.10820 0.23200
H 	H 	0.43610 0.07210 0.15170 0.21900
Si	Si	0.39314 0.10576 0.09709 0.67200
N 	N 	0.83220 0.59120 0.47790 -0.31200
C 	C 	0.81360 0.55160 0.48080 0.09600
H 	H 	0.79730 0.54090 0.45680 -0.05700
C 	C 	0.81760 0.52680 0.51690 -0.21600
H 	H 	0.80400 0.49910 0.51800 0.06600
C 	C 	0.84150 0.54160 0.55220 0.13900
H 	H 	0.84430 0.52410 0.57750 -0.06900
C 	C 	0.86120 0.58220 0.55060 -0.33200
C 	C 	0.85510 0.60540 0.51190 0.14000
H 	H 	0.86820 0.63320 0.50970 -0.08100
C 	C 	0.93570 0.64210 0.57460 -0.85400
H 	H 	0.92190 0.66590 0.55860 0.22500
H 	H 	0.95310 0.65410 0.59850 0.21400
H 	H 	0.95450 0.62560 0.55500 0.23700
C 	C 	0.91870 0.56030 0.62780 -0.84600
H 	H 	0.89600 0.54130 0.63950 0.21600
H 	H 	0.93750 0.54360 0.60820 0.23200
H 	H 	0.93610 0.57210 0.65170 0.21900
Si	Si	0.89314 0.60576 0.59709 0.67200
N 	N 	0.16780 0.90880 0.47790 -0.31200
C 	C 	0.18640 0.94840 0.48080 0.09600
H 	H 	0.20270 0.95910 0.45680 -0.05700
C 	C 	0.18240 0.97320 0.51690 -0.21600
H 	H 	0.19600 0.00090 0.51800 0.06600
C 	C 	0.15850 0.95840 0.55220 0.13900
H 	H 	0.15570 0.97590 0.57750 -0.06900
C 	C 	0.13880 0.91780 0.55060 -0.33200
C 	C 	0.14490 0.89460 0.51190 0.14000
H 	H 	0.13180 0.86680 0.50970 -0.08100
C 	C 	0.06430 0.85790 0.57460 -0.85400
H 	H 	0.07810 0.83410 0.55860 0.22500
H 	H 	0.04690 0.84590 0.59850 0.21400
H 	H 	0.04550 0.87440 0.55500 0.23700
C 	C 	0.08130 0.93970 0.62780 -0.84600
H 	H 	0.10400 0.95870 0.63950 0.21600
H 	H 	0.06250 0.95640 0.60820 0.23100
H 	H 	0.06390 0.92790 0.65170 0.21900
Si	Si	0.10686 0.89424 0.59709 0.67200
N 	N 	0.66780 0.40880 0.97790 -0.31200
C 	C 	0.68640 0.44840 0.98080 0.09600
H 	H 	0.70270 0.45910 0.95680 -0.05700
C 	C 	0.68240 0.47320 0.01690 -0.21600
H 	H 	0.69600 0.50090 0.01800 0.06600
C 	C 	0.65850 0.45840 0.05220 0.13900
H 	H 	0.65570 0.47590 0.07750 -0.06900
C 	C 	0.63880 0.41780 0.05060 -0.33200
C 	C 	0.64490 0.39460 0.01190 0.14000
H 	H 	0.63180 0.36680 0.00970 -0.08100
C 	C 	0.56430 0.35790 0.07460 -0.85400
H 	H 	0.57810 0.33410 0.05860 0.22500
H 	H 	0.54690 0.34590 0.09850 0.21400
H 	H 	0.54550 0.37440 0.05500 0.23700
C 	C 	0.58130 0.43970 0.12780 -0.84600
H 	H 	0.60400 0.45870 0.13950 0.21600
H 	H 	0.56250 0.45640 0.10820 0.23200
H 	H 	0.56390 0.42790 0.15170 0.21900
Si	Si	0.60686 0.39424 0.09709 0.67200
N 	N 	0.66780 0.59120 0.52210 -0.31200
C 	C 	0.68640 0.55160 0.51920 0.09600
H 	H 	0.70270 0.54090 0.54320 -0.05700
C 	C 	0.68240 0.52680 0.48310 -0.21600
H 	H 	0.69600 0.49910 0.48200 0.06600
C 	C 	0.65850 0.54160 0.44780 0.13900
H 	H 	0.65570 0.52410 0.42250 -0.06900
C 	C 	0.63880 0.58220 0.44940 -0.33200
C 	C 	0.64490 0.60540 0.48810 0.14000
H 	H 	0.63180 0.63320 0.49030 -0.08100
C 	C 	0.56430 0.64210 0.42540 -0.85400
H 	H 	0.57810 0.66590 0.44140 0.22500
H 	H 	0.54690 0.65410 0.40150 0.21400
H 	H 	0.54550 0.62560 0.44500 0.23700
C 	C 	0.58130 0.56030 0.37220 -0.84600
H 	H 	0.60400 0.54130 0.36050 0.21600
H 	H 	0.56250 0.54360 0.39180 0.23200
H 	H 	0.56390 0.57210 0.34830 0.21900
Si	Si	0.60686 0.60576 0.40291 0.67200
N 	N 	0.16780 0.09120 0.02210 -0.31200
C 	C 	0.18640 0.05160 0.01920 0.09600
H 	H 	0.20270 0.04090 0.04320 -0.05700
C 	C 	0.18240 0.02680 0.98310 -0.21600
H 	H 	0.19600 0.99910 0.98200 0.06600
C 	C 	0.15850 0.04160 0.94780 0.13900
H 	H 	0.15570 0.02410 0.92250 -0.06900
C 	C 	0.13880 0.08220 0.94940 -0.33200
C 	C 	0.14490 0.10540 0.98810 0.14000
H 	H 	0.13180 0.13320 0.99030 -0.08100
C 	C 	0.06430 0.14210 0.92540 -0.85400
H 	H 	0.07810 0.16590 0.94140 0.22500
H 	H 	0.04690 0.15410 0.90150 0.21400
H 	H 	0.04550 0.12560 0.94500 0.23700
C 	C 	0.08130 0.06030 0.87220 -0.84600
H 	H 	0.10400 0.04130 0.86050 0.21600
H 	H 	0.06250 0.04360 0.89180 0.23100
H 	H 	0.06390 0.07210 0.84830 0.21900
Si	Si	0.10686 0.10576 0.90291 0.67200
Zn	Zn	0.17146 0.12500 0.07854 1.19400
Zn	Zn	0.67146 0.62500 0.57854 1.19400
Zn	Zn	0.32854 0.87500 0.57854 1.19400
Zn	Zn	0.82854 0.62500 0.42146 1.19400
Zn	Zn	0.67146 0.37500 0.92146 1.19400
Zn	Zn	0.07854 0.17146 0.12500 1.19400
Zn	Zn	0.57854 0.67146 0.62500 1.19400
Zn	Zn	0.57854 0.32854 0.87500 1.19400
Zn	Zn	0.42146 0.82854 0.62500 1.19400
Zn	Zn	0.92146 0.67146 0.37500 1.19400
Zn	Zn	0.12500 0.07854 0.17146 1.19400
Zn	Zn	0.62500 0.57854 0.67146 1.19400
Zn	Zn	0.87500 0.57854 0.32854 1.19400
Zn	Zn	0.62500 0.42146 0.82854 1.19400
Zn	Zn	0.37500 0.92146 0.67146 1.19400
Zn	Zn	0.87500 0.42146 0.17146 1.19400
Zn	Zn	0.37500 0.07854 0.82854 1.19400
Zn	Zn	0.12500 0.92146 0.32854 1.19400
Zn	Zn	0.92146 0.32854 0.12500 1.19400
Zn	Zn	0.07854 0.82854 0.37500 1.19400
Zn	Zn	0.42146 0.17146 0.87500 1.19400
Zn	Zn	0.82854 0.37500 0.07854 1.19400
Zn	Zn	0.32854 0.12500 0.92146 1.19400
Zn	Zn	0.17146 0.87500 0.42146 1.19400
O 	O 	0.16664 0.08336 0.12500 -0.75000
H 	H 	0.18850 0.06150 0.12500 0.17600
O 	O 	0.66664 0.58336 0.62500 -0.75000
H 	H 	0.68850 0.56150 0.62500 0.17600
O 	O 	0.33336 0.91664 0.62500 -0.75000
H 	H 	0.31150 0.93850 0.62500 0.17600
O 	O 	0.83336 0.58336 0.37500 -0.75000
H 	H 	0.81150 0.56150 0.37500 0.17600
O 	O 	0.66664 0.41664 0.87500 -0.75000
H 	H 	0.68850 0.43850 0.87500 0.17600
O 	O 	0.12500 0.16664 0.08336 -0.75000
H 	H 	0.12500 0.18850 0.06150 0.17600
O 	O 	0.62500 0.66664 0.58336 -0.75000
H 	H 	0.62500 0.68850 0.56150 0.17600
O 	O 	0.62500 0.33336 0.91664 -0.75000
H 	H 	0.62500 0.31150 0.93850 0.17600
O 	O 	0.37500 0.83336 0.58336 -0.75000
H 	H 	0.37500 0.81150 0.56150 0.17600
O 	O 	0.87500 0.66664 0.41664 -0.75000
H 	H 	0.87500 0.68850 0.43850 0.17600
O 	O 	0.08336 0.12500 0.16664 -0.75000
H 	H 	0.06150 0.12500 0.18850 0.17600
O 	O 	0.58336 0.62500 0.66664 -0.75000
H 	H 	0.56150 0.62500 0.68850 0.17600
O 	O 	0.91664 0.62500 0.33336 -0.75000
H 	H 	0.93850 0.62500 0.31150 0.17600
O 	O 	0.58336 0.37500 0.83336 -0.75000
H 	H 	0.56150 0.37500 0.81150 0.17600
O 	O 	0.41664 0.87500 0.66664 -0.75000
H 	H 	0.43850 0.87500 0.68850 0.17600
O 	O 	0.83336 0.41664 0.12500 -0.75000
H 	H 	0.81150 0.43850 0.12500 0.17600
O 	O 	0.33336 0.08336 0.87500 -0.75000
H 	H 	0.31150 0.06150 0.87500 0.17600
O 	O 	0.16664 0.91664 0.37500 -0.75000
H 	H 	0.18850 0.93850 0.37500 0.17600
O 	O 	0.91664 0.37500 0.16664 -0.75000
H 	H 	0.93850 0.37500 0.18850 0.17600
O 	O 	0.08336 0.87500 0.33336 -0.75000
H 	H 	0.06150 0.87500 0.31150 0.17600
O 	O 	0.41664 0.12500 0.83336 -0.75000
H 	H 	0.43850 0.12500 0.81150 0.17600
O 	O 	0.87500 0.33336 0.08336 -0.75000
H 	H 	0.87500 0.31150 0.06150 0.17600
O 	O 	0.37500 0.16664 0.91664 -0.75000
H 	H 	0.37500 0.18850 0.93850 0.17600
O 	O 	0.12500 0.83336 0.41664 -0.75000
H 	H 	0.12500 0.81150 0.43850 0.17600
N 	N 	0.77210 0.84120 0.91780 -0.31200
C 	C 	0.76920 0.80160 0.93640 0.09600
H 	H 	0.79320 0.79090 0.95270 -0.05700
C 	C 	0.73310 0.77680 0.93240 -0.21600
H 	H 	0.73200 0.74910 0.94600 0.06600
C 	C 	0.69780 0.79160 0.90850 0.13900
H 	H 	0.67250 0.77410 0.90570 -0.06900
C 	C 	0.69940 0.83220 0.88880 -0.33200
C 	C 	0.73810 0.85540 0.89490 0.14000
H 	H 	0.74030 0.88320 0.88180 -0.08100
C 	C 	0.67540 0.89210 0.81430 -0.85400
H 	H 	0.69140 0.91590 0.82810 0.22500
H 	H 	0.65150 0.90410 0.79690 0.21400
H 	H 	0.69500 0.87560 0.79550 0.23700
C 	C 	0.62220 0.81030 0.83130 -0.84600
H 	H 	0.61050 0.79130 0.85400 0.21600
H 	H 	0.64180 0.79360 0.81250 0.23200
H 	H 	0.59830 0.82210 0.81390 0.21900
Si	Si	0.65291 0.85576 0.85686 0.67200
N 	N 	0.27210 0.34120 0.41780 -0.31200
C 	C 	0.26920 0.30160 0.43640 0.09600
H 	H 	0.29320 0.29090 0.45270 -0.05700
C 	C 	0.23310 0.27680 0.43240 -0.21600
H 	H 	0.23200 0.24910 0.44600 0.06600
C 	C 	0.19780 0.29160 0.40850 0.13900
H 	H 	0.17250 0.27410 0.40570 -0.06900
C 	C 	0.19940 0.33220 0.38880 -0.33200
C 	C 	0.23810 0.35540 0.39490 0.14000
H 	H 	0.24030 0.38320 0.38180 -0.08100
C 	C 	0.17540 0.39210 0.31430 -0.85400
H 	H 	0.19140 0.41590 0.32810 0.22500
H 	H 	0.15150 0.40410 0.29690 0.21400
H 	H 	0.19500 0.37560 0.29550 0.23700
C 	C 	0.12220 0.31030 0.33130 -0.84600
H 	H 	0.11050 0.29130 0.35400 0.21600
H 	H 	0.14180 0.29360 0.31250 0.23200
H 	H 	0.09830 0.32210 0.31390 0.21900
Si	Si	0.15291 0.35576 0.35686 0.67200
N 	N 	0.72790 0.15880 0.41780 -0.31200
C 	C 	0.73080 0.19840 0.43640 0.09600
H 	H 	0.70680 0.20910 0.45270 -0.05700
C 	C 	0.76690 0.22320 0.43240 -0.21600
H 	H 	0.76800 0.25090 0.44600 0.06600
C 	C 	0.80220 0.20840 0.40850 0.13900
H 	H 	0.82750 0.22590 0.40570 -0.06900
C 	C 	0.80060 0.16780 0.38880 -0.33200
C 	C 	0.76190 0.14460 0.39490 0.14000
H 	H 	0.75970 0.11680 0.38180 -0.08100
C 	C 	0.82460 0.10790 0.31430 -0.85400
H 	H 	0.80860 0.08410 0.32810 0.22500
H 	H 	0.84850 0.09590 0.29690 0.21400
H 	H 	0.80500 0.12440 0.29550 0.23700
C 	C 	0.87780 0.18970 0.33130 -0.84600
H 	H 	0.88950 0.20870 0.35400 0.21600
H 	H 	0.85820 0.20640 0.31250 0.23200
H 	H 	0.90170 0.17790 0.31390 0.21900
Si	Si	0.84709 0.14424 0.35686 0.67200
N 	N 	0.22790 0.65880 0.91780 -0.31200
C 	C 	0.23080 0.69840 0.93640 0.09600
H 	H 	0.20680 0.70910 0.95270 -0.05700
C 	C 	0.26690 0.72320 0.93240 -0.21600
H 	H 	0.26800 0.75090 0.94600 0.06600
C 	C 	0.30220 0.70840 0.90850 0.13900
H 	H 	0.32750 0.72590 0.90570 -0.06900
C 	C 	0.30060 0.66780 0.88880 -0.33200
C 	C 	0.26190 0.64460 0.89490 0.14000
H 	H 	0.25970 0.61680 0.88180 -0.08100
C 	C 	0.32460 0.60790 0.81430 -0.85400
H 	H 	0.30860 0.58410 0.82810 0.22500
H 	H 	0.34850 0.59590 0.79690 0.21400
H 	H 	0.30500 0.62440 0.79550 0.23700
C 	C 	0.37780 0.68970 0.83130 -0.84600
H 	H 	0.38950 0.70870 0.85400 0.21600
H 	H 	0.35820 0.70640 0.81250 0.23200
H 	H 	0.40170 0.67790 0.81390 0.21900
Si	Si	0.34709 0.64424 0.85686 0.67200
N 	N 	0.22790 0.34120 0.58220 -0.31200
C 	C 	0.23080 0.30160 0.56360 0.09600
H 	H 	0.20680 0.29090 0.54730 -0.05700
C 	C 	0.26690 0.27680 0.56760 -0.21600
H 	H 	0.26800 0.24910 0.55400 0.06600
C 	C 	0.30220 0.29160 0.59150 0.13900
H 	H 	0.32750 0.27410 0.59430 -0.06900
C 	C 	0.30060 0.33220 0.61120 -0.33200
C 	C 	0.26190 0.35540 0.60510 0.14000
H 	H 	0.25970 0.38320 0.61820 -0.08100
C 	C 	0.32460 0.39210 0.68570 -0.85400
H 	H 	0.30860 0.41590 0.67190 0.22500
H 	H 	0.34850 0.40410 0.70310 0.21400
H 	H 	0.30500 0.37560 0.70450 0.23700
C 	C 	0.37780 0.31030 0.66870 -0.84600
H 	H 	0.38950 0.29130 0.64600 0.21600
H 	H 	0.35820 0.29360 0.68750 0.23200
H 	H 	0.40170 0.32210 0.68610 0.21900
Si	Si	0.34709 0.35576 0.64314 0.67200
N 	N 	0.72790 0.84120 0.08220 -0.31200
C 	C 	0.73080 0.80160 0.06360 0.09600
H 	H 	0.70680 0.79090 0.04730 -0.05700
C 	C 	0.76690 0.77680 0.06760 -0.21600
H 	H 	0.76800 0.74910 0.05400 0.06600
C 	C 	0.80220 0.79160 0.09150 0.13900
H 	H 	0.82750 0.77410 0.09430 -0.06900
C 	C 	0.80060 0.83220 0.11120 -0.33200
C 	C 	0.76190 0.85540 0.10510 0.14000
H 	H 	0.75970 0.88320 0.11820 -0.08100
C 	C 	0.82460 0.89210 0.18570 -0.85400
H 	H 	0.80860 0.91590 0.17190 0.22500
H 	H 	0.84850 0.90410 0.20310 0.21400
H 	H 	0.80500 0.87560 0.20450 0.23700
C 	C 	0.87780 0.81030 0.16870 -0.84600
H 	H 	0.88950 0.79130 0.14600 0.21600
H 	H 	0.85820 0.79360 0.18750 0.23200
H 	H 	0.90170 0.82210 0.18610 0.21900
Si	Si	0.84709 0.85576 0.14314 0.67200
N 	N 	0.27210 0.65880 0.08220 -0.31200
C 	C 	0.26920 0.69840 0.06360 0.09600
H 	H 	0.29320 0.70910 0.04730 -0.05700
C 	C 	0.23310 0.72320 0.06760 -0.21600
H 	H 	0.23200 0.75090 0.05400 0.06600
C 	C 	0.19780 0.70840 0.09150 0.13900
H 	H 	0.17250 0.72590 0.09430 -0.06900
C 	C 	0.19940 0.66780 0.11120 -0.33200
C 	C 	0.23810 0.64460 0.10510 0.14000
H 	H 	0.24030 0.61680 0.11820 -0.08100
C 	C 	0.17540 0.60790 0.18570 -0.85400
H 	H 	0.19140 0.58410 0.17190 0.22500
H 	H 	0.15150 0.59590 0.20310 0.21400
H 	H 	0.19500 0.62440 0.20450 0.23700
C 	C 	0.12220 0.68970 0.16870 -0.84600
H 	H 	0.11050 0.70870 0.14600 0.21600
H 	H 	0.14180 0.70640 0.18750 0.23200
H 	H 	0.09830 0.67790 0.18610 0.21900
Si	Si	0.15291 0.64424 0.14314 0.67200
N 	N 	0.77210 0.15880 0.58220 -0.31200
C 	C 	0.76920 0.19840 0.56360 0.09600
H 	H 	0.79320 0.20910 0.54730 -0.05700
C 	C 	0.73310 0.22320 0.56760 -0.21600
H 	H 	0.73200 0.25090 0.55400 0.06600
C 	C 	0.69780 0.20840 0.59150 0.13900
H 	H 	0.67250 0.22590 0.59430 -0.06900
C 	C 	0.69940 0.16780 0.61120 -0.33200
C 	C 	0.73810 0.14460 0.60510 0.14000
H 	H 	0.74030 0.11680 0.61820 -0.08100
C 	C 	0.67540 0.10790 0.68570 -0.85400
H 	H 	0.69140 0.08410 0.67190 0.22500
H 	H 	0.65150 0.09590 0.70310 0.21400
H 	H 	0.69500 0.12440 0.70450 0.23700
C 	C 	0.62220 0.18970 0.66870 -0.84600
H 	H 	0.61050 0.20870 0.64600 0.21600
H 	H 	0.64180 0.20640 0.68750 0.23200
H 	H 	0.59830 0.17790 0.68610 0.21900
Si	Si	0.65291 0.14424 0.64314 0.67200
N 	N 	0.91780 0.77210 0.84120 -0.31200
C 	C 	0.93640 0.76920 0.80160 0.09600
H 	H 	0.95270 0.79320 0.79090 -0.05700
C 	C 	0.93240 0.73310 0.77680 -0.21600
H 	H 	0.94600 0.73200 0.74910 0.06600
C 	C 	0.90850 0.69780 0.79160 0.13900
H 	H 	0.90570 0.67250 0.77410 -0.06900
C 	C 	0.88880 0.69940 0.83220 -0.33200
C 	C 	0.89490 0.73810 0.85540 0.14000
H 	H 	0.88180 0.74030 0.88320 -0.08100
C 	C 	0.81430 0.67540 0.89210 -0.85400
H 	H 	0.82810 0.69140 0.91590 0.22500
H 	H 	0.79690 0.65150 0.90410 0.21400
H 	H 	0.79550 0.69500 0.87560 0.23700
C 	C 	0.83130 0.62220 0.81030 -0.84600
H 	H 	0.85400 0.61050 0.79130 0.21600
H 	H 	0.81250 0.64180 0.79360 0.23200
H 	H 	0.81390 0.59830 0.82210 0.21900
Si	Si	0.85686 0.65291 0.85576 0.67200
N 	N 	0.41780 0.27210 0.34120 -0.31200
C 	C 	0.43640 0.26920 0.30160 0.09600
H 	H 	0.45270 0.29320 0.29090 -0.05700
C 	C 	0.43240 0.23310 0.27680 -0.21600
H 	H 	0.44600 0.23200 0.24910 0.06600
C 	C 	0.40850 0.19780 0.29160 0.13900
H 	H 	0.40570 0.17250 0.27410 -0.06900
C 	C 	0.38880 0.19940 0.33220 -0.33200
C 	C 	0.39490 0.23810 0.35540 0.14000
H 	H 	0.38180 0.24030 0.38320 -0.08100
C 	C 	0.31430 0.17540 0.39210 -0.85400
H 	H 	0.32810 0.19140 0.41590 0.22500
H 	H 	0.29690 0.15150 0.40410 0.21400
H 	H 	0.29550 0.19500 0.37560 0.23700
C 	C 	0.33130 0.12220 0.31030 -0.84600
H 	H 	0.35400 0.11050 0.29130 0.21600
H 	H 	0.31250 0.14180 0.29360 0.23200
H 	H 	0.31390 0.09830 0.32210 0.21900
Si	Si	0.35686 0.15291 0.35576 0.67200
N 	N 	0.41780 0.72790 0.15880 -0.31200
C 	C 	0.43640 0.73080 0.19840 0.09600
H 	H 	0.45270 0.70680 0.20910 -0.05700
C 	C 	0.43240 0.76690 0.22320 -0.21600
H 	H 	0.44600 0.76800 0.25090 0.06600
C 	C 	0.40850 0.80220 0.20840 0.13900
H 	H 	0.40570 0.82750 0.22590 -0.06900
C 	C 	0.38880 0.80060 0.16780 -0.33200
C 	C 	0.39490 0.76190 0.14460 0.14000
H 	H 	0.38180 0.75970 0.11680 -0.08100
C 	C 	0.31430 0.82460 0.10790 -0.85400
H 	H 	0.32810 0.80860 0.08410 0.22500
H 	H 	0.29690 0.84850 0.09590 0.21400
H 	H 	0.29550 0.80500 0.12440 0.23700
C 	C 	0.33130 0.87780 0.18970 -0.84600
H 	H 	0.35400 0.88950 0.20870 0.21600
H 	H 	0.31250 0.85820 0.20640 0.23200
H 	H 	0.31390 0.90170 0.17790 0.21900
Si	Si	0.35686 0.84709 0.14424 0.67200
N 	N 	0.91780 0.22790 0.65880 -0.31200
C 	C 	0.93640 0.23080 0.69840 0.09600
H 	H 	0.95270 0.20680 0.70910 -0.05700
C 	C 	0.93240 0.26690 0.72320 -0.21600
H 	H 	0.94600 0.26800 0.75090 0.06600
C 	C 	0.90850 0.30220 0.70840 0.13900
H 	H 	0.90570 0.32750 0.72590 -0.06900
C 	C 	0.88880 0.30060 0.66780 -0.33200
C 	C 	0.89490 0.26190 0.64460 0.14000
H 	H 	0.88180 0.25970 0.61680 -0.08100
C 	C 	0.81430 0.32460 0.60790 -0.85400
H 	H 	0.82810 0.30860 0.58410 0.22500
H 	H 	0.79690 0.34850 0.59590 0.21400
H 	H 	0.79550 0.30500 0.62440 0.23700
C 	C 	0.83130 0.37780 0.68970 -0.84600
H 	H 	0.85400 0.38950 0.70870 0.21600
H 	H 	0.81250 0.35820 0.70640 0.23200
H 	H 	0.81390 0.40170 0.67790 0.21900
Si	Si	0.85686 0.34709 0.64424 0.67200
N 	N 	0.58220 0.22790 0.34120 -0.31200
C 	C 	0.56360 0.23080 0.30160 0.09600
H 	H 	0.54730 0.20680 0.29090 -0.05700
C 	C 	0.56760 0.26690 0.27680 -0.21600
H 	H 	0.55400 0.26800 0.24910 0.06600
C 	C 	0.59150 0.30220 0.29160 0.13900
H 	H 	0.59430 0.32750 0.27410 -0.06900
C 	C 	0.61120 0.30060 0.33220 -0.33200
C 	C 	0.60510 0.26190 0.35540 0.14000
H 	H 	0.61820 0.25970 0.38320 -0.08100
C 	C 	0.68570 0.32460 0.39210 -0.85400
H 	H 	0.67190 0.30860 0.41590 0.22500
H 	H 	0.70310 0.34850 0.40410 0.21400
H 	H 	0.70450 0.30500 0.37560 0.23700
C 	C 	0.66870 0.37780 0.31030 -0.84600
H 	H 	0.64600 0.38950 0.29130 0.21600
H 	H 	0.68750 0.35820 0.29360 0.23200
H 	H 	0.68610 0.40170 0.32210 0.21900
Si	Si	0.64314 0.34709 0.35576 0.67200
N 	N 	0.08220 0.72790 0.84120 -0.31200
C 	C 	0.06360 0.73080 0.80160 0.09600
H 	H 	0.04730 0.70680 0.79090 -0.05700
C 	C 	0.06760 0.76690 0.77680 -0.21600
H 	H 	0.05400 0.76800 0.74910 0.06600
C 	C 	0.09150 0.80220 0.79160 0.13900
H 	H 	0.09430 0.82750 0.77410 -0.06900
C 	C 	0.11120 0.80060 0.83220 -0.33200
C 	C 	0.10510 0.76190 0.85540 0.14000
H 	H 	0.11820 0.75970 0.88320 -0.08100
C 	C 	0.18570 0.82460 0.89210 -0.85400
H 	H 	0.17190 0.80860 0.91590 0.22500
H 	H 	0.20310 0.84850 0.90410 0.21400
H 	H 	0.20450 0.80500 0.87560 0.23700
C 	C 	0.16870 0.87780 0.81030 -0.84600
H 	H 	0.14600 0.88950 0.79130 0.21600
H 	H 	0.18750 0.85820 0.79360 0.23200
H 	H 	0.18610 0.90170 0.82210 0.21900
Si	Si	0.14314 0.84709 0.85576 0.67200
N 	N 	0.08220 0.27210 0.65880 -0.31200
C 	C 	0.06360 0.26920 0.69840 0.09600
H 	H 	0.04730 0.29320 0.70910 -0.05700
C 	C 	0.06760 0.23310 0.72320 -0.21600
H 	H 	0.05400 0.23200 0.75090 0.06600
C 	C 	0.09150 0.19780 0.70840 0.13900
H 	H 	0.09430 0.17250 0.72590 -0.06900
C 	C 	0.11120 0.19940 0.66780 -0.33200
C 	C 	0.10510 0.23810 0.64460 0.14000
H 	H 	0.11820 0.24030 0.61680 -0.08100
C 	C 	0.18570 0.17540 0.60790 -0.85400
H 	H 	0.17190 0.19140 0.58410 0.22500
H 	H 	0.20310 0.15150 0.59590 0.21400
H 	H 	0.20450 0.19500 0.62440 0.23700
C 	C 	0.16870 0.12220 0.68970 -0.84600
H 	H 	0.14600 0.11050 0.70870 0.21600
H 	H 	0.18750 0.14180 0.70640 0.23200
H 	H 	0.18610 0.09830 0.67790 0.21900
Si	Si	0.14314 0.15291 0.64424 0.67200
N 	N 	0.58220 0.77210 0.15880 -0.31200
C 	C 	0.56360 0.76920 0.19840 0.09600
H 	H 	0.54730 0.79320 0.20910 -0.05700
C 	C 	0.56760 0.73310 0.22320 -0.21600
H 	H 	0.55400 0.73200 0.25090 0.06600
C 	C 	0.59150 0.69780 0.20840 0.13900
H 	H 	0.59430 0.67250 0.22590 -0.06900
C 	C 	0.61120 0.69940 0.16780 -0.33200
C 	C 	0.60510 0.73810 0.14460 0.14000
H 	H 	0.61820 0.74030 0.11680 -0.08100
C 	C 	0.68570 0.67540 0.10790 -0.85400
H 	H 	0.67190 0.69140 0.08410 0.22500
H 	H 	0.70310 0.65150 0.09590 0.21400
H 	H 	0.70450 0.69500 0.12440 0.23700
C 	C 	0.66870 0.62220 0.18970 -0.84600
H 	H 	0.64600 0.61050 0.20870 0.21600
H 	H 	0.68750 0.64180 0.20640 0.23200
H 	H 	0.68610 0.59830 0.17790 0.21900
Si	Si	0.64314 0.65291 0.14424 0.67200
N 	N 	0.84120 0.91780 0.77210 -0.31200
C 	C 	0.80160 0.93640 0.76920 0.09600
H 	H 	0.79090 0.95270 0.79320 -0.05700
C 	C 	0.77680 0.93240 0.73310 -0.21600
H 	H 	0.74910 0.94600 0.73200 0.06600
C 	C 	0.79160 0.90850 0.69780 0.13900
H 	H 	0.77410 0.90570 0.67250 -0.06900
C 	C 	0.83220 0.88880 0.69940 -0.33200
C 	C 	0.85540 0.89490 0.73810 0.14000
H 	H 	0.88320 0.88180 0.74030 -0.08100
C 	C 	0.89210 0.81430 0.67540 -0.85400
H 	H 	0.91590 0.82810 0.69140 0.22500
H 	H 	0.90410 0.79690 0.65150 0.21400
H 	H 	0.87560 0.79550 0.69500 0.23700
C 	C 	0.81030 0.83130 0.62220 -0.84600
H 	H 	0.79130 0.85400 0.61050 0.21600
H 	H 	0.79360 0.81250 0.64180 0.23200
H 	H 	0.82210 0.81390 0.59830 0.21900
Si	Si	0.85576 0.85686 0.65291 0.67200
N 	N 	0.34120 0.41780 0.27210 -0.31200
C 	C 	0.30160 0.43640 0.26920 0.09600
H 	H 	0.29090 0.45270 0.29320 -0.05700
C 	C 	0.27680 0.43240 0.23310 -0.21600
H 	H 	0.24910 0.44600 0.23200 0.06600
C 	C 	0.29160 0.40850 0.19780 0.13900
H 	H 	0.27410 0.40570 0.17250 -0.06900
C 	C 	0.33220 0.38880 0.19940 -0.33200
C 	C 	0.35540 0.39490 0.23810 0.14000
H 	H 	0.38320 0.38180 0.24030 -0.08100
C 	C 	0.39210 0.31430 0.17540 -0.85400
H 	H 	0.41590 0.32810 0.19140 0.22500
H 	H 	0.40410 0.29690 0.15150 0.21400
H 	H 	0.37560 0.29550 0.19500 0.23700
C 	C 	0.31030 0.33130 0.12220 -0.84600
H 	H 	0.29130 0.35400 0.11050 0.21600
H 	H 	0.29360 0.31250 0.14180 0.23200
H 	H 	0.32210 0.31390 0.09830 0.21900
Si	Si	0.35576 0.35686 0.15291 0.67200
N 	N 	0.15880 0.41780 0.72790 -0.31200
C 	C 	0.19840 0.43640 0.73080 0.09600
H 	H 	0.20910 0.45270 0.70680 -0.05700
C 	C 	0.22320 0.43240 0.76690 -0.21600
H 	H 	0.25090 0.44600 0.76800 0.06600
C 	C 	0.20840 0.40850 0.80220 0.13900
H 	H 	0.22590 0.40570 0.82750 -0.06900
C 	C 	0.16780 0.38880 0.80060 -0.33200
C 	C 	0.14460 0.39490 0.76190 0.14000
H 	H 	0.11680 0.38180 0.75970 -0.08100
C 	C 	0.10790 0.31430 0.82460 -0.85400
H 	H 	0.08410 0.32810 0.80860 0.22500
H 	H 	0.09590 0.29690 0.84850 0.21400
H 	H 	0.12440 0.29550 0.80500 0.23700
C 	C 	0.18970 0.33130 0.87780 -0.84600
H 	H 	0.20870 0.35400 0.88950 0.21600
H 	H 	0.20640 0.31250 0.85820 0.23200
H 	H 	0.17790 0.31390 0.90170 0.21900
Si	Si	0.14424 0.35686 0.84709 0.67200
N 	N 	0.65880 0.91780 0.22790 -0.31200
C 	C 	0.69840 0.93640 0.23080 0.09600
H 	H 	0.70910 0.95270 0.20680 -0.05700
C 	C 	0.72320 0.93240 0.26690 -0.21600
H 	H 	0.75090 0.94600 0.26800 0.06600
C 	C 	0.70840 0.90850 0.30220 0.13900
H 	H 	0.72590 0.90570 0.32750 -0.06900
C 	C 	0.66780 0.88880 0.30060 -0.33200
C 	C 	0.64460 0.89490 0.26190 0.14000
H 	H 	0.61680 0.88180 0.25970 -0.08100
C 	C 	0.60790 0.81430 0.32460 -0.85400
H 	H 	0.58410 0.82810 0.30860 0.22500
H 	H 	0.59590 0.79690 0.34850 0.21400
H 	H 	0.62440 0.79550 0.30500 0.23700
C 	C 	0.68970 0.83130 0.37780 -0.84600
H 	H 	0.70870 0.85400 0.38950 0.21600
H 	H 	0.70640 0.81250 0.35820 0.23200
H 	H 	0.67790 0.81390 0.40170 0.21900
Si	Si	0.64424 0.85686 0.34709 0.67200
N 	N 	0.34120 0.58220 0.22790 -0.31200
C 	C 	0.30160 0.56360 0.23080 0.09600
H 	H 	0.29090 0.54730 0.20680 -0.05700
C 	C 	0.27680 0.56760 0.26690 -0.21600
H 	H 	0.24910 0.55400 0.26800 0.06600
C 	C 	0.29160 0.59150 0.30220 0.13900
H 	H 	0.27410 0.59430 0.32750 -0.06900
C 	C 	0.33220 0.61120 0.30060 -0.33200
C 	C 	0.35540 0.60510 0.26190 0.14000
H 	H 	0.38320 0.61820 0.25970 -0.08100
C 	C 	0.39210 0.68570 0.32460 -0.85400
H 	H 	0.41590 0.67190 0.30860 0.22500
H 	H 	0.40410 0.70310 0.34850 0.21400
H 	H 	0.37560 0.70450 0.30500 0.23700
C 	C 	0.31030 0.66870 0.37780 -0.84600
H 	H 	0.29130 0.64600 0.38950 0.21600
H 	H 	0.29360 0.68750 0.35820 0.23200
H 	H 	0.32210 0.68610 0.40170 0.21900
Si	Si	0.35576 0.64314 0.34709 0.67200
N 	N 	0.84120 0.08220 0.72790 -0.31200
C 	C 	0.80160 0.06360 0.73080 0.09600
H 	H 	0.79090 0.04730 0.70680 -0.05700
C 	C 	0.77680 0.06760 0.76690 -0.21600
H 	H 	0.74910 0.05400 0.76800 0.06600
C 	C 	0.79160 0.09150 0.80220 0.13900
H 	H 	0.77410 0.09430 0.82750 -0.06900
C 	C 	0.83220 0.11120 0.80060 -0.33200
C 	C 	0.85540 0.10510 0.76190 0.14000
H 	H 	0.88320 0.11820 0.75970 -0.08100
C 	C 	0.89210 0.18570 0.82460 -0.85400
H 	H 	0.91590 0.17190 0.80860 0.22500
H 	H 	0.90410 0.20310 0.84850 0.21400
H 	H 	0.87560 0.20450 0.80500 0.23700
C 	C 	0.81030 0.16870 0.87780 -0.84600
H 	H 	0.79130 0.14600 0.88950 0.21600
H 	H 	0.79360 0.18750 0.85820 0.23200
H 	H 	0.82210 0.18610 0.90170 0.21900
Si	Si	0.85576 0.14314 0.84709 0.67200
N 	N 	0.65880 0.08220 0.27210 -0.31200
C 	C 	0.69840 0.06360 0.26920 0.09600
H 	H 	0.70910 0.04730 0.29320 -0.05700
C 	C 	0.72320 0.06760 0.23310 -0.21600
H 	H 	0.75090 0.05400 0.23200 0.06600
C 	C 	0.70840 0.09150 0.19780 0.13900
H 	H 	0.72590 0.09430 0.17250 -0.06900
C 	C 	0.66780 0.11120 0.19940 -0.33200
C 	C 	0.64460 0.10510 0.23810 0.14000
H 	H 	0.61680 0.11820 0.24030 -0.08100
C 	C 	0.60790 0.18570 0.17540 -0.85400
H 	H 	0.58410 0.17190 0.19140 0.22500
H 	H 	0.59590 0.20310 0.15150 0.21400
H 	H 	0.62440 0.20450 0.19500 0.23700
C 	C 	0.68970 0.16870 0.12220 -0.84600
H 	H 	0.70870 0.14600 0.11050 0.21600
H 	H 	0.70640 0.18750 0.14180 0.23200
H 	H 	0.67790 0.18610 0.09830 0.21900
Si	Si	0.64424 0.14314 0.15291 0.67200
N 	N 	0.15880 0.58220 0.77210 -0.31200
C 	C 	0.19840 0.56360 0.76920 0.09600
H 	H 	0.20910 0.54730 0.79320 -0.05700
C 	C 	0.22320 0.56760 0.73310 -0.21600
H 	H 	0.25090 0.55400 0.73200 0.06600
C 	C 	0.20840 0.59150 0.69780 0.13900
H 	H 	0.22590 0.59430 0.67250 -0.06900
C 	C 	0.16780 0.61120 0.69940 -0.33200
C 	C 	0.14460 0.60510 0.73810 0.14000
H 	H 	0.11680 0.61820 0.74030 -0.08100
C 	C 	0.10790 0.68570 0.67540 -0.85400
H 	H 	0.08410 0.67190 0.69140 0.22500
H 	H 	0.09590 0.70310 0.65150 0.21400
H 	H 	0.12440 0.70450 0.69500 0.23700
C 	C 	0.18970 0.66870 0.62220 -0.84600
H 	H 	0.20870 0.64600 0.61050 0.21600
H 	H 	0.20640 0.68750 0.64180 0.23200
H 	H 	0.17790 0.68610 0.59830 0.21900
Si	Si	0.14424 0.64314 0.65291 0.67200
N 	N 	0.09120 0.52210 0.83220 -0.31200
C 	C 	0.05160 0.51920 0.81360 0.09600
H 	H 	0.04090 0.54320 0.79730 -0.05700
C 	C 	0.02680 0.48310 0.81760 -0.21600
H 	H 	0.99910 0.48200 0.80400 0.06600
C 	C 	0.04160 0.44780 0.84150 0.13900
H 	H 	0.02410 0.42250 0.84430 -0.06900
C 	C 	0.08220 0.44940 0.86120 -0.33200
C 	C 	0.10540 0.48810 0.85510 0.14000
H 	H 	0.13320 0.49030 0.86820 -0.08100
C 	C 	0.14210 0.42540 0.93570 -0.85400
H 	H 	0.16590 0.44140 0.92190 0.22500
H 	H 	0.15410 0.40150 0.95310 0.21400
H 	H 	0.12560 0.44500 0.95450 0.23700
C 	C 	0.06030 0.37220 0.91870 -0.84600
H 	H 	0.04130 0.36050 0.89600 0.21600
H 	H 	0.04360 0.39180 0.93750 0.23100
H 	H 	0.07210 0.34830 0.93610 0.21900
Si	Si	0.10576 0.40291 0.89314 0.67200
N 	N 	0.59120 0.02210 0.33220 -0.31200
C 	C 	0.55160 0.01920 0.31360 0.09600
H 	H 	0.54090 0.04320 0.29730 -0.05700
C 	C 	0.52680 0.98310 0.31760 -0.21600
H 	H 	0.49910 0.98200 0.30400 0.06600
C 	C 	0.54160 0.94780 0.34150 0.13900
H 	H 	0.52410 0.92250 0.34430 -0.06900
C 	C 	0.58220 0.94940 0.36120 -0.33200
C 	C 	0.60540 0.98810 0.35510 0.14000
H 	H 	0.63320 0.99030 0.36820 -0.08100
C 	C 	0.64210 0.92540 0.43570 -0.85400
H 	H 	0.66590 0.94140 0.42190 0.22500
H 	H 	0.65410 0.90150 0.45310 0.21400
H 	H 	0.62560 0.94500 0.45450 0.23700
C 	C 	0.56030 0.87220 0.41870 -0.84600
H 	H 	0.54130 0.86050 0.39600 0.21600
H 	H 	0.54360 0.89180 0.43750 0.23200
H 	H 	0.57210 0.84830 0.43610 0.21900
Si	Si	0.60576 0.90291 0.39314 0.67200
N 	N 	0.40880 0.47790 0.33220 -0.31200
C 	C 	0.44840 0.48080 0.31360 0.09600
H 	H 	0.45910 0.45680 0.29730 -0.05700
C 	C 	0.47320 0.51690 0.31760 -0.21600
H 	H 	0.50090 0.51800 0.30400 0.06600
C 	C 	0.45840 0.55220 0.34150 0.13900
H 	H 	0.47590 0.57750 0.34430 -0.06900
C 	C 	0.41780 0.55060 0.36120 -0.33200
C 	C 	0.39460 0.51190 0.35510 0.14000
H 	H 	0.36680 0.50970 0.36820 -0.08100
C 	C 	0.35790 0.57460 0.43570 -0.85400
H 	H 	0.33410 0.55860 0.42190 0.22500
H 	H 	0.34590 0.59850 0.45310 0.21400
H 	H 	0.37440 0.55500 0.45450 0.23700
C 	C 	0.43970 0.62780 0.41870 -0.84600
H 	H 	0.45870 0.63950 0.39600 0.21600
H 	H 	0.45640 0.60820 0.43750 0.23200
H 	H 	0.42790 0.65170 0.43610 0.21900
Si	Si	0.39424 0.59709 0.39314 0.67200
N 	N 	0.90880 0.97790 0.83220 -0.31200
C 	C 	0.94840 0.98080 0.81360 0.09600
H 	H 	0.95910 0.95680 0.79730 -0.05700
C 	C 	0.97320 0.01690 0.81760 -0.21600
H 	H 	0.00090 0.01800 0.80400 0.06600
C 	C 	0.95840 0.05220 0.84150 0.13900
H 	H 	0.97590 0.07750 0.84430 -0.06900
C 	C 	0.91780 0.05060 0.86120 -0.33200
C 	C 	0.89460 0.01190 0.85510 0.14000
H 	H 	0.86680 0.00970 0.86820 -0.08100
C 	C 	0.85790 0.07460 0.93570 -0.85400
H 	H 	0.83410 0.05860 0.92190 0.22500
H 	H 	0.84590 0.09850 0.95310 0.21400
H 	H 	0.87440 0.05500 0.95450 0.23700
C 	C 	0.93970 0.12780 0.91870 -0.84600
H 	H 	0.95870 0.13950 0.89600 0.21600
H 	H 	0.95640 0.10820 0.93750 0.23100
H 	H 	0.92790 0.15170 0.93610 0.21900
Si	Si	0.89424 0.09709 0.89314 0.67200
N 	N 	0.59120 0.97790 0.16780 -0.31200
C 	C 	0.55160 0.98080 0.18640 0.09600
H 	H 	0.54090 0.95680 0.20270 -0.05700
C 	C 	0.52680 0.01690 0.18240 -0.21600
H 	H 	0.49910 0.01800 0.19600 0.06600
C 	C 	0.54160 0.05220 0.15850 0.13900
H 	H 	0.52410 0.07750 0.15570 -0.06900
C 	C 	0.58220 0.05060 0.13880 -0.33200
C 	C 	0.60540 0.01190 0.14490 0.14000
H 	H 	0.63320 0.00970 0.13180 -0.08100
C 	C 	0.64210 0.07460 0.06430 -0.85400
H 	H 	0.66590 0.05860 0.07810 0.22500
H 	H 	0.65410 0.09850 0.04690 0.21400
H 	H 	0.62560 0.05500 0.04550 0.23700
C 	C 	0.56030 0.12780 0.08130 -0.84600
H 	H 	0.54130 0.13950 0.10400 0.21600
H 	H 	0.54360 0.10820 0.06250 0.23200
H 	H 	0.57210 0.15170 0.06390 0.21900
Si	Si	0.60576 0.09709 0.10686 0.67200
N 	N 	0.09120 0.47790 0.66780 -0.31200
C 	C 	0.05160 0.48080 0.68640 0.09600
H 	H 	0.04090 0.45680 0.70270 -0.05700
C 	C 	0.02680 0.51690 0.68240 -0.21600
H 	H 	0.99910 0.51800 0.69600 0.06600
C 	C 	0.04160 0.55220 0.65850 0.13900
H 	H 	0.02410 0.57750 0.65570 -0.06900
C 	C 	0.08220 0.55060 0.63880 -0.33200
C 	C 	0.10540 0.51190 0.64490 0.14000
H 	H 	0.13320 0.50970 0.63180 -0.08100
C 	C 	0.14210 0.57460 0.56430 -0.85400
H 	H 	0.16590 0.55860 0.57810 0.22500
H 	H 	0.15410 0.59850 0.54690 0.21400
H 	H 	0.12560 0.55500 0.54550 0.23700
C 	C 	0.06030 0.62780 0.58130 -0.84600
H 	H 	0.04130 0.63950 0.60400 0.21600
H 	H 	0.04360 0.60820 0.56250 0.23200
H 	H 	0.07210 0.65170 0.56390 0.21900
Si	Si	0.10576 0.59709 0.60686 0.67200
N 	N 	0.90880 0.02210 0.66780 -0.31200
C 	C 	0.94840 0.01920 0.68640 0.09600
H 	H 	0.95910 0.04320 0.70270 -0.05700
C 	C 	0.97320 0.98310 0.68240 -0.21600
H 	H 	0.00090 0.98200 0.69600 0.06600
C 	C 	0.95840 0.94780 0.65850 0.13900
H 	H 	0.97590 0.92250 0.65570 -0.06900
C 	C 	0.91780 0.94940 0.63880 -0.33200
C 	C 	0.89460 0.98810 0.64490 0.14000
H 	H 	0.86680 0.99030 0.63180 -0.08100
C 	C 	0.85790 0.92540 0.56430 -0.85400
H 	H 	0.83410 0.94140 0.57810 0.22500
H 	H 	0.84590 0.90150 0.54690 0.21400
H 	H 	0.87440 0.94500 0.54550 0.23700
C 	C 	0.93970 0.87220 0.58130 -0.84600
H 	H 	0.95870 0.86050 0.60400 0.21600
H 	H 	0.95640 0.89180 0.56250 0.23200
H 	H 	0.92790 0.84830 0.56390 0.21900
Si	Si	0.89424 0.90291 0.60686 0.67200
N 	N 	0.40880 0.52210 0.16780 -0.31200
C 	C 	0.44840 0.51920 0.18640 0.09600
H 	H 	0.45910 0.54320 0.20270 -0.05700
C 	C 	0.47320 0.48310 0.18240 -0.21600
H 	H 	0.50090 0.48200 0.19600 0.06600
C 	C 	0.45840 0.44780 0.15850 0.13900
H 	H 	0.47590 0.42250 0.15570 -0.06900
C 	C 	0.41780 0.44940 0.13880 -0.33200
C 	C 	0.39460 0.48810 0.14490 0.14000
H 	H 	0.36680 0.49030 0.13180 -0.08100
C 	C 	0.35790 0.42540 0.06430 -0.85400
H 	H 	0.33410 0.44140 0.07810 0.22500
H 	H 	0.34590 0.40150 0.04690 0.21400
H 	H 	0.37440 0.44500 0.04550 0.23700
C 	C 	0.43970 0.37220 0.08130 -0.84600
H 	H 	0.45870 0.36050 0.10400 0.21600
H 	H 	0.45640 0.39180 0.06250 0.23200
H 	H 	0.42790 0.34830 0.06390 0.21900
Si	Si	0.39424 0.40291 0.10686 0.67200
N 	N 	0.02210 0.66780 0.90880 -0.31200
C 	C 	0.01920 0.68640 0.94840 0.09600
H 	H 	0.04320 0.70270 0.95910 -0.05700
C 	C 	0.98310 0.68240 0.97320 -0.21600
H 	H 	0.98200 0.69600 0.00090 0.06600
C 	C 	0.94780 0.65850 0.95840 0.13900
H 	H 	0.92250 0.65570 0.97590 -0.06900
C 	C 	0.94940 0.63880 0.91780 -0.33200
C 	C 	0.98810 0.64490 0.89460 0.14000
H 	H 	0.99030 0.63180 0.86680 -0.08100
C 	C 	0.92540 0.56430 0.85790 -0.85400
H 	H 	0.94140 0.57810 0.83410 0.22500
H 	H 	0.90150 0.54690 0.84590 0.21400
H 	H 	0.94500 0.54550 0.87440 0.23700
C 	C 	0.87220 0.58130 0.93970 -0.84600
H 	H 	0.86050 0.60400 0.95870 0.21600
H 	H 	0.89180 0.56250 0.95640 0.23200
H 	H 	0.84830 0.56390 0.92790 0.21900
Si	Si	0.90291 0.60686 0.89424 0.67200
N 	N 	0.52210 0.16780 0.40880 -0.31200
C 	C 	0.51920 0.18640 0.44840 0.09600
H 	H 	0.54320 0.20270 0.45910 -0.05700
C 	C 	0.48310 0.18240 0.47320 -0.21600
H 	H 	0.48200 0.19600 0.50090 0.06600
C 	C 	0.44780 0.15850 0.45840 0.13900
H 	H 	0.42250 0.15570 0.47590 -0.06900
C 	C 	0.44940 0.13880 0.41780 -0.33200
C 	C 	0.48810 0.14490 0.39460 0.14000
H 	H 	0.49030 0.13180 0.36680 -0.08100
C 	C 	0.42540 0.06430 0.35790 -0.85400
H 	H 	0.44140 0.07810 0.33410 0.22500
H 	H 	0.40150 0.04690 0.34590 0.21400
H 	H 	0.44500 0.04550 0.37440 0.23700
C 	C 	0.37220 0.08130 0.43970 -0.84600
H 	H 	0.36050 0.10400 0.45870 0.21600
H 	H 	0.39180 0.06250 0.45640 0.23200
H 	H 	0.34830 0.06390 0.42790 0.21900
Si	Si	0.40291 0.10686 0.39424 0.67200
N 	N 	0.97790 0.16780 0.59120 -0.31200
C 	C 	0.98080 0.18640 0.55160 0.09600
H 	H 	0.95680 0.20270 0.54090 -0.05700
C 	C 	0.01690 0.18240 0.52680 -0.21600
H 	H 	0.01800 0.19600 0.49910 0.06600
C 	C 	0.05220 0.15850 0.54160 0.13900
H 	H 	0.07750 0.15570 0.52410 -0.06900
C 	C 	0.05060 0.13880 0.58220 -0.33200
C 	C 	0.01190 0.14490 0.60540 0.14000
H 	H 	0.00970 0.13180 0.63320 -0.08100
C 	C 	0.07460 0.06430 0.64210 -0.85400
H 	H 	0.05860 0.07810 0.66590 0.22500
H 	H 	0.09850 0.04690 0.65410 0.21400
H 	H 	0.05500 0.04550 0.62560 0.23700
C 	C 	0.12780 0.08130 0.56030 -0.84600
H 	H 	0.13950 0.10400 0.54130 0.21600
H 	H 	0.10820 0.06250 0.54360 0.23200
H 	H 	0.15170 0.06390 0.57210 0.21900
Si	Si	0.09709 0.10686 0.60576 0.67200
N 	N 	0.47790 0.66780 0.09120 -0.31200
C 	C 	0.48080 0.68640 0.05160 0.09600
H 	H 	0.45680 0.70270 0.04090 -0.05700
C 	C 	0.51690 0.68240 0.02680 -0.21600
H 	H 	0.51800 0.69600 0.99910 0.06600
C 	C 	0.55220 0.65850 0.04160 0.13900
H 	H 	0.57750 0.65570 0.02410 -0.06900
C 	C 	0.55060 0.63880 0.08220 -0.33200
C 	C 	0.51190 0.64490 0.10540 0.14000
H 	H 	0.50970 0.63180 0.13320 -0.08100
C 	C 	0.57460 0.56430 0.14210 -0.85400
H 	H 	0.55860 0.57810 0.16590 0.22500
H 	H 	0.59850 0.54690 0.15410 0.21400
H 	H 	0.55500 0.54550 0.12560 0.23700
C 	C 	0.62780 0.58130 0.06030 -0.84600
H 	H 	0.63950 0.60400 0.04130 0.21600
H 	H 	0.60820 0.56250 0.04360 0.23200
H 	H 	0.65170 0.56390 0.07210 0.21900
Si	Si	0.59709 0.60686 0.10576 0.67200
N 	N 	0.47790 0.33220 0.40880 -0.31200
C 	C 	0.48080 0.31360 0.44840 0.09600
H 	H 	0.45680 0.29730 0.45910 -0.05700
C 	C 	0.51690 0.31760 0.47320 -0.21600
H 	H 	0.51800 0.30400 0.50090 0.06600
C 	C 	0.55220 0.34150 0.45840 0.13900
H 	H 	0.57750 0.34430 0.47590 -0.06900
C 	C 	0.55060 0.36120 0.41780 -0.33200
C 	C 	0.51190 0.35510 0.39460 0.14000
H 	H 	0.50970 0.36820 0.36680 -0.08100
C 	C 	0.57460 0.43570 0.35790 -0.85400
H 	H 	0.55860 0.42190 0.33410 0.22500
H 	H 	0.59850 0.45310 0.34590 0.21400
H 	H 	0.55500 0.45450 0.37440 0.23700
C 	C 	0.62780 0.41870 0.43970 -0.84600
H 	H 	0.63950 0.39600 0.45870 0.21600
H 	H 	0.60820 0.43750 0.45640 0.23200
H 	H 	0.65170 0.43610 0.42790 0.21900
Si	Si	0.59709 0.39314 0.39424 0.67200
N 	N 	0.97790 0.83220 0.90880 -0.31200
C 	C 	0.98080 0.81360 0.94840 0.09600
H 	H 	0.95680 0.79730 0.95910 -0.05700
C 	C 	0.01690 0.81760 0.97320 -0.21600
H 	H 	0.01800 0.80400 0.00090 0.06600
C 	C 	0.05220 0.84150 0.95840 0.13900
H 	H 	0.07750 0.84430 0.97590 -0.06900
C 	C 	0.05060 0.86120 0.91780 -0.33200
C 	C 	0.01190 0.85510 0.89460 0.14000
H 	H 	0.00970 0.86820 0.86680 -0.08100
C 	C 	0.07460 0.93570 0.85790 -0.85400
H 	H 	0.05860 0.92190 0.83410 0.22500
H 	H 	0.09850 0.95310 0.84590 0.21400
H 	H 	0.05500 0.95450 0.87440 0.23700
C 	C 	0.12780 0.91870 0.93970 -0.84600
H 	H 	0.13950 0.89600 0.95870 0.21600
H 	H 	0.10820 0.93750 0.95640 0.23100
H 	H 	0.15170 0.93610 0.92790 0.21900
Si	Si	0.09709 0.89314 0.89424 0.67200
N 	N 	0.52210 0.83220 0.09120 -0.31200
C 	C 	0.51920 0.81360 0.05160 0.09600
H 	H 	0.54320 0.79730 0.04090 -0.05700
C 	C 	0.48310 0.81760 0.02680 -0.21600
H 	H 	0.48200 0.80400 0.99910 0.06600
C 	C 	0.44780 0.84150 0.04160 0.13900
H 	H 	0.42250 0.84430 0.02410 -0.06900
C 	C 	0.44940 0.86120 0.08220 -0.33200
C 	C 	0.48810 0.85510 0.10540 0.14000
H 	H 	0.49030 0.86820 0.13320 -0.08100
C 	C 	0.42540 0.93570 0.14210 -0.85400
H 	H 	0.44140 0.92190 0.16590 0.22500
H 	H 	0.40150 0.95310 0.15410 0.21400
H 	H 	0.44500 0.95450 0.12560 0.23700
C 	C 	0.37220 0.91870 0.06030 -0.84600
H 	H 	0.36050 0.89600 0.04130 0.21600
H 	H 	0.39180 0.93750 0.04360 0.23100
H 	H 	0.34830 0.93610 0.07210 0.21900
Si	Si	0.40291 0.89314 0.10576 0.67200
N 	N 	0.02210 0.33220 0.59120 -0.31200
C 	C 	0.01920 0.31360 0.55160 0.09600
H 	H 	0.04320 0.29730 0.54090 -0.05700
C 	C 	0.98310 0.31760 0.52680 -0.21600
H 	H 	0.98200 0.30400 0.49910 0.06600
C 	C 	0.94780 0.34150 0.54160 0.13900
H 	H 	0.92250 0.34430 0.52410 -0.06900
C 	C 	0.94940 0.36120 0.58220 -0.33200
C 	C 	0.98810 0.35510 0.60540 0.14000
H 	H 	0.99030 0.36820 0.63320 -0.08100
C 	C 	0.92540 0.43570 0.64210 -0.85400
H 	H 	0.94140 0.42190 0.66590 0.22500
H 	H 	0.90150 0.45310 0.65410 0.21400
H 	H 	0.94500 0.45450 0.62560 0.23700
C 	C 	0.87220 0.41870 0.56030 -0.84600
H 	H 	0.86050 0.39600 0.54130 0.21600
H 	H 	0.89180 0.43750 0.54360 0.23200
H 	H 	0.84830 0.43610 0.57210 0.21900
Si	Si	0.90291 0.39314 0.60576 0.67200
N 	N 	0.16780 0.59120 0.97790 -0.31200
C 	C 	0.18640 0.55160 0.98080 0.09600
H 	H 	0.20270 0.54090 0.95680 -0.05700
C 	C 	0.18240 0.52680 0.01690 -0.21600
H 	H 	0.19600 0.49910 0.01800 0.06600
C 	C 	0.15850 0.54160 0.05220 0.13900
H 	H 	0.15570 0.52410 0.07750 -0.06900
C 	C 	0.13880 0.58220 0.05060 -0.33200
C 	C 	0.14490 0.60540 0.01190 0.14000
H 	H 	0.13180 0.63320 0.00970 -0.08100
C 	C 	0.06430 0.64210 0.07460 -0.85400
H 	H 	0.07810 0.66590 0.05860 0.22500
H 	H 	0.04690 0.65410 0.09850 0.21400
H 	H 	0.04550 0.62560 0.05500 0.23700
C 	C 	0.08130 0.56030 0.12780 -0.84600
H 	H 	0.10400 0.54130 0.13950 0.21600
H 	H 	0.06250 0.54360 0.10820 0.23200
H 	H 	0.06390 0.57210 0.15170 0.21900
Si	Si	0.10686 0.60576 0.09709 0.67200
N 	N 	0.66780 0.09120 0.47790 -0.31200
C 	C 	0.68640 0.05160 0.48080 0.09600
H 	H 	0.70270 0.04090 0.45680 -0.05700
C 	C 	0.68240 0.02680 0.51690 -0.21600
H 	H 	0.69600 0.99910 0.51800 0.06600
C 	C 	0.65850 0.04160 0.55220 0.13900
H 	H 	0.65570 0.02410 0.57750 -0.06900
C 	C 	0.63880 0.08220 0.55060 -0.33200
C 	C 	0.64490 0.10540 0.51190 0.14000
H 	H 	0.63180 0.13320 0.50970 -0.08100
C 	C 	0.56430 0.14210 0.57460 -0.85400
H 	H 	0.57810 0.16590 0.55860 0.22500
H 	H 	0.54690 0.15410 0.59850 0.21400
H 	H 	0.54550 0.12560 0.55500 0.23700
C 	C 	0.58130 0.06030 0.62780 -0.84600
H 	H 	0.60400 0.04130 0.63950 0.21600
H 	H 	0.56250 0.04360 0.60820 0.23200
H 	H 	0.56390 0.07210 0.65170 0.21900
Si	Si	0.60686 0.10576 0.59709 0.67200
N 	N 	0.66780 0.90880 0.02210 -0.31200
C 	C 	0.68640 0.94840 0.01920 0.09600
H 	H 	0.70270 0.95910 0.04320 -0.05700
C 	C 	0.68240 0.97320 0.98310 -0.21600
H 	H 	0.69600 0.00090 0.98200 0.06600
C 	C 	0.65850 0.95840 0.94780 0.13900
H 	H 	0.65570 0.97590 0.92250 -0.06900
C 	C 	0.63880 0.91780 0.94940 -0.33200
C 	C 	0.64490 0.89460 0.98810 0.14000
H 	H 	0.63180 0.86680 0.99030 -0.08100
C 	C 	0.56430 0.85790 0.92540 -0.85400
H 	H 	0.57810 0.83410 0.94140 0.22500
H 	H 	0.54690 0.84590 0.90150 0.21400
H 	H 	0.54550 0.87440 0.94500 0.23700
C 	C 	0.58130 0.93970 0.87220 -0.84600
H 	H 	0.60400 0.95870 0.86050 0.21600
H 	H 	0.56250 0.95640 0.89180 0.23200
H 	H 	0.56390 0.92790 0.84830 0.21900
Si	Si	0.60686 0.89424 0.90291 0.67200
N 	N 	0.16780 0.40880 0.52210 -0.31200
C 	C 	0.18640 0.44840 0.51920 0.09600
H 	H 	0.20270 0.45910 0.54320 -0.05700
C 	C 	0.18240 0.47320 0.48310 -0.21600
H 	H 	0.19600 0.50090 0.48200 0.06600
C 	C 	0.15850 0.45840 0.44780 0.13900
H 	H 	0.15570 0.47590 0.42250 -0.06900
C 	C 	0.13880 0.41780 0.44940 -0.33200
C 	C 	0.14490 0.39460 0.48810 0.14000
H 	H 	0.13180 0.36680 0.49030 -0.08100
C 	C 	0.06430 0.35790 0.42540 -0.85400
H 	H 	0.07810 0.33410 0.44140 0.22500
H 	H 	0.04690 0.34590 0.40150 0.21400
H 	H 	0.04550 0.37440 0.44500 0.23700
C 	C 	0.08130 0.43970 0.37220 -0.84600
H 	H 	0.10400 0.45870 0.36050 0.21600
H 	H 	0.06250 0.45640 0.39180 0.23200
H 	H 	0.06390 0.42790 0.34830 0.21900
Si	Si	0.10686 0.39424 0.40291 0.67200
N 	N 	0.83220 0.09120 0.52210 -0.31200
C 	C 	0.81360 0.05160 0.51920 0.09600
H 	H 	0.79730 0.04090 0.54320 -0.05700
C 	C 	0.81760 0.02680 0.48310 -0.21600
H 	H 	0.80400 0.99910 0.48200 0.06600
C 	C 	0.84150 0.04160 0.44780 0.13900
H 	H 	0.84430 0.02410 0.42250 -0.06900
C 	C 	0.86120 0.08220 0.44940 -0.33200
C 	C 	0.85510 0.10540 0.48810 0.14000
H 	H 	0.86820 0.13320 0.49030 -0.08100
C 	C 	0.93570 0.14210 0.42540 -0.85400
H 	H 	0.92190 0.16590 0.44140 0.22500
H 	H 	0.95310 0.15410 0.40150 0.21400
H 	H 	0.95450 0.12560 0.44500 0.23700
C 	C 	0.91870 0.06030 0.37220 -0.84600
H 	H 	0.89600 0.04130 0.36050 0.21600
H 	H 	0.93750 0.04360 0.39180 0.23100
H 	H 	0.93610 0.07210 0.34830 0.21900
Si	Si	0.89314 0.10576 0.40291 0.67200
N 	N 	0.33220 0.59120 0.02210 -0.31200
C 	C 	0.31360 0.55160 0.01920 0.09600
H 	H 	0.29730 0.54090 0.04320 -0.05700
C 	C 	0.31760 0.52680 0.98310 -0.21600
H 	H 	0.30400 0.49910 0.98200 0.06600
C 	C 	0.34150 0.54160 0.94780 0.13900
H 	H 	0.34430 0.52410 0.92250 -0.06900
C 	C 	0.36120 0.58220 0.94940 -0.33200
C 	C 	0.35510 0.60540 0.98810 0.14000
H 	H 	0.36820 0.63320 0.99030 -0.08100
C 	C 	0.43570 0.64210 0.92540 -0.85400
H 	H 	0.42190 0.66590 0.94140 0.22500
H 	H 	0.45310 0.65410 0.90150 0.21400
H 	H 	0.45450 0.62560 0.94500 0.23700
C 	C 	0.41870 0.56030 0.87220 -0.84600
H 	H 	0.39600 0.54130 0.86050 0.21600
H 	H 	0.43750 0.54360 0.89180 0.23200
H 	H 	0.43610 0.57210 0.84830 0.21900
Si	Si	0.39314 0.60576 0.90291 0.67200
N 	N 	0.33220 0.40880 0.47790 -0.31200
C 	C 	0.31360 0.44840 0.48080 0.09600
H 	H 	0.29730 0.45910 0.45680 -0.05700
C 	C 	0.31760 0.47320 0.51690 -0.21600
H 	H 	0.30400 0.50090 0.51800 0.06600
C 	C 	0.34150 0.45840 0.55220 0.13900
H 	H 	0.34430 0.47590 0.57750 -0.06900
C 	C 	0.36120 0.41780 0.55060 -0.33200
C 	C 	0.35510 0.39460 0.51190 0.14000
H 	H 	0.36820 0.36680 0.50970 -0.08100
C 	C 	0.43570 0.35790 0.57460 -0.85400
H 	H 	0.42190 0.33410 0.55860 0.22500
H 	H 	0.45310 0.34590 0.59850 0.21400
H 	H 	0.45450 0.37440 0.55500 0.23700
C 	C 	0.41870 0.43970 0.62780 -0.84600
H 	H 	0.39600 0.45870 0.63950 0.21600
H 	H 	0.43750 0.45640 0.60820 0.23200
H 	H 	0.43610 0.42790 0.65170 0.21900
Si	Si	0.39314 0.39424 0.59709 0.67200
N 	N 	0.83220 0.90880 0.97790 -0.31200
C 	C 	0.81360 0.94840 0.98080 0.09600
H 	H 	0.79730 0.95910 0.95680 -0.05700
C 	C 	0.81760 0.97320 0.01690 -0.21600
H 	H 	0.80400 0.00090 0.01800 0.06600
C 	C 	0.84150 0.95840 0.05220 0.13900
H 	H 	0.84430 0.97590 0.07750 -0.06900
C 	C 	0.86120 0.91780 0.05060 -0.33200
C 	C 	0.85510 0.89460 0.01190 0.14000
H 	H 	0.86820 0.86680 0.00970 -0.08100
C 	C 	0.93570 0.85790 0.07460 -0.85400
H 	H 	0.92190 0.83410 0.05860 0.22500
H 	H 	0.95310 0.84590 0.09850 0.21400
H 	H 	0.95450 0.87440 0.05500 0.23700
C 	C 	0.91870 0.93970 0.12780 -0.84600
H 	H 	0.89600 0.95870 0.13950 0.21600
H 	H 	0.93750 0.95640 0.10820 0.23100
H 	H 	0.93610 0.92790 0.15170 0.21900
Si	Si	0.89314 0.89424 0.09709 0.67200
Zn	Zn	0.82854 0.87500 0.92146 1.19400
Zn	Zn	0.32854 0.37500 0.42146 1.19400
Zn	Zn	0.67146 0.12500 0.42146 1.19400
Zn	Zn	0.17146 0.37500 0.57854 1.19400
Zn	Zn	0.32854 0.62500 0.07854 1.19400
Zn	Zn	0.92146 0.82854 0.87500 1.19400
Zn	Zn	0.42146 0.32854 0.37500 1.19400
Zn	Zn	0.42146 0.67146 0.12500 1.19400
Zn	Zn	0.57854 0.17146 0.37500 1.19400
Zn	Zn	0.07854 0.32854 0.62500 1.19400
Zn	Zn	0.87500 0.92146 0.82854 1.19400
Zn	Zn	0.37500 0.42146 0.32854 1.19400
Zn	Zn	0.12500 0.42146 0.67146 1.19400
Zn	Zn	0.37500 0.57854 0.17146 1.19400
Zn	Zn	0.62500 0.07854 0.32854 1.19400
Zn	Zn	0.12500 0.57854 0.82854 1.19400
Zn	Zn	0.62500 0.92146 0.17146 1.19400
Zn	Zn	0.87500 0.07854 0.67146 1.19400
Zn	Zn	0.07854 0.67146 0.87500 1.19400
Zn	Zn	0.92146 0.17146 0.62500 1.19400
Zn	Zn	0.57854 0.82854 0.12500 1.19400
Zn	Zn	0.17146 0.62500 0.92146 1.19400
Zn	Zn	0.67146 0.87500 0.07854 1.19400
Zn	Zn	0.82854 0.12500 0.57854 1.19400
O 	O 	0.83336 0.91664 0.87500 -0.75000
H 	H 	0.81150 0.93850 0.87500 0.17600
O 	O 	0.33336 0.41664 0.37500 -0.75000
H 	H 	0.31150 0.43850 0.37500 0.17600
O 	O 	0.66664 0.08336 0.37500 -0.75000
H 	H 	0.68850 0.06150 0.37500 0.17600
O 	O 	0.16664 0.41664 0.62500 -0.75000
H 	H 	0.18850 0.43850 0.62500 0.17600
O 	O 	0.33336 0.58336 0.12500 -0.75000
H 	H 	0.31150 0.56150 0.12500 0.17600
O 	O 	0.87500 0.83336 0.91664 -0.75000
H 	H 	0.87500 0.81150 0.93850 0.17600
O 	O 	0.37500 0.33336 0.41664 -0.75000
H 	H 	0.37500 0.31150 0.43850 0.17600
O 	O 	0.37500 0.66664 0.08336 -0.75000
H 	H 	0.37500 0.68850 0.06150 0.17600
O 	O 	0.62500 0.16664 0.41664 -0.75000
H 	H 	0.62500 0.18850 0.43850 0.17600
O 	O 	0.12500 0.33336 0.58336 -0.75000
H 	H 	0.12500 0.31150 0.56150 0.17600
O 	O 	0.91664 0.87500 0.83336 -0.75000
H 	H 	0.93850 0.87500 0.81150 0.17600
O 	O 	0.41664 0.37500 0.33336 -0.75000
H 	H 	0.43850 0.37500 0.31150 0.17600
O 	O 	0.08336 0.37500 0.66664 -0.75000
H 	H 	0.06150 0.37500 0.68850 0.17600
O 	O 	0.41664 0.62500 0.16664 -0.75000
H 	H 	0.43850 0.62500 0.18850 0.17600
O 	O 	0.58336 0.12500 0.33336 -0.75000
H 	H 	0.56150 0.12500 0.31150 0.17600
O 	O 	0.16664 0.58336 0.87500 -0.75000
H 	H 	0.18850 0.56150 0.87500 0.17600
O 	O 	0.66664 0.91664 0.12500 -0.75000
H 	H 	0.68850 0.93850 0.12500 0.17600
O 	O 	0.83336 0.08336 0.62500 -0.75000
H 	H 	0.81150 0.06150 0.62500 0.17600
O 	O 	0.08336 0.62500 0.83336 -0.75000
H 	H 	0.06150 0.62500 0.81150 0.17600
O 	O 	0.91664 0.12500 0.66664 -0.75000
H 	H 	0.93850 0.12500 0.68850 0.17600
O 	O 	0.58336 0.87500 0.16664 -0.75000
H 	H 	0.56150 0.87500 0.18850 0.17600
O 	O 	0.12500 0.66664 0.91664 -0.75000
H 	H 	0.12500 0.68850 0.93850 0.17600
O 	O 	0.62500 0.83336 0.08336 -0.75000
H 	H 	0.62500 0.81150 0.06150 0.17600
O 	O 	0.87500 0.16664 0.58336 -0.75000
H 	H 	0.87500 0.18850 0.56150 0.17600
