data_crystal

_cell_length_a 9.61200
_cell_length_b 22.86800
_cell_length_c 10.15900
_cell_angle_alpha 90.00000
_cell_angle_beta  101.07000
_cell_angle_gamma 90.00000

_symmetry_space_group_name_	'P 1'
_symmetry_space_group_name_H-M	'P 1'

loop_
_symmetry_equiv_pos_as_xyz
  x,y,z

loop_
_atom_site_label
_atom_site_type_symbol
_atom_site_fract_x
_atom_site_fract_y
_atom_site_fract_z
_atom_site_charge
Pr	Pr	0.25589 0.27799 0.03749 2.02000
Pr	Pr	0.72041 0.43549 0.85034 2.06500
N 	N 	0.59720 0.41592 0.61390 -0.24000
N 	N 	0.53360 0.41630 0.39420 -0.18500
H 	H 	0.52871 0.42633 0.30980 0.15300
N 	N 	0.77130 0.50727 0.63590 -0.20600
O 	O 	0.06880 0.34065 0.09880 -0.43300
O 	O 	0.03910 0.29129 0.85520 -0.44000
O 	O 	0.85030 0.37878 0.04270 -0.39300
O 	O 	0.83900 0.34303 0.78620 -0.39800
O 	O 	0.59640 0.43569 0.04410 -0.39900
O 	O 	0.47110 0.48968 0.16420 -0.41800
O 	O 	0.37940 0.29746 0.68090 -0.54200
O 	O 	0.52210 0.36037 0.80910 -0.46600
O 	O 	0.28320 0.29676 0.37990 -0.55900
O 	O 	0.37560 0.34096 0.22050 -0.48900
O 	O 	0.17810 0.48027 0.00620 -0.41300
O 	O 	0.98040 0.45148 0.86480 -0.42000
C 	C 	0.45730 0.37187 0.44020 -0.02500
C 	C 	0.49820 0.37277 0.57850 -0.06800
C 	C 	0.61700 0.44153 0.50140 0.10200
C 	C 	0.71940 0.49003 0.50770 0.03500
C 	C 	0.75950 0.51474 0.39640 -0.09000
H 	H 	0.72272 0.50057 0.30869 0.07800
C 	C 	0.85620 0.56138 0.41680 0.01400
H 	H 	0.88592 0.57964 0.34290 0.02700
C 	C 	0.90770 0.58040 0.54700 -0.09700
H 	H 	0.97232 0.61219 0.56334 0.06000
C 	C 	0.86320 0.55219 0.65310 0.05700
H 	H 	0.89949 0.56530 0.74181 0.02100
C 	C 	0.52030 0.47822 0.05950 0.22700
C 	C 	0.04490 0.48019 0.96170 0.23300
C 	C 	0.46180 0.34007 0.69460 0.37000
C 	C 	0.36460 0.33369 0.34040 0.37900
C 	C 	0.95510 0.35014 0.01880 0.22600
C 	C 	0.94190 0.32556 0.87320 0.22000
Pr	Pr	0.74411 0.77799 0.46251 2.02000
Pr	Pr	0.27959 0.93549 0.64966 2.06400
N 	N 	0.40280 0.91592 0.88610 -0.24100
N 	N 	0.46640 0.91630 0.10580 -0.18500
H 	H 	0.47129 0.92633 0.19020 0.15300
N 	N 	0.22870 0.00727 0.86410 -0.20300
O 	O 	0.93120 0.84065 0.40120 -0.42900
O 	O 	0.96090 0.79129 0.64480 -0.44700
O 	O 	0.14970 0.87878 0.45730 -0.39300
O 	O 	0.16100 0.84303 0.71380 -0.40000
O 	O 	0.40360 0.93569 0.45590 -0.39900
O 	O 	0.52890 0.98968 0.33580 -0.41700
O 	O 	0.62060 0.79746 0.81910 -0.54400
O 	O 	0.47790 0.86037 0.69090 -0.46700
O 	O 	0.71680 0.79676 0.12010 -0.55600
O 	O 	0.62440 0.84096 0.27950 -0.48900
O 	O 	0.82190 0.98027 0.49380 -0.40900
O 	O 	0.01960 0.95148 0.63520 -0.41800
C 	C 	0.54270 0.87187 0.05980 -0.01900
C 	C 	0.50180 0.87277 0.92150 -0.07300
C 	C 	0.38300 0.94153 0.99860 0.10100
C 	C 	0.28060 0.99003 0.99230 0.03100
C 	C 	0.24050 0.01474 0.10360 -0.08400
H 	H 	0.27728 0.00057 0.19131 0.07500
C 	C 	0.14380 0.06138 0.08320 -0.00100
H 	H 	0.11408 0.07964 0.15710 0.03000
C 	C 	0.09230 0.08040 0.95300 -0.08100
H 	H 	0.02768 0.11219 0.93666 0.05800
C 	C 	0.13680 0.05219 0.84690 0.05200
H 	H 	0.10051 0.06530 0.75819 0.02400
C 	C 	0.47970 0.97822 0.44050 0.22600
C 	C 	0.95510 0.98019 0.53830 0.22800
C 	C 	0.53820 0.84007 0.80540 0.37100
C 	C 	0.63540 0.83369 0.15960 0.37700
C 	C 	0.04490 0.85014 0.48120 0.21800
C 	C 	0.05810 0.82556 0.62680 0.22600
Pr	Pr	0.74411 0.72201 0.96251 2.01900
Pr	Pr	0.27959 0.56451 0.14966 2.06400
N 	N 	0.40280 0.58408 0.38610 -0.24100
N 	N 	0.46640 0.58370 0.60580 -0.18600
H 	H 	0.47129 0.57367 0.69020 0.15200
N 	N 	0.22870 0.49273 0.36410 -0.20700
O 	O 	0.93120 0.65935 0.90120 -0.43400
O 	O 	0.96090 0.70871 0.14480 -0.44100
O 	O 	0.14970 0.62122 0.95730 -0.39400
O 	O 	0.16100 0.65697 0.21380 -0.39900
O 	O 	0.40360 0.56431 0.95590 -0.39900
O 	O 	0.52890 0.51032 0.83580 -0.41800
O 	O 	0.62060 0.70254 0.31910 -0.54200
O 	O 	0.47790 0.63963 0.19090 -0.46600
O 	O 	0.71680 0.70324 0.62010 -0.55900
O 	O 	0.62440 0.65904 0.77950 -0.48900
O 	O 	0.82190 0.51973 0.99380 -0.41300
O 	O 	0.01960 0.54852 0.13520 -0.42000
C 	C 	0.54270 0.62813 0.55980 -0.02500
C 	C 	0.50180 0.62723 0.42150 -0.06800
C 	C 	0.38300 0.55847 0.49860 0.10200
C 	C 	0.28060 0.50997 0.49230 0.03500
C 	C 	0.24050 0.48526 0.60360 -0.09000
H 	H 	0.27728 0.49943 0.69131 0.07800
C 	C 	0.14380 0.43862 0.58320 0.01400
H 	H 	0.11408 0.42036 0.65710 0.02700
C 	C 	0.09230 0.41960 0.45300 -0.09700
H 	H 	0.02768 0.38781 0.43666 0.06000
C 	C 	0.13680 0.44781 0.34690 0.05700
H 	H 	0.10051 0.43470 0.25819 0.02100
C 	C 	0.47970 0.52178 0.94050 0.22700
C 	C 	0.95510 0.51981 0.03830 0.23300
C 	C 	0.53820 0.65993 0.30540 0.37000
C 	C 	0.63540 0.66631 0.65960 0.37900
C 	C 	0.04490 0.64986 0.98120 0.22600
C 	C 	0.05810 0.67444 0.12680 0.22000
Pr	Pr	0.25589 0.22201 0.53749 2.02000
Pr	Pr	0.72041 0.06451 0.35034 2.06400
N 	N 	0.59720 0.08408 0.11390 -0.24100
N 	N 	0.53360 0.08370 0.89420 -0.18500
H 	H 	0.52871 0.07367 0.80980 0.15300
N 	N 	0.77130 0.99273 0.13590 -0.20300
O 	O 	0.06880 0.15935 0.59880 -0.42900
O 	O 	0.03910 0.20871 0.35520 -0.44700
O 	O 	0.85030 0.12122 0.54270 -0.39300
O 	O 	0.83900 0.15697 0.28620 -0.40000
O 	O 	0.59640 0.06431 0.54410 -0.39900
O 	O 	0.47110 0.01032 0.66420 -0.41700
O 	O 	0.37940 0.20254 0.18090 -0.54400
O 	O 	0.52210 0.13963 0.30910 -0.46700
O 	O 	0.28320 0.20324 0.87990 -0.55600
O 	O 	0.37560 0.15904 0.72050 -0.48900
O 	O 	0.17810 0.01973 0.50620 -0.40900
O 	O 	0.98040 0.04852 0.36480 -0.41800
C 	C 	0.45730 0.12813 0.94020 -0.01900
C 	C 	0.49820 0.12723 0.07850 -0.07300
C 	C 	0.61700 0.05847 0.00140 0.10100
C 	C 	0.71940 0.00997 0.00770 0.03100
C 	C 	0.75950 0.98526 0.89640 -0.08400
H 	H 	0.72272 0.99943 0.80869 0.07500
C 	C 	0.85620 0.93862 0.91680 -0.00100
H 	H 	0.88592 0.92036 0.84290 0.03000
C 	C 	0.90770 0.91960 0.04700 -0.08100
H 	H 	0.97232 0.88781 0.06334 0.05800
C 	C 	0.86320 0.94781 0.15310 0.05200
H 	H 	0.89949 0.93470 0.24181 0.02400
C 	C 	0.52030 0.02178 0.55950 0.22600
C 	C 	0.04490 0.01981 0.46170 0.22800
C 	C 	0.46180 0.15993 0.19460 0.37100
C 	C 	0.36460 0.16631 0.84040 0.37700
C 	C 	0.95510 0.14986 0.51880 0.21800
C 	C 	0.94190 0.17444 0.37320 0.22600
