data_crystal

_cell_length_a 10.20500
_cell_length_b 21.21500
_cell_length_c 7.86600
_cell_angle_alpha 90.00000
_cell_angle_beta  98.64200
_cell_angle_gamma 90.00000

_symmetry_space_group_name_	'P 1'
_symmetry_space_group_name_H-M	'P 1'

loop_
_symmetry_equiv_pos_as_xyz
  x,y,z

loop_
_atom_site_label
_atom_site_type_symbol
_atom_site_fract_x
_atom_site_fract_y
_atom_site_fract_z
_atom_site_charge
C 	C 	0.50000 0.12690 0.63490 0.64500
C 	C 	0.49910 0.06080 0.56980 -0.27300
C 	C 	0.61510 0.02990 0.55620 0.30500
C 	C 	0.38350 0.03020 0.50720 0.31400
C 	C 	0.08980 0.20830 0.72060 0.29500
C 	C 	0.13520 0.27050 0.71380 -0.25400
C 	C 	0.05200 0.31780 0.74860 0.32100
C 	C 	0.92930 0.30420 0.79300 0.29700
C 	C 	0.88500 0.24330 0.80490 -0.24100
C 	C 	0.96940 0.19500 0.76670 0.30100
C 	C 	0.75150 0.22800 0.85700 0.53400
C 	C 	0.26850 0.28370 0.65980 0.55100
O 	O 	0.74530 0.18970 0.96940 -0.42900
O 	O 	0.65060 0.25770 0.78300 -0.63400
O 	O 	0.51280 0.16960 0.52970 -0.54200
O 	O 	0.48840 0.13330 0.79140 -0.52000
O 	O 	0.37030 0.25950 0.74660 -0.64500
O 	O 	0.27550 0.31580 0.53390 -0.43800
F 	F 	0.26780 0.05870 0.51640 -0.32000
F 	F 	0.73090 0.05900 0.61270 -0.32500
F 	F 	0.93120 0.13520 0.77250 -0.31400
F 	F 	0.16460 0.16110 0.67640 -0.36000
F 	F 	0.85390 0.35210 0.83590 -0.35400
F 	F 	0.08920 0.37810 0.74260 -0.31900
Nd	Nd	0.50925 0.21527 0.00420 2.41400
C 	C 	0.50000 0.62690 0.86510 0.64600
C 	C 	0.50090 0.56080 0.93020 -0.27600
C 	C 	0.38490 0.52990 0.94380 0.30400
C 	C 	0.61650 0.53020 0.99280 0.31500
C 	C 	0.91020 0.70830 0.77940 0.29800
C 	C 	0.86480 0.77050 0.78620 -0.25800
C 	C 	0.94800 0.81780 0.75140 0.32400
C 	C 	0.07070 0.80420 0.70700 0.29100
C 	C 	0.11500 0.74330 0.69510 -0.24100
C 	C 	0.03060 0.69500 0.73330 0.29600
C 	C 	0.24850 0.72800 0.64300 0.53300
C 	C 	0.73150 0.78370 0.84020 0.55300
O 	O 	0.25470 0.68970 0.53060 -0.43500
O 	O 	0.34940 0.75770 0.71700 -0.63600
O 	O 	0.48720 0.66960 0.97030 -0.54300
O 	O 	0.51160 0.63330 0.70860 -0.52400
O 	O 	0.62970 0.75950 0.75340 -0.64800
O 	O 	0.72450 0.81580 0.96610 -0.44000
F 	F 	0.73220 0.55870 0.98360 -0.32000
F 	F 	0.26910 0.55900 0.88730 -0.32600
F 	F 	0.06880 0.63520 0.72750 -0.31500
F 	F 	0.83540 0.66110 0.82360 -0.36100
F 	F 	0.14610 0.85210 0.66410 -0.35600
F 	F 	0.91080 0.87810 0.75740 -0.32000
Nd	Nd	0.49075 0.71527 0.49580 2.43200
C 	C 	0.50000 0.87310 0.36510 0.64400
C 	C 	0.50090 0.93920 0.43020 -0.27400
C 	C 	0.38490 0.97010 0.44380 0.30400
C 	C 	0.61650 0.96980 0.49280 0.31300
C 	C 	0.91020 0.79170 0.27940 0.29500
C 	C 	0.86480 0.72950 0.28620 -0.25400
C 	C 	0.94800 0.68220 0.25140 0.32100
C 	C 	0.07070 0.69580 0.20700 0.29700
C 	C 	0.11500 0.75670 0.19510 -0.24100
C 	C 	0.03060 0.80500 0.23330 0.30100
C 	C 	0.24850 0.77200 0.14300 0.53400
C 	C 	0.73150 0.71630 0.34020 0.55100
O 	O 	0.25470 0.81030 0.03060 -0.42900
O 	O 	0.34940 0.74230 0.21700 -0.63400
O 	O 	0.48720 0.83040 0.47030 -0.54200
O 	O 	0.51160 0.86670 0.20860 -0.52000
O 	O 	0.62970 0.74050 0.25340 -0.64500
O 	O 	0.72450 0.68420 0.46610 -0.43800
F 	F 	0.73220 0.94130 0.48360 -0.32000
F 	F 	0.26910 0.94100 0.38730 -0.32500
F 	F 	0.06880 0.86480 0.22750 -0.31400
F 	F 	0.83540 0.83890 0.32360 -0.36000
F 	F 	0.14610 0.64790 0.16410 -0.35400
F 	F 	0.91080 0.62190 0.25740 -0.31900
Nd	Nd	0.49075 0.78473 0.99580 2.41400
C 	C 	0.50000 0.37310 0.13490 0.64600
C 	C 	0.49910 0.43920 0.06980 -0.27600
C 	C 	0.61510 0.47010 0.05620 0.30400
C 	C 	0.38350 0.46980 0.00720 0.31500
C 	C 	0.08980 0.29170 0.22060 0.29800
C 	C 	0.13520 0.22950 0.21380 -0.25800
C 	C 	0.05200 0.18220 0.24860 0.32400
C 	C 	0.92930 0.19580 0.29300 0.29100
C 	C 	0.88500 0.25670 0.30490 -0.24100
C 	C 	0.96940 0.30500 0.26670 0.29600
C 	C 	0.75150 0.27200 0.35700 0.53300
C 	C 	0.26850 0.21630 0.15980 0.55300
O 	O 	0.74530 0.31030 0.46940 -0.43500
O 	O 	0.65060 0.24230 0.28300 -0.63600
O 	O 	0.51280 0.33040 0.02970 -0.54300
O 	O 	0.48840 0.36670 0.29140 -0.52400
O 	O 	0.37030 0.24050 0.24660 -0.64800
O 	O 	0.27550 0.18420 0.03390 -0.44000
F 	F 	0.26780 0.44130 0.01640 -0.32000
F 	F 	0.73090 0.44100 0.11270 -0.32600
F 	F 	0.93120 0.36480 0.27250 -0.31500
F 	F 	0.16460 0.33890 0.17640 -0.36100
F 	F 	0.85390 0.14790 0.33590 -0.35600
F 	F 	0.08920 0.12190 0.24260 -0.32000
Nd	Nd	0.50925 0.28473 0.50420 2.43200
