data_crystal

_cell_length_a 22.09510
_cell_length_b 22.09510
_cell_length_c 13.08780
_cell_angle_alpha 90.00000
_cell_angle_beta  90.00000
_cell_angle_gamma 90.00000

_symmetry_space_group_name_	'P 1'
_symmetry_space_group_name_H-M	'P 1'

loop_
_symmetry_equiv_pos_as_xyz
  x,y,z

loop_
_atom_site_label
_atom_site_type_symbol
_atom_site_fract_x
_atom_site_fract_y
_atom_site_fract_z
_atom_site_charge
Mn	Mn	0.97941 0.77874 0.73248 1.26200
Cl	Cl	0.07201 0.72378 0.74276 -0.54700
Cl	Cl	0.87580 0.72827 0.75118 -0.48000
N 	N 	0.95981 0.78160 0.56573 -0.24000
N 	N 	0.90738 0.79817 0.42190 -0.12800
N 	N 	0.97950 0.13073 0.30061 -0.23900
N 	N 	0.91364 0.05931 0.34887 -0.13300
N 	N 	0.96469 0.81723 0.88748 -0.24300
N 	N 	0.91803 0.88548 0.98620 -0.12800
C 	C 	0.00056 0.78805 0.48400 0.05400
C 	C 	0.06351 0.78477 0.48270 -0.11100
H 	H 	0.08600 0.77810 0.54360 0.07100
C 	C 	0.09211 0.79152 0.38930 -0.01400
H 	H 	0.13500 0.78970 0.38610 0.04400
C 	C 	0.05889 0.80098 0.29940 -0.03500
H 	H 	0.07990 0.80500 0.23640 0.04900
C 	C 	0.99695 0.80462 0.29970 -0.07800
H 	H 	0.97470 0.81130 0.23860 0.05900
C 	C 	0.96807 0.79811 0.39340 0.05100
C 	C 	0.90578 0.78803 0.52430 0.06700
H 	H 	0.86920 0.78580 0.56240 0.01900
C 	C 	0.85404 0.80198 0.35420 0.01000
H 	H 	0.85560 0.76860 0.30390 0.02200
H 	H 	0.81690 0.79690 0.39560 0.01400
C 	C 	0.85097 0.86217 0.29750 -0.17600
C 	C 	0.84456 0.91583 0.35410 0.21800
C 	C 	0.83167 0.91340 0.46780 -0.58500
H 	H 	0.80590 0.94770 0.48700 0.19200
H 	H 	0.81090 0.87540 0.48420 0.20400
H 	H 	0.86990 0.91550 0.50570 0.20300
C 	C 	0.84995 0.97156 0.30360 -0.17000
C 	C 	0.85717 0.97408 0.19760 0.22300
C 	C 	0.86063 0.03467 0.14290 -0.58300
H 	H 	0.90310 0.04520 0.13080 0.20400
H 	H 	0.83930 0.03190 0.07730 0.20000
H 	H 	0.84170 0.06590 0.18520 0.20400
C 	C 	0.85990 0.92024 0.14080 -0.16400
C 	C 	0.85591 0.86413 0.19100 0.22000
C 	C 	0.85342 0.80607 0.12890 -0.57900
H 	H 	0.82920 0.77590 0.16540 0.18800
H 	H 	0.83490 0.81440 0.06230 0.20300
H 	H 	0.89450 0.79050 0.11890 0.19800
C 	C 	0.01097 0.07689 0.31990 0.03600
C 	C 	0.07244 0.06441 0.31260 -0.10000
H 	H 	0.10050 0.09460 0.29190 0.05500
C 	C 	0.09116 0.00657 0.33660 -0.03600
H 	H 	0.13290 0.99670 0.33140 0.04500
C 	C 	0.05042 0.96212 0.36850 -0.01200
H 	H 	0.06510 0.92300 0.38520 0.04600
C 	C 	0.98914 0.97390 0.37610 -0.09600
H 	H 	0.96130 0.94370 0.39780 0.06900
C 	C 	0.97012 0.03195 0.35050 0.06900
C 	C 	0.92282 0.11734 0.31860 0.08100
H 	H 	0.89090 0.14580 0.31110 0.00200
C 	C 	0.85454 0.02988 0.36630 0.00600
H 	H 	0.84990 0.02040 0.43980 0.02900
H 	H 	0.82160 0.05780 0.34640 0.02700
C 	C 	0.00722 0.84339 0.95440 0.05500
C 	C 	0.06873 0.83186 0.96490 -0.11900
H 	H 	0.08870 0.80250 0.92390 0.07300
C 	C 	0.09960 0.86508 0.03770 -0.01100
H 	H 	0.14160 0.85780 0.04730 0.04300
C 	C 	0.07105 0.90896 0.09750 -0.04800
H 	H 	0.09420 0.93130 0.14570 0.06000
C 	C 	0.00971 0.92051 0.08810 -0.07000
H 	H 	0.98990 0.94980 0.12930 0.05900
C 	C 	0.97869 0.88691 0.01520 0.04400
C 	C 	0.91345 0.84396 0.91050 0.05600
H 	H 	0.87640 0.83500 0.87710 0.02700
C 	C 	0.86806 0.92280 0.02540 0.00500
H 	H 	0.87520 0.96540 0.00520 0.02700
H 	H 	0.83000 0.90950 0.99250 0.03400
Mn	Mn	0.02059 0.22126 0.26752 1.26100
Cl	Cl	0.92799 0.27622 0.25724 -0.54800
Cl	Cl	0.12420 0.27173 0.24882 -0.48000
N 	N 	0.04019 0.21840 0.43427 -0.24000
N 	N 	0.09262 0.20183 0.57810 -0.12800
N 	N 	0.02050 0.86927 0.69939 -0.23900
N 	N 	0.08636 0.94069 0.65113 -0.13300
N 	N 	0.03531 0.18277 0.11252 -0.24300
N 	N 	0.08197 0.11452 0.01380 -0.12800
C 	C 	0.99944 0.21195 0.51600 0.05400
C 	C 	0.93649 0.21523 0.51730 -0.11100
H 	H 	0.91400 0.22190 0.45640 0.07100
C 	C 	0.90789 0.20848 0.61070 -0.01400
H 	H 	0.86500 0.21030 0.61390 0.04400
C 	C 	0.94111 0.19902 0.70060 -0.03500
H 	H 	0.92010 0.19500 0.76360 0.04900
C 	C 	0.00305 0.19538 0.70030 -0.07800
H 	H 	0.02530 0.18870 0.76140 0.05900
C 	C 	0.03193 0.20189 0.60660 0.05100
C 	C 	0.09422 0.21197 0.47570 0.06700
H 	H 	0.13080 0.21420 0.43760 0.01900
C 	C 	0.14596 0.19802 0.64580 0.01000
H 	H 	0.14440 0.23140 0.69610 0.02200
H 	H 	0.18310 0.20310 0.60440 0.01400
C 	C 	0.14903 0.13783 0.70250 -0.17600
C 	C 	0.15544 0.08417 0.64590 0.21800
C 	C 	0.16833 0.08660 0.53220 -0.58500
H 	H 	0.19410 0.05230 0.51300 0.19200
H 	H 	0.18910 0.12460 0.51580 0.20400
H 	H 	0.13010 0.08450 0.49430 0.20300
C 	C 	0.15005 0.02844 0.69640 -0.17000
C 	C 	0.14283 0.02592 0.80240 0.22300
C 	C 	0.13937 0.96533 0.85710 -0.58300
H 	H 	0.09690 0.95480 0.86920 0.20400
H 	H 	0.16070 0.96810 0.92270 0.20000
H 	H 	0.15830 0.93410 0.81480 0.20400
C 	C 	0.14010 0.07976 0.85920 -0.16400
C 	C 	0.14409 0.13587 0.80900 0.22000
C 	C 	0.14658 0.19393 0.87110 -0.57900
H 	H 	0.17080 0.22410 0.83460 0.18800
H 	H 	0.16510 0.18560 0.93770 0.20300
H 	H 	0.10550 0.20950 0.88110 0.19800
C 	C 	0.98903 0.92311 0.68010 0.03600
C 	C 	0.92756 0.93559 0.68740 -0.10000
H 	H 	0.89950 0.90540 0.70810 0.05500
C 	C 	0.90884 0.99343 0.66340 -0.03600
H 	H 	0.86710 0.00330 0.66860 0.04500
C 	C 	0.94958 0.03788 0.63150 -0.01200
H 	H 	0.93490 0.07700 0.61480 0.04600
C 	C 	0.01086 0.02610 0.62390 -0.09600
H 	H 	0.03870 0.05630 0.60220 0.06900
C 	C 	0.02988 0.96805 0.64950 0.06900
C 	C 	0.07718 0.88266 0.68140 0.08100
H 	H 	0.10910 0.85420 0.68890 0.00200
C 	C 	0.14546 0.97012 0.63370 0.00600
H 	H 	0.15010 0.97960 0.56020 0.02900
H 	H 	0.17840 0.94220 0.65360 0.02700
C 	C 	0.99278 0.15661 0.04560 0.05500
C 	C 	0.93127 0.16814 0.03510 -0.11900
H 	H 	0.91130 0.19750 0.07610 0.07300
C 	C 	0.90040 0.13492 0.96230 -0.01100
H 	H 	0.85840 0.14220 0.95270 0.04300
C 	C 	0.92895 0.09104 0.90250 -0.04800
H 	H 	0.90580 0.06870 0.85430 0.06000
C 	C 	0.99029 0.07949 0.91190 -0.07000
H 	H 	0.01010 0.05020 0.87070 0.05900
C 	C 	0.02131 0.11309 0.98480 0.04400
C 	C 	0.08655 0.15604 0.08950 0.05600
H 	H 	0.12360 0.16500 0.12290 0.02700
C 	C 	0.13194 0.07720 0.97460 0.00500
H 	H 	0.12480 0.03460 0.99480 0.02700
H 	H 	0.17000 0.09050 0.00750 0.03400
Mn	Mn	0.52059 0.72126 0.73248 1.26100
Cl	Cl	0.42799 0.77622 0.74276 -0.54900
Cl	Cl	0.62420 0.77173 0.75118 -0.48000
N 	N 	0.54019 0.71840 0.56573 -0.23900
N 	N 	0.59262 0.70183 0.42190 -0.12800
N 	N 	0.52050 0.36927 0.30061 -0.24200
N 	N 	0.58636 0.44069 0.34887 -0.13100
N 	N 	0.53531 0.68277 0.88748 -0.24100
N 	N 	0.58197 0.61452 0.98620 -0.12700
C 	C 	0.49944 0.71195 0.48400 0.05100
C 	C 	0.43649 0.71523 0.48270 -0.11000
H 	H 	0.41400 0.72190 0.54360 0.07100
C 	C 	0.40789 0.70848 0.38930 -0.01500
H 	H 	0.36500 0.71030 0.38610 0.04400
C 	C 	0.44111 0.69902 0.29940 -0.03600
H 	H 	0.42010 0.69500 0.23640 0.05000
C 	C 	0.50305 0.69538 0.29970 -0.07800
H 	H 	0.52530 0.68870 0.23860 0.05900
C 	C 	0.53193 0.70189 0.39340 0.05300
C 	C 	0.59422 0.71197 0.52430 0.06700
H 	H 	0.63080 0.71420 0.56240 0.01900
C 	C 	0.64596 0.69802 0.35420 0.01000
H 	H 	0.64440 0.73140 0.30390 0.02200
H 	H 	0.68310 0.70310 0.39560 0.01400
C 	C 	0.64903 0.63783 0.29750 -0.17600
C 	C 	0.65544 0.58417 0.35410 0.21700
C 	C 	0.66833 0.58660 0.46780 -0.58500
H 	H 	0.69410 0.55230 0.48700 0.19300
H 	H 	0.68910 0.62460 0.48420 0.20400
H 	H 	0.63010 0.58450 0.50570 0.20300
C 	C 	0.65005 0.52844 0.30360 -0.16900
C 	C 	0.64283 0.52592 0.19760 0.22300
C 	C 	0.63937 0.46533 0.14290 -0.58400
H 	H 	0.59690 0.45480 0.13080 0.20400
H 	H 	0.66070 0.46810 0.07730 0.20000
H 	H 	0.65830 0.43410 0.18520 0.20500
C 	C 	0.64010 0.57976 0.14080 -0.16300
C 	C 	0.64409 0.63587 0.19100 0.21900
C 	C 	0.64658 0.69393 0.12890 -0.57800
H 	H 	0.67080 0.72410 0.16540 0.18800
H 	H 	0.66510 0.68560 0.06230 0.20300
H 	H 	0.60550 0.70950 0.11890 0.19800
C 	C 	0.48903 0.42311 0.31990 0.04800
C 	C 	0.42756 0.43559 0.31260 -0.11500
H 	H 	0.39950 0.40540 0.29190 0.06000
C 	C 	0.40884 0.49343 0.33660 -0.01400
H 	H 	0.36710 0.50330 0.33140 0.03600
C 	C 	0.44958 0.53788 0.36850 -0.03300
H 	H 	0.43490 0.57700 0.38520 0.05300
C 	C 	0.51086 0.52610 0.37610 -0.07800
H 	H 	0.53870 0.55630 0.39780 0.06300
C 	C 	0.52988 0.46805 0.35050 0.05600
C 	C 	0.57718 0.38266 0.31860 0.08100
H 	H 	0.60910 0.35420 0.31110 0.00200
C 	C 	0.64546 0.47012 0.36630 0.00400
H 	H 	0.65010 0.47960 0.43980 0.02900
H 	H 	0.67840 0.44220 0.34640 0.02800
C 	C 	0.49278 0.65661 0.95440 0.05000
C 	C 	0.43127 0.66814 0.96490 -0.11500
H 	H 	0.41130 0.69750 0.92390 0.07200
C 	C 	0.40040 0.63492 0.03770 -0.01400
H 	H 	0.35840 0.64220 0.04730 0.04400
C 	C 	0.42895 0.59104 0.09750 -0.04400
H 	H 	0.40580 0.56870 0.14570 0.05800
C 	C 	0.49029 0.57949 0.08810 -0.07700
H 	H 	0.51010 0.55020 0.12930 0.06200
C 	C 	0.52131 0.61309 0.01520 0.04800
C 	C 	0.58655 0.65604 0.91050 0.05600
H 	H 	0.62360 0.66500 0.87710 0.02700
C 	C 	0.63194 0.57720 0.02540 0.00200
H 	H 	0.62480 0.53460 0.00520 0.02800
H 	H 	0.67000 0.59050 0.99250 0.03500
Mn	Mn	0.47941 0.27874 0.26752 1.26100
Cl	Cl	0.57201 0.22378 0.25724 -0.54900
Cl	Cl	0.37580 0.22827 0.24882 -0.48000
N 	N 	0.45981 0.28160 0.43427 -0.23900
N 	N 	0.40738 0.29817 0.57810 -0.12800
N 	N 	0.47950 0.63073 0.69939 -0.24200
N 	N 	0.41364 0.55931 0.65113 -0.13100
N 	N 	0.46469 0.31723 0.11252 -0.24100
N 	N 	0.41803 0.38548 0.01380 -0.12700
C 	C 	0.50056 0.28805 0.51600 0.05100
C 	C 	0.56351 0.28477 0.51730 -0.11000
H 	H 	0.58600 0.27810 0.45640 0.07100
C 	C 	0.59211 0.29152 0.61070 -0.01500
H 	H 	0.63500 0.28970 0.61390 0.04400
C 	C 	0.55889 0.30098 0.70060 -0.03600
H 	H 	0.57990 0.30500 0.76360 0.05000
C 	C 	0.49695 0.30462 0.70030 -0.07800
H 	H 	0.47470 0.31130 0.76140 0.05900
C 	C 	0.46807 0.29811 0.60660 0.05300
C 	C 	0.40578 0.28803 0.47570 0.06700
H 	H 	0.36920 0.28580 0.43760 0.01900
C 	C 	0.35404 0.30198 0.64580 0.01000
H 	H 	0.35560 0.26860 0.69610 0.02200
H 	H 	0.31690 0.29690 0.60440 0.01400
C 	C 	0.35097 0.36217 0.70250 -0.17600
C 	C 	0.34456 0.41583 0.64590 0.21700
C 	C 	0.33167 0.41340 0.53220 -0.58500
H 	H 	0.30590 0.44770 0.51300 0.19300
H 	H 	0.31090 0.37540 0.51580 0.20400
H 	H 	0.36990 0.41550 0.49430 0.20300
C 	C 	0.34995 0.47156 0.69640 -0.16900
C 	C 	0.35717 0.47408 0.80240 0.22300
C 	C 	0.36063 0.53467 0.85710 -0.58400
H 	H 	0.40310 0.54520 0.86920 0.20400
H 	H 	0.33930 0.53190 0.92270 0.20000
H 	H 	0.34170 0.56590 0.81480 0.20500
C 	C 	0.35990 0.42024 0.85920 -0.16300
C 	C 	0.35591 0.36413 0.80900 0.21900
C 	C 	0.35342 0.30607 0.87110 -0.57800
H 	H 	0.32920 0.27590 0.83460 0.18800
H 	H 	0.33490 0.31440 0.93770 0.20300
H 	H 	0.39450 0.29050 0.88110 0.19800
C 	C 	0.51097 0.57689 0.68010 0.04800
C 	C 	0.57244 0.56441 0.68740 -0.11500
H 	H 	0.60050 0.59460 0.70810 0.06000
C 	C 	0.59116 0.50657 0.66340 -0.01400
H 	H 	0.63290 0.49670 0.66860 0.03600
C 	C 	0.55042 0.46212 0.63150 -0.03300
H 	H 	0.56510 0.42300 0.61480 0.05300
C 	C 	0.48914 0.47390 0.62390 -0.07800
H 	H 	0.46130 0.44370 0.60220 0.06300
C 	C 	0.47012 0.53195 0.64950 0.05600
C 	C 	0.42282 0.61734 0.68140 0.08100
H 	H 	0.39090 0.64580 0.68890 0.00200
C 	C 	0.35454 0.52988 0.63370 0.00400
H 	H 	0.34990 0.52040 0.56020 0.02900
H 	H 	0.32160 0.55780 0.65360 0.02800
C 	C 	0.50722 0.34339 0.04560 0.05000
C 	C 	0.56873 0.33186 0.03510 -0.11500
H 	H 	0.58870 0.30250 0.07610 0.07200
C 	C 	0.59960 0.36508 0.96230 -0.01400
H 	H 	0.64160 0.35780 0.95270 0.04400
C 	C 	0.57105 0.40896 0.90250 -0.04400
H 	H 	0.59420 0.43130 0.85430 0.05800
C 	C 	0.50971 0.42051 0.91190 -0.07700
H 	H 	0.48990 0.44980 0.87070 0.06200
C 	C 	0.47869 0.38691 0.98480 0.04800
C 	C 	0.41345 0.34396 0.08950 0.05600
H 	H 	0.37640 0.33500 0.12290 0.02700
C 	C 	0.36806 0.42280 0.97460 0.00200
H 	H 	0.37520 0.46540 0.99480 0.02800
H 	H 	0.33000 0.40950 0.00750 0.03500
Mn	Mn	0.22126 0.47941 0.23248 1.26100
Cl	Cl	0.27622 0.57201 0.24276 -0.54900
Cl	Cl	0.27173 0.37580 0.25118 -0.47900
N 	N 	0.21840 0.45981 0.06573 -0.23900
N 	N 	0.20183 0.40738 0.92190 -0.12800
N 	N 	0.86927 0.47950 0.80061 -0.24200
N 	N 	0.94069 0.41364 0.84887 -0.13100
N 	N 	0.18277 0.46469 0.38748 -0.24100
N 	N 	0.11452 0.41803 0.48620 -0.12600
C 	C 	0.21195 0.50056 0.98400 0.05100
C 	C 	0.21523 0.56351 0.98270 -0.10900
H 	H 	0.22190 0.58600 0.04360 0.07000
C 	C 	0.20848 0.59211 0.88930 -0.01500
H 	H 	0.21030 0.63500 0.88610 0.04500
C 	C 	0.19902 0.55889 0.79940 -0.03600
H 	H 	0.19500 0.57990 0.73640 0.04900
C 	C 	0.19538 0.49695 0.79970 -0.07800
H 	H 	0.18870 0.47470 0.73860 0.05900
C 	C 	0.20189 0.46807 0.89340 0.05300
C 	C 	0.21197 0.40578 0.02430 0.06600
H 	H 	0.21420 0.36920 0.06240 0.01900
C 	C 	0.19802 0.35404 0.85420 0.00900
H 	H 	0.23140 0.35560 0.80390 0.02200
H 	H 	0.20310 0.31690 0.89560 0.01500
C 	C 	0.13783 0.35097 0.79750 -0.17500
C 	C 	0.08417 0.34456 0.85410 0.21600
C 	C 	0.08660 0.33167 0.96780 -0.58100
H 	H 	0.05230 0.30590 0.98700 0.19200
H 	H 	0.12460 0.31090 0.98420 0.20300
H 	H 	0.08450 0.36990 0.00570 0.20100
C 	C 	0.02844 0.34995 0.80360 -0.16800
C 	C 	0.02592 0.35717 0.69760 0.22200
C 	C 	0.96533 0.36063 0.64290 -0.58300
H 	H 	0.95480 0.40310 0.63080 0.20300
H 	H 	0.96810 0.33930 0.57730 0.20000
H 	H 	0.93410 0.34170 0.68520 0.20400
C 	C 	0.07976 0.35990 0.64080 -0.16300
C 	C 	0.13587 0.35591 0.69100 0.21800
C 	C 	0.19393 0.35342 0.62890 -0.57800
H 	H 	0.22410 0.32920 0.66540 0.18800
H 	H 	0.18560 0.33490 0.56230 0.20300
H 	H 	0.20950 0.39450 0.61890 0.19800
C 	C 	0.92311 0.51097 0.81990 0.04700
C 	C 	0.93559 0.57244 0.81260 -0.11200
H 	H 	0.90540 0.60050 0.79190 0.05900
C 	C 	0.99343 0.59116 0.83660 -0.02000
H 	H 	0.00330 0.63290 0.83140 0.03900
C 	C 	0.03788 0.55042 0.86850 -0.02900
H 	H 	0.07700 0.56510 0.88520 0.05100
C 	C 	0.02610 0.48914 0.87610 -0.07900
H 	H 	0.05630 0.46130 0.89780 0.06400
C 	C 	0.96805 0.47012 0.85050 0.05600
C 	C 	0.88266 0.42282 0.81860 0.08100
H 	H 	0.85420 0.39090 0.81110 0.00200
C 	C 	0.97012 0.35454 0.86630 0.00400
H 	H 	0.97960 0.34990 0.93980 0.02900
H 	H 	0.94220 0.32160 0.84640 0.02800
C 	C 	0.15661 0.50722 0.45440 0.05000
C 	C 	0.16814 0.56873 0.46490 -0.11500
H 	H 	0.19750 0.58870 0.42390 0.07200
C 	C 	0.13492 0.59960 0.53770 -0.01400
H 	H 	0.14220 0.64160 0.54730 0.04400
C 	C 	0.09104 0.57105 0.59750 -0.04400
H 	H 	0.06870 0.59420 0.64570 0.05900
C 	C 	0.07949 0.50971 0.58810 -0.07600
H 	H 	0.05020 0.48990 0.62930 0.06200
C 	C 	0.11309 0.47869 0.51520 0.04700
C 	C 	0.15604 0.41345 0.41050 0.05600
H 	H 	0.16500 0.37640 0.37710 0.02700
C 	C 	0.07720 0.36806 0.52540 0.00100
H 	H 	0.03460 0.37520 0.50520 0.02800
H 	H 	0.09050 0.33000 0.49250 0.03600
Mn	Mn	0.77874 0.52059 0.76752 1.26100
Cl	Cl	0.72378 0.42799 0.75724 -0.54900
Cl	Cl	0.72827 0.62420 0.74882 -0.47900
N 	N 	0.78160 0.54019 0.93427 -0.23900
N 	N 	0.79817 0.59262 0.07810 -0.12800
N 	N 	0.13073 0.52050 0.19939 -0.24200
N 	N 	0.05931 0.58636 0.15113 -0.13100
N 	N 	0.81723 0.53531 0.61252 -0.24100
N 	N 	0.88548 0.58197 0.51380 -0.12600
C 	C 	0.78805 0.49944 0.01600 0.05100
C 	C 	0.78477 0.43649 0.01730 -0.10900
H 	H 	0.77810 0.41400 0.95640 0.07000
C 	C 	0.79152 0.40789 0.11070 -0.01500
H 	H 	0.78970 0.36500 0.11390 0.04500
C 	C 	0.80098 0.44111 0.20060 -0.03600
H 	H 	0.80500 0.42010 0.26360 0.04900
C 	C 	0.80462 0.50305 0.20030 -0.07800
H 	H 	0.81130 0.52530 0.26140 0.05900
C 	C 	0.79811 0.53193 0.10660 0.05300
C 	C 	0.78803 0.59422 0.97570 0.06600
H 	H 	0.78580 0.63080 0.93760 0.01900
C 	C 	0.80198 0.64596 0.14580 0.00900
H 	H 	0.76860 0.64440 0.19610 0.02200
H 	H 	0.79690 0.68310 0.10440 0.01500
C 	C 	0.86217 0.64903 0.20250 -0.17500
C 	C 	0.91583 0.65544 0.14590 0.21600
C 	C 	0.91340 0.66833 0.03220 -0.58100
H 	H 	0.94770 0.69410 0.01300 0.19200
H 	H 	0.87540 0.68910 0.01580 0.20300
H 	H 	0.91550 0.63010 0.99430 0.20100
C 	C 	0.97156 0.65005 0.19640 -0.16800
C 	C 	0.97408 0.64283 0.30240 0.22200
C 	C 	0.03467 0.63937 0.35710 -0.58300
H 	H 	0.04520 0.59690 0.36920 0.20300
H 	H 	0.03190 0.66070 0.42270 0.20000
H 	H 	0.06590 0.65830 0.31480 0.20400
C 	C 	0.92024 0.64010 0.35920 -0.16300
C 	C 	0.86413 0.64409 0.30900 0.21800
C 	C 	0.80607 0.64658 0.37110 -0.57800
H 	H 	0.77590 0.67080 0.33460 0.18800
H 	H 	0.81440 0.66510 0.43770 0.20300
H 	H 	0.79050 0.60550 0.38110 0.19800
C 	C 	0.07689 0.48903 0.18010 0.04700
C 	C 	0.06441 0.42756 0.18740 -0.11200
H 	H 	0.09460 0.39950 0.20810 0.05900
C 	C 	0.00657 0.40884 0.16340 -0.02000
H 	H 	0.99670 0.36710 0.16860 0.03900
C 	C 	0.96212 0.44958 0.13150 -0.02900
H 	H 	0.92300 0.43490 0.11480 0.05100
C 	C 	0.97390 0.51086 0.12390 -0.07900
H 	H 	0.94370 0.53870 0.10220 0.06400
C 	C 	0.03195 0.52988 0.14950 0.05600
C 	C 	0.11734 0.57718 0.18140 0.08100
H 	H 	0.14580 0.60910 0.18890 0.00200
C 	C 	0.02988 0.64546 0.13370 0.00400
H 	H 	0.02040 0.65010 0.06020 0.02900
H 	H 	0.05780 0.67840 0.15360 0.02800
C 	C 	0.84339 0.49278 0.54560 0.05000
C 	C 	0.83186 0.43127 0.53510 -0.11500
H 	H 	0.80250 0.41130 0.57610 0.07200
C 	C 	0.86508 0.40040 0.46230 -0.01400
H 	H 	0.85780 0.35840 0.45270 0.04400
C 	C 	0.90896 0.42895 0.40250 -0.04400
H 	H 	0.93130 0.40580 0.35430 0.05900
C 	C 	0.92051 0.49029 0.41190 -0.07600
H 	H 	0.94980 0.51010 0.37070 0.06200
C 	C 	0.88691 0.52131 0.48480 0.04700
C 	C 	0.84396 0.58655 0.58950 0.05600
H 	H 	0.83500 0.62360 0.62290 0.02700
C 	C 	0.92280 0.63194 0.47460 0.00100
H 	H 	0.96540 0.62480 0.49480 0.02800
H 	H 	0.90950 0.67000 0.50750 0.03600
Mn	Mn	0.27874 0.02059 0.23248 1.26100
Cl	Cl	0.22378 0.92799 0.24276 -0.54800
Cl	Cl	0.22827 0.12420 0.25118 -0.48000
N 	N 	0.28160 0.04019 0.06573 -0.24000
N 	N 	0.29817 0.09262 0.92190 -0.12800
N 	N 	0.63073 0.02050 0.80061 -0.24100
N 	N 	0.55931 0.08636 0.84887 -0.13100
N 	N 	0.31723 0.03531 0.38748 -0.24100
N 	N 	0.38548 0.08197 0.48620 -0.12600
C 	C 	0.28805 0.99944 0.98400 0.05300
C 	C 	0.28477 0.93649 0.98270 -0.11200
H 	H 	0.27810 0.91400 0.04360 0.07200
C 	C 	0.29152 0.90789 0.88930 -0.01400
H 	H 	0.28970 0.86500 0.88610 0.04400
C 	C 	0.30098 0.94111 0.79940 -0.03700
H 	H 	0.30500 0.92010 0.73640 0.05000
C 	C 	0.30462 0.00305 0.79970 -0.07700
H 	H 	0.31130 0.02530 0.73860 0.05900
C 	C 	0.29811 0.03193 0.89340 0.05200
C 	C 	0.28803 0.09422 0.02430 0.06600
H 	H 	0.28580 0.13080 0.06240 0.01900
C 	C 	0.30198 0.14596 0.85420 0.00900
H 	H 	0.26860 0.14440 0.80390 0.02200
H 	H 	0.29690 0.18310 0.89560 0.01500
C 	C 	0.36217 0.14903 0.79750 -0.17500
C 	C 	0.41583 0.15544 0.85410 0.21600
C 	C 	0.41340 0.16833 0.96780 -0.58200
H 	H 	0.44770 0.19410 0.98700 0.19200
H 	H 	0.37540 0.18910 0.98420 0.20300
H 	H 	0.41550 0.13010 0.00570 0.20200
C 	C 	0.47156 0.15005 0.80360 -0.16800
C 	C 	0.47408 0.14283 0.69760 0.22200
C 	C 	0.53467 0.13937 0.64290 -0.58300
H 	H 	0.54520 0.09690 0.63080 0.20300
H 	H 	0.53190 0.16070 0.57730 0.20000
H 	H 	0.56590 0.15830 0.68520 0.20400
C 	C 	0.42024 0.14010 0.64080 -0.16300
C 	C 	0.36413 0.14409 0.69100 0.21800
C 	C 	0.30607 0.14658 0.62890 -0.57800
H 	H 	0.27590 0.17080 0.66540 0.18800
H 	H 	0.31440 0.16510 0.56230 0.20300
H 	H 	0.29050 0.10550 0.61890 0.19800
C 	C 	0.57689 0.98903 0.81990 0.04600
C 	C 	0.56441 0.92756 0.81260 -0.11400
H 	H 	0.59460 0.89950 0.79190 0.06000
C 	C 	0.50657 0.90884 0.83660 -0.01400
H 	H 	0.49670 0.86710 0.83140 0.03600
C 	C 	0.46212 0.94958 0.86850 -0.03400
H 	H 	0.42300 0.93490 0.88520 0.05300
C 	C 	0.47390 0.01086 0.87610 -0.07700
H 	H 	0.44370 0.03870 0.89780 0.06300
C 	C 	0.53195 0.02988 0.85050 0.05700
C 	C 	0.61734 0.07718 0.81860 0.08100
H 	H 	0.64580 0.10910 0.81110 0.00200
C 	C 	0.52988 0.14546 0.86630 0.00400
H 	H 	0.52040 0.15010 0.93980 0.02900
H 	H 	0.55780 0.17840 0.84640 0.02800
C 	C 	0.34339 0.99278 0.45440 0.05200
C 	C 	0.33186 0.93127 0.46490 -0.11700
H 	H 	0.30250 0.91130 0.42390 0.07300
C 	C 	0.36508 0.90040 0.53770 -0.01300
H 	H 	0.35780 0.85840 0.54730 0.04400
C 	C 	0.40896 0.92895 0.59750 -0.04500
H 	H 	0.43130 0.90580 0.64570 0.05900
C 	C 	0.42051 0.99029 0.58810 -0.07400
H 	H 	0.44980 0.01010 0.62930 0.06100
C 	C 	0.38691 0.02131 0.51520 0.04500
C 	C 	0.34396 0.08655 0.41050 0.05600
H 	H 	0.33500 0.12360 0.37710 0.02700
C 	C 	0.42280 0.13194 0.52540 0.00100
H 	H 	0.46540 0.12480 0.50520 0.02900
H 	H 	0.40950 0.17000 0.49250 0.03600
Mn	Mn	0.72126 0.97941 0.76752 1.26100
Cl	Cl	0.77622 0.07201 0.75724 -0.54800
Cl	Cl	0.77173 0.87580 0.74882 -0.48000
N 	N 	0.71840 0.95981 0.93427 -0.24000
N 	N 	0.70183 0.90738 0.07810 -0.12800
N 	N 	0.36927 0.97950 0.19939 -0.24100
N 	N 	0.44069 0.91364 0.15113 -0.13100
N 	N 	0.68277 0.96469 0.61252 -0.24100
N 	N 	0.61452 0.91803 0.51380 -0.12600
C 	C 	0.71195 0.00056 0.01600 0.05300
C 	C 	0.71523 0.06351 0.01730 -0.11200
H 	H 	0.72190 0.08600 0.95640 0.07200
C 	C 	0.70848 0.09211 0.11070 -0.01400
H 	H 	0.71030 0.13500 0.11390 0.04400
C 	C 	0.69902 0.05889 0.20060 -0.03700
H 	H 	0.69500 0.07990 0.26360 0.05000
C 	C 	0.69538 0.99695 0.20030 -0.07700
H 	H 	0.68870 0.97470 0.26140 0.05900
C 	C 	0.70189 0.96807 0.10660 0.05200
C 	C 	0.71197 0.90578 0.97570 0.06600
H 	H 	0.71420 0.86920 0.93760 0.01900
C 	C 	0.69802 0.85404 0.14580 0.00900
H 	H 	0.73140 0.85560 0.19610 0.02200
H 	H 	0.70310 0.81690 0.10440 0.01500
C 	C 	0.63783 0.85097 0.20250 -0.17500
C 	C 	0.58417 0.84456 0.14590 0.21600
C 	C 	0.58660 0.83167 0.03220 -0.58200
H 	H 	0.55230 0.80590 0.01300 0.19200
H 	H 	0.62460 0.81090 0.01580 0.20300
H 	H 	0.58450 0.86990 0.99430 0.20200
C 	C 	0.52844 0.84995 0.19640 -0.16800
C 	C 	0.52592 0.85717 0.30240 0.22200
C 	C 	0.46533 0.86063 0.35710 -0.58300
H 	H 	0.45480 0.90310 0.36920 0.20300
H 	H 	0.46810 0.83930 0.42270 0.20000
H 	H 	0.43410 0.84170 0.31480 0.20400
C 	C 	0.57976 0.85990 0.35920 -0.16300
C 	C 	0.63587 0.85591 0.30900 0.21800
C 	C 	0.69393 0.85342 0.37110 -0.57800
H 	H 	0.72410 0.82920 0.33460 0.18800
H 	H 	0.68560 0.83490 0.43770 0.20300
H 	H 	0.70950 0.89450 0.38110 0.19800
C 	C 	0.42311 0.01097 0.18010 0.04600
C 	C 	0.43559 0.07244 0.18740 -0.11400
H 	H 	0.40540 0.10050 0.20810 0.06000
C 	C 	0.49343 0.09116 0.16340 -0.01400
H 	H 	0.50330 0.13290 0.16860 0.03600
C 	C 	0.53788 0.05042 0.13150 -0.03400
H 	H 	0.57700 0.06510 0.11480 0.05300
C 	C 	0.52610 0.98914 0.12390 -0.07700
H 	H 	0.55630 0.96130 0.10220 0.06300
C 	C 	0.46805 0.97012 0.14950 0.05700
C 	C 	0.38266 0.92282 0.18140 0.08100
H 	H 	0.35420 0.89090 0.18890 0.00200
C 	C 	0.47012 0.85454 0.13370 0.00400
H 	H 	0.47960 0.84990 0.06020 0.02900
H 	H 	0.44220 0.82160 0.15360 0.02800
C 	C 	0.65661 0.00722 0.54560 0.05200
C 	C 	0.66814 0.06873 0.53510 -0.11700
H 	H 	0.69750 0.08870 0.57610 0.07300
C 	C 	0.63492 0.09960 0.46230 -0.01300
H 	H 	0.64220 0.14160 0.45270 0.04400
C 	C 	0.59104 0.07105 0.40250 -0.04500
H 	H 	0.56870 0.09420 0.35430 0.05900
C 	C 	0.57949 0.00971 0.41190 -0.07400
H 	H 	0.55020 0.98990 0.37070 0.06100
C 	C 	0.61309 0.97869 0.48480 0.04500
C 	C 	0.65604 0.91345 0.58950 0.05600
H 	H 	0.66500 0.87640 0.62290 0.02700
C 	C 	0.57720 0.86806 0.47460 0.00100
H 	H 	0.53460 0.87520 0.49480 0.02900
H 	H 	0.59050 0.83000 0.50750 0.03600
