data_crystal

_cell_length_a 14.94360
_cell_length_b 28.44610
_cell_length_c 10.74070
_cell_angle_alpha 90.00000
_cell_angle_beta  90.00000
_cell_angle_gamma 90.00000

_symmetry_space_group_name_	'P 1'
_symmetry_space_group_name_H-M	'P 1'

loop_
_symmetry_equiv_pos_as_xyz
  x,y,z

loop_
_atom_site_label
_atom_site_type_symbol
_atom_site_fract_x
_atom_site_fract_y
_atom_site_fract_z
_atom_site_charge
O 	O 	0.90970 0.43484 0.49240 -0.36000
O 	O 	0.90730 0.49051 0.34800 -0.37100
C 	C 	0.81300 0.42550 0.32070 -0.06600
C 	C 	0.88270 0.45260 0.39150 0.35900
C 	C 	0.69560 0.27500 0.33060 0.08000
C 	C 	0.81150 0.37700 0.32220 -0.04900
H 	H 	0.85280 0.36040 0.37310 0.07300
C 	C 	0.63500 0.30170 0.41990 -0.44200
H 	H 	0.57790 0.30850 0.37880 0.14600
H 	H 	0.66380 0.33120 0.44410 0.16000
H 	H 	0.62430 0.28250 0.49420 0.14200
O 	O 	0.40970 0.93484 0.99240 -0.41400
O 	O 	0.40730 0.99051 0.84800 -0.42400
C 	C 	0.31300 0.92550 0.82070 -0.09700
C 	C 	0.38270 0.95260 0.89150 0.37300
C 	C 	0.19560 0.77500 0.83060 0.05600
C 	C 	0.31150 0.87700 0.82220 -0.03300
H 	H 	0.35280 0.86040 0.87310 0.05000
C 	C 	0.13500 0.80170 0.91990 -0.38000
H 	H 	0.07790 0.80850 0.87880 0.09600
H 	H 	0.16380 0.83120 0.94410 0.13000
H 	H 	0.12430 0.78250 0.99420 0.10600
O 	O 	0.09030 0.06516 0.49240 -0.44000
O 	O 	0.09270 0.00949 0.34800 -0.44900
C 	C 	0.18700 0.07450 0.32070 -0.10600
C 	C 	0.11730 0.04740 0.39150 0.37300
C 	C 	0.30440 0.22500 0.33060 0.06900
C 	C 	0.18850 0.12300 0.32220 -0.03200
H 	H 	0.14720 0.13960 0.37310 0.03300
C 	C 	0.36500 0.19830 0.41990 -0.43000
H 	H 	0.42210 0.19150 0.37880 0.14300
H 	H 	0.33620 0.16880 0.44410 0.15200
H 	H 	0.37570 0.21750 0.49420 0.13400
O 	O 	0.59030 0.56516 0.99240 -0.40900
O 	O 	0.59270 0.50949 0.84800 -0.42100
C 	C 	0.68700 0.57450 0.82070 -0.07700
C 	C 	0.61730 0.54740 0.89150 0.37000
C 	C 	0.80440 0.72500 0.83060 0.09400
C 	C 	0.68850 0.62300 0.82220 -0.04700
H 	H 	0.64720 0.63960 0.87310 0.05600
C 	C 	0.86500 0.69830 0.91990 -0.49500
H 	H 	0.92210 0.69150 0.87880 0.19400
H 	H 	0.83620 0.66880 0.94410 0.18500
H 	H 	0.87570 0.71750 0.99420 0.17200
O 	O 	0.09030 0.93484 0.50760 -0.44000
O 	O 	0.09270 0.99051 0.65200 -0.44900
C 	C 	0.18700 0.92550 0.67930 -0.10600
C 	C 	0.11730 0.95260 0.60850 0.37300
C 	C 	0.30440 0.77500 0.66940 0.06900
C 	C 	0.18850 0.87700 0.67780 -0.03200
H 	H 	0.14720 0.86040 0.62690 0.03300
C 	C 	0.36500 0.80170 0.58010 -0.43000
H 	H 	0.42210 0.80850 0.62120 0.14300
H 	H 	0.33620 0.83120 0.55590 0.15200
H 	H 	0.37570 0.78250 0.50580 0.13400
O 	O 	0.59030 0.43484 0.00760 -0.40900
O 	O 	0.59270 0.49051 0.15200 -0.42100
C 	C 	0.68700 0.42550 0.17930 -0.07700
C 	C 	0.61730 0.45260 0.10850 0.37000
C 	C 	0.80440 0.27500 0.16940 0.09400
C 	C 	0.68850 0.37700 0.17780 -0.04700
H 	H 	0.64720 0.36040 0.12690 0.05600
C 	C 	0.86500 0.30170 0.08010 -0.49500
H 	H 	0.92210 0.30850 0.12120 0.19400
H 	H 	0.83620 0.33120 0.05590 0.18500
H 	H 	0.87570 0.28250 0.00580 0.17200
O 	O 	0.90970 0.56516 0.50760 -0.35900
O 	O 	0.90730 0.50949 0.65200 -0.37000
C 	C 	0.81300 0.57450 0.67930 -0.06500
C 	C 	0.88270 0.54740 0.60850 0.36000
C 	C 	0.69560 0.72500 0.66940 0.08000
C 	C 	0.81150 0.62300 0.67780 -0.04900
H 	H 	0.85280 0.63960 0.62690 0.07300
C 	C 	0.63500 0.69830 0.58010 -0.44200
H 	H 	0.57790 0.69150 0.62120 0.14600
H 	H 	0.66380 0.66880 0.55590 0.16000
H 	H 	0.62430 0.71750 0.50580 0.14200
O 	O 	0.40970 0.06516 0.00760 -0.41400
O 	O 	0.40730 0.00949 0.15200 -0.42400
C 	C 	0.31300 0.07450 0.17930 -0.09700
C 	C 	0.38270 0.04740 0.10850 0.37300
C 	C 	0.19560 0.22500 0.16940 0.05600
C 	C 	0.31150 0.12300 0.17780 -0.03300
H 	H 	0.35280 0.13960 0.12690 0.05000
C 	C 	0.13500 0.19830 0.08010 -0.38000
H 	H 	0.07790 0.19150 0.12120 0.09600
H 	H 	0.16380 0.16880 0.05590 0.13000
H 	H 	0.12430 0.21750 0.00580 0.10600
O 	O 	0.09030 0.56516 0.50760 -0.44000
O 	O 	0.09270 0.50949 0.65200 -0.44900
C 	C 	0.18700 0.57450 0.67930 -0.10600
C 	C 	0.11730 0.54740 0.60850 0.37300
C 	C 	0.30440 0.72500 0.66940 0.06900
C 	C 	0.18850 0.62300 0.67780 -0.03200
H 	H 	0.14720 0.63960 0.62690 0.03300
C 	C 	0.36500 0.69830 0.58010 -0.43100
H 	H 	0.42210 0.69150 0.62120 0.14300
H 	H 	0.33620 0.66880 0.55590 0.15200
H 	H 	0.37570 0.71750 0.50580 0.13400
O 	O 	0.59030 0.06516 0.00760 -0.40800
O 	O 	0.59270 0.00949 0.15200 -0.42000
C 	C 	0.68700 0.07450 0.17930 -0.07700
C 	C 	0.61730 0.04740 0.10850 0.36900
C 	C 	0.80440 0.22500 0.16940 0.09400
C 	C 	0.68850 0.12300 0.17780 -0.04700
H 	H 	0.64720 0.13960 0.12690 0.05600
C 	C 	0.86500 0.19830 0.08010 -0.49500
H 	H 	0.92210 0.19150 0.12120 0.19400
H 	H 	0.83620 0.16880 0.05590 0.18500
H 	H 	0.87570 0.21750 0.00580 0.17200
O 	O 	0.90970 0.93484 0.50760 -0.36000
O 	O 	0.90730 0.99051 0.65200 -0.37100
C 	C 	0.81300 0.92550 0.67930 -0.06500
C 	C 	0.88270 0.95260 0.60850 0.36000
C 	C 	0.69560 0.77500 0.66940 0.08000
C 	C 	0.81150 0.87700 0.67780 -0.04900
H 	H 	0.85280 0.86040 0.62690 0.07300
C 	C 	0.63500 0.80170 0.58010 -0.44200
H 	H 	0.57790 0.80850 0.62120 0.14600
H 	H 	0.66380 0.83120 0.55590 0.16000
H 	H 	0.62430 0.78250 0.50580 0.14200
O 	O 	0.40970 0.43484 0.00760 -0.41400
O 	O 	0.40730 0.49051 0.15200 -0.42500
C 	C 	0.31300 0.42550 0.17930 -0.09700
C 	C 	0.38270 0.45260 0.10850 0.37300
C 	C 	0.19560 0.27500 0.16940 0.05600
C 	C 	0.31150 0.37700 0.17780 -0.03200
H 	H 	0.35280 0.36040 0.12690 0.04900
C 	C 	0.13500 0.30170 0.08010 -0.38000
H 	H 	0.07790 0.30850 0.12120 0.09600
H 	H 	0.16380 0.33120 0.05590 0.12900
H 	H 	0.12430 0.28250 0.00580 0.10600
O 	O 	0.90970 0.06516 0.49240 -0.36000
O 	O 	0.90730 0.00949 0.34800 -0.37100
C 	C 	0.81300 0.07450 0.32070 -0.06500
C 	C 	0.88270 0.04740 0.39150 0.36000
C 	C 	0.69560 0.22500 0.33060 0.08000
C 	C 	0.81150 0.12300 0.32220 -0.04900
H 	H 	0.85280 0.13960 0.37310 0.07300
C 	C 	0.63500 0.19830 0.41990 -0.44200
H 	H 	0.57790 0.19150 0.37880 0.14600
H 	H 	0.66380 0.16880 0.44410 0.16000
H 	H 	0.62430 0.21750 0.49420 0.14200
O 	O 	0.40970 0.56516 0.99240 -0.41400
O 	O 	0.40730 0.50949 0.84800 -0.42500
C 	C 	0.31300 0.57450 0.82070 -0.09700
C 	C 	0.38270 0.54740 0.89150 0.37300
C 	C 	0.19560 0.72500 0.83060 0.05600
C 	C 	0.31150 0.62300 0.82220 -0.03200
H 	H 	0.35280 0.63960 0.87310 0.04900
C 	C 	0.13500 0.69830 0.91990 -0.38000
H 	H 	0.07790 0.69150 0.87880 0.09600
H 	H 	0.16380 0.66880 0.94410 0.12900
H 	H 	0.12430 0.71750 0.99420 0.10600
O 	O 	0.09030 0.43484 0.49240 -0.44000
O 	O 	0.09270 0.49051 0.34800 -0.44900
C 	C 	0.18700 0.42550 0.32070 -0.10600
C 	C 	0.11730 0.45260 0.39150 0.37300
C 	C 	0.30440 0.27500 0.33060 0.06900
C 	C 	0.18850 0.37700 0.32220 -0.03200
H 	H 	0.14720 0.36040 0.37310 0.03300
C 	C 	0.36500 0.30170 0.41990 -0.43100
H 	H 	0.42210 0.30850 0.37880 0.14300
H 	H 	0.33620 0.33120 0.44410 0.15200
H 	H 	0.37570 0.28250 0.49420 0.13400
O 	O 	0.59030 0.93484 0.99240 -0.40800
O 	O 	0.59270 0.99051 0.84800 -0.42000
C 	C 	0.68700 0.92550 0.82070 -0.07700
C 	C 	0.61730 0.95260 0.89150 0.36900
C 	C 	0.80440 0.77500 0.83060 0.09400
C 	C 	0.68850 0.87700 0.82220 -0.04700
H 	H 	0.64720 0.86040 0.87310 0.05600
C 	C 	0.86500 0.80170 0.91990 -0.49500
H 	H 	0.92210 0.80850 0.87880 0.19400
H 	H 	0.83620 0.83120 0.94410 0.18500
H 	H 	0.87570 0.78250 0.99420 0.17200
Cu	Cu	0.00000 0.46710 0.58893 0.86100
Cu	Cu	0.50000 0.96710 0.08893 0.90900
Cu	Cu	0.00000 0.03290 0.58893 0.86100
Cu	Cu	0.50000 0.53290 0.08893 0.91000
Cu	Cu	0.00000 0.96710 0.41107 0.86100
Cu	Cu	0.50000 0.46710 0.91107 0.91000
Cu	Cu	0.00000 0.53290 0.41107 0.86100
Cu	Cu	0.50000 0.03290 0.91107 0.90900
C 	C 	0.75000 0.35180 0.25000 0.04000
C 	C 	0.75000 0.44870 0.25000 0.01900
H 	H 	0.75000 0.48210 0.25000 0.05200
C 	C 	0.75000 0.29920 0.25000 -0.09400
C 	C 	0.25000 0.14820 0.25000 0.01600
C 	C 	0.25000 0.05130 0.25000 0.03500
H 	H 	0.25000 0.01790 0.25000 0.03800
C 	C 	0.25000 0.20080 0.25000 -0.08200
C 	C 	0.25000 0.85180 0.75000 0.01600
C 	C 	0.25000 0.94870 0.75000 0.03500
H 	H 	0.25000 0.98210 0.75000 0.03800
C 	C 	0.25000 0.79920 0.75000 -0.08200
C 	C 	0.75000 0.64820 0.75000 0.04000
C 	C 	0.75000 0.55130 0.75000 0.01900
H 	H 	0.75000 0.51790 0.75000 0.05200
C 	C 	0.75000 0.70080 0.75000 -0.09400
C 	C 	0.25000 0.64820 0.75000 0.01600
C 	C 	0.25000 0.55130 0.75000 0.03500
H 	H 	0.25000 0.51790 0.75000 0.03800
C 	C 	0.25000 0.70080 0.75000 -0.08100
C 	C 	0.75000 0.85180 0.75000 0.04000
C 	C 	0.75000 0.94870 0.75000 0.01900
H 	H 	0.75000 0.98210 0.75000 0.05200
C 	C 	0.75000 0.79920 0.75000 -0.09400
C 	C 	0.75000 0.14820 0.25000 0.04000
C 	C 	0.75000 0.05130 0.25000 0.01900
H 	H 	0.75000 0.01790 0.25000 0.05200
C 	C 	0.75000 0.20080 0.25000 -0.09400
C 	C 	0.25000 0.35180 0.25000 0.01600
C 	C 	0.25000 0.44870 0.25000 0.03500
H 	H 	0.25000 0.48210 0.25000 0.03800
C 	C 	0.25000 0.29920 0.25000 -0.08100
