data_crystal

_cell_length_a 16.06040
_cell_length_b 16.06040
_cell_length_c 44.11700
_cell_angle_alpha 90.00000
_cell_angle_beta  90.00000
_cell_angle_gamma 90.00000

_symmetry_space_group_name_	'P 1'
_symmetry_space_group_name_H-M	'P 1'

loop_
_symmetry_equiv_pos_as_xyz
  x,y,z

loop_
_atom_site_label
_atom_site_type_symbol
_atom_site_fract_x
_atom_site_fract_y
_atom_site_fract_z
_atom_site_charge
Cu	Cu	0.45842 0.92949 0.71035 0.90700
O 	O 	0.38970 0.98560 0.68041 -0.41700
O 	O 	0.46660 0.10170 0.67740 -0.40900
C 	C 	0.03410 0.43020 0.48094 0.07400
N 	N 	0.19790 0.17240 0.57431 -0.10400
C 	C 	0.93100 0.46700 0.43915 0.06400
C 	C 	0.34970 0.09010 0.64508 -0.15400
C 	C 	0.10030 0.30670 0.51919 -0.00600
N 	N 	0.67240 0.30110 0.34772 -0.10400
C 	C 	0.13290 0.24300 0.53971 0.05900
C 	C 	0.80560 0.40190 0.40033 -0.00900
C 	C 	0.84440 0.48350 0.44460 -0.09100
H 	H 	0.82875 0.51610 0.46106 0.06800
C 	C 	0.08050 0.45070 0.50565 -0.10300
H 	H 	0.08805 0.50663 0.51034 0.07300
C 	C 	0.40600 0.05660 0.66987 0.37900
C 	C 	0.78360 0.45090 0.42546 -0.02200
H 	H 	0.72772 0.46183 0.42935 0.05000
N 	N 	0.10610 0.16110 0.53915 -0.07500
C 	C 	0.19190 0.25110 0.56186 -0.01400
H 	H 	0.22120 0.29870 0.56731 0.04000
N 	N 	0.14510 0.11780 0.56039 -0.04600
C 	C 	0.94830 0.41930 0.41391 -0.10100
H 	H 	0.00369 0.40749 0.40952 0.07700
C 	C 	0.37580 0.15680 0.62855 0.09500
H 	H 	0.42573 0.18352 0.63291 0.01800
C 	C 	0.88840 0.38850 0.39507 -0.01500
H 	H 	0.90435 0.35767 0.37820 0.04500
C 	C 	0.74690 0.31580 0.35708 -0.00500
H 	H 	0.79586 0.29528 0.34869 0.03400
C 	C 	0.05240 0.28630 0.49454 -0.01700
H 	H 	0.04148 0.23066 0.49025 0.06000
C 	C 	0.11710 0.39060 0.52416 -0.02000
H 	H 	0.15259 0.40646 0.53977 0.04100
C 	C 	0.02030 0.34800 0.47603 -0.09500
H 	H 	0.98792 0.33245 0.45950 0.07300
C 	C 	0.25000 0.14450 0.59887 0.18100
C 	C 	0.27490 0.04880 0.63856 0.11200
H 	H 	0.25921 0.00195 0.64953 0.00500
C 	C 	0.22610 0.07820 0.61613 -0.21000
H 	H 	0.17508 0.05285 0.61235 0.12000
C 	C 	0.32370 0.18420 0.60422 -0.19300
H 	H 	0.33989 0.22883 0.59213 0.10500
C 	C 	0.74090 0.36560 0.38081 0.06200
C 	C 	0.64370 0.24600 0.32294 0.18500
N 	N 	0.66180 0.37630 0.38580 -0.08300
N 	N 	0.61820 0.33960 0.36460 -0.04400
C 	C 	0.69450 0.19180 0.31105 -0.21600
H 	H 	0.74814 0.18526 0.31864 0.11200
C 	C 	0.66640 0.14340 0.28640 0.11000
H 	H 	0.70266 0.10595 0.27720 0.01200
C 	C 	0.56210 0.25840 0.31252 -0.19600
H 	H 	0.52686 0.29702 0.32158 0.11700
C 	C 	0.53630 0.21020 0.28796 0.10900
H 	H 	0.48369 0.21908 0.27978 0.01300
C 	C 	0.58570 0.15070 0.27571 -0.15700
C 	C 	0.55390 0.09410 0.25114 0.37800
O 	O 	0.48000 0.10560 0.24306 -0.41300
O 	O 	0.60520 0.04210 0.24041 -0.40600
Cu	Cu	0.54158 0.07051 0.71035 0.90600
O 	O 	0.61030 0.01440 0.68041 -0.41400
O 	O 	0.53340 0.89830 0.67740 -0.40900
C 	C 	0.96590 0.56980 0.48094 0.07500
N 	N 	0.80210 0.82760 0.57431 -0.10300
C 	C 	0.06900 0.53300 0.43915 0.06100
C 	C 	0.65030 0.90990 0.64508 -0.15200
C 	C 	0.89970 0.69330 0.51919 -0.01000
N 	N 	0.32760 0.69890 0.34772 -0.10400
C 	C 	0.86710 0.75700 0.53971 0.06000
C 	C 	0.19440 0.59810 0.40033 -0.00600
C 	C 	0.15560 0.51650 0.44460 -0.08800
H 	H 	0.17125 0.48390 0.46106 0.06800
C 	C 	0.91950 0.54930 0.50565 -0.10600
H 	H 	0.91195 0.49337 0.51034 0.07300
C 	C 	0.59400 0.94340 0.66987 0.37400
C 	C 	0.21640 0.54910 0.42546 -0.02500
H 	H 	0.27228 0.53817 0.42935 0.05100
N 	N 	0.89390 0.83890 0.53915 -0.07600
C 	C 	0.80810 0.74890 0.56186 -0.01500
H 	H 	0.77880 0.70130 0.56731 0.04000
N 	N 	0.85490 0.88220 0.56039 -0.04700
C 	C 	0.05170 0.58070 0.41391 -0.09000
H 	H 	0.99631 0.59251 0.40952 0.07100
C 	C 	0.62420 0.84320 0.62855 0.09400
H 	H 	0.57427 0.81648 0.63291 0.01900
C 	C 	0.11160 0.61150 0.39507 -0.02200
H 	H 	0.09565 0.64233 0.37820 0.04800
C 	C 	0.25310 0.68420 0.35708 -0.00400
H 	H 	0.20414 0.70472 0.34869 0.03400
C 	C 	0.94760 0.71370 0.49454 -0.01100
H 	H 	0.95852 0.76934 0.49025 0.05700
C 	C 	0.88290 0.60940 0.52416 -0.01700
H 	H 	0.84741 0.59354 0.53977 0.04000
C 	C 	0.97970 0.65200 0.47603 -0.10600
H 	H 	0.01208 0.66755 0.45950 0.07900
C 	C 	0.75000 0.85550 0.59887 0.18000
C 	C 	0.72510 0.95120 0.63856 0.11000
H 	H 	0.74079 0.99805 0.64953 0.00400
C 	C 	0.77390 0.92180 0.61613 -0.20900
H 	H 	0.82492 0.94715 0.61235 0.11800
C 	C 	0.67630 0.81580 0.60422 -0.19200
H 	H 	0.66011 0.77117 0.59213 0.10500
C 	C 	0.25910 0.63440 0.38081 0.06100
C 	C 	0.35630 0.75400 0.32294 0.18500
N 	N 	0.33820 0.62370 0.38580 -0.08200
N 	N 	0.38180 0.66040 0.36460 -0.04400
C 	C 	0.30550 0.80820 0.31105 -0.21700
H 	H 	0.25186 0.81474 0.31864 0.11200
C 	C 	0.33360 0.85660 0.28640 0.11000
H 	H 	0.29734 0.89405 0.27720 0.01200
C 	C 	0.43790 0.74160 0.31252 -0.19700
H 	H 	0.47314 0.70298 0.32158 0.11700
C 	C 	0.46370 0.78980 0.28796 0.11000
H 	H 	0.51631 0.78092 0.27978 0.01300
C 	C 	0.41430 0.84930 0.27571 -0.15800
C 	C 	0.44610 0.90590 0.25114 0.37800
O 	O 	0.52000 0.89440 0.24306 -0.41400
O 	O 	0.39480 0.95790 0.24041 -0.40700
Cu	Cu	0.57051 0.95842 0.21035 0.90500
O 	O 	0.51440 0.88970 0.18041 -0.41700
O 	O 	0.39830 0.96660 0.17740 -0.41000
C 	C 	0.06980 0.53410 0.98094 0.07200
N 	N 	0.32760 0.69790 0.07431 -0.10400
C 	C 	0.03300 0.43100 0.93915 0.06200
C 	C 	0.40990 0.84970 0.14508 -0.15300
C 	C 	0.19330 0.60030 0.01919 -0.00600
N 	N 	0.19890 0.17240 0.84772 -0.10400
C 	C 	0.25700 0.63290 0.03971 0.05900
C 	C 	0.09810 0.30560 0.90033 -0.00600
C 	C 	0.01650 0.34440 0.94460 -0.08600
H 	H 	0.98390 0.32875 0.96106 0.06600
C 	C 	0.04930 0.58050 0.00565 -0.09900
H 	H 	0.99337 0.58805 0.01034 0.07000
C 	C 	0.44340 0.90600 0.16987 0.37700
C 	C 	0.04910 0.28360 0.92546 -0.02500
H 	H 	0.03817 0.22772 0.92935 0.05100
N 	N 	0.33890 0.60610 0.03915 -0.07500
C 	C 	0.24890 0.69190 0.06186 -0.01400
H 	H 	0.20130 0.72120 0.06731 0.04000
N 	N 	0.38220 0.64510 0.06039 -0.04700
C 	C 	0.08070 0.44830 0.91391 -0.09500
H 	H 	0.09251 0.50369 0.90952 0.07400
C 	C 	0.34320 0.87580 0.12855 0.09500
H 	H 	0.31648 0.92573 0.13291 0.01800
C 	C 	0.11150 0.38840 0.89507 -0.01900
H 	H 	0.14233 0.40435 0.87820 0.04700
C 	C 	0.18420 0.24690 0.85708 -0.00400
H 	H 	0.20472 0.29586 0.84869 0.03400
C 	C 	0.21370 0.55240 0.99454 -0.01700
H 	H 	0.26934 0.54148 0.99025 0.06000
C 	C 	0.10940 0.61710 0.02416 -0.02200
H 	H 	0.09354 0.65259 0.03977 0.04200
C 	C 	0.15200 0.52030 0.97603 -0.09800
H 	H 	0.16755 0.48792 0.95950 0.07500
C 	C 	0.35550 0.75000 0.09887 0.18000
C 	C 	0.45120 0.77490 0.13856 0.11200
H 	H 	0.49805 0.75921 0.14953 0.00500
C 	C 	0.42180 0.72610 0.11613 -0.21000
H 	H 	0.44715 0.67508 0.11235 0.11900
C 	C 	0.31580 0.82370 0.10422 -0.19200
H 	H 	0.27117 0.83989 0.09213 0.10500
C 	C 	0.13440 0.24090 0.88081 0.06100
C 	C 	0.25400 0.14370 0.82294 0.18700
N 	N 	0.12370 0.16180 0.88580 -0.08200
N 	N 	0.16040 0.11820 0.86460 -0.04300
C 	C 	0.30820 0.19450 0.81105 -0.21900
H 	H 	0.31474 0.24814 0.81864 0.11300
C 	C 	0.35660 0.16640 0.78640 0.11200
H 	H 	0.39405 0.20266 0.77720 0.01100
C 	C 	0.24160 0.06210 0.81252 -0.20000
H 	H 	0.20298 0.02686 0.82158 0.11900
C 	C 	0.28980 0.03630 0.78796 0.11500
H 	H 	0.28092 0.98369 0.77978 0.01000
C 	C 	0.34930 0.08570 0.77571 -0.16100
C 	C 	0.40590 0.05390 0.75114 0.38100
O 	O 	0.39440 0.98000 0.74306 -0.41500
O 	O 	0.45790 0.10520 0.74041 -0.40700
Cu	Cu	0.42949 0.04158 0.21035 0.90700
O 	O 	0.48560 0.11030 0.18041 -0.41600
O 	O 	0.60170 0.03340 0.17740 -0.40900
C 	C 	0.93020 0.46590 0.98094 0.07500
N 	N 	0.67240 0.30210 0.07431 -0.10300
C 	C 	0.96700 0.56900 0.93915 0.06400
C 	C 	0.59010 0.15030 0.14508 -0.15300
C 	C 	0.80670 0.39970 0.01919 -0.00900
N 	N 	0.80110 0.82760 0.84772 -0.10300
C 	C 	0.74300 0.36710 0.03971 0.06000
C 	C 	0.90190 0.69440 0.90033 -0.01000
C 	C 	0.98350 0.65560 0.94460 -0.09600
H 	H 	0.01610 0.67125 0.96106 0.07100
C 	C 	0.95070 0.41950 0.00565 -0.10900
H 	H 	0.00663 0.41195 0.01034 0.07600
C 	C 	0.55660 0.09400 0.16987 0.37600
C 	C 	0.95090 0.71640 0.92546 -0.02000
H 	H 	0.96183 0.77228 0.92935 0.04800
N 	N 	0.66110 0.39390 0.03915 -0.07500
C 	C 	0.75110 0.30810 0.06186 -0.01500
H 	H 	0.79870 0.27880 0.06731 0.04000
N 	N 	0.61780 0.35490 0.06039 -0.04700
C 	C 	0.91930 0.55170 0.91391 -0.09800
H 	H 	0.90749 0.49631 0.90952 0.07400
C 	C 	0.65680 0.12420 0.12855 0.09400
H 	H 	0.68352 0.07427 0.13291 0.01900
C 	C 	0.88850 0.61160 0.89507 -0.01700
H 	H 	0.85767 0.59565 0.87820 0.04600
C 	C 	0.81580 0.75310 0.85708 -0.00600
H 	H 	0.79528 0.70414 0.84869 0.03500
C 	C 	0.78630 0.44760 0.99454 -0.01300
H 	H 	0.73066 0.45852 0.99025 0.05900
C 	C 	0.89060 0.38290 0.02416 -0.01600
H 	H 	0.90646 0.34741 0.03977 0.03900
C 	C 	0.84800 0.47970 0.97603 -0.10100
H 	H 	0.83245 0.51208 0.95950 0.07600
C 	C 	0.64450 0.25000 0.09887 0.18000
C 	C 	0.54880 0.22510 0.13856 0.11100
H 	H 	0.50195 0.24079 0.14953 0.00500
C 	C 	0.57820 0.27390 0.11613 -0.21000
H 	H 	0.55285 0.32492 0.11235 0.11900
C 	C 	0.68420 0.17630 0.10422 -0.19200
H 	H 	0.72883 0.16011 0.09213 0.10500
C 	C 	0.86560 0.75910 0.88081 0.06200
C 	C 	0.74600 0.85630 0.82294 0.18200
N 	N 	0.87630 0.83820 0.88580 -0.08300
N 	N 	0.83960 0.88180 0.86460 -0.04400
C 	C 	0.69180 0.80550 0.81105 -0.21300
H 	H 	0.68526 0.75186 0.81864 0.11100
C 	C 	0.64340 0.83360 0.78640 0.10600
H 	H 	0.60595 0.79734 0.77720 0.01300
C 	C 	0.75840 0.93790 0.81252 -0.19100
H 	H 	0.79702 0.97314 0.82158 0.11400
C 	C 	0.71020 0.96370 0.78796 0.10100
H 	H 	0.71908 0.01631 0.77978 0.01700
C 	C 	0.65070 0.91430 0.77571 -0.15300
C 	C 	0.59410 0.94610 0.75114 0.37400
O 	O 	0.60560 0.02000 0.74306 -0.41100
O 	O 	0.54210 0.89480 0.74041 -0.40600
C 	C 	0.00000 0.50000 0.46021 -0.08900
C 	C 	0.00000 0.50000 0.96021 -0.08900
Cu	Cu	0.04158 0.42949 0.78965 0.90700
O 	O 	0.11030 0.48560 0.81959 -0.41600
O 	O 	0.03340 0.60170 0.82260 -0.40900
C 	C 	0.46590 0.93020 0.01906 0.07500
N 	N 	0.30210 0.67240 0.92569 -0.10300
C 	C 	0.56900 0.96700 0.06085 0.06400
C 	C 	0.15030 0.59010 0.85492 -0.15300
C 	C 	0.39970 0.80670 0.98081 -0.00900
N 	N 	0.82760 0.80110 0.15228 -0.10300
C 	C 	0.36710 0.74300 0.96029 0.06000
C 	C 	0.69440 0.90190 0.09967 -0.01000
C 	C 	0.65560 0.98350 0.05540 -0.09600
H 	H 	0.67125 0.01610 0.03894 0.07100
C 	C 	0.41950 0.95070 0.99435 -0.10900
H 	H 	0.41195 0.00663 0.98966 0.07600
C 	C 	0.09400 0.55660 0.83013 0.37600
C 	C 	0.71640 0.95090 0.07454 -0.02000
H 	H 	0.77228 0.96183 0.07065 0.04800
N 	N 	0.39390 0.66110 0.96085 -0.07500
C 	C 	0.30810 0.75110 0.93814 -0.01500
H 	H 	0.27880 0.79870 0.93269 0.04000
N 	N 	0.35490 0.61780 0.93961 -0.04700
C 	C 	0.55170 0.91930 0.08609 -0.09800
H 	H 	0.49631 0.90749 0.09048 0.07400
C 	C 	0.12420 0.65680 0.87145 0.09400
H 	H 	0.07427 0.68352 0.86709 0.01900
C 	C 	0.61160 0.88850 0.10493 -0.01700
H 	H 	0.59565 0.85767 0.12180 0.04600
C 	C 	0.75310 0.81580 0.14292 -0.00600
H 	H 	0.70414 0.79528 0.15131 0.03500
C 	C 	0.44760 0.78630 0.00546 -0.01300
H 	H 	0.45852 0.73066 0.00975 0.05900
C 	C 	0.38290 0.89060 0.97584 -0.01600
H 	H 	0.34741 0.90646 0.96023 0.03900
C 	C 	0.47970 0.84800 0.02397 -0.10100
H 	H 	0.51208 0.83245 0.04050 0.07600
C 	C 	0.25000 0.64450 0.90113 0.18000
C 	C 	0.22510 0.54880 0.86144 0.11100
H 	H 	0.24079 0.50195 0.85047 0.00500
C 	C 	0.27390 0.57820 0.88387 -0.21000
H 	H 	0.32492 0.55285 0.88765 0.11900
C 	C 	0.17630 0.68420 0.89578 -0.19200
H 	H 	0.16011 0.72883 0.90787 0.10500
C 	C 	0.75910 0.86560 0.11919 0.06200
C 	C 	0.85630 0.74600 0.17706 0.18200
N 	N 	0.83820 0.87630 0.11420 -0.08300
N 	N 	0.88180 0.83960 0.13540 -0.04400
C 	C 	0.80550 0.69180 0.18895 -0.21300
H 	H 	0.75186 0.68526 0.18136 0.11100
C 	C 	0.83360 0.64340 0.21360 0.10600
H 	H 	0.79734 0.60595 0.22280 0.01300
C 	C 	0.93790 0.75840 0.18748 -0.19100
H 	H 	0.97314 0.79702 0.17842 0.11400
C 	C 	0.96370 0.71020 0.21204 0.10100
H 	H 	0.01631 0.71908 0.22022 0.01700
C 	C 	0.91430 0.65070 0.22429 -0.15300
C 	C 	0.94610 0.59410 0.24886 0.37400
O 	O 	0.02000 0.60560 0.25694 -0.41100
O 	O 	0.89480 0.54210 0.25959 -0.40600
Cu	Cu	0.95842 0.57051 0.78965 0.90500
O 	O 	0.88970 0.51440 0.81959 -0.41700
O 	O 	0.96660 0.39830 0.82260 -0.41000
C 	C 	0.53410 0.06980 0.01906 0.07200
N 	N 	0.69790 0.32760 0.92569 -0.10400
C 	C 	0.43100 0.03300 0.06085 0.06200
C 	C 	0.84970 0.40990 0.85492 -0.15300
C 	C 	0.60030 0.19330 0.98081 -0.00600
N 	N 	0.17240 0.19890 0.15228 -0.10400
C 	C 	0.63290 0.25700 0.96029 0.05900
C 	C 	0.30560 0.09810 0.09967 -0.00600
C 	C 	0.34440 0.01650 0.05540 -0.08600
H 	H 	0.32875 0.98390 0.03894 0.06600
C 	C 	0.58050 0.04930 0.99435 -0.09900
H 	H 	0.58805 0.99337 0.98966 0.07000
C 	C 	0.90600 0.44340 0.83013 0.37700
C 	C 	0.28360 0.04910 0.07454 -0.02500
H 	H 	0.22772 0.03817 0.07065 0.05100
N 	N 	0.60610 0.33890 0.96085 -0.07500
C 	C 	0.69190 0.24890 0.93814 -0.01400
H 	H 	0.72120 0.20130 0.93269 0.04000
N 	N 	0.64510 0.38220 0.93961 -0.04700
C 	C 	0.44830 0.08070 0.08609 -0.09500
H 	H 	0.50369 0.09251 0.09048 0.07400
C 	C 	0.87580 0.34320 0.87145 0.09500
H 	H 	0.92573 0.31648 0.86709 0.01800
C 	C 	0.38840 0.11150 0.10493 -0.01900
H 	H 	0.40435 0.14233 0.12180 0.04700
C 	C 	0.24690 0.18420 0.14292 -0.00400
H 	H 	0.29586 0.20472 0.15131 0.03400
C 	C 	0.55240 0.21370 0.00546 -0.01700
H 	H 	0.54148 0.26934 0.00975 0.06000
C 	C 	0.61710 0.10940 0.97584 -0.02200
H 	H 	0.65259 0.09354 0.96023 0.04200
C 	C 	0.52030 0.15200 0.02397 -0.09800
H 	H 	0.48792 0.16755 0.04050 0.07500
C 	C 	0.75000 0.35550 0.90113 0.18000
C 	C 	0.77490 0.45120 0.86144 0.11200
H 	H 	0.75921 0.49805 0.85047 0.00500
C 	C 	0.72610 0.42180 0.88387 -0.21000
H 	H 	0.67508 0.44715 0.88765 0.11900
C 	C 	0.82370 0.31580 0.89578 -0.19200
H 	H 	0.83989 0.27117 0.90787 0.10500
C 	C 	0.24090 0.13440 0.11919 0.06100
C 	C 	0.14370 0.25400 0.17706 0.18700
N 	N 	0.16180 0.12370 0.11420 -0.08200
N 	N 	0.11820 0.16040 0.13540 -0.04300
C 	C 	0.19450 0.30820 0.18895 -0.21900
H 	H 	0.24814 0.31474 0.18136 0.11300
C 	C 	0.16640 0.35660 0.21360 0.11200
H 	H 	0.20266 0.39405 0.22280 0.01100
C 	C 	0.06210 0.24160 0.18748 -0.20000
H 	H 	0.02686 0.20298 0.17842 0.11900
C 	C 	0.03630 0.28980 0.21204 0.11500
H 	H 	0.98369 0.28092 0.22022 0.01000
C 	C 	0.08570 0.34930 0.22429 -0.16100
C 	C 	0.05390 0.40590 0.24886 0.38100
O 	O 	0.98000 0.39440 0.25694 -0.41500
O 	O 	0.10520 0.45790 0.25959 -0.40700
Cu	Cu	0.92949 0.45842 0.28965 0.90600
O 	O 	0.98560 0.38970 0.31959 -0.41800
O 	O 	0.10170 0.46660 0.32260 -0.41000
C 	C 	0.43020 0.03410 0.51906 0.07300
N 	N 	0.17240 0.19790 0.42569 -0.10400
C 	C 	0.46700 0.93100 0.56085 0.06400
C 	C 	0.09010 0.34970 0.35492 -0.15400
C 	C 	0.30670 0.10030 0.48081 -0.00600
N 	N 	0.30110 0.67240 0.65228 -0.10400
C 	C 	0.24300 0.13290 0.46029 0.05900
C 	C 	0.40190 0.80560 0.59967 -0.00900
C 	C 	0.48350 0.84440 0.55540 -0.09100
H 	H 	0.51610 0.82875 0.53894 0.06800
C 	C 	0.45070 0.08050 0.49435 -0.10300
H 	H 	0.50663 0.08805 0.48966 0.07300
C 	C 	0.05660 0.40600 0.33013 0.37900
C 	C 	0.45090 0.78360 0.57454 -0.02200
H 	H 	0.46183 0.72772 0.57065 0.05000
N 	N 	0.16110 0.10610 0.46085 -0.07500
C 	C 	0.25110 0.19190 0.43814 -0.01400
H 	H 	0.29870 0.22120 0.43269 0.04000
N 	N 	0.11780 0.14510 0.43961 -0.04600
C 	C 	0.41930 0.94830 0.58609 -0.10100
H 	H 	0.40749 0.00369 0.59048 0.07700
C 	C 	0.15680 0.37580 0.37145 0.09500
H 	H 	0.18352 0.42573 0.36709 0.01800
C 	C 	0.38850 0.88840 0.60493 -0.01500
H 	H 	0.35767 0.90435 0.62180 0.04500
C 	C 	0.31580 0.74690 0.64292 -0.00500
H 	H 	0.29528 0.79586 0.65131 0.03400
C 	C 	0.28630 0.05240 0.50546 -0.01700
H 	H 	0.23066 0.04148 0.50975 0.06000
C 	C 	0.39060 0.11710 0.47584 -0.02000
H 	H 	0.40646 0.15259 0.46023 0.04100
C 	C 	0.34800 0.02030 0.52397 -0.09500
H 	H 	0.33245 0.98792 0.54050 0.07300
C 	C 	0.14450 0.25000 0.40113 0.18100
C 	C 	0.04880 0.27490 0.36144 0.11200
H 	H 	0.00195 0.25921 0.35047 0.00500
C 	C 	0.07820 0.22610 0.38387 -0.21000
H 	H 	0.05285 0.17508 0.38765 0.12000
C 	C 	0.18420 0.32370 0.39578 -0.19300
H 	H 	0.22883 0.33989 0.40787 0.10500
C 	C 	0.36560 0.74090 0.61919 0.06200
C 	C 	0.24600 0.64370 0.67706 0.18500
N 	N 	0.37630 0.66180 0.61420 -0.08300
N 	N 	0.33960 0.61820 0.63540 -0.04400
C 	C 	0.19180 0.69450 0.68895 -0.21600
H 	H 	0.18526 0.74814 0.68136 0.11200
C 	C 	0.14340 0.66640 0.71360 0.11000
H 	H 	0.10595 0.70266 0.72280 0.01200
C 	C 	0.25840 0.56210 0.68748 -0.19600
H 	H 	0.29702 0.52686 0.67842 0.11700
C 	C 	0.21020 0.53630 0.71204 0.10900
H 	H 	0.21908 0.48369 0.72022 0.01300
C 	C 	0.15070 0.58570 0.72429 -0.15700
C 	C 	0.09410 0.55390 0.74886 0.37800
O 	O 	0.10560 0.48000 0.75694 -0.41300
O 	O 	0.04210 0.60520 0.75959 -0.40600
Cu	Cu	0.07051 0.54158 0.28965 0.90600
O 	O 	0.01440 0.61030 0.31959 -0.41400
O 	O 	0.89830 0.53340 0.32260 -0.40900
C 	C 	0.56980 0.96590 0.51906 0.07500
N 	N 	0.82760 0.80210 0.42569 -0.10300
C 	C 	0.53300 0.06900 0.56085 0.06100
C 	C 	0.90990 0.65030 0.35492 -0.15200
C 	C 	0.69330 0.89970 0.48081 -0.01000
N 	N 	0.69890 0.32760 0.65228 -0.10400
C 	C 	0.75700 0.86710 0.46029 0.06000
C 	C 	0.59810 0.19440 0.59967 -0.00600
C 	C 	0.51650 0.15560 0.55540 -0.08800
H 	H 	0.48390 0.17125 0.53894 0.06800
C 	C 	0.54930 0.91950 0.49435 -0.10600
H 	H 	0.49337 0.91195 0.48966 0.07300
C 	C 	0.94340 0.59400 0.33013 0.37400
C 	C 	0.54910 0.21640 0.57454 -0.02500
H 	H 	0.53817 0.27228 0.57065 0.05100
N 	N 	0.83890 0.89390 0.46085 -0.07600
C 	C 	0.74890 0.80810 0.43814 -0.01500
H 	H 	0.70130 0.77880 0.43269 0.04000
N 	N 	0.88220 0.85490 0.43961 -0.04700
C 	C 	0.58070 0.05170 0.58609 -0.09000
H 	H 	0.59251 0.99631 0.59048 0.07100
C 	C 	0.84320 0.62420 0.37145 0.09400
H 	H 	0.81648 0.57427 0.36709 0.01900
C 	C 	0.61150 0.11160 0.60493 -0.02200
H 	H 	0.64233 0.09565 0.62180 0.04800
C 	C 	0.68420 0.25310 0.64292 -0.00400
H 	H 	0.70472 0.20414 0.65131 0.03400
C 	C 	0.71370 0.94760 0.50546 -0.01100
H 	H 	0.76934 0.95852 0.50975 0.05700
C 	C 	0.60940 0.88290 0.47584 -0.01700
H 	H 	0.59354 0.84741 0.46023 0.04000
C 	C 	0.65200 0.97970 0.52397 -0.10600
H 	H 	0.66755 0.01208 0.54050 0.07900
C 	C 	0.85550 0.75000 0.40113 0.18000
C 	C 	0.95120 0.72510 0.36144 0.11000
H 	H 	0.99805 0.74079 0.35047 0.00400
C 	C 	0.92180 0.77390 0.38387 -0.20900
H 	H 	0.94715 0.82492 0.38765 0.11800
C 	C 	0.81580 0.67630 0.39578 -0.19200
H 	H 	0.77117 0.66011 0.40787 0.10500
C 	C 	0.63440 0.25910 0.61919 0.06100
C 	C 	0.75400 0.35630 0.67706 0.18500
N 	N 	0.62370 0.33820 0.61420 -0.08200
N 	N 	0.66040 0.38180 0.63540 -0.04400
C 	C 	0.80820 0.30550 0.68895 -0.21700
H 	H 	0.81474 0.25186 0.68136 0.11200
C 	C 	0.85660 0.33360 0.71360 0.11000
H 	H 	0.89405 0.29734 0.72280 0.01200
C 	C 	0.74160 0.43790 0.68748 -0.19700
H 	H 	0.70298 0.47314 0.67842 0.11700
C 	C 	0.78980 0.46370 0.71204 0.11000
H 	H 	0.78092 0.51631 0.72022 0.01300
C 	C 	0.84930 0.41430 0.72429 -0.15800
C 	C 	0.90590 0.44610 0.74886 0.37800
O 	O 	0.89440 0.52000 0.75694 -0.41400
O 	O 	0.95790 0.39480 0.75959 -0.40700
C 	C 	0.50000 0.00000 0.03979 -0.08900
C 	C 	0.50000 0.00000 0.53979 -0.08900
