data_crystal

_cell_length_a 22.80500
_cell_length_b 22.80500
_cell_length_c 44.07270
_cell_angle_alpha 90.00000
_cell_angle_beta  90.00000
_cell_angle_gamma 90.00000

_symmetry_space_group_name_	'P 1'
_symmetry_space_group_name_H-M	'P 1'

loop_
_symmetry_equiv_pos_as_xyz
  x,y,z

loop_
_atom_site_label
_atom_site_type_symbol
_atom_site_fract_x
_atom_site_fract_y
_atom_site_fract_z
_atom_site_charge
Cu	Cu	0.55582 0.48451 0.36105 0.91200
O 	O 	0.53220 0.42960 0.33004 -0.39000
O 	O 	0.43470 0.45550 0.32993 -0.39600
O 	O 	0.07030 0.03290 0.89206 -0.40300
O 	O 	0.04305 0.93870 0.89259 -0.40800
N 	N 	0.43190 0.25440 0.22840 -0.10300
N 	N 	0.37660 0.25230 0.21410 -0.04600
N 	N 	0.38140 0.21100 0.19400 -0.07900
N 	N 	0.27570 0.89150 0.03250 -0.08100
N 	N 	0.23370 0.89040 0.01330 -0.04400
N 	N 	0.24230 0.93520 0.99593 -0.10200
C 	C 	0.47730 0.42460 0.32022 0.35000
C 	C 	0.46520 0.37850 0.29707 -0.19100
C 	C 	0.50870 0.34650 0.28690 0.17400
H 	H 	0.54600 0.35100 0.29511 -0.00900
C 	C 	0.49980 0.30720 0.26450 -0.26500
H 	H 	0.53115 0.28485 0.25748 0.12800
C 	C 	0.44790 0.29970 0.25240 0.20800
C 	C 	0.39930 0.33200 0.26180 -0.22400
H 	H 	0.36232 0.32719 0.25328 0.12800
C 	C 	0.40990 0.37160 0.28470 0.13800
H 	H 	0.37914 0.39422 0.29206 0.00200
C 	C 	0.46650 0.21530 0.21370 -0.00600
H 	H 	0.50647 0.21021 0.21696 0.03600
C 	C 	0.43310 0.18450 0.19330 0.05900
C 	C 	0.45230 0.13930 0.17346 -0.01200
C 	C 	0.50780 0.11460 0.17375 -0.01600
H 	H 	0.53560 0.12782 0.18759 0.03800
C 	C 	0.52130 0.07270 0.15458 -0.09400
H 	H 	0.55882 0.05687 0.15550 0.06800
C 	C 	0.48150 0.04990 0.13228 0.06200
C 	C 	0.42660 0.07440 0.13250 -0.09500
H 	H 	0.39767 0.05948 0.11977 0.06900
C 	C 	0.41370 0.12230 0.15190 -0.02100
H 	H 	0.37834 0.14219 0.14982 0.05100
C 	C 	0.44830 0.98290 0.08983 0.06800
C 	C 	0.42340 0.92870 0.08913 -0.10000
H 	H 	0.43728 0.90075 0.10271 0.07100
C 	C 	0.37910 0.91240 0.06981 -0.01700
H 	H 	0.36448 0.87435 0.07041 0.04900
C 	C 	0.35680 0.95160 0.04990 -0.00700
C 	C 	0.38090 0.00950 0.04813 -0.02600
H 	H 	0.36610 0.03775 0.03499 0.04100
C 	C 	0.42910 0.02080 0.06786 -0.09400
H 	H 	0.44875 0.05631 0.06569 0.06900
C 	C 	0.30550 0.94030 0.02900 0.06400
C 	C 	0.28310 0.97010 0.00668 -0.01200
H 	H 	0.29362 0.00723 0.99991 0.03800
C 	C 	0.20060 0.94400 0.97310 0.15800
C 	C 	0.16200 0.90370 0.96135 -0.17500
H 	H 	0.16253 0.86616 0.96956 0.11400
C 	C 	0.12180 0.91480 0.93777 0.09300
H 	H 	0.09757 0.88512 0.93059 0.02200
C 	C 	0.11900 0.96960 0.92569 -0.14500
C 	C 	0.15760 0.01300 0.93543 0.08100
H 	H 	0.15750 0.04963 0.92615 0.02100
C 	C 	0.19710 0.00110 0.95973 -0.16000
H 	H 	0.22117 0.03090 0.96698 0.09300
C 	C 	0.07510 0.98020 0.90170 0.37300
Cu	Cu	0.44418 0.51549 0.36105 0.91100
O 	O 	0.46780 0.57040 0.33004 -0.39100
O 	O 	0.56530 0.54450 0.32993 -0.39700
O 	O 	0.92970 0.96710 0.89206 -0.40600
O 	O 	0.95695 0.06130 0.89259 -0.41000
N 	N 	0.56810 0.74560 0.22840 -0.10400
N 	N 	0.62340 0.74770 0.21410 -0.04700
N 	N 	0.61860 0.78900 0.19400 -0.08000
N 	N 	0.72430 0.10850 0.03250 -0.08100
N 	N 	0.76630 0.10960 0.01330 -0.04500
N 	N 	0.75770 0.06480 0.99593 -0.10300
C 	C 	0.52270 0.57540 0.32022 0.35000
C 	C 	0.53480 0.62150 0.29707 -0.19100
C 	C 	0.49130 0.65350 0.28690 0.17400
H 	H 	0.45400 0.64900 0.29511 -0.00900
C 	C 	0.50020 0.69280 0.26450 -0.26500
H 	H 	0.46885 0.71515 0.25748 0.12800
C 	C 	0.55210 0.70030 0.25240 0.20800
C 	C 	0.60070 0.66800 0.26180 -0.22400
H 	H 	0.63768 0.67281 0.25328 0.12700
C 	C 	0.59010 0.62840 0.28470 0.13800
H 	H 	0.62086 0.60578 0.29206 0.00200
C 	C 	0.53350 0.78470 0.21370 -0.00600
H 	H 	0.49353 0.78979 0.21696 0.03600
C 	C 	0.56690 0.81550 0.19330 0.05900
C 	C 	0.54770 0.86070 0.17346 -0.01100
C 	C 	0.49220 0.88540 0.17375 -0.01600
H 	H 	0.46440 0.87218 0.18759 0.03800
C 	C 	0.47870 0.92730 0.15458 -0.09300
H 	H 	0.44118 0.94313 0.15550 0.06700
C 	C 	0.51850 0.95010 0.13228 0.06100
C 	C 	0.57340 0.92560 0.13250 -0.09500
H 	H 	0.60233 0.94052 0.11977 0.06900
C 	C 	0.58630 0.87770 0.15190 -0.02100
H 	H 	0.62166 0.85781 0.14982 0.05100
C 	C 	0.55170 0.01710 0.08983 0.07100
C 	C 	0.57660 0.07130 0.08913 -0.10100
H 	H 	0.56272 0.09925 0.10271 0.07100
C 	C 	0.62090 0.08760 0.06981 -0.01800
H 	H 	0.63552 0.12565 0.07041 0.04900
C 	C 	0.64320 0.04840 0.04990 -0.00400
C 	C 	0.61910 0.99050 0.04813 -0.02800
H 	H 	0.63390 0.96225 0.03499 0.04100
C 	C 	0.57090 0.97920 0.06786 -0.09700
H 	H 	0.55125 0.94369 0.06569 0.07000
C 	C 	0.69450 0.05970 0.02900 0.06100
C 	C 	0.71690 0.02990 0.00668 -0.00700
H 	H 	0.70638 0.99277 0.99991 0.03400
C 	C 	0.79940 0.05600 0.97310 0.16000
C 	C 	0.83800 0.09630 0.96135 -0.17600
H 	H 	0.83747 0.13384 0.96956 0.11400
C 	C 	0.87820 0.08520 0.93777 0.09300
H 	H 	0.90243 0.11488 0.93059 0.02200
C 	C 	0.88100 0.03040 0.92569 -0.14400
C 	C 	0.84240 0.98700 0.93543 0.08000
H 	H 	0.84250 0.95037 0.92615 0.02100
C 	C 	0.80290 0.99890 0.95973 -0.16200
H 	H 	0.77883 0.96910 0.96698 0.09300
C 	C 	0.92490 0.01980 0.90170 0.37500
Cu	Cu	0.01549 0.05582 0.86105 0.91100
O 	O 	0.07040 0.03220 0.83004 -0.39100
O 	O 	0.04450 0.93470 0.82993 -0.39700
O 	O 	0.46710 0.57030 0.39206 -0.40400
O 	O 	0.56130 0.54305 0.39259 -0.41000
N 	N 	0.24560 0.93190 0.72840 -0.10400
N 	N 	0.24770 0.87660 0.71410 -0.04700
N 	N 	0.28900 0.88140 0.69400 -0.08000
N 	N 	0.60850 0.77570 0.53250 -0.08200
N 	N 	0.60960 0.73370 0.51330 -0.04500
N 	N 	0.56480 0.74230 0.49593 -0.10300
C 	C 	0.07540 0.97730 0.82022 0.35000
C 	C 	0.12150 0.96520 0.79707 -0.19300
C 	C 	0.15350 0.00870 0.78690 0.17700
H 	H 	0.14900 0.04600 0.79511 -0.01000
C 	C 	0.19280 0.99980 0.76450 -0.26800
H 	H 	0.21515 0.03115 0.75748 0.13000
C 	C 	0.20030 0.94790 0.75240 0.21000
C 	C 	0.16800 0.89930 0.76180 -0.22500
H 	H 	0.17281 0.86232 0.75328 0.12800
C 	C 	0.12840 0.90990 0.78470 0.14000
H 	H 	0.10578 0.87914 0.79206 0.00200
C 	C 	0.28470 0.96650 0.71370 -0.00700
H 	H 	0.28979 0.00647 0.71696 0.03700
C 	C 	0.31550 0.93310 0.69330 0.05900
C 	C 	0.36070 0.95230 0.67346 -0.01300
C 	C 	0.38540 0.00780 0.67375 -0.01500
H 	H 	0.37218 0.03560 0.68759 0.03800
C 	C 	0.42730 0.02130 0.65458 -0.09200
H 	H 	0.44313 0.05882 0.65550 0.06700
C 	C 	0.45010 0.98150 0.63228 0.06100
C 	C 	0.42560 0.92660 0.63250 -0.09500
H 	H 	0.44052 0.89767 0.61977 0.06900
C 	C 	0.37770 0.91370 0.65190 -0.02100
H 	H 	0.35781 0.87834 0.64982 0.05100
C 	C 	0.51710 0.94830 0.58983 0.06900
C 	C 	0.57130 0.92340 0.58913 -0.10000
H 	H 	0.59925 0.93728 0.60271 0.07000
C 	C 	0.58760 0.87910 0.56981 -0.01700
H 	H 	0.62565 0.86448 0.57041 0.04900
C 	C 	0.54840 0.85680 0.54990 -0.00600
C 	C 	0.49050 0.88090 0.54813 -0.02700
H 	H 	0.46225 0.86610 0.53499 0.04100
C 	C 	0.47920 0.92910 0.56786 -0.09500
H 	H 	0.44369 0.94875 0.56569 0.06900
C 	C 	0.55970 0.80550 0.52900 0.06300
C 	C 	0.52990 0.78310 0.50668 -0.01100
H 	H 	0.49277 0.79362 0.49991 0.03700
C 	C 	0.55600 0.70060 0.47310 0.15800
C 	C 	0.59630 0.66200 0.46135 -0.17600
H 	H 	0.63384 0.66253 0.46956 0.11400
C 	C 	0.58520 0.62180 0.43777 0.09300
H 	H 	0.61488 0.59757 0.43059 0.02200
C 	C 	0.53040 0.61900 0.42569 -0.14500
C 	C 	0.48700 0.65760 0.43543 0.08100
H 	H 	0.45037 0.65750 0.42615 0.02000
C 	C 	0.49890 0.69710 0.45973 -0.16100
H 	H 	0.46910 0.72117 0.46698 0.09300
C 	C 	0.51980 0.57510 0.40170 0.37300
Cu	Cu	0.98451 0.94418 0.86105 0.91000
O 	O 	0.92960 0.96780 0.83004 -0.39200
O 	O 	0.95550 0.06530 0.82993 -0.39700
O 	O 	0.53290 0.42970 0.39206 -0.40400
O 	O 	0.43870 0.45695 0.39259 -0.41000
N 	N 	0.75440 0.06810 0.72840 -0.10300
N 	N 	0.75230 0.12340 0.71410 -0.04700
N 	N 	0.71100 0.11860 0.69400 -0.08000
N 	N 	0.39150 0.22430 0.53250 -0.08200
N 	N 	0.39040 0.26630 0.51330 -0.04500
N 	N 	0.43520 0.25770 0.49593 -0.10200
C 	C 	0.92460 0.02270 0.82022 0.34800
C 	C 	0.87850 0.03480 0.79707 -0.17900
C 	C 	0.84650 0.99130 0.78690 0.15500
H 	H 	0.85100 0.95400 0.79511 -0.00400
C 	C 	0.80720 0.00020 0.76450 -0.24700
H 	H 	0.78485 0.96885 0.75748 0.12100
C 	C 	0.79970 0.05210 0.75240 0.19900
C 	C 	0.83200 0.10070 0.76180 -0.21400
H 	H 	0.82719 0.13768 0.75328 0.12400
C 	C 	0.87160 0.09010 0.78470 0.12800
H 	H 	0.89422 0.12086 0.79206 0.00600
C 	C 	0.71530 0.03350 0.71370 -0.00300
H 	H 	0.71021 0.99353 0.71696 0.03400
C 	C 	0.68450 0.06690 0.69330 0.05700
C 	C 	0.63930 0.04770 0.67346 -0.00900
C 	C 	0.61460 0.99220 0.67375 -0.01800
H 	H 	0.62782 0.96440 0.68759 0.03800
C 	C 	0.57270 0.97870 0.65458 -0.09400
H 	H 	0.55687 0.94118 0.65550 0.06700
C 	C 	0.54990 0.01850 0.63228 0.06300
C 	C 	0.57440 0.07340 0.63250 -0.09400
H 	H 	0.55948 0.10233 0.61977 0.06900
C 	C 	0.62230 0.08630 0.65190 -0.02200
H 	H 	0.64219 0.12166 0.64982 0.05100
C 	C 	0.48290 0.05170 0.58983 0.07000
C 	C 	0.42870 0.07660 0.58913 -0.10100
H 	H 	0.40075 0.06272 0.60271 0.07100
C 	C 	0.41240 0.12090 0.56981 -0.01600
H 	H 	0.37435 0.13552 0.57041 0.04900
C 	C 	0.45160 0.14320 0.54990 -0.00600
C 	C 	0.50950 0.11910 0.54813 -0.02600
H 	H 	0.53775 0.13390 0.53499 0.04100
C 	C 	0.52080 0.07090 0.56786 -0.09600
H 	H 	0.55631 0.05125 0.56569 0.07000
C 	C 	0.44030 0.19450 0.52900 0.06300
C 	C 	0.47010 0.21690 0.50668 -0.01100
H 	H 	0.50723 0.20638 0.49991 0.03700
C 	C 	0.44400 0.29940 0.47310 0.15900
C 	C 	0.40370 0.33800 0.46135 -0.17600
H 	H 	0.36616 0.33747 0.46956 0.11400
C 	C 	0.41480 0.37820 0.43777 0.09300
H 	H 	0.38512 0.40243 0.43059 0.02200
C 	C 	0.46960 0.38100 0.42569 -0.14500
C 	C 	0.51300 0.34240 0.43543 0.08100
H 	H 	0.54963 0.34250 0.42615 0.02000
C 	C 	0.50110 0.30290 0.45973 -0.16100
H 	H 	0.53090 0.27883 0.46698 0.09300
C 	C 	0.48020 0.42490 0.40170 0.37300
C 	C 	0.50000 0.00000 0.11010 -0.08900
C 	C 	0.50000 0.00000 0.61010 -0.08900
Cu	Cu	0.94418 0.98451 0.13895 0.91000
O 	O 	0.96780 0.92960 0.16996 -0.39200
O 	O 	0.06530 0.95550 0.17007 -0.39700
O 	O 	0.42970 0.53290 0.60794 -0.40400
O 	O 	0.45695 0.43870 0.60741 -0.41000
N 	N 	0.06810 0.75440 0.27160 -0.10300
N 	N 	0.12340 0.75230 0.28590 -0.04700
N 	N 	0.11860 0.71100 0.30600 -0.08000
N 	N 	0.22430 0.39150 0.46750 -0.08200
N 	N 	0.26630 0.39040 0.48670 -0.04500
N 	N 	0.25770 0.43520 0.50407 -0.10200
C 	C 	0.02270 0.92460 0.17978 0.34800
C 	C 	0.03480 0.87850 0.20293 -0.17900
C 	C 	0.99130 0.84650 0.21310 0.15500
H 	H 	0.95400 0.85100 0.20489 -0.00400
C 	C 	0.00020 0.80720 0.23550 -0.24700
H 	H 	0.96885 0.78485 0.24252 0.12100
C 	C 	0.05210 0.79970 0.24760 0.19900
C 	C 	0.10070 0.83200 0.23820 -0.21400
H 	H 	0.13768 0.82719 0.24672 0.12400
C 	C 	0.09010 0.87160 0.21530 0.12800
H 	H 	0.12086 0.89422 0.20794 0.00600
C 	C 	0.03350 0.71530 0.28630 -0.00300
H 	H 	0.99353 0.71021 0.28304 0.03400
C 	C 	0.06690 0.68450 0.30670 0.05700
C 	C 	0.04770 0.63930 0.32654 -0.00900
C 	C 	0.99220 0.61460 0.32625 -0.01800
H 	H 	0.96440 0.62782 0.31241 0.03800
C 	C 	0.97870 0.57270 0.34542 -0.09400
H 	H 	0.94118 0.55687 0.34450 0.06700
C 	C 	0.01850 0.54990 0.36772 0.06300
C 	C 	0.07340 0.57440 0.36750 -0.09400
H 	H 	0.10233 0.55948 0.38023 0.06900
C 	C 	0.08630 0.62230 0.34810 -0.02200
H 	H 	0.12166 0.64219 0.35018 0.05100
C 	C 	0.05170 0.48290 0.41017 0.07000
C 	C 	0.07660 0.42870 0.41087 -0.10100
H 	H 	0.06272 0.40075 0.39729 0.07100
C 	C 	0.12090 0.41240 0.43019 -0.01600
H 	H 	0.13552 0.37435 0.42959 0.04900
C 	C 	0.14320 0.45160 0.45010 -0.00600
C 	C 	0.11910 0.50950 0.45187 -0.02600
H 	H 	0.13390 0.53775 0.46501 0.04100
C 	C 	0.07090 0.52080 0.43214 -0.09600
H 	H 	0.05125 0.55631 0.43431 0.07000
C 	C 	0.19450 0.44030 0.47100 0.06300
C 	C 	0.21690 0.47010 0.49332 -0.01100
H 	H 	0.20638 0.50723 0.50009 0.03700
C 	C 	0.29940 0.44400 0.52690 0.15900
C 	C 	0.33800 0.40370 0.53865 -0.17600
H 	H 	0.33747 0.36616 0.53044 0.11400
C 	C 	0.37820 0.41480 0.56223 0.09300
H 	H 	0.40243 0.38512 0.56941 0.02200
C 	C 	0.38100 0.46960 0.57431 -0.14500
C 	C 	0.34240 0.51300 0.56457 0.08100
H 	H 	0.34250 0.54963 0.57385 0.02000
C 	C 	0.30290 0.50110 0.54027 -0.16100
H 	H 	0.27883 0.53090 0.53302 0.09300
C 	C 	0.42490 0.48020 0.59830 0.37300
Cu	Cu	0.05582 0.01549 0.13895 0.91100
O 	O 	0.03220 0.07040 0.16996 -0.39100
O 	O 	0.93470 0.04450 0.17007 -0.39700
O 	O 	0.57030 0.46710 0.60794 -0.40400
O 	O 	0.54305 0.56130 0.60741 -0.41000
N 	N 	0.93190 0.24560 0.27160 -0.10400
N 	N 	0.87660 0.24770 0.28590 -0.04700
N 	N 	0.88140 0.28900 0.30600 -0.08000
N 	N 	0.77570 0.60850 0.46750 -0.08200
N 	N 	0.73370 0.60960 0.48670 -0.04500
N 	N 	0.74230 0.56480 0.50407 -0.10300
C 	C 	0.97730 0.07540 0.17978 0.35000
C 	C 	0.96520 0.12150 0.20293 -0.19300
C 	C 	0.00870 0.15350 0.21310 0.17700
H 	H 	0.04600 0.14900 0.20489 -0.01000
C 	C 	0.99980 0.19280 0.23550 -0.26800
H 	H 	0.03115 0.21515 0.24252 0.13000
C 	C 	0.94790 0.20030 0.24760 0.21000
C 	C 	0.89930 0.16800 0.23820 -0.22500
H 	H 	0.86232 0.17281 0.24672 0.12800
C 	C 	0.90990 0.12840 0.21530 0.14000
H 	H 	0.87914 0.10578 0.20794 0.00200
C 	C 	0.96650 0.28470 0.28630 -0.00700
H 	H 	0.00647 0.28979 0.28304 0.03700
C 	C 	0.93310 0.31550 0.30670 0.05900
C 	C 	0.95230 0.36070 0.32654 -0.01300
C 	C 	0.00780 0.38540 0.32625 -0.01500
H 	H 	0.03560 0.37218 0.31241 0.03800
C 	C 	0.02130 0.42730 0.34542 -0.09200
H 	H 	0.05882 0.44313 0.34450 0.06700
C 	C 	0.98150 0.45010 0.36772 0.06100
C 	C 	0.92660 0.42560 0.36750 -0.09500
H 	H 	0.89767 0.44052 0.38023 0.06900
C 	C 	0.91370 0.37770 0.34810 -0.02100
H 	H 	0.87834 0.35781 0.35018 0.05100
C 	C 	0.94830 0.51710 0.41017 0.06900
C 	C 	0.92340 0.57130 0.41087 -0.10000
H 	H 	0.93728 0.59925 0.39729 0.07000
C 	C 	0.87910 0.58760 0.43019 -0.01700
H 	H 	0.86448 0.62565 0.42959 0.04900
C 	C 	0.85680 0.54840 0.45010 -0.00600
C 	C 	0.88090 0.49050 0.45187 -0.02700
H 	H 	0.86610 0.46225 0.46501 0.04100
C 	C 	0.92910 0.47920 0.43214 -0.09500
H 	H 	0.94875 0.44369 0.43431 0.06900
C 	C 	0.80550 0.55970 0.47100 0.06300
C 	C 	0.78310 0.52990 0.49332 -0.01100
H 	H 	0.79362 0.49277 0.50009 0.03700
C 	C 	0.70060 0.55600 0.52690 0.15800
C 	C 	0.66200 0.59630 0.53865 -0.17600
H 	H 	0.66253 0.63384 0.53044 0.11400
C 	C 	0.62180 0.58520 0.56223 0.09300
H 	H 	0.59757 0.61488 0.56941 0.02200
C 	C 	0.61900 0.53040 0.57431 -0.14500
C 	C 	0.65760 0.48700 0.56457 0.08100
H 	H 	0.65750 0.45037 0.57385 0.02000
C 	C 	0.69710 0.49890 0.54027 -0.16100
H 	H 	0.72117 0.46910 0.53302 0.09300
C 	C 	0.57510 0.51980 0.59830 0.37300
Cu	Cu	0.48451 0.55582 0.63895 0.91100
O 	O 	0.42960 0.53220 0.66996 -0.39100
O 	O 	0.45550 0.43470 0.67007 -0.39700
O 	O 	0.03290 0.07030 0.10794 -0.40400
O 	O 	0.93870 0.04305 0.10741 -0.40900
N 	N 	0.25440 0.43190 0.77160 -0.10400
N 	N 	0.25230 0.37660 0.78590 -0.04700
N 	N 	0.21100 0.38140 0.80600 -0.08000
N 	N 	0.89150 0.27570 0.96750 -0.08200
N 	N 	0.89040 0.23370 0.98670 -0.04500
N 	N 	0.93520 0.24230 0.00407 -0.10200
C 	C 	0.42460 0.47730 0.67978 0.35000
C 	C 	0.37850 0.46520 0.70293 -0.19100
C 	C 	0.34650 0.50870 0.71310 0.17400
H 	H 	0.35100 0.54600 0.70489 -0.00900
C 	C 	0.30720 0.49980 0.73550 -0.26500
H 	H 	0.28485 0.53115 0.74252 0.12800
C 	C 	0.29970 0.44790 0.74760 0.20800
C 	C 	0.33200 0.39930 0.73820 -0.22400
H 	H 	0.32719 0.36232 0.74672 0.12800
C 	C 	0.37160 0.40990 0.71530 0.13800
H 	H 	0.39422 0.37914 0.70794 0.00200
C 	C 	0.21530 0.46650 0.78630 -0.00600
H 	H 	0.21021 0.50647 0.78304 0.03600
C 	C 	0.18450 0.43310 0.80670 0.05900
C 	C 	0.13930 0.45230 0.82654 -0.01200
C 	C 	0.11460 0.50780 0.82625 -0.01600
H 	H 	0.12782 0.53560 0.81241 0.03800
C 	C 	0.07270 0.52130 0.84542 -0.09400
H 	H 	0.05687 0.55882 0.84450 0.06800
C 	C 	0.04990 0.48150 0.86772 0.06200
C 	C 	0.07440 0.42660 0.86750 -0.09500
H 	H 	0.05948 0.39767 0.88023 0.06900
C 	C 	0.12230 0.41370 0.84810 -0.02100
H 	H 	0.14219 0.37834 0.85018 0.05100
C 	C 	0.98290 0.44830 0.91017 0.06800
C 	C 	0.92870 0.42340 0.91087 -0.10000
H 	H 	0.90075 0.43728 0.89729 0.07100
C 	C 	0.91240 0.37910 0.93019 -0.01700
H 	H 	0.87435 0.36448 0.92959 0.04900
C 	C 	0.95160 0.35680 0.95010 -0.00700
C 	C 	0.00950 0.38090 0.95187 -0.02600
H 	H 	0.03775 0.36610 0.96501 0.04100
C 	C 	0.02080 0.42910 0.93214 -0.09400
H 	H 	0.05631 0.44875 0.93431 0.06900
C 	C 	0.94030 0.30550 0.97100 0.06400
C 	C 	0.97010 0.28310 0.99332 -0.01200
H 	H 	0.00723 0.29362 0.00009 0.03800
C 	C 	0.94400 0.20060 0.02690 0.15800
C 	C 	0.90370 0.16200 0.03865 -0.17500
H 	H 	0.86616 0.16253 0.03044 0.11400
C 	C 	0.91480 0.12180 0.06223 0.09300
H 	H 	0.88512 0.09757 0.06941 0.02200
C 	C 	0.96960 0.11900 0.07431 -0.14500
C 	C 	0.01300 0.15760 0.06457 0.08100
H 	H 	0.04963 0.15750 0.07385 0.02100
C 	C 	0.00110 0.19710 0.04027 -0.16000
H 	H 	0.03090 0.22117 0.03302 0.09300
C 	C 	0.98020 0.07510 0.09830 0.37300
Cu	Cu	0.51549 0.44418 0.63895 0.91100
O 	O 	0.57040 0.46780 0.66996 -0.39100
O 	O 	0.54450 0.56530 0.67007 -0.39700
O 	O 	0.96710 0.92970 0.10794 -0.40600
O 	O 	0.06130 0.95695 0.10741 -0.41000
N 	N 	0.74560 0.56810 0.77160 -0.10400
N 	N 	0.74770 0.62340 0.78590 -0.04700
N 	N 	0.78900 0.61860 0.80600 -0.08000
N 	N 	0.10850 0.72430 0.96750 -0.08100
N 	N 	0.10960 0.76630 0.98670 -0.04500
N 	N 	0.06480 0.75770 0.00407 -0.10300
C 	C 	0.57540 0.52270 0.67978 0.35000
C 	C 	0.62150 0.53480 0.70293 -0.19100
C 	C 	0.65350 0.49130 0.71310 0.17400
H 	H 	0.64900 0.45400 0.70489 -0.00900
C 	C 	0.69280 0.50020 0.73550 -0.26500
H 	H 	0.71515 0.46885 0.74252 0.12800
C 	C 	0.70030 0.55210 0.74760 0.20800
C 	C 	0.66800 0.60070 0.73820 -0.22400
H 	H 	0.67281 0.63768 0.74672 0.12700
C 	C 	0.62840 0.59010 0.71530 0.13800
H 	H 	0.60578 0.62086 0.70794 0.00200
C 	C 	0.78470 0.53350 0.78630 -0.00600
H 	H 	0.78979 0.49353 0.78304 0.03600
C 	C 	0.81550 0.56690 0.80670 0.05900
C 	C 	0.86070 0.54770 0.82654 -0.01100
C 	C 	0.88540 0.49220 0.82625 -0.01600
H 	H 	0.87218 0.46440 0.81241 0.03800
C 	C 	0.92730 0.47870 0.84542 -0.09300
H 	H 	0.94313 0.44118 0.84450 0.06700
C 	C 	0.95010 0.51850 0.86772 0.06100
C 	C 	0.92560 0.57340 0.86750 -0.09500
H 	H 	0.94052 0.60233 0.88023 0.06900
C 	C 	0.87770 0.58630 0.84810 -0.02100
H 	H 	0.85781 0.62166 0.85018 0.05100
C 	C 	0.01710 0.55170 0.91017 0.07100
C 	C 	0.07130 0.57660 0.91087 -0.10100
H 	H 	0.09925 0.56272 0.89729 0.07100
C 	C 	0.08760 0.62090 0.93019 -0.01800
H 	H 	0.12565 0.63552 0.92959 0.04900
C 	C 	0.04840 0.64320 0.95010 -0.00400
C 	C 	0.99050 0.61910 0.95187 -0.02800
H 	H 	0.96225 0.63390 0.96501 0.04100
C 	C 	0.97920 0.57090 0.93214 -0.09700
H 	H 	0.94369 0.55125 0.93431 0.07000
C 	C 	0.05970 0.69450 0.97100 0.06100
C 	C 	0.02990 0.71690 0.99332 -0.00700
H 	H 	0.99277 0.70638 0.00009 0.03400
C 	C 	0.05600 0.79940 0.02690 0.16000
C 	C 	0.09630 0.83800 0.03865 -0.17600
H 	H 	0.13384 0.83747 0.03044 0.11400
C 	C 	0.08520 0.87820 0.06223 0.09300
H 	H 	0.11488 0.90243 0.06941 0.02200
C 	C 	0.03040 0.88100 0.07431 -0.14400
C 	C 	0.98700 0.84240 0.06457 0.08000
H 	H 	0.95037 0.84250 0.07385 0.02100
C 	C 	0.99890 0.80290 0.04027 -0.16200
H 	H 	0.96910 0.77883 0.03302 0.09300
C 	C 	0.01980 0.92490 0.09830 0.37500
C 	C 	-0.00000 0.50000 0.38990 -0.08900
C 	C 	0.00000 0.50000 0.88990 -0.08900
