data_crystal

_cell_length_a 6.71920
_cell_length_b 15.24020
_cell_length_c 15.24020
_cell_angle_alpha 62.12120
_cell_angle_beta  81.54900
_cell_angle_gamma 98.45100

_symmetry_space_group_name_	'P 1'
_symmetry_space_group_name_H-M	'P 1'

loop_
_symmetry_equiv_pos_as_xyz
  x,y,z

loop_
_atom_site_label
_atom_site_type_symbol
_atom_site_fract_x
_atom_site_fract_y
_atom_site_fract_z
_atom_site_charge
Co	Co	0.30199 0.26484 0.31420 1.15200
Co	Co	0.61619 0.31420 0.42096 1.15200
Co	Co	0.03715 0.42096 0.26484 1.15100
Co	Co	0.69801 0.73516 0.68580 1.15200
Co	Co	0.38381 0.68580 0.57904 1.15200
Co	Co	0.96285 0.57904 0.73516 1.15100
H 	H 	0.30210 0.46880 0.54780 0.08000
H 	H 	0.84990 0.54780 0.98340 0.07900
H 	H 	0.83330 0.98340 0.46880 0.08000
H 	H 	0.69790 0.53120 0.45220 0.08000
H 	H 	0.15010 0.45220 0.01660 0.07900
H 	H 	0.16670 0.01660 0.53120 0.08000
C 	C 	0.23990 0.38720 0.43740 0.39200
C 	C 	0.11350 0.44700 0.46570 -0.17900
C 	C 	0.92880 0.46700 0.43380 0.18700
C 	C 	0.17900 0.48130 0.52910 -0.09900
C 	C 	0.67730 0.43740 0.17540 0.39100
C 	C 	0.57920 0.46570 0.08730 -0.17800
C 	C 	0.36260 0.43380 0.09920 0.18600
C 	C 	0.70810 0.52910 0.98960 -0.09900
C 	C 	0.85270 0.17540 0.38720 0.39200
C 	C 	0.66650 0.08730 0.44700 -0.17900
C 	C 	0.46180 0.09920 0.46700 0.18600
C 	C 	0.69770 0.98960 0.48130 -0.09900
C 	C 	0.76010 0.61280 0.56260 0.39200
C 	C 	0.88650 0.55300 0.53430 -0.17900
C 	C 	0.07120 0.53300 0.56620 0.18700
C 	C 	0.82100 0.51870 0.47090 -0.09900
C 	C 	0.32270 0.56260 0.82460 0.39100
C 	C 	0.42080 0.53430 0.91270 -0.17800
C 	C 	0.63740 0.56620 0.90080 0.18600
C 	C 	0.29190 0.47090 0.01040 -0.09900
C 	C 	0.14730 0.82460 0.61280 0.39200
C 	C 	0.33350 0.91270 0.55300 -0.17900
C 	C 	0.53820 0.90080 0.53300 0.18600
C 	C 	0.30230 0.01040 0.51870 -0.09900
O 	O 	0.18650 0.35420 0.37950 -0.56400
O 	O 	0.39580 0.36770 0.47460 -0.45100
O 	O 	0.85290 0.44090 0.36990 -0.51800
O 	O 	0.56600 0.37950 0.26630 -0.56300
O 	O 	0.87040 0.47460 0.15770 -0.44900
O 	O 	0.22280 0.36990 0.18920 -0.51800
O 	O 	0.83230 0.26630 0.35420 -0.56300
O 	O 	0.02810 0.15770 0.36770 -0.45100
O 	O 	0.41200 0.18920 0.44090 -0.51800
O 	O 	0.81350 0.64580 0.62050 -0.56400
O 	O 	0.60420 0.63230 0.52540 -0.45100
O 	O 	0.14710 0.55910 0.63010 -0.51800
O 	O 	0.43400 0.62050 0.73370 -0.56300
O 	O 	0.12960 0.52540 0.84230 -0.44900
O 	O 	0.77720 0.63010 0.81080 -0.51800
O 	O 	0.16770 0.73370 0.64580 -0.56300
O 	O 	0.97190 0.84230 0.63230 -0.45100
O 	O 	0.58800 0.81080 0.55910 -0.51800
