data_crystal

_cell_length_a 6.71820
_cell_length_b 15.26740
_cell_length_c 15.26740
_cell_angle_alpha 62.11310
_cell_angle_beta  81.56550
_cell_angle_gamma 98.43450

_symmetry_space_group_name_	'P 1'
_symmetry_space_group_name_H-M	'P 1'

loop_
_symmetry_equiv_pos_as_xyz
  x,y,z

loop_
_atom_site_label
_atom_site_type_symbol
_atom_site_fract_x
_atom_site_fract_y
_atom_site_fract_z
_atom_site_charge
Co	Co	0.61971 0.31553 0.42005 1.15600
Co	Co	0.03976 0.42005 0.26442 1.15500
Co	Co	0.30418 0.26442 0.31553 1.15600
Co	Co	0.38029 0.68447 0.57995 1.15600
Co	Co	0.96024 0.57995 0.73558 1.15500
Co	Co	0.69582 0.73558 0.68447 1.15600
H 	H 	0.28470 0.44879 0.57032 0.06500
H 	H 	0.85502 0.57032 0.98089 0.06400
H 	H 	0.83591 0.98089 0.44879 0.06500
H 	H 	0.71530 0.55121 0.42968 0.06500
H 	H 	0.14498 0.42968 0.01911 0.06400
H 	H 	0.16409 0.01911 0.55121 0.06500
C 	C 	0.23504 0.39456 0.43257 0.41900
C 	C 	0.12235 0.45233 0.46103 -0.19900
C 	C 	0.93501 0.46870 0.43186 0.18300
C 	C 	0.16909 0.47034 0.54225 -0.08400
C 	C 	0.66761 0.43257 0.17287 0.41900
C 	C 	0.58338 0.46103 0.08664 -0.19700
C 	C 	0.36687 0.43186 0.09944 0.18200
C 	C 	0.71134 0.54225 0.98741 -0.08500
C 	C 	0.84048 0.17287 0.39456 0.42000
C 	C 	0.67002 0.08664 0.45233 -0.19900
C 	C 	0.46631 0.09944 0.46870 0.18300
C 	C 	0.69875 0.98741 0.47034 -0.08400
C 	C 	0.76496 0.60544 0.56743 0.41900
C 	C 	0.87765 0.54767 0.53897 -0.19900
C 	C 	0.06499 0.53130 0.56814 0.18300
C 	C 	0.83091 0.52966 0.45775 -0.08400
C 	C 	0.33239 0.56743 0.82713 0.41900
C 	C 	0.41662 0.53897 0.91336 -0.19700
C 	C 	0.63313 0.56814 0.90056 0.18200
C 	C 	0.28866 0.45775 0.01259 -0.08500
C 	C 	0.15952 0.82713 0.60544 0.42000
C 	C 	0.32998 0.91336 0.54767 -0.19900
C 	C 	0.53369 0.90056 0.53130 0.18300
C 	C 	0.30125 0.01259 0.52966 -0.08400
O 	O 	0.37002 0.35931 0.47997 -0.44400
O 	O 	0.16869 0.35948 0.37907 -0.56700
O 	O 	0.87163 0.43833 0.36564 -0.52800
O 	O 	0.84999 0.47997 0.16072 -0.44300
O 	O 	0.54776 0.37907 0.26145 -0.56700
O 	O 	0.23727 0.36564 0.19603 -0.52900
O 	O 	0.01071 0.16072 0.35931 -0.44500
O 	O 	0.80921 0.26145 0.35948 -0.56700
O 	O 	0.43330 0.19603 0.43833 -0.52900
O 	O 	0.62998 0.64069 0.52003 -0.44400
O 	O 	0.83131 0.64052 0.62093 -0.56700
O 	O 	0.12837 0.56167 0.63436 -0.52800
O 	O 	0.15001 0.52003 0.83928 -0.44300
O 	O 	0.45224 0.62093 0.73855 -0.56700
O 	O 	0.76273 0.63436 0.80397 -0.52900
O 	O 	0.98929 0.83928 0.64069 -0.44500
O 	O 	0.19079 0.73855 0.64052 -0.56700
O 	O 	0.56670 0.80397 0.56167 -0.52900
