data_crystal

_cell_length_a 21.98280
_cell_length_b 29.98500
_cell_length_c 10.41460
_cell_angle_alpha 90.00000
_cell_angle_beta  90.00000
_cell_angle_gamma 90.00000

_symmetry_space_group_name_	'P 1'
_symmetry_space_group_name_H-M	'P 1'

loop_
_symmetry_equiv_pos_as_xyz
  x,y,z

loop_
_atom_site_label
_atom_site_type_symbol
_atom_site_fract_x
_atom_site_fract_y
_atom_site_fract_z
_atom_site_charge
C 	C 	0.42087 0.55930 0.06030 0.41600
C 	C 	0.38062 0.59777 0.09810 -0.15100
C 	C 	0.35845 0.60086 0.22220 0.07400
H 	H 	0.36730 0.57850 0.28130 0.01300
C 	C 	0.32321 0.63693 0.25890 -0.14600
H 	H 	0.30800 0.63840 0.34210 0.08400
C 	C 	0.31044 0.67079 0.17310 0.08100
C 	C 	0.36687 0.63114 0.01130 0.07300
H 	H 	0.38060 0.62910 0.92700 0.01500
C 	C 	0.33271 0.66773 0.04940 -0.14100
H 	H 	0.32470 0.69050 0.99100 0.08200
C 	C 	0.27668 0.71142 0.21340 0.01500
O 	O 	0.43605 0.53263 0.14636 -0.48900
O 	O 	0.43666 0.55730 0.94432 -0.48300
C 	C 	0.92087 0.05930 0.56030 0.41000
C 	C 	0.88062 0.09777 0.59810 -0.12900
C 	C 	0.85845 0.10086 0.72220 0.07000
H 	H 	0.86730 0.07850 0.78130 0.02700
C 	C 	0.82321 0.13693 0.75890 -0.13300
H 	H 	0.80800 0.13840 0.84210 0.08600
C 	C 	0.81044 0.17079 0.67310 0.08100
C 	C 	0.86687 0.13114 0.51130 0.06800
H 	H 	0.88060 0.12910 0.42700 0.03100
C 	C 	0.83271 0.16773 0.54940 -0.12800
H 	H 	0.82470 0.19050 0.49100 0.08800
C 	C 	0.77668 0.21142 0.71340 0.02100
O 	O 	0.93605 0.03263 0.64636 -0.44500
O 	O 	0.93666 0.05730 0.44432 -0.43900
C 	C 	0.57913 0.94070 0.06030 0.41800
C 	C 	0.61938 0.90223 0.09810 -0.15000
C 	C 	0.64155 0.89914 0.22220 0.07700
H 	H 	0.63270 0.92150 0.28130 0.01400
C 	C 	0.67679 0.86307 0.25890 -0.14700
H 	H 	0.69200 0.86160 0.34210 0.08500
C 	C 	0.68956 0.82921 0.17310 0.08400
C 	C 	0.63313 0.86886 0.01130 0.07600
H 	H 	0.61940 0.87090 0.92700 0.01600
C 	C 	0.66729 0.83227 0.04940 -0.14100
H 	H 	0.67530 0.80950 0.99100 0.08600
C 	C 	0.72332 0.78858 0.21340 0.01500
O 	O 	0.56395 0.96737 0.14636 -0.48800
O 	O 	0.56334 0.94270 0.94432 -0.48200
C 	C 	0.07913 0.44070 0.56030 0.41800
C 	C 	0.11938 0.40223 0.59810 -0.16700
C 	C 	0.14155 0.39914 0.72220 0.07900
H 	H 	0.13270 0.42150 0.78130 0.00300
C 	C 	0.17679 0.36307 0.75890 -0.15700
H 	H 	0.19200 0.36160 0.84210 0.08200
C 	C 	0.18956 0.32921 0.67310 0.08400
C 	C 	0.13313 0.36886 0.51130 0.07700
H 	H 	0.11940 0.37090 0.42700 0.00200
C 	C 	0.16729 0.33227 0.54940 -0.15300
H 	H 	0.17530 0.30950 0.49100 0.08200
C 	C 	0.22332 0.28858 0.71340 0.01000
O 	O 	0.06395 0.46737 0.64636 -0.51500
O 	O 	0.06334 0.44270 0.44432 -0.50900
C 	C 	0.57913 0.05930 0.93970 0.41800
C 	C 	0.61938 0.09777 0.90190 -0.15000
C 	C 	0.64155 0.10086 0.77780 0.07700
H 	H 	0.63270 0.07850 0.71870 0.01400
C 	C 	0.67679 0.13693 0.74110 -0.14700
H 	H 	0.69200 0.13840 0.65790 0.08500
C 	C 	0.68956 0.17079 0.82690 0.08400
C 	C 	0.63313 0.13114 0.98870 0.07600
H 	H 	0.61940 0.12910 0.07300 0.01600
C 	C 	0.66729 0.16773 0.95060 -0.14100
H 	H 	0.67530 0.19050 0.00900 0.08600
C 	C 	0.72332 0.21142 0.78660 0.01500
O 	O 	0.56395 0.03263 0.85364 -0.48800
O 	O 	0.56334 0.05730 0.05568 -0.48200
C 	C 	0.07913 0.55930 0.43970 0.41800
C 	C 	0.11938 0.59777 0.40190 -0.16700
C 	C 	0.14155 0.60086 0.27780 0.07900
H 	H 	0.13270 0.57850 0.21870 0.00300
C 	C 	0.17679 0.63693 0.24110 -0.15700
H 	H 	0.19200 0.63840 0.15790 0.08200
C 	C 	0.18956 0.67079 0.32690 0.08400
C 	C 	0.13313 0.63114 0.48870 0.07700
H 	H 	0.11940 0.62910 0.57300 0.00200
C 	C 	0.16729 0.66773 0.45060 -0.15300
H 	H 	0.17530 0.69050 0.50900 0.08200
C 	C 	0.22332 0.71142 0.28660 0.01000
O 	O 	0.06395 0.53263 0.35364 -0.51500
O 	O 	0.06334 0.55730 0.55568 -0.50900
C 	C 	0.42087 0.44070 0.93970 0.41700
C 	C 	0.38062 0.40223 0.90190 -0.15000
C 	C 	0.35845 0.39914 0.77780 0.07500
H 	H 	0.36730 0.42150 0.71870 0.01400
C 	C 	0.32321 0.36307 0.74110 -0.14600
H 	H 	0.30800 0.36160 0.65790 0.08400
C 	C 	0.31044 0.32921 0.82690 0.08100
C 	C 	0.36687 0.36886 0.98870 0.07300
H 	H 	0.38060 0.37090 0.07300 0.01500
C 	C 	0.33271 0.33227 0.95060 -0.14100
H 	H 	0.32470 0.30950 0.00900 0.08200
C 	C 	0.27668 0.28858 0.78660 0.01500
O 	O 	0.43605 0.46737 0.85364 -0.48900
O 	O 	0.43666 0.44270 0.05568 -0.48300
C 	C 	0.92087 0.94070 0.43970 0.41000
C 	C 	0.88062 0.90223 0.40190 -0.12900
C 	C 	0.85845 0.89914 0.27780 0.07000
H 	H 	0.86730 0.92150 0.21870 0.02700
C 	C 	0.82321 0.86307 0.24110 -0.13300
H 	H 	0.80800 0.86160 0.15790 0.08600
C 	C 	0.81044 0.82921 0.32690 0.08100
C 	C 	0.86687 0.86886 0.48870 0.06800
H 	H 	0.88060 0.87090 0.57300 0.03100
C 	C 	0.83271 0.83227 0.45060 -0.12800
H 	H 	0.82470 0.80950 0.50900 0.08800
C 	C 	0.77668 0.78858 0.28660 0.02100
O 	O 	0.93605 0.96737 0.35364 -0.44500
O 	O 	0.93666 0.94270 0.55568 -0.43900
C 	C 	0.57913 0.44070 0.93970 0.41800
C 	C 	0.61938 0.40223 0.90190 -0.15000
C 	C 	0.64155 0.39914 0.77780 0.07700
H 	H 	0.63270 0.42150 0.71870 0.01400
C 	C 	0.67679 0.36307 0.74110 -0.14700
H 	H 	0.69200 0.36160 0.65790 0.08500
C 	C 	0.68956 0.32921 0.82690 0.08400
C 	C 	0.63313 0.36886 0.98870 0.07500
H 	H 	0.61940 0.37090 0.07300 0.01600
C 	C 	0.66729 0.33227 0.95060 -0.14100
H 	H 	0.67530 0.30950 0.00900 0.08600
C 	C 	0.72332 0.28858 0.78660 0.01500
O 	O 	0.56395 0.46737 0.85364 -0.48800
O 	O 	0.56334 0.44270 0.05568 -0.48200
C 	C 	0.07913 0.94070 0.43970 0.41800
C 	C 	0.11938 0.90223 0.40190 -0.16600
C 	C 	0.14155 0.89914 0.27780 0.07900
H 	H 	0.13270 0.92150 0.21870 0.00300
C 	C 	0.17679 0.86307 0.24110 -0.15700
H 	H 	0.19200 0.86160 0.15790 0.08200
C 	C 	0.18956 0.82921 0.32690 0.08400
C 	C 	0.13313 0.86886 0.48870 0.07700
H 	H 	0.11940 0.87090 0.57300 0.00200
C 	C 	0.16729 0.83227 0.45060 -0.15300
H 	H 	0.17530 0.80950 0.50900 0.08100
C 	C 	0.22332 0.78858 0.28660 0.01000
O 	O 	0.06395 0.96737 0.35364 -0.51500
O 	O 	0.06334 0.94270 0.55568 -0.50900
C 	C 	0.42087 0.05930 0.93970 0.41800
C 	C 	0.38062 0.09777 0.90190 -0.15100
C 	C 	0.35845 0.10086 0.77780 0.07500
H 	H 	0.36730 0.07850 0.71870 0.01400
C 	C 	0.32321 0.13693 0.74110 -0.14600
H 	H 	0.30800 0.13840 0.65790 0.08400
C 	C 	0.31044 0.17079 0.82690 0.08100
C 	C 	0.36687 0.13114 0.98870 0.07400
H 	H 	0.38060 0.12910 0.07300 0.01500
C 	C 	0.33271 0.16773 0.95060 -0.14100
H 	H 	0.32470 0.19050 0.00900 0.08200
C 	C 	0.27668 0.21142 0.78660 0.01500
O 	O 	0.43605 0.03263 0.85364 -0.48900
O 	O 	0.43666 0.05730 0.05568 -0.48300
C 	C 	0.92087 0.55930 0.43970 0.41000
C 	C 	0.88062 0.59777 0.40190 -0.12900
C 	C 	0.85845 0.60086 0.27780 0.07000
H 	H 	0.86730 0.57850 0.21870 0.02700
C 	C 	0.82321 0.63693 0.24110 -0.13300
H 	H 	0.80800 0.63840 0.15790 0.08600
C 	C 	0.81044 0.67079 0.32690 0.08100
C 	C 	0.86687 0.63114 0.48870 0.06800
H 	H 	0.88060 0.62910 0.57300 0.03100
C 	C 	0.83271 0.66773 0.45060 -0.12800
H 	H 	0.82470 0.69050 0.50900 0.08800
C 	C 	0.77668 0.71142 0.28660 0.02100
O 	O 	0.93605 0.53263 0.35364 -0.44500
O 	O 	0.93666 0.55730 0.55568 -0.43900
C 	C 	0.42087 0.94070 0.06030 0.41800
C 	C 	0.38062 0.90223 0.09810 -0.15100
C 	C 	0.35845 0.89914 0.22220 0.07500
H 	H 	0.36730 0.92150 0.28130 0.01400
C 	C 	0.32321 0.86307 0.25890 -0.14600
H 	H 	0.30800 0.86160 0.34210 0.08400
C 	C 	0.31044 0.82921 0.17310 0.08100
C 	C 	0.36687 0.86886 0.01130 0.07400
H 	H 	0.38060 0.87090 0.92700 0.01500
C 	C 	0.33271 0.83227 0.04940 -0.14100
H 	H 	0.32470 0.80950 0.99100 0.08200
C 	C 	0.27668 0.78858 0.21340 0.01500
O 	O 	0.43605 0.96737 0.14636 -0.48900
O 	O 	0.43666 0.94270 0.94432 -0.48300
C 	C 	0.92087 0.44070 0.56030 0.41000
C 	C 	0.88062 0.40223 0.59810 -0.12900
C 	C 	0.85845 0.39914 0.72220 0.07000
H 	H 	0.86730 0.42150 0.78130 0.02700
C 	C 	0.82321 0.36307 0.75890 -0.13300
H 	H 	0.80800 0.36160 0.84210 0.08600
C 	C 	0.81044 0.32921 0.67310 0.08100
C 	C 	0.86687 0.36886 0.51130 0.06800
H 	H 	0.88060 0.37090 0.42700 0.03100
C 	C 	0.83271 0.33227 0.54940 -0.12800
H 	H 	0.82470 0.30950 0.49100 0.08800
C 	C 	0.77668 0.28858 0.71340 0.02100
O 	O 	0.93605 0.46737 0.64636 -0.44500
O 	O 	0.93666 0.44270 0.44432 -0.43900
C 	C 	0.57913 0.55930 0.06030 0.41800
C 	C 	0.61938 0.59777 0.09810 -0.15000
C 	C 	0.64155 0.60086 0.22220 0.07700
H 	H 	0.63270 0.57850 0.28130 0.01400
C 	C 	0.67679 0.63693 0.25890 -0.14700
H 	H 	0.69200 0.63840 0.34210 0.08500
C 	C 	0.68956 0.67079 0.17310 0.08400
C 	C 	0.63313 0.63114 0.01130 0.07500
H 	H 	0.61940 0.62910 0.92700 0.01600
C 	C 	0.66729 0.66773 0.04940 -0.14100
H 	H 	0.67530 0.69050 0.99100 0.08600
C 	C 	0.72332 0.71142 0.21340 0.01500
O 	O 	0.56395 0.53263 0.14636 -0.48800
O 	O 	0.56334 0.55730 0.94432 -0.48200
C 	C 	0.07913 0.05930 0.56030 0.41800
C 	C 	0.11938 0.09777 0.59810 -0.16600
C 	C 	0.14155 0.10086 0.72220 0.07900
H 	H 	0.13270 0.07850 0.78130 0.00300
C 	C 	0.17679 0.13693 0.75890 -0.15700
H 	H 	0.19200 0.13840 0.84210 0.08200
C 	C 	0.18956 0.17079 0.67310 0.08400
C 	C 	0.13313 0.13114 0.51130 0.07700
H 	H 	0.11940 0.12910 0.42700 0.00200
C 	C 	0.16729 0.16773 0.54940 -0.15300
H 	H 	0.17530 0.19050 0.49100 0.08100
C 	C 	0.22332 0.21142 0.71340 0.01000
O 	O 	0.06395 0.03263 0.64636 -0.51500
O 	O 	0.06334 0.05730 0.44432 -0.50900
Zn	Zn	0.50000 0.48408 0.13390 1.19700
Zn	Zn	0.00000 0.98408 0.63390 1.16600
Zn	Zn	0.50000 0.01592 0.13390 1.19700
Zn	Zn	0.00000 0.51592 0.63390 1.16500
Zn	Zn	0.50000 0.98408 0.86610 1.19700
Zn	Zn	0.00000 0.48408 0.36610 1.16500
Zn	Zn	0.50000 0.51592 0.86610 1.19700
Zn	Zn	-0.00000 0.01592 0.36610 1.16600
N 	N 	0.30193 0.75000 0.17530 -0.10900
N 	N 	0.80193 0.25000 0.67530 -0.10300
N 	N 	0.69807 0.75000 0.17530 -0.10700
N 	N 	0.19807 0.25000 0.67530 -0.11200
N 	N 	0.69807 0.25000 0.82470 -0.10700
N 	N 	0.19807 0.75000 0.32470 -0.11200
N 	N 	0.30193 0.25000 0.82470 -0.10900
N 	N 	0.80193 0.75000 0.32470 -0.10300
