data_crystal

_cell_length_a 23.21100
_cell_length_b 23.21100
_cell_length_c 23.21100
_cell_angle_alpha 90.00000
_cell_angle_beta  90.00000
_cell_angle_gamma 90.00000

_symmetry_space_group_name_	'P 1'
_symmetry_space_group_name_H-M	'P 1'

loop_
_symmetry_equiv_pos_as_xyz
  x,y,z

loop_
_atom_site_label
_atom_site_type_symbol
_atom_site_fract_x
_atom_site_fract_y
_atom_site_fract_z
_atom_site_charge
Cu	Cu	0.69352 0.50000 -0.00000 0.88600
Cu	Cu	0.30648 0.50000 -0.00000 0.88600
Cu	Cu	0.00000 0.69352 0.50000 0.88600
Cu	Cu	0.00000 0.30648 0.50000 0.88600
Cu	Cu	0.50000 0.00000 0.69352 0.88700
Cu	Cu	0.50000 0.00000 0.30648 0.88700
Cu	Cu	0.00000 0.19352 0.50000 0.88400
Cu	Cu	-0.00000 0.80648 0.50000 0.89000
Cu	Cu	0.19352 0.50000 -0.00000 0.88400
Cu	Cu	0.80648 0.50000 -0.00000 0.89000
Cu	Cu	0.50000 0.00000 0.80648 0.89000
Cu	Cu	0.50000 0.00000 0.19352 0.88400
H 	H 	0.66550 0.62980 0.87110 -0.00700
H 	H 	0.66480 0.69570 0.79670 0.13200
H 	H 	0.33450 0.37020 0.87110 -0.00900
H 	H 	0.33520 0.30430 0.79670 0.13100
H 	H 	0.33450 0.62980 0.12890 -0.02400
H 	H 	0.33520 0.69570 0.20330 0.13200
H 	H 	0.66550 0.37020 0.12890 -0.02400
H 	H 	0.66480 0.30430 0.20330 0.13100
H 	H 	0.87110 0.66550 0.62980 -0.00700
H 	H 	0.79670 0.66480 0.69570 0.13200
H 	H 	0.87110 0.33450 0.37020 -0.00900
H 	H 	0.79670 0.33520 0.30430 0.13100
H 	H 	0.12890 0.33450 0.62980 -0.02400
H 	H 	0.20330 0.33520 0.69570 0.13200
H 	H 	0.12890 0.66550 0.37020 -0.02400
H 	H 	0.20330 0.66480 0.30430 0.13100
H 	H 	0.62980 0.87110 0.66550 -0.00700
H 	H 	0.69570 0.79670 0.66480 0.13200
H 	H 	0.37020 0.87110 0.33450 -0.00900
H 	H 	0.30430 0.79670 0.33520 0.13100
H 	H 	0.62980 0.12890 0.33450 -0.02400
H 	H 	0.69570 0.20330 0.33520 0.13200
H 	H 	0.37020 0.12890 0.66550 -0.02400
H 	H 	0.30430 0.20330 0.66480 0.13100
H 	H 	0.12980 0.16550 0.62890 -0.03000
H 	H 	0.19570 0.16480 0.70330 0.12600
H 	H 	0.87020 0.83450 0.62890 -0.00000
H 	H 	0.80430 0.83520 0.70330 0.14000
H 	H 	0.12980 0.83450 0.37110 -0.01800
H 	H 	0.19570 0.83520 0.29670 0.13400
H 	H 	0.87020 0.16550 0.37110 -0.01500
H 	H 	0.80430 0.16480 0.29670 0.12500
H 	H 	0.16550 0.37110 0.87020 -0.01500
H 	H 	0.16480 0.29670 0.80430 0.12500
H 	H 	0.83450 0.37110 0.12980 -0.01800
H 	H 	0.83520 0.29670 0.19570 0.13400
H 	H 	0.83450 0.62890 0.87020 -0.00000
H 	H 	0.83520 0.70330 0.80430 0.14000
H 	H 	0.16550 0.62890 0.12980 -0.03000
H 	H 	0.16480 0.70330 0.19570 0.12600
H 	H 	0.37110 0.12980 0.83450 -0.01800
H 	H 	0.29670 0.19570 0.83520 0.13400
H 	H 	0.37110 0.87020 0.16550 -0.01500
H 	H 	0.29670 0.80430 0.16480 0.12500
H 	H 	0.62890 0.12980 0.16550 -0.03000
H 	H 	0.70330 0.19570 0.16480 0.12600
H 	H 	0.62890 0.87020 0.83450 -0.00000
H 	H 	0.70330 0.80430 0.83520 0.14000
H 	H 	0.33450 0.37020 0.12890 -0.02500
H 	H 	0.33520 0.30430 0.20330 0.13100
H 	H 	0.66550 0.62980 0.12890 -0.02300
H 	H 	0.66480 0.69570 0.20330 0.13200
H 	H 	0.66550 0.37020 0.87110 -0.00700
H 	H 	0.66480 0.30430 0.79670 0.13100
H 	H 	0.33450 0.62980 0.87110 -0.00800
H 	H 	0.33520 0.69570 0.79670 0.13200
H 	H 	0.12890 0.33450 0.37020 -0.02500
H 	H 	0.20330 0.33520 0.30430 0.13100
H 	H 	0.12890 0.66550 0.62980 -0.02300
H 	H 	0.20330 0.66480 0.69570 0.13200
H 	H 	0.87110 0.66550 0.37020 -0.00700
H 	H 	0.79670 0.66480 0.30430 0.13100
H 	H 	0.87110 0.33450 0.62980 -0.00800
H 	H 	0.79670 0.33520 0.69570 0.13200
H 	H 	0.37020 0.12890 0.33450 -0.02500
H 	H 	0.30430 0.20330 0.33520 0.13100
H 	H 	0.62980 0.12890 0.66550 -0.02300
H 	H 	0.69570 0.20330 0.66480 0.13200
H 	H 	0.37020 0.87110 0.66550 -0.00700
H 	H 	0.30430 0.79670 0.66480 0.13100
H 	H 	0.62980 0.87110 0.33450 -0.00800
H 	H 	0.69570 0.79670 0.33520 0.13200
H 	H 	0.87020 0.83450 0.37110 -0.00200
H 	H 	0.80430 0.83520 0.29670 0.13600
H 	H 	0.12980 0.16550 0.37110 -0.03100
H 	H 	0.19570 0.16480 0.29670 0.12200
H 	H 	0.87020 0.16550 0.62890 -0.01400
H 	H 	0.80430 0.16480 0.70330 0.12900
H 	H 	0.12980 0.83450 0.62890 -0.01600
H 	H 	0.19570 0.83520 0.70330 0.13800
H 	H 	0.83450 0.62890 0.12980 -0.01600
H 	H 	0.83520 0.70330 0.19570 0.13800
H 	H 	0.16550 0.62890 0.87020 -0.01400
H 	H 	0.16480 0.70330 0.80430 0.12900
H 	H 	0.16550 0.37110 0.12980 -0.03100
H 	H 	0.16480 0.29670 0.19570 0.12200
H 	H 	0.83450 0.37110 0.87020 -0.00200
H 	H 	0.83520 0.29670 0.80430 0.13600
H 	H 	0.62890 0.87020 0.16550 -0.01400
H 	H 	0.70330 0.80430 0.16480 0.12900
H 	H 	0.62890 0.12980 0.83450 -0.01600
H 	H 	0.70330 0.19570 0.83520 0.13800
H 	H 	0.37110 0.87020 0.83450 -0.00200
H 	H 	0.29670 0.80430 0.83520 0.13600
H 	H 	0.37110 0.12980 0.16550 -0.03100
H 	H 	0.29670 0.19570 0.16480 0.12200
C 	C 	0.70040 0.64280 0.85650 0.17800
C 	C 	0.69970 0.68400 0.81260 -0.26500
C 	C 	0.29960 0.35720 0.85650 0.17700
C 	C 	0.30030 0.31600 0.81260 -0.26700
C 	C 	0.29960 0.64280 0.14350 0.19000
C 	C 	0.30030 0.68400 0.18740 -0.28300
C 	C 	0.70040 0.35720 0.14350 0.18700
C 	C 	0.69970 0.31600 0.18740 -0.28000
C 	C 	0.85650 0.70040 0.64280 0.17800
C 	C 	0.81260 0.69970 0.68400 -0.26500
C 	C 	0.85650 0.29960 0.35720 0.17700
C 	C 	0.81260 0.30030 0.31600 -0.26700
C 	C 	0.14350 0.29960 0.64280 0.19000
C 	C 	0.18740 0.30030 0.68400 -0.28300
C 	C 	0.14350 0.70040 0.35720 0.18700
C 	C 	0.18740 0.69970 0.31600 -0.28000
C 	C 	0.64280 0.85650 0.70040 0.17800
C 	C 	0.68400 0.81260 0.69970 -0.26500
C 	C 	0.35720 0.85650 0.29960 0.17700
C 	C 	0.31600 0.81260 0.30030 -0.26700
C 	C 	0.64280 0.14350 0.29960 0.19000
C 	C 	0.68400 0.18740 0.30030 -0.28300
C 	C 	0.35720 0.14350 0.70040 0.18700
C 	C 	0.31600 0.18740 0.69970 -0.28000
C 	C 	0.14280 0.20040 0.64350 0.18900
C 	C 	0.18400 0.19970 0.68740 -0.28400
C 	C 	0.85720 0.79960 0.64350 0.17900
C 	C 	0.81600 0.80030 0.68740 -0.26400
C 	C 	0.14280 0.79960 0.35650 0.18700
C 	C 	0.18400 0.80030 0.31260 -0.28000
C 	C 	0.85720 0.20040 0.35650 0.17700
C 	C 	0.81600 0.19970 0.31260 -0.26900
C 	C 	0.20040 0.35650 0.85720 0.17700
C 	C 	0.19970 0.31260 0.81600 -0.26900
C 	C 	0.79960 0.35650 0.14280 0.18700
C 	C 	0.80030 0.31260 0.18400 -0.28000
C 	C 	0.79960 0.64350 0.85720 0.17900
C 	C 	0.80030 0.68740 0.81600 -0.26400
C 	C 	0.20040 0.64350 0.14280 0.18900
C 	C 	0.19970 0.68740 0.18400 -0.28400
C 	C 	0.35650 0.14280 0.79960 0.18700
C 	C 	0.31260 0.18400 0.80030 -0.28000
C 	C 	0.35650 0.85720 0.20040 0.17700
C 	C 	0.31260 0.81600 0.19970 -0.26900
C 	C 	0.64350 0.14280 0.20040 0.18900
C 	C 	0.68740 0.18400 0.19970 -0.28400
C 	C 	0.64350 0.85720 0.79960 0.17900
C 	C 	0.68740 0.81600 0.80030 -0.26400
C 	C 	0.29960 0.35720 0.14350 0.18800
C 	C 	0.30030 0.31600 0.18740 -0.28300
C 	C 	0.70040 0.64280 0.14350 0.18900
C 	C 	0.69970 0.68400 0.18740 -0.28000
C 	C 	0.70040 0.35720 0.85650 0.17600
C 	C 	0.69970 0.31600 0.81260 -0.26500
C 	C 	0.29960 0.64280 0.85650 0.17900
C 	C 	0.30030 0.68400 0.81260 -0.26700
C 	C 	0.14350 0.29960 0.35720 0.18800
C 	C 	0.18740 0.30030 0.31600 -0.28300
C 	C 	0.14350 0.70040 0.64280 0.18900
C 	C 	0.18740 0.69970 0.68400 -0.28000
C 	C 	0.85650 0.70040 0.35720 0.17600
C 	C 	0.81260 0.69970 0.31600 -0.26500
C 	C 	0.85650 0.29960 0.64280 0.17900
C 	C 	0.81260 0.30030 0.68400 -0.26700
C 	C 	0.35720 0.14350 0.29960 0.18800
C 	C 	0.31600 0.18740 0.30030 -0.28300
C 	C 	0.64280 0.14350 0.70040 0.18900
C 	C 	0.68400 0.18740 0.69970 -0.28000
C 	C 	0.35720 0.85650 0.70040 0.17600
C 	C 	0.31600 0.81260 0.69970 -0.26500
C 	C 	0.64280 0.85650 0.29960 0.17900
C 	C 	0.68400 0.81260 0.30030 -0.26700
C 	C 	0.85720 0.79960 0.35650 0.17700
C 	C 	0.81600 0.80030 0.31260 -0.26400
C 	C 	0.14280 0.20040 0.35650 0.18700
C 	C 	0.18400 0.19970 0.31260 -0.28400
C 	C 	0.85720 0.20040 0.64350 0.17900
C 	C 	0.81600 0.19970 0.68740 -0.26800
C 	C 	0.14280 0.79960 0.64350 0.18900
C 	C 	0.18400 0.80030 0.68740 -0.27900
C 	C 	0.79960 0.64350 0.14280 0.18900
C 	C 	0.80030 0.68740 0.18400 -0.27900
C 	C 	0.20040 0.64350 0.85720 0.17900
C 	C 	0.19970 0.68740 0.81600 -0.26800
C 	C 	0.20040 0.35650 0.14280 0.18700
C 	C 	0.19970 0.31260 0.18400 -0.28400
C 	C 	0.79960 0.35650 0.85720 0.17700
C 	C 	0.80030 0.31260 0.81600 -0.26400
C 	C 	0.64350 0.85720 0.20040 0.17900
C 	C 	0.68740 0.81600 0.19970 -0.26800
C 	C 	0.64350 0.14280 0.79960 0.18900
C 	C 	0.68740 0.18400 0.80030 -0.27900
C 	C 	0.35650 0.85720 0.79960 0.17700
C 	C 	0.31260 0.81600 0.80030 -0.26400
C 	C 	0.35650 0.14280 0.20040 0.18700
C 	C 	0.31260 0.18400 0.19970 -0.28400
C 	C 	0.75000 0.57760 0.92240 0.43200
C 	C 	0.75000 0.62100 0.87900 -0.23300
C 	C 	0.75000 0.70690 0.79310 0.23400
C 	C 	0.25000 0.42240 0.92240 0.43300
C 	C 	0.25000 0.37900 0.87900 -0.24000
C 	C 	0.25000 0.29310 0.79310 0.23000
C 	C 	0.25000 0.57760 0.07760 0.44400
C 	C 	0.25000 0.62100 0.12100 -0.26500
C 	C 	0.25000 0.70690 0.20690 0.23700
C 	C 	0.75000 0.42240 0.07760 0.44200
C 	C 	0.75000 0.37900 0.12100 -0.26000
C 	C 	0.75000 0.29310 0.20690 0.23600
C 	C 	0.92240 0.75000 0.57760 0.43200
C 	C 	0.87900 0.75000 0.62100 -0.23300
C 	C 	0.79310 0.75000 0.70690 0.23400
C 	C 	0.92240 0.25000 0.42240 0.43300
C 	C 	0.87900 0.25000 0.37900 -0.24000
C 	C 	0.79310 0.25000 0.29310 0.23000
C 	C 	0.07760 0.25000 0.57760 0.44400
C 	C 	0.12100 0.25000 0.62100 -0.26500
C 	C 	0.20690 0.25000 0.70690 0.23700
C 	C 	0.07760 0.75000 0.42240 0.44200
C 	C 	0.12100 0.75000 0.37900 -0.26000
C 	C 	0.20690 0.75000 0.29310 0.23600
C 	C 	0.57760 0.92240 0.75000 0.43200
C 	C 	0.62100 0.87900 0.75000 -0.23300
C 	C 	0.70690 0.79310 0.75000 0.23400
C 	C 	0.42240 0.92240 0.25000 0.43300
C 	C 	0.37900 0.87900 0.25000 -0.24000
C 	C 	0.29310 0.79310 0.25000 0.23000
C 	C 	0.57760 0.07760 0.25000 0.44400
C 	C 	0.62100 0.12100 0.25000 -0.26500
C 	C 	0.70690 0.20690 0.25000 0.23700
C 	C 	0.42240 0.07760 0.75000 0.44200
C 	C 	0.37900 0.12100 0.75000 -0.26000
C 	C 	0.29310 0.20690 0.75000 0.23600
C 	C 	0.25000 0.42240 0.07760 0.44400
C 	C 	0.25000 0.37900 0.12100 -0.26600
C 	C 	0.25000 0.29310 0.20690 0.23500
C 	C 	0.75000 0.57760 0.07760 0.44200
C 	C 	0.75000 0.62100 0.12100 -0.25900
C 	C 	0.75000 0.70690 0.20690 0.23900
C 	C 	0.75000 0.42240 0.92240 0.43100
C 	C 	0.75000 0.37900 0.87900 -0.23400
C 	C 	0.75000 0.29310 0.79310 0.23100
C 	C 	0.25000 0.57760 0.92240 0.43400
C 	C 	0.25000 0.62100 0.87900 -0.23900
C 	C 	0.25000 0.70690 0.79310 0.23200
C 	C 	0.07760 0.25000 0.42240 0.44400
C 	C 	0.12100 0.25000 0.37900 -0.26600
C 	C 	0.20690 0.25000 0.29310 0.23500
C 	C 	0.07760 0.75000 0.57760 0.44200
C 	C 	0.12100 0.75000 0.62100 -0.25900
C 	C 	0.20690 0.75000 0.70690 0.23900
C 	C 	0.92240 0.75000 0.42240 0.43100
C 	C 	0.87900 0.75000 0.37900 -0.23400
C 	C 	0.79310 0.75000 0.29310 0.23100
C 	C 	0.92240 0.25000 0.57760 0.43400
C 	C 	0.87900 0.25000 0.62100 -0.23900
C 	C 	0.79310 0.25000 0.70690 0.23200
C 	C 	0.42240 0.07760 0.25000 0.44400
C 	C 	0.37900 0.12100 0.25000 -0.26600
C 	C 	0.29310 0.20690 0.25000 0.23500
C 	C 	0.57760 0.07760 0.75000 0.44200
C 	C 	0.62100 0.12100 0.75000 -0.25900
C 	C 	0.70690 0.20690 0.75000 0.23900
C 	C 	0.42240 0.92240 0.75000 0.43100
C 	C 	0.37900 0.87900 0.75000 -0.23400
C 	C 	0.29310 0.79310 0.75000 0.23100
C 	C 	0.57760 0.92240 0.25000 0.43400
C 	C 	0.62100 0.87900 0.25000 -0.23900
C 	C 	0.70690 0.79310 0.25000 0.23200
N 	N 	0.75000 0.75000 0.75000 -0.22000
N 	N 	0.25000 0.25000 0.75000 -0.22400
N 	N 	0.25000 0.75000 0.25000 -0.22400
N 	N 	0.75000 0.25000 0.25000 -0.22400
N 	N 	0.25000 0.25000 0.25000 -0.22600
N 	N 	0.75000 0.75000 0.25000 -0.22200
N 	N 	0.75000 0.25000 0.75000 -0.22200
N 	N 	0.25000 0.75000 0.75000 -0.22200
O 	O 	0.70272 0.55900 0.94103 -0.39800
O 	O 	0.29728 0.44100 0.94103 -0.40000
O 	O 	0.29728 0.55900 0.05897 -0.44200
O 	O 	0.70272 0.44100 0.05897 -0.44200
O 	O 	0.94103 0.70272 0.55900 -0.39800
O 	O 	0.94103 0.29728 0.44100 -0.40000
O 	O 	0.05897 0.29728 0.55900 -0.44200
O 	O 	0.05897 0.70272 0.44100 -0.44200
O 	O 	0.55900 0.94103 0.70272 -0.39800
O 	O 	0.44100 0.94103 0.29728 -0.40000
O 	O 	0.55900 0.05897 0.29728 -0.44200
O 	O 	0.44100 0.05897 0.70272 -0.44200
O 	O 	0.05900 0.20272 0.55897 -0.44700
O 	O 	0.94100 0.79728 0.55897 -0.39300
O 	O 	0.05900 0.79728 0.44103 -0.43700
O 	O 	0.94100 0.20272 0.44103 -0.40500
O 	O 	0.20272 0.44103 0.94100 -0.40500
O 	O 	0.79728 0.44103 0.05900 -0.43700
O 	O 	0.79728 0.55897 0.94100 -0.39300
O 	O 	0.20272 0.55897 0.05900 -0.44700
O 	O 	0.44103 0.05900 0.79728 -0.43700
O 	O 	0.44103 0.94100 0.20272 -0.40500
O 	O 	0.55897 0.05900 0.20272 -0.44700
O 	O 	0.55897 0.94100 0.79728 -0.39300
O 	O 	0.29728 0.44100 0.05897 -0.44300
O 	O 	0.70272 0.55900 0.05897 -0.44100
O 	O 	0.70272 0.44100 0.94103 -0.39800
O 	O 	0.29728 0.55900 0.94103 -0.39900
O 	O 	0.05897 0.29728 0.44100 -0.44300
O 	O 	0.05897 0.70272 0.55900 -0.44100
O 	O 	0.94103 0.70272 0.44100 -0.39800
O 	O 	0.94103 0.29728 0.55900 -0.39900
O 	O 	0.44100 0.05897 0.29728 -0.44300
O 	O 	0.55900 0.05897 0.70272 -0.44100
O 	O 	0.44100 0.94103 0.70272 -0.39800
O 	O 	0.55900 0.94103 0.29728 -0.39900
O 	O 	0.94100 0.79728 0.44103 -0.39400
O 	O 	0.05900 0.20272 0.44103 -0.44800
O 	O 	0.94100 0.20272 0.55897 -0.40400
O 	O 	0.05900 0.79728 0.55897 -0.43600
O 	O 	0.79728 0.55897 0.05900 -0.43600
O 	O 	0.20272 0.55897 0.94100 -0.40400
O 	O 	0.20272 0.44103 0.05900 -0.44800
O 	O 	0.79728 0.44103 0.94100 -0.39400
O 	O 	0.55897 0.94100 0.20272 -0.40400
O 	O 	0.55897 0.05900 0.79728 -0.43600
O 	O 	0.44103 0.94100 0.79728 -0.39400
O 	O 	0.44103 0.05900 0.20272 -0.44800
