data_crystal

_cell_length_a 22.99170
_cell_length_b 17.89120
_cell_length_c 20.78810
_cell_angle_alpha 90.00000
_cell_angle_beta  102.47700
_cell_angle_gamma 90.00000

_symmetry_space_group_name_	'P 1'
_symmetry_space_group_name_H-M	'P 1'

loop_
_symmetry_equiv_pos_as_xyz
  x,y,z

loop_
_atom_site_label
_atom_site_type_symbol
_atom_site_fract_x
_atom_site_fract_y
_atom_site_fract_z
_atom_site_charge
Pt	Pt	0.76655 0.16203 0.97486 0.41700
Pt	Pt	0.76229 0.01200 0.92016 0.37000
N 	N 	0.81760 0.06600 0.87220 -0.13000
H 	H 	0.83500 0.03740 0.84900 0.03900
O 	O 	0.81810 0.18470 0.91000 -0.17500
O 	O 	0.69560 0.18020 0.89940 -0.27900
N 	N 	0.69400 0.06220 0.85890 -0.25500
H 	H 	0.67270 0.03290 0.83050 0.10100
N 	N 	0.83360 0.14020 0.05080 -0.17300
N 	N 	0.82700 0.95430 0.98070 -0.18200
N 	N 	0.71250 0.95010 0.96840 -0.17000
N 	N 	0.71940 0.13220 0.04020 -0.17100
C 	C 	0.67680 0.13060 0.85490 0.16300
C 	C 	0.83120 0.13480 0.87030 -0.30300
C 	C 	0.91820 0.08510 0.15280 0.05600
H 	H 	0.94710 0.06450 0.18640 -0.02600
C 	C 	0.74330 0.89940 0.01040 0.04400
C 	C 	0.80790 0.90130 0.01680 0.07200
C 	C 	0.92570 0.91850 0.02500 -0.18200
H 	H 	0.96630 0.92580 0.02820 0.05800
C 	C 	0.89120 0.15060 0.05070 0.08600
H 	H 	0.90220 0.17610 0.01620 -0.01900
C 	C 	0.86900 0.16010 0.82240 1.55500
C 	C 	0.88410 0.96320 0.98400 0.09700
H 	H 	0.89700 0.99990 0.95860 -0.02700
C 	C 	0.84740 0.85570 0.05830 -0.16800
H 	H 	0.83390 0.82020 0.08430 0.05300
C 	C 	0.86020 0.07730 0.15350 -0.13800
H 	H 	0.84900 0.05350 0.18870 0.04000
C 	C 	0.72500 0.07020 0.14260 -0.13000
H 	H 	0.74760 0.05000 0.18120 0.04500
C 	C 	0.71320 0.84940 0.04340 -0.12100
H 	H 	0.73430 0.81340 0.07120 0.04900
C 	C 	0.90600 0.86350 0.06050 0.07400
H 	H 	0.93320 0.83140 0.08640 -0.04900
C 	C 	0.62970 0.15710 0.79750 0.09400
C 	C 	0.62230 0.90820 0.99330 -0.13800
H 	H 	0.58130 0.91340 0.98780 0.05800
C 	C 	0.65250 0.85340 0.03490 0.03100
H 	H 	0.63210 0.82020 0.05640 -0.00000
C 	C 	0.65330 0.95400 0.96080 0.07000
H 	H 	0.63260 0.98950 0.93210 -0.00800
C 	C 	0.93440 0.12350 0.10220 -0.15900
H 	H 	0.97450 0.13120 0.10260 0.06100
C 	C 	0.63060 0.10050 0.07540 -0.16100
H 	H 	0.58920 0.10020 0.06740 0.05500
C 	C 	0.66360 0.06870 0.13140 0.03300
H 	H 	0.64470 0.04620 0.16180 -0.01200
C 	C 	0.81710 0.10480 0.10190 0.06100
C 	C 	0.75310 0.10150 0.09670 0.04900
C 	C 	0.65970 0.13280 0.03120 0.07000
H 	H 	0.63740 0.15580 0.99380 -0.00300
C 	C 	0.84900 0.12380 0.75630 -2.11200
H 	H 	0.80690 0.13110 0.74090 0.63700
H 	H 	0.85750 0.07120 0.76000 0.63000
H 	H 	0.86980 0.14580 0.72560 0.62400
C 	C 	0.86620 0.24260 0.81240 -2.21200
H 	H 	0.89310 0.25680 0.78510 0.64600
H 	H 	0.87740 0.26720 0.85420 0.68300
H 	H 	0.82640 0.25680 0.79130 0.67200
C 	C 	0.93200 0.13520 0.85100 -2.10500
H 	H 	0.95770 0.15250 0.82350 0.61600
H 	H 	0.93340 0.08160 0.85340 0.63000
H 	H 	0.94490 0.15570 0.89450 0.63800
C 	C 	0.64090 0.12380 0.73440 -0.00600
H 	H 	0.64200 0.07030 0.73790 0.15000
H 	H 	0.67830 0.14160 0.72710 -0.01600
H 	H 	0.60950 0.13840 0.69820 0.03300
C 	C 	0.60270 0.10350 0.74480 -0.27200
H 	H 	0.57510 0.12950 0.71090 0.07900
H 	H 	0.58220 0.06500 0.76310 0.10200
H 	H 	0.63350 0.08150 0.72630 -0.08600
C 	C 	0.57260 0.11780 0.80500 -0.16900
H 	H 	0.53930 0.13900 0.77470 0.05300
H 	H 	0.56730 0.12420 0.84930 0.13300
H 	H 	0.57540 0.06550 0.79590 0.00900
C 	C 	0.57530 0.18340 0.82740 -0.18700
H 	H 	0.54050 0.18900 0.79260 0.05200
H 	H 	0.58460 0.23040 0.84950 0.08300
H 	H 	0.56760 0.14680 0.85830 -0.03000
C 	C 	0.62340 0.24120 0.79280 -0.01200
H 	H 	0.60280 0.25470 0.74910 0.22400
H 	H 	0.66220 0.26380 0.80220 -0.02500
H 	H 	0.60120 0.25850 0.82400 0.00200
C 	C 	0.65230 0.23100 0.77360 -0.17500
H 	H 	0.67820 0.22030 0.74420 0.05600
H 	H 	0.67380 0.25870 0.81080 0.11600
H 	H 	0.61900 0.26000 0.75090 -0.17700
Pt	Pt	0.26655 0.66203 0.97486 0.41800
Pt	Pt	0.26229 0.51200 0.92016 0.37000
N 	N 	0.31760 0.56600 0.87220 -0.13100
H 	H 	0.33500 0.53740 0.84900 0.03800
O 	O 	0.31810 0.68470 0.91000 -0.17500
O 	O 	0.19560 0.68020 0.89940 -0.27900
N 	N 	0.19400 0.56220 0.85890 -0.25600
H 	H 	0.17270 0.53290 0.83050 0.10000
N 	N 	0.33360 0.64020 0.05080 -0.17300
N 	N 	0.32700 0.45430 0.98070 -0.18200
N 	N 	0.21250 0.45010 0.96840 -0.17100
N 	N 	0.21940 0.63220 0.04020 -0.17000
C 	C 	0.17680 0.63060 0.85490 0.16300
C 	C 	0.33120 0.63480 0.87030 -0.30300
C 	C 	0.41820 0.58510 0.15280 0.05600
H 	H 	0.44710 0.56450 0.18640 -0.02600
C 	C 	0.24330 0.39940 0.01040 0.04600
C 	C 	0.30790 0.40130 0.01680 0.07100
C 	C 	0.42570 0.41850 0.02500 -0.17800
H 	H 	0.46630 0.42580 0.02820 0.05700
C 	C 	0.39120 0.65060 0.05070 0.08600
H 	H 	0.40220 0.67610 0.01620 -0.02000
C 	C 	0.36900 0.66010 0.82240 1.55700
C 	C 	0.38410 0.46320 0.98400 0.09400
H 	H 	0.39700 0.49990 0.95860 -0.02700
C 	C 	0.34740 0.35570 0.05830 -0.16600
H 	H 	0.33390 0.32020 0.08430 0.05300
C 	C 	0.36020 0.57730 0.15350 -0.13900
H 	H 	0.34900 0.55350 0.18870 0.04000
C 	C 	0.22500 0.57020 0.14260 -0.12800
H 	H 	0.24760 0.55000 0.18120 0.04400
C 	C 	0.21320 0.34940 0.04340 -0.12400
H 	H 	0.23430 0.31340 0.07120 0.05000
C 	C 	0.40600 0.36350 0.06050 0.07200
H 	H 	0.43320 0.33140 0.08640 -0.04900
C 	C 	0.12970 0.65710 0.79750 0.09400
C 	C 	0.12230 0.40820 0.99330 -0.14300
H 	H 	0.08130 0.41340 0.98780 0.05900
C 	C 	0.15250 0.35340 0.03490 0.03600
H 	H 	0.13210 0.32020 0.05640 -0.00200
C 	C 	0.15330 0.45400 0.96080 0.07200
H 	H 	0.13260 0.48950 0.93210 -0.00900
C 	C 	0.43440 0.62350 0.10220 -0.16000
H 	H 	0.47450 0.63120 0.10260 0.06100
C 	C 	0.13060 0.60050 0.07540 -0.15600
H 	H 	0.08920 0.60020 0.06740 0.05300
C 	C 	0.16360 0.56870 0.13140 0.03000
H 	H 	0.14470 0.54620 0.16180 -0.01100
C 	C 	0.31710 0.60480 0.10190 0.06100
C 	C 	0.25310 0.60150 0.09670 0.04800
C 	C 	0.15970 0.63280 0.03120 0.06400
H 	H 	0.13740 0.65580 0.99380 0.00100
C 	C 	0.34900 0.62380 0.75630 -2.11400
H 	H 	0.30690 0.63110 0.74090 0.63700
H 	H 	0.35750 0.57120 0.76000 0.63100
H 	H 	0.36980 0.64580 0.72560 0.62500
C 	C 	0.36620 0.74260 0.81240 -2.21400
H 	H 	0.39310 0.75680 0.78510 0.64600
H 	H 	0.37740 0.76720 0.85420 0.68400
H 	H 	0.32640 0.75680 0.79130 0.67300
C 	C 	0.43200 0.63520 0.85100 -2.10800
H 	H 	0.45770 0.65250 0.82350 0.61700
H 	H 	0.43340 0.58160 0.85340 0.63100
H 	H 	0.44490 0.65570 0.89450 0.63900
C 	C 	0.14090 0.62380 0.73440 -0.00600
H 	H 	0.14200 0.57030 0.73790 0.15000
H 	H 	0.17830 0.64160 0.72710 -0.01600
H 	H 	0.10950 0.63840 0.69820 0.03300
C 	C 	0.10270 0.60350 0.74480 -0.27300
H 	H 	0.07510 0.62950 0.71090 0.07900
H 	H 	0.08220 0.56500 0.76310 0.10300
H 	H 	0.13350 0.58150 0.72630 -0.08600
C 	C 	0.07260 0.61780 0.80500 -0.16900
H 	H 	0.03930 0.63900 0.77470 0.05300
H 	H 	0.06730 0.62420 0.84930 0.13400
H 	H 	0.07540 0.56550 0.79590 0.00900
C 	C 	0.07530 0.68340 0.82740 -0.18700
H 	H 	0.04050 0.68900 0.79260 0.05200
H 	H 	0.08460 0.73040 0.84950 0.08300
H 	H 	0.06760 0.64680 0.85830 -0.03000
C 	C 	0.12340 0.74120 0.79280 -0.01300
H 	H 	0.10280 0.75470 0.74910 0.22400
H 	H 	0.16220 0.76380 0.80220 -0.02500
H 	H 	0.10120 0.75850 0.82400 0.00200
C 	C 	0.15230 0.73100 0.77360 -0.17400
H 	H 	0.17820 0.72030 0.74420 0.05600
H 	H 	0.17380 0.75870 0.81080 0.11600
H 	H 	0.11900 0.76000 0.75090 -0.17600
Pt	Pt	0.23345 0.16203 0.52514 0.41700
Pt	Pt	0.23771 0.01200 0.57984 0.37000
N 	N 	0.18240 0.06600 0.62780 -0.13100
H 	H 	0.16500 0.03740 0.65100 0.03800
O 	O 	0.18190 0.18470 0.59000 -0.17600
O 	O 	0.30440 0.18020 0.60060 -0.28000
N 	N 	0.30600 0.06220 0.64110 -0.25600
H 	H 	0.32730 0.03290 0.66950 0.10000
N 	N 	0.16640 0.14020 0.44920 -0.17300
N 	N 	0.17300 0.95430 0.51930 -0.18200
N 	N 	0.28750 0.95010 0.53160 -0.17100
N 	N 	0.28060 0.13220 0.45980 -0.17100
C 	C 	0.32320 0.13060 0.64510 0.16300
C 	C 	0.16880 0.13480 0.62970 -0.30300
C 	C 	0.08180 0.08510 0.34720 0.05600
H 	H 	0.05290 0.06450 0.31360 -0.02600
C 	C 	0.25670 0.89940 0.48960 0.04600
C 	C 	0.19210 0.90130 0.48320 0.07200
C 	C 	0.07430 0.91850 0.47500 -0.17900
H 	H 	0.03370 0.92580 0.47180 0.05700
C 	C 	0.10880 0.15060 0.44930 0.08500
H 	H 	0.09780 0.17610 0.48380 -0.02000
C 	C 	0.13100 0.16010 0.67760 1.55600
C 	C 	0.11590 0.96320 0.51600 0.09500
H 	H 	0.10300 0.99990 0.54140 -0.02700
C 	C 	0.15260 0.85570 0.44170 -0.16600
H 	H 	0.16610 0.82020 0.41570 0.05300
C 	C 	0.13980 0.07730 0.34650 -0.13900
H 	H 	0.15100 0.05350 0.31130 0.04000
C 	C 	0.27500 0.07020 0.35740 -0.12900
H 	H 	0.25240 0.05000 0.31880 0.04500
C 	C 	0.28680 0.84940 0.45660 -0.12400
H 	H 	0.26570 0.81340 0.42880 0.05000
C 	C 	0.09400 0.86350 0.43950 0.07200
H 	H 	0.06680 0.83140 0.41360 -0.04900
C 	C 	0.37030 0.15710 0.70250 0.09400
C 	C 	0.37770 0.90820 0.50670 -0.14200
H 	H 	0.41870 0.91340 0.51220 0.05900
C 	C 	0.34750 0.85340 0.46510 0.03600
H 	H 	0.36790 0.82020 0.44360 -0.00200
C 	C 	0.34670 0.95400 0.53920 0.07200
H 	H 	0.36740 0.98950 0.56790 -0.00900
C 	C 	0.06560 0.12350 0.39780 -0.15900
H 	H 	0.02550 0.13120 0.39740 0.06100
C 	C 	0.36940 0.10050 0.42460 -0.15800
H 	H 	0.41080 0.10020 0.43260 0.05300
C 	C 	0.33640 0.06870 0.36860 0.03100
H 	H 	0.35530 0.04620 0.33820 -0.01100
C 	C 	0.18290 0.10480 0.39810 0.06100
C 	C 	0.24690 0.10150 0.40330 0.04900
C 	C 	0.34030 0.13280 0.46880 0.06600
H 	H 	0.36260 0.15580 0.50620 -0.00000
C 	C 	0.15100 0.12380 0.74370 -2.11300
H 	H 	0.19310 0.13110 0.75910 0.63700
H 	H 	0.14250 0.07120 0.74000 0.63000
H 	H 	0.13020 0.14580 0.77440 0.62400
C 	C 	0.13380 0.24260 0.68760 -2.21300
H 	H 	0.10690 0.25680 0.71490 0.64600
H 	H 	0.12260 0.26720 0.64580 0.68300
H 	H 	0.17360 0.25680 0.70870 0.67300
C 	C 	0.06800 0.13520 0.64900 -2.10800
H 	H 	0.04230 0.15250 0.67650 0.61700
H 	H 	0.06660 0.08160 0.64660 0.63100
H 	H 	0.05510 0.15570 0.60550 0.63900
C 	C 	0.35910 0.12380 0.76560 -0.00600
H 	H 	0.35800 0.07030 0.76210 0.15000
H 	H 	0.32170 0.14160 0.77290 -0.01600
H 	H 	0.39050 0.13840 0.80180 0.03300
C 	C 	0.39730 0.10350 0.75520 -0.27200
H 	H 	0.42490 0.12950 0.78910 0.07900
H 	H 	0.41780 0.06500 0.73690 0.10200
H 	H 	0.36650 0.08150 0.77370 -0.08600
C 	C 	0.42740 0.11780 0.69500 -0.16900
H 	H 	0.46070 0.13900 0.72530 0.05300
H 	H 	0.43270 0.12420 0.65070 0.13300
H 	H 	0.42460 0.06550 0.70410 0.00900
C 	C 	0.42470 0.18340 0.67260 -0.18700
H 	H 	0.45950 0.18900 0.70740 0.05200
H 	H 	0.41540 0.23040 0.65050 0.08300
H 	H 	0.43240 0.14680 0.64170 -0.03000
C 	C 	0.37660 0.24120 0.70720 -0.01300
H 	H 	0.39720 0.25470 0.75090 0.22400
H 	H 	0.33780 0.26380 0.69780 -0.02500
H 	H 	0.39880 0.25850 0.67600 0.00200
C 	C 	0.34770 0.23100 0.72640 -0.17400
H 	H 	0.32180 0.22030 0.75580 0.05600
H 	H 	0.32620 0.25870 0.68920 0.11600
H 	H 	0.38100 0.26000 0.74910 -0.17600
Pt	Pt	0.73345 0.66203 0.52514 0.41700
Pt	Pt	0.73771 0.51200 0.57984 0.37000
N 	N 	0.68240 0.56600 0.62780 -0.13100
H 	H 	0.66500 0.53740 0.65100 0.03800
O 	O 	0.68190 0.68470 0.59000 -0.17600
O 	O 	0.80440 0.68020 0.60060 -0.28000
N 	N 	0.80600 0.56220 0.64110 -0.25600
H 	H 	0.82730 0.53290 0.66950 0.10000
N 	N 	0.66640 0.64020 0.44920 -0.17300
N 	N 	0.67300 0.45430 0.51930 -0.18200
N 	N 	0.78750 0.45010 0.53160 -0.17100
N 	N 	0.78060 0.63220 0.45980 -0.17100
C 	C 	0.82320 0.63060 0.64510 0.16300
C 	C 	0.66880 0.63480 0.62970 -0.30300
C 	C 	0.58180 0.58510 0.34720 0.05600
H 	H 	0.55290 0.56450 0.31360 -0.02600
C 	C 	0.75670 0.39940 0.48960 0.04600
C 	C 	0.69210 0.40130 0.48320 0.07200
C 	C 	0.57430 0.41850 0.47500 -0.17900
H 	H 	0.53370 0.42580 0.47180 0.05700
C 	C 	0.60880 0.65060 0.44930 0.08500
H 	H 	0.59780 0.67610 0.48380 -0.02000
C 	C 	0.63100 0.66010 0.67760 1.55700
C 	C 	0.61590 0.46320 0.51600 0.09500
H 	H 	0.60300 0.49990 0.54140 -0.02700
C 	C 	0.65260 0.35570 0.44170 -0.16600
H 	H 	0.66610 0.32020 0.41570 0.05300
C 	C 	0.63980 0.57730 0.34650 -0.13900
H 	H 	0.65100 0.55350 0.31130 0.03900
C 	C 	0.77500 0.57020 0.35740 -0.12900
H 	H 	0.75240 0.55000 0.31880 0.04500
C 	C 	0.78680 0.34940 0.45660 -0.12400
H 	H 	0.76570 0.31340 0.42880 0.05000
C 	C 	0.59400 0.36350 0.43950 0.07200
H 	H 	0.56680 0.33140 0.41360 -0.04900
C 	C 	0.87030 0.65710 0.70250 0.09400
C 	C 	0.87770 0.40820 0.50670 -0.14200
H 	H 	0.91870 0.41340 0.51220 0.05900
C 	C 	0.84750 0.35340 0.46510 0.03600
H 	H 	0.86790 0.32020 0.44360 -0.00200
C 	C 	0.84670 0.45400 0.53920 0.07200
H 	H 	0.86740 0.48950 0.56790 -0.00900
C 	C 	0.56560 0.62350 0.39780 -0.15900
H 	H 	0.52550 0.63120 0.39740 0.06100
C 	C 	0.86940 0.60050 0.42460 -0.15800
H 	H 	0.91080 0.60020 0.43260 0.05300
C 	C 	0.83640 0.56870 0.36860 0.03100
H 	H 	0.85530 0.54620 0.33820 -0.01200
C 	C 	0.68290 0.60480 0.39810 0.06100
C 	C 	0.74690 0.60150 0.40330 0.04900
C 	C 	0.84030 0.63280 0.46880 0.06600
H 	H 	0.86260 0.65580 0.50620 0.00000
C 	C 	0.65100 0.62380 0.74370 -2.11400
H 	H 	0.69310 0.63110 0.75910 0.63700
H 	H 	0.64250 0.57120 0.74000 0.63100
H 	H 	0.63020 0.64580 0.77440 0.62500
C 	C 	0.63380 0.74260 0.68760 -2.21400
H 	H 	0.60690 0.75680 0.71490 0.64600
H 	H 	0.62260 0.76720 0.64580 0.68300
H 	H 	0.67360 0.75680 0.70870 0.67300
C 	C 	0.56800 0.63520 0.64900 -2.10800
H 	H 	0.54230 0.65250 0.67650 0.61700
H 	H 	0.56660 0.58160 0.64660 0.63100
H 	H 	0.55510 0.65570 0.60550 0.63900
C 	C 	0.85910 0.62380 0.76560 -0.00600
H 	H 	0.85800 0.57030 0.76210 0.15000
H 	H 	0.82170 0.64160 0.77290 -0.01600
H 	H 	0.89050 0.63840 0.80180 0.03300
C 	C 	0.89730 0.60350 0.75520 -0.27200
H 	H 	0.92490 0.62950 0.78910 0.07900
H 	H 	0.91780 0.56500 0.73690 0.10300
H 	H 	0.86650 0.58150 0.77370 -0.08600
C 	C 	0.92740 0.61780 0.69500 -0.16900
H 	H 	0.96070 0.63900 0.72530 0.05300
H 	H 	0.93270 0.62420 0.65070 0.13400
H 	H 	0.92460 0.56550 0.70410 0.00900
C 	C 	0.92470 0.68340 0.67260 -0.18700
H 	H 	0.95950 0.68900 0.70740 0.05200
H 	H 	0.91540 0.73040 0.65050 0.08300
H 	H 	0.93240 0.64680 0.64170 -0.03000
C 	C 	0.87660 0.74120 0.70720 -0.01300
H 	H 	0.89720 0.75470 0.75090 0.22400
H 	H 	0.83780 0.76380 0.69780 -0.02500
H 	H 	0.89880 0.75850 0.67600 0.00200
C 	C 	0.84770 0.73100 0.72640 -0.17500
H 	H 	0.82180 0.72030 0.75580 0.05600
H 	H 	0.82620 0.75870 0.68920 0.11600
H 	H 	0.88100 0.76000 0.74910 -0.17600
Pt	Pt	0.23345 0.83797 0.02514 0.41600
Pt	Pt	0.23771 0.98800 0.07984 0.36900
N 	N 	0.18240 0.93400 0.12780 -0.13100
H 	H 	0.16500 0.96260 0.15100 0.03800
O 	O 	0.18190 0.81530 0.09000 -0.17600
O 	O 	0.30440 0.81980 0.10060 -0.28000
N 	N 	0.30600 0.93780 0.14110 -0.25600
H 	H 	0.32730 0.96710 0.16950 0.10000
N 	N 	0.16640 0.85980 0.94920 -0.17300
N 	N 	0.17300 0.04570 0.01930 -0.18200
N 	N 	0.28750 0.04990 0.03160 -0.17000
N 	N 	0.28060 0.86780 0.95980 -0.17100
C 	C 	0.32320 0.86940 0.14510 0.16300
C 	C 	0.16880 0.86520 0.12970 -0.30300
C 	C 	0.08180 0.91490 0.84720 0.05600
H 	H 	0.05290 0.93550 0.81360 -0.02600
C 	C 	0.25670 0.10060 0.98960 0.04400
C 	C 	0.19210 0.09870 0.98320 0.07200
C 	C 	0.07430 0.08150 0.97500 -0.18200
H 	H 	0.03370 0.07420 0.97180 0.05800
C 	C 	0.10880 0.84940 0.94930 0.08600
H 	H 	0.09780 0.82390 0.98380 -0.01900
C 	C 	0.13100 0.83990 0.17760 1.55500
C 	C 	0.11590 0.03680 0.01600 0.09700
H 	H 	0.10300 0.00010 0.04140 -0.02700
C 	C 	0.15260 0.14430 0.94170 -0.16800
H 	H 	0.16610 0.17980 0.91570 0.05300
C 	C 	0.13980 0.92270 0.84650 -0.13800
H 	H 	0.15100 0.94650 0.81130 0.04000
C 	C 	0.27500 0.92980 0.85740 -0.13000
H 	H 	0.25240 0.95000 0.81880 0.04500
C 	C 	0.28680 0.15060 0.95660 -0.12100
H 	H 	0.26570 0.18660 0.92880 0.04900
C 	C 	0.09400 0.13650 0.93950 0.07400
H 	H 	0.06680 0.16860 0.91360 -0.04900
C 	C 	0.37030 0.84290 0.20250 0.09400
C 	C 	0.37770 0.09180 0.00670 -0.13800
H 	H 	0.41870 0.08660 0.01220 0.05800
C 	C 	0.34750 0.14660 0.96510 0.03100
H 	H 	0.36790 0.17980 0.94360 -0.00000
C 	C 	0.34670 0.04600 0.03920 0.07000
H 	H 	0.36740 0.01050 0.06790 -0.00800
C 	C 	0.06560 0.87650 0.89780 -0.15900
H 	H 	0.02550 0.86880 0.89740 0.06100
C 	C 	0.36940 0.89950 0.92460 -0.16100
H 	H 	0.41080 0.89980 0.93260 0.05500
C 	C 	0.33640 0.93130 0.86860 0.03300
H 	H 	0.35530 0.95380 0.83820 -0.01200
C 	C 	0.18290 0.89520 0.89810 0.06100
C 	C 	0.24690 0.89850 0.90330 0.04900
C 	C 	0.34030 0.86720 0.96880 0.07000
H 	H 	0.36260 0.84420 0.00620 -0.00300
C 	C 	0.15100 0.87620 0.24370 -2.11200
H 	H 	0.19310 0.86890 0.25910 0.63700
H 	H 	0.14250 0.92880 0.24000 0.63000
H 	H 	0.13020 0.85420 0.27440 0.62400
C 	C 	0.13380 0.75740 0.18760 -2.21200
H 	H 	0.10690 0.74320 0.21490 0.64600
H 	H 	0.12260 0.73280 0.14580 0.68300
H 	H 	0.17360 0.74320 0.20870 0.67200
C 	C 	0.06800 0.86480 0.14900 -2.10500
H 	H 	0.04230 0.84750 0.17650 0.61600
H 	H 	0.06660 0.91840 0.14660 0.63000
H 	H 	0.05510 0.84430 0.10550 0.63800
C 	C 	0.35910 0.87620 0.26560 -0.00600
H 	H 	0.35800 0.92970 0.26210 0.15000
H 	H 	0.32170 0.85840 0.27290 -0.01600
H 	H 	0.39050 0.86160 0.30180 0.03300
C 	C 	0.39730 0.89650 0.25520 -0.27200
H 	H 	0.42490 0.87050 0.28910 0.07900
H 	H 	0.41780 0.93500 0.23690 0.10200
H 	H 	0.36650 0.91850 0.27370 -0.08600
C 	C 	0.42740 0.88220 0.19500 -0.16900
H 	H 	0.46070 0.86100 0.22530 0.05300
H 	H 	0.43270 0.87580 0.15070 0.13300
H 	H 	0.42460 0.93450 0.20410 0.00900
C 	C 	0.42470 0.81660 0.17260 -0.18700
H 	H 	0.45950 0.81100 0.20740 0.05200
H 	H 	0.41540 0.76960 0.15050 0.08300
H 	H 	0.43240 0.85320 0.14170 -0.03000
C 	C 	0.37660 0.75880 0.20720 -0.01200
H 	H 	0.39720 0.74530 0.25090 0.22400
H 	H 	0.33780 0.73620 0.19780 -0.02500
H 	H 	0.39880 0.74150 0.17600 0.00200
C 	C 	0.34770 0.76900 0.22640 -0.17500
H 	H 	0.32180 0.77970 0.25580 0.05600
H 	H 	0.32620 0.74130 0.18920 0.11600
H 	H 	0.38100 0.74000 0.24910 -0.17700
Pt	Pt	0.73345 0.33797 0.02514 0.41800
Pt	Pt	0.73771 0.48800 0.07984 0.37000
N 	N 	0.68240 0.43400 0.12780 -0.13100
H 	H 	0.66500 0.46260 0.15100 0.03800
O 	O 	0.68190 0.31530 0.09000 -0.17500
O 	O 	0.80440 0.31980 0.10060 -0.27900
N 	N 	0.80600 0.43780 0.14110 -0.25600
H 	H 	0.82730 0.46710 0.16950 0.10000
N 	N 	0.66640 0.35980 0.94920 -0.17300
N 	N 	0.67300 0.54570 0.01930 -0.18200
N 	N 	0.78750 0.54990 0.03160 -0.17100
N 	N 	0.78060 0.36780 0.95980 -0.17000
C 	C 	0.82320 0.36940 0.14510 0.16300
C 	C 	0.66880 0.36520 0.12970 -0.30300
C 	C 	0.58180 0.41490 0.84720 0.05600
H 	H 	0.55290 0.43550 0.81360 -0.02600
C 	C 	0.75670 0.60060 0.98960 0.04600
C 	C 	0.69210 0.59870 0.98320 0.07100
C 	C 	0.57430 0.58150 0.97500 -0.17800
H 	H 	0.53370 0.57420 0.97180 0.05700
C 	C 	0.60880 0.34940 0.94930 0.08600
H 	H 	0.59780 0.32390 0.98380 -0.02000
C 	C 	0.63100 0.33990 0.17760 1.55700
C 	C 	0.61590 0.53680 0.01600 0.09400
H 	H 	0.60300 0.50010 0.04140 -0.02700
C 	C 	0.65260 0.64430 0.94170 -0.16600
H 	H 	0.66610 0.67980 0.91570 0.05300
C 	C 	0.63980 0.42270 0.84650 -0.13900
H 	H 	0.65100 0.44650 0.81130 0.04000
C 	C 	0.77500 0.42980 0.85740 -0.12800
H 	H 	0.75240 0.45000 0.81880 0.04400
C 	C 	0.78680 0.65060 0.95660 -0.12400
H 	H 	0.76570 0.68660 0.92880 0.05000
C 	C 	0.59400 0.63650 0.93950 0.07200
H 	H 	0.56680 0.66860 0.91360 -0.04900
C 	C 	0.87030 0.34290 0.20250 0.09400
C 	C 	0.87770 0.59180 0.00670 -0.14300
H 	H 	0.91870 0.58660 0.01220 0.05900
C 	C 	0.84750 0.64660 0.96510 0.03600
H 	H 	0.86790 0.67980 0.94360 -0.00200
C 	C 	0.84670 0.54600 0.03920 0.07200
H 	H 	0.86740 0.51050 0.06790 -0.00900
C 	C 	0.56560 0.37650 0.89780 -0.16000
H 	H 	0.52550 0.36880 0.89740 0.06100
C 	C 	0.86940 0.39950 0.92460 -0.15600
H 	H 	0.91080 0.39980 0.93260 0.05300
C 	C 	0.83640 0.43130 0.86860 0.03000
H 	H 	0.85530 0.45380 0.83820 -0.01100
C 	C 	0.68290 0.39520 0.89810 0.06100
C 	C 	0.74690 0.39850 0.90330 0.04800
C 	C 	0.84030 0.36720 0.96880 0.06400
H 	H 	0.86260 0.34420 0.00620 0.00100
C 	C 	0.65100 0.37620 0.24370 -2.11400
H 	H 	0.69310 0.36890 0.25910 0.63700
H 	H 	0.64250 0.42880 0.24000 0.63100
H 	H 	0.63020 0.35420 0.27440 0.62500
C 	C 	0.63380 0.25740 0.18760 -2.21400
H 	H 	0.60690 0.24320 0.21490 0.64600
H 	H 	0.62260 0.23280 0.14580 0.68400
H 	H 	0.67360 0.24320 0.20870 0.67300
C 	C 	0.56800 0.36480 0.14900 -2.10800
H 	H 	0.54230 0.34750 0.17650 0.61700
H 	H 	0.56660 0.41840 0.14660 0.63100
H 	H 	0.55510 0.34430 0.10550 0.63900
C 	C 	0.85910 0.37620 0.26560 -0.00600
H 	H 	0.85800 0.42970 0.26210 0.15000
H 	H 	0.82170 0.35840 0.27290 -0.01600
H 	H 	0.89050 0.36160 0.30180 0.03300
C 	C 	0.89730 0.39650 0.25520 -0.27300
H 	H 	0.92490 0.37050 0.28910 0.07900
H 	H 	0.91780 0.43500 0.23690 0.10300
H 	H 	0.86650 0.41850 0.27370 -0.08600
C 	C 	0.92740 0.38220 0.19500 -0.16900
H 	H 	0.96070 0.36100 0.22530 0.05300
H 	H 	0.93270 0.37580 0.15070 0.13400
H 	H 	0.92460 0.43450 0.20410 0.00900
C 	C 	0.92470 0.31660 0.17260 -0.18700
H 	H 	0.95950 0.31100 0.20740 0.05200
H 	H 	0.91540 0.26960 0.15050 0.08300
H 	H 	0.93240 0.35320 0.14170 -0.03000
C 	C 	0.87660 0.25880 0.20720 -0.01300
H 	H 	0.89720 0.24530 0.25090 0.22400
H 	H 	0.83780 0.23620 0.19780 -0.02500
H 	H 	0.89880 0.24150 0.17600 0.00200
C 	C 	0.84770 0.26900 0.22640 -0.17400
H 	H 	0.82180 0.27970 0.25580 0.05600
H 	H 	0.82620 0.24130 0.18920 0.11600
H 	H 	0.88100 0.24000 0.24910 -0.17600
Pt	Pt	0.76655 0.83797 0.47486 0.41700
Pt	Pt	0.76229 0.98800 0.42016 0.37000
N 	N 	0.81760 0.93400 0.37220 -0.13100
H 	H 	0.83500 0.96260 0.34900 0.03800
O 	O 	0.81810 0.81530 0.41000 -0.17600
O 	O 	0.69560 0.81980 0.39940 -0.28000
N 	N 	0.69400 0.93780 0.35890 -0.25600
H 	H 	0.67270 0.96710 0.33050 0.10000
N 	N 	0.83360 0.85980 0.55080 -0.17300
N 	N 	0.82700 0.04570 0.48070 -0.18200
N 	N 	0.71250 0.04990 0.46840 -0.17100
N 	N 	0.71940 0.86780 0.54020 -0.17100
C 	C 	0.67680 0.86940 0.35490 0.16300
C 	C 	0.83120 0.86520 0.37030 -0.30300
C 	C 	0.91820 0.91490 0.65280 0.05600
H 	H 	0.94710 0.93550 0.68640 -0.02600
C 	C 	0.74330 0.10060 0.51040 0.04600
C 	C 	0.80790 0.09870 0.51680 0.07200
C 	C 	0.92570 0.08150 0.52500 -0.17900
H 	H 	0.96630 0.07420 0.52820 0.05700
C 	C 	0.89120 0.84940 0.55070 0.08500
H 	H 	0.90220 0.82390 0.51620 -0.02000
C 	C 	0.86900 0.83990 0.32240 1.55600
C 	C 	0.88410 0.03680 0.48400 0.09500
H 	H 	0.89700 0.00010 0.45860 -0.02700
C 	C 	0.84740 0.14430 0.55830 -0.16600
H 	H 	0.83390 0.17980 0.58430 0.05300
C 	C 	0.86020 0.92270 0.65350 -0.13900
H 	H 	0.84900 0.94650 0.68870 0.04000
C 	C 	0.72500 0.92980 0.64260 -0.12900
H 	H 	0.74760 0.95000 0.68120 0.04500
C 	C 	0.71320 0.15060 0.54340 -0.12400
H 	H 	0.73430 0.18660 0.57120 0.05000
C 	C 	0.90600 0.13650 0.56050 0.07200
H 	H 	0.93320 0.16860 0.58640 -0.04900
C 	C 	0.62970 0.84290 0.29750 0.09400
C 	C 	0.62230 0.09180 0.49330 -0.14200
H 	H 	0.58130 0.08660 0.48780 0.05900
C 	C 	0.65250 0.14660 0.53490 0.03600
H 	H 	0.63210 0.17980 0.55640 -0.00200
C 	C 	0.65330 0.04600 0.46080 0.07200
H 	H 	0.63260 0.01050 0.43210 -0.00900
C 	C 	0.93440 0.87650 0.60220 -0.15900
H 	H 	0.97450 0.86880 0.60260 0.06100
C 	C 	0.63060 0.89950 0.57540 -0.15800
H 	H 	0.58920 0.89980 0.56740 0.05300
C 	C 	0.66360 0.93130 0.63140 0.03100
H 	H 	0.64470 0.95380 0.66180 -0.01100
C 	C 	0.81710 0.89520 0.60190 0.06100
C 	C 	0.75310 0.89850 0.59670 0.04900
C 	C 	0.65970 0.86720 0.53120 0.06600
H 	H 	0.63740 0.84420 0.49380 -0.00000
C 	C 	0.84900 0.87620 0.25630 -2.11300
H 	H 	0.80690 0.86890 0.24090 0.63700
H 	H 	0.85750 0.92880 0.26000 0.63000
H 	H 	0.86980 0.85420 0.22560 0.62400
C 	C 	0.86620 0.75740 0.31240 -2.21300
H 	H 	0.89310 0.74320 0.28510 0.64600
H 	H 	0.87740 0.73280 0.35420 0.68300
H 	H 	0.82640 0.74320 0.29130 0.67300
C 	C 	0.93200 0.86480 0.35100 -2.10800
H 	H 	0.95770 0.84750 0.32350 0.61700
H 	H 	0.93340 0.91840 0.35340 0.63100
H 	H 	0.94490 0.84430 0.39450 0.63900
C 	C 	0.64090 0.87620 0.23440 -0.00600
H 	H 	0.64200 0.92970 0.23790 0.15000
H 	H 	0.67830 0.85840 0.22710 -0.01600
H 	H 	0.60950 0.86160 0.19820 0.03300
C 	C 	0.60270 0.89650 0.24480 -0.27200
H 	H 	0.57510 0.87050 0.21090 0.07900
H 	H 	0.58220 0.93500 0.26310 0.10200
H 	H 	0.63350 0.91850 0.22630 -0.08600
C 	C 	0.57260 0.88220 0.30500 -0.16900
H 	H 	0.53930 0.86100 0.27470 0.05300
H 	H 	0.56730 0.87580 0.34930 0.13300
H 	H 	0.57540 0.93450 0.29590 0.00900
C 	C 	0.57530 0.81660 0.32740 -0.18700
H 	H 	0.54050 0.81100 0.29260 0.05200
H 	H 	0.58460 0.76960 0.34950 0.08300
H 	H 	0.56760 0.85320 0.35830 -0.03000
C 	C 	0.62340 0.75880 0.29280 -0.01300
H 	H 	0.60280 0.74530 0.24910 0.22400
H 	H 	0.66220 0.73620 0.30220 -0.02500
H 	H 	0.60120 0.74150 0.32400 0.00200
C 	C 	0.65230 0.76900 0.27360 -0.17400
H 	H 	0.67820 0.77970 0.24420 0.05600
H 	H 	0.67380 0.74130 0.31080 0.11600
H 	H 	0.61900 0.74000 0.25090 -0.17600
Pt	Pt	0.26655 0.33797 0.47486 0.41700
Pt	Pt	0.26229 0.48800 0.42016 0.37000
N 	N 	0.31760 0.43400 0.37220 -0.13100
H 	H 	0.33500 0.46260 0.34900 0.03800
O 	O 	0.31810 0.31530 0.41000 -0.17600
O 	O 	0.19560 0.31980 0.39940 -0.28000
N 	N 	0.19400 0.43780 0.35890 -0.25600
H 	H 	0.17270 0.46710 0.33050 0.10000
N 	N 	0.33360 0.35980 0.55080 -0.17300
N 	N 	0.32700 0.54570 0.48070 -0.18200
N 	N 	0.21250 0.54990 0.46840 -0.17100
N 	N 	0.21940 0.36780 0.54020 -0.17100
C 	C 	0.17680 0.36940 0.35490 0.16300
C 	C 	0.33120 0.36520 0.37030 -0.30300
C 	C 	0.41820 0.41490 0.65280 0.05600
H 	H 	0.44710 0.43550 0.68640 -0.02600
C 	C 	0.24330 0.60060 0.51040 0.04600
C 	C 	0.30790 0.59870 0.51680 0.07200
C 	C 	0.42570 0.58150 0.52500 -0.17900
H 	H 	0.46630 0.57420 0.52820 0.05700
C 	C 	0.39120 0.34940 0.55070 0.08500
H 	H 	0.40220 0.32390 0.51620 -0.02000
C 	C 	0.36900 0.33990 0.32240 1.55700
C 	C 	0.38410 0.53680 0.48400 0.09500
H 	H 	0.39700 0.50010 0.45860 -0.02700
C 	C 	0.34740 0.64430 0.55830 -0.16600
H 	H 	0.33390 0.67980 0.58430 0.05300
C 	C 	0.36020 0.42270 0.65350 -0.13900
H 	H 	0.34900 0.44650 0.68870 0.03900
C 	C 	0.22500 0.42980 0.64260 -0.12900
H 	H 	0.24760 0.45000 0.68120 0.04500
C 	C 	0.21320 0.65060 0.54340 -0.12400
H 	H 	0.23430 0.68660 0.57120 0.05000
C 	C 	0.40600 0.63650 0.56050 0.07200
H 	H 	0.43320 0.66860 0.58640 -0.04900
C 	C 	0.12970 0.34290 0.29750 0.09400
C 	C 	0.12230 0.59180 0.49330 -0.14200
H 	H 	0.08130 0.58660 0.48780 0.05900
C 	C 	0.15250 0.64660 0.53490 0.03600
H 	H 	0.13210 0.67980 0.55640 -0.00200
C 	C 	0.15330 0.54600 0.46080 0.07200
H 	H 	0.13260 0.51050 0.43210 -0.00900
C 	C 	0.43440 0.37650 0.60220 -0.15900
H 	H 	0.47450 0.36880 0.60260 0.06100
C 	C 	0.13060 0.39950 0.57540 -0.15800
H 	H 	0.08920 0.39980 0.56740 0.05300
C 	C 	0.16360 0.43130 0.63140 0.03100
H 	H 	0.14470 0.45380 0.66180 -0.01200
C 	C 	0.31710 0.39520 0.60190 0.06100
C 	C 	0.25310 0.39850 0.59670 0.04900
C 	C 	0.15970 0.36720 0.53120 0.06600
H 	H 	0.13740 0.34420 0.49380 0.00000
C 	C 	0.34900 0.37620 0.25630 -2.11400
H 	H 	0.30690 0.36890 0.24090 0.63700
H 	H 	0.35750 0.42880 0.26000 0.63100
H 	H 	0.36980 0.35420 0.22560 0.62500
C 	C 	0.36620 0.25740 0.31240 -2.21400
H 	H 	0.39310 0.24320 0.28510 0.64600
H 	H 	0.37740 0.23280 0.35420 0.68300
H 	H 	0.32640 0.24320 0.29130 0.67300
C 	C 	0.43200 0.36480 0.35100 -2.10800
H 	H 	0.45770 0.34750 0.32350 0.61700
H 	H 	0.43340 0.41840 0.35340 0.63100
H 	H 	0.44490 0.34430 0.39450 0.63900
C 	C 	0.14090 0.37620 0.23440 -0.00600
H 	H 	0.14200 0.42970 0.23790 0.15000
H 	H 	0.17830 0.35840 0.22710 -0.01600
H 	H 	0.10950 0.36160 0.19820 0.03300
C 	C 	0.10270 0.39650 0.24480 -0.27200
H 	H 	0.07510 0.37050 0.21090 0.07900
H 	H 	0.08220 0.43500 0.26310 0.10300
H 	H 	0.13350 0.41850 0.22630 -0.08600
C 	C 	0.07260 0.38220 0.30500 -0.16900
H 	H 	0.03930 0.36100 0.27470 0.05300
H 	H 	0.06730 0.37580 0.34930 0.13400
H 	H 	0.07540 0.43450 0.29590 0.00900
C 	C 	0.07530 0.31660 0.32740 -0.18700
H 	H 	0.04050 0.31100 0.29260 0.05200
H 	H 	0.08460 0.26960 0.34950 0.08300
H 	H 	0.06760 0.35320 0.35830 -0.03000
C 	C 	0.12340 0.25880 0.29280 -0.01300
H 	H 	0.10280 0.24530 0.24910 0.22400
H 	H 	0.16220 0.23620 0.30220 -0.02500
H 	H 	0.10120 0.24150 0.32400 0.00200
C 	C 	0.15230 0.26900 0.27360 -0.17500
H 	H 	0.17820 0.27970 0.24420 0.05600
H 	H 	0.17380 0.24130 0.31080 0.11600
H 	H 	0.11900 0.24000 0.25090 -0.17600
