data_crystal

_cell_length_a 18.02220
_cell_length_b 27.36720
_cell_length_c 24.97820
_cell_angle_alpha 90.00000
_cell_angle_beta  104.17900
_cell_angle_gamma 90.00000

_symmetry_space_group_name_	'P 1'
_symmetry_space_group_name_H-M	'P 1'

loop_
_symmetry_equiv_pos_as_xyz
  x,y,z

loop_
_atom_site_label
_atom_site_type_symbol
_atom_site_fract_x
_atom_site_fract_y
_atom_site_fract_z
_atom_site_charge
C 	C 	0.40820 0.45875 0.23318 -0.08200
C 	C 	0.35620 0.42116 0.22830 -0.00200
C 	C 	0.28000 0.43120 0.22705 -0.07900
C 	C 	0.25670 0.47840 0.23100 -0.00800
C 	C 	0.30830 0.51621 0.23660 -0.07700
C 	C 	0.38310 0.50699 0.23753 -0.00400
C 	C 	0.41950 0.63994 0.12929 -0.07600
C 	C 	0.36490 0.60374 0.12603 -0.00400
C 	C 	0.28930 0.61553 0.12310 -0.07300
C 	C 	0.26770 0.66375 0.12308 -0.01000
C 	C 	0.32130 0.70032 0.12615 -0.07900
C 	C 	0.39620 0.68819 0.12885 -0.00500
C 	C 	0.40780 0.64291 0.33280 -0.04500
C 	C 	0.37620 0.63370 0.37663 -0.02200
C 	C 	0.30260 0.64880 0.37570 -0.05500
C 	C 	0.26120 0.67360 0.33190 -0.02500
C 	C 	0.29090 0.68308 0.28790 -0.05500
C 	C 	0.36440 0.66757 0.28760 -0.02600
C 	C 	0.52870 0.38570 0.24455 -0.06800
C 	C 	0.55130 0.36962 0.29845 -0.01500
C 	C 	0.56720 0.32047 0.30880 -0.06700
C 	C 	0.56030 0.28802 0.26660 -0.01600
C 	C 	0.53790 0.30392 0.21320 -0.06700
C 	C 	0.52220 0.35305 0.20245 -0.01600
C 	C 	0.52820 0.64436 0.06336 -0.06700
C 	C 	0.51600 0.61161 0.01988 -0.00700
C 	C 	0.51840 0.62695 0.96727 -0.06900
C 	C 	0.53140 0.67530 0.95841 -0.00800
C 	C 	0.54350 0.70857 0.00096 -0.06900
C 	C 	0.54230 0.69320 0.05324 -0.01000
C 	C 	0.56820 0.64450 0.39482 -0.10800
C 	C 	0.60130 0.69039 0.39586 -0.00200
C 	C 	0.65500 0.70558 0.44203 -0.08900
C 	C 	0.67580 0.67571 0.48725 0.00600
C 	C 	0.64250 0.63032 0.48701 -0.09400
C 	C 	0.58900 0.61487 0.44084 0.00100
C 	C 	0.66120 0.48737 0.51337 -0.06600
C 	C 	0.60090 0.48510 0.53890 -0.01700
C 	C 	0.60640 0.50650 0.58970 -0.05300
C 	C 	0.67100 0.53095 0.61560 -0.02700
C 	C 	0.73010 0.53531 0.59050 -0.05700
C 	C 	0.72540 0.51353 0.53958 -0.02200
C 	C 	0.63730 0.39517 0.45658 -0.04200
C 	C 	0.69580 0.36097 0.46358 -0.03700
C 	C 	0.68060 0.31226 0.47190 -0.04300
C 	C 	0.60840 0.29722 0.47332 -0.04200
C 	C 	0.54920 0.33074 0.46690 -0.04500
C 	C 	0.56360 0.37945 0.45781 -0.03600
C 	C 	0.68160 0.39707 0.08107 -0.07000
C 	C 	0.67950 0.37092 0.12839 -0.00200
C 	C 	0.67780 0.32038 0.12786 -0.07100
C 	C 	0.68000 0.29532 0.08040 -0.01200
C 	C 	0.68260 0.32098 0.03370 -0.06500
C 	C 	0.68320 0.37115 0.03364 -0.00600
C 	C 	0.69800 0.48494 0.01989 -0.05000
C 	C 	0.63660 0.50373 0.98001 -0.02800
C 	C 	0.64780 0.52087 0.93036 -0.05700
C 	C 	0.71900 0.51938 0.92016 -0.03000
C 	C 	0.77980 0.50077 0.95910 -0.05200
C 	C 	0.76920 0.48384 0.00919 -0.02800
C 	C 	0.74420 0.78734 0.34203 -0.06100
C 	C 	0.68880 0.81214 0.35995 -0.02000
C 	C 	0.70930 0.84613 0.40310 -0.06200
C 	C 	0.78380 0.85530 0.42630 -0.01900
C 	C 	0.83970 0.83110 0.40920 -0.06100
C 	C 	0.82040 0.79702 0.36750 -0.02200
C 	C 	0.84050 0.38378 0.34545 -0.06700
C 	C 	0.79440 0.34711 0.31770 -0.01300
C 	C 	0.79500 0.30149 0.34190 -0.06400
C 	C 	0.83950 0.29240 0.39260 -0.01700
C 	C 	0.88470 0.32860 0.42130 -0.06200
C 	C 	0.88490 0.37416 0.39750 -0.01200
C 	C 	0.82070 0.62065 0.15634 -0.09800
C 	C 	0.80490 0.67074 0.15662 -0.01700
C 	C 	0.76150 0.69235 0.10900 -0.06900
C 	C 	0.73430 0.66520 0.06140 -0.01100
C 	C 	0.74890 0.61628 0.06155 -0.07200
C 	C 	0.79220 0.59361 0.10820 -0.01400
C 	C 	0.88130 0.64476 0.48773 -0.05600
C 	C 	0.87210 0.69473 0.47930 -0.01600
C 	C 	0.88260 0.72590 0.52420 -0.06500
C 	C 	0.90270 0.70790 0.57670 -0.01500
C 	C 	0.91220 0.65860 0.58600 -0.06900
C 	C 	0.90100 0.62708 0.54162 -0.01400
C 	C 	0.94320 0.44304 0.30375 -0.06800
C 	C 	0.99790 0.47440 0.33150 -0.00900
C 	C 	0.07200 0.47280 0.32340 -0.06200
C 	C 	0.08970 0.43980 0.28850 -0.01300
C 	C 	0.03660 0.40940 0.25990 -0.06900
C 	C 	0.96220 0.41042 0.26680 -0.01500
C 	C 	0.97010 0.59152 0.42737 -0.07600
C 	C 	0.00230 0.61228 0.38790 -0.01000
C 	C 	0.07840 0.60460 0.38880 -0.06500
C 	C 	0.12300 0.57595 0.42860 -0.01700
C 	C 	0.09230 0.55430 0.46720 -0.06200
C 	C 	0.01670 0.56187 0.46658 -0.01200
P 	P 	0.50673 0.44974 0.23139 0.34500
P 	P 	0.51727 0.62573 0.12999 0.36200
P 	P 	0.50264 0.62222 0.33295 0.34200
P 	P 	0.65528 0.45891 0.44768 0.32800
P 	P 	0.68421 0.46277 0.08462 0.33400
P 	P 	0.72202 0.74564 0.28472 0.34700
P 	P 	0.84793 0.44218 0.31392 0.34000
P 	P 	0.87846 0.59154 0.21682 0.34700
P 	P 	0.87314 0.60383 0.43010 0.34900
O 	O 	0.55815 0.47958 0.27570 -0.48800
O 	O 	0.51467 0.46138 0.17383 -0.44100
O 	O 	0.52513 0.57130 0.13546 -0.46900
O 	O 	0.56919 0.65754 0.17205 -0.46000
O 	O 	0.52224 0.64368 0.28281 -0.45800
O 	O 	0.50210 0.56703 0.33657 -0.45000
O 	O 	0.58576 0.47896 0.40649 -0.44400
O 	O 	0.73183 0.46321 0.43370 -0.44400
O 	O 	0.60847 0.48202 0.09096 -0.44900
O 	O 	0.75351 0.47623 0.12992 -0.45500
O 	O 	0.64639 0.72192 0.28203 -0.45200
O 	O 	0.79021 0.71282 0.28915 -0.44600
O 	O 	0.84331 0.48280 0.35370 -0.46200
O 	O 	0.79021 0.44207 0.25869 -0.45600
O 	O 	0.85363 0.53954 0.21944 -0.46000
O 	O 	0.87780 0.62335 0.26609 -0.45000
O 	O 	0.83187 0.63026 0.37880 -0.47100
O 	O 	0.83789 0.55691 0.44397 -0.44100
O 	O 	0.68392 0.54124 0.34562 -0.88600
O 	O 	0.67157 0.52365 0.21443 -0.84500
O 	O 	0.69646 0.61509 0.27155 -0.87700
Zn	Zn	0.58222 0.51940 0.34189 1.23200
Zn	Zn	0.58086 0.51149 0.15448 1.22400
Zn	Zn	0.60797 0.65800 0.25140 1.22400
Zn	Zn	0.77356 0.51237 0.39180 1.23100
Zn	Zn	0.76784 0.49573 0.20640 1.22600
Zn	Zn	0.79770 0.64205 0.30065 1.22800
C 	C 	0.70100 0.78320 0.22250 -0.06400
C 	C 	0.72200 0.78340 0.22600 -0.08600
C 	C 	0.76140 0.80060 0.20250 -0.01000
C 	C 	0.78960 0.80460 0.22170 0.20200
C 	C 	0.74410 0.83150 0.15580 -0.20700
C 	C 	0.78830 0.83460 0.17590 -0.06300
C 	C 	0.67020 0.84240 0.13130 0.20400
C 	C 	0.72130 0.84270 0.13810 0.08600
C 	C 	0.61120 0.82630 0.15170 -0.20600
C 	C 	0.65420 0.82390 0.14380 -0.17800
C 	C 	0.62620 0.79610 0.19910 0.19600
C 	C 	0.65320 0.79340 0.18890 0.04400
C 	C 	0.97454 0.58912 0.20860 -0.04300
C 	C 	0.99980 0.54786 0.18600 -0.02400
C 	C 	0.02100 0.62955 0.22050 -0.02500
C 	C 	0.09490 0.62830 0.21220 -0.04900
C 	C 	0.12082 0.58680 0.19160 -0.03000
C 	C 	0.07240 0.54701 0.17670 -0.04500
H 	H 	0.37240 0.38910 0.22630 0.03100
H 	H 	0.24560 0.40580 0.22390 0.05600
H 	H 	0.20580 0.48520 0.23040 0.02900
H 	H 	0.29270 0.54800 0.23980 0.05900
H 	H 	0.41840 0.53280 0.24120 0.02600
H 	H 	0.37950 0.57080 0.12630 0.03700
H 	H 	0.25340 0.59070 0.12120 0.05300
H 	H 	0.21680 0.67170 0.12130 0.02800
H 	H 	0.30690 0.73280 0.12630 0.05200
H 	H 	0.43280 0.71330 0.13050 0.02800
H 	H 	0.40460 0.61710 0.40720 0.04400
H 	H 	0.28180 0.64150 0.40530 0.05000
H 	H 	0.21250 0.68480 0.33190 0.03400
H 	H 	0.26210 0.70020 0.25820 0.04400
H 	H 	0.38450 0.67390 0.25730 0.04800
H 	H 	0.55530 0.39130 0.32720 0.03200
H 	H 	0.58150 0.30980 0.34510 0.05300
H 	H 	0.57020 0.25540 0.27380 0.03100
H 	H 	0.53400 0.28210 0.18430 0.05100
H 	H 	0.50730 0.36390 0.16660 0.03800
H 	H 	0.50580 0.57910 0.02560 0.03400
H 	H 	0.51190 0.60460 0.93860 0.05700
H 	H 	0.53190 0.68590 0.92280 0.03000
H 	H 	0.55330 0.74130 0.99460 0.05200
H 	H 	0.55160 0.71540 0.08230 0.03900
H 	H 	0.58760 0.71030 0.36520 0.02600
H 	H 	0.67700 0.73600 0.44210 0.06200
H 	H 	0.71230 0.68620 0.51830 0.02800
H 	H 	0.65580 0.61050 0.51780 0.06400
H 	H 	0.56720 0.58400 0.44080 0.01300
H 	H 	0.55640 0.46870 0.52160 0.03800
H 	H 	0.56560 0.50470 0.60630 0.04900
H 	H 	0.67430 0.54470 0.64990 0.04100
H 	H 	0.77370 0.55290 0.60740 0.04500
H 	H 	0.76630 0.51640 0.52290 0.03300
H 	H 	0.74520 0.37040 0.46300 0.05300
H 	H 	0.72040 0.28970 0.47740 0.04100
H 	H 	0.59930 0.26450 0.47860 0.04300
H 	H 	0.50040 0.32040 0.46870 0.04000
H 	H 	0.52400 0.40290 0.45290 0.04400
H 	H 	0.67880 0.38780 0.16060 0.01300
H 	H 	0.67470 0.30350 0.15940 0.05400
H 	H 	0.68050 0.26150 0.08060 0.03400
H 	H 	0.68440 0.30410 0.00190 0.05300
H 	H 	0.68480 0.38810 0.00200 0.03800
H 	H 	0.58830 0.50510 0.98680 0.04300
H 	H 	0.60650 0.53330 0.90360 0.05200
H 	H 	0.72550 0.53020 0.88620 0.04300
H 	H 	0.82850 0.49960 0.95230 0.04300
H 	H 	0.81070 0.47180 0.03580 0.04400
H 	H 	0.63740 0.80650 0.34300 0.04000
H 	H 	0.67120 0.86240 0.41530 0.05000
H 	H 	0.79690 0.87810 0.45490 0.03500
H 	H 	0.89100 0.83740 0.42600 0.04700
H 	H 	0.85880 0.78020 0.35620 0.04100
H 	H 	0.76260 0.35300 0.28280 0.04100
H 	H 	0.76510 0.27660 0.32280 0.04700
H 	H 	0.84020 0.26180 0.40820 0.03200
H 	H 	0.91590 0.32270 0.45680 0.05300
H 	H 	0.91620 0.39890 0.41690 0.03500
H 	H 	0.82370 0.68950 0.18790 0.02900
H 	H 	0.75070 0.72560 0.10940 0.05700
H 	H 	0.70650 0.68030 0.02940 0.03500
H 	H 	0.72870 0.59820 0.02990 0.05700
H 	H 	0.80170 0.56030 0.10800 0.02800
H 	H 	0.85930 0.70760 0.44380 0.03900
H 	H 	0.87610 0.75920 0.51840 0.05300
H 	H 	0.91010 0.72920 0.60640 0.03500
H 	H 	0.92620 0.64640 0.62140 0.05400
H 	H 	0.90710 0.59340 0.54770 0.03900
H 	H 	0.98620 0.49680 0.35650 0.04400
H 	H 	0.10950 0.49510 0.34280 0.05200
H 	H 	0.13980 0.43840 0.28420 0.02900
H 	H 	0.04850 0.38750 0.23520 0.04900
H 	H 	0.92540 0.38920 0.24660 0.03400
H 	H 	0.97310 0.63090 0.36050 0.03100
H 	H 	0.09900 0.61880 0.36210 0.05300
H 	H 	0.17390 0.57090 0.42860 0.03700
H 	H 	0.12250 0.53410 0.49370 0.04600
H 	H 	0.99660 0.54660 0.49280 0.03400
H 	H 	0.81180 0.79240 0.21930 -0.09400
H 	H 	0.83490 0.79930 0.24830 0.00500
H 	H 	0.78270 0.84370 0.14120 0.09900
H 	H 	0.83290 0.84860 0.17150 0.02500
H 	H 	0.65900 0.86070 0.09900 -0.05900
H 	H 	0.72130 0.86190 0.10760 -0.01800
H 	H 	0.56140 0.83580 0.13520 0.07400
H 	H 	0.60890 0.83100 0.11780 0.11400
H 	H 	0.58660 0.78550 0.21450 0.02100
H 	H 	0.60800 0.77970 0.19330 -0.11400
H 	H 	0.96720 0.52010 0.17630 0.04400
H 	H 	0.00290 0.65800 0.23470 0.04400
H 	H 	0.12690 0.65560 0.22080 0.04300
H 	H 	0.17120 0.58620 0.18660 0.03600
H 	H 	0.08790 0.51850 0.15930 0.04000
H 	H 	0.68970 0.59570 0.24650 0.32400
H 	H 	0.68760 0.56630 0.32960 0.34600
H 	H 	0.65670 0.51210 0.23970 0.29600
C 	C 	0.59180 0.95875 0.26682 -0.08100
C 	C 	0.64380 0.92116 0.27170 -0.00100
C 	C 	0.72000 0.93120 0.27295 -0.07900
C 	C 	0.74330 0.97840 0.26900 -0.00600
C 	C 	0.69170 0.01621 0.26340 -0.07600
C 	C 	0.61690 0.00699 0.26247 -0.00300
C 	C 	0.58050 0.13994 0.37071 -0.07500
C 	C 	0.63510 0.10374 0.37397 -0.00300
C 	C 	0.71070 0.11553 0.37690 -0.07200
C 	C 	0.73230 0.16375 0.37692 -0.00900
C 	C 	0.67870 0.20032 0.37385 -0.07800
C 	C 	0.60380 0.18819 0.37115 -0.00400
C 	C 	0.59220 0.14291 0.16720 -0.04400
C 	C 	0.62380 0.13370 0.12337 -0.02100
C 	C 	0.69740 0.14880 0.12430 -0.05400
C 	C 	0.73880 0.17360 0.16810 -0.02400
C 	C 	0.70910 0.18308 0.21210 -0.05500
C 	C 	0.63560 0.16757 0.21240 -0.02600
C 	C 	0.47130 0.88570 0.25545 -0.06800
C 	C 	0.44870 0.86962 0.20155 -0.01500
C 	C 	0.43280 0.82047 0.19120 -0.06700
C 	C 	0.43970 0.78802 0.23340 -0.01600
C 	C 	0.46210 0.80392 0.28680 -0.06700
C 	C 	0.47780 0.85305 0.29755 -0.01600
C 	C 	0.47180 0.14436 0.43664 -0.06800
C 	C 	0.48400 0.11161 0.48012 -0.00600
C 	C 	0.48160 0.12695 0.53273 -0.07100
C 	C 	0.46860 0.17530 0.54159 -0.00500
C 	C 	0.45650 0.20857 0.49904 -0.07200
C 	C 	0.45770 0.19320 0.44676 -0.00800
C 	C 	0.43180 0.14450 0.10518 -0.10800
C 	C 	0.39870 0.19039 0.10414 -0.00200
C 	C 	0.34500 0.20558 0.05797 -0.08900
C 	C 	0.32420 0.17571 0.01275 0.00600
C 	C 	0.35750 0.13032 0.01299 -0.09700
C 	C 	0.41100 0.11487 0.05916 0.00300
C 	C 	0.33880 0.98737 0.98663 -0.06800
C 	C 	0.39910 0.98510 0.96110 -0.01800
C 	C 	0.39360 0.00650 0.91030 -0.05200
C 	C 	0.32900 0.03095 0.88440 -0.02700
C 	C 	0.26990 0.03531 0.90950 -0.05700
C 	C 	0.27460 0.01353 0.96042 -0.02000
C 	C 	0.36270 0.89517 0.04342 -0.04200
C 	C 	0.30420 0.86097 0.03642 -0.03700
C 	C 	0.31940 0.81226 0.02810 -0.04200
C 	C 	0.39160 0.79722 0.02668 -0.04200
C 	C 	0.45080 0.83074 0.03310 -0.04500
C 	C 	0.43640 0.87945 0.04219 -0.03600
C 	C 	0.31840 0.89707 0.41893 -0.07000
C 	C 	0.32050 0.87092 0.37161 -0.00200
C 	C 	0.32220 0.82038 0.37214 -0.07100
C 	C 	0.32000 0.79532 0.41960 -0.01200
C 	C 	0.31740 0.82098 0.46630 -0.06500
C 	C 	0.31680 0.87115 0.46636 -0.00600
C 	C 	0.30200 0.98494 0.48011 -0.05000
C 	C 	0.36340 0.00373 0.51999 -0.02800
C 	C 	0.35220 0.02087 0.56964 -0.05700
C 	C 	0.28100 0.01938 0.57984 -0.03000
C 	C 	0.22020 0.00077 0.54090 -0.05200
C 	C 	0.23080 0.98384 0.49081 -0.02800
C 	C 	0.25580 0.28734 0.15797 -0.06100
C 	C 	0.31120 0.31214 0.14005 -0.02000
C 	C 	0.29070 0.34613 0.09690 -0.06200
C 	C 	0.21620 0.35530 0.07370 -0.01900
C 	C 	0.16030 0.33110 0.09080 -0.06100
C 	C 	0.17960 0.29702 0.13250 -0.02200
C 	C 	0.15950 0.88378 0.15455 -0.06600
C 	C 	0.20560 0.84711 0.18230 -0.01300
C 	C 	0.20500 0.80149 0.15810 -0.06400
C 	C 	0.16050 0.79240 0.10740 -0.01700
C 	C 	0.11530 0.82860 0.07870 -0.06100
C 	C 	0.11510 0.87416 0.10250 -0.01200
C 	C 	0.17930 0.12065 0.34366 -0.09900
C 	C 	0.19510 0.17074 0.34338 -0.01700
C 	C 	0.23850 0.19235 0.39100 -0.06900
C 	C 	0.26570 0.16520 0.43860 -0.01100
C 	C 	0.25110 0.11628 0.43845 -0.07200
C 	C 	0.20780 0.09361 0.39180 -0.01400
C 	C 	0.11870 0.14476 0.01227 -0.05700
C 	C 	0.12790 0.19473 0.02070 -0.01700
C 	C 	0.11740 0.22590 0.97580 -0.06400
C 	C 	0.09730 0.20790 0.92330 -0.01500
C 	C 	0.08780 0.15860 0.91400 -0.06900
C 	C 	0.09900 0.12708 0.95838 -0.01300
C 	C 	0.05680 0.94304 0.19625 -0.06900
C 	C 	0.00210 0.97440 0.16850 -0.00800
C 	C 	0.92800 0.97280 0.17660 -0.06400
C 	C 	0.91030 0.93980 0.21150 -0.01100
C 	C 	0.96340 0.90940 0.24010 -0.07100
C 	C 	0.03780 0.91042 0.23320 -0.01400
C 	C 	0.02990 0.09152 0.07263 -0.07800
C 	C 	0.99770 0.11228 0.11210 -0.00800
C 	C 	0.92160 0.10460 0.11120 -0.06700
C 	C 	0.87700 0.07595 0.07140 -0.01600
C 	C 	0.90770 0.05430 0.03280 -0.06400
C 	C 	0.98330 0.06187 0.03342 -0.01000
P 	P 	0.49327 0.94974 0.26861 0.34500
P 	P 	0.48273 0.12573 0.37001 0.36200
P 	P 	0.49736 0.12222 0.16705 0.34200
P 	P 	0.34472 0.95891 0.05232 0.32900
P 	P 	0.31579 0.96277 0.41538 0.33400
P 	P 	0.27798 0.24564 0.21528 0.34700
P 	P 	0.15207 0.94218 0.18608 0.34000
P 	P 	0.12154 0.09154 0.28318 0.34700
P 	P 	0.12686 0.10383 0.06990 0.35000
O 	O 	0.44185 0.97958 0.22430 -0.48800
O 	O 	0.48533 0.96138 0.32617 -0.44100
O 	O 	0.47487 0.07130 0.36454 -0.47000
O 	O 	0.43081 0.15754 0.32795 -0.46000
O 	O 	0.47776 0.14368 0.21719 -0.45800
O 	O 	0.49790 0.06703 0.16343 -0.45000
O 	O 	0.41424 0.97896 0.09351 -0.44400
O 	O 	0.26817 0.96321 0.06630 -0.44400
O 	O 	0.39153 0.98202 0.40904 -0.44900
O 	O 	0.24649 0.97623 0.37008 -0.45400
O 	O 	0.35361 0.22192 0.21797 -0.45200
O 	O 	0.20979 0.21282 0.21085 -0.44600
O 	O 	0.15669 0.98280 0.14630 -0.46100
O 	O 	0.20979 0.94207 0.24131 -0.45600
O 	O 	0.14637 0.03954 0.28056 -0.46000
O 	O 	0.12220 0.12335 0.23391 -0.45000
O 	O 	0.16813 0.13026 0.12120 -0.47100
O 	O 	0.16211 0.05691 0.05603 -0.44200
O 	O 	0.31608 0.04124 0.15438 -0.88600
O 	O 	0.32843 0.02365 0.28557 -0.84500
O 	O 	0.30354 0.11509 0.22845 -0.87800
Zn	Zn	0.41778 0.01940 0.15811 1.23100
Zn	Zn	0.41914 0.01149 0.34552 1.22400
Zn	Zn	0.39203 0.15800 0.24860 1.22400
Zn	Zn	0.22644 0.01237 0.10820 1.23100
Zn	Zn	0.23216 0.99573 0.29360 1.22600
Zn	Zn	0.20230 0.14205 0.19935 1.22800
C 	C 	0.29900 0.28320 0.27750 -0.06400
C 	C 	0.27800 0.28340 0.27400 -0.08600
C 	C 	0.23860 0.30060 0.29750 -0.01000
C 	C 	0.21040 0.30460 0.27830 0.20200
C 	C 	0.25590 0.33150 0.34420 -0.20700
C 	C 	0.21170 0.33460 0.32410 -0.06300
C 	C 	0.32980 0.34240 0.36870 0.20400
C 	C 	0.27870 0.34270 0.36190 0.08600
C 	C 	0.38880 0.32630 0.34830 -0.20600
C 	C 	0.34580 0.32390 0.35620 -0.17800
C 	C 	0.37380 0.29610 0.30090 0.19600
C 	C 	0.34680 0.29340 0.31110 0.04400
C 	C 	0.02546 0.08912 0.29140 -0.04300
C 	C 	0.00020 0.04786 0.31400 -0.02400
C 	C 	0.97900 0.12955 0.27950 -0.02500
C 	C 	0.90510 0.12830 0.28780 -0.04900
C 	C 	0.87918 0.08680 0.30840 -0.03100
C 	C 	0.92760 0.04701 0.32330 -0.04400
H 	H 	0.62760 0.88910 0.27370 0.03100
H 	H 	0.75440 0.90580 0.27610 0.05600
H 	H 	0.79420 0.98520 0.26960 0.02900
H 	H 	0.70730 0.04800 0.26020 0.05900
H 	H 	0.58160 0.03280 0.25880 0.02600
H 	H 	0.62050 0.07080 0.37370 0.03700
H 	H 	0.74660 0.09070 0.37880 0.05300
H 	H 	0.78320 0.17170 0.37870 0.02800
H 	H 	0.69310 0.23280 0.37370 0.05200
H 	H 	0.56720 0.21330 0.36950 0.02800
H 	H 	0.59540 0.11710 0.09280 0.04300
H 	H 	0.71820 0.14150 0.09470 0.05000
H 	H 	0.78750 0.18480 0.16810 0.03400
H 	H 	0.73790 0.20020 0.24180 0.04400
H 	H 	0.61550 0.17390 0.24270 0.04800
H 	H 	0.44470 0.89130 0.17280 0.03200
H 	H 	0.41850 0.80980 0.15490 0.05300
H 	H 	0.42980 0.75540 0.22620 0.03100
H 	H 	0.46600 0.78210 0.31570 0.05100
H 	H 	0.49270 0.86390 0.33340 0.03800
H 	H 	0.49420 0.07910 0.47440 0.03400
H 	H 	0.48810 0.10460 0.56140 0.05800
H 	H 	0.46810 0.18590 0.57720 0.02900
H 	H 	0.44670 0.24130 0.50540 0.05400
H 	H 	0.44840 0.21540 0.41770 0.03800
H 	H 	0.41240 0.21030 0.13480 0.02600
H 	H 	0.32300 0.23600 0.05790 0.06200
H 	H 	0.28770 0.18620 0.98170 0.02800
H 	H 	0.34420 0.11050 0.98220 0.06500
H 	H 	0.43280 0.08400 0.05920 0.01200
H 	H 	0.44360 0.96870 0.97840 0.03800
H 	H 	0.43440 0.00470 0.89370 0.04900
H 	H 	0.32570 0.04470 0.85010 0.04100
H 	H 	0.22630 0.05290 0.89260 0.04600
H 	H 	0.23370 0.01640 0.97710 0.03300
H 	H 	0.25480 0.87040 0.03700 0.05300
H 	H 	0.27960 0.78970 0.02260 0.04100
H 	H 	0.40070 0.76450 0.02140 0.04300
H 	H 	0.49960 0.82040 0.03130 0.04000
H 	H 	0.47600 0.90290 0.04710 0.04400
H 	H 	0.32120 0.88780 0.33940 0.01300
H 	H 	0.32530 0.80350 0.34060 0.05400
H 	H 	0.31950 0.76150 0.41940 0.03400
H 	H 	0.31560 0.80410 0.49810 0.05300
H 	H 	0.31520 0.88810 0.49800 0.03800
H 	H 	0.41170 0.00510 0.51320 0.04300
H 	H 	0.39350 0.03330 0.59640 0.05200
H 	H 	0.27450 0.03020 0.61380 0.04300
H 	H 	0.17150 0.99960 0.54770 0.04400
H 	H 	0.18930 0.97180 0.46420 0.04400
H 	H 	0.36260 0.30650 0.15700 0.04000
H 	H 	0.32880 0.36240 0.08470 0.05000
H 	H 	0.20310 0.37810 0.04510 0.03500
H 	H 	0.10900 0.33740 0.07400 0.04700
H 	H 	0.14120 0.28020 0.14380 0.04100
H 	H 	0.23740 0.85300 0.21720 0.04100
H 	H 	0.23490 0.77660 0.17720 0.04700
H 	H 	0.15980 0.76180 0.09180 0.03200
H 	H 	0.08410 0.82270 0.04320 0.05300
H 	H 	0.08380 0.89890 0.08310 0.03500
H 	H 	0.17630 0.18950 0.31210 0.02900
H 	H 	0.24930 0.22560 0.39060 0.05700
H 	H 	0.29350 0.18030 0.47060 0.03500
H 	H 	0.27130 0.09820 0.47010 0.05700
H 	H 	0.19830 0.06030 0.39200 0.02800
H 	H 	0.14070 0.20760 0.05620 0.04000
H 	H 	0.12390 0.25920 0.98160 0.05200
H 	H 	0.08990 0.22920 0.89360 0.03500
H 	H 	0.07380 0.14640 0.87860 0.05400
H 	H 	0.09290 0.09340 0.95230 0.03900
H 	H 	0.01380 0.99680 0.14350 0.04400
H 	H 	0.89050 0.99510 0.15720 0.05300
H 	H 	0.86020 0.93840 0.21580 0.02800
H 	H 	0.95150 0.88750 0.26480 0.05000
H 	H 	0.07460 0.88920 0.25340 0.03300
H 	H 	0.02690 0.13090 0.13950 0.03000
H 	H 	0.90100 0.11880 0.13790 0.05400
H 	H 	0.82610 0.07090 0.07140 0.03700
H 	H 	0.87750 0.03410 0.00630 0.04600
H 	H 	0.00340 0.04660 0.00720 0.03300
H 	H 	0.18820 0.29240 0.28070 -0.09400
H 	H 	0.16510 0.29930 0.25170 0.00500
H 	H 	0.21730 0.34370 0.35880 0.09900
H 	H 	0.16710 0.34860 0.32850 0.02500
H 	H 	0.34100 0.36070 0.40100 -0.05900
H 	H 	0.27870 0.36190 0.39240 -0.01800
H 	H 	0.43860 0.33580 0.36480 0.07400
H 	H 	0.39110 0.33100 0.38220 0.11400
H 	H 	0.41340 0.28550 0.28550 0.02100
H 	H 	0.39200 0.27970 0.30670 -0.11400
H 	H 	0.03280 0.02010 0.32370 0.04400
H 	H 	0.99710 0.15800 0.26530 0.04400
H 	H 	0.87310 0.15560 0.27920 0.04300
H 	H 	0.82880 0.08620 0.31340 0.03600
H 	H 	0.91210 0.01850 0.34070 0.04000
H 	H 	0.31030 0.09570 0.25350 0.32400
H 	H 	0.31240 0.06630 0.17040 0.34600
H 	H 	0.34330 0.01210 0.26030 0.29600
C 	C 	0.59180 0.54125 0.76682 -0.08100
C 	C 	0.64380 0.57884 0.77170 -0.00100
C 	C 	0.72000 0.56880 0.77295 -0.07800
C 	C 	0.74330 0.52160 0.76900 -0.00700
C 	C 	0.69170 0.48379 0.76340 -0.07600
C 	C 	0.61690 0.49301 0.76247 -0.00300
C 	C 	0.58050 0.36006 0.87071 -0.07500
C 	C 	0.63510 0.39626 0.87397 -0.00300
C 	C 	0.71070 0.38447 0.87690 -0.07200
C 	C 	0.73230 0.33625 0.87692 -0.00900
C 	C 	0.67870 0.29968 0.87385 -0.07800
C 	C 	0.60380 0.31181 0.87115 -0.00400
C 	C 	0.59220 0.35709 0.66720 -0.04400
C 	C 	0.62380 0.36630 0.62337 -0.02100
C 	C 	0.69740 0.35120 0.62430 -0.05400
C 	C 	0.73880 0.32640 0.66810 -0.02400
C 	C 	0.70910 0.31692 0.71210 -0.05500
C 	C 	0.63560 0.33243 0.71240 -0.02600
C 	C 	0.47130 0.61430 0.75545 -0.06800
C 	C 	0.44870 0.63038 0.70155 -0.01500
C 	C 	0.43280 0.67953 0.69120 -0.06700
C 	C 	0.43970 0.71198 0.73340 -0.01600
C 	C 	0.46210 0.69608 0.78680 -0.06700
C 	C 	0.47780 0.64695 0.79755 -0.01600
C 	C 	0.47180 0.35564 0.93664 -0.06700
C 	C 	0.48400 0.38839 0.98012 -0.00700
C 	C 	0.48160 0.37305 0.03273 -0.06900
C 	C 	0.46860 0.32470 0.04159 -0.00800
C 	C 	0.45650 0.29143 0.99904 -0.06900
C 	C 	0.45770 0.30680 0.94676 -0.01000
C 	C 	0.43180 0.35550 0.60518 -0.10800
C 	C 	0.39870 0.30961 0.60414 -0.00200
C 	C 	0.34500 0.29442 0.55797 -0.08900
C 	C 	0.32420 0.32429 0.51275 0.00600
C 	C 	0.35750 0.36968 0.51299 -0.09400
C 	C 	0.41100 0.38513 0.55916 0.00100
C 	C 	0.33880 0.51263 0.48663 -0.06600
C 	C 	0.39910 0.51490 0.46110 -0.01700
C 	C 	0.39360 0.49350 0.41030 -0.05300
C 	C 	0.32900 0.46905 0.38440 -0.02700
C 	C 	0.26990 0.46469 0.40950 -0.05700
C 	C 	0.27460 0.48647 0.46042 -0.02200
C 	C 	0.36270 0.60483 0.54342 -0.04200
C 	C 	0.30420 0.63903 0.53642 -0.03700
C 	C 	0.31940 0.68774 0.52810 -0.04300
C 	C 	0.39160 0.70278 0.52668 -0.04200
C 	C 	0.45080 0.66926 0.53310 -0.04500
C 	C 	0.43640 0.62055 0.54219 -0.03600
C 	C 	0.31840 0.60293 0.91893 -0.07000
C 	C 	0.32050 0.62908 0.87161 -0.00200
C 	C 	0.32220 0.67962 0.87214 -0.07100
C 	C 	0.32000 0.70468 0.91960 -0.01200
C 	C 	0.31740 0.67902 0.96630 -0.06500
C 	C 	0.31680 0.62885 0.96636 -0.00600
C 	C 	0.30200 0.51506 0.98011 -0.05000
C 	C 	0.36340 0.49627 0.01999 -0.02800
C 	C 	0.35220 0.47913 0.06964 -0.05700
C 	C 	0.28100 0.48062 0.07984 -0.03000
C 	C 	0.22020 0.49923 0.04090 -0.05200
C 	C 	0.23080 0.51616 0.99081 -0.02800
C 	C 	0.25580 0.21266 0.65797 -0.06100
C 	C 	0.31120 0.18786 0.64005 -0.02000
C 	C 	0.29070 0.15387 0.59690 -0.06200
C 	C 	0.21620 0.14470 0.57370 -0.01900
C 	C 	0.16030 0.16890 0.59080 -0.06100
C 	C 	0.17960 0.20298 0.63250 -0.02200
C 	C 	0.15950 0.61622 0.65455 -0.06700
C 	C 	0.20560 0.65289 0.68230 -0.01300
C 	C 	0.20500 0.69851 0.65810 -0.06400
C 	C 	0.16050 0.70760 0.60740 -0.01700
C 	C 	0.11530 0.67140 0.57870 -0.06200
C 	C 	0.11510 0.62584 0.60250 -0.01200
C 	C 	0.17930 0.37935 0.84366 -0.09800
C 	C 	0.19510 0.32926 0.84338 -0.01700
C 	C 	0.23850 0.30765 0.89100 -0.06900
C 	C 	0.26570 0.33480 0.93860 -0.01100
C 	C 	0.25110 0.38372 0.93845 -0.07200
C 	C 	0.20780 0.40639 0.89180 -0.01400
C 	C 	0.11870 0.35524 0.51227 -0.05600
C 	C 	0.12790 0.30527 0.52070 -0.01600
C 	C 	0.11740 0.27410 0.47580 -0.06500
C 	C 	0.09730 0.29210 0.42330 -0.01500
C 	C 	0.08780 0.34140 0.41400 -0.06900
C 	C 	0.09900 0.37292 0.45838 -0.01400
C 	C 	0.05680 0.55696 0.69625 -0.06800
C 	C 	0.00210 0.52560 0.66850 -0.00900
C 	C 	0.92800 0.52720 0.67660 -0.06200
C 	C 	0.91030 0.56020 0.71150 -0.01300
C 	C 	0.96340 0.59060 0.74010 -0.06900
C 	C 	0.03780 0.58958 0.73320 -0.01500
C 	C 	0.02990 0.40848 0.57263 -0.07600
C 	C 	0.99770 0.38772 0.61210 -0.01000
C 	C 	0.92160 0.39540 0.61120 -0.06500
C 	C 	0.87700 0.42405 0.57140 -0.01700
C 	C 	0.90770 0.44570 0.53280 -0.06200
C 	C 	0.98330 0.43813 0.53342 -0.01200
P 	P 	0.49327 0.55026 0.76861 0.34500
P 	P 	0.48273 0.37427 0.87001 0.36200
P 	P 	0.49736 0.37778 0.66705 0.34200
P 	P 	0.34472 0.54109 0.55232 0.32800
P 	P 	0.31579 0.53723 0.91538 0.33400
P 	P 	0.27798 0.25436 0.71528 0.34700
P 	P 	0.15207 0.55782 0.68608 0.34000
P 	P 	0.12154 0.40846 0.78318 0.34700
P 	P 	0.12686 0.39617 0.56990 0.34900
O 	O 	0.44185 0.52042 0.72430 -0.48800
O 	O 	0.48533 0.53862 0.82617 -0.44100
O 	O 	0.47487 0.42870 0.86454 -0.46900
O 	O 	0.43081 0.34246 0.82795 -0.46000
O 	O 	0.47776 0.35632 0.71719 -0.45800
O 	O 	0.49790 0.43297 0.66343 -0.45000
O 	O 	0.41424 0.52104 0.59351 -0.44400
O 	O 	0.26817 0.53679 0.56630 -0.44400
O 	O 	0.39153 0.51798 0.90904 -0.44900
O 	O 	0.24649 0.52377 0.87008 -0.45500
O 	O 	0.35361 0.27808 0.71797 -0.45200
O 	O 	0.20979 0.28718 0.71085 -0.44600
O 	O 	0.15669 0.51720 0.64630 -0.46200
O 	O 	0.20979 0.55793 0.74131 -0.45600
O 	O 	0.14637 0.46046 0.78056 -0.46000
O 	O 	0.12220 0.37665 0.73391 -0.45000
O 	O 	0.16813 0.36974 0.62120 -0.47100
O 	O 	0.16211 0.44309 0.55603 -0.44100
O 	O 	0.31608 0.45876 0.65438 -0.88600
O 	O 	0.32843 0.47635 0.78557 -0.84500
O 	O 	0.30354 0.38491 0.72845 -0.87700
Zn	Zn	0.41778 0.48060 0.65811 1.23200
Zn	Zn	0.41914 0.48851 0.84552 1.22400
Zn	Zn	0.39203 0.34200 0.74860 1.22400
Zn	Zn	0.22644 0.48763 0.60820 1.23100
Zn	Zn	0.23216 0.50427 0.79360 1.22600
Zn	Zn	0.20230 0.35795 0.69935 1.22800
C 	C 	0.29900 0.21680 0.77750 -0.06400
C 	C 	0.27800 0.21660 0.77400 -0.08600
C 	C 	0.23860 0.19940 0.79750 -0.01000
C 	C 	0.21040 0.19540 0.77830 0.20200
C 	C 	0.25590 0.16850 0.84420 -0.20700
C 	C 	0.21170 0.16540 0.82410 -0.06300
C 	C 	0.32980 0.15760 0.86870 0.20400
C 	C 	0.27870 0.15730 0.86190 0.08600
C 	C 	0.38880 0.17370 0.84830 -0.20600
C 	C 	0.34580 0.17610 0.85620 -0.17800
C 	C 	0.37380 0.20390 0.80090 0.19600
C 	C 	0.34680 0.20660 0.81110 0.04400
C 	C 	0.02546 0.41088 0.79140 -0.04300
C 	C 	0.00020 0.45214 0.81400 -0.02400
C 	C 	0.97900 0.37045 0.77950 -0.02500
C 	C 	0.90510 0.37170 0.78780 -0.04900
C 	C 	0.87918 0.41320 0.80840 -0.03000
C 	C 	0.92760 0.45299 0.82330 -0.04500
H 	H 	0.62760 0.61090 0.77370 0.03100
H 	H 	0.75440 0.59420 0.77610 0.05600
H 	H 	0.79420 0.51480 0.76960 0.02900
H 	H 	0.70730 0.45200 0.76020 0.05900
H 	H 	0.58160 0.46720 0.75880 0.02600
H 	H 	0.62050 0.42920 0.87370 0.03700
H 	H 	0.74660 0.40930 0.87880 0.05300
H 	H 	0.78320 0.32830 0.87870 0.02800
H 	H 	0.69310 0.26720 0.87370 0.05200
H 	H 	0.56720 0.28670 0.86950 0.02800
H 	H 	0.59540 0.38290 0.59280 0.04400
H 	H 	0.71820 0.35850 0.59470 0.05000
H 	H 	0.78750 0.31520 0.66810 0.03400
H 	H 	0.73790 0.29980 0.74180 0.04400
H 	H 	0.61550 0.32610 0.74270 0.04800
H 	H 	0.44470 0.60870 0.67280 0.03200
H 	H 	0.41850 0.69020 0.65490 0.05300
H 	H 	0.42980 0.74460 0.72620 0.03100
H 	H 	0.46600 0.71790 0.81570 0.05100
H 	H 	0.49270 0.63610 0.83340 0.03800
H 	H 	0.49420 0.42090 0.97440 0.03400
H 	H 	0.48810 0.39540 0.06140 0.05700
H 	H 	0.46810 0.31410 0.07720 0.03000
H 	H 	0.44670 0.25870 0.00540 0.05200
H 	H 	0.44840 0.28460 0.91770 0.03900
H 	H 	0.41240 0.28970 0.63480 0.02600
H 	H 	0.32300 0.26400 0.55790 0.06200
H 	H 	0.28770 0.31380 0.48170 0.02800
H 	H 	0.34420 0.38950 0.48220 0.06400
H 	H 	0.43280 0.41600 0.55920 0.01300
H 	H 	0.44360 0.53130 0.47840 0.03800
H 	H 	0.43440 0.49530 0.39370 0.04900
H 	H 	0.32570 0.45530 0.35010 0.04100
H 	H 	0.22630 0.44710 0.39260 0.04500
H 	H 	0.23370 0.48360 0.47710 0.03300
H 	H 	0.25480 0.62960 0.53700 0.05300
H 	H 	0.27960 0.71030 0.52260 0.04100
H 	H 	0.40070 0.73550 0.52140 0.04300
H 	H 	0.49960 0.67960 0.53130 0.04000
H 	H 	0.47600 0.59710 0.54710 0.04400
H 	H 	0.32120 0.61220 0.83940 0.01300
H 	H 	0.32530 0.69650 0.84060 0.05400
H 	H 	0.31950 0.73850 0.91940 0.03400
H 	H 	0.31560 0.69590 0.99810 0.05300
H 	H 	0.31520 0.61190 0.99800 0.03800
H 	H 	0.41170 0.49490 0.01320 0.04300
H 	H 	0.39350 0.46670 0.09640 0.05200
H 	H 	0.27450 0.46980 0.11380 0.04300
H 	H 	0.17150 0.50040 0.04770 0.04300
H 	H 	0.18930 0.52820 0.96420 0.04400
H 	H 	0.36260 0.19350 0.65700 0.04000
H 	H 	0.32880 0.13760 0.58470 0.05000
H 	H 	0.20310 0.12190 0.54510 0.03500
H 	H 	0.10900 0.16260 0.57400 0.04700
H 	H 	0.14120 0.21980 0.64380 0.04100
H 	H 	0.23740 0.64700 0.71720 0.04100
H 	H 	0.23490 0.72340 0.67720 0.04700
H 	H 	0.15980 0.73820 0.59180 0.03200
H 	H 	0.08410 0.67730 0.54320 0.05300
H 	H 	0.08380 0.60110 0.58310 0.03500
H 	H 	0.17630 0.31050 0.81210 0.02900
H 	H 	0.24930 0.27440 0.89060 0.05700
H 	H 	0.29350 0.31970 0.97060 0.03500
H 	H 	0.27130 0.40180 0.97010 0.05700
H 	H 	0.19830 0.43970 0.89200 0.02800
H 	H 	0.14070 0.29240 0.55620 0.03900
H 	H 	0.12390 0.24080 0.48160 0.05300
H 	H 	0.08990 0.27080 0.39360 0.03500
H 	H 	0.07380 0.35360 0.37860 0.05400
H 	H 	0.09290 0.40660 0.45230 0.03900
H 	H 	0.01380 0.50320 0.64350 0.04400
H 	H 	0.89050 0.50490 0.65720 0.05200
H 	H 	0.86020 0.56160 0.71580 0.02900
H 	H 	0.95150 0.61250 0.76480 0.04900
H 	H 	0.07460 0.61080 0.75340 0.03400
H 	H 	0.02690 0.36910 0.63950 0.03100
H 	H 	0.90100 0.38120 0.63790 0.05300
H 	H 	0.82610 0.42910 0.57140 0.03700
H 	H 	0.87750 0.46590 0.50630 0.04600
H 	H 	0.00340 0.45340 0.50720 0.03400
H 	H 	0.18820 0.20760 0.78070 -0.09400
H 	H 	0.16510 0.20070 0.75170 0.00500
H 	H 	0.21730 0.15630 0.85880 0.09900
H 	H 	0.16710 0.15140 0.82850 0.02500
H 	H 	0.34100 0.13930 0.90100 -0.05900
H 	H 	0.27870 0.13810 0.89240 -0.01800
H 	H 	0.43860 0.16420 0.86480 0.07400
H 	H 	0.39110 0.16900 0.88220 0.11400
H 	H 	0.41340 0.21450 0.78550 0.02100
H 	H 	0.39200 0.22030 0.80670 -0.11400
H 	H 	0.03280 0.47990 0.82370 0.04400
H 	H 	0.99710 0.34200 0.76530 0.04400
H 	H 	0.87310 0.34440 0.77920 0.04300
H 	H 	0.82880 0.41380 0.81340 0.03600
H 	H 	0.91210 0.48150 0.84070 0.04000
H 	H 	0.31030 0.40430 0.75350 0.32400
H 	H 	0.31240 0.43370 0.67040 0.34600
H 	H 	0.34330 0.48790 0.76030 0.29600
C 	C 	0.40820 0.04125 0.73318 -0.08100
C 	C 	0.35620 0.07884 0.72830 -0.00100
C 	C 	0.28000 0.06880 0.72705 -0.07900
C 	C 	0.25670 0.02160 0.73100 -0.00600
C 	C 	0.30830 0.98379 0.73660 -0.07600
C 	C 	0.38310 0.99301 0.73753 -0.00300
C 	C 	0.41950 0.86006 0.62929 -0.07500
C 	C 	0.36490 0.89626 0.62603 -0.00300
C 	C 	0.28930 0.88447 0.62310 -0.07200
C 	C 	0.26770 0.83625 0.62308 -0.00900
C 	C 	0.32130 0.79968 0.62615 -0.07800
C 	C 	0.39620 0.81181 0.62885 -0.00400
C 	C 	0.40780 0.85709 0.83280 -0.04400
C 	C 	0.37620 0.86630 0.87663 -0.02100
C 	C 	0.30260 0.85120 0.87570 -0.05400
C 	C 	0.26120 0.82640 0.83190 -0.02400
C 	C 	0.29090 0.81692 0.78790 -0.05500
C 	C 	0.36440 0.83243 0.78760 -0.02600
C 	C 	0.52870 0.11430 0.74455 -0.06800
C 	C 	0.55130 0.13038 0.79845 -0.01500
C 	C 	0.56720 0.17953 0.80880 -0.06700
C 	C 	0.56030 0.21198 0.76660 -0.01600
C 	C 	0.53790 0.19608 0.71320 -0.06700
C 	C 	0.52220 0.14695 0.70245 -0.01600
C 	C 	0.52820 0.85564 0.56336 -0.06800
C 	C 	0.51600 0.88839 0.51988 -0.00600
C 	C 	0.51840 0.87305 0.46727 -0.07100
C 	C 	0.53140 0.82470 0.45841 -0.00500
C 	C 	0.54350 0.79143 0.50096 -0.07200
C 	C 	0.54230 0.80680 0.55324 -0.00800
C 	C 	0.56820 0.85550 0.89482 -0.10800
C 	C 	0.60130 0.80961 0.89586 -0.00200
C 	C 	0.65500 0.79442 0.94203 -0.08900
C 	C 	0.67580 0.82429 0.98725 0.00600
C 	C 	0.64250 0.86968 0.98701 -0.09700
C 	C 	0.58900 0.88513 0.94084 0.00300
C 	C 	0.66120 0.01263 0.01337 -0.06800
C 	C 	0.60090 0.01490 0.03890 -0.01800
C 	C 	0.60640 0.99350 0.08970 -0.05200
C 	C 	0.67100 0.96905 0.11560 -0.02700
C 	C 	0.73010 0.96469 0.09050 -0.05700
C 	C 	0.72540 0.98647 0.03958 -0.02000
C 	C 	0.63730 0.10483 0.95658 -0.04200
C 	C 	0.69580 0.13903 0.96358 -0.03700
C 	C 	0.68060 0.18774 0.97190 -0.04200
C 	C 	0.60840 0.20278 0.97332 -0.04200
C 	C 	0.54920 0.16926 0.96690 -0.04500
C 	C 	0.56360 0.12055 0.95781 -0.03600
C 	C 	0.68160 0.10293 0.58107 -0.07000
C 	C 	0.67950 0.12908 0.62839 -0.00200
C 	C 	0.67780 0.17962 0.62786 -0.07100
C 	C 	0.68000 0.20468 0.58040 -0.01200
C 	C 	0.68260 0.17902 0.53370 -0.06500
C 	C 	0.68320 0.12885 0.53364 -0.00600
C 	C 	0.69800 0.01506 0.51989 -0.05000
C 	C 	0.63660 0.99627 0.48001 -0.02800
C 	C 	0.64780 0.97913 0.43036 -0.05700
C 	C 	0.71900 0.98062 0.42016 -0.03000
C 	C 	0.77980 0.99923 0.45910 -0.05200
C 	C 	0.76920 0.01616 0.50919 -0.02800
C 	C 	0.74420 0.71266 0.84203 -0.06100
C 	C 	0.68880 0.68786 0.85995 -0.02000
C 	C 	0.70930 0.65387 0.90310 -0.06200
C 	C 	0.78380 0.64470 0.92630 -0.01900
C 	C 	0.83970 0.66890 0.90920 -0.06100
C 	C 	0.82040 0.70298 0.86750 -0.02200
C 	C 	0.84050 0.11622 0.84545 -0.06600
C 	C 	0.79440 0.15289 0.81770 -0.01300
C 	C 	0.79500 0.19851 0.84190 -0.06400
C 	C 	0.83950 0.20760 0.89260 -0.01700
C 	C 	0.88470 0.17140 0.92130 -0.06100
C 	C 	0.88490 0.12584 0.89750 -0.01200
C 	C 	0.82070 0.87935 0.65634 -0.09900
C 	C 	0.80490 0.82926 0.65662 -0.01700
C 	C 	0.76150 0.80765 0.60900 -0.06900
C 	C 	0.73430 0.83480 0.56140 -0.01100
C 	C 	0.74890 0.88372 0.56155 -0.07200
C 	C 	0.79220 0.90639 0.60820 -0.01400
C 	C 	0.88130 0.85524 0.98773 -0.05700
C 	C 	0.87210 0.80527 0.97930 -0.01700
C 	C 	0.88260 0.77410 0.02420 -0.06400
C 	C 	0.90270 0.79210 0.07670 -0.01500
C 	C 	0.91220 0.84140 0.08600 -0.06900
C 	C 	0.90100 0.87292 0.04162 -0.01300
C 	C 	0.94320 0.05696 0.80375 -0.06900
C 	C 	0.99790 0.02560 0.83150 -0.00800
C 	C 	0.07200 0.02720 0.82340 -0.06400
C 	C 	0.08970 0.06020 0.78850 -0.01100
C 	C 	0.03660 0.09060 0.75990 -0.07100
C 	C 	0.96220 0.08958 0.76680 -0.01400
C 	C 	0.97010 0.90848 0.92737 -0.07800
C 	C 	0.00230 0.88772 0.88790 -0.00800
C 	C 	0.07840 0.89540 0.88880 -0.06700
C 	C 	0.12300 0.92405 0.92860 -0.01600
C 	C 	0.09230 0.94570 0.96720 -0.06400
C 	C 	0.01670 0.93813 0.96658 -0.01000
P 	P 	0.50673 0.05026 0.73139 0.34500
P 	P 	0.51727 0.87427 0.62999 0.36200
P 	P 	0.50264 0.87778 0.83295 0.34200
P 	P 	0.65528 0.04109 0.94768 0.32900
P 	P 	0.68421 0.03723 0.58462 0.33400
P 	P 	0.72202 0.75436 0.78472 0.34700
P 	P 	0.84793 0.05782 0.81392 0.34000
P 	P 	0.87846 0.90846 0.71682 0.34700
P 	P 	0.87314 0.89617 0.93010 0.35000
O 	O 	0.55815 0.02042 0.77570 -0.48800
O 	O 	0.51467 0.03862 0.67383 -0.44100
O 	O 	0.52513 0.92870 0.63546 -0.47000
O 	O 	0.56919 0.84246 0.67205 -0.46000
O 	O 	0.52224 0.85632 0.78281 -0.45800
O 	O 	0.50210 0.93297 0.83657 -0.45000
O 	O 	0.58576 0.02104 0.90649 -0.44400
O 	O 	0.73183 0.03679 0.93370 -0.44400
O 	O 	0.60847 0.01798 0.59096 -0.44900
O 	O 	0.75351 0.02377 0.62992 -0.45400
O 	O 	0.64639 0.77808 0.78203 -0.45200
O 	O 	0.79021 0.78718 0.78915 -0.44600
O 	O 	0.84331 0.01720 0.85370 -0.46100
O 	O 	0.79021 0.05793 0.75869 -0.45600
O 	O 	0.85363 0.96046 0.71944 -0.46000
O 	O 	0.87780 0.87665 0.76609 -0.45000
O 	O 	0.83187 0.86974 0.87880 -0.47100
O 	O 	0.83789 0.94309 0.94397 -0.44200
O 	O 	0.68392 0.95876 0.84562 -0.88600
O 	O 	0.67157 0.97635 0.71443 -0.84500
O 	O 	0.69646 0.88491 0.77155 -0.87800
Zn	Zn	0.58222 0.98060 0.84189 1.23100
Zn	Zn	0.58086 0.98851 0.65448 1.22400
Zn	Zn	0.60797 0.84200 0.75140 1.22400
Zn	Zn	0.77356 0.98763 0.89180 1.23100
Zn	Zn	0.76784 0.00427 0.70640 1.22600
Zn	Zn	0.79770 0.85795 0.80065 1.22800
C 	C 	0.70100 0.71680 0.72250 -0.06400
C 	C 	0.72200 0.71660 0.72600 -0.08600
C 	C 	0.76140 0.69940 0.70250 -0.01000
C 	C 	0.78960 0.69540 0.72170 0.20200
C 	C 	0.74410 0.66850 0.65580 -0.20700
C 	C 	0.78830 0.66540 0.67590 -0.06300
C 	C 	0.67020 0.65760 0.63130 0.20400
C 	C 	0.72130 0.65730 0.63810 0.08600
C 	C 	0.61120 0.67370 0.65170 -0.20600
C 	C 	0.65420 0.67610 0.64380 -0.17800
C 	C 	0.62620 0.70390 0.69910 0.19600
C 	C 	0.65320 0.70660 0.68890 0.04400
C 	C 	0.97454 0.91088 0.70860 -0.04300
C 	C 	0.99980 0.95214 0.68600 -0.02400
C 	C 	0.02100 0.87045 0.72050 -0.02500
C 	C 	0.09490 0.87170 0.71220 -0.04900
C 	C 	0.12082 0.91320 0.69160 -0.03100
C 	C 	0.07240 0.95299 0.67670 -0.04400
H 	H 	0.37240 0.11090 0.72630 0.03100
H 	H 	0.24560 0.09420 0.72390 0.05600
H 	H 	0.20580 0.01480 0.73040 0.02900
H 	H 	0.29270 0.95200 0.73980 0.05900
H 	H 	0.41840 0.96720 0.74120 0.02600
H 	H 	0.37950 0.92920 0.62630 0.03700
H 	H 	0.25340 0.90930 0.62120 0.05300
H 	H 	0.21680 0.82830 0.62130 0.02800
H 	H 	0.30690 0.76720 0.62630 0.05200
H 	H 	0.43280 0.78670 0.63050 0.02800
H 	H 	0.40460 0.88290 0.90720 0.04300
H 	H 	0.28180 0.85850 0.90530 0.05000
H 	H 	0.21250 0.81520 0.83190 0.03400
H 	H 	0.26210 0.79980 0.75820 0.04400
H 	H 	0.38450 0.82610 0.75730 0.04800
H 	H 	0.55530 0.10870 0.82720 0.03200
H 	H 	0.58150 0.19020 0.84510 0.05300
H 	H 	0.57020 0.24460 0.77380 0.03100
H 	H 	0.53400 0.21790 0.68430 0.05100
H 	H 	0.50730 0.13610 0.66660 0.03800
H 	H 	0.50580 0.92090 0.52560 0.03400
H 	H 	0.51190 0.89540 0.43860 0.05800
H 	H 	0.53190 0.81410 0.42280 0.02900
H 	H 	0.55330 0.75870 0.49460 0.05400
H 	H 	0.55160 0.78460 0.58230 0.03800
H 	H 	0.58760 0.78970 0.86520 0.02600
H 	H 	0.67700 0.76400 0.94210 0.06200
H 	H 	0.71230 0.81380 0.01830 0.02800
H 	H 	0.65580 0.88950 0.01780 0.06500
H 	H 	0.56720 0.91600 0.94080 0.01200
H 	H 	0.55640 0.03130 0.02160 0.03800
H 	H 	0.56560 0.99530 0.10630 0.04900
H 	H 	0.67430 0.95530 0.14990 0.04100
H 	H 	0.77370 0.94710 0.10740 0.04600
H 	H 	0.76630 0.98360 0.02290 0.03300
H 	H 	0.74520 0.12960 0.96300 0.05300
H 	H 	0.72040 0.21030 0.97740 0.04100
H 	H 	0.59930 0.23550 0.97860 0.04300
H 	H 	0.50040 0.17960 0.96870 0.04000
H 	H 	0.52400 0.09710 0.95290 0.04400
H 	H 	0.67880 0.11220 0.66060 0.01300
H 	H 	0.67470 0.19650 0.65940 0.05400
H 	H 	0.68050 0.23850 0.58060 0.03400
H 	H 	0.68440 0.19590 0.50190 0.05300
H 	H 	0.68480 0.11190 0.50200 0.03800
H 	H 	0.58830 0.99490 0.48680 0.04300
H 	H 	0.60650 0.96670 0.40360 0.05200
H 	H 	0.72550 0.96980 0.38620 0.04300
H 	H 	0.82850 0.00040 0.45230 0.04400
H 	H 	0.81070 0.02820 0.53580 0.04400
H 	H 	0.63740 0.69350 0.84300 0.04000
H 	H 	0.67120 0.63760 0.91530 0.05000
H 	H 	0.79690 0.62190 0.95490 0.03500
H 	H 	0.89100 0.66260 0.92600 0.04700
H 	H 	0.85880 0.71980 0.85620 0.04100
H 	H 	0.76260 0.14700 0.78280 0.04100
H 	H 	0.76510 0.22340 0.82280 0.04700
H 	H 	0.84020 0.23820 0.90820 0.03200
H 	H 	0.91590 0.17730 0.95680 0.05300
H 	H 	0.91620 0.10110 0.91690 0.03500
H 	H 	0.82370 0.81050 0.68790 0.02900
H 	H 	0.75070 0.77440 0.60940 0.05700
H 	H 	0.70650 0.81970 0.52940 0.03500
H 	H 	0.72870 0.90180 0.52990 0.05700
H 	H 	0.80170 0.93970 0.60800 0.02800
H 	H 	0.85930 0.79240 0.94380 0.04000
H 	H 	0.87610 0.74080 0.01840 0.05200
H 	H 	0.91010 0.77080 0.10640 0.03500
H 	H 	0.92620 0.85360 0.12140 0.05400
H 	H 	0.90710 0.90660 0.04770 0.03900
H 	H 	0.98620 0.00320 0.85650 0.04400
H 	H 	0.10950 0.00490 0.84280 0.05300
H 	H 	0.13980 0.06160 0.78420 0.02800
H 	H 	0.04850 0.11250 0.73520 0.05000
H 	H 	0.92540 0.11080 0.74660 0.03300
H 	H 	0.97310 0.86910 0.86050 0.03000
H 	H 	0.09900 0.88120 0.86210 0.05400
H 	H 	0.17390 0.92910 0.92860 0.03700
H 	H 	0.12250 0.96590 0.99370 0.04600
H 	H 	0.99660 0.95340 0.99280 0.03300
H 	H 	0.81180 0.70760 0.71930 -0.09400
H 	H 	0.83490 0.70070 0.74830 0.00500
H 	H 	0.78270 0.65630 0.64120 0.09900
H 	H 	0.83290 0.65140 0.67150 0.02500
H 	H 	0.65900 0.63930 0.59900 -0.05900
H 	H 	0.72130 0.63810 0.60760 -0.01800
H 	H 	0.56140 0.66420 0.63520 0.07400
H 	H 	0.60890 0.66900 0.61780 0.11400
H 	H 	0.58660 0.71450 0.71450 0.02100
H 	H 	0.60800 0.72030 0.69330 -0.11400
H 	H 	0.96720 0.97990 0.67630 0.04400
H 	H 	0.00290 0.84200 0.73470 0.04400
H 	H 	0.12690 0.84440 0.72080 0.04300
H 	H 	0.17120 0.91380 0.68660 0.03600
H 	H 	0.08790 0.98150 0.65930 0.04000
H 	H 	0.68970 0.90430 0.74650 0.32400
H 	H 	0.68760 0.93370 0.82960 0.34600
H 	H 	0.65670 0.98790 0.73970 0.29600
