data_crystal

_cell_length_a 17.29990
_cell_length_b 18.03960
_cell_length_c 24.67700
_cell_angle_alpha 90.00000
_cell_angle_beta  90.00000
_cell_angle_gamma 90.00000

_symmetry_space_group_name_	'P 1'
_symmetry_space_group_name_H-M	'P 1'

loop_
_symmetry_equiv_pos_as_xyz
  x,y,z

loop_
_atom_site_label
_atom_site_type_symbol
_atom_site_fract_x
_atom_site_fract_y
_atom_site_fract_z
_atom_site_charge
V 	V 	0.83683 0.30552 0.90768 1.70100
V 	V 	0.90420 0.30175 0.02313 1.66100
V 	V 	0.68179 0.38637 0.88494 1.72300
V 	V 	0.68206 0.21670 0.88556 1.72200
V 	V 	0.33683 0.19448 0.59232 1.69800
V 	V 	0.40420 0.19825 0.47687 1.70200
V 	V 	0.18179 0.11363 0.61506 1.72100
V 	V 	0.18206 0.28330 0.61444 1.72000
V 	V 	0.66317 0.30552 0.09232 1.69600
V 	V 	0.59580 0.30175 0.97687 1.74600
V 	V 	0.81821 0.38637 0.11506 1.72100
V 	V 	0.81794 0.21670 0.11444 1.71900
V 	V 	0.16317 0.19448 0.40768 1.69800
V 	V 	0.09580 0.19825 0.52313 1.70200
V 	V 	0.31821 0.11363 0.38494 1.72100
V 	V 	0.31794 0.28330 0.38556 1.72000
V 	V 	0.16317 0.69448 0.09232 1.69600
V 	V 	0.09580 0.69825 0.97687 1.74500
V 	V 	0.31821 0.61363 0.11506 1.72000
V 	V 	0.31794 0.78330 0.11444 1.71900
V 	V 	0.66317 0.80552 0.40768 1.69800
V 	V 	0.59580 0.80175 0.52313 1.70200
V 	V 	0.81821 0.88637 0.38494 1.72100
V 	V 	0.81794 0.71670 0.38556 1.72000
V 	V 	0.33683 0.69448 0.90768 1.70000
V 	V 	0.40420 0.69825 0.02313 1.66000
V 	V 	0.18179 0.61363 0.88494 1.72200
V 	V 	0.18206 0.78330 0.88556 1.72100
V 	V 	0.83683 0.80552 0.59232 1.69800
V 	V 	0.90420 0.80175 0.47687 1.70200
V 	V 	0.68179 0.88637 0.61506 1.72100
V 	V 	0.68206 0.71670 0.61444 1.72000
V 	V 	0.75000 0.39299 -0.00000 1.75600
V 	V 	0.75000 0.21193 -0.00000 1.76000
V 	V 	0.25000 0.10701 0.50000 1.81000
V 	V 	0.25000 0.28807 0.50000 1.81300
V 	V 	0.25000 0.60701 -0.00000 1.75600
V 	V 	0.25000 0.78807 -0.00000 1.76000
V 	V 	0.75000 0.89299 0.50000 1.81000
V 	V 	0.75000 0.71193 0.50000 1.81300
Zn	Zn	0.69861 0.34922 0.66729 1.11600
Zn	Zn	0.85081 0.15052 0.83225 1.14000
Zn	Zn	0.90436 0.07078 0.70371 1.08100
Zn	Zn	0.19861 0.15078 0.83271 1.12300
Zn	Zn	0.35081 0.34948 0.66775 1.13700
Zn	Zn	0.40436 0.42922 0.79629 1.08400
Zn	Zn	0.80139 0.34922 0.33271 1.11600
Zn	Zn	0.64919 0.15052 0.16775 1.13400
Zn	Zn	0.59564 0.07078 0.29629 1.08000
Zn	Zn	0.30139 0.15078 0.16729 1.11000
Zn	Zn	0.14919 0.34948 0.33225 1.13600
Zn	Zn	0.09564 0.42922 0.20371 1.07600
Zn	Zn	0.30139 0.65078 0.33271 1.11600
Zn	Zn	0.14919 0.84948 0.16775 1.13400
Zn	Zn	0.09564 0.92922 0.29629 1.08000
Zn	Zn	0.80139 0.84922 0.16729 1.11000
Zn	Zn	0.64919 0.65052 0.33225 1.13600
Zn	Zn	0.59564 0.57078 0.20371 1.07600
Zn	Zn	0.19861 0.65078 0.66729 1.11600
Zn	Zn	0.35081 0.84948 0.83225 1.14000
Zn	Zn	0.40436 0.92922 0.70371 1.08100
Zn	Zn	0.69861 0.84922 0.83271 1.12300
Zn	Zn	0.85081 0.65052 0.66775 1.13700
Zn	Zn	0.90436 0.57078 0.79629 1.08400
H 	H 	0.74750 0.00890 0.87180 -0.09600
H 	H 	0.74750 0.28250 0.77600 -0.06800
H 	H 	0.79990 0.91800 0.73290 -0.08600
H 	H 	0.09050 0.09540 0.73270 -0.12300
H 	H 	0.80020 0.20030 0.63390 -0.11900
H 	H 	0.02840 0.18980 0.86880 -0.13100
H 	H 	0.24750 0.49110 0.62820 -0.11000
H 	H 	0.24750 0.21750 0.72400 -0.06800
H 	H 	0.29990 0.58200 0.76710 -0.08400
H 	H 	0.59050 0.40460 0.76730 -0.12100
H 	H 	0.30020 0.29970 0.86610 -0.10200
H 	H 	0.52840 0.31020 0.63120 -0.14600
H 	H 	0.75250 0.00890 0.12820 -0.12400
H 	H 	0.75250 0.28250 0.22400 -0.06900
H 	H 	0.70010 0.91800 0.26710 -0.08700
H 	H 	0.40950 0.09540 0.26730 -0.12400
H 	H 	0.69980 0.20030 0.36610 -0.11900
H 	H 	0.47160 0.18980 0.13120 -0.16100
H 	H 	0.25250 0.49110 0.37180 -0.11000
H 	H 	0.25250 0.21750 0.27600 -0.06900
H 	H 	0.20010 0.58200 0.23290 -0.08800
H 	H 	0.90950 0.40460 0.23270 -0.12600
H 	H 	0.19980 0.29970 0.13390 -0.13600
H 	H 	0.97160 0.31020 0.36880 -0.14600
H 	H 	0.25250 0.99110 0.12820 -0.12400
H 	H 	0.25250 0.71750 0.22400 -0.06900
H 	H 	0.20010 0.08200 0.26710 -0.08700
H 	H 	0.90950 0.90460 0.26730 -0.12400
H 	H 	0.19980 0.79970 0.36610 -0.12000
H 	H 	0.97160 0.81020 0.13120 -0.16100
H 	H 	0.75250 0.50890 0.37180 -0.11000
H 	H 	0.75250 0.78250 0.27600 -0.06900
H 	H 	0.70010 0.41800 0.23290 -0.08800
H 	H 	0.40950 0.59540 0.23270 -0.12600
H 	H 	0.69980 0.70030 0.13390 -0.13600
H 	H 	0.47160 0.68980 0.36880 -0.14600
H 	H 	0.24750 0.99110 0.87180 -0.09600
H 	H 	0.24750 0.71750 0.77600 -0.06900
H 	H 	0.29990 0.08200 0.73290 -0.08600
H 	H 	0.59050 0.90460 0.73270 -0.12300
H 	H 	0.30020 0.79970 0.63390 -0.12000
H 	H 	0.52840 0.81020 0.86880 -0.13100
H 	H 	0.74750 0.50890 0.62820 -0.11000
H 	H 	0.74750 0.78250 0.72400 -0.06800
H 	H 	0.79990 0.41800 0.76710 -0.08400
H 	H 	0.09050 0.59540 0.76730 -0.12100
H 	H 	0.80020 0.70030 0.86610 -0.10200
H 	H 	0.02840 0.68980 0.63120 -0.14600
C 	C 	0.76890 0.00050 0.83686 0.05200
C 	C 	0.76870 0.25190 0.74834 0.04600
C 	C 	0.79730 0.95170 0.76239 0.05500
C 	C 	0.06010 0.11530 0.76129 0.07000
C 	C 	0.79710 0.20770 0.67200 0.05500
C 	C 	0.02690 0.16610 0.83445 0.05500
C 	C 	0.26890 0.49950 0.66314 0.04900
C 	C 	0.26870 0.24810 0.75166 0.04700
C 	C 	0.29730 0.54830 0.73761 0.05400
C 	C 	0.56010 0.38470 0.73871 0.07100
C 	C 	0.29710 0.29230 0.82800 0.05800
C 	C 	0.52690 0.33390 0.66555 0.05400
C 	C 	0.73110 0.00050 0.16314 0.04500
C 	C 	0.73130 0.25190 0.25166 0.04500
C 	C 	0.70270 0.95170 0.23761 0.05100
C 	C 	0.43990 0.11530 0.23871 0.06700
C 	C 	0.70290 0.20770 0.32800 0.05500
C 	C 	0.47310 0.16610 0.16555 0.05000
C 	C 	0.23110 0.49950 0.33686 0.04800
C 	C 	0.23130 0.24810 0.24834 0.04400
C 	C 	0.20270 0.54830 0.26239 0.05100
C 	C 	0.93990 0.38470 0.26129 0.07000
C 	C 	0.20290 0.29230 0.17200 0.05200
C 	C 	0.97310 0.33390 0.33445 0.05400
C 	C 	0.23110 0.99950 0.16314 0.04500
C 	C 	0.23130 0.74810 0.25166 0.04500
C 	C 	0.20270 0.04830 0.23761 0.05100
C 	C 	0.93990 0.88470 0.23871 0.06900
C 	C 	0.20290 0.79230 0.32800 0.05500
C 	C 	0.97310 0.83390 0.16555 0.05100
C 	C 	0.73110 0.50050 0.33686 0.04800
C 	C 	0.73130 0.75190 0.24834 0.04400
C 	C 	0.70270 0.45170 0.26239 0.05100
C 	C 	0.43990 0.61530 0.26129 0.06900
C 	C 	0.70290 0.70770 0.17200 0.05200
C 	C 	0.47310 0.66610 0.33445 0.05300
C 	C 	0.26890 0.99950 0.83686 0.05100
C 	C 	0.26870 0.74810 0.74834 0.04600
C 	C 	0.29730 0.04830 0.76239 0.05500
C 	C 	0.56010 0.88470 0.76129 0.07200
C 	C 	0.29710 0.79230 0.67200 0.05500
C 	C 	0.52690 0.83390 0.83445 0.05700
C 	C 	0.76890 0.50050 0.66314 0.05000
C 	C 	0.76870 0.75190 0.75166 0.04700
C 	C 	0.79730 0.45170 0.73761 0.05400
C 	C 	0.06010 0.61530 0.73871 0.06800
C 	C 	0.79710 0.70770 0.82800 0.05800
C 	C 	0.02690 0.66610 0.66555 0.05100
N 	N 	0.75620 0.26265 0.69551 -0.33700
N 	N 	0.75570 0.93900 0.80772 -0.32900
N 	N 	0.81400 0.04732 0.81238 -0.29300
N 	N 	0.96291 0.14900 0.80904 -0.29800
N 	N 	0.83350 0.01520 0.76336 -0.28500
N 	N 	0.83225 0.16556 0.70797 -0.28800
N 	N 	0.81310 0.19480 0.75791 -0.27100
N 	N 	0.98415 0.11584 0.76137 -0.29000
N 	N 	0.09010 0.14650 0.80653 -0.33700
N 	N 	0.25620 0.23735 0.80449 -0.33200
N 	N 	0.25570 0.56100 0.69228 -0.33400
N 	N 	0.31400 0.45268 0.68762 -0.29700
N 	N 	0.46291 0.35100 0.69096 -0.30200
N 	N 	0.33350 0.48480 0.73664 -0.28400
N 	N 	0.33225 0.33444 0.79203 -0.28400
N 	N 	0.31310 0.30520 0.74209 -0.27100
N 	N 	0.48415 0.38416 0.73863 -0.29000
N 	N 	0.59010 0.35350 0.69347 -0.34100
N 	N 	0.74380 0.26265 0.30449 -0.33700
N 	N 	0.74430 0.93900 0.19228 -0.33800
N 	N 	0.68600 0.04732 0.18762 -0.30100
N 	N 	0.53709 0.14900 0.19096 -0.30600
N 	N 	0.66650 0.01520 0.23664 -0.28700
N 	N 	0.66775 0.16556 0.29203 -0.28800
N 	N 	0.68690 0.19480 0.24209 -0.27200
N 	N 	0.51585 0.11584 0.23863 -0.29300
N 	N 	0.40990 0.14650 0.19347 -0.34600
N 	N 	0.24380 0.23735 0.19551 -0.34200
N 	N 	0.24430 0.56100 0.30772 -0.33400
N 	N 	0.18600 0.45268 0.31238 -0.29700
N 	N 	0.03709 0.35100 0.30904 -0.30300
N 	N 	0.16650 0.48480 0.26336 -0.28800
N 	N 	0.16775 0.33444 0.20797 -0.29200
N 	N 	0.18690 0.30520 0.25791 -0.27200
N 	N 	0.01585 0.38416 0.26137 -0.29400
N 	N 	0.90990 0.35350 0.30653 -0.34200
N 	N 	0.24380 0.73735 0.30449 -0.33800
N 	N 	0.24430 0.06100 0.19228 -0.33800
N 	N 	0.18600 0.95268 0.18762 -0.30100
N 	N 	0.03709 0.85100 0.19096 -0.30700
N 	N 	0.16650 0.98480 0.23664 -0.28800
N 	N 	0.16775 0.83444 0.29203 -0.28800
N 	N 	0.18690 0.80520 0.24209 -0.27200
N 	N 	0.01585 0.88416 0.23863 -0.29300
N 	N 	0.90990 0.85350 0.19347 -0.34600
N 	N 	0.74380 0.76265 0.19551 -0.34200
N 	N 	0.74430 0.43900 0.30772 -0.33400
N 	N 	0.68600 0.54732 0.31238 -0.29700
N 	N 	0.53709 0.64900 0.30904 -0.30300
N 	N 	0.66650 0.51520 0.26336 -0.28800
N 	N 	0.66775 0.66556 0.20797 -0.29200
N 	N 	0.68690 0.69480 0.25791 -0.27200
N 	N 	0.51585 0.61584 0.26137 -0.29300
N 	N 	0.40990 0.64650 0.30653 -0.34200
N 	N 	0.25620 0.73735 0.69551 -0.33700
N 	N 	0.25570 0.06100 0.80772 -0.32900
N 	N 	0.31400 0.95268 0.81238 -0.29300
N 	N 	0.46291 0.85100 0.80904 -0.29900
N 	N 	0.33350 0.98480 0.76336 -0.28500
N 	N 	0.33225 0.83444 0.70797 -0.28800
N 	N 	0.31310 0.80520 0.75791 -0.27100
N 	N 	0.48415 0.88416 0.76137 -0.29000
N 	N 	0.59010 0.85350 0.80653 -0.33700
N 	N 	0.75620 0.76265 0.80449 -0.33200
N 	N 	0.75570 0.43900 0.69228 -0.33400
N 	N 	0.81400 0.54732 0.68762 -0.29700
N 	N 	0.96291 0.64900 0.69096 -0.30100
N 	N 	0.83350 0.51520 0.73664 -0.28400
N 	N 	0.83225 0.66556 0.79203 -0.28400
N 	N 	0.81310 0.69480 0.74209 -0.27100
N 	N 	0.98415 0.61584 0.73863 -0.28900
N 	N 	0.09010 0.64650 0.69347 -0.34100
O 	O 	0.72052 0.15513 0.94961 -0.73200
O 	O 	0.85117 0.23420 0.97120 -0.85800
O 	O 	0.72034 0.44884 0.94913 -0.73200
O 	O 	0.66126 0.30154 0.84760 -0.84100
O 	O 	0.85165 0.37103 0.97124 -0.86600
O 	O 	0.90779 0.37597 0.07348 -0.89200
O 	O 	0.72131 0.30227 0.94957 -1.00500
O 	O 	0.90751 0.22719 0.07320 -0.87700
O 	O 	0.78983 0.37736 0.86994 -0.84200
O 	O 	0.79061 0.22664 0.87140 -0.97800
O 	O 	0.22052 0.34487 0.55039 -0.79400
O 	O 	0.35117 0.26580 0.52880 -0.93700
O 	O 	0.22034 0.05116 0.55087 -0.79600
O 	O 	0.16126 0.19846 0.65240 -0.84100
O 	O 	0.35165 0.12897 0.52876 -0.94500
O 	O 	0.40779 0.12403 0.42652 -0.86300
O 	O 	0.22131 0.19773 0.55043 -1.05700
O 	O 	0.40751 0.27281 0.42680 -0.84800
O 	O 	0.28983 0.12264 0.63006 -0.84700
O 	O 	0.29061 0.27336 0.62860 -0.98100
O 	O 	0.77948 0.15513 0.05039 -0.83400
O 	O 	0.64883 0.23420 0.02880 -0.99800
O 	O 	0.77966 0.44884 0.05087 -0.83600
O 	O 	0.83874 0.30154 0.15240 -0.84300
O 	O 	0.64835 0.37103 0.02876 -1.00700
O 	O 	0.59221 0.37597 0.92652 -0.83100
O 	O 	0.77869 0.30227 0.05043 -1.08400
O 	O 	0.59249 0.22719 0.92680 -0.81600
O 	O 	0.71017 0.37736 0.13006 -0.85100
O 	O 	0.70939 0.22664 0.12860 -0.98400
O 	O 	0.27948 0.34487 0.44961 -0.79500
O 	O 	0.14883 0.26580 0.47120 -0.93700
O 	O 	0.27966 0.05116 0.44913 -0.79600
O 	O 	0.33874 0.19846 0.34760 -0.84200
O 	O 	0.14835 0.12897 0.47124 -0.94500
O 	O 	0.09221 0.12403 0.57348 -0.86300
O 	O 	0.27869 0.19773 0.44957 -1.05700
O 	O 	0.09249 0.27281 0.57320 -0.84700
O 	O 	0.21017 0.12264 0.36994 -0.84800
O 	O 	0.20939 0.27336 0.37140 -0.98100
O 	O 	0.27948 0.84487 0.05039 -0.83300
O 	O 	0.14883 0.76580 0.02880 -0.99700
O 	O 	0.27966 0.55116 0.05087 -0.83600
O 	O 	0.33874 0.69846 0.15240 -0.84300
O 	O 	0.14835 0.62897 0.02876 -1.00600
O 	O 	0.09221 0.62403 0.92652 -0.83200
O 	O 	0.27869 0.69773 0.05043 -1.08400
O 	O 	0.09249 0.77281 0.92680 -0.81700
O 	O 	0.21017 0.62264 0.13006 -0.85100
O 	O 	0.20939 0.77336 0.12860 -0.98400
O 	O 	0.77948 0.65513 0.44961 -0.79400
O 	O 	0.64883 0.73420 0.47120 -0.93700
O 	O 	0.77966 0.94884 0.44913 -0.79600
O 	O 	0.83874 0.80154 0.34760 -0.84200
O 	O 	0.64835 0.87103 0.47124 -0.94500
O 	O 	0.59221 0.87597 0.57348 -0.86300
O 	O 	0.77869 0.80227 0.44957 -1.05700
O 	O 	0.59249 0.72719 0.57320 -0.84700
O 	O 	0.71017 0.87736 0.36994 -0.84800
O 	O 	0.70939 0.72664 0.37140 -0.98100
O 	O 	0.22052 0.84487 0.94961 -0.73300
O 	O 	0.35117 0.76580 0.97120 -0.85800
O 	O 	0.22034 0.55116 0.94913 -0.73300
O 	O 	0.16126 0.69846 0.84760 -0.84100
O 	O 	0.35165 0.62897 0.97124 -0.86600
O 	O 	0.40779 0.62403 0.07348 -0.89300
O 	O 	0.22131 0.69773 0.94957 -1.00600
O 	O 	0.40751 0.77281 0.07320 -0.87800
O 	O 	0.28983 0.62264 0.86994 -0.84200
O 	O 	0.29061 0.77336 0.87140 -0.97800
O 	O 	0.72052 0.65513 0.55039 -0.79400
O 	O 	0.85117 0.73420 0.52880 -0.93700
O 	O 	0.72034 0.94884 0.55087 -0.79600
O 	O 	0.66126 0.80154 0.65240 -0.84100
O 	O 	0.85165 0.87103 0.52876 -0.94500
O 	O 	0.90779 0.87597 0.42652 -0.86200
O 	O 	0.72131 0.80227 0.55043 -1.05700
O 	O 	0.90751 0.72719 0.42680 -0.84700
O 	O 	0.78983 0.87736 0.63006 -0.84700
O 	O 	0.79061 0.72664 0.62860 -0.98100
