data_crystal

_cell_length_a 22.55970
_cell_length_b 22.55970
_cell_length_c 22.55970
_cell_angle_alpha 90.00000
_cell_angle_beta  90.00000
_cell_angle_gamma 90.00000

_symmetry_space_group_name_	'P 1'
_symmetry_space_group_name_H-M	'P 1'

loop_
_symmetry_equiv_pos_as_xyz
  x,y,z

loop_
_atom_site_label
_atom_site_type_symbol
_atom_site_fract_x
_atom_site_fract_y
_atom_site_fract_z
_atom_site_charge
C 	C 	0.45275 0.44923 0.14182 0.49800
C 	C 	0.43213 0.42853 0.20167 -0.23500
C 	C 	0.37228 0.42174 0.21465 0.14900
H 	H 	0.34400 0.42760 0.18520 -0.01400
C 	C 	0.35468 0.40620 0.27161 -0.22600
H 	H 	0.31460 0.40170 0.28030 0.11000
C 	C 	0.39692 0.39745 0.31560 0.17000
C 	C 	0.45677 0.40425 0.30263 -0.23100
H 	H 	0.48500 0.39840 0.33210 0.11200
C 	C 	0.47437 0.41978 0.24566 0.15000
H 	H 	0.51440 0.42430 0.23700 -0.02000
Zn	Zn	0.42775 0.45372 0.01253 1.11200
O 	O 	0.41571 0.45311 0.10193 -0.60600
O 	O 	0.50295 0.46587 0.13501 -0.68300
C 	C 	0.04725 0.55077 0.64182 0.58700
C 	C 	0.06787 0.57147 0.70167 -0.32000
C 	C 	0.12772 0.57826 0.71465 0.21400
H 	H 	0.15600 0.57240 0.68520 -0.03900
C 	C 	0.14532 0.59380 0.77161 -0.28000
H 	H 	0.18540 0.59830 0.78030 0.12600
C 	C 	0.10308 0.60255 0.81560 0.21700
C 	C 	0.04323 0.59575 0.80263 -0.32000
H 	H 	0.01500 0.60160 0.83210 0.15700
C 	C 	0.02563 0.58022 0.74566 0.30300
H 	H 	0.98560 0.57570 0.73700 -0.10000
Zn	Zn	0.07225 0.54628 0.51253 1.10500
O 	O 	0.08429 0.54689 0.60193 -0.62800
O 	O 	0.99705 0.53413 0.63501 -0.74000
C 	C 	0.54725 0.94923 0.35818 0.50400
C 	C 	0.56787 0.92853 0.29833 -0.24900
C 	C 	0.62772 0.92174 0.28535 0.15000
H 	H 	0.65600 0.92760 0.31480 -0.02500
C 	C 	0.64532 0.90620 0.22839 -0.23500
H 	H 	0.68540 0.90170 0.21970 0.10600
C 	C 	0.60308 0.89745 0.18440 0.16800
C 	C 	0.54323 0.90425 0.19737 -0.24200
H 	H 	0.51500 0.89840 0.16790 0.11200
C 	C 	0.52563 0.91978 0.25434 0.15300
H 	H 	0.48560 0.92430 0.26300 -0.02800
Zn	Zn	0.57225 0.95372 0.48747 1.09700
O 	O 	0.58429 0.95311 0.39807 -0.62700
O 	O 	0.49705 0.96587 0.36499 -0.70400
C 	C 	0.95275 0.05077 0.85818 0.41000
C 	C 	0.93213 0.07147 0.79833 -0.14400
C 	C 	0.87228 0.07826 0.78535 0.08300
H 	H 	0.84400 0.07240 0.81480 0.01200
C 	C 	0.85468 0.09380 0.72839 -0.16800
H 	H 	0.81460 0.09830 0.71970 0.09100
C 	C 	0.89692 0.10255 0.68440 0.12200
C 	C 	0.95677 0.09575 0.69737 -0.13500
H 	H 	0.98500 0.10160 0.66790 0.06500
C 	C 	0.97437 0.08022 0.75434 -0.00600
H 	H 	0.01440 0.07570 0.76300 0.06600
Zn	Zn	0.92775 0.04628 0.98747 1.08300
O 	O 	0.91571 0.04689 0.89807 -0.58800
O 	O 	0.00295 0.03413 0.86499 -0.61500
C 	C 	0.14182 0.45275 0.44923 0.49700
C 	C 	0.20167 0.43213 0.42853 -0.23600
C 	C 	0.21465 0.37228 0.42174 0.14800
H 	H 	0.18520 0.34400 0.42760 -0.01500
C 	C 	0.27161 0.35468 0.40620 -0.22700
H 	H 	0.28030 0.31460 0.40170 0.10900
C 	C 	0.31560 0.39692 0.39745 0.16900
C 	C 	0.30263 0.45677 0.40425 -0.23200
H 	H 	0.33210 0.48500 0.39840 0.11200
C 	C 	0.24566 0.47437 0.41978 0.15000
H 	H 	0.23700 0.51440 0.42430 -0.02000
Zn	Zn	0.01253 0.42775 0.45372 1.11200
O 	O 	0.10193 0.41571 0.45311 -0.60600
O 	O 	0.13501 0.50295 0.46587 -0.68300
C 	C 	0.64182 0.04725 0.55077 0.58700
C 	C 	0.70167 0.06787 0.57147 -0.32000
C 	C 	0.71465 0.12772 0.57826 0.21400
H 	H 	0.68520 0.15600 0.57240 -0.03900
C 	C 	0.77161 0.14532 0.59380 -0.28000
H 	H 	0.78030 0.18540 0.59830 0.12600
C 	C 	0.81560 0.10308 0.60255 0.21700
C 	C 	0.80263 0.04323 0.59575 -0.32000
H 	H 	0.83210 0.01500 0.60160 0.15700
C 	C 	0.74566 0.02563 0.58022 0.30300
H 	H 	0.73700 0.98560 0.57570 -0.10000
Zn	Zn	0.51253 0.07225 0.54628 1.10500
O 	O 	0.60193 0.08429 0.54689 -0.62800
O 	O 	0.63501 0.99705 0.53413 -0.74000
C 	C 	0.35818 0.54725 0.94923 0.50400
C 	C 	0.29833 0.56787 0.92853 -0.24900
C 	C 	0.28535 0.62772 0.92174 0.15000
H 	H 	0.31480 0.65600 0.92760 -0.02500
C 	C 	0.22839 0.64532 0.90620 -0.23500
H 	H 	0.21970 0.68540 0.90170 0.10600
C 	C 	0.18440 0.60308 0.89745 0.16800
C 	C 	0.19737 0.54323 0.90425 -0.24200
H 	H 	0.16790 0.51500 0.89840 0.11200
C 	C 	0.25434 0.52563 0.91978 0.15300
H 	H 	0.26300 0.48560 0.92430 -0.02800
Zn	Zn	0.48747 0.57225 0.95372 1.09700
O 	O 	0.39807 0.58429 0.95311 -0.62700
O 	O 	0.36499 0.49705 0.96587 -0.70400
C 	C 	0.85818 0.95275 0.05077 0.41000
C 	C 	0.79833 0.93213 0.07147 -0.14400
C 	C 	0.78535 0.87228 0.07826 0.08300
H 	H 	0.81480 0.84400 0.07240 0.01200
C 	C 	0.72839 0.85468 0.09380 -0.16800
H 	H 	0.71970 0.81460 0.09830 0.09100
C 	C 	0.68440 0.89692 0.10255 0.12200
C 	C 	0.69737 0.95677 0.09575 -0.13500
H 	H 	0.66790 0.98500 0.10160 0.06500
C 	C 	0.75434 0.97437 0.08022 -0.00600
H 	H 	0.76300 0.01440 0.07570 0.06600
Zn	Zn	0.98747 0.92775 0.04628 1.08300
O 	O 	0.89807 0.91571 0.04689 -0.58800
O 	O 	0.86499 0.00295 0.03413 -0.61500
C 	C 	0.44923 0.14182 0.45275 0.49700
C 	C 	0.42853 0.20167 0.43213 -0.23600
C 	C 	0.42174 0.21465 0.37228 0.14800
H 	H 	0.42760 0.18520 0.34400 -0.01500
C 	C 	0.40620 0.27161 0.35468 -0.22700
H 	H 	0.40170 0.28030 0.31460 0.10900
C 	C 	0.39745 0.31560 0.39692 0.16900
C 	C 	0.40425 0.30263 0.45677 -0.23200
H 	H 	0.39840 0.33210 0.48500 0.11200
C 	C 	0.41978 0.24566 0.47437 0.15000
H 	H 	0.42430 0.23700 0.51440 -0.02000
Zn	Zn	0.45372 0.01253 0.42775 1.11200
O 	O 	0.45311 0.10193 0.41571 -0.60600
O 	O 	0.46587 0.13501 0.50295 -0.68300
C 	C 	0.55077 0.64182 0.04725 0.58700
C 	C 	0.57147 0.70167 0.06787 -0.32000
C 	C 	0.57826 0.71465 0.12772 0.21400
H 	H 	0.57240 0.68520 0.15600 -0.03900
C 	C 	0.59380 0.77161 0.14532 -0.28000
H 	H 	0.59830 0.78030 0.18540 0.12600
C 	C 	0.60255 0.81560 0.10308 0.21700
C 	C 	0.59575 0.80263 0.04323 -0.32000
H 	H 	0.60160 0.83210 0.01500 0.15700
C 	C 	0.58022 0.74566 0.02563 0.30300
H 	H 	0.57570 0.73700 0.98560 -0.10000
Zn	Zn	0.54628 0.51253 0.07225 1.10500
O 	O 	0.54689 0.60193 0.08429 -0.62800
O 	O 	0.53413 0.63501 0.99705 -0.74000
C 	C 	0.94923 0.35818 0.54725 0.50400
C 	C 	0.92853 0.29833 0.56787 -0.24900
C 	C 	0.92174 0.28535 0.62772 0.15000
H 	H 	0.92760 0.31480 0.65600 -0.02500
C 	C 	0.90620 0.22839 0.64532 -0.23500
H 	H 	0.90170 0.21970 0.68540 0.10600
C 	C 	0.89745 0.18440 0.60308 0.16800
C 	C 	0.90425 0.19737 0.54323 -0.24200
H 	H 	0.89840 0.16790 0.51500 0.11200
C 	C 	0.91978 0.25434 0.52563 0.15300
H 	H 	0.92430 0.26300 0.48560 -0.02800
Zn	Zn	0.95372 0.48747 0.57225 1.09700
O 	O 	0.95311 0.39807 0.58429 -0.62700
O 	O 	0.96587 0.36499 0.49705 -0.70400
C 	C 	0.05077 0.85818 0.95275 0.41000
C 	C 	0.07147 0.79833 0.93213 -0.14400
C 	C 	0.07826 0.78535 0.87228 0.08300
H 	H 	0.07240 0.81480 0.84400 0.01200
C 	C 	0.09380 0.72839 0.85468 -0.16800
H 	H 	0.09830 0.71970 0.81460 0.09100
C 	C 	0.10255 0.68440 0.89692 0.12200
C 	C 	0.09575 0.69737 0.95677 -0.13500
H 	H 	0.10160 0.66790 0.98500 0.06500
C 	C 	0.08022 0.75434 0.97437 -0.00600
H 	H 	0.07570 0.76300 0.01440 0.06600
Zn	Zn	0.04628 0.98747 0.92775 1.08300
O 	O 	0.04689 0.89807 0.91571 -0.58800
O 	O 	0.03413 0.86499 0.00295 -0.61500
C 	C 	0.54725 0.55077 0.85818 0.50200
C 	C 	0.56787 0.57147 0.79833 -0.24000
C 	C 	0.62772 0.57826 0.78535 0.15100
H 	H 	0.65600 0.57240 0.81480 -0.01900
C 	C 	0.64532 0.59380 0.72839 -0.22900
H 	H 	0.68540 0.59830 0.71970 0.10800
C 	C 	0.60308 0.60255 0.68440 0.17100
C 	C 	0.54323 0.59575 0.69737 -0.23400
H 	H 	0.51500 0.60160 0.66790 0.11200
C 	C 	0.52563 0.58022 0.75434 0.15200
H 	H 	0.48560 0.57570 0.76300 -0.02200
Zn	Zn	0.57225 0.54628 0.98747 1.08900
O 	O 	0.58429 0.54689 0.89807 -0.61700
O 	O 	0.49705 0.53413 0.86499 -0.68700
C 	C 	0.95275 0.44923 0.35818 0.40900
C 	C 	0.93213 0.42853 0.29833 -0.15100
C 	C 	0.87228 0.42174 0.28535 0.08100
H 	H 	0.84400 0.42760 0.31480 0.00600
C 	C 	0.85468 0.40620 0.22839 -0.17200
H 	H 	0.81460 0.40170 0.21970 0.08900
C 	C 	0.89692 0.39745 0.18440 0.11900
C 	C 	0.95677 0.40425 0.19737 -0.14000
H 	H 	0.98500 0.39840 0.16790 0.06400
C 	C 	0.97437 0.41978 0.25434 -0.00900
H 	H 	0.01440 0.42430 0.26300 0.06200
Zn	Zn	0.92775 0.45372 0.48747 1.09500
O 	O 	0.91571 0.45311 0.39807 -0.59400
O 	O 	0.00295 0.46587 0.36499 -0.62700
C 	C 	0.45275 0.05077 0.64182 0.49500
C 	C 	0.43213 0.07147 0.70167 -0.22600
C 	C 	0.37228 0.07826 0.71465 0.14800
H 	H 	0.34400 0.07240 0.68520 -0.00900
C 	C 	0.35468 0.09380 0.77161 -0.22000
H 	H 	0.31460 0.09830 0.78030 0.11000
C 	C 	0.39692 0.10255 0.81560 0.17000
C 	C 	0.45677 0.09575 0.80263 -0.22300
H 	H 	0.48500 0.10160 0.83210 0.11100
C 	C 	0.47437 0.08022 0.74566 0.14800
H 	H 	0.51440 0.07570 0.73700 -0.01500
Zn	Zn	0.42775 0.04628 0.51253 1.10300
O 	O 	0.41571 0.04689 0.60193 -0.59500
O 	O 	0.50295 0.03413 0.63501 -0.66600
C 	C 	0.04725 0.94923 0.14182 0.58800
C 	C 	0.06787 0.92853 0.20167 -0.32900
C 	C 	0.12772 0.92174 0.21465 0.21400
H 	H 	0.15600 0.92760 0.18520 -0.04600
C 	C 	0.14532 0.90620 0.27161 -0.28600
H 	H 	0.18540 0.90170 0.28030 0.12400
C 	C 	0.10308 0.89745 0.31560 0.21500
C 	C 	0.04323 0.90425 0.30263 -0.32800
H 	H 	0.01500 0.89840 0.33210 0.15700
C 	C 	0.02563 0.91978 0.24566 0.30400
H 	H 	0.98560 0.92430 0.23700 -0.10500
Zn	Zn	0.07225 0.95372 0.01253 1.10800
O 	O 	0.08429 0.95311 0.10193 -0.64100
O 	O 	0.99705 0.96587 0.13501 -0.75800
C 	C 	0.85818 0.54725 0.55077 0.50200
C 	C 	0.79833 0.56787 0.57147 -0.24000
C 	C 	0.78535 0.62772 0.57826 0.15100
H 	H 	0.81480 0.65600 0.57240 -0.01900
C 	C 	0.72839 0.64532 0.59380 -0.22900
H 	H 	0.71970 0.68540 0.59830 0.10800
C 	C 	0.68440 0.60308 0.60255 0.17100
C 	C 	0.69737 0.54323 0.59575 -0.23400
H 	H 	0.66790 0.51500 0.60160 0.11200
C 	C 	0.75434 0.52563 0.58022 0.15200
H 	H 	0.76300 0.48560 0.57570 -0.02200
Zn	Zn	0.98747 0.57225 0.54628 1.08900
O 	O 	0.89807 0.58429 0.54689 -0.61700
O 	O 	0.86499 0.49705 0.53413 -0.68700
C 	C 	0.35818 0.95275 0.44923 0.40900
C 	C 	0.29833 0.93213 0.42853 -0.15100
C 	C 	0.28535 0.87228 0.42174 0.08100
H 	H 	0.31480 0.84400 0.42760 0.00600
C 	C 	0.22839 0.85468 0.40620 -0.17200
H 	H 	0.21970 0.81460 0.40170 0.08900
C 	C 	0.18440 0.89692 0.39745 0.11900
C 	C 	0.19737 0.95677 0.40425 -0.14000
H 	H 	0.16790 0.98500 0.39840 0.06400
C 	C 	0.25434 0.97437 0.41978 -0.00900
H 	H 	0.26300 0.01440 0.42430 0.06200
Zn	Zn	0.48747 0.92775 0.45372 1.09500
O 	O 	0.39807 0.91571 0.45311 -0.59400
O 	O 	0.36499 0.00295 0.46587 -0.62700
C 	C 	0.64182 0.45275 0.05077 0.49500
C 	C 	0.70167 0.43213 0.07147 -0.22600
C 	C 	0.71465 0.37228 0.07826 0.14800
H 	H 	0.68520 0.34400 0.07240 -0.00900
C 	C 	0.77161 0.35468 0.09380 -0.22000
H 	H 	0.78030 0.31460 0.09830 0.11000
C 	C 	0.81560 0.39692 0.10255 0.17000
C 	C 	0.80263 0.45677 0.09575 -0.22300
H 	H 	0.83210 0.48500 0.10160 0.11100
C 	C 	0.74566 0.47437 0.08022 0.14800
H 	H 	0.73700 0.51440 0.07570 -0.01500
Zn	Zn	0.51253 0.42775 0.04628 1.10300
O 	O 	0.60193 0.41571 0.04689 -0.59500
O 	O 	0.63501 0.50295 0.03413 -0.66600
C 	C 	0.14182 0.04725 0.94923 0.58800
C 	C 	0.20167 0.06787 0.92853 -0.32900
C 	C 	0.21465 0.12772 0.92174 0.21400
H 	H 	0.18520 0.15600 0.92760 -0.04600
C 	C 	0.27161 0.14532 0.90620 -0.28600
H 	H 	0.28030 0.18540 0.90170 0.12400
C 	C 	0.31560 0.10308 0.89745 0.21500
C 	C 	0.30263 0.04323 0.90425 -0.32800
H 	H 	0.33210 0.01500 0.89840 0.15700
C 	C 	0.24566 0.02563 0.91978 0.30400
H 	H 	0.23700 0.98560 0.92430 -0.10500
Zn	Zn	0.01253 0.07225 0.95372 1.10800
O 	O 	0.10193 0.08429 0.95311 -0.64100
O 	O 	0.13501 0.99705 0.96587 -0.75800
C 	C 	0.55077 0.85818 0.54725 0.50200
C 	C 	0.57147 0.79833 0.56787 -0.24000
C 	C 	0.57826 0.78535 0.62772 0.15100
H 	H 	0.57240 0.81480 0.65600 -0.01900
C 	C 	0.59380 0.72839 0.64532 -0.22900
H 	H 	0.59830 0.71970 0.68540 0.10800
C 	C 	0.60255 0.68440 0.60308 0.17100
C 	C 	0.59575 0.69737 0.54323 -0.23400
H 	H 	0.60160 0.66790 0.51500 0.11200
C 	C 	0.58022 0.75434 0.52563 0.15200
H 	H 	0.57570 0.76300 0.48560 -0.02200
Zn	Zn	0.54628 0.98747 0.57225 1.08900
O 	O 	0.54689 0.89807 0.58429 -0.61700
O 	O 	0.53413 0.86499 0.49705 -0.68700
C 	C 	0.44923 0.35818 0.95275 0.40900
C 	C 	0.42853 0.29833 0.93213 -0.15100
C 	C 	0.42174 0.28535 0.87228 0.08100
H 	H 	0.42760 0.31480 0.84400 0.00600
C 	C 	0.40620 0.22839 0.85468 -0.17200
H 	H 	0.40170 0.21970 0.81460 0.08900
C 	C 	0.39745 0.18440 0.89692 0.11900
C 	C 	0.40425 0.19737 0.95677 -0.14000
H 	H 	0.39840 0.16790 0.98500 0.06400
C 	C 	0.41978 0.25434 0.97437 -0.00900
H 	H 	0.42430 0.26300 0.01440 0.06200
Zn	Zn	0.45372 0.48747 0.92775 1.09500
O 	O 	0.45311 0.39807 0.91571 -0.59400
O 	O 	0.46587 0.36499 0.00295 -0.62700
C 	C 	0.05077 0.64182 0.45275 0.49500
C 	C 	0.07147 0.70167 0.43213 -0.22600
C 	C 	0.07826 0.71465 0.37228 0.14800
H 	H 	0.07240 0.68520 0.34400 -0.00900
C 	C 	0.09380 0.77161 0.35468 -0.22000
H 	H 	0.09830 0.78030 0.31460 0.11000
C 	C 	0.10255 0.81560 0.39692 0.17000
C 	C 	0.09575 0.80263 0.45677 -0.22300
H 	H 	0.10160 0.83210 0.48500 0.11100
C 	C 	0.08022 0.74566 0.47437 0.14800
H 	H 	0.07570 0.73700 0.51440 -0.01500
Zn	Zn	0.04628 0.51253 0.42775 1.10300
O 	O 	0.04689 0.60193 0.41571 -0.59500
O 	O 	0.03413 0.63501 0.50295 -0.66600
C 	C 	0.94923 0.14182 0.04725 0.58800
C 	C 	0.92853 0.20167 0.06787 -0.32900
C 	C 	0.92174 0.21465 0.12772 0.21400
H 	H 	0.92760 0.18520 0.15600 -0.04600
C 	C 	0.90620 0.27161 0.14532 -0.28600
H 	H 	0.90170 0.28030 0.18540 0.12400
C 	C 	0.89745 0.31560 0.10308 0.21500
C 	C 	0.90425 0.30263 0.04323 -0.32800
H 	H 	0.89840 0.33210 0.01500 0.15700
C 	C 	0.91978 0.24566 0.02563 0.30400
H 	H 	0.92430 0.23700 0.98560 -0.10500
Zn	Zn	0.95372 0.01253 0.07225 1.10800
O 	O 	0.95311 0.10193 0.08429 -0.64100
O 	O 	0.96587 0.13501 0.99705 -0.75800
C 	C 	0.38370 0.38370 0.38370 -0.21300
H 	H 	0.40880 0.40880 0.40880 0.06100
C 	C 	0.11630 0.61630 0.88370 -0.21300
H 	H 	0.09120 0.59120 0.90880 0.06000
C 	C 	0.61630 0.88370 0.11630 -0.21300
H 	H 	0.59120 0.90880 0.09120 0.06000
C 	C 	0.88370 0.11630 0.61630 -0.21300
H 	H 	0.90880 0.09120 0.59120 0.06000
C 	C 	0.61630 0.61630 0.61630 -0.21500
H 	H 	0.59120 0.59120 0.59120 0.06200
C 	C 	0.88370 0.38370 0.11630 -0.21200
H 	H 	0.90880 0.40880 0.09120 0.05900
C 	C 	0.38370 0.11630 0.88370 -0.21200
H 	H 	0.40880 0.09120 0.90880 0.05900
C 	C 	0.11630 0.88370 0.38370 -0.21200
H 	H 	0.09120 0.90880 0.40880 0.05900
O 	O 	0.50000 0.50000 -0.00000 -1.24200
O 	O 	0.00000 0.50000 0.50000 -1.24200
O 	O 	0.50000 0.00000 0.50000 -1.24200
O 	O 	-0.00000 0.00000 -0.00000 -1.18700
C 	C 	0.95275 0.94923 0.64182 0.41800
C 	C 	0.93213 0.92853 0.70167 -0.16100
C 	C 	0.87228 0.92174 0.71465 0.07600
H 	H 	0.84400 0.92760 0.68520 0.00100
C 	C 	0.85468 0.90620 0.77161 -0.16600
H 	H 	0.81460 0.90170 0.78030 0.08400
C 	C 	0.89692 0.89745 0.81560 0.10100
C 	C 	0.95677 0.90425 0.80263 -0.13900
H 	H 	0.98500 0.89840 0.83210 0.05800
C 	C 	0.97437 0.91978 0.74566 -0.00500
H 	H 	0.01440 0.92430 0.73700 0.05100
Zn	Zn	0.92775 0.95372 0.51253 1.09000
O 	O 	0.91571 0.95311 0.60193 -0.61100
O 	O 	0.00295 0.96587 0.63501 -0.65000
C 	C 	0.54725 0.05077 0.14182 0.49500
C 	C 	0.56787 0.07147 0.20167 -0.22700
C 	C 	0.62772 0.07826 0.21465 0.15100
H 	H 	0.65600 0.07240 0.18520 -0.00900
C 	C 	0.64532 0.09380 0.27161 -0.22600
H 	H 	0.68540 0.09830 0.28030 0.11200
C 	C 	0.60308 0.10255 0.31560 0.17800
C 	C 	0.54323 0.09575 0.30263 -0.22900
H 	H 	0.51500 0.10160 0.33210 0.11500
C 	C 	0.52563 0.08022 0.24566 0.15200
H 	H 	0.48560 0.07570 0.23700 -0.01500
Zn	Zn	0.57225 0.04628 0.01253 1.11300
O 	O 	0.58429 0.04689 0.10193 -0.59100
O 	O 	0.49705 0.03413 0.13501 -0.66500
C 	C 	0.04725 0.44923 0.85818 0.59000
C 	C 	0.06787 0.42853 0.79833 -0.32600
C 	C 	0.12772 0.42174 0.78535 0.22000
H 	H 	0.15600 0.42760 0.81480 -0.04300
C 	C 	0.14532 0.40620 0.72839 -0.28800
H 	H 	0.18540 0.40170 0.71970 0.12900
C 	C 	0.10308 0.39745 0.68440 0.22700
C 	C 	0.04323 0.40425 0.69737 -0.32900
H 	H 	0.01500 0.39840 0.66790 0.16200
C 	C 	0.02563 0.41978 0.75434 0.31000
H 	H 	0.98560 0.42430 0.76300 -0.10200
Zn	Zn	0.07225 0.45372 0.98747 1.09100
O 	O 	0.08429 0.45311 0.89807 -0.63500
O 	O 	0.99705 0.46587 0.86499 -0.74300
C 	C 	0.45275 0.55077 0.35818 0.50100
C 	C 	0.43213 0.57147 0.29833 -0.24100
C 	C 	0.37228 0.57826 0.28535 0.15400
H 	H 	0.34400 0.57240 0.31480 -0.01800
C 	C 	0.35468 0.59380 0.22839 -0.23400
H 	H 	0.31460 0.59830 0.21970 0.11000
C 	C 	0.39692 0.60255 0.18440 0.17800
C 	C 	0.45677 0.59575 0.19737 -0.23900
H 	H 	0.48500 0.60160 0.16790 0.11600
C 	C 	0.47437 0.58022 0.25434 0.15600
H 	H 	0.51440 0.57570 0.26300 -0.02200
Zn	Zn	0.42775 0.54628 0.48747 1.10200
O 	O 	0.41571 0.54689 0.39807 -0.61100
O 	O 	0.50295 0.53413 0.36499 -0.68400
C 	C 	0.64182 0.95275 0.94923 0.41800
C 	C 	0.70167 0.93213 0.92853 -0.16100
C 	C 	0.71465 0.87228 0.92174 0.07600
H 	H 	0.68520 0.84400 0.92760 0.00100
C 	C 	0.77161 0.85468 0.90620 -0.16600
H 	H 	0.78030 0.81460 0.90170 0.08400
C 	C 	0.81560 0.89692 0.89745 0.10100
C 	C 	0.80263 0.95677 0.90425 -0.13900
H 	H 	0.83210 0.98500 0.89840 0.05800
C 	C 	0.74566 0.97437 0.91978 -0.00500
H 	H 	0.73700 0.01440 0.92430 0.05100
Zn	Zn	0.51253 0.92775 0.95372 1.09000
O 	O 	0.60193 0.91571 0.95311 -0.61100
O 	O 	0.63501 0.00295 0.96587 -0.65000
C 	C 	0.14182 0.54725 0.05077 0.49500
C 	C 	0.20167 0.56787 0.07147 -0.22700
C 	C 	0.21465 0.62772 0.07826 0.15100
H 	H 	0.18520 0.65600 0.07240 -0.00900
C 	C 	0.27161 0.64532 0.09380 -0.22600
H 	H 	0.28030 0.68540 0.09830 0.11200
C 	C 	0.31560 0.60308 0.10255 0.17800
C 	C 	0.30263 0.54323 0.09575 -0.22900
H 	H 	0.33210 0.51500 0.10160 0.11500
C 	C 	0.24566 0.52563 0.08022 0.15200
H 	H 	0.23700 0.48560 0.07570 -0.01500
Zn	Zn	0.01253 0.57225 0.04628 1.11300
O 	O 	0.10193 0.58429 0.04689 -0.59100
O 	O 	0.13501 0.49705 0.03413 -0.66500
C 	C 	0.85818 0.04725 0.44923 0.59000
C 	C 	0.79833 0.06787 0.42853 -0.32600
C 	C 	0.78535 0.12772 0.42174 0.22000
H 	H 	0.81480 0.15600 0.42760 -0.04300
C 	C 	0.72839 0.14532 0.40620 -0.28800
H 	H 	0.71970 0.18540 0.40170 0.12900
C 	C 	0.68440 0.10308 0.39745 0.22700
C 	C 	0.69737 0.04323 0.40425 -0.32900
H 	H 	0.66790 0.01500 0.39840 0.16200
C 	C 	0.75434 0.02563 0.41978 0.31000
H 	H 	0.76300 0.98560 0.42430 -0.10200
Zn	Zn	0.98747 0.07225 0.45372 1.09100
O 	O 	0.89807 0.08429 0.45311 -0.63500
O 	O 	0.86499 0.99705 0.46587 -0.74300
C 	C 	0.35818 0.45275 0.55077 0.50100
C 	C 	0.29833 0.43213 0.57147 -0.24100
C 	C 	0.28535 0.37228 0.57826 0.15400
H 	H 	0.31480 0.34400 0.57240 -0.01800
C 	C 	0.22839 0.35468 0.59380 -0.23400
H 	H 	0.21970 0.31460 0.59830 0.11000
C 	C 	0.18440 0.39692 0.60255 0.17800
C 	C 	0.19737 0.45677 0.59575 -0.23900
H 	H 	0.16790 0.48500 0.60160 0.11600
C 	C 	0.25434 0.47437 0.58022 0.15600
H 	H 	0.26300 0.51440 0.57570 -0.02200
Zn	Zn	0.48747 0.42775 0.54628 1.10200
O 	O 	0.39807 0.41571 0.54689 -0.61100
O 	O 	0.36499 0.50295 0.53413 -0.68400
C 	C 	0.94923 0.64182 0.95275 0.41800
C 	C 	0.92853 0.70167 0.93213 -0.16100
C 	C 	0.92174 0.71465 0.87228 0.07600
H 	H 	0.92760 0.68520 0.84400 0.00100
C 	C 	0.90620 0.77161 0.85468 -0.16600
H 	H 	0.90170 0.78030 0.81460 0.08400
C 	C 	0.89745 0.81560 0.89692 0.10100
C 	C 	0.90425 0.80263 0.95677 -0.13900
H 	H 	0.89840 0.83210 0.98500 0.05800
C 	C 	0.91978 0.74566 0.97437 -0.00500
H 	H 	0.92430 0.73700 0.01440 0.05100
Zn	Zn	0.95372 0.51253 0.92775 1.09000
O 	O 	0.95311 0.60193 0.91571 -0.61100
O 	O 	0.96587 0.63501 0.00295 -0.65000
C 	C 	0.05077 0.14182 0.54725 0.49500
C 	C 	0.07147 0.20167 0.56787 -0.22700
C 	C 	0.07826 0.21465 0.62772 0.15100
H 	H 	0.07240 0.18520 0.65600 -0.00900
C 	C 	0.09380 0.27161 0.64532 -0.22600
H 	H 	0.09830 0.28030 0.68540 0.11200
C 	C 	0.10255 0.31560 0.60308 0.17800
C 	C 	0.09575 0.30263 0.54323 -0.22900
H 	H 	0.10160 0.33210 0.51500 0.11500
C 	C 	0.08022 0.24566 0.52563 0.15200
H 	H 	0.07570 0.23700 0.48560 -0.01500
Zn	Zn	0.04628 0.01253 0.57225 1.11300
O 	O 	0.04689 0.10193 0.58429 -0.59100
O 	O 	0.03413 0.13501 0.49705 -0.66500
C 	C 	0.44923 0.85818 0.04725 0.59000
C 	C 	0.42853 0.79833 0.06787 -0.32600
C 	C 	0.42174 0.78535 0.12772 0.22000
H 	H 	0.42760 0.81480 0.15600 -0.04300
C 	C 	0.40620 0.72839 0.14532 -0.28800
H 	H 	0.40170 0.71970 0.18540 0.12900
C 	C 	0.39745 0.68440 0.10308 0.22700
C 	C 	0.40425 0.69737 0.04323 -0.32900
H 	H 	0.39840 0.66790 0.01500 0.16200
C 	C 	0.41978 0.75434 0.02563 0.31000
H 	H 	0.42430 0.76300 0.98560 -0.10200
Zn	Zn	0.45372 0.98747 0.07225 1.09100
O 	O 	0.45311 0.89807 0.08429 -0.63500
O 	O 	0.46587 0.86499 0.99705 -0.74300
C 	C 	0.55077 0.35818 0.45275 0.50100
C 	C 	0.57147 0.29833 0.43213 -0.24100
C 	C 	0.57826 0.28535 0.37228 0.15400
H 	H 	0.57240 0.31480 0.34400 -0.01800
C 	C 	0.59380 0.22839 0.35468 -0.23400
H 	H 	0.59830 0.21970 0.31460 0.11000
C 	C 	0.60255 0.18440 0.39692 0.17800
C 	C 	0.59575 0.19737 0.45677 -0.23900
H 	H 	0.60160 0.16790 0.48500 0.11600
C 	C 	0.58022 0.25434 0.47437 0.15600
H 	H 	0.57570 0.26300 0.51440 -0.02200
Zn	Zn	0.54628 0.48747 0.42775 1.10200
O 	O 	0.54689 0.39807 0.41571 -0.61100
O 	O 	0.53413 0.36499 0.50295 -0.68400
C 	C 	0.04725 0.05077 0.35818 0.59200
C 	C 	0.06787 0.07147 0.29833 -0.32400
C 	C 	0.12772 0.07826 0.28535 0.23100
H 	H 	0.15600 0.07240 0.31480 -0.03700
C 	C 	0.14532 0.09380 0.22839 -0.29700
H 	H 	0.18540 0.09830 0.21970 0.13600
C 	C 	0.10308 0.10255 0.18440 0.24600
C 	C 	0.04323 0.09575 0.19737 -0.33800
H 	H 	0.01500 0.10160 0.16790 0.17200
C 	C 	0.02563 0.08022 0.25434 0.32600
H 	H 	0.98560 0.07570 0.26300 -0.10300
Zn	Zn	0.07225 0.04628 0.48747 1.10600
O 	O 	0.08429 0.04689 0.39807 -0.61500
O 	O 	0.99705 0.03413 0.36499 -0.72700
C 	C 	0.45275 0.94923 0.85818 0.50500
C 	C 	0.43213 0.92853 0.79833 -0.24800
C 	C 	0.37228 0.92174 0.78535 0.14800
H 	H 	0.34400 0.92760 0.81480 -0.02500
C 	C 	0.35468 0.90620 0.72839 -0.22900
H 	H 	0.31460 0.90170 0.71970 0.10500
C 	C 	0.39692 0.89745 0.68440 0.16100
C 	C 	0.45677 0.90425 0.69737 -0.23600
H 	H 	0.48500 0.89840 0.66790 0.10900
C 	C 	0.47437 0.91978 0.75434 0.15000
H 	H 	0.51440 0.92430 0.76300 -0.02700
Zn	Zn	0.42775 0.95372 0.98747 1.08400
O 	O 	0.41571 0.95311 0.89807 -0.63300
O 	O 	0.50295 0.96587 0.86499 -0.70600
C 	C 	0.95275 0.55077 0.14182 0.40600
C 	C 	0.93213 0.57147 0.20167 -0.14700
C 	C 	0.87228 0.57826 0.21465 0.07600
H 	H 	0.84400 0.57240 0.18520 0.00900
C 	C 	0.85468 0.59380 0.27161 -0.16600
H 	H 	0.81460 0.59830 0.28030 0.08700
C 	C 	0.89692 0.60255 0.31560 0.11100
C 	C 	0.95677 0.59575 0.30263 -0.13400
H 	H 	0.98500 0.60160 0.33210 0.06000
C 	C 	0.97437 0.58022 0.24566 -0.01300
H 	H 	0.01440 0.57570 0.23700 0.06300
Zn	Zn	0.92775 0.54628 0.01253 1.10400
O 	O 	0.91571 0.54689 0.10193 -0.59000
O 	O 	0.00295 0.53413 0.13501 -0.62500
C 	C 	0.54725 0.44923 0.64182 0.49800
C 	C 	0.56787 0.42853 0.70167 -0.23400
C 	C 	0.62772 0.42174 0.71465 0.14500
H 	H 	0.65600 0.42760 0.68520 -0.01600
C 	C 	0.64532 0.40620 0.77161 -0.22100
H 	H 	0.68540 0.40170 0.78030 0.10600
C 	C 	0.60308 0.39745 0.81560 0.16200
C 	C 	0.54323 0.40425 0.80263 -0.22600
H 	H 	0.51500 0.39840 0.83210 0.10800
C 	C 	0.52563 0.41978 0.74566 0.14600
H 	H 	0.48560 0.42430 0.73700 -0.02000
Zn	Zn	0.57225 0.45372 0.51253 1.10200
O 	O 	0.58429 0.45311 0.60193 -0.61000
O 	O 	0.49705 0.46587 0.63501 -0.68400
C 	C 	0.35818 0.04725 0.05077 0.59200
C 	C 	0.29833 0.06787 0.07147 -0.32400
C 	C 	0.28535 0.12772 0.07826 0.23100
H 	H 	0.31480 0.15600 0.07240 -0.03700
C 	C 	0.22839 0.14532 0.09380 -0.29700
H 	H 	0.21970 0.18540 0.09830 0.13600
C 	C 	0.18440 0.10308 0.10255 0.24600
C 	C 	0.19737 0.04323 0.09575 -0.33800
H 	H 	0.16790 0.01500 0.10160 0.17200
C 	C 	0.25434 0.02563 0.08022 0.32600
H 	H 	0.26300 0.98560 0.07570 -0.10300
Zn	Zn	0.48747 0.07225 0.04628 1.10600
O 	O 	0.39807 0.08429 0.04689 -0.61500
O 	O 	0.36499 0.99705 0.03413 -0.72700
C 	C 	0.85818 0.45275 0.94923 0.50500
C 	C 	0.79833 0.43213 0.92853 -0.24800
C 	C 	0.78535 0.37228 0.92174 0.14800
H 	H 	0.81480 0.34400 0.92760 -0.02500
C 	C 	0.72839 0.35468 0.90620 -0.22900
H 	H 	0.71970 0.31460 0.90170 0.10500
C 	C 	0.68440 0.39692 0.89745 0.16100
C 	C 	0.69737 0.45677 0.90425 -0.23600
H 	H 	0.66790 0.48500 0.89840 0.10900
C 	C 	0.75434 0.47437 0.91978 0.15000
H 	H 	0.76300 0.51440 0.92430 -0.02700
Zn	Zn	0.98747 0.42775 0.95372 1.08400
O 	O 	0.89807 0.41571 0.95311 -0.63300
O 	O 	0.86499 0.50295 0.96587 -0.70600
C 	C 	0.14182 0.95275 0.55077 0.40600
C 	C 	0.20167 0.93213 0.57147 -0.14700
C 	C 	0.21465 0.87228 0.57826 0.07600
H 	H 	0.18520 0.84400 0.57240 0.00900
C 	C 	0.27161 0.85468 0.59380 -0.16600
H 	H 	0.28030 0.81460 0.59830 0.08700
C 	C 	0.31560 0.89692 0.60255 0.11100
C 	C 	0.30263 0.95677 0.59575 -0.13400
H 	H 	0.33210 0.98500 0.60160 0.06000
C 	C 	0.24566 0.97437 0.58022 -0.01300
H 	H 	0.23700 0.01440 0.57570 0.06300
Zn	Zn	0.01253 0.92775 0.54628 1.10400
O 	O 	0.10193 0.91571 0.54689 -0.59000
O 	O 	0.13501 0.00295 0.53413 -0.62500
C 	C 	0.64182 0.54725 0.44923 0.49800
C 	C 	0.70167 0.56787 0.42853 -0.23400
C 	C 	0.71465 0.62772 0.42174 0.14500
H 	H 	0.68520 0.65600 0.42760 -0.01600
C 	C 	0.77161 0.64532 0.40620 -0.22100
H 	H 	0.78030 0.68540 0.40170 0.10600
C 	C 	0.81560 0.60308 0.39745 0.16200
C 	C 	0.80263 0.54323 0.40425 -0.22600
H 	H 	0.83210 0.51500 0.39840 0.10800
C 	C 	0.74566 0.52563 0.41978 0.14600
H 	H 	0.73700 0.48560 0.42430 -0.02000
Zn	Zn	0.51253 0.57225 0.45372 1.10200
O 	O 	0.60193 0.58429 0.45311 -0.61000
O 	O 	0.63501 0.49705 0.46587 -0.68400
C 	C 	0.05077 0.35818 0.04725 0.59200
C 	C 	0.07147 0.29833 0.06787 -0.32400
C 	C 	0.07826 0.28535 0.12772 0.23100
H 	H 	0.07240 0.31480 0.15600 -0.03700
C 	C 	0.09380 0.22839 0.14532 -0.29700
H 	H 	0.09830 0.21970 0.18540 0.13600
C 	C 	0.10255 0.18440 0.10308 0.24600
C 	C 	0.09575 0.19737 0.04323 -0.33800
H 	H 	0.10160 0.16790 0.01500 0.17200
C 	C 	0.08022 0.25434 0.02563 0.32600
H 	H 	0.07570 0.26300 0.98560 -0.10300
Zn	Zn	0.04628 0.48747 0.07225 1.10600
O 	O 	0.04689 0.39807 0.08429 -0.61500
O 	O 	0.03413 0.36499 0.99705 -0.72700
C 	C 	0.94923 0.85818 0.45275 0.50500
C 	C 	0.92853 0.79833 0.43213 -0.24800
C 	C 	0.92174 0.78535 0.37228 0.14800
H 	H 	0.92760 0.81480 0.34400 -0.02500
C 	C 	0.90620 0.72839 0.35468 -0.22900
H 	H 	0.90170 0.71970 0.31460 0.10500
C 	C 	0.89745 0.68440 0.39692 0.16100
C 	C 	0.90425 0.69737 0.45677 -0.23600
H 	H 	0.89840 0.66790 0.48500 0.10900
C 	C 	0.91978 0.75434 0.47437 0.15000
H 	H 	0.92430 0.76300 0.51440 -0.02700
Zn	Zn	0.95372 0.98747 0.42775 1.08400
O 	O 	0.95311 0.89807 0.41571 -0.63300
O 	O 	0.96587 0.86499 0.50295 -0.70600
C 	C 	0.55077 0.14182 0.95275 0.40600
C 	C 	0.57147 0.20167 0.93213 -0.14700
C 	C 	0.57826 0.21465 0.87228 0.07600
H 	H 	0.57240 0.18520 0.84400 0.00900
C 	C 	0.59380 0.27161 0.85468 -0.16600
H 	H 	0.59830 0.28030 0.81460 0.08700
C 	C 	0.60255 0.31560 0.89692 0.11100
C 	C 	0.59575 0.30263 0.95677 -0.13400
H 	H 	0.60160 0.33210 0.98500 0.06000
C 	C 	0.58022 0.24566 0.97437 -0.01300
H 	H 	0.57570 0.23700 0.01440 0.06300
Zn	Zn	0.54628 0.01253 0.92775 1.10400
O 	O 	0.54689 0.10193 0.91571 -0.59000
O 	O 	0.53413 0.13501 0.00295 -0.62500
C 	C 	0.44923 0.64182 0.54725 0.49800
C 	C 	0.42853 0.70167 0.56787 -0.23400
C 	C 	0.42174 0.71465 0.62772 0.14500
H 	H 	0.42760 0.68520 0.65600 -0.01600
C 	C 	0.40620 0.77161 0.64532 -0.22100
H 	H 	0.40170 0.78030 0.68540 0.10600
C 	C 	0.39745 0.81560 0.60308 0.16200
C 	C 	0.40425 0.80263 0.54323 -0.22600
H 	H 	0.39840 0.83210 0.51500 0.10800
C 	C 	0.41978 0.74566 0.52563 0.14600
H 	H 	0.42430 0.73700 0.48560 -0.02000
Zn	Zn	0.45372 0.51253 0.57225 1.10200
O 	O 	0.45311 0.60193 0.58429 -0.61000
O 	O 	0.46587 0.63501 0.49705 -0.68400
C 	C 	0.88370 0.88370 0.88370 -0.15100
H 	H 	0.90880 0.90880 0.90880 0.02600
C 	C 	0.61630 0.11630 0.38370 -0.23500
H 	H 	0.59120 0.09120 0.40880 0.07300
C 	C 	0.11630 0.38370 0.61630 -0.23500
H 	H 	0.09120 0.40880 0.59120 0.07300
C 	C 	0.38370 0.61630 0.11630 -0.23500
H 	H 	0.40880 0.59120 0.09120 0.07300
C 	C 	0.11630 0.11630 0.11630 -0.28200
H 	H 	0.09120 0.09120 0.09120 0.09700
C 	C 	0.38370 0.88370 0.61630 -0.19100
H 	H 	0.40880 0.90880 0.59120 0.04900
C 	C 	0.88370 0.61630 0.38370 -0.19100
H 	H 	0.90880 0.59120 0.40880 0.04900
C 	C 	0.61630 0.38370 0.88370 -0.19100
H 	H 	0.59120 0.40880 0.90880 0.04900
O 	O 	0.00000 0.00000 0.50000 -1.21500
O 	O 	0.50000 0.00000 -0.00000 -1.21500
O 	O 	-0.00000 0.50000 -0.00000 -1.21500
O 	O 	0.50000 0.50000 0.50000 -1.26900
