data_crystal

_cell_length_a 22.51500
_cell_length_b 22.51500
_cell_length_c 22.51500
_cell_angle_alpha 90.00000
_cell_angle_beta  90.00000
_cell_angle_gamma 90.00000

_symmetry_space_group_name_	'P 1'
_symmetry_space_group_name_H-M	'P 1'

loop_
_symmetry_equiv_pos_as_xyz
  x,y,z

loop_
_atom_site_label
_atom_site_type_symbol
_atom_site_fract_x
_atom_site_fract_y
_atom_site_fract_z
_atom_site_charge
C 	C 	0.67495 0.31792 0.04867 -0.25500
C 	C 	0.66724 0.37896 0.03356 0.16300
H 	H 	0.67080 0.40800 0.06280 -0.02200
C 	C 	0.65461 0.39520 0.97593 -0.25600
H 	H 	0.65060 0.43510 0.96620 0.12000
C 	C 	0.64794 0.35266 0.93302 0.19300
C 	C 	0.65417 0.29338 0.94687 -0.26400
H 	H 	0.64910 0.26460 0.91770 0.11500
C 	C 	0.66802 0.27697 0.00457 0.17700
H 	H 	0.67270 0.23690 0.01350 -0.02500
C 	C 	0.69570 0.29860 0.10903 0.53100
O 	O 	0.70520 0.24760 0.11500 -0.68800
O 	O 	0.69876 0.33515 0.15002 -0.63000
Zn	Zn	0.67741 0.23739 0.20381 1.10300
C 	C 	0.82505 0.68208 0.54867 -0.25500
C 	C 	0.83276 0.62104 0.53356 0.16300
H 	H 	0.82920 0.59200 0.56280 -0.02200
C 	C 	0.84539 0.60480 0.47593 -0.25600
H 	H 	0.84940 0.56490 0.46620 0.12000
C 	C 	0.85206 0.64734 0.43302 0.19300
C 	C 	0.84583 0.70662 0.44687 -0.26400
H 	H 	0.85090 0.73540 0.41770 0.11500
C 	C 	0.83198 0.72303 0.50457 0.17700
H 	H 	0.82730 0.76310 0.51350 -0.02500
C 	C 	0.80430 0.70140 0.60903 0.53100
O 	O 	0.79480 0.75240 0.61500 -0.68800
O 	O 	0.80124 0.66485 0.65002 -0.63000
Zn	Zn	0.82259 0.76261 0.70381 1.10300
C 	C 	0.32505 0.81792 0.45133 -0.25500
C 	C 	0.33276 0.87896 0.46644 0.16300
H 	H 	0.32920 0.90800 0.43720 -0.02200
C 	C 	0.34539 0.89520 0.52407 -0.25600
H 	H 	0.34940 0.93510 0.53380 0.12000
C 	C 	0.35206 0.85266 0.56698 0.19300
C 	C 	0.34583 0.79338 0.55313 -0.26400
H 	H 	0.35090 0.76460 0.58230 0.11500
C 	C 	0.33198 0.77697 0.49543 0.17700
H 	H 	0.32730 0.73690 0.48650 -0.02500
C 	C 	0.30430 0.79860 0.39097 0.53100
O 	O 	0.29480 0.74760 0.38500 -0.68800
O 	O 	0.30124 0.83515 0.34998 -0.63000
Zn	Zn	0.32259 0.73739 0.29619 1.10300
C 	C 	0.17495 0.18208 0.95133 -0.25500
C 	C 	0.16724 0.12104 0.96644 0.16300
H 	H 	0.17080 0.09200 0.93720 -0.02200
C 	C 	0.15461 0.10480 0.02407 -0.25600
H 	H 	0.15060 0.06490 0.03380 0.12000
C 	C 	0.14794 0.14734 0.06698 0.19300
C 	C 	0.15417 0.20662 0.05313 -0.26300
H 	H 	0.14910 0.23540 0.08230 0.11600
C 	C 	0.16802 0.22303 0.99543 0.17800
H 	H 	0.17270 0.26310 0.98650 -0.02400
C 	C 	0.19570 0.20140 0.89097 0.53200
O 	O 	0.20520 0.25240 0.88500 -0.68700
O 	O 	0.19876 0.16485 0.84998 -0.62900
Zn	Zn	0.17741 0.26261 0.79619 1.10400
C 	C 	0.04867 0.67495 0.31792 -0.25400
C 	C 	0.03356 0.66724 0.37896 0.16400
H 	H 	0.06280 0.67080 0.40800 -0.02100
C 	C 	0.97593 0.65461 0.39520 -0.25500
H 	H 	0.96620 0.65060 0.43510 0.12100
C 	C 	0.93302 0.64794 0.35266 0.19400
C 	C 	0.94687 0.65417 0.29338 -0.26300
H 	H 	0.91770 0.64910 0.26460 0.11600
C 	C 	0.00457 0.66802 0.27697 0.17800
H 	H 	0.01350 0.67270 0.23690 -0.02400
C 	C 	0.10903 0.69570 0.29860 0.53200
O 	O 	0.11500 0.70520 0.24760 -0.68700
O 	O 	0.15002 0.69876 0.33515 -0.62900
Zn	Zn	0.20381 0.67741 0.23739 1.10400
C 	C 	0.54867 0.82505 0.68208 -0.25400
C 	C 	0.53356 0.83276 0.62104 0.16400
H 	H 	0.56280 0.82920 0.59200 -0.02100
C 	C 	0.47593 0.84539 0.60480 -0.25500
H 	H 	0.46620 0.84940 0.56490 0.12100
C 	C 	0.43302 0.85206 0.64734 0.19400
C 	C 	0.44687 0.84583 0.70662 -0.26300
H 	H 	0.41770 0.85090 0.73540 0.11600
C 	C 	0.50457 0.83198 0.72303 0.17800
H 	H 	0.51350 0.82730 0.76310 -0.02400
C 	C 	0.60903 0.80430 0.70140 0.53200
O 	O 	0.61500 0.79480 0.75240 -0.68700
O 	O 	0.65002 0.80124 0.66485 -0.62900
Zn	Zn	0.70381 0.82259 0.76261 1.10400
C 	C 	0.45133 0.32505 0.81792 -0.25400
C 	C 	0.46644 0.33276 0.87896 0.16400
H 	H 	0.43720 0.32920 0.90800 -0.02100
C 	C 	0.52407 0.34539 0.89520 -0.25500
H 	H 	0.53380 0.34940 0.93510 0.12100
C 	C 	0.56698 0.35206 0.85266 0.19400
C 	C 	0.55313 0.34583 0.79338 -0.26300
H 	H 	0.58230 0.35090 0.76460 0.11600
C 	C 	0.49543 0.33198 0.77697 0.17800
H 	H 	0.48650 0.32730 0.73690 -0.02400
C 	C 	0.39097 0.30430 0.79860 0.53200
O 	O 	0.38500 0.29480 0.74760 -0.68700
O 	O 	0.34998 0.30124 0.83515 -0.62900
Zn	Zn	0.29619 0.32259 0.73739 1.10400
C 	C 	0.95133 0.17495 0.18208 -0.25400
C 	C 	0.96644 0.16724 0.12104 0.16400
H 	H 	0.93720 0.17080 0.09200 -0.02100
C 	C 	0.02407 0.15461 0.10480 -0.25500
H 	H 	0.03380 0.15060 0.06490 0.12100
C 	C 	0.06698 0.14794 0.14734 0.19400
C 	C 	0.05313 0.15417 0.20662 -0.26300
H 	H 	0.08230 0.14910 0.23540 0.11600
C 	C 	0.99543 0.16802 0.22303 0.17800
H 	H 	0.98650 0.17270 0.26310 -0.02400
C 	C 	0.89097 0.19570 0.20140 0.53200
O 	O 	0.88500 0.20520 0.25240 -0.68700
O 	O 	0.84998 0.19876 0.16485 -0.62900
Zn	Zn	0.79619 0.17741 0.26261 1.10400
C 	C 	0.31792 0.04867 0.67495 -0.25400
C 	C 	0.37896 0.03356 0.66724 0.16400
H 	H 	0.40800 0.06280 0.67080 -0.02100
C 	C 	0.39520 0.97593 0.65461 -0.25500
H 	H 	0.43510 0.96620 0.65060 0.12100
C 	C 	0.35266 0.93302 0.64794 0.19400
C 	C 	0.29338 0.94687 0.65417 -0.26300
H 	H 	0.26460 0.91770 0.64910 0.11600
C 	C 	0.27697 0.00457 0.66802 0.17800
H 	H 	0.23690 0.01350 0.67270 -0.02400
C 	C 	0.29860 0.10903 0.69570 0.53200
O 	O 	0.24760 0.11500 0.70520 -0.68700
O 	O 	0.33515 0.15002 0.69876 -0.62900
Zn	Zn	0.23739 0.20381 0.67741 1.10400
C 	C 	0.68208 0.54867 0.82505 -0.25400
C 	C 	0.62104 0.53356 0.83276 0.16400
H 	H 	0.59200 0.56280 0.82920 -0.02100
C 	C 	0.60480 0.47593 0.84539 -0.25500
H 	H 	0.56490 0.46620 0.84940 0.12100
C 	C 	0.64734 0.43302 0.85206 0.19400
C 	C 	0.70662 0.44687 0.84583 -0.26300
H 	H 	0.73540 0.41770 0.85090 0.11600
C 	C 	0.72303 0.50457 0.83198 0.17800
H 	H 	0.76310 0.51350 0.82730 -0.02400
C 	C 	0.70140 0.60903 0.80430 0.53200
O 	O 	0.75240 0.61500 0.79480 -0.68700
O 	O 	0.66485 0.65002 0.80124 -0.62900
Zn	Zn	0.76261 0.70381 0.82259 1.10400
C 	C 	0.81792 0.45133 0.32505 -0.25400
C 	C 	0.87896 0.46644 0.33276 0.16400
H 	H 	0.90800 0.43720 0.32920 -0.02100
C 	C 	0.89520 0.52407 0.34539 -0.25500
H 	H 	0.93510 0.53380 0.34940 0.12100
C 	C 	0.85266 0.56698 0.35206 0.19400
C 	C 	0.79338 0.55313 0.34583 -0.26300
H 	H 	0.76460 0.58230 0.35090 0.11600
C 	C 	0.77697 0.49543 0.33198 0.17800
H 	H 	0.73690 0.48650 0.32730 -0.02400
C 	C 	0.79860 0.39097 0.30430 0.53200
O 	O 	0.74760 0.38500 0.29480 -0.68700
O 	O 	0.83515 0.34998 0.30124 -0.62900
Zn	Zn	0.73739 0.29619 0.32259 1.10400
C 	C 	0.18208 0.95133 0.17495 -0.25400
C 	C 	0.12104 0.96644 0.16724 0.16400
H 	H 	0.09200 0.93720 0.17080 -0.02100
C 	C 	0.10480 0.02407 0.15461 -0.25500
H 	H 	0.06490 0.03380 0.15060 0.12100
C 	C 	0.14734 0.06698 0.14794 0.19400
C 	C 	0.20662 0.05313 0.15417 -0.26300
H 	H 	0.23540 0.08230 0.14910 0.11600
C 	C 	0.22303 0.99543 0.16802 0.17800
H 	H 	0.26310 0.98650 0.17270 -0.02400
C 	C 	0.20140 0.89097 0.19570 0.53200
O 	O 	0.25240 0.88500 0.20520 -0.68700
O 	O 	0.16485 0.84998 0.19876 -0.62900
Zn	Zn	0.26261 0.79619 0.17741 1.10400
C 	C 	0.82505 0.18208 0.45133 -0.25400
C 	C 	0.83276 0.12104 0.46644 0.16400
H 	H 	0.82920 0.09200 0.43720 -0.02100
C 	C 	0.84539 0.10480 0.52407 -0.25500
H 	H 	0.84940 0.06490 0.53380 0.12100
C 	C 	0.85206 0.14734 0.56698 0.19400
C 	C 	0.84583 0.20662 0.55313 -0.26300
H 	H 	0.85090 0.23540 0.58230 0.11600
C 	C 	0.83198 0.22303 0.49543 0.17800
H 	H 	0.82730 0.26310 0.48650 -0.02400
C 	C 	0.80430 0.20140 0.39097 0.53200
O 	O 	0.79480 0.25240 0.38500 -0.68700
O 	O 	0.80124 0.16485 0.34998 -0.62900
Zn	Zn	0.82259 0.26261 0.29619 1.10400
C 	C 	0.67495 0.81792 0.95133 -0.25400
C 	C 	0.66724 0.87896 0.96644 0.16400
H 	H 	0.67080 0.90800 0.93720 -0.02100
C 	C 	0.65461 0.89520 0.02407 -0.25500
H 	H 	0.65060 0.93510 0.03380 0.12100
C 	C 	0.64794 0.85266 0.06698 0.19400
C 	C 	0.65417 0.79338 0.05313 -0.26300
H 	H 	0.64910 0.76460 0.08230 0.11600
C 	C 	0.66802 0.77697 0.99543 0.17800
H 	H 	0.67270 0.73690 0.98650 -0.02400
C 	C 	0.69570 0.79860 0.89097 0.53200
O 	O 	0.70520 0.74760 0.88500 -0.68700
O 	O 	0.69876 0.83515 0.84998 -0.62900
Zn	Zn	0.67741 0.73739 0.79619 1.10400
C 	C 	0.17495 0.68208 0.04867 -0.25400
C 	C 	0.16724 0.62104 0.03356 0.16400
H 	H 	0.17080 0.59200 0.06280 -0.02100
C 	C 	0.15461 0.60480 0.97593 -0.25500
H 	H 	0.15060 0.56490 0.96620 0.12100
C 	C 	0.14794 0.64734 0.93302 0.19400
C 	C 	0.15417 0.70662 0.94687 -0.26300
H 	H 	0.14910 0.73540 0.91770 0.11600
C 	C 	0.16802 0.72303 0.00457 0.17800
H 	H 	0.17270 0.76310 0.01350 -0.02400
C 	C 	0.19570 0.70140 0.10903 0.53200
O 	O 	0.20520 0.75240 0.11500 -0.68700
O 	O 	0.19876 0.66485 0.15002 -0.62900
Zn	Zn	0.17741 0.76261 0.20381 1.10400
C 	C 	0.32505 0.31792 0.54867 -0.25400
C 	C 	0.33276 0.37896 0.53356 0.16400
H 	H 	0.32920 0.40800 0.56280 -0.02100
C 	C 	0.34539 0.39520 0.47593 -0.25500
H 	H 	0.34940 0.43510 0.46620 0.12100
C 	C 	0.35206 0.35266 0.43302 0.19400
C 	C 	0.34583 0.29338 0.44687 -0.26300
H 	H 	0.35090 0.26460 0.41770 0.11600
C 	C 	0.33198 0.27697 0.50457 0.17800
H 	H 	0.32730 0.23690 0.51350 -0.02400
C 	C 	0.30430 0.29860 0.60903 0.53200
O 	O 	0.29480 0.24760 0.61500 -0.68700
O 	O 	0.30124 0.33515 0.65002 -0.62900
Zn	Zn	0.32259 0.23739 0.70381 1.10400
C 	C 	0.45133 0.82505 0.18208 -0.25400
C 	C 	0.46644 0.83276 0.12104 0.16400
H 	H 	0.43720 0.82920 0.09200 -0.02100
C 	C 	0.52407 0.84539 0.10480 -0.25500
H 	H 	0.53380 0.84940 0.06490 0.12100
C 	C 	0.56698 0.85206 0.14734 0.19400
C 	C 	0.55313 0.84583 0.20662 -0.26300
H 	H 	0.58230 0.85090 0.23540 0.11600
C 	C 	0.49543 0.83198 0.22303 0.17800
H 	H 	0.48650 0.82730 0.26310 -0.02400
C 	C 	0.39097 0.80430 0.20140 0.53200
O 	O 	0.38500 0.79480 0.25240 -0.68700
O 	O 	0.34998 0.80124 0.16485 -0.62900
Zn	Zn	0.29619 0.82259 0.26261 1.10400
C 	C 	0.95133 0.67495 0.81792 -0.25400
C 	C 	0.96644 0.66724 0.87896 0.16400
H 	H 	0.93720 0.67080 0.90800 -0.02100
C 	C 	0.02407 0.65461 0.89520 -0.25500
H 	H 	0.03380 0.65060 0.93510 0.12100
C 	C 	0.06698 0.64794 0.85266 0.19400
C 	C 	0.05313 0.65417 0.79338 -0.26300
H 	H 	0.08230 0.64910 0.76460 0.11600
C 	C 	0.99543 0.66802 0.77697 0.17800
H 	H 	0.98650 0.67270 0.73690 -0.02400
C 	C 	0.89097 0.69570 0.79860 0.53200
O 	O 	0.88500 0.70520 0.74760 -0.68700
O 	O 	0.84998 0.69876 0.83515 -0.62900
Zn	Zn	0.79619 0.67741 0.73739 1.10400
C 	C 	0.04867 0.17495 0.68208 -0.25400
C 	C 	0.03356 0.16724 0.62104 0.16400
H 	H 	0.06280 0.17080 0.59200 -0.02100
C 	C 	0.97593 0.15461 0.60480 -0.25500
H 	H 	0.96620 0.15060 0.56490 0.12100
C 	C 	0.93302 0.14794 0.64734 0.19400
C 	C 	0.94687 0.15417 0.70662 -0.26300
H 	H 	0.91770 0.14910 0.73540 0.11600
C 	C 	0.00457 0.16802 0.72303 0.17800
H 	H 	0.01350 0.17270 0.76310 -0.02400
C 	C 	0.10903 0.19570 0.70140 0.53200
O 	O 	0.11500 0.20520 0.75240 -0.68700
O 	O 	0.15002 0.19876 0.66485 -0.62900
Zn	Zn	0.20381 0.17741 0.76261 1.10400
C 	C 	0.54867 0.32505 0.31792 -0.25400
C 	C 	0.53356 0.33276 0.37896 0.16400
H 	H 	0.56280 0.32920 0.40800 -0.02100
C 	C 	0.47593 0.34539 0.39520 -0.25500
H 	H 	0.46620 0.34940 0.43510 0.12100
C 	C 	0.43302 0.35206 0.35266 0.19400
C 	C 	0.44687 0.34583 0.29338 -0.26300
H 	H 	0.41770 0.35090 0.26460 0.11600
C 	C 	0.50457 0.33198 0.27697 0.17800
H 	H 	0.51350 0.32730 0.23690 -0.02400
C 	C 	0.60903 0.30430 0.29860 0.53200
O 	O 	0.61500 0.29480 0.24760 -0.68700
O 	O 	0.65002 0.30124 0.33515 -0.62900
Zn	Zn	0.70381 0.32259 0.23739 1.10400
C 	C 	0.18208 0.45133 0.82505 -0.25400
C 	C 	0.12104 0.46644 0.83276 0.16400
H 	H 	0.09200 0.43720 0.82920 -0.02100
C 	C 	0.10480 0.52407 0.84539 -0.25500
H 	H 	0.06490 0.53380 0.84940 0.12100
C 	C 	0.14734 0.56698 0.85206 0.19400
C 	C 	0.20662 0.55313 0.84583 -0.26300
H 	H 	0.23540 0.58230 0.85090 0.11600
C 	C 	0.22303 0.49543 0.83198 0.17800
H 	H 	0.26310 0.48650 0.82730 -0.02400
C 	C 	0.20140 0.39097 0.80430 0.53200
O 	O 	0.25240 0.38500 0.79480 -0.68700
O 	O 	0.16485 0.34998 0.80124 -0.62900
Zn	Zn	0.26261 0.29619 0.82259 1.10400
C 	C 	0.81792 0.95133 0.67495 -0.25400
C 	C 	0.87896 0.96644 0.66724 0.16400
H 	H 	0.90800 0.93720 0.67080 -0.02100
C 	C 	0.89520 0.02407 0.65461 -0.25500
H 	H 	0.93510 0.03380 0.65060 0.12100
C 	C 	0.85266 0.06698 0.64794 0.19400
C 	C 	0.79338 0.05313 0.65417 -0.26300
H 	H 	0.76460 0.08230 0.64910 0.11600
C 	C 	0.77697 0.99543 0.66802 0.17800
H 	H 	0.73690 0.98650 0.67270 -0.02400
C 	C 	0.79860 0.89097 0.69570 0.53200
O 	O 	0.74760 0.88500 0.70520 -0.68700
O 	O 	0.83515 0.84998 0.69876 -0.62900
Zn	Zn	0.73739 0.79619 0.67741 1.10400
C 	C 	0.68208 0.04867 0.17495 -0.25400
C 	C 	0.62104 0.03356 0.16724 0.16400
H 	H 	0.59200 0.06280 0.17080 -0.02100
C 	C 	0.60480 0.97593 0.15461 -0.25500
H 	H 	0.56490 0.96620 0.15060 0.12100
C 	C 	0.64734 0.93302 0.14794 0.19400
C 	C 	0.70662 0.94687 0.15417 -0.26300
H 	H 	0.73540 0.91770 0.14910 0.11600
C 	C 	0.72303 0.00457 0.16802 0.17800
H 	H 	0.76310 0.01350 0.17270 -0.02400
C 	C 	0.70140 0.10903 0.19570 0.53200
O 	O 	0.75240 0.11500 0.20520 -0.68700
O 	O 	0.66485 0.15002 0.19876 -0.62900
Zn	Zn	0.76261 0.20381 0.17741 1.10400
C 	C 	0.31792 0.54867 0.32505 -0.25400
C 	C 	0.37896 0.53356 0.33276 0.16400
H 	H 	0.40800 0.56280 0.32920 -0.02100
C 	C 	0.39520 0.47593 0.34539 -0.25500
H 	H 	0.43510 0.46620 0.34940 0.12100
C 	C 	0.35266 0.43302 0.35206 0.19400
C 	C 	0.29338 0.44687 0.34583 -0.26300
H 	H 	0.26460 0.41770 0.35090 0.11600
C 	C 	0.27697 0.50457 0.33198 0.17800
H 	H 	0.23690 0.51350 0.32730 -0.02400
C 	C 	0.29860 0.60903 0.30430 0.53200
O 	O 	0.24760 0.61500 0.29480 -0.68700
O 	O 	0.33515 0.65002 0.30124 -0.62900
Zn	Zn	0.23739 0.70381 0.32259 1.10400
C 	C 	0.63546 0.36454 0.86454 -0.23700
H 	H 	0.66060 0.33940 0.83940 0.05300
C 	C 	0.86454 0.63546 0.36454 -0.23700
H 	H 	0.83940 0.66060 0.33940 0.05300
C 	C 	0.36454 0.86454 0.63546 -0.23700
H 	H 	0.33940 0.83940 0.66060 0.05300
C 	C 	0.13546 0.13546 0.13546 -0.23700
H 	H 	0.16060 0.16060 0.16060 0.05300
C 	C 	0.86454 0.13546 0.63546 -0.23700
H 	H 	0.83940 0.16060 0.66060 0.05300
C 	C 	0.63546 0.86454 0.13546 -0.23700
H 	H 	0.66060 0.83940 0.16060 0.05300
C 	C 	0.13546 0.63546 0.86454 -0.23700
H 	H 	0.16060 0.66060 0.83940 0.05300
C 	C 	0.36454 0.36454 0.36454 -0.23700
H 	H 	0.33940 0.33940 0.33940 0.05300
O 	O 	0.75000 0.25000 0.25000 -1.28200
O 	O 	0.75000 0.75000 0.75000 -1.28200
O 	O 	0.25000 0.75000 0.25000 -1.28200
O 	O 	0.25000 0.25000 0.75000 -1.28200
C 	C 	0.17495 0.81792 0.54867 -0.25400
C 	C 	0.16724 0.87896 0.53356 0.16400
H 	H 	0.17080 0.90800 0.56280 -0.02100
C 	C 	0.15461 0.89520 0.47593 -0.25500
H 	H 	0.15060 0.93510 0.46620 0.12100
C 	C 	0.14794 0.85266 0.43302 0.19400
C 	C 	0.15417 0.79338 0.44687 -0.26300
H 	H 	0.14910 0.76460 0.41770 0.11600
C 	C 	0.16802 0.77697 0.50457 0.17800
H 	H 	0.17270 0.73690 0.51350 -0.02400
C 	C 	0.19570 0.79860 0.60903 0.53200
O 	O 	0.20520 0.74760 0.61500 -0.68700
O 	O 	0.19876 0.83515 0.65002 -0.62900
Zn	Zn	0.17741 0.73739 0.70381 1.10400
C 	C 	0.32505 0.18208 0.04867 -0.25400
C 	C 	0.33276 0.12104 0.03356 0.16400
H 	H 	0.32920 0.09200 0.06280 -0.02100
C 	C 	0.34539 0.10480 0.97593 -0.25500
H 	H 	0.34940 0.06490 0.96620 0.12100
C 	C 	0.35206 0.14734 0.93302 0.19400
C 	C 	0.34583 0.20662 0.94687 -0.26300
H 	H 	0.35090 0.23540 0.91770 0.11600
C 	C 	0.33198 0.22303 0.00457 0.17800
H 	H 	0.32730 0.26310 0.01350 -0.02400
C 	C 	0.30430 0.20140 0.10903 0.53200
O 	O 	0.29480 0.25240 0.11500 -0.68700
O 	O 	0.30124 0.16485 0.15002 -0.62900
Zn	Zn	0.32259 0.26261 0.20381 1.10400
C 	C 	0.82505 0.31792 0.95133 -0.25400
C 	C 	0.83276 0.37896 0.96644 0.16400
H 	H 	0.82920 0.40800 0.93720 -0.02100
C 	C 	0.84539 0.39520 0.02407 -0.25500
H 	H 	0.84940 0.43510 0.03380 0.12100
C 	C 	0.85206 0.35266 0.06698 0.19400
C 	C 	0.84583 0.29338 0.05313 -0.26300
H 	H 	0.85090 0.26460 0.08230 0.11600
C 	C 	0.83198 0.27697 0.99543 0.17800
H 	H 	0.82730 0.23690 0.98650 -0.02400
C 	C 	0.80430 0.29860 0.89097 0.53200
O 	O 	0.79480 0.24760 0.88500 -0.68700
O 	O 	0.80124 0.33515 0.84998 -0.62900
Zn	Zn	0.82259 0.23739 0.79619 1.10400
C 	C 	0.67495 0.68208 0.45133 -0.25400
C 	C 	0.66724 0.62104 0.46644 0.16400
H 	H 	0.67080 0.59200 0.43720 -0.02100
C 	C 	0.65461 0.60480 0.52407 -0.25500
H 	H 	0.65060 0.56490 0.53380 0.12100
C 	C 	0.64794 0.64734 0.56698 0.19400
C 	C 	0.65417 0.70662 0.55313 -0.26300
H 	H 	0.64910 0.73540 0.58230 0.11600
C 	C 	0.66802 0.72303 0.49543 0.17800
H 	H 	0.67270 0.76310 0.48650 -0.02400
C 	C 	0.69570 0.70140 0.39097 0.53200
O 	O 	0.70520 0.75240 0.38500 -0.68700
O 	O 	0.69876 0.66485 0.34998 -0.62900
Zn	Zn	0.67741 0.76261 0.29619 1.10400
C 	C 	0.54867 0.17495 0.81792 -0.25400
C 	C 	0.53356 0.16724 0.87896 0.16400
H 	H 	0.56280 0.17080 0.90800 -0.02100
C 	C 	0.47593 0.15461 0.89520 -0.25500
H 	H 	0.46620 0.15060 0.93510 0.12100
C 	C 	0.43302 0.14794 0.85266 0.19400
C 	C 	0.44687 0.15417 0.79338 -0.26300
H 	H 	0.41770 0.14910 0.76460 0.11600
C 	C 	0.50457 0.16802 0.77697 0.17800
H 	H 	0.51350 0.17270 0.73690 -0.02400
C 	C 	0.60903 0.19570 0.79860 0.53200
O 	O 	0.61500 0.20520 0.74760 -0.68700
O 	O 	0.65002 0.19876 0.83515 -0.62900
Zn	Zn	0.70381 0.17741 0.73739 1.10400
C 	C 	0.04867 0.32505 0.18208 -0.25400
C 	C 	0.03356 0.33276 0.12104 0.16400
H 	H 	0.06280 0.32920 0.09200 -0.02100
C 	C 	0.97593 0.34539 0.10480 -0.25500
H 	H 	0.96620 0.34940 0.06490 0.12100
C 	C 	0.93302 0.35206 0.14734 0.19400
C 	C 	0.94687 0.34583 0.20662 -0.26300
H 	H 	0.91770 0.35090 0.23540 0.11600
C 	C 	0.00457 0.33198 0.22303 0.17800
H 	H 	0.01350 0.32730 0.26310 -0.02400
C 	C 	0.10903 0.30430 0.20140 0.53200
O 	O 	0.11500 0.29480 0.25240 -0.68700
O 	O 	0.15002 0.30124 0.16485 -0.62900
Zn	Zn	0.20381 0.32259 0.26261 1.10400
C 	C 	0.95133 0.82505 0.31792 -0.25400
C 	C 	0.96644 0.83276 0.37896 0.16400
H 	H 	0.93720 0.82920 0.40800 -0.02100
C 	C 	0.02407 0.84539 0.39520 -0.25500
H 	H 	0.03380 0.84940 0.43510 0.12100
C 	C 	0.06698 0.85206 0.35266 0.19400
C 	C 	0.05313 0.84583 0.29338 -0.26300
H 	H 	0.08230 0.85090 0.26460 0.11600
C 	C 	0.99543 0.83198 0.27697 0.17800
H 	H 	0.98650 0.82730 0.23690 -0.02400
C 	C 	0.89097 0.80430 0.29860 0.53200
O 	O 	0.88500 0.79480 0.24760 -0.68700
O 	O 	0.84998 0.80124 0.33515 -0.62900
Zn	Zn	0.79619 0.82259 0.23739 1.10400
C 	C 	0.45133 0.67495 0.68208 -0.25400
C 	C 	0.46644 0.66724 0.62104 0.16400
H 	H 	0.43720 0.67080 0.59200 -0.02100
C 	C 	0.52407 0.65461 0.60480 -0.25500
H 	H 	0.53380 0.65060 0.56490 0.12100
C 	C 	0.56698 0.64794 0.64734 0.19400
C 	C 	0.55313 0.65417 0.70662 -0.26300
H 	H 	0.58230 0.64910 0.73540 0.11600
C 	C 	0.49543 0.66802 0.72303 0.17800
H 	H 	0.48650 0.67270 0.76310 -0.02400
C 	C 	0.39097 0.69570 0.70140 0.53200
O 	O 	0.38500 0.70520 0.75240 -0.68700
O 	O 	0.34998 0.69876 0.66485 -0.62900
Zn	Zn	0.29619 0.67741 0.76261 1.10400
C 	C 	0.81792 0.54867 0.17495 -0.25400
C 	C 	0.87896 0.53356 0.16724 0.16400
H 	H 	0.90800 0.56280 0.17080 -0.02100
C 	C 	0.89520 0.47593 0.15461 -0.25500
H 	H 	0.93510 0.46620 0.15060 0.12100
C 	C 	0.85266 0.43302 0.14794 0.19400
C 	C 	0.79338 0.44687 0.15417 -0.26300
H 	H 	0.76460 0.41770 0.14910 0.11600
C 	C 	0.77697 0.50457 0.16802 0.17800
H 	H 	0.73690 0.51350 0.17270 -0.02400
C 	C 	0.79860 0.60903 0.19570 0.53200
O 	O 	0.74760 0.61500 0.20520 -0.68700
O 	O 	0.83515 0.65002 0.19876 -0.62900
Zn	Zn	0.73739 0.70381 0.17741 1.10400
C 	C 	0.18208 0.04867 0.32505 -0.25400
C 	C 	0.12104 0.03356 0.33276 0.16400
H 	H 	0.09200 0.06280 0.32920 -0.02100
C 	C 	0.10480 0.97593 0.34539 -0.25500
H 	H 	0.06490 0.96620 0.34940 0.12100
C 	C 	0.14734 0.93302 0.35206 0.19400
C 	C 	0.20662 0.94687 0.34583 -0.26300
H 	H 	0.23540 0.91770 0.35090 0.11600
C 	C 	0.22303 0.00457 0.33198 0.17800
H 	H 	0.26310 0.01350 0.32730 -0.02400
C 	C 	0.20140 0.10903 0.30430 0.53200
O 	O 	0.25240 0.11500 0.29480 -0.68700
O 	O 	0.16485 0.15002 0.30124 -0.62900
Zn	Zn	0.26261 0.20381 0.32259 1.10400
C 	C 	0.31792 0.95133 0.82505 -0.25400
C 	C 	0.37896 0.96644 0.83276 0.16400
H 	H 	0.40800 0.93720 0.82920 -0.02100
C 	C 	0.39520 0.02407 0.84539 -0.25500
H 	H 	0.43510 0.03380 0.84940 0.12100
C 	C 	0.35266 0.06698 0.85206 0.19400
C 	C 	0.29338 0.05313 0.84583 -0.26300
H 	H 	0.26460 0.08230 0.85090 0.11600
C 	C 	0.27697 0.99543 0.83198 0.17800
H 	H 	0.23690 0.98650 0.82730 -0.02400
C 	C 	0.29860 0.89097 0.80430 0.53200
O 	O 	0.24760 0.88500 0.79480 -0.68700
O 	O 	0.33515 0.84998 0.80124 -0.62900
Zn	Zn	0.23739 0.79619 0.82259 1.10400
C 	C 	0.68208 0.45133 0.67495 -0.25400
C 	C 	0.62104 0.46644 0.66724 0.16400
H 	H 	0.59200 0.43720 0.67080 -0.02100
C 	C 	0.60480 0.52407 0.65461 -0.25500
H 	H 	0.56490 0.53380 0.65060 0.12100
C 	C 	0.64734 0.56698 0.64794 0.19400
C 	C 	0.70662 0.55313 0.65417 -0.26300
H 	H 	0.73540 0.58230 0.64910 0.11600
C 	C 	0.72303 0.49543 0.66802 0.17800
H 	H 	0.76310 0.48650 0.67270 -0.02400
C 	C 	0.70140 0.39097 0.69570 0.53200
O 	O 	0.75240 0.38500 0.70520 -0.68700
O 	O 	0.66485 0.34998 0.69876 -0.62900
Zn	Zn	0.76261 0.29619 0.67741 1.10400
C 	C 	0.32505 0.68208 0.95133 -0.25400
C 	C 	0.33276 0.62104 0.96644 0.16400
H 	H 	0.32920 0.59200 0.93720 -0.02100
C 	C 	0.34539 0.60480 0.02407 -0.25500
H 	H 	0.34940 0.56490 0.03380 0.12100
C 	C 	0.35206 0.64734 0.06698 0.19400
C 	C 	0.34583 0.70662 0.05313 -0.26300
H 	H 	0.35090 0.73540 0.08230 0.11600
C 	C 	0.33198 0.72303 0.99543 0.17800
H 	H 	0.32730 0.76310 0.98650 -0.02400
C 	C 	0.30430 0.70140 0.89097 0.53200
O 	O 	0.29480 0.75240 0.88500 -0.68700
O 	O 	0.30124 0.66485 0.84998 -0.62900
Zn	Zn	0.32259 0.76261 0.79619 1.10400
C 	C 	0.17495 0.31792 0.45133 -0.25400
C 	C 	0.16724 0.37896 0.46644 0.16400
H 	H 	0.17080 0.40800 0.43720 -0.02100
C 	C 	0.15461 0.39520 0.52407 -0.25500
H 	H 	0.15060 0.43510 0.53380 0.12100
C 	C 	0.14794 0.35266 0.56698 0.19400
C 	C 	0.15417 0.29338 0.55313 -0.26300
H 	H 	0.14910 0.26460 0.58230 0.11600
C 	C 	0.16802 0.27697 0.49543 0.17800
H 	H 	0.17270 0.23690 0.48650 -0.02400
C 	C 	0.19570 0.29860 0.39097 0.53200
O 	O 	0.20520 0.24760 0.38500 -0.68700
O 	O 	0.19876 0.33515 0.34998 -0.62900
Zn	Zn	0.17741 0.23739 0.29619 1.10400
C 	C 	0.67495 0.18208 0.54867 -0.25400
C 	C 	0.66724 0.12104 0.53356 0.16400
H 	H 	0.67080 0.09200 0.56280 -0.02100
C 	C 	0.65461 0.10480 0.47593 -0.25500
H 	H 	0.65060 0.06490 0.46620 0.12100
C 	C 	0.64794 0.14734 0.43302 0.19400
C 	C 	0.65417 0.20662 0.44687 -0.26300
H 	H 	0.64910 0.23540 0.41770 0.11600
C 	C 	0.66802 0.22303 0.50457 0.17800
H 	H 	0.67270 0.26310 0.51350 -0.02400
C 	C 	0.69570 0.20140 0.60903 0.53200
O 	O 	0.70520 0.25240 0.61500 -0.68700
O 	O 	0.69876 0.16485 0.65002 -0.62900
Zn	Zn	0.67741 0.26261 0.70381 1.10400
C 	C 	0.82505 0.81792 0.04867 -0.25400
C 	C 	0.83276 0.87896 0.03356 0.16400
H 	H 	0.82920 0.90800 0.06280 -0.02100
C 	C 	0.84539 0.89520 0.97593 -0.25500
H 	H 	0.84940 0.93510 0.96620 0.12100
C 	C 	0.85206 0.85266 0.93302 0.19400
C 	C 	0.84583 0.79338 0.94687 -0.26300
H 	H 	0.85090 0.76460 0.91770 0.11600
C 	C 	0.83198 0.77697 0.00457 0.17800
H 	H 	0.82730 0.73690 0.01350 -0.02400
C 	C 	0.80430 0.79860 0.10903 0.53200
O 	O 	0.79480 0.74760 0.11500 -0.68700
O 	O 	0.80124 0.83515 0.15002 -0.62900
Zn	Zn	0.82259 0.73739 0.20381 1.10400
C 	C 	0.95133 0.32505 0.68208 -0.25400
C 	C 	0.96644 0.33276 0.62104 0.16400
H 	H 	0.93720 0.32920 0.59200 -0.02100
C 	C 	0.02407 0.34539 0.60480 -0.25500
H 	H 	0.03380 0.34940 0.56490 0.12100
C 	C 	0.06698 0.35206 0.64734 0.19400
C 	C 	0.05313 0.34583 0.70662 -0.26300
H 	H 	0.08230 0.35090 0.73540 0.11600
C 	C 	0.99543 0.33198 0.72303 0.17800
H 	H 	0.98650 0.32730 0.76310 -0.02400
C 	C 	0.89097 0.30430 0.70140 0.53200
O 	O 	0.88500 0.29480 0.75240 -0.68700
O 	O 	0.84998 0.30124 0.66485 -0.62900
Zn	Zn	0.79619 0.32259 0.76261 1.10400
C 	C 	0.45133 0.17495 0.31792 -0.25400
C 	C 	0.46644 0.16724 0.37896 0.16400
H 	H 	0.43720 0.17080 0.40800 -0.02100
C 	C 	0.52407 0.15461 0.39520 -0.25500
H 	H 	0.53380 0.15060 0.43510 0.12100
C 	C 	0.56698 0.14794 0.35266 0.19400
C 	C 	0.55313 0.15417 0.29338 -0.26300
H 	H 	0.58230 0.14910 0.26460 0.11600
C 	C 	0.49543 0.16802 0.27697 0.17800
H 	H 	0.48650 0.17270 0.23690 -0.02400
C 	C 	0.39097 0.19570 0.29860 0.53200
O 	O 	0.38500 0.20520 0.24760 -0.68700
O 	O 	0.34998 0.19876 0.33515 -0.62900
Zn	Zn	0.29619 0.17741 0.23739 1.10400
C 	C 	0.54867 0.67495 0.18208 -0.25400
C 	C 	0.53356 0.66724 0.12104 0.16400
H 	H 	0.56280 0.67080 0.09200 -0.02100
C 	C 	0.47593 0.65461 0.10480 -0.25500
H 	H 	0.46620 0.65060 0.06490 0.12100
C 	C 	0.43302 0.64794 0.14734 0.19400
C 	C 	0.44687 0.65417 0.20662 -0.26300
H 	H 	0.41770 0.64910 0.23540 0.11600
C 	C 	0.50457 0.66802 0.22303 0.17800
H 	H 	0.51350 0.67270 0.26310 -0.02400
C 	C 	0.60903 0.69570 0.20140 0.53200
O 	O 	0.61500 0.70520 0.25240 -0.68700
O 	O 	0.65002 0.69876 0.16485 -0.62900
Zn	Zn	0.70381 0.67741 0.26261 1.10400
C 	C 	0.04867 0.82505 0.81792 -0.25400
C 	C 	0.03356 0.83276 0.87896 0.16400
H 	H 	0.06280 0.82920 0.90800 -0.02100
C 	C 	0.97593 0.84539 0.89520 -0.25500
H 	H 	0.96620 0.84940 0.93510 0.12100
C 	C 	0.93302 0.85206 0.85266 0.19400
C 	C 	0.94687 0.84583 0.79338 -0.26300
H 	H 	0.91770 0.85090 0.76460 0.11600
C 	C 	0.00457 0.83198 0.77697 0.17800
H 	H 	0.01350 0.82730 0.73690 -0.02400
C 	C 	0.10903 0.80430 0.79860 0.53200
O 	O 	0.11500 0.79480 0.74760 -0.68700
O 	O 	0.15002 0.80124 0.83515 -0.62900
Zn	Zn	0.20381 0.82259 0.73739 1.10400
C 	C 	0.68208 0.95133 0.32505 -0.25400
C 	C 	0.62104 0.96644 0.33276 0.16400
H 	H 	0.59200 0.93720 0.32920 -0.02100
C 	C 	0.60480 0.02407 0.34539 -0.25500
H 	H 	0.56490 0.03380 0.34940 0.12100
C 	C 	0.64734 0.06698 0.35206 0.19400
C 	C 	0.70662 0.05313 0.34583 -0.26300
H 	H 	0.73540 0.08230 0.35090 0.11600
C 	C 	0.72303 0.99543 0.33198 0.17800
H 	H 	0.76310 0.98650 0.32730 -0.02400
C 	C 	0.70140 0.89097 0.30430 0.53200
O 	O 	0.75240 0.88500 0.29480 -0.68700
O 	O 	0.66485 0.84998 0.30124 -0.62900
Zn	Zn	0.76261 0.79619 0.32259 1.10400
C 	C 	0.31792 0.45133 0.17495 -0.25400
C 	C 	0.37896 0.46644 0.16724 0.16400
H 	H 	0.40800 0.43720 0.17080 -0.02100
C 	C 	0.39520 0.52407 0.15461 -0.25500
H 	H 	0.43510 0.53380 0.15060 0.12100
C 	C 	0.35266 0.56698 0.14794 0.19400
C 	C 	0.29338 0.55313 0.15417 -0.26300
H 	H 	0.26460 0.58230 0.14910 0.11600
C 	C 	0.27697 0.49543 0.16802 0.17800
H 	H 	0.23690 0.48650 0.17270 -0.02400
C 	C 	0.29860 0.39097 0.19570 0.53200
O 	O 	0.24760 0.38500 0.20520 -0.68700
O 	O 	0.33515 0.34998 0.19876 -0.62900
Zn	Zn	0.23739 0.29619 0.17741 1.10400
C 	C 	0.18208 0.54867 0.67495 -0.25400
C 	C 	0.12104 0.53356 0.66724 0.16400
H 	H 	0.09200 0.56280 0.67080 -0.02100
C 	C 	0.10480 0.47593 0.65461 -0.25500
H 	H 	0.06490 0.46620 0.65060 0.12100
C 	C 	0.14734 0.43302 0.64794 0.19400
C 	C 	0.20662 0.44687 0.65417 -0.26300
H 	H 	0.23540 0.41770 0.64910 0.11600
C 	C 	0.22303 0.50457 0.66802 0.17800
H 	H 	0.26310 0.51350 0.67270 -0.02400
C 	C 	0.20140 0.60903 0.69570 0.53200
O 	O 	0.25240 0.61500 0.70520 -0.68700
O 	O 	0.16485 0.65002 0.69876 -0.62900
Zn	Zn	0.26261 0.70381 0.67741 1.10400
C 	C 	0.81792 0.04867 0.82505 -0.25400
C 	C 	0.87896 0.03356 0.83276 0.16400
H 	H 	0.90800 0.06280 0.82920 -0.02100
C 	C 	0.89520 0.97593 0.84539 -0.25500
H 	H 	0.93510 0.96620 0.84940 0.12100
C 	C 	0.85266 0.93302 0.85206 0.19400
C 	C 	0.79338 0.94687 0.84583 -0.26300
H 	H 	0.76460 0.91770 0.85090 0.11600
C 	C 	0.77697 0.00457 0.83198 0.17800
H 	H 	0.73690 0.01350 0.82730 -0.02400
C 	C 	0.79860 0.10903 0.80430 0.53200
O 	O 	0.74760 0.11500 0.79480 -0.68700
O 	O 	0.83515 0.15002 0.80124 -0.62900
Zn	Zn	0.73739 0.20381 0.82259 1.10400
C 	C 	0.13546 0.86454 0.36454 -0.23700
H 	H 	0.16060 0.83940 0.33940 0.05300
C 	C 	0.36454 0.13546 0.86454 -0.23700
H 	H 	0.33940 0.16060 0.83940 0.05300
C 	C 	0.86454 0.36454 0.13546 -0.23700
H 	H 	0.83940 0.33940 0.16060 0.05300
C 	C 	0.63546 0.63546 0.63546 -0.23700
H 	H 	0.66060 0.66060 0.66060 0.05300
C 	C 	0.36454 0.63546 0.13546 -0.23700
H 	H 	0.33940 0.66060 0.16060 0.05300
C 	C 	0.13546 0.36454 0.63546 -0.23700
H 	H 	0.16060 0.33940 0.66060 0.05300
C 	C 	0.63546 0.13546 0.36454 -0.23700
H 	H 	0.66060 0.16060 0.33940 0.05300
C 	C 	0.86454 0.86454 0.86454 -0.23700
H 	H 	0.83940 0.83940 0.83940 0.05300
O 	O 	0.25000 0.25000 0.25000 -1.28200
O 	O 	0.25000 0.75000 0.75000 -1.28200
O 	O 	0.75000 0.25000 0.75000 -1.28200
O 	O 	0.75000 0.75000 0.25000 -1.28200
