data_crystal

_cell_length_a 8.59890
_cell_length_b 17.04400
_cell_length_c 10.16500
_cell_angle_alpha 90.00000
_cell_angle_beta  108.43400
_cell_angle_gamma 90.00000

_symmetry_space_group_name_	'P 1'
_symmetry_space_group_name_H-M	'P 1'

loop_
_symmetry_equiv_pos_as_xyz
  x,y,z

loop_
_atom_site_label
_atom_site_type_symbol
_atom_site_fract_x
_atom_site_fract_y
_atom_site_fract_z
_atom_site_charge
Zn	Zn	0.10572 0.17166 0.92118 1.22400
Zn	Zn	0.12258 0.83164 0.82182 1.22500
P 	P 	0.24102 0.99648 0.99165 0.50100
P 	P 	0.76414 0.24774 0.89456 0.42700
P 	P 	0.22444 0.26095 0.71489 0.43500
O 	O 	0.27500 0.95690 0.13690 -0.44900
H 	H 	0.22690 0.91470 0.12770 0.27800
O 	O 	0.18780 0.93790 0.87600 -0.45500
O 	O 	0.12450 0.06380 0.97540 -0.44900
O 	O 	0.81720 0.32653 0.84980 -0.41400
O 	O 	0.86580 0.18014 0.86330 -0.49400
O 	O 	0.77300 0.24960 0.04670 -0.45000
O 	O 	0.11380 0.32357 0.74370 -0.48100
O 	O 	0.18810 0.17902 0.76270 -0.42700
O 	O 	0.21570 0.25460 0.56330 -0.44800
C 	C 	0.43740 0.03300 0.99700 -0.21100
H 	H 	0.42540 0.06500 0.91540 0.09600
H 	H 	0.47930 0.06640 0.07780 0.09000
C 	C 	0.55580 0.22880 0.79130 -0.21100
H 	H 	0.54860 0.23060 0.69420 0.10100
H 	H 	0.52680 0.17610 0.81110 0.10500
C 	C 	0.43030 0.28610 0.81500 -0.21000
H 	H 	0.45460 0.33870 0.79020 0.10600
H 	H 	0.43970 0.28630 0.91260 0.10600
Zn	Zn	0.89428 0.67166 0.57882 1.22600
Zn	Zn	0.87742 0.33164 0.67818 1.22700
P 	P 	0.75898 0.49648 0.50835 0.50900
P 	P 	0.23586 0.74774 0.60544 0.42400
P 	P 	0.77556 0.76095 0.78511 0.43500
O 	O 	0.72500 0.45690 0.36310 -0.45400
H 	H 	0.77310 0.41470 0.37230 0.27800
O 	O 	0.81220 0.43790 0.62400 -0.45300
O 	O 	0.87550 0.56380 0.52460 -0.45000
O 	O 	0.18280 0.82653 0.65020 -0.41600
O 	O 	0.13420 0.68014 0.63670 -0.49600
O 	O 	0.22700 0.74960 0.45330 -0.44700
O 	O 	0.88620 0.82357 0.75630 -0.47800
O 	O 	0.81190 0.67902 0.73730 -0.42600
O 	O 	0.78430 0.75460 0.93670 -0.44700
C 	C 	0.56260 0.53300 0.50300 -0.21600
H 	H 	0.57460 0.56500 0.58460 0.09700
H 	H 	0.52070 0.56640 0.42220 0.09300
C 	C 	0.44420 0.72880 0.70870 -0.21000
H 	H 	0.45140 0.73060 0.80580 0.10100
H 	H 	0.47320 0.67610 0.68890 0.10500
C 	C 	0.56970 0.78610 0.68500 -0.21000
H 	H 	0.54540 0.83870 0.70980 0.10600
H 	H 	0.56030 0.78630 0.58740 0.10600
Zn	Zn	0.89428 0.82834 0.07882 1.22500
Zn	Zn	0.87742 0.16836 0.17818 1.22600
P 	P 	0.75898 0.00352 0.00835 0.50100
P 	P 	0.23586 0.75226 0.10544 0.42700
P 	P 	0.77556 0.73905 0.28511 0.43500
O 	O 	0.72500 0.04310 0.86310 -0.44900
H 	H 	0.77310 0.08530 0.87230 0.27800
O 	O 	0.81220 0.06210 0.12400 -0.45500
O 	O 	0.87550 0.93620 0.02460 -0.44900
O 	O 	0.18280 0.67347 0.15020 -0.41400
O 	O 	0.13420 0.81986 0.13670 -0.49400
O 	O 	0.22700 0.75040 0.95330 -0.45000
O 	O 	0.88620 0.67643 0.25630 -0.48100
O 	O 	0.81190 0.82098 0.23730 -0.42700
O 	O 	0.78430 0.74540 0.43670 -0.44800
C 	C 	0.56260 0.96700 0.00300 -0.21100
H 	H 	0.57460 0.93500 0.08460 0.09600
H 	H 	0.52070 0.93360 0.92220 0.09000
C 	C 	0.44420 0.77120 0.20870 -0.21100
H 	H 	0.45140 0.76940 0.30580 0.10100
H 	H 	0.47320 0.82390 0.18890 0.10500
C 	C 	0.56970 0.71390 0.18500 -0.21000
H 	H 	0.54540 0.66130 0.20980 0.10600
H 	H 	0.56030 0.71370 0.08740 0.10600
Zn	Zn	0.10572 0.32834 0.42118 1.22600
Zn	Zn	0.12258 0.66836 0.32182 1.22700
P 	P 	0.24102 0.50352 0.49165 0.50900
P 	P 	0.76414 0.25226 0.39456 0.42400
P 	P 	0.22444 0.23905 0.21489 0.43500
O 	O 	0.27500 0.54310 0.63690 -0.45400
H 	H 	0.22690 0.58530 0.62770 0.27800
O 	O 	0.18780 0.56210 0.37600 -0.45300
O 	O 	0.12450 0.43620 0.47540 -0.45000
O 	O 	0.81720 0.17347 0.34980 -0.41600
O 	O 	0.86580 0.31986 0.36330 -0.49600
O 	O 	0.77300 0.25040 0.54670 -0.44700
O 	O 	0.11380 0.17643 0.24370 -0.47800
O 	O 	0.18810 0.32098 0.26270 -0.42600
O 	O 	0.21570 0.24540 0.06330 -0.44700
C 	C 	0.43740 0.46700 0.49700 -0.21600
H 	H 	0.42540 0.43500 0.41540 0.09700
H 	H 	0.47930 0.43360 0.57780 0.09300
C 	C 	0.55580 0.27120 0.29130 -0.21000
H 	H 	0.54860 0.26940 0.19420 0.10100
H 	H 	0.52680 0.32390 0.31110 0.10500
C 	C 	0.43030 0.21390 0.31500 -0.21000
H 	H 	0.45460 0.16130 0.29020 0.10600
H 	H 	0.43970 0.21370 0.41260 0.10600
