data_crystal

_cell_length_a 10.86580
_cell_length_b 16.60500
_cell_length_c 10.39260
_cell_angle_alpha 90.00000
_cell_angle_beta  103.96500
_cell_angle_gamma 90.00000

_symmetry_space_group_name_	'P 1'
_symmetry_space_group_name_H-M	'P 1'

loop_
_symmetry_equiv_pos_as_xyz
  x,y,z

loop_
_atom_site_label
_atom_site_type_symbol
_atom_site_fract_x
_atom_site_fract_y
_atom_site_fract_z
_atom_site_charge
Zn	Zn	0.05502 0.16658 0.40351 1.23100
Zn	Zn	0.13487 0.83531 0.31690 1.23000
P 	P 	0.21256 0.00579 0.45550 0.50800
P 	P 	0.13789 0.22292 0.69260 0.45900
P 	P 	0.79138 0.26003 0.90951 0.45300
O 	O 	0.22010 0.93640 0.36680 -0.45800
O 	O 	0.09330 0.05410 0.40950 -0.45300
O 	O 	0.22580 0.97760 0.60170 -0.46700
H 	H 	0.19470 0.93260 0.60180 0.28000
O 	O 	0.04790 0.15720 0.71540 -0.47700
O 	O 	0.14370 0.23140 0.54840 -0.45700
O 	O 	0.10290 0.30600 0.74030 -0.44200
O 	O 	0.87170 0.33150 0.88090 -0.49600
O 	O 	0.79400 0.25350 0.05520 -0.45500
O 	O 	0.83590 0.18080 0.85980 -0.43200
C 	C 	0.34980 0.06870 0.46890 -0.29700
H 	H 	0.33760 0.11710 0.51660 0.10400
H 	H 	0.35310 0.08500 0.38020 0.11700
C 	C 	0.47820 0.03310 0.53670 -0.02200
H 	H 	0.47400 0.01320 0.62330 0.04800
H 	H 	0.54100 0.07580 0.55050 0.03900
C 	C 	0.29440 0.19480 0.78510 -0.30600
H 	H 	0.29800 0.19950 0.87900 0.12000
H 	H 	0.30870 0.13880 0.76700 0.13400
C 	C 	0.40030 0.24480 0.75440 -0.01800
H 	H 	0.38320 0.30130 0.76640 0.03400
H 	H 	0.40120 0.23690 0.66210 0.03400
C 	C 	0.63370 0.28030 0.81650 -0.30000
H 	H 	0.63270 0.27820 0.72300 0.11600
H 	H 	0.61200 0.33480 0.83600 0.12400
C 	C 	0.53090 0.22400 0.84100 -0.04000
H 	H 	0.55200 0.16900 0.82300 0.04500
H 	H 	0.52850 0.22710 0.93350 0.04200
Zn	Zn	0.94498 0.66658 0.09649 1.22900
Zn	Zn	0.86513 0.33531 0.18310 1.22900
P 	P 	0.78744 0.50579 0.04450 0.50800
P 	P 	0.86211 0.72292 0.80740 0.45900
P 	P 	0.20862 0.76003 0.59049 0.45100
O 	O 	0.77990 0.43640 0.13320 -0.45900
O 	O 	0.90670 0.55410 0.09050 -0.45600
O 	O 	0.77420 0.47760 0.89830 -0.46600
H 	H 	0.80530 0.43260 0.89820 0.28000
O 	O 	0.95210 0.65720 0.78460 -0.47300
O 	O 	0.85630 0.73140 0.95160 -0.45400
O 	O 	0.89710 0.80600 0.75970 -0.44000
O 	O 	0.12830 0.83150 0.61910 -0.49800
O 	O 	0.20600 0.75350 0.44480 -0.45200
O 	O 	0.16410 0.68080 0.64020 -0.43300
C 	C 	0.65020 0.56870 0.03110 -0.30400
H 	H 	0.66240 0.61710 0.98340 0.10800
H 	H 	0.64690 0.58500 0.11980 0.11900
C 	C 	0.52180 0.53310 0.96330 -0.01900
H 	H 	0.52600 0.51320 0.87670 0.04800
H 	H 	0.45900 0.57580 0.94950 0.03800
C 	C 	0.70560 0.69480 0.71490 -0.30700
H 	H 	0.70200 0.69950 0.62100 0.12200
H 	H 	0.69130 0.63880 0.73300 0.13500
C 	C 	0.59970 0.74480 0.74560 -0.01700
H 	H 	0.61680 0.80130 0.73360 0.03400
H 	H 	0.59880 0.73690 0.83790 0.03400
C 	C 	0.36630 0.78030 0.68350 -0.30000
H 	H 	0.36730 0.77820 0.77700 0.11500
H 	H 	0.38800 0.83480 0.66400 0.12300
C 	C 	0.46910 0.72400 0.65900 -0.04100
H 	H 	0.44800 0.66900 0.67700 0.04600
H 	H 	0.47150 0.72710 0.56650 0.04300
Zn	Zn	0.94498 0.83342 0.59649 1.23100
Zn	Zn	0.86513 0.16469 0.68310 1.23000
P 	P 	0.78744 0.99421 0.54450 0.50800
P 	P 	0.86211 0.77708 0.30740 0.45900
P 	P 	0.20862 0.73997 0.09049 0.45300
O 	O 	0.77990 0.06360 0.63320 -0.45800
O 	O 	0.90670 0.94590 0.59050 -0.45300
O 	O 	0.77420 0.02240 0.39830 -0.46700
H 	H 	0.80530 0.06740 0.39820 0.28000
O 	O 	0.95210 0.84280 0.28460 -0.47700
O 	O 	0.85630 0.76860 0.45160 -0.45700
O 	O 	0.89710 0.69400 0.25970 -0.44200
O 	O 	0.12830 0.66850 0.11910 -0.49600
O 	O 	0.20600 0.74650 0.94480 -0.45500
O 	O 	0.16410 0.81920 0.14020 -0.43200
C 	C 	0.65020 0.93130 0.53110 -0.29700
H 	H 	0.66240 0.88290 0.48340 0.10400
H 	H 	0.64690 0.91500 0.61980 0.11700
C 	C 	0.52180 0.96690 0.46330 -0.02200
H 	H 	0.52600 0.98680 0.37670 0.04800
H 	H 	0.45900 0.92420 0.44950 0.03900
C 	C 	0.70560 0.80520 0.21490 -0.30600
H 	H 	0.70200 0.80050 0.12100 0.12000
H 	H 	0.69130 0.86120 0.23300 0.13400
C 	C 	0.59970 0.75520 0.24560 -0.01800
H 	H 	0.61680 0.69870 0.23360 0.03400
H 	H 	0.59880 0.76310 0.33790 0.03400
C 	C 	0.36630 0.71970 0.18350 -0.30000
H 	H 	0.36730 0.72180 0.27700 0.11600
H 	H 	0.38800 0.66520 0.16400 0.12400
C 	C 	0.46910 0.77600 0.15900 -0.04000
H 	H 	0.44800 0.83100 0.17700 0.04500
H 	H 	0.47150 0.77290 0.06650 0.04200
Zn	Zn	0.05502 0.33342 0.90351 1.22900
Zn	Zn	0.13487 0.66469 0.81690 1.22900
P 	P 	0.21256 0.49421 0.95550 0.50800
P 	P 	0.13789 0.27708 0.19260 0.45900
P 	P 	0.79138 0.23997 0.40951 0.45100
O 	O 	0.22010 0.56360 0.86680 -0.45900
O 	O 	0.09330 0.44590 0.90950 -0.45600
O 	O 	0.22580 0.52240 0.10170 -0.46600
H 	H 	0.19470 0.56740 0.10180 0.28000
O 	O 	0.04790 0.34280 0.21540 -0.47300
O 	O 	0.14370 0.26860 0.04840 -0.45400
O 	O 	0.10290 0.19400 0.24030 -0.44000
O 	O 	0.87170 0.16850 0.38090 -0.49800
O 	O 	0.79400 0.24650 0.55520 -0.45200
O 	O 	0.83590 0.31920 0.35980 -0.43300
C 	C 	0.34980 0.43130 0.96890 -0.30400
H 	H 	0.33760 0.38290 0.01660 0.10800
H 	H 	0.35310 0.41500 0.88020 0.11900
C 	C 	0.47820 0.46690 0.03670 -0.01900
H 	H 	0.47400 0.48680 0.12330 0.04800
H 	H 	0.54100 0.42420 0.05050 0.03800
C 	C 	0.29440 0.30520 0.28510 -0.30700
H 	H 	0.29800 0.30050 0.37900 0.12200
H 	H 	0.30870 0.36120 0.26700 0.13500
C 	C 	0.40030 0.25520 0.25440 -0.01700
H 	H 	0.38320 0.19870 0.26640 0.03400
H 	H 	0.40120 0.26310 0.16210 0.03400
C 	C 	0.63370 0.21970 0.31650 -0.30000
H 	H 	0.63270 0.22180 0.22300 0.11500
H 	H 	0.61200 0.16520 0.33600 0.12300
C 	C 	0.53090 0.27600 0.34100 -0.04100
H 	H 	0.55200 0.33100 0.32300 0.04600
H 	H 	0.52850 0.27290 0.43350 0.04300
