data_crystal

_cell_length_a 7.01220
_cell_length_b 11.12410
_cell_length_c 20.04330
_cell_angle_alpha 106.11100
_cell_angle_beta  98.29250
_cell_angle_gamma 90.00000

_symmetry_space_group_name_	'P 1'
_symmetry_space_group_name_H-M	'P 1'

loop_
_symmetry_equiv_pos_as_xyz
  x,y,z

loop_
_atom_site_label
_atom_site_type_symbol
_atom_site_fract_x
_atom_site_fract_y
_atom_site_fract_z
_atom_site_charge
Er	Er	0.14666 0.07046 0.74063 1.49500
Er	Er	0.35334 0.32983 0.25937 1.51600
Er	Er	0.85334 0.92954 0.25937 1.49500
Er	Er	0.64666 0.67017 0.74063 1.51600
H 	H 	0.49760 0.20330 0.99020 0.04200
H 	H 	0.36340 0.83310 0.90860 0.02800
H 	H 	0.52760 0.71810 0.54480 0.03300
H 	H 	0.42370 0.69340 0.42540 0.05300
H 	H 	0.18630 0.02720 0.47540 0.05200
H 	H 	0.29710 0.05630 0.59320 0.00200
H 	H 	0.00240 0.21310 0.00980 0.04300
H 	H 	0.13660 0.92450 0.09140 0.03000
H 	H 	0.97240 0.17330 0.45520 0.04200
H 	H 	0.07630 0.26800 0.57460 0.04800
H 	H 	0.31370 0.55180 0.52460 0.05600
H 	H 	0.20290 0.46310 0.40680 0.00800
H 	H 	0.50240 0.79670 0.00980 0.04300
H 	H 	0.63660 0.16690 0.09140 0.02900
H 	H 	0.47240 0.28190 0.45520 0.03300
H 	H 	0.57630 0.30660 0.57460 0.05300
H 	H 	0.81370 0.97280 0.52460 0.05200
H 	H 	0.70290 0.94370 0.40680 0.00200
H 	H 	0.99760 0.78690 0.99020 0.04300
H 	H 	0.86340 0.07550 0.90860 0.03000
H 	H 	0.02760 0.82670 0.54480 0.04200
H 	H 	0.92370 0.73200 0.42540 0.04800
H 	H 	0.68630 0.44820 0.47540 0.05600
H 	H 	0.79710 0.53690 0.59320 0.00800
C 	C 	0.32750 0.04240 0.86900 0.31300
C 	C 	0.41640 0.02070 0.93680 -0.06900
C 	C 	0.49950 0.12200 0.99420 -0.03600
C 	C 	0.41920 0.89990 0.94540 0.00100
C 	C 	0.46700 0.89210 0.65740 0.43700
C 	C 	0.41470 0.88460 0.58200 -0.14400
C 	C 	0.45650 0.78000 0.53100 0.02400
C 	C 	0.39420 0.76460 0.45880 -0.05100
C 	C 	0.28910 0.85670 0.43860 -0.06300
C 	C 	0.25450 0.96440 0.48940 -0.04400
C 	C 	0.31790 0.98190 0.56040 0.03700
C 	C 	0.21180 0.83900 0.36260 0.35000
C 	C 	0.17250 0.17340 0.13100 0.32100
C 	C 	0.08360 0.08390 0.06320 -0.06900
C 	C 	0.00050 0.12780 0.00580 -0.03600
C 	C 	0.08080 0.95450 0.05460 -0.00000
C 	C 	0.03300 0.23470 0.34260 0.42800
C 	C 	0.08530 0.30260 0.41800 -0.13400
C 	C 	0.04350 0.24900 0.46900 0.00800
C 	C 	0.10580 0.30580 0.54120 -0.04200
C 	C 	0.21090 0.41810 0.56140 -0.06700
C 	C 	0.24550 0.47500 0.51060 -0.04600
C 	C 	0.18210 0.42150 0.43960 0.02800
C 	C 	0.28820 0.47640 0.63740 0.35200
C 	C 	0.67250 0.95760 0.13100 0.31300
C 	C 	0.58360 0.97930 0.06320 -0.06900
C 	C 	0.50050 0.87800 0.00580 -0.03600
C 	C 	0.58080 0.10010 0.05460 0.00100
C 	C 	0.53300 0.10790 0.34260 0.43700
C 	C 	0.58530 0.11540 0.41800 -0.14400
C 	C 	0.54350 0.22000 0.46900 0.02400
C 	C 	0.60580 0.23540 0.54120 -0.05100
C 	C 	0.71090 0.14330 0.56140 -0.06300
C 	C 	0.74550 0.03560 0.51060 -0.04400
C 	C 	0.68210 0.01810 0.43960 0.03700
C 	C 	0.78820 0.16100 0.63740 0.35000
C 	C 	0.82750 0.82660 0.86900 0.32100
C 	C 	0.91640 0.91610 0.93680 -0.06900
C 	C 	0.99950 0.87220 0.99420 -0.03600
C 	C 	0.91920 0.04550 0.94540 -0.00000
C 	C 	0.96700 0.76530 0.65740 0.42800
C 	C 	0.91470 0.69740 0.58200 -0.13400
C 	C 	0.95650 0.75100 0.53100 0.00800
C 	C 	0.89420 0.69420 0.45880 -0.04200
C 	C 	0.78910 0.58190 0.43860 -0.06700
C 	C 	0.75450 0.52500 0.48940 -0.04600
C 	C 	0.81790 0.57850 0.56040 0.02800
C 	C 	0.71180 0.52360 0.36260 0.35200
O 	O 	0.21400 0.95890 0.82520 -0.39200
O 	O 	0.35460 0.14360 0.85540 -0.40400
O 	O 	0.42220 0.98870 0.70400 -0.45300
O 	O 	0.55720 0.80330 0.67240 -0.44600
O 	O 	0.05610 0.89300 0.34960 -0.45400
O 	O 	0.29810 0.77140 0.31600 -0.31700
O 	O 	0.28600 0.13370 0.17480 -0.40100
O 	O 	0.14540 0.28820 0.14460 -0.40700
O 	O 	0.07780 0.28470 0.29600 -0.45500
O 	O 	0.94280 0.13090 0.32760 -0.43800
O 	O 	0.44390 0.54340 0.65040 -0.46100
O 	O 	0.20190 0.45540 0.68400 -0.31900
O 	O 	0.78600 0.04110 0.17480 -0.39200
O 	O 	0.64540 0.85640 0.14460 -0.40400
O 	O 	0.57780 0.01130 0.29600 -0.45300
O 	O 	0.44280 0.19670 0.32760 -0.44600
O 	O 	0.94390 0.10700 0.65040 -0.45400
O 	O 	0.70190 0.22860 0.68400 -0.31700
O 	O 	0.71400 0.86630 0.82520 -0.40100
O 	O 	0.85460 0.71180 0.85540 -0.40700
O 	O 	0.92220 0.71530 0.70400 -0.45500
O 	O 	0.05720 0.86910 0.67240 -0.43800
O 	O 	0.55610 0.45660 0.34960 -0.46100
O 	O 	0.79810 0.54460 0.31600 -0.31900
