data_crystal

_cell_length_a 30.09130
_cell_length_b 30.09130
_cell_length_c 30.09130
_cell_angle_alpha 80.28440
_cell_angle_beta  80.28440
_cell_angle_gamma 80.28440

_symmetry_space_group_name_	'P 1'
_symmetry_space_group_name_H-M	'P 1'

loop_
_symmetry_equiv_pos_as_xyz
  x,y,z

loop_
_atom_site_label
_atom_site_type_symbol
_atom_site_fract_x
_atom_site_fract_y
_atom_site_fract_z
_atom_site_charge
Zn	Zn	0.80536 0.30250 0.81472 1.19800
Zn	Zn	0.80569 0.41925 0.78591 1.24600
Zn	Zn	0.25103 0.15797 0.48129 1.18400
Zn	Zn	0.81472 0.80536 0.30250 1.19800
Zn	Zn	0.78591 0.80569 0.41925 1.24600
Zn	Zn	0.48129 0.25103 0.15797 1.18400
Zn	Zn	0.30250 0.81472 0.80536 1.19800
Zn	Zn	0.41925 0.78590 0.80569 1.24600
Zn	Zn	0.15797 0.48129 0.25103 1.18400
Zn	Zn	0.19750 0.69464 0.68528 1.19800
Zn	Zn	0.08075 0.69431 0.71409 1.24600
Zn	Zn	0.34203 0.24897 0.01871 1.18300
Zn	Zn	0.69464 0.68528 0.19750 1.19700
Zn	Zn	0.69431 0.71409 0.08075 1.24500
Zn	Zn	0.24897 0.01871 0.34203 1.18200
Zn	Zn	0.68528 0.19750 0.69464 1.19700
Zn	Zn	0.71410 0.08075 0.69431 1.24500
Zn	Zn	0.01871 0.34203 0.24897 1.18200
Zn	Zn	0.19464 0.69750 0.18528 1.19700
Zn	Zn	0.19431 0.58075 0.21409 1.24500
Zn	Zn	0.74897 0.84203 0.51871 1.18300
Zn	Zn	0.18528 0.19464 0.69750 1.19700
Zn	Zn	0.21409 0.19431 0.58075 1.24500
Zn	Zn	0.51871 0.74897 0.84203 1.18300
Zn	Zn	0.69750 0.18528 0.19464 1.19700
Zn	Zn	0.58075 0.21409 0.19431 1.24500
Zn	Zn	0.84203 0.51871 0.74897 1.18300
Zn	Zn	0.80250 0.30536 0.31472 1.19700
Zn	Zn	0.91925 0.30569 0.28591 1.24500
Zn	Zn	0.65797 0.75103 0.98129 1.18200
Zn	Zn	0.30536 0.31472 0.80250 1.19700
Zn	Zn	0.30569 0.28591 0.91925 1.24500
Zn	Zn	0.75103 0.98129 0.65797 1.18200
Zn	Zn	0.31472 0.80250 0.30536 1.19700
Zn	Zn	0.28591 0.91925 0.30569 1.24500
Zn	Zn	0.98129 0.65797 0.75103 1.18200
H 	H 	0.92430 0.28010 0.88200 0.07200
H 	H 	0.98490 0.28040 0.91980 -0.00200
H 	H 	0.00380 0.34860 0.93080 0.10900
H 	H 	0.89870 0.41660 0.87010 0.10500
H 	H 	0.94190 0.47750 0.86590 -0.03900
H 	H 	0.90810 0.46940 0.91140 -0.04800
H 	H 	0.92470 0.46890 0.01860 0.32500
H 	H 	0.88300 0.50440 0.00470 0.32600
H 	H 	0.90170 0.46380 0.97710 0.31800
H 	H 	0.99560 0.53930 0.82000 0.28800
H 	H 	0.04230 0.52030 0.83760 0.30600
H 	H 	0.00570 0.48800 0.84140 0.31100
H 	H 	0.02530 0.60510 0.98430 0.30000
H 	H 	0.00920 0.63800 0.94200 0.30700
H 	H 	0.97490 0.62980 0.98690 0.30900
H 	H 	0.02930 0.62610 0.87830 -0.04200
H 	H 	0.04150 0.58890 0.84540 -0.04100
H 	H 	0.09680 0.63540 0.81890 0.10800
H 	H 	0.15440 0.55970 0.92280 0.09800
H 	H 	0.96570 0.56870 0.03830 -0.01800
H 	H 	0.94090 0.52540 0.04640 -0.02400
H 	H 	0.82440 0.63010 0.05430 0.11300
H 	H 	0.82340 0.61590 0.18950 0.06400
H 	H 	0.89130 0.56870 0.18260 -0.00500
H 	H 	0.92910 0.55450 0.11160 0.11000
H 	H 	0.84510 0.08320 0.72310 0.10500
H 	H 	0.96000 0.01120 0.76240 0.11500
H 	H 	0.93320 0.94460 0.76130 -0.00300
H 	H 	0.86260 0.94710 0.73940 0.07300
H 	H 	0.87890 0.14420 0.73510 -0.03700
H 	H 	0.90040 0.12610 0.68910 -0.03800
H 	H 	0.91090 0.21300 0.80110 0.28300
H 	H 	0.89330 0.17120 0.78850 0.28900
H 	H 	0.87150 0.22090 0.77140 0.27400
H 	H 	0.99940 0.30630 0.67750 0.33600
H 	H 	0.01780 0.28650 0.63180 0.34000
H 	H 	0.04620 0.27410 0.67250 0.32800
H 	H 	0.99220 0.13390 0.61500 0.30900
H 	H 	0.96020 0.10780 0.65360 0.31600
H 	H 	0.01220 0.10390 0.65680 0.31500
H 	H 	0.00710 0.29590 0.52120 0.10600
H 	H 	0.05200 0.32020 0.45710 -0.00600
H 	H 	0.12820 0.29030 0.44410 0.07100
H 	H 	0.11110 0.20180 0.55900 0.10400
H 	H 	0.93850 0.30890 0.71720 -0.03600
H 	H 	0.91810 0.28190 0.76340 -0.03300
H 	H 	0.91870 0.36430 0.75180 0.10300
H 	H 	0.98800 0.45610 0.77670 0.06400
H 	H 	0.04810 0.39980 0.78970 0.00100
H 	H 	0.04570 0.32380 0.78260 0.10200
H 	H 	0.06610 0.20970 0.62670 -0.03600
H 	H 	0.04780 0.16980 0.61110 -0.03800
H 	H 	0.22770 0.63830 0.82790 0.06800
H 	H 	0.22280 0.58470 0.89240 0.01100
H 	H 	0.88200 0.92430 0.28010 0.07200
H 	H 	0.91980 0.98490 0.28040 -0.00200
H 	H 	0.93080 0.00380 0.34860 0.10900
H 	H 	0.87010 0.89870 0.41660 0.10500
H 	H 	0.86590 0.94190 0.47750 -0.03900
H 	H 	0.91140 0.90810 0.46940 -0.04800
H 	H 	0.01860 0.92470 0.46890 0.32500
H 	H 	0.00470 0.88300 0.50440 0.32600
H 	H 	0.97710 0.90170 0.46380 0.31800
H 	H 	0.82000 0.99560 0.53930 0.28800
H 	H 	0.83760 0.04230 0.52030 0.30600
H 	H 	0.84140 0.00570 0.48800 0.31100
H 	H 	0.98430 0.02530 0.60510 0.30000
H 	H 	0.94200 0.00920 0.63800 0.30700
H 	H 	0.98690 0.97490 0.62980 0.30900
H 	H 	0.87830 0.02930 0.62610 -0.04200
H 	H 	0.84540 0.04150 0.58890 -0.04100
H 	H 	0.81890 0.09680 0.63540 0.10800
H 	H 	0.92280 0.15440 0.55970 0.09800
H 	H 	0.03830 0.96570 0.56870 -0.01800
H 	H 	0.04640 0.94090 0.52540 -0.02400
H 	H 	0.05430 0.82440 0.63010 0.11300
H 	H 	0.18950 0.82340 0.61590 0.06400
H 	H 	0.18260 0.89130 0.56870 -0.00500
H 	H 	0.11160 0.92910 0.55450 0.11000
H 	H 	0.72310 0.84510 0.08320 0.10500
H 	H 	0.76240 0.96000 0.01120 0.11500
H 	H 	0.76130 0.93320 0.94460 -0.00300
H 	H 	0.73940 0.86260 0.94710 0.07300
H 	H 	0.73510 0.87890 0.14420 -0.03700
H 	H 	0.68910 0.90040 0.12610 -0.03800
H 	H 	0.80110 0.91090 0.21300 0.28300
H 	H 	0.78850 0.89330 0.17120 0.28900
H 	H 	0.77140 0.87150 0.22090 0.27400
H 	H 	0.67750 0.99940 0.30630 0.33600
H 	H 	0.63180 0.01780 0.28650 0.34000
H 	H 	0.67250 0.04620 0.27410 0.32800
H 	H 	0.61500 0.99220 0.13390 0.30900
H 	H 	0.65360 0.96020 0.10780 0.31600
H 	H 	0.65680 0.01220 0.10390 0.31500
H 	H 	0.52120 0.00710 0.29590 0.10600
H 	H 	0.45710 0.05200 0.32020 -0.00600
H 	H 	0.44410 0.12820 0.29030 0.07100
H 	H 	0.55900 0.11110 0.20180 0.10400
H 	H 	0.71720 0.93850 0.30890 -0.03600
H 	H 	0.76340 0.91810 0.28190 -0.03300
H 	H 	0.75180 0.91870 0.36430 0.10300
H 	H 	0.77670 0.98800 0.45610 0.06400
H 	H 	0.78970 0.04810 0.39980 0.00100
H 	H 	0.78260 0.04570 0.32380 0.10200
H 	H 	0.62670 0.06610 0.20970 -0.03600
H 	H 	0.61110 0.04780 0.16980 -0.03800
H 	H 	0.82790 0.22770 0.63830 0.06800
H 	H 	0.89240 0.22280 0.58470 0.01100
H 	H 	0.28010 0.88200 0.92430 0.07200
H 	H 	0.28040 0.91980 0.98490 -0.00200
H 	H 	0.34860 0.93080 0.00380 0.10900
H 	H 	0.41660 0.87010 0.89870 0.10500
H 	H 	0.47750 0.86590 0.94190 -0.03900
H 	H 	0.46940 0.91140 0.90810 -0.04800
H 	H 	0.46890 0.01860 0.92470 0.32500
H 	H 	0.50440 0.00470 0.88300 0.32600
H 	H 	0.46380 0.97710 0.90170 0.31800
H 	H 	0.53930 0.82000 0.99560 0.28800
H 	H 	0.52030 0.83760 0.04230 0.30600
H 	H 	0.48800 0.84140 0.00570 0.31100
H 	H 	0.60510 0.98430 0.02530 0.30000
H 	H 	0.63800 0.94200 0.00920 0.30700
H 	H 	0.62980 0.98690 0.97490 0.30900
H 	H 	0.62610 0.87830 0.02930 -0.04200
H 	H 	0.58890 0.84540 0.04150 -0.04100
H 	H 	0.63540 0.81890 0.09680 0.10800
H 	H 	0.55970 0.92280 0.15440 0.09800
H 	H 	0.56870 0.03830 0.96570 -0.01800
H 	H 	0.52540 0.04640 0.94090 -0.02400
H 	H 	0.63010 0.05430 0.82440 0.11300
H 	H 	0.61590 0.18950 0.82340 0.06400
H 	H 	0.56870 0.18260 0.89130 -0.00500
H 	H 	0.55450 0.11160 0.92910 0.11000
H 	H 	0.08320 0.72310 0.84510 0.10500
H 	H 	0.01120 0.76240 0.96000 0.11500
H 	H 	0.94460 0.76130 0.93320 -0.00300
H 	H 	0.94710 0.73940 0.86260 0.07300
H 	H 	0.14420 0.73510 0.87890 -0.03700
H 	H 	0.12610 0.68910 0.90040 -0.03800
H 	H 	0.21300 0.80110 0.91090 0.28300
H 	H 	0.17120 0.78850 0.89330 0.28900
H 	H 	0.22090 0.77140 0.87150 0.27400
H 	H 	0.30630 0.67750 0.99940 0.33600
H 	H 	0.28650 0.63180 0.01780 0.34000
H 	H 	0.27410 0.67250 0.04620 0.32800
H 	H 	0.13390 0.61500 0.99220 0.30900
H 	H 	0.10780 0.65360 0.96020 0.31600
H 	H 	0.10390 0.65680 0.01220 0.31500
H 	H 	0.29590 0.52120 0.00710 0.10600
H 	H 	0.32020 0.45710 0.05200 -0.00600
H 	H 	0.29030 0.44410 0.12820 0.07100
H 	H 	0.20180 0.55900 0.11110 0.10400
H 	H 	0.30890 0.71720 0.93850 -0.03600
H 	H 	0.28190 0.76340 0.91810 -0.03300
H 	H 	0.36430 0.75180 0.91870 0.10300
H 	H 	0.45610 0.77670 0.98800 0.06400
H 	H 	0.39980 0.78970 0.04810 0.00100
H 	H 	0.32380 0.78260 0.04570 0.10200
H 	H 	0.20970 0.62670 0.06610 -0.03600
H 	H 	0.16980 0.61110 0.04780 -0.03800
H 	H 	0.63830 0.82790 0.22770 0.06800
H 	H 	0.58470 0.89240 0.22280 0.01100
H 	H 	0.21990 0.57570 0.61800 0.07100
H 	H 	0.21960 0.51510 0.58020 -0.00200
H 	H 	0.15140 0.49620 0.56920 0.10800
H 	H 	0.08340 0.60130 0.62990 0.10500
H 	H 	0.02250 0.55810 0.63410 -0.03900
H 	H 	0.03060 0.59190 0.58860 -0.04900
H 	H 	0.03110 0.57530 0.48140 0.32300
H 	H 	0.99560 0.61700 0.49530 0.32400
H 	H 	0.03620 0.59830 0.52290 0.31600
H 	H 	0.96070 0.50440 0.68000 0.29100
H 	H 	0.97970 0.45770 0.66240 0.30800
H 	H 	0.01200 0.49430 0.65860 0.31300
H 	H 	0.89490 0.47470 0.51570 0.30200
H 	H 	0.86200 0.49080 0.55800 0.30900
H 	H 	0.87020 0.52510 0.51310 0.31200
H 	H 	0.87390 0.47070 0.62170 -0.04300
H 	H 	0.91110 0.45850 0.65460 -0.04200
H 	H 	0.86460 0.40320 0.68110 0.10800
H 	H 	0.94030 0.34560 0.57720 0.09900
H 	H 	0.93130 0.53430 0.46170 -0.01800
H 	H 	0.97460 0.55910 0.45360 -0.02400
H 	H 	0.86990 0.67560 0.44570 0.11300
H 	H 	0.88410 0.67660 0.31050 0.06400
H 	H 	0.93130 0.60870 0.31740 -0.00500
H 	H 	0.94550 0.57090 0.38840 0.11000
H 	H 	0.41680 0.65490 0.77690 0.10600
H 	H 	0.48880 0.54000 0.73760 0.11500
H 	H 	0.55540 0.56680 0.73870 -0.00300
H 	H 	0.55290 0.63740 0.76060 0.07300
H 	H 	0.35580 0.62110 0.76490 -0.03700
H 	H 	0.37390 0.59960 0.81090 -0.03800
H 	H 	0.28700 0.58910 0.69890 0.28300
H 	H 	0.32880 0.60670 0.71150 0.28900
H 	H 	0.27910 0.62850 0.72860 0.27400
H 	H 	0.19370 0.50060 0.82250 0.33600
H 	H 	0.21350 0.48220 0.86820 0.34000
H 	H 	0.22590 0.45380 0.82750 0.32800
H 	H 	0.36610 0.50780 0.88500 0.30900
H 	H 	0.39220 0.53980 0.84640 0.31600
H 	H 	0.39610 0.48780 0.84320 0.31500
H 	H 	0.20410 0.49290 0.97880 0.10500
H 	H 	0.17980 0.44800 0.04290 -0.00600
H 	H 	0.20970 0.37180 0.05590 0.07000
H 	H 	0.29820 0.38890 0.94100 0.10400
H 	H 	0.19110 0.56150 0.78280 -0.03600
H 	H 	0.21810 0.58190 0.73660 -0.03300
H 	H 	0.13570 0.58130 0.74820 0.10300
H 	H 	0.04390 0.51200 0.72330 0.06400
H 	H 	0.10020 0.45190 0.71030 0.00100
H 	H 	0.17620 0.45430 0.71740 0.10200
H 	H 	0.29030 0.43390 0.87330 -0.03600
H 	H 	0.33020 0.45220 0.88890 -0.03800
H 	H 	0.86170 0.27230 0.67210 0.06800
H 	H 	0.91530 0.27720 0.60760 0.01100
H 	H 	0.57570 0.61800 0.21990 0.07100
H 	H 	0.51510 0.58020 0.21960 -0.00200
H 	H 	0.49620 0.56920 0.15140 0.10800
H 	H 	0.60130 0.62990 0.08340 0.10500
H 	H 	0.55810 0.63410 0.02250 -0.03900
H 	H 	0.59190 0.58860 0.03060 -0.04900
H 	H 	0.57530 0.48140 0.03110 0.32300
H 	H 	0.61700 0.49530 0.99560 0.32400
H 	H 	0.59830 0.52290 0.03620 0.31600
H 	H 	0.50440 0.68000 0.96070 0.29100
H 	H 	0.45770 0.66240 0.97970 0.30800
H 	H 	0.49430 0.65860 0.01200 0.31300
H 	H 	0.47470 0.51570 0.89490 0.30200
H 	H 	0.49080 0.55800 0.86200 0.30900
H 	H 	0.52510 0.51310 0.87020 0.31200
H 	H 	0.47070 0.62170 0.87390 -0.04300
H 	H 	0.45850 0.65460 0.91110 -0.04200
H 	H 	0.40320 0.68110 0.86460 0.10800
H 	H 	0.34560 0.57720 0.94030 0.09900
H 	H 	0.53430 0.46170 0.93130 -0.01800
H 	H 	0.55910 0.45360 0.97460 -0.02400
H 	H 	0.67560 0.44570 0.86990 0.11300
H 	H 	0.67660 0.31050 0.88410 0.06400
H 	H 	0.60870 0.31740 0.93130 -0.00500
H 	H 	0.57090 0.38840 0.94550 0.11000
H 	H 	0.65490 0.77690 0.41680 0.10600
H 	H 	0.54000 0.73760 0.48880 0.11500
H 	H 	0.56680 0.73870 0.55540 -0.00300
H 	H 	0.63740 0.76060 0.55290 0.07300
H 	H 	0.62110 0.76490 0.35580 -0.03700
H 	H 	0.59960 0.81090 0.37390 -0.03800
H 	H 	0.58910 0.69890 0.28700 0.28300
H 	H 	0.60670 0.71150 0.32880 0.28900
H 	H 	0.62850 0.72860 0.27910 0.27400
H 	H 	0.50060 0.82250 0.19370 0.33600
H 	H 	0.48220 0.86820 0.21350 0.34000
H 	H 	0.45380 0.82750 0.22590 0.32800
H 	H 	0.50780 0.88500 0.36610 0.30900
H 	H 	0.53980 0.84640 0.39220 0.31600
H 	H 	0.48780 0.84320 0.39610 0.31500
H 	H 	0.49290 0.97880 0.20410 0.10500
H 	H 	0.44800 0.04290 0.17980 -0.00600
H 	H 	0.37180 0.05590 0.20970 0.07000
H 	H 	0.38890 0.94100 0.29820 0.10400
H 	H 	0.56150 0.78280 0.19110 -0.03600
H 	H 	0.58190 0.73660 0.21810 -0.03300
H 	H 	0.58130 0.74820 0.13570 0.10300
H 	H 	0.51200 0.72330 0.04390 0.06400
H 	H 	0.45190 0.71030 0.10020 0.00100
H 	H 	0.45430 0.71740 0.17620 0.10200
H 	H 	0.43390 0.87330 0.29030 -0.03600
H 	H 	0.45220 0.88890 0.33020 -0.03800
H 	H 	0.27230 0.67210 0.86170 0.06800
H 	H 	0.27720 0.60760 0.91530 0.01100
H 	H 	0.61800 0.21990 0.57570 0.07100
H 	H 	0.58020 0.21960 0.51510 -0.00200
H 	H 	0.56920 0.15140 0.49620 0.10800
H 	H 	0.62990 0.08340 0.60130 0.10500
H 	H 	0.63410 0.02250 0.55810 -0.03900
H 	H 	0.58860 0.03060 0.59190 -0.04900
H 	H 	0.48140 0.03110 0.57530 0.32300
H 	H 	0.49530 0.99560 0.61700 0.32400
H 	H 	0.52290 0.03620 0.59830 0.31600
H 	H 	0.68000 0.96070 0.50440 0.29100
H 	H 	0.66240 0.97970 0.45770 0.30800
H 	H 	0.65860 0.01200 0.49430 0.31300
H 	H 	0.51570 0.89490 0.47470 0.30200
H 	H 	0.55800 0.86200 0.49080 0.30900
H 	H 	0.51310 0.87020 0.52510 0.31200
H 	H 	0.62170 0.87390 0.47070 -0.04300
H 	H 	0.65460 0.91110 0.45850 -0.04200
H 	H 	0.68110 0.86460 0.40320 0.10800
H 	H 	0.57720 0.94030 0.34560 0.09900
H 	H 	0.46170 0.93130 0.53430 -0.01800
H 	H 	0.45360 0.97460 0.55910 -0.02400
H 	H 	0.44570 0.86990 0.67560 0.11300
H 	H 	0.31050 0.88410 0.67660 0.06400
H 	H 	0.31740 0.93130 0.60870 -0.00500
H 	H 	0.38840 0.94550 0.57090 0.11000
H 	H 	0.77690 0.41680 0.65490 0.10600
H 	H 	0.73760 0.48880 0.54000 0.11500
H 	H 	0.73870 0.55540 0.56680 -0.00300
H 	H 	0.76060 0.55290 0.63740 0.07300
H 	H 	0.76490 0.35580 0.62110 -0.03700
H 	H 	0.81090 0.37390 0.59960 -0.03800
H 	H 	0.69890 0.28700 0.58910 0.28300
H 	H 	0.71150 0.32880 0.60670 0.28900
H 	H 	0.72860 0.27910 0.62850 0.27400
H 	H 	0.82250 0.19370 0.50060 0.33600
H 	H 	0.86820 0.21350 0.48220 0.34000
H 	H 	0.82750 0.22590 0.45380 0.32800
H 	H 	0.88500 0.36610 0.50780 0.30900
H 	H 	0.84640 0.39220 0.53980 0.31600
H 	H 	0.84320 0.39610 0.48780 0.31500
H 	H 	0.97880 0.20410 0.49290 0.10500
H 	H 	0.04290 0.17980 0.44800 -0.00600
H 	H 	0.05590 0.20970 0.37180 0.07000
H 	H 	0.94100 0.29820 0.38890 0.10400
H 	H 	0.78280 0.19110 0.56150 -0.03600
H 	H 	0.73660 0.21810 0.58190 -0.03300
H 	H 	0.74820 0.13570 0.58130 0.10300
H 	H 	0.72330 0.04390 0.51200 0.06400
H 	H 	0.71030 0.10020 0.45190 0.00100
H 	H 	0.71740 0.17620 0.45430 0.10200
H 	H 	0.87330 0.29030 0.43390 -0.03600
H 	H 	0.88890 0.33020 0.45220 -0.03800
H 	H 	0.67210 0.86170 0.27230 0.06800
H 	H 	0.60760 0.91530 0.27720 0.01100
H 	H 	0.07570 0.71990 0.11800 0.07200
H 	H 	0.01510 0.71960 0.08020 -0.00200
H 	H 	0.99620 0.65140 0.06920 0.10900
H 	H 	0.10130 0.58340 0.12990 0.10500
H 	H 	0.05810 0.52250 0.13410 -0.03900
H 	H 	0.09190 0.53060 0.08860 -0.04800
H 	H 	0.07530 0.53110 0.98140 0.32500
H 	H 	0.11700 0.49560 0.99530 0.32600
H 	H 	0.09830 0.53620 0.02290 0.31800
H 	H 	0.00440 0.46070 0.18000 0.28800
H 	H 	0.95770 0.47970 0.16240 0.30600
H 	H 	0.99430 0.51200 0.15860 0.31100
H 	H 	0.97470 0.39490 0.01570 0.30000
H 	H 	0.99080 0.36200 0.05800 0.30700
H 	H 	0.02510 0.37020 0.01310 0.30900
H 	H 	0.97070 0.37390 0.12170 -0.04200
H 	H 	0.95850 0.41110 0.15460 -0.04100
H 	H 	0.90320 0.36460 0.18110 0.10800
H 	H 	0.84560 0.44030 0.07720 0.09800
H 	H 	0.03430 0.43130 0.96170 -0.01800
H 	H 	0.05910 0.47460 0.95360 -0.02400
H 	H 	0.17560 0.36990 0.94570 0.11300
H 	H 	0.17660 0.38410 0.81050 0.06400
H 	H 	0.10870 0.43130 0.81740 -0.00500
H 	H 	0.07090 0.44550 0.88840 0.11000
H 	H 	0.15490 0.91680 0.27690 0.10500
H 	H 	0.04000 0.98880 0.23760 0.11500
H 	H 	0.06680 0.05540 0.23870 -0.00300
H 	H 	0.13740 0.05290 0.26060 0.07300
H 	H 	0.12110 0.85580 0.26490 -0.03700
H 	H 	0.09960 0.87390 0.31090 -0.03800
H 	H 	0.08910 0.78700 0.19890 0.28300
H 	H 	0.10670 0.82880 0.21150 0.28900
H 	H 	0.12850 0.77910 0.22860 0.27400
H 	H 	0.00060 0.69370 0.32250 0.33600
H 	H 	0.98220 0.71350 0.36820 0.34000
H 	H 	0.95380 0.72590 0.32750 0.32800
H 	H 	0.00780 0.86610 0.38500 0.30900
H 	H 	0.03980 0.89220 0.34640 0.31600
H 	H 	0.98780 0.89610 0.34320 0.31500
H 	H 	0.99290 0.70410 0.47880 0.10600
H 	H 	0.94800 0.67980 0.54290 -0.00600
H 	H 	0.87180 0.70970 0.55590 0.07100
H 	H 	0.88890 0.79820 0.44100 0.10400
H 	H 	0.06150 0.69110 0.28280 -0.03600
H 	H 	0.08190 0.71810 0.23660 -0.03300
H 	H 	0.08130 0.63570 0.24820 0.10300
H 	H 	0.01200 0.54390 0.22330 0.06400
H 	H 	0.95190 0.60020 0.21030 0.00100
H 	H 	0.95430 0.67620 0.21740 0.10200
H 	H 	0.93390 0.79030 0.37330 -0.03600
H 	H 	0.95220 0.83020 0.38890 -0.03800
H 	H 	0.77230 0.36170 0.17210 0.06800
H 	H 	0.77720 0.41530 0.10760 0.01100
H 	H 	0.11800 0.07570 0.71990 0.07200
H 	H 	0.08020 0.01510 0.71960 -0.00200
H 	H 	0.06920 0.99620 0.65140 0.10900
H 	H 	0.12990 0.10130 0.58340 0.10500
H 	H 	0.13410 0.05810 0.52250 -0.03900
H 	H 	0.08860 0.09190 0.53060 -0.04800
H 	H 	0.98140 0.07530 0.53110 0.32500
H 	H 	0.99530 0.11700 0.49560 0.32600
H 	H 	0.02290 0.09830 0.53620 0.31800
H 	H 	0.18000 0.00440 0.46070 0.28800
H 	H 	0.16240 0.95770 0.47970 0.30600
H 	H 	0.15860 0.99430 0.51200 0.31100
H 	H 	0.01570 0.97470 0.39490 0.30000
H 	H 	0.05800 0.99080 0.36200 0.30700
H 	H 	0.01310 0.02510 0.37020 0.30900
H 	H 	0.12170 0.97070 0.37390 -0.04200
H 	H 	0.15460 0.95850 0.41110 -0.04100
H 	H 	0.18110 0.90320 0.36460 0.10800
H 	H 	0.07720 0.84560 0.44030 0.09800
H 	H 	0.96170 0.03430 0.43130 -0.01800
H 	H 	0.95360 0.05910 0.47460 -0.02400
H 	H 	0.94570 0.17560 0.36990 0.11300
H 	H 	0.81050 0.17660 0.38410 0.06400
H 	H 	0.81740 0.10870 0.43130 -0.00500
H 	H 	0.88840 0.07090 0.44550 0.11000
H 	H 	0.27690 0.15490 0.91680 0.10500
H 	H 	0.23760 0.04000 0.98880 0.11500
H 	H 	0.23870 0.06680 0.05540 -0.00300
H 	H 	0.26060 0.13740 0.05290 0.07300
H 	H 	0.26490 0.12110 0.85580 -0.03700
H 	H 	0.31090 0.09960 0.87390 -0.03800
H 	H 	0.19890 0.08910 0.78700 0.28300
H 	H 	0.21150 0.10670 0.82880 0.28900
H 	H 	0.22860 0.12850 0.77910 0.27400
H 	H 	0.32250 0.00060 0.69370 0.33600
H 	H 	0.36820 0.98220 0.71350 0.34000
H 	H 	0.32750 0.95380 0.72590 0.32800
H 	H 	0.38500 0.00780 0.86610 0.30900
H 	H 	0.34640 0.03980 0.89220 0.31600
H 	H 	0.34320 0.98780 0.89610 0.31500
H 	H 	0.47880 0.99290 0.70410 0.10600
H 	H 	0.54290 0.94800 0.67980 -0.00600
H 	H 	0.55590 0.87180 0.70970 0.07100
H 	H 	0.44100 0.88890 0.79820 0.10400
H 	H 	0.28280 0.06150 0.69110 -0.03600
H 	H 	0.23660 0.08190 0.71810 -0.03300
H 	H 	0.24820 0.08130 0.63570 0.10300
H 	H 	0.22330 0.01200 0.54390 0.06400
H 	H 	0.21030 0.95190 0.60020 0.00100
H 	H 	0.21740 0.95430 0.67620 0.10200
H 	H 	0.37330 0.93390 0.79030 -0.03600
H 	H 	0.38890 0.95220 0.83020 -0.03800
H 	H 	0.17210 0.77230 0.36170 0.06800
H 	H 	0.10760 0.77720 0.41530 0.01100
H 	H 	0.71990 0.11800 0.07570 0.07200
H 	H 	0.71960 0.08020 0.01510 -0.00200
H 	H 	0.65140 0.06920 0.99620 0.10900
H 	H 	0.58340 0.12990 0.10130 0.10500
H 	H 	0.52250 0.13410 0.05810 -0.03900
H 	H 	0.53060 0.08860 0.09190 -0.04800
H 	H 	0.53110 0.98140 0.07530 0.32500
H 	H 	0.49560 0.99530 0.11700 0.32600
H 	H 	0.53620 0.02290 0.09830 0.31800
H 	H 	0.46070 0.18000 0.00440 0.28800
H 	H 	0.47970 0.16240 0.95770 0.30600
H 	H 	0.51200 0.15860 0.99430 0.31100
H 	H 	0.39490 0.01570 0.97470 0.30000
H 	H 	0.36200 0.05800 0.99080 0.30700
H 	H 	0.37020 0.01310 0.02510 0.30900
H 	H 	0.37390 0.12170 0.97070 -0.04200
H 	H 	0.41110 0.15460 0.95850 -0.04100
H 	H 	0.36460 0.18110 0.90320 0.10800
H 	H 	0.44030 0.07720 0.84560 0.09800
H 	H 	0.43130 0.96170 0.03430 -0.01800
H 	H 	0.47460 0.95360 0.05910 -0.02400
H 	H 	0.36990 0.94570 0.17560 0.11300
H 	H 	0.38410 0.81050 0.17660 0.06400
H 	H 	0.43130 0.81740 0.10870 -0.00500
H 	H 	0.44550 0.88840 0.07090 0.11000
H 	H 	0.91680 0.27690 0.15490 0.10500
H 	H 	0.98880 0.23760 0.04000 0.11500
H 	H 	0.05540 0.23870 0.06680 -0.00300
H 	H 	0.05290 0.26060 0.13740 0.07300
H 	H 	0.85580 0.26490 0.12110 -0.03700
H 	H 	0.87390 0.31090 0.09960 -0.03800
H 	H 	0.78700 0.19890 0.08910 0.28300
H 	H 	0.82880 0.21150 0.10670 0.28900
H 	H 	0.77910 0.22860 0.12850 0.27400
H 	H 	0.69370 0.32250 0.00060 0.33600
H 	H 	0.71350 0.36820 0.98220 0.34000
H 	H 	0.72590 0.32750 0.95380 0.32800
H 	H 	0.86610 0.38500 0.00780 0.30900
H 	H 	0.89220 0.34640 0.03980 0.31600
H 	H 	0.89610 0.34320 0.98780 0.31500
H 	H 	0.70410 0.47880 0.99290 0.10600
H 	H 	0.67980 0.54290 0.94800 -0.00600
H 	H 	0.70970 0.55590 0.87180 0.07100
H 	H 	0.79820 0.44100 0.88890 0.10400
H 	H 	0.69110 0.28280 0.06150 -0.03600
H 	H 	0.71810 0.23660 0.08190 -0.03300
H 	H 	0.63570 0.24820 0.08130 0.10300
H 	H 	0.54390 0.22330 0.01200 0.06400
H 	H 	0.60020 0.21030 0.95190 0.00100
H 	H 	0.67620 0.21740 0.95430 0.10200
H 	H 	0.79030 0.37330 0.93390 -0.03600
H 	H 	0.83020 0.38890 0.95220 -0.03800
H 	H 	0.36170 0.17210 0.77230 0.06800
H 	H 	0.41530 0.10760 0.77720 0.01100
H 	H 	0.78010 0.42430 0.38200 0.07100
H 	H 	0.78040 0.48490 0.41980 -0.00200
H 	H 	0.84860 0.50380 0.43080 0.10800
H 	H 	0.91660 0.39870 0.37010 0.10500
H 	H 	0.97750 0.44190 0.36590 -0.03900
H 	H 	0.96940 0.40810 0.41140 -0.04900
H 	H 	0.96890 0.42470 0.51860 0.32300
H 	H 	0.00440 0.38300 0.50470 0.32400
H 	H 	0.96380 0.40170 0.47710 0.31600
H 	H 	0.03930 0.49560 0.32000 0.29100
H 	H 	0.02030 0.54230 0.33760 0.30800
H 	H 	0.98800 0.50570 0.34140 0.31300
H 	H 	0.10510 0.52530 0.48430 0.30200
H 	H 	0.13800 0.50920 0.44200 0.30900
H 	H 	0.12980 0.47490 0.48690 0.31200
H 	H 	0.12610 0.52930 0.37830 -0.04300
H 	H 	0.08890 0.54150 0.34540 -0.04200
H 	H 	0.13540 0.59680 0.31890 0.10800
H 	H 	0.05970 0.65440 0.42280 0.09900
H 	H 	0.06870 0.46570 0.53830 -0.01800
H 	H 	0.02540 0.44090 0.54640 -0.02400
H 	H 	0.13010 0.32440 0.55430 0.11300
H 	H 	0.11590 0.32340 0.68950 0.06400
H 	H 	0.06870 0.39130 0.68260 -0.00500
H 	H 	0.05450 0.42910 0.61160 0.11000
H 	H 	0.58320 0.34510 0.22310 0.10600
H 	H 	0.51120 0.46000 0.26240 0.11500
H 	H 	0.44460 0.43320 0.26130 -0.00300
H 	H 	0.44710 0.36260 0.23940 0.07300
H 	H 	0.64420 0.37890 0.23510 -0.03700
H 	H 	0.62610 0.40040 0.18910 -0.03800
H 	H 	0.71300 0.41090 0.30110 0.28300
H 	H 	0.67120 0.39330 0.28850 0.28900
H 	H 	0.72090 0.37150 0.27140 0.27400
H 	H 	0.80630 0.49940 0.17750 0.33600
H 	H 	0.78650 0.51780 0.13180 0.34000
H 	H 	0.77410 0.54620 0.17250 0.32800
H 	H 	0.63390 0.49220 0.11500 0.30900
H 	H 	0.60780 0.46020 0.15360 0.31600
H 	H 	0.60390 0.51220 0.15680 0.31500
H 	H 	0.79590 0.50710 0.02120 0.10500
H 	H 	0.82020 0.55200 0.95710 -0.00600
H 	H 	0.79030 0.62820 0.94410 0.07000
H 	H 	0.70180 0.61110 0.05900 0.10400
H 	H 	0.80890 0.43850 0.21720 -0.03600
H 	H 	0.78190 0.41810 0.26340 -0.03300
H 	H 	0.86430 0.41870 0.25180 0.10300
H 	H 	0.95610 0.48800 0.27670 0.06400
H 	H 	0.89980 0.54810 0.28970 0.00100
H 	H 	0.82380 0.54570 0.28260 0.10200
H 	H 	0.70970 0.56610 0.12670 -0.03600
H 	H 	0.66980 0.54780 0.11110 -0.03800
H 	H 	0.13830 0.72770 0.32790 0.06800
H 	H 	0.08470 0.72280 0.39240 0.01100
H 	H 	0.42430 0.38200 0.78010 0.07100
H 	H 	0.48490 0.41980 0.78040 -0.00200
H 	H 	0.50380 0.43080 0.84860 0.10800
H 	H 	0.39870 0.37010 0.91660 0.10500
H 	H 	0.44190 0.36590 0.97750 -0.03900
H 	H 	0.40810 0.41140 0.96940 -0.04900
H 	H 	0.42470 0.51860 0.96890 0.32300
H 	H 	0.38300 0.50470 0.00440 0.32400
H 	H 	0.40170 0.47710 0.96380 0.31600
H 	H 	0.49560 0.32000 0.03930 0.29100
H 	H 	0.54230 0.33760 0.02030 0.30800
H 	H 	0.50570 0.34140 0.98800 0.31300
H 	H 	0.52530 0.48430 0.10510 0.30200
H 	H 	0.50920 0.44200 0.13800 0.30900
H 	H 	0.47490 0.48690 0.12980 0.31200
H 	H 	0.52930 0.37830 0.12610 -0.04300
H 	H 	0.54150 0.34540 0.08890 -0.04200
H 	H 	0.59680 0.31890 0.13540 0.10800
H 	H 	0.65440 0.42280 0.05970 0.09900
H 	H 	0.46570 0.53830 0.06870 -0.01800
H 	H 	0.44090 0.54640 0.02540 -0.02400
H 	H 	0.32440 0.55430 0.13010 0.11300
H 	H 	0.32340 0.68950 0.11590 0.06400
H 	H 	0.39130 0.68260 0.06870 -0.00500
H 	H 	0.42910 0.61160 0.05450 0.11000
H 	H 	0.34510 0.22310 0.58320 0.10600
H 	H 	0.46000 0.26240 0.51120 0.11500
H 	H 	0.43320 0.26130 0.44460 -0.00300
H 	H 	0.36260 0.23940 0.44710 0.07300
H 	H 	0.37890 0.23510 0.64420 -0.03700
H 	H 	0.40040 0.18910 0.62610 -0.03800
H 	H 	0.41090 0.30110 0.71300 0.28300
H 	H 	0.39330 0.28850 0.67120 0.28900
H 	H 	0.37150 0.27140 0.72090 0.27400
H 	H 	0.49940 0.17750 0.80630 0.33600
H 	H 	0.51780 0.13180 0.78650 0.34000
H 	H 	0.54620 0.17250 0.77410 0.32800
H 	H 	0.49220 0.11500 0.63390 0.30900
H 	H 	0.46020 0.15360 0.60780 0.31600
H 	H 	0.51220 0.15680 0.60390 0.31500
H 	H 	0.50710 0.02120 0.79590 0.10500
H 	H 	0.55200 0.95710 0.82020 -0.00600
H 	H 	0.62820 0.94410 0.79030 0.07000
H 	H 	0.61110 0.05900 0.70180 0.10400
H 	H 	0.43850 0.21720 0.80890 -0.03600
H 	H 	0.41810 0.26340 0.78190 -0.03300
H 	H 	0.41870 0.25180 0.86430 0.10300
H 	H 	0.48800 0.27670 0.95610 0.06400
H 	H 	0.54810 0.28970 0.89980 0.00100
H 	H 	0.54570 0.28260 0.82380 0.10200
H 	H 	0.56610 0.12670 0.70970 -0.03600
H 	H 	0.54780 0.11110 0.66980 -0.03800
H 	H 	0.72770 0.32790 0.13830 0.06800
H 	H 	0.72280 0.39240 0.08470 0.01100
H 	H 	0.38200 0.78010 0.42430 0.07100
H 	H 	0.41980 0.78040 0.48490 -0.00200
H 	H 	0.43080 0.84860 0.50380 0.10800
H 	H 	0.37010 0.91660 0.39870 0.10500
H 	H 	0.36590 0.97750 0.44190 -0.03900
H 	H 	0.41140 0.96940 0.40810 -0.04900
H 	H 	0.51860 0.96890 0.42470 0.32300
H 	H 	0.50470 0.00440 0.38300 0.32400
H 	H 	0.47710 0.96380 0.40170 0.31600
H 	H 	0.32000 0.03930 0.49560 0.29100
H 	H 	0.33760 0.02030 0.54230 0.30800
H 	H 	0.34140 0.98800 0.50570 0.31300
H 	H 	0.48430 0.10510 0.52530 0.30200
H 	H 	0.44200 0.13800 0.50920 0.30900
H 	H 	0.48690 0.12980 0.47490 0.31200
H 	H 	0.37830 0.12610 0.52930 -0.04300
H 	H 	0.34540 0.08890 0.54150 -0.04200
H 	H 	0.31890 0.13540 0.59680 0.10800
H 	H 	0.42280 0.05970 0.65440 0.09900
H 	H 	0.53830 0.06870 0.46570 -0.01800
H 	H 	0.54640 0.02540 0.44090 -0.02400
H 	H 	0.55430 0.13010 0.32440 0.11300
H 	H 	0.68950 0.11590 0.32340 0.06400
H 	H 	0.68260 0.06870 0.39130 -0.00500
H 	H 	0.61160 0.05450 0.42910 0.11000
H 	H 	0.22310 0.58320 0.34510 0.10600
H 	H 	0.26240 0.51120 0.46000 0.11500
H 	H 	0.26130 0.44460 0.43320 -0.00300
H 	H 	0.23940 0.44710 0.36260 0.07300
H 	H 	0.23510 0.64420 0.37890 -0.03700
H 	H 	0.18910 0.62610 0.40040 -0.03800
H 	H 	0.30110 0.71300 0.41090 0.28300
H 	H 	0.28850 0.67120 0.39330 0.28900
H 	H 	0.27140 0.72090 0.37150 0.27400
H 	H 	0.17750 0.80630 0.49940 0.33600
H 	H 	0.13180 0.78650 0.51780 0.34000
H 	H 	0.17250 0.77410 0.54620 0.32800
H 	H 	0.11500 0.63390 0.49220 0.30900
H 	H 	0.15360 0.60780 0.46020 0.31600
H 	H 	0.15680 0.60390 0.51220 0.31500
H 	H 	0.02120 0.79590 0.50710 0.10500
H 	H 	0.95710 0.82020 0.55200 -0.00600
H 	H 	0.94410 0.79030 0.62820 0.07000
H 	H 	0.05900 0.70180 0.61110 0.10400
H 	H 	0.21720 0.80890 0.43850 -0.03600
H 	H 	0.26340 0.78190 0.41810 -0.03300
H 	H 	0.25180 0.86430 0.41870 0.10300
H 	H 	0.27670 0.95610 0.48800 0.06400
H 	H 	0.28970 0.89980 0.54810 0.00100
H 	H 	0.28260 0.82380 0.54570 0.10200
H 	H 	0.12670 0.70970 0.56610 -0.03600
H 	H 	0.11110 0.66980 0.54780 -0.03800
H 	H 	0.32790 0.13830 0.72770 0.06800
H 	H 	0.39240 0.08470 0.72280 0.01100
C 	C 	0.90505 0.34768 0.87315 -0.00500
C 	C 	0.93121 0.30749 0.88736 -0.10500
C 	C 	0.96774 0.30761 0.90948 0.07300
C 	C 	0.97883 0.34841 0.91633 -0.22600
C 	C 	0.95303 0.38893 0.90179 0.22800
C 	C 	0.91602 0.38915 0.87999 -0.17900
C 	C 	0.86501 0.34851 0.84882 0.36800
C 	C 	0.98992 0.53085 0.88981 0.40300
C 	C 	0.00412 0.56661 0.90624 -0.34200
C 	C 	0.98655 0.57633 0.95054 0.41600
C 	C 	0.95742 0.54890 0.97845 -0.34300
C 	C 	0.93980 0.47039 0.89881 0.21700
C 	C 	0.90989 0.48507 0.99348 -0.97400
C 	C 	0.01026 0.51840 0.84289 -0.91400
C 	C 	0.00023 0.61580 0.96747 -0.92300
C 	C 	0.03839 0.59377 0.87688 0.20900
C 	C 	0.94220 0.51402 0.96195 0.43300
C 	C 	0.16337 0.64086 0.81584 -0.02700
C 	C 	0.12205 0.62554 0.83393 -0.17400
C 	C 	0.15654 0.58031 0.89609 -0.21700
C 	C 	0.16849 0.66761 0.76978 0.38100
C 	C 	0.94319 0.55474 0.02791 0.19000
C 	C 	0.88027 0.59091 0.07572 0.22800
C 	C 	0.83835 0.61825 0.08001 -0.17000
C 	C 	0.81715 0.62815 0.12245 -0.01400
C 	C 	0.83755 0.60942 0.16092 -0.11500
C 	C 	0.87825 0.58169 0.15662 0.07400
C 	C 	0.90078 0.57256 0.11427 -0.22300
C 	C 	0.77161 0.65825 0.12694 0.36800
C 	C 	0.80173 0.01618 0.71454 0.37700
C 	C 	0.84686 0.01471 0.72998 -0.00400
C 	C 	0.86293 0.05534 0.73034 -0.18200
C 	C 	0.90598 0.05349 0.74161 0.23300
C 	C 	0.93159 0.01212 0.75371 -0.22800
C 	C 	0.91566 0.97246 0.75326 0.07900
C 	C 	0.87322 0.97404 0.74060 -0.11200
C 	C 	0.11860 0.59591 0.87427 0.22900
C 	C 	0.90720 0.13195 0.71776 0.21200
C 	C 	0.94054 0.16690 0.70842 -0.33000
C 	C 	0.93426 0.20262 0.73499 0.39400
C 	C 	0.89929 0.20186 0.77792 -0.87500
C 	C 	0.95868 0.23955 0.72092 -0.33600
C 	C 	0.99184 0.24001 0.68211 0.43900
C 	C 	0.01598 0.28028 0.66438 -0.99000
C 	C 	0.97650 0.16450 0.67219 0.43000
C 	C 	0.98615 0.12389 0.64711 -0.95000
C 	C 	0.05405 0.24451 0.54589 0.23100
C 	C 	0.03701 0.28181 0.51531 -0.21900
C 	C 	0.06400 0.29670 0.47790 0.08600
C 	C 	0.10939 0.27809 0.46939 -0.09900
C 	C 	0.12610 0.24158 0.49882 -0.02400
C 	C 	0.09905 0.22534 0.53806 -0.17300
C 	C 	0.94519 0.28378 0.74106 0.20500
C 	C 	0.98138 0.33568 0.76619 0.22500
C 	C 	0.94517 0.37102 0.75971 -0.17800
C 	C 	0.98579 0.42609 0.77469 -0.11100
C 	C 	0.02209 0.39219 0.78189 0.06300
C 	C 	0.94732 0.41582 0.76469 0.00700
C 	C 	0.02091 0.34621 0.77781 -0.20100
C 	C 	0.00199 0.20035 0.65948 -0.34900
C 	C 	0.90605 0.45125 0.75745 0.30800
C 	C 	0.03938 0.20025 0.61916 0.21800
C 	C 	0.95747 0.50628 0.91716 -0.35400
C 	C 	0.20049 0.62671 0.83886 -0.08900
C 	C 	0.19727 0.59538 0.87806 0.06500
C 	C 	0.17310 0.21810 0.48850 0.39200
C 	C 	0.87315 0.90505 0.34768 -0.00500
C 	C 	0.88736 0.93121 0.30749 -0.10500
C 	C 	0.90948 0.96774 0.30761 0.07300
C 	C 	0.91633 0.97883 0.34841 -0.22600
C 	C 	0.90179 0.95303 0.38893 0.22800
C 	C 	0.87999 0.91602 0.38915 -0.17900
C 	C 	0.84882 0.86501 0.34851 0.36800
C 	C 	0.88981 0.98992 0.53085 0.40300
C 	C 	0.90624 0.00412 0.56661 -0.34200
C 	C 	0.95054 0.98655 0.57633 0.41600
C 	C 	0.97845 0.95742 0.54890 -0.34300
C 	C 	0.89881 0.93980 0.47039 0.21700
C 	C 	0.99348 0.90989 0.48507 -0.97400
C 	C 	0.84289 0.01026 0.51840 -0.91400
C 	C 	0.96747 0.00023 0.61580 -0.92300
C 	C 	0.87688 0.03839 0.59377 0.20900
C 	C 	0.96195 0.94220 0.51402 0.43300
C 	C 	0.81584 0.16337 0.64086 -0.02700
C 	C 	0.83393 0.12205 0.62554 -0.17400
C 	C 	0.89609 0.15654 0.58031 -0.21700
C 	C 	0.76978 0.16849 0.66761 0.38100
C 	C 	0.02791 0.94319 0.55474 0.19000
C 	C 	0.07572 0.88027 0.59091 0.22800
C 	C 	0.08001 0.83835 0.61825 -0.17000
C 	C 	0.12245 0.81715 0.62815 -0.01400
C 	C 	0.16092 0.83755 0.60942 -0.11500
C 	C 	0.15662 0.87825 0.58169 0.07400
C 	C 	0.11427 0.90078 0.57256 -0.22300
C 	C 	0.12694 0.77161 0.65825 0.36800
C 	C 	0.71454 0.80173 0.01618 0.37700
C 	C 	0.72998 0.84686 0.01471 -0.00400
C 	C 	0.73034 0.86293 0.05534 -0.18200
C 	C 	0.74161 0.90598 0.05349 0.23300
C 	C 	0.75371 0.93159 0.01212 -0.22800
C 	C 	0.75326 0.91566 0.97246 0.07900
C 	C 	0.74060 0.87322 0.97404 -0.11200
C 	C 	0.87427 0.11860 0.59591 0.22800
C 	C 	0.71776 0.90720 0.13195 0.21200
C 	C 	0.70842 0.94054 0.16690 -0.33000
C 	C 	0.73499 0.93426 0.20262 0.39400
C 	C 	0.77792 0.89929 0.20186 -0.87500
C 	C 	0.72092 0.95868 0.23955 -0.33600
C 	C 	0.68211 0.99184 0.24001 0.43900
C 	C 	0.66438 0.01598 0.28028 -0.99000
C 	C 	0.67219 0.97650 0.16450 0.43000
C 	C 	0.64711 0.98615 0.12389 -0.95000
C 	C 	0.54589 0.05405 0.24451 0.23100
C 	C 	0.51531 0.03701 0.28181 -0.21900
C 	C 	0.47790 0.06400 0.29670 0.08600
C 	C 	0.46939 0.10939 0.27809 -0.09900
C 	C 	0.49882 0.12610 0.24158 -0.02400
C 	C 	0.53806 0.09905 0.22534 -0.17300
C 	C 	0.74106 0.94519 0.28378 0.20500
C 	C 	0.76619 0.98138 0.33568 0.22500
C 	C 	0.75971 0.94517 0.37102 -0.17800
C 	C 	0.77469 0.98579 0.42609 -0.11100
C 	C 	0.78189 0.02209 0.39219 0.06300
C 	C 	0.76469 0.94732 0.41582 0.00700
C 	C 	0.77781 0.02091 0.34621 -0.20100
C 	C 	0.65948 0.00199 0.20035 -0.34900
C 	C 	0.75745 0.90605 0.45125 0.30800
C 	C 	0.61916 0.03938 0.20025 0.21800
C 	C 	0.91716 0.95747 0.50628 -0.35400
C 	C 	0.83886 0.20049 0.62671 -0.08900
C 	C 	0.87806 0.19727 0.59538 0.06500
C 	C 	0.48850 0.17310 0.21810 0.39200
C 	C 	0.34768 0.87315 0.90505 -0.00500
C 	C 	0.30749 0.88736 0.93121 -0.10500
C 	C 	0.30761 0.90948 0.96774 0.07300
C 	C 	0.34841 0.91633 0.97883 -0.22600
C 	C 	0.38893 0.90179 0.95303 0.22800
C 	C 	0.38915 0.87999 0.91602 -0.17900
C 	C 	0.34851 0.84882 0.86501 0.36800
C 	C 	0.53085 0.88981 0.98992 0.40300
C 	C 	0.56661 0.90624 0.00412 -0.34200
C 	C 	0.57633 0.95054 0.98655 0.41600
C 	C 	0.54890 0.97845 0.95742 -0.34300
C 	C 	0.47039 0.89881 0.93980 0.21700
C 	C 	0.48507 0.99348 0.90989 -0.97400
C 	C 	0.51840 0.84289 0.01026 -0.91400
C 	C 	0.61580 0.96747 0.00023 -0.92300
C 	C 	0.59377 0.87688 0.03839 0.20900
C 	C 	0.51402 0.96195 0.94220 0.43300
C 	C 	0.64086 0.81584 0.16337 -0.02700
C 	C 	0.62554 0.83393 0.12205 -0.17400
C 	C 	0.58031 0.89609 0.15654 -0.21700
C 	C 	0.66761 0.76978 0.16849 0.38100
C 	C 	0.55474 0.02791 0.94319 0.19000
C 	C 	0.59091 0.07572 0.88027 0.22800
C 	C 	0.61825 0.08001 0.83835 -0.17000
C 	C 	0.62815 0.12245 0.81715 -0.01400
C 	C 	0.60942 0.16092 0.83755 -0.11500
C 	C 	0.58169 0.15662 0.87825 0.07400
C 	C 	0.57256 0.11427 0.90078 -0.22300
C 	C 	0.65825 0.12694 0.77161 0.36800
C 	C 	0.01618 0.71454 0.80173 0.37700
C 	C 	0.01471 0.72998 0.84686 -0.00400
C 	C 	0.05534 0.73034 0.86293 -0.18200
C 	C 	0.05349 0.74161 0.90598 0.23300
C 	C 	0.01212 0.75371 0.93159 -0.22800
C 	C 	0.97246 0.75326 0.91566 0.07900
C 	C 	0.97404 0.74060 0.87322 -0.11200
C 	C 	0.59591 0.87427 0.11860 0.22900
C 	C 	0.13195 0.71776 0.90720 0.21200
C 	C 	0.16690 0.70842 0.94054 -0.33000
C 	C 	0.20262 0.73499 0.93426 0.39400
C 	C 	0.20186 0.77792 0.89929 -0.87500
C 	C 	0.23955 0.72092 0.95868 -0.33600
C 	C 	0.24001 0.68211 0.99184 0.43900
C 	C 	0.28028 0.66438 0.01598 -0.99000
C 	C 	0.16450 0.67219 0.97650 0.43000
C 	C 	0.12389 0.64711 0.98615 -0.95000
C 	C 	0.24451 0.54589 0.05405 0.23100
C 	C 	0.28181 0.51531 0.03701 -0.21900
C 	C 	0.29670 0.47790 0.06400 0.08600
C 	C 	0.27809 0.46939 0.10939 -0.09900
C 	C 	0.24158 0.49882 0.12610 -0.02400
C 	C 	0.22534 0.53806 0.09905 -0.17300
C 	C 	0.28378 0.74106 0.94519 0.20500
C 	C 	0.33568 0.76619 0.98138 0.22500
C 	C 	0.37102 0.75971 0.94517 -0.17800
C 	C 	0.42609 0.77469 0.98579 -0.11100
C 	C 	0.39219 0.78189 0.02209 0.06300
C 	C 	0.41582 0.76469 0.94732 0.00700
C 	C 	0.34621 0.77781 0.02091 -0.20000
C 	C 	0.20035 0.65948 0.00199 -0.34900
C 	C 	0.45125 0.75745 0.90605 0.30800
C 	C 	0.20025 0.61916 0.03938 0.21800
C 	C 	0.50628 0.91716 0.95747 -0.35400
C 	C 	0.62671 0.83886 0.20049 -0.08900
C 	C 	0.59538 0.87806 0.19727 0.06500
C 	C 	0.21810 0.48850 0.17310 0.39200
C 	C 	0.15232 0.59495 0.62685 -0.00500
C 	C 	0.19251 0.56879 0.61264 -0.10500
C 	C 	0.19239 0.53226 0.59052 0.07200
C 	C 	0.15159 0.52117 0.58367 -0.22400
C 	C 	0.11107 0.54697 0.59821 0.22800
C 	C 	0.11085 0.58398 0.62001 -0.17800
C 	C 	0.15149 0.63499 0.65118 0.36800
C 	C 	0.96915 0.51008 0.61019 0.40700
C 	C 	0.93339 0.49588 0.59376 -0.34600
C 	C 	0.92367 0.51345 0.54946 0.42100
C 	C 	0.95110 0.54258 0.52155 -0.34400
C 	C 	0.02961 0.56020 0.60119 0.21700
C 	C 	0.01493 0.59011 0.50652 -0.96900
C 	C 	0.98160 0.48974 0.65711 -0.92100
C 	C 	0.88420 0.49977 0.53253 -0.93200
C 	C 	0.90623 0.46161 0.62312 0.21200
C 	C 	0.98598 0.55780 0.53805 0.43300
C 	C 	0.85914 0.33663 0.68416 -0.02700
C 	C 	0.87446 0.37795 0.66607 -0.17400
C 	C 	0.91969 0.34346 0.60391 -0.21700
C 	C 	0.83239 0.33151 0.73022 0.38100
C 	C 	0.94526 0.55681 0.47209 0.19000
C 	C 	0.90909 0.61973 0.42428 0.22800
C 	C 	0.88175 0.66165 0.41999 -0.17000
C 	C 	0.87185 0.68285 0.37755 -0.01400
C 	C 	0.89058 0.66245 0.33908 -0.11500
C 	C 	0.91831 0.62175 0.34338 0.07400
C 	C 	0.92744 0.59922 0.38573 -0.22300
C 	C 	0.84175 0.72839 0.37306 0.36800
C 	C 	0.48382 0.69827 0.78546 0.37700
C 	C 	0.48529 0.65314 0.77002 -0.00500
C 	C 	0.44466 0.63707 0.76966 -0.18300
C 	C 	0.44651 0.59402 0.75839 0.23300
C 	C 	0.48788 0.56841 0.74629 -0.23000
C 	C 	0.52754 0.58434 0.74674 0.08100
C 	C 	0.52596 0.62678 0.75940 -0.11200
C 	C 	0.90409 0.38140 0.62573 0.22900
C 	C 	0.36805 0.59280 0.78224 0.21200
C 	C 	0.33310 0.55946 0.79158 -0.33000
C 	C 	0.29738 0.56574 0.76501 0.39400
C 	C 	0.29814 0.60071 0.72208 -0.87500
C 	C 	0.26045 0.54132 0.77908 -0.33600
C 	C 	0.25999 0.50816 0.81789 0.43800
C 	C 	0.21972 0.48402 0.83562 -0.99000
C 	C 	0.33550 0.52350 0.82781 0.43000
C 	C 	0.37611 0.51385 0.85289 -0.95100
C 	C 	0.25549 0.44595 0.95411 0.23000
C 	C 	0.21819 0.46299 0.98469 -0.21700
C 	C 	0.20330 0.43600 0.02210 0.08300
C 	C 	0.22191 0.39061 0.03061 -0.09700
C 	C 	0.25842 0.37390 0.00118 -0.02500
C 	C 	0.27466 0.40095 0.96194 -0.17100
C 	C 	0.21622 0.55481 0.75894 0.20500
C 	C 	0.16432 0.51862 0.73381 0.22500
C 	C 	0.12898 0.55483 0.74029 -0.17800
C 	C 	0.07391 0.51421 0.72531 -0.11000
C 	C 	0.10781 0.47791 0.71811 0.06300
C 	C 	0.08418 0.55268 0.73531 0.00700
C 	C 	0.15379 0.47909 0.72219 -0.20000
C 	C 	0.29965 0.49801 0.84052 -0.34800
C 	C 	0.04875 0.59395 0.74255 0.30800
C 	C 	0.29975 0.46062 0.88084 0.21800
C 	C 	0.99372 0.54253 0.58284 -0.35500
C 	C 	0.87329 0.29951 0.66114 -0.08900
C 	C 	0.90462 0.30273 0.62194 0.06500
C 	C 	0.28190 0.32690 0.01150 0.39200
C 	C 	0.59495 0.62685 0.15232 -0.00500
C 	C 	0.56879 0.61264 0.19251 -0.10500
C 	C 	0.53226 0.59052 0.19239 0.07200
C 	C 	0.52117 0.58367 0.15159 -0.22400
C 	C 	0.54697 0.59821 0.11107 0.22800
C 	C 	0.58398 0.62001 0.11085 -0.17800
C 	C 	0.63499 0.65118 0.15149 0.36800
C 	C 	0.51008 0.61019 0.96915 0.40700
C 	C 	0.49588 0.59376 0.93339 -0.34600
C 	C 	0.51345 0.54946 0.92367 0.42100
C 	C 	0.54258 0.52155 0.95110 -0.34400
C 	C 	0.56020 0.60119 0.02961 0.21700
C 	C 	0.59011 0.50652 0.01493 -0.96900
C 	C 	0.48974 0.65711 0.98160 -0.92100
C 	C 	0.49977 0.53253 0.88420 -0.93200
C 	C 	0.46161 0.62312 0.90623 0.21200
C 	C 	0.55780 0.53805 0.98598 0.43300
C 	C 	0.33663 0.68416 0.85914 -0.02700
C 	C 	0.37795 0.66607 0.87446 -0.17400
C 	C 	0.34346 0.60391 0.91969 -0.21700
C 	C 	0.33151 0.73022 0.83239 0.38100
C 	C 	0.55681 0.47209 0.94526 0.19000
C 	C 	0.61973 0.42428 0.90909 0.22800
C 	C 	0.66165 0.41999 0.88175 -0.17000
C 	C 	0.68285 0.37755 0.87185 -0.01400
C 	C 	0.66245 0.33908 0.89058 -0.11500
C 	C 	0.62175 0.34338 0.91831 0.07400
C 	C 	0.59922 0.38573 0.92744 -0.22300
C 	C 	0.72839 0.37306 0.84175 0.36800
C 	C 	0.69827 0.78546 0.48382 0.37700
C 	C 	0.65314 0.77002 0.48529 -0.00500
C 	C 	0.63707 0.76966 0.44466 -0.18300
C 	C 	0.59402 0.75839 0.44651 0.23300
C 	C 	0.56841 0.74629 0.48788 -0.23000
C 	C 	0.58434 0.74674 0.52754 0.08100
C 	C 	0.62678 0.75940 0.52596 -0.11200
C 	C 	0.38140 0.62573 0.90409 0.22900
C 	C 	0.59280 0.78224 0.36805 0.21200
C 	C 	0.55946 0.79158 0.33310 -0.33000
C 	C 	0.56574 0.76501 0.29738 0.39400
C 	C 	0.60071 0.72208 0.29814 -0.87500
C 	C 	0.54132 0.77908 0.26045 -0.33600
C 	C 	0.50816 0.81789 0.25999 0.43800
C 	C 	0.48402 0.83562 0.21972 -0.99000
C 	C 	0.52350 0.82781 0.33550 0.43000
C 	C 	0.51385 0.85289 0.37611 -0.95100
C 	C 	0.44595 0.95411 0.25549 0.23000
C 	C 	0.46299 0.98469 0.21819 -0.21700
C 	C 	0.43600 0.02210 0.20330 0.08300
C 	C 	0.39061 0.03061 0.22191 -0.09700
C 	C 	0.37390 0.00118 0.25842 -0.02500
C 	C 	0.40095 0.96194 0.27466 -0.17100
C 	C 	0.55481 0.75894 0.21622 0.20500
C 	C 	0.51862 0.73381 0.16432 0.22500
C 	C 	0.55483 0.74029 0.12898 -0.17800
C 	C 	0.51421 0.72531 0.07391 -0.11000
C 	C 	0.47791 0.71811 0.10781 0.06300
C 	C 	0.55268 0.73531 0.08418 0.00700
C 	C 	0.47909 0.72219 0.15379 -0.20000
C 	C 	0.49801 0.84052 0.29965 -0.34800
C 	C 	0.59395 0.74255 0.04875 0.30800
C 	C 	0.46062 0.88084 0.29975 0.21800
C 	C 	0.54253 0.58284 0.99372 -0.35500
C 	C 	0.29951 0.66114 0.87329 -0.08900
C 	C 	0.30273 0.62194 0.90462 0.06500
C 	C 	0.32690 0.01150 0.28190 0.39200
C 	C 	0.62685 0.15232 0.59495 -0.00500
C 	C 	0.61264 0.19251 0.56879 -0.10500
C 	C 	0.59052 0.19239 0.53226 0.07200
C 	C 	0.58367 0.15159 0.52117 -0.22400
C 	C 	0.59821 0.11107 0.54697 0.22800
C 	C 	0.62001 0.11085 0.58398 -0.17800
C 	C 	0.65118 0.15149 0.63499 0.36800
C 	C 	0.61019 0.96915 0.51008 0.40700
C 	C 	0.59376 0.93339 0.49588 -0.34600
C 	C 	0.54946 0.92367 0.51345 0.42100
C 	C 	0.52155 0.95110 0.54258 -0.34400
C 	C 	0.60119 0.02961 0.56020 0.21700
C 	C 	0.50652 0.01493 0.59011 -0.96900
C 	C 	0.65711 0.98160 0.48974 -0.92100
C 	C 	0.53253 0.88420 0.49977 -0.93200
C 	C 	0.62312 0.90623 0.46161 0.21200
C 	C 	0.53805 0.98598 0.55780 0.43300
C 	C 	0.68416 0.85914 0.33663 -0.02700
C 	C 	0.66607 0.87446 0.37795 -0.17400
C 	C 	0.60391 0.91969 0.34346 -0.21700
C 	C 	0.73022 0.83239 0.33151 0.38100
C 	C 	0.47209 0.94526 0.55681 0.19000
C 	C 	0.42428 0.90909 0.61973 0.22800
C 	C 	0.41999 0.88175 0.66165 -0.17000
C 	C 	0.37755 0.87185 0.68285 -0.01400
C 	C 	0.33908 0.89058 0.66245 -0.11500
C 	C 	0.34338 0.91831 0.62175 0.07400
C 	C 	0.38573 0.92744 0.59922 -0.22300
C 	C 	0.37306 0.84175 0.72839 0.36800
C 	C 	0.78546 0.48382 0.69827 0.37700
C 	C 	0.77002 0.48529 0.65314 -0.00500
C 	C 	0.76966 0.44466 0.63707 -0.18300
C 	C 	0.75839 0.44651 0.59402 0.23300
C 	C 	0.74629 0.48788 0.56841 -0.23000
C 	C 	0.74674 0.52754 0.58434 0.08100
C 	C 	0.75940 0.52596 0.62678 -0.11200
C 	C 	0.62573 0.90409 0.38140 0.22900
C 	C 	0.78224 0.36805 0.59280 0.21200
C 	C 	0.79158 0.33310 0.55946 -0.33000
C 	C 	0.76501 0.29738 0.56574 0.39400
C 	C 	0.72208 0.29814 0.60071 -0.87500
C 	C 	0.77908 0.26045 0.54132 -0.33600
C 	C 	0.81789 0.25999 0.50816 0.43800
C 	C 	0.83562 0.21972 0.48402 -0.99000
C 	C 	0.82781 0.33550 0.52350 0.43000
C 	C 	0.85289 0.37611 0.51385 -0.95100
C 	C 	0.95411 0.25549 0.44595 0.23000
C 	C 	0.98469 0.21819 0.46299 -0.21700
C 	C 	0.02210 0.20330 0.43600 0.08300
C 	C 	0.03061 0.22191 0.39061 -0.09700
C 	C 	0.00118 0.25842 0.37390 -0.02500
C 	C 	0.96194 0.27466 0.40095 -0.17100
C 	C 	0.75894 0.21622 0.55481 0.20500
C 	C 	0.73381 0.16432 0.51862 0.22500
C 	C 	0.74029 0.12898 0.55483 -0.17800
C 	C 	0.72531 0.07391 0.51421 -0.11000
C 	C 	0.71811 0.10781 0.47791 0.06300
C 	C 	0.73531 0.08418 0.55268 0.00700
C 	C 	0.72219 0.15379 0.47909 -0.20000
C 	C 	0.84052 0.29965 0.49801 -0.34800
C 	C 	0.74255 0.04875 0.59395 0.30800
C 	C 	0.88084 0.29975 0.46062 0.21800
C 	C 	0.58284 0.99372 0.54253 -0.35500
C 	C 	0.66114 0.87329 0.29951 -0.08900
C 	C 	0.62194 0.90462 0.30273 0.06500
C 	C 	0.01150 0.28190 0.32690 0.39200
C 	C 	0.09495 0.65232 0.12685 -0.00500
C 	C 	0.06879 0.69251 0.11264 -0.10500
C 	C 	0.03226 0.69239 0.09052 0.07300
C 	C 	0.02117 0.65159 0.08367 -0.22600
C 	C 	0.04697 0.61107 0.09821 0.22800
C 	C 	0.08398 0.61085 0.12001 -0.17900
C 	C 	0.13499 0.65149 0.15118 0.36800
C 	C 	0.01008 0.46915 0.11019 0.40300
C 	C 	0.99588 0.43339 0.09376 -0.34200
C 	C 	0.01345 0.42367 0.04946 0.41600
C 	C 	0.04258 0.45110 0.02155 -0.34300
C 	C 	0.06020 0.52961 0.10119 0.21700
C 	C 	0.09011 0.51493 0.00652 -0.97400
C 	C 	0.98974 0.48160 0.15711 -0.91400
C 	C 	0.99977 0.38420 0.03253 -0.92300
C 	C 	0.96161 0.40623 0.12312 0.20900
C 	C 	0.05780 0.48598 0.03805 0.43300
C 	C 	0.83663 0.35914 0.18416 -0.02700
C 	C 	0.87795 0.37446 0.16607 -0.17400
C 	C 	0.84346 0.41969 0.10391 -0.21700
C 	C 	0.83151 0.33239 0.23022 0.38100
C 	C 	0.05681 0.44526 0.97209 0.19000
C 	C 	0.11973 0.40909 0.92428 0.22800
C 	C 	0.16165 0.38175 0.91999 -0.17000
C 	C 	0.18285 0.37185 0.87755 -0.01400
C 	C 	0.16245 0.39058 0.83908 -0.11500
C 	C 	0.12175 0.41831 0.84338 0.07400
C 	C 	0.09922 0.42744 0.88573 -0.22300
C 	C 	0.22839 0.34175 0.87306 0.36800
C 	C 	0.19827 0.98382 0.28546 0.37700
C 	C 	0.15314 0.98529 0.27002 -0.00400
C 	C 	0.13707 0.94466 0.26966 -0.18200
C 	C 	0.09402 0.94651 0.25839 0.23300
C 	C 	0.06841 0.98788 0.24629 -0.22800
C 	C 	0.08434 0.02754 0.24674 0.07900
C 	C 	0.12678 0.02596 0.25940 -0.11200
C 	C 	0.88140 0.40409 0.12573 0.22900
C 	C 	0.09280 0.86805 0.28224 0.21200
C 	C 	0.05946 0.83310 0.29158 -0.33000
C 	C 	0.06574 0.79738 0.26501 0.39400
C 	C 	0.10071 0.79814 0.22208 -0.87500
C 	C 	0.04132 0.76045 0.27908 -0.33600
C 	C 	0.00816 0.75999 0.31789 0.43900
C 	C 	0.98402 0.71972 0.33562 -0.99000
C 	C 	0.02350 0.83550 0.32781 0.43000
C 	C 	0.01385 0.87611 0.35289 -0.95000
C 	C 	0.94595 0.75549 0.45411 0.23100
C 	C 	0.96299 0.71819 0.48469 -0.21900
C 	C 	0.93600 0.70330 0.52210 0.08600
C 	C 	0.89061 0.72191 0.53061 -0.09900
C 	C 	0.87390 0.75842 0.50118 -0.02400
C 	C 	0.90095 0.77466 0.46194 -0.17300
C 	C 	0.05481 0.71622 0.25894 0.20500
C 	C 	0.01862 0.66432 0.23381 0.22500
C 	C 	0.05483 0.62898 0.24029 -0.17800
C 	C 	0.01421 0.57391 0.22531 -0.11100
C 	C 	0.97791 0.60781 0.21811 0.06300
C 	C 	0.05268 0.58418 0.23531 0.00700
C 	C 	0.97909 0.65379 0.22219 -0.20100
C 	C 	0.99801 0.79965 0.34052 -0.34900
C 	C 	0.09395 0.54875 0.24255 0.30800
C 	C 	0.96062 0.79975 0.38084 0.21800
C 	C 	0.04253 0.49372 0.08284 -0.35400
C 	C 	0.79951 0.37329 0.16114 -0.08900
C 	C 	0.80273 0.40462 0.12194 0.06500
C 	C 	0.82690 0.78190 0.51150 0.39200
C 	C 	0.12685 0.09495 0.65232 -0.00500
C 	C 	0.11264 0.06879 0.69251 -0.10500
C 	C 	0.09052 0.03226 0.69239 0.07300
C 	C 	0.08367 0.02117 0.65159 -0.22600
C 	C 	0.09821 0.04697 0.61107 0.22800
C 	C 	0.12001 0.08398 0.61085 -0.17900
C 	C 	0.15118 0.13499 0.65149 0.36800
C 	C 	0.11019 0.01008 0.46915 0.40300
C 	C 	0.09376 0.99588 0.43339 -0.34200
C 	C 	0.04946 0.01345 0.42367 0.41600
C 	C 	0.02155 0.04258 0.45110 -0.34300
C 	C 	0.10119 0.06020 0.52961 0.21700
C 	C 	0.00652 0.09011 0.51493 -0.97400
C 	C 	0.15711 0.98974 0.48160 -0.91400
C 	C 	0.03253 0.99977 0.38420 -0.92300
C 	C 	0.12312 0.96161 0.40623 0.20900
C 	C 	0.03805 0.05780 0.48598 0.43300
C 	C 	0.18416 0.83663 0.35914 -0.02700
C 	C 	0.16607 0.87795 0.37446 -0.17400
C 	C 	0.10391 0.84346 0.41969 -0.21700
C 	C 	0.23022 0.83151 0.33239 0.38100
C 	C 	0.97209 0.05681 0.44526 0.19000
C 	C 	0.92428 0.11973 0.40909 0.22800
C 	C 	0.91999 0.16165 0.38175 -0.17000
C 	C 	0.87755 0.18285 0.37185 -0.01400
C 	C 	0.83908 0.16245 0.39058 -0.11500
C 	C 	0.84338 0.12175 0.41831 0.07400
C 	C 	0.88573 0.09922 0.42744 -0.22300
C 	C 	0.87306 0.22839 0.34175 0.36800
C 	C 	0.28546 0.19827 0.98382 0.37700
C 	C 	0.27002 0.15314 0.98529 -0.00400
C 	C 	0.26966 0.13707 0.94466 -0.18200
C 	C 	0.25839 0.09402 0.94651 0.23300
C 	C 	0.24629 0.06841 0.98788 -0.22800
C 	C 	0.24674 0.08434 0.02754 0.07900
C 	C 	0.25940 0.12678 0.02596 -0.11200
C 	C 	0.12573 0.88140 0.40409 0.22900
C 	C 	0.28224 0.09280 0.86805 0.21200
C 	C 	0.29158 0.05946 0.83310 -0.33000
C 	C 	0.26501 0.06574 0.79738 0.39400
C 	C 	0.22208 0.10071 0.79814 -0.87500
C 	C 	0.27908 0.04132 0.76045 -0.33600
C 	C 	0.31789 0.00816 0.75999 0.43900
C 	C 	0.33562 0.98402 0.71972 -0.99000
C 	C 	0.32781 0.02350 0.83550 0.43000
C 	C 	0.35289 0.01385 0.87611 -0.95000
C 	C 	0.45411 0.94595 0.75549 0.23100
C 	C 	0.48469 0.96299 0.71819 -0.21900
C 	C 	0.52210 0.93600 0.70330 0.08600
C 	C 	0.53061 0.89061 0.72191 -0.09900
C 	C 	0.50118 0.87390 0.75842 -0.02400
C 	C 	0.46194 0.90095 0.77466 -0.17300
C 	C 	0.25894 0.05481 0.71622 0.20500
C 	C 	0.23381 0.01862 0.66432 0.22500
C 	C 	0.24029 0.05483 0.62898 -0.17800
C 	C 	0.22531 0.01421 0.57391 -0.11100
C 	C 	0.21811 0.97791 0.60781 0.06300
C 	C 	0.23531 0.05268 0.58418 0.00700
C 	C 	0.22219 0.97909 0.65379 -0.20100
C 	C 	0.34052 0.99801 0.79965 -0.34900
C 	C 	0.24255 0.09395 0.54875 0.30800
C 	C 	0.38084 0.96062 0.79975 0.21800
C 	C 	0.08284 0.04253 0.49372 -0.35400
C 	C 	0.16114 0.79951 0.37329 -0.08900
C 	C 	0.12194 0.80273 0.40462 0.06500
C 	C 	0.51150 0.82690 0.78190 0.39200
C 	C 	0.65232 0.12685 0.09495 -0.00500
C 	C 	0.69251 0.11264 0.06879 -0.10500
C 	C 	0.69239 0.09052 0.03226 0.07300
C 	C 	0.65159 0.08367 0.02117 -0.22600
C 	C 	0.61107 0.09821 0.04697 0.22800
C 	C 	0.61085 0.12001 0.08398 -0.17900
C 	C 	0.65149 0.15118 0.13499 0.36800
C 	C 	0.46915 0.11019 0.01008 0.40300
C 	C 	0.43339 0.09376 0.99588 -0.34200
C 	C 	0.42367 0.04946 0.01345 0.41600
C 	C 	0.45110 0.02155 0.04258 -0.34300
C 	C 	0.52961 0.10119 0.06020 0.21700
C 	C 	0.51493 0.00652 0.09011 -0.97400
C 	C 	0.48160 0.15711 0.98974 -0.91400
C 	C 	0.38420 0.03253 0.99977 -0.92300
C 	C 	0.40623 0.12312 0.96161 0.20900
C 	C 	0.48598 0.03805 0.05780 0.43300
C 	C 	0.35914 0.18416 0.83663 -0.02700
C 	C 	0.37446 0.16607 0.87795 -0.17400
C 	C 	0.41969 0.10391 0.84346 -0.21700
C 	C 	0.33239 0.23022 0.83151 0.38100
C 	C 	0.44526 0.97209 0.05681 0.19000
C 	C 	0.40909 0.92428 0.11973 0.22800
C 	C 	0.38175 0.91999 0.16165 -0.17000
C 	C 	0.37185 0.87755 0.18285 -0.01400
C 	C 	0.39058 0.83908 0.16245 -0.11500
C 	C 	0.41831 0.84338 0.12175 0.07400
C 	C 	0.42744 0.88573 0.09922 -0.22300
C 	C 	0.34175 0.87306 0.22839 0.36800
C 	C 	0.98382 0.28546 0.19827 0.37700
C 	C 	0.98529 0.27002 0.15314 -0.00400
C 	C 	0.94466 0.26966 0.13707 -0.18200
C 	C 	0.94651 0.25839 0.09402 0.23300
C 	C 	0.98788 0.24629 0.06841 -0.22800
C 	C 	0.02754 0.24674 0.08434 0.07900
C 	C 	0.02596 0.25940 0.12678 -0.11200
C 	C 	0.40409 0.12573 0.88140 0.22900
C 	C 	0.86805 0.28224 0.09280 0.21200
C 	C 	0.83310 0.29158 0.05946 -0.33000
C 	C 	0.79738 0.26501 0.06574 0.39400
C 	C 	0.79814 0.22208 0.10071 -0.87500
C 	C 	0.76045 0.27908 0.04132 -0.33600
C 	C 	0.75999 0.31789 0.00816 0.43900
C 	C 	0.71972 0.33562 0.98402 -0.99000
C 	C 	0.83550 0.32781 0.02350 0.43000
C 	C 	0.87611 0.35289 0.01385 -0.95000
C 	C 	0.75549 0.45411 0.94595 0.23100
C 	C 	0.71819 0.48469 0.96299 -0.21900
C 	C 	0.70330 0.52210 0.93600 0.08600
C 	C 	0.72191 0.53061 0.89061 -0.09900
C 	C 	0.75842 0.50118 0.87390 -0.02400
C 	C 	0.77466 0.46194 0.90095 -0.17300
C 	C 	0.71622 0.25894 0.05481 0.20500
C 	C 	0.66432 0.23381 0.01862 0.22500
C 	C 	0.62898 0.24029 0.05483 -0.17800
C 	C 	0.57391 0.22531 0.01421 -0.11100
C 	C 	0.60781 0.21811 0.97791 0.06300
C 	C 	0.58418 0.23531 0.05268 0.00700
C 	C 	0.65379 0.22219 0.97909 -0.20100
C 	C 	0.79965 0.34052 0.99801 -0.34900
C 	C 	0.54875 0.24255 0.09395 0.30800
C 	C 	0.79975 0.38084 0.96062 0.21800
C 	C 	0.49372 0.08284 0.04253 -0.35400
C 	C 	0.37329 0.16114 0.79951 -0.08900
C 	C 	0.40462 0.12194 0.80273 0.06500
C 	C 	0.78190 0.51150 0.82690 0.39200
C 	C 	0.84768 0.40505 0.37315 -0.00500
C 	C 	0.80749 0.43121 0.38736 -0.10500
C 	C 	0.80761 0.46774 0.40948 0.07200
C 	C 	0.84841 0.47883 0.41633 -0.22400
C 	C 	0.88893 0.45303 0.40179 0.22800
C 	C 	0.88915 0.41602 0.37999 -0.17800
C 	C 	0.84851 0.36501 0.34882 0.36800
C 	C 	0.03085 0.48992 0.38981 0.40700
C 	C 	0.06661 0.50412 0.40624 -0.34600
C 	C 	0.07633 0.48655 0.45054 0.42100
C 	C 	0.04890 0.45742 0.47845 -0.34400
C 	C 	0.97039 0.43980 0.39881 0.21700
C 	C 	0.98507 0.40989 0.49348 -0.96900
C 	C 	0.01840 0.51026 0.34289 -0.92100
C 	C 	0.11580 0.50023 0.46747 -0.93200
C 	C 	0.09377 0.53839 0.37688 0.21200
C 	C 	0.01402 0.44220 0.46195 0.43300
C 	C 	0.14086 0.66337 0.31584 -0.02700
C 	C 	0.12554 0.62205 0.33393 -0.17400
C 	C 	0.08031 0.65654 0.39609 -0.21700
C 	C 	0.16761 0.66849 0.26978 0.38100
C 	C 	0.05474 0.44319 0.52791 0.19000
C 	C 	0.09091 0.38027 0.57572 0.22800
C 	C 	0.11825 0.33835 0.58001 -0.17000
C 	C 	0.12815 0.31715 0.62245 -0.01400
C 	C 	0.10942 0.33755 0.66092 -0.11500
C 	C 	0.08169 0.37825 0.65662 0.07400
C 	C 	0.07256 0.40078 0.61427 -0.22300
C 	C 	0.15825 0.27161 0.62694 0.36800
C 	C 	0.51618 0.30173 0.21454 0.37700
C 	C 	0.51471 0.34686 0.22998 -0.00500
C 	C 	0.55534 0.36293 0.23034 -0.18300
C 	C 	0.55349 0.40598 0.24161 0.23300
C 	C 	0.51212 0.43159 0.25371 -0.23000
C 	C 	0.47246 0.41566 0.25326 0.08100
C 	C 	0.47404 0.37322 0.24060 -0.11200
C 	C 	0.09591 0.61860 0.37427 0.22900
C 	C 	0.63195 0.40720 0.21776 0.21200
C 	C 	0.66690 0.44054 0.20842 -0.33000
C 	C 	0.70262 0.43426 0.23499 0.39400
C 	C 	0.70186 0.39929 0.27792 -0.87500
C 	C 	0.73955 0.45868 0.22092 -0.33600
C 	C 	0.74001 0.49184 0.18211 0.43800
C 	C 	0.78028 0.51598 0.16438 -0.99000
C 	C 	0.66450 0.47650 0.17219 0.43000
C 	C 	0.62389 0.48615 0.14711 -0.95100
C 	C 	0.74451 0.55405 0.04589 0.23000
C 	C 	0.78181 0.53701 0.01531 -0.21700
C 	C 	0.79670 0.56400 0.97790 0.08300
C 	C 	0.77809 0.60939 0.96939 -0.09700
C 	C 	0.74158 0.62610 0.99882 -0.02500
C 	C 	0.72534 0.59905 0.03806 -0.17100
C 	C 	0.78378 0.44519 0.24106 0.20500
C 	C 	0.83568 0.48138 0.26619 0.22500
C 	C 	0.87102 0.44517 0.25971 -0.17800
C 	C 	0.92609 0.48579 0.27469 -0.11000
C 	C 	0.89219 0.52209 0.28189 0.06300
C 	C 	0.91582 0.44732 0.26469 0.00700
C 	C 	0.84621 0.52091 0.27781 -0.20000
C 	C 	0.70035 0.50199 0.15948 -0.34800
C 	C 	0.95125 0.40605 0.25745 0.30800
C 	C 	0.70025 0.53938 0.11916 0.21800
C 	C 	0.00628 0.45747 0.41716 -0.35500
C 	C 	0.12671 0.70049 0.33886 -0.08900
C 	C 	0.09538 0.69727 0.37806 0.06500
C 	C 	0.71810 0.67310 0.98850 0.39200
C 	C 	0.40505 0.37315 0.84768 -0.00500
C 	C 	0.43121 0.38736 0.80749 -0.10500
C 	C 	0.46774 0.40948 0.80761 0.07200
C 	C 	0.47883 0.41633 0.84841 -0.22400
C 	C 	0.45303 0.40179 0.88893 0.22800
C 	C 	0.41602 0.37999 0.88915 -0.17800
C 	C 	0.36501 0.34882 0.84851 0.36800
C 	C 	0.48992 0.38981 0.03085 0.40700
C 	C 	0.50412 0.40624 0.06661 -0.34600
C 	C 	0.48655 0.45054 0.07633 0.42100
C 	C 	0.45742 0.47845 0.04890 -0.34400
C 	C 	0.43980 0.39881 0.97039 0.21700
C 	C 	0.40989 0.49348 0.98507 -0.96900
C 	C 	0.51026 0.34289 0.01840 -0.92100
C 	C 	0.50023 0.46747 0.11580 -0.93200
C 	C 	0.53839 0.37688 0.09377 0.21200
C 	C 	0.44220 0.46195 0.01402 0.43300
C 	C 	0.66337 0.31584 0.14086 -0.02700
C 	C 	0.62205 0.33393 0.12554 -0.17400
C 	C 	0.65654 0.39609 0.08031 -0.21700
C 	C 	0.66849 0.26978 0.16761 0.38100
C 	C 	0.44319 0.52791 0.05474 0.19000
C 	C 	0.38027 0.57572 0.09091 0.22800
C 	C 	0.33835 0.58001 0.11825 -0.17000
C 	C 	0.31715 0.62245 0.12815 -0.01400
C 	C 	0.33755 0.66092 0.10942 -0.11500
C 	C 	0.37825 0.65662 0.08169 0.07400
C 	C 	0.40078 0.61427 0.07256 -0.22300
C 	C 	0.27161 0.62694 0.15825 0.36800
C 	C 	0.30173 0.21454 0.51618 0.37700
C 	C 	0.34686 0.22998 0.51471 -0.00500
C 	C 	0.36293 0.23034 0.55534 -0.18300
C 	C 	0.40598 0.24161 0.55349 0.23300
C 	C 	0.43159 0.25371 0.51212 -0.23000
C 	C 	0.41566 0.25326 0.47246 0.08100
C 	C 	0.37322 0.24060 0.47404 -0.11200
C 	C 	0.61860 0.37427 0.09591 0.22900
C 	C 	0.40720 0.21776 0.63195 0.21200
C 	C 	0.44054 0.20842 0.66690 -0.33000
C 	C 	0.43426 0.23499 0.70262 0.39400
C 	C 	0.39929 0.27792 0.70186 -0.87500
C 	C 	0.45868 0.22092 0.73955 -0.33600
C 	C 	0.49184 0.18211 0.74001 0.43800
C 	C 	0.51598 0.16438 0.78028 -0.99000
C 	C 	0.47650 0.17219 0.66450 0.43000
C 	C 	0.48615 0.14711 0.62389 -0.95100
C 	C 	0.55405 0.04589 0.74451 0.23000
C 	C 	0.53701 0.01531 0.78181 -0.21700
C 	C 	0.56400 0.97790 0.79670 0.08300
C 	C 	0.60939 0.96939 0.77809 -0.09700
C 	C 	0.62610 0.99882 0.74158 -0.02500
C 	C 	0.59905 0.03806 0.72534 -0.17100
C 	C 	0.44519 0.24106 0.78378 0.20500
C 	C 	0.48138 0.26619 0.83568 0.22500
C 	C 	0.44517 0.25971 0.87102 -0.17800
C 	C 	0.48579 0.27469 0.92609 -0.11000
C 	C 	0.52209 0.28189 0.89219 0.06300
C 	C 	0.44732 0.26469 0.91582 0.00700
C 	C 	0.52091 0.27781 0.84621 -0.20000
C 	C 	0.50199 0.15948 0.70035 -0.34800
C 	C 	0.40605 0.25745 0.95125 0.30800
C 	C 	0.53938 0.11916 0.70025 0.21800
C 	C 	0.45747 0.41716 0.00628 -0.35500
C 	C 	0.70049 0.33886 0.12671 -0.08900
C 	C 	0.69727 0.37806 0.09538 0.06500
C 	C 	0.67310 0.98850 0.71810 0.39200
C 	C 	0.37315 0.84768 0.40505 -0.00500
C 	C 	0.38736 0.80749 0.43121 -0.10500
C 	C 	0.40948 0.80761 0.46774 0.07200
C 	C 	0.41633 0.84841 0.47883 -0.22400
C 	C 	0.40179 0.88893 0.45303 0.22800
C 	C 	0.37999 0.88915 0.41602 -0.17800
C 	C 	0.34882 0.84851 0.36501 0.36800
C 	C 	0.38981 0.03085 0.48992 0.40700
C 	C 	0.40624 0.06661 0.50412 -0.34600
C 	C 	0.45054 0.07633 0.48655 0.42100
C 	C 	0.47845 0.04890 0.45742 -0.34400
C 	C 	0.39881 0.97039 0.43980 0.21700
C 	C 	0.49348 0.98507 0.40989 -0.96900
C 	C 	0.34289 0.01840 0.51026 -0.92100
C 	C 	0.46747 0.11580 0.50023 -0.93200
C 	C 	0.37688 0.09377 0.53839 0.21200
C 	C 	0.46195 0.01402 0.44220 0.43300
C 	C 	0.31584 0.14086 0.66337 -0.02700
C 	C 	0.33393 0.12554 0.62205 -0.17400
C 	C 	0.39609 0.08031 0.65654 -0.21700
C 	C 	0.26978 0.16761 0.66849 0.38100
C 	C 	0.52791 0.05474 0.44319 0.19000
C 	C 	0.57572 0.09091 0.38027 0.22800
C 	C 	0.58001 0.11825 0.33835 -0.17000
C 	C 	0.62245 0.12815 0.31715 -0.01400
C 	C 	0.66092 0.10942 0.33755 -0.11500
C 	C 	0.65662 0.08169 0.37825 0.07400
C 	C 	0.61427 0.07256 0.40078 -0.22300
C 	C 	0.62694 0.15825 0.27161 0.36800
C 	C 	0.21454 0.51618 0.30173 0.37700
C 	C 	0.22998 0.51471 0.34686 -0.00500
C 	C 	0.23034 0.55534 0.36293 -0.18300
C 	C 	0.24161 0.55349 0.40598 0.23300
C 	C 	0.25371 0.51212 0.43159 -0.23000
C 	C 	0.25326 0.47246 0.41566 0.08100
C 	C 	0.24060 0.47404 0.37322 -0.11200
C 	C 	0.37427 0.09591 0.61860 0.22900
C 	C 	0.21776 0.63195 0.40720 0.21200
C 	C 	0.20842 0.66690 0.44054 -0.33000
C 	C 	0.23499 0.70262 0.43426 0.39400
C 	C 	0.27792 0.70186 0.39929 -0.87500
C 	C 	0.22092 0.73955 0.45868 -0.33600
C 	C 	0.18211 0.74001 0.49184 0.43800
C 	C 	0.16438 0.78028 0.51598 -0.99000
C 	C 	0.17219 0.66450 0.47650 0.43000
C 	C 	0.14711 0.62389 0.48615 -0.95100
C 	C 	0.04589 0.74451 0.55405 0.23000
C 	C 	0.01531 0.78181 0.53701 -0.21700
C 	C 	0.97790 0.79670 0.56400 0.08300
C 	C 	0.96939 0.77809 0.60939 -0.09700
C 	C 	0.99882 0.74158 0.62610 -0.02500
C 	C 	0.03806 0.72534 0.59905 -0.17100
C 	C 	0.24106 0.78378 0.44519 0.20500
C 	C 	0.26619 0.83568 0.48138 0.22500
C 	C 	0.25971 0.87102 0.44517 -0.17800
C 	C 	0.27469 0.92609 0.48579 -0.11000
C 	C 	0.28189 0.89219 0.52209 0.06300
C 	C 	0.26469 0.91582 0.44732 0.00700
C 	C 	0.27781 0.84621 0.52091 -0.20000
C 	C 	0.15948 0.70035 0.50199 -0.34800
C 	C 	0.25745 0.95125 0.40605 0.30800
C 	C 	0.11916 0.70025 0.53938 0.21800
C 	C 	0.41716 0.00628 0.45747 -0.35500
C 	C 	0.33886 0.12671 0.70049 -0.08900
C 	C 	0.37806 0.09538 0.69727 0.06500
C 	C 	0.98850 0.71810 0.67310 0.39200
O 	O 	0.87167 0.44034 0.74562 -0.46200
O 	O 	0.90806 0.48973 0.76514 -0.45900
O 	O 	0.98161 0.29172 0.76204 -0.28400
O 	O 	0.02316 0.23084 0.58208 -0.29100
O 	O 	0.18942 0.19446 0.51979 -0.56000
O 	O 	0.84280 0.38627 0.83702 -0.45500
O 	O 	0.85686 0.31049 0.84252 -0.50400
O 	O 	0.92576 0.09142 0.74195 -0.28800
O 	O 	0.77163 0.04909 0.72181 -0.44000
O 	O 	0.79769 0.98410 0.69468 -0.50700
O 	O 	0.96663 0.42723 0.91112 -0.29000
O 	O 	0.08072 0.57775 0.89494 -0.29400
O 	O 	0.89949 0.58350 0.03238 -0.27400
O 	O 	0.75309 0.66183 0.16768 -0.52500
O 	O 	0.75535 0.67730 0.09187 -0.44800
O 	O 	0.13646 0.67737 0.74828 -0.52000
O 	O 	0.20705 0.67740 0.75074 -0.48900
O 	O 	0.19587 0.22359 0.45085 -0.39800
O 	O 	0.74562 0.87167 0.44034 -0.46200
O 	O 	0.76514 0.90806 0.48973 -0.45900
O 	O 	0.76204 0.98161 0.29172 -0.28400
O 	O 	0.58208 0.02316 0.23084 -0.29100
O 	O 	0.51979 0.18942 0.19446 -0.56000
O 	O 	0.83702 0.84280 0.38627 -0.45500
O 	O 	0.84252 0.85686 0.31049 -0.50400
O 	O 	0.74195 0.92576 0.09142 -0.28800
O 	O 	0.72181 0.77163 0.04909 -0.44000
O 	O 	0.69468 0.79769 0.98410 -0.50700
O 	O 	0.91112 0.96663 0.42723 -0.29000
O 	O 	0.89494 0.08072 0.57775 -0.29400
O 	O 	0.03238 0.89949 0.58350 -0.27400
O 	O 	0.16768 0.75309 0.66183 -0.52500
O 	O 	0.09187 0.75535 0.67730 -0.44800
O 	O 	0.74828 0.13646 0.67737 -0.52000
O 	O 	0.75074 0.20705 0.67740 -0.48900
O 	O 	0.45085 0.19587 0.22359 -0.39800
O 	O 	0.44034 0.74562 0.87167 -0.46300
O 	O 	0.48973 0.76514 0.90806 -0.45900
O 	O 	0.29172 0.76204 0.98161 -0.28400
O 	O 	0.23084 0.58208 0.02316 -0.29100
O 	O 	0.19446 0.51979 0.18942 -0.56000
O 	O 	0.38627 0.83702 0.84280 -0.45500
O 	O 	0.31049 0.84252 0.85686 -0.50300
O 	O 	0.09142 0.74195 0.92576 -0.28800
O 	O 	0.04909 0.72181 0.77163 -0.44000
O 	O 	0.98410 0.69468 0.79769 -0.50700
O 	O 	0.42723 0.91112 0.96663 -0.29000
O 	O 	0.57775 0.89494 0.08072 -0.29400
O 	O 	0.58350 0.03238 0.89949 -0.27400
O 	O 	0.66183 0.16768 0.75309 -0.52500
O 	O 	0.67730 0.09187 0.75535 -0.44800
O 	O 	0.67737 0.74828 0.13646 -0.52000
O 	O 	0.67740 0.75074 0.20705 -0.48900
O 	O 	0.22359 0.45085 0.19587 -0.39800
O 	O 	0.05966 0.62833 0.75438 -0.46200
O 	O 	0.01027 0.59194 0.73486 -0.45800
O 	O 	0.20828 0.51839 0.73796 -0.28400
O 	O 	0.26916 0.47684 0.91792 -0.29100
O 	O 	0.30554 0.31058 0.98021 -0.56000
O 	O 	0.11373 0.65720 0.66298 -0.45500
O 	O 	0.18951 0.64314 0.65748 -0.50400
O 	O 	0.40858 0.57424 0.75805 -0.28900
O 	O 	0.45091 0.72837 0.77819 -0.44000
O 	O 	0.51590 0.70231 0.80532 -0.50600
O 	O 	0.07277 0.53337 0.58888 -0.29000
O 	O 	0.92225 0.41928 0.60506 -0.29400
O 	O 	0.91650 0.60051 0.46762 -0.27400
O 	O 	0.83817 0.74691 0.33232 -0.52500
O 	O 	0.82270 0.74465 0.40813 -0.44800
O 	O 	0.82263 0.36354 0.75172 -0.52000
O 	O 	0.82260 0.29295 0.74926 -0.48900
O 	O 	0.27641 0.30413 0.04915 -0.39800
O 	O 	0.62833 0.75438 0.05966 -0.46200
O 	O 	0.59194 0.73486 0.01027 -0.45800
O 	O 	0.51839 0.73796 0.20828 -0.28400
O 	O 	0.47684 0.91792 0.26916 -0.29100
O 	O 	0.31058 0.98021 0.30554 -0.56000
O 	O 	0.65720 0.66298 0.11373 -0.45500
O 	O 	0.64314 0.65748 0.18951 -0.50400
O 	O 	0.57424 0.75805 0.40858 -0.28900
O 	O 	0.72837 0.77819 0.45091 -0.44000
O 	O 	0.70231 0.80532 0.51590 -0.50600
O 	O 	0.53337 0.58888 0.07277 -0.29000
O 	O 	0.41928 0.60506 0.92225 -0.29400
O 	O 	0.60051 0.46762 0.91650 -0.27400
O 	O 	0.74691 0.33232 0.83817 -0.52500
O 	O 	0.74465 0.40813 0.82270 -0.44800
O 	O 	0.36354 0.75172 0.82263 -0.52000
O 	O 	0.29295 0.74926 0.82260 -0.48900
O 	O 	0.30413 0.04915 0.27641 -0.39800
O 	O 	0.75438 0.05966 0.62833 -0.46200
O 	O 	0.73486 0.01027 0.59194 -0.45800
O 	O 	0.73796 0.20828 0.51839 -0.28400
O 	O 	0.91792 0.26916 0.47684 -0.29100
O 	O 	0.98021 0.30554 0.31058 -0.56000
O 	O 	0.66298 0.11373 0.65720 -0.45500
O 	O 	0.65748 0.18951 0.64314 -0.50400
O 	O 	0.75805 0.40858 0.57424 -0.28900
O 	O 	0.77819 0.45091 0.72837 -0.44000
O 	O 	0.80532 0.51590 0.70231 -0.50600
O 	O 	0.58888 0.07277 0.53337 -0.29000
O 	O 	0.60506 0.92225 0.41928 -0.29400
O 	O 	0.46762 0.91650 0.60051 -0.27400
O 	O 	0.33232 0.83817 0.74691 -0.52500
O 	O 	0.40813 0.82270 0.74465 -0.44800
O 	O 	0.75172 0.82263 0.36354 -0.52000
O 	O 	0.74926 0.82260 0.29295 -0.48900
O 	O 	0.04915 0.27641 0.30413 -0.39800
O 	O 	0.12833 0.55966 0.25438 -0.46200
O 	O 	0.09194 0.51027 0.23486 -0.45900
O 	O 	0.01839 0.70828 0.23796 -0.28400
O 	O 	0.97684 0.76916 0.41792 -0.29100
O 	O 	0.81058 0.80554 0.48021 -0.56000
O 	O 	0.15720 0.61373 0.16298 -0.45500
O 	O 	0.14314 0.68951 0.15748 -0.50400
O 	O 	0.07424 0.90858 0.25805 -0.28800
O 	O 	0.22837 0.95091 0.27819 -0.44000
O 	O 	0.20231 0.01590 0.30532 -0.50700
O 	O 	0.03337 0.57277 0.08888 -0.29000
O 	O 	0.91928 0.42225 0.10506 -0.29400
O 	O 	0.10051 0.41650 0.96762 -0.27400
O 	O 	0.24691 0.33817 0.83232 -0.52500
O 	O 	0.24465 0.32270 0.90813 -0.44800
O 	O 	0.86354 0.32263 0.25172 -0.52000
O 	O 	0.79295 0.32260 0.24926 -0.48900
O 	O 	0.80413 0.77641 0.54915 -0.39800
O 	O 	0.25438 0.12833 0.55966 -0.46200
O 	O 	0.23486 0.09194 0.51027 -0.45900
O 	O 	0.23796 0.01839 0.70828 -0.28400
O 	O 	0.41792 0.97684 0.76916 -0.29100
O 	O 	0.48021 0.81058 0.80554 -0.56000
O 	O 	0.16298 0.15720 0.61373 -0.45500
O 	O 	0.15748 0.14314 0.68951 -0.50400
O 	O 	0.25805 0.07424 0.90858 -0.28800
O 	O 	0.27819 0.22837 0.95091 -0.44000
O 	O 	0.30532 0.20231 0.01590 -0.50700
O 	O 	0.08888 0.03337 0.57277 -0.29000
O 	O 	0.10506 0.91928 0.42225 -0.29400
O 	O 	0.96762 0.10051 0.41650 -0.27400
O 	O 	0.83232 0.24691 0.33817 -0.52500
O 	O 	0.90813 0.24465 0.32270 -0.44800
O 	O 	0.25172 0.86354 0.32263 -0.52000
O 	O 	0.24926 0.79295 0.32260 -0.48900
O 	O 	0.54915 0.80413 0.77641 -0.39800
O 	O 	0.55966 0.25438 0.12833 -0.46200
O 	O 	0.51027 0.23486 0.09194 -0.45900
O 	O 	0.70828 0.23796 0.01839 -0.28400
O 	O 	0.76916 0.41792 0.97684 -0.29100
O 	O 	0.80554 0.48021 0.81058 -0.56000
O 	O 	0.61373 0.16298 0.15720 -0.45500
O 	O 	0.68951 0.15748 0.14314 -0.50400
O 	O 	0.90858 0.25805 0.07424 -0.28800
O 	O 	0.95091 0.27819 0.22837 -0.44000
O 	O 	0.01590 0.30532 0.20231 -0.50700
O 	O 	0.57277 0.08888 0.03337 -0.29000
O 	O 	0.42225 0.10506 0.91928 -0.29400
O 	O 	0.41650 0.96762 0.10051 -0.27400
O 	O 	0.33817 0.83232 0.24691 -0.52500
O 	O 	0.32270 0.90813 0.24465 -0.44800
O 	O 	0.32263 0.25172 0.86354 -0.52000
O 	O 	0.32260 0.24926 0.79295 -0.48900
O 	O 	0.77641 0.54915 0.80413 -0.39800
O 	O 	0.94034 0.37167 0.24562 -0.46200
O 	O 	0.98973 0.40806 0.26514 -0.45800
O 	O 	0.79172 0.48161 0.26204 -0.28400
O 	O 	0.73084 0.52316 0.08208 -0.29100
O 	O 	0.69446 0.68942 0.01979 -0.56000
O 	O 	0.88627 0.34280 0.33702 -0.45500
O 	O 	0.81049 0.35686 0.34252 -0.50400
O 	O 	0.59142 0.42576 0.24195 -0.28900
O 	O 	0.54909 0.27163 0.22181 -0.44000
O 	O 	0.48410 0.29769 0.19468 -0.50600
O 	O 	0.92723 0.46663 0.41112 -0.29000
O 	O 	0.07775 0.58072 0.39494 -0.29400
O 	O 	0.08350 0.39949 0.53238 -0.27400
O 	O 	0.16183 0.25309 0.66768 -0.52500
O 	O 	0.17730 0.25535 0.59187 -0.44800
O 	O 	0.17737 0.63646 0.24828 -0.52000
O 	O 	0.17740 0.70705 0.25074 -0.48900
O 	O 	0.72359 0.69587 0.95085 -0.39800
O 	O 	0.37167 0.24562 0.94034 -0.46200
O 	O 	0.40806 0.26514 0.98973 -0.45800
O 	O 	0.48161 0.26204 0.79172 -0.28400
O 	O 	0.52316 0.08208 0.73084 -0.29100
O 	O 	0.68942 0.01979 0.69446 -0.56000
O 	O 	0.34280 0.33702 0.88627 -0.45500
O 	O 	0.35686 0.34252 0.81049 -0.50400
O 	O 	0.42576 0.24195 0.59142 -0.28900
O 	O 	0.27163 0.22181 0.54909 -0.44000
O 	O 	0.29769 0.19468 0.48410 -0.50600
O 	O 	0.46663 0.41112 0.92723 -0.29000
O 	O 	0.58072 0.39494 0.07775 -0.29400
O 	O 	0.39949 0.53238 0.08350 -0.27400
O 	O 	0.25309 0.66768 0.16183 -0.52500
O 	O 	0.25535 0.59187 0.17730 -0.44800
O 	O 	0.63646 0.24828 0.17737 -0.52000
O 	O 	0.70705 0.25074 0.17740 -0.48900
O 	O 	0.69587 0.95085 0.72359 -0.39800
O 	O 	0.24562 0.94034 0.37167 -0.46200
O 	O 	0.26514 0.98973 0.40806 -0.45800
O 	O 	0.26204 0.79172 0.48161 -0.28400
O 	O 	0.08208 0.73084 0.52316 -0.29100
O 	O 	0.01979 0.69446 0.68942 -0.56000
O 	O 	0.33702 0.88627 0.34280 -0.45500
O 	O 	0.34252 0.81049 0.35686 -0.50400
O 	O 	0.24195 0.59142 0.42576 -0.28900
O 	O 	0.22181 0.54909 0.27163 -0.44000
O 	O 	0.19468 0.48410 0.29769 -0.50600
O 	O 	0.41112 0.92723 0.46663 -0.29000
O 	O 	0.39494 0.07775 0.58072 -0.29400
O 	O 	0.53238 0.08350 0.39949 -0.27400
O 	O 	0.66768 0.16183 0.25309 -0.52500
O 	O 	0.59187 0.17730 0.25535 -0.44800
O 	O 	0.24828 0.17737 0.63646 -0.52000
O 	O 	0.25074 0.17740 0.70705 -0.48900
O 	O 	0.95085 0.72359 0.69587 -0.39800
