data_crystal

_cell_length_a 30.45460
_cell_length_b 30.45460
_cell_length_c 30.45460
_cell_angle_alpha 80.29890
_cell_angle_beta  80.29890
_cell_angle_gamma 80.29890

_symmetry_space_group_name_	'P 1'
_symmetry_space_group_name_H-M	'P 1'

loop_
_symmetry_equiv_pos_as_xyz
  x,y,z

loop_
_atom_site_label
_atom_site_type_symbol
_atom_site_fract_x
_atom_site_fract_y
_atom_site_fract_z
_atom_site_charge
Cd	Cd	0.81562 0.81220 0.29496 1.18800
Cd	Cd	0.78573 0.81331 0.41971 1.24700
Cd	Cd	0.74152 0.85512 0.52993 1.18900
Cd	Cd	0.29496 0.81562 0.81220 1.18800
Cd	Cd	0.41971 0.78573 0.81331 1.24700
Cd	Cd	0.52993 0.74152 0.85512 1.18900
Cd	Cd	0.81220 0.29496 0.81562 1.18800
Cd	Cd	0.81331 0.41971 0.78573 1.24700
Cd	Cd	0.85512 0.52993 0.74152 1.18900
Cd	Cd	0.68780 0.68438 0.20504 1.18800
Cd	Cd	0.68669 0.71427 0.08029 1.24700
Cd	Cd	0.64488 0.75848 0.97007 1.18900
Cd	Cd	0.68438 0.20504 0.68780 1.18700
Cd	Cd	0.71427 0.08029 0.68669 1.24600
Cd	Cd	0.75848 0.97007 0.64488 1.18800
Cd	Cd	0.20504 0.68780 0.68438 1.18700
Cd	Cd	0.08029 0.68669 0.71427 1.24600
Cd	Cd	0.97007 0.64488 0.75848 1.18800
Cd	Cd	0.18438 0.18780 0.70504 1.18700
Cd	Cd	0.21427 0.18669 0.58029 1.24600
Cd	Cd	0.25848 0.14488 0.47007 1.18800
Cd	Cd	0.70504 0.18438 0.18780 1.18700
Cd	Cd	0.58029 0.21427 0.18669 1.24600
Cd	Cd	0.47007 0.25848 0.14488 1.18800
Cd	Cd	0.18780 0.70504 0.18438 1.18700
Cd	Cd	0.18669 0.58029 0.21427 1.24600
Cd	Cd	0.14488 0.47007 0.25848 1.18800
Cd	Cd	0.31220 0.31562 0.79496 1.18700
Cd	Cd	0.31331 0.28573 0.91971 1.24600
Cd	Cd	0.35512 0.24152 0.02993 1.18800
Cd	Cd	0.31562 0.79496 0.31220 1.18700
Cd	Cd	0.28573 0.91971 0.31331 1.24600
Cd	Cd	0.24152 0.02993 0.35512 1.18800
Cd	Cd	0.79496 0.31220 0.31562 1.18700
Cd	Cd	0.91971 0.31331 0.28573 1.24600
Cd	Cd	0.02993 0.35512 0.24152 1.18800
H 	H 	0.87260 0.90670 0.41600 0.09300
H 	H 	0.92770 0.01590 0.35130 0.09400
H 	H 	0.91210 0.00230 0.28330 0.00400
H 	H 	0.87590 0.94050 0.28080 0.05500
H 	H 	0.86930 0.94440 0.47730 -0.00800
H 	H 	0.91620 0.91270 0.46600 -0.01100
H 	H 	0.87710 0.02480 0.62850 -0.01500
H 	H 	0.84880 0.04320 0.58740 -0.01700
H 	H 	0.81960 0.09730 0.63120 0.08900
H 	H 	0.83560 0.22550 0.63730 0.06400
H 	H 	0.91130 0.21060 0.60530 0.02100
H 	H 	0.93930 0.14160 0.58270 0.09300
H 	H 	0.03830 0.96410 0.57270 0.00900
H 	H 	0.04770 0.94120 0.52770 0.00300
H 	H 	0.05250 0.82070 0.62660 0.09400
H 	H 	0.18760 0.81470 0.61060 0.04400
H 	H 	0.18190 0.88720 0.56960 0.01300
H 	H 	0.11110 0.92730 0.55770 0.09300
H 	H 	0.84140 0.04430 0.52290 0.20100
H 	H 	0.84530 0.00950 0.48810 0.20500
H 	H 	0.82330 0.99700 0.53940 0.17900
H 	H 	0.98130 0.02220 0.61150 0.21000
H 	H 	0.94080 0.00020 0.64310 0.21500
H 	H 	0.98830 0.96980 0.63140 0.21400
H 	H 	0.00840 0.93360 0.45610 0.22100
H 	H 	0.02120 0.89860 0.49900 0.22600
H 	H 	0.98000 0.89320 0.47510 0.21900
H 	H 	0.74470 0.92320 0.36810 0.08900
H 	H 	0.78020 0.04740 0.32690 0.08800
H 	H 	0.79280 0.05100 0.39800 0.00500
H 	H 	0.78060 0.99160 0.45700 0.06300
H 	H 	0.76010 0.92270 0.28390 -0.01100
H 	H 	0.71120 0.93970 0.30950 -0.00900
H 	H 	0.78500 0.94640 0.11740 -0.01500
H 	H 	0.74480 0.97460 0.09160 -0.01600
H 	H 	0.71990 0.84090 0.08640 0.09000
H 	H 	0.74200 0.87150 0.95030 0.05100
H 	H 	0.76800 0.93750 0.95820 0.01000
H 	H 	0.76830 0.95700 0.02810 0.07900
H 	H 	0.62090 0.05910 0.16820 -0.01100
H 	H 	0.61650 0.05920 0.22140 -0.00900
H 	H 	0.55610 0.10640 0.19500 0.09200
H 	H 	0.42700 0.10700 0.17680 0.05800
H 	H 	0.44030 0.02820 0.18770 0.01200
H 	H 	0.50940 0.98970 0.20060 0.10600
H 	H 	0.81110 0.93530 0.17860 0.18700
H 	H 	0.79870 0.91950 0.23140 0.18800
H 	H 	0.78740 0.89120 0.19600 0.17600
H 	H 	0.65690 0.97280 0.10840 0.21600
H 	H 	0.63200 0.01930 0.12400 0.21700
H 	H 	0.68100 0.01690 0.09480 0.20900
H 	H 	0.65400 0.98130 0.30890 0.22300
H 	H 	0.65870 0.03270 0.28910 0.22100
H 	H 	0.61730 0.01100 0.28020 0.22400
H 	H 	0.41600 0.87260 0.90670 0.09300
H 	H 	0.35130 0.92770 0.01590 0.09400
H 	H 	0.28330 0.91210 0.00230 0.00400
H 	H 	0.28080 0.87590 0.94050 0.05500
H 	H 	0.47730 0.86930 0.94440 -0.00800
H 	H 	0.46600 0.91620 0.91270 -0.01100
H 	H 	0.62850 0.87710 0.02480 -0.01500
H 	H 	0.58740 0.84880 0.04320 -0.01700
H 	H 	0.63120 0.81960 0.09730 0.08900
H 	H 	0.63730 0.83560 0.22550 0.06400
H 	H 	0.60530 0.91130 0.21060 0.02100
H 	H 	0.58270 0.93930 0.14160 0.09300
H 	H 	0.57270 0.03830 0.96410 0.00900
H 	H 	0.52770 0.04770 0.94120 0.00300
H 	H 	0.62660 0.05250 0.82070 0.09400
H 	H 	0.61060 0.18760 0.81470 0.04400
H 	H 	0.56960 0.18190 0.88720 0.01300
H 	H 	0.55770 0.11110 0.92730 0.09300
H 	H 	0.52290 0.84140 0.04430 0.20100
H 	H 	0.48810 0.84530 0.00950 0.20500
H 	H 	0.53940 0.82330 0.99700 0.17900
H 	H 	0.61150 0.98130 0.02220 0.21000
H 	H 	0.64310 0.94080 0.00020 0.21500
H 	H 	0.63140 0.98830 0.96980 0.21400
H 	H 	0.45610 0.00840 0.93360 0.22100
H 	H 	0.49900 0.02120 0.89860 0.22600
H 	H 	0.47510 0.98000 0.89320 0.21900
H 	H 	0.36810 0.74470 0.92320 0.08900
H 	H 	0.32690 0.78020 0.04740 0.08800
H 	H 	0.39800 0.79280 0.05100 0.00500
H 	H 	0.45700 0.78060 0.99160 0.06300
H 	H 	0.28390 0.76010 0.92270 -0.01100
H 	H 	0.30950 0.71120 0.93970 -0.00900
H 	H 	0.11740 0.78500 0.94640 -0.01500
H 	H 	0.09160 0.74480 0.97460 -0.01600
H 	H 	0.08640 0.71990 0.84090 0.09000
H 	H 	0.95030 0.74200 0.87150 0.05100
H 	H 	0.95820 0.76800 0.93750 0.01000
H 	H 	0.02810 0.76830 0.95700 0.07900
H 	H 	0.16820 0.62090 0.05910 -0.01100
H 	H 	0.22140 0.61650 0.05920 -0.00900
H 	H 	0.19500 0.55610 0.10640 0.09200
H 	H 	0.17680 0.42700 0.10700 0.05800
H 	H 	0.18770 0.44030 0.02820 0.01200
H 	H 	0.20060 0.50940 0.98970 0.10600
H 	H 	0.17860 0.81110 0.93530 0.18700
H 	H 	0.23140 0.79870 0.91950 0.18800
H 	H 	0.19600 0.78740 0.89120 0.17600
H 	H 	0.10840 0.65690 0.97280 0.21600
H 	H 	0.12400 0.63200 0.01930 0.21700
H 	H 	0.09480 0.68100 0.01690 0.20900
H 	H 	0.30890 0.65400 0.98130 0.22300
H 	H 	0.28910 0.65870 0.03270 0.22100
H 	H 	0.28020 0.61730 0.01100 0.22400
H 	H 	0.90670 0.41600 0.87260 0.09300
H 	H 	0.01590 0.35130 0.92770 0.09400
H 	H 	0.00230 0.28330 0.91210 0.00400
H 	H 	0.94050 0.28080 0.87590 0.05500
H 	H 	0.94440 0.47730 0.86930 -0.00800
H 	H 	0.91270 0.46600 0.91620 -0.01100
H 	H 	0.02480 0.62850 0.87710 -0.01500
H 	H 	0.04320 0.58740 0.84880 -0.01700
H 	H 	0.09730 0.63120 0.81960 0.08900
H 	H 	0.22550 0.63730 0.83560 0.06400
H 	H 	0.21060 0.60530 0.91130 0.02100
H 	H 	0.14160 0.58270 0.93930 0.09300
H 	H 	0.96410 0.57270 0.03830 0.00900
H 	H 	0.94120 0.52770 0.04770 0.00300
H 	H 	0.82070 0.62660 0.05250 0.09400
H 	H 	0.81470 0.61060 0.18760 0.04400
H 	H 	0.88720 0.56960 0.18190 0.01300
H 	H 	0.92730 0.55770 0.11110 0.09300
H 	H 	0.04430 0.52290 0.84140 0.20100
H 	H 	0.00950 0.48810 0.84530 0.20500
H 	H 	0.99700 0.53940 0.82330 0.17900
H 	H 	0.02220 0.61150 0.98130 0.21000
H 	H 	0.00020 0.64310 0.94080 0.21500
H 	H 	0.96980 0.63140 0.98830 0.21400
H 	H 	0.93360 0.45610 0.00840 0.22100
H 	H 	0.89860 0.49900 0.02120 0.22600
H 	H 	0.89320 0.47510 0.98000 0.21900
H 	H 	0.92320 0.36810 0.74470 0.08900
H 	H 	0.04740 0.32690 0.78020 0.08800
H 	H 	0.05100 0.39800 0.79280 0.00500
H 	H 	0.99160 0.45700 0.78060 0.06300
H 	H 	0.92270 0.28390 0.76010 -0.01100
H 	H 	0.93970 0.30950 0.71120 -0.00900
H 	H 	0.94640 0.11740 0.78500 -0.01500
H 	H 	0.97460 0.09160 0.74480 -0.01600
H 	H 	0.84090 0.08640 0.71990 0.09000
H 	H 	0.87150 0.95030 0.74200 0.05100
H 	H 	0.93750 0.95820 0.76800 0.01000
H 	H 	0.95700 0.02810 0.76830 0.07900
H 	H 	0.05910 0.16820 0.62090 -0.01100
H 	H 	0.05920 0.22140 0.61650 -0.00900
H 	H 	0.10640 0.19500 0.55610 0.09200
H 	H 	0.10700 0.17680 0.42700 0.05800
H 	H 	0.02820 0.18770 0.44030 0.01200
H 	H 	0.98970 0.20060 0.50940 0.10600
H 	H 	0.93530 0.17860 0.81110 0.18700
H 	H 	0.91950 0.23140 0.79870 0.18800
H 	H 	0.89120 0.19600 0.78740 0.17600
H 	H 	0.97280 0.10840 0.65690 0.21600
H 	H 	0.01930 0.12400 0.63200 0.21700
H 	H 	0.01690 0.09480 0.68100 0.20900
H 	H 	0.98130 0.30890 0.65400 0.22300
H 	H 	0.03270 0.28910 0.65870 0.22100
H 	H 	0.01100 0.28020 0.61730 0.22400
H 	H 	0.59330 0.62740 0.08400 0.09300
H 	H 	0.48410 0.57230 0.14870 0.09400
H 	H 	0.49770 0.58790 0.21670 0.00400
H 	H 	0.55950 0.62410 0.21920 0.05500
H 	H 	0.55560 0.63070 0.02270 -0.00800
H 	H 	0.58730 0.58380 0.03400 -0.01100
H 	H 	0.47520 0.62290 0.87150 -0.01500
H 	H 	0.45680 0.65120 0.91260 -0.01700
H 	H 	0.40270 0.68040 0.86880 0.08900
H 	H 	0.27450 0.66440 0.86270 0.06400
H 	H 	0.28940 0.58870 0.89470 0.02100
H 	H 	0.35840 0.56070 0.91730 0.09300
H 	H 	0.53590 0.46170 0.92730 0.00900
H 	H 	0.55880 0.45230 0.97230 0.00300
H 	H 	0.67930 0.44750 0.87340 0.09400
H 	H 	0.68530 0.31240 0.88940 0.04400
H 	H 	0.61280 0.31810 0.93040 0.01300
H 	H 	0.57270 0.38890 0.94230 0.09300
H 	H 	0.45570 0.65860 0.97710 0.20100
H 	H 	0.49050 0.65470 0.01190 0.20500
H 	H 	0.50300 0.67670 0.96060 0.17900
H 	H 	0.47780 0.51870 0.88850 0.21000
H 	H 	0.49980 0.55920 0.85690 0.21500
H 	H 	0.53020 0.51170 0.86860 0.21500
H 	H 	0.56640 0.49160 0.04390 0.22200
H 	H 	0.60140 0.47880 0.00100 0.22700
H 	H 	0.60680 0.52000 0.02490 0.21900
H 	H 	0.57680 0.75530 0.13190 0.08900
H 	H 	0.45260 0.71980 0.17310 0.08800
H 	H 	0.44900 0.70720 0.10200 0.00500
H 	H 	0.50840 0.71940 0.04300 0.06300
H 	H 	0.57730 0.73990 0.21610 -0.01100
H 	H 	0.56030 0.78880 0.19050 -0.00900
H 	H 	0.55360 0.71500 0.38260 -0.01500
H 	H 	0.52540 0.75520 0.40840 -0.01600
H 	H 	0.65910 0.78010 0.41360 0.09000
H 	H 	0.62850 0.75800 0.54970 0.05100
H 	H 	0.56250 0.73200 0.54180 0.01100
H 	H 	0.54300 0.73170 0.47190 0.07900
H 	H 	0.44090 0.87910 0.33180 -0.01100
H 	H 	0.44080 0.88350 0.27860 -0.00900
H 	H 	0.39360 0.94390 0.30500 0.09200
H 	H 	0.39300 0.07300 0.32320 0.05900
H 	H 	0.47180 0.05970 0.31230 0.01200
H 	H 	0.51030 0.99060 0.29940 0.10600
H 	H 	0.56470 0.68890 0.32140 0.18700
H 	H 	0.58050 0.70130 0.26860 0.18800
H 	H 	0.60880 0.71260 0.30400 0.17600
H 	H 	0.52720 0.84310 0.39160 0.21600
H 	H 	0.48070 0.86800 0.37600 0.21700
H 	H 	0.48310 0.81900 0.40520 0.20900
H 	H 	0.51870 0.84600 0.19110 0.22300
H 	H 	0.46730 0.84130 0.21090 0.22100
H 	H 	0.48900 0.88270 0.21980 0.22400
H 	H 	0.62740 0.08400 0.59330 0.09300
H 	H 	0.57230 0.14870 0.48410 0.09400
H 	H 	0.58790 0.21670 0.49770 0.00400
H 	H 	0.62410 0.21920 0.55950 0.05500
H 	H 	0.63070 0.02270 0.55560 -0.00800
H 	H 	0.58380 0.03400 0.58730 -0.01100
H 	H 	0.62290 0.87150 0.47520 -0.01500
H 	H 	0.65120 0.91260 0.45680 -0.01700
H 	H 	0.68040 0.86880 0.40270 0.08900
H 	H 	0.66440 0.86270 0.27450 0.06400
H 	H 	0.58870 0.89470 0.28940 0.02100
H 	H 	0.56070 0.91730 0.35840 0.09300
H 	H 	0.46170 0.92730 0.53590 0.00900
H 	H 	0.45230 0.97230 0.55880 0.00300
H 	H 	0.44750 0.87340 0.67930 0.09400
H 	H 	0.31240 0.88940 0.68530 0.04400
H 	H 	0.31810 0.93040 0.61280 0.01300
H 	H 	0.38890 0.94230 0.57270 0.09300
H 	H 	0.65860 0.97710 0.45570 0.20100
H 	H 	0.65470 0.01190 0.49050 0.20500
H 	H 	0.67670 0.96060 0.50300 0.17900
H 	H 	0.51870 0.88850 0.47780 0.21000
H 	H 	0.55920 0.85690 0.49980 0.21500
H 	H 	0.51170 0.86860 0.53020 0.21500
H 	H 	0.49160 0.04390 0.56640 0.22200
H 	H 	0.47880 0.00100 0.60140 0.22700
H 	H 	0.52000 0.02490 0.60680 0.21900
H 	H 	0.75530 0.13190 0.57680 0.08900
H 	H 	0.71980 0.17310 0.45260 0.08800
H 	H 	0.70720 0.10200 0.44900 0.00500
H 	H 	0.71940 0.04300 0.50840 0.06300
H 	H 	0.73990 0.21610 0.57730 -0.01100
H 	H 	0.78880 0.19050 0.56030 -0.00900
H 	H 	0.71500 0.38260 0.55360 -0.01500
H 	H 	0.75520 0.40840 0.52540 -0.01600
H 	H 	0.78010 0.41360 0.65910 0.09000
H 	H 	0.75800 0.54970 0.62850 0.05100
H 	H 	0.73200 0.54180 0.56250 0.01100
H 	H 	0.73170 0.47190 0.54300 0.07900
H 	H 	0.87910 0.33180 0.44090 -0.01100
H 	H 	0.88350 0.27860 0.44080 -0.00900
H 	H 	0.94390 0.30500 0.39360 0.09200
H 	H 	0.07300 0.32320 0.39300 0.05900
H 	H 	0.05970 0.31230 0.47180 0.01200
H 	H 	0.99060 0.29940 0.51030 0.10600
H 	H 	0.68890 0.32140 0.56470 0.18700
H 	H 	0.70130 0.26860 0.58050 0.18800
H 	H 	0.71260 0.30400 0.60880 0.17600
H 	H 	0.84310 0.39160 0.52720 0.21600
H 	H 	0.86800 0.37600 0.48070 0.21700
H 	H 	0.81900 0.40520 0.48310 0.20900
H 	H 	0.84600 0.19110 0.51870 0.22300
H 	H 	0.84130 0.21090 0.46730 0.22100
H 	H 	0.88270 0.21980 0.48900 0.22400
H 	H 	0.08400 0.59330 0.62740 0.09300
H 	H 	0.14870 0.48410 0.57230 0.09400
H 	H 	0.21670 0.49770 0.58790 0.00400
H 	H 	0.21920 0.55950 0.62410 0.05500
H 	H 	0.02270 0.55560 0.63070 -0.00800
H 	H 	0.03400 0.58730 0.58380 -0.01100
H 	H 	0.87150 0.47520 0.62290 -0.01500
H 	H 	0.91260 0.45680 0.65120 -0.01700
H 	H 	0.86880 0.40270 0.68040 0.08900
H 	H 	0.86270 0.27450 0.66440 0.06400
H 	H 	0.89470 0.28940 0.58870 0.02100
H 	H 	0.91730 0.35840 0.56070 0.09300
H 	H 	0.92730 0.53590 0.46170 0.00900
H 	H 	0.97230 0.55880 0.45230 0.00300
H 	H 	0.87340 0.67930 0.44750 0.09400
H 	H 	0.88940 0.68530 0.31240 0.04400
H 	H 	0.93040 0.61280 0.31810 0.01300
H 	H 	0.94230 0.57270 0.38890 0.09300
H 	H 	0.97710 0.45570 0.65860 0.20100
H 	H 	0.01190 0.49050 0.65470 0.20500
H 	H 	0.96060 0.50300 0.67670 0.17900
H 	H 	0.88850 0.47780 0.51870 0.21000
H 	H 	0.85690 0.49980 0.55920 0.21500
H 	H 	0.86860 0.53020 0.51170 0.21500
H 	H 	0.04390 0.56640 0.49160 0.22200
H 	H 	0.00100 0.60140 0.47880 0.22700
H 	H 	0.02490 0.60680 0.52000 0.21900
H 	H 	0.13190 0.57680 0.75530 0.08900
H 	H 	0.17310 0.45260 0.71980 0.08800
H 	H 	0.10200 0.44900 0.70720 0.00500
H 	H 	0.04300 0.50840 0.71940 0.06300
H 	H 	0.21610 0.57730 0.73990 -0.01100
H 	H 	0.19050 0.56030 0.78880 -0.00900
H 	H 	0.38260 0.55360 0.71500 -0.01500
H 	H 	0.40840 0.52540 0.75520 -0.01600
H 	H 	0.41360 0.65910 0.78010 0.09000
H 	H 	0.54970 0.62850 0.75800 0.05100
H 	H 	0.54180 0.56250 0.73200 0.01100
H 	H 	0.47190 0.54300 0.73170 0.07900
H 	H 	0.33180 0.44090 0.87910 -0.01100
H 	H 	0.27860 0.44080 0.88350 -0.00900
H 	H 	0.30500 0.39360 0.94390 0.09200
H 	H 	0.32320 0.39300 0.07300 0.05900
H 	H 	0.31230 0.47180 0.05970 0.01200
H 	H 	0.29940 0.51030 0.99060 0.10600
H 	H 	0.32140 0.56470 0.68890 0.18700
H 	H 	0.26860 0.58050 0.70130 0.18800
H 	H 	0.30400 0.60880 0.71260 0.17600
H 	H 	0.39160 0.52720 0.84310 0.21600
H 	H 	0.37600 0.48070 0.86800 0.21700
H 	H 	0.40520 0.48310 0.81900 0.20900
H 	H 	0.19110 0.51870 0.84600 0.22300
H 	H 	0.21090 0.46730 0.84130 0.22100
H 	H 	0.21980 0.48900 0.88270 0.22400
H 	H 	0.12740 0.09330 0.58400 0.09300
H 	H 	0.07230 0.98410 0.64870 0.09400
H 	H 	0.08790 0.99770 0.71670 0.00400
H 	H 	0.12410 0.05950 0.71920 0.05500
H 	H 	0.13070 0.05560 0.52270 -0.00800
H 	H 	0.08380 0.08730 0.53400 -0.01100
H 	H 	0.12290 0.97520 0.37150 -0.01500
H 	H 	0.15120 0.95680 0.41260 -0.01700
H 	H 	0.18040 0.90270 0.36880 0.08900
H 	H 	0.16440 0.77450 0.36270 0.06400
H 	H 	0.08870 0.78940 0.39470 0.02100
H 	H 	0.06070 0.85840 0.41730 0.09300
H 	H 	0.96170 0.03590 0.42730 0.00900
H 	H 	0.95230 0.05880 0.47230 0.00300
H 	H 	0.94750 0.17930 0.37340 0.09400
H 	H 	0.81240 0.18530 0.38940 0.04400
H 	H 	0.81810 0.11280 0.43040 0.01300
H 	H 	0.88890 0.07270 0.44230 0.09300
H 	H 	0.15860 0.95570 0.47710 0.20100
H 	H 	0.15470 0.99050 0.51190 0.20500
H 	H 	0.17670 0.00300 0.46060 0.17900
H 	H 	0.01870 0.97780 0.38850 0.21000
H 	H 	0.05920 0.99980 0.35690 0.21500
H 	H 	0.01170 0.03020 0.36860 0.21400
H 	H 	0.99160 0.06640 0.54390 0.22100
H 	H 	0.97880 0.10140 0.50100 0.22600
H 	H 	0.02000 0.10680 0.52490 0.21900
H 	H 	0.25530 0.07680 0.63190 0.08900
H 	H 	0.21980 0.95260 0.67310 0.08800
H 	H 	0.20720 0.94900 0.60200 0.00500
H 	H 	0.21940 0.00840 0.54300 0.06300
H 	H 	0.23990 0.07730 0.71610 -0.01100
H 	H 	0.28880 0.06030 0.69050 -0.00900
H 	H 	0.21500 0.05360 0.88260 -0.01500
H 	H 	0.25520 0.02540 0.90840 -0.01600
H 	H 	0.28010 0.15910 0.91360 0.09000
H 	H 	0.25800 0.12850 0.04970 0.05100
H 	H 	0.23200 0.06250 0.04180 0.01000
H 	H 	0.23170 0.04300 0.97190 0.07900
H 	H 	0.37910 0.94090 0.83180 -0.01100
H 	H 	0.38350 0.94080 0.77860 -0.00900
H 	H 	0.44390 0.89360 0.80500 0.09200
H 	H 	0.57300 0.89300 0.82320 0.05800
H 	H 	0.55970 0.97180 0.81230 0.01200
H 	H 	0.49060 0.01030 0.79940 0.10600
H 	H 	0.18890 0.06470 0.82140 0.18700
H 	H 	0.20130 0.08050 0.76860 0.18800
H 	H 	0.21260 0.10880 0.80400 0.17600
H 	H 	0.34310 0.02720 0.89160 0.21600
H 	H 	0.36800 0.98070 0.87600 0.21700
H 	H 	0.31900 0.98310 0.90520 0.20900
H 	H 	0.34600 0.01870 0.69110 0.22300
H 	H 	0.34130 0.96730 0.71090 0.22100
H 	H 	0.38270 0.98900 0.71980 0.22400
H 	H 	0.58400 0.12740 0.09330 0.09300
H 	H 	0.64870 0.07230 0.98410 0.09400
H 	H 	0.71670 0.08790 0.99770 0.00400
H 	H 	0.71920 0.12410 0.05950 0.05500
H 	H 	0.52270 0.13070 0.05560 -0.00800
H 	H 	0.53400 0.08380 0.08730 -0.01100
H 	H 	0.37150 0.12290 0.97520 -0.01500
H 	H 	0.41260 0.15120 0.95680 -0.01700
H 	H 	0.36880 0.18040 0.90270 0.08900
H 	H 	0.36270 0.16440 0.77450 0.06400
H 	H 	0.39470 0.08870 0.78940 0.02100
H 	H 	0.41730 0.06070 0.85840 0.09300
H 	H 	0.42730 0.96170 0.03590 0.00900
H 	H 	0.47230 0.95230 0.05880 0.00300
H 	H 	0.37340 0.94750 0.17930 0.09400
H 	H 	0.38940 0.81240 0.18530 0.04400
H 	H 	0.43040 0.81810 0.11280 0.01300
H 	H 	0.44230 0.88890 0.07270 0.09300
H 	H 	0.47710 0.15860 0.95570 0.20100
H 	H 	0.51190 0.15470 0.99050 0.20500
H 	H 	0.46060 0.17670 0.00300 0.17900
H 	H 	0.38850 0.01870 0.97780 0.21000
H 	H 	0.35690 0.05920 0.99980 0.21500
H 	H 	0.36860 0.01170 0.03020 0.21400
H 	H 	0.54390 0.99160 0.06640 0.22100
H 	H 	0.50100 0.97880 0.10140 0.22600
H 	H 	0.52490 0.02000 0.10680 0.21900
H 	H 	0.63190 0.25530 0.07680 0.08900
H 	H 	0.67310 0.21980 0.95260 0.08800
H 	H 	0.60200 0.20720 0.94900 0.00500
H 	H 	0.54300 0.21940 0.00840 0.06300
H 	H 	0.71610 0.23990 0.07730 -0.01100
H 	H 	0.69050 0.28880 0.06030 -0.00900
H 	H 	0.88260 0.21500 0.05360 -0.01500
H 	H 	0.90840 0.25520 0.02540 -0.01600
H 	H 	0.91360 0.28010 0.15910 0.09000
H 	H 	0.04970 0.25800 0.12850 0.05100
H 	H 	0.04180 0.23200 0.06250 0.01000
H 	H 	0.97190 0.23170 0.04300 0.07900
H 	H 	0.83180 0.37910 0.94090 -0.01100
H 	H 	0.77860 0.38350 0.94080 -0.00900
H 	H 	0.80500 0.44390 0.89360 0.09200
H 	H 	0.82320 0.57300 0.89300 0.05800
H 	H 	0.81230 0.55970 0.97180 0.01200
H 	H 	0.79940 0.49060 0.01030 0.10600
H 	H 	0.82140 0.18890 0.06470 0.18700
H 	H 	0.76860 0.20130 0.08050 0.18800
H 	H 	0.80400 0.21260 0.10880 0.17600
H 	H 	0.89160 0.34310 0.02720 0.21600
H 	H 	0.87600 0.36800 0.98070 0.21700
H 	H 	0.90520 0.31900 0.98310 0.20900
H 	H 	0.69110 0.34600 0.01870 0.22300
H 	H 	0.71090 0.34130 0.96730 0.22100
H 	H 	0.71980 0.38270 0.98900 0.22400
H 	H 	0.09330 0.58400 0.12740 0.09300
H 	H 	0.98410 0.64870 0.07230 0.09400
H 	H 	0.99770 0.71670 0.08790 0.00400
H 	H 	0.05950 0.71920 0.12410 0.05500
H 	H 	0.05560 0.52270 0.13070 -0.00800
H 	H 	0.08730 0.53400 0.08380 -0.01100
H 	H 	0.97520 0.37150 0.12290 -0.01500
H 	H 	0.95680 0.41260 0.15120 -0.01700
H 	H 	0.90270 0.36880 0.18040 0.08900
H 	H 	0.77450 0.36270 0.16440 0.06400
H 	H 	0.78940 0.39470 0.08870 0.02100
H 	H 	0.85840 0.41730 0.06070 0.09300
H 	H 	0.03590 0.42730 0.96170 0.00900
H 	H 	0.05880 0.47230 0.95230 0.00300
H 	H 	0.17930 0.37340 0.94750 0.09400
H 	H 	0.18530 0.38940 0.81240 0.04400
H 	H 	0.11280 0.43040 0.81810 0.01300
H 	H 	0.07270 0.44230 0.88890 0.09300
H 	H 	0.95570 0.47710 0.15860 0.20100
H 	H 	0.99050 0.51190 0.15470 0.20500
H 	H 	0.00300 0.46060 0.17670 0.17900
H 	H 	0.97780 0.38850 0.01870 0.21000
H 	H 	0.99980 0.35690 0.05920 0.21500
H 	H 	0.03020 0.36860 0.01170 0.21400
H 	H 	0.06640 0.54390 0.99160 0.22100
H 	H 	0.10140 0.50100 0.97880 0.22600
H 	H 	0.10680 0.52490 0.02000 0.21900
H 	H 	0.07680 0.63190 0.25530 0.08900
H 	H 	0.95260 0.67310 0.21980 0.08800
H 	H 	0.94900 0.60200 0.20720 0.00500
H 	H 	0.00840 0.54300 0.21940 0.06300
H 	H 	0.07730 0.71610 0.23990 -0.01100
H 	H 	0.06030 0.69050 0.28880 -0.00900
H 	H 	0.05360 0.88260 0.21500 -0.01500
H 	H 	0.02540 0.90840 0.25520 -0.01600
H 	H 	0.15910 0.91360 0.28010 0.09000
H 	H 	0.12850 0.04970 0.25800 0.05100
H 	H 	0.06250 0.04180 0.23200 0.01000
H 	H 	0.04300 0.97190 0.23170 0.07900
H 	H 	0.94090 0.83180 0.37910 -0.01100
H 	H 	0.94080 0.77860 0.38350 -0.00900
H 	H 	0.89360 0.80500 0.44390 0.09200
H 	H 	0.89300 0.82320 0.57300 0.05800
H 	H 	0.97180 0.81230 0.55970 0.01200
H 	H 	0.01030 0.79940 0.49060 0.10600
H 	H 	0.06470 0.82140 0.18890 0.18700
H 	H 	0.08050 0.76860 0.20130 0.18800
H 	H 	0.10880 0.80400 0.21260 0.17600
H 	H 	0.02720 0.89160 0.34310 0.21600
H 	H 	0.98070 0.87600 0.36800 0.21700
H 	H 	0.98310 0.90520 0.31900 0.20900
H 	H 	0.01870 0.69110 0.34600 0.22300
H 	H 	0.96730 0.71090 0.34130 0.22100
H 	H 	0.98900 0.71980 0.38270 0.22400
H 	H 	0.40670 0.37260 0.91600 0.09300
H 	H 	0.51590 0.42770 0.85130 0.09400
H 	H 	0.50230 0.41210 0.78330 0.00400
H 	H 	0.44050 0.37590 0.78080 0.05500
H 	H 	0.44440 0.36930 0.97730 -0.00800
H 	H 	0.41270 0.41620 0.96600 -0.01100
H 	H 	0.52480 0.37710 0.12850 -0.01500
H 	H 	0.54320 0.34880 0.08740 -0.01700
H 	H 	0.59730 0.31960 0.13120 0.08900
H 	H 	0.72550 0.33560 0.13730 0.06400
H 	H 	0.71060 0.41130 0.10530 0.02100
H 	H 	0.64160 0.43930 0.08270 0.09300
H 	H 	0.46410 0.53830 0.07270 0.00900
H 	H 	0.44120 0.54770 0.02770 0.00300
H 	H 	0.32070 0.55250 0.12660 0.09400
H 	H 	0.31470 0.68760 0.11060 0.04400
H 	H 	0.38720 0.68190 0.06960 0.01300
H 	H 	0.42730 0.61110 0.05770 0.09300
H 	H 	0.54430 0.34140 0.02290 0.20100
H 	H 	0.50950 0.34530 0.98810 0.20500
H 	H 	0.49700 0.32330 0.03940 0.17900
H 	H 	0.52220 0.48130 0.11150 0.21000
H 	H 	0.50020 0.44080 0.14310 0.21500
H 	H 	0.46980 0.48830 0.13140 0.21500
H 	H 	0.43360 0.50840 0.95610 0.22200
H 	H 	0.39860 0.52120 0.99900 0.22700
H 	H 	0.39320 0.48000 0.97510 0.21900
H 	H 	0.42320 0.24470 0.86810 0.08900
H 	H 	0.54740 0.28020 0.82690 0.08800
H 	H 	0.55100 0.29280 0.89800 0.00500
H 	H 	0.49160 0.28060 0.95700 0.06300
H 	H 	0.42270 0.26010 0.78390 -0.01100
H 	H 	0.43970 0.21120 0.80950 -0.00900
H 	H 	0.44640 0.28500 0.61740 -0.01500
H 	H 	0.47460 0.24480 0.59160 -0.01600
H 	H 	0.34090 0.21990 0.58640 0.09000
H 	H 	0.37150 0.24200 0.45030 0.05100
H 	H 	0.43750 0.26800 0.45820 0.01100
H 	H 	0.45700 0.26830 0.52810 0.07900
H 	H 	0.55910 0.12090 0.66820 -0.01100
H 	H 	0.55920 0.11650 0.72140 -0.00900
H 	H 	0.60640 0.05610 0.69500 0.09200
H 	H 	0.60700 0.92700 0.67680 0.05900
H 	H 	0.52820 0.94030 0.68770 0.01200
H 	H 	0.48970 0.00940 0.70060 0.10600
H 	H 	0.43530 0.31110 0.67860 0.18700
H 	H 	0.41950 0.29870 0.73140 0.18800
H 	H 	0.39120 0.28740 0.69600 0.17600
H 	H 	0.47280 0.15690 0.60840 0.21600
H 	H 	0.51930 0.13200 0.62400 0.21700
H 	H 	0.51690 0.18100 0.59480 0.20900
H 	H 	0.48130 0.15400 0.80890 0.22300
H 	H 	0.53270 0.15870 0.78910 0.22100
H 	H 	0.51100 0.11730 0.78020 0.22400
H 	H 	0.37260 0.91600 0.40670 0.09300
H 	H 	0.42770 0.85130 0.51590 0.09400
H 	H 	0.41210 0.78330 0.50230 0.00400
H 	H 	0.37590 0.78080 0.44050 0.05500
H 	H 	0.36930 0.97730 0.44440 -0.00800
H 	H 	0.41620 0.96600 0.41270 -0.01100
H 	H 	0.37710 0.12850 0.52480 -0.01500
H 	H 	0.34880 0.08740 0.54320 -0.01700
H 	H 	0.31960 0.13120 0.59730 0.08900
H 	H 	0.33560 0.13730 0.72550 0.06400
H 	H 	0.41130 0.10530 0.71060 0.02100
H 	H 	0.43930 0.08270 0.64160 0.09300
H 	H 	0.53830 0.07270 0.46410 0.00900
H 	H 	0.54770 0.02770 0.44120 0.00300
H 	H 	0.55250 0.12660 0.32070 0.09400
H 	H 	0.68760 0.11060 0.31470 0.04400
H 	H 	0.68190 0.06960 0.38720 0.01300
H 	H 	0.61110 0.05770 0.42730 0.09300
H 	H 	0.34140 0.02290 0.54430 0.20100
H 	H 	0.34530 0.98810 0.50950 0.20500
H 	H 	0.32330 0.03940 0.49700 0.17900
H 	H 	0.48130 0.11150 0.52220 0.21000
H 	H 	0.44080 0.14310 0.50020 0.21500
H 	H 	0.48830 0.13140 0.46980 0.21500
H 	H 	0.50840 0.95610 0.43360 0.22200
H 	H 	0.52120 0.99900 0.39860 0.22700
H 	H 	0.48000 0.97510 0.39320 0.21900
H 	H 	0.24470 0.86810 0.42320 0.08900
H 	H 	0.28020 0.82690 0.54740 0.08800
H 	H 	0.29280 0.89800 0.55100 0.00500
H 	H 	0.28060 0.95700 0.49160 0.06300
H 	H 	0.26010 0.78390 0.42270 -0.01100
H 	H 	0.21120 0.80950 0.43970 -0.00900
H 	H 	0.28500 0.61740 0.44640 -0.01500
H 	H 	0.24480 0.59160 0.47460 -0.01600
H 	H 	0.21990 0.58640 0.34090 0.09000
H 	H 	0.24200 0.45030 0.37150 0.05100
H 	H 	0.26800 0.45820 0.43750 0.01100
H 	H 	0.26830 0.52810 0.45700 0.07900
H 	H 	0.12090 0.66820 0.55910 -0.01100
H 	H 	0.11650 0.72140 0.55920 -0.00900
H 	H 	0.05610 0.69500 0.60640 0.09200
H 	H 	0.92700 0.67680 0.60700 0.05900
H 	H 	0.94030 0.68770 0.52820 0.01200
H 	H 	0.00940 0.70060 0.48970 0.10600
H 	H 	0.31110 0.67860 0.43530 0.18700
H 	H 	0.29870 0.73140 0.41950 0.18800
H 	H 	0.28740 0.69600 0.39120 0.17600
H 	H 	0.15690 0.60840 0.47280 0.21600
H 	H 	0.13200 0.62400 0.51930 0.21700
H 	H 	0.18100 0.59480 0.51690 0.20900
H 	H 	0.15400 0.80890 0.48130 0.22300
H 	H 	0.15870 0.78910 0.53270 0.22100
H 	H 	0.11730 0.78020 0.51100 0.22400
H 	H 	0.91600 0.40670 0.37260 0.09300
H 	H 	0.85130 0.51590 0.42770 0.09400
H 	H 	0.78330 0.50230 0.41210 0.00400
H 	H 	0.78080 0.44050 0.37590 0.05500
H 	H 	0.97730 0.44440 0.36930 -0.00800
H 	H 	0.96600 0.41270 0.41620 -0.01100
H 	H 	0.12850 0.52480 0.37710 -0.01500
H 	H 	0.08740 0.54320 0.34880 -0.01700
H 	H 	0.13120 0.59730 0.31960 0.08900
H 	H 	0.13730 0.72550 0.33560 0.06400
H 	H 	0.10530 0.71060 0.41130 0.02100
H 	H 	0.08270 0.64160 0.43930 0.09300
H 	H 	0.07270 0.46410 0.53830 0.00900
H 	H 	0.02770 0.44120 0.54770 0.00300
H 	H 	0.12660 0.32070 0.55250 0.09400
H 	H 	0.11060 0.31470 0.68760 0.04400
H 	H 	0.06960 0.38720 0.68190 0.01300
H 	H 	0.05770 0.42730 0.61110 0.09300
H 	H 	0.02290 0.54430 0.34140 0.20100
H 	H 	0.98810 0.50950 0.34530 0.20500
H 	H 	0.03940 0.49700 0.32330 0.17900
H 	H 	0.11150 0.52220 0.48130 0.21000
H 	H 	0.14310 0.50020 0.44080 0.21500
H 	H 	0.13140 0.46980 0.48830 0.21500
H 	H 	0.95610 0.43360 0.50840 0.22200
H 	H 	0.99900 0.39860 0.52120 0.22700
H 	H 	0.97510 0.39320 0.48000 0.21900
H 	H 	0.86810 0.42320 0.24470 0.08900
H 	H 	0.82690 0.54740 0.28020 0.08800
H 	H 	0.89800 0.55100 0.29280 0.00500
H 	H 	0.95700 0.49160 0.28060 0.06300
H 	H 	0.78390 0.42270 0.26010 -0.01100
H 	H 	0.80950 0.43970 0.21120 -0.00900
H 	H 	0.61740 0.44640 0.28500 -0.01500
H 	H 	0.59160 0.47460 0.24480 -0.01600
H 	H 	0.58640 0.34090 0.21990 0.09000
H 	H 	0.45030 0.37150 0.24200 0.05100
H 	H 	0.45820 0.43750 0.26800 0.01100
H 	H 	0.52810 0.45700 0.26830 0.07900
H 	H 	0.66820 0.55910 0.12090 -0.01100
H 	H 	0.72140 0.55920 0.11650 -0.00900
H 	H 	0.69500 0.60640 0.05610 0.09200
H 	H 	0.67680 0.60700 0.92700 0.05900
H 	H 	0.68770 0.52820 0.94030 0.01200
H 	H 	0.70060 0.48970 0.00940 0.10600
H 	H 	0.67860 0.43530 0.31110 0.18700
H 	H 	0.73140 0.41950 0.29870 0.18800
H 	H 	0.69600 0.39120 0.28740 0.17600
H 	H 	0.60840 0.47280 0.15690 0.21600
H 	H 	0.62400 0.51930 0.13200 0.21700
H 	H 	0.59480 0.51690 0.18100 0.20900
H 	H 	0.80890 0.48130 0.15400 0.22300
H 	H 	0.78910 0.53270 0.15870 0.22100
H 	H 	0.78020 0.51100 0.11730 0.22400
C 	C 	0.84681 0.87833 0.34830 0.35400
C 	C 	0.87022 0.91800 0.34798 -0.02300
C 	C 	0.88026 0.92612 0.38895 -0.15000
C 	C 	0.90148 0.96289 0.38979 0.20400
C 	C 	0.91311 0.99083 0.35049 -0.18700
C 	C 	0.90382 0.98282 0.31022 0.04100
C 	C 	0.88231 0.94607 0.30875 -0.07800
C 	C 	0.90221 0.94393 0.46949 0.13300
C 	C 	0.92048 0.95957 0.50596 -0.22000
C 	C 	0.89286 0.99102 0.53168 0.24500
C 	C 	0.90838 0.00226 0.56894 -0.22800
C 	C 	0.95142 0.98418 0.57893 0.27600
C 	C 	0.98022 0.95687 0.55029 -0.22100
C 	C 	0.96465 0.94428 0.51422 0.27800
C 	C 	0.87944 0.03624 0.59594 0.13600
C 	C 	0.88145 0.11362 0.60304 0.20400
C 	C 	0.83788 0.12061 0.62504 -0.15000
C 	C 	0.82135 0.16260 0.63786 -0.02900
C 	C 	0.84773 0.19643 0.62958 -0.07400
C 	C 	0.89238 0.18788 0.60968 0.04700
C 	C 	0.90887 0.14719 0.59653 -0.18300
C 	C 	0.77362 0.17196 0.65916 0.34800
C 	C 	0.02833 0.94237 0.55712 0.10900
C 	C 	0.07480 0.87793 0.59045 0.19100
C 	C 	0.07872 0.83446 0.61521 -0.13300
C 	C 	0.12033 0.81186 0.62284 -0.03600
C 	C 	0.15894 0.83094 0.60574 -0.07700
C 	C 	0.15560 0.87380 0.58140 0.03100
C 	C 	0.11339 0.89759 0.57399 -0.17700
C 	C 	0.12413 0.76539 0.65051 0.35800
C 	C 	0.84655 0.01233 0.51939 -0.59000
C 	C 	0.96679 0.99509 0.61979 -0.63100
C 	C 	0.99640 0.91486 0.48333 -0.64500
C 	C 	0.75495 0.91317 0.45431 0.30900
C 	C 	0.76167 0.95177 0.41727 -0.00900
C 	C 	0.75411 0.94941 0.37421 -0.16400
C 	C 	0.75989 0.98419 0.34049 0.21400
C 	C 	0.77524 0.02294 0.35014 -0.17800
C 	C 	0.78256 0.02496 0.39216 0.05400
C 	C 	0.77580 0.98970 0.42740 -0.09000
C 	C 	0.73588 0.94888 0.28578 0.13600
C 	C 	0.71840 0.96260 0.24100 -0.22900
C 	C 	0.74358 0.94988 0.20148 0.27500
C 	C 	0.72532 0.96202 0.16212 -0.22400
C 	C 	0.68269 0.98889 0.16159 0.27600
C 	C 	0.65999 0.00479 0.19989 -0.23600
C 	C 	0.67689 0.99039 0.24059 0.28500
C 	C 	0.75216 0.95036 0.11646 0.12900
C 	C 	0.74355 0.90145 0.06475 0.16900
C 	C 	0.72939 0.86075 0.06033 -0.12200
C 	C 	0.72924 0.84964 0.01834 -0.03000
C 	C 	0.74283 0.87863 0.97933 -0.07500
C 	C 	0.75770 0.91810 0.98430 0.03000
C 	C 	0.75813 0.92973 0.02573 -0.16700
C 	C 	0.71325 0.80605 0.01495 0.34100
C 	C 	0.61876 0.03976 0.19796 0.13400
C 	C 	0.53946 0.04466 0.19766 0.21300
C 	C 	0.53244 0.09074 0.19244 -0.15900
C 	C 	0.49100 0.11540 0.18330 -0.01900
C 	C 	0.45582 0.09162 0.18202 -0.08500
C 	C 	0.46394 0.04454 0.18864 0.05700
C 	C 	0.50488 0.02158 0.19628 -0.20200
C 	C 	0.48355 0.16475 0.17905 0.31700
C 	C 	0.78920 0.92160 0.20190 -0.58900
C 	C 	0.66119 0.00059 0.11829 -0.62700
C 	C 	0.64931 0.00511 0.28351 -0.64300
C 	C 	0.34830 0.84681 0.87833 0.35400
C 	C 	0.34798 0.87022 0.91800 -0.02300
C 	C 	0.38895 0.88026 0.92612 -0.15000
C 	C 	0.38979 0.90148 0.96289 0.20400
C 	C 	0.35049 0.91311 0.99083 -0.18700
C 	C 	0.31022 0.90382 0.98282 0.04100
C 	C 	0.30875 0.88231 0.94607 -0.07800
C 	C 	0.46949 0.90221 0.94393 0.13300
C 	C 	0.50596 0.92048 0.95957 -0.22000
C 	C 	0.53168 0.89286 0.99102 0.24500
C 	C 	0.56894 0.90838 0.00226 -0.22800
C 	C 	0.57893 0.95142 0.98418 0.27600
C 	C 	0.55029 0.98022 0.95687 -0.22100
C 	C 	0.51422 0.96465 0.94428 0.27800
C 	C 	0.59594 0.87944 0.03624 0.13600
C 	C 	0.60304 0.88145 0.11362 0.20400
C 	C 	0.62504 0.83788 0.12061 -0.15000
C 	C 	0.63786 0.82135 0.16260 -0.02900
C 	C 	0.62958 0.84773 0.19643 -0.07400
C 	C 	0.60968 0.89238 0.18788 0.04700
C 	C 	0.59653 0.90887 0.14719 -0.18300
C 	C 	0.65916 0.77362 0.17196 0.34800
C 	C 	0.55712 0.02833 0.94237 0.10900
C 	C 	0.59045 0.07480 0.87793 0.19100
C 	C 	0.61521 0.07872 0.83446 -0.13300
C 	C 	0.62284 0.12033 0.81186 -0.03600
C 	C 	0.60574 0.15894 0.83094 -0.07700
C 	C 	0.58140 0.15560 0.87380 0.03100
C 	C 	0.57399 0.11339 0.89759 -0.17700
C 	C 	0.65051 0.12413 0.76539 0.35800
C 	C 	0.51939 0.84655 0.01233 -0.59000
C 	C 	0.61979 0.96679 0.99509 -0.63100
C 	C 	0.48333 0.99640 0.91486 -0.64500
C 	C 	0.45431 0.75495 0.91317 0.30900
C 	C 	0.41727 0.76167 0.95177 -0.00900
C 	C 	0.37421 0.75411 0.94941 -0.16400
C 	C 	0.34049 0.75989 0.98419 0.21400
C 	C 	0.35014 0.77524 0.02294 -0.17800
C 	C 	0.39216 0.78256 0.02496 0.05400
C 	C 	0.42740 0.77580 0.98970 -0.09000
C 	C 	0.28578 0.73588 0.94888 0.13600
C 	C 	0.24100 0.71840 0.96260 -0.22900
C 	C 	0.20148 0.74358 0.94988 0.27500
C 	C 	0.16212 0.72532 0.96202 -0.22400
C 	C 	0.16159 0.68269 0.98889 0.27600
C 	C 	0.19989 0.65999 0.00479 -0.23600
C 	C 	0.24059 0.67689 0.99039 0.28500
C 	C 	0.11646 0.75216 0.95036 0.12900
C 	C 	0.06475 0.74355 0.90145 0.16900
C 	C 	0.06033 0.72939 0.86075 -0.12200
C 	C 	0.01834 0.72924 0.84964 -0.03000
C 	C 	0.97933 0.74283 0.87863 -0.07500
C 	C 	0.98430 0.75770 0.91810 0.03000
C 	C 	0.02573 0.75813 0.92973 -0.16700
C 	C 	0.01495 0.71325 0.80605 0.34100
C 	C 	0.19796 0.61876 0.03976 0.13400
C 	C 	0.19766 0.53946 0.04466 0.21300
C 	C 	0.19244 0.53244 0.09074 -0.15900
C 	C 	0.18330 0.49100 0.11540 -0.01900
C 	C 	0.18202 0.45582 0.09162 -0.08500
C 	C 	0.18864 0.46394 0.04454 0.05700
C 	C 	0.19628 0.50488 0.02158 -0.20200
C 	C 	0.17905 0.48355 0.16475 0.31700
C 	C 	0.20190 0.78920 0.92160 -0.58900
C 	C 	0.11829 0.66119 0.00059 -0.62700
C 	C 	0.28351 0.64931 0.00511 -0.64300
C 	C 	0.87833 0.34830 0.84681 0.35400
C 	C 	0.91800 0.34798 0.87022 -0.02300
C 	C 	0.92612 0.38895 0.88026 -0.15000
C 	C 	0.96289 0.38979 0.90148 0.20400
C 	C 	0.99083 0.35049 0.91311 -0.18700
C 	C 	0.98282 0.31022 0.90382 0.04100
C 	C 	0.94607 0.30875 0.88231 -0.07800
C 	C 	0.94393 0.46949 0.90221 0.13300
C 	C 	0.95957 0.50596 0.92048 -0.22000
C 	C 	0.99102 0.53168 0.89286 0.24500
C 	C 	0.00226 0.56894 0.90838 -0.22800
C 	C 	0.98418 0.57893 0.95142 0.27600
C 	C 	0.95687 0.55029 0.98022 -0.22100
C 	C 	0.94428 0.51422 0.96465 0.27800
C 	C 	0.03624 0.59594 0.87944 0.13600
C 	C 	0.11362 0.60304 0.88145 0.20400
C 	C 	0.12061 0.62504 0.83788 -0.15000
C 	C 	0.16260 0.63786 0.82135 -0.02900
C 	C 	0.19643 0.62958 0.84773 -0.07400
C 	C 	0.18788 0.60968 0.89238 0.04700
C 	C 	0.14719 0.59653 0.90887 -0.18300
C 	C 	0.17196 0.65916 0.77362 0.34800
C 	C 	0.94237 0.55712 0.02833 0.10900
C 	C 	0.87793 0.59045 0.07480 0.19100
C 	C 	0.83446 0.61521 0.07872 -0.13300
C 	C 	0.81186 0.62284 0.12033 -0.03600
C 	C 	0.83094 0.60574 0.15894 -0.07700
C 	C 	0.87380 0.58140 0.15560 0.03100
C 	C 	0.89759 0.57399 0.11339 -0.17700
C 	C 	0.76539 0.65051 0.12413 0.35800
C 	C 	0.01233 0.51939 0.84655 -0.59000
C 	C 	0.99509 0.61979 0.96679 -0.63100
C 	C 	0.91486 0.48333 0.99640 -0.64500
C 	C 	0.91317 0.45431 0.75495 0.30900
C 	C 	0.95177 0.41727 0.76167 -0.00900
C 	C 	0.94941 0.37421 0.75411 -0.16400
C 	C 	0.98419 0.34049 0.75989 0.21400
C 	C 	0.02294 0.35014 0.77524 -0.17800
C 	C 	0.02496 0.39216 0.78256 0.05400
C 	C 	0.98970 0.42740 0.77580 -0.09000
C 	C 	0.94888 0.28578 0.73588 0.13600
C 	C 	0.96260 0.24100 0.71840 -0.22900
C 	C 	0.94988 0.20148 0.74358 0.27500
C 	C 	0.96202 0.16212 0.72532 -0.22400
C 	C 	0.98889 0.16159 0.68269 0.27600
C 	C 	0.00479 0.19989 0.65999 -0.23600
C 	C 	0.99039 0.24059 0.67689 0.28500
C 	C 	0.95036 0.11646 0.75216 0.12900
C 	C 	0.90145 0.06475 0.74355 0.16900
C 	C 	0.86075 0.06033 0.72939 -0.12200
C 	C 	0.84964 0.01834 0.72924 -0.03000
C 	C 	0.87863 0.97933 0.74283 -0.07500
C 	C 	0.91810 0.98430 0.75770 0.03000
C 	C 	0.92973 0.02573 0.75813 -0.16700
C 	C 	0.80605 0.01495 0.71325 0.34100
C 	C 	0.03976 0.19796 0.61876 0.13400
C 	C 	0.04466 0.19766 0.53946 0.21300
C 	C 	0.09074 0.19244 0.53244 -0.15900
C 	C 	0.11540 0.18330 0.49100 -0.01900
C 	C 	0.09162 0.18202 0.45582 -0.08500
C 	C 	0.04454 0.18864 0.46394 0.05700
C 	C 	0.02158 0.19628 0.50488 -0.20200
C 	C 	0.16475 0.17905 0.48355 0.31700
C 	C 	0.92160 0.20190 0.78920 -0.58900
C 	C 	0.00059 0.11829 0.66119 -0.62700
C 	C 	0.00511 0.28351 0.64931 -0.64300
C 	C 	0.62167 0.65319 0.15170 0.35400
C 	C 	0.58200 0.62978 0.15202 -0.02300
C 	C 	0.57388 0.61974 0.11105 -0.15000
C 	C 	0.53711 0.59852 0.11021 0.20400
C 	C 	0.50917 0.58689 0.14951 -0.18700
C 	C 	0.51718 0.59618 0.18978 0.04100
C 	C 	0.55393 0.61769 0.19125 -0.07800
C 	C 	0.55607 0.59779 0.03051 0.13300
C 	C 	0.54043 0.57952 0.99404 -0.22000
C 	C 	0.50898 0.60714 0.96832 0.24400
C 	C 	0.49774 0.59162 0.93106 -0.22700
C 	C 	0.51582 0.54858 0.92107 0.27600
C 	C 	0.54313 0.51978 0.94971 -0.22100
C 	C 	0.55572 0.53535 0.98578 0.27900
C 	C 	0.46376 0.62056 0.90406 0.13600
C 	C 	0.38638 0.61855 0.89696 0.20400
C 	C 	0.37939 0.66212 0.87496 -0.15000
C 	C 	0.33740 0.67865 0.86214 -0.02900
C 	C 	0.30357 0.65227 0.87042 -0.07400
C 	C 	0.31212 0.60762 0.89032 0.04700
C 	C 	0.35281 0.59113 0.90347 -0.18300
C 	C 	0.32804 0.72638 0.84084 0.34800
C 	C 	0.55763 0.47167 0.94288 0.11000
C 	C 	0.62207 0.42520 0.90955 0.19100
C 	C 	0.66554 0.42128 0.88479 -0.13300
C 	C 	0.68814 0.37967 0.87716 -0.03600
C 	C 	0.66906 0.34106 0.89426 -0.07700
C 	C 	0.62620 0.34440 0.91860 0.03100
C 	C 	0.60241 0.38661 0.92601 -0.17700
C 	C 	0.73461 0.37587 0.84949 0.35800
C 	C 	0.48767 0.65345 0.98061 -0.58800
C 	C 	0.50491 0.53321 0.88021 -0.63300
C 	C 	0.58514 0.50360 0.01667 -0.64600
C 	C 	0.58683 0.74505 0.04569 0.30900
C 	C 	0.54823 0.73833 0.08273 -0.00900
C 	C 	0.55059 0.74589 0.12579 -0.16400
C 	C 	0.51581 0.74011 0.15951 0.21400
C 	C 	0.47706 0.72476 0.14986 -0.17800
C 	C 	0.47504 0.71744 0.10784 0.05400
C 	C 	0.51030 0.72420 0.07260 -0.09000
C 	C 	0.55112 0.76412 0.21422 0.13600
C 	C 	0.53740 0.78160 0.25900 -0.22900
C 	C 	0.55012 0.75642 0.29852 0.27500
C 	C 	0.53798 0.77468 0.33788 -0.22400
C 	C 	0.51111 0.81731 0.33841 0.27600
C 	C 	0.49521 0.84001 0.30011 -0.23600
C 	C 	0.50961 0.82311 0.25941 0.28500
C 	C 	0.54964 0.74784 0.38354 0.12900
C 	C 	0.59855 0.75645 0.43525 0.16900
C 	C 	0.63925 0.77061 0.43967 -0.12200
C 	C 	0.65036 0.77076 0.48166 -0.03000
C 	C 	0.62137 0.75717 0.52067 -0.07500
C 	C 	0.58190 0.74230 0.51570 0.03000
C 	C 	0.57027 0.74187 0.47427 -0.16700
C 	C 	0.69395 0.78675 0.48505 0.34100
C 	C 	0.46024 0.88124 0.30204 0.13400
C 	C 	0.45534 0.96054 0.30234 0.21400
C 	C 	0.40926 0.96756 0.30756 -0.16000
C 	C 	0.38460 0.00900 0.31670 -0.01900
C 	C 	0.40838 0.04418 0.31798 -0.08500
C 	C 	0.45546 0.03606 0.31136 0.05800
C 	C 	0.47842 0.99512 0.30372 -0.20300
C 	C 	0.33525 0.01645 0.32095 0.31700
C 	C 	0.57840 0.71080 0.29810 -0.58900
C 	C 	0.49941 0.83881 0.38171 -0.62700
C 	C 	0.49489 0.85069 0.21649 -0.64300
C 	C 	0.65319 0.15170 0.62167 0.35400
C 	C 	0.62978 0.15202 0.58200 -0.02300
C 	C 	0.61974 0.11105 0.57388 -0.15000
C 	C 	0.59852 0.11021 0.53711 0.20400
C 	C 	0.58689 0.14951 0.50917 -0.18700
C 	C 	0.59618 0.18978 0.51718 0.04100
C 	C 	0.61769 0.19125 0.55393 -0.07800
C 	C 	0.59779 0.03051 0.55607 0.13300
C 	C 	0.57952 0.99404 0.54043 -0.22000
C 	C 	0.60714 0.96832 0.50898 0.24400
C 	C 	0.59162 0.93106 0.49774 -0.22700
C 	C 	0.54858 0.92107 0.51582 0.27600
C 	C 	0.51978 0.94971 0.54313 -0.22100
C 	C 	0.53535 0.98578 0.55572 0.27900
C 	C 	0.62056 0.90406 0.46376 0.13600
C 	C 	0.61855 0.89696 0.38638 0.20400
C 	C 	0.66212 0.87496 0.37939 -0.15000
C 	C 	0.67865 0.86214 0.33740 -0.02900
C 	C 	0.65227 0.87042 0.30357 -0.07400
C 	C 	0.60762 0.89032 0.31212 0.04700
C 	C 	0.59113 0.90347 0.35281 -0.18300
C 	C 	0.72638 0.84084 0.32804 0.34800
C 	C 	0.47167 0.94288 0.55763 0.11000
C 	C 	0.42520 0.90955 0.62207 0.19100
C 	C 	0.42128 0.88479 0.66554 -0.13300
C 	C 	0.37967 0.87716 0.68814 -0.03600
C 	C 	0.34106 0.89426 0.66906 -0.07700
C 	C 	0.34440 0.91860 0.62620 0.03100
C 	C 	0.38661 0.92601 0.60241 -0.17700
C 	C 	0.37587 0.84949 0.73461 0.35800
C 	C 	0.65345 0.98061 0.48767 -0.58800
C 	C 	0.53321 0.88021 0.50491 -0.63300
C 	C 	0.50360 0.01667 0.58514 -0.64600
C 	C 	0.74505 0.04569 0.58683 0.30900
C 	C 	0.73833 0.08273 0.54823 -0.00900
C 	C 	0.74589 0.12579 0.55059 -0.16400
C 	C 	0.74011 0.15951 0.51581 0.21400
C 	C 	0.72476 0.14986 0.47706 -0.17800
C 	C 	0.71744 0.10784 0.47504 0.05400
C 	C 	0.72420 0.07260 0.51030 -0.09000
C 	C 	0.76412 0.21422 0.55112 0.13600
C 	C 	0.78160 0.25900 0.53740 -0.22900
C 	C 	0.75642 0.29852 0.55012 0.27500
C 	C 	0.77468 0.33788 0.53798 -0.22400
C 	C 	0.81731 0.33841 0.51111 0.27600
C 	C 	0.84001 0.30011 0.49521 -0.23600
C 	C 	0.82311 0.25941 0.50961 0.28500
C 	C 	0.74784 0.38354 0.54964 0.12900
C 	C 	0.75645 0.43525 0.59855 0.16900
C 	C 	0.77061 0.43967 0.63925 -0.12200
C 	C 	0.77076 0.48166 0.65036 -0.03000
C 	C 	0.75717 0.52067 0.62137 -0.07500
C 	C 	0.74230 0.51570 0.58190 0.03000
C 	C 	0.74187 0.47427 0.57027 -0.16700
C 	C 	0.78675 0.48505 0.69395 0.34100
C 	C 	0.88124 0.30204 0.46024 0.13400
C 	C 	0.96054 0.30234 0.45534 0.21400
C 	C 	0.96756 0.30756 0.40926 -0.16000
C 	C 	0.00900 0.31670 0.38460 -0.01900
C 	C 	0.04418 0.31798 0.40838 -0.08500
C 	C 	0.03606 0.31136 0.45546 0.05800
C 	C 	0.99512 0.30372 0.47842 -0.20300
C 	C 	0.01645 0.32095 0.33525 0.31700
C 	C 	0.71080 0.29810 0.57840 -0.58900
C 	C 	0.83881 0.38171 0.49941 -0.62700
C 	C 	0.85069 0.21649 0.49489 -0.64300
C 	C 	0.15170 0.62167 0.65319 0.35400
C 	C 	0.15202 0.58200 0.62978 -0.02300
C 	C 	0.11105 0.57388 0.61974 -0.15000
C 	C 	0.11021 0.53711 0.59852 0.20400
C 	C 	0.14951 0.50917 0.58689 -0.18700
C 	C 	0.18978 0.51718 0.59618 0.04100
C 	C 	0.19125 0.55393 0.61769 -0.07800
C 	C 	0.03051 0.55607 0.59779 0.13300
C 	C 	0.99404 0.54043 0.57952 -0.22000
C 	C 	0.96832 0.50898 0.60714 0.24400
C 	C 	0.93106 0.49774 0.59162 -0.22700
C 	C 	0.92107 0.51582 0.54858 0.27600
C 	C 	0.94971 0.54313 0.51978 -0.22100
C 	C 	0.98578 0.55572 0.53535 0.27900
C 	C 	0.90406 0.46376 0.62056 0.13600
C 	C 	0.89696 0.38638 0.61855 0.20400
C 	C 	0.87496 0.37939 0.66212 -0.15000
C 	C 	0.86214 0.33740 0.67865 -0.02900
C 	C 	0.87042 0.30357 0.65227 -0.07400
C 	C 	0.89032 0.31212 0.60762 0.04700
C 	C 	0.90347 0.35281 0.59113 -0.18300
C 	C 	0.84084 0.32804 0.72638 0.34800
C 	C 	0.94288 0.55763 0.47167 0.11000
C 	C 	0.90955 0.62207 0.42520 0.19100
C 	C 	0.88479 0.66554 0.42128 -0.13300
C 	C 	0.87716 0.68814 0.37967 -0.03600
C 	C 	0.89426 0.66906 0.34106 -0.07700
C 	C 	0.91860 0.62620 0.34440 0.03100
C 	C 	0.92601 0.60241 0.38661 -0.17700
C 	C 	0.84949 0.73461 0.37587 0.35800
C 	C 	0.98061 0.48767 0.65345 -0.58800
C 	C 	0.88021 0.50491 0.53321 -0.63300
C 	C 	0.01667 0.58514 0.50360 -0.64600
C 	C 	0.04569 0.58683 0.74505 0.30900
C 	C 	0.08273 0.54823 0.73833 -0.00900
C 	C 	0.12579 0.55059 0.74589 -0.16400
C 	C 	0.15951 0.51581 0.74011 0.21400
C 	C 	0.14986 0.47706 0.72476 -0.17800
C 	C 	0.10784 0.47504 0.71744 0.05400
C 	C 	0.07260 0.51030 0.72420 -0.09000
C 	C 	0.21422 0.55112 0.76412 0.13600
C 	C 	0.25900 0.53740 0.78160 -0.22900
C 	C 	0.29852 0.55012 0.75642 0.27500
C 	C 	0.33788 0.53798 0.77468 -0.22400
C 	C 	0.33841 0.51111 0.81731 0.27600
C 	C 	0.30011 0.49521 0.84001 -0.23600
C 	C 	0.25941 0.50961 0.82311 0.28500
C 	C 	0.38354 0.54964 0.74784 0.12900
C 	C 	0.43525 0.59855 0.75645 0.16900
C 	C 	0.43967 0.63925 0.77061 -0.12200
C 	C 	0.48166 0.65036 0.77076 -0.03000
C 	C 	0.52067 0.62137 0.75717 -0.07500
C 	C 	0.51570 0.58190 0.74230 0.03000
C 	C 	0.47427 0.57027 0.74187 -0.16700
C 	C 	0.48505 0.69395 0.78675 0.34100
C 	C 	0.30204 0.46024 0.88124 0.13400
C 	C 	0.30234 0.45534 0.96054 0.21400
C 	C 	0.30756 0.40926 0.96756 -0.16000
C 	C 	0.31670 0.38460 0.00900 -0.01900
C 	C 	0.31798 0.40838 0.04418 -0.08500
C 	C 	0.31136 0.45546 0.03606 0.05800
C 	C 	0.30372 0.47842 0.99512 -0.20300
C 	C 	0.32095 0.33525 0.01645 0.31700
C 	C 	0.29810 0.57840 0.71080 -0.58900
C 	C 	0.38171 0.49941 0.83881 -0.62700
C 	C 	0.21649 0.49489 0.85069 -0.64300
C 	C 	0.15319 0.12167 0.65170 0.35400
C 	C 	0.12978 0.08200 0.65202 -0.02300
C 	C 	0.11974 0.07388 0.61105 -0.15000
C 	C 	0.09852 0.03711 0.61021 0.20400
C 	C 	0.08689 0.00917 0.64951 -0.18700
C 	C 	0.09618 0.01718 0.68978 0.04100
C 	C 	0.11769 0.05393 0.69125 -0.07800
C 	C 	0.09779 0.05607 0.53051 0.13300
C 	C 	0.07952 0.04043 0.49404 -0.22000
C 	C 	0.10714 0.00898 0.46832 0.24500
C 	C 	0.09162 0.99774 0.43106 -0.22800
C 	C 	0.04858 0.01582 0.42107 0.27600
C 	C 	0.01978 0.04313 0.44971 -0.22100
C 	C 	0.03535 0.05572 0.48578 0.27800
C 	C 	0.12056 0.96376 0.40406 0.13600
C 	C 	0.11855 0.88638 0.39696 0.20400
C 	C 	0.16212 0.87939 0.37496 -0.15000
C 	C 	0.17865 0.83740 0.36214 -0.02900
C 	C 	0.15227 0.80357 0.37042 -0.07400
C 	C 	0.10762 0.81212 0.39032 0.04700
C 	C 	0.09113 0.85281 0.40347 -0.18300
C 	C 	0.22638 0.82804 0.34084 0.34800
C 	C 	0.97167 0.05763 0.44288 0.10900
C 	C 	0.92520 0.12207 0.40955 0.19100
C 	C 	0.92128 0.16554 0.38479 -0.13300
C 	C 	0.87967 0.18814 0.37716 -0.03600
C 	C 	0.84106 0.16906 0.39426 -0.07700
C 	C 	0.84440 0.12620 0.41860 0.03100
C 	C 	0.88661 0.10241 0.42601 -0.17700
C 	C 	0.87587 0.23461 0.34949 0.35800
C 	C 	0.15345 0.98767 0.48061 -0.59000
C 	C 	0.03321 0.00491 0.38021 -0.63100
C 	C 	0.00360 0.08514 0.51667 -0.64500
C 	C 	0.24505 0.08683 0.54569 0.30900
C 	C 	0.23833 0.04823 0.58273 -0.00900
C 	C 	0.24589 0.05059 0.62579 -0.16400
C 	C 	0.24011 0.01581 0.65951 0.21400
C 	C 	0.22476 0.97706 0.64986 -0.17800
C 	C 	0.21744 0.97504 0.60784 0.05400
C 	C 	0.22420 0.01030 0.57260 -0.09000
C 	C 	0.26412 0.05112 0.71422 0.13600
C 	C 	0.28160 0.03740 0.75900 -0.22900
C 	C 	0.25642 0.05012 0.79852 0.27500
C 	C 	0.27468 0.03798 0.83788 -0.22400
C 	C 	0.31731 0.01111 0.83841 0.27600
C 	C 	0.34001 0.99521 0.80011 -0.23600
C 	C 	0.32311 0.00961 0.75941 0.28500
C 	C 	0.24784 0.04964 0.88354 0.12900
C 	C 	0.25645 0.09855 0.93525 0.16900
C 	C 	0.27061 0.13925 0.93967 -0.12200
C 	C 	0.27076 0.15036 0.98166 -0.03000
C 	C 	0.25717 0.12137 0.02067 -0.07500
C 	C 	0.24230 0.08190 0.01570 0.03000
C 	C 	0.24187 0.07027 0.97427 -0.16700
C 	C 	0.28675 0.19395 0.98505 0.34100
C 	C 	0.38124 0.96024 0.80204 0.13400
C 	C 	0.46054 0.95534 0.80234 0.21300
C 	C 	0.46756 0.90926 0.80756 -0.15900
C 	C 	0.50900 0.88460 0.81670 -0.01900
C 	C 	0.54418 0.90838 0.81798 -0.08500
C 	C 	0.53606 0.95546 0.81136 0.05700
C 	C 	0.49512 0.97842 0.80372 -0.20200
C 	C 	0.51645 0.83525 0.82095 0.31700
C 	C 	0.21080 0.07840 0.79810 -0.58900
C 	C 	0.33881 0.99941 0.88171 -0.62700
C 	C 	0.35069 0.99489 0.71649 -0.64300
C 	C 	0.65170 0.15319 0.12167 0.35400
C 	C 	0.65202 0.12978 0.08200 -0.02300
C 	C 	0.61105 0.11974 0.07388 -0.15000
C 	C 	0.61021 0.09852 0.03711 0.20400
C 	C 	0.64951 0.08689 0.00917 -0.18700
C 	C 	0.68978 0.09618 0.01718 0.04100
C 	C 	0.69125 0.11769 0.05393 -0.07800
C 	C 	0.53051 0.09779 0.05607 0.13300
C 	C 	0.49404 0.07952 0.04043 -0.22000
C 	C 	0.46832 0.10714 0.00898 0.24500
C 	C 	0.43106 0.09162 0.99774 -0.22800
C 	C 	0.42107 0.04858 0.01582 0.27600
C 	C 	0.44971 0.01978 0.04313 -0.22100
C 	C 	0.48578 0.03535 0.05572 0.27800
C 	C 	0.40406 0.12056 0.96376 0.13600
C 	C 	0.39696 0.11855 0.88638 0.20400
C 	C 	0.37496 0.16212 0.87939 -0.15000
C 	C 	0.36214 0.17865 0.83740 -0.02900
C 	C 	0.37042 0.15227 0.80357 -0.07400
C 	C 	0.39032 0.10762 0.81212 0.04700
C 	C 	0.40347 0.09113 0.85281 -0.18300
C 	C 	0.34084 0.22638 0.82804 0.34800
C 	C 	0.44288 0.97167 0.05763 0.10900
C 	C 	0.40955 0.92520 0.12207 0.19100
C 	C 	0.38479 0.92128 0.16554 -0.13300
C 	C 	0.37716 0.87967 0.18814 -0.03600
C 	C 	0.39426 0.84106 0.16906 -0.07700
C 	C 	0.41860 0.84440 0.12620 0.03100
C 	C 	0.42601 0.88661 0.10241 -0.17700
C 	C 	0.34949 0.87587 0.23461 0.35800
C 	C 	0.48061 0.15345 0.98767 -0.59000
C 	C 	0.38021 0.03321 0.00491 -0.63100
C 	C 	0.51667 0.00360 0.08514 -0.64500
C 	C 	0.54569 0.24505 0.08683 0.30900
C 	C 	0.58273 0.23833 0.04823 -0.00900
C 	C 	0.62579 0.24589 0.05059 -0.16400
C 	C 	0.65951 0.24011 0.01581 0.21400
C 	C 	0.64986 0.22476 0.97706 -0.17800
C 	C 	0.60784 0.21744 0.97504 0.05400
C 	C 	0.57260 0.22420 0.01030 -0.09000
C 	C 	0.71422 0.26412 0.05112 0.13600
C 	C 	0.75900 0.28160 0.03740 -0.22900
C 	C 	0.79852 0.25642 0.05012 0.27500
C 	C 	0.83788 0.27468 0.03798 -0.22400
C 	C 	0.83841 0.31731 0.01111 0.27600
C 	C 	0.80011 0.34001 0.99521 -0.23600
C 	C 	0.75941 0.32311 0.00961 0.28500
C 	C 	0.88354 0.24784 0.04964 0.12900
C 	C 	0.93525 0.25645 0.09855 0.16900
C 	C 	0.93967 0.27061 0.13925 -0.12200
C 	C 	0.98166 0.27076 0.15036 -0.03000
C 	C 	0.02067 0.25717 0.12137 -0.07500
C 	C 	0.01570 0.24230 0.08190 0.03000
C 	C 	0.97427 0.24187 0.07027 -0.16700
C 	C 	0.98505 0.28675 0.19395 0.34100
C 	C 	0.80204 0.38124 0.96024 0.13400
C 	C 	0.80234 0.46054 0.95534 0.21300
C 	C 	0.80756 0.46756 0.90926 -0.15900
C 	C 	0.81670 0.50900 0.88460 -0.01900
C 	C 	0.81798 0.54418 0.90838 -0.08500
C 	C 	0.81136 0.53606 0.95546 0.05700
C 	C 	0.80372 0.49512 0.97842 -0.20200
C 	C 	0.82095 0.51645 0.83525 0.31700
C 	C 	0.79810 0.21080 0.07840 -0.58900
C 	C 	0.88171 0.33881 0.99941 -0.62700
C 	C 	0.71649 0.35069 0.99489 -0.64300
C 	C 	0.12167 0.65170 0.15319 0.35400
C 	C 	0.08200 0.65202 0.12978 -0.02300
C 	C 	0.07388 0.61105 0.11974 -0.15000
C 	C 	0.03711 0.61021 0.09852 0.20400
C 	C 	0.00917 0.64951 0.08689 -0.18700
C 	C 	0.01718 0.68978 0.09618 0.04100
C 	C 	0.05393 0.69125 0.11769 -0.07800
C 	C 	0.05607 0.53051 0.09779 0.13300
C 	C 	0.04043 0.49404 0.07952 -0.22000
C 	C 	0.00898 0.46832 0.10714 0.24500
C 	C 	0.99774 0.43106 0.09162 -0.22800
C 	C 	0.01582 0.42107 0.04858 0.27600
C 	C 	0.04313 0.44971 0.01978 -0.22100
C 	C 	0.05572 0.48578 0.03535 0.27800
C 	C 	0.96376 0.40406 0.12056 0.13600
C 	C 	0.88638 0.39696 0.11855 0.20400
C 	C 	0.87939 0.37496 0.16212 -0.15000
C 	C 	0.83740 0.36214 0.17865 -0.02900
C 	C 	0.80357 0.37042 0.15227 -0.07400
C 	C 	0.81212 0.39032 0.10762 0.04700
C 	C 	0.85281 0.40347 0.09113 -0.18300
C 	C 	0.82804 0.34084 0.22638 0.34800
C 	C 	0.05763 0.44288 0.97167 0.10900
C 	C 	0.12207 0.40955 0.92520 0.19100
C 	C 	0.16554 0.38479 0.92128 -0.13300
C 	C 	0.18814 0.37716 0.87967 -0.03600
C 	C 	0.16906 0.39426 0.84106 -0.07700
C 	C 	0.12620 0.41860 0.84440 0.03100
C 	C 	0.10241 0.42601 0.88661 -0.17700
C 	C 	0.23461 0.34949 0.87587 0.35800
C 	C 	0.98767 0.48061 0.15345 -0.59000
C 	C 	0.00491 0.38021 0.03321 -0.63100
C 	C 	0.08514 0.51667 0.00360 -0.64500
C 	C 	0.08683 0.54569 0.24505 0.30900
C 	C 	0.04823 0.58273 0.23833 -0.00900
C 	C 	0.05059 0.62579 0.24589 -0.16400
C 	C 	0.01581 0.65951 0.24011 0.21400
C 	C 	0.97706 0.64986 0.22476 -0.17800
C 	C 	0.97504 0.60784 0.21744 0.05400
C 	C 	0.01030 0.57260 0.22420 -0.09000
C 	C 	0.05112 0.71422 0.26412 0.13600
C 	C 	0.03740 0.75900 0.28160 -0.22900
C 	C 	0.05012 0.79852 0.25642 0.27500
C 	C 	0.03798 0.83788 0.27468 -0.22400
C 	C 	0.01111 0.83841 0.31731 0.27600
C 	C 	0.99521 0.80011 0.34001 -0.23600
C 	C 	0.00961 0.75941 0.32311 0.28500
C 	C 	0.04964 0.88354 0.24784 0.12900
C 	C 	0.09855 0.93525 0.25645 0.16900
C 	C 	0.13925 0.93967 0.27061 -0.12200
C 	C 	0.15036 0.98166 0.27076 -0.03000
C 	C 	0.12137 0.02067 0.25717 -0.07500
C 	C 	0.08190 0.01570 0.24230 0.03000
C 	C 	0.07027 0.97427 0.24187 -0.16700
C 	C 	0.19395 0.98505 0.28675 0.34100
C 	C 	0.96024 0.80204 0.38124 0.13400
C 	C 	0.95534 0.80234 0.46054 0.21300
C 	C 	0.90926 0.80756 0.46756 -0.15900
C 	C 	0.88460 0.81670 0.50900 -0.01900
C 	C 	0.90838 0.81798 0.54418 -0.08500
C 	C 	0.95546 0.81136 0.53606 0.05700
C 	C 	0.97842 0.80372 0.49512 -0.20200
C 	C 	0.83525 0.82095 0.51645 0.31700
C 	C 	0.07840 0.79810 0.21080 -0.58900
C 	C 	0.99941 0.88171 0.33881 -0.62700
C 	C 	0.99489 0.71649 0.35069 -0.64300
C 	C 	0.37833 0.34681 0.84830 0.35400
C 	C 	0.41800 0.37022 0.84798 -0.02300
C 	C 	0.42612 0.38026 0.88895 -0.15000
C 	C 	0.46289 0.40148 0.88979 0.20400
C 	C 	0.49083 0.41311 0.85049 -0.18700
C 	C 	0.48282 0.40382 0.81022 0.04100
C 	C 	0.44607 0.38231 0.80875 -0.07800
C 	C 	0.44393 0.40221 0.96949 0.13300
C 	C 	0.45957 0.42048 0.00596 -0.22000
C 	C 	0.49102 0.39286 0.03168 0.24400
C 	C 	0.50226 0.40838 0.06894 -0.22700
C 	C 	0.48418 0.45142 0.07893 0.27600
C 	C 	0.45687 0.48022 0.05029 -0.22100
C 	C 	0.44428 0.46465 0.01422 0.27900
C 	C 	0.53624 0.37944 0.09594 0.13600
C 	C 	0.61362 0.38145 0.10304 0.20400
C 	C 	0.62061 0.33788 0.12504 -0.15000
C 	C 	0.66260 0.32135 0.13786 -0.02900
C 	C 	0.69643 0.34773 0.12958 -0.07400
C 	C 	0.68788 0.39238 0.10968 0.04700
C 	C 	0.64719 0.40887 0.09653 -0.18300
C 	C 	0.67196 0.27362 0.15916 0.34800
C 	C 	0.44237 0.52833 0.05712 0.11000
C 	C 	0.37793 0.57480 0.09045 0.19100
C 	C 	0.33446 0.57872 0.11521 -0.13300
C 	C 	0.31186 0.62033 0.12284 -0.03600
C 	C 	0.33094 0.65894 0.10574 -0.07700
C 	C 	0.37380 0.65560 0.08140 0.03100
C 	C 	0.39759 0.61339 0.07399 -0.17700
C 	C 	0.26539 0.62413 0.15051 0.35800
C 	C 	0.51233 0.34655 0.01939 -0.58800
C 	C 	0.49509 0.46679 0.11979 -0.63300
C 	C 	0.41486 0.49640 0.98333 -0.64600
C 	C 	0.41317 0.25495 0.95431 0.30900
C 	C 	0.45177 0.26167 0.91727 -0.00900
C 	C 	0.44941 0.25411 0.87421 -0.16400
C 	C 	0.48419 0.25989 0.84049 0.21400
C 	C 	0.52294 0.27524 0.85014 -0.17800
C 	C 	0.52496 0.28256 0.89216 0.05400
C 	C 	0.48970 0.27580 0.92740 -0.09000
C 	C 	0.44888 0.23588 0.78578 0.13600
C 	C 	0.46260 0.21840 0.74100 -0.22900
C 	C 	0.44988 0.24358 0.70148 0.27500
C 	C 	0.46202 0.22532 0.66212 -0.22400
C 	C 	0.48889 0.18269 0.66159 0.27600
C 	C 	0.50479 0.15999 0.69989 -0.23600
C 	C 	0.49039 0.17689 0.74059 0.28500
C 	C 	0.45036 0.25216 0.61646 0.12900
C 	C 	0.40145 0.24355 0.56475 0.16900
C 	C 	0.36075 0.22939 0.56033 -0.12200
C 	C 	0.34964 0.22924 0.51834 -0.03000
C 	C 	0.37863 0.24283 0.47933 -0.07500
C 	C 	0.41810 0.25770 0.48430 0.03000
C 	C 	0.42973 0.25813 0.52573 -0.16700
C 	C 	0.30605 0.21325 0.51495 0.34100
C 	C 	0.53976 0.11876 0.69796 0.13400
C 	C 	0.54466 0.03946 0.69766 0.21400
C 	C 	0.59074 0.03244 0.69244 -0.16000
C 	C 	0.61540 0.99100 0.68330 -0.01900
C 	C 	0.59162 0.95582 0.68202 -0.08500
C 	C 	0.54454 0.96394 0.68864 0.05800
C 	C 	0.52158 0.00488 0.69628 -0.20300
C 	C 	0.66475 0.98355 0.67905 0.31700
C 	C 	0.42160 0.28920 0.70190 -0.58900
C 	C 	0.50059 0.16119 0.61829 -0.62700
C 	C 	0.50511 0.14931 0.78351 -0.64300
C 	C 	0.34681 0.84830 0.37833 0.35400
C 	C 	0.37022 0.84798 0.41800 -0.02300
C 	C 	0.38026 0.88895 0.42612 -0.15000
C 	C 	0.40148 0.88979 0.46289 0.20400
C 	C 	0.41311 0.85049 0.49083 -0.18700
C 	C 	0.40382 0.81022 0.48282 0.04100
C 	C 	0.38231 0.80875 0.44607 -0.07800
C 	C 	0.40221 0.96949 0.44393 0.13300
C 	C 	0.42048 0.00596 0.45957 -0.22000
C 	C 	0.39286 0.03168 0.49102 0.24400
C 	C 	0.40838 0.06894 0.50226 -0.22700
C 	C 	0.45142 0.07893 0.48418 0.27600
C 	C 	0.48022 0.05029 0.45687 -0.22100
C 	C 	0.46465 0.01422 0.44428 0.27900
C 	C 	0.37944 0.09594 0.53624 0.13600
C 	C 	0.38145 0.10304 0.61362 0.20400
C 	C 	0.33788 0.12504 0.62061 -0.15000
C 	C 	0.32135 0.13786 0.66260 -0.02900
C 	C 	0.34773 0.12958 0.69643 -0.07400
C 	C 	0.39238 0.10968 0.68788 0.04700
C 	C 	0.40887 0.09653 0.64719 -0.18300
C 	C 	0.27362 0.15916 0.67196 0.34800
C 	C 	0.52833 0.05712 0.44237 0.11000
C 	C 	0.57480 0.09045 0.37793 0.19100
C 	C 	0.57872 0.11521 0.33446 -0.13300
C 	C 	0.62033 0.12284 0.31186 -0.03600
C 	C 	0.65894 0.10574 0.33094 -0.07700
C 	C 	0.65560 0.08140 0.37380 0.03100
C 	C 	0.61339 0.07399 0.39759 -0.17700
C 	C 	0.62413 0.15051 0.26539 0.35800
C 	C 	0.34655 0.01939 0.51233 -0.58800
C 	C 	0.46679 0.11979 0.49509 -0.63300
C 	C 	0.49640 0.98333 0.41486 -0.64600
C 	C 	0.25495 0.95431 0.41317 0.30900
C 	C 	0.26167 0.91727 0.45177 -0.00900
C 	C 	0.25411 0.87421 0.44941 -0.16400
C 	C 	0.25989 0.84049 0.48419 0.21400
C 	C 	0.27524 0.85014 0.52294 -0.17800
C 	C 	0.28256 0.89216 0.52496 0.05400
C 	C 	0.27580 0.92740 0.48970 -0.09000
C 	C 	0.23588 0.78578 0.44888 0.13600
C 	C 	0.21840 0.74100 0.46260 -0.22900
C 	C 	0.24358 0.70148 0.44988 0.27500
C 	C 	0.22532 0.66212 0.46202 -0.22400
C 	C 	0.18269 0.66159 0.48889 0.27600
C 	C 	0.15999 0.69989 0.50479 -0.23600
C 	C 	0.17689 0.74059 0.49039 0.28500
C 	C 	0.25216 0.61646 0.45036 0.12900
C 	C 	0.24355 0.56475 0.40145 0.16900
C 	C 	0.22939 0.56033 0.36075 -0.12200
C 	C 	0.22924 0.51834 0.34964 -0.03000
C 	C 	0.24283 0.47933 0.37863 -0.07500
C 	C 	0.25770 0.48430 0.41810 0.03000
C 	C 	0.25813 0.52573 0.42973 -0.16700
C 	C 	0.21325 0.51495 0.30605 0.34100
C 	C 	0.11876 0.69796 0.53976 0.13400
C 	C 	0.03946 0.69766 0.54466 0.21400
C 	C 	0.03244 0.69244 0.59074 -0.16000
C 	C 	0.99100 0.68330 0.61540 -0.01900
C 	C 	0.95582 0.68202 0.59162 -0.08500
C 	C 	0.96394 0.68864 0.54454 0.05800
C 	C 	0.00488 0.69628 0.52158 -0.20300
C 	C 	0.98355 0.67905 0.66475 0.31700
C 	C 	0.28920 0.70190 0.42160 -0.58900
C 	C 	0.16119 0.61829 0.50059 -0.62700
C 	C 	0.14931 0.78351 0.50511 -0.64300
C 	C 	0.84830 0.37833 0.34681 0.35400
C 	C 	0.84798 0.41800 0.37022 -0.02300
C 	C 	0.88895 0.42612 0.38026 -0.15000
C 	C 	0.88979 0.46289 0.40148 0.20400
C 	C 	0.85049 0.49083 0.41311 -0.18700
C 	C 	0.81022 0.48282 0.40382 0.04100
C 	C 	0.80875 0.44607 0.38231 -0.07800
C 	C 	0.96949 0.44393 0.40221 0.13300
C 	C 	0.00596 0.45957 0.42048 -0.22000
C 	C 	0.03168 0.49102 0.39286 0.24400
C 	C 	0.06894 0.50226 0.40838 -0.22700
C 	C 	0.07893 0.48418 0.45142 0.27600
C 	C 	0.05029 0.45687 0.48022 -0.22100
C 	C 	0.01422 0.44428 0.46465 0.27900
C 	C 	0.09594 0.53624 0.37944 0.13600
C 	C 	0.10304 0.61362 0.38145 0.20400
C 	C 	0.12504 0.62061 0.33788 -0.15000
C 	C 	0.13786 0.66260 0.32135 -0.02900
C 	C 	0.12958 0.69643 0.34773 -0.07400
C 	C 	0.10968 0.68788 0.39238 0.04700
C 	C 	0.09653 0.64719 0.40887 -0.18300
C 	C 	0.15916 0.67196 0.27362 0.34800
C 	C 	0.05712 0.44237 0.52833 0.11000
C 	C 	0.09045 0.37793 0.57480 0.19100
C 	C 	0.11521 0.33446 0.57872 -0.13300
C 	C 	0.12284 0.31186 0.62033 -0.03600
C 	C 	0.10574 0.33094 0.65894 -0.07700
C 	C 	0.08140 0.37380 0.65560 0.03100
C 	C 	0.07399 0.39759 0.61339 -0.17700
C 	C 	0.15051 0.26539 0.62413 0.35800
C 	C 	0.01939 0.51233 0.34655 -0.58800
C 	C 	0.11979 0.49509 0.46679 -0.63300
C 	C 	0.98333 0.41486 0.49640 -0.64600
C 	C 	0.95431 0.41317 0.25495 0.30900
C 	C 	0.91727 0.45177 0.26167 -0.00900
C 	C 	0.87421 0.44941 0.25411 -0.16400
C 	C 	0.84049 0.48419 0.25989 0.21400
C 	C 	0.85014 0.52294 0.27524 -0.17800
C 	C 	0.89216 0.52496 0.28256 0.05400
C 	C 	0.92740 0.48970 0.27580 -0.09000
C 	C 	0.78578 0.44888 0.23588 0.13600
C 	C 	0.74100 0.46260 0.21840 -0.22900
C 	C 	0.70148 0.44988 0.24358 0.27500
C 	C 	0.66212 0.46202 0.22532 -0.22400
C 	C 	0.66159 0.48889 0.18269 0.27600
C 	C 	0.69989 0.50479 0.15999 -0.23600
C 	C 	0.74059 0.49039 0.17689 0.28500
C 	C 	0.61646 0.45036 0.25216 0.12900
C 	C 	0.56475 0.40145 0.24355 0.16900
C 	C 	0.56033 0.36075 0.22939 -0.12200
C 	C 	0.51834 0.34964 0.22924 -0.03000
C 	C 	0.47933 0.37863 0.24283 -0.07500
C 	C 	0.48430 0.41810 0.25770 0.03000
C 	C 	0.52573 0.42973 0.25813 -0.16700
C 	C 	0.51495 0.30605 0.21325 0.34100
C 	C 	0.69796 0.53976 0.11876 0.13400
C 	C 	0.69766 0.54466 0.03946 0.21400
C 	C 	0.69244 0.59074 0.03244 -0.16000
C 	C 	0.68330 0.61540 0.99100 -0.01900
C 	C 	0.68202 0.59162 0.95582 -0.08500
C 	C 	0.68864 0.54454 0.96394 0.05800
C 	C 	0.69628 0.52158 0.00488 -0.20300
C 	C 	0.67905 0.66475 0.98355 0.31700
C 	C 	0.70190 0.42160 0.28920 -0.58900
C 	C 	0.61829 0.50059 0.16119 -0.62700
C 	C 	0.78351 0.50511 0.14931 -0.64300
O 	O 	0.83804 0.87248 0.31075 -0.46100
O 	O 	0.83815 0.85423 0.38526 -0.44400
O 	O 	0.91230 0.97331 0.42837 -0.26400
O 	O 	0.90157 0.07531 0.58547 -0.26600
O 	O 	0.75118 0.14160 0.67587 -0.49900
O 	O 	0.75597 0.21282 0.65830 -0.44300
O 	O 	0.03203 0.89790 0.58418 -0.25200
O 	O 	0.08878 0.75239 0.67228 -0.42900
O 	O 	0.16343 0.74403 0.64985 -0.49200
O 	O 	0.76099 0.91667 0.49298 -0.45700
O 	O 	0.74267 0.87884 0.44491 -0.46600
O 	O 	0.75325 0.98625 0.29734 -0.26400
O 	O 	0.73919 0.90936 0.11022 -0.24200
O 	O 	0.69318 0.80638 0.98078 -0.43900
O 	O 	0.71911 0.77404 0.04551 -0.42200
O 	O 	0.57949 0.01779 0.20499 -0.26300
O 	O 	0.44821 0.18561 0.16281 -0.41600
O 	O 	0.51213 0.18629 0.18740 -0.46000
O 	O 	0.31075 0.83804 0.87248 -0.46100
O 	O 	0.38526 0.83815 0.85423 -0.44400
O 	O 	0.42837 0.91230 0.97331 -0.26400
O 	O 	0.58547 0.90157 0.07531 -0.26600
O 	O 	0.67587 0.75118 0.14160 -0.49900
O 	O 	0.65830 0.75597 0.21282 -0.44300
O 	O 	0.58418 0.03203 0.89790 -0.25200
O 	O 	0.67228 0.08878 0.75239 -0.42900
O 	O 	0.64985 0.16343 0.74403 -0.49200
O 	O 	0.49298 0.76099 0.91667 -0.45700
O 	O 	0.44491 0.74267 0.87884 -0.46600
O 	O 	0.29734 0.75325 0.98625 -0.26400
O 	O 	0.11022 0.73919 0.90936 -0.24200
O 	O 	0.98078 0.69318 0.80638 -0.43900
O 	O 	0.04551 0.71911 0.77404 -0.42200
O 	O 	0.20499 0.57949 0.01779 -0.26300
O 	O 	0.16281 0.44821 0.18561 -0.41600
O 	O 	0.18740 0.51213 0.18629 -0.46000
O 	O 	0.87248 0.31075 0.83804 -0.46100
O 	O 	0.85423 0.38526 0.83815 -0.44400
O 	O 	0.97331 0.42837 0.91230 -0.26400
O 	O 	0.07531 0.58547 0.90157 -0.26600
O 	O 	0.14160 0.67587 0.75118 -0.49900
O 	O 	0.21282 0.65830 0.75597 -0.44300
O 	O 	0.89790 0.58418 0.03203 -0.25200
O 	O 	0.75239 0.67228 0.08878 -0.42900
O 	O 	0.74403 0.64985 0.16343 -0.49200
O 	O 	0.91667 0.49298 0.76099 -0.45700
O 	O 	0.87884 0.44491 0.74267 -0.46600
O 	O 	0.98625 0.29734 0.75325 -0.26400
O 	O 	0.90936 0.11022 0.73919 -0.24200
O 	O 	0.80638 0.98078 0.69318 -0.43900
O 	O 	0.77404 0.04551 0.71911 -0.42200
O 	O 	0.01779 0.20499 0.57949 -0.26300
O 	O 	0.18561 0.16281 0.44821 -0.41600
O 	O 	0.18629 0.18740 0.51213 -0.46000
O 	O 	0.62752 0.66196 0.18925 -0.46100
O 	O 	0.64577 0.66185 0.11474 -0.44400
O 	O 	0.52669 0.58770 0.07163 -0.26400
O 	O 	0.42469 0.59843 0.91453 -0.26600
O 	O 	0.35840 0.74882 0.82413 -0.49900
O 	O 	0.28718 0.74403 0.84170 -0.44300
O 	O 	0.60210 0.46797 0.91582 -0.25200
O 	O 	0.74761 0.41122 0.82772 -0.42900
O 	O 	0.75597 0.33657 0.85015 -0.49200
O 	O 	0.58333 0.73901 0.00702 -0.45800
O 	O 	0.62116 0.75733 0.05509 -0.46600
O 	O 	0.51375 0.74675 0.20266 -0.26400
O 	O 	0.59064 0.76081 0.38978 -0.24200
O 	O 	0.69362 0.80682 0.51922 -0.43900
O 	O 	0.72596 0.78089 0.45449 -0.42200
O 	O 	0.48221 0.92051 0.29501 -0.26300
O 	O 	0.31439 0.05179 0.33719 -0.41600
O 	O 	0.31371 0.98787 0.31260 -0.46100
O 	O 	0.66196 0.18925 0.62752 -0.46100
O 	O 	0.66185 0.11474 0.64577 -0.44400
O 	O 	0.58770 0.07163 0.52669 -0.26400
O 	O 	0.59843 0.91453 0.42469 -0.26600
O 	O 	0.74882 0.82413 0.35840 -0.49900
O 	O 	0.74403 0.84170 0.28718 -0.44300
O 	O 	0.46797 0.91582 0.60210 -0.25200
O 	O 	0.41122 0.82772 0.74761 -0.42900
O 	O 	0.33657 0.85015 0.75597 -0.49200
O 	O 	0.73901 0.00702 0.58333 -0.45800
O 	O 	0.75733 0.05509 0.62116 -0.46600
O 	O 	0.74675 0.20266 0.51375 -0.26400
O 	O 	0.76081 0.38978 0.59064 -0.24200
O 	O 	0.80682 0.51922 0.69362 -0.43900
O 	O 	0.78089 0.45449 0.72596 -0.42200
O 	O 	0.92051 0.29501 0.48221 -0.26300
O 	O 	0.05179 0.33719 0.31439 -0.41600
O 	O 	0.98787 0.31260 0.31371 -0.46100
O 	O 	0.18925 0.62752 0.66196 -0.46100
O 	O 	0.11474 0.64577 0.66185 -0.44400
O 	O 	0.07163 0.52669 0.58770 -0.26400
O 	O 	0.91453 0.42469 0.59843 -0.26600
O 	O 	0.82413 0.35840 0.74882 -0.49900
O 	O 	0.84170 0.28718 0.74403 -0.44300
O 	O 	0.91582 0.60210 0.46797 -0.25200
O 	O 	0.82772 0.74761 0.41122 -0.42900
O 	O 	0.85015 0.75597 0.33657 -0.49200
O 	O 	0.00702 0.58333 0.73901 -0.45800
O 	O 	0.05509 0.62116 0.75733 -0.46600
O 	O 	0.20266 0.51375 0.74675 -0.26400
O 	O 	0.38978 0.59064 0.76081 -0.24200
O 	O 	0.51922 0.69362 0.80682 -0.43900
O 	O 	0.45449 0.72596 0.78089 -0.42200
O 	O 	0.29501 0.48221 0.92051 -0.26300
O 	O 	0.33719 0.31439 0.05179 -0.41600
O 	O 	0.31260 0.31371 0.98787 -0.46100
O 	O 	0.16196 0.12752 0.68925 -0.46100
O 	O 	0.16185 0.14577 0.61474 -0.44400
O 	O 	0.08770 0.02669 0.57163 -0.26400
O 	O 	0.09843 0.92469 0.41453 -0.26600
O 	O 	0.24882 0.85840 0.32413 -0.49900
O 	O 	0.24403 0.78718 0.34170 -0.44300
O 	O 	0.96797 0.10210 0.41582 -0.25200
O 	O 	0.91122 0.24761 0.32772 -0.42900
O 	O 	0.83657 0.25597 0.35015 -0.49200
O 	O 	0.23901 0.08333 0.50702 -0.45700
O 	O 	0.25733 0.12116 0.55509 -0.46600
O 	O 	0.24675 0.01375 0.70266 -0.26400
O 	O 	0.26081 0.09064 0.88978 -0.24200
O 	O 	0.30682 0.19362 0.01922 -0.43900
O 	O 	0.28089 0.22596 0.95449 -0.42200
O 	O 	0.42051 0.98221 0.79501 -0.26300
O 	O 	0.55179 0.81439 0.83719 -0.41600
O 	O 	0.48787 0.81371 0.81260 -0.46000
O 	O 	0.68925 0.16196 0.12752 -0.46100
O 	O 	0.61474 0.16185 0.14577 -0.44400
O 	O 	0.57163 0.08770 0.02669 -0.26400
O 	O 	0.41453 0.09843 0.92469 -0.26600
O 	O 	0.32413 0.24882 0.85840 -0.49900
O 	O 	0.34170 0.24403 0.78718 -0.44300
O 	O 	0.41582 0.96797 0.10210 -0.25200
O 	O 	0.32772 0.91122 0.24761 -0.42900
O 	O 	0.35015 0.83657 0.25597 -0.49200
O 	O 	0.50702 0.23901 0.08333 -0.45700
O 	O 	0.55509 0.25733 0.12116 -0.46600
O 	O 	0.70266 0.24675 0.01375 -0.26400
O 	O 	0.88978 0.26081 0.09064 -0.24200
O 	O 	0.01922 0.30682 0.19362 -0.43900
O 	O 	0.95449 0.28089 0.22596 -0.42200
O 	O 	0.79501 0.42051 0.98221 -0.26300
O 	O 	0.83719 0.55179 0.81439 -0.41600
O 	O 	0.81260 0.48787 0.81371 -0.46000
O 	O 	0.12752 0.68925 0.16196 -0.46100
O 	O 	0.14577 0.61474 0.16185 -0.44400
O 	O 	0.02669 0.57163 0.08770 -0.26400
O 	O 	0.92469 0.41453 0.09843 -0.26600
O 	O 	0.85840 0.32413 0.24882 -0.49900
O 	O 	0.78718 0.34170 0.24403 -0.44300
O 	O 	0.10210 0.41582 0.96797 -0.25200
O 	O 	0.24761 0.32772 0.91122 -0.42900
O 	O 	0.25597 0.35015 0.83657 -0.49200
O 	O 	0.08333 0.50702 0.23901 -0.45700
O 	O 	0.12116 0.55509 0.25733 -0.46600
O 	O 	0.01375 0.70266 0.24675 -0.26400
O 	O 	0.09064 0.88978 0.26081 -0.24200
O 	O 	0.19362 0.01922 0.30682 -0.43900
O 	O 	0.22596 0.95449 0.28089 -0.42200
O 	O 	0.98221 0.79501 0.42051 -0.26300
O 	O 	0.81439 0.83719 0.55179 -0.41600
O 	O 	0.81371 0.81260 0.48787 -0.46000
O 	O 	0.37248 0.33804 0.81075 -0.46100
O 	O 	0.35423 0.33815 0.88526 -0.44400
O 	O 	0.47331 0.41230 0.92837 -0.26400
O 	O 	0.57531 0.40157 0.08547 -0.26600
O 	O 	0.64160 0.25118 0.17587 -0.49900
O 	O 	0.71282 0.25597 0.15830 -0.44300
O 	O 	0.39790 0.53203 0.08418 -0.25200
O 	O 	0.25239 0.58878 0.17228 -0.42900
O 	O 	0.24403 0.66343 0.14985 -0.49200
O 	O 	0.41667 0.26099 0.99298 -0.45800
O 	O 	0.37884 0.24267 0.94491 -0.46600
O 	O 	0.48625 0.25325 0.79734 -0.26400
O 	O 	0.40936 0.23919 0.61022 -0.24200
O 	O 	0.30638 0.19318 0.48078 -0.43900
O 	O 	0.27404 0.21911 0.54551 -0.42200
O 	O 	0.51779 0.07949 0.70499 -0.26300
O 	O 	0.68561 0.94821 0.66281 -0.41600
O 	O 	0.68629 0.01213 0.68740 -0.46100
O 	O 	0.33804 0.81075 0.37248 -0.46100
O 	O 	0.33815 0.88526 0.35423 -0.44400
O 	O 	0.41230 0.92837 0.47331 -0.26400
O 	O 	0.40157 0.08547 0.57531 -0.26600
O 	O 	0.25118 0.17587 0.64160 -0.49900
O 	O 	0.25597 0.15830 0.71282 -0.44300
O 	O 	0.53203 0.08418 0.39790 -0.25200
O 	O 	0.58878 0.17228 0.25239 -0.42900
O 	O 	0.66343 0.14985 0.24403 -0.49200
O 	O 	0.26099 0.99298 0.41667 -0.45800
O 	O 	0.24267 0.94491 0.37884 -0.46600
O 	O 	0.25325 0.79734 0.48625 -0.26400
O 	O 	0.23919 0.61022 0.40936 -0.24200
O 	O 	0.19318 0.48078 0.30638 -0.43900
O 	O 	0.21911 0.54551 0.27404 -0.42200
O 	O 	0.07949 0.70499 0.51779 -0.26300
O 	O 	0.94821 0.66281 0.68561 -0.41600
O 	O 	0.01213 0.68740 0.68629 -0.46100
O 	O 	0.81075 0.37248 0.33804 -0.46100
O 	O 	0.88526 0.35423 0.33815 -0.44400
O 	O 	0.92837 0.47331 0.41230 -0.26400
O 	O 	0.08547 0.57531 0.40157 -0.26600
O 	O 	0.17587 0.64160 0.25118 -0.49900
O 	O 	0.15830 0.71282 0.25597 -0.44300
O 	O 	0.08418 0.39790 0.53203 -0.25200
O 	O 	0.17228 0.25239 0.58878 -0.42900
O 	O 	0.14985 0.24403 0.66343 -0.49200
O 	O 	0.99298 0.41667 0.26099 -0.45800
O 	O 	0.94491 0.37884 0.24267 -0.46600
O 	O 	0.79734 0.48625 0.25325 -0.26400
O 	O 	0.61022 0.40936 0.23919 -0.24200
O 	O 	0.48078 0.30638 0.19318 -0.43900
O 	O 	0.54551 0.27404 0.21911 -0.42200
O 	O 	0.70499 0.51779 0.07949 -0.26300
O 	O 	0.66281 0.68561 0.94821 -0.41600
O 	O 	0.68740 0.68629 0.01213 -0.46100
