data_crystal

_cell_length_a 13.52310
_cell_length_b 29.56150
_cell_length_c 29.56150
_cell_angle_alpha 87.00110
_cell_angle_beta  76.77780
_cell_angle_gamma 76.77790

_symmetry_space_group_name_	'P 1'
_symmetry_space_group_name_H-M	'P 1'

loop_
_symmetry_equiv_pos_as_xyz
  x,y,z

loop_
_atom_site_label
_atom_site_type_symbol
_atom_site_fract_x
_atom_site_fract_y
_atom_site_fract_z
_atom_site_charge
Cd	Cd	0.03393 0.94954 0.88433 1.22400
Cd	Cd	0.24797 0.01041 0.75112 1.16100
Cd	Cd	0.53289 0.94169 0.61101 1.22700
Cd	Cd	0.36779 0.55046 0.61567 1.22300
Cd	Cd	0.50951 0.48959 0.74888 1.16000
Cd	Cd	0.58559 0.55831 0.88899 1.22700
Cd	Cd	0.91825 0.11567 0.44955 1.22300
Cd	Cd	0.99910 0.24888 0.51040 1.16000
Cd	Cd	0.14390 0.38899 0.44169 1.22700
Cd	Cd	0.98347 0.38433 0.05045 1.22300
Cd	Cd	0.25838 0.25112 0.98960 1.16000
Cd	Cd	0.47458 0.11101 0.05831 1.22600
Cd	Cd	0.96607 0.05046 0.11567 1.22300
Cd	Cd	0.75203 0.98959 0.24888 1.16000
Cd	Cd	0.46711 0.05831 0.38899 1.22700
Cd	Cd	0.63221 0.44954 0.38433 1.22300
Cd	Cd	0.49049 0.51041 0.25112 1.16000
Cd	Cd	0.41441 0.44169 0.11101 1.22700
Cd	Cd	0.08175 0.88433 0.55045 1.22300
Cd	Cd	0.00090 0.75112 0.48960 1.16000
Cd	Cd	0.85610 0.61101 0.55831 1.22700
Cd	Cd	0.01653 0.61567 0.94955 1.22300
Cd	Cd	0.74162 0.74888 0.01040 1.16000
Cd	Cd	0.52542 0.88899 0.94169 1.22600
H 	H 	0.57890 0.85830 0.79310 0.05300
H 	H 	0.58300 0.81970 0.72890 0.03600
H 	H 	0.43240 0.83190 0.70030 0.06700
H 	H 	0.03610 0.88970 0.66590 0.03100
H 	H 	0.03980 0.83930 0.72930 0.04300
H 	H 	0.16580 0.83610 0.77230 0.05900
H 	H 	0.52730 0.04760 0.83160 0.03700
H 	H 	0.81320 0.06860 0.83160 0.04900
H 	H 	0.70210 0.03810 0.79410 0.03800
H 	H 	0.66040 0.16500 0.92380 0.05800
H 	H 	0.75300 0.21310 0.94770 0.02900
H 	H 	0.92730 0.18340 0.95280 0.04500
H 	H 	0.01970 0.97180 0.78200 -0.04700
H 	H 	0.92640 0.96950 0.72530 0.07800
H 	H 	0.71830 0.91750 0.82550 0.08600
H 	H 	0.82250 0.92180 0.87480 0.01200
H 	H 	0.86610 0.93160 0.67460 0.07800
H 	H 	0.76170 0.93050 0.62310 -0.00200
H 	H 	0.50930 0.96040 0.72080 -0.02500
H 	H 	0.60560 0.95940 0.77680 0.07500
H 	H 	0.73030 0.64170 0.70690 0.05300
H 	H 	0.63160 0.68030 0.77110 0.03600
H 	H 	0.46460 0.66810 0.79970 0.06700
H 	H 	0.09170 0.61030 0.83410 0.03100
H 	H 	0.10840 0.66070 0.77070 0.04300
H 	H 	0.27420 0.66390 0.72770 0.05900
H 	H 	0.90650 0.45240 0.66840 0.03700
H 	H 	0.21340 0.43140 0.66840 0.04900
H 	H 	0.03430 0.46190 0.70590 0.03800
H 	H 	0.24920 0.33500 0.57620 0.05800
H 	H 	0.41380 0.28690 0.55230 0.02900
H 	H 	0.56350 0.31660 0.54720 0.04500
H 	H 	0.27350 0.52820 0.71800 -0.04400
H 	H 	0.12120 0.53050 0.77470 0.07600
H 	H 	0.96130 0.58250 0.67450 0.08700
H 	H 	0.11910 0.57820 0.62520 0.01200
H 	H 	0.97230 0.56840 0.82540 0.07900
H 	H 	0.81530 0.56950 0.87690 -0.00200
H 	H 	0.69050 0.53960 0.77920 -0.02500
H 	H 	0.84180 0.54060 0.72320 0.07500
H 	H 	0.37200 0.20690 0.35830 0.05400
H 	H 	0.31190 0.27110 0.31970 0.03600
H 	H 	0.13270 0.29970 0.33190 0.06800
H 	H 	0.70200 0.33410 0.38970 0.03100
H 	H 	0.76910 0.27070 0.33930 0.04300
H 	H 	0.93810 0.22770 0.33610 0.05800
H 	H 	0.35890 0.16840 0.54760 0.03700
H 	H 	0.64480 0.16840 0.56860 0.04900
H 	H 	0.49620 0.20590 0.53810 0.03800
H 	H 	0.58420 0.07620 0.66500 0.05800
H 	H 	0.70070 0.05230 0.71310 0.02900
H 	H 	0.88010 0.04720 0.68340 0.04500
H 	H 	0.80170 0.21800 0.47180 -0.04400
H 	H 	0.65170 0.27470 0.46950 0.07600
H 	H 	0.54380 0.17450 0.41750 0.08600
H 	H 	0.69730 0.12520 0.42180 0.01300
H 	H 	0.54070 0.32540 0.43160 0.07800
H 	H 	0.38480 0.37690 0.43050 -0.00200
H 	H 	0.23010 0.27920 0.46040 -0.02500
H 	H 	0.38240 0.22320 0.45940 0.07500
H 	H 	0.43720 0.29310 0.14170 0.05300
H 	H 	0.40270 0.22890 0.18030 0.03600
H 	H 	0.26430 0.20030 0.16810 0.06800
H 	H 	0.92580 0.16590 0.11030 0.03100
H 	H 	0.87910 0.22930 0.16070 0.04300
H 	H 	0.00190 0.27230 0.16390 0.05900
H 	H 	0.57490 0.33160 0.95240 0.03700
H 	H 	0.88180 0.33160 0.93140 0.04900
H 	H 	0.74020 0.29410 0.96190 0.03800
H 	H 	0.82540 0.42380 0.83500 0.05800
H 	H 	0.96610 0.44770 0.78690 0.02900
H 	H 	0.11070 0.45280 0.81660 0.04500
H 	H 	0.99150 0.28200 0.02820 -0.04500
H 	H 	0.89590 0.22530 0.03050 0.07600
H 	H 	0.63580 0.32550 0.08250 0.08600
H 	H 	0.74430 0.37480 0.07820 0.01300
H 	H 	0.79770 0.17460 0.06840 0.07800
H 	H 	0.69220 0.12310 0.06950 -0.00200
H 	H 	0.46970 0.22080 0.03960 -0.02500
H 	H 	0.56500 0.27680 0.04060 0.07500
H 	H 	0.42110 0.14170 0.20690 0.05300
H 	H 	0.41700 0.18030 0.27110 0.03600
H 	H 	0.56760 0.16810 0.29970 0.06700
H 	H 	0.96390 0.11030 0.33410 0.03100
H 	H 	0.96020 0.16070 0.27070 0.04300
H 	H 	0.83420 0.16390 0.22770 0.05900
H 	H 	0.47270 0.95240 0.16840 0.03700
H 	H 	0.18680 0.93140 0.16840 0.04900
H 	H 	0.29790 0.96190 0.20590 0.03800
H 	H 	0.33960 0.83500 0.07620 0.05800
H 	H 	0.24700 0.78690 0.05230 0.02900
H 	H 	0.07270 0.81660 0.04720 0.04500
H 	H 	0.98030 0.02820 0.21800 -0.04700
H 	H 	0.07360 0.03050 0.27470 0.07800
H 	H 	0.28170 0.08250 0.17450 0.08600
H 	H 	0.17750 0.07820 0.12520 0.01200
H 	H 	0.13390 0.06840 0.32540 0.07800
H 	H 	0.23830 0.06950 0.37690 -0.00200
H 	H 	0.49070 0.03960 0.27920 -0.02500
H 	H 	0.39440 0.04060 0.22320 0.07500
H 	H 	0.26970 0.35830 0.29310 0.05300
H 	H 	0.36840 0.31970 0.22890 0.03600
H 	H 	0.53540 0.33190 0.20030 0.06700
H 	H 	0.90830 0.38970 0.16590 0.03100
H 	H 	0.89160 0.33930 0.22930 0.04300
H 	H 	0.72580 0.33610 0.27230 0.05900
H 	H 	0.09350 0.54760 0.33160 0.03700
H 	H 	0.78660 0.56860 0.33160 0.04900
H 	H 	0.96570 0.53810 0.29410 0.03800
H 	H 	0.75080 0.66500 0.42380 0.05800
H 	H 	0.58620 0.71310 0.44770 0.02900
H 	H 	0.43650 0.68340 0.45280 0.04500
H 	H 	0.72650 0.47180 0.28200 -0.04400
H 	H 	0.87880 0.46950 0.22530 0.07600
H 	H 	0.03870 0.41750 0.32550 0.08700
H 	H 	0.88090 0.42180 0.37480 0.01200
H 	H 	0.02770 0.43160 0.17460 0.07900
H 	H 	0.18470 0.43050 0.12310 -0.00200
H 	H 	0.30950 0.46040 0.22080 -0.02500
H 	H 	0.15820 0.45940 0.27680 0.07500
H 	H 	0.62800 0.79310 0.64170 0.05400
H 	H 	0.68810 0.72890 0.68030 0.03600
H 	H 	0.86730 0.70030 0.66810 0.06800
H 	H 	0.29800 0.66590 0.61030 0.03100
H 	H 	0.23090 0.72930 0.66070 0.04300
H 	H 	0.06190 0.77230 0.66390 0.05800
H 	H 	0.64110 0.83160 0.45240 0.03700
H 	H 	0.35520 0.83160 0.43140 0.04900
H 	H 	0.50380 0.79410 0.46190 0.03800
H 	H 	0.41580 0.92380 0.33500 0.05800
H 	H 	0.29930 0.94770 0.28690 0.02900
H 	H 	0.11990 0.95280 0.31660 0.04500
H 	H 	0.19830 0.78200 0.52820 -0.04400
H 	H 	0.34830 0.72530 0.53050 0.07600
H 	H 	0.45620 0.82550 0.58250 0.08600
H 	H 	0.30270 0.87480 0.57820 0.01300
H 	H 	0.45930 0.67460 0.56840 0.07800
H 	H 	0.61520 0.62310 0.56950 -0.00200
H 	H 	0.76990 0.72080 0.53960 -0.02500
H 	H 	0.61760 0.77680 0.54060 0.07500
H 	H 	0.56280 0.70690 0.85830 0.05300
H 	H 	0.59730 0.77110 0.81970 0.03600
H 	H 	0.73570 0.79970 0.83190 0.06800
H 	H 	0.07420 0.83410 0.88970 0.03100
H 	H 	0.12090 0.77070 0.83930 0.04300
H 	H 	0.99810 0.72770 0.83610 0.05900
H 	H 	0.42510 0.66840 0.04760 0.03700
H 	H 	0.11820 0.66840 0.06860 0.04900
H 	H 	0.25980 0.70590 0.03810 0.03800
H 	H 	0.17460 0.57620 0.16500 0.05800
H 	H 	0.03390 0.55230 0.21310 0.02900
H 	H 	0.88930 0.54720 0.18340 0.04500
H 	H 	0.00850 0.71800 0.97180 -0.04500
H 	H 	0.10410 0.77470 0.96950 0.07600
H 	H 	0.36420 0.67450 0.91750 0.08600
H 	H 	0.25570 0.62520 0.92180 0.01300
H 	H 	0.20230 0.82540 0.93160 0.07800
H 	H 	0.30780 0.87690 0.93050 -0.00200
H 	H 	0.53030 0.77920 0.96040 -0.02500
H 	H 	0.43500 0.72320 0.95940 0.07500
C 	C 	0.33827 0.87191 0.75135 0.04000
C 	C 	0.33364 0.89311 0.79341 -0.11200
C 	C 	0.42639 0.88871 0.80831 -0.04600
C 	C 	0.51767 0.86125 0.78281 -0.04100
C 	C 	0.52153 0.83910 0.74444 -0.01500
C 	C 	0.43016 0.84580 0.72808 -0.08600
C 	C 	0.24504 0.87872 0.73080 0.02800
C 	C 	0.24418 0.90790 0.69154 -0.11700
C 	C 	0.16192 0.91264 0.66652 -0.07400
C 	C 	0.08913 0.88718 0.68176 -0.02400
C 	C 	0.08982 0.85697 0.72059 -0.03200
C 	C 	0.16677 0.85424 0.74562 -0.07300
C 	C 	0.43137 0.91337 0.84969 0.32700
C 	C 	0.23079 0.92017 0.81985 0.36900
C 	C 	0.33178 0.93099 0.67385 0.40200
C 	C 	0.15658 0.94421 0.62843 0.33300
C 	C 	0.57511 0.05451 0.84687 -0.03800
C 	C 	0.54296 0.06878 0.89430 -0.03200
C 	C 	0.60917 0.08148 0.91578 -0.05600
C 	C 	0.71101 0.08420 0.89178 0.03000
C 	C 	0.74537 0.06836 0.84730 -0.06600
C 	C 	0.67726 0.05101 0.82367 -0.03200
C 	C 	0.93477 0.11847 0.93139 -0.02800
C 	C 	0.87634 0.08992 0.91460 -0.07800
C 	C 	0.77665 0.10850 0.91260 0.05500
C 	C 	0.72970 0.15347 0.92513 -0.09000
C 	C 	0.78495 0.18235 0.93995 -0.01300
C 	C 	0.88960 0.16451 0.94309 -0.04700
C 	C 	0.43260 0.06895 0.91905 0.27200
C 	C 	0.57055 0.09451 0.96659 0.29500
C 	C 	0.93360 0.04105 0.90135 0.32300
C 	C 	0.03956 0.09758 0.94170 0.30000
C 	C 	0.95960 0.96016 0.78984 0.10600
C 	C 	0.90242 0.96010 0.75566 -0.15200
C 	C 	0.80906 0.94555 0.76853 0.05600
C 	C 	0.77839 0.92887 0.81555 -0.13600
C 	C 	0.84227 0.93083 0.84403 0.08300
C 	C 	0.74512 0.94385 0.73291 0.05700
C 	C 	0.79417 0.93633 0.68493 -0.13000
C 	C 	0.73032 0.93645 0.65431 0.08400
C 	C 	0.58169 0.95364 0.71178 0.07900
C 	C 	0.63936 0.95328 0.74580 -0.14300
C 	C 	0.46153 0.62809 0.74865 0.04000
C 	C 	0.52016 0.60689 0.70659 -0.11200
C 	C 	0.62341 0.61129 0.69169 -0.04600
C 	C 	0.66173 0.63875 0.71719 -0.04100
C 	C 	0.60507 0.66090 0.75556 -0.01500
C 	C 	0.50404 0.65420 0.77192 -0.08600
C 	C 	0.35456 0.62128 0.76920 0.02800
C 	C 	0.34362 0.59210 0.80846 -0.11700
C 	C 	0.24108 0.58736 0.83348 -0.07400
C 	C 	0.15807 0.61282 0.81824 -0.02400
C 	C 	0.16738 0.64303 0.77941 -0.03200
C 	C 	0.26663 0.64576 0.75438 -0.07300
C 	C 	0.69443 0.58663 0.65031 0.32700
C 	C 	0.47081 0.57983 0.68015 0.36900
C 	C 	0.43662 0.56901 0.82615 0.40200
C 	C 	0.22922 0.55579 0.87157 0.33300
C 	C 	0.97649 0.44549 0.65313 -0.03700
C 	C 	0.00604 0.43122 0.60570 -0.03300
C 	C 	0.10643 0.41852 0.58422 -0.05600
C 	C 	0.18699 0.41580 0.60822 0.03000
C 	C 	0.16103 0.43164 0.65270 -0.06600
C 	C 	0.05194 0.44899 0.67633 -0.03200
C 	C 	0.48463 0.38153 0.56861 -0.02800
C 	C 	0.38086 0.41008 0.58540 -0.07800
C 	C 	0.29775 0.39150 0.58740 0.05500
C 	C 	0.30830 0.34653 0.57487 -0.09000
C 	C 	0.40725 0.31765 0.56005 -0.01300
C 	C 	0.49720 0.33549 0.55691 -0.04700
C 	C 	0.92060 0.43105 0.58095 0.27200
C 	C 	0.13165 0.40549 0.53341 0.29500
C 	C 	0.37600 0.45895 0.59865 0.32300
C 	C 	0.57884 0.40242 0.55830 0.30000
C 	C 	0.20960 0.53984 0.71016 0.10100
C 	C 	0.11818 0.53990 0.74434 -0.15000
C 	C 	0.02314 0.55445 0.73147 0.05400
C 	C 	0.02281 0.57113 0.68445 -0.13700
C 	C 	0.11713 0.56917 0.65597 0.08300
C 	C 	0.92188 0.55615 0.76709 0.05800
C 	C 	0.91543 0.56367 0.81507 -0.13100
C 	C 	0.82108 0.56355 0.84569 0.08400
C 	C 	0.74711 0.54636 0.78822 0.08000
C 	C 	0.83844 0.54672 0.75420 -0.14400
C 	C 	0.08962 0.24865 0.37191 0.04200
C 	C 	0.12705 0.20659 0.39311 -0.11300
C 	C 	0.23470 0.19169 0.38871 -0.04500
C 	C 	0.30048 0.21719 0.36125 -0.04200
C 	C 	0.26597 0.25556 0.33910 -0.01300
C 	C 	0.15824 0.27192 0.34580 -0.08800
C 	C 	0.97584 0.26920 0.37872 0.02700
C 	C 	0.93572 0.30846 0.40790 -0.11800
C 	C 	0.82844 0.33348 0.41264 -0.07400
C 	C 	0.77089 0.31824 0.38718 -0.02400
C 	C 	0.81041 0.27941 0.35697 -0.03200
C 	C 	0.91239 0.25438 0.35424 -0.07200
C 	C 	0.28106 0.15031 0.41337 0.32700
C 	C 	0.05064 0.18015 0.42017 0.37100
C 	C 	0.00563 0.32615 0.43099 0.40300
C 	C 	0.78501 0.37157 0.44421 0.33300
C 	C 	0.42198 0.15313 0.55451 -0.03800
C 	C 	0.43726 0.10570 0.56878 -0.03200
C 	C 	0.52495 0.08422 0.58148 -0.05600
C 	C 	0.60279 0.10822 0.58420 0.03000
C 	C 	0.59267 0.15270 0.56836 -0.06600
C 	C 	0.50093 0.17633 0.55101 -0.03200
C 	C 	0.86616 0.06861 0.61847 -0.02700
C 	C 	0.79094 0.08540 0.58992 -0.07900
C 	C 	0.68925 0.08740 0.60850 0.05500
C 	C 	0.65483 0.07487 0.65347 -0.09000
C 	C 	0.72490 0.06005 0.68235 -0.01200
C 	C 	0.83269 0.05691 0.66451 -0.04800
C 	C 	0.35165 0.08095 0.56895 0.27200
C 	C 	0.53714 0.03341 0.59451 0.29500
C 	C 	0.83495 0.09865 0.54105 0.32300
C 	C 	0.98126 0.05830 0.59758 0.29700
C 	C 	0.74944 0.21016 0.46016 0.10100
C 	C 	0.65808 0.24434 0.46010 -0.15000
C 	C 	0.57759 0.23147 0.44555 0.05500
C 	C 	0.59394 0.18445 0.42887 -0.13500
C 	C 	0.68630 0.15597 0.43083 0.08200
C 	C 	0.47803 0.26709 0.44385 0.05700
C 	C 	0.47910 0.31507 0.43633 -0.13000
C 	C 	0.38463 0.34569 0.43645 0.08400
C 	C 	0.29347 0.28822 0.45364 0.07900
C 	C 	0.38516 0.25420 0.45328 -0.14300
C 	C 	0.21018 0.25135 0.12809 0.04000
C 	C 	0.22675 0.29341 0.10689 -0.11200
C 	C 	0.31510 0.30831 0.11129 -0.04600
C 	C 	0.37892 0.28281 0.13875 -0.04100
C 	C 	0.36063 0.24444 0.16090 -0.01500
C 	C 	0.27596 0.22808 0.15420 -0.08700
C 	C 	0.12376 0.23080 0.12128 0.02800
C 	C 	0.15208 0.19154 0.09210 -0.11800
C 	C 	0.07456 0.16652 0.08736 -0.07100
C 	C 	0.97631 0.18176 0.11282 -0.02700
C 	C 	0.94679 0.22059 0.14303 -0.03300
C 	C 	0.02101 0.24562 0.14576 -0.07000
C 	C 	0.34474 0.34969 0.08663 0.32700
C 	C 	0.15096 0.31985 0.07983 0.36900
C 	C 	0.26277 0.17385 0.06901 0.40200
C 	C 	0.10079 0.12843 0.05579 0.33200
C 	C 	0.62962 0.34687 0.94549 -0.03800
C 	C 	0.61174 0.39430 0.93122 -0.03200
C 	C 	0.69065 0.41578 0.91852 -0.05600
C 	C 	0.79521 0.39178 0.91580 0.03000
C 	C 	0.81373 0.34730 0.93164 -0.06600
C 	C 	0.72827 0.32367 0.94899 -0.03200
C 	C 	0.05324 0.43139 0.88153 -0.02800
C 	C 	0.96626 0.41460 0.91008 -0.07800
C 	C 	0.88515 0.41260 0.89150 0.05500
C 	C 	0.88317 0.42513 0.84653 -0.09000
C 	C 	0.96730 0.43995 0.81765 -0.01200
C 	C 	0.05411 0.44309 0.83549 -0.04800
C 	C 	0.50155 0.41905 0.93105 0.27200
C 	C 	0.66506 0.46659 0.90549 0.29500
C 	C 	0.97465 0.40135 0.95895 0.32400
C 	C 	0.13714 0.44170 0.90242 0.30000
C 	C 	0.91976 0.28984 0.03984 0.10100
C 	C 	0.86252 0.25566 0.03990 -0.15000
C 	C 	0.75461 0.26853 0.05445 0.05500
C 	C 	0.70726 0.31555 0.07113 -0.13500
C 	C 	0.77310 0.34403 0.06917 0.08200
C 	C 	0.68897 0.23291 0.05615 0.05700
C 	C 	0.73050 0.18493 0.06367 -0.13000
C 	C 	0.66677 0.15431 0.06355 0.08400
C 	C 	0.53533 0.21178 0.04636 0.07900
C 	C 	0.59264 0.24580 0.04672 -0.14300
C 	C 	0.66173 0.12809 0.24865 0.04000
C 	C 	0.66636 0.10689 0.20659 -0.11200
C 	C 	0.57361 0.11129 0.19169 -0.04600
C 	C 	0.48233 0.13875 0.21719 -0.04100
C 	C 	0.47847 0.16090 0.25556 -0.01500
C 	C 	0.56984 0.15420 0.27192 -0.08600
C 	C 	0.75496 0.12128 0.26920 0.02800
C 	C 	0.75582 0.09210 0.30846 -0.11700
C 	C 	0.83808 0.08736 0.33348 -0.07400
C 	C 	0.91087 0.11282 0.31824 -0.02400
C 	C 	0.91018 0.14303 0.27941 -0.03200
C 	C 	0.83323 0.14576 0.25438 -0.07300
C 	C 	0.56863 0.08663 0.15031 0.32700
C 	C 	0.76921 0.07983 0.18015 0.36900
C 	C 	0.66822 0.06901 0.32615 0.40200
C 	C 	0.84342 0.05579 0.37157 0.33300
C 	C 	0.42489 0.94549 0.15313 -0.03800
C 	C 	0.45704 0.93122 0.10570 -0.03200
C 	C 	0.39083 0.91852 0.08422 -0.05600
C 	C 	0.28899 0.91580 0.10822 0.03000
C 	C 	0.25463 0.93164 0.15270 -0.06600
C 	C 	0.32274 0.94899 0.17633 -0.03200
C 	C 	0.06523 0.88153 0.06861 -0.02800
C 	C 	0.12366 0.91008 0.08540 -0.07800
C 	C 	0.22335 0.89150 0.08740 0.05500
C 	C 	0.27030 0.84653 0.07487 -0.09000
C 	C 	0.21505 0.81765 0.06005 -0.01300
C 	C 	0.11040 0.83549 0.05691 -0.04700
C 	C 	0.56740 0.93105 0.08095 0.27200
C 	C 	0.42945 0.90549 0.03341 0.29500
C 	C 	0.06640 0.95895 0.09865 0.32300
C 	C 	0.96044 0.90242 0.05830 0.30000
C 	C 	0.04040 0.03984 0.21016 0.10600
C 	C 	0.09758 0.03990 0.24434 -0.15200
C 	C 	0.19094 0.05445 0.23147 0.05600
C 	C 	0.22161 0.07113 0.18445 -0.13600
C 	C 	0.15773 0.06917 0.15597 0.08300
C 	C 	0.25488 0.05615 0.26709 0.05700
C 	C 	0.20583 0.06367 0.31507 -0.13000
C 	C 	0.26968 0.06355 0.34569 0.08400
C 	C 	0.41831 0.04636 0.28822 0.07900
C 	C 	0.36064 0.04672 0.25420 -0.14300
C 	C 	0.53847 0.37191 0.25135 0.04000
C 	C 	0.47984 0.39311 0.29341 -0.11200
C 	C 	0.37659 0.38871 0.30831 -0.04600
C 	C 	0.33827 0.36125 0.28281 -0.04100
C 	C 	0.39493 0.33910 0.24444 -0.01500
C 	C 	0.49596 0.34580 0.22808 -0.08600
C 	C 	0.64544 0.37872 0.23080 0.02800
C 	C 	0.65638 0.40790 0.19154 -0.11700
C 	C 	0.75892 0.41264 0.16652 -0.07400
C 	C 	0.84193 0.38718 0.18176 -0.02400
C 	C 	0.83262 0.35697 0.22059 -0.03200
C 	C 	0.73337 0.35424 0.24562 -0.07300
C 	C 	0.30557 0.41337 0.34969 0.32700
C 	C 	0.52919 0.42017 0.31985 0.36900
C 	C 	0.56338 0.43099 0.17385 0.40200
C 	C 	0.77078 0.44421 0.12843 0.33300
C 	C 	0.02351 0.55451 0.34687 -0.03700
C 	C 	0.99396 0.56878 0.39430 -0.03300
C 	C 	0.89357 0.58148 0.41578 -0.05600
C 	C 	0.81301 0.58420 0.39178 0.03000
C 	C 	0.83897 0.56836 0.34730 -0.06600
C 	C 	0.94806 0.55101 0.32367 -0.03200
C 	C 	0.51537 0.61847 0.43139 -0.02800
C 	C 	0.61914 0.58992 0.41460 -0.07800
C 	C 	0.70225 0.60850 0.41260 0.05500
C 	C 	0.69170 0.65347 0.42513 -0.09000
C 	C 	0.59275 0.68235 0.43995 -0.01300
C 	C 	0.50280 0.66451 0.44309 -0.04700
C 	C 	0.07940 0.56895 0.41905 0.27200
C 	C 	0.86835 0.59451 0.46659 0.29500
C 	C 	0.62400 0.54105 0.40135 0.32300
C 	C 	0.42116 0.59758 0.44170 0.30000
C 	C 	0.79040 0.46016 0.28984 0.10100
C 	C 	0.88182 0.46010 0.25566 -0.15000
C 	C 	0.97686 0.44555 0.26853 0.05400
C 	C 	0.97719 0.42887 0.31555 -0.13700
C 	C 	0.88287 0.43083 0.34403 0.08300
C 	C 	0.07812 0.44385 0.23291 0.05800
C 	C 	0.08457 0.43633 0.18493 -0.13100
C 	C 	0.17892 0.43645 0.15431 0.08400
C 	C 	0.25289 0.45364 0.21178 0.08000
C 	C 	0.16156 0.45328 0.24580 -0.14400
C 	C 	0.91038 0.75135 0.62809 0.04200
C 	C 	0.87295 0.79341 0.60689 -0.11300
C 	C 	0.76530 0.80831 0.61129 -0.04500
C 	C 	0.69952 0.78281 0.63875 -0.04200
C 	C 	0.73403 0.74444 0.66090 -0.01300
C 	C 	0.84176 0.72808 0.65420 -0.08800
C 	C 	0.02416 0.73080 0.62128 0.02700
C 	C 	0.06428 0.69154 0.59210 -0.11800
C 	C 	0.17156 0.66652 0.58736 -0.07400
C 	C 	0.22911 0.68176 0.61282 -0.02400
C 	C 	0.18959 0.72059 0.64303 -0.03200
C 	C 	0.08761 0.74562 0.64576 -0.07200
C 	C 	0.71894 0.84969 0.58663 0.32700
C 	C 	0.94936 0.81985 0.57983 0.37100
C 	C 	0.99437 0.67385 0.56901 0.40300
C 	C 	0.21499 0.62843 0.55579 0.33300
C 	C 	0.57802 0.84687 0.44549 -0.03800
C 	C 	0.56274 0.89430 0.43122 -0.03200
C 	C 	0.47505 0.91578 0.41852 -0.05600
C 	C 	0.39721 0.89178 0.41580 0.03000
C 	C 	0.40733 0.84730 0.43164 -0.06600
C 	C 	0.49907 0.82367 0.44899 -0.03200
C 	C 	0.13384 0.93139 0.38153 -0.02700
C 	C 	0.20906 0.91460 0.41008 -0.07900
C 	C 	0.31075 0.91260 0.39150 0.05500
C 	C 	0.34517 0.92513 0.34653 -0.09000
C 	C 	0.27510 0.93995 0.31765 -0.01200
C 	C 	0.16731 0.94309 0.33549 -0.04800
C 	C 	0.64835 0.91905 0.43105 0.27200
C 	C 	0.46286 0.96659 0.40549 0.29500
C 	C 	0.16505 0.90135 0.45895 0.32300
C 	C 	0.01874 0.94170 0.40242 0.29700
C 	C 	0.25056 0.78984 0.53984 0.10100
C 	C 	0.34192 0.75566 0.53990 -0.15000
C 	C 	0.42241 0.76853 0.55445 0.05500
C 	C 	0.40606 0.81555 0.57113 -0.13500
C 	C 	0.31370 0.84403 0.56917 0.08200
C 	C 	0.52197 0.73291 0.55615 0.05700
C 	C 	0.52090 0.68493 0.56367 -0.13000
C 	C 	0.61537 0.65431 0.56355 0.08400
C 	C 	0.70653 0.71178 0.54636 0.07900
C 	C 	0.61484 0.74580 0.54672 -0.14300
C 	C 	0.78982 0.74865 0.87191 0.04000
C 	C 	0.77325 0.70659 0.89311 -0.11200
C 	C 	0.68490 0.69169 0.88871 -0.04600
C 	C 	0.62108 0.71719 0.86125 -0.04100
C 	C 	0.63937 0.75556 0.83910 -0.01500
C 	C 	0.72404 0.77192 0.84580 -0.08700
C 	C 	0.87624 0.76920 0.87872 0.02800
C 	C 	0.84792 0.80846 0.90790 -0.11800
C 	C 	0.92544 0.83348 0.91264 -0.07100
C 	C 	0.02369 0.81824 0.88718 -0.02700
C 	C 	0.05321 0.77941 0.85697 -0.03300
C 	C 	0.97899 0.75438 0.85424 -0.07000
C 	C 	0.65526 0.65031 0.91337 0.32700
C 	C 	0.84904 0.68015 0.92017 0.36900
C 	C 	0.73723 0.82615 0.93099 0.40200
C 	C 	0.89921 0.87157 0.94421 0.33200
C 	C 	0.37038 0.65313 0.05451 -0.03800
C 	C 	0.38826 0.60570 0.06878 -0.03200
C 	C 	0.30935 0.58422 0.08148 -0.05600
C 	C 	0.20479 0.60822 0.08420 0.03000
C 	C 	0.18627 0.65270 0.06836 -0.06600
C 	C 	0.27173 0.67633 0.05101 -0.03200
C 	C 	0.94676 0.56861 0.11847 -0.02800
C 	C 	0.03374 0.58540 0.08992 -0.07800
C 	C 	0.11485 0.58740 0.10850 0.05500
C 	C 	0.11683 0.57487 0.15347 -0.09000
C 	C 	0.03270 0.56005 0.18235 -0.01200
C 	C 	0.94589 0.55691 0.16451 -0.04800
C 	C 	0.49845 0.58095 0.06895 0.27200
C 	C 	0.33494 0.53341 0.09451 0.29500
C 	C 	0.02535 0.59865 0.04105 0.32400
C 	C 	0.86286 0.55830 0.09758 0.30000
C 	C 	0.08024 0.71016 0.96016 0.10100
C 	C 	0.13748 0.74434 0.96010 -0.15000
C 	C 	0.24539 0.73147 0.94555 0.05500
C 	C 	0.29274 0.68445 0.92887 -0.13500
C 	C 	0.22690 0.65597 0.93083 0.08200
C 	C 	0.31103 0.76709 0.94385 0.05700
C 	C 	0.26950 0.81507 0.93633 -0.13000
C 	C 	0.33323 0.84569 0.93645 0.08400
C 	C 	0.46467 0.78822 0.95364 0.07900
C 	C 	0.40736 0.75420 0.95328 -0.14300
N 	N 	0.93301 0.94500 0.83118 -0.23600
N 	N 	0.62708 0.94462 0.66682 -0.22700
N 	N 	0.20919 0.55500 0.66882 -0.23600
N 	N 	0.73852 0.55538 0.83318 -0.22700
N 	N 	0.76419 0.16882 0.44500 -0.23500
N 	N 	0.29390 0.33318 0.44462 -0.22700
N 	N 	0.87801 0.33118 0.05500 -0.23600
N 	N 	0.57170 0.16682 0.05538 -0.22700
N 	N 	0.06699 0.05500 0.16882 -0.23600
N 	N 	0.37292 0.05538 0.33318 -0.22700
N 	N 	0.79081 0.44500 0.33118 -0.23600
N 	N 	0.26148 0.44462 0.16682 -0.22700
N 	N 	0.23581 0.83118 0.55500 -0.23500
N 	N 	0.70610 0.66682 0.55538 -0.22700
N 	N 	0.12199 0.66882 0.94500 -0.23600
N 	N 	0.42830 0.83318 0.94462 -0.22700
O 	O 	0.18903 0.95981 0.80473 -0.50000
O 	O 	0.18382 0.90161 0.85375 -0.43200
O 	O 	0.36454 0.95035 0.86257 -0.28900
O 	O 	0.50377 0.89817 0.86949 -0.41900
O 	O 	0.34947 0.96060 0.69626 -0.50200
O 	O 	0.39177 0.91366 0.63680 -0.42300
O 	O 	0.18907 0.98176 0.62830 -0.23800
O 	O 	0.12194 0.93486 0.59566 -0.38500
O 	O 	0.61725 0.07358 0.99552 -0.34100
O 	O 	0.48647 0.12586 0.97780 -0.37100
O 	O 	0.41696 0.04070 0.95198 -0.22000
O 	O 	0.35703 0.09758 0.90776 -0.22100
O 	O 	0.02135 0.03296 0.87674 -0.39200
O 	O 	0.88737 0.00926 0.91820 -0.34100
O 	O 	0.11163 0.11852 0.92402 -0.22400
O 	O 	0.05116 0.06525 0.96763 -0.22800
O 	O 	0.45357 0.54019 0.69527 -0.50000
O 	O 	0.43918 0.59839 0.64625 -0.43100
O 	O 	0.67746 0.54965 0.63743 -0.28900
O 	O 	0.77143 0.60183 0.63051 -0.41900
O 	O 	0.50633 0.53940 0.80374 -0.50100
O 	O 	0.44223 0.58634 0.86320 -0.42300
O 	O 	0.29913 0.51824 0.87170 -0.23800
O 	O 	0.15246 0.56514 0.90434 -0.38500
O 	O 	0.18635 0.42642 0.50448 -0.34100
O 	O 	0.09013 0.37414 0.52220 -0.37100
O 	O 	0.90964 0.45930 0.54802 -0.22000
O 	O 	0.86237 0.40242 0.59224 -0.22100
O 	O 	0.43105 0.46704 0.62326 -0.39300
O 	O 	0.31483 0.49074 0.58180 -0.34100
O 	O 	0.65417 0.38148 0.57598 -0.22400
O 	O 	0.58404 0.43475 0.53237 -0.22800
O 	O 	0.99376 0.19527 0.45981 -0.50100
O 	O 	0.03757 0.14625 0.40161 -0.43100
O 	O 	0.22711 0.13743 0.45035 -0.28800
O 	O 	0.37326 0.13051 0.39817 -0.41900
O 	O 	0.04573 0.30374 0.46060 -0.50100
O 	O 	0.02857 0.36320 0.41366 -0.42200
O 	O 	0.81737 0.37170 0.48176 -0.23800
O 	O 	0.71760 0.40434 0.43486 -0.38500
O 	O 	0.61277 0.00448 0.57358 -0.34100
O 	O 	0.46427 0.02220 0.62586 -0.37100
O 	O 	0.36894 0.04802 0.54070 -0.22000
O 	O 	0.26479 0.09224 0.59758 -0.22100
O 	O 	0.89809 0.12326 0.53296 -0.39300
O 	O 	0.80557 0.08180 0.50926 -0.34200
O 	O 	0.03565 0.07598 0.61852 -0.22200
O 	O 	0.01879 0.03237 0.56525 -0.22600
O 	O 	0.14884 0.30473 0.04019 -0.49900
O 	O 	0.08543 0.35375 0.09839 -0.43100
O 	O 	0.31489 0.36257 0.04965 -0.28900
O 	O 	0.40194 0.36949 0.10183 -0.41900
O 	O 	0.31007 0.19626 0.03940 -0.50100
O 	O 	0.30543 0.13680 0.08634 -0.42300
O 	O 	0.17083 0.12830 0.01824 -0.23700
O 	O 	0.05680 0.09566 0.06514 -0.38300
O 	O 	0.69083 0.49552 0.92642 -0.34100
O 	O 	0.61233 0.47780 0.87414 -0.37100
O 	O 	0.45766 0.45198 0.95930 -0.22000
O 	O 	0.45461 0.40776 0.90242 -0.22100
O 	O 	0.05431 0.37674 0.96704 -0.39400
O 	O 	0.89663 0.41820 0.99074 -0.34100
O 	O 	0.23015 0.42402 0.88148 -0.22400
O 	O 	0.11641 0.46763 0.93475 -0.22900
O 	O 	0.81097 0.04019 0.19527 -0.50000
O 	O 	0.81618 0.09839 0.14625 -0.43200
O 	O 	0.63546 0.04965 0.13743 -0.28900
O 	O 	0.49623 0.10183 0.13051 -0.41900
O 	O 	0.65053 0.03940 0.30374 -0.50200
O 	O 	0.60823 0.08634 0.36320 -0.42300
O 	O 	0.81093 0.01824 0.37170 -0.23800
O 	O 	0.87806 0.06514 0.40434 -0.38500
O 	O 	0.38275 0.92642 0.00448 -0.34100
O 	O 	0.51353 0.87414 0.02220 -0.37100
O 	O 	0.58304 0.95930 0.04802 -0.22000
O 	O 	0.64297 0.90242 0.09224 -0.22100
O 	O 	0.97865 0.96704 0.12326 -0.39200
O 	O 	0.11263 0.99074 0.08180 -0.34100
O 	O 	0.88837 0.88148 0.07598 -0.22400
O 	O 	0.94884 0.93475 0.03237 -0.22800
O 	O 	0.54643 0.45981 0.30473 -0.50000
O 	O 	0.56082 0.40161 0.35375 -0.43100
O 	O 	0.32254 0.45035 0.36257 -0.28900
O 	O 	0.22857 0.39817 0.36949 -0.41900
O 	O 	0.49367 0.46060 0.19626 -0.50100
O 	O 	0.55777 0.41366 0.13680 -0.42300
O 	O 	0.70087 0.48176 0.12830 -0.23800
O 	O 	0.84754 0.43486 0.09566 -0.38500
O 	O 	0.81365 0.57358 0.49552 -0.34100
O 	O 	0.90987 0.62586 0.47780 -0.37100
O 	O 	0.09036 0.54070 0.45198 -0.22000
O 	O 	0.13763 0.59758 0.40776 -0.22100
O 	O 	0.56895 0.53296 0.37674 -0.39300
O 	O 	0.68517 0.50926 0.41820 -0.34100
O 	O 	0.34583 0.61852 0.42402 -0.22400
O 	O 	0.41596 0.56525 0.46763 -0.22800
O 	O 	0.00624 0.80473 0.54019 -0.50100
O 	O 	0.96243 0.85375 0.59839 -0.43100
O 	O 	0.77289 0.86257 0.54965 -0.28800
O 	O 	0.62674 0.86949 0.60183 -0.41900
O 	O 	0.95427 0.69626 0.53940 -0.50100
O 	O 	0.97143 0.63680 0.58634 -0.42200
O 	O 	0.18263 0.62830 0.51824 -0.23800
O 	O 	0.28240 0.59566 0.56514 -0.38500
O 	O 	0.38723 0.99552 0.42642 -0.34100
O 	O 	0.53573 0.97780 0.37414 -0.37100
O 	O 	0.63106 0.95198 0.45930 -0.22000
O 	O 	0.73521 0.90776 0.40242 -0.22100
O 	O 	0.10191 0.87674 0.46704 -0.39300
O 	O 	0.19443 0.91820 0.49074 -0.34200
O 	O 	0.96435 0.92402 0.38148 -0.22200
O 	O 	0.98121 0.96763 0.43475 -0.22600
O 	O 	0.85116 0.69527 0.95981 -0.49900
O 	O 	0.91457 0.64625 0.90161 -0.43100
O 	O 	0.68511 0.63743 0.95035 -0.28900
O 	O 	0.59806 0.63051 0.89817 -0.41900
O 	O 	0.68993 0.80374 0.96060 -0.50100
O 	O 	0.69457 0.86320 0.91366 -0.42300
O 	O 	0.82917 0.87170 0.98176 -0.23700
O 	O 	0.94320 0.90434 0.93486 -0.38300
O 	O 	0.30917 0.50448 0.07358 -0.34100
O 	O 	0.38767 0.52220 0.12586 -0.37100
O 	O 	0.54234 0.54802 0.04070 -0.22000
O 	O 	0.54539 0.59224 0.09758 -0.22100
O 	O 	0.94569 0.62326 0.03296 -0.39400
O 	O 	0.10337 0.58180 0.00926 -0.34100
O 	O 	0.76985 0.57598 0.11852 -0.22400
O 	O 	0.88359 0.53237 0.06525 -0.22900
