data_crystal

_cell_length_a 25.83800
_cell_length_b 25.83800
_cell_length_c 25.83800
_cell_angle_alpha 90.00000
_cell_angle_beta  90.00000
_cell_angle_gamma 90.00000

_symmetry_space_group_name_	'P 1'
_symmetry_space_group_name_H-M	'P 1'

loop_
_symmetry_equiv_pos_as_xyz
  x,y,z

loop_
_atom_site_label
_atom_site_type_symbol
_atom_site_fract_x
_atom_site_fract_y
_atom_site_fract_z
_atom_site_charge
Ni	Ni	0.20654 0.20654 0.20654 1.08100
Ni	Ni	0.20654 0.70654 0.70654 1.08100
Ni	Ni	0.70654 0.20654 0.70654 1.08100
Ni	Ni	0.70654 0.70654 0.20654 1.08100
Ni	Ni	0.79346 0.79346 0.20654 1.08100
Ni	Ni	0.79346 0.29346 0.70654 1.08100
Ni	Ni	0.29346 0.79346 0.70654 1.08100
Ni	Ni	0.29346 0.29346 0.20654 1.08100
Ni	Ni	0.79346 0.20654 0.79346 1.08100
Ni	Ni	0.79346 0.70654 0.29346 1.08100
Ni	Ni	0.29346 0.20654 0.29346 1.08100
Ni	Ni	0.29346 0.70654 0.79346 1.08100
Ni	Ni	0.20654 0.79346 0.79346 1.08100
Ni	Ni	0.20654 0.29346 0.29346 1.08100
Ni	Ni	0.70654 0.79346 0.29346 1.08100
Ni	Ni	0.70654 0.29346 0.79346 1.08100
Ni	Ni	0.20654 0.20654 0.79346 1.08100
Ni	Ni	0.20654 0.70654 0.29346 1.08100
Ni	Ni	0.70654 0.20654 0.29346 1.08100
Ni	Ni	0.70654 0.70654 0.79346 1.08100
Ni	Ni	0.79346 0.79346 0.79346 1.08100
Ni	Ni	0.79346 0.29346 0.29346 1.08100
Ni	Ni	0.29346 0.79346 0.29346 1.08100
Ni	Ni	0.29346 0.29346 0.79346 1.08100
Ni	Ni	0.20654 0.79346 0.20654 1.08200
Ni	Ni	0.20654 0.29346 0.70654 1.08200
Ni	Ni	0.70654 0.79346 0.70654 1.08200
Ni	Ni	0.70654 0.29346 0.20654 1.08200
Ni	Ni	0.79346 0.20654 0.20654 1.08200
Ni	Ni	0.79346 0.70654 0.70654 1.08200
Ni	Ni	0.29346 0.20654 0.70654 1.08200
Ni	Ni	0.29346 0.70654 0.20654 1.08200
O 	O 	0.25000 0.25000 0.25000 -0.85100
O 	O 	0.75000 0.75000 0.25000 -0.85100
O 	O 	0.75000 0.25000 0.75000 -0.85100
O 	O 	0.25000 0.75000 0.75000 -0.85100
O 	O 	0.25000 0.25000 0.75000 -0.85100
O 	O 	0.75000 0.75000 0.75000 -0.85100
O 	O 	0.75000 0.25000 0.25000 -0.85100
O 	O 	0.25000 0.75000 0.25000 -0.85100
O 	O 	0.21893 0.21893 0.13338 -0.45800
C 	C 	0.21749 0.21749 0.02710 -0.01700
H 	H 	0.19500 0.19500 0.04550 0.05100
O 	O 	0.21893 0.71893 0.63338 -0.45800
C 	C 	0.21749 0.71749 0.52710 -0.01700
H 	H 	0.19500 0.69500 0.54550 0.05100
O 	O 	0.71893 0.21893 0.63338 -0.45800
C 	C 	0.71749 0.21749 0.52710 -0.01700
H 	H 	0.69500 0.19500 0.54550 0.05100
O 	O 	0.71893 0.71893 0.13338 -0.45800
C 	C 	0.71749 0.71749 0.02710 -0.01700
H 	H 	0.69500 0.69500 0.04550 0.05100
O 	O 	0.78107 0.78107 0.13338 -0.45800
C 	C 	0.78251 0.78251 0.02710 -0.01700
H 	H 	0.80500 0.80500 0.04550 0.05100
O 	O 	0.78107 0.28107 0.63338 -0.45800
C 	C 	0.78251 0.28251 0.52710 -0.01700
H 	H 	0.80500 0.30500 0.54550 0.05100
O 	O 	0.28107 0.78107 0.63338 -0.45800
C 	C 	0.28251 0.78251 0.52710 -0.01700
H 	H 	0.30500 0.80500 0.54550 0.05100
O 	O 	0.28107 0.28107 0.13338 -0.45800
C 	C 	0.28251 0.28251 0.02710 -0.01700
H 	H 	0.30500 0.30500 0.04550 0.05100
O 	O 	0.78107 0.21893 0.86662 -0.45800
C 	C 	0.78251 0.21749 0.97290 -0.01700
H 	H 	0.80500 0.19500 0.95450 0.05100
O 	O 	0.78107 0.71893 0.36662 -0.45800
C 	C 	0.78251 0.71749 0.47290 -0.01700
H 	H 	0.80500 0.69500 0.45450 0.05100
O 	O 	0.28107 0.21893 0.36662 -0.45800
C 	C 	0.28251 0.21749 0.47290 -0.01700
H 	H 	0.30500 0.19500 0.45450 0.05100
O 	O 	0.28107 0.71893 0.86662 -0.45800
C 	C 	0.28251 0.71749 0.97290 -0.01700
H 	H 	0.30500 0.69500 0.95450 0.05100
O 	O 	0.21893 0.78107 0.86662 -0.45800
C 	C 	0.21749 0.78251 0.97290 -0.01700
H 	H 	0.19500 0.80500 0.95450 0.05100
O 	O 	0.21893 0.28107 0.36662 -0.45800
C 	C 	0.21749 0.28251 0.47290 -0.01700
H 	H 	0.19500 0.30500 0.45450 0.05100
O 	O 	0.71893 0.78107 0.36662 -0.45800
C 	C 	0.71749 0.78251 0.47290 -0.01700
H 	H 	0.69500 0.80500 0.45450 0.05100
O 	O 	0.71893 0.28107 0.86662 -0.45800
C 	C 	0.71749 0.28251 0.97290 -0.01700
H 	H 	0.69500 0.30500 0.95450 0.05100
O 	O 	0.13338 0.21893 0.21893 -0.45800
C 	C 	0.02710 0.21749 0.21749 -0.01700
H 	H 	0.04550 0.19500 0.19500 0.05100
O 	O 	0.13338 0.71893 0.71893 -0.45800
C 	C 	0.02710 0.71749 0.71749 -0.01700
H 	H 	0.04550 0.69500 0.69500 0.05100
O 	O 	0.63338 0.21893 0.71893 -0.45800
C 	C 	0.52710 0.21749 0.71749 -0.01700
H 	H 	0.54550 0.19500 0.69500 0.05100
O 	O 	0.63338 0.71893 0.21893 -0.45800
C 	C 	0.52710 0.71749 0.21749 -0.01700
H 	H 	0.54550 0.69500 0.19500 0.05100
O 	O 	0.13338 0.78107 0.78107 -0.45800
C 	C 	0.02710 0.78251 0.78251 -0.01700
H 	H 	0.04550 0.80500 0.80500 0.05100
O 	O 	0.13338 0.28107 0.28107 -0.45800
C 	C 	0.02710 0.28251 0.28251 -0.01700
H 	H 	0.04550 0.30500 0.30500 0.05100
O 	O 	0.63338 0.78107 0.28107 -0.45800
C 	C 	0.52710 0.78251 0.28251 -0.01700
H 	H 	0.54550 0.80500 0.30500 0.05100
O 	O 	0.63338 0.28107 0.78107 -0.45800
C 	C 	0.52710 0.28251 0.78251 -0.01700
H 	H 	0.54550 0.30500 0.80500 0.05100
O 	O 	0.86662 0.78107 0.21893 -0.45800
C 	C 	0.97290 0.78251 0.21749 -0.01700
H 	H 	0.95450 0.80500 0.19500 0.05100
O 	O 	0.86662 0.28107 0.71893 -0.45800
C 	C 	0.97290 0.28251 0.71749 -0.01700
H 	H 	0.95450 0.30500 0.69500 0.05100
O 	O 	0.36662 0.78107 0.71893 -0.45800
C 	C 	0.47290 0.78251 0.71749 -0.01700
H 	H 	0.45450 0.80500 0.69500 0.05100
O 	O 	0.36662 0.28107 0.21893 -0.45800
C 	C 	0.47290 0.28251 0.21749 -0.01700
H 	H 	0.45450 0.30500 0.19500 0.05100
O 	O 	0.86662 0.21893 0.78107 -0.45800
C 	C 	0.97290 0.21749 0.78251 -0.01700
H 	H 	0.95450 0.19500 0.80500 0.05100
O 	O 	0.86662 0.71893 0.28107 -0.45800
C 	C 	0.97290 0.71749 0.28251 -0.01700
H 	H 	0.95450 0.69500 0.30500 0.05100
O 	O 	0.36662 0.21893 0.28107 -0.45800
C 	C 	0.47290 0.21749 0.28251 -0.01700
H 	H 	0.45450 0.19500 0.30500 0.05100
O 	O 	0.36662 0.71893 0.78107 -0.45800
C 	C 	0.47290 0.71749 0.78251 -0.01700
H 	H 	0.45450 0.69500 0.80500 0.05100
O 	O 	0.21893 0.13338 0.21893 -0.45800
C 	C 	0.21749 0.02710 0.21749 -0.01700
H 	H 	0.19500 0.04550 0.19500 0.05100
O 	O 	0.21893 0.63338 0.71893 -0.45800
C 	C 	0.21749 0.52710 0.71749 -0.01700
H 	H 	0.19500 0.54550 0.69500 0.05100
O 	O 	0.71893 0.13338 0.71893 -0.45800
C 	C 	0.71749 0.02710 0.71749 -0.01700
H 	H 	0.69500 0.04550 0.69500 0.05100
O 	O 	0.71893 0.63338 0.21893 -0.45800
C 	C 	0.71749 0.52710 0.21749 -0.01700
H 	H 	0.69500 0.54550 0.19500 0.05100
O 	O 	0.78107 0.13338 0.78107 -0.45800
C 	C 	0.78251 0.02710 0.78251 -0.01700
H 	H 	0.80500 0.04550 0.80500 0.05100
O 	O 	0.78107 0.63338 0.28107 -0.45800
C 	C 	0.78251 0.52710 0.28251 -0.01700
H 	H 	0.80500 0.54550 0.30500 0.05100
O 	O 	0.28107 0.13338 0.28107 -0.45800
C 	C 	0.28251 0.02710 0.28251 -0.01700
H 	H 	0.30500 0.04550 0.30500 0.05100
O 	O 	0.28107 0.63338 0.78107 -0.45800
C 	C 	0.28251 0.52710 0.78251 -0.01700
H 	H 	0.30500 0.54550 0.80500 0.05100
O 	O 	0.21893 0.86662 0.78107 -0.45800
C 	C 	0.21749 0.97290 0.78251 -0.01700
H 	H 	0.19500 0.95450 0.80500 0.05100
O 	O 	0.21893 0.36662 0.28107 -0.45800
C 	C 	0.21749 0.47290 0.28251 -0.01700
H 	H 	0.19500 0.45450 0.30500 0.05100
O 	O 	0.71893 0.86662 0.28107 -0.45800
C 	C 	0.71749 0.97290 0.28251 -0.01700
H 	H 	0.69500 0.95450 0.30500 0.05100
O 	O 	0.71893 0.36662 0.78107 -0.45800
C 	C 	0.71749 0.47290 0.78251 -0.01700
H 	H 	0.69500 0.45450 0.80500 0.05100
O 	O 	0.78107 0.86662 0.21893 -0.45800
C 	C 	0.78251 0.97290 0.21749 -0.01700
H 	H 	0.80500 0.95450 0.19500 0.05100
O 	O 	0.78107 0.36662 0.71893 -0.45800
C 	C 	0.78251 0.47290 0.71749 -0.01700
H 	H 	0.80500 0.45450 0.69500 0.05100
O 	O 	0.28107 0.86662 0.71893 -0.45800
C 	C 	0.28251 0.97290 0.71749 -0.01700
H 	H 	0.30500 0.95450 0.69500 0.05100
O 	O 	0.28107 0.36662 0.21893 -0.45800
C 	C 	0.28251 0.47290 0.21749 -0.01700
H 	H 	0.30500 0.45450 0.19500 0.05100
O 	O 	0.21893 0.21893 0.86662 -0.45800
C 	C 	0.21749 0.21749 0.97290 -0.01700
H 	H 	0.19500 0.19500 0.95450 0.05100
O 	O 	0.21893 0.71893 0.36662 -0.45800
C 	C 	0.21749 0.71749 0.47290 -0.01700
H 	H 	0.19500 0.69500 0.45450 0.05100
O 	O 	0.71893 0.21893 0.36662 -0.45800
C 	C 	0.71749 0.21749 0.47290 -0.01700
H 	H 	0.69500 0.19500 0.45450 0.05100
O 	O 	0.71893 0.71893 0.86662 -0.45800
C 	C 	0.71749 0.71749 0.97290 -0.01700
H 	H 	0.69500 0.69500 0.95450 0.05100
O 	O 	0.78107 0.78107 0.86662 -0.45800
C 	C 	0.78251 0.78251 0.97290 -0.01700
H 	H 	0.80500 0.80500 0.95450 0.05100
O 	O 	0.78107 0.28107 0.36662 -0.45800
C 	C 	0.78251 0.28251 0.47290 -0.01700
H 	H 	0.80500 0.30500 0.45450 0.05100
O 	O 	0.28107 0.78107 0.36662 -0.45800
C 	C 	0.28251 0.78251 0.47290 -0.01700
H 	H 	0.30500 0.80500 0.45450 0.05100
O 	O 	0.28107 0.28107 0.86662 -0.45800
C 	C 	0.28251 0.28251 0.97290 -0.01700
H 	H 	0.30500 0.30500 0.95450 0.05100
O 	O 	0.21893 0.78107 0.13338 -0.45800
C 	C 	0.21749 0.78251 0.02710 -0.01700
H 	H 	0.19500 0.80500 0.04550 0.05100
O 	O 	0.21893 0.28107 0.63338 -0.45800
C 	C 	0.21749 0.28251 0.52710 -0.01700
H 	H 	0.19500 0.30500 0.54550 0.05100
O 	O 	0.71893 0.78107 0.63338 -0.45800
C 	C 	0.71749 0.78251 0.52710 -0.01700
H 	H 	0.69500 0.80500 0.54550 0.05100
O 	O 	0.71893 0.28107 0.13338 -0.45800
C 	C 	0.71749 0.28251 0.02710 -0.01700
H 	H 	0.69500 0.30500 0.04550 0.05100
O 	O 	0.78107 0.21893 0.13338 -0.45800
C 	C 	0.78251 0.21749 0.02710 -0.01700
H 	H 	0.80500 0.19500 0.04550 0.05100
O 	O 	0.78107 0.71893 0.63338 -0.45800
C 	C 	0.78251 0.71749 0.52710 -0.01700
H 	H 	0.80500 0.69500 0.54550 0.05100
O 	O 	0.28107 0.21893 0.63338 -0.45800
C 	C 	0.28251 0.21749 0.52710 -0.01700
H 	H 	0.30500 0.19500 0.54550 0.05100
O 	O 	0.28107 0.71893 0.13338 -0.45800
C 	C 	0.28251 0.71749 0.02710 -0.01700
H 	H 	0.30500 0.69500 0.04550 0.05100
O 	O 	0.21893 0.13338 0.78107 -0.45800
C 	C 	0.21749 0.02710 0.78251 -0.01700
H 	H 	0.19500 0.04550 0.80500 0.05100
O 	O 	0.21893 0.63338 0.28107 -0.45800
C 	C 	0.21749 0.52710 0.28251 -0.01700
H 	H 	0.19500 0.54550 0.30500 0.05100
O 	O 	0.71893 0.13338 0.28107 -0.45800
C 	C 	0.71749 0.02710 0.28251 -0.01700
H 	H 	0.69500 0.04550 0.30500 0.05100
O 	O 	0.71893 0.63338 0.78107 -0.45800
C 	C 	0.71749 0.52710 0.78251 -0.01700
H 	H 	0.69500 0.54550 0.80500 0.05100
O 	O 	0.78107 0.13338 0.21893 -0.45800
C 	C 	0.78251 0.02710 0.21749 -0.01700
H 	H 	0.80500 0.04550 0.19500 0.05100
O 	O 	0.78107 0.63338 0.71893 -0.45800
C 	C 	0.78251 0.52710 0.71749 -0.01700
H 	H 	0.80500 0.54550 0.69500 0.05100
O 	O 	0.28107 0.13338 0.71893 -0.45800
C 	C 	0.28251 0.02710 0.71749 -0.01700
H 	H 	0.30500 0.04550 0.69500 0.05100
O 	O 	0.28107 0.63338 0.21893 -0.45800
C 	C 	0.28251 0.52710 0.21749 -0.01700
H 	H 	0.30500 0.54550 0.19500 0.05100
O 	O 	0.78107 0.86662 0.78107 -0.45800
C 	C 	0.78251 0.97290 0.78251 -0.01700
H 	H 	0.80500 0.95450 0.80500 0.05100
O 	O 	0.78107 0.36662 0.28107 -0.45800
C 	C 	0.78251 0.47290 0.28251 -0.01700
H 	H 	0.80500 0.45450 0.30500 0.05100
O 	O 	0.28107 0.86662 0.28107 -0.45800
C 	C 	0.28251 0.97290 0.28251 -0.01700
H 	H 	0.30500 0.95450 0.30500 0.05100
O 	O 	0.28107 0.36662 0.78107 -0.45800
C 	C 	0.28251 0.47290 0.78251 -0.01700
H 	H 	0.30500 0.45450 0.80500 0.05100
O 	O 	0.21893 0.86662 0.21893 -0.45800
C 	C 	0.21749 0.97290 0.21749 -0.01700
H 	H 	0.19500 0.95450 0.19500 0.05100
O 	O 	0.21893 0.36662 0.71893 -0.45800
C 	C 	0.21749 0.47290 0.71749 -0.01700
H 	H 	0.19500 0.45450 0.69500 0.05100
O 	O 	0.71893 0.86662 0.71893 -0.45800
C 	C 	0.71749 0.97290 0.71749 -0.01700
H 	H 	0.69500 0.95450 0.69500 0.05100
O 	O 	0.71893 0.36662 0.21893 -0.45800
C 	C 	0.71749 0.47290 0.21749 -0.01700
H 	H 	0.69500 0.45450 0.19500 0.05100
O 	O 	0.13338 0.21893 0.78107 -0.45800
C 	C 	0.02710 0.21749 0.78251 -0.01700
H 	H 	0.04550 0.19500 0.80500 0.05100
O 	O 	0.13338 0.71893 0.28107 -0.45800
C 	C 	0.02710 0.71749 0.28251 -0.01700
H 	H 	0.04550 0.69500 0.30500 0.05100
O 	O 	0.63338 0.21893 0.28107 -0.45800
C 	C 	0.52710 0.21749 0.28251 -0.01700
H 	H 	0.54550 0.19500 0.30500 0.05100
O 	O 	0.63338 0.71893 0.78107 -0.45800
C 	C 	0.52710 0.71749 0.78251 -0.01700
H 	H 	0.54550 0.69500 0.80500 0.05100
O 	O 	0.13338 0.78107 0.21893 -0.45800
C 	C 	0.02710 0.78251 0.21749 -0.01700
H 	H 	0.04550 0.80500 0.19500 0.05100
O 	O 	0.13338 0.28107 0.71893 -0.45800
C 	C 	0.02710 0.28251 0.71749 -0.01700
H 	H 	0.04550 0.30500 0.69500 0.05100
O 	O 	0.63338 0.78107 0.71893 -0.45800
C 	C 	0.52710 0.78251 0.71749 -0.01700
H 	H 	0.54550 0.80500 0.69500 0.05100
O 	O 	0.63338 0.28107 0.21893 -0.45800
C 	C 	0.52710 0.28251 0.21749 -0.01700
H 	H 	0.54550 0.30500 0.19500 0.05100
O 	O 	0.86662 0.21893 0.21893 -0.45800
C 	C 	0.97290 0.21749 0.21749 -0.01700
H 	H 	0.95450 0.19500 0.19500 0.05100
O 	O 	0.86662 0.71893 0.71893 -0.45800
C 	C 	0.97290 0.71749 0.71749 -0.01700
H 	H 	0.95450 0.69500 0.69500 0.05100
O 	O 	0.36662 0.21893 0.71893 -0.45800
C 	C 	0.47290 0.21749 0.71749 -0.01700
H 	H 	0.45450 0.19500 0.69500 0.05100
O 	O 	0.36662 0.71893 0.21893 -0.45800
C 	C 	0.47290 0.71749 0.21749 -0.01700
H 	H 	0.45450 0.69500 0.19500 0.05100
O 	O 	0.86662 0.78107 0.78107 -0.45800
C 	C 	0.97290 0.78251 0.78251 -0.01700
H 	H 	0.95450 0.80500 0.80500 0.05100
O 	O 	0.86662 0.28107 0.28107 -0.45800
C 	C 	0.97290 0.28251 0.28251 -0.01700
H 	H 	0.95450 0.30500 0.30500 0.05100
O 	O 	0.36662 0.78107 0.28107 -0.45800
C 	C 	0.47290 0.78251 0.28251 -0.01700
H 	H 	0.45450 0.80500 0.30500 0.05100
O 	O 	0.36662 0.28107 0.78107 -0.45800
C 	C 	0.47290 0.28251 0.78251 -0.01700
H 	H 	0.45450 0.30500 0.80500 0.05100
C 	C 	0.25000 0.25000 0.11080 0.34500
C 	C 	0.25000 0.25000 0.05320 -0.07600
C 	C 	0.25000 0.75000 0.61080 0.34500
C 	C 	0.25000 0.75000 0.55320 -0.07600
C 	C 	0.75000 0.75000 0.11080 0.34500
C 	C 	0.75000 0.75000 0.05320 -0.07600
C 	C 	0.75000 0.25000 0.61080 0.34500
C 	C 	0.75000 0.25000 0.55320 -0.07600
C 	C 	0.75000 0.25000 0.88920 0.34500
C 	C 	0.75000 0.25000 0.94680 -0.07600
C 	C 	0.75000 0.75000 0.38920 0.34500
C 	C 	0.75000 0.75000 0.44680 -0.07600
C 	C 	0.25000 0.25000 0.38920 0.34500
C 	C 	0.25000 0.25000 0.44680 -0.07600
C 	C 	0.25000 0.75000 0.88920 0.34500
C 	C 	0.25000 0.75000 0.94680 -0.07600
C 	C 	0.11080 0.25000 0.25000 0.34500
C 	C 	0.05320 0.25000 0.25000 -0.07600
C 	C 	0.61080 0.25000 0.75000 0.34500
C 	C 	0.55320 0.25000 0.75000 -0.07600
C 	C 	0.11080 0.75000 0.75000 0.34500
C 	C 	0.05320 0.75000 0.75000 -0.07600
C 	C 	0.61080 0.75000 0.25000 0.34500
C 	C 	0.55320 0.75000 0.25000 -0.07600
C 	C 	0.88920 0.75000 0.25000 0.34500
C 	C 	0.94680 0.75000 0.25000 -0.07600
C 	C 	0.38920 0.75000 0.75000 0.34500
C 	C 	0.44680 0.75000 0.75000 -0.07600
C 	C 	0.38920 0.25000 0.25000 0.34500
C 	C 	0.44680 0.25000 0.25000 -0.07600
C 	C 	0.88920 0.25000 0.75000 0.34500
C 	C 	0.94680 0.25000 0.75000 -0.07600
C 	C 	0.25000 0.11080 0.25000 0.34500
C 	C 	0.25000 0.05320 0.25000 -0.07600
C 	C 	0.25000 0.61080 0.75000 0.34500
C 	C 	0.25000 0.55320 0.75000 -0.07600
C 	C 	0.75000 0.11080 0.75000 0.34500
C 	C 	0.75000 0.05320 0.75000 -0.07600
C 	C 	0.75000 0.61080 0.25000 0.34500
C 	C 	0.75000 0.55320 0.25000 -0.07600
C 	C 	0.25000 0.88920 0.75000 0.34500
C 	C 	0.25000 0.94680 0.75000 -0.07600
C 	C 	0.25000 0.38920 0.25000 0.34500
C 	C 	0.25000 0.44680 0.25000 -0.07600
C 	C 	0.75000 0.88920 0.25000 0.34500
C 	C 	0.75000 0.94680 0.25000 -0.07600
C 	C 	0.75000 0.38920 0.75000 0.34500
C 	C 	0.75000 0.44680 0.75000 -0.07600
C 	C 	0.25000 0.25000 0.88920 0.34500
C 	C 	0.25000 0.25000 0.94680 -0.07600
C 	C 	0.25000 0.75000 0.38920 0.34500
C 	C 	0.25000 0.75000 0.44680 -0.07600
C 	C 	0.75000 0.75000 0.88920 0.34500
C 	C 	0.75000 0.75000 0.94680 -0.07600
C 	C 	0.75000 0.25000 0.38920 0.34500
C 	C 	0.75000 0.25000 0.44680 -0.07600
C 	C 	0.25000 0.75000 0.11080 0.34500
C 	C 	0.25000 0.75000 0.05320 -0.07600
C 	C 	0.25000 0.25000 0.61080 0.34500
C 	C 	0.25000 0.25000 0.55320 -0.07600
C 	C 	0.75000 0.25000 0.11080 0.34500
C 	C 	0.75000 0.25000 0.05320 -0.07600
C 	C 	0.75000 0.75000 0.61080 0.34500
C 	C 	0.75000 0.75000 0.55320 -0.07600
C 	C 	0.25000 0.11080 0.75000 0.34500
C 	C 	0.25000 0.05320 0.75000 -0.07600
C 	C 	0.25000 0.61080 0.25000 0.34500
C 	C 	0.25000 0.55320 0.25000 -0.07600
C 	C 	0.75000 0.11080 0.25000 0.34500
C 	C 	0.75000 0.05320 0.25000 -0.07600
C 	C 	0.75000 0.61080 0.75000 0.34500
C 	C 	0.75000 0.55320 0.75000 -0.07600
C 	C 	0.75000 0.88920 0.75000 0.34500
C 	C 	0.75000 0.94680 0.75000 -0.07600
C 	C 	0.75000 0.38920 0.25000 0.34500
C 	C 	0.75000 0.44680 0.25000 -0.07600
C 	C 	0.25000 0.88920 0.25000 0.34500
C 	C 	0.25000 0.94680 0.25000 -0.07600
C 	C 	0.25000 0.38920 0.75000 0.34500
C 	C 	0.25000 0.44680 0.75000 -0.07600
C 	C 	0.11080 0.25000 0.75000 0.34500
C 	C 	0.05320 0.25000 0.75000 -0.07600
C 	C 	0.61080 0.25000 0.25000 0.34500
C 	C 	0.55320 0.25000 0.25000 -0.07600
C 	C 	0.11080 0.75000 0.25000 0.34500
C 	C 	0.05320 0.75000 0.25000 -0.07600
C 	C 	0.61080 0.75000 0.75000 0.34500
C 	C 	0.55320 0.75000 0.75000 -0.07600
C 	C 	0.88920 0.25000 0.25000 0.34500
C 	C 	0.94680 0.25000 0.25000 -0.07600
C 	C 	0.38920 0.25000 0.75000 0.34500
C 	C 	0.44680 0.25000 0.75000 -0.07600
C 	C 	0.88920 0.75000 0.75000 0.34500
C 	C 	0.94680 0.75000 0.75000 -0.07600
C 	C 	0.38920 0.75000 0.25000 0.34500
C 	C 	0.44680 0.75000 0.25000 -0.07600
