data_crystal

_cell_length_a 27.65710
_cell_length_b 27.65710
_cell_length_c 27.65710
_cell_angle_alpha 90.00000
_cell_angle_beta  90.00000
_cell_angle_gamma 90.00000

_symmetry_space_group_name_	'P 1'
_symmetry_space_group_name_H-M	'P 1'

loop_
_symmetry_equiv_pos_as_xyz
  x,y,z

loop_
_atom_site_label
_atom_site_type_symbol
_atom_site_fract_x
_atom_site_fract_y
_atom_site_fract_z
_atom_site_charge
O 	O 	0.05260 0.79009 0.55225 -0.42300
O 	O 	0.04982 0.70795 0.54853 -0.52900
C 	C 	0.06520 0.74209 0.56430 0.38400
C 	C 	0.10373 0.74582 0.60859 -0.08700
C 	C 	0.12444 0.70439 0.62809 0.01700
H 	H 	0.11450 0.67410 0.61750 0.02800
C 	C 	0.15994 0.70829 0.66345 -0.09400
H 	H 	0.17380 0.68060 0.67650 0.06000
C 	C 	0.17474 0.75360 0.67931 0.02400
C 	C 	0.15404 0.79506 0.65980 -0.09000
H 	H 	0.16390 0.82540 0.67040 0.06100
C 	C 	0.11853 0.79116 0.62445 0.01500
H 	H 	0.10470 0.81890 0.61140 0.03900
C 	C 	0.21875 0.74690 0.71200 0.07600
C 	C 	0.21540 0.71410 0.74850 -0.14700
H 	H 	0.18870 0.69390 0.75140 0.08000
C 	C 	0.03670 0.60420 0.52017 -0.04800
H 	H 	0.06210 0.62160 0.53370 0.04300
C 	C 	0.03770 0.55280 0.52140 0.06500
N 	N 	0.07560 0.52330 0.54160 -0.29600
H 	H 	0.07370 0.49230 0.53990 0.15800
H 	H 	0.10010 0.53670 0.55540 0.13700
C 	C 	0.98992 0.60240 0.54070 0.00200
H 	H 	0.98320 0.61990 0.56860 0.02800
C 	C 	0.98890 0.55110 0.54370 0.07900
N 	N 	0.97700 0.53620 0.59250 -0.30100
H 	H 	0.97570 0.50600 0.59970 0.15300
H 	H 	0.97140 0.55760 0.61440 0.14200
O 	O 	0.94740 0.20991 0.55225 -0.40900
O 	O 	0.95018 0.29205 0.54853 -0.51400
C 	C 	0.93480 0.25791 0.56430 0.38100
C 	C 	0.89627 0.25418 0.60859 -0.08000
C 	C 	0.87556 0.29561 0.62809 0.01400
H 	H 	0.88550 0.32590 0.61750 0.03300
C 	C 	0.84006 0.29171 0.66345 -0.09100
H 	H 	0.82620 0.31940 0.67650 0.05900
C 	C 	0.82526 0.24640 0.67931 0.02100
C 	C 	0.84596 0.20494 0.65980 -0.08700
H 	H 	0.83610 0.17460 0.67040 0.05700
C 	C 	0.88147 0.20884 0.62445 0.01100
H 	H 	0.89530 0.18110 0.61140 0.04200
C 	C 	0.78125 0.25310 0.71200 0.07600
C 	C 	0.78460 0.28590 0.74850 -0.14900
H 	H 	0.81130 0.30610 0.75140 0.08100
C 	C 	0.96330 0.39580 0.52017 -0.00900
H 	H 	0.93790 0.37840 0.53370 0.03300
C 	C 	0.96230 0.44720 0.52140 0.08700
N 	N 	0.92440 0.47670 0.54160 -0.29900
H 	H 	0.92630 0.50770 0.53990 0.15700
H 	H 	0.89990 0.46330 0.55540 0.13900
C 	C 	0.01008 0.39760 0.54070 -0.03600
H 	H 	0.01680 0.38010 0.56860 0.03000
C 	C 	0.01110 0.44890 0.54370 0.04800
N 	N 	0.02300 0.46380 0.59250 -0.29400
H 	H 	0.02430 0.49400 0.59970 0.13100
H 	H 	0.02860 0.44240 0.61440 0.12900
O 	O 	0.94740 0.79009 0.44775 -0.40900
O 	O 	0.95018 0.70795 0.45147 -0.51400
C 	C 	0.93480 0.74209 0.43570 0.38100
C 	C 	0.89627 0.74582 0.39141 -0.08000
C 	C 	0.87556 0.70439 0.37191 0.01400
H 	H 	0.88550 0.67410 0.38250 0.03200
C 	C 	0.84006 0.70829 0.33655 -0.09100
H 	H 	0.82620 0.68060 0.32350 0.06000
C 	C 	0.82526 0.75360 0.32069 0.02200
C 	C 	0.84596 0.79506 0.34020 -0.08700
H 	H 	0.83610 0.82540 0.32960 0.06000
C 	C 	0.88147 0.79116 0.37555 0.01200
H 	H 	0.89530 0.81890 0.38860 0.04300
C 	C 	0.78125 0.74690 0.28800 0.07600
C 	C 	0.78460 0.71410 0.25150 -0.14800
H 	H 	0.81130 0.69390 0.24860 0.08100
C 	C 	0.96330 0.60420 0.47983 -0.00900
H 	H 	0.93790 0.62160 0.46630 0.03300
C 	C 	0.96230 0.55280 0.47860 0.08700
N 	N 	0.92440 0.52330 0.45840 -0.29900
H 	H 	0.92630 0.49230 0.46010 0.15700
H 	H 	0.89990 0.53670 0.44460 0.13900
C 	C 	0.01008 0.60240 0.45930 -0.03600
H 	H 	0.01680 0.61990 0.43140 0.03000
C 	C 	0.01110 0.55110 0.45630 0.04800
N 	N 	0.02300 0.53620 0.40750 -0.29400
H 	H 	0.02430 0.50600 0.40030 0.13100
H 	H 	0.02860 0.55760 0.38560 0.12900
O 	O 	0.05260 0.20991 0.44775 -0.42500
O 	O 	0.04982 0.29205 0.45147 -0.53000
C 	C 	0.06520 0.25791 0.43570 0.38200
C 	C 	0.10373 0.25418 0.39141 -0.08800
C 	C 	0.12444 0.29561 0.37191 0.01500
H 	H 	0.11450 0.32590 0.38250 0.02700
C 	C 	0.15994 0.29171 0.33655 -0.09500
H 	H 	0.17380 0.31940 0.32350 0.05900
C 	C 	0.17474 0.24640 0.32069 0.02000
C 	C 	0.15404 0.20494 0.34020 -0.09100
H 	H 	0.16390 0.17460 0.32960 0.05400
C 	C 	0.11853 0.20884 0.37555 0.01200
H 	H 	0.10470 0.18110 0.38860 0.03600
C 	C 	0.21875 0.25310 0.28800 0.07300
C 	C 	0.21540 0.28590 0.25150 -0.14900
H 	H 	0.18870 0.30610 0.24860 0.07800
C 	C 	0.03670 0.39580 0.47983 -0.05000
H 	H 	0.06210 0.37840 0.46630 0.04200
C 	C 	0.03770 0.44720 0.47860 0.06400
N 	N 	0.07560 0.47670 0.45840 -0.29700
H 	H 	0.07370 0.50770 0.46010 0.15700
H 	H 	0.10010 0.46330 0.44460 0.13700
C 	C 	0.98992 0.39760 0.45930 0.00200
H 	H 	0.98320 0.38010 0.43140 0.02700
C 	C 	0.98890 0.44890 0.45630 0.07900
N 	N 	0.97700 0.46380 0.40750 -0.30100
H 	H 	0.97570 0.49400 0.40030 0.15300
H 	H 	0.97140 0.44240 0.38560 0.14100
O 	O 	0.55225 0.05260 0.79009 -0.42400
O 	O 	0.54853 0.04982 0.70795 -0.53000
C 	C 	0.56430 0.06520 0.74209 0.38300
C 	C 	0.60859 0.10373 0.74582 -0.08800
C 	C 	0.62809 0.12444 0.70439 0.01600
H 	H 	0.61750 0.11450 0.67410 0.02700
C 	C 	0.66345 0.15994 0.70829 -0.09500
H 	H 	0.67650 0.17380 0.68060 0.05900
C 	C 	0.67931 0.17474 0.75360 0.02300
C 	C 	0.65980 0.15404 0.79506 -0.09100
H 	H 	0.67040 0.16390 0.82540 0.06000
C 	C 	0.62445 0.11853 0.79116 0.01400
H 	H 	0.61140 0.10470 0.81890 0.03800
C 	C 	0.71200 0.21875 0.74690 0.07500
C 	C 	0.74850 0.21540 0.71410 -0.14800
H 	H 	0.75140 0.18870 0.69390 0.07900
C 	C 	0.52017 0.03670 0.60420 -0.04900
H 	H 	0.53370 0.06210 0.62160 0.04200
C 	C 	0.52140 0.03770 0.55280 0.06400
N 	N 	0.54160 0.07560 0.52330 -0.29700
H 	H 	0.53990 0.07370 0.49230 0.15700
H 	H 	0.55540 0.10010 0.53670 0.13700
C 	C 	0.54070 0.98992 0.60240 0.00200
H 	H 	0.56860 0.98320 0.61990 0.02800
C 	C 	0.54370 0.98890 0.55110 0.07900
N 	N 	0.59250 0.97700 0.53620 -0.30100
H 	H 	0.59970 0.97570 0.50600 0.15300
H 	H 	0.61440 0.97140 0.55760 0.14200
O 	O 	0.55225 0.94740 0.20991 -0.40900
O 	O 	0.54853 0.95018 0.29205 -0.51400
C 	C 	0.56430 0.93480 0.25791 0.38100
C 	C 	0.60859 0.89627 0.25418 -0.08000
C 	C 	0.62809 0.87556 0.29561 0.01400
H 	H 	0.61750 0.88550 0.32590 0.03300
C 	C 	0.66345 0.84006 0.29171 -0.09100
H 	H 	0.67650 0.82620 0.31940 0.05900
C 	C 	0.67931 0.82526 0.24640 0.02100
C 	C 	0.65980 0.84596 0.20494 -0.08700
H 	H 	0.67040 0.83610 0.17460 0.05700
C 	C 	0.62445 0.88147 0.20884 0.01100
H 	H 	0.61140 0.89530 0.18110 0.04200
C 	C 	0.71200 0.78125 0.25310 0.07600
C 	C 	0.74850 0.78460 0.28590 -0.14900
H 	H 	0.75140 0.81130 0.30610 0.08100
C 	C 	0.52017 0.96330 0.39580 -0.00900
H 	H 	0.53370 0.93790 0.37840 0.03300
C 	C 	0.52140 0.96230 0.44720 0.08700
N 	N 	0.54160 0.92440 0.47670 -0.29900
H 	H 	0.53990 0.92630 0.50770 0.15700
H 	H 	0.55540 0.89990 0.46330 0.13900
C 	C 	0.54070 0.01008 0.39760 -0.03600
H 	H 	0.56860 0.01680 0.38010 0.03000
C 	C 	0.54370 0.01110 0.44890 0.04800
N 	N 	0.59250 0.02300 0.46380 -0.29400
H 	H 	0.59970 0.02430 0.49400 0.13100
H 	H 	0.61440 0.02860 0.44240 0.12900
O 	O 	0.44775 0.94740 0.79009 -0.40900
O 	O 	0.45147 0.95018 0.70795 -0.51400
C 	C 	0.43570 0.93480 0.74209 0.38100
C 	C 	0.39141 0.89627 0.74582 -0.08000
C 	C 	0.37191 0.87556 0.70439 0.01400
H 	H 	0.38250 0.88550 0.67410 0.03200
C 	C 	0.33655 0.84006 0.70829 -0.09100
H 	H 	0.32350 0.82620 0.68060 0.06000
C 	C 	0.32069 0.82526 0.75360 0.02200
C 	C 	0.34020 0.84596 0.79506 -0.08700
H 	H 	0.32960 0.83610 0.82540 0.06000
C 	C 	0.37555 0.88147 0.79116 0.01200
H 	H 	0.38860 0.89530 0.81890 0.04300
C 	C 	0.28800 0.78125 0.74690 0.07600
C 	C 	0.25150 0.78460 0.71410 -0.14800
H 	H 	0.24860 0.81130 0.69390 0.08100
C 	C 	0.47983 0.96330 0.60420 -0.00900
H 	H 	0.46630 0.93790 0.62160 0.03300
C 	C 	0.47860 0.96230 0.55280 0.08700
N 	N 	0.45840 0.92440 0.52330 -0.29900
H 	H 	0.46010 0.92630 0.49230 0.15700
H 	H 	0.44460 0.89990 0.53670 0.13900
C 	C 	0.45930 0.01008 0.60240 -0.03600
H 	H 	0.43140 0.01680 0.61990 0.03000
C 	C 	0.45630 0.01110 0.55110 0.04800
N 	N 	0.40750 0.02300 0.53620 -0.29400
H 	H 	0.40030 0.02430 0.50600 0.13100
H 	H 	0.38560 0.02860 0.55760 0.12900
O 	O 	0.44775 0.05260 0.20991 -0.42500
O 	O 	0.45147 0.04982 0.29205 -0.53000
C 	C 	0.43570 0.06520 0.25791 0.38200
C 	C 	0.39141 0.10373 0.25418 -0.08800
C 	C 	0.37191 0.12444 0.29561 0.01500
H 	H 	0.38250 0.11450 0.32590 0.02700
C 	C 	0.33655 0.15994 0.29171 -0.09500
H 	H 	0.32350 0.17380 0.31940 0.05900
C 	C 	0.32069 0.17474 0.24640 0.02000
C 	C 	0.34020 0.15404 0.20494 -0.09100
H 	H 	0.32960 0.16390 0.17460 0.05400
C 	C 	0.37555 0.11853 0.20884 0.01200
H 	H 	0.38860 0.10470 0.18110 0.03600
C 	C 	0.28800 0.21875 0.25310 0.07300
C 	C 	0.25150 0.21540 0.28590 -0.14900
H 	H 	0.24860 0.18870 0.30610 0.07800
C 	C 	0.47983 0.03670 0.39580 -0.05000
H 	H 	0.46630 0.06210 0.37840 0.04200
C 	C 	0.47860 0.03770 0.44720 0.06400
N 	N 	0.45840 0.07560 0.47670 -0.29700
H 	H 	0.46010 0.07370 0.50770 0.15700
H 	H 	0.44460 0.10010 0.46330 0.13700
C 	C 	0.45930 0.98992 0.39760 0.00200
H 	H 	0.43140 0.98320 0.38010 0.02700
C 	C 	0.45630 0.98890 0.44890 0.07900
N 	N 	0.40750 0.97700 0.46380 -0.30100
H 	H 	0.40030 0.97570 0.49400 0.15300
H 	H 	0.38560 0.97140 0.44240 0.14100
O 	O 	0.79009 0.55225 0.05260 -0.42400
O 	O 	0.70795 0.54853 0.04982 -0.53000
C 	C 	0.74209 0.56430 0.06520 0.38300
C 	C 	0.74582 0.60859 0.10373 -0.08800
C 	C 	0.70439 0.62809 0.12444 0.01600
H 	H 	0.67410 0.61750 0.11450 0.02700
C 	C 	0.70829 0.66345 0.15994 -0.09500
H 	H 	0.68060 0.67650 0.17380 0.05900
C 	C 	0.75360 0.67931 0.17474 0.02300
C 	C 	0.79506 0.65980 0.15404 -0.09100
H 	H 	0.82540 0.67040 0.16390 0.06000
C 	C 	0.79116 0.62445 0.11853 0.01400
H 	H 	0.81890 0.61140 0.10470 0.03800
C 	C 	0.74690 0.71200 0.21875 0.07500
C 	C 	0.71410 0.74850 0.21540 -0.14800
H 	H 	0.69390 0.75140 0.18870 0.07900
C 	C 	0.60420 0.52017 0.03670 -0.04900
H 	H 	0.62160 0.53370 0.06210 0.04200
C 	C 	0.55280 0.52140 0.03770 0.06400
N 	N 	0.52330 0.54160 0.07560 -0.29700
H 	H 	0.49230 0.53990 0.07370 0.15700
H 	H 	0.53670 0.55540 0.10010 0.13700
C 	C 	0.60240 0.54070 0.98992 0.00200
H 	H 	0.61990 0.56860 0.98320 0.02800
C 	C 	0.55110 0.54370 0.98890 0.07900
N 	N 	0.53620 0.59250 0.97700 -0.30100
H 	H 	0.50600 0.59970 0.97570 0.15300
H 	H 	0.55760 0.61440 0.97140 0.14200
O 	O 	0.20991 0.55225 0.94740 -0.40900
O 	O 	0.29205 0.54853 0.95018 -0.51400
C 	C 	0.25791 0.56430 0.93480 0.38100
C 	C 	0.25418 0.60859 0.89627 -0.08000
C 	C 	0.29561 0.62809 0.87556 0.01400
H 	H 	0.32590 0.61750 0.88550 0.03300
C 	C 	0.29171 0.66345 0.84006 -0.09100
H 	H 	0.31940 0.67650 0.82620 0.05900
C 	C 	0.24640 0.67931 0.82526 0.02100
C 	C 	0.20494 0.65980 0.84596 -0.08700
H 	H 	0.17460 0.67040 0.83610 0.05700
C 	C 	0.20884 0.62445 0.88147 0.01100
H 	H 	0.18110 0.61140 0.89530 0.04200
C 	C 	0.25310 0.71200 0.78125 0.07600
C 	C 	0.28590 0.74850 0.78460 -0.14900
H 	H 	0.30610 0.75140 0.81130 0.08100
C 	C 	0.39580 0.52017 0.96330 -0.00900
H 	H 	0.37840 0.53370 0.93790 0.03300
C 	C 	0.44720 0.52140 0.96230 0.08700
N 	N 	0.47670 0.54160 0.92440 -0.29900
H 	H 	0.50770 0.53990 0.92630 0.15700
H 	H 	0.46330 0.55540 0.89990 0.13900
C 	C 	0.39760 0.54070 0.01008 -0.03600
H 	H 	0.38010 0.56860 0.01680 0.03000
C 	C 	0.44890 0.54370 0.01110 0.04800
N 	N 	0.46380 0.59250 0.02300 -0.29400
H 	H 	0.49400 0.59970 0.02430 0.13100
H 	H 	0.44240 0.61440 0.02860 0.12900
O 	O 	0.79009 0.44775 0.94740 -0.40900
O 	O 	0.70795 0.45147 0.95018 -0.51400
C 	C 	0.74209 0.43570 0.93480 0.38100
C 	C 	0.74582 0.39141 0.89627 -0.08000
C 	C 	0.70439 0.37191 0.87556 0.01400
H 	H 	0.67410 0.38250 0.88550 0.03200
C 	C 	0.70829 0.33655 0.84006 -0.09100
H 	H 	0.68060 0.32350 0.82620 0.06000
C 	C 	0.75360 0.32069 0.82526 0.02200
C 	C 	0.79506 0.34020 0.84596 -0.08700
H 	H 	0.82540 0.32960 0.83610 0.06000
C 	C 	0.79116 0.37555 0.88147 0.01200
H 	H 	0.81890 0.38860 0.89530 0.04300
C 	C 	0.74690 0.28800 0.78125 0.07600
C 	C 	0.71410 0.25150 0.78460 -0.14800
H 	H 	0.69390 0.24860 0.81130 0.08100
C 	C 	0.60420 0.47983 0.96330 -0.00900
H 	H 	0.62160 0.46630 0.93790 0.03300
C 	C 	0.55280 0.47860 0.96230 0.08700
N 	N 	0.52330 0.45840 0.92440 -0.29900
H 	H 	0.49230 0.46010 0.92630 0.15700
H 	H 	0.53670 0.44460 0.89990 0.13900
C 	C 	0.60240 0.45930 0.01008 -0.03600
H 	H 	0.61990 0.43140 0.01680 0.03000
C 	C 	0.55110 0.45630 0.01110 0.04800
N 	N 	0.53620 0.40750 0.02300 -0.29400
H 	H 	0.50600 0.40030 0.02430 0.13100
H 	H 	0.55760 0.38560 0.02860 0.12900
O 	O 	0.20991 0.44775 0.05260 -0.42500
O 	O 	0.29205 0.45147 0.04982 -0.53000
C 	C 	0.25791 0.43570 0.06520 0.38200
C 	C 	0.25418 0.39141 0.10373 -0.08800
C 	C 	0.29561 0.37191 0.12444 0.01500
H 	H 	0.32590 0.38250 0.11450 0.02700
C 	C 	0.29171 0.33655 0.15994 -0.09500
H 	H 	0.31940 0.32350 0.17380 0.05900
C 	C 	0.24640 0.32069 0.17474 0.02000
C 	C 	0.20494 0.34020 0.15404 -0.09100
H 	H 	0.17460 0.32960 0.16390 0.05400
C 	C 	0.20884 0.37555 0.11853 0.01200
H 	H 	0.18110 0.38860 0.10470 0.03600
C 	C 	0.25310 0.28800 0.21875 0.07300
C 	C 	0.28590 0.25150 0.21540 -0.14900
H 	H 	0.30610 0.24860 0.18870 0.07800
C 	C 	0.39580 0.47983 0.03670 -0.05000
H 	H 	0.37840 0.46630 0.06210 0.04200
C 	C 	0.44720 0.47860 0.03770 0.06400
N 	N 	0.47670 0.45840 0.07560 -0.29700
H 	H 	0.50770 0.46010 0.07370 0.15700
H 	H 	0.46330 0.44460 0.10010 0.13700
C 	C 	0.39760 0.45930 0.98992 0.00200
H 	H 	0.38010 0.43140 0.98320 0.02700
C 	C 	0.44890 0.45630 0.98890 0.07900
N 	N 	0.46380 0.40750 0.97700 -0.30100
H 	H 	0.49400 0.40030 0.97570 0.15300
H 	H 	0.44240 0.38560 0.97140 0.14100
O 	O 	0.29009 0.55260 0.05225 -0.42300
O 	O 	0.20795 0.54982 0.04853 -0.52900
C 	C 	0.24209 0.56520 0.06430 0.38200
C 	C 	0.24582 0.60373 0.10859 -0.08600
C 	C 	0.20439 0.62444 0.12809 0.01400
H 	H 	0.17410 0.61450 0.11750 0.02700
C 	C 	0.20829 0.65994 0.16345 -0.09500
H 	H 	0.18060 0.67380 0.17650 0.05700
C 	C 	0.25360 0.67474 0.17931 0.02100
C 	C 	0.29506 0.65404 0.15980 -0.09000
H 	H 	0.32540 0.66390 0.17040 0.05700
C 	C 	0.29116 0.61853 0.12445 0.01200
H 	H 	0.31890 0.60470 0.11140 0.03900
C 	C 	0.24690 0.71875 0.21200 0.07300
C 	C 	0.21410 0.71540 0.24850 -0.14800
H 	H 	0.19390 0.68870 0.25140 0.07800
C 	C 	0.10420 0.53670 0.02017 -0.04700
H 	H 	0.12160 0.56210 0.03370 0.03800
C 	C 	0.05280 0.53770 0.02140 0.07600
N 	N 	0.02330 0.57560 0.04160 -0.32200
H 	H 	0.99230 0.57370 0.03990 0.17300
H 	H 	0.03670 0.60010 0.05540 0.13500
C 	C 	0.10240 0.48992 0.04070 -0.02500
H 	H 	0.11990 0.48320 0.06860 0.02800
C 	C 	0.05110 0.48890 0.04370 0.05800
N 	N 	0.03620 0.47700 0.09250 -0.29500
H 	H 	0.00600 0.47570 0.09970 0.12800
H 	H 	0.05760 0.47140 0.11440 0.13000
O 	O 	0.70991 0.44740 0.05225 -0.42300
O 	O 	0.79205 0.45018 0.04853 -0.52800
C 	C 	0.75791 0.43480 0.06430 0.38200
C 	C 	0.75418 0.39627 0.10859 -0.08600
C 	C 	0.79561 0.37556 0.12809 0.01500
H 	H 	0.82590 0.38550 0.11750 0.03000
C 	C 	0.79171 0.34006 0.16345 -0.09400
H 	H 	0.81940 0.32620 0.17650 0.06000
C 	C 	0.74640 0.32526 0.17931 0.02100
C 	C 	0.70494 0.34596 0.15980 -0.09000
H 	H 	0.67460 0.33610 0.17040 0.05700
C 	C 	0.70884 0.38147 0.12445 0.01200
H 	H 	0.68110 0.39530 0.11140 0.03900
C 	C 	0.75310 0.28125 0.21200 0.07300
C 	C 	0.78590 0.28460 0.24850 -0.14800
H 	H 	0.80610 0.31130 0.25140 0.08000
C 	C 	0.89580 0.46330 0.02017 -0.03100
H 	H 	0.87840 0.43790 0.03370 0.03500
C 	C 	0.94720 0.46230 0.02140 0.05300
N 	N 	0.97670 0.42440 0.04160 -0.27100
H 	H 	0.00770 0.42630 0.03990 0.12700
H 	H 	0.96330 0.39990 0.05540 0.13400
C 	C 	0.89760 0.51008 0.04070 -0.03000
H 	H 	0.88010 0.51680 0.06860 0.03200
C 	C 	0.94890 0.51110 0.04370 0.06000
N 	N 	0.96380 0.52300 0.09250 -0.29900
H 	H 	0.99400 0.52430 0.09970 0.15600
H 	H 	0.94240 0.52860 0.11440 0.13900
O 	O 	0.29009 0.44740 0.94775 -0.41100
O 	O 	0.20795 0.45018 0.95147 -0.51600
C 	C 	0.24209 0.43480 0.93570 0.38200
C 	C 	0.24582 0.39627 0.89141 -0.08300
C 	C 	0.20439 0.37556 0.87191 0.01500
H 	H 	0.17410 0.38550 0.88250 0.02900
C 	C 	0.20829 0.34006 0.83655 -0.09300
H 	H 	0.18060 0.32620 0.82350 0.05800
C 	C 	0.25360 0.32526 0.82069 0.02100
C 	C 	0.29506 0.34596 0.84020 -0.08900
H 	H 	0.32540 0.33610 0.82960 0.05800
C 	C 	0.29116 0.38147 0.87555 0.01200
H 	H 	0.31890 0.39530 0.88860 0.04100
C 	C 	0.24690 0.28125 0.78800 0.07400
C 	C 	0.21410 0.28460 0.75150 -0.14800
H 	H 	0.19390 0.31130 0.74860 0.07900
C 	C 	0.10420 0.46330 0.97983 -0.02800
H 	H 	0.12160 0.43790 0.96630 0.04000
C 	C 	0.05280 0.46230 0.97860 0.09800
N 	N 	0.02330 0.42440 0.95840 -0.32500
H 	H 	0.99230 0.42630 0.96010 0.18600
H 	H 	0.03670 0.39990 0.94460 0.14200
C 	C 	0.10240 0.51008 0.95930 -0.00400
H 	H 	0.11990 0.51680 0.93140 0.02500
C 	C 	0.05110 0.51110 0.95630 0.06700
N 	N 	0.03620 0.52300 0.90750 -0.29600
H 	H 	0.00600 0.52430 0.90030 0.12900
H 	H 	0.05760 0.52860 0.88560 0.13100
O 	O 	0.70991 0.55260 0.94775 -0.41000
O 	O 	0.79205 0.54982 0.95147 -0.51400
C 	C 	0.75791 0.56520 0.93570 0.38200
C 	C 	0.75418 0.60373 0.89141 -0.08100
C 	C 	0.79561 0.62444 0.87191 0.01500
H 	H 	0.82590 0.61450 0.88250 0.03300
C 	C 	0.79171 0.65994 0.83655 -0.09000
H 	H 	0.81940 0.67380 0.82350 0.06200
C 	C 	0.74640 0.67474 0.82069 0.02100
C 	C 	0.70494 0.65404 0.84020 -0.08700
H 	H 	0.67460 0.66390 0.82960 0.05800
C 	C 	0.70884 0.61853 0.87555 0.01200
H 	H 	0.68110 0.60470 0.88860 0.04100
C 	C 	0.75310 0.71875 0.78800 0.07900
C 	C 	0.78590 0.71540 0.75150 -0.15100
H 	H 	0.80610 0.68870 0.74860 0.08200
C 	C 	0.89580 0.53670 0.97983 -0.01200
H 	H 	0.87840 0.56210 0.96630 0.03700
C 	C 	0.94720 0.53770 0.97860 0.07600
N 	N 	0.97670 0.57560 0.95840 -0.27500
H 	H 	0.00770 0.57370 0.96010 0.14200
H 	H 	0.96330 0.60010 0.94460 0.14300
C 	C 	0.89760 0.48992 0.95930 -0.00900
H 	H 	0.88010 0.48320 0.93140 0.02900
C 	C 	0.94890 0.48890 0.95630 0.06900
N 	N 	0.96380 0.47700 0.90750 -0.30000
H 	H 	0.99400 0.47570 0.90030 0.15600
H 	H 	0.94240 0.47140 0.88560 0.14100
O 	O 	0.55260 0.05225 0.29009 -0.42300
O 	O 	0.54982 0.04853 0.20795 -0.52900
C 	C 	0.56520 0.06430 0.24209 0.38200
C 	C 	0.60373 0.10859 0.24582 -0.08600
C 	C 	0.62444 0.12809 0.20439 0.01400
H 	H 	0.61450 0.11750 0.17410 0.02700
C 	C 	0.65994 0.16345 0.20829 -0.09500
H 	H 	0.67380 0.17650 0.18060 0.05700
C 	C 	0.67474 0.17931 0.25360 0.02100
C 	C 	0.65404 0.15980 0.29506 -0.09000
H 	H 	0.66390 0.17040 0.32540 0.05700
C 	C 	0.61853 0.12445 0.29116 0.01200
H 	H 	0.60470 0.11140 0.31890 0.03900
C 	C 	0.71875 0.21200 0.24690 0.07300
C 	C 	0.71540 0.24850 0.21410 -0.14800
H 	H 	0.68870 0.25140 0.19390 0.07800
C 	C 	0.53670 0.02017 0.10420 -0.04700
H 	H 	0.56210 0.03370 0.12160 0.03800
C 	C 	0.53770 0.02140 0.05280 0.07600
N 	N 	0.57560 0.04160 0.02330 -0.32200
H 	H 	0.57370 0.03990 0.99230 0.17300
H 	H 	0.60010 0.05540 0.03670 0.13500
C 	C 	0.48992 0.04070 0.10240 -0.02500
H 	H 	0.48320 0.06860 0.11990 0.02800
C 	C 	0.48890 0.04370 0.05110 0.05800
N 	N 	0.47700 0.09250 0.03620 -0.29500
H 	H 	0.47570 0.09970 0.00600 0.12800
H 	H 	0.47140 0.11440 0.05760 0.13000
O 	O 	0.44740 0.05225 0.70991 -0.42300
O 	O 	0.45018 0.04853 0.79205 -0.52800
C 	C 	0.43480 0.06430 0.75791 0.38200
C 	C 	0.39627 0.10859 0.75418 -0.08600
C 	C 	0.37556 0.12809 0.79561 0.01500
H 	H 	0.38550 0.11750 0.82590 0.03000
C 	C 	0.34006 0.16345 0.79171 -0.09400
H 	H 	0.32620 0.17650 0.81940 0.06000
C 	C 	0.32526 0.17931 0.74640 0.02100
C 	C 	0.34596 0.15980 0.70494 -0.09000
H 	H 	0.33610 0.17040 0.67460 0.05700
C 	C 	0.38147 0.12445 0.70884 0.01200
H 	H 	0.39530 0.11140 0.68110 0.03900
C 	C 	0.28125 0.21200 0.75310 0.07300
C 	C 	0.28460 0.24850 0.78590 -0.14800
H 	H 	0.31130 0.25140 0.80610 0.08000
C 	C 	0.46330 0.02017 0.89580 -0.03100
H 	H 	0.43790 0.03370 0.87840 0.03500
C 	C 	0.46230 0.02140 0.94720 0.05300
N 	N 	0.42440 0.04160 0.97670 -0.27100
H 	H 	0.42630 0.03990 0.00770 0.12700
H 	H 	0.39990 0.05540 0.96330 0.13400
C 	C 	0.51008 0.04070 0.89760 -0.03000
H 	H 	0.51680 0.06860 0.88010 0.03200
C 	C 	0.51110 0.04370 0.94890 0.06000
N 	N 	0.52300 0.09250 0.96380 -0.29900
H 	H 	0.52430 0.09970 0.99400 0.15600
H 	H 	0.52860 0.11440 0.94240 0.13900
O 	O 	0.44740 0.94775 0.29009 -0.41100
O 	O 	0.45018 0.95147 0.20795 -0.51600
C 	C 	0.43480 0.93570 0.24209 0.38200
C 	C 	0.39627 0.89141 0.24582 -0.08300
C 	C 	0.37556 0.87191 0.20439 0.01500
H 	H 	0.38550 0.88250 0.17410 0.02900
C 	C 	0.34006 0.83655 0.20829 -0.09300
H 	H 	0.32620 0.82350 0.18060 0.05800
C 	C 	0.32526 0.82069 0.25360 0.02100
C 	C 	0.34596 0.84020 0.29506 -0.08900
H 	H 	0.33610 0.82960 0.32540 0.05800
C 	C 	0.38147 0.87555 0.29116 0.01200
H 	H 	0.39530 0.88860 0.31890 0.04100
C 	C 	0.28125 0.78800 0.24690 0.07400
C 	C 	0.28460 0.75150 0.21410 -0.14800
H 	H 	0.31130 0.74860 0.19390 0.07900
C 	C 	0.46330 0.97983 0.10420 -0.02800
H 	H 	0.43790 0.96630 0.12160 0.04000
C 	C 	0.46230 0.97860 0.05280 0.09800
N 	N 	0.42440 0.95840 0.02330 -0.32500
H 	H 	0.42630 0.96010 0.99230 0.18600
H 	H 	0.39990 0.94460 0.03670 0.14200
C 	C 	0.51008 0.95930 0.10240 -0.00400
H 	H 	0.51680 0.93140 0.11990 0.02500
C 	C 	0.51110 0.95630 0.05110 0.06700
N 	N 	0.52300 0.90750 0.03620 -0.29600
H 	H 	0.52430 0.90030 0.00600 0.12900
H 	H 	0.52860 0.88560 0.05760 0.13100
O 	O 	0.55260 0.94775 0.70991 -0.41000
O 	O 	0.54982 0.95147 0.79205 -0.51400
C 	C 	0.56520 0.93570 0.75791 0.38200
C 	C 	0.60373 0.89141 0.75418 -0.08100
C 	C 	0.62444 0.87191 0.79561 0.01500
H 	H 	0.61450 0.88250 0.82590 0.03300
C 	C 	0.65994 0.83655 0.79171 -0.09000
H 	H 	0.67380 0.82350 0.81940 0.06200
C 	C 	0.67474 0.82069 0.74640 0.02100
C 	C 	0.65404 0.84020 0.70494 -0.08700
H 	H 	0.66390 0.82960 0.67460 0.05800
C 	C 	0.61853 0.87555 0.70884 0.01200
H 	H 	0.60470 0.88860 0.68110 0.04100
C 	C 	0.71875 0.78800 0.75310 0.07900
C 	C 	0.71540 0.75150 0.78590 -0.15100
H 	H 	0.68870 0.74860 0.80610 0.08200
C 	C 	0.53670 0.97983 0.89580 -0.01200
H 	H 	0.56210 0.96630 0.87840 0.03700
C 	C 	0.53770 0.97860 0.94720 0.07600
N 	N 	0.57560 0.95840 0.97670 -0.27500
H 	H 	0.57370 0.96010 0.00770 0.14200
H 	H 	0.60010 0.94460 0.96330 0.14300
C 	C 	0.48992 0.95930 0.89760 -0.00900
H 	H 	0.48320 0.93140 0.88010 0.02900
C 	C 	0.48890 0.95630 0.94890 0.06900
N 	N 	0.47700 0.90750 0.96380 -0.30000
H 	H 	0.47570 0.90030 0.99400 0.15600
H 	H 	0.47140 0.88560 0.94240 0.14100
O 	O 	0.05225 0.29009 0.55260 -0.42300
O 	O 	0.04853 0.20795 0.54982 -0.52900
C 	C 	0.06430 0.24209 0.56520 0.38200
C 	C 	0.10859 0.24582 0.60373 -0.08600
C 	C 	0.12809 0.20439 0.62444 0.01400
H 	H 	0.11750 0.17410 0.61450 0.02700
C 	C 	0.16345 0.20829 0.65994 -0.09500
H 	H 	0.17650 0.18060 0.67380 0.05700
C 	C 	0.17931 0.25360 0.67474 0.02100
C 	C 	0.15980 0.29506 0.65404 -0.09000
H 	H 	0.17040 0.32540 0.66390 0.05700
C 	C 	0.12445 0.29116 0.61853 0.01200
H 	H 	0.11140 0.31890 0.60470 0.03900
C 	C 	0.21200 0.24690 0.71875 0.07300
C 	C 	0.24850 0.21410 0.71540 -0.14800
H 	H 	0.25140 0.19390 0.68870 0.07800
C 	C 	0.02017 0.10420 0.53670 -0.04700
H 	H 	0.03370 0.12160 0.56210 0.03800
C 	C 	0.02140 0.05280 0.53770 0.07600
N 	N 	0.04160 0.02330 0.57560 -0.32200
H 	H 	0.03990 0.99230 0.57370 0.17300
H 	H 	0.05540 0.03670 0.60010 0.13500
C 	C 	0.04070 0.10240 0.48992 -0.02500
H 	H 	0.06860 0.11990 0.48320 0.02800
C 	C 	0.04370 0.05110 0.48890 0.05800
N 	N 	0.09250 0.03620 0.47700 -0.29500
H 	H 	0.09970 0.00600 0.47570 0.12800
H 	H 	0.11440 0.05760 0.47140 0.13000
O 	O 	0.05225 0.70991 0.44740 -0.42300
O 	O 	0.04853 0.79205 0.45018 -0.52800
C 	C 	0.06430 0.75791 0.43480 0.38200
C 	C 	0.10859 0.75418 0.39627 -0.08600
C 	C 	0.12809 0.79561 0.37556 0.01500
H 	H 	0.11750 0.82590 0.38550 0.03000
C 	C 	0.16345 0.79171 0.34006 -0.09400
H 	H 	0.17650 0.81940 0.32620 0.06000
C 	C 	0.17931 0.74640 0.32526 0.02100
C 	C 	0.15980 0.70494 0.34596 -0.09000
H 	H 	0.17040 0.67460 0.33610 0.05700
C 	C 	0.12445 0.70884 0.38147 0.01200
H 	H 	0.11140 0.68110 0.39530 0.03900
C 	C 	0.21200 0.75310 0.28125 0.07300
C 	C 	0.24850 0.78590 0.28460 -0.14800
H 	H 	0.25140 0.80610 0.31130 0.08000
C 	C 	0.02017 0.89580 0.46330 -0.03100
H 	H 	0.03370 0.87840 0.43790 0.03500
C 	C 	0.02140 0.94720 0.46230 0.05300
N 	N 	0.04160 0.97670 0.42440 -0.27100
H 	H 	0.03990 0.00770 0.42630 0.12700
H 	H 	0.05540 0.96330 0.39990 0.13400
C 	C 	0.04070 0.89760 0.51008 -0.03000
H 	H 	0.06860 0.88010 0.51680 0.03200
C 	C 	0.04370 0.94890 0.51110 0.06000
N 	N 	0.09250 0.96380 0.52300 -0.29900
H 	H 	0.09970 0.99400 0.52430 0.15600
H 	H 	0.11440 0.94240 0.52860 0.13900
O 	O 	0.94775 0.29009 0.44740 -0.41100
O 	O 	0.95147 0.20795 0.45018 -0.51600
C 	C 	0.93570 0.24209 0.43480 0.38200
C 	C 	0.89141 0.24582 0.39627 -0.08300
C 	C 	0.87191 0.20439 0.37556 0.01500
H 	H 	0.88250 0.17410 0.38550 0.02900
C 	C 	0.83655 0.20829 0.34006 -0.09300
H 	H 	0.82350 0.18060 0.32620 0.05800
C 	C 	0.82069 0.25360 0.32526 0.02100
C 	C 	0.84020 0.29506 0.34596 -0.08900
H 	H 	0.82960 0.32540 0.33610 0.05800
C 	C 	0.87555 0.29116 0.38147 0.01200
H 	H 	0.88860 0.31890 0.39530 0.04100
C 	C 	0.78800 0.24690 0.28125 0.07400
C 	C 	0.75150 0.21410 0.28460 -0.14800
H 	H 	0.74860 0.19390 0.31130 0.07900
C 	C 	0.97983 0.10420 0.46330 -0.02800
H 	H 	0.96630 0.12160 0.43790 0.04000
C 	C 	0.97860 0.05280 0.46230 0.09800
N 	N 	0.95840 0.02330 0.42440 -0.32500
H 	H 	0.96010 0.99230 0.42630 0.18600
H 	H 	0.94460 0.03670 0.39990 0.14200
C 	C 	0.95930 0.10240 0.51008 -0.00400
H 	H 	0.93140 0.11990 0.51680 0.02500
C 	C 	0.95630 0.05110 0.51110 0.06700
N 	N 	0.90750 0.03620 0.52300 -0.29600
H 	H 	0.90030 0.00600 0.52430 0.12900
H 	H 	0.88560 0.05760 0.52860 0.13100
O 	O 	0.94775 0.70991 0.55260 -0.41000
O 	O 	0.95147 0.79205 0.54982 -0.51400
C 	C 	0.93570 0.75791 0.56520 0.38200
C 	C 	0.89141 0.75418 0.60373 -0.08100
C 	C 	0.87191 0.79561 0.62444 0.01500
H 	H 	0.88250 0.82590 0.61450 0.03300
C 	C 	0.83655 0.79171 0.65994 -0.09000
H 	H 	0.82350 0.81940 0.67380 0.06200
C 	C 	0.82069 0.74640 0.67474 0.02100
C 	C 	0.84020 0.70494 0.65404 -0.08700
H 	H 	0.82960 0.67460 0.66390 0.05800
C 	C 	0.87555 0.70884 0.61853 0.01200
H 	H 	0.88860 0.68110 0.60470 0.04100
C 	C 	0.78800 0.75310 0.71875 0.07900
C 	C 	0.75150 0.78590 0.71540 -0.15100
H 	H 	0.74860 0.80610 0.68870 0.08200
C 	C 	0.97983 0.89580 0.53670 -0.01200
H 	H 	0.96630 0.87840 0.56210 0.03700
C 	C 	0.97860 0.94720 0.53770 0.07600
N 	N 	0.95840 0.97670 0.57560 -0.27500
H 	H 	0.96010 0.00770 0.57370 0.14200
H 	H 	0.94460 0.96330 0.60010 0.14300
C 	C 	0.95930 0.89760 0.48992 -0.00900
H 	H 	0.93140 0.88010 0.48320 0.02900
C 	C 	0.95630 0.94890 0.48890 0.06900
N 	N 	0.90750 0.96380 0.47700 -0.30000
H 	H 	0.90030 0.99400 0.47570 0.15600
H 	H 	0.88560 0.94240 0.47140 0.14100
Zn	Zn	-0.00000 0.69817 0.50000 1.21400
N 	N 	-0.00000 0.62740 0.50000 -0.23500
C 	C 	-0.00000 0.52672 0.50000 -0.08900
Zn	Zn	-0.00000 0.30183 0.50000 1.21400
N 	N 	-0.00000 0.37260 0.50000 -0.23500
C 	C 	-0.00000 0.47328 0.50000 -0.08800
Zn	Zn	0.50000 0.00000 0.69817 1.21400
N 	N 	0.50000 0.00000 0.62740 -0.23500
C 	C 	0.50000 -0.00000 0.52672 -0.08900
Zn	Zn	0.50000 -0.00000 0.30183 1.21400
N 	N 	0.50000 0.00000 0.37260 -0.23500
C 	C 	0.50000 -0.00000 0.47328 -0.08800
Zn	Zn	0.69817 0.50000 -0.00000 1.21400
N 	N 	0.62740 0.50000 -0.00000 -0.23500
C 	C 	0.52672 0.50000 -0.00000 -0.08900
Zn	Zn	0.30183 0.50000 -0.00000 1.21400
N 	N 	0.37260 0.50000 -0.00000 -0.23500
C 	C 	0.47328 0.50000 -0.00000 -0.08800
Zn	Zn	0.19817 0.50000 -0.00000 1.21400
N 	N 	0.12740 0.50000 -0.00000 -0.23300
C 	C 	0.02672 0.50000 -0.00000 -0.12000
Zn	Zn	0.80183 0.50000 -0.00000 1.21400
N 	N 	0.87260 0.50000 -0.00000 -0.23700
C 	C 	0.97328 0.50000 -0.00000 -0.05600
Zn	Zn	0.50000 -0.00000 0.19817 1.21400
N 	N 	0.50000 -0.00000 0.12740 -0.23300
C 	C 	0.50000 0.00000 0.02672 -0.12000
Zn	Zn	0.50000 -0.00000 0.80183 1.21400
N 	N 	0.50000 -0.00000 0.87260 -0.23700
C 	C 	0.50000 0.00000 0.97328 -0.05600
Zn	Zn	-0.00000 0.19817 0.50000 1.21400
N 	N 	-0.00000 0.12740 0.50000 -0.23300
C 	C 	-0.00000 0.02672 0.50000 -0.12000
Zn	Zn	-0.00000 0.80183 0.50000 1.21400
N 	N 	-0.00000 0.87260 0.50000 -0.23700
C 	C 	-0.00000 0.97328 0.50000 -0.05600
