data_crystal

_cell_length_a 16.89440
_cell_length_b 16.89440
_cell_length_c 7.54540
_cell_angle_alpha 90.00000
_cell_angle_beta  90.00000
_cell_angle_gamma 90.00000

_symmetry_space_group_name_	'P 1'
_symmetry_space_group_name_H-M	'P 1'

loop_
_symmetry_equiv_pos_as_xyz
  x,y,z

loop_
_atom_site_label
_atom_site_type_symbol
_atom_site_fract_x
_atom_site_fract_y
_atom_site_fract_z
_atom_site_charge
O 	O 	0.53630 0.38080 0.01650 -0.47800
N 	N 	0.42360 0.31350 0.07450 -0.29300
H 	H 	0.39810 0.35500 0.04110 0.14400
C 	C 	0.50670 0.31740 0.07220 0.39200
O 	O 	0.03630 0.88080 0.51650 -0.41900
N 	N 	0.92360 0.81350 0.57450 -0.23400
H 	H 	0.89810 0.85500 0.54110 0.17200
C 	C 	0.00670 0.81740 0.57220 0.29700
O 	O 	0.46370 0.61920 0.01650 -0.47700
N 	N 	0.57640 0.68650 0.07450 -0.29100
H 	H 	0.60190 0.64500 0.04110 0.14500
C 	C 	0.49330 0.68260 0.07220 0.39200
O 	O 	0.96370 0.11920 0.51650 -0.45800
N 	N 	0.07640 0.18650 0.57450 -0.35000
H 	H 	0.10190 0.14500 0.54110 0.15500
C 	C 	0.99330 0.18260 0.57220 0.50000
O 	O 	0.38080 0.46370 0.98350 -0.42300
N 	N 	0.31350 0.57640 0.92550 -0.29300
H 	H 	0.35500 0.60190 0.95890 0.17900
C 	C 	0.31740 0.49330 0.92780 0.40200
O 	O 	0.88080 0.96370 0.48350 -0.40400
N 	N 	0.81350 0.07640 0.42550 -0.34600
H 	H 	0.85500 0.10190 0.45890 0.16600
C 	C 	0.81740 0.99330 0.42780 0.49400
O 	O 	0.61920 0.53630 0.98350 -0.42100
N 	N 	0.68650 0.42360 0.92550 -0.29400
H 	H 	0.64500 0.39810 0.95890 0.17900
C 	C 	0.68260 0.50670 0.92780 0.40300
O 	O 	0.11920 0.03630 0.48350 -0.47100
N 	N 	0.18650 0.92360 0.42550 -0.23700
H 	H 	0.14500 0.89810 0.45890 0.16100
C 	C 	0.18260 0.00670 0.42780 0.29300
O 	O 	0.96370 0.38080 0.73350 -0.43700
N 	N 	0.07640 0.31350 0.67550 -0.34900
H 	H 	0.10190 0.35500 0.70890 0.16100
C 	C 	0.99330 0.31740 0.67780 0.50000
O 	O 	0.46370 0.88080 0.23350 -0.42000
N 	N 	0.57640 0.81350 0.17550 -0.29100
H 	H 	0.60190 0.85500 0.20890 0.16700
C 	C 	0.49330 0.81740 0.17780 0.39200
O 	O 	0.03630 0.61920 0.73350 -0.45000
N 	N 	0.92360 0.68650 0.67550 -0.23500
H 	H 	0.89810 0.64500 0.70890 0.16700
C 	C 	0.00670 0.68260 0.67780 0.29700
O 	O 	0.53630 0.11920 0.23350 -0.47300
N 	N 	0.42360 0.18650 0.17550 -0.29500
H 	H 	0.39810 0.14500 0.20890 0.15600
C 	C 	0.50670 0.18260 0.17780 0.39200
O 	O 	0.11920 0.46370 0.76650 -0.47200
N 	N 	0.18650 0.57640 0.82450 -0.29300
H 	H 	0.14500 0.60190 0.79110 0.15800
C 	C 	0.18260 0.49330 0.82220 0.40100
O 	O 	0.61920 0.96370 0.26650 -0.43900
N 	N 	0.68650 0.07640 0.32450 -0.34800
H 	H 	0.64500 0.10190 0.29110 0.15800
C 	C 	0.68260 0.99330 0.32220 0.49700
O 	O 	0.88080 0.53630 0.76650 -0.41800
N 	N 	0.81350 0.42360 0.82450 -0.29100
H 	H 	0.85500 0.39810 0.79110 0.16900
C 	C 	0.81740 0.50670 0.82220 0.40100
O 	O 	0.38080 0.03630 0.26650 -0.45500
N 	N 	0.31350 0.92360 0.32450 -0.23700
H 	H 	0.35500 0.89810 0.29110 0.16400
C 	C 	0.31740 0.00670 0.32220 0.29400
Ni	Ni	0.50000 0.50000 -0.00000 1.04800
Ni	Ni	0.00000 0.00000 0.50000 0.99000
Ni	Ni	0.00000 0.50000 0.75000 1.03000
Ni	Ni	0.50000 0.00000 0.25000 1.02800
S 	S 	0.28287 0.25000 0.12500 -0.12900
C 	C 	0.38010 0.25000 0.12500 0.17100
C 	C 	0.54750 0.25000 0.12500 -0.45800
H 	H 	0.60260 0.25000 0.12500 0.19000
S 	S 	0.71713 0.75000 0.12500 -0.09100
C 	C 	0.61990 0.75000 0.12500 0.17000
C 	C 	0.45250 0.75000 0.12500 -0.44700
H 	H 	0.39740 0.75000 0.12500 0.19100
S 	S 	0.21713 0.25000 0.62500 -0.08500
C 	C 	0.11990 0.25000 0.62500 0.16600
C 	C 	0.95250 0.25000 0.62500 -0.50900
H 	H 	0.89740 0.25000 0.62500 0.22100
S 	S 	0.25000 0.71713 0.87500 -0.04500
C 	C 	0.25000 0.61990 0.87500 0.17200
C 	C 	0.25000 0.45250 0.87500 -0.45200
H 	H 	0.25000 0.39740 0.87500 0.20700
S 	S 	0.75000 0.21713 0.37500 -0.09900
C 	C 	0.75000 0.11990 0.37500 0.17100
C 	C 	0.75000 0.95250 0.37500 -0.49700
H 	H 	0.75000 0.89740 0.37500 0.22300
S 	S 	0.75000 0.28287 0.87500 -0.05900
C 	C 	0.75000 0.38010 0.87500 0.18100
C 	C 	0.75000 0.54750 0.87500 -0.44200
H 	H 	0.75000 0.60260 0.87500 0.21100
S 	S 	0.25000 0.78287 0.37500 -0.08900
C 	C 	0.25000 0.88010 0.37500 0.17800
C 	C 	0.25000 0.04750 0.37500 -0.39800
H 	H 	0.25000 0.10260 0.37500 0.17500
S 	S 	0.78287 0.75000 0.62500 -0.05000
C 	C 	0.88010 0.75000 0.62500 0.18100
C 	C 	0.04750 0.75000 0.62500 -0.38800
H 	H 	0.10260 0.75000 0.62500 0.17800
