data_crystal

_cell_length_a 6.06270
_cell_length_b 10.71220
_cell_length_c 10.38720
_cell_angle_alpha 90.00000
_cell_angle_beta  97.95600
_cell_angle_gamma 90.00000

_symmetry_space_group_name_	'P 1'
_symmetry_space_group_name_H-M	'P 1'

loop_
_symmetry_equiv_pos_as_xyz
  x,y,z

loop_
_atom_site_label
_atom_site_type_symbol
_atom_site_fract_x
_atom_site_fract_y
_atom_site_fract_z
_atom_site_charge
Mn	Mn	0.88642 0.61295 0.40845 1.30800
P 	P 	0.03461 0.84356 0.22871 0.54200
H 	H 	0.17810 0.80110 0.23000 -0.12000
O 	O 	0.93280 0.79350 0.34478 -0.37900
O 	O 	0.89850 0.81073 0.10090 -0.39600
O 	O 	0.08740 0.98304 0.24742 -0.37700
O 	O 	0.76920 0.05855 0.01646 -0.48200
O 	O 	0.51780 0.88335 0.88402 -0.35700
C 	C 	0.57200 0.05091 0.03926 0.26400
Mn	Mn	0.11358 0.11295 0.09155 1.30500
P 	P 	0.96539 0.34356 0.27129 0.55400
H 	H 	0.82190 0.30110 0.27000 -0.12200
O 	O 	0.06720 0.29350 0.15522 -0.38500
O 	O 	0.10150 0.31073 0.39910 -0.40300
O 	O 	0.91260 0.48304 0.25258 -0.37900
O 	O 	0.23080 0.55855 0.48354 -0.48300
O 	O 	0.48220 0.38335 0.61598 -0.35700
C 	C 	0.42800 0.55091 0.46074 0.26600
Mn	Mn	0.11358 0.38705 0.59155 1.30900
P 	P 	0.96539 0.15644 0.77129 0.54300
H 	H 	0.82190 0.19890 0.77000 -0.12000
O 	O 	0.06720 0.20650 0.65522 -0.37900
O 	O 	0.10150 0.18927 0.89910 -0.39600
O 	O 	0.91260 0.01696 0.75258 -0.37700
O 	O 	0.23080 0.94145 0.98354 -0.48200
O 	O 	0.48220 0.11665 0.11598 -0.35700
C 	C 	0.42800 0.94909 0.96074 0.26400
Mn	Mn	0.88642 0.88705 0.90845 1.30500
P 	P 	0.03461 0.65644 0.72871 0.55400
H 	H 	0.17810 0.69890 0.73000 -0.12200
O 	O 	0.93280 0.70650 0.84478 -0.38500
O 	O 	0.89850 0.68927 0.60090 -0.40300
O 	O 	0.08740 0.51696 0.74742 -0.37900
O 	O 	0.76920 0.44145 0.51646 -0.48300
O 	O 	0.51780 0.61665 0.38402 -0.35700
C 	C 	0.57200 0.44909 0.53926 0.26600
