data_crystal

_cell_length_a 11.11550
_cell_length_b 13.46790
_cell_length_c 16.01680
_cell_angle_alpha 114.86200
_cell_angle_beta  110.30400
_cell_angle_gamma 90.00000

_symmetry_space_group_name_	'P 1'
_symmetry_space_group_name_H-M	'P 1'

loop_
_symmetry_equiv_pos_as_xyz
  x,y,z

loop_
_atom_site_label
_atom_site_type_symbol
_atom_site_fract_x
_atom_site_fract_y
_atom_site_fract_z
_atom_site_charge
La	La	0.45869 0.07069 0.44138 1.56200
La	La	0.01731 0.92931 0.55862 1.69300
La	La	0.51731 0.62931 0.55862 1.62000
La	La	0.95869 0.37069 0.44138 1.58000
La	La	0.95360 0.00000 -0.00000 1.14400
La	La	0.45360 0.00000 -0.00000 1.18600
P 	P 	0.77740 0.00260 0.39680 0.32400
P 	P 	0.01850 0.88320 0.18720 0.47000
P 	P 	0.38060 0.99740 0.60320 0.51500
P 	P 	0.83130 0.11680 0.81280 0.35100
P 	P 	0.88060 0.60580 0.60320 0.42700
P 	P 	0.33130 0.69600 0.81280 0.39400
P 	P 	0.27740 0.39420 0.39680 0.42400
P 	P 	0.51850 0.30400 0.18720 0.39700
C 	C 	0.90090 0.12450 0.45620 -0.14800
C 	C 	0.03860 0.13490 0.46480 0.33300
C 	C 	0.12490 0.01510 0.27380 -0.11300
C 	C 	0.19700 0.02330 0.21260 0.19800
C 	C 	0.44470 0.87550 0.54380 -0.10000
C 	C 	0.57380 0.86510 0.53520 0.28900
C 	C 	0.85110 0.98490 0.72620 0.06800
C 	C 	0.98440 0.97670 0.78740 0.25300
C 	C 	0.94470 0.66830 0.54380 -0.13600
C 	C 	0.07380 0.67010 0.53520 0.31800
C 	C 	0.35110 0.74130 0.72620 -0.02500
C 	C 	0.48440 0.81070 0.78740 0.26400
C 	C 	0.40090 0.33170 0.45620 -0.10300
C 	C 	0.53860 0.32990 0.46480 0.29000
C 	C 	0.62490 0.25870 0.27380 -0.05100
C 	C 	0.69700 0.18930 0.21260 0.26300
O 	O 	0.65270 0.04440 0.40800 -0.39000
O 	O 	0.81320 0.92440 0.44660 -0.33400
O 	O 	0.76780 0.92980 0.28980 -0.16700
O 	O 	0.83540 0.21210 0.45480 -0.21600
O 	O 	0.09820 0.06210 0.48520 -0.34200
O 	O 	0.10730 0.20410 0.45920 -0.30200
O 	O 	0.93420 0.86810 0.24040 -0.22500
O 	O 	0.11200 0.79860 0.16580 -0.22400
O 	O 	0.93430 0.89250 0.09260 -0.39500
O 	O 	0.21270 0.99730 0.35240 -0.16200
O 	O 	0.30940 0.08060 0.26740 -0.34600
O 	O 	0.18290 0.95080 0.12640 -0.28500
O 	O 	0.24470 0.95560 0.59200 -0.36300
O 	O 	0.36660 0.07560 0.55340 -0.42500
O 	O 	0.47800 0.07020 0.71020 -0.24800
O 	O 	0.38060 0.78790 0.54520 -0.21900
O 	O 	0.61300 0.93790 0.51480 -0.27000
O 	O 	0.64810 0.79590 0.54080 -0.29800
O 	O 	0.69380 0.13190 0.75960 -0.18800
O 	O 	0.94620 0.20140 0.83420 -0.18500
O 	O 	0.84170 0.10750 0.90740 -0.31300
O 	O 	0.86030 0.00270 0.64760 -0.34200
O 	O 	0.04200 0.91940 0.73260 -0.28400
O 	O 	0.05650 0.04920 0.87360 -0.28800
O 	O 	0.74470 0.63640 0.59200 -0.37200
O 	O 	0.86660 0.47780 0.55340 -0.38000
O 	O 	0.97800 0.64000 0.71020 -0.20600
O 	O 	0.88060 0.75730 0.54520 -0.22400
O 	O 	0.11300 0.57690 0.51480 -0.30400
O 	O 	0.14810 0.74490 0.54080 -0.30500
O 	O 	0.19380 0.62770 0.75960 -0.16500
O 	O 	0.44620 0.63280 0.83420 -0.16700
O 	O 	0.34170 0.79990 0.90740 -0.28100
O 	O 	0.36030 0.64490 0.64760 -0.24300
O 	O 	0.54200 0.81320 0.73260 -0.31100
O 	O 	0.55650 0.82440 0.87360 -0.26800
O 	O 	0.15270 0.36360 0.40800 -0.36600
O 	O 	0.31320 0.52220 0.44660 -0.38100
O 	O 	0.26780 0.36000 0.28980 -0.22500
O 	O 	0.33540 0.24270 0.45480 -0.21800
O 	O 	0.59820 0.42310 0.48520 -0.30700
O 	O 	0.60730 0.25510 0.45920 -0.30000
O 	O 	0.43420 0.37230 0.24040 -0.21100
O 	O 	0.61200 0.36720 0.16580 -0.23600
O 	O 	0.43430 0.20010 0.09260 -0.41200
O 	O 	0.71270 0.35510 0.35240 -0.24300
O 	O 	0.80940 0.18680 0.26740 -0.36400
O 	O 	0.68290 0.17560 0.12640 -0.38700
