data_crystal

_cell_length_a 37.29110
_cell_length_b 37.29110
_cell_length_c 37.51320
_cell_angle_alpha 60.19570
_cell_angle_beta  60.19570
_cell_angle_gamma 60.00000

_symmetry_space_group_name_	'P 1'
_symmetry_space_group_name_H-M	'P 1'

loop_
_symmetry_equiv_pos_as_xyz
  x,y,z

loop_
_atom_site_label
_atom_site_type_symbol
_atom_site_fract_x
_atom_site_fract_y
_atom_site_fract_z
_atom_site_charge
Cu	Cu	0.90805 0.37269 0.27597 0.91300
Cu	Cu	0.37269 0.44329 0.27597 0.91300
Cu	Cu	0.44329 0.90805 0.27597 0.91200
Cu	Cu	0.90805 0.44329 0.27597 0.91200
Cu	Cu	0.37269 0.90805 0.27597 0.91200
Cu	Cu	0.44329 0.37269 0.27597 0.91200
Cu	Cu	0.90833 0.90833 0.81001 0.91100
Cu	Cu	0.90707 0.90707 0.74117 0.90100
Cu	Cu	0.90833 0.37333 0.81001 0.91100
Cu	Cu	0.90707 0.44469 0.74117 0.90100
Cu	Cu	0.37333 0.90833 0.81001 0.91100
Cu	Cu	0.44469 0.90707 0.74117 0.90100
H 	H 	0.88810 0.04360 0.76840 0.04400
H 	H 	0.88320 0.11870 0.73150 0.07400
H 	H 	0.87990 0.11560 0.63190 0.07800
H 	H 	0.89420 0.04190 0.66130 0.03500
H 	H 	0.92490 0.77210 0.88930 0.04100
H 	H 	0.93990 0.69620 0.91990 0.08000
H 	H 	0.93930 0.69560 0.81220 0.08100
H 	H 	0.93190 0.76820 0.78040 0.03700
H 	H 	0.93850 0.55220 0.06570 0.08200
H 	H 	0.92970 0.51840 0.14010 0.04200
H 	H 	0.03760 0.29590 0.26490 0.04100
H 	H 	0.10920 0.26100 0.26490 0.07400
H 	H 	0.88340 0.29950 0.41110 0.07600
H 	H 	0.88650 0.25830 0.48670 0.06000
H 	H 	0.77960 0.41090 0.29040 0.05700
H 	H 	0.70670 0.44540 0.29550 0.05000
H 	H 	0.04360 0.29990 0.76840 0.04400
H 	H 	0.11870 0.26660 0.73150 0.07400
H 	H 	0.11560 0.37260 0.63190 0.07800
H 	H 	0.04190 0.40260 0.66130 0.03500
H 	H 	0.77210 0.41370 0.88930 0.04100
H 	H 	0.69620 0.44400 0.91990 0.08000
H 	H 	0.69560 0.55290 0.81220 0.08100
H 	H 	0.76820 0.51950 0.78040 0.03700
H 	H 	0.55220 0.44360 0.06570 0.08200
H 	H 	0.51840 0.41180 0.14010 0.04200
H 	H 	0.29590 0.40160 0.26490 0.04000
H 	H 	0.26100 0.36490 0.26490 0.07400
H 	H 	0.29950 0.40600 0.41110 0.07600
H 	H 	0.25830 0.36850 0.48670 0.06000
H 	H 	0.41090 0.51910 0.29040 0.05700
H 	H 	0.44540 0.55240 0.29550 0.05000
H 	H 	0.29990 0.88810 0.76840 0.04400
H 	H 	0.26660 0.88320 0.73150 0.07400
H 	H 	0.37260 0.87990 0.63190 0.07800
H 	H 	0.40260 0.89420 0.66130 0.03500
H 	H 	0.41370 0.92490 0.88930 0.04100
H 	H 	0.44400 0.93990 0.91990 0.08000
H 	H 	0.55290 0.93930 0.81220 0.08100
H 	H 	0.51950 0.93190 0.78040 0.03700
H 	H 	0.44360 0.93850 0.06570 0.08200
H 	H 	0.41180 0.92970 0.14010 0.04200
H 	H 	0.40160 0.03760 0.26490 0.04100
H 	H 	0.36490 0.10920 0.26490 0.07400
H 	H 	0.40600 0.88340 0.41110 0.07600
H 	H 	0.36850 0.88650 0.48670 0.06000
H 	H 	0.51910 0.77960 0.29040 0.05700
H 	H 	0.55240 0.70670 0.29550 0.05000
H 	H 	0.88810 0.29990 0.76840 0.04400
H 	H 	0.88320 0.26660 0.73150 0.07400
H 	H 	0.87990 0.37260 0.63190 0.07800
H 	H 	0.89420 0.40260 0.66130 0.03500
H 	H 	0.92490 0.41370 0.88930 0.04100
H 	H 	0.93990 0.44400 0.91990 0.08000
H 	H 	0.93930 0.55290 0.81220 0.08100
H 	H 	0.93190 0.51950 0.78040 0.03700
H 	H 	0.93850 0.44360 0.06570 0.08200
H 	H 	0.92970 0.41180 0.14010 0.04200
H 	H 	0.03760 0.40160 0.26490 0.04100
H 	H 	0.10920 0.36490 0.26490 0.07400
H 	H 	0.88340 0.40600 0.41110 0.07600
H 	H 	0.88650 0.36850 0.48670 0.06000
H 	H 	0.77960 0.51910 0.29040 0.05700
H 	H 	0.70670 0.55240 0.29550 0.05000
H 	H 	0.04360 0.88810 0.76840 0.04400
H 	H 	0.11870 0.88320 0.73150 0.07400
H 	H 	0.11560 0.87990 0.63190 0.07800
H 	H 	0.04190 0.89420 0.66130 0.03500
H 	H 	0.77210 0.92490 0.88930 0.04100
H 	H 	0.69620 0.93990 0.91990 0.08000
H 	H 	0.69560 0.93930 0.81220 0.08100
H 	H 	0.76820 0.93190 0.78040 0.03700
H 	H 	0.55220 0.93850 0.06570 0.08200
H 	H 	0.51840 0.92970 0.14010 0.04200
H 	H 	0.29590 0.03760 0.26490 0.04100
H 	H 	0.26100 0.10920 0.26490 0.07400
H 	H 	0.29950 0.88340 0.41110 0.07600
H 	H 	0.25830 0.88650 0.48670 0.06000
H 	H 	0.41090 0.77960 0.29040 0.05700
H 	H 	0.44540 0.70670 0.29550 0.05000
H 	H 	0.29990 0.04360 0.76840 0.04400
H 	H 	0.26660 0.11870 0.73150 0.07400
H 	H 	0.37260 0.11560 0.63190 0.07800
H 	H 	0.40260 0.04190 0.66130 0.03500
H 	H 	0.41370 0.77210 0.88930 0.04100
H 	H 	0.44400 0.69620 0.91990 0.08000
H 	H 	0.55290 0.69560 0.81220 0.08100
H 	H 	0.51950 0.76820 0.78040 0.03700
H 	H 	0.44360 0.55220 0.06570 0.08200
H 	H 	0.41180 0.51840 0.14010 0.04200
H 	H 	0.40160 0.29590 0.26490 0.04000
H 	H 	0.36490 0.26100 0.26490 0.07400
H 	H 	0.40600 0.29950 0.41110 0.07600
H 	H 	0.36850 0.25830 0.48670 0.06000
H 	H 	0.51910 0.41090 0.29040 0.05700
H 	H 	0.55240 0.44540 0.29550 0.05000
C 	C 	0.89530 0.98810 0.74470 0.36600
C 	C 	0.89110 0.03320 0.71890 -0.11300
C 	C 	0.88790 0.05700 0.73990 0.02200
C 	C 	0.88390 0.10420 0.71680 -0.08100
C 	C 	0.88130 0.12790 0.67630 0.02700
C 	C 	0.88340 0.10200 0.65890 -0.09000
C 	C 	0.89010 0.05640 0.67810 0.04400
C 	C 	0.87620 0.17020 0.66220 0.12000
C 	C 	0.87990 0.22460 0.60010 0.16600
C 	C 	0.92140 0.82790 0.81010 0.37600
C 	C 	0.93040 0.77590 0.83140 -0.08200
C 	C 	0.93030 0.75590 0.87370 0.02400
C 	C 	0.93890 0.71100 0.89170 -0.09700
C 	C 	0.94540 0.68940 0.86830 0.03900
C 	C 	0.93930 0.71080 0.82570 -0.09400
C 	C 	0.93370 0.75310 0.80830 0.02800
C 	C 	0.94820 0.64550 0.89140 0.09500
C 	C 	0.94820 0.58190 0.94870 0.23300
C 	C 	0.93700 0.52410 0.08070 -0.09600
C 	C 	0.93160 0.50460 0.12390 0.02500
C 	C 	0.05440 0.31010 0.26130 0.01000
C 	C 	0.09590 0.29090 0.26100 -0.08700
C 	C 	0.88460 0.31390 0.42460 -0.06400
C 	C 	0.88650 0.28700 0.47200 -0.03500
C 	C 	0.76290 0.43880 0.29280 -0.02000
C 	C 	0.72050 0.46040 0.29550 -0.01500
C 	C 	0.98810 0.37190 0.74470 0.36600
C 	C 	0.03320 0.35680 0.71890 -0.11300
C 	C 	0.05700 0.31520 0.73990 0.02200
C 	C 	0.10420 0.29510 0.71680 -0.08100
C 	C 	0.12790 0.31450 0.67630 0.02700
C 	C 	0.10200 0.35570 0.65890 -0.09000
C 	C 	0.05640 0.37540 0.67810 0.04400
C 	C 	0.17020 0.29140 0.66220 0.12000
C 	C 	0.22460 0.29540 0.60010 0.16600
C 	C 	0.82790 0.44060 0.81010 0.37600
C 	C 	0.77590 0.46230 0.83140 -0.08200
C 	C 	0.75590 0.44010 0.87370 0.02400
C 	C 	0.71100 0.45840 0.89170 -0.09700
C 	C 	0.68940 0.49690 0.86830 0.03900
C 	C 	0.71080 0.52420 0.82570 -0.09400
C 	C 	0.75310 0.50490 0.80830 0.02800
C 	C 	0.64550 0.51490 0.89140 0.09500
C 	C 	0.58190 0.52120 0.94870 0.23300
C 	C 	0.52410 0.45820 0.08070 -0.09600
C 	C 	0.50460 0.43990 0.12390 0.02500
C 	C 	0.31010 0.37420 0.26130 0.01000
C 	C 	0.29090 0.35220 0.26100 -0.08700
C 	C 	0.31390 0.37690 0.42460 -0.06400
C 	C 	0.28700 0.35450 0.47200 -0.03500
C 	C 	0.43880 0.50550 0.29280 -0.02000
C 	C 	0.46040 0.52360 0.29550 -0.01500
C 	C 	0.37190 0.89530 0.74470 0.36600
C 	C 	0.35680 0.89110 0.71890 -0.11200
C 	C 	0.31520 0.88790 0.73990 0.02200
C 	C 	0.29510 0.88390 0.71680 -0.08100
C 	C 	0.31450 0.88130 0.67630 0.02700
C 	C 	0.35570 0.88340 0.65890 -0.09000
C 	C 	0.37540 0.89010 0.67810 0.04400
C 	C 	0.29140 0.87620 0.66220 0.12000
C 	C 	0.29540 0.87990 0.60010 0.16600
C 	C 	0.44060 0.92140 0.81010 0.37600
C 	C 	0.46230 0.93040 0.83140 -0.08200
C 	C 	0.44010 0.93030 0.87370 0.02400
C 	C 	0.45840 0.93890 0.89170 -0.09700
C 	C 	0.49690 0.94540 0.86830 0.03900
C 	C 	0.52420 0.93930 0.82570 -0.09400
C 	C 	0.50490 0.93370 0.80830 0.02800
C 	C 	0.51490 0.94820 0.89140 0.09500
C 	C 	0.52120 0.94820 0.94870 0.23300
C 	C 	0.45820 0.93700 0.08070 -0.09600
C 	C 	0.43990 0.93160 0.12390 0.02500
C 	C 	0.37420 0.05440 0.26130 0.01000
C 	C 	0.35220 0.09590 0.26100 -0.08700
C 	C 	0.37690 0.88460 0.42460 -0.06400
C 	C 	0.35450 0.88650 0.47200 -0.03500
C 	C 	0.50550 0.76290 0.29280 -0.02000
C 	C 	0.52360 0.72050 0.29550 -0.01500
C 	C 	0.89530 0.37190 0.74470 0.36600
C 	C 	0.89110 0.35680 0.71890 -0.11200
C 	C 	0.88790 0.31520 0.73990 0.02200
C 	C 	0.88390 0.29510 0.71680 -0.08100
C 	C 	0.88130 0.31450 0.67630 0.02700
C 	C 	0.88340 0.35570 0.65890 -0.09000
C 	C 	0.89010 0.37540 0.67810 0.04400
C 	C 	0.87620 0.29140 0.66220 0.12000
C 	C 	0.87990 0.29540 0.60010 0.16600
C 	C 	0.92140 0.44060 0.81010 0.37600
C 	C 	0.93040 0.46230 0.83140 -0.08200
C 	C 	0.93030 0.44010 0.87370 0.02400
C 	C 	0.93890 0.45840 0.89170 -0.09700
C 	C 	0.94540 0.49690 0.86830 0.03900
C 	C 	0.93930 0.52420 0.82570 -0.09400
C 	C 	0.93370 0.50490 0.80830 0.02800
C 	C 	0.94820 0.51490 0.89140 0.09500
C 	C 	0.94820 0.52120 0.94870 0.23300
C 	C 	0.93700 0.45820 0.08070 -0.09600
C 	C 	0.93160 0.43990 0.12390 0.02500
C 	C 	0.05440 0.37420 0.26130 0.01000
C 	C 	0.09590 0.35220 0.26100 -0.08700
C 	C 	0.88460 0.37690 0.42460 -0.06400
C 	C 	0.88650 0.35450 0.47200 -0.03500
C 	C 	0.76290 0.50550 0.29280 -0.02000
C 	C 	0.72050 0.52360 0.29550 -0.01500
C 	C 	0.98810 0.89530 0.74470 0.36600
C 	C 	0.03320 0.89110 0.71890 -0.11300
C 	C 	0.05700 0.88790 0.73990 0.02200
C 	C 	0.10420 0.88390 0.71680 -0.08100
C 	C 	0.12790 0.88130 0.67630 0.02700
C 	C 	0.10200 0.88340 0.65890 -0.09000
C 	C 	0.05640 0.89010 0.67810 0.04400
C 	C 	0.17020 0.87620 0.66220 0.12000
C 	C 	0.22460 0.87990 0.60010 0.16600
C 	C 	0.82790 0.92140 0.81010 0.37600
C 	C 	0.77590 0.93040 0.83140 -0.08200
C 	C 	0.75590 0.93030 0.87370 0.02400
C 	C 	0.71100 0.93890 0.89170 -0.09700
C 	C 	0.68940 0.94540 0.86830 0.03900
C 	C 	0.71080 0.93930 0.82570 -0.09400
C 	C 	0.75310 0.93370 0.80830 0.02800
C 	C 	0.64550 0.94820 0.89140 0.09500
C 	C 	0.58190 0.94820 0.94870 0.23300
C 	C 	0.52410 0.93700 0.08070 -0.09600
C 	C 	0.50460 0.93160 0.12390 0.02500
C 	C 	0.31010 0.05440 0.26130 0.01000
C 	C 	0.29090 0.09590 0.26100 -0.08700
C 	C 	0.31390 0.88460 0.42460 -0.06400
C 	C 	0.28700 0.88650 0.47200 -0.03500
C 	C 	0.43880 0.76290 0.29280 -0.02000
C 	C 	0.46040 0.72050 0.29550 -0.01500
C 	C 	0.37190 0.98810 0.74470 0.36600
C 	C 	0.35680 0.03320 0.71890 -0.11300
C 	C 	0.31520 0.05700 0.73990 0.02200
C 	C 	0.29510 0.10420 0.71680 -0.08100
C 	C 	0.31450 0.12790 0.67630 0.02700
C 	C 	0.35570 0.10200 0.65890 -0.09000
C 	C 	0.37540 0.05640 0.67810 0.04400
C 	C 	0.29140 0.17020 0.66220 0.12000
C 	C 	0.29540 0.22460 0.60010 0.16600
C 	C 	0.44060 0.82790 0.81010 0.37600
C 	C 	0.46230 0.77590 0.83140 -0.08200
C 	C 	0.44010 0.75590 0.87370 0.02400
C 	C 	0.45840 0.71100 0.89170 -0.09700
C 	C 	0.49690 0.68940 0.86830 0.03900
C 	C 	0.52420 0.71080 0.82570 -0.09400
C 	C 	0.50490 0.75310 0.80830 0.02800
C 	C 	0.51490 0.64550 0.89140 0.09500
C 	C 	0.52120 0.58190 0.94870 0.23300
C 	C 	0.45820 0.52410 0.08070 -0.09600
C 	C 	0.43990 0.50460 0.12390 0.02500
C 	C 	0.37420 0.31010 0.26130 0.01000
C 	C 	0.35220 0.29090 0.26100 -0.08700
C 	C 	0.37690 0.31390 0.42460 -0.06400
C 	C 	0.35450 0.28700 0.47200 -0.03500
C 	C 	0.50550 0.43880 0.29280 -0.02000
C 	C 	0.52360 0.46040 0.29550 -0.01500
C 	C 	0.87840 0.23195 0.65770 0.19700
C 	C 	0.90800 0.37420 0.34360 0.19400
C 	C 	0.88430 0.35770 0.40030 0.05400
C 	C 	0.88810 0.31125 0.48940 -0.01200
C 	C 	0.87970 0.29445 0.53140 0.11900
C 	C 	0.23195 0.23195 0.65770 0.19700
C 	C 	0.37420 0.37420 0.34360 0.19400
C 	C 	0.35770 0.35770 0.40030 0.05400
C 	C 	0.31125 0.31125 0.48940 -0.01200
C 	C 	0.29445 0.29445 0.53140 0.11900
C 	C 	0.23195 0.87840 0.65770 0.19700
C 	C 	0.37420 0.90800 0.34360 0.19400
C 	C 	0.35770 0.88430 0.40030 0.05400
C 	C 	0.31125 0.88810 0.48940 -0.01200
C 	C 	0.29445 0.87970 0.53140 0.11900
C 	C 	0.95200 0.57965 0.88870 0.19900
C 	C 	0.94860 0.52090 0.00960 0.11900
C 	C 	0.94000 0.49985 0.06030 0.04500
C 	C 	0.92910 0.46465 0.14160 -0.07400
C 	C 	0.92660 0.43980 0.19380 0.37100
C 	C 	0.99510 0.37210 0.26070 0.21400
C 	C 	0.04070 0.35170 0.25590 -0.06400
C 	C 	0.11990 0.31240 0.25530 0.04300
C 	C 	0.17170 0.28770 0.25290 0.11100
C 	C 	0.82180 0.44480 0.28860 0.32800
C 	C 	0.77680 0.46430 0.29460 -0.07800
C 	C 	0.69340 0.50390 0.29880 -0.06400
C 	C 	0.65240 0.52140 0.30480 0.20000
C 	C 	0.57965 0.57965 0.88870 0.19900
C 	C 	0.52090 0.52090 0.00960 0.11900
C 	C 	0.49985 0.49985 0.06030 0.04500
C 	C 	0.46465 0.46465 0.14160 -0.07400
C 	C 	0.43980 0.43980 0.19380 0.37100
C 	C 	0.37210 0.37210 0.26070 0.21400
C 	C 	0.35170 0.35170 0.25590 -0.06400
C 	C 	0.31240 0.31240 0.25530 0.04300
C 	C 	0.28770 0.28770 0.25290 0.11100
C 	C 	0.44480 0.44480 0.28860 0.32800
C 	C 	0.46430 0.46430 0.29460 -0.07800
C 	C 	0.50390 0.50390 0.29880 -0.06400
C 	C 	0.52140 0.52140 0.30480 0.20000
C 	C 	0.57965 0.95200 0.88870 0.19900
C 	C 	0.52090 0.94860 0.00960 0.11900
C 	C 	0.49985 0.94000 0.06030 0.04500
C 	C 	0.46465 0.92910 0.14160 -0.07400
C 	C 	0.43980 0.92660 0.19380 0.37100
C 	C 	0.37210 0.99510 0.26070 0.21400
C 	C 	0.35170 0.04070 0.25590 -0.06400
C 	C 	0.31240 0.11990 0.25530 0.04300
C 	C 	0.28770 0.17170 0.25290 0.11100
C 	C 	0.44480 0.82180 0.28860 0.32800
C 	C 	0.46430 0.77680 0.29460 -0.07800
C 	C 	0.50390 0.69340 0.29880 -0.06400
C 	C 	0.52140 0.65240 0.30480 0.20000
C 	C 	0.22825 0.22825 0.25230 0.23200
C 	C 	0.22825 0.29120 0.25230 0.23200
C 	C 	0.29120 0.22825 0.25230 0.23200
C 	C 	0.58750 0.52110 0.30390 0.19100
C 	C 	0.52110 0.58750 0.30390 0.19100
C 	C 	0.58750 0.58750 0.30390 0.19100
N 	N 	0.87680 0.19150 0.68020 -0.15600
N 	N 	0.87500 0.18500 0.62200 -0.14800
N 	N 	0.94730 0.62180 0.93400 -0.15500
N 	N 	0.94930 0.62180 0.86980 -0.14100
N 	N 	0.94830 0.56170 0.99130 -0.15200
N 	N 	0.18910 0.24650 0.25230 -0.16400
N 	N 	0.87790 0.25240 0.55390 -0.12900
N 	N 	0.63040 0.50670 0.30240 -0.16600
N 	N 	0.19150 0.25150 0.68020 -0.15600
N 	N 	0.18500 0.31800 0.62200 -0.14800
N 	N 	0.62180 0.49690 0.93400 -0.15500
N 	N 	0.62180 0.55910 0.86980 -0.14100
N 	N 	0.56170 0.49870 0.99130 -0.15200
N 	N 	0.24650 0.31210 0.25230 -0.16400
N 	N 	0.25240 0.31580 0.55390 -0.12900
N 	N 	0.50670 0.56050 0.30240 -0.16600
N 	N 	0.25150 0.87680 0.68020 -0.15600
N 	N 	0.31800 0.87500 0.62200 -0.14800
N 	N 	0.49690 0.94730 0.93400 -0.15500
N 	N 	0.55910 0.94930 0.86980 -0.14100
N 	N 	0.49870 0.94830 0.99130 -0.15200
N 	N 	0.31210 0.18910 0.25230 -0.16400
N 	N 	0.31580 0.87790 0.55390 -0.12900
N 	N 	0.56050 0.63040 0.30240 -0.16600
N 	N 	0.87680 0.25150 0.68020 -0.15600
N 	N 	0.87500 0.31800 0.62200 -0.14800
N 	N 	0.94730 0.49690 0.93400 -0.15500
N 	N 	0.94930 0.55910 0.86980 -0.14100
N 	N 	0.94830 0.49870 0.99130 -0.15200
N 	N 	0.18910 0.31210 0.25230 -0.16400
N 	N 	0.87790 0.31580 0.55390 -0.12900
N 	N 	0.63040 0.56050 0.30240 -0.16600
N 	N 	0.19150 0.87680 0.68020 -0.15600
N 	N 	0.18500 0.87500 0.62200 -0.14800
N 	N 	0.62180 0.94730 0.93400 -0.15500
N 	N 	0.62180 0.94930 0.86980 -0.14100
N 	N 	0.56170 0.94830 0.99130 -0.15200
N 	N 	0.24650 0.18910 0.25230 -0.16400
N 	N 	0.25240 0.87790 0.55390 -0.12900
N 	N 	0.50670 0.63040 0.30240 -0.16600
N 	N 	0.25150 0.19150 0.68020 -0.15600
N 	N 	0.31800 0.18500 0.62200 -0.14800
N 	N 	0.49690 0.62180 0.93400 -0.15500
N 	N 	0.55910 0.62180 0.86980 -0.14100
N 	N 	0.49870 0.56170 0.99130 -0.15200
N 	N 	0.31210 0.24650 0.25230 -0.16400
N 	N 	0.31580 0.25240 0.55390 -0.12900
N 	N 	0.56050 0.50670 0.30240 -0.16600
N 	N 	0.88070 0.25210 0.61510 -0.17700
N 	N 	0.25210 0.25210 0.61510 -0.17700
N 	N 	0.25210 0.88070 0.61510 -0.17700
N 	N 	0.94830 0.55975 0.93220 -0.23200
N 	N 	0.55975 0.55975 0.93220 -0.23200
N 	N 	0.55975 0.94830 0.93220 -0.23200
N 	N 	0.24913 0.24913 0.25261 -0.22100
N 	N 	0.56497 0.56497 0.30509 -0.16800
O 	O 	0.89710 0.97090 0.77980 -0.43300
O 	O 	0.89704 0.97094 0.71848 -0.37800
O 	O 	0.91800 0.84500 0.77410 -0.42800
O 	O 	0.91930 0.84560 0.83230 -0.41200
O 	O 	0.92080 0.40410 0.21240 -0.40200
O 	O 	0.96520 0.35300 0.26640 -0.37600
O 	O 	0.89200 0.35230 0.34060 -0.34100
O 	O 	0.84670 0.40610 0.28380 -0.38300
O 	O 	0.97090 0.35220 0.77980 -0.43300
O 	O 	0.97094 0.41354 0.71848 -0.37800
O 	O 	0.84500 0.46290 0.77410 -0.42800
O 	O 	0.84560 0.40280 0.83230 -0.41200
O 	O 	0.40410 0.46270 0.21240 -0.40200
O 	O 	0.35300 0.41540 0.26640 -0.37600
O 	O 	0.35230 0.41510 0.34060 -0.34100
O 	O 	0.40610 0.46340 0.28380 -0.38300
O 	O 	0.35220 0.89710 0.77980 -0.43300
O 	O 	0.41354 0.89704 0.71848 -0.37800
O 	O 	0.46290 0.91800 0.77410 -0.42800
O 	O 	0.40280 0.91930 0.83230 -0.41200
O 	O 	0.46270 0.92080 0.21240 -0.40200
O 	O 	0.41540 0.96520 0.26640 -0.37600
O 	O 	0.41510 0.89200 0.34060 -0.34100
O 	O 	0.46340 0.84670 0.28380 -0.38300
O 	O 	0.89710 0.35220 0.77980 -0.43300
O 	O 	0.89704 0.41354 0.71848 -0.37800
O 	O 	0.91800 0.46290 0.77410 -0.42800
O 	O 	0.91930 0.40280 0.83230 -0.41200
O 	O 	0.92080 0.46270 0.21240 -0.40200
O 	O 	0.96520 0.41540 0.26640 -0.37600
O 	O 	0.89200 0.41510 0.34060 -0.34100
O 	O 	0.84670 0.46340 0.28380 -0.38300
O 	O 	0.97090 0.89710 0.77980 -0.43300
O 	O 	0.97094 0.89704 0.71848 -0.37800
O 	O 	0.84500 0.91800 0.77410 -0.42800
O 	O 	0.84560 0.91930 0.83230 -0.41200
O 	O 	0.40410 0.92080 0.21240 -0.40200
O 	O 	0.35300 0.96520 0.26640 -0.37600
O 	O 	0.35230 0.89200 0.34060 -0.34100
O 	O 	0.40610 0.84670 0.28380 -0.38300
O 	O 	0.35220 0.97090 0.77980 -0.43300
O 	O 	0.41354 0.97094 0.71848 -0.37800
O 	O 	0.46290 0.84500 0.77410 -0.42800
O 	O 	0.40280 0.84560 0.83230 -0.41200
O 	O 	0.46270 0.40410 0.21240 -0.40200
O 	O 	0.41540 0.35300 0.26640 -0.37600
O 	O 	0.41510 0.35230 0.34060 -0.34100
O 	O 	0.46340 0.40610 0.28380 -0.38300
Cu	Cu	0.09195 0.55671 0.72403 0.91200
Cu	Cu	0.62731 0.09195 0.72403 0.91200
Cu	Cu	0.55671 0.62731 0.72403 0.91200
Cu	Cu	0.09195 0.62731 0.72403 0.91200
Cu	Cu	0.62731 0.55671 0.72403 0.91200
Cu	Cu	0.55671 0.09195 0.72403 0.91200
Cu	Cu	0.09167 0.62667 0.18999 0.91100
Cu	Cu	0.09292 0.55531 0.25885 0.90100
Cu	Cu	0.09167 0.09167 0.18999 0.91100
Cu	Cu	0.09292 0.09292 0.25885 0.90100
Cu	Cu	0.62667 0.09167 0.18999 0.91100
Cu	Cu	0.55531 0.09292 0.25885 0.90100
H 	H 	0.11190 0.70010 0.23160 0.04400
H 	H 	0.11680 0.73340 0.26850 0.07400
H 	H 	0.12010 0.62740 0.36810 0.07800
H 	H 	0.10580 0.59740 0.33870 0.03500
H 	H 	0.07510 0.58630 0.11070 0.04100
H 	H 	0.06010 0.55600 0.08010 0.08000
H 	H 	0.06070 0.44710 0.18780 0.08100
H 	H 	0.06810 0.48050 0.21960 0.03700
H 	H 	0.06150 0.55640 0.93430 0.08200
H 	H 	0.07030 0.58820 0.85990 0.04200
H 	H 	0.96240 0.59840 0.73510 0.04100
H 	H 	0.89080 0.63510 0.73510 0.07400
H 	H 	0.11660 0.59400 0.58890 0.07600
H 	H 	0.11350 0.63150 0.51330 0.06000
H 	H 	0.22040 0.48090 0.70960 0.05700
H 	H 	0.29330 0.44760 0.70450 0.05000
H 	H 	0.95640 0.11190 0.23160 0.04400
H 	H 	0.88130 0.11680 0.26850 0.07400
H 	H 	0.88440 0.12010 0.36810 0.07800
H 	H 	0.95810 0.10580 0.33870 0.03500
H 	H 	0.22790 0.07510 0.11070 0.04100
H 	H 	0.30380 0.06010 0.08010 0.08000
H 	H 	0.30440 0.06070 0.18780 0.08100
H 	H 	0.23180 0.06810 0.21960 0.03700
H 	H 	0.44780 0.06150 0.93430 0.08200
H 	H 	0.48160 0.07030 0.85990 0.04200
H 	H 	0.70410 0.96240 0.73510 0.04100
H 	H 	0.73900 0.89080 0.73510 0.07400
H 	H 	0.70050 0.11660 0.58890 0.07600
H 	H 	0.74170 0.11350 0.51330 0.06000
H 	H 	0.58910 0.22040 0.70960 0.05700
H 	H 	0.55460 0.29330 0.70450 0.05000
H 	H 	0.70010 0.95640 0.23160 0.04400
H 	H 	0.73340 0.88130 0.26850 0.07400
H 	H 	0.62740 0.88440 0.36810 0.07800
H 	H 	0.59740 0.95810 0.33870 0.03500
H 	H 	0.58630 0.22790 0.11070 0.04100
H 	H 	0.55600 0.30380 0.08010 0.08000
H 	H 	0.44710 0.30440 0.18780 0.08100
H 	H 	0.48050 0.23180 0.21960 0.03700
H 	H 	0.55640 0.44780 0.93430 0.08200
H 	H 	0.58820 0.48160 0.85990 0.04200
H 	H 	0.59840 0.70410 0.73510 0.04000
H 	H 	0.63510 0.73900 0.73510 0.07400
H 	H 	0.59400 0.70050 0.58890 0.07600
H 	H 	0.63150 0.74170 0.51330 0.06000
H 	H 	0.48090 0.58910 0.70960 0.05700
H 	H 	0.44760 0.55460 0.70450 0.05000
H 	H 	0.11190 0.95640 0.23160 0.04400
H 	H 	0.11680 0.88130 0.26850 0.07400
H 	H 	0.12010 0.88440 0.36810 0.07800
H 	H 	0.10580 0.95810 0.33870 0.03500
H 	H 	0.07510 0.22790 0.11070 0.04100
H 	H 	0.06010 0.30380 0.08010 0.08000
H 	H 	0.06070 0.30440 0.18780 0.08100
H 	H 	0.06810 0.23180 0.21960 0.03700
H 	H 	0.06150 0.44780 0.93430 0.08200
H 	H 	0.07030 0.48160 0.85990 0.04200
H 	H 	0.96240 0.70410 0.73510 0.04100
H 	H 	0.89080 0.73900 0.73510 0.07400
H 	H 	0.11660 0.70050 0.58890 0.07600
H 	H 	0.11350 0.74170 0.51330 0.06000
H 	H 	0.22040 0.58910 0.70960 0.05700
H 	H 	0.29330 0.55460 0.70450 0.05000
H 	H 	0.95640 0.70010 0.23160 0.04400
H 	H 	0.88130 0.73340 0.26850 0.07400
H 	H 	0.88440 0.62740 0.36810 0.07800
H 	H 	0.95810 0.59740 0.33870 0.03500
H 	H 	0.22790 0.58630 0.11070 0.04100
H 	H 	0.30380 0.55600 0.08010 0.08000
H 	H 	0.30440 0.44710 0.18780 0.08100
H 	H 	0.23180 0.48050 0.21960 0.03700
H 	H 	0.44780 0.55640 0.93430 0.08200
H 	H 	0.48160 0.58820 0.85990 0.04200
H 	H 	0.70410 0.59840 0.73510 0.04000
H 	H 	0.73900 0.63510 0.73510 0.07400
H 	H 	0.70050 0.59400 0.58890 0.07600
H 	H 	0.74170 0.63150 0.51330 0.06000
H 	H 	0.58910 0.48090 0.70960 0.05700
H 	H 	0.55460 0.44760 0.70450 0.05000
H 	H 	0.70010 0.11190 0.23160 0.04400
H 	H 	0.73340 0.11680 0.26850 0.07400
H 	H 	0.62740 0.12010 0.36810 0.07800
H 	H 	0.59740 0.10580 0.33870 0.03500
H 	H 	0.58630 0.07510 0.11070 0.04100
H 	H 	0.55600 0.06010 0.08010 0.08000
H 	H 	0.44710 0.06070 0.18780 0.08100
H 	H 	0.48050 0.06810 0.21960 0.03700
H 	H 	0.55640 0.06150 0.93430 0.08200
H 	H 	0.58820 0.07030 0.85990 0.04200
H 	H 	0.59840 0.96240 0.73510 0.04100
H 	H 	0.63510 0.89080 0.73510 0.07400
H 	H 	0.59400 0.11660 0.58890 0.07600
H 	H 	0.63150 0.11350 0.51330 0.06000
H 	H 	0.48090 0.22040 0.70960 0.05700
H 	H 	0.44760 0.29330 0.70450 0.05000
C 	C 	0.10470 0.62810 0.25530 0.36600
C 	C 	0.10890 0.64320 0.28110 -0.11300
C 	C 	0.11210 0.68480 0.26010 0.02200
C 	C 	0.11610 0.70490 0.28320 -0.08100
C 	C 	0.11870 0.68550 0.32370 0.02700
C 	C 	0.11660 0.64430 0.34110 -0.09000
C 	C 	0.10990 0.62460 0.32190 0.04400
C 	C 	0.12380 0.70860 0.33780 0.12000
C 	C 	0.12010 0.70460 0.39990 0.16600
C 	C 	0.07860 0.55940 0.18990 0.37600
C 	C 	0.06960 0.53770 0.16860 -0.08200
C 	C 	0.06970 0.55990 0.12630 0.02400
C 	C 	0.06110 0.54160 0.10830 -0.09700
C 	C 	0.05460 0.50310 0.13170 0.03900
C 	C 	0.06070 0.47580 0.17430 -0.09400
C 	C 	0.06630 0.49510 0.19170 0.02800
C 	C 	0.05180 0.48510 0.10860 0.09500
C 	C 	0.05180 0.47880 0.05130 0.23300
C 	C 	0.06300 0.54180 0.91930 -0.09600
C 	C 	0.06840 0.56010 0.87610 0.02500
C 	C 	0.94560 0.62580 0.73870 0.01000
C 	C 	0.90410 0.64780 0.73900 -0.08700
C 	C 	0.11540 0.62310 0.57540 -0.06400
C 	C 	0.11350 0.64550 0.52800 -0.03500
C 	C 	0.23710 0.49450 0.70720 -0.02000
C 	C 	0.27950 0.47640 0.70450 -0.01500
C 	C 	0.01190 0.10470 0.25530 0.36600
C 	C 	0.96680 0.10890 0.28110 -0.11300
C 	C 	0.94300 0.11210 0.26010 0.02200
C 	C 	0.89580 0.11610 0.28320 -0.08100
C 	C 	0.87210 0.11870 0.32370 0.02700
C 	C 	0.89800 0.11660 0.34110 -0.09000
C 	C 	0.94360 0.10990 0.32190 0.04400
C 	C 	0.82980 0.12380 0.33780 0.12000
C 	C 	0.77540 0.12010 0.39990 0.16600
C 	C 	0.17210 0.07860 0.18990 0.37600
C 	C 	0.22410 0.06960 0.16860 -0.08200
C 	C 	0.24410 0.06970 0.12630 0.02400
C 	C 	0.28900 0.06110 0.10830 -0.09700
C 	C 	0.31060 0.05460 0.13170 0.03900
C 	C 	0.28920 0.06070 0.17430 -0.09400
C 	C 	0.24690 0.06630 0.19170 0.02800
C 	C 	0.35450 0.05180 0.10860 0.09500
C 	C 	0.41810 0.05180 0.05130 0.23300
C 	C 	0.47590 0.06300 0.91930 -0.09600
C 	C 	0.49540 0.06840 0.87610 0.02500
C 	C 	0.68990 0.94560 0.73870 0.01000
C 	C 	0.70910 0.90410 0.73900 -0.08700
C 	C 	0.68610 0.11540 0.57540 -0.06400
C 	C 	0.71300 0.11350 0.52800 -0.03500
C 	C 	0.56120 0.23710 0.70720 -0.02000
C 	C 	0.53960 0.27950 0.70450 -0.01500
C 	C 	0.62810 0.01190 0.25530 0.36600
C 	C 	0.64320 0.96680 0.28110 -0.11300
C 	C 	0.68480 0.94300 0.26010 0.02200
C 	C 	0.70490 0.89580 0.28320 -0.08200
C 	C 	0.68550 0.87210 0.32370 0.02700
C 	C 	0.64430 0.89800 0.34110 -0.09000
C 	C 	0.62460 0.94360 0.32190 0.04400
C 	C 	0.70860 0.82980 0.33780 0.12000
C 	C 	0.70460 0.77540 0.39990 0.16600
C 	C 	0.55940 0.17210 0.18990 0.37600
C 	C 	0.53770 0.22410 0.16860 -0.08200
C 	C 	0.55990 0.24410 0.12630 0.02400
C 	C 	0.54160 0.28900 0.10830 -0.09700
C 	C 	0.50310 0.31060 0.13170 0.03900
C 	C 	0.47580 0.28920 0.17430 -0.09400
C 	C 	0.49510 0.24690 0.19170 0.02800
C 	C 	0.48510 0.35450 0.10860 0.09500
C 	C 	0.47880 0.41810 0.05130 0.23300
C 	C 	0.54180 0.47590 0.91930 -0.09600
C 	C 	0.56010 0.49540 0.87610 0.02500
C 	C 	0.62580 0.68990 0.73870 0.01000
C 	C 	0.64780 0.70910 0.73900 -0.08700
C 	C 	0.62310 0.68610 0.57540 -0.06400
C 	C 	0.64550 0.71300 0.52800 -0.03500
C 	C 	0.49450 0.56120 0.70720 -0.02000
C 	C 	0.47640 0.53960 0.70450 -0.01500
C 	C 	0.10470 0.01190 0.25530 0.36600
C 	C 	0.10890 0.96680 0.28110 -0.11300
C 	C 	0.11210 0.94300 0.26010 0.02200
C 	C 	0.11610 0.89580 0.28320 -0.08100
C 	C 	0.11870 0.87210 0.32370 0.02700
C 	C 	0.11660 0.89800 0.34110 -0.09000
C 	C 	0.10990 0.94360 0.32190 0.04400
C 	C 	0.12380 0.82980 0.33780 0.12000
C 	C 	0.12010 0.77540 0.39990 0.16600
C 	C 	0.07860 0.17210 0.18990 0.37600
C 	C 	0.06960 0.22410 0.16860 -0.08200
C 	C 	0.06970 0.24410 0.12630 0.02400
C 	C 	0.06110 0.28900 0.10830 -0.09700
C 	C 	0.05460 0.31060 0.13170 0.03900
C 	C 	0.06070 0.28920 0.17430 -0.09400
C 	C 	0.06630 0.24690 0.19170 0.02800
C 	C 	0.05180 0.35450 0.10860 0.09500
C 	C 	0.05180 0.41810 0.05130 0.23300
C 	C 	0.06300 0.47590 0.91930 -0.09600
C 	C 	0.06840 0.49540 0.87610 0.02500
C 	C 	0.94560 0.68990 0.73870 0.01000
C 	C 	0.90410 0.70910 0.73900 -0.08700
C 	C 	0.11540 0.68610 0.57540 -0.06400
C 	C 	0.11350 0.71300 0.52800 -0.03500
C 	C 	0.23710 0.56120 0.70720 -0.02000
C 	C 	0.27950 0.53960 0.70450 -0.01500
C 	C 	0.01190 0.62810 0.25530 0.36600
C 	C 	0.96680 0.64320 0.28110 -0.11300
C 	C 	0.94300 0.68480 0.26010 0.02200
C 	C 	0.89580 0.70490 0.28320 -0.08200
C 	C 	0.87210 0.68550 0.32370 0.02700
C 	C 	0.89800 0.64430 0.34110 -0.09000
C 	C 	0.94360 0.62460 0.32190 0.04400
C 	C 	0.82980 0.70860 0.33780 0.12000
C 	C 	0.77540 0.70460 0.39990 0.16600
C 	C 	0.17210 0.55940 0.18990 0.37600
C 	C 	0.22410 0.53770 0.16860 -0.08200
C 	C 	0.24410 0.55990 0.12630 0.02400
C 	C 	0.28900 0.54160 0.10830 -0.09700
C 	C 	0.31060 0.50310 0.13170 0.03900
C 	C 	0.28920 0.47580 0.17430 -0.09400
C 	C 	0.24690 0.49510 0.19170 0.02800
C 	C 	0.35450 0.48510 0.10860 0.09500
C 	C 	0.41810 0.47880 0.05130 0.23300
C 	C 	0.47590 0.54180 0.91930 -0.09600
C 	C 	0.49540 0.56010 0.87610 0.02500
C 	C 	0.68990 0.62580 0.73870 0.01000
C 	C 	0.70910 0.64780 0.73900 -0.08700
C 	C 	0.68610 0.62310 0.57540 -0.06400
C 	C 	0.71300 0.64550 0.52800 -0.03500
C 	C 	0.56120 0.49450 0.70720 -0.02000
C 	C 	0.53960 0.47640 0.70450 -0.01500
C 	C 	0.62810 0.10470 0.25530 0.36600
C 	C 	0.64320 0.10890 0.28110 -0.11300
C 	C 	0.68480 0.11210 0.26010 0.02200
C 	C 	0.70490 0.11610 0.28320 -0.08100
C 	C 	0.68550 0.11870 0.32370 0.02700
C 	C 	0.64430 0.11660 0.34110 -0.09000
C 	C 	0.62460 0.10990 0.32190 0.04400
C 	C 	0.70860 0.12380 0.33780 0.12000
C 	C 	0.70460 0.12010 0.39990 0.16600
C 	C 	0.55940 0.07860 0.18990 0.37600
C 	C 	0.53770 0.06960 0.16860 -0.08200
C 	C 	0.55990 0.06970 0.12630 0.02400
C 	C 	0.54160 0.06110 0.10830 -0.09700
C 	C 	0.50310 0.05460 0.13170 0.03900
C 	C 	0.47580 0.06070 0.17430 -0.09400
C 	C 	0.49510 0.06630 0.19170 0.02800
C 	C 	0.48510 0.05180 0.10860 0.09500
C 	C 	0.47880 0.05180 0.05130 0.23300
C 	C 	0.54180 0.06300 0.91930 -0.09600
C 	C 	0.56010 0.06840 0.87610 0.02500
C 	C 	0.62580 0.94560 0.73870 0.01000
C 	C 	0.64780 0.90410 0.73900 -0.08700
C 	C 	0.62310 0.11540 0.57540 -0.06400
C 	C 	0.64550 0.11350 0.52800 -0.03500
C 	C 	0.49450 0.23710 0.70720 -0.02000
C 	C 	0.47640 0.27950 0.70450 -0.01500
C 	C 	0.12160 0.76805 0.34230 0.19700
C 	C 	0.09200 0.62580 0.65640 0.19400
C 	C 	0.11570 0.64230 0.59970 0.05400
C 	C 	0.11190 0.68875 0.51060 -0.01200
C 	C 	0.12030 0.70555 0.46860 0.11900
C 	C 	0.76805 0.12160 0.34230 0.19700
C 	C 	0.62580 0.09200 0.65640 0.19400
C 	C 	0.64230 0.11570 0.59970 0.05400
C 	C 	0.68875 0.11190 0.51060 -0.01200
C 	C 	0.70555 0.12030 0.46860 0.11900
C 	C 	0.76805 0.76805 0.34230 0.19700
C 	C 	0.62580 0.62580 0.65640 0.19400
C 	C 	0.64230 0.64230 0.59970 0.05400
C 	C 	0.68875 0.68875 0.51060 -0.01200
C 	C 	0.70555 0.70555 0.46860 0.11900
C 	C 	0.04800 0.42035 0.11130 0.19900
C 	C 	0.05140 0.47910 0.99040 0.11900
C 	C 	0.06000 0.50015 0.93970 0.04500
C 	C 	0.07090 0.53535 0.85840 -0.07400
C 	C 	0.07340 0.56020 0.80620 0.37100
C 	C 	0.00490 0.62790 0.73930 0.21400
C 	C 	0.95930 0.64830 0.74410 -0.06400
C 	C 	0.88010 0.68760 0.74470 0.04300
C 	C 	0.82830 0.71230 0.74710 0.11100
C 	C 	0.17820 0.55520 0.71140 0.32800
C 	C 	0.22320 0.53570 0.70540 -0.07800
C 	C 	0.30660 0.49610 0.70120 -0.06400
C 	C 	0.34760 0.47860 0.69520 0.20000
C 	C 	0.42035 0.04800 0.11130 0.19900
C 	C 	0.47910 0.05140 0.99040 0.11900
C 	C 	0.50015 0.06000 0.93970 0.04500
C 	C 	0.53535 0.07090 0.85840 -0.07400
C 	C 	0.56020 0.07340 0.80620 0.37100
C 	C 	0.62790 0.00490 0.73930 0.21400
C 	C 	0.64830 0.95930 0.74410 -0.06400
C 	C 	0.68760 0.88010 0.74470 0.04300
C 	C 	0.71230 0.82830 0.74710 0.11100
C 	C 	0.55520 0.17820 0.71140 0.32800
C 	C 	0.53570 0.22320 0.70540 -0.07800
C 	C 	0.49610 0.30660 0.70120 -0.06400
C 	C 	0.47860 0.34760 0.69520 0.20000
C 	C 	0.42035 0.42035 0.11130 0.19900
C 	C 	0.47910 0.47910 0.99040 0.11900
C 	C 	0.50015 0.50015 0.93970 0.04500
C 	C 	0.53535 0.53535 0.85840 -0.07400
C 	C 	0.56020 0.56020 0.80620 0.37100
C 	C 	0.62790 0.62790 0.73930 0.21400
C 	C 	0.64830 0.64830 0.74410 -0.06400
C 	C 	0.68760 0.68760 0.74470 0.04300
C 	C 	0.71230 0.71230 0.74710 0.11100
C 	C 	0.55520 0.55520 0.71140 0.32800
C 	C 	0.53570 0.53570 0.70540 -0.07800
C 	C 	0.49610 0.49610 0.70120 -0.06400
C 	C 	0.47860 0.47860 0.69520 0.20000
C 	C 	0.77175 0.70880 0.74770 0.23200
C 	C 	0.77175 0.77175 0.74770 0.23200
C 	C 	0.70880 0.77175 0.74770 0.23200
C 	C 	0.41250 0.41250 0.69610 0.19100
C 	C 	0.47890 0.41250 0.69610 0.19100
C 	C 	0.41250 0.47890 0.69610 0.19100
N 	N 	0.12320 0.74850 0.31980 -0.15600
N 	N 	0.12500 0.68200 0.37800 -0.14800
N 	N 	0.05270 0.50310 0.06600 -0.15500
N 	N 	0.05070 0.44090 0.13020 -0.14100
N 	N 	0.05170 0.50130 0.00870 -0.15200
N 	N 	0.81090 0.68790 0.74770 -0.16400
N 	N 	0.12210 0.68420 0.44610 -0.12900
N 	N 	0.36960 0.43950 0.69760 -0.16600
N 	N 	0.80850 0.12320 0.31980 -0.15600
N 	N 	0.81500 0.12500 0.37800 -0.14800
N 	N 	0.37820 0.05270 0.06600 -0.15500
N 	N 	0.37820 0.05070 0.13020 -0.14100
N 	N 	0.43830 0.05170 0.00870 -0.15200
N 	N 	0.75350 0.81090 0.74770 -0.16400
N 	N 	0.74760 0.12210 0.44610 -0.12900
N 	N 	0.49330 0.36960 0.69760 -0.16600
N 	N 	0.74850 0.80850 0.31980 -0.15600
N 	N 	0.68200 0.81500 0.37800 -0.14800
N 	N 	0.50310 0.37820 0.06600 -0.15500
N 	N 	0.44090 0.37820 0.13020 -0.14100
N 	N 	0.50130 0.43830 0.00870 -0.15200
N 	N 	0.68790 0.75350 0.74770 -0.16400
N 	N 	0.68420 0.74760 0.44610 -0.12900
N 	N 	0.43950 0.49330 0.69760 -0.16600
N 	N 	0.12320 0.80850 0.31980 -0.15600
N 	N 	0.12500 0.81500 0.37800 -0.14800
N 	N 	0.05270 0.37820 0.06600 -0.15500
N 	N 	0.05070 0.37820 0.13020 -0.14100
N 	N 	0.05170 0.43830 0.00870 -0.15200
N 	N 	0.81090 0.75350 0.74770 -0.16400
N 	N 	0.12210 0.74760 0.44610 -0.12900
N 	N 	0.36960 0.49330 0.69760 -0.16600
N 	N 	0.80850 0.74850 0.31980 -0.15600
N 	N 	0.81500 0.68200 0.37800 -0.14800
N 	N 	0.37820 0.50310 0.06600 -0.15500
N 	N 	0.37820 0.44090 0.13020 -0.14100
N 	N 	0.43830 0.50130 0.00870 -0.15200
N 	N 	0.75350 0.68790 0.74770 -0.16400
N 	N 	0.74760 0.68420 0.44610 -0.12900
N 	N 	0.49330 0.43950 0.69760 -0.16600
N 	N 	0.74850 0.12320 0.31980 -0.15600
N 	N 	0.68200 0.12500 0.37800 -0.14800
N 	N 	0.50310 0.05270 0.06600 -0.15500
N 	N 	0.44090 0.05070 0.13020 -0.14100
N 	N 	0.50130 0.05170 0.00870 -0.15200
N 	N 	0.68790 0.81090 0.74770 -0.16400
N 	N 	0.68420 0.12210 0.44610 -0.12900
N 	N 	0.43950 0.36960 0.69760 -0.16600
N 	N 	0.11930 0.74790 0.38490 -0.17700
N 	N 	0.74790 0.11930 0.38490 -0.17700
N 	N 	0.74790 0.74790 0.38490 -0.17700
N 	N 	0.05170 0.44025 0.06780 -0.23200
N 	N 	0.44025 0.05170 0.06780 -0.23200
N 	N 	0.44025 0.44025 0.06780 -0.23200
N 	N 	0.75087 0.75087 0.74739 -0.22100
N 	N 	0.43503 0.43503 0.69491 -0.16800
O 	O 	0.10290 0.64780 0.22020 -0.43300
O 	O 	0.10296 0.58646 0.28152 -0.37800
O 	O 	0.08200 0.53710 0.22590 -0.42800
O 	O 	0.08070 0.59720 0.16770 -0.41200
O 	O 	0.07920 0.53730 0.78760 -0.40200
O 	O 	0.03480 0.58460 0.73360 -0.37600
O 	O 	0.10800 0.58490 0.65940 -0.34100
O 	O 	0.15330 0.53660 0.71620 -0.38300
O 	O 	0.02910 0.10290 0.22020 -0.43300
O 	O 	0.02906 0.10296 0.28152 -0.37800
O 	O 	0.15500 0.08200 0.22590 -0.42800
O 	O 	0.15440 0.08070 0.16770 -0.41200
O 	O 	0.59590 0.07920 0.78760 -0.40200
O 	O 	0.64700 0.03480 0.73360 -0.37600
O 	O 	0.64770 0.10800 0.65940 -0.34100
O 	O 	0.59390 0.15330 0.71620 -0.38300
O 	O 	0.64780 0.02910 0.22020 -0.43300
O 	O 	0.58646 0.02906 0.28152 -0.37800
O 	O 	0.53710 0.15500 0.22590 -0.42800
O 	O 	0.59720 0.15440 0.16770 -0.41200
O 	O 	0.53730 0.59590 0.78760 -0.40200
O 	O 	0.58460 0.64700 0.73360 -0.37600
O 	O 	0.58490 0.64770 0.65940 -0.34100
O 	O 	0.53660 0.59390 0.71620 -0.38300
O 	O 	0.10290 0.02910 0.22020 -0.43300
O 	O 	0.10296 0.02906 0.28152 -0.37800
O 	O 	0.08200 0.15500 0.22590 -0.42800
O 	O 	0.08070 0.15440 0.16770 -0.41200
O 	O 	0.07920 0.59590 0.78760 -0.40200
O 	O 	0.03480 0.64700 0.73360 -0.37600
O 	O 	0.10800 0.64770 0.65940 -0.34100
O 	O 	0.15330 0.59390 0.71620 -0.38300
O 	O 	0.02910 0.64780 0.22020 -0.43300
O 	O 	0.02906 0.58646 0.28152 -0.37800
O 	O 	0.15500 0.53710 0.22590 -0.42800
O 	O 	0.15440 0.59720 0.16770 -0.41200
O 	O 	0.59590 0.53730 0.78760 -0.40200
O 	O 	0.64700 0.58460 0.73360 -0.37600
O 	O 	0.64770 0.58490 0.65940 -0.34100
O 	O 	0.59390 0.53660 0.71620 -0.38300
O 	O 	0.64780 0.10290 0.22020 -0.43300
O 	O 	0.58646 0.10296 0.28152 -0.37800
O 	O 	0.53710 0.08200 0.22590 -0.42800
O 	O 	0.59720 0.08070 0.16770 -0.41200
O 	O 	0.53730 0.07920 0.78760 -0.40200
O 	O 	0.58460 0.03480 0.73360 -0.37600
O 	O 	0.58490 0.10800 0.65940 -0.34100
O 	O 	0.53660 0.15330 0.71620 -0.38300
