data_crystal

_cell_length_a 32.97660
_cell_length_b 32.97660
_cell_length_c 32.97660
_cell_angle_alpha 60.00000
_cell_angle_beta  60.00000
_cell_angle_gamma 60.00000

_symmetry_space_group_name_	'P 1'
_symmetry_space_group_name_H-M	'P 1'

loop_
_symmetry_equiv_pos_as_xyz
  x,y,z

loop_
_atom_site_label
_atom_site_type_symbol
_atom_site_fract_x
_atom_site_fract_y
_atom_site_fract_z
_atom_site_charge
Cu	Cu	0.95973 0.50000 0.04027 0.90100
Cu	Cu	0.50000 0.95973 0.50000 0.90100
Cu	Cu	0.04027 0.50000 0.95973 0.90100
Cu	Cu	0.50000 0.04027 0.50000 0.90100
Cu	Cu	0.95973 0.04027 0.50000 0.90100
Cu	Cu	0.50000 0.50000 0.04027 0.90100
Cu	Cu	0.04027 0.95973 0.50000 0.90000
Cu	Cu	0.50000 0.50000 0.95973 0.90000
Cu	Cu	0.95973 0.50000 0.50000 0.90000
Cu	Cu	0.50000 0.04027 0.95973 0.90000
Cu	Cu	0.04027 0.50000 0.50000 0.90000
Cu	Cu	0.50000 0.95973 0.04027 0.90000
H 	H 	0.12670 0.52390 0.00390 0.04100
H 	H 	0.16570 0.52770 0.04390 0.07000
H 	H 	0.52390 0.12670 0.34550 0.04100
H 	H 	0.52770 0.16570 0.26270 0.07000
H 	H 	0.00390 0.34550 0.12670 0.04100
H 	H 	0.04390 0.26270 0.16570 0.07000
H 	H 	0.34550 0.00390 0.52390 0.04100
H 	H 	0.26270 0.04390 0.52770 0.07000
H 	H 	0.12670 0.00390 0.34550 0.04100
H 	H 	0.16570 0.04390 0.26270 0.07000
H 	H 	0.52390 0.34550 0.00390 0.04100
H 	H 	0.52770 0.26270 0.04390 0.07000
H 	H 	0.00390 0.12670 0.52390 0.04100
H 	H 	0.04390 0.16570 0.52770 0.07000
H 	H 	0.34550 0.52390 0.12670 0.04100
H 	H 	0.26270 0.52770 0.16570 0.07000
H 	H 	0.12670 0.34550 0.52390 0.04100
H 	H 	0.16570 0.26270 0.52770 0.07000
H 	H 	0.52390 0.00390 0.12670 0.04100
H 	H 	0.52770 0.04390 0.16570 0.07000
H 	H 	0.00390 0.52390 0.34550 0.04100
H 	H 	0.04390 0.52770 0.26270 0.07000
H 	H 	0.34550 0.12670 0.00390 0.04100
H 	H 	0.26270 0.16570 0.04390 0.07000
H 	H 	0.47610 0.87330 0.99610 0.04100
H 	H 	0.47230 0.83430 0.95610 0.07000
H 	H 	0.87330 0.47610 0.65450 0.04100
H 	H 	0.83430 0.47230 0.73730 0.07000
H 	H 	0.65450 0.99610 0.87330 0.04100
H 	H 	0.73730 0.95610 0.83430 0.07000
H 	H 	0.99610 0.65450 0.47610 0.04100
H 	H 	0.95610 0.73730 0.47230 0.07000
H 	H 	0.99610 0.87330 0.65450 0.04100
H 	H 	0.95610 0.83430 0.73730 0.07000
H 	H 	0.65450 0.47610 0.99610 0.04100
H 	H 	0.73730 0.47230 0.95610 0.07000
H 	H 	0.87330 0.99610 0.47610 0.04100
H 	H 	0.83430 0.95610 0.47230 0.07000
H 	H 	0.47610 0.65450 0.87330 0.04100
H 	H 	0.47230 0.73730 0.83430 0.07000
H 	H 	0.65450 0.87330 0.47610 0.04100
H 	H 	0.73730 0.83430 0.47230 0.07000
H 	H 	0.99610 0.47610 0.87330 0.04100
H 	H 	0.95610 0.47230 0.83430 0.07000
H 	H 	0.47610 0.99610 0.65450 0.04100
H 	H 	0.47230 0.95610 0.73730 0.07000
H 	H 	0.87330 0.65450 0.99610 0.04100
H 	H 	0.83430 0.73730 0.95610 0.07000
H 	H 	0.87330 0.47610 0.99610 0.04100
H 	H 	0.83430 0.47230 0.95610 0.07000
H 	H 	0.47610 0.87330 0.65450 0.04100
H 	H 	0.47230 0.83430 0.73730 0.07000
H 	H 	0.99610 0.65450 0.87330 0.04100
H 	H 	0.95610 0.73730 0.83430 0.07000
H 	H 	0.65450 0.99610 0.47610 0.04100
H 	H 	0.73730 0.95610 0.47230 0.07000
H 	H 	0.87330 0.99610 0.65450 0.04100
H 	H 	0.83430 0.95610 0.73730 0.07000
H 	H 	0.47610 0.65450 0.99610 0.04100
H 	H 	0.47230 0.73730 0.95610 0.07000
H 	H 	0.99610 0.87330 0.47610 0.04100
H 	H 	0.95610 0.83430 0.47230 0.07000
H 	H 	0.65450 0.47610 0.87330 0.04100
H 	H 	0.73730 0.47230 0.83430 0.07000
H 	H 	0.87330 0.65450 0.47610 0.04100
H 	H 	0.83430 0.73730 0.47230 0.07000
H 	H 	0.47610 0.99610 0.87330 0.04100
H 	H 	0.47230 0.95610 0.83430 0.07000
H 	H 	0.99610 0.47610 0.65450 0.04100
H 	H 	0.95610 0.47230 0.73730 0.07000
H 	H 	0.65450 0.87330 0.99610 0.04100
H 	H 	0.73730 0.83430 0.95610 0.07000
H 	H 	0.52390 0.12670 0.00390 0.04100
H 	H 	0.52770 0.16570 0.04390 0.07000
H 	H 	0.12670 0.52390 0.34550 0.04100
H 	H 	0.16570 0.52770 0.26270 0.07000
H 	H 	0.34550 0.00390 0.12670 0.04100
H 	H 	0.26270 0.04390 0.16570 0.07000
H 	H 	0.00390 0.34550 0.52390 0.04100
H 	H 	0.04390 0.26270 0.52770 0.07000
H 	H 	0.00390 0.12670 0.34550 0.04100
H 	H 	0.04390 0.16570 0.26270 0.07000
H 	H 	0.34550 0.52390 0.00390 0.04100
H 	H 	0.26270 0.52770 0.04390 0.07000
H 	H 	0.12670 0.00390 0.52390 0.04100
H 	H 	0.16570 0.04390 0.52770 0.07000
H 	H 	0.52390 0.34550 0.12670 0.04100
H 	H 	0.52770 0.26270 0.16570 0.07000
H 	H 	0.34550 0.12670 0.52390 0.04100
H 	H 	0.26270 0.16570 0.52770 0.07000
H 	H 	0.00390 0.52390 0.12670 0.04100
H 	H 	0.04390 0.52770 0.16570 0.07000
H 	H 	0.52390 0.00390 0.34550 0.04100
H 	H 	0.52770 0.04390 0.26270 0.07000
H 	H 	0.12670 0.34550 0.00390 0.04100
H 	H 	0.16570 0.26270 0.04390 0.07000
C 	C 	0.11021 0.52363 0.03693 0.02300
C 	C 	0.13315 0.52671 0.06057 -0.08500
C 	C 	0.52363 0.11021 0.32923 0.02300
C 	C 	0.52671 0.13315 0.27957 -0.08500
C 	C 	0.03693 0.32923 0.11021 0.02200
C 	C 	0.06057 0.27957 0.13315 -0.08500
C 	C 	0.32923 0.03693 0.52363 0.02300
C 	C 	0.27957 0.06057 0.52671 -0.08500
C 	C 	0.11021 0.03693 0.32923 0.02200
C 	C 	0.13315 0.06057 0.27957 -0.08500
C 	C 	0.52363 0.32923 0.03693 0.02300
C 	C 	0.52671 0.27957 0.06057 -0.08500
C 	C 	0.03693 0.11021 0.52363 0.02300
C 	C 	0.06057 0.13315 0.52671 -0.08500
C 	C 	0.32923 0.52363 0.11021 0.02300
C 	C 	0.27957 0.52671 0.13315 -0.08500
C 	C 	0.11021 0.32923 0.52363 0.02300
C 	C 	0.13315 0.27957 0.52671 -0.08500
C 	C 	0.52363 0.03693 0.11021 0.02300
C 	C 	0.52671 0.06057 0.13315 -0.08500
C 	C 	0.03693 0.52363 0.32923 0.02300
C 	C 	0.06057 0.52671 0.27957 -0.08500
C 	C 	0.32923 0.11021 0.03693 0.02200
C 	C 	0.27957 0.13315 0.06057 -0.08500
C 	C 	0.47637 0.88979 0.96307 0.02300
C 	C 	0.47329 0.86685 0.93943 -0.08500
C 	C 	0.88979 0.47637 0.67077 0.02300
C 	C 	0.86685 0.47329 0.72043 -0.08500
C 	C 	0.67077 0.96307 0.88979 0.02200
C 	C 	0.72043 0.93943 0.86685 -0.08500
C 	C 	0.96307 0.67077 0.47637 0.02300
C 	C 	0.93943 0.72043 0.47329 -0.08500
C 	C 	0.96307 0.88979 0.67077 0.02200
C 	C 	0.93943 0.86685 0.72043 -0.08500
C 	C 	0.67077 0.47637 0.96307 0.02300
C 	C 	0.72043 0.47329 0.93943 -0.08500
C 	C 	0.88979 0.96307 0.47637 0.02300
C 	C 	0.86685 0.93943 0.47329 -0.08500
C 	C 	0.47637 0.67077 0.88979 0.02300
C 	C 	0.47329 0.72043 0.86685 -0.08500
C 	C 	0.67077 0.88979 0.47637 0.02300
C 	C 	0.72043 0.86685 0.47329 -0.08500
C 	C 	0.96307 0.47637 0.88979 0.02300
C 	C 	0.93943 0.47329 0.86685 -0.08500
C 	C 	0.47637 0.96307 0.67077 0.02300
C 	C 	0.47329 0.93943 0.72043 -0.08500
C 	C 	0.88979 0.67077 0.96307 0.02200
C 	C 	0.86685 0.72043 0.93943 -0.08500
C 	C 	0.88979 0.47637 0.96307 0.02300
C 	C 	0.86685 0.47329 0.93943 -0.08500
C 	C 	0.47637 0.88979 0.67077 0.02300
C 	C 	0.47329 0.86685 0.72043 -0.08500
C 	C 	0.96307 0.67077 0.88979 0.02200
C 	C 	0.93943 0.72043 0.86685 -0.08500
C 	C 	0.67077 0.96307 0.47637 0.02300
C 	C 	0.72043 0.93943 0.47329 -0.08500
C 	C 	0.88979 0.96307 0.67077 0.02200
C 	C 	0.86685 0.93943 0.72043 -0.08500
C 	C 	0.47637 0.67077 0.96307 0.02300
C 	C 	0.47329 0.72043 0.93943 -0.08500
C 	C 	0.96307 0.88979 0.47637 0.02300
C 	C 	0.93943 0.86685 0.47329 -0.08500
C 	C 	0.67077 0.47637 0.88979 0.02300
C 	C 	0.72043 0.47329 0.86685 -0.08500
C 	C 	0.88979 0.67077 0.47637 0.02300
C 	C 	0.86685 0.72043 0.47329 -0.08500
C 	C 	0.47637 0.96307 0.88979 0.02300
C 	C 	0.47329 0.93943 0.86685 -0.08500
C 	C 	0.96307 0.47637 0.67077 0.02300
C 	C 	0.93943 0.47329 0.72043 -0.08500
C 	C 	0.67077 0.88979 0.96307 0.02200
C 	C 	0.72043 0.86685 0.93943 -0.08500
C 	C 	0.52363 0.11021 0.03693 0.02300
C 	C 	0.52671 0.13315 0.06057 -0.08500
C 	C 	0.11021 0.52363 0.32923 0.02300
C 	C 	0.13315 0.52671 0.27957 -0.08500
C 	C 	0.32923 0.03693 0.11021 0.02200
C 	C 	0.27957 0.06057 0.13315 -0.08500
C 	C 	0.03693 0.32923 0.52363 0.02300
C 	C 	0.06057 0.27957 0.52671 -0.08500
C 	C 	0.03693 0.11021 0.32923 0.02200
C 	C 	0.06057 0.13315 0.27957 -0.08500
C 	C 	0.32923 0.52363 0.03693 0.02300
C 	C 	0.27957 0.52671 0.06057 -0.08500
C 	C 	0.11021 0.03693 0.52363 0.02300
C 	C 	0.13315 0.06057 0.52671 -0.08500
C 	C 	0.52363 0.32923 0.11021 0.02300
C 	C 	0.52671 0.27957 0.13315 -0.08500
C 	C 	0.32923 0.11021 0.52363 0.02300
C 	C 	0.27957 0.13315 0.52671 -0.08500
C 	C 	0.03693 0.52363 0.11021 0.02300
C 	C 	0.06057 0.52671 0.13315 -0.08500
C 	C 	0.52363 0.03693 0.32923 0.02300
C 	C 	0.52671 0.06057 0.27957 -0.08500
C 	C 	0.11021 0.32923 0.03693 0.02200
C 	C 	0.13315 0.27957 0.06057 -0.08500
C 	C 	0.03820 0.51314 0.03820 0.38200
C 	C 	0.06255 0.51997 0.06255 -0.09000
C 	C 	0.10834 0.52846 0.10834 0.03000
C 	C 	0.13362 0.53180 0.13362 0.11500
C 	C 	0.51314 0.03820 0.41046 0.38400
C 	C 	0.51997 0.06255 0.35493 -0.09000
C 	C 	0.52846 0.10834 0.25486 0.03100
C 	C 	0.53180 0.13362 0.20096 0.11400
C 	C 	0.03820 0.41046 0.03820 0.38100
C 	C 	0.06255 0.35493 0.06255 -0.09000
C 	C 	0.10834 0.25486 0.10834 0.03000
C 	C 	0.13362 0.20096 0.13362 0.11400
C 	C 	0.41046 0.03820 0.51314 0.38400
C 	C 	0.35493 0.06255 0.51997 -0.09000
C 	C 	0.25486 0.10834 0.52846 0.03100
C 	C 	0.20096 0.13362 0.53180 0.11400
C 	C 	0.03820 0.03820 0.41046 0.38100
C 	C 	0.06255 0.06255 0.35493 -0.09000
C 	C 	0.10834 0.10834 0.25486 0.03000
C 	C 	0.13362 0.13362 0.20096 0.11400
C 	C 	0.51314 0.41046 0.03820 0.38400
C 	C 	0.51997 0.35493 0.06255 -0.09000
C 	C 	0.52846 0.25486 0.10834 0.03100
C 	C 	0.53180 0.20096 0.13362 0.11400
C 	C 	0.03820 0.03820 0.51314 0.38200
C 	C 	0.06255 0.06255 0.51997 -0.09000
C 	C 	0.10834 0.10834 0.52846 0.03000
C 	C 	0.13362 0.13362 0.53180 0.11500
C 	C 	0.41046 0.51314 0.03820 0.38400
C 	C 	0.35493 0.51997 0.06255 -0.09000
C 	C 	0.25486 0.52846 0.10834 0.03100
C 	C 	0.20096 0.53180 0.13362 0.11400
C 	C 	0.03820 0.41046 0.51314 0.38400
C 	C 	0.06255 0.35493 0.51997 -0.09000
C 	C 	0.10834 0.25486 0.52846 0.03100
C 	C 	0.13362 0.20096 0.53180 0.11400
C 	C 	0.51314 0.03820 0.03820 0.38200
C 	C 	0.51997 0.06255 0.06255 -0.09000
C 	C 	0.52846 0.10834 0.10834 0.03000
C 	C 	0.53180 0.13362 0.13362 0.11500
C 	C 	0.03820 0.51314 0.41046 0.38400
C 	C 	0.06255 0.51997 0.35493 -0.09000
C 	C 	0.10834 0.52846 0.25486 0.03100
C 	C 	0.13362 0.53180 0.20096 0.11400
C 	C 	0.41046 0.03820 0.03820 0.38100
C 	C 	0.35493 0.06255 0.06255 -0.09000
C 	C 	0.25486 0.10834 0.10834 0.03000
C 	C 	0.20096 0.13362 0.13362 0.11400
C 	C 	0.48686 0.96180 0.96180 0.38200
C 	C 	0.48003 0.93745 0.93745 -0.09000
C 	C 	0.47154 0.89166 0.89166 0.03000
C 	C 	0.46820 0.86638 0.86638 0.11500
C 	C 	0.96180 0.48686 0.58954 0.38400
C 	C 	0.93745 0.48003 0.64507 -0.09000
C 	C 	0.89166 0.47154 0.74514 0.03100
C 	C 	0.86638 0.46820 0.79904 0.11400
C 	C 	0.58954 0.96180 0.96180 0.38100
C 	C 	0.64507 0.93745 0.93745 -0.09000
C 	C 	0.74514 0.89166 0.89166 0.03000
C 	C 	0.79904 0.86638 0.86638 0.11400
C 	C 	0.96180 0.58954 0.48686 0.38400
C 	C 	0.93745 0.64507 0.48003 -0.09000
C 	C 	0.89166 0.74514 0.47154 0.03100
C 	C 	0.86638 0.79904 0.46820 0.11400
C 	C 	0.96180 0.96180 0.58954 0.38100
C 	C 	0.93745 0.93745 0.64507 -0.09000
C 	C 	0.89166 0.89166 0.74514 0.03000
C 	C 	0.86638 0.86638 0.79904 0.11400
C 	C 	0.58954 0.48686 0.96180 0.38400
C 	C 	0.64507 0.48003 0.93745 -0.09000
C 	C 	0.74514 0.47154 0.89166 0.03100
C 	C 	0.79904 0.46820 0.86638 0.11400
C 	C 	0.96180 0.96180 0.48686 0.38200
C 	C 	0.93745 0.93745 0.48003 -0.09000
C 	C 	0.89166 0.89166 0.47154 0.03000
C 	C 	0.86638 0.86638 0.46820 0.11500
C 	C 	0.48686 0.58954 0.96180 0.38400
C 	C 	0.48003 0.64507 0.93745 -0.09000
C 	C 	0.47154 0.74514 0.89166 0.03100
C 	C 	0.46820 0.79904 0.86638 0.11400
C 	C 	0.58954 0.96180 0.48686 0.38400
C 	C 	0.64507 0.93745 0.48003 -0.09000
C 	C 	0.74514 0.89166 0.47154 0.03100
C 	C 	0.79904 0.86638 0.46820 0.11400
C 	C 	0.96180 0.48686 0.96180 0.38200
C 	C 	0.93745 0.48003 0.93745 -0.09000
C 	C 	0.89166 0.47154 0.89166 0.03000
C 	C 	0.86638 0.46820 0.86638 0.11500
C 	C 	0.48686 0.96180 0.58954 0.38400
C 	C 	0.48003 0.93745 0.64507 -0.09000
C 	C 	0.47154 0.89166 0.74514 0.03100
C 	C 	0.46820 0.86638 0.79904 0.11400
C 	C 	0.96180 0.58954 0.96180 0.38100
C 	C 	0.93745 0.64507 0.93745 -0.09000
C 	C 	0.89166 0.74514 0.89166 0.03000
C 	C 	0.86638 0.79904 0.86638 0.11400
N 	N 	0.18000 0.53144 0.10856 -0.14500
N 	N 	0.53144 0.18000 0.18000 -0.14500
N 	N 	0.10856 0.18000 0.18000 -0.14600
N 	N 	0.18000 0.10856 0.53144 -0.14500
N 	N 	0.18000 0.10856 0.18000 -0.14600
N 	N 	0.53144 0.18000 0.10856 -0.14500
N 	N 	0.10856 0.18000 0.53144 -0.14500
N 	N 	0.18000 0.53144 0.18000 -0.14500
N 	N 	0.18000 0.18000 0.53144 -0.14500
N 	N 	0.53144 0.10856 0.18000 -0.14500
N 	N 	0.10856 0.53144 0.18000 -0.14500
N 	N 	0.18000 0.18000 0.10856 -0.14600
N 	N 	0.46856 0.82000 0.89144 -0.14500
N 	N 	0.82000 0.46856 0.82000 -0.14500
N 	N 	0.82000 0.89144 0.82000 -0.14600
N 	N 	0.89144 0.82000 0.46856 -0.14500
N 	N 	0.89144 0.82000 0.82000 -0.14600
N 	N 	0.82000 0.46856 0.89144 -0.14500
N 	N 	0.82000 0.89144 0.46856 -0.14500
N 	N 	0.46856 0.82000 0.82000 -0.14500
N 	N 	0.82000 0.82000 0.46856 -0.14500
N 	N 	0.89144 0.46856 0.82000 -0.14500
N 	N 	0.46856 0.89144 0.82000 -0.14500
N 	N 	0.82000 0.82000 0.89144 -0.14600
O 	O 	0.99556 0.51294 0.06358 -0.41900
O 	O 	0.51294 0.99556 0.42792 -0.42100
O 	O 	0.06358 0.42792 0.99556 -0.41900
O 	O 	0.42792 0.06358 0.51294 -0.42100
O 	O 	0.99556 0.06358 0.42792 -0.41900
O 	O 	0.51294 0.42792 0.06358 -0.42100
O 	O 	0.06358 0.99556 0.51294 -0.41900
O 	O 	0.42792 0.51294 0.99556 -0.42100
O 	O 	0.99556 0.42792 0.51294 -0.42100
O 	O 	0.51294 0.06358 0.99556 -0.41900
O 	O 	0.06358 0.51294 0.42792 -0.42100
O 	O 	0.42792 0.99556 0.06358 -0.41900
O 	O 	0.48706 0.00444 0.93642 -0.41900
O 	O 	0.00444 0.48706 0.57208 -0.42100
O 	O 	0.57208 0.93642 0.00444 -0.41900
O 	O 	0.93642 0.57208 0.48706 -0.42100
O 	O 	0.93642 0.00444 0.57208 -0.41900
O 	O 	0.57208 0.48706 0.93642 -0.42100
O 	O 	0.00444 0.93642 0.48706 -0.41900
O 	O 	0.48706 0.57208 0.00444 -0.42100
O 	O 	0.57208 0.00444 0.48706 -0.42100
O 	O 	0.93642 0.48706 0.00444 -0.41900
O 	O 	0.48706 0.93642 0.57208 -0.42100
O 	O 	0.00444 0.57208 0.93642 -0.41900
O 	O 	0.00444 0.48706 0.93642 -0.41900
O 	O 	0.48706 0.00444 0.57208 -0.42100
O 	O 	0.93642 0.57208 0.00444 -0.41900
O 	O 	0.57208 0.93642 0.48706 -0.42100
O 	O 	0.00444 0.93642 0.57208 -0.41900
O 	O 	0.48706 0.57208 0.93642 -0.42100
O 	O 	0.93642 0.00444 0.48706 -0.41900
O 	O 	0.57208 0.48706 0.00444 -0.42100
O 	O 	0.00444 0.57208 0.48706 -0.42100
O 	O 	0.48706 0.93642 0.00444 -0.41900
O 	O 	0.93642 0.48706 0.57208 -0.42100
O 	O 	0.57208 0.00444 0.93642 -0.41900
O 	O 	0.51294 0.99556 0.06358 -0.41900
O 	O 	0.99556 0.51294 0.42792 -0.42100
O 	O 	0.42792 0.06358 0.99556 -0.41900
O 	O 	0.06358 0.42792 0.51294 -0.42100
O 	O 	0.06358 0.99556 0.42792 -0.41900
O 	O 	0.42792 0.51294 0.06358 -0.42100
O 	O 	0.99556 0.06358 0.51294 -0.41900
O 	O 	0.51294 0.42792 0.99556 -0.42100
O 	O 	0.42792 0.99556 0.51294 -0.42100
O 	O 	0.06358 0.51294 0.99556 -0.41900
O 	O 	0.51294 0.06358 0.42792 -0.42100
O 	O 	0.99556 0.42792 0.06358 -0.41900
