data_crystal

_cell_length_a 37.47170
_cell_length_b 37.47170
_cell_length_c 37.47170
_cell_angle_alpha 60.00000
_cell_angle_beta  60.00000
_cell_angle_gamma 60.00000

_symmetry_space_group_name_	'P 1'
_symmetry_space_group_name_H-M	'P 1'

loop_
_symmetry_equiv_pos_as_xyz
  x,y,z

loop_
_atom_site_label
_atom_site_type_symbol
_atom_site_fract_x
_atom_site_fract_y
_atom_site_fract_z
_atom_site_charge
Cu	Cu	0.50000 0.03549 0.96451 0.90300
Cu	Cu	0.03549 0.50000 0.50000 0.90300
Cu	Cu	0.96451 0.50000 0.50000 0.90300
Cu	Cu	0.50000 0.96451 0.03549 0.90300
Cu	Cu	0.50000 0.96451 0.50000 0.90300
Cu	Cu	0.03549 0.50000 0.96451 0.90300
Cu	Cu	0.96451 0.50000 0.03549 0.90300
Cu	Cu	0.50000 0.03549 0.50000 0.90300
Cu	Cu	0.50000 0.50000 0.03549 0.90300
Cu	Cu	0.03549 0.96451 0.50000 0.90300
Cu	Cu	0.96451 0.03549 0.50000 0.90300
Cu	Cu	0.50000 0.50000 0.96451 0.90300
H 	H 	0.47750 0.99510 0.89070 0.03400
H 	H 	0.47230 0.96290 0.85550 0.08400
H 	H 	0.99510 0.47750 0.63670 0.03400
H 	H 	0.96290 0.47230 0.70930 0.08400
H 	H 	0.89070 0.63670 0.47750 0.03400
H 	H 	0.85550 0.70930 0.47230 0.08400
H 	H 	0.63670 0.89070 0.99510 0.03400
H 	H 	0.70930 0.85550 0.96290 0.08400
H 	H 	0.47750 0.89070 0.63670 0.03400
H 	H 	0.47230 0.85550 0.70930 0.08400
H 	H 	0.99510 0.63670 0.89070 0.03400
H 	H 	0.96290 0.70930 0.85550 0.08400
H 	H 	0.89070 0.47750 0.99510 0.03400
H 	H 	0.85550 0.47230 0.96290 0.08400
H 	H 	0.63670 0.99510 0.47750 0.03400
H 	H 	0.70930 0.96290 0.47230 0.08400
H 	H 	0.47750 0.63670 0.99510 0.03400
H 	H 	0.47230 0.70930 0.96290 0.08400
H 	H 	0.99510 0.89070 0.47750 0.03400
H 	H 	0.96290 0.85550 0.47230 0.08400
H 	H 	0.89070 0.99510 0.63670 0.03400
H 	H 	0.85550 0.96290 0.70930 0.08400
H 	H 	0.63670 0.47750 0.89070 0.03400
H 	H 	0.70930 0.47230 0.85550 0.08400
H 	H 	0.00490 0.52250 0.10930 0.03400
H 	H 	0.03710 0.52770 0.14450 0.08400
H 	H 	0.52250 0.00490 0.36330 0.03400
H 	H 	0.52770 0.03710 0.29070 0.08400
H 	H 	0.36330 0.10930 0.52250 0.03400
H 	H 	0.29070 0.14450 0.52770 0.08400
H 	H 	0.10930 0.36330 0.00490 0.03400
H 	H 	0.14450 0.29070 0.03710 0.08400
H 	H 	0.10930 0.52250 0.36330 0.03400
H 	H 	0.14450 0.52770 0.29070 0.08400
H 	H 	0.36330 0.00490 0.10930 0.03400
H 	H 	0.29070 0.03710 0.14450 0.08400
H 	H 	0.52250 0.10930 0.00490 0.03400
H 	H 	0.52770 0.14450 0.03710 0.08400
H 	H 	0.00490 0.36330 0.52250 0.03400
H 	H 	0.03710 0.29070 0.52770 0.08400
H 	H 	0.36330 0.52250 0.00490 0.03400
H 	H 	0.29070 0.52770 0.03710 0.08400
H 	H 	0.10930 0.00490 0.52250 0.03400
H 	H 	0.14450 0.03710 0.52770 0.08400
H 	H 	0.00490 0.10930 0.36330 0.03400
H 	H 	0.03710 0.14450 0.29070 0.08400
H 	H 	0.52250 0.36330 0.10930 0.03400
H 	H 	0.52770 0.29070 0.14450 0.08400
H 	H 	0.52250 0.00490 0.10930 0.03400
H 	H 	0.52770 0.03710 0.14450 0.08400
H 	H 	0.00490 0.52250 0.36330 0.03400
H 	H 	0.03710 0.52770 0.29070 0.08400
H 	H 	0.10930 0.36330 0.52250 0.03400
H 	H 	0.14450 0.29070 0.52770 0.08400
H 	H 	0.36330 0.10930 0.00490 0.03400
H 	H 	0.29070 0.14450 0.03710 0.08400
H 	H 	0.52250 0.10930 0.36330 0.03400
H 	H 	0.52770 0.14450 0.29070 0.08400
H 	H 	0.00490 0.36330 0.10930 0.03400
H 	H 	0.03710 0.29070 0.14450 0.08400
H 	H 	0.10930 0.52250 0.00490 0.03400
H 	H 	0.14450 0.52770 0.03710 0.08400
H 	H 	0.36330 0.00490 0.52250 0.03400
H 	H 	0.29070 0.03710 0.52770 0.08400
H 	H 	0.52250 0.36330 0.00490 0.03400
H 	H 	0.52770 0.29070 0.03710 0.08400
H 	H 	0.00490 0.10930 0.52250 0.03400
H 	H 	0.03710 0.14450 0.52770 0.08400
H 	H 	0.10930 0.00490 0.36330 0.03400
H 	H 	0.14450 0.03710 0.29070 0.08400
H 	H 	0.36330 0.52250 0.10930 0.03400
H 	H 	0.29070 0.52770 0.14450 0.08400
H 	H 	0.99510 0.47750 0.89070 0.03400
H 	H 	0.96290 0.47230 0.85550 0.08400
H 	H 	0.47750 0.99510 0.63670 0.03400
H 	H 	0.47230 0.96290 0.70930 0.08400
H 	H 	0.63670 0.89070 0.47750 0.03400
H 	H 	0.70930 0.85550 0.47230 0.08400
H 	H 	0.89070 0.63670 0.99510 0.03400
H 	H 	0.85550 0.70930 0.96290 0.08400
H 	H 	0.89070 0.47750 0.63670 0.03400
H 	H 	0.85550 0.47230 0.70930 0.08400
H 	H 	0.63670 0.99510 0.89070 0.03400
H 	H 	0.70930 0.96290 0.85550 0.08400
H 	H 	0.47750 0.89070 0.99510 0.03400
H 	H 	0.47230 0.85550 0.96290 0.08400
H 	H 	0.99510 0.63670 0.47750 0.03400
H 	H 	0.96290 0.70930 0.47230 0.08400
H 	H 	0.63670 0.47750 0.99510 0.03400
H 	H 	0.70930 0.47230 0.96290 0.08400
H 	H 	0.89070 0.99510 0.47750 0.03400
H 	H 	0.85550 0.96290 0.47230 0.08400
H 	H 	0.99510 0.89070 0.63670 0.03400
H 	H 	0.96290 0.85550 0.70930 0.08400
H 	H 	0.47750 0.63670 0.89070 0.03400
H 	H 	0.47230 0.70930 0.85550 0.08400
C 	C 	0.47690 0.96670 0.90500 0.04800
C 	C 	0.47327 0.94779 0.88379 -0.10600
C 	C 	0.96670 0.47690 0.65140 0.04900
C 	C 	0.94779 0.47327 0.69515 -0.10600
C 	C 	0.90500 0.65140 0.47690 0.04900
C 	C 	0.88379 0.69515 0.47327 -0.10600
C 	C 	0.65140 0.90500 0.96670 0.04800
C 	C 	0.69515 0.88379 0.94779 -0.10600
C 	C 	0.47690 0.90500 0.65140 0.04900
C 	C 	0.47327 0.88379 0.69515 -0.10600
C 	C 	0.96670 0.65140 0.90500 0.04800
C 	C 	0.94779 0.69515 0.88379 -0.10600
C 	C 	0.90500 0.47690 0.96670 0.04800
C 	C 	0.88379 0.47327 0.94779 -0.10600
C 	C 	0.65140 0.96670 0.47690 0.04900
C 	C 	0.69515 0.94779 0.47327 -0.10600
C 	C 	0.47690 0.65140 0.96670 0.04900
C 	C 	0.47327 0.69515 0.94779 -0.10600
C 	C 	0.96670 0.90500 0.47690 0.04800
C 	C 	0.94779 0.88379 0.47327 -0.10600
C 	C 	0.90500 0.96670 0.65140 0.04800
C 	C 	0.88379 0.94779 0.69515 -0.10600
C 	C 	0.65140 0.47690 0.90500 0.04900
C 	C 	0.69515 0.47327 0.88379 -0.10600
C 	C 	0.03330 0.52310 0.09500 0.04800
C 	C 	0.05221 0.52673 0.11621 -0.10600
C 	C 	0.52310 0.03330 0.34860 0.04900
C 	C 	0.52673 0.05221 0.30485 -0.10600
C 	C 	0.34860 0.09500 0.52310 0.04900
C 	C 	0.30485 0.11621 0.52673 -0.10600
C 	C 	0.09500 0.34860 0.03330 0.04800
C 	C 	0.11621 0.30485 0.05221 -0.10600
C 	C 	0.09500 0.52310 0.34860 0.04900
C 	C 	0.11621 0.52673 0.30485 -0.10600
C 	C 	0.34860 0.03330 0.09500 0.04800
C 	C 	0.30485 0.05221 0.11621 -0.10600
C 	C 	0.52310 0.09500 0.03330 0.04800
C 	C 	0.52673 0.11621 0.05221 -0.10600
C 	C 	0.03330 0.34860 0.52310 0.04900
C 	C 	0.05221 0.30485 0.52673 -0.10600
C 	C 	0.34860 0.52310 0.03330 0.04900
C 	C 	0.30485 0.52673 0.05221 -0.10600
C 	C 	0.09500 0.03330 0.52310 0.04800
C 	C 	0.11621 0.05221 0.52673 -0.10600
C 	C 	0.03330 0.09500 0.34860 0.04800
C 	C 	0.05221 0.11621 0.30485 -0.10600
C 	C 	0.52310 0.34860 0.09500 0.04900
C 	C 	0.52673 0.30485 0.11621 -0.10600
C 	C 	0.52310 0.03330 0.09500 0.04800
C 	C 	0.52673 0.05221 0.11621 -0.10600
C 	C 	0.03330 0.52310 0.34860 0.04900
C 	C 	0.05221 0.52673 0.30485 -0.10600
C 	C 	0.09500 0.34860 0.52310 0.04900
C 	C 	0.11621 0.30485 0.52673 -0.10600
C 	C 	0.34860 0.09500 0.03330 0.04800
C 	C 	0.30485 0.11621 0.05221 -0.10600
C 	C 	0.52310 0.09500 0.34860 0.04900
C 	C 	0.52673 0.11621 0.30485 -0.10600
C 	C 	0.03330 0.34860 0.09500 0.04800
C 	C 	0.05221 0.30485 0.11621 -0.10600
C 	C 	0.09500 0.52310 0.03330 0.04800
C 	C 	0.11621 0.52673 0.05221 -0.10600
C 	C 	0.34860 0.03330 0.52310 0.04900
C 	C 	0.30485 0.05221 0.52673 -0.10600
C 	C 	0.52310 0.34860 0.03330 0.04900
C 	C 	0.52673 0.30485 0.05221 -0.10600
C 	C 	0.03330 0.09500 0.52310 0.04800
C 	C 	0.05221 0.11621 0.52673 -0.10600
C 	C 	0.09500 0.03330 0.34860 0.04800
C 	C 	0.11621 0.05221 0.30485 -0.10600
C 	C 	0.34860 0.52310 0.09500 0.04900
C 	C 	0.30485 0.52673 0.11621 -0.10600
C 	C 	0.96670 0.47690 0.90500 0.04800
C 	C 	0.94779 0.47327 0.88379 -0.10600
C 	C 	0.47690 0.96670 0.65140 0.04900
C 	C 	0.47327 0.94779 0.69515 -0.10600
C 	C 	0.65140 0.90500 0.47690 0.04900
C 	C 	0.69515 0.88379 0.47327 -0.10600
C 	C 	0.90500 0.65140 0.96670 0.04800
C 	C 	0.88379 0.69515 0.94779 -0.10600
C 	C 	0.90500 0.47690 0.65140 0.04900
C 	C 	0.88379 0.47327 0.69515 -0.10600
C 	C 	0.65140 0.96670 0.90500 0.04800
C 	C 	0.69515 0.94779 0.88379 -0.10600
C 	C 	0.47690 0.90500 0.96670 0.04800
C 	C 	0.47327 0.88379 0.94779 -0.10600
C 	C 	0.96670 0.65140 0.47690 0.04900
C 	C 	0.94779 0.69515 0.47327 -0.10600
C 	C 	0.65140 0.47690 0.96670 0.04900
C 	C 	0.69515 0.47327 0.94779 -0.10600
C 	C 	0.90500 0.96670 0.47690 0.04800
C 	C 	0.88379 0.94779 0.47327 -0.10600
C 	C 	0.96670 0.90500 0.65140 0.04800
C 	C 	0.94779 0.88379 0.69515 -0.10600
C 	C 	0.47690 0.65140 0.90500 0.04900
C 	C 	0.47327 0.69515 0.88379 -0.10600
C 	C 	0.48708 0.96664 0.96664 0.39800
C 	C 	0.47951 0.94549 0.94549 -0.11300
C 	C 	0.47100 0.90574 0.90574 0.04600
C 	C 	0.46708 0.88498 0.88498 0.10800
C 	C 	0.96664 0.48708 0.57964 0.39900
C 	C 	0.94549 0.47951 0.62951 -0.11300
C 	C 	0.90574 0.47100 0.71752 0.04600
C 	C 	0.88498 0.46708 0.76296 0.10800
C 	C 	0.96664 0.57964 0.48708 0.39900
C 	C 	0.94549 0.62951 0.47951 -0.11300
C 	C 	0.90574 0.71752 0.47100 0.04600
C 	C 	0.88498 0.76296 0.46708 0.10800
C 	C 	0.57964 0.96664 0.96664 0.39800
C 	C 	0.62951 0.94549 0.94549 -0.11300
C 	C 	0.71752 0.90574 0.90574 0.04600
C 	C 	0.76296 0.88498 0.88498 0.10800
C 	C 	0.48708 0.96664 0.57964 0.39900
C 	C 	0.47951 0.94549 0.62951 -0.11300
C 	C 	0.47100 0.90574 0.71752 0.04600
C 	C 	0.46708 0.88498 0.76296 0.10800
C 	C 	0.96664 0.57964 0.96664 0.39800
C 	C 	0.94549 0.62951 0.94549 -0.11300
C 	C 	0.90574 0.71752 0.90574 0.04600
C 	C 	0.88498 0.76296 0.88498 0.10800
C 	C 	0.96664 0.48708 0.96664 0.39800
C 	C 	0.94549 0.47951 0.94549 -0.11300
C 	C 	0.90574 0.47100 0.90574 0.04600
C 	C 	0.88498 0.46708 0.88498 0.10800
C 	C 	0.57964 0.96664 0.48708 0.39900
C 	C 	0.62951 0.94549 0.47951 -0.11300
C 	C 	0.71752 0.90574 0.47100 0.04600
C 	C 	0.76296 0.88498 0.46708 0.10800
C 	C 	0.48708 0.57964 0.96664 0.39900
C 	C 	0.47951 0.62951 0.94549 -0.11300
C 	C 	0.47100 0.71752 0.90574 0.04600
C 	C 	0.46708 0.76296 0.88498 0.10800
C 	C 	0.96664 0.96664 0.48708 0.39800
C 	C 	0.94549 0.94549 0.47951 -0.11300
C 	C 	0.90574 0.90574 0.47100 0.04600
C 	C 	0.88498 0.88498 0.46708 0.10800
C 	C 	0.96664 0.96664 0.57964 0.39800
C 	C 	0.94549 0.94549 0.62951 -0.11300
C 	C 	0.90574 0.90574 0.71752 0.04600
C 	C 	0.88498 0.88498 0.76296 0.10800
C 	C 	0.57964 0.48708 0.96664 0.39900
C 	C 	0.62951 0.47951 0.94549 -0.11300
C 	C 	0.71752 0.47100 0.90574 0.04600
C 	C 	0.76296 0.46708 0.88498 0.10800
C 	C 	0.03336 0.51292 0.03336 0.39800
C 	C 	0.05451 0.52049 0.05451 -0.11300
C 	C 	0.09426 0.52900 0.09426 0.04600
C 	C 	0.11502 0.53292 0.11502 0.10800
C 	C 	0.51292 0.03336 0.42036 0.39900
C 	C 	0.52049 0.05451 0.37049 -0.11300
C 	C 	0.52900 0.09426 0.28248 0.04600
C 	C 	0.53292 0.11502 0.23704 0.10800
C 	C 	0.42036 0.03336 0.51292 0.39900
C 	C 	0.37049 0.05451 0.52049 -0.11300
C 	C 	0.28248 0.09426 0.52900 0.04600
C 	C 	0.23704 0.11502 0.53292 0.10800
C 	C 	0.03336 0.42036 0.03336 0.39800
C 	C 	0.05451 0.37049 0.05451 -0.11300
C 	C 	0.09426 0.28248 0.09426 0.04600
C 	C 	0.11502 0.23704 0.11502 0.10800
C 	C 	0.03336 0.51292 0.42036 0.39900
C 	C 	0.05451 0.52049 0.37049 -0.11300
C 	C 	0.09426 0.52900 0.28248 0.04600
C 	C 	0.11502 0.53292 0.23704 0.10800
C 	C 	0.42036 0.03336 0.03336 0.39800
C 	C 	0.37049 0.05451 0.05451 -0.11300
C 	C 	0.28248 0.09426 0.09426 0.04600
C 	C 	0.23704 0.11502 0.11502 0.10800
C 	C 	0.51292 0.03336 0.03336 0.39800
C 	C 	0.52049 0.05451 0.05451 -0.11300
C 	C 	0.52900 0.09426 0.09426 0.04600
C 	C 	0.53292 0.11502 0.11502 0.10800
C 	C 	0.03336 0.42036 0.51292 0.39900
C 	C 	0.05451 0.37049 0.52049 -0.11300
C 	C 	0.09426 0.28248 0.52900 0.04600
C 	C 	0.11502 0.23704 0.53292 0.10800
C 	C 	0.42036 0.51292 0.03336 0.39900
C 	C 	0.37049 0.52049 0.05451 -0.11300
C 	C 	0.28248 0.52900 0.09426 0.04600
C 	C 	0.23704 0.53292 0.11502 0.10800
C 	C 	0.03336 0.03336 0.51292 0.39800
C 	C 	0.05451 0.05451 0.52049 -0.11300
C 	C 	0.09426 0.09426 0.52900 0.04600
C 	C 	0.11502 0.11502 0.53292 0.10800
C 	C 	0.03336 0.03336 0.42036 0.39800
C 	C 	0.05451 0.05451 0.37049 -0.11300
C 	C 	0.09426 0.09426 0.28248 0.04600
C 	C 	0.11502 0.11502 0.23704 0.10800
C 	C 	0.51292 0.42036 0.03336 0.39900
C 	C 	0.52049 0.37049 0.05451 -0.11300
C 	C 	0.52900 0.28248 0.09426 0.04600
C 	C 	0.53292 0.23704 0.11502 0.10800
C 	C 	0.46631 0.82307 0.88755 0.19800
C 	C 	0.82307 0.46631 0.82307 0.19800
C 	C 	0.88755 0.82307 0.46631 0.19800
C 	C 	0.82307 0.88755 0.82307 0.19800
C 	C 	0.46631 0.88755 0.82307 0.19800
C 	C 	0.82307 0.82307 0.88755 0.19800
C 	C 	0.88755 0.46631 0.82307 0.19800
C 	C 	0.82307 0.82307 0.46631 0.19800
C 	C 	0.46631 0.82307 0.82307 0.19800
C 	C 	0.82307 0.88755 0.46631 0.19800
C 	C 	0.88755 0.82307 0.82307 0.19800
C 	C 	0.82307 0.46631 0.88755 0.19800
C 	C 	0.17693 0.53369 0.11245 0.19800
C 	C 	0.53369 0.17693 0.17693 0.19800
C 	C 	0.17693 0.11245 0.53369 0.19800
C 	C 	0.11245 0.17693 0.17693 0.19800
C 	C 	0.11245 0.53369 0.17693 0.19800
C 	C 	0.17693 0.17693 0.11245 0.19800
C 	C 	0.53369 0.11245 0.17693 0.19800
C 	C 	0.17693 0.17693 0.53369 0.19800
C 	C 	0.17693 0.53369 0.17693 0.19800
C 	C 	0.11245 0.17693 0.53369 0.19800
C 	C 	0.17693 0.11245 0.17693 0.19800
C 	C 	0.53369 0.17693 0.11245 0.19800
N 	N 	0.46741 0.84337 0.90743 -0.15000
N 	N 	0.84337 0.46741 0.78179 -0.15000
N 	N 	0.90743 0.78179 0.46741 -0.15000
N 	N 	0.78179 0.90743 0.84337 -0.15000
N 	N 	0.46741 0.90743 0.78179 -0.15000
N 	N 	0.84337 0.78179 0.90743 -0.15000
N 	N 	0.90743 0.46741 0.84337 -0.15000
N 	N 	0.78179 0.84337 0.46741 -0.15000
N 	N 	0.46741 0.78179 0.84337 -0.15000
N 	N 	0.84337 0.90743 0.46741 -0.15000
N 	N 	0.90743 0.84337 0.78179 -0.15000
N 	N 	0.78179 0.46741 0.90743 -0.15000
N 	N 	0.15663 0.53259 0.09257 -0.15000
N 	N 	0.53259 0.15663 0.21821 -0.15000
N 	N 	0.21821 0.09257 0.53259 -0.15000
N 	N 	0.09257 0.21821 0.15663 -0.15000
N 	N 	0.09257 0.53259 0.21821 -0.15000
N 	N 	0.21821 0.15663 0.09257 -0.15000
N 	N 	0.53259 0.09257 0.15663 -0.15000
N 	N 	0.15663 0.21821 0.53259 -0.15000
N 	N 	0.21821 0.53259 0.15663 -0.15000
N 	N 	0.09257 0.15663 0.53259 -0.15000
N 	N 	0.15663 0.09257 0.21821 -0.15000
N 	N 	0.53259 0.21821 0.09257 -0.15000
N 	N 	0.53259 0.15663 0.09257 -0.15000
N 	N 	0.15663 0.53259 0.21821 -0.15000
N 	N 	0.09257 0.21821 0.53259 -0.15000
N 	N 	0.21821 0.09257 0.15663 -0.15000
N 	N 	0.53259 0.09257 0.21821 -0.15000
N 	N 	0.15663 0.21821 0.09257 -0.15000
N 	N 	0.09257 0.53259 0.15663 -0.15000
N 	N 	0.21821 0.15663 0.53259 -0.15000
N 	N 	0.53259 0.21821 0.15663 -0.15000
N 	N 	0.15663 0.09257 0.53259 -0.15000
N 	N 	0.09257 0.15663 0.21821 -0.15000
N 	N 	0.21821 0.53259 0.09257 -0.15000
N 	N 	0.84337 0.46741 0.90743 -0.15000
N 	N 	0.46741 0.84337 0.78179 -0.15000
N 	N 	0.78179 0.90743 0.46741 -0.15000
N 	N 	0.90743 0.78179 0.84337 -0.15000
N 	N 	0.90743 0.46741 0.78179 -0.15000
N 	N 	0.78179 0.84337 0.90743 -0.15000
N 	N 	0.46741 0.90743 0.84337 -0.15000
N 	N 	0.84337 0.78179 0.46741 -0.15000
N 	N 	0.78179 0.46741 0.84337 -0.15000
N 	N 	0.90743 0.84337 0.46741 -0.15000
N 	N 	0.84337 0.90743 0.78179 -0.15000
N 	N 	0.46741 0.78179 0.90743 -0.15000
N 	N 	0.46566 0.84478 0.84478 -0.18900
N 	N 	0.84478 0.46566 0.84478 -0.18900
N 	N 	0.84478 0.84478 0.46566 -0.18900
N 	N 	0.84478 0.84478 0.84478 -0.18900
N 	N 	0.15522 0.53434 0.15522 -0.18900
N 	N 	0.53434 0.15522 0.15522 -0.18900
N 	N 	0.15522 0.15522 0.53434 -0.18900
N 	N 	0.15522 0.15522 0.15522 -0.18900
O 	O 	0.48883 0.00359 0.94438 -0.42300
O 	O 	0.00359 0.48883 0.56320 -0.42400
O 	O 	0.94438 0.56320 0.48883 -0.42400
O 	O 	0.56320 0.94438 0.00359 -0.42300
O 	O 	0.48883 0.94438 0.56320 -0.42400
O 	O 	0.00359 0.56320 0.94438 -0.42300
O 	O 	0.94438 0.48883 0.00359 -0.42300
O 	O 	0.56320 0.00359 0.48883 -0.42400
O 	O 	0.48883 0.56320 0.00359 -0.42400
O 	O 	0.00359 0.94438 0.48883 -0.42300
O 	O 	0.94438 0.00359 0.56320 -0.42300
O 	O 	0.56320 0.48883 0.94438 -0.42400
O 	O 	0.99641 0.51117 0.05562 -0.42300
O 	O 	0.51117 0.99641 0.43680 -0.42400
O 	O 	0.43680 0.05562 0.51117 -0.42400
O 	O 	0.05562 0.43680 0.99641 -0.42300
O 	O 	0.05562 0.51117 0.43680 -0.42400
O 	O 	0.43680 0.99641 0.05562 -0.42300
O 	O 	0.51117 0.05562 0.99641 -0.42300
O 	O 	0.99641 0.43680 0.51117 -0.42400
O 	O 	0.43680 0.51117 0.99641 -0.42400
O 	O 	0.05562 0.99641 0.51117 -0.42300
O 	O 	0.99641 0.05562 0.43680 -0.42300
O 	O 	0.51117 0.43680 0.05562 -0.42400
O 	O 	0.51117 0.99641 0.05562 -0.42300
O 	O 	0.99641 0.51117 0.43680 -0.42400
O 	O 	0.05562 0.43680 0.51117 -0.42400
O 	O 	0.43680 0.05562 0.99641 -0.42300
O 	O 	0.51117 0.05562 0.43680 -0.42400
O 	O 	0.99641 0.43680 0.05562 -0.42300
O 	O 	0.05562 0.51117 0.99641 -0.42300
O 	O 	0.43680 0.99641 0.51117 -0.42400
O 	O 	0.51117 0.43680 0.99641 -0.42400
O 	O 	0.99641 0.05562 0.51117 -0.42300
O 	O 	0.05562 0.99641 0.43680 -0.42300
O 	O 	0.43680 0.51117 0.05562 -0.42400
O 	O 	0.00359 0.48883 0.94438 -0.42300
O 	O 	0.48883 0.00359 0.56320 -0.42400
O 	O 	0.56320 0.94438 0.48883 -0.42400
O 	O 	0.94438 0.56320 0.00359 -0.42300
O 	O 	0.94438 0.48883 0.56320 -0.42400
O 	O 	0.56320 0.00359 0.94438 -0.42300
O 	O 	0.48883 0.94438 0.00359 -0.42300
O 	O 	0.00359 0.56320 0.48883 -0.42400
O 	O 	0.56320 0.48883 0.00359 -0.42400
O 	O 	0.94438 0.00359 0.48883 -0.42300
O 	O 	0.00359 0.94438 0.56320 -0.42300
O 	O 	0.48883 0.56320 0.94438 -0.42400
