data_crystal

_cell_length_a 11.07570
_cell_length_b 13.04330
_cell_length_c 25.70140
_cell_angle_alpha 90.00000
_cell_angle_beta  90.00000
_cell_angle_gamma 90.00000

_symmetry_space_group_name_	'P 1'
_symmetry_space_group_name_H-M	'P 1'

loop_
_symmetry_equiv_pos_as_xyz
  x,y,z

loop_
_atom_site_label
_atom_site_type_symbol
_atom_site_fract_x
_atom_site_fract_y
_atom_site_fract_z
_atom_site_charge
Gd	Gd	0.97942 0.65703 0.21878 1.56300
Gd	Gd	0.47942 0.84297 0.28122 1.56800
Gd	Gd	0.52058 0.65703 0.78122 1.57300
Gd	Gd	0.02058 0.84297 0.71878 1.54800
Gd	Gd	0.02058 0.34297 0.78122 1.56800
Gd	Gd	0.52058 0.15703 0.71878 1.57100
Gd	Gd	0.47942 0.34297 0.21878 1.56800
Gd	Gd	0.97942 0.15703 0.28122 1.54500
Gd	Gd	0.25000 0.49213 -0.00000 1.21300
Gd	Gd	0.75000 0.00787 0.50000 1.31300
Gd	Gd	0.75000 0.50787 -0.00000 1.20800
Gd	Gd	0.25000 0.99213 0.50000 1.31300
P 	P 	0.15275 0.81144 0.30396 0.45900
P 	P 	0.31099 0.70174 0.08165 0.41300
P 	P 	0.65275 0.68856 0.19604 0.45900
P 	P 	0.81099 0.79826 0.41835 0.41400
P 	P 	0.34725 0.81144 0.69604 0.45900
P 	P 	0.18901 0.70174 0.91835 0.41200
P 	P 	0.84725 0.68856 0.80396 0.45800
P 	P 	0.68901 0.79826 0.58165 0.41400
P 	P 	0.84725 0.18856 0.69604 0.46000
P 	P 	0.68901 0.29826 0.91835 0.41200
P 	P 	0.34725 0.31144 0.80396 0.45900
P 	P 	0.18901 0.20174 0.58165 0.41400
P 	P 	0.65275 0.18856 0.30396 0.45800
P 	P 	0.81099 0.29826 0.08165 0.41200
P 	P 	0.15275 0.31144 0.19604 0.45800
P 	P 	0.31099 0.20174 0.41835 0.41400
H 	H 	0.10060 0.89060 0.22460 0.02900
H 	H 	0.19520 0.00840 0.27490 0.28400
H 	H 	0.26260 0.57370 0.14150 0.06300
H 	H 	0.24800 0.68590 0.19230 0.27400
H 	H 	0.60060 0.60940 0.27540 0.02900
H 	H 	0.69520 0.49160 0.22510 0.28600
H 	H 	0.76260 0.92630 0.35850 0.06200
H 	H 	0.74800 0.81410 0.30770 0.27400
H 	H 	0.39940 0.89060 0.77540 0.03100
H 	H 	0.30480 0.00840 0.72510 0.28700
H 	H 	0.23740 0.57370 0.85850 0.06200
H 	H 	0.25200 0.68590 0.80770 0.27400
H 	H 	0.89940 0.60940 0.72460 0.02900
H 	H 	0.80480 0.49160 0.77490 0.28600
H 	H 	0.73740 0.92630 0.64150 0.06200
H 	H 	0.75200 0.81410 0.69230 0.27400
H 	H 	0.89940 0.10940 0.77540 0.03300
H 	H 	0.80480 0.99160 0.72510 0.28400
H 	H 	0.73740 0.42630 0.85850 0.06200
H 	H 	0.75200 0.31410 0.80770 0.27400
H 	H 	0.39940 0.39060 0.72460 0.02900
H 	H 	0.30480 0.50840 0.77490 0.28600
H 	H 	0.23740 0.07370 0.64150 0.06200
H 	H 	0.25200 0.18590 0.69230 0.27400
H 	H 	0.60060 0.10940 0.22460 0.02700
H 	H 	0.69520 0.99160 0.27490 0.28600
H 	H 	0.76260 0.42630 0.14150 0.06200
H 	H 	0.74800 0.31410 0.19230 0.27400
H 	H 	0.10060 0.39060 0.27540 0.02900
H 	H 	0.19520 0.50840 0.22510 0.28600
H 	H 	0.26260 0.07370 0.35850 0.06200
H 	H 	0.24800 0.18590 0.30770 0.27300
C 	C 	0.08180 0.90730 0.26170 -0.08600
C 	C 	0.94510 0.90170 0.26989 0.36300
C 	C 	0.21580 0.63480 0.12945 -0.09500
C 	C 	0.09890 0.59410 0.10480 0.40200
C 	C 	0.58180 0.59270 0.23830 -0.07900
C 	C 	0.44510 0.59830 0.23011 0.36200
C 	C 	0.71580 0.86520 0.37055 -0.09500
C 	C 	0.59890 0.90590 0.39520 0.40400
C 	C 	0.41820 0.90730 0.73830 -0.08100
C 	C 	0.55490 0.90170 0.73011 0.36300
C 	C 	0.28420 0.63480 0.87055 -0.08700
C 	C 	0.40110 0.59410 0.89520 0.39600
C 	C 	0.91820 0.59270 0.76170 -0.07300
C 	C 	0.05490 0.59830 0.76989 0.35500
C 	C 	0.78420 0.86520 0.62945 -0.09400
C 	C 	0.90110 0.90590 0.60480 0.40300
C 	C 	0.91820 0.09270 0.73830 -0.08800
C 	C 	0.05490 0.09830 0.73011 0.36500
C 	C 	0.78420 0.36520 0.87055 -0.08600
C 	C 	0.90110 0.40590 0.89520 0.39500
C 	C 	0.41820 0.40730 0.76170 -0.07900
C 	C 	0.55490 0.40170 0.76989 0.36100
C 	C 	0.28420 0.13480 0.62945 -0.09500
C 	C 	0.40110 0.09410 0.60480 0.40400
C 	C 	0.58180 0.09270 0.26170 -0.08000
C 	C 	0.44510 0.09830 0.26989 0.36100
C 	C 	0.71580 0.36520 0.12945 -0.09500
C 	C 	0.59890 0.40590 0.10480 0.40200
C 	C 	0.08180 0.40730 0.23830 -0.07300
C 	C 	0.94510 0.40170 0.23011 0.35500
C 	C 	0.21580 0.13480 0.37055 -0.09400
C 	C 	0.09890 0.09410 0.39520 0.40300
O 	O 	0.12150 0.70890 0.28085 -0.40000
O 	O 	0.09870 0.82760 0.35946 -0.21900
O 	O 	0.28330 0.83780 0.30722 -0.41800
O 	O 	0.12210 0.00860 0.27274 -0.47100
O 	O 	0.89730 0.81470 0.26448 -0.40600
O 	O 	0.88930 0.98270 0.28109 -0.38700
O 	O 	0.35810 0.61780 0.04621 -0.36200
O 	O 	0.23440 0.77950 0.05048 -0.21700
O 	O 	0.40800 0.75780 0.11241 -0.21000
O 	O 	0.18550 0.69270 0.17512 -0.45300
O 	O 	0.10440 0.55770 0.06039 -0.42000
O 	O 	0.00350 0.60110 0.13156 -0.40400
O 	O 	0.62150 0.79110 0.21915 -0.40300
O 	O 	0.59870 0.67240 0.14054 -0.22100
O 	O 	0.78330 0.66220 0.19278 -0.41800
O 	O 	0.62210 0.49140 0.22726 -0.48000
O 	O 	0.39730 0.68530 0.23552 -0.40600
O 	O 	0.38930 0.51730 0.21891 -0.38900
O 	O 	0.85810 0.88220 0.45379 -0.35400
O 	O 	0.73440 0.72050 0.44952 -0.19500
O 	O 	0.90800 0.74220 0.38759 -0.20400
O 	O 	0.68550 0.80730 0.32488 -0.45200
O 	O 	0.60440 0.94230 0.43961 -0.41800
O 	O 	0.50350 0.89890 0.36844 -0.40600
O 	O 	0.37850 0.70890 0.71915 -0.40200
O 	O 	0.40130 0.82760 0.64054 -0.21900
O 	O 	0.21670 0.83780 0.69278 -0.41700
O 	O 	0.37790 0.00860 0.72726 -0.47900
O 	O 	0.60270 0.81470 0.73552 -0.40500
O 	O 	0.61070 0.98270 0.71891 -0.38800
O 	O 	0.14190 0.61780 0.95379 -0.31400
O 	O 	0.26560 0.77950 0.94952 -0.16600
O 	O 	0.09200 0.75780 0.88759 -0.19800
O 	O 	0.31450 0.69270 0.82488 -0.45300
O 	O 	0.39560 0.55770 0.93961 -0.37600
O 	O 	0.49650 0.60110 0.86844 -0.39400
O 	O 	0.87850 0.79110 0.78085 -0.39400
O 	O 	0.90130 0.67240 0.85946 -0.20500
O 	O 	0.71670 0.66220 0.80722 -0.41400
O 	O 	0.87790 0.49140 0.77274 -0.48000
O 	O 	0.10270 0.68530 0.76448 -0.40500
O 	O 	0.11070 0.51730 0.78109 -0.38800
O 	O 	0.64190 0.88220 0.54621 -0.35400
O 	O 	0.76560 0.72050 0.55048 -0.19400
O 	O 	0.59200 0.74220 0.61241 -0.20400
O 	O 	0.81450 0.80730 0.67512 -0.44900
O 	O 	0.89560 0.94230 0.56039 -0.41600
O 	O 	0.99650 0.89890 0.63156 -0.39900
O 	O 	0.87850 0.29110 0.71915 -0.40100
O 	O 	0.90130 0.17240 0.64054 -0.22000
O 	O 	0.71670 0.16220 0.69278 -0.41800
O 	O 	0.87790 0.99140 0.72726 -0.47000
O 	O 	0.10270 0.18530 0.73552 -0.40600
O 	O 	0.11070 0.01730 0.71891 -0.38700
O 	O 	0.64190 0.38220 0.95379 -0.31100
O 	O 	0.76560 0.22050 0.94952 -0.16500
O 	O 	0.59200 0.24220 0.88759 -0.19400
O 	O 	0.81450 0.30730 0.82488 -0.45200
O 	O 	0.89560 0.44230 0.93961 -0.37400
O 	O 	0.99650 0.39890 0.86844 -0.39200
O 	O 	0.37850 0.20890 0.78085 -0.39900
O 	O 	0.40130 0.32760 0.85946 -0.20800
O 	O 	0.21670 0.33780 0.80722 -0.41400
O 	O 	0.37790 0.50860 0.77274 -0.48100
O 	O 	0.60270 0.31470 0.76448 -0.40600
O 	O 	0.61070 0.48270 0.78109 -0.38900
O 	O 	0.14190 0.11780 0.54621 -0.35400
O 	O 	0.26560 0.27950 0.55048 -0.19500
O 	O 	0.09200 0.25780 0.61241 -0.20400
O 	O 	0.31450 0.19270 0.67512 -0.45300
O 	O 	0.39560 0.05770 0.56039 -0.41800
O 	O 	0.49650 0.10110 0.63156 -0.40600
O 	O 	0.62150 0.29110 0.28085 -0.40100
O 	O 	0.59870 0.17240 0.35946 -0.21900
O 	O 	0.78330 0.16220 0.30722 -0.41700
O 	O 	0.62210 0.99140 0.27274 -0.48000
O 	O 	0.39730 0.18530 0.26448 -0.40600
O 	O 	0.38930 0.01730 0.28109 -0.38900
O 	O 	0.85810 0.38220 0.04621 -0.36300
O 	O 	0.73440 0.22050 0.05048 -0.21800
O 	O 	0.90800 0.24220 0.11241 -0.21300
O 	O 	0.68550 0.30730 0.17512 -0.45400
O 	O 	0.60440 0.44230 0.06039 -0.42100
O 	O 	0.50350 0.39890 0.13156 -0.40600
O 	O 	0.12150 0.20890 0.21915 -0.39700
O 	O 	0.09870 0.32760 0.14054 -0.21700
O 	O 	0.28330 0.33780 0.19278 -0.41800
O 	O 	0.12210 0.50860 0.22726 -0.47900
O 	O 	0.89730 0.31470 0.23552 -0.40500
O 	O 	0.88930 0.48270 0.21891 -0.38800
O 	O 	0.35810 0.11780 0.45379 -0.35400
O 	O 	0.23440 0.27950 0.44952 -0.19400
O 	O 	0.40800 0.25780 0.38759 -0.20400
O 	O 	0.18550 0.19270 0.32488 -0.44900
O 	O 	0.10440 0.05770 0.43961 -0.41600
O 	O 	0.00350 0.10110 0.36844 -0.39800
