data_crystal

_cell_length_a 49.34890
_cell_length_b 18.52800
_cell_length_c 18.47050
_cell_angle_alpha 90.00000
_cell_angle_beta  90.00000
_cell_angle_gamma 90.00000

_symmetry_space_group_name_	'P 1'
_symmetry_space_group_name_H-M	'P 1'

loop_
_symmetry_equiv_pos_as_xyz
  x,y,z

loop_
_atom_site_label
_atom_site_type_symbol
_atom_site_fract_x
_atom_site_fract_y
_atom_site_fract_z
_atom_site_charge
Eu	Eu	0.12131 0.58068 0.69833 2.10000
Eu	Eu	0.87778 0.60114 0.14371 2.04000
Eu	Eu	0.12434 0.47843 0.29880 1.94900
Co	Co	0.24658 0.61658 0.03495 1.14400
Co	Co	0.00235 0.75185 0.88617 1.16000
O 	O 	0.89987 0.71080 0.11630 -0.49300
O 	O 	0.91065 0.80820 0.05070 -0.28600
O 	O 	0.09297 0.49420 0.87040 -0.56400
O 	O 	0.08848 0.58940 0.79500 -0.51400
O 	O 	0.08689 0.41350 0.20690 -0.35700
O 	O 	0.07714 0.44620 0.31650 -0.42800
O 	O 	0.90346 0.08550 0.16360 -0.37600
O 	O 	0.90019 0.06780 0.28140 -0.36900
O 	O 	0.08693 0.75340 0.58610 -0.29400
O 	O 	0.08655 0.64680 0.64170 -0.51600
O 	O 	0.91399 0.62520 0.23790 -0.45400
O 	O 	0.90441 0.52510 0.29930 -0.52300
O 	O 	0.14782 0.43450 0.19340 -0.42500
O 	O 	0.15962 0.54480 0.22230 -0.37400
O 	O 	0.34731 0.44310 0.88100 -0.36200
O 	O 	0.33151 0.55070 0.85000 -0.41100
O 	O 	0.15441 0.48910 0.89990 -0.49300
O 	O 	0.14546 0.55780 0.80380 -0.57200
O 	O 	0.33889 0.80670 0.01140 -0.29600
O 	O 	0.33978 0.83120 0.89460 -0.48800
O 	O 	0.14615 0.40640 0.75370 -0.56100
O 	O 	0.15701 0.48850 0.66870 -0.46100
O 	O 	0.34621 0.14520 0.63500 -0.53200
O 	O 	0.34463 0.20990 0.53270 -0.28600
O 	O 	0.11545 0.53750 0.57070 -0.68900
H 	H 	0.10580 0.57550 0.56540 0.27300
H 	H 	0.13200 0.54990 0.56570 0.28400
O 	O 	0.11432 0.44440 0.42550 -0.45200
H 	H 	0.09860 0.43260 0.43980 0.27500
H 	H 	0.11600 0.43040 0.38190 -0.02800
N 	N 	0.97731 0.71000 0.96270 -0.24500
N 	N 	0.02292 0.66440 0.90840 -0.26500
N 	N 	0.01436 0.29260 0.19730 -0.26300
N 	N 	0.97271 0.21020 0.18970 -0.25000
N 	N 	0.01944 0.69460 0.46550 -0.25900
N 	N 	0.97867 0.66330 0.38090 -0.26300
N 	N 	0.22597 0.53380 0.07970 -0.25000
N 	N 	0.26748 0.53470 0.99270 -0.24800
N 	N 	0.21981 0.62430 0.95010 -0.25500
N 	N 	0.26543 0.69600 0.97450 -0.24500
N 	N 	0.22672 0.36860 0.61770 -0.25500
N 	N 	0.27261 0.30310 0.58950 -0.25000
C 	C 	0.91470 0.74580 0.07360 0.41100
C 	C 	0.95334 0.73590 0.98650 0.10000
H 	H 	0.94520 0.77330 0.96090 0.00600
C 	C 	0.94040 0.70890 0.04760 -0.17900
C 	C 	0.95208 0.65160 0.08440 0.08300
H 	H 	0.94360 0.63200 0.12480 -0.00900
C 	C 	0.97670 0.62390 0.06020 -0.14100
H 	H 	0.98490 0.58590 0.08450 0.07800
C 	C 	0.98878 0.65370 0.99930 0.04900
C 	C 	0.01409 0.62860 0.96850 0.06000
C 	C 	0.02916 0.57090 0.99580 -0.15200
H 	H 	0.02400 0.54870 0.03880 0.08400
C 	C 	0.05155 0.54700 0.95940 0.11300
H 	H 	0.06170 0.50890 0.97760 -0.00500
C 	C 	0.05893 0.58020 0.89510 -0.20100
C 	C 	0.04457 0.64050 0.87190 0.12300
H 	H 	0.05010 0.66460 0.83020 -0.01100
C 	C 	0.08246 0.55300 0.84890 0.51500
C 	C 	0.07220 0.41160 0.25980 0.35800
C 	C 	0.03600 0.33880 0.19610 0.08500
H 	H 	0.04290 0.35360 0.15180 0.00200
C 	C 	0.04780 0.36410 0.25940 -0.13600
C 	C 	0.03820 0.34160 0.32440 0.06600
H 	H 	0.04610 0.35750 0.36710 0.02700
C 	C 	0.01620 0.29440 0.32660 -0.13000
H 	H 	0.00930 0.27830 0.37050 0.08200
C 	C 	0.00500 0.27210 0.26140 0.06400
C 	C 	0.98110 0.22340 0.25760 0.04700
C 	C 	0.96850 0.19500 0.31690 -0.10600
H 	H 	0.97540 0.20350 0.36310 0.07100
C 	C 	0.94530 0.15300 0.30780 0.04100
H 	H 	0.93640 0.13330 0.34750 0.04700
C 	C 	0.93600 0.14160 0.23940 -0.10500
C 	C 	0.95060 0.16990 0.18120 0.07700
H 	H 	0.94460 0.16020 0.13450 0.01100
C 	C 	0.91110 0.09670 0.22620 0.31900
C 	C 	0.07770 0.69370 0.59940 0.43200
C 	C 	0.04210 0.71110 0.50010 0.10000
H 	H 	0.05250 0.74970 0.48350 0.00000
C 	C 	0.05120 0.67250 0.56100 -0.16000
C 	C 	0.03539 0.61550 0.58430 0.07500
H 	H 	0.04070 0.58890 0.62470 0.01300
C 	C 	0.01160 0.59740 0.54780 -0.13300
H 	H 	0.00070 0.55980 0.56410 0.07800
C 	C 	0.00457 0.63680 0.48660 0.04900
C 	C 	0.98113 0.62040 0.43940 0.06200
C 	C 	0.96270 0.56760 0.45420 -0.14300
H 	H 	0.96440 0.54010 0.49610 0.08400
C 	C 	0.94136 0.55480 0.40650 0.09500
H 	H 	0.92850 0.51960 0.41650 0.02000
C 	C 	0.93978 0.59610 0.34330 -0.18400
C 	C 	0.95895 0.65010 0.33310 0.11600
H 	H 	0.95800 0.67820 0.29140 -0.00600
C 	C 	0.91790 0.58160 0.28830 0.48300
C 	C 	0.16360 0.48760 0.18750 0.33300
C 	C 	0.20380 0.53800 0.12160 0.07900
H 	H 	0.19850 0.58330 0.13790 0.00600
C 	C 	0.18860 0.47930 0.14180 -0.11300
C 	C 	0.19690 0.41100 0.11980 0.04300
H 	H 	0.18700 0.37010 0.13230 0.04000
C 	C 	0.22070 0.40570 0.07810 -0.11100
H 	H 	0.22680 0.36070 0.06270 0.07400
C 	C 	0.23480 0.46660 0.06010 0.05200
C 	C 	0.25960 0.46720 0.01520 0.04000
C 	C 	0.27390 0.40640 0.99680 -0.09800
H 	H 	0.26790 0.36130 0.01210 0.06800
C 	C 	0.29740 0.41210 0.95550 0.03100
H 	H 	0.30790 0.37170 0.94530 0.04200
C 	C 	0.30450 0.47820 0.93030 -0.09600
C 	C 	0.28960 0.53880 0.95050 0.06900
H 	H 	0.29530 0.58380 0.93420 0.01200
C 	C 	0.32940 0.49150 0.88330 0.32200
C 	C 	0.15790 0.54330 0.86140 0.50100
C 	C 	0.19928 0.58090 0.93630 0.12400
H 	H 	0.19740 0.53870 0.96330 -0.00700
C 	C 	0.17981 0.59650 0.88140 -0.20800
C 	C 	0.18247 0.66110 0.84490 0.13000
H 	H 	0.16970 0.67440 0.81050 -0.02900
C 	C 	0.20422 0.70600 0.85970 -0.16100
H 	H 	0.20590 0.75010 0.83600 0.09000
C 	C 	0.22368 0.68450 0.91030 0.06700
C 	C 	0.24890 0.72330 0.92290 0.04500
C 	C 	0.25670 0.78360 0.88070 -0.12900
H 	H 	0.24480 0.80430 0.84780 0.07600
C 	C 	0.28238 0.81070 0.88960 0.07400
H 	H 	0.28820 0.84900 0.86100 0.01400
C 	C 	0.29990 0.78060 0.94200 -0.16200
C 	C 	0.29010 0.72360 0.98350 0.10800
H 	H 	0.30130 0.70400 0.01900 -0.00500
C 	C 	0.32840 0.80790 0.94960 0.42600
C 	C 	0.16090 0.43150 0.70290 0.49500
C 	C 	0.20430 0.40690 0.63300 0.11900
H 	H 	0.20150 0.45020 0.60860 -0.00600
C 	C 	0.18520 0.38500 0.68340 -0.19600
C 	C 	0.18850 0.31980 0.71730 0.11200
H 	H 	0.17530 0.30290 0.74890 -0.00100
C 	C 	0.21160 0.27900 0.70430 -0.15100
H 	H 	0.21440 0.23520 0.72770 0.08500
C 	C 	0.23050 0.30590 0.65490 0.06000
C 	C 	0.25690 0.27100 0.64080 0.05000
C 	C 	0.26620 0.20920 0.67820 -0.14100
H 	H 	0.25520 0.18700 0.71240 0.07900
C 	C 	0.29130 0.18240 0.66370 0.08800
H 	H 	0.29760 0.14200 0.68830 0.00300
C 	C 	0.30720 0.21540 0.61260 -0.16500
C 	C 	0.29740 0.27650 0.57670 0.09700
H 	H 	0.30850 0.29940 0.54300 0.00400
C 	C 	0.33530 0.18770 0.59090 0.43300
Eu	Eu	0.37869 0.41932 0.19833 2.09900
Eu	Eu	0.62222 0.39886 0.64371 2.03800
Eu	Eu	0.37566 0.52157 0.79880 1.94800
Co	Co	0.25342 0.38342 0.53495 1.14400
Co	Co	0.49765 0.24815 0.38617 1.16000
O 	O 	0.60013 0.28920 0.61630 -0.49300
O 	O 	0.58935 0.19180 0.55070 -0.28500
O 	O 	0.40703 0.50580 0.37040 -0.56400
O 	O 	0.41152 0.41060 0.29500 -0.51400
O 	O 	0.41311 0.58650 0.70690 -0.35700
O 	O 	0.42286 0.55380 0.81650 -0.42800
O 	O 	0.59654 0.91450 0.66360 -0.37600
O 	O 	0.59981 0.93220 0.78140 -0.36900
O 	O 	0.41307 0.24660 0.08610 -0.29400
O 	O 	0.41345 0.35320 0.14170 -0.51600
O 	O 	0.58601 0.37480 0.73790 -0.45400
O 	O 	0.59559 0.47490 0.79930 -0.52300
O 	O 	0.35218 0.56550 0.69340 -0.42500
O 	O 	0.34038 0.45520 0.72230 -0.37400
O 	O 	0.15269 0.55690 0.38100 -0.36300
O 	O 	0.16849 0.44930 0.35000 -0.41100
O 	O 	0.34559 0.51090 0.39990 -0.49300
O 	O 	0.35454 0.44220 0.30380 -0.57200
O 	O 	0.16111 0.19330 0.51140 -0.29200
O 	O 	0.16022 0.16880 0.39460 -0.48700
O 	O 	0.35385 0.59360 0.25370 -0.56100
O 	O 	0.34299 0.51150 0.16870 -0.46100
O 	O 	0.15379 0.85480 0.13500 -0.53300
O 	O 	0.15537 0.79010 0.03270 -0.28800
O 	O 	0.38455 0.46250 0.07070 -0.68900
H 	H 	0.39420 0.42450 0.06540 0.27300
H 	H 	0.36800 0.45010 0.06570 0.28400
O 	O 	0.38568 0.55560 0.92550 -0.45200
H 	H 	0.40140 0.56740 0.93980 0.27500
H 	H 	0.38400 0.56960 0.88190 -0.02800
N 	N 	0.52269 0.29000 0.46270 -0.24500
N 	N 	0.47708 0.33560 0.40840 -0.26500
N 	N 	0.48564 0.70740 0.69730 -0.26300
N 	N 	0.52729 0.78980 0.68970 -0.25000
N 	N 	0.48056 0.30540 0.96550 -0.25900
N 	N 	0.52133 0.33670 0.88090 -0.26300
N 	N 	0.27403 0.46620 0.57970 -0.25000
N 	N 	0.23252 0.46530 0.49270 -0.25100
N 	N 	0.28019 0.37570 0.45010 -0.25600
N 	N 	0.23457 0.30400 0.47450 -0.24400
N 	N 	0.27328 0.63140 0.11770 -0.25500
N 	N 	0.22739 0.69690 0.08950 -0.25000
C 	C 	0.58530 0.25420 0.57360 0.41100
C 	C 	0.54666 0.26410 0.48650 0.09900
H 	H 	0.55480 0.22670 0.46090 0.00600
C 	C 	0.55960 0.29110 0.54760 -0.17700
C 	C 	0.54792 0.34840 0.58440 0.08200
H 	H 	0.55640 0.36800 0.62480 -0.00800
C 	C 	0.52330 0.37610 0.56020 -0.14000
H 	H 	0.51510 0.41410 0.58450 0.07800
C 	C 	0.51122 0.34630 0.49930 0.04800
C 	C 	0.48591 0.37140 0.46850 0.06100
C 	C 	0.47084 0.42910 0.49580 -0.15400
H 	H 	0.47600 0.45130 0.53880 0.08500
C 	C 	0.44845 0.45300 0.45940 0.11400
H 	H 	0.43830 0.49110 0.47760 -0.00600
C 	C 	0.44107 0.41980 0.39510 -0.20200
C 	C 	0.45543 0.35950 0.37190 0.12300
H 	H 	0.44990 0.33540 0.33020 -0.01100
C 	C 	0.41754 0.44700 0.34890 0.51500
C 	C 	0.42780 0.58840 0.75980 0.35800
C 	C 	0.46400 0.66120 0.69610 0.08500
H 	H 	0.45710 0.64640 0.65180 0.00200
C 	C 	0.45220 0.63590 0.75940 -0.13600
C 	C 	0.46180 0.65840 0.82440 0.06600
H 	H 	0.45390 0.64250 0.86710 0.02700
C 	C 	0.48380 0.70560 0.82660 -0.13000
H 	H 	0.49070 0.72170 0.87050 0.08200
C 	C 	0.49500 0.72790 0.76140 0.06400
C 	C 	0.51890 0.77660 0.75760 0.04700
C 	C 	0.53150 0.80500 0.81690 -0.10700
H 	H 	0.52460 0.79650 0.86310 0.07200
C 	C 	0.55470 0.84700 0.80780 0.04100
H 	H 	0.56360 0.86670 0.84750 0.04700
C 	C 	0.56400 0.85840 0.73940 -0.10500
C 	C 	0.54940 0.83010 0.68120 0.07800
H 	H 	0.55540 0.83980 0.63450 0.01100
C 	C 	0.58890 0.90330 0.72620 0.32000
C 	C 	0.42230 0.30630 0.09940 0.43200
C 	C 	0.45790 0.28890 0.00010 0.10200
H 	H 	0.44750 0.25030 0.98350 -0.00100
C 	C 	0.44880 0.32750 0.06100 -0.16000
C 	C 	0.46461 0.38450 0.08430 0.07500
H 	H 	0.45930 0.41110 0.12470 0.01300
C 	C 	0.48840 0.40260 0.04780 -0.13300
H 	H 	0.49930 0.44020 0.06410 0.07800
C 	C 	0.49543 0.36320 0.98660 0.04800
C 	C 	0.51887 0.37960 0.93940 0.06200
C 	C 	0.53730 0.43240 0.95420 -0.14300
H 	H 	0.53560 0.45990 0.99610 0.08400
C 	C 	0.55864 0.44520 0.90650 0.09500
H 	H 	0.57150 0.48040 0.91650 0.01900
C 	C 	0.56022 0.40390 0.84330 -0.18400
C 	C 	0.54105 0.34990 0.83310 0.11600
H 	H 	0.54200 0.32180 0.79140 -0.00600
C 	C 	0.58210 0.41840 0.78830 0.48300
C 	C 	0.33640 0.51240 0.68750 0.33300
C 	C 	0.29620 0.46200 0.62160 0.07900
H 	H 	0.30150 0.41670 0.63790 0.00600
C 	C 	0.31140 0.52070 0.64180 -0.11200
C 	C 	0.30310 0.58900 0.61980 0.04200
H 	H 	0.31300 0.62990 0.63230 0.04000
C 	C 	0.27930 0.59430 0.57810 -0.11000
H 	H 	0.27320 0.63930 0.56270 0.07400
C 	C 	0.26520 0.53340 0.56010 0.05000
C 	C 	0.24040 0.53280 0.51520 0.04700
C 	C 	0.22610 0.59360 0.49680 -0.10800
H 	H 	0.23210 0.63870 0.51210 0.07300
C 	C 	0.20260 0.58790 0.45550 0.03700
H 	H 	0.19210 0.62830 0.44530 0.04000
C 	C 	0.19550 0.52180 0.43030 -0.09900
C 	C 	0.21040 0.46120 0.45050 0.07000
H 	H 	0.20470 0.41620 0.43420 0.01200
C 	C 	0.17060 0.50850 0.38330 0.32300
C 	C 	0.34210 0.45670 0.36140 0.50100
C 	C 	0.30072 0.41910 0.43630 0.12400
H 	H 	0.30260 0.46130 0.46330 -0.00800
C 	C 	0.32019 0.40350 0.38140 -0.20900
C 	C 	0.31753 0.33890 0.34490 0.13000
H 	H 	0.33030 0.32560 0.31050 -0.02900
C 	C 	0.29578 0.29400 0.35970 -0.16200
H 	H 	0.29410 0.24990 0.33600 0.09000
C 	C 	0.27632 0.31550 0.41030 0.06700
C 	C 	0.25110 0.27670 0.42290 0.04300
C 	C 	0.24330 0.21640 0.38070 -0.12800
H 	H 	0.25520 0.19570 0.34780 0.07600
C 	C 	0.21762 0.18930 0.38960 0.07100
H 	H 	0.21180 0.15100 0.36100 0.01500
C 	C 	0.20010 0.21940 0.44200 -0.15800
C 	C 	0.20990 0.27640 0.48350 0.09900
H 	H 	0.19870 0.29600 0.51900 0.00000
C 	C 	0.17160 0.19210 0.44960 0.41900
C 	C 	0.33910 0.56850 0.20290 0.49500
C 	C 	0.29570 0.59310 0.13300 0.11900
H 	H 	0.29850 0.54980 0.10860 -0.00700
C 	C 	0.31480 0.61500 0.18340 -0.19700
C 	C 	0.31150 0.68020 0.21730 0.11200
H 	H 	0.32470 0.69710 0.24890 -0.00100
C 	C 	0.28840 0.72100 0.20430 -0.15100
H 	H 	0.28560 0.76480 0.22770 0.08500
C 	C 	0.26950 0.69410 0.15490 0.05900
C 	C 	0.24310 0.72900 0.14080 0.05000
C 	C 	0.23380 0.79080 0.17820 -0.14200
H 	H 	0.24480 0.81300 0.21240 0.07900
C 	C 	0.20870 0.81760 0.16370 0.08800
H 	H 	0.20240 0.85800 0.18830 0.00200
C 	C 	0.19280 0.78460 0.11260 -0.16600
C 	C 	0.20260 0.72350 0.07670 0.09700
H 	H 	0.19150 0.70060 0.04300 0.00300
C 	C 	0.16470 0.81230 0.09090 0.43300
Eu	Eu	0.87869 0.08068 0.80167 2.09600
Eu	Eu	0.12222 0.10114 0.35629 2.03900
Eu	Eu	0.87566 0.97843 0.20120 1.94500
Co	Co	0.75342 0.11658 0.46505 1.14400
Co	Co	0.99765 0.25185 0.61383 1.16000
O 	O 	0.10013 0.21080 0.38370 -0.49300
O 	O 	0.08935 0.30820 0.44930 -0.28500
O 	O 	0.90703 0.99420 0.62960 -0.56300
O 	O 	0.91152 0.08940 0.70500 -0.51400
O 	O 	0.91311 0.91350 0.29310 -0.35700
O 	O 	0.92286 0.94620 0.18350 -0.42800
O 	O 	0.09654 0.58550 0.33640 -0.37700
O 	O 	0.09981 0.56780 0.21860 -0.37000
O 	O 	0.91307 0.25340 0.91390 -0.29400
O 	O 	0.91345 0.14680 0.85830 -0.51600
O 	O 	0.08601 0.12520 0.26210 -0.45400
O 	O 	0.09559 0.02510 0.20070 -0.52200
O 	O 	0.85218 0.93450 0.30660 -0.42400
O 	O 	0.84038 0.04480 0.27770 -0.37200
O 	O 	0.65269 0.94310 0.61900 -0.36300
O 	O 	0.66849 0.05070 0.65000 -0.41200
O 	O 	0.84559 0.98910 0.60010 -0.49200
O 	O 	0.85454 0.05780 0.69620 -0.57200
O 	O 	0.66111 0.30670 0.48860 -0.29200
O 	O 	0.66022 0.33120 0.60540 -0.48700
O 	O 	0.85385 0.90640 0.74630 -0.56000
O 	O 	0.84299 0.98850 0.83130 -0.46000
O 	O 	0.65379 0.64520 0.86500 -0.53200
O 	O 	0.65537 0.70990 0.96730 -0.28600
O 	O 	0.88455 0.03750 0.92930 -0.69000
H 	H 	0.89420 0.07550 0.93460 0.27300
H 	H 	0.86800 0.04990 0.93430 0.28300
O 	O 	0.88568 0.94440 0.07450 -0.45300
H 	H 	0.90140 0.93260 0.06020 0.27500
H 	H 	0.88400 0.93040 0.11810 -0.02700
N 	N 	0.02269 0.21000 0.53730 -0.24500
N 	N 	0.97708 0.16440 0.59160 -0.26500
N 	N 	0.98564 0.79260 0.30270 -0.26300
N 	N 	0.02729 0.71020 0.31030 -0.25000
N 	N 	0.98056 0.19460 0.03450 -0.25700
N 	N 	0.02133 0.16330 0.11910 -0.26200
N 	N 	0.77403 0.03380 0.42030 -0.25000
N 	N 	0.73252 0.03470 0.50730 -0.25100
N 	N 	0.78019 0.12430 0.54990 -0.25600
N 	N 	0.73457 0.19600 0.52550 -0.24400
N 	N 	0.77328 0.86860 0.88230 -0.25500
N 	N 	0.72739 0.80310 0.91050 -0.25000
C 	C 	0.08530 0.24580 0.42640 0.41100
C 	C 	0.04666 0.23590 0.51350 0.09900
H 	H 	0.05480 0.27330 0.53910 0.00600
C 	C 	0.05960 0.20890 0.45240 -0.17700
C 	C 	0.04792 0.15160 0.41560 0.08200
H 	H 	0.05640 0.13200 0.37520 -0.00800
C 	C 	0.02330 0.12390 0.43980 -0.14000
H 	H 	0.01510 0.08590 0.41550 0.07800
C 	C 	0.01122 0.15370 0.50070 0.04800
C 	C 	0.98591 0.12860 0.53150 0.06100
C 	C 	0.97084 0.07090 0.50420 -0.15400
H 	H 	0.97600 0.04870 0.46120 0.08500
C 	C 	0.94845 0.04700 0.54060 0.11400
H 	H 	0.93830 0.00890 0.52240 -0.00600
C 	C 	0.94107 0.08020 0.60490 -0.20100
C 	C 	0.95543 0.14050 0.62810 0.12300
H 	H 	0.94990 0.16460 0.66980 -0.01100
C 	C 	0.91754 0.05300 0.65110 0.51400
C 	C 	0.92780 0.91160 0.24020 0.35800
C 	C 	0.96400 0.83880 0.30390 0.08500
H 	H 	0.95710 0.85360 0.34820 0.00200
C 	C 	0.95220 0.86410 0.24060 -0.13600
C 	C 	0.96180 0.84160 0.17560 0.06600
H 	H 	0.95390 0.85750 0.13290 0.02600
C 	C 	0.98380 0.79440 0.17340 -0.13000
H 	H 	0.99070 0.77830 0.12950 0.08200
C 	C 	0.99500 0.77210 0.23860 0.06400
C 	C 	0.01890 0.72340 0.24240 0.04700
C 	C 	0.03150 0.69500 0.18310 -0.10700
H 	H 	0.02460 0.70350 0.13690 0.07100
C 	C 	0.05470 0.65300 0.19220 0.04100
H 	H 	0.06360 0.63330 0.15250 0.04600
C 	C 	0.06400 0.64160 0.26060 -0.10500
C 	C 	0.04940 0.66990 0.31880 0.07800
H 	H 	0.05540 0.66020 0.36550 0.01100
C 	C 	0.08890 0.59670 0.27380 0.32000
C 	C 	0.92230 0.19370 0.90060 0.43100
C 	C 	0.95790 0.21110 0.99990 0.09300
H 	H 	0.94750 0.24970 0.01650 0.00400
C 	C 	0.94880 0.17250 0.93900 -0.15800
C 	C 	0.96461 0.11550 0.91570 0.07500
H 	H 	0.95930 0.08890 0.87530 0.01200
C 	C 	0.98840 0.09740 0.95220 -0.13700
H 	H 	0.99930 0.05980 0.93590 0.07900
C 	C 	0.99543 0.13680 0.01340 0.05200
C 	C 	0.01887 0.12040 0.06060 0.06100
C 	C 	0.03730 0.06760 0.04580 -0.14100
H 	H 	0.03560 0.04010 0.00390 0.08500
C 	C 	0.05864 0.05480 0.09350 0.09400
H 	H 	0.07150 0.01960 0.08350 0.02100
C 	C 	0.06022 0.09610 0.15670 -0.18400
C 	C 	0.04105 0.15010 0.16690 0.11600
H 	H 	0.04200 0.17820 0.20860 -0.00500
C 	C 	0.08210 0.08160 0.21170 0.48200
C 	C 	0.83640 0.98760 0.31250 0.33100
C 	C 	0.79620 0.03800 0.37840 0.08100
H 	H 	0.80150 0.08330 0.36210 0.00600
C 	C 	0.81140 0.97930 0.35820 -0.11300
C 	C 	0.80310 0.91100 0.38020 0.04200
H 	H 	0.81300 0.87010 0.36770 0.04000
C 	C 	0.77930 0.90570 0.42190 -0.11000
H 	H 	0.77320 0.86070 0.43730 0.07400
C 	C 	0.76520 0.96660 0.43990 0.05000
C 	C 	0.74040 0.96720 0.48480 0.04700
C 	C 	0.72610 0.90640 0.50320 -0.10800
H 	H 	0.73210 0.86130 0.48790 0.07300
C 	C 	0.70260 0.91210 0.54450 0.03700
H 	H 	0.69210 0.87170 0.55470 0.04000
C 	C 	0.69550 0.97820 0.56970 -0.09900
C 	C 	0.71040 0.03880 0.54950 0.07000
H 	H 	0.70470 0.08380 0.56580 0.01200
C 	C 	0.67060 0.99150 0.61670 0.32300
C 	C 	0.84210 0.04330 0.63860 0.50000
C 	C 	0.80072 0.08090 0.56370 0.12400
H 	H 	0.80260 0.03870 0.53670 -0.00800
C 	C 	0.82019 0.09650 0.61860 -0.20800
C 	C 	0.81753 0.16110 0.65510 0.13000
H 	H 	0.83030 0.17440 0.68950 -0.02900
C 	C 	0.79578 0.20600 0.64030 -0.16200
H 	H 	0.79410 0.25010 0.66400 0.09000
C 	C 	0.77632 0.18450 0.58970 0.06700
C 	C 	0.75110 0.22330 0.57710 0.04300
C 	C 	0.74330 0.28360 0.61930 -0.12800
H 	H 	0.75520 0.30430 0.65220 0.07600
C 	C 	0.71762 0.31070 0.61040 0.07100
H 	H 	0.71180 0.34900 0.63900 0.01500
C 	C 	0.70010 0.28060 0.55800 -0.15800
C 	C 	0.70990 0.22360 0.51650 0.09900
H 	H 	0.69870 0.20400 0.48100 0.00000
C 	C 	0.67160 0.30790 0.55040 0.41900
C 	C 	0.83910 0.93150 0.79710 0.49500
C 	C 	0.79570 0.90690 0.86700 0.11900
H 	H 	0.79850 0.95020 0.89140 -0.00600
C 	C 	0.81480 0.88500 0.81660 -0.19600
C 	C 	0.81150 0.81980 0.78270 0.11200
H 	H 	0.82470 0.80290 0.75110 -0.00100
C 	C 	0.78840 0.77900 0.79570 -0.15100
H 	H 	0.78560 0.73520 0.77230 0.08500
C 	C 	0.76950 0.80590 0.84510 0.06000
C 	C 	0.74310 0.77100 0.85920 0.05000
C 	C 	0.73380 0.70920 0.82180 -0.14100
H 	H 	0.74480 0.68700 0.78760 0.07900
C 	C 	0.70870 0.68240 0.83630 0.08800
H 	H 	0.70240 0.64200 0.81170 0.00300
C 	C 	0.69280 0.71540 0.88740 -0.16500
C 	C 	0.70260 0.77650 0.92330 0.09700
H 	H 	0.69150 0.79940 0.95700 0.00400
C 	C 	0.66470 0.68770 0.90910 0.43400
Eu	Eu	0.62131 0.91932 0.30167 2.09700
Eu	Eu	0.37778 0.89886 0.85629 2.04000
Eu	Eu	0.62434 0.02157 0.70120 1.94500
Co	Co	0.74658 0.88342 0.96505 1.14500
Co	Co	0.50235 0.74815 0.11383 1.16000
O 	O 	0.39987 0.78920 0.88370 -0.49200
O 	O 	0.41065 0.69180 0.94930 -0.28400
O 	O 	0.59297 0.00580 0.12960 -0.56200
O 	O 	0.58848 0.91060 0.20500 -0.51400
O 	O 	0.58689 0.08650 0.79310 -0.35700
O 	O 	0.57714 0.05380 0.68350 -0.42800
O 	O 	0.40346 0.41450 0.83640 -0.37700
O 	O 	0.40019 0.43220 0.71860 -0.37000
O 	O 	0.58693 0.74660 0.41390 -0.29400
O 	O 	0.58655 0.85320 0.35830 -0.51600
O 	O 	0.41399 0.87480 0.76210 -0.45400
O 	O 	0.40441 0.97490 0.70070 -0.52200
O 	O 	0.64782 0.06550 0.80660 -0.42500
O 	O 	0.65962 0.95520 0.77770 -0.37200
O 	O 	0.84731 0.05690 0.11900 -0.36100
O 	O 	0.83151 0.94930 0.15000 -0.41200
O 	O 	0.65441 0.01090 0.10010 -0.49000
O 	O 	0.64546 0.94220 0.19620 -0.57100
O 	O 	0.83889 0.69330 0.98860 -0.29300
O 	O 	0.83978 0.66880 0.10540 -0.48700
O 	O 	0.64615 0.09360 0.24630 -0.56100
O 	O 	0.65701 0.01150 0.33130 -0.46000
O 	O 	0.84621 0.35480 0.36500 -0.53200
O 	O 	0.84463 0.29010 0.46730 -0.28600
O 	O 	0.61545 0.96250 0.42930 -0.68900
H 	H 	0.60580 0.92450 0.43460 0.27300
H 	H 	0.63200 0.95010 0.43430 0.28400
O 	O 	0.61432 0.05560 0.57450 -0.45200
H 	H 	0.59860 0.06740 0.56020 0.27500
H 	H 	0.61600 0.06960 0.61810 -0.02800
N 	N 	0.47731 0.79000 0.03730 -0.24300
N 	N 	0.52292 0.83560 0.09160 -0.26600
N 	N 	0.51436 0.20740 0.80270 -0.26300
N 	N 	0.47271 0.28980 0.81030 -0.25000
N 	N 	0.51944 0.80540 0.53450 -0.25900
N 	N 	0.47867 0.83670 0.61910 -0.26300
N 	N 	0.72597 0.96620 0.92030 -0.25000
N 	N 	0.76748 0.96530 0.00730 -0.24700
N 	N 	0.71981 0.87570 0.04990 -0.25500
N 	N 	0.76543 0.80400 0.02550 -0.24400
N 	N 	0.72672 0.13140 0.38230 -0.25500
N 	N 	0.77261 0.19690 0.41050 -0.25000
C 	C 	0.41470 0.75420 0.92640 0.40900
C 	C 	0.45334 0.76410 0.01350 0.09300
H 	H 	0.44520 0.72670 0.03910 0.00700
C 	C 	0.44040 0.79110 0.95240 -0.17200
C 	C 	0.45208 0.84840 0.91560 0.07700
H 	H 	0.44360 0.86800 0.87520 -0.00600
C 	C 	0.47670 0.87610 0.93980 -0.13200
H 	H 	0.48490 0.91410 0.91550 0.07600
C 	C 	0.48878 0.84630 0.00070 0.04200
C 	C 	0.51409 0.87140 0.03150 0.06500
C 	C 	0.52916 0.92910 0.00420 -0.16300
H 	H 	0.52400 0.95130 0.96120 0.09000
C 	C 	0.55155 0.95300 0.04060 0.11900
H 	H 	0.56170 0.99110 0.02240 -0.00800
C 	C 	0.55893 0.91980 0.10490 -0.20300
C 	C 	0.54457 0.85950 0.12810 0.12400
H 	H 	0.55010 0.83540 0.16980 -0.01100
C 	C 	0.58246 0.94700 0.15110 0.51300
C 	C 	0.57220 0.08840 0.74020 0.35800
C 	C 	0.53600 0.16120 0.80390 0.08500
H 	H 	0.54290 0.14640 0.84820 0.00200
C 	C 	0.54780 0.13590 0.74060 -0.13600
C 	C 	0.53820 0.15840 0.67560 0.06600
H 	H 	0.54610 0.14250 0.63290 0.02600
C 	C 	0.51620 0.20560 0.67340 -0.13000
H 	H 	0.50930 0.22170 0.62950 0.08200
C 	C 	0.50500 0.22790 0.73860 0.06400
C 	C 	0.48110 0.27660 0.74240 0.04700
C 	C 	0.46850 0.30500 0.68310 -0.10700
H 	H 	0.47540 0.29650 0.63690 0.07100
C 	C 	0.44530 0.34700 0.69220 0.04100
H 	H 	0.43640 0.36670 0.65250 0.04700
C 	C 	0.43600 0.35840 0.76060 -0.10500
C 	C 	0.45060 0.33010 0.81880 0.07800
H 	H 	0.44460 0.33980 0.86550 0.01000
C 	C 	0.41110 0.40330 0.77380 0.32000
C 	C 	0.57770 0.80630 0.40060 0.43200
C 	C 	0.54210 0.78890 0.49990 0.10000
H 	H 	0.55250 0.75030 0.51650 0.00000
C 	C 	0.55120 0.82750 0.43900 -0.16000
C 	C 	0.53539 0.88450 0.41570 0.07500
H 	H 	0.54070 0.91110 0.37530 0.01200
C 	C 	0.51160 0.90260 0.45220 -0.13300
H 	H 	0.50070 0.94020 0.43590 0.07800
C 	C 	0.50457 0.86320 0.51340 0.04900
C 	C 	0.48113 0.87960 0.56060 0.06200
C 	C 	0.46270 0.93240 0.54580 -0.14200
H 	H 	0.46440 0.95990 0.50390 0.08400
C 	C 	0.44136 0.94520 0.59350 0.09500
H 	H 	0.42850 0.98040 0.58350 0.02000
C 	C 	0.43978 0.90390 0.65670 -0.18400
C 	C 	0.45895 0.84990 0.66690 0.11600
H 	H 	0.45800 0.82180 0.70860 -0.00500
C 	C 	0.41790 0.91840 0.71170 0.48300
C 	C 	0.66360 0.01240 0.81250 0.33200
C 	C 	0.70380 0.96200 0.87840 0.08300
H 	H 	0.69850 0.91670 0.86210 0.00500
C 	C 	0.68860 0.02070 0.85820 -0.11600
C 	C 	0.69690 0.08900 0.88020 0.04500
H 	H 	0.68700 0.12990 0.86770 0.03900
C 	C 	0.72070 0.09430 0.92190 -0.11400
H 	H 	0.72680 0.13930 0.93730 0.07400
C 	C 	0.73480 0.03340 0.93990 0.05300
C 	C 	0.75960 0.03280 0.98480 0.03100
C 	C 	0.77390 0.09360 0.00320 -0.08100
H 	H 	0.76790 0.13870 0.98790 0.06000
C 	C 	0.79740 0.08790 0.04450 0.02100
H 	H 	0.80790 0.12830 0.05470 0.04700
C 	C 	0.80450 0.02180 0.06970 -0.08800
C 	C 	0.78960 0.96120 0.04950 0.06200
H 	H 	0.79530 0.91620 0.06580 0.01400
C 	C 	0.82940 0.00850 0.11670 0.32200
C 	C 	0.65790 0.95670 0.13860 0.49800
C 	C 	0.69928 0.91910 0.06370 0.12300
H 	H 	0.69740 0.96130 0.03670 -0.00800
C 	C 	0.67981 0.90350 0.11860 -0.20800
C 	C 	0.68247 0.83890 0.15510 0.12900
H 	H 	0.66970 0.82560 0.18950 -0.02900
C 	C 	0.70422 0.79400 0.14030 -0.16100
H 	H 	0.70590 0.74990 0.16400 0.08900
C 	C 	0.72368 0.81550 0.08970 0.06700
C 	C 	0.74890 0.77670 0.07710 0.04400
C 	C 	0.75670 0.71640 0.11930 -0.12800
H 	H 	0.74480 0.69570 0.15220 0.07600
C 	C 	0.78238 0.68930 0.11040 0.07100
H 	H 	0.78820 0.65100 0.13900 0.01500
C 	C 	0.79990 0.71940 0.05800 -0.15800
C 	C 	0.79010 0.77640 0.01650 0.10100
H 	H 	0.80130 0.79600 0.98100 -0.00000
C 	C 	0.82840 0.69210 0.05040 0.42100
C 	C 	0.66090 0.06850 0.29710 0.49600
C 	C 	0.70430 0.09310 0.36700 0.11900
H 	H 	0.70150 0.04980 0.39140 -0.00600
C 	C 	0.68520 0.11500 0.31660 -0.19600
C 	C 	0.68850 0.18020 0.28270 0.11200
H 	H 	0.67530 0.19710 0.25110 -0.00100
C 	C 	0.71160 0.22100 0.29570 -0.15100
H 	H 	0.71440 0.26480 0.27230 0.08500
C 	C 	0.73050 0.19410 0.34510 0.06000
C 	C 	0.75690 0.22900 0.35920 0.05000
C 	C 	0.76620 0.29080 0.32180 -0.14100
H 	H 	0.75520 0.31300 0.28760 0.07900
C 	C 	0.79130 0.31760 0.33630 0.08800
H 	H 	0.79760 0.35800 0.31170 0.00300
C 	C 	0.80720 0.28460 0.38740 -0.16500
C 	C 	0.79740 0.22350 0.42330 0.09700
H 	H 	0.80850 0.20060 0.45700 0.00400
C 	C 	0.83530 0.31230 0.40910 0.43400
Eu	Eu	0.87869 0.41932 0.30167 2.09900
Eu	Eu	0.12222 0.39886 0.85629 2.03900
Eu	Eu	0.87566 0.52157 0.70120 1.94800
Co	Co	0.75342 0.38342 0.96505 1.14300
Co	Co	0.99765 0.24815 0.11383 1.16000
O 	O 	0.10013 0.28920 0.88370 -0.49300
O 	O 	0.08935 0.19180 0.94930 -0.28600
O 	O 	0.90703 0.50580 0.12960 -0.56400
O 	O 	0.91152 0.41060 0.20500 -0.51400
O 	O 	0.91311 0.58650 0.79310 -0.35700
O 	O 	0.92286 0.55380 0.68350 -0.42800
O 	O 	0.09654 0.91450 0.83640 -0.37600
O 	O 	0.09981 0.93220 0.71860 -0.36900
O 	O 	0.91307 0.24660 0.41390 -0.29400
O 	O 	0.91345 0.35320 0.35830 -0.51600
O 	O 	0.08601 0.37480 0.76210 -0.45400
O 	O 	0.09559 0.47490 0.70070 -0.52300
O 	O 	0.85218 0.56550 0.80660 -0.42500
O 	O 	0.84038 0.45520 0.77770 -0.37400
O 	O 	0.65269 0.55690 0.11900 -0.36200
O 	O 	0.66849 0.44930 0.15000 -0.41100
O 	O 	0.84559 0.51090 0.10010 -0.49300
O 	O 	0.85454 0.44220 0.19620 -0.57200
O 	O 	0.66111 0.19330 0.98860 -0.29600
O 	O 	0.66022 0.16880 0.10540 -0.48800
O 	O 	0.85385 0.59360 0.24630 -0.56100
O 	O 	0.84299 0.51150 0.33130 -0.46100
O 	O 	0.65379 0.85480 0.36500 -0.53200
O 	O 	0.65537 0.79010 0.46730 -0.28600
O 	O 	0.88455 0.46250 0.42930 -0.68900
H 	H 	0.89420 0.42450 0.43460 0.27300
H 	H 	0.86800 0.45010 0.43430 0.28400
O 	O 	0.88568 0.55560 0.57450 -0.45200
H 	H 	0.90140 0.56740 0.56020 0.27500
H 	H 	0.88400 0.56960 0.61810 -0.02800
N 	N 	0.02269 0.29000 0.03730 -0.24500
N 	N 	0.97708 0.33560 0.09160 -0.26500
N 	N 	0.98564 0.70740 0.80270 -0.26300
N 	N 	0.02729 0.78980 0.81030 -0.25000
N 	N 	0.98056 0.30540 0.53450 -0.25900
N 	N 	0.02133 0.33670 0.61910 -0.26300
N 	N 	0.77403 0.46620 0.92030 -0.25000
N 	N 	0.73252 0.46530 0.00730 -0.24800
N 	N 	0.78019 0.37570 0.04990 -0.25500
N 	N 	0.73457 0.30400 0.02550 -0.24500
N 	N 	0.77328 0.63140 0.38230 -0.25500
N 	N 	0.72739 0.69690 0.41050 -0.25000
C 	C 	0.08530 0.25420 0.92640 0.41100
C 	C 	0.04666 0.26410 0.01350 0.10000
H 	H 	0.05480 0.22670 0.03910 0.00600
C 	C 	0.05960 0.29110 0.95240 -0.17900
C 	C 	0.04792 0.34840 0.91560 0.08300
H 	H 	0.05640 0.36800 0.87520 -0.00900
C 	C 	0.02330 0.37610 0.93980 -0.14100
H 	H 	0.01510 0.41410 0.91550 0.07800
C 	C 	0.01122 0.34630 0.00070 0.04900
C 	C 	0.98591 0.37140 0.03150 0.06000
C 	C 	0.97084 0.42910 0.00420 -0.15200
H 	H 	0.97600 0.45130 0.96120 0.08400
C 	C 	0.94845 0.45300 0.04060 0.11300
H 	H 	0.93830 0.49110 0.02240 -0.00500
C 	C 	0.94107 0.41980 0.10490 -0.20100
C 	C 	0.95543 0.35950 0.12810 0.12300
H 	H 	0.94990 0.33540 0.16980 -0.01100
C 	C 	0.91754 0.44700 0.15110 0.51500
C 	C 	0.92780 0.58840 0.74020 0.35800
C 	C 	0.96400 0.66120 0.80390 0.08500
H 	H 	0.95710 0.64640 0.84820 0.00200
C 	C 	0.95220 0.63590 0.74060 -0.13600
C 	C 	0.96180 0.65840 0.67560 0.06600
H 	H 	0.95390 0.64250 0.63290 0.02700
C 	C 	0.98380 0.70560 0.67340 -0.13000
H 	H 	0.99070 0.72170 0.62950 0.08200
C 	C 	0.99500 0.72790 0.73860 0.06400
C 	C 	0.01890 0.77660 0.74240 0.04700
C 	C 	0.03150 0.80500 0.68310 -0.10600
H 	H 	0.02460 0.79650 0.63690 0.07100
C 	C 	0.05470 0.84700 0.69220 0.04100
H 	H 	0.06360 0.86670 0.65250 0.04700
C 	C 	0.06400 0.85840 0.76060 -0.10500
C 	C 	0.04940 0.83010 0.81880 0.07700
H 	H 	0.05540 0.83980 0.86550 0.01100
C 	C 	0.08890 0.90330 0.77380 0.31900
C 	C 	0.92230 0.30630 0.40060 0.43200
C 	C 	0.95790 0.28890 0.49990 0.10000
H 	H 	0.94750 0.25030 0.51650 0.00000
C 	C 	0.94880 0.32750 0.43900 -0.16000
C 	C 	0.96461 0.38450 0.41570 0.07500
H 	H 	0.95930 0.41110 0.37530 0.01300
C 	C 	0.98840 0.40260 0.45220 -0.13300
H 	H 	0.99930 0.44020 0.43590 0.07800
C 	C 	0.99543 0.36320 0.51340 0.04900
C 	C 	0.01887 0.37960 0.56060 0.06200
C 	C 	0.03730 0.43240 0.54580 -0.14300
H 	H 	0.03560 0.45990 0.50390 0.08400
C 	C 	0.05864 0.44520 0.59350 0.09500
H 	H 	0.07150 0.48040 0.58350 0.02000
C 	C 	0.06022 0.40390 0.65670 -0.18400
C 	C 	0.04105 0.34990 0.66690 0.11600
H 	H 	0.04200 0.32180 0.70860 -0.00600
C 	C 	0.08210 0.41840 0.71170 0.48300
C 	C 	0.83640 0.51240 0.81250 0.33300
C 	C 	0.79620 0.46200 0.87840 0.07900
H 	H 	0.80150 0.41670 0.86210 0.00600
C 	C 	0.81140 0.52070 0.85820 -0.11300
C 	C 	0.80310 0.58900 0.88020 0.04300
H 	H 	0.81300 0.62990 0.86770 0.04000
C 	C 	0.77930 0.59430 0.92190 -0.11100
H 	H 	0.77320 0.63930 0.93730 0.07400
C 	C 	0.76520 0.53340 0.93990 0.05200
C 	C 	0.74040 0.53280 0.98480 0.04000
C 	C 	0.72610 0.59360 0.00320 -0.09800
H 	H 	0.73210 0.63870 0.98790 0.06800
C 	C 	0.70260 0.58790 0.04450 0.03100
H 	H 	0.69210 0.62830 0.05470 0.04200
C 	C 	0.69550 0.52180 0.06970 -0.09600
C 	C 	0.71040 0.46120 0.04950 0.06900
H 	H 	0.70470 0.41620 0.06580 0.01200
C 	C 	0.67060 0.50850 0.11670 0.32200
C 	C 	0.84210 0.45670 0.13860 0.50100
C 	C 	0.80072 0.41910 0.06370 0.12400
H 	H 	0.80260 0.46130 0.03670 -0.00700
C 	C 	0.82019 0.40350 0.11860 -0.20800
C 	C 	0.81753 0.33890 0.15510 0.13000
H 	H 	0.83030 0.32560 0.18950 -0.02900
C 	C 	0.79578 0.29400 0.14030 -0.16100
H 	H 	0.79410 0.24990 0.16400 0.09000
C 	C 	0.77632 0.31550 0.08970 0.06700
C 	C 	0.75110 0.27670 0.07710 0.04500
C 	C 	0.74330 0.21640 0.11930 -0.12900
H 	H 	0.75520 0.19570 0.15220 0.07600
C 	C 	0.71762 0.18930 0.11040 0.07400
H 	H 	0.71180 0.15100 0.13900 0.01400
C 	C 	0.70010 0.21940 0.05800 -0.16200
C 	C 	0.70990 0.27640 0.01650 0.10800
H 	H 	0.69870 0.29600 0.98100 -0.00500
C 	C 	0.67160 0.19210 0.05040 0.42600
C 	C 	0.83910 0.56850 0.29710 0.49500
C 	C 	0.79570 0.59310 0.36700 0.11900
H 	H 	0.79850 0.54980 0.39140 -0.00600
C 	C 	0.81480 0.61500 0.31660 -0.19600
C 	C 	0.81150 0.68020 0.28270 0.11200
H 	H 	0.82470 0.69710 0.25110 -0.00100
C 	C 	0.78840 0.72100 0.29570 -0.15100
H 	H 	0.78560 0.76480 0.27230 0.08500
C 	C 	0.76950 0.69410 0.34510 0.06000
C 	C 	0.74310 0.72900 0.35920 0.05000
C 	C 	0.73380 0.79080 0.32180 -0.14100
H 	H 	0.74480 0.81300 0.28760 0.07900
C 	C 	0.70870 0.81760 0.33630 0.08800
H 	H 	0.70240 0.85800 0.31170 0.00300
C 	C 	0.69280 0.78460 0.38740 -0.16500
C 	C 	0.70260 0.72350 0.42330 0.09700
H 	H 	0.69150 0.70060 0.45700 0.00400
C 	C 	0.66470 0.81230 0.40910 0.43300
Eu	Eu	0.62131 0.58068 0.80167 2.09900
Eu	Eu	0.37778 0.60114 0.35629 2.03800
Eu	Eu	0.62434 0.47843 0.20120 1.94800
Co	Co	0.74658 0.61658 0.46505 1.14400
Co	Co	0.50235 0.75185 0.61383 1.16000
O 	O 	0.39987 0.71080 0.38370 -0.49300
O 	O 	0.41065 0.80820 0.44930 -0.28500
O 	O 	0.59297 0.49420 0.62960 -0.56400
O 	O 	0.58848 0.58940 0.70500 -0.51400
O 	O 	0.58689 0.41350 0.29310 -0.35700
O 	O 	0.57714 0.44620 0.18350 -0.42800
O 	O 	0.40346 0.08550 0.33640 -0.37600
O 	O 	0.40019 0.06780 0.21860 -0.36900
O 	O 	0.58693 0.75340 0.91390 -0.29400
O 	O 	0.58655 0.64680 0.85830 -0.51600
O 	O 	0.41399 0.62520 0.26210 -0.45400
O 	O 	0.40441 0.52510 0.20070 -0.52300
O 	O 	0.64782 0.43450 0.30660 -0.42500
O 	O 	0.65962 0.54480 0.27770 -0.37400
O 	O 	0.84731 0.44310 0.61900 -0.36300
O 	O 	0.83151 0.55070 0.65000 -0.41100
O 	O 	0.65441 0.48910 0.60010 -0.49300
O 	O 	0.64546 0.55780 0.69620 -0.57200
O 	O 	0.83889 0.80670 0.48860 -0.29200
O 	O 	0.83978 0.83120 0.60540 -0.48700
O 	O 	0.64615 0.40640 0.74630 -0.56100
O 	O 	0.65701 0.48850 0.83130 -0.46100
O 	O 	0.84621 0.14520 0.86500 -0.53300
O 	O 	0.84463 0.20990 0.96730 -0.28800
O 	O 	0.61545 0.53750 0.92930 -0.68900
H 	H 	0.60580 0.57550 0.93460 0.27300
H 	H 	0.63200 0.54990 0.93430 0.28400
O 	O 	0.61432 0.44440 0.07450 -0.45200
H 	H 	0.59860 0.43260 0.06020 0.27500
H 	H 	0.61600 0.43040 0.11810 -0.02800
N 	N 	0.47731 0.71000 0.53730 -0.24500
N 	N 	0.52292 0.66440 0.59160 -0.26500
N 	N 	0.51436 0.29260 0.30270 -0.26300
N 	N 	0.47271 0.21020 0.31030 -0.25000
N 	N 	0.51944 0.69460 0.03450 -0.25900
N 	N 	0.47867 0.66330 0.11910 -0.26300
N 	N 	0.72597 0.53380 0.42030 -0.25000
N 	N 	0.76748 0.53470 0.50730 -0.25100
N 	N 	0.71981 0.62430 0.54990 -0.25600
N 	N 	0.76543 0.69600 0.52550 -0.24400
N 	N 	0.72672 0.36860 0.88230 -0.25500
N 	N 	0.77261 0.30310 0.91050 -0.25000
C 	C 	0.41470 0.74580 0.42640 0.41100
C 	C 	0.45334 0.73590 0.51350 0.09900
H 	H 	0.44520 0.77330 0.53910 0.00600
C 	C 	0.44040 0.70890 0.45240 -0.17700
C 	C 	0.45208 0.65160 0.41560 0.08200
H 	H 	0.44360 0.63200 0.37520 -0.00800
C 	C 	0.47670 0.62390 0.43980 -0.14000
H 	H 	0.48490 0.58590 0.41550 0.07800
C 	C 	0.48878 0.65370 0.50070 0.04800
C 	C 	0.51409 0.62860 0.53150 0.06100
C 	C 	0.52916 0.57090 0.50420 -0.15400
H 	H 	0.52400 0.54870 0.46120 0.08500
C 	C 	0.55155 0.54700 0.54060 0.11400
H 	H 	0.56170 0.50890 0.52240 -0.00600
C 	C 	0.55893 0.58020 0.60490 -0.20200
C 	C 	0.54457 0.64050 0.62810 0.12300
H 	H 	0.55010 0.66460 0.66980 -0.01100
C 	C 	0.58246 0.55300 0.65110 0.51500
C 	C 	0.57220 0.41160 0.24020 0.35800
C 	C 	0.53600 0.33880 0.30390 0.08500
H 	H 	0.54290 0.35360 0.34820 0.00200
C 	C 	0.54780 0.36410 0.24060 -0.13600
C 	C 	0.53820 0.34160 0.17560 0.06600
H 	H 	0.54610 0.35750 0.13290 0.02700
C 	C 	0.51620 0.29440 0.17340 -0.13000
H 	H 	0.50930 0.27830 0.12950 0.08200
C 	C 	0.50500 0.27210 0.23860 0.06400
C 	C 	0.48110 0.22340 0.24240 0.04700
C 	C 	0.46850 0.19500 0.18310 -0.10700
H 	H 	0.47540 0.20350 0.13690 0.07200
C 	C 	0.44530 0.15300 0.19220 0.04100
H 	H 	0.43640 0.13330 0.15250 0.04700
C 	C 	0.43600 0.14160 0.26060 -0.10500
C 	C 	0.45060 0.16990 0.31880 0.07800
H 	H 	0.44460 0.16020 0.36550 0.01100
C 	C 	0.41110 0.09670 0.27380 0.32000
C 	C 	0.57770 0.69370 0.90060 0.43200
C 	C 	0.54210 0.71110 0.99990 0.10200
H 	H 	0.55250 0.74970 0.01650 -0.00100
C 	C 	0.55120 0.67250 0.93900 -0.16000
C 	C 	0.53539 0.61550 0.91570 0.07500
H 	H 	0.54070 0.58890 0.87530 0.01300
C 	C 	0.51160 0.59740 0.95220 -0.13300
H 	H 	0.50070 0.55980 0.93590 0.07800
C 	C 	0.50457 0.63680 0.01340 0.04800
C 	C 	0.48113 0.62040 0.06060 0.06200
C 	C 	0.46270 0.56760 0.04580 -0.14300
H 	H 	0.46440 0.54010 0.00390 0.08400
C 	C 	0.44136 0.55480 0.09350 0.09500
H 	H 	0.42850 0.51960 0.08350 0.01900
C 	C 	0.43978 0.59610 0.15670 -0.18400
C 	C 	0.45895 0.65010 0.16690 0.11600
H 	H 	0.45800 0.67820 0.20860 -0.00600
C 	C 	0.41790 0.58160 0.21170 0.48300
C 	C 	0.66360 0.48760 0.31250 0.33300
C 	C 	0.70380 0.53800 0.37840 0.07900
H 	H 	0.69850 0.58330 0.36210 0.00600
C 	C 	0.68860 0.47930 0.35820 -0.11200
C 	C 	0.69690 0.41100 0.38020 0.04200
H 	H 	0.68700 0.37010 0.36770 0.04000
C 	C 	0.72070 0.40570 0.42190 -0.11000
H 	H 	0.72680 0.36070 0.43730 0.07400
C 	C 	0.73480 0.46660 0.43990 0.05000
C 	C 	0.75960 0.46720 0.48480 0.04700
C 	C 	0.77390 0.40640 0.50320 -0.10800
H 	H 	0.76790 0.36130 0.48790 0.07300
C 	C 	0.79740 0.41210 0.54450 0.03700
H 	H 	0.80790 0.37170 0.55470 0.04000
C 	C 	0.80450 0.47820 0.56970 -0.09900
C 	C 	0.78960 0.53880 0.54950 0.07000
H 	H 	0.79530 0.58380 0.56580 0.01200
C 	C 	0.82940 0.49150 0.61670 0.32300
C 	C 	0.65790 0.54330 0.63860 0.50100
C 	C 	0.69928 0.58090 0.56370 0.12400
H 	H 	0.69740 0.53870 0.53670 -0.00800
C 	C 	0.67981 0.59650 0.61860 -0.20900
C 	C 	0.68247 0.66110 0.65510 0.13000
H 	H 	0.66970 0.67440 0.68950 -0.02900
C 	C 	0.70422 0.70600 0.64030 -0.16200
H 	H 	0.70590 0.75010 0.66400 0.09000
C 	C 	0.72368 0.68450 0.58970 0.06700
C 	C 	0.74890 0.72330 0.57710 0.04300
C 	C 	0.75670 0.78360 0.61930 -0.12800
H 	H 	0.74480 0.80430 0.65220 0.07600
C 	C 	0.78238 0.81070 0.61040 0.07100
H 	H 	0.78820 0.84900 0.63900 0.01500
C 	C 	0.79990 0.78060 0.55800 -0.15800
C 	C 	0.79010 0.72360 0.51650 0.09900
H 	H 	0.80130 0.70400 0.48100 0.00000
C 	C 	0.82840 0.80790 0.55040 0.41900
C 	C 	0.66090 0.43150 0.79710 0.49500
C 	C 	0.70430 0.40690 0.86700 0.11900
H 	H 	0.70150 0.45020 0.89140 -0.00700
C 	C 	0.68520 0.38500 0.81660 -0.19700
C 	C 	0.68850 0.31980 0.78270 0.11200
H 	H 	0.67530 0.30290 0.75110 -0.00100
C 	C 	0.71160 0.27900 0.79570 -0.15100
H 	H 	0.71440 0.23520 0.77230 0.08500
C 	C 	0.73050 0.30590 0.84510 0.05900
C 	C 	0.75690 0.27100 0.85920 0.05000
C 	C 	0.76620 0.20920 0.82180 -0.14200
H 	H 	0.75520 0.18700 0.78760 0.07900
C 	C 	0.79130 0.18240 0.83630 0.08800
H 	H 	0.79760 0.14200 0.81170 0.00200
C 	C 	0.80720 0.21540 0.88740 -0.16600
C 	C 	0.79740 0.27650 0.92330 0.09700
H 	H 	0.80850 0.29940 0.95700 0.00300
C 	C 	0.83530 0.18770 0.90910 0.43300
Eu	Eu	0.12131 0.91932 0.19833 2.09600
Eu	Eu	0.87778 0.89886 0.64371 2.03900
Eu	Eu	0.12434 0.02157 0.79880 1.94500
Co	Co	0.24658 0.88342 0.53495 1.14400
Co	Co	0.00235 0.74815 0.38617 1.16000
O 	O 	0.89987 0.78920 0.61630 -0.49300
O 	O 	0.91065 0.69180 0.55070 -0.28500
O 	O 	0.09297 0.00580 0.37040 -0.56300
O 	O 	0.08848 0.91060 0.29500 -0.51400
O 	O 	0.08689 0.08650 0.70690 -0.35700
O 	O 	0.07714 0.05380 0.81650 -0.42800
O 	O 	0.90346 0.41450 0.66360 -0.37700
O 	O 	0.90019 0.43220 0.78140 -0.37000
O 	O 	0.08693 0.74660 0.08610 -0.29400
O 	O 	0.08655 0.85320 0.14170 -0.51600
O 	O 	0.91399 0.87480 0.73790 -0.45400
O 	O 	0.90441 0.97490 0.79930 -0.52200
O 	O 	0.14782 0.06550 0.69340 -0.42400
O 	O 	0.15962 0.95520 0.72230 -0.37200
O 	O 	0.34731 0.05690 0.38100 -0.36300
O 	O 	0.33151 0.94930 0.35000 -0.41200
O 	O 	0.15441 0.01090 0.39990 -0.49200
O 	O 	0.14546 0.94220 0.30380 -0.57200
O 	O 	0.33889 0.69330 0.51140 -0.29200
O 	O 	0.33978 0.66880 0.39460 -0.48700
O 	O 	0.14615 0.09360 0.25370 -0.56000
O 	O 	0.15701 0.01150 0.16870 -0.46000
O 	O 	0.34621 0.35480 0.13500 -0.53200
O 	O 	0.34463 0.29010 0.03270 -0.28600
O 	O 	0.11545 0.96250 0.07070 -0.69000
H 	H 	0.10580 0.92450 0.06540 0.27300
H 	H 	0.13200 0.95010 0.06570 0.28300
O 	O 	0.11432 0.05560 0.92550 -0.45300
H 	H 	0.09860 0.06740 0.93980 0.27500
H 	H 	0.11600 0.06960 0.88190 -0.02700
N 	N 	0.97731 0.79000 0.46270 -0.24500
N 	N 	0.02292 0.83560 0.40840 -0.26500
N 	N 	0.01436 0.20740 0.69730 -0.26300
N 	N 	0.97271 0.28980 0.68970 -0.25000
N 	N 	0.01944 0.80540 0.96550 -0.25700
N 	N 	0.97867 0.83670 0.88090 -0.26200
N 	N 	0.22597 0.96620 0.57970 -0.25000
N 	N 	0.26748 0.96530 0.49270 -0.25100
N 	N 	0.21981 0.87570 0.45010 -0.25600
N 	N 	0.26543 0.80400 0.47450 -0.24400
N 	N 	0.22672 0.13140 0.11770 -0.25500
N 	N 	0.27261 0.19690 0.08950 -0.25000
C 	C 	0.91470 0.75420 0.57360 0.41100
C 	C 	0.95334 0.76410 0.48650 0.09900
H 	H 	0.94520 0.72670 0.46090 0.00600
C 	C 	0.94040 0.79110 0.54760 -0.17700
C 	C 	0.95208 0.84840 0.58440 0.08200
H 	H 	0.94360 0.86800 0.62480 -0.00800
C 	C 	0.97670 0.87610 0.56020 -0.14000
H 	H 	0.98490 0.91410 0.58450 0.07800
C 	C 	0.98878 0.84630 0.49930 0.04800
C 	C 	0.01409 0.87140 0.46850 0.06100
C 	C 	0.02916 0.92910 0.49580 -0.15400
H 	H 	0.02400 0.95130 0.53880 0.08500
C 	C 	0.05155 0.95300 0.45940 0.11400
H 	H 	0.06170 0.99110 0.47760 -0.00600
C 	C 	0.05893 0.91980 0.39510 -0.20100
C 	C 	0.04457 0.85950 0.37190 0.12300
H 	H 	0.05010 0.83540 0.33020 -0.01100
C 	C 	0.08246 0.94700 0.34890 0.51400
C 	C 	0.07220 0.08840 0.75980 0.35800
C 	C 	0.03600 0.16120 0.69610 0.08500
H 	H 	0.04290 0.14640 0.65180 0.00200
C 	C 	0.04780 0.13590 0.75940 -0.13600
C 	C 	0.03820 0.15840 0.82440 0.06600
H 	H 	0.04610 0.14250 0.86710 0.02600
C 	C 	0.01620 0.20560 0.82660 -0.13000
H 	H 	0.00930 0.22170 0.87050 0.08200
C 	C 	0.00500 0.22790 0.76140 0.06400
C 	C 	0.98110 0.27660 0.75760 0.04700
C 	C 	0.96850 0.30500 0.81690 -0.10700
H 	H 	0.97540 0.29650 0.86310 0.07100
C 	C 	0.94530 0.34700 0.80780 0.04100
H 	H 	0.93640 0.36670 0.84750 0.04600
C 	C 	0.93600 0.35840 0.73940 -0.10500
C 	C 	0.95060 0.33010 0.68120 0.07800
H 	H 	0.94460 0.33980 0.63450 0.01100
C 	C 	0.91110 0.40330 0.72620 0.32000
C 	C 	0.07770 0.80630 0.09940 0.43100
C 	C 	0.04210 0.78890 0.00010 0.09300
H 	H 	0.05250 0.75030 0.98350 0.00400
C 	C 	0.05120 0.82750 0.06100 -0.15800
C 	C 	0.03539 0.88450 0.08430 0.07500
H 	H 	0.04070 0.91110 0.12470 0.01200
C 	C 	0.01160 0.90260 0.04780 -0.13700
H 	H 	0.00070 0.94020 0.06410 0.07900
C 	C 	0.00457 0.86320 0.98660 0.05200
C 	C 	0.98113 0.87960 0.93940 0.06100
C 	C 	0.96270 0.93240 0.95420 -0.14100
H 	H 	0.96440 0.95990 0.99610 0.08500
C 	C 	0.94136 0.94520 0.90650 0.09400
H 	H 	0.92850 0.98040 0.91650 0.02100
C 	C 	0.93978 0.90390 0.84330 -0.18400
C 	C 	0.95895 0.84990 0.83310 0.11600
H 	H 	0.95800 0.82180 0.79140 -0.00500
C 	C 	0.91790 0.91840 0.78830 0.48200
C 	C 	0.16360 0.01240 0.68750 0.33100
C 	C 	0.20380 0.96200 0.62160 0.08100
H 	H 	0.19850 0.91670 0.63790 0.00600
C 	C 	0.18860 0.02070 0.64180 -0.11300
C 	C 	0.19690 0.08900 0.61980 0.04200
H 	H 	0.18700 0.12990 0.63230 0.04000
C 	C 	0.22070 0.09430 0.57810 -0.11000
H 	H 	0.22680 0.13930 0.56270 0.07400
C 	C 	0.23480 0.03340 0.56010 0.05000
C 	C 	0.25960 0.03280 0.51520 0.04700
C 	C 	0.27390 0.09360 0.49680 -0.10800
H 	H 	0.26790 0.13870 0.51210 0.07300
C 	C 	0.29740 0.08790 0.45550 0.03700
H 	H 	0.30790 0.12830 0.44530 0.04000
C 	C 	0.30450 0.02180 0.43030 -0.09900
C 	C 	0.28960 0.96120 0.45050 0.07000
H 	H 	0.29530 0.91620 0.43420 0.01200
C 	C 	0.32940 0.00850 0.38330 0.32300
C 	C 	0.15790 0.95670 0.36140 0.50000
C 	C 	0.19928 0.91910 0.43630 0.12400
H 	H 	0.19740 0.96130 0.46330 -0.00800
C 	C 	0.17981 0.90350 0.38140 -0.20800
C 	C 	0.18247 0.83890 0.34490 0.13000
H 	H 	0.16970 0.82560 0.31050 -0.02900
C 	C 	0.20422 0.79400 0.35970 -0.16200
H 	H 	0.20590 0.74990 0.33600 0.09000
C 	C 	0.22368 0.81550 0.41030 0.06700
C 	C 	0.24890 0.77670 0.42290 0.04300
C 	C 	0.25670 0.71640 0.38070 -0.12800
H 	H 	0.24480 0.69570 0.34780 0.07600
C 	C 	0.28238 0.68930 0.38960 0.07100
H 	H 	0.28820 0.65100 0.36100 0.01500
C 	C 	0.29990 0.71940 0.44200 -0.15800
C 	C 	0.29010 0.77640 0.48350 0.09900
H 	H 	0.30130 0.79600 0.51900 0.00000
C 	C 	0.32840 0.69210 0.44960 0.41900
C 	C 	0.16090 0.06850 0.20290 0.49500
C 	C 	0.20430 0.09310 0.13300 0.11900
H 	H 	0.20150 0.04980 0.10860 -0.00600
C 	C 	0.18520 0.11500 0.18340 -0.19600
C 	C 	0.18850 0.18020 0.21730 0.11200
H 	H 	0.17530 0.19710 0.24890 -0.00100
C 	C 	0.21160 0.22100 0.20430 -0.15100
H 	H 	0.21440 0.26480 0.22770 0.08500
C 	C 	0.23050 0.19410 0.15490 0.06000
C 	C 	0.25690 0.22900 0.14080 0.05000
C 	C 	0.26620 0.29080 0.17820 -0.14100
H 	H 	0.25520 0.31300 0.21240 0.07900
C 	C 	0.29130 0.31760 0.16370 0.08800
H 	H 	0.29760 0.35800 0.18830 0.00300
C 	C 	0.30720 0.28460 0.11260 -0.16500
C 	C 	0.29740 0.22350 0.07670 0.09700
H 	H 	0.30850 0.20060 0.04300 0.00400
C 	C 	0.33530 0.31230 0.09090 0.43400
Eu	Eu	0.37869 0.08068 0.69833 2.09700
Eu	Eu	0.62222 0.10114 0.14371 2.04000
Eu	Eu	0.37566 0.97843 0.29880 1.94500
Co	Co	0.25342 0.11658 0.03495 1.14500
Co	Co	0.49765 0.25185 0.88617 1.16000
O 	O 	0.60013 0.21080 0.11630 -0.49200
O 	O 	0.58935 0.30820 0.05070 -0.28400
O 	O 	0.40703 0.99420 0.87040 -0.56200
O 	O 	0.41152 0.08940 0.79500 -0.51400
O 	O 	0.41311 0.91350 0.20690 -0.35700
O 	O 	0.42286 0.94620 0.31650 -0.42800
O 	O 	0.59654 0.58550 0.16360 -0.37700
O 	O 	0.59981 0.56780 0.28140 -0.37000
O 	O 	0.41307 0.25340 0.58610 -0.29400
O 	O 	0.41345 0.14680 0.64170 -0.51600
O 	O 	0.58601 0.12520 0.23790 -0.45400
O 	O 	0.59559 0.02510 0.29930 -0.52200
O 	O 	0.35218 0.93450 0.19340 -0.42500
O 	O 	0.34038 0.04480 0.22230 -0.37200
O 	O 	0.15269 0.94310 0.88100 -0.36100
O 	O 	0.16849 0.05070 0.85000 -0.41200
O 	O 	0.34559 0.98910 0.89990 -0.49000
O 	O 	0.35454 0.05780 0.80380 -0.57100
O 	O 	0.16111 0.30670 0.01140 -0.29300
O 	O 	0.16022 0.33120 0.89460 -0.48700
O 	O 	0.35385 0.90640 0.75370 -0.56100
O 	O 	0.34299 0.98850 0.66870 -0.46000
O 	O 	0.15379 0.64520 0.63500 -0.53200
O 	O 	0.15537 0.70990 0.53270 -0.28600
O 	O 	0.38455 0.03750 0.57070 -0.68900
H 	H 	0.39420 0.07550 0.56540 0.27300
H 	H 	0.36800 0.04990 0.56570 0.28400
O 	O 	0.38568 0.94440 0.42550 -0.45200
H 	H 	0.40140 0.93260 0.43980 0.27500
H 	H 	0.38400 0.93040 0.38190 -0.02800
N 	N 	0.52269 0.21000 0.96270 -0.24300
N 	N 	0.47708 0.16440 0.90840 -0.26600
N 	N 	0.48564 0.79260 0.19730 -0.26300
N 	N 	0.52729 0.71020 0.18970 -0.25000
N 	N 	0.48056 0.19460 0.46550 -0.25900
N 	N 	0.52133 0.16330 0.38090 -0.26300
N 	N 	0.27403 0.03380 0.07970 -0.25000
N 	N 	0.23252 0.03470 0.99270 -0.24700
N 	N 	0.28019 0.12430 0.95010 -0.25500
N 	N 	0.23457 0.19600 0.97450 -0.24400
N 	N 	0.27328 0.86860 0.61770 -0.25500
N 	N 	0.22739 0.80310 0.58950 -0.25000
C 	C 	0.58530 0.24580 0.07360 0.40900
C 	C 	0.54666 0.23590 0.98650 0.09300
H 	H 	0.55480 0.27330 0.96090 0.00700
C 	C 	0.55960 0.20890 0.04760 -0.17200
C 	C 	0.54792 0.15160 0.08440 0.07700
H 	H 	0.55640 0.13200 0.12480 -0.00600
C 	C 	0.52330 0.12390 0.06020 -0.13200
H 	H 	0.51510 0.08590 0.08450 0.07600
C 	C 	0.51122 0.15370 0.99930 0.04200
C 	C 	0.48591 0.12860 0.96850 0.06500
C 	C 	0.47084 0.07090 0.99580 -0.16300
H 	H 	0.47600 0.04870 0.03880 0.09000
C 	C 	0.44845 0.04700 0.95940 0.11900
H 	H 	0.43830 0.00890 0.97760 -0.00800
C 	C 	0.44107 0.08020 0.89510 -0.20300
C 	C 	0.45543 0.14050 0.87190 0.12400
H 	H 	0.44990 0.16460 0.83020 -0.01100
C 	C 	0.41754 0.05300 0.84890 0.51300
C 	C 	0.42780 0.91160 0.25980 0.35800
C 	C 	0.46400 0.83880 0.19610 0.08500
H 	H 	0.45710 0.85360 0.15180 0.00200
C 	C 	0.45220 0.86410 0.25940 -0.13600
C 	C 	0.46180 0.84160 0.32440 0.06600
H 	H 	0.45390 0.85750 0.36710 0.02600
C 	C 	0.48380 0.79440 0.32660 -0.13000
H 	H 	0.49070 0.77830 0.37050 0.08200
C 	C 	0.49500 0.77210 0.26140 0.06400
C 	C 	0.51890 0.72340 0.25760 0.04700
C 	C 	0.53150 0.69500 0.31690 -0.10700
H 	H 	0.52460 0.70350 0.36310 0.07100
C 	C 	0.55470 0.65300 0.30780 0.04100
H 	H 	0.56360 0.63330 0.34750 0.04700
C 	C 	0.56400 0.64160 0.23940 -0.10500
C 	C 	0.54940 0.66990 0.18120 0.07800
H 	H 	0.55540 0.66020 0.13450 0.01000
C 	C 	0.58890 0.59670 0.22620 0.32000
C 	C 	0.42230 0.19370 0.59940 0.43200
C 	C 	0.45790 0.21110 0.50010 0.10000
H 	H 	0.44750 0.24970 0.48350 0.00000
C 	C 	0.44880 0.17250 0.56100 -0.16000
C 	C 	0.46461 0.11550 0.58430 0.07500
H 	H 	0.45930 0.08890 0.62470 0.01200
C 	C 	0.48840 0.09740 0.54780 -0.13300
H 	H 	0.49930 0.05980 0.56410 0.07800
C 	C 	0.49543 0.13680 0.48660 0.04900
C 	C 	0.51887 0.12040 0.43940 0.06200
C 	C 	0.53730 0.06760 0.45420 -0.14200
H 	H 	0.53560 0.04010 0.49610 0.08400
C 	C 	0.55864 0.05480 0.40650 0.09500
H 	H 	0.57150 0.01960 0.41650 0.02000
C 	C 	0.56022 0.09610 0.34330 -0.18400
C 	C 	0.54105 0.15010 0.33310 0.11600
H 	H 	0.54200 0.17820 0.29140 -0.00500
C 	C 	0.58210 0.08160 0.28830 0.48300
C 	C 	0.33640 0.98760 0.18750 0.33200
C 	C 	0.29620 0.03800 0.12160 0.08300
H 	H 	0.30150 0.08330 0.13790 0.00500
C 	C 	0.31140 0.97930 0.14180 -0.11600
C 	C 	0.30310 0.91100 0.11980 0.04500
H 	H 	0.31300 0.87010 0.13230 0.03900
C 	C 	0.27930 0.90570 0.07810 -0.11400
H 	H 	0.27320 0.86070 0.06270 0.07400
C 	C 	0.26520 0.96660 0.06010 0.05300
C 	C 	0.24040 0.96720 0.01520 0.03100
C 	C 	0.22610 0.90640 0.99680 -0.08100
H 	H 	0.23210 0.86130 0.01210 0.06000
C 	C 	0.20260 0.91210 0.95550 0.02100
H 	H 	0.19210 0.87170 0.94530 0.04700
C 	C 	0.19550 0.97820 0.93030 -0.08800
C 	C 	0.21040 0.03880 0.95050 0.06200
H 	H 	0.20470 0.08380 0.93420 0.01400
C 	C 	0.17060 0.99150 0.88330 0.32200
C 	C 	0.34210 0.04330 0.86140 0.49800
C 	C 	0.30072 0.08090 0.93630 0.12300
H 	H 	0.30260 0.03870 0.96330 -0.00800
C 	C 	0.32019 0.09650 0.88140 -0.20800
C 	C 	0.31753 0.16110 0.84490 0.12900
H 	H 	0.33030 0.17440 0.81050 -0.02900
C 	C 	0.29578 0.20600 0.85970 -0.16100
H 	H 	0.29410 0.25010 0.83600 0.08900
C 	C 	0.27632 0.18450 0.91030 0.06700
C 	C 	0.25110 0.22330 0.92290 0.04400
C 	C 	0.24330 0.28360 0.88070 -0.12800
H 	H 	0.25520 0.30430 0.84780 0.07600
C 	C 	0.21762 0.31070 0.88960 0.07100
H 	H 	0.21180 0.34900 0.86100 0.01500
C 	C 	0.20010 0.28060 0.94200 -0.15800
C 	C 	0.20990 0.22360 0.98350 0.10100
H 	H 	0.19870 0.20400 0.01900 -0.00000
C 	C 	0.17160 0.30790 0.94960 0.42100
C 	C 	0.33910 0.93150 0.70290 0.49600
C 	C 	0.29570 0.90690 0.63300 0.11900
H 	H 	0.29850 0.95020 0.60860 -0.00600
C 	C 	0.31480 0.88500 0.68340 -0.19600
C 	C 	0.31150 0.81980 0.71730 0.11200
H 	H 	0.32470 0.80290 0.74890 -0.00100
C 	C 	0.28840 0.77900 0.70430 -0.15100
H 	H 	0.28560 0.73520 0.72770 0.08500
C 	C 	0.26950 0.80590 0.65490 0.06000
C 	C 	0.24310 0.77100 0.64080 0.05000
C 	C 	0.23380 0.70920 0.67820 -0.14100
H 	H 	0.24480 0.68700 0.71240 0.07900
C 	C 	0.20870 0.68240 0.66370 0.08800
H 	H 	0.20240 0.64200 0.68830 0.00300
C 	C 	0.19280 0.71540 0.61260 -0.16500
C 	C 	0.20260 0.77650 0.57670 0.09700
H 	H 	0.19150 0.79940 0.54300 0.00400
C 	C 	0.16470 0.68770 0.59090 0.43400
