data_crystal

_cell_length_a 10.88940
_cell_length_b 10.88940
_cell_length_c 19.68030
_cell_angle_alpha 75.71560
_cell_angle_beta  75.71560
_cell_angle_gamma 64.67260

_symmetry_space_group_name_	'P 1'
_symmetry_space_group_name_H-M	'P 1'

loop_
_symmetry_equiv_pos_as_xyz
  x,y,z

loop_
_atom_site_label
_atom_site_type_symbol
_atom_site_fract_x
_atom_site_fract_y
_atom_site_fract_z
_atom_site_charge
Er	Er	0.59459 0.25507 0.08330 1.57700
Er	Er	0.74493 0.40541 0.41670 1.57700
Er	Er	0.40541 0.74493 0.91670 1.57600
Er	Er	0.25507 0.59459 0.58330 1.57600
H 	H 	0.20150 0.31190 0.27550 0.03800
H 	H 	0.16940 0.40080 0.46680 0.02900
H 	H 	0.51940 0.34400 0.32750 0.02300
H 	H 	0.68810 0.79850 0.22450 0.03800
H 	H 	0.59920 0.83060 0.03320 0.02900
H 	H 	0.65600 0.48060 0.17250 0.02300
H 	H 	0.79850 0.68810 0.72450 0.03800
H 	H 	0.83060 0.59920 0.53320 0.02900
H 	H 	0.48060 0.65600 0.67250 0.02300
H 	H 	0.31190 0.20150 0.77550 0.03800
H 	H 	0.40080 0.16940 0.96680 0.02900
H 	H 	0.34400 0.51940 0.82750 0.02300
C 	C 	0.45340 0.29820 0.21730 0.33100
C 	C 	0.01700 0.36820 0.39150 0.34900
C 	C 	0.41550 0.40670 0.45640 0.45400
C 	C 	0.37360 0.32120 0.28970 -0.12200
C 	C 	0.24050 0.32710 0.30800 0.05800
C 	C 	0.16410 0.35530 0.37400 -0.13300
C 	C 	0.22070 0.38070 0.42260 0.07700
C 	C 	0.35390 0.37610 0.40490 -0.17900
C 	C 	0.43020 0.34680 0.33920 0.07600
C 	C 	0.70180 0.54660 0.28270 0.33000
C 	C 	0.63180 0.98300 0.10850 0.34400
C 	C 	0.59330 0.58450 0.04360 0.45300
C 	C 	0.67880 0.62640 0.21030 -0.12200
C 	C 	0.67290 0.75950 0.19200 0.05700
C 	C 	0.64470 0.83590 0.12600 -0.13100
C 	C 	0.61930 0.77930 0.07740 0.07600
C 	C 	0.62390 0.64610 0.09510 -0.17800
C 	C 	0.65320 0.56980 0.16080 0.07600
C 	C 	0.54660 0.70180 0.78270 0.33100
C 	C 	0.98300 0.63180 0.60850 0.34900
C 	C 	0.58450 0.59330 0.54360 0.45400
C 	C 	0.62640 0.67880 0.71030 -0.12200
C 	C 	0.75950 0.67290 0.69200 0.05800
C 	C 	0.83590 0.64470 0.62600 -0.13300
C 	C 	0.77930 0.61930 0.57740 0.07700
C 	C 	0.64610 0.62390 0.59510 -0.17900
C 	C 	0.56980 0.65320 0.66080 0.07600
C 	C 	0.29820 0.45340 0.71730 0.33000
C 	C 	0.36820 0.01700 0.89150 0.34400
C 	C 	0.40670 0.41550 0.95640 0.45300
C 	C 	0.32120 0.37360 0.78970 -0.12200
C 	C 	0.32710 0.24050 0.80800 0.05700
C 	C 	0.35530 0.16410 0.87400 -0.13100
C 	C 	0.38070 0.22070 0.92260 0.07600
C 	C 	0.37610 0.35390 0.90490 -0.17800
C 	C 	0.34680 0.43020 0.83920 0.07600
O 	O 	0.39500 0.29340 0.17030 -0.38100
O 	O 	0.57700 0.28340 0.20360 -0.38500
O 	O 	0.97150 0.33270 0.35030 -0.41500
O 	O 	0.94190 0.41050 0.44590 -0.42000
O 	O 	0.35060 0.41780 0.51840 -0.46400
O 	O 	0.52850 0.41990 0.43410 -0.51200
O 	O 	0.70660 0.60500 0.32970 -0.38200
O 	O 	0.71660 0.42300 0.29640 -0.38500
O 	O 	0.66730 0.02850 0.14970 -0.41200
O 	O 	0.58950 0.05810 0.05410 -0.41800
O 	O 	0.58220 0.64940 0.98160 -0.46300
O 	O 	0.58010 0.47150 0.06590 -0.51200
O 	O 	0.60500 0.70660 0.82970 -0.38100
O 	O 	0.42300 0.71660 0.79640 -0.38500
O 	O 	0.02850 0.66730 0.64970 -0.41500
O 	O 	0.05810 0.58950 0.55410 -0.42000
O 	O 	0.64940 0.58220 0.48160 -0.46400
O 	O 	0.47150 0.58010 0.56590 -0.51200
O 	O 	0.29340 0.39500 0.67030 -0.38200
O 	O 	0.28340 0.57700 0.70360 -0.38500
O 	O 	0.33270 0.97150 0.85030 -0.41200
O 	O 	0.41050 0.94190 0.94590 -0.41800
O 	O 	0.41780 0.35060 0.01840 -0.46300
O 	O 	0.41990 0.52850 0.93410 -0.51200
