data_crystal

_cell_length_a 19.50500
_cell_length_b 19.50500
_cell_length_c 19.50500
_cell_angle_alpha 90.00000
_cell_angle_beta  90.00000
_cell_angle_gamma 90.00000

_symmetry_space_group_name_	'P 1'
_symmetry_space_group_name_H-M	'P 1'

loop_
_symmetry_equiv_pos_as_xyz
  x,y,z

loop_
_atom_site_label
_atom_site_type_symbol
_atom_site_fract_x
_atom_site_fract_y
_atom_site_fract_z
_atom_site_charge
N 	N 	0.52890 0.33720 0.17530 -0.21600
C 	C 	0.53190 0.39410 0.13700 0.00200
C 	C 	0.53640 0.45990 0.16210 -0.00200
C 	C 	0.53710 0.46680 0.23410 0.00000
C 	C 	0.53610 0.40810 0.27590 0.00300
C 	C 	0.53250 0.34550 0.24400 -0.00000
C 	C 	0.53940 0.52080 0.12080 -0.04600
C 	C 	0.53830 0.41510 0.35020 -0.05300
H 	H 	0.53090 0.38860 0.08860 0.00000
H 	H 	0.53250 0.30560 0.27190 0.00900
H 	H 	0.54230 0.51660 0.07240 0.03500
H 	H 	0.53900 0.37550 0.37850 0.04600
N 	N 	0.02890 0.83720 0.67530 -0.21500
C 	C 	0.03190 0.89410 0.63700 -0.00800
C 	C 	0.03640 0.95990 0.66210 0.01700
C 	C 	0.03710 0.96680 0.73410 0.00400
C 	C 	0.03610 0.90810 0.77590 0.00700
C 	C 	0.03250 0.84550 0.74400 -0.00400
C 	C 	0.03940 0.02080 0.62080 -0.07300
C 	C 	0.03830 0.91510 0.85020 -0.06400
H 	H 	0.03090 0.88860 0.58860 0.00400
H 	H 	0.03250 0.80560 0.77190 0.00800
H 	H 	0.04230 0.01660 0.57240 0.04000
H 	H 	0.03900 0.87550 0.87850 0.05100
N 	N 	0.97110 0.66280 0.67530 -0.21000
C 	C 	0.96810 0.60590 0.63700 0.00300
C 	C 	0.96360 0.54010 0.66210 0.00300
C 	C 	0.96290 0.53320 0.73410 0.00100
C 	C 	0.96390 0.59190 0.77590 0.00700
C 	C 	0.96750 0.65450 0.74400 0.00100
C 	C 	0.96060 0.47920 0.62080 -0.04500
C 	C 	0.96170 0.58490 0.85020 -0.05100
H 	H 	0.96910 0.61140 0.58860 0.00600
H 	H 	0.96750 0.69440 0.77190 0.01500
H 	H 	0.95770 0.48340 0.57240 0.04200
H 	H 	0.96100 0.62450 0.87850 0.05300
N 	N 	0.47110 0.16280 0.17530 -0.21700
C 	C 	0.46810 0.10590 0.13700 0.01100
C 	C 	0.46360 0.04010 0.16210 -0.02000
C 	C 	0.46290 0.03320 0.23410 -0.00500
C 	C 	0.46390 0.09190 0.27590 -0.00200
C 	C 	0.46750 0.15450 0.24400 0.00200
C 	C 	0.46060 0.97920 0.12080 -0.02200
C 	C 	0.46170 0.08490 0.35020 -0.04400
H 	H 	0.46910 0.11140 0.08860 -0.00400
H 	H 	0.46750 0.19440 0.27190 0.00800
H 	H 	0.45770 0.98340 0.07240 0.03100
H 	H 	0.46100 0.12450 0.37850 0.04200
N 	N 	0.47110 0.83720 0.32470 -0.21300
C 	C 	0.46810 0.89410 0.36300 -0.00700
C 	C 	0.46360 0.95990 0.33790 0.02100
C 	C 	0.46290 0.96680 0.26590 0.00500
C 	C 	0.46390 0.90810 0.22410 0.00800
C 	C 	0.46750 0.84550 0.25600 -0.00300
C 	C 	0.46060 0.02080 0.37920 -0.07300
C 	C 	0.46170 0.91510 0.14980 -0.06400
H 	H 	0.46910 0.88860 0.41140 0.00700
H 	H 	0.46750 0.80560 0.22810 0.00900
H 	H 	0.45770 0.01660 0.42760 0.04300
H 	H 	0.46100 0.87550 0.12150 0.04600
N 	N 	0.97110 0.33720 0.82470 -0.21000
C 	C 	0.96810 0.39410 0.86300 0.00200
C 	C 	0.96360 0.45990 0.83790 0.00400
C 	C 	0.96290 0.46680 0.76590 0.00000
C 	C 	0.96390 0.40810 0.72410 0.00600
C 	C 	0.96750 0.34550 0.75600 0.00100
C 	C 	0.96060 0.52080 0.87920 -0.04500
C 	C 	0.96170 0.41510 0.64980 -0.05200
H 	H 	0.96910 0.38860 0.91140 0.00900
H 	H 	0.96750 0.30560 0.72810 0.01300
H 	H 	0.95770 0.51660 0.92760 0.04700
H 	H 	0.96100 0.37550 0.62150 0.04800
N 	N 	0.02890 0.16280 0.82470 -0.21800
C 	C 	0.03190 0.10590 0.86300 0.00800
C 	C 	0.03640 0.04010 0.83790 -0.02100
C 	C 	0.03710 0.03320 0.76590 -0.00700
C 	C 	0.03610 0.09190 0.72410 -0.00300
C 	C 	0.03250 0.15450 0.75600 0.00100
C 	C 	0.03940 0.97920 0.87920 -0.02300
C 	C 	0.03830 0.08490 0.64980 -0.04600
H 	H 	0.03090 0.11140 0.91140 -0.00300
H 	H 	0.03250 0.19440 0.72810 0.00500
H 	H 	0.04230 0.98340 0.92760 0.03700
H 	H 	0.03900 0.12450 0.62150 0.04000
N 	N 	0.52890 0.66280 0.32470 -0.21500
C 	C 	0.53190 0.60590 0.36300 0.00200
C 	C 	0.53640 0.54010 0.33790 0.00000
C 	C 	0.53710 0.53320 0.26590 -0.00100
C 	C 	0.53610 0.59190 0.22410 0.00300
C 	C 	0.53250 0.65450 0.25600 -0.00100
C 	C 	0.53940 0.47920 0.37920 -0.04700
C 	C 	0.53830 0.58490 0.14980 -0.05400
H 	H 	0.53090 0.61140 0.41140 0.00200
H 	H 	0.53250 0.69440 0.22810 0.00900
H 	H 	0.54230 0.48340 0.42760 0.03900
H 	H 	0.53900 0.62450 0.12150 0.04300
N 	N 	0.58720 0.77890 0.42530 -0.21400
C 	C 	0.64410 0.78190 0.38700 0.00200
C 	C 	0.70990 0.78640 0.41210 -0.00000
C 	C 	0.71680 0.78710 0.48410 0.00000
C 	C 	0.65810 0.78610 0.52590 0.00300
C 	C 	0.59550 0.78250 0.49400 -0.00000
C 	C 	0.77080 0.78940 0.37080 -0.04600
C 	C 	0.66510 0.78830 0.60020 -0.05300
H 	H 	0.63860 0.78090 0.33860 0.00300
H 	H 	0.55560 0.78250 0.52190 0.01000
H 	H 	0.76660 0.79230 0.32240 0.04000
H 	H 	0.62550 0.78900 0.62850 0.04600
N 	N 	0.08720 0.27890 0.92530 -0.23300
C 	C 	0.14410 0.28190 0.88700 0.02800
C 	C 	0.20990 0.28640 0.91210 -0.04600
C 	C 	0.21680 0.28710 0.98410 0.07900
C 	C 	0.15810 0.28610 0.02590 -0.07700
C 	C 	0.09550 0.28250 0.99400 0.07100
C 	C 	0.27080 0.28940 0.87080 -0.00100
C 	C 	0.16510 0.28830 0.10020 -0.00200
H 	H 	0.13860 0.28090 0.83860 -0.00800
H 	H 	0.05560 0.28250 0.02190 -0.02600
H 	H 	0.26660 0.29230 0.82240 0.02400
H 	H 	0.12550 0.28900 0.12850 0.02700
N 	N 	0.91280 0.22110 0.92530 -0.22800
C 	C 	0.85590 0.21810 0.88700 0.03000
C 	C 	0.79010 0.21360 0.91210 -0.04900
C 	C 	0.78320 0.21290 0.98410 0.08600
C 	C 	0.84190 0.21390 0.02590 -0.08500
C 	C 	0.90450 0.21750 0.99400 0.08200
C 	C 	0.72920 0.21060 0.87080 0.00200
C 	C 	0.83490 0.21170 0.10020 0.00400
H 	H 	0.86140 0.21910 0.83860 -0.00500
H 	H 	0.94440 0.21750 0.02190 -0.02300
H 	H 	0.73340 0.20770 0.82240 0.02400
H 	H 	0.87450 0.21100 0.12850 0.02800
N 	N 	0.41280 0.72110 0.42530 -0.21400
C 	C 	0.35590 0.71810 0.38700 0.00100
C 	C 	0.29010 0.71360 0.41210 0.00000
C 	C 	0.28320 0.71290 0.48410 -0.00100
C 	C 	0.34190 0.71390 0.52590 0.00400
C 	C 	0.40450 0.71750 0.49400 -0.00100
C 	C 	0.22920 0.71060 0.37080 -0.04700
C 	C 	0.33490 0.71170 0.60020 -0.05300
H 	H 	0.36140 0.71910 0.33860 0.00200
H 	H 	0.44440 0.71750 0.52190 0.01000
H 	H 	0.23340 0.70770 0.32240 0.03900
H 	H 	0.37450 0.71100 0.62850 0.04600
N 	N 	0.08720 0.72110 0.57470 -0.21700
C 	C 	0.14410 0.71810 0.61300 0.00100
C 	C 	0.20990 0.71360 0.58790 -0.00000
C 	C 	0.21680 0.71290 0.51590 -0.00000
C 	C 	0.15810 0.71390 0.47410 0.00200
C 	C 	0.09550 0.71750 0.50600 -0.00000
C 	C 	0.27080 0.71060 0.62920 -0.04700
C 	C 	0.16510 0.71170 0.39980 -0.05300
H 	H 	0.13860 0.71910 0.66140 0.00100
H 	H 	0.05560 0.71750 0.47810 0.00500
H 	H 	0.26660 0.70770 0.67760 0.04000
H 	H 	0.12550 0.71100 0.37150 0.04500
N 	N 	0.58720 0.22110 0.07470 -0.19700
C 	C 	0.64410 0.21810 0.11300 -0.02600
C 	C 	0.70990 0.21360 0.08790 0.05000
C 	C 	0.71680 0.21290 0.01590 -0.08600
C 	C 	0.65810 0.21390 0.97410 0.09100
C 	C 	0.59550 0.21750 0.00600 -0.08000
C 	C 	0.77080 0.21060 0.12920 -0.09500
C 	C 	0.66510 0.21170 0.89980 -0.10900
H 	H 	0.63860 0.21910 0.16140 0.01100
H 	H 	0.55560 0.21750 0.97810 0.04400
H 	H 	0.76660 0.20770 0.17760 0.05500
H 	H 	0.62550 0.21100 0.87150 0.06500
N 	N 	0.41280 0.27890 0.07470 -0.19800
C 	C 	0.35590 0.28190 0.11300 -0.02400
C 	C 	0.29010 0.28640 0.08790 0.04600
C 	C 	0.28320 0.28710 0.01590 -0.08000
C 	C 	0.34190 0.28610 0.97410 0.08700
C 	C 	0.40450 0.28250 0.00600 -0.07700
C 	C 	0.22920 0.28940 0.12920 -0.09100
C 	C 	0.33490 0.28830 0.89980 -0.10700
H 	H 	0.36140 0.28090 0.16140 0.01000
H 	H 	0.44440 0.28250 0.97810 0.04300
H 	H 	0.23340 0.29230 0.17760 0.05300
H 	H 	0.37450 0.28900 0.87150 0.06400
N 	N 	0.91280 0.77890 0.57470 -0.21000
C 	C 	0.85590 0.78190 0.61300 0.00100
C 	C 	0.79010 0.78640 0.58790 0.00200
C 	C 	0.78320 0.78710 0.51590 -0.00100
C 	C 	0.84190 0.78610 0.47410 0.00600
C 	C 	0.90450 0.78250 0.50600 -0.00100
C 	C 	0.72920 0.78940 0.62920 -0.04800
C 	C 	0.83490 0.78830 0.39980 -0.05400
H 	H 	0.86140 0.78090 0.66140 0.00600
H 	H 	0.94440 0.78250 0.47810 0.01500
H 	H 	0.73340 0.79230 0.67760 0.04100
H 	H 	0.87450 0.78900 0.37150 0.04800
Cu	Cu	0.50000 0.25000 0.12500 0.84900
Cu	Cu	0.00000 0.75000 0.62500 0.84300
Cu	Cu	0.50000 0.75000 0.37500 0.85000
Cu	Cu	0.00000 0.25000 0.87500 0.84400
N 	N 	0.17530 0.52890 0.33720 -0.21500
C 	C 	0.13700 0.53190 0.39410 0.00300
C 	C 	0.16210 0.53640 0.45990 -0.00100
C 	C 	0.23410 0.53710 0.46680 0.00000
C 	C 	0.27590 0.53610 0.40810 0.00300
C 	C 	0.24400 0.53250 0.34550 -0.00000
C 	C 	0.12080 0.53940 0.52080 -0.04600
C 	C 	0.35020 0.53830 0.41510 -0.05300
H 	H 	0.08860 0.53090 0.38860 0.00000
H 	H 	0.27190 0.53250 0.30560 0.00900
H 	H 	0.07240 0.54230 0.51660 0.03500
H 	H 	0.37850 0.53900 0.37550 0.04600
N 	N 	0.67530 0.02890 0.83720 -0.21500
C 	C 	0.63700 0.03190 0.89410 -0.00800
C 	C 	0.66210 0.03640 0.95990 0.01700
C 	C 	0.73410 0.03710 0.96680 0.00400
C 	C 	0.77590 0.03610 0.90810 0.00700
C 	C 	0.74400 0.03250 0.84550 -0.00400
C 	C 	0.62080 0.03940 0.02080 -0.07300
C 	C 	0.85020 0.03830 0.91510 -0.06400
H 	H 	0.58860 0.03090 0.88860 0.00400
H 	H 	0.77190 0.03250 0.80560 0.00800
H 	H 	0.57240 0.04230 0.01660 0.04000
H 	H 	0.87850 0.03900 0.87550 0.05100
N 	N 	0.67530 0.97110 0.66280 -0.21000
C 	C 	0.63700 0.96810 0.60590 0.00300
C 	C 	0.66210 0.96360 0.54010 0.00300
C 	C 	0.73410 0.96290 0.53320 0.00100
C 	C 	0.77590 0.96390 0.59190 0.00700
C 	C 	0.74400 0.96750 0.65450 0.00100
C 	C 	0.62080 0.96060 0.47920 -0.04500
C 	C 	0.85020 0.96170 0.58490 -0.05100
H 	H 	0.58860 0.96910 0.61140 0.00600
H 	H 	0.77190 0.96750 0.69440 0.01500
H 	H 	0.57240 0.95770 0.48340 0.04200
H 	H 	0.87850 0.96100 0.62450 0.05300
N 	N 	0.17530 0.47110 0.16280 -0.21700
C 	C 	0.13700 0.46810 0.10590 0.01100
C 	C 	0.16210 0.46360 0.04010 -0.02000
C 	C 	0.23410 0.46290 0.03320 -0.00500
C 	C 	0.27590 0.46390 0.09190 -0.00200
C 	C 	0.24400 0.46750 0.15450 0.00200
C 	C 	0.12080 0.46060 0.97920 -0.02200
C 	C 	0.35020 0.46170 0.08490 -0.04400
H 	H 	0.08860 0.46910 0.11140 -0.00400
H 	H 	0.27190 0.46750 0.19440 0.00800
H 	H 	0.07240 0.45770 0.98340 0.03100
H 	H 	0.37850 0.46100 0.12450 0.04200
N 	N 	0.32470 0.47110 0.83720 -0.21300
C 	C 	0.36300 0.46810 0.89410 -0.00700
C 	C 	0.33790 0.46360 0.95990 0.02100
C 	C 	0.26590 0.46290 0.96680 0.00500
C 	C 	0.22410 0.46390 0.90810 0.00800
C 	C 	0.25600 0.46750 0.84550 -0.00300
C 	C 	0.37920 0.46060 0.02080 -0.07300
C 	C 	0.14980 0.46170 0.91510 -0.06400
H 	H 	0.41140 0.46910 0.88860 0.00700
H 	H 	0.22810 0.46750 0.80560 0.00900
H 	H 	0.42760 0.45770 0.01660 0.04300
H 	H 	0.12150 0.46100 0.87550 0.04600
N 	N 	0.82470 0.97110 0.33720 -0.21000
C 	C 	0.86300 0.96810 0.39410 0.00200
C 	C 	0.83790 0.96360 0.45990 0.00400
C 	C 	0.76590 0.96290 0.46680 0.00000
C 	C 	0.72410 0.96390 0.40810 0.00600
C 	C 	0.75600 0.96750 0.34550 0.00100
C 	C 	0.87920 0.96060 0.52080 -0.04500
C 	C 	0.64980 0.96170 0.41510 -0.05200
H 	H 	0.91140 0.96910 0.38860 0.00900
H 	H 	0.72810 0.96750 0.30560 0.01300
H 	H 	0.92760 0.95770 0.51660 0.04700
H 	H 	0.62150 0.96100 0.37550 0.04800
N 	N 	0.82470 0.02890 0.16280 -0.21800
C 	C 	0.86300 0.03190 0.10590 0.00800
C 	C 	0.83790 0.03640 0.04010 -0.02100
C 	C 	0.76590 0.03710 0.03320 -0.00700
C 	C 	0.72410 0.03610 0.09190 -0.00300
C 	C 	0.75600 0.03250 0.15450 0.00100
C 	C 	0.87920 0.03940 0.97920 -0.02300
C 	C 	0.64980 0.03830 0.08490 -0.04600
H 	H 	0.91140 0.03090 0.11140 -0.00300
H 	H 	0.72810 0.03250 0.19440 0.00500
H 	H 	0.92760 0.04230 0.98340 0.03700
H 	H 	0.62150 0.03900 0.12450 0.04000
N 	N 	0.32470 0.52890 0.66280 -0.21500
C 	C 	0.36300 0.53190 0.60590 0.00200
C 	C 	0.33790 0.53640 0.54010 0.00000
C 	C 	0.26590 0.53710 0.53320 -0.00100
C 	C 	0.22410 0.53610 0.59190 0.00300
C 	C 	0.25600 0.53250 0.65450 -0.00100
C 	C 	0.37920 0.53940 0.47920 -0.04700
C 	C 	0.14980 0.53830 0.58490 -0.05400
H 	H 	0.41140 0.53090 0.61140 0.00200
H 	H 	0.22810 0.53250 0.69440 0.00900
H 	H 	0.42760 0.54230 0.48340 0.03900
H 	H 	0.12150 0.53900 0.62450 0.04300
N 	N 	0.42530 0.58720 0.77890 -0.21400
C 	C 	0.38700 0.64410 0.78190 0.00200
C 	C 	0.41210 0.70990 0.78640 -0.00000
C 	C 	0.48410 0.71680 0.78710 0.00000
C 	C 	0.52590 0.65810 0.78610 0.00300
C 	C 	0.49400 0.59550 0.78250 -0.00000
C 	C 	0.37080 0.77080 0.78940 -0.04600
C 	C 	0.60020 0.66510 0.78830 -0.05300
H 	H 	0.33860 0.63860 0.78090 0.00300
H 	H 	0.52190 0.55560 0.78250 0.01000
H 	H 	0.32240 0.76660 0.79230 0.04000
H 	H 	0.62850 0.62550 0.78900 0.04600
N 	N 	0.92530 0.08720 0.27890 -0.23300
C 	C 	0.88700 0.14410 0.28190 0.02800
C 	C 	0.91210 0.20990 0.28640 -0.04600
C 	C 	0.98410 0.21680 0.28710 0.07900
C 	C 	0.02590 0.15810 0.28610 -0.07700
C 	C 	0.99400 0.09550 0.28250 0.07100
C 	C 	0.87080 0.27080 0.28940 -0.00100
C 	C 	0.10020 0.16510 0.28830 -0.00200
H 	H 	0.83860 0.13860 0.28090 -0.00800
H 	H 	0.02190 0.05560 0.28250 -0.02600
H 	H 	0.82240 0.26660 0.29230 0.02400
H 	H 	0.12850 0.12550 0.28900 0.02700
N 	N 	0.92530 0.91280 0.22110 -0.22800
C 	C 	0.88700 0.85590 0.21810 0.03000
C 	C 	0.91210 0.79010 0.21360 -0.04900
C 	C 	0.98410 0.78320 0.21290 0.08600
C 	C 	0.02590 0.84190 0.21390 -0.08500
C 	C 	0.99400 0.90450 0.21750 0.08200
C 	C 	0.87080 0.72920 0.21060 0.00200
C 	C 	0.10020 0.83490 0.21170 0.00400
H 	H 	0.83860 0.86140 0.21910 -0.00500
H 	H 	0.02190 0.94440 0.21750 -0.02300
H 	H 	0.82240 0.73340 0.20770 0.02400
H 	H 	0.12850 0.87450 0.21100 0.02800
N 	N 	0.42530 0.41280 0.72110 -0.21400
C 	C 	0.38700 0.35590 0.71810 0.00100
C 	C 	0.41210 0.29010 0.71360 0.00000
C 	C 	0.48410 0.28320 0.71290 -0.00100
C 	C 	0.52590 0.34190 0.71390 0.00400
C 	C 	0.49400 0.40450 0.71750 -0.00100
C 	C 	0.37080 0.22920 0.71060 -0.04700
C 	C 	0.60020 0.33490 0.71170 -0.05300
H 	H 	0.33860 0.36140 0.71910 0.00200
H 	H 	0.52190 0.44440 0.71750 0.01000
H 	H 	0.32240 0.23340 0.70770 0.03900
H 	H 	0.62850 0.37450 0.71100 0.04600
N 	N 	0.57470 0.08720 0.72110 -0.21700
C 	C 	0.61300 0.14410 0.71810 0.00100
C 	C 	0.58790 0.20990 0.71360 -0.00000
C 	C 	0.51590 0.21680 0.71290 -0.00000
C 	C 	0.47410 0.15810 0.71390 0.00200
C 	C 	0.50600 0.09550 0.71750 -0.00000
C 	C 	0.62920 0.27080 0.71060 -0.04700
C 	C 	0.39980 0.16510 0.71170 -0.05300
H 	H 	0.66140 0.13860 0.71910 0.00100
H 	H 	0.47810 0.05560 0.71750 0.00500
H 	H 	0.67760 0.26660 0.70770 0.04000
H 	H 	0.37150 0.12550 0.71100 0.04500
N 	N 	0.07470 0.58720 0.22110 -0.19700
C 	C 	0.11300 0.64410 0.21810 -0.02600
C 	C 	0.08790 0.70990 0.21360 0.05000
C 	C 	0.01590 0.71680 0.21290 -0.08600
C 	C 	0.97410 0.65810 0.21390 0.09100
C 	C 	0.00600 0.59550 0.21750 -0.08000
C 	C 	0.12920 0.77080 0.21060 -0.09500
C 	C 	0.89980 0.66510 0.21170 -0.10900
H 	H 	0.16140 0.63860 0.21910 0.01100
H 	H 	0.97810 0.55560 0.21750 0.04400
H 	H 	0.17760 0.76660 0.20770 0.05500
H 	H 	0.87150 0.62550 0.21100 0.06500
N 	N 	0.07470 0.41280 0.27890 -0.19800
C 	C 	0.11300 0.35590 0.28190 -0.02400
C 	C 	0.08790 0.29010 0.28640 0.04600
C 	C 	0.01590 0.28320 0.28710 -0.08000
C 	C 	0.97410 0.34190 0.28610 0.08700
C 	C 	0.00600 0.40450 0.28250 -0.07700
C 	C 	0.12920 0.22920 0.28940 -0.09100
C 	C 	0.89980 0.33490 0.28830 -0.10700
H 	H 	0.16140 0.36140 0.28090 0.01000
H 	H 	0.97810 0.44440 0.28250 0.04300
H 	H 	0.17760 0.23340 0.29230 0.05300
H 	H 	0.87150 0.37450 0.28900 0.06400
N 	N 	0.57470 0.91280 0.77890 -0.21000
C 	C 	0.61300 0.85590 0.78190 0.00100
C 	C 	0.58790 0.79010 0.78640 0.00200
C 	C 	0.51590 0.78320 0.78710 -0.00100
C 	C 	0.47410 0.84190 0.78610 0.00600
C 	C 	0.50600 0.90450 0.78250 -0.00100
C 	C 	0.62920 0.72920 0.78940 -0.04800
C 	C 	0.39980 0.83490 0.78830 -0.05400
H 	H 	0.66140 0.86140 0.78090 0.00600
H 	H 	0.47810 0.94440 0.78250 0.01500
H 	H 	0.67760 0.73340 0.79230 0.04100
H 	H 	0.37150 0.87450 0.78900 0.04800
Cu	Cu	0.12500 0.50000 0.25000 0.84900
Cu	Cu	0.62500 0.00000 0.75000 0.84300
Cu	Cu	0.37500 0.50000 0.75000 0.85000
Cu	Cu	0.87500 0.00000 0.25000 0.84400
N 	N 	0.33720 0.17530 0.52890 -0.21500
C 	C 	0.39410 0.13700 0.53190 0.00300
C 	C 	0.45990 0.16210 0.53640 -0.00100
C 	C 	0.46680 0.23410 0.53710 0.00000
C 	C 	0.40810 0.27590 0.53610 0.00300
C 	C 	0.34550 0.24400 0.53250 -0.00000
C 	C 	0.52080 0.12080 0.53940 -0.04600
C 	C 	0.41510 0.35020 0.53830 -0.05300
H 	H 	0.38860 0.08860 0.53090 0.00000
H 	H 	0.30560 0.27190 0.53250 0.00900
H 	H 	0.51660 0.07240 0.54230 0.03500
H 	H 	0.37550 0.37850 0.53900 0.04600
N 	N 	0.83720 0.67530 0.02890 -0.21500
C 	C 	0.89410 0.63700 0.03190 -0.00800
C 	C 	0.95990 0.66210 0.03640 0.01700
C 	C 	0.96680 0.73410 0.03710 0.00400
C 	C 	0.90810 0.77590 0.03610 0.00700
C 	C 	0.84550 0.74400 0.03250 -0.00400
C 	C 	0.02080 0.62080 0.03940 -0.07300
C 	C 	0.91510 0.85020 0.03830 -0.06400
H 	H 	0.88860 0.58860 0.03090 0.00400
H 	H 	0.80560 0.77190 0.03250 0.00800
H 	H 	0.01660 0.57240 0.04230 0.04000
H 	H 	0.87550 0.87850 0.03900 0.05100
N 	N 	0.66280 0.67530 0.97110 -0.21000
C 	C 	0.60590 0.63700 0.96810 0.00300
C 	C 	0.54010 0.66210 0.96360 0.00300
C 	C 	0.53320 0.73410 0.96290 0.00100
C 	C 	0.59190 0.77590 0.96390 0.00700
C 	C 	0.65450 0.74400 0.96750 0.00100
C 	C 	0.47920 0.62080 0.96060 -0.04500
C 	C 	0.58490 0.85020 0.96170 -0.05100
H 	H 	0.61140 0.58860 0.96910 0.00600
H 	H 	0.69440 0.77190 0.96750 0.01500
H 	H 	0.48340 0.57240 0.95770 0.04200
H 	H 	0.62450 0.87850 0.96100 0.05300
N 	N 	0.16280 0.17530 0.47110 -0.21700
C 	C 	0.10590 0.13700 0.46810 0.01100
C 	C 	0.04010 0.16210 0.46360 -0.02000
C 	C 	0.03320 0.23410 0.46290 -0.00500
C 	C 	0.09190 0.27590 0.46390 -0.00200
C 	C 	0.15450 0.24400 0.46750 0.00200
C 	C 	0.97920 0.12080 0.46060 -0.02200
C 	C 	0.08490 0.35020 0.46170 -0.04400
H 	H 	0.11140 0.08860 0.46910 -0.00400
H 	H 	0.19440 0.27190 0.46750 0.00800
H 	H 	0.98340 0.07240 0.45770 0.03100
H 	H 	0.12450 0.37850 0.46100 0.04200
N 	N 	0.83720 0.32470 0.47110 -0.21300
C 	C 	0.89410 0.36300 0.46810 -0.00700
C 	C 	0.95990 0.33790 0.46360 0.02100
C 	C 	0.96680 0.26590 0.46290 0.00500
C 	C 	0.90810 0.22410 0.46390 0.00800
C 	C 	0.84550 0.25600 0.46750 -0.00300
C 	C 	0.02080 0.37920 0.46060 -0.07300
C 	C 	0.91510 0.14980 0.46170 -0.06400
H 	H 	0.88860 0.41140 0.46910 0.00700
H 	H 	0.80560 0.22810 0.46750 0.00900
H 	H 	0.01660 0.42760 0.45770 0.04300
H 	H 	0.87550 0.12150 0.46100 0.04600
N 	N 	0.33720 0.82470 0.97110 -0.21000
C 	C 	0.39410 0.86300 0.96810 0.00200
C 	C 	0.45990 0.83790 0.96360 0.00400
C 	C 	0.46680 0.76590 0.96290 0.00000
C 	C 	0.40810 0.72410 0.96390 0.00600
C 	C 	0.34550 0.75600 0.96750 0.00100
C 	C 	0.52080 0.87920 0.96060 -0.04500
C 	C 	0.41510 0.64980 0.96170 -0.05200
H 	H 	0.38860 0.91140 0.96910 0.00900
H 	H 	0.30560 0.72810 0.96750 0.01300
H 	H 	0.51660 0.92760 0.95770 0.04700
H 	H 	0.37550 0.62150 0.96100 0.04800
N 	N 	0.16280 0.82470 0.02890 -0.21800
C 	C 	0.10590 0.86300 0.03190 0.00800
C 	C 	0.04010 0.83790 0.03640 -0.02100
C 	C 	0.03320 0.76590 0.03710 -0.00700
C 	C 	0.09190 0.72410 0.03610 -0.00300
C 	C 	0.15450 0.75600 0.03250 0.00100
C 	C 	0.97920 0.87920 0.03940 -0.02300
C 	C 	0.08490 0.64980 0.03830 -0.04600
H 	H 	0.11140 0.91140 0.03090 -0.00300
H 	H 	0.19440 0.72810 0.03250 0.00500
H 	H 	0.98340 0.92760 0.04230 0.03700
H 	H 	0.12450 0.62150 0.03900 0.04000
N 	N 	0.66280 0.32470 0.52890 -0.21500
C 	C 	0.60590 0.36300 0.53190 0.00200
C 	C 	0.54010 0.33790 0.53640 0.00000
C 	C 	0.53320 0.26590 0.53710 -0.00100
C 	C 	0.59190 0.22410 0.53610 0.00300
C 	C 	0.65450 0.25600 0.53250 -0.00100
C 	C 	0.47920 0.37920 0.53940 -0.04700
C 	C 	0.58490 0.14980 0.53830 -0.05400
H 	H 	0.61140 0.41140 0.53090 0.00200
H 	H 	0.69440 0.22810 0.53250 0.00900
H 	H 	0.48340 0.42760 0.54230 0.03900
H 	H 	0.62450 0.12150 0.53900 0.04300
N 	N 	0.77890 0.42530 0.58720 -0.21400
C 	C 	0.78190 0.38700 0.64410 0.00200
C 	C 	0.78640 0.41210 0.70990 -0.00000
C 	C 	0.78710 0.48410 0.71680 0.00000
C 	C 	0.78610 0.52590 0.65810 0.00300
C 	C 	0.78250 0.49400 0.59550 -0.00000
C 	C 	0.78940 0.37080 0.77080 -0.04600
C 	C 	0.78830 0.60020 0.66510 -0.05300
H 	H 	0.78090 0.33860 0.63860 0.00300
H 	H 	0.78250 0.52190 0.55560 0.01000
H 	H 	0.79230 0.32240 0.76660 0.04000
H 	H 	0.78900 0.62850 0.62550 0.04600
N 	N 	0.27890 0.92530 0.08720 -0.23300
C 	C 	0.28190 0.88700 0.14410 0.02800
C 	C 	0.28640 0.91210 0.20990 -0.04600
C 	C 	0.28710 0.98410 0.21680 0.07900
C 	C 	0.28610 0.02590 0.15810 -0.07700
C 	C 	0.28250 0.99400 0.09550 0.07100
C 	C 	0.28940 0.87080 0.27080 -0.00100
C 	C 	0.28830 0.10020 0.16510 -0.00200
H 	H 	0.28090 0.83860 0.13860 -0.00800
H 	H 	0.28250 0.02190 0.05560 -0.02600
H 	H 	0.29230 0.82240 0.26660 0.02400
H 	H 	0.28900 0.12850 0.12550 0.02700
N 	N 	0.22110 0.92530 0.91280 -0.22800
C 	C 	0.21810 0.88700 0.85590 0.03000
C 	C 	0.21360 0.91210 0.79010 -0.04900
C 	C 	0.21290 0.98410 0.78320 0.08600
C 	C 	0.21390 0.02590 0.84190 -0.08500
C 	C 	0.21750 0.99400 0.90450 0.08200
C 	C 	0.21060 0.87080 0.72920 0.00200
C 	C 	0.21170 0.10020 0.83490 0.00400
H 	H 	0.21910 0.83860 0.86140 -0.00500
H 	H 	0.21750 0.02190 0.94440 -0.02300
H 	H 	0.20770 0.82240 0.73340 0.02400
H 	H 	0.21100 0.12850 0.87450 0.02800
N 	N 	0.72110 0.42530 0.41280 -0.21400
C 	C 	0.71810 0.38700 0.35590 0.00100
C 	C 	0.71360 0.41210 0.29010 0.00000
C 	C 	0.71290 0.48410 0.28320 -0.00100
C 	C 	0.71390 0.52590 0.34190 0.00400
C 	C 	0.71750 0.49400 0.40450 -0.00100
C 	C 	0.71060 0.37080 0.22920 -0.04700
C 	C 	0.71170 0.60020 0.33490 -0.05300
H 	H 	0.71910 0.33860 0.36140 0.00200
H 	H 	0.71750 0.52190 0.44440 0.01000
H 	H 	0.70770 0.32240 0.23340 0.03900
H 	H 	0.71100 0.62850 0.37450 0.04600
N 	N 	0.72110 0.57470 0.08720 -0.21700
C 	C 	0.71810 0.61300 0.14410 0.00100
C 	C 	0.71360 0.58790 0.20990 -0.00000
C 	C 	0.71290 0.51590 0.21680 -0.00000
C 	C 	0.71390 0.47410 0.15810 0.00200
C 	C 	0.71750 0.50600 0.09550 -0.00000
C 	C 	0.71060 0.62920 0.27080 -0.04700
C 	C 	0.71170 0.39980 0.16510 -0.05300
H 	H 	0.71910 0.66140 0.13860 0.00100
H 	H 	0.71750 0.47810 0.05560 0.00500
H 	H 	0.70770 0.67760 0.26660 0.04000
H 	H 	0.71100 0.37150 0.12550 0.04500
N 	N 	0.22110 0.07470 0.58720 -0.19700
C 	C 	0.21810 0.11300 0.64410 -0.02600
C 	C 	0.21360 0.08790 0.70990 0.05000
C 	C 	0.21290 0.01590 0.71680 -0.08600
C 	C 	0.21390 0.97410 0.65810 0.09100
C 	C 	0.21750 0.00600 0.59550 -0.08000
C 	C 	0.21060 0.12920 0.77080 -0.09500
C 	C 	0.21170 0.89980 0.66510 -0.10900
H 	H 	0.21910 0.16140 0.63860 0.01100
H 	H 	0.21750 0.97810 0.55560 0.04400
H 	H 	0.20770 0.17760 0.76660 0.05500
H 	H 	0.21100 0.87150 0.62550 0.06500
N 	N 	0.27890 0.07470 0.41280 -0.19800
C 	C 	0.28190 0.11300 0.35590 -0.02400
C 	C 	0.28640 0.08790 0.29010 0.04600
C 	C 	0.28710 0.01590 0.28320 -0.08000
C 	C 	0.28610 0.97410 0.34190 0.08700
C 	C 	0.28250 0.00600 0.40450 -0.07700
C 	C 	0.28940 0.12920 0.22920 -0.09100
C 	C 	0.28830 0.89980 0.33490 -0.10700
H 	H 	0.28090 0.16140 0.36140 0.01000
H 	H 	0.28250 0.97810 0.44440 0.04300
H 	H 	0.29230 0.17760 0.23340 0.05300
H 	H 	0.28900 0.87150 0.37450 0.06400
N 	N 	0.77890 0.57470 0.91280 -0.21000
C 	C 	0.78190 0.61300 0.85590 0.00100
C 	C 	0.78640 0.58790 0.79010 0.00200
C 	C 	0.78710 0.51590 0.78320 -0.00100
C 	C 	0.78610 0.47410 0.84190 0.00600
C 	C 	0.78250 0.50600 0.90450 -0.00100
C 	C 	0.78940 0.62920 0.72920 -0.04800
C 	C 	0.78830 0.39980 0.83490 -0.05400
H 	H 	0.78090 0.66140 0.86140 0.00600
H 	H 	0.78250 0.47810 0.94440 0.01500
H 	H 	0.79230 0.67760 0.73340 0.04100
H 	H 	0.78900 0.37150 0.87450 0.04800
Cu	Cu	0.25000 0.12500 0.50000 0.84900
Cu	Cu	0.75000 0.62500 -0.00000 0.84300
Cu	Cu	0.75000 0.37500 0.50000 0.85000
Cu	Cu	0.25000 0.87500 -0.00000 0.84400
