data_crystal

_cell_length_a 11.19600
_cell_length_b 13.02000
_cell_length_c 16.52000
_cell_angle_alpha 84.07200
_cell_angle_beta  85.18200
_cell_angle_gamma 79.13800

_symmetry_space_group_name_	'P 1'
_symmetry_space_group_name_H-M	'P 1'

loop_
_symmetry_equiv_pos_as_xyz
  x,y,z

loop_
_atom_site_label
_atom_site_type_symbol
_atom_site_fract_x
_atom_site_fract_y
_atom_site_fract_z
_atom_site_charge
Co	Co	0.25004 0.07919 0.48157 1.13100
Co	Co	0.34665 0.14208 0.67449 1.08900
N 	N 	0.48740 0.19854 0.72628 -0.23300
N 	N 	0.64700 0.27556 0.72842 -0.14200
N 	N 	0.20840 0.76120 0.51440 -0.13800
N 	N 	0.26540 0.91590 0.48702 -0.24300
N 	N 	0.20160 0.22800 0.74123 -0.25900
N 	N 	0.04100 0.26489 0.82718 -0.14600
N 	N 	0.35810 0.15572 0.23344 -0.13800
N 	N 	0.27190 0.11210 0.35374 -0.21900
O 	O 	0.46080 0.59328 0.22875 -0.39700
O 	O 	0.32430 0.50257 0.19559 -0.29700
O 	O 	0.35091 0.26890 0.58360 -0.42900
O 	O 	0.21878 0.24168 0.49551 -0.42800
O 	O 	0.06174 0.09562 0.46904 -0.41800
O 	O 	0.99410 0.10108 0.60043 -0.31200
O 	O 	0.43749 0.07628 0.47777 -0.45300
O 	O 	0.48670 0.05248 0.60785 -0.47600
C 	C 	0.39170 0.52690 0.24458 0.33300
C 	C 	0.39210 0.47270 0.32869 -0.08800
C 	C 	0.46430 0.48070 0.38970 -0.02000
H 	H 	0.52200 0.52410 0.38480 0.04600
C 	C 	0.44140 0.41570 0.46080 -0.00800
H 	H 	0.48510 0.40920 0.50710 0.04100
C 	C 	0.34860 0.36340 0.45462 -0.09600
C 	C 	0.30240 0.28500 0.51604 0.34800
C 	C 	0.97880 0.10200 0.52544 0.33800
C 	C 	0.85170 0.10680 0.50239 -0.08800
C 	C 	0.80810 0.12270 0.42670 -0.02100
H 	H 	0.85490 0.13690 0.37900 0.04500
C 	C 	0.68230 0.11510 0.42885 -0.00300
H 	H 	0.63780 0.12500 0.38270 0.03900
C 	C 	0.63450 0.09190 0.50561 -0.10700
C 	C 	0.50940 0.07230 0.53248 0.37900
C 	C 	0.56920 0.13870 0.77923 -0.00200
H 	H 	0.55760 0.07640 0.80910 -0.00300
C 	C 	0.53840 0.27930 0.69754 0.10300
H 	H 	0.50350 0.33270 0.66030 0.00000
C 	C 	0.66820 0.18420 0.78094 -0.00100
H 	H 	0.73610 0.15950 0.81090 0.03500
C 	C 	0.73230 0.34420 0.70371 0.12800
C 	C 	0.84750 0.30090 0.67106 -0.13700
H 	H 	0.86950 0.22870 0.66870 0.10300
C 	C 	0.92930 0.36650 0.64205 0.01600
H 	H 	0.00570 0.33800 0.61950 0.02900
C 	C 	0.89750 0.47550 0.64653 -0.02000
C 	C 	0.78300 0.51600 0.68240 -0.00200
H 	H 	0.76170 0.58770 0.68740 0.03400
C 	C 	0.70040 0.45100 0.71085 -0.13300
H 	H 	0.62440 0.47900 0.73440 0.08300
C 	C 	0.98290 0.54710 0.61304 0.00900
C 	C 	0.05710 0.52780 0.54160 -0.03100
H 	H 	0.05640 0.46770 0.51580 0.05000
C 	C 	0.13180 0.59780 0.50910 -0.10800
H 	H 	0.17920 0.58540 0.46090 0.07800
C 	C 	0.13570 0.68640 0.54835 0.11300
C 	C 	0.06670 0.70400 0.62078 -0.12300
H 	H 	0.07190 0.76130 0.64870 0.07100
C 	C 	0.99030 0.63560 0.65102 -0.01300
H 	H 	0.94180 0.64930 0.69860 0.03300
C 	C 	0.31080 0.74740 0.45970 -0.00200
H 	H 	0.34880 0.68520 0.43840 0.03600
C 	C 	0.34370 0.84270 0.44390 0.01300
H 	H 	0.40950 0.85680 0.40910 0.02000
C 	C 	0.18610 0.86320 0.52855 0.08900
H 	H 	0.12250 0.89320 0.56340 -0.01800
C 	C 	0.11110 0.19120 0.78361 0.09000
H 	H 	0.09740 0.12300 0.78340 -0.03900
C 	C 	0.18940 0.33050 0.75922 0.00700
H 	H 	0.24120 0.37640 0.73840 0.02100
C 	C 	0.09080 0.35460 0.81170 -0.00000
H 	H 	0.06240 0.41880 0.83310 0.03000
C 	C 	0.93580 0.25050 0.88015 0.13600
C 	C 	0.92510 0.15080 0.91531 -0.15000
H 	H 	0.98510 0.09330 0.90390 0.07400
C 	C 	0.82480 0.13760 0.96736 0.02100
H 	H 	0.81700 0.07030 0.98930 0.00800
C 	C 	0.73500 0.22240 0.98803 -0.07600
C 	C 	0.74750 0.32090 0.95129 0.02600
H 	H 	0.68770 0.37850 0.96260 0.01800
C 	C 	0.84650 0.33570 0.89824 -0.15000
H 	H 	0.85300 0.40260 0.87480 0.09100
C 	C 	0.63290 0.20540 0.04886 0.06200
C 	C 	0.60110 0.10610 0.06678 -0.05500
H 	H 	0.64070 0.05050 0.03770 0.05200
C 	C 	0.51130 0.08940 0.12716 -0.08700
H 	H 	0.49130 0.02300 0.13820 0.05000
C 	C 	0.45130 0.17080 0.17105 0.10000
C 	C 	0.47560 0.27050 0.15150 -0.09300
H 	H 	0.43150 0.32650 0.17820 0.08700
C 	C 	0.56730 0.28680 0.09130 -0.04600
H 	H 	0.58490 0.35400 0.07940 0.06300
C 	C 	0.23450 0.19820 0.23150 -0.00000
H 	H 	0.19510 0.23840 0.18840 0.04200
C 	C 	0.18320 0.16870 0.30585 0.00500
H 	H 	0.10070 0.18450 0.32180 0.03300
C 	C 	0.37490 0.10580 0.30804 0.09800
H 	H 	0.45000 0.07090 0.32530 -0.00000
S 	S 	0.29178 0.38818 0.35962 0.06000
S 	S 	0.74060 0.08256 0.57708 0.05300
Co	Co	0.35783 0.63629 0.93492 1.12700
Co	Co	0.44500 0.71735 0.13598 1.13500
N 	N 	0.37640 0.63543 0.80701 -0.23600
N 	N 	0.44890 0.65904 0.68006 -0.14200
N 	N 	0.12320 0.81907 0.28583 -0.13800
N 	N 	0.28950 0.79284 0.20322 -0.24100
N 	N 	0.57200 0.78160 0.19150 -0.23500
N 	N 	0.71920 0.86832 0.20638 -0.14200
N 	N 	0.29810 0.32490 0.97436 -0.13800
N 	N 	0.37270 0.47111 0.95011 -0.21700
O 	O 	0.54333 0.63048 0.93445 -0.45500
O 	O 	0.58924 0.63827 0.06425 -0.41500
O 	O 	0.09370 0.66830 0.05514 -0.28000
O 	O 	0.17010 0.64750 0.92692 -0.42600
O 	O 	0.32619 0.64566 0.06739 -0.67600
H 	H 	0.32800 0.57450 0.09210 0.23400
H 	H 	0.24370 0.68340 0.07710 0.21600
C 	C 	0.45400 0.67960 0.75796 0.08800
H 	H 	0.50600 0.72000 0.77470 -0.02100
C 	C 	0.31630 0.58430 0.75764 0.00200
H 	H 	0.25540 0.54610 0.77580 0.02600
C 	C 	0.36020 0.59870 0.67902 -0.00300
H 	H 	0.33550 0.57310 0.63380 0.03700
C 	C 	0.53100 0.68770 0.61336 0.11200
C 	C 	0.58030 0.61750 0.55803 -0.12000
H 	H 	0.55200 0.55470 0.55850 0.07600
C 	C 	0.67290 0.64020 0.50094 -0.01300
H 	H 	0.70540 0.59240 0.46320 0.03600
C 	C 	0.71760 0.73370 0.49957 -0.01100
C 	C 	0.66010 0.80560 0.55320 -0.01600
H 	H 	0.68500 0.87010 0.55160 0.04200
C 	C 	0.56620 0.78390 0.60920 -0.11700
H 	H 	0.52760 0.83410 0.64350 0.06600
C 	C 	0.82400 0.75480 0.44370 0.01200
C 	C 	0.87520 0.68860 0.38490 -0.03300
H 	H 	0.84400 0.62800 0.38130 0.04700
C 	C 	0.97170 0.70920 0.33100 -0.08400
H 	H 	0.00240 0.66460 0.29070 0.06700
C 	C 	0.02150 0.79750 0.33823 0.09300
C 	C 	0.97230 0.86540 0.39672 -0.08000
H 	H 	0.00450 0.92520 0.40160 0.06800
C 	C 	0.87410 0.84250 0.44770 -0.03700
H 	H 	0.84070 0.88860 0.48640 0.05100
C 	C 	0.20090 0.75060 0.24208 0.10300
H 	H 	0.19270 0.68130 0.23960 -0.00300
C 	C 	0.26800 0.89580 0.22351 -0.01200
H 	H 	0.31620 0.94550 0.20540 0.02000
C 	C 	0.16630 0.91220 0.27350 0.01100
H 	H 	0.13160 0.97470 0.29560 0.03300
C 	C 	0.61510 0.63130 0.99021 0.33700
C 	C 	0.74680 0.62420 0.96275 -0.12900
C 	C 	0.96580 0.63270 0.96034 -0.11000
C 	C 	0.08560 0.65090 0.98243 0.29400
C 	C 	0.92930 0.62350 0.88491 -0.02000
H 	H 	0.98150 0.62050 0.83800 0.04200
C 	C 	0.80340 0.61890 0.88558 -0.00800
H 	H 	0.76400 0.61300 0.83940 0.03600
C 	C 	0.57200 0.80070 0.27207 0.00500
H 	H 	0.51880 0.77910 0.31390 0.02300
C 	C 	0.66170 0.82400 0.15349 0.09400
H 	H 	0.68290 0.82360 0.09790 -0.01400
C 	C 	0.66090 0.85530 0.28147 0.00500
H 	H 	0.67850 0.87920 0.32950 0.03600
C 	C 	0.81640 0.92550 0.18236 0.14500
C 	C 	0.90870 0.88690 0.12580 -0.15300
H 	H 	0.91290 0.82060 0.10820 0.10200
C 	C 	0.99450 0.94810 0.09588 0.04200
H 	H 	0.05550 0.92310 0.05730 0.01300
C 	C 	0.99000 0.04710 0.12315 -0.04300
C 	C 	0.90090 0.08130 0.18500 0.01900
H 	H 	0.89990 0.14490 0.20630 0.02500
C 	C 	0.81540 0.02050 0.21408 -0.15000
H 	H 	0.75700 0.04320 0.25500 0.08600
C 	C 	0.07190 0.11760 0.08481 0.03200
C 	C 	0.18810 0.08010 0.05170 -0.07100
H 	H 	0.21640 0.00800 0.05480 0.03600
C 	C 	0.26310 0.14640 0.01426 -0.03100
H 	H 	0.34050 0.11940 0.99240 0.00700
C 	C 	0.22070 0.25420 0.00980 0.10200
C 	C 	0.10300 0.29540 0.03869 -0.08600
H 	H 	0.07340 0.36730 0.03240 0.07700
C 	C 	0.03000 0.22630 0.07741 -0.05100
H 	H 	0.95210 0.25310 0.09870 0.06100
C 	C 	0.39170 0.30840 0.91443 0.00200
H 	H 	0.41870 0.24720 0.88870 0.02200
C 	C 	0.43630 0.39800 0.90042 0.00000
H 	H 	0.50030 0.40890 0.86290 0.02600
C 	C 	0.29080 0.42490 0.99458 0.02600
H 	H 	0.23580 0.45620 0.03410 0.04200
S 	S 	0.84728 0.63530 0.03324 0.10700
