data_crystal

_cell_length_a 14.75100
_cell_length_b 15.06450
_cell_length_c 15.06450
_cell_angle_alpha 120.00000
_cell_angle_beta  90.00000
_cell_angle_gamma 90.00000

_symmetry_space_group_name_	'P 1'
_symmetry_space_group_name_H-M	'P 1'

loop_
_symmetry_equiv_pos_as_xyz
  x,y,z

loop_
_atom_site_label
_atom_site_type_symbol
_atom_site_fract_x
_atom_site_fract_y
_atom_site_fract_z
_atom_site_charge
Nd	Nd	0.25000 0.33333 0.66666 2.41100
Nd	Nd	0.25000 0.66667 0.33334 2.41100
Nd	Nd	0.75000 0.66667 0.33334 2.41800
Nd	Nd	0.75000 0.33333 0.66666 2.41800
Cu	Cu	1.00000 0.50000 0.50000 0.96500
Cu	Cu	-0.00000 0.00000 0.50000 0.89600
Cu	Cu	0.00000 0.50000 -0.00000 0.89600
Cu	Cu	0.50000 0.00000 0.50000 0.91400
Cu	Cu	0.50000 0.50000 0.50000 0.94800
Cu	Cu	0.50000 0.50000 -0.00000 0.91400
H 	H 	0.83730 0.78820 0.15260 0.10200
H 	H 	0.75970 0.71100 0.08830 0.07500
H 	H 	0.83730 0.36440 0.21180 0.08400
H 	H 	0.75970 0.37730 0.28900 0.08500
H 	H 	0.83730 0.84740 0.63560 0.12100
H 	H 	0.75970 0.91170 0.62270 0.12500
H 	H 	0.83730 0.21180 0.84740 0.10200
H 	H 	0.75970 0.28900 0.91170 0.11500
H 	H 	0.83730 0.63560 0.78820 0.12200
H 	H 	0.75970 0.62270 0.71100 0.10600
H 	H 	0.83730 0.15260 0.36440 0.08300
H 	H 	0.75970 0.08830 0.37730 0.06500
H 	H 	0.66270 0.63560 0.84740 0.11700
H 	H 	0.74030 0.62270 0.91170 0.12600
H 	H 	0.66270 0.15260 0.78820 0.09800
H 	H 	0.74030 0.08830 0.71100 0.07600
H 	H 	0.66270 0.21180 0.36440 0.07900
H 	H 	0.74030 0.28900 0.37730 0.08600
H 	H 	0.66270 0.36440 0.15260 0.07800
H 	H 	0.74030 0.37730 0.08830 0.06600
H 	H 	0.66270 0.84740 0.21180 0.09800
H 	H 	0.74030 0.91170 0.28900 0.11500
H 	H 	0.66270 0.78820 0.63560 0.11700
H 	H 	0.74030 0.71100 0.62270 0.10600
H 	H 	0.16270 0.21180 0.84740 0.09100
H 	H 	0.24030 0.28900 0.91170 0.11300
H 	H 	0.16270 0.63560 0.78820 0.11100
H 	H 	0.24030 0.62270 0.71100 0.10400
H 	H 	0.16270 0.15260 0.36440 0.07100
H 	H 	0.24030 0.08830 0.37730 0.06200
H 	H 	0.16270 0.78820 0.15260 0.09100
H 	H 	0.24030 0.71100 0.08830 0.07200
H 	H 	0.16270 0.36440 0.21180 0.07200
H 	H 	0.24030 0.37730 0.28900 0.08200
H 	H 	0.16270 0.84740 0.63560 0.11000
H 	H 	0.24030 0.91170 0.62270 0.12300
H 	H 	0.33730 0.36440 0.15260 0.07600
H 	H 	0.25970 0.37730 0.08830 0.06200
H 	H 	0.33730 0.84740 0.21180 0.09600
H 	H 	0.25970 0.91170 0.28900 0.11200
H 	H 	0.33730 0.78820 0.63560 0.11600
H 	H 	0.25970 0.71100 0.62270 0.10300
H 	H 	0.33730 0.63560 0.84740 0.11500
H 	H 	0.25970 0.62270 0.91170 0.12300
H 	H 	0.33730 0.15260 0.78820 0.09600
H 	H 	0.25970 0.08830 0.71100 0.07200
H 	H 	0.33730 0.21180 0.36440 0.07600
H 	H 	0.25970 0.28900 0.37730 0.08100
C 	C 	0.36010 0.12780 0.64360 0.43100
C 	C 	0.69960 0.85400 0.26810 -0.20800
C 	C 	0.36010 0.51580 0.87220 0.44200
C 	C 	0.69960 0.41410 0.14600 -0.18400
C 	C 	0.36010 0.35640 0.48420 0.42700
C 	C 	0.69960 0.73190 0.58590 -0.22100
C 	C 	0.36010 0.87220 0.35640 0.43400
C 	C 	0.69960 0.14600 0.73190 -0.20000
C 	C 	0.36010 0.48420 0.12780 0.42300
C 	C 	0.69960 0.58590 0.85400 -0.22400
C 	C 	0.36010 0.64360 0.51580 0.44200
C 	C 	0.69960 0.26810 0.41410 -0.18900
C 	C 	0.13990 0.48420 0.35640 0.42800
C 	C 	0.80040 0.58590 0.73190 -0.22100
C 	C 	0.13990 0.64360 0.12780 0.43000
C 	C 	0.80040 0.26810 0.85400 -0.20800
C 	C 	0.13990 0.87220 0.51580 0.44100
C 	C 	0.80040 0.14600 0.41410 -0.18300
C 	C 	0.13990 0.51580 0.64360 0.44300
C 	C 	0.80040 0.41410 0.26810 -0.19000
C 	C 	0.13990 0.35640 0.87220 0.43300
C 	C 	0.80040 0.73190 0.14600 -0.19800
C 	C 	0.13990 0.12780 0.48420 0.42200
C 	C 	0.80040 0.85400 0.58590 -0.22300
C 	C 	0.63990 0.87220 0.35640 0.43600
C 	C 	0.30040 0.14600 0.73190 -0.19600
C 	C 	0.63990 0.48420 0.12780 0.42500
C 	C 	0.30040 0.58590 0.85400 -0.22200
C 	C 	0.63990 0.64360 0.51580 0.44300
C 	C 	0.30040 0.26810 0.41410 -0.18600
C 	C 	0.63990 0.12780 0.64360 0.43200
C 	C 	0.30040 0.85400 0.26810 -0.20600
C 	C 	0.63990 0.51580 0.87220 0.44300
C 	C 	0.30040 0.41410 0.14600 -0.18000
C 	C 	0.63990 0.35640 0.48420 0.42800
C 	C 	0.30040 0.73190 0.58590 -0.21800
C 	C 	0.86010 0.51580 0.64360 0.44400
C 	C 	0.19960 0.41410 0.26810 -0.18700
C 	C 	0.86010 0.35640 0.87220 0.43500
C 	C 	0.19960 0.73190 0.14600 -0.19600
C 	C 	0.86010 0.12780 0.48420 0.42400
C 	C 	0.19960 0.85400 0.58590 -0.22100
C 	C 	0.86010 0.48420 0.35640 0.42900
C 	C 	0.19960 0.58590 0.73190 -0.21900
C 	C 	0.86010 0.64360 0.12780 0.43100
C 	C 	0.19960 0.26810 0.85400 -0.20600
C 	C 	0.86010 0.87220 0.51580 0.44200
C 	C 	0.19960 0.14600 0.41410 -0.18000
O 	O 	0.35890 0.19250 0.61440 -0.51100
O 	O 	0.40760 0.04900 0.60710 -0.44400
O 	O 	0.35890 0.42190 0.80750 -0.49700
O 	O 	0.40760 0.55810 0.95100 -0.37800
O 	O 	0.35890 0.38560 0.57810 -0.50300
O 	O 	0.40760 0.39290 0.44190 -0.42200
O 	O 	0.35890 0.80750 0.38560 -0.49500
O 	O 	0.40760 0.95100 0.39290 -0.38100
O 	O 	0.35890 0.57810 0.19250 -0.50900
O 	O 	0.40760 0.44190 0.04900 -0.44700
O 	O 	0.35890 0.61440 0.42190 -0.50600
O 	O 	0.40760 0.60710 0.55810 -0.41700
O 	O 	0.14110 0.57810 0.38560 -0.51200
O 	O 	0.09240 0.44190 0.39290 -0.43900
O 	O 	0.14110 0.61440 0.19250 -0.51700
O 	O 	0.09240 0.60710 0.04900 -0.45400
O 	O 	0.14110 0.80750 0.42190 -0.50300
O 	O 	0.09240 0.95100 0.55810 -0.38800
O 	O 	0.14110 0.42190 0.61440 -0.51500
O 	O 	0.09240 0.55810 0.60710 -0.43400
O 	O 	0.14110 0.38560 0.80750 -0.50100
O 	O 	0.09240 0.39290 0.95100 -0.39000
O 	O 	0.14110 0.19250 0.57810 -0.51600
O 	O 	0.09240 0.04900 0.44190 -0.45700
O 	O 	0.64110 0.80750 0.38560 -0.49600
O 	O 	0.59240 0.95100 0.39290 -0.38100
O 	O 	0.64110 0.57810 0.19250 -0.51100
O 	O 	0.59240 0.44190 0.04900 -0.44700
O 	O 	0.64110 0.61440 0.42190 -0.50800
O 	O 	0.59240 0.60710 0.55810 -0.41700
O 	O 	0.64110 0.19250 0.61440 -0.51200
O 	O 	0.59240 0.04900 0.60710 -0.44400
O 	O 	0.64110 0.42190 0.80750 -0.49800
O 	O 	0.59240 0.55810 0.95100 -0.37900
O 	O 	0.64110 0.38560 0.57810 -0.50500
O 	O 	0.59240 0.39290 0.44190 -0.42200
O 	O 	0.85890 0.42190 0.61440 -0.50100
O 	O 	0.90760 0.55810 0.60710 -0.40700
O 	O 	0.85890 0.38560 0.80750 -0.48800
O 	O 	0.90760 0.39290 0.95100 -0.36500
O 	O 	0.85890 0.19250 0.57810 -0.50200
O 	O 	0.90760 0.04900 0.44190 -0.42800
O 	O 	0.85890 0.57810 0.38560 -0.49800
O 	O 	0.90760 0.44190 0.39290 -0.41200
O 	O 	0.85890 0.61440 0.19250 -0.50300
O 	O 	0.90760 0.60710 0.04900 -0.42600
O 	O 	0.85890 0.80750 0.42190 -0.49000
O 	O 	0.90760 0.95100 0.55810 -0.36300
O 	O 	0.75000 0.76375 0.23625 -0.27200
O 	O 	0.75000 0.47250 0.23625 -0.28200
O 	O 	0.75000 0.76375 0.52750 -0.26000
O 	O 	0.75000 0.23625 0.76375 -0.27100
O 	O 	0.75000 0.52750 0.76375 -0.26000
O 	O 	0.75000 0.23625 0.47250 -0.28300
O 	O 	0.25000 0.23625 0.76375 -0.27400
O 	O 	0.25000 0.52750 0.76375 -0.26200
O 	O 	0.25000 0.23625 0.47250 -0.28600
O 	O 	0.25000 0.76375 0.23625 -0.27400
O 	O 	0.25000 0.47250 0.23625 -0.28500
O 	O 	0.25000 0.76375 0.52750 -0.26200
