data_crystal

_cell_length_a 21.59090
_cell_length_b 24.02630
_cell_length_c 31.11460
_cell_angle_alpha 90.00000
_cell_angle_beta  105.79400
_cell_angle_gamma 90.00000

_symmetry_space_group_name_	'P 1'
_symmetry_space_group_name_H-M	'P 1'

loop_
_symmetry_equiv_pos_as_xyz
  x,y,z

loop_
_atom_site_label
_atom_site_type_symbol
_atom_site_fract_x
_atom_site_fract_y
_atom_site_fract_z
_atom_site_charge
Eu	Eu	0.91378 0.22919 0.19866 1.97700
Eu	Eu	0.82479 0.69043 0.58727 1.93300
C 	C 	0.82430 0.30742 0.53066 0.08800
C 	C 	0.81670 0.33557 0.48909 -0.09200
H 	H 	0.80770 0.37400 0.48350 0.05500
C 	C 	0.82470 0.29720 0.45935 -0.10900
H 	H 	0.82320 0.30370 0.42900 0.06100
C 	C 	0.83590 0.24463 0.48235 0.10700
C 	C 	0.85400 0.19467 0.46511 -0.15600
C 	C 	0.86050 0.14305 0.48629 0.11000
C 	C 	0.87640 0.09158 0.46904 -0.08300
H 	H 	0.88880 0.08680 0.44220 0.06300
C 	C 	0.87070 0.05100 0.49745 -0.07500
H 	H 	0.87840 0.01250 0.49440 0.06500
C 	C 	0.85100 0.07676 0.53335 0.10400
C 	C 	0.83570 0.04920 0.56858 -0.14500
C 	C 	0.81740 0.07494 0.60352 0.10400
C 	C 	0.79800 0.04562 0.63812 -0.08300
H 	H 	0.79260 0.00650 0.64000 0.05800
C 	C 	0.78890 0.08416 0.66740 -0.08000
H 	H 	0.77570 0.07730 0.69370 0.05900
C 	C 	0.80293 0.13783 0.65126 0.09700
C 	C 	0.80862 0.18802 0.67522 -0.13700
C 	C 	0.82617 0.23876 0.65964 0.10000
C 	C 	0.83900 0.28915 0.68435 -0.10200
H 	H 	0.84110 0.29360 0.71510 0.04700
C 	C 	0.84770 0.32974 0.65630 -0.07900
H 	H 	0.85850 0.36750 0.66380 0.05800
C 	C 	0.83760 0.30486 0.61312 0.09100
C 	C 	0.83080 0.33331 0.57280 -0.12600
N 	N 	0.83239 0.25076 0.52513 -0.24500
N 	N 	0.84687 0.13319 0.52627 -0.24400
N 	N 	0.81866 0.13067 0.61138 -0.24300
N 	N 	0.82911 0.24850 0.61722 -0.23800
C 	C 	0.87110 0.19846 0.42151 0.17100
C 	C 	0.82350 0.20171 0.38138 -0.22100
H 	H 	0.77940 0.19930 0.38100 0.10700
C 	C 	0.84040 0.20847 0.34187 0.14600
H 	H 	0.80770 0.21120 0.31450 -0.00800
C 	C 	0.90440 0.21134 0.34179 -0.24500
C 	C 	0.95140 0.20530 0.38118 0.16000
H 	H 	0.99540 0.20540 0.38140 -0.02100
C 	C 	0.93400 0.19910 0.42118 -0.21700
H 	H 	0.96670 0.19530 0.44850 0.11500
C 	C 	0.92160 0.22126 0.29960 0.49700
O 	O 	0.87734 0.22344 0.26352 -0.51700
O 	O 	0.98061 0.22695 0.30058 -0.57700
C 	C 	0.83850 0.98697 0.57052 0.14100
C 	C 	0.89320 0.96035 0.59662 -0.18800
H 	H 	0.93120 0.98110 0.60930 0.09700
C 	C 	0.89200 0.90382 0.60401 0.11000
H 	H 	0.92900 0.88610 0.62260 -0.01200
C 	C 	0.83760 0.87256 0.58469 -0.18900
C 	C 	0.78350 0.89889 0.55687 0.10900
H 	H 	0.74640 0.87770 0.54280 0.01900
C 	C 	0.78420 0.95531 0.54988 -0.18000
H 	H 	0.74740 0.97300 0.53090 0.10000
C 	C 	0.83470 0.81209 0.59256 0.40900
O 	O 	0.78593 0.78516 0.57285 -0.44200
O 	O 	0.88297 0.78853 0.61986 -0.58900
C 	C 	0.78970 0.18675 0.71798 0.12200
C 	C 	0.72630 0.17523 0.71755 -0.16600
H 	H 	0.69590 0.16610 0.69010 0.08800
C 	C 	0.70690 0.17694 0.75646 0.09500
H 	H 	0.66350 0.16920 0.75570 0.00200
C 	C 	0.75120 0.19002 0.79656 -0.16900
C 	C 	0.81500 0.19834 0.79797 0.07400
H 	H 	0.84570 0.20480 0.82580 0.01300
C 	C 	0.83510 0.19726 0.75854 -0.15800
H 	H 	0.87890 0.20360 0.75960 0.07100
C 	C 	0.72950 0.19682 0.83813 0.39300
O 	O 	0.66933 0.20530 0.83369 -0.63600
O 	O 	0.76844 0.19433 0.87614 -0.39300
C 	C 	0.83100 0.39537 0.57436 0.11200
C 	C 	0.87680 0.42612 0.55984 -0.14200
H 	H 	0.90750 0.40730 0.54830 0.08500
C 	C 	0.87760 0.48342 0.56227 0.04700
H 	H 	0.90860 0.50400 0.55230 0.02700
C 	C 	0.83260 0.51134 0.57935 -0.10600
C 	C 	0.78720 0.48084 0.59355 0.04900
H 	H 	0.75650 0.49950 0.60510 0.02900
C 	C 	0.78660 0.42312 0.59086 -0.14400
H 	H 	0.75520 0.40260 0.60050 0.08100
C 	C 	0.83190 0.57345 0.58190 0.30300
O 	O 	0.80670 0.59678 0.60965 -0.41200
O 	O 	0.85550 0.60282 0.55580 -0.39300
Cu	Cu	0.83170 0.19023 0.56940 0.86200
C 	C 	0.99801 0.84578 0.28976 0.11700
C 	C 	0.99190 0.87259 0.32941 -0.08100
H 	H 	0.99250 0.91160 0.33460 0.06400
C 	C 	0.98500 0.83232 0.35824 -0.09400
H 	H 	0.97950 0.83790 0.38720 0.06300
C 	C 	0.98750 0.77982 0.33713 0.10600
C 	C 	0.97904 0.72818 0.35545 -0.17400
C 	C 	0.98350 0.67601 0.33582 0.11000
C 	C 	0.98050 0.62308 0.35722 -0.07800
H 	H 	0.97490 0.61730 0.38610 0.06300
C 	C 	0.98740 0.58314 0.32792 -0.08600
H 	H 	0.98790 0.54410 0.33290 0.06800
C 	C 	0.99386 0.60993 0.28853 0.12300
N 	N 	0.99645 0.78881 0.29539 -0.23800
N 	N 	0.99138 0.66706 0.29398 -0.24200
C 	C 	0.05030 0.96544 0.27799 -0.20300
H 	H 	0.08530 0.94620 0.29740 0.10000
C 	C 	0.05000 0.02291 0.27802 0.13100
H 	H 	0.08460 0.04250 0.29760 -0.01400
O 	O 	0.95159 0.13924 0.22502 -0.51500
C 	C 	0.96340 0.72670 0.39944 0.22400
C 	C 	0.90120 0.72360 0.40207 -0.24400
H 	H 	0.86740 0.72490 0.37510 0.11600
C 	C 	0.88550 0.71890 0.44152 0.17000
H 	H 	0.84170 0.71710 0.44190 0.00200
C 	C 	0.93400 0.71670 0.48085 -0.22700
C 	C 	0.99560 0.71970 0.47871 0.22300
H 	H 	0.02960 0.71760 0.50550 -0.04000
C 	C 	0.00980 0.72570 0.43860 -0.31100
H 	H 	0.05350 0.72930 0.43840 0.11900
C 	C 	0.92040 0.71030 0.52710 0.45900
O 	O 	0.96660 0.69590 0.55900 -0.33200
O 	O 	0.86710 0.71874 0.52955 -0.49600
C 	C 	0.05280 0.49174 0.27545 -0.19300
H 	H 	0.08910 0.51140 0.29300 0.09600
C 	C 	0.05280 0.43344 0.27537 0.11900
H 	H 	0.08920 0.41380 0.29280 -0.00700
O 	O 	0.04991 0.31737 0.27255 -0.52500
O 	O 	0.73100 0.66280 0.53610 -0.25500
O 	O 	0.72920 0.30510 0.02210 -0.08400
Eu	Eu	0.41378 0.72919 0.19866 1.96400
Eu	Eu	0.32479 0.19043 0.58727 1.92800
C 	C 	0.32430 0.80742 0.53066 0.08600
C 	C 	0.31670 0.83557 0.48909 -0.09300
H 	H 	0.30770 0.87400 0.48350 0.05400
C 	C 	0.32470 0.79720 0.45935 -0.11000
H 	H 	0.32320 0.80370 0.42900 0.06000
C 	C 	0.33590 0.74463 0.48235 0.10600
C 	C 	0.35400 0.69467 0.46511 -0.15600
C 	C 	0.36050 0.64305 0.48629 0.10900
C 	C 	0.37640 0.59158 0.46904 -0.08400
H 	H 	0.38880 0.58680 0.44220 0.06100
C 	C 	0.37070 0.55100 0.49745 -0.07600
H 	H 	0.37840 0.51250 0.49440 0.06300
C 	C 	0.35100 0.57676 0.53335 0.10300
C 	C 	0.33570 0.54920 0.56858 -0.14600
C 	C 	0.31740 0.57494 0.60352 0.10300
C 	C 	0.29800 0.54562 0.63812 -0.08400
H 	H 	0.29260 0.50650 0.64000 0.05700
C 	C 	0.28890 0.58416 0.66740 -0.08000
H 	H 	0.27570 0.57730 0.69370 0.05900
C 	C 	0.30293 0.63783 0.65126 0.09600
C 	C 	0.30862 0.68802 0.67522 -0.13800
C 	C 	0.32617 0.73876 0.65964 0.09800
C 	C 	0.33900 0.78915 0.68435 -0.10300
H 	H 	0.34110 0.79360 0.71510 0.04700
C 	C 	0.34770 0.82974 0.65630 -0.08000
H 	H 	0.35850 0.86750 0.66380 0.05600
C 	C 	0.33760 0.80486 0.61312 0.08900
C 	C 	0.33080 0.83331 0.57280 -0.12700
N 	N 	0.33239 0.75076 0.52513 -0.24600
N 	N 	0.34687 0.63319 0.52627 -0.24500
N 	N 	0.31866 0.63067 0.61138 -0.24400
N 	N 	0.32911 0.74850 0.61722 -0.23900
C 	C 	0.37110 0.69846 0.42151 0.17100
C 	C 	0.32350 0.70171 0.38138 -0.22200
H 	H 	0.27940 0.69930 0.38100 0.10800
C 	C 	0.34040 0.70847 0.34187 0.14800
H 	H 	0.30770 0.71120 0.31450 -0.00800
C 	C 	0.40440 0.71134 0.34179 -0.24900
C 	C 	0.45140 0.70530 0.38118 0.16000
H 	H 	0.49540 0.70540 0.38140 -0.02700
C 	C 	0.43400 0.69910 0.42118 -0.21900
H 	H 	0.46670 0.69530 0.44850 0.11100
C 	C 	0.42160 0.72126 0.29960 0.49800
O 	O 	0.37734 0.72344 0.26352 -0.51700
O 	O 	0.48061 0.72695 0.30058 -0.58800
C 	C 	0.33850 0.48697 0.57052 0.14000
C 	C 	0.39320 0.46035 0.59662 -0.18900
H 	H 	0.43120 0.48110 0.60930 0.09400
C 	C 	0.39200 0.40382 0.60401 0.11000
H 	H 	0.42900 0.38610 0.62260 -0.01500
C 	C 	0.33760 0.37256 0.58469 -0.19000
C 	C 	0.28350 0.39889 0.55687 0.10900
H 	H 	0.24640 0.37770 0.54280 0.01800
C 	C 	0.28420 0.45531 0.54988 -0.18100
H 	H 	0.24740 0.47300 0.53090 0.09900
C 	C 	0.33470 0.31209 0.59256 0.41000
O 	O 	0.28593 0.28516 0.57285 -0.44300
O 	O 	0.38297 0.28853 0.61986 -0.59100
C 	C 	0.28970 0.68675 0.71798 0.12100
C 	C 	0.22630 0.67523 0.71755 -0.16500
H 	H 	0.19590 0.66610 0.69010 0.08700
C 	C 	0.20690 0.67694 0.75646 0.09400
H 	H 	0.16350 0.66920 0.75570 0.00200
C 	C 	0.25120 0.69002 0.79656 -0.16800
C 	C 	0.31500 0.69834 0.79797 0.07300
H 	H 	0.34570 0.70480 0.82580 0.01400
C 	C 	0.33510 0.69726 0.75854 -0.15700
H 	H 	0.37890 0.70360 0.75960 0.06900
C 	C 	0.22950 0.69682 0.83813 0.39200
O 	O 	0.16933 0.70530 0.83369 -0.63400
O 	O 	0.26844 0.69433 0.87614 -0.39300
C 	C 	0.33100 0.89537 0.57436 0.11100
C 	C 	0.37680 0.92612 0.55984 -0.14300
H 	H 	0.40750 0.90730 0.54830 0.08200
C 	C 	0.37760 0.98342 0.56227 0.04600
H 	H 	0.40860 0.00400 0.55230 0.02400
C 	C 	0.33260 0.01134 0.57935 -0.10700
C 	C 	0.28720 0.98084 0.59355 0.04800
H 	H 	0.25650 0.99950 0.60510 0.02800
C 	C 	0.28660 0.92312 0.59086 -0.14500
H 	H 	0.25520 0.90260 0.60050 0.08100
C 	C 	0.33190 0.07345 0.58190 0.30200
O 	O 	0.30670 0.09678 0.60965 -0.41200
O 	O 	0.35550 0.10282 0.55580 -0.39400
Cu	Cu	0.33170 0.69023 0.56940 0.86000
C 	C 	0.49801 0.34578 0.28976 0.09700
C 	C 	0.49190 0.37259 0.32941 -0.07800
H 	H 	0.49250 0.41160 0.33460 0.05800
C 	C 	0.48500 0.33232 0.35824 -0.09200
H 	H 	0.47950 0.33790 0.38720 0.05900
C 	C 	0.48750 0.27982 0.33713 0.09300
C 	C 	0.47904 0.22818 0.35545 -0.14800
C 	C 	0.48350 0.17601 0.33582 0.09800
C 	C 	0.48050 0.12308 0.35722 -0.07700
H 	H 	0.47490 0.11730 0.38610 0.06000
C 	C 	0.48740 0.08314 0.32792 -0.08200
H 	H 	0.48790 0.04410 0.33290 0.06100
C 	C 	0.49386 0.10993 0.28853 0.10200
N 	N 	0.49645 0.28881 0.29539 -0.23800
N 	N 	0.49138 0.16706 0.29398 -0.24200
C 	C 	0.55030 0.46544 0.27799 -0.20200
H 	H 	0.58530 0.44620 0.29740 0.10200
C 	C 	0.55000 0.52291 0.27802 0.13000
H 	H 	0.58460 0.54250 0.29760 -0.01300
O 	O 	0.45159 0.63924 0.22502 -0.52800
C 	C 	0.46340 0.22670 0.39944 0.14200
C 	C 	0.40120 0.22360 0.40207 -0.17800
H 	H 	0.36740 0.22490 0.37510 0.09400
C 	C 	0.38550 0.21890 0.44152 0.10600
H 	H 	0.34170 0.21710 0.44190 0.02300
C 	C 	0.43400 0.21670 0.48085 -0.16200
C 	C 	0.49560 0.21970 0.47871 0.09600
H 	H 	0.52960 0.21760 0.50550 0.01200
C 	C 	0.50980 0.22570 0.43860 -0.18600
H 	H 	0.55350 0.22930 0.43840 0.08100
C 	C 	0.42040 0.21030 0.52710 0.43500
O 	O 	0.46660 0.19590 0.55900 -0.33400
O 	O 	0.36710 0.21874 0.52955 -0.49000
C 	C 	0.55280 0.99174 0.27545 -0.19100
H 	H 	0.58910 0.01140 0.29300 0.09600
C 	C 	0.55280 0.93344 0.27537 0.11700
H 	H 	0.58920 0.91380 0.29280 -0.00600
O 	O 	0.54991 0.81737 0.27255 -0.52700
O 	O 	0.23100 0.16280 0.53610 -0.25500
O 	O 	0.22920 0.80510 0.02210 -0.08500
Eu	Eu	0.08622 0.22919 0.30134 1.94700
Eu	Eu	0.17521 0.69043 0.91273 1.92400
C 	C 	0.17570 0.30742 0.96934 0.08300
C 	C 	0.18330 0.33557 0.01091 -0.09100
H 	H 	0.19230 0.37400 0.01650 0.05300
C 	C 	0.17530 0.29720 0.04065 -0.11100
H 	H 	0.17680 0.30370 0.07100 0.06000
C 	C 	0.16410 0.24463 0.01765 0.10700
C 	C 	0.14600 0.19467 0.03489 -0.15800
C 	C 	0.13950 0.14305 0.01371 0.10900
C 	C 	0.12360 0.09158 0.03096 -0.08600
H 	H 	0.11120 0.08680 0.05780 0.06000
C 	C 	0.12930 0.05100 0.00255 -0.07600
H 	H 	0.12160 0.01250 0.00560 0.06200
C 	C 	0.14900 0.07676 0.96665 0.10000
C 	C 	0.16430 0.04920 0.93142 -0.14500
C 	C 	0.18260 0.07494 0.89648 0.10200
C 	C 	0.20200 0.04562 0.86188 -0.08300
H 	H 	0.20740 0.00650 0.86000 0.05800
C 	C 	0.21110 0.08416 0.83260 -0.08000
H 	H 	0.22430 0.07730 0.80630 0.05900
C 	C 	0.19707 0.13783 0.84874 0.09500
C 	C 	0.19138 0.18802 0.82478 -0.13900
C 	C 	0.17383 0.23876 0.84036 0.09700
C 	C 	0.16100 0.28915 0.81565 -0.10400
H 	H 	0.15890 0.29360 0.78490 0.04700
C 	C 	0.15230 0.32974 0.84370 -0.08100
H 	H 	0.14150 0.36750 0.83620 0.05400
C 	C 	0.16240 0.30486 0.88688 0.08600
C 	C 	0.16920 0.33331 0.92720 -0.12700
N 	N 	0.16761 0.25076 0.97487 -0.24800
N 	N 	0.15313 0.13319 0.97373 -0.24600
N 	N 	0.18134 0.13067 0.88862 -0.24400
N 	N 	0.17089 0.24850 0.88278 -0.24000
C 	C 	0.12890 0.19846 0.07849 0.17200
C 	C 	0.17650 0.20171 0.11862 -0.22400
H 	H 	0.22060 0.19930 0.11900 0.10800
C 	C 	0.15960 0.20847 0.15813 0.14900
H 	H 	0.19230 0.21120 0.18550 -0.00900
C 	C 	0.09560 0.21134 0.15821 -0.25200
C 	C 	0.04860 0.20530 0.11882 0.16000
H 	H 	0.00460 0.20540 0.11860 -0.03300
C 	C 	0.06600 0.19910 0.07882 -0.22000
H 	H 	0.03330 0.19530 0.05150 0.10800
C 	C 	0.07840 0.22126 0.20040 0.50000
O 	O 	0.12266 0.22344 0.23648 -0.51700
O 	O 	0.01939 0.22695 0.19942 -0.59700
C 	C 	0.16150 0.98697 0.92948 0.13800
C 	C 	0.10680 0.96035 0.90338 -0.18900
H 	H 	0.06880 0.98110 0.89070 0.09000
C 	C 	0.10800 0.90382 0.89599 0.10900
H 	H 	0.07100 0.88610 0.87740 -0.01800
C 	C 	0.16240 0.87256 0.91531 -0.19100
C 	C 	0.21650 0.89889 0.94313 0.10900
H 	H 	0.25360 0.87770 0.95720 0.01900
C 	C 	0.21580 0.95531 0.95012 -0.18000
H 	H 	0.25260 0.97300 0.96910 0.09900
C 	C 	0.16530 0.81209 0.90744 0.40900
O 	O 	0.21407 0.78516 0.92715 -0.44200
O 	O 	0.11703 0.78853 0.88014 -0.59200
C 	C 	0.21030 0.18675 0.78202 0.12100
C 	C 	0.27370 0.17523 0.78245 -0.16600
H 	H 	0.30410 0.16610 0.80990 0.08800
C 	C 	0.29310 0.17694 0.74354 0.09400
H 	H 	0.33650 0.16920 0.74430 0.00200
C 	C 	0.24880 0.19002 0.70344 -0.16900
C 	C 	0.18500 0.19834 0.70203 0.07400
H 	H 	0.15430 0.20480 0.67420 0.01400
C 	C 	0.16490 0.19726 0.74146 -0.15700
H 	H 	0.12110 0.20360 0.74040 0.06900
C 	C 	0.27050 0.19682 0.66187 0.39300
O 	O 	0.33067 0.20530 0.66631 -0.63600
O 	O 	0.23156 0.19433 0.62386 -0.39400
C 	C 	0.16900 0.39537 0.92564 0.11000
C 	C 	0.12320 0.42612 0.94016 -0.14400
H 	H 	0.09250 0.40730 0.95170 0.07900
C 	C 	0.12240 0.48342 0.93773 0.04500
H 	H 	0.09140 0.50400 0.94770 0.02200
C 	C 	0.16740 0.51134 0.92065 -0.10800
C 	C 	0.21280 0.48084 0.90645 0.04800
H 	H 	0.24350 0.49950 0.89490 0.02900
C 	C 	0.21340 0.42312 0.90914 -0.14500
H 	H 	0.24480 0.40260 0.89950 0.08100
C 	C 	0.16810 0.57345 0.91810 0.30200
O 	O 	0.19330 0.59678 0.89035 -0.41200
O 	O 	0.14450 0.60282 0.94420 -0.39500
Cu	Cu	0.16830 0.19023 0.93060 0.85900
C 	C 	0.00199 0.84578 0.21024 0.09900
C 	C 	0.00810 0.87259 0.17059 -0.08500
H 	H 	0.00750 0.91160 0.16540 0.05600
C 	C 	0.01500 0.83232 0.14176 -0.08500
H 	H 	0.02050 0.83790 0.11280 0.05300
C 	C 	0.01250 0.77982 0.16287 0.07900
C 	C 	0.02096 0.72818 0.14455 -0.12100
C 	C 	0.01650 0.67601 0.16418 0.08500
C 	C 	0.01950 0.62308 0.14278 -0.07100
H 	H 	0.02510 0.61730 0.11390 0.05400
C 	C 	0.01260 0.58314 0.17208 -0.09000
H 	H 	0.01210 0.54410 0.16710 0.06000
C 	C 	0.00614 0.60993 0.21147 0.10500
N 	N 	0.00355 0.78881 0.20461 -0.24000
N 	N 	0.00862 0.66706 0.20602 -0.24300
C 	C 	0.94970 0.96544 0.22201 -0.18800
H 	H 	0.91470 0.94620 0.20260 0.10000
C 	C 	0.95000 0.02291 0.22198 0.14500
H 	H 	0.91540 0.04250 0.20240 -0.01600
O 	O 	0.04841 0.13924 0.27498 -0.52600
C 	C 	0.03660 0.72670 0.10056 0.06200
C 	C 	0.09880 0.72360 0.09793 -0.11200
H 	H 	0.13260 0.72490 0.12490 0.07200
C 	C 	0.11450 0.71890 0.05848 0.04100
H 	H 	0.15830 0.71710 0.05810 0.04400
C 	C 	0.06600 0.71670 0.01915 -0.09700
C 	C 	0.00440 0.71970 0.02129 -0.02700
H 	H 	0.97040 0.71760 0.99450 0.06100
C 	C 	0.99020 0.72570 0.06140 -0.06200
H 	H 	0.94650 0.72930 0.06160 0.04400
C 	C 	0.07960 0.71030 0.97290 0.41000
O 	O 	0.03340 0.69590 0.94100 -0.33500
O 	O 	0.13290 0.71874 0.97045 -0.48400
C 	C 	0.94720 0.49174 0.22455 -0.17800
H 	H 	0.91090 0.51140 0.20700 0.09500
C 	C 	0.94720 0.43344 0.22463 0.13300
H 	H 	0.91080 0.41380 0.20720 -0.00900
O 	O 	0.95009 0.31737 0.22745 -0.51400
O 	O 	0.26900 0.66280 0.96390 -0.25400
O 	O 	0.27080 0.30510 0.47790 -0.08500
Eu	Eu	0.58622 0.72919 0.30134 1.96400
Eu	Eu	0.67521 0.19043 0.91273 1.92800
C 	C 	0.67570 0.80742 0.96934 0.08400
C 	C 	0.68330 0.83557 0.01091 -0.09100
H 	H 	0.69230 0.87400 0.01650 0.05300
C 	C 	0.67530 0.79720 0.04065 -0.11200
H 	H 	0.67680 0.80370 0.07100 0.06000
C 	C 	0.66410 0.74463 0.01765 0.10800
C 	C 	0.64600 0.69467 0.03489 -0.15700
C 	C 	0.63950 0.64305 0.01371 0.11000
C 	C 	0.62360 0.59158 0.03096 -0.08500
H 	H 	0.61120 0.58680 0.05780 0.06200
C 	C 	0.62930 0.55100 0.00255 -0.07400
H 	H 	0.62160 0.51250 0.00560 0.06300
C 	C 	0.64900 0.57676 0.96665 0.10100
C 	C 	0.66430 0.54920 0.93142 -0.14500
C 	C 	0.68260 0.57494 0.89648 0.10300
C 	C 	0.70200 0.54562 0.86188 -0.08300
H 	H 	0.70740 0.50650 0.86000 0.05800
C 	C 	0.71110 0.58416 0.83260 -0.08000
H 	H 	0.72430 0.57730 0.80630 0.05900
C 	C 	0.69707 0.63783 0.84874 0.09600
C 	C 	0.69138 0.68802 0.82478 -0.13800
C 	C 	0.67383 0.73876 0.84036 0.09900
C 	C 	0.66100 0.78915 0.81565 -0.10300
H 	H 	0.65890 0.79360 0.78490 0.04700
C 	C 	0.65230 0.82974 0.84370 -0.07900
H 	H 	0.64150 0.86750 0.83620 0.05600
C 	C 	0.66240 0.80486 0.88688 0.08800
C 	C 	0.66920 0.83331 0.92720 -0.12600
N 	N 	0.66761 0.75076 0.97487 -0.24600
N 	N 	0.65313 0.63319 0.97373 -0.24500
N 	N 	0.68134 0.63067 0.88862 -0.24400
N 	N 	0.67089 0.74850 0.88278 -0.23900
C 	C 	0.62890 0.69846 0.07849 0.17200
C 	C 	0.67650 0.70171 0.11862 -0.22200
H 	H 	0.72060 0.69930 0.11900 0.10800
C 	C 	0.65960 0.70847 0.15813 0.14800
H 	H 	0.69230 0.71120 0.18550 -0.00800
C 	C 	0.59560 0.71134 0.15821 -0.24900
C 	C 	0.54860 0.70530 0.11882 0.16000
H 	H 	0.50460 0.70540 0.11860 -0.02700
C 	C 	0.56600 0.69910 0.07882 -0.21900
H 	H 	0.53330 0.69530 0.05150 0.11200
C 	C 	0.57840 0.72126 0.20040 0.49800
O 	O 	0.62266 0.72344 0.23648 -0.51700
O 	O 	0.51939 0.72695 0.19942 -0.58800
C 	C 	0.66150 0.48697 0.92948 0.14000
C 	C 	0.60680 0.46035 0.90338 -0.18900
H 	H 	0.56880 0.48110 0.89070 0.09300
C 	C 	0.60800 0.40382 0.89599 0.11000
H 	H 	0.57100 0.38610 0.87740 -0.01500
C 	C 	0.66240 0.37256 0.91531 -0.18900
C 	C 	0.71650 0.39889 0.94313 0.10900
H 	H 	0.75360 0.37770 0.95720 0.01900
C 	C 	0.71580 0.45531 0.95012 -0.18000
H 	H 	0.75260 0.47300 0.96910 0.10000
C 	C 	0.66530 0.31209 0.90744 0.40900
O 	O 	0.71407 0.28516 0.92715 -0.44100
O 	O 	0.61703 0.28853 0.88014 -0.59100
C 	C 	0.71030 0.68675 0.78202 0.12100
C 	C 	0.77370 0.67523 0.78245 -0.16600
H 	H 	0.80410 0.66610 0.80990 0.08900
C 	C 	0.79310 0.67694 0.74354 0.09500
H 	H 	0.83650 0.66920 0.74430 0.00300
C 	C 	0.74880 0.69002 0.70344 -0.16900
C 	C 	0.68500 0.69834 0.70203 0.07400
H 	H 	0.65430 0.70480 0.67420 0.01400
C 	C 	0.66490 0.69726 0.74146 -0.15800
H 	H 	0.62110 0.70360 0.74040 0.06900
C 	C 	0.77050 0.69682 0.66187 0.39300
O 	O 	0.83067 0.70530 0.66631 -0.63700
O 	O 	0.73156 0.69433 0.62386 -0.39400
C 	C 	0.66900 0.89537 0.92564 0.10900
C 	C 	0.62320 0.92612 0.94016 -0.14200
H 	H 	0.59250 0.90730 0.95170 0.08100
C 	C 	0.62240 0.98342 0.93773 0.04400
H 	H 	0.59140 0.00400 0.94770 0.02500
C 	C 	0.66740 0.01134 0.92065 -0.10500
C 	C 	0.71280 0.98084 0.90645 0.04700
H 	H 	0.74350 0.99950 0.89490 0.03000
C 	C 	0.71340 0.92312 0.90914 -0.14300
H 	H 	0.74480 0.90260 0.89950 0.08100
C 	C 	0.66810 0.07345 0.91810 0.30200
O 	O 	0.69330 0.09678 0.89035 -0.41100
O 	O 	0.64450 0.10282 0.94420 -0.39400
Cu	Cu	0.66830 0.69023 0.93060 0.86000
C 	C 	0.50199 0.34578 0.21024 0.09700
C 	C 	0.50810 0.37259 0.17059 -0.07800
H 	H 	0.50750 0.41160 0.16540 0.05800
C 	C 	0.51500 0.33232 0.14176 -0.09200
H 	H 	0.52050 0.33790 0.11280 0.05900
C 	C 	0.51250 0.27982 0.16287 0.09300
C 	C 	0.52096 0.22818 0.14455 -0.14800
C 	C 	0.51650 0.17601 0.16418 0.09800
C 	C 	0.51950 0.12308 0.14278 -0.07700
H 	H 	0.52510 0.11730 0.11390 0.06000
C 	C 	0.51260 0.08314 0.17208 -0.08200
H 	H 	0.51210 0.04410 0.16710 0.06100
C 	C 	0.50614 0.10993 0.21147 0.10200
N 	N 	0.50355 0.28881 0.20461 -0.23800
N 	N 	0.50862 0.16706 0.20602 -0.24200
C 	C 	0.44970 0.46544 0.22201 -0.20300
H 	H 	0.41470 0.44620 0.20260 0.10200
C 	C 	0.45000 0.52291 0.22198 0.13000
H 	H 	0.41540 0.54250 0.20240 -0.01300
O 	O 	0.54841 0.63924 0.27498 -0.52800
C 	C 	0.53660 0.22670 0.10056 0.14300
C 	C 	0.59880 0.22360 0.09793 -0.17900
H 	H 	0.63260 0.22490 0.12490 0.09400
C 	C 	0.61450 0.21890 0.05848 0.10600
H 	H 	0.65830 0.21710 0.05810 0.02300
C 	C 	0.56600 0.21670 0.01915 -0.16200
C 	C 	0.50440 0.21970 0.02129 0.09800
H 	H 	0.47040 0.21760 0.99450 0.01000
C 	C 	0.49020 0.22570 0.06140 -0.18700
H 	H 	0.44650 0.22930 0.06160 0.08200
C 	C 	0.57960 0.21030 0.97290 0.43500
O 	O 	0.53340 0.19590 0.94100 -0.33400
O 	O 	0.63290 0.21874 0.97045 -0.49000
C 	C 	0.44720 0.99174 0.22455 -0.19100
H 	H 	0.41090 0.01140 0.20700 0.09600
C 	C 	0.44720 0.93344 0.22463 0.11700
H 	H 	0.41080 0.91380 0.20720 -0.00600
O 	O 	0.45009 0.81737 0.22745 -0.52700
O 	O 	0.76900 0.16280 0.96390 -0.25400
O 	O 	0.77080 0.80510 0.47790 -0.08400
Eu	Eu	0.08622 0.77081 0.80134 1.94700
Eu	Eu	0.17521 0.30957 0.41273 1.92400
C 	C 	0.17570 0.69258 0.46934 0.08500
C 	C 	0.18330 0.66443 0.51091 -0.09300
H 	H 	0.19230 0.62600 0.51650 0.05300
C 	C 	0.17530 0.70280 0.54065 -0.11000
H 	H 	0.17680 0.69630 0.57100 0.05900
C 	C 	0.16410 0.75537 0.51765 0.10600
C 	C 	0.14600 0.80533 0.53489 -0.15700
C 	C 	0.13950 0.85695 0.51371 0.10800
C 	C 	0.12360 0.90842 0.53096 -0.08500
H 	H 	0.11120 0.91320 0.55780 0.05900
C 	C 	0.12930 0.94900 0.50255 -0.07700
H 	H 	0.12160 0.98750 0.50560 0.06200
C 	C 	0.14900 0.92324 0.46665 0.10200
C 	C 	0.16430 0.95080 0.43142 -0.14600
C 	C 	0.18260 0.92506 0.39648 0.10200
C 	C 	0.20200 0.95438 0.36188 -0.08400
H 	H 	0.20740 0.99350 0.36000 0.05800
C 	C 	0.21110 0.91584 0.33260 -0.08000
H 	H 	0.22430 0.92270 0.30630 0.05900
C 	C 	0.19707 0.86217 0.34874 0.09500
C 	C 	0.19138 0.81198 0.32478 -0.13900
C 	C 	0.17383 0.76124 0.34036 0.09700
C 	C 	0.16100 0.71085 0.31565 -0.10400
H 	H 	0.15890 0.70640 0.28490 0.04700
C 	C 	0.15230 0.67026 0.34370 -0.08100
H 	H 	0.14150 0.63250 0.33620 0.05400
C 	C 	0.16240 0.69514 0.38688 0.08600
C 	C 	0.16920 0.66669 0.42720 -0.12800
N 	N 	0.16761 0.74924 0.47487 -0.24700
N 	N 	0.15313 0.86681 0.47373 -0.24500
N 	N 	0.18134 0.86933 0.38862 -0.24400
N 	N 	0.17089 0.75150 0.38278 -0.24000
C 	C 	0.12890 0.80154 0.57849 0.17200
C 	C 	0.17650 0.79829 0.61862 -0.22300
H 	H 	0.22060 0.80070 0.61900 0.10800
C 	C 	0.15960 0.79153 0.65813 0.14900
H 	H 	0.19230 0.78880 0.68550 -0.00900
C 	C 	0.09560 0.78866 0.65821 -0.25200
C 	C 	0.04860 0.79470 0.61882 0.16000
H 	H 	0.00460 0.79460 0.61860 -0.03300
C 	C 	0.06600 0.80090 0.57882 -0.22000
H 	H 	0.03330 0.80470 0.55150 0.10800
C 	C 	0.07840 0.77874 0.70040 0.50000
O 	O 	0.12266 0.77656 0.73648 -0.51700
O 	O 	0.01939 0.77305 0.69942 -0.59700
C 	C 	0.16150 0.01303 0.42948 0.13900
C 	C 	0.10680 0.03965 0.40338 -0.18900
H 	H 	0.06880 0.01890 0.39070 0.09000
C 	C 	0.10800 0.09618 0.39599 0.11000
H 	H 	0.07100 0.11390 0.37740 -0.01800
C 	C 	0.16240 0.12744 0.41531 -0.19100
C 	C 	0.21650 0.10111 0.44313 0.10900
H 	H 	0.25360 0.12230 0.45720 0.01900
C 	C 	0.21580 0.04469 0.45012 -0.18100
H 	H 	0.25260 0.02700 0.46910 0.10000
C 	C 	0.16530 0.18791 0.40744 0.40900
O 	O 	0.21407 0.21484 0.42715 -0.44200
O 	O 	0.11703 0.21147 0.38014 -0.59200
C 	C 	0.21030 0.81325 0.28202 0.12100
C 	C 	0.27370 0.82477 0.28245 -0.16600
H 	H 	0.30410 0.83390 0.30990 0.08800
C 	C 	0.29310 0.82306 0.24354 0.09400
H 	H 	0.33650 0.83080 0.24430 0.00200
C 	C 	0.24880 0.80998 0.20344 -0.16900
C 	C 	0.18500 0.80166 0.20203 0.07400
H 	H 	0.15430 0.79520 0.17420 0.01400
C 	C 	0.16490 0.80274 0.24146 -0.15700
H 	H 	0.12110 0.79640 0.24040 0.06900
C 	C 	0.27050 0.80318 0.16187 0.39300
O 	O 	0.33067 0.79470 0.16631 -0.63600
O 	O 	0.23156 0.80567 0.12386 -0.39400
C 	C 	0.16900 0.60463 0.42564 0.11000
C 	C 	0.12320 0.57388 0.44016 -0.14400
H 	H 	0.09250 0.59270 0.45170 0.07900
C 	C 	0.12240 0.51658 0.43773 0.04500
H 	H 	0.09140 0.49600 0.44770 0.02200
C 	C 	0.16740 0.48866 0.42065 -0.10800
C 	C 	0.21280 0.51916 0.40645 0.04800
H 	H 	0.24350 0.50050 0.39490 0.02900
C 	C 	0.21340 0.57688 0.40914 -0.14500
H 	H 	0.24480 0.59740 0.39950 0.08100
C 	C 	0.16810 0.42655 0.41810 0.30200
O 	O 	0.19330 0.40322 0.39035 -0.41200
O 	O 	0.14450 0.39718 0.44420 -0.39500
Cu	Cu	0.16830 0.80977 0.43060 0.85900
C 	C 	0.00199 0.15422 0.71024 0.09900
C 	C 	0.00810 0.12741 0.67059 -0.08500
H 	H 	0.00750 0.08840 0.66540 0.05600
C 	C 	0.01500 0.16768 0.64176 -0.08500
H 	H 	0.02050 0.16210 0.61280 0.05300
C 	C 	0.01250 0.22018 0.66287 0.07900
C 	C 	0.02096 0.27182 0.64455 -0.12000
C 	C 	0.01650 0.32399 0.66418 0.08400
C 	C 	0.01950 0.37692 0.64278 -0.07100
H 	H 	0.02510 0.38270 0.61390 0.05400
C 	C 	0.01260 0.41686 0.67208 -0.09000
H 	H 	0.01210 0.45590 0.66710 0.06000
C 	C 	0.00614 0.39007 0.71147 0.10500
N 	N 	0.00355 0.21119 0.70461 -0.24000
N 	N 	0.00862 0.33294 0.70602 -0.24300
C 	C 	0.94970 0.03456 0.72201 -0.18800
H 	H 	0.91470 0.05380 0.70260 0.10000
C 	C 	0.95000 0.97709 0.72198 0.14600
H 	H 	0.91540 0.95750 0.70240 -0.01600
O 	O 	0.04841 0.86076 0.77498 -0.52600
C 	C 	0.03660 0.27330 0.60056 0.06000
C 	C 	0.09880 0.27640 0.59793 -0.11100
H 	H 	0.13260 0.27510 0.62490 0.07200
C 	C 	0.11450 0.28110 0.55848 0.04000
H 	H 	0.15830 0.28290 0.55810 0.04400
C 	C 	0.06600 0.28330 0.51915 -0.09600
C 	C 	0.00440 0.28030 0.52129 -0.03100
H 	H 	0.97040 0.28240 0.49450 0.06300
C 	C 	0.99020 0.27430 0.56140 -0.05900
H 	H 	0.94650 0.27070 0.56160 0.04300
C 	C 	0.07960 0.28970 0.47290 0.41100
O 	O 	0.03340 0.30410 0.44100 -0.33500
O 	O 	0.13290 0.28126 0.47045 -0.48400
C 	C 	0.94720 0.50826 0.72455 -0.17800
H 	H 	0.91090 0.48860 0.70700 0.09500
C 	C 	0.94720 0.56656 0.72463 0.13300
H 	H 	0.91080 0.58620 0.70720 -0.00900
O 	O 	0.95009 0.68263 0.72745 -0.51300
O 	O 	0.26900 0.33720 0.46390 -0.25400
O 	O 	0.27080 0.69490 0.97790 -0.08600
Eu	Eu	0.58622 0.27081 0.80134 1.96400
Eu	Eu	0.67521 0.80957 0.41273 1.92900
C 	C 	0.67570 0.19258 0.46934 0.08600
C 	C 	0.68330 0.16443 0.51091 -0.09300
H 	H 	0.69230 0.12600 0.51650 0.05400
C 	C 	0.67530 0.20280 0.54065 -0.11000
H 	H 	0.67680 0.19630 0.57100 0.06000
C 	C 	0.66410 0.25537 0.51765 0.10600
C 	C 	0.64600 0.30533 0.53489 -0.15600
C 	C 	0.63950 0.35695 0.51371 0.10900
C 	C 	0.62360 0.40842 0.53096 -0.08400
H 	H 	0.61120 0.41320 0.55780 0.06100
C 	C 	0.62930 0.44900 0.50255 -0.07600
H 	H 	0.62160 0.48750 0.50560 0.06300
C 	C 	0.64900 0.42324 0.46665 0.10300
C 	C 	0.66430 0.45080 0.43142 -0.14600
C 	C 	0.68260 0.42506 0.39648 0.10300
C 	C 	0.70200 0.45438 0.36188 -0.08300
H 	H 	0.70740 0.49350 0.36000 0.05800
C 	C 	0.71110 0.41584 0.33260 -0.08000
H 	H 	0.72430 0.42270 0.30630 0.05900
C 	C 	0.69707 0.36217 0.34874 0.09600
C 	C 	0.69138 0.31198 0.32478 -0.13800
C 	C 	0.67383 0.26124 0.34036 0.09800
C 	C 	0.66100 0.21085 0.31565 -0.10300
H 	H 	0.65890 0.20640 0.28490 0.04700
C 	C 	0.65230 0.17026 0.34370 -0.08000
H 	H 	0.64150 0.13250 0.33620 0.05600
C 	C 	0.66240 0.19514 0.38688 0.08900
C 	C 	0.66920 0.16669 0.42720 -0.12600
N 	N 	0.66761 0.24924 0.47487 -0.24600
N 	N 	0.65313 0.36681 0.47373 -0.24500
N 	N 	0.68134 0.36933 0.38862 -0.24400
N 	N 	0.67089 0.25150 0.38278 -0.23900
C 	C 	0.62890 0.30154 0.57849 0.17100
C 	C 	0.67650 0.29829 0.61862 -0.22200
H 	H 	0.72060 0.30070 0.61900 0.10800
C 	C 	0.65960 0.29153 0.65813 0.14700
H 	H 	0.69230 0.28880 0.68550 -0.00800
C 	C 	0.59560 0.28866 0.65821 -0.24900
C 	C 	0.54860 0.29470 0.61882 0.16000
H 	H 	0.50460 0.29460 0.61860 -0.02700
C 	C 	0.56600 0.30090 0.57882 -0.21900
H 	H 	0.53330 0.30470 0.55150 0.11100
C 	C 	0.57840 0.27874 0.70040 0.49800
O 	O 	0.62266 0.27656 0.73648 -0.51700
O 	O 	0.51939 0.27305 0.69942 -0.58800
C 	C 	0.66150 0.51303 0.42948 0.14000
C 	C 	0.60680 0.53965 0.40338 -0.18900
H 	H 	0.56880 0.51890 0.39070 0.09300
C 	C 	0.60800 0.59618 0.39599 0.11000
H 	H 	0.57100 0.61390 0.37740 -0.01500
C 	C 	0.66240 0.62744 0.41531 -0.18900
C 	C 	0.71650 0.60111 0.44313 0.10900
H 	H 	0.75360 0.62230 0.45720 0.01900
C 	C 	0.71580 0.54469 0.45012 -0.18000
H 	H 	0.75260 0.52700 0.46910 0.10000
C 	C 	0.66530 0.68791 0.40744 0.40900
O 	O 	0.71407 0.71484 0.42715 -0.44100
O 	O 	0.61703 0.71147 0.38014 -0.59100
C 	C 	0.71030 0.31325 0.28202 0.12100
C 	C 	0.77370 0.32477 0.28245 -0.16600
H 	H 	0.80410 0.33390 0.30990 0.08900
C 	C 	0.79310 0.32306 0.24354 0.09500
H 	H 	0.83650 0.33080 0.24430 0.00300
C 	C 	0.74880 0.30998 0.20344 -0.16900
C 	C 	0.68500 0.30166 0.20203 0.07400
H 	H 	0.65430 0.29520 0.17420 0.01400
C 	C 	0.66490 0.30274 0.24146 -0.15800
H 	H 	0.62110 0.29640 0.24040 0.06900
C 	C 	0.77050 0.30318 0.16187 0.39300
O 	O 	0.83067 0.29470 0.16631 -0.63700
O 	O 	0.73156 0.30567 0.12386 -0.39400
C 	C 	0.66900 0.10463 0.42564 0.11000
C 	C 	0.62320 0.07388 0.44016 -0.14300
H 	H 	0.59250 0.09270 0.45170 0.08200
C 	C 	0.62240 0.01658 0.43773 0.04600
H 	H 	0.59140 0.99600 0.44770 0.02500
C 	C 	0.66740 0.98866 0.42065 -0.10600
C 	C 	0.71280 0.01916 0.40645 0.04800
H 	H 	0.74350 0.00050 0.39490 0.02900
C 	C 	0.71340 0.07688 0.40914 -0.14400
H 	H 	0.74480 0.09740 0.39950 0.08100
C 	C 	0.66810 0.92655 0.41810 0.30200
O 	O 	0.69330 0.90322 0.39035 -0.41100
O 	O 	0.64450 0.89718 0.44420 -0.39400
Cu	Cu	0.66830 0.30977 0.43060 0.86000
C 	C 	0.50199 0.65422 0.71024 0.09700
C 	C 	0.50810 0.62741 0.67059 -0.07800
H 	H 	0.50750 0.58840 0.66540 0.05800
C 	C 	0.51500 0.66768 0.64176 -0.09200
H 	H 	0.52050 0.66210 0.61280 0.05900
C 	C 	0.51250 0.72018 0.66287 0.09300
C 	C 	0.52096 0.77182 0.64455 -0.14800
C 	C 	0.51650 0.82399 0.66418 0.09800
C 	C 	0.51950 0.87692 0.64278 -0.07700
H 	H 	0.52510 0.88270 0.61390 0.06000
C 	C 	0.51260 0.91686 0.67208 -0.08300
H 	H 	0.51210 0.95590 0.66710 0.06100
C 	C 	0.50614 0.89007 0.71147 0.10200
N 	N 	0.50355 0.71119 0.70461 -0.23800
N 	N 	0.50862 0.83294 0.70602 -0.24200
C 	C 	0.44970 0.53456 0.72201 -0.20300
H 	H 	0.41470 0.55380 0.70260 0.10200
C 	C 	0.45000 0.47709 0.72198 0.13000
H 	H 	0.41540 0.45750 0.70240 -0.01300
O 	O 	0.54841 0.36076 0.77498 -0.52800
C 	C 	0.53660 0.77330 0.60056 0.14200
C 	C 	0.59880 0.77640 0.59793 -0.17800
H 	H 	0.63260 0.77510 0.62490 0.09400
C 	C 	0.61450 0.78110 0.55848 0.10600
H 	H 	0.65830 0.78290 0.55810 0.02300
C 	C 	0.56600 0.78330 0.51915 -0.16200
C 	C 	0.50440 0.78030 0.52129 0.09600
H 	H 	0.47040 0.78240 0.49450 0.01200
C 	C 	0.49020 0.77430 0.56140 -0.18600
H 	H 	0.44650 0.77070 0.56160 0.08100
C 	C 	0.57960 0.78970 0.47290 0.43500
O 	O 	0.53340 0.80410 0.44100 -0.33400
O 	O 	0.63290 0.78126 0.47045 -0.49000
C 	C 	0.44720 0.00826 0.72455 -0.19100
H 	H 	0.41090 0.98860 0.70700 0.09600
C 	C 	0.44720 0.06656 0.72463 0.11700
H 	H 	0.41080 0.08620 0.70720 -0.00600
O 	O 	0.45009 0.18263 0.72745 -0.52700
O 	O 	0.76900 0.83720 0.46390 -0.25400
O 	O 	0.77080 0.19490 0.97790 -0.08500
Eu	Eu	0.91378 0.77081 0.69866 1.97600
Eu	Eu	0.82479 0.30957 0.08727 1.93200
C 	C 	0.82430 0.69258 0.03066 0.08900
C 	C 	0.81670 0.66443 0.98909 -0.09500
H 	H 	0.80770 0.62600 0.98350 0.05500
C 	C 	0.82470 0.70280 0.95935 -0.10900
H 	H 	0.82320 0.69630 0.92900 0.06000
C 	C 	0.83590 0.75537 0.98235 0.10400
C 	C 	0.85400 0.80533 0.96511 -0.15500
C 	C 	0.86050 0.85695 0.98629 0.10800
C 	C 	0.87640 0.90842 0.96904 -0.08100
H 	H 	0.88880 0.91320 0.94220 0.06200
C 	C 	0.87070 0.94900 0.99745 -0.07800
H 	H 	0.87840 0.98750 0.99440 0.06500
C 	C 	0.85100 0.92324 0.03335 0.10600
C 	C 	0.83570 0.95080 0.06858 -0.14500
C 	C 	0.81740 0.92506 0.10352 0.10400
C 	C 	0.79800 0.95438 0.13812 -0.08300
H 	H 	0.79260 0.99350 0.14000 0.05800
C 	C 	0.78890 0.91584 0.16740 -0.08000
H 	H 	0.77570 0.92270 0.19370 0.05900
C 	C 	0.80293 0.86217 0.15126 0.09700
C 	C 	0.80862 0.81198 0.17522 -0.13700
C 	C 	0.82617 0.76124 0.15964 0.10000
C 	C 	0.83900 0.71085 0.18435 -0.10100
H 	H 	0.84110 0.70640 0.21510 0.04700
C 	C 	0.84770 0.67026 0.15630 -0.07900
H 	H 	0.85850 0.63250 0.16380 0.05800
C 	C 	0.83760 0.69514 0.11312 0.09100
C 	C 	0.83080 0.66669 0.07280 -0.12600
N 	N 	0.83239 0.74924 0.02513 -0.24400
N 	N 	0.84687 0.86681 0.02627 -0.24300
N 	N 	0.81866 0.86933 0.11138 -0.24300
N 	N 	0.82911 0.75150 0.11722 -0.23800
C 	C 	0.87110 0.80154 0.92151 0.17000
C 	C 	0.82350 0.79829 0.88138 -0.22000
H 	H 	0.77940 0.80070 0.88100 0.10700
C 	C 	0.84040 0.79153 0.84187 0.14600
H 	H 	0.80770 0.78880 0.81450 -0.00700
C 	C 	0.90440 0.78866 0.84179 -0.24500
C 	C 	0.95140 0.79470 0.88118 0.15900
H 	H 	0.99540 0.79460 0.88140 -0.02100
C 	C 	0.93400 0.80090 0.92118 -0.21700
H 	H 	0.96670 0.80470 0.94850 0.11400
C 	C 	0.92160 0.77874 0.79960 0.49700
O 	O 	0.87734 0.77656 0.76352 -0.51700
O 	O 	0.98061 0.77305 0.80058 -0.57700
C 	C 	0.83850 0.01303 0.07052 0.14100
C 	C 	0.89320 0.03965 0.09662 -0.18800
H 	H 	0.93120 0.01890 0.10930 0.09700
C 	C 	0.89200 0.09618 0.10401 0.11000
H 	H 	0.92900 0.11390 0.12260 -0.01200
C 	C 	0.83760 0.12744 0.08469 -0.18900
C 	C 	0.78350 0.10111 0.05687 0.10900
H 	H 	0.74640 0.12230 0.04280 0.01900
C 	C 	0.78420 0.04469 0.04988 -0.18000
H 	H 	0.74740 0.02700 0.03090 0.10000
C 	C 	0.83470 0.18791 0.09256 0.40900
O 	O 	0.78593 0.21484 0.07285 -0.44200
O 	O 	0.88297 0.21147 0.11986 -0.58900
C 	C 	0.78970 0.81325 0.21798 0.12200
C 	C 	0.72630 0.82477 0.21755 -0.16600
H 	H 	0.69590 0.83390 0.19010 0.08800
C 	C 	0.70690 0.82306 0.25646 0.09500
H 	H 	0.66350 0.83080 0.25570 0.00200
C 	C 	0.75120 0.80998 0.29656 -0.16900
C 	C 	0.81500 0.80166 0.29797 0.07400
H 	H 	0.84570 0.79520 0.32580 0.01300
C 	C 	0.83510 0.80274 0.25854 -0.15800
H 	H 	0.87890 0.79640 0.25960 0.07100
C 	C 	0.72950 0.80318 0.33813 0.39300
O 	O 	0.66933 0.79470 0.33369 -0.63600
O 	O 	0.76844 0.80567 0.37614 -0.39300
C 	C 	0.83100 0.60463 0.07436 0.11200
C 	C 	0.87680 0.57388 0.05984 -0.14200
H 	H 	0.90750 0.59270 0.04830 0.08500
C 	C 	0.87760 0.51658 0.06227 0.04700
H 	H 	0.90860 0.49600 0.05230 0.02700
C 	C 	0.83260 0.48866 0.07935 -0.10600
C 	C 	0.78720 0.51916 0.09355 0.04900
H 	H 	0.75650 0.50050 0.10510 0.02900
C 	C 	0.78660 0.57688 0.09086 -0.14500
H 	H 	0.75520 0.59740 0.10050 0.08100
C 	C 	0.83190 0.42655 0.08190 0.30300
O 	O 	0.80670 0.40322 0.10965 -0.41200
O 	O 	0.85550 0.39718 0.05580 -0.39300
Cu	Cu	0.83170 0.80977 0.06940 0.86200
C 	C 	0.99801 0.15422 0.78976 0.11700
C 	C 	0.99190 0.12741 0.82941 -0.08100
H 	H 	0.99250 0.08840 0.83460 0.06400
C 	C 	0.98500 0.16768 0.85824 -0.09400
H 	H 	0.97950 0.16210 0.88720 0.06300
C 	C 	0.98750 0.22018 0.83713 0.10600
C 	C 	0.97904 0.27182 0.85545 -0.17400
C 	C 	0.98350 0.32399 0.83582 0.11000
C 	C 	0.98050 0.37692 0.85722 -0.07800
H 	H 	0.97490 0.38270 0.88610 0.06300
C 	C 	0.98740 0.41686 0.82792 -0.08700
H 	H 	0.98790 0.45590 0.83290 0.06800
C 	C 	0.99386 0.39007 0.78853 0.12300
N 	N 	0.99645 0.21119 0.79539 -0.23800
N 	N 	0.99138 0.33294 0.79398 -0.24200
C 	C 	0.05030 0.03456 0.77799 -0.20300
H 	H 	0.08530 0.05380 0.79740 0.10000
C 	C 	0.05000 0.97709 0.77802 0.13100
H 	H 	0.08460 0.95750 0.79760 -0.01400
O 	O 	0.95159 0.86076 0.72502 -0.51400
C 	C 	0.96340 0.27330 0.89944 0.22300
C 	C 	0.90120 0.27640 0.90207 -0.24400
H 	H 	0.86740 0.27510 0.87510 0.11600
C 	C 	0.88550 0.28110 0.94152 0.17000
H 	H 	0.84170 0.28290 0.94190 0.00200
C 	C 	0.93400 0.28330 0.98085 -0.22700
C 	C 	0.99560 0.28030 0.97871 0.22100
H 	H 	0.02960 0.28240 0.00550 -0.03900
C 	C 	0.00980 0.27430 0.93860 -0.31000
H 	H 	0.05350 0.27070 0.93840 0.11800
C 	C 	0.92040 0.28970 0.02710 0.46000
O 	O 	0.96660 0.30410 0.05900 -0.33200
O 	O 	0.86710 0.28126 0.02955 -0.49600
C 	C 	0.05280 0.50826 0.77545 -0.19300
H 	H 	0.08910 0.48860 0.79300 0.09600
C 	C 	0.05280 0.56656 0.77537 0.11900
H 	H 	0.08920 0.58620 0.79280 -0.00700
O 	O 	0.04991 0.68263 0.77255 -0.52500
O 	O 	0.73100 0.33720 0.03610 -0.25500
O 	O 	0.72920 0.69490 0.52210 -0.08500
Eu	Eu	0.41378 0.27081 0.69866 1.96400
Eu	Eu	0.32479 0.80957 0.08727 1.92800
C 	C 	0.32430 0.19258 0.03066 0.08700
C 	C 	0.31670 0.16443 0.98909 -0.09500
H 	H 	0.30770 0.12600 0.98350 0.05400
C 	C 	0.32470 0.20280 0.95935 -0.10900
H 	H 	0.32320 0.19630 0.92900 0.06000
C 	C 	0.33590 0.25537 0.98235 0.10500
C 	C 	0.35400 0.30533 0.96511 -0.15600
C 	C 	0.36050 0.35695 0.98629 0.10700
C 	C 	0.37640 0.40842 0.96904 -0.08200
H 	H 	0.38880 0.41320 0.94220 0.06100
C 	C 	0.37070 0.44900 0.99745 -0.07900
H 	H 	0.37840 0.48750 0.99440 0.06400
C 	C 	0.35100 0.42324 0.03335 0.10500
C 	C 	0.33570 0.45080 0.06858 -0.14600
C 	C 	0.31740 0.42506 0.10352 0.10300
C 	C 	0.29800 0.45438 0.13812 -0.08400
H 	H 	0.29260 0.49350 0.14000 0.05800
C 	C 	0.28890 0.41584 0.16740 -0.08000
H 	H 	0.27570 0.42270 0.19370 0.05900
C 	C 	0.30293 0.36217 0.15126 0.09600
C 	C 	0.30862 0.31198 0.17522 -0.13800
C 	C 	0.32617 0.26124 0.15964 0.09800
C 	C 	0.33900 0.21085 0.18435 -0.10300
H 	H 	0.34110 0.20640 0.21510 0.04700
C 	C 	0.34770 0.17026 0.15630 -0.08000
H 	H 	0.35850 0.13250 0.16380 0.05600
C 	C 	0.33760 0.19514 0.11312 0.08900
C 	C 	0.33080 0.16669 0.07280 -0.12700
N 	N 	0.33239 0.24924 0.02513 -0.24500
N 	N 	0.34687 0.36681 0.02627 -0.24400
N 	N 	0.31866 0.36933 0.11138 -0.24400
N 	N 	0.32911 0.25150 0.11722 -0.23900
C 	C 	0.37110 0.30154 0.92151 0.17100
C 	C 	0.32350 0.29829 0.88138 -0.22200
H 	H 	0.27940 0.30070 0.88100 0.10800
C 	C 	0.34040 0.29153 0.84187 0.14700
H 	H 	0.30770 0.28880 0.81450 -0.00800
C 	C 	0.40440 0.28866 0.84179 -0.24900
C 	C 	0.45140 0.29470 0.88118 0.16000
H 	H 	0.49540 0.29460 0.88140 -0.02700
C 	C 	0.43400 0.30090 0.92118 -0.21800
H 	H 	0.46670 0.30470 0.94850 0.11100
C 	C 	0.42160 0.27874 0.79960 0.49800
O 	O 	0.37734 0.27656 0.76352 -0.51700
O 	O 	0.48061 0.27305 0.80058 -0.58800
C 	C 	0.33850 0.51303 0.07052 0.14100
C 	C 	0.39320 0.53965 0.09662 -0.18900
H 	H 	0.43120 0.51890 0.10930 0.09400
C 	C 	0.39200 0.59618 0.10401 0.11000
H 	H 	0.42900 0.61390 0.12260 -0.01500
C 	C 	0.33760 0.62744 0.08469 -0.19000
C 	C 	0.28350 0.60111 0.05687 0.11000
H 	H 	0.24640 0.62230 0.04280 0.01800
C 	C 	0.28420 0.54469 0.04988 -0.18100
H 	H 	0.24740 0.52700 0.03090 0.10000
C 	C 	0.33470 0.68791 0.09256 0.41000
O 	O 	0.28593 0.71484 0.07285 -0.44200
O 	O 	0.38297 0.71147 0.11986 -0.59100
C 	C 	0.28970 0.31325 0.21798 0.12100
C 	C 	0.22630 0.32477 0.21755 -0.16500
H 	H 	0.19590 0.33390 0.19010 0.08700
C 	C 	0.20690 0.32306 0.25646 0.09400
H 	H 	0.16350 0.33080 0.25570 0.00200
C 	C 	0.25120 0.30998 0.29656 -0.16800
C 	C 	0.31500 0.30166 0.29797 0.07300
H 	H 	0.34570 0.29520 0.32580 0.01400
C 	C 	0.33510 0.30274 0.25854 -0.15700
H 	H 	0.37890 0.29640 0.25960 0.06900
C 	C 	0.22950 0.30318 0.33813 0.39200
O 	O 	0.16933 0.29470 0.33369 -0.63400
O 	O 	0.26844 0.30567 0.37614 -0.39300
C 	C 	0.33100 0.10463 0.07436 0.11000
C 	C 	0.37680 0.07388 0.05984 -0.14200
H 	H 	0.40750 0.09270 0.04830 0.08200
C 	C 	0.37760 0.01658 0.06227 0.04400
H 	H 	0.40860 0.99600 0.05230 0.02500
C 	C 	0.33260 0.98866 0.07935 -0.10500
C 	C 	0.28720 0.01916 0.09355 0.04700
H 	H 	0.25650 0.00050 0.10510 0.02900
C 	C 	0.28660 0.07688 0.09086 -0.14400
H 	H 	0.25520 0.09740 0.10050 0.08100
C 	C 	0.33190 0.92655 0.08190 0.30200
O 	O 	0.30670 0.90322 0.10965 -0.41200
O 	O 	0.35550 0.89718 0.05580 -0.39400
Cu	Cu	0.33170 0.30977 0.06940 0.86100
C 	C 	0.49801 0.65422 0.78976 0.09700
C 	C 	0.49190 0.62741 0.82941 -0.07800
H 	H 	0.49250 0.58840 0.83460 0.05800
C 	C 	0.48500 0.66768 0.85824 -0.09200
H 	H 	0.47950 0.66210 0.88720 0.05900
C 	C 	0.48750 0.72018 0.83713 0.09300
C 	C 	0.47904 0.77182 0.85545 -0.14800
C 	C 	0.48350 0.82399 0.83582 0.09800
C 	C 	0.48050 0.87692 0.85722 -0.07700
H 	H 	0.47490 0.88270 0.88610 0.06000
C 	C 	0.48740 0.91686 0.82792 -0.08300
H 	H 	0.48790 0.95590 0.83290 0.06100
C 	C 	0.49386 0.89007 0.78853 0.10200
N 	N 	0.49645 0.71119 0.79539 -0.23800
N 	N 	0.49138 0.83294 0.79398 -0.24200
C 	C 	0.55030 0.53456 0.77799 -0.20200
H 	H 	0.58530 0.55380 0.79740 0.10200
C 	C 	0.55000 0.47709 0.77802 0.13000
H 	H 	0.58460 0.45750 0.79760 -0.01300
O 	O 	0.45159 0.36076 0.72502 -0.52800
C 	C 	0.46340 0.77330 0.89944 0.14200
C 	C 	0.40120 0.77640 0.90207 -0.17800
H 	H 	0.36740 0.77510 0.87510 0.09400
C 	C 	0.38550 0.78110 0.94152 0.10500
H 	H 	0.34170 0.78290 0.94190 0.02300
C 	C 	0.43400 0.78330 0.98085 -0.16200
C 	C 	0.49560 0.78030 0.97871 0.09300
H 	H 	0.52960 0.78240 0.00550 0.01300
C 	C 	0.50980 0.77430 0.93860 -0.18400
H 	H 	0.55350 0.77070 0.93840 0.08000
C 	C 	0.42040 0.78970 0.02710 0.43600
O 	O 	0.46660 0.80410 0.05900 -0.33400
O 	O 	0.36710 0.78126 0.02955 -0.49000
C 	C 	0.55280 0.00826 0.77545 -0.19100
H 	H 	0.58910 0.98860 0.79300 0.09600
C 	C 	0.55280 0.06656 0.77537 0.11700
H 	H 	0.58920 0.08620 0.79280 -0.00600
O 	O 	0.54991 0.18263 0.77255 -0.52700
O 	O 	0.23100 0.83720 0.03610 -0.25400
O 	O 	0.22920 0.19490 0.52210 -0.08600
C 	C 	0.00000 0.87330 0.25000 -0.15700
C 	C 	0.00000 0.58340 0.25000 -0.16400
C 	C 	0.00000 0.93500 0.25000 0.13800
C 	C 	0.00000 0.05220 0.25000 -0.23500
C 	C 	0.00000 0.11530 0.25000 0.48500
C 	C 	0.00000 0.52110 0.25000 0.13200
C 	C 	0.00000 0.40420 0.25000 -0.23500
C 	C 	0.00000 0.34210 0.25000 0.47600
C 	C 	0.50000 0.37330 0.25000 -0.14100
C 	C 	0.50000 0.08340 0.25000 -0.14600
C 	C 	0.50000 0.43500 0.25000 0.15100
C 	C 	0.50000 0.55220 0.25000 -0.22100
C 	C 	0.50000 0.61530 0.25000 0.50100
C 	C 	0.50000 0.02110 0.25000 0.14300
C 	C 	0.50000 0.90420 0.25000 -0.22000
C 	C 	0.50000 0.84210 0.25000 0.49100
C 	C 	0.00000 0.12670 0.75000 -0.15700
C 	C 	0.00000 0.41660 0.75000 -0.16400
C 	C 	0.00000 0.06500 0.75000 0.13800
C 	C 	0.00000 0.94780 0.75000 -0.23600
C 	C 	0.00000 0.88470 0.75000 0.48500
C 	C 	0.00000 0.47890 0.75000 0.13100
C 	C 	0.00000 0.59580 0.75000 -0.23500
C 	C 	0.00000 0.65790 0.75000 0.47600
C 	C 	0.50000 0.62670 0.75000 -0.14100
C 	C 	0.50000 0.91660 0.75000 -0.14600
C 	C 	0.50000 0.56500 0.75000 0.15100
C 	C 	0.50000 0.44780 0.75000 -0.22100
C 	C 	0.50000 0.38470 0.75000 0.50100
C 	C 	0.50000 0.97890 0.75000 0.14400
C 	C 	0.50000 0.09580 0.75000 -0.22100
C 	C 	0.50000 0.15790 0.75000 0.49100
Cu	Cu	0.50000 0.22680 0.25000 0.85400
Cu	Cu	0.00000 0.72680 0.25000 0.84700
Cu	Cu	0.50000 0.77320 0.75000 0.85400
Cu	Cu	0.00000 0.27320 0.75000 0.84700
