data_crystal

_cell_length_a 10.29200
_cell_length_b 29.88700
_cell_length_c 38.59300
_cell_angle_alpha 90.00000
_cell_angle_beta  90.00000
_cell_angle_gamma 90.00000

_symmetry_space_group_name_	'P 1'
_symmetry_space_group_name_H-M	'P 1'

loop_
_symmetry_equiv_pos_as_xyz
  x,y,z

loop_
_atom_site_label
_atom_site_type_symbol
_atom_site_fract_x
_atom_site_fract_y
_atom_site_fract_z
_atom_site_charge
N 	N 	0.96100 0.09370 0.04590 -0.19500
C 	C 	0.97000 0.08420 0.07960 0.07900
C 	C 	0.86560 0.07310 0.10030 -0.15800
C 	C 	0.00730 0.67870 0.08570 0.09700
C 	C 	0.01740 0.66940 0.05040 -0.15800
C 	C 	0.90790 0.65820 0.03210 0.07800
C 	C 	0.12810 0.69220 0.10480 -0.06500
N 	N 	0.98060 0.82810 0.02700 -0.19300
C 	C 	0.09890 0.81120 0.02430 0.08300
C 	C 	0.15690 0.78460 0.04950 -0.16000
C 	C 	0.09030 0.77380 0.07940 0.10000
C 	C 	0.96670 0.79110 0.08200 -0.15500
C 	C 	0.91850 0.81840 0.05580 0.08200
C 	C 	0.15130 0.74480 0.10610 -0.06500
H 	H 	0.05360 0.08510 0.09000 -0.01400
H 	H 	0.87780 0.06690 0.12420 0.07500
H 	H 	0.09950 0.67070 0.03920 0.07700
H 	H 	0.91720 0.65150 0.00820 -0.01300
H 	H 	0.20630 0.67590 0.09600 0.04400
H 	H 	0.10280 0.81750 0.24610 -0.01300
H 	H 	0.00720 0.77380 0.20380 0.07500
H 	H 	0.91450 0.78430 0.10160 0.07800
H 	H 	0.83460 0.83100 0.05900 -0.01100
H 	H 	0.00310 0.75070 0.14340 0.04200
N 	N 	0.96100 0.59370 0.54590 -0.19500
C 	C 	0.97000 0.58420 0.57960 0.07800
C 	C 	0.86560 0.57310 0.60030 -0.15800
C 	C 	0.00730 0.17870 0.58570 0.09800
C 	C 	0.01740 0.16940 0.55040 -0.15800
C 	C 	0.90790 0.15820 0.53210 0.07800
C 	C 	0.12810 0.19220 0.60480 -0.06500
N 	N 	0.98060 0.32810 0.52700 -0.19300
C 	C 	0.09890 0.31120 0.52430 0.08300
C 	C 	0.15690 0.28460 0.54950 -0.16000
C 	C 	0.09030 0.27380 0.57940 0.10000
C 	C 	0.96670 0.29110 0.58200 -0.15500
C 	C 	0.91850 0.31840 0.55580 0.08200
C 	C 	0.15130 0.24480 0.60610 -0.06600
H 	H 	0.05360 0.58510 0.59000 -0.01400
H 	H 	0.87780 0.56690 0.62420 0.07500
H 	H 	0.09950 0.17070 0.53920 0.07700
H 	H 	0.91720 0.15150 0.50820 -0.01300
H 	H 	0.20630 0.17590 0.59600 0.04400
H 	H 	0.10280 0.31750 0.74610 -0.01300
H 	H 	0.00720 0.27380 0.70380 0.07500
H 	H 	0.91450 0.28430 0.60160 0.07800
H 	H 	0.83460 0.33100 0.55900 -0.01100
H 	H 	0.00310 0.25070 0.64340 0.04200
N 	N 	0.46100 0.09370 0.54590 -0.19500
C 	C 	0.47000 0.08420 0.57960 0.07800
C 	C 	0.36560 0.07310 0.60030 -0.15800
C 	C 	0.50730 0.67870 0.58570 0.09800
C 	C 	0.51740 0.66940 0.55040 -0.15800
C 	C 	0.40790 0.65820 0.53210 0.07800
C 	C 	0.62810 0.69220 0.60480 -0.06500
N 	N 	0.48060 0.82810 0.52700 -0.19300
C 	C 	0.59890 0.81120 0.52430 0.08300
C 	C 	0.65690 0.78460 0.54950 -0.16000
C 	C 	0.59030 0.77380 0.57940 0.10100
C 	C 	0.46670 0.79110 0.58200 -0.15400
C 	C 	0.41850 0.81840 0.55580 0.08300
C 	C 	0.65130 0.74480 0.60610 -0.06500
H 	H 	0.55360 0.08510 0.59000 -0.01200
H 	H 	0.37780 0.06690 0.62420 0.07600
H 	H 	0.59950 0.67070 0.53920 0.07800
H 	H 	0.41720 0.65150 0.50820 -0.01200
H 	H 	0.70630 0.67590 0.59600 0.04500
H 	H 	0.60280 0.81750 0.74610 -0.01200
H 	H 	0.50720 0.77380 0.70380 0.07600
H 	H 	0.41450 0.78430 0.60160 0.07900
H 	H 	0.33460 0.83100 0.55900 -0.01000
H 	H 	0.50310 0.75070 0.64340 0.04300
N 	N 	0.46100 0.59370 0.04590 -0.19400
C 	C 	0.47000 0.58420 0.07960 0.07900
C 	C 	0.36560 0.57310 0.10030 -0.15700
C 	C 	0.50730 0.17870 0.08570 0.09900
C 	C 	0.51740 0.16940 0.05040 -0.15700
C 	C 	0.40790 0.15820 0.03210 0.07900
C 	C 	0.62810 0.19220 0.10480 -0.06400
N 	N 	0.48060 0.32810 0.02700 -0.19200
C 	C 	0.59890 0.31120 0.02430 0.08400
C 	C 	0.65690 0.28460 0.04950 -0.15900
C 	C 	0.59030 0.27380 0.07940 0.10100
C 	C 	0.46670 0.29110 0.08200 -0.15400
C 	C 	0.41850 0.31840 0.05580 0.08300
C 	C 	0.65130 0.24480 0.10610 -0.06500
H 	H 	0.55360 0.58510 0.09000 -0.01200
H 	H 	0.37780 0.56690 0.12420 0.07600
H 	H 	0.59950 0.17070 0.03920 0.07800
H 	H 	0.41720 0.15150 0.00820 -0.01200
H 	H 	0.70630 0.17590 0.09600 0.04500
H 	H 	0.60280 0.31750 0.24610 -0.01200
H 	H 	0.50720 0.27380 0.20380 0.07600
H 	H 	0.41450 0.28430 0.10160 0.07900
H 	H 	0.33460 0.33100 0.05900 -0.01000
H 	H 	0.50310 0.25070 0.14340 0.04300
N 	N 	0.78900 0.65630 0.04590 -0.19400
C 	C 	0.78000 0.66580 0.07960 0.07900
C 	C 	0.88440 0.67690 0.10030 -0.15700
C 	C 	0.74270 0.07130 0.08570 0.09900
C 	C 	0.73260 0.08060 0.05040 -0.15700
C 	C 	0.84210 0.09180 0.03210 0.07900
C 	C 	0.62190 0.05780 0.10480 -0.06400
N 	N 	0.76940 0.92190 0.02700 -0.19200
C 	C 	0.65110 0.93880 0.02430 0.08400
C 	C 	0.59310 0.96540 0.04950 -0.15900
C 	C 	0.65970 0.97620 0.07940 0.10100
C 	C 	0.78330 0.95890 0.08200 -0.15400
C 	C 	0.83150 0.93160 0.05580 0.08300
C 	C 	0.59870 0.00520 0.10610 -0.06500
H 	H 	0.69640 0.66490 0.09000 -0.01200
H 	H 	0.87220 0.68310 0.12420 0.07600
H 	H 	0.65050 0.07930 0.03920 0.07800
H 	H 	0.83280 0.09850 0.00820 -0.01200
H 	H 	0.54370 0.07410 0.09600 0.04500
H 	H 	0.64720 0.93250 0.24610 -0.01200
H 	H 	0.74280 0.97620 0.20380 0.07600
H 	H 	0.83550 0.96570 0.10160 0.07900
H 	H 	0.91540 0.91900 0.05900 -0.01000
H 	H 	0.74690 0.99930 0.14340 0.04300
N 	N 	0.78900 0.15630 0.54590 -0.19400
C 	C 	0.78000 0.16580 0.57960 0.07900
C 	C 	0.88440 0.17690 0.60030 -0.15700
C 	C 	0.74270 0.57130 0.58570 0.09900
C 	C 	0.73260 0.58060 0.55040 -0.15700
C 	C 	0.84210 0.59180 0.53210 0.07900
C 	C 	0.62190 0.55780 0.60480 -0.06400
N 	N 	0.76940 0.42190 0.52700 -0.19200
C 	C 	0.65110 0.43880 0.52430 0.08400
C 	C 	0.59310 0.46540 0.54950 -0.15900
C 	C 	0.65970 0.47620 0.57940 0.10100
C 	C 	0.78330 0.45890 0.58200 -0.15400
C 	C 	0.83150 0.43160 0.55580 0.08300
C 	C 	0.59870 0.50520 0.60610 -0.06500
H 	H 	0.69640 0.16490 0.59000 -0.01200
H 	H 	0.87220 0.18310 0.62420 0.07600
H 	H 	0.65050 0.57930 0.53920 0.07800
H 	H 	0.83280 0.59850 0.50820 -0.01200
H 	H 	0.54370 0.57410 0.59600 0.04500
H 	H 	0.64720 0.43250 0.74610 -0.01200
H 	H 	0.74280 0.47620 0.70380 0.07600
H 	H 	0.83550 0.46570 0.60160 0.07900
H 	H 	0.91540 0.41900 0.55900 -0.01000
H 	H 	0.74690 0.49930 0.64340 0.04300
N 	N 	0.28900 0.65630 0.54590 -0.19400
C 	C 	0.28000 0.66580 0.57960 0.07900
C 	C 	0.38440 0.67690 0.60030 -0.15700
C 	C 	0.24270 0.07130 0.58570 0.09900
C 	C 	0.23260 0.08060 0.55040 -0.15700
C 	C 	0.34210 0.09180 0.53210 0.07900
C 	C 	0.12190 0.05780 0.60480 -0.06400
N 	N 	0.26940 0.92190 0.52700 -0.19200
C 	C 	0.15110 0.93880 0.52430 0.08400
C 	C 	0.09310 0.96540 0.54950 -0.15900
C 	C 	0.15970 0.97620 0.57940 0.10100
C 	C 	0.28330 0.95890 0.58200 -0.15400
C 	C 	0.33150 0.93160 0.55580 0.08300
C 	C 	0.09870 0.00520 0.60610 -0.06500
H 	H 	0.19640 0.66490 0.59000 -0.01200
H 	H 	0.37220 0.68310 0.62420 0.07600
H 	H 	0.15050 0.07930 0.53920 0.07800
H 	H 	0.33280 0.09850 0.50820 -0.01200
H 	H 	0.04370 0.07410 0.59600 0.04500
H 	H 	0.14720 0.93250 0.74610 -0.01200
H 	H 	0.24280 0.97620 0.70380 0.07600
H 	H 	0.33550 0.96570 0.60160 0.07900
H 	H 	0.41540 0.91900 0.55900 -0.01000
H 	H 	0.24690 0.99930 0.64340 0.04300
N 	N 	0.28900 0.15630 0.04590 -0.19400
C 	C 	0.28000 0.16580 0.07960 0.07900
C 	C 	0.38440 0.17690 0.10030 -0.15700
C 	C 	0.24270 0.57130 0.08570 0.09900
C 	C 	0.23260 0.58060 0.05040 -0.15700
C 	C 	0.34210 0.59180 0.03210 0.07900
C 	C 	0.12190 0.55780 0.10480 -0.06400
N 	N 	0.26940 0.42190 0.02700 -0.19200
C 	C 	0.15110 0.43880 0.02430 0.08400
C 	C 	0.09310 0.46540 0.04950 -0.15900
C 	C 	0.15970 0.47620 0.07940 0.10100
C 	C 	0.28330 0.45890 0.08200 -0.15400
C 	C 	0.33150 0.43160 0.05580 0.08300
C 	C 	0.09870 0.50520 0.10610 -0.06500
H 	H 	0.19640 0.16490 0.09000 -0.01200
H 	H 	0.37220 0.18310 0.12420 0.07600
H 	H 	0.15050 0.57930 0.03920 0.07800
H 	H 	0.33280 0.59850 0.00820 -0.01200
H 	H 	0.04370 0.57410 0.09600 0.04500
H 	H 	0.14720 0.43250 0.24610 -0.01200
H 	H 	0.24280 0.47620 0.20380 0.07600
H 	H 	0.33550 0.46570 0.10160 0.07900
H 	H 	0.41540 0.41900 0.05900 -0.01000
H 	H 	0.24690 0.49930 0.14340 0.04300
N 	N 	0.78900 0.09370 0.70410 -0.19400
C 	C 	0.78000 0.08420 0.67040 0.07900
C 	C 	0.88440 0.07310 0.64970 -0.15700
C 	C 	0.74270 0.67870 0.66430 0.09900
C 	C 	0.73260 0.66940 0.69960 -0.15700
C 	C 	0.84210 0.65820 0.71790 0.07900
C 	C 	0.62190 0.69220 0.64520 -0.06400
N 	N 	0.76940 0.82810 0.72300 -0.19200
C 	C 	0.65110 0.81120 0.72570 0.08400
C 	C 	0.59310 0.78460 0.70050 -0.15900
C 	C 	0.65970 0.77380 0.67060 0.10100
C 	C 	0.78330 0.79110 0.66800 -0.15400
C 	C 	0.83150 0.81840 0.69420 0.08300
C 	C 	0.59870 0.74480 0.64390 -0.06500
H 	H 	0.69640 0.08510 0.66000 -0.01200
H 	H 	0.87220 0.06690 0.62580 0.07600
H 	H 	0.65050 0.67070 0.71080 0.07800
H 	H 	0.83280 0.65150 0.74180 -0.01200
H 	H 	0.54370 0.67590 0.65400 0.04500
H 	H 	0.64720 0.81750 0.50390 -0.01200
H 	H 	0.74280 0.77380 0.54620 0.07600
H 	H 	0.83550 0.78430 0.64840 0.07900
H 	H 	0.91540 0.83100 0.69100 -0.01000
H 	H 	0.74690 0.75070 0.60660 0.04300
N 	N 	0.78900 0.59370 0.20410 -0.19400
C 	C 	0.78000 0.58420 0.17040 0.07900
C 	C 	0.88440 0.57310 0.14970 -0.15700
C 	C 	0.74270 0.17870 0.16430 0.09900
C 	C 	0.73260 0.16940 0.19960 -0.15700
C 	C 	0.84210 0.15820 0.21790 0.07900
C 	C 	0.62190 0.19220 0.14520 -0.06400
N 	N 	0.76940 0.32810 0.22300 -0.19200
C 	C 	0.65110 0.31120 0.22570 0.08400
C 	C 	0.59310 0.28460 0.20050 -0.15900
C 	C 	0.65970 0.27380 0.17060 0.10100
C 	C 	0.78330 0.29110 0.16800 -0.15400
C 	C 	0.83150 0.31840 0.19420 0.08300
C 	C 	0.59870 0.24480 0.14390 -0.06500
H 	H 	0.69640 0.58510 0.16000 -0.01200
H 	H 	0.87220 0.56690 0.12580 0.07600
H 	H 	0.65050 0.17070 0.21080 0.07800
H 	H 	0.83280 0.15150 0.24180 -0.01200
H 	H 	0.54370 0.17590 0.15400 0.04500
H 	H 	0.64720 0.31750 0.00390 -0.01200
H 	H 	0.74280 0.27380 0.04620 0.07600
H 	H 	0.83550 0.28430 0.14840 0.07900
H 	H 	0.91540 0.33100 0.19100 -0.01000
H 	H 	0.74690 0.25070 0.10660 0.04300
N 	N 	0.28900 0.09370 0.20410 -0.19400
C 	C 	0.28000 0.08420 0.17040 0.07900
C 	C 	0.38440 0.07310 0.14970 -0.15700
C 	C 	0.24270 0.67870 0.16430 0.09900
C 	C 	0.23260 0.66940 0.19960 -0.15700
C 	C 	0.34210 0.65820 0.21790 0.07900
C 	C 	0.12190 0.69220 0.14520 -0.06400
N 	N 	0.26940 0.82810 0.22300 -0.19200
C 	C 	0.15110 0.81120 0.22570 0.08400
C 	C 	0.09310 0.78460 0.20050 -0.15900
C 	C 	0.15970 0.77380 0.17060 0.10100
C 	C 	0.28330 0.79110 0.16800 -0.15400
C 	C 	0.33150 0.81840 0.19420 0.08300
C 	C 	0.09870 0.74480 0.14390 -0.06500
H 	H 	0.19640 0.08510 0.16000 -0.01200
H 	H 	0.37220 0.06690 0.12580 0.07600
H 	H 	0.15050 0.67070 0.21080 0.07800
H 	H 	0.33280 0.65150 0.24180 -0.01200
H 	H 	0.04370 0.67590 0.15400 0.04500
H 	H 	0.14720 0.81750 0.00390 -0.01200
H 	H 	0.24280 0.77380 0.04620 0.07600
H 	H 	0.33550 0.78430 0.14840 0.07900
H 	H 	0.41540 0.83100 0.19100 -0.01000
H 	H 	0.24690 0.75070 0.10660 0.04300
N 	N 	0.28900 0.59370 0.70410 -0.19400
C 	C 	0.28000 0.58420 0.67040 0.07900
C 	C 	0.38440 0.57310 0.64970 -0.15700
C 	C 	0.24270 0.17870 0.66430 0.09900
C 	C 	0.23260 0.16940 0.69960 -0.15700
C 	C 	0.34210 0.15820 0.71790 0.07900
C 	C 	0.12190 0.19220 0.64520 -0.06400
N 	N 	0.26940 0.32810 0.72300 -0.19200
C 	C 	0.15110 0.31120 0.72570 0.08400
C 	C 	0.09310 0.28460 0.70050 -0.15900
C 	C 	0.15970 0.27380 0.67060 0.10100
C 	C 	0.28330 0.29110 0.66800 -0.15400
C 	C 	0.33150 0.31840 0.69420 0.08300
C 	C 	0.09870 0.24480 0.64390 -0.06500
H 	H 	0.19640 0.58510 0.66000 -0.01200
H 	H 	0.37220 0.56690 0.62580 0.07600
H 	H 	0.15050 0.17070 0.71080 0.07800
H 	H 	0.33280 0.15150 0.74180 -0.01200
H 	H 	0.04370 0.17590 0.65400 0.04500
H 	H 	0.14720 0.31750 0.50390 -0.01200
H 	H 	0.24280 0.27380 0.54620 0.07600
H 	H 	0.33550 0.28430 0.64840 0.07900
H 	H 	0.41540 0.33100 0.69100 -0.01000
H 	H 	0.24690 0.25070 0.60660 0.04300
N 	N 	0.96100 0.65630 0.70410 -0.19400
C 	C 	0.97000 0.66580 0.67040 0.07900
C 	C 	0.86560 0.67690 0.64970 -0.15700
C 	C 	0.00730 0.07130 0.66430 0.09900
C 	C 	0.01740 0.08060 0.69960 -0.15700
C 	C 	0.90790 0.09180 0.71790 0.07900
C 	C 	0.12810 0.05780 0.64520 -0.06400
N 	N 	0.98060 0.92190 0.72300 -0.19200
C 	C 	0.09890 0.93880 0.72570 0.08400
C 	C 	0.15690 0.96540 0.70050 -0.15900
C 	C 	0.09030 0.97620 0.67060 0.10100
C 	C 	0.96670 0.95890 0.66800 -0.15400
C 	C 	0.91850 0.93160 0.69420 0.08300
C 	C 	0.15130 0.00520 0.64390 -0.06500
H 	H 	0.05360 0.66490 0.66000 -0.01300
H 	H 	0.87780 0.68310 0.62580 0.07600
H 	H 	0.09950 0.07930 0.71080 0.07800
H 	H 	0.91720 0.09850 0.74180 -0.01200
H 	H 	0.20630 0.07410 0.65400 0.04500
H 	H 	0.10280 0.93250 0.50390 -0.01200
H 	H 	0.00720 0.97620 0.54620 0.07600
H 	H 	0.91450 0.96570 0.64840 0.07900
H 	H 	0.83460 0.91900 0.69100 -0.01000
H 	H 	0.00310 0.99930 0.60660 0.04300
N 	N 	0.96100 0.15630 0.20410 -0.19400
C 	C 	0.97000 0.16580 0.17040 0.08000
C 	C 	0.86560 0.17690 0.14970 -0.15700
C 	C 	0.00730 0.57130 0.16430 0.09800
C 	C 	0.01740 0.58060 0.19960 -0.15700
C 	C 	0.90790 0.59180 0.21790 0.07900
C 	C 	0.12810 0.55780 0.14520 -0.06400
N 	N 	0.98060 0.42190 0.22300 -0.19200
C 	C 	0.09890 0.43880 0.22570 0.08400
C 	C 	0.15690 0.46540 0.20050 -0.15900
C 	C 	0.09030 0.47620 0.17060 0.10100
C 	C 	0.96670 0.45890 0.16800 -0.15400
C 	C 	0.91850 0.43160 0.19420 0.08300
C 	C 	0.15130 0.50520 0.14390 -0.06500
H 	H 	0.05360 0.16490 0.16000 -0.01300
H 	H 	0.87780 0.18310 0.12580 0.07600
H 	H 	0.09950 0.57930 0.21080 0.07800
H 	H 	0.91720 0.59850 0.24180 -0.01200
H 	H 	0.20630 0.57410 0.15400 0.04500
H 	H 	0.10280 0.43250 0.00390 -0.01200
H 	H 	0.00720 0.47620 0.04620 0.07600
H 	H 	0.91450 0.46570 0.14840 0.07900
H 	H 	0.83460 0.41900 0.19100 -0.01000
H 	H 	0.00310 0.49930 0.10660 0.04300
N 	N 	0.46100 0.65630 0.20410 -0.19400
C 	C 	0.47000 0.66580 0.17040 0.07900
C 	C 	0.36560 0.67690 0.14970 -0.15700
C 	C 	0.50730 0.07130 0.16430 0.09900
C 	C 	0.51740 0.08060 0.19960 -0.15700
C 	C 	0.40790 0.09180 0.21790 0.07900
C 	C 	0.62810 0.05780 0.14520 -0.06400
N 	N 	0.48060 0.92190 0.22300 -0.19200
C 	C 	0.59890 0.93880 0.22570 0.08400
C 	C 	0.65690 0.96540 0.20050 -0.15900
C 	C 	0.59030 0.97620 0.17060 0.10100
C 	C 	0.46670 0.95890 0.16800 -0.15400
C 	C 	0.41850 0.93160 0.19420 0.08300
C 	C 	0.65130 0.00520 0.14390 -0.06500
H 	H 	0.55360 0.66490 0.16000 -0.01200
H 	H 	0.37780 0.68310 0.12580 0.07600
H 	H 	0.59950 0.07930 0.21080 0.07800
H 	H 	0.41720 0.09850 0.24180 -0.01200
H 	H 	0.70630 0.07410 0.15400 0.04500
H 	H 	0.60280 0.93250 0.00390 -0.01200
H 	H 	0.50720 0.97620 0.04620 0.07600
H 	H 	0.41450 0.96570 0.14840 0.07900
H 	H 	0.33460 0.91900 0.19100 -0.01000
H 	H 	0.50310 0.99930 0.10660 0.04300
N 	N 	0.46100 0.15630 0.70410 -0.19400
C 	C 	0.47000 0.16580 0.67040 0.07900
C 	C 	0.36560 0.17690 0.64970 -0.15700
C 	C 	0.50730 0.57130 0.66430 0.09900
C 	C 	0.51740 0.58060 0.69960 -0.15700
C 	C 	0.40790 0.59180 0.71790 0.07900
C 	C 	0.62810 0.55780 0.64520 -0.06400
N 	N 	0.48060 0.42190 0.72300 -0.19200
C 	C 	0.59890 0.43880 0.72570 0.08400
C 	C 	0.65690 0.46540 0.70050 -0.15900
C 	C 	0.59030 0.47620 0.67060 0.10100
C 	C 	0.46670 0.45890 0.66800 -0.15400
C 	C 	0.41850 0.43160 0.69420 0.08300
C 	C 	0.65130 0.50520 0.64390 -0.06500
H 	H 	0.55360 0.16490 0.66000 -0.01200
H 	H 	0.37780 0.18310 0.62580 0.07600
H 	H 	0.59950 0.57930 0.71080 0.07800
H 	H 	0.41720 0.59850 0.74180 -0.01200
H 	H 	0.70630 0.57410 0.65400 0.04500
H 	H 	0.60280 0.43250 0.50390 -0.01200
H 	H 	0.50720 0.47620 0.54620 0.07600
H 	H 	0.41450 0.46570 0.64840 0.07900
H 	H 	0.33460 0.41900 0.69100 -0.01000
H 	H 	0.50310 0.49930 0.60660 0.04300
N 	N 	0.03900 0.90630 0.95410 -0.19400
C 	C 	0.03000 0.91580 0.92040 0.08000
C 	C 	0.13440 0.92690 0.89970 -0.15700
C 	C 	0.99270 0.32130 0.91430 0.09800
C 	C 	0.98260 0.33060 0.94960 -0.15700
C 	C 	0.09210 0.34180 0.96790 0.07900
C 	C 	0.87190 0.30780 0.89520 -0.06400
N 	N 	0.01940 0.17190 0.97300 -0.19200
C 	C 	0.90110 0.18880 0.97570 0.08400
C 	C 	0.84310 0.21540 0.95050 -0.15900
C 	C 	0.90970 0.22620 0.92060 0.10100
C 	C 	0.03330 0.20890 0.91800 -0.15400
C 	C 	0.08150 0.18160 0.94420 0.08300
C 	C 	0.84870 0.25520 0.89390 -0.06400
H 	H 	0.94640 0.91490 0.91000 -0.01300
H 	H 	0.12220 0.93310 0.87580 0.07600
H 	H 	0.90050 0.32930 0.96080 0.07800
H 	H 	0.08280 0.34850 0.99180 -0.01200
H 	H 	0.79370 0.32410 0.90400 0.04500
H 	H 	0.89720 0.18250 0.75390 -0.01200
H 	H 	0.99280 0.22620 0.79620 0.07600
H 	H 	0.08550 0.21570 0.89840 0.07900
H 	H 	0.16540 0.16900 0.94100 -0.01000
H 	H 	0.99690 0.24930 0.85660 0.04300
N 	N 	0.03900 0.40630 0.45410 -0.19400
C 	C 	0.03000 0.41580 0.42040 0.07900
C 	C 	0.13440 0.42690 0.39970 -0.15700
C 	C 	0.99270 0.82130 0.41430 0.09900
C 	C 	0.98260 0.83060 0.44960 -0.15700
C 	C 	0.09210 0.84180 0.46790 0.07900
C 	C 	0.87190 0.80780 0.39520 -0.06400
N 	N 	0.01940 0.67190 0.47300 -0.19200
C 	C 	0.90110 0.68880 0.47570 0.08400
C 	C 	0.84310 0.71540 0.45050 -0.15900
C 	C 	0.90970 0.72620 0.42060 0.10100
C 	C 	0.03330 0.70890 0.41800 -0.15400
C 	C 	0.08150 0.68160 0.44420 0.08300
C 	C 	0.84870 0.75520 0.39390 -0.06500
H 	H 	0.94640 0.41490 0.41000 -0.01300
H 	H 	0.12220 0.43310 0.37580 0.07600
H 	H 	0.90050 0.82930 0.46080 0.07800
H 	H 	0.08280 0.84850 0.49180 -0.01200
H 	H 	0.79370 0.82410 0.40400 0.04500
H 	H 	0.89720 0.68250 0.25390 -0.01200
H 	H 	0.99280 0.72620 0.29620 0.07600
H 	H 	0.08550 0.71570 0.39840 0.07900
H 	H 	0.16540 0.66900 0.44100 -0.01000
H 	H 	0.99690 0.74930 0.35660 0.04300
N 	N 	0.53900 0.90630 0.45410 -0.19400
C 	C 	0.53000 0.91580 0.42040 0.07900
C 	C 	0.63440 0.92690 0.39970 -0.15700
C 	C 	0.49270 0.32130 0.41430 0.09900
C 	C 	0.48260 0.33060 0.44960 -0.15700
C 	C 	0.59210 0.34180 0.46790 0.07900
C 	C 	0.37190 0.30780 0.39520 -0.06400
N 	N 	0.51940 0.17190 0.47300 -0.19200
C 	C 	0.40110 0.18880 0.47570 0.08400
C 	C 	0.34310 0.21540 0.45050 -0.15900
C 	C 	0.40970 0.22620 0.42060 0.10100
C 	C 	0.53330 0.20890 0.41800 -0.15400
C 	C 	0.58150 0.18160 0.44420 0.08300
C 	C 	0.34870 0.25520 0.39390 -0.06500
H 	H 	0.44640 0.91490 0.41000 -0.01200
H 	H 	0.62220 0.93310 0.37580 0.07600
H 	H 	0.40050 0.32930 0.46080 0.07800
H 	H 	0.58280 0.34850 0.49180 -0.01200
H 	H 	0.29370 0.32410 0.40400 0.04500
H 	H 	0.39720 0.18250 0.25390 -0.01200
H 	H 	0.49280 0.22620 0.29620 0.07600
H 	H 	0.58550 0.21570 0.39840 0.07900
H 	H 	0.66540 0.16900 0.44100 -0.01000
H 	H 	0.49690 0.24930 0.35660 0.04300
N 	N 	0.53900 0.40630 0.95410 -0.19400
C 	C 	0.53000 0.41580 0.92040 0.07900
C 	C 	0.63440 0.42690 0.89970 -0.15700
C 	C 	0.49270 0.82130 0.91430 0.09900
C 	C 	0.48260 0.83060 0.94960 -0.15700
C 	C 	0.59210 0.84180 0.96790 0.07900
C 	C 	0.37190 0.80780 0.89520 -0.06400
N 	N 	0.51940 0.67190 0.97300 -0.19200
C 	C 	0.40110 0.68880 0.97570 0.08400
C 	C 	0.34310 0.71540 0.95050 -0.15900
C 	C 	0.40970 0.72620 0.92060 0.10100
C 	C 	0.53330 0.70890 0.91800 -0.15400
C 	C 	0.58150 0.68160 0.94420 0.08300
C 	C 	0.34870 0.75520 0.89390 -0.06500
H 	H 	0.44640 0.41490 0.91000 -0.01200
H 	H 	0.62220 0.43310 0.87580 0.07600
H 	H 	0.40050 0.82930 0.96080 0.07800
H 	H 	0.58280 0.84850 0.99180 -0.01200
H 	H 	0.29370 0.82410 0.90400 0.04500
H 	H 	0.39720 0.68250 0.75390 -0.01200
H 	H 	0.49280 0.72620 0.79620 0.07600
H 	H 	0.58550 0.71570 0.89840 0.07900
H 	H 	0.66540 0.66900 0.94100 -0.01000
H 	H 	0.49690 0.74930 0.85660 0.04300
N 	N 	0.21100 0.34370 0.95410 -0.19400
C 	C 	0.22000 0.33420 0.92040 0.07900
C 	C 	0.11560 0.32310 0.89970 -0.15700
C 	C 	0.25730 0.92870 0.91430 0.09900
C 	C 	0.26740 0.91940 0.94960 -0.15700
C 	C 	0.15790 0.90820 0.96790 0.07900
C 	C 	0.37810 0.94220 0.89520 -0.06400
N 	N 	0.23060 0.07810 0.97300 -0.19200
C 	C 	0.34890 0.06120 0.97570 0.08400
C 	C 	0.40690 0.03460 0.95050 -0.15900
C 	C 	0.34030 0.02380 0.92060 0.10100
C 	C 	0.21670 0.04110 0.91800 -0.15400
C 	C 	0.16850 0.06840 0.94420 0.08300
C 	C 	0.40130 0.99480 0.89390 -0.06500
H 	H 	0.30360 0.33510 0.91000 -0.01200
H 	H 	0.12780 0.31690 0.87580 0.07600
H 	H 	0.34950 0.92070 0.96080 0.07800
H 	H 	0.16720 0.90150 0.99180 -0.01200
H 	H 	0.45630 0.92590 0.90400 0.04500
H 	H 	0.35280 0.06750 0.75390 -0.01200
H 	H 	0.25720 0.02380 0.79620 0.07600
H 	H 	0.16450 0.03430 0.89840 0.07900
H 	H 	0.08460 0.08100 0.94100 -0.01000
H 	H 	0.25310 0.00070 0.85660 0.04300
N 	N 	0.21100 0.84370 0.45410 -0.19400
C 	C 	0.22000 0.83420 0.42040 0.07900
C 	C 	0.11560 0.82310 0.39970 -0.15700
C 	C 	0.25730 0.42870 0.41430 0.09900
C 	C 	0.26740 0.41940 0.44960 -0.15700
C 	C 	0.15790 0.40820 0.46790 0.07900
C 	C 	0.37810 0.44220 0.39520 -0.06400
N 	N 	0.23060 0.57810 0.47300 -0.19200
C 	C 	0.34890 0.56120 0.47570 0.08400
C 	C 	0.40690 0.53460 0.45050 -0.15900
C 	C 	0.34030 0.52380 0.42060 0.10100
C 	C 	0.21670 0.54110 0.41800 -0.15400
C 	C 	0.16850 0.56840 0.44420 0.08300
C 	C 	0.40130 0.49480 0.39390 -0.06500
H 	H 	0.30360 0.83510 0.41000 -0.01200
H 	H 	0.12780 0.81690 0.37580 0.07600
H 	H 	0.34950 0.42070 0.46080 0.07800
H 	H 	0.16720 0.40150 0.49180 -0.01200
H 	H 	0.45630 0.42590 0.40400 0.04500
H 	H 	0.35280 0.56750 0.25390 -0.01200
H 	H 	0.25720 0.52380 0.29620 0.07600
H 	H 	0.16450 0.53430 0.39840 0.07900
H 	H 	0.08460 0.58100 0.44100 -0.01000
H 	H 	0.25310 0.50070 0.35660 0.04300
N 	N 	0.71100 0.34370 0.45410 -0.19400
C 	C 	0.72000 0.33420 0.42040 0.07900
C 	C 	0.61560 0.32310 0.39970 -0.15700
C 	C 	0.75730 0.92870 0.41430 0.09900
C 	C 	0.76740 0.91940 0.44960 -0.15700
C 	C 	0.65790 0.90820 0.46790 0.07900
C 	C 	0.87810 0.94220 0.39520 -0.06400
N 	N 	0.73060 0.07810 0.47300 -0.19200
C 	C 	0.84890 0.06120 0.47570 0.08400
C 	C 	0.90690 0.03460 0.45050 -0.15900
C 	C 	0.84030 0.02380 0.42060 0.10100
C 	C 	0.71670 0.04110 0.41800 -0.15400
C 	C 	0.66850 0.06840 0.44420 0.08300
C 	C 	0.90130 0.99480 0.39390 -0.06500
H 	H 	0.80360 0.33510 0.41000 -0.01200
H 	H 	0.62780 0.31690 0.37580 0.07600
H 	H 	0.84950 0.92070 0.46080 0.07800
H 	H 	0.66720 0.90150 0.49180 -0.01200
H 	H 	0.95630 0.92590 0.40400 0.04500
H 	H 	0.85280 0.06750 0.25390 -0.01200
H 	H 	0.75720 0.02380 0.29620 0.07600
H 	H 	0.66450 0.03430 0.39840 0.07900
H 	H 	0.58460 0.08100 0.44100 -0.01000
H 	H 	0.75310 0.00070 0.35660 0.04300
N 	N 	0.71100 0.84370 0.95410 -0.19400
C 	C 	0.72000 0.83420 0.92040 0.07900
C 	C 	0.61560 0.82310 0.89970 -0.15700
C 	C 	0.75730 0.42870 0.91430 0.09900
C 	C 	0.76740 0.41940 0.94960 -0.15700
C 	C 	0.65790 0.40820 0.96790 0.07900
C 	C 	0.87810 0.44220 0.89520 -0.06400
N 	N 	0.73060 0.57810 0.97300 -0.19200
C 	C 	0.84890 0.56120 0.97570 0.08400
C 	C 	0.90690 0.53460 0.95050 -0.15900
C 	C 	0.84030 0.52380 0.92060 0.10100
C 	C 	0.71670 0.54110 0.91800 -0.15400
C 	C 	0.66850 0.56840 0.94420 0.08300
C 	C 	0.90130 0.49480 0.89390 -0.06500
H 	H 	0.80360 0.83510 0.91000 -0.01200
H 	H 	0.62780 0.81690 0.87580 0.07600
H 	H 	0.84950 0.42070 0.96080 0.07800
H 	H 	0.66720 0.40150 0.99180 -0.01200
H 	H 	0.95630 0.42590 0.90400 0.04500
H 	H 	0.85280 0.56750 0.75390 -0.01200
H 	H 	0.75720 0.52380 0.79620 0.07600
H 	H 	0.66450 0.53430 0.89840 0.07900
H 	H 	0.58460 0.58100 0.94100 -0.01000
H 	H 	0.75310 0.50070 0.85660 0.04300
N 	N 	0.21100 0.90630 0.29590 -0.19400
C 	C 	0.22000 0.91580 0.32960 0.07900
C 	C 	0.11560 0.92690 0.35030 -0.15700
C 	C 	0.25730 0.32130 0.33570 0.09900
C 	C 	0.26740 0.33060 0.30040 -0.15700
C 	C 	0.15790 0.34180 0.28210 0.07900
C 	C 	0.37810 0.30780 0.35480 -0.06400
N 	N 	0.23060 0.17190 0.27700 -0.19200
C 	C 	0.34890 0.18880 0.27430 0.08400
C 	C 	0.40690 0.21540 0.29950 -0.15900
C 	C 	0.34030 0.22620 0.32940 0.10100
C 	C 	0.21670 0.20890 0.33200 -0.15400
C 	C 	0.16850 0.18160 0.30580 0.08300
C 	C 	0.40130 0.25520 0.35610 -0.06500
H 	H 	0.30360 0.91490 0.34000 -0.01200
H 	H 	0.12780 0.93310 0.37420 0.07600
H 	H 	0.34950 0.32930 0.28920 0.07800
H 	H 	0.16720 0.34850 0.25820 -0.01200
H 	H 	0.45630 0.32410 0.34600 0.04500
H 	H 	0.35280 0.18250 0.49610 -0.01200
H 	H 	0.25720 0.22620 0.45380 0.07600
H 	H 	0.16450 0.21570 0.35160 0.07900
H 	H 	0.08460 0.16900 0.30900 -0.01000
H 	H 	0.25310 0.24930 0.39340 0.04300
N 	N 	0.21100 0.40630 0.79590 -0.19400
C 	C 	0.22000 0.41580 0.82960 0.07900
C 	C 	0.11560 0.42690 0.85030 -0.15700
C 	C 	0.25730 0.82130 0.83570 0.09900
C 	C 	0.26740 0.83060 0.80040 -0.15700
C 	C 	0.15790 0.84180 0.78210 0.07900
C 	C 	0.37810 0.80780 0.85480 -0.06400
N 	N 	0.23060 0.67190 0.77700 -0.19200
C 	C 	0.34890 0.68880 0.77430 0.08400
C 	C 	0.40690 0.71540 0.79950 -0.15900
C 	C 	0.34030 0.72620 0.82940 0.10100
C 	C 	0.21670 0.70890 0.83200 -0.15400
C 	C 	0.16850 0.68160 0.80580 0.08300
C 	C 	0.40130 0.75520 0.85610 -0.06500
H 	H 	0.30360 0.41490 0.84000 -0.01200
H 	H 	0.12780 0.43310 0.87420 0.07600
H 	H 	0.34950 0.82930 0.78920 0.07800
H 	H 	0.16720 0.84850 0.75820 -0.01200
H 	H 	0.45630 0.82410 0.84600 0.04500
H 	H 	0.35280 0.68250 0.99610 -0.01200
H 	H 	0.25720 0.72620 0.95380 0.07600
H 	H 	0.16450 0.71570 0.85160 0.07900
H 	H 	0.08460 0.66900 0.80900 -0.01000
H 	H 	0.25310 0.74930 0.89340 0.04300
N 	N 	0.71100 0.90630 0.79590 -0.19400
C 	C 	0.72000 0.91580 0.82960 0.07900
C 	C 	0.61560 0.92690 0.85030 -0.15700
C 	C 	0.75730 0.32130 0.83570 0.09900
C 	C 	0.76740 0.33060 0.80040 -0.15700
C 	C 	0.65790 0.34180 0.78210 0.07900
C 	C 	0.87810 0.30780 0.85480 -0.06400
N 	N 	0.73060 0.17190 0.77700 -0.19200
C 	C 	0.84890 0.18880 0.77430 0.08400
C 	C 	0.90690 0.21540 0.79950 -0.15900
C 	C 	0.84030 0.22620 0.82940 0.10100
C 	C 	0.71670 0.20890 0.83200 -0.15400
C 	C 	0.66850 0.18160 0.80580 0.08300
C 	C 	0.90130 0.25520 0.85610 -0.06500
H 	H 	0.80360 0.91490 0.84000 -0.01200
H 	H 	0.62780 0.93310 0.87420 0.07600
H 	H 	0.84950 0.32930 0.78920 0.07800
H 	H 	0.66720 0.34850 0.75820 -0.01200
H 	H 	0.95630 0.32410 0.84600 0.04500
H 	H 	0.85280 0.18250 0.99610 -0.01200
H 	H 	0.75720 0.22620 0.95380 0.07600
H 	H 	0.66450 0.21570 0.85160 0.07900
H 	H 	0.58460 0.16900 0.80900 -0.01000
H 	H 	0.75310 0.24930 0.89340 0.04300
N 	N 	0.71100 0.40630 0.29590 -0.19400
C 	C 	0.72000 0.41580 0.32960 0.07900
C 	C 	0.61560 0.42690 0.35030 -0.15700
C 	C 	0.75730 0.82130 0.33570 0.09900
C 	C 	0.76740 0.83060 0.30040 -0.15700
C 	C 	0.65790 0.84180 0.28210 0.07900
C 	C 	0.87810 0.80780 0.35480 -0.06400
N 	N 	0.73060 0.67190 0.27700 -0.19200
C 	C 	0.84890 0.68880 0.27430 0.08400
C 	C 	0.90690 0.71540 0.29950 -0.15900
C 	C 	0.84030 0.72620 0.32940 0.10100
C 	C 	0.71670 0.70890 0.33200 -0.15400
C 	C 	0.66850 0.68160 0.30580 0.08300
C 	C 	0.90130 0.75520 0.35610 -0.06500
H 	H 	0.80360 0.41490 0.34000 -0.01200
H 	H 	0.62780 0.43310 0.37420 0.07600
H 	H 	0.84950 0.82930 0.28920 0.07800
H 	H 	0.66720 0.84850 0.25820 -0.01200
H 	H 	0.95630 0.82410 0.34600 0.04500
H 	H 	0.85280 0.68250 0.49610 -0.01200
H 	H 	0.75720 0.72620 0.45380 0.07600
H 	H 	0.66450 0.71570 0.35160 0.07900
H 	H 	0.58460 0.66900 0.30900 -0.01000
H 	H 	0.75310 0.74930 0.39340 0.04300
N 	N 	0.03900 0.34370 0.29590 -0.19400
C 	C 	0.03000 0.33420 0.32960 0.07900
C 	C 	0.13440 0.32310 0.35030 -0.15700
C 	C 	0.99270 0.92870 0.33570 0.09900
C 	C 	0.98260 0.91940 0.30040 -0.15700
C 	C 	0.09210 0.90820 0.28210 0.07900
C 	C 	0.87190 0.94220 0.35480 -0.06400
N 	N 	0.01940 0.07810 0.27700 -0.19200
C 	C 	0.90110 0.06120 0.27430 0.08400
C 	C 	0.84310 0.03460 0.29950 -0.15900
C 	C 	0.90970 0.02380 0.32940 0.10100
C 	C 	0.03330 0.04110 0.33200 -0.15400
C 	C 	0.08150 0.06840 0.30580 0.08300
C 	C 	0.84870 0.99480 0.35610 -0.06500
H 	H 	0.94640 0.33510 0.34000 -0.01300
H 	H 	0.12220 0.31690 0.37420 0.07600
H 	H 	0.90050 0.92070 0.28920 0.07800
H 	H 	0.08280 0.90150 0.25820 -0.01200
H 	H 	0.79370 0.92590 0.34600 0.04500
H 	H 	0.89720 0.06750 0.49610 -0.01200
H 	H 	0.99280 0.02380 0.45380 0.07600
H 	H 	0.08550 0.03430 0.35160 0.07900
H 	H 	0.16540 0.08100 0.30900 -0.01000
H 	H 	0.99690 0.00070 0.39340 0.04300
N 	N 	0.03900 0.84370 0.79590 -0.19400
C 	C 	0.03000 0.83420 0.82960 0.08000
C 	C 	0.13440 0.82310 0.85030 -0.15700
C 	C 	0.99270 0.42870 0.83570 0.09800
C 	C 	0.98260 0.41940 0.80040 -0.15700
C 	C 	0.09210 0.40820 0.78210 0.07900
C 	C 	0.87190 0.44220 0.85480 -0.06400
N 	N 	0.01940 0.57810 0.77700 -0.19200
C 	C 	0.90110 0.56120 0.77430 0.08400
C 	C 	0.84310 0.53460 0.79950 -0.15900
C 	C 	0.90970 0.52380 0.82940 0.10100
C 	C 	0.03330 0.54110 0.83200 -0.15400
C 	C 	0.08150 0.56840 0.80580 0.08300
C 	C 	0.84870 0.49480 0.85610 -0.06500
H 	H 	0.94640 0.83510 0.84000 -0.01300
H 	H 	0.12220 0.81690 0.87420 0.07600
H 	H 	0.90050 0.42070 0.78920 0.07800
H 	H 	0.08280 0.40150 0.75820 -0.01200
H 	H 	0.79370 0.42590 0.84600 0.04500
H 	H 	0.89720 0.56750 0.99610 -0.01200
H 	H 	0.99280 0.52380 0.95380 0.07600
H 	H 	0.08550 0.53430 0.85160 0.07900
H 	H 	0.16540 0.58100 0.80900 -0.01000
H 	H 	0.99690 0.50070 0.89340 0.04300
N 	N 	0.53900 0.34370 0.79590 -0.19400
C 	C 	0.53000 0.33420 0.82960 0.07900
C 	C 	0.63440 0.32310 0.85030 -0.15700
C 	C 	0.49270 0.92870 0.83570 0.09900
C 	C 	0.48260 0.91940 0.80040 -0.15700
C 	C 	0.59210 0.90820 0.78210 0.07900
C 	C 	0.37190 0.94220 0.85480 -0.06400
N 	N 	0.51940 0.07810 0.77700 -0.19200
C 	C 	0.40110 0.06120 0.77430 0.08400
C 	C 	0.34310 0.03460 0.79950 -0.15900
C 	C 	0.40970 0.02380 0.82940 0.10100
C 	C 	0.53330 0.04110 0.83200 -0.15400
C 	C 	0.58150 0.06840 0.80580 0.08300
C 	C 	0.34870 0.99480 0.85610 -0.06500
H 	H 	0.44640 0.33510 0.84000 -0.01200
H 	H 	0.62220 0.31690 0.87420 0.07600
H 	H 	0.40050 0.92070 0.78920 0.07800
H 	H 	0.58280 0.90150 0.75820 -0.01200
H 	H 	0.29370 0.92590 0.84600 0.04500
H 	H 	0.39720 0.06750 0.99610 -0.01200
H 	H 	0.49280 0.02380 0.95380 0.07600
H 	H 	0.58550 0.03430 0.85160 0.07900
H 	H 	0.66540 0.08100 0.80900 -0.01000
H 	H 	0.49690 0.00070 0.89340 0.04300
N 	N 	0.53900 0.84370 0.29590 -0.19400
C 	C 	0.53000 0.83420 0.32960 0.07900
C 	C 	0.63440 0.82310 0.35030 -0.15700
C 	C 	0.49270 0.42870 0.33570 0.09900
C 	C 	0.48260 0.41940 0.30040 -0.15700
C 	C 	0.59210 0.40820 0.28210 0.07900
C 	C 	0.37190 0.44220 0.35480 -0.06400
N 	N 	0.51940 0.57810 0.27700 -0.19200
C 	C 	0.40110 0.56120 0.27430 0.08400
C 	C 	0.34310 0.53460 0.29950 -0.15900
C 	C 	0.40970 0.52380 0.32940 0.10100
C 	C 	0.53330 0.54110 0.33200 -0.15400
C 	C 	0.58150 0.56840 0.30580 0.08300
C 	C 	0.34870 0.49480 0.35610 -0.06500
H 	H 	0.44640 0.83510 0.34000 -0.01200
H 	H 	0.62220 0.81690 0.37420 0.07600
H 	H 	0.40050 0.42070 0.28920 0.07800
H 	H 	0.58280 0.40150 0.25820 -0.01200
H 	H 	0.29370 0.42590 0.34600 0.04500
H 	H 	0.39720 0.56750 0.49610 -0.01200
H 	H 	0.49280 0.52380 0.45380 0.07600
H 	H 	0.58550 0.53430 0.35160 0.07900
H 	H 	0.66540 0.58100 0.30900 -0.01000
H 	H 	0.49690 0.50070 0.39340 0.04300
Ag	Ag	0.87500 0.87500 0.98660 0.53600
Ag	Ag	0.87500 0.37500 0.48660 0.53600
Ag	Ag	0.37500 0.87500 0.48660 0.53600
Ag	Ag	0.37500 0.37500 0.98660 0.53600
Ag	Ag	0.87500 0.87500 0.76340 0.53600
Ag	Ag	0.87500 0.37500 0.26340 0.53600
Ag	Ag	0.37500 0.87500 0.26340 0.53600
Ag	Ag	0.37500 0.37500 0.76340 0.53600
Ag	Ag	0.12500 0.12500 0.01340 0.53600
Ag	Ag	0.12500 0.62500 0.51340 0.53600
Ag	Ag	0.62500 0.12500 0.51340 0.53600
Ag	Ag	0.62500 0.62500 0.01340 0.53600
Ag	Ag	0.12500 0.12500 0.23660 0.53600
Ag	Ag	0.12500 0.62500 0.73660 0.53600
Ag	Ag	0.62500 0.12500 0.73660 0.53600
Ag	Ag	0.62500 0.62500 0.23660 0.53600
