data_crystal

_cell_length_a 12.93760
_cell_length_b 12.93760
_cell_length_c 14.16210
_cell_angle_alpha 85.05810
_cell_angle_beta  85.05810
_cell_angle_gamma 89.59630

_symmetry_space_group_name_	'P 1'
_symmetry_space_group_name_H-M	'P 1'

loop_
_symmetry_equiv_pos_as_xyz
  x,y,z

loop_
_atom_site_label
_atom_site_type_symbol
_atom_site_fract_x
_atom_site_fract_y
_atom_site_fract_z
_atom_site_charge
Zn	Zn	0.01724 0.18736 0.33517 1.20700
Zn	Zn	0.16584 0.16584 0.50514 1.18600
Zn	Zn	0.98276 0.81264 0.66483 1.22500
Zn	Zn	0.18736 0.01724 0.33517 1.20700
Zn	Zn	0.83416 0.83416 0.49486 1.20500
Zn	Zn	-0.00000 -0.00000 0.50000 1.17200
Zn	Zn	0.81264 0.98276 0.66483 1.22400
C 	C 	0.54290 0.06790 0.32060 -0.03500
C 	C 	0.06790 0.54290 0.32060 -0.03500
C 	C 	0.89740 0.29780 0.60840 -0.13700
C 	C 	0.64220 0.13960 0.46690 0.01100
C 	C 	0.91590 0.04750 0.95980 -0.10700
C 	C 	0.63110 0.90010 0.59690 0.37900
C 	C 	0.09990 0.36890 0.40310 0.37600
C 	C 	0.53560 0.14200 0.47080 -0.01300
C 	C 	0.89620 0.51540 0.60220 -0.06400
C 	C 	0.14200 0.53560 0.47080 -0.01300
C 	C 	0.81820 0.10180 0.39240 0.43000
C 	C 	0.93070 0.35170 0.68200 0.11300
C 	C 	0.70220 0.10260 0.39160 -0.14300
C 	C 	0.85800 0.46440 0.52920 -0.00600
C 	C 	0.06980 0.06980 0.17100 0.41600
C 	C 	0.13960 0.64220 0.46690 0.01100
C 	C 	0.06930 0.64830 0.31800 0.10200
C 	C 	0.18180 0.89820 0.60760 0.43100
C 	C 	0.35780 0.86040 0.53310 0.02400
C 	C 	0.10260 0.70220 0.39160 -0.14300
C 	C 	0.46440 0.85800 0.52920 -0.00600
C 	C 	0.86040 0.35780 0.53310 0.02400
C 	C 	0.93210 0.45710 0.67940 -0.03100
C 	C 	0.03740 0.03740 0.08040 -0.27300
C 	C 	0.10380 0.48460 0.39780 -0.08100
C 	C 	0.51540 0.89620 0.60220 -0.06400
C 	C 	0.64830 0.06930 0.31800 0.10200
C 	C 	0.35170 0.93070 0.68200 0.11300
C 	C 	0.95250 0.08410 0.04020 0.16200
C 	C 	0.90010 0.63110 0.59690 0.37900
C 	C 	0.93020 0.93020 0.82900 0.32400
C 	C 	0.89820 0.18180 0.60760 0.43100
C 	C 	0.36890 0.09990 0.40310 0.37600
C 	C 	0.45710 0.93210 0.67940 -0.03100
C 	C 	0.48460 0.10380 0.39780 -0.08100
C 	C 	0.10180 0.81820 0.39240 0.43000
C 	C 	0.96260 0.96260 0.91960 0.07700
C 	C 	0.04750 0.91590 0.95980 -0.10700
C 	C 	0.08410 0.95250 0.04020 0.16200
C 	C 	0.29780 0.89740 0.60840 -0.13700
N 	N 	0.70680 0.03500 0.23440 -0.01100
N 	N 	0.29320 0.96500 0.76560 -0.01100
N 	N 	0.96500 0.29320 0.76560 -0.01100
N 	N 	0.03500 0.70680 0.23440 -0.01100
O 	O 	0.85913 0.02093 0.42380 -0.55700
O 	O 	0.13603 0.81351 0.63420 -0.48200
O 	O 	0.97960 0.85460 0.79370 -0.44200
O 	O 	0.09276 0.09276 0.41630 -0.95500
O 	O 	0.18649 0.86397 0.36580 -0.44400
O 	O 	0.85297 0.68101 0.53480 -0.48000
O 	O 	0.31899 0.14703 0.46520 -0.50300
O 	O 	0.81351 0.13603 0.63420 -0.48200
O 	O 	0.20190 0.96290 0.77430 -0.12100
O 	O 	0.97907 0.14087 0.57620 -0.54100
O 	O 	0.02040 0.14540 0.20630 -0.51300
O 	O 	0.95294 0.66792 0.65880 -0.47200
O 	O 	0.66000 0.00960 0.17100 -0.12500
O 	O 	0.68101 0.85297 0.53480 -0.48000
O 	O 	0.33208 0.04706 0.34120 -0.50100
O 	O 	0.66792 0.95294 0.65880 -0.47200
O 	O 	0.04706 0.33208 0.34120 -0.50100
O 	O 	0.85460 0.97960 0.79370 -0.44200
O 	O 	0.00960 0.66000 0.17100 -0.12500
O 	O 	0.14087 0.97907 0.57620 -0.54100
O 	O 	0.14540 0.02040 0.20630 -0.51300
O 	O 	0.34000 0.99040 0.82900 -0.09800
O 	O 	0.96290 0.20190 0.77430 -0.12100
O 	O 	0.86397 0.18649 0.36580 -0.44400
O 	O 	0.79810 0.03710 0.22570 -0.11700
O 	O 	0.02093 0.85913 0.42380 -0.55700
O 	O 	0.90724 0.90724 0.58370 -0.89900
O 	O 	0.14703 0.31899 0.46520 -0.50300
O 	O 	0.03710 0.79810 0.22570 -0.11700
O 	O 	0.99040 0.34000 0.82900 -0.09800
H 	H 	0.50341 0.03740 0.25964 0.06600
H 	H 	0.03740 0.50341 0.25964 0.06600
H 	H 	0.68394 0.16878 0.52714 0.03400
H 	H 	0.84722 0.08712 0.92644 0.08400
H 	H 	0.48908 0.17503 0.53336 0.04000
H 	H 	0.17503 0.48908 0.53336 0.04000
H 	H 	0.82502 0.51118 0.46675 0.05600
H 	H 	0.16878 0.68394 0.52714 0.03400
H 	H 	0.31606 0.83122 0.47286 0.04300
H 	H 	0.51092 0.82497 0.46664 0.05600
H 	H 	0.83049 0.31915 0.47140 0.04300
H 	H 	0.96242 0.49747 0.73993 0.08200
H 	H 	0.91288 0.15278 0.07356 0.04400
H 	H 	0.49659 0.96260 0.74036 0.08200
H 	H 	0.08752 0.84719 0.92684 0.08400
H 	H 	0.15281 0.91248 0.07316 0.04400
