data_crystal

_cell_length_a 8.47470
_cell_length_b 8.98730
_cell_length_c 8.98730
_cell_angle_alpha 77.15370
_cell_angle_beta  61.86950
_cell_angle_gamma 61.86950

_symmetry_space_group_name_	'P 1'
_symmetry_space_group_name_H-M	'P 1'

loop_
_symmetry_equiv_pos_as_xyz
  x,y,z

loop_
_atom_site_label
_atom_site_type_symbol
_atom_site_fract_x
_atom_site_fract_y
_atom_site_fract_z
_atom_site_charge
Zr	Zr	0.32770 0.50000 0.50000 3.20500
Cd	Cd	0.57664 0.00000 -0.00000 1.06400
Cd	Cd	0.07520 0.00000 -0.00000 0.99800
C 	C 	0.58220 0.22880 0.22880 0.30000
C 	C 	0.36430 0.27070 0.27070 0.15000
C 	C 	0.03980 0.77120 0.77120 0.03600
C 	C 	0.90570 0.72930 0.72930 0.48600
C 	C 	0.34600 0.77130 0.22870 0.34800
C 	C 	0.52300 0.72980 0.27020 0.15800
C 	C 	0.34600 0.22870 0.77130 0.34800
C 	C 	0.52300 0.27020 0.72980 0.15800
O 	O 	0.72120 0.12180 0.12180 -0.60000
O 	O 	0.31580 0.19820 0.19820 -0.46000
O 	O 	0.23440 0.38480 0.38480 -0.55600
O 	O 	0.59270 0.31390 0.31390 -0.65000
O 	O 	0.96480 0.87820 0.87820 -0.02900
O 	O 	0.71220 0.80180 0.80180 -0.18600
O 	O 	0.00400 0.61520 0.61520 -0.64700
O 	O 	0.22050 0.68610 0.68610 -0.48900
O 	O 	0.32100 0.87850 0.12150 -0.42300
O 	O 	0.64800 0.80330 0.19670 -0.25000
O 	O 	0.25400 0.68640 0.31360 -0.65200
O 	O 	0.53840 0.61360 0.38640 -0.49200
O 	O 	0.32100 0.12150 0.87850 -0.42300
O 	O 	0.64800 0.19670 0.80330 -0.25000
O 	O 	0.25400 0.31360 0.68640 -0.65200
O 	O 	0.53840 0.38640 0.61360 -0.49200
