data_crystal

_cell_length_a 16.17960
_cell_length_b 19.15050
_cell_length_c 19.58480
_cell_angle_alpha 112.45100
_cell_angle_beta  93.54800
_cell_angle_gamma 104.21500

_symmetry_space_group_name_	'P 1'
_symmetry_space_group_name_H-M	'P 1'

loop_
_symmetry_equiv_pos_as_xyz
  x,y,z

loop_
_atom_site_label
_atom_site_type_symbol
_atom_site_fract_x
_atom_site_fract_y
_atom_site_fract_z
_atom_site_charge
Mn	Mn	0.42687 0.17709 0.82601 1.21600
Mn	Mn	0.78585 0.11855 0.90655 1.27500
Mn	Mn	0.61404 0.11289 0.78311 1.30000
H 	H 	0.68830 0.51280 0.59780 0.25900
H 	H 	0.69190 0.64100 0.36890 0.25700
H 	H 	0.98110 0.28720 0.43540 0.30300
H 	H 	0.51090 0.30800 0.30760 0.30100
H 	H 	0.77050 0.66530 0.45950 -0.02500
H 	H 	0.16630 0.51440 0.40360 0.29700
H 	H 	0.05460 0.16980 0.12010 -0.02800
H 	H 	0.73090 0.59880 0.60510 0.25900
H 	H 	0.91840 0.33520 0.27590 0.14100
H 	H 	0.94340 0.30580 0.51010 0.29700
H 	H 	0.48480 0.31120 0.38420 0.30100
H 	H 	0.12100 0.24980 0.23990 0.13700
H 	H 	0.07390 0.33580 0.62790 -0.03900
H 	H 	0.04810 0.33020 0.74810 0.12200
H 	H 	0.27960 0.62640 0.64930 -0.01500
H 	H 	0.86580 0.27050 0.14890 -0.02800
H 	H 	0.25640 0.94300 0.71220 -0.03600
H 	H 	0.61950 0.92090 0.64800 -0.02000
H 	H 	0.48540 0.38500 0.49890 -0.00600
H 	H 	0.51720 0.28290 0.99560 -0.10500
H 	H 	0.27710 0.62110 0.56710 -0.01800
H 	H 	0.46320 0.86400 0.69130 -0.03100
H 	H 	0.22350 0.53290 0.72390 0.31100
H 	H 	0.46100 0.28640 0.67920 -0.03800
H 	H 	0.82040 0.78020 0.62030 0.13200
H 	H 	0.63510 0.57400 0.61740 0.24400
H 	H 	0.72560 0.57240 0.31690 0.24100
H 	H 	0.96520 0.36480 0.39300 -0.01500
H 	H 	0.64980 0.19390 0.60580 -0.00300
H 	H 	0.20450 0.60790 0.72030 0.32200
H 	H 	0.68140 0.25700 0.18040 0.14900
H 	H 	0.63080 0.57340 0.29660 0.24300
H 	H 	0.20310 0.59500 0.47380 0.30500
H 	H 	0.47820 0.35710 0.60490 0.13000
H 	H 	0.49770 0.39730 0.24820 -0.03300
H 	H 	0.02440 0.27400 0.50150 0.29200
H 	H 	0.16630 0.81130 0.66150 0.13400
H 	H 	0.68330 0.18350 0.05750 -0.05700
H 	H 	0.59260 0.79920 0.54770 0.14200
H 	H 	0.11050 0.41780 0.69730 -0.04500
H 	H 	0.10510 0.56600 0.43730 0.30400
H 	H 	0.66820 0.26150 0.52450 0.12400
H 	H 	0.84730 0.90190 0.72070 -0.02100
H 	H 	0.02090 0.43580 0.37820 -0.01900
H 	H 	0.82670 0.35640 0.67290 0.12700
H 	H 	0.77500 0.66310 0.53940 -0.02100
H 	H 	0.51420 0.35500 0.12080 0.13600
H 	H 	0.43440 0.34160 0.33590 0.27700
H 	H 	0.13300 0.54670 0.73590 0.31400
H 	H 	0.97260 0.26720 0.81510 -0.01800
H 	H 	0.37470 0.73410 0.64180 0.14600
H 	H 	0.57860 0.45770 0.24030 -0.03700
H 	H 	0.75320 0.29310 0.73990 -0.01400
H 	H 	0.55170 0.45180 0.56930 -0.01800
C 	C 	0.91330 0.17030 0.03670 0.42000
C 	C 	0.70385 0.77761 0.57405 0.29200
C 	C 	0.22620 0.82178 0.66920 -0.30300
C 	C 	0.13190 0.50704 0.50060 0.38100
C 	C 	0.65975 0.89270 0.64245 0.16800
C 	C 	0.56000 0.42042 0.26262 0.16200
C 	C 	0.02980 0.20710 0.15000 0.18700
C 	C 	0.58690 0.46093 0.34876 -0.27700
C 	C 	0.60430 0.18018 0.93276 0.47600
C 	C 	0.64365 0.81976 0.58234 -0.29400
C 	C 	0.55310 0.41981 0.39134 0.35700
C 	C 	0.99540 0.30677 0.48894 -0.89100
C 	C 	0.64510 0.52910 0.50349 0.31300
C 	C 	0.98890 0.32330 0.74621 -0.29100
C 	C 	0.61520 0.22580 0.60480 0.13200
C 	C 	0.55050 0.23320 0.65034 -0.21900
C 	C 	0.07030 0.38950 0.65014 0.19700
C 	C 	0.67540 0.57070 0.46058 -0.25500
C 	C 	0.85670 0.33850 0.70174 -0.28000
C 	C 	0.59980 0.31600 0.16344 0.31700
C 	C 	0.78015 0.80840 0.62587 -0.30000
C 	C 	0.73605 0.92348 0.69427 -0.22900
C 	C 	0.09310 0.43061 0.59669 -0.33200
C 	C 	0.40350 0.85400 0.68690 0.19600
C 	C 	0.91640 0.26420 0.16756 0.19200
C 	C 	0.58290 0.45514 0.46929 -0.26400
C 	C 	0.54940 0.32180 0.10814 -0.35300
C 	C 	0.26240 0.76090 0.65176 0.31100
C 	C 	0.24230 0.62070 0.60561 0.17400
C 	C 	0.67610 0.58560 0.33699 -0.76100
C 	C 	0.85560 0.27317 0.78538 -0.20600
C 	C 	0.64380 0.53698 0.38320 0.31200
C 	C 	0.81240 0.30050 0.74199 0.15600
C 	C 	0.94910 0.30550 0.24398 -0.31800
C 	C 	0.62790 0.26800 0.55650 -0.25800
C 	C 	0.17180 0.54422 0.57755 -0.31100
C 	C 	0.64890 0.26260 0.14299 -0.34000
C 	C 	0.15360 0.54955 0.44903 -0.89800
C 	C 	0.14690 0.50780 0.62592 0.41100
C 	C 	0.80490 0.22794 0.82604 0.39800
C 	C 	0.51310 0.32500 0.60462 -0.28200
C 	C 	0.57830 0.31790 0.55970 0.26700
C 	C 	0.55070 0.27800 0.03293 0.23300
C 	C 	0.02740 0.30190 0.27167 0.30600
C 	C 	0.05480 0.39132 0.52046 0.38700
C 	C 	0.54610 0.41370 0.51815 0.14200
C 	C 	0.73630 0.65469 0.49530 0.16000
C 	C 	0.35040 0.77565 0.65739 -0.32300
C 	C 	0.06730 0.25220 0.22260 -0.31100
C 	C 	0.54020 0.19100 0.70160 0.44200
C 	C 	0.36920 0.91610 0.70927 -0.25200
C 	C 	0.60200 0.22690 0.01320 -0.31100
C 	C 	0.02380 0.39450 0.39472 0.16900
C 	C 	0.18000 0.55290 0.70906 -0.94800
C 	C 	0.67810 0.55630 0.58927 -0.76400
C 	C 	0.49000 0.33760 0.35110 -0.87700
C 	C 	0.95410 0.21550 0.11905 -0.23500
C 	C 	0.74890 0.00070 0.76083 0.42600
C 	C 	0.65030 0.21870 0.06978 0.23500
C 	C 	0.28060 0.90140 0.69940 0.18000
C 	C 	0.42760 0.99941 0.74244 0.44800
C 	C 	0.07330 0.43056 0.47339 -0.30900
C 	C 	0.94550 0.35040 0.70377 0.29400
C 	C 	0.79625 0.88134 0.68598 0.17000
C 	C 	0.50310 0.28150 0.64889 0.16800
C 	C 	0.94280 0.28520 0.78640 0.16300
O 	O 	0.20481 0.68656 0.62541 -0.29800
O 	O 	0.94540 0.12368 0.99336 -0.34200
O 	O 	0.60484 0.35876 0.23960 -0.30100
O 	O 	0.06802 0.34205 0.34539 -0.29700
O 	O 	0.59665 0.35913 0.51567 -0.28200
O 	O 	0.69871 0.04052 0.76280 -0.52300
O 	O 	0.67942 0.70468 0.51529 -0.28900
O 	O 	0.50874 0.00986 0.75041 -0.47400
O 	O 	0.65584 0.13871 0.91574 -0.55600
O 	O 	0.57993 0.14288 0.69396 -0.47200
O 	O 	0.81264 0.02375 0.81222 -0.44600
O 	O 	0.72357 0.21810 0.81817 -0.44600
O 	O 	0.39299 0.05383 0.76061 -0.52400
O 	O 	0.98272 0.38918 0.66282 -0.30400
O 	O 	0.84771 0.18335 0.01727 -0.47800
O 	O 	0.48937 0.20999 0.74903 -0.52500
O 	O 	0.84562 0.20254 0.86305 -0.44400
O 	O 	0.55536 0.18275 0.88222 -0.59500
Mn	Mn	0.57313 0.82291 0.17399 1.21500
Mn	Mn	0.38596 0.88711 0.21689 1.29900
Mn	Mn	0.21415 0.88145 0.09345 1.27400
H 	H 	0.94540 0.83020 0.87990 -0.02800
H 	H 	0.50230 0.60270 0.75180 -0.03300
H 	H 	0.74360 0.05700 0.28780 -0.03600
H 	H 	0.36490 0.42600 0.38260 0.24400
H 	H 	0.89490 0.43400 0.56270 0.30400
H 	H 	0.97560 0.72600 0.49850 0.29200
H 	H 	0.31860 0.74300 0.81960 0.14900
H 	H 	0.27440 0.42760 0.68310 0.24100
H 	H 	0.36920 0.42660 0.70340 0.24300
H 	H 	0.48280 0.71710 0.00440 -0.10500
H 	H 	0.53680 0.13600 0.30870 -0.03100
H 	H 	0.02740 0.73280 0.18490 -0.01800
H 	H 	0.15270 0.09810 0.27930 -0.02100
H 	H 	0.42140 0.54230 0.75970 -0.03700
H 	H 	0.01890 0.71280 0.56460 0.30300
H 	H 	0.48580 0.64500 0.87920 0.13600
H 	H 	0.05660 0.69420 0.48990 0.29700
H 	H 	0.92610 0.66420 0.37210 -0.03900
H 	H 	0.87900 0.75020 0.76010 0.13700
H 	H 	0.97910 0.56420 0.62180 -0.01900
H 	H 	0.26910 0.40120 0.39490 0.25900
H 	H 	0.77650 0.46710 0.27610 0.31100
H 	H 	0.83370 0.48560 0.59640 0.29700
H 	H 	0.44830 0.54820 0.43070 -0.01800
H 	H 	0.53900 0.71360 0.32080 -0.03800
H 	H 	0.13420 0.72950 0.85110 -0.02800
H 	H 	0.52180 0.64290 0.39510 0.13000
H 	H 	0.79690 0.40500 0.52620 0.30500
H 	H 	0.56560 0.65840 0.66410 0.27700
H 	H 	0.72040 0.37360 0.35070 -0.01500
H 	H 	0.35020 0.80610 0.39420 -0.00300
H 	H 	0.22500 0.33690 0.46060 -0.02100
H 	H 	0.40740 0.20080 0.45230 0.14200
H 	H 	0.17960 0.21980 0.37970 0.13200
H 	H 	0.38050 0.07910 0.35200 -0.02000
H 	H 	0.22950 0.33470 0.54050 -0.02500
H 	H 	0.51520 0.68880 0.61580 0.30100
H 	H 	0.30810 0.35900 0.63110 0.25700
H 	H 	0.62530 0.26590 0.35820 0.14600
H 	H 	0.86700 0.45330 0.26410 0.31400
H 	H 	0.48910 0.69200 0.69240 0.30100
H 	H 	0.31170 0.48720 0.40220 0.25800
H 	H 	0.72290 0.37890 0.43290 -0.01800
H 	H 	0.51460 0.61500 0.50110 -0.00600
H 	H 	0.17330 0.64360 0.32710 0.12700
H 	H 	0.88950 0.58220 0.30270 -0.04500
H 	H 	0.03480 0.63520 0.60700 -0.01500
H 	H 	0.08160 0.66480 0.72410 0.14100
H 	H 	0.31670 0.81650 0.94250 -0.05700
H 	H 	0.33180 0.73850 0.47550 0.12400
H 	H 	0.24680 0.70690 0.26010 -0.01400
H 	H 	0.95190 0.66980 0.25190 0.12200
H 	H 	0.83370 0.18870 0.33850 0.13400
H 	H 	0.79550 0.39210 0.27970 0.32200
C 	C 	0.51000 0.66240 0.64890 -0.87700
C 	C 	0.39570 0.81982 0.06724 0.47600
C 	C 	0.05720 0.71480 0.21360 0.16300
C 	C 	0.73760 0.23910 0.34824 0.31100
C 	C 	0.45390 0.58630 0.48185 0.14200
C 	C 	0.59650 0.14600 0.31310 0.19600
C 	C 	0.34970 0.78130 0.93022 0.23500
C 	C 	0.00460 0.69323 0.51106 -0.89100
C 	C 	0.93270 0.74780 0.77740 -0.31100
C 	C 	0.32190 0.44370 0.41073 -0.76400
C 	C 	0.85310 0.49220 0.37408 0.41100
C 	C 	0.04590 0.78450 0.88095 -0.23500
C 	C 	0.48690 0.67500 0.39538 -0.28200
C 	C 	0.39800 0.77310 0.98680 -0.31100
C 	C 	0.40020 0.68400 0.83656 0.31700
C 	C 	0.49690 0.71850 0.35111 0.16800
C 	C 	0.08360 0.73580 0.83244 0.19200
C 	C 	0.82000 0.44710 0.29094 -0.94800
C 	C 	0.71940 0.09860 0.30060 0.18000
C 	C 	0.44950 0.76680 0.34966 -0.21900
C 	C 	0.75770 0.37930 0.39439 0.17400
C 	C 	0.84640 0.45045 0.55097 -0.89800
C 	C 	0.25110 0.99930 0.23917 0.42600
C 	C 	0.32460 0.42930 0.53942 -0.25500
C 	C 	0.38480 0.77420 0.39520 0.13200
C 	C 	0.21985 0.19160 0.37413 -0.30000
C 	C 	0.64960 0.22435 0.34261 -0.32300
C 	C 	0.05450 0.64960 0.29623 0.29400
C 	C 	0.05090 0.69450 0.75602 -0.31800
C 	C 	0.26370 0.34531 0.50470 0.16000
C 	C 	0.19510 0.77206 0.17396 0.39800
C 	C 	0.26395 0.07652 0.30573 -0.22900
C 	C 	0.32390 0.41440 0.66301 -0.76100
C 	C 	0.41310 0.53907 0.65124 -0.27700
C 	C 	0.35620 0.46302 0.61680 0.31200
C 	C 	0.97260 0.69810 0.72833 0.30600
C 	C 	0.18760 0.69950 0.25801 0.15600
C 	C 	0.97020 0.79290 0.85000 0.18700
C 	C 	0.08670 0.82970 0.96330 0.42000
C 	C 	0.35635 0.18024 0.41766 -0.29400
C 	C 	0.57240 0.00059 0.25756 0.44800
C 	C 	0.35110 0.73740 0.85701 -0.34000
C 	C 	0.29615 0.22239 0.42595 0.29200
C 	C 	0.44000 0.57958 0.73738 0.16200
C 	C 	0.82820 0.45578 0.42245 -0.31100
C 	C 	0.44930 0.72200 0.96707 0.23300
C 	C 	0.97620 0.60550 0.60528 0.16900
C 	C 	0.86810 0.49296 0.49940 0.38100
C 	C 	0.20375 0.11866 0.31402 0.17000
C 	C 	0.92970 0.61050 0.34986 0.19700
C 	C 	0.94520 0.60868 0.47954 0.38700
C 	C 	0.01110 0.67670 0.25379 -0.29100
C 	C 	0.35490 0.47090 0.49651 0.31300
C 	C 	0.45980 0.80900 0.29840 0.44200
C 	C 	0.90690 0.56939 0.40331 -0.33200
C 	C 	0.41710 0.54486 0.53071 -0.26400
C 	C 	0.44690 0.58019 0.60866 0.35700
C 	C 	0.37210 0.73200 0.44350 -0.25800
C 	C 	0.34025 0.10730 0.35755 0.16800
C 	C 	0.77380 0.17822 0.33080 -0.30300
C 	C 	0.45060 0.67820 0.89186 -0.35300
C 	C 	0.14440 0.72683 0.21462 -0.20600
C 	C 	0.63080 0.08390 0.29073 -0.25200
C 	C 	0.92670 0.56944 0.52661 -0.30900
C 	C 	0.14330 0.66150 0.29826 -0.28000
C 	C 	0.42170 0.68210 0.44030 0.26700
O 	O 	0.01728 0.61082 0.33718 -0.30400
O 	O 	0.49126 0.99014 0.24959 -0.47400
O 	O 	0.40335 0.64087 0.48433 -0.28200
O 	O 	0.42007 0.85712 0.30604 -0.47200
O 	O 	0.05460 0.87632 0.00664 -0.34200
O 	O 	0.44464 0.81725 0.11778 -0.59500
O 	O 	0.93198 0.65795 0.65461 -0.29700
O 	O 	0.60701 0.94617 0.23939 -0.52400
O 	O 	0.79519 0.31344 0.37459 -0.29800
O 	O 	0.15438 0.79746 0.13695 -0.44400
O 	O 	0.34416 0.86129 0.08426 -0.55600
O 	O 	0.32058 0.29532 0.48471 -0.28900
O 	O 	0.18736 0.97625 0.18778 -0.44600
O 	O 	0.51063 0.79001 0.25097 -0.52500
O 	O 	0.39516 0.64124 0.76040 -0.30100
O 	O 	0.15229 0.81665 0.98273 -0.47800
O 	O 	0.27643 0.78190 0.18183 -0.44600
O 	O 	0.30129 0.95948 0.23720 -0.52300
