data_crystal

_cell_length_a 14.50560
_cell_length_b 14.89810
_cell_length_c 22.99340
_cell_angle_alpha 90.53400
_cell_angle_beta  92.84400
_cell_angle_gamma 104.15300

_symmetry_space_group_name_	'P 1'
_symmetry_space_group_name_H-M	'P 1'

loop_
_symmetry_equiv_pos_as_xyz
  x,y,z

loop_
_atom_site_label
_atom_site_type_symbol
_atom_site_fract_x
_atom_site_fract_y
_atom_site_fract_z
_atom_site_charge
Ag	Ag	0.26030 0.88730 0.23502 0.49800
Ag	Ag	0.92956 0.59066 0.92829 0.51700
Ag	Ag	0.51726 0.37814 0.99770 0.47500
C 	C 	0.89900 0.49600 0.61700 0.04700
H 	H 	0.95030 0.49660 0.64320 -0.00800
C 	C 	0.81800 0.52900 0.54770 0.11800
H 	H 	0.79850 0.54350 0.51050 -0.03000
C 	C 	0.76900 0.44800 0.68640 -0.08600
H 	H 	0.70040 0.44100 0.68610 0.05200
H 	H 	0.78010 0.38640 0.69030 0.04200
C 	C 	0.81500 0.50600 0.73690 -0.04300
H 	H 	0.87840 0.49690 0.74200 0.03000
H 	H 	0.82160 0.56970 0.72540 0.03800
C 	C 	0.77910 0.49960 0.78990 -0.15000
H 	H 	0.71100 0.49240 0.78430 0.06700
H 	H 	0.80480 0.55880 0.80980 0.05600
C 	C 	0.79420 0.42510 0.83120 -0.01500
H 	H 	0.76870 0.36460 0.81290 0.01500
H 	H 	0.86190 0.43250 0.83970 0.00800
C 	C 	0.71810 0.49340 0.96410 0.07600
H 	H 	0.72120 0.53230 0.99640 -0.04100
C 	C 	0.66440 0.38670 0.90080 0.10400
H 	H 	0.62460 0.33620 0.88090 -0.03300
C 	C 	0.36300 0.22000 0.04660 0.09200
H 	H 	0.34430 0.19750 0.00900 -0.02900
C 	C 	0.42820 0.30680 0.11310 0.09100
H 	H 	0.46650 0.35710 0.13410 -0.02800
C 	C 	0.36720 0.20830 0.19870 -0.05300
H 	H 	0.39710 0.26250 0.22270 0.03800
H 	H 	0.39970 0.16020 0.20800 0.03400
C 	C 	0.26250 0.17520 0.21280 -0.07700
H 	H 	0.23010 0.12800 0.18440 0.05600
H 	H 	0.25840 0.14760 0.25090 0.03400
C 	C 	0.21440 0.25290 0.21220 -0.12300
H 	H 	0.22730 0.28510 0.24960 0.05600
H 	H 	0.24170 0.29630 0.18280 0.07300
C 	C 	0.10950 0.22370 0.20010 -0.01700
H 	H 	0.08270 0.17340 0.22550 0.02400
H 	H 	0.08200 0.27510 0.20890 0.01800
C 	C 	0.08060 0.20100 0.04970 0.07800
H 	H 	0.08520 0.22330 0.01200 -0.04500
C 	C 	0.04900 0.11400 0.11820 0.09900
H 	H 	0.02610 0.06200 0.14040 -0.03400
C 	C 	0.14480 0.87000 0.11720 0.04700
H 	H 	0.08900 0.83890 0.13380 -0.02600
C 	C 	0.29300 0.93400 0.10670 0.10400
H 	H 	0.35900 0.95470 0.11210 -0.02600
C 	C 	0.28700 0.98200 0.00330 -0.06200
H 	H 	0.25030 0.02380 0.98870 0.01700
H 	H 	0.35100 0.01850 0.01350 0.04800
C 	C 	0.29200 0.92200 0.95920 -0.07100
H 	H 	0.31150 0.95770 0.92490 0.02800
H 	H 	0.22920 0.88280 0.95040 0.05000
C 	C 	0.36070 0.85900 0.97030 -0.13000
H 	H 	0.36720 0.84860 0.01170 0.07000
H 	H 	0.42300 0.88900 0.95700 0.05200
C 	C 	0.31980 0.76540 0.93650 -0.01700
H 	H 	0.31640 0.77720 0.89520 0.02300
H 	H 	0.36330 0.72600 0.94310 0.00500
C 	C 	0.14550 0.68900 0.92150 0.07800
H 	H 	0.13930 0.69560 0.88140 -0.02300
C 	C 	0.12110 0.65300 0.00840 0.08700
H 	H 	0.09130 0.62450 0.04070 -0.03300
C 	C 	0.35330 0.92920 0.36150 0.06700
H 	H 	0.41550 0.93600 0.35060 -0.01700
C 	C 	0.20600 0.90100 0.35820 0.09600
H 	H 	0.14320 0.88030 0.34410 -0.03400
C 	C 	0.37800 0.95100 0.47180 -0.00700
H 	H 	0.34910 0.98930 0.49590 0.03100
H 	H 	0.37170 0.89230 0.49120 0.02900
C 	C 	0.47630 0.99400 0.47050 -0.15700
H 	H 	0.48410 0.05430 0.45300 0.07100
H 	H 	0.50650 0.95700 0.44650 0.06800
N 	N 	0.89470 0.50410 0.55640 -0.21700
N 	N 	0.80600 0.48800 0.62750 -0.08200
N 	N 	0.76600 0.53200 0.59150 -0.10900
N 	N 	0.64520 0.42280 0.94880 -0.21700
N 	N 	0.78940 0.50070 0.92450 -0.16300
N 	N 	0.74770 0.43130 0.88450 -0.11100
N 	N 	0.41720 0.30070 0.05730 -0.22200
N 	N 	0.33470 0.17060 0.09560 -0.09900
N 	N 	0.37740 0.23170 0.13630 -0.09700
N 	N 	0.08460 0.19430 0.14110 -0.11100
N 	N 	0.10400 0.25510 0.09510 -0.14400
N 	N 	0.04820 0.10900 0.06090 -0.24400
N 	N 	0.15340 0.89900 0.06070 -0.14100
N 	N 	0.24400 0.94030 0.05820 -0.10000
N 	N 	0.23720 0.89680 0.14570 -0.21400
N 	N 	0.22480 0.71600 0.95390 -0.10400
N 	N 	0.21100 0.69700 0.00940 -0.09700
N 	N 	0.07610 0.65250 0.95550 -0.21700
N 	N 	0.27500 0.91380 0.32660 -0.21900
N 	N 	0.23260 0.92100 0.41710 -0.10400
N 	N 	0.32340 0.93300 0.41780 -0.09700
Ag	Ag	0.03760 0.96680 0.00860 0.50200
Ag	Ag	0.73970 0.11270 0.76498 0.50100
Ag	Ag	0.07044 0.40934 0.07171 0.51000
Ag	Ag	0.48274 0.62186 0.00230 0.48100
C 	C 	0.10100 0.50400 0.38300 0.04500
H 	H 	0.04970 0.50340 0.35680 -0.01100
C 	C 	0.18200 0.47100 0.45230 0.11700
H 	H 	0.20150 0.45650 0.48950 -0.03300
C 	C 	0.23100 0.55200 0.31360 -0.09600
H 	H 	0.29960 0.55900 0.31390 0.05500
H 	H 	0.21990 0.61360 0.30970 0.04400
C 	C 	0.18500 0.49400 0.26310 -0.02500
H 	H 	0.12160 0.50310 0.25800 0.02200
H 	H 	0.17840 0.43030 0.27460 0.03100
C 	C 	0.22090 0.50040 0.21010 -0.16800
H 	H 	0.28900 0.50760 0.21570 0.07200
H 	H 	0.19520 0.44120 0.19020 0.06000
C 	C 	0.20580 0.57490 0.16880 -0.00500
H 	H 	0.23130 0.63540 0.18710 0.01100
H 	H 	0.13810 0.56750 0.16030 0.00300
C 	C 	0.28190 0.50660 0.03590 0.07600
H 	H 	0.27880 0.46770 0.00360 -0.04100
C 	C 	0.33560 0.61330 0.09920 0.10400
H 	H 	0.37540 0.66380 0.11910 -0.03300
C 	C 	0.63700 0.78000 0.95340 0.09100
H 	H 	0.65570 0.80250 0.99100 -0.03100
C 	C 	0.57180 0.69320 0.88690 0.09100
H 	H 	0.53350 0.64290 0.86590 -0.03000
C 	C 	0.63280 0.79170 0.80130 -0.05200
H 	H 	0.60290 0.73750 0.77730 0.03700
H 	H 	0.60030 0.83980 0.79200 0.03200
C 	C 	0.73750 0.82480 0.78720 -0.08000
H 	H 	0.76990 0.87200 0.81560 0.05600
H 	H 	0.74160 0.85240 0.74910 0.03400
C 	C 	0.78560 0.74710 0.78780 -0.12000
H 	H 	0.77270 0.71490 0.75040 0.05500
H 	H 	0.75830 0.70370 0.81720 0.07200
C 	C 	0.89050 0.77630 0.79990 -0.02100
H 	H 	0.91730 0.82660 0.77450 0.02800
H 	H 	0.91800 0.72490 0.79110 0.02300
C 	C 	0.91940 0.79900 0.95030 0.08100
H 	H 	0.91480 0.77670 0.98800 -0.04200
C 	C 	0.95100 0.88600 0.88180 0.10100
H 	H 	0.97390 0.93800 0.85960 -0.03100
C 	C 	0.85520 0.13000 0.88280 0.04800
H 	H 	0.91100 0.16110 0.86620 -0.02200
C 	C 	0.70700 0.06600 0.89330 0.10600
H 	H 	0.64100 0.04530 0.88790 -0.02500
C 	C 	0.71300 0.01800 0.99670 -0.06200
H 	H 	0.74970 0.97620 0.01130 0.02200
H 	H 	0.64900 0.98150 0.98650 0.04200
C 	C 	0.70800 0.07800 0.04080 -0.07500
H 	H 	0.68850 0.04230 0.07510 0.03400
H 	H 	0.77080 0.11720 0.04960 0.05600
C 	C 	0.63930 0.14100 0.02970 -0.10700
H 	H 	0.63280 0.15140 0.98830 0.05800
H 	H 	0.57700 0.11100 0.04300 0.04800
C 	C 	0.68020 0.23460 0.06350 -0.02700
H 	H 	0.68360 0.22280 0.10480 0.02900
H 	H 	0.63670 0.27400 0.05690 0.01100
C 	C 	0.85450 0.31100 0.07850 0.08100
H 	H 	0.86070 0.30440 0.11860 -0.01600
C 	C 	0.87890 0.34700 0.99160 0.07900
H 	H 	0.90870 0.37550 0.95930 -0.02700
C 	C 	0.64670 0.07080 0.63850 0.06600
H 	H 	0.58450 0.06400 0.64940 -0.01500
C 	C 	0.79400 0.09900 0.64180 0.09800
H 	H 	0.85680 0.11970 0.65590 -0.02900
C 	C 	0.62200 0.04900 0.52820 -0.06500
H 	H 	0.65090 0.01070 0.50410 0.05200
H 	H 	0.62830 0.10770 0.50880 0.04800
C 	C 	0.52370 0.00600 0.52950 -0.05800
H 	H 	0.51590 0.94570 0.54700 0.03900
H 	H 	0.49350 0.04300 0.55350 0.04000
N 	N 	0.10530 0.49590 0.44360 -0.22200
N 	N 	0.19400 0.51200 0.37250 -0.08100
N 	N 	0.23400 0.46800 0.40850 -0.11000
N 	N 	0.35480 0.57720 0.05120 -0.21600
N 	N 	0.21060 0.49930 0.07550 -0.16400
N 	N 	0.25230 0.56870 0.11550 -0.11300
N 	N 	0.58280 0.69930 0.94270 -0.22300
N 	N 	0.66530 0.82940 0.90440 -0.10000
N 	N 	0.62260 0.76830 0.86370 -0.09800
N 	N 	0.91540 0.80570 0.85890 -0.10900
N 	N 	0.89600 0.74490 0.90490 -0.14300
N 	N 	0.95180 0.89100 0.93910 -0.24100
N 	N 	0.84660 0.10100 0.93930 -0.14000
N 	N 	0.75600 0.05970 0.94180 -0.10000
N 	N 	0.76280 0.10320 0.85430 -0.21400
N 	N 	0.77520 0.28400 0.04610 -0.09800
N 	N 	0.78900 0.30300 0.99060 -0.09900
N 	N 	0.92390 0.34750 0.04450 -0.20400
N 	N 	0.72500 0.08620 0.67340 -0.21800
N 	N 	0.76740 0.07900 0.58290 -0.10200
N 	N 	0.67660 0.06700 0.58220 -0.08700
Ag	Ag	0.96240 0.03320 0.99140 0.51400
Ag	Ag	-0.00000 0.00000 -0.00000 -0.15700
Ag	Ag	-0.00000 0.50000 0.50000 0.49700
