data_crystal

_cell_length_a 7.26420
_cell_length_b 7.26420
_cell_length_c 8.21230
_cell_angle_alpha 90.00000
_cell_angle_beta  90.00000
_cell_angle_gamma 120.00000

_symmetry_space_group_name_	'P 1'
_symmetry_space_group_name_H-M	'P 1'

loop_
_symmetry_equiv_pos_as_xyz
  x,y,z

loop_
_atom_site_label
_atom_site_type_symbol
_atom_site_fract_x
_atom_site_fract_y
_atom_site_fract_z
_atom_site_charge
O 	O 	0.89060 0.31007 0.89400 -0.28800
O 	O 	0.68993 0.58053 0.89400 -0.31600
O 	O 	0.41947 0.10940 0.89400 -0.32400
O 	O 	0.10940 0.68993 0.39400 -0.42300
O 	O 	0.31007 0.41947 0.39400 -0.46200
O 	O 	0.58053 0.89060 0.39400 -0.35900
O 	O 	0.31007 0.89060 0.10600 -0.34300
O 	O 	0.58053 0.68993 0.10600 -0.39800
O 	O 	0.10940 0.41947 0.10600 -0.41600
O 	O 	0.68993 0.10940 0.60600 -0.41400
O 	O 	0.41947 0.31007 0.60600 -0.45400
O 	O 	0.89060 0.58053 0.60600 -0.37200
Mg	Mg	0.66667 0.33333 0.75000 1.47900
Mg	Mg	0.33333 0.66667 0.25000 1.47800
C 	C 	-0.00000 0.44030 -0.00000 0.27900
H 	H 	0.00000 0.56830 -0.00000 -0.08600
C 	C 	0.55970 0.55970 -0.00000 0.36000
H 	H 	0.43170 0.43170 -0.00000 -0.10800
C 	C 	0.44030 0.00000 -0.00000 0.23700
H 	H 	0.56830 0.00000 -0.00000 -0.08100
C 	C 	0.00000 0.55970 0.50000 0.43500
H 	H 	-0.00000 0.43170 0.50000 -0.11700
C 	C 	0.44030 0.44030 0.50000 0.52400
H 	H 	0.56830 0.56830 0.50000 -0.11900
C 	C 	0.55970 -0.00000 0.50000 0.39800
H 	H 	0.43170 -0.00000 0.50000 -0.11000
