data_crystal

_cell_length_a 12.57200
_cell_length_b 12.57200
_cell_length_c 8.21840
_cell_angle_alpha 90.00000
_cell_angle_beta  90.00000
_cell_angle_gamma 120.00000

_symmetry_space_group_name_	'P 1'
_symmetry_space_group_name_H-M	'P 1'

loop_
_symmetry_equiv_pos_as_xyz
  x,y,z

loop_
_atom_site_label
_atom_site_type_symbol
_atom_site_fract_x
_atom_site_fract_y
_atom_site_fract_z
_atom_site_charge
Mg	Mg	0.33402 0.33274 0.58666 1.48000
O 	O 	0.42331 0.26519 0.44191 -0.46700
O 	O 	0.42395 0.15618 0.22978 -0.55600
O 	O 	0.40022 0.48946 0.44121 -0.46600
O 	O 	0.50832 0.59961 0.22919 -0.55800
O 	O 	0.17599 0.24136 0.44338 -0.46200
O 	O 	0.06814 0.24438 0.23118 -0.55200
C 	C 	0.37318 0.18678 0.33470 0.54300
H 	H 	0.28780 0.14600 0.33210 -0.16600
C 	C 	0.47762 0.51740 0.33210 0.54500
H 	H 	0.51710 0.47160 0.32680 -0.16700
C 	C 	0.14461 0.29339 0.34190 0.53700
H 	H 	0.18250 0.37840 0.34960 -0.15700
Mg	Mg	0.66726 0.00128 0.58666 1.47800
O 	O 	0.73481 0.15812 0.44191 -0.47000
O 	O 	0.84382 0.26777 0.22978 -0.55600
O 	O 	0.51054 0.91076 0.44121 -0.46900
O 	O 	0.40039 0.90871 0.22919 -0.56200
O 	O 	0.75864 0.93463 0.44338 -0.45800
O 	O 	0.75562 0.82376 0.23118 -0.55500
C 	C 	0.81322 0.18640 0.33470 0.54400
H 	H 	0.85400 0.14180 0.33210 -0.16800
C 	C 	0.48260 0.96022 0.33210 0.56600
H 	H 	0.52840 0.04550 0.32680 -0.17900
C 	C 	0.70661 0.85122 0.34190 0.53700
H 	H 	0.62160 0.80410 0.34960 -0.15700
Mg	Mg	0.99872 0.66598 0.58666 1.47800
O 	O 	0.84188 0.57669 0.44191 -0.47000
O 	O 	0.73223 0.57605 0.22978 -0.55600
O 	O 	0.08924 0.59978 0.44121 -0.46900
O 	O 	0.09129 0.49168 0.22919 -0.56200
O 	O 	0.06537 0.82401 0.44338 -0.45400
O 	O 	0.17624 0.93186 0.23118 -0.54900
C 	C 	0.81360 0.62682 0.33470 0.54400
H 	H 	0.85820 0.71220 0.33210 -0.16600
C 	C 	0.03978 0.52238 0.33210 0.56600
H 	H 	0.95450 0.48290 0.32680 -0.17900
C 	C 	0.14878 0.85539 0.34190 0.53500
H 	H 	0.19590 0.81750 0.34960 -0.15600
Mg	Mg	0.66598 0.66726 0.08666 1.45100
O 	O 	0.57669 0.73481 0.94191 -0.31500
O 	O 	0.57605 0.84382 0.72978 -0.41000
O 	O 	0.59978 0.51054 0.94121 -0.31600
O 	O 	0.49168 0.40039 0.72919 -0.41600
O 	O 	0.82401 0.75864 0.94338 -0.31400
O 	O 	0.93186 0.75562 0.73118 -0.42000
C 	C 	0.62682 0.81322 0.83470 0.48000
H 	H 	0.71220 0.85400 0.83210 -0.08300
C 	C 	0.52238 0.48260 0.83210 0.48200
H 	H 	0.48290 0.52840 0.82680 -0.08700
C 	C 	0.85539 0.70661 0.84190 0.47700
H 	H 	0.81750 0.62160 0.84960 -0.07900
Mg	Mg	0.33274 0.99872 0.08666 1.45200
O 	O 	0.26519 0.84188 0.94191 -0.31100
O 	O 	0.15618 0.73223 0.72978 -0.40900
O 	O 	0.48946 0.08924 0.94121 -0.31300
O 	O 	0.59961 0.09129 0.72919 -0.41100
O 	O 	0.24136 0.06537 0.94338 -0.31900
O 	O 	0.24438 0.17624 0.73118 -0.41600
C 	C 	0.18678 0.81360 0.83470 0.47900
H 	H 	0.14600 0.85820 0.83210 -0.07800
C 	C 	0.51740 0.03978 0.83210 0.44800
H 	H 	0.47160 0.95450 0.82680 -0.06600
C 	C 	0.29339 0.14878 0.84190 0.47800
H 	H 	0.37840 0.19590 0.84960 -0.07900
Mg	Mg	0.00128 0.33402 0.08666 1.45300
O 	O 	0.15812 0.42331 0.94191 -0.31300
O 	O 	0.26777 0.42395 0.72978 -0.41300
O 	O 	0.91076 0.40022 0.94121 -0.31400
O 	O 	0.90871 0.50832 0.72919 -0.41100
O 	O 	0.93463 0.17599 0.94338 -0.32700
O 	O 	0.82376 0.06814 0.73118 -0.42500
C 	C 	0.18640 0.37318 0.83470 0.48000
H 	H 	0.14180 0.28780 0.83210 -0.08200
C 	C 	0.96022 0.47762 0.83210 0.44900
H 	H 	0.04550 0.51710 0.82680 -0.06700
C 	C 	0.85122 0.14461 0.84190 0.48000
H 	H 	0.80410 0.18250 0.84960 -0.08200
