data_crystal

_cell_length_a 7.28400
_cell_length_b 7.28400
_cell_length_c 8.20880
_cell_angle_alpha 90.00000
_cell_angle_beta  90.00000
_cell_angle_gamma 120.00000

_symmetry_space_group_name_	'P 1'
_symmetry_space_group_name_H-M	'P 1'

loop_
_symmetry_equiv_pos_as_xyz
  x,y,z

loop_
_atom_site_label
_atom_site_type_symbol
_atom_site_fract_x
_atom_site_fract_y
_atom_site_fract_z
_atom_site_charge
O 	O 	0.10958 0.68967 0.10596 -0.39500
O 	O 	0.31033 0.41991 0.10596 -0.43300
O 	O 	0.58009 0.89042 0.10596 -0.33000
O 	O 	0.89042 0.31033 0.60596 -0.39300
O 	O 	0.68967 0.58009 0.60596 -0.42200
O 	O 	0.41991 0.10958 0.60596 -0.43100
O 	O 	0.68967 0.10958 0.89404 -0.31000
O 	O 	0.41991 0.31033 0.89404 -0.35100
O 	O 	0.89042 0.58009 0.89404 -0.27100
O 	O 	0.31033 0.89042 0.39404 -0.37400
O 	O 	0.58009 0.68967 0.39404 -0.42900
O 	O 	0.10958 0.41991 0.39404 -0.44600
Mg	Mg	0.33333 0.66667 0.25000 1.47800
Mg	Mg	0.66667 0.33333 0.75000 1.47900
C 	C 	-0.00000 0.56060 -0.00000 0.28200
H 	H 	-0.00000 0.43290 -0.00000 -0.09600
C 	C 	0.43940 0.43940 -0.00000 0.36600
H 	H 	0.56710 0.56710 -0.00000 -0.09700
C 	C 	0.56060 0.00000 -0.00000 0.23800
H 	H 	0.43290 0.00000 -0.00000 -0.08800
C 	C 	-0.00000 0.43940 0.50000 0.44200
H 	H 	0.00000 0.56710 0.50000 -0.11100
C 	C 	0.56060 0.56060 0.50000 0.52800
H 	H 	0.43290 0.43290 0.50000 -0.13400
C 	C 	0.43940 0.00000 0.50000 0.40500
H 	H 	0.56710 0.00000 0.50000 -0.10700
