data_crystal

_cell_length_a 7.26050
_cell_length_b 7.26050
_cell_length_c 8.21560
_cell_angle_alpha 90.00000
_cell_angle_beta  90.00000
_cell_angle_gamma 120.00000

_symmetry_space_group_name_	'P 1'
_symmetry_space_group_name_H-M	'P 1'

loop_
_symmetry_equiv_pos_as_xyz
  x,y,z

loop_
_atom_site_label
_atom_site_type_symbol
_atom_site_fract_x
_atom_site_fract_y
_atom_site_fract_z
_atom_site_charge
O 	O 	0.89073 0.31009 0.89398 -0.29000
O 	O 	0.68991 0.58064 0.89398 -0.31600
O 	O 	0.41936 0.10927 0.89398 -0.32400
O 	O 	0.10927 0.68991 0.39398 -0.42300
O 	O 	0.31009 0.41936 0.39398 -0.46200
O 	O 	0.58064 0.89073 0.39398 -0.35900
O 	O 	0.31009 0.89073 0.10602 -0.34300
O 	O 	0.58064 0.68991 0.10602 -0.39800
O 	O 	0.10927 0.41936 0.10602 -0.41600
O 	O 	0.68991 0.10927 0.60602 -0.41400
O 	O 	0.41936 0.31009 0.60602 -0.45500
O 	O 	0.89073 0.58064 0.60602 -0.37200
Mg	Mg	0.66667 0.33333 0.75000 1.47900
Mg	Mg	0.33333 0.66667 0.25000 1.47800
C 	C 	-0.00000 0.44020 -0.00000 0.28000
H 	H 	-0.00000 0.56830 -0.00000 -0.08600
C 	C 	0.55980 0.55980 -0.00000 0.36100
H 	H 	0.43170 0.43170 -0.00000 -0.10800
C 	C 	0.44020 0.00000 -0.00000 0.23700
H 	H 	0.56830 0.00000 -0.00000 -0.08100
C 	C 	0.00000 0.55980 0.50000 0.43500
H 	H 	0.00000 0.43170 0.50000 -0.11700
C 	C 	0.44020 0.44020 0.50000 0.52500
H 	H 	0.56830 0.56830 0.50000 -0.11900
C 	C 	0.55980 0.00000 0.50000 0.39900
H 	H 	0.43170 0.00000 0.50000 -0.11100
