data_crystal

_cell_length_a 15.86420
_cell_length_b 15.86420
_cell_length_c 42.97580
_cell_angle_alpha 90.00000
_cell_angle_beta  90.00000
_cell_angle_gamma 90.00000

_symmetry_space_group_name_	'P 1'
_symmetry_space_group_name_H-M	'P 1'

loop_
_symmetry_equiv_pos_as_xyz
  x,y,z

loop_
_atom_site_label
_atom_site_type_symbol
_atom_site_fract_x
_atom_site_fract_y
_atom_site_fract_z
_atom_site_charge
Cd	Cd	0.08234 0.78153 0.78138 1.22300
O 	O 	0.23170 0.39210 0.69186 -0.17500
O 	O 	0.22890 0.37200 0.62515 -0.35600
H 	H 	0.25770 0.37550 0.64150 0.23200
O 	O 	0.06840 0.28290 0.62139 -0.18100
O 	O 	0.06930 0.33140 0.68311 -0.35500
H 	H 	0.05340 0.30200 0.66800 0.23500
O 	O 	0.11830 0.75850 0.73113 -0.46300
O 	O 	0.22910 0.78680 0.70201 -0.42500
O 	O 	0.76890 0.52090 0.57791 -0.37000
O 	O 	0.85740 0.53210 0.53840 -0.37500
N 	N 	0.05860 0.92150 0.79290 -0.03200
N 	N 	0.95210 0.80060 0.76140 0.16300
C 	C 	0.27180 0.51600 0.62355 0.01600
C 	C 	0.31820 0.51030 0.65260 -0.16000
H 	H 	0.36810 0.54770 0.65190 0.07100
H 	H 	0.33790 0.45180 0.65590 0.07000
C 	C 	0.26020 0.53690 0.67933 0.02400
C 	C 	0.24920 0.61990 0.68559 -0.04200
H 	H 	0.28220 0.66070 0.67490 0.05900
C 	C 	0.19010 0.64600 0.70748 -0.07200
C 	C 	0.14200 0.58570 0.72279 -0.05200
H 	H 	0.09930 0.60300 0.73690 0.05800
C 	C 	0.15540 0.50200 0.71772 0.03900
C 	C 	0.09950 0.43750 0.73458 -0.16400
H 	H 	0.12820 0.38210 0.73460 0.09800
H 	H 	0.09220 0.45530 0.75650 0.07700
C 	C 	0.01250 0.42760 0.71960 0.03000
C 	C 	0.94440 0.47330 0.73062 -0.10000
H 	H 	0.95120 0.51080 0.74770 0.06400
C 	C 	0.86670 0.46390 0.71670 0.01200
H 	H 	0.81990 0.49510 0.72430 0.01500
C 	C 	0.85620 0.41120 0.69245 -0.09200
H 	H 	0.80160 0.40400 0.68370 0.05700
C 	C 	0.92390 0.36700 0.67992 0.01700
C 	C 	0.91050 0.30940 0.65299 -0.16800
H 	H 	0.85050 0.29260 0.65190 0.07900
H 	H 	0.94490 0.25790 0.65560 0.07200
C 	C 	0.93600 0.35490 0.62252 0.03400
C 	C 	0.88180 0.40960 0.60862 -0.06800
H 	H 	0.82770 0.41810 0.61750 0.06600
C 	C 	0.90310 0.45370 0.58166 -0.03700
C 	C 	0.98300 0.44480 0.57034 -0.06700
H 	H 	0.00090 0.47840 0.55330 0.06000
C 	C 	0.03920 0.38660 0.58356 0.03200
C 	C 	0.13080 0.38660 0.57113 -0.17000
H 	H 	0.15810 0.33260 0.57680 0.09900
H 	H 	0.12950 0.39020 0.54810 0.07300
C 	C 	0.18090 0.45530 0.58314 0.03800
C 	C 	0.18150 0.53600 0.56910 -0.09600
H 	H 	0.15290 0.54290 0.54990 0.05900
C 	C 	0.22140 0.60520 0.58180 0.00800
H 	H 	0.21690 0.65910 0.57230 0.02400
C 	C 	0.26760 0.59410 0.60850 -0.08600
H 	H 	0.29760 0.64060 0.61700 0.06000
C 	C 	0.22640 0.44840 0.61096 0.11600
C 	C 	0.01540 0.34370 0.60845 0.05900
C 	C 	0.00290 0.37590 0.69441 0.11600
C 	C 	0.21630 0.47820 0.69679 0.06300
C 	C 	0.17670 0.73710 0.71425 0.38100
C 	C 	0.84020 0.50670 0.56547 0.27500
C 	C 	0.06570 0.20370 0.60540 -0.05700
H 	H 	0.06930 0.21170 0.58260 0.04000
H 	H 	0.01320 0.17270 0.61040 0.03800
C 	C 	0.14780 0.15390 0.61850 0.14000
H 	H 	0.16190 0.10410 0.60560 -0.02100
H 	H 	0.19760 0.19120 0.62020 -0.00100
C 	C 	0.11550 0.13040 0.64850 -0.53700
H 	H 	0.14910 0.15740 0.66480 0.19300
H 	H 	0.11860 0.06900 0.65090 0.18600
H 	H 	0.05670 0.14870 0.65030 0.18600
C 	C 	0.30140 0.36220 0.71002 -0.03800
H 	H 	0.28600 0.36090 0.73230 0.04100
H 	H 	0.35040 0.40020 0.70750 0.03800
C 	C 	0.32330 0.27580 0.69913 0.03500
H 	H 	0.33850 0.27740 0.67680 0.01900
H 	H 	0.27400 0.23810 0.70160 0.02600
C 	C 	0.39700 0.24220 0.71800 -0.41600
H 	H 	0.44890 0.27090 0.71160 0.13900
H 	H 	0.40290 0.18150 0.71440 0.14600
H 	H 	0.38690 0.25250 0.74020 0.13900
C 	C 	0.08860 0.97710 0.80650 -0.39500
H 	H 	0.14330 0.96480 0.81420 0.40600
C 	C 	0.06080 0.06020 0.81400 -0.07200
H 	H 	0.09460 0.10010 0.82470 0.01000
C 	C 	0.97810 0.07700 0.80380 0.02800
H 	H 	0.95430 0.13080 0.80790 0.00700
C 	C 	0.93330 0.02110 0.78890 0.03500
C 	C 	0.96350 0.93930 0.78280 0.15700
C 	C 	0.91550 0.87890 0.76580 -0.23200
C 	C 	0.90520 0.74130 0.74570 0.18400
H 	H 	0.92770 0.68630 0.74310 0.02500
C 	C 	0.82790 0.75870 0.73380 -0.00400
H 	H 	0.79920 0.71890 0.72120 -0.00400
C 	C 	0.79140 0.83730 0.74070 0.05400
H 	H 	0.73460 0.84760 0.73470 -0.00700
C 	C 	0.83440 0.89840 0.75560 -0.16900
C 	C 	0.80120 0.98030 0.76250 0.19900
H 	H 	0.74550 0.99360 0.75600 -0.05700
C 	C 	0.84760 0.04060 0.77820 -0.19600
H 	H 	0.82400 0.09460 0.78210 0.07500
N 	N 	0.94730 0.82460 0.76120 -0.33300
N 	N 	0.04210 0.92230 0.79080 -0.05000
C 	C 	0.11270 0.97100 0.80840 0.13000
H 	H 	0.16560 0.94550 0.81270 -0.33300
C 	C 	0.09620 0.04940 0.81710 0.16100
H 	H 	0.13790 0.08250 0.82720 -0.03200
C 	C 	0.01440 0.08310 0.81100 -0.03300
H 	H 	0.00040 0.13740 0.81880 0.03600
C 	C 	0.95680 0.04010 0.79460 -0.03600
C 	C 	0.87430 0.06580 0.78700 0.18100
H 	H 	0.85620 0.12070 0.79290 -0.06200
C 	C 	0.81960 0.01460 0.77150 -0.17300
H 	H 	0.76460 0.03480 0.76690 0.07100
C 	C 	0.84230 0.93180 0.76220 0.03900
C 	C 	0.79390 0.87780 0.74630 0.09900
H 	H 	0.73890 0.89640 0.74080 -0.01200
C 	C 	0.81660 0.79710 0.73710 -0.12600
H 	H 	0.77880 0.76030 0.72660 0.06400
C 	C 	0.90010 0.77390 0.74460 -0.07900
H 	H 	0.92220 0.72160 0.73760 -0.09400
C 	C 	0.92690 0.90420 0.77100 0.33900
C 	C 	0.98120 0.95530 0.78590 -0.26200
Cd	Cd	0.91766 0.21847 0.28138 1.22200
O 	O 	0.76830 0.60790 0.19186 -0.17600
O 	O 	0.77110 0.62800 0.12515 -0.35700
H 	H 	0.74230 0.62450 0.14150 0.23100
O 	O 	0.93160 0.71710 0.12139 -0.18100
O 	O 	0.93070 0.66860 0.18311 -0.35500
H 	H 	0.94660 0.69800 0.16800 0.23500
O 	O 	0.88170 0.24150 0.23113 -0.46300
O 	O 	0.77090 0.21320 0.20201 -0.42500
O 	O 	0.23110 0.47910 0.07791 -0.37000
O 	O 	0.14260 0.46790 0.03840 -0.37500
N 	N 	0.94140 0.07850 0.29290 -0.03200
N 	N 	0.04790 0.19940 0.26140 0.16300
C 	C 	0.72820 0.48400 0.12355 0.01600
C 	C 	0.68180 0.48970 0.15260 -0.16000
H 	H 	0.63190 0.45230 0.15190 0.07100
H 	H 	0.66210 0.54820 0.15590 0.07000
C 	C 	0.73980 0.46310 0.17933 0.02400
C 	C 	0.75080 0.38010 0.18559 -0.04200
H 	H 	0.71780 0.33930 0.17490 0.05900
C 	C 	0.80990 0.35400 0.20748 -0.07200
C 	C 	0.85800 0.41430 0.22279 -0.05200
H 	H 	0.90070 0.39700 0.23690 0.05800
C 	C 	0.84460 0.49800 0.21772 0.03900
C 	C 	0.90050 0.56250 0.23458 -0.16400
H 	H 	0.87180 0.61790 0.23460 0.09800
H 	H 	0.90780 0.54470 0.25650 0.07700
C 	C 	0.98750 0.57240 0.21960 0.03000
C 	C 	0.05560 0.52670 0.23062 -0.10000
H 	H 	0.04880 0.48920 0.24770 0.06400
C 	C 	0.13330 0.53610 0.21670 0.01200
H 	H 	0.18010 0.50490 0.22430 0.01500
C 	C 	0.14380 0.58880 0.19245 -0.09200
H 	H 	0.19840 0.59600 0.18370 0.05700
C 	C 	0.07610 0.63300 0.17992 0.01700
C 	C 	0.08950 0.69060 0.15299 -0.16800
H 	H 	0.14950 0.70740 0.15190 0.07900
H 	H 	0.05510 0.74210 0.15560 0.07200
C 	C 	0.06400 0.64510 0.12252 0.03400
C 	C 	0.11820 0.59040 0.10862 -0.06800
H 	H 	0.17230 0.58190 0.11750 0.06600
C 	C 	0.09690 0.54630 0.08166 -0.03700
C 	C 	0.01700 0.55520 0.07034 -0.06700
H 	H 	0.99910 0.52160 0.05330 0.06000
C 	C 	0.96080 0.61340 0.08356 0.03200
C 	C 	0.86920 0.61340 0.07113 -0.17000
H 	H 	0.84190 0.66740 0.07680 0.09900
H 	H 	0.87050 0.60980 0.04810 0.07300
C 	C 	0.81910 0.54470 0.08314 0.03800
C 	C 	0.81850 0.46400 0.06910 -0.09600
H 	H 	0.84710 0.45710 0.04990 0.05900
C 	C 	0.77860 0.39480 0.08180 0.00800
H 	H 	0.78310 0.34090 0.07230 0.02400
C 	C 	0.73240 0.40590 0.10850 -0.08600
H 	H 	0.70240 0.35940 0.11700 0.06000
C 	C 	0.77360 0.55160 0.11096 0.11600
C 	C 	0.98460 0.65630 0.10845 0.05900
C 	C 	0.99710 0.62410 0.19441 0.11600
C 	C 	0.78370 0.52180 0.19679 0.06300
C 	C 	0.82330 0.26290 0.21425 0.38100
C 	C 	0.15980 0.49330 0.06547 0.27500
C 	C 	0.93430 0.79630 0.10540 -0.05700
H 	H 	0.93070 0.78830 0.08260 0.04000
H 	H 	0.98680 0.82730 0.11040 0.03800
C 	C 	0.85220 0.84610 0.11850 0.14000
H 	H 	0.83810 0.89590 0.10560 -0.02100
H 	H 	0.80240 0.80880 0.12020 -0.00100
C 	C 	0.88450 0.86960 0.14850 -0.53600
H 	H 	0.85090 0.84260 0.16480 0.19300
H 	H 	0.88140 0.93100 0.15090 0.18600
H 	H 	0.94330 0.85130 0.15030 0.18600
C 	C 	0.69860 0.63780 0.21002 -0.03800
H 	H 	0.71400 0.63910 0.23230 0.04100
H 	H 	0.64960 0.59980 0.20750 0.03800
C 	C 	0.67670 0.72420 0.19913 0.03500
H 	H 	0.66150 0.72260 0.17680 0.01900
H 	H 	0.72600 0.76190 0.20160 0.02600
C 	C 	0.60300 0.75780 0.21800 -0.41600
H 	H 	0.55110 0.72910 0.21160 0.13900
H 	H 	0.59710 0.81850 0.21440 0.14600
H 	H 	0.61310 0.74750 0.24020 0.13900
C 	C 	0.91140 0.02290 0.30650 -0.39500
H 	H 	0.85670 0.03520 0.31420 0.40600
C 	C 	0.93920 0.93980 0.31400 -0.07200
H 	H 	0.90540 0.89990 0.32470 0.01000
C 	C 	0.02190 0.92300 0.30380 0.02800
H 	H 	0.04570 0.86920 0.30790 0.00700
C 	C 	0.06670 0.97890 0.28890 0.03500
C 	C 	0.03650 0.06070 0.28280 0.15700
C 	C 	0.08450 0.12110 0.26580 -0.23200
C 	C 	0.09480 0.25870 0.24570 0.18400
H 	H 	0.07230 0.31370 0.24310 0.02500
C 	C 	0.17210 0.24130 0.23380 -0.00400
H 	H 	0.20080 0.28110 0.22120 -0.00400
C 	C 	0.20860 0.16270 0.24070 0.05400
H 	H 	0.26540 0.15240 0.23470 -0.00700
C 	C 	0.16560 0.10160 0.25560 -0.16900
C 	C 	0.19880 0.01970 0.26250 0.19900
H 	H 	0.25450 0.00640 0.25600 -0.05700
C 	C 	0.15240 0.95940 0.27820 -0.19600
H 	H 	0.17600 0.90540 0.28210 0.07500
N 	N 	0.05270 0.17540 0.26120 -0.33300
N 	N 	0.95790 0.07770 0.29080 -0.05000
C 	C 	0.88730 0.02900 0.30840 0.13000
H 	H 	0.83440 0.05450 0.31270 -0.33300
C 	C 	0.90380 0.95060 0.31710 0.16100
H 	H 	0.86210 0.91750 0.32720 -0.03200
C 	C 	0.98560 0.91690 0.31100 -0.03300
H 	H 	0.99960 0.86260 0.31880 0.03600
C 	C 	0.04320 0.95990 0.29460 -0.03600
C 	C 	0.12570 0.93420 0.28700 0.18100
H 	H 	0.14380 0.87930 0.29290 -0.06200
C 	C 	0.18040 0.98540 0.27150 -0.17300
H 	H 	0.23540 0.96520 0.26690 0.07100
C 	C 	0.15770 0.06820 0.26220 0.03900
C 	C 	0.20610 0.12220 0.24630 0.09900
H 	H 	0.26110 0.10360 0.24080 -0.01200
C 	C 	0.18340 0.20290 0.23710 -0.12600
H 	H 	0.22120 0.23970 0.22660 0.06400
C 	C 	0.09990 0.22610 0.24460 -0.07900
H 	H 	0.07780 0.27840 0.23760 -0.09400
C 	C 	0.07310 0.09580 0.27100 0.33900
C 	C 	0.01880 0.04470 0.28590 -0.26200
Cd	Cd	0.71847 0.58234 0.53138 1.22200
O 	O 	0.10790 0.73170 0.44186 -0.17600
O 	O 	0.12800 0.72890 0.37515 -0.35700
H 	H 	0.12450 0.75770 0.39150 0.23100
O 	O 	0.21710 0.56840 0.37139 -0.18100
O 	O 	0.16860 0.56930 0.43311 -0.35500
H 	H 	0.19800 0.55340 0.41800 0.23500
O 	O 	0.74150 0.61830 0.48113 -0.46200
O 	O 	0.71320 0.72910 0.45201 -0.42500
O 	O 	0.97910 0.26890 0.32791 -0.37000
O 	O 	0.96790 0.35740 0.28840 -0.37500
N 	N 	0.57850 0.55860 0.54290 -0.03200
N 	N 	0.69940 0.45210 0.51140 0.16300
C 	C 	0.98400 0.77180 0.37355 0.01600
C 	C 	0.98970 0.81820 0.40260 -0.16000
H 	H 	0.95230 0.86810 0.40190 0.07100
H 	H 	0.04820 0.83790 0.40590 0.07100
C 	C 	0.96310 0.76020 0.42933 0.02500
C 	C 	0.88010 0.74920 0.43559 -0.04200
H 	H 	0.83930 0.78220 0.42490 0.05900
C 	C 	0.85400 0.69010 0.45748 -0.07200
C 	C 	0.91430 0.64200 0.47279 -0.05200
H 	H 	0.89700 0.59930 0.48690 0.05800
C 	C 	0.99800 0.65540 0.46772 0.04000
C 	C 	0.06250 0.59950 0.48458 -0.16500
H 	H 	0.11790 0.62820 0.48460 0.09800
H 	H 	0.04470 0.59220 0.50650 0.07700
C 	C 	0.07240 0.51250 0.46960 0.03100
C 	C 	0.02670 0.44440 0.48062 -0.10200
H 	H 	0.98920 0.45120 0.49770 0.06400
C 	C 	0.03610 0.36670 0.46670 0.01300
H 	H 	0.00490 0.31990 0.47430 0.01400
C 	C 	0.08880 0.35620 0.44245 -0.09300
H 	H 	0.09600 0.30160 0.43370 0.05700
C 	C 	0.13300 0.42390 0.42992 0.01600
C 	C 	0.19060 0.41050 0.40299 -0.16800
H 	H 	0.20740 0.35050 0.40190 0.07900
H 	H 	0.24210 0.44490 0.40560 0.07200
C 	C 	0.14510 0.43600 0.37252 0.03400
C 	C 	0.09040 0.38180 0.35862 -0.06800
H 	H 	0.08190 0.32770 0.36750 0.06600
C 	C 	0.04630 0.40310 0.33166 -0.03600
C 	C 	0.05520 0.48300 0.32034 -0.06900
H 	H 	0.02160 0.50090 0.30330 0.06100
C 	C 	0.11340 0.53920 0.33356 0.03300
C 	C 	0.11340 0.63080 0.32113 -0.17100
H 	H 	0.16740 0.65810 0.32680 0.09900
H 	H 	0.10980 0.62950 0.29810 0.07300
C 	C 	0.04470 0.68090 0.33314 0.03800
C 	C 	0.96400 0.68150 0.31910 -0.09600
H 	H 	0.95710 0.65290 0.29990 0.05900
C 	C 	0.89480 0.72140 0.33180 0.00800
H 	H 	0.84090 0.71690 0.32230 0.02400
C 	C 	0.90590 0.76760 0.35850 -0.08600
H 	H 	0.85940 0.79760 0.36700 0.06000
C 	C 	0.05160 0.72640 0.36096 0.11500
C 	C 	0.15630 0.51540 0.35845 0.05900
C 	C 	0.12410 0.50290 0.44441 0.11600
C 	C 	0.02180 0.71630 0.44679 0.06300
C 	C 	0.76290 0.67670 0.46425 0.38100
C 	C 	0.99330 0.34020 0.31547 0.27500
C 	C 	0.29630 0.56570 0.35540 -0.05800
H 	H 	0.28830 0.56930 0.33260 0.04100
H 	H 	0.32730 0.51320 0.36040 0.03800
C 	C 	0.34610 0.64780 0.36850 0.14000
H 	H 	0.39590 0.66190 0.35560 -0.02100
H 	H 	0.30880 0.69760 0.37020 -0.00100
C 	C 	0.36960 0.61550 0.39850 -0.53700
H 	H 	0.34260 0.64910 0.41480 0.19300
H 	H 	0.43100 0.61860 0.40090 0.18700
H 	H 	0.35130 0.55670 0.40030 0.18600
C 	C 	0.13780 0.80140 0.46002 -0.03800
H 	H 	0.13910 0.78600 0.48230 0.04100
H 	H 	0.09980 0.85040 0.45750 0.03800
C 	C 	0.22420 0.82330 0.44913 0.03500
H 	H 	0.22260 0.83850 0.42680 0.01900
H 	H 	0.26190 0.77400 0.45160 0.02600
C 	C 	0.25780 0.89700 0.46800 -0.41600
H 	H 	0.22910 0.94890 0.46160 0.14000
H 	H 	0.31850 0.90290 0.46440 0.14600
H 	H 	0.24750 0.88690 0.49020 0.13900
C 	C 	0.52290 0.58860 0.55650 -0.39800
H 	H 	0.53520 0.64330 0.56420 0.41000
C 	C 	0.43980 0.56080 0.56400 -0.07200
H 	H 	0.39990 0.59460 0.57470 0.01000
C 	C 	0.42300 0.47810 0.55380 0.02800
H 	H 	0.36920 0.45430 0.55790 0.00700
C 	C 	0.47890 0.43330 0.53890 0.03500
C 	C 	0.56070 0.46350 0.53280 0.15700
C 	C 	0.62110 0.41550 0.51580 -0.23200
C 	C 	0.75870 0.40520 0.49570 0.18300
H 	H 	0.81370 0.42770 0.49310 0.02500
C 	C 	0.74130 0.32790 0.48380 -0.00300
H 	H 	0.78110 0.29920 0.47120 -0.00400
C 	C 	0.66270 0.29140 0.49070 0.05400
H 	H 	0.65240 0.23460 0.48470 -0.00700
C 	C 	0.60160 0.33440 0.50560 -0.16800
C 	C 	0.51970 0.30120 0.51250 0.19800
H 	H 	0.50640 0.24550 0.50600 -0.05700
C 	C 	0.45940 0.34760 0.52820 -0.19600
H 	H 	0.40540 0.32400 0.53210 0.07500
N 	N 	0.67540 0.44730 0.51120 -0.33300
N 	N 	0.57770 0.54210 0.54080 -0.04900
C 	C 	0.52900 0.61270 0.55840 0.13100
H 	H 	0.55450 0.66560 0.56270 -0.33700
C 	C 	0.45060 0.59620 0.56710 0.16300
H 	H 	0.41750 0.63790 0.57720 -0.03300
C 	C 	0.41690 0.51440 0.56100 -0.03400
H 	H 	0.36260 0.50040 0.56880 0.03600
C 	C 	0.45990 0.45680 0.54460 -0.03600
C 	C 	0.43420 0.37430 0.53700 0.18000
H 	H 	0.37930 0.35620 0.54290 -0.06200
C 	C 	0.48540 0.31960 0.52150 -0.17100
H 	H 	0.46520 0.26460 0.51690 0.07100
C 	C 	0.56820 0.34230 0.51220 0.03900
C 	C 	0.62220 0.29390 0.49630 0.09900
H 	H 	0.60360 0.23890 0.49080 -0.01200
C 	C 	0.70290 0.31660 0.48710 -0.12700
H 	H 	0.73970 0.27880 0.47660 0.06400
C 	C 	0.72610 0.40010 0.49460 -0.07900
H 	H 	0.77840 0.42220 0.48760 -0.09400
C 	C 	0.59580 0.42690 0.52100 0.33900
C 	C 	0.54470 0.48120 0.53590 -0.26200
Cd	Cd	0.28153 0.41766 0.03138 1.22200
O 	O 	0.89210 0.26830 0.94186 -0.17600
O 	O 	0.87200 0.27110 0.87515 -0.35700
H 	H 	0.87550 0.24230 0.89150 0.23100
O 	O 	0.78290 0.43160 0.87139 -0.18100
O 	O 	0.83140 0.43070 0.93311 -0.35500
H 	H 	0.80200 0.44660 0.91800 0.23500
O 	O 	0.25850 0.38170 0.98113 -0.46200
O 	O 	0.28680 0.27090 0.95201 -0.42500
O 	O 	0.02090 0.73110 0.82791 -0.37000
O 	O 	0.03210 0.64260 0.78840 -0.37500
N 	N 	0.42150 0.44140 0.04290 -0.03200
N 	N 	0.30060 0.54790 0.01140 0.16300
C 	C 	0.01600 0.22820 0.87355 0.01600
C 	C 	0.01030 0.18180 0.90260 -0.16000
H 	H 	0.04770 0.13190 0.90190 0.07100
H 	H 	0.95180 0.16210 0.90590 0.07100
C 	C 	0.03690 0.23980 0.92933 0.02500
C 	C 	0.11990 0.25080 0.93559 -0.04200
H 	H 	0.16070 0.21780 0.92490 0.05900
C 	C 	0.14600 0.30990 0.95748 -0.07200
C 	C 	0.08570 0.35800 0.97279 -0.05200
H 	H 	0.10300 0.40070 0.98690 0.05800
C 	C 	0.00200 0.34460 0.96772 0.04000
C 	C 	0.93750 0.40050 0.98458 -0.16500
H 	H 	0.88210 0.37180 0.98460 0.09800
H 	H 	0.95530 0.40780 0.00650 0.07700
C 	C 	0.92760 0.48750 0.96960 0.03100
C 	C 	0.97330 0.55560 0.98062 -0.10200
H 	H 	0.01080 0.54880 0.99770 0.06400
C 	C 	0.96390 0.63330 0.96670 0.01200
H 	H 	0.99510 0.68010 0.97430 0.01500
C 	C 	0.91120 0.64380 0.94245 -0.09200
H 	H 	0.90400 0.69840 0.93370 0.05700
C 	C 	0.86700 0.57610 0.92992 0.01600
C 	C 	0.80940 0.58950 0.90299 -0.16800
H 	H 	0.79260 0.64950 0.90190 0.07900
H 	H 	0.75790 0.55510 0.90560 0.07200
C 	C 	0.85490 0.56400 0.87252 0.03400
C 	C 	0.90960 0.61820 0.85862 -0.06800
H 	H 	0.91810 0.67230 0.86750 0.06600
C 	C 	0.95370 0.59690 0.83166 -0.03600
C 	C 	0.94480 0.51700 0.82034 -0.06900
H 	H 	0.97840 0.49910 0.80330 0.06100
C 	C 	0.88660 0.46080 0.83356 0.03300
C 	C 	0.88660 0.36920 0.82113 -0.17100
H 	H 	0.83260 0.34190 0.82680 0.09900
H 	H 	0.89020 0.37050 0.79810 0.07300
C 	C 	0.95530 0.31910 0.83314 0.03800
C 	C 	0.03600 0.31850 0.81910 -0.09600
H 	H 	0.04290 0.34710 0.79990 0.05900
C 	C 	0.10520 0.27860 0.83180 0.00800
H 	H 	0.15910 0.28310 0.82230 0.02400
C 	C 	0.09410 0.23240 0.85850 -0.08600
H 	H 	0.14060 0.20240 0.86700 0.06000
C 	C 	0.94840 0.27360 0.86096 0.11500
C 	C 	0.84370 0.48460 0.85845 0.05900
C 	C 	0.87590 0.49710 0.94441 0.11600
C 	C 	0.97820 0.28370 0.94679 0.06300
C 	C 	0.23710 0.32330 0.96425 0.38100
C 	C 	0.00670 0.65980 0.81547 0.27500
C 	C 	0.70370 0.43430 0.85540 -0.05800
H 	H 	0.71170 0.43070 0.83260 0.04100
H 	H 	0.67270 0.48680 0.86040 0.03800
C 	C 	0.65390 0.35220 0.86850 0.14000
H 	H 	0.60410 0.33810 0.85560 -0.02100
H 	H 	0.69120 0.30240 0.87020 -0.00100
C 	C 	0.63040 0.38450 0.89850 -0.53700
H 	H 	0.65740 0.35090 0.91480 0.19300
H 	H 	0.56900 0.38140 0.90090 0.18700
H 	H 	0.64870 0.44330 0.90030 0.18600
C 	C 	0.86220 0.19860 0.96002 -0.03800
H 	H 	0.86090 0.21400 0.98230 0.04100
H 	H 	0.90020 0.14960 0.95750 0.03800
C 	C 	0.77580 0.17670 0.94913 0.03500
H 	H 	0.77740 0.16150 0.92680 0.01900
H 	H 	0.73810 0.22600 0.95160 0.02600
C 	C 	0.74220 0.10300 0.96800 -0.41600
H 	H 	0.77090 0.05110 0.96160 0.14000
H 	H 	0.68150 0.09710 0.96440 0.14600
H 	H 	0.75250 0.11310 0.99020 0.13900
C 	C 	0.47710 0.41140 0.05650 -0.39800
H 	H 	0.46480 0.35670 0.06420 0.41000
C 	C 	0.56020 0.43920 0.06400 -0.07200
H 	H 	0.60010 0.40540 0.07470 0.01000
C 	C 	0.57700 0.52190 0.05380 0.02800
H 	H 	0.63080 0.54570 0.05790 0.00700
C 	C 	0.52110 0.56670 0.03890 0.03500
C 	C 	0.43930 0.53650 0.03280 0.15700
C 	C 	0.37890 0.58450 0.01580 -0.23200
C 	C 	0.24130 0.59480 0.99570 0.18300
H 	H 	0.18630 0.57230 0.99310 0.02500
C 	C 	0.25870 0.67210 0.98380 -0.00300
H 	H 	0.21890 0.70080 0.97120 -0.00400
C 	C 	0.33730 0.70860 0.99070 0.05400
H 	H 	0.34760 0.76540 0.98470 -0.00700
C 	C 	0.39840 0.66560 0.00560 -0.16800
C 	C 	0.48030 0.69880 0.01250 0.19800
H 	H 	0.49360 0.75450 0.00600 -0.05700
C 	C 	0.54060 0.65240 0.02820 -0.19600
H 	H 	0.59460 0.67600 0.03210 0.07500
N 	N 	0.32460 0.55270 0.01120 -0.33300
N 	N 	0.42230 0.45790 0.04080 -0.04900
C 	C 	0.47100 0.38730 0.05840 0.13100
H 	H 	0.44550 0.33440 0.06270 -0.33700
C 	C 	0.54940 0.40380 0.06710 0.16300
H 	H 	0.58250 0.36210 0.07720 -0.03300
C 	C 	0.58310 0.48560 0.06100 -0.03400
H 	H 	0.63740 0.49960 0.06880 0.03600
C 	C 	0.54010 0.54320 0.04460 -0.03600
C 	C 	0.56580 0.62570 0.03700 0.18000
H 	H 	0.62070 0.64380 0.04290 -0.06200
C 	C 	0.51460 0.68040 0.02150 -0.17100
H 	H 	0.53480 0.73540 0.01690 0.07100
C 	C 	0.43180 0.65770 0.01220 0.03900
C 	C 	0.37780 0.70610 0.99630 0.09900
H 	H 	0.39640 0.76110 0.99080 -0.01200
C 	C 	0.29710 0.68340 0.98710 -0.12700
H 	H 	0.26030 0.72120 0.97660 0.06400
C 	C 	0.27390 0.59990 0.99460 -0.07900
H 	H 	0.22160 0.57780 0.98760 -0.09400
C 	C 	0.40420 0.57310 0.02100 0.33900
C 	C 	0.45530 0.51880 0.03590 -0.26200
Cd	Cd	0.41766 0.28153 0.96862 1.22200
O 	O 	0.26830 0.89210 0.05814 -0.17600
O 	O 	0.27110 0.87200 0.12485 -0.35700
H 	H 	0.24230 0.87550 0.10850 0.23100
O 	O 	0.43160 0.78290 0.12861 -0.18100
O 	O 	0.43070 0.83140 0.06689 -0.35500
H 	H 	0.44660 0.80200 0.08200 0.23500
O 	O 	0.38170 0.25850 0.01887 -0.46200
O 	O 	0.27090 0.28680 0.04799 -0.42500
O 	O 	0.73110 0.02090 0.17209 -0.37000
O 	O 	0.64260 0.03210 0.21160 -0.37500
N 	N 	0.44140 0.42150 0.95710 -0.03200
N 	N 	0.54790 0.30060 0.98860 0.16300
C 	C 	0.22820 0.01600 0.12645 0.01600
C 	C 	0.18180 0.01030 0.09740 -0.16000
H 	H 	0.13190 0.04770 0.09810 0.07100
H 	H 	0.16210 0.95180 0.09410 0.07100
C 	C 	0.23980 0.03690 0.07067 0.02500
C 	C 	0.25080 0.11990 0.06441 -0.04200
H 	H 	0.21780 0.16070 0.07510 0.05900
C 	C 	0.30990 0.14600 0.04252 -0.07200
C 	C 	0.35800 0.08570 0.02721 -0.05200
H 	H 	0.40070 0.10300 0.01310 0.05800
C 	C 	0.34460 0.00200 0.03228 0.04000
C 	C 	0.40050 0.93750 0.01542 -0.16500
H 	H 	0.37180 0.88210 0.01540 0.09800
H 	H 	0.40780 0.95530 0.99350 0.07700
C 	C 	0.48750 0.92760 0.03040 0.03100
C 	C 	0.55560 0.97330 0.01938 -0.10200
H 	H 	0.54880 0.01080 0.00230 0.06400
C 	C 	0.63330 0.96390 0.03330 0.01200
H 	H 	0.68010 0.99510 0.02570 0.01500
C 	C 	0.64380 0.91120 0.05755 -0.09200
H 	H 	0.69840 0.90400 0.06630 0.05700
C 	C 	0.57610 0.86700 0.07008 0.01600
C 	C 	0.58950 0.80940 0.09701 -0.16800
H 	H 	0.64950 0.79260 0.09810 0.07900
H 	H 	0.55510 0.75790 0.09440 0.07200
C 	C 	0.56400 0.85490 0.12748 0.03400
C 	C 	0.61820 0.90960 0.14138 -0.06800
H 	H 	0.67230 0.91810 0.13250 0.06600
C 	C 	0.59690 0.95370 0.16834 -0.03600
C 	C 	0.51700 0.94480 0.17966 -0.06900
H 	H 	0.49910 0.97840 0.19670 0.06100
C 	C 	0.46080 0.88660 0.16644 0.03300
C 	C 	0.36920 0.88660 0.17887 -0.17100
H 	H 	0.34190 0.83260 0.17320 0.09900
H 	H 	0.37050 0.89020 0.20190 0.07300
C 	C 	0.31910 0.95530 0.16686 0.03800
C 	C 	0.31850 0.03600 0.18090 -0.09600
H 	H 	0.34710 0.04290 0.20010 0.05900
C 	C 	0.27860 0.10520 0.16820 0.00800
H 	H 	0.28310 0.15910 0.17770 0.02400
C 	C 	0.23240 0.09410 0.14150 -0.08600
H 	H 	0.20240 0.14060 0.13300 0.06000
C 	C 	0.27360 0.94840 0.13904 0.11500
C 	C 	0.48460 0.84370 0.14155 0.05900
C 	C 	0.49710 0.87590 0.05559 0.11600
C 	C 	0.28370 0.97820 0.05321 0.06300
C 	C 	0.32330 0.23710 0.03575 0.38100
C 	C 	0.65980 0.00670 0.18453 0.27500
C 	C 	0.43430 0.70370 0.14460 -0.05800
H 	H 	0.43070 0.71170 0.16740 0.04100
H 	H 	0.48680 0.67270 0.13960 0.03800
C 	C 	0.35220 0.65390 0.13150 0.14000
H 	H 	0.33810 0.60410 0.14440 -0.02100
H 	H 	0.30240 0.69120 0.12980 -0.00100
C 	C 	0.38450 0.63040 0.10150 -0.53700
H 	H 	0.35090 0.65740 0.08520 0.19300
H 	H 	0.38140 0.56900 0.09910 0.18700
H 	H 	0.44330 0.64870 0.09970 0.18600
C 	C 	0.19860 0.86220 0.03998 -0.03800
H 	H 	0.21400 0.86090 0.01770 0.04100
H 	H 	0.14960 0.90020 0.04250 0.03800
C 	C 	0.17670 0.77580 0.05087 0.03500
H 	H 	0.16150 0.77740 0.07320 0.01900
H 	H 	0.22600 0.73810 0.04840 0.02600
C 	C 	0.10300 0.74220 0.03200 -0.41600
H 	H 	0.05110 0.77090 0.03840 0.14000
H 	H 	0.09710 0.68150 0.03560 0.14600
H 	H 	0.11310 0.75250 0.00980 0.13900
C 	C 	0.41140 0.47710 0.94350 -0.39800
H 	H 	0.35670 0.46480 0.93580 0.41000
C 	C 	0.43920 0.56020 0.93600 -0.07200
H 	H 	0.40540 0.60010 0.92530 0.01000
C 	C 	0.52190 0.57700 0.94620 0.02800
H 	H 	0.54570 0.63080 0.94210 0.00700
C 	C 	0.56670 0.52110 0.96110 0.03500
C 	C 	0.53650 0.43930 0.96720 0.15700
C 	C 	0.58450 0.37890 0.98420 -0.23200
C 	C 	0.59480 0.24130 0.00430 0.18300
H 	H 	0.57230 0.18630 0.00690 0.02500
C 	C 	0.67210 0.25870 0.01620 -0.00300
H 	H 	0.70080 0.21890 0.02880 -0.00400
C 	C 	0.70860 0.33730 0.00930 0.05400
H 	H 	0.76540 0.34760 0.01530 -0.00700
C 	C 	0.66560 0.39840 0.99440 -0.16800
C 	C 	0.69880 0.48030 0.98750 0.19800
H 	H 	0.75450 0.49360 0.99400 -0.05700
C 	C 	0.65240 0.54060 0.97180 -0.19600
H 	H 	0.67600 0.59460 0.96790 0.07500
N 	N 	0.55270 0.32460 0.98880 -0.33300
N 	N 	0.45790 0.42230 0.95920 -0.04900
C 	C 	0.38730 0.47100 0.94160 0.13100
H 	H 	0.33440 0.44550 0.93730 -0.33700
C 	C 	0.40380 0.54940 0.93290 0.16300
H 	H 	0.36210 0.58250 0.92280 -0.03300
C 	C 	0.48560 0.58310 0.93900 -0.03400
H 	H 	0.49960 0.63740 0.93120 0.03600
C 	C 	0.54320 0.54010 0.95540 -0.03600
C 	C 	0.62570 0.56580 0.96300 0.18000
H 	H 	0.64380 0.62070 0.95710 -0.06200
C 	C 	0.68040 0.51460 0.97850 -0.17100
H 	H 	0.73540 0.53480 0.98310 0.07100
C 	C 	0.65770 0.43180 0.98780 0.03900
C 	C 	0.70610 0.37780 0.00370 0.09900
H 	H 	0.76110 0.39640 0.00920 -0.01200
C 	C 	0.68340 0.29710 0.01290 -0.12700
H 	H 	0.72120 0.26030 0.02340 0.06400
C 	C 	0.59990 0.27390 0.00540 -0.07900
H 	H 	0.57780 0.22160 0.01240 -0.09400
C 	C 	0.57310 0.40420 0.97900 0.33900
C 	C 	0.51880 0.45530 0.96410 -0.26200
Cd	Cd	0.58234 0.71847 0.46862 1.22200
O 	O 	0.73170 0.10790 0.55814 -0.17600
O 	O 	0.72890 0.12800 0.62485 -0.35700
H 	H 	0.75770 0.12450 0.60850 0.23100
O 	O 	0.56840 0.21710 0.62861 -0.18100
O 	O 	0.56930 0.16860 0.56689 -0.35500
H 	H 	0.55340 0.19800 0.58200 0.23500
O 	O 	0.61830 0.74150 0.51887 -0.46200
O 	O 	0.72910 0.71320 0.54799 -0.42500
O 	O 	0.26890 0.97910 0.67209 -0.37000
O 	O 	0.35740 0.96790 0.71160 -0.37500
N 	N 	0.55860 0.57850 0.45710 -0.03200
N 	N 	0.45210 0.69940 0.48860 0.16300
C 	C 	0.77180 0.98400 0.62645 0.01600
C 	C 	0.81820 0.98970 0.59740 -0.16000
H 	H 	0.86810 0.95230 0.59810 0.07100
H 	H 	0.83790 0.04820 0.59410 0.07100
C 	C 	0.76020 0.96310 0.57067 0.02500
C 	C 	0.74920 0.88010 0.56441 -0.04200
H 	H 	0.78220 0.83930 0.57510 0.05900
C 	C 	0.69010 0.85400 0.54252 -0.07200
C 	C 	0.64200 0.91430 0.52721 -0.05200
H 	H 	0.59930 0.89700 0.51310 0.05800
C 	C 	0.65540 0.99800 0.53228 0.04000
C 	C 	0.59950 0.06250 0.51542 -0.16500
H 	H 	0.62820 0.11790 0.51540 0.09800
H 	H 	0.59220 0.04470 0.49350 0.07700
C 	C 	0.51250 0.07240 0.53040 0.03100
C 	C 	0.44440 0.02670 0.51938 -0.10200
H 	H 	0.45120 0.98920 0.50230 0.06400
C 	C 	0.36670 0.03610 0.53330 0.01300
H 	H 	0.31990 0.00490 0.52570 0.01400
C 	C 	0.35620 0.08880 0.55755 -0.09300
H 	H 	0.30160 0.09600 0.56630 0.05700
C 	C 	0.42390 0.13300 0.57008 0.01600
C 	C 	0.41050 0.19060 0.59701 -0.16800
H 	H 	0.35050 0.20740 0.59810 0.07900
H 	H 	0.44490 0.24210 0.59440 0.07200
C 	C 	0.43600 0.14510 0.62748 0.03400
C 	C 	0.38180 0.09040 0.64138 -0.06800
H 	H 	0.32770 0.08190 0.63250 0.06600
C 	C 	0.40310 0.04630 0.66834 -0.03600
C 	C 	0.48300 0.05520 0.67966 -0.06900
H 	H 	0.50090 0.02160 0.69670 0.06100
C 	C 	0.53920 0.11340 0.66644 0.03300
C 	C 	0.63080 0.11340 0.67887 -0.17100
H 	H 	0.65810 0.16740 0.67320 0.09900
H 	H 	0.62950 0.10980 0.70190 0.07300
C 	C 	0.68090 0.04470 0.66686 0.03800
C 	C 	0.68150 0.96400 0.68090 -0.09600
H 	H 	0.65290 0.95710 0.70010 0.05900
C 	C 	0.72140 0.89480 0.66820 0.00800
H 	H 	0.71690 0.84090 0.67770 0.02400
C 	C 	0.76760 0.90590 0.64150 -0.08600
H 	H 	0.79760 0.85940 0.63300 0.06000
C 	C 	0.72640 0.05160 0.63904 0.11500
C 	C 	0.51540 0.15630 0.64155 0.05900
C 	C 	0.50290 0.12410 0.55559 0.11600
C 	C 	0.71630 0.02180 0.55321 0.06300
C 	C 	0.67670 0.76290 0.53575 0.38100
C 	C 	0.34020 0.99330 0.68453 0.27500
C 	C 	0.56570 0.29630 0.64460 -0.05800
H 	H 	0.56930 0.28830 0.66740 0.04100
H 	H 	0.51320 0.32730 0.63960 0.03800
C 	C 	0.64780 0.34610 0.63150 0.14000
H 	H 	0.66190 0.39590 0.64440 -0.02100
H 	H 	0.69760 0.30880 0.62980 -0.00100
C 	C 	0.61550 0.36960 0.60150 -0.53700
H 	H 	0.64910 0.34260 0.58520 0.19300
H 	H 	0.61860 0.43100 0.59910 0.18700
H 	H 	0.55670 0.35130 0.59970 0.18600
C 	C 	0.80140 0.13780 0.53998 -0.03800
H 	H 	0.78600 0.13910 0.51770 0.04100
H 	H 	0.85040 0.09980 0.54250 0.03800
C 	C 	0.82330 0.22420 0.55087 0.03500
H 	H 	0.83850 0.22260 0.57320 0.01900
H 	H 	0.77400 0.26190 0.54840 0.02600
C 	C 	0.89700 0.25780 0.53200 -0.41600
H 	H 	0.94890 0.22910 0.53840 0.14000
H 	H 	0.90290 0.31850 0.53560 0.14600
H 	H 	0.88690 0.24750 0.50980 0.13900
C 	C 	0.58860 0.52290 0.44350 -0.39800
H 	H 	0.64330 0.53520 0.43580 0.41000
C 	C 	0.56080 0.43980 0.43600 -0.07200
H 	H 	0.59460 0.39990 0.42530 0.01000
C 	C 	0.47810 0.42300 0.44620 0.02800
H 	H 	0.45430 0.36920 0.44210 0.00700
C 	C 	0.43330 0.47890 0.46110 0.03500
C 	C 	0.46350 0.56070 0.46720 0.15700
C 	C 	0.41550 0.62110 0.48420 -0.23200
C 	C 	0.40520 0.75870 0.50430 0.18300
H 	H 	0.42770 0.81370 0.50690 0.02500
C 	C 	0.32790 0.74130 0.51620 -0.00300
H 	H 	0.29920 0.78110 0.52880 -0.00400
C 	C 	0.29140 0.66270 0.50930 0.05400
H 	H 	0.23460 0.65240 0.51530 -0.00700
C 	C 	0.33440 0.60160 0.49440 -0.16800
C 	C 	0.30120 0.51970 0.48750 0.19800
H 	H 	0.24550 0.50640 0.49400 -0.05700
C 	C 	0.34760 0.45940 0.47180 -0.19600
H 	H 	0.32400 0.40540 0.46790 0.07500
N 	N 	0.44730 0.67540 0.48880 -0.33300
N 	N 	0.54210 0.57770 0.45920 -0.04900
C 	C 	0.61270 0.52900 0.44160 0.13100
H 	H 	0.66560 0.55450 0.43730 -0.33700
C 	C 	0.59620 0.45060 0.43290 0.16300
H 	H 	0.63790 0.41750 0.42280 -0.03300
C 	C 	0.51440 0.41690 0.43900 -0.03400
H 	H 	0.50040 0.36260 0.43120 0.03600
C 	C 	0.45680 0.45990 0.45540 -0.03600
C 	C 	0.37430 0.43420 0.46300 0.18000
H 	H 	0.35620 0.37930 0.45710 -0.06200
C 	C 	0.31960 0.48540 0.47850 -0.17100
H 	H 	0.26460 0.46520 0.48310 0.07100
C 	C 	0.34230 0.56820 0.48780 0.03900
C 	C 	0.29390 0.62220 0.50370 0.09900
H 	H 	0.23890 0.60360 0.50920 -0.01200
C 	C 	0.31660 0.70290 0.51290 -0.12700
H 	H 	0.27880 0.73970 0.52340 0.06400
C 	C 	0.40010 0.72610 0.50540 -0.07900
H 	H 	0.42220 0.77840 0.51240 -0.09400
C 	C 	0.42690 0.59580 0.47900 0.33900
C 	C 	0.48120 0.54470 0.46410 -0.26200
Cd	Cd	0.78153 0.08234 0.21862 1.22200
O 	O 	0.39210 0.23170 0.30814 -0.17600
O 	O 	0.37200 0.22890 0.37485 -0.35700
H 	H 	0.37550 0.25770 0.35850 0.23100
O 	O 	0.28290 0.06840 0.37861 -0.18100
O 	O 	0.33140 0.06930 0.31689 -0.35500
H 	H 	0.30200 0.05340 0.33200 0.23500
O 	O 	0.75850 0.11830 0.26887 -0.46300
O 	O 	0.78680 0.22910 0.29799 -0.42500
O 	O 	0.52090 0.76890 0.42209 -0.37000
O 	O 	0.53210 0.85740 0.46160 -0.37500
N 	N 	0.92150 0.05860 0.20710 -0.03200
N 	N 	0.80060 0.95210 0.23860 0.16300
C 	C 	0.51600 0.27180 0.37645 0.01600
C 	C 	0.51030 0.31820 0.34740 -0.16000
H 	H 	0.54770 0.36810 0.34810 0.07100
H 	H 	0.45180 0.33790 0.34410 0.07000
C 	C 	0.53690 0.26020 0.32067 0.02400
C 	C 	0.61990 0.24920 0.31441 -0.04200
H 	H 	0.66070 0.28220 0.32510 0.05900
C 	C 	0.64600 0.19010 0.29252 -0.07200
C 	C 	0.58570 0.14200 0.27721 -0.05200
H 	H 	0.60300 0.09930 0.26310 0.05800
C 	C 	0.50200 0.15540 0.28228 0.03900
C 	C 	0.43750 0.09950 0.26542 -0.16400
H 	H 	0.38210 0.12820 0.26540 0.09800
H 	H 	0.45530 0.09220 0.24350 0.07700
C 	C 	0.42760 0.01250 0.28040 0.03000
C 	C 	0.47330 0.94440 0.26938 -0.10000
H 	H 	0.51080 0.95120 0.25230 0.06400
C 	C 	0.46390 0.86670 0.28330 0.01200
H 	H 	0.49510 0.81990 0.27570 0.01500
C 	C 	0.41120 0.85620 0.30755 -0.09200
H 	H 	0.40400 0.80160 0.31630 0.05700
C 	C 	0.36700 0.92390 0.32008 0.01700
C 	C 	0.30940 0.91050 0.34701 -0.16800
H 	H 	0.29260 0.85050 0.34810 0.07900
H 	H 	0.25790 0.94490 0.34440 0.07200
C 	C 	0.35490 0.93600 0.37748 0.03400
C 	C 	0.40960 0.88180 0.39138 -0.06800
H 	H 	0.41810 0.82770 0.38250 0.06600
C 	C 	0.45370 0.90310 0.41834 -0.03700
C 	C 	0.44480 0.98300 0.42966 -0.06700
H 	H 	0.47840 0.00090 0.44670 0.06000
C 	C 	0.38660 0.03920 0.41644 0.03200
C 	C 	0.38660 0.13080 0.42887 -0.17000
H 	H 	0.33260 0.15810 0.42320 0.09900
H 	H 	0.39020 0.12950 0.45190 0.07300
C 	C 	0.45530 0.18090 0.41686 0.03800
C 	C 	0.53600 0.18150 0.43090 -0.09600
H 	H 	0.54290 0.15290 0.45010 0.05900
C 	C 	0.60520 0.22140 0.41820 0.00800
H 	H 	0.65910 0.21690 0.42770 0.02400
C 	C 	0.59410 0.26760 0.39150 -0.08600
H 	H 	0.64060 0.29760 0.38300 0.06000
C 	C 	0.44840 0.22640 0.38904 0.11600
C 	C 	0.34370 0.01540 0.39155 0.05900
C 	C 	0.37590 0.00290 0.30559 0.11600
C 	C 	0.47820 0.21630 0.30321 0.06300
C 	C 	0.73710 0.17670 0.28575 0.38100
C 	C 	0.50670 0.84020 0.43453 0.27500
C 	C 	0.20370 0.06570 0.39460 -0.05700
H 	H 	0.21170 0.06930 0.41740 0.04000
H 	H 	0.17270 0.01320 0.38960 0.03800
C 	C 	0.15390 0.14780 0.38150 0.14000
H 	H 	0.10410 0.16190 0.39440 -0.02100
H 	H 	0.19120 0.19760 0.37980 -0.00100
C 	C 	0.13040 0.11550 0.35150 -0.53700
H 	H 	0.15740 0.14910 0.33520 0.19300
H 	H 	0.06900 0.11860 0.34910 0.18600
H 	H 	0.14870 0.05670 0.34970 0.18600
C 	C 	0.36220 0.30140 0.28998 -0.03800
H 	H 	0.36090 0.28600 0.26770 0.04100
H 	H 	0.40020 0.35040 0.29250 0.03800
C 	C 	0.27580 0.32330 0.30087 0.03500
H 	H 	0.27740 0.33850 0.32320 0.01900
H 	H 	0.23810 0.27400 0.29840 0.02600
C 	C 	0.24220 0.39700 0.28200 -0.41600
H 	H 	0.27090 0.44890 0.28840 0.13900
H 	H 	0.18150 0.40290 0.28560 0.14600
H 	H 	0.25250 0.38690 0.25980 0.13900
C 	C 	0.97710 0.08860 0.19350 -0.39500
H 	H 	0.96480 0.14330 0.18580 0.40600
C 	C 	0.06020 0.06080 0.18600 -0.07200
H 	H 	0.10010 0.09460 0.17530 0.01000
C 	C 	0.07700 0.97810 0.19620 0.02800
H 	H 	0.13080 0.95430 0.19210 0.00700
C 	C 	0.02110 0.93330 0.21110 0.03500
C 	C 	0.93930 0.96350 0.21720 0.15700
C 	C 	0.87890 0.91550 0.23420 -0.23200
C 	C 	0.74130 0.90520 0.25430 0.18400
H 	H 	0.68630 0.92770 0.25690 0.02500
C 	C 	0.75870 0.82790 0.26620 -0.00400
H 	H 	0.71890 0.79920 0.27880 -0.00400
C 	C 	0.83730 0.79140 0.25930 0.05400
H 	H 	0.84760 0.73460 0.26530 -0.00700
C 	C 	0.89840 0.83440 0.24440 -0.16900
C 	C 	0.98030 0.80120 0.23750 0.19900
H 	H 	0.99360 0.74550 0.24400 -0.05700
C 	C 	0.04060 0.84760 0.22180 -0.19600
H 	H 	0.09460 0.82400 0.21790 0.07500
N 	N 	0.82460 0.94730 0.23880 -0.33300
N 	N 	0.92230 0.04210 0.20920 -0.05000
C 	C 	0.97100 0.11270 0.19160 0.13000
H 	H 	0.94550 0.16560 0.18730 -0.33300
C 	C 	0.04940 0.09620 0.18290 0.16100
H 	H 	0.08250 0.13790 0.17280 -0.03200
C 	C 	0.08310 0.01440 0.18900 -0.03300
H 	H 	0.13740 0.00040 0.18120 0.03600
C 	C 	0.04010 0.95680 0.20540 -0.03600
C 	C 	0.06580 0.87430 0.21300 0.18100
H 	H 	0.12070 0.85620 0.20710 -0.06200
C 	C 	0.01460 0.81960 0.22850 -0.17300
H 	H 	0.03480 0.76460 0.23310 0.07100
C 	C 	0.93180 0.84230 0.23780 0.03900
C 	C 	0.87780 0.79390 0.25370 0.09900
H 	H 	0.89640 0.73890 0.25920 -0.01200
C 	C 	0.79710 0.81660 0.26290 -0.12600
H 	H 	0.76030 0.77880 0.27340 0.06400
C 	C 	0.77390 0.90010 0.25540 -0.07900
H 	H 	0.72160 0.92220 0.26240 -0.09400
C 	C 	0.90420 0.92690 0.22900 0.33900
C 	C 	0.95530 0.98120 0.21410 -0.26200
Cd	Cd	0.21847 0.91766 0.71862 1.22200
O 	O 	0.60790 0.76830 0.80814 -0.17600
O 	O 	0.62800 0.77110 0.87485 -0.35700
H 	H 	0.62450 0.74230 0.85850 0.23100
O 	O 	0.71710 0.93160 0.87861 -0.18100
O 	O 	0.66860 0.93070 0.81689 -0.35500
H 	H 	0.69800 0.94660 0.83200 0.23500
O 	O 	0.24150 0.88170 0.76887 -0.46300
O 	O 	0.21320 0.77090 0.79799 -0.42500
O 	O 	0.47910 0.23110 0.92209 -0.37000
O 	O 	0.46790 0.14260 0.96160 -0.37500
N 	N 	0.07850 0.94140 0.70710 -0.03200
N 	N 	0.19940 0.04790 0.73860 0.16300
C 	C 	0.48400 0.72820 0.87645 0.01600
C 	C 	0.48970 0.68180 0.84740 -0.16000
H 	H 	0.45230 0.63190 0.84810 0.07100
H 	H 	0.54820 0.66210 0.84410 0.07000
C 	C 	0.46310 0.73980 0.82067 0.02400
C 	C 	0.38010 0.75080 0.81441 -0.04200
H 	H 	0.33930 0.71780 0.82510 0.05900
C 	C 	0.35400 0.80990 0.79252 -0.07200
C 	C 	0.41430 0.85800 0.77721 -0.05200
H 	H 	0.39700 0.90070 0.76310 0.05800
C 	C 	0.49800 0.84460 0.78228 0.03900
C 	C 	0.56250 0.90050 0.76542 -0.16400
H 	H 	0.61790 0.87180 0.76540 0.09800
H 	H 	0.54470 0.90780 0.74350 0.07700
C 	C 	0.57240 0.98750 0.78040 0.03000
C 	C 	0.52670 0.05560 0.76938 -0.10000
H 	H 	0.48920 0.04880 0.75230 0.06400
C 	C 	0.53610 0.13330 0.78330 0.01200
H 	H 	0.50490 0.18010 0.77570 0.01500
C 	C 	0.58880 0.14380 0.80755 -0.09200
H 	H 	0.59600 0.19840 0.81630 0.05700
C 	C 	0.63300 0.07610 0.82008 0.01700
C 	C 	0.69060 0.08950 0.84701 -0.16800
H 	H 	0.70740 0.14950 0.84810 0.07900
H 	H 	0.74210 0.05510 0.84440 0.07200
C 	C 	0.64510 0.06400 0.87748 0.03400
C 	C 	0.59040 0.11820 0.89138 -0.06800
H 	H 	0.58190 0.17230 0.88250 0.06600
C 	C 	0.54630 0.09690 0.91834 -0.03700
C 	C 	0.55520 0.01700 0.92966 -0.06700
H 	H 	0.52160 0.99910 0.94670 0.06000
C 	C 	0.61340 0.96080 0.91644 0.03200
C 	C 	0.61340 0.86920 0.92887 -0.17000
H 	H 	0.66740 0.84190 0.92320 0.09900
H 	H 	0.60980 0.87050 0.95190 0.07300
C 	C 	0.54470 0.81910 0.91686 0.03800
C 	C 	0.46400 0.81850 0.93090 -0.09600
H 	H 	0.45710 0.84710 0.95010 0.05900
C 	C 	0.39480 0.77860 0.91820 0.00800
H 	H 	0.34090 0.78310 0.92770 0.02400
C 	C 	0.40590 0.73240 0.89150 -0.08600
H 	H 	0.35940 0.70240 0.88300 0.06000
C 	C 	0.55160 0.77360 0.88904 0.11600
C 	C 	0.65630 0.98460 0.89155 0.05900
C 	C 	0.62410 0.99710 0.80559 0.11600
C 	C 	0.52180 0.78370 0.80321 0.06300
C 	C 	0.26290 0.82330 0.78575 0.38100
C 	C 	0.49330 0.15980 0.93453 0.27500
C 	C 	0.79630 0.93430 0.89460 -0.05700
H 	H 	0.78830 0.93070 0.91740 0.04000
H 	H 	0.82730 0.98680 0.88960 0.03800
C 	C 	0.84610 0.85220 0.88150 0.14000
H 	H 	0.89590 0.83810 0.89440 -0.02100
H 	H 	0.80880 0.80240 0.87980 -0.00100
C 	C 	0.86960 0.88450 0.85150 -0.53600
H 	H 	0.84260 0.85090 0.83520 0.19300
H 	H 	0.93100 0.88140 0.84910 0.18600
H 	H 	0.85130 0.94330 0.84970 0.18600
C 	C 	0.63780 0.69860 0.78998 -0.03800
H 	H 	0.63910 0.71400 0.76770 0.04100
H 	H 	0.59980 0.64960 0.79250 0.03800
C 	C 	0.72420 0.67670 0.80087 0.03500
H 	H 	0.72260 0.66150 0.82320 0.01900
H 	H 	0.76190 0.72600 0.79840 0.02600
C 	C 	0.75780 0.60300 0.78200 -0.41600
H 	H 	0.72910 0.55110 0.78840 0.13900
H 	H 	0.81850 0.59710 0.78560 0.14600
H 	H 	0.74750 0.61310 0.75980 0.13900
C 	C 	0.02290 0.91140 0.69350 -0.39500
H 	H 	0.03520 0.85670 0.68580 0.40600
C 	C 	0.93980 0.93920 0.68600 -0.07200
H 	H 	0.89990 0.90540 0.67530 0.01000
C 	C 	0.92300 0.02190 0.69620 0.02800
H 	H 	0.86920 0.04570 0.69210 0.00700
C 	C 	0.97890 0.06670 0.71110 0.03500
C 	C 	0.06070 0.03650 0.71720 0.15700
C 	C 	0.12110 0.08450 0.73420 -0.23200
C 	C 	0.25870 0.09480 0.75430 0.18400
H 	H 	0.31370 0.07230 0.75690 0.02500
C 	C 	0.24130 0.17210 0.76620 -0.00400
H 	H 	0.28110 0.20080 0.77880 -0.00400
C 	C 	0.16270 0.20860 0.75930 0.05400
H 	H 	0.15240 0.26540 0.76530 -0.00700
C 	C 	0.10160 0.16560 0.74440 -0.16900
C 	C 	0.01970 0.19880 0.73750 0.19900
H 	H 	0.00640 0.25450 0.74400 -0.05700
C 	C 	0.95940 0.15240 0.72180 -0.19600
H 	H 	0.90540 0.17600 0.71790 0.07500
N 	N 	0.17540 0.05270 0.73880 -0.33300
N 	N 	0.07770 0.95790 0.70920 -0.05000
C 	C 	0.02900 0.88730 0.69160 0.13000
H 	H 	0.05450 0.83440 0.68730 -0.33300
C 	C 	0.95060 0.90380 0.68290 0.16100
H 	H 	0.91750 0.86210 0.67280 -0.03200
C 	C 	0.91690 0.98560 0.68900 -0.03300
H 	H 	0.86260 0.99960 0.68120 0.03600
C 	C 	0.95990 0.04320 0.70540 -0.03600
C 	C 	0.93420 0.12570 0.71300 0.18100
H 	H 	0.87930 0.14380 0.70710 -0.06200
C 	C 	0.98540 0.18040 0.72850 -0.17300
H 	H 	0.96520 0.23540 0.73310 0.07100
C 	C 	0.06820 0.15770 0.73780 0.03900
C 	C 	0.12220 0.20610 0.75370 0.09900
H 	H 	0.10360 0.26110 0.75920 -0.01200
C 	C 	0.20290 0.18340 0.76290 -0.12600
H 	H 	0.23970 0.22120 0.77340 0.06400
C 	C 	0.22610 0.09990 0.75540 -0.07900
H 	H 	0.27840 0.07780 0.76240 -0.09400
C 	C 	0.09580 0.07310 0.72900 0.33900
C 	C 	0.04470 0.01880 0.71410 -0.26200
