data_crystal

_cell_length_a 19.59950
_cell_length_b 28.74240
_cell_length_c 20.44140
_cell_angle_alpha 90.00000
_cell_angle_beta  91.62700
_cell_angle_gamma 90.00000

_symmetry_space_group_name_	'P 1'
_symmetry_space_group_name_H-M	'P 1'

loop_
_symmetry_equiv_pos_as_xyz
  x,y,z

loop_
_atom_site_label
_atom_site_type_symbol
_atom_site_fract_x
_atom_site_fract_y
_atom_site_fract_z
_atom_site_charge
Cd	Cd	0.86022 0.17935 0.76594 1.22000
Cd	Cd	0.34748 0.89819 0.75043 1.22400
Cd	Cd	0.27285 0.64592 0.34697 1.22200
Cd	Cd	0.21578 0.93083 0.86079 1.22300
O 	O 	0.24750 0.25900 0.89420 -0.38100
H 	H 	0.26060 0.23960 0.92250 0.24400
O 	O 	0.34160 0.24490 0.80020 -0.22100
O 	O 	0.37410 0.17040 0.89780 -0.37100
H 	H 	0.36630 0.18940 0.86720 0.23800
O 	O 	0.30180 0.19210 0.00250 -0.20700
O 	O 	0.96280 0.21560 0.75330 -0.37200
O 	O 	0.94030 0.19390 0.85990 -0.33700
O 	O 	0.32580 0.95920 0.82460 -0.46700
O 	O 	0.40380 0.97620 0.75260 -0.38300
O 	O 	0.73560 0.82000 0.63670 -0.38100
H 	H 	0.74890 0.83780 0.60700 0.24400
O 	O 	0.83210 0.83610 0.74090 -0.22000
O 	O 	0.86240 0.90340 0.64320 -0.40400
H 	H 	0.84600 0.88670 0.67260 0.25400
O 	O 	0.78280 0.88330 0.52900 -0.22000
O 	O 	0.42910 0.88640 0.66480 -0.33300
O 	O 	0.45240 0.86180 0.76690 -0.37800
O 	O 	0.83710 0.11770 0.69710 -0.50200
O 	O 	0.91150 0.10020 0.77170 -0.35700
O 	O 	0.34440 0.57200 0.73470 -0.39100
H 	H 	0.30960 0.57600 0.75710 0.25500
O 	O 	0.22760 0.58620 0.81080 -0.19500
O 	O 	0.33020 0.65200 0.85620 -0.38400
H 	H 	0.36790 0.64850 0.83820 0.25100
O 	O 	0.45070 0.62820 0.80360 -0.21500
O 	O 	0.35510 0.62780 0.43560 -0.33800
O 	O 	0.24440 0.61660 0.44630 -0.40400
O 	O 	0.29340 0.86880 0.84310 -0.55000
O 	O 	0.20280 0.84920 0.89800 -0.36200
O 	O 	0.14010 0.00640 0.24420 -0.37100
H 	H 	0.17510 0.00070 0.26740 0.25100
O 	O 	0.25000 0.99140 0.32610 -0.22500
O 	O 	0.15020 0.92320 0.37030 -0.39000
H 	H 	0.11360 0.92850 0.34930 0.25300
O 	O 	0.03120 0.94770 0.30480 -0.21400
O 	O 	0.24090 0.95780 0.95920 -0.40900
O 	O 	0.13150 0.94210 0.94440 -0.33800
O 	O 	0.19520 0.70710 0.33100 -0.50900
O 	O 	0.28660 0.72660 0.38750 -0.38700
N 	N 	0.78410 0.15140 0.84310 -0.20200
N 	N 	0.80490 0.24180 0.81910 -0.21100
N 	N 	0.29240 0.84030 0.68910 -0.19400
N 	N 	0.27210 0.92760 0.67500 -0.22200
N 	N 	0.34260 0.67030 0.26480 -0.21300
N 	N 	0.31740 0.58320 0.29450 -0.20600
N 	N 	0.14890 0.90970 0.77070 -0.20800
N 	N 	0.17020 0.99490 0.80630 -0.22700
C 	C 	0.24550 0.23290 0.72740 0.06000
C 	C 	0.20950 0.27460 0.75520 -0.16600
H 	H 	0.18200 0.29060 0.72060 0.07100
H 	H 	0.24300 0.29700 0.77410 0.09100
C 	C 	0.16200 0.25530 0.80990 0.00300
C 	C 	0.09540 0.24390 0.78830 -0.06800
H 	H 	0.08080 0.24910 0.74420 0.05600
C 	C 	0.05150 0.22480 0.83300 -0.02200
C 	C 	0.07100 0.22370 0.90040 -0.07200
H 	H 	0.03800 0.21660 0.93210 0.06600
C 	C 	0.13800 0.23300 0.92050 0.00400
C 	C 	0.15940 0.22360 0.98960 -0.18100
H 	H 	0.12100 0.22980 0.01870 0.07900
H 	H 	0.19780 0.24420 0.00270 0.08800
C 	C 	0.18150 0.17280 0.99590 0.05200
C 	C 	0.13090 0.13840 0.99440 -0.11400
H 	H 	0.08450 0.14810 0.99440 0.06800
C 	C 	0.14430 0.09050 0.99300 0.02900
H 	H 	0.10990 0.06720 0.99270 0.02100
C 	C 	0.21380 0.08090 0.99210 -0.12800
H 	H 	0.22520 0.04880 0.99010 0.07900
C 	C 	0.26960 0.11130 0.99380 0.07700
C 	C 	0.33970 0.09690 0.98350 -0.20800
H 	H 	0.37080 0.12130 0.00110 0.10500
H 	H 	0.34890 0.06810 0.00880 0.08000
C 	C 	0.35470 0.08880 0.91840 0.03800
C 	C 	0.35200 0.04400 0.89150 -0.07200
H 	H 	0.33870 0.01860 0.91810 0.05900
C 	C 	0.36880 0.03570 0.82540 -0.06200
C 	C 	0.38770 0.07280 0.78610 -0.04700
H 	H 	0.40150 0.06710 0.74270 0.05500
C 	C 	0.38660 0.11950 0.81000 0.00000
C 	C 	0.40410 0.15790 0.76380 -0.16800
H 	H 	0.43300 0.14540 0.72890 0.08000
H 	H 	0.43040 0.18220 0.78770 0.08400
C 	C 	0.33870 0.17960 0.73250 0.03900
C 	C 	0.30450 0.15580 0.67880 -0.10700
H 	H 	0.32510 0.12840 0.66220 0.05900
C 	C 	0.24400 0.17040 0.65030 0.01500
H 	H 	0.22190 0.15450 0.61500 0.00100
C 	C 	0.21810 0.21090 0.67780 -0.12700
H 	H 	0.17720 0.22330 0.65890 0.06100
C 	C 	0.18380 0.24890 0.87410 0.13400
C 	C 	0.30600 0.21930 0.75120 0.04400
C 	C 	0.36960 0.12590 0.87400 0.10900
C 	C 	0.24790 0.15760 0.99790 0.02700
C 	C 	0.97630 0.20930 0.81740 0.23200
C 	C 	0.37270 0.98810 0.79670 0.31900
C 	C 	0.37690 0.28240 0.77540 0.13100
H 	H 	0.34720 0.30040 0.74470 -0.01000
H 	H 	0.41740 0.27170 0.75190 -0.01000
C 	C 	0.39890 0.31290 0.83530 -0.27200
H 	H 	0.35840 0.32050 0.86100 0.11700
H 	H 	0.43120 0.29520 0.86380 0.10300
C 	C 	0.43310 0.35840 0.81350 0.13400
H 	H 	0.39880 0.38020 0.79470 -0.03000
H 	H 	0.46780 0.35200 0.78040 -0.02300
C 	C 	0.46730 0.37910 0.87700 -0.46900
H 	H 	0.49040 0.40830 0.86640 0.14500
H 	H 	0.50070 0.35690 0.89510 0.14400
H 	H 	0.43230 0.38510 0.90920 0.14400
C 	C 	0.31830 0.19980 0.06810 0.12000
H 	H 	0.32950 0.17010 0.09050 -0.00700
H 	H 	0.27980 0.21470 0.09040 -0.00600
C 	C 	0.38030 0.23190 0.06850 -0.24700
H 	H 	0.41830 0.21670 0.04580 0.10300
H 	H 	0.39560 0.23840 0.11420 0.09100
C 	C 	0.36100 0.27730 0.03380 0.11400
H 	H 	0.32270 0.29240 0.05620 -0.00800
H 	H 	0.34620 0.27080 0.98800 0.00600
C 	C 	0.42480 0.31030 0.03520 -0.45400
H 	H 	0.41270 0.33980 0.01380 0.14200
H 	H 	0.46200 0.29550 0.01190 0.14400
H 	H 	0.43950 0.31620 0.08070 0.14800
C 	C 	0.73860 0.84820 0.80500 0.04800
C 	C 	0.70340 0.81110 0.77480 -0.16500
H 	H 	0.67690 0.79470 0.80820 0.07200
H 	H 	0.73720 0.78880 0.75790 0.10000
C 	C 	0.65230 0.82590 0.71550 -0.01200
C 	C 	0.58770 0.83610 0.73620 -0.04200
H 	H 	0.57600 0.83120 0.78040 0.04500
C 	C 	0.53900 0.85410 0.69030 -0.06100
C 	C 	0.55760 0.85690 0.62650 -0.03800
H 	H 	0.52400 0.86400 0.59360 0.05600
C 	C 	0.62440 0.84950 0.60890 -0.02400
C 	C 	0.64600 0.85490 0.53740 -0.15900
H 	H 	0.68270 0.83250 0.52770 0.08300
H 	H 	0.60670 0.84890 0.50710 0.07400
C 	C 	0.67090 0.90360 0.52910 0.03500
C 	C 	0.62600 0.94120 0.52800 -0.10400
H 	H 	0.57830 0.93540 0.52910 0.06600
C 	C 	0.64970 0.98910 0.52520 0.01300
H 	H 	0.61880 0.01440 0.52020 0.03000
C 	C 	0.72080 0.99610 0.53040 -0.12400
H 	H 	0.73640 0.02730 0.53120 0.07800
C 	C 	0.76980 0.96170 0.53430 0.06900
C 	C 	0.83700 0.97250 0.53420 -0.17100
H 	H 	0.84540 0.00090 0.50830 0.07200
H 	H 	0.86440 0.94660 0.51690 0.08900
C 	C 	0.85540 0.98190 0.62000 -0.03800
C 	C 	0.85600 0.03010 0.63700 -0.01700
H 	H 	0.84440 0.05410 0.60670 0.04000
C 	C 	0.87500 0.03860 0.70160 -0.10600
C 	C 	0.89250 0.00300 0.74440 -0.01500
H 	H 	0.90980 0.01090 0.78690 0.04400
C 	C 	0.88610 0.95620 0.72810 -0.02600
C 	C 	0.90540 0.91820 0.77100 -0.17500
H 	H 	0.93010 0.89400 0.74670 0.09000
H 	H 	0.93530 0.92940 0.80750 0.08100
C 	C 	0.84390 0.90010 0.79520 0.05200
C 	C 	0.81000 0.92420 0.84180 -0.12200
H 	H 	0.83210 0.95190 0.85670 0.06300
C 	C 	0.74850 0.91480 0.87090 0.01800
H 	H 	0.73310 0.93470 0.90450 0.00600
C 	C 	0.70900 0.87700 0.85190 -0.12300
H 	H 	0.66540 0.87100 0.86920 0.05800
C 	C 	0.67250 0.83200 0.65330 0.15000
C 	C 	0.80120 0.86150 0.78040 0.07000
C 	C 	0.86710 0.94620 0.66360 0.17000
C 	C 	0.73890 0.91700 0.52950 0.06700
C 	C 	0.47190 0.86940 0.70890 0.26000
C 	C 	0.87340 0.08630 0.72370 0.33600
C 	C 	0.88000 0.74930 0.68000 0.11500
H 	H 	0.87660 0.76840 0.63970 -0.00200
H 	H 	0.83280 0.74450 0.69560 0.00600
C 	C 	0.91200 0.70180 0.66400 -0.46200
H 	H 	0.87990 0.68330 0.63770 0.14300
H 	H 	0.92290 0.68530 0.70540 0.14500
H 	H 	0.95400 0.70670 0.64040 0.14400
C 	C 	0.80970 0.86660 0.46500 0.09800
H 	H 	0.82120 0.89390 0.43770 -0.00400
H 	H 	0.77370 0.84870 0.44130 0.00200
C 	C 	0.87350 0.83600 0.47460 -0.26500
H 	H 	0.91250 0.85110 0.45340 0.09500
H 	H 	0.88490 0.83340 0.52190 0.11500
C 	C 	0.28680 0.02400 0.36750 0.13000
H 	H 	0.32300 0.03970 0.34300 -0.00900
H 	H 	0.30810 0.00790 0.40570 -0.00500
C 	C 	0.16710 0.60820 0.71410 0.02000
C 	C 	0.20240 0.56620 0.67900 -0.14400
H 	H 	0.16830 0.55170 0.64870 0.06100
H 	H 	0.21480 0.54270 0.71270 0.06800
C 	C 	0.26850 0.57740 0.63900 -0.03000
C 	C 	0.25790 0.58810 0.57330 -0.04000
H 	H 	0.21450 0.58480 0.55190 0.04800
C 	C 	0.31240 0.60350 0.54220 -0.05000
C 	C 	0.37720 0.60890 0.57090 -0.05400
H 	H 	0.41460 0.61960 0.54650 0.05900
C 	C 	0.38470 0.59750 0.63780 -0.00100
C 	C 	0.45640 0.60350 0.66850 -0.16400
H 	H 	0.46320 0.58070 0.70440 0.09700
H 	H 	0.49080 0.59720 0.63510 0.07400
C 	C 	0.46650 0.65160 0.69470 0.05600
C 	C 	0.47760 0.68840 0.65090 -0.12100
H 	H 	0.48520 0.68230 0.60600 0.06900
C 	C 	0.47720 0.73430 0.67430 0.03100
H 	H 	0.48290 0.75960 0.64520 0.02300
C 	C 	0.46840 0.74210 0.74010 -0.13000
H 	H 	0.47030 0.77320 0.75570 0.08100
C 	C 	0.45750 0.70860 0.78200 0.05600
C 	C 	0.44200 0.71840 0.85330 -0.17100
H 	H 	0.47220 0.74350 0.87030 0.06800
H 	H 	0.45060 0.69010 0.87990 0.07700
C 	C 	0.36700 0.73320 0.85850 -0.01100
C 	C 	0.34730 0.78000 0.86240 -0.04800
H 	H 	0.37980 0.80440 0.86010 0.04200
C 	C 	0.27840 0.78920 0.86970 -0.07800
C 	C 	0.22860 0.75560 0.87520 -0.04600
H 	H 	0.18260 0.76390 0.88280 0.05600
C 	C 	0.24750 0.70950 0.86950 0.01700
C 	C 	0.19720 0.66830 0.87340 -0.19200
H 	H 	0.22140 0.64050 0.89070 0.11300
H 	H 	0.16030 0.67610 0.90370 0.08400
C 	C 	0.16860 0.65860 0.81030 0.06400
C 	C 	0.12300 0.68620 0.77230 -0.12100
H 	H 	0.10540 0.71270 0.79390 0.06100
C 	C 	0.10070 0.68040 0.70920 0.01700
H 	H 	0.07100 0.70130 0.68640 -0.00100
C 	C 	0.12570 0.64160 0.68340 -0.11500
H 	H 	0.11380 0.63610 0.63870 0.04800
C 	C 	0.33030 0.58370 0.67300 0.15300
C 	C 	0.18790 0.61740 0.77800 0.04900
C 	C 	0.31590 0.69940 0.86130 0.11100
C 	C 	0.46130 0.66360 0.75880 0.04000
C 	C 	0.29980 0.61830 0.47050 0.28300
C 	C 	0.26120 0.84140 0.86890 0.36500
C 	C 	0.31200 0.97180 0.23140 0.03000
C 	C 	0.27840 0.01320 0.19330 -0.15900
H 	H 	0.26620 0.03780 0.22480 0.08000
H 	H 	0.31180 0.02640 0.16310 0.06900
C 	C 	0.21600 0.99890 0.15520 -0.00300
C 	C 	0.22660 0.98380 0.09000 -0.06200
H 	H 	0.27120 0.98170 0.07310 0.05400
C 	C 	0.16920 0.97210 0.05180 -0.03900
C 	C 	0.10610 0.97180 0.07710 -0.06600
H 	H 	0.06790 0.96330 0.05010 0.06100
C 	C 	0.09650 0.98360 0.14170 0.01500
C 	C 	0.02390 0.97450 0.17090 -0.17200
H 	H 	0.01660 0.99640 0.20740 0.09700
H 	H 	0.98820 0.98050 0.13670 0.06800
C 	C 	0.01700 0.92730 0.19450 0.05800
C 	C 	0.00260 0.89240 0.14690 -0.12000
H 	H 	0.99390 0.90010 0.10230 0.06700
C 	C 	0.00150 0.84620 0.16860 0.02500
H 	H 	0.99230 0.82210 0.13780 0.02500
C 	C 	0.01380 0.83450 0.23480 -0.12400
H 	H 	0.01460 0.80270 0.24750 0.07900
C 	C 	0.02420 0.86780 0.28020 0.05100
C 	C 	0.03900 0.85330 0.34810 -0.16100
H 	H 	0.01180 0.82530 0.35810 0.06100
H 	H 	0.02570 0.87840 0.37830 0.07200
C 	C 	0.11650 0.84230 0.35880 -0.02600
C 	C 	0.13710 0.79700 0.35550 -0.03400
H 	H 	0.10470 0.77290 0.34740 0.03700
C 	C 	0.20520 0.78640 0.36380 -0.07800
C 	C 	0.25370 0.82090 0.37770 -0.05300
H 	H 	0.29990 0.81260 0.38650 0.05700
C 	C 	0.23440 0.86800 0.37860 0.02200
C 	C 	0.28590 0.90310 0.39090 -0.17400
H 	H 	0.32360 0.88970 0.41800 0.08100
H 	H 	0.26590 0.92920 0.41560 0.10200
C 	C 	0.31380 0.92140 0.32700 0.05000
C 	C 	0.35750 0.89220 0.29200 -0.10500
H 	H 	0.37400 0.86460 0.31260 0.06000
C 	C 	0.37750 0.90180 0.22910 -0.00200
H 	H 	0.40520 0.88030 0.20660 0.01300
C 	C 	0.35640 0.94450 0.19760 -0.10500
H 	H 	0.37230 0.95320 0.15590 0.04700
C 	C 	0.15300 0.99610 0.17810 0.11200
C 	C 	0.29480 0.96150 0.29350 0.05100
C 	C 	0.16440 0.87660 0.36850 0.12600
C 	C 	0.02440 0.91280 0.25840 0.03800
C 	C 	0.18420 0.95600 0.98190 0.26800
C 	C 	0.23320 0.73680 0.36190 0.34400
C 	C 	0.77050 0.10510 0.85490 -0.05000
H 	H 	0.79000 0.08270 0.82680 0.03900
C 	C 	0.73280 0.09000 0.90200 0.07900
C 	C 	0.70380 0.12390 0.94780 0.06000
C 	C 	0.71600 0.17090 0.93420 -0.01700
C 	C 	0.68610 0.20740 0.97550 -0.07200
H 	H 	0.65890 0.20000 0.01180 0.05200
C 	C 	0.69920 0.25060 0.95960 0.00600
H 	H 	0.67750 0.27440 0.98390 0.01500
C 	C 	0.74090 0.26430 0.91150 -0.08100
C 	C 	0.75270 0.31090 0.89530 0.11500
C 	C 	0.79160 0.32260 0.84360 0.01800
C 	C 	0.81750 0.28660 0.80830 -0.00600
H 	H 	0.84670 0.29410 0.77350 0.02600
C 	C 	0.76860 0.23380 0.87110 0.06500
C 	C 	0.75200 0.18250 0.88220 0.02300
C 	C 	0.72950 0.03740 0.90650 -0.44200
H 	H 	0.70020 0.02850 0.94250 0.14100
H 	H 	0.77550 0.02500 0.91470 0.14800
H 	H 	0.71070 0.02470 0.86530 0.15400
C 	C 	0.64780 0.11200 0.99600 -0.44100
H 	H 	0.64500 0.07820 0.00110 0.14500
H 	H 	0.60390 0.12390 0.97910 0.14800
H 	H 	0.65870 0.12630 0.03860 0.17000
C 	C 	0.72600 0.34900 0.93690 -0.49400
H 	H 	0.69950 0.33550 0.97220 0.16800
H 	H 	0.69670 0.36950 0.91010 0.16300
H 	H 	0.76430 0.36690 0.95580 0.17900
C 	C 	0.81150 0.37430 0.81900 -0.41600
H 	H 	0.83980 0.37200 0.78040 0.16000
H 	H 	0.83700 0.39060 0.85410 0.15600
H 	H 	0.76980 0.39170 0.80780 0.15500
C 	C 	0.30390 0.79230 0.69760 -0.06700
H 	H 	0.33040 0.78230 0.73470 0.04800
C 	C 	0.27860 0.75880 0.65450 0.10700
C 	C 	0.23880 0.77350 0.59870 0.04000
C 	C 	0.22660 0.82070 0.58940 -0.02500
C 	C 	0.18910 0.84420 0.53820 -0.05100
H 	H 	0.16940 0.82500 0.50490 0.04200
C 	C 	0.17900 0.88780 0.53170 -0.02800
H 	H 	0.15220 0.89850 0.49530 0.03900
C 	C 	0.20500 0.91960 0.57510 -0.05100
C 	C 	0.19430 0.96970 0.56860 0.09200
C 	C 	0.22350 0.99460 0.61600 0.05000
C 	C 	0.25900 0.97650 0.66460 -0.04400
H 	H 	0.27810 0.99740 0.69610 0.03800
C 	C 	0.24380 0.90310 0.62980 0.06400
C 	C 	0.25420 0.85300 0.63590 0.02300
C 	C 	0.28920 0.70870 0.67110 -0.50700
H 	H 	0.28970 0.70490 0.71880 0.18400
H 	H 	0.33280 0.69820 0.65410 0.18300
H 	H 	0.25200 0.69020 0.65140 0.17400
C 	C 	0.21450 0.73540 0.55090 -0.42100
H 	H 	0.20050 0.70790 0.57550 0.13900
H 	H 	0.25180 0.72700 0.52220 0.15900
H 	H 	0.17570 0.74690 0.52430 0.14400
C 	C 	0.15260 0.98650 0.51090 -0.47700
H 	H 	0.10410 0.98570 0.52120 0.15800
H 	H 	0.16060 0.96640 0.47320 0.18000
H 	H 	0.16580 0.01850 0.50040 0.15400
C 	C 	0.21560 0.04860 0.61360 -0.41900
H 	H 	0.22390 0.06150 0.65740 0.14800
H 	H 	0.16920 0.05650 0.59820 0.13800
H 	H 	0.24860 0.06160 0.58350 0.14300
C 	C 	0.35850 0.71900 0.24790 -0.07600
H 	H 	0.33930 0.74370 0.27230 0.05100
C 	C 	0.39920 0.72870 0.19930 0.10800
C 	C 	0.42780 0.70120 0.16200 0.02800
C 	C 	0.41410 0.65090 0.17610 -0.02100
C 	C 	0.45180 0.61200 0.14410 -0.05500
H 	H 	0.48310 0.61870 0.11080 0.04400
C 	C 	0.44130 0.56790 0.16230 -0.02700
H 	H 	0.46420 0.54370 0.14030 0.03200
C 	C 	0.39830 0.55650 0.21200 -0.04300
C 	C 	0.38620 0.51120 0.22830 0.06500
C 	C 	0.33680 0.50130 0.27880 0.09900
C 	C 	0.30610 0.53820 0.30770 -0.05100
H 	H 	0.27380 0.53140 0.34010 0.04000
C 	C 	0.36570 0.58890 0.24440 0.02600
C 	C 	0.37450 0.64050 0.23040 0.04200
C 	C 	0.40040 0.78060 0.19080 -0.46800
H 	H 	0.43570 0.79400 0.22000 0.15800
H 	H 	0.35580 0.79360 0.20150 0.16100
H 	H 	0.41050 0.78810 0.14530 0.15100
C 	C 	0.46930 0.71290 0.10150 -0.39600
H 	H 	0.44820 0.73930 0.07830 0.12800
H 	H 	0.46990 0.68580 0.07230 0.14000
H 	H 	0.51610 0.72090 0.11520 0.14500
C 	C 	0.42250 0.47030 0.19910 -0.45500
H 	H 	0.46260 0.46240 0.22660 0.17100
H 	H 	0.43690 0.47830 0.15500 0.15200
H 	H 	0.39150 0.44360 0.19670 0.15300
C 	C 	0.32130 0.45390 0.30080 -0.50500
H 	H 	0.30790 0.43470 0.26300 0.17500
H 	H 	0.28370 0.45500 0.33150 0.18200
H 	H 	0.36180 0.44050 0.32280 0.18100
C 	C 	0.13610 0.86340 0.74990 -0.06800
H 	H 	0.15890 0.83910 0.77320 0.04500
C 	C 	0.09560 0.85180 0.70130 0.08900
C 	C 	0.06300 0.88420 0.66700 0.03400
C 	C 	0.07260 0.93560 0.68540 -0.00700
C 	C 	0.03930 0.97320 0.65150 -0.06700
H 	H 	0.00930 0.96690 0.61540 0.04600
C 	C 	0.05050 0.01870 0.67090 -0.00500
H 	H 	0.02740 0.04280 0.64750 0.01900
C 	C 	0.09690 0.03160 0.72650 -0.09400
C 	C 	0.11020 0.07360 0.74690 0.15000
C 	C 	0.15460 0.07720 0.79850 0.00900
C 	C 	0.18200 0.03700 0.82570 0.00800
H 	H 	0.21260 0.04070 0.86230 0.01800
C 	C 	0.12980 0.99090 0.75910 0.07500
C 	C 	0.11420 0.94120 0.73450 0.01900
C 	C 	0.08800 0.79980 0.68290 -0.44600
H 	H 	0.13200 0.78780 0.66880 0.15800
H 	H 	0.05390 0.79640 0.64720 0.14300
H 	H 	0.07340 0.78220 0.72110 0.14800
C 	C 	0.01480 0.87440 0.60490 -0.40700
H 	H 	0.98850 0.84590 0.61200 0.13900
H 	H 	0.04260 0.87070 0.56620 0.13900
H 	H 	0.98340 0.90070 0.59820 0.15600
C 	C 	0.07720 0.11360 0.71550 -0.53200
H 	H 	0.11070 0.13090 0.69030 0.17000
H 	H 	0.05850 0.13400 0.74890 0.18800
H 	H 	0.04010 0.10290 0.68600 0.18000
C 	C 	0.17650 0.12640 0.82380 -0.41500
H 	H 	0.21430 0.12320 0.85600 0.15900
H 	H 	0.13780 0.14150 0.84440 0.15500
H 	H 	0.19140 0.14530 0.78700 0.15300
C 	C 	0.87800 0.80260 0.77890 0.07900
H 	H 	0.90800 0.82030 0.81010 0.00600
H 	H 	0.85030 0.78090 0.80440 0.00700
C 	C 	0.92260 0.77520 0.73280 -0.23000
H 	H 	0.95010 0.75230 0.75840 0.08400
H 	H 	0.95440 0.79670 0.71130 0.09100
C 	C 	0.51690 0.61100 0.83110 0.09800
H 	H 	0.54790 0.63720 0.84230 -0.00400
H 	H 	0.53950 0.59020 0.79980 -0.00200
C 	C 	0.49670 0.58490 0.89190 -0.25300
H 	H 	0.47590 0.60700 0.92260 0.09500
H 	H 	0.53840 0.57210 0.91370 0.08900
C 	C 	0.44690 0.54530 0.87850 0.15300
H 	H 	0.40320 0.55830 0.86140 0.00000
H 	H 	0.43790 0.52910 0.92010 -0.03600
C 	C 	0.47400 0.50960 0.82890 -0.49800
H 	H 	0.43960 0.48510 0.82170 0.16000
H 	H 	0.51630 0.49580 0.84610 0.16000
H 	H 	0.48220 0.52530 0.78730 0.18000
C 	C 	0.98090 0.99660 0.39010 -0.24600
H 	H 	0.01230 0.98220 0.42300 0.09300
H 	H 	0.93820 0.00510 0.41190 0.08700
C 	C 	0.96530 0.96210 0.33440 0.08600
H 	H 	0.94160 0.93440 0.35170 -0.00500
H 	H 	0.93510 0.97680 0.30080 -0.00200
C 	C 	0.23300 0.05930 0.38970 -0.30900
H 	H 	0.21500 0.07730 0.35170 0.11700
H 	H 	0.19460 0.04290 0.40990 0.11700
C 	C 	0.26780 0.09200 0.43940 0.21400
H 	H 	0.28240 0.07380 0.47840 -0.04600
H 	H 	0.30910 0.10530 0.42000 -0.03900
C 	C 	0.22270 0.13100 0.46050 -0.56800
H 	H 	0.24760 0.15050 0.49230 0.18400
H 	H 	0.18200 0.11810 0.48070 0.17100
H 	H 	0.20890 0.14970 0.42230 0.17800
C 	C 	0.19300 0.54890 0.84580 -0.07600
H 	H 	0.15770 0.53530 0.81590 0.16900
H 	H 	0.16920 0.56290 0.88300 0.02700
C 	C 	0.01430 0.04080 0.36130 0.12000
H 	H 	0.03420 0.05460 0.40190 -0.01800
H 	H 	0.05370 0.02640 0.33980 0.01900
C 	C 	0.26300 0.47710 0.81800 0.02900
H 	H 	0.22250 0.46220 0.79620 0.05400
H 	H 	0.28560 0.49610 0.78440 0.03200
C 	C 	0.23900 0.50910 0.87230 -0.26700
H 	H 	0.27890 0.52260 0.89580 0.08300
H 	H 	0.21280 0.49060 0.90410 0.08900
C 	C 	0.00600 0.08480 0.31970 -0.48600
H 	H 	0.04930 0.10230 0.32110 0.15500
H 	H 	0.96980 0.10420 0.33700 0.16200
H 	H 	0.99480 0.07620 0.27430 0.16700
C 	C 	0.31200 0.43940 0.84200 -0.42400
H 	H 	0.32150 0.41800 0.80630 0.14100
H 	H 	0.29110 0.42220 0.87790 0.13900
H 	H 	0.35440 0.45380 0.85820 0.13800
C 	C 	0.86390 0.78710 0.44600 0.14400
H 	H 	0.84300 0.78930 0.40160 -0.02300
H 	H 	0.83250 0.76920 0.47370 -0.01900
C 	C 	0.93310 0.76150 0.44300 -0.48700
H 	H 	0.92780 0.73350 0.41620 0.15600
H 	H 	0.94840 0.75270 0.48760 0.15100
H 	H 	0.96700 0.78210 0.42400 0.15600
C 	C 	0.22200 0.46550 0.81400 0.10800
H 	H 	0.22100 0.45350 0.85890 0.00300
H 	H 	0.26910 0.47670 0.80590 0.00100
C 	C 	0.20400 0.42550 0.76500 -0.54000
H 	H 	0.23890 0.40100 0.76920 0.17200
H 	H 	0.20380 0.43770 0.72000 0.17400
H 	H 	0.15950 0.41280 0.77450 0.18500
C 	C 	0.17210 0.50610 0.80600 -0.35500
H 	H 	0.16840 0.51490 0.75890 0.10900
H 	H 	0.12640 0.49580 0.81920 0.10300
H 	H 	0.15150 0.56210 0.86510 -0.00600
H 	H 	0.22350 0.53860 0.88240 0.13900
Cd	Cd	0.13978 0.67935 0.23406 1.22100
Cd	Cd	0.65252 0.39819 0.24957 1.22400
Cd	Cd	0.72715 0.14592 0.65303 1.22200
Cd	Cd	0.78422 0.43083 0.13921 1.22300
O 	O 	0.75250 0.75900 0.10580 -0.38100
H 	H 	0.73940 0.73960 0.07750 0.24400
O 	O 	0.65840 0.74490 0.19980 -0.22100
O 	O 	0.62590 0.67040 0.10220 -0.37100
H 	H 	0.63370 0.68940 0.13280 0.23800
O 	O 	0.69820 0.69210 0.99750 -0.20700
O 	O 	0.03720 0.71560 0.24670 -0.37200
O 	O 	0.05970 0.69390 0.14010 -0.33700
O 	O 	0.67420 0.45920 0.17540 -0.46700
O 	O 	0.59620 0.47620 0.24740 -0.38300
O 	O 	0.26440 0.32000 0.36330 -0.38100
H 	H 	0.25110 0.33780 0.39300 0.24400
O 	O 	0.16790 0.33610 0.25910 -0.22000
O 	O 	0.13760 0.40340 0.35680 -0.40400
H 	H 	0.15400 0.38670 0.32740 0.25400
O 	O 	0.21720 0.38330 0.47100 -0.22000
O 	O 	0.57090 0.38640 0.33520 -0.33300
O 	O 	0.54760 0.36180 0.23310 -0.37800
O 	O 	0.16290 0.61770 0.30290 -0.50200
O 	O 	0.08850 0.60020 0.22830 -0.35700
O 	O 	0.65560 0.07200 0.26530 -0.39100
H 	H 	0.69040 0.07600 0.24290 0.25500
O 	O 	0.77240 0.08620 0.18920 -0.19500
O 	O 	0.66980 0.15200 0.14380 -0.38400
H 	H 	0.63210 0.14850 0.16180 0.25100
O 	O 	0.54930 0.12820 0.19640 -0.21500
O 	O 	0.64490 0.12780 0.56440 -0.33800
O 	O 	0.75560 0.11660 0.55370 -0.40400
O 	O 	0.70660 0.36880 0.15690 -0.55000
O 	O 	0.79720 0.34920 0.10200 -0.36200
O 	O 	0.85990 0.50640 0.75580 -0.37100
H 	H 	0.82490 0.50070 0.73260 0.25100
O 	O 	0.75000 0.49140 0.67390 -0.22500
O 	O 	0.84980 0.42320 0.62970 -0.39000
H 	H 	0.88640 0.42850 0.65070 0.25300
O 	O 	0.96880 0.44770 0.69520 -0.21400
O 	O 	0.75910 0.45780 0.04080 -0.40800
O 	O 	0.86850 0.44210 0.05560 -0.33800
O 	O 	0.80480 0.20710 0.66900 -0.50900
O 	O 	0.71340 0.22660 0.61250 -0.38700
N 	N 	0.21590 0.65140 0.15690 -0.20200
N 	N 	0.19510 0.74180 0.18090 -0.21100
N 	N 	0.70760 0.34030 0.31090 -0.19400
N 	N 	0.72790 0.42760 0.32500 -0.22100
N 	N 	0.65740 0.17030 0.73520 -0.21300
N 	N 	0.68260 0.08320 0.70550 -0.20600
N 	N 	0.85110 0.40970 0.22930 -0.20800
N 	N 	0.82980 0.49490 0.19370 -0.22700
C 	C 	0.75450 0.73290 0.27260 0.06000
C 	C 	0.79050 0.77460 0.24480 -0.16600
H 	H 	0.81800 0.79060 0.27940 0.07100
H 	H 	0.75700 0.79700 0.22590 0.09100
C 	C 	0.83800 0.75530 0.19010 0.00300
C 	C 	0.90460 0.74390 0.21170 -0.06900
H 	H 	0.91920 0.74910 0.25580 0.05600
C 	C 	0.94850 0.72480 0.16700 -0.02100
C 	C 	0.92900 0.72370 0.09960 -0.07200
H 	H 	0.96200 0.71660 0.06790 0.06600
C 	C 	0.86200 0.73300 0.07950 0.00400
C 	C 	0.84060 0.72360 0.01040 -0.18000
H 	H 	0.87900 0.72980 0.98130 0.07900
H 	H 	0.80220 0.74420 0.99730 0.08800
C 	C 	0.81850 0.67280 0.00410 0.05200
C 	C 	0.86910 0.63840 0.00560 -0.11400
H 	H 	0.91550 0.64810 0.00560 0.06800
C 	C 	0.85570 0.59050 0.00700 0.02900
H 	H 	0.89010 0.56720 0.00730 0.02100
C 	C 	0.78620 0.58090 0.00790 -0.12800
H 	H 	0.77480 0.54880 0.00990 0.07900
C 	C 	0.73040 0.61130 0.00620 0.07700
C 	C 	0.66030 0.59690 0.01650 -0.20700
H 	H 	0.62920 0.62130 0.99890 0.10500
H 	H 	0.65110 0.56810 0.99120 0.08000
C 	C 	0.64530 0.58880 0.08160 0.03800
C 	C 	0.64800 0.54400 0.10850 -0.07100
H 	H 	0.66130 0.51860 0.08190 0.05800
C 	C 	0.63120 0.53570 0.17460 -0.06300
C 	C 	0.61230 0.57280 0.21390 -0.04700
H 	H 	0.59850 0.56710 0.25730 0.05500
C 	C 	0.61340 0.61950 0.19000 0.00000
C 	C 	0.59590 0.65790 0.23620 -0.16800
H 	H 	0.56700 0.64540 0.27110 0.08000
H 	H 	0.56960 0.68220 0.21230 0.08400
C 	C 	0.66130 0.67960 0.26750 0.03900
C 	C 	0.69550 0.65580 0.32120 -0.10700
H 	H 	0.67490 0.62840 0.33780 0.05900
C 	C 	0.75600 0.67040 0.34970 0.01500
H 	H 	0.77810 0.65450 0.38500 0.00100
C 	C 	0.78190 0.71090 0.32220 -0.12700
H 	H 	0.82280 0.72330 0.34110 0.06100
C 	C 	0.81620 0.74890 0.12590 0.13400
C 	C 	0.69400 0.71930 0.24880 0.04400
C 	C 	0.63040 0.62590 0.12600 0.11000
C 	C 	0.75210 0.65760 0.00210 0.02700
C 	C 	0.02370 0.70930 0.18260 0.23100
C 	C 	0.62730 0.48810 0.20330 0.31900
C 	C 	0.62310 0.78240 0.22460 0.13100
H 	H 	0.65280 0.80040 0.25530 -0.01000
H 	H 	0.58260 0.77170 0.24810 -0.01000
C 	C 	0.60110 0.81290 0.16470 -0.27200
H 	H 	0.64160 0.82050 0.13900 0.11700
H 	H 	0.56880 0.79520 0.13620 0.10300
C 	C 	0.56690 0.85840 0.18650 0.13400
H 	H 	0.60120 0.88020 0.20530 -0.03000
H 	H 	0.53220 0.85200 0.21960 -0.02300
C 	C 	0.53270 0.87910 0.12300 -0.46900
H 	H 	0.50960 0.90830 0.13360 0.14500
H 	H 	0.49930 0.85690 0.10490 0.14400
H 	H 	0.56770 0.88510 0.09080 0.14400
C 	C 	0.68170 0.69980 0.93190 0.12000
H 	H 	0.67050 0.67010 0.90950 -0.00700
H 	H 	0.72020 0.71470 0.90960 -0.00600
C 	C 	0.61970 0.73190 0.93150 -0.24700
H 	H 	0.58170 0.71670 0.95420 0.10300
H 	H 	0.60440 0.73840 0.88580 0.09100
C 	C 	0.63900 0.77730 0.96620 0.11400
H 	H 	0.67730 0.79240 0.94380 -0.00800
H 	H 	0.65380 0.77080 0.01200 0.00700
C 	C 	0.57520 0.81030 0.96480 -0.45400
H 	H 	0.58730 0.83980 0.98620 0.14200
H 	H 	0.53800 0.79550 0.98810 0.14400
H 	H 	0.56050 0.81620 0.91930 0.14800
C 	C 	0.26140 0.34820 0.19500 0.04800
C 	C 	0.29660 0.31110 0.22520 -0.16500
H 	H 	0.32310 0.29470 0.19180 0.07200
H 	H 	0.26280 0.28880 0.24210 0.10000
C 	C 	0.34770 0.32590 0.28450 -0.01200
C 	C 	0.41230 0.33610 0.26380 -0.04200
H 	H 	0.42400 0.33120 0.21960 0.04500
C 	C 	0.46100 0.35410 0.30970 -0.06100
C 	C 	0.44240 0.35690 0.37350 -0.03800
H 	H 	0.47600 0.36400 0.40640 0.05600
C 	C 	0.37560 0.34950 0.39110 -0.02400
C 	C 	0.35400 0.35490 0.46260 -0.15900
H 	H 	0.31730 0.33250 0.47230 0.08300
H 	H 	0.39330 0.34890 0.49290 0.07400
C 	C 	0.32910 0.40360 0.47090 0.03500
C 	C 	0.37400 0.44120 0.47200 -0.10400
H 	H 	0.42170 0.43540 0.47090 0.06600
C 	C 	0.35030 0.48910 0.47480 0.01300
H 	H 	0.38120 0.51440 0.47980 0.03000
C 	C 	0.27920 0.49610 0.46960 -0.12300
H 	H 	0.26360 0.52730 0.46880 0.07700
C 	C 	0.23020 0.46170 0.46570 0.06800
C 	C 	0.16300 0.47250 0.46580 -0.16900
H 	H 	0.15460 0.50090 0.49170 0.07100
H 	H 	0.13560 0.44660 0.48310 0.08900
C 	C 	0.14460 0.48190 0.38000 -0.03700
C 	C 	0.14400 0.53010 0.36300 -0.01800
H 	H 	0.15560 0.55410 0.39330 0.04000
C 	C 	0.12500 0.53860 0.29840 -0.10500
C 	C 	0.10750 0.50300 0.25560 -0.01600
H 	H 	0.09020 0.51090 0.21310 0.04500
C 	C 	0.11390 0.45620 0.27190 -0.02400
C 	C 	0.09460 0.41820 0.22900 -0.17600
H 	H 	0.06990 0.39400 0.25330 0.09100
H 	H 	0.06470 0.42940 0.19250 0.08100
C 	C 	0.15610 0.40010 0.20480 0.05300
C 	C 	0.19000 0.42420 0.15820 -0.12200
H 	H 	0.16790 0.45190 0.14330 0.06300
C 	C 	0.25150 0.41480 0.12910 0.01800
H 	H 	0.26690 0.43470 0.09550 0.00600
C 	C 	0.29100 0.37700 0.14810 -0.12300
H 	H 	0.33460 0.37100 0.13080 0.05800
C 	C 	0.32750 0.33200 0.34670 0.15000
C 	C 	0.19880 0.36150 0.21960 0.06900
C 	C 	0.13290 0.44620 0.33640 0.17000
C 	C 	0.26110 0.41700 0.47050 0.06700
C 	C 	0.52810 0.36940 0.29110 0.26000
C 	C 	0.12660 0.58630 0.27630 0.33600
C 	C 	0.12000 0.24930 0.32000 0.11400
H 	H 	0.12340 0.26840 0.36030 -0.00200
H 	H 	0.16720 0.24450 0.30440 0.00600
C 	C 	0.08800 0.20180 0.33600 -0.46200
H 	H 	0.12010 0.18330 0.36230 0.14300
H 	H 	0.07710 0.18530 0.29460 0.14500
H 	H 	0.04600 0.20670 0.35960 0.14400
C 	C 	0.19030 0.36660 0.53500 0.09800
H 	H 	0.17880 0.39390 0.56230 -0.00400
H 	H 	0.22630 0.34870 0.55870 0.00200
C 	C 	0.12650 0.33600 0.52540 -0.26500
H 	H 	0.08750 0.35110 0.54660 0.09500
H 	H 	0.11510 0.33340 0.47810 0.11500
C 	C 	0.71320 0.52400 0.63250 0.13000
H 	H 	0.67700 0.53970 0.65700 -0.00900
H 	H 	0.69190 0.50790 0.59430 -0.00500
C 	C 	0.83290 0.10820 0.28590 0.02000
C 	C 	0.79760 0.06620 0.32100 -0.14500
H 	H 	0.83170 0.05170 0.35130 0.06100
H 	H 	0.78520 0.04270 0.28730 0.06800
C 	C 	0.73150 0.07740 0.36100 -0.03000
C 	C 	0.74210 0.08810 0.42670 -0.04000
H 	H 	0.78550 0.08480 0.44810 0.04800
C 	C 	0.68760 0.10350 0.45780 -0.04900
C 	C 	0.62280 0.10890 0.42910 -0.05400
H 	H 	0.58540 0.11960 0.45350 0.05900
C 	C 	0.61530 0.09750 0.36220 -0.00100
C 	C 	0.54360 0.10350 0.33150 -0.16400
H 	H 	0.53680 0.08070 0.29560 0.09700
H 	H 	0.50920 0.09720 0.36490 0.07400
C 	C 	0.53350 0.15160 0.30530 0.05600
C 	C 	0.52240 0.18840 0.34910 -0.12100
H 	H 	0.51480 0.18230 0.39400 0.07000
C 	C 	0.52280 0.23430 0.32570 0.03100
H 	H 	0.51710 0.25960 0.35480 0.02300
C 	C 	0.53160 0.24210 0.25990 -0.13000
H 	H 	0.52970 0.27320 0.24430 0.08100
C 	C 	0.54250 0.20860 0.21800 0.05600
C 	C 	0.55800 0.21840 0.14670 -0.17100
H 	H 	0.52780 0.24350 0.12970 0.06800
H 	H 	0.54940 0.19010 0.12010 0.07700
C 	C 	0.63300 0.23320 0.14150 -0.01100
C 	C 	0.65270 0.28000 0.13760 -0.04800
H 	H 	0.62020 0.30440 0.13990 0.04200
C 	C 	0.72160 0.28920 0.13030 -0.07800
C 	C 	0.77140 0.25560 0.12480 -0.04600
H 	H 	0.81740 0.26390 0.11720 0.05600
C 	C 	0.75250 0.20950 0.13050 0.01700
C 	C 	0.80280 0.16830 0.12660 -0.19200
H 	H 	0.77860 0.14050 0.10930 0.11300
H 	H 	0.83970 0.17610 0.09630 0.08400
C 	C 	0.83140 0.15860 0.18970 0.06400
C 	C 	0.87700 0.18620 0.22770 -0.12100
H 	H 	0.89460 0.21270 0.20610 0.06100
C 	C 	0.89930 0.18040 0.29080 0.01700
H 	H 	0.92900 0.20130 0.31360 -0.00100
C 	C 	0.87430 0.14160 0.31660 -0.11600
H 	H 	0.88620 0.13610 0.36130 0.04800
C 	C 	0.66970 0.08370 0.32700 0.15300
C 	C 	0.81210 0.11740 0.22200 0.04900
C 	C 	0.68410 0.19940 0.13870 0.11100
C 	C 	0.53870 0.16360 0.24120 0.04000
C 	C 	0.70020 0.11830 0.52950 0.28300
C 	C 	0.73880 0.34140 0.13110 0.36500
C 	C 	0.68800 0.47180 0.76860 0.03100
C 	C 	0.72160 0.51320 0.80670 -0.16000
H 	H 	0.73380 0.53780 0.77520 0.08000
H 	H 	0.68820 0.52640 0.83690 0.06900
C 	C 	0.78400 0.49890 0.84480 -0.00200
C 	C 	0.77340 0.48380 0.91000 -0.06200
H 	H 	0.72880 0.48170 0.92690 0.05400
C 	C 	0.83080 0.47210 0.94820 -0.03900
C 	C 	0.89390 0.47180 0.92290 -0.06600
H 	H 	0.93210 0.46330 0.94990 0.06100
C 	C 	0.90350 0.48360 0.85830 0.01500
C 	C 	0.97610 0.47450 0.82910 -0.17200
H 	H 	0.98340 0.49640 0.79260 0.09700
H 	H 	0.01180 0.48050 0.86330 0.06800
C 	C 	0.98300 0.42730 0.80550 0.05800
C 	C 	0.99740 0.39240 0.85310 -0.12000
H 	H 	0.00610 0.40010 0.89770 0.06800
C 	C 	0.99850 0.34620 0.83140 0.02500
H 	H 	0.00770 0.32210 0.86220 0.02500
C 	C 	0.98620 0.33450 0.76520 -0.12500
H 	H 	0.98540 0.30270 0.75250 0.07900
C 	C 	0.97580 0.36780 0.71980 0.05100
C 	C 	0.96100 0.35330 0.65190 -0.16100
H 	H 	0.98820 0.32530 0.64190 0.06100
H 	H 	0.97430 0.37840 0.62170 0.07200
C 	C 	0.88350 0.34230 0.64120 -0.02600
C 	C 	0.86290 0.29700 0.64450 -0.03400
H 	H 	0.89530 0.27290 0.65260 0.03800
C 	C 	0.79480 0.28640 0.63620 -0.07800
C 	C 	0.74630 0.32090 0.62230 -0.05300
H 	H 	0.70010 0.31260 0.61350 0.05700
C 	C 	0.76560 0.36800 0.62140 0.02300
C 	C 	0.71410 0.40310 0.60910 -0.17500
H 	H 	0.67640 0.38970 0.58200 0.08100
H 	H 	0.73410 0.42920 0.58440 0.10300
C 	C 	0.68620 0.42140 0.67300 0.05000
C 	C 	0.64250 0.39220 0.70800 -0.10500
H 	H 	0.62600 0.36460 0.68740 0.06000
C 	C 	0.62250 0.40180 0.77090 -0.00100
H 	H 	0.59480 0.38030 0.79340 0.01200
C 	C 	0.64360 0.44450 0.80240 -0.10500
H 	H 	0.62770 0.45320 0.84410 0.04700
C 	C 	0.84700 0.49610 0.82190 0.11200
C 	C 	0.70520 0.46150 0.70650 0.05100
C 	C 	0.83560 0.37660 0.63150 0.12600
C 	C 	0.97560 0.41280 0.74160 0.03800
C 	C 	0.81580 0.45600 0.01810 0.26800
C 	C 	0.76680 0.23680 0.63810 0.34400
C 	C 	0.22950 0.60510 0.14510 -0.05000
H 	H 	0.21000 0.58270 0.17320 0.03900
C 	C 	0.26720 0.59000 0.09800 0.07900
C 	C 	0.29620 0.62390 0.05220 0.06000
C 	C 	0.28400 0.67090 0.06580 -0.01700
C 	C 	0.31390 0.70740 0.02450 -0.07200
H 	H 	0.34110 0.70000 0.98820 0.05200
C 	C 	0.30080 0.75060 0.04040 0.00600
H 	H 	0.32250 0.77440 0.01610 0.01500
C 	C 	0.25910 0.76430 0.08850 -0.08100
C 	C 	0.24730 0.81090 0.10470 0.11500
C 	C 	0.20840 0.82260 0.15640 0.01800
C 	C 	0.18250 0.78660 0.19170 -0.00600
H 	H 	0.15330 0.79410 0.22650 0.02600
C 	C 	0.23140 0.73380 0.12890 0.06500
C 	C 	0.24800 0.68250 0.11780 0.02300
C 	C 	0.27050 0.53740 0.09350 -0.44100
H 	H 	0.29980 0.52850 0.05750 0.14100
H 	H 	0.22450 0.52500 0.08530 0.14800
H 	H 	0.28930 0.52470 0.13470 0.15400
C 	C 	0.35220 0.61200 0.00400 -0.44100
H 	H 	0.35500 0.57820 0.99890 0.14500
H 	H 	0.39610 0.62390 0.02090 0.14800
H 	H 	0.34130 0.62630 0.96140 0.17000
C 	C 	0.27400 0.84900 0.06310 -0.49400
H 	H 	0.30050 0.83550 0.02780 0.16800
H 	H 	0.30330 0.86950 0.08990 0.16300
H 	H 	0.23570 0.86690 0.04420 0.17900
C 	C 	0.18850 0.87430 0.18100 -0.41600
H 	H 	0.16020 0.87200 0.21960 0.16000
H 	H 	0.16300 0.89060 0.14590 0.15600
H 	H 	0.23020 0.89170 0.19220 0.15500
C 	C 	0.69610 0.29230 0.30240 -0.06700
H 	H 	0.66960 0.28230 0.26530 0.04800
C 	C 	0.72140 0.25880 0.34550 0.10700
C 	C 	0.76120 0.27350 0.40130 0.04000
C 	C 	0.77340 0.32070 0.41060 -0.02500
C 	C 	0.81090 0.34420 0.46180 -0.05100
H 	H 	0.83060 0.32500 0.49510 0.04200
C 	C 	0.82100 0.38780 0.46830 -0.02800
H 	H 	0.84780 0.39850 0.50470 0.03900
C 	C 	0.79500 0.41960 0.42490 -0.05100
C 	C 	0.80570 0.46970 0.43140 0.09200
C 	C 	0.77650 0.49460 0.38400 0.05100
C 	C 	0.74100 0.47650 0.33540 -0.04400
H 	H 	0.72190 0.49740 0.30390 0.03800
C 	C 	0.75620 0.40310 0.37020 0.06400
C 	C 	0.74580 0.35300 0.36410 0.02400
C 	C 	0.71080 0.20870 0.32890 -0.50700
H 	H 	0.71030 0.20490 0.28120 0.18400
H 	H 	0.66720 0.19820 0.34590 0.18300
H 	H 	0.74800 0.19020 0.34860 0.17400
C 	C 	0.78550 0.23540 0.44910 -0.42100
H 	H 	0.79950 0.20790 0.42450 0.13900
H 	H 	0.74820 0.22700 0.47780 0.15900
H 	H 	0.82430 0.24690 0.47570 0.14400
C 	C 	0.84740 0.48650 0.48910 -0.47600
H 	H 	0.89590 0.48570 0.47880 0.15800
H 	H 	0.83940 0.46640 0.52680 0.18000
H 	H 	0.83420 0.51850 0.49960 0.15400
C 	C 	0.78440 0.54860 0.38640 -0.41900
H 	H 	0.77610 0.56150 0.34260 0.14800
H 	H 	0.83080 0.55650 0.40180 0.13800
H 	H 	0.75140 0.56160 0.41650 0.14300
C 	C 	0.64150 0.21900 0.75210 -0.07600
H 	H 	0.66070 0.24370 0.72770 0.05100
C 	C 	0.60080 0.22870 0.80070 0.10800
C 	C 	0.57220 0.20120 0.83800 0.02800
C 	C 	0.58590 0.15090 0.82390 -0.02100
C 	C 	0.54820 0.11200 0.85590 -0.05500
H 	H 	0.51690 0.11870 0.88920 0.04300
C 	C 	0.55870 0.06790 0.83770 -0.02700
H 	H 	0.53580 0.04370 0.85970 0.03200
C 	C 	0.60170 0.05650 0.78800 -0.04300
C 	C 	0.61380 0.01120 0.77170 0.06500
C 	C 	0.66320 0.00130 0.72120 0.10000
C 	C 	0.69390 0.03820 0.69230 -0.05100
H 	H 	0.72620 0.03140 0.65990 0.04000
C 	C 	0.63430 0.08890 0.75560 0.02600
C 	C 	0.62550 0.14050 0.76960 0.04200
C 	C 	0.59960 0.28060 0.80920 -0.46800
H 	H 	0.56430 0.29400 0.78000 0.15800
H 	H 	0.64420 0.29360 0.79850 0.16100
H 	H 	0.58950 0.28810 0.85470 0.15100
C 	C 	0.53070 0.21290 0.89850 -0.39600
H 	H 	0.55180 0.23930 0.92170 0.12800
H 	H 	0.53010 0.18580 0.92770 0.14000
H 	H 	0.48390 0.22090 0.88480 0.14500
C 	C 	0.57750 0.97030 0.80090 -0.45600
H 	H 	0.53740 0.96240 0.77340 0.17200
H 	H 	0.56310 0.97830 0.84500 0.15200
H 	H 	0.60850 0.94360 0.80330 0.15300
C 	C 	0.67870 0.95390 0.69920 -0.50600
H 	H 	0.69210 0.93470 0.73700 0.17500
H 	H 	0.71630 0.95500 0.66850 0.18200
H 	H 	0.63820 0.94050 0.67720 0.18100
C 	C 	0.86390 0.36340 0.25010 -0.06800
H 	H 	0.84110 0.33910 0.22680 0.04500
C 	C 	0.90440 0.35180 0.29870 0.08900
C 	C 	0.93700 0.38420 0.33300 0.03400
C 	C 	0.92740 0.43560 0.31460 -0.00700
C 	C 	0.96070 0.47320 0.34850 -0.06700
H 	H 	0.99070 0.46690 0.38460 0.04600
C 	C 	0.94950 0.51870 0.32910 -0.00500
H 	H 	0.97260 0.54280 0.35250 0.01900
C 	C 	0.90310 0.53160 0.27350 -0.09500
C 	C 	0.88980 0.57360 0.25310 0.15000
C 	C 	0.84540 0.57720 0.20150 0.00900
C 	C 	0.81800 0.53700 0.17430 0.00800
H 	H 	0.78740 0.54070 0.13770 0.01800
C 	C 	0.87020 0.49090 0.24090 0.07500
C 	C 	0.88580 0.44120 0.26550 0.01900
C 	C 	0.91200 0.29980 0.31710 -0.44700
H 	H 	0.86800 0.28780 0.33120 0.15800
H 	H 	0.94610 0.29640 0.35280 0.14300
H 	H 	0.92660 0.28220 0.27890 0.14800
C 	C 	0.98520 0.37440 0.39510 -0.40700
H 	H 	0.01150 0.34590 0.38800 0.13900
H 	H 	0.95740 0.37070 0.43380 0.13900
H 	H 	0.01660 0.40070 0.40180 0.15600
C 	C 	0.92280 0.61360 0.28450 -0.53200
H 	H 	0.88930 0.63090 0.30970 0.17100
H 	H 	0.94150 0.63400 0.25110 0.18800
H 	H 	0.95990 0.60290 0.31400 0.18000
C 	C 	0.82350 0.62640 0.17620 -0.41500
H 	H 	0.78570 0.62320 0.14400 0.15900
H 	H 	0.86220 0.64150 0.15560 0.15500
H 	H 	0.80860 0.64530 0.21300 0.15300
C 	C 	0.12200 0.30260 0.22110 0.07900
H 	H 	0.09200 0.32030 0.18990 0.00600
H 	H 	0.14970 0.28090 0.19560 0.00700
C 	C 	0.07740 0.27520 0.26720 -0.23000
H 	H 	0.04990 0.25230 0.24160 0.08400
H 	H 	0.04560 0.29670 0.28870 0.09100
C 	C 	0.48310 0.11100 0.16890 0.09800
H 	H 	0.45210 0.13720 0.15770 -0.00400
H 	H 	0.46050 0.09020 0.20020 -0.00200
C 	C 	0.50330 0.08490 0.10810 -0.25200
H 	H 	0.52410 0.10700 0.07740 0.09400
H 	H 	0.46160 0.07210 0.08630 0.08900
C 	C 	0.55310 0.04530 0.12150 0.15100
H 	H 	0.59680 0.05830 0.13860 0.00100
H 	H 	0.56210 0.02910 0.07990 -0.03500
C 	C 	0.52600 0.00960 0.17110 -0.49300
H 	H 	0.56040 0.98510 0.17830 0.15900
H 	H 	0.48370 0.99580 0.15390 0.15900
H 	H 	0.51780 0.02530 0.21270 0.17900
C 	C 	0.01910 0.49660 0.60990 -0.24200
H 	H 	0.98770 0.48220 0.57700 0.09200
H 	H 	0.06180 0.50510 0.58810 0.08500
C 	C 	0.03470 0.46210 0.66560 0.08500
H 	H 	0.05840 0.43440 0.64830 -0.00500
H 	H 	0.06490 0.47680 0.69920 -0.00200
C 	C 	0.76700 0.55930 0.61030 -0.30900
H 	H 	0.78500 0.57730 0.64830 0.11700
H 	H 	0.80540 0.54290 0.59010 0.11600
C 	C 	0.73220 0.59200 0.56060 0.21400
H 	H 	0.71760 0.57380 0.52160 -0.04600
H 	H 	0.69090 0.60530 0.58000 -0.03900
C 	C 	0.77730 0.63100 0.53950 -0.56800
H 	H 	0.75240 0.65050 0.50770 0.18400
H 	H 	0.81800 0.61810 0.51930 0.17100
H 	H 	0.79110 0.64970 0.57770 0.17800
C 	C 	0.80700 0.04890 0.15420 -0.07700
H 	H 	0.84230 0.03530 0.18410 0.16900
H 	H 	0.83080 0.06290 0.11700 0.02700
C 	C 	0.98570 0.54080 0.63870 0.11600
H 	H 	0.96580 0.55460 0.59810 -0.01700
H 	H 	0.94630 0.52640 0.66020 0.02000
C 	C 	0.73700 0.97710 0.18200 0.03000
H 	H 	0.77750 0.96220 0.20380 0.05300
H 	H 	0.71440 0.99610 0.21560 0.03200
C 	C 	0.76100 0.00910 0.12770 -0.26600
H 	H 	0.72110 0.02260 0.10420 0.08300
H 	H 	0.78720 0.99060 0.09590 0.08800
C 	C 	0.99400 0.58480 0.68030 -0.48100
H 	H 	0.95070 0.60230 0.67890 0.15300
H 	H 	0.03020 0.60420 0.66300 0.16100
H 	H 	0.00520 0.57620 0.72570 0.16500
C 	C 	0.68800 0.93940 0.15800 -0.42500
H 	H 	0.67850 0.91800 0.19370 0.14100
H 	H 	0.70890 0.92220 0.12210 0.13900
H 	H 	0.64560 0.95380 0.14180 0.13800
C 	C 	0.13610 0.28710 0.55400 0.14400
H 	H 	0.15700 0.28930 0.59840 -0.02300
H 	H 	0.16750 0.26920 0.52630 -0.01900
C 	C 	0.06690 0.26150 0.55700 -0.48700
H 	H 	0.07220 0.23350 0.58380 0.15600
H 	H 	0.05160 0.25270 0.51240 0.15100
H 	H 	0.03300 0.28210 0.57600 0.15600
C 	C 	0.77800 0.96550 0.18600 0.10900
H 	H 	0.77900 0.95350 0.14110 0.00300
H 	H 	0.73090 0.97670 0.19410 0.00100
C 	C 	0.79600 0.92550 0.23500 -0.54000
H 	H 	0.76110 0.90100 0.23080 0.17200
H 	H 	0.79620 0.93770 0.28000 0.17400
H 	H 	0.84050 0.91280 0.22550 0.18500
C 	C 	0.82790 0.00610 0.19400 -0.35300
H 	H 	0.83160 0.01490 0.24110 0.10800
H 	H 	0.87360 0.99580 0.18080 0.10200
H 	H 	0.84850 0.06210 0.13490 -0.00600
H 	H 	0.77650 0.03860 0.11760 0.13900
