data_crystal

_cell_length_a 27.16830
_cell_length_b 15.38460
_cell_length_c 19.27130
_cell_angle_alpha 90.00000
_cell_angle_beta  98.16200
_cell_angle_gamma 90.00000

_symmetry_space_group_name_	'P 1'
_symmetry_space_group_name_H-M	'P 1'

loop_
_symmetry_equiv_pos_as_xyz
  x,y,z

loop_
_atom_site_label
_atom_site_type_symbol
_atom_site_fract_x
_atom_site_fract_y
_atom_site_fract_z
_atom_site_charge
Br	Br	0.18388 0.64376 0.42336 -0.48000
C 	C 	0.53018 0.81350 0.31630 -0.06300
C 	C 	0.50538 0.74910 0.34870 0.13900
C 	C 	0.53214 0.70080 0.40270 -0.06600
C 	C 	0.58149 0.72260 0.42750 0.05700
H 	H 	0.59930 0.68950 0.46450 -0.01400
C 	C 	0.60506 0.79210 0.39910 -0.21800
C 	C 	0.57943 0.83440 0.34250 0.05900
H 	H 	0.59560 0.87920 0.32040 -0.00100
O 	O 	0.45509 0.73590 0.32990 -0.19400
C 	C 	0.42888 0.79220 0.37310 -0.02300
H 	H 	0.43600 0.85380 0.36350 0.03900
H 	H 	0.44040 0.78070 0.42330 0.03900
C 	C 	0.37373 0.77560 0.35700 0.01900
C 	C 	0.34609 0.77470 0.41160 -0.02500
H 	H 	0.36300 0.78060 0.45800 0.02800
N 	N 	0.29627 0.76570 0.40270 -0.20400
C 	C 	0.27330 0.75680 0.33760 0.00800
H 	H 	0.23820 0.75030 0.33030 0.00600
C 	C 	0.29820 0.75660 0.28020 -0.07300
H 	H 	0.28050 0.75080 0.23430 0.01800
C 	C 	0.34970 0.76480 0.29040 -0.06700
H 	H 	0.36780 0.76290 0.25170 0.05400
C 	C 	0.65810 0.81880 0.43050 0.58600
C 	C 	0.69330 0.74300 0.42470 -0.85400
H 	H 	0.72750 0.76130 0.44130 0.23800
H 	H 	0.69080 0.72450 0.37560 0.26000
H 	H 	0.68440 0.69450 0.45340 0.25300
C 	C 	0.67680 0.89730 0.39190 -0.87100
H 	H 	0.65400 0.94630 0.39370 0.28600
H 	H 	0.67820 0.88170 0.34300 0.26400
H 	H 	0.71000 0.91370 0.41470 0.25500
C 	C 	0.65860 0.84390 0.50780 -0.85300
H 	H 	0.64370 0.79700 0.53220 0.25300
H 	H 	0.63950 0.89750 0.51060 0.26800
H 	H 	0.69300 0.85310 0.52980 0.25100
S 	S 	0.50367 0.62185 0.45109 0.01700
C 	C 	0.47130 0.55060 0.38770 -0.08500
C 	C 	0.49685 0.49670 0.34740 0.15700
C 	C 	0.46976 0.43670 0.30210 -0.08700
C 	C 	0.41910 0.42830 0.30120 0.12100
H 	H 	0.40130 0.38750 0.27020 -0.02400
C 	C 	0.39324 0.47820 0.34460 -0.32700
C 	C 	0.42005 0.54120 0.38570 0.12100
H 	H 	0.40300 0.57900 0.41320 -0.02000
O 	O 	0.54803 0.50090 0.35230 -0.20100
C 	C 	0.57046 0.43760 0.40170 -0.01400
H 	H 	0.55940 0.37870 0.38590 0.03900
H 	H 	0.55980 0.44810 0.44800 0.03500
C 	C 	0.62610 0.44310 0.40820 0.01000
C 	C 	0.65373 0.37260 0.43430 -0.02600
H 	H 	0.63650 0.32070 0.44250 0.02600
N 	N 	0.70376 0.37240 0.44910 -0.20900
C 	C 	0.72732 0.44490 0.43400 0.01100
H 	H 	0.76260 0.44660 0.44420 0.00300
C 	C 	0.70290 0.51680 0.40450 -0.08200
H 	H 	0.72110 0.56600 0.39260 0.02300
C 	C 	0.65130 0.51680 0.39220 -0.07000
H 	H 	0.63360 0.56660 0.37320 0.05500
C 	C 	0.33790 0.46240 0.34810 0.85900
C 	C 	0.33500 0.39070 0.40250 -1.01700
H 	H 	0.35340 0.40870 0.44760 0.30600
H 	H 	0.34950 0.33710 0.38680 0.29700
H 	H 	0.30010 0.38040 0.40780 0.28800
C 	C 	0.31150 0.42540 0.28320 -1.19200
H 	H 	0.32550 0.36820 0.27500 0.36200
H 	H 	0.31520 0.46400 0.24390 0.37100
H 	H 	0.27610 0.41920 0.28750 0.35000
C 	C 	0.31210 0.53770 0.37600 -1.17600
H 	H 	0.32010 0.59110 0.35210 0.36700
H 	H 	0.32310 0.54350 0.42640 0.36000
H 	H 	0.27610 0.52810 0.36770 0.35400
Br	Br	0.68388 0.14376 0.42336 -0.47900
C 	C 	0.03018 0.31350 0.31630 -0.06100
C 	C 	0.00538 0.24910 0.34870 0.13800
C 	C 	0.03214 0.20080 0.40270 -0.06400
C 	C 	0.08149 0.22260 0.42750 0.05700
H 	H 	0.09930 0.18950 0.46450 -0.01300
C 	C 	0.10506 0.29210 0.39910 -0.21700
C 	C 	0.07943 0.33440 0.34250 0.05900
H 	H 	0.09560 0.37920 0.32040 -0.00000
O 	O 	0.95509 0.23590 0.32990 -0.19200
C 	C 	0.92888 0.29220 0.37310 -0.02300
H 	H 	0.93600 0.35380 0.36350 0.03900
H 	H 	0.94040 0.28070 0.42330 0.04000
C 	C 	0.87373 0.27560 0.35700 0.02000
C 	C 	0.84609 0.27470 0.41160 -0.02500
H 	H 	0.86300 0.28060 0.45800 0.02800
N 	N 	0.79627 0.26570 0.40270 -0.20400
C 	C 	0.77330 0.25680 0.33760 0.00800
H 	H 	0.73820 0.25030 0.33030 0.00600
C 	C 	0.79820 0.25660 0.28020 -0.07300
H 	H 	0.78050 0.25080 0.23430 0.01800
C 	C 	0.84970 0.26480 0.29040 -0.06800
H 	H 	0.86780 0.26290 0.25170 0.05400
C 	C 	0.15810 0.31880 0.43050 0.58600
C 	C 	0.19330 0.24300 0.42470 -0.85300
H 	H 	0.22750 0.26130 0.44130 0.23800
H 	H 	0.19080 0.22450 0.37560 0.26000
H 	H 	0.18440 0.19450 0.45340 0.25300
C 	C 	0.17680 0.39730 0.39190 -0.87100
H 	H 	0.15400 0.44630 0.39370 0.28500
H 	H 	0.17820 0.38170 0.34300 0.26400
H 	H 	0.21000 0.41370 0.41470 0.25500
C 	C 	0.15860 0.34390 0.50780 -0.85200
H 	H 	0.14370 0.29700 0.53220 0.25300
H 	H 	0.13950 0.39750 0.51060 0.26700
H 	H 	0.19300 0.35310 0.52980 0.25000
S 	S 	0.00367 0.12185 0.45109 0.01500
C 	C 	0.97130 0.05060 0.38770 -0.08400
C 	C 	0.99685 0.99670 0.34740 0.15800
C 	C 	0.96976 0.93670 0.30210 -0.08600
C 	C 	0.91910 0.92830 0.30120 0.12000
H 	H 	0.90130 0.88750 0.27020 -0.02300
C 	C 	0.89324 0.97820 0.34460 -0.32600
C 	C 	0.92005 0.04120 0.38570 0.12000
H 	H 	0.90300 0.07900 0.41320 -0.02000
O 	O 	0.04803 0.00090 0.35230 -0.20200
C 	C 	0.07046 0.93760 0.40170 -0.01400
H 	H 	0.05940 0.87870 0.38590 0.03800
H 	H 	0.05980 0.94810 0.44800 0.03400
C 	C 	0.12610 0.94310 0.40820 0.01000
C 	C 	0.15373 0.87260 0.43430 -0.02600
H 	H 	0.13650 0.82070 0.44250 0.02600
N 	N 	0.20376 0.87240 0.44910 -0.21000
C 	C 	0.22732 0.94490 0.43400 0.01200
H 	H 	0.26260 0.94660 0.44420 0.00300
C 	C 	0.20290 0.01680 0.40450 -0.08200
H 	H 	0.22110 0.06600 0.39260 0.02300
C 	C 	0.15130 0.01680 0.39220 -0.07000
H 	H 	0.13360 0.06660 0.37320 0.05500
C 	C 	0.83790 0.96240 0.34810 0.85800
C 	C 	0.83500 0.89070 0.40250 -1.01700
H 	H 	0.85340 0.90870 0.44760 0.30600
H 	H 	0.84950 0.83710 0.38680 0.29700
H 	H 	0.80010 0.88040 0.40780 0.28800
C 	C 	0.81150 0.92540 0.28320 -1.19100
H 	H 	0.82550 0.86820 0.27500 0.36200
H 	H 	0.81520 0.96400 0.24390 0.37000
H 	H 	0.77610 0.91920 0.28750 0.35000
C 	C 	0.81210 0.03770 0.37600 -1.17500
H 	H 	0.82010 0.09110 0.35210 0.36600
H 	H 	0.82310 0.04350 0.42640 0.36000
H 	H 	0.77610 0.02810 0.36770 0.35400
Br	Br	0.81612 0.64376 0.07664 -0.49900
C 	C 	0.46982 0.81350 0.18370 -0.05600
C 	C 	0.49462 0.74910 0.15130 0.13300
C 	C 	0.46786 0.70080 0.09730 -0.05600
C 	C 	0.41851 0.72260 0.07250 0.03800
H 	H 	0.40070 0.68950 0.03550 -0.01700
C 	C 	0.39494 0.79210 0.10090 -0.19100
C 	C 	0.42057 0.83440 0.15750 0.04100
H 	H 	0.40440 0.87920 0.17960 0.00600
O 	O 	0.54491 0.73590 0.17010 -0.19300
C 	C 	0.57112 0.79220 0.12690 -0.01700
H 	H 	0.56400 0.85380 0.13650 0.03400
H 	H 	0.55960 0.78070 0.07670 0.03100
C 	C 	0.62627 0.77560 0.14300 0.01300
C 	C 	0.65391 0.77470 0.08840 -0.02300
H 	H 	0.63700 0.78060 0.04200 0.01500
N 	N 	0.70373 0.76570 0.09730 -0.21000
C 	C 	0.72670 0.75680 0.16240 0.00900
H 	H 	0.76180 0.75030 0.16970 0.00600
C 	C 	0.70180 0.75660 0.21980 -0.07600
H 	H 	0.71950 0.75080 0.26570 0.01900
C 	C 	0.65030 0.76480 0.20960 -0.06400
H 	H 	0.63220 0.76290 0.24830 0.05200
C 	C 	0.34190 0.81880 0.06950 0.50000
C 	C 	0.30670 0.74300 0.07530 -0.77300
H 	H 	0.27250 0.76130 0.05870 0.20500
H 	H 	0.30920 0.72450 0.12440 0.23600
H 	H 	0.31560 0.69450 0.04660 0.21800
C 	C 	0.32320 0.89730 0.10810 -0.80100
H 	H 	0.34600 0.94630 0.10630 0.26000
H 	H 	0.32180 0.88170 0.15700 0.24400
H 	H 	0.29000 0.91370 0.08530 0.22800
C 	C 	0.34140 0.84390 0.99220 -0.74500
H 	H 	0.35630 0.79700 0.96780 0.23400
H 	H 	0.36050 0.89750 0.98940 0.25100
H 	H 	0.30700 0.85310 0.97020 0.23000
S 	S 	0.49633 0.62185 0.04891 -0.00900
C 	C 	0.52870 0.55060 0.11230 -0.08200
C 	C 	0.50315 0.49670 0.15260 0.15400
C 	C 	0.53024 0.43670 0.19790 -0.08600
C 	C 	0.58090 0.42830 0.19880 0.11400
H 	H 	0.59870 0.38750 0.22980 -0.02200
C 	C 	0.60676 0.47820 0.15540 -0.31800
C 	C 	0.57995 0.54120 0.11430 0.11100
H 	H 	0.59700 0.57900 0.08680 -0.02300
O 	O 	0.45197 0.50090 0.14770 -0.20300
C 	C 	0.42954 0.43760 0.09830 -0.00500
H 	H 	0.44060 0.37870 0.11410 0.03200
H 	H 	0.44020 0.44810 0.05200 0.02100
C 	C 	0.37390 0.44310 0.09180 0.00100
C 	C 	0.34627 0.37260 0.06570 -0.02800
H 	H 	0.36350 0.32070 0.05750 0.01800
N 	N 	0.29624 0.37240 0.05090 -0.21600
C 	C 	0.27268 0.44490 0.06600 0.00700
H 	H 	0.23740 0.44660 0.05580 -0.00500
C 	C 	0.29710 0.51680 0.09550 -0.08800
H 	H 	0.27890 0.56600 0.10740 0.02200
C 	C 	0.34870 0.51680 0.10780 -0.07000
H 	H 	0.36640 0.56660 0.12680 0.05400
C 	C 	0.66210 0.46240 0.15190 0.83400
C 	C 	0.66500 0.39070 0.09750 -0.98200
H 	H 	0.64660 0.40870 0.05240 0.28400
H 	H 	0.65050 0.33710 0.11320 0.28200
H 	H 	0.69990 0.38040 0.09220 0.27400
C 	C 	0.68850 0.42540 0.21680 -1.16800
H 	H 	0.67450 0.36820 0.22500 0.35500
H 	H 	0.68480 0.46400 0.25610 0.36400
H 	H 	0.72390 0.41920 0.21250 0.34400
C 	C 	0.68790 0.53770 0.12400 -1.14500
H 	H 	0.67990 0.59110 0.14790 0.35700
H 	H 	0.67690 0.54350 0.07360 0.34200
H 	H 	0.72390 0.52810 0.13230 0.34300
Br	Br	0.31612 0.14376 0.07664 -0.49700
C 	C 	0.96982 0.31350 0.18370 -0.05500
C 	C 	0.99462 0.24910 0.15130 0.13500
C 	C 	0.96786 0.20080 0.09730 -0.05700
C 	C 	0.91851 0.22260 0.07250 0.03900
H 	H 	0.90070 0.18950 0.03550 -0.01600
C 	C 	0.89494 0.29210 0.10090 -0.19300
C 	C 	0.92057 0.33440 0.15750 0.04200
H 	H 	0.90440 0.37920 0.17960 0.00600
O 	O 	0.04491 0.23590 0.17010 -0.19400
C 	C 	0.07112 0.29220 0.12690 -0.01700
H 	H 	0.06400 0.35380 0.13650 0.03400
H 	H 	0.05960 0.28070 0.07670 0.03100
C 	C 	0.12627 0.27560 0.14300 0.01300
C 	C 	0.15391 0.27470 0.08840 -0.02300
H 	H 	0.13700 0.28060 0.04200 0.01600
N 	N 	0.20373 0.26570 0.09730 -0.21000
C 	C 	0.22670 0.25680 0.16240 0.00900
H 	H 	0.26180 0.25030 0.16970 0.00600
C 	C 	0.20180 0.25660 0.21980 -0.07600
H 	H 	0.21950 0.25080 0.26570 0.01900
C 	C 	0.15030 0.26480 0.20960 -0.06400
H 	H 	0.13220 0.26290 0.24830 0.05200
C 	C 	0.84190 0.31880 0.06950 0.50500
C 	C 	0.80670 0.24300 0.07530 -0.77800
H 	H 	0.77250 0.26130 0.05870 0.20700
H 	H 	0.80920 0.22450 0.12440 0.23800
H 	H 	0.81560 0.19450 0.04660 0.22100
C 	C 	0.82320 0.39730 0.10810 -0.80500
H 	H 	0.84600 0.44630 0.10630 0.26100
H 	H 	0.82180 0.38170 0.15700 0.24600
H 	H 	0.79000 0.41370 0.08530 0.23000
C 	C 	0.84140 0.34390 0.99220 -0.75100
H 	H 	0.85630 0.29700 0.96780 0.23500
H 	H 	0.86050 0.39750 0.98940 0.25200
H 	H 	0.80700 0.35310 0.97020 0.23100
S 	S 	0.99633 0.12185 0.04891 -0.00600
C 	C 	0.02870 0.05060 0.11230 -0.08100
C 	C 	0.00315 0.99670 0.15260 0.15000
C 	C 	0.03024 0.93670 0.19790 -0.08500
C 	C 	0.08090 0.92830 0.19880 0.11400
H 	H 	0.09870 0.88750 0.22980 -0.02100
C 	C 	0.10676 0.97820 0.15540 -0.31800
C 	C 	0.07995 0.04120 0.11430 0.11200
H 	H 	0.09700 0.07900 0.08680 -0.02200
O 	O 	0.95197 0.00090 0.14770 -0.20000
C 	C 	0.92954 0.93760 0.09830 -0.00700
H 	H 	0.94060 0.87870 0.11410 0.03300
H 	H 	0.94020 0.94810 0.05200 0.02100
C 	C 	0.87390 0.94310 0.09180 0.00000
C 	C 	0.84627 0.87260 0.06570 -0.02800
H 	H 	0.86350 0.82070 0.05750 0.01800
N 	N 	0.79624 0.87240 0.05090 -0.21700
C 	C 	0.77268 0.94490 0.06600 0.00500
H 	H 	0.73740 0.94660 0.05580 -0.00400
C 	C 	0.79710 0.01680 0.09550 -0.08500
H 	H 	0.77890 0.06600 0.10740 0.02100
C 	C 	0.84870 0.01680 0.10780 -0.06800
H 	H 	0.86640 0.06660 0.12680 0.05400
C 	C 	0.16210 0.96240 0.15190 0.83200
C 	C 	0.16500 0.89070 0.09750 -0.98000
H 	H 	0.14660 0.90870 0.05240 0.28200
H 	H 	0.15050 0.83710 0.11320 0.28100
H 	H 	0.19990 0.88040 0.09220 0.27300
C 	C 	0.18850 0.92540 0.21680 -1.16600
H 	H 	0.17450 0.86820 0.22500 0.35400
H 	H 	0.18480 0.96400 0.25610 0.36400
H 	H 	0.22390 0.91920 0.21250 0.34300
C 	C 	0.18790 0.03770 0.12400 -1.14200
H 	H 	0.17990 0.09110 0.14790 0.35600
H 	H 	0.17690 0.04350 0.07360 0.34300
H 	H 	0.22390 0.02810 0.13230 0.34300
Br	Br	0.81612 0.35624 0.57664 -0.47700
C 	C 	0.46982 0.18650 0.68370 -0.06400
C 	C 	0.49462 0.25090 0.65130 0.14100
C 	C 	0.46786 0.29920 0.59730 -0.06500
C 	C 	0.41851 0.27740 0.57250 0.05800
H 	H 	0.40070 0.31050 0.53550 -0.01300
C 	C 	0.39494 0.20790 0.60090 -0.21800
C 	C 	0.42057 0.16560 0.65750 0.06100
H 	H 	0.40440 0.12080 0.67960 -0.00000
O 	O 	0.54491 0.26410 0.67010 -0.19400
C 	C 	0.57112 0.20780 0.62690 -0.02200
H 	H 	0.56400 0.14620 0.63650 0.03800
H 	H 	0.55960 0.21930 0.57670 0.03900
C 	C 	0.62627 0.22440 0.64300 0.01900
C 	C 	0.65391 0.22530 0.58840 -0.02500
H 	H 	0.63700 0.21940 0.54200 0.02800
N 	N 	0.70373 0.23430 0.59730 -0.20500
C 	C 	0.72670 0.24320 0.66240 0.00800
H 	H 	0.76180 0.24970 0.66970 0.00600
C 	C 	0.70180 0.24340 0.71980 -0.07400
H 	H 	0.71950 0.24920 0.76570 0.01700
C 	C 	0.65030 0.23520 0.70960 -0.06800
H 	H 	0.63220 0.23710 0.74830 0.05200
C 	C 	0.34190 0.18120 0.56950 0.58700
C 	C 	0.30670 0.25700 0.57530 -0.85400
H 	H 	0.27250 0.23870 0.55870 0.23800
H 	H 	0.30920 0.27550 0.62440 0.26000
H 	H 	0.31560 0.30550 0.54660 0.25300
C 	C 	0.32320 0.10270 0.60810 -0.87200
H 	H 	0.34600 0.05370 0.60630 0.28600
H 	H 	0.32180 0.11830 0.65700 0.26400
H 	H 	0.29000 0.08630 0.58530 0.25500
C 	C 	0.34140 0.15610 0.49220 -0.85300
H 	H 	0.35630 0.20300 0.46780 0.25300
H 	H 	0.36050 0.10250 0.48940 0.26800
H 	H 	0.30700 0.14690 0.47020 0.25100
S 	S 	0.49633 0.37815 0.54891 0.01700
C 	C 	0.52870 0.44940 0.61230 -0.08600
C 	C 	0.50315 0.50330 0.65260 0.15800
C 	C 	0.53024 0.56330 0.69790 -0.08900
C 	C 	0.58090 0.57170 0.69880 0.12300
H 	H 	0.59870 0.61250 0.72980 -0.02400
C 	C 	0.60676 0.52180 0.65540 -0.32800
C 	C 	0.57995 0.45880 0.61430 0.12100
H 	H 	0.59700 0.42100 0.58680 -0.02000
O 	O 	0.45197 0.49910 0.64770 -0.20200
C 	C 	0.42954 0.56240 0.59830 -0.01400
H 	H 	0.44060 0.62130 0.61410 0.03900
H 	H 	0.44020 0.55190 0.55200 0.03500
C 	C 	0.37390 0.55690 0.59180 0.01000
C 	C 	0.34627 0.62740 0.56570 -0.02600
H 	H 	0.36350 0.67930 0.55750 0.02700
N 	N 	0.29624 0.62760 0.55090 -0.20900
C 	C 	0.27268 0.55510 0.56600 0.01100
H 	H 	0.23740 0.55340 0.55580 0.00300
C 	C 	0.29710 0.48320 0.59550 -0.08200
H 	H 	0.27890 0.43400 0.60740 0.02300
C 	C 	0.34870 0.48320 0.60780 -0.07000
H 	H 	0.36640 0.43340 0.62680 0.05500
C 	C 	0.66210 0.53760 0.65190 0.86000
C 	C 	0.66500 0.60930 0.59750 -1.01800
H 	H 	0.64660 0.59130 0.55240 0.30700
H 	H 	0.65050 0.66290 0.61320 0.29700
H 	H 	0.69990 0.61960 0.59220 0.28900
C 	C 	0.68850 0.57460 0.71680 -1.19200
H 	H 	0.67450 0.63180 0.72500 0.36200
H 	H 	0.68480 0.53600 0.75610 0.37100
H 	H 	0.72390 0.58080 0.71250 0.35100
C 	C 	0.68790 0.46230 0.62400 -1.17700
H 	H 	0.67990 0.40890 0.64790 0.36700
H 	H 	0.67690 0.45650 0.57360 0.36100
H 	H 	0.72390 0.47190 0.63230 0.35400
Br	Br	0.31612 0.85624 0.57664 -0.47700
C 	C 	0.96982 0.68650 0.68370 -0.06300
C 	C 	0.99462 0.75090 0.65130 0.14200
C 	C 	0.96786 0.79920 0.59730 -0.06500
C 	C 	0.91851 0.77740 0.57250 0.05800
H 	H 	0.90070 0.81050 0.53550 -0.01300
C 	C 	0.89494 0.70790 0.60090 -0.21800
C 	C 	0.92057 0.66560 0.65750 0.06100
H 	H 	0.90440 0.62080 0.67960 0.00000
O 	O 	0.04491 0.76410 0.67010 -0.19500
C 	C 	0.07112 0.70780 0.62690 -0.02200
H 	H 	0.06400 0.64620 0.63650 0.03800
H 	H 	0.05960 0.71930 0.57670 0.03800
C 	C 	0.12627 0.72440 0.64300 0.01900
C 	C 	0.15391 0.72530 0.58840 -0.02500
H 	H 	0.13700 0.71940 0.54200 0.02800
N 	N 	0.20373 0.73430 0.59730 -0.20500
C 	C 	0.22670 0.74320 0.66240 0.00800
H 	H 	0.26180 0.74970 0.66970 0.00600
C 	C 	0.20180 0.74340 0.71980 -0.07400
H 	H 	0.21950 0.74920 0.76570 0.01700
C 	C 	0.15030 0.73520 0.70960 -0.06800
H 	H 	0.13220 0.73710 0.74830 0.05200
C 	C 	0.84190 0.68120 0.56950 0.58700
C 	C 	0.80670 0.75700 0.57530 -0.85400
H 	H 	0.77250 0.73870 0.55870 0.23800
H 	H 	0.80920 0.77550 0.62440 0.26000
H 	H 	0.81560 0.80550 0.54660 0.25300
C 	C 	0.82320 0.60270 0.60810 -0.87300
H 	H 	0.84600 0.55370 0.60630 0.28600
H 	H 	0.82180 0.61830 0.65700 0.26500
H 	H 	0.79000 0.58630 0.58530 0.25600
C 	C 	0.84140 0.65610 0.49220 -0.85300
H 	H 	0.85630 0.70300 0.46780 0.25300
H 	H 	0.86050 0.60250 0.48940 0.26800
H 	H 	0.80700 0.64690 0.47020 0.25100
S 	S 	0.99633 0.87815 0.54891 0.01900
C 	C 	0.02870 0.94940 0.61230 -0.08500
C 	C 	0.00315 0.00330 0.65260 0.15400
C 	C 	0.03024 0.06330 0.69790 -0.08800
C 	C 	0.08090 0.07170 0.69880 0.12100
H 	H 	0.09870 0.11250 0.72980 -0.02400
C 	C 	0.10676 0.02180 0.65540 -0.32800
C 	C 	0.07995 0.95880 0.61430 0.12200
H 	H 	0.09700 0.92100 0.58680 -0.02000
O 	O 	0.95197 0.99910 0.64770 -0.19900
C 	C 	0.92954 0.06240 0.59830 -0.01600
H 	H 	0.94060 0.12130 0.61410 0.04000
H 	H 	0.94020 0.05190 0.55200 0.03500
C 	C 	0.87390 0.05690 0.59180 0.01000
C 	C 	0.84627 0.12740 0.56570 -0.02600
H 	H 	0.86350 0.17930 0.55750 0.02700
N 	N 	0.79624 0.12760 0.55090 -0.20900
C 	C 	0.77268 0.05510 0.56600 0.00900
H 	H 	0.73740 0.05340 0.55580 0.00300
C 	C 	0.79710 0.98320 0.59550 -0.08100
H 	H 	0.77890 0.93400 0.60740 0.02200
C 	C 	0.84870 0.98320 0.60780 -0.07000
H 	H 	0.86640 0.93340 0.62680 0.05500
C 	C 	0.16210 0.03760 0.65190 0.85600
C 	C 	0.16500 0.10930 0.59750 -1.01500
H 	H 	0.14660 0.09130 0.55240 0.30600
H 	H 	0.15050 0.16290 0.61320 0.29700
H 	H 	0.19990 0.11960 0.59220 0.28800
C 	C 	0.18850 0.07460 0.71680 -1.18800
H 	H 	0.17450 0.13180 0.72500 0.36100
H 	H 	0.18480 0.03600 0.75610 0.36900
H 	H 	0.22390 0.08080 0.71250 0.34900
C 	C 	0.18790 0.96230 0.62400 -1.17300
H 	H 	0.17990 0.90890 0.64790 0.36600
H 	H 	0.17690 0.95650 0.57360 0.36000
H 	H 	0.22390 0.97190 0.63230 0.35400
Br	Br	0.18388 0.35624 0.92336 -0.45400
C 	C 	0.53018 0.18650 0.81630 -0.07000
C 	C 	0.50538 0.25090 0.84870 0.14700
C 	C 	0.53214 0.29920 0.90270 -0.07300
C 	C 	0.58149 0.27740 0.92750 0.07600
H 	H 	0.59930 0.31050 0.96450 -0.01000
C 	C 	0.60506 0.20790 0.89910 -0.24200
C 	C 	0.57943 0.16560 0.84250 0.07800
H 	H 	0.59560 0.12080 0.82040 -0.00600
O 	O 	0.45509 0.26410 0.82990 -0.19500
C 	C 	0.42888 0.20780 0.87310 -0.02800
H 	H 	0.43600 0.14620 0.86350 0.04300
H 	H 	0.44040 0.21930 0.92330 0.04600
C 	C 	0.37373 0.22440 0.85700 0.02500
C 	C 	0.34609 0.22530 0.91160 -0.02700
H 	H 	0.36300 0.21940 0.95800 0.04100
N 	N 	0.29627 0.23430 0.90270 -0.19700
C 	C 	0.27330 0.24320 0.83760 0.00600
H 	H 	0.23820 0.24970 0.83030 0.00800
C 	C 	0.29820 0.24340 0.78020 -0.07100
H 	H 	0.28050 0.24920 0.73430 0.01700
C 	C 	0.34970 0.23520 0.79040 -0.07100
H 	H 	0.36780 0.23710 0.75170 0.05400
C 	C 	0.65810 0.18120 0.93050 0.66600
C 	C 	0.69330 0.25700 0.92470 -0.92900
H 	H 	0.72750 0.23870 0.94130 0.27000
H 	H 	0.69080 0.27550 0.87560 0.28200
H 	H 	0.68440 0.30550 0.95340 0.28600
C 	C 	0.67680 0.10270 0.89190 -0.93600
H 	H 	0.65400 0.05370 0.89370 0.30900
H 	H 	0.67820 0.11830 0.84300 0.28200
H 	H 	0.71000 0.08630 0.91470 0.28000
C 	C 	0.65860 0.15610 0.00780 -0.95300
H 	H 	0.64370 0.20300 0.03220 0.27100
H 	H 	0.63950 0.10250 0.01060 0.28400
H 	H 	0.69300 0.14690 0.02980 0.27000
S 	S 	0.50367 0.37815 0.95109 0.04400
C 	C 	0.47130 0.44940 0.88770 -0.08900
C 	C 	0.49685 0.50330 0.84740 0.16200
C 	C 	0.46976 0.56330 0.80210 -0.09100
C 	C 	0.41910 0.57170 0.80120 0.13000
H 	H 	0.40130 0.61250 0.77020 -0.02600
C 	C 	0.39324 0.52180 0.84460 -0.33700
C 	C 	0.42005 0.45880 0.88570 0.13100
H 	H 	0.40300 0.42100 0.91320 -0.01800
O 	O 	0.54803 0.49910 0.85230 -0.20000
C 	C 	0.57046 0.56240 0.90170 -0.02300
H 	H 	0.55940 0.62130 0.88590 0.04600
H 	H 	0.55980 0.55190 0.94800 0.04900
C 	C 	0.62610 0.55690 0.90820 0.02000
C 	C 	0.65373 0.62740 0.93430 -0.02400
H 	H 	0.63650 0.67930 0.94250 0.03600
N 	N 	0.70376 0.62760 0.94910 -0.20000
C 	C 	0.72732 0.55510 0.93400 0.01500
H 	H 	0.76260 0.55340 0.94420 0.01200
C 	C 	0.70290 0.48320 0.90450 -0.07600
H 	H 	0.72110 0.43400 0.89260 0.02400
C 	C 	0.65130 0.48320 0.89220 -0.07100
H 	H 	0.63360 0.43340 0.87320 0.05600
C 	C 	0.33790 0.53760 0.84810 0.88600
C 	C 	0.33500 0.60930 0.90250 -1.05500
H 	H 	0.35340 0.59130 0.94760 0.33000
H 	H 	0.34950 0.66290 0.88680 0.31300
H 	H 	0.30010 0.61960 0.90780 0.30400
C 	C 	0.31150 0.57460 0.78320 -1.21700
H 	H 	0.32550 0.63180 0.77500 0.36900
H 	H 	0.31520 0.53600 0.74390 0.37800
H 	H 	0.27610 0.58080 0.78750 0.35700
C 	C 	0.31210 0.46230 0.87600 -1.21000
H 	H 	0.32010 0.40890 0.85210 0.37700
H 	H 	0.32310 0.45650 0.92640 0.37900
H 	H 	0.27610 0.47190 0.86770 0.36500
Br	Br	0.68388 0.85624 0.92336 -0.45200
C 	C 	0.03018 0.68650 0.81630 -0.06900
C 	C 	0.00538 0.75090 0.84870 0.14600
C 	C 	0.03214 0.79920 0.90270 -0.07300
C 	C 	0.08149 0.77740 0.92750 0.07700
H 	H 	0.09930 0.81050 0.96450 -0.00900
C 	C 	0.10506 0.70790 0.89910 -0.24300
C 	C 	0.07943 0.66560 0.84250 0.07900
H 	H 	0.09560 0.62080 0.82040 -0.00600
O 	O 	0.95509 0.76410 0.82990 -0.19300
C 	C 	0.92888 0.70780 0.87310 -0.02900
H 	H 	0.93600 0.64620 0.86350 0.04400
H 	H 	0.94040 0.71930 0.92330 0.04700
C 	C 	0.87373 0.72440 0.85700 0.02600
C 	C 	0.84609 0.72530 0.91160 -0.02700
H 	H 	0.86300 0.71940 0.95800 0.04200
N 	N 	0.79627 0.73430 0.90270 -0.19600
C 	C 	0.77330 0.74320 0.83760 0.00600
H 	H 	0.73820 0.74970 0.83030 0.00800
C 	C 	0.79820 0.74340 0.78020 -0.07100
H 	H 	0.78050 0.74920 0.73430 0.01700
C 	C 	0.84970 0.73520 0.79040 -0.07200
H 	H 	0.86780 0.73710 0.75170 0.05500
C 	C 	0.15810 0.68120 0.93050 0.67200
C 	C 	0.19330 0.75700 0.92470 -0.93400
H 	H 	0.22750 0.73870 0.94130 0.27200
H 	H 	0.19080 0.77550 0.87560 0.28300
H 	H 	0.18440 0.80550 0.95340 0.28800
C 	C 	0.17680 0.60270 0.89190 -0.94100
H 	H 	0.15400 0.55370 0.89370 0.31100
H 	H 	0.17820 0.61830 0.84300 0.28400
H 	H 	0.21000 0.58630 0.91470 0.28200
C 	C 	0.15860 0.65610 0.00780 -0.95900
H 	H 	0.14370 0.70300 0.03220 0.27200
H 	H 	0.13950 0.60250 0.01060 0.28500
H 	H 	0.19300 0.64690 0.02980 0.27100
S 	S 	0.00367 0.87815 0.95109 0.04300
C 	C 	0.97130 0.94940 0.88770 -0.08500
C 	C 	0.99685 0.00330 0.84740 0.15700
C 	C 	0.96976 0.06330 0.80210 -0.08800
C 	C 	0.91910 0.07170 0.80120 0.12800
H 	H 	0.90130 0.11250 0.77020 -0.02500
C 	C 	0.89324 0.02180 0.84460 -0.33700
C 	C 	0.92005 0.95880 0.88570 0.13100
H 	H 	0.90300 0.92100 0.91320 -0.01700
O 	O 	0.04803 0.99910 0.85230 -0.19700
C 	C 	0.07046 0.06240 0.90170 -0.02400
H 	H 	0.05940 0.12130 0.88590 0.04600
H 	H 	0.05980 0.05190 0.94800 0.04800
C 	C 	0.12610 0.05690 0.90820 0.01700
C 	C 	0.15373 0.12740 0.93430 -0.02400
H 	H 	0.13650 0.17930 0.94250 0.03500
N 	N 	0.20376 0.12760 0.94910 -0.20000
C 	C 	0.22732 0.05510 0.93400 0.01100
H 	H 	0.26260 0.05340 0.94420 0.01200
C 	C 	0.20290 0.98320 0.90450 -0.07300
H 	H 	0.22110 0.93400 0.89260 0.02300
C 	C 	0.15130 0.98320 0.89220 -0.06900
H 	H 	0.13360 0.93340 0.87320 0.05600
C 	C 	0.83790 0.03760 0.84810 0.87900
C 	C 	0.83500 0.10930 0.90250 -1.04900
H 	H 	0.85340 0.09130 0.94760 0.32700
H 	H 	0.84950 0.16290 0.88680 0.31100
H 	H 	0.80010 0.11960 0.90780 0.30200
C 	C 	0.81150 0.07460 0.78320 -1.21100
H 	H 	0.82550 0.13180 0.77500 0.36800
H 	H 	0.81520 0.03600 0.74390 0.37500
H 	H 	0.77610 0.08080 0.78750 0.35500
C 	C 	0.81210 0.96230 0.87600 -1.20300
H 	H 	0.82010 0.90890 0.85210 0.37600
H 	H 	0.82310 0.95650 0.92640 0.37800
H 	H 	0.77610 0.97190 0.86770 0.36400
Cd	Cd	0.25000 0.75000 0.50000 1.19900
Cd	Cd	0.75000 0.75000 -0.00000 1.18600
Cd	Cd	0.75000 0.25000 0.50000 1.19900
Cd	Cd	0.25000 0.25000 -0.00000 1.18600
S 	S 	0.50000 0.88248 0.25000 0.00900
S 	S 	0.50000 0.36429 0.25000 0.02200
S 	S 	-0.00000 0.38248 0.25000 0.00700
S 	S 	0.00000 0.86429 0.25000 0.02000
S 	S 	0.50000 0.11752 0.75000 0.01700
S 	S 	0.50000 0.63571 0.75000 0.02900
S 	S 	-0.00000 0.61752 0.75000 0.01600
S 	S 	0.00000 0.13571 0.75000 0.02600
