data_crystal

_cell_length_a 16.17600
_cell_length_b 7.94800
_cell_length_c 27.27800
_cell_angle_alpha 90.00000
_cell_angle_beta  93.50000
_cell_angle_gamma 90.00000

_symmetry_space_group_name_	'P 1'
_symmetry_space_group_name_H-M	'P 1'

loop_
_symmetry_equiv_pos_as_xyz
  x,y,z

loop_
_atom_site_label
_atom_site_type_symbol
_atom_site_fract_x
_atom_site_fract_y
_atom_site_fract_z
_atom_site_charge
C 	C 	0.39230 0.77640 0.80960 -0.04600
H 	H 	0.33780 0.81680 0.79850 0.05100
H 	H 	0.39830 0.66270 0.79740 0.04500
Tb	Tb	0.72311 0.15649 0.73280 1.71400
O 	O 	0.85080 0.12390 0.78765 -0.45800
O 	O 	0.86690 0.85730 0.81195 -0.46900
O 	O 	0.28480 0.62530 0.20343 -0.53000
N 	N 	0.26460 0.85800 0.86892 -0.16400
C 	C 	0.54840 0.84080 0.86520 -0.07800
H 	H 	0.60260 0.80450 0.87830 0.05700
H 	H 	0.53930 0.95460 0.87650 0.05800
O 	O 	0.68320 0.89810 0.78487 -0.51100
C 	C 	0.54560 0.83850 0.80920 -0.13100
H 	H 	0.55700 0.72400 0.79800 0.06800
O 	O 	0.28920 0.41500 0.15204 -0.40600
N 	N 	0.21040 0.87130 0.94870 -0.16400
N 	N 	0.40000 0.77500 0.86340 -0.12100
C 	C 	0.28510 0.81420 0.96610 0.17100
N 	N 	0.13500 0.96430 0.87960 -0.11000
O 	O 	0.59410 0.10550 0.78052 -0.40700
C 	C 	0.97430 0.05160 0.83490 -0.19800
H 	H 	0.98000 0.17400 0.83600 0.08700
C 	C 	0.33670 0.80660 0.89170 0.17200
C 	C 	0.45840 0.88940 0.78880 -0.07300
H 	H 	0.44800 0.00550 0.79750 0.06200
H 	H 	0.45530 0.88080 0.75330 0.04200
N 	N 	0.35070 0.78640 0.94050 -0.16600
N 	N 	0.29300 0.78390 0.01540 -0.11600
C 	C 	0.36450 0.62310 0.08210 -0.05500
H 	H 	0.41850 0.60310 0.09860 0.04200
H 	H 	0.34340 0.51610 0.06970 0.05800
C 	C 	0.20650 0.89680 0.89990 0.16800
C 	C 	0.23400 0.85200 0.04870 -0.05700
H 	H 	0.18090 0.86940 0.03090 0.05200
H 	H 	0.25370 0.96010 0.06110 0.05000
C 	C 	0.61060 0.95470 0.79090 0.35600
C 	C 	0.04370 0.97870 0.80500 -0.02300
H 	H 	0.03810 0.85730 0.80310 0.04100
H 	H 	0.03880 0.02340 0.77190 0.02600
C 	C 	0.98560 0.98350 0.88670 -0.01200
H 	H 	0.97950 0.86210 0.88600 0.04000
H 	H 	0.94290 0.02930 0.90630 0.02100
C 	C 	0.29410 0.57090 0.16020 0.36900
C 	C 	0.07050 0.02910 0.91030 -0.08400
H 	H 	0.07540 0.15040 0.91330 0.05600
H 	H 	0.07720 0.98050 0.94290 0.06100
C 	C 	0.48250 0.72530 0.88360 -0.04300
H 	H 	0.49370 0.61040 0.87400 0.04600
H 	H 	0.48410 0.72960 0.91920 0.05000
C 	C 	0.12770 0.02340 0.82890 -0.07900
H 	H 	0.17070 0.97240 0.81060 0.06100
H 	H 	0.13510 0.14440 0.82820 0.05400
C 	C 	0.30710 0.69100 0.11860 -0.15400
H 	H 	0.33100 0.79500 0.13200 0.07900
C 	C 	0.37430 0.74290 0.03880 -0.05900
H 	H 	0.40180 0.84520 0.05040 0.05000
H 	H 	0.40840 0.69030 0.01510 0.05500
C 	C 	0.22320 0.73190 0.09180 -0.05600
H 	H 	0.19740 0.62860 0.07970 0.04500
H 	H 	0.18710 0.78310 0.11470 0.03300
C 	C 	0.89080 0.00710 0.80990 0.43000
C 	C 	0.10770 0.27640 0.69040 -0.04400
H 	H 	0.16220 0.31680 0.70150 0.04900
H 	H 	0.10170 0.16270 0.70260 0.04400
Tb	Tb	0.77689 0.65649 0.76720 1.71800
O 	O 	0.64920 0.62390 0.71235 -0.45700
O 	O 	0.63310 0.35730 0.68805 -0.47000
O 	O 	0.21520 0.12530 0.29657 -0.53000
N 	N 	0.23540 0.35800 0.63108 -0.16400
C 	C 	0.95160 0.34080 0.63480 -0.08100
H 	H 	0.89740 0.30450 0.62170 0.05800
H 	H 	0.96070 0.45460 0.62350 0.05800
O 	O 	0.81680 0.39810 0.71513 -0.51100
C 	C 	0.95440 0.33850 0.69080 -0.12700
H 	H 	0.94300 0.22400 0.70200 0.06600
O 	O 	0.21080 0.91500 0.34796 -0.40900
N 	N 	0.28960 0.37130 0.55130 -0.16400
N 	N 	0.10000 0.27500 0.63660 -0.12200
C 	C 	0.21490 0.31420 0.53390 0.17100
N 	N 	0.36500 0.46430 0.62040 -0.11400
O 	O 	0.90590 0.60550 0.71948 -0.40400
C 	C 	0.52570 0.55160 0.66510 -0.18300
H 	H 	0.52000 0.67400 0.66400 0.08300
C 	C 	0.16330 0.30660 0.60830 0.17200
C 	C 	0.04160 0.38940 0.71120 -0.08000
H 	H 	0.05200 0.50550 0.70250 0.06600
H 	H 	0.04470 0.38080 0.74670 0.04300
N 	N 	0.14930 0.28640 0.55950 -0.16600
N 	N 	0.20700 0.28390 0.48460 -0.11600
C 	C 	0.13550 0.12310 0.41790 -0.05500
H 	H 	0.08150 0.10310 0.40140 0.04200
H 	H 	0.15660 0.01610 0.43030 0.05800
C 	C 	0.29350 0.39680 0.60010 0.16800
C 	C 	0.26600 0.35200 0.45130 -0.05800
H 	H 	0.31910 0.36940 0.46910 0.05300
H 	H 	0.24630 0.46010 0.43890 0.05000
C 	C 	0.88940 0.45470 0.70910 0.35200
C 	C 	0.45630 0.47870 0.69500 -0.04200
H 	H 	0.46190 0.35730 0.69690 0.04600
H 	H 	0.46120 0.52340 0.72810 0.03200
C 	C 	0.51440 0.48350 0.61330 -0.03300
H 	H 	0.52050 0.36210 0.61400 0.04600
H 	H 	0.55710 0.52930 0.59370 0.02900
C 	C 	0.20590 0.07090 0.33980 0.37200
C 	C 	0.42950 0.52910 0.58970 -0.07100
H 	H 	0.42460 0.65040 0.58670 0.05200
H 	H 	0.42280 0.48050 0.55710 0.05700
C 	C 	0.01750 0.22530 0.61640 -0.04200
H 	H 	0.00630 0.11040 0.62600 0.04500
H 	H 	0.01590 0.22960 0.58080 0.04900
C 	C 	0.37230 0.52340 0.67110 -0.06400
H 	H 	0.32930 0.47240 0.68940 0.05600
H 	H 	0.36490 0.64440 0.67180 0.05000
C 	C 	0.19290 0.19100 0.38140 -0.15600
H 	H 	0.16900 0.29500 0.36800 0.08000
C 	C 	0.12570 0.24290 0.46120 -0.05900
H 	H 	0.09820 0.34520 0.44960 0.05100
H 	H 	0.09160 0.19030 0.48490 0.05500
C 	C 	0.27680 0.23190 0.40820 -0.05500
H 	H 	0.30260 0.12860 0.42030 0.04500
H 	H 	0.31290 0.28310 0.38530 0.03300
C 	C 	0.60920 0.50710 0.69010 0.42900
C 	C 	0.60770 0.22360 0.19040 -0.04700
H 	H 	0.66220 0.18320 0.20150 0.05000
H 	H 	0.60170 0.33730 0.20260 0.04500
Tb	Tb	0.27689 0.84351 0.26720 1.71400
O 	O 	0.14920 0.87610 0.21235 -0.45800
O 	O 	0.13310 0.14270 0.18805 -0.46900
O 	O 	0.71520 0.37470 0.79657 -0.53000
N 	N 	0.73540 0.14200 0.13108 -0.16400
C 	C 	0.45160 0.15920 0.13480 -0.07800
H 	H 	0.39740 0.19550 0.12170 0.05700
H 	H 	0.46070 0.04540 0.12350 0.05800
O 	O 	0.31680 0.10190 0.21513 -0.51100
C 	C 	0.45440 0.16150 0.19080 -0.13100
H 	H 	0.44300 0.27600 0.20200 0.06800
O 	O 	0.71080 0.58500 0.84796 -0.40600
N 	N 	0.78960 0.12870 0.05130 -0.16400
N 	N 	0.60000 0.22500 0.13660 -0.12100
C 	C 	0.71490 0.18580 0.03390 0.17100
N 	N 	0.86500 0.03570 0.12040 -0.11000
O 	O 	0.40590 0.89450 0.21948 -0.40700
C 	C 	0.02570 0.94840 0.16510 -0.19800
H 	H 	0.02000 0.82600 0.16400 0.08700
C 	C 	0.66330 0.19340 0.10830 0.17200
C 	C 	0.54160 0.11060 0.21120 -0.07300
H 	H 	0.55200 0.99450 0.20250 0.06200
H 	H 	0.54470 0.11920 0.24670 0.04200
N 	N 	0.64930 0.21360 0.05950 -0.16600
N 	N 	0.70700 0.21610 0.98460 -0.11600
C 	C 	0.63550 0.37690 0.91790 -0.05500
H 	H 	0.58150 0.39690 0.90140 0.04200
H 	H 	0.65660 0.48390 0.93030 0.05800
C 	C 	0.79350 0.10320 0.10010 0.16800
C 	C 	0.76600 0.14800 0.95130 -0.05700
H 	H 	0.81910 0.13060 0.96910 0.05200
H 	H 	0.74630 0.03990 0.93890 0.05000
C 	C 	0.38940 0.04530 0.20910 0.35600
C 	C 	0.95630 0.02130 0.19500 -0.02300
H 	H 	0.96190 0.14270 0.19690 0.04100
H 	H 	0.96120 0.97660 0.22810 0.02600
C 	C 	0.01440 0.01650 0.11330 -0.01200
H 	H 	0.02050 0.13790 0.11400 0.04000
H 	H 	0.05710 0.97070 0.09370 0.02100
C 	C 	0.70590 0.42910 0.83980 0.36900
C 	C 	0.92950 0.97090 0.08970 -0.08400
H 	H 	0.92460 0.84960 0.08670 0.05600
H 	H 	0.92280 0.01950 0.05710 0.06100
C 	C 	0.51750 0.27470 0.11640 -0.04300
H 	H 	0.50630 0.38960 0.12600 0.04600
H 	H 	0.51590 0.27040 0.08080 0.05000
C 	C 	0.87230 0.97660 0.17110 -0.07900
H 	H 	0.82930 0.02760 0.18940 0.06100
H 	H 	0.86490 0.85560 0.17180 0.05400
C 	C 	0.69290 0.30900 0.88140 -0.15400
H 	H 	0.66900 0.20500 0.86800 0.07900
C 	C 	0.62570 0.25710 0.96120 -0.05900
H 	H 	0.59820 0.15480 0.94960 0.05000
H 	H 	0.59160 0.30970 0.98490 0.05500
C 	C 	0.77680 0.26810 0.90820 -0.05600
H 	H 	0.80260 0.37140 0.92030 0.04500
H 	H 	0.81290 0.21690 0.88530 0.03300
C 	C 	0.10920 0.99290 0.19010 0.43000
C 	C 	0.89230 0.72360 0.30960 -0.04400
H 	H 	0.83780 0.68320 0.29850 0.04900
H 	H 	0.89830 0.83730 0.29740 0.04400
Tb	Tb	0.22311 0.34351 0.23280 1.71800
O 	O 	0.35080 0.37610 0.28765 -0.45700
O 	O 	0.36690 0.64270 0.31195 -0.47000
O 	O 	0.78480 0.87470 0.70343 -0.53000
N 	N 	0.76460 0.64200 0.36892 -0.16400
C 	C 	0.04840 0.65920 0.36520 -0.08100
H 	H 	0.10260 0.69550 0.37830 0.05800
H 	H 	0.03930 0.54540 0.37650 0.05800
O 	O 	0.18320 0.60190 0.28487 -0.51100
C 	C 	0.04560 0.66150 0.30920 -0.12700
H 	H 	0.05700 0.77600 0.29800 0.06600
O 	O 	0.78920 0.08500 0.65204 -0.40900
N 	N 	0.71040 0.62870 0.44870 -0.16400
N 	N 	0.90000 0.72500 0.36340 -0.12200
C 	C 	0.78510 0.68580 0.46610 0.17100
N 	N 	0.63500 0.53570 0.37960 -0.11400
O 	O 	0.09410 0.39450 0.28052 -0.40400
C 	C 	0.47430 0.44840 0.33490 -0.18300
H 	H 	0.48000 0.32600 0.33600 0.08300
C 	C 	0.83670 0.69340 0.39170 0.17200
C 	C 	0.95840 0.61060 0.28880 -0.08000
H 	H 	0.94800 0.49450 0.29750 0.06600
H 	H 	0.95530 0.61920 0.25330 0.04300
N 	N 	0.85070 0.71360 0.44050 -0.16600
N 	N 	0.79300 0.71610 0.51540 -0.11600
C 	C 	0.86450 0.87690 0.58210 -0.05500
H 	H 	0.91850 0.89690 0.59860 0.04200
H 	H 	0.84340 0.98390 0.56970 0.05800
C 	C 	0.70650 0.60320 0.39990 0.16800
C 	C 	0.73400 0.64800 0.54870 -0.05800
H 	H 	0.68090 0.63060 0.53090 0.05300
H 	H 	0.75370 0.53990 0.56110 0.05000
C 	C 	0.11060 0.54530 0.29090 0.35200
C 	C 	0.54370 0.52130 0.30500 -0.04200
H 	H 	0.53810 0.64270 0.30310 0.04600
H 	H 	0.53880 0.47660 0.27190 0.03200
C 	C 	0.48560 0.51650 0.38670 -0.03300
H 	H 	0.47950 0.63790 0.38600 0.04600
H 	H 	0.44290 0.47070 0.40630 0.02900
C 	C 	0.79410 0.92910 0.66020 0.37200
C 	C 	0.57050 0.47090 0.41030 -0.07100
H 	H 	0.57540 0.34960 0.41330 0.05200
H 	H 	0.57720 0.51950 0.44290 0.05700
C 	C 	0.98250 0.77470 0.38360 -0.04200
H 	H 	0.99370 0.88960 0.37400 0.04500
H 	H 	0.98410 0.77040 0.41920 0.04900
C 	C 	0.62770 0.47660 0.32890 -0.06400
H 	H 	0.67070 0.52760 0.31060 0.05600
H 	H 	0.63510 0.35560 0.32820 0.05000
C 	C 	0.80710 0.80900 0.61860 -0.15600
H 	H 	0.83100 0.70500 0.63200 0.08000
C 	C 	0.87430 0.75710 0.53880 -0.05900
H 	H 	0.90180 0.65480 0.55040 0.05100
H 	H 	0.90840 0.80970 0.51510 0.05500
C 	C 	0.72320 0.76810 0.59180 -0.05500
H 	H 	0.69740 0.87140 0.57970 0.04500
H 	H 	0.68710 0.71690 0.61470 0.03300
C 	C 	0.39080 0.49290 0.30990 0.42900
