data_crystal

_cell_length_a 13.87200
_cell_length_b 28.40000
_cell_length_c 44.18000
_cell_angle_alpha 90.00000
_cell_angle_beta  90.00000
_cell_angle_gamma 90.00000

_symmetry_space_group_name_	'P 1'
_symmetry_space_group_name_H-M	'P 1'

loop_
_symmetry_equiv_pos_as_xyz
  x,y,z

loop_
_atom_site_label
_atom_site_type_symbol
_atom_site_fract_x
_atom_site_fract_y
_atom_site_fract_z
_atom_site_charge
Zn	Zn	0.11592 0.98005 0.08612 1.16600
Zn	Zn	0.13849 0.44930 0.08682 1.16600
Zn	Zn	0.81836 0.23643 0.31972 1.16600
Zn	Zn	0.88408 0.51995 0.58612 1.16600
Zn	Zn	0.86151 0.05070 0.58682 1.16600
Zn	Zn	0.18164 0.26357 0.81972 1.16600
Zn	Zn	0.61592 0.01995 0.41388 1.16600
Zn	Zn	0.63849 0.55070 0.41318 1.16600
Zn	Zn	0.31836 0.76357 0.18028 1.16600
Zn	Zn	0.38408 0.48005 0.91388 1.16600
Zn	Zn	0.36151 0.94930 0.91318 1.16600
Zn	Zn	0.68164 0.73643 0.68028 1.16600
H 	H 	0.06060 0.01760 0.14630 -0.01100
H 	H 	0.03760 0.08830 0.17160 0.08300
H 	H 	0.07650 0.15520 0.09230 0.08200
H 	H 	0.09760 0.08270 0.06920 -0.00900
H 	H 	0.86420 0.16090 0.27570 -0.00800
H 	H 	0.93060 0.15110 0.22720 0.07900
H 	H 	0.99860 0.29010 0.22840 0.07900
H 	H 	0.93690 0.29490 0.27720 0.00400
H 	H 	0.04510 0.41230 0.14230 -0.00900
H 	H 	0.01680 0.34160 0.16700 0.08100
H 	H 	0.10000 0.27280 0.09150 0.08000
H 	H 	0.12800 0.34580 0.06890 -0.01400
H 	H 	0.30220 0.92680 0.97770 -0.00700
H 	H 	0.37200 0.91100 0.02350 0.08300
H 	H 	0.62890 0.94930 0.98790 0.09400
H 	H 	0.54900 0.96750 0.94340 -0.01400
H 	H 	0.28830 0.82930 0.12980 -0.01000
H 	H 	0.37210 0.86910 0.09250 0.08800
H 	H 	0.61960 0.82320 0.13010 0.09000
H 	H 	0.52730 0.78320 0.16520 -0.01800
H 	H 	0.97560 0.96680 0.03490 -0.01000
H 	H 	0.82120 0.94240 0.02660 0.09700
H 	H 	0.80830 0.90070 0.11380 0.10100
H 	H 	0.96530 0.92530 0.11960 -0.00700
H 	H 	0.93940 0.48240 0.64630 -0.01200
H 	H 	0.96240 0.41170 0.67160 0.08200
H 	H 	0.92350 0.34480 0.59230 0.08100
H 	H 	0.90240 0.41730 0.56920 -0.01000
H 	H 	0.13580 0.33910 0.77570 -0.00900
H 	H 	0.06940 0.34890 0.72720 0.07800
H 	H 	0.00140 0.20990 0.72840 0.07900
H 	H 	0.06310 0.20510 0.77720 0.00300
H 	H 	0.95490 0.08770 0.64230 -0.01100
H 	H 	0.98320 0.15840 0.66700 0.08000
H 	H 	0.90000 0.22720 0.59150 0.07900
H 	H 	0.87200 0.15420 0.56890 -0.01500
H 	H 	0.69780 0.57320 0.47770 -0.00800
H 	H 	0.62800 0.58900 0.52350 0.08200
H 	H 	0.37110 0.55070 0.48790 0.09300
H 	H 	0.45100 0.53250 0.44340 -0.01500
H 	H 	0.71170 0.67070 0.62980 -0.01100
H 	H 	0.62790 0.63090 0.59250 0.08700
H 	H 	0.38040 0.67680 0.63010 0.08900
H 	H 	0.47270 0.71680 0.66520 -0.01900
H 	H 	0.02440 0.53320 0.53490 -0.01100
H 	H 	0.17880 0.55760 0.52660 0.09600
H 	H 	0.19170 0.59930 0.61380 0.10000
H 	H 	0.03470 0.57470 0.61960 -0.00800
H 	H 	0.56060 0.98240 0.35370 -0.01200
H 	H 	0.53760 0.91170 0.32840 0.08200
H 	H 	0.57650 0.84480 0.40770 0.08100
H 	H 	0.59760 0.91730 0.43080 -0.01000
H 	H 	0.36420 0.83910 0.22430 -0.00900
H 	H 	0.43060 0.84890 0.27280 0.07800
H 	H 	0.49860 0.70990 0.27160 0.07900
H 	H 	0.43690 0.70510 0.22280 0.00300
H 	H 	0.54510 0.58770 0.35770 -0.01000
H 	H 	0.51680 0.65840 0.33300 0.08000
H 	H 	0.60000 0.72720 0.40850 0.07900
H 	H 	0.62800 0.65420 0.43110 -0.01500
H 	H 	0.80220 0.07320 0.52230 -0.00800
H 	H 	0.87200 0.08900 0.47650 0.08200
H 	H 	0.12890 0.05070 0.51210 0.09300
H 	H 	0.04900 0.03250 0.55660 -0.01500
H 	H 	0.78830 0.17070 0.37020 -0.01100
H 	H 	0.87210 0.13090 0.40750 0.08700
H 	H 	0.11960 0.17680 0.36990 0.08900
H 	H 	0.02730 0.21680 0.33480 -0.01800
H 	H 	0.47560 0.03320 0.46510 -0.01100
H 	H 	0.32120 0.05760 0.47340 0.09600
H 	H 	0.30830 0.09930 0.38620 0.10000
H 	H 	0.46530 0.07470 0.38040 -0.00800
H 	H 	0.43940 0.51760 0.85370 -0.01200
H 	H 	0.46240 0.58830 0.82840 0.08200
H 	H 	0.42350 0.65520 0.90770 0.08100
H 	H 	0.40240 0.58270 0.93080 -0.01000
H 	H 	0.63580 0.66090 0.72430 -0.00900
H 	H 	0.56940 0.65110 0.77280 0.07800
H 	H 	0.50140 0.79010 0.77160 0.07900
H 	H 	0.56310 0.79490 0.72280 0.00300
H 	H 	0.45490 0.91230 0.85770 -0.01000
H 	H 	0.48320 0.84160 0.83300 0.08000
H 	H 	0.40000 0.77280 0.90850 0.07900
H 	H 	0.37200 0.84580 0.93110 -0.01500
H 	H 	0.19780 0.42680 0.02230 -0.00800
H 	H 	0.12800 0.41100 0.97650 0.08200
H 	H 	0.87110 0.44930 0.01210 0.09300
H 	H 	0.95100 0.46750 0.05660 -0.01500
H 	H 	0.21170 0.32930 0.87020 -0.01100
H 	H 	0.12790 0.36910 0.90750 0.08700
H 	H 	0.88040 0.32320 0.86990 0.08900
H 	H 	0.97270 0.28320 0.83480 -0.02000
H 	H 	0.52440 0.46680 0.96510 -0.01100
H 	H 	0.67880 0.44240 0.97340 0.09600
H 	H 	0.69170 0.40070 0.88620 0.10000
H 	H 	0.53470 0.42530 0.88040 -0.00800
C 	C 	0.06460 0.04610 0.13516 0.07600
C 	C 	0.05060 0.08820 0.15046 -0.12000
C 	C 	0.05570 0.12970 0.13463 0.05800
C 	C 	0.07330 0.12720 0.10402 -0.11800
C 	C 	0.08630 0.08380 0.09044 0.07700
C 	C 	0.04290 0.17590 0.14995 0.10300
C 	C 	0.00450 0.21720 0.19114 0.10700
C 	C 	0.04340 0.25450 0.14817 0.10300
C 	C 	0.89220 0.18720 0.26581 0.06100
C 	C 	0.93100 0.18100 0.23679 -0.11000
C 	C 	0.96980 0.22000 0.22264 0.04400
C 	C 	0.97170 0.26300 0.23782 -0.10600
C 	C 	0.93380 0.26580 0.26668 0.05600
C 	C 	0.05830 0.38360 0.13204 0.06200
C 	C 	0.04080 0.34160 0.14684 -0.11700
C 	C 	0.05840 0.29980 0.13212 0.05400
C 	C 	0.08980 0.30100 0.10253 -0.12000
C 	C 	0.10630 0.34470 0.08924 0.07000
C 	C 	0.36980 0.93110 0.97973 0.07900
C 	C 	0.41060 0.92120 0.00701 -0.12500
C 	C 	0.50920 0.92640 0.01034 0.05800
C 	C 	0.56140 0.94410 0.98621 -0.12600
C 	C 	0.51350 0.95430 0.95970 0.07100
C 	C 	0.55990 0.91200 0.03825 0.09600
C 	C 	0.55890 0.87450 0.08283 0.10300
C 	C 	0.69540 0.90650 0.06528 0.08700
C 	C 	0.35670 0.82750 0.12956 0.08300
C 	C 	0.40570 0.85140 0.10737 -0.12700
C 	C 	0.50460 0.84900 0.10713 0.07400
C 	C 	0.55120 0.82430 0.12924 -0.13800
C 	C 	0.49550 0.80120 0.15007 0.08800
C 	C 	0.94060 0.95340 0.05121 0.08700
C 	C 	0.84930 0.93910 0.04615 -0.13900
C 	C 	0.79710 0.91970 0.06975 0.06300
C 	C 	0.84170 0.91450 0.09724 -0.13700
C 	C 	0.93460 0.92940 0.10059 0.08100
C 	C 	0.93540 0.45390 0.63516 0.07600
C 	C 	0.94940 0.41180 0.65046 -0.12000
C 	C 	0.94430 0.37030 0.63463 0.05800
C 	C 	0.92670 0.37280 0.60402 -0.11800
C 	C 	0.91370 0.41620 0.59044 0.07700
C 	C 	0.95710 0.32410 0.64995 0.10300
C 	C 	0.99550 0.28280 0.69114 0.10600
C 	C 	0.95660 0.24550 0.64817 0.10300
C 	C 	0.10780 0.31280 0.76581 0.06100
C 	C 	0.06900 0.31900 0.73679 -0.11100
C 	C 	0.03020 0.28000 0.72264 0.04500
C 	C 	0.02830 0.23700 0.73782 -0.10700
C 	C 	0.06620 0.23420 0.76668 0.05700
C 	C 	0.94170 0.11640 0.63204 0.06200
C 	C 	0.95920 0.15840 0.64684 -0.11700
C 	C 	0.94160 0.20020 0.63212 0.05400
C 	C 	0.91020 0.19900 0.60253 -0.12000
C 	C 	0.89370 0.15530 0.58924 0.07000
C 	C 	0.63020 0.56890 0.47973 0.08000
C 	C 	0.58940 0.57880 0.50701 -0.12500
C 	C 	0.49080 0.57360 0.51034 0.05800
C 	C 	0.43860 0.55590 0.48621 -0.12600
C 	C 	0.48650 0.54570 0.45970 0.07100
C 	C 	0.44010 0.58800 0.53825 0.09600
C 	C 	0.44110 0.62550 0.58283 0.10300
C 	C 	0.30460 0.59350 0.56528 0.08700
C 	C 	0.64330 0.67250 0.62956 0.08300
C 	C 	0.59430 0.64860 0.60737 -0.12700
C 	C 	0.49540 0.65100 0.60713 0.07400
C 	C 	0.44880 0.67570 0.62924 -0.13800
C 	C 	0.50450 0.69880 0.65007 0.08800
C 	C 	0.05940 0.54660 0.55121 0.08700
C 	C 	0.15070 0.56090 0.54615 -0.13900
C 	C 	0.20290 0.58030 0.56975 0.06300
C 	C 	0.15830 0.58550 0.59724 -0.13700
C 	C 	0.06540 0.57060 0.60059 0.08100
C 	C 	0.56460 0.95390 0.36484 0.07600
C 	C 	0.55060 0.91180 0.34954 -0.12000
C 	C 	0.55570 0.87030 0.36537 0.05800
C 	C 	0.57330 0.87280 0.39598 -0.11800
C 	C 	0.58630 0.91620 0.40956 0.07700
C 	C 	0.54290 0.82410 0.35005 0.10300
C 	C 	0.50450 0.78280 0.30886 0.10700
C 	C 	0.54340 0.74550 0.35183 0.10300
C 	C 	0.39220 0.81280 0.23419 0.06100
C 	C 	0.43100 0.81900 0.26321 -0.11000
C 	C 	0.46980 0.78000 0.27736 0.04500
C 	C 	0.47170 0.73700 0.26218 -0.10700
C 	C 	0.43380 0.73420 0.23332 0.05700
C 	C 	0.55830 0.61640 0.36796 0.06200
C 	C 	0.54080 0.65840 0.35316 -0.11700
C 	C 	0.55840 0.70020 0.36788 0.05400
C 	C 	0.58980 0.69900 0.39747 -0.12000
C 	C 	0.60630 0.65530 0.41076 0.07000
C 	C 	0.86980 0.06890 0.52027 0.08000
C 	C 	0.91060 0.07880 0.49299 -0.12700
C 	C 	0.00920 0.07360 0.48966 0.05900
C 	C 	0.06140 0.05590 0.51379 -0.12700
C 	C 	0.01350 0.04570 0.54030 0.07200
C 	C 	0.05990 0.08800 0.46175 0.09600
C 	C 	0.05890 0.12550 0.41717 0.10300
C 	C 	0.19540 0.09350 0.43472 0.08700
C 	C 	0.85670 0.17250 0.37044 0.08300
C 	C 	0.90570 0.14860 0.39263 -0.12800
C 	C 	0.00460 0.15100 0.39287 0.07500
C 	C 	0.05120 0.17570 0.37076 -0.13700
C 	C 	0.99550 0.19880 0.34993 0.08700
C 	C 	0.44060 0.04660 0.44879 0.08700
C 	C 	0.34930 0.06090 0.45385 -0.13900
C 	C 	0.29710 0.08030 0.43025 0.06300
C 	C 	0.34170 0.08550 0.40276 -0.13700
C 	C 	0.43460 0.07060 0.39941 0.08100
C 	C 	0.43540 0.54610 0.86484 0.07600
C 	C 	0.44940 0.58820 0.84954 -0.12000
C 	C 	0.44430 0.62970 0.86537 0.05800
C 	C 	0.42670 0.62720 0.89598 -0.11800
C 	C 	0.41370 0.58380 0.90956 0.07700
C 	C 	0.45710 0.67590 0.85005 0.10300
C 	C 	0.49550 0.71720 0.80886 0.10700
C 	C 	0.45660 0.75450 0.85183 0.10300
C 	C 	0.60780 0.68720 0.73419 0.06100
C 	C 	0.56900 0.68100 0.76321 -0.11000
C 	C 	0.53020 0.72000 0.77736 0.04500
C 	C 	0.52830 0.76300 0.76218 -0.10700
C 	C 	0.56620 0.76580 0.73332 0.05700
C 	C 	0.44170 0.88360 0.86796 0.06200
C 	C 	0.45920 0.84160 0.85316 -0.11700
C 	C 	0.44160 0.79980 0.86788 0.05400
C 	C 	0.41020 0.80100 0.89747 -0.12000
C 	C 	0.39370 0.84470 0.91076 0.07000
C 	C 	0.13020 0.43110 0.02027 0.07900
C 	C 	0.08940 0.42120 0.99299 -0.12500
C 	C 	0.99080 0.42640 0.98966 0.05800
C 	C 	0.93860 0.44410 0.01379 -0.12600
C 	C 	0.98650 0.45430 0.04030 0.07100
C 	C 	0.94010 0.41200 0.96175 0.09600
C 	C 	0.94110 0.37450 0.91717 0.10300
C 	C 	0.80460 0.40650 0.93472 0.08700
C 	C 	0.14330 0.32750 0.87044 0.08300
C 	C 	0.09430 0.35140 0.89263 -0.12700
C 	C 	0.99540 0.34900 0.89287 0.07400
C 	C 	0.94880 0.32430 0.87076 -0.13900
C 	C 	0.00450 0.30120 0.84993 0.08900
C 	C 	0.55940 0.45340 0.94879 0.08700
C 	C 	0.65070 0.43910 0.95385 -0.13900
C 	C 	0.70290 0.41970 0.93025 0.06300
C 	C 	0.65830 0.41450 0.90276 -0.13700
C 	C 	0.56540 0.42940 0.89941 0.08100
I 	I 	0.19905 0.93226 0.12651 -0.37100
I 	I 	0.19328 0.99703 0.03486 -0.39500
I 	I 	0.31963 0.44193 0.08285 -0.38700
I 	I 	0.05184 0.51202 0.11700 -0.36500
I 	I 	0.65713 0.19488 0.31350 -0.37200
I 	I 	0.82079 0.32275 0.33455 -0.37500
I 	I 	0.80095 0.56774 0.62651 -0.37100
I 	I 	0.80672 0.50297 0.53486 -0.39400
I 	I 	0.68037 0.05807 0.58285 -0.38800
I 	I 	0.94816 0.98798 0.61700 -0.36400
I 	I 	0.34287 0.30512 0.81350 -0.37200
I 	I 	0.17921 0.17725 0.83455 -0.37500
I 	I 	0.69905 0.06774 0.37349 -0.37100
I 	I 	0.69328 0.00297 0.46514 -0.39400
I 	I 	0.81963 0.55807 0.41715 -0.38700
I 	I 	0.55184 0.48798 0.38300 -0.36400
I 	I 	0.15713 0.80512 0.18650 -0.37200
I 	I 	0.32079 0.67725 0.16545 -0.37500
I 	I 	0.30095 0.43226 0.87349 -0.37100
I 	I 	0.30672 0.49703 0.96514 -0.39400
I 	I 	0.18037 0.94193 0.91715 -0.38800
I 	I 	0.44816 0.01202 0.88300 -0.36400
I 	I 	0.84287 0.69488 0.68650 -0.37100
I 	I 	0.67921 0.82275 0.66545 -0.37500
N 	N 	0.08350 0.04355 0.10580 -0.27400
N 	N 	0.01660 0.17475 0.17893 -0.14100
N 	N 	0.05730 0.21417 0.13333 -0.14100
N 	N 	0.01700 0.25789 0.17703 -0.14200
N 	N 	0.89290 0.22865 0.28018 -0.27200
N 	N 	0.09280 0.38542 0.10398 -0.27300
N 	N 	0.41870 0.94633 0.95590 -0.27800
N 	N 	0.50840 0.88891 0.05901 -0.13900
N 	N 	0.65250 0.92272 0.04056 -0.14400
N 	N 	0.65280 0.88086 0.08713 -0.13200
N 	N 	0.39980 0.80233 0.15040 -0.28100
N 	N 	0.98420 0.94972 0.07809 -0.27800
N 	N 	0.91650 0.45645 0.60580 -0.27400
N 	N 	0.98340 0.32525 0.67893 -0.14100
N 	N 	0.94270 0.28583 0.63333 -0.14100
N 	N 	0.98300 0.24211 0.67703 -0.14200
N 	N 	0.10710 0.27135 0.78018 -0.27200
N 	N 	0.90720 0.11458 0.60398 -0.27300
N 	N 	0.58130 0.55367 0.45590 -0.27800
N 	N 	0.49160 0.61109 0.55901 -0.13900
N 	N 	0.34750 0.57728 0.54056 -0.14400
N 	N 	0.34720 0.61914 0.58713 -0.13200
N 	N 	0.60020 0.69767 0.65040 -0.28100
N 	N 	0.01580 0.55028 0.57809 -0.27800
N 	N 	0.58350 0.95645 0.39420 -0.27400
N 	N 	0.51660 0.82525 0.32107 -0.14100
N 	N 	0.55730 0.78583 0.36667 -0.14100
N 	N 	0.51700 0.74211 0.32297 -0.14200
N 	N 	0.39290 0.77135 0.21982 -0.27200
N 	N 	0.59280 0.61458 0.39602 -0.27300
N 	N 	0.91870 0.05367 0.54410 -0.27800
N 	N 	0.00840 0.11109 0.44099 -0.13900
N 	N 	0.15250 0.07728 0.45944 -0.14400
N 	N 	0.15280 0.11914 0.41287 -0.13200
N 	N 	0.89980 0.19767 0.34960 -0.28100
N 	N 	0.48420 0.05028 0.42191 -0.27800
N 	N 	0.41650 0.54355 0.89420 -0.27400
N 	N 	0.48340 0.67475 0.82107 -0.14100
N 	N 	0.44270 0.71417 0.86667 -0.14100
N 	N 	0.48300 0.75789 0.82297 -0.14200
N 	N 	0.60710 0.72865 0.71982 -0.27200
N 	N 	0.40720 0.88542 0.89602 -0.27300
N 	N 	0.08130 0.44633 0.04410 -0.27700
N 	N 	0.99160 0.38891 0.94099 -0.13900
N 	N 	0.84750 0.42272 0.95944 -0.14400
N 	N 	0.84720 0.38086 0.91287 -0.13200
N 	N 	0.10020 0.30233 0.84960 -0.28100
N 	N 	0.51580 0.44972 0.92191 -0.27800
Zn	Zn	0.88408 0.01995 0.91388 1.16500
Zn	Zn	0.86151 0.55070 0.91318 1.16500
Zn	Zn	0.18164 0.76357 0.68028 1.16500
Zn	Zn	0.11592 0.48005 0.41388 1.16500
Zn	Zn	0.13849 0.94930 0.41318 1.16500
Zn	Zn	0.81836 0.73643 0.18028 1.16500
Zn	Zn	0.38408 0.98005 0.58612 1.16500
Zn	Zn	0.36151 0.44930 0.58682 1.16500
Zn	Zn	0.68164 0.23643 0.81972 1.16500
Zn	Zn	0.61592 0.51995 0.08612 1.16500
Zn	Zn	0.63849 0.05070 0.08682 1.16500
Zn	Zn	0.31836 0.26357 0.31972 1.16500
H 	H 	0.93940 0.98240 0.85370 -0.01200
H 	H 	0.96240 0.91170 0.82840 0.08200
H 	H 	0.92350 0.84480 0.90770 0.08100
H 	H 	0.90240 0.91730 0.93080 -0.01000
H 	H 	0.13580 0.83910 0.72430 -0.00900
H 	H 	0.06940 0.84890 0.77280 0.07800
H 	H 	0.00140 0.70990 0.77160 0.07800
H 	H 	0.06310 0.70510 0.72280 0.00300
H 	H 	0.95490 0.58770 0.85770 -0.01000
H 	H 	0.98320 0.65840 0.83300 0.08000
H 	H 	0.90000 0.72720 0.90850 0.07900
H 	H 	0.87200 0.65420 0.93110 -0.01500
H 	H 	0.69780 0.07320 0.02230 -0.00800
H 	H 	0.62800 0.08900 0.97650 0.08200
H 	H 	0.37110 0.05070 0.01210 0.09300
H 	H 	0.45100 0.03250 0.05660 -0.01500
H 	H 	0.71170 0.17070 0.87020 -0.01100
H 	H 	0.62790 0.13090 0.90750 0.08700
H 	H 	0.38040 0.17680 0.86990 0.08900
H 	H 	0.47270 0.21680 0.83480 -0.01900
H 	H 	0.02440 0.03320 0.96510 -0.01100
H 	H 	0.17880 0.05760 0.97340 0.09600
H 	H 	0.19170 0.09930 0.88620 0.10000
H 	H 	0.03470 0.07470 0.88040 -0.00800
H 	H 	0.06060 0.51760 0.35370 -0.01200
H 	H 	0.03760 0.58830 0.32840 0.08200
H 	H 	0.07650 0.65520 0.40770 0.08100
H 	H 	0.09760 0.58270 0.43080 -0.01000
H 	H 	0.86420 0.66090 0.22430 -0.00900
H 	H 	0.93060 0.65110 0.27280 0.07800
H 	H 	0.99860 0.79010 0.27160 0.07900
H 	H 	0.93690 0.79490 0.22280 0.00300
H 	H 	0.04510 0.91230 0.35770 -0.01100
H 	H 	0.01680 0.84160 0.33300 0.08000
H 	H 	0.10000 0.77280 0.40850 0.07900
H 	H 	0.12800 0.84580 0.43110 -0.01500
H 	H 	0.30220 0.42680 0.52230 -0.00800
H 	H 	0.37200 0.41100 0.47650 0.08200
H 	H 	0.62890 0.44930 0.51210 0.09300
H 	H 	0.54900 0.46750 0.55660 -0.01500
H 	H 	0.28830 0.32930 0.37020 -0.01100
H 	H 	0.37210 0.36910 0.40750 0.08700
H 	H 	0.61960 0.32320 0.36990 0.08900
H 	H 	0.52730 0.28320 0.33480 -0.01900
H 	H 	0.97560 0.46680 0.46510 -0.01100
H 	H 	0.82120 0.44240 0.47340 0.09600
H 	H 	0.80830 0.40070 0.38620 0.10000
H 	H 	0.96530 0.42530 0.38040 -0.00800
H 	H 	0.43940 0.01760 0.64630 -0.01200
H 	H 	0.46240 0.08830 0.67160 0.08200
H 	H 	0.42350 0.15520 0.59230 0.08100
H 	H 	0.40240 0.08270 0.56920 -0.01000
H 	H 	0.63580 0.16090 0.77570 -0.00900
H 	H 	0.56940 0.15110 0.72720 0.07800
H 	H 	0.50140 0.29010 0.72840 0.07900
H 	H 	0.56310 0.29490 0.77720 0.00300
H 	H 	0.45490 0.41230 0.64230 -0.01000
H 	H 	0.48320 0.34160 0.66700 0.08000
H 	H 	0.40000 0.27280 0.59150 0.07900
H 	H 	0.37200 0.34580 0.56890 -0.01500
H 	H 	0.19780 0.92680 0.47770 -0.00800
H 	H 	0.12800 0.91100 0.52350 0.08200
H 	H 	0.87110 0.94930 0.48790 0.09300
H 	H 	0.95100 0.96750 0.44340 -0.01500
H 	H 	0.21170 0.82930 0.62980 -0.01100
H 	H 	0.12790 0.86910 0.59250 0.08700
H 	H 	0.88040 0.82320 0.63010 0.08900
H 	H 	0.97270 0.78320 0.66520 -0.01800
H 	H 	0.52440 0.96680 0.53490 -0.01100
H 	H 	0.67880 0.94240 0.52660 0.09600
H 	H 	0.69170 0.90070 0.61380 0.10000
H 	H 	0.53470 0.92530 0.61960 -0.00800
H 	H 	0.56060 0.48240 0.14630 -0.01200
H 	H 	0.53760 0.41170 0.17160 0.08200
H 	H 	0.57650 0.34480 0.09230 0.08100
H 	H 	0.59760 0.41730 0.06920 -0.01000
H 	H 	0.36420 0.33910 0.27570 -0.00900
H 	H 	0.43060 0.34890 0.22720 0.07800
H 	H 	0.49860 0.20990 0.22840 0.07900
H 	H 	0.43690 0.20510 0.27720 0.00300
H 	H 	0.54510 0.08770 0.14230 -0.01000
H 	H 	0.51680 0.15840 0.16700 0.08000
H 	H 	0.60000 0.22720 0.09150 0.07900
H 	H 	0.62800 0.15420 0.06890 -0.01500
H 	H 	0.80220 0.57320 0.97770 -0.00800
H 	H 	0.87200 0.58900 0.02350 0.08200
H 	H 	0.12890 0.55070 0.98790 0.09300
H 	H 	0.04900 0.53250 0.94340 -0.01500
H 	H 	0.78830 0.67070 0.12980 -0.01100
H 	H 	0.87210 0.63090 0.09250 0.08700
H 	H 	0.11960 0.67680 0.13010 0.08900
H 	H 	0.02730 0.71680 0.16520 -0.02000
H 	H 	0.47560 0.53320 0.03490 -0.01100
H 	H 	0.32120 0.55760 0.02660 0.09600
H 	H 	0.30830 0.59930 0.11380 0.10000
H 	H 	0.46530 0.57470 0.11960 -0.00800
C 	C 	0.93540 0.95390 0.86484 0.07600
C 	C 	0.94940 0.91180 0.84954 -0.12000
C 	C 	0.94430 0.87030 0.86537 0.05800
C 	C 	0.92670 0.87280 0.89598 -0.11800
C 	C 	0.91370 0.91620 0.90956 0.07700
C 	C 	0.95710 0.82410 0.85005 0.10300
C 	C 	0.99550 0.78280 0.80886 0.10700
C 	C 	0.95660 0.74550 0.85183 0.10300
C 	C 	0.10780 0.81280 0.73419 0.06100
C 	C 	0.06900 0.81900 0.76321 -0.11000
C 	C 	0.03020 0.78000 0.77736 0.04400
C 	C 	0.02830 0.73700 0.76218 -0.10600
C 	C 	0.06620 0.73420 0.73332 0.05600
C 	C 	0.94170 0.61640 0.86796 0.06200
C 	C 	0.95920 0.65840 0.85316 -0.11700
C 	C 	0.94160 0.70020 0.86788 0.05400
C 	C 	0.91020 0.69900 0.89747 -0.12000
C 	C 	0.89370 0.65530 0.91076 0.07000
C 	C 	0.63020 0.06890 0.02027 0.07900
C 	C 	0.58940 0.07880 0.99299 -0.12500
C 	C 	0.49080 0.07360 0.98966 0.05800
C 	C 	0.43860 0.05590 0.01379 -0.12600
C 	C 	0.48650 0.04570 0.04030 0.07100
C 	C 	0.44010 0.08800 0.96175 0.09600
C 	C 	0.44110 0.12550 0.91717 0.10300
C 	C 	0.30460 0.09350 0.93472 0.08700
C 	C 	0.64330 0.17250 0.87044 0.08300
C 	C 	0.59430 0.14860 0.89263 -0.12700
C 	C 	0.49540 0.15100 0.89287 0.07400
C 	C 	0.44880 0.17570 0.87076 -0.13800
C 	C 	0.50450 0.19880 0.84993 0.08800
C 	C 	0.05940 0.04660 0.94879 0.08700
C 	C 	0.15070 0.06090 0.95385 -0.13900
C 	C 	0.20290 0.08030 0.93025 0.06300
C 	C 	0.15830 0.08550 0.90276 -0.13700
C 	C 	0.06540 0.07060 0.89941 0.08100
C 	C 	0.06460 0.54610 0.36484 0.07600
C 	C 	0.05060 0.58820 0.34954 -0.12000
C 	C 	0.05570 0.62970 0.36537 0.05800
C 	C 	0.07330 0.62720 0.39598 -0.11800
C 	C 	0.08630 0.58380 0.40956 0.07700
C 	C 	0.04290 0.67590 0.35005 0.10300
C 	C 	0.00450 0.71720 0.30886 0.10600
C 	C 	0.04340 0.75450 0.35183 0.10300
C 	C 	0.89220 0.68720 0.23419 0.06100
C 	C 	0.93100 0.68100 0.26321 -0.11100
C 	C 	0.96980 0.72000 0.27736 0.04500
C 	C 	0.97170 0.76300 0.26218 -0.10700
C 	C 	0.93380 0.76580 0.23332 0.05700
C 	C 	0.05830 0.88360 0.36796 0.06200
C 	C 	0.04080 0.84160 0.35316 -0.11700
C 	C 	0.05840 0.79980 0.36788 0.05400
C 	C 	0.08980 0.80100 0.39747 -0.12000
C 	C 	0.10630 0.84470 0.41076 0.07000
C 	C 	0.36980 0.43110 0.52027 0.08000
C 	C 	0.41060 0.42120 0.49299 -0.12500
C 	C 	0.50920 0.42640 0.48966 0.05800
C 	C 	0.56140 0.44410 0.51379 -0.12600
C 	C 	0.51350 0.45430 0.54030 0.07100
C 	C 	0.55990 0.41200 0.46175 0.09600
C 	C 	0.55890 0.37450 0.41717 0.10300
C 	C 	0.69540 0.40650 0.43472 0.08700
C 	C 	0.35670 0.32750 0.37044 0.08300
C 	C 	0.40570 0.35140 0.39263 -0.12700
C 	C 	0.50460 0.34900 0.39287 0.07400
C 	C 	0.55120 0.32430 0.37076 -0.13800
C 	C 	0.49550 0.30120 0.34993 0.08800
C 	C 	0.94060 0.45340 0.44879 0.08700
C 	C 	0.84930 0.43910 0.45385 -0.13900
C 	C 	0.79710 0.41970 0.43025 0.06300
C 	C 	0.84170 0.41450 0.40276 -0.13700
C 	C 	0.93460 0.42940 0.39941 0.08100
C 	C 	0.43540 0.04610 0.63516 0.07600
C 	C 	0.44940 0.08820 0.65046 -0.12000
C 	C 	0.44430 0.12970 0.63463 0.05800
C 	C 	0.42670 0.12720 0.60402 -0.11800
C 	C 	0.41370 0.08380 0.59044 0.07700
C 	C 	0.45710 0.17590 0.64995 0.10300
C 	C 	0.49550 0.21720 0.69114 0.10700
C 	C 	0.45660 0.25450 0.64817 0.10300
C 	C 	0.60780 0.18720 0.76581 0.06100
C 	C 	0.56900 0.18100 0.73679 -0.11000
C 	C 	0.53020 0.22000 0.72264 0.04500
C 	C 	0.52830 0.26300 0.73782 -0.10700
C 	C 	0.56620 0.26580 0.76668 0.05700
C 	C 	0.44170 0.38360 0.63204 0.06200
C 	C 	0.45920 0.34160 0.64684 -0.11700
C 	C 	0.44160 0.29980 0.63212 0.05400
C 	C 	0.41020 0.30100 0.60253 -0.12000
C 	C 	0.39370 0.34470 0.58924 0.07000
C 	C 	0.13020 0.93110 0.47973 0.08000
C 	C 	0.08940 0.92120 0.50701 -0.12700
C 	C 	0.99080 0.92640 0.51034 0.05900
C 	C 	0.93860 0.94410 0.48621 -0.12700
C 	C 	0.98650 0.95430 0.45970 0.07200
C 	C 	0.94010 0.91200 0.53825 0.09600
C 	C 	0.94110 0.87450 0.58283 0.10300
C 	C 	0.80460 0.90650 0.56528 0.08700
C 	C 	0.14330 0.82750 0.62956 0.08300
C 	C 	0.09430 0.85140 0.60737 -0.12800
C 	C 	0.99540 0.84900 0.60713 0.07500
C 	C 	0.94880 0.82430 0.62924 -0.13700
C 	C 	0.00450 0.80120 0.65007 0.08700
C 	C 	0.55940 0.95340 0.55121 0.08700
C 	C 	0.65070 0.93910 0.54615 -0.13900
C 	C 	0.70290 0.91970 0.56975 0.06300
C 	C 	0.65830 0.91450 0.59724 -0.13700
C 	C 	0.56540 0.92940 0.60059 0.08100
C 	C 	0.56460 0.45390 0.13516 0.07600
C 	C 	0.55060 0.41180 0.15046 -0.12000
C 	C 	0.55570 0.37030 0.13463 0.05800
C 	C 	0.57330 0.37280 0.10402 -0.11800
C 	C 	0.58630 0.41620 0.09044 0.07700
C 	C 	0.54290 0.32410 0.14995 0.10300
C 	C 	0.50450 0.28280 0.19114 0.10700
C 	C 	0.54340 0.24550 0.14817 0.10300
C 	C 	0.39220 0.31280 0.26581 0.06100
C 	C 	0.43100 0.31900 0.23679 -0.11000
C 	C 	0.46980 0.28000 0.22264 0.04500
C 	C 	0.47170 0.23700 0.23782 -0.10700
C 	C 	0.43380 0.23420 0.26668 0.05700
C 	C 	0.55830 0.11640 0.13204 0.06200
C 	C 	0.54080 0.15840 0.14684 -0.11700
C 	C 	0.55840 0.20020 0.13212 0.05400
C 	C 	0.58980 0.19900 0.10253 -0.12000
C 	C 	0.60630 0.15530 0.08924 0.07000
C 	C 	0.86980 0.56890 0.97973 0.07900
C 	C 	0.91060 0.57880 0.00701 -0.12500
C 	C 	0.00920 0.57360 0.01034 0.05800
C 	C 	0.06140 0.55590 0.98621 -0.12600
C 	C 	0.01350 0.54570 0.95970 0.07100
C 	C 	0.05990 0.58800 0.03825 0.09600
C 	C 	0.05890 0.62550 0.08283 0.10300
C 	C 	0.19540 0.59350 0.06528 0.08700
C 	C 	0.85670 0.67250 0.12956 0.08300
C 	C 	0.90570 0.64860 0.10737 -0.12700
C 	C 	0.00460 0.65100 0.10713 0.07400
C 	C 	0.05120 0.67570 0.12924 -0.13900
C 	C 	0.99550 0.69880 0.15007 0.08900
C 	C 	0.44060 0.54660 0.05121 0.08700
C 	C 	0.34930 0.56090 0.04615 -0.13900
C 	C 	0.29710 0.58030 0.06975 0.06300
C 	C 	0.34170 0.58550 0.09724 -0.13700
C 	C 	0.43460 0.57060 0.10059 0.08100
I 	I 	0.80095 0.06774 0.87349 -0.37100
I 	I 	0.80672 0.00297 0.96514 -0.39500
I 	I 	0.68037 0.55807 0.91715 -0.38700
I 	I 	0.94816 0.48798 0.88300 -0.36500
I 	I 	0.34287 0.80512 0.68650 -0.37200
I 	I 	0.17921 0.67725 0.66545 -0.37500
I 	I 	0.19905 0.43226 0.37349 -0.37100
I 	I 	0.19328 0.49703 0.46514 -0.39400
I 	I 	0.31963 0.94193 0.41715 -0.38800
I 	I 	0.05184 0.01202 0.38300 -0.36400
I 	I 	0.65713 0.69488 0.18650 -0.37200
I 	I 	0.82079 0.82275 0.16545 -0.37500
I 	I 	0.30095 0.93226 0.62651 -0.37100
I 	I 	0.30672 0.99703 0.53486 -0.39400
I 	I 	0.18037 0.44193 0.58285 -0.38700
I 	I 	0.44816 0.51202 0.61700 -0.36400
I 	I 	0.84287 0.19488 0.81350 -0.37200
I 	I 	0.67921 0.32275 0.83455 -0.37500
I 	I 	0.69905 0.56774 0.12651 -0.37100
I 	I 	0.69328 0.50297 0.03486 -0.39400
I 	I 	0.81963 0.05807 0.08285 -0.38800
I 	I 	0.55184 0.98798 0.11700 -0.36400
I 	I 	0.15713 0.30512 0.31350 -0.37100
I 	I 	0.32079 0.17725 0.33455 -0.37500
N 	N 	0.91650 0.95645 0.89420 -0.27400
N 	N 	0.98340 0.82525 0.82107 -0.14100
N 	N 	0.94270 0.78583 0.86667 -0.14100
N 	N 	0.98300 0.74211 0.82297 -0.14200
N 	N 	0.10710 0.77135 0.71982 -0.27200
N 	N 	0.90720 0.61458 0.89602 -0.27300
N 	N 	0.58130 0.05367 0.04410 -0.27800
N 	N 	0.49160 0.11109 0.94099 -0.13900
N 	N 	0.34750 0.07728 0.95944 -0.14400
N 	N 	0.34720 0.11914 0.91287 -0.13200
N 	N 	0.60020 0.19767 0.84960 -0.28100
N 	N 	0.01580 0.05028 0.92191 -0.27800
N 	N 	0.08350 0.54355 0.39420 -0.27400
N 	N 	0.01660 0.67475 0.32107 -0.14100
N 	N 	0.05730 0.71417 0.36667 -0.14100
N 	N 	0.01700 0.75789 0.32297 -0.14200
N 	N 	0.89290 0.72865 0.21982 -0.27200
N 	N 	0.09280 0.88542 0.39602 -0.27300
N 	N 	0.41870 0.44633 0.54410 -0.27800
N 	N 	0.50840 0.38891 0.44099 -0.13900
N 	N 	0.65250 0.42272 0.45944 -0.14400
N 	N 	0.65280 0.38086 0.41287 -0.13200
N 	N 	0.39980 0.30233 0.34960 -0.28100
N 	N 	0.98420 0.44972 0.42191 -0.27800
N 	N 	0.41650 0.04355 0.60580 -0.27400
N 	N 	0.48340 0.17475 0.67893 -0.14100
N 	N 	0.44270 0.21417 0.63333 -0.14100
N 	N 	0.48300 0.25789 0.67703 -0.14200
N 	N 	0.60710 0.22865 0.78018 -0.27200
N 	N 	0.40720 0.38542 0.60398 -0.27300
N 	N 	0.08130 0.94633 0.45590 -0.27800
N 	N 	0.99160 0.88891 0.55901 -0.13900
N 	N 	0.84750 0.92272 0.54056 -0.14400
N 	N 	0.84720 0.88086 0.58713 -0.13200
N 	N 	0.10020 0.80233 0.65040 -0.28100
N 	N 	0.51580 0.94972 0.57809 -0.27800
N 	N 	0.58350 0.45645 0.10580 -0.27400
N 	N 	0.51660 0.32525 0.17893 -0.14100
N 	N 	0.55730 0.28583 0.13333 -0.14100
N 	N 	0.51700 0.24211 0.17703 -0.14200
N 	N 	0.39290 0.27135 0.28018 -0.27200
N 	N 	0.59280 0.11458 0.10398 -0.27300
N 	N 	0.91870 0.55367 0.95590 -0.27700
N 	N 	0.00840 0.61109 0.05901 -0.13900
N 	N 	0.15250 0.57728 0.04056 -0.14400
N 	N 	0.15280 0.61914 0.08713 -0.13200
N 	N 	0.89980 0.69767 0.15040 -0.28100
N 	N 	0.48420 0.55028 0.07809 -0.27800
