data_crystal

_cell_length_a 13.83900
_cell_length_b 27.91000
_cell_length_c 44.93000
_cell_angle_alpha 90.00000
_cell_angle_beta  90.00000
_cell_angle_gamma 90.00000

_symmetry_space_group_name_	'P 1'
_symmetry_space_group_name_H-M	'P 1'

loop_
_symmetry_equiv_pos_as_xyz
  x,y,z

loop_
_atom_site_label
_atom_site_type_symbol
_atom_site_fract_x
_atom_site_fract_y
_atom_site_fract_z
_atom_site_charge
Zn	Zn	0.83798 0.25818 0.81660 1.16400
Zn	Zn	0.62580 0.47757 0.91411 1.16500
Zn	Zn	0.85332 0.44819 0.08001 1.16600
Zn	Zn	0.16202 0.24182 0.31660 1.16500
Zn	Zn	0.37420 0.02243 0.41411 1.16600
Zn	Zn	0.14668 0.05181 0.58001 1.16600
Zn	Zn	0.33798 0.74182 0.68340 1.16500
Zn	Zn	0.12580 0.52243 0.58589 1.16600
Zn	Zn	0.35332 0.55181 0.41999 1.16600
Zn	Zn	0.66202 0.75818 0.18340 1.16500
Zn	Zn	0.87420 0.97757 0.08589 1.16500
Zn	Zn	0.64668 0.94819 0.91999 1.16600
H 	H 	0.04610 0.27760 0.83260 -0.01400
H 	H 	0.13450 0.31890 0.86890 0.08200
H 	H 	0.88400 0.35320 0.90800 0.08400
H 	H 	0.80180 0.31630 0.87020 -0.00700
H 	H 	0.47600 0.42210 0.88140 -0.00700
H 	H 	0.31860 0.39530 0.88710 0.09800
H 	H 	0.32920 0.43600 0.97310 0.09100
H 	H 	0.48460 0.46530 0.96470 -0.00500
H 	H 	0.04650 0.46550 0.05220 -0.01200
H 	H 	0.12950 0.44430 0.00970 0.09200
H 	H 	0.88190 0.40030 0.97330 0.08100
H 	H 	0.80190 0.42230 0.01690 -0.00600
H 	H 	0.07940 0.48480 0.64750 -0.01000
H 	H 	0.05750 0.41240 0.67190 0.08400
H 	H 	0.07650 0.34610 0.59270 0.08500
H 	H 	0.09560 0.41970 0.57050 -0.01100
H 	H 	0.89930 0.33640 0.77670 -0.01400
H 	H 	0.95810 0.34720 0.72860 0.08000
H 	H 	0.00780 0.20450 0.72470 0.07800
H 	H 	0.95100 0.19830 0.77300 0.00100
H 	H 	0.13020 0.15720 0.56560 -0.01900
H 	H 	0.10540 0.22920 0.58990 0.08100
H 	H 	0.03680 0.15480 0.66410 0.08000
H 	H 	0.06880 0.08510 0.63790 -0.01000
H 	H 	0.95390 0.22240 0.33260 -0.01500
H 	H 	0.86550 0.18110 0.36890 0.08300
H 	H 	0.11600 0.14680 0.40800 0.08400
H 	H 	0.19820 0.18370 0.37020 -0.00700
H 	H 	0.52400 0.07790 0.38140 -0.00700
H 	H 	0.68140 0.10470 0.38710 0.09800
H 	H 	0.67080 0.06400 0.47310 0.09100
H 	H 	0.51540 0.03470 0.46470 -0.00500
H 	H 	0.95350 0.03450 0.55220 -0.01200
H 	H 	0.87050 0.05570 0.50970 0.09300
H 	H 	0.11810 0.09970 0.47330 0.08100
H 	H 	0.19810 0.07770 0.51690 -0.00600
H 	H 	0.92060 0.01520 0.14750 -0.01000
H 	H 	0.94250 0.08760 0.17190 0.08500
H 	H 	0.92350 0.15390 0.09270 0.08500
H 	H 	0.90440 0.08030 0.07050 -0.01100
H 	H 	0.10070 0.16360 0.27670 -0.01400
H 	H 	0.04190 0.15280 0.22860 0.08000
H 	H 	0.99220 0.29550 0.22470 0.07900
H 	H 	0.04900 0.30170 0.27300 0.00100
H 	H 	0.86980 0.34280 0.06560 -0.01900
H 	H 	0.89460 0.27080 0.08990 0.08100
H 	H 	0.96320 0.34520 0.16410 0.08000
H 	H 	0.93120 0.41490 0.13790 -0.01000
H 	H 	0.54610 0.72240 0.66740 -0.01500
H 	H 	0.63450 0.68110 0.63110 0.08300
H 	H 	0.38400 0.64680 0.59200 0.08400
H 	H 	0.30180 0.68370 0.62980 -0.00700
H 	H 	0.97600 0.57790 0.61860 -0.00700
H 	H 	0.81860 0.60470 0.61290 0.09800
H 	H 	0.82920 0.56400 0.52690 0.09100
H 	H 	0.98460 0.53470 0.53530 -0.00500
H 	H 	0.54650 0.53450 0.44780 -0.01200
H 	H 	0.62950 0.55570 0.49030 0.09200
H 	H 	0.38190 0.59970 0.52670 0.08100
H 	H 	0.30190 0.57770 0.48310 -0.00600
H 	H 	0.57940 0.51520 0.85250 -0.01000
H 	H 	0.55750 0.58760 0.82810 0.08500
H 	H 	0.57650 0.65390 0.90730 0.08500
H 	H 	0.59560 0.58030 0.92950 -0.01100
H 	H 	0.39930 0.66360 0.72330 -0.01400
H 	H 	0.45810 0.65280 0.77140 0.07900
H 	H 	0.50780 0.79550 0.77530 0.08000
H 	H 	0.45100 0.80170 0.72700 0.00100
H 	H 	0.63020 0.84280 0.93440 -0.01900
H 	H 	0.60540 0.77080 0.91010 0.08100
H 	H 	0.53680 0.84520 0.83590 0.08000
H 	H 	0.56880 0.91490 0.86210 -0.00900
H 	H 	0.45390 0.77760 0.16740 -0.01500
H 	H 	0.36550 0.81890 0.13110 0.08300
H 	H 	0.61600 0.85320 0.09200 0.08400
H 	H 	0.69820 0.81630 0.12980 -0.00700
H 	H 	0.02400 0.92210 0.11860 -0.00700
H 	H 	0.18140 0.89530 0.11290 0.09800
H 	H 	0.17080 0.93600 0.02690 0.09100
H 	H 	0.01540 0.96530 0.03530 -0.00500
H 	H 	0.45350 0.96550 0.94780 -0.01200
H 	H 	0.37050 0.94430 0.99030 0.09200
H 	H 	0.61810 0.90030 0.02670 0.08100
H 	H 	0.69810 0.92230 0.98310 -0.00600
H 	H 	0.42060 0.98480 0.35250 -0.01000
H 	H 	0.44250 0.91240 0.32810 0.08500
H 	H 	0.42350 0.84610 0.40730 0.08500
H 	H 	0.40440 0.91970 0.42950 -0.01100
H 	H 	0.60070 0.83640 0.22330 -0.01400
H 	H 	0.54190 0.84720 0.27140 0.07900
H 	H 	0.49220 0.70450 0.27530 0.08000
H 	H 	0.54900 0.69830 0.22700 0.00100
H 	H 	0.36980 0.65720 0.43440 -0.01900
H 	H 	0.39460 0.72920 0.41010 0.08100
H 	H 	0.46320 0.65480 0.33590 0.08000
H 	H 	0.43120 0.58510 0.36210 -0.00900
C 	C 	0.01260 0.29400 0.84800 0.07400
C 	C 	0.06600 0.31770 0.86990 -0.12100
C 	C 	0.01800 0.33920 0.89294 0.06200
C 	C 	0.91920 0.33820 0.89240 -0.11300
C 	C 	0.87050 0.31600 0.87000 0.07000
C 	C 	0.07060 0.36460 0.91661 0.10600
C 	C 	0.20570 0.39870 0.93499 0.09100
C 	C 	0.06870 0.40270 0.96064 0.09700
C 	C 	0.44500 0.42600 0.90010 0.07300
C 	C 	0.35180 0.40930 0.90340 -0.13000
C 	C 	0.30750 0.41330 0.93080 0.05700
C 	C 	0.35750 0.43360 0.95390 -0.12900
C 	C 	0.45050 0.45070 0.94870 0.07600
C 	C 	0.01270 0.45050 0.03630 0.06900
C 	C 	0.06200 0.43860 0.01100 -0.12600
C 	C 	0.01440 0.41830 0.98725 0.05900
C 	C 	0.91770 0.41280 0.98950 -0.12100
C 	C 	0.87020 0.42540 0.01590 0.07400
C 	C 	0.07970 0.45600 0.63620 0.07400
C 	C 	0.06610 0.41310 0.65100 -0.12900
C 	C 	0.06530 0.37240 0.63491 0.06500
C 	C 	0.07700 0.37440 0.60440 -0.12700
C 	C 	0.08940 0.41830 0.59150 0.08100
C 	C 	0.05390 0.32420 0.64980 0.10400
C 	C 	0.01910 0.28040 0.68999 0.10600
C 	C 	0.05550 0.24460 0.64685 0.10200
C 	C 	0.92060 0.30930 0.76560 0.07100
C 	C 	0.95580 0.31600 0.73710 -0.11600
C 	C 	0.98770 0.27650 0.72099 0.04700
C 	C 	0.98540 0.23220 0.73485 -0.10800
C 	C 	0.95060 0.22860 0.76336 0.06000
C 	C 	0.11250 0.15670 0.58600 0.08200
C 	C 	0.09730 0.19980 0.60028 -0.12700
C 	C 	0.07000 0.19950 0.62990 0.05500
C 	C 	0.05760 0.15620 0.64394 -0.11700
C 	C 	0.07600 0.11500 0.62811 0.05900
C 	C 	0.98740 0.20600 0.34800 0.07500
C 	C 	0.93400 0.18230 0.36990 -0.12300
C 	C 	0.98200 0.16080 0.39294 0.06300
C 	C 	0.08080 0.16180 0.39240 -0.11500
C 	C 	0.12950 0.18400 0.37000 0.07100
C 	C 	0.92940 0.13540 0.41661 0.10500
C 	C 	0.79430 0.10130 0.43499 0.09100
C 	C 	0.93130 0.09730 0.46064 0.09700
C 	C 	0.55500 0.07400 0.40010 0.07400
C 	C 	0.64820 0.09070 0.40340 -0.13000
C 	C 	0.69250 0.08670 0.43080 0.05700
C 	C 	0.64250 0.06640 0.45390 -0.12900
C 	C 	0.54950 0.04930 0.44870 0.07600
C 	C 	0.98730 0.04950 0.53630 0.07100
C 	C 	0.93800 0.06140 0.51100 -0.12800
C 	C 	0.98560 0.08170 0.48725 0.06100
C 	C 	0.08230 0.08720 0.48950 -0.12400
C 	C 	0.12980 0.07460 0.51590 0.07500
C 	C 	0.92030 0.04400 0.13620 0.07400
C 	C 	0.93390 0.08690 0.15100 -0.12900
C 	C 	0.93470 0.12760 0.13491 0.06500
C 	C 	0.92300 0.12560 0.10440 -0.12700
C 	C 	0.91060 0.08170 0.09150 0.08100
C 	C 	0.94610 0.17580 0.14980 0.10400
C 	C 	0.98090 0.21960 0.18999 0.10700
C 	C 	0.94450 0.25540 0.14685 0.10300
C 	C 	0.07940 0.19070 0.26560 0.07100
C 	C 	0.04420 0.18400 0.23710 -0.11600
C 	C 	0.01230 0.22350 0.22099 0.04700
C 	C 	0.01460 0.26780 0.23485 -0.10900
C 	C 	0.04940 0.27140 0.26336 0.06100
C 	C 	0.88750 0.34330 0.08600 0.08200
C 	C 	0.90270 0.30020 0.10028 -0.12700
C 	C 	0.93000 0.30050 0.12990 0.05600
C 	C 	0.94240 0.34380 0.14394 -0.11700
C 	C 	0.92400 0.38500 0.12811 0.05900
C 	C 	0.51260 0.70600 0.65200 0.07600
C 	C 	0.56600 0.68230 0.63010 -0.12300
C 	C 	0.51800 0.66080 0.60706 0.06400
C 	C 	0.41920 0.66180 0.60760 -0.11600
C 	C 	0.37050 0.68400 0.63000 0.07100
C 	C 	0.57060 0.63540 0.58339 0.10500
C 	C 	0.70570 0.60130 0.56501 0.09100
C 	C 	0.56870 0.59730 0.53936 0.09700
C 	C 	0.94500 0.57400 0.59990 0.07400
C 	C 	0.85180 0.59070 0.59660 -0.13000
C 	C 	0.80750 0.58670 0.56920 0.05700
C 	C 	0.85750 0.56640 0.54610 -0.12900
C 	C 	0.95050 0.54930 0.55130 0.07600
C 	C 	0.51270 0.54950 0.46370 0.06900
C 	C 	0.56200 0.56140 0.48900 -0.12700
C 	C 	0.51440 0.58170 0.51275 0.05900
C 	C 	0.41770 0.58720 0.51050 -0.12200
C 	C 	0.37020 0.57460 0.48410 0.07400
C 	C 	0.57970 0.54400 0.86380 0.07400
C 	C 	0.56610 0.58690 0.84900 -0.12900
C 	C 	0.56530 0.62760 0.86509 0.06500
C 	C 	0.57700 0.62560 0.89560 -0.12700
C 	C 	0.58940 0.58170 0.90850 0.08100
C 	C 	0.55390 0.67580 0.85020 0.10400
C 	C 	0.51910 0.71960 0.81001 0.10700
C 	C 	0.55550 0.75540 0.85315 0.10300
C 	C 	0.42060 0.69070 0.73440 0.07100
C 	C 	0.45580 0.68400 0.76290 -0.11600
C 	C 	0.48770 0.72350 0.77901 0.04700
C 	C 	0.48540 0.76780 0.76515 -0.11100
C 	C 	0.45060 0.77140 0.73664 0.06100
C 	C 	0.61250 0.84330 0.91400 0.08300
C 	C 	0.59730 0.80020 0.89972 -0.12700
C 	C 	0.57000 0.80050 0.87010 0.05600
C 	C 	0.55760 0.84380 0.85606 -0.11700
C 	C 	0.57600 0.88500 0.87189 0.05900
C 	C 	0.48740 0.79400 0.15200 0.07600
C 	C 	0.43400 0.81770 0.13010 -0.12300
C 	C 	0.48200 0.83920 0.10706 0.06400
C 	C 	0.58080 0.83820 0.10760 -0.11600
C 	C 	0.62950 0.81600 0.13000 0.07100
C 	C 	0.42940 0.86460 0.08339 0.10500
C 	C 	0.29430 0.89870 0.06501 0.09100
C 	C 	0.43130 0.90270 0.03936 0.09700
C 	C 	0.05500 0.92600 0.09990 0.07400
C 	C 	0.14820 0.90930 0.09660 -0.13000
C 	C 	0.19250 0.91330 0.06920 0.05700
C 	C 	0.14250 0.93360 0.04610 -0.12900
C 	C 	0.04950 0.95070 0.05130 0.07600
C 	C 	0.48730 0.95050 0.96370 0.07000
C 	C 	0.43800 0.93860 0.98900 -0.12700
C 	C 	0.48560 0.91830 0.01275 0.05900
C 	C 	0.58230 0.91280 0.01050 -0.12200
C 	C 	0.62980 0.92540 0.98410 0.07400
C 	C 	0.42030 0.95600 0.36380 0.07400
C 	C 	0.43390 0.91310 0.34900 -0.12900
C 	C 	0.43470 0.87240 0.36509 0.06500
C 	C 	0.42300 0.87440 0.39560 -0.12700
C 	C 	0.41060 0.91830 0.40850 0.08100
C 	C 	0.44610 0.82420 0.35020 0.10400
C 	C 	0.48090 0.78040 0.31001 0.10700
C 	C 	0.44450 0.74460 0.35315 0.10300
C 	C 	0.57940 0.80930 0.23440 0.07100
C 	C 	0.54420 0.81600 0.26290 -0.11600
C 	C 	0.51230 0.77650 0.27901 0.04700
C 	C 	0.51460 0.73220 0.26515 -0.11100
C 	C 	0.54940 0.72860 0.23664 0.06100
C 	C 	0.38750 0.65670 0.41400 0.08300
C 	C 	0.40270 0.69980 0.39972 -0.12700
C 	C 	0.43000 0.69950 0.37010 0.05600
C 	C 	0.44240 0.65620 0.35606 -0.11700
C 	C 	0.42400 0.61500 0.37189 0.05900
I 	I 	0.82891 0.16951 0.82937 -0.37400
I 	I 	0.67967 0.30387 0.81044 -0.37000
I 	I 	0.70976 0.42496 0.87643 -0.36900
I 	I 	0.70093 0.49731 0.96449 -0.39000
I 	I 	0.67228 0.44006 0.07336 -0.38500
I 	I 	0.93964 0.51364 0.10851 -0.36400
I 	I 	0.17109 0.33049 0.32937 -0.37400
I 	I 	0.32033 0.19613 0.31044 -0.37000
I 	I 	0.29024 0.07504 0.37643 -0.36900
I 	I 	0.29907 0.00269 0.46449 -0.39100
I 	I 	0.32772 0.05994 0.57336 -0.38600
I 	I 	0.06036 0.98636 0.60851 -0.36400
I 	I 	0.32891 0.83049 0.67063 -0.37400
I 	I 	0.17967 0.69613 0.68956 -0.37100
I 	I 	0.20976 0.57504 0.62357 -0.37000
I 	I 	0.20093 0.50269 0.53551 -0.39100
I 	I 	0.17228 0.55994 0.42664 -0.38500
I 	I 	0.43964 0.48636 0.39149 -0.36400
I 	I 	0.67109 0.66951 0.17063 -0.37400
I 	I 	0.82033 0.80387 0.18956 -0.37100
I 	I 	0.79024 0.92496 0.12357 -0.37000
I 	I 	0.79907 0.99731 0.03551 -0.39100
I 	I 	0.82772 0.94006 0.92664 -0.38600
I 	I 	0.56036 0.01364 0.89149 -0.36400
N 	N 	0.91670 0.29380 0.84783 -0.27700
N 	N 	0.16440 0.37240 0.91286 -0.13300
N 	N 	0.16170 0.41410 0.95916 -0.14500
N 	N 	0.01850 0.37870 0.94024 -0.13800
N 	N 	0.49360 0.44750 0.92214 -0.27500
N 	N 	0.91690 0.44150 0.03935 -0.27800
N 	N 	0.09320 0.45920 0.60664 -0.27700
N 	N 	0.03020 0.32440 0.67825 -0.14200
N 	N 	0.03110 0.24030 0.67563 -0.14300
N 	N 	0.06630 0.28600 0.63283 -0.14200
N 	N 	0.91600 0.26670 0.77795 -0.27300
N 	N 	0.10370 0.11500 0.59930 -0.27700
N 	N 	0.08330 0.20620 0.34783 -0.27800
N 	N 	0.83560 0.12760 0.41286 -0.13300
N 	N 	0.83830 0.08590 0.45916 -0.14500
N 	N 	0.98150 0.12130 0.44024 -0.13700
N 	N 	0.50640 0.05250 0.42214 -0.27500
N 	N 	0.08310 0.05850 0.53935 -0.27900
N 	N 	0.90680 0.04080 0.10664 -0.27600
N 	N 	0.96980 0.17560 0.17825 -0.14100
N 	N 	0.96890 0.25970 0.17563 -0.14300
N 	N 	0.93370 0.21400 0.13283 -0.14200
N 	N 	0.08400 0.23330 0.27795 -0.27300
N 	N 	0.89630 0.38500 0.09930 -0.27600
N 	N 	0.41670 0.70620 0.65217 -0.27800
N 	N 	0.66440 0.62760 0.58714 -0.13200
N 	N 	0.66170 0.58590 0.54084 -0.14500
N 	N 	0.51850 0.62130 0.55976 -0.13700
N 	N 	0.99360 0.55250 0.57786 -0.27500
N 	N 	0.41690 0.55850 0.46065 -0.27800
N 	N 	0.59320 0.54080 0.89336 -0.27700
N 	N 	0.53020 0.67560 0.82175 -0.14100
N 	N 	0.53110 0.75970 0.82437 -0.14200
N 	N 	0.56630 0.71400 0.86717 -0.14200
N 	N 	0.41600 0.73330 0.72205 -0.27300
N 	N 	0.60370 0.88500 0.90070 -0.27600
N 	N 	0.58330 0.79380 0.15217 -0.27800
N 	N 	0.33560 0.87240 0.08714 -0.13200
N 	N 	0.33830 0.91410 0.04084 -0.14500
N 	N 	0.48150 0.87870 0.05976 -0.13700
N 	N 	0.00640 0.94750 0.07786 -0.27500
N 	N 	0.58310 0.94150 0.96065 -0.27800
N 	N 	0.40680 0.95920 0.39336 -0.27600
N 	N 	0.46980 0.82440 0.32175 -0.14100
N 	N 	0.46890 0.74030 0.32437 -0.14200
N 	N 	0.43370 0.78600 0.36717 -0.14200
N 	N 	0.58400 0.76670 0.22205 -0.27300
N 	N 	0.39630 0.61500 0.40070 -0.27600
Zn	Zn	0.16202 0.74182 0.18340 1.16500
Zn	Zn	0.37420 0.52243 0.08589 1.16600
Zn	Zn	0.14668 0.55181 0.91999 1.16600
Zn	Zn	0.83798 0.75818 0.68340 1.16500
Zn	Zn	0.62580 0.97757 0.58589 1.16600
Zn	Zn	0.85332 0.94819 0.41999 1.16600
Zn	Zn	0.66202 0.25818 0.31660 1.16500
Zn	Zn	0.87420 0.47757 0.41411 1.16600
Zn	Zn	0.64668 0.44819 0.58001 1.16600
Zn	Zn	0.33798 0.24182 0.81660 1.16500
Zn	Zn	0.12580 0.02243 0.91411 1.16500
Zn	Zn	0.35332 0.05181 0.08001 1.16600
H 	H 	0.95390 0.72240 0.16740 -0.01400
H 	H 	0.86550 0.68110 0.13110 0.08200
H 	H 	0.11600 0.64680 0.09200 0.08400
H 	H 	0.19820 0.68370 0.12980 -0.00700
H 	H 	0.52400 0.57790 0.11860 -0.00700
H 	H 	0.68140 0.60470 0.11290 0.09800
H 	H 	0.67080 0.56400 0.02690 0.09100
H 	H 	0.51540 0.53470 0.03530 -0.00500
H 	H 	0.95350 0.53450 0.94780 -0.01200
H 	H 	0.87050 0.55570 0.99030 0.09200
H 	H 	0.11810 0.59970 0.02670 0.08100
H 	H 	0.19810 0.57770 0.98310 -0.00600
H 	H 	0.92060 0.51520 0.35250 -0.01000
H 	H 	0.94250 0.58760 0.32810 0.08400
H 	H 	0.92350 0.65390 0.40730 0.08500
H 	H 	0.90440 0.58030 0.42950 -0.01100
H 	H 	0.10070 0.66360 0.22330 -0.01400
H 	H 	0.04190 0.65280 0.27140 0.08000
H 	H 	0.99220 0.79550 0.27530 0.07800
H 	H 	0.04900 0.80170 0.22700 0.00100
H 	H 	0.86980 0.84280 0.43440 -0.01900
H 	H 	0.89460 0.77080 0.41010 0.08100
H 	H 	0.96320 0.84520 0.33590 0.08000
H 	H 	0.93120 0.91490 0.36210 -0.01000
H 	H 	0.04610 0.77760 0.66740 -0.01500
H 	H 	0.13450 0.81890 0.63110 0.08300
H 	H 	0.88400 0.85320 0.59200 0.08400
H 	H 	0.80180 0.81630 0.62980 -0.00700
H 	H 	0.47600 0.92210 0.61860 -0.00700
H 	H 	0.31860 0.89530 0.61290 0.09800
H 	H 	0.32920 0.93600 0.52690 0.09100
H 	H 	0.48460 0.96530 0.53530 -0.00500
H 	H 	0.04650 0.96550 0.44780 -0.01200
H 	H 	0.12950 0.94430 0.49030 0.09300
H 	H 	0.88190 0.90030 0.52670 0.08100
H 	H 	0.80190 0.92230 0.48310 -0.00600
H 	H 	0.07940 0.98480 0.85250 -0.01000
H 	H 	0.05750 0.91240 0.82810 0.08500
H 	H 	0.07650 0.84610 0.90730 0.08500
H 	H 	0.09560 0.91970 0.92950 -0.01100
H 	H 	0.89930 0.83640 0.72330 -0.01400
H 	H 	0.95810 0.84720 0.77140 0.08000
H 	H 	0.00780 0.70450 0.77530 0.07900
H 	H 	0.95100 0.69830 0.72700 0.00100
H 	H 	0.13020 0.65720 0.93440 -0.01900
H 	H 	0.10540 0.72920 0.91010 0.08100
H 	H 	0.03680 0.65480 0.83590 0.08000
H 	H 	0.06880 0.58510 0.86210 -0.01000
H 	H 	0.45390 0.27760 0.33260 -0.01500
H 	H 	0.36550 0.31890 0.36890 0.08300
H 	H 	0.61600 0.35320 0.40800 0.08400
H 	H 	0.69820 0.31630 0.37020 -0.00700
H 	H 	0.02400 0.42210 0.38140 -0.00700
H 	H 	0.18140 0.39530 0.38710 0.09800
H 	H 	0.17080 0.43600 0.47310 0.09100
H 	H 	0.01540 0.46530 0.46470 -0.00500
H 	H 	0.45350 0.46550 0.55220 -0.01200
H 	H 	0.37050 0.44430 0.50970 0.09200
H 	H 	0.61810 0.40030 0.47330 0.08100
H 	H 	0.69810 0.42230 0.51690 -0.00600
H 	H 	0.42060 0.48480 0.14750 -0.01000
H 	H 	0.44250 0.41240 0.17190 0.08500
H 	H 	0.42350 0.34610 0.09270 0.08500
H 	H 	0.40440 0.41970 0.07050 -0.01100
H 	H 	0.60070 0.33640 0.27670 -0.01400
H 	H 	0.54190 0.34720 0.22860 0.07900
H 	H 	0.49220 0.20450 0.22470 0.08000
H 	H 	0.54900 0.19830 0.27300 0.00100
H 	H 	0.36980 0.15720 0.06560 -0.01900
H 	H 	0.39460 0.22920 0.08990 0.08100
H 	H 	0.46320 0.15480 0.16410 0.08000
H 	H 	0.43120 0.08510 0.13790 -0.00900
H 	H 	0.54610 0.22240 0.83260 -0.01500
H 	H 	0.63450 0.18110 0.86890 0.08300
H 	H 	0.38400 0.14680 0.90800 0.08400
H 	H 	0.30180 0.18370 0.87020 -0.00700
H 	H 	0.97600 0.07790 0.88140 -0.00700
H 	H 	0.81860 0.10470 0.88710 0.09800
H 	H 	0.82920 0.06400 0.97310 0.09100
H 	H 	0.98460 0.03470 0.96470 -0.00500
H 	H 	0.54650 0.03450 0.05220 -0.01200
H 	H 	0.62950 0.05570 0.00970 0.09200
H 	H 	0.38190 0.09970 0.97330 0.08100
H 	H 	0.30190 0.07770 0.01690 -0.00600
H 	H 	0.57940 0.01520 0.64750 -0.01000
H 	H 	0.55750 0.08760 0.67190 0.08500
H 	H 	0.57650 0.15390 0.59270 0.08500
H 	H 	0.59560 0.08030 0.57050 -0.01100
H 	H 	0.39930 0.16360 0.77670 -0.01400
H 	H 	0.45810 0.15280 0.72860 0.07900
H 	H 	0.50780 0.29550 0.72470 0.08000
H 	H 	0.45100 0.30170 0.77300 0.00100
H 	H 	0.63020 0.34280 0.56560 -0.01900
H 	H 	0.60540 0.27080 0.58990 0.08100
H 	H 	0.53680 0.34520 0.66410 0.08000
H 	H 	0.56880 0.41490 0.63790 -0.00900
C 	C 	0.98740 0.70600 0.15200 0.07400
C 	C 	0.93400 0.68230 0.13010 -0.12100
C 	C 	0.98200 0.66080 0.10706 0.06200
C 	C 	0.08080 0.66180 0.10760 -0.11300
C 	C 	0.12950 0.68400 0.13000 0.07000
C 	C 	0.92940 0.63540 0.08339 0.10600
C 	C 	0.79430 0.60130 0.06501 0.09100
C 	C 	0.93130 0.59730 0.03936 0.09700
C 	C 	0.55500 0.57400 0.09990 0.07300
C 	C 	0.64820 0.59070 0.09660 -0.13000
C 	C 	0.69250 0.58670 0.06920 0.05700
C 	C 	0.64250 0.56640 0.04610 -0.12900
C 	C 	0.54950 0.54930 0.05130 0.07600
C 	C 	0.98730 0.54950 0.96370 0.06900
C 	C 	0.93800 0.56140 0.98900 -0.12600
C 	C 	0.98560 0.58170 0.01275 0.05900
C 	C 	0.08230 0.58720 0.01050 -0.12100
C 	C 	0.12980 0.57460 0.98410 0.07400
C 	C 	0.92030 0.54400 0.36380 0.07400
C 	C 	0.93390 0.58690 0.34900 -0.12900
C 	C 	0.93470 0.62760 0.36509 0.06500
C 	C 	0.92300 0.62560 0.39560 -0.12700
C 	C 	0.91060 0.58170 0.40850 0.08100
C 	C 	0.94610 0.67580 0.35020 0.10400
C 	C 	0.98090 0.71960 0.31001 0.10600
C 	C 	0.94450 0.75540 0.35315 0.10200
C 	C 	0.07940 0.69070 0.23440 0.07100
C 	C 	0.04420 0.68400 0.26290 -0.11600
C 	C 	0.01230 0.72350 0.27901 0.04700
C 	C 	0.01460 0.76780 0.26515 -0.10800
C 	C 	0.04940 0.77140 0.23664 0.06000
C 	C 	0.88750 0.84330 0.41400 0.08200
C 	C 	0.90270 0.80020 0.39972 -0.12700
C 	C 	0.93000 0.80050 0.37010 0.05500
C 	C 	0.94240 0.84380 0.35606 -0.11700
C 	C 	0.92400 0.88500 0.37189 0.05900
C 	C 	0.01260 0.79400 0.65200 0.07500
C 	C 	0.06600 0.81770 0.63010 -0.12300
C 	C 	0.01800 0.83920 0.60706 0.06300
C 	C 	0.91920 0.83820 0.60760 -0.11500
C 	C 	0.87050 0.81600 0.63000 0.07100
C 	C 	0.07060 0.86460 0.58339 0.10500
C 	C 	0.20570 0.89870 0.56501 0.09100
C 	C 	0.06870 0.90270 0.53936 0.09700
C 	C 	0.44500 0.92600 0.59990 0.07400
C 	C 	0.35180 0.90930 0.59660 -0.13000
C 	C 	0.30750 0.91330 0.56920 0.05700
C 	C 	0.35750 0.93360 0.54610 -0.12900
C 	C 	0.45050 0.95070 0.55130 0.07600
C 	C 	0.01270 0.95050 0.46370 0.07100
C 	C 	0.06200 0.93860 0.48900 -0.12800
C 	C 	0.01440 0.91830 0.51275 0.06100
C 	C 	0.91770 0.91280 0.51050 -0.12400
C 	C 	0.87020 0.92540 0.48410 0.07500
C 	C 	0.07970 0.95600 0.86380 0.07400
C 	C 	0.06610 0.91310 0.84900 -0.12900
C 	C 	0.06530 0.87240 0.86509 0.06500
C 	C 	0.07700 0.87440 0.89560 -0.12700
C 	C 	0.08940 0.91830 0.90850 0.08100
C 	C 	0.05390 0.82420 0.85020 0.10400
C 	C 	0.01910 0.78040 0.81001 0.10700
C 	C 	0.05550 0.74460 0.85315 0.10300
C 	C 	0.92060 0.80930 0.73440 0.07100
C 	C 	0.95580 0.81600 0.76290 -0.11600
C 	C 	0.98770 0.77650 0.77901 0.04700
C 	C 	0.98540 0.73220 0.76515 -0.10900
C 	C 	0.95060 0.72860 0.73664 0.06100
C 	C 	0.11250 0.65670 0.91400 0.08200
C 	C 	0.09730 0.69980 0.89972 -0.12700
C 	C 	0.07000 0.69950 0.87010 0.05600
C 	C 	0.05760 0.65620 0.85606 -0.11700
C 	C 	0.07600 0.61500 0.87189 0.05900
C 	C 	0.48740 0.29400 0.34800 0.07600
C 	C 	0.43400 0.31770 0.36990 -0.12300
C 	C 	0.48200 0.33920 0.39294 0.06400
C 	C 	0.58080 0.33820 0.39240 -0.11600
C 	C 	0.62950 0.31600 0.37000 0.07100
C 	C 	0.42940 0.36460 0.41661 0.10500
C 	C 	0.29430 0.39870 0.43499 0.09100
C 	C 	0.43130 0.40270 0.46064 0.09700
C 	C 	0.05500 0.42600 0.40010 0.07400
C 	C 	0.14820 0.40930 0.40340 -0.13000
C 	C 	0.19250 0.41330 0.43080 0.05700
C 	C 	0.14250 0.43360 0.45390 -0.12900
C 	C 	0.04950 0.45070 0.44870 0.07600
C 	C 	0.48730 0.45050 0.53630 0.06900
C 	C 	0.43800 0.43860 0.51100 -0.12700
C 	C 	0.48560 0.41830 0.48725 0.05900
C 	C 	0.58230 0.41280 0.48950 -0.12200
C 	C 	0.62980 0.42540 0.51590 0.07400
C 	C 	0.42030 0.45600 0.13620 0.07400
C 	C 	0.43390 0.41310 0.15100 -0.12900
C 	C 	0.43470 0.37240 0.13491 0.06500
C 	C 	0.42300 0.37440 0.10440 -0.12700
C 	C 	0.41060 0.41830 0.09150 0.08100
C 	C 	0.44610 0.32420 0.14980 0.10400
C 	C 	0.48090 0.28040 0.18999 0.10700
C 	C 	0.44450 0.24460 0.14685 0.10300
C 	C 	0.57940 0.30930 0.26560 0.07100
C 	C 	0.54420 0.31600 0.23710 -0.11600
C 	C 	0.51230 0.27650 0.22099 0.04700
C 	C 	0.51460 0.23220 0.23485 -0.11100
C 	C 	0.54940 0.22860 0.26336 0.06100
C 	C 	0.38750 0.15670 0.08600 0.08300
C 	C 	0.40270 0.19980 0.10028 -0.12700
C 	C 	0.43000 0.19950 0.12990 0.05600
C 	C 	0.44240 0.15620 0.14394 -0.11700
C 	C 	0.42400 0.11500 0.12811 0.05900
C 	C 	0.51260 0.20600 0.84800 0.07600
C 	C 	0.56600 0.18230 0.86990 -0.12300
C 	C 	0.51800 0.16080 0.89294 0.06400
C 	C 	0.41920 0.16180 0.89240 -0.11600
C 	C 	0.37050 0.18400 0.87000 0.07100
C 	C 	0.57060 0.13540 0.91661 0.10500
C 	C 	0.70570 0.10130 0.93499 0.09100
C 	C 	0.56870 0.09730 0.96064 0.09700
C 	C 	0.94500 0.07400 0.90010 0.07400
C 	C 	0.85180 0.09070 0.90340 -0.13000
C 	C 	0.80750 0.08670 0.93080 0.05700
C 	C 	0.85750 0.06640 0.95390 -0.12900
C 	C 	0.95050 0.04930 0.94870 0.07600
C 	C 	0.51270 0.04950 0.03630 0.07000
C 	C 	0.56200 0.06140 0.01100 -0.12700
C 	C 	0.51440 0.08170 0.98725 0.05900
C 	C 	0.41770 0.08720 0.98950 -0.12200
C 	C 	0.37020 0.07460 0.01590 0.07400
C 	C 	0.57970 0.04400 0.63620 0.07400
C 	C 	0.56610 0.08690 0.65100 -0.12900
C 	C 	0.56530 0.12760 0.63491 0.06500
C 	C 	0.57700 0.12560 0.60440 -0.12700
C 	C 	0.58940 0.08170 0.59150 0.08100
C 	C 	0.55390 0.17580 0.64980 0.10400
C 	C 	0.51910 0.21960 0.68999 0.10700
C 	C 	0.55550 0.25540 0.64685 0.10300
C 	C 	0.42060 0.19070 0.76560 0.07100
C 	C 	0.45580 0.18400 0.73710 -0.11600
C 	C 	0.48770 0.22350 0.72099 0.04700
C 	C 	0.48540 0.26780 0.73485 -0.11100
C 	C 	0.45060 0.27140 0.76336 0.06100
C 	C 	0.61250 0.34330 0.58600 0.08300
C 	C 	0.59730 0.30020 0.60028 -0.12700
C 	C 	0.57000 0.30050 0.62990 0.05600
C 	C 	0.55760 0.34380 0.64394 -0.11700
C 	C 	0.57600 0.38500 0.62811 0.05900
I 	I 	0.17109 0.83049 0.17063 -0.37400
I 	I 	0.32033 0.69613 0.18956 -0.37000
I 	I 	0.29024 0.57504 0.12357 -0.36900
I 	I 	0.29907 0.50269 0.03551 -0.39000
I 	I 	0.32772 0.55994 0.92664 -0.38500
I 	I 	0.06036 0.48636 0.89149 -0.36400
I 	I 	0.82891 0.66951 0.67063 -0.37400
I 	I 	0.67967 0.80387 0.68956 -0.37000
I 	I 	0.70976 0.92496 0.62357 -0.36900
I 	I 	0.70093 0.99731 0.53551 -0.39100
I 	I 	0.67228 0.94006 0.42664 -0.38600
I 	I 	0.93964 0.01364 0.39149 -0.36400
I 	I 	0.67109 0.16951 0.32937 -0.37400
I 	I 	0.82033 0.30387 0.31044 -0.37100
I 	I 	0.79024 0.42496 0.37643 -0.37000
I 	I 	0.79907 0.49731 0.46449 -0.39100
I 	I 	0.82772 0.44006 0.57336 -0.38500
I 	I 	0.56036 0.51364 0.60851 -0.36400
I 	I 	0.32891 0.33049 0.82937 -0.37400
I 	I 	0.17967 0.19613 0.81044 -0.37100
I 	I 	0.20976 0.07504 0.87643 -0.37000
I 	I 	0.20093 0.00269 0.96449 -0.39100
I 	I 	0.17228 0.05994 0.07336 -0.38600
I 	I 	0.43964 0.98636 0.10851 -0.36400
N 	N 	0.08330 0.70620 0.15217 -0.27700
N 	N 	0.83560 0.62760 0.08714 -0.13300
N 	N 	0.83830 0.58590 0.04084 -0.14500
N 	N 	0.98150 0.62130 0.05976 -0.13800
N 	N 	0.50640 0.55250 0.07786 -0.27500
N 	N 	0.08310 0.55850 0.96065 -0.27800
N 	N 	0.90680 0.54080 0.39336 -0.27700
N 	N 	0.96980 0.67560 0.32175 -0.14200
N 	N 	0.96890 0.75970 0.32437 -0.14300
N 	N 	0.93370 0.71400 0.36717 -0.14200
N 	N 	0.08400 0.73330 0.22205 -0.27300
N 	N 	0.89630 0.88500 0.40070 -0.27700
N 	N 	0.91670 0.79380 0.65217 -0.27800
N 	N 	0.16440 0.87240 0.58714 -0.13300
N 	N 	0.16170 0.91410 0.54084 -0.14500
N 	N 	0.01850 0.87870 0.55976 -0.13700
N 	N 	0.49360 0.94750 0.57786 -0.27500
N 	N 	0.91690 0.94150 0.46065 -0.27900
N 	N 	0.09320 0.95920 0.89336 -0.27600
N 	N 	0.03020 0.82440 0.82175 -0.14100
N 	N 	0.03110 0.74030 0.82437 -0.14300
N 	N 	0.06630 0.78600 0.86717 -0.14200
N 	N 	0.91600 0.76670 0.72205 -0.27300
N 	N 	0.10370 0.61500 0.90070 -0.27600
N 	N 	0.58330 0.29380 0.34783 -0.27800
N 	N 	0.33560 0.37240 0.41286 -0.13200
N 	N 	0.33830 0.41410 0.45916 -0.14500
N 	N 	0.48150 0.37870 0.44024 -0.13700
N 	N 	0.00640 0.44750 0.42214 -0.27500
N 	N 	0.58310 0.44150 0.53935 -0.27800
N 	N 	0.40680 0.45920 0.10664 -0.27700
N 	N 	0.46980 0.32440 0.17825 -0.14100
N 	N 	0.46890 0.24030 0.17563 -0.14200
N 	N 	0.43370 0.28600 0.13283 -0.14200
N 	N 	0.58400 0.26670 0.27795 -0.27300
N 	N 	0.39630 0.11500 0.09930 -0.27600
N 	N 	0.41670 0.20620 0.84783 -0.27800
N 	N 	0.66440 0.12760 0.91286 -0.13200
N 	N 	0.66170 0.08590 0.95916 -0.14500
N 	N 	0.51850 0.12130 0.94024 -0.13700
N 	N 	0.99360 0.05250 0.92214 -0.27500
N 	N 	0.41690 0.05850 0.03935 -0.27800
N 	N 	0.59320 0.04080 0.60664 -0.27600
N 	N 	0.53020 0.17560 0.67825 -0.14100
N 	N 	0.53110 0.25970 0.67563 -0.14200
N 	N 	0.56630 0.21400 0.63283 -0.14200
N 	N 	0.41600 0.23330 0.77795 -0.27300
N 	N 	0.60370 0.38500 0.59930 -0.27600
