data_crystal

_cell_length_a 14.01200
_cell_length_b 28.28000
_cell_length_c 44.90700
_cell_angle_alpha 90.00000
_cell_angle_beta  90.00000
_cell_angle_gamma 90.00000

_symmetry_space_group_name_	'P 1'
_symmetry_space_group_name_H-M	'P 1'

loop_
_symmetry_equiv_pos_as_xyz
  x,y,z

loop_
_atom_site_label
_atom_site_type_symbol
_atom_site_fract_x
_atom_site_fract_y
_atom_site_fract_z
_atom_site_charge
Zn	Zn	0.33131 0.76340 0.18106 1.16600
Zn	Zn	0.36712 0.94838 0.91511 1.16600
Zn	Zn	0.11692 0.98042 0.08488 1.16600
Zn	Zn	0.66869 0.73660 0.68106 1.16600
Zn	Zn	0.63288 0.55162 0.41511 1.16600
Zn	Zn	0.88308 0.51958 0.58488 1.16600
Zn	Zn	0.83131 0.23660 0.31894 1.16600
Zn	Zn	0.86712 0.05162 0.58489 1.16600
Zn	Zn	0.61692 0.01958 0.41512 1.16600
Zn	Zn	0.16869 0.26340 0.81894 1.16600
Zn	Zn	0.13288 0.44838 0.08489 1.16600
Zn	Zn	0.38308 0.48042 0.91512 1.16600
H 	H 	0.29710 0.82640 0.13040 -0.00700
H 	H 	0.37790 0.86790 0.09350 0.08800
H 	H 	0.62570 0.82200 0.12990 0.08400
H 	H 	0.53750 0.78310 0.16550 -0.01300
H 	H 	0.97110 0.92360 0.11740 -0.00700
H 	H 	0.81590 0.89770 0.11240 0.09800
H 	H 	0.81920 0.94520 0.02760 0.09300
H 	H 	0.97400 0.97090 0.03500 -0.00600
H 	H 	0.30640 0.93130 0.97970 -0.00300
H 	H 	0.37740 0.91420 0.02550 0.07900
H 	H 	0.63260 0.94230 0.98770 0.09200
H 	H 	0.55490 0.95980 0.94390 -0.01800
H 	H 	0.61980 0.65510 0.43150 -0.01700
H 	H 	0.59280 0.72820 0.40870 0.07900
H 	H 	0.52220 0.65750 0.33390 0.08000
H 	H 	0.54690 0.58760 0.35880 -0.01000
H 	H 	0.59120 0.91720 0.43050 -0.01200
H 	H 	0.56560 0.84470 0.40730 0.08200
H 	H 	0.54420 0.91240 0.32870 0.08100
H 	H 	0.57050 0.98340 0.35390 -0.00900
H 	H 	0.39110 0.84070 0.22260 -0.01000
H 	H 	0.45230 0.84950 0.27060 0.07800
H 	H 	0.48830 0.70850 0.27420 0.08000
H 	H 	0.43070 0.70270 0.22620 -0.00200
H 	H 	0.70290 0.67360 0.63040 -0.00800
H 	H 	0.62210 0.63210 0.59350 0.08700
H 	H 	0.37430 0.67800 0.62990 0.08300
H 	H 	0.46250 0.71690 0.66550 -0.01400
H 	H 	0.02890 0.57640 0.61740 -0.00800
H 	H 	0.18410 0.60230 0.61240 0.09800
H 	H 	0.18080 0.55480 0.52760 0.09300
H 	H 	0.02600 0.52910 0.53500 -0.00700
H 	H 	0.69360 0.56870 0.47970 -0.00300
H 	H 	0.62260 0.58580 0.52550 0.07900
H 	H 	0.36740 0.55770 0.48770 0.09200
H 	H 	0.44510 0.54020 0.44390 -0.01800
H 	H 	0.38020 0.84490 0.93150 -0.01700
H 	H 	0.40720 0.77180 0.90870 0.07900
H 	H 	0.47780 0.84250 0.83390 0.08000
H 	H 	0.45310 0.91240 0.85880 -0.01000
H 	H 	0.40880 0.58280 0.93050 -0.01200
H 	H 	0.43440 0.65530 0.90730 0.08200
H 	H 	0.45580 0.58760 0.82870 0.08100
H 	H 	0.42950 0.51660 0.85390 -0.00900
H 	H 	0.60890 0.65930 0.72260 -0.01000
H 	H 	0.54770 0.65050 0.77060 0.07800
H 	H 	0.51170 0.79150 0.77420 0.08000
H 	H 	0.56930 0.79730 0.72620 -0.00200
H 	H 	0.79710 0.17360 0.36960 -0.00800
H 	H 	0.87790 0.13210 0.40650 0.08700
H 	H 	0.12570 0.17800 0.37010 0.08300
H 	H 	0.03750 0.21690 0.33450 -0.01400
H 	H 	0.47110 0.07640 0.38260 -0.00800
H 	H 	0.31590 0.10230 0.38760 0.09800
H 	H 	0.31920 0.05480 0.47240 0.09300
H 	H 	0.47400 0.02910 0.46500 -0.00700
H 	H 	0.80640 0.06870 0.52030 -0.00300
H 	H 	0.87740 0.08580 0.47450 0.08000
H 	H 	0.13260 0.05770 0.51230 0.09200
H 	H 	0.05490 0.04020 0.55610 -0.01800
H 	H 	0.11980 0.34490 0.06850 -0.01700
H 	H 	0.09280 0.27180 0.09130 0.07900
H 	H 	0.02220 0.34250 0.16610 0.08000
H 	H 	0.04690 0.41240 0.14120 -0.01000
H 	H 	0.09120 0.08280 0.06950 -0.01200
H 	H 	0.06560 0.15530 0.09270 0.08200
H 	H 	0.04420 0.08760 0.17130 0.08100
H 	H 	0.07050 0.01660 0.14610 -0.00900
H 	H 	0.89110 0.15930 0.27740 -0.01000
H 	H 	0.95230 0.15050 0.22940 0.07800
H 	H 	0.98830 0.29150 0.22580 0.08000
H 	H 	0.93070 0.29730 0.27380 -0.00200
H 	H 	0.20290 0.32640 0.86960 -0.00800
H 	H 	0.12210 0.36790 0.90650 0.08600
H 	H 	0.87430 0.32200 0.87010 0.08300
H 	H 	0.96250 0.28310 0.83450 -0.01400
H 	H 	0.52890 0.42360 0.88260 -0.00800
H 	H 	0.68410 0.39770 0.88760 0.09800
H 	H 	0.68080 0.44520 0.97240 0.09300
H 	H 	0.52600 0.47090 0.96500 -0.00700
H 	H 	0.19360 0.43130 0.02030 -0.00300
H 	H 	0.12260 0.41420 0.97450 0.07900
H 	H 	0.86740 0.44230 0.01230 0.09200
H 	H 	0.94510 0.45980 0.05610 -0.01800
H 	H 	0.88020 0.15510 0.56850 -0.01700
H 	H 	0.90720 0.22820 0.59130 0.07900
H 	H 	0.97780 0.15750 0.66610 0.08000
H 	H 	0.95310 0.08760 0.64120 -0.01000
H 	H 	0.90880 0.41720 0.56950 -0.01200
H 	H 	0.93440 0.34470 0.59270 0.08200
H 	H 	0.95580 0.41240 0.67130 0.08100
H 	H 	0.92950 0.48340 0.64610 -0.00900
H 	H 	0.10890 0.34070 0.77740 -0.01000
H 	H 	0.04770 0.34950 0.72940 0.07900
H 	H 	0.01170 0.20850 0.72580 0.08100
H 	H 	0.06930 0.20270 0.77380 -0.00200
C 	C 	0.36490 0.82580 0.13021 0.07500
C 	C 	0.41240 0.85020 0.10784 -0.11500
C 	C 	0.51120 0.84820 0.10696 0.06300
C 	C 	0.55800 0.82320 0.12930 -0.12300
C 	C 	0.50500 0.80050 0.15052 0.07500
C 	C 	0.56420 0.87360 0.08297 0.10500
C 	C 	0.69850 0.90590 0.06543 0.09000
C 	C 	0.56350 0.91050 0.03858 0.09800
C 	C 	0.93920 0.92870 0.09905 0.07800
C 	C 	0.84700 0.91280 0.09622 -0.12900
C 	C 	0.79990 0.91920 0.06930 0.05700
C 	C 	0.84890 0.94090 0.04644 -0.12800
C 	C 	0.94100 0.95610 0.05096 0.07500
C 	C 	0.37390 0.93270 0.98128 0.06700
C 	C 	0.41560 0.92230 0.00880 -0.11600
C 	C 	0.51350 0.92410 0.01088 0.05500
C 	C 	0.56520 0.93900 0.98644 -0.12600
C 	C 	0.51840 0.94910 0.96035 0.07400
C 	C 	0.59980 0.65570 0.41132 0.07200
C 	C 	0.58460 0.69970 0.39777 -0.12000
C 	C 	0.55750 0.70060 0.36832 0.05300
C 	C 	0.54280 0.65800 0.35408 -0.11700
C 	C 	0.55800 0.61650 0.36896 0.06200
C 	C 	0.54310 0.82510 0.35034 0.09700
C 	C 	0.54320 0.74570 0.35203 0.10500
C 	C 	0.50570 0.78300 0.30926 0.10500
C 	C 	0.58270 0.91630 0.40950 0.07600
C 	C 	0.56760 0.87280 0.39578 -0.11900
C 	C 	0.55560 0.87090 0.36557 0.05900
C 	C 	0.55500 0.91250 0.34954 -0.11700
C 	C 	0.57050 0.95460 0.36480 0.06900
C 	C 	0.41120 0.81340 0.23326 0.06200
C 	C 	0.44690 0.81890 0.26201 -0.11300
C 	C 	0.47420 0.77950 0.27785 0.04900
C 	C 	0.46830 0.73620 0.26397 -0.11300
C 	C 	0.43380 0.73290 0.23544 0.06300
C 	C 	0.63510 0.67420 0.63021 0.07500
C 	C 	0.58760 0.64980 0.60784 -0.11500
C 	C 	0.48880 0.65180 0.60696 0.06300
C 	C 	0.44200 0.67680 0.62930 -0.12300
C 	C 	0.49500 0.69950 0.65052 0.07500
C 	C 	0.43580 0.62640 0.58297 0.10500
C 	C 	0.30150 0.59410 0.56543 0.09000
C 	C 	0.43650 0.58950 0.53858 0.09800
C 	C 	0.06080 0.57130 0.59905 0.07800
C 	C 	0.15300 0.58720 0.59622 -0.12900
C 	C 	0.20010 0.58080 0.56930 0.05600
C 	C 	0.15110 0.55910 0.54644 -0.12800
C 	C 	0.05900 0.54390 0.55096 0.07500
C 	C 	0.62610 0.56730 0.48128 0.06700
C 	C 	0.58440 0.57770 0.50880 -0.11600
C 	C 	0.48650 0.57590 0.51088 0.05500
C 	C 	0.43480 0.56100 0.48644 -0.12600
C 	C 	0.48160 0.55090 0.46035 0.07400
C 	C 	0.40020 0.84430 0.91132 0.07200
C 	C 	0.41540 0.80030 0.89777 -0.12000
C 	C 	0.44250 0.79940 0.86832 0.05300
C 	C 	0.45720 0.84200 0.85408 -0.11700
C 	C 	0.44200 0.88350 0.86896 0.06200
C 	C 	0.45690 0.67490 0.85034 0.09700
C 	C 	0.45680 0.75430 0.85203 0.10500
C 	C 	0.49430 0.71700 0.80926 0.10500
C 	C 	0.41730 0.58370 0.90950 0.07600
C 	C 	0.43240 0.62720 0.89578 -0.11900
C 	C 	0.44440 0.62910 0.86557 0.05900
C 	C 	0.44500 0.58750 0.84954 -0.11700
C 	C 	0.42950 0.54540 0.86480 0.06900
C 	C 	0.58880 0.68660 0.73326 0.06200
C 	C 	0.55310 0.68110 0.76201 -0.11300
C 	C 	0.52580 0.72050 0.77785 0.04900
C 	C 	0.53170 0.76380 0.76397 -0.11300
C 	C 	0.56620 0.76710 0.73544 0.06300
C 	C 	0.86490 0.17420 0.36979 0.07500
C 	C 	0.91240 0.14980 0.39216 -0.11600
C 	C 	0.01120 0.15180 0.39304 0.06300
C 	C 	0.05800 0.17680 0.37070 -0.12300
C 	C 	0.00500 0.19950 0.34948 0.07500
C 	C 	0.06420 0.12640 0.41703 0.10500
C 	C 	0.19850 0.09410 0.43457 0.09000
C 	C 	0.06350 0.08950 0.46142 0.09800
C 	C 	0.43920 0.07130 0.40095 0.07800
C 	C 	0.34700 0.08720 0.40378 -0.12900
C 	C 	0.29990 0.08080 0.43070 0.05700
C 	C 	0.34890 0.05910 0.45356 -0.12800
C 	C 	0.44100 0.04390 0.44904 0.07500
C 	C 	0.87390 0.06730 0.51872 0.06700
C 	C 	0.91560 0.07770 0.49120 -0.11700
C 	C 	0.01350 0.07590 0.48912 0.05600
C 	C 	0.06520 0.06100 0.51356 -0.12700
C 	C 	0.01840 0.05090 0.53965 0.07500
C 	C 	0.09980 0.34430 0.08868 0.07200
C 	C 	0.08460 0.30030 0.10223 -0.12000
C 	C 	0.05750 0.29940 0.13168 0.05300
C 	C 	0.04280 0.34200 0.14592 -0.11700
C 	C 	0.05800 0.38350 0.13104 0.06200
C 	C 	0.04310 0.17490 0.14966 0.09700
C 	C 	0.04320 0.25430 0.14797 0.10500
C 	C 	0.00570 0.21700 0.19074 0.10500
C 	C 	0.08270 0.08370 0.09050 0.07600
C 	C 	0.06760 0.12720 0.10422 -0.11900
C 	C 	0.05560 0.12910 0.13443 0.05900
C 	C 	0.05500 0.08750 0.15046 -0.11700
C 	C 	0.07050 0.04540 0.13520 0.06900
C 	C 	0.91120 0.18660 0.26674 0.06200
C 	C 	0.94690 0.18110 0.23799 -0.11300
C 	C 	0.97420 0.22050 0.22215 0.04900
C 	C 	0.96830 0.26380 0.23603 -0.11300
C 	C 	0.93380 0.26710 0.26456 0.06300
C 	C 	0.13510 0.32580 0.86979 0.07400
C 	C 	0.08760 0.35020 0.89216 -0.11400
C 	C 	0.98880 0.34820 0.89304 0.06100
C 	C 	0.94200 0.32320 0.87070 -0.12200
C 	C 	0.99500 0.30050 0.84948 0.07400
C 	C 	0.93580 0.37360 0.91703 0.10600
C 	C 	0.80150 0.40590 0.93457 0.09000
C 	C 	0.93650 0.41050 0.96142 0.09800
C 	C 	0.56080 0.42870 0.90095 0.07800
C 	C 	0.65300 0.41280 0.90378 -0.12900
C 	C 	0.70010 0.41920 0.93070 0.05600
C 	C 	0.65110 0.44090 0.95356 -0.12800
C 	C 	0.55900 0.45610 0.94904 0.07500
C 	C 	0.12610 0.43270 0.01872 0.06700
C 	C 	0.08440 0.42230 0.99120 -0.11600
C 	C 	0.98650 0.42410 0.98912 0.05500
C 	C 	0.93480 0.43900 0.01356 -0.12600
C 	C 	0.98160 0.44910 0.03965 0.07400
C 	C 	0.90020 0.15570 0.58868 0.07200
C 	C 	0.91540 0.19970 0.60223 -0.12000
C 	C 	0.94250 0.20060 0.63168 0.05300
C 	C 	0.95720 0.15800 0.64592 -0.11700
C 	C 	0.94200 0.11650 0.63104 0.06200
C 	C 	0.95690 0.32510 0.64966 0.09700
C 	C 	0.95680 0.24570 0.64797 0.10400
C 	C 	0.99430 0.28300 0.69074 0.10400
C 	C 	0.91730 0.41630 0.59050 0.07600
C 	C 	0.93240 0.37280 0.60422 -0.11900
C 	C 	0.94440 0.37090 0.63443 0.05900
C 	C 	0.94500 0.41250 0.65046 -0.11700
C 	C 	0.92950 0.45460 0.63520 0.06900
C 	C 	0.08880 0.31340 0.76674 0.06200
C 	C 	0.05310 0.31890 0.73799 -0.11300
C 	C 	0.02580 0.27950 0.72215 0.05100
C 	C 	0.03170 0.23620 0.73603 -0.11300
C 	C 	0.06620 0.23290 0.76456 0.06300
I 	I 	0.16895 0.80328 0.18756 -0.36900
I 	I 	0.33536 0.67723 0.16488 -0.37300
I 	I 	0.18713 0.94183 0.91775 -0.38600
I 	I 	0.45478 0.01207 0.88593 -0.36100
I 	I 	0.19254 0.99910 0.03437 -0.39300
I 	I 	0.20276 0.92937 0.12227 -0.37300
I 	I 	0.83105 0.69672 0.68756 -0.36900
I 	I 	0.66464 0.82277 0.66488 -0.37300
I 	I 	0.81287 0.55817 0.41775 -0.38500
I 	I 	0.54522 0.48793 0.38593 -0.36100
I 	I 	0.80746 0.50090 0.53437 -0.39200
I 	I 	0.79724 0.57063 0.62227 -0.37300
I 	I 	0.66895 0.19672 0.31244 -0.36900
I 	I 	0.83536 0.32277 0.33512 -0.37300
I 	I 	0.68713 0.05817 0.58225 -0.38600
I 	I 	0.95478 0.98793 0.61407 -0.36000
I 	I 	0.69254 0.00090 0.46563 -0.39300
I 	I 	0.70276 0.07063 0.37773 -0.37300
I 	I 	0.33105 0.30328 0.81244 -0.36900
I 	I 	0.16464 0.17723 0.83512 -0.37200
I 	I 	0.31287 0.44183 0.08225 -0.38600
I 	I 	0.04522 0.51207 0.11407 -0.36100
I 	I 	0.30746 0.49910 0.96563 -0.39200
I 	I 	0.29724 0.42937 0.87773 -0.37300
N 	N 	0.40920 0.80180 0.15116 -0.27800
N 	N 	0.51360 0.88740 0.05921 -0.13800
N 	N 	0.65720 0.88110 0.08711 -0.13400
N 	N 	0.65480 0.92130 0.04081 -0.14500
N 	N 	0.98620 0.95080 0.07727 -0.27600
N 	N 	0.42400 0.94460 0.95698 -0.27700
N 	N 	0.58770 0.61490 0.39729 -0.27400
N 	N 	0.55630 0.78580 0.36652 -0.14000
N 	N 	0.51740 0.74210 0.32349 -0.14100
N 	N 	0.51720 0.82550 0.32113 -0.13800
N 	N 	0.58560 0.95630 0.39432 -0.27100
N 	N 	0.40430 0.77080 0.22018 -0.27300
N 	N 	0.59080 0.69820 0.65116 -0.27800
N 	N 	0.48640 0.61260 0.55921 -0.13800
N 	N 	0.34280 0.61890 0.58711 -0.13400
N 	N 	0.34520 0.57870 0.54081 -0.14500
N 	N 	0.01380 0.54920 0.57727 -0.27600
N 	N 	0.57600 0.55540 0.45698 -0.27700
N 	N 	0.41230 0.88510 0.89729 -0.27400
N 	N 	0.44370 0.71420 0.86652 -0.14000
N 	N 	0.48260 0.75790 0.82349 -0.14100
N 	N 	0.48280 0.67450 0.82113 -0.13800
N 	N 	0.41440 0.54370 0.89432 -0.27100
N 	N 	0.59570 0.72920 0.72018 -0.27300
N 	N 	0.90920 0.19820 0.34884 -0.27800
N 	N 	0.01360 0.11260 0.44079 -0.13800
N 	N 	0.15720 0.11890 0.41289 -0.13400
N 	N 	0.15480 0.07870 0.45919 -0.14500
N 	N 	0.48620 0.04920 0.42273 -0.27600
N 	N 	0.92400 0.05540 0.54302 -0.27800
N 	N 	0.08770 0.38510 0.10271 -0.27400
N 	N 	0.05630 0.21420 0.13348 -0.14000
N 	N 	0.01740 0.25790 0.17651 -0.14100
N 	N 	0.01720 0.17450 0.17887 -0.13800
N 	N 	0.08560 0.04370 0.10568 -0.27100
N 	N 	0.90430 0.22920 0.27982 -0.27300
N 	N 	0.09080 0.30180 0.84884 -0.27700
N 	N 	0.98640 0.38740 0.94079 -0.13800
N 	N 	0.84280 0.38110 0.91289 -0.13400
N 	N 	0.84520 0.42130 0.95919 -0.14500
N 	N 	0.51380 0.45080 0.92273 -0.27600
N 	N 	0.07600 0.44460 0.04302 -0.27700
N 	N 	0.91230 0.11490 0.60271 -0.27400
N 	N 	0.94370 0.28580 0.63348 -0.14000
N 	N 	0.98260 0.24210 0.67651 -0.14100
N 	N 	0.98280 0.32550 0.67887 -0.13800
N 	N 	0.91440 0.45630 0.60568 -0.27100
N 	N 	0.09570 0.27080 0.77982 -0.27400
Zn	Zn	0.66869 0.23660 0.81894 1.16500
Zn	Zn	0.63288 0.05162 0.08489 1.16500
Zn	Zn	0.88308 0.01958 0.91512 1.16500
Zn	Zn	0.33131 0.26340 0.31894 1.16500
Zn	Zn	0.36712 0.44838 0.58489 1.16500
Zn	Zn	0.11692 0.48042 0.41512 1.16500
Zn	Zn	0.16869 0.76340 0.68106 1.16500
Zn	Zn	0.13288 0.94838 0.41511 1.16500
Zn	Zn	0.38308 0.98042 0.58488 1.16500
Zn	Zn	0.83131 0.73660 0.18106 1.16500
Zn	Zn	0.86712 0.55162 0.91511 1.16500
Zn	Zn	0.61692 0.51958 0.08488 1.16500
H 	H 	0.70290 0.17360 0.86960 -0.00800
H 	H 	0.62210 0.13210 0.90650 0.08700
H 	H 	0.37430 0.17800 0.87010 0.08300
H 	H 	0.46250 0.21690 0.83450 -0.01400
H 	H 	0.02890 0.07640 0.88260 -0.00700
H 	H 	0.18410 0.10230 0.88760 0.09800
H 	H 	0.18080 0.05480 0.97240 0.09300
H 	H 	0.02600 0.02910 0.96500 -0.00600
H 	H 	0.69360 0.06870 0.02030 -0.00300
H 	H 	0.62260 0.08580 0.97450 0.07900
H 	H 	0.36740 0.05770 0.01230 0.09200
H 	H 	0.44510 0.04020 0.05610 -0.01800
H 	H 	0.38020 0.34490 0.56850 -0.01700
H 	H 	0.40720 0.27180 0.59130 0.07900
H 	H 	0.47780 0.34250 0.66610 0.08000
H 	H 	0.45310 0.41240 0.64120 -0.01000
H 	H 	0.40880 0.08280 0.56950 -0.01200
H 	H 	0.43440 0.15530 0.59270 0.08200
H 	H 	0.45580 0.08760 0.67130 0.08100
H 	H 	0.42950 0.01660 0.64610 -0.00900
H 	H 	0.60890 0.15930 0.77740 -0.01000
H 	H 	0.54770 0.15050 0.72940 0.07800
H 	H 	0.51170 0.29150 0.72580 0.08000
H 	H 	0.56930 0.29730 0.77380 -0.00200
H 	H 	0.29710 0.32640 0.36960 -0.00800
H 	H 	0.37790 0.36790 0.40650 0.08700
H 	H 	0.62570 0.32200 0.37010 0.08300
H 	H 	0.53750 0.28310 0.33450 -0.01400
H 	H 	0.97110 0.42360 0.38260 -0.00800
H 	H 	0.81590 0.39770 0.38760 0.09800
H 	H 	0.81920 0.44520 0.47240 0.09300
H 	H 	0.97400 0.47090 0.46500 -0.00700
H 	H 	0.30640 0.43130 0.52030 -0.00300
H 	H 	0.37740 0.41420 0.47450 0.07900
H 	H 	0.63260 0.44230 0.51230 0.09200
H 	H 	0.55490 0.45980 0.55610 -0.01800
H 	H 	0.61980 0.15510 0.06850 -0.01700
H 	H 	0.59280 0.22820 0.09130 0.07900
H 	H 	0.52220 0.15750 0.16610 0.08000
H 	H 	0.54690 0.08760 0.14120 -0.01000
H 	H 	0.59120 0.41720 0.06950 -0.01200
H 	H 	0.56560 0.34470 0.09270 0.08200
H 	H 	0.54420 0.41240 0.17130 0.08100
H 	H 	0.57050 0.48340 0.14610 -0.00900
H 	H 	0.39110 0.34070 0.27740 -0.01000
H 	H 	0.45230 0.34950 0.22940 0.07800
H 	H 	0.48830 0.20850 0.22580 0.08000
H 	H 	0.43070 0.20270 0.27380 -0.00200
H 	H 	0.20290 0.82640 0.63040 -0.00800
H 	H 	0.12210 0.86790 0.59350 0.08700
H 	H 	0.87430 0.82200 0.62990 0.08300
H 	H 	0.96250 0.78310 0.66550 -0.01400
H 	H 	0.52890 0.92360 0.61740 -0.00800
H 	H 	0.68410 0.89770 0.61240 0.09800
H 	H 	0.68080 0.94520 0.52760 0.09300
H 	H 	0.52600 0.97090 0.53500 -0.00700
H 	H 	0.19360 0.93130 0.47970 -0.00300
H 	H 	0.12260 0.91420 0.52550 0.08000
H 	H 	0.86740 0.94230 0.48770 0.09200
H 	H 	0.94510 0.95980 0.44390 -0.01800
H 	H 	0.88020 0.65510 0.93150 -0.01700
H 	H 	0.90720 0.72820 0.90870 0.07900
H 	H 	0.97780 0.65750 0.83390 0.08000
H 	H 	0.95310 0.58760 0.85880 -0.01000
H 	H 	0.90880 0.91720 0.93050 -0.01200
H 	H 	0.93440 0.84470 0.90730 0.08200
H 	H 	0.95580 0.91240 0.82870 0.08100
H 	H 	0.92950 0.98340 0.85390 -0.00900
H 	H 	0.10890 0.84070 0.72260 -0.01000
H 	H 	0.04770 0.84950 0.77060 0.07800
H 	H 	0.01170 0.70850 0.77420 0.08000
H 	H 	0.06930 0.70270 0.72620 -0.00200
H 	H 	0.79710 0.67360 0.13040 -0.00800
H 	H 	0.87790 0.63210 0.09350 0.08600
H 	H 	0.12570 0.67800 0.12990 0.08300
H 	H 	0.03750 0.71690 0.16550 -0.01400
H 	H 	0.47110 0.57640 0.11740 -0.00800
H 	H 	0.31590 0.60230 0.11240 0.09800
H 	H 	0.31920 0.55480 0.02760 0.09300
H 	H 	0.47400 0.52910 0.03500 -0.00700
H 	H 	0.80640 0.56870 0.97970 -0.00300
H 	H 	0.87740 0.58580 0.02550 0.07900
H 	H 	0.13260 0.55770 0.98770 0.09200
H 	H 	0.05490 0.54020 0.94390 -0.01800
H 	H 	0.11980 0.84490 0.43150 -0.01700
H 	H 	0.09280 0.77180 0.40870 0.07900
H 	H 	0.02220 0.84250 0.33390 0.08000
H 	H 	0.04690 0.91240 0.35880 -0.01000
H 	H 	0.09120 0.58280 0.43050 -0.01200
H 	H 	0.06560 0.65530 0.40730 0.08200
H 	H 	0.04420 0.58760 0.32870 0.08100
H 	H 	0.07050 0.51660 0.35390 -0.00900
H 	H 	0.89110 0.65930 0.22260 -0.01000
H 	H 	0.95230 0.65050 0.27060 0.07900
H 	H 	0.98830 0.79150 0.27420 0.08100
H 	H 	0.93070 0.79730 0.22620 -0.00200
C 	C 	0.63510 0.17420 0.86979 0.07500
C 	C 	0.58760 0.14980 0.89216 -0.11500
C 	C 	0.48880 0.15180 0.89304 0.06300
C 	C 	0.44200 0.17680 0.87070 -0.12300
C 	C 	0.49500 0.19950 0.84948 0.07500
C 	C 	0.43580 0.12640 0.91703 0.10500
C 	C 	0.30150 0.09410 0.93457 0.09000
C 	C 	0.43650 0.08950 0.96142 0.09800
C 	C 	0.06080 0.07130 0.90095 0.07800
C 	C 	0.15300 0.08720 0.90378 -0.12900
C 	C 	0.20010 0.08080 0.93070 0.05700
C 	C 	0.15110 0.05910 0.95356 -0.12800
C 	C 	0.05900 0.04390 0.94904 0.07500
C 	C 	0.62610 0.06730 0.01872 0.06700
C 	C 	0.58440 0.07770 0.99120 -0.11600
C 	C 	0.48650 0.07590 0.98912 0.05500
C 	C 	0.43480 0.06100 0.01356 -0.12600
C 	C 	0.48160 0.05090 0.03965 0.07400
C 	C 	0.40020 0.34430 0.58868 0.07200
C 	C 	0.41540 0.30030 0.60223 -0.12000
C 	C 	0.44250 0.29940 0.63168 0.05300
C 	C 	0.45720 0.34200 0.64592 -0.11700
C 	C 	0.44200 0.38350 0.63104 0.06200
C 	C 	0.45690 0.17490 0.64966 0.09700
C 	C 	0.45680 0.25430 0.64797 0.10500
C 	C 	0.49430 0.21700 0.69074 0.10500
C 	C 	0.41730 0.08370 0.59050 0.07600
C 	C 	0.43240 0.12720 0.60422 -0.11900
C 	C 	0.44440 0.12910 0.63443 0.05900
C 	C 	0.44500 0.08750 0.65046 -0.11700
C 	C 	0.42950 0.04540 0.63520 0.06900
C 	C 	0.58880 0.18660 0.76674 0.06200
C 	C 	0.55310 0.18110 0.73799 -0.11300
C 	C 	0.52580 0.22050 0.72215 0.04900
C 	C 	0.53170 0.26380 0.73603 -0.11300
C 	C 	0.56620 0.26710 0.76456 0.06300
C 	C 	0.36490 0.32580 0.36979 0.07500
C 	C 	0.41240 0.35020 0.39216 -0.11500
C 	C 	0.51120 0.34820 0.39304 0.06300
C 	C 	0.55800 0.32320 0.37070 -0.12300
C 	C 	0.50500 0.30050 0.34948 0.07500
C 	C 	0.56420 0.37360 0.41703 0.10500
C 	C 	0.69850 0.40590 0.43457 0.09000
C 	C 	0.56350 0.41050 0.46142 0.09800
C 	C 	0.93920 0.42870 0.40095 0.07800
C 	C 	0.84700 0.41280 0.40378 -0.12900
C 	C 	0.79990 0.41920 0.43070 0.05600
C 	C 	0.84890 0.44090 0.45356 -0.12800
C 	C 	0.94100 0.45610 0.44904 0.07500
C 	C 	0.37390 0.43270 0.51872 0.06700
C 	C 	0.41560 0.42230 0.49120 -0.11600
C 	C 	0.51350 0.42410 0.48912 0.05500
C 	C 	0.56520 0.43900 0.51356 -0.12600
C 	C 	0.51840 0.44910 0.53965 0.07400
C 	C 	0.59980 0.15570 0.08868 0.07200
C 	C 	0.58460 0.19970 0.10223 -0.12000
C 	C 	0.55750 0.20060 0.13168 0.05300
C 	C 	0.54280 0.15800 0.14592 -0.11700
C 	C 	0.55800 0.11650 0.13104 0.06200
C 	C 	0.54310 0.32510 0.14966 0.09700
C 	C 	0.54320 0.24570 0.14797 0.10500
C 	C 	0.50570 0.28300 0.19074 0.10500
C 	C 	0.58270 0.41630 0.09050 0.07600
C 	C 	0.56760 0.37280 0.10422 -0.11900
C 	C 	0.55560 0.37090 0.13443 0.05900
C 	C 	0.55500 0.41250 0.15046 -0.11700
C 	C 	0.57050 0.45460 0.13520 0.06900
C 	C 	0.41120 0.31340 0.26674 0.06200
C 	C 	0.44690 0.31890 0.23799 -0.11300
C 	C 	0.47420 0.27950 0.22215 0.04900
C 	C 	0.46830 0.23620 0.23603 -0.11300
C 	C 	0.43380 0.23290 0.26456 0.06300
C 	C 	0.13510 0.82580 0.63021 0.07500
C 	C 	0.08760 0.85020 0.60784 -0.11600
C 	C 	0.98880 0.84820 0.60696 0.06300
C 	C 	0.94200 0.82320 0.62930 -0.12300
C 	C 	0.99500 0.80050 0.65052 0.07500
C 	C 	0.93580 0.87360 0.58297 0.10500
C 	C 	0.80150 0.90590 0.56543 0.09000
C 	C 	0.93650 0.91050 0.53858 0.09800
C 	C 	0.56080 0.92870 0.59905 0.07800
C 	C 	0.65300 0.91280 0.59622 -0.12900
C 	C 	0.70010 0.91920 0.56930 0.05700
C 	C 	0.65110 0.94090 0.54644 -0.12800
C 	C 	0.55900 0.95610 0.55096 0.07500
C 	C 	0.12610 0.93270 0.48128 0.06700
C 	C 	0.08440 0.92230 0.50880 -0.11700
C 	C 	0.98650 0.92410 0.51088 0.05600
C 	C 	0.93480 0.93900 0.48644 -0.12700
C 	C 	0.98160 0.94910 0.46035 0.07500
C 	C 	0.90020 0.65570 0.91132 0.07200
C 	C 	0.91540 0.69970 0.89777 -0.12000
C 	C 	0.94250 0.70060 0.86832 0.05300
C 	C 	0.95720 0.65800 0.85408 -0.11700
C 	C 	0.94200 0.61650 0.86896 0.06200
C 	C 	0.95690 0.82510 0.85034 0.09700
C 	C 	0.95680 0.74570 0.85203 0.10500
C 	C 	0.99430 0.78300 0.80926 0.10500
C 	C 	0.91730 0.91630 0.90950 0.07600
C 	C 	0.93240 0.87280 0.89578 -0.11900
C 	C 	0.94440 0.87090 0.86557 0.05900
C 	C 	0.94500 0.91250 0.84954 -0.11700
C 	C 	0.92950 0.95460 0.86480 0.06900
C 	C 	0.08880 0.81340 0.73326 0.06200
C 	C 	0.05310 0.81890 0.76201 -0.11300
C 	C 	0.02580 0.77950 0.77785 0.04900
C 	C 	0.03170 0.73620 0.76397 -0.11300
C 	C 	0.06620 0.73290 0.73544 0.06300
C 	C 	0.86490 0.67420 0.13021 0.07400
C 	C 	0.91240 0.64980 0.10784 -0.11400
C 	C 	0.01120 0.65180 0.10696 0.06100
C 	C 	0.05800 0.67680 0.12930 -0.12200
C 	C 	0.00500 0.69950 0.15052 0.07400
C 	C 	0.06420 0.62640 0.08297 0.10600
C 	C 	0.19850 0.59410 0.06543 0.09000
C 	C 	0.06350 0.58950 0.03858 0.09800
C 	C 	0.43920 0.57130 0.09905 0.07800
C 	C 	0.34700 0.58720 0.09622 -0.12900
C 	C 	0.29990 0.58080 0.06930 0.05600
C 	C 	0.34890 0.55910 0.04644 -0.12800
C 	C 	0.44100 0.54390 0.05096 0.07500
C 	C 	0.87390 0.56730 0.98128 0.06700
C 	C 	0.91560 0.57770 0.00880 -0.11600
C 	C 	0.01350 0.57590 0.01088 0.05500
C 	C 	0.06520 0.56100 0.98644 -0.12600
C 	C 	0.01840 0.55090 0.96035 0.07400
C 	C 	0.09980 0.84430 0.41132 0.07200
C 	C 	0.08460 0.80030 0.39777 -0.12000
C 	C 	0.05750 0.79940 0.36832 0.05300
C 	C 	0.04280 0.84200 0.35408 -0.11700
C 	C 	0.05800 0.88350 0.36896 0.06200
C 	C 	0.04310 0.67490 0.35034 0.09700
C 	C 	0.04320 0.75430 0.35203 0.10400
C 	C 	0.00570 0.71700 0.30926 0.10400
C 	C 	0.08270 0.58370 0.40950 0.07600
C 	C 	0.06760 0.62720 0.39578 -0.11900
C 	C 	0.05560 0.62910 0.36557 0.05900
C 	C 	0.05500 0.58750 0.34954 -0.11700
C 	C 	0.07050 0.54540 0.36480 0.06900
C 	C 	0.91120 0.68660 0.23326 0.06200
C 	C 	0.94690 0.68110 0.26201 -0.11300
C 	C 	0.97420 0.72050 0.27785 0.05100
C 	C 	0.96830 0.76380 0.26397 -0.11300
C 	C 	0.93380 0.76710 0.23544 0.06300
I 	I 	0.83105 0.19672 0.81244 -0.36900
I 	I 	0.66464 0.32277 0.83512 -0.37300
I 	I 	0.81287 0.05817 0.08225 -0.38600
I 	I 	0.54522 0.98793 0.11407 -0.36100
I 	I 	0.80746 0.00090 0.96563 -0.39300
I 	I 	0.79724 0.07063 0.87773 -0.37300
I 	I 	0.16895 0.30328 0.31244 -0.36900
I 	I 	0.33536 0.17723 0.33512 -0.37300
I 	I 	0.18713 0.44183 0.58225 -0.38500
I 	I 	0.45478 0.51207 0.61407 -0.36100
I 	I 	0.19254 0.49910 0.46563 -0.39200
I 	I 	0.20276 0.42937 0.37773 -0.37300
I 	I 	0.33105 0.80328 0.68756 -0.36900
I 	I 	0.16464 0.67723 0.66488 -0.37300
I 	I 	0.31287 0.94183 0.41775 -0.38600
I 	I 	0.04522 0.01207 0.38593 -0.36000
I 	I 	0.30746 0.99910 0.53437 -0.39300
I 	I 	0.29724 0.92937 0.62227 -0.37300
I 	I 	0.66895 0.69672 0.18756 -0.36900
I 	I 	0.83536 0.82277 0.16488 -0.37200
I 	I 	0.68713 0.55817 0.91775 -0.38600
I 	I 	0.95478 0.48793 0.88593 -0.36100
I 	I 	0.69254 0.50090 0.03437 -0.39200
I 	I 	0.70276 0.57063 0.12227 -0.37300
N 	N 	0.59080 0.19820 0.84884 -0.27800
N 	N 	0.48640 0.11260 0.94079 -0.13800
N 	N 	0.34280 0.11890 0.91289 -0.13400
N 	N 	0.34520 0.07870 0.95919 -0.14500
N 	N 	0.01380 0.04920 0.92273 -0.27600
N 	N 	0.57600 0.05540 0.04302 -0.27700
N 	N 	0.41230 0.38510 0.60271 -0.27400
N 	N 	0.44370 0.21420 0.63348 -0.14000
N 	N 	0.48260 0.25790 0.67651 -0.14100
N 	N 	0.48280 0.17450 0.67887 -0.13800
N 	N 	0.41440 0.04370 0.60568 -0.27100
N 	N 	0.59570 0.22920 0.77982 -0.27300
N 	N 	0.40920 0.30180 0.34884 -0.27800
N 	N 	0.51360 0.38740 0.44079 -0.13800
N 	N 	0.65720 0.38110 0.41289 -0.13400
N 	N 	0.65480 0.42130 0.45919 -0.14500
N 	N 	0.98620 0.45080 0.42273 -0.27600
N 	N 	0.42400 0.44460 0.54302 -0.27700
N 	N 	0.58770 0.11490 0.10271 -0.27400
N 	N 	0.55630 0.28580 0.13348 -0.14000
N 	N 	0.51740 0.24210 0.17651 -0.14100
N 	N 	0.51720 0.32550 0.17887 -0.13800
N 	N 	0.58560 0.45630 0.10568 -0.27100
N 	N 	0.40430 0.27080 0.27982 -0.27300
N 	N 	0.09080 0.80180 0.65116 -0.27800
N 	N 	0.98640 0.88740 0.55921 -0.13800
N 	N 	0.84280 0.88110 0.58711 -0.13400
N 	N 	0.84520 0.92130 0.54081 -0.14500
N 	N 	0.51380 0.95080 0.57727 -0.27600
N 	N 	0.07600 0.94460 0.45698 -0.27800
N 	N 	0.91230 0.61490 0.89729 -0.27400
N 	N 	0.94370 0.78580 0.86652 -0.14000
N 	N 	0.98260 0.74210 0.82349 -0.14100
N 	N 	0.98280 0.82550 0.82113 -0.13800
N 	N 	0.91440 0.95630 0.89432 -0.27100
N 	N 	0.09570 0.77080 0.72018 -0.27300
N 	N 	0.90920 0.69820 0.15116 -0.27700
N 	N 	0.01360 0.61260 0.05921 -0.13800
N 	N 	0.15720 0.61890 0.08711 -0.13400
N 	N 	0.15480 0.57870 0.04081 -0.14500
N 	N 	0.48620 0.54920 0.07727 -0.27600
N 	N 	0.92400 0.55540 0.95698 -0.27700
N 	N 	0.08770 0.88510 0.39729 -0.27400
N 	N 	0.05630 0.71420 0.36652 -0.14000
N 	N 	0.01740 0.75790 0.32349 -0.14100
N 	N 	0.01720 0.67450 0.32113 -0.13800
N 	N 	0.08560 0.54370 0.39432 -0.27100
N 	N 	0.90430 0.72920 0.22018 -0.27400
