data_crystal

_cell_length_a 14.02200
_cell_length_b 28.14000
_cell_length_c 44.48000
_cell_angle_alpha 90.00000
_cell_angle_beta  90.00000
_cell_angle_gamma 90.00000

_symmetry_space_group_name_	'P 1'
_symmetry_space_group_name_H-M	'P 1'

loop_
_symmetry_equiv_pos_as_xyz
  x,y,z

loop_
_atom_site_label
_atom_site_type_symbol
_atom_site_fract_x
_atom_site_fract_y
_atom_site_fract_z
_atom_site_charge
Zn	Zn	0.14194 0.05027 0.58635 1.16500
Zn	Zn	0.38293 0.02323 0.41502 1.16500
Zn	Zn	0.16955 0.23924 0.31945 1.16500
Zn	Zn	0.85806 0.44973 0.08635 1.16500
Zn	Zn	0.61707 0.47677 0.91502 1.16500
Zn	Zn	0.83045 0.26076 0.81945 1.16500
Zn	Zn	0.64194 0.94973 0.91365 1.16500
Zn	Zn	0.88293 0.97677 0.08498 1.16500
Zn	Zn	0.66955 0.76076 0.18055 1.16500
Zn	Zn	0.35806 0.55027 0.41365 1.16500
Zn	Zn	0.11707 0.52323 0.58498 1.16500
Zn	Zn	0.33045 0.73924 0.68055 1.16500
H 	H 	0.95380 0.02990 0.55610 -0.01000
H 	H 	0.87580 0.04860 0.51220 0.09200
H 	H 	0.12420 0.09740 0.47760 0.07900
H 	H 	0.19630 0.08010 0.52310 -0.00400
H 	H 	0.52190 0.03340 0.46580 -0.00900
H 	H 	0.67910 0.05970 0.47500 0.09300
H 	H 	0.69040 0.10170 0.38820 0.09800
H 	H 	0.53610 0.07580 0.38190 -0.00400
H 	H 	0.96590 0.21390 0.33360 -0.01600
H 	H 	0.87620 0.17370 0.36950 0.08800
H 	H 	0.12400 0.14270 0.41050 0.08800
H 	H 	0.20450 0.17790 0.37180 -0.01400
H 	H 	0.05570 0.08800 0.64270 -0.01000
H 	H 	0.03090 0.15890 0.66720 0.08100
H 	H 	0.10050 0.22840 0.59050 0.07900
H 	H 	0.13230 0.15410 0.56900 -0.01500
H 	H 	0.94400 0.20320 0.77510 0.00100
H 	H 	0.99740 0.20960 0.72620 0.08100
H 	H 	0.94140 0.34990 0.72940 0.07800
H 	H 	0.87550 0.33900 0.77690 -0.01100
H 	H 	0.11130 0.41910 0.56950 -0.01400
H 	H 	0.08490 0.34700 0.59260 0.08200
H 	H 	0.03490 0.41450 0.67010 0.08300
H 	H 	0.06090 0.48620 0.64500 -0.01200
H 	H 	0.04620 0.47010 0.05610 -0.01000
H 	H 	0.12420 0.45140 0.01220 0.09000
H 	H 	0.87580 0.40260 0.97760 0.07700
H 	H 	0.80370 0.41990 0.02310 -0.00400
H 	H 	0.47810 0.46660 0.96580 -0.01000
H 	H 	0.32090 0.44030 0.97500 0.09200
H 	H 	0.30960 0.39830 0.88820 0.09700
H 	H 	0.46390 0.42420 0.88190 -0.00500
H 	H 	0.03410 0.28610 0.83360 -0.01700
H 	H 	0.12380 0.32630 0.86950 0.08700
H 	H 	0.87600 0.35730 0.91050 0.08700
H 	H 	0.79550 0.32210 0.87180 -0.01500
H 	H 	0.94430 0.41200 0.14270 -0.01100
H 	H 	0.96910 0.34110 0.16720 0.08000
H 	H 	0.89950 0.27160 0.09050 0.07900
H 	H 	0.86770 0.34590 0.06900 -0.01600
H 	H 	0.05600 0.29680 0.27510 0.00000
H 	H 	0.00260 0.29040 0.22620 0.07900
H 	H 	0.05860 0.15010 0.22940 0.07800
H 	H 	0.12450 0.16100 0.27690 -0.01100
H 	H 	0.88870 0.08090 0.06950 -0.01400
H 	H 	0.91510 0.15300 0.09260 0.08200
H 	H 	0.96510 0.08550 0.17010 0.08300
H 	H 	0.93910 0.01380 0.14500 -0.01200
H 	H 	0.45380 0.97010 0.94390 -0.01000
H 	H 	0.37580 0.95140 0.98780 0.09100
H 	H 	0.62420 0.90260 0.02240 0.07800
H 	H 	0.69630 0.91990 0.97690 -0.00400
H 	H 	0.02190 0.96660 0.03420 -0.01000
H 	H 	0.17910 0.94030 0.02500 0.09200
H 	H 	0.19040 0.89830 0.11180 0.09700
H 	H 	0.03610 0.92420 0.11810 -0.00500
H 	H 	0.46590 0.78610 0.16640 -0.01700
H 	H 	0.37620 0.82630 0.13050 0.08700
H 	H 	0.62400 0.85730 0.08950 0.08700
H 	H 	0.70450 0.82210 0.12820 -0.01500
H 	H 	0.55570 0.91200 0.85730 -0.01100
H 	H 	0.53090 0.84110 0.83280 0.08000
H 	H 	0.60050 0.77160 0.90950 0.07900
H 	H 	0.63230 0.84590 0.93100 -0.01600
H 	H 	0.44400 0.79680 0.72490 0.00000
H 	H 	0.49740 0.79040 0.77380 0.07900
H 	H 	0.44140 0.65010 0.77060 0.07800
H 	H 	0.37550 0.66100 0.72310 -0.01100
H 	H 	0.61130 0.58090 0.93050 -0.01400
H 	H 	0.58490 0.65300 0.90740 0.08200
H 	H 	0.53490 0.58550 0.82990 0.08300
H 	H 	0.56090 0.51380 0.85500 -0.01200
H 	H 	0.54620 0.52990 0.44390 -0.01100
H 	H 	0.62420 0.54860 0.48780 0.09100
H 	H 	0.37580 0.59740 0.52240 0.07800
H 	H 	0.30370 0.58010 0.47690 -0.00400
H 	H 	0.97810 0.53340 0.53420 -0.01000
H 	H 	0.82090 0.55970 0.52500 0.09200
H 	H 	0.80960 0.60170 0.61180 0.09700
H 	H 	0.96390 0.57580 0.61810 -0.00500
H 	H 	0.53410 0.71390 0.66640 -0.01700
H 	H 	0.62380 0.67370 0.63050 0.08700
H 	H 	0.37600 0.64270 0.58950 0.08700
H 	H 	0.29550 0.67790 0.62820 -0.01500
H 	H 	0.44430 0.58800 0.35730 -0.01100
H 	H 	0.46910 0.65890 0.33280 0.08000
H 	H 	0.39950 0.72840 0.40950 0.07900
H 	H 	0.36770 0.65410 0.43100 -0.01600
H 	H 	0.55600 0.70320 0.22490 0.00000
H 	H 	0.50260 0.70960 0.27380 0.07900
H 	H 	0.55860 0.84990 0.27060 0.07800
H 	H 	0.62450 0.83900 0.22310 -0.01100
H 	H 	0.38870 0.91910 0.43050 -0.01400
H 	H 	0.41510 0.84700 0.40740 0.08200
H 	H 	0.46510 0.91450 0.32990 0.08300
H 	H 	0.43910 0.98620 0.35500 -0.01200
C 	C 	0.98820 0.04470 0.54030 0.06600
C 	C 	0.94190 0.05540 0.51420 -0.12200
C 	C 	0.99030 0.07600 0.49070 0.05400
C 	C 	0.08800 0.08450 0.49380 -0.11400
C 	C 	0.13010 0.07380 0.52080 0.06400
C 	C 	0.93940 0.09070 0.46310 0.09500
C 	C 	0.80440 0.09560 0.43660 0.09000
C 	C 	0.93790 0.12810 0.41850 0.09800
C 	C 	0.55700 0.04770 0.44990 0.08000
C 	C 	0.65130 0.06280 0.45560 -0.12700
C 	C 	0.70230 0.08270 0.43170 0.05500
C 	C 	0.65750 0.08760 0.40460 -0.12900
C 	C 	0.56560 0.07230 0.40100 0.07300
C 	C 	0.99800 0.19770 0.34940 0.08600
C 	C 	0.94380 0.17450 0.37090 -0.13600
C 	C 	0.99000 0.15300 0.39380 0.07600
C 	C 	0.08940 0.15610 0.39420 -0.13200
C 	C 	0.13670 0.17780 0.37160 0.09200
C 	C 	0.06680 0.11690 0.63220 0.06300
C 	C 	0.05080 0.15890 0.64680 -0.11800
C 	C 	0.06360 0.20110 0.63180 0.05200
C 	C 	0.09280 0.20000 0.60180 -0.11900
C 	C 	0.11010 0.15540 0.58920 0.07200
C 	C 	0.04740 0.24650 0.64780 0.10400
C 	C 	0.00640 0.28410 0.69030 0.10500
C 	C 	0.04520 0.32630 0.64930 0.09700
C 	C 	0.94020 0.23310 0.76520 0.06400
C 	C 	0.97370 0.23690 0.73630 -0.11100
C 	C 	0.97320 0.28070 0.72170 0.04700
C 	C 	0.93920 0.31900 0.73790 -0.11100
C 	C 	0.90190 0.31260 0.76650 0.06200
C 	C 	0.09500 0.41840 0.59030 0.08200
C 	C 	0.07980 0.37540 0.60410 -0.12300
C 	C 	0.05760 0.37270 0.63400 0.06400
C 	C 	0.05030 0.41450 0.64940 -0.12200
C 	C 	0.06590 0.45720 0.63420 0.07500
C 	C 	0.01180 0.45530 0.04030 0.06400
C 	C 	0.05810 0.44460 0.01420 -0.12000
C 	C 	0.00970 0.42400 0.99070 0.05200
C 	C 	0.91200 0.41550 0.99380 -0.11200
C 	C 	0.86990 0.42620 0.02080 0.06400
C 	C 	0.06060 0.40930 0.96310 0.09500
C 	C 	0.19560 0.40440 0.93660 0.09000
C 	C 	0.06210 0.37190 0.91850 0.09800
C 	C 	0.44300 0.45230 0.94990 0.08000
C 	C 	0.34870 0.43720 0.95560 -0.12700
C 	C 	0.29770 0.41730 0.93170 0.05500
C 	C 	0.34250 0.41240 0.90460 -0.12900
C 	C 	0.43440 0.42770 0.90100 0.07300
C 	C 	0.00200 0.30230 0.84940 0.08400
C 	C 	0.05620 0.32550 0.87090 -0.13500
C 	C 	0.01000 0.34700 0.89380 0.07400
C 	C 	0.91060 0.34390 0.89420 -0.13000
C 	C 	0.86330 0.32220 0.87160 0.09100
C 	C 	0.93320 0.38310 0.13220 0.06300
C 	C 	0.94920 0.34110 0.14680 -0.11800
C 	C 	0.93640 0.29890 0.13180 0.05200
C 	C 	0.90720 0.30000 0.10180 -0.11900
C 	C 	0.88990 0.34460 0.08920 0.07200
C 	C 	0.95260 0.25350 0.14780 0.10400
C 	C 	0.99360 0.21590 0.19030 0.10600
C 	C 	0.95480 0.17370 0.14930 0.09700
C 	C 	0.05980 0.26690 0.26520 0.06300
C 	C 	0.02630 0.26310 0.23630 -0.11000
C 	C 	0.02680 0.21930 0.22170 0.04600
C 	C 	0.06080 0.18100 0.23790 -0.11100
C 	C 	0.09810 0.18740 0.26650 0.06200
C 	C 	0.90500 0.08160 0.09030 0.08200
C 	C 	0.92020 0.12460 0.10410 -0.12300
C 	C 	0.94240 0.12730 0.13400 0.06400
C 	C 	0.94970 0.08550 0.14940 -0.12200
C 	C 	0.93410 0.04280 0.13420 0.07500
C 	C 	0.48820 0.95530 0.95970 0.06400
C 	C 	0.44190 0.94460 0.98580 -0.12100
C 	C 	0.49030 0.92400 0.00930 0.05300
C 	C 	0.58800 0.91550 0.00620 -0.11200
C 	C 	0.63010 0.92620 0.97920 0.06400
C 	C 	0.43940 0.90930 0.03690 0.09500
C 	C 	0.30440 0.90440 0.06340 0.09000
C 	C 	0.43790 0.87190 0.08150 0.09800
C 	C 	0.05700 0.95230 0.05010 0.08000
C 	C 	0.15130 0.93720 0.04440 -0.12700
C 	C 	0.20230 0.91730 0.06830 0.05500
C 	C 	0.15750 0.91240 0.09540 -0.12900
C 	C 	0.06560 0.92770 0.09900 0.07400
C 	C 	0.49800 0.80230 0.15060 0.08600
C 	C 	0.44380 0.82550 0.12910 -0.13600
C 	C 	0.49000 0.84700 0.10620 0.07600
C 	C 	0.58940 0.84390 0.10580 -0.13200
C 	C 	0.63670 0.82220 0.12840 0.09200
C 	C 	0.56680 0.88310 0.86780 0.06300
C 	C 	0.55080 0.84110 0.85320 -0.11800
C 	C 	0.56360 0.79890 0.86820 0.05200
C 	C 	0.59280 0.80000 0.89820 -0.11900
C 	C 	0.61010 0.84460 0.91080 0.07200
C 	C 	0.54740 0.75350 0.85220 0.10400
C 	C 	0.50640 0.71590 0.80970 0.10600
C 	C 	0.54520 0.67370 0.85070 0.09700
C 	C 	0.44020 0.76690 0.73480 0.06300
C 	C 	0.47370 0.76310 0.76370 -0.11000
C 	C 	0.47320 0.71930 0.77830 0.04600
C 	C 	0.43920 0.68100 0.76210 -0.11100
C 	C 	0.40190 0.68740 0.73350 0.06200
C 	C 	0.59500 0.58160 0.90970 0.08200
C 	C 	0.57980 0.62460 0.89590 -0.12300
C 	C 	0.55760 0.62730 0.86600 0.06400
C 	C 	0.55030 0.58550 0.85060 -0.12200
C 	C 	0.56590 0.54280 0.86580 0.07500
C 	C 	0.51180 0.54470 0.45970 0.06400
C 	C 	0.55810 0.55540 0.48580 -0.12100
C 	C 	0.50970 0.57600 0.50930 0.05300
C 	C 	0.41200 0.58450 0.50620 -0.11200
C 	C 	0.36990 0.57380 0.47920 0.06400
C 	C 	0.56060 0.59070 0.53690 0.09500
C 	C 	0.69560 0.59560 0.56340 0.09000
C 	C 	0.56210 0.62810 0.58150 0.09800
C 	C 	0.94300 0.54770 0.55010 0.08000
C 	C 	0.84870 0.56280 0.54440 -0.12700
C 	C 	0.79770 0.58270 0.56830 0.05500
C 	C 	0.84250 0.58760 0.59540 -0.12900
C 	C 	0.93440 0.57230 0.59900 0.07300
C 	C 	0.50200 0.69770 0.65060 0.08600
C 	C 	0.55620 0.67450 0.62910 -0.13600
C 	C 	0.51000 0.65300 0.60620 0.07600
C 	C 	0.41060 0.65610 0.60580 -0.13200
C 	C 	0.36330 0.67780 0.62840 0.09200
C 	C 	0.43320 0.61690 0.36780 0.06300
C 	C 	0.44920 0.65890 0.35320 -0.11800
C 	C 	0.43640 0.70110 0.36820 0.05200
C 	C 	0.40720 0.70000 0.39820 -0.11900
C 	C 	0.38990 0.65540 0.41080 0.07200
C 	C 	0.45260 0.74650 0.35220 0.10400
C 	C 	0.49360 0.78410 0.30970 0.10600
C 	C 	0.45480 0.82630 0.35070 0.09700
C 	C 	0.55980 0.73310 0.23480 0.06300
C 	C 	0.52630 0.73690 0.26370 -0.11000
C 	C 	0.52680 0.78070 0.27830 0.04600
C 	C 	0.56080 0.81900 0.26210 -0.11100
C 	C 	0.59810 0.81260 0.23350 0.06200
C 	C 	0.40500 0.91840 0.40970 0.08200
C 	C 	0.42020 0.87540 0.39590 -0.12300
C 	C 	0.44240 0.87270 0.36600 0.06400
C 	C 	0.44970 0.91450 0.35060 -0.12200
C 	C 	0.43410 0.95720 0.36580 0.07500
I 	I 	0.32229 0.05735 0.58301 -0.38400
I 	I 	0.05651 0.98634 0.61649 -0.36200
I 	I 	0.30463 0.00601 0.46588 -0.39200
I 	I 	0.30401 0.07478 0.37583 -0.37200
I 	I 	0.15761 0.32590 0.33572 -0.37200
I 	I 	0.33406 0.20196 0.31290 -0.37200
I 	I 	0.67771 0.44265 0.08301 -0.38400
I 	I 	0.94349 0.51366 0.11649 -0.36300
I 	I 	0.69537 0.49399 0.96588 -0.39100
I 	I 	0.69599 0.42522 0.87583 -0.37100
I 	I 	0.84239 0.17410 0.83572 -0.37100
I 	I 	0.66594 0.29804 0.81290 -0.37200
I 	I 	0.82229 0.94265 0.91699 -0.38500
I 	I 	0.55651 0.01366 0.88351 -0.36300
I 	I 	0.80463 0.99399 0.03412 -0.39200
I 	I 	0.80401 0.92522 0.12417 -0.37200
I 	I 	0.65761 0.67410 0.16428 -0.37200
I 	I 	0.83406 0.79804 0.18710 -0.37300
I 	I 	0.17771 0.55735 0.41699 -0.38400
I 	I 	0.44349 0.48634 0.38351 -0.36300
I 	I 	0.19537 0.50601 0.53412 -0.39200
I 	I 	0.19599 0.57478 0.62417 -0.37200
I 	I 	0.34239 0.82590 0.66428 -0.37200
I 	I 	0.16594 0.70196 0.68710 -0.37200
N 	N 	0.08260 0.05480 0.54440 -0.27300
N 	N 	0.84650 0.07930 0.46100 -0.14400
N 	N 	0.84440 0.12140 0.41450 -0.13300
N 	N 	0.99030 0.11330 0.44220 -0.13700
N 	N 	0.51580 0.05240 0.42360 -0.27300
N 	N 	0.09220 0.19850 0.34970 -0.28000
N 	N 	0.09720 0.11450 0.60372 -0.27400
N 	N 	0.02130 0.24330 0.67636 -0.14200
N 	N 	0.06120 0.28730 0.63300 -0.13900
N 	N 	0.01670 0.32730 0.67830 -0.13900
N 	N 	0.90250 0.26990 0.77976 -0.27300
N 	N 	0.08760 0.45880 0.60510 -0.27400
N 	N 	0.91740 0.44520 0.04440 -0.27200
N 	N 	0.15350 0.42070 0.96100 -0.14400
N 	N 	0.15560 0.37860 0.91450 -0.13300
N 	N 	0.00970 0.38670 0.94220 -0.13700
N 	N 	0.48420 0.44760 0.92360 -0.27300
N 	N 	0.90780 0.30150 0.84970 -0.27900
N 	N 	0.90280 0.38550 0.10372 -0.27400
N 	N 	0.97870 0.25670 0.17636 -0.14200
N 	N 	0.93880 0.21270 0.13300 -0.13900
N 	N 	0.98330 0.17270 0.17830 -0.13900
N 	N 	0.09750 0.23010 0.27976 -0.27300
N 	N 	0.91240 0.04120 0.10510 -0.27400
N 	N 	0.58260 0.94520 0.95560 -0.27200
N 	N 	0.34650 0.92070 0.03900 -0.14400
N 	N 	0.34440 0.87860 0.08550 -0.13300
N 	N 	0.49030 0.88670 0.05780 -0.13700
N 	N 	0.01580 0.94760 0.07640 -0.27200
N 	N 	0.59220 0.80150 0.15030 -0.28000
N 	N 	0.59720 0.88550 0.89628 -0.27400
N 	N 	0.52130 0.75670 0.82364 -0.14200
N 	N 	0.56120 0.71270 0.86700 -0.13900
N 	N 	0.51670 0.67270 0.82170 -0.13900
N 	N 	0.40250 0.73010 0.72024 -0.27300
N 	N 	0.58760 0.54120 0.89490 -0.27400
N 	N 	0.41740 0.55480 0.45560 -0.27200
N 	N 	0.65350 0.57930 0.53900 -0.14400
N 	N 	0.65560 0.62140 0.58550 -0.13300
N 	N 	0.50970 0.61330 0.55780 -0.13700
N 	N 	0.98420 0.55240 0.57640 -0.27300
N 	N 	0.40780 0.69850 0.65030 -0.28000
N 	N 	0.40280 0.61450 0.39628 -0.27400
N 	N 	0.47870 0.74330 0.32364 -0.14200
N 	N 	0.43880 0.78730 0.36700 -0.13900
N 	N 	0.48330 0.82730 0.32170 -0.13900
N 	N 	0.59750 0.76990 0.22024 -0.27300
N 	N 	0.41240 0.95880 0.39490 -0.27400
Zn	Zn	0.85806 0.94973 0.41365 1.16400
Zn	Zn	0.61707 0.97677 0.58498 1.16400
Zn	Zn	0.83045 0.76076 0.68055 1.16400
Zn	Zn	0.14194 0.55027 0.91365 1.16400
Zn	Zn	0.38293 0.52323 0.08498 1.16400
Zn	Zn	0.16955 0.73924 0.18055 1.16400
Zn	Zn	0.35806 0.05027 0.08635 1.16400
Zn	Zn	0.11707 0.02323 0.91502 1.16400
Zn	Zn	0.33045 0.23924 0.81945 1.16400
Zn	Zn	0.64194 0.44973 0.58635 1.16400
Zn	Zn	0.88293 0.47677 0.41502 1.16400
Zn	Zn	0.66955 0.26076 0.31945 1.16400
H 	H 	0.04620 0.97010 0.44390 -0.01100
H 	H 	0.12420 0.95140 0.48780 0.09100
H 	H 	0.87580 0.90260 0.52240 0.07800
H 	H 	0.80370 0.91990 0.47690 -0.00500
H 	H 	0.47810 0.96660 0.53420 -0.01000
H 	H 	0.32090 0.94030 0.52500 0.09200
H 	H 	0.30960 0.89830 0.61180 0.09700
H 	H 	0.46390 0.92420 0.61810 -0.00500
H 	H 	0.03410 0.78610 0.66640 -0.01700
H 	H 	0.12380 0.82630 0.63050 0.08700
H 	H 	0.87600 0.85730 0.58950 0.08700
H 	H 	0.79550 0.82210 0.62820 -0.01500
H 	H 	0.94430 0.91200 0.35730 -0.01100
H 	H 	0.96910 0.84110 0.33280 0.08000
H 	H 	0.89950 0.77160 0.40950 0.07800
H 	H 	0.86770 0.84590 0.43100 -0.01600
H 	H 	0.05600 0.79680 0.22490 0.00000
H 	H 	0.00260 0.79040 0.27380 0.08000
H 	H 	0.05860 0.65010 0.27060 0.07800
H 	H 	0.12450 0.66100 0.22310 -0.01100
H 	H 	0.88870 0.58090 0.43050 -0.01400
H 	H 	0.91510 0.65300 0.40740 0.08200
H 	H 	0.96510 0.58550 0.32990 0.08300
H 	H 	0.93910 0.51380 0.35500 -0.01200
H 	H 	0.95380 0.52990 0.94390 -0.01000
H 	H 	0.87580 0.54860 0.98780 0.09000
H 	H 	0.12420 0.59740 0.02240 0.07700
H 	H 	0.19630 0.58010 0.97690 -0.00400
H 	H 	0.52190 0.53340 0.03420 -0.01000
H 	H 	0.67910 0.55970 0.02500 0.09200
H 	H 	0.69040 0.60170 0.11180 0.09700
H 	H 	0.53610 0.57580 0.11810 -0.00500
H 	H 	0.96590 0.71390 0.16640 -0.01700
H 	H 	0.87620 0.67370 0.13050 0.08700
H 	H 	0.12400 0.64270 0.08950 0.08700
H 	H 	0.20450 0.67790 0.12820 -0.01500
H 	H 	0.05570 0.58800 0.85730 -0.01100
H 	H 	0.03090 0.65890 0.83280 0.08000
H 	H 	0.10050 0.72840 0.90950 0.07900
H 	H 	0.13230 0.65410 0.93100 -0.01600
H 	H 	0.94400 0.70320 0.72490 0.00000
H 	H 	0.99740 0.70960 0.77380 0.07900
H 	H 	0.94140 0.84990 0.77060 0.07800
H 	H 	0.87550 0.83900 0.72310 -0.01100
H 	H 	0.11130 0.91910 0.93050 -0.01400
H 	H 	0.08490 0.84700 0.90740 0.08200
H 	H 	0.03490 0.91450 0.82990 0.08300
H 	H 	0.06090 0.98620 0.85500 -0.01200
H 	H 	0.54620 0.02990 0.05610 -0.01000
H 	H 	0.62420 0.04860 0.01220 0.09100
H 	H 	0.37580 0.09740 0.97760 0.07800
H 	H 	0.30370 0.08010 0.02310 -0.00400
H 	H 	0.97810 0.03340 0.96580 -0.01000
H 	H 	0.82090 0.05970 0.97500 0.09200
H 	H 	0.80960 0.10170 0.88820 0.09700
H 	H 	0.96390 0.07580 0.88190 -0.00500
H 	H 	0.53410 0.21390 0.83360 -0.01700
H 	H 	0.62380 0.17370 0.86950 0.08700
H 	H 	0.37600 0.14270 0.91050 0.08700
H 	H 	0.29550 0.17790 0.87180 -0.01500
H 	H 	0.44430 0.08800 0.14270 -0.01100
H 	H 	0.46910 0.15890 0.16720 0.08000
H 	H 	0.39950 0.22840 0.09050 0.07900
H 	H 	0.36770 0.15410 0.06900 -0.01600
H 	H 	0.55600 0.20320 0.27510 0.00000
H 	H 	0.50260 0.20960 0.22620 0.07900
H 	H 	0.55860 0.34990 0.22940 0.07800
H 	H 	0.62450 0.33900 0.27690 -0.01100
H 	H 	0.38870 0.41910 0.06950 -0.01400
H 	H 	0.41510 0.34700 0.09260 0.08200
H 	H 	0.46510 0.41450 0.17010 0.08300
H 	H 	0.43910 0.48620 0.14500 -0.01200
H 	H 	0.45380 0.47010 0.55610 -0.01100
H 	H 	0.37580 0.45140 0.51220 0.09100
H 	H 	0.62420 0.40260 0.47760 0.07800
H 	H 	0.69630 0.41990 0.52310 -0.00400
H 	H 	0.02190 0.46660 0.46580 -0.01000
H 	H 	0.17910 0.44030 0.47500 0.09200
H 	H 	0.19040 0.39830 0.38820 0.09700
H 	H 	0.03610 0.42420 0.38190 -0.00500
H 	H 	0.46590 0.28610 0.33360 -0.01700
H 	H 	0.37620 0.32630 0.36950 0.08700
H 	H 	0.62400 0.35730 0.41050 0.08700
H 	H 	0.70450 0.32210 0.37180 -0.01500
H 	H 	0.55570 0.41200 0.64270 -0.01100
H 	H 	0.53090 0.34110 0.66720 0.08000
H 	H 	0.60050 0.27160 0.59050 0.07900
H 	H 	0.63230 0.34590 0.56900 -0.01600
H 	H 	0.44400 0.29680 0.77510 0.00000
H 	H 	0.49740 0.29040 0.72620 0.07900
H 	H 	0.44140 0.15010 0.72940 0.07800
H 	H 	0.37550 0.16100 0.77690 -0.01100
H 	H 	0.61130 0.08090 0.56950 -0.01400
H 	H 	0.58490 0.15300 0.59260 0.08200
H 	H 	0.53490 0.08550 0.67010 0.08300
H 	H 	0.56090 0.01380 0.64500 -0.01200
C 	C 	0.01180 0.95530 0.45970 0.06600
C 	C 	0.05810 0.94460 0.48580 -0.12200
C 	C 	0.00970 0.92400 0.50930 0.05400
C 	C 	0.91200 0.91550 0.50620 -0.11400
C 	C 	0.86990 0.92620 0.47920 0.06400
C 	C 	0.06060 0.90930 0.53690 0.09500
C 	C 	0.19560 0.90440 0.56340 0.09000
C 	C 	0.06210 0.87190 0.58150 0.09800
C 	C 	0.44300 0.95230 0.55010 0.08000
C 	C 	0.34870 0.93720 0.54440 -0.12700
C 	C 	0.29770 0.91730 0.56830 0.05500
C 	C 	0.34250 0.91240 0.59540 -0.12900
C 	C 	0.43440 0.92770 0.59900 0.07300
C 	C 	0.00200 0.80230 0.65060 0.08600
C 	C 	0.05620 0.82550 0.62910 -0.13600
C 	C 	0.01000 0.84700 0.60620 0.07600
C 	C 	0.91060 0.84390 0.60580 -0.13200
C 	C 	0.86330 0.82220 0.62840 0.09200
C 	C 	0.93320 0.88310 0.36780 0.06300
C 	C 	0.94920 0.84110 0.35320 -0.11800
C 	C 	0.93640 0.79890 0.36820 0.05200
C 	C 	0.90720 0.80000 0.39820 -0.11900
C 	C 	0.88990 0.84460 0.41080 0.07200
C 	C 	0.95260 0.75350 0.35220 0.10400
C 	C 	0.99360 0.71590 0.30970 0.10500
C 	C 	0.95480 0.67370 0.35070 0.09700
C 	C 	0.05980 0.76690 0.23480 0.06400
C 	C 	0.02630 0.76310 0.26370 -0.11100
C 	C 	0.02680 0.71930 0.27830 0.04700
C 	C 	0.06080 0.68100 0.26210 -0.11100
C 	C 	0.09810 0.68740 0.23350 0.06200
C 	C 	0.90500 0.58160 0.40970 0.08200
C 	C 	0.92020 0.62460 0.39590 -0.12300
C 	C 	0.94240 0.62730 0.36600 0.06400
C 	C 	0.94970 0.58550 0.35060 -0.12200
C 	C 	0.93410 0.54280 0.36580 0.07500
C 	C 	0.98820 0.54470 0.95970 0.06400
C 	C 	0.94190 0.55540 0.98580 -0.12000
C 	C 	0.99030 0.57600 0.00930 0.05200
C 	C 	0.08800 0.58450 0.00620 -0.11200
C 	C 	0.13010 0.57380 0.97920 0.06400
C 	C 	0.93940 0.59070 0.03690 0.09500
C 	C 	0.80440 0.59560 0.06340 0.09000
C 	C 	0.93790 0.62810 0.08150 0.09800
C 	C 	0.55700 0.54770 0.05010 0.08000
C 	C 	0.65130 0.56280 0.04440 -0.12700
C 	C 	0.70230 0.58270 0.06830 0.05500
C 	C 	0.65750 0.58760 0.09540 -0.12900
C 	C 	0.56560 0.57230 0.09900 0.07300
C 	C 	0.99800 0.69770 0.15060 0.08400
C 	C 	0.94380 0.67450 0.12910 -0.13500
C 	C 	0.99000 0.65300 0.10620 0.07400
C 	C 	0.08940 0.65610 0.10580 -0.13000
C 	C 	0.13670 0.67780 0.12840 0.09100
C 	C 	0.06680 0.61690 0.86780 0.06300
C 	C 	0.05080 0.65890 0.85320 -0.11800
C 	C 	0.06360 0.70110 0.86820 0.05200
C 	C 	0.09280 0.70000 0.89820 -0.11900
C 	C 	0.11010 0.65540 0.91080 0.07200
C 	C 	0.04740 0.74650 0.85220 0.10400
C 	C 	0.00640 0.78410 0.80970 0.10600
C 	C 	0.04520 0.82630 0.85070 0.09700
C 	C 	0.94020 0.73310 0.73480 0.06300
C 	C 	0.97370 0.73690 0.76370 -0.11000
C 	C 	0.97320 0.78070 0.77830 0.04600
C 	C 	0.93920 0.81900 0.76210 -0.11100
C 	C 	0.90190 0.81260 0.73350 0.06200
C 	C 	0.09500 0.91840 0.90970 0.08200
C 	C 	0.07980 0.87540 0.89590 -0.12300
C 	C 	0.05760 0.87270 0.86600 0.06400
C 	C 	0.05030 0.91450 0.85060 -0.12200
C 	C 	0.06590 0.95720 0.86580 0.07500
C 	C 	0.51180 0.04470 0.04030 0.06400
C 	C 	0.55810 0.05540 0.01420 -0.12100
C 	C 	0.50970 0.07600 0.99070 0.05300
C 	C 	0.41200 0.08450 0.99380 -0.11200
C 	C 	0.36990 0.07380 0.02080 0.06400
C 	C 	0.56060 0.09070 0.96310 0.09500
C 	C 	0.69560 0.09560 0.93660 0.09000
C 	C 	0.56210 0.12810 0.91850 0.09800
C 	C 	0.94300 0.04770 0.94990 0.08000
C 	C 	0.84870 0.06280 0.95560 -0.12700
C 	C 	0.79770 0.08270 0.93170 0.05500
C 	C 	0.84250 0.08760 0.90460 -0.12900
C 	C 	0.93440 0.07230 0.90100 0.07400
C 	C 	0.50200 0.19770 0.84940 0.08600
C 	C 	0.55620 0.17450 0.87090 -0.13600
C 	C 	0.51000 0.15300 0.89380 0.07600
C 	C 	0.41060 0.15610 0.89420 -0.13200
C 	C 	0.36330 0.17780 0.87160 0.09200
C 	C 	0.43320 0.11690 0.13220 0.06300
C 	C 	0.44920 0.15890 0.14680 -0.11800
C 	C 	0.43640 0.20110 0.13180 0.05200
C 	C 	0.40720 0.20000 0.10180 -0.11900
C 	C 	0.38990 0.15540 0.08920 0.07200
C 	C 	0.45260 0.24650 0.14780 0.10400
C 	C 	0.49360 0.28410 0.19030 0.10600
C 	C 	0.45480 0.32630 0.14930 0.09700
C 	C 	0.55980 0.23310 0.26520 0.06300
C 	C 	0.52630 0.23690 0.23630 -0.11000
C 	C 	0.52680 0.28070 0.22170 0.04600
C 	C 	0.56080 0.31900 0.23790 -0.11100
C 	C 	0.59810 0.31260 0.26650 0.06200
C 	C 	0.40500 0.41840 0.09030 0.08200
C 	C 	0.42020 0.37540 0.10410 -0.12300
C 	C 	0.44240 0.37270 0.13400 0.06400
C 	C 	0.44970 0.41450 0.14940 -0.12200
C 	C 	0.43410 0.45720 0.13420 0.07500
C 	C 	0.48820 0.45530 0.54030 0.06400
C 	C 	0.44190 0.44460 0.51420 -0.12100
C 	C 	0.49030 0.42400 0.49070 0.05300
C 	C 	0.58800 0.41550 0.49380 -0.11200
C 	C 	0.63010 0.42620 0.52080 0.06400
C 	C 	0.43940 0.40930 0.46310 0.09500
C 	C 	0.30440 0.40440 0.43660 0.09000
C 	C 	0.43790 0.37190 0.41850 0.09800
C 	C 	0.05700 0.45230 0.44990 0.08000
C 	C 	0.15130 0.43720 0.45560 -0.12700
C 	C 	0.20230 0.41730 0.43170 0.05500
C 	C 	0.15750 0.41240 0.40460 -0.12900
C 	C 	0.06560 0.42770 0.40100 0.07300
C 	C 	0.49800 0.30230 0.34940 0.08600
C 	C 	0.44380 0.32550 0.37090 -0.13600
C 	C 	0.49000 0.34700 0.39380 0.07600
C 	C 	0.58940 0.34390 0.39420 -0.13200
C 	C 	0.63670 0.32220 0.37160 0.09200
C 	C 	0.56680 0.38310 0.63220 0.06300
C 	C 	0.55080 0.34110 0.64680 -0.11800
C 	C 	0.56360 0.29890 0.63180 0.05200
C 	C 	0.59280 0.30000 0.60180 -0.11900
C 	C 	0.61010 0.34460 0.58920 0.07200
C 	C 	0.54740 0.25350 0.64780 0.10400
C 	C 	0.50640 0.21590 0.69030 0.10600
C 	C 	0.54520 0.17370 0.64930 0.09700
C 	C 	0.44020 0.26690 0.76520 0.06300
C 	C 	0.47370 0.26310 0.73630 -0.11000
C 	C 	0.47320 0.21930 0.72170 0.04600
C 	C 	0.43920 0.18100 0.73790 -0.11100
C 	C 	0.40190 0.18740 0.76650 0.06200
C 	C 	0.59500 0.08160 0.59030 0.08200
C 	C 	0.57980 0.12460 0.60410 -0.12300
C 	C 	0.55760 0.12730 0.63400 0.06400
C 	C 	0.55030 0.08550 0.64940 -0.12200
C 	C 	0.56590 0.04280 0.63420 0.07500
I 	I 	0.67771 0.94265 0.41699 -0.38400
I 	I 	0.94349 0.01366 0.38351 -0.36200
I 	I 	0.69537 0.99399 0.53412 -0.39200
I 	I 	0.69599 0.92522 0.62417 -0.37200
I 	I 	0.84239 0.67410 0.66428 -0.37200
I 	I 	0.66594 0.79804 0.68710 -0.37200
I 	I 	0.32229 0.55735 0.91699 -0.38400
I 	I 	0.05651 0.48634 0.88351 -0.36300
I 	I 	0.30463 0.50601 0.03412 -0.39100
I 	I 	0.30401 0.57478 0.12417 -0.37100
I 	I 	0.15761 0.82590 0.16428 -0.37100
I 	I 	0.33406 0.70196 0.18710 -0.37200
I 	I 	0.17771 0.05735 0.08301 -0.38500
I 	I 	0.44349 0.98634 0.11649 -0.36300
I 	I 	0.19537 0.00601 0.96588 -0.39200
I 	I 	0.19599 0.07478 0.87583 -0.37200
I 	I 	0.34239 0.32590 0.83572 -0.37200
I 	I 	0.16594 0.20196 0.81290 -0.37300
I 	I 	0.82229 0.44265 0.58301 -0.38400
I 	I 	0.55651 0.51366 0.61649 -0.36300
I 	I 	0.80463 0.49399 0.46588 -0.39200
I 	I 	0.80401 0.42522 0.37583 -0.37200
I 	I 	0.65761 0.17410 0.33572 -0.37200
I 	I 	0.83406 0.29804 0.31290 -0.37200
N 	N 	0.91740 0.94520 0.45560 -0.27300
N 	N 	0.15350 0.92070 0.53900 -0.14400
N 	N 	0.15560 0.87860 0.58550 -0.13300
N 	N 	0.00970 0.88670 0.55780 -0.13700
N 	N 	0.48420 0.94760 0.57640 -0.27300
N 	N 	0.90780 0.80150 0.65030 -0.28000
N 	N 	0.90280 0.88550 0.39628 -0.27400
N 	N 	0.97870 0.75670 0.32364 -0.14200
N 	N 	0.93880 0.71270 0.36700 -0.13900
N 	N 	0.98330 0.67270 0.32170 -0.13900
N 	N 	0.09750 0.73010 0.22024 -0.27300
N 	N 	0.91240 0.54120 0.39490 -0.27400
N 	N 	0.08260 0.55480 0.95560 -0.27200
N 	N 	0.84650 0.57930 0.03900 -0.14400
N 	N 	0.84440 0.62140 0.08550 -0.13300
N 	N 	0.99030 0.61330 0.05780 -0.13700
N 	N 	0.51580 0.55240 0.07640 -0.27300
N 	N 	0.09220 0.69850 0.15030 -0.27900
N 	N 	0.09720 0.61450 0.89628 -0.27400
N 	N 	0.02130 0.74330 0.82364 -0.14200
N 	N 	0.06120 0.78730 0.86700 -0.13900
N 	N 	0.01670 0.82730 0.82170 -0.13900
N 	N 	0.90250 0.76990 0.72024 -0.27300
N 	N 	0.08760 0.95880 0.89490 -0.27400
N 	N 	0.41740 0.05480 0.04440 -0.27200
N 	N 	0.65350 0.07930 0.96100 -0.14400
N 	N 	0.65560 0.12140 0.91450 -0.13300
N 	N 	0.50970 0.11330 0.94220 -0.13700
N 	N 	0.98420 0.05240 0.92360 -0.27200
N 	N 	0.40780 0.19850 0.84970 -0.28000
N 	N 	0.40280 0.11450 0.10372 -0.27400
N 	N 	0.47870 0.24330 0.17636 -0.14200
N 	N 	0.43880 0.28730 0.13300 -0.13900
N 	N 	0.48330 0.32730 0.17830 -0.13900
N 	N 	0.59750 0.26990 0.27976 -0.27300
N 	N 	0.41240 0.45880 0.10510 -0.27400
N 	N 	0.58260 0.44520 0.54440 -0.27200
N 	N 	0.34650 0.42070 0.46100 -0.14400
N 	N 	0.34440 0.37860 0.41450 -0.13300
N 	N 	0.49030 0.38670 0.44220 -0.13700
N 	N 	0.01580 0.44760 0.42360 -0.27300
N 	N 	0.59220 0.30150 0.34970 -0.28000
N 	N 	0.59720 0.38550 0.60372 -0.27400
N 	N 	0.52130 0.25670 0.67636 -0.14200
N 	N 	0.56120 0.21270 0.63300 -0.13900
N 	N 	0.51670 0.17270 0.67830 -0.13900
N 	N 	0.40250 0.23010 0.77976 -0.27300
N 	N 	0.58760 0.04120 0.60510 -0.27400
