data_crystal

_cell_length_a 44.58800
_cell_length_b 44.58800
_cell_length_c 44.58800
_cell_angle_alpha 90.00000
_cell_angle_beta  90.00000
_cell_angle_gamma 90.00000

_symmetry_space_group_name_	'P 1'
_symmetry_space_group_name_H-M	'P 1'

loop_
_symmetry_equiv_pos_as_xyz
  x,y,z

loop_
_atom_site_label
_atom_site_type_symbol
_atom_site_fract_x
_atom_site_fract_y
_atom_site_fract_z
_atom_site_charge
O 	O 	0.35738 0.96918 0.18628 -0.40600
C 	C 	0.39709 0.93519 0.19025 -0.07700
C 	C 	0.38087 0.95974 0.17460 0.36200
C 	C 	0.37178 0.90590 0.28210 0.02800
H 	H 	0.35950 0.92230 0.27650 0.02300
N 	N 	0.36915 0.89040 0.30802 -0.15200
O 	O 	0.39242 0.96920 0.15070 -0.38200
C 	C 	0.38994 0.92690 0.22080 -0.00600
H 	H 	0.37550 0.93820 0.23160 0.03100
C 	C 	0.38330 0.92200 0.21430 -0.01600
H 	H 	0.36530 0.93010 0.22230 0.03800
C 	C 	0.36050 0.89330 0.27240 0.00500
H 	H 	0.34710 0.90890 0.26670 0.01900
N 	N 	0.35720 0.87720 0.29620 -0.15800
O 	O 	0.35738 0.46918 0.68628 -0.40800
C 	C 	0.39709 0.43519 0.69025 -0.07700
C 	C 	0.38087 0.45974 0.67460 0.36200
C 	C 	0.37178 0.40590 0.78210 0.02800
H 	H 	0.35950 0.42230 0.77650 0.02300
N 	N 	0.36915 0.39040 0.80802 -0.15200
O 	O 	0.39242 0.46920 0.65070 -0.38300
C 	C 	0.38994 0.42690 0.72080 -0.00600
H 	H 	0.37550 0.43820 0.73160 0.03000
C 	C 	0.38330 0.42200 0.71430 -0.01600
H 	H 	0.36530 0.43010 0.72230 0.03800
C 	C 	0.36050 0.39330 0.77240 0.00600
H 	H 	0.34710 0.40890 0.76670 0.01900
N 	N 	0.35720 0.37720 0.79620 -0.15800
O 	O 	0.85738 0.96918 0.68628 -0.40600
C 	C 	0.89709 0.93519 0.69025 -0.07700
C 	C 	0.88087 0.95974 0.67460 0.36200
C 	C 	0.87178 0.90590 0.78210 0.02900
H 	H 	0.85950 0.92230 0.77650 0.02200
N 	N 	0.86915 0.89040 0.80802 -0.15200
O 	O 	0.89242 0.96920 0.65070 -0.38200
C 	C 	0.88994 0.92690 0.72080 -0.00700
H 	H 	0.87550 0.93820 0.73160 0.03100
C 	C 	0.88330 0.92200 0.71430 -0.01500
H 	H 	0.86530 0.93010 0.72230 0.03700
C 	C 	0.86050 0.89330 0.77240 0.00400
H 	H 	0.84710 0.90890 0.76670 0.02000
N 	N 	0.85720 0.87720 0.79620 -0.15800
O 	O 	0.85738 0.46918 0.18628 -0.40800
C 	C 	0.89709 0.43519 0.19025 -0.07700
C 	C 	0.88087 0.45974 0.17460 0.36200
C 	C 	0.87178 0.40590 0.28210 0.02900
H 	H 	0.85950 0.42230 0.27650 0.02200
N 	N 	0.86915 0.39040 0.30802 -0.15200
O 	O 	0.89242 0.46920 0.15070 -0.38300
C 	C 	0.88994 0.42690 0.22080 -0.00600
H 	H 	0.87550 0.43820 0.23160 0.03000
C 	C 	0.88330 0.42200 0.21430 -0.01600
H 	H 	0.86530 0.43010 0.22230 0.03800
C 	C 	0.86050 0.39330 0.27240 0.00500
H 	H 	0.84710 0.40890 0.26670 0.01900
N 	N 	0.85720 0.37720 0.29620 -0.15800
O 	O 	0.64262 0.03082 0.18628 -0.40900
C 	C 	0.60291 0.06481 0.19025 -0.07800
C 	C 	0.61913 0.04026 0.17460 0.36200
C 	C 	0.62822 0.09410 0.28210 0.02700
H 	H 	0.64050 0.07770 0.27650 0.02200
N 	N 	0.63085 0.10960 0.30802 -0.15200
O 	O 	0.60758 0.03080 0.15070 -0.38300
C 	C 	0.61006 0.07310 0.22080 -0.00500
H 	H 	0.62450 0.06180 0.23160 0.02900
C 	C 	0.61670 0.07800 0.21430 -0.01700
H 	H 	0.63470 0.06990 0.22230 0.03800
C 	C 	0.63950 0.10670 0.27240 0.00600
H 	H 	0.65290 0.09110 0.26670 0.01900
N 	N 	0.64280 0.12280 0.29620 -0.15800
O 	O 	0.64262 0.53082 0.68628 -0.40800
C 	C 	0.60291 0.56481 0.69025 -0.07800
C 	C 	0.61913 0.54026 0.67460 0.36200
C 	C 	0.62822 0.59410 0.78210 0.02800
H 	H 	0.64050 0.57770 0.77650 0.02200
N 	N 	0.63085 0.60960 0.80802 -0.15200
O 	O 	0.60758 0.53080 0.65070 -0.38300
C 	C 	0.61006 0.57310 0.72080 -0.00600
H 	H 	0.62450 0.56180 0.73160 0.03000
C 	C 	0.61670 0.57800 0.71430 -0.01600
H 	H 	0.63470 0.56990 0.72230 0.03800
C 	C 	0.63950 0.60670 0.77240 0.00600
H 	H 	0.65290 0.59110 0.76670 0.01900
N 	N 	0.64280 0.62280 0.79620 -0.15800
O 	O 	0.14262 0.03082 0.68628 -0.40900
C 	C 	0.10291 0.06481 0.69025 -0.07800
C 	C 	0.11913 0.04026 0.67460 0.36200
C 	C 	0.12822 0.09410 0.78210 0.02600
H 	H 	0.14050 0.07770 0.77650 0.02300
N 	N 	0.13085 0.10960 0.80802 -0.15200
O 	O 	0.10758 0.03080 0.65070 -0.38300
C 	C 	0.11006 0.07310 0.72080 -0.00500
H 	H 	0.12450 0.06180 0.73160 0.02900
C 	C 	0.11670 0.07800 0.71430 -0.01700
H 	H 	0.13470 0.06990 0.72230 0.03800
C 	C 	0.13950 0.10670 0.77240 0.00700
H 	H 	0.15290 0.09110 0.76670 0.01900
N 	N 	0.14280 0.12280 0.79620 -0.15800
O 	O 	0.14262 0.53082 0.18628 -0.40800
C 	C 	0.10291 0.56481 0.19025 -0.07800
C 	C 	0.11913 0.54026 0.17460 0.36200
C 	C 	0.12822 0.59410 0.28210 0.02700
H 	H 	0.14050 0.57770 0.27650 0.02300
N 	N 	0.13085 0.60960 0.30802 -0.15200
O 	O 	0.10758 0.53080 0.15070 -0.38300
C 	C 	0.11006 0.57310 0.22080 -0.00500
H 	H 	0.12450 0.56180 0.23160 0.03000
C 	C 	0.11670 0.57800 0.21430 -0.01700
H 	H 	0.13470 0.56990 0.22230 0.03800
C 	C 	0.13950 0.60670 0.27240 0.00700
H 	H 	0.15290 0.59110 0.26670 0.01900
N 	N 	0.14280 0.62280 0.29620 -0.15800
O 	O 	0.64262 0.96918 0.81372 -0.40600
C 	C 	0.60291 0.93519 0.80975 -0.07700
C 	C 	0.61913 0.95974 0.82540 0.36200
C 	C 	0.62822 0.90590 0.71790 0.02800
H 	H 	0.64050 0.92230 0.72350 0.02300
N 	N 	0.63085 0.89040 0.69198 -0.15200
O 	O 	0.60758 0.96920 0.84930 -0.38200
C 	C 	0.61006 0.92690 0.77920 -0.00600
H 	H 	0.62450 0.93820 0.76840 0.03100
C 	C 	0.61670 0.92200 0.78570 -0.01600
H 	H 	0.63470 0.93010 0.77770 0.03800
C 	C 	0.63950 0.89330 0.72760 0.00500
H 	H 	0.65290 0.90890 0.73330 0.01900
N 	N 	0.64280 0.87720 0.70380 -0.15800
O 	O 	0.64262 0.46918 0.31372 -0.40800
C 	C 	0.60291 0.43519 0.30975 -0.07700
C 	C 	0.61913 0.45974 0.32540 0.36200
C 	C 	0.62822 0.40590 0.21790 0.02800
H 	H 	0.64050 0.42230 0.22350 0.02300
N 	N 	0.63085 0.39040 0.19198 -0.15200
O 	O 	0.60758 0.46920 0.34930 -0.38300
C 	C 	0.61006 0.42690 0.27920 -0.00600
H 	H 	0.62450 0.43820 0.26840 0.03000
C 	C 	0.61670 0.42200 0.28570 -0.01600
H 	H 	0.63470 0.43010 0.27770 0.03800
C 	C 	0.63950 0.39330 0.22760 0.00600
H 	H 	0.65290 0.40890 0.23330 0.01900
N 	N 	0.64280 0.37720 0.20380 -0.15800
O 	O 	0.14262 0.96918 0.31372 -0.40600
C 	C 	0.10291 0.93519 0.30975 -0.07700
C 	C 	0.11913 0.95974 0.32540 0.36200
C 	C 	0.12822 0.90590 0.21790 0.02700
H 	H 	0.14050 0.92230 0.22350 0.02300
N 	N 	0.13085 0.89040 0.19198 -0.15200
O 	O 	0.10758 0.96920 0.34930 -0.38200
C 	C 	0.11006 0.92690 0.27920 -0.00600
H 	H 	0.12450 0.93820 0.26840 0.03000
C 	C 	0.11670 0.92200 0.28570 -0.01600
H 	H 	0.13470 0.93010 0.27770 0.03800
C 	C 	0.13950 0.89330 0.22760 0.00600
H 	H 	0.15290 0.90890 0.23330 0.01900
N 	N 	0.14280 0.87720 0.20380 -0.15800
O 	O 	0.14262 0.46918 0.81372 -0.40800
C 	C 	0.10291 0.43519 0.80975 -0.07800
C 	C 	0.11913 0.45974 0.82540 0.36200
C 	C 	0.12822 0.40590 0.71790 0.02700
H 	H 	0.14050 0.42230 0.72350 0.02300
N 	N 	0.13085 0.39040 0.69198 -0.15200
O 	O 	0.10758 0.46920 0.84930 -0.38300
C 	C 	0.11006 0.42690 0.77920 -0.00500
H 	H 	0.12450 0.43820 0.76840 0.03000
C 	C 	0.11670 0.42200 0.78570 -0.01700
H 	H 	0.13470 0.43010 0.77770 0.03800
C 	C 	0.13950 0.39330 0.72760 0.00600
H 	H 	0.15290 0.40890 0.73330 0.01900
N 	N 	0.14280 0.37720 0.70380 -0.15800
O 	O 	0.35738 0.03082 0.81372 -0.40900
C 	C 	0.39709 0.06481 0.80975 -0.07800
C 	C 	0.38087 0.04026 0.82540 0.36200
C 	C 	0.37178 0.09410 0.71790 0.02700
H 	H 	0.35950 0.07770 0.72350 0.02200
N 	N 	0.36915 0.10960 0.69198 -0.15200
O 	O 	0.39242 0.03080 0.84930 -0.38300
C 	C 	0.38994 0.07310 0.77920 -0.00500
H 	H 	0.37550 0.06180 0.76840 0.02900
C 	C 	0.38330 0.07800 0.78570 -0.01700
H 	H 	0.36530 0.06990 0.77770 0.03700
C 	C 	0.36050 0.10670 0.72760 0.00500
H 	H 	0.34710 0.09110 0.73330 0.01800
N 	N 	0.35720 0.12280 0.70380 -0.15900
O 	O 	0.35738 0.53082 0.31372 -0.40900
C 	C 	0.39709 0.56481 0.30975 -0.07800
C 	C 	0.38087 0.54026 0.32540 0.36100
C 	C 	0.37178 0.59410 0.21790 0.02700
H 	H 	0.35950 0.57770 0.22350 0.02200
N 	N 	0.36915 0.60960 0.19198 -0.15300
O 	O 	0.39242 0.53080 0.34930 -0.38400
C 	C 	0.38994 0.57310 0.27920 -0.00700
H 	H 	0.37550 0.56180 0.26840 0.02900
C 	C 	0.38330 0.57800 0.28570 -0.01700
H 	H 	0.36530 0.56990 0.27770 0.03700
C 	C 	0.36050 0.60670 0.22760 0.00500
H 	H 	0.34710 0.59110 0.23330 0.01800
N 	N 	0.35720 0.62280 0.20380 -0.15900
O 	O 	0.85738 0.03082 0.31372 -0.41000
C 	C 	0.89709 0.06481 0.30975 -0.07900
C 	C 	0.88087 0.04026 0.32540 0.36100
C 	C 	0.87178 0.09410 0.21790 0.02700
H 	H 	0.85950 0.07770 0.22350 0.02100
N 	N 	0.86915 0.10960 0.19198 -0.15300
O 	O 	0.89242 0.03080 0.34930 -0.38400
C 	C 	0.88994 0.07310 0.27920 -0.00700
H 	H 	0.87550 0.06180 0.26840 0.02900
C 	C 	0.88330 0.07800 0.28570 -0.01700
H 	H 	0.86530 0.06990 0.27770 0.03700
C 	C 	0.86050 0.10670 0.22760 0.00400
H 	H 	0.84710 0.09110 0.23330 0.01800
N 	N 	0.85720 0.12280 0.20380 -0.15900
O 	O 	0.85738 0.53082 0.81372 -0.40900
C 	C 	0.89709 0.56481 0.80975 -0.07800
C 	C 	0.88087 0.54026 0.82540 0.36100
C 	C 	0.87178 0.59410 0.71790 0.02800
H 	H 	0.85950 0.57770 0.72350 0.02100
N 	N 	0.86915 0.60960 0.69198 -0.15300
O 	O 	0.89242 0.53080 0.84930 -0.38400
C 	C 	0.88994 0.57310 0.77920 -0.00700
H 	H 	0.87550 0.56180 0.76840 0.02900
C 	C 	0.88330 0.57800 0.78570 -0.01700
H 	H 	0.86530 0.56990 0.77770 0.03700
C 	C 	0.86050 0.60670 0.72760 0.00400
H 	H 	0.84710 0.59110 0.73330 0.01800
N 	N 	0.85720 0.62280 0.70380 -0.15900
O 	O 	0.18628 0.35738 0.96918 -0.40700
C 	C 	0.19025 0.39709 0.93519 -0.07800
C 	C 	0.17460 0.38087 0.95974 0.36100
C 	C 	0.28210 0.37178 0.90590 0.02700
H 	H 	0.27650 0.35950 0.92230 0.02200
N 	N 	0.30802 0.36915 0.89040 -0.15300
O 	O 	0.15070 0.39242 0.96920 -0.38300
C 	C 	0.22080 0.38994 0.92690 -0.00700
H 	H 	0.23160 0.37550 0.93820 0.03000
C 	C 	0.21430 0.38330 0.92200 -0.01700
H 	H 	0.22230 0.36530 0.93010 0.03700
C 	C 	0.27240 0.36050 0.89330 0.00400
H 	H 	0.26670 0.34710 0.90890 0.01800
N 	N 	0.29620 0.35720 0.87720 -0.15900
O 	O 	0.18628 0.85738 0.46918 -0.40900
C 	C 	0.19025 0.89709 0.43519 -0.07800
C 	C 	0.17460 0.88087 0.45974 0.36100
C 	C 	0.28210 0.87178 0.40590 0.02800
H 	H 	0.27650 0.85950 0.42230 0.02100
N 	N 	0.30802 0.86915 0.39040 -0.15300
O 	O 	0.15070 0.89242 0.46920 -0.38400
C 	C 	0.22080 0.88994 0.42690 -0.00700
H 	H 	0.23160 0.87550 0.43820 0.02900
C 	C 	0.21430 0.88330 0.42200 -0.01700
H 	H 	0.22230 0.86530 0.43010 0.03700
C 	C 	0.27240 0.86050 0.39330 0.00400
H 	H 	0.26670 0.84710 0.40890 0.01800
N 	N 	0.29620 0.85720 0.37720 -0.15900
O 	O 	0.68628 0.35738 0.46918 -0.40900
C 	C 	0.69025 0.39709 0.43519 -0.07800
C 	C 	0.67460 0.38087 0.45974 0.36100
C 	C 	0.78210 0.37178 0.40590 0.02700
H 	H 	0.77650 0.35950 0.42230 0.02200
N 	N 	0.80802 0.36915 0.39040 -0.15300
O 	O 	0.65070 0.39242 0.46920 -0.38400
C 	C 	0.72080 0.38994 0.42690 -0.00700
H 	H 	0.73160 0.37550 0.43820 0.02900
C 	C 	0.71430 0.38330 0.42200 -0.01700
H 	H 	0.72230 0.36530 0.43010 0.03700
C 	C 	0.77240 0.36050 0.39330 0.00500
H 	H 	0.76670 0.34710 0.40890 0.01800
N 	N 	0.79620 0.35720 0.37720 -0.15900
O 	O 	0.68628 0.85738 0.96918 -0.40700
C 	C 	0.69025 0.89709 0.93519 -0.07800
C 	C 	0.67460 0.88087 0.95974 0.36100
C 	C 	0.78210 0.87178 0.90590 0.02800
H 	H 	0.77650 0.85950 0.92230 0.02100
N 	N 	0.80802 0.86915 0.89040 -0.15300
O 	O 	0.65070 0.89242 0.96920 -0.38300
C 	C 	0.72080 0.88994 0.92690 -0.00800
H 	H 	0.73160 0.87550 0.93820 0.03000
C 	C 	0.71430 0.88330 0.92200 -0.01600
H 	H 	0.72230 0.86530 0.93010 0.03600
C 	C 	0.77240 0.86050 0.89330 0.00300
H 	H 	0.76670 0.84710 0.90890 0.01900
N 	N 	0.79620 0.85720 0.87720 -0.15900
O 	O 	0.18628 0.64262 0.03082 -0.41000
C 	C 	0.19025 0.60291 0.06481 -0.07900
C 	C 	0.17460 0.61913 0.04026 0.36100
C 	C 	0.28210 0.62822 0.09410 0.02600
H 	H 	0.27650 0.64050 0.07770 0.02100
N 	N 	0.30802 0.63085 0.10960 -0.15300
O 	O 	0.15070 0.60758 0.03080 -0.38400
C 	C 	0.22080 0.61006 0.07310 -0.00600
H 	H 	0.23160 0.62450 0.06180 0.02800
C 	C 	0.21430 0.61670 0.07800 -0.01800
H 	H 	0.22230 0.63470 0.06990 0.03700
C 	C 	0.27240 0.63950 0.10670 0.00500
H 	H 	0.26670 0.65290 0.09110 0.01800
N 	N 	0.29620 0.64280 0.12280 -0.15900
O 	O 	0.18628 0.14262 0.53082 -0.40900
C 	C 	0.19025 0.10291 0.56481 -0.07900
C 	C 	0.17460 0.11913 0.54026 0.36100
C 	C 	0.28210 0.12822 0.59410 0.02600
H 	H 	0.27650 0.14050 0.57770 0.02200
N 	N 	0.30802 0.13085 0.60960 -0.15300
O 	O 	0.15070 0.10758 0.53080 -0.38400
C 	C 	0.22080 0.11006 0.57310 -0.00600
H 	H 	0.23160 0.12450 0.56180 0.02900
C 	C 	0.21430 0.11670 0.57800 -0.01800
H 	H 	0.22230 0.13470 0.56990 0.03700
C 	C 	0.27240 0.13950 0.60670 0.00600
H 	H 	0.26670 0.15290 0.59110 0.01800
N 	N 	0.29620 0.14280 0.62280 -0.15900
O 	O 	0.68628 0.64262 0.53082 -0.40900
C 	C 	0.69025 0.60291 0.56481 -0.07900
C 	C 	0.67460 0.61913 0.54026 0.36100
C 	C 	0.78210 0.62822 0.59410 0.02700
H 	H 	0.77650 0.64050 0.57770 0.02100
N 	N 	0.80802 0.63085 0.60960 -0.15300
O 	O 	0.65070 0.60758 0.53080 -0.38400
C 	C 	0.72080 0.61006 0.57310 -0.00700
H 	H 	0.73160 0.62450 0.56180 0.02900
C 	C 	0.71430 0.61670 0.57800 -0.01700
H 	H 	0.72230 0.63470 0.56990 0.03700
C 	C 	0.77240 0.63950 0.60670 0.00500
H 	H 	0.76670 0.65290 0.59110 0.01800
N 	N 	0.79620 0.64280 0.62280 -0.15900
O 	O 	0.68628 0.14262 0.03082 -0.41000
C 	C 	0.69025 0.10291 0.06481 -0.07900
C 	C 	0.67460 0.11913 0.04026 0.36100
C 	C 	0.78210 0.12822 0.09410 0.02500
H 	H 	0.77650 0.14050 0.07770 0.02200
N 	N 	0.80802 0.13085 0.10960 -0.15300
O 	O 	0.65070 0.10758 0.03080 -0.38400
C 	C 	0.72080 0.11006 0.07310 -0.00600
H 	H 	0.73160 0.12450 0.06180 0.02800
C 	C 	0.71430 0.11670 0.07800 -0.01800
H 	H 	0.72230 0.13470 0.06990 0.03700
C 	C 	0.77240 0.13950 0.10670 0.00600
H 	H 	0.76670 0.15290 0.09110 0.01800
N 	N 	0.79620 0.14280 0.12280 -0.15900
O 	O 	0.81372 0.64262 0.96918 -0.40700
C 	C 	0.80975 0.60291 0.93519 -0.07800
C 	C 	0.82540 0.61913 0.95974 0.36100
C 	C 	0.71790 0.62822 0.90590 0.02700
H 	H 	0.72350 0.64050 0.92230 0.02200
N 	N 	0.69198 0.63085 0.89040 -0.15300
O 	O 	0.84930 0.60758 0.96920 -0.38300
C 	C 	0.77920 0.61006 0.92690 -0.00700
H 	H 	0.76840 0.62450 0.93820 0.03000
C 	C 	0.78570 0.61670 0.92200 -0.01700
H 	H 	0.77770 0.63470 0.93010 0.03700
C 	C 	0.72760 0.63950 0.89330 0.00400
H 	H 	0.73330 0.65290 0.90890 0.01800
N 	N 	0.70380 0.64280 0.87720 -0.15900
O 	O 	0.81372 0.14262 0.46918 -0.40900
C 	C 	0.80975 0.10291 0.43519 -0.07900
C 	C 	0.82540 0.11913 0.45974 0.36100
C 	C 	0.71790 0.12822 0.40590 0.02600
H 	H 	0.72350 0.14050 0.42230 0.02200
N 	N 	0.69198 0.13085 0.39040 -0.15300
O 	O 	0.84930 0.10758 0.46920 -0.38400
C 	C 	0.77920 0.11006 0.42690 -0.00600
H 	H 	0.76840 0.12450 0.43820 0.02900
C 	C 	0.78570 0.11670 0.42200 -0.01800
H 	H 	0.77770 0.13470 0.43010 0.03700
C 	C 	0.72760 0.13950 0.39330 0.00500
H 	H 	0.73330 0.15290 0.40890 0.01800
N 	N 	0.70380 0.14280 0.37720 -0.15900
O 	O 	0.31372 0.64262 0.46918 -0.40900
C 	C 	0.30975 0.60291 0.43519 -0.07800
C 	C 	0.32540 0.61913 0.45974 0.36100
C 	C 	0.21790 0.62822 0.40590 0.02700
H 	H 	0.22350 0.64050 0.42230 0.02200
N 	N 	0.19198 0.63085 0.39040 -0.15300
O 	O 	0.34930 0.60758 0.46920 -0.38400
C 	C 	0.27920 0.61006 0.42690 -0.00700
H 	H 	0.26840 0.62450 0.43820 0.02900
C 	C 	0.28570 0.61670 0.42200 -0.01700
H 	H 	0.27770 0.63470 0.43010 0.03700
C 	C 	0.22760 0.63950 0.39330 0.00500
H 	H 	0.23330 0.65290 0.40890 0.01800
N 	N 	0.20380 0.64280 0.37720 -0.15900
O 	O 	0.31372 0.14262 0.96918 -0.40700
C 	C 	0.30975 0.10291 0.93519 -0.07800
C 	C 	0.32540 0.11913 0.95974 0.36100
C 	C 	0.21790 0.12822 0.90590 0.02600
H 	H 	0.22350 0.14050 0.92230 0.02200
N 	N 	0.19198 0.13085 0.89040 -0.15300
O 	O 	0.34930 0.10758 0.96920 -0.38300
C 	C 	0.27920 0.11006 0.92690 -0.00700
H 	H 	0.26840 0.12450 0.93820 0.02900
C 	C 	0.28570 0.11670 0.92200 -0.01700
H 	H 	0.27770 0.13470 0.93010 0.03700
C 	C 	0.22760 0.13950 0.89330 0.00500
H 	H 	0.23330 0.15290 0.90890 0.01800
N 	N 	0.20380 0.14280 0.87720 -0.15900
O 	O 	0.81372 0.35738 0.03082 -0.41000
C 	C 	0.80975 0.39709 0.06481 -0.07900
C 	C 	0.82540 0.38087 0.04026 0.36100
C 	C 	0.71790 0.37178 0.09410 0.02600
H 	H 	0.72350 0.35950 0.07770 0.02100
N 	N 	0.69198 0.36915 0.10960 -0.15300
O 	O 	0.84930 0.39242 0.03080 -0.38400
C 	C 	0.77920 0.38994 0.07310 -0.00600
H 	H 	0.76840 0.37550 0.06180 0.02800
C 	C 	0.78570 0.38330 0.07800 -0.01800
H 	H 	0.77770 0.36530 0.06990 0.03700
C 	C 	0.72760 0.36050 0.10670 0.00500
H 	H 	0.73330 0.34710 0.09110 0.01800
N 	N 	0.70380 0.35720 0.12280 -0.15900
O 	O 	0.81372 0.85738 0.53082 -0.40900
C 	C 	0.80975 0.89709 0.56481 -0.07800
C 	C 	0.82540 0.88087 0.54026 0.36100
C 	C 	0.71790 0.87178 0.59410 0.02800
H 	H 	0.72350 0.85950 0.57770 0.02100
N 	N 	0.69198 0.86915 0.60960 -0.15300
O 	O 	0.84930 0.89242 0.53080 -0.38400
C 	C 	0.77920 0.88994 0.57310 -0.00700
H 	H 	0.76840 0.87550 0.56180 0.02900
C 	C 	0.78570 0.88330 0.57800 -0.01700
H 	H 	0.77770 0.86530 0.56990 0.03700
C 	C 	0.72760 0.86050 0.60670 0.00400
H 	H 	0.73330 0.84710 0.59110 0.01800
N 	N 	0.70380 0.85720 0.62280 -0.15900
O 	O 	0.31372 0.35738 0.53082 -0.40900
C 	C 	0.30975 0.39709 0.56481 -0.07800
C 	C 	0.32540 0.38087 0.54026 0.36100
C 	C 	0.21790 0.37178 0.59410 0.02700
H 	H 	0.22350 0.35950 0.57770 0.02200
N 	N 	0.19198 0.36915 0.60960 -0.15300
O 	O 	0.34930 0.39242 0.53080 -0.38400
C 	C 	0.27920 0.38994 0.57310 -0.00700
H 	H 	0.26840 0.37550 0.56180 0.02900
C 	C 	0.28570 0.38330 0.57800 -0.01700
H 	H 	0.27770 0.36530 0.56990 0.03700
C 	C 	0.22760 0.36050 0.60670 0.00500
H 	H 	0.23330 0.34710 0.59110 0.01800
N 	N 	0.20380 0.35720 0.62280 -0.15900
O 	O 	0.31372 0.85738 0.03082 -0.41000
C 	C 	0.30975 0.89709 0.06481 -0.07900
C 	C 	0.32540 0.88087 0.04026 0.36100
C 	C 	0.21790 0.87178 0.09410 0.02700
H 	H 	0.22350 0.85950 0.07770 0.02100
N 	N 	0.19198 0.86915 0.10960 -0.15300
O 	O 	0.34930 0.89242 0.03080 -0.38400
C 	C 	0.27920 0.88994 0.07310 -0.00700
H 	H 	0.26840 0.87550 0.06180 0.02900
C 	C 	0.28570 0.88330 0.07800 -0.01700
H 	H 	0.27770 0.86530 0.06990 0.03700
C 	C 	0.22760 0.86050 0.10670 0.00400
H 	H 	0.23330 0.84710 0.09110 0.01800
N 	N 	0.20380 0.85720 0.12280 -0.15900
O 	O 	0.96918 0.18628 0.35738 -0.40700
C 	C 	0.93519 0.19025 0.39709 -0.07800
C 	C 	0.95974 0.17460 0.38087 0.36100
C 	C 	0.90590 0.28210 0.37178 0.02700
H 	H 	0.92230 0.27650 0.35950 0.02200
N 	N 	0.89040 0.30802 0.36915 -0.15300
O 	O 	0.96920 0.15070 0.39242 -0.38300
C 	C 	0.92690 0.22080 0.38994 -0.00700
H 	H 	0.93820 0.23160 0.37550 0.03000
C 	C 	0.92200 0.21430 0.38330 -0.01700
H 	H 	0.93010 0.22230 0.36530 0.03700
C 	C 	0.89330 0.27240 0.36050 0.00400
H 	H 	0.90890 0.26670 0.34710 0.01800
N 	N 	0.87720 0.29620 0.35720 -0.15900
O 	O 	0.96918 0.68628 0.85738 -0.40700
C 	C 	0.93519 0.69025 0.89709 -0.07800
C 	C 	0.95974 0.67460 0.88087 0.36100
C 	C 	0.90590 0.78210 0.87178 0.02800
H 	H 	0.92230 0.77650 0.85950 0.02100
N 	N 	0.89040 0.80802 0.86915 -0.15300
O 	O 	0.96920 0.65070 0.89242 -0.38300
C 	C 	0.92690 0.72080 0.88994 -0.00800
H 	H 	0.93820 0.73160 0.87550 0.03000
C 	C 	0.92200 0.71430 0.88330 -0.01600
H 	H 	0.93010 0.72230 0.86530 0.03600
C 	C 	0.89330 0.77240 0.86050 0.00300
H 	H 	0.90890 0.76670 0.84710 0.01900
N 	N 	0.87720 0.79620 0.85720 -0.15900
O 	O 	0.46918 0.18628 0.85738 -0.40900
C 	C 	0.43519 0.19025 0.89709 -0.07800
C 	C 	0.45974 0.17460 0.88087 0.36100
C 	C 	0.40590 0.28210 0.87178 0.02800
H 	H 	0.42230 0.27650 0.85950 0.02100
N 	N 	0.39040 0.30802 0.86915 -0.15300
O 	O 	0.46920 0.15070 0.89242 -0.38400
C 	C 	0.42690 0.22080 0.88994 -0.00700
H 	H 	0.43820 0.23160 0.87550 0.02900
C 	C 	0.42200 0.21430 0.88330 -0.01700
H 	H 	0.43010 0.22230 0.86530 0.03700
C 	C 	0.39330 0.27240 0.86050 0.00400
H 	H 	0.40890 0.26670 0.84710 0.01800
N 	N 	0.37720 0.29620 0.85720 -0.15900
O 	O 	0.46918 0.68628 0.35738 -0.40900
C 	C 	0.43519 0.69025 0.39709 -0.07800
C 	C 	0.45974 0.67460 0.38087 0.36100
C 	C 	0.40590 0.78210 0.37178 0.02700
H 	H 	0.42230 0.77650 0.35950 0.02200
N 	N 	0.39040 0.80802 0.36915 -0.15300
O 	O 	0.46920 0.65070 0.39242 -0.38400
C 	C 	0.42690 0.72080 0.38994 -0.00700
H 	H 	0.43820 0.73160 0.37550 0.02900
C 	C 	0.42200 0.71430 0.38330 -0.01700
H 	H 	0.43010 0.72230 0.36530 0.03700
C 	C 	0.39330 0.77240 0.36050 0.00500
H 	H 	0.40890 0.76670 0.34710 0.01800
N 	N 	0.37720 0.79620 0.35720 -0.15900
O 	O 	0.03082 0.18628 0.64262 -0.41000
C 	C 	0.06481 0.19025 0.60291 -0.07900
C 	C 	0.04026 0.17460 0.61913 0.36100
C 	C 	0.09410 0.28210 0.62822 0.02600
H 	H 	0.07770 0.27650 0.64050 0.02100
N 	N 	0.10960 0.30802 0.63085 -0.15300
O 	O 	0.03080 0.15070 0.60758 -0.38400
C 	C 	0.07310 0.22080 0.61006 -0.00600
H 	H 	0.06180 0.23160 0.62450 0.02800
C 	C 	0.07800 0.21430 0.61670 -0.01800
H 	H 	0.06990 0.22230 0.63470 0.03700
C 	C 	0.10670 0.27240 0.63950 0.00500
H 	H 	0.09110 0.26670 0.65290 0.01800
N 	N 	0.12280 0.29620 0.64280 -0.15900
O 	O 	0.03082 0.68628 0.14262 -0.41000
C 	C 	0.06481 0.69025 0.10291 -0.07900
C 	C 	0.04026 0.67460 0.11913 0.36100
C 	C 	0.09410 0.78210 0.12822 0.02500
H 	H 	0.07770 0.77650 0.14050 0.02200
N 	N 	0.10960 0.80802 0.13085 -0.15300
O 	O 	0.03080 0.65070 0.10758 -0.38400
C 	C 	0.07310 0.72080 0.11006 -0.00600
H 	H 	0.06180 0.73160 0.12450 0.02800
C 	C 	0.07800 0.71430 0.11670 -0.01800
H 	H 	0.06990 0.72230 0.13470 0.03700
C 	C 	0.10670 0.77240 0.13950 0.00600
H 	H 	0.09110 0.76670 0.15290 0.01800
N 	N 	0.12280 0.79620 0.14280 -0.15900
O 	O 	0.53082 0.18628 0.14262 -0.40900
C 	C 	0.56481 0.19025 0.10291 -0.07900
C 	C 	0.54026 0.17460 0.11913 0.36100
C 	C 	0.59410 0.28210 0.12822 0.02600
H 	H 	0.57770 0.27650 0.14050 0.02200
N 	N 	0.60960 0.30802 0.13085 -0.15300
O 	O 	0.53080 0.15070 0.10758 -0.38400
C 	C 	0.57310 0.22080 0.11006 -0.00600
H 	H 	0.56180 0.23160 0.12450 0.02900
C 	C 	0.57800 0.21430 0.11670 -0.01800
H 	H 	0.56990 0.22230 0.13470 0.03700
C 	C 	0.60670 0.27240 0.13950 0.00600
H 	H 	0.59110 0.26670 0.15290 0.01800
N 	N 	0.62280 0.29620 0.14280 -0.15900
O 	O 	0.53082 0.68628 0.64262 -0.40900
C 	C 	0.56481 0.69025 0.60291 -0.07900
C 	C 	0.54026 0.67460 0.61913 0.36100
C 	C 	0.59410 0.78210 0.62822 0.02700
H 	H 	0.57770 0.77650 0.64050 0.02100
N 	N 	0.60960 0.80802 0.63085 -0.15300
O 	O 	0.53080 0.65070 0.60758 -0.38400
C 	C 	0.57310 0.72080 0.61006 -0.00700
H 	H 	0.56180 0.73160 0.62450 0.02900
C 	C 	0.57800 0.71430 0.61670 -0.01700
H 	H 	0.56990 0.72230 0.63470 0.03700
C 	C 	0.60670 0.77240 0.63950 0.00500
H 	H 	0.59110 0.76670 0.65290 0.01800
N 	N 	0.62280 0.79620 0.64280 -0.15900
O 	O 	0.96918 0.81372 0.64262 -0.40700
C 	C 	0.93519 0.80975 0.60291 -0.07800
C 	C 	0.95974 0.82540 0.61913 0.36100
C 	C 	0.90590 0.71790 0.62822 0.02700
H 	H 	0.92230 0.72350 0.64050 0.02200
N 	N 	0.89040 0.69198 0.63085 -0.15300
O 	O 	0.96920 0.84930 0.60758 -0.38300
C 	C 	0.92690 0.77920 0.61006 -0.00700
H 	H 	0.93820 0.76840 0.62450 0.03000
C 	C 	0.92200 0.78570 0.61670 -0.01700
H 	H 	0.93010 0.77770 0.63470 0.03700
C 	C 	0.89330 0.72760 0.63950 0.00400
H 	H 	0.90890 0.73330 0.65290 0.01800
N 	N 	0.87720 0.70380 0.64280 -0.15900
O 	O 	0.96918 0.31372 0.14262 -0.40700
C 	C 	0.93519 0.30975 0.10291 -0.07800
C 	C 	0.95974 0.32540 0.11913 0.36100
C 	C 	0.90590 0.21790 0.12822 0.02600
H 	H 	0.92230 0.22350 0.14050 0.02200
N 	N 	0.89040 0.19198 0.13085 -0.15300
O 	O 	0.96920 0.34930 0.10758 -0.38300
C 	C 	0.92690 0.27920 0.11006 -0.00700
H 	H 	0.93820 0.26840 0.12450 0.02900
C 	C 	0.92200 0.28570 0.11670 -0.01700
H 	H 	0.93010 0.27770 0.13470 0.03700
C 	C 	0.89330 0.22760 0.13950 0.00500
H 	H 	0.90890 0.23330 0.15290 0.01800
N 	N 	0.87720 0.20380 0.14280 -0.15900
O 	O 	0.46918 0.81372 0.14262 -0.40900
C 	C 	0.43519 0.80975 0.10291 -0.07900
C 	C 	0.45974 0.82540 0.11913 0.36100
C 	C 	0.40590 0.71790 0.12822 0.02600
H 	H 	0.42230 0.72350 0.14050 0.02200
N 	N 	0.39040 0.69198 0.13085 -0.15300
O 	O 	0.46920 0.84930 0.10758 -0.38400
C 	C 	0.42690 0.77920 0.11006 -0.00600
H 	H 	0.43820 0.76840 0.12450 0.02900
C 	C 	0.42200 0.78570 0.11670 -0.01800
H 	H 	0.43010 0.77770 0.13470 0.03700
C 	C 	0.39330 0.72760 0.13950 0.00500
H 	H 	0.40890 0.73330 0.15290 0.01800
N 	N 	0.37720 0.70380 0.14280 -0.15900
O 	O 	0.46918 0.31372 0.64262 -0.40900
C 	C 	0.43519 0.30975 0.60291 -0.07800
C 	C 	0.45974 0.32540 0.61913 0.36100
C 	C 	0.40590 0.21790 0.62822 0.02700
H 	H 	0.42230 0.22350 0.64050 0.02200
N 	N 	0.39040 0.19198 0.63085 -0.15300
O 	O 	0.46920 0.34930 0.60758 -0.38400
C 	C 	0.42690 0.27920 0.61006 -0.00700
H 	H 	0.43820 0.26840 0.62450 0.02900
C 	C 	0.42200 0.28570 0.61670 -0.01700
H 	H 	0.43010 0.27770 0.63470 0.03700
C 	C 	0.39330 0.22760 0.63950 0.00500
H 	H 	0.40890 0.23330 0.65290 0.01800
N 	N 	0.37720 0.20380 0.64280 -0.15900
O 	O 	0.03082 0.81372 0.35738 -0.41000
C 	C 	0.06481 0.80975 0.39709 -0.07900
C 	C 	0.04026 0.82540 0.38087 0.36100
C 	C 	0.09410 0.71790 0.37178 0.02600
H 	H 	0.07770 0.72350 0.35950 0.02100
N 	N 	0.10960 0.69198 0.36915 -0.15300
O 	O 	0.03080 0.84930 0.39242 -0.38400
C 	C 	0.07310 0.77920 0.38994 -0.00600
H 	H 	0.06180 0.76840 0.37550 0.02800
C 	C 	0.07800 0.78570 0.38330 -0.01800
H 	H 	0.06990 0.77770 0.36530 0.03700
C 	C 	0.10670 0.72760 0.36050 0.00500
H 	H 	0.09110 0.73330 0.34710 0.01800
N 	N 	0.12280 0.70380 0.35720 -0.15900
O 	O 	0.03082 0.31372 0.85738 -0.41000
C 	C 	0.06481 0.30975 0.89709 -0.07900
C 	C 	0.04026 0.32540 0.88087 0.36100
C 	C 	0.09410 0.21790 0.87178 0.02700
H 	H 	0.07770 0.22350 0.85950 0.02100
N 	N 	0.10960 0.19198 0.86915 -0.15300
O 	O 	0.03080 0.34930 0.89242 -0.38400
C 	C 	0.07310 0.27920 0.88994 -0.00700
H 	H 	0.06180 0.26840 0.87550 0.02900
C 	C 	0.07800 0.28570 0.88330 -0.01700
H 	H 	0.06990 0.27770 0.86530 0.03700
C 	C 	0.10670 0.22760 0.86050 0.00400
H 	H 	0.09110 0.23330 0.84710 0.01800
N 	N 	0.12280 0.20380 0.85720 -0.15900
O 	O 	0.53082 0.81372 0.85738 -0.40900
C 	C 	0.56481 0.80975 0.89709 -0.07800
C 	C 	0.54026 0.82540 0.88087 0.36100
C 	C 	0.59410 0.71790 0.87178 0.02800
H 	H 	0.57770 0.72350 0.85950 0.02100
N 	N 	0.60960 0.69198 0.86915 -0.15300
O 	O 	0.53080 0.84930 0.89242 -0.38400
C 	C 	0.57310 0.77920 0.88994 -0.00700
H 	H 	0.56180 0.76840 0.87550 0.02900
C 	C 	0.57800 0.78570 0.88330 -0.01700
H 	H 	0.56990 0.77770 0.86530 0.03700
C 	C 	0.60670 0.72760 0.86050 0.00400
H 	H 	0.59110 0.73330 0.84710 0.01800
N 	N 	0.62280 0.70380 0.85720 -0.15900
O 	O 	0.53082 0.31372 0.35738 -0.40900
C 	C 	0.56481 0.30975 0.39709 -0.07800
C 	C 	0.54026 0.32540 0.38087 0.36100
C 	C 	0.59410 0.21790 0.37178 0.02700
H 	H 	0.57770 0.22350 0.35950 0.02200
N 	N 	0.60960 0.19198 0.36915 -0.15300
O 	O 	0.53080 0.34930 0.39242 -0.38400
C 	C 	0.57310 0.27920 0.38994 -0.00700
H 	H 	0.56180 0.26840 0.37550 0.02900
C 	C 	0.57800 0.28570 0.38330 -0.01700
H 	H 	0.56990 0.27770 0.36530 0.03700
C 	C 	0.60670 0.22760 0.36050 0.00500
H 	H 	0.59110 0.23330 0.34710 0.01800
N 	N 	0.62280 0.20380 0.35720 -0.15900
O 	O 	0.96918 0.35738 0.81372 -0.40700
C 	C 	0.93519 0.39709 0.80975 -0.07800
C 	C 	0.95974 0.38087 0.82540 0.36100
C 	C 	0.90590 0.37178 0.71790 0.02700
H 	H 	0.92230 0.35950 0.72350 0.02200
N 	N 	0.89040 0.36915 0.69198 -0.15300
O 	O 	0.96920 0.39242 0.84930 -0.38300
C 	C 	0.92690 0.38994 0.77920 -0.00700
H 	H 	0.93820 0.37550 0.76840 0.03000
C 	C 	0.92200 0.38330 0.78570 -0.01700
H 	H 	0.93010 0.36530 0.77770 0.03700
C 	C 	0.89330 0.36050 0.72760 0.00400
H 	H 	0.90890 0.34710 0.73330 0.01800
N 	N 	0.87720 0.35720 0.70380 -0.15900
O 	O 	0.96918 0.85738 0.31372 -0.40700
C 	C 	0.93519 0.89709 0.30975 -0.07800
C 	C 	0.95974 0.88087 0.32540 0.36100
C 	C 	0.90590 0.87178 0.21790 0.02800
H 	H 	0.92230 0.85950 0.22350 0.02100
N 	N 	0.89040 0.86915 0.19198 -0.15300
O 	O 	0.96920 0.89242 0.34930 -0.38300
C 	C 	0.92690 0.88994 0.27920 -0.00800
H 	H 	0.93820 0.87550 0.26840 0.03000
C 	C 	0.92200 0.88330 0.28570 -0.01600
H 	H 	0.93010 0.86530 0.27770 0.03700
C 	C 	0.89330 0.86050 0.22760 0.00300
H 	H 	0.90890 0.84710 0.23330 0.01900
N 	N 	0.87720 0.85720 0.20380 -0.15900
O 	O 	0.46918 0.35738 0.31372 -0.40900
C 	C 	0.43519 0.39709 0.30975 -0.07800
C 	C 	0.45974 0.38087 0.32540 0.36100
C 	C 	0.40590 0.37178 0.21790 0.02700
H 	H 	0.42230 0.35950 0.22350 0.02200
N 	N 	0.39040 0.36915 0.19198 -0.15300
O 	O 	0.46920 0.39242 0.34930 -0.38400
C 	C 	0.42690 0.38994 0.27920 -0.00700
H 	H 	0.43820 0.37550 0.26840 0.02900
C 	C 	0.42200 0.38330 0.28570 -0.01700
H 	H 	0.43010 0.36530 0.27770 0.03700
C 	C 	0.39330 0.36050 0.22760 0.00500
H 	H 	0.40890 0.34710 0.23330 0.01800
N 	N 	0.37720 0.35720 0.20380 -0.15900
O 	O 	0.46918 0.85738 0.81372 -0.40900
C 	C 	0.43519 0.89709 0.80975 -0.07800
C 	C 	0.45974 0.88087 0.82540 0.36100
C 	C 	0.40590 0.87178 0.71790 0.02800
H 	H 	0.42230 0.85950 0.72350 0.02100
N 	N 	0.39040 0.86915 0.69198 -0.15300
O 	O 	0.46920 0.89242 0.84930 -0.38400
C 	C 	0.42690 0.88994 0.77920 -0.00700
H 	H 	0.43820 0.87550 0.76840 0.02900
C 	C 	0.42200 0.88330 0.78570 -0.01700
H 	H 	0.43010 0.86530 0.77770 0.03700
C 	C 	0.39330 0.86050 0.72760 0.00400
H 	H 	0.40890 0.84710 0.73330 0.01800
N 	N 	0.37720 0.85720 0.70380 -0.15900
O 	O 	0.03082 0.64262 0.81372 -0.41000
C 	C 	0.06481 0.60291 0.80975 -0.07900
C 	C 	0.04026 0.61913 0.82540 0.36100
C 	C 	0.09410 0.62822 0.71790 0.02600
H 	H 	0.07770 0.64050 0.72350 0.02100
N 	N 	0.10960 0.63085 0.69198 -0.15300
O 	O 	0.03080 0.60758 0.84930 -0.38400
C 	C 	0.07310 0.61006 0.77920 -0.00600
H 	H 	0.06180 0.62450 0.76840 0.02800
C 	C 	0.07800 0.61670 0.78570 -0.01800
H 	H 	0.06990 0.63470 0.77770 0.03700
C 	C 	0.10670 0.63950 0.72760 0.00500
H 	H 	0.09110 0.65290 0.73330 0.01800
N 	N 	0.12280 0.64280 0.70380 -0.15900
O 	O 	0.03082 0.14262 0.31372 -0.41000
C 	C 	0.06481 0.10291 0.30975 -0.07900
C 	C 	0.04026 0.11913 0.32540 0.36100
C 	C 	0.09410 0.12822 0.21790 0.02500
H 	H 	0.07770 0.14050 0.22350 0.02200
N 	N 	0.10960 0.13085 0.19198 -0.15300
O 	O 	0.03080 0.10758 0.34930 -0.38400
C 	C 	0.07310 0.11006 0.27920 -0.00600
H 	H 	0.06180 0.12450 0.26840 0.02800
C 	C 	0.07800 0.11670 0.28570 -0.01800
H 	H 	0.06990 0.13470 0.27770 0.03800
C 	C 	0.10670 0.13950 0.22760 0.00600
H 	H 	0.09110 0.15290 0.23330 0.01800
N 	N 	0.12280 0.14280 0.20380 -0.15900
O 	O 	0.53082 0.64262 0.31372 -0.40900
C 	C 	0.56481 0.60291 0.30975 -0.07900
C 	C 	0.54026 0.61913 0.32540 0.36100
C 	C 	0.59410 0.62822 0.21790 0.02700
H 	H 	0.57770 0.64050 0.22350 0.02200
N 	N 	0.60960 0.63085 0.19198 -0.15300
O 	O 	0.53080 0.60758 0.34930 -0.38400
C 	C 	0.57310 0.61006 0.27920 -0.00700
H 	H 	0.56180 0.62450 0.26840 0.02900
C 	C 	0.57800 0.61670 0.28570 -0.01700
H 	H 	0.56990 0.63470 0.27770 0.03700
C 	C 	0.60670 0.63950 0.22760 0.00500
H 	H 	0.59110 0.65290 0.23330 0.01800
N 	N 	0.62280 0.64280 0.20380 -0.15900
O 	O 	0.53082 0.14262 0.81372 -0.40900
C 	C 	0.56481 0.10291 0.80975 -0.07900
C 	C 	0.54026 0.11913 0.82540 0.36100
C 	C 	0.59410 0.12822 0.71790 0.02600
H 	H 	0.57770 0.14050 0.72350 0.02200
N 	N 	0.60960 0.13085 0.69198 -0.15300
O 	O 	0.53080 0.10758 0.84930 -0.38400
C 	C 	0.57310 0.11006 0.77920 -0.00600
H 	H 	0.56180 0.12450 0.76840 0.02900
C 	C 	0.57800 0.11670 0.78570 -0.01800
H 	H 	0.56990 0.13470 0.77770 0.03700
C 	C 	0.60670 0.13950 0.72760 0.00500
H 	H 	0.59110 0.15290 0.73330 0.01800
N 	N 	0.62280 0.14280 0.70380 -0.15900
O 	O 	0.96918 0.64262 0.18628 -0.40700
C 	C 	0.93519 0.60291 0.19025 -0.07800
C 	C 	0.95974 0.61913 0.17460 0.36100
C 	C 	0.90590 0.62822 0.28210 0.02700
H 	H 	0.92230 0.64050 0.27650 0.02200
N 	N 	0.89040 0.63085 0.30802 -0.15300
O 	O 	0.96920 0.60758 0.15070 -0.38300
C 	C 	0.92690 0.61006 0.22080 -0.00700
H 	H 	0.93820 0.62450 0.23160 0.03000
C 	C 	0.92200 0.61670 0.21430 -0.01700
H 	H 	0.93010 0.63470 0.22230 0.03700
C 	C 	0.89330 0.63950 0.27240 0.00400
H 	H 	0.90890 0.65290 0.26670 0.01800
N 	N 	0.87720 0.64280 0.29620 -0.15900
O 	O 	0.96918 0.14262 0.68628 -0.40700
C 	C 	0.93519 0.10291 0.69025 -0.07800
C 	C 	0.95974 0.11913 0.67460 0.36100
C 	C 	0.90590 0.12822 0.78210 0.02700
H 	H 	0.92230 0.14050 0.77650 0.02200
N 	N 	0.89040 0.13085 0.80802 -0.15300
O 	O 	0.96920 0.10758 0.65070 -0.38300
C 	C 	0.92690 0.11006 0.72080 -0.00700
H 	H 	0.93820 0.12450 0.73160 0.02900
C 	C 	0.92200 0.11670 0.71430 -0.01700
H 	H 	0.93010 0.13470 0.72230 0.03700
C 	C 	0.89330 0.13950 0.77240 0.00500
H 	H 	0.90890 0.15290 0.76670 0.01800
N 	N 	0.87720 0.14280 0.79620 -0.15900
O 	O 	0.46918 0.64262 0.68628 -0.40900
C 	C 	0.43519 0.60291 0.69025 -0.07800
C 	C 	0.45974 0.61913 0.67460 0.36100
C 	C 	0.40590 0.62822 0.78210 0.02700
H 	H 	0.42230 0.64050 0.77650 0.02200
N 	N 	0.39040 0.63085 0.80802 -0.15300
O 	O 	0.46920 0.60758 0.65070 -0.38400
C 	C 	0.42690 0.61006 0.72080 -0.00700
H 	H 	0.43820 0.62450 0.73160 0.02900
C 	C 	0.42200 0.61670 0.71430 -0.01700
H 	H 	0.43010 0.63470 0.72230 0.03700
C 	C 	0.39330 0.63950 0.77240 0.00500
H 	H 	0.40890 0.65290 0.76670 0.01800
N 	N 	0.37720 0.64280 0.79620 -0.15900
O 	O 	0.46918 0.14262 0.18628 -0.40900
C 	C 	0.43519 0.10291 0.19025 -0.07900
C 	C 	0.45974 0.11913 0.17460 0.36100
C 	C 	0.40590 0.12822 0.28210 0.02600
H 	H 	0.42230 0.14050 0.27650 0.02200
N 	N 	0.39040 0.13085 0.30802 -0.15300
O 	O 	0.46920 0.10758 0.15070 -0.38400
C 	C 	0.42690 0.11006 0.22080 -0.00600
H 	H 	0.43820 0.12450 0.23160 0.02900
C 	C 	0.42200 0.11670 0.21430 -0.01800
H 	H 	0.43010 0.13470 0.22230 0.03700
C 	C 	0.39330 0.13950 0.27240 0.00600
H 	H 	0.40890 0.15290 0.26670 0.01800
N 	N 	0.37720 0.14280 0.29620 -0.15900
O 	O 	0.03082 0.35738 0.18628 -0.41000
C 	C 	0.06481 0.39709 0.19025 -0.07900
C 	C 	0.04026 0.38087 0.17460 0.36100
C 	C 	0.09410 0.37178 0.28210 0.02600
H 	H 	0.07770 0.35950 0.27650 0.02100
N 	N 	0.10960 0.36915 0.30802 -0.15300
O 	O 	0.03080 0.39242 0.15070 -0.38400
C 	C 	0.07310 0.38994 0.22080 -0.00600
H 	H 	0.06180 0.37550 0.23160 0.02800
C 	C 	0.07800 0.38330 0.21430 -0.01800
H 	H 	0.06990 0.36530 0.22230 0.03700
C 	C 	0.10670 0.36050 0.27240 0.00500
H 	H 	0.09110 0.34710 0.26670 0.01800
N 	N 	0.12280 0.35720 0.29620 -0.15900
O 	O 	0.03082 0.85738 0.68628 -0.41000
C 	C 	0.06481 0.89709 0.69025 -0.07900
C 	C 	0.04026 0.88087 0.67460 0.36100
C 	C 	0.09410 0.87178 0.78210 0.02700
H 	H 	0.07770 0.85950 0.77650 0.02100
N 	N 	0.10960 0.86915 0.80802 -0.15300
O 	O 	0.03080 0.89242 0.65070 -0.38400
C 	C 	0.07310 0.88994 0.72080 -0.00700
H 	H 	0.06180 0.87550 0.73160 0.02900
C 	C 	0.07800 0.88330 0.71430 -0.01700
H 	H 	0.06990 0.86530 0.72230 0.03700
C 	C 	0.10670 0.86050 0.77240 0.00400
H 	H 	0.09110 0.84710 0.76670 0.01800
N 	N 	0.12280 0.85720 0.79620 -0.15900
O 	O 	0.53082 0.35738 0.68628 -0.40900
C 	C 	0.56481 0.39709 0.69025 -0.07800
C 	C 	0.54026 0.38087 0.67460 0.36100
C 	C 	0.59410 0.37178 0.78210 0.02700
H 	H 	0.57770 0.35950 0.77650 0.02200
N 	N 	0.60960 0.36915 0.80802 -0.15300
O 	O 	0.53080 0.39242 0.65070 -0.38400
C 	C 	0.57310 0.38994 0.72080 -0.00700
H 	H 	0.56180 0.37550 0.73160 0.02900
C 	C 	0.57800 0.38330 0.71430 -0.01700
H 	H 	0.56990 0.36530 0.72230 0.03700
C 	C 	0.60670 0.36050 0.77240 0.00500
H 	H 	0.59110 0.34710 0.76670 0.01800
N 	N 	0.62280 0.35720 0.79620 -0.15900
O 	O 	0.53082 0.85738 0.18628 -0.40900
C 	C 	0.56481 0.89709 0.19025 -0.07800
C 	C 	0.54026 0.88087 0.17460 0.36100
C 	C 	0.59410 0.87178 0.28210 0.02800
H 	H 	0.57770 0.85950 0.27650 0.02100
N 	N 	0.60960 0.86915 0.30802 -0.15300
O 	O 	0.53080 0.89242 0.15070 -0.38400
C 	C 	0.57310 0.88994 0.22080 -0.00700
H 	H 	0.56180 0.87550 0.23160 0.02900
C 	C 	0.57800 0.88330 0.21430 -0.01700
H 	H 	0.56990 0.86530 0.22230 0.03700
C 	C 	0.60670 0.86050 0.27240 0.00400
H 	H 	0.59110 0.84710 0.26670 0.01800
N 	N 	0.62280 0.85720 0.29620 -0.15900
O 	O 	0.35738 0.18628 0.03082 -0.41000
C 	C 	0.39709 0.19025 0.06481 -0.07900
C 	C 	0.38087 0.17460 0.04026 0.36100
C 	C 	0.37178 0.28210 0.09410 0.02600
H 	H 	0.35950 0.27650 0.07770 0.02100
N 	N 	0.36915 0.30802 0.10960 -0.15300
O 	O 	0.39242 0.15070 0.03080 -0.38400
C 	C 	0.38994 0.22080 0.07310 -0.00600
H 	H 	0.37550 0.23160 0.06180 0.02800
C 	C 	0.38330 0.21430 0.07800 -0.01800
H 	H 	0.36530 0.22230 0.06990 0.03700
C 	C 	0.36050 0.27240 0.10670 0.00500
H 	H 	0.34710 0.26670 0.09110 0.01800
N 	N 	0.35720 0.29620 0.12280 -0.15900
O 	O 	0.35738 0.68628 0.53082 -0.40900
C 	C 	0.39709 0.69025 0.56481 -0.07800
C 	C 	0.38087 0.67460 0.54026 0.36100
C 	C 	0.37178 0.78210 0.59410 0.02700
H 	H 	0.35950 0.77650 0.57770 0.02200
N 	N 	0.36915 0.80802 0.60960 -0.15300
O 	O 	0.39242 0.65070 0.53080 -0.38400
C 	C 	0.38994 0.72080 0.57310 -0.00700
H 	H 	0.37550 0.73160 0.56180 0.02900
C 	C 	0.38330 0.71430 0.57800 -0.01700
H 	H 	0.36530 0.72230 0.56990 0.03700
C 	C 	0.36050 0.77240 0.60670 0.00500
H 	H 	0.34710 0.76670 0.59110 0.01800
N 	N 	0.35720 0.79620 0.62280 -0.15900
O 	O 	0.85738 0.18628 0.53082 -0.40900
C 	C 	0.89709 0.19025 0.56481 -0.07800
C 	C 	0.88087 0.17460 0.54026 0.36100
C 	C 	0.87178 0.28210 0.59410 0.02800
H 	H 	0.85950 0.27650 0.57770 0.02100
N 	N 	0.86915 0.30802 0.60960 -0.15300
O 	O 	0.89242 0.15070 0.53080 -0.38400
C 	C 	0.88994 0.22080 0.57310 -0.00700
H 	H 	0.87550 0.23160 0.56180 0.02900
C 	C 	0.88330 0.21430 0.57800 -0.01700
H 	H 	0.86530 0.22230 0.56990 0.03700
C 	C 	0.86050 0.27240 0.60670 0.00400
H 	H 	0.84710 0.26670 0.59110 0.01800
N 	N 	0.85720 0.29620 0.62280 -0.15900
O 	O 	0.85738 0.68628 0.03082 -0.41000
C 	C 	0.89709 0.69025 0.06481 -0.07900
C 	C 	0.88087 0.67460 0.04026 0.36100
C 	C 	0.87178 0.78210 0.09410 0.02700
H 	H 	0.85950 0.77650 0.07770 0.02100
N 	N 	0.86915 0.80802 0.10960 -0.15300
O 	O 	0.89242 0.65070 0.03080 -0.38400
C 	C 	0.88994 0.72080 0.07310 -0.00700
H 	H 	0.87550 0.73160 0.06180 0.02900
C 	C 	0.88330 0.71430 0.07800 -0.01700
H 	H 	0.86530 0.72230 0.06990 0.03700
C 	C 	0.86050 0.77240 0.10670 0.00400
H 	H 	0.84710 0.76670 0.09110 0.01800
N 	N 	0.85720 0.79620 0.12280 -0.15900
O 	O 	0.64262 0.18628 0.96918 -0.40700
C 	C 	0.60291 0.19025 0.93519 -0.07800
C 	C 	0.61913 0.17460 0.95974 0.36100
C 	C 	0.62822 0.28210 0.90590 0.02700
H 	H 	0.64050 0.27650 0.92230 0.02200
N 	N 	0.63085 0.30802 0.89040 -0.15300
O 	O 	0.60758 0.15070 0.96920 -0.38300
C 	C 	0.61006 0.22080 0.92690 -0.00700
H 	H 	0.62450 0.23160 0.93820 0.03000
C 	C 	0.61670 0.21430 0.92200 -0.01700
H 	H 	0.63470 0.22230 0.93010 0.03700
C 	C 	0.63950 0.27240 0.89330 0.00400
H 	H 	0.65290 0.26670 0.90890 0.01800
N 	N 	0.64280 0.29620 0.87720 -0.15900
O 	O 	0.64262 0.68628 0.46918 -0.40900
C 	C 	0.60291 0.69025 0.43519 -0.07800
C 	C 	0.61913 0.67460 0.45974 0.36100
C 	C 	0.62822 0.78210 0.40590 0.02700
H 	H 	0.64050 0.77650 0.42230 0.02200
N 	N 	0.63085 0.80802 0.39040 -0.15300
O 	O 	0.60758 0.65070 0.46920 -0.38400
C 	C 	0.61006 0.72080 0.42690 -0.00700
H 	H 	0.62450 0.73160 0.43820 0.02900
C 	C 	0.61670 0.71430 0.42200 -0.01700
H 	H 	0.63470 0.72230 0.43010 0.03700
C 	C 	0.63950 0.77240 0.39330 0.00500
H 	H 	0.65290 0.76670 0.40890 0.01800
N 	N 	0.64280 0.79620 0.37720 -0.15900
O 	O 	0.14262 0.18628 0.46918 -0.40900
C 	C 	0.10291 0.19025 0.43519 -0.07900
C 	C 	0.11913 0.17460 0.45974 0.36100
C 	C 	0.12822 0.28210 0.40590 0.02600
H 	H 	0.14050 0.27650 0.42230 0.02200
N 	N 	0.13085 0.30802 0.39040 -0.15300
O 	O 	0.10758 0.15070 0.46920 -0.38400
C 	C 	0.11006 0.22080 0.42690 -0.00600
H 	H 	0.12450 0.23160 0.43820 0.02900
C 	C 	0.11670 0.21430 0.42200 -0.01800
H 	H 	0.13470 0.22230 0.43010 0.03700
C 	C 	0.13950 0.27240 0.39330 0.00600
H 	H 	0.15290 0.26670 0.40890 0.01800
N 	N 	0.14280 0.29620 0.37720 -0.15900
O 	O 	0.14262 0.68628 0.96918 -0.40700
C 	C 	0.10291 0.69025 0.93519 -0.07800
C 	C 	0.11913 0.67460 0.95974 0.36100
C 	C 	0.12822 0.78210 0.90590 0.02700
H 	H 	0.14050 0.77650 0.92230 0.02200
N 	N 	0.13085 0.80802 0.89040 -0.15300
O 	O 	0.10758 0.65070 0.96920 -0.38300
C 	C 	0.11006 0.72080 0.92690 -0.00700
H 	H 	0.12450 0.73160 0.93820 0.02900
C 	C 	0.11670 0.71430 0.92200 -0.01700
H 	H 	0.13470 0.72230 0.93010 0.03700
C 	C 	0.13950 0.77240 0.89330 0.00500
H 	H 	0.15290 0.76670 0.90890 0.01800
N 	N 	0.14280 0.79620 0.87720 -0.15900
O 	O 	0.64262 0.81372 0.03082 -0.41000
C 	C 	0.60291 0.80975 0.06481 -0.07900
C 	C 	0.61913 0.82540 0.04026 0.36100
C 	C 	0.62822 0.71790 0.09410 0.02600
H 	H 	0.64050 0.72350 0.07770 0.02100
N 	N 	0.63085 0.69198 0.10960 -0.15300
O 	O 	0.60758 0.84930 0.03080 -0.38400
C 	C 	0.61006 0.77920 0.07310 -0.00600
H 	H 	0.62450 0.76840 0.06180 0.02800
C 	C 	0.61670 0.78570 0.07800 -0.01800
H 	H 	0.63470 0.77770 0.06990 0.03700
C 	C 	0.63950 0.72760 0.10670 0.00500
H 	H 	0.65290 0.73330 0.09110 0.01800
N 	N 	0.64280 0.70380 0.12280 -0.15900
O 	O 	0.64262 0.31372 0.53082 -0.40900
C 	C 	0.60291 0.30975 0.56481 -0.07900
C 	C 	0.61913 0.32540 0.54026 0.36100
C 	C 	0.62822 0.21790 0.59410 0.02700
H 	H 	0.64050 0.22350 0.57770 0.02200
N 	N 	0.63085 0.19198 0.60960 -0.15300
O 	O 	0.60758 0.34930 0.53080 -0.38400
C 	C 	0.61006 0.27920 0.57310 -0.00700
H 	H 	0.62450 0.26840 0.56180 0.02900
C 	C 	0.61670 0.28570 0.57800 -0.01700
H 	H 	0.63470 0.27770 0.56990 0.03700
C 	C 	0.63950 0.22760 0.60670 0.00500
H 	H 	0.65290 0.23330 0.59110 0.01800
N 	N 	0.64280 0.20380 0.62280 -0.15900
O 	O 	0.14262 0.81372 0.53082 -0.40900
C 	C 	0.10291 0.80975 0.56481 -0.07900
C 	C 	0.11913 0.82540 0.54026 0.36100
C 	C 	0.12822 0.71790 0.59410 0.02600
H 	H 	0.14050 0.72350 0.57770 0.02200
N 	N 	0.13085 0.69198 0.60960 -0.15300
O 	O 	0.10758 0.84930 0.53080 -0.38400
C 	C 	0.11006 0.77920 0.57310 -0.00600
H 	H 	0.12450 0.76840 0.56180 0.02900
C 	C 	0.11670 0.78570 0.57800 -0.01800
H 	H 	0.13470 0.77770 0.56990 0.03700
C 	C 	0.13950 0.72760 0.60670 0.00500
H 	H 	0.15290 0.73330 0.59110 0.01800
N 	N 	0.14280 0.70380 0.62280 -0.15900
O 	O 	0.14262 0.31372 0.03082 -0.41000
C 	C 	0.10291 0.30975 0.06481 -0.07900
C 	C 	0.11913 0.32540 0.04026 0.36100
C 	C 	0.12822 0.21790 0.09410 0.02500
H 	H 	0.14050 0.22350 0.07770 0.02200
N 	N 	0.13085 0.19198 0.10960 -0.15300
O 	O 	0.10758 0.34930 0.03080 -0.38400
C 	C 	0.11006 0.27920 0.07310 -0.00600
H 	H 	0.12450 0.26840 0.06180 0.02800
C 	C 	0.11670 0.28570 0.07800 -0.01800
H 	H 	0.13470 0.27770 0.06990 0.03800
C 	C 	0.13950 0.22760 0.10670 0.00600
H 	H 	0.15290 0.23330 0.09110 0.01800
N 	N 	0.14280 0.20380 0.12280 -0.15900
O 	O 	0.35738 0.81372 0.96918 -0.40700
C 	C 	0.39709 0.80975 0.93519 -0.07800
C 	C 	0.38087 0.82540 0.95974 0.36100
C 	C 	0.37178 0.71790 0.90590 0.02700
H 	H 	0.35950 0.72350 0.92230 0.02200
N 	N 	0.36915 0.69198 0.89040 -0.15300
O 	O 	0.39242 0.84930 0.96920 -0.38300
C 	C 	0.38994 0.77920 0.92690 -0.00700
H 	H 	0.37550 0.76840 0.93820 0.03000
C 	C 	0.38330 0.78570 0.92200 -0.01700
H 	H 	0.36530 0.77770 0.93010 0.03700
C 	C 	0.36050 0.72760 0.89330 0.00400
H 	H 	0.34710 0.73330 0.90890 0.01800
N 	N 	0.35720 0.70380 0.87720 -0.15900
O 	O 	0.35738 0.31372 0.46918 -0.40900
C 	C 	0.39709 0.30975 0.43519 -0.07800
C 	C 	0.38087 0.32540 0.45974 0.36100
C 	C 	0.37178 0.21790 0.40590 0.02700
H 	H 	0.35950 0.22350 0.42230 0.02200
N 	N 	0.36915 0.19198 0.39040 -0.15300
O 	O 	0.39242 0.34930 0.46920 -0.38400
C 	C 	0.38994 0.27920 0.42690 -0.00700
H 	H 	0.37550 0.26840 0.43820 0.02900
C 	C 	0.38330 0.28570 0.42200 -0.01700
H 	H 	0.36530 0.27770 0.43010 0.03700
C 	C 	0.36050 0.22760 0.39330 0.00500
H 	H 	0.34710 0.23330 0.40890 0.01800
N 	N 	0.35720 0.20380 0.37720 -0.15900
O 	O 	0.85738 0.81372 0.46918 -0.40900
C 	C 	0.89709 0.80975 0.43519 -0.07800
C 	C 	0.88087 0.82540 0.45974 0.36100
C 	C 	0.87178 0.71790 0.40590 0.02800
H 	H 	0.85950 0.72350 0.42230 0.02100
N 	N 	0.86915 0.69198 0.39040 -0.15300
O 	O 	0.89242 0.84930 0.46920 -0.38400
C 	C 	0.88994 0.77920 0.42690 -0.00700
H 	H 	0.87550 0.76840 0.43820 0.02900
C 	C 	0.88330 0.78570 0.42200 -0.01700
H 	H 	0.86530 0.77770 0.43010 0.03700
C 	C 	0.86050 0.72760 0.39330 0.00400
H 	H 	0.84710 0.73330 0.40890 0.01800
N 	N 	0.85720 0.70380 0.37720 -0.15900
O 	O 	0.85738 0.31372 0.96918 -0.40700
C 	C 	0.89709 0.30975 0.93519 -0.07800
C 	C 	0.88087 0.32540 0.95974 0.36100
C 	C 	0.87178 0.21790 0.90590 0.02800
H 	H 	0.85950 0.22350 0.92230 0.02100
N 	N 	0.86915 0.19198 0.89040 -0.15300
O 	O 	0.89242 0.34930 0.96920 -0.38300
C 	C 	0.88994 0.27920 0.92690 -0.00800
H 	H 	0.87550 0.26840 0.93820 0.03000
C 	C 	0.88330 0.28570 0.92200 -0.01600
H 	H 	0.86530 0.27770 0.93010 0.03700
C 	C 	0.86050 0.22760 0.89330 0.00300
H 	H 	0.84710 0.23330 0.90890 0.01900
N 	N 	0.85720 0.20380 0.87720 -0.15900
O 	O 	0.18628 0.96918 0.64262 -0.40700
C 	C 	0.19025 0.93519 0.60291 -0.07800
C 	C 	0.17460 0.95974 0.61913 0.36100
C 	C 	0.28210 0.90590 0.62822 0.02700
H 	H 	0.27650 0.92230 0.64050 0.02200
N 	N 	0.30802 0.89040 0.63085 -0.15300
O 	O 	0.15070 0.96920 0.60758 -0.38300
C 	C 	0.22080 0.92690 0.61006 -0.00700
H 	H 	0.23160 0.93820 0.62450 0.03000
C 	C 	0.21430 0.92200 0.61670 -0.01700
H 	H 	0.22230 0.93010 0.63470 0.03700
C 	C 	0.27240 0.89330 0.63950 0.00400
H 	H 	0.26670 0.90890 0.65290 0.01800
N 	N 	0.29620 0.87720 0.64280 -0.15900
O 	O 	0.18628 0.46918 0.14262 -0.40900
C 	C 	0.19025 0.43519 0.10291 -0.07900
C 	C 	0.17460 0.45974 0.11913 0.36100
C 	C 	0.28210 0.40590 0.12822 0.02600
H 	H 	0.27650 0.42230 0.14050 0.02200
N 	N 	0.30802 0.39040 0.13085 -0.15300
O 	O 	0.15070 0.46920 0.10758 -0.38400
C 	C 	0.22080 0.42690 0.11006 -0.00600
H 	H 	0.23160 0.43820 0.12450 0.02900
C 	C 	0.21430 0.42200 0.11670 -0.01800
H 	H 	0.22230 0.43010 0.13470 0.03700
C 	C 	0.27240 0.39330 0.13950 0.00600
H 	H 	0.26670 0.40890 0.15290 0.01800
N 	N 	0.29620 0.37720 0.14280 -0.15900
O 	O 	0.68628 0.96918 0.14262 -0.40700
C 	C 	0.69025 0.93519 0.10291 -0.07800
C 	C 	0.67460 0.95974 0.11913 0.36100
C 	C 	0.78210 0.90590 0.12822 0.02700
H 	H 	0.77650 0.92230 0.14050 0.02200
N 	N 	0.80802 0.89040 0.13085 -0.15300
O 	O 	0.65070 0.96920 0.10758 -0.38300
C 	C 	0.72080 0.92690 0.11006 -0.00700
H 	H 	0.73160 0.93820 0.12450 0.02900
C 	C 	0.71430 0.92200 0.11670 -0.01700
H 	H 	0.72230 0.93010 0.13470 0.03700
C 	C 	0.77240 0.89330 0.13950 0.00500
H 	H 	0.76670 0.90890 0.15290 0.01800
N 	N 	0.79620 0.87720 0.14280 -0.15900
O 	O 	0.68628 0.46918 0.64262 -0.40900
C 	C 	0.69025 0.43519 0.60291 -0.07800
C 	C 	0.67460 0.45974 0.61913 0.36100
C 	C 	0.78210 0.40590 0.62822 0.02700
H 	H 	0.77650 0.42230 0.64050 0.02200
N 	N 	0.80802 0.39040 0.63085 -0.15300
O 	O 	0.65070 0.46920 0.60758 -0.38400
C 	C 	0.72080 0.42690 0.61006 -0.00700
H 	H 	0.73160 0.43820 0.62450 0.02900
C 	C 	0.71430 0.42200 0.61670 -0.01700
H 	H 	0.72230 0.43010 0.63470 0.03700
C 	C 	0.77240 0.39330 0.63950 0.00500
H 	H 	0.76670 0.40890 0.65290 0.01800
N 	N 	0.79620 0.37720 0.64280 -0.15900
O 	O 	0.18628 0.03082 0.35738 -0.41000
C 	C 	0.19025 0.06481 0.39709 -0.07900
C 	C 	0.17460 0.04026 0.38087 0.36100
C 	C 	0.28210 0.09410 0.37178 0.02600
H 	H 	0.27650 0.07770 0.35950 0.02100
N 	N 	0.30802 0.10960 0.36915 -0.15300
O 	O 	0.15070 0.03080 0.39242 -0.38400
C 	C 	0.22080 0.07310 0.38994 -0.00600
H 	H 	0.23160 0.06180 0.37550 0.02800
C 	C 	0.21430 0.07800 0.38330 -0.01800
H 	H 	0.22230 0.06990 0.36530 0.03700
C 	C 	0.27240 0.10670 0.36050 0.00500
H 	H 	0.26670 0.09110 0.34710 0.01800
N 	N 	0.29620 0.12280 0.35720 -0.15900
O 	O 	0.18628 0.53082 0.85738 -0.40900
C 	C 	0.19025 0.56481 0.89709 -0.07800
C 	C 	0.17460 0.54026 0.88087 0.36100
C 	C 	0.28210 0.59410 0.87178 0.02800
H 	H 	0.27650 0.57770 0.85950 0.02100
N 	N 	0.30802 0.60960 0.86915 -0.15300
O 	O 	0.15070 0.53080 0.89242 -0.38400
C 	C 	0.22080 0.57310 0.88994 -0.00700
H 	H 	0.23160 0.56180 0.87550 0.02900
C 	C 	0.21430 0.57800 0.88330 -0.01700
H 	H 	0.22230 0.56990 0.86530 0.03700
C 	C 	0.27240 0.60670 0.86050 0.00400
H 	H 	0.26670 0.59110 0.84710 0.01800
N 	N 	0.29620 0.62280 0.85720 -0.15900
O 	O 	0.68628 0.03082 0.85738 -0.41000
C 	C 	0.69025 0.06481 0.89709 -0.07900
C 	C 	0.67460 0.04026 0.88087 0.36100
C 	C 	0.78210 0.09410 0.87178 0.02700
H 	H 	0.77650 0.07770 0.85950 0.02100
N 	N 	0.80802 0.10960 0.86915 -0.15300
O 	O 	0.65070 0.03080 0.89242 -0.38400
C 	C 	0.72080 0.07310 0.88994 -0.00700
H 	H 	0.73160 0.06180 0.87550 0.02900
C 	C 	0.71430 0.07800 0.88330 -0.01700
H 	H 	0.72230 0.06990 0.86530 0.03700
C 	C 	0.77240 0.10670 0.86050 0.00400
H 	H 	0.76670 0.09110 0.84710 0.01800
N 	N 	0.79620 0.12280 0.85720 -0.15900
O 	O 	0.68628 0.53082 0.35738 -0.40900
C 	C 	0.69025 0.56481 0.39709 -0.07800
C 	C 	0.67460 0.54026 0.38087 0.36100
C 	C 	0.78210 0.59410 0.37178 0.02700
H 	H 	0.77650 0.57770 0.35950 0.02200
N 	N 	0.80802 0.60960 0.36915 -0.15300
O 	O 	0.65070 0.53080 0.39242 -0.38400
C 	C 	0.72080 0.57310 0.38994 -0.00700
H 	H 	0.73160 0.56180 0.37550 0.02900
C 	C 	0.71430 0.57800 0.38330 -0.01700
H 	H 	0.72230 0.56990 0.36530 0.03700
C 	C 	0.77240 0.60670 0.36050 0.00500
H 	H 	0.76670 0.59110 0.34710 0.01800
N 	N 	0.79620 0.62280 0.35720 -0.15900
O 	O 	0.81372 0.96918 0.35738 -0.40700
C 	C 	0.80975 0.93519 0.39709 -0.07800
C 	C 	0.82540 0.95974 0.38087 0.36100
C 	C 	0.71790 0.90590 0.37178 0.02700
H 	H 	0.72350 0.92230 0.35950 0.02200
N 	N 	0.69198 0.89040 0.36915 -0.15300
O 	O 	0.84930 0.96920 0.39242 -0.38300
C 	C 	0.77920 0.92690 0.38994 -0.00700
H 	H 	0.76840 0.93820 0.37550 0.03000
C 	C 	0.78570 0.92200 0.38330 -0.01700
H 	H 	0.77770 0.93010 0.36530 0.03700
C 	C 	0.72760 0.89330 0.36050 0.00400
H 	H 	0.73330 0.90890 0.34710 0.01800
N 	N 	0.70380 0.87720 0.35720 -0.15900
O 	O 	0.81372 0.46918 0.85738 -0.40900
C 	C 	0.80975 0.43519 0.89709 -0.07800
C 	C 	0.82540 0.45974 0.88087 0.36100
C 	C 	0.71790 0.40590 0.87178 0.02800
H 	H 	0.72350 0.42230 0.85950 0.02100
N 	N 	0.69198 0.39040 0.86915 -0.15300
O 	O 	0.84930 0.46920 0.89242 -0.38400
C 	C 	0.77920 0.42690 0.88994 -0.00700
H 	H 	0.76840 0.43820 0.87550 0.02900
C 	C 	0.78570 0.42200 0.88330 -0.01700
H 	H 	0.77770 0.43010 0.86530 0.03700
C 	C 	0.72760 0.39330 0.86050 0.00400
H 	H 	0.73330 0.40890 0.84710 0.01800
N 	N 	0.70380 0.37720 0.85720 -0.15900
O 	O 	0.31372 0.96918 0.85738 -0.40700
C 	C 	0.30975 0.93519 0.89709 -0.07800
C 	C 	0.32540 0.95974 0.88087 0.36100
C 	C 	0.21790 0.90590 0.87178 0.02800
H 	H 	0.22350 0.92230 0.85950 0.02100
N 	N 	0.19198 0.89040 0.86915 -0.15300
O 	O 	0.34930 0.96920 0.89242 -0.38300
C 	C 	0.27920 0.92690 0.88994 -0.00800
H 	H 	0.26840 0.93820 0.87550 0.03000
C 	C 	0.28570 0.92200 0.88330 -0.01600
H 	H 	0.27770 0.93010 0.86530 0.03700
C 	C 	0.22760 0.89330 0.86050 0.00300
H 	H 	0.23330 0.90890 0.84710 0.01900
N 	N 	0.20380 0.87720 0.85720 -0.15900
O 	O 	0.31372 0.46918 0.35738 -0.40900
C 	C 	0.30975 0.43519 0.39709 -0.07800
C 	C 	0.32540 0.45974 0.38087 0.36100
C 	C 	0.21790 0.40590 0.37178 0.02700
H 	H 	0.22350 0.42230 0.35950 0.02200
N 	N 	0.19198 0.39040 0.36915 -0.15300
O 	O 	0.34930 0.46920 0.39242 -0.38400
C 	C 	0.27920 0.42690 0.38994 -0.00700
H 	H 	0.26840 0.43820 0.37550 0.02900
C 	C 	0.28570 0.42200 0.38330 -0.01700
H 	H 	0.27770 0.43010 0.36530 0.03700
C 	C 	0.22760 0.39330 0.36050 0.00500
H 	H 	0.23330 0.40890 0.34710 0.01800
N 	N 	0.20380 0.37720 0.35720 -0.15900
O 	O 	0.81372 0.03082 0.64262 -0.41000
C 	C 	0.80975 0.06481 0.60291 -0.07900
C 	C 	0.82540 0.04026 0.61913 0.36100
C 	C 	0.71790 0.09410 0.62822 0.02600
H 	H 	0.72350 0.07770 0.64050 0.02100
N 	N 	0.69198 0.10960 0.63085 -0.15300
O 	O 	0.84930 0.03080 0.60758 -0.38400
C 	C 	0.77920 0.07310 0.61006 -0.00600
H 	H 	0.76840 0.06180 0.62450 0.02800
C 	C 	0.78570 0.07800 0.61670 -0.01800
H 	H 	0.77770 0.06990 0.63470 0.03700
C 	C 	0.72760 0.10670 0.63950 0.00500
H 	H 	0.73330 0.09110 0.65290 0.01800
N 	N 	0.70380 0.12280 0.64280 -0.15900
O 	O 	0.81372 0.53082 0.14262 -0.40900
C 	C 	0.80975 0.56481 0.10291 -0.07900
C 	C 	0.82540 0.54026 0.11913 0.36100
C 	C 	0.71790 0.59410 0.12822 0.02600
H 	H 	0.72350 0.57770 0.14050 0.02200
N 	N 	0.69198 0.60960 0.13085 -0.15300
O 	O 	0.84930 0.53080 0.10758 -0.38400
C 	C 	0.77920 0.57310 0.11006 -0.00600
H 	H 	0.76840 0.56180 0.12450 0.02900
C 	C 	0.78570 0.57800 0.11670 -0.01800
H 	H 	0.77770 0.56990 0.13470 0.03700
C 	C 	0.72760 0.60670 0.13950 0.00500
H 	H 	0.73330 0.59110 0.15290 0.01800
N 	N 	0.70380 0.62280 0.14280 -0.15900
O 	O 	0.31372 0.03082 0.14262 -0.41000
C 	C 	0.30975 0.06481 0.10291 -0.07900
C 	C 	0.32540 0.04026 0.11913 0.36100
C 	C 	0.21790 0.09410 0.12822 0.02500
H 	H 	0.22350 0.07770 0.14050 0.02200
N 	N 	0.19198 0.10960 0.13085 -0.15300
O 	O 	0.34930 0.03080 0.10758 -0.38400
C 	C 	0.27920 0.07310 0.11006 -0.00600
H 	H 	0.26840 0.06180 0.12450 0.02800
C 	C 	0.28570 0.07800 0.11670 -0.01800
H 	H 	0.27770 0.06990 0.13470 0.03800
C 	C 	0.22760 0.10670 0.13950 0.00600
H 	H 	0.23330 0.09110 0.15290 0.01800
N 	N 	0.20380 0.12280 0.14280 -0.15900
O 	O 	0.31372 0.53082 0.64262 -0.40900
C 	C 	0.30975 0.56481 0.60291 -0.07900
C 	C 	0.32540 0.54026 0.61913 0.36100
C 	C 	0.21790 0.59410 0.62822 0.02700
H 	H 	0.22350 0.57770 0.64050 0.02200
N 	N 	0.19198 0.60960 0.63085 -0.15300
O 	O 	0.34930 0.53080 0.60758 -0.38400
C 	C 	0.27920 0.57310 0.61006 -0.00700
H 	H 	0.26840 0.56180 0.62450 0.02900
C 	C 	0.28570 0.57800 0.61670 -0.01700
H 	H 	0.27770 0.56990 0.63470 0.03700
C 	C 	0.22760 0.60670 0.63950 0.00500
H 	H 	0.23330 0.59110 0.65290 0.01800
N 	N 	0.20380 0.62280 0.64280 -0.15900
O 	O 	0.64262 0.03082 0.81372 -0.41000
C 	C 	0.60291 0.06481 0.80975 -0.07900
C 	C 	0.61913 0.04026 0.82540 0.36100
C 	C 	0.62822 0.09410 0.71790 0.02600
H 	H 	0.64050 0.07770 0.72350 0.02100
N 	N 	0.63085 0.10960 0.69198 -0.15300
O 	O 	0.60758 0.03080 0.84930 -0.38400
C 	C 	0.61006 0.07310 0.77920 -0.00600
H 	H 	0.62450 0.06180 0.76840 0.02800
C 	C 	0.61670 0.07800 0.78570 -0.01800
H 	H 	0.63470 0.06990 0.77770 0.03700
C 	C 	0.63950 0.10670 0.72760 0.00500
H 	H 	0.65290 0.09110 0.73330 0.01800
N 	N 	0.64280 0.12280 0.70380 -0.15900
O 	O 	0.64262 0.53082 0.31372 -0.40900
C 	C 	0.60291 0.56481 0.30975 -0.07900
C 	C 	0.61913 0.54026 0.32540 0.36100
C 	C 	0.62822 0.59410 0.21790 0.02700
H 	H 	0.64050 0.57770 0.22350 0.02200
N 	N 	0.63085 0.60960 0.19198 -0.15300
O 	O 	0.60758 0.53080 0.34930 -0.38400
C 	C 	0.61006 0.57310 0.27920 -0.00700
H 	H 	0.62450 0.56180 0.26840 0.02900
C 	C 	0.61670 0.57800 0.28570 -0.01700
H 	H 	0.63470 0.56990 0.27770 0.03700
C 	C 	0.63950 0.60670 0.22760 0.00500
H 	H 	0.65290 0.59110 0.23330 0.01800
N 	N 	0.64280 0.62280 0.20380 -0.15900
O 	O 	0.14262 0.03082 0.31372 -0.41000
C 	C 	0.10291 0.06481 0.30975 -0.07900
C 	C 	0.11913 0.04026 0.32540 0.36100
C 	C 	0.12822 0.09410 0.21790 0.02500
H 	H 	0.14050 0.07770 0.22350 0.02200
N 	N 	0.13085 0.10960 0.19198 -0.15300
O 	O 	0.10758 0.03080 0.34930 -0.38400
C 	C 	0.11006 0.07310 0.27920 -0.00600
H 	H 	0.12450 0.06180 0.26840 0.02800
C 	C 	0.11670 0.07800 0.28570 -0.01800
H 	H 	0.13470 0.06990 0.27770 0.03800
C 	C 	0.13950 0.10670 0.22760 0.00600
H 	H 	0.15290 0.09110 0.23330 0.01800
N 	N 	0.14280 0.12280 0.20380 -0.15900
O 	O 	0.14262 0.53082 0.81372 -0.40900
C 	C 	0.10291 0.56481 0.80975 -0.07900
C 	C 	0.11913 0.54026 0.82540 0.36100
C 	C 	0.12822 0.59410 0.71790 0.02600
H 	H 	0.14050 0.57770 0.72350 0.02200
N 	N 	0.13085 0.60960 0.69198 -0.15300
O 	O 	0.10758 0.53080 0.84930 -0.38400
C 	C 	0.11006 0.57310 0.77920 -0.00600
H 	H 	0.12450 0.56180 0.76840 0.02900
C 	C 	0.11670 0.57800 0.78570 -0.01800
H 	H 	0.13470 0.56990 0.77770 0.03700
C 	C 	0.13950 0.60670 0.72760 0.00500
H 	H 	0.15290 0.59110 0.73330 0.01800
N 	N 	0.14280 0.62280 0.70380 -0.15900
O 	O 	0.35738 0.96918 0.81372 -0.40700
C 	C 	0.39709 0.93519 0.80975 -0.07800
C 	C 	0.38087 0.95974 0.82540 0.36100
C 	C 	0.37178 0.90590 0.71790 0.02700
H 	H 	0.35950 0.92230 0.72350 0.02200
N 	N 	0.36915 0.89040 0.69198 -0.15300
O 	O 	0.39242 0.96920 0.84930 -0.38300
C 	C 	0.38994 0.92690 0.77920 -0.00700
H 	H 	0.37550 0.93820 0.76840 0.03000
C 	C 	0.38330 0.92200 0.78570 -0.01700
H 	H 	0.36530 0.93010 0.77770 0.03700
C 	C 	0.36050 0.89330 0.72760 0.00400
H 	H 	0.34710 0.90890 0.73330 0.01800
N 	N 	0.35720 0.87720 0.70380 -0.15900
O 	O 	0.35738 0.46918 0.31372 -0.40900
C 	C 	0.39709 0.43519 0.30975 -0.07800
C 	C 	0.38087 0.45974 0.32540 0.36100
C 	C 	0.37178 0.40590 0.21790 0.02700
H 	H 	0.35950 0.42230 0.22350 0.02200
N 	N 	0.36915 0.39040 0.19198 -0.15300
O 	O 	0.39242 0.46920 0.34930 -0.38400
C 	C 	0.38994 0.42690 0.27920 -0.00700
H 	H 	0.37550 0.43820 0.26840 0.02900
C 	C 	0.38330 0.42200 0.28570 -0.01700
H 	H 	0.36530 0.43010 0.27770 0.03700
C 	C 	0.36050 0.39330 0.22760 0.00500
H 	H 	0.34710 0.40890 0.23330 0.01800
N 	N 	0.35720 0.37720 0.20380 -0.15900
O 	O 	0.85738 0.96918 0.31372 -0.40700
C 	C 	0.89709 0.93519 0.30975 -0.07800
C 	C 	0.88087 0.95974 0.32540 0.36100
C 	C 	0.87178 0.90590 0.21790 0.02800
H 	H 	0.85950 0.92230 0.22350 0.02100
N 	N 	0.86915 0.89040 0.19198 -0.15300
O 	O 	0.89242 0.96920 0.34930 -0.38300
C 	C 	0.88994 0.92690 0.27920 -0.00800
H 	H 	0.87550 0.93820 0.26840 0.03000
C 	C 	0.88330 0.92200 0.28570 -0.01600
H 	H 	0.86530 0.93010 0.27770 0.03700
C 	C 	0.86050 0.89330 0.22760 0.00300
H 	H 	0.84710 0.90890 0.23330 0.01900
N 	N 	0.85720 0.87720 0.20380 -0.15900
O 	O 	0.85738 0.46918 0.81372 -0.40900
C 	C 	0.89709 0.43519 0.80975 -0.07800
C 	C 	0.88087 0.45974 0.82540 0.36100
C 	C 	0.87178 0.40590 0.71790 0.02800
H 	H 	0.85950 0.42230 0.72350 0.02100
N 	N 	0.86915 0.39040 0.69198 -0.15300
O 	O 	0.89242 0.46920 0.84930 -0.38400
C 	C 	0.88994 0.42690 0.77920 -0.00700
H 	H 	0.87550 0.43820 0.76840 0.02900
C 	C 	0.88330 0.42200 0.78570 -0.01700
H 	H 	0.86530 0.43010 0.77770 0.03700
C 	C 	0.86050 0.39330 0.72760 0.00400
H 	H 	0.84710 0.40890 0.73330 0.01800
N 	N 	0.85720 0.37720 0.70380 -0.15900
O 	O 	0.35738 0.03082 0.18628 -0.41000
C 	C 	0.39709 0.06481 0.19025 -0.07900
C 	C 	0.38087 0.04026 0.17460 0.36100
C 	C 	0.37178 0.09410 0.28210 0.02600
H 	H 	0.35950 0.07770 0.27650 0.02100
N 	N 	0.36915 0.10960 0.30802 -0.15300
O 	O 	0.39242 0.03080 0.15070 -0.38400
C 	C 	0.38994 0.07310 0.22080 -0.00600
H 	H 	0.37550 0.06180 0.23160 0.02800
C 	C 	0.38330 0.07800 0.21430 -0.01800
H 	H 	0.36530 0.06990 0.22230 0.03700
C 	C 	0.36050 0.10670 0.27240 0.00500
H 	H 	0.34710 0.09110 0.26670 0.01800
N 	N 	0.35720 0.12280 0.29620 -0.15900
O 	O 	0.35738 0.53082 0.68628 -0.40900
C 	C 	0.39709 0.56481 0.69025 -0.07800
C 	C 	0.38087 0.54026 0.67460 0.36100
C 	C 	0.37178 0.59410 0.78210 0.02700
H 	H 	0.35950 0.57770 0.77650 0.02200
N 	N 	0.36915 0.60960 0.80802 -0.15300
O 	O 	0.39242 0.53080 0.65070 -0.38400
C 	C 	0.38994 0.57310 0.72080 -0.00700
H 	H 	0.37550 0.56180 0.73160 0.02900
C 	C 	0.38330 0.57800 0.71430 -0.01700
H 	H 	0.36530 0.56990 0.72230 0.03700
C 	C 	0.36050 0.60670 0.77240 0.00500
H 	H 	0.34710 0.59110 0.76670 0.01800
N 	N 	0.35720 0.62280 0.79620 -0.15900
O 	O 	0.85738 0.03082 0.68628 -0.41000
C 	C 	0.89709 0.06481 0.69025 -0.07900
C 	C 	0.88087 0.04026 0.67460 0.36100
C 	C 	0.87178 0.09410 0.78210 0.02700
H 	H 	0.85950 0.07770 0.77650 0.02100
N 	N 	0.86915 0.10960 0.80802 -0.15300
O 	O 	0.89242 0.03080 0.65070 -0.38400
C 	C 	0.88994 0.07310 0.72080 -0.00700
H 	H 	0.87550 0.06180 0.73160 0.02900
C 	C 	0.88330 0.07800 0.71430 -0.01700
H 	H 	0.86530 0.06990 0.72230 0.03700
C 	C 	0.86050 0.10670 0.77240 0.00400
H 	H 	0.84710 0.09110 0.76670 0.01800
N 	N 	0.85720 0.12280 0.79620 -0.15900
O 	O 	0.85738 0.53082 0.18628 -0.40900
C 	C 	0.89709 0.56481 0.19025 -0.07800
C 	C 	0.88087 0.54026 0.17460 0.36100
C 	C 	0.87178 0.59410 0.28210 0.02800
H 	H 	0.85950 0.57770 0.27650 0.02100
N 	N 	0.86915 0.60960 0.30802 -0.15300
O 	O 	0.89242 0.53080 0.15070 -0.38400
C 	C 	0.88994 0.57310 0.22080 -0.00700
H 	H 	0.87550 0.56180 0.23160 0.02900
C 	C 	0.88330 0.57800 0.21430 -0.01700
H 	H 	0.86530 0.56990 0.22230 0.03700
C 	C 	0.86050 0.60670 0.27240 0.00400
H 	H 	0.84710 0.59110 0.26670 0.01800
N 	N 	0.85720 0.62280 0.29620 -0.15900
O 	O 	0.64262 0.96918 0.18628 -0.40700
C 	C 	0.60291 0.93519 0.19025 -0.07800
C 	C 	0.61913 0.95974 0.17460 0.36100
C 	C 	0.62822 0.90590 0.28210 0.02700
H 	H 	0.64050 0.92230 0.27650 0.02200
N 	N 	0.63085 0.89040 0.30802 -0.15300
O 	O 	0.60758 0.96920 0.15070 -0.38300
C 	C 	0.61006 0.92690 0.22080 -0.00700
H 	H 	0.62450 0.93820 0.23160 0.03000
C 	C 	0.61670 0.92200 0.21430 -0.01700
H 	H 	0.63470 0.93010 0.22230 0.03700
C 	C 	0.63950 0.89330 0.27240 0.00400
H 	H 	0.65290 0.90890 0.26670 0.01800
N 	N 	0.64280 0.87720 0.29620 -0.15900
O 	O 	0.64262 0.46918 0.68628 -0.40900
C 	C 	0.60291 0.43519 0.69025 -0.07800
C 	C 	0.61913 0.45974 0.67460 0.36100
C 	C 	0.62822 0.40590 0.78210 0.02700
H 	H 	0.64050 0.42230 0.77650 0.02200
N 	N 	0.63085 0.39040 0.80802 -0.15300
O 	O 	0.60758 0.46920 0.65070 -0.38400
C 	C 	0.61006 0.42690 0.72080 -0.00700
H 	H 	0.62450 0.43820 0.73160 0.02900
C 	C 	0.61670 0.42200 0.71430 -0.01700
H 	H 	0.63470 0.43010 0.72230 0.03700
C 	C 	0.63950 0.39330 0.77240 0.00500
H 	H 	0.65290 0.40890 0.76670 0.01800
N 	N 	0.64280 0.37720 0.79620 -0.15900
O 	O 	0.14262 0.96918 0.68628 -0.40700
C 	C 	0.10291 0.93519 0.69025 -0.07800
C 	C 	0.11913 0.95974 0.67460 0.36100
C 	C 	0.12822 0.90590 0.78210 0.02700
H 	H 	0.14050 0.92230 0.77650 0.02200
N 	N 	0.13085 0.89040 0.80802 -0.15300
O 	O 	0.10758 0.96920 0.65070 -0.38300
C 	C 	0.11006 0.92690 0.72080 -0.00700
H 	H 	0.12450 0.93820 0.73160 0.02900
C 	C 	0.11670 0.92200 0.71430 -0.01700
H 	H 	0.13470 0.93010 0.72230 0.03700
C 	C 	0.13950 0.89330 0.77240 0.00500
H 	H 	0.15290 0.90890 0.76670 0.01800
N 	N 	0.14280 0.87720 0.79620 -0.15900
O 	O 	0.14262 0.46918 0.18628 -0.40900
C 	C 	0.10291 0.43519 0.19025 -0.07900
C 	C 	0.11913 0.45974 0.17460 0.36100
C 	C 	0.12822 0.40590 0.28210 0.02600
H 	H 	0.14050 0.42230 0.27650 0.02200
N 	N 	0.13085 0.39040 0.30802 -0.15300
O 	O 	0.10758 0.46920 0.15070 -0.38400
C 	C 	0.11006 0.42690 0.22080 -0.00600
H 	H 	0.12450 0.43820 0.23160 0.02900
C 	C 	0.11670 0.42200 0.21430 -0.01800
H 	H 	0.13470 0.43010 0.22230 0.03700
C 	C 	0.13950 0.39330 0.27240 0.00600
H 	H 	0.15290 0.40890 0.26670 0.01800
N 	N 	0.14280 0.37720 0.29620 -0.15900
O 	O 	0.81372 0.64262 0.03082 -0.41000
C 	C 	0.80975 0.60291 0.06481 -0.07900
C 	C 	0.82540 0.61913 0.04026 0.36100
C 	C 	0.71790 0.62822 0.09410 0.02600
H 	H 	0.72350 0.64050 0.07770 0.02100
N 	N 	0.69198 0.63085 0.10960 -0.15300
O 	O 	0.84930 0.60758 0.03080 -0.38400
C 	C 	0.77920 0.61006 0.07310 -0.00600
H 	H 	0.76840 0.62450 0.06180 0.02800
C 	C 	0.78570 0.61670 0.07800 -0.01800
H 	H 	0.77770 0.63470 0.06990 0.03700
C 	C 	0.72760 0.63950 0.10670 0.00500
H 	H 	0.73330 0.65290 0.09110 0.01800
N 	N 	0.70380 0.64280 0.12280 -0.15900
O 	O 	0.81372 0.14262 0.53082 -0.40900
C 	C 	0.80975 0.10291 0.56481 -0.07900
C 	C 	0.82540 0.11913 0.54026 0.36100
C 	C 	0.71790 0.12822 0.59410 0.02600
H 	H 	0.72350 0.14050 0.57770 0.02200
N 	N 	0.69198 0.13085 0.60960 -0.15300
O 	O 	0.84930 0.10758 0.53080 -0.38400
C 	C 	0.77920 0.11006 0.57310 -0.00600
H 	H 	0.76840 0.12450 0.56180 0.02900
C 	C 	0.78570 0.11670 0.57800 -0.01800
H 	H 	0.77770 0.13470 0.56990 0.03700
C 	C 	0.72760 0.13950 0.60670 0.00500
H 	H 	0.73330 0.15290 0.59110 0.01800
N 	N 	0.70380 0.14280 0.62280 -0.15900
O 	O 	0.31372 0.64262 0.53082 -0.40900
C 	C 	0.30975 0.60291 0.56481 -0.07900
C 	C 	0.32540 0.61913 0.54026 0.36100
C 	C 	0.21790 0.62822 0.59410 0.02700
H 	H 	0.22350 0.64050 0.57770 0.02200
N 	N 	0.19198 0.63085 0.60960 -0.15300
O 	O 	0.34930 0.60758 0.53080 -0.38400
C 	C 	0.27920 0.61006 0.57310 -0.00700
H 	H 	0.26840 0.62450 0.56180 0.02900
C 	C 	0.28570 0.61670 0.57800 -0.01700
H 	H 	0.27770 0.63470 0.56990 0.03700
C 	C 	0.22760 0.63950 0.60670 0.00500
H 	H 	0.23330 0.65290 0.59110 0.01800
N 	N 	0.20380 0.64280 0.62280 -0.15900
O 	O 	0.31372 0.14262 0.03082 -0.41000
C 	C 	0.30975 0.10291 0.06481 -0.07900
C 	C 	0.32540 0.11913 0.04026 0.36100
C 	C 	0.21790 0.12822 0.09410 0.02500
H 	H 	0.22350 0.14050 0.07770 0.02200
N 	N 	0.19198 0.13085 0.10960 -0.15300
O 	O 	0.34930 0.10758 0.03080 -0.38400
C 	C 	0.27920 0.11006 0.07310 -0.00600
H 	H 	0.26840 0.12450 0.06180 0.02800
C 	C 	0.28570 0.11670 0.07800 -0.01800
H 	H 	0.27770 0.13470 0.06990 0.03800
C 	C 	0.22760 0.13950 0.10670 0.00600
H 	H 	0.23330 0.15290 0.09110 0.01800
N 	N 	0.20380 0.14280 0.12280 -0.15900
O 	O 	0.81372 0.35738 0.96918 -0.40700
C 	C 	0.80975 0.39709 0.93519 -0.07800
C 	C 	0.82540 0.38087 0.95974 0.36100
C 	C 	0.71790 0.37178 0.90590 0.02700
H 	H 	0.72350 0.35950 0.92230 0.02200
N 	N 	0.69198 0.36915 0.89040 -0.15300
O 	O 	0.84930 0.39242 0.96920 -0.38300
C 	C 	0.77920 0.38994 0.92690 -0.00700
H 	H 	0.76840 0.37550 0.93820 0.03000
C 	C 	0.78570 0.38330 0.92200 -0.01700
H 	H 	0.77770 0.36530 0.93010 0.03700
C 	C 	0.72760 0.36050 0.89330 0.00400
H 	H 	0.73330 0.34710 0.90890 0.01800
N 	N 	0.70380 0.35720 0.87720 -0.15900
O 	O 	0.81372 0.85738 0.46918 -0.40900
C 	C 	0.80975 0.89709 0.43519 -0.07800
C 	C 	0.82540 0.88087 0.45974 0.36100
C 	C 	0.71790 0.87178 0.40590 0.02800
H 	H 	0.72350 0.85950 0.42230 0.02100
N 	N 	0.69198 0.86915 0.39040 -0.15300
O 	O 	0.84930 0.89242 0.46920 -0.38400
C 	C 	0.77920 0.88994 0.42690 -0.00700
H 	H 	0.76840 0.87550 0.43820 0.02900
C 	C 	0.78570 0.88330 0.42200 -0.01700
H 	H 	0.77770 0.86530 0.43010 0.03700
C 	C 	0.72760 0.86050 0.39330 0.00400
H 	H 	0.73330 0.84710 0.40890 0.01800
N 	N 	0.70380 0.85720 0.37720 -0.15900
O 	O 	0.31372 0.35738 0.46918 -0.40900
C 	C 	0.30975 0.39709 0.43519 -0.07800
C 	C 	0.32540 0.38087 0.45974 0.36100
C 	C 	0.21790 0.37178 0.40590 0.02700
H 	H 	0.22350 0.35950 0.42230 0.02200
N 	N 	0.19198 0.36915 0.39040 -0.15300
O 	O 	0.34930 0.39242 0.46920 -0.38400
C 	C 	0.27920 0.38994 0.42690 -0.00700
H 	H 	0.26840 0.37550 0.43820 0.02900
C 	C 	0.28570 0.38330 0.42200 -0.01700
H 	H 	0.27770 0.36530 0.43010 0.03700
C 	C 	0.22760 0.36050 0.39330 0.00500
H 	H 	0.23330 0.34710 0.40890 0.01800
N 	N 	0.20380 0.35720 0.37720 -0.15900
O 	O 	0.31372 0.85738 0.96918 -0.40700
C 	C 	0.30975 0.89709 0.93519 -0.07800
C 	C 	0.32540 0.88087 0.95974 0.36100
C 	C 	0.21790 0.87178 0.90590 0.02800
H 	H 	0.22350 0.85950 0.92230 0.02100
N 	N 	0.19198 0.86915 0.89040 -0.15300
O 	O 	0.34930 0.89242 0.96920 -0.38300
C 	C 	0.27920 0.88994 0.92690 -0.00800
H 	H 	0.26840 0.87550 0.93820 0.03000
C 	C 	0.28570 0.88330 0.92200 -0.01600
H 	H 	0.27770 0.86530 0.93010 0.03700
C 	C 	0.22760 0.86050 0.89330 0.00300
H 	H 	0.23330 0.84710 0.90890 0.01900
N 	N 	0.20380 0.85720 0.87720 -0.15900
O 	O 	0.18628 0.35738 0.03082 -0.41000
C 	C 	0.19025 0.39709 0.06481 -0.07900
C 	C 	0.17460 0.38087 0.04026 0.36100
C 	C 	0.28210 0.37178 0.09410 0.02600
H 	H 	0.27650 0.35950 0.07770 0.02100
N 	N 	0.30802 0.36915 0.10960 -0.15300
O 	O 	0.15070 0.39242 0.03080 -0.38400
C 	C 	0.22080 0.38994 0.07310 -0.00600
H 	H 	0.23160 0.37550 0.06180 0.02800
C 	C 	0.21430 0.38330 0.07800 -0.01800
H 	H 	0.22230 0.36530 0.06990 0.03700
C 	C 	0.27240 0.36050 0.10670 0.00500
H 	H 	0.26670 0.34710 0.09110 0.01800
N 	N 	0.29620 0.35720 0.12280 -0.15900
O 	O 	0.18628 0.85738 0.53082 -0.40900
C 	C 	0.19025 0.89709 0.56481 -0.07800
C 	C 	0.17460 0.88087 0.54026 0.36100
C 	C 	0.28210 0.87178 0.59410 0.02800
H 	H 	0.27650 0.85950 0.57770 0.02100
N 	N 	0.30802 0.86915 0.60960 -0.15300
O 	O 	0.15070 0.89242 0.53080 -0.38400
C 	C 	0.22080 0.88994 0.57310 -0.00700
H 	H 	0.23160 0.87550 0.56180 0.02900
C 	C 	0.21430 0.88330 0.57800 -0.01700
H 	H 	0.22230 0.86530 0.56990 0.03700
C 	C 	0.27240 0.86050 0.60670 0.00400
H 	H 	0.26670 0.84710 0.59110 0.01800
N 	N 	0.29620 0.85720 0.62280 -0.15900
O 	O 	0.68628 0.35738 0.53082 -0.40900
C 	C 	0.69025 0.39709 0.56481 -0.07800
C 	C 	0.67460 0.38087 0.54026 0.36100
C 	C 	0.78210 0.37178 0.59410 0.02700
H 	H 	0.77650 0.35950 0.57770 0.02200
N 	N 	0.80802 0.36915 0.60960 -0.15300
O 	O 	0.65070 0.39242 0.53080 -0.38400
C 	C 	0.72080 0.38994 0.57310 -0.00700
H 	H 	0.73160 0.37550 0.56180 0.02900
C 	C 	0.71430 0.38330 0.57800 -0.01700
H 	H 	0.72230 0.36530 0.56990 0.03700
C 	C 	0.77240 0.36050 0.60670 0.00500
H 	H 	0.76670 0.34710 0.59110 0.01800
N 	N 	0.79620 0.35720 0.62280 -0.15900
O 	O 	0.68628 0.85738 0.03082 -0.41000
C 	C 	0.69025 0.89709 0.06481 -0.07900
C 	C 	0.67460 0.88087 0.04026 0.36100
C 	C 	0.78210 0.87178 0.09410 0.02700
H 	H 	0.77650 0.85950 0.07770 0.02100
N 	N 	0.80802 0.86915 0.10960 -0.15300
O 	O 	0.65070 0.89242 0.03080 -0.38400
C 	C 	0.72080 0.88994 0.07310 -0.00700
H 	H 	0.73160 0.87550 0.06180 0.02900
C 	C 	0.71430 0.88330 0.07800 -0.01700
H 	H 	0.72230 0.86530 0.06990 0.03700
C 	C 	0.77240 0.86050 0.10670 0.00400
H 	H 	0.76670 0.84710 0.09110 0.01800
N 	N 	0.79620 0.85720 0.12280 -0.15900
O 	O 	0.18628 0.64262 0.96918 -0.40700
C 	C 	0.19025 0.60291 0.93519 -0.07800
C 	C 	0.17460 0.61913 0.95974 0.36100
C 	C 	0.28210 0.62822 0.90590 0.02700
H 	H 	0.27650 0.64050 0.92230 0.02200
N 	N 	0.30802 0.63085 0.89040 -0.15300
O 	O 	0.15070 0.60758 0.96920 -0.38300
C 	C 	0.22080 0.61006 0.92690 -0.00700
H 	H 	0.23160 0.62450 0.93820 0.03000
C 	C 	0.21430 0.61670 0.92200 -0.01700
H 	H 	0.22230 0.63470 0.93010 0.03700
C 	C 	0.27240 0.63950 0.89330 0.00400
H 	H 	0.26670 0.65290 0.90890 0.01800
N 	N 	0.29620 0.64280 0.87720 -0.15900
O 	O 	0.18628 0.14262 0.46918 -0.40900
C 	C 	0.19025 0.10291 0.43519 -0.07900
C 	C 	0.17460 0.11913 0.45974 0.36100
C 	C 	0.28210 0.12822 0.40590 0.02600
H 	H 	0.27650 0.14050 0.42230 0.02200
N 	N 	0.30802 0.13085 0.39040 -0.15300
O 	O 	0.15070 0.10758 0.46920 -0.38400
C 	C 	0.22080 0.11006 0.42690 -0.00600
H 	H 	0.23160 0.12450 0.43820 0.02900
C 	C 	0.21430 0.11670 0.42200 -0.01800
H 	H 	0.22230 0.13470 0.43010 0.03700
C 	C 	0.27240 0.13950 0.39330 0.00600
H 	H 	0.26670 0.15290 0.40890 0.01800
N 	N 	0.29620 0.14280 0.37720 -0.15900
O 	O 	0.68628 0.64262 0.46918 -0.40900
C 	C 	0.69025 0.60291 0.43519 -0.07800
C 	C 	0.67460 0.61913 0.45974 0.36100
C 	C 	0.78210 0.62822 0.40590 0.02700
H 	H 	0.77650 0.64050 0.42230 0.02200
N 	N 	0.80802 0.63085 0.39040 -0.15300
O 	O 	0.65070 0.60758 0.46920 -0.38400
C 	C 	0.72080 0.61006 0.42690 -0.00700
H 	H 	0.73160 0.62450 0.43820 0.02900
C 	C 	0.71430 0.61670 0.42200 -0.01700
H 	H 	0.72230 0.63470 0.43010 0.03700
C 	C 	0.77240 0.63950 0.39330 0.00500
H 	H 	0.76670 0.65290 0.40890 0.01800
N 	N 	0.79620 0.64280 0.37720 -0.15900
O 	O 	0.68628 0.14262 0.96918 -0.40700
C 	C 	0.69025 0.10291 0.93519 -0.07800
C 	C 	0.67460 0.11913 0.95974 0.36100
C 	C 	0.78210 0.12822 0.90590 0.02700
H 	H 	0.77650 0.14050 0.92230 0.02200
N 	N 	0.80802 0.13085 0.89040 -0.15300
O 	O 	0.65070 0.10758 0.96920 -0.38300
C 	C 	0.72080 0.11006 0.92690 -0.00700
H 	H 	0.73160 0.12450 0.93820 0.02900
C 	C 	0.71430 0.11670 0.92200 -0.01700
H 	H 	0.72230 0.13470 0.93010 0.03700
C 	C 	0.77240 0.13950 0.89330 0.00500
H 	H 	0.76670 0.15290 0.90890 0.01800
N 	N 	0.79620 0.14280 0.87720 -0.15900
O 	O 	0.03082 0.81372 0.64262 -0.41000
C 	C 	0.06481 0.80975 0.60291 -0.07900
C 	C 	0.04026 0.82540 0.61913 0.36100
C 	C 	0.09410 0.71790 0.62822 0.02600
H 	H 	0.07770 0.72350 0.64050 0.02100
N 	N 	0.10960 0.69198 0.63085 -0.15300
O 	O 	0.03080 0.84930 0.60758 -0.38400
C 	C 	0.07310 0.77920 0.61006 -0.00600
H 	H 	0.06180 0.76840 0.62450 0.02800
C 	C 	0.07800 0.78570 0.61670 -0.01800
H 	H 	0.06990 0.77770 0.63470 0.03700
C 	C 	0.10670 0.72760 0.63950 0.00500
H 	H 	0.09110 0.73330 0.65290 0.01800
N 	N 	0.12280 0.70380 0.64280 -0.15900
O 	O 	0.03082 0.31372 0.14262 -0.41000
C 	C 	0.06481 0.30975 0.10291 -0.07900
C 	C 	0.04026 0.32540 0.11913 0.36100
C 	C 	0.09410 0.21790 0.12822 0.02500
H 	H 	0.07770 0.22350 0.14050 0.02200
N 	N 	0.10960 0.19198 0.13085 -0.15300
O 	O 	0.03080 0.34930 0.10758 -0.38400
C 	C 	0.07310 0.27920 0.11006 -0.00600
H 	H 	0.06180 0.26840 0.12450 0.02800
C 	C 	0.07800 0.28570 0.11670 -0.01800
H 	H 	0.06990 0.27770 0.13470 0.03800
C 	C 	0.10670 0.22760 0.13950 0.00600
H 	H 	0.09110 0.23330 0.15290 0.01800
N 	N 	0.12280 0.20380 0.14280 -0.15900
O 	O 	0.53082 0.81372 0.14262 -0.40900
C 	C 	0.56481 0.80975 0.10291 -0.07900
C 	C 	0.54026 0.82540 0.11913 0.36100
C 	C 	0.59410 0.71790 0.12822 0.02600
H 	H 	0.57770 0.72350 0.14050 0.02200
N 	N 	0.60960 0.69198 0.13085 -0.15300
O 	O 	0.53080 0.84930 0.10758 -0.38400
C 	C 	0.57310 0.77920 0.11006 -0.00600
H 	H 	0.56180 0.76840 0.12450 0.02900
C 	C 	0.57800 0.78570 0.11670 -0.01800
H 	H 	0.56990 0.77770 0.13470 0.03700
C 	C 	0.60670 0.72760 0.13950 0.00500
H 	H 	0.59110 0.73330 0.15290 0.01800
N 	N 	0.62280 0.70380 0.14280 -0.15900
O 	O 	0.53082 0.31372 0.64262 -0.40900
C 	C 	0.56481 0.30975 0.60291 -0.07900
C 	C 	0.54026 0.32540 0.61913 0.36100
C 	C 	0.59410 0.21790 0.62822 0.02700
H 	H 	0.57770 0.22350 0.64050 0.02200
N 	N 	0.60960 0.19198 0.63085 -0.15300
O 	O 	0.53080 0.34930 0.60758 -0.38400
C 	C 	0.57310 0.27920 0.61006 -0.00700
H 	H 	0.56180 0.26840 0.62450 0.02900
C 	C 	0.57800 0.28570 0.61670 -0.01700
H 	H 	0.56990 0.27770 0.63470 0.03700
C 	C 	0.60670 0.22760 0.63950 0.00500
H 	H 	0.59110 0.23330 0.65290 0.01800
N 	N 	0.62280 0.20380 0.64280 -0.15900
O 	O 	0.96918 0.81372 0.35738 -0.40700
C 	C 	0.93519 0.80975 0.39709 -0.07800
C 	C 	0.95974 0.82540 0.38087 0.36100
C 	C 	0.90590 0.71790 0.37178 0.02700
H 	H 	0.92230 0.72350 0.35950 0.02200
N 	N 	0.89040 0.69198 0.36915 -0.15300
O 	O 	0.96920 0.84930 0.39242 -0.38300
C 	C 	0.92690 0.77920 0.38994 -0.00700
H 	H 	0.93820 0.76840 0.37550 0.03000
C 	C 	0.92200 0.78570 0.38330 -0.01700
H 	H 	0.93010 0.77770 0.36530 0.03700
C 	C 	0.89330 0.72760 0.36050 0.00400
H 	H 	0.90890 0.73330 0.34710 0.01800
N 	N 	0.87720 0.70380 0.35720 -0.15900
O 	O 	0.96918 0.31372 0.85738 -0.40700
C 	C 	0.93519 0.30975 0.89709 -0.07800
C 	C 	0.95974 0.32540 0.88087 0.36100
C 	C 	0.90590 0.21790 0.87178 0.02800
H 	H 	0.92230 0.22350 0.85950 0.02100
N 	N 	0.89040 0.19198 0.86915 -0.15300
O 	O 	0.96920 0.34930 0.89242 -0.38300
C 	C 	0.92690 0.27920 0.88994 -0.00800
H 	H 	0.93820 0.26840 0.87550 0.03000
C 	C 	0.92200 0.28570 0.88330 -0.01600
H 	H 	0.93010 0.27770 0.86530 0.03700
C 	C 	0.89330 0.22760 0.86050 0.00300
H 	H 	0.90890 0.23330 0.84710 0.01900
N 	N 	0.87720 0.20380 0.85720 -0.15900
O 	O 	0.46918 0.81372 0.85738 -0.40900
C 	C 	0.43519 0.80975 0.89709 -0.07800
C 	C 	0.45974 0.82540 0.88087 0.36100
C 	C 	0.40590 0.71790 0.87178 0.02800
H 	H 	0.42230 0.72350 0.85950 0.02100
N 	N 	0.39040 0.69198 0.86915 -0.15300
O 	O 	0.46920 0.84930 0.89242 -0.38400
C 	C 	0.42690 0.77920 0.88994 -0.00700
H 	H 	0.43820 0.76840 0.87550 0.02900
C 	C 	0.42200 0.78570 0.88330 -0.01700
H 	H 	0.43010 0.77770 0.86530 0.03700
C 	C 	0.39330 0.72760 0.86050 0.00400
H 	H 	0.40890 0.73330 0.84710 0.01800
N 	N 	0.37720 0.70380 0.85720 -0.15900
O 	O 	0.46918 0.31372 0.35738 -0.40900
C 	C 	0.43519 0.30975 0.39709 -0.07800
C 	C 	0.45974 0.32540 0.38087 0.36100
C 	C 	0.40590 0.21790 0.37178 0.02700
H 	H 	0.42230 0.22350 0.35950 0.02200
N 	N 	0.39040 0.19198 0.36915 -0.15300
O 	O 	0.46920 0.34930 0.39242 -0.38400
C 	C 	0.42690 0.27920 0.38994 -0.00700
H 	H 	0.43820 0.26840 0.37550 0.02900
C 	C 	0.42200 0.28570 0.38330 -0.01700
H 	H 	0.43010 0.27770 0.36530 0.03700
C 	C 	0.39330 0.22760 0.36050 0.00500
H 	H 	0.40890 0.23330 0.34710 0.01800
N 	N 	0.37720 0.20380 0.35720 -0.15900
O 	O 	0.03082 0.18628 0.35738 -0.41000
C 	C 	0.06481 0.19025 0.39709 -0.07900
C 	C 	0.04026 0.17460 0.38087 0.36100
C 	C 	0.09410 0.28210 0.37178 0.02600
H 	H 	0.07770 0.27650 0.35950 0.02100
N 	N 	0.10960 0.30802 0.36915 -0.15300
O 	O 	0.03080 0.15070 0.39242 -0.38400
C 	C 	0.07310 0.22080 0.38994 -0.00600
H 	H 	0.06180 0.23160 0.37550 0.02800
C 	C 	0.07800 0.21430 0.38330 -0.01800
H 	H 	0.06990 0.22230 0.36530 0.03700
C 	C 	0.10670 0.27240 0.36050 0.00500
H 	H 	0.09110 0.26670 0.34710 0.01800
N 	N 	0.12280 0.29620 0.35720 -0.15900
O 	O 	0.03082 0.68628 0.85738 -0.41000
C 	C 	0.06481 0.69025 0.89709 -0.07900
C 	C 	0.04026 0.67460 0.88087 0.36100
C 	C 	0.09410 0.78210 0.87178 0.02700
H 	H 	0.07770 0.77650 0.85950 0.02100
N 	N 	0.10960 0.80802 0.86915 -0.15300
O 	O 	0.03080 0.65070 0.89242 -0.38400
C 	C 	0.07310 0.72080 0.88994 -0.00700
H 	H 	0.06180 0.73160 0.87550 0.02900
C 	C 	0.07800 0.71430 0.88330 -0.01700
H 	H 	0.06990 0.72230 0.86530 0.03700
C 	C 	0.10670 0.77240 0.86050 0.00400
H 	H 	0.09110 0.76670 0.84710 0.01800
N 	N 	0.12280 0.79620 0.85720 -0.15900
O 	O 	0.53082 0.18628 0.85738 -0.40900
C 	C 	0.56481 0.19025 0.89709 -0.07800
C 	C 	0.54026 0.17460 0.88087 0.36100
C 	C 	0.59410 0.28210 0.87178 0.02800
H 	H 	0.57770 0.27650 0.85950 0.02100
N 	N 	0.60960 0.30802 0.86915 -0.15300
O 	O 	0.53080 0.15070 0.89242 -0.38400
C 	C 	0.57310 0.22080 0.88994 -0.00700
H 	H 	0.56180 0.23160 0.87550 0.02900
C 	C 	0.57800 0.21430 0.88330 -0.01700
H 	H 	0.56990 0.22230 0.86530 0.03700
C 	C 	0.60670 0.27240 0.86050 0.00400
H 	H 	0.59110 0.26670 0.84710 0.01800
N 	N 	0.62280 0.29620 0.85720 -0.15900
O 	O 	0.53082 0.68628 0.35738 -0.40900
C 	C 	0.56481 0.69025 0.39709 -0.07800
C 	C 	0.54026 0.67460 0.38087 0.36100
C 	C 	0.59410 0.78210 0.37178 0.02700
H 	H 	0.57770 0.77650 0.35950 0.02200
N 	N 	0.60960 0.80802 0.36915 -0.15300
O 	O 	0.53080 0.65070 0.39242 -0.38400
C 	C 	0.57310 0.72080 0.38994 -0.00700
H 	H 	0.56180 0.73160 0.37550 0.02900
C 	C 	0.57800 0.71430 0.38330 -0.01700
H 	H 	0.56990 0.72230 0.36530 0.03700
C 	C 	0.60670 0.77240 0.36050 0.00500
H 	H 	0.59110 0.76670 0.34710 0.01800
N 	N 	0.62280 0.79620 0.35720 -0.15900
O 	O 	0.96918 0.18628 0.64262 -0.40700
C 	C 	0.93519 0.19025 0.60291 -0.07800
C 	C 	0.95974 0.17460 0.61913 0.36100
C 	C 	0.90590 0.28210 0.62822 0.02700
H 	H 	0.92230 0.27650 0.64050 0.02200
N 	N 	0.89040 0.30802 0.63085 -0.15300
O 	O 	0.96920 0.15070 0.60758 -0.38300
C 	C 	0.92690 0.22080 0.61006 -0.00700
H 	H 	0.93820 0.23160 0.62450 0.03000
C 	C 	0.92200 0.21430 0.61670 -0.01700
H 	H 	0.93010 0.22230 0.63470 0.03700
C 	C 	0.89330 0.27240 0.63950 0.00400
H 	H 	0.90890 0.26670 0.65290 0.01800
N 	N 	0.87720 0.29620 0.64280 -0.15900
O 	O 	0.96918 0.68628 0.14262 -0.40700
C 	C 	0.93519 0.69025 0.10291 -0.07800
C 	C 	0.95974 0.67460 0.11913 0.36100
C 	C 	0.90590 0.78210 0.12822 0.02700
H 	H 	0.92230 0.77650 0.14050 0.02200
N 	N 	0.89040 0.80802 0.13085 -0.15300
O 	O 	0.96920 0.65070 0.10758 -0.38300
C 	C 	0.92690 0.72080 0.11006 -0.00700
H 	H 	0.93820 0.73160 0.12450 0.02900
C 	C 	0.92200 0.71430 0.11670 -0.01700
H 	H 	0.93010 0.72230 0.13470 0.03700
C 	C 	0.89330 0.77240 0.13950 0.00500
H 	H 	0.90890 0.76670 0.15290 0.01800
N 	N 	0.87720 0.79620 0.14280 -0.15900
O 	O 	0.46918 0.18628 0.14262 -0.40900
C 	C 	0.43519 0.19025 0.10291 -0.07900
C 	C 	0.45974 0.17460 0.11913 0.36100
C 	C 	0.40590 0.28210 0.12822 0.02600
H 	H 	0.42230 0.27650 0.14050 0.02200
N 	N 	0.39040 0.30802 0.13085 -0.15300
O 	O 	0.46920 0.15070 0.10758 -0.38400
C 	C 	0.42690 0.22080 0.11006 -0.00600
H 	H 	0.43820 0.23160 0.12450 0.02900
C 	C 	0.42200 0.21430 0.11670 -0.01800
H 	H 	0.43010 0.22230 0.13470 0.03700
C 	C 	0.39330 0.27240 0.13950 0.00600
H 	H 	0.40890 0.26670 0.15290 0.01800
N 	N 	0.37720 0.29620 0.14280 -0.15900
O 	O 	0.46918 0.68628 0.64262 -0.40900
C 	C 	0.43519 0.69025 0.60291 -0.07800
C 	C 	0.45974 0.67460 0.61913 0.36100
C 	C 	0.40590 0.78210 0.62822 0.02700
H 	H 	0.42230 0.77650 0.64050 0.02200
N 	N 	0.39040 0.80802 0.63085 -0.15300
O 	O 	0.46920 0.65070 0.60758 -0.38400
C 	C 	0.42690 0.72080 0.61006 -0.00700
H 	H 	0.43820 0.73160 0.62450 0.02900
C 	C 	0.42200 0.71430 0.61670 -0.01700
H 	H 	0.43010 0.72230 0.63470 0.03700
C 	C 	0.39330 0.77240 0.63950 0.00500
H 	H 	0.40890 0.76670 0.65290 0.01800
N 	N 	0.37720 0.79620 0.64280 -0.15900
O 	O 	0.03082 0.64262 0.18628 -0.41000
C 	C 	0.06481 0.60291 0.19025 -0.07900
C 	C 	0.04026 0.61913 0.17460 0.36100
C 	C 	0.09410 0.62822 0.28210 0.02600
H 	H 	0.07770 0.64050 0.27650 0.02100
N 	N 	0.10960 0.63085 0.30802 -0.15300
O 	O 	0.03080 0.60758 0.15070 -0.38400
C 	C 	0.07310 0.61006 0.22080 -0.00600
H 	H 	0.06180 0.62450 0.23160 0.02800
C 	C 	0.07800 0.61670 0.21430 -0.01800
H 	H 	0.06990 0.63470 0.22230 0.03700
C 	C 	0.10670 0.63950 0.27240 0.00500
H 	H 	0.09110 0.65290 0.26670 0.01800
N 	N 	0.12280 0.64280 0.29620 -0.15900
O 	O 	0.03082 0.14262 0.68628 -0.41000
C 	C 	0.06481 0.10291 0.69025 -0.07900
C 	C 	0.04026 0.11913 0.67460 0.36100
C 	C 	0.09410 0.12822 0.78210 0.02500
H 	H 	0.07770 0.14050 0.77650 0.02200
N 	N 	0.10960 0.13085 0.80802 -0.15300
O 	O 	0.03080 0.10758 0.65070 -0.38400
C 	C 	0.07310 0.11006 0.72080 -0.00600
H 	H 	0.06180 0.12450 0.73160 0.02800
C 	C 	0.07800 0.11670 0.71430 -0.01800
H 	H 	0.06990 0.13470 0.72230 0.03700
C 	C 	0.10670 0.13950 0.77240 0.00600
H 	H 	0.09110 0.15290 0.76670 0.01800
N 	N 	0.12280 0.14280 0.79620 -0.15900
O 	O 	0.53082 0.64262 0.68628 -0.40900
C 	C 	0.56481 0.60291 0.69025 -0.07900
C 	C 	0.54026 0.61913 0.67460 0.36100
C 	C 	0.59410 0.62822 0.78210 0.02700
H 	H 	0.57770 0.64050 0.77650 0.02100
N 	N 	0.60960 0.63085 0.80802 -0.15300
O 	O 	0.53080 0.60758 0.65070 -0.38400
C 	C 	0.57310 0.61006 0.72080 -0.00700
H 	H 	0.56180 0.62450 0.73160 0.02900
C 	C 	0.57800 0.61670 0.71430 -0.01700
H 	H 	0.56990 0.63470 0.72230 0.03700
C 	C 	0.60670 0.63950 0.77240 0.00500
H 	H 	0.59110 0.65290 0.76670 0.01800
N 	N 	0.62280 0.64280 0.79620 -0.15900
O 	O 	0.53082 0.14262 0.18628 -0.40900
C 	C 	0.56481 0.10291 0.19025 -0.07900
C 	C 	0.54026 0.11913 0.17460 0.36100
C 	C 	0.59410 0.12822 0.28210 0.02600
H 	H 	0.57770 0.14050 0.27650 0.02200
N 	N 	0.60960 0.13085 0.30802 -0.15300
O 	O 	0.53080 0.10758 0.15070 -0.38400
C 	C 	0.57310 0.11006 0.22080 -0.00600
H 	H 	0.56180 0.12450 0.23160 0.02900
C 	C 	0.57800 0.11670 0.21430 -0.01800
H 	H 	0.56990 0.13470 0.22230 0.03700
C 	C 	0.60670 0.13950 0.27240 0.00600
H 	H 	0.59110 0.15290 0.26670 0.01800
N 	N 	0.62280 0.14280 0.29620 -0.15900
O 	O 	0.96918 0.35738 0.18628 -0.40700
C 	C 	0.93519 0.39709 0.19025 -0.07800
C 	C 	0.95974 0.38087 0.17460 0.36100
C 	C 	0.90590 0.37178 0.28210 0.02700
H 	H 	0.92230 0.35950 0.27650 0.02200
N 	N 	0.89040 0.36915 0.30802 -0.15300
O 	O 	0.96920 0.39242 0.15070 -0.38300
C 	C 	0.92690 0.38994 0.22080 -0.00700
H 	H 	0.93820 0.37550 0.23160 0.03000
C 	C 	0.92200 0.38330 0.21430 -0.01700
H 	H 	0.93010 0.36530 0.22230 0.03700
C 	C 	0.89330 0.36050 0.27240 0.00400
H 	H 	0.90890 0.34710 0.26670 0.01800
N 	N 	0.87720 0.35720 0.29620 -0.15900
O 	O 	0.96918 0.85738 0.68628 -0.40700
C 	C 	0.93519 0.89709 0.69025 -0.07800
C 	C 	0.95974 0.88087 0.67460 0.36100
C 	C 	0.90590 0.87178 0.78210 0.02800
H 	H 	0.92230 0.85950 0.77650 0.02100
N 	N 	0.89040 0.86915 0.80802 -0.15300
O 	O 	0.96920 0.89242 0.65070 -0.38300
C 	C 	0.92690 0.88994 0.72080 -0.00800
H 	H 	0.93820 0.87550 0.73160 0.03000
C 	C 	0.92200 0.88330 0.71430 -0.01600
H 	H 	0.93010 0.86530 0.72230 0.03600
C 	C 	0.89330 0.86050 0.77240 0.00300
H 	H 	0.90890 0.84710 0.76670 0.01900
N 	N 	0.87720 0.85720 0.79620 -0.15900
O 	O 	0.46918 0.35738 0.68628 -0.40900
C 	C 	0.43519 0.39709 0.69025 -0.07800
C 	C 	0.45974 0.38087 0.67460 0.36100
C 	C 	0.40590 0.37178 0.78210 0.02700
H 	H 	0.42230 0.35950 0.77650 0.02200
N 	N 	0.39040 0.36915 0.80802 -0.15300
O 	O 	0.46920 0.39242 0.65070 -0.38400
C 	C 	0.42690 0.38994 0.72080 -0.00700
H 	H 	0.43820 0.37550 0.73160 0.02900
C 	C 	0.42200 0.38330 0.71430 -0.01700
H 	H 	0.43010 0.36530 0.72230 0.03700
C 	C 	0.39330 0.36050 0.77240 0.00500
H 	H 	0.40890 0.34710 0.76670 0.01800
N 	N 	0.37720 0.35720 0.79620 -0.15900
O 	O 	0.46918 0.85738 0.18628 -0.40900
C 	C 	0.43519 0.89709 0.19025 -0.07800
C 	C 	0.45974 0.88087 0.17460 0.36100
C 	C 	0.40590 0.87178 0.28210 0.02800
H 	H 	0.42230 0.85950 0.27650 0.02100
N 	N 	0.39040 0.86915 0.30802 -0.15300
O 	O 	0.46920 0.89242 0.15070 -0.38400
C 	C 	0.42690 0.88994 0.22080 -0.00700
H 	H 	0.43820 0.87550 0.23160 0.02900
C 	C 	0.42200 0.88330 0.21430 -0.01700
H 	H 	0.43010 0.86530 0.22230 0.03700
C 	C 	0.39330 0.86050 0.27240 0.00400
H 	H 	0.40890 0.84710 0.26670 0.01800
N 	N 	0.37720 0.85720 0.29620 -0.15900
O 	O 	0.03082 0.35738 0.81372 -0.41000
C 	C 	0.06481 0.39709 0.80975 -0.07900
C 	C 	0.04026 0.38087 0.82540 0.36100
C 	C 	0.09410 0.37178 0.71790 0.02600
H 	H 	0.07770 0.35950 0.72350 0.02100
N 	N 	0.10960 0.36915 0.69198 -0.15300
O 	O 	0.03080 0.39242 0.84930 -0.38400
C 	C 	0.07310 0.38994 0.77920 -0.00600
H 	H 	0.06180 0.37550 0.76840 0.02800
C 	C 	0.07800 0.38330 0.78570 -0.01800
H 	H 	0.06990 0.36530 0.77770 0.03700
C 	C 	0.10670 0.36050 0.72760 0.00500
H 	H 	0.09110 0.34710 0.73330 0.01800
N 	N 	0.12280 0.35720 0.70380 -0.15900
O 	O 	0.03082 0.85738 0.31372 -0.41000
C 	C 	0.06481 0.89709 0.30975 -0.07900
C 	C 	0.04026 0.88087 0.32540 0.36100
C 	C 	0.09410 0.87178 0.21790 0.02700
H 	H 	0.07770 0.85950 0.22350 0.02100
N 	N 	0.10960 0.86915 0.19198 -0.15300
O 	O 	0.03080 0.89242 0.34930 -0.38400
C 	C 	0.07310 0.88994 0.27920 -0.00700
H 	H 	0.06180 0.87550 0.26840 0.02900
C 	C 	0.07800 0.88330 0.28570 -0.01700
H 	H 	0.06990 0.86530 0.27770 0.03700
C 	C 	0.10670 0.86050 0.22760 0.00400
H 	H 	0.09110 0.84710 0.23330 0.01800
N 	N 	0.12280 0.85720 0.20380 -0.15900
O 	O 	0.53082 0.35738 0.31372 -0.40900
C 	C 	0.56481 0.39709 0.30975 -0.07800
C 	C 	0.54026 0.38087 0.32540 0.36100
C 	C 	0.59410 0.37178 0.21790 0.02700
H 	H 	0.57770 0.35950 0.22350 0.02200
N 	N 	0.60960 0.36915 0.19198 -0.15300
O 	O 	0.53080 0.39242 0.34930 -0.38400
C 	C 	0.57310 0.38994 0.27920 -0.00700
H 	H 	0.56180 0.37550 0.26840 0.02900
C 	C 	0.57800 0.38330 0.28570 -0.01700
H 	H 	0.56990 0.36530 0.27770 0.03700
C 	C 	0.60670 0.36050 0.22760 0.00500
H 	H 	0.59110 0.34710 0.23330 0.01800
N 	N 	0.62280 0.35720 0.20380 -0.15900
O 	O 	0.53082 0.85738 0.81372 -0.40900
C 	C 	0.56481 0.89709 0.80975 -0.07800
C 	C 	0.54026 0.88087 0.82540 0.36100
C 	C 	0.59410 0.87178 0.71790 0.02800
H 	H 	0.57770 0.85950 0.72350 0.02100
N 	N 	0.60960 0.86915 0.69198 -0.15300
O 	O 	0.53080 0.89242 0.84930 -0.38400
C 	C 	0.57310 0.88994 0.77920 -0.00700
H 	H 	0.56180 0.87550 0.76840 0.02900
C 	C 	0.57800 0.88330 0.78570 -0.01700
H 	H 	0.56990 0.86530 0.77770 0.03700
C 	C 	0.60670 0.86050 0.72760 0.00400
H 	H 	0.59110 0.84710 0.73330 0.01800
N 	N 	0.62280 0.85720 0.70380 -0.15900
O 	O 	0.96918 0.64262 0.81372 -0.40700
C 	C 	0.93519 0.60291 0.80975 -0.07800
C 	C 	0.95974 0.61913 0.82540 0.36100
C 	C 	0.90590 0.62822 0.71790 0.02700
H 	H 	0.92230 0.64050 0.72350 0.02200
N 	N 	0.89040 0.63085 0.69198 -0.15300
O 	O 	0.96920 0.60758 0.84930 -0.38300
C 	C 	0.92690 0.61006 0.77920 -0.00700
H 	H 	0.93820 0.62450 0.76840 0.03000
C 	C 	0.92200 0.61670 0.78570 -0.01700
H 	H 	0.93010 0.63470 0.77770 0.03700
C 	C 	0.89330 0.63950 0.72760 0.00400
H 	H 	0.90890 0.65290 0.73330 0.01800
N 	N 	0.87720 0.64280 0.70380 -0.15900
O 	O 	0.96918 0.14262 0.31372 -0.40700
C 	C 	0.93519 0.10291 0.30975 -0.07800
C 	C 	0.95974 0.11913 0.32540 0.36100
C 	C 	0.90590 0.12822 0.21790 0.02600
H 	H 	0.92230 0.14050 0.22350 0.02200
N 	N 	0.89040 0.13085 0.19198 -0.15300
O 	O 	0.96920 0.10758 0.34930 -0.38300
C 	C 	0.92690 0.11006 0.27920 -0.00700
H 	H 	0.93820 0.12450 0.26840 0.02900
C 	C 	0.92200 0.11670 0.28570 -0.01700
H 	H 	0.93010 0.13470 0.27770 0.03700
C 	C 	0.89330 0.13950 0.22760 0.00500
H 	H 	0.90890 0.15290 0.23330 0.01800
N 	N 	0.87720 0.14280 0.20380 -0.15900
O 	O 	0.46918 0.64262 0.31372 -0.40900
C 	C 	0.43519 0.60291 0.30975 -0.07800
C 	C 	0.45974 0.61913 0.32540 0.36100
C 	C 	0.40590 0.62822 0.21790 0.02700
H 	H 	0.42230 0.64050 0.22350 0.02200
N 	N 	0.39040 0.63085 0.19198 -0.15300
O 	O 	0.46920 0.60758 0.34930 -0.38400
C 	C 	0.42690 0.61006 0.27920 -0.00700
H 	H 	0.43820 0.62450 0.26840 0.02900
C 	C 	0.42200 0.61670 0.28570 -0.01700
H 	H 	0.43010 0.63470 0.27770 0.03700
C 	C 	0.39330 0.63950 0.22760 0.00500
H 	H 	0.40890 0.65290 0.23330 0.01800
N 	N 	0.37720 0.64280 0.20380 -0.15900
O 	O 	0.46918 0.14262 0.81372 -0.40900
C 	C 	0.43519 0.10291 0.80975 -0.07900
C 	C 	0.45974 0.11913 0.82540 0.36100
C 	C 	0.40590 0.12822 0.71790 0.02600
H 	H 	0.42230 0.14050 0.72350 0.02200
N 	N 	0.39040 0.13085 0.69198 -0.15300
O 	O 	0.46920 0.10758 0.84930 -0.38400
C 	C 	0.42690 0.11006 0.77920 -0.00600
H 	H 	0.43820 0.12450 0.76840 0.02900
C 	C 	0.42200 0.11670 0.78570 -0.01800
H 	H 	0.43010 0.13470 0.77770 0.03700
C 	C 	0.39330 0.13950 0.72760 0.00500
H 	H 	0.40890 0.15290 0.73330 0.01800
N 	N 	0.37720 0.14280 0.70380 -0.15900
O 	O 	0.64262 0.81372 0.96918 -0.40700
C 	C 	0.60291 0.80975 0.93519 -0.07800
C 	C 	0.61913 0.82540 0.95974 0.36100
C 	C 	0.62822 0.71790 0.90590 0.02700
H 	H 	0.64050 0.72350 0.92230 0.02200
N 	N 	0.63085 0.69198 0.89040 -0.15300
O 	O 	0.60758 0.84930 0.96920 -0.38300
C 	C 	0.61006 0.77920 0.92690 -0.00700
H 	H 	0.62450 0.76840 0.93820 0.03000
C 	C 	0.61670 0.78570 0.92200 -0.01700
H 	H 	0.63470 0.77770 0.93010 0.03700
C 	C 	0.63950 0.72760 0.89330 0.00400
H 	H 	0.65290 0.73330 0.90890 0.01800
N 	N 	0.64280 0.70380 0.87720 -0.15900
O 	O 	0.64262 0.31372 0.46918 -0.40900
C 	C 	0.60291 0.30975 0.43519 -0.07800
C 	C 	0.61913 0.32540 0.45974 0.36100
C 	C 	0.62822 0.21790 0.40590 0.02700
H 	H 	0.64050 0.22350 0.42230 0.02200
N 	N 	0.63085 0.19198 0.39040 -0.15300
O 	O 	0.60758 0.34930 0.46920 -0.38400
C 	C 	0.61006 0.27920 0.42690 -0.00700
H 	H 	0.62450 0.26840 0.43820 0.02900
C 	C 	0.61670 0.28570 0.42200 -0.01700
H 	H 	0.63470 0.27770 0.43010 0.03700
C 	C 	0.63950 0.22760 0.39330 0.00500
H 	H 	0.65290 0.23330 0.40890 0.01800
N 	N 	0.64280 0.20380 0.37720 -0.15900
O 	O 	0.14262 0.81372 0.46918 -0.40900
C 	C 	0.10291 0.80975 0.43519 -0.07900
C 	C 	0.11913 0.82540 0.45974 0.36100
C 	C 	0.12822 0.71790 0.40590 0.02600
H 	H 	0.14050 0.72350 0.42230 0.02200
N 	N 	0.13085 0.69198 0.39040 -0.15300
O 	O 	0.10758 0.84930 0.46920 -0.38400
C 	C 	0.11006 0.77920 0.42690 -0.00600
H 	H 	0.12450 0.76840 0.43820 0.02900
C 	C 	0.11670 0.78570 0.42200 -0.01800
H 	H 	0.13470 0.77770 0.43010 0.03700
C 	C 	0.13950 0.72760 0.39330 0.00500
H 	H 	0.15290 0.73330 0.40890 0.01800
N 	N 	0.14280 0.70380 0.37720 -0.15900
O 	O 	0.14262 0.31372 0.96918 -0.40700
C 	C 	0.10291 0.30975 0.93519 -0.07800
C 	C 	0.11913 0.32540 0.95974 0.36100
C 	C 	0.12822 0.21790 0.90590 0.02600
H 	H 	0.14050 0.22350 0.92230 0.02200
N 	N 	0.13085 0.19198 0.89040 -0.15300
O 	O 	0.10758 0.34930 0.96920 -0.38300
C 	C 	0.11006 0.27920 0.92690 -0.00700
H 	H 	0.12450 0.26840 0.93820 0.02900
C 	C 	0.11670 0.28570 0.92200 -0.01700
H 	H 	0.13470 0.27770 0.93010 0.03700
C 	C 	0.13950 0.22760 0.89330 0.00500
H 	H 	0.15290 0.23330 0.90890 0.01800
N 	N 	0.14280 0.20380 0.87720 -0.15900
O 	O 	0.35738 0.81372 0.03082 -0.41000
C 	C 	0.39709 0.80975 0.06481 -0.07900
C 	C 	0.38087 0.82540 0.04026 0.36100
C 	C 	0.37178 0.71790 0.09410 0.02600
H 	H 	0.35950 0.72350 0.07770 0.02100
N 	N 	0.36915 0.69198 0.10960 -0.15300
O 	O 	0.39242 0.84930 0.03080 -0.38400
C 	C 	0.38994 0.77920 0.07310 -0.00600
H 	H 	0.37550 0.76840 0.06180 0.02800
C 	C 	0.38330 0.78570 0.07800 -0.01800
H 	H 	0.36530 0.77770 0.06990 0.03700
C 	C 	0.36050 0.72760 0.10670 0.00500
H 	H 	0.34710 0.73330 0.09110 0.01800
N 	N 	0.35720 0.70380 0.12280 -0.15900
O 	O 	0.35738 0.31372 0.53082 -0.40900
C 	C 	0.39709 0.30975 0.56481 -0.07800
C 	C 	0.38087 0.32540 0.54026 0.36100
C 	C 	0.37178 0.21790 0.59410 0.02700
H 	H 	0.35950 0.22350 0.57770 0.02200
N 	N 	0.36915 0.19198 0.60960 -0.15300
O 	O 	0.39242 0.34930 0.53080 -0.38400
C 	C 	0.38994 0.27920 0.57310 -0.00700
H 	H 	0.37550 0.26840 0.56180 0.02900
C 	C 	0.38330 0.28570 0.57800 -0.01700
H 	H 	0.36530 0.27770 0.56990 0.03700
C 	C 	0.36050 0.22760 0.60670 0.00500
H 	H 	0.34710 0.23330 0.59110 0.01800
N 	N 	0.35720 0.20380 0.62280 -0.15900
O 	O 	0.85738 0.81372 0.53082 -0.40900
C 	C 	0.89709 0.80975 0.56481 -0.07800
C 	C 	0.88087 0.82540 0.54026 0.36100
C 	C 	0.87178 0.71790 0.59410 0.02800
H 	H 	0.85950 0.72350 0.57770 0.02100
N 	N 	0.86915 0.69198 0.60960 -0.15300
O 	O 	0.89242 0.84930 0.53080 -0.38400
C 	C 	0.88994 0.77920 0.57310 -0.00700
H 	H 	0.87550 0.76840 0.56180 0.02900
C 	C 	0.88330 0.78570 0.57800 -0.01700
H 	H 	0.86530 0.77770 0.56990 0.03700
C 	C 	0.86050 0.72760 0.60670 0.00400
H 	H 	0.84710 0.73330 0.59110 0.01800
N 	N 	0.85720 0.70380 0.62280 -0.15900
O 	O 	0.85738 0.31372 0.03082 -0.41000
C 	C 	0.89709 0.30975 0.06481 -0.07900
C 	C 	0.88087 0.32540 0.04026 0.36100
C 	C 	0.87178 0.21790 0.09410 0.02700
H 	H 	0.85950 0.22350 0.07770 0.02100
N 	N 	0.86915 0.19198 0.10960 -0.15300
O 	O 	0.89242 0.34930 0.03080 -0.38400
C 	C 	0.88994 0.27920 0.07310 -0.00700
H 	H 	0.87550 0.26840 0.06180 0.02900
C 	C 	0.88330 0.28570 0.07800 -0.01700
H 	H 	0.86530 0.27770 0.06990 0.03700
C 	C 	0.86050 0.22760 0.10670 0.00400
H 	H 	0.84710 0.23330 0.09110 0.01800
N 	N 	0.85720 0.20380 0.12280 -0.15900
O 	O 	0.35738 0.18628 0.96918 -0.40700
C 	C 	0.39709 0.19025 0.93519 -0.07800
C 	C 	0.38087 0.17460 0.95974 0.36100
C 	C 	0.37178 0.28210 0.90590 0.02700
H 	H 	0.35950 0.27650 0.92230 0.02200
N 	N 	0.36915 0.30802 0.89040 -0.15300
O 	O 	0.39242 0.15070 0.96920 -0.38300
C 	C 	0.38994 0.22080 0.92690 -0.00700
H 	H 	0.37550 0.23160 0.93820 0.03000
C 	C 	0.38330 0.21430 0.92200 -0.01700
H 	H 	0.36530 0.22230 0.93010 0.03700
C 	C 	0.36050 0.27240 0.89330 0.00400
H 	H 	0.34710 0.26670 0.90890 0.01800
N 	N 	0.35720 0.29620 0.87720 -0.15900
O 	O 	0.35738 0.68628 0.46918 -0.40900
C 	C 	0.39709 0.69025 0.43519 -0.07800
C 	C 	0.38087 0.67460 0.45974 0.36100
C 	C 	0.37178 0.78210 0.40590 0.02700
H 	H 	0.35950 0.77650 0.42230 0.02200
N 	N 	0.36915 0.80802 0.39040 -0.15300
O 	O 	0.39242 0.65070 0.46920 -0.38400
C 	C 	0.38994 0.72080 0.42690 -0.00700
H 	H 	0.37550 0.73160 0.43820 0.02900
C 	C 	0.38330 0.71430 0.42200 -0.01700
H 	H 	0.36530 0.72230 0.43010 0.03700
C 	C 	0.36050 0.77240 0.39330 0.00500
H 	H 	0.34710 0.76670 0.40890 0.01800
N 	N 	0.35720 0.79620 0.37720 -0.15900
O 	O 	0.85738 0.18628 0.46918 -0.40900
C 	C 	0.89709 0.19025 0.43519 -0.07800
C 	C 	0.88087 0.17460 0.45974 0.36100
C 	C 	0.87178 0.28210 0.40590 0.02800
H 	H 	0.85950 0.27650 0.42230 0.02100
N 	N 	0.86915 0.30802 0.39040 -0.15300
O 	O 	0.89242 0.15070 0.46920 -0.38400
C 	C 	0.88994 0.22080 0.42690 -0.00700
H 	H 	0.87550 0.23160 0.43820 0.02900
C 	C 	0.88330 0.21430 0.42200 -0.01700
H 	H 	0.86530 0.22230 0.43010 0.03700
C 	C 	0.86050 0.27240 0.39330 0.00400
H 	H 	0.84710 0.26670 0.40890 0.01800
N 	N 	0.85720 0.29620 0.37720 -0.15900
O 	O 	0.85738 0.68628 0.96918 -0.40700
C 	C 	0.89709 0.69025 0.93519 -0.07800
C 	C 	0.88087 0.67460 0.95974 0.36100
C 	C 	0.87178 0.78210 0.90590 0.02800
H 	H 	0.85950 0.77650 0.92230 0.02100
N 	N 	0.86915 0.80802 0.89040 -0.15300
O 	O 	0.89242 0.65070 0.96920 -0.38300
C 	C 	0.88994 0.72080 0.92690 -0.00800
H 	H 	0.87550 0.73160 0.93820 0.03000
C 	C 	0.88330 0.71430 0.92200 -0.01600
H 	H 	0.86530 0.72230 0.93010 0.03600
C 	C 	0.86050 0.77240 0.89330 0.00300
H 	H 	0.84710 0.76670 0.90890 0.01900
N 	N 	0.85720 0.79620 0.87720 -0.15900
O 	O 	0.64262 0.18628 0.03082 -0.41000
C 	C 	0.60291 0.19025 0.06481 -0.07900
C 	C 	0.61913 0.17460 0.04026 0.36100
C 	C 	0.62822 0.28210 0.09410 0.02600
H 	H 	0.64050 0.27650 0.07770 0.02100
N 	N 	0.63085 0.30802 0.10960 -0.15300
O 	O 	0.60758 0.15070 0.03080 -0.38400
C 	C 	0.61006 0.22080 0.07310 -0.00600
H 	H 	0.62450 0.23160 0.06180 0.02800
C 	C 	0.61670 0.21430 0.07800 -0.01800
H 	H 	0.63470 0.22230 0.06990 0.03700
C 	C 	0.63950 0.27240 0.10670 0.00500
H 	H 	0.65290 0.26670 0.09110 0.01800
N 	N 	0.64280 0.29620 0.12280 -0.15900
O 	O 	0.64262 0.68628 0.53082 -0.40900
C 	C 	0.60291 0.69025 0.56481 -0.07900
C 	C 	0.61913 0.67460 0.54026 0.36100
C 	C 	0.62822 0.78210 0.59410 0.02700
H 	H 	0.64050 0.77650 0.57770 0.02100
N 	N 	0.63085 0.80802 0.60960 -0.15300
O 	O 	0.60758 0.65070 0.53080 -0.38400
C 	C 	0.61006 0.72080 0.57310 -0.00700
H 	H 	0.62450 0.73160 0.56180 0.02900
C 	C 	0.61670 0.71430 0.57800 -0.01700
H 	H 	0.63470 0.72230 0.56990 0.03700
C 	C 	0.63950 0.77240 0.60670 0.00500
H 	H 	0.65290 0.76670 0.59110 0.01800
N 	N 	0.64280 0.79620 0.62280 -0.15900
O 	O 	0.14262 0.18628 0.53082 -0.40900
C 	C 	0.10291 0.19025 0.56481 -0.07900
C 	C 	0.11913 0.17460 0.54026 0.36100
C 	C 	0.12822 0.28210 0.59410 0.02600
H 	H 	0.14050 0.27650 0.57770 0.02200
N 	N 	0.13085 0.30802 0.60960 -0.15300
O 	O 	0.10758 0.15070 0.53080 -0.38400
C 	C 	0.11006 0.22080 0.57310 -0.00600
H 	H 	0.12450 0.23160 0.56180 0.02900
C 	C 	0.11670 0.21430 0.57800 -0.01800
H 	H 	0.13470 0.22230 0.56990 0.03700
C 	C 	0.13950 0.27240 0.60670 0.00600
H 	H 	0.15290 0.26670 0.59110 0.01800
N 	N 	0.14280 0.29620 0.62280 -0.15900
O 	O 	0.14262 0.68628 0.03082 -0.41000
C 	C 	0.10291 0.69025 0.06481 -0.07900
C 	C 	0.11913 0.67460 0.04026 0.36100
C 	C 	0.12822 0.78210 0.09410 0.02500
H 	H 	0.14050 0.77650 0.07770 0.02200
N 	N 	0.13085 0.80802 0.10960 -0.15300
O 	O 	0.10758 0.65070 0.03080 -0.38400
C 	C 	0.11006 0.72080 0.07310 -0.00600
H 	H 	0.12450 0.73160 0.06180 0.02800
C 	C 	0.11670 0.71430 0.07800 -0.01800
H 	H 	0.13470 0.72230 0.06990 0.03700
C 	C 	0.13950 0.77240 0.10670 0.00600
H 	H 	0.15290 0.76670 0.09110 0.01800
N 	N 	0.14280 0.79620 0.12280 -0.15900
O 	O 	0.81372 0.03082 0.35738 -0.41000
C 	C 	0.80975 0.06481 0.39709 -0.07900
C 	C 	0.82540 0.04026 0.38087 0.36100
C 	C 	0.71790 0.09410 0.37178 0.02600
H 	H 	0.72350 0.07770 0.35950 0.02100
N 	N 	0.69198 0.10960 0.36915 -0.15300
O 	O 	0.84930 0.03080 0.39242 -0.38400
C 	C 	0.77920 0.07310 0.38994 -0.00600
H 	H 	0.76840 0.06180 0.37550 0.02800
C 	C 	0.78570 0.07800 0.38330 -0.01800
H 	H 	0.77770 0.06990 0.36530 0.03700
C 	C 	0.72760 0.10670 0.36050 0.00500
H 	H 	0.73330 0.09110 0.34710 0.01800
N 	N 	0.70380 0.12280 0.35720 -0.15900
O 	O 	0.81372 0.53082 0.85738 -0.40900
C 	C 	0.80975 0.56481 0.89709 -0.07800
C 	C 	0.82540 0.54026 0.88087 0.36100
C 	C 	0.71790 0.59410 0.87178 0.02800
H 	H 	0.72350 0.57770 0.85950 0.02100
N 	N 	0.69198 0.60960 0.86915 -0.15300
O 	O 	0.84930 0.53080 0.89242 -0.38400
C 	C 	0.77920 0.57310 0.88994 -0.00700
H 	H 	0.76840 0.56180 0.87550 0.02900
C 	C 	0.78570 0.57800 0.88330 -0.01700
H 	H 	0.77770 0.56990 0.86530 0.03700
C 	C 	0.72760 0.60670 0.86050 0.00400
H 	H 	0.73330 0.59110 0.84710 0.01800
N 	N 	0.70380 0.62280 0.85720 -0.15900
O 	O 	0.31372 0.03082 0.85738 -0.41000
C 	C 	0.30975 0.06481 0.89709 -0.07900
C 	C 	0.32540 0.04026 0.88087 0.36100
C 	C 	0.21790 0.09410 0.87178 0.02700
H 	H 	0.22350 0.07770 0.85950 0.02100
N 	N 	0.19198 0.10960 0.86915 -0.15300
O 	O 	0.34930 0.03080 0.89242 -0.38400
C 	C 	0.27920 0.07310 0.88994 -0.00700
H 	H 	0.26840 0.06180 0.87550 0.02900
C 	C 	0.28570 0.07800 0.88330 -0.01700
H 	H 	0.27770 0.06990 0.86530 0.03700
C 	C 	0.22760 0.10670 0.86050 0.00400
H 	H 	0.23330 0.09110 0.84710 0.01800
N 	N 	0.20380 0.12280 0.85720 -0.15900
O 	O 	0.31372 0.53082 0.35738 -0.40900
C 	C 	0.30975 0.56481 0.39709 -0.07800
C 	C 	0.32540 0.54026 0.38087 0.36100
C 	C 	0.21790 0.59410 0.37178 0.02700
H 	H 	0.22350 0.57770 0.35950 0.02200
N 	N 	0.19198 0.60960 0.36915 -0.15300
O 	O 	0.34930 0.53080 0.39242 -0.38400
C 	C 	0.27920 0.57310 0.38994 -0.00700
H 	H 	0.26840 0.56180 0.37550 0.02900
C 	C 	0.28570 0.57800 0.38330 -0.01700
H 	H 	0.27770 0.56990 0.36530 0.03700
C 	C 	0.22760 0.60670 0.36050 0.00500
H 	H 	0.23330 0.59110 0.34710 0.01800
N 	N 	0.20380 0.62280 0.35720 -0.15900
O 	O 	0.81372 0.96918 0.64262 -0.40700
C 	C 	0.80975 0.93519 0.60291 -0.07800
C 	C 	0.82540 0.95974 0.61913 0.36100
C 	C 	0.71790 0.90590 0.62822 0.02700
H 	H 	0.72350 0.92230 0.64050 0.02200
N 	N 	0.69198 0.89040 0.63085 -0.15300
O 	O 	0.84930 0.96920 0.60758 -0.38300
C 	C 	0.77920 0.92690 0.61006 -0.00700
H 	H 	0.76840 0.93820 0.62450 0.03000
C 	C 	0.78570 0.92200 0.61670 -0.01700
H 	H 	0.77770 0.93010 0.63470 0.03700
C 	C 	0.72760 0.89330 0.63950 0.00400
H 	H 	0.73330 0.90890 0.65290 0.01800
N 	N 	0.70380 0.87720 0.64280 -0.15900
O 	O 	0.81372 0.46918 0.14262 -0.40900
C 	C 	0.80975 0.43519 0.10291 -0.07900
C 	C 	0.82540 0.45974 0.11913 0.36100
C 	C 	0.71790 0.40590 0.12822 0.02600
H 	H 	0.72350 0.42230 0.14050 0.02200
N 	N 	0.69198 0.39040 0.13085 -0.15300
O 	O 	0.84930 0.46920 0.10758 -0.38400
C 	C 	0.77920 0.42690 0.11006 -0.00600
H 	H 	0.76840 0.43820 0.12450 0.02900
C 	C 	0.78570 0.42200 0.11670 -0.01800
H 	H 	0.77770 0.43010 0.13470 0.03700
C 	C 	0.72760 0.39330 0.13950 0.00500
H 	H 	0.73330 0.40890 0.15290 0.01800
N 	N 	0.70380 0.37720 0.14280 -0.15900
O 	O 	0.31372 0.96918 0.14262 -0.40700
C 	C 	0.30975 0.93519 0.10291 -0.07800
C 	C 	0.32540 0.95974 0.11913 0.36100
C 	C 	0.21790 0.90590 0.12822 0.02600
H 	H 	0.22350 0.92230 0.14050 0.02200
N 	N 	0.19198 0.89040 0.13085 -0.15300
O 	O 	0.34930 0.96920 0.10758 -0.38300
C 	C 	0.27920 0.92690 0.11006 -0.00700
H 	H 	0.26840 0.93820 0.12450 0.02900
C 	C 	0.28570 0.92200 0.11670 -0.01700
H 	H 	0.27770 0.93010 0.13470 0.03700
C 	C 	0.22760 0.89330 0.13950 0.00500
H 	H 	0.23330 0.90890 0.15290 0.01800
N 	N 	0.20380 0.87720 0.14280 -0.15900
O 	O 	0.31372 0.46918 0.64262 -0.40900
C 	C 	0.30975 0.43519 0.60291 -0.07800
C 	C 	0.32540 0.45974 0.61913 0.36100
C 	C 	0.21790 0.40590 0.62822 0.02700
H 	H 	0.22350 0.42230 0.64050 0.02200
N 	N 	0.19198 0.39040 0.63085 -0.15300
O 	O 	0.34930 0.46920 0.60758 -0.38400
C 	C 	0.27920 0.42690 0.61006 -0.00700
H 	H 	0.26840 0.43820 0.62450 0.02900
C 	C 	0.28570 0.42200 0.61670 -0.01700
H 	H 	0.27770 0.43010 0.63470 0.03700
C 	C 	0.22760 0.39330 0.63950 0.00500
H 	H 	0.23330 0.40890 0.65290 0.01800
N 	N 	0.20380 0.37720 0.64280 -0.15900
O 	O 	0.18628 0.03082 0.64262 -0.41000
C 	C 	0.19025 0.06481 0.60291 -0.07900
C 	C 	0.17460 0.04026 0.61913 0.36100
C 	C 	0.28210 0.09410 0.62822 0.02600
H 	H 	0.27650 0.07770 0.64050 0.02100
N 	N 	0.30802 0.10960 0.63085 -0.15300
O 	O 	0.15070 0.03080 0.60758 -0.38400
C 	C 	0.22080 0.07310 0.61006 -0.00600
H 	H 	0.23160 0.06180 0.62450 0.02800
C 	C 	0.21430 0.07800 0.61670 -0.01800
H 	H 	0.22230 0.06990 0.63470 0.03700
C 	C 	0.27240 0.10670 0.63950 0.00500
H 	H 	0.26670 0.09110 0.65290 0.01800
N 	N 	0.29620 0.12280 0.64280 -0.15900
O 	O 	0.18628 0.53082 0.14262 -0.40900
C 	C 	0.19025 0.56481 0.10291 -0.07900
C 	C 	0.17460 0.54026 0.11913 0.36100
C 	C 	0.28210 0.59410 0.12822 0.02600
H 	H 	0.27650 0.57770 0.14050 0.02200
N 	N 	0.30802 0.60960 0.13085 -0.15300
O 	O 	0.15070 0.53080 0.10758 -0.38400
C 	C 	0.22080 0.57310 0.11006 -0.00600
H 	H 	0.23160 0.56180 0.12450 0.02900
C 	C 	0.21430 0.57800 0.11670 -0.01800
H 	H 	0.22230 0.56990 0.13470 0.03700
C 	C 	0.27240 0.60670 0.13950 0.00600
H 	H 	0.26670 0.59110 0.15290 0.01800
N 	N 	0.29620 0.62280 0.14280 -0.15900
O 	O 	0.68628 0.03082 0.14262 -0.41000
C 	C 	0.69025 0.06481 0.10291 -0.07900
C 	C 	0.67460 0.04026 0.11913 0.36100
C 	C 	0.78210 0.09410 0.12822 0.02500
H 	H 	0.77650 0.07770 0.14050 0.02200
N 	N 	0.80802 0.10960 0.13085 -0.15300
O 	O 	0.65070 0.03080 0.10758 -0.38400
C 	C 	0.72080 0.07310 0.11006 -0.00600
H 	H 	0.73160 0.06180 0.12450 0.02800
C 	C 	0.71430 0.07800 0.11670 -0.01800
H 	H 	0.72230 0.06990 0.13470 0.03700
C 	C 	0.77240 0.10670 0.13950 0.00600
H 	H 	0.76670 0.09110 0.15290 0.01800
N 	N 	0.79620 0.12280 0.14280 -0.15900
O 	O 	0.68628 0.53082 0.64262 -0.40900
C 	C 	0.69025 0.56481 0.60291 -0.07900
C 	C 	0.67460 0.54026 0.61913 0.36100
C 	C 	0.78210 0.59410 0.62822 0.02700
H 	H 	0.77650 0.57770 0.64050 0.02100
N 	N 	0.80802 0.60960 0.63085 -0.15300
O 	O 	0.65070 0.53080 0.60758 -0.38400
C 	C 	0.72080 0.57310 0.61006 -0.00700
H 	H 	0.73160 0.56180 0.62450 0.02900
C 	C 	0.71430 0.57800 0.61670 -0.01700
H 	H 	0.72230 0.56990 0.63470 0.03700
C 	C 	0.77240 0.60670 0.63950 0.00500
H 	H 	0.76670 0.59110 0.65290 0.01800
N 	N 	0.79620 0.62280 0.64280 -0.15900
O 	O 	0.18628 0.96918 0.35738 -0.40700
C 	C 	0.19025 0.93519 0.39709 -0.07800
C 	C 	0.17460 0.95974 0.38087 0.36100
C 	C 	0.28210 0.90590 0.37178 0.02700
H 	H 	0.27650 0.92230 0.35950 0.02200
N 	N 	0.30802 0.89040 0.36915 -0.15300
O 	O 	0.15070 0.96920 0.39242 -0.38300
C 	C 	0.22080 0.92690 0.38994 -0.00700
H 	H 	0.23160 0.93820 0.37550 0.03000
C 	C 	0.21430 0.92200 0.38330 -0.01700
H 	H 	0.22230 0.93010 0.36530 0.03700
C 	C 	0.27240 0.89330 0.36050 0.00400
H 	H 	0.26670 0.90890 0.34710 0.01800
N 	N 	0.29620 0.87720 0.35720 -0.15900
O 	O 	0.18628 0.46918 0.85738 -0.40900
C 	C 	0.19025 0.43519 0.89709 -0.07800
C 	C 	0.17460 0.45974 0.88087 0.36100
C 	C 	0.28210 0.40590 0.87178 0.02800
H 	H 	0.27650 0.42230 0.85950 0.02100
N 	N 	0.30802 0.39040 0.86915 -0.15300
O 	O 	0.15070 0.46920 0.89242 -0.38400
C 	C 	0.22080 0.42690 0.88994 -0.00700
H 	H 	0.23160 0.43820 0.87550 0.02900
C 	C 	0.21430 0.42200 0.88330 -0.01700
H 	H 	0.22230 0.43010 0.86530 0.03700
C 	C 	0.27240 0.39330 0.86050 0.00400
H 	H 	0.26670 0.40890 0.84710 0.01800
N 	N 	0.29620 0.37720 0.85720 -0.15900
O 	O 	0.68628 0.96918 0.85738 -0.40700
C 	C 	0.69025 0.93519 0.89709 -0.07800
C 	C 	0.67460 0.95974 0.88087 0.36100
C 	C 	0.78210 0.90590 0.87178 0.02800
H 	H 	0.77650 0.92230 0.85950 0.02100
N 	N 	0.80802 0.89040 0.86915 -0.15300
O 	O 	0.65070 0.96920 0.89242 -0.38300
C 	C 	0.72080 0.92690 0.88994 -0.00800
H 	H 	0.73160 0.93820 0.87550 0.03000
C 	C 	0.71430 0.92200 0.88330 -0.01600
H 	H 	0.72230 0.93010 0.86530 0.03600
C 	C 	0.77240 0.89330 0.86050 0.00300
H 	H 	0.76670 0.90890 0.84710 0.01900
N 	N 	0.79620 0.87720 0.85720 -0.15900
O 	O 	0.68628 0.46918 0.35738 -0.40900
C 	C 	0.69025 0.43519 0.39709 -0.07800
C 	C 	0.67460 0.45974 0.38087 0.36100
C 	C 	0.78210 0.40590 0.37178 0.02700
H 	H 	0.77650 0.42230 0.35950 0.02200
N 	N 	0.80802 0.39040 0.36915 -0.15300
O 	O 	0.65070 0.46920 0.39242 -0.38400
C 	C 	0.72080 0.42690 0.38994 -0.00700
H 	H 	0.73160 0.43820 0.37550 0.02900
C 	C 	0.71430 0.42200 0.38330 -0.01700
H 	H 	0.72230 0.43010 0.36530 0.03700
C 	C 	0.77240 0.39330 0.36050 0.00500
H 	H 	0.76670 0.40890 0.34710 0.01800
N 	N 	0.79620 0.37720 0.35720 -0.15900
Cu	Cu	0.33225 0.00000 0.16775 0.90600
Cu	Cu	0.37414 0.00000 0.12586 0.93300
Cu	Cu	0.33225 0.50000 0.66775 0.90700
Cu	Cu	0.37414 0.50000 0.62586 0.93500
Cu	Cu	0.66775 0.00000 0.16775 0.90600
Cu	Cu	0.62586 0.00000 0.12586 0.93300
Cu	Cu	0.66775 0.50000 0.66775 0.90700
Cu	Cu	0.62586 0.50000 0.62586 0.93500
Cu	Cu	0.16775 0.50000 0.16775 0.90700
Cu	Cu	0.12586 0.50000 0.12586 0.93500
Cu	Cu	0.66775 0.00000 0.83225 0.90600
Cu	Cu	0.62586 0.00000 0.87414 0.93300
Cu	Cu	0.66775 0.50000 0.33225 0.90700
Cu	Cu	0.62586 0.50000 0.37414 0.93500
Cu	Cu	0.16775 0.00000 0.33225 0.90600
Cu	Cu	0.12586 0.00000 0.37414 0.93300
Cu	Cu	0.33225 0.00000 0.83225 0.90600
Cu	Cu	0.37414 0.00000 0.87414 0.93300
Cu	Cu	0.33225 0.50000 0.33225 0.90700
Cu	Cu	0.37414 0.50000 0.37414 0.93500
Cu	Cu	0.16775 0.33225 -0.00000 0.90600
Cu	Cu	0.12586 0.37414 -0.00000 0.93300
Cu	Cu	0.16775 0.83225 0.50000 0.90700
Cu	Cu	0.12586 0.87414 0.50000 0.93500
Cu	Cu	0.16775 0.66775 -0.00000 0.90600
Cu	Cu	0.12586 0.62586 -0.00000 0.93300
Cu	Cu	0.16775 0.16775 0.50000 0.90700
Cu	Cu	0.12586 0.12586 0.50000 0.93500
Cu	Cu	0.83225 0.66775 -0.00000 0.90600
Cu	Cu	0.87414 0.62586 -0.00000 0.93300
Cu	Cu	0.83225 0.16775 0.50000 0.90700
Cu	Cu	0.87414 0.12586 0.50000 0.93500
Cu	Cu	0.33225 0.16775 -0.00000 0.90600
Cu	Cu	0.37414 0.12586 -0.00000 0.93300
Cu	Cu	0.83225 0.33225 -0.00000 0.90600
Cu	Cu	0.87414 0.37414 -0.00000 0.93300
Cu	Cu	0.83225 0.83225 0.50000 0.90700
Cu	Cu	0.87414 0.87414 0.50000 0.93500
Cu	Cu	0.33225 0.33225 0.50000 0.90700
Cu	Cu	0.37414 0.37414 0.50000 0.93500
Cu	Cu	-0.00000 0.16775 0.33225 0.90600
Cu	Cu	0.00000 0.12586 0.37414 0.93300
Cu	Cu	0.50000 0.16775 0.83225 0.90700
Cu	Cu	0.50000 0.12586 0.87414 0.93500
Cu	Cu	-0.00000 0.16775 0.66775 0.90600
Cu	Cu	0.00000 0.12586 0.62586 0.93300
Cu	Cu	0.50000 0.16775 0.16775 0.90700
Cu	Cu	0.50000 0.12586 0.12586 0.93500
Cu	Cu	0.00000 0.83225 0.66775 0.90600
Cu	Cu	0.00000 0.87414 0.62586 0.93300
Cu	Cu	0.00000 0.33225 0.16775 0.90600
Cu	Cu	0.00000 0.37414 0.12586 0.93300
Cu	Cu	0.50000 0.83225 0.16775 0.90700
Cu	Cu	0.50000 0.87414 0.12586 0.93500
Cu	Cu	0.00000 0.83225 0.33225 0.90600
Cu	Cu	0.00000 0.87414 0.37414 0.93300
Cu	Cu	0.50000 0.83225 0.83225 0.90700
Cu	Cu	0.50000 0.87414 0.87414 0.93500
Cu	Cu	0.50000 0.33225 0.33225 0.90700
Cu	Cu	0.50000 0.37414 0.37414 0.93500
Cu	Cu	0.00000 0.33225 0.83225 0.90600
Cu	Cu	0.00000 0.37414 0.87414 0.93300
Cu	Cu	0.00000 0.66775 0.83225 0.90600
Cu	Cu	0.00000 0.62586 0.87414 0.93300
Cu	Cu	0.50000 0.66775 0.33225 0.90700
Cu	Cu	0.50000 0.62586 0.37414 0.93500
Cu	Cu	-0.00000 0.66775 0.16775 0.90600
Cu	Cu	0.00000 0.62586 0.12586 0.93300
Cu	Cu	0.50000 0.66775 0.66775 0.90700
Cu	Cu	0.50000 0.62586 0.62586 0.93500
Cu	Cu	0.50000 0.33225 0.66775 0.90700
Cu	Cu	0.50000 0.37414 0.62586 0.93500
Cu	Cu	0.33225 0.66775 0.50000 0.90700
Cu	Cu	0.37414 0.62586 0.50000 0.93500
Cu	Cu	0.66775 0.16775 -0.00000 0.90600
Cu	Cu	0.62586 0.12586 -0.00000 0.93300
Cu	Cu	0.66775 0.66775 0.50000 0.90700
Cu	Cu	0.62586 0.62586 0.50000 0.93500
Cu	Cu	0.66775 0.83225 -0.00000 0.90600
Cu	Cu	0.62586 0.87414 -0.00000 0.93300
Cu	Cu	0.66775 0.33225 0.50000 0.90700
Cu	Cu	0.62586 0.37414 0.50000 0.93500
Cu	Cu	0.33225 0.83225 -0.00000 0.90600
Cu	Cu	0.37414 0.87414 -0.00000 0.93300
Cu	Cu	0.16775 0.00000 0.66775 0.90600
Cu	Cu	0.12586 0.00000 0.62586 0.93300
Cu	Cu	0.16775 0.50000 0.83225 0.90700
Cu	Cu	0.12586 0.50000 0.87414 0.93500
Cu	Cu	0.83225 0.00000 0.33225 0.90600
Cu	Cu	0.87414 0.00000 0.37414 0.93300
Cu	Cu	0.83225 0.50000 0.83225 0.90700
Cu	Cu	0.87414 0.50000 0.87414 0.93500
Cu	Cu	0.83225 0.00000 0.66775 0.90600
Cu	Cu	0.87414 0.00000 0.62586 0.93300
Cu	Cu	0.83225 0.50000 0.16775 0.90700
Cu	Cu	0.87414 0.50000 0.12586 0.93500
C 	C 	0.42107 0.92107 0.17641 0.02400
H 	H 	0.42790 0.92790 0.15740 0.07000
C 	C 	0.39460 0.89460 0.26530 -0.00000
C 	C 	0.40340 0.90340 0.23430 0.01100
C 	C 	0.39620 0.89620 0.22690 -0.00200
C 	C 	0.38550 0.88550 0.25590 -0.02300
C 	C 	0.42107 0.42107 0.67641 0.02500
H 	H 	0.42790 0.42790 0.65740 0.07000
C 	C 	0.39460 0.39460 0.76530 -0.00100
C 	C 	0.40340 0.40340 0.73430 0.01200
C 	C 	0.39620 0.39620 0.72690 -0.00300
C 	C 	0.38550 0.38550 0.75590 -0.02300
C 	C 	0.57893 0.07893 0.17641 0.02500
H 	H 	0.57210 0.07210 0.15740 0.07000
C 	C 	0.60540 0.10540 0.26530 -0.00100
C 	C 	0.59660 0.09660 0.23430 0.01300
C 	C 	0.60380 0.10380 0.22690 -0.00400
C 	C 	0.61450 0.11450 0.25590 -0.02300
C 	C 	0.57893 0.57893 0.67641 0.02500
H 	H 	0.57210 0.57210 0.65740 0.07000
C 	C 	0.60540 0.60540 0.76530 -0.00100
C 	C 	0.59660 0.59660 0.73430 0.01200
C 	C 	0.60380 0.60380 0.72690 -0.00300
C 	C 	0.61450 0.61450 0.75590 -0.02300
C 	C 	0.07893 0.07893 0.67641 0.02400
H 	H 	0.07210 0.07210 0.65740 0.07000
C 	C 	0.10540 0.10540 0.76530 -0.00200
C 	C 	0.09660 0.09660 0.73430 0.01400
C 	C 	0.10380 0.10380 0.72690 -0.00500
C 	C 	0.11450 0.11450 0.75590 -0.02300
C 	C 	0.57893 0.92107 0.82359 0.02400
H 	H 	0.57210 0.92790 0.84260 0.07000
C 	C 	0.60540 0.89460 0.73470 -0.00000
C 	C 	0.59660 0.90340 0.76570 0.01100
C 	C 	0.60380 0.89620 0.77310 -0.00200
C 	C 	0.61450 0.88550 0.74410 -0.02300
C 	C 	0.57893 0.42107 0.32359 0.02500
H 	H 	0.57210 0.42790 0.34260 0.07000
C 	C 	0.60540 0.39460 0.23470 -0.00100
C 	C 	0.59660 0.40340 0.26570 0.01200
C 	C 	0.60380 0.39620 0.27310 -0.00300
C 	C 	0.61450 0.38550 0.24410 -0.02300
C 	C 	0.07893 0.42107 0.82359 0.02400
H 	H 	0.07210 0.42790 0.84260 0.07000
C 	C 	0.10540 0.39460 0.73470 -0.00100
C 	C 	0.09660 0.40340 0.76570 0.01300
C 	C 	0.10380 0.39620 0.77310 -0.00400
C 	C 	0.11450 0.38550 0.74410 -0.02300
C 	C 	0.42107 0.07893 0.82359 0.02400
H 	H 	0.42790 0.07210 0.84260 0.07000
C 	C 	0.39460 0.10540 0.73470 -0.00100
C 	C 	0.40340 0.09660 0.76570 0.01300
C 	C 	0.39620 0.10380 0.77310 -0.00400
C 	C 	0.38550 0.11450 0.74410 -0.02300
C 	C 	0.42107 0.57893 0.32359 0.02500
H 	H 	0.42790 0.57210 0.34260 0.07000
C 	C 	0.39460 0.60540 0.23470 -0.00100
C 	C 	0.40340 0.59660 0.26570 0.01200
C 	C 	0.39620 0.60380 0.27310 -0.00300
C 	C 	0.38550 0.61450 0.24410 -0.02300
C 	C 	0.17641 0.42107 0.92107 0.02400
H 	H 	0.15740 0.42790 0.92790 0.07000
C 	C 	0.26530 0.39460 0.89460 -0.00000
C 	C 	0.23430 0.40340 0.90340 0.01100
C 	C 	0.22690 0.39620 0.89620 -0.00200
C 	C 	0.25590 0.38550 0.88550 -0.02300
C 	C 	0.67641 0.42107 0.42107 0.02500
H 	H 	0.65740 0.42790 0.42790 0.07000
C 	C 	0.76530 0.39460 0.39460 -0.00100
C 	C 	0.73430 0.40340 0.40340 0.01200
C 	C 	0.72690 0.39620 0.39620 -0.00300
C 	C 	0.75590 0.38550 0.38550 -0.02300
C 	C 	0.17641 0.57893 0.07893 0.02500
H 	H 	0.15740 0.57210 0.07210 0.07000
C 	C 	0.26530 0.60540 0.10540 -0.00100
C 	C 	0.23430 0.59660 0.09660 0.01300
C 	C 	0.22690 0.60380 0.10380 -0.00400
C 	C 	0.25590 0.61450 0.11450 -0.02300
C 	C 	0.67641 0.57893 0.57893 0.02500
H 	H 	0.65740 0.57210 0.57210 0.07000
C 	C 	0.76530 0.60540 0.60540 -0.00100
C 	C 	0.73430 0.59660 0.59660 0.01200
C 	C 	0.72690 0.60380 0.60380 -0.00300
C 	C 	0.75590 0.61450 0.61450 -0.02300
C 	C 	0.67641 0.07893 0.07893 0.02400
H 	H 	0.65740 0.07210 0.07210 0.07000
C 	C 	0.76530 0.10540 0.10540 -0.00200
C 	C 	0.73430 0.09660 0.09660 0.01400
C 	C 	0.72690 0.10380 0.10380 -0.00500
C 	C 	0.75590 0.11450 0.11450 -0.02300
C 	C 	0.82359 0.57893 0.92107 0.02400
H 	H 	0.84260 0.57210 0.92790 0.07000
C 	C 	0.73470 0.60540 0.89460 -0.00000
C 	C 	0.76570 0.59660 0.90340 0.01100
C 	C 	0.77310 0.60380 0.89620 -0.00200
C 	C 	0.74410 0.61450 0.88550 -0.02300
C 	C 	0.82359 0.07893 0.42107 0.02400
H 	H 	0.84260 0.07210 0.42790 0.07000
C 	C 	0.73470 0.10540 0.39460 -0.00100
C 	C 	0.76570 0.09660 0.40340 0.01300
C 	C 	0.77310 0.10380 0.39620 -0.00400
C 	C 	0.74410 0.11450 0.38550 -0.02300
C 	C 	0.32359 0.57893 0.42107 0.02500
H 	H 	0.34260 0.57210 0.42790 0.07000
C 	C 	0.23470 0.60540 0.39460 -0.00100
C 	C 	0.26570 0.59660 0.40340 0.01200
C 	C 	0.27310 0.60380 0.39620 -0.00300
C 	C 	0.24410 0.61450 0.38550 -0.02300
C 	C 	0.82359 0.42107 0.07893 0.02400
H 	H 	0.84260 0.42790 0.07210 0.07000
C 	C 	0.73470 0.39460 0.10540 -0.00100
C 	C 	0.76570 0.40340 0.09660 0.01300
C 	C 	0.77310 0.39620 0.10380 -0.00400
C 	C 	0.74410 0.38550 0.11450 -0.02300
C 	C 	0.32359 0.42107 0.57893 0.02500
H 	H 	0.34260 0.42790 0.57210 0.07000
C 	C 	0.23470 0.39460 0.60540 -0.00100
C 	C 	0.26570 0.40340 0.59660 0.01200
C 	C 	0.27310 0.39620 0.60380 -0.00300
C 	C 	0.24410 0.38550 0.61450 -0.02300
C 	C 	0.92107 0.17641 0.42107 0.02400
H 	H 	0.92790 0.15740 0.42790 0.07000
C 	C 	0.89460 0.26530 0.39460 -0.00000
C 	C 	0.90340 0.23430 0.40340 0.01100
C 	C 	0.89620 0.22690 0.39620 -0.00200
C 	C 	0.88550 0.25590 0.38550 -0.02300
C 	C 	0.92107 0.67641 0.92107 0.02400
H 	H 	0.92790 0.65740 0.92790 0.07000
C 	C 	0.89460 0.76530 0.89460 0.00000
C 	C 	0.90340 0.73430 0.90340 0.01000
C 	C 	0.89620 0.72690 0.89620 -0.00000
C 	C 	0.88550 0.75590 0.88550 -0.02300
C 	C 	0.42107 0.67641 0.42107 0.02500
H 	H 	0.42790 0.65740 0.42790 0.07000
C 	C 	0.39460 0.76530 0.39460 -0.00100
C 	C 	0.40340 0.73430 0.40340 0.01200
C 	C 	0.39620 0.72690 0.39620 -0.00300
C 	C 	0.38550 0.75590 0.38550 -0.02300
C 	C 	0.07893 0.17641 0.57893 0.02500
H 	H 	0.07210 0.15740 0.57210 0.07000
C 	C 	0.10540 0.26530 0.60540 -0.00100
C 	C 	0.09660 0.23430 0.59660 0.01300
C 	C 	0.10380 0.22690 0.60380 -0.00400
C 	C 	0.11450 0.25590 0.61450 -0.02300
C 	C 	0.07893 0.67641 0.07893 0.02400
H 	H 	0.07210 0.65740 0.07210 0.07000
C 	C 	0.10540 0.76530 0.10540 -0.00200
C 	C 	0.09660 0.73430 0.09660 0.01400
C 	C 	0.10380 0.72690 0.10380 -0.00500
C 	C 	0.11450 0.75590 0.11450 -0.02300
C 	C 	0.92107 0.82359 0.57893 0.02400
H 	H 	0.92790 0.84260 0.57210 0.07000
C 	C 	0.89460 0.73470 0.60540 -0.00000
C 	C 	0.90340 0.76570 0.59660 0.01100
C 	C 	0.89620 0.77310 0.60380 -0.00200
C 	C 	0.88550 0.74410 0.61450 -0.02300
C 	C 	0.92107 0.32359 0.07893 0.02400
H 	H 	0.92790 0.34260 0.07210 0.07000
C 	C 	0.89460 0.23470 0.10540 -0.00100
C 	C 	0.90340 0.26570 0.09660 0.01200
C 	C 	0.89620 0.27310 0.10380 -0.00300
C 	C 	0.88550 0.24410 0.11450 -0.02300
C 	C 	0.42107 0.82359 0.07893 0.02400
H 	H 	0.42790 0.84260 0.07210 0.07000
C 	C 	0.39460 0.73470 0.10540 -0.00100
C 	C 	0.40340 0.76570 0.09660 0.01300
C 	C 	0.39620 0.77310 0.10380 -0.00400
C 	C 	0.38550 0.74410 0.11450 -0.02300
C 	C 	0.07893 0.82359 0.42107 0.02400
H 	H 	0.07210 0.84260 0.42790 0.07000
C 	C 	0.10540 0.73470 0.39460 -0.00100
C 	C 	0.09660 0.76570 0.40340 0.01300
C 	C 	0.10380 0.77310 0.39620 -0.00400
C 	C 	0.11450 0.74410 0.38550 -0.02300
C 	C 	0.07893 0.32359 0.92107 0.02400
H 	H 	0.07210 0.34260 0.92790 0.07000
C 	C 	0.10540 0.23470 0.89460 -0.00100
C 	C 	0.09660 0.26570 0.90340 0.01200
C 	C 	0.10380 0.27310 0.89620 -0.00300
C 	C 	0.11450 0.24410 0.88550 -0.02300
C 	C 	0.92107 0.42107 0.82359 0.02400
H 	H 	0.92790 0.42790 0.84260 0.07000
C 	C 	0.89460 0.39460 0.73470 -0.00000
C 	C 	0.90340 0.40340 0.76570 0.01100
C 	C 	0.89620 0.39620 0.77310 -0.00200
C 	C 	0.88550 0.38550 0.74410 -0.02300
C 	C 	0.92107 0.92107 0.32359 0.02400
H 	H 	0.92790 0.92790 0.34260 0.07000
C 	C 	0.89460 0.89460 0.23470 0.00000
C 	C 	0.90340 0.90340 0.26570 0.01000
C 	C 	0.89620 0.89620 0.27310 -0.00100
C 	C 	0.88550 0.88550 0.24410 -0.02300
C 	C 	0.42107 0.42107 0.32359 0.02500
H 	H 	0.42790 0.42790 0.34260 0.07000
C 	C 	0.39460 0.39460 0.23470 -0.00100
C 	C 	0.40340 0.40340 0.26570 0.01200
C 	C 	0.39620 0.39620 0.27310 -0.00300
C 	C 	0.38550 0.38550 0.24410 -0.02300
C 	C 	0.07893 0.57893 0.82359 0.02400
H 	H 	0.07210 0.57210 0.84260 0.07000
C 	C 	0.10540 0.60540 0.73470 -0.00100
C 	C 	0.09660 0.59660 0.76570 0.01300
C 	C 	0.10380 0.60380 0.77310 -0.00400
C 	C 	0.11450 0.61450 0.74410 -0.02300
C 	C 	0.07893 0.07893 0.32359 0.02400
H 	H 	0.07210 0.07210 0.34260 0.07000
C 	C 	0.10540 0.10540 0.23470 -0.00200
C 	C 	0.09660 0.09660 0.26570 0.01500
C 	C 	0.10380 0.10380 0.27310 -0.00600
C 	C 	0.11450 0.11450 0.24410 -0.02200
C 	C 	0.92107 0.57893 0.17641 0.02400
H 	H 	0.92790 0.57210 0.15740 0.07000
C 	C 	0.89460 0.60540 0.26530 -0.00000
C 	C 	0.90340 0.59660 0.23430 0.01100
C 	C 	0.89620 0.60380 0.22690 -0.00200
C 	C 	0.88550 0.61450 0.25590 -0.02300
C 	C 	0.92107 0.07893 0.67641 0.02400
H 	H 	0.92790 0.07210 0.65740 0.07000
C 	C 	0.89460 0.10540 0.76530 -0.00100
C 	C 	0.90340 0.09660 0.73430 0.01200
C 	C 	0.89620 0.10380 0.72690 -0.00300
C 	C 	0.88550 0.11450 0.75590 -0.02300
C 	C 	0.42107 0.07893 0.17641 0.02500
H 	H 	0.42790 0.07210 0.15740 0.07000
C 	C 	0.39460 0.10540 0.26530 -0.00100
C 	C 	0.40340 0.09660 0.23430 0.01400
C 	C 	0.39620 0.10380 0.22690 -0.00400
C 	C 	0.38550 0.11450 0.25590 -0.02300
C 	C 	0.07893 0.42107 0.17641 0.02500
H 	H 	0.07210 0.42790 0.15740 0.07000
C 	C 	0.10540 0.39460 0.26530 -0.00100
C 	C 	0.09660 0.40340 0.23430 0.01400
C 	C 	0.10380 0.39620 0.22690 -0.00400
C 	C 	0.11450 0.38550 0.25590 -0.02300
C 	C 	0.07893 0.92107 0.67641 0.02400
H 	H 	0.07210 0.92790 0.65740 0.07000
C 	C 	0.10540 0.89460 0.76530 -0.00100
C 	C 	0.09660 0.90340 0.73430 0.01200
C 	C 	0.10380 0.89620 0.72690 -0.00300
C 	C 	0.11450 0.88550 0.75590 -0.02300
C 	C 	0.42107 0.17641 0.07893 0.02500
H 	H 	0.42790 0.15740 0.07210 0.07000
C 	C 	0.39460 0.26530 0.10540 -0.00100
C 	C 	0.40340 0.23430 0.09660 0.01400
C 	C 	0.39620 0.22690 0.10380 -0.00400
C 	C 	0.38550 0.25590 0.11450 -0.02300
C 	C 	0.42107 0.67641 0.57893 0.02500
H 	H 	0.42790 0.65740 0.57210 0.07000
C 	C 	0.39460 0.76530 0.60540 -0.00100
C 	C 	0.40340 0.73430 0.59660 0.01200
C 	C 	0.39620 0.72690 0.60380 -0.00300
C 	C 	0.38550 0.75590 0.61450 -0.02300
C 	C 	0.57893 0.17641 0.92107 0.02400
H 	H 	0.57210 0.15740 0.92790 0.07000
C 	C 	0.60540 0.26530 0.89460 -0.00000
C 	C 	0.59660 0.23430 0.90340 0.01100
C 	C 	0.60380 0.22690 0.89620 -0.00200
C 	C 	0.61450 0.25590 0.88550 -0.02300
C 	C 	0.57893 0.67641 0.42107 0.02500
H 	H 	0.57210 0.65740 0.42790 0.07000
C 	C 	0.60540 0.76530 0.39460 -0.00100
C 	C 	0.59660 0.73430 0.40340 0.01200
C 	C 	0.60380 0.72690 0.39620 -0.00300
C 	C 	0.61450 0.75590 0.38550 -0.02300
C 	C 	0.07893 0.17641 0.42107 0.02500
H 	H 	0.07210 0.15740 0.42790 0.07000
C 	C 	0.10540 0.26530 0.39460 -0.00100
C 	C 	0.09660 0.23430 0.40340 0.01400
C 	C 	0.10380 0.22690 0.39620 -0.00400
C 	C 	0.11450 0.25590 0.38550 -0.02300
C 	C 	0.57893 0.82359 0.07893 0.02400
H 	H 	0.57210 0.84260 0.07210 0.07000
C 	C 	0.60540 0.73470 0.10540 -0.00100
C 	C 	0.59660 0.76570 0.09660 0.01300
C 	C 	0.60380 0.77310 0.10380 -0.00400
C 	C 	0.61450 0.74410 0.11450 -0.02300
C 	C 	0.57893 0.32359 0.57893 0.02500
H 	H 	0.57210 0.34260 0.57210 0.07000
C 	C 	0.60540 0.23470 0.60540 -0.00100
C 	C 	0.59660 0.26570 0.59660 0.01200
C 	C 	0.60380 0.27310 0.60380 -0.00300
C 	C 	0.61450 0.24410 0.61450 -0.02300
C 	C 	0.07893 0.32359 0.07893 0.02400
H 	H 	0.07210 0.34260 0.07210 0.07000
C 	C 	0.10540 0.23470 0.10540 -0.00200
C 	C 	0.09660 0.26570 0.09660 0.01500
C 	C 	0.10380 0.27310 0.10380 -0.00600
C 	C 	0.11450 0.24410 0.11450 -0.02200
C 	C 	0.42107 0.82359 0.92107 0.02400
H 	H 	0.42790 0.84260 0.92790 0.07000
C 	C 	0.39460 0.73470 0.89460 -0.00000
C 	C 	0.40340 0.76570 0.90340 0.01100
C 	C 	0.39620 0.77310 0.89620 -0.00200
C 	C 	0.38550 0.74410 0.88550 -0.02300
C 	C 	0.42107 0.32359 0.42107 0.02500
H 	H 	0.42790 0.34260 0.42790 0.07000
C 	C 	0.39460 0.23470 0.39460 -0.00100
C 	C 	0.40340 0.26570 0.40340 0.01200
C 	C 	0.39620 0.27310 0.39620 -0.00300
C 	C 	0.38550 0.24410 0.38550 -0.02300
C 	C 	0.17641 0.92107 0.57893 0.02400
H 	H 	0.15740 0.92790 0.57210 0.07000
C 	C 	0.26530 0.89460 0.60540 -0.00000
C 	C 	0.23430 0.90340 0.59660 0.01100
C 	C 	0.22690 0.89620 0.60380 -0.00200
C 	C 	0.25590 0.88550 0.61450 -0.02300
C 	C 	0.17641 0.42107 0.07893 0.02500
H 	H 	0.15740 0.42790 0.07210 0.07000
C 	C 	0.26530 0.39460 0.10540 -0.00100
C 	C 	0.23430 0.40340 0.09660 0.01400
C 	C 	0.22690 0.39620 0.10380 -0.00400
C 	C 	0.25590 0.38550 0.11450 -0.02300
C 	C 	0.67641 0.92107 0.07893 0.02400
H 	H 	0.65740 0.92790 0.07210 0.07000
C 	C 	0.76530 0.89460 0.10540 -0.00100
C 	C 	0.73430 0.90340 0.09660 0.01200
C 	C 	0.72690 0.89620 0.10380 -0.00300
C 	C 	0.75590 0.88550 0.11450 -0.02300
C 	C 	0.17641 0.07893 0.42107 0.02500
H 	H 	0.15740 0.07210 0.42790 0.07000
C 	C 	0.26530 0.10540 0.39460 -0.00100
C 	C 	0.23430 0.09660 0.40340 0.01400
C 	C 	0.22690 0.10380 0.39620 -0.00400
C 	C 	0.25590 0.11450 0.38550 -0.02300
C 	C 	0.67641 0.07893 0.92107 0.02400
H 	H 	0.65740 0.07210 0.92790 0.07000
C 	C 	0.76530 0.10540 0.89460 -0.00100
C 	C 	0.73430 0.09660 0.90340 0.01200
C 	C 	0.72690 0.10380 0.89620 -0.00300
C 	C 	0.75590 0.11450 0.88550 -0.02300
C 	C 	0.82359 0.92107 0.42107 0.02400
H 	H 	0.84260 0.92790 0.42790 0.07000
C 	C 	0.73470 0.89460 0.39460 -0.00000
C 	C 	0.76570 0.90340 0.40340 0.01100
C 	C 	0.77310 0.89620 0.39620 -0.00200
C 	C 	0.74410 0.88550 0.38550 -0.02300
C 	C 	0.32359 0.92107 0.92107 0.02400
H 	H 	0.34260 0.92790 0.92790 0.07000
C 	C 	0.23470 0.89460 0.89460 0.00000
C 	C 	0.26570 0.90340 0.90340 0.01000
C 	C 	0.27310 0.89620 0.89620 -0.00100
C 	C 	0.24410 0.88550 0.88550 -0.02300
C 	C 	0.32359 0.42107 0.42107 0.02500
H 	H 	0.34260 0.42790 0.42790 0.07000
C 	C 	0.23470 0.39460 0.39460 -0.00100
C 	C 	0.26570 0.40340 0.40340 0.01200
C 	C 	0.27310 0.39620 0.39620 -0.00300
C 	C 	0.24410 0.38550 0.38550 -0.02300
C 	C 	0.82359 0.07893 0.57893 0.02400
H 	H 	0.84260 0.07210 0.57210 0.07000
C 	C 	0.73470 0.10540 0.60540 -0.00100
C 	C 	0.76570 0.09660 0.59660 0.01300
C 	C 	0.77310 0.10380 0.60380 -0.00400
C 	C 	0.74410 0.11450 0.61450 -0.02300
C 	C 	0.32359 0.07893 0.07893 0.02400
H 	H 	0.34260 0.07210 0.07210 0.07000
C 	C 	0.23470 0.10540 0.10540 -0.00200
C 	C 	0.26570 0.09660 0.09660 0.01500
C 	C 	0.27310 0.10380 0.10380 -0.00600
C 	C 	0.24410 0.11450 0.11450 -0.02200
C 	C 	0.57893 0.07893 0.82359 0.02400
H 	H 	0.57210 0.07210 0.84260 0.07000
C 	C 	0.60540 0.10540 0.73470 -0.00100
C 	C 	0.59660 0.09660 0.76570 0.01300
C 	C 	0.60380 0.10380 0.77310 -0.00400
C 	C 	0.61450 0.11450 0.74410 -0.02300
C 	C 	0.57893 0.57893 0.32359 0.02500
H 	H 	0.57210 0.57210 0.34260 0.07000
C 	C 	0.60540 0.60540 0.23470 -0.00100
C 	C 	0.59660 0.59660 0.26570 0.01200
C 	C 	0.60380 0.60380 0.27310 -0.00300
C 	C 	0.61450 0.61450 0.24410 -0.02300
C 	C 	0.42107 0.92107 0.82359 0.02400
H 	H 	0.42790 0.92790 0.84260 0.07000
C 	C 	0.39460 0.89460 0.73470 -0.00000
C 	C 	0.40340 0.90340 0.76570 0.01100
C 	C 	0.39620 0.89620 0.77310 -0.00200
C 	C 	0.38550 0.88550 0.74410 -0.02300
C 	C 	0.42107 0.57893 0.67641 0.02500
H 	H 	0.42790 0.57210 0.65740 0.07000
C 	C 	0.39460 0.60540 0.76530 -0.00100
C 	C 	0.40340 0.59660 0.73430 0.01200
C 	C 	0.39620 0.60380 0.72690 -0.00300
C 	C 	0.38550 0.61450 0.75590 -0.02300
C 	C 	0.57893 0.92107 0.17641 0.02400
H 	H 	0.57210 0.92790 0.15740 0.07000
C 	C 	0.60540 0.89460 0.26530 -0.00000
C 	C 	0.59660 0.90340 0.23430 0.01100
C 	C 	0.60380 0.89620 0.22690 -0.00200
C 	C 	0.61450 0.88550 0.25590 -0.02300
C 	C 	0.57893 0.42107 0.67641 0.02500
H 	H 	0.57210 0.42790 0.65740 0.07000
C 	C 	0.60540 0.39460 0.76530 -0.00100
C 	C 	0.59660 0.40340 0.73430 0.01200
C 	C 	0.60380 0.39620 0.72690 -0.00300
C 	C 	0.61450 0.38550 0.75590 -0.02300
C 	C 	0.82359 0.57893 0.07893 0.02400
H 	H 	0.84260 0.57210 0.07210 0.07000
C 	C 	0.73470 0.60540 0.10540 -0.00100
C 	C 	0.76570 0.59660 0.09660 0.01300
C 	C 	0.77310 0.60380 0.10380 -0.00400
C 	C 	0.74410 0.61450 0.11450 -0.02300
C 	C 	0.32359 0.57893 0.57893 0.02500
H 	H 	0.34260 0.57210 0.57210 0.07000
C 	C 	0.23470 0.60540 0.60540 -0.00100
C 	C 	0.26570 0.59660 0.59660 0.01200
C 	C 	0.27310 0.60380 0.60380 -0.00300
C 	C 	0.24410 0.61450 0.61450 -0.02300
C 	C 	0.82359 0.42107 0.92107 0.02400
H 	H 	0.84260 0.42790 0.92790 0.07000
C 	C 	0.73470 0.39460 0.89460 -0.00000
C 	C 	0.76570 0.40340 0.90340 0.01100
C 	C 	0.77310 0.39620 0.89620 -0.00200
C 	C 	0.74410 0.38550 0.88550 -0.02300
C 	C 	0.67641 0.42107 0.57893 0.02500
H 	H 	0.65740 0.42790 0.57210 0.07000
C 	C 	0.76530 0.39460 0.60540 -0.00100
C 	C 	0.73430 0.40340 0.59660 0.01200
C 	C 	0.72690 0.39620 0.60380 -0.00300
C 	C 	0.75590 0.38550 0.61450 -0.02300
C 	C 	0.17641 0.57893 0.92107 0.02400
H 	H 	0.15740 0.57210 0.92790 0.07000
C 	C 	0.26530 0.60540 0.89460 -0.00000
C 	C 	0.23430 0.59660 0.90340 0.01100
C 	C 	0.22690 0.60380 0.89620 -0.00200
C 	C 	0.25590 0.61450 0.88550 -0.02300
C 	C 	0.67641 0.57893 0.42107 0.02500
H 	H 	0.65740 0.57210 0.42790 0.07000
C 	C 	0.76530 0.60540 0.39460 -0.00100
C 	C 	0.73430 0.59660 0.40340 0.01200
C 	C 	0.72690 0.60380 0.39620 -0.00300
C 	C 	0.75590 0.61450 0.38550 -0.02300
C 	C 	0.07893 0.82359 0.57893 0.02400
H 	H 	0.07210 0.84260 0.57210 0.07000
C 	C 	0.10540 0.73470 0.60540 -0.00100
C 	C 	0.09660 0.76570 0.59660 0.01300
C 	C 	0.10380 0.77310 0.60380 -0.00400
C 	C 	0.11450 0.74410 0.61450 -0.02300
C 	C 	0.92107 0.82359 0.42107 0.02400
H 	H 	0.92790 0.84260 0.42790 0.07000
C 	C 	0.89460 0.73470 0.39460 -0.00000
C 	C 	0.90340 0.76570 0.40340 0.01100
C 	C 	0.89620 0.77310 0.39620 -0.00200
C 	C 	0.88550 0.74410 0.38550 -0.02300
C 	C 	0.92107 0.32359 0.92107 0.02400
H 	H 	0.92790 0.34260 0.92790 0.07000
C 	C 	0.89460 0.23470 0.89460 0.00000
C 	C 	0.90340 0.26570 0.90340 0.01000
C 	C 	0.89620 0.27310 0.89620 -0.00100
C 	C 	0.88550 0.24410 0.88550 -0.02300
C 	C 	0.07893 0.67641 0.92107 0.02400
H 	H 	0.07210 0.65740 0.92790 0.07000
C 	C 	0.10540 0.76530 0.89460 -0.00100
C 	C 	0.09660 0.73430 0.90340 0.01200
C 	C 	0.10380 0.72690 0.89620 -0.00300
C 	C 	0.11450 0.75590 0.88550 -0.02300
C 	C 	0.92107 0.17641 0.57893 0.02400
H 	H 	0.92790 0.15740 0.57210 0.07000
C 	C 	0.89460 0.26530 0.60540 -0.00000
C 	C 	0.90340 0.23430 0.59660 0.01100
C 	C 	0.89620 0.22690 0.60380 -0.00200
C 	C 	0.88550 0.25590 0.61450 -0.02300
C 	C 	0.92107 0.67641 0.07893 0.02400
H 	H 	0.92790 0.65740 0.07210 0.07000
C 	C 	0.89460 0.76530 0.10540 -0.00100
C 	C 	0.90340 0.73430 0.09660 0.01200
C 	C 	0.89620 0.72690 0.10380 -0.00300
C 	C 	0.88550 0.75590 0.11450 -0.02300
C 	C 	0.07893 0.57893 0.17641 0.02500
H 	H 	0.07210 0.57210 0.15740 0.07000
C 	C 	0.10540 0.60540 0.26530 -0.00100
C 	C 	0.09660 0.59660 0.23430 0.01300
C 	C 	0.10380 0.60380 0.22690 -0.00400
C 	C 	0.11450 0.61450 0.25590 -0.02300
C 	C 	0.92107 0.42107 0.17641 0.02400
H 	H 	0.92790 0.42790 0.15740 0.07000
C 	C 	0.89460 0.39460 0.26530 -0.00000
C 	C 	0.90340 0.40340 0.23430 0.01100
C 	C 	0.89620 0.39620 0.22690 -0.00200
C 	C 	0.88550 0.38550 0.25590 -0.02300
C 	C 	0.92107 0.92107 0.67641 0.02400
H 	H 	0.92790 0.92790 0.65740 0.07000
C 	C 	0.89460 0.89460 0.76530 0.00000
C 	C 	0.90340 0.90340 0.73430 0.01000
C 	C 	0.89620 0.89620 0.72690 -0.00000
C 	C 	0.88550 0.88550 0.75590 -0.02300
C 	C 	0.07893 0.92107 0.32359 0.02400
H 	H 	0.07210 0.92790 0.34260 0.07000
C 	C 	0.10540 0.89460 0.23470 -0.00100
C 	C 	0.09660 0.90340 0.26570 0.01200
C 	C 	0.10380 0.89620 0.27310 -0.00300
C 	C 	0.11450 0.88550 0.24410 -0.02300
C 	C 	0.92107 0.57893 0.82359 0.02400
H 	H 	0.92790 0.57210 0.84260 0.07000
C 	C 	0.89460 0.60540 0.73470 -0.00000
C 	C 	0.90340 0.59660 0.76570 0.01100
C 	C 	0.89620 0.60380 0.77310 -0.00200
C 	C 	0.88550 0.61450 0.74410 -0.02300
C 	C 	0.92107 0.07893 0.32359 0.02400
H 	H 	0.92790 0.07210 0.34260 0.07000
C 	C 	0.89460 0.10540 0.23470 -0.00100
C 	C 	0.90340 0.09660 0.26570 0.01200
C 	C 	0.89620 0.10380 0.27310 -0.00300
C 	C 	0.88550 0.11450 0.24410 -0.02300
C 	C 	0.57893 0.82359 0.92107 0.02400
H 	H 	0.57210 0.84260 0.92790 0.07000
C 	C 	0.60540 0.73470 0.89460 -0.00000
C 	C 	0.59660 0.76570 0.90340 0.01100
C 	C 	0.60380 0.77310 0.89620 -0.00200
C 	C 	0.61450 0.74410 0.88550 -0.02300
C 	C 	0.57893 0.32359 0.42107 0.02500
H 	H 	0.57210 0.34260 0.42790 0.07000
C 	C 	0.60540 0.23470 0.39460 -0.00100
C 	C 	0.59660 0.26570 0.40340 0.01200
C 	C 	0.60380 0.27310 0.39620 -0.00300
C 	C 	0.61450 0.24410 0.38550 -0.02300
C 	C 	0.42107 0.32359 0.57893 0.02500
H 	H 	0.42790 0.34260 0.57210 0.07000
C 	C 	0.39460 0.23470 0.60540 -0.00100
C 	C 	0.40340 0.26570 0.59660 0.01200
C 	C 	0.39620 0.27310 0.60380 -0.00300
C 	C 	0.38550 0.24410 0.61450 -0.02300
C 	C 	0.42107 0.17641 0.92107 0.02400
H 	H 	0.42790 0.15740 0.92790 0.07000
C 	C 	0.39460 0.26530 0.89460 -0.00000
C 	C 	0.40340 0.23430 0.90340 0.01100
C 	C 	0.39620 0.22690 0.89620 -0.00200
C 	C 	0.38550 0.25590 0.88550 -0.02300
C 	C 	0.57893 0.17641 0.07893 0.02500
H 	H 	0.57210 0.15740 0.07210 0.07000
C 	C 	0.60540 0.26530 0.10540 -0.00100
C 	C 	0.59660 0.23430 0.09660 0.01300
C 	C 	0.60380 0.22690 0.10380 -0.00400
C 	C 	0.61450 0.25590 0.11450 -0.02300
C 	C 	0.57893 0.67641 0.57893 0.02500
H 	H 	0.57210 0.65740 0.57210 0.07000
C 	C 	0.60540 0.76530 0.60540 -0.00100
C 	C 	0.59660 0.73430 0.59660 0.01200
C 	C 	0.60380 0.72690 0.60380 -0.00300
C 	C 	0.61450 0.75590 0.61450 -0.02300
C 	C 	0.32359 0.07893 0.92107 0.02400
H 	H 	0.34260 0.07210 0.92790 0.07000
C 	C 	0.23470 0.10540 0.89460 -0.00100
C 	C 	0.26570 0.09660 0.90340 0.01200
C 	C 	0.27310 0.10380 0.89620 -0.00300
C 	C 	0.24410 0.11450 0.88550 -0.02300
C 	C 	0.82359 0.92107 0.57893 0.02400
H 	H 	0.84260 0.92790 0.57210 0.07000
C 	C 	0.73470 0.89460 0.60540 -0.00000
C 	C 	0.76570 0.90340 0.59660 0.01100
C 	C 	0.77310 0.89620 0.60380 -0.00200
C 	C 	0.74410 0.88550 0.61450 -0.02300
C 	C 	0.32359 0.92107 0.07893 0.02400
H 	H 	0.34260 0.92790 0.07210 0.07000
C 	C 	0.23470 0.89460 0.10540 -0.00100
C 	C 	0.26570 0.90340 0.09660 0.01200
C 	C 	0.27310 0.89620 0.10380 -0.00300
C 	C 	0.24410 0.88550 0.11450 -0.02300
C 	C 	0.17641 0.07893 0.57893 0.02500
H 	H 	0.15740 0.07210 0.57210 0.07000
C 	C 	0.26530 0.10540 0.60540 -0.00100
C 	C 	0.23430 0.09660 0.59660 0.01300
C 	C 	0.22690 0.10380 0.60380 -0.00400
C 	C 	0.25590 0.11450 0.61450 -0.02300
C 	C 	0.17641 0.92107 0.42107 0.02400
H 	H 	0.15740 0.92790 0.42790 0.07000
C 	C 	0.26530 0.89460 0.39460 -0.00000
C 	C 	0.23430 0.90340 0.40340 0.01100
C 	C 	0.22690 0.89620 0.39620 -0.00200
C 	C 	0.25590 0.88550 0.38550 -0.02300
C 	C 	0.67641 0.92107 0.92107 0.02400
H 	H 	0.65740 0.92790 0.92790 0.07000
C 	C 	0.76530 0.89460 0.89460 0.00000
C 	C 	0.73430 0.90340 0.90340 0.01000
C 	C 	0.72690 0.89620 0.89620 -0.00000
C 	C 	0.75590 0.88550 0.88550 -0.02300
Cu	Cu	0.33901 0.89157 0.33901 0.70900
O 	O 	0.32770 0.93680 0.32770 -0.21900
O 	O 	0.30700 0.91550 0.30700 -0.27200
Cu	Cu	0.32430 0.87440 0.32430 0.70200
Cu	Cu	0.33901 0.39157 0.83901 0.70900
O 	O 	0.32770 0.43680 0.82770 -0.22000
O 	O 	0.30700 0.41550 0.80700 -0.27200
Cu	Cu	0.32430 0.37440 0.82430 0.70200
Cu	Cu	0.83901 0.89157 0.83901 0.70900
O 	O 	0.82770 0.93680 0.82770 -0.21900
O 	O 	0.80700 0.91550 0.80700 -0.27200
Cu	Cu	0.82430 0.87440 0.82430 0.70200
Cu	Cu	0.83901 0.39157 0.33901 0.70900
O 	O 	0.82770 0.43680 0.32770 -0.22000
O 	O 	0.80700 0.41550 0.30700 -0.27200
Cu	Cu	0.82430 0.37440 0.32430 0.70200
Cu	Cu	0.66099 0.10843 0.33901 0.70800
O 	O 	0.67230 0.06320 0.32770 -0.22100
O 	O 	0.69300 0.08450 0.30700 -0.27200
Cu	Cu	0.67570 0.12560 0.32430 0.70200
Cu	Cu	0.66099 0.60843 0.83901 0.70800
O 	O 	0.67230 0.56320 0.82770 -0.22000
O 	O 	0.69300 0.58450 0.80700 -0.27200
Cu	Cu	0.67570 0.62560 0.82430 0.70200
Cu	Cu	0.16099 0.10843 0.83901 0.70800
O 	O 	0.17230 0.06320 0.82770 -0.22100
O 	O 	0.19300 0.08450 0.80700 -0.27200
Cu	Cu	0.17570 0.12560 0.82430 0.70200
Cu	Cu	0.16099 0.60843 0.33901 0.70800
O 	O 	0.17230 0.56320 0.32770 -0.22000
O 	O 	0.19300 0.58450 0.30700 -0.27200
Cu	Cu	0.17570 0.62560 0.32430 0.70200
Cu	Cu	0.66099 0.89157 0.66099 0.70900
O 	O 	0.67230 0.93680 0.67230 -0.21900
O 	O 	0.69300 0.91550 0.69300 -0.27200
Cu	Cu	0.67570 0.87440 0.67570 0.70200
Cu	Cu	0.66099 0.39157 0.16099 0.70800
O 	O 	0.67230 0.43680 0.17230 -0.22000
O 	O 	0.69300 0.41550 0.19300 -0.27200
Cu	Cu	0.67570 0.37440 0.17570 0.70200
Cu	Cu	0.16099 0.89157 0.16099 0.70800
O 	O 	0.17230 0.93680 0.17230 -0.21900
O 	O 	0.19300 0.91550 0.19300 -0.27200
Cu	Cu	0.17570 0.87440 0.17570 0.70200
Cu	Cu	0.16099 0.39157 0.66099 0.70800
O 	O 	0.17230 0.43680 0.67230 -0.22000
O 	O 	0.19300 0.41550 0.69300 -0.27200
Cu	Cu	0.17570 0.37440 0.67570 0.70200
Cu	Cu	0.33901 0.10843 0.66099 0.70800
O 	O 	0.32770 0.06320 0.67230 -0.22100
O 	O 	0.30700 0.08450 0.69300 -0.27200
Cu	Cu	0.32430 0.12560 0.67570 0.70200
Cu	Cu	0.33901 0.60843 0.16099 0.70800
O 	O 	0.32770 0.56320 0.17230 -0.22000
O 	O 	0.30700 0.58450 0.19300 -0.27200
Cu	Cu	0.32430 0.62560 0.17570 0.70200
Cu	Cu	0.83901 0.10843 0.16099 0.70800
O 	O 	0.82770 0.06320 0.17230 -0.22100
O 	O 	0.80700 0.08450 0.19300 -0.27200
Cu	Cu	0.82430 0.12560 0.17570 0.70200
Cu	Cu	0.83901 0.60843 0.66099 0.70800
O 	O 	0.82770 0.56320 0.67230 -0.22000
O 	O 	0.80700 0.58450 0.69300 -0.27200
Cu	Cu	0.82430 0.62560 0.67570 0.70200
Cu	Cu	0.33901 0.33901 0.89157 0.70900
O 	O 	0.32770 0.32770 0.93680 -0.21900
O 	O 	0.30700 0.30700 0.91550 -0.27200
Cu	Cu	0.32430 0.32430 0.87440 0.70200
Cu	Cu	0.33901 0.83901 0.39157 0.70900
O 	O 	0.32770 0.82770 0.43680 -0.22000
O 	O 	0.30700 0.80700 0.41550 -0.27200
Cu	Cu	0.32430 0.82430 0.37440 0.70200
Cu	Cu	0.83901 0.33901 0.39157 0.70900
O 	O 	0.82770 0.32770 0.43680 -0.22000
O 	O 	0.80700 0.30700 0.41550 -0.27200
Cu	Cu	0.82430 0.32430 0.37440 0.70200
Cu	Cu	0.83901 0.83901 0.89157 0.70900
O 	O 	0.82770 0.82770 0.93680 -0.21900
O 	O 	0.80700 0.80700 0.91550 -0.27200
Cu	Cu	0.82430 0.82430 0.87440 0.70200
Cu	Cu	0.33901 0.66099 0.10843 0.70800
O 	O 	0.32770 0.67230 0.06320 -0.22100
O 	O 	0.30700 0.69300 0.08450 -0.27200
Cu	Cu	0.32430 0.67570 0.12560 0.70200
Cu	Cu	0.33901 0.16099 0.60843 0.70800
O 	O 	0.32770 0.17230 0.56320 -0.22000
O 	O 	0.30700 0.19300 0.58450 -0.27200
Cu	Cu	0.32430 0.17570 0.62560 0.70200
Cu	Cu	0.83901 0.66099 0.60843 0.70800
O 	O 	0.82770 0.67230 0.56320 -0.22000
O 	O 	0.80700 0.69300 0.58450 -0.27200
Cu	Cu	0.82430 0.67570 0.62560 0.70200
Cu	Cu	0.83901 0.16099 0.10843 0.70800
O 	O 	0.82770 0.17230 0.06320 -0.22100
O 	O 	0.80700 0.19300 0.08450 -0.27200
Cu	Cu	0.82430 0.17570 0.12560 0.70200
Cu	Cu	0.66099 0.66099 0.89157 0.70900
O 	O 	0.67230 0.67230 0.93680 -0.21900
O 	O 	0.69300 0.69300 0.91550 -0.27200
Cu	Cu	0.67570 0.67570 0.87440 0.70200
Cu	Cu	0.66099 0.16099 0.39157 0.70800
O 	O 	0.67230 0.17230 0.43680 -0.22000
O 	O 	0.69300 0.19300 0.41550 -0.27200
Cu	Cu	0.67570 0.17570 0.37440 0.70200
Cu	Cu	0.16099 0.66099 0.39157 0.70800
O 	O 	0.17230 0.67230 0.43680 -0.22000
O 	O 	0.19300 0.69300 0.41550 -0.27200
Cu	Cu	0.17570 0.67570 0.37440 0.70200
Cu	Cu	0.16099 0.16099 0.89157 0.70800
O 	O 	0.17230 0.17230 0.93680 -0.21900
O 	O 	0.19300 0.19300 0.91550 -0.27200
Cu	Cu	0.17570 0.17570 0.87440 0.70200
Cu	Cu	0.66099 0.33901 0.10843 0.70800
O 	O 	0.67230 0.32770 0.06320 -0.22100
O 	O 	0.69300 0.30700 0.08450 -0.27200
Cu	Cu	0.67570 0.32430 0.12560 0.70200
Cu	Cu	0.66099 0.83901 0.60843 0.70800
O 	O 	0.67230 0.82770 0.56320 -0.22000
O 	O 	0.69300 0.80700 0.58450 -0.27200
Cu	Cu	0.67570 0.82430 0.62560 0.70200
Cu	Cu	0.16099 0.33901 0.60843 0.70800
O 	O 	0.17230 0.32770 0.56320 -0.22000
O 	O 	0.19300 0.30700 0.58450 -0.27200
Cu	Cu	0.17570 0.32430 0.62560 0.70200
Cu	Cu	0.16099 0.83901 0.10843 0.70800
O 	O 	0.17230 0.82770 0.06320 -0.22100
O 	O 	0.19300 0.80700 0.08450 -0.27200
Cu	Cu	0.17570 0.82430 0.12560 0.70200
Cu	Cu	0.89157 0.33901 0.33901 0.70900
O 	O 	0.93680 0.32770 0.32770 -0.21900
O 	O 	0.91550 0.30700 0.30700 -0.27200
Cu	Cu	0.87440 0.32430 0.32430 0.70200
Cu	Cu	0.89157 0.83901 0.83901 0.70900
O 	O 	0.93680 0.82770 0.82770 -0.21900
O 	O 	0.91550 0.80700 0.80700 -0.27200
Cu	Cu	0.87440 0.82430 0.82430 0.70200
Cu	Cu	0.39157 0.33901 0.83901 0.70900
O 	O 	0.43680 0.32770 0.82770 -0.22000
O 	O 	0.41550 0.30700 0.80700 -0.27200
Cu	Cu	0.37440 0.32430 0.82430 0.70200
Cu	Cu	0.39157 0.83901 0.33901 0.70900
O 	O 	0.43680 0.82770 0.32770 -0.22000
O 	O 	0.41550 0.80700 0.30700 -0.27200
Cu	Cu	0.37440 0.82430 0.32430 0.70200
Cu	Cu	0.10843 0.33901 0.66099 0.70800
O 	O 	0.06320 0.32770 0.67230 -0.22100
O 	O 	0.08450 0.30700 0.69300 -0.27200
Cu	Cu	0.12560 0.32430 0.67570 0.70200
Cu	Cu	0.10843 0.83901 0.16099 0.70800
O 	O 	0.06320 0.82770 0.17230 -0.22100
O 	O 	0.08450 0.80700 0.19300 -0.27200
Cu	Cu	0.12560 0.82430 0.17570 0.70200
Cu	Cu	0.60843 0.33901 0.16099 0.70800
O 	O 	0.56320 0.32770 0.17230 -0.22000
O 	O 	0.58450 0.30700 0.19300 -0.27200
Cu	Cu	0.62560 0.32430 0.17570 0.70200
Cu	Cu	0.60843 0.83901 0.66099 0.70800
O 	O 	0.56320 0.82770 0.67230 -0.22000
O 	O 	0.58450 0.80700 0.69300 -0.27200
Cu	Cu	0.62560 0.82430 0.67570 0.70200
Cu	Cu	0.89157 0.66099 0.66099 0.70900
O 	O 	0.93680 0.67230 0.67230 -0.21900
O 	O 	0.91550 0.69300 0.69300 -0.27200
Cu	Cu	0.87440 0.67570 0.67570 0.70200
Cu	Cu	0.89157 0.16099 0.16099 0.70800
O 	O 	0.93680 0.17230 0.17230 -0.21900
O 	O 	0.91550 0.19300 0.19300 -0.27200
Cu	Cu	0.87440 0.17570 0.17570 0.70200
Cu	Cu	0.39157 0.66099 0.16099 0.70800
O 	O 	0.43680 0.67230 0.17230 -0.22000
O 	O 	0.41550 0.69300 0.19300 -0.27200
Cu	Cu	0.37440 0.67570 0.17570 0.70200
Cu	Cu	0.39157 0.16099 0.66099 0.70800
O 	O 	0.43680 0.17230 0.67230 -0.22000
O 	O 	0.41550 0.19300 0.69300 -0.27200
Cu	Cu	0.37440 0.17570 0.67570 0.70200
Cu	Cu	0.10843 0.66099 0.33901 0.70800
O 	O 	0.06320 0.67230 0.32770 -0.22100
O 	O 	0.08450 0.69300 0.30700 -0.27200
Cu	Cu	0.12560 0.67570 0.32430 0.70200
Cu	Cu	0.10843 0.16099 0.83901 0.70800
O 	O 	0.06320 0.17230 0.82770 -0.22100
O 	O 	0.08450 0.19300 0.80700 -0.27200
Cu	Cu	0.12560 0.17570 0.82430 0.70200
Cu	Cu	0.60843 0.66099 0.83901 0.70800
O 	O 	0.56320 0.67230 0.82770 -0.22000
O 	O 	0.58450 0.69300 0.80700 -0.27200
Cu	Cu	0.62560 0.67570 0.82430 0.70200
Cu	Cu	0.60843 0.16099 0.33901 0.70800
O 	O 	0.56320 0.17230 0.32770 -0.22000
O 	O 	0.58450 0.19300 0.30700 -0.27200
Cu	Cu	0.62560 0.17570 0.32430 0.70200
Cu	Cu	0.89157 0.33901 0.66099 0.70900
O 	O 	0.93680 0.32770 0.67230 -0.21900
O 	O 	0.91550 0.30700 0.69300 -0.27200
Cu	Cu	0.87440 0.32430 0.67570 0.70200
Cu	Cu	0.89157 0.83901 0.16099 0.70900
O 	O 	0.93680 0.82770 0.17230 -0.21900
O 	O 	0.91550 0.80700 0.19300 -0.27200
Cu	Cu	0.87440 0.82430 0.17570 0.70200
Cu	Cu	0.39157 0.33901 0.16099 0.70800
O 	O 	0.43680 0.32770 0.17230 -0.22000
O 	O 	0.41550 0.30700 0.19300 -0.27200
Cu	Cu	0.37440 0.32430 0.17570 0.70200
Cu	Cu	0.39157 0.83901 0.66099 0.70800
O 	O 	0.43680 0.82770 0.67230 -0.22000
O 	O 	0.41550 0.80700 0.69300 -0.27200
Cu	Cu	0.37440 0.82430 0.67570 0.70200
Cu	Cu	0.10843 0.66099 0.66099 0.70800
O 	O 	0.06320 0.67230 0.67230 -0.22100
O 	O 	0.08450 0.69300 0.69300 -0.27200
Cu	Cu	0.12560 0.67570 0.67570 0.70200
Cu	Cu	0.10843 0.16099 0.16099 0.70800
O 	O 	0.06320 0.17230 0.17230 -0.22100
O 	O 	0.08450 0.19300 0.19300 -0.27200
Cu	Cu	0.12560 0.17570 0.17570 0.70200
Cu	Cu	0.60843 0.66099 0.16099 0.70800
O 	O 	0.56320 0.67230 0.17230 -0.22000
O 	O 	0.58450 0.69300 0.19300 -0.27200
Cu	Cu	0.62560 0.67570 0.17570 0.70200
Cu	Cu	0.60843 0.16099 0.66099 0.70800
O 	O 	0.56320 0.17230 0.67230 -0.22000
O 	O 	0.58450 0.19300 0.69300 -0.27200
Cu	Cu	0.62560 0.17570 0.67570 0.70200
Cu	Cu	0.89157 0.66099 0.33901 0.70900
O 	O 	0.93680 0.67230 0.32770 -0.21900
O 	O 	0.91550 0.69300 0.30700 -0.27200
Cu	Cu	0.87440 0.67570 0.32430 0.70200
Cu	Cu	0.89157 0.16099 0.83901 0.70900
O 	O 	0.93680 0.17230 0.82770 -0.21900
O 	O 	0.91550 0.19300 0.80700 -0.27200
Cu	Cu	0.87440 0.17570 0.82430 0.70200
Cu	Cu	0.39157 0.66099 0.83901 0.70800
O 	O 	0.43680 0.67230 0.82770 -0.22000
O 	O 	0.41550 0.69300 0.80700 -0.27200
Cu	Cu	0.37440 0.67570 0.82430 0.70200
Cu	Cu	0.39157 0.16099 0.33901 0.70800
O 	O 	0.43680 0.17230 0.32770 -0.22000
O 	O 	0.41550 0.19300 0.30700 -0.27200
Cu	Cu	0.37440 0.17570 0.32430 0.70200
Cu	Cu	0.10843 0.33901 0.33901 0.70800
O 	O 	0.06320 0.32770 0.32770 -0.22100
O 	O 	0.08450 0.30700 0.30700 -0.27200
Cu	Cu	0.12560 0.32430 0.32430 0.70200
Cu	Cu	0.10843 0.83901 0.83901 0.70800
O 	O 	0.06320 0.82770 0.82770 -0.22100
O 	O 	0.08450 0.80700 0.80700 -0.27200
Cu	Cu	0.12560 0.82430 0.82430 0.70200
Cu	Cu	0.60843 0.33901 0.83901 0.70800
O 	O 	0.56320 0.32770 0.82770 -0.22000
O 	O 	0.58450 0.30700 0.80700 -0.27200
Cu	Cu	0.62560 0.32430 0.82430 0.70200
Cu	Cu	0.60843 0.83901 0.33901 0.70800
O 	O 	0.56320 0.82770 0.32770 -0.22000
O 	O 	0.58450 0.80700 0.30700 -0.27200
Cu	Cu	0.62560 0.82430 0.32430 0.70200
Cu	Cu	0.33901 0.33901 0.10843 0.70800
O 	O 	0.32770 0.32770 0.06320 -0.22100
O 	O 	0.30700 0.30700 0.08450 -0.27200
Cu	Cu	0.32430 0.32430 0.12560 0.70200
Cu	Cu	0.33901 0.83901 0.60843 0.70800
O 	O 	0.32770 0.82770 0.56320 -0.22000
O 	O 	0.30700 0.80700 0.58450 -0.27200
Cu	Cu	0.32430 0.82430 0.62560 0.70200
Cu	Cu	0.83901 0.33901 0.60843 0.70800
O 	O 	0.82770 0.32770 0.56320 -0.22000
O 	O 	0.80700 0.30700 0.58450 -0.27200
Cu	Cu	0.82430 0.32430 0.62560 0.70200
Cu	Cu	0.83901 0.83901 0.10843 0.70800
O 	O 	0.82770 0.82770 0.06320 -0.22100
O 	O 	0.80700 0.80700 0.08450 -0.27200
Cu	Cu	0.82430 0.82430 0.12560 0.70200
Cu	Cu	0.66099 0.33901 0.89157 0.70900
O 	O 	0.67230 0.32770 0.93680 -0.21900
O 	O 	0.69300 0.30700 0.91550 -0.27200
Cu	Cu	0.67570 0.32430 0.87440 0.70200
Cu	Cu	0.66099 0.83901 0.39157 0.70800
O 	O 	0.67230 0.82770 0.43680 -0.22000
O 	O 	0.69300 0.80700 0.41550 -0.27200
Cu	Cu	0.67570 0.82430 0.37440 0.70200
Cu	Cu	0.16099 0.33901 0.39157 0.70800
O 	O 	0.17230 0.32770 0.43680 -0.22000
O 	O 	0.19300 0.30700 0.41550 -0.27200
Cu	Cu	0.17570 0.32430 0.37440 0.70200
Cu	Cu	0.16099 0.83901 0.89157 0.70900
O 	O 	0.17230 0.82770 0.93680 -0.21900
O 	O 	0.19300 0.80700 0.91550 -0.27200
Cu	Cu	0.17570 0.82430 0.87440 0.70200
Cu	Cu	0.66099 0.66099 0.10843 0.70800
O 	O 	0.67230 0.67230 0.06320 -0.22100
O 	O 	0.69300 0.69300 0.08450 -0.27200
Cu	Cu	0.67570 0.67570 0.12560 0.70200
Cu	Cu	0.66099 0.16099 0.60843 0.70800
O 	O 	0.67230 0.17230 0.56320 -0.22000
O 	O 	0.69300 0.19300 0.58450 -0.27200
Cu	Cu	0.67570 0.17570 0.62560 0.70200
Cu	Cu	0.16099 0.66099 0.60843 0.70800
O 	O 	0.17230 0.67230 0.56320 -0.22000
O 	O 	0.19300 0.69300 0.58450 -0.27200
Cu	Cu	0.17570 0.67570 0.62560 0.70200
Cu	Cu	0.16099 0.16099 0.10843 0.70800
O 	O 	0.17230 0.17230 0.06320 -0.22100
O 	O 	0.19300 0.19300 0.08450 -0.27200
Cu	Cu	0.17570 0.17570 0.12560 0.70200
Cu	Cu	0.33901 0.66099 0.89157 0.70900
O 	O 	0.32770 0.67230 0.93680 -0.21900
O 	O 	0.30700 0.69300 0.91550 -0.27200
Cu	Cu	0.32430 0.67570 0.87440 0.70200
Cu	Cu	0.33901 0.16099 0.39157 0.70800
O 	O 	0.32770 0.17230 0.43680 -0.22000
O 	O 	0.30700 0.19300 0.41550 -0.27200
Cu	Cu	0.32430 0.17570 0.37440 0.70200
Cu	Cu	0.83901 0.66099 0.39157 0.70800
O 	O 	0.82770 0.67230 0.43680 -0.22000
O 	O 	0.80700 0.69300 0.41550 -0.27200
Cu	Cu	0.82430 0.67570 0.37440 0.70200
Cu	Cu	0.83901 0.16099 0.89157 0.70900
O 	O 	0.82770 0.17230 0.93680 -0.21900
O 	O 	0.80700 0.19300 0.91550 -0.27200
Cu	Cu	0.82430 0.17570 0.87440 0.70200
Cu	Cu	0.33901 0.89157 0.66099 0.70900
O 	O 	0.32770 0.93680 0.67230 -0.21900
O 	O 	0.30700 0.91550 0.69300 -0.27200
Cu	Cu	0.32430 0.87440 0.67570 0.70200
Cu	Cu	0.33901 0.39157 0.16099 0.70800
O 	O 	0.32770 0.43680 0.17230 -0.22000
O 	O 	0.30700 0.41550 0.19300 -0.27200
Cu	Cu	0.32430 0.37440 0.17570 0.70200
Cu	Cu	0.83901 0.89157 0.16099 0.70900
O 	O 	0.82770 0.93680 0.17230 -0.21900
O 	O 	0.80700 0.91550 0.19300 -0.27200
Cu	Cu	0.82430 0.87440 0.17570 0.70200
Cu	Cu	0.83901 0.39157 0.66099 0.70800
O 	O 	0.82770 0.43680 0.67230 -0.22000
O 	O 	0.80700 0.41550 0.69300 -0.27200
Cu	Cu	0.82430 0.37440 0.67570 0.70200
Cu	Cu	0.33901 0.10843 0.33901 0.70800
O 	O 	0.32770 0.06320 0.32770 -0.22100
O 	O 	0.30700 0.08450 0.30700 -0.27200
Cu	Cu	0.32430 0.12560 0.32430 0.70200
Cu	Cu	0.33901 0.60843 0.83901 0.70800
O 	O 	0.32770 0.56320 0.82770 -0.22000
O 	O 	0.30700 0.58450 0.80700 -0.27200
Cu	Cu	0.32430 0.62560 0.82430 0.70200
Cu	Cu	0.83901 0.10843 0.83901 0.70800
O 	O 	0.82770 0.06320 0.82770 -0.22100
O 	O 	0.80700 0.08450 0.80700 -0.27200
Cu	Cu	0.82430 0.12560 0.82430 0.70200
Cu	Cu	0.83901 0.60843 0.33901 0.70800
O 	O 	0.82770 0.56320 0.32770 -0.22000
O 	O 	0.80700 0.58450 0.30700 -0.27200
Cu	Cu	0.82430 0.62560 0.32430 0.70200
Cu	Cu	0.66099 0.89157 0.33901 0.70900
O 	O 	0.67230 0.93680 0.32770 -0.21900
O 	O 	0.69300 0.91550 0.30700 -0.27200
Cu	Cu	0.67570 0.87440 0.32430 0.70200
Cu	Cu	0.66099 0.39157 0.83901 0.70800
O 	O 	0.67230 0.43680 0.82770 -0.22000
O 	O 	0.69300 0.41550 0.80700 -0.27200
Cu	Cu	0.67570 0.37440 0.82430 0.70200
Cu	Cu	0.16099 0.89157 0.83901 0.70900
O 	O 	0.17230 0.93680 0.82770 -0.21900
O 	O 	0.19300 0.91550 0.80700 -0.27200
Cu	Cu	0.17570 0.87440 0.82430 0.70200
Cu	Cu	0.16099 0.39157 0.33901 0.70800
O 	O 	0.17230 0.43680 0.32770 -0.22000
O 	O 	0.19300 0.41550 0.30700 -0.27200
Cu	Cu	0.17570 0.37440 0.32430 0.70200
Cu	Cu	0.66099 0.10843 0.66099 0.70800
O 	O 	0.67230 0.06320 0.67230 -0.22100
O 	O 	0.69300 0.08450 0.69300 -0.27200
Cu	Cu	0.67570 0.12560 0.67570 0.70200
Cu	Cu	0.66099 0.60843 0.16099 0.70800
O 	O 	0.67230 0.56320 0.17230 -0.22000
O 	O 	0.69300 0.58450 0.19300 -0.27200
Cu	Cu	0.67570 0.62560 0.17570 0.70200
Cu	Cu	0.16099 0.10843 0.16099 0.70800
O 	O 	0.17230 0.06320 0.17230 -0.22100
O 	O 	0.19300 0.08450 0.19300 -0.27200
Cu	Cu	0.17570 0.12560 0.17570 0.70200
Cu	Cu	0.16099 0.60843 0.66099 0.70800
O 	O 	0.17230 0.56320 0.67230 -0.22000
O 	O 	0.19300 0.58450 0.69300 -0.27200
Cu	Cu	0.17570 0.62560 0.67570 0.70200
O 	O 	0.35820 0.85820 0.35820 -0.64600
O 	O 	0.33460 0.83460 0.33460 -0.59700
O 	O 	0.64180 0.14180 0.35820 -0.64600
O 	O 	0.66540 0.16540 0.33460 -0.59700
O 	O 	0.14180 0.14180 0.85820 -0.64600
O 	O 	0.16540 0.16540 0.83460 -0.59700
O 	O 	0.64180 0.85820 0.64180 -0.64600
O 	O 	0.66540 0.83460 0.66540 -0.59700
O 	O 	0.64180 0.35820 0.14180 -0.64600
O 	O 	0.66540 0.33460 0.16540 -0.59700
O 	O 	0.14180 0.35820 0.64180 -0.64600
O 	O 	0.16540 0.33460 0.66540 -0.59700
O 	O 	0.35820 0.14180 0.64180 -0.64600
O 	O 	0.33460 0.16540 0.66540 -0.59700
O 	O 	0.35820 0.35820 0.85820 -0.64600
O 	O 	0.33460 0.33460 0.83460 -0.59700
O 	O 	0.35820 0.64180 0.14180 -0.64600
O 	O 	0.33460 0.66540 0.16540 -0.59700
O 	O 	0.64180 0.64180 0.85820 -0.64600
O 	O 	0.66540 0.66540 0.83460 -0.59700
O 	O 	0.14180 0.64180 0.35820 -0.64600
O 	O 	0.16540 0.66540 0.33460 -0.59700
O 	O 	0.14180 0.85820 0.14180 -0.64600
O 	O 	0.16540 0.83460 0.16540 -0.59700
O 	O 	0.85820 0.35820 0.35820 -0.64600
O 	O 	0.83460 0.33460 0.33460 -0.59700
O 	O 	0.85820 0.85820 0.85820 -0.64500
O 	O 	0.83460 0.83460 0.83460 -0.59700
O 	O 	0.85820 0.64180 0.64180 -0.64600
O 	O 	0.83460 0.66540 0.66540 -0.59700
O 	O 	0.85820 0.14180 0.14180 -0.64600
O 	O 	0.83460 0.16540 0.16540 -0.59700
O 	O 	0.85820 0.35820 0.64180 -0.64600
O 	O 	0.83460 0.33460 0.66540 -0.59700
O 	O 	0.85820 0.85820 0.14180 -0.64600
O 	O 	0.83460 0.83460 0.16540 -0.59700
O 	O 	0.35820 0.35820 0.14180 -0.64600
O 	O 	0.33460 0.33460 0.16540 -0.59700
O 	O 	0.14180 0.64180 0.64180 -0.64600
O 	O 	0.16540 0.66540 0.66540 -0.59700
O 	O 	0.14180 0.14180 0.14180 -0.64600
O 	O 	0.16540 0.16540 0.16540 -0.59700
O 	O 	0.85820 0.64180 0.35820 -0.64600
O 	O 	0.83460 0.66540 0.33460 -0.59700
O 	O 	0.85820 0.14180 0.85820 -0.64600
O 	O 	0.83460 0.16540 0.83460 -0.59700
O 	O 	0.35820 0.14180 0.35820 -0.64600
O 	O 	0.33460 0.16540 0.33460 -0.59700
O 	O 	0.14180 0.35820 0.35820 -0.64600
O 	O 	0.16540 0.33460 0.33460 -0.59700
O 	O 	0.14180 0.85820 0.85820 -0.64600
O 	O 	0.16540 0.83460 0.83460 -0.59700
O 	O 	0.64180 0.35820 0.85820 -0.64600
O 	O 	0.66540 0.33460 0.83460 -0.59700
O 	O 	0.64180 0.64180 0.14180 -0.64600
O 	O 	0.66540 0.66540 0.16540 -0.59700
O 	O 	0.35820 0.64180 0.85820 -0.64600
O 	O 	0.33460 0.66540 0.83460 -0.59700
O 	O 	0.35820 0.85820 0.64180 -0.64600
O 	O 	0.33460 0.83460 0.66540 -0.59700
O 	O 	0.64180 0.85820 0.35820 -0.64600
O 	O 	0.66540 0.83460 0.33460 -0.59700
O 	O 	0.64180 0.14180 0.64180 -0.64600
O 	O 	0.66540 0.16540 0.66540 -0.59700
O 	O 	0.40798 0.00720 0.09202 -0.11700
O 	O 	0.40798 0.50720 0.59202 -0.08800
O 	O 	0.59202 0.99280 0.09202 -0.06000
O 	O 	0.59202 0.49280 0.59202 -0.08800
O 	O 	0.09202 0.49280 0.09202 -0.08900
O 	O 	0.59202 0.00720 0.90798 -0.11700
O 	O 	0.59202 0.50720 0.40798 -0.08800
O 	O 	0.09202 0.00720 0.40798 -0.11700
O 	O 	0.40798 0.99280 0.90798 -0.05900
O 	O 	0.40798 0.49280 0.40798 -0.08800
O 	O 	0.09202 0.40798 0.00720 -0.11700
O 	O 	0.09202 0.90798 0.50720 -0.08800
O 	O 	0.09202 0.59202 0.99280 -0.06000
O 	O 	0.09202 0.09202 0.49280 -0.08900
O 	O 	0.90798 0.59202 0.00720 -0.11700
O 	O 	0.90798 0.09202 0.50720 -0.08800
O 	O 	0.40798 0.09202 0.00720 -0.11700
O 	O 	0.90798 0.40798 0.99280 -0.05900
O 	O 	0.90798 0.90798 0.49280 -0.08800
O 	O 	0.40798 0.40798 0.49280 -0.08800
O 	O 	0.00720 0.09202 0.40798 -0.11700
O 	O 	0.50720 0.09202 0.90798 -0.08800
O 	O 	0.99280 0.09202 0.59202 -0.06000
O 	O 	0.49280 0.09202 0.09202 -0.08900
O 	O 	0.00720 0.90798 0.59202 -0.11700
O 	O 	0.00720 0.40798 0.09202 -0.11700
O 	O 	0.50720 0.90798 0.09202 -0.08800
O 	O 	0.99280 0.90798 0.40798 -0.05900
O 	O 	0.49280 0.90798 0.90798 -0.08800
O 	O 	0.49280 0.40798 0.40798 -0.08800
O 	O 	0.00720 0.40798 0.90798 -0.11700
O 	O 	0.50720 0.40798 0.40798 -0.08800
O 	O 	0.99280 0.59202 0.90798 -0.05900
O 	O 	0.99280 0.09202 0.40798 -0.06000
O 	O 	0.49280 0.59202 0.40798 -0.08800
O 	O 	0.00720 0.59202 0.09202 -0.11700
O 	O 	0.50720 0.59202 0.59202 -0.08800
O 	O 	0.50720 0.09202 0.09202 -0.08900
O 	O 	0.99280 0.40798 0.09202 -0.06000
O 	O 	0.49280 0.40798 0.59202 -0.08800
O 	O 	0.40798 0.09202 0.99280 -0.06000
O 	O 	0.40798 0.59202 0.49280 -0.08800
O 	O 	0.59202 0.09202 0.00720 -0.11700
O 	O 	0.59202 0.59202 0.50720 -0.08800
O 	O 	0.09202 0.09202 0.50720 -0.08900
O 	O 	0.59202 0.90798 0.99280 -0.05900
O 	O 	0.59202 0.40798 0.49280 -0.08800
O 	O 	0.09202 0.40798 0.99280 -0.06000
O 	O 	0.40798 0.90798 0.00720 -0.11700
O 	O 	0.40798 0.40798 0.50720 -0.08800
O 	O 	0.09202 0.00720 0.59202 -0.11700
O 	O 	0.09202 0.50720 0.09202 -0.08900
O 	O 	0.09202 0.99280 0.40798 -0.06000
O 	O 	0.09202 0.49280 0.90798 -0.08800
O 	O 	0.90798 0.00720 0.40798 -0.11700
O 	O 	0.90798 0.50720 0.90798 -0.08800
O 	O 	0.40798 0.50720 0.40798 -0.08800
O 	O 	0.90798 0.99280 0.59202 -0.05900
O 	O 	0.90798 0.49280 0.09202 -0.08800
O 	O 	0.40798 0.99280 0.09202 -0.06000
O 	O 	0.59202 0.99280 0.90798 -0.05900
O 	O 	0.59202 0.49280 0.40798 -0.08800
O 	O 	0.40798 0.00720 0.90798 -0.11700
O 	O 	0.40798 0.49280 0.59202 -0.08800
O 	O 	0.59202 0.00720 0.09202 -0.11700
O 	O 	0.59202 0.50720 0.59202 -0.08800
O 	O 	0.90798 0.59202 0.99280 -0.05900
O 	O 	0.90798 0.09202 0.49280 -0.08800
O 	O 	0.90798 0.40798 0.00720 -0.11700
O 	O 	0.90798 0.90798 0.50720 -0.08800
O 	O 	0.09202 0.90798 0.49280 -0.08800
O 	O 	0.09202 0.59202 0.00720 -0.11700
O 	O 	0.99280 0.90798 0.59202 -0.05900
O 	O 	0.49280 0.90798 0.09202 -0.08800
O 	O 	0.00720 0.90798 0.40798 -0.11700
O 	O 	0.50720 0.90798 0.90798 -0.08800
O 	O 	0.49280 0.09202 0.90798 -0.08800
O 	O 	0.00720 0.09202 0.59202 -0.11700
O 	O 	0.99280 0.59202 0.09202 -0.06000
O 	O 	0.49280 0.59202 0.59202 -0.08800
O 	O 	0.50720 0.40798 0.59202 -0.08800
O 	O 	0.99280 0.40798 0.90798 -0.05900
O 	O 	0.00720 0.59202 0.90798 -0.11700
O 	O 	0.50720 0.59202 0.40798 -0.08800
O 	O 	0.59202 0.90798 0.00720 -0.11700
O 	O 	0.59202 0.40798 0.50720 -0.08800
O 	O 	0.40798 0.90798 0.99280 -0.05900
O 	O 	0.40798 0.59202 0.50720 -0.08800
O 	O 	0.59202 0.09202 0.99280 -0.06000
O 	O 	0.59202 0.59202 0.49280 -0.08800
O 	O 	0.90798 0.99280 0.40798 -0.05900
O 	O 	0.90798 0.49280 0.90798 -0.08800
O 	O 	0.90798 0.00720 0.59202 -0.11700
O 	O 	0.90798 0.50720 0.09202 -0.08800
O 	O 	0.09202 0.99280 0.59202 -0.06000
O 	O 	0.09202 0.50720 0.90798 -0.08800
