data_crystal

_cell_length_a 13.33460
_cell_length_b 13.46130
_cell_length_c 17.51150
_cell_angle_alpha 90.00000
_cell_angle_beta  90.00000
_cell_angle_gamma 90.00000

_symmetry_space_group_name_	'P 1'
_symmetry_space_group_name_H-M	'P 1'

loop_
_symmetry_equiv_pos_as_xyz
  x,y,z

loop_
_atom_site_label
_atom_site_type_symbol
_atom_site_fract_x
_atom_site_fract_y
_atom_site_fract_z
_atom_site_charge
Co	Co	0.73306 0.50992 0.57402 1.17200
Co	Co	0.76574 0.49107 0.41613 1.16700
O 	O 	0.59650 0.47170 0.53010 -0.47500
O 	O 	0.62110 0.44150 0.40680 -0.46500
O 	O 	0.30560 0.15100 0.55060 -0.44700
O 	O 	0.26890 0.13760 0.42540 -0.48300
O 	O 	0.70660 0.65230 0.54390 -0.47300
O 	O 	0.71560 0.63430 0.41880 -0.48500
O 	O 	0.38000 0.95680 0.42230 -0.52700
O 	O 	0.40330 0.96190 0.54780 -0.45800
O 	O 	0.68630 0.52480 0.80770 -0.51800
O 	O 	0.68690 0.52210 0.68300 -0.52400
C 	C 	0.45380 0.41930 0.45520 -0.09700
C 	C 	0.44320 0.30370 0.44650 0.49200
C 	C 	0.33130 0.29160 0.46970 -0.38100
H 	H 	0.29030 0.31840 0.42810 0.14200
C 	C 	0.31740 0.36080 0.53980 0.08600
H 	H 	0.24920 0.38570 0.54230 -0.01500
H 	H 	0.33230 0.32580 0.58690 0.00500
C 	C 	0.39020 0.44420 0.52740 -0.17800
H 	H 	0.43350 0.45130 0.57150 0.08900
H 	H 	0.35430 0.50610 0.51990 0.07100
C 	C 	0.41500 0.47700 0.38830 -0.31200
H 	H 	0.42280 0.54680 0.39800 0.09400
H 	H 	0.34540 0.46210 0.38070 0.10100
H 	H 	0.45220 0.45920 0.34340 0.09200
C 	C 	0.46270 0.26740 0.36550 -0.94900
H 	H 	0.42030 0.30280 0.33050 0.28500
H 	H 	0.44840 0.19760 0.36240 0.29200
H 	H 	0.53170 0.27880 0.35250 0.30100
C 	C 	0.51620 0.24370 0.50050 -0.93700
H 	H 	0.50810 0.26620 0.55220 0.31800
H 	H 	0.58430 0.25420 0.48460 0.30700
H 	H 	0.50060 0.17410 0.49760 0.31000
C 	C 	0.56880 0.44710 0.46800 0.35800
C 	C 	0.29890 0.18610 0.48270 0.41500
C 	C 	0.67370 0.79460 0.46610 -0.19100
C 	C 	0.55740 0.80810 0.45030 0.74800
C 	C 	0.54290 0.92120 0.46720 -0.50000
H 	H 	0.56820 0.95810 0.42300 0.16500
C 	C 	0.61150 0.94360 0.53380 0.11800
H 	H 	0.57320 0.94950 0.58070 -0.00100
H 	H 	0.64750 0.00520 0.52530 -0.02300
C 	C 	0.68540 0.85500 0.53860 -0.14800
H 	H 	0.75370 0.87900 0.54320 0.05900
H 	H 	0.67020 0.81440 0.58290 0.07000
C 	C 	0.73480 0.83730 0.39980 -0.24700
H 	H 	0.80500 0.82870 0.40990 0.09000
H 	H 	0.72030 0.90680 0.39440 0.08100
H 	H 	0.71740 0.80330 0.35350 0.07800
C 	C 	0.52800 0.77920 0.36790 -1.19000
H 	H 	0.45740 0.78940 0.36090 0.37300
H 	H 	0.54380 0.71050 0.35930 0.36300
H 	H 	0.56450 0.81970 0.33240 0.35600
C 	C 	0.49600 0.75000 0.50170 -1.39000
H 	H 	0.42640 0.76040 0.48990 0.44100
H 	H 	0.50870 0.77020 0.55340 0.45200
H 	H 	0.51190 0.68080 0.49600 0.44000
C 	C 	0.69990 0.68380 0.47810 0.38500
C 	C 	0.43650 0.94840 0.47750 0.46700
C 	C 	0.82740 0.45130 0.74400 -1.39500
H 	H 	0.84780 0.44120 0.69200 0.42500
H 	H 	0.82150 0.38820 0.76920 0.42600
H 	H 	0.87660 0.49120 0.76980 0.42500
C 	C 	0.72980 0.50260 0.74540 0.75500
Co	Co	0.76694 0.49008 0.07402 1.17100
Co	Co	0.73426 0.50893 0.91613 1.16700
O 	O 	0.90350 0.52830 0.03010 -0.47900
O 	O 	0.87890 0.55850 0.90680 -0.46700
O 	O 	0.19440 0.84900 0.05060 -0.45200
O 	O 	0.23110 0.86240 0.92540 -0.48400
O 	O 	0.79340 0.34770 0.04390 -0.47300
O 	O 	0.78440 0.36570 0.91880 -0.48400
O 	O 	0.12000 0.04320 0.92230 -0.52500
O 	O 	0.09670 0.03810 0.04780 -0.45200
O 	O 	0.81370 0.47520 0.30770 -0.51800
O 	O 	0.81310 0.47790 0.18300 -0.52400
C 	C 	0.04620 0.58070 0.95520 -0.10700
C 	C 	0.05680 0.69630 0.94650 0.51400
C 	C 	0.16870 0.70840 0.96970 -0.38900
H 	H 	0.20970 0.68160 0.92810 0.14400
C 	C 	0.18260 0.63920 0.03980 0.08600
H 	H 	0.25080 0.61430 0.04230 -0.01500
H 	H 	0.16770 0.67420 0.08690 0.00400
C 	C 	0.10980 0.55580 0.02740 -0.17500
H 	H 	0.06650 0.54870 0.07150 0.08700
H 	H 	0.14570 0.49390 0.01990 0.07000
C 	C 	0.08500 0.52300 0.88830 -0.30100
H 	H 	0.07720 0.45320 0.89800 0.09100
H 	H 	0.15460 0.53790 0.88070 0.09700
H 	H 	0.04780 0.54080 0.84340 0.08800
C 	C 	0.03730 0.73260 0.86550 -0.98000
H 	H 	0.07970 0.69720 0.83050 0.29500
H 	H 	0.05160 0.80240 0.86240 0.30100
H 	H 	0.96830 0.72120 0.85250 0.31200
C 	C 	0.98380 0.75630 0.00050 -0.99100
H 	H 	0.99190 0.73380 0.05220 0.33400
H 	H 	0.91570 0.74580 0.98460 0.32600
H 	H 	0.99940 0.82590 0.99760 0.33000
C 	C 	0.93120 0.55290 0.96800 0.36500
C 	C 	0.20110 0.81390 0.98270 0.42200
C 	C 	0.82630 0.20540 0.96610 -0.18700
C 	C 	0.94260 0.19190 0.95030 0.73000
C 	C 	0.95710 0.07880 0.96720 -0.49600
H 	H 	0.93180 0.04190 0.92300 0.16300
C 	C 	0.88850 0.05640 0.03380 0.12300
H 	H 	0.92680 0.05050 0.08070 -0.00300
H 	H 	0.85250 0.99480 0.02530 -0.02600
C 	C 	0.81460 0.14500 0.03860 -0.15000
H 	H 	0.74630 0.12100 0.04320 0.06000
H 	H 	0.82980 0.18560 0.08290 0.07100
C 	C 	0.76520 0.16270 0.89980 -0.25000
H 	H 	0.69500 0.17130 0.90990 0.09000
H 	H 	0.77970 0.09320 0.89440 0.08100
H 	H 	0.78260 0.19670 0.85350 0.07900
C 	C 	0.97200 0.22080 0.86790 -1.17300
H 	H 	0.04260 0.21060 0.86090 0.36900
H 	H 	0.95620 0.28950 0.85930 0.35800
H 	H 	0.93550 0.18030 0.83240 0.35000
C 	C 	0.00400 0.25000 0.00170 -1.34400
H 	H 	0.07360 0.23960 0.98990 0.42600
H 	H 	0.99130 0.22980 0.05340 0.43800
H 	H 	0.98810 0.31920 0.99600 0.42500
C 	C 	0.80010 0.31620 0.97810 0.38300
C 	C 	0.06350 0.05160 0.97750 0.46000
C 	C 	0.67260 0.54870 0.24400 -1.39400
H 	H 	0.65220 0.55880 0.19200 0.42500
H 	H 	0.67850 0.61180 0.26920 0.42600
H 	H 	0.62340 0.50880 0.26980 0.42500
C 	C 	0.77020 0.49740 0.24540 0.75500
Co	Co	0.26694 0.00992 0.92598 1.17000
Co	Co	0.23426 0.99107 0.08387 1.16400
O 	O 	0.40350 0.97170 0.96990 -0.46900
O 	O 	0.37890 0.94150 0.09320 -0.46400
O 	O 	0.69440 0.65100 0.94940 -0.44500
O 	O 	0.73110 0.63760 0.07460 -0.48200
O 	O 	0.29340 0.15230 0.95610 -0.47600
O 	O 	0.28440 0.13430 0.08120 -0.48400
O 	O 	0.62000 0.45680 0.07770 -0.52700
O 	O 	0.59670 0.46190 0.95220 -0.45800
O 	O 	0.31370 0.02480 0.69230 -0.51700
O 	O 	0.31310 0.02210 0.81700 -0.52400
C 	C 	0.54620 0.91930 0.04480 -0.09500
C 	C 	0.55680 0.80370 0.05350 0.47700
C 	C 	0.66870 0.79160 0.03030 -0.37700
H 	H 	0.70970 0.81840 0.07190 0.13900
C 	C 	0.68260 0.86080 0.96020 0.08000
H 	H 	0.75080 0.88570 0.95770 -0.01200
H 	H 	0.66770 0.82580 0.91310 0.00800
C 	C 	0.60980 0.94420 0.97260 -0.16300
H 	H 	0.56650 0.95130 0.92850 0.08500
H 	H 	0.64570 0.00610 0.98010 0.06300
C 	C 	0.58500 0.97700 0.11170 -0.32500
H 	H 	0.57720 0.04680 0.10200 0.10000
H 	H 	0.65460 0.96210 0.11930 0.10400
H 	H 	0.54780 0.95920 0.15660 0.09600
C 	C 	0.53730 0.76740 0.13450 -0.93300
H 	H 	0.57970 0.80280 0.16950 0.28100
H 	H 	0.55160 0.69760 0.13760 0.28800
H 	H 	0.46830 0.77880 0.14750 0.29600
C 	C 	0.48380 0.74370 0.99950 -0.89800
H 	H 	0.49190 0.76620 0.94780 0.30800
H 	H 	0.41570 0.75420 0.01540 0.29400
H 	H 	0.49940 0.67410 0.00240 0.29700
C 	C 	0.43120 0.94710 0.03200 0.35000
C 	C 	0.70110 0.68610 0.01730 0.41000
C 	C 	0.32630 0.29460 0.03390 -0.19600
C 	C 	0.44260 0.30810 0.04970 0.76100
C 	C 	0.45710 0.42120 0.03280 -0.50400
H 	H 	0.43180 0.45810 0.07700 0.16600
C 	C 	0.38850 0.44360 0.96620 0.11800
H 	H 	0.42680 0.44950 0.91930 -0.00200
H 	H 	0.35250 0.50520 0.97470 -0.02200
C 	C 	0.31460 0.35500 0.96140 -0.14700
H 	H 	0.24630 0.37900 0.95680 0.05900
H 	H 	0.32980 0.31440 0.91710 0.07000
C 	C 	0.26520 0.33730 0.10020 -0.24300
H 	H 	0.19500 0.32870 0.09010 0.08900
H 	H 	0.27970 0.40680 0.10560 0.07900
H 	H 	0.28260 0.30330 0.14650 0.07700
C 	C 	0.47200 0.27920 0.13210 -1.20300
H 	H 	0.54260 0.28940 0.13910 0.37700
H 	H 	0.45620 0.21050 0.14070 0.36700
H 	H 	0.43550 0.31970 0.16760 0.35900
C 	C 	0.50400 0.25000 0.99830 -1.41900
H 	H 	0.57360 0.26040 0.01010 0.45000
H 	H 	0.49130 0.27020 0.94660 0.46000
H 	H 	0.48810 0.18080 0.00400 0.44900
C 	C 	0.30010 0.18380 0.02190 0.38900
C 	C 	0.56350 0.44840 0.02250 0.46700
C 	C 	0.17260 0.95130 0.75600 -1.39100
H 	H 	0.15220 0.94120 0.80800 0.42400
H 	H 	0.17850 0.88820 0.73080 0.42500
H 	H 	0.12340 0.99120 0.73020 0.42400
C 	C 	0.27020 0.00260 0.75460 0.75400
Co	Co	0.23306 0.99008 0.42598 1.17000
Co	Co	0.26574 0.00893 0.58387 1.16700
O 	O 	0.09650 0.02830 0.46990 -0.47400
O 	O 	0.12110 0.05850 0.59320 -0.46500
O 	O 	0.80560 0.34900 0.44940 -0.44800
O 	O 	0.76890 0.36240 0.57460 -0.48400
O 	O 	0.20660 0.84770 0.45610 -0.47300
O 	O 	0.21560 0.86570 0.58120 -0.48500
O 	O 	0.88000 0.54320 0.57770 -0.52600
O 	O 	0.90330 0.53810 0.45220 -0.45800
O 	O 	0.18630 0.97520 0.19230 -0.51800
O 	O 	0.18690 0.97790 0.31700 -0.52400
C 	C 	0.95380 0.08070 0.54480 -0.09200
C 	C 	0.94320 0.19630 0.55350 0.49000
C 	C 	0.83130 0.20840 0.53030 -0.38200
H 	H 	0.79030 0.18160 0.57190 0.14200
C 	C 	0.81740 0.13920 0.46020 0.09000
H 	H 	0.74920 0.11430 0.45770 -0.01700
H 	H 	0.83230 0.17420 0.41310 0.00400
C 	C 	0.89020 0.05580 0.47260 -0.18600
H 	H 	0.93350 0.04870 0.42850 0.09100
H 	H 	0.85430 0.99390 0.48010 0.07500
C 	C 	0.91500 0.02300 0.61170 -0.32900
H 	H 	0.92280 0.95320 0.60200 0.10100
H 	H 	0.84540 0.03790 0.61930 0.10500
H 	H 	0.95220 0.04080 0.65660 0.09600
C 	C 	0.96270 0.23260 0.63450 -0.95000
H 	H 	0.92030 0.19720 0.66950 0.28500
H 	H 	0.94840 0.30240 0.63760 0.29200
H 	H 	0.03170 0.22120 0.64750 0.30200
C 	C 	0.01620 0.25630 0.49950 -0.93400
H 	H 	0.00810 0.23380 0.44780 0.31800
H 	H 	0.08430 0.24580 0.51540 0.30600
H 	H 	0.00060 0.32590 0.50240 0.30900
C 	C 	0.06880 0.05290 0.53200 0.35800
C 	C 	0.79890 0.31390 0.51730 0.41500
C 	C 	0.17370 0.70540 0.53390 -0.18800
C 	C 	0.05740 0.69190 0.54970 0.73700
C 	C 	0.04290 0.57880 0.53280 -0.49600
H 	H 	0.06820 0.54190 0.57700 0.16400
C 	C 	0.11150 0.55640 0.46620 0.11500
H 	H 	0.07320 0.55050 0.41930 -0.00100
H 	H 	0.14750 0.49480 0.47470 -0.02200
C 	C 	0.18540 0.64500 0.46140 -0.14700
H 	H 	0.25370 0.62100 0.45680 0.05900
H 	H 	0.17020 0.68560 0.41710 0.07000
C 	C 	0.23480 0.66270 0.60020 -0.25000
H 	H 	0.30500 0.67130 0.59010 0.09000
H 	H 	0.22030 0.59320 0.60560 0.08100
H 	H 	0.21740 0.69670 0.64650 0.07900
C 	C 	0.02800 0.72080 0.63210 -1.18500
H 	H 	0.95740 0.71060 0.63910 0.37300
H 	H 	0.04380 0.78950 0.64070 0.36100
H 	H 	0.06450 0.68030 0.66760 0.35400
C 	C 	0.99600 0.75000 0.49830 -1.35900
H 	H 	0.92640 0.73960 0.51010 0.43200
H 	H 	0.00870 0.72980 0.44660 0.44200
H 	H 	0.01190 0.81920 0.50400 0.42900
C 	C 	0.19990 0.81620 0.52190 0.38400
C 	C 	0.93650 0.55160 0.52250 0.46600
C 	C 	0.32740 0.04870 0.25600 -1.38500
H 	H 	0.34780 0.05880 0.30800 0.42300
H 	H 	0.32150 0.11180 0.23080 0.42400
H 	H 	0.37660 0.00880 0.23020 0.42400
C 	C 	0.22980 0.99740 0.25460 0.75000
