data_crystal

_cell_length_a 21.22450
_cell_length_b 21.22450
_cell_length_c 21.22450
_cell_angle_alpha 90.00000
_cell_angle_beta  90.00000
_cell_angle_gamma 90.00000

_symmetry_space_group_name_	'P 1'
_symmetry_space_group_name_H-M	'P 1'

loop_
_symmetry_equiv_pos_as_xyz
  x,y,z

loop_
_atom_site_label
_atom_site_type_symbol
_atom_site_fract_x
_atom_site_fract_y
_atom_site_fract_z
_atom_site_charge
Bi	Bi	0.27771 0.42258 0.52774 1.86900
Na	Na	0.08647 0.44965 0.32479 0.58700
Na	Na	0.00812 0.54555 0.21420 0.59000
O 	O 	0.17680 0.25820 0.36150 -0.14400
O 	O 	0.42370 0.25800 0.66230 -0.16000
O 	O 	0.24270 0.39840 0.43250 -0.46900
O 	O 	0.32660 0.39120 0.61840 -0.43300
O 	O 	0.21820 0.34010 0.54510 -0.55600
O 	O 	0.34600 0.35380 0.49760 -0.57000
O 	O 	0.08560 0.34040 0.54520 -0.56200
O 	O 	0.47330 0.37720 0.48040 -0.56100
O 	O 	0.11900 0.35030 0.37530 -0.23000
O 	O 	0.46490 0.35960 0.65320 -0.23400
O 	O 	0.02050 0.42750 0.41380 -0.54500
H 	H 	0.02020 0.44420 0.44450 0.33200
O 	O 	0.54820 0.45320 0.61580 -0.52600
H 	H 	0.53550 0.46910 0.58750 0.32200
C 	C 	0.18030 0.32380 0.37140 0.14100
H 	H 	0.20130 0.34230 0.33590 0.00700
C 	C 	0.40900 0.32300 0.66110 0.14600
H 	H 	0.39050 0.33390 0.70090 0.00300
C 	C 	0.22140 0.33490 0.42980 0.02600
H 	H 	0.25720 0.30730 0.42810 0.01600
C 	C 	0.35920 0.33390 0.60920 0.01600
H 	H 	0.32930 0.30000 0.61070 0.02100
C 	C 	0.18380 0.32080 0.49000 0.00600
H 	H 	0.17670 0.27620 0.49240 0.01500
C 	C 	0.39010 0.33440 0.54430 0.02900
H 	H 	0.40340 0.29220 0.53460 -0.00100
C 	C 	0.11960 0.35420 0.48910 0.07000
H 	H 	0.12640 0.39890 0.48680 -0.01600
C 	C 	0.44770 0.37720 0.54270 0.05000
H 	H 	0.43510 0.41920 0.55350 -0.00700
C 	C 	0.08350 0.33320 0.43100 -0.03300
H 	H 	0.07910 0.28820 0.43220 0.01500
C 	C 	0.49460 0.35350 0.59160 -0.02300
H 	H 	0.50390 0.30990 0.58370 0.01100
C 	C 	0.01840 0.36240 0.42420 0.16600
H 	H 	0.99700 0.34270 0.38960 -0.00100
H 	H 	0.99460 0.35430 0.46170 -0.04600
C 	C 	0.55570 0.39030 0.59540 0.12800
H 	H 	0.58370 0.36900 0.62380 0.01600
H 	H 	0.57510 0.39050 0.55460 -0.03200
C 	C 	0.14840 0.24230 0.30290 -0.28900
H 	H 	0.14720 0.19740 0.29840 0.15000
H 	H 	0.17250 0.26020 0.26910 0.13800
H 	H 	0.10620 0.25870 0.30170 0.13900
C 	C 	0.45680 0.24020 0.71760 -0.27100
H 	H 	0.46560 0.19580 0.71620 0.13700
H 	H 	0.43150 0.24940 0.75400 0.13300
H 	H 	0.49570 0.26320 0.72000 0.13600
O 	O 	0.05910 0.56070 0.31420 -0.24500
O 	O 	0.99800 0.43570 0.25130 -0.23000
O 	O 	0.92260 0.60320 0.26900 -0.10000
O 	O 	0.90640 0.56450 0.26900 -0.05400
O 	O 	0.16300 0.42500 0.24010 -0.14100
O 	O 	0.13740 0.39880 0.22890 -0.08900
O 	O 	0.87250 0.60780 0.29790 0.01100
O 	O 	0.84200 0.55930 0.29240 -0.08000
Bi	Bi	0.22229 0.57742 0.02774 1.87000
Na	Na	0.41353 0.55035 0.82479 0.58800
Na	Na	0.49188 0.45445 0.71420 0.59000
O 	O 	0.32320 0.74180 0.86150 -0.14400
O 	O 	0.07630 0.74200 0.16230 -0.16000
O 	O 	0.25730 0.60160 0.93250 -0.46900
O 	O 	0.17340 0.60880 0.11840 -0.43400
O 	O 	0.28180 0.65990 0.04510 -0.55600
O 	O 	0.15400 0.64620 0.99760 -0.56900
O 	O 	0.41440 0.65960 0.04520 -0.56200
O 	O 	0.02670 0.62280 0.98040 -0.55900
O 	O 	0.38100 0.64970 0.87530 -0.22900
O 	O 	0.03510 0.64040 0.15320 -0.23400
O 	O 	0.47950 0.57250 0.91380 -0.54600
H 	H 	0.47980 0.55580 0.94450 0.33300
O 	O 	0.95180 0.54680 0.11580 -0.52600
H 	H 	0.96450 0.53090 0.08750 0.32300
C 	C 	0.31970 0.67620 0.87140 0.14000
H 	H 	0.29870 0.65770 0.83590 0.00700
C 	C 	0.09100 0.67700 0.16110 0.14500
H 	H 	0.10950 0.66610 0.20090 0.00300
C 	C 	0.27860 0.66510 0.92980 0.02600
H 	H 	0.24280 0.69270 0.92810 0.01600
C 	C 	0.14080 0.66610 0.10920 0.01700
H 	H 	0.17070 0.70000 0.11070 0.02000
C 	C 	0.31620 0.67920 0.99000 0.00600
H 	H 	0.32330 0.72380 0.99240 0.01500
C 	C 	0.10990 0.66560 0.04430 0.02700
H 	H 	0.09660 0.70780 0.03460 -0.00100
C 	C 	0.38040 0.64580 0.98910 0.07100
H 	H 	0.37360 0.60110 0.98680 -0.01600
C 	C 	0.05230 0.62280 0.04270 0.05000
H 	H 	0.06490 0.58080 0.05350 -0.00800
C 	C 	0.41650 0.66680 0.93100 -0.03600
H 	H 	0.42090 0.71180 0.93220 0.01600
C 	C 	0.00540 0.64650 0.09160 -0.02800
H 	H 	0.99610 0.69010 0.08370 0.01300
C 	C 	0.48160 0.63760 0.92420 0.17400
H 	H 	0.50300 0.65730 0.88960 -0.00400
H 	H 	0.50540 0.64570 0.96170 -0.05000
C 	C 	0.94430 0.60970 0.09540 0.13200
H 	H 	0.91630 0.63100 0.12380 0.01500
H 	H 	0.92490 0.60950 0.05460 -0.03200
C 	C 	0.35160 0.75770 0.80290 -0.29000
H 	H 	0.35280 0.80260 0.79840 0.15100
H 	H 	0.32750 0.73980 0.76910 0.13900
H 	H 	0.39380 0.74130 0.80170 0.14000
C 	C 	0.04320 0.75980 0.21760 -0.27100
H 	H 	0.03440 0.80420 0.21620 0.13700
H 	H 	0.06850 0.75060 0.25400 0.13300
H 	H 	0.00430 0.73680 0.22000 0.13600
O 	O 	0.44090 0.43930 0.81420 -0.24400
O 	O 	0.50200 0.56430 0.75130 -0.23100
O 	O 	0.57740 0.39680 0.76900 -0.10000
O 	O 	0.59360 0.43550 0.76900 -0.05400
O 	O 	0.33700 0.57500 0.74010 -0.14100
O 	O 	0.36260 0.60120 0.72890 -0.08800
O 	O 	0.62750 0.39220 0.79790 0.01100
O 	O 	0.65800 0.44070 0.79240 -0.08000
Bi	Bi	0.72229 0.92258 0.97226 1.86900
Na	Na	0.91353 0.94965 0.17521 0.58800
Na	Na	0.99188 0.04555 0.28580 0.59000
O 	O 	0.82320 0.75820 0.13850 -0.14400
O 	O 	0.57630 0.75800 0.83770 -0.16000
O 	O 	0.75730 0.89840 0.06750 -0.46800
O 	O 	0.67340 0.89120 0.88160 -0.43400
O 	O 	0.78180 0.84010 0.95490 -0.55800
O 	O 	0.65400 0.85380 0.00240 -0.56800
O 	O 	0.91440 0.84040 0.95480 -0.56600
O 	O 	0.52670 0.87720 0.01960 -0.55900
O 	O 	0.88100 0.85030 0.12470 -0.22900
O 	O 	0.53510 0.85960 0.84680 -0.23400
O 	O 	0.97950 0.92750 0.08620 -0.54800
H 	H 	0.97980 0.94420 0.05550 0.33400
O 	O 	0.45180 0.95320 0.88420 -0.52600
H 	H 	0.46450 0.96910 0.91250 0.32100
C 	C 	0.81970 0.82380 0.12860 0.14000
H 	H 	0.79870 0.84230 0.16410 0.00800
C 	C 	0.59100 0.82300 0.83890 0.14600
H 	H 	0.60950 0.83390 0.79910 0.00300
C 	C 	0.77860 0.83490 0.07020 0.02500
H 	H 	0.74280 0.80730 0.07190 0.01700
C 	C 	0.64080 0.83390 0.89080 0.01700
H 	H 	0.67070 0.80000 0.88930 0.02000
C 	C 	0.81620 0.82080 0.01000 0.00700
H 	H 	0.82330 0.77620 0.00760 0.01600
C 	C 	0.60990 0.83440 0.95570 0.02600
H 	H 	0.59660 0.79220 0.96540 -0.00100
C 	C 	0.88040 0.85420 0.01090 0.07600
H 	H 	0.87360 0.89890 0.01320 -0.01700
C 	C 	0.55230 0.87720 0.95730 0.04900
H 	H 	0.56490 0.91920 0.94650 -0.00800
C 	C 	0.91650 0.83320 0.06900 -0.03900
H 	H 	0.92090 0.78820 0.06780 0.01800
C 	C 	0.50540 0.85350 0.90840 -0.02300
H 	H 	0.49610 0.80990 0.91630 0.01000
C 	C 	0.98160 0.86240 0.07580 0.17900
H 	H 	0.00300 0.84270 0.11040 -0.00600
H 	H 	0.00540 0.85430 0.03830 -0.05100
C 	C 	0.44430 0.89030 0.90460 0.12800
H 	H 	0.41630 0.86900 0.87620 0.01600
H 	H 	0.42490 0.89050 0.94540 -0.03200
C 	C 	0.85160 0.74230 0.19710 -0.29100
H 	H 	0.85280 0.69740 0.20160 0.15100
H 	H 	0.82750 0.76020 0.23090 0.13900
H 	H 	0.89380 0.75870 0.19830 0.14000
C 	C 	0.54320 0.74020 0.78240 -0.27100
H 	H 	0.53440 0.69580 0.78380 0.13700
H 	H 	0.56850 0.74940 0.74600 0.13300
H 	H 	0.50430 0.76320 0.78000 0.13500
O 	O 	0.94090 0.06070 0.18580 -0.24300
O 	O 	0.00200 0.93570 0.24870 -0.23000
O 	O 	0.07740 0.10320 0.23100 -0.10100
O 	O 	0.09360 0.06450 0.23100 -0.05500
O 	O 	0.83700 0.92500 0.25990 -0.14100
O 	O 	0.86260 0.89880 0.27110 -0.08800
O 	O 	0.12750 0.10780 0.20210 0.01200
O 	O 	0.15800 0.05930 0.20760 -0.08100
Bi	Bi	0.77771 0.07742 0.47226 1.87100
Na	Na	0.58647 0.05035 0.67521 0.58900
Na	Na	0.50812 0.95445 0.78580 0.59000
O 	O 	0.67680 0.24180 0.63850 -0.14400
O 	O 	0.92370 0.24200 0.33770 -0.15900
O 	O 	0.74270 0.10160 0.56750 -0.46900
O 	O 	0.82660 0.10880 0.38160 -0.43300
O 	O 	0.71820 0.15990 0.45490 -0.55500
O 	O 	0.84600 0.14620 0.50240 -0.57100
O 	O 	0.58560 0.15960 0.45480 -0.56200
O 	O 	0.97330 0.12280 0.51960 -0.55900
O 	O 	0.61900 0.14970 0.62470 -0.22900
O 	O 	0.96490 0.14040 0.34680 -0.23500
O 	O 	0.52050 0.07250 0.58620 -0.54600
H 	H 	0.52020 0.05580 0.55550 0.33300
O 	O 	0.04820 0.04680 0.38420 -0.52500
H 	H 	0.03550 0.03090 0.41250 0.32000
C 	C 	0.68030 0.17620 0.62860 0.14000
H 	H 	0.70130 0.15770 0.66410 0.00800
C 	C 	0.90900 0.17700 0.33890 0.14600
H 	H 	0.89050 0.16610 0.29910 0.00300
C 	C 	0.72140 0.16510 0.57020 0.02600
H 	H 	0.75720 0.19270 0.57190 0.01600
C 	C 	0.85920 0.16610 0.39080 0.01600
H 	H 	0.82930 0.20000 0.38930 0.02100
C 	C 	0.68380 0.17920 0.51000 0.00500
H 	H 	0.67670 0.22380 0.50760 0.01500
C 	C 	0.89010 0.16560 0.45570 0.03000
H 	H 	0.90340 0.20780 0.46540 -0.00100
C 	C 	0.61960 0.14580 0.51090 0.07100
H 	H 	0.62640 0.10110 0.51320 -0.01600
C 	C 	0.94770 0.12280 0.45730 0.04600
H 	H 	0.93510 0.08080 0.44650 -0.00600
C 	C 	0.58350 0.16680 0.56900 -0.03600
H 	H 	0.57910 0.21180 0.56780 0.01600
C 	C 	0.99460 0.14650 0.40840 -0.01400
H 	H 	0.00390 0.19010 0.41630 0.00600
C 	C 	0.51840 0.13760 0.57580 0.17400
H 	H 	0.49700 0.15730 0.61040 -0.00400
H 	H 	0.49460 0.14570 0.53830 -0.05000
C 	C 	0.05570 0.10970 0.40460 0.12100
H 	H 	0.08370 0.13100 0.37620 0.01800
H 	H 	0.07510 0.10950 0.44540 -0.03000
C 	C 	0.64840 0.25770 0.69710 -0.29000
H 	H 	0.64720 0.30260 0.70160 0.15100
H 	H 	0.67250 0.23980 0.73090 0.13900
H 	H 	0.60620 0.24130 0.69830 0.14000
C 	C 	0.95680 0.25980 0.28240 -0.27300
H 	H 	0.96560 0.30420 0.28380 0.13800
H 	H 	0.93150 0.25060 0.24600 0.13400
H 	H 	0.99570 0.23680 0.28000 0.13700
O 	O 	0.55910 0.93930 0.68580 -0.24500
O 	O 	0.49800 0.06430 0.74870 -0.23000
O 	O 	0.42260 0.89680 0.73100 -0.10000
O 	O 	0.40640 0.93550 0.73100 -0.05400
O 	O 	0.66300 0.07500 0.75990 -0.14000
O 	O 	0.63740 0.10120 0.77110 -0.08800
O 	O 	0.37250 0.89220 0.70210 0.01100
O 	O 	0.34200 0.94070 0.70760 -0.08000
Bi	Bi	0.52774 0.27771 0.42258 1.87000
Na	Na	0.32479 0.08647 0.44965 0.58800
Na	Na	0.21420 0.00812 0.54555 0.59000
O 	O 	0.36150 0.17680 0.25820 -0.14400
O 	O 	0.66230 0.42370 0.25800 -0.16000
O 	O 	0.43250 0.24270 0.39840 -0.46900
O 	O 	0.61840 0.32660 0.39120 -0.43300
O 	O 	0.54510 0.21820 0.34010 -0.55600
O 	O 	0.49760 0.34600 0.35380 -0.57000
O 	O 	0.54520 0.08560 0.34040 -0.56200
O 	O 	0.48040 0.47330 0.37720 -0.56100
O 	O 	0.37530 0.11900 0.35030 -0.23000
O 	O 	0.65320 0.46490 0.35960 -0.23400
O 	O 	0.41380 0.02050 0.42750 -0.54500
H 	H 	0.44450 0.02020 0.44420 0.33200
O 	O 	0.61580 0.54820 0.45320 -0.52600
H 	H 	0.58750 0.53550 0.46910 0.32200
C 	C 	0.37140 0.18030 0.32380 0.14100
H 	H 	0.33590 0.20130 0.34230 0.00700
C 	C 	0.66110 0.40900 0.32300 0.14600
H 	H 	0.70090 0.39050 0.33390 0.00300
C 	C 	0.42980 0.22140 0.33490 0.02600
H 	H 	0.42810 0.25720 0.30730 0.01600
C 	C 	0.60920 0.35920 0.33390 0.01600
H 	H 	0.61070 0.32930 0.30000 0.02100
C 	C 	0.49000 0.18380 0.32080 0.00600
H 	H 	0.49240 0.17670 0.27620 0.01500
C 	C 	0.54430 0.39010 0.33440 0.02900
H 	H 	0.53460 0.40340 0.29220 -0.00100
C 	C 	0.48910 0.11960 0.35420 0.07000
H 	H 	0.48680 0.12640 0.39890 -0.01600
C 	C 	0.54270 0.44770 0.37720 0.05000
H 	H 	0.55350 0.43510 0.41920 -0.00700
C 	C 	0.43100 0.08350 0.33320 -0.03300
H 	H 	0.43220 0.07910 0.28820 0.01500
C 	C 	0.59160 0.49460 0.35350 -0.02300
H 	H 	0.58370 0.50390 0.30990 0.01100
C 	C 	0.42420 0.01840 0.36240 0.16600
H 	H 	0.38960 0.99700 0.34270 -0.00100
H 	H 	0.46170 0.99460 0.35430 -0.04600
C 	C 	0.59540 0.55570 0.39030 0.12800
H 	H 	0.62380 0.58370 0.36900 0.01600
H 	H 	0.55460 0.57510 0.39050 -0.03200
C 	C 	0.30290 0.14840 0.24230 -0.28900
H 	H 	0.29840 0.14720 0.19740 0.15000
H 	H 	0.26910 0.17250 0.26020 0.13800
H 	H 	0.30170 0.10620 0.25870 0.13900
C 	C 	0.71760 0.45680 0.24020 -0.27100
H 	H 	0.71620 0.46560 0.19580 0.13700
H 	H 	0.75400 0.43150 0.24940 0.13300
H 	H 	0.72000 0.49570 0.26320 0.13600
O 	O 	0.31420 0.05910 0.56070 -0.24500
O 	O 	0.25130 0.99800 0.43570 -0.23000
O 	O 	0.26900 0.92260 0.60320 -0.10000
O 	O 	0.26900 0.90640 0.56450 -0.05400
O 	O 	0.24010 0.16300 0.42500 -0.14100
O 	O 	0.22890 0.13740 0.39880 -0.08900
O 	O 	0.29790 0.87250 0.60780 0.01100
O 	O 	0.29240 0.84200 0.55930 -0.08000
Bi	Bi	0.02774 0.22229 0.57742 1.87000
Na	Na	0.82479 0.41353 0.55035 0.58800
Na	Na	0.71420 0.49188 0.45445 0.59000
O 	O 	0.86150 0.32320 0.74180 -0.14400
O 	O 	0.16230 0.07630 0.74200 -0.16000
O 	O 	0.93250 0.25730 0.60160 -0.46900
O 	O 	0.11840 0.17340 0.60880 -0.43400
O 	O 	0.04510 0.28180 0.65990 -0.55600
O 	O 	0.99760 0.15400 0.64620 -0.56900
O 	O 	0.04520 0.41440 0.65960 -0.56200
O 	O 	0.98040 0.02670 0.62280 -0.55900
O 	O 	0.87530 0.38100 0.64970 -0.22900
O 	O 	0.15320 0.03510 0.64040 -0.23400
O 	O 	0.91380 0.47950 0.57250 -0.54600
H 	H 	0.94450 0.47980 0.55580 0.33300
O 	O 	0.11580 0.95180 0.54680 -0.52600
H 	H 	0.08750 0.96450 0.53090 0.32300
C 	C 	0.87140 0.31970 0.67620 0.14000
H 	H 	0.83590 0.29870 0.65770 0.00700
C 	C 	0.16110 0.09100 0.67700 0.14500
H 	H 	0.20090 0.10950 0.66610 0.00300
C 	C 	0.92980 0.27860 0.66510 0.02600
H 	H 	0.92810 0.24280 0.69270 0.01600
C 	C 	0.10920 0.14080 0.66610 0.01700
H 	H 	0.11070 0.17070 0.70000 0.02000
C 	C 	0.99000 0.31620 0.67920 0.00600
H 	H 	0.99240 0.32330 0.72380 0.01500
C 	C 	0.04430 0.10990 0.66560 0.02700
H 	H 	0.03460 0.09660 0.70780 -0.00100
C 	C 	0.98910 0.38040 0.64580 0.07100
H 	H 	0.98680 0.37360 0.60110 -0.01600
C 	C 	0.04270 0.05230 0.62280 0.05000
H 	H 	0.05350 0.06490 0.58080 -0.00800
C 	C 	0.93100 0.41650 0.66680 -0.03600
H 	H 	0.93220 0.42090 0.71180 0.01600
C 	C 	0.09160 0.00540 0.64650 -0.02800
H 	H 	0.08370 0.99610 0.69010 0.01300
C 	C 	0.92420 0.48160 0.63760 0.17400
H 	H 	0.88960 0.50300 0.65730 -0.00400
H 	H 	0.96170 0.50540 0.64570 -0.05000
C 	C 	0.09540 0.94430 0.60970 0.13200
H 	H 	0.12380 0.91630 0.63100 0.01500
H 	H 	0.05460 0.92490 0.60950 -0.03200
C 	C 	0.80290 0.35160 0.75770 -0.29000
H 	H 	0.79840 0.35280 0.80260 0.15100
H 	H 	0.76910 0.32750 0.73980 0.13900
H 	H 	0.80170 0.39380 0.74130 0.14000
C 	C 	0.21760 0.04320 0.75980 -0.27100
H 	H 	0.21620 0.03440 0.80420 0.13700
H 	H 	0.25400 0.06850 0.75060 0.13300
H 	H 	0.22000 0.00430 0.73680 0.13600
O 	O 	0.81420 0.44090 0.43930 -0.24400
O 	O 	0.75130 0.50200 0.56430 -0.23100
O 	O 	0.76900 0.57740 0.39680 -0.10000
O 	O 	0.76900 0.59360 0.43550 -0.05400
O 	O 	0.74010 0.33700 0.57500 -0.14100
O 	O 	0.72890 0.36260 0.60120 -0.08800
O 	O 	0.79790 0.62750 0.39220 0.01100
O 	O 	0.79240 0.65800 0.44070 -0.08000
Bi	Bi	0.97226 0.72229 0.92258 1.86900
Na	Na	0.17521 0.91353 0.94965 0.58800
Na	Na	0.28580 0.99188 0.04555 0.59000
O 	O 	0.13850 0.82320 0.75820 -0.14400
O 	O 	0.83770 0.57630 0.75800 -0.16000
O 	O 	0.06750 0.75730 0.89840 -0.46800
O 	O 	0.88160 0.67340 0.89120 -0.43400
O 	O 	0.95490 0.78180 0.84010 -0.55800
O 	O 	0.00240 0.65400 0.85380 -0.56800
O 	O 	0.95480 0.91440 0.84040 -0.56700
O 	O 	0.01960 0.52670 0.87720 -0.55900
O 	O 	0.12470 0.88100 0.85030 -0.22900
O 	O 	0.84680 0.53510 0.85960 -0.23400
O 	O 	0.08620 0.97950 0.92750 -0.54800
H 	H 	0.05550 0.97980 0.94420 0.33400
O 	O 	0.88420 0.45180 0.95320 -0.52600
H 	H 	0.91250 0.46450 0.96910 0.32100
C 	C 	0.12860 0.81970 0.82380 0.14000
H 	H 	0.16410 0.79870 0.84230 0.00800
C 	C 	0.83890 0.59100 0.82300 0.14600
H 	H 	0.79910 0.60950 0.83390 0.00300
C 	C 	0.07020 0.77860 0.83490 0.02500
H 	H 	0.07190 0.74280 0.80730 0.01700
C 	C 	0.89080 0.64080 0.83390 0.01700
H 	H 	0.88930 0.67070 0.80000 0.02000
C 	C 	0.01000 0.81620 0.82080 0.00700
H 	H 	0.00760 0.82330 0.77620 0.01600
C 	C 	0.95570 0.60990 0.83440 0.02600
H 	H 	0.96540 0.59660 0.79220 -0.00100
C 	C 	0.01090 0.88040 0.85420 0.07600
H 	H 	0.01320 0.87360 0.89890 -0.01700
C 	C 	0.95730 0.55230 0.87720 0.04900
H 	H 	0.94650 0.56490 0.91920 -0.00800
C 	C 	0.06900 0.91650 0.83320 -0.03900
H 	H 	0.06780 0.92090 0.78820 0.01800
C 	C 	0.90840 0.50540 0.85350 -0.02300
H 	H 	0.91630 0.49610 0.80990 0.01000
C 	C 	0.07580 0.98160 0.86240 0.17900
H 	H 	0.11040 0.00300 0.84270 -0.00600
H 	H 	0.03830 0.00540 0.85430 -0.05100
C 	C 	0.90460 0.44430 0.89030 0.12800
H 	H 	0.87620 0.41630 0.86900 0.01600
H 	H 	0.94540 0.42490 0.89050 -0.03200
C 	C 	0.19710 0.85160 0.74230 -0.29100
H 	H 	0.20160 0.85280 0.69740 0.15100
H 	H 	0.23090 0.82750 0.76020 0.13900
H 	H 	0.19830 0.89380 0.75870 0.14000
C 	C 	0.78240 0.54320 0.74020 -0.27100
H 	H 	0.78380 0.53440 0.69580 0.13700
H 	H 	0.74600 0.56850 0.74940 0.13300
H 	H 	0.78000 0.50430 0.76320 0.13500
O 	O 	0.18580 0.94090 0.06070 -0.24300
O 	O 	0.24870 0.00200 0.93570 -0.23000
O 	O 	0.23100 0.07740 0.10320 -0.10100
O 	O 	0.23100 0.09360 0.06450 -0.05500
O 	O 	0.25990 0.83700 0.92500 -0.14100
O 	O 	0.27110 0.86260 0.89880 -0.08800
O 	O 	0.20210 0.12750 0.10780 0.01200
O 	O 	0.20760 0.15800 0.05930 -0.08100
Bi	Bi	0.47226 0.77771 0.07742 1.87100
Na	Na	0.67521 0.58647 0.05035 0.58900
Na	Na	0.78580 0.50812 0.95445 0.59000
O 	O 	0.63850 0.67680 0.24180 -0.14400
O 	O 	0.33770 0.92370 0.24200 -0.15900
O 	O 	0.56750 0.74270 0.10160 -0.46900
O 	O 	0.38160 0.82660 0.10880 -0.43300
O 	O 	0.45490 0.71820 0.15990 -0.55500
O 	O 	0.50240 0.84600 0.14620 -0.57100
O 	O 	0.45480 0.58560 0.15960 -0.56200
O 	O 	0.51960 0.97330 0.12280 -0.55900
O 	O 	0.62470 0.61900 0.14970 -0.22900
O 	O 	0.34680 0.96490 0.14040 -0.23500
O 	O 	0.58620 0.52050 0.07250 -0.54600
H 	H 	0.55550 0.52020 0.05580 0.33300
O 	O 	0.38420 0.04820 0.04680 -0.52500
H 	H 	0.41250 0.03550 0.03090 0.32000
C 	C 	0.62860 0.68030 0.17620 0.14000
H 	H 	0.66410 0.70130 0.15770 0.00800
C 	C 	0.33890 0.90900 0.17700 0.14600
H 	H 	0.29910 0.89050 0.16610 0.00300
C 	C 	0.57020 0.72140 0.16510 0.02600
H 	H 	0.57190 0.75720 0.19270 0.01600
C 	C 	0.39080 0.85920 0.16610 0.01600
H 	H 	0.38930 0.82930 0.20000 0.02100
C 	C 	0.51000 0.68380 0.17920 0.00500
H 	H 	0.50760 0.67670 0.22380 0.01500
C 	C 	0.45570 0.89010 0.16560 0.03000
H 	H 	0.46540 0.90340 0.20780 -0.00100
C 	C 	0.51090 0.61960 0.14580 0.07100
H 	H 	0.51320 0.62640 0.10110 -0.01600
C 	C 	0.45730 0.94770 0.12280 0.04600
H 	H 	0.44650 0.93510 0.08080 -0.00600
C 	C 	0.56900 0.58350 0.16680 -0.03600
H 	H 	0.56780 0.57910 0.21180 0.01600
C 	C 	0.40840 0.99460 0.14650 -0.01400
H 	H 	0.41630 0.00390 0.19010 0.00600
C 	C 	0.57580 0.51840 0.13760 0.17400
H 	H 	0.61040 0.49700 0.15730 -0.00400
H 	H 	0.53830 0.49460 0.14570 -0.05000
C 	C 	0.40460 0.05570 0.10970 0.12100
H 	H 	0.37620 0.08370 0.13100 0.01800
H 	H 	0.44540 0.07510 0.10950 -0.03000
C 	C 	0.69710 0.64840 0.25770 -0.29000
H 	H 	0.70160 0.64720 0.30260 0.15100
H 	H 	0.73090 0.67250 0.23980 0.13900
H 	H 	0.69830 0.60620 0.24130 0.14000
C 	C 	0.28240 0.95680 0.25980 -0.27300
H 	H 	0.28380 0.96560 0.30420 0.13800
H 	H 	0.24600 0.93150 0.25060 0.13400
H 	H 	0.28000 0.99570 0.23680 0.13700
O 	O 	0.68580 0.55910 0.93930 -0.24500
O 	O 	0.74870 0.49800 0.06430 -0.23000
O 	O 	0.73100 0.42260 0.89680 -0.10000
O 	O 	0.73100 0.40640 0.93550 -0.05400
O 	O 	0.75990 0.66300 0.07500 -0.14000
O 	O 	0.77110 0.63740 0.10120 -0.08800
O 	O 	0.70210 0.37250 0.89220 0.01100
O 	O 	0.70760 0.34200 0.94070 -0.08000
Bi	Bi	0.42258 0.52774 0.27771 1.87000
Na	Na	0.44965 0.32479 0.08647 0.58800
Na	Na	0.54555 0.21420 0.00812 0.59000
O 	O 	0.25820 0.36150 0.17680 -0.14400
O 	O 	0.25800 0.66230 0.42370 -0.16000
O 	O 	0.39840 0.43250 0.24270 -0.46900
O 	O 	0.39120 0.61840 0.32660 -0.43300
O 	O 	0.34010 0.54510 0.21820 -0.55600
O 	O 	0.35380 0.49760 0.34600 -0.57000
O 	O 	0.34040 0.54520 0.08560 -0.56200
O 	O 	0.37720 0.48040 0.47330 -0.56100
O 	O 	0.35030 0.37530 0.11900 -0.23000
O 	O 	0.35960 0.65320 0.46490 -0.23400
O 	O 	0.42750 0.41380 0.02050 -0.54500
H 	H 	0.44420 0.44450 0.02020 0.33200
O 	O 	0.45320 0.61580 0.54820 -0.52600
H 	H 	0.46910 0.58750 0.53550 0.32200
C 	C 	0.32380 0.37140 0.18030 0.14100
H 	H 	0.34230 0.33590 0.20130 0.00700
C 	C 	0.32300 0.66110 0.40900 0.14600
H 	H 	0.33390 0.70090 0.39050 0.00300
C 	C 	0.33490 0.42980 0.22140 0.02600
H 	H 	0.30730 0.42810 0.25720 0.01600
C 	C 	0.33390 0.60920 0.35920 0.01600
H 	H 	0.30000 0.61070 0.32930 0.02100
C 	C 	0.32080 0.49000 0.18380 0.00600
H 	H 	0.27620 0.49240 0.17670 0.01500
C 	C 	0.33440 0.54430 0.39010 0.02900
H 	H 	0.29220 0.53460 0.40340 -0.00100
C 	C 	0.35420 0.48910 0.11960 0.07000
H 	H 	0.39890 0.48680 0.12640 -0.01600
C 	C 	0.37720 0.54270 0.44770 0.05000
H 	H 	0.41920 0.55350 0.43510 -0.00700
C 	C 	0.33320 0.43100 0.08350 -0.03300
H 	H 	0.28820 0.43220 0.07910 0.01500
C 	C 	0.35350 0.59160 0.49460 -0.02300
H 	H 	0.30990 0.58370 0.50390 0.01100
C 	C 	0.36240 0.42420 0.01840 0.16600
H 	H 	0.34270 0.38960 0.99700 -0.00100
H 	H 	0.35430 0.46170 0.99460 -0.04600
C 	C 	0.39030 0.59540 0.55570 0.12800
H 	H 	0.36900 0.62380 0.58370 0.01600
H 	H 	0.39050 0.55460 0.57510 -0.03200
C 	C 	0.24230 0.30290 0.14840 -0.28900
H 	H 	0.19740 0.29840 0.14720 0.15000
H 	H 	0.26020 0.26910 0.17250 0.13800
H 	H 	0.25870 0.30170 0.10620 0.13900
C 	C 	0.24020 0.71760 0.45680 -0.27100
H 	H 	0.19580 0.71620 0.46560 0.13700
H 	H 	0.24940 0.75400 0.43150 0.13300
H 	H 	0.26320 0.72000 0.49570 0.13600
O 	O 	0.56070 0.31420 0.05910 -0.24500
O 	O 	0.43570 0.25130 0.99800 -0.23000
O 	O 	0.60320 0.26900 0.92260 -0.10000
O 	O 	0.56450 0.26900 0.90640 -0.05400
O 	O 	0.42500 0.24010 0.16300 -0.14100
O 	O 	0.39880 0.22890 0.13740 -0.08900
O 	O 	0.60780 0.29790 0.87250 0.01100
O 	O 	0.55930 0.29240 0.84200 -0.08000
Bi	Bi	0.57742 0.02774 0.22229 1.87000
Na	Na	0.55035 0.82479 0.41353 0.58800
Na	Na	0.45445 0.71420 0.49188 0.59000
O 	O 	0.74180 0.86150 0.32320 -0.14400
O 	O 	0.74200 0.16230 0.07630 -0.16000
O 	O 	0.60160 0.93250 0.25730 -0.46900
O 	O 	0.60880 0.11840 0.17340 -0.43400
O 	O 	0.65990 0.04510 0.28180 -0.55600
O 	O 	0.64620 0.99760 0.15400 -0.56900
O 	O 	0.65960 0.04520 0.41440 -0.56200
O 	O 	0.62280 0.98040 0.02670 -0.55900
O 	O 	0.64970 0.87530 0.38100 -0.22900
O 	O 	0.64040 0.15320 0.03510 -0.23400
O 	O 	0.57250 0.91380 0.47950 -0.54600
H 	H 	0.55580 0.94450 0.47980 0.33300
O 	O 	0.54680 0.11580 0.95180 -0.52600
H 	H 	0.53090 0.08750 0.96450 0.32300
C 	C 	0.67620 0.87140 0.31970 0.14000
H 	H 	0.65770 0.83590 0.29870 0.00700
C 	C 	0.67700 0.16110 0.09100 0.14500
H 	H 	0.66610 0.20090 0.10950 0.00300
C 	C 	0.66510 0.92980 0.27860 0.02600
H 	H 	0.69270 0.92810 0.24280 0.01600
C 	C 	0.66610 0.10920 0.14080 0.01700
H 	H 	0.70000 0.11070 0.17070 0.02000
C 	C 	0.67920 0.99000 0.31620 0.00600
H 	H 	0.72380 0.99240 0.32330 0.01500
C 	C 	0.66560 0.04430 0.10990 0.02700
H 	H 	0.70780 0.03460 0.09660 -0.00100
C 	C 	0.64580 0.98910 0.38040 0.07100
H 	H 	0.60110 0.98680 0.37360 -0.01600
C 	C 	0.62280 0.04270 0.05230 0.05000
H 	H 	0.58080 0.05350 0.06490 -0.00800
C 	C 	0.66680 0.93100 0.41650 -0.03600
H 	H 	0.71180 0.93220 0.42090 0.01600
C 	C 	0.64650 0.09160 0.00540 -0.02800
H 	H 	0.69010 0.08370 0.99610 0.01300
C 	C 	0.63760 0.92420 0.48160 0.17400
H 	H 	0.65730 0.88960 0.50300 -0.00400
H 	H 	0.64570 0.96170 0.50540 -0.05000
C 	C 	0.60970 0.09540 0.94430 0.13200
H 	H 	0.63100 0.12380 0.91630 0.01500
H 	H 	0.60950 0.05460 0.92490 -0.03200
C 	C 	0.75770 0.80290 0.35160 -0.29000
H 	H 	0.80260 0.79840 0.35280 0.15100
H 	H 	0.73980 0.76910 0.32750 0.13900
H 	H 	0.74130 0.80170 0.39380 0.14000
C 	C 	0.75980 0.21760 0.04320 -0.27100
H 	H 	0.80420 0.21620 0.03440 0.13700
H 	H 	0.75060 0.25400 0.06850 0.13300
H 	H 	0.73680 0.22000 0.00430 0.13600
O 	O 	0.43930 0.81420 0.44090 -0.24400
O 	O 	0.56430 0.75130 0.50200 -0.23100
O 	O 	0.39680 0.76900 0.57740 -0.10000
O 	O 	0.43550 0.76900 0.59360 -0.05400
O 	O 	0.57500 0.74010 0.33700 -0.14100
O 	O 	0.60120 0.72890 0.36260 -0.08800
O 	O 	0.39220 0.79790 0.62750 0.01100
O 	O 	0.44070 0.79240 0.65800 -0.08000
Bi	Bi	0.92258 0.97226 0.72229 1.86900
Na	Na	0.94965 0.17521 0.91353 0.58800
Na	Na	0.04555 0.28580 0.99188 0.59000
O 	O 	0.75820 0.13850 0.82320 -0.14400
O 	O 	0.75800 0.83770 0.57630 -0.16000
O 	O 	0.89840 0.06750 0.75730 -0.46800
O 	O 	0.89120 0.88160 0.67340 -0.43400
O 	O 	0.84010 0.95490 0.78180 -0.55800
O 	O 	0.85380 0.00240 0.65400 -0.56800
O 	O 	0.84040 0.95480 0.91440 -0.56700
O 	O 	0.87720 0.01960 0.52670 -0.55900
O 	O 	0.85030 0.12470 0.88100 -0.22900
O 	O 	0.85960 0.84680 0.53510 -0.23400
O 	O 	0.92750 0.08620 0.97950 -0.54800
H 	H 	0.94420 0.05550 0.97980 0.33400
O 	O 	0.95320 0.88420 0.45180 -0.52600
H 	H 	0.96910 0.91250 0.46450 0.32100
C 	C 	0.82380 0.12860 0.81970 0.14000
H 	H 	0.84230 0.16410 0.79870 0.00800
C 	C 	0.82300 0.83890 0.59100 0.14600
H 	H 	0.83390 0.79910 0.60950 0.00300
C 	C 	0.83490 0.07020 0.77860 0.02500
H 	H 	0.80730 0.07190 0.74280 0.01700
C 	C 	0.83390 0.89080 0.64080 0.01700
H 	H 	0.80000 0.88930 0.67070 0.02000
C 	C 	0.82080 0.01000 0.81620 0.00700
H 	H 	0.77620 0.00760 0.82330 0.01600
C 	C 	0.83440 0.95570 0.60990 0.02600
H 	H 	0.79220 0.96540 0.59660 -0.00100
C 	C 	0.85420 0.01090 0.88040 0.07600
H 	H 	0.89890 0.01320 0.87360 -0.01700
C 	C 	0.87720 0.95730 0.55230 0.04900
H 	H 	0.91920 0.94650 0.56490 -0.00800
C 	C 	0.83320 0.06900 0.91650 -0.03900
H 	H 	0.78820 0.06780 0.92090 0.01800
C 	C 	0.85350 0.90840 0.50540 -0.02300
H 	H 	0.80990 0.91630 0.49610 0.01000
C 	C 	0.86240 0.07580 0.98160 0.17900
H 	H 	0.84270 0.11040 0.00300 -0.00600
H 	H 	0.85430 0.03830 0.00540 -0.05100
C 	C 	0.89030 0.90460 0.44430 0.12800
H 	H 	0.86900 0.87620 0.41630 0.01600
H 	H 	0.89050 0.94540 0.42490 -0.03200
C 	C 	0.74230 0.19710 0.85160 -0.29100
H 	H 	0.69740 0.20160 0.85280 0.15100
H 	H 	0.76020 0.23090 0.82750 0.13900
H 	H 	0.75870 0.19830 0.89380 0.14000
C 	C 	0.74020 0.78240 0.54320 -0.27100
H 	H 	0.69580 0.78380 0.53440 0.13700
H 	H 	0.74940 0.74600 0.56850 0.13300
H 	H 	0.76320 0.78000 0.50430 0.13500
O 	O 	0.06070 0.18580 0.94090 -0.24300
O 	O 	0.93570 0.24870 0.00200 -0.23000
O 	O 	0.10320 0.23100 0.07740 -0.10100
O 	O 	0.06450 0.23100 0.09360 -0.05500
O 	O 	0.92500 0.25990 0.83700 -0.14100
O 	O 	0.89880 0.27110 0.86260 -0.08800
O 	O 	0.10780 0.20210 0.12750 0.01200
O 	O 	0.05930 0.20760 0.15800 -0.08100
Bi	Bi	0.07742 0.47226 0.77771 1.87100
Na	Na	0.05035 0.67521 0.58647 0.58900
Na	Na	0.95445 0.78580 0.50812 0.59000
O 	O 	0.24180 0.63850 0.67680 -0.14400
O 	O 	0.24200 0.33770 0.92370 -0.15900
O 	O 	0.10160 0.56750 0.74270 -0.46900
O 	O 	0.10880 0.38160 0.82660 -0.43300
O 	O 	0.15990 0.45490 0.71820 -0.55500
O 	O 	0.14620 0.50240 0.84600 -0.57100
O 	O 	0.15960 0.45480 0.58560 -0.56200
O 	O 	0.12280 0.51960 0.97330 -0.55900
O 	O 	0.14970 0.62470 0.61900 -0.22900
O 	O 	0.14040 0.34680 0.96490 -0.23500
O 	O 	0.07250 0.58620 0.52050 -0.54600
H 	H 	0.05580 0.55550 0.52020 0.33300
O 	O 	0.04680 0.38420 0.04820 -0.52500
H 	H 	0.03090 0.41250 0.03550 0.32000
C 	C 	0.17620 0.62860 0.68030 0.14000
H 	H 	0.15770 0.66410 0.70130 0.00800
C 	C 	0.17700 0.33890 0.90900 0.14600
H 	H 	0.16610 0.29910 0.89050 0.00300
C 	C 	0.16510 0.57020 0.72140 0.02600
H 	H 	0.19270 0.57190 0.75720 0.01600
C 	C 	0.16610 0.39080 0.85920 0.01600
H 	H 	0.20000 0.38930 0.82930 0.02100
C 	C 	0.17920 0.51000 0.68380 0.00500
H 	H 	0.22380 0.50760 0.67670 0.01500
C 	C 	0.16560 0.45570 0.89010 0.03000
H 	H 	0.20780 0.46540 0.90340 -0.00100
C 	C 	0.14580 0.51090 0.61960 0.07100
H 	H 	0.10110 0.51320 0.62640 -0.01600
C 	C 	0.12280 0.45730 0.94770 0.04600
H 	H 	0.08080 0.44650 0.93510 -0.00600
C 	C 	0.16680 0.56900 0.58350 -0.03600
H 	H 	0.21180 0.56780 0.57910 0.01600
C 	C 	0.14650 0.40840 0.99460 -0.01400
H 	H 	0.19010 0.41630 0.00390 0.00600
C 	C 	0.13760 0.57580 0.51840 0.17400
H 	H 	0.15730 0.61040 0.49700 -0.00400
H 	H 	0.14570 0.53830 0.49460 -0.05000
C 	C 	0.10970 0.40460 0.05570 0.12100
H 	H 	0.13100 0.37620 0.08370 0.01800
H 	H 	0.10950 0.44540 0.07510 -0.03000
C 	C 	0.25770 0.69710 0.64840 -0.29000
H 	H 	0.30260 0.70160 0.64720 0.15100
H 	H 	0.23980 0.73090 0.67250 0.13900
H 	H 	0.24130 0.69830 0.60620 0.14000
C 	C 	0.25980 0.28240 0.95680 -0.27300
H 	H 	0.30420 0.28380 0.96560 0.13800
H 	H 	0.25060 0.24600 0.93150 0.13400
H 	H 	0.23680 0.28000 0.99570 0.13700
O 	O 	0.93930 0.68580 0.55910 -0.24500
O 	O 	0.06430 0.74870 0.49800 -0.23000
O 	O 	0.89680 0.73100 0.42260 -0.10000
O 	O 	0.93550 0.73100 0.40640 -0.05400
O 	O 	0.07500 0.75990 0.66300 -0.14000
O 	O 	0.10120 0.77110 0.63740 -0.08800
O 	O 	0.89220 0.70210 0.37250 0.01100
O 	O 	0.94070 0.70760 0.34200 -0.08000
Bi	Bi	0.13182 0.36818 0.63182 1.86000
Bi	Bi	0.36818 0.63182 0.13182 1.86000
Bi	Bi	0.86819 0.86819 0.86818 1.86000
Bi	Bi	0.63182 0.13182 0.36818 1.86000
Bi	Bi	0.40643 0.40643 0.40643 1.86500
O 	O 	0.15490 0.15490 0.15490 -0.07000
Bi	Bi	0.09357 0.59357 0.90643 1.86500
O 	O 	0.34510 0.84510 0.65490 -0.06900
Bi	Bi	0.59357 0.90643 0.09357 1.86500
O 	O 	0.84510 0.65490 0.34510 -0.06900
Bi	Bi	0.90643 0.09357 0.59357 1.86500
O 	O 	0.65490 0.34510 0.84510 -0.06900
