data_crystal

_cell_length_a 38.76570
_cell_length_b 38.76570
_cell_length_c 56.45410
_cell_angle_alpha 90.00000
_cell_angle_beta  90.00000
_cell_angle_gamma 90.00000

_symmetry_space_group_name_	'P 1'
_symmetry_space_group_name_H-M	'P 1'

loop_
_symmetry_equiv_pos_as_xyz
  x,y,z

loop_
_atom_site_label
_atom_site_type_symbol
_atom_site_fract_x
_atom_site_fract_y
_atom_site_fract_z
_atom_site_charge
Zn	Zn	0.31680 0.42430 0.33790 1.17600
Zn	Zn	0.17700 0.42420 0.37260 1.18200
Zn	Zn	0.21980 0.32620 0.29770 1.17500
Zn	Zn	0.07350 0.42350 0.44810 1.18900
Cl	Cl	0.22500 0.43870 0.22140 -0.23800
Cl	Cl	0.24740 0.34770 0.44750 -0.21300
Cl	Cl	0.10280 0.42210 0.27190 -0.17800
Cl	Cl	0.16970 0.22720 0.37520 -0.22000
Cl	Cl	0.04520 0.34140 0.35450 -0.21000
Cl	Cl	0.06890 0.46180 0.30060 -0.12000
Cl	Cl	0.13620 0.27780 0.45260 -0.20000
Cl	Cl	0.41280 0.46730 0.41810 -0.17300
Cl	Cl	0.03140 0.44700 0.35170 -0.17700
Cl	Cl	0.23230 0.40890 0.47820 -0.19400
N 	N 	0.32890 0.47290 0.32970 -0.26100
N 	N 	0.29310 0.40130 0.31080 -0.29300
N 	N 	0.25860 0.36130 0.29530 -0.27100
N 	N 	0.28360 0.42510 0.36380 -0.28900
N 	N 	0.22920 0.42700 0.37660 -0.25500
N 	N 	0.19210 0.32330 0.26760 -0.26700
N 	N 	0.24160 0.28220 0.30490 -0.28600
N 	N 	0.17110 0.38780 0.34710 -0.26100
N 	N 	0.18940 0.34490 0.32230 -0.27900
N 	N 	0.16210 0.46860 0.36350 -0.28400
N 	N 	0.10310 0.40500 0.42590 -0.30200
N 	N 	0.15120 0.40710 0.39870 -0.28700
N 	N 	0.35930 0.39700 0.34540 -0.27000
N 	N 	0.06500 0.47070 0.43520 -0.27700
N 	N 	0.03000 0.40200 0.44880 -0.29300
N 	N 	0.09350 0.42570 0.47980 -0.28200
C 	C 	0.35700 0.47910 0.31470 0.03000
C 	C 	0.38330 0.46370 0.30070 -0.04500
C 	C 	0.39980 0.48550 0.28440 0.01500
C 	C 	0.27860 0.37040 0.31400 0.01200
C 	C 	0.28270 0.41070 0.29180 0.08600
C 	C 	0.29170 0.44080 0.28000 -0.07300
C 	C 	0.27850 0.44760 0.25760 0.02500
C 	C 	0.25630 0.42410 0.24690 0.11300
C 	C 	0.24730 0.39390 0.25870 -0.05800
C 	C 	0.26050 0.38720 0.28110 0.03300
C 	C 	0.25010 0.43790 0.35890 0.00200
C 	C 	0.24360 0.40970 0.39470 -0.00300
C 	C 	0.23970 0.39380 0.41660 -0.01700
C 	C 	0.26770 0.37780 0.42730 0.13900
C 	C 	0.29970 0.37790 0.41620 0.03000
C 	C 	0.30370 0.39380 0.39440 -0.06300
C 	C 	0.27560 0.40970 0.38360 0.09600
C 	C 	0.16350 0.34480 0.26030 0.03900
C 	C 	0.14960 0.37300 0.27310 -0.03700
C 	C 	0.12520 0.38750 0.25910 0.11900
C 	C 	0.23210 0.25890 0.32230 0.02800
C 	C 	0.20410 0.25890 0.34140 -0.03700
C 	C 	0.20500 0.22850 0.35500 0.11100
C 	C 	0.19860 0.37230 0.33500 0.02700
C 	C 	0.15570 0.34150 0.32760 0.05800
C 	C 	0.13300 0.31670 0.31910 -0.02900
C 	C 	0.09890 0.31630 0.32670 0.05200
C 	C 	0.08750 0.34090 0.34290 0.15000
C 	C 	0.11020 0.36570 0.35140 -0.03600
C 	C 	0.14430 0.36600 0.34380 0.05100
C 	C 	0.13800 0.48030 0.34510 0.03300
C 	C 	0.11830 0.45980 0.33350 -0.02900
C 	C 	0.10180 0.48160 0.31990 0.11800
C 	C 	0.12420 0.42380 0.41080 0.04000
C 	C 	0.14640 0.37460 0.40520 0.03500
C 	C 	0.16290 0.34340 0.40110 -0.03000
C 	C 	0.15420 0.31440 0.41430 0.05500
C 	C 	0.12890 0.31660 0.43160 0.13100
C 	C 	0.11230 0.34790 0.43580 -0.06500
C 	C 	0.12100 0.37680 0.42260 0.09300
C 	C 	0.38180 0.40910 0.36200 0.03000
C 	C 	0.38370 0.43900 0.38030 -0.04100
C 	C 	0.41130 0.43610 0.39420 0.11300
C 	C 	0.05930 0.48480 0.41300 0.03500
C 	C 	0.05050 0.46350 0.39400 -0.04500
C 	C 	0.04340 0.48040 0.37330 0.10700
C 	C 	0.12800 0.42340 0.48790 0.03800
C 	C 	0.15810 0.40970 0.47540 -0.05200
C 	C 	0.18560 0.40350 0.48760 0.12000
C 	C 	0.01730 0.37830 0.46840 0.01300
C 	C 	0.03130 0.35480 0.48460 -0.02700
C 	C 	0.01840 0.32130 0.48710 0.03100
Zn	Zn	0.81680 0.92430 0.83790 1.17700
Zn	Zn	0.67700 0.92420 0.87260 1.18300
Zn	Zn	0.71980 0.82620 0.79770 1.17600
Zn	Zn	0.57350 0.92350 0.94810 1.19000
Cl	Cl	0.72500 0.93870 0.72140 -0.23700
Cl	Cl	0.74740 0.84770 0.94750 -0.21300
Cl	Cl	0.60280 0.92210 0.77190 -0.17800
Cl	Cl	0.66970 0.72720 0.87520 -0.22000
Cl	Cl	0.54520 0.84140 0.85450 -0.21000
Cl	Cl	0.56890 0.96180 0.80060 -0.12000
Cl	Cl	0.63620 0.77780 0.95260 -0.20000
Cl	Cl	0.91280 0.96730 0.91810 -0.17300
Cl	Cl	0.53140 0.94700 0.85170 -0.17700
Cl	Cl	0.73230 0.90890 0.97820 -0.19400
N 	N 	0.82890 0.97290 0.82970 -0.26100
N 	N 	0.79310 0.90130 0.81080 -0.29300
N 	N 	0.75860 0.86130 0.79530 -0.27100
N 	N 	0.78360 0.92510 0.86380 -0.28900
N 	N 	0.72920 0.92700 0.87660 -0.25500
N 	N 	0.69210 0.82330 0.76760 -0.26700
N 	N 	0.74160 0.78220 0.80490 -0.28600
N 	N 	0.67110 0.88780 0.84710 -0.26100
N 	N 	0.68940 0.84490 0.82230 -0.27900
N 	N 	0.66210 0.96860 0.86350 -0.28400
N 	N 	0.60310 0.90500 0.92590 -0.30200
N 	N 	0.65120 0.90710 0.89870 -0.28700
N 	N 	0.85930 0.89700 0.84540 -0.27000
N 	N 	0.56500 0.97070 0.93520 -0.27700
N 	N 	0.53000 0.90200 0.94880 -0.29300
N 	N 	0.59350 0.92570 0.97980 -0.28200
C 	C 	0.85700 0.97910 0.81470 0.03000
C 	C 	0.88330 0.96370 0.80070 -0.04500
C 	C 	0.89980 0.98550 0.78440 0.01600
C 	C 	0.77860 0.87040 0.81400 0.01200
C 	C 	0.78270 0.91070 0.79180 0.08600
C 	C 	0.79170 0.94080 0.78000 -0.07300
C 	C 	0.77850 0.94760 0.75760 0.02500
C 	C 	0.75630 0.92410 0.74690 0.11300
C 	C 	0.74730 0.89390 0.75870 -0.05800
C 	C 	0.76050 0.88720 0.78110 0.03300
C 	C 	0.75010 0.93790 0.85890 0.00200
C 	C 	0.74360 0.90970 0.89470 -0.00300
C 	C 	0.73970 0.89380 0.91660 -0.01700
C 	C 	0.76770 0.87780 0.92730 0.13900
C 	C 	0.79970 0.87790 0.91620 0.03000
C 	C 	0.80370 0.89380 0.89440 -0.06300
C 	C 	0.77560 0.90970 0.88360 0.09600
C 	C 	0.66350 0.84480 0.76030 0.03900
C 	C 	0.64960 0.87300 0.77310 -0.03700
C 	C 	0.62520 0.88750 0.75910 0.11900
C 	C 	0.73210 0.75890 0.82230 0.02800
C 	C 	0.70410 0.75890 0.84140 -0.03700
C 	C 	0.70500 0.72850 0.85500 0.11100
C 	C 	0.69860 0.87230 0.83500 0.02700
C 	C 	0.65570 0.84150 0.82760 0.05800
C 	C 	0.63300 0.81670 0.81910 -0.02900
C 	C 	0.59890 0.81630 0.82670 0.05200
C 	C 	0.58750 0.84090 0.84290 0.15000
C 	C 	0.61020 0.86570 0.85140 -0.03600
C 	C 	0.64430 0.86600 0.84380 0.05100
C 	C 	0.63800 0.98030 0.84510 0.03300
C 	C 	0.61830 0.95980 0.83350 -0.02900
C 	C 	0.60180 0.98160 0.81990 0.11900
C 	C 	0.62420 0.92380 0.91080 0.04000
C 	C 	0.64640 0.87460 0.90520 0.03500
C 	C 	0.66290 0.84340 0.90110 -0.03000
C 	C 	0.65420 0.81440 0.91430 0.05500
C 	C 	0.62890 0.81660 0.93160 0.13100
C 	C 	0.61230 0.84790 0.93580 -0.06500
C 	C 	0.62100 0.87680 0.92260 0.09300
C 	C 	0.88180 0.90910 0.86200 0.03000
C 	C 	0.88370 0.93900 0.88030 -0.04100
C 	C 	0.91130 0.93610 0.89420 0.11300
C 	C 	0.55930 0.98480 0.91300 0.03600
C 	C 	0.55050 0.96350 0.89400 -0.04500
C 	C 	0.54340 0.98040 0.87330 0.10700
C 	C 	0.62800 0.92340 0.98790 0.03800
C 	C 	0.65810 0.90970 0.97540 -0.05200
C 	C 	0.68560 0.90350 0.98760 0.12000
C 	C 	0.51730 0.87830 0.96840 0.01400
C 	C 	0.53130 0.85480 0.98460 -0.02700
C 	C 	0.51840 0.82130 0.98710 0.03100
Zn	Zn	0.68320 0.57570 0.33790 1.17700
Zn	Zn	0.82300 0.57580 0.37260 1.18300
Zn	Zn	0.78020 0.67380 0.29770 1.17600
Zn	Zn	0.92650 0.57650 0.44810 1.19000
Cl	Cl	0.77500 0.56130 0.22140 -0.23800
Cl	Cl	0.75260 0.65230 0.44750 -0.21300
Cl	Cl	0.89720 0.57790 0.27190 -0.17800
Cl	Cl	0.83030 0.77280 0.37520 -0.22000
Cl	Cl	0.95480 0.65860 0.35450 -0.21000
Cl	Cl	0.93110 0.53820 0.30060 -0.12000
Cl	Cl	0.86380 0.72220 0.45260 -0.20000
Cl	Cl	0.58720 0.53270 0.41810 -0.17300
Cl	Cl	0.96860 0.55300 0.35170 -0.17700
Cl	Cl	0.76770 0.59110 0.47820 -0.19400
N 	N 	0.67110 0.52710 0.32970 -0.26100
N 	N 	0.70690 0.59870 0.31080 -0.29300
N 	N 	0.74140 0.63870 0.29530 -0.27100
N 	N 	0.71640 0.57490 0.36380 -0.28900
N 	N 	0.77080 0.57300 0.37660 -0.25500
N 	N 	0.80790 0.67670 0.26760 -0.26700
N 	N 	0.75840 0.71780 0.30490 -0.28600
N 	N 	0.82890 0.61220 0.34710 -0.26100
N 	N 	0.81060 0.65510 0.32230 -0.27900
N 	N 	0.83790 0.53140 0.36350 -0.28400
N 	N 	0.89690 0.59500 0.42590 -0.30200
N 	N 	0.84880 0.59290 0.39870 -0.28700
N 	N 	0.64070 0.60300 0.34540 -0.27000
N 	N 	0.93500 0.52930 0.43520 -0.27700
N 	N 	0.97000 0.59800 0.44880 -0.29300
N 	N 	0.90650 0.57430 0.47980 -0.28200
C 	C 	0.64300 0.52090 0.31470 0.03000
C 	C 	0.61670 0.53630 0.30070 -0.04500
C 	C 	0.60020 0.51450 0.28440 0.01500
C 	C 	0.72140 0.62960 0.31400 0.01200
C 	C 	0.71730 0.58930 0.29180 0.08600
C 	C 	0.70830 0.55920 0.28000 -0.07300
C 	C 	0.72150 0.55240 0.25760 0.02500
C 	C 	0.74370 0.57590 0.24690 0.11300
C 	C 	0.75270 0.60610 0.25870 -0.05800
C 	C 	0.73950 0.61280 0.28110 0.03300
C 	C 	0.74990 0.56210 0.35890 0.00200
C 	C 	0.75640 0.59030 0.39470 -0.00300
C 	C 	0.76030 0.60620 0.41660 -0.01700
C 	C 	0.73230 0.62220 0.42730 0.13900
C 	C 	0.70030 0.62210 0.41620 0.03000
C 	C 	0.69630 0.60620 0.39440 -0.06300
C 	C 	0.72440 0.59030 0.38360 0.09600
C 	C 	0.83650 0.65520 0.26030 0.03900
C 	C 	0.85040 0.62700 0.27310 -0.03700
C 	C 	0.87480 0.61250 0.25910 0.12000
C 	C 	0.76790 0.74110 0.32230 0.02800
C 	C 	0.79590 0.74110 0.34140 -0.03700
C 	C 	0.79500 0.77150 0.35500 0.11100
C 	C 	0.80140 0.62770 0.33500 0.02700
C 	C 	0.84430 0.65850 0.32760 0.05800
C 	C 	0.86700 0.68330 0.31910 -0.02900
C 	C 	0.90110 0.68370 0.32670 0.05200
C 	C 	0.91250 0.65910 0.34290 0.15000
C 	C 	0.88980 0.63430 0.35140 -0.03600
C 	C 	0.85570 0.63400 0.34380 0.05100
C 	C 	0.86200 0.51970 0.34510 0.03300
C 	C 	0.88170 0.54020 0.33350 -0.02900
C 	C 	0.89820 0.51840 0.31990 0.11800
C 	C 	0.87580 0.57620 0.41080 0.04000
C 	C 	0.85360 0.62540 0.40520 0.03500
C 	C 	0.83710 0.65660 0.40110 -0.03000
C 	C 	0.84580 0.68560 0.41430 0.05500
C 	C 	0.87110 0.68340 0.43160 0.13100
C 	C 	0.88770 0.65210 0.43580 -0.06500
C 	C 	0.87900 0.62320 0.42260 0.09300
C 	C 	0.61820 0.59090 0.36200 0.03000
C 	C 	0.61630 0.56100 0.38030 -0.04100
C 	C 	0.58870 0.56390 0.39420 0.11300
C 	C 	0.94070 0.51520 0.41300 0.03500
C 	C 	0.94950 0.53650 0.39400 -0.04500
C 	C 	0.95660 0.51960 0.37330 0.10700
C 	C 	0.87200 0.57660 0.48790 0.03800
C 	C 	0.84190 0.59030 0.47540 -0.05200
C 	C 	0.81440 0.59650 0.48760 0.12000
C 	C 	0.98270 0.62170 0.46840 0.01400
C 	C 	0.96870 0.64520 0.48460 -0.02700
C 	C 	0.98160 0.67870 0.48710 0.03200
Zn	Zn	0.18320 0.07570 0.83790 1.17700
Zn	Zn	0.32300 0.07580 0.87260 1.18300
Zn	Zn	0.28020 0.17380 0.79770 1.17600
Zn	Zn	0.42650 0.07650 0.94810 1.19000
Cl	Cl	0.27500 0.06130 0.72140 -0.23800
Cl	Cl	0.25260 0.15230 0.94750 -0.21300
Cl	Cl	0.39720 0.07790 0.77190 -0.17800
Cl	Cl	0.33030 0.27280 0.87520 -0.22000
Cl	Cl	0.45480 0.15860 0.85450 -0.21000
Cl	Cl	0.43110 0.03820 0.80060 -0.12000
Cl	Cl	0.36380 0.22220 0.95260 -0.20000
Cl	Cl	0.08720 0.03270 0.91810 -0.17400
Cl	Cl	0.46860 0.05300 0.85170 -0.17700
Cl	Cl	0.26770 0.09110 0.97820 -0.19400
N 	N 	0.17110 0.02710 0.82970 -0.26100
N 	N 	0.20690 0.09870 0.81080 -0.29300
N 	N 	0.24140 0.13870 0.79530 -0.27100
N 	N 	0.21640 0.07490 0.86380 -0.28900
N 	N 	0.27080 0.07300 0.87660 -0.25500
N 	N 	0.30790 0.17670 0.76760 -0.26700
N 	N 	0.25840 0.21780 0.80490 -0.28600
N 	N 	0.32890 0.11220 0.84710 -0.26100
N 	N 	0.31060 0.15510 0.82230 -0.27900
N 	N 	0.33790 0.03140 0.86350 -0.28400
N 	N 	0.39690 0.09500 0.92590 -0.30200
N 	N 	0.34880 0.09290 0.89870 -0.28700
N 	N 	0.14070 0.10300 0.84540 -0.27000
N 	N 	0.43500 0.02930 0.93520 -0.27700
N 	N 	0.47000 0.09800 0.94880 -0.29300
N 	N 	0.40650 0.07430 0.97980 -0.28200
C 	C 	0.14300 0.02090 0.81470 0.02900
C 	C 	0.11670 0.03630 0.80070 -0.04500
C 	C 	0.10020 0.01450 0.78440 0.01400
C 	C 	0.22140 0.12960 0.81400 0.01200
C 	C 	0.21730 0.08930 0.79180 0.08600
C 	C 	0.20830 0.05920 0.78000 -0.07300
C 	C 	0.22150 0.05240 0.75760 0.02500
C 	C 	0.24370 0.07590 0.74690 0.11300
C 	C 	0.25270 0.10610 0.75870 -0.05800
C 	C 	0.23950 0.11280 0.78110 0.03300
C 	C 	0.24990 0.06210 0.85890 0.00200
C 	C 	0.25640 0.09030 0.89470 -0.00300
C 	C 	0.26030 0.10620 0.91660 -0.01700
C 	C 	0.23230 0.12220 0.92730 0.13900
C 	C 	0.20030 0.12210 0.91620 0.03000
C 	C 	0.19630 0.10620 0.89440 -0.06300
C 	C 	0.22440 0.09030 0.88360 0.09600
C 	C 	0.33650 0.15520 0.76030 0.03900
C 	C 	0.35040 0.12700 0.77310 -0.03700
C 	C 	0.37480 0.11250 0.75910 0.11900
C 	C 	0.26790 0.24110 0.82230 0.02800
C 	C 	0.29590 0.24110 0.84140 -0.03700
C 	C 	0.29500 0.27150 0.85500 0.11100
C 	C 	0.30140 0.12770 0.83500 0.02700
C 	C 	0.34430 0.15850 0.82760 0.05800
C 	C 	0.36700 0.18330 0.81910 -0.02900
C 	C 	0.40110 0.18370 0.82670 0.05200
C 	C 	0.41250 0.15910 0.84290 0.15000
C 	C 	0.38980 0.13430 0.85140 -0.03600
C 	C 	0.35570 0.13400 0.84380 0.05100
C 	C 	0.36200 0.01970 0.84510 0.03200
C 	C 	0.38170 0.04020 0.83350 -0.02900
C 	C 	0.39820 0.01840 0.81990 0.11800
C 	C 	0.37580 0.07620 0.91080 0.04000
C 	C 	0.35360 0.12540 0.90520 0.03500
C 	C 	0.33710 0.15660 0.90110 -0.03000
C 	C 	0.34580 0.18560 0.91430 0.05500
C 	C 	0.37110 0.18340 0.93160 0.13100
C 	C 	0.38770 0.15210 0.93580 -0.06500
C 	C 	0.37900 0.12320 0.92260 0.09300
C 	C 	0.11820 0.09090 0.86200 0.03000
C 	C 	0.11630 0.06100 0.88030 -0.04100
C 	C 	0.08870 0.06390 0.89420 0.11300
C 	C 	0.44070 0.01520 0.91300 0.03400
C 	C 	0.44950 0.03650 0.89400 -0.04500
C 	C 	0.45660 0.01960 0.87330 0.10600
C 	C 	0.37200 0.07660 0.98790 0.03800
C 	C 	0.34190 0.09030 0.97540 -0.05200
C 	C 	0.31440 0.09650 0.98760 0.12000
C 	C 	0.48270 0.12170 0.96840 0.01400
C 	C 	0.46870 0.14520 0.98460 -0.02700
C 	C 	0.48160 0.17870 0.98710 0.03100
Zn	Zn	0.57570 0.31680 0.33790 1.17700
Zn	Zn	0.57580 0.17700 0.37260 1.18300
Zn	Zn	0.67380 0.21980 0.29770 1.17600
Zn	Zn	0.57650 0.07350 0.44810 1.19000
Cl	Cl	0.56130 0.22500 0.22140 -0.23800
Cl	Cl	0.65230 0.24740 0.44750 -0.21300
Cl	Cl	0.57790 0.10280 0.27190 -0.17800
Cl	Cl	0.77280 0.16970 0.37520 -0.22000
Cl	Cl	0.65860 0.04520 0.35450 -0.21000
Cl	Cl	0.53820 0.06890 0.30060 -0.12000
Cl	Cl	0.72220 0.13620 0.45260 -0.20000
Cl	Cl	0.53270 0.41280 0.41810 -0.17300
Cl	Cl	0.55300 0.03140 0.35170 -0.17700
Cl	Cl	0.59110 0.23230 0.47820 -0.19400
N 	N 	0.52710 0.32890 0.32970 -0.26100
N 	N 	0.59870 0.29310 0.31080 -0.29300
N 	N 	0.63870 0.25860 0.29530 -0.27100
N 	N 	0.57490 0.28360 0.36380 -0.28900
N 	N 	0.57300 0.22920 0.37660 -0.25500
N 	N 	0.67670 0.19210 0.26760 -0.26700
N 	N 	0.71780 0.24160 0.30490 -0.28600
N 	N 	0.61220 0.17110 0.34710 -0.26100
N 	N 	0.65510 0.18940 0.32230 -0.27900
N 	N 	0.53140 0.16210 0.36350 -0.28400
N 	N 	0.59500 0.10310 0.42590 -0.30200
N 	N 	0.59290 0.15120 0.39870 -0.28700
N 	N 	0.60300 0.35930 0.34540 -0.27000
N 	N 	0.52930 0.06500 0.43520 -0.27700
N 	N 	0.59800 0.03000 0.44880 -0.29300
N 	N 	0.57430 0.09350 0.47980 -0.28200
C 	C 	0.52090 0.35700 0.31470 0.03000
C 	C 	0.53630 0.38330 0.30070 -0.04500
C 	C 	0.51450 0.39980 0.28440 0.01500
C 	C 	0.62960 0.27860 0.31400 0.01200
C 	C 	0.58930 0.28270 0.29180 0.08600
C 	C 	0.55920 0.29170 0.28000 -0.07300
C 	C 	0.55240 0.27850 0.25760 0.02500
C 	C 	0.57590 0.25630 0.24690 0.11300
C 	C 	0.60610 0.24730 0.25870 -0.05800
C 	C 	0.61280 0.26050 0.28110 0.03300
C 	C 	0.56210 0.25010 0.35890 0.00200
C 	C 	0.59030 0.24360 0.39470 -0.00300
C 	C 	0.60620 0.23970 0.41660 -0.01700
C 	C 	0.62220 0.26770 0.42730 0.13900
C 	C 	0.62210 0.29970 0.41620 0.03000
C 	C 	0.60620 0.30370 0.39440 -0.06300
C 	C 	0.59030 0.27560 0.38360 0.09600
C 	C 	0.65520 0.16350 0.26030 0.03900
C 	C 	0.62700 0.14960 0.27310 -0.03700
C 	C 	0.61250 0.12520 0.25910 0.11900
C 	C 	0.74110 0.23210 0.32230 0.02800
C 	C 	0.74110 0.20410 0.34140 -0.03700
C 	C 	0.77150 0.20500 0.35500 0.11100
C 	C 	0.62770 0.19860 0.33500 0.02700
C 	C 	0.65850 0.15570 0.32760 0.05800
C 	C 	0.68330 0.13300 0.31910 -0.02900
C 	C 	0.68370 0.09890 0.32670 0.05200
C 	C 	0.65910 0.08750 0.34290 0.15000
C 	C 	0.63430 0.11020 0.35140 -0.03600
C 	C 	0.63400 0.14430 0.34380 0.05100
C 	C 	0.51970 0.13800 0.34510 0.03300
C 	C 	0.54020 0.11830 0.33350 -0.02900
C 	C 	0.51840 0.10180 0.31990 0.11800
C 	C 	0.57620 0.12420 0.41080 0.04000
C 	C 	0.62540 0.14640 0.40520 0.03500
C 	C 	0.65660 0.16290 0.40110 -0.03000
C 	C 	0.68560 0.15420 0.41430 0.05500
C 	C 	0.68340 0.12890 0.43160 0.13100
C 	C 	0.65210 0.11230 0.43580 -0.06500
C 	C 	0.62320 0.12100 0.42260 0.09300
C 	C 	0.59090 0.38180 0.36200 0.03000
C 	C 	0.56100 0.38370 0.38030 -0.04100
C 	C 	0.56390 0.41130 0.39420 0.11300
C 	C 	0.51520 0.05930 0.41300 0.03500
C 	C 	0.53650 0.05050 0.39400 -0.04500
C 	C 	0.51960 0.04340 0.37330 0.10700
C 	C 	0.57660 0.12800 0.48790 0.03800
C 	C 	0.59030 0.15810 0.47540 -0.05200
C 	C 	0.59650 0.18560 0.48760 0.12000
C 	C 	0.62170 0.01730 0.46840 0.01300
C 	C 	0.64520 0.03130 0.48460 -0.02700
C 	C 	0.67870 0.01840 0.48710 0.03100
Zn	Zn	0.07570 0.81680 0.83790 1.17700
Zn	Zn	0.07580 0.67700 0.87260 1.18300
Zn	Zn	0.17380 0.71980 0.79770 1.17600
Zn	Zn	0.07650 0.57350 0.94810 1.19000
Cl	Cl	0.06130 0.72500 0.72140 -0.23800
Cl	Cl	0.15230 0.74740 0.94750 -0.21300
Cl	Cl	0.07790 0.60280 0.77190 -0.17800
Cl	Cl	0.27280 0.66970 0.87520 -0.22000
Cl	Cl	0.15860 0.54520 0.85450 -0.21000
Cl	Cl	0.03820 0.56890 0.80060 -0.12000
Cl	Cl	0.22220 0.63620 0.95260 -0.20000
Cl	Cl	0.03270 0.91280 0.91810 -0.17400
Cl	Cl	0.05300 0.53140 0.85170 -0.17700
Cl	Cl	0.09110 0.73230 0.97820 -0.19400
N 	N 	0.02710 0.82890 0.82970 -0.26100
N 	N 	0.09870 0.79310 0.81080 -0.29300
N 	N 	0.13870 0.75860 0.79530 -0.27100
N 	N 	0.07490 0.78360 0.86380 -0.28900
N 	N 	0.07300 0.72920 0.87660 -0.25500
N 	N 	0.17670 0.69210 0.76760 -0.26700
N 	N 	0.21780 0.74160 0.80490 -0.28600
N 	N 	0.11220 0.67110 0.84710 -0.26100
N 	N 	0.15510 0.68940 0.82230 -0.27900
N 	N 	0.03140 0.66210 0.86350 -0.28400
N 	N 	0.09500 0.60310 0.92590 -0.30200
N 	N 	0.09290 0.65120 0.89870 -0.28700
N 	N 	0.10300 0.85930 0.84540 -0.27000
N 	N 	0.02930 0.56500 0.93520 -0.27700
N 	N 	0.09800 0.53000 0.94880 -0.29300
N 	N 	0.07430 0.59350 0.97980 -0.28200
C 	C 	0.02090 0.85700 0.81470 0.02900
C 	C 	0.03630 0.88330 0.80070 -0.04500
C 	C 	0.01450 0.89980 0.78440 0.01400
C 	C 	0.12960 0.77860 0.81400 0.01200
C 	C 	0.08930 0.78270 0.79180 0.08600
C 	C 	0.05920 0.79170 0.78000 -0.07300
C 	C 	0.05240 0.77850 0.75760 0.02500
C 	C 	0.07590 0.75630 0.74690 0.11300
C 	C 	0.10610 0.74730 0.75870 -0.05800
C 	C 	0.11280 0.76050 0.78110 0.03300
C 	C 	0.06210 0.75010 0.85890 0.00200
C 	C 	0.09030 0.74360 0.89470 -0.00300
C 	C 	0.10620 0.73970 0.91660 -0.01700
C 	C 	0.12220 0.76770 0.92730 0.13900
C 	C 	0.12210 0.79970 0.91620 0.03000
C 	C 	0.10620 0.80370 0.89440 -0.06300
C 	C 	0.09030 0.77560 0.88360 0.09600
C 	C 	0.15520 0.66350 0.76030 0.03900
C 	C 	0.12700 0.64960 0.77310 -0.03700
C 	C 	0.11250 0.62520 0.75910 0.11900
C 	C 	0.24110 0.73210 0.82230 0.02800
C 	C 	0.24110 0.70410 0.84140 -0.03700
C 	C 	0.27150 0.70500 0.85500 0.11100
C 	C 	0.12770 0.69860 0.83500 0.02700
C 	C 	0.15850 0.65570 0.82760 0.05800
C 	C 	0.18330 0.63300 0.81910 -0.02900
C 	C 	0.18370 0.59890 0.82670 0.05200
C 	C 	0.15910 0.58750 0.84290 0.15000
C 	C 	0.13430 0.61020 0.85140 -0.03600
C 	C 	0.13400 0.64430 0.84380 0.05100
C 	C 	0.01970 0.63800 0.84510 0.03200
C 	C 	0.04020 0.61830 0.83350 -0.02900
C 	C 	0.01840 0.60180 0.81990 0.11800
C 	C 	0.07620 0.62420 0.91080 0.04000
C 	C 	0.12540 0.64640 0.90520 0.03500
C 	C 	0.15660 0.66290 0.90110 -0.03000
C 	C 	0.18560 0.65420 0.91430 0.05500
C 	C 	0.18340 0.62890 0.93160 0.13100
C 	C 	0.15210 0.61230 0.93580 -0.06500
C 	C 	0.12320 0.62100 0.92260 0.09300
C 	C 	0.09090 0.88180 0.86200 0.03000
C 	C 	0.06100 0.88370 0.88030 -0.04100
C 	C 	0.06390 0.91130 0.89420 0.11300
C 	C 	0.01520 0.55930 0.91300 0.03400
C 	C 	0.03650 0.55050 0.89400 -0.04500
C 	C 	0.01960 0.54340 0.87330 0.10600
C 	C 	0.07660 0.62800 0.98790 0.03800
C 	C 	0.09030 0.65810 0.97540 -0.05200
C 	C 	0.09650 0.68560 0.98760 0.12000
C 	C 	0.12170 0.51730 0.96840 0.01400
C 	C 	0.14520 0.53130 0.98460 -0.02700
C 	C 	0.17870 0.51840 0.98710 0.03100
Zn	Zn	0.42430 0.68320 0.33790 1.17700
Zn	Zn	0.42420 0.82300 0.37260 1.18300
Zn	Zn	0.32620 0.78020 0.29770 1.17600
Zn	Zn	0.42350 0.92650 0.44810 1.19000
Cl	Cl	0.43870 0.77500 0.22140 -0.23800
Cl	Cl	0.34770 0.75260 0.44750 -0.21300
Cl	Cl	0.42210 0.89720 0.27190 -0.17800
Cl	Cl	0.22720 0.83030 0.37520 -0.22000
Cl	Cl	0.34140 0.95480 0.35450 -0.21000
Cl	Cl	0.46180 0.93110 0.30060 -0.12000
Cl	Cl	0.27780 0.86380 0.45260 -0.20000
Cl	Cl	0.46730 0.58720 0.41810 -0.17300
Cl	Cl	0.44700 0.96860 0.35170 -0.17700
Cl	Cl	0.40890 0.76770 0.47820 -0.19400
N 	N 	0.47290 0.67110 0.32970 -0.26100
N 	N 	0.40130 0.70690 0.31080 -0.29300
N 	N 	0.36130 0.74140 0.29530 -0.27100
N 	N 	0.42510 0.71640 0.36380 -0.28900
N 	N 	0.42700 0.77080 0.37660 -0.25500
N 	N 	0.32330 0.80790 0.26760 -0.26700
N 	N 	0.28220 0.75840 0.30490 -0.28600
N 	N 	0.38780 0.82890 0.34710 -0.26100
N 	N 	0.34490 0.81060 0.32230 -0.27900
N 	N 	0.46860 0.83790 0.36350 -0.28400
N 	N 	0.40500 0.89690 0.42590 -0.30200
N 	N 	0.40710 0.84880 0.39870 -0.28700
N 	N 	0.39700 0.64070 0.34540 -0.27000
N 	N 	0.47070 0.93500 0.43520 -0.27700
N 	N 	0.40200 0.97000 0.44880 -0.29300
N 	N 	0.42570 0.90650 0.47980 -0.28200
C 	C 	0.47910 0.64300 0.31470 0.03000
C 	C 	0.46370 0.61670 0.30070 -0.04500
C 	C 	0.48550 0.60020 0.28440 0.01500
C 	C 	0.37040 0.72140 0.31400 0.01200
C 	C 	0.41070 0.71730 0.29180 0.08600
C 	C 	0.44080 0.70830 0.28000 -0.07300
C 	C 	0.44760 0.72150 0.25760 0.02500
C 	C 	0.42410 0.74370 0.24690 0.11300
C 	C 	0.39390 0.75270 0.25870 -0.05800
C 	C 	0.38720 0.73950 0.28110 0.03300
C 	C 	0.43790 0.74990 0.35890 0.00200
C 	C 	0.40970 0.75640 0.39470 -0.00300
C 	C 	0.39380 0.76030 0.41660 -0.01700
C 	C 	0.37780 0.73230 0.42730 0.13900
C 	C 	0.37790 0.70030 0.41620 0.03000
C 	C 	0.39380 0.69630 0.39440 -0.06300
C 	C 	0.40970 0.72440 0.38360 0.09600
C 	C 	0.34480 0.83650 0.26030 0.03900
C 	C 	0.37300 0.85040 0.27310 -0.03700
C 	C 	0.38750 0.87480 0.25910 0.12000
C 	C 	0.25890 0.76790 0.32230 0.02800
C 	C 	0.25890 0.79590 0.34140 -0.03700
C 	C 	0.22850 0.79500 0.35500 0.11100
C 	C 	0.37230 0.80140 0.33500 0.02700
C 	C 	0.34150 0.84430 0.32760 0.05800
C 	C 	0.31670 0.86700 0.31910 -0.02900
C 	C 	0.31630 0.90110 0.32670 0.05200
C 	C 	0.34090 0.91250 0.34290 0.15000
C 	C 	0.36570 0.88980 0.35140 -0.03600
C 	C 	0.36600 0.85570 0.34380 0.05100
C 	C 	0.48030 0.86200 0.34510 0.03300
C 	C 	0.45980 0.88170 0.33350 -0.02900
C 	C 	0.48160 0.89820 0.31990 0.11800
C 	C 	0.42380 0.87580 0.41080 0.04000
C 	C 	0.37460 0.85360 0.40520 0.03500
C 	C 	0.34340 0.83710 0.40110 -0.03000
C 	C 	0.31440 0.84580 0.41430 0.05500
C 	C 	0.31660 0.87110 0.43160 0.13100
C 	C 	0.34790 0.88770 0.43580 -0.06500
C 	C 	0.37680 0.87900 0.42260 0.09300
C 	C 	0.40910 0.61820 0.36200 0.03000
C 	C 	0.43900 0.61630 0.38030 -0.04100
C 	C 	0.43610 0.58870 0.39420 0.11300
C 	C 	0.48480 0.94070 0.41300 0.03500
C 	C 	0.46350 0.94950 0.39400 -0.04500
C 	C 	0.48040 0.95660 0.37330 0.10700
C 	C 	0.42340 0.87200 0.48790 0.03800
C 	C 	0.40970 0.84190 0.47540 -0.05200
C 	C 	0.40350 0.81440 0.48760 0.12000
C 	C 	0.37830 0.98270 0.46840 0.01400
C 	C 	0.35480 0.96870 0.48460 -0.02700
C 	C 	0.32130 0.98160 0.48710 0.03200
Zn	Zn	0.92430 0.18320 0.83790 1.17700
Zn	Zn	0.92420 0.32300 0.87260 1.18300
Zn	Zn	0.82620 0.28020 0.79770 1.17600
Zn	Zn	0.92350 0.42650 0.94810 1.19000
Cl	Cl	0.93870 0.27500 0.72140 -0.23800
Cl	Cl	0.84770 0.25260 0.94750 -0.21300
Cl	Cl	0.92210 0.39720 0.77190 -0.17800
Cl	Cl	0.72720 0.33030 0.87520 -0.22000
Cl	Cl	0.84140 0.45480 0.85450 -0.21000
Cl	Cl	0.96180 0.43110 0.80060 -0.12000
Cl	Cl	0.77780 0.36380 0.95260 -0.20000
Cl	Cl	0.96730 0.08720 0.91810 -0.17300
Cl	Cl	0.94700 0.46860 0.85170 -0.17700
Cl	Cl	0.90890 0.26770 0.97820 -0.19400
N 	N 	0.97290 0.17110 0.82970 -0.26100
N 	N 	0.90130 0.20690 0.81080 -0.29300
N 	N 	0.86130 0.24140 0.79530 -0.27100
N 	N 	0.92510 0.21640 0.86380 -0.28900
N 	N 	0.92700 0.27080 0.87660 -0.25500
N 	N 	0.82330 0.30790 0.76760 -0.26700
N 	N 	0.78220 0.25840 0.80490 -0.28600
N 	N 	0.88780 0.32890 0.84710 -0.26100
N 	N 	0.84490 0.31060 0.82230 -0.27900
N 	N 	0.96860 0.33790 0.86350 -0.28400
N 	N 	0.90500 0.39690 0.92590 -0.30200
N 	N 	0.90710 0.34880 0.89870 -0.28700
N 	N 	0.89700 0.14070 0.84540 -0.27000
N 	N 	0.97070 0.43500 0.93520 -0.27700
N 	N 	0.90200 0.47000 0.94880 -0.29300
N 	N 	0.92570 0.40650 0.97980 -0.28200
C 	C 	0.97910 0.14300 0.81470 0.03000
C 	C 	0.96370 0.11670 0.80070 -0.04600
C 	C 	0.98550 0.10020 0.78440 0.01600
C 	C 	0.87040 0.22140 0.81400 0.01200
C 	C 	0.91070 0.21730 0.79180 0.08600
C 	C 	0.94080 0.20830 0.78000 -0.07300
C 	C 	0.94760 0.22150 0.75760 0.02500
C 	C 	0.92410 0.24370 0.74690 0.11300
C 	C 	0.89390 0.25270 0.75870 -0.05800
C 	C 	0.88720 0.23950 0.78110 0.03300
C 	C 	0.93790 0.24990 0.85890 0.00200
C 	C 	0.90970 0.25640 0.89470 -0.00300
C 	C 	0.89380 0.26030 0.91660 -0.01700
C 	C 	0.87780 0.23230 0.92730 0.13900
C 	C 	0.87790 0.20030 0.91620 0.03000
C 	C 	0.89380 0.19630 0.89440 -0.06300
C 	C 	0.90970 0.22440 0.88360 0.09600
C 	C 	0.84480 0.33650 0.76030 0.03900
C 	C 	0.87300 0.35040 0.77310 -0.03700
C 	C 	0.88750 0.37480 0.75910 0.12000
C 	C 	0.75890 0.26790 0.82230 0.02800
C 	C 	0.75890 0.29590 0.84140 -0.03700
C 	C 	0.72850 0.29500 0.85500 0.11100
C 	C 	0.87230 0.30140 0.83500 0.02700
C 	C 	0.84150 0.34430 0.82760 0.05800
C 	C 	0.81670 0.36700 0.81910 -0.02900
C 	C 	0.81630 0.40110 0.82670 0.05200
C 	C 	0.84090 0.41250 0.84290 0.15000
C 	C 	0.86570 0.38980 0.85140 -0.03600
C 	C 	0.86600 0.35570 0.84380 0.05100
C 	C 	0.98030 0.36200 0.84510 0.03300
C 	C 	0.95980 0.38170 0.83350 -0.02900
C 	C 	0.98160 0.39820 0.81990 0.11900
C 	C 	0.92380 0.37580 0.91080 0.04000
C 	C 	0.87460 0.35360 0.90520 0.03500
C 	C 	0.84340 0.33710 0.90110 -0.03000
C 	C 	0.81440 0.34580 0.91430 0.05500
C 	C 	0.81660 0.37110 0.93160 0.13100
C 	C 	0.84790 0.38770 0.93580 -0.06500
C 	C 	0.87680 0.37900 0.92260 0.09300
C 	C 	0.90910 0.11820 0.86200 0.03000
C 	C 	0.93900 0.11630 0.88030 -0.04100
C 	C 	0.93610 0.08870 0.89420 0.11300
C 	C 	0.98480 0.44070 0.91300 0.03600
C 	C 	0.96350 0.44950 0.89400 -0.04500
C 	C 	0.98040 0.45660 0.87330 0.10700
C 	C 	0.92340 0.37200 0.98790 0.03800
C 	C 	0.90970 0.34190 0.97540 -0.05200
C 	C 	0.90350 0.31440 0.98760 0.12000
C 	C 	0.87830 0.48270 0.96840 0.01400
C 	C 	0.85480 0.46870 0.98460 -0.02700
C 	C 	0.82130 0.48160 0.98710 0.03100
Zn	Zn	0.68320 0.42430 0.66210 1.17700
Zn	Zn	0.82300 0.42420 0.62740 1.18300
Zn	Zn	0.78020 0.32620 0.70230 1.17600
Zn	Zn	0.92650 0.42350 0.55190 1.19000
Cl	Cl	0.77500 0.43870 0.77860 -0.23800
Cl	Cl	0.75260 0.34770 0.55250 -0.21300
Cl	Cl	0.89720 0.42210 0.72810 -0.17800
Cl	Cl	0.83030 0.22720 0.62480 -0.22000
Cl	Cl	0.95480 0.34140 0.64550 -0.21000
Cl	Cl	0.93110 0.46180 0.69940 -0.12000
Cl	Cl	0.86380 0.27780 0.54740 -0.20000
Cl	Cl	0.58720 0.46730 0.58190 -0.17300
Cl	Cl	0.96860 0.44700 0.64830 -0.17700
Cl	Cl	0.76770 0.40890 0.52180 -0.19400
N 	N 	0.67110 0.47290 0.67030 -0.26100
N 	N 	0.70690 0.40130 0.68920 -0.29300
N 	N 	0.74140 0.36130 0.70470 -0.27100
N 	N 	0.71640 0.42510 0.63620 -0.28900
N 	N 	0.77080 0.42700 0.62340 -0.25500
N 	N 	0.80790 0.32330 0.73240 -0.26700
N 	N 	0.75840 0.28220 0.69510 -0.28600
N 	N 	0.82890 0.38780 0.65290 -0.26100
N 	N 	0.81060 0.34490 0.67770 -0.27900
N 	N 	0.83790 0.46860 0.63650 -0.28400
N 	N 	0.89690 0.40500 0.57410 -0.30200
N 	N 	0.84880 0.40710 0.60130 -0.28700
N 	N 	0.64070 0.39700 0.65460 -0.27000
N 	N 	0.93500 0.47070 0.56480 -0.27700
N 	N 	0.97000 0.40200 0.55120 -0.29300
N 	N 	0.90650 0.42570 0.52020 -0.28200
C 	C 	0.64300 0.47910 0.68530 0.03000
C 	C 	0.61670 0.46370 0.69930 -0.04500
C 	C 	0.60020 0.48550 0.71560 0.01500
C 	C 	0.72140 0.37040 0.68600 0.01200
C 	C 	0.71730 0.41070 0.70820 0.08600
C 	C 	0.70830 0.44080 0.72000 -0.07300
C 	C 	0.72150 0.44760 0.74240 0.02500
C 	C 	0.74370 0.42410 0.75310 0.11300
C 	C 	0.75270 0.39390 0.74130 -0.05800
C 	C 	0.73950 0.38720 0.71890 0.03300
C 	C 	0.74990 0.43790 0.64110 0.00200
C 	C 	0.75640 0.40970 0.60530 -0.00300
C 	C 	0.76030 0.39380 0.58340 -0.01700
C 	C 	0.73230 0.37780 0.57270 0.13900
C 	C 	0.70030 0.37790 0.58380 0.03000
C 	C 	0.69630 0.39380 0.60560 -0.06300
C 	C 	0.72440 0.40970 0.61640 0.09600
C 	C 	0.83650 0.34480 0.73970 0.03900
C 	C 	0.85040 0.37300 0.72690 -0.03700
C 	C 	0.87480 0.38750 0.74090 0.12000
C 	C 	0.76790 0.25890 0.67770 0.02800
C 	C 	0.79590 0.25890 0.65860 -0.03700
C 	C 	0.79500 0.22850 0.64500 0.11100
C 	C 	0.80140 0.37230 0.66500 0.02700
C 	C 	0.84430 0.34150 0.67240 0.05800
C 	C 	0.86700 0.31670 0.68090 -0.02900
C 	C 	0.90110 0.31630 0.67330 0.05200
C 	C 	0.91250 0.34090 0.65710 0.15000
C 	C 	0.88980 0.36570 0.64860 -0.03600
C 	C 	0.85570 0.36600 0.65620 0.05100
C 	C 	0.86200 0.48030 0.65490 0.03300
C 	C 	0.88170 0.45980 0.66650 -0.02900
C 	C 	0.89820 0.48160 0.68010 0.11800
C 	C 	0.87580 0.42380 0.58920 0.04000
C 	C 	0.85360 0.37460 0.59480 0.03500
C 	C 	0.83710 0.34340 0.59890 -0.03000
C 	C 	0.84580 0.31440 0.58570 0.05500
C 	C 	0.87110 0.31660 0.56840 0.13100
C 	C 	0.88770 0.34790 0.56420 -0.06500
C 	C 	0.87900 0.37680 0.57740 0.09300
C 	C 	0.61820 0.40910 0.63800 0.03000
C 	C 	0.61630 0.43900 0.61970 -0.04100
C 	C 	0.58870 0.43610 0.60580 0.11300
C 	C 	0.94070 0.48480 0.58700 0.03500
C 	C 	0.94950 0.46350 0.60600 -0.04500
C 	C 	0.95660 0.48040 0.62670 0.10700
C 	C 	0.87200 0.42340 0.51210 0.03800
C 	C 	0.84190 0.40970 0.52460 -0.05200
C 	C 	0.81440 0.40350 0.51240 0.12000
C 	C 	0.98270 0.37830 0.53160 0.01400
C 	C 	0.96870 0.35480 0.51540 -0.02700
C 	C 	0.98160 0.32130 0.51290 0.03200
Zn	Zn	0.18320 0.92430 0.16210 1.17700
Zn	Zn	0.32300 0.92420 0.12740 1.18300
Zn	Zn	0.28020 0.82620 0.20230 1.17600
Zn	Zn	0.42650 0.92350 0.05190 1.19000
Cl	Cl	0.27500 0.93870 0.27860 -0.23800
Cl	Cl	0.25260 0.84770 0.05250 -0.21300
Cl	Cl	0.39720 0.92210 0.22810 -0.17800
Cl	Cl	0.33030 0.72720 0.12480 -0.22000
Cl	Cl	0.45480 0.84140 0.14550 -0.21000
Cl	Cl	0.43110 0.96180 0.19940 -0.12000
Cl	Cl	0.36380 0.77780 0.04740 -0.20000
Cl	Cl	0.08720 0.96730 0.08190 -0.17300
Cl	Cl	0.46860 0.94700 0.14830 -0.17700
Cl	Cl	0.26770 0.90890 0.02180 -0.19400
N 	N 	0.17110 0.97290 0.17030 -0.26100
N 	N 	0.20690 0.90130 0.18920 -0.29300
N 	N 	0.24140 0.86130 0.20470 -0.27100
N 	N 	0.21640 0.92510 0.13620 -0.28900
N 	N 	0.27080 0.92700 0.12340 -0.25500
N 	N 	0.30790 0.82330 0.23240 -0.26700
N 	N 	0.25840 0.78220 0.19510 -0.28600
N 	N 	0.32890 0.88780 0.15290 -0.26100
N 	N 	0.31060 0.84490 0.17770 -0.27900
N 	N 	0.33790 0.96860 0.13650 -0.28400
N 	N 	0.39690 0.90500 0.07410 -0.30200
N 	N 	0.34880 0.90710 0.10130 -0.28700
N 	N 	0.14070 0.89700 0.15460 -0.27000
N 	N 	0.43500 0.97070 0.06480 -0.27700
N 	N 	0.47000 0.90200 0.05120 -0.29300
N 	N 	0.40650 0.92570 0.02020 -0.28200
C 	C 	0.14300 0.97910 0.18530 0.03000
C 	C 	0.11670 0.96370 0.19930 -0.04600
C 	C 	0.10020 0.98550 0.21560 0.01600
C 	C 	0.22140 0.87040 0.18600 0.01200
C 	C 	0.21730 0.91070 0.20820 0.08600
C 	C 	0.20830 0.94080 0.22000 -0.07300
C 	C 	0.22150 0.94760 0.24240 0.02500
C 	C 	0.24370 0.92410 0.25310 0.11300
C 	C 	0.25270 0.89390 0.24130 -0.05800
C 	C 	0.23950 0.88720 0.21890 0.03300
C 	C 	0.24990 0.93790 0.14110 0.00200
C 	C 	0.25640 0.90970 0.10530 -0.00300
C 	C 	0.26030 0.89380 0.08340 -0.01700
C 	C 	0.23230 0.87780 0.07270 0.13900
C 	C 	0.20030 0.87790 0.08380 0.03000
C 	C 	0.19630 0.89380 0.10560 -0.06300
C 	C 	0.22440 0.90970 0.11640 0.09600
C 	C 	0.33650 0.84480 0.23970 0.03900
C 	C 	0.35040 0.87300 0.22690 -0.03700
C 	C 	0.37480 0.88750 0.24090 0.12000
C 	C 	0.26790 0.75890 0.17770 0.02800
C 	C 	0.29590 0.75890 0.15860 -0.03700
C 	C 	0.29500 0.72850 0.14500 0.11100
C 	C 	0.30140 0.87230 0.16500 0.02700
C 	C 	0.34430 0.84150 0.17240 0.05800
C 	C 	0.36700 0.81670 0.18090 -0.02900
C 	C 	0.40110 0.81630 0.17330 0.05200
C 	C 	0.41250 0.84090 0.15710 0.15000
C 	C 	0.38980 0.86570 0.14860 -0.03600
C 	C 	0.35570 0.86600 0.15620 0.05100
C 	C 	0.36200 0.98030 0.15490 0.03300
C 	C 	0.38170 0.95980 0.16650 -0.02900
C 	C 	0.39820 0.98160 0.18010 0.11900
C 	C 	0.37580 0.92380 0.08920 0.04000
C 	C 	0.35360 0.87460 0.09480 0.03500
C 	C 	0.33710 0.84340 0.09890 -0.03000
C 	C 	0.34580 0.81440 0.08570 0.05500
C 	C 	0.37110 0.81660 0.06840 0.13100
C 	C 	0.38770 0.84790 0.06420 -0.06500
C 	C 	0.37900 0.87680 0.07740 0.09300
C 	C 	0.11820 0.90910 0.13800 0.03000
C 	C 	0.11630 0.93900 0.11970 -0.04100
C 	C 	0.08870 0.93610 0.10580 0.11300
C 	C 	0.44070 0.98480 0.08700 0.03600
C 	C 	0.44950 0.96350 0.10600 -0.04500
C 	C 	0.45660 0.98040 0.12670 0.10700
C 	C 	0.37200 0.92340 0.01210 0.03800
C 	C 	0.34190 0.90970 0.02460 -0.05200
C 	C 	0.31440 0.90350 0.01240 0.12000
C 	C 	0.48270 0.87830 0.03160 0.01400
C 	C 	0.46870 0.85480 0.01540 -0.02700
C 	C 	0.48160 0.82130 0.01290 0.03100
Zn	Zn	0.31680 0.57570 0.66210 1.17700
Zn	Zn	0.17700 0.57580 0.62740 1.18300
Zn	Zn	0.21980 0.67380 0.70230 1.17600
Zn	Zn	0.07350 0.57650 0.55190 1.19000
Cl	Cl	0.22500 0.56130 0.77860 -0.23800
Cl	Cl	0.24740 0.65230 0.55250 -0.21300
Cl	Cl	0.10280 0.57790 0.72810 -0.17800
Cl	Cl	0.16970 0.77280 0.62480 -0.22000
Cl	Cl	0.04520 0.65860 0.64550 -0.21000
Cl	Cl	0.06890 0.53820 0.69940 -0.12000
Cl	Cl	0.13620 0.72220 0.54740 -0.20000
Cl	Cl	0.41280 0.53270 0.58190 -0.17300
Cl	Cl	0.03140 0.55300 0.64830 -0.17700
Cl	Cl	0.23230 0.59110 0.52180 -0.19400
N 	N 	0.32890 0.52710 0.67030 -0.26100
N 	N 	0.29310 0.59870 0.68920 -0.29300
N 	N 	0.25860 0.63870 0.70470 -0.27100
N 	N 	0.28360 0.57490 0.63620 -0.28900
N 	N 	0.22920 0.57300 0.62340 -0.25500
N 	N 	0.19210 0.67670 0.73240 -0.26700
N 	N 	0.24160 0.71780 0.69510 -0.28600
N 	N 	0.17110 0.61220 0.65290 -0.26100
N 	N 	0.18940 0.65510 0.67770 -0.27900
N 	N 	0.16210 0.53140 0.63650 -0.28400
N 	N 	0.10310 0.59500 0.57410 -0.30200
N 	N 	0.15120 0.59290 0.60130 -0.28700
N 	N 	0.35930 0.60300 0.65460 -0.27000
N 	N 	0.06500 0.52930 0.56480 -0.27700
N 	N 	0.03000 0.59800 0.55120 -0.29300
N 	N 	0.09350 0.57430 0.52020 -0.28200
C 	C 	0.35700 0.52090 0.68530 0.03000
C 	C 	0.38330 0.53630 0.69930 -0.04500
C 	C 	0.39980 0.51450 0.71560 0.01500
C 	C 	0.27860 0.62960 0.68600 0.01200
C 	C 	0.28270 0.58930 0.70820 0.08600
C 	C 	0.29170 0.55920 0.72000 -0.07300
C 	C 	0.27850 0.55240 0.74240 0.02500
C 	C 	0.25630 0.57590 0.75310 0.11300
C 	C 	0.24730 0.60610 0.74130 -0.05800
C 	C 	0.26050 0.61280 0.71890 0.03300
C 	C 	0.25010 0.56210 0.64110 0.00200
C 	C 	0.24360 0.59030 0.60530 -0.00300
C 	C 	0.23970 0.60620 0.58340 -0.01700
C 	C 	0.26770 0.62220 0.57270 0.13900
C 	C 	0.29970 0.62210 0.58380 0.03000
C 	C 	0.30370 0.60620 0.60560 -0.06300
C 	C 	0.27560 0.59030 0.61640 0.09600
C 	C 	0.16350 0.65520 0.73970 0.03900
C 	C 	0.14960 0.62700 0.72690 -0.03700
C 	C 	0.12520 0.61250 0.74090 0.11900
C 	C 	0.23210 0.74110 0.67770 0.02800
C 	C 	0.20410 0.74110 0.65860 -0.03700
C 	C 	0.20500 0.77150 0.64500 0.11100
C 	C 	0.19860 0.62770 0.66500 0.02700
C 	C 	0.15570 0.65850 0.67240 0.05800
C 	C 	0.13300 0.68330 0.68090 -0.02900
C 	C 	0.09890 0.68370 0.67330 0.05200
C 	C 	0.08750 0.65910 0.65710 0.15000
C 	C 	0.11020 0.63430 0.64860 -0.03600
C 	C 	0.14430 0.63400 0.65620 0.05100
C 	C 	0.13800 0.51970 0.65490 0.03300
C 	C 	0.11830 0.54020 0.66650 -0.02900
C 	C 	0.10180 0.51840 0.68010 0.11800
C 	C 	0.12420 0.57620 0.58920 0.04000
C 	C 	0.14640 0.62540 0.59480 0.03500
C 	C 	0.16290 0.65660 0.59890 -0.03000
C 	C 	0.15420 0.68560 0.58570 0.05500
C 	C 	0.12890 0.68340 0.56840 0.13100
C 	C 	0.11230 0.65210 0.56420 -0.06500
C 	C 	0.12100 0.62320 0.57740 0.09300
C 	C 	0.38180 0.59090 0.63800 0.03000
C 	C 	0.38370 0.56100 0.61970 -0.04100
C 	C 	0.41130 0.56390 0.60580 0.11300
C 	C 	0.05930 0.51520 0.58700 0.03500
C 	C 	0.05050 0.53650 0.60600 -0.04500
C 	C 	0.04340 0.51960 0.62670 0.10700
C 	C 	0.12800 0.57660 0.51210 0.03800
C 	C 	0.15810 0.59030 0.52460 -0.05200
C 	C 	0.18560 0.59650 0.51240 0.12000
C 	C 	0.01730 0.62170 0.53160 0.01300
C 	C 	0.03130 0.64520 0.51540 -0.02700
C 	C 	0.01840 0.67870 0.51290 0.03100
Zn	Zn	0.81680 0.07570 0.16210 1.17700
Zn	Zn	0.67700 0.07580 0.12740 1.18300
Zn	Zn	0.71980 0.17380 0.20230 1.17600
Zn	Zn	0.57350 0.07650 0.05190 1.19000
Cl	Cl	0.72500 0.06130 0.27860 -0.23800
Cl	Cl	0.74740 0.15230 0.05250 -0.21300
Cl	Cl	0.60280 0.07790 0.22810 -0.17800
Cl	Cl	0.66970 0.27280 0.12480 -0.22000
Cl	Cl	0.54520 0.15860 0.14550 -0.21000
Cl	Cl	0.56890 0.03820 0.19940 -0.12000
Cl	Cl	0.63620 0.22220 0.04740 -0.20000
Cl	Cl	0.91280 0.03270 0.08190 -0.17400
Cl	Cl	0.53140 0.05300 0.14830 -0.17700
Cl	Cl	0.73230 0.09110 0.02180 -0.19400
N 	N 	0.82890 0.02710 0.17030 -0.26100
N 	N 	0.79310 0.09870 0.18920 -0.29300
N 	N 	0.75860 0.13870 0.20470 -0.27100
N 	N 	0.78360 0.07490 0.13620 -0.28900
N 	N 	0.72920 0.07300 0.12340 -0.25500
N 	N 	0.69210 0.17670 0.23240 -0.26700
N 	N 	0.74160 0.21780 0.19510 -0.28600
N 	N 	0.67110 0.11220 0.15290 -0.26100
N 	N 	0.68940 0.15510 0.17770 -0.27900
N 	N 	0.66210 0.03140 0.13650 -0.28400
N 	N 	0.60310 0.09500 0.07410 -0.30200
N 	N 	0.65120 0.09290 0.10130 -0.28700
N 	N 	0.85930 0.10300 0.15460 -0.27000
N 	N 	0.56500 0.02930 0.06480 -0.27700
N 	N 	0.53000 0.09800 0.05120 -0.29300
N 	N 	0.59350 0.07430 0.02020 -0.28200
C 	C 	0.85700 0.02090 0.18530 0.02900
C 	C 	0.88330 0.03630 0.19930 -0.04500
C 	C 	0.89980 0.01450 0.21560 0.01400
C 	C 	0.77860 0.12960 0.18600 0.01200
C 	C 	0.78270 0.08930 0.20820 0.08600
C 	C 	0.79170 0.05920 0.22000 -0.07300
C 	C 	0.77850 0.05240 0.24240 0.02500
C 	C 	0.75630 0.07590 0.25310 0.11300
C 	C 	0.74730 0.10610 0.24130 -0.05800
C 	C 	0.76050 0.11280 0.21890 0.03300
C 	C 	0.75010 0.06210 0.14110 0.00200
C 	C 	0.74360 0.09030 0.10530 -0.00300
C 	C 	0.73970 0.10620 0.08340 -0.01700
C 	C 	0.76770 0.12220 0.07270 0.13900
C 	C 	0.79970 0.12210 0.08380 0.03000
C 	C 	0.80370 0.10620 0.10560 -0.06300
C 	C 	0.77560 0.09030 0.11640 0.09600
C 	C 	0.66350 0.15520 0.23970 0.03900
C 	C 	0.64960 0.12700 0.22690 -0.03700
C 	C 	0.62520 0.11250 0.24090 0.11900
C 	C 	0.73210 0.24110 0.17770 0.02800
C 	C 	0.70410 0.24110 0.15860 -0.03700
C 	C 	0.70500 0.27150 0.14500 0.11100
C 	C 	0.69860 0.12770 0.16500 0.02700
C 	C 	0.65570 0.15850 0.17240 0.05800
C 	C 	0.63300 0.18330 0.18090 -0.02900
C 	C 	0.59890 0.18370 0.17330 0.05200
C 	C 	0.58750 0.15910 0.15710 0.15000
C 	C 	0.61020 0.13430 0.14860 -0.03600
C 	C 	0.64430 0.13400 0.15620 0.05100
C 	C 	0.63800 0.01970 0.15490 0.03200
C 	C 	0.61830 0.04020 0.16650 -0.02900
C 	C 	0.60180 0.01840 0.18010 0.11800
C 	C 	0.62420 0.07620 0.08920 0.04000
C 	C 	0.64640 0.12540 0.09480 0.03500
C 	C 	0.66290 0.15660 0.09890 -0.03000
C 	C 	0.65420 0.18560 0.08570 0.05500
C 	C 	0.62890 0.18340 0.06840 0.13100
C 	C 	0.61230 0.15210 0.06420 -0.06500
C 	C 	0.62100 0.12320 0.07740 0.09300
C 	C 	0.88180 0.09090 0.13800 0.03000
C 	C 	0.88370 0.06100 0.11970 -0.04100
C 	C 	0.91130 0.06390 0.10580 0.11300
C 	C 	0.55930 0.01520 0.08700 0.03400
C 	C 	0.55050 0.03650 0.10600 -0.04500
C 	C 	0.54340 0.01960 0.12670 0.10600
C 	C 	0.62800 0.07660 0.01210 0.03800
C 	C 	0.65810 0.09030 0.02460 -0.05200
C 	C 	0.68560 0.09650 0.01240 0.12000
C 	C 	0.51730 0.12170 0.03160 0.01400
C 	C 	0.53130 0.14520 0.01540 -0.02700
C 	C 	0.51840 0.17870 0.01290 0.03100
Zn	Zn	0.42430 0.31680 0.66210 1.17700
Zn	Zn	0.42420 0.17700 0.62740 1.18300
Zn	Zn	0.32620 0.21980 0.70230 1.17600
Zn	Zn	0.42350 0.07350 0.55190 1.19000
Cl	Cl	0.43870 0.22500 0.77860 -0.23800
Cl	Cl	0.34770 0.24740 0.55250 -0.21300
Cl	Cl	0.42210 0.10280 0.72810 -0.17800
Cl	Cl	0.22720 0.16970 0.62480 -0.22000
Cl	Cl	0.34140 0.04520 0.64550 -0.21000
Cl	Cl	0.46180 0.06890 0.69940 -0.12000
Cl	Cl	0.27780 0.13620 0.54740 -0.20000
Cl	Cl	0.46730 0.41280 0.58190 -0.17300
Cl	Cl	0.44700 0.03140 0.64830 -0.17700
Cl	Cl	0.40890 0.23230 0.52180 -0.19400
N 	N 	0.47290 0.32890 0.67030 -0.26100
N 	N 	0.40130 0.29310 0.68920 -0.29300
N 	N 	0.36130 0.25860 0.70470 -0.27100
N 	N 	0.42510 0.28360 0.63620 -0.28900
N 	N 	0.42700 0.22920 0.62340 -0.25500
N 	N 	0.32330 0.19210 0.73240 -0.26700
N 	N 	0.28220 0.24160 0.69510 -0.28600
N 	N 	0.38780 0.17110 0.65290 -0.26100
N 	N 	0.34490 0.18940 0.67770 -0.27900
N 	N 	0.46860 0.16210 0.63650 -0.28400
N 	N 	0.40500 0.10310 0.57410 -0.30200
N 	N 	0.40710 0.15120 0.60130 -0.28700
N 	N 	0.39700 0.35930 0.65460 -0.27000
N 	N 	0.47070 0.06500 0.56480 -0.27700
N 	N 	0.40200 0.03000 0.55120 -0.29300
N 	N 	0.42570 0.09350 0.52020 -0.28200
C 	C 	0.47910 0.35700 0.68530 0.03000
C 	C 	0.46370 0.38330 0.69930 -0.04500
C 	C 	0.48550 0.39980 0.71560 0.01500
C 	C 	0.37040 0.27860 0.68600 0.01200
C 	C 	0.41070 0.28270 0.70820 0.08600
C 	C 	0.44080 0.29170 0.72000 -0.07300
C 	C 	0.44760 0.27850 0.74240 0.02500
C 	C 	0.42410 0.25630 0.75310 0.11300
C 	C 	0.39390 0.24730 0.74130 -0.05800
C 	C 	0.38720 0.26050 0.71890 0.03300
C 	C 	0.43790 0.25010 0.64110 0.00200
C 	C 	0.40970 0.24360 0.60530 -0.00300
C 	C 	0.39380 0.23970 0.58340 -0.01700
C 	C 	0.37780 0.26770 0.57270 0.13900
C 	C 	0.37790 0.29970 0.58380 0.03000
C 	C 	0.39380 0.30370 0.60560 -0.06300
C 	C 	0.40970 0.27560 0.61640 0.09600
C 	C 	0.34480 0.16350 0.73970 0.03900
C 	C 	0.37300 0.14960 0.72690 -0.03700
C 	C 	0.38750 0.12520 0.74090 0.11900
C 	C 	0.25890 0.23210 0.67770 0.02800
C 	C 	0.25890 0.20410 0.65860 -0.03700
C 	C 	0.22850 0.20500 0.64500 0.11100
C 	C 	0.37230 0.19860 0.66500 0.02700
C 	C 	0.34150 0.15570 0.67240 0.05800
C 	C 	0.31670 0.13300 0.68090 -0.02900
C 	C 	0.31630 0.09890 0.67330 0.05200
C 	C 	0.34090 0.08750 0.65710 0.15000
C 	C 	0.36570 0.11020 0.64860 -0.03600
C 	C 	0.36600 0.14430 0.65620 0.05100
C 	C 	0.48030 0.13800 0.65490 0.03300
C 	C 	0.45980 0.11830 0.66650 -0.02900
C 	C 	0.48160 0.10180 0.68010 0.11800
C 	C 	0.42380 0.12420 0.58920 0.04000
C 	C 	0.37460 0.14640 0.59480 0.03500
C 	C 	0.34340 0.16290 0.59890 -0.03000
C 	C 	0.31440 0.15420 0.58570 0.05500
C 	C 	0.31660 0.12890 0.56840 0.13100
C 	C 	0.34790 0.11230 0.56420 -0.06500
C 	C 	0.37680 0.12100 0.57740 0.09300
C 	C 	0.40910 0.38180 0.63800 0.03000
C 	C 	0.43900 0.38370 0.61970 -0.04100
C 	C 	0.43610 0.41130 0.60580 0.11300
C 	C 	0.48480 0.05930 0.58700 0.03500
C 	C 	0.46350 0.05050 0.60600 -0.04500
C 	C 	0.48040 0.04340 0.62670 0.10700
C 	C 	0.42340 0.12800 0.51210 0.03800
C 	C 	0.40970 0.15810 0.52460 -0.05200
C 	C 	0.40350 0.18560 0.51240 0.12000
C 	C 	0.37830 0.01730 0.53160 0.01300
C 	C 	0.35480 0.03130 0.51540 -0.02700
C 	C 	0.32130 0.01840 0.51290 0.03100
Zn	Zn	0.92430 0.81680 0.16210 1.17700
Zn	Zn	0.92420 0.67700 0.12740 1.18300
Zn	Zn	0.82620 0.71980 0.20230 1.17600
Zn	Zn	0.92350 0.57350 0.05190 1.19000
Cl	Cl	0.93870 0.72500 0.27860 -0.23700
Cl	Cl	0.84770 0.74740 0.05250 -0.21300
Cl	Cl	0.92210 0.60280 0.22810 -0.17800
Cl	Cl	0.72720 0.66970 0.12480 -0.22000
Cl	Cl	0.84140 0.54520 0.14550 -0.21000
Cl	Cl	0.96180 0.56890 0.19940 -0.12000
Cl	Cl	0.77780 0.63620 0.04740 -0.20000
Cl	Cl	0.96730 0.91280 0.08190 -0.17300
Cl	Cl	0.94700 0.53140 0.14830 -0.17700
Cl	Cl	0.90890 0.73230 0.02180 -0.19400
N 	N 	0.97290 0.82890 0.17030 -0.26100
N 	N 	0.90130 0.79310 0.18920 -0.29300
N 	N 	0.86130 0.75860 0.20470 -0.27100
N 	N 	0.92510 0.78360 0.13620 -0.28900
N 	N 	0.92700 0.72920 0.12340 -0.25500
N 	N 	0.82330 0.69210 0.23240 -0.26700
N 	N 	0.78220 0.74160 0.19510 -0.28600
N 	N 	0.88780 0.67110 0.15290 -0.26100
N 	N 	0.84490 0.68940 0.17770 -0.27900
N 	N 	0.96860 0.66210 0.13650 -0.28400
N 	N 	0.90500 0.60310 0.07410 -0.30200
N 	N 	0.90710 0.65120 0.10130 -0.28700
N 	N 	0.89700 0.85930 0.15460 -0.27000
N 	N 	0.97070 0.56500 0.06480 -0.27700
N 	N 	0.90200 0.53000 0.05120 -0.29300
N 	N 	0.92570 0.59350 0.02020 -0.28200
C 	C 	0.97910 0.85700 0.18530 0.03000
C 	C 	0.96370 0.88330 0.19930 -0.04500
C 	C 	0.98550 0.89980 0.21560 0.01600
C 	C 	0.87040 0.77860 0.18600 0.01200
C 	C 	0.91070 0.78270 0.20820 0.08600
C 	C 	0.94080 0.79170 0.22000 -0.07300
C 	C 	0.94760 0.77850 0.24240 0.02500
C 	C 	0.92410 0.75630 0.25310 0.11300
C 	C 	0.89390 0.74730 0.24130 -0.05800
C 	C 	0.88720 0.76050 0.21890 0.03300
C 	C 	0.93790 0.75010 0.14110 0.00200
C 	C 	0.90970 0.74360 0.10530 -0.00300
C 	C 	0.89380 0.73970 0.08340 -0.01700
C 	C 	0.87780 0.76770 0.07270 0.13900
C 	C 	0.87790 0.79970 0.08380 0.03000
C 	C 	0.89380 0.80370 0.10560 -0.06300
C 	C 	0.90970 0.77560 0.11640 0.09600
C 	C 	0.84480 0.66350 0.23970 0.03900
C 	C 	0.87300 0.64960 0.22690 -0.03700
C 	C 	0.88750 0.62520 0.24090 0.11900
C 	C 	0.75890 0.73210 0.17770 0.02800
C 	C 	0.75890 0.70410 0.15860 -0.03700
C 	C 	0.72850 0.70500 0.14500 0.11100
C 	C 	0.87230 0.69860 0.16500 0.02700
C 	C 	0.84150 0.65570 0.17240 0.05800
C 	C 	0.81670 0.63300 0.18090 -0.02900
C 	C 	0.81630 0.59890 0.17330 0.05200
C 	C 	0.84090 0.58750 0.15710 0.15000
C 	C 	0.86570 0.61020 0.14860 -0.03600
C 	C 	0.86600 0.64430 0.15620 0.05100
C 	C 	0.98030 0.63800 0.15490 0.03300
C 	C 	0.95980 0.61830 0.16650 -0.02900
C 	C 	0.98160 0.60180 0.18010 0.11900
C 	C 	0.92380 0.62420 0.08920 0.04000
C 	C 	0.87460 0.64640 0.09480 0.03500
C 	C 	0.84340 0.66290 0.09890 -0.03000
C 	C 	0.81440 0.65420 0.08570 0.05500
C 	C 	0.81660 0.62890 0.06840 0.13100
C 	C 	0.84790 0.61230 0.06420 -0.06500
C 	C 	0.87680 0.62100 0.07740 0.09300
C 	C 	0.90910 0.88180 0.13800 0.03000
C 	C 	0.93900 0.88370 0.11970 -0.04100
C 	C 	0.93610 0.91130 0.10580 0.11300
C 	C 	0.98480 0.55930 0.08700 0.03600
C 	C 	0.96350 0.55050 0.10600 -0.04500
C 	C 	0.98040 0.54340 0.12670 0.10700
C 	C 	0.92340 0.62800 0.01210 0.03800
C 	C 	0.90970 0.65810 0.02460 -0.05200
C 	C 	0.90350 0.68560 0.01240 0.12000
C 	C 	0.87830 0.51730 0.03160 0.01400
C 	C 	0.85480 0.53130 0.01540 -0.02700
C 	C 	0.82130 0.51840 0.01290 0.03100
Zn	Zn	0.57570 0.68320 0.66210 1.17700
Zn	Zn	0.57580 0.82300 0.62740 1.18300
Zn	Zn	0.67380 0.78020 0.70230 1.17600
Zn	Zn	0.57650 0.92650 0.55190 1.19000
Cl	Cl	0.56130 0.77500 0.77860 -0.23800
Cl	Cl	0.65230 0.75260 0.55250 -0.21300
Cl	Cl	0.57790 0.89720 0.72810 -0.17800
Cl	Cl	0.77280 0.83030 0.62480 -0.22000
Cl	Cl	0.65860 0.95480 0.64550 -0.21000
Cl	Cl	0.53820 0.93110 0.69940 -0.12000
Cl	Cl	0.72220 0.86380 0.54740 -0.20000
Cl	Cl	0.53270 0.58720 0.58190 -0.17300
Cl	Cl	0.55300 0.96860 0.64830 -0.17700
Cl	Cl	0.59110 0.76770 0.52180 -0.19400
N 	N 	0.52710 0.67110 0.67030 -0.26100
N 	N 	0.59870 0.70690 0.68920 -0.29300
N 	N 	0.63870 0.74140 0.70470 -0.27100
N 	N 	0.57490 0.71640 0.63620 -0.28900
N 	N 	0.57300 0.77080 0.62340 -0.25500
N 	N 	0.67670 0.80790 0.73240 -0.26700
N 	N 	0.71780 0.75840 0.69510 -0.28600
N 	N 	0.61220 0.82890 0.65290 -0.26100
N 	N 	0.65510 0.81060 0.67770 -0.27900
N 	N 	0.53140 0.83790 0.63650 -0.28400
N 	N 	0.59500 0.89690 0.57410 -0.30200
N 	N 	0.59290 0.84880 0.60130 -0.28700
N 	N 	0.60300 0.64070 0.65460 -0.27000
N 	N 	0.52930 0.93500 0.56480 -0.27700
N 	N 	0.59800 0.97000 0.55120 -0.29300
N 	N 	0.57430 0.90650 0.52020 -0.28200
C 	C 	0.52090 0.64300 0.68530 0.03000
C 	C 	0.53630 0.61670 0.69930 -0.04500
C 	C 	0.51450 0.60020 0.71560 0.01500
C 	C 	0.62960 0.72140 0.68600 0.01200
C 	C 	0.58930 0.71730 0.70820 0.08600
C 	C 	0.55920 0.70830 0.72000 -0.07300
C 	C 	0.55240 0.72150 0.74240 0.02500
C 	C 	0.57590 0.74370 0.75310 0.11300
C 	C 	0.60610 0.75270 0.74130 -0.05800
C 	C 	0.61280 0.73950 0.71890 0.03300
C 	C 	0.56210 0.74990 0.64110 0.00200
C 	C 	0.59030 0.75640 0.60530 -0.00300
C 	C 	0.60620 0.76030 0.58340 -0.01700
C 	C 	0.62220 0.73230 0.57270 0.13900
C 	C 	0.62210 0.70030 0.58380 0.03000
C 	C 	0.60620 0.69630 0.60560 -0.06300
C 	C 	0.59030 0.72440 0.61640 0.09600
C 	C 	0.65520 0.83650 0.73970 0.03900
C 	C 	0.62700 0.85040 0.72690 -0.03700
C 	C 	0.61250 0.87480 0.74090 0.12000
C 	C 	0.74110 0.76790 0.67770 0.02800
C 	C 	0.74110 0.79590 0.65860 -0.03700
C 	C 	0.77150 0.79500 0.64500 0.11100
C 	C 	0.62770 0.80140 0.66500 0.02700
C 	C 	0.65850 0.84430 0.67240 0.05800
C 	C 	0.68330 0.86700 0.68090 -0.02900
C 	C 	0.68370 0.90110 0.67330 0.05200
C 	C 	0.65910 0.91250 0.65710 0.15000
C 	C 	0.63430 0.88980 0.64860 -0.03600
C 	C 	0.63400 0.85570 0.65620 0.05100
C 	C 	0.51970 0.86200 0.65490 0.03300
C 	C 	0.54020 0.88170 0.66650 -0.02900
C 	C 	0.51840 0.89820 0.68010 0.11800
C 	C 	0.57620 0.87580 0.58920 0.04000
C 	C 	0.62540 0.85360 0.59480 0.03500
C 	C 	0.65660 0.83710 0.59890 -0.03000
C 	C 	0.68560 0.84580 0.58570 0.05500
C 	C 	0.68340 0.87110 0.56840 0.13100
C 	C 	0.65210 0.88770 0.56420 -0.06500
C 	C 	0.62320 0.87900 0.57740 0.09300
C 	C 	0.59090 0.61820 0.63800 0.03000
C 	C 	0.56100 0.61630 0.61970 -0.04100
C 	C 	0.56390 0.58870 0.60580 0.11300
C 	C 	0.51520 0.94070 0.58700 0.03500
C 	C 	0.53650 0.94950 0.60600 -0.04500
C 	C 	0.51960 0.95660 0.62670 0.10700
C 	C 	0.57660 0.87200 0.51210 0.03800
C 	C 	0.59030 0.84190 0.52460 -0.05200
C 	C 	0.59650 0.81440 0.51240 0.12000
C 	C 	0.62170 0.98270 0.53160 0.01400
C 	C 	0.64520 0.96870 0.51540 -0.02700
C 	C 	0.67870 0.98160 0.51290 0.03200
Zn	Zn	0.07570 0.18320 0.16210 1.17700
Zn	Zn	0.07580 0.32300 0.12740 1.18300
Zn	Zn	0.17380 0.28020 0.20230 1.17600
Zn	Zn	0.07650 0.42650 0.05190 1.19000
Cl	Cl	0.06130 0.27500 0.27860 -0.23800
Cl	Cl	0.15230 0.25260 0.05250 -0.21300
Cl	Cl	0.07790 0.39720 0.22810 -0.17800
Cl	Cl	0.27280 0.33030 0.12480 -0.22000
Cl	Cl	0.15860 0.45480 0.14550 -0.21000
Cl	Cl	0.03820 0.43110 0.19940 -0.12000
Cl	Cl	0.22220 0.36380 0.04740 -0.20000
Cl	Cl	0.03270 0.08720 0.08190 -0.17400
Cl	Cl	0.05300 0.46860 0.14830 -0.17700
Cl	Cl	0.09110 0.26770 0.02180 -0.19400
N 	N 	0.02710 0.17110 0.17030 -0.26100
N 	N 	0.09870 0.20690 0.18920 -0.29300
N 	N 	0.13870 0.24140 0.20470 -0.27100
N 	N 	0.07490 0.21640 0.13620 -0.28900
N 	N 	0.07300 0.27080 0.12340 -0.25500
N 	N 	0.17670 0.30790 0.23240 -0.26700
N 	N 	0.21780 0.25840 0.19510 -0.28600
N 	N 	0.11220 0.32890 0.15290 -0.26100
N 	N 	0.15510 0.31060 0.17770 -0.27900
N 	N 	0.03140 0.33790 0.13650 -0.28400
N 	N 	0.09500 0.39690 0.07410 -0.30200
N 	N 	0.09290 0.34880 0.10130 -0.28700
N 	N 	0.10300 0.14070 0.15460 -0.27000
N 	N 	0.02930 0.43500 0.06480 -0.27700
N 	N 	0.09800 0.47000 0.05120 -0.29300
N 	N 	0.07430 0.40650 0.02020 -0.28200
C 	C 	0.02090 0.14300 0.18530 0.02900
C 	C 	0.03630 0.11670 0.19930 -0.04500
C 	C 	0.01450 0.10020 0.21560 0.01400
C 	C 	0.12960 0.22140 0.18600 0.01200
C 	C 	0.08930 0.21730 0.20820 0.08600
C 	C 	0.05920 0.20830 0.22000 -0.07300
C 	C 	0.05240 0.22150 0.24240 0.02500
C 	C 	0.07590 0.24370 0.25310 0.11300
C 	C 	0.10610 0.25270 0.24130 -0.05800
C 	C 	0.11280 0.23950 0.21890 0.03300
C 	C 	0.06210 0.24990 0.14110 0.00200
C 	C 	0.09030 0.25640 0.10530 -0.00300
C 	C 	0.10620 0.26030 0.08340 -0.01700
C 	C 	0.12220 0.23230 0.07270 0.13900
C 	C 	0.12210 0.20030 0.08380 0.03000
C 	C 	0.10620 0.19630 0.10560 -0.06300
C 	C 	0.09030 0.22440 0.11640 0.09600
C 	C 	0.15520 0.33650 0.23970 0.03900
C 	C 	0.12700 0.35040 0.22690 -0.03700
C 	C 	0.11250 0.37480 0.24090 0.11900
C 	C 	0.24110 0.26790 0.17770 0.02800
C 	C 	0.24110 0.29590 0.15860 -0.03700
C 	C 	0.27150 0.29500 0.14500 0.11100
C 	C 	0.12770 0.30140 0.16500 0.02700
C 	C 	0.15850 0.34430 0.17240 0.05800
C 	C 	0.18330 0.36700 0.18090 -0.02900
C 	C 	0.18370 0.40110 0.17330 0.05200
C 	C 	0.15910 0.41250 0.15710 0.15000
C 	C 	0.13430 0.38980 0.14860 -0.03600
C 	C 	0.13400 0.35570 0.15620 0.05100
C 	C 	0.01970 0.36200 0.15490 0.03200
C 	C 	0.04020 0.38170 0.16650 -0.02900
C 	C 	0.01840 0.39820 0.18010 0.11800
C 	C 	0.07620 0.37580 0.08920 0.04000
C 	C 	0.12540 0.35360 0.09480 0.03500
C 	C 	0.15660 0.33710 0.09890 -0.03000
C 	C 	0.18560 0.34580 0.08570 0.05500
C 	C 	0.18340 0.37110 0.06840 0.13100
C 	C 	0.15210 0.38770 0.06420 -0.06500
C 	C 	0.12320 0.37900 0.07740 0.09300
C 	C 	0.09090 0.11820 0.13800 0.03000
C 	C 	0.06100 0.11630 0.11970 -0.04100
C 	C 	0.06390 0.08870 0.10580 0.11300
C 	C 	0.01520 0.44070 0.08700 0.03400
C 	C 	0.03650 0.44950 0.10600 -0.04500
C 	C 	0.01960 0.45660 0.12670 0.10600
C 	C 	0.07660 0.37200 0.01210 0.03800
C 	C 	0.09030 0.34190 0.02460 -0.05200
C 	C 	0.09650 0.31440 0.01240 0.12000
C 	C 	0.12170 0.48270 0.03160 0.01400
C 	C 	0.14520 0.46870 0.01540 -0.02700
C 	C 	0.17870 0.48160 0.01290 0.03100
Zn	Zn	0.68320 0.57570 0.66210 1.17700
Zn	Zn	0.82300 0.57580 0.62740 1.18300
Zn	Zn	0.78020 0.67380 0.70230 1.17600
Zn	Zn	0.92650 0.57650 0.55190 1.19000
Cl	Cl	0.77500 0.56130 0.77860 -0.23800
Cl	Cl	0.75260 0.65230 0.55250 -0.21300
Cl	Cl	0.89720 0.57790 0.72810 -0.17800
Cl	Cl	0.83030 0.77280 0.62480 -0.22000
Cl	Cl	0.95480 0.65860 0.64550 -0.21000
Cl	Cl	0.93110 0.53820 0.69940 -0.12000
Cl	Cl	0.86380 0.72220 0.54740 -0.20000
Cl	Cl	0.58720 0.53270 0.58190 -0.17300
Cl	Cl	0.96860 0.55300 0.64830 -0.17700
Cl	Cl	0.76770 0.59110 0.52180 -0.19400
N 	N 	0.67110 0.52710 0.67030 -0.26100
N 	N 	0.70690 0.59870 0.68920 -0.29300
N 	N 	0.74140 0.63870 0.70470 -0.27100
N 	N 	0.71640 0.57490 0.63620 -0.28900
N 	N 	0.77080 0.57300 0.62340 -0.25500
N 	N 	0.80790 0.67670 0.73240 -0.26700
N 	N 	0.75840 0.71780 0.69510 -0.28600
N 	N 	0.82890 0.61220 0.65290 -0.26100
N 	N 	0.81060 0.65510 0.67770 -0.27900
N 	N 	0.83790 0.53140 0.63650 -0.28400
N 	N 	0.89690 0.59500 0.57410 -0.30200
N 	N 	0.84880 0.59290 0.60130 -0.28700
N 	N 	0.64070 0.60300 0.65460 -0.27000
N 	N 	0.93500 0.52930 0.56480 -0.27700
N 	N 	0.97000 0.59800 0.55120 -0.29300
N 	N 	0.90650 0.57430 0.52020 -0.28200
C 	C 	0.64300 0.52090 0.68530 0.03000
C 	C 	0.61670 0.53630 0.69930 -0.04500
C 	C 	0.60020 0.51450 0.71560 0.01500
C 	C 	0.72140 0.62960 0.68600 0.01200
C 	C 	0.71730 0.58930 0.70820 0.08600
C 	C 	0.70830 0.55920 0.72000 -0.07300
C 	C 	0.72150 0.55240 0.74240 0.02500
C 	C 	0.74370 0.57590 0.75310 0.11300
C 	C 	0.75270 0.60610 0.74130 -0.05800
C 	C 	0.73950 0.61280 0.71890 0.03300
C 	C 	0.74990 0.56210 0.64110 0.00200
C 	C 	0.75640 0.59030 0.60530 -0.00300
C 	C 	0.76030 0.60620 0.58340 -0.01700
C 	C 	0.73230 0.62220 0.57270 0.13900
C 	C 	0.70030 0.62210 0.58380 0.03000
C 	C 	0.69630 0.60620 0.60560 -0.06300
C 	C 	0.72440 0.59030 0.61640 0.09600
C 	C 	0.83650 0.65520 0.73970 0.03900
C 	C 	0.85040 0.62700 0.72690 -0.03700
C 	C 	0.87480 0.61250 0.74090 0.12000
C 	C 	0.76790 0.74110 0.67770 0.02800
C 	C 	0.79590 0.74110 0.65860 -0.03700
C 	C 	0.79500 0.77150 0.64500 0.11100
C 	C 	0.80140 0.62770 0.66500 0.02700
C 	C 	0.84430 0.65850 0.67240 0.05800
C 	C 	0.86700 0.68330 0.68090 -0.02900
C 	C 	0.90110 0.68370 0.67330 0.05200
C 	C 	0.91250 0.65910 0.65710 0.15000
C 	C 	0.88980 0.63430 0.64860 -0.03600
C 	C 	0.85570 0.63400 0.65620 0.05100
C 	C 	0.86200 0.51970 0.65490 0.03300
C 	C 	0.88170 0.54020 0.66650 -0.02900
C 	C 	0.89820 0.51840 0.68010 0.11800
C 	C 	0.87580 0.57620 0.58920 0.04000
C 	C 	0.85360 0.62540 0.59480 0.03500
C 	C 	0.83710 0.65660 0.59890 -0.03000
C 	C 	0.84580 0.68560 0.58570 0.05500
C 	C 	0.87110 0.68340 0.56840 0.13100
C 	C 	0.88770 0.65210 0.56420 -0.06500
C 	C 	0.87900 0.62320 0.57740 0.09300
C 	C 	0.61820 0.59090 0.63800 0.03000
C 	C 	0.61630 0.56100 0.61970 -0.04100
C 	C 	0.58870 0.56390 0.60580 0.11300
C 	C 	0.94070 0.51520 0.58700 0.03500
C 	C 	0.94950 0.53650 0.60600 -0.04500
C 	C 	0.95660 0.51960 0.62670 0.10700
C 	C 	0.87200 0.57660 0.51210 0.03800
C 	C 	0.84190 0.59030 0.52460 -0.05200
C 	C 	0.81440 0.59650 0.51240 0.12000
C 	C 	0.98270 0.62170 0.53160 0.01400
C 	C 	0.96870 0.64520 0.51540 -0.02700
C 	C 	0.98160 0.67870 0.51290 0.03200
Zn	Zn	0.18320 0.07570 0.16210 1.17700
Zn	Zn	0.32300 0.07580 0.12740 1.18300
Zn	Zn	0.28020 0.17380 0.20230 1.17600
Zn	Zn	0.42650 0.07650 0.05190 1.19000
Cl	Cl	0.27500 0.06130 0.27860 -0.23800
Cl	Cl	0.25260 0.15230 0.05250 -0.21300
Cl	Cl	0.39720 0.07790 0.22810 -0.17800
Cl	Cl	0.33030 0.27280 0.12480 -0.22000
Cl	Cl	0.45480 0.15860 0.14550 -0.21000
Cl	Cl	0.43110 0.03820 0.19940 -0.12000
Cl	Cl	0.36380 0.22220 0.04740 -0.20000
Cl	Cl	0.08720 0.03270 0.08190 -0.17400
Cl	Cl	0.46860 0.05300 0.14830 -0.17700
Cl	Cl	0.26770 0.09110 0.02180 -0.19400
N 	N 	0.17110 0.02710 0.17030 -0.26100
N 	N 	0.20690 0.09870 0.18920 -0.29300
N 	N 	0.24140 0.13870 0.20470 -0.27100
N 	N 	0.21640 0.07490 0.13620 -0.28900
N 	N 	0.27080 0.07300 0.12340 -0.25500
N 	N 	0.30790 0.17670 0.23240 -0.26700
N 	N 	0.25840 0.21780 0.19510 -0.28600
N 	N 	0.32890 0.11220 0.15290 -0.26100
N 	N 	0.31060 0.15510 0.17770 -0.27900
N 	N 	0.33790 0.03140 0.13650 -0.28400
N 	N 	0.39690 0.09500 0.07410 -0.30200
N 	N 	0.34880 0.09290 0.10130 -0.28700
N 	N 	0.14070 0.10300 0.15460 -0.27000
N 	N 	0.43500 0.02930 0.06480 -0.27700
N 	N 	0.47000 0.09800 0.05120 -0.29300
N 	N 	0.40650 0.07430 0.02020 -0.28200
C 	C 	0.14300 0.02090 0.18530 0.02900
C 	C 	0.11670 0.03630 0.19930 -0.04500
C 	C 	0.10020 0.01450 0.21560 0.01400
C 	C 	0.22140 0.12960 0.18600 0.01200
C 	C 	0.21730 0.08930 0.20820 0.08600
C 	C 	0.20830 0.05920 0.22000 -0.07300
C 	C 	0.22150 0.05240 0.24240 0.02500
C 	C 	0.24370 0.07590 0.25310 0.11300
C 	C 	0.25270 0.10610 0.24130 -0.05800
C 	C 	0.23950 0.11280 0.21890 0.03300
C 	C 	0.24990 0.06210 0.14110 0.00200
C 	C 	0.25640 0.09030 0.10530 -0.00300
C 	C 	0.26030 0.10620 0.08340 -0.01700
C 	C 	0.23230 0.12220 0.07270 0.13900
C 	C 	0.20030 0.12210 0.08380 0.03000
C 	C 	0.19630 0.10620 0.10560 -0.06300
C 	C 	0.22440 0.09030 0.11640 0.09600
C 	C 	0.33650 0.15520 0.23970 0.03900
C 	C 	0.35040 0.12700 0.22690 -0.03700
C 	C 	0.37480 0.11250 0.24090 0.11900
C 	C 	0.26790 0.24110 0.17770 0.02800
C 	C 	0.29590 0.24110 0.15860 -0.03700
C 	C 	0.29500 0.27150 0.14500 0.11100
C 	C 	0.30140 0.12770 0.16500 0.02700
C 	C 	0.34430 0.15850 0.17240 0.05800
C 	C 	0.36700 0.18330 0.18090 -0.02900
C 	C 	0.40110 0.18370 0.17330 0.05200
C 	C 	0.41250 0.15910 0.15710 0.15000
C 	C 	0.38980 0.13430 0.14860 -0.03600
C 	C 	0.35570 0.13400 0.15620 0.05100
C 	C 	0.36200 0.01970 0.15490 0.03200
C 	C 	0.38170 0.04020 0.16650 -0.02900
C 	C 	0.39820 0.01840 0.18010 0.11800
C 	C 	0.37580 0.07620 0.08920 0.04000
C 	C 	0.35360 0.12540 0.09480 0.03500
C 	C 	0.33710 0.15660 0.09890 -0.03000
C 	C 	0.34580 0.18560 0.08570 0.05500
C 	C 	0.37110 0.18340 0.06840 0.13100
C 	C 	0.38770 0.15210 0.06420 -0.06500
C 	C 	0.37900 0.12320 0.07740 0.09300
C 	C 	0.11820 0.09090 0.13800 0.03000
C 	C 	0.11630 0.06100 0.11970 -0.04100
C 	C 	0.08870 0.06390 0.10580 0.11300
C 	C 	0.44070 0.01520 0.08700 0.03400
C 	C 	0.44950 0.03650 0.10600 -0.04500
C 	C 	0.45660 0.01960 0.12670 0.10600
C 	C 	0.37200 0.07660 0.01210 0.03800
C 	C 	0.34190 0.09030 0.02460 -0.05200
C 	C 	0.31440 0.09650 0.01240 0.12000
C 	C 	0.48270 0.12170 0.03160 0.01400
C 	C 	0.46870 0.14520 0.01540 -0.02700
C 	C 	0.48160 0.17870 0.01290 0.03100
Zn	Zn	0.31680 0.42430 0.66210 1.17700
Zn	Zn	0.17700 0.42420 0.62740 1.18300
Zn	Zn	0.21980 0.32620 0.70230 1.17600
Zn	Zn	0.07350 0.42350 0.55190 1.19000
Cl	Cl	0.22500 0.43870 0.77860 -0.23800
Cl	Cl	0.24740 0.34770 0.55250 -0.21300
Cl	Cl	0.10280 0.42210 0.72810 -0.17800
Cl	Cl	0.16970 0.22720 0.62480 -0.22000
Cl	Cl	0.04520 0.34140 0.64550 -0.21000
Cl	Cl	0.06890 0.46180 0.69940 -0.12000
Cl	Cl	0.13620 0.27780 0.54740 -0.20000
Cl	Cl	0.41280 0.46730 0.58190 -0.17300
Cl	Cl	0.03140 0.44700 0.64830 -0.17700
Cl	Cl	0.23230 0.40890 0.52180 -0.19400
N 	N 	0.32890 0.47290 0.67030 -0.26100
N 	N 	0.29310 0.40130 0.68920 -0.29300
N 	N 	0.25860 0.36130 0.70470 -0.27100
N 	N 	0.28360 0.42510 0.63620 -0.28900
N 	N 	0.22920 0.42700 0.62340 -0.25500
N 	N 	0.19210 0.32330 0.73240 -0.26700
N 	N 	0.24160 0.28220 0.69510 -0.28600
N 	N 	0.17110 0.38780 0.65290 -0.26100
N 	N 	0.18940 0.34490 0.67770 -0.27900
N 	N 	0.16210 0.46860 0.63650 -0.28400
N 	N 	0.10310 0.40500 0.57410 -0.30200
N 	N 	0.15120 0.40710 0.60130 -0.28700
N 	N 	0.35930 0.39700 0.65460 -0.27000
N 	N 	0.06500 0.47070 0.56480 -0.27700
N 	N 	0.03000 0.40200 0.55120 -0.29300
N 	N 	0.09350 0.42570 0.52020 -0.28200
C 	C 	0.35700 0.47910 0.68530 0.03000
C 	C 	0.38330 0.46370 0.69930 -0.04500
C 	C 	0.39980 0.48550 0.71560 0.01500
C 	C 	0.27860 0.37040 0.68600 0.01200
C 	C 	0.28270 0.41070 0.70820 0.08600
C 	C 	0.29170 0.44080 0.72000 -0.07300
C 	C 	0.27850 0.44760 0.74240 0.02500
C 	C 	0.25630 0.42410 0.75310 0.11300
C 	C 	0.24730 0.39390 0.74130 -0.05800
C 	C 	0.26050 0.38720 0.71890 0.03300
C 	C 	0.25010 0.43790 0.64110 0.00200
C 	C 	0.24360 0.40970 0.60530 -0.00300
C 	C 	0.23970 0.39380 0.58340 -0.01700
C 	C 	0.26770 0.37780 0.57270 0.13900
C 	C 	0.29970 0.37790 0.58380 0.03000
C 	C 	0.30370 0.39380 0.60560 -0.06300
C 	C 	0.27560 0.40970 0.61640 0.09600
C 	C 	0.16350 0.34480 0.73970 0.03900
C 	C 	0.14960 0.37300 0.72690 -0.03700
C 	C 	0.12520 0.38750 0.74090 0.11900
C 	C 	0.23210 0.25890 0.67770 0.02800
C 	C 	0.20410 0.25890 0.65860 -0.03700
C 	C 	0.20500 0.22850 0.64500 0.11100
C 	C 	0.19860 0.37230 0.66500 0.02700
C 	C 	0.15570 0.34150 0.67240 0.05800
C 	C 	0.13300 0.31670 0.68090 -0.02900
C 	C 	0.09890 0.31630 0.67330 0.05200
C 	C 	0.08750 0.34090 0.65710 0.15000
C 	C 	0.11020 0.36570 0.64860 -0.03600
C 	C 	0.14430 0.36600 0.65620 0.05100
C 	C 	0.13800 0.48030 0.65490 0.03300
C 	C 	0.11830 0.45980 0.66650 -0.02900
C 	C 	0.10180 0.48160 0.68010 0.11800
C 	C 	0.12420 0.42380 0.58920 0.04000
C 	C 	0.14640 0.37460 0.59480 0.03500
C 	C 	0.16290 0.34340 0.59890 -0.03000
C 	C 	0.15420 0.31440 0.58570 0.05500
C 	C 	0.12890 0.31660 0.56840 0.13100
C 	C 	0.11230 0.34790 0.56420 -0.06500
C 	C 	0.12100 0.37680 0.57740 0.09300
C 	C 	0.38180 0.40910 0.63800 0.03000
C 	C 	0.38370 0.43900 0.61970 -0.04100
C 	C 	0.41130 0.43610 0.60580 0.11300
C 	C 	0.05930 0.48480 0.58700 0.03500
C 	C 	0.05050 0.46350 0.60600 -0.04500
C 	C 	0.04340 0.48040 0.62670 0.10700
C 	C 	0.12800 0.42340 0.51210 0.03800
C 	C 	0.15810 0.40970 0.52460 -0.05200
C 	C 	0.18560 0.40350 0.51240 0.12000
C 	C 	0.01730 0.37830 0.53160 0.01300
C 	C 	0.03130 0.35480 0.51540 -0.02700
C 	C 	0.01840 0.32130 0.51290 0.03100
Zn	Zn	0.81680 0.92430 0.16210 1.17700
Zn	Zn	0.67700 0.92420 0.12740 1.18300
Zn	Zn	0.71980 0.82620 0.20230 1.17600
Zn	Zn	0.57350 0.92350 0.05190 1.19000
Cl	Cl	0.72500 0.93870 0.27860 -0.23700
Cl	Cl	0.74740 0.84770 0.05250 -0.21300
Cl	Cl	0.60280 0.92210 0.22810 -0.17800
Cl	Cl	0.66970 0.72720 0.12480 -0.22000
Cl	Cl	0.54520 0.84140 0.14550 -0.21000
Cl	Cl	0.56890 0.96180 0.19940 -0.12000
Cl	Cl	0.63620 0.77780 0.04740 -0.20000
Cl	Cl	0.91280 0.96730 0.08190 -0.17300
Cl	Cl	0.53140 0.94700 0.14830 -0.17700
Cl	Cl	0.73230 0.90890 0.02180 -0.19400
N 	N 	0.82890 0.97290 0.17030 -0.26100
N 	N 	0.79310 0.90130 0.18920 -0.29300
N 	N 	0.75860 0.86130 0.20470 -0.27100
N 	N 	0.78360 0.92510 0.13620 -0.28900
N 	N 	0.72920 0.92700 0.12340 -0.25500
N 	N 	0.69210 0.82330 0.23240 -0.26700
N 	N 	0.74160 0.78220 0.19510 -0.28600
N 	N 	0.67110 0.88780 0.15290 -0.26100
N 	N 	0.68940 0.84490 0.17770 -0.27900
N 	N 	0.66210 0.96860 0.13650 -0.28400
N 	N 	0.60310 0.90500 0.07410 -0.30200
N 	N 	0.65120 0.90710 0.10130 -0.28700
N 	N 	0.85930 0.89700 0.15460 -0.27000
N 	N 	0.56500 0.97070 0.06480 -0.27700
N 	N 	0.53000 0.90200 0.05120 -0.29300
N 	N 	0.59350 0.92570 0.02020 -0.28200
C 	C 	0.85700 0.97910 0.18530 0.03000
C 	C 	0.88330 0.96370 0.19930 -0.04500
C 	C 	0.89980 0.98550 0.21560 0.01600
C 	C 	0.77860 0.87040 0.18600 0.01200
C 	C 	0.78270 0.91070 0.20820 0.08600
C 	C 	0.79170 0.94080 0.22000 -0.07300
C 	C 	0.77850 0.94760 0.24240 0.02500
C 	C 	0.75630 0.92410 0.25310 0.11300
C 	C 	0.74730 0.89390 0.24130 -0.05800
C 	C 	0.76050 0.88720 0.21890 0.03300
C 	C 	0.75010 0.93790 0.14110 0.00200
C 	C 	0.74360 0.90970 0.10530 -0.00300
C 	C 	0.73970 0.89380 0.08340 -0.01700
C 	C 	0.76770 0.87780 0.07270 0.13900
C 	C 	0.79970 0.87790 0.08380 0.03000
C 	C 	0.80370 0.89380 0.10560 -0.06300
C 	C 	0.77560 0.90970 0.11640 0.09600
C 	C 	0.66350 0.84480 0.23970 0.03900
C 	C 	0.64960 0.87300 0.22690 -0.03700
C 	C 	0.62520 0.88750 0.24090 0.11900
C 	C 	0.73210 0.75890 0.17770 0.02800
C 	C 	0.70410 0.75890 0.15860 -0.03700
C 	C 	0.70500 0.72850 0.14500 0.11100
C 	C 	0.69860 0.87230 0.16500 0.02700
C 	C 	0.65570 0.84150 0.17240 0.05800
C 	C 	0.63300 0.81670 0.18090 -0.02900
C 	C 	0.59890 0.81630 0.17330 0.05200
C 	C 	0.58750 0.84090 0.15710 0.15000
C 	C 	0.61020 0.86570 0.14860 -0.03600
C 	C 	0.64430 0.86600 0.15620 0.05100
C 	C 	0.63800 0.98030 0.15490 0.03300
C 	C 	0.61830 0.95980 0.16650 -0.02900
C 	C 	0.60180 0.98160 0.18010 0.11900
C 	C 	0.62420 0.92380 0.08920 0.04000
C 	C 	0.64640 0.87460 0.09480 0.03500
C 	C 	0.66290 0.84340 0.09890 -0.03000
C 	C 	0.65420 0.81440 0.08570 0.05500
C 	C 	0.62890 0.81660 0.06840 0.13100
C 	C 	0.61230 0.84790 0.06420 -0.06500
C 	C 	0.62100 0.87680 0.07740 0.09300
C 	C 	0.88180 0.90910 0.13800 0.03000
C 	C 	0.88370 0.93900 0.11970 -0.04100
C 	C 	0.91130 0.93610 0.10580 0.11300
C 	C 	0.55930 0.98480 0.08700 0.03600
C 	C 	0.55050 0.96350 0.10600 -0.04500
C 	C 	0.54340 0.98040 0.12670 0.10700
C 	C 	0.62800 0.92340 0.01210 0.03800
C 	C 	0.65810 0.90970 0.02460 -0.05200
C 	C 	0.68560 0.90350 0.01240 0.12000
C 	C 	0.51730 0.87830 0.03160 0.01400
C 	C 	0.53130 0.85480 0.01540 -0.02700
C 	C 	0.51840 0.82130 0.01290 0.03100
Zn	Zn	0.42430 0.68320 0.66210 1.17700
Zn	Zn	0.42420 0.82300 0.62740 1.18300
Zn	Zn	0.32620 0.78020 0.70230 1.17600
Zn	Zn	0.42350 0.92650 0.55190 1.19000
Cl	Cl	0.43870 0.77500 0.77860 -0.23800
Cl	Cl	0.34770 0.75260 0.55250 -0.21300
Cl	Cl	0.42210 0.89720 0.72810 -0.17800
Cl	Cl	0.22720 0.83030 0.62480 -0.22000
Cl	Cl	0.34140 0.95480 0.64550 -0.21000
Cl	Cl	0.46180 0.93110 0.69940 -0.12000
Cl	Cl	0.27780 0.86380 0.54740 -0.20000
Cl	Cl	0.46730 0.58720 0.58190 -0.17300
Cl	Cl	0.44700 0.96860 0.64830 -0.17700
Cl	Cl	0.40890 0.76770 0.52180 -0.19400
N 	N 	0.47290 0.67110 0.67030 -0.26100
N 	N 	0.40130 0.70690 0.68920 -0.29300
N 	N 	0.36130 0.74140 0.70470 -0.27100
N 	N 	0.42510 0.71640 0.63620 -0.28900
N 	N 	0.42700 0.77080 0.62340 -0.25500
N 	N 	0.32330 0.80790 0.73240 -0.26700
N 	N 	0.28220 0.75840 0.69510 -0.28600
N 	N 	0.38780 0.82890 0.65290 -0.26100
N 	N 	0.34490 0.81060 0.67770 -0.27900
N 	N 	0.46860 0.83790 0.63650 -0.28400
N 	N 	0.40500 0.89690 0.57410 -0.30200
N 	N 	0.40710 0.84880 0.60130 -0.28700
N 	N 	0.39700 0.64070 0.65460 -0.27000
N 	N 	0.47070 0.93500 0.56480 -0.27700
N 	N 	0.40200 0.97000 0.55120 -0.29300
N 	N 	0.42570 0.90650 0.52020 -0.28200
C 	C 	0.47910 0.64300 0.68530 0.03000
C 	C 	0.46370 0.61670 0.69930 -0.04500
C 	C 	0.48550 0.60020 0.71560 0.01500
C 	C 	0.37040 0.72140 0.68600 0.01200
C 	C 	0.41070 0.71730 0.70820 0.08600
C 	C 	0.44080 0.70830 0.72000 -0.07300
C 	C 	0.44760 0.72150 0.74240 0.02500
C 	C 	0.42410 0.74370 0.75310 0.11300
C 	C 	0.39390 0.75270 0.74130 -0.05800
C 	C 	0.38720 0.73950 0.71890 0.03300
C 	C 	0.43790 0.74990 0.64110 0.00200
C 	C 	0.40970 0.75640 0.60530 -0.00300
C 	C 	0.39380 0.76030 0.58340 -0.01700
C 	C 	0.37780 0.73230 0.57270 0.13900
C 	C 	0.37790 0.70030 0.58380 0.03000
C 	C 	0.39380 0.69630 0.60560 -0.06300
C 	C 	0.40970 0.72440 0.61640 0.09600
C 	C 	0.34480 0.83650 0.73970 0.03900
C 	C 	0.37300 0.85040 0.72690 -0.03700
C 	C 	0.38750 0.87480 0.74090 0.12000
C 	C 	0.25890 0.76790 0.67770 0.02800
C 	C 	0.25890 0.79590 0.65860 -0.03700
C 	C 	0.22850 0.79500 0.64500 0.11100
C 	C 	0.37230 0.80140 0.66500 0.02700
C 	C 	0.34150 0.84430 0.67240 0.05800
C 	C 	0.31670 0.86700 0.68090 -0.02900
C 	C 	0.31630 0.90110 0.67330 0.05200
C 	C 	0.34090 0.91250 0.65710 0.15000
C 	C 	0.36570 0.88980 0.64860 -0.03600
C 	C 	0.36600 0.85570 0.65620 0.05100
C 	C 	0.48030 0.86200 0.65490 0.03300
C 	C 	0.45980 0.88170 0.66650 -0.02900
C 	C 	0.48160 0.89820 0.68010 0.11800
C 	C 	0.42380 0.87580 0.58920 0.04000
C 	C 	0.37460 0.85360 0.59480 0.03500
C 	C 	0.34340 0.83710 0.59890 -0.03000
C 	C 	0.31440 0.84580 0.58570 0.05500
C 	C 	0.31660 0.87110 0.56840 0.13100
C 	C 	0.34790 0.88770 0.56420 -0.06500
C 	C 	0.37680 0.87900 0.57740 0.09300
C 	C 	0.40910 0.61820 0.63800 0.03000
C 	C 	0.43900 0.61630 0.61970 -0.04100
C 	C 	0.43610 0.58870 0.60580 0.11300
C 	C 	0.48480 0.94070 0.58700 0.03500
C 	C 	0.46350 0.94950 0.60600 -0.04500
C 	C 	0.48040 0.95660 0.62670 0.10700
C 	C 	0.42340 0.87200 0.51210 0.03800
C 	C 	0.40970 0.84190 0.52460 -0.05200
C 	C 	0.40350 0.81440 0.51240 0.12000
C 	C 	0.37830 0.98270 0.53160 0.01400
C 	C 	0.35480 0.96870 0.51540 -0.02700
C 	C 	0.32130 0.98160 0.51290 0.03200
Zn	Zn	0.92430 0.18320 0.16210 1.17700
Zn	Zn	0.92420 0.32300 0.12740 1.18300
Zn	Zn	0.82620 0.28020 0.20230 1.17600
Zn	Zn	0.92350 0.42650 0.05190 1.19000
Cl	Cl	0.93870 0.27500 0.27860 -0.23800
Cl	Cl	0.84770 0.25260 0.05250 -0.21300
Cl	Cl	0.92210 0.39720 0.22810 -0.17800
Cl	Cl	0.72720 0.33030 0.12480 -0.22000
Cl	Cl	0.84140 0.45480 0.14550 -0.21000
Cl	Cl	0.96180 0.43110 0.19940 -0.12000
Cl	Cl	0.77780 0.36380 0.04740 -0.20000
Cl	Cl	0.96730 0.08720 0.08190 -0.17300
Cl	Cl	0.94700 0.46860 0.14830 -0.17700
Cl	Cl	0.90890 0.26770 0.02180 -0.19400
N 	N 	0.97290 0.17110 0.17030 -0.26100
N 	N 	0.90130 0.20690 0.18920 -0.29300
N 	N 	0.86130 0.24140 0.20470 -0.27100
N 	N 	0.92510 0.21640 0.13620 -0.28900
N 	N 	0.92700 0.27080 0.12340 -0.25500
N 	N 	0.82330 0.30790 0.23240 -0.26700
N 	N 	0.78220 0.25840 0.19510 -0.28600
N 	N 	0.88780 0.32890 0.15290 -0.26100
N 	N 	0.84490 0.31060 0.17770 -0.27900
N 	N 	0.96860 0.33790 0.13650 -0.28400
N 	N 	0.90500 0.39690 0.07410 -0.30200
N 	N 	0.90710 0.34880 0.10130 -0.28700
N 	N 	0.89700 0.14070 0.15460 -0.27000
N 	N 	0.97070 0.43500 0.06480 -0.27700
N 	N 	0.90200 0.47000 0.05120 -0.29300
N 	N 	0.92570 0.40650 0.02020 -0.28200
C 	C 	0.97910 0.14300 0.18530 0.03000
C 	C 	0.96370 0.11670 0.19930 -0.04600
C 	C 	0.98550 0.10020 0.21560 0.01600
C 	C 	0.87040 0.22140 0.18600 0.01200
C 	C 	0.91070 0.21730 0.20820 0.08600
C 	C 	0.94080 0.20830 0.22000 -0.07300
C 	C 	0.94760 0.22150 0.24240 0.02500
C 	C 	0.92410 0.24370 0.25310 0.11300
C 	C 	0.89390 0.25270 0.24130 -0.05800
C 	C 	0.88720 0.23950 0.21890 0.03300
C 	C 	0.93790 0.24990 0.14110 0.00200
C 	C 	0.90970 0.25640 0.10530 -0.00300
C 	C 	0.89380 0.26030 0.08340 -0.01700
C 	C 	0.87780 0.23230 0.07270 0.13900
C 	C 	0.87790 0.20030 0.08380 0.03000
C 	C 	0.89380 0.19630 0.10560 -0.06300
C 	C 	0.90970 0.22440 0.11640 0.09600
C 	C 	0.84480 0.33650 0.23970 0.03900
C 	C 	0.87300 0.35040 0.22690 -0.03700
C 	C 	0.88750 0.37480 0.24090 0.12000
C 	C 	0.75890 0.26790 0.17770 0.02800
C 	C 	0.75890 0.29590 0.15860 -0.03700
C 	C 	0.72850 0.29500 0.14500 0.11100
C 	C 	0.87230 0.30140 0.16500 0.02700
C 	C 	0.84150 0.34430 0.17240 0.05800
C 	C 	0.81670 0.36700 0.18090 -0.02900
C 	C 	0.81630 0.40110 0.17330 0.05200
C 	C 	0.84090 0.41250 0.15710 0.15000
C 	C 	0.86570 0.38980 0.14860 -0.03600
C 	C 	0.86600 0.35570 0.15620 0.05100
C 	C 	0.98030 0.36200 0.15490 0.03300
C 	C 	0.95980 0.38170 0.16650 -0.02900
C 	C 	0.98160 0.39820 0.18010 0.11900
C 	C 	0.92380 0.37580 0.08920 0.04000
C 	C 	0.87460 0.35360 0.09480 0.03500
C 	C 	0.84340 0.33710 0.09890 -0.03000
C 	C 	0.81440 0.34580 0.08570 0.05500
C 	C 	0.81660 0.37110 0.06840 0.13100
C 	C 	0.84790 0.38770 0.06420 -0.06500
C 	C 	0.87680 0.37900 0.07740 0.09300
C 	C 	0.90910 0.11820 0.13800 0.03000
C 	C 	0.93900 0.11630 0.11970 -0.04100
C 	C 	0.93610 0.08870 0.10580 0.11300
C 	C 	0.98480 0.44070 0.08700 0.03600
C 	C 	0.96350 0.44950 0.10600 -0.04500
C 	C 	0.98040 0.45660 0.12670 0.10700
C 	C 	0.92340 0.37200 0.01210 0.03800
C 	C 	0.90970 0.34190 0.02460 -0.05200
C 	C 	0.90350 0.31440 0.01240 0.12000
C 	C 	0.87830 0.48270 0.03160 0.01400
C 	C 	0.85480 0.46870 0.01540 -0.02700
C 	C 	0.82130 0.48160 0.01290 0.03100
Zn	Zn	0.57570 0.31680 0.66210 1.17700
Zn	Zn	0.57580 0.17700 0.62740 1.18300
Zn	Zn	0.67380 0.21980 0.70230 1.17600
Zn	Zn	0.57650 0.07350 0.55190 1.19000
Cl	Cl	0.56130 0.22500 0.77860 -0.23800
Cl	Cl	0.65230 0.24740 0.55250 -0.21300
Cl	Cl	0.57790 0.10280 0.72810 -0.17800
Cl	Cl	0.77280 0.16970 0.62480 -0.22000
Cl	Cl	0.65860 0.04520 0.64550 -0.21000
Cl	Cl	0.53820 0.06890 0.69940 -0.12000
Cl	Cl	0.72220 0.13620 0.54740 -0.20000
Cl	Cl	0.53270 0.41280 0.58190 -0.17300
Cl	Cl	0.55300 0.03140 0.64830 -0.17700
Cl	Cl	0.59110 0.23230 0.52180 -0.19400
N 	N 	0.52710 0.32890 0.67030 -0.26100
N 	N 	0.59870 0.29310 0.68920 -0.29300
N 	N 	0.63870 0.25860 0.70470 -0.27100
N 	N 	0.57490 0.28360 0.63620 -0.28900
N 	N 	0.57300 0.22920 0.62340 -0.25500
N 	N 	0.67670 0.19210 0.73240 -0.26700
N 	N 	0.71780 0.24160 0.69510 -0.28600
N 	N 	0.61220 0.17110 0.65290 -0.26100
N 	N 	0.65510 0.18940 0.67770 -0.27900
N 	N 	0.53140 0.16210 0.63650 -0.28400
N 	N 	0.59500 0.10310 0.57410 -0.30200
N 	N 	0.59290 0.15120 0.60130 -0.28700
N 	N 	0.60300 0.35930 0.65460 -0.27000
N 	N 	0.52930 0.06500 0.56480 -0.27700
N 	N 	0.59800 0.03000 0.55120 -0.29300
N 	N 	0.57430 0.09350 0.52020 -0.28200
C 	C 	0.52090 0.35700 0.68530 0.03000
C 	C 	0.53630 0.38330 0.69930 -0.04500
C 	C 	0.51450 0.39980 0.71560 0.01500
C 	C 	0.62960 0.27860 0.68600 0.01200
C 	C 	0.58930 0.28270 0.70820 0.08600
C 	C 	0.55920 0.29170 0.72000 -0.07300
C 	C 	0.55240 0.27850 0.74240 0.02500
C 	C 	0.57590 0.25630 0.75310 0.11300
C 	C 	0.60610 0.24730 0.74130 -0.05800
C 	C 	0.61280 0.26050 0.71890 0.03300
C 	C 	0.56210 0.25010 0.64110 0.00200
C 	C 	0.59030 0.24360 0.60530 -0.00300
C 	C 	0.60620 0.23970 0.58340 -0.01700
C 	C 	0.62220 0.26770 0.57270 0.13900
C 	C 	0.62210 0.29970 0.58380 0.03000
C 	C 	0.60620 0.30370 0.60560 -0.06300
C 	C 	0.59030 0.27560 0.61640 0.09600
C 	C 	0.65520 0.16350 0.73970 0.03900
C 	C 	0.62700 0.14960 0.72690 -0.03700
C 	C 	0.61250 0.12520 0.74090 0.11900
C 	C 	0.74110 0.23210 0.67770 0.02800
C 	C 	0.74110 0.20410 0.65860 -0.03700
C 	C 	0.77150 0.20500 0.64500 0.11100
C 	C 	0.62770 0.19860 0.66500 0.02700
C 	C 	0.65850 0.15570 0.67240 0.05800
C 	C 	0.68330 0.13300 0.68090 -0.02900
C 	C 	0.68370 0.09890 0.67330 0.05200
C 	C 	0.65910 0.08750 0.65710 0.15000
C 	C 	0.63430 0.11020 0.64860 -0.03600
C 	C 	0.63400 0.14430 0.65620 0.05100
C 	C 	0.51970 0.13800 0.65490 0.03300
C 	C 	0.54020 0.11830 0.66650 -0.02900
C 	C 	0.51840 0.10180 0.68010 0.11800
C 	C 	0.57620 0.12420 0.58920 0.04000
C 	C 	0.62540 0.14640 0.59480 0.03500
C 	C 	0.65660 0.16290 0.59890 -0.03000
C 	C 	0.68560 0.15420 0.58570 0.05500
C 	C 	0.68340 0.12890 0.56840 0.13100
C 	C 	0.65210 0.11230 0.56420 -0.06500
C 	C 	0.62320 0.12100 0.57740 0.09300
C 	C 	0.59090 0.38180 0.63800 0.03000
C 	C 	0.56100 0.38370 0.61970 -0.04100
C 	C 	0.56390 0.41130 0.60580 0.11300
C 	C 	0.51520 0.05930 0.58700 0.03500
C 	C 	0.53650 0.05050 0.60600 -0.04500
C 	C 	0.51960 0.04340 0.62670 0.10700
C 	C 	0.57660 0.12800 0.51210 0.03800
C 	C 	0.59030 0.15810 0.52460 -0.05200
C 	C 	0.59650 0.18560 0.51240 0.12000
C 	C 	0.62170 0.01730 0.53160 0.01300
C 	C 	0.64520 0.03130 0.51540 -0.02700
C 	C 	0.67870 0.01840 0.51290 0.03100
Zn	Zn	0.07570 0.81680 0.16210 1.17700
Zn	Zn	0.07580 0.67700 0.12740 1.18300
Zn	Zn	0.17380 0.71980 0.20230 1.17600
Zn	Zn	0.07650 0.57350 0.05190 1.19000
Cl	Cl	0.06130 0.72500 0.27860 -0.23800
Cl	Cl	0.15230 0.74740 0.05250 -0.21300
Cl	Cl	0.07790 0.60280 0.22810 -0.17800
Cl	Cl	0.27280 0.66970 0.12480 -0.22000
Cl	Cl	0.15860 0.54520 0.14550 -0.21000
Cl	Cl	0.03820 0.56890 0.19940 -0.12000
Cl	Cl	0.22220 0.63620 0.04740 -0.20000
Cl	Cl	0.03270 0.91280 0.08190 -0.17400
Cl	Cl	0.05300 0.53140 0.14830 -0.17700
Cl	Cl	0.09110 0.73230 0.02180 -0.19400
N 	N 	0.02710 0.82890 0.17030 -0.26100
N 	N 	0.09870 0.79310 0.18920 -0.29300
N 	N 	0.13870 0.75860 0.20470 -0.27100
N 	N 	0.07490 0.78360 0.13620 -0.28900
N 	N 	0.07300 0.72920 0.12340 -0.25500
N 	N 	0.17670 0.69210 0.23240 -0.26700
N 	N 	0.21780 0.74160 0.19510 -0.28600
N 	N 	0.11220 0.67110 0.15290 -0.26100
N 	N 	0.15510 0.68940 0.17770 -0.27900
N 	N 	0.03140 0.66210 0.13650 -0.28400
N 	N 	0.09500 0.60310 0.07410 -0.30200
N 	N 	0.09290 0.65120 0.10130 -0.28700
N 	N 	0.10300 0.85930 0.15460 -0.27000
N 	N 	0.02930 0.56500 0.06480 -0.27700
N 	N 	0.09800 0.53000 0.05120 -0.29300
N 	N 	0.07430 0.59350 0.02020 -0.28200
C 	C 	0.02090 0.85700 0.18530 0.02900
C 	C 	0.03630 0.88330 0.19930 -0.04500
C 	C 	0.01450 0.89980 0.21560 0.01400
C 	C 	0.12960 0.77860 0.18600 0.01200
C 	C 	0.08930 0.78270 0.20820 0.08600
C 	C 	0.05920 0.79170 0.22000 -0.07300
C 	C 	0.05240 0.77850 0.24240 0.02500
C 	C 	0.07590 0.75630 0.25310 0.11300
C 	C 	0.10610 0.74730 0.24130 -0.05800
C 	C 	0.11280 0.76050 0.21890 0.03300
C 	C 	0.06210 0.75010 0.14110 0.00200
C 	C 	0.09030 0.74360 0.10530 -0.00300
C 	C 	0.10620 0.73970 0.08340 -0.01700
C 	C 	0.12220 0.76770 0.07270 0.13900
C 	C 	0.12210 0.79970 0.08380 0.03000
C 	C 	0.10620 0.80370 0.10560 -0.06300
C 	C 	0.09030 0.77560 0.11640 0.09600
C 	C 	0.15520 0.66350 0.23970 0.03900
C 	C 	0.12700 0.64960 0.22690 -0.03700
C 	C 	0.11250 0.62520 0.24090 0.11900
C 	C 	0.24110 0.73210 0.17770 0.02800
C 	C 	0.24110 0.70410 0.15860 -0.03700
C 	C 	0.27150 0.70500 0.14500 0.11100
C 	C 	0.12770 0.69860 0.16500 0.02700
C 	C 	0.15850 0.65570 0.17240 0.05800
C 	C 	0.18330 0.63300 0.18090 -0.02900
C 	C 	0.18370 0.59890 0.17330 0.05200
C 	C 	0.15910 0.58750 0.15710 0.15000
C 	C 	0.13430 0.61020 0.14860 -0.03600
C 	C 	0.13400 0.64430 0.15620 0.05100
C 	C 	0.01970 0.63800 0.15490 0.03200
C 	C 	0.04020 0.61830 0.16650 -0.02900
C 	C 	0.01840 0.60180 0.18010 0.11800
C 	C 	0.07620 0.62420 0.08920 0.04000
C 	C 	0.12540 0.64640 0.09480 0.03500
C 	C 	0.15660 0.66290 0.09890 -0.03000
C 	C 	0.18560 0.65420 0.08570 0.05500
C 	C 	0.18340 0.62890 0.06840 0.13100
C 	C 	0.15210 0.61230 0.06420 -0.06500
C 	C 	0.12320 0.62100 0.07740 0.09300
C 	C 	0.09090 0.88180 0.13800 0.03000
C 	C 	0.06100 0.88370 0.11970 -0.04100
C 	C 	0.06390 0.91130 0.10580 0.11300
C 	C 	0.01520 0.55930 0.08700 0.03400
C 	C 	0.03650 0.55050 0.10600 -0.04500
C 	C 	0.01960 0.54340 0.12670 0.10600
C 	C 	0.07660 0.62800 0.01210 0.03800
C 	C 	0.09030 0.65810 0.02460 -0.05200
C 	C 	0.09650 0.68560 0.01240 0.12000
C 	C 	0.12170 0.51730 0.03160 0.01400
C 	C 	0.14520 0.53130 0.01540 -0.02700
C 	C 	0.17870 0.51840 0.01290 0.03100
Zn	Zn	0.31680 0.57570 0.33790 1.17700
Zn	Zn	0.17700 0.57580 0.37260 1.18300
Zn	Zn	0.21980 0.67380 0.29770 1.17600
Zn	Zn	0.07350 0.57650 0.44810 1.19000
Cl	Cl	0.22500 0.56130 0.22140 -0.23800
Cl	Cl	0.24740 0.65230 0.44750 -0.21300
Cl	Cl	0.10280 0.57790 0.27190 -0.17800
Cl	Cl	0.16970 0.77280 0.37520 -0.22000
Cl	Cl	0.04520 0.65860 0.35450 -0.21000
Cl	Cl	0.06890 0.53820 0.30060 -0.12000
Cl	Cl	0.13620 0.72220 0.45260 -0.20000
Cl	Cl	0.41280 0.53270 0.41810 -0.17300
Cl	Cl	0.03140 0.55300 0.35170 -0.17700
Cl	Cl	0.23230 0.59110 0.47820 -0.19400
N 	N 	0.32890 0.52710 0.32970 -0.26100
N 	N 	0.29310 0.59870 0.31080 -0.29300
N 	N 	0.25860 0.63870 0.29530 -0.27100
N 	N 	0.28360 0.57490 0.36380 -0.28900
N 	N 	0.22920 0.57300 0.37660 -0.25500
N 	N 	0.19210 0.67670 0.26760 -0.26700
N 	N 	0.24160 0.71780 0.30490 -0.28600
N 	N 	0.17110 0.61220 0.34710 -0.26100
N 	N 	0.18940 0.65510 0.32230 -0.27900
N 	N 	0.16210 0.53140 0.36350 -0.28400
N 	N 	0.10310 0.59500 0.42590 -0.30200
N 	N 	0.15120 0.59290 0.39870 -0.28700
N 	N 	0.35930 0.60300 0.34540 -0.27000
N 	N 	0.06500 0.52930 0.43520 -0.27700
N 	N 	0.03000 0.59800 0.44880 -0.29300
N 	N 	0.09350 0.57430 0.47980 -0.28200
C 	C 	0.35700 0.52090 0.31470 0.03000
C 	C 	0.38330 0.53630 0.30070 -0.04500
C 	C 	0.39980 0.51450 0.28440 0.01500
C 	C 	0.27860 0.62960 0.31400 0.01200
C 	C 	0.28270 0.58930 0.29180 0.08600
C 	C 	0.29170 0.55920 0.28000 -0.07300
C 	C 	0.27850 0.55240 0.25760 0.02500
C 	C 	0.25630 0.57590 0.24690 0.11300
C 	C 	0.24730 0.60610 0.25870 -0.05800
C 	C 	0.26050 0.61280 0.28110 0.03300
C 	C 	0.25010 0.56210 0.35890 0.00200
C 	C 	0.24360 0.59030 0.39470 -0.00300
C 	C 	0.23970 0.60620 0.41660 -0.01700
C 	C 	0.26770 0.62220 0.42730 0.13900
C 	C 	0.29970 0.62210 0.41620 0.03000
C 	C 	0.30370 0.60620 0.39440 -0.06300
C 	C 	0.27560 0.59030 0.38360 0.09600
C 	C 	0.16350 0.65520 0.26030 0.03900
C 	C 	0.14960 0.62700 0.27310 -0.03700
C 	C 	0.12520 0.61250 0.25910 0.11900
C 	C 	0.23210 0.74110 0.32230 0.02800
C 	C 	0.20410 0.74110 0.34140 -0.03700
C 	C 	0.20500 0.77150 0.35500 0.11100
C 	C 	0.19860 0.62770 0.33500 0.02700
C 	C 	0.15570 0.65850 0.32760 0.05800
C 	C 	0.13300 0.68330 0.31910 -0.02900
C 	C 	0.09890 0.68370 0.32670 0.05200
C 	C 	0.08750 0.65910 0.34290 0.15000
C 	C 	0.11020 0.63430 0.35140 -0.03600
C 	C 	0.14430 0.63400 0.34380 0.05100
C 	C 	0.13800 0.51970 0.34510 0.03300
C 	C 	0.11830 0.54020 0.33350 -0.02900
C 	C 	0.10180 0.51840 0.31990 0.11800
C 	C 	0.12420 0.57620 0.41080 0.04000
C 	C 	0.14640 0.62540 0.40520 0.03500
C 	C 	0.16290 0.65660 0.40110 -0.03000
C 	C 	0.15420 0.68560 0.41430 0.05500
C 	C 	0.12890 0.68340 0.43160 0.13100
C 	C 	0.11230 0.65210 0.43580 -0.06500
C 	C 	0.12100 0.62320 0.42260 0.09300
C 	C 	0.38180 0.59090 0.36200 0.03000
C 	C 	0.38370 0.56100 0.38030 -0.04100
C 	C 	0.41130 0.56390 0.39420 0.11300
C 	C 	0.05930 0.51520 0.41300 0.03500
C 	C 	0.05050 0.53650 0.39400 -0.04500
C 	C 	0.04340 0.51960 0.37330 0.10700
C 	C 	0.12800 0.57660 0.48790 0.03800
C 	C 	0.15810 0.59030 0.47540 -0.05200
C 	C 	0.18560 0.59650 0.48760 0.12000
C 	C 	0.01730 0.62170 0.46840 0.01300
C 	C 	0.03130 0.64520 0.48460 -0.02700
C 	C 	0.01840 0.67870 0.48710 0.03100
Zn	Zn	0.81680 0.07570 0.83790 1.17700
Zn	Zn	0.67700 0.07580 0.87260 1.18300
Zn	Zn	0.71980 0.17380 0.79770 1.17600
Zn	Zn	0.57350 0.07650 0.94810 1.19000
Cl	Cl	0.72500 0.06130 0.72140 -0.23800
Cl	Cl	0.74740 0.15230 0.94750 -0.21300
Cl	Cl	0.60280 0.07790 0.77190 -0.17800
Cl	Cl	0.66970 0.27280 0.87520 -0.22000
Cl	Cl	0.54520 0.15860 0.85450 -0.21000
Cl	Cl	0.56890 0.03820 0.80060 -0.12000
Cl	Cl	0.63620 0.22220 0.95260 -0.20000
Cl	Cl	0.91280 0.03270 0.91810 -0.17400
Cl	Cl	0.53140 0.05300 0.85170 -0.17700
Cl	Cl	0.73230 0.09110 0.97820 -0.19400
N 	N 	0.82890 0.02710 0.82970 -0.26100
N 	N 	0.79310 0.09870 0.81080 -0.29300
N 	N 	0.75860 0.13870 0.79530 -0.27100
N 	N 	0.78360 0.07490 0.86380 -0.28900
N 	N 	0.72920 0.07300 0.87660 -0.25500
N 	N 	0.69210 0.17670 0.76760 -0.26700
N 	N 	0.74160 0.21780 0.80490 -0.28600
N 	N 	0.67110 0.11220 0.84710 -0.26100
N 	N 	0.68940 0.15510 0.82230 -0.27900
N 	N 	0.66210 0.03140 0.86350 -0.28400
N 	N 	0.60310 0.09500 0.92590 -0.30200
N 	N 	0.65120 0.09290 0.89870 -0.28700
N 	N 	0.85930 0.10300 0.84540 -0.27000
N 	N 	0.56500 0.02930 0.93520 -0.27700
N 	N 	0.53000 0.09800 0.94880 -0.29300
N 	N 	0.59350 0.07430 0.97980 -0.28200
C 	C 	0.85700 0.02090 0.81470 0.02900
C 	C 	0.88330 0.03630 0.80070 -0.04500
C 	C 	0.89980 0.01450 0.78440 0.01400
C 	C 	0.77860 0.12960 0.81400 0.01200
C 	C 	0.78270 0.08930 0.79180 0.08600
C 	C 	0.79170 0.05920 0.78000 -0.07300
C 	C 	0.77850 0.05240 0.75760 0.02500
C 	C 	0.75630 0.07590 0.74690 0.11300
C 	C 	0.74730 0.10610 0.75870 -0.05800
C 	C 	0.76050 0.11280 0.78110 0.03300
C 	C 	0.75010 0.06210 0.85890 0.00200
C 	C 	0.74360 0.09030 0.89470 -0.00300
C 	C 	0.73970 0.10620 0.91660 -0.01700
C 	C 	0.76770 0.12220 0.92730 0.13900
C 	C 	0.79970 0.12210 0.91620 0.03000
C 	C 	0.80370 0.10620 0.89440 -0.06300
C 	C 	0.77560 0.09030 0.88360 0.09600
C 	C 	0.66350 0.15520 0.76030 0.03900
C 	C 	0.64960 0.12700 0.77310 -0.03700
C 	C 	0.62520 0.11250 0.75910 0.11900
C 	C 	0.73210 0.24110 0.82230 0.02800
C 	C 	0.70410 0.24110 0.84140 -0.03700
C 	C 	0.70500 0.27150 0.85500 0.11100
C 	C 	0.69860 0.12770 0.83500 0.02700
C 	C 	0.65570 0.15850 0.82760 0.05800
C 	C 	0.63300 0.18330 0.81910 -0.02900
C 	C 	0.59890 0.18370 0.82670 0.05200
C 	C 	0.58750 0.15910 0.84290 0.15000
C 	C 	0.61020 0.13430 0.85140 -0.03600
C 	C 	0.64430 0.13400 0.84380 0.05100
C 	C 	0.63800 0.01970 0.84510 0.03200
C 	C 	0.61830 0.04020 0.83350 -0.02900
C 	C 	0.60180 0.01840 0.81990 0.11800
C 	C 	0.62420 0.07620 0.91080 0.04000
C 	C 	0.64640 0.12540 0.90520 0.03500
C 	C 	0.66290 0.15660 0.90110 -0.03000
C 	C 	0.65420 0.18560 0.91430 0.05500
C 	C 	0.62890 0.18340 0.93160 0.13100
C 	C 	0.61230 0.15210 0.93580 -0.06500
C 	C 	0.62100 0.12320 0.92260 0.09300
C 	C 	0.88180 0.09090 0.86200 0.03000
C 	C 	0.88370 0.06100 0.88030 -0.04100
C 	C 	0.91130 0.06390 0.89420 0.11300
C 	C 	0.55930 0.01520 0.91300 0.03400
C 	C 	0.55050 0.03650 0.89400 -0.04500
C 	C 	0.54340 0.01960 0.87330 0.10600
C 	C 	0.62800 0.07660 0.98790 0.03800
C 	C 	0.65810 0.09030 0.97540 -0.05200
C 	C 	0.68560 0.09650 0.98760 0.12000
C 	C 	0.51730 0.12170 0.96840 0.01400
C 	C 	0.53130 0.14520 0.98460 -0.02700
C 	C 	0.51840 0.17870 0.98710 0.03100
Zn	Zn	0.68320 0.42430 0.33790 1.17700
Zn	Zn	0.82300 0.42420 0.37260 1.18300
Zn	Zn	0.78020 0.32620 0.29770 1.17600
Zn	Zn	0.92650 0.42350 0.44810 1.19000
Cl	Cl	0.77500 0.43870 0.22140 -0.23800
Cl	Cl	0.75260 0.34770 0.44750 -0.21300
Cl	Cl	0.89720 0.42210 0.27190 -0.17800
Cl	Cl	0.83030 0.22720 0.37520 -0.22000
Cl	Cl	0.95480 0.34140 0.35450 -0.21000
Cl	Cl	0.93110 0.46180 0.30060 -0.12000
Cl	Cl	0.86380 0.27780 0.45260 -0.20000
Cl	Cl	0.58720 0.46730 0.41810 -0.17300
Cl	Cl	0.96860 0.44700 0.35170 -0.17700
Cl	Cl	0.76770 0.40890 0.47820 -0.19400
N 	N 	0.67110 0.47290 0.32970 -0.26100
N 	N 	0.70690 0.40130 0.31080 -0.29300
N 	N 	0.74140 0.36130 0.29530 -0.27100
N 	N 	0.71640 0.42510 0.36380 -0.28900
N 	N 	0.77080 0.42700 0.37660 -0.25500
N 	N 	0.80790 0.32330 0.26760 -0.26700
N 	N 	0.75840 0.28220 0.30490 -0.28600
N 	N 	0.82890 0.38780 0.34710 -0.26100
N 	N 	0.81060 0.34490 0.32230 -0.27900
N 	N 	0.83790 0.46860 0.36350 -0.28400
N 	N 	0.89690 0.40500 0.42590 -0.30200
N 	N 	0.84880 0.40710 0.39870 -0.28700
N 	N 	0.64070 0.39700 0.34540 -0.27000
N 	N 	0.93500 0.47070 0.43520 -0.27700
N 	N 	0.97000 0.40200 0.44880 -0.29300
N 	N 	0.90650 0.42570 0.47980 -0.28200
C 	C 	0.64300 0.47910 0.31470 0.03000
C 	C 	0.61670 0.46370 0.30070 -0.04500
C 	C 	0.60020 0.48550 0.28440 0.01500
C 	C 	0.72140 0.37040 0.31400 0.01200
C 	C 	0.71730 0.41070 0.29180 0.08600
C 	C 	0.70830 0.44080 0.28000 -0.07300
C 	C 	0.72150 0.44760 0.25760 0.02500
C 	C 	0.74370 0.42410 0.24690 0.11300
C 	C 	0.75270 0.39390 0.25870 -0.05800
C 	C 	0.73950 0.38720 0.28110 0.03300
C 	C 	0.74990 0.43790 0.35890 0.00200
C 	C 	0.75640 0.40970 0.39470 -0.00300
C 	C 	0.76030 0.39380 0.41660 -0.01700
C 	C 	0.73230 0.37780 0.42730 0.13900
C 	C 	0.70030 0.37790 0.41620 0.03000
C 	C 	0.69630 0.39380 0.39440 -0.06300
C 	C 	0.72440 0.40970 0.38360 0.09600
C 	C 	0.83650 0.34480 0.26030 0.03900
C 	C 	0.85040 0.37300 0.27310 -0.03700
C 	C 	0.87480 0.38750 0.25910 0.12000
C 	C 	0.76790 0.25890 0.32230 0.02800
C 	C 	0.79590 0.25890 0.34140 -0.03700
C 	C 	0.79500 0.22850 0.35500 0.11100
C 	C 	0.80140 0.37230 0.33500 0.02700
C 	C 	0.84430 0.34150 0.32760 0.05800
C 	C 	0.86700 0.31670 0.31910 -0.02900
C 	C 	0.90110 0.31630 0.32670 0.05200
C 	C 	0.91250 0.34090 0.34290 0.15000
C 	C 	0.88980 0.36570 0.35140 -0.03600
C 	C 	0.85570 0.36600 0.34380 0.05100
C 	C 	0.86200 0.48030 0.34510 0.03300
C 	C 	0.88170 0.45980 0.33350 -0.02900
C 	C 	0.89820 0.48160 0.31990 0.11800
C 	C 	0.87580 0.42380 0.41080 0.04000
C 	C 	0.85360 0.37460 0.40520 0.03500
C 	C 	0.83710 0.34340 0.40110 -0.03000
C 	C 	0.84580 0.31440 0.41430 0.05500
C 	C 	0.87110 0.31660 0.43160 0.13100
C 	C 	0.88770 0.34790 0.43580 -0.06500
C 	C 	0.87900 0.37680 0.42260 0.09300
C 	C 	0.61820 0.40910 0.36200 0.03000
C 	C 	0.61630 0.43900 0.38030 -0.04100
C 	C 	0.58870 0.43610 0.39420 0.11300
C 	C 	0.94070 0.48480 0.41300 0.03500
C 	C 	0.94950 0.46350 0.39400 -0.04500
C 	C 	0.95660 0.48040 0.37330 0.10700
C 	C 	0.87200 0.42340 0.48790 0.03800
C 	C 	0.84190 0.40970 0.47540 -0.05200
C 	C 	0.81440 0.40350 0.48760 0.12000
C 	C 	0.98270 0.37830 0.46840 0.01400
C 	C 	0.96870 0.35480 0.48460 -0.02700
C 	C 	0.98160 0.32130 0.48710 0.03200
Zn	Zn	0.18320 0.92430 0.83790 1.17700
Zn	Zn	0.32300 0.92420 0.87260 1.18300
Zn	Zn	0.28020 0.82620 0.79770 1.17600
Zn	Zn	0.42650 0.92350 0.94810 1.19000
Cl	Cl	0.27500 0.93870 0.72140 -0.23800
Cl	Cl	0.25260 0.84770 0.94750 -0.21300
Cl	Cl	0.39720 0.92210 0.77190 -0.17800
Cl	Cl	0.33030 0.72720 0.87520 -0.22000
Cl	Cl	0.45480 0.84140 0.85450 -0.21000
Cl	Cl	0.43110 0.96180 0.80060 -0.12000
Cl	Cl	0.36380 0.77780 0.95260 -0.20000
Cl	Cl	0.08720 0.96730 0.91810 -0.17300
Cl	Cl	0.46860 0.94700 0.85170 -0.17700
Cl	Cl	0.26770 0.90890 0.97820 -0.19400
N 	N 	0.17110 0.97290 0.82970 -0.26100
N 	N 	0.20690 0.90130 0.81080 -0.29300
N 	N 	0.24140 0.86130 0.79530 -0.27100
N 	N 	0.21640 0.92510 0.86380 -0.28900
N 	N 	0.27080 0.92700 0.87660 -0.25500
N 	N 	0.30790 0.82330 0.76760 -0.26700
N 	N 	0.25840 0.78220 0.80490 -0.28600
N 	N 	0.32890 0.88780 0.84710 -0.26100
N 	N 	0.31060 0.84490 0.82230 -0.27900
N 	N 	0.33790 0.96860 0.86350 -0.28400
N 	N 	0.39690 0.90500 0.92590 -0.30200
N 	N 	0.34880 0.90710 0.89870 -0.28700
N 	N 	0.14070 0.89700 0.84540 -0.27000
N 	N 	0.43500 0.97070 0.93520 -0.27700
N 	N 	0.47000 0.90200 0.94880 -0.29300
N 	N 	0.40650 0.92570 0.97980 -0.28200
C 	C 	0.14300 0.97910 0.81470 0.03000
C 	C 	0.11670 0.96370 0.80070 -0.04600
C 	C 	0.10020 0.98550 0.78440 0.01600
C 	C 	0.22140 0.87040 0.81400 0.01200
C 	C 	0.21730 0.91070 0.79180 0.08600
C 	C 	0.20830 0.94080 0.78000 -0.07300
C 	C 	0.22150 0.94760 0.75760 0.02500
C 	C 	0.24370 0.92410 0.74690 0.11300
C 	C 	0.25270 0.89390 0.75870 -0.05800
C 	C 	0.23950 0.88720 0.78110 0.03300
C 	C 	0.24990 0.93790 0.85890 0.00200
C 	C 	0.25640 0.90970 0.89470 -0.00300
C 	C 	0.26030 0.89380 0.91660 -0.01700
C 	C 	0.23230 0.87780 0.92730 0.13900
C 	C 	0.20030 0.87790 0.91620 0.03000
C 	C 	0.19630 0.89380 0.89440 -0.06300
C 	C 	0.22440 0.90970 0.88360 0.09600
C 	C 	0.33650 0.84480 0.76030 0.03900
C 	C 	0.35040 0.87300 0.77310 -0.03700
C 	C 	0.37480 0.88750 0.75910 0.12000
C 	C 	0.26790 0.75890 0.82230 0.02800
C 	C 	0.29590 0.75890 0.84140 -0.03700
C 	C 	0.29500 0.72850 0.85500 0.11100
C 	C 	0.30140 0.87230 0.83500 0.02700
C 	C 	0.34430 0.84150 0.82760 0.05800
C 	C 	0.36700 0.81670 0.81910 -0.02900
C 	C 	0.40110 0.81630 0.82670 0.05200
C 	C 	0.41250 0.84090 0.84290 0.15000
C 	C 	0.38980 0.86570 0.85140 -0.03600
C 	C 	0.35570 0.86600 0.84380 0.05100
C 	C 	0.36200 0.98030 0.84510 0.03300
C 	C 	0.38170 0.95980 0.83350 -0.02900
C 	C 	0.39820 0.98160 0.81990 0.11900
C 	C 	0.37580 0.92380 0.91080 0.04000
C 	C 	0.35360 0.87460 0.90520 0.03500
C 	C 	0.33710 0.84340 0.90110 -0.03000
C 	C 	0.34580 0.81440 0.91430 0.05500
C 	C 	0.37110 0.81660 0.93160 0.13100
C 	C 	0.38770 0.84790 0.93580 -0.06500
C 	C 	0.37900 0.87680 0.92260 0.09300
C 	C 	0.11820 0.90910 0.86200 0.03000
C 	C 	0.11630 0.93900 0.88030 -0.04100
C 	C 	0.08870 0.93610 0.89420 0.11300
C 	C 	0.44070 0.98480 0.91300 0.03600
C 	C 	0.44950 0.96350 0.89400 -0.04500
C 	C 	0.45660 0.98040 0.87330 0.10700
C 	C 	0.37200 0.92340 0.98790 0.03800
C 	C 	0.34190 0.90970 0.97540 -0.05200
C 	C 	0.31440 0.90350 0.98760 0.12000
C 	C 	0.48270 0.87830 0.96840 0.01400
C 	C 	0.46870 0.85480 0.98460 -0.02700
C 	C 	0.48160 0.82130 0.98710 0.03100
Zn	Zn	0.57570 0.68320 0.33790 1.17700
Zn	Zn	0.57580 0.82300 0.37260 1.18300
Zn	Zn	0.67380 0.78020 0.29770 1.17600
Zn	Zn	0.57650 0.92650 0.44810 1.19000
Cl	Cl	0.56130 0.77500 0.22140 -0.23800
Cl	Cl	0.65230 0.75260 0.44750 -0.21300
Cl	Cl	0.57790 0.89720 0.27190 -0.17800
Cl	Cl	0.77280 0.83030 0.37520 -0.22000
Cl	Cl	0.65860 0.95480 0.35450 -0.21000
Cl	Cl	0.53820 0.93110 0.30060 -0.12000
Cl	Cl	0.72220 0.86380 0.45260 -0.20000
Cl	Cl	0.53270 0.58720 0.41810 -0.17300
Cl	Cl	0.55300 0.96860 0.35170 -0.17700
Cl	Cl	0.59110 0.76770 0.47820 -0.19400
N 	N 	0.52710 0.67110 0.32970 -0.26100
N 	N 	0.59870 0.70690 0.31080 -0.29300
N 	N 	0.63870 0.74140 0.29530 -0.27100
N 	N 	0.57490 0.71640 0.36380 -0.28900
N 	N 	0.57300 0.77080 0.37660 -0.25500
N 	N 	0.67670 0.80790 0.26760 -0.26700
N 	N 	0.71780 0.75840 0.30490 -0.28600
N 	N 	0.61220 0.82890 0.34710 -0.26100
N 	N 	0.65510 0.81060 0.32230 -0.27900
N 	N 	0.53140 0.83790 0.36350 -0.28400
N 	N 	0.59500 0.89690 0.42590 -0.30200
N 	N 	0.59290 0.84880 0.39870 -0.28700
N 	N 	0.60300 0.64070 0.34540 -0.27000
N 	N 	0.52930 0.93500 0.43520 -0.27700
N 	N 	0.59800 0.97000 0.44880 -0.29300
N 	N 	0.57430 0.90650 0.47980 -0.28200
C 	C 	0.52090 0.64300 0.31470 0.03000
C 	C 	0.53630 0.61670 0.30070 -0.04500
C 	C 	0.51450 0.60020 0.28440 0.01500
C 	C 	0.62960 0.72140 0.31400 0.01200
C 	C 	0.58930 0.71730 0.29180 0.08600
C 	C 	0.55920 0.70830 0.28000 -0.07300
C 	C 	0.55240 0.72150 0.25760 0.02500
C 	C 	0.57590 0.74370 0.24690 0.11300
C 	C 	0.60610 0.75270 0.25870 -0.05800
C 	C 	0.61280 0.73950 0.28110 0.03300
C 	C 	0.56210 0.74990 0.35890 0.00200
C 	C 	0.59030 0.75640 0.39470 -0.00300
C 	C 	0.60620 0.76030 0.41660 -0.01700
C 	C 	0.62220 0.73230 0.42730 0.13900
C 	C 	0.62210 0.70030 0.41620 0.03000
C 	C 	0.60620 0.69630 0.39440 -0.06300
C 	C 	0.59030 0.72440 0.38360 0.09600
C 	C 	0.65520 0.83650 0.26030 0.03900
C 	C 	0.62700 0.85040 0.27310 -0.03700
C 	C 	0.61250 0.87480 0.25910 0.12000
C 	C 	0.74110 0.76790 0.32230 0.02800
C 	C 	0.74110 0.79590 0.34140 -0.03700
C 	C 	0.77150 0.79500 0.35500 0.11100
C 	C 	0.62770 0.80140 0.33500 0.02700
C 	C 	0.65850 0.84430 0.32760 0.05800
C 	C 	0.68330 0.86700 0.31910 -0.02900
C 	C 	0.68370 0.90110 0.32670 0.05200
C 	C 	0.65910 0.91250 0.34290 0.15000
C 	C 	0.63430 0.88980 0.35140 -0.03600
C 	C 	0.63400 0.85570 0.34380 0.05100
C 	C 	0.51970 0.86200 0.34510 0.03300
C 	C 	0.54020 0.88170 0.33350 -0.02900
C 	C 	0.51840 0.89820 0.31990 0.11800
C 	C 	0.57620 0.87580 0.41080 0.04000
C 	C 	0.62540 0.85360 0.40520 0.03500
C 	C 	0.65660 0.83710 0.40110 -0.03000
C 	C 	0.68560 0.84580 0.41430 0.05500
C 	C 	0.68340 0.87110 0.43160 0.13100
C 	C 	0.65210 0.88770 0.43580 -0.06500
C 	C 	0.62320 0.87900 0.42260 0.09300
C 	C 	0.59090 0.61820 0.36200 0.03000
C 	C 	0.56100 0.61630 0.38030 -0.04100
C 	C 	0.56390 0.58870 0.39420 0.11300
C 	C 	0.51520 0.94070 0.41300 0.03500
C 	C 	0.53650 0.94950 0.39400 -0.04500
C 	C 	0.51960 0.95660 0.37330 0.10700
C 	C 	0.57660 0.87200 0.48790 0.03800
C 	C 	0.59030 0.84190 0.47540 -0.05200
C 	C 	0.59650 0.81440 0.48760 0.12000
C 	C 	0.62170 0.98270 0.46840 0.01400
C 	C 	0.64520 0.96870 0.48460 -0.02700
C 	C 	0.67870 0.98160 0.48710 0.03200
Zn	Zn	0.07570 0.18320 0.83790 1.17700
Zn	Zn	0.07580 0.32300 0.87260 1.18300
Zn	Zn	0.17380 0.28020 0.79770 1.17600
Zn	Zn	0.07650 0.42650 0.94810 1.19000
Cl	Cl	0.06130 0.27500 0.72140 -0.23800
Cl	Cl	0.15230 0.25260 0.94750 -0.21300
Cl	Cl	0.07790 0.39720 0.77190 -0.17800
Cl	Cl	0.27280 0.33030 0.87520 -0.22000
Cl	Cl	0.15860 0.45480 0.85450 -0.21000
Cl	Cl	0.03820 0.43110 0.80060 -0.12000
Cl	Cl	0.22220 0.36380 0.95260 -0.20000
Cl	Cl	0.03270 0.08720 0.91810 -0.17400
Cl	Cl	0.05300 0.46860 0.85170 -0.17700
Cl	Cl	0.09110 0.26770 0.97820 -0.19400
N 	N 	0.02710 0.17110 0.82970 -0.26100
N 	N 	0.09870 0.20690 0.81080 -0.29300
N 	N 	0.13870 0.24140 0.79530 -0.27100
N 	N 	0.07490 0.21640 0.86380 -0.28900
N 	N 	0.07300 0.27080 0.87660 -0.25500
N 	N 	0.17670 0.30790 0.76760 -0.26700
N 	N 	0.21780 0.25840 0.80490 -0.28600
N 	N 	0.11220 0.32890 0.84710 -0.26100
N 	N 	0.15510 0.31060 0.82230 -0.27900
N 	N 	0.03140 0.33790 0.86350 -0.28400
N 	N 	0.09500 0.39690 0.92590 -0.30200
N 	N 	0.09290 0.34880 0.89870 -0.28700
N 	N 	0.10300 0.14070 0.84540 -0.27000
N 	N 	0.02930 0.43500 0.93520 -0.27700
N 	N 	0.09800 0.47000 0.94880 -0.29300
N 	N 	0.07430 0.40650 0.97980 -0.28200
C 	C 	0.02090 0.14300 0.81470 0.02900
C 	C 	0.03630 0.11670 0.80070 -0.04500
C 	C 	0.01450 0.10020 0.78440 0.01400
C 	C 	0.12960 0.22140 0.81400 0.01200
C 	C 	0.08930 0.21730 0.79180 0.08600
C 	C 	0.05920 0.20830 0.78000 -0.07300
C 	C 	0.05240 0.22150 0.75760 0.02500
C 	C 	0.07590 0.24370 0.74690 0.11300
C 	C 	0.10610 0.25270 0.75870 -0.05800
C 	C 	0.11280 0.23950 0.78110 0.03300
C 	C 	0.06210 0.24990 0.85890 0.00200
C 	C 	0.09030 0.25640 0.89470 -0.00300
C 	C 	0.10620 0.26030 0.91660 -0.01700
C 	C 	0.12220 0.23230 0.92730 0.13900
C 	C 	0.12210 0.20030 0.91620 0.03000
C 	C 	0.10620 0.19630 0.89440 -0.06300
C 	C 	0.09030 0.22440 0.88360 0.09600
C 	C 	0.15520 0.33650 0.76030 0.03900
C 	C 	0.12700 0.35040 0.77310 -0.03700
C 	C 	0.11250 0.37480 0.75910 0.11900
C 	C 	0.24110 0.26790 0.82230 0.02800
C 	C 	0.24110 0.29590 0.84140 -0.03700
C 	C 	0.27150 0.29500 0.85500 0.11100
C 	C 	0.12770 0.30140 0.83500 0.02700
C 	C 	0.15850 0.34430 0.82760 0.05800
C 	C 	0.18330 0.36700 0.81910 -0.02900
C 	C 	0.18370 0.40110 0.82670 0.05200
C 	C 	0.15910 0.41250 0.84290 0.15000
C 	C 	0.13430 0.38980 0.85140 -0.03600
C 	C 	0.13400 0.35570 0.84380 0.05100
C 	C 	0.01970 0.36200 0.84510 0.03200
C 	C 	0.04020 0.38170 0.83350 -0.02900
C 	C 	0.01840 0.39820 0.81990 0.11800
C 	C 	0.07620 0.37580 0.91080 0.04000
C 	C 	0.12540 0.35360 0.90520 0.03500
C 	C 	0.15660 0.33710 0.90110 -0.03000
C 	C 	0.18560 0.34580 0.91430 0.05500
C 	C 	0.18340 0.37110 0.93160 0.13100
C 	C 	0.15210 0.38770 0.93580 -0.06500
C 	C 	0.12320 0.37900 0.92260 0.09300
C 	C 	0.09090 0.11820 0.86200 0.03000
C 	C 	0.06100 0.11630 0.88030 -0.04100
C 	C 	0.06390 0.08870 0.89420 0.11300
C 	C 	0.01520 0.44070 0.91300 0.03400
C 	C 	0.03650 0.44950 0.89400 -0.04500
C 	C 	0.01960 0.45660 0.87330 0.10600
C 	C 	0.07660 0.37200 0.98790 0.03800
C 	C 	0.09030 0.34190 0.97540 -0.05200
C 	C 	0.09650 0.31440 0.98760 0.12000
C 	C 	0.12170 0.48270 0.96840 0.01400
C 	C 	0.14520 0.46870 0.98460 -0.02700
C 	C 	0.17870 0.48160 0.98710 0.03100
Zn	Zn	0.42430 0.31680 0.33790 1.17700
Zn	Zn	0.42420 0.17700 0.37260 1.18300
Zn	Zn	0.32620 0.21980 0.29770 1.17600
Zn	Zn	0.42350 0.07350 0.44810 1.19000
Cl	Cl	0.43870 0.22500 0.22140 -0.23800
Cl	Cl	0.34770 0.24740 0.44750 -0.21300
Cl	Cl	0.42210 0.10280 0.27190 -0.17800
Cl	Cl	0.22720 0.16970 0.37520 -0.22000
Cl	Cl	0.34140 0.04520 0.35450 -0.21000
Cl	Cl	0.46180 0.06890 0.30060 -0.12000
Cl	Cl	0.27780 0.13620 0.45260 -0.20000
Cl	Cl	0.46730 0.41280 0.41810 -0.17300
Cl	Cl	0.44700 0.03140 0.35170 -0.17700
Cl	Cl	0.40890 0.23230 0.47820 -0.19400
N 	N 	0.47290 0.32890 0.32970 -0.26100
N 	N 	0.40130 0.29310 0.31080 -0.29300
N 	N 	0.36130 0.25860 0.29530 -0.27100
N 	N 	0.42510 0.28360 0.36380 -0.28900
N 	N 	0.42700 0.22920 0.37660 -0.25500
N 	N 	0.32330 0.19210 0.26760 -0.26700
N 	N 	0.28220 0.24160 0.30490 -0.28600
N 	N 	0.38780 0.17110 0.34710 -0.26100
N 	N 	0.34490 0.18940 0.32230 -0.27900
N 	N 	0.46860 0.16210 0.36350 -0.28400
N 	N 	0.40500 0.10310 0.42590 -0.30200
N 	N 	0.40710 0.15120 0.39870 -0.28700
N 	N 	0.39700 0.35930 0.34540 -0.27000
N 	N 	0.47070 0.06500 0.43520 -0.27700
N 	N 	0.40200 0.03000 0.44880 -0.29300
N 	N 	0.42570 0.09350 0.47980 -0.28200
C 	C 	0.47910 0.35700 0.31470 0.03000
C 	C 	0.46370 0.38330 0.30070 -0.04500
C 	C 	0.48550 0.39980 0.28440 0.01500
C 	C 	0.37040 0.27860 0.31400 0.01200
C 	C 	0.41070 0.28270 0.29180 0.08600
C 	C 	0.44080 0.29170 0.28000 -0.07300
C 	C 	0.44760 0.27850 0.25760 0.02500
C 	C 	0.42410 0.25630 0.24690 0.11300
C 	C 	0.39390 0.24730 0.25870 -0.05800
C 	C 	0.38720 0.26050 0.28110 0.03300
C 	C 	0.43790 0.25010 0.35890 0.00200
C 	C 	0.40970 0.24360 0.39470 -0.00300
C 	C 	0.39380 0.23970 0.41660 -0.01700
C 	C 	0.37780 0.26770 0.42730 0.13900
C 	C 	0.37790 0.29970 0.41620 0.03000
C 	C 	0.39380 0.30370 0.39440 -0.06300
C 	C 	0.40970 0.27560 0.38360 0.09600
C 	C 	0.34480 0.16350 0.26030 0.03900
C 	C 	0.37300 0.14960 0.27310 -0.03700
C 	C 	0.38750 0.12520 0.25910 0.11900
C 	C 	0.25890 0.23210 0.32230 0.02800
C 	C 	0.25890 0.20410 0.34140 -0.03700
C 	C 	0.22850 0.20500 0.35500 0.11100
C 	C 	0.37230 0.19860 0.33500 0.02700
C 	C 	0.34150 0.15570 0.32760 0.05800
C 	C 	0.31670 0.13300 0.31910 -0.02900
C 	C 	0.31630 0.09890 0.32670 0.05200
C 	C 	0.34090 0.08750 0.34290 0.15000
C 	C 	0.36570 0.11020 0.35140 -0.03600
C 	C 	0.36600 0.14430 0.34380 0.05100
C 	C 	0.48030 0.13800 0.34510 0.03300
C 	C 	0.45980 0.11830 0.33350 -0.02900
C 	C 	0.48160 0.10180 0.31990 0.11800
C 	C 	0.42380 0.12420 0.41080 0.04000
C 	C 	0.37460 0.14640 0.40520 0.03500
C 	C 	0.34340 0.16290 0.40110 -0.03000
C 	C 	0.31440 0.15420 0.41430 0.05500
C 	C 	0.31660 0.12890 0.43160 0.13100
C 	C 	0.34790 0.11230 0.43580 -0.06500
C 	C 	0.37680 0.12100 0.42260 0.09300
C 	C 	0.40910 0.38180 0.36200 0.03000
C 	C 	0.43900 0.38370 0.38030 -0.04100
C 	C 	0.43610 0.41130 0.39420 0.11300
C 	C 	0.48480 0.05930 0.41300 0.03500
C 	C 	0.46350 0.05050 0.39400 -0.04500
C 	C 	0.48040 0.04340 0.37330 0.10700
C 	C 	0.42340 0.12800 0.48790 0.03800
C 	C 	0.40970 0.15810 0.47540 -0.05200
C 	C 	0.40350 0.18560 0.48760 0.12000
C 	C 	0.37830 0.01730 0.46840 0.01300
C 	C 	0.35480 0.03130 0.48460 -0.02700
C 	C 	0.32130 0.01840 0.48710 0.03100
Zn	Zn	0.92430 0.81680 0.83790 1.17700
Zn	Zn	0.92420 0.67700 0.87260 1.18300
Zn	Zn	0.82620 0.71980 0.79770 1.17600
Zn	Zn	0.92350 0.57350 0.94810 1.19000
Cl	Cl	0.93870 0.72500 0.72140 -0.23700
Cl	Cl	0.84770 0.74740 0.94750 -0.21300
Cl	Cl	0.92210 0.60280 0.77190 -0.17800
Cl	Cl	0.72720 0.66970 0.87520 -0.22000
Cl	Cl	0.84140 0.54520 0.85450 -0.21000
Cl	Cl	0.96180 0.56890 0.80060 -0.12000
Cl	Cl	0.77780 0.63620 0.95260 -0.20000
Cl	Cl	0.96730 0.91280 0.91810 -0.17300
Cl	Cl	0.94700 0.53140 0.85170 -0.17700
Cl	Cl	0.90890 0.73230 0.97820 -0.19400
N 	N 	0.97290 0.82890 0.82970 -0.26100
N 	N 	0.90130 0.79310 0.81080 -0.29300
N 	N 	0.86130 0.75860 0.79530 -0.27100
N 	N 	0.92510 0.78360 0.86380 -0.28900
N 	N 	0.92700 0.72920 0.87660 -0.25500
N 	N 	0.82330 0.69210 0.76760 -0.26700
N 	N 	0.78220 0.74160 0.80490 -0.28600
N 	N 	0.88780 0.67110 0.84710 -0.26100
N 	N 	0.84490 0.68940 0.82230 -0.27900
N 	N 	0.96860 0.66210 0.86350 -0.28400
N 	N 	0.90500 0.60310 0.92590 -0.30200
N 	N 	0.90710 0.65120 0.89870 -0.28700
N 	N 	0.89700 0.85930 0.84540 -0.27000
N 	N 	0.97070 0.56500 0.93520 -0.27700
N 	N 	0.90200 0.53000 0.94880 -0.29300
N 	N 	0.92570 0.59350 0.97980 -0.28200
C 	C 	0.97910 0.85700 0.81470 0.03000
C 	C 	0.96370 0.88330 0.80070 -0.04500
C 	C 	0.98550 0.89980 0.78440 0.01600
C 	C 	0.87040 0.77860 0.81400 0.01200
C 	C 	0.91070 0.78270 0.79180 0.08600
C 	C 	0.94080 0.79170 0.78000 -0.07300
C 	C 	0.94760 0.77850 0.75760 0.02500
C 	C 	0.92410 0.75630 0.74690 0.11300
C 	C 	0.89390 0.74730 0.75870 -0.05800
C 	C 	0.88720 0.76050 0.78110 0.03300
C 	C 	0.93790 0.75010 0.85890 0.00200
C 	C 	0.90970 0.74360 0.89470 -0.00300
C 	C 	0.89380 0.73970 0.91660 -0.01700
C 	C 	0.87780 0.76770 0.92730 0.13900
C 	C 	0.87790 0.79970 0.91620 0.03000
C 	C 	0.89380 0.80370 0.89440 -0.06300
C 	C 	0.90970 0.77560 0.88360 0.09600
C 	C 	0.84480 0.66350 0.76030 0.03900
C 	C 	0.87300 0.64960 0.77310 -0.03700
C 	C 	0.88750 0.62520 0.75910 0.11900
C 	C 	0.75890 0.73210 0.82230 0.02800
C 	C 	0.75890 0.70410 0.84140 -0.03700
C 	C 	0.72850 0.70500 0.85500 0.11100
C 	C 	0.87230 0.69860 0.83500 0.02700
C 	C 	0.84150 0.65570 0.82760 0.05800
C 	C 	0.81670 0.63300 0.81910 -0.02900
C 	C 	0.81630 0.59890 0.82670 0.05200
C 	C 	0.84090 0.58750 0.84290 0.15000
C 	C 	0.86570 0.61020 0.85140 -0.03600
C 	C 	0.86600 0.64430 0.84380 0.05100
C 	C 	0.98030 0.63800 0.84510 0.03300
C 	C 	0.95980 0.61830 0.83350 -0.02900
C 	C 	0.98160 0.60180 0.81990 0.11900
C 	C 	0.92380 0.62420 0.91080 0.04000
C 	C 	0.87460 0.64640 0.90520 0.03500
C 	C 	0.84340 0.66290 0.90110 -0.03000
C 	C 	0.81440 0.65420 0.91430 0.05500
C 	C 	0.81660 0.62890 0.93160 0.13100
C 	C 	0.84790 0.61230 0.93580 -0.06500
C 	C 	0.87680 0.62100 0.92260 0.09300
C 	C 	0.90910 0.88180 0.86200 0.03000
C 	C 	0.93900 0.88370 0.88030 -0.04100
C 	C 	0.93610 0.91130 0.89420 0.11300
C 	C 	0.98480 0.55930 0.91300 0.03600
C 	C 	0.96350 0.55050 0.89400 -0.04500
C 	C 	0.98040 0.54340 0.87330 0.10700
C 	C 	0.92340 0.62800 0.98790 0.03800
C 	C 	0.90970 0.65810 0.97540 -0.05200
C 	C 	0.90350 0.68560 0.98760 0.12000
C 	C 	0.87830 0.51730 0.96840 0.01400
C 	C 	0.85480 0.53130 0.98460 -0.02700
C 	C 	0.82130 0.51840 0.98710 0.03100
C 	C 	0.27150 0.27150 0.29580 0.02300
C 	C 	0.36950 0.36950 0.33360 0.04000
C 	C 	0.77150 0.77150 0.79580 0.02300
C 	C 	0.86950 0.86950 0.83360 0.04000
C 	C 	0.72850 0.72850 0.29580 0.02300
C 	C 	0.63050 0.63050 0.33360 0.04000
C 	C 	0.22850 0.22850 0.79580 0.02300
C 	C 	0.13050 0.13050 0.83360 0.04000
C 	C 	0.72850 0.27150 0.29580 0.02300
C 	C 	0.63050 0.36950 0.33360 0.04000
C 	C 	0.22850 0.77150 0.79580 0.02300
C 	C 	0.13050 0.86950 0.83360 0.04000
C 	C 	0.27150 0.72850 0.29580 0.02300
C 	C 	0.36950 0.63050 0.33360 0.04000
C 	C 	0.77150 0.22850 0.79580 0.02300
C 	C 	0.86950 0.13050 0.83360 0.04000
C 	C 	0.72850 0.27150 0.70420 0.02300
C 	C 	0.63050 0.36950 0.66640 0.04000
C 	C 	0.22850 0.77150 0.20420 0.02300
C 	C 	0.13050 0.86950 0.16640 0.04000
C 	C 	0.27150 0.72850 0.70420 0.02300
C 	C 	0.36950 0.63050 0.66640 0.04000
C 	C 	0.77150 0.22850 0.20420 0.02300
C 	C 	0.86950 0.13050 0.16640 0.04000
C 	C 	0.27150 0.27150 0.70420 0.02300
C 	C 	0.36950 0.36950 0.66640 0.04000
C 	C 	0.77150 0.77150 0.20420 0.02300
C 	C 	0.86950 0.86950 0.16640 0.04000
C 	C 	0.72850 0.72850 0.70420 0.02300
C 	C 	0.63050 0.63050 0.66640 0.04000
C 	C 	0.22850 0.22850 0.20420 0.02300
C 	C 	0.13050 0.13050 0.16640 0.04000
C 	C 	0.31110 0.50000 0.33990 0.02100
C 	C 	0.17580 0.50000 0.37340 0.00400
C 	C 	0.06980 0.50000 0.44660 0.02500
C 	C 	0.81110 0.00000 0.83990 0.02000
C 	C 	0.67580 0.00000 0.87340 0.00400
C 	C 	0.56980 0.00000 0.94660 0.02400
C 	C 	0.68890 0.50000 0.33990 0.02100
C 	C 	0.82420 0.50000 0.37340 0.00400
C 	C 	0.93020 0.50000 0.44660 0.02500
C 	C 	0.18890 0.00000 0.83990 0.02000
C 	C 	0.32420 0.00000 0.87340 0.00400
C 	C 	0.43020 0.00000 0.94660 0.02400
C 	C 	0.50000 0.31110 0.33990 0.02100
C 	C 	0.50000 0.17580 0.37340 0.00400
C 	C 	0.50000 0.06980 0.44660 0.02500
C 	C 	0.00000 0.81110 0.83990 0.02000
C 	C 	0.00000 0.67580 0.87340 0.00400
C 	C 	0.00000 0.56980 0.94660 0.02400
C 	C 	0.50000 0.68890 0.33990 0.02100
C 	C 	0.50000 0.82420 0.37340 0.00400
C 	C 	0.50000 0.93020 0.44660 0.02500
C 	C 	0.00000 0.18890 0.83990 0.02000
C 	C 	0.00000 0.32420 0.87340 0.00400
C 	C 	0.00000 0.43020 0.94660 0.02400
C 	C 	0.68890 0.50000 0.66010 0.02100
C 	C 	0.82420 0.50000 0.62660 0.00400
C 	C 	0.93020 0.50000 0.55340 0.02500
C 	C 	0.18890 0.00000 0.16010 0.02000
C 	C 	0.32420 0.00000 0.12660 0.00400
C 	C 	0.43020 0.00000 0.05340 0.02400
C 	C 	0.31110 0.50000 0.66010 0.02100
C 	C 	0.17580 0.50000 0.62660 0.00400
C 	C 	0.06980 0.50000 0.55340 0.02500
C 	C 	0.81110 0.00000 0.16010 0.02000
C 	C 	0.67580 0.00000 0.12660 0.00400
C 	C 	0.56980 0.00000 0.05340 0.02400
C 	C 	0.50000 0.31110 0.66010 0.02100
C 	C 	0.50000 0.17580 0.62660 0.00400
C 	C 	0.50000 0.06980 0.55340 0.02500
C 	C 	-0.00000 0.81110 0.16010 0.02000
C 	C 	0.00000 0.67580 0.12660 0.00400
C 	C 	0.00000 0.56980 0.05340 0.02400
C 	C 	0.50000 0.68890 0.66010 0.02100
C 	C 	0.50000 0.82420 0.62660 0.00400
C 	C 	0.50000 0.93020 0.55340 0.02500
C 	C 	0.00000 0.18890 0.16010 0.02000
C 	C 	0.00000 0.32420 0.12660 0.00400
C 	C 	0.00000 0.43020 0.05340 0.02400
C 	C 	0.19820 0.30180 0.25000 0.04100
C 	C 	0.80180 0.69820 0.25000 0.04100
C 	C 	0.69820 0.19820 0.25000 0.04100
C 	C 	0.30180 0.80180 0.25000 0.04100
C 	C 	0.80180 0.30180 0.75000 0.04100
C 	C 	0.19820 0.69820 0.75000 0.04100
C 	C 	0.30180 0.19820 0.75000 0.04100
C 	C 	0.69820 0.80180 0.75000 0.04100
C 	C 	0.80180 0.69820 0.75000 0.04100
C 	C 	0.30180 0.19820 0.25000 0.04100
C 	C 	0.19820 0.30180 0.75000 0.04100
C 	C 	0.30180 0.80180 0.75000 0.04100
C 	C 	0.69820 0.19820 0.75000 0.04100
C 	C 	0.19820 0.69820 0.25000 0.04100
C 	C 	0.80180 0.30180 0.25000 0.04100
C 	C 	0.69820 0.80180 0.25000 0.04100
C 	C 	0.07570 0.42780 0.50000 0.02700
C 	C 	0.57570 0.92780 -0.00000 0.02700
C 	C 	0.92430 0.57220 0.50000 0.02700
C 	C 	0.42430 0.07220 -0.00000 0.02700
C 	C 	0.57220 0.07570 0.50000 0.02700
C 	C 	0.07220 0.57570 -0.00000 0.02700
C 	C 	0.42780 0.92430 0.50000 0.02700
C 	C 	0.92780 0.42430 -0.00000 0.02700
C 	C 	0.92430 0.42780 0.50000 0.02700
C 	C 	0.42430 0.92780 -0.00000 0.02700
C 	C 	0.07570 0.57220 0.50000 0.02700
C 	C 	0.57570 0.07220 -0.00000 0.02700
C 	C 	0.42780 0.07570 0.50000 0.02700
C 	C 	0.92780 0.57570 -0.00000 0.02700
C 	C 	0.57220 0.92430 0.50000 0.02700
C 	C 	0.07220 0.42430 -0.00000 0.02700
C 	C 	-0.00000 0.41420 0.44270 0.08500
C 	C 	0.50000 0.91420 0.94270 0.08500
C 	C 	0.00000 0.58580 0.44270 0.08500
C 	C 	0.50000 0.08580 0.94270 0.08500
C 	C 	0.58580 0.00000 0.44270 0.08500
C 	C 	0.08580 0.50000 0.94270 0.08500
C 	C 	0.41420 0.00000 0.44270 0.08500
C 	C 	0.91420 0.50000 0.94270 0.08500
C 	C 	-0.00000 0.41420 0.55730 0.08500
C 	C 	0.50000 0.91420 0.05730 0.08500
C 	C 	0.00000 0.58580 0.55730 0.08500
C 	C 	0.50000 0.08580 0.05730 0.08500
C 	C 	0.41420 0.00000 0.55730 0.08500
C 	C 	0.91420 0.50000 0.05730 0.08500
C 	C 	0.58580 0.00000 0.55730 0.08500
C 	C 	0.08580 0.50000 0.05730 0.08500
