data_crystal

_cell_length_a 17.10000
_cell_length_b 13.30300
_cell_length_c 7.29700
_cell_angle_alpha 90.00000
_cell_angle_beta  90.00000
_cell_angle_gamma 90.00000

_symmetry_space_group_name_	'P 1'
_symmetry_space_group_name_H-M	'P 1'

loop_
_symmetry_equiv_pos_as_xyz
  x,y,z

loop_
_atom_site_label
_atom_site_type_symbol
_atom_site_fract_x
_atom_site_fract_y
_atom_site_fract_z
_atom_site_charge
C 	C 	0.61150 0.46840 0.76700 -0.58600
H 	H 	0.58280 0.48970 0.87620 0.17700
H 	H 	0.66780 0.46850 0.79280 0.15800
H 	H 	0.59500 0.40050 0.73170 0.17700
C 	C 	0.59550 0.53680 0.61900 0.21400
C 	C 	0.53340 0.53580 0.49300 -0.14300
C 	C 	0.54570 0.61520 0.37400 0.22600
C 	C 	0.50260 0.65200 0.21500 -0.58800
H 	H 	0.50500 0.72520 0.21070 0.18200
H 	H 	0.44800 0.63010 0.22310 0.17900
H 	H 	0.52600 0.62410 0.10270 0.17600
N 	N 	0.64480 0.61360 0.57830 -0.23600
N 	N 	0.61220 0.65880 0.42990 -0.19700
H 	H 	0.63280 0.71160 0.37570 0.08400
C 	C 	0.11150 0.96840 0.26700 -0.58500
H 	H 	0.08280 0.98970 0.37620 0.17400
H 	H 	0.16780 0.96850 0.29280 0.15600
H 	H 	0.09500 0.90050 0.23170 0.17500
C 	C 	0.09550 0.03680 0.11900 0.21200
C 	C 	0.03340 0.03580 0.99300 -0.14000
C 	C 	0.04570 0.11520 0.87400 0.22600
C 	C 	0.00260 0.15200 0.71500 -0.58600
H 	H 	0.00500 0.22520 0.71070 0.18200
H 	H 	0.94800 0.13010 0.72310 0.17800
H 	H 	0.02600 0.12410 0.60270 0.17700
N 	N 	0.14480 0.11360 0.07830 -0.23600
N 	N 	0.11220 0.15880 0.92990 -0.19600
H 	H 	0.13280 0.21160 0.87570 0.08400
C 	C 	0.38850 0.53160 0.76700 -0.58700
H 	H 	0.41720 0.51030 0.87620 0.17600
H 	H 	0.33220 0.53150 0.79280 0.15700
H 	H 	0.40500 0.59950 0.73170 0.17600
C 	C 	0.40450 0.46320 0.61900 0.21400
C 	C 	0.46660 0.46420 0.49300 -0.14300
C 	C 	0.45430 0.38480 0.37400 0.22600
C 	C 	0.49740 0.34800 0.21500 -0.58800
H 	H 	0.49500 0.27480 0.21070 0.18200
H 	H 	0.55200 0.36990 0.22310 0.17900
H 	H 	0.47400 0.37590 0.10270 0.17600
N 	N 	0.35520 0.38640 0.57830 -0.23600
N 	N 	0.38780 0.34120 0.42990 -0.19700
H 	H 	0.36720 0.28840 0.37570 0.08400
C 	C 	0.88850 0.03160 0.26700 -0.58500
H 	H 	0.91720 0.01030 0.37620 0.17400
H 	H 	0.83220 0.03150 0.29280 0.15600
H 	H 	0.90500 0.09950 0.23170 0.17500
C 	C 	0.90450 0.96320 0.11900 0.21200
C 	C 	0.96660 0.96420 0.99300 -0.14000
C 	C 	0.95430 0.88480 0.87400 0.22600
C 	C 	0.99740 0.84800 0.71500 -0.58600
H 	H 	0.99500 0.77480 0.71070 0.18200
H 	H 	0.05200 0.86990 0.72310 0.17800
H 	H 	0.97400 0.87590 0.60270 0.17700
N 	N 	0.85520 0.88640 0.07830 -0.23600
N 	N 	0.88780 0.84120 0.92990 -0.19600
H 	H 	0.86720 0.78840 0.87570 0.08400
C 	C 	0.11150 0.53160 0.76700 -0.58600
H 	H 	0.08280 0.51030 0.87620 0.17600
H 	H 	0.16780 0.53150 0.79280 0.15700
H 	H 	0.09500 0.59950 0.73170 0.17600
C 	C 	0.09550 0.46320 0.61900 0.21400
C 	C 	0.03340 0.46420 0.49300 -0.14300
C 	C 	0.04570 0.38480 0.37400 0.22600
C 	C 	0.00260 0.34800 0.21500 -0.58700
H 	H 	0.00500 0.27480 0.21070 0.18100
H 	H 	0.94800 0.36990 0.22310 0.17800
H 	H 	0.02600 0.37590 0.10270 0.17600
N 	N 	0.14480 0.38640 0.57830 -0.23600
N 	N 	0.11220 0.34120 0.42990 -0.19700
H 	H 	0.13280 0.28840 0.37570 0.08400
C 	C 	0.61150 0.03160 0.26700 -0.58400
H 	H 	0.58280 0.01030 0.37620 0.17400
H 	H 	0.66780 0.03150 0.29280 0.15600
H 	H 	0.59500 0.09950 0.23170 0.17500
C 	C 	0.59550 0.96320 0.11900 0.21100
C 	C 	0.53340 0.96420 0.99300 -0.14100
C 	C 	0.54570 0.88480 0.87400 0.22600
C 	C 	0.50260 0.84800 0.71500 -0.58900
H 	H 	0.50500 0.77480 0.71070 0.18200
H 	H 	0.44800 0.86990 0.72310 0.17900
H 	H 	0.52600 0.87590 0.60270 0.17700
N 	N 	0.64480 0.88640 0.07830 -0.23600
N 	N 	0.61220 0.84120 0.92990 -0.19700
H 	H 	0.63280 0.78840 0.87570 0.08400
C 	C 	0.88850 0.46840 0.76700 -0.58600
H 	H 	0.91720 0.48970 0.87620 0.17600
H 	H 	0.83220 0.46850 0.79280 0.15700
H 	H 	0.90500 0.40050 0.73170 0.17600
C 	C 	0.90450 0.53680 0.61900 0.21400
C 	C 	0.96660 0.53580 0.49300 -0.14300
C 	C 	0.95430 0.61520 0.37400 0.22600
C 	C 	0.99740 0.65200 0.21500 -0.58700
H 	H 	0.99500 0.72520 0.21070 0.18100
H 	H 	0.05200 0.63010 0.22310 0.17800
H 	H 	0.97400 0.62410 0.10270 0.17600
N 	N 	0.85520 0.61360 0.57830 -0.23600
N 	N 	0.88780 0.65880 0.42990 -0.19700
H 	H 	0.86720 0.71160 0.37570 0.08400
C 	C 	0.38850 0.96840 0.26700 -0.58400
H 	H 	0.41720 0.98970 0.37620 0.17400
H 	H 	0.33220 0.96850 0.29280 0.15600
H 	H 	0.40500 0.90050 0.23170 0.17500
C 	C 	0.40450 0.03680 0.11900 0.21100
C 	C 	0.46660 0.03580 0.99300 -0.14100
C 	C 	0.45430 0.11520 0.87400 0.22600
C 	C 	0.49740 0.15200 0.71500 -0.58900
H 	H 	0.49500 0.22520 0.71070 0.18200
H 	H 	0.55200 0.13010 0.72310 0.17900
H 	H 	0.47400 0.12410 0.60270 0.17700
N 	N 	0.35520 0.11360 0.07830 -0.23600
N 	N 	0.38780 0.15880 0.92990 -0.19700
H 	H 	0.36720 0.21160 0.87570 0.08400
Cu	Cu	0.75000 0.65160 0.66790 0.84200
I 	I 	0.75000 0.84764 0.53478 -0.48000
Cu	Cu	0.25000 0.15160 0.16790 0.84200
I 	I 	0.25000 0.34764 0.03478 -0.48200
Cu	Cu	0.25000 0.34840 0.66790 0.84200
I 	I 	0.25000 0.15236 0.53478 -0.48000
Cu	Cu	0.75000 0.84840 0.16790 0.84200
I 	I 	0.75000 0.65236 0.03478 -0.48200
