data_crystal

_cell_length_a 15.30600
_cell_length_b 6.72600
_cell_length_c 14.38600
_cell_angle_alpha 90.00000
_cell_angle_beta  90.00000
_cell_angle_gamma 90.00000

_symmetry_space_group_name_	'P 1'
_symmetry_space_group_name_H-M	'P 1'

loop_
_symmetry_equiv_pos_as_xyz
  x,y,z

loop_
_atom_site_label
_atom_site_type_symbol
_atom_site_fract_x
_atom_site_fract_y
_atom_site_fract_z
_atom_site_charge
O 	O 	0.14790 0.58690 0.36240 -0.48800
O 	O 	0.20560 0.91500 0.75490 -0.43200
O 	O 	0.35210 0.41310 0.86240 -0.48700
O 	O 	0.29440 0.08500 0.25490 -0.43100
O 	O 	0.85210 0.08690 0.63760 -0.48700
O 	O 	0.79440 0.41500 0.24510 -0.43100
O 	O 	0.64790 0.91310 0.13760 -0.48700
O 	O 	0.70560 0.58500 0.74510 -0.43100
O 	O 	0.85210 0.41310 0.63760 -0.48700
O 	O 	0.79440 0.08500 0.24510 -0.43100
O 	O 	0.64790 0.58690 0.13760 -0.48700
O 	O 	0.70560 0.91500 0.74510 -0.43100
O 	O 	0.14790 0.91310 0.36240 -0.48700
O 	O 	0.20560 0.58500 0.75490 -0.43100
O 	O 	0.35210 0.08690 0.86240 -0.48700
O 	O 	0.29440 0.41500 0.25490 -0.43100
Eu	Eu	0.80154 0.75000 0.62110 1.73000
O 	O 	0.84980 0.75000 0.46290 -0.49600
O 	O 	0.95050 0.75000 0.35250 -0.28200
O 	O 	0.02290 0.75000 0.83010 -0.29200
O 	O 	0.89160 0.75000 0.75890 -0.42400
N 	N 	0.96650 0.75000 0.59550 -0.17600
N 	N 	0.14300 0.75000 0.56310 -0.11500
C 	C 	0.99790 0.75000 0.50820 -0.01200
C 	C 	0.08570 0.75000 0.49250 -0.06900
C 	C 	0.10650 0.75000 0.65210 -0.01400
C 	C 	0.02000 0.75000 0.66690 -0.00200
C 	C 	0.92880 0.75000 0.43360 0.34800
C 	C 	0.12910 0.75000 0.39930 0.43000
C 	C 	0.17340 0.75000 0.72900 0.30600
C 	C 	0.97290 0.75000 0.75990 0.33200
Eu	Eu	0.69846 0.25000 0.12110 1.73000
O 	O 	0.65020 0.25000 0.96290 -0.49600
O 	O 	0.54950 0.25000 0.85250 -0.28200
O 	O 	0.47710 0.25000 0.33010 -0.29300
O 	O 	0.60840 0.25000 0.25890 -0.42400
N 	N 	0.53350 0.25000 0.09550 -0.17500
N 	N 	0.35700 0.25000 0.06310 -0.11600
C 	C 	0.50210 0.25000 0.00820 -0.01200
C 	C 	0.41430 0.25000 0.99250 -0.06700
C 	C 	0.39350 0.25000 0.15210 -0.01400
C 	C 	0.48000 0.25000 0.16690 -0.00300
C 	C 	0.57120 0.25000 0.93360 0.34900
C 	C 	0.37090 0.25000 0.89930 0.43000
C 	C 	0.32660 0.25000 0.22900 0.30600
C 	C 	0.52710 0.25000 0.25990 0.33400
Eu	Eu	0.19846 0.25000 0.37890 1.73000
O 	O 	0.15020 0.25000 0.53710 -0.49600
O 	O 	0.04950 0.25000 0.64750 -0.28200
O 	O 	0.97710 0.25000 0.16990 -0.29200
O 	O 	0.10840 0.25000 0.24110 -0.42400
N 	N 	0.03350 0.25000 0.40450 -0.17600
N 	N 	0.85700 0.25000 0.43690 -0.11500
C 	C 	0.00210 0.25000 0.49180 -0.01200
C 	C 	0.91430 0.25000 0.50750 -0.06900
C 	C 	0.89350 0.25000 0.34790 -0.01400
C 	C 	0.98000 0.25000 0.33310 -0.00200
C 	C 	0.07120 0.25000 0.56640 0.34800
C 	C 	0.87090 0.25000 0.60070 0.43000
C 	C 	0.82660 0.25000 0.27100 0.30600
C 	C 	0.02710 0.25000 0.24010 0.33200
Eu	Eu	0.30154 0.75000 0.87890 1.73000
O 	O 	0.34980 0.75000 0.03710 -0.49600
O 	O 	0.45050 0.75000 0.14750 -0.28200
O 	O 	0.52290 0.75000 0.66990 -0.29300
O 	O 	0.39160 0.75000 0.74110 -0.42400
N 	N 	0.46650 0.75000 0.90450 -0.17500
N 	N 	0.64300 0.75000 0.93690 -0.11600
C 	C 	0.49790 0.75000 0.99180 -0.01200
C 	C 	0.58570 0.75000 0.00750 -0.06700
C 	C 	0.60650 0.75000 0.84790 -0.01400
C 	C 	0.52000 0.75000 0.83310 -0.00300
C 	C 	0.42880 0.75000 0.06640 0.34900
C 	C 	0.62910 0.75000 0.10070 0.43000
C 	C 	0.67340 0.75000 0.77100 0.30600
C 	C 	0.47290 0.75000 0.74010 0.33400
Na	Na	0.26390 0.25000 0.68900 0.57100
Na	Na	0.23610 0.75000 0.18900 0.57100
Na	Na	0.73610 0.75000 0.31100 0.57100
Na	Na	0.76390 0.25000 0.81100 0.57100
