data_crystal

_cell_length_a 15.56900
_cell_length_b 6.85330
_cell_length_c 14.39700
_cell_angle_alpha 90.00000
_cell_angle_beta  90.00000
_cell_angle_gamma 90.00000

_symmetry_space_group_name_	'P 1'
_symmetry_space_group_name_H-M	'P 1'

loop_
_symmetry_equiv_pos_as_xyz
  x,y,z

loop_
_atom_site_label
_atom_site_type_symbol
_atom_site_fract_x
_atom_site_fract_y
_atom_site_fract_z
_atom_site_charge
O 	O 	0.14740 0.58930 0.36150 -0.49000
O 	O 	0.20640 0.90900 0.74970 -0.45400
O 	O 	0.35260 0.41070 0.86150 -0.49000
O 	O 	0.29360 0.09100 0.24970 -0.45400
O 	O 	0.85260 0.08930 0.63850 -0.48900
O 	O 	0.79360 0.40900 0.25030 -0.45300
O 	O 	0.64740 0.91070 0.13850 -0.48900
O 	O 	0.70640 0.59100 0.75030 -0.45300
O 	O 	0.85260 0.41070 0.63850 -0.48900
O 	O 	0.79360 0.09100 0.25030 -0.45300
O 	O 	0.64740 0.58930 0.13850 -0.48900
O 	O 	0.70640 0.90900 0.75030 -0.45300
O 	O 	0.14740 0.91070 0.36150 -0.48900
O 	O 	0.20640 0.59100 0.74970 -0.45300
O 	O 	0.35260 0.08930 0.86150 -0.48900
O 	O 	0.29360 0.40900 0.24970 -0.45300
Sm	Sm	0.80181 0.75000 0.62143 1.71300
O 	O 	0.85400 0.75000 0.45910 -0.48800
O 	O 	0.95550 0.75000 0.34990 -0.28100
O 	O 	0.02830 0.75000 0.82650 -0.30700
O 	O 	0.90120 0.75000 0.75910 -0.41200
N 	N 	0.96810 0.75000 0.59340 -0.17100
N 	N 	0.14220 0.75000 0.56170 -0.11700
C 	C 	0.99880 0.75000 0.50660 -0.01100
C 	C 	0.08740 0.75000 0.49100 -0.06500
C 	C 	0.11090 0.75000 0.64740 -0.02000
C 	C 	0.02230 0.75000 0.66350 -0.00900
C 	C 	0.93070 0.75000 0.43100 0.34600
C 	C 	0.12920 0.75000 0.39600 0.43700
C 	C 	0.17890 0.75000 0.72250 0.34900
C 	C 	0.98170 0.75000 0.75820 0.35000
Sm	Sm	0.69819 0.25000 0.12143 1.71300
O 	O 	0.64600 0.25000 0.95910 -0.48700
O 	O 	0.54450 0.25000 0.84990 -0.28000
O 	O 	0.47170 0.25000 0.32650 -0.30700
O 	O 	0.59880 0.25000 0.25910 -0.41200
N 	N 	0.53190 0.25000 0.09340 -0.17000
N 	N 	0.35780 0.25000 0.06170 -0.11800
C 	C 	0.50120 0.25000 0.00660 -0.01200
C 	C 	0.41260 0.25000 0.99100 -0.06400
C 	C 	0.38910 0.25000 0.14740 -0.02000
C 	C 	0.47770 0.25000 0.16350 -0.01000
C 	C 	0.56930 0.25000 0.93100 0.34700
C 	C 	0.37080 0.25000 0.89600 0.43700
C 	C 	0.32110 0.25000 0.22250 0.34900
C 	C 	0.51830 0.25000 0.25820 0.35200
Sm	Sm	0.19819 0.25000 0.37857 1.71300
O 	O 	0.14600 0.25000 0.54090 -0.48800
O 	O 	0.04450 0.25000 0.65010 -0.28100
O 	O 	0.97170 0.25000 0.17350 -0.30700
O 	O 	0.09880 0.25000 0.24090 -0.41200
N 	N 	0.03190 0.25000 0.40660 -0.17100
N 	N 	0.85780 0.25000 0.43830 -0.11700
C 	C 	0.00120 0.25000 0.49340 -0.01100
C 	C 	0.91260 0.25000 0.50900 -0.06500
C 	C 	0.88910 0.25000 0.35260 -0.02000
C 	C 	0.97770 0.25000 0.33650 -0.00900
C 	C 	0.06930 0.25000 0.56900 0.34600
C 	C 	0.87080 0.25000 0.60400 0.43700
C 	C 	0.82110 0.25000 0.27750 0.34900
C 	C 	0.01830 0.25000 0.24180 0.35000
Sm	Sm	0.30181 0.75000 0.87857 1.71300
O 	O 	0.35400 0.75000 0.04090 -0.48700
O 	O 	0.45550 0.75000 0.15010 -0.28000
O 	O 	0.52830 0.75000 0.67350 -0.30700
O 	O 	0.40120 0.75000 0.74090 -0.41200
N 	N 	0.46810 0.75000 0.90660 -0.17000
N 	N 	0.64220 0.75000 0.93830 -0.11800
C 	C 	0.49880 0.75000 0.99340 -0.01200
C 	C 	0.58740 0.75000 0.00900 -0.06400
C 	C 	0.61090 0.75000 0.85260 -0.02000
C 	C 	0.52230 0.75000 0.83650 -0.01000
C 	C 	0.43070 0.75000 0.06900 0.34700
C 	C 	0.62920 0.75000 0.10400 0.43700
C 	C 	0.67890 0.75000 0.77750 0.34900
C 	C 	0.48170 0.75000 0.74180 0.35200
Na	Na	0.25950 0.25000 0.69210 0.56900
Na	Na	0.24050 0.75000 0.19210 0.56900
Na	Na	0.74050 0.75000 0.30790 0.56900
Na	Na	0.75950 0.25000 0.80790 0.56900
