data_crystal

_cell_length_a 15.41400
_cell_length_b 6.71800
_cell_length_c 14.32200
_cell_angle_alpha 90.00000
_cell_angle_beta  90.00000
_cell_angle_gamma 90.00000

_symmetry_space_group_name_	'P 1'
_symmetry_space_group_name_H-M	'P 1'

loop_
_symmetry_equiv_pos_as_xyz
  x,y,z

loop_
_atom_site_label
_atom_site_type_symbol
_atom_site_fract_x
_atom_site_fract_y
_atom_site_fract_z
_atom_site_charge
O 	O 	0.14470 0.58680 0.35850 -0.51600
O 	O 	0.20690 0.91510 0.75220 -0.46000
O 	O 	0.70450 0.97800 0.54450 -0.78900
H 	H 	0.69090 0.03360 0.59520 0.30000
H 	H 	0.67000 0.88510 0.53350 0.27000
O 	O 	0.35530 0.41320 0.85850 -0.51800
O 	O 	0.29310 0.08490 0.25220 -0.46200
O 	O 	0.79550 0.02200 0.04450 -0.78500
H 	H 	0.80910 0.96640 0.09520 0.29500
H 	H 	0.83000 0.11490 0.03350 0.26900
O 	O 	0.85530 0.08680 0.64150 -0.51700
O 	O 	0.79310 0.41510 0.24780 -0.46200
O 	O 	0.29550 0.47800 0.45550 -0.78800
H 	H 	0.30910 0.53360 0.40480 0.29800
H 	H 	0.33000 0.38510 0.46650 0.26900
O 	O 	0.64470 0.91320 0.14150 -0.51800
O 	O 	0.70690 0.58490 0.74780 -0.46200
O 	O 	0.20450 0.52200 0.95550 -0.78900
H 	H 	0.19090 0.46640 0.90480 0.29800
H 	H 	0.17000 0.61490 0.96650 0.27000
O 	O 	0.85530 0.41320 0.64150 -0.51700
O 	O 	0.79310 0.08490 0.24780 -0.46100
O 	O 	0.29550 0.02200 0.45550 -0.79000
H 	H 	0.30910 0.96640 0.40480 0.29900
H 	H 	0.33000 0.11490 0.46650 0.27000
O 	O 	0.64470 0.58680 0.14150 -0.51800
O 	O 	0.70690 0.91510 0.74780 -0.46200
O 	O 	0.20450 0.97800 0.95550 -0.78500
H 	H 	0.19090 0.03360 0.90480 0.29500
H 	H 	0.17000 0.88510 0.96650 0.26900
O 	O 	0.14470 0.91320 0.35850 -0.51700
O 	O 	0.20690 0.58490 0.75220 -0.46200
O 	O 	0.70450 0.52200 0.54450 -0.78800
H 	H 	0.69090 0.46640 0.59520 0.29800
H 	H 	0.67000 0.61490 0.53350 0.26900
O 	O 	0.35530 0.08680 0.85850 -0.51800
O 	O 	0.29310 0.41510 0.25220 -0.46200
O 	O 	0.79550 0.47800 0.04450 -0.78900
H 	H 	0.80910 0.53360 0.09520 0.29800
H 	H 	0.83000 0.38510 0.03350 0.27000
Ce	Ce	0.80334 0.75000 0.62343 2.17500
O 	O 	0.84970 0.75000 0.46220 -0.46600
O 	O 	0.94980 0.75000 0.34980 -0.26300
O 	O 	0.02730 0.75000 0.82860 -0.27400
O 	O 	0.89720 0.75000 0.75980 -0.43700
N 	N 	0.96660 0.75000 0.59480 -0.20400
N 	N 	0.14250 0.75000 0.56200 -0.07500
C 	C 	0.99710 0.75000 0.50700 -0.00700
C 	C 	0.08520 0.75000 0.49030 -0.06600
C 	C 	0.11130 0.75000 0.64810 -0.00200
C 	C 	0.02140 0.75000 0.66510 -0.01100
C 	C 	0.92730 0.75000 0.43070 0.32200
C 	C 	0.12560 0.75000 0.39200 0.47500
C 	C 	0.17800 0.75000 0.72250 0.31800
C 	C 	0.97910 0.75000 0.75960 0.33300
Ce	Ce	0.69666 0.25000 0.12343 2.17600
O 	O 	0.65030 0.25000 0.96220 -0.46600
O 	O 	0.55020 0.25000 0.84980 -0.26200
O 	O 	0.47270 0.25000 0.32860 -0.27600
O 	O 	0.60280 0.25000 0.25980 -0.43800
N 	N 	0.53340 0.25000 0.09480 -0.20300
N 	N 	0.35750 0.25000 0.06200 -0.07600
C 	C 	0.50290 0.25000 0.00700 -0.00500
C 	C 	0.41480 0.25000 0.99030 -0.06800
C 	C 	0.38870 0.25000 0.14810 -0.00200
C 	C 	0.47860 0.25000 0.16510 -0.01300
C 	C 	0.57270 0.25000 0.93070 0.32200
C 	C 	0.37440 0.25000 0.89200 0.47500
C 	C 	0.32200 0.25000 0.22250 0.31800
C 	C 	0.52090 0.25000 0.25960 0.33700
Ce	Ce	0.19666 0.25000 0.37657 2.17500
O 	O 	0.15030 0.25000 0.53780 -0.46600
O 	O 	0.05020 0.25000 0.65020 -0.26300
O 	O 	0.97270 0.25000 0.17140 -0.27400
O 	O 	0.10280 0.25000 0.24020 -0.43700
N 	N 	0.03340 0.25000 0.40520 -0.20400
N 	N 	0.85750 0.25000 0.43800 -0.07500
C 	C 	0.00290 0.25000 0.49300 -0.00700
C 	C 	0.91480 0.25000 0.50970 -0.06600
C 	C 	0.88870 0.25000 0.35190 -0.00200
C 	C 	0.97860 0.25000 0.33490 -0.01100
C 	C 	0.07270 0.25000 0.56930 0.32200
C 	C 	0.87440 0.25000 0.60800 0.47500
C 	C 	0.82200 0.25000 0.27750 0.31800
C 	C 	0.02090 0.25000 0.24040 0.33300
Ce	Ce	0.30334 0.75000 0.87657 2.17600
O 	O 	0.34970 0.75000 0.03780 -0.46600
O 	O 	0.44980 0.75000 0.15020 -0.26200
O 	O 	0.52730 0.75000 0.67140 -0.27600
O 	O 	0.39720 0.75000 0.74020 -0.43800
N 	N 	0.46660 0.75000 0.90520 -0.20300
N 	N 	0.64250 0.75000 0.93800 -0.07600
C 	C 	0.49710 0.75000 0.99300 -0.00500
C 	C 	0.58520 0.75000 0.00970 -0.06800
C 	C 	0.61130 0.75000 0.85190 -0.00200
C 	C 	0.52140 0.75000 0.83490 -0.01300
C 	C 	0.42730 0.75000 0.06930 0.32200
C 	C 	0.62560 0.75000 0.10800 0.47500
C 	C 	0.67800 0.75000 0.77750 0.31800
C 	C 	0.47910 0.75000 0.74040 0.33700
Na	Na	0.25860 0.25000 0.69090 0.58100
Na	Na	0.24140 0.75000 0.19090 0.58100
Na	Na	0.74140 0.75000 0.30910 0.58100
Na	Na	0.75860 0.25000 0.80910 0.58100
