data_crystal

_cell_length_a 43.23920
_cell_length_b 43.23920
_cell_length_c 41.89210
_cell_angle_alpha 90.00000
_cell_angle_beta  90.00000
_cell_angle_gamma 120.00000

_symmetry_space_group_name_	'P 1'
_symmetry_space_group_name_H-M	'P 1'

loop_
_symmetry_equiv_pos_as_xyz
  x,y,z

loop_
_atom_site_label
_atom_site_type_symbol
_atom_site_fract_x
_atom_site_fract_y
_atom_site_fract_z
_atom_site_charge
In	In	0.62728 0.09353 0.79099 2.00100
In	In	0.37506 0.90423 0.46729 2.00900
O 	O 	0.56780 0.05670 0.78890 -0.42300
O 	O 	0.59520 0.08370 0.74490 -0.42900
O 	O 	0.34890 0.90410 0.51490 -0.44400
O 	O 	0.40700 0.93490 0.50920 -0.43300
O 	O 	0.66930 0.11290 0.83030 -0.43100
O 	O 	0.61450 0.07190 0.84120 -0.42500
O 	O 	0.82430 0.27520 0.08070 -0.31500
O 	O 	0.83770 0.24220 0.11010 -0.48500
O 	O 	0.62280 0.92130 0.11480 -0.42200
O 	O 	0.57220 0.90750 0.09110 -0.42500
O 	O 	0.61230 0.13430 0.80790 -0.42800
O 	O 	0.65810 0.15140 0.77560 -0.41600
N 	N 	0.40320 0.99680 0.71490 -0.14300
N 	N 	0.42810 0.98880 0.66770 -0.14100
N 	N 	0.36750 0.97350 0.66920 -0.14100
N 	N 	0.70610 0.12200 0.99460 -0.14200
N 	N 	0.69860 0.09010 0.04240 -0.14000
N 	N 	0.66160 0.06140 0.99790 -0.14500
N 	N 	0.69510 0.32770 0.79260 -0.14200
C 	C 	0.56700 0.06310 0.75910 0.30200
C 	C 	0.53170 0.04640 0.74350 -0.07200
C 	C 	0.52930 0.04550 0.71090 0.01100
H 	H 	0.55040 0.05630 0.69830 0.04900
C 	C 	0.49610 0.02880 0.69610 -0.07300
H 	H 	0.49470 0.02760 0.67340 0.06900
C 	C 	0.46580 0.01450 0.71340 0.02200
C 	C 	0.46730 0.01520 0.74640 -0.07100
H 	H 	0.44610 0.00510 0.75880 0.06600
C 	C 	0.50110 0.03130 0.76120 0.01000
H 	H 	0.50270 0.03170 0.78380 0.05600
C 	C 	0.43050 0.99880 0.69780 0.11800
C 	C 	0.37260 0.98480 0.69960 0.11400
C 	C 	0.39580 0.97450 0.65440 0.11700
O 	O 	0.24840 0.95360 0.79680 -0.16800
O 	O 	0.24010 0.98880 0.76620 -1.68200
C 	C 	0.34340 0.98470 0.71740 0.01400
C 	C 	0.34170 0.97960 0.74980 -0.93200
H 	H 	0.36020 0.97790 0.76040 0.36000
C 	C 	0.31380 0.97690 0.76700 0.90500
H 	H 	0.31230 0.97180 0.78920 -0.23600
C 	C 	0.29010 0.98110 0.75370 -0.62400
C 	C 	0.29140 0.98950 0.72100 0.24900
H 	H 	0.27440 0.99470 0.71180 -0.13500
C 	C 	0.31880 0.98990 0.70240 -0.45600
H 	H 	0.31990 0.99370 0.68000 0.18600
C 	C 	0.25650 0.97310 0.77270 -0.94300
C 	C 	0.39100 0.96150 0.62190 0.01600
C 	C 	0.35700 0.94110 0.60890 -0.06800
H 	H 	0.33650 0.93530 0.62140 0.06800
C 	C 	0.35300 0.92940 0.57800 0.00500
H 	H 	0.32970 0.91620 0.56900 0.05400
C 	C 	0.38290 0.93660 0.55970 -0.06400
C 	C 	0.41640 0.95650 0.57290 0.00500
H 	H 	0.43690 0.96200 0.56050 0.05800
C 	C 	0.42050 0.96830 0.60360 -0.06700
H 	H 	0.44380 0.98130 0.61260 0.06600
C 	C 	0.37900 0.92420 0.52590 0.30400
C 	C 	0.64660 0.09220 0.85000 0.30300
C 	C 	0.63200 0.06540 0.90420 0.01200
H 	H 	0.60990 0.04700 0.89610 0.04900
C 	C 	0.65510 0.09180 0.88420 -0.07200
C 	C 	0.63990 0.06470 0.93560 -0.07200
H 	H 	0.62380 0.04570 0.94900 0.06400
C 	C 	0.67200 0.09210 0.94810 0.02100
C 	C 	0.69520 0.11890 0.92810 -0.06900
H 	H 	0.71690 0.13780 0.93630 0.07000
C 	C 	0.68730 0.11850 0.89630 0.01100
H 	H 	0.70400 0.13660 0.88260 0.05100
C 	C 	0.68030 0.09160 0.98190 0.12000
C 	C 	0.71450 0.12000 0.02420 0.11600
C 	C 	0.65440 0.02810 0.04630 0.01700
C 	C 	0.74200 0.15320 0.04010 0.03100
C 	C 	0.75410 0.18580 0.02610 -0.08800
H 	H 	0.74600 0.18750 0.00550 0.07600
C 	C 	0.77820 0.21620 0.04220 0.03200
H 	H 	0.78430 0.23890 0.03370 0.04800
C 	C 	0.79350 0.21460 0.07000 -0.09100
C 	C 	0.78380 0.18160 0.08270 0.02400
H 	H 	0.79510 0.18010 0.10160 0.05500
C 	C 	0.75760 0.15020 0.06840 -0.08100
H 	H 	0.75050 0.12750 0.07750 0.07300
C 	C 	0.82110 0.24580 0.08750 0.34900
C 	C 	0.67230 0.06160 0.02810 0.11700
C 	C 	0.67140 0.02340 0.07240 -0.06800
H 	H 	0.69390 0.04230 0.07920 0.07000
C 	C 	0.65530 0.99130 0.08860 0.00600
H 	H 	0.66700 0.98780 0.10630 0.05300
C 	C 	0.62250 0.96440 0.07900 -0.06200
C 	C 	0.60500 0.96880 0.05310 0.00300
H 	H 	0.58210 0.95010 0.04690 0.05900
C 	C 	0.62140 0.00060 0.03640 -0.07000
H 	H 	0.61010 0.00360 0.01820 0.06700
C 	C 	0.60470 0.92930 0.09570 0.29000
C 	C 	0.63760 0.15830 0.79230 0.29300
C 	C 	0.64410 0.19540 0.79330 -0.06200
C 	C 	0.67480 0.22320 0.77960 0.00500
H 	H 	0.69170 0.21830 0.76990 0.05800
C 	C 	0.68080 0.25750 0.77990 -0.06900
H 	H 	0.70230 0.27640 0.77120 0.07000
C 	C 	0.65550 0.26430 0.79280 0.02000
C 	C 	0.62490 0.23730 0.80630 -0.06600
H 	H 	0.60770 0.24240 0.81540 0.06900
C 	C 	0.61900 0.20220 0.80650 0.00300
H 	H 	0.59790 0.18340 0.81580 0.05600
C 	C 	0.66130 0.30110 0.79250 0.11800
O 	O 	0.36100 0.84400 0.48400 0.31800
O 	O 	0.41700 0.86500 0.49200 -0.15100
C 	C 	0.38600 0.84350 0.49970 0.38200
C 	C 	0.37300 0.80360 0.50710 -0.34800
C 	C 	0.33750 0.77700 0.50970 0.09800
C 	C 	0.32890 0.74210 0.51630 -0.01000
C 	C 	0.35580 0.73380 0.52000 0.00600
C 	C 	0.39140 0.76040 0.51770 0.03700
C 	C 	0.40000 0.79530 0.51100 0.03000
N 	N 	0.37320 0.68790 0.52000 -0.11900
C 	C 	0.34620 0.69410 0.52000 0.09300
O 	O 	0.24400 0.98000 0.78200 0.95900
O 	O 	0.24240 0.00800 0.73790 -0.31900
C 	C 	0.34050 0.98200 0.71400 0.01400
C 	C 	0.30600 0.95800 0.70430 0.38100
H 	H 	0.30170 0.94180 0.68770 -0.09200
C 	C 	0.27720 0.95900 0.71880 -0.38700
H 	H 	0.25350 0.94280 0.71200 0.16300
C 	C 	0.28320 0.98300 0.74300 0.41100
C 	C 	0.31800 0.00700 0.75290 -0.55500
H 	H 	0.32200 0.02360 0.76950 0.21200
C 	C 	0.34650 0.00600 0.73800 0.70600
H 	H 	0.37020 0.02260 0.74520 -0.17200
C 	C 	0.25600 0.99100 0.75200 1.68900
O 	O 	0.33790 0.84940 0.46540 -0.28300
O 	O 	0.39030 0.86690 0.48390 -0.43900
C 	C 	0.35910 0.84240 0.47950 -0.40700
C 	C 	0.35150 0.80360 0.48250 0.03100
C 	C 	0.31770 0.77420 0.47790 -0.00100
C 	C 	0.31240 0.73990 0.48100 0.00800
C 	C 	0.34100 0.73500 0.48870 0.01000
C 	C 	0.37480 0.76440 0.49330 -0.07500
C 	C 	0.38000 0.79870 0.49020 0.25300
N 	N 	0.36690 0.69760 0.48850 -0.12400
C 	C 	0.33610 0.69720 0.48850 0.11500
In	In	0.29395 0.42686 0.12432 2.00000
In	In	0.04173 0.23756 0.80062 2.00800
O 	O 	0.23447 0.39003 0.12223 -0.42400
O 	O 	0.26187 0.41703 0.07823 -0.43000
O 	O 	0.01557 0.23743 0.84823 -0.44500
O 	O 	0.07367 0.26823 0.84253 -0.43400
O 	O 	0.33597 0.44623 0.16363 -0.43200
O 	O 	0.28117 0.40523 0.17453 -0.42600
O 	O 	0.49097 0.60853 0.41403 -0.31600
O 	O 	0.50437 0.57553 0.44343 -0.48600
O 	O 	0.28947 0.25463 0.44813 -0.42300
O 	O 	0.23887 0.24083 0.42443 -0.42600
O 	O 	0.27897 0.46763 0.14123 -0.42900
O 	O 	0.32477 0.48473 0.10893 -0.41700
N 	N 	0.06987 0.33013 0.04823 -0.14400
N 	N 	0.09477 0.32213 0.00103 -0.14200
N 	N 	0.03417 0.30683 0.00253 -0.14200
N 	N 	0.37277 0.45533 0.32793 -0.14300
N 	N 	0.36527 0.42343 0.37573 -0.14000
N 	N 	0.32827 0.39473 0.33123 -0.14500
N 	N 	0.36177 0.66103 0.12593 -0.14200
C 	C 	0.23367 0.39643 0.09243 0.30200
C 	C 	0.19837 0.37973 0.07683 -0.07200
C 	C 	0.19597 0.37883 0.04423 0.01100
H 	H 	0.21707 0.38963 0.03163 0.04900
C 	C 	0.16277 0.36213 0.02943 -0.07300
H 	H 	0.16137 0.36093 0.00673 0.06900
C 	C 	0.13247 0.34783 0.04673 0.02200
C 	C 	0.13397 0.34853 0.07973 -0.07100
H 	H 	0.11277 0.33843 0.09213 0.06600
C 	C 	0.16777 0.36463 0.09453 0.01000
H 	H 	0.16937 0.36503 0.11713 0.05600
C 	C 	0.09717 0.33213 0.03113 0.11800
C 	C 	0.03927 0.31813 0.03293 0.11400
C 	C 	0.06247 0.30783 0.98773 0.11700
O 	O 	0.91507 0.28693 0.13013 -0.16800
O 	O 	0.90677 0.32213 0.09953 -1.68200
C 	C 	0.01007 0.31803 0.05073 0.01400
C 	C 	0.00837 0.31293 0.08313 -0.93100
H 	H 	0.02687 0.31123 0.09373 0.36000
C 	C 	0.98047 0.31023 0.10033 0.90500
H 	H 	0.97897 0.30513 0.12253 -0.23600
C 	C 	0.95677 0.31443 0.08703 -0.62300
C 	C 	0.95807 0.32283 0.05433 0.24900
H 	H 	0.94107 0.32803 0.04513 -0.13500
C 	C 	0.98547 0.32323 0.03573 -0.45600
H 	H 	0.98657 0.32703 0.01333 0.18600
C 	C 	0.92317 0.30643 0.10603 -0.94200
C 	C 	0.05767 0.29483 0.95523 0.01600
C 	C 	0.02367 0.27443 0.94223 -0.06800
H 	H 	0.00317 0.26863 0.95473 0.06800
C 	C 	0.01967 0.26273 0.91133 0.00500
H 	H 	0.99637 0.24953 0.90233 0.05400
C 	C 	0.04957 0.26993 0.89303 -0.06400
C 	C 	0.08307 0.28983 0.90623 0.00500
H 	H 	0.10357 0.29533 0.89383 0.05800
C 	C 	0.08717 0.30163 0.93693 -0.06700
H 	H 	0.11047 0.31463 0.94593 0.06600
C 	C 	0.04567 0.25753 0.85923 0.30400
C 	C 	0.31327 0.42553 0.18333 0.30300
C 	C 	0.29867 0.39873 0.23753 0.01200
H 	H 	0.27657 0.38033 0.22943 0.04900
C 	C 	0.32177 0.42513 0.21753 -0.07200
C 	C 	0.30657 0.39803 0.26893 -0.07200
H 	H 	0.29047 0.37903 0.28233 0.06400
C 	C 	0.33867 0.42543 0.28143 0.02100
C 	C 	0.36187 0.45223 0.26143 -0.06900
H 	H 	0.38357 0.47113 0.26963 0.07000
C 	C 	0.35397 0.45183 0.22963 0.01100
H 	H 	0.37067 0.46993 0.21593 0.05100
C 	C 	0.34697 0.42493 0.31523 0.12000
C 	C 	0.38117 0.45333 0.35753 0.11600
C 	C 	0.32107 0.36143 0.37963 0.01700
C 	C 	0.40867 0.48653 0.37343 0.03100
C 	C 	0.42077 0.51913 0.35943 -0.08800
H 	H 	0.41267 0.52083 0.33883 0.07600
C 	C 	0.44487 0.54953 0.37553 0.03200
H 	H 	0.45097 0.57223 0.36703 0.04800
C 	C 	0.46017 0.54793 0.40333 -0.09100
C 	C 	0.45047 0.51493 0.41603 0.02400
H 	H 	0.46177 0.51343 0.43493 0.05500
C 	C 	0.42427 0.48353 0.40173 -0.08100
H 	H 	0.41717 0.46083 0.41083 0.07300
C 	C 	0.48777 0.57913 0.42083 0.34900
C 	C 	0.33897 0.39493 0.36143 0.11700
C 	C 	0.33807 0.35673 0.40573 -0.06700
H 	H 	0.36057 0.37563 0.41253 0.07000
C 	C 	0.32197 0.32463 0.42193 0.00500
H 	H 	0.33367 0.32113 0.43963 0.05300
C 	C 	0.28917 0.29773 0.41233 -0.06200
C 	C 	0.27167 0.30213 0.38643 0.00300
H 	H 	0.24877 0.28343 0.38023 0.05900
C 	C 	0.28807 0.33393 0.36973 -0.07000
H 	H 	0.27677 0.33693 0.35153 0.06700
C 	C 	0.27137 0.26263 0.42903 0.29000
C 	C 	0.30427 0.49163 0.12563 0.29300
C 	C 	0.31077 0.52873 0.12663 -0.06200
C 	C 	0.34147 0.55653 0.11293 0.00500
H 	H 	0.35837 0.55163 0.10323 0.05800
C 	C 	0.34747 0.59083 0.11323 -0.06900
H 	H 	0.36897 0.60973 0.10453 0.07000
C 	C 	0.32217 0.59763 0.12613 0.02000
C 	C 	0.29157 0.57063 0.13963 -0.06600
H 	H 	0.27437 0.57573 0.14873 0.06900
C 	C 	0.28567 0.53553 0.13983 0.00300
H 	H 	0.26457 0.51673 0.14913 0.05600
C 	C 	0.32797 0.63443 0.12583 0.11800
O 	O 	0.02767 0.17733 0.81733 0.31800
O 	O 	0.08367 0.19833 0.82533 -0.15100
C 	C 	0.05267 0.17683 0.83303 0.38200
C 	C 	0.03967 0.13693 0.84043 -0.34800
C 	C 	0.00417 0.11033 0.84303 0.09800
C 	C 	0.99557 0.07543 0.84963 -0.01000
C 	C 	0.02247 0.06713 0.85333 0.00600
C 	C 	0.05807 0.09373 0.85103 0.03700
C 	C 	0.06667 0.12863 0.84433 0.03000
N 	N 	0.03987 0.02123 0.85333 -0.11900
C 	C 	0.01287 0.02743 0.85333 0.09300
O 	O 	0.91067 0.31333 0.11533 0.95900
O 	O 	0.90907 0.34133 0.07123 -0.31900
C 	C 	0.00717 0.31533 0.04733 0.01400
C 	C 	0.97267 0.29133 0.03763 0.38000
H 	H 	0.96837 0.27513 0.02103 -0.09200
C 	C 	0.94387 0.29233 0.05213 -0.38700
H 	H 	0.92017 0.27613 0.04533 0.16300
C 	C 	0.94987 0.31633 0.07633 0.41100
C 	C 	0.98467 0.34033 0.08623 -0.55400
H 	H 	0.98867 0.35693 0.10283 0.21200
C 	C 	0.01317 0.33933 0.07133 0.70500
H 	H 	0.03687 0.35593 0.07853 -0.17200
C 	C 	0.92267 0.32433 0.08533 1.68800
O 	O 	0.00457 0.18273 0.79873 -0.28300
O 	O 	0.05697 0.20023 0.81723 -0.43900
C 	C 	0.02577 0.17573 0.81283 -0.40700
C 	C 	0.01817 0.13693 0.81583 0.03100
C 	C 	0.98437 0.10753 0.81123 -0.00100
C 	C 	0.97907 0.07323 0.81433 0.00800
C 	C 	0.00767 0.06833 0.82203 0.01000
C 	C 	0.04147 0.09773 0.82663 -0.07500
C 	C 	0.04667 0.13203 0.82353 0.25300
N 	N 	0.03357 0.03093 0.82183 -0.12400
C 	C 	0.00277 0.03053 0.82183 0.11500
In	In	0.96061 0.76020 0.45766 2.00000
In	In	0.70839 0.57090 0.13396 2.00800
O 	O 	0.90113 0.72337 0.45557 -0.42400
O 	O 	0.92853 0.75037 0.41157 -0.43000
O 	O 	0.68223 0.57077 0.18157 -0.44500
O 	O 	0.74033 0.60157 0.17587 -0.43400
O 	O 	0.00263 0.77957 0.49697 -0.43200
O 	O 	0.94783 0.73857 0.50787 -0.42600
O 	O 	0.15763 0.94187 0.74737 -0.31600
O 	O 	0.17103 0.90887 0.77677 -0.48600
O 	O 	0.95613 0.58797 0.78147 -0.42300
O 	O 	0.90553 0.57417 0.75777 -0.42600
O 	O 	0.94563 0.80097 0.47457 -0.42900
O 	O 	0.99143 0.81807 0.44227 -0.41700
N 	N 	0.73653 0.66347 0.38157 -0.14400
N 	N 	0.76143 0.65547 0.33437 -0.14200
N 	N 	0.70083 0.64017 0.33587 -0.14200
N 	N 	0.03943 0.78867 0.66127 -0.14300
N 	N 	0.03193 0.75677 0.70907 -0.14000
N 	N 	0.99493 0.72807 0.66457 -0.14500
N 	N 	0.02843 0.99437 0.45927 -0.14200
C 	C 	0.90033 0.72977 0.42577 0.30200
C 	C 	0.86503 0.71307 0.41017 -0.07200
C 	C 	0.86263 0.71217 0.37757 0.01100
H 	H 	0.88373 0.72297 0.36497 0.04900
C 	C 	0.82943 0.69547 0.36277 -0.07300
H 	H 	0.82803 0.69427 0.34007 0.06900
C 	C 	0.79913 0.68117 0.38007 0.02200
C 	C 	0.80063 0.68187 0.41307 -0.07100
H 	H 	0.77943 0.67177 0.42547 0.06600
C 	C 	0.83443 0.69797 0.42787 0.01000
H 	H 	0.83603 0.69837 0.45047 0.05600
C 	C 	0.76383 0.66547 0.36447 0.11800
C 	C 	0.70593 0.65147 0.36627 0.11400
C 	C 	0.72913 0.64117 0.32107 0.11700
O 	O 	0.58173 0.62027 0.46347 -0.16800
O 	O 	0.57343 0.65547 0.43287 -1.68200
C 	C 	0.67673 0.65137 0.38407 0.01400
C 	C 	0.67503 0.64627 0.41647 -0.93200
H 	H 	0.69353 0.64457 0.42707 0.36000
C 	C 	0.64713 0.64357 0.43367 0.90500
H 	H 	0.64563 0.63847 0.45587 -0.23600
C 	C 	0.62343 0.64777 0.42037 -0.62400
C 	C 	0.62473 0.65617 0.38767 0.24900
H 	H 	0.60773 0.66137 0.37847 -0.13500
C 	C 	0.65213 0.65657 0.36907 -0.45600
H 	H 	0.65323 0.66037 0.34667 0.18600
C 	C 	0.58983 0.63977 0.43937 -0.94300
C 	C 	0.72433 0.62817 0.28857 0.01600
C 	C 	0.69033 0.60777 0.27557 -0.06800
H 	H 	0.66983 0.60197 0.28807 0.06800
C 	C 	0.68633 0.59607 0.24467 0.00500
H 	H 	0.66303 0.58287 0.23567 0.05400
C 	C 	0.71623 0.60327 0.22637 -0.06400
C 	C 	0.74973 0.62317 0.23957 0.00500
H 	H 	0.77023 0.62867 0.22717 0.05800
C 	C 	0.75383 0.63497 0.27027 -0.06700
H 	H 	0.77713 0.64797 0.27927 0.06600
C 	C 	0.71233 0.59087 0.19257 0.30400
C 	C 	0.97993 0.75887 0.51667 0.30300
C 	C 	0.96533 0.73207 0.57087 0.01200
H 	H 	0.94323 0.71367 0.56277 0.04900
C 	C 	0.98843 0.75847 0.55087 -0.07200
C 	C 	0.97323 0.73137 0.60227 -0.07200
H 	H 	0.95713 0.71237 0.61567 0.06400
C 	C 	0.00533 0.75877 0.61477 0.02100
C 	C 	0.02853 0.78557 0.59477 -0.06900
H 	H 	0.05023 0.80447 0.60297 0.07000
C 	C 	0.02063 0.78517 0.56297 0.01100
H 	H 	0.03733 0.80327 0.54927 0.05100
C 	C 	0.01363 0.75827 0.64857 0.12000
C 	C 	0.04783 0.78667 0.69087 0.11600
C 	C 	0.98773 0.69477 0.71297 0.01700
C 	C 	0.07533 0.81987 0.70677 0.03100
C 	C 	0.08743 0.85247 0.69277 -0.08800
H 	H 	0.07933 0.85417 0.67217 0.07600
C 	C 	0.11153 0.88287 0.70887 0.03200
H 	H 	0.11763 0.90557 0.70037 0.04800
C 	C 	0.12683 0.88127 0.73667 -0.09100
C 	C 	0.11713 0.84827 0.74937 0.02400
H 	H 	0.12843 0.84677 0.76827 0.05500
C 	C 	0.09093 0.81687 0.73507 -0.08100
H 	H 	0.08383 0.79417 0.74417 0.07300
C 	C 	0.15443 0.91247 0.75417 0.34900
C 	C 	0.00563 0.72827 0.69477 0.11700
C 	C 	0.00473 0.69007 0.73907 -0.06800
H 	H 	0.02723 0.70897 0.74587 0.07000
C 	C 	0.98863 0.65797 0.75527 0.00600
H 	H 	0.00033 0.65447 0.77297 0.05300
C 	C 	0.95583 0.63107 0.74567 -0.06200
C 	C 	0.93833 0.63547 0.71977 0.00300
H 	H 	0.91543 0.61677 0.71357 0.05900
C 	C 	0.95473 0.66727 0.70307 -0.07000
H 	H 	0.94343 0.67027 0.68487 0.06700
C 	C 	0.93803 0.59597 0.76237 0.29000
C 	C 	0.97093 0.82497 0.45897 0.29300
C 	C 	0.97743 0.86207 0.45997 -0.06200
C 	C 	0.00813 0.88987 0.44627 0.00500
H 	H 	0.02503 0.88497 0.43657 0.05800
C 	C 	0.01413 0.92417 0.44657 -0.06900
H 	H 	0.03563 0.94307 0.43787 0.07000
C 	C 	0.98883 0.93097 0.45947 0.02000
C 	C 	0.95823 0.90397 0.47297 -0.06600
H 	H 	0.94103 0.90907 0.48207 0.06900
C 	C 	0.95233 0.86887 0.47317 0.00300
H 	H 	0.93123 0.85007 0.48247 0.05600
C 	C 	0.99463 0.96777 0.45917 0.11800
O 	O 	0.69433 0.51067 0.15067 0.31800
O 	O 	0.75033 0.53167 0.15867 -0.15100
C 	C 	0.71933 0.51017 0.16637 0.38200
C 	C 	0.70633 0.47027 0.17377 -0.34800
C 	C 	0.67083 0.44367 0.17637 0.09800
C 	C 	0.66223 0.40877 0.18297 -0.01000
C 	C 	0.68913 0.40047 0.18667 0.00600
C 	C 	0.72473 0.42707 0.18437 0.03700
C 	C 	0.73333 0.46197 0.17767 0.03000
N 	N 	0.70653 0.35457 0.18667 -0.11900
C 	C 	0.67953 0.36077 0.18667 0.09300
O 	O 	0.57733 0.64667 0.44867 0.95900
O 	O 	0.57573 0.67467 0.40457 -0.31900
C 	C 	0.67383 0.64867 0.38067 0.01400
C 	C 	0.63933 0.62467 0.37097 0.38100
H 	H 	0.63503 0.60847 0.35437 -0.09200
C 	C 	0.61053 0.62567 0.38547 -0.38700
H 	H 	0.58683 0.60947 0.37867 0.16300
C 	C 	0.61653 0.64967 0.40967 0.41100
C 	C 	0.65133 0.67367 0.41957 -0.55500
H 	H 	0.65533 0.69027 0.43617 0.21200
C 	C 	0.67983 0.67267 0.40467 0.70600
H 	H 	0.70353 0.68927 0.41187 -0.17200
C 	C 	0.58933 0.65767 0.41867 1.68900
O 	O 	0.67123 0.51607 0.13207 -0.28300
O 	O 	0.72363 0.53357 0.15057 -0.43900
C 	C 	0.69243 0.50907 0.14617 -0.40700
C 	C 	0.68483 0.47027 0.14917 0.03100
C 	C 	0.65103 0.44087 0.14457 -0.00100
C 	C 	0.64573 0.40657 0.14767 0.00800
C 	C 	0.67433 0.40167 0.15537 0.01000
C 	C 	0.70813 0.43107 0.15997 -0.07500
C 	C 	0.71333 0.46537 0.15687 0.25300
N 	N 	0.70023 0.36427 0.15517 -0.12400
C 	C 	0.66943 0.36387 0.15517 0.11500
In	In	0.90647 0.53375 0.79099 2.00000
In	In	0.09577 0.47083 0.46729 2.00800
O 	O 	0.94330 0.51110 0.78890 -0.42400
O 	O 	0.91630 0.51150 0.74490 -0.43000
O 	O 	0.09590 0.44480 0.51490 -0.44500
O 	O 	0.06510 0.47210 0.50920 -0.43400
O 	O 	0.88710 0.55640 0.83030 -0.43200
O 	O 	0.92810 0.54260 0.84120 -0.42600
O 	O 	0.72480 0.54910 0.08070 -0.31600
O 	O 	0.75780 0.59550 0.11010 -0.48600
O 	O 	0.07870 0.70150 0.11480 -0.42200
O 	O 	0.09250 0.66470 0.09110 -0.42600
O 	O 	0.86570 0.47800 0.80790 -0.42900
O 	O 	0.84860 0.50670 0.77560 -0.41700
N 	N 	0.00320 0.40640 0.71490 -0.14400
N 	N 	0.01120 0.43930 0.66770 -0.14200
N 	N 	0.02650 0.39400 0.66920 -0.14200
N 	N 	0.87800 0.58410 0.99460 -0.14300
N 	N 	0.90990 0.60850 0.04240 -0.14000
N 	N 	0.93860 0.60020 0.99790 -0.14500
N 	N 	0.67230 0.36740 0.79260 -0.14200
C 	C 	0.93690 0.50390 0.75910 0.30200
C 	C 	0.95360 0.48530 0.74350 -0.07200
C 	C 	0.95450 0.48380 0.71090 0.01100
H 	H 	0.94370 0.49410 0.69830 0.04900
C 	C 	0.97120 0.46730 0.69610 -0.07300
H 	H 	0.97240 0.46710 0.67340 0.06900
C 	C 	0.98550 0.45130 0.71340 0.02200
C 	C 	0.98480 0.45210 0.74640 -0.07100
H 	H 	0.99490 0.44100 0.75880 0.06600
C 	C 	0.96870 0.46980 0.76120 0.01000
H 	H 	0.96830 0.47100 0.78380 0.05600
C 	C 	0.00120 0.43170 0.69780 0.11800
C 	C 	0.01520 0.38780 0.69960 0.11400
C 	C 	0.02550 0.42130 0.65440 0.11700
O 	O 	0.04640 0.29480 0.79680 -0.16800
O 	O 	0.01120 0.25130 0.76620 -1.68200
C 	C 	0.01530 0.35870 0.71740 0.01400
C 	C 	0.02040 0.36210 0.74980 -0.93100
H 	H 	0.02210 0.38230 0.76040 0.36000
C 	C 	0.02310 0.33690 0.76700 0.90500
H 	H 	0.02820 0.34050 0.78920 -0.23600
C 	C 	0.01890 0.30900 0.75370 -0.62300
C 	C 	0.01050 0.30190 0.72100 0.24900
H 	H 	0.00530 0.27970 0.71180 -0.13500
C 	C 	0.01010 0.32890 0.70240 -0.45600
H 	H 	0.00630 0.32620 0.68000 0.18600
C 	C 	0.02690 0.28340 0.77270 -0.94200
C 	C 	0.03850 0.42950 0.62190 0.01600
C 	C 	0.05890 0.41590 0.60890 -0.06800
H 	H 	0.06470 0.40120 0.62140 0.06800
C 	C 	0.07060 0.42360 0.57800 0.00500
H 	H 	0.08380 0.41350 0.56900 0.05400
C 	C 	0.06340 0.44630 0.55970 -0.06400
C 	C 	0.04350 0.45990 0.57290 0.00500
H 	H 	0.03800 0.47490 0.56050 0.05800
C 	C 	0.03170 0.45220 0.60360 -0.06700
H 	H 	0.01870 0.46250 0.61260 0.06600
C 	C 	0.07580 0.45480 0.52590 0.30400
C 	C 	0.90780 0.55440 0.85000 0.30300
C 	C 	0.93460 0.56660 0.90420 0.01200
H 	H 	0.95300 0.56290 0.89610 0.04900
C 	C 	0.90820 0.56330 0.88420 -0.07200
C 	C 	0.93530 0.57520 0.93560 -0.07200
H 	H 	0.95430 0.57810 0.94900 0.06400
C 	C 	0.90790 0.57990 0.94810 0.02100
C 	C 	0.88110 0.57630 0.92810 -0.06900
H 	H 	0.86220 0.57910 0.93630 0.07000
C 	C 	0.88150 0.56880 0.89630 0.01100
H 	H 	0.86340 0.56740 0.88260 0.05100
C 	C 	0.90840 0.58870 0.98190 0.12000
C 	C 	0.88000 0.59450 0.02420 0.11600
C 	C 	0.97190 0.62630 0.04630 0.01700
C 	C 	0.84680 0.58880 0.04010 0.03100
C 	C 	0.81420 0.56830 0.02610 -0.08800
H 	H 	0.81250 0.55850 0.00550 0.07600
C 	C 	0.78380 0.56200 0.04220 0.03200
H 	H 	0.76110 0.54540 0.03370 0.04800
C 	C 	0.78540 0.57890 0.07000 -0.09100
C 	C 	0.81840 0.60220 0.08270 0.02400
H 	H 	0.81990 0.61500 0.10160 0.05500
C 	C 	0.84980 0.60740 0.06840 -0.08100
H 	H 	0.87250 0.62300 0.07750 0.07300
C 	C 	0.75420 0.57530 0.08750 0.34900
C 	C 	0.93840 0.61070 0.02810 0.11700
C 	C 	0.97660 0.64800 0.07240 -0.06700
H 	H 	0.95770 0.65160 0.07920 0.07000
C 	C 	0.00870 0.66400 0.08860 0.00600
H 	H 	0.01220 0.67920 0.10630 0.05300
C 	C 	0.03560 0.65810 0.07900 -0.06200
C 	C 	0.03120 0.63620 0.05310 0.00300
H 	H 	0.04990 0.63200 0.04690 0.05900
C 	C 	0.99940 0.62080 0.03640 -0.07000
H 	H 	0.99640 0.60650 0.01820 0.06700
C 	C 	0.07070 0.67540 0.09570 0.29000
C 	C 	0.84170 0.47930 0.79230 0.29300
C 	C 	0.80460 0.44870 0.79330 -0.06200
C 	C 	0.77680 0.45160 0.77960 0.00500
H 	H 	0.78170 0.47340 0.76990 0.05800
C 	C 	0.74250 0.42330 0.77990 -0.06900
H 	H 	0.72360 0.42590 0.77120 0.07000
C 	C 	0.73570 0.39120 0.79280 0.02000
C 	C 	0.76270 0.38760 0.80630 -0.06600
H 	H 	0.75760 0.36530 0.81540 0.06900
C 	C 	0.79780 0.41680 0.80650 0.00300
H 	H 	0.81660 0.41450 0.81580 0.05600
C 	C 	0.69890 0.36020 0.79250 0.11800
O 	O 	0.15600 0.51700 0.48400 0.31800
O 	O 	0.13500 0.55200 0.49200 -0.15100
C 	C 	0.15650 0.54250 0.49970 0.38200
C 	C 	0.19640 0.56940 0.50710 -0.34800
C 	C 	0.22300 0.56050 0.50970 0.09800
C 	C 	0.25790 0.58680 0.51630 -0.01000
C 	C 	0.26620 0.62200 0.52000 0.00600
C 	C 	0.23960 0.63100 0.51770 0.03700
C 	C 	0.20470 0.60470 0.51100 0.03000
N 	N 	0.31210 0.68530 0.52000 -0.11900
C 	C 	0.30590 0.65210 0.52000 0.09300
O 	O 	0.02000 0.26400 0.78200 0.95900
O 	O 	0.99200 0.23440 0.73790 -0.31900
C 	C 	0.01800 0.35850 0.71400 0.01400
C 	C 	0.04200 0.34800 0.70430 0.38100
H 	H 	0.05820 0.35990 0.68770 -0.09200
C 	C 	0.04100 0.31820 0.71880 -0.38700
H 	H 	0.05720 0.31070 0.71200 0.16300
C 	C 	0.01700 0.30020 0.74300 0.41100
C 	C 	0.99300 0.31100 0.75290 -0.55400
H 	H 	0.97640 0.29840 0.76950 0.21200
C 	C 	0.99400 0.34050 0.73800 0.70500
H 	H 	0.97740 0.34760 0.74520 -0.17200
C 	C 	0.00900 0.26500 0.75200 1.68800
O 	O 	0.15060 0.48850 0.46540 -0.28300
O 	O 	0.13310 0.52340 0.48390 -0.43900
C 	C 	0.15760 0.51670 0.47950 -0.40700
C 	C 	0.19640 0.54790 0.48250 0.03100
C 	C 	0.22580 0.54350 0.47790 -0.00100
C 	C 	0.26010 0.57250 0.48100 0.00800
C 	C 	0.26500 0.60600 0.48870 0.01000
C 	C 	0.23560 0.61040 0.49330 -0.07500
C 	C 	0.20130 0.58130 0.49020 0.25300
N 	N 	0.30240 0.66930 0.48850 -0.12400
C 	C 	0.30280 0.63890 0.48850 0.11500
In	In	0.57314 0.86708 0.12432 2.00000
In	In	0.76244 0.80416 0.80062 2.00800
O 	O 	0.60997 0.84443 0.12223 -0.42400
O 	O 	0.58297 0.84483 0.07823 -0.43000
O 	O 	0.76257 0.77813 0.84823 -0.44500
O 	O 	0.73177 0.80543 0.84253 -0.43400
O 	O 	0.55377 0.88973 0.16363 -0.43200
O 	O 	0.59477 0.87593 0.17453 -0.42600
O 	O 	0.39147 0.88243 0.41403 -0.31600
O 	O 	0.42447 0.92883 0.44343 -0.48600
O 	O 	0.74537 0.03483 0.44813 -0.42300
O 	O 	0.75917 0.99803 0.42443 -0.42500
O 	O 	0.53237 0.81133 0.14123 -0.42900
O 	O 	0.51527 0.84003 0.10893 -0.41700
N 	N 	0.66987 0.73973 0.04823 -0.14400
N 	N 	0.67787 0.77263 0.00103 -0.14200
N 	N 	0.69317 0.72733 0.00253 -0.14200
N 	N 	0.54467 0.91743 0.32793 -0.14300
N 	N 	0.57657 0.94183 0.37573 -0.14000
N 	N 	0.60527 0.93353 0.33123 -0.14500
N 	N 	0.33897 0.70073 0.12593 -0.14200
C 	C 	0.60357 0.83723 0.09243 0.30200
C 	C 	0.62027 0.81863 0.07683 -0.07200
C 	C 	0.62117 0.81713 0.04423 0.01100
H 	H 	0.61037 0.82743 0.03163 0.04900
C 	C 	0.63787 0.80063 0.02943 -0.07300
H 	H 	0.63907 0.80043 0.00673 0.06900
C 	C 	0.65217 0.78463 0.04673 0.02200
C 	C 	0.65147 0.78543 0.07973 -0.07100
H 	H 	0.66157 0.77433 0.09213 0.06600
C 	C 	0.63537 0.80313 0.09453 0.01000
H 	H 	0.63497 0.80433 0.11713 0.05600
C 	C 	0.66787 0.76503 0.03113 0.11800
C 	C 	0.68187 0.72113 0.03293 0.11400
C 	C 	0.69217 0.75463 0.98773 0.11700
O 	O 	0.71307 0.62813 0.13013 -0.16800
O 	O 	0.67787 0.58463 0.09953 -1.68300
C 	C 	0.68197 0.69203 0.05073 0.01400
C 	C 	0.68707 0.69543 0.08313 -0.93200
H 	H 	0.68877 0.71563 0.09373 0.36000
C 	C 	0.68977 0.67023 0.10033 0.90600
H 	H 	0.69487 0.67383 0.12253 -0.23600
C 	C 	0.68557 0.64233 0.08703 -0.62400
C 	C 	0.67717 0.63523 0.05433 0.24900
H 	H 	0.67197 0.61303 0.04513 -0.13600
C 	C 	0.67677 0.66223 0.03573 -0.45600
H 	H 	0.67297 0.65953 0.01333 0.18600
C 	C 	0.69357 0.61673 0.10603 -0.94400
C 	C 	0.70517 0.76283 0.95523 0.01600
C 	C 	0.72557 0.74923 0.94223 -0.06800
H 	H 	0.73137 0.73453 0.95473 0.06800
C 	C 	0.73727 0.75693 0.91133 0.00500
H 	H 	0.75047 0.74683 0.90233 0.05400
C 	C 	0.73007 0.77963 0.89303 -0.06400
C 	C 	0.71017 0.79323 0.90623 0.00500
H 	H 	0.70467 0.80823 0.89383 0.05800
C 	C 	0.69837 0.78553 0.93693 -0.06700
H 	H 	0.68537 0.79583 0.94593 0.06600
C 	C 	0.74247 0.78813 0.85923 0.30400
C 	C 	0.57447 0.88773 0.18333 0.30300
C 	C 	0.60127 0.89993 0.23753 0.01200
H 	H 	0.61967 0.89623 0.22943 0.04900
C 	C 	0.57487 0.89663 0.21753 -0.07200
C 	C 	0.60197 0.90853 0.26893 -0.07200
H 	H 	0.62097 0.91143 0.28233 0.06400
C 	C 	0.57457 0.91323 0.28143 0.02100
C 	C 	0.54777 0.90963 0.26143 -0.06900
H 	H 	0.52887 0.91243 0.26963 0.07000
C 	C 	0.54817 0.90213 0.22963 0.01100
H 	H 	0.53007 0.90073 0.21593 0.05100
C 	C 	0.57507 0.92203 0.31523 0.12000
C 	C 	0.54667 0.92783 0.35753 0.11600
C 	C 	0.63857 0.95963 0.37963 0.01700
C 	C 	0.51347 0.92213 0.37343 0.03100
C 	C 	0.48087 0.90163 0.35943 -0.08800
H 	H 	0.47917 0.89183 0.33883 0.07600
C 	C 	0.45047 0.89533 0.37553 0.03200
H 	H 	0.42777 0.87873 0.36703 0.04800
C 	C 	0.45207 0.91223 0.40333 -0.09100
C 	C 	0.48507 0.93553 0.41603 0.02400
H 	H 	0.48657 0.94833 0.43493 0.05500
C 	C 	0.51647 0.94073 0.40173 -0.08100
H 	H 	0.53917 0.95633 0.41083 0.07300
C 	C 	0.42087 0.90863 0.42083 0.34900
C 	C 	0.60507 0.94403 0.36143 0.11700
C 	C 	0.64327 0.98133 0.40573 -0.06700
H 	H 	0.62437 0.98493 0.41253 0.07000
C 	C 	0.67537 0.99733 0.42193 0.00500
H 	H 	0.67887 0.01253 0.43963 0.05300
C 	C 	0.70227 0.99143 0.41233 -0.06200
C 	C 	0.69787 0.96953 0.38643 0.00300
H 	H 	0.71657 0.96533 0.38023 0.05900
C 	C 	0.66607 0.95413 0.36973 -0.07000
H 	H 	0.66307 0.93983 0.35153 0.06700
C 	C 	0.73737 0.00873 0.42903 0.29000
C 	C 	0.50837 0.81263 0.12563 0.29300
C 	C 	0.47127 0.78203 0.12663 -0.06200
C 	C 	0.44347 0.78493 0.11293 0.00500
H 	H 	0.44837 0.80673 0.10323 0.05800
C 	C 	0.40917 0.75663 0.11323 -0.06900
H 	H 	0.39027 0.75923 0.10453 0.07000
C 	C 	0.40237 0.72453 0.12613 0.02000
C 	C 	0.42937 0.72093 0.13963 -0.06600
H 	H 	0.42427 0.69863 0.14873 0.06900
C 	C 	0.46447 0.75013 0.13983 0.00300
H 	H 	0.48327 0.74783 0.14913 0.05600
C 	C 	0.36557 0.69353 0.12583 0.11800
O 	O 	0.82267 0.85033 0.81733 0.31800
O 	O 	0.80167 0.88533 0.82533 -0.15100
C 	C 	0.82317 0.87583 0.83303 0.38200
C 	C 	0.86307 0.90273 0.84043 -0.34800
C 	C 	0.88967 0.89383 0.84303 0.09800
C 	C 	0.92457 0.92013 0.84963 -0.01000
C 	C 	0.93287 0.95533 0.85333 0.00600
C 	C 	0.90627 0.96433 0.85103 0.03700
C 	C 	0.87137 0.93803 0.84433 0.03000
N 	N 	0.97877 0.01863 0.85333 -0.11900
C 	C 	0.97257 0.98543 0.85333 0.09300
O 	O 	0.68667 0.59733 0.11533 0.96000
O 	O 	0.65867 0.56773 0.07123 -0.31900
C 	C 	0.68467 0.69183 0.04733 0.01400
C 	C 	0.70867 0.68133 0.03763 0.38100
H 	H 	0.72487 0.69323 0.02103 -0.09300
C 	C 	0.70767 0.65153 0.05213 -0.38700
H 	H 	0.72387 0.64403 0.04533 0.16300
C 	C 	0.68367 0.63353 0.07633 0.41200
C 	C 	0.65967 0.64433 0.08623 -0.55500
H 	H 	0.64307 0.63173 0.10283 0.21200
C 	C 	0.66067 0.67383 0.07133 0.70600
H 	H 	0.64407 0.68093 0.07853 -0.17200
C 	C 	0.67567 0.59833 0.08533 1.68900
O 	O 	0.81727 0.82183 0.79873 -0.28300
O 	O 	0.79977 0.85673 0.81723 -0.43900
C 	C 	0.82427 0.85003 0.81283 -0.40700
C 	C 	0.86307 0.88123 0.81583 0.03100
C 	C 	0.89247 0.87683 0.81123 -0.00100
C 	C 	0.92677 0.90583 0.81433 0.00800
C 	C 	0.93167 0.93933 0.82203 0.01000
C 	C 	0.90227 0.94373 0.82663 -0.07500
C 	C 	0.86797 0.91463 0.82353 0.25300
N 	N 	0.96907 0.00263 0.82183 -0.12400
C 	C 	0.96947 0.97223 0.82183 0.11500
In	In	0.23980 0.20042 0.45766 2.00000
In	In	0.42910 0.13750 0.13396 2.00800
O 	O 	0.27663 0.17777 0.45557 -0.42400
O 	O 	0.24963 0.17817 0.41157 -0.43000
O 	O 	0.42923 0.11147 0.18157 -0.44500
O 	O 	0.39843 0.13877 0.17587 -0.43400
O 	O 	0.22043 0.22307 0.49697 -0.43200
O 	O 	0.26143 0.20927 0.50787 -0.42600
O 	O 	0.05813 0.21577 0.74737 -0.31600
O 	O 	0.09113 0.26217 0.77677 -0.48600
O 	O 	0.41203 0.36817 0.78147 -0.42200
O 	O 	0.42583 0.33137 0.75777 -0.42600
O 	O 	0.19903 0.14467 0.47457 -0.42900
O 	O 	0.18193 0.17337 0.44227 -0.41700
N 	N 	0.33653 0.07307 0.38157 -0.14400
N 	N 	0.34453 0.10597 0.33437 -0.14200
N 	N 	0.35983 0.06067 0.33587 -0.14200
N 	N 	0.21133 0.25077 0.66127 -0.14300
N 	N 	0.24323 0.27517 0.70907 -0.14000
N 	N 	0.27193 0.26687 0.66457 -0.14500
N 	N 	0.00563 0.03407 0.45927 -0.14200
C 	C 	0.27023 0.17057 0.42577 0.30200
C 	C 	0.28693 0.15197 0.41017 -0.07200
C 	C 	0.28783 0.15047 0.37757 0.01100
H 	H 	0.27703 0.16077 0.36497 0.04900
C 	C 	0.30453 0.13397 0.36277 -0.07300
H 	H 	0.30573 0.13377 0.34007 0.06900
C 	C 	0.31883 0.11797 0.38007 0.02200
C 	C 	0.31813 0.11877 0.41307 -0.07100
H 	H 	0.32823 0.10767 0.42547 0.06600
C 	C 	0.30203 0.13647 0.42787 0.01000
H 	H 	0.30163 0.13767 0.45047 0.05600
C 	C 	0.33453 0.09837 0.36447 0.11800
C 	C 	0.34853 0.05447 0.36627 0.11400
C 	C 	0.35883 0.08797 0.32107 0.11700
O 	O 	0.37973 0.96147 0.46347 -0.16800
O 	O 	0.34453 0.91797 0.43287 -1.68200
C 	C 	0.34863 0.02537 0.38407 0.01400
C 	C 	0.35373 0.02877 0.41647 -0.93100
H 	H 	0.35543 0.04897 0.42707 0.36000
C 	C 	0.35643 0.00357 0.43367 0.90500
H 	H 	0.36153 0.00717 0.45587 -0.23600
C 	C 	0.35223 0.97567 0.42037 -0.62300
C 	C 	0.34383 0.96857 0.38767 0.24900
H 	H 	0.33863 0.94637 0.37847 -0.13500
C 	C 	0.34343 0.99557 0.36907 -0.45600
H 	H 	0.33963 0.99287 0.34667 0.18600
C 	C 	0.36023 0.95007 0.43937 -0.94200
C 	C 	0.37183 0.09617 0.28857 0.01600
C 	C 	0.39223 0.08257 0.27557 -0.06800
H 	H 	0.39803 0.06787 0.28807 0.06800
C 	C 	0.40393 0.09027 0.24467 0.00500
H 	H 	0.41713 0.08017 0.23567 0.05400
C 	C 	0.39673 0.11297 0.22637 -0.06400
C 	C 	0.37683 0.12657 0.23957 0.00500
H 	H 	0.37133 0.14157 0.22717 0.05800
C 	C 	0.36503 0.11887 0.27027 -0.06700
H 	H 	0.35203 0.12917 0.27927 0.06600
C 	C 	0.40913 0.12147 0.19257 0.30400
C 	C 	0.24113 0.22107 0.51667 0.30300
C 	C 	0.26793 0.23327 0.57087 0.01200
H 	H 	0.28633 0.22957 0.56277 0.04900
C 	C 	0.24153 0.22997 0.55087 -0.07200
C 	C 	0.26863 0.24187 0.60227 -0.07200
H 	H 	0.28763 0.24477 0.61567 0.06400
C 	C 	0.24123 0.24657 0.61477 0.02100
C 	C 	0.21443 0.24297 0.59477 -0.06900
H 	H 	0.19553 0.24577 0.60297 0.07000
C 	C 	0.21483 0.23547 0.56297 0.01100
H 	H 	0.19673 0.23407 0.54927 0.05100
C 	C 	0.24173 0.25537 0.64857 0.12000
C 	C 	0.21333 0.26117 0.69087 0.11600
C 	C 	0.30523 0.29297 0.71297 0.01700
C 	C 	0.18013 0.25547 0.70677 0.03100
C 	C 	0.14753 0.23497 0.69277 -0.08800
H 	H 	0.14583 0.22517 0.67217 0.07600
C 	C 	0.11713 0.22867 0.70887 0.03200
H 	H 	0.09443 0.21207 0.70037 0.04800
C 	C 	0.11873 0.24557 0.73667 -0.09100
C 	C 	0.15173 0.26887 0.74937 0.02400
H 	H 	0.15323 0.28167 0.76827 0.05500
C 	C 	0.18313 0.27407 0.73507 -0.08100
H 	H 	0.20583 0.28967 0.74417 0.07300
C 	C 	0.08753 0.24197 0.75417 0.34900
C 	C 	0.27173 0.27737 0.69477 0.11700
C 	C 	0.30993 0.31467 0.73907 -0.06700
H 	H 	0.29103 0.31827 0.74587 0.07000
C 	C 	0.34203 0.33067 0.75527 0.00500
H 	H 	0.34553 0.34587 0.77297 0.05300
C 	C 	0.36893 0.32477 0.74567 -0.06200
C 	C 	0.36453 0.30287 0.71977 0.00300
H 	H 	0.38323 0.29867 0.71357 0.05900
C 	C 	0.33273 0.28747 0.70307 -0.07000
H 	H 	0.32973 0.27317 0.68487 0.06700
C 	C 	0.40403 0.34207 0.76237 0.29000
C 	C 	0.17503 0.14597 0.45897 0.29300
C 	C 	0.13793 0.11537 0.45997 -0.06200
C 	C 	0.11013 0.11827 0.44627 0.00500
H 	H 	0.11503 0.14007 0.43657 0.05800
C 	C 	0.07583 0.08997 0.44657 -0.06900
H 	H 	0.05693 0.09257 0.43787 0.07000
C 	C 	0.06903 0.05787 0.45947 0.02000
C 	C 	0.09603 0.05427 0.47297 -0.06600
H 	H 	0.09093 0.03197 0.48207 0.06900
C 	C 	0.13113 0.08347 0.47317 0.00300
H 	H 	0.14993 0.08117 0.48247 0.05600
C 	C 	0.03223 0.02687 0.45917 0.11800
O 	O 	0.48933 0.18367 0.15067 0.31800
O 	O 	0.46833 0.21867 0.15867 -0.15100
C 	C 	0.48983 0.20917 0.16637 0.38200
C 	C 	0.52973 0.23607 0.17377 -0.34800
C 	C 	0.55633 0.22717 0.17637 0.09800
C 	C 	0.59123 0.25347 0.18297 -0.01000
C 	C 	0.59953 0.28867 0.18667 0.00600
C 	C 	0.57293 0.29767 0.18437 0.03700
C 	C 	0.53803 0.27137 0.17767 0.03000
N 	N 	0.64543 0.35197 0.18667 -0.11900
C 	C 	0.63923 0.31877 0.18667 0.09300
O 	O 	0.35333 0.93067 0.44867 0.95900
O 	O 	0.32533 0.90107 0.40457 -0.31900
C 	C 	0.35133 0.02517 0.38067 0.01400
C 	C 	0.37533 0.01467 0.37097 0.38100
H 	H 	0.39153 0.02657 0.35437 -0.09200
C 	C 	0.37433 0.98487 0.38547 -0.38700
H 	H 	0.39053 0.97737 0.37867 0.16300
C 	C 	0.35033 0.96687 0.40967 0.41100
C 	C 	0.32633 0.97767 0.41957 -0.55400
H 	H 	0.30973 0.96507 0.43617 0.21200
C 	C 	0.32733 0.00717 0.40467 0.70500
H 	H 	0.31073 0.01427 0.41187 -0.17200
C 	C 	0.34233 0.93167 0.41867 1.68800
O 	O 	0.48393 0.15517 0.13207 -0.28300
O 	O 	0.46643 0.19007 0.15057 -0.43900
C 	C 	0.49093 0.18337 0.14617 -0.40700
C 	C 	0.52973 0.21457 0.14917 0.03100
C 	C 	0.55913 0.21017 0.14457 -0.00100
C 	C 	0.59343 0.23917 0.14767 0.00800
C 	C 	0.59833 0.27267 0.15537 0.01000
C 	C 	0.56893 0.27707 0.15997 -0.07500
C 	C 	0.53463 0.24797 0.15687 0.25300
N 	N 	0.63573 0.33597 0.15517 -0.12400
C 	C 	0.63613 0.30557 0.15517 0.11500
In	In	0.46625 0.37272 0.79099 2.00000
In	In	0.52917 0.62494 0.46729 2.00800
O 	O 	0.48890 0.43220 0.78890 -0.42400
O 	O 	0.48850 0.40480 0.74490 -0.43000
O 	O 	0.55520 0.65110 0.51490 -0.44500
O 	O 	0.52790 0.59300 0.50920 -0.43400
O 	O 	0.44360 0.33070 0.83030 -0.43200
O 	O 	0.45740 0.38550 0.84120 -0.42600
O 	O 	0.45090 0.17570 0.08070 -0.31600
O 	O 	0.40450 0.16230 0.11010 -0.48600
O 	O 	0.29850 0.37720 0.11480 -0.42300
O 	O 	0.33530 0.42780 0.09110 -0.42600
O 	O 	0.52200 0.38770 0.80790 -0.42900
O 	O 	0.49330 0.34190 0.77560 -0.41700
N 	N 	0.59360 0.59680 0.71490 -0.14400
N 	N 	0.56070 0.57190 0.66770 -0.14200
N 	N 	0.60600 0.63250 0.66920 -0.14200
N 	N 	0.41590 0.29390 0.99460 -0.14300
N 	N 	0.39150 0.30140 0.04240 -0.14000
N 	N 	0.39980 0.33840 0.99790 -0.14500
N 	N 	0.63260 0.30490 0.79260 -0.14200
C 	C 	0.49610 0.43300 0.75910 0.30200
C 	C 	0.51470 0.46830 0.74350 -0.07200
C 	C 	0.51620 0.47070 0.71090 0.01100
H 	H 	0.50590 0.44960 0.69830 0.04900
C 	C 	0.53270 0.50390 0.69610 -0.07300
H 	H 	0.53290 0.50530 0.67340 0.06900
C 	C 	0.54870 0.53420 0.71340 0.02200
C 	C 	0.54790 0.53270 0.74640 -0.07100
H 	H 	0.55900 0.55390 0.75880 0.06600
C 	C 	0.53020 0.49890 0.76120 0.01000
H 	H 	0.52900 0.49730 0.78380 0.05600
C 	C 	0.56830 0.56950 0.69780 0.11800
C 	C 	0.61220 0.62740 0.69960 0.11400
C 	C 	0.57870 0.60420 0.65440 0.11700
O 	O 	0.70520 0.75160 0.79680 -0.16800
O 	O 	0.74870 0.75990 0.76620 -1.68200
C 	C 	0.64130 0.65660 0.71740 0.01400
C 	C 	0.63790 0.65830 0.74980 -0.93200
H 	H 	0.61770 0.63980 0.76040 0.36000
C 	C 	0.66310 0.68620 0.76700 0.90500
H 	H 	0.65950 0.68770 0.78920 -0.23600
C 	C 	0.69100 0.70990 0.75370 -0.62400
C 	C 	0.69810 0.70860 0.72100 0.24900
H 	H 	0.72030 0.72560 0.71180 -0.13500
C 	C 	0.67110 0.68120 0.70240 -0.45600
H 	H 	0.67380 0.68010 0.68000 0.18600
C 	C 	0.71660 0.74350 0.77270 -0.94300
C 	C 	0.57050 0.60900 0.62190 0.01600
C 	C 	0.58410 0.64300 0.60890 -0.06800
H 	H 	0.59880 0.66350 0.62140 0.06800
C 	C 	0.57640 0.64700 0.57800 0.00500
H 	H 	0.58650 0.67030 0.56900 0.05400
C 	C 	0.55370 0.61710 0.55970 -0.06400
C 	C 	0.54010 0.58360 0.57290 0.00500
H 	H 	0.52510 0.56310 0.56050 0.05800
C 	C 	0.54780 0.57950 0.60360 -0.06700
H 	H 	0.53750 0.55620 0.61260 0.06600
C 	C 	0.54520 0.62100 0.52590 0.30400
C 	C 	0.44560 0.35340 0.85000 0.30300
C 	C 	0.43340 0.36800 0.90420 0.01200
H 	H 	0.43710 0.39010 0.89610 0.04900
C 	C 	0.43670 0.34490 0.88420 -0.07200
C 	C 	0.42480 0.36010 0.93560 -0.07200
H 	H 	0.42190 0.37620 0.94900 0.06400
C 	C 	0.42010 0.32800 0.94810 0.02100
C 	C 	0.42370 0.30480 0.92810 -0.06900
H 	H 	0.42090 0.28310 0.93630 0.07000
C 	C 	0.43120 0.31270 0.89630 0.01100
H 	H 	0.43260 0.29600 0.88260 0.05100
C 	C 	0.41130 0.31970 0.98190 0.12000
C 	C 	0.40550 0.28550 0.02420 0.11600
C 	C 	0.37370 0.34560 0.04630 0.01700
C 	C 	0.41120 0.25800 0.04010 0.03100
C 	C 	0.43170 0.24590 0.02610 -0.08800
H 	H 	0.44150 0.25400 0.00550 0.07600
C 	C 	0.43800 0.22180 0.04220 0.03200
H 	H 	0.45460 0.21570 0.03370 0.04800
C 	C 	0.42110 0.20650 0.07000 -0.09100
C 	C 	0.39780 0.21620 0.08270 0.02400
H 	H 	0.38500 0.20490 0.10160 0.05500
C 	C 	0.39260 0.24240 0.06840 -0.08100
H 	H 	0.37700 0.24950 0.07750 0.07300
C 	C 	0.42470 0.17890 0.08750 0.34900
C 	C 	0.38930 0.32770 0.02810 0.11700
C 	C 	0.35200 0.32860 0.07240 -0.06700
H 	H 	0.34840 0.30610 0.07920 0.07000
C 	C 	0.33600 0.34470 0.08860 0.00500
H 	H 	0.32080 0.33300 0.10630 0.05300
C 	C 	0.34190 0.37750 0.07900 -0.06200
C 	C 	0.36380 0.39500 0.05310 0.00300
H 	H 	0.36800 0.41790 0.04690 0.05900
C 	C 	0.37920 0.37860 0.03640 -0.07000
H 	H 	0.39350 0.38990 0.01820 0.06700
C 	C 	0.32460 0.39530 0.09570 0.29000
C 	C 	0.52070 0.36240 0.79230 0.29300
C 	C 	0.55130 0.35590 0.79330 -0.06200
C 	C 	0.54840 0.32520 0.77960 0.00500
H 	H 	0.52660 0.30830 0.76990 0.05800
C 	C 	0.57670 0.31920 0.77990 -0.06900
H 	H 	0.57410 0.29770 0.77120 0.07000
C 	C 	0.60880 0.34450 0.79280 0.02000
C 	C 	0.61240 0.37510 0.80630 -0.06600
H 	H 	0.63470 0.39230 0.81540 0.06900
C 	C 	0.58320 0.38100 0.80650 0.00300
H 	H 	0.58550 0.40210 0.81580 0.05600
C 	C 	0.63980 0.33870 0.79250 0.11800
O 	O 	0.48300 0.63900 0.48400 0.31800
O 	O 	0.44800 0.58300 0.49200 -0.15100
C 	C 	0.45750 0.61400 0.49970 0.38200
C 	C 	0.43060 0.62700 0.50710 -0.34800
C 	C 	0.43950 0.66250 0.50970 0.09800
C 	C 	0.41320 0.67110 0.51630 -0.01000
C 	C 	0.37800 0.64420 0.52000 0.00600
C 	C 	0.36900 0.60860 0.51770 0.03700
C 	C 	0.39530 0.60000 0.51100 0.03000
N 	N 	0.31470 0.62680 0.52000 -0.11900
C 	C 	0.34790 0.65380 0.52000 0.09300
O 	O 	0.73600 0.75600 0.78200 0.95900
O 	O 	0.76560 0.75760 0.73790 -0.31900
C 	C 	0.64150 0.65950 0.71400 0.01400
C 	C 	0.65200 0.69400 0.70430 0.38100
H 	H 	0.64010 0.69830 0.68770 -0.09200
C 	C 	0.68180 0.72280 0.71880 -0.38700
H 	H 	0.68930 0.74650 0.71200 0.16300
C 	C 	0.69980 0.71680 0.74300 0.41100
C 	C 	0.68900 0.68200 0.75290 -0.55500
H 	H 	0.70160 0.67800 0.76950 0.21200
C 	C 	0.65950 0.65350 0.73800 0.70600
H 	H 	0.65240 0.62980 0.74520 -0.17200
C 	C 	0.73500 0.74400 0.75200 1.68800
O 	O 	0.51150 0.66210 0.46540 -0.28300
O 	O 	0.47660 0.60970 0.48390 -0.43900
C 	C 	0.48330 0.64090 0.47950 -0.40700
C 	C 	0.45210 0.64850 0.48250 0.03100
C 	C 	0.45650 0.68230 0.47790 -0.00100
C 	C 	0.42750 0.68760 0.48100 0.00800
C 	C 	0.39400 0.65900 0.48870 0.01000
C 	C 	0.38960 0.62520 0.49330 -0.07500
C 	C 	0.41870 0.62000 0.49020 0.25300
N 	N 	0.33070 0.63310 0.48850 -0.12400
C 	C 	0.36110 0.66390 0.48850 0.11500
In	In	0.13292 0.70605 0.12432 2.00000
In	In	0.19584 0.95827 0.80062 2.00800
O 	O 	0.15557 0.76553 0.12223 -0.42400
O 	O 	0.15517 0.73813 0.07823 -0.43000
O 	O 	0.22187 0.98443 0.84823 -0.44500
O 	O 	0.19457 0.92633 0.84253 -0.43400
O 	O 	0.11027 0.66403 0.16363 -0.43200
O 	O 	0.12407 0.71883 0.17453 -0.42600
O 	O 	0.11757 0.50903 0.41403 -0.31600
O 	O 	0.07117 0.49563 0.44343 -0.48600
O 	O 	0.96517 0.71053 0.44813 -0.42200
O 	O 	0.00197 0.76113 0.42443 -0.42500
O 	O 	0.18867 0.72103 0.14123 -0.42900
O 	O 	0.15997 0.67523 0.10893 -0.41700
N 	N 	0.26027 0.93013 0.04823 -0.14400
N 	N 	0.22737 0.90523 0.00103 -0.14200
N 	N 	0.27267 0.96583 0.00253 -0.14200
N 	N 	0.08257 0.62723 0.32793 -0.14300
N 	N 	0.05817 0.63473 0.37573 -0.14000
N 	N 	0.06647 0.67173 0.33123 -0.14500
N 	N 	0.29927 0.63823 0.12593 -0.14200
C 	C 	0.16277 0.76633 0.09243 0.30200
C 	C 	0.18137 0.80163 0.07683 -0.07200
C 	C 	0.18287 0.80403 0.04423 0.01100
H 	H 	0.17257 0.78293 0.03163 0.04900
C 	C 	0.19937 0.83723 0.02943 -0.07300
H 	H 	0.19957 0.83863 0.00673 0.06900
C 	C 	0.21537 0.86753 0.04673 0.02200
C 	C 	0.21457 0.86603 0.07973 -0.07100
H 	H 	0.22567 0.88723 0.09213 0.06600
C 	C 	0.19687 0.83223 0.09453 0.01000
H 	H 	0.19567 0.83063 0.11713 0.05600
C 	C 	0.23497 0.90283 0.03113 0.11800
C 	C 	0.27887 0.96073 0.03293 0.11400
C 	C 	0.24537 0.93753 0.98773 0.11700
O 	O 	0.37187 0.08493 0.13013 -0.16800
O 	O 	0.41537 0.09323 0.09953 -1.68200
C 	C 	0.30797 0.98993 0.05073 0.01400
C 	C 	0.30457 0.99163 0.08313 -0.93200
H 	H 	0.28437 0.97313 0.09373 0.36000
C 	C 	0.32977 0.01953 0.10033 0.90500
H 	H 	0.32617 0.02103 0.12253 -0.23600
C 	C 	0.35767 0.04323 0.08703 -0.62300
C 	C 	0.36477 0.04193 0.05433 0.24900
H 	H 	0.38697 0.05893 0.04513 -0.13500
C 	C 	0.33777 0.01453 0.03573 -0.45600
H 	H 	0.34047 0.01343 0.01333 0.18600
C 	C 	0.38327 0.07683 0.10603 -0.94300
C 	C 	0.23717 0.94233 0.95523 0.01600
C 	C 	0.25077 0.97633 0.94223 -0.06800
H 	H 	0.26547 0.99683 0.95473 0.06800
C 	C 	0.24307 0.98033 0.91133 0.00500
H 	H 	0.25317 0.00363 0.90233 0.05400
C 	C 	0.22037 0.95043 0.89303 -0.06400
C 	C 	0.20677 0.91693 0.90623 0.00500
H 	H 	0.19177 0.89643 0.89383 0.05800
C 	C 	0.21447 0.91283 0.93693 -0.06700
H 	H 	0.20417 0.88953 0.94593 0.06600
C 	C 	0.21187 0.95433 0.85923 0.30400
C 	C 	0.11227 0.68673 0.18333 0.30300
C 	C 	0.10007 0.70133 0.23753 0.01200
H 	H 	0.10377 0.72343 0.22943 0.04900
C 	C 	0.10337 0.67823 0.21753 -0.07200
C 	C 	0.09147 0.69343 0.26893 -0.07200
H 	H 	0.08857 0.70953 0.28233 0.06400
C 	C 	0.08677 0.66133 0.28143 0.02100
C 	C 	0.09037 0.63813 0.26143 -0.06900
H 	H 	0.08757 0.61643 0.26963 0.07000
C 	C 	0.09787 0.64603 0.22963 0.01100
H 	H 	0.09927 0.62933 0.21593 0.05100
C 	C 	0.07797 0.65303 0.31523 0.12000
C 	C 	0.07217 0.61883 0.35753 0.11600
C 	C 	0.04037 0.67893 0.37963 0.01700
C 	C 	0.07787 0.59133 0.37343 0.03100
C 	C 	0.09837 0.57923 0.35943 -0.08800
H 	H 	0.10817 0.58733 0.33883 0.07600
C 	C 	0.10467 0.55513 0.37553 0.03200
H 	H 	0.12127 0.54903 0.36703 0.04800
C 	C 	0.08777 0.53983 0.40333 -0.09100
C 	C 	0.06447 0.54953 0.41603 0.02400
H 	H 	0.05167 0.53823 0.43493 0.05500
C 	C 	0.05927 0.57573 0.40173 -0.08100
H 	H 	0.04367 0.58283 0.41083 0.07300
C 	C 	0.09137 0.51223 0.42083 0.34900
C 	C 	0.05597 0.66103 0.36143 0.11700
C 	C 	0.01867 0.66193 0.40573 -0.06700
H 	H 	0.01507 0.63943 0.41253 0.07000
C 	C 	0.00267 0.67803 0.42193 0.00500
H 	H 	0.98747 0.66633 0.43963 0.05300
C 	C 	0.00857 0.71083 0.41233 -0.06200
C 	C 	0.03047 0.72833 0.38643 0.00300
H 	H 	0.03467 0.75123 0.38023 0.05900
C 	C 	0.04587 0.71193 0.36973 -0.07000
H 	H 	0.06017 0.72323 0.35153 0.06700
C 	C 	0.99127 0.72863 0.42903 0.29000
C 	C 	0.18737 0.69573 0.12563 0.29300
C 	C 	0.21797 0.68923 0.12663 -0.06200
C 	C 	0.21507 0.65853 0.11293 0.00500
H 	H 	0.19327 0.64163 0.10323 0.05800
C 	C 	0.24337 0.65253 0.11323 -0.06900
H 	H 	0.24077 0.63103 0.10453 0.07000
C 	C 	0.27547 0.67783 0.12613 0.02000
C 	C 	0.27907 0.70843 0.13963 -0.06600
H 	H 	0.30137 0.72563 0.14873 0.06900
C 	C 	0.24987 0.71433 0.13983 0.00300
H 	H 	0.25217 0.73543 0.14913 0.05600
C 	C 	0.30647 0.67203 0.12583 0.11800
O 	O 	0.14967 0.97233 0.81733 0.31800
O 	O 	0.11467 0.91633 0.82533 -0.15100
C 	C 	0.12417 0.94733 0.83303 0.38200
C 	C 	0.09727 0.96033 0.84043 -0.34800
C 	C 	0.10617 0.99583 0.84303 0.09800
C 	C 	0.07987 0.00443 0.84963 -0.01000
C 	C 	0.04467 0.97753 0.85333 0.00600
C 	C 	0.03567 0.94193 0.85103 0.03700
C 	C 	0.06197 0.93333 0.84433 0.03000
N 	N 	0.98137 0.96013 0.85333 -0.11900
C 	C 	0.01457 0.98713 0.85333 0.09300
O 	O 	0.40267 0.08933 0.11533 0.95900
O 	O 	0.43227 0.09093 0.07123 -0.31900
C 	C 	0.30817 0.99283 0.04733 0.01400
C 	C 	0.31867 0.02733 0.03763 0.38100
H 	H 	0.30677 0.03163 0.02103 -0.09200
C 	C 	0.34847 0.05613 0.05213 -0.38700
H 	H 	0.35597 0.07983 0.04533 0.16300
C 	C 	0.36647 0.05013 0.07633 0.41100
C 	C 	0.35567 0.01533 0.08623 -0.55500
H 	H 	0.36827 0.01133 0.10283 0.21200
C 	C 	0.32617 0.98683 0.07133 0.70600
H 	H 	0.31907 0.96313 0.07853 -0.17200
C 	C 	0.40167 0.07733 0.08533 1.68800
O 	O 	0.17817 0.99543 0.79873 -0.28300
O 	O 	0.14327 0.94303 0.81723 -0.43900
C 	C 	0.14997 0.97423 0.81283 -0.40700
C 	C 	0.11877 0.98183 0.81583 0.03100
C 	C 	0.12317 0.01563 0.81123 -0.00100
C 	C 	0.09417 0.02093 0.81433 0.00800
C 	C 	0.06067 0.99233 0.82203 0.01000
C 	C 	0.05627 0.95853 0.82663 -0.07500
C 	C 	0.08537 0.95333 0.82353 0.25300
N 	N 	0.99737 0.96643 0.82183 -0.12400
C 	C 	0.02777 0.99723 0.82183 0.11500
In	In	0.79958 0.03939 0.45766 2.00000
In	In	0.86250 0.29161 0.13396 2.00800
O 	O 	0.82223 0.09887 0.45557 -0.42400
O 	O 	0.82183 0.07147 0.41157 -0.43000
O 	O 	0.88853 0.31777 0.18157 -0.44500
O 	O 	0.86123 0.25967 0.17587 -0.43400
O 	O 	0.77693 0.99737 0.49697 -0.43200
O 	O 	0.79073 0.05217 0.50787 -0.42600
O 	O 	0.78423 0.84237 0.74737 -0.31600
O 	O 	0.73783 0.82897 0.77677 -0.48600
O 	O 	0.63183 0.04387 0.78147 -0.42300
O 	O 	0.66863 0.09447 0.75777 -0.42600
O 	O 	0.85533 0.05437 0.47457 -0.42900
O 	O 	0.82663 0.00857 0.44227 -0.41700
N 	N 	0.92693 0.26347 0.38157 -0.14400
N 	N 	0.89403 0.23857 0.33437 -0.14200
N 	N 	0.93933 0.29917 0.33587 -0.14200
N 	N 	0.74923 0.96057 0.66127 -0.14300
N 	N 	0.72483 0.96807 0.70907 -0.14000
N 	N 	0.73313 0.00507 0.66457 -0.14500
N 	N 	0.96593 0.97157 0.45927 -0.14200
C 	C 	0.82943 0.09967 0.42577 0.30200
C 	C 	0.84803 0.13497 0.41017 -0.07200
C 	C 	0.84953 0.13737 0.37757 0.01100
H 	H 	0.83923 0.11627 0.36497 0.04900
C 	C 	0.86603 0.17057 0.36277 -0.07300
H 	H 	0.86623 0.17197 0.34007 0.06900
C 	C 	0.88203 0.20087 0.38007 0.02200
C 	C 	0.88123 0.19937 0.41307 -0.07100
H 	H 	0.89233 0.22057 0.42547 0.06600
C 	C 	0.86353 0.16557 0.42787 0.01000
H 	H 	0.86233 0.16397 0.45047 0.05600
C 	C 	0.90163 0.23617 0.36447 0.11800
C 	C 	0.94553 0.29407 0.36627 0.11400
C 	C 	0.91203 0.27087 0.32107 0.11700
O 	O 	0.03853 0.41827 0.46347 -0.16800
O 	O 	0.08203 0.42657 0.43287 -1.68200
C 	C 	0.97463 0.32327 0.38407 0.01400
C 	C 	0.97123 0.32497 0.41647 -0.93200
H 	H 	0.95103 0.30647 0.42707 0.36000
C 	C 	0.99643 0.35287 0.43367 0.90500
H 	H 	0.99283 0.35437 0.45587 -0.23600
C 	C 	0.02433 0.37657 0.42037 -0.62400
C 	C 	0.03143 0.37527 0.38767 0.24900
H 	H 	0.05363 0.39227 0.37847 -0.13500
C 	C 	0.00443 0.34787 0.36907 -0.45600
H 	H 	0.00713 0.34677 0.34667 0.18600
C 	C 	0.04993 0.41017 0.43937 -0.94300
C 	C 	0.90383 0.27567 0.28857 0.01600
C 	C 	0.91743 0.30967 0.27557 -0.06800
H 	H 	0.93213 0.33017 0.28807 0.06800
C 	C 	0.90973 0.31367 0.24467 0.00500
H 	H 	0.91983 0.33697 0.23567 0.05400
C 	C 	0.88703 0.28377 0.22637 -0.06400
C 	C 	0.87343 0.25027 0.23957 0.00500
H 	H 	0.85843 0.22977 0.22717 0.05800
C 	C 	0.88113 0.24617 0.27027 -0.06700
H 	H 	0.87083 0.22287 0.27927 0.06600
C 	C 	0.87853 0.28767 0.19257 0.30400
C 	C 	0.77893 0.02007 0.51667 0.30300
C 	C 	0.76673 0.03467 0.57087 0.01200
H 	H 	0.77043 0.05677 0.56277 0.04900
C 	C 	0.77003 0.01157 0.55087 -0.07200
C 	C 	0.75813 0.02677 0.60227 -0.07200
H 	H 	0.75523 0.04287 0.61567 0.06400
C 	C 	0.75343 0.99467 0.61477 0.02100
C 	C 	0.75703 0.97147 0.59477 -0.06900
H 	H 	0.75423 0.94977 0.60297 0.07000
C 	C 	0.76453 0.97937 0.56297 0.01100
H 	H 	0.76593 0.96267 0.54927 0.05100
C 	C 	0.74463 0.98637 0.64857 0.12000
C 	C 	0.73883 0.95217 0.69087 0.11600
C 	C 	0.70703 0.01227 0.71297 0.01700
C 	C 	0.74453 0.92467 0.70677 0.03100
C 	C 	0.76503 0.91257 0.69277 -0.08800
H 	H 	0.77483 0.92067 0.67217 0.07600
C 	C 	0.77133 0.88847 0.70887 0.03200
H 	H 	0.78793 0.88237 0.70037 0.04800
C 	C 	0.75443 0.87317 0.73667 -0.09100
C 	C 	0.73113 0.88287 0.74937 0.02400
H 	H 	0.71833 0.87157 0.76827 0.05500
C 	C 	0.72593 0.90907 0.73507 -0.08100
H 	H 	0.71033 0.91617 0.74417 0.07300
C 	C 	0.75803 0.84557 0.75417 0.34900
C 	C 	0.72263 0.99437 0.69477 0.11700
C 	C 	0.68533 0.99527 0.73907 -0.06700
H 	H 	0.68173 0.97277 0.74587 0.07000
C 	C 	0.66933 0.01137 0.75527 0.00600
H 	H 	0.65413 0.99967 0.77297 0.05300
C 	C 	0.67523 0.04417 0.74567 -0.06200
C 	C 	0.69713 0.06167 0.71977 0.00300
H 	H 	0.70133 0.08457 0.71357 0.05900
C 	C 	0.71253 0.04527 0.70307 -0.07000
H 	H 	0.72683 0.05657 0.68487 0.06700
C 	C 	0.65793 0.06197 0.76237 0.29000
C 	C 	0.85403 0.02907 0.45897 0.29300
C 	C 	0.88463 0.02257 0.45997 -0.06200
C 	C 	0.88173 0.99187 0.44627 0.00500
H 	H 	0.85993 0.97497 0.43657 0.05800
C 	C 	0.91003 0.98587 0.44657 -0.06900
H 	H 	0.90743 0.96437 0.43787 0.07000
C 	C 	0.94213 0.01117 0.45947 0.02000
C 	C 	0.94573 0.04177 0.47297 -0.06600
H 	H 	0.96803 0.05897 0.48207 0.06900
C 	C 	0.91653 0.04767 0.47317 0.00300
H 	H 	0.91883 0.06877 0.48247 0.05600
C 	C 	0.97313 0.00537 0.45917 0.11800
O 	O 	0.81633 0.30567 0.15067 0.31800
O 	O 	0.78133 0.24967 0.15867 -0.15100
C 	C 	0.79083 0.28067 0.16637 0.38200
C 	C 	0.76393 0.29367 0.17377 -0.34800
C 	C 	0.77283 0.32917 0.17637 0.09800
C 	C 	0.74653 0.33777 0.18297 -0.01000
C 	C 	0.71133 0.31087 0.18667 0.00600
C 	C 	0.70233 0.27527 0.18437 0.03700
C 	C 	0.72863 0.26667 0.17767 0.03000
N 	N 	0.64803 0.29347 0.18667 -0.11900
C 	C 	0.68123 0.32047 0.18667 0.09300
O 	O 	0.06933 0.42267 0.44867 0.95900
O 	O 	0.09893 0.42427 0.40457 -0.31900
C 	C 	0.97483 0.32617 0.38067 0.01400
C 	C 	0.98533 0.36067 0.37097 0.38100
H 	H 	0.97343 0.36497 0.35437 -0.09300
C 	C 	0.01513 0.38947 0.38547 -0.38700
H 	H 	0.02263 0.41317 0.37867 0.16300
C 	C 	0.03313 0.38347 0.40967 0.41100
C 	C 	0.02233 0.34867 0.41957 -0.55500
H 	H 	0.03493 0.34467 0.43617 0.21200
C 	C 	0.99283 0.32017 0.40467 0.70600
H 	H 	0.98573 0.29647 0.41187 -0.17200
C 	C 	0.06833 0.41067 0.41867 1.68900
O 	O 	0.84483 0.32877 0.13207 -0.28300
O 	O 	0.80993 0.27637 0.15057 -0.43900
C 	C 	0.81663 0.30757 0.14617 -0.40700
C 	C 	0.78543 0.31517 0.14917 0.03100
C 	C 	0.78983 0.34897 0.14457 -0.00100
C 	C 	0.76083 0.35427 0.14767 0.00800
C 	C 	0.72733 0.32567 0.15537 0.01000
C 	C 	0.72293 0.29187 0.15997 -0.07500
C 	C 	0.75203 0.28667 0.15687 0.25300
N 	N 	0.66403 0.29977 0.15517 -0.12400
C 	C 	0.69443 0.33057 0.15517 0.11500
In	In	0.37272 0.90647 0.20901 2.00000
In	In	0.62494 0.09577 0.53271 2.00800
O 	O 	0.43220 0.94330 0.21110 -0.42400
O 	O 	0.40480 0.91630 0.25510 -0.43000
O 	O 	0.65110 0.09590 0.48510 -0.44500
O 	O 	0.59300 0.06510 0.49080 -0.43400
O 	O 	0.33070 0.88710 0.16970 -0.43200
O 	O 	0.38550 0.92810 0.15880 -0.42600
O 	O 	0.17570 0.72480 0.91930 -0.31600
O 	O 	0.16230 0.75780 0.88990 -0.48600
O 	O 	0.37720 0.07870 0.88520 -0.42300
O 	O 	0.42780 0.09250 0.90890 -0.42600
O 	O 	0.38770 0.86570 0.19210 -0.42900
O 	O 	0.34190 0.84860 0.22440 -0.41700
N 	N 	0.59680 0.00320 0.28510 -0.14400
N 	N 	0.57190 0.01120 0.33230 -0.14200
N 	N 	0.63250 0.02650 0.33080 -0.14200
N 	N 	0.29390 0.87800 0.00540 -0.14300
N 	N 	0.30140 0.90990 0.95760 -0.14000
N 	N 	0.33840 0.93860 0.00210 -0.14500
N 	N 	0.30490 0.67230 0.20740 -0.14200
C 	C 	0.43300 0.93690 0.24090 0.30200
C 	C 	0.46830 0.95360 0.25650 -0.07200
C 	C 	0.47070 0.95450 0.28910 0.01100
H 	H 	0.44960 0.94370 0.30170 0.04900
C 	C 	0.50390 0.97120 0.30390 -0.07300
H 	H 	0.50530 0.97240 0.32660 0.06900
C 	C 	0.53420 0.98550 0.28660 0.02200
C 	C 	0.53270 0.98480 0.25360 -0.07100
H 	H 	0.55390 0.99490 0.24120 0.06600
C 	C 	0.49890 0.96870 0.23880 0.01000
H 	H 	0.49730 0.96830 0.21620 0.05600
C 	C 	0.56950 0.00120 0.30220 0.11800
C 	C 	0.62740 0.01520 0.30040 0.11400
C 	C 	0.60420 0.02550 0.34560 0.11700
O 	O 	0.75160 0.04640 0.20320 -0.16800
O 	O 	0.75990 0.01120 0.23380 -1.68200
C 	C 	0.65660 0.01530 0.28260 0.01400
C 	C 	0.65830 0.02040 0.25020 -0.93200
H 	H 	0.63980 0.02210 0.23960 0.36000
C 	C 	0.68620 0.02310 0.23300 0.90500
H 	H 	0.68770 0.02820 0.21080 -0.23600
C 	C 	0.70990 0.01890 0.24630 -0.62400
C 	C 	0.70860 0.01050 0.27900 0.24900
H 	H 	0.72560 0.00530 0.28820 -0.13500
C 	C 	0.68120 0.01010 0.29760 -0.45600
H 	H 	0.68010 0.00630 0.32000 0.18600
C 	C 	0.74350 0.02690 0.22730 -0.94300
C 	C 	0.60900 0.03850 0.37810 0.01600
C 	C 	0.64300 0.05890 0.39110 -0.06800
H 	H 	0.66350 0.06470 0.37860 0.06800
C 	C 	0.64700 0.07060 0.42200 0.00500
H 	H 	0.67030 0.08380 0.43100 0.05400
C 	C 	0.61710 0.06340 0.44030 -0.06400
C 	C 	0.58360 0.04350 0.42710 0.00500
H 	H 	0.56310 0.03800 0.43950 0.05800
C 	C 	0.57950 0.03170 0.39640 -0.06700
H 	H 	0.55620 0.01870 0.38740 0.06600
C 	C 	0.62100 0.07580 0.47410 0.30400
C 	C 	0.35340 0.90780 0.15000 0.30300
C 	C 	0.36800 0.93460 0.09580 0.01200
H 	H 	0.39010 0.95300 0.10390 0.04900
C 	C 	0.34490 0.90820 0.11580 -0.07200
C 	C 	0.36010 0.93530 0.06440 -0.07200
H 	H 	0.37620 0.95430 0.05100 0.06400
C 	C 	0.32800 0.90790 0.05190 0.02100
C 	C 	0.30480 0.88110 0.07190 -0.06900
H 	H 	0.28310 0.86220 0.06370 0.07000
C 	C 	0.31270 0.88150 0.10370 0.01100
H 	H 	0.29600 0.86340 0.11740 0.05100
C 	C 	0.31970 0.90840 0.01810 0.12000
C 	C 	0.28550 0.88000 0.97580 0.11600
C 	C 	0.34560 0.97190 0.95370 0.01700
C 	C 	0.25800 0.84680 0.95990 0.03100
C 	C 	0.24590 0.81420 0.97390 -0.08800
H 	H 	0.25400 0.81250 0.99450 0.07600
C 	C 	0.22180 0.78380 0.95780 0.03200
H 	H 	0.21570 0.76110 0.96630 0.04800
C 	C 	0.20650 0.78540 0.93000 -0.09100
C 	C 	0.21620 0.81840 0.91730 0.02400
H 	H 	0.20490 0.81990 0.89840 0.05500
C 	C 	0.24240 0.84980 0.93160 -0.08100
H 	H 	0.24950 0.87250 0.92250 0.07300
C 	C 	0.17890 0.75420 0.91250 0.34900
C 	C 	0.32770 0.93840 0.97190 0.11700
C 	C 	0.32860 0.97660 0.92760 -0.06800
H 	H 	0.30610 0.95770 0.92080 0.07000
C 	C 	0.34470 0.00870 0.91140 0.00600
H 	H 	0.33300 0.01220 0.89370 0.05300
C 	C 	0.37750 0.03560 0.92100 -0.06200
C 	C 	0.39500 0.03120 0.94690 0.00300
H 	H 	0.41790 0.04990 0.95310 0.05900
C 	C 	0.37860 0.99940 0.96360 -0.07000
H 	H 	0.38990 0.99640 0.98180 0.06700
C 	C 	0.39530 0.07070 0.90430 0.29000
C 	C 	0.36240 0.84170 0.20770 0.29300
C 	C 	0.35590 0.80460 0.20670 -0.06200
C 	C 	0.32520 0.77680 0.22040 0.00500
H 	H 	0.30830 0.78170 0.23010 0.05800
C 	C 	0.31920 0.74250 0.22010 -0.06900
H 	H 	0.29770 0.72360 0.22880 0.07000
C 	C 	0.34450 0.73570 0.20720 0.02000
C 	C 	0.37510 0.76270 0.19370 -0.06600
H 	H 	0.39230 0.75760 0.18460 0.06900
C 	C 	0.38100 0.79780 0.19350 0.00300
H 	H 	0.40210 0.81660 0.18420 0.05600
C 	C 	0.33870 0.69890 0.20750 0.11800
O 	O 	0.63900 0.15600 0.51600 0.31800
O 	O 	0.58300 0.13500 0.50800 -0.15100
C 	C 	0.61400 0.15650 0.50030 0.38200
C 	C 	0.62700 0.19640 0.49290 -0.34800
C 	C 	0.66250 0.22300 0.49030 0.09800
C 	C 	0.67110 0.25790 0.48370 -0.01000
C 	C 	0.64420 0.26620 0.48000 0.00600
C 	C 	0.60860 0.23960 0.48230 0.03700
C 	C 	0.60000 0.20470 0.48900 0.03000
N 	N 	0.62680 0.31210 0.48000 -0.11900
C 	C 	0.65380 0.30590 0.48000 0.09300
O 	O 	0.75600 0.02000 0.21800 0.95900
O 	O 	0.75760 0.99200 0.26210 -0.31900
C 	C 	0.65950 0.01800 0.28600 0.01400
C 	C 	0.69400 0.04200 0.29570 0.38100
H 	H 	0.69830 0.05820 0.31230 -0.09200
C 	C 	0.72280 0.04100 0.28120 -0.38700
H 	H 	0.74650 0.05720 0.28800 0.16300
C 	C 	0.71680 0.01700 0.25700 0.41100
C 	C 	0.68200 0.99300 0.24710 -0.55500
H 	H 	0.67800 0.97640 0.23050 0.21200
C 	C 	0.65350 0.99400 0.26200 0.70600
H 	H 	0.62980 0.97740 0.25480 -0.17200
C 	C 	0.74400 0.00900 0.24800 1.68900
O 	O 	0.66210 0.15060 0.53460 -0.28300
O 	O 	0.60970 0.13310 0.51610 -0.43900
C 	C 	0.64090 0.15760 0.52050 -0.40700
C 	C 	0.64850 0.19640 0.51750 0.03100
C 	C 	0.68230 0.22580 0.52210 -0.00100
C 	C 	0.68760 0.26010 0.51900 0.00800
C 	C 	0.65900 0.26500 0.51130 0.01000
C 	C 	0.62520 0.23560 0.50670 -0.07500
C 	C 	0.62000 0.20130 0.50980 0.25300
N 	N 	0.63310 0.30240 0.51150 -0.12400
C 	C 	0.66390 0.30280 0.51150 0.11500
In	In	0.03939 0.23980 0.54234 2.00000
In	In	0.29161 0.42910 0.86604 2.00800
O 	O 	0.09887 0.27663 0.54443 -0.42400
O 	O 	0.07147 0.24963 0.58843 -0.43000
O 	O 	0.31777 0.42923 0.81843 -0.44500
O 	O 	0.25967 0.39843 0.82413 -0.43400
O 	O 	0.99737 0.22043 0.50303 -0.43200
O 	O 	0.05217 0.26143 0.49213 -0.42600
O 	O 	0.84237 0.05813 0.25263 -0.31600
O 	O 	0.82897 0.09113 0.22323 -0.48600
O 	O 	0.04387 0.41203 0.21853 -0.42300
O 	O 	0.09447 0.42583 0.24223 -0.42600
O 	O 	0.05437 0.19903 0.52543 -0.42900
O 	O 	0.00857 0.18193 0.55773 -0.41700
N 	N 	0.26347 0.33653 0.61843 -0.14400
N 	N 	0.23857 0.34453 0.66563 -0.14200
N 	N 	0.29917 0.35983 0.66413 -0.14200
N 	N 	0.96057 0.21133 0.33873 -0.14300
N 	N 	0.96807 0.24323 0.29093 -0.14000
N 	N 	0.00507 0.27193 0.33543 -0.14500
N 	N 	0.97157 0.00563 0.54073 -0.14200
C 	C 	0.09967 0.27023 0.57423 0.30200
C 	C 	0.13497 0.28693 0.58983 -0.07200
C 	C 	0.13737 0.28783 0.62243 0.01100
H 	H 	0.11627 0.27703 0.63503 0.04900
C 	C 	0.17057 0.30453 0.63723 -0.07300
H 	H 	0.17197 0.30573 0.65993 0.06900
C 	C 	0.20087 0.31883 0.61993 0.02200
C 	C 	0.19937 0.31813 0.58693 -0.07100
H 	H 	0.22057 0.32823 0.57453 0.06600
C 	C 	0.16557 0.30203 0.57213 0.01000
H 	H 	0.16397 0.30163 0.54953 0.05600
C 	C 	0.23617 0.33453 0.63553 0.11800
C 	C 	0.29407 0.34853 0.63373 0.11400
C 	C 	0.27087 0.35883 0.67893 0.11700
O 	O 	0.41827 0.37973 0.53653 -0.16800
O 	O 	0.42657 0.34453 0.56713 -1.68200
C 	C 	0.32327 0.34863 0.61593 0.01400
C 	C 	0.32497 0.35373 0.58353 -0.93200
H 	H 	0.30647 0.35543 0.57293 0.36000
C 	C 	0.35287 0.35643 0.56633 0.90500
H 	H 	0.35437 0.36153 0.54413 -0.23600
C 	C 	0.37657 0.35223 0.57963 -0.62400
C 	C 	0.37527 0.34383 0.61233 0.24900
H 	H 	0.39227 0.33863 0.62153 -0.13500
C 	C 	0.34787 0.34343 0.63093 -0.45600
H 	H 	0.34677 0.33963 0.65333 0.18600
C 	C 	0.41017 0.36023 0.56063 -0.94300
C 	C 	0.27567 0.37183 0.71143 0.01600
C 	C 	0.30967 0.39223 0.72443 -0.06800
H 	H 	0.33017 0.39803 0.71193 0.06800
C 	C 	0.31367 0.40393 0.75533 0.00500
H 	H 	0.33697 0.41713 0.76433 0.05400
C 	C 	0.28377 0.39673 0.77363 -0.06400
C 	C 	0.25027 0.37683 0.76043 0.00500
H 	H 	0.22977 0.37133 0.77283 0.05800
C 	C 	0.24617 0.36503 0.72973 -0.06700
H 	H 	0.22287 0.35203 0.72073 0.06600
C 	C 	0.28767 0.40913 0.80743 0.30400
C 	C 	0.02007 0.24113 0.48333 0.30300
C 	C 	0.03467 0.26793 0.42913 0.01200
H 	H 	0.05677 0.28633 0.43723 0.04900
C 	C 	0.01157 0.24153 0.44913 -0.07200
C 	C 	0.02677 0.26863 0.39773 -0.07200
H 	H 	0.04287 0.28763 0.38433 0.06400
C 	C 	0.99467 0.24123 0.38523 0.02100
C 	C 	0.97147 0.21443 0.40523 -0.06900
H 	H 	0.94977 0.19553 0.39703 0.07000
C 	C 	0.97937 0.21483 0.43703 0.01100
H 	H 	0.96267 0.19673 0.45073 0.05100
C 	C 	0.98637 0.24173 0.35143 0.12000
C 	C 	0.95217 0.21333 0.30913 0.11600
C 	C 	0.01227 0.30523 0.28703 0.01700
C 	C 	0.92467 0.18013 0.29323 0.03100
C 	C 	0.91257 0.14753 0.30723 -0.08800
H 	H 	0.92067 0.14583 0.32783 0.07600
C 	C 	0.88847 0.11713 0.29113 0.03200
H 	H 	0.88237 0.09443 0.29963 0.04800
C 	C 	0.87317 0.11873 0.26333 -0.09100
C 	C 	0.88287 0.15173 0.25063 0.02400
H 	H 	0.87157 0.15323 0.23173 0.05500
C 	C 	0.90907 0.18313 0.26493 -0.08100
H 	H 	0.91617 0.20583 0.25583 0.07300
C 	C 	0.84557 0.08753 0.24583 0.34900
C 	C 	0.99437 0.27173 0.30523 0.11700
C 	C 	0.99527 0.30993 0.26093 -0.06800
H 	H 	0.97277 0.29103 0.25413 0.07000
C 	C 	0.01137 0.34203 0.24473 0.00600
H 	H 	0.99967 0.34553 0.22703 0.05300
C 	C 	0.04417 0.36893 0.25433 -0.06200
C 	C 	0.06167 0.36453 0.28023 0.00300
H 	H 	0.08457 0.38323 0.28643 0.05900
C 	C 	0.04527 0.33273 0.29693 -0.07000
H 	H 	0.05657 0.32973 0.31513 0.06700
C 	C 	0.06197 0.40403 0.23763 0.29000
C 	C 	0.02907 0.17503 0.54103 0.29300
C 	C 	0.02257 0.13793 0.54003 -0.06200
C 	C 	0.99187 0.11013 0.55373 0.00500
H 	H 	0.97497 0.11503 0.56343 0.05800
C 	C 	0.98587 0.07583 0.55343 -0.06900
H 	H 	0.96437 0.05693 0.56213 0.07000
C 	C 	0.01117 0.06903 0.54053 0.02000
C 	C 	0.04177 0.09603 0.52703 -0.06600
H 	H 	0.05897 0.09093 0.51793 0.06900
C 	C 	0.04767 0.13113 0.52683 0.00300
H 	H 	0.06877 0.14993 0.51753 0.05600
C 	C 	0.00537 0.03223 0.54083 0.11800
O 	O 	0.30567 0.48933 0.84933 0.31800
O 	O 	0.24967 0.46833 0.84133 -0.15100
C 	C 	0.28067 0.48983 0.83363 0.38200
C 	C 	0.29367 0.52973 0.82623 -0.34800
C 	C 	0.32917 0.55633 0.82363 0.09800
C 	C 	0.33777 0.59123 0.81703 -0.01000
C 	C 	0.31087 0.59953 0.81333 0.00600
C 	C 	0.27527 0.57293 0.81563 0.03700
C 	C 	0.26667 0.53803 0.82233 0.03000
N 	N 	0.29347 0.64543 0.81333 -0.11900
C 	C 	0.32047 0.63923 0.81333 0.09300
O 	O 	0.42267 0.35333 0.55133 0.95900
O 	O 	0.42427 0.32533 0.59543 -0.31900
C 	C 	0.32617 0.35133 0.61933 0.01400
C 	C 	0.36067 0.37533 0.62903 0.38100
H 	H 	0.36497 0.39153 0.64563 -0.09200
C 	C 	0.38947 0.37433 0.61453 -0.38700
H 	H 	0.41317 0.39053 0.62133 0.16300
C 	C 	0.38347 0.35033 0.59033 0.41100
C 	C 	0.34867 0.32633 0.58043 -0.55500
H 	H 	0.34467 0.30973 0.56383 0.21200
C 	C 	0.32017 0.32733 0.59533 0.70600
H 	H 	0.29647 0.31073 0.58813 -0.17200
C 	C 	0.41067 0.34233 0.58133 1.68900
O 	O 	0.32877 0.48393 0.86793 -0.28300
O 	O 	0.27637 0.46643 0.84943 -0.43900
C 	C 	0.30757 0.49093 0.85383 -0.40700
C 	C 	0.31517 0.52973 0.85083 0.03100
C 	C 	0.34897 0.55913 0.85543 -0.00100
C 	C 	0.35427 0.59343 0.85233 0.00800
C 	C 	0.32567 0.59833 0.84463 0.01000
C 	C 	0.29187 0.56893 0.84003 -0.07500
C 	C 	0.28667 0.53463 0.84313 0.25300
N 	N 	0.29977 0.63573 0.84483 -0.12400
C 	C 	0.33057 0.63613 0.84483 0.11500
In	In	0.70605 0.57314 0.87568 2.00000
In	In	0.95827 0.76244 0.19938 2.00800
O 	O 	0.76553 0.60997 0.87777 -0.42400
O 	O 	0.73813 0.58297 0.92177 -0.43000
O 	O 	0.98443 0.76257 0.15177 -0.44500
O 	O 	0.92633 0.73177 0.15747 -0.43400
O 	O 	0.66403 0.55377 0.83637 -0.43200
O 	O 	0.71883 0.59477 0.82547 -0.42600
O 	O 	0.50903 0.39147 0.58597 -0.31600
O 	O 	0.49563 0.42447 0.55657 -0.48600
O 	O 	0.71053 0.74537 0.55187 -0.42300
O 	O 	0.76113 0.75917 0.57557 -0.42600
O 	O 	0.72103 0.53237 0.85877 -0.42900
O 	O 	0.67523 0.51527 0.89107 -0.41700
N 	N 	0.93013 0.66987 0.95177 -0.14400
N 	N 	0.90523 0.67787 0.99897 -0.14200
N 	N 	0.96583 0.69317 0.99747 -0.14200
N 	N 	0.62723 0.54467 0.67207 -0.14300
N 	N 	0.63473 0.57657 0.62427 -0.14000
N 	N 	0.67173 0.60527 0.66877 -0.14500
N 	N 	0.63823 0.33897 0.87407 -0.14200
C 	C 	0.76633 0.60357 0.90757 0.30200
C 	C 	0.80163 0.62027 0.92317 -0.07200
C 	C 	0.80403 0.62117 0.95577 0.01100
H 	H 	0.78293 0.61037 0.96837 0.04900
C 	C 	0.83723 0.63787 0.97057 -0.07300
H 	H 	0.83863 0.63907 0.99327 0.06900
C 	C 	0.86753 0.65217 0.95327 0.02200
C 	C 	0.86603 0.65147 0.92027 -0.07100
H 	H 	0.88723 0.66157 0.90787 0.06600
C 	C 	0.83223 0.63537 0.90547 0.01000
H 	H 	0.83063 0.63497 0.88287 0.05600
C 	C 	0.90283 0.66787 0.96887 0.11800
C 	C 	0.96073 0.68187 0.96707 0.11400
C 	C 	0.93753 0.69217 0.01227 0.11700
O 	O 	0.08493 0.71307 0.86987 -0.16800
O 	O 	0.09323 0.67787 0.90047 -1.68200
C 	C 	0.98993 0.68197 0.94927 0.01400
C 	C 	0.99163 0.68707 0.91687 -0.93100
H 	H 	0.97313 0.68877 0.90627 0.36000
C 	C 	0.01953 0.68977 0.89967 0.90500
H 	H 	0.02103 0.69487 0.87747 -0.23600
C 	C 	0.04323 0.68557 0.91297 -0.62300
C 	C 	0.04193 0.67717 0.94567 0.24900
H 	H 	0.05893 0.67197 0.95487 -0.13500
C 	C 	0.01453 0.67677 0.96427 -0.45600
H 	H 	0.01343 0.67297 0.98667 0.18600
C 	C 	0.07683 0.69357 0.89397 -0.94200
C 	C 	0.94233 0.70517 0.04477 0.01600
C 	C 	0.97633 0.72557 0.05777 -0.06800
H 	H 	0.99683 0.73137 0.04527 0.06800
C 	C 	0.98033 0.73727 0.08867 0.00500
H 	H 	0.00363 0.75047 0.09767 0.05400
C 	C 	0.95043 0.73007 0.10697 -0.06400
C 	C 	0.91693 0.71017 0.09377 0.00500
H 	H 	0.89643 0.70467 0.10617 0.05800
C 	C 	0.91283 0.69837 0.06307 -0.06700
H 	H 	0.88953 0.68537 0.05407 0.06600
C 	C 	0.95433 0.74247 0.14077 0.30400
C 	C 	0.68673 0.57447 0.81667 0.30300
C 	C 	0.70133 0.60127 0.76247 0.01200
H 	H 	0.72343 0.61967 0.77057 0.04900
C 	C 	0.67823 0.57487 0.78247 -0.07200
C 	C 	0.69343 0.60197 0.73107 -0.07200
H 	H 	0.70953 0.62097 0.71767 0.06400
C 	C 	0.66133 0.57457 0.71857 0.02100
C 	C 	0.63813 0.54777 0.73857 -0.06900
H 	H 	0.61643 0.52887 0.73037 0.07000
C 	C 	0.64603 0.54817 0.77037 0.01100
H 	H 	0.62933 0.53007 0.78407 0.05100
C 	C 	0.65303 0.57507 0.68477 0.12000
C 	C 	0.61883 0.54667 0.64247 0.11600
C 	C 	0.67893 0.63857 0.62037 0.01700
C 	C 	0.59133 0.51347 0.62657 0.03100
C 	C 	0.57923 0.48087 0.64057 -0.08800
H 	H 	0.58733 0.47917 0.66117 0.07600
C 	C 	0.55513 0.45047 0.62447 0.03200
H 	H 	0.54903 0.42777 0.63297 0.04800
C 	C 	0.53983 0.45207 0.59667 -0.09100
C 	C 	0.54953 0.48507 0.58397 0.02400
H 	H 	0.53823 0.48657 0.56507 0.05500
C 	C 	0.57573 0.51647 0.59827 -0.08100
H 	H 	0.58283 0.53917 0.58917 0.07300
C 	C 	0.51223 0.42087 0.57917 0.34900
C 	C 	0.66103 0.60507 0.63857 0.11700
C 	C 	0.66193 0.64327 0.59427 -0.06700
H 	H 	0.63943 0.62437 0.58747 0.07000
C 	C 	0.67803 0.67537 0.57807 0.00500
H 	H 	0.66633 0.67887 0.56037 0.05300
C 	C 	0.71083 0.70227 0.58767 -0.06200
C 	C 	0.72833 0.69787 0.61357 0.00300
H 	H 	0.75123 0.71657 0.61977 0.05900
C 	C 	0.71193 0.66607 0.63027 -0.07000
H 	H 	0.72323 0.66307 0.64847 0.06700
C 	C 	0.72863 0.73737 0.57097 0.29000
C 	C 	0.69573 0.50837 0.87437 0.29300
C 	C 	0.68923 0.47127 0.87337 -0.06200
C 	C 	0.65853 0.44347 0.88707 0.00500
H 	H 	0.64163 0.44837 0.89677 0.05800
C 	C 	0.65253 0.40917 0.88677 -0.06900
H 	H 	0.63103 0.39027 0.89547 0.07000
C 	C 	0.67783 0.40237 0.87387 0.02000
C 	C 	0.70843 0.42937 0.86037 -0.06600
H 	H 	0.72563 0.42427 0.85127 0.06900
C 	C 	0.71433 0.46447 0.86017 0.00300
H 	H 	0.73543 0.48327 0.85087 0.05600
C 	C 	0.67203 0.36557 0.87417 0.11800
O 	O 	0.97233 0.82267 0.18267 0.31800
O 	O 	0.91633 0.80167 0.17467 -0.15100
C 	C 	0.94733 0.82317 0.16697 0.38200
C 	C 	0.96033 0.86307 0.15957 -0.34800
C 	C 	0.99583 0.88967 0.15697 0.09800
C 	C 	0.00443 0.92457 0.15037 -0.01000
C 	C 	0.97753 0.93287 0.14667 0.00600
C 	C 	0.94193 0.90627 0.14897 0.03700
C 	C 	0.93333 0.87137 0.15567 0.03000
N 	N 	0.96013 0.97877 0.14667 -0.11900
C 	C 	0.98713 0.97257 0.14667 0.09300
O 	O 	0.08933 0.68667 0.88467 0.95900
O 	O 	0.09093 0.65867 0.92877 -0.31900
C 	C 	0.99283 0.68467 0.95267 0.01400
C 	C 	0.02733 0.70867 0.96237 0.38000
H 	H 	0.03163 0.72487 0.97897 -0.09200
C 	C 	0.05613 0.70767 0.94787 -0.38700
H 	H 	0.07983 0.72387 0.95467 0.16300
C 	C 	0.05013 0.68367 0.92367 0.41100
C 	C 	0.01533 0.65967 0.91377 -0.55400
H 	H 	0.01133 0.64307 0.89717 0.21200
C 	C 	0.98683 0.66067 0.92867 0.70500
H 	H 	0.96313 0.64407 0.92147 -0.17200
C 	C 	0.07733 0.67567 0.91467 1.68800
O 	O 	0.99543 0.81727 0.20127 -0.28300
O 	O 	0.94303 0.79977 0.18277 -0.43900
C 	C 	0.97423 0.82427 0.18717 -0.40700
C 	C 	0.98183 0.86307 0.18417 0.03100
C 	C 	0.01563 0.89247 0.18877 -0.00100
C 	C 	0.02093 0.92677 0.18567 0.00800
C 	C 	0.99233 0.93167 0.17797 0.01000
C 	C 	0.95853 0.90227 0.17337 -0.07500
C 	C 	0.95333 0.86797 0.17647 0.25300
N 	N 	0.96643 0.96907 0.17817 -0.12400
C 	C 	0.99723 0.96947 0.17817 0.11500
In	In	0.09353 0.46625 0.20901 2.00000
In	In	0.90423 0.52917 0.53271 2.00800
O 	O 	0.05670 0.48890 0.21110 -0.42400
O 	O 	0.08370 0.48850 0.25510 -0.43000
O 	O 	0.90410 0.55520 0.48510 -0.44500
O 	O 	0.93490 0.52790 0.49080 -0.43400
O 	O 	0.11290 0.44360 0.16970 -0.43200
O 	O 	0.07190 0.45740 0.15880 -0.42600
O 	O 	0.27520 0.45090 0.91930 -0.31600
O 	O 	0.24220 0.40450 0.88990 -0.48600
O 	O 	0.92130 0.29850 0.88520 -0.42200
O 	O 	0.90750 0.33530 0.90890 -0.42600
O 	O 	0.13430 0.52200 0.19210 -0.42900
O 	O 	0.15140 0.49330 0.22440 -0.41700
N 	N 	0.99680 0.59360 0.28510 -0.14400
N 	N 	0.98880 0.56070 0.33230 -0.14200
N 	N 	0.97350 0.60600 0.33080 -0.14200
N 	N 	0.12200 0.41590 0.00540 -0.14300
N 	N 	0.09010 0.39150 0.95760 -0.14000
N 	N 	0.06140 0.39980 0.00210 -0.14500
N 	N 	0.32770 0.63260 0.20740 -0.14200
C 	C 	0.06310 0.49610 0.24090 0.30200
C 	C 	0.04640 0.51470 0.25650 -0.07200
C 	C 	0.04550 0.51620 0.28910 0.01100
H 	H 	0.05630 0.50590 0.30170 0.04900
C 	C 	0.02880 0.53270 0.30390 -0.07300
H 	H 	0.02760 0.53290 0.32660 0.06900
C 	C 	0.01450 0.54870 0.28660 0.02200
C 	C 	0.01520 0.54790 0.25360 -0.07100
H 	H 	0.00510 0.55900 0.24120 0.06600
C 	C 	0.03130 0.53020 0.23880 0.01000
H 	H 	0.03170 0.52900 0.21620 0.05600
C 	C 	0.99880 0.56830 0.30220 0.11800
C 	C 	0.98480 0.61220 0.30040 0.11400
C 	C 	0.97450 0.57870 0.34560 0.11700
O 	O 	0.95360 0.70520 0.20320 -0.16800
O 	O 	0.98880 0.74870 0.23380 -1.68200
C 	C 	0.98470 0.64130 0.28260 0.01400
C 	C 	0.97960 0.63790 0.25020 -0.93100
H 	H 	0.97790 0.61770 0.23960 0.36000
C 	C 	0.97690 0.66310 0.23300 0.90500
H 	H 	0.97180 0.65950 0.21080 -0.23600
C 	C 	0.98110 0.69100 0.24630 -0.62300
C 	C 	0.98950 0.69810 0.27900 0.24900
H 	H 	0.99470 0.72030 0.28820 -0.13500
C 	C 	0.98990 0.67110 0.29760 -0.45600
H 	H 	0.99370 0.67380 0.32000 0.18600
C 	C 	0.97310 0.71660 0.22730 -0.94200
C 	C 	0.96150 0.57050 0.37810 0.01600
C 	C 	0.94110 0.58410 0.39110 -0.06800
H 	H 	0.93530 0.59880 0.37860 0.06800
C 	C 	0.92940 0.57640 0.42200 0.00500
H 	H 	0.91620 0.58650 0.43100 0.05400
C 	C 	0.93660 0.55370 0.44030 -0.06400
C 	C 	0.95650 0.54010 0.42710 0.00500
H 	H 	0.96200 0.52510 0.43950 0.05800
C 	C 	0.96830 0.54780 0.39640 -0.06700
H 	H 	0.98130 0.53750 0.38740 0.06600
C 	C 	0.92420 0.54520 0.47410 0.30400
C 	C 	0.09220 0.44560 0.15000 0.30300
C 	C 	0.06540 0.43340 0.09580 0.01200
H 	H 	0.04700 0.43710 0.10390 0.04900
C 	C 	0.09180 0.43670 0.11580 -0.07200
C 	C 	0.06470 0.42480 0.06440 -0.07200
H 	H 	0.04570 0.42190 0.05100 0.06400
C 	C 	0.09210 0.42010 0.05190 0.02100
C 	C 	0.11890 0.42370 0.07190 -0.06900
H 	H 	0.13780 0.42090 0.06370 0.07000
C 	C 	0.11850 0.43120 0.10370 0.01100
H 	H 	0.13660 0.43260 0.11740 0.05100
C 	C 	0.09160 0.41130 0.01810 0.12000
C 	C 	0.12000 0.40550 0.97580 0.11600
C 	C 	0.02810 0.37370 0.95370 0.01700
C 	C 	0.15320 0.41120 0.95990 0.03100
C 	C 	0.18580 0.43170 0.97390 -0.08800
H 	H 	0.18750 0.44150 0.99450 0.07600
C 	C 	0.21620 0.43800 0.95780 0.03200
H 	H 	0.23890 0.45460 0.96630 0.04800
C 	C 	0.21460 0.42110 0.93000 -0.09100
C 	C 	0.18160 0.39780 0.91730 0.02400
H 	H 	0.18010 0.38500 0.89840 0.05500
C 	C 	0.15020 0.39260 0.93160 -0.08100
H 	H 	0.12750 0.37700 0.92250 0.07300
C 	C 	0.24580 0.42470 0.91250 0.34900
C 	C 	0.06160 0.38930 0.97190 0.11700
C 	C 	0.02340 0.35200 0.92760 -0.06700
H 	H 	0.04230 0.34840 0.92080 0.07000
C 	C 	0.99130 0.33600 0.91140 0.00600
H 	H 	0.98780 0.32080 0.89370 0.05300
C 	C 	0.96440 0.34190 0.92100 -0.06200
C 	C 	0.96880 0.36380 0.94690 0.00300
H 	H 	0.95010 0.36800 0.95310 0.05900
C 	C 	0.00060 0.37920 0.96360 -0.07000
H 	H 	0.00360 0.39350 0.98180 0.06700
C 	C 	0.92930 0.32460 0.90430 0.29000
C 	C 	0.15830 0.52070 0.20770 0.29300
C 	C 	0.19540 0.55130 0.20670 -0.06200
C 	C 	0.22320 0.54840 0.22040 0.00500
H 	H 	0.21830 0.52660 0.23010 0.05800
C 	C 	0.25750 0.57670 0.22010 -0.06900
H 	H 	0.27640 0.57410 0.22880 0.07000
C 	C 	0.26430 0.60880 0.20720 0.02000
C 	C 	0.23730 0.61240 0.19370 -0.06600
H 	H 	0.24240 0.63470 0.18460 0.06900
C 	C 	0.20220 0.58320 0.19350 0.00300
H 	H 	0.18340 0.58550 0.18420 0.05600
C 	C 	0.30110 0.63980 0.20750 0.11800
O 	O 	0.84400 0.48300 0.51600 0.31800
O 	O 	0.86500 0.44800 0.50800 -0.15100
C 	C 	0.84350 0.45750 0.50030 0.38200
C 	C 	0.80360 0.43060 0.49290 -0.34800
C 	C 	0.77700 0.43950 0.49030 0.09800
C 	C 	0.74210 0.41320 0.48370 -0.01000
C 	C 	0.73380 0.37800 0.48000 0.00600
C 	C 	0.76040 0.36900 0.48230 0.03700
C 	C 	0.79530 0.39530 0.48900 0.03000
N 	N 	0.68790 0.31470 0.48000 -0.11900
C 	C 	0.69410 0.34790 0.48000 0.09300
O 	O 	0.98000 0.73600 0.21800 0.95900
O 	O 	0.00800 0.76560 0.26210 -0.31900
C 	C 	0.98200 0.64150 0.28600 0.01400
C 	C 	0.95800 0.65200 0.29570 0.38100
H 	H 	0.94180 0.64010 0.31230 -0.09200
C 	C 	0.95900 0.68180 0.28120 -0.38700
H 	H 	0.94280 0.68930 0.28800 0.16300
C 	C 	0.98300 0.69980 0.25700 0.41100
C 	C 	0.00700 0.68900 0.24710 -0.55400
H 	H 	0.02360 0.70160 0.23050 0.21200
C 	C 	0.00600 0.65950 0.26200 0.70500
H 	H 	0.02260 0.65240 0.25480 -0.17200
C 	C 	0.99100 0.73500 0.24800 1.68800
O 	O 	0.84940 0.51150 0.53460 -0.28300
O 	O 	0.86690 0.47660 0.51610 -0.43900
C 	C 	0.84240 0.48330 0.52050 -0.40700
C 	C 	0.80360 0.45210 0.51750 0.03100
C 	C 	0.77420 0.45650 0.52210 -0.00100
C 	C 	0.73990 0.42750 0.51900 0.00800
C 	C 	0.73500 0.39400 0.51130 0.01000
C 	C 	0.76440 0.38960 0.50670 -0.07500
C 	C 	0.79870 0.41870 0.50980 0.25300
N 	N 	0.69760 0.33070 0.51150 -0.12400
C 	C 	0.69720 0.36110 0.51150 0.11500
In	In	0.76020 0.79958 0.54234 2.00000
In	In	0.57090 0.86250 0.86604 2.00800
O 	O 	0.72337 0.82223 0.54443 -0.42400
O 	O 	0.75037 0.82183 0.58843 -0.43000
O 	O 	0.57077 0.88853 0.81843 -0.44500
O 	O 	0.60157 0.86123 0.82413 -0.43400
O 	O 	0.77957 0.77693 0.50303 -0.43200
O 	O 	0.73857 0.79073 0.49213 -0.42600
O 	O 	0.94187 0.78423 0.25263 -0.31600
O 	O 	0.90887 0.73783 0.22323 -0.48600
O 	O 	0.58797 0.63183 0.21853 -0.42200
O 	O 	0.57417 0.66863 0.24223 -0.42600
O 	O 	0.80097 0.85533 0.52543 -0.42900
O 	O 	0.81807 0.82663 0.55773 -0.41700
N 	N 	0.66347 0.92693 0.61843 -0.14400
N 	N 	0.65547 0.89403 0.66563 -0.14200
N 	N 	0.64017 0.93933 0.66413 -0.14200
N 	N 	0.78867 0.74923 0.33873 -0.14300
N 	N 	0.75677 0.72483 0.29093 -0.14000
N 	N 	0.72807 0.73313 0.33543 -0.14500
N 	N 	0.99437 0.96593 0.54073 -0.14200
C 	C 	0.72977 0.82943 0.57423 0.30200
C 	C 	0.71307 0.84803 0.58983 -0.07200
C 	C 	0.71217 0.84953 0.62243 0.01100
H 	H 	0.72297 0.83923 0.63503 0.04900
C 	C 	0.69547 0.86603 0.63723 -0.07300
H 	H 	0.69427 0.86623 0.65993 0.06900
C 	C 	0.68117 0.88203 0.61993 0.02200
C 	C 	0.68187 0.88123 0.58693 -0.07100
H 	H 	0.67177 0.89233 0.57453 0.06600
C 	C 	0.69797 0.86353 0.57213 0.01000
H 	H 	0.69837 0.86233 0.54953 0.05600
C 	C 	0.66547 0.90163 0.63553 0.11800
C 	C 	0.65147 0.94553 0.63373 0.11400
C 	C 	0.64117 0.91203 0.67893 0.11700
O 	O 	0.62027 0.03853 0.53653 -0.16800
O 	O 	0.65547 0.08203 0.56713 -1.68200
C 	C 	0.65137 0.97463 0.61593 0.01400
C 	C 	0.64627 0.97123 0.58353 -0.93100
H 	H 	0.64457 0.95103 0.57293 0.36000
C 	C 	0.64357 0.99643 0.56633 0.90500
H 	H 	0.63847 0.99283 0.54413 -0.23600
C 	C 	0.64777 0.02433 0.57963 -0.62300
C 	C 	0.65617 0.03143 0.61233 0.24900
H 	H 	0.66137 0.05363 0.62153 -0.13500
C 	C 	0.65657 0.00443 0.63093 -0.45600
H 	H 	0.66037 0.00713 0.65333 0.18600
C 	C 	0.63977 0.04993 0.56063 -0.94200
C 	C 	0.62817 0.90383 0.71143 0.01600
C 	C 	0.60777 0.91743 0.72443 -0.06800
H 	H 	0.60197 0.93213 0.71193 0.06800
C 	C 	0.59607 0.90973 0.75533 0.00500
H 	H 	0.58287 0.91983 0.76433 0.05400
C 	C 	0.60327 0.88703 0.77363 -0.06400
C 	C 	0.62317 0.87343 0.76043 0.00500
H 	H 	0.62867 0.85843 0.77283 0.05800
C 	C 	0.63497 0.88113 0.72973 -0.06700
H 	H 	0.64797 0.87083 0.72073 0.06600
C 	C 	0.59087 0.87853 0.80743 0.30400
C 	C 	0.75887 0.77893 0.48333 0.30300
C 	C 	0.73207 0.76673 0.42913 0.01200
H 	H 	0.71367 0.77043 0.43723 0.04900
C 	C 	0.75847 0.77003 0.44913 -0.07200
C 	C 	0.73137 0.75813 0.39773 -0.07200
H 	H 	0.71237 0.75523 0.38433 0.06400
C 	C 	0.75877 0.75343 0.38523 0.02100
C 	C 	0.78557 0.75703 0.40523 -0.06900
H 	H 	0.80447 0.75423 0.39703 0.07000
C 	C 	0.78517 0.76453 0.43703 0.01100
H 	H 	0.80327 0.76593 0.45073 0.05100
C 	C 	0.75827 0.74463 0.35143 0.12000
C 	C 	0.78667 0.73883 0.30913 0.11600
C 	C 	0.69477 0.70703 0.28703 0.01700
C 	C 	0.81987 0.74453 0.29323 0.03100
C 	C 	0.85247 0.76503 0.30723 -0.08800
H 	H 	0.85417 0.77483 0.32783 0.07600
C 	C 	0.88287 0.77133 0.29113 0.03200
H 	H 	0.90557 0.78793 0.29963 0.04800
C 	C 	0.88127 0.75443 0.26333 -0.09100
C 	C 	0.84827 0.73113 0.25063 0.02400
H 	H 	0.84677 0.71833 0.23173 0.05500
C 	C 	0.81687 0.72593 0.26493 -0.08100
H 	H 	0.79417 0.71033 0.25583 0.07300
C 	C 	0.91247 0.75803 0.24583 0.34900
C 	C 	0.72827 0.72263 0.30523 0.11700
C 	C 	0.69007 0.68533 0.26093 -0.06700
H 	H 	0.70897 0.68173 0.25413 0.07000
C 	C 	0.65797 0.66933 0.24473 0.00500
H 	H 	0.65447 0.65413 0.22703 0.05300
C 	C 	0.63107 0.67523 0.25433 -0.06200
C 	C 	0.63547 0.69713 0.28023 0.00300
H 	H 	0.61677 0.70133 0.28643 0.05900
C 	C 	0.66727 0.71253 0.29693 -0.07000
H 	H 	0.67027 0.72683 0.31513 0.06700
C 	C 	0.59597 0.65793 0.23763 0.29000
C 	C 	0.82497 0.85403 0.54103 0.29300
C 	C 	0.86207 0.88463 0.54003 -0.06200
C 	C 	0.88987 0.88173 0.55373 0.00500
H 	H 	0.88497 0.85993 0.56343 0.05800
C 	C 	0.92417 0.91003 0.55343 -0.06900
H 	H 	0.94307 0.90743 0.56213 0.07000
C 	C 	0.93097 0.94213 0.54053 0.02000
C 	C 	0.90397 0.94573 0.52703 -0.06600
H 	H 	0.90907 0.96803 0.51793 0.06900
C 	C 	0.86887 0.91653 0.52683 0.00300
H 	H 	0.85007 0.91883 0.51753 0.05600
C 	C 	0.96777 0.97313 0.54083 0.11800
O 	O 	0.51067 0.81633 0.84933 0.31800
O 	O 	0.53167 0.78133 0.84133 -0.15100
C 	C 	0.51017 0.79083 0.83363 0.38200
C 	C 	0.47027 0.76393 0.82623 -0.34800
C 	C 	0.44367 0.77283 0.82363 0.09800
C 	C 	0.40877 0.74653 0.81703 -0.01000
C 	C 	0.40047 0.71133 0.81333 0.00600
C 	C 	0.42707 0.70233 0.81563 0.03700
C 	C 	0.46197 0.72863 0.82233 0.03000
N 	N 	0.35457 0.64803 0.81333 -0.11900
C 	C 	0.36077 0.68123 0.81333 0.09300
O 	O 	0.64667 0.06933 0.55133 0.95900
O 	O 	0.67467 0.09893 0.59543 -0.31900
C 	C 	0.64867 0.97483 0.61933 0.01400
C 	C 	0.62467 0.98533 0.62903 0.38100
H 	H 	0.60847 0.97343 0.64563 -0.09200
C 	C 	0.62567 0.01513 0.61453 -0.38700
H 	H 	0.60947 0.02263 0.62133 0.16300
C 	C 	0.64967 0.03313 0.59033 0.41100
C 	C 	0.67367 0.02233 0.58043 -0.55400
H 	H 	0.69027 0.03493 0.56383 0.21200
C 	C 	0.67267 0.99283 0.59533 0.70500
H 	H 	0.68927 0.98573 0.58813 -0.17200
C 	C 	0.65767 0.06833 0.58133 1.68800
O 	O 	0.51607 0.84483 0.86793 -0.28300
O 	O 	0.53357 0.80993 0.84943 -0.43900
C 	C 	0.50907 0.81663 0.85383 -0.40700
C 	C 	0.47027 0.78543 0.85083 0.03100
C 	C 	0.44087 0.78983 0.85543 -0.00100
C 	C 	0.40657 0.76083 0.85233 0.00800
C 	C 	0.40167 0.72733 0.84463 0.01000
C 	C 	0.43107 0.72293 0.84003 -0.07500
C 	C 	0.46537 0.75203 0.84313 0.25300
N 	N 	0.36427 0.66403 0.84483 -0.12400
C 	C 	0.36387 0.69443 0.84483 0.11500
In	In	0.42686 0.13292 0.87568 2.00000
In	In	0.23756 0.19584 0.19938 2.00800
O 	O 	0.39003 0.15557 0.87777 -0.42400
O 	O 	0.41703 0.15517 0.92177 -0.43000
O 	O 	0.23743 0.22187 0.15177 -0.44500
O 	O 	0.26823 0.19457 0.15747 -0.43400
O 	O 	0.44623 0.11027 0.83637 -0.43200
O 	O 	0.40523 0.12407 0.82547 -0.42600
O 	O 	0.60853 0.11757 0.58597 -0.31600
O 	O 	0.57553 0.07117 0.55657 -0.48600
O 	O 	0.25463 0.96517 0.55187 -0.42300
O 	O 	0.24083 0.00197 0.57557 -0.42500
O 	O 	0.46763 0.18867 0.85877 -0.42900
O 	O 	0.48473 0.15997 0.89107 -0.41700
N 	N 	0.33013 0.26027 0.95177 -0.14400
N 	N 	0.32213 0.22737 0.99897 -0.14200
N 	N 	0.30683 0.27267 0.99747 -0.14200
N 	N 	0.45533 0.08257 0.67207 -0.14300
N 	N 	0.42343 0.05817 0.62427 -0.14000
N 	N 	0.39473 0.06647 0.66877 -0.14500
N 	N 	0.66103 0.29927 0.87407 -0.14200
C 	C 	0.39643 0.16277 0.90757 0.30200
C 	C 	0.37973 0.18137 0.92317 -0.07200
C 	C 	0.37883 0.18287 0.95577 0.01100
H 	H 	0.38963 0.17257 0.96837 0.04900
C 	C 	0.36213 0.19937 0.97057 -0.07300
H 	H 	0.36093 0.19957 0.99327 0.06900
C 	C 	0.34783 0.21537 0.95327 0.02200
C 	C 	0.34853 0.21457 0.92027 -0.07100
H 	H 	0.33843 0.22567 0.90787 0.06600
C 	C 	0.36463 0.19687 0.90547 0.01000
H 	H 	0.36503 0.19567 0.88287 0.05600
C 	C 	0.33213 0.23497 0.96887 0.11800
C 	C 	0.31813 0.27887 0.96707 0.11400
C 	C 	0.30783 0.24537 0.01227 0.11700
O 	O 	0.28693 0.37187 0.86987 -0.16800
O 	O 	0.32213 0.41537 0.90047 -1.68300
C 	C 	0.31803 0.30797 0.94927 0.01400
C 	C 	0.31293 0.30457 0.91687 -0.93200
H 	H 	0.31123 0.28437 0.90627 0.36000
C 	C 	0.31023 0.32977 0.89967 0.90600
H 	H 	0.30513 0.32617 0.87747 -0.23600
C 	C 	0.31443 0.35767 0.91297 -0.62400
C 	C 	0.32283 0.36477 0.94567 0.24900
H 	H 	0.32803 0.38697 0.95487 -0.13600
C 	C 	0.32323 0.33777 0.96427 -0.45600
H 	H 	0.32703 0.34047 0.98667 0.18600
C 	C 	0.30643 0.38327 0.89397 -0.94400
C 	C 	0.29483 0.23717 0.04477 0.01600
C 	C 	0.27443 0.25077 0.05777 -0.06800
H 	H 	0.26863 0.26547 0.04527 0.06800
C 	C 	0.26273 0.24307 0.08867 0.00500
H 	H 	0.24953 0.25317 0.09767 0.05400
C 	C 	0.26993 0.22037 0.10697 -0.06400
C 	C 	0.28983 0.20677 0.09377 0.00500
H 	H 	0.29533 0.19177 0.10617 0.05800
C 	C 	0.30163 0.21447 0.06307 -0.06700
H 	H 	0.31463 0.20417 0.05407 0.06600
C 	C 	0.25753 0.21187 0.14077 0.30400
C 	C 	0.42553 0.11227 0.81667 0.30300
C 	C 	0.39873 0.10007 0.76247 0.01200
H 	H 	0.38033 0.10377 0.77057 0.04900
C 	C 	0.42513 0.10337 0.78247 -0.07200
C 	C 	0.39803 0.09147 0.73107 -0.07200
H 	H 	0.37903 0.08857 0.71767 0.06400
C 	C 	0.42543 0.08677 0.71857 0.02100
C 	C 	0.45223 0.09037 0.73857 -0.06900
H 	H 	0.47113 0.08757 0.73037 0.07000
C 	C 	0.45183 0.09787 0.77037 0.01100
H 	H 	0.46993 0.09927 0.78407 0.05100
C 	C 	0.42493 0.07797 0.68477 0.12000
C 	C 	0.45333 0.07217 0.64247 0.11600
C 	C 	0.36143 0.04037 0.62037 0.01700
C 	C 	0.48653 0.07787 0.62657 0.03100
C 	C 	0.51913 0.09837 0.64057 -0.08800
H 	H 	0.52083 0.10817 0.66117 0.07600
C 	C 	0.54953 0.10467 0.62447 0.03200
H 	H 	0.57223 0.12127 0.63297 0.04800
C 	C 	0.54793 0.08777 0.59667 -0.09100
C 	C 	0.51493 0.06447 0.58397 0.02400
H 	H 	0.51343 0.05167 0.56507 0.05500
C 	C 	0.48353 0.05927 0.59827 -0.08100
H 	H 	0.46083 0.04367 0.58917 0.07300
C 	C 	0.57913 0.09137 0.57917 0.34900
C 	C 	0.39493 0.05597 0.63857 0.11700
C 	C 	0.35673 0.01867 0.59427 -0.06700
H 	H 	0.37563 0.01507 0.58747 0.07000
C 	C 	0.32463 0.00267 0.57807 0.00500
H 	H 	0.32113 0.98747 0.56037 0.05300
C 	C 	0.29773 0.00857 0.58767 -0.06200
C 	C 	0.30213 0.03047 0.61357 0.00300
H 	H 	0.28343 0.03467 0.61977 0.05900
C 	C 	0.33393 0.04587 0.63027 -0.07000
H 	H 	0.33693 0.06017 0.64847 0.06700
C 	C 	0.26263 0.99127 0.57097 0.29000
C 	C 	0.49163 0.18737 0.87437 0.29300
C 	C 	0.52873 0.21797 0.87337 -0.06200
C 	C 	0.55653 0.21507 0.88707 0.00500
H 	H 	0.55163 0.19327 0.89677 0.05800
C 	C 	0.59083 0.24337 0.88677 -0.06900
H 	H 	0.60973 0.24077 0.89547 0.07000
C 	C 	0.59763 0.27547 0.87387 0.02000
C 	C 	0.57063 0.27907 0.86037 -0.06600
H 	H 	0.57573 0.30137 0.85127 0.06900
C 	C 	0.53553 0.24987 0.86017 0.00300
H 	H 	0.51673 0.25217 0.85087 0.05600
C 	C 	0.63443 0.30647 0.87417 0.11800
O 	O 	0.17733 0.14967 0.18267 0.31800
O 	O 	0.19833 0.11467 0.17467 -0.15100
C 	C 	0.17683 0.12417 0.16697 0.38200
C 	C 	0.13693 0.09727 0.15957 -0.34800
C 	C 	0.11033 0.10617 0.15697 0.09800
C 	C 	0.07543 0.07987 0.15037 -0.01000
C 	C 	0.06713 0.04467 0.14667 0.00600
C 	C 	0.09373 0.03567 0.14897 0.03700
C 	C 	0.12863 0.06197 0.15567 0.03000
N 	N 	0.02123 0.98137 0.14667 -0.11900
C 	C 	0.02743 0.01457 0.14667 0.09300
O 	O 	0.31333 0.40267 0.88467 0.96000
O 	O 	0.34133 0.43227 0.92877 -0.31900
C 	C 	0.31533 0.30817 0.95267 0.01400
C 	C 	0.29133 0.31867 0.96237 0.38100
H 	H 	0.27513 0.30677 0.97897 -0.09300
C 	C 	0.29233 0.34847 0.94787 -0.38700
H 	H 	0.27613 0.35597 0.95467 0.16300
C 	C 	0.31633 0.36647 0.92367 0.41200
C 	C 	0.34033 0.35567 0.91377 -0.55500
H 	H 	0.35693 0.36827 0.89717 0.21200
C 	C 	0.33933 0.32617 0.92867 0.70600
H 	H 	0.35593 0.31907 0.92147 -0.17200
C 	C 	0.32433 0.40167 0.91467 1.68900
O 	O 	0.18273 0.17817 0.20127 -0.28300
O 	O 	0.20023 0.14327 0.18277 -0.43900
C 	C 	0.17573 0.14997 0.18717 -0.40700
C 	C 	0.13693 0.11877 0.18417 0.03100
C 	C 	0.10753 0.12317 0.18877 -0.00100
C 	C 	0.07323 0.09417 0.18567 0.00800
C 	C 	0.06833 0.06067 0.17797 0.01000
C 	C 	0.09773 0.05627 0.17337 -0.07500
C 	C 	0.13203 0.08537 0.17647 0.25300
N 	N 	0.03093 0.99737 0.17817 -0.12400
C 	C 	0.03053 0.02777 0.17817 0.11500
In	In	0.53375 0.62728 0.20901 2.00000
In	In	0.47083 0.37506 0.53271 2.00800
O 	O 	0.51110 0.56780 0.21110 -0.42400
O 	O 	0.51150 0.59520 0.25510 -0.43000
O 	O 	0.44480 0.34890 0.48510 -0.44500
O 	O 	0.47210 0.40700 0.49080 -0.43400
O 	O 	0.55640 0.66930 0.16970 -0.43200
O 	O 	0.54260 0.61450 0.15880 -0.42600
O 	O 	0.54910 0.82430 0.91930 -0.31600
O 	O 	0.59550 0.83770 0.88990 -0.48600
O 	O 	0.70150 0.62280 0.88520 -0.42300
O 	O 	0.66470 0.57220 0.90890 -0.42600
O 	O 	0.47800 0.61230 0.19210 -0.42900
O 	O 	0.50670 0.65810 0.22440 -0.41700
N 	N 	0.40640 0.40320 0.28510 -0.14400
N 	N 	0.43930 0.42810 0.33230 -0.14200
N 	N 	0.39400 0.36750 0.33080 -0.14200
N 	N 	0.58410 0.70610 0.00540 -0.14300
N 	N 	0.60850 0.69860 0.95760 -0.14000
N 	N 	0.60020 0.66160 0.00210 -0.14500
N 	N 	0.36740 0.69510 0.20740 -0.14200
C 	C 	0.50390 0.56700 0.24090 0.30200
C 	C 	0.48530 0.53170 0.25650 -0.07200
C 	C 	0.48380 0.52930 0.28910 0.01100
H 	H 	0.49410 0.55040 0.30170 0.04900
C 	C 	0.46730 0.49610 0.30390 -0.07300
H 	H 	0.46710 0.49470 0.32660 0.06900
C 	C 	0.45130 0.46580 0.28660 0.02200
C 	C 	0.45210 0.46730 0.25360 -0.07100
H 	H 	0.44100 0.44610 0.24120 0.06600
C 	C 	0.46980 0.50110 0.23880 0.01000
H 	H 	0.47100 0.50270 0.21620 0.05600
C 	C 	0.43170 0.43050 0.30220 0.11800
C 	C 	0.38780 0.37260 0.30040 0.11400
C 	C 	0.42130 0.39580 0.34560 0.11700
O 	O 	0.29480 0.24840 0.20320 -0.16800
O 	O 	0.25130 0.24010 0.23380 -1.68200
C 	C 	0.35870 0.34340 0.28260 0.01400
C 	C 	0.36210 0.34170 0.25020 -0.93200
H 	H 	0.38230 0.36020 0.23960 0.36000
C 	C 	0.33690 0.31380 0.23300 0.90500
H 	H 	0.34050 0.31230 0.21080 -0.23600
C 	C 	0.30900 0.29010 0.24630 -0.62400
C 	C 	0.30190 0.29140 0.27900 0.24900
H 	H 	0.27970 0.27440 0.28820 -0.13500
C 	C 	0.32890 0.31880 0.29760 -0.45600
H 	H 	0.32620 0.31990 0.32000 0.18600
C 	C 	0.28340 0.25650 0.22730 -0.94300
C 	C 	0.42950 0.39100 0.37810 0.01600
C 	C 	0.41590 0.35700 0.39110 -0.06800
H 	H 	0.40120 0.33650 0.37860 0.06800
C 	C 	0.42360 0.35300 0.42200 0.00500
H 	H 	0.41350 0.32970 0.43100 0.05400
C 	C 	0.44630 0.38290 0.44030 -0.06400
C 	C 	0.45990 0.41640 0.42710 0.00500
H 	H 	0.47490 0.43690 0.43950 0.05800
C 	C 	0.45220 0.42050 0.39640 -0.06700
H 	H 	0.46250 0.44380 0.38740 0.06600
C 	C 	0.45480 0.37900 0.47410 0.30400
C 	C 	0.55440 0.64660 0.15000 0.30300
C 	C 	0.56660 0.63200 0.09580 0.01200
H 	H 	0.56290 0.60990 0.10390 0.04900
C 	C 	0.56330 0.65510 0.11580 -0.07200
C 	C 	0.57520 0.63990 0.06440 -0.07200
H 	H 	0.57810 0.62380 0.05100 0.06400
C 	C 	0.57990 0.67200 0.05190 0.02100
C 	C 	0.57630 0.69520 0.07190 -0.06900
H 	H 	0.57910 0.71690 0.06370 0.07000
C 	C 	0.56880 0.68730 0.10370 0.01100
H 	H 	0.56740 0.70400 0.11740 0.05100
C 	C 	0.58870 0.68030 0.01810 0.12000
C 	C 	0.59450 0.71450 0.97580 0.11600
C 	C 	0.62630 0.65440 0.95370 0.01700
C 	C 	0.58880 0.74200 0.95990 0.03100
C 	C 	0.56830 0.75410 0.97390 -0.08800
H 	H 	0.55850 0.74600 0.99450 0.07600
C 	C 	0.56200 0.77820 0.95780 0.03200
H 	H 	0.54540 0.78430 0.96630 0.04800
C 	C 	0.57890 0.79350 0.93000 -0.09100
C 	C 	0.60220 0.78380 0.91730 0.02400
H 	H 	0.61500 0.79510 0.89840 0.05500
C 	C 	0.60740 0.75760 0.93160 -0.08100
H 	H 	0.62300 0.75050 0.92250 0.07300
C 	C 	0.57530 0.82110 0.91250 0.34900
C 	C 	0.61070 0.67230 0.97190 0.11700
C 	C 	0.64800 0.67140 0.92760 -0.06700
H 	H 	0.65160 0.69390 0.92080 0.07000
C 	C 	0.66400 0.65530 0.91140 0.00500
H 	H 	0.67920 0.66700 0.89370 0.05300
C 	C 	0.65810 0.62250 0.92100 -0.06200
C 	C 	0.63620 0.60500 0.94690 0.00300
H 	H 	0.63200 0.58210 0.95310 0.05900
C 	C 	0.62080 0.62140 0.96360 -0.07000
H 	H 	0.60650 0.61010 0.98180 0.06700
C 	C 	0.67540 0.60470 0.90430 0.29000
C 	C 	0.47930 0.63760 0.20770 0.29300
C 	C 	0.44870 0.64410 0.20670 -0.06200
C 	C 	0.45160 0.67480 0.22040 0.00500
H 	H 	0.47340 0.69170 0.23010 0.05800
C 	C 	0.42330 0.68080 0.22010 -0.06900
H 	H 	0.42590 0.70230 0.22880 0.07000
C 	C 	0.39120 0.65550 0.20720 0.02000
C 	C 	0.38760 0.62490 0.19370 -0.06600
H 	H 	0.36530 0.60770 0.18460 0.06900
C 	C 	0.41680 0.61900 0.19350 0.00300
H 	H 	0.41450 0.59790 0.18420 0.05600
C 	C 	0.36020 0.66130 0.20750 0.11800
O 	O 	0.51700 0.36100 0.51600 0.31800
O 	O 	0.55200 0.41700 0.50800 -0.15100
C 	C 	0.54250 0.38600 0.50030 0.38200
C 	C 	0.56940 0.37300 0.49290 -0.34800
C 	C 	0.56050 0.33750 0.49030 0.09800
C 	C 	0.58680 0.32890 0.48370 -0.01000
C 	C 	0.62200 0.35580 0.48000 0.00600
C 	C 	0.63100 0.39140 0.48230 0.03700
C 	C 	0.60470 0.40000 0.48900 0.03000
N 	N 	0.68530 0.37320 0.48000 -0.11900
C 	C 	0.65210 0.34620 0.48000 0.09300
O 	O 	0.26400 0.24400 0.21800 0.95900
O 	O 	0.23440 0.24240 0.26210 -0.31900
C 	C 	0.35850 0.34050 0.28600 0.01400
C 	C 	0.34800 0.30600 0.29570 0.38100
H 	H 	0.35990 0.30170 0.31230 -0.09200
C 	C 	0.31820 0.27720 0.28120 -0.38700
H 	H 	0.31070 0.25350 0.28800 0.16300
C 	C 	0.30020 0.28320 0.25700 0.41100
C 	C 	0.31100 0.31800 0.24710 -0.55500
H 	H 	0.29840 0.32200 0.23050 0.21200
C 	C 	0.34050 0.34650 0.26200 0.70600
H 	H 	0.34760 0.37020 0.25480 -0.17200
C 	C 	0.26500 0.25600 0.24800 1.68800
O 	O 	0.48850 0.33790 0.53460 -0.28300
O 	O 	0.52340 0.39030 0.51610 -0.43900
C 	C 	0.51670 0.35910 0.52050 -0.40700
C 	C 	0.54790 0.35150 0.51750 0.03100
C 	C 	0.54350 0.31770 0.52210 -0.00100
C 	C 	0.57250 0.31240 0.51900 0.00800
C 	C 	0.60600 0.34100 0.51130 0.01000
C 	C 	0.61040 0.37480 0.50670 -0.07500
C 	C 	0.58130 0.38000 0.50980 0.25300
N 	N 	0.66930 0.36690 0.51150 -0.12400
C 	C 	0.63890 0.33610 0.51150 0.11500
In	In	0.20042 0.96061 0.54234 2.00000
In	In	0.13750 0.70839 0.86604 2.00800
O 	O 	0.17777 0.90113 0.54443 -0.42400
O 	O 	0.17817 0.92853 0.58843 -0.43000
O 	O 	0.11147 0.68223 0.81843 -0.44500
O 	O 	0.13877 0.74033 0.82413 -0.43400
O 	O 	0.22307 0.00263 0.50303 -0.43200
O 	O 	0.20927 0.94783 0.49213 -0.42600
O 	O 	0.21577 0.15763 0.25263 -0.31600
O 	O 	0.26217 0.17103 0.22323 -0.48600
O 	O 	0.36817 0.95613 0.21853 -0.42300
O 	O 	0.33137 0.90553 0.24223 -0.42600
O 	O 	0.14467 0.94563 0.52543 -0.42900
O 	O 	0.17337 0.99143 0.55773 -0.41700
N 	N 	0.07307 0.73653 0.61843 -0.14400
N 	N 	0.10597 0.76143 0.66563 -0.14200
N 	N 	0.06067 0.70083 0.66413 -0.14200
N 	N 	0.25077 0.03943 0.33873 -0.14300
N 	N 	0.27517 0.03193 0.29093 -0.14000
N 	N 	0.26687 0.99493 0.33543 -0.14500
N 	N 	0.03407 0.02843 0.54073 -0.14200
C 	C 	0.17057 0.90033 0.57423 0.30200
C 	C 	0.15197 0.86503 0.58983 -0.07200
C 	C 	0.15047 0.86263 0.62243 0.01100
H 	H 	0.16077 0.88373 0.63503 0.04900
C 	C 	0.13397 0.82943 0.63723 -0.07300
H 	H 	0.13377 0.82803 0.65993 0.06900
C 	C 	0.11797 0.79913 0.61993 0.02200
C 	C 	0.11877 0.80063 0.58693 -0.07100
H 	H 	0.10767 0.77943 0.57453 0.06600
C 	C 	0.13647 0.83443 0.57213 0.01000
H 	H 	0.13767 0.83603 0.54953 0.05600
C 	C 	0.09837 0.76383 0.63553 0.11800
C 	C 	0.05447 0.70593 0.63373 0.11400
C 	C 	0.08797 0.72913 0.67893 0.11700
O 	O 	0.96147 0.58173 0.53653 -0.16800
O 	O 	0.91797 0.57343 0.56713 -1.68200
C 	C 	0.02537 0.67673 0.61593 0.01400
C 	C 	0.02877 0.67503 0.58353 -0.93200
H 	H 	0.04897 0.69353 0.57293 0.36000
C 	C 	0.00357 0.64713 0.56633 0.90500
H 	H 	0.00717 0.64563 0.54413 -0.23600
C 	C 	0.97567 0.62343 0.57963 -0.62400
C 	C 	0.96857 0.62473 0.61233 0.24900
H 	H 	0.94637 0.60773 0.62153 -0.13500
C 	C 	0.99557 0.65213 0.63093 -0.45600
H 	H 	0.99287 0.65323 0.65333 0.18600
C 	C 	0.95007 0.58983 0.56063 -0.94300
C 	C 	0.09617 0.72433 0.71143 0.01600
C 	C 	0.08257 0.69033 0.72443 -0.06800
H 	H 	0.06787 0.66983 0.71193 0.06800
C 	C 	0.09027 0.68633 0.75533 0.00500
H 	H 	0.08017 0.66303 0.76433 0.05400
C 	C 	0.11297 0.71623 0.77363 -0.06400
C 	C 	0.12657 0.74973 0.76043 0.00500
H 	H 	0.14157 0.77023 0.77283 0.05800
C 	C 	0.11887 0.75383 0.72973 -0.06700
H 	H 	0.12917 0.77713 0.72073 0.06600
C 	C 	0.12147 0.71233 0.80743 0.30400
C 	C 	0.22107 0.97993 0.48333 0.30300
C 	C 	0.23327 0.96533 0.42913 0.01200
H 	H 	0.22957 0.94323 0.43723 0.04900
C 	C 	0.22997 0.98843 0.44913 -0.07200
C 	C 	0.24187 0.97323 0.39773 -0.07200
H 	H 	0.24477 0.95713 0.38433 0.06400
C 	C 	0.24657 0.00533 0.38523 0.02100
C 	C 	0.24297 0.02853 0.40523 -0.06900
H 	H 	0.24577 0.05023 0.39703 0.07000
C 	C 	0.23547 0.02063 0.43703 0.01100
H 	H 	0.23407 0.03733 0.45073 0.05100
C 	C 	0.25537 0.01363 0.35143 0.12000
C 	C 	0.26117 0.04783 0.30913 0.11600
C 	C 	0.29297 0.98773 0.28703 0.01700
C 	C 	0.25547 0.07533 0.29323 0.03100
C 	C 	0.23497 0.08743 0.30723 -0.08800
H 	H 	0.22517 0.07933 0.32783 0.07600
C 	C 	0.22867 0.11153 0.29113 0.03200
H 	H 	0.21207 0.11763 0.29963 0.04800
C 	C 	0.24557 0.12683 0.26333 -0.09100
C 	C 	0.26887 0.11713 0.25063 0.02400
H 	H 	0.28167 0.12843 0.23173 0.05500
C 	C 	0.27407 0.09093 0.26493 -0.08100
H 	H 	0.28967 0.08383 0.25583 0.07300
C 	C 	0.24197 0.15443 0.24583 0.34900
C 	C 	0.27737 0.00563 0.30523 0.11700
C 	C 	0.31467 0.00473 0.26093 -0.06700
H 	H 	0.31827 0.02723 0.25413 0.07000
C 	C 	0.33067 0.98863 0.24473 0.00600
H 	H 	0.34587 0.00033 0.22703 0.05300
C 	C 	0.32477 0.95583 0.25433 -0.06200
C 	C 	0.30287 0.93833 0.28023 0.00300
H 	H 	0.29867 0.91543 0.28643 0.05900
C 	C 	0.28747 0.95473 0.29693 -0.07000
H 	H 	0.27317 0.94343 0.31513 0.06700
C 	C 	0.34207 0.93803 0.23763 0.29000
C 	C 	0.14597 0.97093 0.54103 0.29300
C 	C 	0.11537 0.97743 0.54003 -0.06200
C 	C 	0.11827 0.00813 0.55373 0.00500
H 	H 	0.14007 0.02503 0.56343 0.05800
C 	C 	0.08997 0.01413 0.55343 -0.06900
H 	H 	0.09257 0.03563 0.56213 0.07000
C 	C 	0.05787 0.98883 0.54053 0.02000
C 	C 	0.05427 0.95823 0.52703 -0.06600
H 	H 	0.03197 0.94103 0.51793 0.06900
C 	C 	0.08347 0.95233 0.52683 0.00300
H 	H 	0.08117 0.93123 0.51753 0.05600
C 	C 	0.02687 0.99463 0.54083 0.11800
O 	O 	0.18367 0.69433 0.84933 0.31800
O 	O 	0.21867 0.75033 0.84133 -0.15100
C 	C 	0.20917 0.71933 0.83363 0.38200
C 	C 	0.23607 0.70633 0.82623 -0.34800
C 	C 	0.22717 0.67083 0.82363 0.09800
C 	C 	0.25347 0.66223 0.81703 -0.01000
C 	C 	0.28867 0.68913 0.81333 0.00600
C 	C 	0.29767 0.72473 0.81563 0.03700
C 	C 	0.27137 0.73333 0.82233 0.03000
N 	N 	0.35197 0.70653 0.81333 -0.11900
C 	C 	0.31877 0.67953 0.81333 0.09300
O 	O 	0.93067 0.57733 0.55133 0.95900
O 	O 	0.90107 0.57573 0.59543 -0.31900
C 	C 	0.02517 0.67383 0.61933 0.01400
C 	C 	0.01467 0.63933 0.62903 0.38100
H 	H 	0.02657 0.63503 0.64563 -0.09300
C 	C 	0.98487 0.61053 0.61453 -0.38700
H 	H 	0.97737 0.58683 0.62133 0.16300
C 	C 	0.96687 0.61653 0.59033 0.41100
C 	C 	0.97767 0.65133 0.58043 -0.55500
H 	H 	0.96507 0.65533 0.56383 0.21200
C 	C 	0.00717 0.67983 0.59533 0.70600
H 	H 	0.01427 0.70353 0.58813 -0.17200
C 	C 	0.93167 0.58933 0.58133 1.68900
O 	O 	0.15517 0.67123 0.86793 -0.28300
O 	O 	0.19007 0.72363 0.84943 -0.43900
C 	C 	0.18337 0.69243 0.85383 -0.40700
C 	C 	0.21457 0.68483 0.85083 0.03100
C 	C 	0.21017 0.65103 0.85543 -0.00100
C 	C 	0.23917 0.64573 0.85233 0.00800
C 	C 	0.27267 0.67433 0.84463 0.01000
C 	C 	0.27707 0.70813 0.84003 -0.07500
C 	C 	0.24797 0.71333 0.84313 0.25300
N 	N 	0.33597 0.70023 0.84483 -0.12400
C 	C 	0.30557 0.66943 0.84483 0.11500
In	In	0.86708 0.29395 0.87568 2.00000
In	In	0.80416 0.04173 0.19938 2.00800
O 	O 	0.84443 0.23447 0.87777 -0.42400
O 	O 	0.84483 0.26187 0.92177 -0.43000
O 	O 	0.77813 0.01557 0.15177 -0.44500
O 	O 	0.80543 0.07367 0.15747 -0.43400
O 	O 	0.88973 0.33597 0.83637 -0.43200
O 	O 	0.87593 0.28117 0.82547 -0.42600
O 	O 	0.88243 0.49097 0.58597 -0.31600
O 	O 	0.92883 0.50437 0.55657 -0.48600
O 	O 	0.03483 0.28947 0.55187 -0.42200
O 	O 	0.99803 0.23887 0.57557 -0.42500
O 	O 	0.81133 0.27897 0.85877 -0.42900
O 	O 	0.84003 0.32477 0.89107 -0.41700
N 	N 	0.73973 0.06987 0.95177 -0.14400
N 	N 	0.77263 0.09477 0.99897 -0.14200
N 	N 	0.72733 0.03417 0.99747 -0.14200
N 	N 	0.91743 0.37277 0.67207 -0.14300
N 	N 	0.94183 0.36527 0.62427 -0.14000
N 	N 	0.93353 0.32827 0.66877 -0.14500
N 	N 	0.70073 0.36177 0.87407 -0.14200
C 	C 	0.83723 0.23367 0.90757 0.30200
C 	C 	0.81863 0.19837 0.92317 -0.07200
C 	C 	0.81713 0.19597 0.95577 0.01100
H 	H 	0.82743 0.21707 0.96837 0.04900
C 	C 	0.80063 0.16277 0.97057 -0.07300
H 	H 	0.80043 0.16137 0.99327 0.06900
C 	C 	0.78463 0.13247 0.95327 0.02200
C 	C 	0.78543 0.13397 0.92027 -0.07100
H 	H 	0.77433 0.11277 0.90787 0.06600
C 	C 	0.80313 0.16777 0.90547 0.01000
H 	H 	0.80433 0.16937 0.88287 0.05600
C 	C 	0.76503 0.09717 0.96887 0.11800
C 	C 	0.72113 0.03927 0.96707 0.11400
C 	C 	0.75463 0.06247 0.01227 0.11700
O 	O 	0.62813 0.91507 0.86987 -0.16800
O 	O 	0.58463 0.90677 0.90047 -1.68200
C 	C 	0.69203 0.01007 0.94927 0.01400
C 	C 	0.69543 0.00837 0.91687 -0.93200
H 	H 	0.71563 0.02687 0.90627 0.36000
C 	C 	0.67023 0.98047 0.89967 0.90500
H 	H 	0.67383 0.97897 0.87747 -0.23600
C 	C 	0.64233 0.95677 0.91297 -0.62300
C 	C 	0.63523 0.95807 0.94567 0.24900
H 	H 	0.61303 0.94107 0.95487 -0.13500
C 	C 	0.66223 0.98547 0.96427 -0.45600
H 	H 	0.65953 0.98657 0.98667 0.18600
C 	C 	0.61673 0.92317 0.89397 -0.94300
C 	C 	0.76283 0.05767 0.04477 0.01600
C 	C 	0.74923 0.02367 0.05777 -0.06800
H 	H 	0.73453 0.00317 0.04527 0.06800
C 	C 	0.75693 0.01967 0.08867 0.00500
H 	H 	0.74683 0.99637 0.09767 0.05400
C 	C 	0.77963 0.04957 0.10697 -0.06400
C 	C 	0.79323 0.08307 0.09377 0.00500
H 	H 	0.80823 0.10357 0.10617 0.05800
C 	C 	0.78553 0.08717 0.06307 -0.06700
H 	H 	0.79583 0.11047 0.05407 0.06600
C 	C 	0.78813 0.04567 0.14077 0.30400
C 	C 	0.88773 0.31327 0.81667 0.30300
C 	C 	0.89993 0.29867 0.76247 0.01200
H 	H 	0.89623 0.27657 0.77057 0.04900
C 	C 	0.89663 0.32177 0.78247 -0.07200
C 	C 	0.90853 0.30657 0.73107 -0.07200
H 	H 	0.91143 0.29047 0.71767 0.06400
C 	C 	0.91323 0.33867 0.71857 0.02100
C 	C 	0.90963 0.36187 0.73857 -0.06900
H 	H 	0.91243 0.38357 0.73037 0.07000
C 	C 	0.90213 0.35397 0.77037 0.01100
H 	H 	0.90073 0.37067 0.78407 0.05100
C 	C 	0.92203 0.34697 0.68477 0.12000
C 	C 	0.92783 0.38117 0.64247 0.11600
C 	C 	0.95963 0.32107 0.62037 0.01700
C 	C 	0.92213 0.40867 0.62657 0.03100
C 	C 	0.90163 0.42077 0.64057 -0.08800
H 	H 	0.89183 0.41267 0.66117 0.07600
C 	C 	0.89533 0.44487 0.62447 0.03200
H 	H 	0.87873 0.45097 0.63297 0.04800
C 	C 	0.91223 0.46017 0.59667 -0.09100
C 	C 	0.93553 0.45047 0.58397 0.02400
H 	H 	0.94833 0.46177 0.56507 0.05500
C 	C 	0.94073 0.42427 0.59827 -0.08100
H 	H 	0.95633 0.41717 0.58917 0.07300
C 	C 	0.90863 0.48777 0.57917 0.34900
C 	C 	0.94403 0.33897 0.63857 0.11700
C 	C 	0.98133 0.33807 0.59427 -0.06700
H 	H 	0.98493 0.36057 0.58747 0.07000
C 	C 	0.99733 0.32197 0.57807 0.00500
H 	H 	0.01253 0.33367 0.56037 0.05300
C 	C 	0.99143 0.28917 0.58767 -0.06200
C 	C 	0.96953 0.27167 0.61357 0.00300
H 	H 	0.96533 0.24877 0.61977 0.05900
C 	C 	0.95413 0.28807 0.63027 -0.07000
H 	H 	0.93983 0.27677 0.64847 0.06700
C 	C 	0.00873 0.27137 0.57097 0.29000
C 	C 	0.81263 0.30427 0.87437 0.29300
C 	C 	0.78203 0.31077 0.87337 -0.06200
C 	C 	0.78493 0.34147 0.88707 0.00500
H 	H 	0.80673 0.35837 0.89677 0.05800
C 	C 	0.75663 0.34747 0.88677 -0.06900
H 	H 	0.75923 0.36897 0.89547 0.07000
C 	C 	0.72453 0.32217 0.87387 0.02000
C 	C 	0.72093 0.29157 0.86037 -0.06600
H 	H 	0.69863 0.27437 0.85127 0.06900
C 	C 	0.75013 0.28567 0.86017 0.00300
H 	H 	0.74783 0.26457 0.85087 0.05600
C 	C 	0.69353 0.32797 0.87417 0.11800
O 	O 	0.85033 0.02767 0.18267 0.31800
O 	O 	0.88533 0.08367 0.17467 -0.15100
C 	C 	0.87583 0.05267 0.16697 0.38200
C 	C 	0.90273 0.03967 0.15957 -0.34800
C 	C 	0.89383 0.00417 0.15697 0.09800
C 	C 	0.92013 0.99557 0.15037 -0.01000
C 	C 	0.95533 0.02247 0.14667 0.00600
C 	C 	0.96433 0.05807 0.14897 0.03700
C 	C 	0.93803 0.06667 0.15567 0.03000
N 	N 	0.01863 0.03987 0.14667 -0.11900
C 	C 	0.98543 0.01287 0.14667 0.09300
O 	O 	0.59733 0.91067 0.88467 0.95900
O 	O 	0.56773 0.90907 0.92877 -0.31900
C 	C 	0.69183 0.00717 0.95267 0.01400
C 	C 	0.68133 0.97267 0.96237 0.38100
H 	H 	0.69323 0.96837 0.97897 -0.09200
C 	C 	0.65153 0.94387 0.94787 -0.38700
H 	H 	0.64403 0.92017 0.95467 0.16300
C 	C 	0.63353 0.94987 0.92367 0.41100
C 	C 	0.64433 0.98467 0.91377 -0.55500
H 	H 	0.63173 0.98867 0.89717 0.21200
C 	C 	0.67383 0.01317 0.92867 0.70600
H 	H 	0.68093 0.03687 0.92147 -0.17200
C 	C 	0.59833 0.92267 0.91467 1.68800
O 	O 	0.82183 0.00457 0.20127 -0.28300
O 	O 	0.85673 0.05697 0.18277 -0.43900
C 	C 	0.85003 0.02577 0.18717 -0.40700
C 	C 	0.88123 0.01817 0.18417 0.03100
C 	C 	0.87683 0.98437 0.18877 -0.00100
C 	C 	0.90583 0.97907 0.18567 0.00800
C 	C 	0.93933 0.00767 0.17797 0.01000
C 	C 	0.94373 0.04147 0.17337 -0.07500
C 	C 	0.91463 0.04667 0.17647 0.25300
N 	N 	0.00263 0.03357 0.17817 -0.12400
C 	C 	0.97223 0.00277 0.17817 0.11500
