data_crystal

_cell_length_a 12.78000
_cell_length_b 10.49400
_cell_length_c 15.87000
_cell_angle_alpha 90.00000
_cell_angle_beta  109.31000
_cell_angle_gamma 90.00000

_symmetry_space_group_name_	'P 1'
_symmetry_space_group_name_H-M	'P 1'

loop_
_symmetry_equiv_pos_as_xyz
  x,y,z

loop_
_atom_site_label
_atom_site_type_symbol
_atom_site_fract_x
_atom_site_fract_y
_atom_site_fract_z
_atom_site_charge
Cd	Cd	0.63880 0.53251 0.88754 1.20300
N 	N 	0.73630 0.43210 0.03130 -0.20800
N 	N 	0.81500 0.46970 0.89360 -0.23400
N 	N 	0.96860 0.35280 0.95090 -0.11100
C 	C 	0.56700 0.45820 0.69210 0.32200
C 	C 	0.52860 0.47770 0.59230 -0.04900
C 	C 	0.56210 0.58800 0.55910 -0.00800
H 	H 	0.60330 0.64800 0.59960 0.04300
C 	C 	0.46310 0.38770 0.53130 -0.05000
C 	C 	0.41950 0.26680 0.55960 0.32000
C 	C 	0.08230 0.91560 0.04210 -0.05900
H 	H 	0.13850 0.85860 0.07080 0.05900
C 	C 	0.10580 0.04360 0.04380 -0.08500
H 	H 	0.17750 0.07200 0.07350 0.07000
C 	C 	0.02400 0.13020 0.00190 0.05400
C 	C 	0.05210 0.27020 0.00970 -0.11200
H 	H 	0.06470 0.29660 0.07080 0.06400
H 	H 	0.12100 0.28220 0.99750 0.05700
C 	C 	0.97190 0.40080 0.87030 0.04500
C 	C 	0.04940 0.38780 0.82670 -0.07300
H 	H 	0.11240 0.33750 0.84970 0.05400
C 	C 	0.02800 0.45310 0.74800 -0.04000
H 	H 	0.07830 0.44770 0.71720 0.04500
C 	C 	0.93270 0.52760 0.71260 -0.00500
H 	H 	0.92080 0.56990 0.65870 0.03500
C 	C 	0.85620 0.53950 0.75620 -0.11500
H 	H 	0.79320 0.58960 0.73270 0.06700
C 	C 	0.87550 0.47500 0.83550 0.07000
C 	C 	0.87360 0.39570 0.96160 0.06800
C 	C 	0.83190 0.36920 0.03510 0.03500
C 	C 	0.87130 0.28750 0.10530 -0.08800
H 	H 	0.93540 0.23880 0.11710 0.06700
C 	C 	0.70470 0.39650 0.09780 0.01900
H 	H 	0.64110 0.42890 0.10620 0.01400
O 	O 	0.57870 0.55550 0.74020 -0.42100
O 	O 	0.58730 0.34700 0.71930 -0.30300
O 	O 	0.44950 0.16300 0.53520 -0.40300
O 	O 	0.35190 0.26880 0.60010 -0.36700
S 	S 	0.78680 0.28740 0.16827 0.02200
Cd	Cd	0.36120 0.03251 0.61246 1.20200
N 	N 	0.26370 0.93210 0.46870 -0.20900
N 	N 	0.18500 0.96970 0.60640 -0.23400
N 	N 	0.03140 0.85280 0.54910 -0.11100
C 	C 	0.43300 0.95820 0.80790 0.32300
C 	C 	0.47140 0.97770 0.90770 -0.04800
C 	C 	0.43790 0.08800 0.94090 -0.01000
H 	H 	0.39670 0.14800 0.90040 0.04300
C 	C 	0.53690 0.88770 0.96870 -0.04900
C 	C 	0.58050 0.76680 0.94040 0.32000
C 	C 	0.91770 0.41560 0.45790 -0.06100
H 	H 	0.86150 0.35860 0.42920 0.05900
C 	C 	0.89420 0.54360 0.45620 -0.08400
H 	H 	0.82250 0.57200 0.42650 0.06900
C 	C 	0.97600 0.63020 0.49810 0.05500
C 	C 	0.94790 0.77020 0.49030 -0.11400
H 	H 	0.93530 0.79660 0.42920 0.06400
H 	H 	0.87900 0.78220 0.50250 0.05800
C 	C 	0.02810 0.90080 0.62970 0.04600
C 	C 	0.95060 0.88780 0.67330 -0.07500
H 	H 	0.88760 0.83750 0.65030 0.05400
C 	C 	0.97200 0.95310 0.75200 -0.03900
H 	H 	0.92170 0.94770 0.78280 0.04500
C 	C 	0.06730 0.02760 0.78740 -0.00500
H 	H 	0.07920 0.06990 0.84130 0.03500
C 	C 	0.14380 0.03950 0.74380 -0.11800
H 	H 	0.20680 0.08960 0.76730 0.06800
C 	C 	0.12450 0.97500 0.66450 0.07300
C 	C 	0.12640 0.89570 0.53840 0.06800
C 	C 	0.16810 0.86920 0.46490 0.03400
C 	C 	0.12870 0.78750 0.39470 -0.08800
H 	H 	0.06460 0.73880 0.38290 0.06700
C 	C 	0.29530 0.89650 0.40220 0.01900
H 	H 	0.35890 0.92890 0.39380 0.01500
O 	O 	0.42130 0.05550 0.75980 -0.42200
O 	O 	0.41270 0.84700 0.78070 -0.30300
O 	O 	0.55050 0.66300 0.96480 -0.40300
O 	O 	0.64810 0.76880 0.89990 -0.36700
S 	S 	0.21320 0.78740 0.33173 0.02200
Cd	Cd	0.36120 0.46749 0.11246 1.20200
N 	N 	0.26370 0.56790 0.96870 -0.20900
N 	N 	0.18500 0.53030 0.10640 -0.23400
N 	N 	0.03140 0.64720 0.04910 -0.11100
C 	C 	0.43300 0.54180 0.30790 0.32200
C 	C 	0.47140 0.52230 0.40770 -0.04900
C 	C 	0.43790 0.41200 0.44090 -0.00800
H 	H 	0.39670 0.35200 0.40040 0.04300
C 	C 	0.53690 0.61230 0.46870 -0.05000
C 	C 	0.58050 0.73320 0.44040 0.32000
C 	C 	0.91770 0.08440 0.95790 -0.05900
H 	H 	0.86150 0.14140 0.92920 0.05900
C 	C 	0.89420 0.95640 0.95620 -0.08500
H 	H 	0.82250 0.92800 0.92650 0.07000
C 	C 	0.97600 0.86980 0.99810 0.05400
C 	C 	0.94790 0.72980 0.99030 -0.11200
H 	H 	0.93530 0.70340 0.92920 0.06400
H 	H 	0.87900 0.71780 0.00250 0.05700
C 	C 	0.02810 0.59920 0.12970 0.04500
C 	C 	0.95060 0.61220 0.17330 -0.07300
H 	H 	0.88760 0.66250 0.15030 0.05400
C 	C 	0.97200 0.54690 0.25200 -0.04000
H 	H 	0.92170 0.55230 0.28280 0.04500
C 	C 	0.06730 0.47240 0.28740 -0.00500
H 	H 	0.07920 0.43010 0.34130 0.03500
C 	C 	0.14380 0.46050 0.24380 -0.11500
H 	H 	0.20680 0.41040 0.26730 0.06700
C 	C 	0.12450 0.52500 0.16450 0.07000
C 	C 	0.12640 0.60430 0.03840 0.06800
C 	C 	0.16810 0.63080 0.96490 0.03500
C 	C 	0.12870 0.71250 0.89470 -0.08800
H 	H 	0.06460 0.76120 0.88290 0.06700
C 	C 	0.29530 0.60350 0.90220 0.01900
H 	H 	0.35890 0.57110 0.89380 0.01400
O 	O 	0.42130 0.44450 0.25980 -0.42100
O 	O 	0.41270 0.65300 0.28070 -0.30300
O 	O 	0.55050 0.83700 0.46480 -0.40300
O 	O 	0.64810 0.73120 0.39990 -0.36700
S 	S 	0.21320 0.71260 0.83173 0.02200
Cd	Cd	0.63880 0.96749 0.38754 1.20200
N 	N 	0.73630 0.06790 0.53130 -0.20900
N 	N 	0.81500 0.03030 0.39360 -0.23400
N 	N 	0.96860 0.14720 0.45090 -0.11100
C 	C 	0.56700 0.04180 0.19210 0.32300
C 	C 	0.52860 0.02230 0.09230 -0.04800
C 	C 	0.56210 0.91200 0.05910 -0.01000
H 	H 	0.60330 0.85200 0.09960 0.04300
C 	C 	0.46310 0.11230 0.03130 -0.04900
C 	C 	0.41950 0.23320 0.05960 0.32000
C 	C 	0.08230 0.58440 0.54210 -0.06100
H 	H 	0.13850 0.64140 0.57080 0.05900
C 	C 	0.10580 0.45640 0.54380 -0.08400
H 	H 	0.17750 0.42800 0.57350 0.06900
C 	C 	0.02400 0.36980 0.50190 0.05500
C 	C 	0.05210 0.22980 0.50970 -0.11400
H 	H 	0.06470 0.20340 0.57080 0.06400
H 	H 	0.12100 0.21780 0.49750 0.05800
C 	C 	0.97190 0.09920 0.37030 0.04600
C 	C 	0.04940 0.11220 0.32670 -0.07500
H 	H 	0.11240 0.16250 0.34970 0.05400
C 	C 	0.02800 0.04690 0.24800 -0.03900
H 	H 	0.07830 0.05230 0.21720 0.04500
C 	C 	0.93270 0.97240 0.21260 -0.00500
H 	H 	0.92080 0.93010 0.15870 0.03500
C 	C 	0.85620 0.96050 0.25620 -0.11800
H 	H 	0.79320 0.91040 0.23270 0.06800
C 	C 	0.87550 0.02500 0.33550 0.07300
C 	C 	0.87360 0.10430 0.46160 0.06800
C 	C 	0.83190 0.13080 0.53510 0.03400
C 	C 	0.87130 0.21250 0.60530 -0.08800
H 	H 	0.93540 0.26120 0.61710 0.06700
C 	C 	0.70470 0.10350 0.59780 0.01900
H 	H 	0.64110 0.07110 0.60620 0.01500
O 	O 	0.57870 0.94450 0.24020 -0.42200
O 	O 	0.58730 0.15300 0.21930 -0.30300
O 	O 	0.44950 0.33700 0.03520 -0.40300
O 	O 	0.35190 0.23120 0.10010 -0.36700
S 	S 	0.78680 0.21260 0.66827 0.02200
