data_crystal

_cell_length_a 18.74810
_cell_length_b 20.07140
_cell_length_c 32.86500
_cell_angle_alpha 90.00000
_cell_angle_beta  98.53500
_cell_angle_gamma 90.00000

_symmetry_space_group_name_	'P 1'
_symmetry_space_group_name_H-M	'P 1'

loop_
_symmetry_equiv_pos_as_xyz
  x,y,z

loop_
_atom_site_label
_atom_site_type_symbol
_atom_site_fract_x
_atom_site_fract_y
_atom_site_fract_z
_atom_site_charge
Co	Co	0.79112 0.19191 0.99918 1.15200
Co	Co	0.72417 0.34000 0.03839 1.16400
Co	Co	0.77332 0.35522 0.94643 1.16800
Co	Co	0.82347 0.20818 0.90729 1.14400
Co	Co	0.67761 0.18940 0.07593 1.15100
N 	N 	0.87480 0.15290 0.86348 -0.21400
N 	N 	0.27270 0.55070 0.95023 -0.19500
N 	N 	0.76990 0.46390 0.94636 -0.20300
N 	N 	0.62260 0.36250 0.61996 -0.20900
O 	O 	0.71870 0.24370 0.62249 -0.43600
O 	O 	0.78380 0.16590 0.59561 -0.43500
O 	O 	0.18130 0.88040 0.95867 -0.46800
O 	O 	0.23110 0.86820 0.90176 -0.44200
O 	O 	0.87530 0.36247 0.92858 -0.44200
O 	O 	0.92060 0.25960 0.92213 -0.45100
O 	O 	0.62170 0.26140 0.94642 -0.27100
O 	O 	0.67158 0.35658 0.97240 -0.48000
O 	O 	0.12460 0.74940 0.97237 -0.45500
O 	O 	0.17523 0.64882 0.98681 -0.51900
O 	O 	0.42330 0.76030 0.94150 -0.41600
O 	O 	0.37750 0.65680 0.94320 -0.43200
O 	O 	0.71850 0.35620 0.88720 -0.41600
O 	O 	0.77220 0.26850 0.86071 -0.43400
O 	O 	0.25750 0.63600 0.59935 -0.43500
O 	O 	0.28250 0.62250 0.53490 -0.42400
O 	O 	0.77056 0.25428 0.94941 -0.59900
O 	O 	0.71301 0.23824 0.02719 -0.58000
C 	C 	0.92770 0.10920 0.87493 0.03800
H 	H 	0.94330 0.10350 0.90290 -0.00800
C 	C 	0.96110 0.07150 0.84730 -0.04900
C 	C 	0.93950 0.08330 0.80510 -0.02000
H 	H 	0.96110 0.06010 0.78570 0.03600
C 	C 	0.88570 0.12990 0.79230 -0.05400
C 	C 	0.85460 0.16200 0.82315 0.03700
H 	H 	0.81710 0.19180 0.81500 0.02200
C 	C 	0.01770 0.02270 0.86380 0.09800
C 	C 	0.01050 0.98940 0.89990 -0.15300
H 	H 	0.96960 0.99600 0.91230 0.07800
C 	C 	0.06390 0.94640 0.91750 0.07900
H 	H 	0.05850 0.92480 0.94190 0.00700
C 	C 	0.12530 0.93480 0.89958 -0.15100
C 	C 	0.12960 0.96460 0.86180 0.08000
H 	H 	0.16850 0.95520 0.84820 0.01500
C 	C 	0.07660 0.00790 0.84440 -0.15700
H 	H 	0.08040 0.02760 0.81920 0.08600
C 	C 	0.18420 0.89010 0.92118 0.40700
C 	C 	0.85980 0.14650 0.74870 0.12000
C 	C 	0.86130 0.10550 0.71710 -0.18500
H 	H 	0.88330 0.06420 0.72210 0.09600
C 	C 	0.83180 0.12110 0.67740 0.11000
H 	H 	0.83410 0.09000 0.65660 0.00600
C 	C 	0.79990 0.17980 0.66773 -0.16300
C 	C 	0.80960 0.22840 0.69850 0.09400
H 	H 	0.79610 0.27220 0.69210 0.01000
C 	C 	0.83860 0.21240 0.73790 -0.17000
H 	H 	0.84440 0.24550 0.75790 0.09500
C 	C 	0.76450 0.19830 0.62504 0.39800
C 	C 	0.33320 0.51700 0.94827 0.02600
H 	H 	0.37630 0.54070 0.95130 0.02500
C 	C 	0.33610 0.44850 0.94200 -0.03500
C 	C 	0.27060 0.41400 0.93610 -0.03200
H 	H 	0.26990 0.36830 0.93140 0.03900
C 	C 	0.20620 0.44830 0.93726 -0.03700
C 	C 	0.21070 0.51690 0.94463 0.02800
H 	H 	0.16810 0.54030 0.94570 0.02400
C 	C 	0.40770 0.41470 0.94290 0.08800
C 	C 	0.46860 0.44600 0.96290 -0.13900
H 	H 	0.46440 0.48790 0.97440 0.07900
C 	C 	0.53630 0.41600 0.96610 0.06100
H 	H 	0.57650 0.43850 0.97930 0.01400
C 	C 	0.54470 0.35370 0.94993 -0.12800
C 	C 	0.48440 0.32200 0.93050 0.06200
H 	H 	0.48860 0.27980 0.91940 0.02300
C 	C 	0.41690 0.35190 0.92710 -0.14000
H 	H 	0.37690 0.32910 0.91380 0.07900
C 	C 	0.61730 0.32080 0.95602 0.34300
C 	C 	0.13520 0.41390 0.93210 0.09300
C 	C 	0.12830 0.34880 0.94500 -0.14600
H 	H 	0.16930 0.32510 0.95600 0.08000
C 	C 	0.06110 0.31830 0.94170 0.07300
H 	H 	0.05760 0.27440 0.95020 0.01400
C 	C 	0.99920 0.35270 0.92575 -0.14200
C 	C 	0.00630 0.41710 0.91160 0.07300
H 	H 	0.96550 0.44040 0.89990 0.01600
C 	C 	0.07310 0.44720 0.91450 -0.15100
H 	H 	0.07660 0.49030 0.90460 0.08700
C 	C 	0.92580 0.32240 0.92570 0.38400
C 	C 	0.70890 0.49890 0.94464 0.03200
H 	H 	0.66590 0.47550 0.94340 0.02000
C 	C 	0.70590 0.56730 0.94450 -0.03900
C 	C 	0.77200 0.60200 0.94760 -0.02800
H 	H 	0.77240 0.64840 0.94830 0.03800
C 	C 	0.83650 0.56700 0.94945 -0.03900
C 	C 	0.83180 0.49770 0.94784 0.02600
H 	H 	0.87410 0.47350 0.94780 0.02300
C 	C 	0.90880 0.60010 0.95380 0.09900
C 	C 	0.97040 0.56200 0.96650 -0.15900
H 	H 	0.96560 0.51650 0.97050 0.08700
C 	C 	0.03790 0.59000 0.97310 0.08700
H 	H 	0.07780 0.56340 0.98200 0.00500
C 	C 	0.04730 0.65670 0.96673 -0.15600
C 	C 	0.98720 0.69510 0.95330 0.08300
H 	H 	0.99270 0.74030 0.94830 0.01300
C 	C 	0.91950 0.66740 0.94720 -0.15600
H 	H 	0.87980 0.69440 0.93850 0.08400
C 	C 	0.12070 0.68750 0.97534 0.37700
C 	C 	0.63580 0.60310 0.94220 0.09000
C 	C 	0.57350 0.57480 0.92150 -0.14400
H 	H 	0.57600 0.53450 0.90790 0.08400
C 	C 	0.50660 0.60630 0.92090 0.06300
H 	H 	0.46530 0.58630 0.90700 0.01900
C 	C 	0.50090 0.66680 0.94044 -0.13200
C 	C 	0.56410 0.69570 0.96070 0.06600
H 	H 	0.56200 0.73690 0.97350 0.01800
C 	C 	0.63000 0.66360 0.96210 -0.14000
H 	H 	0.67120 0.68300 0.97660 0.07800
C 	C 	0.42800 0.69740 0.94158 0.38100
C 	C 	0.64530 0.35500 0.66010 0.03100
H 	H 	0.68630 0.32930 0.66830 0.02800
C 	C 	0.61060 0.38380 0.69030 -0.04100
C 	C 	0.55250 0.42500 0.67800 -0.03000
H 	H 	0.52950 0.44630 0.69760 0.03700
C 	C 	0.52790 0.43510 0.63570 -0.03900
C 	C 	0.56480 0.40080 0.60863 0.03200
H 	H 	0.54810 0.40470 0.58060 -0.00100
C 	C 	0.63810 0.36940 0.73420 0.09700
C 	C 	0.66100 0.30310 0.74460 -0.14300
H 	H 	0.65660 0.27040 0.72440 0.08700
C 	C 	0.68980 0.28680 0.78500 0.06500
H 	H 	0.70480 0.24350 0.79170 0.02000
C 	C 	0.69600 0.33670 0.81575 -0.14000
C 	C 	0.66160 0.39490 0.80600 0.08200
H 	H 	0.65720 0.42550 0.82670 0.01600
C 	C 	0.63260 0.41020 0.76570 -0.15900
H 	H 	0.60840 0.45040 0.76040 0.08600
C 	C 	0.73180 0.31830 0.85816 0.38900
C 	C 	0.46670 0.47890 0.62031 0.06700
C 	C 	0.43000 0.47260 0.57990 -0.07600
H 	H 	0.44340 0.43880 0.56330 0.05200
C 	C 	0.37450 0.51510 0.56430 0.01800
H 	H 	0.35170 0.51030 0.53730 0.02400
C 	C 	0.38490 0.56800 0.62960 0.00800
H 	H 	0.36850 0.59850 0.64740 0.03600
C 	C 	0.44130 0.52540 0.64440 -0.04100
H 	H 	0.46240 0.52900 0.67170 0.04200
C 	C 	0.35300 0.56550 0.58930 -0.10200
C 	C 	0.29250 0.61150 0.57314 0.36800
C 	C 	0.46870 0.51260 0.58330 -0.05200
H 	H 	0.50780 0.50690 0.56930 0.04100
C 	C 	0.41090 0.55560 0.56690 -0.00600
H 	H 	0.41140 0.57690 0.54180 0.03500
C 	C 	0.35530 0.53300 0.62810 -0.00000
H 	H 	0.31840 0.54050 0.64370 0.03500
C 	C 	0.41140 0.49040 0.64310 -0.07900
H 	H 	0.41190 0.46960 0.66840 0.05400
Co	Co	0.20888 0.69191 0.50082 1.15100
Co	Co	0.27583 0.84000 0.46161 1.16300
Co	Co	0.22668 0.85522 0.55357 1.16700
Co	Co	0.17653 0.70818 0.59271 1.14300
Co	Co	0.32239 0.68940 0.42407 1.15000
N 	N 	0.12520 0.65290 0.63652 -0.21500
N 	N 	0.72730 0.05070 0.54977 -0.19500
N 	N 	0.23010 0.96390 0.55364 -0.20400
N 	N 	0.37740 0.86250 0.88004 -0.20900
O 	O 	0.28130 0.74370 0.87751 -0.43600
O 	O 	0.21620 0.66590 0.90439 -0.43500
O 	O 	0.81870 0.38040 0.54133 -0.46900
O 	O 	0.76890 0.36820 0.59824 -0.44300
O 	O 	0.12470 0.86247 0.57142 -0.44100
O 	O 	0.07940 0.75960 0.57787 -0.45100
O 	O 	0.37830 0.76140 0.55358 -0.27100
O 	O 	0.32842 0.85658 0.52760 -0.47900
O 	O 	0.87540 0.24940 0.52763 -0.45500
O 	O 	0.82477 0.14882 0.51319 -0.51900
O 	O 	0.57670 0.26030 0.55850 -0.41600
O 	O 	0.62250 0.15680 0.55680 -0.43200
O 	O 	0.28150 0.85620 0.61280 -0.41600
O 	O 	0.22780 0.76850 0.63929 -0.43400
O 	O 	0.74250 0.13600 0.90065 -0.43500
O 	O 	0.71750 0.12250 0.96510 -0.42400
O 	O 	0.22944 0.75428 0.55059 -0.59900
O 	O 	0.28699 0.73824 0.47281 -0.58000
C 	C 	0.07230 0.60920 0.62507 0.03800
H 	H 	0.05670 0.60350 0.59710 -0.00800
C 	C 	0.03890 0.57150 0.65270 -0.05000
C 	C 	0.06050 0.58330 0.69490 -0.01900
H 	H 	0.03890 0.56010 0.71430 0.03600
C 	C 	0.11430 0.62990 0.70770 -0.05500
C 	C 	0.14540 0.66200 0.67685 0.03700
H 	H 	0.18290 0.69180 0.68500 0.02200
C 	C 	0.98230 0.52270 0.63620 0.10100
C 	C 	0.98950 0.48940 0.60010 -0.15900
H 	H 	0.03040 0.49600 0.58770 0.08100
C 	C 	0.93610 0.44640 0.58250 0.08200
H 	H 	0.94150 0.42480 0.55810 0.00600
C 	C 	0.87470 0.43480 0.60042 -0.15200
C 	C 	0.87040 0.46460 0.63820 0.08100
H 	H 	0.83150 0.45520 0.65180 0.01400
C 	C 	0.92340 0.50790 0.65560 -0.15800
H 	H 	0.91960 0.52760 0.68080 0.08700
C 	C 	0.81580 0.39010 0.57882 0.40800
C 	C 	0.14020 0.64650 0.75130 0.12100
C 	C 	0.13870 0.60550 0.78290 -0.18600
H 	H 	0.11670 0.56420 0.77790 0.09600
C 	C 	0.16820 0.62110 0.82260 0.11000
H 	H 	0.16590 0.59000 0.84340 0.00500
C 	C 	0.20010 0.67980 0.83227 -0.16300
C 	C 	0.19040 0.72840 0.80150 0.09400
H 	H 	0.20390 0.77220 0.80790 0.01000
C 	C 	0.16140 0.71240 0.76210 -0.17000
H 	H 	0.15560 0.74550 0.74210 0.09500
C 	C 	0.23550 0.69830 0.87496 0.39800
C 	C 	0.66680 0.01700 0.55173 0.02600
H 	H 	0.62370 0.04070 0.54870 0.02500
C 	C 	0.66390 0.94850 0.55800 -0.03500
C 	C 	0.72940 0.91400 0.56390 -0.03200
H 	H 	0.73010 0.86830 0.56860 0.03900
C 	C 	0.79380 0.94830 0.56274 -0.03600
C 	C 	0.78930 0.01690 0.55537 0.02800
H 	H 	0.83190 0.04030 0.55430 0.02400
C 	C 	0.59230 0.91470 0.55710 0.08700
C 	C 	0.53140 0.94600 0.53710 -0.13900
H 	H 	0.53560 0.98790 0.52560 0.07900
C 	C 	0.46370 0.91600 0.53390 0.06100
H 	H 	0.42350 0.93850 0.52070 0.01500
C 	C 	0.45530 0.85370 0.55007 -0.12800
C 	C 	0.51560 0.82200 0.56950 0.06200
H 	H 	0.51140 0.77980 0.58060 0.02300
C 	C 	0.58310 0.85190 0.57290 -0.14000
H 	H 	0.62310 0.82910 0.58620 0.07900
C 	C 	0.38270 0.82080 0.54398 0.34300
C 	C 	0.86480 0.91390 0.56790 0.09000
C 	C 	0.87170 0.84880 0.55500 -0.14300
H 	H 	0.83070 0.82510 0.54400 0.07900
C 	C 	0.93890 0.81830 0.55830 0.06800
H 	H 	0.94240 0.77440 0.54980 0.01500
C 	C 	0.00080 0.85270 0.57425 -0.13600
C 	C 	0.99370 0.91710 0.58840 0.06600
H 	H 	0.03450 0.94040 0.60010 0.01900
C 	C 	0.92690 0.94720 0.58550 -0.14600
H 	H 	0.92340 0.99030 0.59540 0.08500
C 	C 	0.07420 0.82240 0.57430 0.38200
C 	C 	0.29110 0.99890 0.55536 0.03200
H 	H 	0.33410 0.97550 0.55660 0.02000
C 	C 	0.29410 0.06730 0.55550 -0.04000
C 	C 	0.22800 0.10200 0.55240 -0.02800
H 	H 	0.22760 0.14840 0.55170 0.03700
C 	C 	0.16350 0.06700 0.55055 -0.04000
C 	C 	0.16820 0.99770 0.55216 0.02700
H 	H 	0.12590 0.97350 0.55220 0.02300
C 	C 	0.09120 0.10010 0.54620 0.09900
C 	C 	0.02960 0.06200 0.53350 -0.15900
H 	H 	0.03440 0.01650 0.52950 0.08700
C 	C 	0.96210 0.09000 0.52690 0.08700
H 	H 	0.92220 0.06340 0.51800 0.00500
C 	C 	0.95270 0.15670 0.53327 -0.15700
C 	C 	0.01280 0.19510 0.54670 0.08400
H 	H 	0.00730 0.24030 0.55170 0.01300
C 	C 	0.08050 0.16740 0.55280 -0.15700
H 	H 	0.12020 0.19440 0.56150 0.08400
C 	C 	0.87930 0.18750 0.52466 0.37700
C 	C 	0.36420 0.10310 0.55780 0.09000
C 	C 	0.42650 0.07480 0.57850 -0.14400
H 	H 	0.42400 0.03450 0.59210 0.08400
C 	C 	0.49340 0.10630 0.57910 0.06300
H 	H 	0.53470 0.08630 0.59300 0.01900
C 	C 	0.49910 0.16680 0.55956 -0.13300
C 	C 	0.43590 0.19570 0.53930 0.06600
H 	H 	0.43800 0.23690 0.52650 0.01800
C 	C 	0.37000 0.16360 0.53790 -0.14100
H 	H 	0.32880 0.18300 0.52340 0.07800
C 	C 	0.57200 0.19740 0.55842 0.38100
C 	C 	0.35470 0.85500 0.83990 0.03100
H 	H 	0.31370 0.82930 0.83170 0.02800
C 	C 	0.38940 0.88380 0.80970 -0.04100
C 	C 	0.44750 0.92500 0.82200 -0.03000
H 	H 	0.47050 0.94630 0.80240 0.03700
C 	C 	0.47210 0.93510 0.86430 -0.03900
C 	C 	0.43520 0.90080 0.89137 0.03200
H 	H 	0.45190 0.90470 0.91940 -0.00100
C 	C 	0.36190 0.86940 0.76580 0.09700
C 	C 	0.33900 0.80310 0.75540 -0.14300
H 	H 	0.34340 0.77040 0.77560 0.08700
C 	C 	0.31020 0.78680 0.71500 0.06500
H 	H 	0.29520 0.74350 0.70830 0.02000
C 	C 	0.30400 0.83670 0.68425 -0.14000
C 	C 	0.33840 0.89490 0.69400 0.08200
H 	H 	0.34280 0.92550 0.67330 0.01600
C 	C 	0.36740 0.91020 0.73430 -0.15900
H 	H 	0.39160 0.95040 0.73960 0.08600
C 	C 	0.26820 0.81830 0.64184 0.38900
C 	C 	0.53330 0.97890 0.87969 0.06700
C 	C 	0.57000 0.97260 0.92010 -0.07900
H 	H 	0.55660 0.93880 0.93670 0.05400
C 	C 	0.62550 0.01510 0.93570 0.02200
H 	H 	0.64830 0.01030 0.96270 0.02300
C 	C 	0.61510 0.06800 0.87040 0.00700
H 	H 	0.63150 0.09850 0.85260 0.03700
C 	C 	0.55870 0.02540 0.85560 -0.04000
H 	H 	0.53760 0.02900 0.82830 0.04100
C 	C 	0.64700 0.06550 0.91070 -0.10200
C 	C 	0.70750 0.11150 0.92686 0.36800
C 	C 	0.53130 0.01260 0.91670 -0.04900
H 	H 	0.49220 0.00690 0.93070 0.04000
C 	C 	0.58910 0.05560 0.93310 -0.00900
H 	H 	0.58860 0.07690 0.95820 0.03600
C 	C 	0.64470 0.03300 0.87190 0.00200
H 	H 	0.68160 0.04050 0.85630 0.03400
C 	C 	0.58860 0.99040 0.85690 -0.08000
H 	H 	0.58810 0.96960 0.83160 0.05400
Co	Co	0.20888 0.80809 0.00082 1.15100
Co	Co	0.27583 0.66000 0.96161 1.16300
Co	Co	0.22668 0.64478 0.05357 1.16700
Co	Co	0.17653 0.79182 0.09271 1.14300
Co	Co	0.32239 0.81060 0.92407 1.15000
N 	N 	0.12520 0.84710 0.13652 -0.21500
N 	N 	0.72730 0.44930 0.04977 -0.19500
N 	N 	0.23010 0.53610 0.05364 -0.20300
N 	N 	0.37740 0.63750 0.38004 -0.20900
O 	O 	0.28130 0.75630 0.37751 -0.43600
O 	O 	0.21620 0.83410 0.40439 -0.43500
O 	O 	0.81870 0.11960 0.04133 -0.46800
O 	O 	0.76890 0.13180 0.09824 -0.44200
O 	O 	0.12470 0.63753 0.07142 -0.44200
O 	O 	0.07940 0.74040 0.07787 -0.45100
O 	O 	0.37830 0.73860 0.05358 -0.27100
O 	O 	0.32842 0.64342 0.02760 -0.48000
O 	O 	0.87540 0.25060 0.02763 -0.45500
O 	O 	0.82477 0.35118 0.01319 -0.51900
O 	O 	0.57670 0.23970 0.05850 -0.41600
O 	O 	0.62250 0.34320 0.05680 -0.43200
O 	O 	0.28150 0.64380 0.11280 -0.41600
O 	O 	0.22780 0.73150 0.13929 -0.43400
O 	O 	0.74250 0.36400 0.40065 -0.43500
O 	O 	0.71750 0.37750 0.46510 -0.42400
O 	O 	0.22944 0.74572 0.05059 -0.59900
O 	O 	0.28699 0.76176 0.97281 -0.58000
C 	C 	0.07230 0.89080 0.12507 0.03800
H 	H 	0.05670 0.89650 0.09710 -0.00800
C 	C 	0.03890 0.92850 0.15270 -0.04900
C 	C 	0.06050 0.91670 0.19490 -0.02000
H 	H 	0.03890 0.93990 0.21430 0.03600
C 	C 	0.11430 0.87010 0.20770 -0.05400
C 	C 	0.14540 0.83800 0.17685 0.03700
H 	H 	0.18290 0.80820 0.18500 0.02200
C 	C 	0.98230 0.97730 0.13620 0.09800
C 	C 	0.98950 0.01060 0.10010 -0.15300
H 	H 	0.03040 0.00400 0.08770 0.07800
C 	C 	0.93610 0.05360 0.08250 0.07900
H 	H 	0.94150 0.07520 0.05810 0.00700
C 	C 	0.87470 0.06520 0.10042 -0.15100
C 	C 	0.87040 0.03540 0.13820 0.08000
H 	H 	0.83150 0.04480 0.15180 0.01500
C 	C 	0.92340 0.99210 0.15560 -0.15700
H 	H 	0.91960 0.97240 0.18080 0.08600
C 	C 	0.81580 0.10990 0.07882 0.40700
C 	C 	0.14020 0.85350 0.25130 0.12000
C 	C 	0.13870 0.89450 0.28290 -0.18500
H 	H 	0.11670 0.93580 0.27790 0.09600
C 	C 	0.16820 0.87890 0.32260 0.11000
H 	H 	0.16590 0.91000 0.34340 0.00600
C 	C 	0.20010 0.82020 0.33227 -0.16300
C 	C 	0.19040 0.77160 0.30150 0.09400
H 	H 	0.20390 0.72780 0.30790 0.01000
C 	C 	0.16140 0.78760 0.26210 -0.17000
H 	H 	0.15560 0.75450 0.24210 0.09500
C 	C 	0.23550 0.80170 0.37496 0.39800
C 	C 	0.66680 0.48300 0.05173 0.02600
H 	H 	0.62370 0.45930 0.04870 0.02500
C 	C 	0.66390 0.55150 0.05800 -0.03500
C 	C 	0.72940 0.58600 0.06390 -0.03200
H 	H 	0.73010 0.63170 0.06860 0.03900
C 	C 	0.79380 0.55170 0.06274 -0.03700
C 	C 	0.78930 0.48310 0.05537 0.02800
H 	H 	0.83190 0.45970 0.05430 0.02400
C 	C 	0.59230 0.58530 0.05710 0.08800
C 	C 	0.53140 0.55400 0.03710 -0.13900
H 	H 	0.53560 0.51210 0.02560 0.07900
C 	C 	0.46370 0.58400 0.03390 0.06100
H 	H 	0.42350 0.56150 0.02070 0.01400
C 	C 	0.45530 0.64630 0.05007 -0.12800
C 	C 	0.51560 0.67800 0.06950 0.06200
H 	H 	0.51140 0.72020 0.08060 0.02300
C 	C 	0.58310 0.64810 0.07290 -0.14000
H 	H 	0.62310 0.67090 0.08620 0.07900
C 	C 	0.38270 0.67920 0.04398 0.34300
C 	C 	0.86480 0.58610 0.06790 0.09300
C 	C 	0.87170 0.65120 0.05500 -0.14600
H 	H 	0.83070 0.67490 0.04400 0.08000
C 	C 	0.93890 0.68170 0.05830 0.07300
H 	H 	0.94240 0.72560 0.04980 0.01400
C 	C 	0.00080 0.64730 0.07425 -0.14200
C 	C 	0.99370 0.58290 0.08840 0.07300
H 	H 	0.03450 0.55960 0.10010 0.01600
C 	C 	0.92690 0.55280 0.08550 -0.15100
H 	H 	0.92340 0.50970 0.09540 0.08700
C 	C 	0.07420 0.67760 0.07430 0.38400
C 	C 	0.29110 0.50110 0.05536 0.03200
H 	H 	0.33410 0.52450 0.05660 0.02000
C 	C 	0.29410 0.43270 0.05550 -0.03900
C 	C 	0.22800 0.39800 0.05240 -0.02800
H 	H 	0.22760 0.35160 0.05170 0.03800
C 	C 	0.16350 0.43300 0.05055 -0.03900
C 	C 	0.16820 0.50230 0.05216 0.02600
H 	H 	0.12590 0.52650 0.05220 0.02300
C 	C 	0.09120 0.39990 0.04620 0.09900
C 	C 	0.02960 0.43800 0.03350 -0.15900
H 	H 	0.03440 0.48350 0.02950 0.08700
C 	C 	0.96210 0.41000 0.02690 0.08700
H 	H 	0.92220 0.43660 0.01800 0.00500
C 	C 	0.95270 0.34330 0.03327 -0.15600
C 	C 	0.01280 0.30490 0.04670 0.08300
H 	H 	0.00730 0.25970 0.05170 0.01300
C 	C 	0.08050 0.33260 0.05280 -0.15600
H 	H 	0.12020 0.30560 0.06150 0.08400
C 	C 	0.87930 0.31250 0.02466 0.37700
C 	C 	0.36420 0.39690 0.05780 0.09000
C 	C 	0.42650 0.42520 0.07850 -0.14400
H 	H 	0.42400 0.46550 0.09210 0.08400
C 	C 	0.49340 0.39370 0.07910 0.06300
H 	H 	0.53470 0.41370 0.09300 0.01900
C 	C 	0.49910 0.33320 0.05956 -0.13200
C 	C 	0.43590 0.30430 0.03930 0.06600
H 	H 	0.43800 0.26310 0.02650 0.01800
C 	C 	0.37000 0.33640 0.03790 -0.14000
H 	H 	0.32880 0.31700 0.02340 0.07800
C 	C 	0.57200 0.30260 0.05842 0.38100
C 	C 	0.35470 0.64500 0.33990 0.03100
H 	H 	0.31370 0.67070 0.33170 0.02800
C 	C 	0.38940 0.61620 0.30970 -0.04100
C 	C 	0.44750 0.57500 0.32200 -0.03000
H 	H 	0.47050 0.55370 0.30240 0.03700
C 	C 	0.47210 0.56490 0.36430 -0.03900
C 	C 	0.43520 0.59920 0.39137 0.03200
H 	H 	0.45190 0.59530 0.41940 -0.00100
C 	C 	0.36190 0.63060 0.26580 0.09700
C 	C 	0.33900 0.69690 0.25540 -0.14300
H 	H 	0.34340 0.72960 0.27560 0.08700
C 	C 	0.31020 0.71320 0.21500 0.06500
H 	H 	0.29520 0.75650 0.20830 0.02000
C 	C 	0.30400 0.66330 0.18425 -0.14000
C 	C 	0.33840 0.60510 0.19400 0.08200
H 	H 	0.34280 0.57450 0.17330 0.01600
C 	C 	0.36740 0.58980 0.23430 -0.15900
H 	H 	0.39160 0.54960 0.23960 0.08600
C 	C 	0.26820 0.68170 0.14184 0.38900
C 	C 	0.53330 0.52110 0.37969 0.06700
C 	C 	0.57000 0.52740 0.42010 -0.07600
H 	H 	0.55660 0.56120 0.43670 0.05200
C 	C 	0.62550 0.48490 0.43570 0.01800
H 	H 	0.64830 0.48970 0.46270 0.02400
C 	C 	0.61510 0.43200 0.37040 0.00800
H 	H 	0.63150 0.40150 0.35260 0.03600
C 	C 	0.55870 0.47460 0.35560 -0.04100
H 	H 	0.53760 0.47100 0.32830 0.04200
C 	C 	0.64700 0.43450 0.41070 -0.10200
C 	C 	0.70750 0.38850 0.42686 0.36800
C 	C 	0.53130 0.48740 0.41670 -0.05200
H 	H 	0.49220 0.49310 0.43070 0.04100
C 	C 	0.58910 0.44440 0.43310 -0.00600
H 	H 	0.58860 0.42310 0.45820 0.03500
C 	C 	0.64470 0.46700 0.37190 -0.00000
H 	H 	0.68160 0.45950 0.35630 0.03500
C 	C 	0.58860 0.50960 0.35690 -0.07900
H 	H 	0.58810 0.53040 0.33160 0.05400
Co	Co	0.79112 0.30809 0.49918 1.15100
Co	Co	0.72417 0.16000 0.53839 1.16300
Co	Co	0.77332 0.14478 0.44643 1.16700
Co	Co	0.82347 0.29182 0.40729 1.14300
Co	Co	0.67761 0.31060 0.57593 1.15000
N 	N 	0.87480 0.34710 0.36348 -0.21500
N 	N 	0.27270 0.94930 0.45023 -0.19500
N 	N 	0.76990 0.03610 0.44636 -0.20400
N 	N 	0.62260 0.13750 0.11996 -0.20900
O 	O 	0.71870 0.25630 0.12249 -0.43600
O 	O 	0.78380 0.33410 0.09561 -0.43500
O 	O 	0.18130 0.61960 0.45867 -0.46900
O 	O 	0.23110 0.63180 0.40176 -0.44300
O 	O 	0.87530 0.13753 0.42858 -0.44100
O 	O 	0.92060 0.24040 0.42213 -0.45100
O 	O 	0.62170 0.23860 0.44642 -0.27100
O 	O 	0.67158 0.14342 0.47240 -0.47900
O 	O 	0.12460 0.75060 0.47237 -0.45500
O 	O 	0.17523 0.85118 0.48681 -0.51900
O 	O 	0.42330 0.73970 0.44150 -0.41600
O 	O 	0.37750 0.84320 0.44320 -0.43200
O 	O 	0.71850 0.14380 0.38720 -0.41600
O 	O 	0.77220 0.23150 0.36071 -0.43400
O 	O 	0.25750 0.86400 0.09935 -0.43500
O 	O 	0.28250 0.87750 0.03490 -0.42400
O 	O 	0.77056 0.24572 0.44941 -0.59900
O 	O 	0.71301 0.26176 0.52719 -0.58000
C 	C 	0.92770 0.39080 0.37493 0.03800
H 	H 	0.94330 0.39650 0.40290 -0.00800
C 	C 	0.96110 0.42850 0.34730 -0.05000
C 	C 	0.93950 0.41670 0.30510 -0.01900
H 	H 	0.96110 0.43990 0.28570 0.03600
C 	C 	0.88570 0.37010 0.29230 -0.05500
C 	C 	0.85460 0.33800 0.32315 0.03700
H 	H 	0.81710 0.30820 0.31500 0.02200
C 	C 	0.01770 0.47730 0.36380 0.10100
C 	C 	0.01050 0.51060 0.39990 -0.15900
H 	H 	0.96960 0.50400 0.41230 0.08100
C 	C 	0.06390 0.55360 0.41750 0.08200
H 	H 	0.05850 0.57520 0.44190 0.00600
C 	C 	0.12530 0.56520 0.39958 -0.15200
C 	C 	0.12960 0.53540 0.36180 0.08100
H 	H 	0.16850 0.54480 0.34820 0.01400
C 	C 	0.07660 0.49210 0.34440 -0.15800
H 	H 	0.08040 0.47240 0.31920 0.08700
C 	C 	0.18420 0.60990 0.42118 0.40800
C 	C 	0.85980 0.35350 0.24870 0.12100
C 	C 	0.86130 0.39450 0.21710 -0.18600
H 	H 	0.88330 0.43580 0.22210 0.09600
C 	C 	0.83180 0.37890 0.17740 0.11000
H 	H 	0.83410 0.41000 0.15660 0.00500
C 	C 	0.79990 0.32020 0.16773 -0.16300
C 	C 	0.80960 0.27160 0.19850 0.09400
H 	H 	0.79610 0.22780 0.19210 0.01000
C 	C 	0.83860 0.28760 0.23790 -0.17000
H 	H 	0.84440 0.25450 0.25790 0.09500
C 	C 	0.76450 0.30170 0.12504 0.39800
C 	C 	0.33320 0.98300 0.44827 0.02600
H 	H 	0.37630 0.95930 0.45130 0.02500
C 	C 	0.33610 0.05150 0.44200 -0.03500
C 	C 	0.27060 0.08600 0.43610 -0.03200
H 	H 	0.26990 0.13170 0.43140 0.03900
C 	C 	0.20620 0.05170 0.43726 -0.03600
C 	C 	0.21070 0.98310 0.44463 0.02800
H 	H 	0.16810 0.95970 0.44570 0.02400
C 	C 	0.40770 0.08530 0.44290 0.08700
C 	C 	0.46860 0.05400 0.46290 -0.13900
H 	H 	0.46440 0.01210 0.47440 0.07900
C 	C 	0.53630 0.08400 0.46610 0.06100
H 	H 	0.57650 0.06150 0.47930 0.01500
C 	C 	0.54470 0.14630 0.44993 -0.12800
C 	C 	0.48440 0.17800 0.43050 0.06200
H 	H 	0.48860 0.22020 0.41940 0.02300
C 	C 	0.41690 0.14810 0.42710 -0.14000
H 	H 	0.37690 0.17090 0.41380 0.07900
C 	C 	0.61730 0.17920 0.45602 0.34300
C 	C 	0.13520 0.08610 0.43210 0.09000
C 	C 	0.12830 0.15120 0.44500 -0.14300
H 	H 	0.16930 0.17490 0.45600 0.07900
C 	C 	0.06110 0.18170 0.44170 0.06800
H 	H 	0.05760 0.22560 0.45020 0.01500
C 	C 	0.99920 0.14730 0.42575 -0.13600
C 	C 	0.00630 0.08290 0.41160 0.06600
H 	H 	0.96550 0.05960 0.39990 0.01900
C 	C 	0.07310 0.05280 0.41450 -0.14600
H 	H 	0.07660 0.00970 0.40460 0.08500
C 	C 	0.92580 0.17760 0.42570 0.38200
C 	C 	0.70890 0.00110 0.44464 0.03200
H 	H 	0.66590 0.02450 0.44340 0.02000
C 	C 	0.70590 0.93270 0.44450 -0.04000
C 	C 	0.77200 0.89800 0.44760 -0.02800
H 	H 	0.77240 0.85160 0.44830 0.03700
C 	C 	0.83650 0.93300 0.44945 -0.04000
C 	C 	0.83180 0.00230 0.44784 0.02700
H 	H 	0.87410 0.02650 0.44780 0.02300
C 	C 	0.90880 0.89990 0.45380 0.09900
C 	C 	0.97040 0.93800 0.46650 -0.15900
H 	H 	0.96560 0.98350 0.47050 0.08700
C 	C 	0.03790 0.91000 0.47310 0.08700
H 	H 	0.07780 0.93660 0.48200 0.00500
C 	C 	0.04730 0.84330 0.46673 -0.15700
C 	C 	0.98720 0.80490 0.45330 0.08400
H 	H 	0.99270 0.75970 0.44830 0.01300
C 	C 	0.91950 0.83260 0.44720 -0.15700
H 	H 	0.87980 0.80560 0.43850 0.08400
C 	C 	0.12070 0.81250 0.47534 0.37700
C 	C 	0.63580 0.89690 0.44220 0.09000
C 	C 	0.57350 0.92520 0.42150 -0.14400
H 	H 	0.57600 0.96550 0.40790 0.08400
C 	C 	0.50660 0.89370 0.42090 0.06300
H 	H 	0.46530 0.91370 0.40700 0.01900
C 	C 	0.50090 0.83320 0.44044 -0.13300
C 	C 	0.56410 0.80430 0.46070 0.06600
H 	H 	0.56200 0.76310 0.47350 0.01800
C 	C 	0.63000 0.83640 0.46210 -0.14100
H 	H 	0.67120 0.81700 0.47660 0.07800
C 	C 	0.42800 0.80260 0.44158 0.38100
C 	C 	0.64530 0.14500 0.16010 0.03100
H 	H 	0.68630 0.17070 0.16830 0.02800
C 	C 	0.61060 0.11620 0.19030 -0.04100
C 	C 	0.55250 0.07500 0.17800 -0.03000
H 	H 	0.52950 0.05370 0.19760 0.03700
C 	C 	0.52790 0.06490 0.13570 -0.03900
C 	C 	0.56480 0.09920 0.10863 0.03200
H 	H 	0.54810 0.09530 0.08060 -0.00100
C 	C 	0.63810 0.13060 0.23420 0.09700
C 	C 	0.66100 0.19690 0.24460 -0.14300
H 	H 	0.65660 0.22960 0.22440 0.08700
C 	C 	0.68980 0.21320 0.28500 0.06500
H 	H 	0.70480 0.25650 0.29170 0.02000
C 	C 	0.69600 0.16330 0.31575 -0.14000
C 	C 	0.66160 0.10510 0.30600 0.08200
H 	H 	0.65720 0.07450 0.32670 0.01600
C 	C 	0.63260 0.08980 0.26570 -0.15900
H 	H 	0.60840 0.04960 0.26040 0.08600
C 	C 	0.73180 0.18170 0.35816 0.38900
C 	C 	0.46670 0.02110 0.12031 0.06700
C 	C 	0.43000 0.02740 0.07990 -0.07900
H 	H 	0.44340 0.06120 0.06330 0.05400
C 	C 	0.37450 0.98490 0.06430 0.02200
H 	H 	0.35170 0.98970 0.03730 0.02300
C 	C 	0.38490 0.93200 0.12960 0.00700
H 	H 	0.36850 0.90150 0.14740 0.03700
C 	C 	0.44130 0.97460 0.14440 -0.04000
H 	H 	0.46240 0.97100 0.17170 0.04100
C 	C 	0.35300 0.93450 0.08930 -0.10200
C 	C 	0.29250 0.88850 0.07314 0.36800
C 	C 	0.46870 0.98740 0.08330 -0.04900
H 	H 	0.50780 0.99310 0.06930 0.04000
C 	C 	0.41090 0.94440 0.06690 -0.00900
H 	H 	0.41140 0.92310 0.04180 0.03600
C 	C 	0.35530 0.96700 0.12810 0.00200
H 	H 	0.31840 0.95950 0.14370 0.03400
C 	C 	0.41140 0.00960 0.14310 -0.08000
H 	H 	0.41190 0.03040 0.16840 0.05400
