data_crystal

_cell_length_a 9.33590
_cell_length_b 11.26840
_cell_length_c 18.85080
_cell_angle_alpha 79.41500
_cell_angle_beta  79.41400
_cell_angle_gamma 66.27000

_symmetry_space_group_name_	'P 1'
_symmetry_space_group_name_H-M	'P 1'

loop_
_symmetry_equiv_pos_as_xyz
  x,y,z

loop_
_atom_site_label
_atom_site_type_symbol
_atom_site_fract_x
_atom_site_fract_y
_atom_site_fract_z
_atom_site_charge
N 	N 	0.99880 0.31640 0.49725 -0.24300
O 	O 	0.84730 0.58799 0.42149 -0.39600
C 	C 	0.86780 0.29790 0.49750 0.11300
C 	C 	0.13100 0.21120 0.49700 0.09800
C 	C 	0.87380 0.57930 0.35514 0.29400
H 	H 	0.77350 0.37050 0.49690 -0.00500
C 	C 	0.86280 0.17650 0.49870 -0.19000
H 	H 	0.22510 0.22160 0.49640 -0.00100
C 	C 	0.13650 0.08700 0.49750 -0.20200
C 	C 	0.75750 0.68370 0.30725 0.04100
O 	O 	0.99170 0.49600 0.32379 -0.26900
H 	H 	0.76680 0.16930 0.49930 0.11300
C 	C 	0.99960 0.06640 0.49911 0.14300
H 	H 	0.23290 0.01650 0.49670 0.11800
C 	C 	0.80850 0.70140 0.23331 -0.20900
C 	C 	0.60980 0.76990 0.33441 -0.11400
C 	C 	0.71560 0.80250 0.18786 0.27000
H 	H 	0.90620 0.64450 0.21440 0.13000
C 	C 	0.51960 0.87180 0.28793 0.10400
C 	C 	0.53980 0.75670 0.41323 0.31600
C 	C 	0.57390 0.88820 0.21380 -0.25500
O 	O 	0.78480 0.82300 0.11635 -0.30700
H 	H 	0.42190 0.92990 0.30610 0.00300
O 	O 	0.50050 0.66110 0.43562 -0.25000
O 	O 	0.51610 0.84700 0.44927 -0.25400
H 	H 	0.51330 0.95710 0.18290 0.13300
C 	C 	0.71800 0.81870 0.05801 0.31400
C 	C 	0.59800 0.77510 0.06265 -0.29900
C 	C 	0.78720 0.85610 0.99116 -0.28700
C 	C 	0.55340 0.76320 0.99816 0.16800
H 	H 	0.54780 0.75400 0.10760 0.14100
C 	C 	0.74290 0.84280 0.92821 0.16300
H 	H 	0.86370 0.89030 0.98860 0.14500
C 	C 	0.62610 0.79410 0.93101 -0.19900
H 	H 	0.47260 0.73380 0.00070 -0.01700
H 	H 	0.79150 0.86660 0.88340 -0.00900
C 	C 	0.59150 0.76930 0.86134 0.36100
O 	O 	0.48150 0.72747 0.86606 -0.41600
O 	O 	0.67440 0.78830 0.80418 -0.29300
Ni	Ni	0.39383 0.68733 0.78361 1.03300
N 	N 	0.56870 0.49160 0.78738 -0.24300
N 	N 	0.24940 0.61410 0.86419 -0.24700
N 	N 	0.21300 0.87850 0.78186 -0.25700
C 	C 	0.59780 0.41680 0.73554 0.07200
C 	C 	0.66160 0.44020 0.84011 0.07900
C 	C 	0.14250 0.57890 0.84791 0.10500
C 	C 	0.26200 0.60000 0.93508 0.07900
H 	H 	0.53100 0.44700 0.69960 -0.01600
C 	C 	0.72050 0.29760 0.73172 -0.12400
H 	H 	0.64210 0.48800 0.87850 -0.00200
C 	C 	0.78480 0.32040 0.84103 -0.12800
H 	H 	0.13370 0.58400 0.79900 -0.02600
C 	C 	0.04180 0.53470 0.89873 -0.17800
H 	H 	0.33840 0.62160 0.94880 0.00600
C 	C 	0.16730 0.55500 0.98917 -0.14000
H 	H 	0.73710 0.25140 0.69280 0.08000
C 	C 	0.81930 0.24600 0.78537 0.03900
H 	H 	0.84500 0.28950 0.87960 0.08000
H 	H 	0.96710 0.51280 0.88370 0.10900
C 	C 	0.05330 0.52320 0.97174 0.07100
H 	H 	0.18180 0.54640 0.03760 0.07700
C 	C 	0.95470 0.11830 0.78386 0.12900
C 	C 	0.03870 0.07250 0.71935 -0.18300
C 	C 	0.00560 0.04030 0.84783 -0.21100
H 	H 	0.01030 0.12160 0.67520 0.09500
C 	C 	0.16490 0.95370 0.72056 0.10100
H 	H 	0.95360 0.06640 0.89270 0.11600
C 	C 	0.13340 0.92420 0.84393 0.12200
H 	H 	0.21900 0.92470 0.67650 -0.03100
H 	H 	0.16660 0.87440 0.88730 -0.01900
N 	N 	0.00120 0.68360 0.50275 -0.24800
O 	O 	0.15270 0.41201 0.57851 -0.40500
C 	C 	0.13220 0.70210 0.50250 0.05900
C 	C 	0.86900 0.78880 0.50300 0.07900
C 	C 	0.12620 0.42070 0.64486 0.29700
H 	H 	0.22650 0.62950 0.50310 0.01200
C 	C 	0.13720 0.82350 0.50130 -0.10100
H 	H 	0.77490 0.77840 0.50360 0.01000
C 	C 	0.86350 0.91300 0.50250 -0.08200
C 	C 	0.24250 0.31630 0.69275 0.03400
O 	O 	0.00830 0.50400 0.67621 -0.28500
H 	H 	0.23320 0.83070 0.50070 0.07700
C 	C 	0.00040 0.93360 0.50089 -0.02000
H 	H 	0.76710 0.98350 0.50330 0.07500
C 	C 	0.19150 0.29860 0.76669 -0.20500
C 	C 	0.39020 0.23010 0.66559 -0.10900
C 	C 	0.28440 0.19750 0.81214 0.26500
H 	H 	0.09380 0.35550 0.78560 0.11900
C 	C 	0.48040 0.12820 0.71207 0.09900
C 	C 	0.46020 0.24330 0.58677 0.31400
C 	C 	0.42610 0.11180 0.78620 -0.25000
O 	O 	0.21520 0.17700 0.88365 -0.31100
H 	H 	0.57810 0.07010 0.69390 0.00900
O 	O 	0.49950 0.33890 0.56438 -0.24900
O 	O 	0.48390 0.15300 0.55073 -0.25200
H 	H 	0.48670 0.04290 0.81710 0.13400
C 	C 	0.28200 0.18130 0.94199 0.31300
C 	C 	0.40200 0.22490 0.93735 -0.29800
C 	C 	0.21280 0.14390 0.00884 -0.29000
C 	C 	0.44660 0.23680 0.00184 0.16700
H 	H 	0.45220 0.24600 0.89240 0.14100
C 	C 	0.25710 0.15720 0.07179 0.16200
H 	H 	0.13630 0.10970 0.01140 0.13800
C 	C 	0.37390 0.20590 0.06899 -0.20000
H 	H 	0.52740 0.26620 0.99930 -0.01600
H 	H 	0.20850 0.13340 0.11660 -0.01500
C 	C 	0.40850 0.23070 0.13866 0.36200
O 	O 	0.51850 0.27253 0.13394 -0.41700
O 	O 	0.32560 0.21170 0.19582 -0.30000
Ni	Ni	0.60617 0.31267 0.21639 1.03200
N 	N 	0.43130 0.50840 0.21262 -0.25300
N 	N 	0.75060 0.38590 0.13581 -0.23600
N 	N 	0.78700 0.12150 0.21814 -0.22600
C 	C 	0.40220 0.58320 0.26446 0.09600
C 	C 	0.33840 0.55980 0.15989 0.10200
C 	C 	0.85750 0.42110 0.15209 0.06500
C 	C 	0.73800 0.40000 0.06492 0.07100
H 	H 	0.46900 0.55300 0.30040 -0.02500
C 	C 	0.27950 0.70240 0.26828 -0.17600
H 	H 	0.35790 0.51200 0.12150 -0.01200
C 	C 	0.21520 0.67960 0.15897 -0.18000
H 	H 	0.86630 0.41600 0.20100 -0.00600
C 	C 	0.95820 0.46530 0.10127 -0.08800
H 	H 	0.66160 0.37840 0.05120 0.00900
C 	C 	0.83270 0.44500 0.01083 -0.12400
H 	H 	0.26290 0.74860 0.30720 0.09400
C 	C 	0.18070 0.75400 0.21463 0.11200
H 	H 	0.15500 0.71050 0.12040 0.09300
H 	H 	0.03290 0.48720 0.11630 0.05300
C 	C 	0.94670 0.47680 0.02826 0.05800
H 	H 	0.81820 0.45360 0.96240 0.07500
C 	C 	0.04530 0.88170 0.21614 -0.04500
C 	C 	0.96130 0.92750 0.28065 -0.05200
C 	C 	0.99440 0.95970 0.15217 -0.00600
H 	H 	0.98970 0.87840 0.32480 0.06000
C 	C 	0.83510 0.04630 0.27944 0.04300
H 	H 	0.04640 0.93360 0.10730 0.02100
C 	C 	0.86660 0.07580 0.15607 0.02900
H 	H 	0.78100 0.07530 0.32350 -0.00800
H 	H 	0.83340 0.12560 0.11270 0.01900
Ni	Ni	-0.00000 0.50000 0.50000 1.05100
