data_crystal

_cell_length_a 27.81900
_cell_length_b 27.81900
_cell_length_c 12.61300
_cell_angle_alpha 90.00000
_cell_angle_beta  90.00000
_cell_angle_gamma 120.00000

_symmetry_space_group_name_	'P 1'
_symmetry_space_group_name_H-M	'P 1'

loop_
_symmetry_equiv_pos_as_xyz
  x,y,z

loop_
_atom_site_label
_atom_site_type_symbol
_atom_site_fract_x
_atom_site_fract_y
_atom_site_fract_z
_atom_site_charge
O 	O 	0.59414 0.08791 0.08130 -0.58100
O 	O 	0.62080 0.09280 0.91530 -0.34700
O 	O 	0.59597 0.08815 0.30460 -0.57300
O 	O 	0.60871 0.07291 0.47010 -0.45300
O 	O 	0.62560 0.01289 0.12180 -1.05200
H 	H 	0.62220 0.04060 0.10700 0.38500
H 	H 	0.59580 0.98280 0.11200 0.41500
C 	C 	0.59656 0.10350 0.98530 0.39300
H 	H 	0.55990 0.17620 0.82700 0.16300
H 	H 	0.63420 0.21210 0.01400 0.13600
C 	C 	0.59104 0.09295 0.40350 0.32000
H 	H 	0.60520 0.15410 0.58100 0.12700
H 	H 	0.57360 0.20360 0.40710 0.11600
O 	O 	0.26081 0.42124 0.41463 -0.51400
O 	O 	0.28747 0.42613 0.24863 -0.35300
O 	O 	0.26264 0.42148 0.63793 -0.56800
O 	O 	0.27538 0.40624 0.80343 -0.42700
O 	O 	0.29227 0.34622 0.45513 -1.00000
H 	H 	0.28887 0.37393 0.44033 0.37500
H 	H 	0.26247 0.31613 0.44533 0.36900
C 	C 	0.26323 0.43683 0.31863 0.31700
H 	H 	0.22657 0.50953 0.16033 0.11200
H 	H 	0.30087 0.54543 0.34733 0.11300
C 	C 	0.25771 0.42628 0.73683 0.29900
H 	H 	0.27187 0.48743 0.91433 0.18500
H 	H 	0.24027 0.53693 0.74043 0.13800
O 	O 	0.92747 0.75458 0.74797 -0.49600
O 	O 	0.95413 0.75947 0.58197 -0.33100
O 	O 	0.92930 0.75482 0.97127 -0.44400
O 	O 	0.94204 0.73958 0.13677 -0.37700
O 	O 	0.95893 0.67956 0.78847 -0.93600
H 	H 	0.95553 0.70727 0.77367 0.37200
H 	H 	0.92913 0.64947 0.77867 0.36300
C 	C 	0.92989 0.77017 0.65197 0.29600
H 	H 	0.89323 0.84287 0.49367 0.16000
H 	H 	0.96753 0.87877 0.68067 0.16200
C 	C 	0.92437 0.75962 0.07017 0.14500
H 	H 	0.93853 0.82077 0.24767 0.22400
H 	H 	0.90693 0.87027 0.07377 0.27600
O 	O 	0.91209 0.50623 0.08130 -0.56700
O 	O 	0.90720 0.52800 0.91530 -0.34100
O 	O 	0.91185 0.50782 0.30460 -0.57200
O 	O 	0.92709 0.53580 0.47010 -0.44200
O 	O 	0.98711 0.61271 0.12180 -0.90100
H 	H 	0.95940 0.58160 0.10700 0.34000
H 	H 	0.01720 0.61300 0.11200 0.30200
C 	C 	0.89650 0.49306 0.98530 0.38900
H 	H 	0.82380 0.38370 0.82700 0.16800
H 	H 	0.78790 0.42210 0.01400 0.13800
C 	C 	0.90705 0.49809 0.40350 0.31700
H 	H 	0.84590 0.45110 0.58100 0.13700
H 	H 	0.79640 0.37000 0.40710 0.11900
O 	O 	0.57876 0.83956 0.41463 -0.51300
O 	O 	0.57387 0.86133 0.24863 -0.34700
O 	O 	0.57852 0.84115 0.63793 -0.57200
O 	O 	0.59376 0.86913 0.80343 -0.42800
O 	O 	0.65378 0.94604 0.45513 -0.98400
H 	H 	0.62607 0.91493 0.44033 0.37100
H 	H 	0.68387 0.94633 0.44533 0.37100
C 	C 	0.56317 0.82639 0.31863 0.31500
H 	H 	0.49047 0.71703 0.16033 0.11200
H 	H 	0.45457 0.75543 0.34733 0.11300
C 	C 	0.57372 0.83142 0.73683 0.30000
H 	H 	0.51257 0.78443 0.91433 0.18400
H 	H 	0.46307 0.70333 0.74043 0.13700
O 	O 	0.24542 0.17290 0.74797 -0.50800
O 	O 	0.24053 0.19467 0.58197 -0.34800
O 	O 	0.24518 0.17449 0.97127 -0.45600
O 	O 	0.26042 0.20247 0.13677 -0.39800
O 	O 	0.32044 0.27938 0.78847 -0.96800
H 	H 	0.29273 0.24827 0.77367 0.37400
H 	H 	0.35053 0.27967 0.77867 0.36700
C 	C 	0.22983 0.15973 0.65197 0.31500
H 	H 	0.15713 0.05037 0.49367 0.11800
H 	H 	0.12123 0.08877 0.68067 0.11100
C 	C 	0.24038 0.16476 0.07017 0.15200
H 	H 	0.17923 0.11777 0.24767 0.19700
H 	H 	0.12973 0.03667 0.07377 0.23900
O 	O 	0.49377 0.40586 0.08130 -0.57700
O 	O 	0.47200 0.37920 0.91530 -0.34600
O 	O 	0.49218 0.40403 0.30460 -0.57300
O 	O 	0.46420 0.39129 0.47010 -0.44700
O 	O 	0.38729 0.37440 0.12180 -0.98400
H 	H 	0.41840 0.37780 0.10700 0.36200
H 	H 	0.38700 0.40420 0.11200 0.35600
C 	C 	0.50694 0.40344 0.98530 0.39300
H 	H 	0.61630 0.44010 0.82700 0.16500
H 	H 	0.57790 0.36580 0.01400 0.13700
C 	C 	0.50191 0.40896 0.40350 0.31800
H 	H 	0.54890 0.39480 0.58100 0.13200
H 	H 	0.63000 0.42640 0.40710 0.11800
O 	O 	0.16044 0.73919 0.41463 -0.51500
O 	O 	0.13867 0.71253 0.24863 -0.35500
O 	O 	0.15885 0.73736 0.63793 -0.56500
O 	O 	0.13087 0.72462 0.80343 -0.42100
O 	O 	0.05396 0.70773 0.45513 -1.01400
H 	H 	0.08507 0.71113 0.44033 0.37800
H 	H 	0.05367 0.73753 0.44533 0.36800
C 	C 	0.17361 0.73677 0.31863 0.31600
H 	H 	0.28297 0.77343 0.16033 0.11300
H 	H 	0.24457 0.69913 0.34733 0.11400
C 	C 	0.16858 0.74229 0.73683 0.29800
H 	H 	0.21557 0.72813 0.91433 0.18600
H 	H 	0.29667 0.75973 0.74043 0.13800
O 	O 	0.82710 0.07253 0.74797 -0.51200
O 	O 	0.80533 0.04587 0.58197 -0.36000
O 	O 	0.82551 0.07070 0.97127 -0.45800
O 	O 	0.79753 0.05796 0.13677 -0.39900
O 	O 	0.72062 0.04107 0.78847 -0.98400
H 	H 	0.75173 0.04447 0.77367 0.37400
H 	H 	0.72033 0.07087 0.77867 0.37000
C 	C 	0.84027 0.07011 0.65197 0.30500
H 	H 	0.94963 0.10677 0.49367 0.15100
H 	H 	0.91123 0.03247 0.68067 0.12300
C 	C 	0.83524 0.07563 0.07017 0.14700
H 	H 	0.88223 0.06147 0.24767 0.19900
H 	H 	0.96333 0.09307 0.07377 0.27000
O 	O 	0.08791 0.59414 0.91870 -0.44500
O 	O 	0.09280 0.62080 0.08470 -0.33900
O 	O 	0.08815 0.59597 0.69540 -0.57500
O 	O 	0.07291 0.60871 0.52990 -0.45400
O 	O 	0.01289 0.62560 0.87820 -1.02600
H 	H 	0.04060 0.62220 0.89300 0.39800
H 	H 	0.98280 0.59580 0.88800 0.42500
C 	C 	0.10350 0.59656 0.01470 0.21800
H 	H 	0.17620 0.55990 0.17300 0.12200
H 	H 	0.21210 0.63420 0.98600 0.11100
C 	C 	0.09295 0.59104 0.59650 0.31900
H 	H 	0.15410 0.60520 0.41900 0.12900
H 	H 	0.20360 0.57360 0.59290 0.11800
O 	O 	0.75458 0.92747 0.25203 -0.49800
O 	O 	0.75947 0.95413 0.41803 -0.33000
O 	O 	0.75482 0.92930 0.02873 -0.63100
O 	O 	0.73958 0.94204 0.86323 -0.43300
O 	O 	0.67956 0.95893 0.21153 -0.94700
H 	H 	0.70727 0.95553 0.22633 0.37100
H 	H 	0.64947 0.92913 0.22133 0.35900
C 	C 	0.77017 0.92989 0.34803 0.29500
H 	H 	0.84287 0.89323 0.50633 0.16300
H 	H 	0.87877 0.96753 0.31933 0.14900
C 	C 	0.75962 0.92437 0.92983 0.46500
H 	H 	0.82077 0.93853 0.75233 0.08800
H 	H 	0.87027 0.90693 0.92623 0.00500
O 	O 	0.42124 0.26081 0.58537 -0.50800
O 	O 	0.42613 0.28747 0.75137 -0.33400
O 	O 	0.42148 0.26264 0.36207 -0.57600
O 	O 	0.40624 0.27538 0.19657 -0.45400
O 	O 	0.34622 0.29227 0.54487 -1.00000
H 	H 	0.37393 0.28887 0.55967 0.37400
H 	H 	0.31613 0.26247 0.55467 0.36900
C 	C 	0.43683 0.26323 0.68137 0.29400
H 	H 	0.50953 0.22657 0.83967 0.18300
H 	H 	0.54543 0.30087 0.65267 0.13800
C 	C 	0.42628 0.25771 0.26317 0.32800
H 	H 	0.48743 0.27187 0.08567 0.09300
H 	H 	0.53693 0.24027 0.25957 0.10600
O 	O 	0.50623 0.91209 0.91870 -0.43600
O 	O 	0.52800 0.90720 0.08470 -0.33300
O 	O 	0.50782 0.91185 0.69540 -0.57300
O 	O 	0.53580 0.92709 0.52990 -0.44200
O 	O 	0.61271 0.98711 0.87820 -0.88300
H 	H 	0.58160 0.95940 0.89300 0.35700
H 	H 	0.61300 0.01720 0.88800 0.32200
C 	C 	0.49306 0.89650 0.01470 0.22100
H 	H 	0.38370 0.82380 0.17300 0.12700
H 	H 	0.42210 0.78790 0.98600 0.11400
C 	C 	0.49809 0.90705 0.59650 0.31600
H 	H 	0.45110 0.84590 0.41900 0.13900
H 	H 	0.37000 0.79640 0.59290 0.12100
O 	O 	0.17290 0.24542 0.25203 -0.51100
O 	O 	0.19467 0.24053 0.41803 -0.34900
O 	O 	0.17449 0.24518 0.02873 -0.65700
O 	O 	0.20247 0.26042 0.86323 -0.46000
O 	O 	0.27938 0.32044 0.21153 -0.98500
H 	H 	0.24827 0.29273 0.22633 0.37300
H 	H 	0.27967 0.35053 0.22133 0.36400
C 	C 	0.15973 0.22983 0.34803 0.31500
H 	H 	0.05037 0.15713 0.50633 0.12300
H 	H 	0.08877 0.12123 0.31933 0.09500
C 	C 	0.16476 0.24038 0.92983 0.49200
H 	H 	0.11777 0.17923 0.75233 0.05100
H 	H 	0.03667 0.12973 0.92623 -0.04900
O 	O 	0.83956 0.57876 0.58537 -0.50700
O 	O 	0.86133 0.57387 0.75137 -0.33000
O 	O 	0.84115 0.57852 0.36207 -0.57900
O 	O 	0.86913 0.59376 0.19657 -0.45400
O 	O 	0.94604 0.65378 0.54487 -0.98600
H 	H 	0.91493 0.62607 0.55967 0.37200
H 	H 	0.94633 0.68387 0.55467 0.37000
C 	C 	0.82639 0.56317 0.68137 0.29300
H 	H 	0.71703 0.49047 0.83967 0.18200
H 	H 	0.75543 0.45457 0.65267 0.13800
C 	C 	0.83142 0.57372 0.26317 0.32800
H 	H 	0.78443 0.51257 0.08567 0.09400
H 	H 	0.70333 0.46307 0.25957 0.10500
O 	O 	0.40586 0.49377 0.91870 -0.44100
O 	O 	0.37920 0.47200 0.08470 -0.33800
O 	O 	0.40403 0.49218 0.69540 -0.57400
O 	O 	0.39129 0.46420 0.52990 -0.44800
O 	O 	0.37440 0.38729 0.87820 -0.97000
H 	H 	0.37780 0.41840 0.89300 0.38100
H 	H 	0.40420 0.38700 0.88800 0.37800
C 	C 	0.40344 0.50694 0.01470 0.21900
H 	H 	0.44010 0.61630 0.17300 0.12400
H 	H 	0.36580 0.57790 0.98600 0.11200
C 	C 	0.40896 0.50191 0.59650 0.31800
H 	H 	0.39480 0.54890 0.41900 0.13400
H 	H 	0.42640 0.63000 0.59290 0.11900
O 	O 	0.07253 0.82710 0.25203 -0.51400
O 	O 	0.04587 0.80533 0.41803 -0.35900
O 	O 	0.07070 0.82551 0.02873 -0.65300
O 	O 	0.05796 0.79753 0.86323 -0.45800
O 	O 	0.04107 0.72062 0.21153 -1.00000
H 	H 	0.04447 0.75173 0.22633 0.37200
H 	H 	0.07087 0.72033 0.22133 0.36600
C 	C 	0.07011 0.84027 0.34803 0.30300
H 	H 	0.10677 0.94963 0.50633 0.15700
H 	H 	0.03247 0.91123 0.31933 0.11100
C 	C 	0.07563 0.83524 0.92983 0.47600
H 	H 	0.06147 0.88223 0.75233 0.06100
H 	H 	0.09307 0.96333 0.92623 -0.00600
O 	O 	0.73919 0.16044 0.58537 -0.50900
O 	O 	0.71253 0.13867 0.75137 -0.33700
O 	O 	0.73736 0.15885 0.36207 -0.57200
O 	O 	0.72462 0.13087 0.19657 -0.44800
O 	O 	0.70773 0.05396 0.54487 -1.01500
H 	H 	0.71113 0.08507 0.55967 0.37800
H 	H 	0.73753 0.05367 0.55467 0.36700
C 	C 	0.73677 0.17361 0.68137 0.29400
H 	H 	0.77343 0.28297 0.83967 0.18300
H 	H 	0.69913 0.24457 0.65267 0.13800
C 	C 	0.74229 0.16858 0.26317 0.32700
H 	H 	0.72813 0.21557 0.08567 0.09500
H 	H 	0.75973 0.29667 0.25957 0.10600
O 	O 	0.40586 0.91209 0.91870 -0.43500
O 	O 	0.37920 0.90720 0.08470 -0.33300
O 	O 	0.40403 0.91185 0.69540 -0.57300
O 	O 	0.39129 0.92709 0.52990 -0.44200
O 	O 	0.37440 0.98711 0.87820 -0.88200
H 	H 	0.37780 0.95940 0.89300 0.35700
H 	H 	0.40420 0.01720 0.88800 0.32200
C 	C 	0.40344 0.89650 0.01470 0.22100
H 	H 	0.44010 0.82380 0.17300 0.12700
H 	H 	0.36580 0.78790 0.98600 0.11400
C 	C 	0.40896 0.90705 0.59650 0.31600
H 	H 	0.39480 0.84590 0.41900 0.13900
H 	H 	0.42640 0.79640 0.59290 0.12100
O 	O 	0.07253 0.24542 0.25203 -0.51700
O 	O 	0.04587 0.24053 0.41803 -0.36100
O 	O 	0.07070 0.24518 0.02873 -0.65700
O 	O 	0.05796 0.26042 0.86323 -0.46100
O 	O 	0.04107 0.32044 0.21153 -1.00000
H 	H 	0.04447 0.29273 0.22633 0.37300
H 	H 	0.07087 0.35053 0.22133 0.36600
C 	C 	0.07011 0.22983 0.34803 0.31400
H 	H 	0.10677 0.15713 0.50633 0.13100
H 	H 	0.03247 0.12123 0.31933 0.08700
C 	C 	0.07563 0.24038 0.92983 0.49000
H 	H 	0.06147 0.17923 0.75233 0.04500
H 	H 	0.09307 0.12973 0.92623 -0.04100
O 	O 	0.73919 0.57876 0.58537 -0.50800
O 	O 	0.71253 0.57387 0.75137 -0.33500
O 	O 	0.73736 0.57852 0.36207 -0.57700
O 	O 	0.72462 0.59376 0.19657 -0.45400
O 	O 	0.70773 0.65378 0.54487 -0.99900
H 	H 	0.71113 0.62607 0.55967 0.37400
H 	H 	0.73753 0.68387 0.55467 0.36800
C 	C 	0.73677 0.56317 0.68137 0.29400
H 	H 	0.77343 0.49047 0.83967 0.18200
H 	H 	0.69913 0.45457 0.65267 0.13800
C 	C 	0.74229 0.57372 0.26317 0.32800
H 	H 	0.72813 0.51257 0.08567 0.09400
H 	H 	0.75973 0.46307 0.25957 0.10500
O 	O 	0.08791 0.49377 0.91870 -0.44500
O 	O 	0.09280 0.47200 0.08470 -0.33900
O 	O 	0.08815 0.49218 0.69540 -0.57500
O 	O 	0.07291 0.46420 0.52990 -0.45500
O 	O 	0.01289 0.38729 0.87820 -1.02600
H 	H 	0.04060 0.41840 0.89300 0.39900
H 	H 	0.98280 0.38700 0.88800 0.42500
C 	C 	0.10350 0.50694 0.01470 0.21700
H 	H 	0.17620 0.61630 0.17300 0.12200
H 	H 	0.21210 0.57790 0.98600 0.11100
C 	C 	0.09295 0.50191 0.59650 0.31900
H 	H 	0.15410 0.54890 0.41900 0.12900
H 	H 	0.20360 0.63000 0.59290 0.11800
O 	O 	0.75458 0.82710 0.25203 -0.50700
O 	O 	0.75947 0.80533 0.41803 -0.34500
O 	O 	0.75482 0.82551 0.02873 -0.64900
O 	O 	0.73958 0.79753 0.86323 -0.45500
O 	O 	0.67956 0.72062 0.21153 -0.98600
H 	H 	0.70727 0.75173 0.22633 0.37200
H 	H 	0.64947 0.72033 0.22133 0.36400
C 	C 	0.77017 0.84027 0.34803 0.29500
H 	H 	0.84287 0.94963 0.50633 0.17200
H 	H 	0.87877 0.91123 0.31933 0.14000
C 	C 	0.75962 0.83524 0.92983 0.46600
H 	H 	0.82077 0.88223 0.75233 0.08000
H 	H 	0.87027 0.96333 0.92623 0.01500
O 	O 	0.42124 0.16044 0.58537 -0.50900
O 	O 	0.42613 0.13867 0.75137 -0.33700
O 	O 	0.42148 0.15885 0.36207 -0.57200
O 	O 	0.40624 0.13087 0.19657 -0.44800
O 	O 	0.34622 0.05396 0.54487 -1.01600
H 	H 	0.37393 0.08507 0.55967 0.37800
H 	H 	0.31613 0.05367 0.55467 0.36700
C 	C 	0.43683 0.17361 0.68137 0.29400
H 	H 	0.50953 0.28297 0.83967 0.18300
H 	H 	0.54543 0.24457 0.65267 0.13800
C 	C 	0.42628 0.16858 0.26317 0.32700
H 	H 	0.48743 0.21557 0.08567 0.09400
H 	H 	0.53693 0.29667 0.25957 0.10600
O 	O 	0.50623 0.59414 0.91870 -0.44200
O 	O 	0.52800 0.62080 0.08470 -0.33900
O 	O 	0.50782 0.59597 0.69540 -0.57400
O 	O 	0.53580 0.60871 0.52990 -0.44800
O 	O 	0.61271 0.62560 0.87820 -0.97100
H 	H 	0.58160 0.62220 0.89300 0.38100
H 	H 	0.61300 0.59580 0.88800 0.37800
C 	C 	0.49306 0.59656 0.01470 0.22000
H 	H 	0.38370 0.55990 0.17300 0.12400
H 	H 	0.42210 0.63420 0.98600 0.11200
C 	C 	0.49809 0.59104 0.59650 0.31800
H 	H 	0.45110 0.60520 0.41900 0.13400
H 	H 	0.37000 0.57360 0.59290 0.11900
O 	O 	0.17290 0.92747 0.25203 -0.50000
O 	O 	0.19467 0.95413 0.41803 -0.33100
O 	O 	0.17449 0.92930 0.02873 -0.63400
O 	O 	0.20247 0.94204 0.86323 -0.43500
O 	O 	0.27938 0.95893 0.21153 -0.94600
H 	H 	0.24827 0.95553 0.22633 0.37100
H 	H 	0.27967 0.92913 0.22133 0.35900
C 	C 	0.15973 0.92989 0.34803 0.30400
H 	H 	0.05037 0.89323 0.50633 0.14100
H 	H 	0.08877 0.96753 0.31933 0.12900
C 	C 	0.16476 0.92437 0.92983 0.47700
H 	H 	0.11777 0.93853 0.75233 0.07500
H 	H 	0.03667 0.90693 0.92623 -0.02400
O 	O 	0.83956 0.26081 0.58537 -0.50700
O 	O 	0.86133 0.28747 0.75137 -0.33000
O 	O 	0.84115 0.26264 0.36207 -0.57900
O 	O 	0.86913 0.27538 0.19657 -0.45400
O 	O 	0.94604 0.29227 0.54487 -0.98600
H 	H 	0.91493 0.28887 0.55967 0.37200
H 	H 	0.94633 0.26247 0.55467 0.37100
C 	C 	0.82639 0.26323 0.68137 0.29300
H 	H 	0.71703 0.22657 0.83967 0.18300
H 	H 	0.75543 0.30087 0.65267 0.13800
C 	C 	0.83142 0.25771 0.26317 0.32800
H 	H 	0.78443 0.27187 0.08567 0.09500
H 	H 	0.70333 0.24027 0.25957 0.10600
O 	O 	0.91209 0.40586 0.08130 -0.56700
O 	O 	0.90720 0.37920 0.91530 -0.34100
O 	O 	0.91185 0.40403 0.30460 -0.57200
O 	O 	0.92709 0.39129 0.47010 -0.44200
O 	O 	0.98711 0.37440 0.12180 -0.90000
H 	H 	0.95940 0.37780 0.10700 0.34000
H 	H 	0.01720 0.40420 0.11200 0.30200
C 	C 	0.89650 0.40344 0.98530 0.38900
H 	H 	0.82380 0.44010 0.82700 0.16800
H 	H 	0.78790 0.36580 0.01400 0.13800
C 	C 	0.90705 0.40896 0.40350 0.31700
H 	H 	0.84590 0.39480 0.58100 0.13700
H 	H 	0.79640 0.42640 0.40710 0.11900
O 	O 	0.57876 0.73919 0.41463 -0.51400
O 	O 	0.57387 0.71253 0.24863 -0.35300
O 	O 	0.57852 0.73736 0.63793 -0.56800
O 	O 	0.59376 0.72462 0.80343 -0.42700
O 	O 	0.65378 0.70773 0.45513 -1.00000
H 	H 	0.62607 0.71113 0.44033 0.37500
H 	H 	0.68387 0.73753 0.44533 0.36900
C 	C 	0.56317 0.73677 0.31863 0.31600
H 	H 	0.49047 0.77343 0.16033 0.11200
H 	H 	0.45457 0.69913 0.34733 0.11300
C 	C 	0.57372 0.74229 0.73683 0.30000
H 	H 	0.51257 0.72813 0.91433 0.18300
H 	H 	0.46307 0.75973 0.74043 0.13700
O 	O 	0.24542 0.07253 0.74797 -0.51400
O 	O 	0.24053 0.04587 0.58197 -0.36200
O 	O 	0.24518 0.07070 0.97127 -0.45600
O 	O 	0.26042 0.05796 0.13677 -0.39900
O 	O 	0.32044 0.04107 0.78847 -0.98300
H 	H 	0.29273 0.04447 0.77367 0.37400
H 	H 	0.35053 0.07087 0.77867 0.36900
C 	C 	0.22983 0.07011 0.65197 0.31400
H 	H 	0.15713 0.10677 0.49367 0.12700
H 	H 	0.12123 0.03247 0.68067 0.10200
C 	C 	0.24038 0.07563 0.07017 0.14900
H 	H 	0.17923 0.06147 0.24767 0.18900
H 	H 	0.12973 0.09307 0.07377 0.24900
O 	O 	0.49377 0.08791 0.08130 -0.58300
O 	O 	0.47200 0.09280 0.91530 -0.34800
O 	O 	0.49218 0.08815 0.30460 -0.57400
O 	O 	0.46420 0.07291 0.47010 -0.45400
O 	O 	0.38729 0.01289 0.12180 -1.05300
H 	H 	0.41840 0.04060 0.10700 0.38400
H 	H 	0.38700 0.98280 0.11200 0.41400
C 	C 	0.50694 0.10350 0.98530 0.39200
H 	H 	0.61630 0.17620 0.82700 0.16300
H 	H 	0.57790 0.21210 0.01400 0.13600
C 	C 	0.50191 0.09295 0.40350 0.32000
H 	H 	0.54890 0.15410 0.58100 0.12700
H 	H 	0.63000 0.20360 0.40710 0.11600
O 	O 	0.16044 0.42124 0.41463 -0.51500
O 	O 	0.13867 0.42613 0.24863 -0.35500
O 	O 	0.15885 0.42148 0.63793 -0.56500
O 	O 	0.13087 0.40624 0.80343 -0.42100
O 	O 	0.05396 0.34622 0.45513 -1.01400
H 	H 	0.08507 0.37393 0.44033 0.37800
H 	H 	0.05367 0.31613 0.44533 0.36800
C 	C 	0.17361 0.43683 0.31863 0.31700
H 	H 	0.28297 0.50953 0.16033 0.11100
H 	H 	0.24457 0.54543 0.34733 0.11300
C 	C 	0.16858 0.42628 0.73683 0.29800
H 	H 	0.21557 0.48743 0.91433 0.18600
H 	H 	0.29667 0.53693 0.74043 0.13800
O 	O 	0.82710 0.75458 0.74797 -0.50400
O 	O 	0.80533 0.75947 0.58197 -0.34400
O 	O 	0.82551 0.75482 0.97127 -0.45900
O 	O 	0.79753 0.73958 0.13677 -0.39600
O 	O 	0.72062 0.67956 0.78847 -0.96900
H 	H 	0.75173 0.70727 0.77367 0.37300
H 	H 	0.72033 0.64947 0.77867 0.36700
C 	C 	0.84027 0.77017 0.65197 0.29600
H 	H 	0.94963 0.84287 0.49367 0.16700
H 	H 	0.91123 0.87877 0.68067 0.15400
C 	C 	0.83524 0.75962 0.07017 0.14500
H 	H 	0.88223 0.82077 0.24767 0.21700
H 	H 	0.96333 0.87027 0.07377 0.28500
O 	O 	0.59414 0.50623 0.08130 -0.57600
O 	O 	0.62080 0.52800 0.91530 -0.34700
O 	O 	0.59597 0.50782 0.30460 -0.57300
O 	O 	0.60871 0.53580 0.47010 -0.44700
O 	O 	0.62560 0.61271 0.12180 -0.98400
H 	H 	0.62220 0.58160 0.10700 0.36200
H 	H 	0.59580 0.61300 0.11200 0.35600
C 	C 	0.59656 0.49306 0.98530 0.39200
H 	H 	0.55990 0.38370 0.82700 0.16500
H 	H 	0.63420 0.42210 0.01400 0.13700
C 	C 	0.59104 0.49809 0.40350 0.31800
H 	H 	0.60520 0.45110 0.58100 0.13200
H 	H 	0.57360 0.37000 0.40710 0.11800
O 	O 	0.26081 0.83956 0.41463 -0.51300
O 	O 	0.28747 0.86133 0.24863 -0.34700
O 	O 	0.26264 0.84115 0.63793 -0.57100
O 	O 	0.27538 0.86913 0.80343 -0.42700
O 	O 	0.29227 0.94604 0.45513 -0.98400
H 	H 	0.28887 0.91493 0.44033 0.37100
H 	H 	0.26247 0.94633 0.44533 0.37100
C 	C 	0.26323 0.82639 0.31863 0.31500
H 	H 	0.22657 0.71703 0.16033 0.11200
H 	H 	0.30087 0.75543 0.34733 0.11300
C 	C 	0.25771 0.83142 0.73683 0.29900
H 	H 	0.27187 0.78443 0.91433 0.18500
H 	H 	0.24027 0.70333 0.74043 0.13800
O 	O 	0.92747 0.17290 0.74797 -0.49800
O 	O 	0.95413 0.19467 0.58197 -0.33200
O 	O 	0.92930 0.17449 0.97127 -0.44300
O 	O 	0.94204 0.20247 0.13677 -0.37700
O 	O 	0.95893 0.27938 0.78847 -0.93500
H 	H 	0.95553 0.24827 0.77367 0.37300
H 	H 	0.92913 0.27967 0.77867 0.36300
C 	C 	0.92989 0.15973 0.65197 0.30600
H 	H 	0.89323 0.05037 0.49367 0.13400
H 	H 	0.96753 0.08877 0.68067 0.14000
C 	C 	0.92437 0.16476 0.07017 0.15100
H 	H 	0.93853 0.11777 0.24767 0.21300
H 	H 	0.90693 0.03667 0.07377 0.25100
Ba	Ba	0.66667 0.03962 0.33333 1.87800
Ba	Ba	0.96038 0.62704 0.33333 2.00600
Ba	Ba	0.37296 0.33333 0.33333 1.94300
Ba	Ba	0.03962 0.66667 0.66667 1.90500
Ba	Ba	0.70629 0.00000 -0.00000 1.63800
Ba	Ba	0.62704 0.96038 0.66667 2.03100
Ba	Ba	0.29371 0.29371 -0.00000 1.74000
Ba	Ba	0.33333 0.37296 0.66667 1.96300
Ba	Ba	0.00000 0.70629 -0.00000 1.64700
Ba	Ba	0.33333 0.96038 0.66667 2.03300
Ba	Ba	0.00000 0.29371 -0.00000 1.64500
Ba	Ba	0.03962 0.37296 0.66667 1.90700
Ba	Ba	0.70629 0.70629 -0.00000 1.74400
Ba	Ba	0.62704 0.66667 0.66667 1.96000
Ba	Ba	0.29371 0.00000 -0.00000 1.63500
Ba	Ba	0.96038 0.33333 0.33333 2.00800
Ba	Ba	0.37296 0.03962 0.33333 1.87800
Ba	Ba	0.66667 0.62704 0.33333 1.94200
Zn	Zn	0.53775 0.07550 0.19346 1.18700
C 	C 	0.56905 0.13810 0.95860 0.02900
C 	C 	0.57735 0.15470 0.84210 -0.45500
H 	H 	0.56095 0.12190 0.79880 0.14000
C 	C 	0.59520 0.19040 0.02880 -0.51400
H 	H 	0.58985 0.17970 0.10210 0.12900
C 	C 	0.56305 0.12610 0.44080 -0.03500
C 	C 	0.56690 0.13380 0.56020 -0.37100
H 	H 	0.54905 0.09810 0.59420 0.11000
C 	C 	0.59165 0.18330 0.38630 -0.36300
H 	H 	0.58920 0.17840 0.31070 0.09600
Zn	Zn	0.20442 0.40883 0.52679 1.19000
C 	C 	0.23572 0.47143 0.29193 -0.04900
C 	C 	0.24402 0.48803 0.17543 -0.34800
H 	H 	0.22762 0.45523 0.13213 0.09700
C 	C 	0.26187 0.52373 0.36213 -0.35600
H 	H 	0.25652 0.51303 0.43543 0.08900
C 	C 	0.22972 0.45943 0.77413 0.02700
C 	C 	0.23357 0.46713 0.89353 -0.50200
H 	H 	0.21572 0.43143 0.92753 0.18100
C 	C 	0.25832 0.51663 0.71963 -0.43100
H 	H 	0.25587 0.51173 0.64403 0.11700
Zn	Zn	0.87108 0.74217 0.86013 1.19100
C 	C 	0.90238 0.80477 0.62527 0.01300
C 	C 	0.91068 0.82137 0.50877 -0.46300
H 	H 	0.89428 0.78857 0.46547 0.14700
C 	C 	0.92853 0.85707 0.69547 -0.45300
H 	H 	0.92318 0.84637 0.76877 0.12500
C 	C 	0.89638 0.79277 0.10747 0.22300
C 	C 	0.90023 0.80047 0.22687 -0.66400
H 	H 	0.88238 0.76477 0.26087 0.20400
C 	C 	0.92498 0.84997 0.05297 -0.92500
H 	H 	0.92253 0.84507 0.97737 0.32200
Zn	Zn	0.92450 0.46225 0.19346 1.19200
C 	C 	0.86190 0.43095 0.95860 0.03700
C 	C 	0.84530 0.42265 0.84210 -0.47000
H 	H 	0.87810 0.43905 0.79880 0.15100
C 	C 	0.80960 0.40480 0.02880 -0.51900
H 	H 	0.82030 0.41015 0.10210 0.12900
C 	C 	0.87390 0.43695 0.44080 -0.02000
C 	C 	0.86620 0.43310 0.56020 -0.39900
H 	H 	0.90190 0.45095 0.59420 0.13000
C 	C 	0.81670 0.40835 0.38630 -0.37700
H 	H 	0.82160 0.41080 0.31070 0.09900
Zn	Zn	0.59117 0.79558 0.52679 1.19000
C 	C 	0.52857 0.76428 0.29193 -0.04700
C 	C 	0.51197 0.75598 0.17543 -0.35000
H 	H 	0.54477 0.77238 0.13213 0.09900
C 	C 	0.47627 0.73813 0.36213 -0.35600
H 	H 	0.48697 0.74348 0.43543 0.08900
C 	C 	0.54057 0.77028 0.77413 0.02400
C 	C 	0.53287 0.76643 0.89353 -0.49800
H 	H 	0.56857 0.78428 0.92753 0.17900
C 	C 	0.48337 0.74168 0.71963 -0.42700
H 	H 	0.48827 0.74413 0.64403 0.11600
Zn	Zn	0.25783 0.12892 0.86013 1.19200
C 	C 	0.19523 0.09762 0.62527 -0.04500
C 	C 	0.17863 0.08932 0.50877 -0.37300
H 	H 	0.21143 0.10572 0.46547 0.11700
C 	C 	0.14293 0.07147 0.69547 -0.34800
H 	H 	0.15363 0.07682 0.76877 0.08500
C 	C 	0.20723 0.10362 0.10747 0.18900
C 	C 	0.19953 0.09977 0.22687 -0.60700
H 	H 	0.23523 0.11762 0.26087 0.18600
C 	C 	0.15003 0.07502 0.05297 -0.86800
H 	H 	0.15493 0.07747 0.97737 0.29900
Zn	Zn	0.53775 0.46225 0.19346 1.19000
C 	C 	0.56905 0.43095 0.95860 0.03300
C 	C 	0.57735 0.42265 0.84210 -0.46200
H 	H 	0.56095 0.43905 0.79880 0.14600
C 	C 	0.59520 0.40480 0.02880 -0.51700
H 	H 	0.58985 0.41015 0.10210 0.12900
C 	C 	0.56305 0.43695 0.44080 -0.02700
C 	C 	0.56690 0.43310 0.56020 -0.38600
H 	H 	0.54905 0.45095 0.59420 0.12100
C 	C 	0.59165 0.40835 0.38630 -0.37100
H 	H 	0.58920 0.41080 0.31070 0.09800
Zn	Zn	0.20442 0.79558 0.52679 1.19000
C 	C 	0.23572 0.76428 0.29193 -0.04700
C 	C 	0.24402 0.75598 0.17543 -0.35100
H 	H 	0.22762 0.77238 0.13213 0.09900
C 	C 	0.26187 0.73813 0.36213 -0.35700
H 	H 	0.25652 0.74348 0.43543 0.08900
C 	C 	0.22972 0.77028 0.77413 0.02700
C 	C 	0.23357 0.76643 0.89353 -0.50300
H 	H 	0.21572 0.78428 0.92753 0.18100
C 	C 	0.25832 0.74168 0.71963 -0.43100
H 	H 	0.25587 0.74413 0.64403 0.11700
Zn	Zn	0.87108 0.12892 0.86013 1.19200
C 	C 	0.90238 0.09762 0.62527 -0.01600
C 	C 	0.91068 0.08932 0.50877 -0.41700
H 	H 	0.89428 0.10572 0.46547 0.13200
C 	C 	0.92853 0.07147 0.69547 -0.39900
H 	H 	0.92318 0.07682 0.76877 0.10400
C 	C 	0.89638 0.10362 0.10747 0.20500
C 	C 	0.90023 0.09977 0.22687 -0.63400
H 	H 	0.88238 0.11762 0.26087 0.19400
C 	C 	0.92498 0.07502 0.05297 -0.89100
H 	H 	0.92253 0.07747 0.97737 0.30800
Zn	Zn	0.07550 0.53775 0.80654 1.18800
C 	C 	0.13810 0.56905 0.04140 -0.07400
C 	C 	0.15470 0.57735 0.15790 -0.36800
H 	H 	0.12190 0.56095 0.20120 0.11900
C 	C 	0.19040 0.59520 0.97120 -0.25600
H 	H 	0.17970 0.58985 0.89790 0.06900
C 	C 	0.12610 0.56305 0.55920 -0.03100
C 	C 	0.13380 0.56690 0.43980 -0.37600
H 	H 	0.09810 0.54905 0.40580 0.11300
C 	C 	0.18330 0.59165 0.61370 -0.37000
H 	H 	0.17840 0.58920 0.68930 0.10000
Zn	Zn	0.74217 0.87108 0.13987 1.19200
C 	C 	0.80477 0.90238 0.37473 0.01000
C 	C 	0.82137 0.91068 0.49123 -0.46700
H 	H 	0.78857 0.89428 0.53453 0.15300
C 	C 	0.85707 0.92853 0.30453 -0.43500
H 	H 	0.84637 0.92318 0.23123 0.11600
C 	C 	0.79277 0.89638 0.89253 -0.21100
C 	C 	0.80047 0.90023 0.77313 -0.20400
H 	H 	0.76477 0.88238 0.73913 0.06900
C 	C 	0.84997 0.92498 0.94703 0.06800
H 	H 	0.84507 0.92253 0.02263 -0.07900
Zn	Zn	0.40883 0.20442 0.47321 1.19000
C 	C 	0.47143 0.23572 0.70807 0.01700
C 	C 	0.48803 0.24402 0.82457 -0.50300
H 	H 	0.45523 0.22762 0.86787 0.18100
C 	C 	0.52373 0.26187 0.63787 -0.43000
H 	H 	0.51303 0.25652 0.56457 0.11200
C 	C 	0.45943 0.22972 0.22587 -0.05800
C 	C 	0.46713 0.23357 0.10647 -0.30800
H 	H 	0.43143 0.21572 0.07247 0.08200
C 	C 	0.51663 0.25832 0.28037 -0.33700
H 	H 	0.51173 0.25587 0.35597 0.08900
Zn	Zn	0.46225 0.92450 0.80654 1.19300
C 	C 	0.43095 0.86190 0.04140 -0.06500
C 	C 	0.42265 0.84530 0.15790 -0.38400
H 	H 	0.43905 0.87810 0.20120 0.13000
C 	C 	0.40480 0.80960 0.97120 -0.26700
H 	H 	0.41015 0.82030 0.89790 0.07100
C 	C 	0.43695 0.87390 0.55920 -0.01600
C 	C 	0.43310 0.86620 0.43980 -0.40500
H 	H 	0.45095 0.90190 0.40580 0.13300
C 	C 	0.40835 0.81670 0.61370 -0.38400
H 	H 	0.41080 0.82160 0.68930 0.10400
Zn	Zn	0.12892 0.25783 0.13987 1.19200
C 	C 	0.09762 0.19523 0.37473 -0.04900
C 	C 	0.08932 0.17863 0.49123 -0.37700
H 	H 	0.10572 0.21143 0.53453 0.12400
C 	C 	0.07147 0.14293 0.30453 -0.32700
H 	H 	0.07682 0.15363 0.23123 0.07400
C 	C 	0.10362 0.20723 0.89253 -0.27300
C 	C 	0.09977 0.19953 0.77313 -0.11600
H 	H 	0.11762 0.23523 0.73913 0.04200
C 	C 	0.07502 0.15003 0.94703 0.19300
H 	H 	0.07747 0.15493 0.02263 -0.13000
Zn	Zn	0.79558 0.59117 0.47321 1.19000
C 	C 	0.76428 0.52857 0.70807 0.01700
C 	C 	0.75598 0.51197 0.82457 -0.50100
H 	H 	0.77238 0.54477 0.86787 0.18000
C 	C 	0.73813 0.47627 0.63787 -0.42900
H 	H 	0.74348 0.48697 0.56457 0.11100
C 	C 	0.77028 0.54057 0.22587 -0.05900
C 	C 	0.76643 0.53287 0.10647 -0.30800
H 	H 	0.78428 0.56857 0.07247 0.08200
C 	C 	0.74168 0.48337 0.28037 -0.33600
H 	H 	0.74413 0.48827 0.35597 0.08800
Zn	Zn	0.46225 0.53775 0.80654 1.19000
C 	C 	0.43095 0.56905 0.04140 -0.07100
C 	C 	0.42265 0.57735 0.15790 -0.37500
H 	H 	0.43905 0.56095 0.20120 0.12400
C 	C 	0.40480 0.59520 0.97120 -0.26000
H 	H 	0.41015 0.58985 0.89790 0.06900
C 	C 	0.43695 0.56305 0.55920 -0.02400
C 	C 	0.43310 0.56690 0.43980 -0.38900
H 	H 	0.45095 0.54905 0.40580 0.12200
C 	C 	0.40835 0.59165 0.61370 -0.37700
H 	H 	0.41080 0.58920 0.68930 0.10200
Zn	Zn	0.12892 0.87108 0.13987 1.19200
C 	C 	0.09762 0.90238 0.37473 -0.01700
C 	C 	0.08932 0.91068 0.49123 -0.42700
H 	H 	0.10572 0.89428 0.53453 0.14000
C 	C 	0.07147 0.92853 0.30453 -0.38600
H 	H 	0.07682 0.92318 0.23123 0.09700
C 	C 	0.10362 0.89638 0.89253 -0.23800
C 	C 	0.09977 0.90023 0.77313 -0.16500
H 	H 	0.11762 0.88238 0.73913 0.05700
C 	C 	0.07502 0.92498 0.94703 0.12600
H 	H 	0.07747 0.92253 0.02263 -0.10300
Zn	Zn	0.79558 0.20442 0.47321 1.19000
C 	C 	0.76428 0.23572 0.70807 0.01800
C 	C 	0.75598 0.24402 0.82457 -0.50300
H 	H 	0.77238 0.22762 0.86787 0.18100
C 	C 	0.73813 0.26187 0.63787 -0.43000
H 	H 	0.74348 0.25652 0.56457 0.11200
C 	C 	0.77028 0.22972 0.22587 -0.05600
C 	C 	0.76643 0.23357 0.10647 -0.31200
H 	H 	0.78428 0.21572 0.07247 0.08400
C 	C 	0.74168 0.25832 0.28037 -0.33900
H 	H 	0.74413 0.25587 0.35597 0.08900
