data_crystal

_cell_length_a 22.34580
_cell_length_b 29.76910
_cell_length_c 33.37340
_cell_angle_alpha 90.00000
_cell_angle_beta  90.00000
_cell_angle_gamma 90.00000

_symmetry_space_group_name_	'P 1'
_symmetry_space_group_name_H-M	'P 1'

loop_
_symmetry_equiv_pos_as_xyz
  x,y,z

loop_
_atom_site_label
_atom_site_type_symbol
_atom_site_fract_x
_atom_site_fract_y
_atom_site_fract_z
_atom_site_charge
O 	O 	0.85710 0.32230 0.63750 -0.35600
O 	O 	0.79020 0.29090 0.59717 -0.48700
N 	N 	0.90150 0.50250 0.44040 -0.24900
H 	H 	0.89530 0.52920 0.43170 0.13100
N 	N 	0.94070 0.47280 0.42330 -0.27200
C 	C 	0.85080 0.34910 0.57090 -0.20000
C 	C 	0.83500 0.33980 0.53170 0.11700
H 	H 	0.81340 0.31400 0.52560 -0.00000
C 	C 	0.93890 0.43620 0.44640 0.33300
C 	C 	0.85180 0.36970 0.50110 -0.25900
H 	H 	0.84230 0.36290 0.47470 0.10400
C 	C 	0.89810 0.44140 0.47710 -0.32700
C 	C 	0.88240 0.40920 0.50970 0.21900
C 	C 	0.87440 0.48500 0.47190 0.36100
C 	C 	0.89780 0.41810 0.54940 -0.26500
H 	H 	0.91800 0.44450 0.55580 0.12500
C 	C 	0.88330 0.38810 0.57900 0.12300
H 	H 	0.89540 0.39380 0.60520 -0.01700
C 	C 	0.83220 0.31850 0.60500 0.38000
C 	C 	0.97810 0.39650 0.43820 -0.79800
H 	H 	0.97840 0.39050 0.40990 0.24700
H 	H 	0.96280 0.37080 0.45220 0.25900
H 	H 	0.01800 0.40280 0.44710 0.24200
C 	C 	0.82820 0.51010 0.49530 -0.90000
H 	H 	0.84720 0.53300 0.51090 0.29400
H 	H 	0.80750 0.48970 0.51270 0.28300
H 	H 	0.80020 0.52370 0.47710 0.27700
O 	O 	0.85710 0.82230 0.13750 -0.35600
O 	O 	0.79020 0.79090 0.09717 -0.48800
N 	N 	0.90150 0.00250 0.94040 -0.27200
H 	H 	0.89530 0.02920 0.93170 0.13600
N 	N 	0.94070 0.97280 0.92330 -0.26100
C 	C 	0.85080 0.84910 0.07090 -0.21100
C 	C 	0.83500 0.83980 0.03170 0.13800
H 	H 	0.81340 0.81400 0.02560 -0.01100
C 	C 	0.93890 0.93620 0.94640 0.34400
C 	C 	0.85180 0.86970 0.00110 -0.29700
H 	H 	0.84230 0.86290 0.97470 0.12400
C 	C 	0.89810 0.94140 0.97710 -0.33500
C 	C 	0.88240 0.90920 0.00970 0.22800
C 	C 	0.87440 0.98500 0.97190 0.40800
C 	C 	0.89780 0.91810 0.04940 -0.27700
H 	H 	0.91800 0.94450 0.05580 0.13100
C 	C 	0.88330 0.88810 0.07900 0.13400
H 	H 	0.89540 0.89380 0.10520 -0.02100
C 	C 	0.83220 0.81850 0.10500 0.38400
C 	C 	0.97810 0.89650 0.93820 -0.81700
H 	H 	0.97840 0.89050 0.90990 0.25300
H 	H 	0.96280 0.87080 0.95220 0.26700
H 	H 	0.01800 0.90280 0.94710 0.25200
C 	C 	0.82820 0.01010 0.99530 -0.95100
H 	H 	0.84720 0.03300 0.01090 0.29600
H 	H 	0.80750 0.98970 0.01270 0.30200
H 	H 	0.80020 0.02370 0.97710 0.28800
O 	O 	0.35710 0.32230 0.13750 -0.35700
O 	O 	0.29020 0.29090 0.09717 -0.48800
N 	N 	0.40150 0.50250 0.94040 -0.24000
H 	H 	0.39530 0.52920 0.93170 0.12900
N 	N 	0.44070 0.47280 0.92330 -0.28000
C 	C 	0.35080 0.34910 0.07090 -0.20700
C 	C 	0.33500 0.33980 0.03170 0.12900
H 	H 	0.31340 0.31400 0.02560 -0.00900
C 	C 	0.43890 0.43620 0.94640 0.35100
C 	C 	0.35180 0.36970 0.00110 -0.28800
H 	H 	0.34230 0.36290 0.97470 0.12100
C 	C 	0.39810 0.44140 0.97710 -0.31200
C 	C 	0.38240 0.40920 0.00970 0.21100
C 	C 	0.37440 0.48500 0.97190 0.32500
C 	C 	0.39780 0.41810 0.04940 -0.26700
H 	H 	0.41800 0.44450 0.05580 0.12100
C 	C 	0.38330 0.38810 0.07900 0.12300
H 	H 	0.39540 0.39380 0.10520 -0.02000
C 	C 	0.33220 0.31850 0.10500 0.38100
C 	C 	0.47810 0.39650 0.93820 -0.90000
H 	H 	0.47840 0.39050 0.90990 0.27300
H 	H 	0.46280 0.37080 0.95220 0.28700
H 	H 	0.51800 0.40280 0.94710 0.28800
C 	C 	0.32820 0.51010 0.99530 -0.75800
H 	H 	0.34720 0.53300 0.01090 0.24300
H 	H 	0.30750 0.48970 0.01270 0.23300
H 	H 	0.30020 0.52370 0.97710 0.23800
O 	O 	0.35710 0.82230 0.63750 -0.35800
O 	O 	0.29020 0.79090 0.59717 -0.48800
N 	N 	0.40150 0.00250 0.44040 -0.28600
H 	H 	0.39530 0.02920 0.43170 0.13800
N 	N 	0.44070 0.97280 0.42330 -0.27200
C 	C 	0.35080 0.84910 0.57090 -0.21200
C 	C 	0.33500 0.83980 0.53170 0.13000
H 	H 	0.31340 0.81400 0.52560 -0.00600
C 	C 	0.43890 0.93620 0.44640 0.37700
C 	C 	0.35180 0.86970 0.50110 -0.28100
H 	H 	0.34230 0.86290 0.47470 0.11200
C 	C 	0.39810 0.94140 0.47710 -0.38100
C 	C 	0.38240 0.90920 0.50970 0.24600
C 	C 	0.37440 0.98500 0.47190 0.45600
C 	C 	0.39780 0.91810 0.54940 -0.29000
H 	H 	0.41800 0.94450 0.55580 0.13300
C 	C 	0.38330 0.88810 0.57900 0.13600
H 	H 	0.39540 0.89380 0.60520 -0.02400
C 	C 	0.33220 0.81850 0.60500 0.38300
C 	C 	0.47810 0.89650 0.43820 -0.92500
H 	H 	0.47840 0.89050 0.40990 0.28100
H 	H 	0.46280 0.87080 0.45220 0.29200
H 	H 	0.51800 0.90280 0.44710 0.29400
C 	C 	0.32820 0.01010 0.49530 -1.10900
H 	H 	0.34720 0.03300 0.51090 0.35100
H 	H 	0.30750 0.98970 0.51270 0.35800
H 	H 	0.30020 0.02370 0.47710 0.33200
O 	O 	0.14290 0.67770 0.63750 -0.35900
O 	O 	0.20980 0.70910 0.59717 -0.48800
N 	N 	0.09850 0.49750 0.44040 -0.25200
H 	H 	0.10470 0.47080 0.43170 0.13100
N 	N 	0.05930 0.52720 0.42330 -0.28900
C 	C 	0.14920 0.65090 0.57090 -0.20700
C 	C 	0.16500 0.66020 0.53170 0.12100
H 	H 	0.18660 0.68600 0.52560 -0.00300
C 	C 	0.06110 0.56380 0.44640 0.38500
C 	C 	0.14820 0.63030 0.50110 -0.27200
H 	H 	0.15770 0.63710 0.47470 0.10800
C 	C 	0.10190 0.55860 0.47710 -0.35800
C 	C 	0.11760 0.59080 0.50970 0.22900
C 	C 	0.12560 0.51500 0.47190 0.37000
C 	C 	0.10220 0.58190 0.54940 -0.27900
H 	H 	0.08200 0.55550 0.55580 0.12300
C 	C 	0.11670 0.61190 0.57900 0.12500
H 	H 	0.10460 0.60620 0.60520 -0.02300
C 	C 	0.16780 0.68150 0.60500 0.38000
C 	C 	0.02190 0.60350 0.43820 -1.01100
H 	H 	0.02160 0.60950 0.40990 0.30100
H 	H 	0.03720 0.62920 0.45220 0.31200
H 	H 	0.98200 0.59720 0.44710 0.33200
C 	C 	0.17180 0.48990 0.49530 -0.91300
H 	H 	0.15280 0.46700 0.51090 0.29700
H 	H 	0.19250 0.51030 0.51270 0.28700
H 	H 	0.19980 0.47630 0.47710 0.28100
O 	O 	0.14290 0.17770 0.13750 -0.35800
O 	O 	0.20980 0.20910 0.09717 -0.48800
N 	N 	0.09850 0.99750 0.94040 -0.20600
H 	H 	0.10470 0.97080 0.93170 0.12300
N 	N 	0.05930 0.02720 0.92330 -0.29500
C 	C 	0.14920 0.15090 0.07090 -0.20300
C 	C 	0.16500 0.16020 0.03170 0.12000
H 	H 	0.18660 0.18600 0.02560 -0.00600
C 	C 	0.06110 0.06380 0.94640 0.36000
C 	C 	0.14820 0.13030 0.00110 -0.27900
H 	H 	0.15770 0.13710 0.97470 0.11700
C 	C 	0.10190 0.05860 0.97710 -0.29000
C 	C 	0.11760 0.09080 0.00970 0.19500
C 	C 	0.12560 0.01500 0.97190 0.24100
C 	C 	0.10220 0.08190 0.04940 -0.25700
H 	H 	0.08200 0.05550 0.05580 0.11100
C 	C 	0.11670 0.11190 0.07900 0.11200
H 	H 	0.10460 0.10620 0.10520 -0.01800
C 	C 	0.16780 0.18150 0.10500 0.37800
C 	C 	0.02190 0.10350 0.93820 -0.98600
H 	H 	0.02160 0.10950 0.90990 0.29400
H 	H 	0.03720 0.12920 0.95220 0.30700
H 	H 	0.98200 0.09720 0.94710 0.32700
C 	C 	0.17180 0.98990 0.99530 -0.56600
H 	H 	0.15280 0.96700 0.01090 0.19000
H 	H 	0.19250 0.01030 0.01270 0.16400
H 	H 	0.19980 0.97630 0.97710 0.18800
O 	O 	0.64290 0.67770 0.13750 -0.35700
O 	O 	0.70980 0.70910 0.09717 -0.48800
N 	N 	0.59850 0.49750 0.94040 -0.24000
H 	H 	0.60470 0.47080 0.93170 0.13000
N 	N 	0.55930 0.52720 0.92330 -0.28000
C 	C 	0.64920 0.65090 0.07090 -0.20700
C 	C 	0.66500 0.66020 0.03170 0.12900
H 	H 	0.68660 0.68600 0.02560 -0.00900
C 	C 	0.56110 0.56380 0.94640 0.35100
C 	C 	0.64820 0.63030 0.00110 -0.28800
H 	H 	0.65770 0.63710 0.97470 0.12100
C 	C 	0.60190 0.55860 0.97710 -0.31200
C 	C 	0.61760 0.59080 0.00970 0.21100
C 	C 	0.62560 0.51500 0.97190 0.32500
C 	C 	0.60220 0.58190 0.04940 -0.26700
H 	H 	0.58200 0.55550 0.05580 0.12100
C 	C 	0.61670 0.61190 0.07900 0.12300
H 	H 	0.60460 0.60620 0.10520 -0.02000
C 	C 	0.66780 0.68150 0.10500 0.38100
C 	C 	0.52190 0.60350 0.93820 -0.90000
H 	H 	0.52160 0.60950 0.90990 0.27300
H 	H 	0.53720 0.62920 0.95220 0.28700
H 	H 	0.48200 0.59720 0.94710 0.28800
C 	C 	0.67180 0.48990 0.99530 -0.75900
H 	H 	0.65280 0.46700 0.01090 0.24300
H 	H 	0.69250 0.51030 0.01270 0.23300
H 	H 	0.69980 0.47630 0.97710 0.23800
O 	O 	0.64290 0.17770 0.63750 -0.35600
O 	O 	0.70980 0.20910 0.59717 -0.48600
N 	N 	0.59850 0.99750 0.44040 -0.21400
H 	H 	0.60470 0.97080 0.43170 0.12500
N 	N 	0.55930 0.02720 0.42330 -0.28800
C 	C 	0.64920 0.15090 0.57090 -0.19500
C 	C 	0.66500 0.16020 0.53170 0.10800
H 	H 	0.68660 0.18600 0.52560 0.00200
C 	C 	0.56110 0.06380 0.44640 0.34100
C 	C 	0.64820 0.13030 0.50110 -0.25000
H 	H 	0.65770 0.13710 0.47470 0.10000
C 	C 	0.60190 0.05860 0.47710 -0.30400
C 	C 	0.61760 0.09080 0.50970 0.20200
C 	C 	0.62560 0.01500 0.47190 0.27700
C 	C 	0.60220 0.08190 0.54940 -0.25500
H 	H 	0.58200 0.05550 0.55580 0.11500
C 	C 	0.61670 0.11190 0.57900 0.11200
H 	H 	0.60460 0.10620 0.60520 -0.01600
C 	C 	0.66780 0.18150 0.60500 0.37700
C 	C 	0.52190 0.10350 0.43820 -0.88500
H 	H 	0.52160 0.10950 0.40990 0.26800
H 	H 	0.53720 0.12920 0.45220 0.27900
H 	H 	0.48200 0.09720 0.44710 0.28000
C 	C 	0.67180 0.98990 0.49530 -0.70600
H 	H 	0.65280 0.96700 0.51090 0.24100
H 	H 	0.69250 0.01030 0.51270 0.21400
H 	H 	0.69980 0.97630 0.47710 0.22600
O 	O 	0.10710 0.92770 0.88750 -0.35300
O 	O 	0.04020 0.95910 0.84717 -0.48600
N 	N 	0.15150 0.74750 0.69040 -0.24800
H 	H 	0.14530 0.72080 0.68170 0.13000
N 	N 	0.19070 0.77720 0.67330 -0.28200
C 	C 	0.10080 0.90090 0.82090 -0.20300
C 	C 	0.08500 0.91020 0.78170 0.11500
H 	H 	0.06340 0.93600 0.77560 -0.00100
C 	C 	0.18890 0.81380 0.69640 0.35700
C 	C 	0.10180 0.88030 0.75110 -0.26500
H 	H 	0.09230 0.88710 0.72470 0.10300
C 	C 	0.14810 0.80860 0.72710 -0.34000
C 	C 	0.13240 0.84080 0.75970 0.21900
C 	C 	0.12440 0.76500 0.72190 0.35600
C 	C 	0.14780 0.83190 0.79940 -0.27100
H 	H 	0.16800 0.80550 0.80580 0.12300
C 	C 	0.13330 0.86190 0.82900 0.11900
H 	H 	0.14540 0.85620 0.85520 -0.01900
C 	C 	0.08220 0.93150 0.85500 0.37700
C 	C 	0.22810 0.85350 0.68820 -0.90300
H 	H 	0.22840 0.85950 0.65990 0.27300
H 	H 	0.21280 0.87920 0.70220 0.28500
H 	H 	0.26800 0.84720 0.69710 0.28700
C 	C 	0.07820 0.73990 0.74530 -0.88400
H 	H 	0.09720 0.71700 0.76090 0.28700
H 	H 	0.05750 0.76030 0.76270 0.27200
H 	H 	0.05020 0.72630 0.72710 0.26700
O 	O 	0.10710 0.42770 0.38750 -0.35800
O 	O 	0.04020 0.45910 0.34717 -0.49500
N 	N 	0.15150 0.24750 0.19040 -0.24800
H 	H 	0.14530 0.22080 0.18170 0.13000
N 	N 	0.19070 0.27720 0.17330 -0.28200
C 	C 	0.10080 0.40090 0.32090 -0.20700
C 	C 	0.08500 0.41020 0.28170 0.11800
H 	H 	0.06340 0.43600 0.27560 -0.00500
C 	C 	0.18890 0.31380 0.19640 0.35700
C 	C 	0.10180 0.38030 0.25110 -0.26800
H 	H 	0.09230 0.38710 0.22470 0.10400
C 	C 	0.14810 0.30860 0.22710 -0.34000
C 	C 	0.13240 0.34080 0.25970 0.22100
C 	C 	0.12440 0.26500 0.22190 0.35600
C 	C 	0.14780 0.33190 0.29940 -0.27300
H 	H 	0.16800 0.30550 0.30580 0.12400
C 	C 	0.13330 0.36190 0.32900 0.12100
H 	H 	0.14540 0.35620 0.35520 -0.02000
C 	C 	0.08220 0.43150 0.35500 0.37900
C 	C 	0.22810 0.35350 0.18820 -0.90400
H 	H 	0.22840 0.35950 0.15990 0.27400
H 	H 	0.21280 0.37920 0.20220 0.28500
H 	H 	0.26800 0.34720 0.19710 0.28700
C 	C 	0.07820 0.23990 0.24530 -0.88500
H 	H 	0.09720 0.21700 0.26090 0.28800
H 	H 	0.05750 0.26030 0.26270 0.27200
H 	H 	0.05020 0.22630 0.22710 0.26700
O 	O 	0.60710 0.92770 0.38750 -0.35300
O 	O 	0.54020 0.95910 0.34717 -0.47800
N 	N 	0.65150 0.74750 0.19040 -0.25000
H 	H 	0.64530 0.72080 0.18170 0.13100
N 	N 	0.69070 0.77720 0.17330 -0.28100
C 	C 	0.60080 0.90090 0.32090 -0.20000
C 	C 	0.58500 0.91020 0.28170 0.11600
H 	H 	0.56340 0.93600 0.27560 0.00300
C 	C 	0.68890 0.81380 0.19640 0.35800
C 	C 	0.60180 0.88030 0.25110 -0.26200
H 	H 	0.59230 0.88710 0.22470 0.10500
C 	C 	0.64810 0.80860 0.22710 -0.34200
C 	C 	0.63240 0.84080 0.25970 0.22200
C 	C 	0.62440 0.76500 0.22190 0.36500
C 	C 	0.64780 0.83190 0.29940 -0.27000
H 	H 	0.66800 0.80550 0.30580 0.12300
C 	C 	0.63330 0.86190 0.32900 0.12100
H 	H 	0.64540 0.85620 0.35520 -0.01900
C 	C 	0.58220 0.93150 0.35500 0.37800
C 	C 	0.72810 0.85350 0.18820 -0.90400
H 	H 	0.72840 0.85950 0.15990 0.27400
H 	H 	0.71280 0.87920 0.20220 0.28500
H 	H 	0.76800 0.84720 0.19710 0.28600
C 	C 	0.57820 0.73990 0.24530 -0.90600
H 	H 	0.59720 0.71700 0.26090 0.29500
H 	H 	0.55750 0.76030 0.26270 0.28500
H 	H 	0.55020 0.72630 0.22710 0.27900
O 	O 	0.60710 0.42770 0.88750 -0.35600
O 	O 	0.54020 0.45910 0.84717 -0.48700
N 	N 	0.65150 0.24750 0.69040 -0.25000
H 	H 	0.64530 0.22080 0.68170 0.13100
N 	N 	0.69070 0.27720 0.67330 -0.28100
C 	C 	0.60080 0.40090 0.82090 -0.20300
C 	C 	0.58500 0.41020 0.78170 0.11900
H 	H 	0.56340 0.43600 0.77560 -0.00200
C 	C 	0.68890 0.31380 0.69640 0.35800
C 	C 	0.60180 0.38030 0.75110 -0.26500
H 	H 	0.59230 0.38710 0.72470 0.10600
C 	C 	0.64810 0.30860 0.72710 -0.34200
C 	C 	0.63240 0.34080 0.75970 0.22400
C 	C 	0.62440 0.26500 0.72190 0.36600
C 	C 	0.64780 0.33190 0.79940 -0.27200
H 	H 	0.66800 0.30550 0.80580 0.12400
C 	C 	0.63330 0.36190 0.82900 0.12400
H 	H 	0.64540 0.35620 0.85520 -0.02000
C 	C 	0.58220 0.43150 0.85500 0.38000
C 	C 	0.72810 0.35350 0.68820 -0.90500
H 	H 	0.72840 0.35950 0.65990 0.27400
H 	H 	0.71280 0.37920 0.70220 0.28500
H 	H 	0.76800 0.34720 0.69710 0.28700
C 	C 	0.57820 0.23990 0.74530 -0.90600
H 	H 	0.59720 0.21700 0.76090 0.29500
H 	H 	0.55750 0.26030 0.76270 0.28500
H 	H 	0.55020 0.22630 0.72710 0.27900
O 	O 	0.39290 0.57230 0.88750 -0.35600
O 	O 	0.45980 0.54090 0.84717 -0.48700
N 	N 	0.34850 0.75250 0.69040 -0.25000
H 	H 	0.35470 0.77920 0.68170 0.13100
N 	N 	0.30930 0.72280 0.67330 -0.28100
C 	C 	0.39920 0.59910 0.82090 -0.20300
C 	C 	0.41500 0.58980 0.78170 0.11900
H 	H 	0.43660 0.56400 0.77560 -0.00200
C 	C 	0.31110 0.68620 0.69640 0.35900
C 	C 	0.39820 0.61970 0.75110 -0.26500
H 	H 	0.40770 0.61290 0.72470 0.10600
C 	C 	0.35190 0.69140 0.72710 -0.34200
C 	C 	0.36760 0.65920 0.75970 0.22400
C 	C 	0.37560 0.73500 0.72190 0.36600
C 	C 	0.35220 0.66810 0.79940 -0.27200
H 	H 	0.33200 0.69450 0.80580 0.12400
C 	C 	0.36670 0.63810 0.82900 0.12400
H 	H 	0.35460 0.64380 0.85520 -0.02000
C 	C 	0.41780 0.56850 0.85500 0.38000
C 	C 	0.27190 0.64650 0.68820 -0.90500
H 	H 	0.27160 0.64050 0.65990 0.27400
H 	H 	0.28720 0.62080 0.70220 0.28500
H 	H 	0.23200 0.65280 0.69710 0.28700
C 	C 	0.42180 0.76010 0.74530 -0.90600
H 	H 	0.40280 0.78300 0.76090 0.29500
H 	H 	0.44250 0.73970 0.76270 0.28500
H 	H 	0.44980 0.77370 0.72710 0.27900
O 	O 	0.39290 0.07230 0.38750 -0.36100
O 	O 	0.45980 0.04090 0.34717 -0.49300
N 	N 	0.34850 0.25250 0.19040 -0.25000
H 	H 	0.35470 0.27920 0.18170 0.13100
N 	N 	0.30930 0.22280 0.17330 -0.28100
C 	C 	0.39920 0.09910 0.32090 -0.20600
C 	C 	0.41500 0.08980 0.28170 0.12100
H 	H 	0.43660 0.06400 0.27560 -0.00600
C 	C 	0.31110 0.18620 0.19640 0.35900
C 	C 	0.39820 0.11970 0.25110 -0.26800
H 	H 	0.40770 0.11290 0.22470 0.10600
C 	C 	0.35190 0.19140 0.22710 -0.34300
C 	C 	0.36760 0.15920 0.25970 0.22500
C 	C 	0.37560 0.23500 0.22190 0.36600
C 	C 	0.35220 0.16810 0.29940 -0.27400
H 	H 	0.33200 0.19450 0.30580 0.12400
C 	C 	0.36670 0.13810 0.32900 0.12600
H 	H 	0.35460 0.14380 0.35520 -0.02100
C 	C 	0.41780 0.06850 0.35500 0.38100
C 	C 	0.27190 0.14650 0.18820 -0.90600
H 	H 	0.27160 0.14050 0.15990 0.27400
H 	H 	0.28720 0.12080 0.20220 0.28500
H 	H 	0.23200 0.15280 0.19710 0.28700
C 	C 	0.42180 0.26010 0.24530 -0.90700
H 	H 	0.40280 0.28300 0.26090 0.29600
H 	H 	0.44250 0.23970 0.26270 0.28500
H 	H 	0.44980 0.27370 0.22710 0.27900
O 	O 	0.89290 0.57230 0.38750 -0.35500
O 	O 	0.95980 0.54090 0.34717 -0.47600
N 	N 	0.84850 0.75250 0.19040 -0.25200
H 	H 	0.85470 0.77920 0.18170 0.13300
N 	N 	0.80930 0.72280 0.17330 -0.28100
C 	C 	0.89920 0.59910 0.32090 -0.19900
C 	C 	0.91500 0.58980 0.28170 0.12000
H 	H 	0.93660 0.56400 0.27560 0.00200
C 	C 	0.81110 0.68620 0.19640 0.36000
C 	C 	0.89820 0.61970 0.25110 -0.26200
H 	H 	0.90770 0.61290 0.22470 0.10800
C 	C 	0.85190 0.69140 0.22710 -0.34500
C 	C 	0.86760 0.65920 0.25970 0.22600
C 	C 	0.87560 0.73500 0.22190 0.37500
C 	C 	0.85220 0.66810 0.29940 -0.27100
H 	H 	0.83200 0.69450 0.30580 0.12400
C 	C 	0.86670 0.63810 0.32900 0.12600
H 	H 	0.85460 0.64380 0.35520 -0.01900
C 	C 	0.91780 0.56850 0.35500 0.38000
C 	C 	0.77190 0.64650 0.18820 -0.90600
H 	H 	0.77160 0.64050 0.15990 0.27500
H 	H 	0.78720 0.62080 0.20220 0.28600
H 	H 	0.73200 0.65280 0.19710 0.28700
C 	C 	0.92180 0.76010 0.24530 -0.92800
H 	H 	0.90280 0.78300 0.26090 0.30300
H 	H 	0.94250 0.73970 0.26270 0.29900
H 	H 	0.94980 0.77370 0.22710 0.29100
O 	O 	0.89290 0.07230 0.88750 -0.35800
O 	O 	0.95980 0.04090 0.84717 -0.48200
N 	N 	0.84850 0.25250 0.69040 -0.25200
H 	H 	0.85470 0.27920 0.68170 0.13300
N 	N 	0.80930 0.22280 0.67330 -0.28100
C 	C 	0.89920 0.09910 0.82090 -0.20200
C 	C 	0.91500 0.08980 0.78170 0.12200
H 	H 	0.93660 0.06400 0.77560 -0.00200
C 	C 	0.81110 0.18620 0.69640 0.36000
C 	C 	0.89820 0.11970 0.75110 -0.26500
H 	H 	0.90770 0.11290 0.72470 0.10800
C 	C 	0.85190 0.19140 0.72710 -0.34500
C 	C 	0.86760 0.15920 0.75970 0.22800
C 	C 	0.87560 0.23500 0.72190 0.37500
C 	C 	0.85220 0.16810 0.79940 -0.27300
H 	H 	0.83200 0.19450 0.80580 0.12500
C 	C 	0.86670 0.13810 0.82900 0.12800
H 	H 	0.85460 0.14380 0.85520 -0.02000
C 	C 	0.91780 0.06850 0.85500 0.38100
C 	C 	0.77190 0.14650 0.68820 -0.90700
H 	H 	0.77160 0.14050 0.65990 0.27500
H 	H 	0.78720 0.12080 0.70220 0.28500
H 	H 	0.73200 0.15280 0.69710 0.28700
C 	C 	0.92180 0.26010 0.74530 -0.92900
H 	H 	0.90280 0.28300 0.76090 0.30300
H 	H 	0.94250 0.23970 0.76270 0.29900
H 	H 	0.94980 0.27370 0.72710 0.29100
Zn	Zn	-0.00000 0.50000 0.38346 1.20000
Zn	Zn	-0.00000 0.00000 0.88346 1.19400
Zn	Zn	0.50000 0.50000 0.88346 1.20700
Zn	Zn	0.50000 0.00000 0.38346 1.20100
Zn	Zn	0.25000 0.75000 0.63346 1.20700
Zn	Zn	0.25000 0.25000 0.13346 1.20700
Zn	Zn	0.75000 0.75000 0.13346 1.20700
Zn	Zn	0.75000 0.25000 0.63346 1.20700
O 	O 	0.29390 0.70880 0.28530 -0.49500
O 	O 	0.38520 0.73850 0.29030 -0.33500
N 	N 	0.38620 0.54000 0.47790 -0.24500
H 	H 	0.37010 0.52530 0.49730 0.14400
N 	N 	0.44490 0.53690 0.46790 -0.29200
C 	C 	0.36040 0.67710 0.33190 -0.21600
C 	C 	0.32430 0.64000 0.33800 0.14400
H 	H 	0.29160 0.63520 0.32140 -0.01900
C 	C 	0.45230 0.56480 0.43710 0.34800
C 	C 	0.33640 0.60990 0.36860 -0.27900
H 	H 	0.31140 0.58530 0.37250 0.11100
C 	C 	0.39810 0.58500 0.42650 -0.34000
C 	C 	0.38570 0.61630 0.39360 0.25700
C 	C 	0.35620 0.56850 0.45440 0.37300
C 	C 	0.42240 0.65270 0.38620 -0.28600
H 	H 	0.45580 0.65720 0.40230 0.11700
C 	C 	0.41090 0.68240 0.35570 0.16000
H 	H 	0.43700 0.70610 0.35090 -0.02900
C 	C 	0.34630 0.71110 0.30030 0.39100
C 	C 	0.51230 0.57030 0.41760 -0.87700
H 	H 	0.51730 0.60090 0.40930 0.29000
H 	H 	0.51490 0.55080 0.39480 0.27100
H 	H 	0.54320 0.56260 0.43650 0.25200
C 	C 	0.29190 0.57930 0.46040 -0.89800
H 	H 	0.26800 0.56070 0.44320 0.27700
H 	H 	0.28500 0.61030 0.45410 0.28700
H 	H 	0.28110 0.57370 0.48780 0.28400
O 	O 	0.29390 0.20880 0.78530 -0.49500
O 	O 	0.38520 0.23850 0.79030 -0.33500
N 	N 	0.38620 0.04000 0.97790 -0.24600
H 	H 	0.37010 0.02530 0.99730 0.14400
N 	N 	0.44490 0.03690 0.96790 -0.29200
C 	C 	0.36040 0.17710 0.83190 -0.21600
C 	C 	0.32430 0.14000 0.83800 0.14300
H 	H 	0.29160 0.13520 0.82140 -0.02000
C 	C 	0.45230 0.06480 0.93710 0.34500
C 	C 	0.33640 0.10990 0.86860 -0.27900
H 	H 	0.31140 0.08530 0.87250 0.10900
C 	C 	0.39810 0.08500 0.92650 -0.34100
C 	C 	0.38570 0.11630 0.89360 0.25700
C 	C 	0.35620 0.06850 0.95440 0.37600
C 	C 	0.42240 0.15270 0.88620 -0.28600
H 	H 	0.45580 0.15720 0.90230 0.11800
C 	C 	0.41090 0.18240 0.85570 0.16000
H 	H 	0.43700 0.20610 0.85090 -0.02900
C 	C 	0.34630 0.21110 0.80030 0.39100
C 	C 	0.51230 0.07030 0.91760 -0.87000
H 	H 	0.51730 0.10090 0.90930 0.28800
H 	H 	0.51490 0.05080 0.89480 0.26400
H 	H 	0.54320 0.06260 0.93650 0.24900
C 	C 	0.29190 0.07930 0.96040 -0.90800
H 	H 	0.26800 0.06070 0.94320 0.27900
H 	H 	0.28500 0.11030 0.95410 0.29100
H 	H 	0.28110 0.07370 0.98780 0.29200
O 	O 	0.79390 0.70880 0.78530 -0.49500
O 	O 	0.88520 0.73850 0.79030 -0.33300
N 	N 	0.88620 0.54000 0.97790 -0.24800
H 	H 	0.87010 0.52530 0.99730 0.15200
N 	N 	0.94490 0.53690 0.96790 -0.28900
C 	C 	0.86040 0.67710 0.83190 -0.22000
C 	C 	0.82430 0.64000 0.83800 0.15000
H 	H 	0.79160 0.63520 0.82140 -0.02100
C 	C 	0.95230 0.56480 0.93710 0.38400
C 	C 	0.83640 0.60990 0.86860 -0.28700
H 	H 	0.81140 0.58530 0.87250 0.11400
C 	C 	0.89810 0.58500 0.92650 -0.35600
C 	C 	0.88570 0.61630 0.89360 0.27100
C 	C 	0.85620 0.56850 0.95440 0.38600
C 	C 	0.92240 0.65270 0.88620 -0.29300
H 	H 	0.95580 0.65720 0.90230 0.12600
C 	C 	0.91090 0.68240 0.85570 0.16900
H 	H 	0.93700 0.70610 0.85090 -0.02800
C 	C 	0.84630 0.71110 0.80030 0.39300
C 	C 	0.01230 0.57030 0.91760 -0.93800
H 	H 	0.01730 0.60090 0.90930 0.30300
H 	H 	0.01490 0.55080 0.89480 0.28300
H 	H 	0.04320 0.56260 0.93650 0.26800
C 	C 	0.79190 0.57930 0.96040 -0.92000
H 	H 	0.76800 0.56070 0.94320 0.28500
H 	H 	0.78500 0.61030 0.95410 0.29500
H 	H 	0.78110 0.57370 0.98780 0.29500
O 	O 	0.79390 0.20880 0.28530 -0.49500
O 	O 	0.88520 0.23850 0.29030 -0.33300
N 	N 	0.88620 0.04000 0.47790 -0.24500
H 	H 	0.87010 0.02530 0.49730 0.13900
N 	N 	0.94490 0.03690 0.46790 -0.29500
C 	C 	0.86040 0.17710 0.33190 -0.21800
C 	C 	0.82430 0.14000 0.33800 0.14700
H 	H 	0.79160 0.13520 0.32140 -0.02100
C 	C 	0.95230 0.06480 0.43710 0.37400
C 	C 	0.83640 0.10990 0.36860 -0.28300
H 	H 	0.81140 0.08530 0.37250 0.11100
C 	C 	0.89810 0.08500 0.42650 -0.34900
C 	C 	0.88570 0.11630 0.39360 0.26500
C 	C 	0.85620 0.06850 0.45440 0.37300
C 	C 	0.92240 0.15270 0.38620 -0.28900
H 	H 	0.95580 0.15720 0.40230 0.12500
C 	C 	0.91090 0.18240 0.35570 0.16500
H 	H 	0.93700 0.20610 0.35090 -0.02700
C 	C 	0.84630 0.21110 0.30030 0.39200
C 	C 	0.01230 0.07030 0.41760 -0.92000
H 	H 	0.01730 0.10090 0.40930 0.29600
H 	H 	0.01490 0.05080 0.39480 0.27300
H 	H 	0.04320 0.06260 0.43650 0.25800
C 	C 	0.79190 0.07930 0.46040 -0.89700
H 	H 	0.76800 0.06070 0.44320 0.27500
H 	H 	0.78500 0.11030 0.45410 0.28600
H 	H 	0.78110 0.07370 0.48780 0.28300
O 	O 	0.70610 0.29120 0.28530 -0.49500
O 	O 	0.61480 0.26150 0.29030 -0.33500
N 	N 	0.61380 0.46000 0.47790 -0.24500
H 	H 	0.62990 0.47470 0.49730 0.14400
N 	N 	0.55510 0.46310 0.46790 -0.29200
C 	C 	0.63960 0.32290 0.33190 -0.21600
C 	C 	0.67570 0.36000 0.33800 0.14300
H 	H 	0.70840 0.36480 0.32140 -0.01900
C 	C 	0.54770 0.43520 0.43710 0.34800
C 	C 	0.66360 0.39010 0.36860 -0.27900
H 	H 	0.68860 0.41470 0.37250 0.11100
C 	C 	0.60190 0.41500 0.42650 -0.34000
C 	C 	0.61430 0.38370 0.39360 0.25700
C 	C 	0.64380 0.43150 0.45440 0.37200
C 	C 	0.57760 0.34730 0.38620 -0.28600
H 	H 	0.54420 0.34280 0.40230 0.11700
C 	C 	0.58910 0.31760 0.35570 0.16000
H 	H 	0.56300 0.29390 0.35090 -0.02900
C 	C 	0.65370 0.28890 0.30030 0.39100
C 	C 	0.48770 0.42970 0.41760 -0.87700
H 	H 	0.48270 0.39910 0.40930 0.29000
H 	H 	0.48510 0.44920 0.39480 0.27100
H 	H 	0.45680 0.43740 0.43650 0.25200
C 	C 	0.70810 0.42070 0.46040 -0.89700
H 	H 	0.73200 0.43930 0.44320 0.27700
H 	H 	0.71500 0.38970 0.45410 0.28600
H 	H 	0.71890 0.42630 0.48780 0.28300
O 	O 	0.70610 0.79120 0.78530 -0.49500
O 	O 	0.61480 0.76150 0.79030 -0.33600
N 	N 	0.61380 0.96000 0.97790 -0.24800
H 	H 	0.62990 0.97470 0.99730 0.15800
N 	N 	0.55510 0.96310 0.96790 -0.28400
C 	C 	0.63960 0.82290 0.83190 -0.21900
C 	C 	0.67570 0.86000 0.83800 0.14700
H 	H 	0.70840 0.86480 0.82140 -0.02000
C 	C 	0.54770 0.93520 0.93710 0.35900
C 	C 	0.66360 0.89010 0.86860 -0.28300
H 	H 	0.68860 0.91470 0.87250 0.11500
C 	C 	0.60190 0.91500 0.92650 -0.34700
C 	C 	0.61430 0.88370 0.89360 0.26300
C 	C 	0.64380 0.93150 0.95440 0.38600
C 	C 	0.57760 0.84730 0.88620 -0.29000
H 	H 	0.54420 0.84280 0.90230 0.11900
C 	C 	0.58910 0.81760 0.85570 0.16300
H 	H 	0.56300 0.79390 0.85090 -0.03000
C 	C 	0.65370 0.78890 0.80030 0.39200
C 	C 	0.48770 0.92970 0.91760 -0.89600
H 	H 	0.48270 0.89910 0.90930 0.29700
H 	H 	0.48510 0.94920 0.89480 0.28100
H 	H 	0.45680 0.93740 0.93650 0.26400
C 	C 	0.70810 0.92070 0.96040 -0.92000
H 	H 	0.73200 0.93930 0.94320 0.28700
H 	H 	0.71500 0.88970 0.95410 0.29500
H 	H 	0.71890 0.92630 0.98780 0.29600
O 	O 	0.20610 0.29120 0.78530 -0.49500
O 	O 	0.11480 0.26150 0.79030 -0.33700
N 	N 	0.11380 0.46000 0.97790 -0.24600
H 	H 	0.12990 0.47470 0.99730 0.15000
N 	N 	0.05510 0.46310 0.96790 -0.28700
C 	C 	0.13960 0.32290 0.83190 -0.21500
C 	C 	0.17570 0.36000 0.83800 0.13900
H 	H 	0.20840 0.36480 0.82140 -0.01900
C 	C 	0.04770 0.43520 0.93710 0.32000
C 	C 	0.16360 0.39010 0.86860 -0.27500
H 	H 	0.18860 0.41470 0.87250 0.10900
C 	C 	0.10190 0.41500 0.92650 -0.33100
C 	C 	0.11430 0.38370 0.89360 0.24900
C 	C 	0.14380 0.43150 0.95440 0.37600
C 	C 	0.07760 0.34730 0.88620 -0.28200
H 	H 	0.04420 0.34280 0.90230 0.11000
C 	C 	0.08910 0.31760 0.85570 0.15400
H 	H 	0.06300 0.29390 0.85090 -0.03100
C 	C 	0.15370 0.28890 0.80030 0.39000
C 	C 	0.98770 0.42970 0.91760 -0.82700
H 	H 	0.98270 0.39910 0.90930 0.28300
H 	H 	0.98510 0.44920 0.89480 0.26300
H 	H 	0.95680 0.43740 0.93650 0.24400
C 	C 	0.20810 0.42070 0.96040 -0.90800
H 	H 	0.23200 0.43930 0.94320 0.28100
H 	H 	0.21500 0.38970 0.95410 0.29100
H 	H 	0.21890 0.42630 0.98780 0.29200
O 	O 	0.20610 0.79120 0.28530 -0.49500
O 	O 	0.11480 0.76150 0.29030 -0.33700
N 	N 	0.11380 0.96000 0.47790 -0.24600
H 	H 	0.12990 0.97470 0.49730 0.15100
N 	N 	0.05510 0.96310 0.46790 -0.28600
C 	C 	0.13960 0.82290 0.33190 -0.21500
C 	C 	0.17570 0.86000 0.33800 0.14000
H 	H 	0.20840 0.86480 0.32140 -0.01800
C 	C 	0.04770 0.93520 0.43710 0.32400
C 	C 	0.16360 0.89010 0.36860 -0.27500
H 	H 	0.18860 0.91470 0.37250 0.11100
C 	C 	0.10190 0.91500 0.42650 -0.33100
C 	C 	0.11430 0.88370 0.39360 0.25000
C 	C 	0.14380 0.93150 0.45440 0.37300
C 	C 	0.07760 0.84730 0.38620 -0.28200
H 	H 	0.04420 0.84280 0.40230 0.11000
C 	C 	0.08910 0.81760 0.35570 0.15500
H 	H 	0.06300 0.79390 0.35090 -0.03100
C 	C 	0.15370 0.78890 0.30030 0.39000
C 	C 	0.98770 0.92970 0.41760 -0.83600
H 	H 	0.98270 0.89910 0.40930 0.28500
H 	H 	0.98510 0.94920 0.39480 0.27000
H 	H 	0.95680 0.93740 0.43650 0.24800
C 	C 	0.20810 0.92070 0.46040 -0.89900
H 	H 	0.23200 0.93930 0.44320 0.27900
H 	H 	0.21500 0.88970 0.45410 0.28700
H 	H 	0.21890 0.92630 0.48780 0.28400
O 	O 	0.54390 0.54120 0.53530 -0.49500
O 	O 	0.63520 0.51150 0.54030 -0.33500
N 	N 	0.63620 0.71000 0.72790 -0.24500
H 	H 	0.62010 0.72470 0.74730 0.14400
N 	N 	0.69490 0.71310 0.71790 -0.29200
C 	C 	0.61040 0.57290 0.58190 -0.21700
C 	C 	0.57430 0.61000 0.58800 0.14300
H 	H 	0.54160 0.61480 0.57140 -0.02000
C 	C 	0.70230 0.68520 0.68710 0.34900
C 	C 	0.58640 0.64010 0.61860 -0.27900
H 	H 	0.56140 0.66470 0.62250 0.11100
C 	C 	0.64810 0.66500 0.67650 -0.34000
C 	C 	0.63570 0.63370 0.64360 0.25700
C 	C 	0.60620 0.68150 0.70440 0.37200
C 	C 	0.67240 0.59730 0.63620 -0.28600
H 	H 	0.70580 0.59280 0.65230 0.11700
C 	C 	0.66090 0.56760 0.60570 0.16000
H 	H 	0.68700 0.54390 0.60090 -0.02900
C 	C 	0.59630 0.53890 0.55030 0.39100
C 	C 	0.76230 0.67970 0.66760 -0.88000
H 	H 	0.76730 0.64910 0.65930 0.29200
H 	H 	0.76490 0.69920 0.64480 0.27200
H 	H 	0.79320 0.68740 0.68650 0.25400
C 	C 	0.54190 0.67070 0.71040 -0.89800
H 	H 	0.51800 0.68930 0.69320 0.27700
H 	H 	0.53500 0.63970 0.70410 0.28600
H 	H 	0.53110 0.67630 0.73780 0.28400
O 	O 	0.54390 0.04120 0.03530 -0.50400
O 	O 	0.63520 0.01150 0.04030 -0.35400
N 	N 	0.63620 0.21000 0.22790 -0.24500
H 	H 	0.62010 0.22470 0.24730 0.14400
N 	N 	0.69490 0.21310 0.21790 -0.29200
C 	C 	0.61040 0.07290 0.08190 -0.22400
C 	C 	0.57430 0.11000 0.08800 0.14700
H 	H 	0.54160 0.11480 0.07140 -0.02200
C 	C 	0.70230 0.18520 0.18710 0.34900
C 	C 	0.58640 0.14010 0.11860 -0.28300
H 	H 	0.56140 0.16470 0.12250 0.11200
C 	C 	0.64810 0.16500 0.17650 -0.34100
C 	C 	0.63570 0.13370 0.14360 0.26000
C 	C 	0.60620 0.18150 0.20440 0.37300
C 	C 	0.67240 0.09730 0.13620 -0.29100
H 	H 	0.70580 0.09280 0.15230 0.11800
C 	C 	0.66090 0.06760 0.10570 0.16400
H 	H 	0.68700 0.04390 0.10090 -0.03500
C 	C 	0.59630 0.03890 0.05030 0.39400
C 	C 	0.76230 0.17970 0.16760 -0.87900
H 	H 	0.76730 0.14910 0.15930 0.29100
H 	H 	0.76490 0.19920 0.14480 0.27100
H 	H 	0.79320 0.18740 0.18650 0.25400
C 	C 	0.54190 0.17070 0.21040 -0.89800
H 	H 	0.51800 0.18930 0.19320 0.27700
H 	H 	0.53500 0.13970 0.20410 0.28600
H 	H 	0.53110 0.17630 0.23780 0.28400
O 	O 	0.04390 0.54120 0.03530 -0.50800
O 	O 	0.13520 0.51150 0.04030 -0.34100
N 	N 	0.13620 0.71000 0.22790 -0.24300
H 	H 	0.12010 0.72470 0.24730 0.14300
N 	N 	0.19490 0.71310 0.21790 -0.29200
C 	C 	0.11040 0.57290 0.08190 -0.22200
C 	C 	0.07430 0.61000 0.08800 0.14300
H 	H 	0.04160 0.61480 0.07140 -0.02700
C 	C 	0.20230 0.68520 0.18710 0.34600
C 	C 	0.08640 0.64010 0.11860 -0.28200
H 	H 	0.06140 0.66470 0.12250 0.10800
C 	C 	0.14810 0.66500 0.17650 -0.33700
C 	C 	0.13570 0.63370 0.14360 0.25600
C 	C 	0.10620 0.68150 0.20440 0.36300
C 	C 	0.17240 0.59730 0.13620 -0.28700
H 	H 	0.20580 0.59280 0.15230 0.11700
C 	C 	0.16090 0.56760 0.10570 0.16100
H 	H 	0.18700 0.54390 0.10090 -0.03000
C 	C 	0.09630 0.53890 0.05030 0.39300
C 	C 	0.26230 0.67970 0.16760 -0.87400
H 	H 	0.26730 0.64910 0.15930 0.28900
H 	H 	0.26490 0.69920 0.14480 0.26900
H 	H 	0.29320 0.68740 0.18650 0.25100
C 	C 	0.04190 0.67070 0.21040 -0.87300
H 	H 	0.01800 0.68930 0.19320 0.26300
H 	H 	0.03500 0.63970 0.20410 0.27400
H 	H 	0.03110 0.67630 0.23780 0.27300
O 	O 	0.04390 0.04120 0.53530 -0.50900
O 	O 	0.13520 0.01150 0.54030 -0.35000
N 	N 	0.13620 0.21000 0.72790 -0.24300
H 	H 	0.12010 0.22470 0.74730 0.14300
N 	N 	0.19490 0.21310 0.71790 -0.29200
C 	C 	0.11040 0.07290 0.58190 -0.22600
C 	C 	0.07430 0.11000 0.58800 0.14600
H 	H 	0.04160 0.11480 0.57140 -0.02700
C 	C 	0.20230 0.18520 0.68710 0.34600
C 	C 	0.08640 0.14010 0.61860 -0.28400
H 	H 	0.06140 0.16470 0.62250 0.10900
C 	C 	0.14810 0.16500 0.67650 -0.33800
C 	C 	0.13570 0.13370 0.64360 0.25800
C 	C 	0.10620 0.18150 0.70440 0.36400
C 	C 	0.17240 0.09730 0.63620 -0.29100
H 	H 	0.20580 0.09280 0.65230 0.11800
C 	C 	0.16090 0.06760 0.60570 0.16400
H 	H 	0.18700 0.04390 0.60090 -0.03600
C 	C 	0.09630 0.03890 0.55030 0.39400
C 	C 	0.26230 0.17970 0.66760 -0.87500
H 	H 	0.26730 0.14910 0.65930 0.28900
H 	H 	0.26490 0.19920 0.64480 0.27000
H 	H 	0.29320 0.18740 0.68650 0.25200
C 	C 	0.04190 0.17070 0.71040 -0.87300
H 	H 	0.01800 0.18930 0.69320 0.26300
H 	H 	0.03500 0.13970 0.70410 0.27300
H 	H 	0.03110 0.17630 0.73780 0.27300
O 	O 	0.95610 0.95880 0.53530 -0.47500
O 	O 	0.86480 0.98850 0.54030 -0.32000
N 	N 	0.86380 0.79000 0.72790 -0.24700
H 	H 	0.87990 0.77530 0.74730 0.14600
N 	N 	0.80510 0.78690 0.71790 -0.29200
C 	C 	0.88960 0.92710 0.58190 -0.20600
C 	C 	0.92570 0.89000 0.58800 0.14000
H 	H 	0.95840 0.88520 0.57140 -0.01100
C 	C 	0.79770 0.81480 0.68710 0.34900
C 	C 	0.91360 0.85990 0.61860 -0.27300
H 	H 	0.93860 0.83530 0.62250 0.11300
C 	C 	0.85190 0.83500 0.67650 -0.34200
C 	C 	0.86430 0.86630 0.64360 0.25600
C 	C 	0.89380 0.81850 0.70440 0.38100
C 	C 	0.82760 0.90270 0.63620 -0.28000
H 	H 	0.79420 0.90720 0.65230 0.11600
C 	C 	0.83910 0.93240 0.60570 0.15500
H 	H 	0.81300 0.95610 0.60090 -0.02200
C 	C 	0.90370 0.96110 0.55030 0.38700
C 	C 	0.73770 0.82030 0.66760 -0.87800
H 	H 	0.73270 0.85090 0.65930 0.29100
H 	H 	0.73510 0.80080 0.64480 0.27100
H 	H 	0.70680 0.81260 0.68650 0.25300
C 	C 	0.95810 0.82930 0.71040 -0.92200
H 	H 	0.98200 0.81070 0.69320 0.29000
H 	H 	0.96500 0.86030 0.70410 0.29900
H 	H 	0.96890 0.82370 0.73780 0.29500
O 	O 	0.95610 0.45880 0.03530 -0.48700
O 	O 	0.86480 0.48850 0.04030 -0.33800
N 	N 	0.86380 0.29000 0.22790 -0.24700
H 	H 	0.87990 0.27530 0.24730 0.14600
N 	N 	0.80510 0.28690 0.21790 -0.29200
C 	C 	0.88960 0.42710 0.08190 -0.21400
C 	C 	0.92570 0.39000 0.08800 0.14400
H 	H 	0.95840 0.38520 0.07140 -0.01300
C 	C 	0.79770 0.31480 0.18710 0.34900
C 	C 	0.91360 0.35990 0.11860 -0.27700
H 	H 	0.93860 0.33530 0.12250 0.11400
C 	C 	0.85190 0.33500 0.17650 -0.34300
C 	C 	0.86430 0.36630 0.14360 0.25900
C 	C 	0.89380 0.31850 0.20440 0.38200
C 	C 	0.82760 0.40270 0.13620 -0.28500
H 	H 	0.79420 0.40720 0.15230 0.11700
C 	C 	0.83910 0.43240 0.10570 0.15900
H 	H 	0.81300 0.45610 0.10090 -0.02900
C 	C 	0.90370 0.46110 0.05030 0.39000
C 	C 	0.73770 0.32030 0.16760 -0.87700
H 	H 	0.73270 0.35090 0.15930 0.29000
H 	H 	0.73510 0.30080 0.14480 0.27100
H 	H 	0.70680 0.31260 0.18650 0.25200
C 	C 	0.95810 0.32930 0.21040 -0.92300
H 	H 	0.98200 0.31070 0.19320 0.29100
H 	H 	0.96500 0.36030 0.20410 0.30000
H 	H 	0.96890 0.32370 0.23780 0.29500
O 	O 	0.45610 0.95880 0.03530 -0.49000
O 	O 	0.36480 0.98850 0.04030 -0.32600
N 	N 	0.36380 0.79000 0.22790 -0.24500
H 	H 	0.37990 0.77530 0.24730 0.14400
N 	N 	0.30510 0.78690 0.21790 -0.29200
C 	C 	0.38960 0.92710 0.08190 -0.21200
C 	C 	0.42570 0.89000 0.08800 0.14000
H 	H 	0.45840 0.88520 0.07140 -0.01900
C 	C 	0.29770 0.81480 0.18710 0.34600
C 	C 	0.41360 0.85990 0.11860 -0.27600
H 	H 	0.43860 0.83530 0.12250 0.11000
C 	C 	0.35190 0.83500 0.17650 -0.33800
C 	C 	0.36430 0.86630 0.14360 0.25500
C 	C 	0.39380 0.81850 0.20440 0.37200
C 	C 	0.32760 0.90270 0.13620 -0.28100
H 	H 	0.29420 0.90720 0.15230 0.11700
C 	C 	0.33910 0.93240 0.10570 0.15700
H 	H 	0.31300 0.95610 0.10090 -0.02300
C 	C 	0.40370 0.96110 0.05030 0.38900
C 	C 	0.23770 0.82030 0.16760 -0.87300
H 	H 	0.23270 0.85090 0.15930 0.28800
H 	H 	0.23510 0.80080 0.14480 0.26900
H 	H 	0.20680 0.81260 0.18650 0.25000
C 	C 	0.45810 0.82930 0.21040 -0.89700
H 	H 	0.48200 0.81070 0.19320 0.27700
H 	H 	0.46500 0.86030 0.20410 0.28600
H 	H 	0.46890 0.82370 0.23780 0.28300
O 	O 	0.45610 0.45880 0.53530 -0.49500
O 	O 	0.36480 0.48850 0.54030 -0.33500
N 	N 	0.36380 0.29000 0.72790 -0.24500
H 	H 	0.37990 0.27530 0.74730 0.14400
N 	N 	0.30510 0.28690 0.71790 -0.29200
C 	C 	0.38960 0.42710 0.58190 -0.21600
C 	C 	0.42570 0.39000 0.58800 0.14300
H 	H 	0.45840 0.38520 0.57140 -0.01900
C 	C 	0.29770 0.31480 0.68710 0.34700
C 	C 	0.41360 0.35990 0.61860 -0.27900
H 	H 	0.43860 0.33530 0.62250 0.11100
C 	C 	0.35190 0.33500 0.67650 -0.33900
C 	C 	0.36430 0.36630 0.64360 0.25700
C 	C 	0.39380 0.31850 0.70440 0.37200
C 	C 	0.32760 0.40270 0.63620 -0.28500
H 	H 	0.29420 0.40720 0.65230 0.11700
C 	C 	0.33910 0.43240 0.60570 0.16000
H 	H 	0.31300 0.45610 0.60090 -0.02900
C 	C 	0.40370 0.46110 0.55030 0.39100
C 	C 	0.23770 0.32030 0.66760 -0.87400
H 	H 	0.23270 0.35090 0.65930 0.28900
H 	H 	0.23510 0.30080 0.64480 0.27000
H 	H 	0.20680 0.31260 0.68650 0.25000
C 	C 	0.45810 0.32930 0.71040 -0.89700
H 	H 	0.48200 0.31070 0.69320 0.27700
H 	H 	0.46500 0.36030 0.70410 0.28600
H 	H 	0.46890 0.32370 0.73780 0.28300
Zn	Zn	0.50000 0.50000 0.50050 1.20700
Zn	Zn	0.50000 0.00000 0.00050 1.19700
Zn	Zn	-0.00000 0.50000 0.00050 1.19700
Zn	Zn	0.00000 0.00000 0.50050 1.19400
Zn	Zn	0.75000 0.75000 0.75050 1.20700
Zn	Zn	0.75000 0.25000 0.25050 1.20700
Zn	Zn	0.25000 0.75000 0.25050 1.20700
Zn	Zn	0.25000 0.25000 0.75050 1.20700
Zn	Zn	0.75206 0.50489 0.68707 1.20700
O 	O 	0.94960 0.29000 0.90002 -0.47800
O 	O 	0.62440 0.26510 0.48150 -0.32900
O 	O 	0.86740 0.24880 0.88610 -0.31900
O 	O 	0.53490 0.29820 0.47273 -0.48700
N 	N 	0.85460 0.44670 0.69870 -0.24700
H 	H 	0.86790 0.45670 0.67620 0.14100
N 	N 	0.63510 0.46760 0.66570 -0.24900
H 	H 	0.62030 0.48090 0.68630 0.14300
N 	N 	0.80430 0.46170 0.71670 -0.29100
N 	N 	0.69380 0.47080 0.65390 -0.29600
C 	C 	0.88610 0.31480 0.84870 -0.19900
C 	C 	0.60180 0.33080 0.51880 -0.18600
C 	C 	0.92890 0.34590 0.83530 0.12500
H 	H 	0.96680 0.34610 0.84680 -0.01100
C 	C 	0.56540 0.36720 0.52630 0.13900
H 	H 	0.53080 0.37060 0.51110 -0.01100
C 	C 	0.79830 0.43730 0.75030 0.36000
C 	C 	0.69880 0.44540 0.62140 0.37000
C 	C 	0.91550 0.37610 0.80540 -0.26800
H 	H 	0.94390 0.39710 0.79760 0.11400
C 	C 	0.57820 0.39860 0.55520 -0.25400
H 	H 	0.55260 0.42280 0.55910 0.11400
C 	C 	0.84550 0.40750 0.75320 -0.35300
C 	C 	0.64230 0.42530 0.61110 -0.34800
C 	C 	0.85970 0.37550 0.78660 0.22900
C 	C 	0.63040 0.39410 0.57930 0.24200
C 	C 	0.88120 0.41440 0.71990 0.37400
C 	C 	0.60350 0.44090 0.64100 0.38100
C 	C 	0.81730 0.34440 0.79960 -0.26500
H 	H 	0.77980 0.34360 0.78750 0.11200
C 	C 	0.66770 0.35790 0.57140 -0.26000
H 	H 	0.70270 0.35480 0.58620 0.10300
C 	C 	0.83050 0.31470 0.83030 0.12700
H 	H 	0.80150 0.29440 0.83880 -0.01000
C 	C 	0.65470 0.32600 0.54220 0.11500
H 	H 	0.68030 0.30180 0.53800 -0.00200
C 	C 	0.90110 0.28210 0.88060 0.36200
C 	C 	0.58650 0.29560 0.48880 0.36000
C 	C 	0.74660 0.44400 0.77810 -0.92900
H 	H 	0.76120 0.45270 0.80400 0.30000
H 	H 	0.72450 0.41650 0.78040 0.30100
H 	H 	0.72100 0.46720 0.76780 0.28100
C 	C 	0.75570 0.44330 0.59920 -0.95500
H 	H 	0.78270 0.42330 0.61260 0.29700
H 	H 	0.77310 0.47280 0.59790 0.29800
H 	H 	0.74830 0.43260 0.57250 0.30600
C 	C 	0.93710 0.39130 0.70490 -0.91800
H 	H 	0.96840 0.41310 0.70140 0.29900
H 	H 	0.92890 0.37710 0.67970 0.30700
H 	H 	0.94960 0.36910 0.72400 0.29200
C 	C 	0.53900 0.43210 0.64790 -0.93100
H 	H 	0.51590 0.44570 0.62690 0.30200
H 	H 	0.52730 0.44470 0.67320 0.29500
H 	H 	0.53200 0.40030 0.64810 0.29400
Zn	Zn	0.75206 0.00489 0.18707 1.20100
O 	O 	0.94960 0.79000 0.40002 -0.47900
O 	O 	0.62440 0.76510 0.98150 -0.32800
O 	O 	0.86740 0.74880 0.38610 -0.32000
O 	O 	0.53490 0.79820 0.97273 -0.48600
N 	N 	0.85460 0.94670 0.19870 -0.24700
H 	H 	0.86790 0.95670 0.17620 0.14300
N 	N 	0.63510 0.96760 0.16570 -0.25100
H 	H 	0.62030 0.98090 0.18630 0.15100
N 	N 	0.80430 0.96170 0.21670 -0.28700
N 	N 	0.69380 0.97080 0.15390 -0.29100
C 	C 	0.88610 0.81480 0.34870 -0.20000
C 	C 	0.60180 0.83080 0.01880 -0.21000
C 	C 	0.92890 0.84590 0.33530 0.12800
H 	H 	0.96680 0.84610 0.34680 -0.01100
C 	C 	0.56540 0.86720 0.02630 0.15400
H 	H 	0.53080 0.87060 0.01110 -0.02000
C 	C 	0.79830 0.93730 0.25030 0.36800
C 	C 	0.69880 0.94540 0.12140 0.37800
C 	C 	0.91550 0.87610 0.30540 -0.27000
H 	H 	0.94390 0.89710 0.29760 0.11600
C 	C 	0.57820 0.89860 0.05520 -0.26800
H 	H 	0.55260 0.92280 0.05910 0.12000
C 	C 	0.84550 0.90750 0.25320 -0.35700
C 	C 	0.64230 0.92530 0.11110 -0.35400
C 	C 	0.85970 0.87550 0.28660 0.23200
C 	C 	0.63040 0.89410 0.07930 0.25300
C 	C 	0.88120 0.91440 0.21990 0.37900
C 	C 	0.60350 0.94090 0.14100 0.39100
C 	C 	0.81730 0.84440 0.29960 -0.26700
H 	H 	0.77980 0.84360 0.28750 0.11300
C 	C 	0.66770 0.85790 0.07140 -0.27300
H 	H 	0.70270 0.85480 0.08620 0.10700
C 	C 	0.83050 0.81470 0.33030 0.12900
H 	H 	0.80150 0.79440 0.33880 -0.01100
C 	C 	0.65470 0.82600 0.04220 0.12800
H 	H 	0.68030 0.80180 0.03800 -0.01000
C 	C 	0.90110 0.78210 0.38060 0.36300
C 	C 	0.58650 0.79560 0.98880 0.37700
C 	C 	0.74660 0.94400 0.27810 -0.94600
H 	H 	0.76120 0.95270 0.30400 0.30800
H 	H 	0.72450 0.91650 0.28040 0.30700
H 	H 	0.72100 0.96720 0.26780 0.29200
C 	C 	0.75570 0.94330 0.09920 -0.96500
H 	H 	0.78270 0.92330 0.11260 0.30000
H 	H 	0.77310 0.97280 0.09790 0.30600
H 	H 	0.74830 0.93260 0.07250 0.30900
C 	C 	0.93710 0.89130 0.20490 -0.92500
H 	H 	0.96840 0.91310 0.20140 0.30400
H 	H 	0.92890 0.87710 0.17970 0.31000
H 	H 	0.94960 0.86910 0.22400 0.29400
C 	C 	0.53900 0.93210 0.14790 -0.94800
H 	H 	0.51590 0.94570 0.12690 0.31000
H 	H 	0.52730 0.94470 0.17320 0.30400
H 	H 	0.53200 0.90030 0.14810 0.29900
Zn	Zn	0.25206 0.50489 0.18707 1.20700
O 	O 	0.44960 0.29000 0.40002 -0.48800
O 	O 	0.12440 0.26510 0.98150 -0.33100
O 	O 	0.36740 0.24880 0.38610 -0.32100
O 	O 	0.03490 0.29820 0.97273 -0.49600
N 	N 	0.35460 0.44670 0.19870 -0.24500
H 	H 	0.36790 0.45670 0.17620 0.14000
N 	N 	0.13510 0.46760 0.16570 -0.24700
H 	H 	0.12030 0.48090 0.18630 0.14100
N 	N 	0.30430 0.46170 0.21670 -0.29100
N 	N 	0.19380 0.47080 0.15390 -0.29600
C 	C 	0.38610 0.31480 0.34870 -0.20200
C 	C 	0.10180 0.33080 0.01880 -0.21000
C 	C 	0.42890 0.34590 0.33530 0.12600
H 	H 	0.46680 0.34610 0.34680 -0.01700
C 	C 	0.06540 0.36720 0.02630 0.15000
H 	H 	0.03080 0.37060 0.01110 -0.02400
C 	C 	0.29830 0.43730 0.25030 0.35800
C 	C 	0.19880 0.44540 0.12140 0.37000
C 	C 	0.41550 0.37610 0.30540 -0.26900
H 	H 	0.44390 0.39710 0.29760 0.11000
C 	C 	0.07820 0.39860 0.05520 -0.26600
H 	H 	0.05260 0.42280 0.05910 0.11200
C 	C 	0.34550 0.40750 0.25320 -0.35100
C 	C 	0.14230 0.42530 0.11110 -0.34600
C 	C 	0.35970 0.37550 0.28660 0.22800
C 	C 	0.13040 0.39410 0.07930 0.24600
C 	C 	0.38120 0.41440 0.21990 0.36700
C 	C 	0.10350 0.44090 0.14100 0.37000
C 	C 	0.31730 0.34440 0.29960 -0.26500
H 	H 	0.27980 0.34360 0.28750 0.11200
C 	C 	0.16770 0.35790 0.07140 -0.26900
H 	H 	0.20270 0.35480 0.08620 0.10600
C 	C 	0.33050 0.31470 0.33030 0.12800
H 	H 	0.30150 0.29440 0.33880 -0.01100
C 	C 	0.15470 0.32600 0.04220 0.12500
H 	H 	0.18030 0.30180 0.03800 -0.00900
C 	C 	0.40110 0.28210 0.38060 0.36200
C 	C 	0.08650 0.29560 0.98880 0.37700
C 	C 	0.24660 0.44400 0.27810 -0.92700
H 	H 	0.26120 0.45270 0.30400 0.29800
H 	H 	0.22450 0.41650 0.28040 0.30100
H 	H 	0.22100 0.46720 0.26780 0.28000
C 	C 	0.25570 0.44330 0.09920 -0.95500
H 	H 	0.28270 0.42330 0.11260 0.29700
H 	H 	0.27310 0.47280 0.09790 0.29800
H 	H 	0.24830 0.43260 0.07250 0.30600
C 	C 	0.43710 0.39130 0.20490 -0.90000
H 	H 	0.46840 0.41310 0.20140 0.28900
H 	H 	0.42890 0.37710 0.17970 0.29900
H 	H 	0.44960 0.36910 0.22400 0.28300
C 	C 	0.03900 0.43210 0.14790 -0.90000
H 	H 	0.01590 0.44570 0.12690 0.28600
H 	H 	0.02730 0.44470 0.17320 0.28000
H 	H 	0.03200 0.40030 0.14810 0.27800
Zn	Zn	0.25206 0.00489 0.68707 1.20000
O 	O 	0.44960 0.79000 0.90002 -0.48700
O 	O 	0.12440 0.76510 0.48150 -0.33200
O 	O 	0.36740 0.74880 0.88610 -0.32100
O 	O 	0.03490 0.79820 0.47273 -0.49700
N 	N 	0.35460 0.94670 0.69870 -0.24500
H 	H 	0.36790 0.95670 0.67620 0.14200
N 	N 	0.13510 0.96760 0.66570 -0.24800
H 	H 	0.12030 0.98090 0.68630 0.14900
N 	N 	0.30430 0.96170 0.71670 -0.28700
N 	N 	0.19380 0.97080 0.65390 -0.29000
C 	C 	0.38610 0.81480 0.84870 -0.20300
C 	C 	0.10180 0.83080 0.51880 -0.19000
C 	C 	0.42890 0.84590 0.83530 0.12800
H 	H 	0.46680 0.84610 0.84680 -0.01800
C 	C 	0.06540 0.86720 0.52630 0.13900
H 	H 	0.03080 0.87060 0.51110 -0.01600
C 	C 	0.29830 0.93730 0.75030 0.36600
C 	C 	0.19880 0.94540 0.62140 0.37500
C 	C 	0.41550 0.87610 0.80540 -0.27100
H 	H 	0.44390 0.89710 0.79760 0.11300
C 	C 	0.07820 0.89860 0.55520 -0.25700
H 	H 	0.05260 0.92280 0.55910 0.11300
C 	C 	0.34550 0.90750 0.75320 -0.35500
C 	C 	0.14230 0.92530 0.61110 -0.34600
C 	C 	0.35970 0.87550 0.78660 0.23100
C 	C 	0.13040 0.89410 0.57930 0.24300
C 	C 	0.38120 0.91440 0.71990 0.37200
C 	C 	0.10350 0.94090 0.64100 0.37700
C 	C 	0.31730 0.84440 0.79960 -0.26700
H 	H 	0.27980 0.84360 0.78750 0.11300
C 	C 	0.16770 0.85790 0.57140 -0.26200
H 	H 	0.20270 0.85480 0.58620 0.10400
C 	C 	0.33050 0.81470 0.83030 0.13000
H 	H 	0.30150 0.79440 0.83880 -0.01100
C 	C 	0.15470 0.82600 0.54220 0.11600
H 	H 	0.18030 0.80180 0.53800 -0.00300
C 	C 	0.40110 0.78210 0.88060 0.36200
C 	C 	0.08650 0.79560 0.48880 0.36100
C 	C 	0.24660 0.94400 0.77810 -0.94500
H 	H 	0.26120 0.95270 0.80400 0.30800
H 	H 	0.22450 0.91650 0.78040 0.30700
H 	H 	0.22100 0.96720 0.76780 0.29200
C 	C 	0.25570 0.94330 0.59920 -0.96300
H 	H 	0.28270 0.92330 0.61260 0.30000
H 	H 	0.27310 0.97280 0.59790 0.30500
H 	H 	0.24830 0.93260 0.57250 0.30900
C 	C 	0.43710 0.89130 0.70490 -0.90700
H 	H 	0.46840 0.91310 0.70140 0.29300
H 	H 	0.42890 0.87710 0.67970 0.30200
H 	H 	0.44960 0.86910 0.72400 0.28600
C 	C 	0.03900 0.93210 0.64790 -0.91300
H 	H 	0.01590 0.94570 0.62690 0.29300
H 	H 	0.02730 0.94470 0.67320 0.28700
H 	H 	0.03200 0.90030 0.64810 0.28200
Zn	Zn	0.49794 0.75489 0.93707 1.20800
O 	O 	0.30040 0.54000 0.15002 -0.48800
O 	O 	0.62560 0.51510 0.73150 -0.32900
O 	O 	0.38260 0.49880 0.13610 -0.32100
O 	O 	0.71510 0.54820 0.72273 -0.48600
N 	N 	0.39540 0.69670 0.94870 -0.24900
H 	H 	0.38210 0.70670 0.92620 0.14100
N 	N 	0.61490 0.71760 0.91570 -0.24900
H 	H 	0.62970 0.73090 0.93630 0.14400
N 	N 	0.44570 0.71170 0.96670 -0.28300
N 	N 	0.55620 0.72080 0.90390 -0.29500
C 	C 	0.36390 0.56480 0.09870 -0.20300
C 	C 	0.64820 0.58080 0.76880 -0.18600
C 	C 	0.32110 0.59590 0.08530 0.12800
H 	H 	0.28320 0.59610 0.09680 -0.01900
C 	C 	0.68460 0.61720 0.77630 0.13900
H 	H 	0.71920 0.62060 0.76110 -0.01000
C 	C 	0.45170 0.68730 0.00030 0.34600
C 	C 	0.55120 0.69540 0.87140 0.37100
C 	C 	0.33450 0.62610 0.05540 -0.27200
H 	H 	0.30610 0.64710 0.04760 0.10800
C 	C 	0.67180 0.64860 0.80520 -0.25400
H 	H 	0.69740 0.67280 0.80910 0.11400
C 	C 	0.40450 0.65750 0.00320 -0.36600
C 	C 	0.60770 0.67530 0.86110 -0.34800
C 	C 	0.39030 0.62550 0.03660 0.23100
C 	C 	0.61960 0.64410 0.82930 0.24200
C 	C 	0.36880 0.66440 0.96990 0.38900
C 	C 	0.64650 0.69090 0.89100 0.38200
C 	C 	0.43270 0.59440 0.04960 -0.26700
H 	H 	0.47020 0.59360 0.03750 0.11100
C 	C 	0.58230 0.60790 0.82140 -0.26000
H 	H 	0.54730 0.60480 0.83620 0.10400
C 	C 	0.41950 0.56470 0.08030 0.13000
H 	H 	0.44850 0.54440 0.08880 -0.01100
C 	C 	0.59530 0.57600 0.79220 0.11500
H 	H 	0.56970 0.55180 0.78800 -0.00200
C 	C 	0.34890 0.53210 0.13060 0.36200
C 	C 	0.66350 0.54560 0.73880 0.36000
C 	C 	0.50340 0.69400 0.02810 -0.91300
H 	H 	0.48880 0.70270 0.05400 0.29300
H 	H 	0.52550 0.66650 0.03040 0.29500
H 	H 	0.52900 0.71720 0.01780 0.27200
C 	C 	0.49430 0.69330 0.84920 -0.95600
H 	H 	0.46730 0.67330 0.86260 0.29700
H 	H 	0.47690 0.72280 0.84790 0.29800
H 	H 	0.50170 0.68260 0.82250 0.30700
C 	C 	0.31290 0.64130 0.95490 -0.92700
H 	H 	0.28160 0.66310 0.95140 0.29800
H 	H 	0.32110 0.62710 0.92970 0.30800
H 	H 	0.30040 0.61910 0.97400 0.29600
C 	C 	0.71100 0.68210 0.89790 -0.93400
H 	H 	0.73410 0.69570 0.87690 0.30300
H 	H 	0.72270 0.69470 0.92320 0.29700
H 	H 	0.71800 0.65030 0.89810 0.29400
Zn	Zn	0.49794 0.25489 0.43707 1.20700
O 	O 	0.30040 0.04000 0.65002 -0.48700
O 	O 	0.62560 0.01510 0.23150 -0.34200
O 	O 	0.38260 0.99880 0.63610 -0.29900
O 	O 	0.71510 0.04820 0.22273 -0.49200
N 	N 	0.39540 0.19670 0.44870 -0.24500
H 	H 	0.38210 0.20670 0.42620 0.14000
N 	N 	0.61490 0.21760 0.41570 -0.24900
H 	H 	0.62970 0.23090 0.43630 0.14300
N 	N 	0.44570 0.21170 0.46670 -0.29100
N 	N 	0.55620 0.22080 0.40390 -0.29600
C 	C 	0.36390 0.06480 0.59870 -0.19500
C 	C 	0.64820 0.08080 0.26880 -0.19000
C 	C 	0.32110 0.09590 0.58530 0.11700
H 	H 	0.28320 0.09610 0.59680 -0.01500
C 	C 	0.68460 0.11720 0.27630 0.14100
H 	H 	0.71920 0.12060 0.26110 -0.01200
C 	C 	0.45170 0.18730 0.50030 0.35700
C 	C 	0.55120 0.19540 0.37140 0.37100
C 	C 	0.33450 0.12610 0.55540 -0.26400
H 	H 	0.30610 0.14710 0.54760 0.10800
C 	C 	0.67180 0.14860 0.30520 -0.25600
H 	H 	0.69740 0.17280 0.30910 0.11500
C 	C 	0.40450 0.15750 0.50320 -0.34800
C 	C 	0.60770 0.17530 0.36110 -0.34800
C 	C 	0.39030 0.12550 0.53660 0.22200
C 	C 	0.61960 0.14410 0.32930 0.24400
C 	C 	0.36880 0.16440 0.46990 0.36400
C 	C 	0.64650 0.19090 0.39100 0.38100
C 	C 	0.43270 0.09440 0.54960 -0.26200
H 	H 	0.47020 0.09360 0.53750 0.10900
C 	C 	0.58230 0.10790 0.32140 -0.26300
H 	H 	0.54730 0.10480 0.33620 0.10400
C 	C 	0.41950 0.06470 0.58030 0.11800
H 	H 	0.44850 0.04440 0.58880 -0.01300
C 	C 	0.59530 0.07600 0.29220 0.11700
H 	H 	0.56970 0.05180 0.28800 -0.00600
C 	C 	0.34890 0.03210 0.63060 0.33300
C 	C 	0.66350 0.04560 0.23880 0.36100
C 	C 	0.50340 0.19400 0.52810 -0.92500
H 	H 	0.48880 0.20270 0.55400 0.29800
H 	H 	0.52550 0.16650 0.53040 0.30000
H 	H 	0.52900 0.21720 0.51780 0.28000
C 	C 	0.49430 0.19330 0.34920 -0.95600
H 	H 	0.46730 0.17330 0.36260 0.29800
H 	H 	0.47690 0.22280 0.34790 0.29800
H 	H 	0.50170 0.18260 0.32250 0.30700
C 	C 	0.31290 0.14130 0.45490 -0.89100
H 	H 	0.28160 0.16310 0.45140 0.28500
H 	H 	0.32110 0.12710 0.42970 0.29500
H 	H 	0.30040 0.11910 0.47400 0.27800
C 	C 	0.71100 0.18210 0.39790 -0.93000
H 	H 	0.73410 0.19570 0.37690 0.30200
H 	H 	0.72270 0.19470 0.42320 0.29500
H 	H 	0.71800 0.15030 0.39810 0.29300
Zn	Zn	0.99794 0.75489 0.43707 1.21400
O 	O 	0.80040 0.54000 0.65002 -0.48700
O 	O 	0.12560 0.51510 0.23150 -0.33100
O 	O 	0.88260 0.49880 0.63610 -0.31900
O 	O 	0.21510 0.54820 0.22273 -0.48600
N 	N 	0.89540 0.69670 0.44870 -0.24800
H 	H 	0.88210 0.70670 0.42620 0.14200
N 	N 	0.11490 0.71760 0.41570 -0.24700
H 	H 	0.12970 0.73090 0.43630 0.14100
N 	N 	0.94570 0.71170 0.46670 -0.29900
N 	N 	0.05620 0.72080 0.40390 -0.28800
C 	C 	0.86390 0.56480 0.59870 -0.20700
C 	C 	0.14820 0.58080 0.26880 -0.18000
C 	C 	0.82110 0.59590 0.58530 0.13500
H 	H 	0.78320 0.59610 0.59680 -0.02000
C 	C 	0.18460 0.61720 0.27630 0.12900
H 	H 	0.21920 0.62060 0.26110 -0.00700
C 	C 	0.95170 0.68730 0.50030 0.42600
C 	C 	0.05120 0.69540 0.37140 0.29700
C 	C 	0.83450 0.62610 0.55540 -0.28100
H 	H 	0.80610 0.64710 0.54760 0.11500
C 	C 	0.17180 0.64860 0.30520 -0.24100
H 	H 	0.19740 0.67280 0.30910 0.10900
C 	C 	0.90450 0.65750 0.50320 -0.38300
C 	C 	0.10770 0.67530 0.36110 -0.31500
C 	C 	0.89030 0.62550 0.53660 0.24600
C 	C 	0.11960 0.64410 0.32930 0.22200
C 	C 	0.86880 0.66440 0.46990 0.38100
C 	C 	0.14650 0.69090 0.39100 0.36800
C 	C 	0.93270 0.59440 0.54960 -0.27700
H 	H 	0.97020 0.59360 0.53750 0.12200
C 	C 	0.08230 0.60790 0.32140 -0.24500
H 	H 	0.04730 0.60480 0.33620 0.09300
C 	C 	0.91950 0.56470 0.58030 0.13800
H 	H 	0.94850 0.54440 0.58880 -0.00900
C 	C 	0.09530 0.57600 0.29220 0.10400
H 	H 	0.06970 0.55180 0.28800 -0.00200
C 	C 	0.84890 0.53210 0.63060 0.36400
C 	C 	0.16350 0.54560 0.23880 0.35800
C 	C 	0.00340 0.69400 0.52810 -1.11000
H 	H 	0.98880 0.70270 0.55400 0.36600
H 	H 	0.02550 0.66650 0.53040 0.34800
H 	H 	0.02900 0.71720 0.51780 0.32900
C 	C 	0.99430 0.69330 0.34920 -0.76000
H 	H 	0.96730 0.67330 0.36260 0.24400
H 	H 	0.97690 0.72280 0.34790 0.24600
H 	H 	0.00170 0.68260 0.32250 0.23400
C 	C 	0.81290 0.64130 0.45490 -0.91500
H 	H 	0.78160 0.66310 0.45140 0.29300
H 	H 	0.82110 0.62710 0.42970 0.30400
H 	H 	0.80040 0.61910 0.47400 0.28800
C 	C 	0.21100 0.68210 0.39790 -0.91600
H 	H 	0.23410 0.69570 0.37690 0.29700
H 	H 	0.22270 0.69470 0.42320 0.29100
H 	H 	0.21800 0.65030 0.39810 0.28900
Zn	Zn	0.99794 0.25489 0.93707 1.21500
O 	O 	0.80040 0.04000 0.15002 -0.48700
O 	O 	0.12560 0.01510 0.73150 -0.34300
O 	O 	0.88260 0.99880 0.13610 -0.29700
O 	O 	0.21510 0.04820 0.72273 -0.49300
N 	N 	0.89540 0.19670 0.94870 -0.25000
H 	H 	0.88210 0.20670 0.92620 0.14300
N 	N 	0.11490 0.21760 0.91570 -0.24700
H 	H 	0.12970 0.23090 0.93630 0.14200
N 	N 	0.94570 0.21170 0.96670 -0.29100
N 	N 	0.05620 0.22080 0.90390 -0.28800
C 	C 	0.86390 0.06480 0.09870 -0.20100
C 	C 	0.14820 0.08080 0.76880 -0.18500
C 	C 	0.82110 0.09590 0.08530 0.12800
H 	H 	0.78320 0.09610 0.09680 -0.01900
C 	C 	0.18460 0.11720 0.77630 0.13200
H 	H 	0.21920 0.12060 0.76110 -0.00900
C 	C 	0.95170 0.18730 0.00030 0.41500
C 	C 	0.05120 0.19540 0.87140 0.29800
C 	C 	0.83450 0.12610 0.05540 -0.28000
H 	H 	0.80610 0.14710 0.04760 0.11200
C 	C 	0.17180 0.14860 0.80520 -0.24400
H 	H 	0.19740 0.17280 0.80910 0.11000
C 	C 	0.90450 0.15750 0.00320 -0.39700
C 	C 	0.10770 0.17530 0.86110 -0.31600
C 	C 	0.89030 0.12550 0.03660 0.24500
C 	C 	0.11960 0.14410 0.82930 0.22400
C 	C 	0.86880 0.16440 0.96990 0.40000
C 	C 	0.14650 0.19090 0.89100 0.36900
C 	C 	0.93270 0.09440 0.04960 -0.27600
H 	H 	0.97020 0.09360 0.03750 0.11800
C 	C 	0.08230 0.10790 0.82140 -0.24800
H 	H 	0.04730 0.10480 0.83620 0.09400
C 	C 	0.91950 0.06470 0.08030 0.13100
H 	H 	0.94850 0.04440 0.08880 -0.01200
C 	C 	0.09530 0.07600 0.79220 0.10700
H 	H 	0.06970 0.05180 0.78800 -0.00700
C 	C 	0.84890 0.03210 0.13060 0.33700
C 	C 	0.16350 0.04560 0.73880 0.35900
C 	C 	0.00340 0.19400 0.02810 -1.09800
H 	H 	0.98880 0.20270 0.05400 0.36300
H 	H 	0.02550 0.16650 0.03040 0.34300
H 	H 	0.02900 0.21720 0.01780 0.32100
C 	C 	0.99430 0.19330 0.84920 -0.75900
H 	H 	0.96730 0.17330 0.86260 0.24400
H 	H 	0.97690 0.22280 0.84790 0.24600
H 	H 	0.00170 0.18260 0.82250 0.23400
C 	C 	0.81290 0.14130 0.95490 -0.93500
H 	H 	0.78160 0.16310 0.95140 0.30000
H 	H 	0.82110 0.12710 0.92970 0.30900
H 	H 	0.80040 0.11910 0.97400 0.29600
C 	C 	0.21100 0.18210 0.89790 -0.91900
H 	H 	0.23410 0.19570 0.87690 0.29900
H 	H 	0.22270 0.19470 0.92320 0.29300
H 	H 	0.21800 0.15030 0.89810 0.29000
Zn	Zn	0.24794 0.49511 0.68707 1.20700
O 	O 	0.05040 0.71000 0.90002 -0.49500
O 	O 	0.37560 0.73490 0.48150 -0.32900
O 	O 	0.13260 0.75120 0.88610 -0.32300
O 	O 	0.46510 0.70180 0.47273 -0.48700
N 	N 	0.14540 0.55330 0.69870 -0.24400
H 	H 	0.13210 0.54330 0.67620 0.13800
N 	N 	0.36490 0.53240 0.66570 -0.24900
H 	H 	0.37970 0.51910 0.68630 0.14300
N 	N 	0.19570 0.53830 0.71670 -0.29100
N 	N 	0.30620 0.52920 0.65390 -0.29600
C 	C 	0.11390 0.68520 0.84870 -0.20400
C 	C 	0.39820 0.66920 0.51880 -0.18600
C 	C 	0.07110 0.65410 0.83530 0.12600
H 	H 	0.03320 0.65390 0.84680 -0.02400
C 	C 	0.43460 0.63280 0.52630 0.13900
H 	H 	0.46920 0.62940 0.51110 -0.01100
C 	C 	0.20170 0.56270 0.75030 0.35600
C 	C 	0.30120 0.55460 0.62140 0.37100
C 	C 	0.08450 0.62390 0.80540 -0.26900
H 	H 	0.05610 0.60290 0.79760 0.10700
C 	C 	0.42180 0.60140 0.55520 -0.25400
H 	H 	0.44740 0.57720 0.55910 0.11400
C 	C 	0.15450 0.59250 0.75320 -0.34800
C 	C 	0.35770 0.57470 0.61110 -0.34800
C 	C 	0.14030 0.62450 0.78660 0.22600
C 	C 	0.36960 0.60590 0.57930 0.24200
C 	C 	0.11880 0.58560 0.71990 0.36100
C 	C 	0.39650 0.55910 0.64100 0.38100
C 	C 	0.18270 0.65560 0.79960 -0.26500
H 	H 	0.22020 0.65640 0.78750 0.11200
C 	C 	0.33230 0.64210 0.57140 -0.26000
H 	H 	0.29730 0.64520 0.58620 0.10400
C 	C 	0.16950 0.68530 0.83030 0.12800
H 	H 	0.19850 0.70560 0.83880 -0.01100
C 	C 	0.34530 0.67400 0.54220 0.11500
H 	H 	0.31970 0.69820 0.53800 -0.00200
C 	C 	0.09890 0.71790 0.88060 0.36100
C 	C 	0.41350 0.70440 0.48880 0.36000
C 	C 	0.25340 0.55600 0.77810 -0.92400
H 	H 	0.23880 0.54730 0.80400 0.29700
H 	H 	0.27550 0.58350 0.78040 0.30000
H 	H 	0.27900 0.53280 0.76780 0.27900
C 	C 	0.24430 0.55670 0.59920 -0.95600
H 	H 	0.21730 0.57670 0.61260 0.29800
H 	H 	0.22690 0.52720 0.59790 0.29800
H 	H 	0.25170 0.56740 0.57250 0.30700
C 	C 	0.06290 0.60870 0.70490 -0.88200
H 	H 	0.03160 0.58690 0.70140 0.27800
H 	H 	0.07110 0.62290 0.67970 0.29100
H 	H 	0.05040 0.63090 0.72400 0.27500
C 	C 	0.46100 0.56790 0.64790 -0.93100
H 	H 	0.48410 0.55430 0.62690 0.30200
H 	H 	0.47270 0.55530 0.67320 0.29500
H 	H 	0.46800 0.59970 0.64810 0.29400
Zn	Zn	0.24794 0.99511 0.18707 1.21400
O 	O 	0.05040 0.21000 0.40002 -0.49600
O 	O 	0.37560 0.23490 0.98150 -0.32700
O 	O 	0.13260 0.25120 0.38610 -0.32300
O 	O 	0.46510 0.20180 0.97273 -0.48600
N 	N 	0.14540 0.05330 0.19870 -0.24400
H 	H 	0.13210 0.04330 0.17620 0.13600
N 	N 	0.36490 0.03240 0.16570 -0.24800
H 	H 	0.37970 0.01910 0.18630 0.13400
N 	N 	0.19570 0.03830 0.21670 -0.29500
N 	N 	0.30620 0.02920 0.15390 -0.30100
C 	C 	0.11390 0.18520 0.34870 -0.20400
C 	C 	0.39820 0.16920 0.01880 -0.20700
C 	C 	0.07110 0.15410 0.33530 0.12400
H 	H 	0.03320 0.15390 0.34680 -0.02300
C 	C 	0.43460 0.13280 0.02630 0.15000
H 	H 	0.46920 0.12940 0.01110 -0.01900
C 	C 	0.20170 0.06270 0.25030 0.34700
C 	C 	0.30120 0.05460 0.12140 0.36500
C 	C 	0.08450 0.12390 0.30540 -0.26700
H 	H 	0.05610 0.10290 0.29760 0.10400
C 	C 	0.42180 0.10140 0.05520 -0.26400
H 	H 	0.44740 0.07720 0.05910 0.11500
C 	C 	0.15450 0.09250 0.25320 -0.34400
C 	C 	0.35770 0.07470 0.11110 -0.34800
C 	C 	0.14030 0.12450 0.28660 0.22300
C 	C 	0.36960 0.10590 0.07930 0.24500
C 	C 	0.11880 0.08560 0.21990 0.35600
C 	C 	0.39650 0.05910 0.14100 0.37400
C 	C 	0.18270 0.15560 0.29960 -0.26300
H 	H 	0.22020 0.15640 0.28750 0.11100
C 	C 	0.33230 0.14210 0.07140 -0.26800
H 	H 	0.29730 0.14520 0.08620 0.10600
C 	C 	0.16950 0.18530 0.33030 0.12700
H 	H 	0.19850 0.20560 0.33880 -0.01000
C 	C 	0.34530 0.17400 0.04220 0.12500
H 	H 	0.31970 0.19820 0.03800 -0.00800
C 	C 	0.09890 0.21790 0.38060 0.36000
C 	C 	0.41350 0.20440 0.98880 0.37700
C 	C 	0.25340 0.05600 0.27810 -0.90600
H 	H 	0.23880 0.04730 0.30400 0.28800
H 	H 	0.27550 0.08350 0.28040 0.29400
H 	H 	0.27900 0.03280 0.26780 0.26800
C 	C 	0.24430 0.05670 0.09920 -0.94800
H 	H 	0.21730 0.07670 0.11260 0.29500
H 	H 	0.22690 0.02720 0.09790 0.29200
H 	H 	0.25170 0.06740 0.07250 0.30400
C 	C 	0.06290 0.10870 0.20490 -0.87600
H 	H 	0.03160 0.08690 0.20140 0.27400
H 	H 	0.07110 0.12290 0.17970 0.28900
H 	H 	0.05040 0.13090 0.22400 0.27300
C 	C 	0.46100 0.06790 0.14790 -0.91900
H 	H 	0.48410 0.05430 0.12690 0.29500
H 	H 	0.47270 0.05530 0.17320 0.28900
H 	H 	0.46800 0.09970 0.14810 0.29000
Zn	Zn	0.74794 0.49511 0.18707 1.20700
O 	O 	0.55040 0.71000 0.40002 -0.48800
O 	O 	0.87560 0.73490 0.98150 -0.32500
O 	O 	0.63260 0.75120 0.38610 -0.32100
O 	O 	0.96510 0.70180 0.97273 -0.47600
N 	N 	0.64540 0.55330 0.19870 -0.24500
H 	H 	0.63210 0.54330 0.17620 0.14000
N 	N 	0.86490 0.53240 0.16570 -0.25200
H 	H 	0.87970 0.51910 0.18630 0.14500
N 	N 	0.69570 0.53830 0.21670 -0.29100
N 	N 	0.80620 0.52920 0.15390 -0.29600
C 	C 	0.61390 0.68520 0.34870 -0.20200
C 	C 	0.89820 0.66920 0.01880 -0.20600
C 	C 	0.57110 0.65410 0.33530 0.12600
H 	H 	0.53320 0.65390 0.34680 -0.01700
C 	C 	0.93460 0.63280 0.02630 0.15400
H 	H 	0.96920 0.62940 0.01110 -0.01400
C 	C 	0.70170 0.56270 0.25030 0.35700
C 	C 	0.80120 0.55460 0.12140 0.37300
C 	C 	0.58450 0.62390 0.30540 -0.26800
H 	H 	0.55610 0.60290 0.29760 0.11000
C 	C 	0.92180 0.60140 0.05520 -0.26600
H 	H 	0.94740 0.57720 0.05910 0.12200
C 	C 	0.65450 0.59250 0.25320 -0.35100
C 	C 	0.85770 0.57470 0.11110 -0.35600
C 	C 	0.64030 0.62450 0.28660 0.22700
C 	C 	0.86960 0.60590 0.07930 0.25200
C 	C 	0.61880 0.58560 0.21990 0.36700
C 	C 	0.89650 0.55910 0.14100 0.39500
C 	C 	0.68270 0.65560 0.29960 -0.26500
H 	H 	0.72020 0.65640 0.28750 0.11200
C 	C 	0.83230 0.64210 0.07140 -0.27100
H 	H 	0.79730 0.64520 0.08620 0.10700
C 	C 	0.66950 0.68530 0.33030 0.12700
H 	H 	0.69850 0.70560 0.33880 -0.01100
C 	C 	0.84530 0.67400 0.04220 0.12800
H 	H 	0.81970 0.69820 0.03800 -0.00900
C 	C 	0.59890 0.71790 0.38060 0.36100
C 	C 	0.91350 0.70440 0.98880 0.37700
C 	C 	0.75340 0.55600 0.27810 -0.92500
H 	H 	0.73880 0.54730 0.30400 0.29800
H 	H 	0.77550 0.58350 0.28040 0.30000
H 	H 	0.77900 0.53280 0.26780 0.28000
C 	C 	0.74430 0.55670 0.09920 -0.95900
H 	H 	0.71730 0.57670 0.11260 0.29800
H 	H 	0.72690 0.52720 0.09790 0.29900
H 	H 	0.75170 0.56740 0.07250 0.30700
C 	C 	0.56290 0.60870 0.20490 -0.89900
H 	H 	0.53160 0.58690 0.20140 0.28800
H 	H 	0.57110 0.62290 0.17970 0.29900
H 	H 	0.55040 0.63090 0.22400 0.28300
C 	C 	0.96100 0.56790 0.14790 -0.96700
H 	H 	0.98410 0.55430 0.12690 0.32000
H 	H 	0.97270 0.55530 0.17320 0.31200
H 	H 	0.96800 0.59970 0.14810 0.31100
Zn	Zn	0.74794 0.99511 0.68707 1.21400
O 	O 	0.55040 0.21000 0.90002 -0.48700
O 	O 	0.87560 0.23490 0.48150 -0.32600
O 	O 	0.63260 0.25120 0.88610 -0.32100
O 	O 	0.96510 0.20180 0.47273 -0.47600
N 	N 	0.64540 0.05330 0.69870 -0.24500
H 	H 	0.63210 0.04330 0.67620 0.13800
N 	N 	0.86490 0.03240 0.66570 -0.25000
H 	H 	0.87970 0.01910 0.68630 0.13700
N 	N 	0.69570 0.03830 0.71670 -0.29400
N 	N 	0.80620 0.02920 0.65390 -0.30100
C 	C 	0.61390 0.18520 0.84870 -0.20100
C 	C 	0.89820 0.16920 0.51880 -0.18300
C 	C 	0.57110 0.15410 0.83530 0.12300
H 	H 	0.53320 0.15390 0.84680 -0.01700
C 	C 	0.93460 0.13280 0.52630 0.13900
H 	H 	0.96920 0.12940 0.51110 -0.00500
C 	C 	0.70170 0.06270 0.75030 0.34900
C 	C 	0.80120 0.05460 0.62140 0.36600
C 	C 	0.58450 0.12390 0.80540 -0.26600
H 	H 	0.55610 0.10290 0.79760 0.10800
C 	C 	0.92180 0.10140 0.55520 -0.25200
H 	H 	0.94740 0.07720 0.55910 0.11700
C 	C 	0.65450 0.09250 0.75320 -0.34700
C 	C 	0.85770 0.07470 0.61110 -0.35000
C 	C 	0.64030 0.12450 0.78660 0.22400
C 	C 	0.86960 0.10590 0.57930 0.24200
C 	C 	0.61880 0.08560 0.71990 0.36300
C 	C 	0.89650 0.05910 0.64100 0.38600
C 	C 	0.68270 0.15560 0.79960 -0.26300
H 	H 	0.72020 0.15640 0.78750 0.11100
C 	C 	0.83230 0.14210 0.57140 -0.25900
H 	H 	0.79730 0.14520 0.58620 0.10300
C 	C 	0.66950 0.18530 0.83030 0.12600
H 	H 	0.69850 0.20560 0.83880 -0.01000
C 	C 	0.84530 0.17400 0.54220 0.11500
H 	H 	0.81970 0.19820 0.53800 -0.00200
C 	C 	0.59890 0.21790 0.88060 0.36100
C 	C 	0.91350 0.20440 0.48880 0.36000
C 	C 	0.75340 0.05600 0.77810 -0.90900
H 	H 	0.73880 0.04730 0.80400 0.28900
H 	H 	0.77550 0.08350 0.78040 0.29400
H 	H 	0.77900 0.03280 0.76780 0.26900
C 	C 	0.74430 0.05670 0.59920 -0.94800
H 	H 	0.71730 0.07670 0.61260 0.29500
H 	H 	0.72690 0.02720 0.59790 0.29100
H 	H 	0.75170 0.06740 0.57250 0.30400
C 	C 	0.56290 0.10870 0.70490 -0.89200
H 	H 	0.53160 0.08690 0.70140 0.28400
H 	H 	0.57110 0.12290 0.67970 0.29700
H 	H 	0.55040 0.13090 0.72400 0.28100
C 	C 	0.96100 0.06790 0.64790 -0.95200
H 	H 	0.98410 0.05430 0.62690 0.31200
H 	H 	0.97270 0.05530 0.67320 0.30500
H 	H 	0.96800 0.09970 0.64810 0.30600
Zn	Zn	0.00206 0.74511 0.93707 1.20100
O 	O 	0.19960 0.96000 0.15002 -0.48800
O 	O 	0.87440 0.98490 0.73150 -0.31600
O 	O 	0.11740 0.00120 0.13610 -0.34600
O 	O 	0.78490 0.95180 0.72273 -0.48100
N 	N 	0.10460 0.80330 0.94870 -0.24700
H 	H 	0.11790 0.79330 0.92620 0.13900
N 	N 	0.88510 0.78240 0.91570 -0.25200
H 	H 	0.87030 0.76910 0.93630 0.14600
N 	N 	0.05430 0.78830 0.96670 -0.27600
N 	N 	0.94380 0.77920 0.90390 -0.30200
C 	C 	0.13610 0.93520 0.09870 -0.20500
C 	C 	0.85180 0.91920 0.76880 -0.18800
C 	C 	0.17890 0.90410 0.08530 0.12800
H 	H 	0.21680 0.90390 0.09680 -0.01800
C 	C 	0.81540 0.88280 0.77630 0.14600
H 	H 	0.78080 0.87940 0.76110 -0.01300
C 	C 	0.04830 0.81270 0.00030 0.27900
C 	C 	0.94880 0.80460 0.87140 0.44200
C 	C 	0.16550 0.87390 0.05540 -0.26300
H 	H 	0.19390 0.85290 0.04760 0.10600
C 	C 	0.82820 0.85140 0.80520 -0.26500
H 	H 	0.80260 0.82720 0.80910 0.11800
C 	C 	0.09550 0.84250 0.00320 -0.33600
C 	C 	0.89230 0.82470 0.86110 -0.38000
C 	C 	0.10970 0.87450 0.03660 0.21800
C 	C 	0.88040 0.85590 0.82930 0.26100
C 	C 	0.13120 0.83560 0.96990 0.37900
C 	C 	0.85350 0.80910 0.89100 0.39500
C 	C 	0.06730 0.90560 0.04960 -0.25700
H 	H 	0.02980 0.90640 0.03750 0.10400
C 	C 	0.91770 0.89210 0.82140 -0.27200
H 	H 	0.95270 0.89520 0.83620 0.11300
C 	C 	0.08050 0.93530 0.08030 0.13000
H 	H 	0.05150 0.95560 0.08880 -0.01100
C 	C 	0.90470 0.92400 0.79220 0.12400
H 	H 	0.93030 0.94820 0.78800 0.00200
C 	C 	0.15110 0.96790 0.13060 0.38800
C 	C 	0.83650 0.95440 0.73880 0.36200
C 	C 	0.99660 0.80600 0.02810 -0.73100
H 	H 	0.01120 0.79730 0.05400 0.22600
H 	H 	0.97450 0.83350 0.03040 0.24800
H 	H 	0.97100 0.78280 0.01780 0.22400
C 	C 	0.00570 0.80670 0.84920 -1.14700
H 	H 	0.03270 0.82670 0.86260 0.34900
H 	H 	0.02310 0.77720 0.84790 0.34900
H 	H 	0.99830 0.81740 0.82250 0.37800
C 	C 	0.18710 0.85870 0.95490 -0.92000
H 	H 	0.21840 0.83690 0.95140 0.29700
H 	H 	0.17890 0.87290 0.92970 0.30700
H 	H 	0.19960 0.88090 0.97400 0.29700
C 	C 	0.78900 0.81790 0.89790 -0.95000
H 	H 	0.76590 0.80430 0.87690 0.30800
H 	H 	0.77730 0.80530 0.92320 0.30200
H 	H 	0.78200 0.84970 0.89810 0.30000
Zn	Zn	0.00206 0.24511 0.43707 1.20100
O 	O 	0.19960 0.46000 0.65002 -0.48800
O 	O 	0.87440 0.48490 0.23150 -0.32800
O 	O 	0.11740 0.50120 0.63610 -0.32400
O 	O 	0.78490 0.45180 0.22273 -0.48700
N 	N 	0.10460 0.30330 0.44870 -0.24300
H 	H 	0.11790 0.29330 0.42620 0.13800
N 	N 	0.88510 0.28240 0.41570 -0.25100
H 	H 	0.87030 0.26910 0.43630 0.14400
N 	N 	0.05430 0.28830 0.46670 -0.28300
N 	N 	0.94380 0.27920 0.40390 -0.30300
C 	C 	0.13610 0.43520 0.59870 -0.19700
C 	C 	0.85180 0.41920 0.26880 -0.19300
C 	C 	0.17890 0.40410 0.58530 0.11700
H 	H 	0.21680 0.40390 0.59680 -0.01400
C 	C 	0.81540 0.38280 0.27630 0.14900
H 	H 	0.78080 0.37940 0.26110 -0.01400
C 	C 	0.04830 0.31270 0.50030 0.28700
C 	C 	0.94880 0.30460 0.37140 0.44500
C 	C 	0.16550 0.37390 0.55540 -0.25600
H 	H 	0.19390 0.35290 0.54760 0.10600
C 	C 	0.82820 0.35140 0.30520 -0.26800
H 	H 	0.80260 0.32720 0.30910 0.11900
C 	C 	0.09550 0.34250 0.50320 -0.31700
C 	C 	0.89230 0.32470 0.36110 -0.38100
C 	C 	0.10970 0.37450 0.53660 0.20800
C 	C 	0.88040 0.35590 0.32930 0.26300
C 	C 	0.13120 0.33560 0.46990 0.35400
C 	C 	0.85350 0.30910 0.39100 0.39400
C 	C 	0.06730 0.40560 0.54960 -0.25200
H 	H 	0.02980 0.40640 0.53750 0.10200
C 	C 	0.91770 0.39210 0.32140 -0.27600
H 	H 	0.95270 0.39520 0.33620 0.11400
C 	C 	0.08050 0.43530 0.58030 0.11700
H 	H 	0.05150 0.45560 0.58880 -0.01200
C 	C 	0.90470 0.42400 0.29220 0.12600
H 	H 	0.93030 0.44820 0.28800 -0.00200
C 	C 	0.15110 0.46790 0.63060 0.35900
C 	C 	0.83650 0.45440 0.23880 0.36300
C 	C 	0.99660 0.30600 0.52810 -0.73800
H 	H 	0.01120 0.29730 0.55400 0.22800
H 	H 	0.97450 0.33350 0.53040 0.25200
H 	H 	0.97100 0.28280 0.51780 0.23100
C 	C 	0.00570 0.30670 0.34920 -1.15300
H 	H 	0.03270 0.32670 0.36260 0.35100
H 	H 	0.02310 0.27720 0.34790 0.35100
H 	H 	0.99830 0.31740 0.32250 0.38000
C 	C 	0.18710 0.35870 0.45490 -0.88400
H 	H 	0.21840 0.33690 0.45140 0.28400
H 	H 	0.17890 0.37290 0.42970 0.29400
H 	H 	0.19960 0.38090 0.47400 0.27800
C 	C 	0.78900 0.31790 0.39790 -0.94700
H 	H 	0.76590 0.30430 0.37690 0.30700
H 	H 	0.77730 0.30530 0.42320 0.30000
H 	H 	0.78200 0.34970 0.39810 0.29900
Zn	Zn	0.50206 0.74511 0.43707 1.20700
O 	O 	0.69960 0.96000 0.65002 -0.48800
O 	O 	0.37440 0.98490 0.23150 -0.31700
O 	O 	0.61740 0.00120 0.63610 -0.34400
O 	O 	0.28490 0.95180 0.22273 -0.48100
N 	N 	0.60460 0.80330 0.44870 -0.24600
H 	H 	0.61790 0.79330 0.42620 0.14000
N 	N 	0.38510 0.78240 0.41570 -0.24900
H 	H 	0.37030 0.76910 0.43630 0.14300
N 	N 	0.55430 0.78830 0.46670 -0.29100
N 	N 	0.44380 0.77920 0.40390 -0.29600
C 	C 	0.63610 0.93520 0.59870 -0.20900
C 	C 	0.35180 0.91920 0.26880 -0.18200
C 	C 	0.67890 0.90410 0.58530 0.13500
H 	H 	0.71680 0.90390 0.59680 -0.02000
C 	C 	0.31540 0.88280 0.27630 0.13700
H 	H 	0.28080 0.87940 0.26110 -0.01000
C 	C 	0.54830 0.81270 0.50030 0.35800
C 	C 	0.44880 0.80460 0.37140 0.37000
C 	C 	0.66550 0.87390 0.55540 -0.27300
H 	H 	0.69390 0.85290 0.54760 0.11200
C 	C 	0.32820 0.85140 0.30520 -0.25200
H 	H 	0.30260 0.82720 0.30910 0.11300
C 	C 	0.59550 0.84250 0.50320 -0.35300
C 	C 	0.39230 0.82470 0.36110 -0.34700
C 	C 	0.60970 0.87450 0.53660 0.23300
C 	C 	0.38040 0.85590 0.32930 0.24100
C 	C 	0.63120 0.83560 0.46990 0.37100
C 	C 	0.35350 0.80910 0.39100 0.38100
C 	C 	0.56730 0.90560 0.54960 -0.26800
H 	H 	0.52980 0.90640 0.53750 0.11400
C 	C 	0.41770 0.89210 0.32140 -0.25700
H 	H 	0.45270 0.89520 0.33620 0.10300
C 	C 	0.58050 0.93530 0.58030 0.13700
H 	H 	0.55150 0.95560 0.58880 -0.00800
C 	C 	0.40470 0.92400 0.29220 0.11300
H 	H 	0.43030 0.94820 0.28800 0.00200
C 	C 	0.65110 0.96790 0.63060 0.39000
C 	C 	0.33650 0.95440 0.23880 0.35900
C 	C 	0.49660 0.80600 0.52810 -0.92700
H 	H 	0.51120 0.79730 0.55400 0.29800
H 	H 	0.47450 0.83350 0.53040 0.30100
H 	H 	0.47100 0.78280 0.51780 0.28000
C 	C 	0.50570 0.80670 0.34920 -0.95500
H 	H 	0.53270 0.82670 0.36260 0.29700
H 	H 	0.52310 0.77720 0.34790 0.29800
H 	H 	0.49830 0.81740 0.32250 0.30600
C 	C 	0.68710 0.85870 0.45490 -0.90800
H 	H 	0.71840 0.83690 0.45140 0.29200
H 	H 	0.67890 0.87290 0.42970 0.30300
H 	H 	0.69960 0.88090 0.47400 0.28900
C 	C 	0.28900 0.81790 0.39790 -0.93200
H 	H 	0.26590 0.80430 0.37690 0.30300
H 	H 	0.27730 0.80530 0.42320 0.29600
H 	H 	0.28200 0.84970 0.39810 0.29400
Zn	Zn	0.50206 0.24511 0.93707 1.20800
O 	O 	0.69960 0.46000 0.15002 -0.48800
O 	O 	0.37440 0.48490 0.73150 -0.32900
O 	O 	0.61740 0.50120 0.13610 -0.32100
O 	O 	0.28490 0.45180 0.72273 -0.48800
N 	N 	0.60460 0.30330 0.94870 -0.24900
H 	H 	0.61790 0.29330 0.92620 0.14100
N 	N 	0.38510 0.28240 0.91570 -0.24900
H 	H 	0.37030 0.26910 0.93630 0.14400
N 	N 	0.55430 0.28830 0.96670 -0.28300
N 	N 	0.44380 0.27920 0.90390 -0.29500
C 	C 	0.63610 0.43520 0.09870 -0.20300
C 	C 	0.35180 0.41920 0.76880 -0.18700
C 	C 	0.67890 0.40410 0.08530 0.12800
H 	H 	0.71680 0.40390 0.09680 -0.01900
C 	C 	0.31540 0.38280 0.77630 0.14000
H 	H 	0.28080 0.37940 0.76110 -0.01100
C 	C 	0.54830 0.31270 0.00030 0.34600
C 	C 	0.44880 0.30460 0.87140 0.37100
C 	C 	0.66550 0.37390 0.05540 -0.27200
H 	H 	0.69390 0.35290 0.04760 0.10900
C 	C 	0.32820 0.35140 0.80520 -0.25500
H 	H 	0.30260 0.32720 0.80910 0.11400
C 	C 	0.59550 0.34250 0.00320 -0.36600
C 	C 	0.39230 0.32470 0.86110 -0.34900
C 	C 	0.60970 0.37450 0.03660 0.23100
C 	C 	0.38040 0.35590 0.82930 0.24300
C 	C 	0.63120 0.33560 0.96990 0.39000
C 	C 	0.35350 0.30910 0.89100 0.38300
C 	C 	0.56730 0.40560 0.04960 -0.26700
H 	H 	0.52980 0.40640 0.03750 0.11100
C 	C 	0.41770 0.39210 0.82140 -0.26100
H 	H 	0.45270 0.39520 0.83620 0.10400
C 	C 	0.58050 0.43530 0.08030 0.13000
H 	H 	0.55150 0.45560 0.08880 -0.01200
C 	C 	0.40470 0.42400 0.79220 0.11600
H 	H 	0.43030 0.44820 0.78800 -0.00200
C 	C 	0.65110 0.46790 0.13060 0.36200
C 	C 	0.33650 0.45440 0.73880 0.36100
C 	C 	0.49660 0.30600 0.02810 -0.91300
H 	H 	0.51120 0.29730 0.05400 0.29300
H 	H 	0.47450 0.33350 0.03040 0.29500
H 	H 	0.47100 0.28280 0.01780 0.27200
C 	C 	0.50570 0.30670 0.84920 -0.95600
H 	H 	0.53270 0.32670 0.86260 0.29700
H 	H 	0.52310 0.27720 0.84790 0.29800
H 	H 	0.49830 0.31740 0.82250 0.30700
C 	C 	0.68710 0.35870 0.95490 -0.92800
H 	H 	0.71840 0.33690 0.95140 0.29900
H 	H 	0.67890 0.37290 0.92970 0.30900
H 	H 	0.69960 0.38090 0.97400 0.29700
C 	C 	0.28900 0.31790 0.89790 -0.93600
H 	H 	0.26590 0.30430 0.87690 0.30400
H 	H 	0.27730 0.30530 0.92320 0.29800
H 	H 	0.28200 0.34970 0.89810 0.29500
