data_crystal

_cell_length_a 23.59270
_cell_length_b 23.59270
_cell_length_c 11.73560
_cell_angle_alpha 90.00000
_cell_angle_beta  90.00000
_cell_angle_gamma 90.00000

_symmetry_space_group_name_	'P 1'
_symmetry_space_group_name_H-M	'P 1'

loop_
_symmetry_equiv_pos_as_xyz
  x,y,z

loop_
_atom_site_label
_atom_site_type_symbol
_atom_site_fract_x
_atom_site_fract_y
_atom_site_fract_z
_atom_site_charge
O 	O 	0.44780 0.54079 0.40323 -0.41700
N 	N 	0.22301 0.64478 0.86610 -0.22800
H 	H 	0.19250 0.64410 0.82600 0.12500
O 	O 	0.44309 0.45846 0.31280 -0.32400
N 	N 	0.26353 0.68570 0.85735 -0.22300
C 	C 	0.38055 0.59547 0.24620 0.08900
H 	H 	0.39690 0.61640 0.30470 -0.00100
C 	C 	0.28826 0.62130 0.98960 -0.27700
C 	C 	0.39024 0.53725 0.23940 -0.16300
C 	C 	0.34672 0.62218 0.16590 -0.21600
H 	H 	0.34050 0.66100 0.17120 0.09500
C 	C 	0.32190 0.59147 0.07730 0.17300
C 	C 	0.30365 0.67170 0.93250 0.31100
C 	C 	0.23619 0.60576 0.94420 0.32100
C 	C 	0.33081 0.53286 0.07270 -0.21800
H 	H 	0.31380 0.51160 0.01540 0.08800
C 	C 	0.42944 0.50933 0.32380 0.33100
C 	C 	0.19775 0.55692 0.96750 -0.78900
H 	H 	0.15910 0.56850 0.95660 0.26900
H 	H 	0.20290 0.54440 0.04470 0.24600
H 	H 	0.20650 0.52640 0.91630 0.25600
C 	C 	0.36469 0.50619 0.15300 0.08900
H 	H 	0.37040 0.46720 0.14890 0.00000
C 	C 	0.35723 0.70504 0.94490 -0.77100
H 	H 	0.36590 0.72340 0.87410 0.25100
H 	H 	0.38770 0.68000 0.96530 0.25600
H 	H 	0.35250 0.73310 0.00350 0.24100
O 	O 	0.94780 0.04079 0.90323 -0.38500
N 	N 	0.72301 0.14478 0.36610 -0.23400
H 	H 	0.69250 0.14410 0.32600 0.12700
O 	O 	0.94309 0.95846 0.81280 -0.27900
N 	N 	0.76353 0.18570 0.35735 -0.23000
C 	C 	0.88055 0.09547 0.74620 0.07300
H 	H 	0.89690 0.11640 0.80470 0.01200
C 	C 	0.78826 0.12130 0.48960 -0.32000
C 	C 	0.89024 0.03725 0.73940 -0.12600
C 	C 	0.84672 0.12218 0.66590 -0.21000
H 	H 	0.84050 0.16100 0.67120 0.09900
C 	C 	0.82190 0.09147 0.57730 0.19000
C 	C 	0.80365 0.17170 0.43250 0.34800
C 	C 	0.73619 0.10576 0.44420 0.34800
C 	C 	0.83081 0.03286 0.57270 -0.19500
H 	H 	0.81380 0.01160 0.51540 0.08100
C 	C 	0.92944 0.00933 0.82380 0.29000
C 	C 	0.69775 0.05692 0.46750 -0.87300
H 	H 	0.65910 0.06850 0.45660 0.28500
H 	H 	0.70290 0.04440 0.54470 0.27700
H 	H 	0.70650 0.02640 0.41630 0.27000
C 	C 	0.86469 0.00619 0.65300 0.02600
H 	H 	0.87040 0.96720 0.64890 0.04100
C 	C 	0.85723 0.20504 0.44490 -0.89200
H 	H 	0.86590 0.22340 0.37410 0.28700
H 	H 	0.88770 0.18000 0.46530 0.29000
H 	H 	0.85250 0.23310 0.50350 0.29300
O 	O 	0.05220 0.45921 0.90323 -0.42000
N 	N 	0.27699 0.35522 0.36610 -0.23700
H 	H 	0.30750 0.35590 0.32600 0.12700
O 	O 	0.05691 0.54154 0.81280 -0.32800
N 	N 	0.23647 0.31430 0.35735 -0.23000
C 	C 	0.11945 0.40453 0.74620 0.11100
H 	H 	0.10310 0.38360 0.80470 -0.01200
C 	C 	0.21174 0.37870 0.48960 -0.33300
C 	C 	0.10976 0.46275 0.73940 -0.18200
C 	C 	0.15328 0.37782 0.66590 -0.24800
H 	H 	0.15950 0.33900 0.67120 0.10900
C 	C 	0.17810 0.40853 0.57730 0.22100
C 	C 	0.19635 0.32830 0.43250 0.34300
C 	C 	0.26381 0.39424 0.44420 0.36000
C 	C 	0.16919 0.46714 0.57270 -0.25100
H 	H 	0.18620 0.48840 0.51540 0.10600
C 	C 	0.07056 0.49067 0.82380 0.33600
C 	C 	0.30225 0.44308 0.46750 -0.90500
H 	H 	0.34090 0.43150 0.45660 0.29700
H 	H 	0.29710 0.45560 0.54470 0.29200
H 	H 	0.29350 0.47360 0.41630 0.28600
C 	C 	0.13531 0.49381 0.65300 0.11300
H 	H 	0.12960 0.53280 0.64890 -0.00700
C 	C 	0.14277 0.29496 0.44490 -0.86500
H 	H 	0.13410 0.27660 0.37410 0.27100
H 	H 	0.11230 0.32000 0.46530 0.27100
H 	H 	0.14750 0.26690 0.50350 0.28000
O 	O 	0.55220 0.95921 0.40323 -0.41900
N 	N 	0.77699 0.85522 0.86610 -0.23100
H 	H 	0.80750 0.85590 0.82600 0.13000
O 	O 	0.55691 0.04154 0.31280 -0.34800
N 	N 	0.73647 0.81430 0.85735 -0.22400
C 	C 	0.61945 0.90453 0.24620 0.12600
H 	H 	0.60310 0.88360 0.30470 -0.01300
C 	C 	0.71174 0.87870 0.98960 -0.29600
C 	C 	0.60976 0.96275 0.23940 -0.20500
C 	C 	0.65328 0.87782 0.16590 -0.24800
H 	H 	0.65950 0.83900 0.17120 0.10700
C 	C 	0.67810 0.90853 0.07730 0.20700
C 	C 	0.69635 0.82830 0.93250 0.32000
C 	C 	0.76381 0.89424 0.94420 0.33800
C 	C 	0.66919 0.96714 0.07270 -0.26900
H 	H 	0.68620 0.98840 0.01540 0.11300
C 	C 	0.57056 0.99067 0.32380 0.37500
C 	C 	0.80225 0.94308 0.96750 -0.83100
H 	H 	0.84090 0.93150 0.95660 0.28500
H 	H 	0.79710 0.95560 0.04470 0.26400
H 	H 	0.79350 0.97360 0.91630 0.27400
C 	C 	0.63531 0.99381 0.15300 0.17300
H 	H 	0.62960 0.03280 0.14890 -0.04200
C 	C 	0.64277 0.79496 0.94490 -0.78500
H 	H 	0.63410 0.77660 0.87410 0.25500
H 	H 	0.61230 0.82000 0.96530 0.26000
H 	H 	0.64750 0.76690 0.00350 0.24500
O 	O 	0.20921 0.69780 0.65323 -0.41800
N 	N 	0.10522 0.47301 0.11610 -0.23600
H 	H 	0.10590 0.44250 0.07600 0.12000
O 	O 	0.29154 0.69309 0.56280 -0.32200
N 	N 	0.06430 0.51353 0.10735 -0.23500
C 	C 	0.15453 0.63055 0.49620 0.10700
H 	H 	0.13360 0.64690 0.55470 -0.00900
C 	C 	0.12870 0.53826 0.23960 -0.32600
C 	C 	0.21275 0.64024 0.48940 -0.17600
C 	C 	0.12782 0.59672 0.41590 -0.24200
H 	H 	0.08900 0.59050 0.42120 0.10300
C 	C 	0.15853 0.57190 0.32730 0.21500
C 	C 	0.07830 0.55365 0.18250 0.32800
C 	C 	0.14424 0.48619 0.19420 0.35300
C 	C 	0.21714 0.58081 0.32270 -0.24600
H 	H 	0.23840 0.56380 0.26540 0.10500
C 	C 	0.24067 0.67944 0.57380 0.33600
C 	C 	0.19308 0.44775 0.21750 -0.89300
H 	H 	0.18150 0.40910 0.20660 0.29200
H 	H 	0.20560 0.45290 0.29470 0.28800
H 	H 	0.22360 0.45650 0.16630 0.28100
C 	C 	0.24381 0.61469 0.40300 0.10900
H 	H 	0.28280 0.62040 0.39890 -0.00400
C 	C 	0.04496 0.60723 0.19490 -0.83500
H 	H 	0.02660 0.61590 0.12410 0.25400
H 	H 	0.07000 0.63770 0.21530 0.26200
H 	H 	0.01690 0.60250 0.25350 0.26100
O 	O 	0.70921 0.19780 0.15323 -0.41900
N 	N 	0.60522 0.97301 0.61610 -0.23600
H 	H 	0.60590 0.94250 0.57600 0.13200
O 	O 	0.79154 0.19309 0.06280 -0.32500
N 	N 	0.56430 0.01353 0.60735 -0.24300
C 	C 	0.65453 0.13055 0.99620 0.16000
H 	H 	0.63360 0.14690 0.05470 -0.03700
C 	C 	0.62870 0.03826 0.73960 -0.37800
C 	C 	0.71275 0.14024 0.98940 -0.18200
C 	C 	0.62782 0.09672 0.91590 -0.27900
H 	H 	0.58900 0.09050 0.92120 0.12300
C 	C 	0.65853 0.07190 0.82730 0.24700
C 	C 	0.57830 0.05365 0.68250 0.36400
C 	C 	0.64424 0.98619 0.69420 0.41100
C 	C 	0.71714 0.08081 0.82270 -0.26900
H 	H 	0.73840 0.06380 0.76540 0.10900
C 	C 	0.74067 0.17944 0.07380 0.32700
C 	C 	0.69308 0.94775 0.71750 -0.96500
H 	H 	0.68150 0.90910 0.70660 0.31700
H 	H 	0.70560 0.95290 0.79470 0.31600
H 	H 	0.72360 0.95650 0.66630 0.31000
C 	C 	0.74381 0.11469 0.90300 0.12500
H 	H 	0.78280 0.12040 0.89890 -0.00500
C 	C 	0.54496 0.10723 0.69490 -0.90200
H 	H 	0.52660 0.11590 0.62410 0.28600
H 	H 	0.57000 0.13770 0.71530 0.28900
H 	H 	0.51690 0.10250 0.75350 0.29300
O 	O 	0.29079 0.30220 0.15323 -0.41900
N 	N 	0.39478 0.52699 0.61610 -0.23800
H 	H 	0.39410 0.55750 0.57600 0.12900
O 	O 	0.20846 0.30691 0.06280 -0.33000
N 	N 	0.43570 0.48647 0.60735 -0.23100
C 	C 	0.34547 0.36945 0.99620 0.15700
H 	H 	0.36640 0.35310 0.05470 -0.03700
C 	C 	0.37130 0.46174 0.73960 -0.34100
C 	C 	0.28725 0.35976 0.98940 -0.17700
C 	C 	0.37218 0.40328 0.91590 -0.27000
H 	H 	0.41100 0.40950 0.92120 0.12100
C 	C 	0.34147 0.42810 0.82730 0.23700
C 	C 	0.42170 0.44635 0.68250 0.35400
C 	C 	0.35576 0.51381 0.69420 0.36800
C 	C 	0.28286 0.41919 0.82270 -0.25700
H 	H 	0.26160 0.43620 0.76540 0.11000
C 	C 	0.25933 0.32056 0.07380 0.32600
C 	C 	0.30692 0.55225 0.71750 -0.91600
H 	H 	0.31850 0.59090 0.70660 0.30200
H 	H 	0.29440 0.54710 0.79470 0.29800
H 	H 	0.27640 0.54350 0.66630 0.29000
C 	C 	0.25619 0.38531 0.90300 0.12100
H 	H 	0.21720 0.37960 0.89890 -0.00300
C 	C 	0.45504 0.39277 0.69490 -0.89000
H 	H 	0.47340 0.38410 0.62410 0.28300
H 	H 	0.43000 0.36230 0.71530 0.28500
H 	H 	0.48310 0.39750 0.75350 0.29100
O 	O 	0.79079 0.80220 0.65323 -0.41600
N 	N 	0.89478 0.02699 0.11610 -0.23800
H 	H 	0.89410 0.05750 0.07600 0.12600
O 	O 	0.70846 0.80691 0.56280 -0.32200
N 	N 	0.93570 0.98647 0.10735 -0.21200
C 	C 	0.84547 0.86945 0.49620 0.10900
H 	H 	0.86640 0.85310 0.55470 -0.00400
C 	C 	0.87130 0.96174 0.23960 -0.30500
C 	C 	0.78725 0.85976 0.48940 -0.17400
C 	C 	0.87218 0.90328 0.41590 -0.23800
H 	H 	0.91100 0.90950 0.42120 0.11300
C 	C 	0.84147 0.92810 0.32730 0.21600
C 	C 	0.92170 0.94635 0.18250 0.35400
C 	C 	0.85576 0.01381 0.19420 0.32400
C 	C 	0.78286 0.91919 0.32270 -0.24100
H 	H 	0.76160 0.93620 0.26540 0.10700
C 	C 	0.75933 0.82056 0.57380 0.33500
C 	C 	0.80692 0.05225 0.21750 -0.86200
H 	H 	0.81850 0.09090 0.20660 0.28500
H 	H 	0.79440 0.04710 0.29470 0.27600
H 	H 	0.77640 0.04350 0.16630 0.26600
C 	C 	0.75619 0.88531 0.40300 0.11000
H 	H 	0.71720 0.87960 0.39890 -0.00300
C 	C 	0.95504 0.89277 0.19490 -0.90400
H 	H 	0.97340 0.88410 0.12410 0.29600
H 	H 	0.93000 0.86230 0.21530 0.29100
H 	H 	0.98310 0.89750 0.25350 0.30700
O 	O 	0.55220 0.45921 0.59677 -0.41900
N 	N 	0.77699 0.35522 0.13390 -0.24500
H 	H 	0.80750 0.35590 0.17400 0.13100
O 	O 	0.55691 0.54154 0.68720 -0.32300
N 	N 	0.73647 0.31430 0.14265 -0.23700
C 	C 	0.61945 0.40453 0.75380 0.13300
H 	H 	0.60310 0.38360 0.69530 -0.01600
C 	C 	0.71174 0.37870 0.01040 -0.38900
C 	C 	0.60976 0.46275 0.76060 -0.19200
C 	C 	0.65328 0.37782 0.83410 -0.27400
H 	H 	0.65950 0.33900 0.82880 0.12100
C 	C 	0.67810 0.40853 0.92270 0.26700
C 	C 	0.69635 0.32830 0.06750 0.38500
C 	C 	0.76381 0.39424 0.05580 0.39900
C 	C 	0.66919 0.46714 0.92730 -0.27800
H 	H 	0.68620 0.48840 0.98460 0.12300
C 	C 	0.57056 0.49067 0.67620 0.34200
C 	C 	0.80225 0.44308 0.03250 -1.01300
H 	H 	0.84090 0.43150 0.04340 0.32600
H 	H 	0.79710 0.45560 0.95530 0.33400
H 	H 	0.79350 0.47360 0.08370 0.31400
C 	C 	0.63531 0.49381 0.84700 0.13500
H 	H 	0.62960 0.53280 0.85110 -0.00900
C 	C 	0.64277 0.29496 0.05510 -0.98500
H 	H 	0.63410 0.27660 0.12590 0.30900
H 	H 	0.61230 0.32000 0.03470 0.30600
H 	H 	0.64750 0.26690 0.99650 0.33000
O 	O 	0.05220 0.95921 0.09677 -0.43900
N 	N 	0.27699 0.85522 0.63390 -0.24000
H 	H 	0.30750 0.85590 0.67400 0.13000
O 	O 	0.05691 0.04154 0.18720 -0.36200
N 	N 	0.23647 0.81430 0.64265 -0.23100
C 	C 	0.11945 0.90453 0.25380 0.15100
H 	H 	0.10310 0.88360 0.19530 -0.03000
C 	C 	0.21174 0.87870 0.51040 -0.35200
C 	C 	0.10976 0.96275 0.26060 -0.23100
C 	C 	0.15328 0.87782 0.33410 -0.28300
H 	H 	0.15950 0.83900 0.32880 0.11900
C 	C 	0.17810 0.90853 0.42270 0.25600
C 	C 	0.19635 0.82830 0.56750 0.35200
C 	C 	0.26381 0.89424 0.55580 0.37600
C 	C 	0.16919 0.96714 0.42730 -0.30500
H 	H 	0.18620 0.98840 0.48460 0.13200
C 	C 	0.07056 0.99067 0.17620 0.38200
C 	C 	0.30225 0.94308 0.53250 -0.94000
H 	H 	0.34090 0.93150 0.54340 0.31200
H 	H 	0.29710 0.95560 0.45530 0.30800
H 	H 	0.29350 0.97360 0.58370 0.30300
C 	C 	0.13531 0.99381 0.34700 0.20100
H 	H 	0.12960 0.03280 0.35110 -0.05100
C 	C 	0.14277 0.79496 0.55510 -0.87800
H 	H 	0.13410 0.77660 0.62590 0.27700
H 	H 	0.11230 0.82000 0.53470 0.27600
H 	H 	0.14750 0.76690 0.49650 0.28300
O 	O 	0.94780 0.54079 0.09677 -0.40500
N 	N 	0.72301 0.64478 0.63390 -0.23700
H 	H 	0.69250 0.64410 0.67400 0.12900
O 	O 	0.94309 0.45846 0.18720 -0.31300
N 	N 	0.76353 0.68570 0.64265 -0.23100
C 	C 	0.88055 0.59547 0.25380 0.11200
H 	H 	0.89690 0.61640 0.19530 -0.00500
C 	C 	0.78826 0.62130 0.51040 -0.33800
C 	C 	0.89024 0.53725 0.26060 -0.17400
C 	C 	0.84672 0.62218 0.33410 -0.24400
H 	H 	0.84050 0.66100 0.32880 0.10900
C 	C 	0.82190 0.59147 0.42270 0.22300
C 	C 	0.80365 0.67170 0.56750 0.35600
C 	C 	0.73619 0.60576 0.55580 0.36300
C 	C 	0.83081 0.53286 0.42730 -0.24700
H 	H 	0.81380 0.51160 0.48460 0.10600
C 	C 	0.92944 0.50933 0.17620 0.33600
C 	C 	0.69775 0.55692 0.53250 -0.90800
H 	H 	0.65910 0.56850 0.54340 0.29900
H 	H 	0.70290 0.54440 0.45530 0.29300
H 	H 	0.70650 0.52640 0.58370 0.28700
C 	C 	0.86469 0.50619 0.34700 0.11200
H 	H 	0.87040 0.46720 0.35110 -0.00300
C 	C 	0.85723 0.70504 0.55510 -0.90400
H 	H 	0.86590 0.72340 0.62590 0.29200
H 	H 	0.88770 0.68000 0.53470 0.29400
H 	H 	0.85250 0.73310 0.49650 0.29600
O 	O 	0.44780 0.04079 0.59677 -0.41200
N 	N 	0.22301 0.14478 0.13390 -0.24200
H 	H 	0.19250 0.14410 0.17400 0.12700
O 	O 	0.44309 0.95846 0.68720 -0.29600
N 	N 	0.26353 0.18570 0.14265 -0.23700
C 	C 	0.38055 0.09547 0.75380 0.09700
H 	H 	0.39690 0.11640 0.69530 -0.00300
C 	C 	0.28826 0.12130 0.01040 -0.37300
C 	C 	0.39024 0.03725 0.76060 -0.14900
C 	C 	0.34672 0.12218 0.83410 -0.24300
H 	H 	0.34050 0.16100 0.82880 0.11100
C 	C 	0.32190 0.09147 0.92270 0.23600
C 	C 	0.30365 0.17170 0.06750 0.37900
C 	C 	0.23619 0.10576 0.05580 0.38500
C 	C 	0.33081 0.03286 0.92730 -0.22800
H 	H 	0.31380 0.01160 0.98460 0.09900
C 	C 	0.42944 0.00933 0.67620 0.29700
C 	C 	0.19775 0.05692 0.03250 -0.98300
H 	H 	0.15910 0.06850 0.04340 0.31200
H 	H 	0.20290 0.04440 0.95530 0.32100
H 	H 	0.20650 0.02640 0.08370 0.29900
C 	C 	0.36469 0.00619 0.84700 0.04900
H 	H 	0.37040 0.96720 0.85110 0.03400
C 	C 	0.35723 0.20504 0.05510 -0.98000
H 	H 	0.36590 0.22340 0.12590 0.30700
H 	H 	0.38770 0.18000 0.03470 0.30400
H 	H 	0.35250 0.23310 0.99650 0.32900
O 	O 	0.79079 0.30220 0.34677 -0.41700
N 	N 	0.89478 0.52699 0.88390 -0.23800
H 	H 	0.89410 0.55750 0.92400 0.13800
O 	O 	0.70846 0.30691 0.43720 -0.32400
N 	N 	0.93570 0.48647 0.89265 -0.22000
C 	C 	0.84547 0.36945 0.50380 0.11700
H 	H 	0.86640 0.35310 0.44530 -0.00800
C 	C 	0.87130 0.46174 0.76040 -0.34500
C 	C 	0.78725 0.35976 0.51060 -0.18000
C 	C 	0.87218 0.40328 0.58410 -0.25100
H 	H 	0.91100 0.40950 0.57880 0.11600
C 	C 	0.84147 0.42810 0.67270 0.23000
C 	C 	0.92170 0.44635 0.81750 0.37100
C 	C 	0.85576 0.51381 0.80580 0.37000
C 	C 	0.78286 0.41919 0.67730 -0.25400
H 	H 	0.76160 0.43620 0.73460 0.10800
C 	C 	0.75933 0.32056 0.42620 0.33800
C 	C 	0.80692 0.55225 0.78250 -0.91900
H 	H 	0.81850 0.59090 0.79340 0.30500
H 	H 	0.79440 0.54710 0.70530 0.29700
H 	H 	0.77640 0.54350 0.83370 0.29100
C 	C 	0.75619 0.38531 0.59700 0.11700
H 	H 	0.71720 0.37960 0.60110 -0.00600
C 	C 	0.95504 0.39277 0.80510 -0.93200
H 	H 	0.97340 0.38410 0.87590 0.30900
H 	H 	0.93000 0.36230 0.78470 0.30200
H 	H 	0.98310 0.39750 0.74650 0.31400
O 	O 	0.29079 0.80220 0.84677 -0.41600
N 	N 	0.39478 0.02699 0.38390 -0.23800
H 	H 	0.39410 0.05750 0.42400 0.12500
O 	O 	0.20846 0.80691 0.93720 -0.32000
N 	N 	0.43570 0.98647 0.39265 -0.21600
C 	C 	0.34547 0.86945 0.00380 0.06000
H 	H 	0.36640 0.85310 0.94530 0.02300
C 	C 	0.37130 0.96174 0.26040 -0.29300
C 	C 	0.28725 0.85976 0.01060 -0.17500
C 	C 	0.37218 0.90328 0.08410 -0.21100
H 	H 	0.41100 0.90950 0.07880 0.09400
C 	C 	0.34147 0.92810 0.17270 0.19700
C 	C 	0.42170 0.94635 0.31750 0.33600
C 	C 	0.35576 0.01381 0.30580 0.31300
C 	C 	0.28286 0.91919 0.17730 -0.23000
H 	H 	0.26160 0.93620 0.23460 0.10300
C 	C 	0.25933 0.82056 0.92620 0.34800
C 	C 	0.30692 0.05225 0.28250 -0.84800
H 	H 	0.31850 0.09090 0.29340 0.28000
H 	H 	0.29440 0.04710 0.20530 0.26900
H 	H 	0.27640 0.04350 0.33370 0.26300
C 	C 	0.25619 0.88531 0.09700 0.10100
H 	H 	0.21720 0.87960 0.10110 -0.00500
C 	C 	0.45504 0.89277 0.30510 -0.86600
H 	H 	0.47340 0.88410 0.37590 0.27700
H 	H 	0.43000 0.86230 0.28470 0.27700
H 	H 	0.48310 0.89750 0.24650 0.28200
O 	O 	0.70921 0.69780 0.84677 -0.41600
N 	N 	0.60522 0.47301 0.38390 -0.23600
H 	H 	0.60590 0.44250 0.42400 0.12800
O 	O 	0.79154 0.69309 0.93720 -0.31600
N 	N 	0.56430 0.51353 0.39265 -0.23000
C 	C 	0.65453 0.63055 0.00380 0.06600
H 	H 	0.63360 0.64690 0.94530 0.02000
C 	C 	0.62870 0.53826 0.26040 -0.33000
C 	C 	0.71275 0.64024 0.01060 -0.17800
C 	C 	0.62782 0.59672 0.08410 -0.22200
H 	H 	0.58900 0.59050 0.07880 0.09600
C 	C 	0.65853 0.57190 0.17270 0.20800
C 	C 	0.57830 0.55365 0.31750 0.34600
C 	C 	0.64424 0.48619 0.30580 0.35500
C 	C 	0.71714 0.58081 0.17730 -0.24200
H 	H 	0.73840 0.56380 0.23460 0.10200
C 	C 	0.74067 0.67944 0.92620 0.34800
C 	C 	0.69308 0.44775 0.28250 -0.89600
H 	H 	0.68150 0.40910 0.29340 0.29400
H 	H 	0.70560 0.45290 0.20530 0.28700
H 	H 	0.72360 0.45650 0.33370 0.28300
C 	C 	0.74381 0.61469 0.09700 0.10500
H 	H 	0.78280 0.62040 0.10110 -0.00600
C 	C 	0.54496 0.60723 0.30510 -0.87800
H 	H 	0.52660 0.61590 0.37590 0.28000
H 	H 	0.57000 0.63770 0.28470 0.28100
H 	H 	0.51690 0.60250 0.24650 0.28500
O 	O 	0.20921 0.19780 0.34677 -0.41900
N 	N 	0.10522 0.97301 0.88390 -0.23500
H 	H 	0.10590 0.94250 0.92400 0.13400
O 	O 	0.29154 0.19309 0.43720 -0.32400
N 	N 	0.06430 0.01353 0.89265 -0.24000
C 	C 	0.15453 0.13055 0.50380 0.11600
H 	H 	0.13360 0.14690 0.44530 -0.01300
C 	C 	0.12870 0.03826 0.76040 -0.36800
C 	C 	0.21275 0.14024 0.51060 -0.18300
C 	C 	0.12782 0.09672 0.58410 -0.25500
H 	H 	0.08900 0.09050 0.57880 0.10500
C 	C 	0.15853 0.07190 0.67270 0.23000
C 	C 	0.07830 0.05365 0.81750 0.34700
C 	C 	0.14424 0.98619 0.80580 0.40200
C 	C 	0.21714 0.08081 0.67730 -0.26000
H 	H 	0.23840 0.06380 0.73460 0.10500
C 	C 	0.24067 0.17944 0.42620 0.33900
C 	C 	0.19308 0.94775 0.78250 -0.95600
H 	H 	0.18150 0.90910 0.79340 0.31300
H 	H 	0.20560 0.95290 0.70530 0.31000
H 	H 	0.22360 0.95650 0.83370 0.30800
C 	C 	0.24381 0.11469 0.59700 0.11700
H 	H 	0.28280 0.12040 0.60110 -0.00700
C 	C 	0.04496 0.10723 0.80510 -0.86700
H 	H 	0.02660 0.11590 0.87590 0.27000
H 	H 	0.07000 0.13770 0.78470 0.27600
H 	H 	0.01690 0.10250 0.74650 0.27100
Cu	Cu	0.50000 0.50000 0.50000 0.90700
Cu	Cu	-0.00000 0.00000 -0.00000 0.87400
Cu	Cu	-0.00000 0.50000 -0.00000 0.88300
Cu	Cu	0.50000 0.00000 0.50000 0.89700
Cu	Cu	0.25000 0.75000 0.75000 0.90700
Cu	Cu	0.25000 0.25000 0.25000 0.90600
Cu	Cu	0.75000 0.25000 0.25000 0.90700
Cu	Cu	0.75000 0.75000 0.75000 0.90800
