data_crystal

_cell_length_a 28.01700
_cell_length_b 9.61750
_cell_length_c 8.25860
_cell_angle_alpha 90.00000
_cell_angle_beta  90.00000
_cell_angle_gamma 90.00000

_symmetry_space_group_name_	'P 1'
_symmetry_space_group_name_H-M	'P 1'

loop_
_symmetry_equiv_pos_as_xyz
  x,y,z

loop_
_atom_site_label
_atom_site_type_symbol
_atom_site_fract_x
_atom_site_fract_y
_atom_site_fract_z
_atom_site_charge
Gd	Gd	0.99625 0.41512 0.90705 1.64800
O 	O 	0.07167 0.47830 0.99970 -0.46600
O 	O 	0.06324 0.61180 0.21610 -0.46900
O 	O 	0.45157 0.88550 0.96550 -0.44900
O 	O 	0.45926 0.79630 0.21220 -0.46300
O 	O 	0.22844 0.77740 0.35070 -0.15400
O 	O 	0.30071 0.56200 0.31620 -0.16000
O 	O 	0.97769 0.41200 0.21160 -0.52800
O 	O 	0.92674 0.30570 0.05100 -0.43000
C 	C 	0.08779 0.55770 0.10760 0.44100
C 	C 	0.13987 0.59370 0.10370 -0.10200
C 	C 	0.16793 0.55630 0.97140 0.01500
H 	H 	0.15500 0.50680 0.88510 0.03700
C 	C 	0.21589 0.59510 0.97160 -0.07500
H 	H 	0.23490 0.57100 0.88360 0.06500
C 	C 	0.23621 0.66860 0.09930 -0.00700
C 	C 	0.20708 0.70270 0.23120 0.10600
C 	C 	0.15902 0.66630 0.23260 -0.07200
H 	H 	0.13990 0.69070 0.32000 0.07400
C 	C 	0.28766 0.70740 0.09440 0.00200
C 	C 	0.30458 0.79390 0.97800 -0.08400
H 	H 	0.28370 0.82880 0.90040 0.06700
C 	C 	0.35279 0.83140 0.97250 0.02400
H 	H 	0.36390 0.88960 0.89070 0.03000
C 	C 	0.38376 0.78210 0.08840 -0.11100
C 	C 	0.36694 0.69250 0.20640 -0.05600
H 	H 	0.38780 0.65760 0.28400 0.05400
C 	C 	0.31923 0.65450 0.21000 0.10200
C 	C 	0.43528 0.82510 0.08660 0.42700
C 	C 	0.20580 0.78360 0.50340 -0.24700
H 	H 	0.22450 0.83990 0.57560 0.12100
H 	H 	0.20300 0.69150 0.54700 0.11700
H 	H 	0.17460 0.82370 0.49150 0.11700
C 	C 	0.32820 0.51260 0.44680 -0.22000
H 	H 	0.30970 0.44770 0.50890 0.10900
H 	H 	0.33740 0.58920 0.51440 0.10200
H 	H 	0.35620 0.46710 0.40610 0.09900
C 	C 	0.93981 0.34350 0.18690 0.46300
H 	H 	0.92090 0.32050 0.27550 -0.12300
Gd	Gd	0.00375 0.58488 0.40705 1.64700
O 	O 	0.92833 0.52170 0.49970 -0.46800
O 	O 	0.93676 0.38820 0.71610 -0.47000
O 	O 	0.54843 0.11450 0.46550 -0.45300
O 	O 	0.54074 0.20370 0.71220 -0.46400
O 	O 	0.77156 0.22260 0.85070 -0.15700
O 	O 	0.69929 0.43800 0.81620 -0.16000
O 	O 	0.02231 0.58800 0.71160 -0.52800
O 	O 	0.07326 0.69430 0.55100 -0.43100
C 	C 	0.91221 0.44230 0.60760 0.44200
C 	C 	0.86013 0.40630 0.60370 -0.10000
C 	C 	0.83207 0.44370 0.47140 0.01300
H 	H 	0.84500 0.49320 0.38510 0.03800
C 	C 	0.78411 0.40490 0.47160 -0.07600
H 	H 	0.76510 0.42900 0.38360 0.06600
C 	C 	0.76379 0.33140 0.59930 -0.00600
C 	C 	0.79292 0.29730 0.73120 0.10800
C 	C 	0.84098 0.33370 0.73260 -0.07300
H 	H 	0.86010 0.30930 0.82000 0.07500
C 	C 	0.71234 0.29260 0.59440 0.00500
C 	C 	0.69542 0.20610 0.47800 -0.08700
H 	H 	0.71630 0.17120 0.40040 0.06800
C 	C 	0.64721 0.16860 0.47250 0.02100
H 	H 	0.63610 0.11040 0.39070 0.03000
C 	C 	0.61624 0.21790 0.58840 -0.10900
C 	C 	0.63306 0.30750 0.70640 -0.05700
H 	H 	0.61220 0.34240 0.78400 0.05400
C 	C 	0.68077 0.34550 0.71000 0.10200
C 	C 	0.56472 0.17490 0.58660 0.43000
C 	C 	0.79420 0.21640 0.00340 -0.23500
H 	H 	0.77550 0.16010 0.07560 0.11800
H 	H 	0.79700 0.30850 0.04700 0.11300
H 	H 	0.82540 0.17630 0.99150 0.11200
C 	C 	0.67180 0.48740 0.94680 -0.21500
H 	H 	0.69030 0.55230 0.00890 0.10700
H 	H 	0.66260 0.41080 0.01440 0.10000
H 	H 	0.64380 0.53290 0.90610 0.09800
C 	C 	0.06019 0.65650 0.68690 0.46300
H 	H 	0.07910 0.67950 0.77550 -0.12300
Gd	Gd	0.49625 0.08488 0.90705 1.64400
O 	O 	0.57167 0.02170 0.99970 -0.46900
O 	O 	0.56324 0.88820 0.21610 -0.47100
O 	O 	0.95157 0.61450 0.96550 -0.45300
O 	O 	0.95926 0.70370 0.21220 -0.46400
O 	O 	0.72844 0.72260 0.35070 -0.15300
O 	O 	0.80071 0.93800 0.31620 -0.16000
O 	O 	0.47769 0.08800 0.21160 -0.52800
O 	O 	0.42674 0.19430 0.05100 -0.43000
C 	C 	0.58779 0.94230 0.10760 0.44200
C 	C 	0.63987 0.90630 0.10370 -0.10500
C 	C 	0.66793 0.94370 0.97140 0.01800
H 	H 	0.65500 0.99320 0.88510 0.03700
C 	C 	0.71589 0.90490 0.97160 -0.07500
H 	H 	0.73490 0.92900 0.88360 0.06600
C 	C 	0.73621 0.83140 0.09930 -0.00700
C 	C 	0.70708 0.79730 0.23120 0.10600
C 	C 	0.65902 0.83370 0.23260 -0.07100
H 	H 	0.63990 0.80930 0.32000 0.07400
C 	C 	0.78766 0.79260 0.09440 0.00300
C 	C 	0.80458 0.70610 0.97800 -0.08400
H 	H 	0.78370 0.67120 0.90040 0.06700
C 	C 	0.85279 0.66860 0.97250 0.02200
H 	H 	0.86390 0.61040 0.89070 0.03000
C 	C 	0.88376 0.71790 0.08840 -0.11000
C 	C 	0.86694 0.80750 0.20640 -0.05700
H 	H 	0.88780 0.84240 0.28400 0.05400
C 	C 	0.81923 0.84550 0.21000 0.10200
C 	C 	0.93528 0.67490 0.08660 0.43000
C 	C 	0.70580 0.71640 0.50340 -0.24800
H 	H 	0.72450 0.66010 0.57560 0.12200
H 	H 	0.70300 0.80850 0.54700 0.11700
H 	H 	0.67460 0.67630 0.49150 0.11700
C 	C 	0.82820 0.98740 0.44680 -0.22000
H 	H 	0.80970 0.05230 0.50890 0.10900
H 	H 	0.83740 0.91080 0.51440 0.10200
H 	H 	0.85620 0.03290 0.40610 0.10000
C 	C 	0.43981 0.15650 0.18690 0.46300
H 	H 	0.42090 0.17950 0.27550 -0.12300
Gd	Gd	0.50375 0.91512 0.40705 1.64600
O 	O 	0.42833 0.97830 0.49970 -0.46900
O 	O 	0.43676 0.11180 0.71610 -0.47000
O 	O 	0.04843 0.38550 0.46550 -0.45300
O 	O 	0.04074 0.29630 0.71220 -0.46400
O 	O 	0.27156 0.27740 0.85070 -0.15300
O 	O 	0.19929 0.06200 0.81620 -0.15900
O 	O 	0.52231 0.91200 0.71160 -0.52800
O 	O 	0.57326 0.80570 0.55100 -0.43000
C 	C 	0.41221 0.05770 0.60760 0.44300
C 	C 	0.36013 0.09370 0.60370 -0.10000
C 	C 	0.33207 0.05630 0.47140 0.01300
H 	H 	0.34500 0.00680 0.38510 0.03800
C 	C 	0.28411 0.09510 0.47160 -0.07700
H 	H 	0.26510 0.07100 0.38360 0.06600
C 	C 	0.26379 0.16860 0.59930 -0.00500
C 	C 	0.29292 0.20270 0.73120 0.10600
C 	C 	0.34098 0.16630 0.73260 -0.07300
H 	H 	0.36010 0.19070 0.82000 0.07400
C 	C 	0.21234 0.20740 0.59440 0.00500
C 	C 	0.19542 0.29390 0.47800 -0.08700
H 	H 	0.21630 0.32880 0.40040 0.06800
C 	C 	0.14721 0.33140 0.47250 0.02100
H 	H 	0.13610 0.38960 0.39070 0.03000
C 	C 	0.11624 0.28210 0.58840 -0.10900
C 	C 	0.13306 0.19250 0.70640 -0.05600
H 	H 	0.11220 0.15760 0.78400 0.05400
C 	C 	0.18077 0.15450 0.71000 0.10200
C 	C 	0.06472 0.32510 0.58660 0.43100
C 	C 	0.29420 0.28360 0.00340 -0.24800
H 	H 	0.27550 0.33990 0.07560 0.12100
H 	H 	0.29700 0.19150 0.04700 0.11700
H 	H 	0.32540 0.32370 0.99150 0.11700
C 	C 	0.17180 0.01260 0.94680 -0.22200
H 	H 	0.19030 0.94770 0.00890 0.10700
H 	H 	0.16260 0.08920 0.01440 0.10300
H 	H 	0.14380 0.96710 0.90610 0.10200
C 	C 	0.56019 0.84350 0.68690 0.46300
H 	H 	0.57910 0.82050 0.77550 -0.12300
