data_crystal

_cell_length_a 13.17400
_cell_length_b 32.54800
_cell_length_c 33.03900
_cell_angle_alpha 90.00000
_cell_angle_beta  97.47900
_cell_angle_gamma 90.00000

_symmetry_space_group_name_	'P 1'
_symmetry_space_group_name_H-M	'P 1'

loop_
_symmetry_equiv_pos_as_xyz
  x,y,z

loop_
_atom_site_label
_atom_site_type_symbol
_atom_site_fract_x
_atom_site_fract_y
_atom_site_fract_z
_atom_site_charge
Fe	Fe	0.36732 0.07045 0.97906 1.21500
Fe	Fe	0.63745 0.82257 0.01721 1.21600
Cd	Cd	0.23674 0.86835 0.75002 1.22200
C 	C 	0.58840 0.07710 0.01500 0.11600
C 	C 	0.67640 0.08050 0.04550 -0.17100
H 	H 	0.67370 0.05890 0.06560 0.09000
H 	H 	0.67430 0.10670 0.05930 0.07400
C 	C 	0.77760 0.07700 0.02710 -0.08300
H 	H 	0.81710 0.10150 0.03500 0.03600
H 	H 	0.81510 0.05400 0.04040 0.04300
C 	C 	0.77730 0.07220 0.98650 -0.00800
H 	H 	0.83220 0.05330 0.98280 0.01700
H 	H 	0.79590 0.09860 0.97580 0.01700
C 	C 	0.69030 0.05860 0.96140 -0.17400
H 	H 	0.69800 0.02930 0.95720 0.08600
H 	H 	0.68950 0.07170 0.93500 0.07300
C 	C 	0.59060 0.06520 0.97490 0.00100
C 	C 	0.47170 0.07370 0.06600 0.04000
H 	H 	0.52950 0.07840 0.08480 0.02200
C 	C 	0.49400 0.03000 0.91860 0.03900
H 	H 	0.55660 0.02470 0.90950 0.01800
C 	C 	0.37260 0.07150 0.08100 -0.08400
C 	C 	0.37110 0.08020 0.12230 -0.01100
H 	H 	0.43190 0.08580 0.13910 0.04700
C 	C 	0.27690 0.08040 0.13860 -0.06500
C 	C 	0.18840 0.06710 0.11330 -0.11800
H 	H 	0.12720 0.06570 0.12450 0.06600
C 	C 	0.18750 0.05600 0.07330 0.11300
C 	C 	0.28270 0.06010 0.05500 0.11400
C 	C 	0.40480 0.01560 0.89450 -0.07700
C 	C 	0.41960 0.99240 0.85880 -0.01100
H 	H 	0.48460 0.99020 0.85080 0.04500
C 	C 	0.33820 0.97350 0.83650 -0.07200
C 	C 	0.24020 0.98040 0.84560 -0.11300
H 	H 	0.18530 0.96890 0.82890 0.06600
C 	C 	0.22070 0.00390 0.87870 0.12200
C 	C 	0.30460 0.02180 0.90260 0.10100
C 	C 	0.09230 0.04340 0.04650 -0.57000
H 	H 	0.10890 0.03670 0.01980 0.19500
H 	H 	0.04390 0.06560 0.04440 0.17500
H 	H 	0.06320 0.01980 0.05800 0.17100
C 	C 	0.11480 0.00930 0.88880 -0.58600
H 	H 	0.11610 0.02650 0.91250 0.19800
H 	H 	0.08680 0.98300 0.89440 0.18100
H 	H 	0.07300 0.02180 0.86620 0.18500
C 	C 	0.26750 0.09490 0.17920 0.31400
C 	C 	0.35230 0.94630 0.80100 0.38600
C 	C 	0.82490 0.82750 0.97940 0.06500
C 	C 	0.89670 0.83240 0.94620 -0.16400
H 	H 	0.87810 0.81180 0.92530 0.09000
H 	H 	0.88410 0.85910 0.93350 0.07900
C 	C 	0.00510 0.82880 0.95970 -0.00500
H 	H 	0.03160 0.80770 0.94320 0.00300
H 	H 	0.03650 0.85450 0.95320 -0.00000
C 	C 	0.03990 0.82000 0.99960 -0.14900
H 	H 	0.07530 0.84430 0.01120 0.04800
H 	H 	0.09100 0.79860 0.99960 0.04900
C 	C 	0.96710 0.80680 0.02880 -0.08100
H 	H 	0.97000 0.77700 0.03080 0.06500
H 	H 	0.99230 0.81760 0.05550 0.05200
C 	C 	0.86050 0.81850 0.01930 0.01100
C 	C 	0.67420 0.82440 0.92850 0.04800
H 	H 	0.71770 0.82930 0.90900 0.01900
C 	C 	0.80750 0.78390 0.07470 0.03700
H 	H 	0.87690 0.77990 0.08330 0.01600
C 	C 	0.56680 0.82140 0.91410 -0.08800
C 	C 	0.53250 0.82790 0.87270 0.01100
H 	H 	0.57990 0.83300 0.85480 0.03100
C 	C 	0.43000 0.82670 0.85800 -0.12600
C 	C 	0.36090 0.81530 0.88500 -0.08200
H 	H 	0.29220 0.81220 0.87460 0.05300
C 	C 	0.38980 0.80840 0.92590 0.09300
C 	C 	0.49230 0.81150 0.94180 0.10900
C 	C 	0.73460 0.77000 0.10160 -0.06100
C 	C 	0.77480 0.75180 0.13840 -0.03600
H 	H 	0.84530 0.75120 0.14600 0.03700
C 	C 	0.70840 0.73400 0.16440 -0.03900
C 	C 	0.60530 0.73980 0.15540 -0.18200
H 	H 	0.56310 0.72940 0.17350 0.09200
C 	C 	0.56030 0.76020 0.12120 0.22200
C 	C 	0.62910 0.77610 0.09460 0.07400
C 	C 	0.31330 0.79640 0.95410 -0.55600
H 	H 	0.34810 0.79280 0.98130 0.19500
H 	H 	0.28070 0.77110 0.94490 0.17300
H 	H 	0.26270 0.81760 0.95410 0.17900
C 	C 	0.45210 0.76340 0.11290 -0.76700
H 	H 	0.43400 0.77820 0.08790 0.25500
H 	H 	0.42640 0.77770 0.13480 0.24100
H 	H 	0.42270 0.73640 0.11040 0.24300
C 	C 	0.39020 0.83650 0.81660 0.38000
C 	C 	0.75270 0.71020 0.20150 0.34500
N 	N 	0.48350 0.06940 0.02850 -0.22700
N 	N 	0.49510 0.05000 0.95270 -0.22400
N 	N 	0.71540 0.82100 0.96510 -0.22700
N 	N 	0.78220 0.80090 0.04070 -0.22600
O 	O 	0.27750 0.05159 0.01710 -0.39500
O 	O 	0.28560 0.04300 0.93500 -0.38700
O 	O 	0.51850 0.80585 0.98110 -0.39300
O 	O 	0.58750 0.79240 0.06120 -0.37800
O 	O 	0.34960 0.10640 0.20270 -0.47300
O 	O 	0.18120 0.09800 0.19260 -0.41500
O 	O 	0.44390 0.94070 0.79470 -0.43400
O 	O 	0.27830 0.92950 0.78200 -0.45600
O 	O 	0.45010 0.84310 0.78900 -0.56000
O 	O 	0.29780 0.84170 0.80710 -0.48100
O 	O 	0.85150 0.71150 0.21050 -0.46700
O 	O 	0.69350 0.69050 0.22040 -0.45100
O 	O 	0.35980 0.12459 0.97160 -0.62600
C 	C 	0.58900 0.05200 0.01830 -0.10400
C 	C 	0.58600 0.04610 0.99060 0.03500
C 	C 	0.82600 0.80410 0.97530 -0.03300
C 	C 	0.85800 0.79670 0.00680 -0.00300
Fe	Fe	0.86732 0.57045 0.97906 1.21800
Fe	Fe	0.13745 0.32257 0.01721 1.21700
Cd	Cd	0.73674 0.36835 0.75002 1.22500
C 	C 	0.08840 0.57710 0.01500 0.09200
C 	C 	0.17640 0.58050 0.04550 -0.12600
H 	H 	0.17370 0.55890 0.06560 0.07600
H 	H 	0.17430 0.60670 0.05930 0.05800
C 	C 	0.27760 0.57700 0.02710 -0.14400
H 	H 	0.31710 0.60150 0.03500 0.05200
H 	H 	0.31510 0.55400 0.04040 0.05900
C 	C 	0.27730 0.57220 0.98650 0.05700
H 	H 	0.33220 0.55330 0.98280 -0.00800
H 	H 	0.29590 0.59860 0.97580 -0.00700
C 	C 	0.19030 0.55860 0.96140 -0.20900
H 	H 	0.19800 0.52930 0.95720 0.09400
H 	H 	0.18950 0.57170 0.93500 0.07800
C 	C 	0.09060 0.56520 0.97490 -0.01000
C 	C 	0.97170 0.57370 0.06600 0.10600
H 	H 	0.02950 0.57840 0.08480 -0.02100
C 	C 	0.99400 0.53000 0.91860 0.10800
H 	H 	0.05660 0.52470 0.90950 -0.02700
C 	C 	0.87260 0.57150 0.08100 -0.09800
C 	C 	0.87110 0.58020 0.12230 -0.00500
H 	H 	0.93190 0.58580 0.13910 0.05700
C 	C 	0.77690 0.58040 0.13860 -0.05800
C 	C 	0.68840 0.56710 0.11330 -0.12700
H 	H 	0.62720 0.56570 0.12450 0.07600
C 	C 	0.68750 0.55600 0.07330 0.13000
C 	C 	0.78270 0.56010 0.05500 0.11500
C 	C 	0.90480 0.51560 0.89450 -0.09500
C 	C 	0.91960 0.49240 0.85880 -0.00000
H 	H 	0.98460 0.49020 0.85080 0.05200
C 	C 	0.83820 0.47350 0.83650 -0.06800
C 	C 	0.74020 0.48040 0.84560 -0.11800
H 	H 	0.68530 0.46890 0.82890 0.07300
C 	C 	0.72070 0.50390 0.87870 0.13300
C 	C 	0.80460 0.52180 0.90260 0.10700
C 	C 	0.59230 0.54340 0.04650 -0.61200
H 	H 	0.60890 0.53670 0.01980 0.21300
H 	H 	0.54390 0.56560 0.04440 0.19700
H 	H 	0.56320 0.51980 0.05800 0.19400
C 	C 	0.61480 0.50930 0.88880 -0.61600
H 	H 	0.61610 0.52650 0.91250 0.21100
H 	H 	0.58680 0.48300 0.89440 0.19700
H 	H 	0.57300 0.52180 0.86620 0.20100
C 	C 	0.76750 0.59490 0.17920 0.31100
C 	C 	0.85230 0.44630 0.80100 0.38400
C 	C 	0.32490 0.32750 0.97940 0.06800
C 	C 	0.39670 0.33240 0.94620 -0.24900
H 	H 	0.37810 0.31180 0.92530 0.11000
H 	H 	0.38410 0.35910 0.93350 0.10000
C 	C 	0.50510 0.32880 0.95970 0.09600
H 	H 	0.53160 0.30770 0.94320 -0.01700
H 	H 	0.53650 0.35450 0.95320 -0.02300
C 	C 	0.53990 0.32000 0.99960 -0.18600
H 	H 	0.57530 0.34430 0.01120 0.06900
H 	H 	0.59100 0.29860 0.99960 0.06800
C 	C 	0.46710 0.30680 0.02880 -0.07800
H 	H 	0.47000 0.27700 0.03080 0.05800
H 	H 	0.49230 0.31760 0.05550 0.04100
C 	C 	0.36050 0.31850 0.01930 0.02100
C 	C 	0.17420 0.32440 0.92850 0.05900
H 	H 	0.21770 0.32930 0.90900 0.01500
C 	C 	0.30750 0.28390 0.07470 0.05000
H 	H 	0.37690 0.27990 0.08330 0.00900
C 	C 	0.06680 0.32140 0.91410 -0.11700
C 	C 	0.03250 0.32790 0.87270 -0.03000
H 	H 	0.07990 0.33300 0.85480 0.03900
C 	C 	0.93000 0.32670 0.85800 -0.08100
C 	C 	0.86090 0.31530 0.88500 -0.08900
H 	H 	0.79220 0.31220 0.87460 0.06000
C 	C 	0.88980 0.30840 0.92590 0.08800
C 	C 	0.99230 0.31150 0.94180 0.17400
C 	C 	0.23460 0.27000 0.10160 -0.09100
C 	C 	0.27480 0.25180 0.13840 -0.00700
H 	H 	0.34530 0.25120 0.14600 0.02300
C 	C 	0.20840 0.23400 0.16440 -0.07700
C 	C 	0.10530 0.23980 0.15540 -0.11900
H 	H 	0.06310 0.22940 0.17350 0.06200
C 	C 	0.06030 0.26020 0.12120 0.12000
C 	C 	0.12910 0.27610 0.09460 0.11500
C 	C 	0.81330 0.29640 0.95410 -0.55700
H 	H 	0.84810 0.29280 0.98130 0.20300
H 	H 	0.78070 0.27110 0.94490 0.17800
H 	H 	0.76270 0.31760 0.95410 0.18200
C 	C 	0.95210 0.26340 0.11290 -0.60100
H 	H 	0.93400 0.27820 0.08790 0.21700
H 	H 	0.92640 0.27770 0.13480 0.20300
H 	H 	0.92270 0.23640 0.11040 0.20300
C 	C 	0.89020 0.33650 0.81660 0.36500
C 	C 	0.25270 0.21020 0.20150 0.35900
N 	N 	0.98350 0.56940 0.02850 -0.22200
N 	N 	0.99510 0.55000 0.95270 -0.22200
N 	N 	0.21540 0.32100 0.96510 -0.23200
N 	N 	0.28220 0.30090 0.04070 -0.22800
O 	O 	0.77750 0.55159 0.01710 -0.39400
O 	O 	0.78560 0.54300 0.93500 -0.38700
O 	O 	0.01850 0.30585 0.98110 -0.42900
O 	O 	0.08750 0.29240 0.06120 -0.39600
O 	O 	0.84960 0.60640 0.20270 -0.46200
O 	O 	0.68120 0.59800 0.19260 -0.40700
O 	O 	0.94390 0.44070 0.79470 -0.41800
O 	O 	0.77830 0.42950 0.78200 -0.45000
O 	O 	0.95010 0.34310 0.78900 -0.53800
O 	O 	0.79780 0.34170 0.80710 -0.47200
O 	O 	0.35150 0.21150 0.21050 -0.48200
O 	O 	0.19350 0.19050 0.22040 -0.46100
O 	O 	0.85980 0.62459 0.97160 -0.62100
C 	C 	0.08900 0.55200 0.01830 -0.11500
C 	C 	0.08600 0.54610 0.99060 0.04600
C 	C 	0.32600 0.30410 0.97530 -0.01400
C 	C 	0.35800 0.29670 0.00680 -0.02800
Fe	Fe	0.63268 0.07045 0.52094 1.21600
Fe	Fe	0.36255 0.82257 0.48279 1.21700
Cd	Cd	0.76326 0.86835 0.74998 1.22600
C 	C 	0.41160 0.07710 0.48500 0.11600
C 	C 	0.32360 0.08050 0.45450 -0.15300
H 	H 	0.32630 0.05890 0.43440 0.08500
H 	H 	0.32570 0.10670 0.44070 0.06800
C 	C 	0.22240 0.07700 0.47290 -0.11200
H 	H 	0.18290 0.10150 0.46500 0.03900
H 	H 	0.18490 0.05400 0.45960 0.04600
C 	C 	0.22270 0.07220 0.51350 0.03300
H 	H 	0.16780 0.05330 0.51720 -0.00500
H 	H 	0.20410 0.09860 0.52420 -0.00200
C 	C 	0.30970 0.05860 0.53860 -0.19900
H 	H 	0.30200 0.02930 0.54280 0.09200
H 	H 	0.31050 0.07170 0.56500 0.07800
C 	C 	0.40940 0.06520 0.52510 0.00100
C 	C 	0.52830 0.07370 0.43400 0.03500
H 	H 	0.47050 0.07840 0.41520 0.02300
C 	C 	0.50600 0.03000 0.58140 0.03400
H 	H 	0.44340 0.02470 0.59050 0.01800
C 	C 	0.62740 0.07150 0.41900 -0.07200
C 	C 	0.62890 0.08020 0.37770 -0.02400
H 	H 	0.56810 0.08580 0.36090 0.05200
C 	C 	0.72310 0.08040 0.36140 -0.04500
C 	C 	0.81160 0.06710 0.38670 -0.14600
H 	H 	0.87280 0.06570 0.37550 0.08900
C 	C 	0.81250 0.05600 0.42670 0.15700
C 	C 	0.71730 0.06010 0.44500 0.09700
C 	C 	0.59520 0.01560 0.60550 -0.06500
C 	C 	0.58040 0.99240 0.64120 -0.02300
H 	H 	0.51540 0.99020 0.64920 0.04800
C 	C 	0.66180 0.97350 0.66350 -0.05500
C 	C 	0.75980 0.98040 0.65440 -0.13900
H 	H 	0.81470 0.96890 0.67110 0.08400
C 	C 	0.77930 0.00390 0.62130 0.16200
C 	C 	0.69540 0.02180 0.59740 0.08500
C 	C 	0.90770 0.04340 0.45350 -0.66600
H 	H 	0.89110 0.03670 0.48020 0.23300
H 	H 	0.95610 0.06560 0.45560 0.22400
H 	H 	0.93680 0.01980 0.44200 0.21900
C 	C 	0.88520 0.00930 0.61120 -0.67000
H 	H 	0.88390 0.02650 0.58750 0.23300
H 	H 	0.91320 0.98300 0.60560 0.22200
H 	H 	0.92700 0.02180 0.63380 0.22500
C 	C 	0.73250 0.09490 0.32080 0.30700
C 	C 	0.64770 0.94630 0.69900 0.38000
C 	C 	0.17510 0.82750 0.52060 0.06900
C 	C 	0.10330 0.83240 0.55380 -0.31300
H 	H 	0.12190 0.81180 0.57470 0.12400
H 	H 	0.11590 0.85910 0.56650 0.11400
C 	C 	0.99490 0.82880 0.54030 0.16300
H 	H 	0.96840 0.80770 0.55680 -0.02700
H 	H 	0.96350 0.85450 0.54680 -0.03400
C 	C 	0.96010 0.82000 0.50040 -0.18800
H 	H 	0.92470 0.84430 0.48880 0.07600
H 	H 	0.90900 0.79860 0.50040 0.07400
C 	C 	0.03290 0.80680 0.47120 -0.09500
H 	H 	0.03000 0.77700 0.46920 0.05500
H 	H 	0.00770 0.81760 0.44450 0.03400
C 	C 	0.13950 0.81850 0.48070 0.03000
C 	C 	0.32580 0.82440 0.57150 0.04800
H 	H 	0.28230 0.82930 0.59100 0.01800
C 	C 	0.19250 0.78390 0.42530 0.03900
H 	H 	0.12310 0.77990 0.41670 0.00800
C 	C 	0.43320 0.82140 0.58590 -0.08500
C 	C 	0.46750 0.82790 0.62730 0.00700
H 	H 	0.42010 0.83300 0.64520 0.03200
C 	C 	0.57000 0.82670 0.64200 -0.11800
C 	C 	0.63910 0.81530 0.61500 -0.09000
H 	H 	0.70780 0.81220 0.62540 0.06200
C 	C 	0.61020 0.80840 0.57410 0.10500
C 	C 	0.50770 0.81150 0.55820 0.10500
C 	C 	0.26540 0.77000 0.39840 -0.06600
C 	C 	0.22520 0.75180 0.36160 -0.03200
H 	H 	0.15470 0.75120 0.35400 0.02700
C 	C 	0.29160 0.73400 0.33560 -0.04400
C 	C 	0.39470 0.73980 0.34460 -0.18100
H 	H 	0.43690 0.72940 0.32650 0.09200
C 	C 	0.43970 0.76020 0.37880 0.22400
C 	C 	0.37090 0.77610 0.40540 0.07400
C 	C 	0.68670 0.79640 0.54590 -0.57600
H 	H 	0.65190 0.79280 0.51870 0.20200
H 	H 	0.71930 0.77110 0.55510 0.18400
H 	H 	0.73730 0.81760 0.54590 0.18900
C 	C 	0.54790 0.76340 0.38710 -0.77400
H 	H 	0.56600 0.77820 0.41210 0.25900
H 	H 	0.57360 0.77770 0.36520 0.24600
H 	H 	0.57730 0.73640 0.38960 0.24600
C 	C 	0.60980 0.83650 0.68340 0.37600
C 	C 	0.24730 0.71020 0.29850 0.34800
N 	N 	0.51650 0.06940 0.47150 -0.22500
N 	N 	0.50490 0.05000 0.54730 -0.22400
N 	N 	0.28460 0.82100 0.53490 -0.23100
N 	N 	0.21780 0.80090 0.45930 -0.22700
O 	O 	0.72250 0.05159 0.48290 -0.38900
O 	O 	0.71440 0.04300 0.56500 -0.38200
O 	O 	0.48150 0.80585 0.51890 -0.39100
O 	O 	0.41250 0.79240 0.43880 -0.37800
O 	O 	0.65040 0.10640 0.29730 -0.47100
O 	O 	0.81880 0.09800 0.30740 -0.40000
O 	O 	0.55610 0.94070 0.70530 -0.43200
O 	O 	0.72170 0.92950 0.71800 -0.44800
O 	O 	0.54990 0.84310 0.71100 -0.55900
O 	O 	0.70220 0.84170 0.69290 -0.47300
O 	O 	0.14850 0.71150 0.28950 -0.48500
O 	O 	0.30650 0.69050 0.27960 -0.45300
O 	O 	0.64020 0.12459 0.52840 -0.62400
C 	C 	0.41100 0.05200 0.48170 -0.11400
C 	C 	0.41400 0.04610 0.50940 0.04600
C 	C 	0.17400 0.80410 0.52470 -0.00300
C 	C 	0.14200 0.79670 0.49320 -0.04400
Fe	Fe	0.13268 0.57045 0.52094 1.21300
Fe	Fe	0.86255 0.32257 0.48279 1.21700
Cd	Cd	0.26326 0.36835 0.74998 1.22400
C 	C 	0.91160 0.57710 0.48500 0.14000
C 	C 	0.82360 0.58050 0.45450 -0.15900
H 	H 	0.82630 0.55890 0.43440 0.08900
H 	H 	0.82570 0.60670 0.44070 0.07200
C 	C 	0.72240 0.57700 0.47290 -0.11600
H 	H 	0.68290 0.60150 0.46500 0.04500
H 	H 	0.68490 0.55400 0.45960 0.05100
C 	C 	0.72270 0.57220 0.51350 0.04000
H 	H 	0.66780 0.55330 0.51720 -0.00200
H 	H 	0.70410 0.59860 0.52420 0.00000
C 	C 	0.80970 0.55860 0.53860 -0.21200
H 	H 	0.80200 0.52930 0.54280 0.09800
H 	H 	0.81050 0.57170 0.56500 0.08800
C 	C 	0.90940 0.56520 0.52510 0.01400
C 	C 	0.02830 0.57370 0.43400 -0.03100
H 	H 	0.97050 0.57840 0.41520 0.06600
C 	C 	0.00600 0.53000 0.58140 -0.03500
H 	H 	0.94340 0.52470 0.59050 0.06300
C 	C 	0.12740 0.57150 0.41900 -0.05700
C 	C 	0.12890 0.58020 0.37770 -0.03100
H 	H 	0.06810 0.58580 0.36090 0.04300
C 	C 	0.22310 0.58040 0.36140 -0.05200
C 	C 	0.31160 0.56710 0.38670 -0.13800
H 	H 	0.37280 0.56570 0.37550 0.07900
C 	C 	0.31250 0.55600 0.42670 0.14000
C 	C 	0.21730 0.56010 0.44500 0.09600
C 	C 	0.09520 0.51560 0.60550 -0.04700
C 	C 	0.08040 0.49240 0.64120 -0.03300
H 	H 	0.01540 0.49020 0.64920 0.04100
C 	C 	0.16180 0.47350 0.66350 -0.05900
C 	C 	0.25980 0.48040 0.65440 -0.13400
H 	H 	0.31470 0.46890 0.67110 0.07700
C 	C 	0.27930 0.50390 0.62130 0.15100
C 	C 	0.19540 0.52180 0.59740 0.08000
C 	C 	0.40770 0.54340 0.45350 -0.62400
H 	H 	0.39110 0.53670 0.48020 0.21600
H 	H 	0.45610 0.56560 0.45560 0.20100
H 	H 	0.43680 0.51980 0.44200 0.19700
C 	C 	0.38520 0.50930 0.61120 -0.63800
H 	H 	0.38390 0.52650 0.58750 0.21800
H 	H 	0.41320 0.48300 0.60560 0.20400
H 	H 	0.42700 0.52180 0.63380 0.20800
C 	C 	0.23250 0.59490 0.32080 0.30800
C 	C 	0.14770 0.44630 0.69900 0.38100
C 	C 	0.67510 0.32750 0.52060 0.06700
C 	C 	0.60330 0.33240 0.55380 -0.23900
H 	H 	0.62190 0.31180 0.57470 0.10700
H 	H 	0.61590 0.35910 0.56650 0.09600
C 	C 	0.49490 0.32880 0.54030 0.08100
H 	H 	0.46840 0.30770 0.55680 -0.01300
H 	H 	0.46350 0.35450 0.54680 -0.01800
C 	C 	0.46010 0.32000 0.50040 -0.17100
H 	H 	0.42470 0.34430 0.48880 0.06200
H 	H 	0.40900 0.29860 0.50040 0.06100
C 	C 	0.53290 0.30680 0.47120 -0.08600
H 	H 	0.53000 0.27700 0.46920 0.05900
H 	H 	0.50770 0.31760 0.44450 0.04100
C 	C 	0.63950 0.31850 0.48070 0.02000
C 	C 	0.82580 0.32440 0.57150 0.03600
H 	H 	0.78230 0.32930 0.59100 0.02200
C 	C 	0.69250 0.28390 0.42530 0.02700
H 	H 	0.62310 0.27990 0.41670 0.01600
C 	C 	0.93320 0.32140 0.58590 -0.05500
C 	C 	0.96750 0.32790 0.62730 0.04800
H 	H 	0.92010 0.33300 0.64520 0.02400
C 	C 	0.07000 0.32670 0.64200 -0.16200
C 	C 	0.13910 0.31530 0.61500 -0.08300
H 	H 	0.20780 0.31220 0.62540 0.05600
C 	C 	0.11020 0.30840 0.57410 0.11100
C 	C 	0.00770 0.31150 0.55820 0.03900
C 	C 	0.76540 0.27000 0.39840 -0.03700
C 	C 	0.72520 0.25180 0.36160 -0.06000
H 	H 	0.65470 0.25120 0.35400 0.04000
C 	C 	0.79160 0.23400 0.33560 -0.00700
C 	C 	0.89470 0.23980 0.34460 -0.24400
H 	H 	0.93690 0.22940 0.32650 0.12200
C 	C 	0.93970 0.26020 0.37880 0.32500
C 	C 	0.87090 0.27610 0.40540 0.03400
C 	C 	0.18670 0.29640 0.54590 -0.57600
H 	H 	0.15190 0.29280 0.51870 0.19400
H 	H 	0.21930 0.27110 0.55510 0.17900
H 	H 	0.23730 0.31760 0.54590 0.18500
C 	C 	0.04790 0.26340 0.38710 -0.93900
H 	H 	0.06600 0.27820 0.41210 0.29600
H 	H 	0.07360 0.27770 0.36520 0.28300
H 	H 	0.07730 0.23640 0.38960 0.28500
C 	C 	0.10980 0.33650 0.68340 0.39000
C 	C 	0.74730 0.21020 0.29850 0.33500
N 	N 	0.01650 0.56940 0.47150 -0.22900
N 	N 	0.00490 0.55000 0.54730 -0.22800
N 	N 	0.78460 0.32100 0.53490 -0.22500
N 	N 	0.71780 0.30090 0.45930 -0.22300
O 	O 	0.22250 0.55159 0.48290 -0.39000
O 	O 	0.21440 0.54300 0.56500 -0.38200
O 	O 	0.98150 0.30585 0.51890 -0.35400
O 	O 	0.91250 0.29240 0.43880 -0.36100
O 	O 	0.15040 0.60640 0.29730 -0.47800
O 	O 	0.31880 0.59800 0.30740 -0.40800
O 	O 	0.05610 0.44070 0.70530 -0.44500
O 	O 	0.22170 0.42950 0.71800 -0.45300
O 	O 	0.04990 0.34310 0.71100 -0.57600
O 	O 	0.20220 0.34170 0.69290 -0.48200
O 	O 	0.64850 0.21150 0.28950 -0.47500
O 	O 	0.80650 0.19050 0.27960 -0.44400
O 	O 	0.14020 0.62459 0.52840 -0.62900
C 	C 	0.91100 0.55200 0.48170 -0.12400
C 	C 	0.91400 0.54610 0.50940 0.05600
C 	C 	0.67400 0.30410 0.52470 -0.01700
C 	C 	0.64200 0.29670 0.49320 -0.02300
Fe	Fe	0.63268 0.92955 0.02094 1.21600
Fe	Fe	0.36255 0.17743 0.98279 1.21700
Cd	Cd	0.76326 0.13165 0.24998 1.22600
C 	C 	0.41160 0.92290 0.98500 0.11700
C 	C 	0.32360 0.91950 0.95450 -0.17300
H 	H 	0.32630 0.94110 0.93440 0.09100
H 	H 	0.32570 0.89330 0.94070 0.07400
C 	C 	0.22240 0.92300 0.97290 -0.07700
H 	H 	0.18290 0.89850 0.96500 0.02900
H 	H 	0.18490 0.94600 0.95960 0.03600
C 	C 	0.22270 0.92780 0.01350 -0.00700
H 	H 	0.16780 0.94670 0.01720 0.00700
H 	H 	0.20410 0.90140 0.02420 0.01000
C 	C 	0.30970 0.94140 0.03860 -0.17300
H 	H 	0.30200 0.97070 0.04280 0.08500
H 	H 	0.31050 0.92830 0.06500 0.07000
C 	C 	0.40940 0.93480 0.02510 0.00100
C 	C 	0.52830 0.92630 0.93400 0.03500
H 	H 	0.47050 0.92160 0.91520 0.02300
C 	C 	0.50600 0.97000 0.08140 0.03400
H 	H 	0.44340 0.97530 0.09050 0.01900
C 	C 	0.62740 0.92850 0.91900 -0.07200
C 	C 	0.62890 0.91980 0.87770 -0.02400
H 	H 	0.56810 0.91420 0.86090 0.05200
C 	C 	0.72310 0.91960 0.86140 -0.04500
C 	C 	0.81160 0.93290 0.88670 -0.14600
H 	H 	0.87280 0.93430 0.87550 0.08900
C 	C 	0.81250 0.94400 0.92670 0.15700
C 	C 	0.71730 0.93990 0.94500 0.09700
C 	C 	0.59520 0.98440 0.10550 -0.06500
C 	C 	0.58040 0.00760 0.14120 -0.02300
H 	H 	0.51540 0.00980 0.14920 0.04800
C 	C 	0.66180 0.02650 0.16350 -0.05500
C 	C 	0.75980 0.01960 0.15440 -0.13900
H 	H 	0.81470 0.03110 0.17110 0.08400
C 	C 	0.77930 0.99610 0.12130 0.16200
C 	C 	0.69540 0.97820 0.09740 0.08400
C 	C 	0.90770 0.95660 0.95350 -0.66500
H 	H 	0.89110 0.96330 0.98020 0.23300
H 	H 	0.95610 0.93440 0.95560 0.22300
H 	H 	0.93680 0.98020 0.94200 0.21900
C 	C 	0.88520 0.99070 0.11120 -0.67100
H 	H 	0.88390 0.97350 0.08750 0.23300
H 	H 	0.91320 0.01700 0.10560 0.22200
H 	H 	0.92700 0.97820 0.13380 0.22500
C 	C 	0.73250 0.90510 0.82080 0.30700
C 	C 	0.64770 0.05370 0.19900 0.38000
C 	C 	0.17510 0.17250 0.02060 0.06900
C 	C 	0.10330 0.16760 0.05380 -0.30700
H 	H 	0.12190 0.18820 0.07470 0.12200
H 	H 	0.11590 0.14090 0.06650 0.11200
C 	C 	0.99490 0.17120 0.04030 0.15300
H 	H 	0.96840 0.19230 0.05680 -0.02400
H 	H 	0.96350 0.14550 0.04680 -0.03000
C 	C 	0.96010 0.18000 0.00040 -0.17700
H 	H 	0.92470 0.15570 0.98880 0.07200
H 	H 	0.90900 0.20140 0.00040 0.07100
C 	C 	0.03290 0.19320 0.97120 -0.10100
H 	H 	0.03000 0.22300 0.96920 0.05700
H 	H 	0.00770 0.18240 0.94450 0.03600
C 	C 	0.13950 0.18150 0.98070 0.03000
C 	C 	0.32580 0.17560 0.07150 0.04800
H 	H 	0.28230 0.17070 0.09100 0.01800
C 	C 	0.19250 0.21610 0.92530 0.03900
H 	H 	0.12310 0.22010 0.91670 0.00800
C 	C 	0.43320 0.17860 0.08590 -0.08500
C 	C 	0.46750 0.17210 0.12730 0.00700
H 	H 	0.42010 0.16700 0.14520 0.03200
C 	C 	0.57000 0.17330 0.14200 -0.11800
C 	C 	0.63910 0.18470 0.11500 -0.09000
H 	H 	0.70780 0.18780 0.12540 0.06200
C 	C 	0.61020 0.19160 0.07410 0.10500
C 	C 	0.50770 0.18850 0.05820 0.10500
C 	C 	0.26540 0.23000 0.89840 -0.06600
C 	C 	0.22520 0.24820 0.86160 -0.03200
H 	H 	0.15470 0.24880 0.85400 0.02700
C 	C 	0.29160 0.26600 0.83560 -0.04400
C 	C 	0.39470 0.26020 0.84460 -0.18100
H 	H 	0.43690 0.27060 0.82650 0.09200
C 	C 	0.43970 0.23980 0.87880 0.22400
C 	C 	0.37090 0.22390 0.90540 0.07400
C 	C 	0.68670 0.20360 0.04590 -0.57700
H 	H 	0.65190 0.20720 0.01870 0.20200
H 	H 	0.71930 0.22890 0.05510 0.18400
H 	H 	0.73730 0.18240 0.04590 0.18900
C 	C 	0.54790 0.23660 0.88710 -0.77400
H 	H 	0.56600 0.22180 0.91210 0.25900
H 	H 	0.57360 0.22230 0.86520 0.24600
H 	H 	0.57730 0.26360 0.88960 0.24600
C 	C 	0.60980 0.16350 0.18340 0.37600
C 	C 	0.24730 0.28980 0.79850 0.34800
N 	N 	0.51650 0.93060 0.97150 -0.22700
N 	N 	0.50490 0.95000 0.04730 -0.22300
N 	N 	0.28460 0.17900 0.03490 -0.23000
N 	N 	0.21780 0.19910 0.95930 -0.22700
O 	O 	0.72250 0.94841 0.98290 -0.38900
O 	O 	0.71440 0.95700 0.06500 -0.38100
O 	O 	0.48150 0.19415 0.01890 -0.39100
O 	O 	0.41250 0.20760 0.93880 -0.37800
O 	O 	0.65040 0.89360 0.79730 -0.47100
O 	O 	0.81880 0.90200 0.80740 -0.40100
O 	O 	0.55610 0.05930 0.20530 -0.43200
O 	O 	0.72170 0.07050 0.21800 -0.44800
O 	O 	0.54990 0.15690 0.21100 -0.55900
O 	O 	0.70220 0.15830 0.19290 -0.47300
O 	O 	0.14850 0.28850 0.78950 -0.48500
O 	O 	0.30650 0.30950 0.77960 -0.45300
O 	O 	0.64020 0.87541 0.02840 -0.62400
C 	C 	0.41100 0.94800 0.98170 -0.10300
C 	C 	0.41400 0.95390 0.00940 0.03500
C 	C 	0.17400 0.19590 0.02470 -0.00500
C 	C 	0.14200 0.20330 0.99320 -0.04100
Fe	Fe	0.13268 0.42955 0.02094 1.21300
Fe	Fe	0.86255 0.67743 0.98279 1.21600
Cd	Cd	0.26326 0.63165 0.24998 1.22400
C 	C 	0.91160 0.42290 0.98500 0.13900
C 	C 	0.82360 0.41950 0.95450 -0.14200
H 	H 	0.82630 0.44110 0.93440 0.08400
H 	H 	0.82570 0.39330 0.94070 0.06700
C 	C 	0.72240 0.42300 0.97290 -0.14500
H 	H 	0.68290 0.39850 0.96500 0.05400
H 	H 	0.68490 0.44600 0.95960 0.06000
C 	C 	0.72270 0.42780 0.01350 0.07300
H 	H 	0.66780 0.44670 0.01720 -0.01200
H 	H 	0.70410 0.40140 0.02420 -0.00900
C 	C 	0.80970 0.44140 0.03860 -0.23300
H 	H 	0.80200 0.47070 0.04280 0.10400
H 	H 	0.81050 0.42830 0.06500 0.09400
C 	C 	0.90940 0.43480 0.02510 0.01500
C 	C 	0.02830 0.42630 0.93400 -0.03100
H 	H 	0.97050 0.42160 0.91520 0.06600
C 	C 	0.00600 0.47000 0.08140 -0.03500
H 	H 	0.94340 0.47530 0.09050 0.06300
C 	C 	0.12740 0.42850 0.91900 -0.05700
C 	C 	0.12890 0.41980 0.87770 -0.03100
H 	H 	0.06810 0.41420 0.86090 0.04300
C 	C 	0.22310 0.41960 0.86140 -0.05200
C 	C 	0.31160 0.43290 0.88670 -0.13800
H 	H 	0.37280 0.43430 0.87550 0.07900
C 	C 	0.31250 0.44400 0.92670 0.14000
C 	C 	0.21730 0.43990 0.94500 0.09600
C 	C 	0.09520 0.48440 0.10550 -0.04700
C 	C 	0.08040 0.50760 0.14120 -0.03300
H 	H 	0.01540 0.50980 0.14920 0.04000
C 	C 	0.16180 0.52650 0.16350 -0.05900
C 	C 	0.25980 0.51960 0.15440 -0.13400
H 	H 	0.31470 0.53110 0.17110 0.07700
C 	C 	0.27930 0.49610 0.12130 0.15000
C 	C 	0.19540 0.47820 0.09740 0.08000
C 	C 	0.40770 0.45660 0.95350 -0.62400
H 	H 	0.39110 0.46330 0.98020 0.21600
H 	H 	0.45610 0.43440 0.95560 0.20100
H 	H 	0.43680 0.48020 0.94200 0.19700
C 	C 	0.38520 0.49070 0.11120 -0.63800
H 	H 	0.38390 0.47350 0.08750 0.21800
H 	H 	0.41320 0.51700 0.10560 0.20400
H 	H 	0.42700 0.47820 0.13380 0.20800
C 	C 	0.23250 0.40510 0.82080 0.30800
C 	C 	0.14770 0.55370 0.19900 0.38100
C 	C 	0.67510 0.67250 0.02060 0.06700
C 	C 	0.60330 0.66760 0.05380 -0.24400
H 	H 	0.62190 0.68820 0.07470 0.10800
H 	H 	0.61590 0.64090 0.06650 0.09800
C 	C 	0.49490 0.67120 0.04030 0.08900
H 	H 	0.46840 0.69230 0.05680 -0.01500
H 	H 	0.46350 0.64550 0.04680 -0.02000
C 	C 	0.46010 0.68000 0.00040 -0.17800
H 	H 	0.42470 0.65570 0.98880 0.06500
H 	H 	0.40900 0.70140 0.00040 0.06400
C 	C 	0.53290 0.69320 0.97120 -0.08100
H 	H 	0.53000 0.72300 0.96920 0.05800
H 	H 	0.50770 0.68240 0.94450 0.04000
C 	C 	0.63950 0.68150 0.98070 0.02000
C 	C 	0.82580 0.67560 0.07150 0.03600
H 	H 	0.78230 0.67070 0.09100 0.02200
C 	C 	0.69250 0.71610 0.92530 0.02700
H 	H 	0.62310 0.72010 0.91670 0.01600
C 	C 	0.93320 0.67860 0.08590 -0.05500
C 	C 	0.96750 0.67210 0.12730 0.04800
H 	H 	0.92010 0.66700 0.14520 0.02400
C 	C 	0.07000 0.67330 0.14200 -0.16200
C 	C 	0.13910 0.68470 0.11500 -0.08300
H 	H 	0.20780 0.68780 0.12540 0.05600
C 	C 	0.11020 0.69160 0.07410 0.11100
C 	C 	0.00770 0.68850 0.05820 0.03800
C 	C 	0.76540 0.73000 0.89840 -0.03700
C 	C 	0.72520 0.74820 0.86160 -0.06000
H 	H 	0.65470 0.74880 0.85400 0.04000
C 	C 	0.79160 0.76600 0.83560 -0.00700
C 	C 	0.89470 0.76020 0.84460 -0.24300
H 	H 	0.93690 0.77060 0.82650 0.12200
C 	C 	0.93970 0.73980 0.87880 0.32400
C 	C 	0.87090 0.72390 0.90540 0.03400
C 	C 	0.18670 0.70360 0.04590 -0.57600
H 	H 	0.15190 0.70720 0.01870 0.19300
H 	H 	0.21930 0.72890 0.05510 0.17900
H 	H 	0.23730 0.68240 0.04590 0.18500
C 	C 	0.04790 0.73660 0.88710 -0.93600
H 	H 	0.06600 0.72180 0.91210 0.29500
H 	H 	0.07360 0.72230 0.86520 0.28200
H 	H 	0.07730 0.76360 0.88960 0.28500
C 	C 	0.10980 0.66350 0.18340 0.39000
C 	C 	0.74730 0.78980 0.79850 0.33500
N 	N 	0.01650 0.43060 0.97150 -0.22800
N 	N 	0.00490 0.45000 0.04730 -0.22900
N 	N 	0.78460 0.67900 0.03490 -0.22600
N 	N 	0.71780 0.69910 0.95930 -0.22300
O 	O 	0.22250 0.44841 0.98290 -0.39000
O 	O 	0.21440 0.45700 0.06500 -0.38200
O 	O 	0.98150 0.69415 0.01890 -0.35300
O 	O 	0.91250 0.70760 0.93880 -0.36100
O 	O 	0.15040 0.39360 0.79730 -0.47800
O 	O 	0.31880 0.40200 0.80740 -0.40800
O 	O 	0.05610 0.55930 0.20530 -0.44500
O 	O 	0.22170 0.57050 0.21800 -0.45300
O 	O 	0.04990 0.65690 0.21100 -0.57600
O 	O 	0.20220 0.65830 0.19290 -0.48200
O 	O 	0.64850 0.78850 0.78950 -0.47500
O 	O 	0.80650 0.80950 0.77960 -0.44400
O 	O 	0.14020 0.37541 0.02840 -0.63000
C 	C 	0.91100 0.44800 0.98170 -0.13400
C 	C 	0.91400 0.45390 0.00940 0.06600
C 	C 	0.67400 0.69590 0.02470 -0.01500
C 	C 	0.64200 0.70330 0.99320 -0.02600
Fe	Fe	0.36732 0.92955 0.47906 1.21600
Fe	Fe	0.63745 0.17743 0.51721 1.21700
Cd	Cd	0.23674 0.13165 0.25002 1.22300
C 	C 	0.58840 0.92290 0.51500 0.11600
C 	C 	0.67640 0.91950 0.54550 -0.15500
H 	H 	0.67370 0.94110 0.56560 0.08600
H 	H 	0.67430 0.89330 0.55930 0.07000
C 	C 	0.77760 0.92300 0.52710 -0.10900
H 	H 	0.81710 0.89850 0.53500 0.04600
H 	H 	0.81510 0.94600 0.54040 0.05200
C 	C 	0.77730 0.92780 0.48650 0.02200
H 	H 	0.83220 0.94670 0.48280 0.00800
H 	H 	0.79590 0.90140 0.47580 0.00800
C 	C 	0.69030 0.94140 0.46140 -0.19400
H 	H 	0.69800 0.97070 0.45720 0.09200
H 	H 	0.68950 0.92830 0.43500 0.07900
C 	C 	0.59060 0.93480 0.47490 0.00200
C 	C 	0.47170 0.92630 0.56600 0.03900
H 	H 	0.52950 0.92160 0.58480 0.02200
C 	C 	0.49400 0.97000 0.41860 0.03900
H 	H 	0.55660 0.97530 0.40950 0.01800
C 	C 	0.37260 0.92850 0.58100 -0.08300
C 	C 	0.37110 0.91980 0.62230 -0.01100
H 	H 	0.43190 0.91420 0.63910 0.04700
C 	C 	0.27690 0.91960 0.63860 -0.06500
C 	C 	0.18840 0.93290 0.61330 -0.11800
H 	H 	0.12720 0.93430 0.62450 0.06600
C 	C 	0.18750 0.94400 0.57330 0.11300
C 	C 	0.28270 0.93990 0.55500 0.11400
C 	C 	0.40480 0.98440 0.39450 -0.07700
C 	C 	0.41960 0.00760 0.35880 -0.01100
H 	H 	0.48460 0.00980 0.35080 0.04400
C 	C 	0.33820 0.02650 0.33650 -0.07200
C 	C 	0.24020 0.01960 0.34560 -0.11300
H 	H 	0.18530 0.03110 0.32890 0.06600
C 	C 	0.22070 0.99610 0.37870 0.12200
C 	C 	0.30460 0.97820 0.40260 0.10200
C 	C 	0.09230 0.95660 0.54650 -0.57000
H 	H 	0.10890 0.96330 0.51980 0.19500
H 	H 	0.04390 0.93440 0.54440 0.17500
H 	H 	0.06320 0.98020 0.55800 0.17100
C 	C 	0.11480 0.99070 0.38880 -0.58500
H 	H 	0.11610 0.97350 0.41250 0.19700
H 	H 	0.08680 0.01700 0.39440 0.18000
H 	H 	0.07300 0.97820 0.36620 0.18400
C 	C 	0.26750 0.90510 0.67920 0.31400
C 	C 	0.35230 0.05370 0.30100 0.38600
C 	C 	0.82490 0.17250 0.47940 0.06500
C 	C 	0.89670 0.16760 0.44620 -0.17100
H 	H 	0.87810 0.18820 0.42530 0.09200
H 	H 	0.88410 0.14090 0.43350 0.08100
C 	C 	0.00510 0.17120 0.45970 0.00700
H 	H 	0.03160 0.19230 0.44320 -0.00100
H 	H 	0.03650 0.14550 0.45320 -0.00500
C 	C 	0.03990 0.18000 0.49960 -0.16300
H 	H 	0.07530 0.15570 0.51120 0.05300
H 	H 	0.09100 0.20140 0.49960 0.05300
C 	C 	0.96710 0.19320 0.52880 -0.07300
H 	H 	0.97000 0.22300 0.53080 0.06300
H 	H 	0.99230 0.18240 0.55550 0.04900
C 	C 	0.86050 0.18150 0.51930 0.01100
C 	C 	0.67420 0.17560 0.42850 0.04800
H 	H 	0.71770 0.17070 0.40900 0.01900
C 	C 	0.80750 0.21610 0.57470 0.03700
H 	H 	0.87690 0.22010 0.58330 0.01600
C 	C 	0.56680 0.17860 0.41410 -0.08800
C 	C 	0.53250 0.17210 0.37270 0.01100
H 	H 	0.57990 0.16700 0.35480 0.03000
C 	C 	0.43000 0.17330 0.35800 -0.12600
C 	C 	0.36090 0.18470 0.38500 -0.08100
H 	H 	0.29220 0.18780 0.37460 0.05300
C 	C 	0.38980 0.19160 0.42590 0.09300
C 	C 	0.49230 0.18850 0.44180 0.10900
C 	C 	0.73460 0.23000 0.60160 -0.06100
C 	C 	0.77480 0.24820 0.63840 -0.03600
H 	H 	0.84530 0.24880 0.64600 0.03700
C 	C 	0.70840 0.26600 0.66440 -0.03900
C 	C 	0.60530 0.26020 0.65540 -0.18200
H 	H 	0.56310 0.27060 0.67350 0.09200
C 	C 	0.56030 0.23980 0.62120 0.22200
C 	C 	0.62910 0.22390 0.59460 0.07400
C 	C 	0.31330 0.20360 0.45410 -0.55600
H 	H 	0.34810 0.20720 0.48130 0.19400
H 	H 	0.28070 0.22890 0.44490 0.17300
H 	H 	0.26270 0.18240 0.45410 0.17900
C 	C 	0.45210 0.23660 0.61290 -0.76700
H 	H 	0.43400 0.22180 0.58790 0.25500
H 	H 	0.42640 0.22230 0.63480 0.24100
H 	H 	0.42270 0.26360 0.61040 0.24300
C 	C 	0.39020 0.16350 0.31660 0.38000
C 	C 	0.75270 0.28980 0.70150 0.34500
N 	N 	0.48350 0.93060 0.52850 -0.22700
N 	N 	0.49510 0.95000 0.45270 -0.22500
N 	N 	0.71540 0.17900 0.46510 -0.22700
N 	N 	0.78220 0.19910 0.54070 -0.22500
O 	O 	0.27750 0.94841 0.51710 -0.39500
O 	O 	0.28560 0.95700 0.43500 -0.38800
O 	O 	0.51850 0.19415 0.48110 -0.39300
O 	O 	0.58750 0.20760 0.56120 -0.37800
O 	O 	0.34960 0.89360 0.70270 -0.47300
O 	O 	0.18120 0.90200 0.69260 -0.41500
O 	O 	0.44390 0.05930 0.29470 -0.43400
O 	O 	0.27830 0.07050 0.28200 -0.45600
O 	O 	0.45010 0.15690 0.28900 -0.56100
O 	O 	0.29780 0.15830 0.30710 -0.48100
O 	O 	0.85150 0.28850 0.71050 -0.46800
O 	O 	0.69350 0.30950 0.72040 -0.45100
O 	O 	0.35980 0.87541 0.47160 -0.62600
C 	C 	0.58900 0.94800 0.51830 -0.11300
C 	C 	0.58600 0.95390 0.49060 0.04400
C 	C 	0.82600 0.19590 0.47530 -0.03000
C 	C 	0.85800 0.20330 0.50680 -0.00600
Fe	Fe	0.86732 0.42955 0.47906 1.21800
Fe	Fe	0.13745 0.67743 0.51721 1.21700
Cd	Cd	0.73674 0.63165 0.25002 1.22500
C 	C 	0.08840 0.42290 0.51500 0.09300
C 	C 	0.17640 0.41950 0.54550 -0.14800
H 	H 	0.17370 0.44110 0.56560 0.08200
H 	H 	0.17430 0.39330 0.55930 0.06500
C 	C 	0.27760 0.42300 0.52710 -0.10600
H 	H 	0.31710 0.39850 0.53500 0.04100
H 	H 	0.31510 0.44600 0.54040 0.04800
C 	C 	0.27730 0.42780 0.48650 0.01500
H 	H 	0.33220 0.44670 0.48280 0.00500
H 	H 	0.29590 0.40140 0.47580 0.00500
C 	C 	0.19030 0.44140 0.46140 -0.18200
H 	H 	0.19800 0.47070 0.45720 0.08600
H 	H 	0.18950 0.42830 0.43500 0.07000
C 	C 	0.09060 0.43480 0.47490 -0.01100
C 	C 	0.97170 0.42630 0.56600 0.10500
H 	H 	0.02950 0.42160 0.58480 -0.02100
C 	C 	0.99400 0.47000 0.41860 0.10800
H 	H 	0.05660 0.47530 0.40950 -0.02700
C 	C 	0.87260 0.42850 0.58100 -0.09800
C 	C 	0.87110 0.41980 0.62230 -0.00500
H 	H 	0.93190 0.41420 0.63910 0.05600
C 	C 	0.77690 0.41960 0.63860 -0.05800
C 	C 	0.68840 0.43290 0.61330 -0.12700
H 	H 	0.62720 0.43430 0.62450 0.07600
C 	C 	0.68750 0.44400 0.57330 0.13000
C 	C 	0.78270 0.43990 0.55500 0.11500
C 	C 	0.90480 0.48440 0.39450 -0.09500
C 	C 	0.91960 0.50760 0.35880 -0.00000
H 	H 	0.98460 0.50980 0.35080 0.05200
C 	C 	0.83820 0.52650 0.33650 -0.06800
C 	C 	0.74020 0.51960 0.34560 -0.11800
H 	H 	0.68530 0.53110 0.32890 0.07300
C 	C 	0.72070 0.49610 0.37870 0.13300
C 	C 	0.80460 0.47820 0.40260 0.10700
C 	C 	0.59230 0.45660 0.54650 -0.61200
H 	H 	0.60890 0.46330 0.51980 0.21300
H 	H 	0.54390 0.43440 0.54440 0.19700
H 	H 	0.56320 0.48020 0.55800 0.19400
C 	C 	0.61480 0.49070 0.38880 -0.61600
H 	H 	0.61610 0.47350 0.41250 0.21200
H 	H 	0.58680 0.51700 0.39440 0.19700
H 	H 	0.57300 0.47820 0.36620 0.20100
C 	C 	0.76750 0.40510 0.67920 0.31100
C 	C 	0.85230 0.55370 0.30100 0.38300
C 	C 	0.32490 0.67250 0.47940 0.06800
C 	C 	0.39670 0.66760 0.44620 -0.24600
H 	H 	0.37810 0.68820 0.42530 0.10900
H 	H 	0.38410 0.64090 0.43350 0.09900
C 	C 	0.50510 0.67120 0.45970 0.09100
H 	H 	0.53160 0.69230 0.44320 -0.01600
H 	H 	0.53650 0.64550 0.45320 -0.02100
C 	C 	0.53990 0.68000 0.49960 -0.18000
H 	H 	0.57530 0.65570 0.51120 0.06700
H 	H 	0.59100 0.70140 0.49960 0.06600
C 	C 	0.46710 0.69320 0.52880 -0.08100
H 	H 	0.47000 0.72300 0.53080 0.05900
H 	H 	0.49230 0.68240 0.55550 0.04100
C 	C 	0.36050 0.68150 0.51930 0.02100
C 	C 	0.17420 0.67560 0.42850 0.05900
H 	H 	0.21770 0.67070 0.40900 0.01500
C 	C 	0.30750 0.71610 0.57470 0.05000
H 	H 	0.37690 0.72010 0.58330 0.00900
C 	C 	0.06680 0.67860 0.41410 -0.11800
C 	C 	0.03250 0.67210 0.37270 -0.03100
H 	H 	0.07990 0.66700 0.35480 0.03900
C 	C 	0.93000 0.67330 0.35800 -0.08100
C 	C 	0.86090 0.68470 0.38500 -0.08900
H 	H 	0.79220 0.68780 0.37460 0.06000
C 	C 	0.88980 0.69160 0.42590 0.08700
C 	C 	0.99230 0.68850 0.44180 0.17500
C 	C 	0.23460 0.73000 0.60160 -0.09000
C 	C 	0.27480 0.74820 0.63840 -0.00800
H 	H 	0.34530 0.74880 0.64600 0.02300
C 	C 	0.20840 0.76600 0.66440 -0.07600
C 	C 	0.10530 0.76020 0.65540 -0.12000
H 	H 	0.06310 0.77060 0.67350 0.06200
C 	C 	0.06030 0.73980 0.62120 0.12100
C 	C 	0.12910 0.72390 0.59460 0.11400
C 	C 	0.81330 0.70360 0.45410 -0.55700
H 	H 	0.84810 0.70720 0.48130 0.20300
H 	H 	0.78070 0.72890 0.44490 0.17900
H 	H 	0.76270 0.68240 0.45410 0.18200
C 	C 	0.95210 0.73660 0.61290 -0.60300
H 	H 	0.93400 0.72180 0.58790 0.21800
H 	H 	0.92640 0.72230 0.63480 0.20400
H 	H 	0.92270 0.76360 0.61040 0.20300
C 	C 	0.89020 0.66350 0.31660 0.36500
C 	C 	0.25270 0.78980 0.70150 0.35900
N 	N 	0.98350 0.43060 0.52850 -0.22300
N 	N 	0.99510 0.45000 0.45270 -0.22100
N 	N 	0.21540 0.67900 0.46510 -0.23200
N 	N 	0.28220 0.69910 0.54070 -0.22900
O 	O 	0.77750 0.44841 0.51710 -0.39400
O 	O 	0.78560 0.45700 0.43500 -0.38700
O 	O 	0.01850 0.69415 0.48110 -0.43000
O 	O 	0.08750 0.70760 0.56120 -0.39500
O 	O 	0.84960 0.39360 0.70270 -0.46300
O 	O 	0.68120 0.40200 0.69260 -0.40700
O 	O 	0.94390 0.55930 0.29470 -0.41800
O 	O 	0.77830 0.57050 0.28200 -0.45000
O 	O 	0.95010 0.65690 0.28900 -0.53800
O 	O 	0.79780 0.65830 0.30710 -0.47200
O 	O 	0.35150 0.78850 0.71050 -0.48200
O 	O 	0.19350 0.80950 0.72040 -0.46100
O 	O 	0.85980 0.37541 0.47160 -0.62100
C 	C 	0.08900 0.44800 0.51830 -0.10300
C 	C 	0.08600 0.45390 0.49060 0.03400
C 	C 	0.32600 0.69590 0.47530 -0.01500
C 	C 	0.35800 0.70330 0.50680 -0.02700
Cd	Cd	0.50000 0.89885 0.75000 1.23100
Cd	Cd	0.50000 0.78883 0.75000 1.19100
Cd	Cd	0.00000 0.39885 0.75000 1.22000
Cd	Cd	0.00000 0.28883 0.75000 1.18000
Cd	Cd	0.50000 0.10115 0.25000 1.23100
Cd	Cd	0.50000 0.21117 0.25000 1.19100
Cd	Cd	-0.00000 0.60115 0.25000 1.22000
Cd	Cd	-0.00000 0.71117 0.25000 1.18000
