data_crystal

_cell_length_a 17.80740
_cell_length_b 13.11450
_cell_length_c 11.05140
_cell_angle_alpha 90.00000
_cell_angle_beta  103.84400
_cell_angle_gamma 90.00000

_symmetry_space_group_name_	'P 1'
_symmetry_space_group_name_H-M	'P 1'

loop_
_symmetry_equiv_pos_as_xyz
  x,y,z

loop_
_atom_site_label
_atom_site_type_symbol
_atom_site_fract_x
_atom_site_fract_y
_atom_site_fract_z
_atom_site_charge
Mg	Mg	0.58662 0.03403 0.54347 1.47500
N 	N 	0.68677 0.93120 0.61550 -0.20100
O 	O 	0.57715 0.98486 0.72229 -0.65900
O 	O 	0.63585 0.91444 0.90432 -0.50100
O 	O 	0.85157 0.65944 0.86760 -0.46300
O 	O 	0.91611 0.70314 0.72400 -0.46300
O 	O 	0.47874 0.08445 0.55380 -1.15400
H 	H 	0.46700 0.13600 0.52800 0.51300
C 	C 	0.69094 0.89260 0.73030 -0.09400
C 	C 	0.74621 0.82200 0.78740 0.04400
H 	H 	0.74700 0.79900 0.87700 0.04900
C 	C 	0.80081 0.79030 0.72380 -0.09400
C 	C 	0.79819 0.83230 0.60730 -0.00500
H 	H 	0.83500 0.80800 0.55500 0.04900
C 	C 	0.74046 0.90120 0.55650 0.02100
H 	H 	0.73400 0.93000 0.47500 0.02100
C 	C 	0.63005 0.93330 0.79210 0.43800
C 	C 	0.86140 0.71080 0.77720 0.40400
Mg	Mg	0.08662 0.53403 0.54347 1.47000
N 	N 	0.18677 0.43120 0.61550 -0.20200
O 	O 	0.07715 0.48486 0.72229 -0.71200
O 	O 	0.13585 0.41444 0.90432 -0.52900
O 	O 	0.35157 0.15944 0.86760 -0.48900
O 	O 	0.41611 0.20314 0.72400 -0.51300
O 	O 	0.97874 0.58445 0.55380 -1.06300
H 	H 	0.96700 0.63600 0.52800 0.51000
C 	C 	0.19094 0.39260 0.73030 -0.11000
C 	C 	0.24621 0.32200 0.78740 0.04500
H 	H 	0.24700 0.29900 0.87700 0.03800
C 	C 	0.30081 0.29030 0.72380 -0.11100
C 	C 	0.29819 0.33230 0.60730 -0.00400
H 	H 	0.33500 0.30800 0.55500 0.03600
C 	C 	0.24046 0.40120 0.55650 0.01100
H 	H 	0.23400 0.43000 0.47500 0.01900
C 	C 	0.13005 0.43330 0.79210 0.44400
C 	C 	0.36140 0.21080 0.77720 0.40800
Mg	Mg	0.41338 0.03403 0.95653 1.47500
N 	N 	0.31323 0.93120 0.88450 -0.20200
O 	O 	0.42285 0.98486 0.77771 -0.65800
O 	O 	0.36415 0.91444 0.59568 -0.50800
O 	O 	0.14843 0.65944 0.63240 -0.50400
O 	O 	0.08389 0.70314 0.77600 -0.55600
O 	O 	0.52126 0.08445 0.94620 -1.15600
H 	H 	0.53300 0.13600 0.97200 0.51200
C 	C 	0.30906 0.89260 0.76970 -0.10100
C 	C 	0.25379 0.82200 0.71260 0.04300
H 	H 	0.25300 0.79900 0.62300 0.03900
C 	C 	0.19919 0.79030 0.77620 -0.11400
C 	C 	0.20181 0.83230 0.89270 -0.01600
H 	H 	0.16500 0.80800 0.94500 0.02900
C 	C 	0.25954 0.90120 0.94350 0.02900
H 	H 	0.26600 0.93000 0.02500 0.00100
C 	C 	0.36995 0.93330 0.70790 0.43800
C 	C 	0.13860 0.71080 0.72280 0.40800
Mg	Mg	0.91338 0.53403 0.95653 1.48000
N 	N 	0.81323 0.43120 0.88450 -0.19900
O 	O 	0.92285 0.48486 0.77771 -0.61000
O 	O 	0.86415 0.41444 0.59568 -0.48200
O 	O 	0.64843 0.15944 0.63240 -0.48200
O 	O 	0.58389 0.20314 0.77600 -0.51300
O 	O 	0.02126 0.58445 0.94620 -1.23500
H 	H 	0.03300 0.63600 0.97200 0.51500
C 	C 	0.80906 0.39260 0.76970 -0.09000
C 	C 	0.75379 0.32200 0.71260 0.04500
H 	H 	0.75300 0.29900 0.62300 0.04700
C 	C 	0.69919 0.29030 0.77620 -0.10600
C 	C 	0.70181 0.33230 0.89270 -0.00300
H 	H 	0.66500 0.30800 0.94500 0.03300
C 	C 	0.75954 0.40120 0.94350 0.00500
H 	H 	0.76600 0.43000 0.02500 0.02400
C 	C 	0.86995 0.43330 0.70790 0.43100
C 	C 	0.63860 0.21080 0.72280 0.40800
Mg	Mg	0.41338 0.96597 0.45653 1.47500
N 	N 	0.31323 0.06880 0.38450 -0.20100
O 	O 	0.42285 0.01514 0.27771 -0.66000
O 	O 	0.36415 0.08556 0.09568 -0.50400
O 	O 	0.14843 0.34056 0.13240 -0.50500
O 	O 	0.08389 0.29686 0.27600 -0.55800
O 	O 	0.52126 0.91555 0.44620 -1.15400
H 	H 	0.53300 0.86400 0.47200 0.51300
C 	C 	0.30906 0.10740 0.26970 -0.10200
C 	C 	0.25379 0.17800 0.21260 0.04600
H 	H 	0.25300 0.20100 0.12300 0.03900
C 	C 	0.19919 0.20970 0.27620 -0.11900
C 	C 	0.20181 0.16770 0.39270 -0.00700
H 	H 	0.16500 0.19200 0.44500 0.02300
C 	C 	0.25954 0.09880 0.44350 0.00700
H 	H 	0.26600 0.07000 0.52500 0.01400
C 	C 	0.36995 0.06670 0.20790 0.43800
C 	C 	0.13860 0.28920 0.22280 0.41000
Mg	Mg	0.91338 0.46597 0.45653 1.48000
N 	N 	0.81323 0.56880 0.38450 -0.20000
O 	O 	0.92285 0.51514 0.27771 -0.60700
O 	O 	0.86415 0.58556 0.09568 -0.48100
O 	O 	0.64843 0.84056 0.13240 -0.48300
O 	O 	0.58389 0.79686 0.27600 -0.51300
O 	O 	0.02126 0.41555 0.44620 -1.23800
H 	H 	0.03300 0.36400 0.47200 0.51300
C 	C 	0.80906 0.60740 0.26970 -0.08800
C 	C 	0.75379 0.67800 0.21260 0.04400
H 	H 	0.75300 0.70100 0.12300 0.04700
C 	C 	0.69919 0.70970 0.27620 -0.10400
C 	C 	0.70181 0.66770 0.39270 -0.00700
H 	H 	0.66500 0.69200 0.44500 0.03600
C 	C 	0.75954 0.59880 0.44350 0.01600
H 	H 	0.76600 0.57000 0.52500 0.01700
C 	C 	0.86995 0.56670 0.20790 0.43000
C 	C 	0.63860 0.78920 0.22280 0.40700
Mg	Mg	0.58662 0.96597 0.04347 1.47500
N 	N 	0.68677 0.06880 0.11550 -0.20300
O 	O 	0.57715 0.01514 0.22229 -0.65800
O 	O 	0.63585 0.08556 0.40432 -0.50400
O 	O 	0.85157 0.34056 0.36760 -0.46100
O 	O 	0.91611 0.29686 0.22400 -0.46000
O 	O 	0.47874 0.91555 0.05380 -1.15600
H 	H 	0.46700 0.86400 0.02800 0.51200
C 	C 	0.69094 0.10740 0.23030 -0.09200
C 	C 	0.74621 0.17800 0.28740 0.04100
H 	H 	0.74700 0.20100 0.37700 0.04900
C 	C 	0.80081 0.20970 0.22380 -0.08800
C 	C 	0.79819 0.16770 0.10730 -0.01600
H 	H 	0.83500 0.19200 0.05500 0.05500
C 	C 	0.74046 0.09880 0.05650 0.04500
H 	H 	0.73400 0.07000 0.97500 0.00600
C 	C 	0.63005 0.06670 0.29210 0.43700
C 	C 	0.86140 0.28920 0.27720 0.40200
Mg	Mg	0.08662 0.46597 0.04347 1.47000
N 	N 	0.18677 0.56880 0.11550 -0.20100
O 	O 	0.07715 0.51514 0.22229 -0.71300
O 	O 	0.13585 0.58556 0.40432 -0.53100
O 	O 	0.35157 0.84056 0.36760 -0.48800
O 	O 	0.41611 0.79686 0.22400 -0.51400
O 	O 	0.97874 0.41555 0.05380 -1.06100
H 	H 	0.96700 0.36400 0.02800 0.51100
C 	C 	0.19094 0.60740 0.23030 -0.11200
C 	C 	0.24621 0.67800 0.28740 0.04600
H 	H 	0.24700 0.70100 0.37700 0.03800
C 	C 	0.30081 0.70970 0.22380 -0.11200
C 	C 	0.29819 0.66770 0.10730 -0.00100
H 	H 	0.33500 0.69200 0.05500 0.03400
C 	C 	0.24046 0.59880 0.05650 0.00400
H 	H 	0.23400 0.57000 0.97500 0.02400
C 	C 	0.13005 0.56670 0.29210 0.44500
C 	C 	0.36140 0.78920 0.27720 0.40800
Mg	Mg	0.50000 0.09502 0.75000 1.47900
Mg	Mg	0.00000 0.59502 0.75000 1.46600
Mg	Mg	0.50000 0.90498 0.25000 1.47900
Mg	Mg	0.00000 0.40498 0.25000 1.46600
