data_crystal

_cell_length_a 18.04880
_cell_length_b 12.75150
_cell_length_c 10.99780
_cell_angle_alpha 90.00000
_cell_angle_beta  103.13000
_cell_angle_gamma 90.00000

_symmetry_space_group_name_	'P 1'
_symmetry_space_group_name_H-M	'P 1'

loop_
_symmetry_equiv_pos_as_xyz
  x,y,z

loop_
_atom_site_label
_atom_site_type_symbol
_atom_site_fract_x
_atom_site_fract_y
_atom_site_fract_z
_atom_site_charge
N 	N 	0.18565 0.93323 0.61203 -0.20100
Mg	Mg	0.08501 0.03650 0.54126 1.46900
O 	O 	0.07652 0.98555 0.72054 -0.72100
O 	O 	0.13326 0.91067 0.90084 -0.53000
O 	O 	0.35463 0.66607 0.86983 -0.48600
O 	O 	0.41701 0.70971 0.72387 -0.51400
O 	O 	0.97880 0.08679 0.55373 -0.91100
H 	H 	0.96240 0.14500 0.52800 0.36500
C 	C 	0.19032 0.89409 0.72760 -0.10300
C 	C 	0.24655 0.82590 0.78590 0.03400
H 	H 	0.24450 0.80600 0.86400 0.04500
C 	C 	0.30175 0.79570 0.72250 -0.10100
C 	C 	0.29836 0.83790 0.60480 -0.01900
H 	H 	0.33620 0.82000 0.55900 0.04400
C 	C 	0.23999 0.90550 0.55330 0.02400
H 	H 	0.23220 0.93400 0.46600 0.01500
C 	C 	0.12824 0.93213 0.78900 0.45000
C 	C 	0.36325 0.71731 0.77750 0.41400
N 	N 	0.68565 0.43323 0.61203 -0.20200
Mg	Mg	0.58501 0.53650 0.54126 1.47300
O 	O 	0.57652 0.48555 0.72054 -0.67600
O 	O 	0.63326 0.41067 0.90084 -0.51300
O 	O 	0.85463 0.16607 0.86983 -0.46700
O 	O 	0.91701 0.20971 0.72387 -0.46700
O 	O 	0.47880 0.58679 0.55373 -0.99200
H 	H 	0.46240 0.64500 0.52800 0.36000
C 	C 	0.69032 0.39409 0.72760 -0.09100
C 	C 	0.74655 0.32590 0.78590 0.02900
H 	H 	0.74450 0.30600 0.86400 0.05100
C 	C 	0.80175 0.29570 0.72250 -0.08400
C 	C 	0.79836 0.33790 0.60480 -0.02300
H 	H 	0.83620 0.32000 0.55900 0.05900
C 	C 	0.73999 0.40550 0.55330 0.03400
H 	H 	0.73220 0.43400 0.46600 0.01800
C 	C 	0.62824 0.43213 0.78900 0.44400
C 	C 	0.86325 0.21731 0.77750 0.41000
N 	N 	0.81435 0.93323 0.88797 -0.20200
Mg	Mg	0.91499 0.03650 0.95874 1.47700
O 	O 	0.92348 0.98555 0.77946 -0.62300
O 	O 	0.86674 0.91067 0.59916 -0.48800
O 	O 	0.64537 0.66607 0.63017 -0.48200
O 	O 	0.58299 0.70971 0.77613 -0.51400
O 	O 	0.02120 0.08679 0.94627 -1.07200
H 	H 	0.03760 0.14500 0.97200 0.35600
C 	C 	0.80968 0.89409 0.77240 -0.08200
C 	C 	0.75345 0.82590 0.71410 0.02800
H 	H 	0.75550 0.80600 0.63600 0.05300
C 	C 	0.69825 0.79570 0.77750 -0.09100
C 	C 	0.70164 0.83790 0.89520 -0.02700
H 	H 	0.66380 0.82000 0.94100 0.04700
C 	C 	0.76001 0.90550 0.94670 0.03800
H 	H 	0.76780 0.93400 0.03400 0.00600
C 	C 	0.87176 0.93213 0.71100 0.43600
C 	C 	0.63675 0.71731 0.72250 0.41200
N 	N 	0.31435 0.43323 0.88797 -0.20100
Mg	Mg	0.41499 0.53650 0.95874 1.47300
O 	O 	0.42348 0.48555 0.77946 -0.67700
O 	O 	0.36674 0.41067 0.59916 -0.51400
O 	O 	0.14537 0.16607 0.63017 -0.50700
O 	O 	0.08299 0.20971 0.77613 -0.56000
O 	O 	0.52120 0.58679 0.94627 -0.99200
H 	H 	0.53760 0.64500 0.97200 0.36100
C 	C 	0.30968 0.39409 0.77240 -0.10000
C 	C 	0.25345 0.32590 0.71410 0.03600
H 	H 	0.25550 0.30600 0.63600 0.04200
C 	C 	0.19825 0.29570 0.77750 -0.11300
C 	C 	0.20164 0.33790 0.89520 -0.01800
H 	H 	0.16380 0.32000 0.94100 0.03000
C 	C 	0.26001 0.40550 0.94670 0.01800
H 	H 	0.26780 0.43400 0.03400 0.01200
C 	C 	0.37176 0.43213 0.71100 0.44500
C 	C 	0.13675 0.21731 0.72250 0.41700
N 	N 	0.81435 0.06677 0.38797 -0.20100
Mg	Mg	0.91499 0.96350 0.45874 1.47800
O 	O 	0.92348 0.01445 0.27946 -0.62100
O 	O 	0.86674 0.08933 0.09916 -0.48200
O 	O 	0.64537 0.33393 0.13017 -0.48100
O 	O 	0.58299 0.29029 0.27613 -0.51400
O 	O 	0.02120 0.91321 0.44627 -1.07100
H 	H 	0.03760 0.85500 0.47200 0.35600
C 	C 	0.80968 0.10591 0.27240 -0.08100
C 	C 	0.75345 0.17410 0.21410 0.02900
H 	H 	0.75550 0.19400 0.13600 0.05500
C 	C 	0.69825 0.20430 0.27750 -0.09300
C 	C 	0.70164 0.16210 0.39520 -0.02300
H 	H 	0.66380 0.18000 0.44100 0.04500
C 	C 	0.76001 0.09450 0.44670 0.02800
H 	H 	0.76780 0.06600 0.53400 0.01300
C 	C 	0.87176 0.06787 0.21100 0.43600
C 	C 	0.63675 0.28269 0.22250 0.41300
N 	N 	0.31435 0.56677 0.38797 -0.20100
Mg	Mg	0.41499 0.46350 0.45874 1.47300
O 	O 	0.42348 0.51445 0.27946 -0.67700
O 	O 	0.36674 0.58933 0.09916 -0.51600
O 	O 	0.14537 0.83393 0.13017 -0.51000
O 	O 	0.08299 0.79029 0.27613 -0.56100
O 	O 	0.52120 0.41321 0.44627 -0.99200
H 	H 	0.53760 0.35500 0.47200 0.36000
C 	C 	0.30968 0.60591 0.27240 -0.10100
C 	C 	0.25345 0.67410 0.21410 0.03700
H 	H 	0.25550 0.69400 0.13600 0.04000
C 	C 	0.19825 0.70430 0.27750 -0.11400
C 	C 	0.20164 0.66210 0.39520 -0.01600
H 	H 	0.16380 0.68000 0.44100 0.02900
C 	C 	0.26001 0.59450 0.44670 0.01600
H 	H 	0.26780 0.56600 0.53400 0.01200
C 	C 	0.37176 0.56787 0.21100 0.44500
C 	C 	0.13675 0.78269 0.22250 0.41900
N 	N 	0.18565 0.06677 0.11203 -0.20300
Mg	Mg	0.08501 0.96350 0.04126 1.46700
O 	O 	0.07652 0.01445 0.22054 -0.72300
O 	O 	0.13326 0.08933 0.40084 -0.53600
O 	O 	0.35463 0.33393 0.36983 -0.48700
O 	O 	0.41701 0.29029 0.22387 -0.51400
O 	O 	0.97880 0.91321 0.05373 -0.91200
H 	H 	0.96240 0.85500 0.02800 0.36400
C 	C 	0.19032 0.10591 0.22760 -0.10400
C 	C 	0.24655 0.17410 0.28590 0.03300
H 	H 	0.24450 0.19400 0.36400 0.04300
C 	C 	0.30175 0.20430 0.22250 -0.09900
C 	C 	0.29836 0.16210 0.10480 -0.02400
H 	H 	0.33620 0.18000 0.05900 0.04700
C 	C 	0.23999 0.09450 0.05330 0.03500
H 	H 	0.23220 0.06600 0.96600 0.00800
C 	C 	0.12824 0.06787 0.28900 0.45000
C 	C 	0.36325 0.28269 0.27750 0.41400
N 	N 	0.68565 0.56677 0.11203 -0.20300
Mg	Mg	0.58501 0.46350 0.04126 1.47300
O 	O 	0.57652 0.51445 0.22054 -0.67600
O 	O 	0.63326 0.58933 0.40084 -0.51100
O 	O 	0.85463 0.83393 0.36983 -0.46300
O 	O 	0.91701 0.79029 0.22387 -0.46500
O 	O 	0.47880 0.41321 0.05373 -0.99200
H 	H 	0.46240 0.35500 0.02800 0.36100
C 	C 	0.69032 0.60591 0.22760 -0.09000
C 	C 	0.74655 0.67410 0.28590 0.02800
H 	H 	0.74450 0.69400 0.36400 0.05300
C 	C 	0.80175 0.70430 0.22250 -0.08300
C 	C 	0.79836 0.66210 0.10480 -0.02500
H 	H 	0.83620 0.68000 0.05900 0.05900
C 	C 	0.73999 0.59450 0.05330 0.03600
H 	H 	0.73220 0.56600 0.96600 0.01600
C 	C 	0.62824 0.56787 0.28900 0.44300
C 	C 	0.86325 0.78269 0.27750 0.40900
Mg	Mg	-0.00000 0.09826 0.75000 1.46400
Mg	Mg	0.50000 0.59826 0.75000 1.47700
Mg	Mg	-0.00000 0.90174 0.25000 1.46300
Mg	Mg	0.50000 0.40174 0.25000 1.47700
