data_crystal

_cell_length_a 18.34390
_cell_length_b 8.80900
_cell_length_c 23.43880
_cell_angle_alpha 90.00000
_cell_angle_beta  101.96500
_cell_angle_gamma 90.00000

_symmetry_space_group_name_	'P 1'
_symmetry_space_group_name_H-M	'P 1'

loop_
_symmetry_equiv_pos_as_xyz
  x,y,z

loop_
_atom_site_label
_atom_site_type_symbol
_atom_site_fract_x
_atom_site_fract_y
_atom_site_fract_z
_atom_site_charge
Zn	Zn	0.42347 0.70336 0.69666 1.24500
O 	O 	0.43929 0.82160 0.62234 -0.39900
O 	O 	0.59560 0.59510 0.72867 -0.42000
O 	O 	0.81566 0.12970 0.65266 -0.35300
C 	C 	0.54861 0.29970 0.61971 -0.01900
H 	H 	0.49600 0.31050 0.60950 0.06700
O 	O 	0.82419 0.35010 0.69756 -0.33400
O 	O 	0.48394 0.52750 0.67640 -0.42900
O 	O 	0.53326 0.97350 0.66152 -0.29800
C 	C 	0.58351 0.18750 0.59322 0.02100
C 	C 	0.48864 0.91720 0.61909 0.34200
C 	C 	0.66772 0.37990 0.67584 0.00800
H 	H 	0.69650 0.44580 0.70390 0.07100
C 	C 	0.55379 0.51640 0.69109 0.37500
C 	C 	0.66076 0.17220 0.60808 -0.03300
H 	H 	0.68480 0.09640 0.58980 0.07100
C 	C 	0.70286 0.26760 0.64967 -0.03800
C 	C 	0.54369 0.11810 0.48919 -0.04000
H 	H 	0.57410 0.20000 0.48170 0.07000
C 	C 	0.59032 0.39640 0.66109 -0.06700
C 	C 	0.53959 0.08710 0.54692 0.03400
C 	C 	0.49489 0.96590 0.55792 -0.06400
C 	C 	0.78591 0.24760 0.66721 0.28800
H 	H 	0.49000 0.91100 0.77800 0.30400
Zn	Zn	0.92347 0.20336 0.69666 1.24200
O 	O 	0.93929 0.32160 0.62234 -0.39900
O 	O 	0.09560 0.09510 0.72867 -0.42800
O 	O 	0.31566 0.62970 0.65266 -0.35300
C 	C 	0.04861 0.79970 0.61971 0.06400
H 	H 	0.99600 0.81050 0.60950 0.02200
O 	O 	0.32419 0.85010 0.69756 -0.33300
O 	O 	0.98394 0.02750 0.67640 -0.46000
O 	O 	0.03326 0.47350 0.66152 -0.27600
C 	C 	0.08351 0.68750 0.59322 -0.02500
C 	C 	0.98864 0.41720 0.61909 0.32400
C 	C 	0.16772 0.87990 0.67584 0.03600
H 	H 	0.19650 0.94580 0.70390 0.06300
C 	C 	0.05379 0.01640 0.69109 0.42100
C 	C 	0.16076 0.67220 0.60808 -0.00200
H 	H 	0.18480 0.59640 0.58980 0.06200
C 	C 	0.20286 0.76760 0.64967 -0.05800
C 	C 	0.04369 0.61810 0.48919 -0.07700
H 	H 	0.07410 0.70000 0.48170 0.08400
C 	C 	0.09032 0.89640 0.66109 -0.10700
C 	C 	0.03959 0.58710 0.54692 0.09600
C 	C 	0.99489 0.46590 0.55792 -0.11400
C 	C 	0.28591 0.74760 0.66721 0.29600
H 	H 	0.99000 0.41100 0.77800 0.27600
Zn	Zn	0.57653 0.70336 0.80334 1.24600
O 	O 	0.56071 0.82160 0.87766 -0.39800
O 	O 	0.40440 0.59510 0.77133 -0.41900
O 	O 	0.18434 0.12970 0.84734 -0.35100
C 	C 	0.45139 0.29970 0.88029 -0.01800
H 	H 	0.50400 0.31050 0.89050 0.06600
O 	O 	0.17581 0.35010 0.80244 -0.32900
O 	O 	0.51606 0.52750 0.82360 -0.43000
O 	O 	0.46674 0.97350 0.83848 -0.29800
C 	C 	0.41649 0.18750 0.90678 0.02100
C 	C 	0.51136 0.91720 0.88091 0.34200
C 	C 	0.33228 0.37990 0.82416 0.00800
H 	H 	0.30350 0.44580 0.79610 0.07200
C 	C 	0.44621 0.51640 0.80891 0.37500
C 	C 	0.33924 0.17220 0.89192 -0.03300
H 	H 	0.31520 0.09640 0.91020 0.07200
C 	C 	0.29714 0.26760 0.85033 -0.03700
C 	C 	0.45631 0.11810 0.01081 -0.04400
H 	H 	0.42590 0.20000 0.01830 0.07100
C 	C 	0.40968 0.39640 0.83891 -0.06700
C 	C 	0.46041 0.08710 0.95308 0.03700
C 	C 	0.50511 0.96590 0.94208 -0.06600
C 	C 	0.21409 0.24760 0.83279 0.28800
H 	H 	0.51000 0.91100 0.72200 0.30400
Zn	Zn	0.07653 0.20336 0.80334 1.24700
O 	O 	0.06071 0.32160 0.87766 -0.39800
O 	O 	0.90440 0.09510 0.77133 -0.41300
O 	O 	0.68434 0.62970 0.84734 -0.35000
C 	C 	0.95139 0.79970 0.88029 -0.10000
H 	H 	0.00400 0.81050 0.89050 0.11100
O 	O 	0.67581 0.85010 0.80244 -0.33000
O 	O 	0.01606 0.02750 0.82360 -0.40100
O 	O 	0.96674 0.47350 0.83848 -0.31800
C 	C 	0.91649 0.68750 0.90678 0.06700
C 	C 	0.01136 0.41720 0.88091 0.35900
C 	C 	0.83228 0.87990 0.82416 -0.02100
H 	H 	0.80350 0.94580 0.79610 0.08000
C 	C 	0.94621 0.01640 0.80891 0.32900
C 	C 	0.83924 0.67220 0.89192 -0.06300
H 	H 	0.81520 0.59640 0.91020 0.08100
C 	C 	0.79714 0.76760 0.85033 -0.01700
C 	C 	0.95631 0.61810 0.01081 -0.00700
H 	H 	0.92590 0.70000 0.01830 0.05700
C 	C 	0.90968 0.89640 0.83891 -0.02700
C 	C 	0.96041 0.58710 0.95308 -0.02400
C 	C 	0.00511 0.46590 0.94208 -0.01700
C 	C 	0.71409 0.74760 0.83279 0.28100
H 	H 	0.01000 0.41100 0.72200 0.30200
Zn	Zn	0.57653 0.29664 0.30334 1.24600
O 	O 	0.56071 0.17840 0.37766 -0.39800
O 	O 	0.40440 0.40490 0.27133 -0.41900
O 	O 	0.18434 0.87030 0.34734 -0.35100
C 	C 	0.45139 0.70030 0.38029 -0.01900
H 	H 	0.50400 0.68950 0.39050 0.06600
O 	O 	0.17581 0.64990 0.30244 -0.32900
O 	O 	0.51606 0.47250 0.32360 -0.43000
O 	O 	0.46674 0.02650 0.33848 -0.29800
C 	C 	0.41649 0.81250 0.40678 0.02200
C 	C 	0.51136 0.08280 0.38091 0.34200
C 	C 	0.33228 0.62010 0.32416 0.00700
H 	H 	0.30350 0.55420 0.29610 0.07200
C 	C 	0.44621 0.48360 0.30891 0.37500
C 	C 	0.33924 0.82780 0.39192 -0.03300
H 	H 	0.31520 0.90360 0.41020 0.07200
C 	C 	0.29714 0.73240 0.35033 -0.03700
C 	C 	0.45631 0.88190 0.51081 -0.04000
H 	H 	0.42590 0.80000 0.51830 0.07000
C 	C 	0.40968 0.60360 0.33891 -0.06700
C 	C 	0.46041 0.91290 0.45308 0.03400
C 	C 	0.50511 0.03410 0.44208 -0.06400
C 	C 	0.21409 0.75240 0.33279 0.28800
H 	H 	0.51000 0.08900 0.22200 0.30400
Zn	Zn	0.07653 0.79664 0.30334 1.24700
O 	O 	0.06071 0.67840 0.37766 -0.39800
O 	O 	0.90440 0.90490 0.27133 -0.41300
O 	O 	0.68434 0.37030 0.34734 -0.35000
C 	C 	0.95139 0.20030 0.38029 -0.10100
H 	H 	0.00400 0.18950 0.39050 0.11100
O 	O 	0.67581 0.14990 0.30244 -0.33000
O 	O 	0.01606 0.97250 0.32360 -0.40100
O 	O 	0.96674 0.52650 0.33848 -0.31800
C 	C 	0.91649 0.31250 0.40678 0.06900
C 	C 	0.01136 0.58280 0.38091 0.35900
C 	C 	0.83228 0.12010 0.32416 -0.02100
H 	H 	0.80350 0.05420 0.29610 0.08000
C 	C 	0.94621 0.98360 0.30891 0.32800
C 	C 	0.83924 0.32780 0.39192 -0.06500
H 	H 	0.81520 0.40360 0.41020 0.08100
C 	C 	0.79714 0.23240 0.35033 -0.01600
C 	C 	0.95631 0.38190 0.51081 -0.00200
H 	H 	0.92590 0.30000 0.51830 0.05500
C 	C 	0.90968 0.10360 0.33891 -0.02600
C 	C 	0.96041 0.41290 0.45308 -0.02800
C 	C 	0.00511 0.53410 0.44208 -0.01400
C 	C 	0.71409 0.25240 0.33279 0.28000
H 	H 	0.01000 0.58900 0.22200 0.30100
Zn	Zn	0.42347 0.29664 0.19666 1.24600
O 	O 	0.43929 0.17840 0.12234 -0.39800
O 	O 	0.59560 0.40490 0.22867 -0.42000
O 	O 	0.81566 0.87030 0.15266 -0.35300
C 	C 	0.54861 0.70030 0.11971 -0.01900
H 	H 	0.49600 0.68950 0.10950 0.06700
O 	O 	0.82419 0.64990 0.19756 -0.33400
O 	O 	0.48394 0.47250 0.17640 -0.42900
O 	O 	0.53326 0.02650 0.16152 -0.29800
C 	C 	0.58351 0.81250 0.09322 0.02200
C 	C 	0.48864 0.08280 0.11909 0.34100
C 	C 	0.66772 0.62010 0.17584 0.00700
H 	H 	0.69650 0.55420 0.20390 0.07100
C 	C 	0.55379 0.48360 0.19109 0.37500
C 	C 	0.66076 0.82780 0.10808 -0.03400
H 	H 	0.68480 0.90360 0.08980 0.07100
C 	C 	0.70286 0.73240 0.14967 -0.03800
C 	C 	0.54369 0.88190 0.98919 -0.03500
H 	H 	0.57410 0.80000 0.98170 0.06900
C 	C 	0.59032 0.60360 0.16109 -0.06700
C 	C 	0.53959 0.91290 0.04692 0.03000
C 	C 	0.49489 0.03410 0.05792 -0.06200
C 	C 	0.78591 0.75240 0.16721 0.28800
H 	H 	0.49000 0.08900 0.27800 0.30400
Zn	Zn	0.92347 0.79664 0.19666 1.24200
O 	O 	0.93929 0.67840 0.12234 -0.39900
O 	O 	0.09560 0.90490 0.22867 -0.42800
O 	O 	0.31566 0.37030 0.15266 -0.35300
C 	C 	0.04861 0.20030 0.11971 0.06300
H 	H 	0.99600 0.18950 0.10950 0.02200
O 	O 	0.32419 0.14990 0.19756 -0.33300
O 	O 	0.98394 0.97250 0.17640 -0.46000
O 	O 	0.03326 0.52650 0.16152 -0.27600
C 	C 	0.08351 0.31250 0.09322 -0.02400
C 	C 	0.98864 0.58280 0.11909 0.32300
C 	C 	0.16772 0.12010 0.17584 0.03600
H 	H 	0.19650 0.05420 0.20390 0.06300
C 	C 	0.05379 0.98360 0.19109 0.42100
C 	C 	0.16076 0.32780 0.10808 -0.00300
H 	H 	0.18480 0.40360 0.08980 0.06200
C 	C 	0.20286 0.23240 0.14967 -0.05800
C 	C 	0.04369 0.38190 0.98919 -0.07300
H 	H 	0.07410 0.30000 0.98170 0.08300
C 	C 	0.09032 0.10360 0.16109 -0.10700
C 	C 	0.03959 0.41290 0.04692 0.09200
C 	C 	0.99489 0.53410 0.05792 -0.11100
C 	C 	0.28591 0.25240 0.16721 0.29500
H 	H 	0.99000 0.58900 0.27800 0.27600
O 	O 	0.50000 0.84410 0.75000 -0.81700
O 	O 	0.00000 0.34410 0.75000 -0.78000
O 	O 	0.50000 0.15590 0.25000 -0.81700
O 	O 	0.00000 0.65590 0.25000 -0.78000
