data_crystal

_cell_length_a 17.05490
_cell_length_b 15.39860
_cell_length_c 23.01040
_cell_angle_alpha 90.00000
_cell_angle_beta  102.75400
_cell_angle_gamma 90.00000

_symmetry_space_group_name_	'P 1'
_symmetry_space_group_name_H-M	'P 1'

loop_
_symmetry_equiv_pos_as_xyz
  x,y,z

loop_
_atom_site_label
_atom_site_type_symbol
_atom_site_fract_x
_atom_site_fract_y
_atom_site_fract_z
_atom_site_charge
Zn	Zn	0.98123 0.22561 0.57224 1.14800
Zn	Zn	0.88540 0.33108 0.43250 1.18800
Zn	Zn	0.59030 0.03125 0.62390 1.18600
Zn	Zn	0.54650 0.82961 0.66745 1.17400
O 	O 	0.82000 0.22954 0.43963 -0.52500
O 	O 	0.95395 0.71360 0.48311 -0.53500
O 	O 	0.91645 0.15346 0.50090 -0.52200
O 	O 	0.00814 0.69934 0.58020 -0.51900
O 	O 	0.88346 0.42177 0.49110 -0.52500
O 	O 	0.89311 0.32072 0.56132 -0.54100
O 	O 	0.55069 0.11308 0.37757 -0.56900
O 	O 	0.67065 0.94862 0.60799 -0.52200
O 	O 	0.90939 0.40819 0.76648 -0.58000
O 	O 	0.88600 0.54467 0.78995 -0.55000
O 	O 	0.51383 0.99705 0.42271 -0.56500
O 	O 	0.62308 0.81415 0.61746 -0.54800
C 	C 	0.80772 0.01882 0.50725 0.01300
H 	H 	0.86210 0.01180 0.52790 0.00500
C 	C 	0.86784 0.55346 0.57081 0.03300
H 	H 	0.86390 0.56830 0.53020 0.02400
C 	C 	0.78500 0.09460 0.47470 -0.16800
C 	C 	0.64960 0.04020 0.44690 -0.18500
C 	C 	0.76870 0.74740 0.60360 -0.04500
H 	H 	0.74080 0.71850 0.62950 0.03400
C 	C 	0.88350 0.46880 0.58920 -0.17300
C 	C 	0.74168 0.82818 0.58072 -0.11600
C 	C 	0.95218 0.71835 0.53622 0.42200
C 	C 	0.88730 0.39763 0.54381 0.40700
C 	C 	0.67262 0.96523 0.47936 0.02500
H 	H 	0.63390 0.92140 0.48080 0.01600
C 	C 	0.84640 0.16380 0.47220 0.39900
C 	C 	0.86550 0.59574 0.67089 0.03400
H 	H 	0.85860 0.63880 0.69890 0.01200
C 	C 	0.78065 0.87092 0.54107 0.03800
C 	C 	0.75255 0.95342 0.51011 -0.05300
C 	C 	0.88340 0.51018 0.68943 -0.18300
C 	C 	0.84764 0.83134 0.52708 -0.03100
H 	H 	0.87460 0.85950 0.50030 0.01000
C 	C 	0.87630 0.75090 0.55160 -0.13300
C 	C 	0.70511 0.10491 0.44399 0.07800
H 	H 	0.68900 0.15600 0.42130 -0.00200
C 	C 	0.83624 0.70722 0.58962 0.05400
C 	C 	0.89215 0.44707 0.64874 0.08800
H 	H 	0.90410 0.38890 0.66150 -0.02900
C 	C 	0.85780 0.61740 0.61140 -0.06000
C 	C 	0.56420 0.05140 0.41360 0.44200
C 	C 	0.67250 0.86630 0.60330 0.40300
C 	C 	0.89490 0.48540 0.75395 0.44500
Zn	Zn	0.51877 0.72561 0.92776 1.14900
Zn	Zn	0.61460 0.83108 0.06750 1.18900
Zn	Zn	0.90970 0.53125 0.87610 1.18700
Zn	Zn	0.95350 0.32961 0.83255 1.17500
O 	O 	0.68000 0.72954 0.06037 -0.52500
O 	O 	0.54605 0.21360 0.01689 -0.53500
O 	O 	0.58355 0.65346 0.99910 -0.52200
O 	O 	0.49186 0.19934 0.91980 -0.51900
O 	O 	0.61654 0.92177 0.00890 -0.52500
O 	O 	0.60689 0.82072 0.93868 -0.54100
O 	O 	0.94931 0.61308 0.12243 -0.56800
O 	O 	0.82935 0.44862 0.89201 -0.52300
O 	O 	0.59061 0.90819 0.73352 -0.58000
O 	O 	0.61400 0.04467 0.71005 -0.55000
O 	O 	0.98617 0.49705 0.07729 -0.56300
O 	O 	0.87692 0.31415 0.88254 -0.54900
C 	C 	0.69228 0.51882 0.99275 0.01300
H 	H 	0.63790 0.51180 0.97210 0.00500
C 	C 	0.63216 0.05346 0.92919 0.03200
H 	H 	0.63610 0.06830 0.96980 0.02300
C 	C 	0.71500 0.59460 0.02530 -0.16800
C 	C 	0.85040 0.54020 0.05310 -0.18500
C 	C 	0.73130 0.24740 0.89640 -0.04400
H 	H 	0.75920 0.21850 0.87050 0.03400
C 	C 	0.61650 0.96880 0.91080 -0.17300
C 	C 	0.75832 0.32818 0.91928 -0.11700
C 	C 	0.54782 0.21835 0.96378 0.42100
C 	C 	0.61270 0.89763 0.95619 0.40600
C 	C 	0.82738 0.46523 0.02064 0.02800
H 	H 	0.86610 0.42140 0.01920 0.01600
C 	C 	0.65360 0.66380 0.02780 0.39900
C 	C 	0.63450 0.09574 0.82911 0.03400
H 	H 	0.64140 0.13880 0.80110 0.01200
C 	C 	0.71935 0.37092 0.95893 0.03900
C 	C 	0.74745 0.45342 0.98989 -0.05700
C 	C 	0.61660 0.01018 0.81057 -0.18400
C 	C 	0.65236 0.33134 0.97292 -0.03200
H 	H 	0.62540 0.35950 0.99970 0.00900
C 	C 	0.62370 0.25090 0.94840 -0.13300
C 	C 	0.79489 0.60491 0.05601 0.07800
H 	H 	0.81100 0.65600 0.07870 -0.00200
C 	C 	0.66376 0.20722 0.91038 0.05400
C 	C 	0.60785 0.94707 0.85126 0.08900
H 	H 	0.59590 0.88890 0.83850 -0.02900
C 	C 	0.64220 0.11740 0.88860 -0.06000
C 	C 	0.93580 0.55140 0.08640 0.44200
C 	C 	0.82750 0.36630 0.89670 0.40300
C 	C 	0.60510 0.98540 0.74605 0.44600
Zn	Zn	0.01877 0.77439 0.42776 1.14900
Zn	Zn	0.11460 0.66892 0.56750 1.18900
Zn	Zn	0.40970 0.96875 0.37610 1.18700
Zn	Zn	0.45350 0.17039 0.33255 1.17500
O 	O 	0.18000 0.77046 0.56037 -0.52500
O 	O 	0.04605 0.28640 0.51689 -0.53500
O 	O 	0.08355 0.84654 0.49910 -0.52200
O 	O 	0.99186 0.30066 0.41980 -0.51900
O 	O 	0.11654 0.57823 0.50890 -0.52500
O 	O 	0.10689 0.67928 0.43868 -0.54100
O 	O 	0.44931 0.88692 0.62243 -0.56900
O 	O 	0.32935 0.05138 0.39201 -0.52200
O 	O 	0.09061 0.59181 0.23352 -0.58000
O 	O 	0.11400 0.45533 0.21005 -0.55000
O 	O 	0.48617 0.00295 0.57729 -0.56500
O 	O 	0.37692 0.18585 0.38254 -0.54800
C 	C 	0.19228 0.98118 0.49275 0.01300
H 	H 	0.13790 0.98820 0.47210 0.00500
C 	C 	0.13216 0.44654 0.42919 0.03300
H 	H 	0.13610 0.43170 0.46980 0.02400
C 	C 	0.21500 0.90540 0.52530 -0.16800
C 	C 	0.35040 0.95980 0.55310 -0.18500
C 	C 	0.23130 0.25260 0.39640 -0.04500
H 	H 	0.25920 0.28150 0.37050 0.03400
C 	C 	0.11650 0.53120 0.41080 -0.17300
C 	C 	0.25832 0.17182 0.41928 -0.11600
C 	C 	0.04782 0.28165 0.46378 0.42200
C 	C 	0.11270 0.60237 0.45619 0.40700
C 	C 	0.32738 0.03477 0.52064 0.02500
H 	H 	0.36610 0.07860 0.51920 0.01600
C 	C 	0.15360 0.83620 0.52780 0.39900
C 	C 	0.13450 0.40426 0.32911 0.03400
H 	H 	0.14140 0.36120 0.30110 0.01200
C 	C 	0.21935 0.12908 0.45893 0.03800
C 	C 	0.24745 0.04658 0.48989 -0.05300
C 	C 	0.11660 0.48982 0.31057 -0.18300
C 	C 	0.15236 0.16866 0.47292 -0.03100
H 	H 	0.12540 0.14050 0.49970 0.01000
C 	C 	0.12370 0.24910 0.44840 -0.13300
C 	C 	0.29489 0.89509 0.55601 0.07800
H 	H 	0.31100 0.84400 0.57870 -0.00200
C 	C 	0.16376 0.29278 0.41038 0.05400
C 	C 	0.10785 0.55293 0.35126 0.08800
H 	H 	0.09590 0.61110 0.33850 -0.02900
C 	C 	0.14220 0.38260 0.38860 -0.06000
C 	C 	0.43580 0.94860 0.58640 0.44200
C 	C 	0.32750 0.13370 0.39670 0.40300
C 	C 	0.10510 0.51460 0.24605 0.44500
Zn	Zn	0.48123 0.27439 0.07224 1.14900
Zn	Zn	0.38540 0.16892 0.93250 1.18900
Zn	Zn	0.09030 0.46875 0.12390 1.18700
Zn	Zn	0.04650 0.67039 0.16745 1.17500
O 	O 	0.32000 0.27046 0.93963 -0.52500
O 	O 	0.45395 0.78640 0.98311 -0.53500
O 	O 	0.41645 0.34654 0.00090 -0.52200
O 	O 	0.50814 0.80066 0.08020 -0.51900
O 	O 	0.38346 0.07823 0.99110 -0.52500
O 	O 	0.39311 0.17928 0.06132 -0.54100
O 	O 	0.05069 0.38692 0.87757 -0.56800
O 	O 	0.17065 0.55138 0.10799 -0.52300
O 	O 	0.40939 0.09181 0.26648 -0.58000
O 	O 	0.38600 0.95533 0.28995 -0.55000
O 	O 	0.01383 0.50295 0.92271 -0.56300
O 	O 	0.12308 0.68585 0.11746 -0.54900
C 	C 	0.30772 0.48118 0.00725 0.01300
H 	H 	0.36210 0.48820 0.02790 0.00500
C 	C 	0.36784 0.94654 0.07081 0.03200
H 	H 	0.36390 0.93170 0.03020 0.02300
C 	C 	0.28500 0.40540 0.97470 -0.16800
C 	C 	0.14960 0.45980 0.94690 -0.18500
C 	C 	0.26870 0.75260 0.10360 -0.04400
H 	H 	0.24080 0.78150 0.12950 0.03400
C 	C 	0.38350 0.03120 0.08920 -0.17300
C 	C 	0.24168 0.67182 0.08072 -0.11700
C 	C 	0.45218 0.78165 0.03622 0.42100
C 	C 	0.38730 0.10237 0.04381 0.40600
C 	C 	0.17262 0.53477 0.97936 0.02800
H 	H 	0.13390 0.57860 0.98080 0.01600
C 	C 	0.34640 0.33620 0.97220 0.39900
C 	C 	0.36550 0.90426 0.17089 0.03400
H 	H 	0.35860 0.86120 0.19890 0.01200
C 	C 	0.28065 0.62908 0.04107 0.03900
C 	C 	0.25255 0.54658 0.01011 -0.05700
C 	C 	0.38340 0.98982 0.18943 -0.18400
C 	C 	0.34764 0.66866 0.02708 -0.03200
H 	H 	0.37460 0.64050 0.00030 0.00900
C 	C 	0.37630 0.74910 0.05160 -0.13300
C 	C 	0.20511 0.39509 0.94399 0.07800
H 	H 	0.18900 0.34400 0.92130 -0.00200
C 	C 	0.33624 0.79278 0.08962 0.05400
C 	C 	0.39215 0.05293 0.14874 0.08900
H 	H 	0.40410 0.11110 0.16150 -0.02900
C 	C 	0.35780 0.88260 0.11140 -0.06000
C 	C 	0.06420 0.44860 0.91360 0.44200
C 	C 	0.17250 0.63370 0.10330 0.40300
C 	C 	0.39490 0.01460 0.25395 0.44600
