data_crystal

_cell_length_a 26.32150
_cell_length_b 26.32150
_cell_length_c 26.32150
_cell_angle_alpha 109.47100
_cell_angle_beta  109.47100
_cell_angle_gamma 109.47100

_symmetry_space_group_name_	'P 1'
_symmetry_space_group_name_H-M	'P 1'

loop_
_symmetry_equiv_pos_as_xyz
  x,y,z

loop_
_atom_site_label
_atom_site_type_symbol
_atom_site_fract_x
_atom_site_fract_y
_atom_site_fract_z
_atom_site_charge
Cu	Cu	0.26143 0.32248 0.19943 0.84500
Cu	Cu	0.62305 0.06200 0.30057 0.84500
Cu	Cu	0.87695 0.17752 0.43895 0.84500
Cu	Cu	0.23857 0.43800 0.06105 0.84500
Cu	Cu	0.93895 0.87695 0.67752 0.84500
Cu	Cu	0.56105 0.23857 0.93800 0.84500
Cu	Cu	0.69943 0.26143 0.82248 0.84500
Cu	Cu	0.80057 0.62305 0.56200 0.84500
Cu	Cu	0.06200 0.80057 0.12305 0.84500
Cu	Cu	0.32248 0.69943 0.76143 0.84500
Cu	Cu	0.43800 0.56105 0.73857 0.84500
Cu	Cu	0.17752 0.93895 0.37695 0.84500
Cu	Cu	0.56200 0.12305 0.80057 0.84500
Cu	Cu	0.82248 0.76143 0.69943 0.84500
Cu	Cu	0.93800 0.73857 0.56105 0.84500
Cu	Cu	0.67752 0.37695 0.93895 0.84400
Cu	Cu	0.76143 0.19943 0.32248 0.84400
Cu	Cu	0.12305 0.30057 0.06200 0.84400
Cu	Cu	0.37695 0.43895 0.17752 0.84400
Cu	Cu	0.73857 0.06105 0.43800 0.84400
Cu	Cu	0.43895 0.67752 0.87695 0.84400
Cu	Cu	0.06105 0.93800 0.23857 0.84400
Cu	Cu	0.19943 0.82248 0.26143 0.84400
Cu	Cu	0.30057 0.56200 0.62305 0.84400
Cu	Cu	0.25000 0.28739 0.03739 0.84100
Cu	Cu	0.75000 0.21261 0.46261 0.84100
Cu	Cu	0.96261 0.75000 0.71261 0.84100
Cu	Cu	0.53739 0.25000 0.78739 0.84100
Cu	Cu	0.21261 0.96261 0.25000 0.84100
Cu	Cu	0.28739 0.53739 0.75000 0.84100
Cu	Cu	0.71261 0.25000 0.96261 0.84100
Cu	Cu	0.78739 0.75000 0.53739 0.84100
Cu	Cu	0.75000 0.03739 0.28739 0.84100
Cu	Cu	0.25000 0.46261 0.21261 0.84100
Cu	Cu	0.46261 0.71261 0.75000 0.84100
Cu	Cu	0.03739 0.78739 0.25000 0.84100
H 	H 	0.39800 0.42030 0.32410 -0.01500
H 	H 	0.24950 0.31580 0.31530 0.03000
H 	H 	0.32460 0.38500 0.42400 0.03700
H 	H 	0.49190 0.46280 0.40230 0.15100
H 	H 	0.29270 0.36040 0.96990 -0.01700
H 	H 	0.31940 0.22920 0.99040 0.01600
H 	H 	0.35160 0.24530 0.91650 0.03900
H 	H 	0.31770 0.39930 0.91760 0.15000
H 	H 	0.59620 0.07390 0.17590 -0.01600
H 	H 	0.50050 0.93420 0.18470 0.03000
H 	H 	0.46100 0.90060 0.07600 0.03600
H 	H 	0.56050 0.08960 0.09770 0.15100
H 	H 	0.89050 0.32280 0.53010 -0.01700
H 	H 	0.73880 0.32900 0.50960 0.01600
H 	H 	0.82880 0.43510 0.58350 0.03900
H 	H 	0.98170 0.40010 0.58240 0.15000
H 	H 	0.90380 0.07970 0.47770 -0.01500
H 	H 	0.99950 0.18420 0.43370 0.03000
H 	H 	0.03900 0.11500 0.43960 0.03600
H 	H 	0.93950 0.03720 0.52910 0.15100
H 	H 	0.60950 0.13960 0.43230 -0.01700
H 	H 	0.76120 0.27080 0.59020 0.01600
H 	H 	0.67120 0.25470 0.60630 0.03900
H 	H 	0.51830 0.10070 0.41840 0.15000
H 	H 	0.10200 0.42610 0.02230 -0.01500
H 	H 	0.25050 0.56580 0.06630 0.03000
H 	H 	0.17540 0.59940 0.06040 0.03600
H 	H 	0.00810 0.41040 0.97090 0.15100
H 	H 	0.20730 0.17720 0.06770 -0.01700
H 	H 	0.18060 0.17100 0.90980 0.01600
H 	H 	0.14840 0.06490 0.89370 0.03900
H 	H 	0.18230 0.09990 0.08160 0.15000
H 	H 	0.97770 0.90380 0.57970 -0.01500
H 	H 	0.93370 0.99950 0.68420 0.02900
H 	H 	0.93960 0.03900 0.61500 0.03700
H 	H 	0.02910 0.93950 0.53720 0.15100
H 	H 	0.93230 0.60950 0.63960 -0.01700
H 	H 	0.09020 0.76120 0.77080 0.01600
H 	H 	0.10630 0.67120 0.75470 0.03900
H 	H 	0.91840 0.51830 0.60070 0.15000
H 	H 	0.52230 0.10200 0.92610 -0.01500
H 	H 	0.56630 0.25050 0.06580 0.03000
H 	H 	0.56040 0.17540 0.09940 0.03700
H 	H 	0.47090 0.00810 0.91040 0.15100
H 	H 	0.56770 0.20730 0.67720 -0.01700
H 	H 	0.40980 0.18060 0.67100 0.01600
H 	H 	0.39370 0.14840 0.56490 0.03900
H 	H 	0.58160 0.18230 0.59990 0.15000
H 	H 	0.82410 0.39800 0.92030 -0.01500
H 	H 	0.81530 0.24950 0.81580 0.03000
H 	H 	0.92400 0.32460 0.88500 0.03600
H 	H 	0.90230 0.49190 0.96280 0.15100
H 	H 	0.46990 0.29270 0.86040 -0.01700
H 	H 	0.49040 0.31940 0.72920 0.01600
H 	H 	0.41650 0.35160 0.74530 0.03900
H 	H 	0.41760 0.31770 0.89930 0.15000
H 	H 	0.67590 0.59620 0.57390 -0.01500
H 	H 	0.68470 0.50050 0.43420 0.03000
H 	H 	0.57600 0.46100 0.40060 0.03700
H 	H 	0.59770 0.56050 0.58960 0.15100
H 	H 	0.03010 0.89050 0.82280 -0.01700
H 	H 	0.00960 0.73880 0.82900 0.01600
H 	H 	0.08350 0.82880 0.93510 0.03900
H 	H 	0.08240 0.98170 0.90010 0.15000
H 	H 	0.07390 0.67590 0.09620 -0.01500
H 	H 	0.93420 0.68470 0.00050 0.03000
H 	H 	0.90060 0.57600 0.96100 0.03600
H 	H 	0.08960 0.59770 0.06050 0.15100
H 	H 	0.32280 0.03010 0.39050 -0.01700
H 	H 	0.32900 0.00960 0.23880 0.01600
H 	H 	0.43510 0.08350 0.32880 0.03900
H 	H 	0.40010 0.08240 0.48170 0.15000
H 	H 	0.42030 0.82410 0.89800 -0.01500
H 	H 	0.31580 0.81530 0.74950 0.03000
H 	H 	0.38500 0.92400 0.82460 0.03600
H 	H 	0.46280 0.90230 0.99190 0.15100
H 	H 	0.36040 0.46990 0.79270 -0.01700
H 	H 	0.22920 0.49040 0.81940 0.01600
H 	H 	0.24530 0.41650 0.85160 0.03900
H 	H 	0.39930 0.41760 0.81770 0.15000
H 	H 	0.42610 0.52230 0.60200 -0.01500
H 	H 	0.56580 0.56630 0.75050 0.03000
H 	H 	0.59940 0.56040 0.67540 0.03700
H 	H 	0.41040 0.47090 0.50810 0.15100
H 	H 	0.17720 0.56770 0.70730 -0.01700
H 	H 	0.17100 0.40980 0.68060 0.01600
H 	H 	0.06490 0.39370 0.64840 0.03900
H 	H 	0.09990 0.58160 0.68230 0.15000
H 	H 	0.07970 0.97770 0.40380 -0.01600
H 	H 	0.18420 0.93370 0.49950 0.03000
H 	H 	0.11500 0.93960 0.53900 0.03600
H 	H 	0.03720 0.02910 0.43950 0.15100
H 	H 	0.13960 0.93230 0.10950 -0.01700
H 	H 	0.27080 0.09020 0.26120 0.01600
H 	H 	0.25470 0.10630 0.17120 0.03900
H 	H 	0.10070 0.91840 0.01830 0.15000
H 	H 	0.57390 0.09620 0.67590 -0.01500
H 	H 	0.43420 0.00050 0.68470 0.02900
H 	H 	0.40060 0.96100 0.57600 0.03700
H 	H 	0.58960 0.06050 0.59770 0.15100
H 	H 	0.82280 0.39050 0.03010 -0.01700
H 	H 	0.82900 0.23880 0.00960 0.01600
H 	H 	0.93510 0.32880 0.08350 0.03900
H 	H 	0.90010 0.48170 0.08240 0.15000
H 	H 	0.92030 0.89800 0.82410 -0.01500
H 	H 	0.81580 0.74950 0.81530 0.03000
H 	H 	0.88500 0.82460 0.92400 0.03700
H 	H 	0.96280 0.99190 0.90230 0.15100
H 	H 	0.86040 0.79270 0.46990 -0.01700
H 	H 	0.72920 0.81940 0.49040 0.01600
H 	H 	0.74530 0.85160 0.41650 0.03900
H 	H 	0.89930 0.81770 0.41760 0.15000
H 	H 	0.92610 0.60200 0.52230 -0.01500
H 	H 	0.06580 0.75050 0.56630 0.03000
H 	H 	0.09940 0.67540 0.56040 0.03700
H 	H 	0.91040 0.50810 0.47090 0.15100
H 	H 	0.67720 0.70730 0.56770 -0.01700
H 	H 	0.67100 0.68060 0.40980 0.01600
H 	H 	0.56490 0.64840 0.39370 0.03900
H 	H 	0.59990 0.68230 0.58160 0.15000
H 	H 	0.57970 0.40380 0.97770 -0.01500
H 	H 	0.68420 0.49950 0.93370 0.03000
H 	H 	0.61500 0.53900 0.93960 0.03700
H 	H 	0.53720 0.43950 0.02910 0.15100
H 	H 	0.63960 0.10950 0.93230 -0.01700
H 	H 	0.77080 0.26120 0.09020 0.01600
H 	H 	0.75470 0.17120 0.10630 0.03900
H 	H 	0.60070 0.01830 0.91840 0.15000
H 	H 	0.89800 0.32410 0.42030 -0.01500
H 	H 	0.74950 0.31530 0.31580 0.03000
H 	H 	0.82460 0.42400 0.38500 0.03700
H 	H 	0.99190 0.40230 0.46280 0.15100
H 	H 	0.79270 0.96990 0.36040 -0.01700
H 	H 	0.81940 0.99040 0.22920 0.01600
H 	H 	0.85160 0.91650 0.24530 0.03900
H 	H 	0.81770 0.91760 0.39930 0.15000
H 	H 	0.09620 0.17590 0.07390 -0.01600
H 	H 	0.00050 0.18470 0.93420 0.03000
H 	H 	0.96100 0.07600 0.90060 0.03600
H 	H 	0.06050 0.09770 0.08960 0.15100
H 	H 	0.39050 0.53010 0.32280 -0.01700
H 	H 	0.23880 0.50960 0.32900 0.01600
H 	H 	0.32880 0.58350 0.43510 0.03900
H 	H 	0.48170 0.58240 0.40010 0.15000
H 	H 	0.40380 0.47770 0.07970 -0.01500
H 	H 	0.49950 0.43370 0.18420 0.03000
H 	H 	0.53900 0.43960 0.11500 0.03700
H 	H 	0.43950 0.52910 0.03720 0.15100
H 	H 	0.10950 0.43230 0.13960 -0.01700
H 	H 	0.26120 0.59020 0.27080 0.01600
H 	H 	0.17120 0.60630 0.25470 0.03900
H 	H 	0.01830 0.41840 0.10070 0.15000
H 	H 	0.60200 0.02230 0.42610 -0.01500
H 	H 	0.75050 0.06630 0.56580 0.03000
H 	H 	0.67540 0.06040 0.59940 0.03700
H 	H 	0.50810 0.97090 0.41040 0.15100
H 	H 	0.70730 0.06770 0.17720 -0.01700
H 	H 	0.68060 0.90980 0.17100 0.01600
H 	H 	0.64840 0.89370 0.06490 0.03900
H 	H 	0.68230 0.08160 0.09990 0.15000
H 	H 	0.47770 0.57970 0.90380 -0.01500
H 	H 	0.43370 0.68420 0.99950 0.02900
H 	H 	0.43960 0.61500 0.03900 0.03700
H 	H 	0.52910 0.53720 0.93950 0.15100
H 	H 	0.43230 0.63960 0.60950 -0.01700
H 	H 	0.59020 0.77080 0.76120 0.01600
H 	H 	0.60630 0.75470 0.67120 0.03900
H 	H 	0.41840 0.60070 0.51830 0.15000
H 	H 	0.02230 0.92610 0.10200 -0.01500
H 	H 	0.06630 0.06580 0.25050 0.03000
H 	H 	0.06040 0.09940 0.17540 0.03700
H 	H 	0.97090 0.91040 0.00810 0.15100
H 	H 	0.06770 0.67720 0.20730 -0.01700
H 	H 	0.90980 0.67100 0.18060 0.01600
H 	H 	0.89370 0.56490 0.14840 0.03900
H 	H 	0.08160 0.59990 0.18230 0.15000
H 	H 	0.32410 0.92030 0.39800 -0.01500
H 	H 	0.31530 0.81580 0.24950 0.03000
H 	H 	0.42400 0.88500 0.32460 0.03700
H 	H 	0.40230 0.96280 0.49190 0.15100
H 	H 	0.96990 0.86040 0.29270 -0.01700
H 	H 	0.99040 0.72920 0.31940 0.01600
H 	H 	0.91650 0.74530 0.35160 0.03900
H 	H 	0.91760 0.89930 0.31770 0.15000
H 	H 	0.17590 0.57390 0.59620 -0.01500
H 	H 	0.18470 0.43420 0.50050 0.03000
H 	H 	0.07600 0.40060 0.46100 0.03700
H 	H 	0.09770 0.58960 0.56050 0.15100
H 	H 	0.53010 0.82280 0.89050 -0.01700
H 	H 	0.50960 0.82900 0.73880 0.01600
H 	H 	0.58350 0.93510 0.82880 0.03900
H 	H 	0.58240 0.90010 0.98170 0.15000
W 	W 	0.25000 0.37500 0.12500 0.14500
W 	W 	0.75000 0.12500 0.37500 0.14500
W 	W 	0.87500 0.75000 0.62500 0.14500
W 	W 	0.62500 0.25000 0.87500 0.14500
W 	W 	0.12500 0.87500 0.25000 0.14500
W 	W 	0.37500 0.62500 0.75000 0.14500
C 	C 	0.36930 0.40410 0.33560 0.12400
C 	C 	0.28880 0.34810 0.33090 0.00500
C 	C 	0.32990 0.38350 0.39040 0.00200
C 	C 	0.44220 0.46350 0.44690 0.24800
C 	C 	0.49510 0.47820 0.44130 -0.29400
C 	C 	0.30130 0.32810 0.96340 0.11200
C 	C 	0.31550 0.25530 0.97460 0.01100
C 	C 	0.33520 0.26590 0.93610 0.01000
C 	C 	0.34860 0.33800 0.89860 0.22200
C 	C 	0.33220 0.38170 0.89290 -0.27000
C 	C 	0.56850 0.03370 0.16440 0.12400
C 	C 	0.51720 0.95790 0.16910 0.00400
C 	C 	0.49310 0.93950 0.10960 0.00200
C 	C 	0.51660 0.99530 0.05310 0.24700
C 	C 	0.53690 0.05380 0.05870 -0.29300
C 	C 	0.86470 0.33790 0.53660 0.11200
C 	C 	0.78070 0.34090 0.52540 0.01100
C 	C 	0.82980 0.39910 0.56390 0.01000
C 	C 	0.93940 0.45000 0.60140 0.22200
C 	C 	0.98880 0.43930 0.60710 -0.27000
C 	C 	0.93150 0.09590 0.46520 0.12400
C 	C 	0.98280 0.15190 0.44070 0.00400
C 	C 	0.00690 0.11650 0.44640 0.00200
C 	C 	0.98340 0.03650 0.47870 0.24700
C 	C 	0.96310 0.02180 0.51690 -0.29400
C 	C 	0.63530 0.17190 0.47320 0.11200
C 	C 	0.71930 0.24470 0.56020 0.01100
C 	C 	0.67020 0.23410 0.56930 0.01000
C 	C 	0.56060 0.16200 0.51060 0.22200
C 	C 	0.51120 0.11830 0.45050 -0.27000
C 	C 	0.13070 0.46630 0.03480 0.12400
C 	C 	0.21120 0.54210 0.05930 0.00500
C 	C 	0.17010 0.56050 0.05360 0.00200
C 	C 	0.05780 0.50470 0.02130 0.24800
C 	C 	0.00490 0.44620 0.98310 -0.29500
C 	C 	0.19870 0.16210 0.02680 0.11300
C 	C 	0.18450 0.15910 0.93980 0.01100
C 	C 	0.16480 0.10090 0.93070 0.01100
C 	C 	0.15140 0.05000 0.98940 0.22200
C 	C 	0.16780 0.06070 0.04950 -0.27000
C 	C 	0.96520 0.93150 0.59590 0.12400
C 	C 	0.94070 0.98280 0.65190 0.00500
C 	C 	0.94640 0.00690 0.61650 0.00100
C 	C 	0.97870 0.98340 0.53650 0.24800
C 	C 	0.01690 0.96310 0.52180 -0.29400
C 	C 	0.97320 0.63530 0.67190 0.11300
C 	C 	0.06020 0.71930 0.74470 0.01100
C 	C 	0.06930 0.67020 0.73410 0.01100
C 	C 	0.01060 0.56060 0.66200 0.22200
C 	C 	0.95050 0.51120 0.61830 -0.27000
C 	C 	0.53480 0.13070 0.96630 0.12400
C 	C 	0.55930 0.21120 0.04210 0.00500
C 	C 	0.55360 0.17010 0.06050 0.00200
C 	C 	0.52130 0.05780 0.00470 0.24800
C 	C 	0.48310 0.00490 0.94620 -0.29400
C 	C 	0.52680 0.19870 0.66210 0.11200
C 	C 	0.43980 0.18450 0.65910 0.01100
C 	C 	0.43070 0.16480 0.60090 0.01000
C 	C 	0.48940 0.15140 0.55000 0.22200
C 	C 	0.54950 0.16780 0.56070 -0.27000
C 	C 	0.83560 0.36930 0.90410 0.12400
C 	C 	0.83090 0.28880 0.84810 0.00500
C 	C 	0.89040 0.32990 0.88350 0.00200
C 	C 	0.94690 0.44220 0.96350 0.24800
C 	C 	0.94130 0.49510 0.97820 -0.29400
C 	C 	0.46340 0.30130 0.82810 0.11200
C 	C 	0.47460 0.31550 0.75530 0.01100
C 	C 	0.43610 0.33520 0.76590 0.01000
C 	C 	0.39860 0.34860 0.83800 0.22200
C 	C 	0.39290 0.33220 0.88170 -0.27000
C 	C 	0.66440 0.56850 0.53370 0.12400
C 	C 	0.66910 0.51720 0.45790 0.00500
C 	C 	0.60960 0.49310 0.43950 0.00200
C 	C 	0.55310 0.51660 0.49530 0.24800
C 	C 	0.55870 0.53690 0.55380 -0.29400
C 	C 	0.03660 0.86470 0.83790 0.11200
C 	C 	0.02540 0.78070 0.84090 0.01100
C 	C 	0.06390 0.82980 0.89910 0.01000
C 	C 	0.10140 0.93940 0.95000 0.22300
C 	C 	0.10710 0.98880 0.93930 -0.27000
C 	C 	0.03370 0.66440 0.06850 0.12400
C 	C 	0.95790 0.66910 0.01720 0.00400
C 	C 	0.93950 0.60960 0.99310 0.00200
C 	C 	0.99530 0.55310 0.01660 0.24700
C 	C 	0.05380 0.55870 0.03690 -0.29400
C 	C 	0.33790 0.03660 0.36470 0.11200
C 	C 	0.34090 0.02540 0.28070 0.01100
C 	C 	0.39910 0.06390 0.32980 0.01000
C 	C 	0.45000 0.10140 0.43940 0.22200
C 	C 	0.43930 0.10710 0.48880 -0.27000
C 	C 	0.40410 0.83560 0.86930 0.12400
C 	C 	0.34810 0.83090 0.78880 0.00500
C 	C 	0.38350 0.89040 0.82990 0.00200
C 	C 	0.46350 0.94690 0.94220 0.24800
C 	C 	0.47820 0.94130 0.99510 -0.29400
C 	C 	0.32810 0.46340 0.80130 0.11200
C 	C 	0.25530 0.47460 0.81550 0.01100
C 	C 	0.26590 0.43610 0.83520 0.01000
C 	C 	0.33800 0.39860 0.84860 0.22200
C 	C 	0.38170 0.39290 0.83220 -0.27000
C 	C 	0.46630 0.53480 0.63070 0.12400
C 	C 	0.54210 0.55930 0.71120 0.00500
C 	C 	0.56050 0.55360 0.67010 0.00200
C 	C 	0.50470 0.52130 0.55780 0.24800
C 	C 	0.44620 0.48310 0.50490 -0.29400
C 	C 	0.16210 0.52680 0.69870 0.11200
C 	C 	0.15910 0.43980 0.68450 0.01100
C 	C 	0.10090 0.43070 0.66480 0.01000
C 	C 	0.05000 0.48940 0.65140 0.22200
C 	C 	0.06070 0.54950 0.66780 -0.27000
C 	C 	0.09590 0.96520 0.43150 0.12400
C 	C 	0.15190 0.94070 0.48280 0.00500
C 	C 	0.11650 0.94640 0.50690 0.00200
C 	C 	0.03650 0.97870 0.48340 0.24700
C 	C 	0.02180 0.01690 0.46310 -0.29300
C 	C 	0.17190 0.97320 0.13530 0.11200
C 	C 	0.24470 0.06020 0.21930 0.01200
C 	C 	0.23410 0.06930 0.17020 0.01000
C 	C 	0.16200 0.01060 0.06060 0.22300
C 	C 	0.11830 0.95050 0.01120 -0.27100
C 	C 	0.53370 0.06850 0.66440 0.12400
C 	C 	0.45790 0.01720 0.66910 0.00500
C 	C 	0.43950 0.99310 0.60960 0.00100
C 	C 	0.49530 0.01660 0.55310 0.24800
C 	C 	0.55380 0.03690 0.55870 -0.29400
C 	C 	0.83790 0.36470 0.03660 0.11200
C 	C 	0.84090 0.28070 0.02540 0.01100
C 	C 	0.89910 0.32980 0.06390 0.01000
C 	C 	0.95000 0.43940 0.10140 0.22200
C 	C 	0.93930 0.48880 0.10710 -0.27000
C 	C 	0.90410 0.86930 0.83560 0.12400
C 	C 	0.84810 0.78880 0.83090 0.00500
C 	C 	0.88350 0.82990 0.89040 0.00200
C 	C 	0.96350 0.94220 0.94690 0.24800
C 	C 	0.97820 0.99510 0.94130 -0.29400
C 	C 	0.82810 0.80130 0.46340 0.11200
C 	C 	0.75530 0.81550 0.47460 0.01100
C 	C 	0.76590 0.83520 0.43610 0.01000
C 	C 	0.83800 0.84860 0.39860 0.22200
C 	C 	0.88170 0.83220 0.39290 -0.27000
C 	C 	0.96630 0.63070 0.53480 0.12400
C 	C 	0.04210 0.71120 0.55930 0.00400
C 	C 	0.06050 0.67010 0.55360 0.00200
C 	C 	0.00470 0.55780 0.52130 0.24700
C 	C 	0.94620 0.50490 0.48310 -0.29400
C 	C 	0.66210 0.69870 0.52680 0.11200
C 	C 	0.65910 0.68450 0.43980 0.01100
C 	C 	0.60090 0.66480 0.43070 0.01000
C 	C 	0.55000 0.65140 0.48940 0.22200
C 	C 	0.56070 0.66780 0.54950 -0.27000
C 	C 	0.59590 0.43150 0.96520 0.12400
C 	C 	0.65190 0.48280 0.94070 0.00500
C 	C 	0.61650 0.50690 0.94640 0.00200
C 	C 	0.53650 0.48340 0.97870 0.24800
C 	C 	0.52180 0.46310 0.01690 -0.29400
C 	C 	0.67190 0.13530 0.97320 0.11200
C 	C 	0.74470 0.21930 0.06020 0.01200
C 	C 	0.73410 0.17020 0.06930 0.01000
C 	C 	0.66200 0.06060 0.01060 0.22200
C 	C 	0.61830 0.01120 0.95050 -0.27000
C 	C 	0.86930 0.33560 0.40410 0.12400
C 	C 	0.78880 0.33090 0.34810 0.00500
C 	C 	0.82990 0.39040 0.38350 0.00200
C 	C 	0.94220 0.44690 0.46350 0.24800
C 	C 	0.99510 0.44130 0.47820 -0.29400
C 	C 	0.80130 0.96340 0.32810 0.11200
C 	C 	0.81550 0.97460 0.25530 0.01100
C 	C 	0.83520 0.93610 0.26590 0.01000
C 	C 	0.84860 0.89860 0.33800 0.22200
C 	C 	0.83220 0.89290 0.38170 -0.27000
C 	C 	0.06850 0.16440 0.03370 0.12400
C 	C 	0.01720 0.16910 0.95790 0.00400
C 	C 	0.99310 0.10960 0.93950 0.00200
C 	C 	0.01660 0.05310 0.99530 0.24700
C 	C 	0.03690 0.05870 0.05380 -0.29400
C 	C 	0.36470 0.53660 0.33790 0.11200
C 	C 	0.28070 0.52540 0.34090 0.01100
C 	C 	0.32980 0.56390 0.39910 0.01000
C 	C 	0.43940 0.60140 0.45000 0.22200
C 	C 	0.48880 0.60710 0.43930 -0.27000
C 	C 	0.43150 0.46520 0.09590 0.12400
C 	C 	0.48280 0.44070 0.15190 0.00500
C 	C 	0.50690 0.44640 0.11650 0.00200
C 	C 	0.48340 0.47870 0.03650 0.24800
C 	C 	0.46310 0.51690 0.02180 -0.29400
C 	C 	0.13530 0.47320 0.17190 0.11200
C 	C 	0.21930 0.56020 0.24470 0.01100
C 	C 	0.17020 0.56930 0.23410 0.01000
C 	C 	0.06060 0.51060 0.16200 0.22200
C 	C 	0.01120 0.45050 0.11830 -0.27000
C 	C 	0.63070 0.03480 0.46630 0.12400
C 	C 	0.71120 0.05930 0.54210 0.00500
C 	C 	0.67010 0.05360 0.56050 0.00200
C 	C 	0.55780 0.02130 0.50470 0.24800
C 	C 	0.50490 0.98310 0.44620 -0.29400
C 	C 	0.69870 0.02680 0.16210 0.11300
C 	C 	0.68450 0.93980 0.15910 0.01100
C 	C 	0.66480 0.93070 0.10090 0.01000
C 	C 	0.65140 0.98940 0.05000 0.22200
C 	C 	0.66780 0.04950 0.06070 -0.27000
C 	C 	0.46520 0.59590 0.93150 0.12400
C 	C 	0.44070 0.65190 0.98280 0.00500
C 	C 	0.44640 0.61650 0.00690 0.00100
C 	C 	0.47870 0.53650 0.98340 0.24800
C 	C 	0.51690 0.52180 0.96310 -0.29400
C 	C 	0.47320 0.67190 0.63530 0.11200
C 	C 	0.56020 0.74470 0.71930 0.01100
C 	C 	0.56930 0.73410 0.67020 0.01000
C 	C 	0.51060 0.66200 0.56060 0.22200
C 	C 	0.45050 0.61830 0.51120 -0.27000
C 	C 	0.03480 0.96630 0.13070 0.12300
C 	C 	0.05930 0.04210 0.21120 0.00500
C 	C 	0.05360 0.06050 0.17010 0.00200
C 	C 	0.02130 0.00470 0.05780 0.24800
C 	C 	0.98310 0.94620 0.00490 -0.29500
C 	C 	0.02680 0.66210 0.19870 0.11200
C 	C 	0.93980 0.65910 0.18450 0.01200
C 	C 	0.93070 0.60090 0.16480 0.01000
C 	C 	0.98940 0.55000 0.15140 0.22200
C 	C 	0.04950 0.56070 0.16780 -0.27000
C 	C 	0.33560 0.90410 0.36930 0.12400
C 	C 	0.33090 0.84810 0.28880 0.00500
C 	C 	0.39040 0.88350 0.32990 0.00200
C 	C 	0.44690 0.96350 0.44220 0.24800
C 	C 	0.44130 0.97820 0.49510 -0.29400
C 	C 	0.96340 0.82810 0.30130 0.11200
C 	C 	0.97460 0.75530 0.31550 0.01100
C 	C 	0.93610 0.76590 0.33520 0.01000
C 	C 	0.89860 0.83800 0.34860 0.22200
C 	C 	0.89290 0.88170 0.33220 -0.27000
C 	C 	0.16440 0.53370 0.56850 0.12400
C 	C 	0.16910 0.45790 0.51720 0.00500
C 	C 	0.10960 0.43950 0.49310 0.00200
C 	C 	0.05310 0.49530 0.51660 0.24800
C 	C 	0.05870 0.55380 0.53690 -0.29400
C 	C 	0.53660 0.83790 0.86470 0.11200
C 	C 	0.52540 0.84090 0.78070 0.01100
C 	C 	0.56390 0.89910 0.82980 0.01000
C 	C 	0.60140 0.95000 0.93940 0.22200
C 	C 	0.60710 0.93930 0.98880 -0.27000
S 	S 	0.31108 0.33462 0.14252 -0.62000
S 	S 	0.69210 0.16856 0.35748 -0.62000
S 	S 	0.80790 0.16538 0.47646 -0.62000
S 	S 	0.18892 0.33144 0.02354 -0.62000
S 	S 	0.97646 0.80790 0.66538 -0.62000
S 	S 	0.52354 0.18892 0.83144 -0.62000
S 	S 	0.64252 0.31108 0.83462 -0.62000
S 	S 	0.85748 0.69210 0.66856 -0.62000
S 	S 	0.16856 0.85748 0.19210 -0.62000
S 	S 	0.33462 0.64252 0.81108 -0.62000
S 	S 	0.33144 0.52354 0.68892 -0.62000
S 	S 	0.16538 0.97646 0.30790 -0.62100
S 	S 	0.66856 0.19210 0.85748 -0.62000
S 	S 	0.83462 0.81108 0.64252 -0.62000
S 	S 	0.83144 0.68892 0.52354 -0.62000
S 	S 	0.66538 0.30790 0.97646 -0.62000
S 	S 	0.81108 0.14252 0.33462 -0.62000
S 	S 	0.19210 0.35748 0.16856 -0.62000
S 	S 	0.30790 0.47646 0.16538 -0.62000
S 	S 	0.68892 0.02354 0.33144 -0.62000
S 	S 	0.47646 0.66538 0.80790 -0.62000
S 	S 	0.02354 0.83144 0.18892 -0.62100
S 	S 	0.14252 0.83462 0.31108 -0.62000
S 	S 	0.35748 0.66856 0.69210 -0.62000
Br	Br	0.20612 0.21440 0.17386 -0.43300
Br	Br	0.54054 0.03226 0.32614 -0.43300
Br	Br	0.95946 0.28560 0.49172 -0.43400
Br	Br	0.29388 0.46774 0.00828 -0.43400
Br	Br	0.99172 0.95946 0.78560 -0.43400
Br	Br	0.50828 0.29388 0.96774 -0.43400
Br	Br	0.67386 0.20612 0.71440 -0.43300
Br	Br	0.82614 0.54054 0.53226 -0.43300
Br	Br	0.03226 0.82614 0.04054 -0.43400
Br	Br	0.21440 0.67386 0.70612 -0.43300
Br	Br	0.46774 0.50828 0.79388 -0.43300
Br	Br	0.28560 0.99172 0.45946 -0.43400
Br	Br	0.53226 0.04054 0.82614 -0.43400
Br	Br	0.71440 0.70612 0.67386 -0.43300
Br	Br	0.96774 0.79388 0.50828 -0.43400
Br	Br	0.78560 0.45946 0.99172 -0.43400
Br	Br	0.70612 0.17386 0.21440 -0.43300
Br	Br	0.04054 0.32614 0.03226 -0.43400
Br	Br	0.45946 0.49172 0.28560 -0.43300
Br	Br	0.79388 0.00828 0.46774 -0.43400
Br	Br	0.49172 0.78560 0.95946 -0.43400
Br	Br	0.00828 0.96774 0.29388 -0.43400
Br	Br	0.17386 0.71440 0.20612 -0.43300
Br	Br	0.32614 0.53226 0.54054 -0.43300
N 	N 	0.30989 0.36383 0.29394 -0.23500
N 	N 	0.38515 0.41966 0.39149 -0.17000
N 	N 	0.28978 0.28981 0.98531 -0.24000
N 	N 	0.32638 0.31247 0.93163 -0.16300
N 	N 	0.56989 0.01595 0.20606 -0.23500
N 	N 	0.52817 0.99366 0.10851 -0.17000
N 	N 	0.80450 0.30447 0.51469 -0.24000
N 	N 	0.88084 0.39475 0.56837 -0.16300
N 	N 	0.93011 0.13617 0.44606 -0.23500
N 	N 	0.97183 0.08034 0.46549 -0.17000
N 	N 	0.69550 0.21019 0.49997 -0.24000
N 	N 	0.61916 0.18753 0.51391 -0.16300
N 	N 	0.19011 0.48405 0.05394 -0.23500
N 	N 	0.11485 0.50634 0.03451 -0.17000
N 	N 	0.21022 0.19553 0.00003 -0.24000
N 	N 	0.17362 0.10525 0.98609 -0.16300
N 	N 	0.94606 0.93011 0.63617 -0.23500
N 	N 	0.96549 0.97183 0.58034 -0.17000
N 	N 	0.99997 0.69550 0.71019 -0.24000
N 	N 	0.01391 0.61916 0.68753 -0.16300
N 	N 	0.55394 0.19011 0.98405 -0.23500
N 	N 	0.53451 0.11485 0.00634 -0.17000
N 	N 	0.50003 0.21022 0.69553 -0.24000
N 	N 	0.48609 0.17362 0.60525 -0.16300
N 	N 	0.79394 0.30989 0.86383 -0.23500
N 	N 	0.89149 0.38515 0.91966 -0.17000
N 	N 	0.48531 0.28978 0.78981 -0.24000
N 	N 	0.43163 0.32638 0.81247 -0.16300
N 	N 	0.70606 0.56989 0.51595 -0.23500
N 	N 	0.60851 0.52817 0.49366 -0.17000
N 	N 	0.01469 0.80450 0.80447 -0.24000
N 	N 	0.06837 0.88084 0.89475 -0.16300
N 	N 	0.01595 0.70606 0.06989 -0.23500
N 	N 	0.99366 0.60851 0.02817 -0.17000
N 	N 	0.30447 0.01469 0.30450 -0.24000
N 	N 	0.39475 0.06837 0.38084 -0.16300
N 	N 	0.36383 0.79394 0.80989 -0.23500
N 	N 	0.41966 0.89149 0.88515 -0.17000
N 	N 	0.28981 0.48531 0.78978 -0.24000
N 	N 	0.31247 0.43163 0.82638 -0.16300
N 	N 	0.48405 0.55394 0.69011 -0.23500
N 	N 	0.50634 0.53451 0.61485 -0.17000
N 	N 	0.19553 0.50003 0.71022 -0.24000
N 	N 	0.10525 0.48609 0.67362 -0.16300
N 	N 	0.13617 0.94606 0.43011 -0.23500
N 	N 	0.08034 0.96549 0.47183 -0.17000
N 	N 	0.21019 0.99997 0.19550 -0.24000
N 	N 	0.18753 0.01391 0.11916 -0.16200
N 	N 	0.51595 0.06989 0.70606 -0.23500
N 	N 	0.49366 0.02817 0.60851 -0.17000
N 	N 	0.80447 0.30450 0.01469 -0.24000
N 	N 	0.89475 0.38084 0.06837 -0.16300
N 	N 	0.86383 0.80989 0.79394 -0.23500
N 	N 	0.91966 0.88515 0.89149 -0.17000
N 	N 	0.78981 0.78978 0.48531 -0.24000
N 	N 	0.81247 0.82638 0.43163 -0.16300
N 	N 	0.98405 0.69011 0.55394 -0.23500
N 	N 	0.00634 0.61485 0.53451 -0.17000
N 	N 	0.69553 0.71022 0.50003 -0.24000
N 	N 	0.60525 0.67362 0.48609 -0.16300
N 	N 	0.63617 0.43011 0.94606 -0.23500
N 	N 	0.58034 0.47183 0.96549 -0.17000
N 	N 	0.71019 0.19550 0.99997 -0.24000
N 	N 	0.68753 0.11916 0.01391 -0.16200
N 	N 	0.80989 0.29394 0.36383 -0.23500
N 	N 	0.88515 0.39149 0.41966 -0.17000
N 	N 	0.78978 0.98531 0.28981 -0.24000
N 	N 	0.82638 0.93163 0.31247 -0.16300
N 	N 	0.06989 0.20606 0.01595 -0.23500
N 	N 	0.02817 0.10851 0.99366 -0.17000
N 	N 	0.30450 0.51469 0.30447 -0.24000
N 	N 	0.38084 0.56837 0.39475 -0.16300
N 	N 	0.43011 0.44606 0.13617 -0.23500
N 	N 	0.47183 0.46549 0.08034 -0.17000
N 	N 	0.19550 0.49997 0.21019 -0.24000
N 	N 	0.11916 0.51391 0.18753 -0.16300
N 	N 	0.69011 0.05394 0.48405 -0.23500
N 	N 	0.61485 0.03451 0.50634 -0.17000
N 	N 	0.71022 0.00003 0.19553 -0.24000
N 	N 	0.67362 0.98609 0.10525 -0.16300
N 	N 	0.44606 0.63617 0.93011 -0.23500
N 	N 	0.46549 0.58034 0.97183 -0.17000
N 	N 	0.49997 0.71019 0.69550 -0.24000
N 	N 	0.51391 0.68753 0.61916 -0.16300
N 	N 	0.05394 0.98405 0.19011 -0.23500
N 	N 	0.03451 0.00634 0.11485 -0.17000
N 	N 	0.00003 0.69553 0.21022 -0.24000
N 	N 	0.98609 0.60525 0.17362 -0.16300
N 	N 	0.29394 0.86383 0.30989 -0.23500
N 	N 	0.39149 0.91966 0.38515 -0.17000
N 	N 	0.98531 0.78981 0.28978 -0.24000
N 	N 	0.93163 0.81247 0.32638 -0.16300
N 	N 	0.20606 0.51595 0.56989 -0.23500
N 	N 	0.10851 0.49366 0.52817 -0.17000
N 	N 	0.51469 0.80447 0.80450 -0.24000
N 	N 	0.56837 0.89475 0.88084 -0.16300
