data_crystal

_cell_length_a 26.06430
_cell_length_b 26.06430
_cell_length_c 26.06430
_cell_angle_alpha 109.47100
_cell_angle_beta  109.47100
_cell_angle_gamma 109.47100

_symmetry_space_group_name_	'P 1'
_symmetry_space_group_name_H-M	'P 1'

loop_
_symmetry_equiv_pos_as_xyz
  x,y,z

loop_
_atom_site_label
_atom_site_type_symbol
_atom_site_fract_x
_atom_site_fract_y
_atom_site_fract_z
_atom_site_charge
Cu	Cu	0.44018 0.67589 0.87661 0.84800
Cu	Cu	0.29928 0.56357 0.62339 0.84800
Cu	Cu	0.20072 0.82411 0.26429 0.84800
Cu	Cu	0.05982 0.93643 0.23571 0.84800
Cu	Cu	0.76429 0.20072 0.32411 0.84800
Cu	Cu	0.73571 0.05982 0.43643 0.84800
Cu	Cu	0.37661 0.44018 0.17589 0.84800
Cu	Cu	0.12339 0.29928 0.06357 0.84800
Cu	Cu	0.56357 0.12339 0.79928 0.84800
Cu	Cu	0.67589 0.37661 0.94018 0.84800
Cu	Cu	0.93643 0.73571 0.55982 0.84800
Cu	Cu	0.82411 0.76429 0.70072 0.84700
Cu	Cu	0.06357 0.79928 0.12339 0.84700
Cu	Cu	0.17589 0.94018 0.37661 0.84700
Cu	Cu	0.43643 0.55982 0.73571 0.84700
Cu	Cu	0.32411 0.70072 0.76429 0.84700
Cu	Cu	0.94018 0.87661 0.67589 0.84700
Cu	Cu	0.79928 0.62339 0.56357 0.84700
Cu	Cu	0.70072 0.26429 0.82411 0.84700
Cu	Cu	0.55982 0.23571 0.93643 0.84700
Cu	Cu	0.26429 0.32411 0.20072 0.84700
Cu	Cu	0.23571 0.43643 0.05982 0.84700
Cu	Cu	0.87661 0.17589 0.44018 0.84700
Cu	Cu	0.62339 0.06357 0.29928 0.84700
Cu	Cu	0.46371 0.71371 0.75000 0.83100
Cu	Cu	0.03629 0.78629 0.25000 0.83100
Cu	Cu	0.75000 0.03629 0.28629 0.83100
Cu	Cu	0.25000 0.46371 0.21371 0.83100
Cu	Cu	0.71371 0.25000 0.96371 0.83100
Cu	Cu	0.78629 0.75000 0.53629 0.83100
Cu	Cu	0.21371 0.96371 0.25000 0.83100
Cu	Cu	0.28629 0.53629 0.75000 0.83100
Cu	Cu	0.96371 0.75000 0.71371 0.83100
Cu	Cu	0.53629 0.25000 0.78629 0.83100
Cu	Cu	0.25000 0.28629 0.03629 0.83100
Cu	Cu	0.75000 0.21371 0.46371 0.83100
H 	H 	0.48570 0.57770 0.90300 0.01500
H 	H 	0.38270 0.63870 0.95540 0.02400
H 	H 	0.39590 0.57160 0.00070 0.05600
H 	H 	0.54700 0.83000 0.89360 -0.00900
H 	H 	0.50750 0.83710 0.73980 0.01700
H 	H 	0.56770 0.94520 0.82630 0.06300
H 	H 	0.17470 0.58270 0.59700 0.01500
H 	H 	0.18330 0.42730 0.54460 0.02400
H 	H 	0.07090 0.39520 0.49930 0.05700
H 	H 	0.43640 0.65340 0.60640 -0.00900
H 	H 	0.59730 0.76770 0.76020 0.01700
H 	H 	0.61890 0.74140 0.67370 0.06300
H 	H 	0.32530 0.92230 0.40800 0.01500
H 	H 	0.31670 0.86130 0.24400 0.02400
H 	H 	0.42910 0.92840 0.32430 0.05700
H 	H 	0.06360 0.67000 0.21700 -0.00800
H 	H 	0.90270 0.66290 0.17040 0.01700
H 	H 	0.88110 0.55480 0.12250 0.06300
H 	H 	0.01430 0.91730 0.09200 0.01500
H 	H 	0.11730 0.07270 0.25600 0.02400
H 	H 	0.10410 0.10480 0.17570 0.05700
H 	H 	0.95300 0.84660 0.28300 -0.00800
H 	H 	0.99250 0.73230 0.32960 0.01700
H 	H 	0.93230 0.75860 0.37750 0.06300
H 	H 	0.90800 0.32530 0.42230 0.01500
H 	H 	0.74400 0.31670 0.36130 0.02400
H 	H 	0.82430 0.42910 0.42840 0.05700
H 	H 	0.71700 0.06360 0.17000 -0.00900
H 	H 	0.67040 0.90270 0.16290 0.01700
H 	H 	0.62250 0.88110 0.05480 0.06300
H 	H 	0.59200 0.01430 0.41730 0.01500
H 	H 	0.75600 0.11730 0.57270 0.02400
H 	H 	0.67570 0.10410 0.60480 0.05700
H 	H 	0.78300 0.95300 0.34660 -0.00800
H 	H 	0.82960 0.99250 0.23230 0.01700
H 	H 	0.87750 0.93230 0.25860 0.06300
H 	H 	0.40300 0.48570 0.07770 0.01500
H 	H 	0.45540 0.38270 0.13870 0.02400
H 	H 	0.50070 0.39590 0.07160 0.05700
H 	H 	0.39360 0.54700 0.33000 -0.00900
H 	H 	0.23980 0.50750 0.33710 0.01700
H 	H 	0.32630 0.56770 0.44520 0.06300
H 	H 	0.09700 0.17470 0.08270 0.01600
H 	H 	0.04460 0.18330 0.92730 0.02500
H 	H 	0.99930 0.07090 0.89520 0.05400
H 	H 	0.10640 0.43640 0.15340 -0.00900
H 	H 	0.26020 0.59730 0.26770 0.01700
H 	H 	0.17370 0.61890 0.24140 0.06300
H 	H 	0.58270 0.09700 0.67470 0.01500
H 	H 	0.42730 0.04460 0.68330 0.02400
H 	H 	0.39520 0.99930 0.57090 0.05600
H 	H 	0.65340 0.10640 0.93640 -0.00800
H 	H 	0.76770 0.26020 0.09730 0.01700
H 	H 	0.74140 0.17370 0.11890 0.06300
H 	H 	0.57770 0.40300 0.98570 0.01500
H 	H 	0.63870 0.45540 0.88270 0.02400
H 	H 	0.57160 0.50070 0.89590 0.05700
H 	H 	0.83000 0.39360 0.04700 -0.00800
H 	H 	0.83710 0.23980 0.00750 0.01700
H 	H 	0.94520 0.32630 0.06770 0.06300
H 	H 	0.91730 0.59200 0.51430 0.01500
H 	H 	0.07270 0.75600 0.61730 0.02400
H 	H 	0.10480 0.67570 0.60410 0.05700
H 	H 	0.84660 0.78300 0.45300 -0.00900
H 	H 	0.73230 0.82960 0.49250 0.01700
H 	H 	0.75860 0.87750 0.43230 0.06300
H 	H 	0.92230 0.90800 0.82530 0.01500
H 	H 	0.86130 0.74400 0.81670 0.02400
H 	H 	0.92840 0.82430 0.92910 0.05700
H 	H 	0.67000 0.71700 0.56360 -0.00900
H 	H 	0.66290 0.67040 0.40270 0.01700
H 	H 	0.55480 0.62250 0.38110 0.06300
H 	H 	0.08270 0.67470 0.09700 0.01600
H 	H 	0.92730 0.68330 0.04460 0.02400
H 	H 	0.89520 0.57090 0.99930 0.05600
H 	H 	0.15340 0.93640 0.10640 -0.00800
H 	H 	0.26770 0.09730 0.26020 0.01700
H 	H 	0.24140 0.11890 0.17370 0.06300
H 	H 	0.07770 0.98570 0.40300 0.01500
H 	H 	0.13870 0.88270 0.45540 0.02400
H 	H 	0.07160 0.89590 0.50070 0.05700
H 	H 	0.33000 0.04700 0.39360 -0.00800
H 	H 	0.33710 0.00750 0.23980 0.01700
H 	H 	0.44520 0.06770 0.32630 0.06300
H 	H 	0.41730 0.51430 0.59200 0.01500
H 	H 	0.57270 0.61730 0.75600 0.02400
H 	H 	0.60480 0.60410 0.67570 0.05700
H 	H 	0.34660 0.45300 0.78300 -0.00900
H 	H 	0.23230 0.49250 0.82960 0.01700
H 	H 	0.25860 0.43230 0.87750 0.06300
H 	H 	0.42230 0.82530 0.90800 0.01500
H 	H 	0.36130 0.81670 0.74400 0.02400
H 	H 	0.42840 0.92910 0.82430 0.05700
H 	H 	0.17000 0.56360 0.71700 -0.00900
H 	H 	0.16290 0.40270 0.67040 0.01700
H 	H 	0.05480 0.38110 0.62250 0.06300
H 	H 	0.98570 0.90300 0.57770 0.01500
H 	H 	0.88270 0.95540 0.63870 0.02500
H 	H 	0.89590 0.00070 0.57160 0.05600
H 	H 	0.04700 0.89360 0.83000 -0.00900
H 	H 	0.00750 0.73980 0.83710 0.01700
H 	H 	0.06770 0.82630 0.94520 0.06300
H 	H 	0.67470 0.59700 0.58270 0.01500
H 	H 	0.68330 0.54460 0.42730 0.02400
H 	H 	0.57090 0.49930 0.39520 0.05700
H 	H 	0.93640 0.60640 0.65340 -0.00800
H 	H 	0.09730 0.76020 0.76770 0.01700
H 	H 	0.11890 0.67370 0.74140 0.06300
H 	H 	0.82530 0.40800 0.92230 0.01500
H 	H 	0.81670 0.24400 0.86130 0.02400
H 	H 	0.92910 0.32430 0.92840 0.05600
H 	H 	0.56360 0.21700 0.67000 -0.00900
H 	H 	0.40270 0.17040 0.66290 0.01700
H 	H 	0.38110 0.12250 0.55480 0.06300
H 	H 	0.51430 0.09200 0.91730 0.01500
H 	H 	0.61730 0.25600 0.07270 0.02400
H 	H 	0.60410 0.17570 0.10480 0.05700
H 	H 	0.45300 0.28300 0.84660 -0.00900
H 	H 	0.49250 0.32960 0.73230 0.01700
H 	H 	0.43230 0.37750 0.75860 0.06300
H 	H 	0.40800 0.42230 0.32530 0.01500
H 	H 	0.24400 0.36130 0.31670 0.02400
H 	H 	0.32430 0.42840 0.42910 0.05700
H 	H 	0.21700 0.17000 0.06360 -0.00800
H 	H 	0.17040 0.16290 0.90270 0.01700
H 	H 	0.12250 0.05480 0.88110 0.06300
H 	H 	0.09200 0.41730 0.01430 0.01500
H 	H 	0.25600 0.57270 0.11730 0.02400
H 	H 	0.17570 0.60480 0.10410 0.05700
H 	H 	0.28300 0.34660 0.95300 -0.00800
H 	H 	0.32960 0.23230 0.99250 0.01700
H 	H 	0.37750 0.25860 0.93230 0.06300
H 	H 	0.90300 0.07770 0.48570 0.01500
H 	H 	0.95540 0.13870 0.38270 0.02400
H 	H 	0.00070 0.07160 0.39590 0.05800
H 	H 	0.89360 0.33000 0.54700 -0.00900
H 	H 	0.73980 0.33710 0.50750 0.01700
H 	H 	0.82630 0.44520 0.56770 0.06300
H 	H 	0.59700 0.08270 0.17470 0.01500
H 	H 	0.54460 0.92730 0.18330 0.02400
H 	H 	0.49930 0.89520 0.07090 0.05700
H 	H 	0.60640 0.15340 0.43640 -0.00900
H 	H 	0.76020 0.26770 0.59730 0.01700
H 	H 	0.67370 0.24140 0.61890 0.06300
W 	W 	0.37500 0.62500 0.75000 0.06500
W 	W 	0.12500 0.87500 0.25000 0.06500
W 	W 	0.75000 0.12500 0.37500 0.06500
W 	W 	0.25000 0.37500 0.12500 0.06500
W 	W 	0.62500 0.25000 0.87500 0.06500
W 	W 	0.87500 0.75000 0.62500 0.06500
C 	C 	0.46360 0.58660 0.92280 0.08400
C 	C 	0.40600 0.61890 0.95110 0.00700
C 	C 	0.41340 0.58260 0.97760 0.01300
C 	C 	0.47500 0.52910 0.97670 0.18500
C 	C 	0.54390 0.84540 0.86590 0.12700
C 	C 	0.52200 0.84960 0.78220 0.01600
C 	C 	0.55620 0.90870 0.82890 0.00300
C 	C 	0.60750 0.95330 0.94460 0.19400
C 	C 	0.16380 0.54080 0.57720 0.08400
C 	C 	0.16780 0.45490 0.54890 0.00700
C 	C 	0.10500 0.43580 0.52240 0.01300
C 	C 	0.05240 0.49830 0.52330 0.18500
C 	C 	0.47950 0.67800 0.63410 0.12700
C 	C 	0.56740 0.73980 0.71780 0.01600
C 	C 	0.57980 0.72730 0.67110 0.00300
C 	C 	0.50870 0.66290 0.55540 0.19400
C 	C 	0.33620 0.91340 0.37700 0.08400
C 	C 	0.33220 0.88110 0.28710 0.00700
C 	C 	0.39500 0.91740 0.33080 0.01300
C 	C 	0.44760 0.97090 0.44590 0.18500
C 	C 	0.02050 0.65460 0.19850 0.12500
C 	C 	0.93260 0.65040 0.17240 0.01600
C 	C 	0.92020 0.59130 0.14750 0.00300
C 	C 	0.99130 0.54670 0.15420 0.19400
C 	C 	0.03640 0.95920 0.12300 0.08300
C 	C 	0.09400 0.04510 0.21290 0.00800
C 	C 	0.08660 0.06420 0.16920 0.01300
C 	C 	0.02500 0.00170 0.05410 0.18500
C 	C 	0.95610 0.82200 0.30150 0.12700
C 	C 	0.97800 0.76020 0.32760 0.01600
C 	C 	0.94380 0.77270 0.35250 0.00300
C 	C 	0.89250 0.83710 0.34580 0.19400
C 	C 	0.87700 0.33620 0.41340 0.08400
C 	C 	0.78710 0.33220 0.38110 0.00700
C 	C 	0.83080 0.39500 0.41740 0.01300
C 	C 	0.94590 0.44760 0.47090 0.18500
C 	C 	0.69850 0.02050 0.15460 0.12700
C 	C 	0.67240 0.93260 0.15040 0.01600
C 	C 	0.64750 0.92020 0.09130 0.00300
C 	C 	0.65420 0.99130 0.04670 0.19400
C 	C 	0.62300 0.03640 0.45920 0.08400
C 	C 	0.71290 0.09400 0.54510 0.00700
C 	C 	0.66920 0.08660 0.56420 0.01300
C 	C 	0.55410 0.02500 0.50170 0.18500
C 	C 	0.80150 0.95610 0.32200 0.12700
C 	C 	0.82760 0.97800 0.26020 0.01600
C 	C 	0.85250 0.94380 0.27270 0.00300
C 	C 	0.84580 0.89250 0.33710 0.19400
C 	C 	0.42280 0.46360 0.08660 0.08400
C 	C 	0.45110 0.40600 0.11890 0.00700
C 	C 	0.47760 0.41340 0.08260 0.01300
C 	C 	0.47670 0.47500 0.02910 0.18500
C 	C 	0.36590 0.54390 0.34540 0.12700
C 	C 	0.28220 0.52200 0.34960 0.01600
C 	C 	0.32890 0.55620 0.40870 0.00300
C 	C 	0.44460 0.60750 0.45330 0.19400
C 	C 	0.07720 0.16380 0.04080 0.08400
C 	C 	0.04890 0.16780 0.95490 0.00600
C 	C 	0.02240 0.10500 0.93580 0.01600
C 	C 	0.02330 0.05240 0.99830 0.18600
C 	C 	0.13410 0.47950 0.17800 0.12700
C 	C 	0.21780 0.56740 0.23980 0.01600
C 	C 	0.17110 0.57980 0.22730 0.00300
C 	C 	0.05540 0.50870 0.16290 0.19400
C 	C 	0.54080 0.07720 0.66380 0.08400
C 	C 	0.45490 0.04890 0.66780 0.00600
C 	C 	0.43580 0.02240 0.60500 0.01400
C 	C 	0.49830 0.02330 0.55240 0.18500
C 	C 	0.67800 0.13410 0.97950 0.12500
C 	C 	0.73980 0.21780 0.06740 0.01600
C 	C 	0.72730 0.17110 0.07980 0.00300
C 	C 	0.66290 0.05540 0.00870 0.19400
C 	C 	0.58660 0.42280 0.96360 0.08400
C 	C 	0.61890 0.45110 0.90600 0.00700
C 	C 	0.58260 0.47760 0.91340 0.01300
C 	C 	0.52910 0.47670 0.97500 0.18500
C 	C 	0.84540 0.36590 0.04390 0.12700
C 	C 	0.84960 0.28220 0.02200 0.01600
C 	C 	0.90870 0.32890 0.05620 0.00300
C 	C 	0.95330 0.44460 0.10750 0.19400
C 	C 	0.95920 0.62300 0.53640 0.08400
C 	C 	0.04510 0.71290 0.59400 0.00600
C 	C 	0.06420 0.66920 0.58660 0.01300
C 	C 	0.00170 0.55410 0.52500 0.18500
C 	C 	0.82200 0.80150 0.45610 0.12700
C 	C 	0.76020 0.82760 0.47800 0.01600
C 	C 	0.77270 0.85250 0.44380 0.00300
C 	C 	0.83710 0.84580 0.39250 0.19400
C 	C 	0.91340 0.87700 0.83620 0.08400
C 	C 	0.88110 0.78710 0.83220 0.00700
C 	C 	0.91740 0.83080 0.89500 0.01300
C 	C 	0.97090 0.94590 0.94760 0.18500
C 	C 	0.65460 0.69850 0.52050 0.12700
C 	C 	0.65040 0.67240 0.43260 0.01600
C 	C 	0.59130 0.64750 0.42020 0.00300
C 	C 	0.54670 0.65420 0.49130 0.19400
C 	C 	0.04080 0.66380 0.07720 0.08300
C 	C 	0.95490 0.66780 0.04890 0.00700
C 	C 	0.93580 0.60500 0.02240 0.01400
C 	C 	0.99830 0.55240 0.02330 0.18600
C 	C 	0.17800 0.97950 0.13410 0.12500
C 	C 	0.23980 0.06740 0.21780 0.01600
C 	C 	0.22730 0.07980 0.17110 0.00300
C 	C 	0.16290 0.00870 0.05540 0.19500
C 	C 	0.08660 0.96360 0.42280 0.08400
C 	C 	0.11890 0.90600 0.45110 0.00700
C 	C 	0.08260 0.91340 0.47760 0.01300
C 	C 	0.02910 0.97500 0.47670 0.18400
C 	C 	0.34540 0.04390 0.36590 0.12700
C 	C 	0.34960 0.02200 0.28220 0.01600
C 	C 	0.40870 0.05620 0.32890 0.00300
C 	C 	0.45330 0.10750 0.44460 0.19400
C 	C 	0.45920 0.53640 0.62300 0.08400
C 	C 	0.54510 0.59400 0.71290 0.00700
C 	C 	0.56420 0.58660 0.66920 0.01300
C 	C 	0.50170 0.52500 0.55410 0.18500
C 	C 	0.32200 0.45610 0.80150 0.12700
C 	C 	0.26020 0.47800 0.82760 0.01600
C 	C 	0.27270 0.44380 0.85250 0.00300
C 	C 	0.33710 0.39250 0.84580 0.19400
C 	C 	0.41340 0.83620 0.87700 0.08400
C 	C 	0.38110 0.83220 0.78710 0.00700
C 	C 	0.41740 0.89500 0.83080 0.01300
C 	C 	0.47090 0.94760 0.94590 0.18500
C 	C 	0.15460 0.52050 0.69850 0.12700
C 	C 	0.15040 0.43260 0.67240 0.01600
C 	C 	0.09130 0.42020 0.64750 0.00300
C 	C 	0.04670 0.49130 0.65420 0.19400
C 	C 	0.96360 0.92280 0.58660 0.08400
C 	C 	0.90600 0.95110 0.61890 0.00600
C 	C 	0.91340 0.97760 0.58260 0.01500
C 	C 	0.97500 0.97670 0.52910 0.18600
C 	C 	0.04390 0.86590 0.84540 0.12700
C 	C 	0.02200 0.78220 0.84960 0.01600
C 	C 	0.05620 0.82890 0.90870 0.00300
C 	C 	0.10750 0.94460 0.95330 0.19400
C 	C 	0.66380 0.57720 0.54080 0.08400
C 	C 	0.66780 0.54890 0.45490 0.00700
C 	C 	0.60500 0.52240 0.43580 0.01300
C 	C 	0.55240 0.52330 0.49830 0.18500
C 	C 	0.97950 0.63410 0.67800 0.12600
C 	C 	0.06740 0.71780 0.73980 0.01600
C 	C 	0.07980 0.67110 0.72730 0.00300
C 	C 	0.00870 0.55540 0.66290 0.19400
C 	C 	0.83620 0.37700 0.91340 0.08400
C 	C 	0.83220 0.28710 0.88110 0.00700
C 	C 	0.89500 0.33080 0.91740 0.01300
C 	C 	0.94760 0.44590 0.97090 0.18400
C 	C 	0.52050 0.19850 0.65460 0.12700
C 	C 	0.43260 0.17240 0.65040 0.01600
C 	C 	0.42020 0.14750 0.59130 0.00300
C 	C 	0.49130 0.15420 0.54670 0.19400
C 	C 	0.53640 0.12300 0.95920 0.08400
C 	C 	0.59400 0.21290 0.04510 0.00700
C 	C 	0.58660 0.16920 0.06420 0.01300
C 	C 	0.52500 0.05410 0.00170 0.18500
C 	C 	0.45610 0.30150 0.82200 0.12700
C 	C 	0.47800 0.32760 0.76020 0.01600
C 	C 	0.44380 0.35250 0.77270 0.00300
C 	C 	0.39250 0.34580 0.83710 0.19400
C 	C 	0.37700 0.41340 0.33620 0.08400
C 	C 	0.28710 0.38110 0.33220 0.00700
C 	C 	0.33080 0.41740 0.39500 0.01300
C 	C 	0.44590 0.47090 0.44760 0.18500
C 	C 	0.19850 0.15460 0.02050 0.12600
C 	C 	0.17240 0.15040 0.93260 0.01600
C 	C 	0.14750 0.09130 0.92020 0.00300
C 	C 	0.15420 0.04670 0.99130 0.19400
C 	C 	0.12300 0.45920 0.03640 0.08400
C 	C 	0.21290 0.54510 0.09400 0.00700
C 	C 	0.16920 0.56420 0.08660 0.01300
C 	C 	0.05410 0.50170 0.02500 0.18400
C 	C 	0.30150 0.32200 0.95610 0.12700
C 	C 	0.32760 0.26020 0.97800 0.01600
C 	C 	0.35250 0.27270 0.94380 0.00300
C 	C 	0.34580 0.33710 0.89250 0.19400
C 	C 	0.92280 0.08660 0.46360 0.08400
C 	C 	0.95110 0.11890 0.40600 0.00800
C 	C 	0.97760 0.08260 0.41340 0.01100
C 	C 	0.97670 0.02910 0.47500 0.18400
C 	C 	0.86590 0.34540 0.54390 0.12700
C 	C 	0.78220 0.34960 0.52200 0.01600
C 	C 	0.82890 0.40870 0.55620 0.00300
C 	C 	0.94460 0.45330 0.60750 0.19400
C 	C 	0.57720 0.04080 0.16380 0.08500
C 	C 	0.54890 0.95490 0.16780 0.00700
C 	C 	0.52240 0.93580 0.10500 0.01300
C 	C 	0.52330 0.99830 0.05240 0.18500
C 	C 	0.63410 0.17800 0.47950 0.12700
C 	C 	0.71780 0.23980 0.56740 0.01600
C 	C 	0.67110 0.22730 0.57980 0.00300
C 	C 	0.55540 0.16290 0.50870 0.19400
S 	S 	0.47961 0.66484 0.80913 -0.59600
S 	S 	0.35571 0.67048 0.69087 -0.59600
S 	S 	0.14429 0.83516 0.31477 -0.59600
S 	S 	0.02039 0.82952 0.18523 -0.59600
S 	S 	0.81477 0.14429 0.33516 -0.59600
S 	S 	0.68523 0.02039 0.32952 -0.59600
S 	S 	0.30913 0.47961 0.16484 -0.59600
S 	S 	0.19087 0.35571 0.17048 -0.59600
S 	S 	0.67048 0.19087 0.85571 -0.59600
S 	S 	0.66484 0.30913 0.97961 -0.59600
S 	S 	0.82952 0.68523 0.52039 -0.59600
S 	S 	0.83516 0.81477 0.64429 -0.59600
S 	S 	0.17048 0.85571 0.19087 -0.59600
S 	S 	0.16484 0.97961 0.30913 -0.59600
S 	S 	0.32952 0.52039 0.68523 -0.59600
S 	S 	0.33516 0.64429 0.81477 -0.59600
S 	S 	0.97961 0.80913 0.66484 -0.59600
S 	S 	0.85571 0.69087 0.67048 -0.59600
S 	S 	0.64429 0.31477 0.83516 -0.59600
S 	S 	0.52039 0.18523 0.82952 -0.59600
S 	S 	0.31477 0.33516 0.14429 -0.59600
S 	S 	0.18523 0.32952 0.02039 -0.59600
S 	S 	0.80913 0.16484 0.47961 -0.59600
S 	S 	0.69087 0.17048 0.35571 -0.59600
Br	Br	0.49430 0.78187 0.96383 -0.41400
Br	Br	0.31804 0.53047 0.53617 -0.41400
Br	Br	0.18196 0.71813 0.21243 -0.41400
Br	Br	0.00570 0.96953 0.28757 -0.41500
Br	Br	0.71243 0.18196 0.21813 -0.41400
Br	Br	0.78757 0.00570 0.46953 -0.41400
Br	Br	0.46383 0.49430 0.28187 -0.41400
Br	Br	0.03617 0.31804 0.03047 -0.41400
Br	Br	0.53047 0.03617 0.81804 -0.41400
Br	Br	0.78187 0.46383 0.99430 -0.41400
Br	Br	0.96953 0.78757 0.50570 -0.41400
Br	Br	0.71813 0.71243 0.68196 -0.41400
Br	Br	0.03047 0.81804 0.03617 -0.41500
Br	Br	0.28187 0.99430 0.46383 -0.41400
Br	Br	0.46953 0.50570 0.78757 -0.41400
Br	Br	0.21813 0.68196 0.71243 -0.41400
Br	Br	0.99430 0.96383 0.78187 -0.41400
Br	Br	0.81804 0.53617 0.53047 -0.41400
Br	Br	0.68196 0.21243 0.71813 -0.41400
Br	Br	0.50570 0.28757 0.96953 -0.41400
Br	Br	0.21243 0.21813 0.18196 -0.41400
Br	Br	0.28757 0.46953 0.00570 -0.41400
Br	Br	0.96383 0.28187 0.49430 -0.41400
Br	Br	0.53617 0.03047 0.31804 -0.41400
N 	N 	0.43630 0.62280 0.91770 -0.22900
N 	N 	0.45280 0.56620 0.96120 -0.13700
N 	N 	0.50990 0.51460 0.95570 -0.15300
N 	N 	0.51150 0.81060 0.80530 -0.23700
N 	N 	0.57100 0.90370 0.88290 -0.14800
N 	N 	0.61330 0.93880 0.98670 -0.16200
N 	N 	0.20510 0.51860 0.58230 -0.22900
N 	N 	0.10500 0.49160 0.53880 -0.13700
N 	N 	0.05890 0.55420 0.54430 -0.15300
N 	N 	0.50530 0.70620 0.69470 -0.23700
N 	N 	0.52080 0.68810 0.61710 -0.14800
N 	N 	0.45210 0.62660 0.51330 -0.16100
N 	N 	0.29490 0.87720 0.31350 -0.22900
N 	N 	0.39500 0.93380 0.38660 -0.13700
N 	N 	0.44110 0.98540 0.49530 -0.15300
N 	N 	0.99470 0.68940 0.20090 -0.23700
N 	N 	0.97920 0.59630 0.16730 -0.14800
N 	N 	0.04790 0.56120 0.17450 -0.16200
N 	N 	0.06370 0.98140 0.18650 -0.22900
N 	N 	0.04720 0.00840 0.11340 -0.13600
N 	N 	0.99010 0.94580 0.00470 -0.15200
N 	N 	0.98850 0.79380 0.29910 -0.23700
N 	N 	0.92900 0.81190 0.33270 -0.14800
N 	N 	0.88670 0.87340 0.32550 -0.16100
N 	N 	0.81350 0.29490 0.37720 -0.22900
N 	N 	0.88660 0.39500 0.43380 -0.13700
N 	N 	0.99530 0.44110 0.48540 -0.15300
N 	N 	0.70090 0.99470 0.18940 -0.23700
N 	N 	0.66730 0.97920 0.09630 -0.14800
N 	N 	0.67450 0.04790 0.06120 -0.16100
N 	N 	0.68650 0.06370 0.48140 -0.22900
N 	N 	0.61340 0.04720 0.50840 -0.13700
N 	N 	0.50470 0.99010 0.44580 -0.15300
N 	N 	0.79910 0.98850 0.29380 -0.23700
N 	N 	0.83270 0.92900 0.31190 -0.14800
N 	N 	0.82550 0.88670 0.37340 -0.16100
N 	N 	0.41770 0.43630 0.12280 -0.22900
N 	N 	0.46120 0.45280 0.06620 -0.13700
N 	N 	0.45570 0.50990 0.01460 -0.15300
N 	N 	0.30530 0.51150 0.31060 -0.23700
N 	N 	0.38290 0.57100 0.40370 -0.14800
N 	N 	0.48670 0.61330 0.43880 -0.16100
N 	N 	0.08230 0.20510 0.01860 -0.22900
N 	N 	0.03880 0.10500 0.99160 -0.13700
N 	N 	0.04430 0.05890 0.05420 -0.15300
N 	N 	0.19470 0.50530 0.20620 -0.23700
N 	N 	0.11710 0.52080 0.18810 -0.14800
N 	N 	0.01330 0.45210 0.12660 -0.16200
N 	N 	0.51860 0.08230 0.70510 -0.22900
N 	N 	0.49160 0.03880 0.60500 -0.13700
N 	N 	0.55420 0.04430 0.55890 -0.15300
N 	N 	0.70620 0.19470 0.00530 -0.23700
N 	N 	0.68810 0.11710 0.02080 -0.14800
N 	N 	0.62660 0.01330 0.95210 -0.16200
N 	N 	0.62280 0.41770 0.93630 -0.22900
N 	N 	0.56620 0.46120 0.95280 -0.13700
N 	N 	0.51460 0.45570 0.00990 -0.15300
N 	N 	0.81060 0.30530 0.01150 -0.23700
N 	N 	0.90370 0.38290 0.07100 -0.14800
N 	N 	0.93880 0.48670 0.11330 -0.16200
N 	N 	0.98140 0.68650 0.56370 -0.22900
N 	N 	0.00840 0.61340 0.54720 -0.13700
N 	N 	0.94580 0.50470 0.49010 -0.15300
N 	N 	0.79380 0.79910 0.48850 -0.23700
N 	N 	0.81190 0.83270 0.42900 -0.14800
N 	N 	0.87340 0.82550 0.38670 -0.16100
N 	N 	0.87720 0.81350 0.79490 -0.22900
N 	N 	0.93380 0.88660 0.89500 -0.13700
N 	N 	0.98540 0.99530 0.94110 -0.15300
N 	N 	0.68940 0.70090 0.49470 -0.23700
N 	N 	0.59630 0.66730 0.47920 -0.14800
N 	N 	0.56120 0.67450 0.54790 -0.16100
N 	N 	0.01860 0.70510 0.08230 -0.22900
N 	N 	0.99160 0.60500 0.03880 -0.13600
N 	N 	0.05420 0.55890 0.04430 -0.15300
N 	N 	0.20620 0.00530 0.19470 -0.23600
N 	N 	0.18810 0.02080 0.11710 -0.14800
N 	N 	0.12660 0.95210 0.01330 -0.16300
N 	N 	0.12280 0.93630 0.41770 -0.22900
N 	N 	0.06620 0.95280 0.46120 -0.13700
N 	N 	0.01460 0.00990 0.45570 -0.15200
N 	N 	0.31060 0.01150 0.30530 -0.23700
N 	N 	0.40370 0.07100 0.38290 -0.14800
N 	N 	0.43880 0.11330 0.48670 -0.16100
N 	N 	0.48140 0.56370 0.68650 -0.22900
N 	N 	0.50840 0.54720 0.61340 -0.13700
N 	N 	0.44580 0.49010 0.50470 -0.15300
N 	N 	0.29380 0.48850 0.79910 -0.23700
N 	N 	0.31190 0.42900 0.83270 -0.14800
N 	N 	0.37340 0.38670 0.82550 -0.16100
N 	N 	0.37720 0.79490 0.81350 -0.22900
N 	N 	0.43380 0.89500 0.88660 -0.13700
N 	N 	0.48540 0.94110 0.99530 -0.15300
N 	N 	0.18940 0.49470 0.70090 -0.23700
N 	N 	0.09630 0.47920 0.66730 -0.14800
N 	N 	0.06120 0.54790 0.67450 -0.16200
N 	N 	0.93630 0.91770 0.62280 -0.22900
N 	N 	0.95280 0.96120 0.56620 -0.13700
N 	N 	0.00990 0.95570 0.51460 -0.15300
N 	N 	0.01150 0.80530 0.81060 -0.23700
N 	N 	0.07100 0.88290 0.90370 -0.14800
N 	N 	0.11330 0.98670 0.93880 -0.16200
N 	N 	0.70510 0.58230 0.51860 -0.22900
N 	N 	0.60500 0.53880 0.49160 -0.13700
N 	N 	0.55890 0.54430 0.55420 -0.15300
N 	N 	0.00530 0.69470 0.70620 -0.23700
N 	N 	0.02080 0.61710 0.68810 -0.14800
N 	N 	0.95210 0.51330 0.62660 -0.16200
N 	N 	0.79490 0.31350 0.87720 -0.22900
N 	N 	0.89500 0.38660 0.93380 -0.13700
N 	N 	0.94110 0.49530 0.98540 -0.15300
N 	N 	0.49470 0.20090 0.68940 -0.23700
N 	N 	0.47920 0.16730 0.59630 -0.14800
N 	N 	0.54790 0.17450 0.56120 -0.16100
N 	N 	0.56370 0.18650 0.98140 -0.22900
N 	N 	0.54720 0.11340 0.00840 -0.13700
N 	N 	0.49010 0.00470 0.94580 -0.15300
N 	N 	0.48850 0.29910 0.79380 -0.23700
N 	N 	0.42900 0.33270 0.81190 -0.14800
N 	N 	0.38670 0.32550 0.87340 -0.16100
N 	N 	0.31350 0.37720 0.29490 -0.22900
N 	N 	0.38660 0.43380 0.39500 -0.13700
N 	N 	0.49530 0.48540 0.44110 -0.15300
N 	N 	0.20090 0.18940 0.99470 -0.23700
N 	N 	0.16730 0.09630 0.97920 -0.14800
N 	N 	0.17450 0.06120 0.04790 -0.16200
N 	N 	0.18650 0.48140 0.06370 -0.22900
N 	N 	0.11340 0.50840 0.04720 -0.13700
N 	N 	0.00470 0.44580 0.99010 -0.15200
N 	N 	0.29910 0.29380 0.98850 -0.23700
N 	N 	0.33270 0.31190 0.92900 -0.14800
N 	N 	0.32550 0.37340 0.88670 -0.16100
N 	N 	0.91770 0.12280 0.43630 -0.22900
N 	N 	0.96120 0.06620 0.45280 -0.13600
N 	N 	0.95570 0.01460 0.50990 -0.15300
N 	N 	0.80530 0.31060 0.51150 -0.23700
N 	N 	0.88290 0.40370 0.57100 -0.14800
N 	N 	0.98670 0.43880 0.61330 -0.16200
N 	N 	0.58230 0.01860 0.20510 -0.22900
N 	N 	0.53880 0.99160 0.10500 -0.13700
N 	N 	0.54430 0.05420 0.05890 -0.15200
N 	N 	0.69470 0.20620 0.50530 -0.23700
N 	N 	0.61710 0.18810 0.52080 -0.14800
N 	N 	0.51330 0.12660 0.45210 -0.16100
