data_crystal

_cell_length_a 12.34180
_cell_length_b 21.65500
_cell_length_c 34.18200
_cell_angle_alpha 90.00000
_cell_angle_beta  90.00000
_cell_angle_gamma 90.00000

_symmetry_space_group_name_	'P 1'
_symmetry_space_group_name_H-M	'P 1'

loop_
_symmetry_equiv_pos_as_xyz
  x,y,z

loop_
_atom_site_label
_atom_site_type_symbol
_atom_site_fract_x
_atom_site_fract_y
_atom_site_fract_z
_atom_site_charge
N 	N 	0.62670 0.19370 0.07949 -0.23900
N 	N 	0.35850 0.22550 0.00199 -0.08700
C 	C 	0.55890 0.18890 0.04940 -0.00400
H 	H 	0.51120 0.15440 0.04880 0.00500
C 	C 	0.55340 0.23070 0.01895 0.02300
C 	C 	0.62540 0.28090 0.02010 -0.05400
H 	H 	0.62680 0.31010 0.99940 0.04300
C 	C 	0.69340 0.28720 0.05140 -0.06600
H 	H 	0.74080 0.32170 0.05310 0.04300
C 	C 	0.69260 0.24300 0.08050 0.02900
H 	H 	0.74050 0.24770 0.10200 -0.01200
C 	C 	0.47230 0.22140 0.98690 -0.10200
H 	H 	0.48380 0.18030 0.97480 0.05500
H 	H 	0.48330 0.25310 0.96640 0.05300
C 	C 	0.28200 0.20780 0.97070 -0.05600
H 	H 	0.29790 0.16520 0.96190 0.04100
H 	H 	0.29110 0.23580 0.94800 0.04400
C 	C 	0.33380 0.28860 0.01450 -0.05300
H 	H 	0.34330 0.31720 0.99220 0.04500
H 	H 	0.38440 0.30110 0.03550 0.04400
N 	N 	0.62670 0.69370 0.57949 -0.23900
N 	N 	0.35850 0.72550 0.50199 -0.08700
C 	C 	0.55890 0.68890 0.54940 -0.00400
H 	H 	0.51120 0.65440 0.54880 0.00500
C 	C 	0.55340 0.73070 0.51895 0.02300
C 	C 	0.62540 0.78090 0.52010 -0.05400
H 	H 	0.62680 0.81010 0.49940 0.04200
C 	C 	0.69340 0.78720 0.55140 -0.06700
H 	H 	0.74080 0.82170 0.55310 0.04200
C 	C 	0.69260 0.74300 0.58050 0.02800
H 	H 	0.74050 0.74770 0.60200 -0.01300
C 	C 	0.47230 0.72140 0.48690 -0.10300
H 	H 	0.48380 0.68030 0.47480 0.05400
H 	H 	0.48330 0.75310 0.46640 0.05200
C 	C 	0.28200 0.70780 0.47070 -0.05700
H 	H 	0.29790 0.66520 0.46190 0.04000
H 	H 	0.29110 0.73580 0.44800 0.04300
C 	C 	0.33380 0.78860 0.51450 -0.05400
H 	H 	0.34330 0.81720 0.49220 0.04400
H 	H 	0.38440 0.80110 0.53550 0.04300
N 	N 	0.12670 0.19370 0.57949 -0.24000
N 	N 	0.85850 0.22550 0.50199 -0.08800
C 	C 	0.05890 0.18890 0.54940 -0.00500
H 	H 	0.01120 0.15440 0.54880 0.00400
C 	C 	0.05340 0.23070 0.51895 0.02200
C 	C 	0.12540 0.28090 0.52010 -0.05500
H 	H 	0.12680 0.31010 0.49940 0.04200
C 	C 	0.19340 0.28720 0.55140 -0.06700
H 	H 	0.24080 0.32170 0.55310 0.04200
C 	C 	0.19260 0.24300 0.58050 0.02800
H 	H 	0.24050 0.24770 0.60200 -0.01300
C 	C 	0.97230 0.22140 0.48690 -0.10200
H 	H 	0.98380 0.18030 0.47480 0.05400
H 	H 	0.98330 0.25310 0.46640 0.05200
C 	C 	0.78200 0.20780 0.47070 -0.05700
H 	H 	0.79790 0.16520 0.46190 0.04000
H 	H 	0.79110 0.23580 0.44800 0.04300
C 	C 	0.83380 0.28860 0.51450 -0.05400
H 	H 	0.84330 0.31720 0.49220 0.04400
H 	H 	0.88440 0.30110 0.53550 0.04300
N 	N 	0.12670 0.69370 0.07949 -0.24000
N 	N 	0.85850 0.72550 0.00199 -0.08800
C 	C 	0.05890 0.68890 0.04940 -0.00500
H 	H 	0.01120 0.65440 0.04880 0.00400
C 	C 	0.05340 0.73070 0.01895 0.02200
C 	C 	0.12540 0.78090 0.02010 -0.05500
H 	H 	0.12680 0.81010 0.99940 0.04200
C 	C 	0.19340 0.78720 0.05140 -0.06700
H 	H 	0.24080 0.82170 0.05310 0.04200
C 	C 	0.19260 0.74300 0.08050 0.02800
H 	H 	0.24050 0.74770 0.10200 -0.01300
C 	C 	0.97230 0.72140 0.98690 -0.10300
H 	H 	0.98380 0.68030 0.97480 0.05400
H 	H 	0.98330 0.75310 0.96640 0.05200
C 	C 	0.78200 0.70780 0.97070 -0.05700
H 	H 	0.79790 0.66520 0.96190 0.04000
H 	H 	0.79110 0.73580 0.94800 0.04300
C 	C 	0.83380 0.78860 0.01450 -0.05400
H 	H 	0.84330 0.81720 0.99220 0.04400
H 	H 	0.88440 0.80110 0.03550 0.04300
N 	N 	0.12330 0.55630 0.07949 -0.24000
N 	N 	0.39150 0.52450 0.00199 -0.08800
C 	C 	0.19110 0.56110 0.04940 -0.00500
H 	H 	0.23880 0.59560 0.04880 0.00400
C 	C 	0.19660 0.51930 0.01895 0.02200
C 	C 	0.12460 0.46910 0.02010 -0.05500
H 	H 	0.12320 0.43990 0.99940 0.04200
C 	C 	0.05660 0.46280 0.05140 -0.06700
H 	H 	0.00920 0.42830 0.05310 0.04200
C 	C 	0.05740 0.50700 0.08050 0.02800
H 	H 	0.00950 0.50230 0.10200 -0.01300
C 	C 	0.27770 0.52860 0.98690 -0.10300
H 	H 	0.26620 0.56970 0.97480 0.05400
H 	H 	0.26670 0.49690 0.96640 0.05200
C 	C 	0.46800 0.54220 0.97070 -0.05700
H 	H 	0.45210 0.58480 0.96190 0.04000
H 	H 	0.45890 0.51420 0.94800 0.04300
C 	C 	0.41620 0.46140 0.01450 -0.05400
H 	H 	0.40670 0.43280 0.99220 0.04400
H 	H 	0.36560 0.44890 0.03550 0.04300
N 	N 	0.12330 0.05630 0.57949 -0.24000
N 	N 	0.39150 0.02450 0.50199 -0.08800
C 	C 	0.19110 0.06110 0.54940 -0.00500
H 	H 	0.23880 0.09560 0.54880 0.00400
C 	C 	0.19660 0.01930 0.51895 0.02200
C 	C 	0.12460 0.96910 0.52010 -0.05500
H 	H 	0.12320 0.93990 0.49940 0.04200
C 	C 	0.05660 0.96280 0.55140 -0.06600
H 	H 	0.00920 0.92830 0.55310 0.04200
C 	C 	0.05740 0.00700 0.58050 0.02700
H 	H 	0.00950 0.00230 0.60200 -0.01300
C 	C 	0.27770 0.02860 0.48690 -0.10300
H 	H 	0.26620 0.06970 0.47480 0.05400
H 	H 	0.26670 0.99690 0.46640 0.05200
C 	C 	0.46800 0.04220 0.47070 -0.05700
H 	H 	0.45210 0.08480 0.46190 0.04000
H 	H 	0.45890 0.01420 0.44800 0.04300
C 	C 	0.41620 0.96140 0.51450 -0.05400
H 	H 	0.40670 0.93280 0.49220 0.04400
H 	H 	0.36560 0.94890 0.53550 0.04300
N 	N 	0.62330 0.55630 0.57949 -0.24000
N 	N 	0.89150 0.52450 0.50199 -0.08800
C 	C 	0.69110 0.56110 0.54940 -0.00500
H 	H 	0.73880 0.59560 0.54880 0.00400
C 	C 	0.69660 0.51930 0.51895 0.02200
C 	C 	0.62460 0.46910 0.52010 -0.05500
H 	H 	0.62320 0.43990 0.49940 0.04200
C 	C 	0.55660 0.46280 0.55140 -0.06700
H 	H 	0.50920 0.42830 0.55310 0.04200
C 	C 	0.55740 0.50700 0.58050 0.02800
H 	H 	0.50950 0.50230 0.60200 -0.01300
C 	C 	0.77770 0.52860 0.48690 -0.10300
H 	H 	0.76620 0.56970 0.47480 0.05400
H 	H 	0.76670 0.49690 0.46640 0.05200
C 	C 	0.96800 0.54220 0.47070 -0.05700
H 	H 	0.95210 0.58480 0.46190 0.04000
H 	H 	0.95890 0.51420 0.44800 0.04300
C 	C 	0.91620 0.46140 0.51450 -0.05400
H 	H 	0.90670 0.43280 0.49220 0.04400
H 	H 	0.86560 0.44890 0.53550 0.04300
N 	N 	0.62330 0.05630 0.07949 -0.24000
N 	N 	0.89150 0.02450 0.00199 -0.08800
C 	C 	0.69110 0.06110 0.04940 -0.00500
H 	H 	0.73880 0.09560 0.04880 0.00400
C 	C 	0.69660 0.01930 0.01895 0.02100
C 	C 	0.62460 0.96910 0.02010 -0.05400
H 	H 	0.62320 0.93990 0.99940 0.04200
C 	C 	0.55660 0.96280 0.05140 -0.06700
H 	H 	0.50920 0.92830 0.05310 0.04200
C 	C 	0.55740 0.00700 0.08050 0.02800
H 	H 	0.50950 0.00230 0.10200 -0.01300
C 	C 	0.77770 0.02860 0.98690 -0.10200
H 	H 	0.76620 0.06970 0.97480 0.05400
H 	H 	0.76670 0.99690 0.96640 0.05100
C 	C 	0.96800 0.04220 0.97070 -0.05600
H 	H 	0.95210 0.08480 0.96190 0.04000
H 	H 	0.95890 0.01420 0.94800 0.04300
C 	C 	0.91620 0.96140 0.01450 -0.05400
H 	H 	0.90670 0.93280 0.99220 0.04400
H 	H 	0.86560 0.94890 0.03550 0.04300
N 	N 	0.12330 0.19370 0.67051 -0.24000
N 	N 	0.39150 0.22550 0.74801 -0.08800
C 	C 	0.19110 0.18890 0.70060 -0.00500
H 	H 	0.23880 0.15440 0.70120 0.00400
C 	C 	0.19660 0.23070 0.73105 0.02200
C 	C 	0.12460 0.28090 0.72990 -0.05500
H 	H 	0.12320 0.31010 0.75060 0.04200
C 	C 	0.05660 0.28720 0.69860 -0.06700
H 	H 	0.00920 0.32170 0.69690 0.04200
C 	C 	0.05740 0.24300 0.66950 0.02800
H 	H 	0.00950 0.24770 0.64800 -0.01300
C 	C 	0.27770 0.22140 0.76310 -0.10300
H 	H 	0.26620 0.18030 0.77520 0.05400
H 	H 	0.26670 0.25310 0.78360 0.05200
C 	C 	0.46800 0.20780 0.77930 -0.05700
H 	H 	0.45210 0.16520 0.78810 0.04000
H 	H 	0.45890 0.23580 0.80200 0.04300
C 	C 	0.41620 0.28860 0.73550 -0.05400
H 	H 	0.40670 0.31720 0.75780 0.04400
H 	H 	0.36560 0.30110 0.71450 0.04300
N 	N 	0.12330 0.69370 0.17051 -0.24000
N 	N 	0.39150 0.72550 0.24801 -0.08800
C 	C 	0.19110 0.68890 0.20060 -0.00500
H 	H 	0.23880 0.65440 0.20120 0.00400
C 	C 	0.19660 0.73070 0.23105 0.02200
C 	C 	0.12460 0.78090 0.22990 -0.05500
H 	H 	0.12320 0.81010 0.25060 0.04200
C 	C 	0.05660 0.78720 0.19860 -0.06700
H 	H 	0.00920 0.82170 0.19690 0.04200
C 	C 	0.05740 0.74300 0.16950 0.02800
H 	H 	0.00950 0.74770 0.14800 -0.01300
C 	C 	0.27770 0.72140 0.26310 -0.10300
H 	H 	0.26620 0.68030 0.27520 0.05400
H 	H 	0.26670 0.75310 0.28360 0.05200
C 	C 	0.46800 0.70780 0.27930 -0.05700
H 	H 	0.45210 0.66520 0.28810 0.04000
H 	H 	0.45890 0.73580 0.30200 0.04300
C 	C 	0.41620 0.78860 0.23550 -0.05400
H 	H 	0.40670 0.81720 0.25780 0.04400
H 	H 	0.36560 0.80110 0.21450 0.04300
N 	N 	0.62330 0.19370 0.17051 -0.24000
N 	N 	0.89150 0.22550 0.24801 -0.08800
C 	C 	0.69110 0.18890 0.20060 -0.00500
H 	H 	0.73880 0.15440 0.20120 0.00400
C 	C 	0.69660 0.23070 0.23105 0.02200
C 	C 	0.62460 0.28090 0.22990 -0.05500
H 	H 	0.62320 0.31010 0.25060 0.04200
C 	C 	0.55660 0.28720 0.19860 -0.06700
H 	H 	0.50920 0.32170 0.19690 0.04200
C 	C 	0.55740 0.24300 0.16950 0.02800
H 	H 	0.50950 0.24770 0.14800 -0.01300
C 	C 	0.77770 0.22140 0.26310 -0.10300
H 	H 	0.76620 0.18030 0.27520 0.05400
H 	H 	0.76670 0.25310 0.28360 0.05200
C 	C 	0.96800 0.20780 0.27930 -0.05700
H 	H 	0.95210 0.16520 0.28810 0.04000
H 	H 	0.95890 0.23580 0.30200 0.04300
C 	C 	0.91620 0.28860 0.23550 -0.05400
H 	H 	0.90670 0.31720 0.25780 0.04400
H 	H 	0.86560 0.30110 0.21450 0.04300
N 	N 	0.62330 0.69370 0.67051 -0.24000
N 	N 	0.89150 0.72550 0.74801 -0.08800
C 	C 	0.69110 0.68890 0.70060 -0.00500
H 	H 	0.73880 0.65440 0.70120 0.00400
C 	C 	0.69660 0.73070 0.73105 0.02200
C 	C 	0.62460 0.78090 0.72990 -0.05500
H 	H 	0.62320 0.81010 0.75060 0.04200
C 	C 	0.55660 0.78720 0.69860 -0.06700
H 	H 	0.50920 0.82170 0.69690 0.04200
C 	C 	0.55740 0.74300 0.66950 0.02800
H 	H 	0.50950 0.74770 0.64800 -0.01300
C 	C 	0.77770 0.72140 0.76310 -0.10300
H 	H 	0.76620 0.68030 0.77520 0.05400
H 	H 	0.76670 0.75310 0.78360 0.05200
C 	C 	0.96800 0.70780 0.77930 -0.05700
H 	H 	0.95210 0.66520 0.78810 0.04000
H 	H 	0.95890 0.73580 0.80200 0.04300
C 	C 	0.91620 0.78860 0.73550 -0.05400
H 	H 	0.90670 0.81720 0.75780 0.04400
H 	H 	0.86560 0.80110 0.71450 0.04300
N 	N 	0.62670 0.55630 0.67051 -0.24000
N 	N 	0.35850 0.52450 0.74801 -0.08800
C 	C 	0.55890 0.56110 0.70060 -0.00500
H 	H 	0.51120 0.59560 0.70120 0.00400
C 	C 	0.55340 0.51930 0.73105 0.02200
C 	C 	0.62540 0.46910 0.72990 -0.05500
H 	H 	0.62680 0.43990 0.75060 0.04200
C 	C 	0.69340 0.46280 0.69860 -0.06700
H 	H 	0.74080 0.42830 0.69690 0.04200
C 	C 	0.69260 0.50700 0.66950 0.02800
H 	H 	0.74050 0.50230 0.64800 -0.01300
C 	C 	0.47230 0.52860 0.76310 -0.10300
H 	H 	0.48380 0.56970 0.77520 0.05400
H 	H 	0.48330 0.49690 0.78360 0.05200
C 	C 	0.28200 0.54220 0.77930 -0.05700
H 	H 	0.29790 0.58480 0.78810 0.04000
H 	H 	0.29110 0.51420 0.80200 0.04300
C 	C 	0.33380 0.46140 0.73550 -0.05400
H 	H 	0.34330 0.43280 0.75780 0.04400
H 	H 	0.38440 0.44890 0.71450 0.04300
N 	N 	0.62670 0.05630 0.17051 -0.24000
N 	N 	0.35850 0.02450 0.24801 -0.08800
C 	C 	0.55890 0.06110 0.20060 -0.00500
H 	H 	0.51120 0.09560 0.20120 0.00400
C 	C 	0.55340 0.01930 0.23105 0.02200
C 	C 	0.62540 0.96910 0.22990 -0.05500
H 	H 	0.62680 0.93990 0.25060 0.04200
C 	C 	0.69340 0.96280 0.19860 -0.06700
H 	H 	0.74080 0.92830 0.19690 0.04200
C 	C 	0.69260 0.00700 0.16950 0.02800
H 	H 	0.74050 0.00230 0.14800 -0.01300
C 	C 	0.47230 0.02860 0.26310 -0.10300
H 	H 	0.48380 0.06970 0.27520 0.05400
H 	H 	0.48330 0.99690 0.28360 0.05200
C 	C 	0.28200 0.04220 0.27930 -0.05700
H 	H 	0.29790 0.08480 0.28810 0.04000
H 	H 	0.29110 0.01420 0.30200 0.04300
C 	C 	0.33380 0.96140 0.23550 -0.05400
H 	H 	0.34330 0.93280 0.25780 0.04400
H 	H 	0.38440 0.94890 0.21450 0.04300
N 	N 	0.12670 0.55630 0.17051 -0.24000
N 	N 	0.85850 0.52450 0.24801 -0.08800
C 	C 	0.05890 0.56110 0.20060 -0.00500
H 	H 	0.01120 0.59560 0.20120 0.00400
C 	C 	0.05340 0.51930 0.23105 0.02200
C 	C 	0.12540 0.46910 0.22990 -0.05500
H 	H 	0.12680 0.43990 0.25060 0.04200
C 	C 	0.19340 0.46280 0.19860 -0.06700
H 	H 	0.24080 0.42830 0.19690 0.04200
C 	C 	0.19260 0.50700 0.16950 0.02800
H 	H 	0.24050 0.50230 0.14800 -0.01300
C 	C 	0.97230 0.52860 0.26310 -0.10300
H 	H 	0.98380 0.56970 0.27520 0.05400
H 	H 	0.98330 0.49690 0.28360 0.05200
C 	C 	0.78200 0.54220 0.27930 -0.05700
H 	H 	0.79790 0.58480 0.28810 0.04000
H 	H 	0.79110 0.51420 0.30200 0.04300
C 	C 	0.83380 0.46140 0.23550 -0.05400
H 	H 	0.84330 0.43280 0.25780 0.04400
H 	H 	0.88440 0.44890 0.21450 0.04300
N 	N 	0.12670 0.05630 0.67051 -0.24000
N 	N 	0.85850 0.02450 0.74801 -0.08800
C 	C 	0.05890 0.06110 0.70060 -0.00500
H 	H 	0.01120 0.09560 0.70120 0.00400
C 	C 	0.05340 0.01930 0.73105 0.02100
C 	C 	0.12540 0.96910 0.72990 -0.05400
H 	H 	0.12680 0.93990 0.75060 0.04200
C 	C 	0.19340 0.96280 0.69860 -0.06700
H 	H 	0.24080 0.92830 0.69690 0.04200
C 	C 	0.19260 0.00700 0.66950 0.02800
H 	H 	0.24050 0.00230 0.64800 -0.01300
C 	C 	0.97230 0.02860 0.76310 -0.10100
H 	H 	0.98380 0.06970 0.77520 0.05400
H 	H 	0.98330 0.99690 0.78360 0.05100
C 	C 	0.78200 0.04220 0.77930 -0.05700
H 	H 	0.79790 0.08480 0.78810 0.04000
H 	H 	0.79110 0.01420 0.80200 0.04300
C 	C 	0.83380 0.96140 0.73550 -0.05400
H 	H 	0.84330 0.93280 0.75780 0.04400
H 	H 	0.88440 0.94890 0.71450 0.04300
N 	N 	0.37330 0.80630 0.92051 -0.24000
N 	N 	0.64150 0.77450 0.99801 -0.08800
C 	C 	0.44110 0.81110 0.95060 -0.00500
H 	H 	0.48880 0.84560 0.95120 0.00400
C 	C 	0.44660 0.76930 0.98105 0.02200
C 	C 	0.37460 0.71910 0.97990 -0.05500
H 	H 	0.37320 0.68990 0.00060 0.04200
C 	C 	0.30660 0.71280 0.94860 -0.06700
H 	H 	0.25920 0.67830 0.94690 0.04200
C 	C 	0.30740 0.75700 0.91950 0.02800
H 	H 	0.25950 0.75230 0.89800 -0.01300
C 	C 	0.52770 0.77860 0.01310 -0.10300
H 	H 	0.51620 0.81970 0.02520 0.05400
H 	H 	0.51670 0.74690 0.03360 0.05200
C 	C 	0.71800 0.79220 0.02930 -0.05700
H 	H 	0.70210 0.83480 0.03810 0.04000
H 	H 	0.70890 0.76420 0.05200 0.04300
C 	C 	0.66620 0.71140 0.98550 -0.05400
H 	H 	0.65670 0.68280 0.00780 0.04400
H 	H 	0.61560 0.69890 0.96450 0.04300
N 	N 	0.37330 0.30630 0.42051 -0.24000
N 	N 	0.64150 0.27450 0.49801 -0.08800
C 	C 	0.44110 0.31110 0.45060 -0.00500
H 	H 	0.48880 0.34560 0.45120 0.00400
C 	C 	0.44660 0.26930 0.48105 0.02200
C 	C 	0.37460 0.21910 0.47990 -0.05500
H 	H 	0.37320 0.18990 0.50060 0.04200
C 	C 	0.30660 0.21280 0.44860 -0.06700
H 	H 	0.25920 0.17830 0.44690 0.04200
C 	C 	0.30740 0.25700 0.41950 0.02800
H 	H 	0.25950 0.25230 0.39800 -0.01300
C 	C 	0.52770 0.27860 0.51310 -0.10300
H 	H 	0.51620 0.31970 0.52520 0.05400
H 	H 	0.51670 0.24690 0.53360 0.05200
C 	C 	0.71800 0.29220 0.52930 -0.05700
H 	H 	0.70210 0.33480 0.53810 0.04000
H 	H 	0.70890 0.26420 0.55200 0.04300
C 	C 	0.66620 0.21140 0.48550 -0.05400
H 	H 	0.65670 0.18280 0.50780 0.04400
H 	H 	0.61560 0.19890 0.46450 0.04300
N 	N 	0.87330 0.80630 0.42051 -0.24000
N 	N 	0.14150 0.77450 0.49801 -0.08800
C 	C 	0.94110 0.81110 0.45060 -0.00500
H 	H 	0.98880 0.84560 0.45120 0.00400
C 	C 	0.94660 0.76930 0.48105 0.02200
C 	C 	0.87460 0.71910 0.47990 -0.05500
H 	H 	0.87320 0.68990 0.50060 0.04200
C 	C 	0.80660 0.71280 0.44860 -0.06700
H 	H 	0.75920 0.67830 0.44690 0.04200
C 	C 	0.80740 0.75700 0.41950 0.02800
H 	H 	0.75950 0.75230 0.39800 -0.01300
C 	C 	0.02770 0.77860 0.51310 -0.10200
H 	H 	0.01620 0.81970 0.52520 0.05400
H 	H 	0.01670 0.74690 0.53360 0.05200
C 	C 	0.21800 0.79220 0.52930 -0.05700
H 	H 	0.20210 0.83480 0.53810 0.04000
H 	H 	0.20890 0.76420 0.55200 0.04300
C 	C 	0.16620 0.71140 0.48550 -0.05400
H 	H 	0.15670 0.68280 0.50780 0.04400
H 	H 	0.11560 0.69890 0.46450 0.04300
N 	N 	0.87330 0.30630 0.92051 -0.24000
N 	N 	0.14150 0.27450 0.99801 -0.08800
C 	C 	0.94110 0.31110 0.95060 -0.00500
H 	H 	0.98880 0.34560 0.95120 0.00400
C 	C 	0.94660 0.26930 0.98105 0.02200
C 	C 	0.87460 0.21910 0.97990 -0.05500
H 	H 	0.87320 0.18990 0.00060 0.04200
C 	C 	0.80660 0.21280 0.94860 -0.06700
H 	H 	0.75920 0.17830 0.94690 0.04200
C 	C 	0.80740 0.25700 0.91950 0.02800
H 	H 	0.75950 0.25230 0.89800 -0.01300
C 	C 	0.02770 0.27860 0.01310 -0.10300
H 	H 	0.01620 0.31970 0.02520 0.05400
H 	H 	0.01670 0.24690 0.03360 0.05200
C 	C 	0.21800 0.29220 0.02930 -0.05700
H 	H 	0.20210 0.33480 0.03810 0.04000
H 	H 	0.20890 0.26420 0.05200 0.04300
C 	C 	0.16620 0.21140 0.98550 -0.05400
H 	H 	0.15670 0.18280 0.00780 0.04400
H 	H 	0.11560 0.19890 0.96450 0.04300
N 	N 	0.87670 0.44370 0.92051 -0.24000
N 	N 	0.60850 0.47550 0.99801 -0.08800
C 	C 	0.80890 0.43890 0.95060 -0.00500
H 	H 	0.76120 0.40440 0.95120 0.00400
C 	C 	0.80340 0.48070 0.98105 0.02200
C 	C 	0.87540 0.53090 0.97990 -0.05500
H 	H 	0.87680 0.56010 0.00060 0.04200
C 	C 	0.94340 0.53720 0.94860 -0.06700
H 	H 	0.99080 0.57170 0.94690 0.04200
C 	C 	0.94260 0.49300 0.91950 0.02800
H 	H 	0.99050 0.49770 0.89800 -0.01300
C 	C 	0.72230 0.47140 0.01310 -0.10300
H 	H 	0.73380 0.43030 0.02520 0.05400
H 	H 	0.73330 0.50310 0.03360 0.05200
C 	C 	0.53200 0.45780 0.02930 -0.05700
H 	H 	0.54790 0.41520 0.03810 0.04000
H 	H 	0.54110 0.48580 0.05200 0.04300
C 	C 	0.58380 0.53860 0.98550 -0.05400
H 	H 	0.59330 0.56720 0.00780 0.04400
H 	H 	0.63440 0.55110 0.96450 0.04300
N 	N 	0.87670 0.94370 0.42051 -0.24000
N 	N 	0.60850 0.97550 0.49801 -0.08800
C 	C 	0.80890 0.93890 0.45060 -0.00500
H 	H 	0.76120 0.90440 0.45120 0.00400
C 	C 	0.80340 0.98070 0.48105 0.02200
C 	C 	0.87540 0.03090 0.47990 -0.05500
H 	H 	0.87680 0.06010 0.50060 0.04200
C 	C 	0.94340 0.03720 0.44860 -0.06600
H 	H 	0.99080 0.07170 0.44690 0.04200
C 	C 	0.94260 0.99300 0.41950 0.02700
H 	H 	0.99050 0.99770 0.39800 -0.01300
C 	C 	0.72230 0.97140 0.51310 -0.10300
H 	H 	0.73380 0.93030 0.52520 0.05400
H 	H 	0.73330 0.00310 0.53360 0.05200
C 	C 	0.53200 0.95780 0.52930 -0.05700
H 	H 	0.54790 0.91520 0.53810 0.04000
H 	H 	0.54110 0.98580 0.55200 0.04300
C 	C 	0.58380 0.03860 0.48550 -0.05400
H 	H 	0.59330 0.06720 0.50780 0.04400
H 	H 	0.63440 0.05110 0.46450 0.04300
N 	N 	0.37670 0.44370 0.42051 -0.24000
N 	N 	0.10850 0.47550 0.49801 -0.08800
C 	C 	0.30890 0.43890 0.45060 -0.00500
H 	H 	0.26120 0.40440 0.45120 0.00400
C 	C 	0.30340 0.48070 0.48105 0.02200
C 	C 	0.37540 0.53090 0.47990 -0.05500
H 	H 	0.37680 0.56010 0.50060 0.04200
C 	C 	0.44340 0.53720 0.44860 -0.06700
H 	H 	0.49080 0.57170 0.44690 0.04200
C 	C 	0.44260 0.49300 0.41950 0.02800
H 	H 	0.49050 0.49770 0.39800 -0.01300
C 	C 	0.22230 0.47140 0.51310 -0.10300
H 	H 	0.23380 0.43030 0.52520 0.05400
H 	H 	0.23330 0.50310 0.53360 0.05200
C 	C 	0.03200 0.45780 0.52930 -0.05700
H 	H 	0.04790 0.41520 0.53810 0.04000
H 	H 	0.04110 0.48580 0.55200 0.04300
C 	C 	0.08380 0.53860 0.48550 -0.05400
H 	H 	0.09330 0.56720 0.50780 0.04400
H 	H 	0.13440 0.55110 0.46450 0.04300
N 	N 	0.37670 0.94370 0.92051 -0.24000
N 	N 	0.10850 0.97550 0.99801 -0.08800
C 	C 	0.30890 0.93890 0.95060 -0.00500
H 	H 	0.26120 0.90440 0.95120 0.00400
C 	C 	0.30340 0.98070 0.98105 0.02100
C 	C 	0.37540 0.03090 0.97990 -0.05400
H 	H 	0.37680 0.06010 0.00060 0.04200
C 	C 	0.44340 0.03720 0.94860 -0.06700
H 	H 	0.49080 0.07170 0.94690 0.04200
C 	C 	0.44260 0.99300 0.91950 0.02800
H 	H 	0.49050 0.99770 0.89800 -0.01300
C 	C 	0.22230 0.97140 0.01310 -0.10200
H 	H 	0.23380 0.93030 0.02520 0.05400
H 	H 	0.23330 0.00310 0.03360 0.05100
C 	C 	0.03200 0.95780 0.02930 -0.05600
H 	H 	0.04790 0.91520 0.03810 0.04000
H 	H 	0.04110 0.98580 0.05200 0.04300
C 	C 	0.08380 0.03860 0.98550 -0.05400
H 	H 	0.09330 0.06720 0.00780 0.04400
H 	H 	0.13440 0.05110 0.96450 0.04300
N 	N 	0.87670 0.80630 0.32949 -0.24000
N 	N 	0.60850 0.77450 0.25199 -0.08800
C 	C 	0.80890 0.81110 0.29940 -0.00500
H 	H 	0.76120 0.84560 0.29880 0.00400
C 	C 	0.80340 0.76930 0.26895 0.02200
C 	C 	0.87540 0.71910 0.27010 -0.05500
H 	H 	0.87680 0.68990 0.24940 0.04200
C 	C 	0.94340 0.71280 0.30140 -0.06700
H 	H 	0.99080 0.67830 0.30310 0.04200
C 	C 	0.94260 0.75700 0.33050 0.02800
H 	H 	0.99050 0.75230 0.35200 -0.01300
C 	C 	0.72230 0.77860 0.23690 -0.10300
H 	H 	0.73380 0.81970 0.22480 0.05400
H 	H 	0.73330 0.74690 0.21640 0.05200
C 	C 	0.53200 0.79220 0.22070 -0.05700
H 	H 	0.54790 0.83480 0.21190 0.04000
H 	H 	0.54110 0.76420 0.19800 0.04300
C 	C 	0.58380 0.71140 0.26450 -0.05400
H 	H 	0.59330 0.68280 0.24220 0.04400
H 	H 	0.63440 0.69890 0.28550 0.04300
N 	N 	0.87670 0.30630 0.82949 -0.24000
N 	N 	0.60850 0.27450 0.75199 -0.08800
C 	C 	0.80890 0.31110 0.79940 -0.00500
H 	H 	0.76120 0.34560 0.79880 0.00400
C 	C 	0.80340 0.26930 0.76895 0.02200
C 	C 	0.87540 0.21910 0.77010 -0.05500
H 	H 	0.87680 0.18990 0.74940 0.04200
C 	C 	0.94340 0.21280 0.80140 -0.06700
H 	H 	0.99080 0.17830 0.80310 0.04200
C 	C 	0.94260 0.25700 0.83050 0.02800
H 	H 	0.99050 0.25230 0.85200 -0.01300
C 	C 	0.72230 0.27860 0.73690 -0.10300
H 	H 	0.73380 0.31970 0.72480 0.05400
H 	H 	0.73330 0.24690 0.71640 0.05200
C 	C 	0.53200 0.29220 0.72070 -0.05700
H 	H 	0.54790 0.33480 0.71190 0.04000
H 	H 	0.54110 0.26420 0.69800 0.04300
C 	C 	0.58380 0.21140 0.76450 -0.05400
H 	H 	0.59330 0.18280 0.74220 0.04400
H 	H 	0.63440 0.19890 0.78550 0.04300
N 	N 	0.37670 0.80630 0.82949 -0.24000
N 	N 	0.10850 0.77450 0.75199 -0.08800
C 	C 	0.30890 0.81110 0.79940 -0.00500
H 	H 	0.26120 0.84560 0.79880 0.00400
C 	C 	0.30340 0.76930 0.76895 0.02200
C 	C 	0.37540 0.71910 0.77010 -0.05500
H 	H 	0.37680 0.68990 0.74940 0.04200
C 	C 	0.44340 0.71280 0.80140 -0.06700
H 	H 	0.49080 0.67830 0.80310 0.04200
C 	C 	0.44260 0.75700 0.83050 0.02800
H 	H 	0.49050 0.75230 0.85200 -0.01300
C 	C 	0.22230 0.77860 0.73690 -0.10300
H 	H 	0.23380 0.81970 0.72480 0.05400
H 	H 	0.23330 0.74690 0.71640 0.05200
C 	C 	0.03200 0.79220 0.72070 -0.05700
H 	H 	0.04790 0.83480 0.71190 0.04000
H 	H 	0.04110 0.76420 0.69800 0.04300
C 	C 	0.08380 0.71140 0.76450 -0.05400
H 	H 	0.09330 0.68280 0.74220 0.04400
H 	H 	0.13440 0.69890 0.78550 0.04300
N 	N 	0.37670 0.30630 0.32949 -0.24000
N 	N 	0.10850 0.27450 0.25199 -0.08800
C 	C 	0.30890 0.31110 0.29940 -0.00500
H 	H 	0.26120 0.34560 0.29880 0.00400
C 	C 	0.30340 0.26930 0.26895 0.02200
C 	C 	0.37540 0.21910 0.27010 -0.05500
H 	H 	0.37680 0.18990 0.24940 0.04200
C 	C 	0.44340 0.21280 0.30140 -0.06700
H 	H 	0.49080 0.17830 0.30310 0.04200
C 	C 	0.44260 0.25700 0.33050 0.02800
H 	H 	0.49050 0.25230 0.35200 -0.01300
C 	C 	0.22230 0.27860 0.23690 -0.10300
H 	H 	0.23380 0.31970 0.22480 0.05400
H 	H 	0.23330 0.24690 0.21640 0.05200
C 	C 	0.03200 0.29220 0.22070 -0.05700
H 	H 	0.04790 0.33480 0.21190 0.04000
H 	H 	0.04110 0.26420 0.19800 0.04300
C 	C 	0.08380 0.21140 0.26450 -0.05400
H 	H 	0.09330 0.18280 0.24220 0.04400
H 	H 	0.13440 0.19890 0.28550 0.04300
N 	N 	0.37330 0.44370 0.32949 -0.24000
N 	N 	0.64150 0.47550 0.25199 -0.08800
C 	C 	0.44110 0.43890 0.29940 -0.00500
H 	H 	0.48880 0.40440 0.29880 0.00400
C 	C 	0.44660 0.48070 0.26895 0.02200
C 	C 	0.37460 0.53090 0.27010 -0.05500
H 	H 	0.37320 0.56010 0.24940 0.04200
C 	C 	0.30660 0.53720 0.30140 -0.06700
H 	H 	0.25920 0.57170 0.30310 0.04200
C 	C 	0.30740 0.49300 0.33050 0.02800
H 	H 	0.25950 0.49770 0.35200 -0.01300
C 	C 	0.52770 0.47140 0.23690 -0.10300
H 	H 	0.51620 0.43030 0.22480 0.05400
H 	H 	0.51670 0.50310 0.21640 0.05200
C 	C 	0.71800 0.45780 0.22070 -0.05700
H 	H 	0.70210 0.41520 0.21190 0.04000
H 	H 	0.70890 0.48580 0.19800 0.04300
C 	C 	0.66620 0.53860 0.26450 -0.05400
H 	H 	0.65670 0.56720 0.24220 0.04400
H 	H 	0.61560 0.55110 0.28550 0.04300
N 	N 	0.37330 0.94370 0.82949 -0.24000
N 	N 	0.64150 0.97550 0.75199 -0.08800
C 	C 	0.44110 0.93890 0.79940 -0.00500
H 	H 	0.48880 0.90440 0.79880 0.00400
C 	C 	0.44660 0.98070 0.76895 0.02200
C 	C 	0.37460 0.03090 0.77010 -0.05500
H 	H 	0.37320 0.06010 0.74940 0.04200
C 	C 	0.30660 0.03720 0.80140 -0.06700
H 	H 	0.25920 0.07170 0.80310 0.04200
C 	C 	0.30740 0.99300 0.83050 0.02800
H 	H 	0.25950 0.99770 0.85200 -0.01300
C 	C 	0.52770 0.97140 0.73690 -0.10300
H 	H 	0.51620 0.93030 0.72480 0.05400
H 	H 	0.51670 0.00310 0.71640 0.05200
C 	C 	0.71800 0.95780 0.72070 -0.05700
H 	H 	0.70210 0.91520 0.71190 0.04000
H 	H 	0.70890 0.98580 0.69800 0.04300
C 	C 	0.66620 0.03860 0.76450 -0.05400
H 	H 	0.65670 0.06720 0.74220 0.04400
H 	H 	0.61560 0.05110 0.78550 0.04300
N 	N 	0.87330 0.44370 0.82949 -0.24000
N 	N 	0.14150 0.47550 0.75199 -0.08800
C 	C 	0.94110 0.43890 0.79940 -0.00500
H 	H 	0.98880 0.40440 0.79880 0.00400
C 	C 	0.94660 0.48070 0.76895 0.02200
C 	C 	0.87460 0.53090 0.77010 -0.05500
H 	H 	0.87320 0.56010 0.74940 0.04200
C 	C 	0.80660 0.53720 0.80140 -0.06700
H 	H 	0.75920 0.57170 0.80310 0.04200
C 	C 	0.80740 0.49300 0.83050 0.02800
H 	H 	0.75950 0.49770 0.85200 -0.01300
C 	C 	0.02770 0.47140 0.73690 -0.10300
H 	H 	0.01620 0.43030 0.72480 0.05400
H 	H 	0.01670 0.50310 0.71640 0.05200
C 	C 	0.21800 0.45780 0.72070 -0.05700
H 	H 	0.20210 0.41520 0.71190 0.04000
H 	H 	0.20890 0.48580 0.69800 0.04300
C 	C 	0.16620 0.53860 0.76450 -0.05400
H 	H 	0.15670 0.56720 0.74220 0.04400
H 	H 	0.11560 0.55110 0.78550 0.04300
N 	N 	0.87330 0.94370 0.32949 -0.24000
N 	N 	0.14150 0.97550 0.25199 -0.08800
C 	C 	0.94110 0.93890 0.29940 -0.00500
H 	H 	0.98880 0.90440 0.29880 0.00400
C 	C 	0.94660 0.98070 0.26895 0.02100
C 	C 	0.87460 0.03090 0.27010 -0.05400
H 	H 	0.87320 0.06010 0.24940 0.04200
C 	C 	0.80660 0.03720 0.30140 -0.06700
H 	H 	0.75920 0.07170 0.30310 0.04200
C 	C 	0.80740 0.99300 0.33050 0.02800
H 	H 	0.75950 0.99770 0.35200 -0.01300
C 	C 	0.02770 0.97140 0.23690 -0.10100
H 	H 	0.01620 0.93030 0.22480 0.05400
H 	H 	0.01670 0.00310 0.21640 0.05100
C 	C 	0.21800 0.95780 0.22070 -0.05700
H 	H 	0.20210 0.91520 0.21190 0.04000
H 	H 	0.20890 0.98580 0.19800 0.04300
C 	C 	0.16620 0.03860 0.26450 -0.05400
H 	H 	0.15670 0.06720 0.24220 0.04400
H 	H 	0.11560 0.05110 0.28550 0.04300
Co	Co	0.62500 0.12500 0.12500 1.06800
Co	Co	0.62500 0.62500 0.62500 1.06800
Co	Co	0.12500 0.62500 0.12500 1.06800
Co	Co	0.12500 0.12500 0.62500 1.06800
Co	Co	0.37500 0.87500 0.87500 1.06800
Co	Co	0.37500 0.37500 0.37500 1.06800
Co	Co	0.87500 0.37500 0.87500 1.06800
Co	Co	0.87500 0.87500 0.37500 1.06800
