data_crystal

_cell_length_a 24.62300
_cell_length_b 12.86600
_cell_length_c 14.86800
_cell_angle_alpha 90.00000
_cell_angle_beta  96.78000
_cell_angle_gamma 90.00000

_symmetry_space_group_name_	'P 1'
_symmetry_space_group_name_H-M	'P 1'

loop_
_symmetry_equiv_pos_as_xyz
  x,y,z

loop_
_atom_site_label
_atom_site_type_symbol
_atom_site_fract_x
_atom_site_fract_y
_atom_site_fract_z
_atom_site_charge
Eu	Eu	0.67217 0.79764 0.46679 1.79700
O 	O 	0.30739 0.74140 0.88105 -0.47200
O 	O 	0.22886 0.65280 0.85310 -0.51100
O 	O 	0.27461 0.35500 0.53957 -0.55600
O 	O 	0.20259 0.44950 0.55800 -0.45200
O 	O 	0.58707 0.83120 0.53650 -0.41900
O 	O 	0.60086 0.66940 0.49860 -0.42000
C 	C 	0.29780 0.62730 0.75670 -0.16400
C 	C 	0.26595 0.55780 0.70250 0.08900
H 	H 	0.23010 0.54460 0.71320 0.00900
C 	C 	0.28763 0.50770 0.63180 -0.16400
C 	C 	0.34099 0.52900 0.61460 0.03200
H 	H 	0.35590 0.49280 0.56930 0.02100
C 	C 	0.37216 0.60410 0.66490 -0.07200
C 	C 	0.35016 0.65180 0.73720 0.04100
H 	H 	0.37080 0.70040 0.77270 0.03000
C 	C 	0.42630 0.63630 0.63950 0.09900
C 	C 	0.44156 0.74090 0.64310 -0.14500
H 	H 	0.41910 0.78970 0.66640 0.07700
C 	C 	0.49030 0.77260 0.61210 0.05600
H 	H 	0.50020 0.84240 0.61540 0.01400
C 	C 	0.52377 0.70210 0.57690 -0.12500
C 	C 	0.51007 0.59850 0.57750 0.05700
H 	H 	0.53360 0.54950 0.55730 0.02100
C 	C 	0.46138 0.56560 0.60800 -0.14900
H 	H 	0.45260 0.49530 0.60700 0.08300
C 	C 	0.27629 0.67770 0.83730 0.46200
C 	C 	0.25266 0.43240 0.57320 0.42600
C 	C 	0.57362 0.73590 0.53470 0.33000
Eu	Eu	0.17217 0.29764 0.46679 1.79900
O 	O 	0.80739 0.24140 0.88105 -0.47200
O 	O 	0.72886 0.15280 0.85310 -0.51000
O 	O 	0.77461 0.85500 0.53957 -0.55500
O 	O 	0.70259 0.94950 0.55800 -0.45100
O 	O 	0.08707 0.33120 0.53650 -0.41800
O 	O 	0.10086 0.16940 0.49860 -0.42000
C 	C 	0.79780 0.12730 0.75670 -0.16400
C 	C 	0.76595 0.05780 0.70250 0.08900
H 	H 	0.73010 0.04460 0.71320 0.00900
C 	C 	0.78763 0.00770 0.63180 -0.16400
C 	C 	0.84099 0.02900 0.61460 0.03200
H 	H 	0.85590 0.99280 0.56930 0.02100
C 	C 	0.87216 0.10410 0.66490 -0.07200
C 	C 	0.85016 0.15180 0.73720 0.04100
H 	H 	0.87080 0.20040 0.77270 0.03000
C 	C 	0.92630 0.13630 0.63950 0.09900
C 	C 	0.94156 0.24090 0.64310 -0.14600
H 	H 	0.91910 0.28970 0.66640 0.07700
C 	C 	0.99030 0.27260 0.61210 0.05800
H 	H 	0.00020 0.34240 0.61540 0.01400
C 	C 	0.02377 0.20210 0.57690 -0.12600
C 	C 	0.01007 0.09850 0.57750 0.05700
H 	H 	0.03360 0.04950 0.55730 0.02000
C 	C 	0.96138 0.06560 0.60800 -0.15000
H 	H 	0.95260 0.99530 0.60700 0.08300
C 	C 	0.77629 0.17770 0.83730 0.46200
C 	C 	0.75266 0.93240 0.57320 0.42600
C 	C 	0.07362 0.23590 0.53470 0.33000
Eu	Eu	0.32783 0.79764 0.03321 1.79700
O 	O 	0.69261 0.74140 0.61895 -0.47100
O 	O 	0.77114 0.65280 0.64690 -0.51000
O 	O 	0.72539 0.35500 0.96043 -0.55500
O 	O 	0.79741 0.44950 0.94200 -0.45100
O 	O 	0.41293 0.83120 0.96350 -0.41700
O 	O 	0.39914 0.66940 0.00140 -0.42000
C 	C 	0.70220 0.62730 0.74330 -0.16400
C 	C 	0.73405 0.55780 0.79750 0.08900
H 	H 	0.76990 0.54460 0.78680 0.00900
C 	C 	0.71237 0.50770 0.86820 -0.16300
C 	C 	0.65901 0.52900 0.88540 0.03200
H 	H 	0.64410 0.49280 0.93070 0.02100
C 	C 	0.62784 0.60410 0.83510 -0.07200
C 	C 	0.64984 0.65180 0.76280 0.04100
H 	H 	0.62920 0.70040 0.72730 0.03000
C 	C 	0.57370 0.63630 0.86050 0.09900
C 	C 	0.55844 0.74090 0.85690 -0.14500
H 	H 	0.58090 0.78970 0.83360 0.07700
C 	C 	0.50970 0.77260 0.88790 0.05700
H 	H 	0.49980 0.84240 0.88460 0.01400
C 	C 	0.47623 0.70210 0.92310 -0.12500
C 	C 	0.48993 0.59850 0.92250 0.05700
H 	H 	0.46640 0.54950 0.94270 0.02100
C 	C 	0.53862 0.56560 0.89200 -0.14900
H 	H 	0.54740 0.49530 0.89300 0.08300
C 	C 	0.72371 0.67770 0.66270 0.46200
C 	C 	0.74734 0.43240 0.92680 0.42600
C 	C 	0.42638 0.73590 0.96530 0.33100
Eu	Eu	0.82783 0.29764 0.03321 1.79900
O 	O 	0.19261 0.24140 0.61895 -0.47200
O 	O 	0.27114 0.15280 0.64690 -0.51000
O 	O 	0.22539 0.85500 0.96043 -0.55500
O 	O 	0.29741 0.94950 0.94200 -0.45000
O 	O 	0.91293 0.33120 0.96350 -0.41800
O 	O 	0.89914 0.16940 0.00140 -0.41900
C 	C 	0.20220 0.12730 0.74330 -0.16400
C 	C 	0.23405 0.05780 0.79750 0.08900
H 	H 	0.26990 0.04460 0.78680 0.00900
C 	C 	0.21237 0.00770 0.86820 -0.16400
C 	C 	0.15901 0.02900 0.88540 0.02900
H 	H 	0.14410 0.99280 0.93070 0.02200
C 	C 	0.12784 0.10410 0.83510 -0.07200
C 	C 	0.14984 0.15180 0.76280 0.04100
H 	H 	0.12920 0.20040 0.72730 0.03000
C 	C 	0.07370 0.13630 0.86050 0.10000
C 	C 	0.05844 0.24090 0.85690 -0.14500
H 	H 	0.08090 0.28970 0.83360 0.07700
C 	C 	0.00970 0.27260 0.88790 0.05400
H 	H 	0.99980 0.34240 0.88460 0.01500
C 	C 	0.97623 0.20210 0.92310 -0.12500
C 	C 	0.98993 0.09850 0.92250 0.05900
H 	H 	0.96640 0.04950 0.94270 0.01900
C 	C 	0.03862 0.06560 0.89200 -0.15300
H 	H 	0.04740 0.99530 0.89300 0.08500
C 	C 	0.22371 0.17770 0.66270 0.46200
C 	C 	0.24734 0.93240 0.92680 0.42700
C 	C 	0.92638 0.23590 0.96530 0.32900
Eu	Eu	0.32783 0.20236 0.53321 1.79800
O 	O 	0.69261 0.25860 0.11895 -0.47100
O 	O 	0.77114 0.34720 0.14690 -0.51000
O 	O 	0.72539 0.64500 0.46043 -0.55500
O 	O 	0.79741 0.55050 0.44200 -0.45100
O 	O 	0.41293 0.16880 0.46350 -0.41800
O 	O 	0.39914 0.33060 0.50140 -0.42000
C 	C 	0.70220 0.37270 0.24330 -0.16400
C 	C 	0.73405 0.44220 0.29750 0.08900
H 	H 	0.76990 0.45540 0.28680 0.00900
C 	C 	0.71237 0.49230 0.36820 -0.16400
C 	C 	0.65901 0.47100 0.38540 0.03200
H 	H 	0.64410 0.50720 0.43070 0.02100
C 	C 	0.62784 0.39590 0.33510 -0.07200
C 	C 	0.64984 0.34820 0.26280 0.04100
H 	H 	0.62920 0.29960 0.22730 0.03000
C 	C 	0.57370 0.36370 0.36050 0.09900
C 	C 	0.55844 0.25910 0.35690 -0.14500
H 	H 	0.58090 0.21030 0.33360 0.07700
C 	C 	0.50970 0.22740 0.38790 0.05600
H 	H 	0.49980 0.15760 0.38460 0.01400
C 	C 	0.47623 0.29790 0.42310 -0.12500
C 	C 	0.48993 0.40150 0.42250 0.05700
H 	H 	0.46640 0.45050 0.44270 0.02100
C 	C 	0.53862 0.43440 0.39200 -0.14900
H 	H 	0.54740 0.50470 0.39300 0.08300
C 	C 	0.72371 0.32230 0.16270 0.46200
C 	C 	0.74734 0.56760 0.42680 0.42600
C 	C 	0.42638 0.26410 0.46530 0.33000
Eu	Eu	0.82783 0.70236 0.53321 1.79900
O 	O 	0.19261 0.75860 0.11895 -0.47200
O 	O 	0.27114 0.84720 0.14690 -0.51000
O 	O 	0.22539 0.14500 0.46043 -0.55500
O 	O 	0.29741 0.05050 0.44200 -0.45100
O 	O 	0.91293 0.66880 0.46350 -0.41800
O 	O 	0.89914 0.83060 0.50140 -0.42000
C 	C 	0.20220 0.87270 0.24330 -0.16400
C 	C 	0.23405 0.94220 0.29750 0.08900
H 	H 	0.26990 0.95540 0.28680 0.00900
C 	C 	0.21237 0.99230 0.36820 -0.16400
C 	C 	0.15901 0.97100 0.38540 0.03200
H 	H 	0.14410 0.00720 0.43070 0.02100
C 	C 	0.12784 0.89590 0.33510 -0.07200
C 	C 	0.14984 0.84820 0.26280 0.04100
H 	H 	0.12920 0.79960 0.22730 0.03000
C 	C 	0.07370 0.86370 0.36050 0.09900
C 	C 	0.05844 0.75910 0.35690 -0.14600
H 	H 	0.08090 0.71030 0.33360 0.07700
C 	C 	0.00970 0.72740 0.38790 0.05800
H 	H 	0.99980 0.65760 0.38460 0.01400
C 	C 	0.97623 0.79790 0.42310 -0.12600
C 	C 	0.98993 0.90150 0.42250 0.05700
H 	H 	0.96640 0.95050 0.44270 0.02000
C 	C 	0.03862 0.93440 0.39200 -0.15000
H 	H 	0.04740 0.00470 0.39300 0.08300
C 	C 	0.22371 0.82230 0.16270 0.46200
C 	C 	0.24734 0.06760 0.42680 0.42600
C 	C 	0.92638 0.76410 0.46530 0.33000
Eu	Eu	0.67217 0.20236 0.96679 1.79700
O 	O 	0.30739 0.25860 0.38105 -0.47100
O 	O 	0.22886 0.34720 0.35310 -0.51000
O 	O 	0.27461 0.64500 0.03957 -0.55500
O 	O 	0.20259 0.55050 0.05800 -0.45100
O 	O 	0.58707 0.16880 0.03650 -0.41700
O 	O 	0.60086 0.33060 0.99860 -0.42000
C 	C 	0.29780 0.37270 0.25670 -0.16400
C 	C 	0.26595 0.44220 0.20250 0.08900
H 	H 	0.23010 0.45540 0.21320 0.00900
C 	C 	0.28763 0.49230 0.13180 -0.16300
C 	C 	0.34099 0.47100 0.11460 0.03200
H 	H 	0.35590 0.50720 0.06930 0.02100
C 	C 	0.37216 0.39590 0.16490 -0.07200
C 	C 	0.35016 0.34820 0.23720 0.04100
H 	H 	0.37080 0.29960 0.27270 0.03000
C 	C 	0.42630 0.36370 0.13950 0.09900
C 	C 	0.44156 0.25910 0.14310 -0.14500
H 	H 	0.41910 0.21030 0.16640 0.07700
C 	C 	0.49030 0.22740 0.11210 0.05700
H 	H 	0.50020 0.15760 0.11540 0.01400
C 	C 	0.52377 0.29790 0.07690 -0.12500
C 	C 	0.51007 0.40150 0.07750 0.05700
H 	H 	0.53360 0.45050 0.05730 0.02100
C 	C 	0.46138 0.43440 0.10800 -0.14900
H 	H 	0.45260 0.50470 0.10700 0.08300
C 	C 	0.27629 0.32230 0.33730 0.46200
C 	C 	0.25266 0.56760 0.07320 0.42600
C 	C 	0.57362 0.26410 0.03470 0.33100
Eu	Eu	0.17217 0.70236 0.96679 1.79900
O 	O 	0.80739 0.75860 0.38105 -0.47200
O 	O 	0.72886 0.84720 0.35310 -0.51000
O 	O 	0.77461 0.14500 0.03957 -0.55500
O 	O 	0.70259 0.05050 0.05800 -0.45000
O 	O 	0.08707 0.66880 0.03650 -0.41800
O 	O 	0.10086 0.83060 0.99860 -0.41900
C 	C 	0.79780 0.87270 0.25670 -0.16400
C 	C 	0.76595 0.94220 0.20250 0.08900
H 	H 	0.73010 0.95540 0.21320 0.00900
C 	C 	0.78763 0.99230 0.13180 -0.16400
C 	C 	0.84099 0.97100 0.11460 0.02900
H 	H 	0.85590 0.00720 0.06930 0.02200
C 	C 	0.87216 0.89590 0.16490 -0.07200
C 	C 	0.85016 0.84820 0.23720 0.04100
H 	H 	0.87080 0.79960 0.27270 0.03000
C 	C 	0.92630 0.86370 0.13950 0.10000
C 	C 	0.94156 0.75910 0.14310 -0.14500
H 	H 	0.91910 0.71030 0.16640 0.07700
C 	C 	0.99030 0.72740 0.11210 0.05400
H 	H 	0.00020 0.65760 0.11540 0.01500
C 	C 	0.02377 0.79790 0.07690 -0.12500
C 	C 	0.01007 0.90150 0.07750 0.05900
H 	H 	0.03360 0.95050 0.05730 0.01900
C 	C 	0.96138 0.93440 0.10800 -0.15300
H 	H 	0.95260 0.00470 0.10700 0.08500
C 	C 	0.77629 0.82230 0.33730 0.46200
C 	C 	0.75266 0.06760 0.07320 0.42700
C 	C 	0.07362 0.76410 0.03470 0.32900
