data_crystal

_cell_length_a 19.61900
_cell_length_b 15.51160
_cell_length_c 13.28620
_cell_angle_alpha 90.00000
_cell_angle_beta  94.34300
_cell_angle_gamma 90.00000

_symmetry_space_group_name_	'P 1'
_symmetry_space_group_name_H-M	'P 1'

loop_
_symmetry_equiv_pos_as_xyz
  x,y,z

loop_
_atom_site_label
_atom_site_type_symbol
_atom_site_fract_x
_atom_site_fract_y
_atom_site_fract_z
_atom_site_charge
Zn	Zn	0.26816 0.04166 0.66058 1.21300
O 	O 	0.33060 0.95170 0.70710 -0.44300
O 	O 	0.24900 0.90360 0.79800 -0.30200
O 	O 	0.32520 0.98230 0.97640 -0.30400
O 	O 	0.31160 0.87260 0.07750 -0.44300
O 	O 	0.54650 0.62550 0.81910 -0.22500
N 	N 	0.17210 0.01840 0.59950 -0.26900
N 	N 	0.25830 0.11900 0.78540 -0.25800
C 	C 	0.30940 0.90430 0.77580 0.32500
C 	C 	0.36210 0.84870 0.82910 -0.04100
C 	C 	0.40230 0.79420 0.77430 -0.02200
H 	H 	0.39570 0.79290 0.70430 0.05800
C 	C 	0.45160 0.74250 0.82270 -0.02300
C 	C 	0.46270 0.74320 0.92460 -0.04700
H 	H 	0.49680 0.70910 0.95650 0.06200
C 	C 	0.42270 0.79520 0.98050 -0.00700
H 	H 	0.42990 0.79510 0.05050 0.04500
C 	C 	0.37240 0.84710 0.93530 -0.04800
C 	C 	0.33300 0.90650 0.99860 0.33400
C 	C 	0.12690 0.97260 0.64550 0.07700
H 	H 	0.14130 0.94490 0.70540 0.00100
C 	C 	0.05920 0.96350 0.60930 -0.11600
H 	H 	0.02900 0.93120 0.64480 0.06900
C 	C 	0.03750 0.00280 0.52080 0.04300
C 	C 	0.08410 0.05000 0.47210 -0.11500
H 	H 	0.07120 0.07660 0.41090 0.07400
C 	C 	0.14970 0.05780 0.51380 0.07200
H 	H 	0.18010 0.09200 0.48110 0.00600
C 	C 	0.20860 0.11560 0.84270 0.11500
H 	H 	0.17310 0.07760 0.82450 -0.01000
C 	C 	0.20330 0.16290 0.92740 -0.14400
H 	H 	0.16640 0.15480 0.96620 0.09200
C 	C 	0.25190 0.22190 0.95550 0.03900
C 	C 	0.28510 0.25560 0.87040 -0.02700
C 	C 	0.28850 0.19820 0.78840 0.04200
C 	C 	0.32030 0.20030 0.91540 -0.00700
C 	C 	0.31980 0.14680 0.83080 0.01700
Zn	Zn	0.76816 0.54166 0.66058 1.21200
O 	O 	0.83060 0.45170 0.70710 -0.44200
O 	O 	0.74900 0.40360 0.79800 -0.30300
O 	O 	0.82520 0.48230 0.97640 -0.30400
O 	O 	0.81160 0.37260 0.07750 -0.43800
O 	O 	0.04650 0.12550 0.81910 -0.22400
N 	N 	0.67210 0.51840 0.59950 -0.27200
N 	N 	0.75830 0.61900 0.78540 -0.25900
C 	C 	0.80940 0.40430 0.77580 0.32300
C 	C 	0.86210 0.34870 0.82910 -0.03700
C 	C 	0.90230 0.29420 0.77430 -0.03100
H 	H 	0.89570 0.29290 0.70430 0.06400
C 	C 	0.95160 0.24250 0.82270 -0.00300
C 	C 	0.96270 0.24320 0.92460 -0.05300
H 	H 	0.99680 0.20910 0.95650 0.06800
C 	C 	0.92270 0.29520 0.98050 -0.01100
H 	H 	0.92990 0.29510 0.05050 0.05200
C 	C 	0.87240 0.34710 0.93530 -0.04700
C 	C 	0.83300 0.40650 0.99860 0.32900
C 	C 	0.62690 0.47260 0.64550 0.08600
H 	H 	0.64130 0.44490 0.70540 -0.00200
C 	C 	0.55920 0.46350 0.60930 -0.13300
H 	H 	0.52900 0.43120 0.64480 0.08100
C 	C 	0.53750 0.50280 0.52080 0.07300
C 	C 	0.58410 0.55000 0.47210 -0.13300
H 	H 	0.57120 0.57660 0.41090 0.08300
C 	C 	0.64970 0.55780 0.51380 0.08200
H 	H 	0.68010 0.59200 0.48110 0.00300
C 	C 	0.70860 0.61560 0.84270 0.11700
H 	H 	0.67310 0.57760 0.82450 -0.00900
C 	C 	0.70330 0.66290 0.92740 -0.14700
H 	H 	0.66640 0.65480 0.96620 0.09500
C 	C 	0.75190 0.72190 0.95550 0.04400
C 	C 	0.78510 0.75560 0.87040 -0.02700
C 	C 	0.78850 0.69820 0.78840 0.04200
C 	C 	0.82030 0.70030 0.91540 -0.00500
C 	C 	0.81980 0.64680 0.83080 0.02000
Zn	Zn	0.73184 0.04166 0.83942 1.21200
O 	O 	0.66940 0.95170 0.79290 -0.44300
O 	O 	0.75100 0.90360 0.70200 -0.30200
O 	O 	0.67480 0.98230 0.52360 -0.30600
O 	O 	0.68840 0.87260 0.42250 -0.44100
O 	O 	0.45350 0.62550 0.68090 -0.22600
N 	N 	0.82790 0.01840 0.90050 -0.27100
N 	N 	0.74170 0.11900 0.71460 -0.25900
C 	C 	0.69060 0.90430 0.72420 0.32500
C 	C 	0.63790 0.84870 0.67090 -0.04300
C 	C 	0.59770 0.79420 0.72570 -0.02100
H 	H 	0.60430 0.79290 0.79570 0.05800
C 	C 	0.54840 0.74250 0.67730 -0.02500
C 	C 	0.53730 0.74320 0.57540 -0.04400
H 	H 	0.50320 0.70910 0.54350 0.06000
C 	C 	0.57730 0.79520 0.51950 -0.01300
H 	H 	0.57010 0.79510 0.44950 0.04800
C 	C 	0.62760 0.84710 0.56470 -0.04500
C 	C 	0.66700 0.90650 0.50140 0.33100
C 	C 	0.87310 0.97260 0.85450 0.09200
H 	H 	0.85870 0.94490 0.79460 -0.00300
C 	C 	0.94080 0.96350 0.89070 -0.13600
H 	H 	0.97100 0.93120 0.85520 0.08800
C 	C 	0.96250 0.00280 0.97920 0.08500
C 	C 	0.91590 0.05000 0.02790 -0.12200
H 	H 	0.92880 0.07660 0.08910 0.08400
C 	C 	0.85030 0.05780 0.98620 0.06500
H 	H 	0.81990 0.09200 0.01890 0.01100
C 	C 	0.79140 0.11560 0.65730 0.11700
H 	H 	0.82690 0.07760 0.67550 -0.01000
C 	C 	0.79670 0.16290 0.57260 -0.14700
H 	H 	0.83360 0.15480 0.53380 0.09600
C 	C 	0.74810 0.22190 0.54450 0.04400
C 	C 	0.71490 0.25560 0.62960 -0.02700
C 	C 	0.71150 0.19820 0.71160 0.04200
C 	C 	0.67970 0.20030 0.58460 -0.00700
C 	C 	0.68020 0.14680 0.66920 0.01800
Zn	Zn	0.23184 0.54166 0.83942 1.21200
O 	O 	0.16940 0.45170 0.79290 -0.44600
O 	O 	0.25100 0.40360 0.70200 -0.30300
O 	O 	0.17480 0.48230 0.52360 -0.30700
O 	O 	0.18840 0.37260 0.42250 -0.44200
O 	O 	0.95350 0.12550 0.68090 -0.20900
N 	N 	0.32790 0.51840 0.90050 -0.27100
N 	N 	0.24170 0.61900 0.71460 -0.25800
C 	C 	0.19060 0.40430 0.72420 0.32500
C 	C 	0.13790 0.34870 0.67090 -0.04200
C 	C 	0.09770 0.29420 0.72570 -0.02600
H 	H 	0.10430 0.29290 0.79570 0.05800
C 	C 	0.04840 0.24250 0.67730 -0.01900
C 	C 	0.03730 0.24320 0.57540 -0.05000
H 	H 	0.00320 0.20910 0.54350 0.05700
C 	C 	0.07730 0.29520 0.51950 -0.01100
H 	H 	0.07010 0.29510 0.44950 0.04500
C 	C 	0.12760 0.34710 0.56470 -0.04800
C 	C 	0.16700 0.40650 0.50140 0.33100
C 	C 	0.37310 0.47260 0.85450 0.08400
H 	H 	0.35870 0.44490 0.79460 -0.00100
C 	C 	0.44080 0.46350 0.89070 -0.13000
H 	H 	0.47100 0.43120 0.85520 0.07900
C 	C 	0.46250 0.50280 0.97920 0.06700
C 	C 	0.41590 0.55000 0.02790 -0.12800
H 	H 	0.42880 0.57660 0.08910 0.08100
C 	C 	0.35030 0.55780 0.98620 0.07800
H 	H 	0.31990 0.59200 0.01890 0.00400
C 	C 	0.29140 0.61560 0.65730 0.11700
H 	H 	0.32690 0.57760 0.67550 -0.00900
C 	C 	0.29670 0.66290 0.57260 -0.14700
H 	H 	0.33360 0.65480 0.53380 0.09500
C 	C 	0.24810 0.72190 0.54450 0.04400
C 	C 	0.21490 0.75560 0.62960 -0.02800
C 	C 	0.21150 0.69820 0.71160 0.04200
C 	C 	0.17970 0.70030 0.58460 -0.00900
C 	C 	0.18020 0.64680 0.66920 0.01700
Zn	Zn	0.73184 0.95834 0.33942 1.21200
O 	O 	0.66940 0.04830 0.29290 -0.44300
O 	O 	0.75100 0.09640 0.20200 -0.30200
O 	O 	0.67480 0.01770 0.02360 -0.30500
O 	O 	0.68840 0.12740 0.92250 -0.44500
O 	O 	0.45350 0.37450 0.18090 -0.22500
N 	N 	0.82790 0.98160 0.40050 -0.27600
N 	N 	0.74170 0.88100 0.21460 -0.25900
C 	C 	0.69060 0.09570 0.22420 0.32400
C 	C 	0.63790 0.15130 0.17090 -0.04000
C 	C 	0.59770 0.20580 0.22570 -0.02400
H 	H 	0.60430 0.20710 0.29570 0.05900
C 	C 	0.54840 0.25750 0.17730 -0.02100
C 	C 	0.53730 0.25680 0.07540 -0.05100
H 	H 	0.50320 0.29090 0.04350 0.06300
C 	C 	0.57730 0.20480 0.01950 -0.00100
H 	H 	0.57010 0.20490 0.94950 0.04200
C 	C 	0.62760 0.15290 0.06470 -0.05100
C 	C 	0.66700 0.09350 0.00140 0.33700
C 	C 	0.87310 0.02740 0.35450 0.09800
H 	H 	0.85870 0.05510 0.29460 -0.00500
C 	C 	0.94080 0.03650 0.39070 -0.15000
H 	H 	0.97100 0.06880 0.35520 0.09300
C 	C 	0.96250 0.99720 0.47920 0.10200
C 	C 	0.91590 0.95000 0.52790 -0.15100
H 	H 	0.92880 0.92340 0.58910 0.09300
C 	C 	0.85030 0.94220 0.48620 0.09200
H 	H 	0.81990 0.90800 0.51890 -0.00100
C 	C 	0.79140 0.88440 0.15730 0.11600
H 	H 	0.82690 0.92240 0.17550 -0.01000
C 	C 	0.79670 0.83710 0.07260 -0.14700
H 	H 	0.83360 0.84520 0.03380 0.09600
C 	C 	0.74810 0.77810 0.04450 0.04300
C 	C 	0.71490 0.74440 0.12960 -0.02700
C 	C 	0.71150 0.80180 0.21160 0.04200
C 	C 	0.67970 0.79970 0.08460 -0.00700
C 	C 	0.68020 0.85320 0.16920 0.01700
Zn	Zn	0.23184 0.45834 0.33942 1.21200
O 	O 	0.16940 0.54830 0.29290 -0.44600
O 	O 	0.25100 0.59640 0.20200 -0.30300
O 	O 	0.17480 0.51770 0.02360 -0.30700
O 	O 	0.18840 0.62740 0.92250 -0.44100
O 	O 	0.95350 0.87450 0.18090 -0.20900
N 	N 	0.32790 0.48160 0.40050 -0.27200
N 	N 	0.24170 0.38100 0.21460 -0.25900
C 	C 	0.19060 0.59570 0.22420 0.32500
C 	C 	0.13790 0.65130 0.17090 -0.04200
C 	C 	0.09770 0.70580 0.22570 -0.02500
H 	H 	0.10430 0.70710 0.29570 0.05800
C 	C 	0.04840 0.75750 0.17730 -0.02000
C 	C 	0.03730 0.75680 0.07540 -0.04800
H 	H 	0.00320 0.79090 0.04350 0.05600
C 	C 	0.07730 0.70480 0.01950 -0.01400
H 	H 	0.07010 0.70490 0.94950 0.04700
C 	C 	0.12760 0.65290 0.06470 -0.04700
C 	C 	0.16700 0.59350 0.00140 0.33000
C 	C 	0.37310 0.52740 0.35450 0.08600
H 	H 	0.35870 0.55510 0.29460 -0.00200
C 	C 	0.44080 0.53650 0.39070 -0.13300
H 	H 	0.47100 0.56880 0.35520 0.08100
C 	C 	0.46250 0.49720 0.47920 0.07300
C 	C 	0.41590 0.45000 0.52790 -0.13300
H 	H 	0.42880 0.42340 0.58910 0.08300
C 	C 	0.35030 0.44220 0.48620 0.08100
H 	H 	0.31990 0.40800 0.51890 0.00300
C 	C 	0.29140 0.38440 0.15730 0.11800
H 	H 	0.32690 0.42240 0.17550 -0.01000
C 	C 	0.29670 0.33710 0.07260 -0.14900
H 	H 	0.33360 0.34520 0.03380 0.09700
C 	C 	0.24810 0.27810 0.04450 0.04800
C 	C 	0.21490 0.24440 0.12960 -0.02800
C 	C 	0.21150 0.30180 0.21160 0.04200
C 	C 	0.17970 0.29970 0.08460 -0.00900
C 	C 	0.18020 0.35320 0.16920 0.01700
Zn	Zn	0.26816 0.95834 0.16058 1.21200
O 	O 	0.33060 0.04830 0.20710 -0.44300
O 	O 	0.24900 0.09640 0.29800 -0.30300
O 	O 	0.32520 0.01770 0.47640 -0.30500
O 	O 	0.31160 0.12740 0.57750 -0.44100
O 	O 	0.54650 0.37450 0.31910 -0.22500
N 	N 	0.17210 0.98160 0.09950 -0.26700
N 	N 	0.25830 0.88100 0.28540 -0.25900
C 	C 	0.30940 0.09570 0.27580 0.32500
C 	C 	0.36210 0.15130 0.32910 -0.04300
C 	C 	0.40230 0.20580 0.27430 -0.02100
H 	H 	0.39570 0.20710 0.20430 0.05800
C 	C 	0.45160 0.25750 0.32270 -0.02500
C 	C 	0.46270 0.25680 0.42460 -0.04400
H 	H 	0.49680 0.29090 0.45650 0.06000
C 	C 	0.42270 0.20480 0.48050 -0.01300
H 	H 	0.42990 0.20490 0.55050 0.04800
C 	C 	0.37240 0.15290 0.43530 -0.04500
C 	C 	0.33300 0.09350 0.49860 0.33000
C 	C 	0.12690 0.02740 0.14550 0.07700
H 	H 	0.14130 0.05510 0.20540 0.00100
C 	C 	0.05920 0.03650 0.10930 -0.10900
H 	H 	0.02900 0.06880 0.14480 0.06800
C 	C 	0.03750 0.99720 0.02080 0.03700
C 	C 	0.08410 0.95000 0.97210 -0.10000
H 	H 	0.07120 0.92340 0.91090 0.06900
C 	C 	0.14970 0.94220 0.01380 0.05600
H 	H 	0.18010 0.90800 0.98110 0.01300
C 	C 	0.20860 0.88440 0.34270 0.11600
H 	H 	0.17310 0.92240 0.32450 -0.01000
C 	C 	0.20330 0.83710 0.42740 -0.14600
H 	H 	0.16640 0.84520 0.46620 0.09400
C 	C 	0.25190 0.77810 0.45550 0.04300
C 	C 	0.28510 0.74440 0.37040 -0.02700
C 	C 	0.28850 0.80180 0.28840 0.04200
C 	C 	0.32030 0.79970 0.41540 -0.00700
C 	C 	0.31980 0.85320 0.33080 0.01800
Zn	Zn	0.76816 0.45834 0.16058 1.21200
O 	O 	0.83060 0.54830 0.20710 -0.44200
O 	O 	0.74900 0.59640 0.29800 -0.30200
O 	O 	0.82520 0.51770 0.47640 -0.30500
O 	O 	0.81160 0.62740 0.57750 -0.44100
O 	O 	0.04650 0.87450 0.31910 -0.22300
N 	N 	0.67210 0.48160 0.09950 -0.27400
N 	N 	0.75830 0.38100 0.28540 -0.25900
C 	C 	0.80940 0.59570 0.27580 0.32200
C 	C 	0.86210 0.65130 0.32910 -0.03400
C 	C 	0.90230 0.70580 0.27430 -0.03400
H 	H 	0.89570 0.70710 0.20430 0.06500
C 	C 	0.95160 0.75750 0.32270 0.00100
C 	C 	0.96270 0.75680 0.42460 -0.06000
H 	H 	0.99680 0.79090 0.45650 0.07100
C 	C 	0.92270 0.70480 0.48050 -0.00000
H 	H 	0.92990 0.70490 0.55050 0.04700
C 	C 	0.87240 0.65290 0.43530 -0.05100
C 	C 	0.83300 0.59350 0.49860 0.33300
C 	C 	0.62690 0.52740 0.14550 0.08900
H 	H 	0.64130 0.55510 0.20540 -0.00300
C 	C 	0.55920 0.53650 0.10930 -0.13900
H 	H 	0.52900 0.56880 0.14480 0.08300
C 	C 	0.53750 0.49720 0.02080 0.08100
C 	C 	0.58410 0.45000 0.97210 -0.14400
H 	H 	0.57120 0.42340 0.91090 0.08700
C 	C 	0.64970 0.44220 0.01380 0.09100
H 	H 	0.68010 0.40800 0.98110 -0.00200
C 	C 	0.70860 0.38440 0.34270 0.11600
H 	H 	0.67310 0.42240 0.32450 -0.00900
C 	C 	0.70330 0.33710 0.42740 -0.14600
H 	H 	0.66640 0.34520 0.46620 0.09500
C 	C 	0.75190 0.27810 0.45550 0.04300
C 	C 	0.78510 0.24440 0.37040 -0.02700
C 	C 	0.78850 0.30180 0.28840 0.04200
C 	C 	0.82030 0.29970 0.41540 -0.00500
C 	C 	0.81980 0.35320 0.33080 0.02000
S 	S 	0.50000 0.67290 0.75000 0.28200
S 	S 	-0.00000 0.17290 0.75000 0.24700
S 	S 	0.50000 0.32710 0.25000 0.28100
S 	S 	-0.00000 0.82710 0.25000 0.24600
