data_crystal

_cell_length_a 11.18130
_cell_length_b 11.18130
_cell_length_c 31.55200
_cell_angle_alpha 90.00000
_cell_angle_beta  90.00000
_cell_angle_gamma 90.00000

_symmetry_space_group_name_	'P 1'
_symmetry_space_group_name_H-M	'P 1'

loop_
_symmetry_equiv_pos_as_xyz
  x,y,z

loop_
_atom_site_label
_atom_site_type_symbol
_atom_site_fract_x
_atom_site_fract_y
_atom_site_fract_z
_atom_site_charge
C 	C 	0.08804 0.86952 0.65144 -0.06600
C 	C 	0.10120 0.95329 0.61925 0.02700
H 	H 	0.17560 0.98800 0.61460 0.06600
C 	C 	0.00444 0.98601 0.59386 -0.06900
C 	C 	0.89318 0.93447 0.60082 0.02300
H 	H 	0.82780 0.95750 0.58460 0.06100
C 	C 	0.87993 0.84763 0.63244 -0.07200
C 	C 	0.97692 0.81608 0.65762 0.02800
H 	H 	0.96750 0.75890 0.67880 0.07100
C 	C 	0.19298 0.84175 0.68010 0.33100
C 	C 	0.02493 0.07796 0.55959 0.33200
C 	C 	0.75935 0.79186 0.63906 0.35300
O 	O 	0.17961 0.75733 0.70607 -0.38100
O 	O 	0.28413 0.90650 0.67608 -0.24600
O 	O 	0.12936 0.08488 0.54518 -0.37500
O 	O 	0.93786 0.14247 0.54787 -0.27100
O 	O 	0.67146 0.81857 0.61893 -0.24000
O 	O 	0.76090 0.71043 0.66939 -0.38100
H 	H 	0.68600 0.68300 0.67650 0.25800
C 	C 	0.91196 0.13048 0.15144 -0.06900
C 	C 	0.89880 0.04671 0.11925 0.02700
H 	H 	0.82440 0.01200 0.11460 0.06500
C 	C 	0.99556 0.01399 0.09386 -0.07100
C 	C 	0.10682 0.06553 0.10082 0.02400
H 	H 	0.17220 0.04250 0.08460 0.05900
C 	C 	0.12007 0.15237 0.13244 -0.07400
C 	C 	0.02308 0.18392 0.15762 0.02900
H 	H 	0.03250 0.24110 0.17880 0.07100
C 	C 	0.80702 0.15825 0.18010 0.33100
C 	C 	0.97507 0.92204 0.05959 0.33300
C 	C 	0.24065 0.20814 0.13906 0.35400
O 	O 	0.82039 0.24267 0.20607 -0.38100
O 	O 	0.71587 0.09350 0.17608 -0.24600
O 	O 	0.87064 0.91512 0.04518 -0.37900
O 	O 	0.06214 0.85753 0.04787 -0.27500
O 	O 	0.32854 0.18143 0.11893 -0.24200
O 	O 	0.23910 0.28957 0.16939 -0.38100
H 	H 	0.31400 0.31700 0.17650 0.25800
C 	C 	0.63048 0.58804 0.90144 -0.07000
C 	C 	0.54671 0.60120 0.86925 0.03100
H 	H 	0.51200 0.67560 0.86460 0.06400
C 	C 	0.51399 0.50444 0.84386 -0.07800
C 	C 	0.56553 0.39318 0.85082 0.03100
H 	H 	0.54250 0.32780 0.83460 0.05800
C 	C 	0.65237 0.37993 0.88244 -0.07500
C 	C 	0.68392 0.47692 0.90762 0.03300
H 	H 	0.74110 0.46750 0.92880 0.07200
C 	C 	0.65825 0.69298 0.93010 0.33100
C 	C 	0.42204 0.52493 0.80959 0.34200
C 	C 	0.70814 0.25935 0.88906 0.35500
O 	O 	0.74267 0.67961 0.95607 -0.37400
O 	O 	0.59350 0.78413 0.92608 -0.24300
O 	O 	0.41512 0.62936 0.79518 -0.37600
O 	O 	0.35753 0.43786 0.79787 -0.27500
O 	O 	0.68143 0.17146 0.86893 -0.23900
O 	O 	0.78957 0.26090 0.91939 -0.37900
H 	H 	0.81700 0.18600 0.92650 0.25800
C 	C 	0.36952 0.41196 0.40144 -0.07300
C 	C 	0.45329 0.39880 0.36925 0.03200
H 	H 	0.48800 0.32440 0.36460 0.06300
C 	C 	0.48601 0.49556 0.34386 -0.08000
C 	C 	0.43447 0.60682 0.35082 0.03200
H 	H 	0.45750 0.67220 0.33460 0.05800
C 	C 	0.34763 0.62007 0.38244 -0.07700
C 	C 	0.31608 0.52308 0.40762 0.03400
H 	H 	0.25890 0.53250 0.42880 0.06900
C 	C 	0.34175 0.30702 0.43010 0.33300
C 	C 	0.57796 0.47507 0.30959 0.34200
C 	C 	0.29186 0.74065 0.38906 0.35500
O 	O 	0.25733 0.32039 0.45607 -0.38200
O 	O 	0.40650 0.21587 0.42608 -0.24700
O 	O 	0.58488 0.37064 0.29518 -0.37600
O 	O 	0.64247 0.56214 0.29787 -0.27600
O 	O 	0.31857 0.82854 0.36893 -0.24000
O 	O 	0.21043 0.73910 0.41939 -0.38100
H 	H 	0.18300 0.81400 0.42650 0.25800
C 	C 	0.41196 0.36952 0.59856 -0.07300
C 	C 	0.39880 0.45329 0.63075 0.03200
H 	H 	0.32440 0.48800 0.63540 0.06300
C 	C 	0.49556 0.48601 0.65614 -0.08000
C 	C 	0.60682 0.43447 0.64918 0.03200
H 	H 	0.67220 0.45750 0.66540 0.05800
C 	C 	0.62007 0.34763 0.61756 -0.07700
C 	C 	0.52308 0.31608 0.59238 0.03400
H 	H 	0.53250 0.25890 0.57120 0.06900
C 	C 	0.30702 0.34175 0.56990 0.33300
C 	C 	0.47507 0.57796 0.69041 0.34200
C 	C 	0.74065 0.29186 0.61094 0.35500
O 	O 	0.32039 0.25733 0.54393 -0.38200
O 	O 	0.21587 0.40650 0.57392 -0.24700
O 	O 	0.37064 0.58488 0.70482 -0.37600
O 	O 	0.56214 0.64247 0.70213 -0.27600
O 	O 	0.82854 0.31857 0.63107 -0.24000
O 	O 	0.73910 0.21043 0.58061 -0.38100
H 	H 	0.81400 0.18300 0.57350 0.25800
C 	C 	0.58804 0.63048 0.09856 -0.07500
C 	C 	0.60120 0.54671 0.13075 0.03300
H 	H 	0.67560 0.51200 0.13540 0.06200
C 	C 	0.50444 0.51399 0.15614 -0.08100
C 	C 	0.39318 0.56553 0.14918 0.03200
H 	H 	0.32780 0.54250 0.16540 0.05700
C 	C 	0.37993 0.65237 0.11756 -0.07900
C 	C 	0.47692 0.68392 0.09238 0.03500
H 	H 	0.46750 0.74110 0.07120 0.06700
C 	C 	0.69298 0.65825 0.06990 0.33300
C 	C 	0.52493 0.42204 0.19041 0.34300
C 	C 	0.25935 0.70814 0.11094 0.35500
O 	O 	0.67961 0.74267 0.04393 -0.38600
O 	O 	0.78413 0.59350 0.07392 -0.25000
O 	O 	0.62936 0.41512 0.20482 -0.37600
O 	O 	0.43786 0.35753 0.20213 -0.27600
O 	O 	0.17146 0.68143 0.13107 -0.24000
O 	O 	0.26090 0.78957 0.08061 -0.38300
H 	H 	0.18600 0.81700 0.07350 0.25700
C 	C 	0.86952 0.08804 0.34856 -0.06800
C 	C 	0.95329 0.10120 0.38075 0.02600
H 	H 	0.98800 0.17560 0.38540 0.06600
C 	C 	0.98601 0.00444 0.40614 -0.06900
C 	C 	0.93447 0.89318 0.39918 0.02300
H 	H 	0.95750 0.82780 0.41540 0.06100
C 	C 	0.84763 0.87993 0.36756 -0.07300
C 	C 	0.81608 0.97692 0.34238 0.02800
H 	H 	0.75890 0.96750 0.32120 0.07100
C 	C 	0.84175 0.19298 0.31990 0.33100
C 	C 	0.07796 0.02493 0.44041 0.33300
C 	C 	0.79186 0.75935 0.36094 0.35300
O 	O 	0.75733 0.17961 0.29393 -0.38100
O 	O 	0.90650 0.28413 0.32392 -0.24600
O 	O 	0.08488 0.12936 0.45482 -0.37500
O 	O 	0.14247 0.93786 0.45213 -0.27100
O 	O 	0.81857 0.67146 0.38107 -0.24000
O 	O 	0.71043 0.76090 0.33061 -0.38100
H 	H 	0.68300 0.68600 0.32350 0.25800
C 	C 	0.13048 0.91196 0.84856 -0.06600
C 	C 	0.04671 0.89880 0.88075 0.02500
H 	H 	0.01200 0.82440 0.88540 0.06700
C 	C 	0.01399 0.99556 0.90614 -0.06600
C 	C 	0.06553 0.10682 0.89918 0.02200
H 	H 	0.04250 0.17220 0.91540 0.06300
C 	C 	0.15237 0.12007 0.86756 -0.07100
C 	C 	0.18392 0.02308 0.84238 0.02700
H 	H 	0.24110 0.03250 0.82120 0.07200
C 	C 	0.15825 0.80702 0.81990 0.33100
C 	C 	0.92204 0.97507 0.94041 0.33200
C 	C 	0.20814 0.24065 0.86094 0.35300
O 	O 	0.24267 0.82039 0.79393 -0.38000
O 	O 	0.09350 0.71587 0.82392 -0.24500
O 	O 	0.91512 0.87064 0.95482 -0.36800
O 	O 	0.85753 0.06214 0.95213 -0.26600
O 	O 	0.18143 0.32854 0.88107 -0.23700
O 	O 	0.28957 0.23910 0.83061 -0.38000
H 	H 	0.31700 0.31400 0.82350 0.25800
Ni	Ni	0.30051 0.69949 0.75000 1.10700
Ni	Ni	0.69949 0.30051 0.25000 1.10700
Ni	Ni	0.80051 0.80051 -0.00000 1.09900
Ni	Ni	0.19949 0.19949 0.50000 1.10600
