data_crystal

_cell_length_a 24.36500
_cell_length_b 8.61230
_cell_length_c 36.09200
_cell_angle_alpha 90.00000
_cell_angle_beta  90.00000
_cell_angle_gamma 90.00000

_symmetry_space_group_name_	'P 1'
_symmetry_space_group_name_H-M	'P 1'

loop_
_symmetry_equiv_pos_as_xyz
  x,y,z

loop_
_atom_site_label
_atom_site_type_symbol
_atom_site_fract_x
_atom_site_fract_y
_atom_site_fract_z
_atom_site_charge
N 	N 	0.67499 0.82870 0.01329 -0.20000
N 	N 	0.81494 0.06090 0.92893 -0.19000
H 	H 	0.79250 0.01600 0.91390 0.09500
C 	C 	0.66380 0.88510 0.97964 0.10700
H 	H 	0.63190 0.85170 0.96800 -0.02800
C 	C 	0.69660 0.98940 0.96113 -0.21200
H 	H 	0.68650 0.02540 0.93780 0.09000
C 	C 	0.74422 0.03990 0.97737 0.14500
C 	C 	0.75570 0.98450 0.01227 -0.21600
H 	H 	0.78740 0.01710 0.02440 0.08600
C 	C 	0.72080 0.88110 0.02932 0.11000
H 	H 	0.72950 0.84630 0.05300 -0.02700
C 	C 	0.78230 0.14850 0.95673 -0.19100
H 	H 	0.76100 0.22830 0.94440 0.08000
H 	H 	0.80680 0.19900 0.97410 0.08100
C 	C 	0.84570 0.16650 0.90431 -0.06300
H 	H 	0.87220 0.22530 0.91870 0.04000
H 	H 	0.82070 0.23930 0.89270 0.04000
H 	H 	0.84850 0.00820 0.86310 0.03100
N 	N 	0.67499 0.32870 0.51329 -0.19900
N 	N 	0.81494 0.56090 0.42893 -0.18900
H 	H 	0.79250 0.51600 0.41390 0.09600
C 	C 	0.66380 0.38510 0.47964 0.10800
H 	H 	0.63190 0.35170 0.46800 -0.02700
C 	C 	0.69660 0.48940 0.46113 -0.21000
H 	H 	0.68650 0.52540 0.43780 0.09100
C 	C 	0.74422 0.53990 0.47737 0.14500
C 	C 	0.75570 0.48450 0.51227 -0.21500
H 	H 	0.78740 0.51710 0.52440 0.08700
C 	C 	0.72080 0.38110 0.52932 0.11100
H 	H 	0.72950 0.34630 0.55300 -0.02600
C 	C 	0.78230 0.64850 0.45673 -0.19000
H 	H 	0.76100 0.72830 0.44440 0.08100
H 	H 	0.80680 0.69900 0.47410 0.08100
C 	C 	0.84570 0.66650 0.40431 -0.06200
H 	H 	0.87220 0.72530 0.41870 0.04000
H 	H 	0.82070 0.73930 0.39270 0.04000
H 	H 	0.84850 0.50820 0.36310 0.03100
N 	N 	0.17499 0.82870 0.51329 -0.19800
N 	N 	0.31494 0.06090 0.42893 -0.19000
H 	H 	0.29250 0.01600 0.41390 0.09600
C 	C 	0.16380 0.88510 0.47964 0.10700
H 	H 	0.13190 0.85170 0.46800 -0.02600
C 	C 	0.19660 0.98940 0.46113 -0.20800
H 	H 	0.18650 0.02540 0.43780 0.09000
C 	C 	0.24422 0.03990 0.47737 0.14300
C 	C 	0.25570 0.98450 0.51227 -0.21200
H 	H 	0.28740 0.01710 0.52440 0.08600
C 	C 	0.22080 0.88110 0.52932 0.10900
H 	H 	0.22950 0.84630 0.55300 -0.02600
C 	C 	0.28230 0.14850 0.45673 -0.18900
H 	H 	0.26100 0.22830 0.44440 0.08000
H 	H 	0.30680 0.19900 0.47410 0.08100
C 	C 	0.34570 0.16650 0.40431 -0.06300
H 	H 	0.37220 0.22530 0.41870 0.04000
H 	H 	0.32070 0.23930 0.39270 0.04000
H 	H 	0.34850 0.00820 0.36310 0.03100
N 	N 	0.17499 0.32870 0.01329 -0.19900
N 	N 	0.31494 0.56090 0.92893 -0.18900
H 	H 	0.29250 0.51600 0.91390 0.09600
C 	C 	0.16380 0.38510 0.97964 0.10800
H 	H 	0.13190 0.35170 0.96800 -0.02700
C 	C 	0.19660 0.48940 0.96113 -0.21000
H 	H 	0.18650 0.52540 0.93780 0.09100
C 	C 	0.24422 0.53990 0.97737 0.14500
C 	C 	0.25570 0.48450 0.01227 -0.21500
H 	H 	0.28740 0.51710 0.02440 0.08700
C 	C 	0.22080 0.38110 0.02932 0.11100
H 	H 	0.22950 0.34630 0.05300 -0.02600
C 	C 	0.28230 0.64850 0.95673 -0.19000
H 	H 	0.26100 0.72830 0.94440 0.08100
H 	H 	0.30680 0.69900 0.97410 0.08100
C 	C 	0.34570 0.66650 0.90431 -0.06300
H 	H 	0.37220 0.72530 0.91870 0.04000
H 	H 	0.32070 0.73930 0.89270 0.04000
H 	H 	0.34850 0.50820 0.86310 0.03100
N 	N 	0.07501 0.92130 0.01329 -0.19900
N 	N 	0.93506 0.68910 0.92893 -0.18900
H 	H 	0.95750 0.73400 0.91390 0.09500
C 	C 	0.08620 0.86490 0.97964 0.10900
H 	H 	0.11810 0.89830 0.96800 -0.02700
C 	C 	0.05340 0.76060 0.96113 -0.21100
H 	H 	0.06350 0.72460 0.93780 0.09100
C 	C 	0.00578 0.71010 0.97737 0.14600
C 	C 	0.99430 0.76550 0.01227 -0.21600
H 	H 	0.96260 0.73290 0.02440 0.08800
C 	C 	0.02920 0.86890 0.02932 0.11200
H 	H 	0.02050 0.90370 0.05300 -0.02600
C 	C 	0.96770 0.60150 0.95673 -0.19100
H 	H 	0.98900 0.52170 0.94440 0.08100
H 	H 	0.94320 0.55100 0.97410 0.08100
C 	C 	0.90430 0.58350 0.90431 -0.06300
H 	H 	0.87780 0.52470 0.91870 0.04000
H 	H 	0.92930 0.51070 0.89270 0.04000
H 	H 	0.90150 0.74180 0.86310 0.03100
N 	N 	0.07501 0.42130 0.51329 -0.19900
N 	N 	0.93506 0.18910 0.42893 -0.18900
H 	H 	0.95750 0.23400 0.41390 0.09600
C 	C 	0.08620 0.36490 0.47964 0.10800
H 	H 	0.11810 0.39830 0.46800 -0.02700
C 	C 	0.05340 0.26060 0.46113 -0.21000
H 	H 	0.06350 0.22460 0.43780 0.09000
C 	C 	0.00578 0.21010 0.47737 0.14400
C 	C 	0.99430 0.26550 0.51227 -0.21300
H 	H 	0.96260 0.23290 0.52440 0.08700
C 	C 	0.02920 0.36890 0.52932 0.11000
H 	H 	0.02050 0.40370 0.55300 -0.02600
C 	C 	0.96770 0.10150 0.45673 -0.19000
H 	H 	0.98900 0.02170 0.44440 0.08100
H 	H 	0.94320 0.05100 0.47410 0.08100
C 	C 	0.90430 0.08350 0.40431 -0.06300
H 	H 	0.87780 0.02470 0.41870 0.04000
H 	H 	0.92930 0.01070 0.39270 0.04000
H 	H 	0.90150 0.24180 0.36310 0.03100
N 	N 	0.57501 0.92130 0.51329 -0.19900
N 	N 	0.43506 0.68910 0.42893 -0.18900
H 	H 	0.45750 0.73400 0.41390 0.09600
C 	C 	0.58620 0.86490 0.47964 0.10800
H 	H 	0.61810 0.89830 0.46800 -0.02700
C 	C 	0.55340 0.76060 0.46113 -0.21000
H 	H 	0.56350 0.72460 0.43780 0.09100
C 	C 	0.50578 0.71010 0.47737 0.14500
C 	C 	0.49430 0.76550 0.51227 -0.21500
H 	H 	0.46260 0.73290 0.52440 0.08700
C 	C 	0.52920 0.86890 0.52932 0.11100
H 	H 	0.52050 0.90370 0.55300 -0.02600
C 	C 	0.46770 0.60150 0.45673 -0.19000
H 	H 	0.48900 0.52170 0.44440 0.08100
H 	H 	0.44320 0.55100 0.47410 0.08100
C 	C 	0.40430 0.58350 0.40431 -0.06300
H 	H 	0.37780 0.52470 0.41870 0.04000
H 	H 	0.42930 0.51070 0.39270 0.04000
H 	H 	0.40150 0.74180 0.36310 0.03100
N 	N 	0.57501 0.42130 0.01329 -0.19900
N 	N 	0.43506 0.18910 0.92893 -0.18900
H 	H 	0.45750 0.23400 0.91390 0.09600
C 	C 	0.58620 0.36490 0.97964 0.10800
H 	H 	0.61810 0.39830 0.96800 -0.02700
C 	C 	0.55340 0.26060 0.96113 -0.21000
H 	H 	0.56350 0.22460 0.93780 0.09100
C 	C 	0.50578 0.21010 0.97737 0.14500
C 	C 	0.49430 0.26550 0.01227 -0.21500
H 	H 	0.46260 0.23290 0.02440 0.08700
C 	C 	0.52920 0.36890 0.02932 0.11100
H 	H 	0.52050 0.40370 0.05300 -0.02600
C 	C 	0.46770 0.10150 0.95673 -0.19000
H 	H 	0.48900 0.02170 0.94440 0.08100
H 	H 	0.44320 0.05100 0.97410 0.08100
C 	C 	0.40430 0.08350 0.90431 -0.06300
H 	H 	0.37780 0.02470 0.91870 0.04000
H 	H 	0.42930 0.01070 0.89270 0.04000
H 	H 	0.40150 0.24180 0.86310 0.03100
N 	N 	0.07501 0.82870 0.73671 -0.19900
N 	N 	0.93506 0.06090 0.82107 -0.19000
H 	H 	0.95750 0.01600 0.83610 0.09600
C 	C 	0.08620 0.88510 0.77036 0.10700
H 	H 	0.11810 0.85170 0.78200 -0.02700
C 	C 	0.05340 0.98940 0.78887 -0.20800
H 	H 	0.06350 0.02540 0.81220 0.09000
C 	C 	0.00578 0.03990 0.77263 0.14400
C 	C 	0.99430 0.98450 0.73773 -0.21500
H 	H 	0.96260 0.01710 0.72560 0.08800
C 	C 	0.02920 0.88110 0.72068 0.11100
H 	H 	0.02050 0.84630 0.69700 -0.02600
C 	C 	0.96770 0.14850 0.79327 -0.18900
H 	H 	0.98900 0.22830 0.80560 0.08000
H 	H 	0.94320 0.19900 0.77590 0.08100
C 	C 	0.90430 0.16650 0.84569 -0.06200
H 	H 	0.87780 0.22530 0.83130 0.04000
H 	H 	0.92930 0.23930 0.85730 0.04000
H 	H 	0.90150 0.00820 0.88690 0.03100
N 	N 	0.07501 0.32870 0.23671 -0.19900
N 	N 	0.93506 0.56090 0.32107 -0.18900
H 	H 	0.95750 0.51600 0.33610 0.09600
C 	C 	0.08620 0.38510 0.27036 0.10800
H 	H 	0.11810 0.35170 0.28200 -0.02700
C 	C 	0.05340 0.48940 0.28887 -0.21000
H 	H 	0.06350 0.52540 0.31220 0.09100
C 	C 	0.00578 0.53990 0.27263 0.14500
C 	C 	0.99430 0.48450 0.23773 -0.21400
H 	H 	0.96260 0.51710 0.22560 0.08700
C 	C 	0.02920 0.38110 0.22068 0.11100
H 	H 	0.02050 0.34630 0.19700 -0.02600
C 	C 	0.96770 0.64850 0.29327 -0.19000
H 	H 	0.98900 0.72830 0.30560 0.08100
H 	H 	0.94320 0.69900 0.27590 0.08100
C 	C 	0.90430 0.66650 0.34569 -0.06200
H 	H 	0.87780 0.72530 0.33130 0.04000
H 	H 	0.92930 0.73930 0.35730 0.04000
H 	H 	0.90150 0.50820 0.38690 0.03100
N 	N 	0.57501 0.82870 0.23671 -0.19900
N 	N 	0.43506 0.06090 0.32107 -0.19000
H 	H 	0.45750 0.01600 0.33610 0.09600
C 	C 	0.58620 0.88510 0.27036 0.10800
H 	H 	0.61810 0.85170 0.28200 -0.02700
C 	C 	0.55340 0.98940 0.28887 -0.20900
H 	H 	0.56350 0.02540 0.31220 0.09000
C 	C 	0.50578 0.03990 0.27263 0.14400
C 	C 	0.49430 0.98450 0.23773 -0.21300
H 	H 	0.46260 0.01710 0.22560 0.08700
C 	C 	0.52920 0.88110 0.22068 0.11000
H 	H 	0.52050 0.84630 0.19700 -0.02600
C 	C 	0.46770 0.14850 0.29327 -0.19000
H 	H 	0.48900 0.22830 0.30560 0.08100
H 	H 	0.44320 0.19900 0.27590 0.08100
C 	C 	0.40430 0.16650 0.34569 -0.06300
H 	H 	0.37780 0.22530 0.33130 0.04000
H 	H 	0.42930 0.23930 0.35730 0.04000
H 	H 	0.40150 0.00820 0.38690 0.03100
N 	N 	0.57501 0.32870 0.73671 -0.19900
N 	N 	0.43506 0.56090 0.82107 -0.18900
H 	H 	0.45750 0.51600 0.83610 0.09600
C 	C 	0.58620 0.38510 0.77036 0.10800
H 	H 	0.61810 0.35170 0.78200 -0.02700
C 	C 	0.55340 0.48940 0.78887 -0.21000
H 	H 	0.56350 0.52540 0.81220 0.09100
C 	C 	0.50578 0.53990 0.77263 0.14500
C 	C 	0.49430 0.48450 0.73773 -0.21500
H 	H 	0.46260 0.51710 0.72560 0.08700
C 	C 	0.52920 0.38110 0.72068 0.11100
H 	H 	0.52050 0.34630 0.69700 -0.02600
C 	C 	0.46770 0.64850 0.79327 -0.19000
H 	H 	0.48900 0.72830 0.80560 0.08100
H 	H 	0.44320 0.69900 0.77590 0.08100
C 	C 	0.40430 0.66650 0.84569 -0.06300
H 	H 	0.37780 0.72530 0.83130 0.04000
H 	H 	0.42930 0.73930 0.85730 0.04000
H 	H 	0.40150 0.50820 0.88690 0.03100
N 	N 	0.67499 0.92130 0.73671 -0.19900
N 	N 	0.81494 0.68910 0.82107 -0.18900
H 	H 	0.79250 0.73400 0.83610 0.09500
C 	C 	0.66380 0.86490 0.77036 0.10800
H 	H 	0.63190 0.89830 0.78200 -0.02700
C 	C 	0.69660 0.76060 0.78887 -0.21000
H 	H 	0.68650 0.72460 0.81220 0.09100
C 	C 	0.74422 0.71010 0.77263 0.14500
C 	C 	0.75570 0.76550 0.73773 -0.21500
H 	H 	0.78740 0.73290 0.72560 0.08700
C 	C 	0.72080 0.86890 0.72068 0.11100
H 	H 	0.72950 0.90370 0.69700 -0.02600
C 	C 	0.78230 0.60150 0.79327 -0.19000
H 	H 	0.76100 0.52170 0.80560 0.08100
H 	H 	0.80680 0.55100 0.77590 0.08100
C 	C 	0.84570 0.58350 0.84569 -0.06300
H 	H 	0.87220 0.52470 0.83130 0.04000
H 	H 	0.82070 0.51070 0.85730 0.04000
H 	H 	0.84850 0.74180 0.88690 0.03100
N 	N 	0.67499 0.42130 0.23671 -0.19900
N 	N 	0.81494 0.18910 0.32107 -0.18900
H 	H 	0.79250 0.23400 0.33610 0.09600
C 	C 	0.66380 0.36490 0.27036 0.10800
H 	H 	0.63190 0.39830 0.28200 -0.02700
C 	C 	0.69660 0.26060 0.28887 -0.21000
H 	H 	0.68650 0.22460 0.31220 0.09100
C 	C 	0.74422 0.21010 0.27263 0.14500
C 	C 	0.75570 0.26550 0.23773 -0.21500
H 	H 	0.78740 0.23290 0.22560 0.08700
C 	C 	0.72080 0.36890 0.22068 0.11100
H 	H 	0.72950 0.40370 0.19700 -0.02600
C 	C 	0.78230 0.10150 0.29327 -0.19000
H 	H 	0.76100 0.02170 0.30560 0.08100
H 	H 	0.80680 0.05100 0.27590 0.08100
C 	C 	0.84570 0.08350 0.34569 -0.06300
H 	H 	0.87220 0.02470 0.33130 0.04000
H 	H 	0.82070 0.01070 0.35730 0.04000
H 	H 	0.84850 0.24180 0.38690 0.03100
N 	N 	0.17499 0.92130 0.23671 -0.19900
N 	N 	0.31494 0.68910 0.32107 -0.18900
H 	H 	0.29250 0.73400 0.33610 0.09600
C 	C 	0.16380 0.86490 0.27036 0.10800
H 	H 	0.13190 0.89830 0.28200 -0.02700
C 	C 	0.19660 0.76060 0.28887 -0.21000
H 	H 	0.18650 0.72460 0.31220 0.09100
C 	C 	0.24422 0.71010 0.27263 0.14500
C 	C 	0.25570 0.76550 0.23773 -0.21500
H 	H 	0.28740 0.73290 0.22560 0.08700
C 	C 	0.22080 0.86890 0.22068 0.11100
H 	H 	0.22950 0.90370 0.19700 -0.02600
C 	C 	0.28230 0.60150 0.29327 -0.19000
H 	H 	0.26100 0.52170 0.30560 0.08100
H 	H 	0.30680 0.55100 0.27590 0.08100
C 	C 	0.34570 0.58350 0.34569 -0.06300
H 	H 	0.37220 0.52470 0.33130 0.04000
H 	H 	0.32070 0.51070 0.35730 0.04000
H 	H 	0.34850 0.74180 0.38690 0.03100
N 	N 	0.17499 0.42130 0.73671 -0.19900
N 	N 	0.31494 0.18910 0.82107 -0.18900
H 	H 	0.29250 0.23400 0.83610 0.09600
C 	C 	0.16380 0.36490 0.77036 0.10800
H 	H 	0.13190 0.39830 0.78200 -0.02700
C 	C 	0.19660 0.26060 0.78887 -0.21000
H 	H 	0.18650 0.22460 0.81220 0.09100
C 	C 	0.24422 0.21010 0.77263 0.14500
C 	C 	0.25570 0.26550 0.73773 -0.21500
H 	H 	0.28740 0.23290 0.72560 0.08700
C 	C 	0.22080 0.36890 0.72068 0.11100
H 	H 	0.22950 0.40370 0.69700 -0.02600
C 	C 	0.28230 0.10150 0.79327 -0.19000
H 	H 	0.26100 0.02170 0.80560 0.08100
H 	H 	0.30680 0.05100 0.77590 0.08100
C 	C 	0.34570 0.08350 0.84569 -0.06300
H 	H 	0.37220 0.02470 0.83130 0.04000
H 	H 	0.32070 0.01070 0.85730 0.04000
H 	H 	0.34850 0.24180 0.88690 0.03100
N 	N 	0.32501 0.17130 0.98671 -0.19900
N 	N 	0.18506 0.93910 0.07107 -0.18900
H 	H 	0.20750 0.98400 0.08610 0.09600
C 	C 	0.33620 0.11490 0.02036 0.10800
H 	H 	0.36810 0.14830 0.03200 -0.02700
C 	C 	0.30340 0.01060 0.03887 -0.21100
H 	H 	0.31350 0.97460 0.06220 0.09100
C 	C 	0.25578 0.96010 0.02263 0.14600
C 	C 	0.24430 0.01550 0.98773 -0.21500
H 	H 	0.21260 0.98290 0.97560 0.08700
C 	C 	0.27920 0.11890 0.97068 0.11100
H 	H 	0.27050 0.15370 0.94700 -0.02600
C 	C 	0.21770 0.85150 0.04327 -0.19000
H 	H 	0.23900 0.77170 0.05560 0.08100
H 	H 	0.19320 0.80100 0.02590 0.08100
C 	C 	0.15430 0.83350 0.09569 -0.06300
H 	H 	0.12780 0.77470 0.08130 0.04000
H 	H 	0.17930 0.76070 0.10730 0.04000
H 	H 	0.15150 0.99180 0.13690 0.03100
N 	N 	0.32501 0.67130 0.48671 -0.19900
N 	N 	0.18506 0.43910 0.57107 -0.18900
H 	H 	0.20750 0.48400 0.58610 0.09600
C 	C 	0.33620 0.61490 0.52036 0.10800
H 	H 	0.36810 0.64830 0.53200 -0.02700
C 	C 	0.30340 0.51060 0.53887 -0.21000
H 	H 	0.31350 0.47460 0.56220 0.09100
C 	C 	0.25578 0.46010 0.52263 0.14500
C 	C 	0.24430 0.51550 0.48773 -0.21500
H 	H 	0.21260 0.48290 0.47560 0.08700
C 	C 	0.27920 0.61890 0.47068 0.11100
H 	H 	0.27050 0.65370 0.44700 -0.02600
C 	C 	0.21770 0.35150 0.54327 -0.19000
H 	H 	0.23900 0.27170 0.55560 0.08100
H 	H 	0.19320 0.30100 0.52590 0.08100
C 	C 	0.15430 0.33350 0.59569 -0.06200
H 	H 	0.12780 0.27470 0.58130 0.04000
H 	H 	0.17930 0.26070 0.60730 0.04000
H 	H 	0.15150 0.49180 0.63690 0.03100
N 	N 	0.82501 0.17130 0.48671 -0.19800
N 	N 	0.68506 0.93910 0.57107 -0.19000
H 	H 	0.70750 0.98400 0.58610 0.09600
C 	C 	0.83620 0.11490 0.52036 0.10700
H 	H 	0.86810 0.14830 0.53200 -0.02600
C 	C 	0.80340 0.01060 0.53887 -0.20800
H 	H 	0.81350 0.97460 0.56220 0.09000
C 	C 	0.75578 0.96010 0.52263 0.14300
C 	C 	0.74430 0.01550 0.48773 -0.21200
H 	H 	0.71260 0.98290 0.47560 0.08600
C 	C 	0.77920 0.11890 0.47068 0.10900
H 	H 	0.77050 0.15370 0.44700 -0.02600
C 	C 	0.71770 0.85150 0.54327 -0.18900
H 	H 	0.73900 0.77170 0.55560 0.08000
H 	H 	0.69320 0.80100 0.52590 0.08100
C 	C 	0.65430 0.83350 0.59569 -0.06300
H 	H 	0.62780 0.77470 0.58130 0.04000
H 	H 	0.67930 0.76070 0.60730 0.04000
H 	H 	0.65150 0.99180 0.63690 0.03100
N 	N 	0.82501 0.67130 0.98671 -0.19900
N 	N 	0.68506 0.43910 0.07107 -0.18900
H 	H 	0.70750 0.48400 0.08610 0.09600
C 	C 	0.83620 0.61490 0.02036 0.10800
H 	H 	0.86810 0.64830 0.03200 -0.02700
C 	C 	0.80340 0.51060 0.03887 -0.21000
H 	H 	0.81350 0.47460 0.06220 0.09100
C 	C 	0.75578 0.46010 0.02263 0.14500
C 	C 	0.74430 0.51550 0.98773 -0.21500
H 	H 	0.71260 0.48290 0.97560 0.08700
C 	C 	0.77920 0.61890 0.97068 0.11100
H 	H 	0.77050 0.65370 0.94700 -0.02600
C 	C 	0.71770 0.35150 0.04327 -0.19000
H 	H 	0.73900 0.27170 0.05560 0.08100
H 	H 	0.69320 0.30100 0.02590 0.08100
C 	C 	0.65430 0.33350 0.09569 -0.06300
H 	H 	0.62780 0.27470 0.08130 0.04000
H 	H 	0.67930 0.26070 0.10730 0.04000
H 	H 	0.65150 0.49180 0.13690 0.03100
N 	N 	0.92499 0.07870 0.98671 -0.19900
N 	N 	0.06494 0.31090 0.07107 -0.18900
H 	H 	0.04250 0.26600 0.08610 0.09500
C 	C 	0.91380 0.13510 0.02036 0.10900
H 	H 	0.88190 0.10170 0.03200 -0.02700
C 	C 	0.94660 0.23940 0.03887 -0.21100
H 	H 	0.93650 0.27540 0.06220 0.09100
C 	C 	0.99422 0.28990 0.02263 0.14600
C 	C 	0.00570 0.23450 0.98773 -0.21600
H 	H 	0.03740 0.26710 0.97560 0.08800
C 	C 	0.97080 0.13110 0.97068 0.11200
H 	H 	0.97950 0.09630 0.94700 -0.02600
C 	C 	0.03230 0.39850 0.04327 -0.19100
H 	H 	0.01100 0.47830 0.05560 0.08100
H 	H 	0.05680 0.44900 0.02590 0.08100
C 	C 	0.09570 0.41650 0.09569 -0.06300
H 	H 	0.12220 0.47530 0.08130 0.04000
H 	H 	0.07070 0.48930 0.10730 0.04000
H 	H 	0.09850 0.25820 0.13690 0.03100
N 	N 	0.92499 0.57870 0.48671 -0.19900
N 	N 	0.06494 0.81090 0.57107 -0.18900
H 	H 	0.04250 0.76600 0.58610 0.09600
C 	C 	0.91380 0.63510 0.52036 0.10800
H 	H 	0.88190 0.60170 0.53200 -0.02700
C 	C 	0.94660 0.73940 0.53887 -0.21000
H 	H 	0.93650 0.77540 0.56220 0.09000
C 	C 	0.99422 0.78990 0.52263 0.14400
C 	C 	0.00570 0.73450 0.48773 -0.21300
H 	H 	0.03740 0.76710 0.47560 0.08700
C 	C 	0.97080 0.63110 0.47068 0.11000
H 	H 	0.97950 0.59630 0.44700 -0.02600
C 	C 	0.03230 0.89850 0.54327 -0.19000
H 	H 	0.01100 0.97830 0.55560 0.08100
H 	H 	0.05680 0.94900 0.52590 0.08100
C 	C 	0.09570 0.91650 0.59569 -0.06300
H 	H 	0.12220 0.97530 0.58130 0.04000
H 	H 	0.07070 0.98930 0.60730 0.04000
H 	H 	0.09850 0.75820 0.63690 0.03100
N 	N 	0.42499 0.07870 0.48671 -0.19900
N 	N 	0.56494 0.31090 0.57107 -0.18900
H 	H 	0.54250 0.26600 0.58610 0.09600
C 	C 	0.41380 0.13510 0.52036 0.10800
H 	H 	0.38190 0.10170 0.53200 -0.02700
C 	C 	0.44660 0.23940 0.53887 -0.21000
H 	H 	0.43650 0.27540 0.56220 0.09100
C 	C 	0.49422 0.28990 0.52263 0.14500
C 	C 	0.50570 0.23450 0.48773 -0.21500
H 	H 	0.53740 0.26710 0.47560 0.08700
C 	C 	0.47080 0.13110 0.47068 0.11100
H 	H 	0.47950 0.09630 0.44700 -0.02600
C 	C 	0.53230 0.39850 0.54327 -0.19000
H 	H 	0.51100 0.47830 0.55560 0.08100
H 	H 	0.55680 0.44900 0.52590 0.08100
C 	C 	0.59570 0.41650 0.59569 -0.06300
H 	H 	0.62220 0.47530 0.58130 0.04000
H 	H 	0.57070 0.48930 0.60730 0.04000
H 	H 	0.59850 0.25820 0.63690 0.03100
N 	N 	0.42499 0.57870 0.98671 -0.19900
N 	N 	0.56494 0.81090 0.07107 -0.18900
H 	H 	0.54250 0.76600 0.08610 0.09600
C 	C 	0.41380 0.63510 0.02036 0.10800
H 	H 	0.38190 0.60170 0.03200 -0.02700
C 	C 	0.44660 0.73940 0.03887 -0.21000
H 	H 	0.43650 0.77540 0.06220 0.09100
C 	C 	0.49422 0.78990 0.02263 0.14500
C 	C 	0.50570 0.73450 0.98773 -0.21500
H 	H 	0.53740 0.76710 0.97560 0.08700
C 	C 	0.47080 0.63110 0.97068 0.11100
H 	H 	0.47950 0.59630 0.94700 -0.02600
C 	C 	0.53230 0.89850 0.04327 -0.19000
H 	H 	0.51100 0.97830 0.05560 0.08100
H 	H 	0.55680 0.94900 0.02590 0.08100
C 	C 	0.59570 0.91650 0.09569 -0.06300
H 	H 	0.62220 0.97530 0.08130 0.04000
H 	H 	0.57070 0.98930 0.10730 0.04000
H 	H 	0.59850 0.75820 0.13690 0.03100
N 	N 	0.92499 0.17130 0.26329 -0.19900
N 	N 	0.06494 0.93910 0.17893 -0.19000
H 	H 	0.04250 0.98400 0.16390 0.09600
C 	C 	0.91380 0.11490 0.22964 0.10700
H 	H 	0.88190 0.14830 0.21800 -0.02700
C 	C 	0.94660 0.01060 0.21113 -0.20800
H 	H 	0.93650 0.97460 0.18780 0.09000
C 	C 	0.99422 0.96010 0.22737 0.14400
C 	C 	0.00570 0.01550 0.26227 -0.21500
H 	H 	0.03740 0.98290 0.27440 0.08800
C 	C 	0.97080 0.11890 0.27932 0.11100
H 	H 	0.97950 0.15370 0.30300 -0.02600
C 	C 	0.03230 0.85150 0.20673 -0.18900
H 	H 	0.01100 0.77170 0.19440 0.08000
H 	H 	0.05680 0.80100 0.22410 0.08100
C 	C 	0.09570 0.83350 0.15431 -0.06200
H 	H 	0.12220 0.77470 0.16870 0.04000
H 	H 	0.07070 0.76070 0.14270 0.04000
H 	H 	0.09850 0.99180 0.11310 0.03100
N 	N 	0.92499 0.67130 0.76329 -0.19900
N 	N 	0.06494 0.43910 0.67893 -0.18900
H 	H 	0.04250 0.48400 0.66390 0.09600
C 	C 	0.91380 0.61490 0.72964 0.10800
H 	H 	0.88190 0.64830 0.71800 -0.02700
C 	C 	0.94660 0.51060 0.71113 -0.21000
H 	H 	0.93650 0.47460 0.68780 0.09100
C 	C 	0.99422 0.46010 0.72737 0.14500
C 	C 	0.00570 0.51550 0.76227 -0.21400
H 	H 	0.03740 0.48290 0.77440 0.08700
C 	C 	0.97080 0.61890 0.77932 0.11100
H 	H 	0.97950 0.65370 0.80300 -0.02600
C 	C 	0.03230 0.35150 0.70673 -0.19000
H 	H 	0.01100 0.27170 0.69440 0.08100
H 	H 	0.05680 0.30100 0.72410 0.08100
C 	C 	0.09570 0.33350 0.65431 -0.06200
H 	H 	0.12220 0.27470 0.66870 0.04000
H 	H 	0.07070 0.26070 0.64270 0.04000
H 	H 	0.09850 0.49180 0.61310 0.03100
N 	N 	0.42499 0.17130 0.76329 -0.19900
N 	N 	0.56494 0.93910 0.67893 -0.19000
H 	H 	0.54250 0.98400 0.66390 0.09600
C 	C 	0.41380 0.11490 0.72964 0.10800
H 	H 	0.38190 0.14830 0.71800 -0.02700
C 	C 	0.44660 0.01060 0.71113 -0.20900
H 	H 	0.43650 0.97460 0.68780 0.09000
C 	C 	0.49422 0.96010 0.72737 0.14400
C 	C 	0.50570 0.01550 0.76227 -0.21300
H 	H 	0.53740 0.98290 0.77440 0.08700
C 	C 	0.47080 0.11890 0.77932 0.11000
H 	H 	0.47950 0.15370 0.80300 -0.02600
C 	C 	0.53230 0.85150 0.70673 -0.19000
H 	H 	0.51100 0.77170 0.69440 0.08100
H 	H 	0.55680 0.80100 0.72410 0.08100
C 	C 	0.59570 0.83350 0.65431 -0.06300
H 	H 	0.62220 0.77470 0.66870 0.04000
H 	H 	0.57070 0.76070 0.64270 0.04000
H 	H 	0.59850 0.99180 0.61310 0.03100
N 	N 	0.42499 0.67130 0.26329 -0.19900
N 	N 	0.56494 0.43910 0.17893 -0.18900
H 	H 	0.54250 0.48400 0.16390 0.09600
C 	C 	0.41380 0.61490 0.22964 0.10800
H 	H 	0.38190 0.64830 0.21800 -0.02700
C 	C 	0.44660 0.51060 0.21113 -0.21000
H 	H 	0.43650 0.47460 0.18780 0.09100
C 	C 	0.49422 0.46010 0.22737 0.14500
C 	C 	0.50570 0.51550 0.26227 -0.21500
H 	H 	0.53740 0.48290 0.27440 0.08700
C 	C 	0.47080 0.61890 0.27932 0.11100
H 	H 	0.47950 0.65370 0.30300 -0.02600
C 	C 	0.53230 0.35150 0.20673 -0.19000
H 	H 	0.51100 0.27170 0.19440 0.08100
H 	H 	0.55680 0.30100 0.22410 0.08100
C 	C 	0.59570 0.33350 0.15431 -0.06300
H 	H 	0.62220 0.27470 0.16870 0.04000
H 	H 	0.57070 0.26070 0.14270 0.04000
H 	H 	0.59850 0.49180 0.11310 0.03100
N 	N 	0.32501 0.07870 0.26329 -0.19900
N 	N 	0.18506 0.31090 0.17893 -0.18900
H 	H 	0.20750 0.26600 0.16390 0.09500
C 	C 	0.33620 0.13510 0.22964 0.10800
H 	H 	0.36810 0.10170 0.21800 -0.02700
C 	C 	0.30340 0.23940 0.21113 -0.21000
H 	H 	0.31350 0.27540 0.18780 0.09100
C 	C 	0.25578 0.28990 0.22737 0.14500
C 	C 	0.24430 0.23450 0.26227 -0.21500
H 	H 	0.21260 0.26710 0.27440 0.08700
C 	C 	0.27920 0.13110 0.27932 0.11100
H 	H 	0.27050 0.09630 0.30300 -0.02600
C 	C 	0.21770 0.39850 0.20673 -0.19000
H 	H 	0.23900 0.47830 0.19440 0.08100
H 	H 	0.19320 0.44900 0.22410 0.08100
C 	C 	0.15430 0.41650 0.15431 -0.06300
H 	H 	0.12780 0.47530 0.16870 0.04000
H 	H 	0.17930 0.48930 0.14270 0.04000
H 	H 	0.15150 0.25820 0.11310 0.03100
N 	N 	0.32501 0.57870 0.76329 -0.19900
N 	N 	0.18506 0.81090 0.67893 -0.18900
H 	H 	0.20750 0.76600 0.66390 0.09600
C 	C 	0.33620 0.63510 0.72964 0.10800
H 	H 	0.36810 0.60170 0.71800 -0.02700
C 	C 	0.30340 0.73940 0.71113 -0.21000
H 	H 	0.31350 0.77540 0.68780 0.09100
C 	C 	0.25578 0.78990 0.72737 0.14500
C 	C 	0.24430 0.73450 0.76227 -0.21500
H 	H 	0.21260 0.76710 0.77440 0.08700
C 	C 	0.27920 0.63110 0.77932 0.11100
H 	H 	0.27050 0.59630 0.80300 -0.02600
C 	C 	0.21770 0.89850 0.70673 -0.19000
H 	H 	0.23900 0.97830 0.69440 0.08100
H 	H 	0.19320 0.94900 0.72410 0.08100
C 	C 	0.15430 0.91650 0.65431 -0.06300
H 	H 	0.12780 0.97530 0.66870 0.04000
H 	H 	0.17930 0.98930 0.64270 0.04000
H 	H 	0.15150 0.75820 0.61310 0.03100
N 	N 	0.82501 0.07870 0.76329 -0.19900
N 	N 	0.68506 0.31090 0.67893 -0.18900
H 	H 	0.70750 0.26600 0.66390 0.09600
C 	C 	0.83620 0.13510 0.72964 0.10800
H 	H 	0.86810 0.10170 0.71800 -0.02700
C 	C 	0.80340 0.23940 0.71113 -0.21000
H 	H 	0.81350 0.27540 0.68780 0.09100
C 	C 	0.75578 0.28990 0.72737 0.14500
C 	C 	0.74430 0.23450 0.76227 -0.21500
H 	H 	0.71260 0.26710 0.77440 0.08700
C 	C 	0.77920 0.13110 0.77932 0.11100
H 	H 	0.77050 0.09630 0.80300 -0.02600
C 	C 	0.71770 0.39850 0.70673 -0.19000
H 	H 	0.73900 0.47830 0.69440 0.08100
H 	H 	0.69320 0.44900 0.72410 0.08100
C 	C 	0.65430 0.41650 0.65431 -0.06300
H 	H 	0.62780 0.47530 0.66870 0.04000
H 	H 	0.67930 0.48930 0.64270 0.04000
H 	H 	0.65150 0.25820 0.61310 0.03100
N 	N 	0.82501 0.57870 0.26329 -0.19900
N 	N 	0.68506 0.81090 0.17893 -0.18900
H 	H 	0.70750 0.76600 0.16390 0.09600
C 	C 	0.83620 0.63510 0.22964 0.10800
H 	H 	0.86810 0.60170 0.21800 -0.02700
C 	C 	0.80340 0.73940 0.21113 -0.21000
H 	H 	0.81350 0.77540 0.18780 0.09100
C 	C 	0.75578 0.78990 0.22737 0.14500
C 	C 	0.74430 0.73450 0.26227 -0.21500
H 	H 	0.71260 0.76710 0.27440 0.08700
C 	C 	0.77920 0.63110 0.27932 0.11100
H 	H 	0.77050 0.59630 0.30300 -0.02600
C 	C 	0.71770 0.89850 0.20673 -0.19000
H 	H 	0.73900 0.97830 0.19440 0.08100
H 	H 	0.69320 0.94900 0.22410 0.08100
C 	C 	0.65430 0.91650 0.15431 -0.06300
H 	H 	0.62780 0.97530 0.16870 0.04000
H 	H 	0.67930 0.98930 0.14270 0.04000
H 	H 	0.65150 0.75820 0.11310 0.03100
Ag	Ag	0.62500 0.62500 0.04263 0.53200
Ag	Ag	0.62500 0.12500 0.54263 0.53200
Ag	Ag	0.12500 0.12500 0.04263 0.53200
Ag	Ag	0.12500 0.62500 0.54263 0.53200
Ag	Ag	0.12500 0.62500 0.70737 0.53200
Ag	Ag	0.12500 0.12500 0.20737 0.53200
Ag	Ag	0.62500 0.12500 0.70737 0.53200
Ag	Ag	0.62500 0.62500 0.20737 0.53200
Ag	Ag	0.37500 0.37500 0.95737 0.53200
Ag	Ag	0.37500 0.87500 0.45737 0.53200
Ag	Ag	0.87500 0.87500 0.95737 0.53200
Ag	Ag	0.87500 0.37500 0.45737 0.53200
Ag	Ag	0.87500 0.37500 0.29263 0.53200
Ag	Ag	0.87500 0.87500 0.79263 0.53200
Ag	Ag	0.37500 0.37500 0.79263 0.53200
Ag	Ag	0.37500 0.87500 0.29263 0.53200
C 	C 	0.87500 0.07410 0.87500 -0.11500
C 	C 	0.87500 0.57410 0.37500 -0.11500
C 	C 	0.37500 0.07410 0.37500 -0.11500
C 	C 	0.37500 0.57410 0.87500 -0.11500
C 	C 	0.87500 0.67590 0.87500 -0.11500
C 	C 	0.87500 0.17590 0.37500 -0.11500
C 	C 	0.37500 0.67590 0.37500 -0.11500
C 	C 	0.37500 0.17590 0.87500 -0.11500
C 	C 	0.12500 0.92590 0.12500 -0.11500
C 	C 	0.12500 0.42590 0.62500 -0.11500
C 	C 	0.62500 0.92590 0.62500 -0.11500
C 	C 	0.62500 0.42590 0.12500 -0.11500
C 	C 	0.12500 0.32410 0.12500 -0.11500
C 	C 	0.12500 0.82410 0.62500 -0.11500
C 	C 	0.62500 0.32410 0.62500 -0.11500
C 	C 	0.62500 0.82410 0.12500 -0.11500
