data_crystal

_cell_length_a 8.60680
_cell_length_b 24.65340
_cell_length_c 35.74040
_cell_angle_alpha 90.00000
_cell_angle_beta  90.00000
_cell_angle_gamma 90.00000

_symmetry_space_group_name_	'P 1'
_symmetry_space_group_name_H-M	'P 1'

loop_
_symmetry_equiv_pos_as_xyz
  x,y,z

loop_
_atom_site_label
_atom_site_type_symbol
_atom_site_fract_x
_atom_site_fract_y
_atom_site_fract_z
_atom_site_charge
N 	N 	0.57740 0.32750 0.26150 -0.19900
N 	N 	0.80930 0.18550 0.17883 -0.18100
H 	H 	0.75630 0.20760 0.16430 0.09000
C 	C 	0.62750 0.28120 0.27810 0.10300
H 	H 	0.58960 0.27260 0.30170 -0.02300
C 	C 	0.73290 0.24600 0.26140 -0.21300
H 	H 	0.76480 0.21480 0.27390 0.08800
C 	C 	0.78940 0.25740 0.22660 0.15300
C 	C 	0.74170 0.30440 0.21010 -0.21800
H 	H 	0.77890 0.31380 0.18650 0.09500
C 	C 	0.63920 0.33770 0.22820 0.11700
H 	H 	0.61070 0.36970 0.21630 -0.02800
C 	C 	0.89850 0.21960 0.20590 -0.19400
H 	H 	0.97600 0.24060 0.19260 0.08300
H 	H 	0.95170 0.19640 0.22370 0.08300
C 	C 	0.91850 0.15490 0.15470 -0.06800
H 	H 	0.97710 0.12910 0.16950 0.04300
H 	H 	0.99110 0.17950 0.14280 0.04300
H 	H 	0.75610 0.09890 0.13750 0.02900
N 	N 	0.57740 0.82750 0.76150 -0.19900
N 	N 	0.80930 0.68550 0.67883 -0.18100
H 	H 	0.75630 0.70760 0.66430 0.09000
C 	C 	0.62750 0.78120 0.77810 0.10300
H 	H 	0.58960 0.77260 0.80170 -0.02300
C 	C 	0.73290 0.74600 0.76140 -0.21300
H 	H 	0.76480 0.71480 0.77390 0.08800
C 	C 	0.78940 0.75740 0.72660 0.15300
C 	C 	0.74170 0.80440 0.71010 -0.21800
H 	H 	0.77890 0.81380 0.68650 0.09500
C 	C 	0.63920 0.83770 0.72820 0.11700
H 	H 	0.61070 0.86970 0.71630 -0.02800
C 	C 	0.89850 0.71960 0.70590 -0.19300
H 	H 	0.97600 0.74060 0.69260 0.08300
H 	H 	0.95170 0.69640 0.72370 0.08300
C 	C 	0.91850 0.65490 0.65470 -0.06800
H 	H 	0.97710 0.62910 0.66950 0.04200
H 	H 	0.99110 0.67950 0.64280 0.04200
H 	H 	0.75610 0.59890 0.63750 0.02800
N 	N 	0.07740 0.32750 0.76150 -0.20000
N 	N 	0.30930 0.18550 0.67883 -0.18200
H 	H 	0.25630 0.20760 0.66430 0.08900
C 	C 	0.12750 0.28120 0.77810 0.10200
H 	H 	0.08960 0.27260 0.80170 -0.02400
C 	C 	0.23290 0.24600 0.76140 -0.21400
H 	H 	0.26480 0.21480 0.77390 0.08700
C 	C 	0.28940 0.25740 0.72660 0.15200
C 	C 	0.24170 0.30440 0.71010 -0.21900
H 	H 	0.27890 0.31380 0.68650 0.09400
C 	C 	0.13920 0.33770 0.72820 0.11600
H 	H 	0.11070 0.36970 0.71630 -0.02900
C 	C 	0.39850 0.21960 0.70590 -0.19400
H 	H 	0.47600 0.24060 0.69260 0.08200
H 	H 	0.45170 0.19640 0.72370 0.08200
C 	C 	0.41850 0.15490 0.65470 -0.06800
H 	H 	0.47710 0.12910 0.66950 0.04200
H 	H 	0.49110 0.17950 0.64280 0.04200
H 	H 	0.25610 0.09890 0.63750 0.02800
N 	N 	0.07740 0.82750 0.26150 -0.20000
N 	N 	0.30930 0.68550 0.17883 -0.18200
H 	H 	0.25630 0.70760 0.16430 0.08900
C 	C 	0.12750 0.78120 0.27810 0.10200
H 	H 	0.08960 0.77260 0.30170 -0.02400
C 	C 	0.23290 0.74600 0.26140 -0.21400
H 	H 	0.26480 0.71480 0.27390 0.08700
C 	C 	0.28940 0.75740 0.22660 0.15200
C 	C 	0.24170 0.80440 0.21010 -0.21900
H 	H 	0.27890 0.81380 0.18650 0.09400
C 	C 	0.13920 0.83770 0.22820 0.11600
H 	H 	0.11070 0.86970 0.21630 -0.02900
C 	C 	0.39850 0.71960 0.20590 -0.19400
H 	H 	0.47600 0.74060 0.19260 0.08200
H 	H 	0.45170 0.69640 0.22370 0.08200
C 	C 	0.41850 0.65490 0.15470 -0.06800
H 	H 	0.47710 0.62910 0.16950 0.04200
H 	H 	0.49110 0.67950 0.14280 0.04200
H 	H 	0.25610 0.59890 0.13750 0.02800
N 	N 	0.17260 0.42250 0.26150 -0.20000
N 	N 	0.94070 0.56450 0.17883 -0.18200
H 	H 	0.99370 0.54240 0.16430 0.08900
C 	C 	0.12250 0.46880 0.27810 0.10100
H 	H 	0.16040 0.47740 0.30170 -0.02300
C 	C 	0.01710 0.50400 0.26140 -0.21300
H 	H 	0.98520 0.53520 0.27390 0.08700
C 	C 	0.96060 0.49260 0.22660 0.15100
C 	C 	0.00830 0.44560 0.21010 -0.21800
H 	H 	0.97110 0.43620 0.18650 0.09300
C 	C 	0.11080 0.41230 0.22820 0.11600
H 	H 	0.13930 0.38030 0.21630 -0.02900
C 	C 	0.85150 0.53040 0.20590 -0.19400
H 	H 	0.77400 0.50940 0.19260 0.08200
H 	H 	0.79830 0.55360 0.22370 0.08200
C 	C 	0.83150 0.59510 0.15470 -0.06800
H 	H 	0.77290 0.62090 0.16950 0.04200
H 	H 	0.75890 0.57050 0.14280 0.04200
H 	H 	0.99390 0.65110 0.13750 0.02800
N 	N 	0.17260 0.92250 0.76150 -0.20000
N 	N 	0.94070 0.06450 0.67883 -0.18200
H 	H 	0.99370 0.04240 0.66430 0.08900
C 	C 	0.12250 0.96880 0.77810 0.10200
H 	H 	0.16040 0.97740 0.80170 -0.02300
C 	C 	0.01710 0.00400 0.76140 -0.21300
H 	H 	0.98520 0.03520 0.77390 0.08700
C 	C 	0.96060 0.99260 0.72660 0.15000
C 	C 	0.00830 0.94560 0.71010 -0.21600
H 	H 	0.97110 0.93620 0.68650 0.09200
C 	C 	0.11080 0.91230 0.72820 0.11500
H 	H 	0.13930 0.88030 0.71630 -0.02800
C 	C 	0.85150 0.03040 0.70590 -0.19300
H 	H 	0.77400 0.00940 0.69260 0.08200
H 	H 	0.79830 0.05360 0.72370 0.08200
C 	C 	0.83150 0.09510 0.65470 -0.06800
H 	H 	0.77290 0.12090 0.66950 0.04200
H 	H 	0.75890 0.07050 0.64280 0.04200
H 	H 	0.99390 0.15110 0.63750 0.02800
N 	N 	0.67260 0.42250 0.76150 -0.20000
N 	N 	0.44070 0.56450 0.67883 -0.18200
H 	H 	0.49370 0.54240 0.66430 0.08900
C 	C 	0.62250 0.46880 0.77810 0.10200
H 	H 	0.66040 0.47740 0.80170 -0.02400
C 	C 	0.51710 0.50400 0.76140 -0.21400
H 	H 	0.48520 0.53520 0.77390 0.08700
C 	C 	0.46060 0.49260 0.72660 0.15200
C 	C 	0.50830 0.44560 0.71010 -0.21900
H 	H 	0.47110 0.43620 0.68650 0.09400
C 	C 	0.61080 0.41230 0.72820 0.11600
H 	H 	0.63930 0.38030 0.71630 -0.02900
C 	C 	0.35150 0.53040 0.70590 -0.19400
H 	H 	0.27400 0.50940 0.69260 0.08200
H 	H 	0.29830 0.55360 0.72370 0.08200
C 	C 	0.33150 0.59510 0.65470 -0.06800
H 	H 	0.27290 0.62090 0.66950 0.04200
H 	H 	0.25890 0.57050 0.64280 0.04200
H 	H 	0.49390 0.65110 0.63750 0.02800
N 	N 	0.67260 0.92250 0.26150 -0.20000
N 	N 	0.44070 0.06450 0.17883 -0.18200
H 	H 	0.49370 0.04240 0.16430 0.08900
C 	C 	0.62250 0.96880 0.27810 0.10200
H 	H 	0.66040 0.97740 0.30170 -0.02400
C 	C 	0.51710 0.00400 0.26140 -0.21400
H 	H 	0.48520 0.03520 0.27390 0.08700
C 	C 	0.46060 0.99260 0.22660 0.15200
C 	C 	0.50830 0.94560 0.21010 -0.21900
H 	H 	0.47110 0.93620 0.18650 0.09400
C 	C 	0.61080 0.91230 0.22820 0.11600
H 	H 	0.63930 0.88030 0.21630 -0.02900
C 	C 	0.35150 0.03040 0.20590 -0.19400
H 	H 	0.27400 0.00940 0.19260 0.08200
H 	H 	0.29830 0.05360 0.22370 0.08200
C 	C 	0.33150 0.09510 0.15470 -0.06800
H 	H 	0.27290 0.12090 0.16950 0.04200
H 	H 	0.25890 0.07050 0.14280 0.04200
H 	H 	0.49390 0.15110 0.13750 0.02800
N 	N 	0.17260 0.32750 0.48850 -0.20000
N 	N 	0.94070 0.18550 0.57117 -0.18200
H 	H 	0.99370 0.20760 0.58570 0.08900
C 	C 	0.12250 0.28120 0.47190 0.10200
H 	H 	0.16040 0.27260 0.44830 -0.02400
C 	C 	0.01710 0.24600 0.48860 -0.21400
H 	H 	0.98520 0.21480 0.47610 0.08700
C 	C 	0.96060 0.25740 0.52340 0.15200
C 	C 	0.00830 0.30440 0.53990 -0.21900
H 	H 	0.97110 0.31380 0.56350 0.09400
C 	C 	0.11080 0.33770 0.52180 0.11600
H 	H 	0.13930 0.36970 0.53370 -0.02900
C 	C 	0.85150 0.21960 0.54410 -0.19400
H 	H 	0.77400 0.24060 0.55740 0.08200
H 	H 	0.79830 0.19640 0.52630 0.08200
C 	C 	0.83150 0.15490 0.59530 -0.06800
H 	H 	0.77290 0.12910 0.58050 0.04200
H 	H 	0.75890 0.17950 0.60720 0.04200
H 	H 	0.99390 0.09890 0.61250 0.02800
N 	N 	0.17260 0.82750 0.98850 -0.19900
N 	N 	0.94070 0.68550 0.07117 -0.18200
H 	H 	0.99370 0.70760 0.08570 0.08900
C 	C 	0.12250 0.78120 0.97190 0.10100
H 	H 	0.16040 0.77260 0.94830 -0.02300
C 	C 	0.01710 0.74600 0.98860 -0.21100
H 	H 	0.98520 0.71480 0.97610 0.08600
C 	C 	0.96060 0.75740 0.02340 0.14900
C 	C 	0.00830 0.80440 0.03990 -0.21600
H 	H 	0.97110 0.81380 0.06350 0.09300
C 	C 	0.11080 0.83770 0.02180 0.11500
H 	H 	0.13930 0.86970 0.03370 -0.02800
C 	C 	0.85150 0.71960 0.04410 -0.19300
H 	H 	0.77400 0.74060 0.05740 0.08200
H 	H 	0.79830 0.69640 0.02630 0.08200
C 	C 	0.83150 0.65490 0.09530 -0.06800
H 	H 	0.77290 0.62910 0.08050 0.04200
H 	H 	0.75890 0.67950 0.10720 0.04200
H 	H 	0.99390 0.59890 0.11250 0.02800
N 	N 	0.67260 0.32750 0.98850 -0.20000
N 	N 	0.44070 0.18550 0.07117 -0.18200
H 	H 	0.49370 0.20760 0.08570 0.08900
C 	C 	0.62250 0.28120 0.97190 0.10200
H 	H 	0.66040 0.27260 0.94830 -0.02400
C 	C 	0.51710 0.24600 0.98860 -0.21400
H 	H 	0.48520 0.21480 0.97610 0.08700
C 	C 	0.46060 0.25740 0.02340 0.15200
C 	C 	0.50830 0.30440 0.03990 -0.21900
H 	H 	0.47110 0.31380 0.06350 0.09400
C 	C 	0.61080 0.33770 0.02180 0.11600
H 	H 	0.63930 0.36970 0.03370 -0.02900
C 	C 	0.35150 0.21960 0.04410 -0.19400
H 	H 	0.27400 0.24060 0.05740 0.08200
H 	H 	0.29830 0.19640 0.02630 0.08200
C 	C 	0.33150 0.15490 0.09530 -0.06800
H 	H 	0.27290 0.12910 0.08050 0.04200
H 	H 	0.25890 0.17950 0.10720 0.04200
H 	H 	0.49390 0.09890 0.11250 0.02800
N 	N 	0.67260 0.82750 0.48850 -0.20000
N 	N 	0.44070 0.68550 0.57117 -0.18200
H 	H 	0.49370 0.70760 0.58570 0.08900
C 	C 	0.62250 0.78120 0.47190 0.10200
H 	H 	0.66040 0.77260 0.44830 -0.02400
C 	C 	0.51710 0.74600 0.48860 -0.21400
H 	H 	0.48520 0.71480 0.47610 0.08700
C 	C 	0.46060 0.75740 0.52340 0.15200
C 	C 	0.50830 0.80440 0.53990 -0.21900
H 	H 	0.47110 0.81380 0.56350 0.09400
C 	C 	0.61080 0.83770 0.52180 0.11600
H 	H 	0.63930 0.86970 0.53370 -0.02900
C 	C 	0.35150 0.71960 0.54410 -0.19400
H 	H 	0.27400 0.74060 0.55740 0.08200
H 	H 	0.29830 0.69640 0.52630 0.08200
C 	C 	0.33150 0.65490 0.59530 -0.06800
H 	H 	0.27290 0.62910 0.58050 0.04200
H 	H 	0.25890 0.67950 0.60720 0.04200
H 	H 	0.49390 0.59890 0.61250 0.02800
N 	N 	0.57740 0.42250 0.48850 -0.20000
N 	N 	0.80930 0.56450 0.57117 -0.18200
H 	H 	0.75630 0.54240 0.58570 0.08900
C 	C 	0.62750 0.46880 0.47190 0.10200
H 	H 	0.58960 0.47740 0.44830 -0.02400
C 	C 	0.73290 0.50400 0.48860 -0.21400
H 	H 	0.76480 0.53520 0.47610 0.08700
C 	C 	0.78940 0.49260 0.52340 0.15200
C 	C 	0.74170 0.44560 0.53990 -0.21900
H 	H 	0.77890 0.43620 0.56350 0.09400
C 	C 	0.63920 0.41230 0.52180 0.11600
H 	H 	0.61070 0.38030 0.53370 -0.02900
C 	C 	0.89850 0.53040 0.54410 -0.19400
H 	H 	0.97600 0.50940 0.55740 0.08200
H 	H 	0.95170 0.55360 0.52630 0.08200
C 	C 	0.91850 0.59510 0.59530 -0.06800
H 	H 	0.97710 0.62090 0.58050 0.04200
H 	H 	0.99110 0.57050 0.60720 0.04200
H 	H 	0.75610 0.65110 0.61250 0.02800
N 	N 	0.57740 0.92250 0.98850 -0.20000
N 	N 	0.80930 0.06450 0.07117 -0.18200
H 	H 	0.75630 0.04240 0.08570 0.08900
C 	C 	0.62750 0.96880 0.97190 0.10100
H 	H 	0.58960 0.97740 0.94830 -0.02300
C 	C 	0.73290 0.00400 0.98860 -0.21300
H 	H 	0.76480 0.03520 0.97610 0.08700
C 	C 	0.78940 0.99260 0.02340 0.15100
C 	C 	0.74170 0.94560 0.03990 -0.21800
H 	H 	0.77890 0.93620 0.06350 0.09300
C 	C 	0.63920 0.91230 0.02180 0.11600
H 	H 	0.61070 0.88030 0.03370 -0.02900
C 	C 	0.89850 0.03040 0.04410 -0.19400
H 	H 	0.97600 0.00940 0.05740 0.08200
H 	H 	0.95170 0.05360 0.02630 0.08200
C 	C 	0.91850 0.09510 0.09530 -0.06900
H 	H 	0.97710 0.12090 0.08050 0.04200
H 	H 	0.99110 0.07050 0.10720 0.04200
H 	H 	0.75610 0.15110 0.11250 0.02800
N 	N 	0.07740 0.42250 0.98850 -0.20000
N 	N 	0.30930 0.56450 0.07117 -0.18200
H 	H 	0.25630 0.54240 0.08570 0.08900
C 	C 	0.12750 0.46880 0.97190 0.10200
H 	H 	0.08960 0.47740 0.94830 -0.02400
C 	C 	0.23290 0.50400 0.98860 -0.21400
H 	H 	0.26480 0.53520 0.97610 0.08700
C 	C 	0.28940 0.49260 0.02340 0.15200
C 	C 	0.24170 0.44560 0.03990 -0.21900
H 	H 	0.27890 0.43620 0.06350 0.09400
C 	C 	0.13920 0.41230 0.02180 0.11600
H 	H 	0.11070 0.38030 0.03370 -0.02900
C 	C 	0.39850 0.53040 0.04410 -0.19400
H 	H 	0.47600 0.50940 0.05740 0.08200
H 	H 	0.45170 0.55360 0.02630 0.08200
C 	C 	0.41850 0.59510 0.09530 -0.06800
H 	H 	0.47710 0.62090 0.08050 0.04200
H 	H 	0.49110 0.57050 0.10720 0.04200
H 	H 	0.25610 0.65110 0.11250 0.02800
N 	N 	0.07740 0.92250 0.48850 -0.20000
N 	N 	0.30930 0.06450 0.57117 -0.18200
H 	H 	0.25630 0.04240 0.58570 0.08900
C 	C 	0.12750 0.96880 0.47190 0.10300
H 	H 	0.08960 0.97740 0.44830 -0.02400
C 	C 	0.23290 0.00400 0.48860 -0.21500
H 	H 	0.26480 0.03520 0.47610 0.08800
C 	C 	0.28940 0.99260 0.52340 0.15300
C 	C 	0.24170 0.94560 0.53990 -0.21900
H 	H 	0.27890 0.93620 0.56350 0.09400
C 	C 	0.13920 0.91230 0.52180 0.11700
H 	H 	0.11070 0.88030 0.53370 -0.02900
C 	C 	0.39850 0.03040 0.54410 -0.19500
H 	H 	0.47600 0.00940 0.55740 0.08200
H 	H 	0.45170 0.05360 0.52630 0.08200
C 	C 	0.41850 0.09510 0.59530 -0.06800
H 	H 	0.47710 0.12090 0.58050 0.04200
H 	H 	0.49110 0.07050 0.60720 0.04200
H 	H 	0.25610 0.15110 0.61250 0.02800
N 	N 	0.42260 0.67250 0.73850 -0.20000
N 	N 	0.19070 0.81450 0.82117 -0.18200
H 	H 	0.24370 0.79240 0.83570 0.08900
C 	C 	0.37250 0.71880 0.72190 0.10200
H 	H 	0.41040 0.72740 0.69830 -0.02400
C 	C 	0.26710 0.75400 0.73860 -0.21400
H 	H 	0.23520 0.78520 0.72610 0.08700
C 	C 	0.21060 0.74260 0.77340 0.15200
C 	C 	0.25830 0.69560 0.78990 -0.21900
H 	H 	0.22110 0.68620 0.81350 0.09400
C 	C 	0.36080 0.66230 0.77180 0.11600
H 	H 	0.38930 0.63030 0.78370 -0.02900
C 	C 	0.10150 0.78040 0.79410 -0.19500
H 	H 	0.02400 0.75940 0.80740 0.08200
H 	H 	0.04830 0.80360 0.77630 0.08200
C 	C 	0.08150 0.84510 0.84530 -0.06900
H 	H 	0.02290 0.87090 0.83050 0.04200
H 	H 	0.00890 0.82050 0.85720 0.04200
H 	H 	0.24390 0.90110 0.86250 0.02800
N 	N 	0.42260 0.17250 0.23850 -0.20000
N 	N 	0.19070 0.31450 0.32117 -0.18200
H 	H 	0.24370 0.29240 0.33570 0.08900
C 	C 	0.37250 0.21880 0.22190 0.10200
H 	H 	0.41040 0.22740 0.19830 -0.02400
C 	C 	0.26710 0.25400 0.23860 -0.21400
H 	H 	0.23520 0.28520 0.22610 0.08700
C 	C 	0.21060 0.24260 0.27340 0.15200
C 	C 	0.25830 0.19560 0.28990 -0.21900
H 	H 	0.22110 0.18620 0.31350 0.09400
C 	C 	0.36080 0.16230 0.27180 0.11600
H 	H 	0.38930 0.13030 0.28370 -0.02900
C 	C 	0.10150 0.28040 0.29410 -0.19400
H 	H 	0.02400 0.25940 0.30740 0.08200
H 	H 	0.04830 0.30360 0.27630 0.08200
C 	C 	0.08150 0.34510 0.34530 -0.06800
H 	H 	0.02290 0.37090 0.33050 0.04200
H 	H 	0.00890 0.32050 0.35720 0.04200
H 	H 	0.24390 0.40110 0.36250 0.02800
N 	N 	0.92260 0.67250 0.23850 -0.20000
N 	N 	0.69070 0.81450 0.32117 -0.18200
H 	H 	0.74370 0.79240 0.33570 0.08900
C 	C 	0.87250 0.71880 0.22190 0.10200
H 	H 	0.91040 0.72740 0.19830 -0.02400
C 	C 	0.76710 0.75400 0.23860 -0.21400
H 	H 	0.73520 0.78520 0.22610 0.08700
C 	C 	0.71060 0.74260 0.27340 0.15200
C 	C 	0.75830 0.69560 0.28990 -0.21900
H 	H 	0.72110 0.68620 0.31350 0.09400
C 	C 	0.86080 0.66230 0.27180 0.11600
H 	H 	0.88930 0.63030 0.28370 -0.02900
C 	C 	0.60150 0.78040 0.29410 -0.19400
H 	H 	0.52400 0.75940 0.30740 0.08200
H 	H 	0.54830 0.80360 0.27630 0.08200
C 	C 	0.58150 0.84510 0.34530 -0.06800
H 	H 	0.52290 0.87090 0.33050 0.04200
H 	H 	0.50890 0.82050 0.35720 0.04200
H 	H 	0.74390 0.90110 0.36250 0.02800
N 	N 	0.92260 0.17250 0.73850 -0.20000
N 	N 	0.69070 0.31450 0.82117 -0.18200
H 	H 	0.74370 0.29240 0.83570 0.08900
C 	C 	0.87250 0.21880 0.72190 0.10200
H 	H 	0.91040 0.22740 0.69830 -0.02400
C 	C 	0.76710 0.25400 0.73860 -0.21400
H 	H 	0.73520 0.28520 0.72610 0.08700
C 	C 	0.71060 0.24260 0.77340 0.15200
C 	C 	0.75830 0.19560 0.78990 -0.21900
H 	H 	0.72110 0.18620 0.81350 0.09400
C 	C 	0.86080 0.16230 0.77180 0.11600
H 	H 	0.88930 0.13030 0.78370 -0.02900
C 	C 	0.60150 0.28040 0.79410 -0.19400
H 	H 	0.52400 0.25940 0.80740 0.08200
H 	H 	0.54830 0.30360 0.77630 0.08200
C 	C 	0.58150 0.34510 0.84530 -0.06800
H 	H 	0.52290 0.37090 0.83050 0.04200
H 	H 	0.50890 0.32050 0.85720 0.04200
H 	H 	0.74390 0.40110 0.86250 0.02800
N 	N 	0.82740 0.57750 0.73850 -0.20000
N 	N 	0.05930 0.43550 0.82117 -0.18200
H 	H 	0.00630 0.45760 0.83570 0.08900
C 	C 	0.87750 0.53120 0.72190 0.10100
H 	H 	0.83960 0.52260 0.69830 -0.02300
C 	C 	0.98290 0.49600 0.73860 -0.21300
H 	H 	0.01480 0.46480 0.72610 0.08700
C 	C 	0.03940 0.50740 0.77340 0.15100
C 	C 	0.99170 0.55440 0.78990 -0.21800
H 	H 	0.02890 0.56380 0.81350 0.09300
C 	C 	0.88920 0.58770 0.77180 0.11600
H 	H 	0.86070 0.61970 0.78370 -0.02900
C 	C 	0.14850 0.46960 0.79410 -0.19400
H 	H 	0.22600 0.49060 0.80740 0.08200
H 	H 	0.20170 0.44640 0.77630 0.08200
C 	C 	0.16850 0.40490 0.84530 -0.06800
H 	H 	0.22710 0.37910 0.83050 0.04200
H 	H 	0.24110 0.42950 0.85720 0.04200
H 	H 	0.00610 0.34890 0.86250 0.02800
N 	N 	0.82740 0.07750 0.23850 -0.20000
N 	N 	0.05930 0.93550 0.32117 -0.18200
H 	H 	0.00630 0.95760 0.33570 0.08900
C 	C 	0.87750 0.03120 0.22190 0.10200
H 	H 	0.83960 0.02260 0.19830 -0.02300
C 	C 	0.98290 0.99600 0.23860 -0.21300
H 	H 	0.01480 0.96480 0.22610 0.08700
C 	C 	0.03940 0.00740 0.27340 0.15000
C 	C 	0.99170 0.05440 0.28990 -0.21600
H 	H 	0.02890 0.06380 0.31350 0.09200
C 	C 	0.88920 0.08770 0.27180 0.11500
H 	H 	0.86070 0.11970 0.28370 -0.02800
C 	C 	0.14850 0.96960 0.29410 -0.19300
H 	H 	0.22600 0.99060 0.30740 0.08200
H 	H 	0.20170 0.94640 0.27630 0.08200
C 	C 	0.16850 0.90490 0.34530 -0.06800
H 	H 	0.22710 0.87910 0.33050 0.04200
H 	H 	0.24110 0.92950 0.35720 0.04200
H 	H 	0.00610 0.84890 0.36250 0.02800
N 	N 	0.32740 0.57750 0.23850 -0.20000
N 	N 	0.55930 0.43550 0.32117 -0.18200
H 	H 	0.50630 0.45760 0.33570 0.08900
C 	C 	0.37750 0.53120 0.22190 0.10200
H 	H 	0.33960 0.52260 0.19830 -0.02400
C 	C 	0.48290 0.49600 0.23860 -0.21400
H 	H 	0.51480 0.46480 0.22610 0.08700
C 	C 	0.53940 0.50740 0.27340 0.15200
C 	C 	0.49170 0.55440 0.28990 -0.21900
H 	H 	0.52890 0.56380 0.31350 0.09400
C 	C 	0.38920 0.58770 0.27180 0.11600
H 	H 	0.36070 0.61970 0.28370 -0.02900
C 	C 	0.64850 0.46960 0.29410 -0.19400
H 	H 	0.72600 0.49060 0.30740 0.08200
H 	H 	0.70170 0.44640 0.27630 0.08200
C 	C 	0.66850 0.40490 0.34530 -0.06800
H 	H 	0.72710 0.37910 0.33050 0.04200
H 	H 	0.74110 0.42950 0.35720 0.04200
H 	H 	0.50610 0.34890 0.36250 0.02800
N 	N 	0.32740 0.07750 0.73850 -0.20000
N 	N 	0.55930 0.93550 0.82117 -0.18200
H 	H 	0.50630 0.95760 0.83570 0.08900
C 	C 	0.37750 0.03120 0.72190 0.10200
H 	H 	0.33960 0.02260 0.69830 -0.02400
C 	C 	0.48290 0.99600 0.73860 -0.21400
H 	H 	0.51480 0.96480 0.72610 0.08700
C 	C 	0.53940 0.00740 0.77340 0.15200
C 	C 	0.49170 0.05440 0.78990 -0.21900
H 	H 	0.52890 0.06380 0.81350 0.09400
C 	C 	0.38920 0.08770 0.77180 0.11600
H 	H 	0.36070 0.11970 0.78370 -0.02900
C 	C 	0.64850 0.96960 0.79410 -0.19400
H 	H 	0.72600 0.99060 0.80740 0.08200
H 	H 	0.70170 0.94640 0.77630 0.08200
C 	C 	0.66850 0.90490 0.84530 -0.06800
H 	H 	0.72710 0.87910 0.83050 0.04200
H 	H 	0.74110 0.92950 0.85720 0.04200
H 	H 	0.50610 0.84890 0.86250 0.02800
N 	N 	0.82740 0.67250 0.51150 -0.20000
N 	N 	0.05930 0.81450 0.42883 -0.18200
H 	H 	0.00630 0.79240 0.41430 0.08900
C 	C 	0.87750 0.71880 0.52810 0.10200
H 	H 	0.83960 0.72740 0.55170 -0.02400
C 	C 	0.98290 0.75400 0.51140 -0.21400
H 	H 	0.01480 0.78520 0.52390 0.08700
C 	C 	0.03940 0.74260 0.47660 0.15200
C 	C 	0.99170 0.69560 0.46010 -0.21900
H 	H 	0.02890 0.68620 0.43650 0.09400
C 	C 	0.88920 0.66230 0.47820 0.11600
H 	H 	0.86070 0.63030 0.46630 -0.02900
C 	C 	0.14850 0.78040 0.45590 -0.19400
H 	H 	0.22600 0.75940 0.44260 0.08200
H 	H 	0.20170 0.80360 0.47370 0.08200
C 	C 	0.16850 0.84510 0.40470 -0.06800
H 	H 	0.22710 0.87090 0.41950 0.04200
H 	H 	0.24110 0.82050 0.39280 0.04200
H 	H 	0.00610 0.90110 0.38750 0.02800
N 	N 	0.82740 0.17250 0.01150 -0.19900
N 	N 	0.05930 0.31450 0.92883 -0.18200
H 	H 	0.00630 0.29240 0.91430 0.08900
C 	C 	0.87750 0.21880 0.02810 0.10100
H 	H 	0.83960 0.22740 0.05170 -0.02300
C 	C 	0.98290 0.25400 0.01140 -0.21100
H 	H 	0.01480 0.28520 0.02390 0.08600
C 	C 	0.03940 0.24260 0.97660 0.14900
C 	C 	0.99170 0.19560 0.96010 -0.21600
H 	H 	0.02890 0.18620 0.93650 0.09300
C 	C 	0.88920 0.16230 0.97820 0.11500
H 	H 	0.86070 0.13030 0.96630 -0.02800
C 	C 	0.14850 0.28040 0.95590 -0.19300
H 	H 	0.22600 0.25940 0.94260 0.08200
H 	H 	0.20170 0.30360 0.97370 0.08200
C 	C 	0.16850 0.34510 0.90470 -0.06800
H 	H 	0.22710 0.37090 0.91950 0.04200
H 	H 	0.24110 0.32050 0.89280 0.04200
H 	H 	0.00610 0.40110 0.88750 0.02800
N 	N 	0.32740 0.67250 0.01150 -0.20000
N 	N 	0.55930 0.81450 0.92883 -0.18200
H 	H 	0.50630 0.79240 0.91430 0.08900
C 	C 	0.37750 0.71880 0.02810 0.10200
H 	H 	0.33960 0.72740 0.05170 -0.02400
C 	C 	0.48290 0.75400 0.01140 -0.21400
H 	H 	0.51480 0.78520 0.02390 0.08700
C 	C 	0.53940 0.74260 0.97660 0.15200
C 	C 	0.49170 0.69560 0.96010 -0.21900
H 	H 	0.52890 0.68620 0.93650 0.09400
C 	C 	0.38920 0.66230 0.97820 0.11600
H 	H 	0.36070 0.63030 0.96630 -0.02900
C 	C 	0.64850 0.78040 0.95590 -0.19400
H 	H 	0.72600 0.75940 0.94260 0.08200
H 	H 	0.70170 0.80360 0.97370 0.08200
C 	C 	0.66850 0.84510 0.90470 -0.06800
H 	H 	0.72710 0.87090 0.91950 0.04200
H 	H 	0.74110 0.82050 0.89280 0.04200
H 	H 	0.50610 0.90110 0.88750 0.02800
N 	N 	0.32740 0.17250 0.51150 -0.20000
N 	N 	0.55930 0.31450 0.42883 -0.18200
H 	H 	0.50630 0.29240 0.41430 0.08900
C 	C 	0.37750 0.21880 0.52810 0.10200
H 	H 	0.33960 0.22740 0.55170 -0.02400
C 	C 	0.48290 0.25400 0.51140 -0.21400
H 	H 	0.51480 0.28520 0.52390 0.08700
C 	C 	0.53940 0.24260 0.47660 0.15200
C 	C 	0.49170 0.19560 0.46010 -0.21900
H 	H 	0.52890 0.18620 0.43650 0.09400
C 	C 	0.38920 0.16230 0.47820 0.11600
H 	H 	0.36070 0.13030 0.46630 -0.02900
C 	C 	0.64850 0.28040 0.45590 -0.19400
H 	H 	0.72600 0.25940 0.44260 0.08200
H 	H 	0.70170 0.30360 0.47370 0.08200
C 	C 	0.66850 0.34510 0.40470 -0.06800
H 	H 	0.72710 0.37090 0.41950 0.04200
H 	H 	0.74110 0.32050 0.39280 0.04200
H 	H 	0.50610 0.40110 0.38750 0.02800
N 	N 	0.42260 0.57750 0.51150 -0.20000
N 	N 	0.19070 0.43550 0.42883 -0.18200
H 	H 	0.24370 0.45760 0.41430 0.08900
C 	C 	0.37250 0.53120 0.52810 0.10200
H 	H 	0.41040 0.52260 0.55170 -0.02400
C 	C 	0.26710 0.49600 0.51140 -0.21400
H 	H 	0.23520 0.46480 0.52390 0.08700
C 	C 	0.21060 0.50740 0.47660 0.15200
C 	C 	0.25830 0.55440 0.46010 -0.21900
H 	H 	0.22110 0.56380 0.43650 0.09400
C 	C 	0.36080 0.58770 0.47820 0.11600
H 	H 	0.38930 0.61970 0.46630 -0.02900
C 	C 	0.10150 0.46960 0.45590 -0.19400
H 	H 	0.02400 0.49060 0.44260 0.08200
H 	H 	0.04830 0.44640 0.47370 0.08200
C 	C 	0.08150 0.40490 0.40470 -0.06800
H 	H 	0.02290 0.37910 0.41950 0.04200
H 	H 	0.00890 0.42950 0.39280 0.04200
H 	H 	0.24390 0.34890 0.38750 0.02800
N 	N 	0.42260 0.07750 0.01150 -0.20000
N 	N 	0.19070 0.93550 0.92883 -0.18200
H 	H 	0.24370 0.95760 0.91430 0.08900
C 	C 	0.37250 0.03120 0.02810 0.10100
H 	H 	0.41040 0.02260 0.05170 -0.02300
C 	C 	0.26710 0.99600 0.01140 -0.21300
H 	H 	0.23520 0.96480 0.02390 0.08700
C 	C 	0.21060 0.00740 0.97660 0.15100
C 	C 	0.25830 0.05440 0.96010 -0.21800
H 	H 	0.22110 0.06380 0.93650 0.09300
C 	C 	0.36080 0.08770 0.97820 0.11600
H 	H 	0.38930 0.11970 0.96630 -0.02900
C 	C 	0.10150 0.96960 0.95590 -0.19400
H 	H 	0.02400 0.99060 0.94260 0.08200
H 	H 	0.04830 0.94640 0.97370 0.08200
C 	C 	0.08150 0.90490 0.90470 -0.06900
H 	H 	0.02290 0.87910 0.91950 0.04200
H 	H 	0.00890 0.92950 0.89280 0.04200
H 	H 	0.24390 0.84890 0.88750 0.02800
N 	N 	0.92260 0.57750 0.01150 -0.20000
N 	N 	0.69070 0.43550 0.92883 -0.18200
H 	H 	0.74370 0.45760 0.91430 0.08900
C 	C 	0.87250 0.53120 0.02810 0.10200
H 	H 	0.91040 0.52260 0.05170 -0.02400
C 	C 	0.76710 0.49600 0.01140 -0.21400
H 	H 	0.73520 0.46480 0.02390 0.08700
C 	C 	0.71060 0.50740 0.97660 0.15200
C 	C 	0.75830 0.55440 0.96010 -0.21900
H 	H 	0.72110 0.56380 0.93650 0.09400
C 	C 	0.86080 0.58770 0.97820 0.11600
H 	H 	0.88930 0.61970 0.96630 -0.02900
C 	C 	0.60150 0.46960 0.95590 -0.19400
H 	H 	0.52400 0.49060 0.94260 0.08200
H 	H 	0.54830 0.44640 0.97370 0.08200
C 	C 	0.58150 0.40490 0.90470 -0.06800
H 	H 	0.52290 0.37910 0.91950 0.04200
H 	H 	0.50890 0.42950 0.89280 0.04200
H 	H 	0.74390 0.34890 0.88750 0.02800
N 	N 	0.92260 0.07750 0.51150 -0.20000
N 	N 	0.69070 0.93550 0.42883 -0.18200
H 	H 	0.74370 0.95760 0.41430 0.08900
C 	C 	0.87250 0.03120 0.52810 0.10300
H 	H 	0.91040 0.02260 0.55170 -0.02400
C 	C 	0.76710 0.99600 0.51140 -0.21500
H 	H 	0.73520 0.96480 0.52390 0.08800
C 	C 	0.71060 0.00740 0.47660 0.15300
C 	C 	0.75830 0.05440 0.46010 -0.21900
H 	H 	0.72110 0.06380 0.43650 0.09400
C 	C 	0.86080 0.08770 0.47820 0.11700
H 	H 	0.88930 0.11970 0.46630 -0.02900
C 	C 	0.60150 0.96960 0.45590 -0.19500
H 	H 	0.52400 0.99060 0.44260 0.08200
H 	H 	0.54830 0.94640 0.47370 0.08200
C 	C 	0.58150 0.90490 0.40470 -0.06800
H 	H 	0.52290 0.87910 0.41950 0.04200
H 	H 	0.50890 0.92950 0.39280 0.04200
H 	H 	0.74390 0.84890 0.38750 0.02800
Ag	Ag	0.37500 0.37500 0.29155 0.53100
Ag	Ag	0.37500 0.87500 0.79155 0.53100
Ag	Ag	0.87500 0.37500 0.79155 0.53200
Ag	Ag	0.87500 0.87500 0.29155 0.53100
Ag	Ag	0.37500 0.37500 0.45845 0.53100
Ag	Ag	0.37500 0.87500 0.95845 0.53100
Ag	Ag	0.87500 0.37500 0.95845 0.53200
Ag	Ag	0.87500 0.87500 0.45845 0.53100
Ag	Ag	0.62500 0.62500 0.70845 0.53100
Ag	Ag	0.62500 0.12500 0.20845 0.53100
Ag	Ag	0.12500 0.62500 0.20845 0.53200
Ag	Ag	0.12500 0.12500 0.70845 0.53100
Ag	Ag	0.62500 0.62500 0.54155 0.53100
Ag	Ag	0.62500 0.12500 0.04155 0.53100
Ag	Ag	0.12500 0.62500 0.04155 0.53200
Ag	Ag	0.12500 0.12500 0.54155 0.53100
C 	C 	0.82270 0.12500 0.12500 -0.10500
C 	C 	0.82270 0.62500 0.62500 -0.10600
C 	C 	0.32270 0.12500 0.62500 -0.10600
C 	C 	0.92730 0.62500 0.12500 -0.10600
C 	C 	0.42730 0.62500 0.62500 -0.10600
C 	C 	0.92730 0.12500 0.62500 -0.10600
C 	C 	0.42730 0.12500 0.12500 -0.10600
C 	C 	0.32270 0.62500 0.12500 -0.10600
C 	C 	0.17730 0.87500 0.87500 -0.10500
C 	C 	0.17730 0.37500 0.37500 -0.10600
C 	C 	0.67730 0.87500 0.37500 -0.10600
C 	C 	0.07270 0.37500 0.87500 -0.10600
C 	C 	0.57270 0.37500 0.37500 -0.10600
C 	C 	0.07270 0.87500 0.37500 -0.10600
C 	C 	0.57270 0.87500 0.87500 -0.10600
C 	C 	0.67730 0.37500 0.87500 -0.10600
