data_crystal

_cell_length_a 38.64840
_cell_length_b 38.64840
_cell_length_c 38.64840
_cell_angle_alpha 90.00000
_cell_angle_beta  90.00000
_cell_angle_gamma 90.00000

_symmetry_space_group_name_	'P 1'
_symmetry_space_group_name_H-M	'P 1'

loop_
_symmetry_equiv_pos_as_xyz
  x,y,z

loop_
_atom_site_label
_atom_site_type_symbol
_atom_site_fract_x
_atom_site_fract_y
_atom_site_fract_z
_atom_site_charge
C 	C 	0.48266 0.24697 0.10889 -0.08300
H 	H 	0.46810 0.24570 0.12860 0.06600
C 	C 	0.47169 0.24923 0.07357 0.09200
C 	C 	0.39090 0.22023 0.09672 -0.21100
H 	H 	0.39540 0.19990 0.08370 0.10000
C 	C 	0.36523 0.22010 0.12241 0.15800
H 	H 	0.35230 0.19970 0.12690 0.00000
O 	O 	0.31463 0.22219 0.17251 -0.83600
O 	O 	0.24540 0.15140 0.19020 0.07500
O 	O 	0.25505 0.15905 0.21011 -0.94000
C 	C 	0.98266 0.74697 0.60889 -0.07600
H 	H 	0.96810 0.74570 0.62860 0.06500
C 	C 	0.97169 0.74923 0.57357 0.09300
C 	C 	0.89090 0.72023 0.59672 -0.21100
H 	H 	0.89540 0.69990 0.58370 0.10100
C 	C 	0.86523 0.72010 0.62241 0.15900
H 	H 	0.85230 0.69970 0.62690 0.00100
O 	O 	0.81463 0.72219 0.67251 -0.83600
O 	O 	0.74540 0.65140 0.69020 0.07500
O 	O 	0.75505 0.65905 0.71011 -0.94000
C 	C 	0.51734 0.75303 0.10889 -0.08300
H 	H 	0.53190 0.75430 0.12860 0.06600
C 	C 	0.52831 0.75077 0.07357 0.09200
C 	C 	0.60910 0.77977 0.09672 -0.21100
H 	H 	0.60460 0.80010 0.08370 0.10000
C 	C 	0.63477 0.77990 0.12241 0.15900
H 	H 	0.64770 0.80030 0.12690 0.00000
O 	O 	0.68537 0.77781 0.17251 -0.83600
O 	O 	0.75460 0.84860 0.19020 0.07600
O 	O 	0.74495 0.84095 0.21011 -0.94000
C 	C 	0.01734 0.25303 0.60889 -0.09000
H 	H 	0.03190 0.25430 0.62860 0.06700
C 	C 	0.02831 0.25077 0.57357 0.09200
C 	C 	0.10910 0.27977 0.59672 -0.21200
H 	H 	0.10460 0.30010 0.58370 0.09900
C 	C 	0.13477 0.27990 0.62241 0.15800
H 	H 	0.14770 0.30030 0.62690 -0.00100
O 	O 	0.18537 0.27781 0.67251 -0.83700
O 	O 	0.25460 0.34860 0.69020 0.07400
O 	O 	0.24495 0.34095 0.71011 -0.94100
C 	C 	0.51734 0.24697 0.89111 -0.08400
H 	H 	0.53190 0.24570 0.87140 0.06500
C 	C 	0.52831 0.24923 0.92643 0.09100
C 	C 	0.60910 0.22023 0.90328 -0.21200
H 	H 	0.60460 0.19990 0.91630 0.10000
C 	C 	0.63477 0.22010 0.87759 0.15800
H 	H 	0.64770 0.19970 0.87310 -0.00000
O 	O 	0.68537 0.22219 0.82749 -0.83700
O 	O 	0.75460 0.15140 0.80980 0.07400
O 	O 	0.74495 0.15905 0.78989 -0.94100
C 	C 	0.01734 0.74697 0.39111 -0.09100
H 	H 	0.03190 0.74570 0.37140 0.06700
C 	C 	0.02831 0.74923 0.42643 0.09300
C 	C 	0.10910 0.72023 0.40328 -0.21200
H 	H 	0.10460 0.69990 0.41630 0.09900
C 	C 	0.13477 0.72010 0.37759 0.15800
H 	H 	0.14770 0.69970 0.37310 -0.00100
O 	O 	0.18537 0.72219 0.32749 -0.83700
O 	O 	0.25460 0.65140 0.30980 0.07400
O 	O 	0.24495 0.65905 0.28989 -0.94100
C 	C 	0.48266 0.75303 0.89111 -0.08400
H 	H 	0.46810 0.75430 0.87140 0.06500
C 	C 	0.47169 0.75077 0.92643 0.09100
C 	C 	0.39090 0.77977 0.90328 -0.21200
H 	H 	0.39540 0.80010 0.91630 0.10000
C 	C 	0.36523 0.77990 0.87759 0.15800
H 	H 	0.35230 0.80030 0.87310 -0.00000
O 	O 	0.31463 0.77781 0.82749 -0.83700
O 	O 	0.24540 0.84860 0.80980 0.07500
O 	O 	0.25505 0.84095 0.78989 -0.94100
C 	C 	0.98266 0.25303 0.39111 -0.07700
H 	H 	0.96810 0.25430 0.37140 0.06400
C 	C 	0.97169 0.25077 0.42643 0.09200
C 	C 	0.89090 0.27977 0.40328 -0.21200
H 	H 	0.89540 0.30010 0.41630 0.10000
C 	C 	0.86523 0.27990 0.37759 0.15800
H 	H 	0.85230 0.30030 0.37310 -0.00000
O 	O 	0.81463 0.27781 0.32749 -0.83700
O 	O 	0.74540 0.34860 0.30980 0.07400
O 	O 	0.75505 0.34095 0.28989 -0.94100
C 	C 	0.10889 0.48266 0.24697 -0.08400
H 	H 	0.12860 0.46810 0.24570 0.06500
C 	C 	0.07357 0.47169 0.24923 0.09100
C 	C 	0.09672 0.39090 0.22023 -0.21200
H 	H 	0.08370 0.39540 0.19990 0.09900
C 	C 	0.12241 0.36523 0.22010 0.15700
H 	H 	0.12690 0.35230 0.19970 -0.00100
O 	O 	0.17251 0.31463 0.22219 -0.83700
O 	O 	0.19020 0.24540 0.15140 0.07400
O 	O 	0.21011 0.25505 0.15905 -0.94100
C 	C 	0.60889 0.98266 0.74697 -0.07700
H 	H 	0.62860 0.96810 0.74570 0.06400
C 	C 	0.57357 0.97169 0.74923 0.09200
C 	C 	0.59672 0.89090 0.72023 -0.21200
H 	H 	0.58370 0.89540 0.69990 0.10000
C 	C 	0.62241 0.86523 0.72010 0.15800
H 	H 	0.62690 0.85230 0.69970 -0.00000
O 	O 	0.67251 0.81463 0.72219 -0.83700
O 	O 	0.69020 0.74540 0.65140 0.07400
O 	O 	0.71011 0.75505 0.65905 -0.94100
C 	C 	0.10889 0.51734 0.75303 -0.08400
H 	H 	0.12860 0.53190 0.75430 0.06500
C 	C 	0.07357 0.52831 0.75077 0.09100
C 	C 	0.09672 0.60910 0.77977 -0.21200
H 	H 	0.08370 0.60460 0.80010 0.09900
C 	C 	0.12241 0.63477 0.77990 0.15800
H 	H 	0.12690 0.64770 0.80030 -0.00100
O 	O 	0.17251 0.68537 0.77781 -0.83700
O 	O 	0.19020 0.75460 0.84860 0.07500
O 	O 	0.21011 0.74495 0.84095 -0.94100
C 	C 	0.60889 0.01734 0.25303 -0.09100
H 	H 	0.62860 0.03190 0.25430 0.06700
C 	C 	0.57357 0.02831 0.25077 0.09200
C 	C 	0.59672 0.10910 0.27977 -0.21200
H 	H 	0.58370 0.10460 0.30010 0.09900
C 	C 	0.62241 0.13477 0.27990 0.15800
H 	H 	0.62690 0.14770 0.30030 -0.00100
O 	O 	0.67251 0.18537 0.27781 -0.83700
O 	O 	0.69020 0.25460 0.34860 0.07400
O 	O 	0.71011 0.24495 0.34095 -0.94100
C 	C 	0.89111 0.51734 0.24697 -0.08400
H 	H 	0.87140 0.53190 0.24570 0.06500
C 	C 	0.92643 0.52831 0.24923 0.09100
C 	C 	0.90328 0.60910 0.22023 -0.21200
H 	H 	0.91630 0.60460 0.19990 0.10000
C 	C 	0.87759 0.63477 0.22010 0.15800
H 	H 	0.87310 0.64770 0.19970 -0.00000
O 	O 	0.82749 0.68537 0.22219 -0.83700
O 	O 	0.80980 0.75460 0.15140 0.07400
O 	O 	0.78989 0.74495 0.15905 -0.94100
C 	C 	0.39111 0.01734 0.74697 -0.09100
H 	H 	0.37140 0.03190 0.74570 0.06700
C 	C 	0.42643 0.02831 0.74923 0.09300
C 	C 	0.40328 0.10910 0.72023 -0.21200
H 	H 	0.41630 0.10460 0.69990 0.09900
C 	C 	0.37759 0.13477 0.72010 0.15800
H 	H 	0.37310 0.14770 0.69970 -0.00100
O 	O 	0.32749 0.18537 0.72219 -0.83700
O 	O 	0.30980 0.25460 0.65140 0.07400
O 	O 	0.28989 0.24495 0.65905 -0.94100
C 	C 	0.89111 0.48266 0.75303 -0.08400
H 	H 	0.87140 0.46810 0.75430 0.06500
C 	C 	0.92643 0.47169 0.75077 0.09100
C 	C 	0.90328 0.39090 0.77977 -0.21200
H 	H 	0.91630 0.39540 0.80010 0.10000
C 	C 	0.87759 0.36523 0.77990 0.15800
H 	H 	0.87310 0.35230 0.80030 -0.00000
O 	O 	0.82749 0.31463 0.77781 -0.83700
O 	O 	0.80980 0.24540 0.84860 0.07500
O 	O 	0.78989 0.25505 0.84095 -0.94100
C 	C 	0.39111 0.98266 0.25303 -0.07700
H 	H 	0.37140 0.96810 0.25430 0.06400
C 	C 	0.42643 0.97169 0.25077 0.09200
C 	C 	0.40328 0.89090 0.27977 -0.21200
H 	H 	0.41630 0.89540 0.30010 0.10000
C 	C 	0.37759 0.86523 0.27990 0.15800
H 	H 	0.37310 0.85230 0.30030 -0.00000
O 	O 	0.32749 0.81463 0.27781 -0.83700
O 	O 	0.30980 0.74540 0.34860 0.07400
O 	O 	0.28989 0.75505 0.34095 -0.94100
C 	C 	0.24697 0.10889 0.48266 -0.08400
H 	H 	0.24570 0.12860 0.46810 0.06500
C 	C 	0.24923 0.07357 0.47169 0.09100
C 	C 	0.22023 0.09672 0.39090 -0.21200
H 	H 	0.19990 0.08370 0.39540 0.09900
C 	C 	0.22010 0.12241 0.36523 0.15700
H 	H 	0.19970 0.12690 0.35230 -0.00100
O 	O 	0.22219 0.17251 0.31463 -0.83700
O 	O 	0.15140 0.19020 0.24540 0.07400
O 	O 	0.15905 0.21011 0.25505 -0.94100
C 	C 	0.74697 0.60889 0.98266 -0.07700
H 	H 	0.74570 0.62860 0.96810 0.06400
C 	C 	0.74923 0.57357 0.97169 0.09200
C 	C 	0.72023 0.59672 0.89090 -0.21200
H 	H 	0.69990 0.58370 0.89540 0.10000
C 	C 	0.72010 0.62241 0.86523 0.15800
H 	H 	0.69970 0.62690 0.85230 -0.00000
O 	O 	0.72219 0.67251 0.81463 -0.83700
O 	O 	0.65140 0.69020 0.74540 0.07400
O 	O 	0.65905 0.71011 0.75505 -0.94100
C 	C 	0.75303 0.10889 0.51734 -0.08400
H 	H 	0.75430 0.12860 0.53190 0.06500
C 	C 	0.75077 0.07357 0.52831 0.09100
C 	C 	0.77977 0.09672 0.60910 -0.21200
H 	H 	0.80010 0.08370 0.60460 0.09900
C 	C 	0.77990 0.12241 0.63477 0.15800
H 	H 	0.80030 0.12690 0.64770 -0.00100
O 	O 	0.77781 0.17251 0.68537 -0.83700
O 	O 	0.84860 0.19020 0.75460 0.07500
O 	O 	0.84095 0.21011 0.74495 -0.94100
C 	C 	0.25303 0.60889 0.01734 -0.09100
H 	H 	0.25430 0.62860 0.03190 0.06700
C 	C 	0.25077 0.57357 0.02831 0.09200
C 	C 	0.27977 0.59672 0.10910 -0.21200
H 	H 	0.30010 0.58370 0.10460 0.09900
C 	C 	0.27990 0.62241 0.13477 0.15800
H 	H 	0.30030 0.62690 0.14770 -0.00100
O 	O 	0.27781 0.67251 0.18537 -0.83700
O 	O 	0.34860 0.69020 0.25460 0.07400
O 	O 	0.34095 0.71011 0.24495 -0.94100
C 	C 	0.24697 0.89111 0.51734 -0.08400
H 	H 	0.24570 0.87140 0.53190 0.06500
C 	C 	0.24923 0.92643 0.52831 0.09100
C 	C 	0.22023 0.90328 0.60910 -0.21200
H 	H 	0.19990 0.91630 0.60460 0.10000
C 	C 	0.22010 0.87759 0.63477 0.15800
H 	H 	0.19970 0.87310 0.64770 -0.00000
O 	O 	0.22219 0.82749 0.68537 -0.83700
O 	O 	0.15140 0.80980 0.75460 0.07400
O 	O 	0.15905 0.78989 0.74495 -0.94100
C 	C 	0.74697 0.39111 0.01734 -0.09100
H 	H 	0.74570 0.37140 0.03190 0.06700
C 	C 	0.74923 0.42643 0.02831 0.09300
C 	C 	0.72023 0.40328 0.10910 -0.21200
H 	H 	0.69990 0.41630 0.10460 0.09900
C 	C 	0.72010 0.37759 0.13477 0.15800
H 	H 	0.69970 0.37310 0.14770 -0.00100
O 	O 	0.72219 0.32749 0.18537 -0.83700
O 	O 	0.65140 0.30980 0.25460 0.07400
O 	O 	0.65905 0.28989 0.24495 -0.94100
C 	C 	0.75303 0.89111 0.48266 -0.08400
H 	H 	0.75430 0.87140 0.46810 0.06500
C 	C 	0.75077 0.92643 0.47169 0.09100
C 	C 	0.77977 0.90328 0.39090 -0.21200
H 	H 	0.80010 0.91630 0.39540 0.10000
C 	C 	0.77990 0.87759 0.36523 0.15800
H 	H 	0.80030 0.87310 0.35230 -0.00000
O 	O 	0.77781 0.82749 0.31463 -0.83700
O 	O 	0.84860 0.80980 0.24540 0.07500
O 	O 	0.84095 0.78989 0.25505 -0.94100
C 	C 	0.25303 0.39111 0.98266 -0.07700
H 	H 	0.25430 0.37140 0.96810 0.06400
C 	C 	0.25077 0.42643 0.97169 0.09200
C 	C 	0.27977 0.40328 0.89090 -0.21200
H 	H 	0.30010 0.41630 0.89540 0.10000
C 	C 	0.27990 0.37759 0.86523 0.15800
H 	H 	0.30030 0.37310 0.85230 -0.00000
O 	O 	0.27781 0.32749 0.81463 -0.83700
O 	O 	0.34860 0.30980 0.74540 0.07400
O 	O 	0.34095 0.28989 0.75505 -0.94100
C 	C 	0.24697 0.48266 0.89111 -0.08400
H 	H 	0.24570 0.46810 0.87140 0.06500
C 	C 	0.24923 0.47169 0.92643 0.09100
C 	C 	0.22023 0.39090 0.90328 -0.21200
H 	H 	0.19990 0.39540 0.91630 0.10000
C 	C 	0.22010 0.36523 0.87759 0.15800
H 	H 	0.19970 0.35230 0.87310 -0.00000
O 	O 	0.22219 0.31463 0.82749 -0.83700
O 	O 	0.15140 0.24540 0.80980 0.07400
O 	O 	0.15905 0.25505 0.78989 -0.94100
C 	C 	0.74697 0.98266 0.39111 -0.07700
H 	H 	0.74570 0.96810 0.37140 0.06400
C 	C 	0.74923 0.97169 0.42643 0.09200
C 	C 	0.72023 0.89090 0.40328 -0.21200
H 	H 	0.69990 0.89540 0.41630 0.10000
C 	C 	0.72010 0.86523 0.37759 0.15800
H 	H 	0.69970 0.85230 0.37310 -0.00000
O 	O 	0.72219 0.81463 0.32749 -0.83700
O 	O 	0.65140 0.74540 0.30980 0.07400
O 	O 	0.65905 0.75505 0.28989 -0.94100
C 	C 	0.75303 0.51734 0.89111 -0.08400
H 	H 	0.75430 0.53190 0.87140 0.06500
C 	C 	0.75077 0.52831 0.92643 0.09100
C 	C 	0.77977 0.60910 0.90328 -0.21200
H 	H 	0.80010 0.60460 0.91630 0.10000
C 	C 	0.77990 0.63477 0.87759 0.15800
H 	H 	0.80030 0.64770 0.87310 -0.00000
O 	O 	0.77781 0.68537 0.82749 -0.83700
O 	O 	0.84860 0.75460 0.80980 0.07500
O 	O 	0.84095 0.74495 0.78989 -0.94100
C 	C 	0.25303 0.01734 0.39111 -0.09100
H 	H 	0.25430 0.03190 0.37140 0.06700
C 	C 	0.25077 0.02831 0.42643 0.09200
C 	C 	0.27977 0.10910 0.40328 -0.21200
H 	H 	0.30010 0.10460 0.41630 0.09900
C 	C 	0.27990 0.13477 0.37759 0.15800
H 	H 	0.30030 0.14770 0.37310 -0.00100
O 	O 	0.27781 0.18537 0.32749 -0.83700
O 	O 	0.34860 0.25460 0.30980 0.07400
O 	O 	0.34095 0.24495 0.28989 -0.94100
C 	C 	0.24697 0.51734 0.10889 -0.08400
H 	H 	0.24570 0.53190 0.12860 0.06500
C 	C 	0.24923 0.52831 0.07357 0.09100
C 	C 	0.22023 0.60910 0.09672 -0.21200
H 	H 	0.19990 0.60460 0.08370 0.09900
C 	C 	0.22010 0.63477 0.12241 0.15700
H 	H 	0.19970 0.64770 0.12690 -0.00100
O 	O 	0.22219 0.68537 0.17251 -0.83700
O 	O 	0.15140 0.75460 0.19020 0.07400
O 	O 	0.15905 0.74495 0.21011 -0.94100
C 	C 	0.74697 0.01734 0.60889 -0.09100
H 	H 	0.74570 0.03190 0.62860 0.06700
C 	C 	0.74923 0.02831 0.57357 0.09300
C 	C 	0.72023 0.10910 0.59672 -0.21200
H 	H 	0.69990 0.10460 0.58370 0.09900
C 	C 	0.72010 0.13477 0.62241 0.15800
H 	H 	0.69970 0.14770 0.62690 -0.00100
O 	O 	0.72219 0.18537 0.67251 -0.83700
O 	O 	0.65140 0.25460 0.69020 0.07400
O 	O 	0.65905 0.24495 0.71011 -0.94100
C 	C 	0.75303 0.48266 0.10889 -0.08400
H 	H 	0.75430 0.46810 0.12860 0.06500
C 	C 	0.75077 0.47169 0.07357 0.09100
C 	C 	0.77977 0.39090 0.09672 -0.21200
H 	H 	0.80010 0.39540 0.08370 0.09900
C 	C 	0.77990 0.36523 0.12241 0.15800
H 	H 	0.80030 0.35230 0.12690 -0.00100
O 	O 	0.77781 0.31463 0.17251 -0.83700
O 	O 	0.84860 0.24540 0.19020 0.07400
O 	O 	0.84095 0.25505 0.21011 -0.94100
C 	C 	0.25303 0.98266 0.60889 -0.07700
H 	H 	0.25430 0.96810 0.62860 0.06400
C 	C 	0.25077 0.97169 0.57357 0.09200
C 	C 	0.27977 0.89090 0.59672 -0.21200
H 	H 	0.30010 0.89540 0.58370 0.10000
C 	C 	0.27990 0.86523 0.62241 0.15800
H 	H 	0.30030 0.85230 0.62690 -0.00000
O 	O 	0.27781 0.81463 0.67251 -0.83700
O 	O 	0.34860 0.74540 0.69020 0.07400
O 	O 	0.34095 0.75505 0.71011 -0.94100
C 	C 	0.48266 0.10889 0.75303 -0.08400
H 	H 	0.46810 0.12860 0.75430 0.06500
C 	C 	0.47169 0.07357 0.75077 0.09100
C 	C 	0.39090 0.09672 0.77977 -0.21200
H 	H 	0.39540 0.08370 0.80010 0.09900
C 	C 	0.36523 0.12241 0.77990 0.15800
H 	H 	0.35230 0.12690 0.80030 -0.00100
O 	O 	0.31463 0.17251 0.77781 -0.83700
O 	O 	0.24540 0.19020 0.84860 0.07400
O 	O 	0.25505 0.21011 0.84095 -0.94100
C 	C 	0.98266 0.60889 0.25303 -0.07700
H 	H 	0.96810 0.62860 0.25430 0.06400
C 	C 	0.97169 0.57357 0.25077 0.09200
C 	C 	0.89090 0.59672 0.27977 -0.21200
H 	H 	0.89540 0.58370 0.30010 0.10000
C 	C 	0.86523 0.62241 0.27990 0.15800
H 	H 	0.85230 0.62690 0.30030 -0.00000
O 	O 	0.81463 0.67251 0.27781 -0.83700
O 	O 	0.74540 0.69020 0.34860 0.07400
O 	O 	0.75505 0.71011 0.34095 -0.94100
C 	C 	0.51734 0.10889 0.24697 -0.08400
H 	H 	0.53190 0.12860 0.24570 0.06500
C 	C 	0.52831 0.07357 0.24923 0.09100
C 	C 	0.60910 0.09672 0.22023 -0.21200
H 	H 	0.60460 0.08370 0.19990 0.09900
C 	C 	0.63477 0.12241 0.22010 0.15700
H 	H 	0.64770 0.12690 0.19970 -0.00100
O 	O 	0.68537 0.17251 0.22219 -0.83700
O 	O 	0.75460 0.19020 0.15140 0.07400
O 	O 	0.74495 0.21011 0.15905 -0.94100
C 	C 	0.01734 0.60889 0.74697 -0.09100
H 	H 	0.03190 0.62860 0.74570 0.06700
C 	C 	0.02831 0.57357 0.74923 0.09300
C 	C 	0.10910 0.59672 0.72023 -0.21200
H 	H 	0.10460 0.58370 0.69990 0.09900
C 	C 	0.13477 0.62241 0.72010 0.15800
H 	H 	0.14770 0.62690 0.69970 -0.00100
O 	O 	0.18537 0.67251 0.72219 -0.83700
O 	O 	0.25460 0.69020 0.65140 0.07400
O 	O 	0.24495 0.71011 0.65905 -0.94100
C 	C 	0.51734 0.89111 0.75303 -0.08400
H 	H 	0.53190 0.87140 0.75430 0.06500
C 	C 	0.52831 0.92643 0.75077 0.09100
C 	C 	0.60910 0.90328 0.77977 -0.21200
H 	H 	0.60460 0.91630 0.80010 0.10000
C 	C 	0.63477 0.87759 0.77990 0.15800
H 	H 	0.64770 0.87310 0.80030 -0.00000
O 	O 	0.68537 0.82749 0.77781 -0.83700
O 	O 	0.75460 0.80980 0.84860 0.07500
O 	O 	0.74495 0.78989 0.84095 -0.94100
C 	C 	0.01734 0.39111 0.25303 -0.09100
H 	H 	0.03190 0.37140 0.25430 0.06700
C 	C 	0.02831 0.42643 0.25077 0.09200
C 	C 	0.10910 0.40328 0.27977 -0.21200
H 	H 	0.10460 0.41630 0.30010 0.09900
C 	C 	0.13477 0.37759 0.27990 0.15800
H 	H 	0.14770 0.37310 0.30030 -0.00100
O 	O 	0.18537 0.32749 0.27781 -0.83700
O 	O 	0.25460 0.30980 0.34860 0.07400
O 	O 	0.24495 0.28989 0.34095 -0.94100
C 	C 	0.48266 0.89111 0.24697 -0.08400
H 	H 	0.46810 0.87140 0.24570 0.06500
C 	C 	0.47169 0.92643 0.24923 0.09100
C 	C 	0.39090 0.90328 0.22023 -0.21200
H 	H 	0.39540 0.91630 0.19990 0.10000
C 	C 	0.36523 0.87759 0.22010 0.15800
H 	H 	0.35230 0.87310 0.19970 -0.00000
O 	O 	0.31463 0.82749 0.22219 -0.83700
O 	O 	0.24540 0.80980 0.15140 0.07400
O 	O 	0.25505 0.78989 0.15905 -0.94100
C 	C 	0.98266 0.39111 0.74697 -0.07700
H 	H 	0.96810 0.37140 0.74570 0.06400
C 	C 	0.97169 0.42643 0.74923 0.09200
C 	C 	0.89090 0.40328 0.72023 -0.21200
H 	H 	0.89540 0.41630 0.69990 0.10000
C 	C 	0.86523 0.37759 0.72010 0.15800
H 	H 	0.85230 0.37310 0.69970 -0.00000
O 	O 	0.81463 0.32749 0.72219 -0.83700
O 	O 	0.74540 0.30980 0.65140 0.07400
O 	O 	0.75505 0.28989 0.65905 -0.94100
C 	C 	0.10889 0.24697 0.51734 -0.08400
H 	H 	0.12860 0.24570 0.53190 0.06500
C 	C 	0.07357 0.24923 0.52831 0.09100
C 	C 	0.09672 0.22023 0.60910 -0.21200
H 	H 	0.08370 0.19990 0.60460 0.09900
C 	C 	0.12241 0.22010 0.63477 0.15700
H 	H 	0.12690 0.19970 0.64770 -0.00100
O 	O 	0.17251 0.22219 0.68537 -0.83700
O 	O 	0.19020 0.15140 0.75460 0.07400
O 	O 	0.21011 0.15905 0.74495 -0.94100
C 	C 	0.60889 0.74697 0.01734 -0.09100
H 	H 	0.62860 0.74570 0.03190 0.06700
C 	C 	0.57357 0.74923 0.02831 0.09300
C 	C 	0.59672 0.72023 0.10910 -0.21200
H 	H 	0.58370 0.69990 0.10460 0.09900
C 	C 	0.62241 0.72010 0.13477 0.15800
H 	H 	0.62690 0.69970 0.14770 -0.00100
O 	O 	0.67251 0.72219 0.18537 -0.83700
O 	O 	0.69020 0.65140 0.25460 0.07400
O 	O 	0.71011 0.65905 0.24495 -0.94100
C 	C 	0.10889 0.75303 0.48266 -0.08400
H 	H 	0.12860 0.75430 0.46810 0.06500
C 	C 	0.07357 0.75077 0.47169 0.09100
C 	C 	0.09672 0.77977 0.39090 -0.21200
H 	H 	0.08370 0.80010 0.39540 0.09900
C 	C 	0.12241 0.77990 0.36523 0.15800
H 	H 	0.12690 0.80030 0.35230 -0.00100
O 	O 	0.17251 0.77781 0.31463 -0.83700
O 	O 	0.19020 0.84860 0.24540 0.07400
O 	O 	0.21011 0.84095 0.25505 -0.94100
C 	C 	0.60889 0.25303 0.98266 -0.07700
H 	H 	0.62860 0.25430 0.96810 0.06400
C 	C 	0.57357 0.25077 0.97169 0.09200
C 	C 	0.59672 0.27977 0.89090 -0.21200
H 	H 	0.58370 0.30010 0.89540 0.10000
C 	C 	0.62241 0.27990 0.86523 0.15800
H 	H 	0.62690 0.30030 0.85230 -0.00000
O 	O 	0.67251 0.27781 0.81463 -0.83700
O 	O 	0.69020 0.34860 0.74540 0.07400
O 	O 	0.71011 0.34095 0.75505 -0.94100
C 	C 	0.89111 0.24697 0.48266 -0.08400
H 	H 	0.87140 0.24570 0.46810 0.06500
C 	C 	0.92643 0.24923 0.47169 0.09100
C 	C 	0.90328 0.22023 0.39090 -0.21200
H 	H 	0.91630 0.19990 0.39540 0.10000
C 	C 	0.87759 0.22010 0.36523 0.15800
H 	H 	0.87310 0.19970 0.35230 -0.00000
O 	O 	0.82749 0.22219 0.31463 -0.83700
O 	O 	0.80980 0.15140 0.24540 0.07400
O 	O 	0.78989 0.15905 0.25505 -0.94100
C 	C 	0.39111 0.74697 0.98266 -0.07700
H 	H 	0.37140 0.74570 0.96810 0.06400
C 	C 	0.42643 0.74923 0.97169 0.09200
C 	C 	0.40328 0.72023 0.89090 -0.21200
H 	H 	0.41630 0.69990 0.89540 0.10000
C 	C 	0.37759 0.72010 0.86523 0.15800
H 	H 	0.37310 0.69970 0.85230 -0.00000
O 	O 	0.32749 0.72219 0.81463 -0.83700
O 	O 	0.30980 0.65140 0.74540 0.07400
O 	O 	0.28989 0.65905 0.75505 -0.94100
C 	C 	0.89111 0.75303 0.51734 -0.08400
H 	H 	0.87140 0.75430 0.53190 0.06500
C 	C 	0.92643 0.75077 0.52831 0.09100
C 	C 	0.90328 0.77977 0.60910 -0.21200
H 	H 	0.91630 0.80010 0.60460 0.10000
C 	C 	0.87759 0.77990 0.63477 0.15800
H 	H 	0.87310 0.80030 0.64770 -0.00000
O 	O 	0.82749 0.77781 0.68537 -0.83700
O 	O 	0.80980 0.84860 0.75460 0.07500
O 	O 	0.78989 0.84095 0.74495 -0.94100
C 	C 	0.39111 0.25303 0.01734 -0.09100
H 	H 	0.37140 0.25430 0.03190 0.06700
C 	C 	0.42643 0.25077 0.02831 0.09200
C 	C 	0.40328 0.27977 0.10910 -0.21200
H 	H 	0.41630 0.30010 0.10460 0.09900
C 	C 	0.37759 0.27990 0.13477 0.15800
H 	H 	0.37310 0.30030 0.14770 -0.00100
O 	O 	0.32749 0.27781 0.18537 -0.83700
O 	O 	0.30980 0.34860 0.25460 0.07400
O 	O 	0.28989 0.34095 0.24495 -0.94100
C 	C 	0.51734 0.75303 0.89111 -0.08400
H 	H 	0.53190 0.75430 0.87140 0.06500
C 	C 	0.52831 0.75077 0.92643 0.09100
C 	C 	0.60910 0.77977 0.90328 -0.21200
H 	H 	0.60460 0.80010 0.91630 0.10000
C 	C 	0.63477 0.77990 0.87759 0.15800
H 	H 	0.64770 0.80030 0.87310 -0.00000
O 	O 	0.68537 0.77781 0.82749 -0.83700
O 	O 	0.75460 0.84860 0.80980 0.07500
O 	O 	0.74495 0.84095 0.78989 -0.94100
C 	C 	0.01734 0.25303 0.39111 -0.09100
H 	H 	0.03190 0.25430 0.37140 0.06700
C 	C 	0.02831 0.25077 0.42643 0.09200
C 	C 	0.10910 0.27977 0.40328 -0.21200
H 	H 	0.10460 0.30010 0.41630 0.09900
C 	C 	0.13477 0.27990 0.37759 0.15800
H 	H 	0.14770 0.30030 0.37310 -0.00100
O 	O 	0.18537 0.27781 0.32749 -0.83700
O 	O 	0.25460 0.34860 0.30980 0.07400
O 	O 	0.24495 0.34095 0.28989 -0.94100
C 	C 	0.48266 0.24697 0.89111 -0.08400
H 	H 	0.46810 0.24570 0.87140 0.06500
C 	C 	0.47169 0.24923 0.92643 0.09100
C 	C 	0.39090 0.22023 0.90328 -0.21200
H 	H 	0.39540 0.19990 0.91630 0.10000
C 	C 	0.36523 0.22010 0.87759 0.15800
H 	H 	0.35230 0.19970 0.87310 -0.00000
O 	O 	0.31463 0.22219 0.82749 -0.83700
O 	O 	0.24540 0.15140 0.80980 0.07400
O 	O 	0.25505 0.15905 0.78989 -0.94100
C 	C 	0.98266 0.74697 0.39111 -0.07700
H 	H 	0.96810 0.74570 0.37140 0.06400
C 	C 	0.97169 0.74923 0.42643 0.09200
C 	C 	0.89090 0.72023 0.40328 -0.21200
H 	H 	0.89540 0.69990 0.41630 0.10000
C 	C 	0.86523 0.72010 0.37759 0.15800
H 	H 	0.85230 0.69970 0.37310 -0.00000
O 	O 	0.81463 0.72219 0.32749 -0.83700
O 	O 	0.74540 0.65140 0.30980 0.07400
O 	O 	0.75505 0.65905 0.28989 -0.94100
C 	C 	0.48266 0.75303 0.10889 -0.08400
H 	H 	0.46810 0.75430 0.12860 0.06500
C 	C 	0.47169 0.75077 0.07357 0.09100
C 	C 	0.39090 0.77977 0.09672 -0.21200
H 	H 	0.39540 0.80010 0.08370 0.09900
C 	C 	0.36523 0.77990 0.12241 0.15800
H 	H 	0.35230 0.80030 0.12690 -0.00100
O 	O 	0.31463 0.77781 0.17251 -0.83700
O 	O 	0.24540 0.84860 0.19020 0.07400
O 	O 	0.25505 0.84095 0.21011 -0.94100
C 	C 	0.98266 0.25303 0.60889 -0.07700
H 	H 	0.96810 0.25430 0.62860 0.06400
C 	C 	0.97169 0.25077 0.57357 0.09200
C 	C 	0.89090 0.27977 0.59672 -0.21200
H 	H 	0.89540 0.30010 0.58370 0.10000
C 	C 	0.86523 0.27990 0.62241 0.15800
H 	H 	0.85230 0.30030 0.62690 -0.00000
O 	O 	0.81463 0.27781 0.67251 -0.83700
O 	O 	0.74540 0.34860 0.69020 0.07400
O 	O 	0.75505 0.34095 0.71011 -0.94100
C 	C 	0.51734 0.24697 0.10889 -0.08400
H 	H 	0.53190 0.24570 0.12860 0.06500
C 	C 	0.52831 0.24923 0.07357 0.09100
C 	C 	0.60910 0.22023 0.09672 -0.21200
H 	H 	0.60460 0.19990 0.08370 0.09900
C 	C 	0.63477 0.22010 0.12241 0.15700
H 	H 	0.64770 0.19970 0.12690 -0.00100
O 	O 	0.68537 0.22219 0.17251 -0.83700
O 	O 	0.75460 0.15140 0.19020 0.07400
O 	O 	0.74495 0.15905 0.21011 -0.94100
C 	C 	0.01734 0.74697 0.60889 -0.09100
H 	H 	0.03190 0.74570 0.62860 0.06700
C 	C 	0.02831 0.74923 0.57357 0.09300
C 	C 	0.10910 0.72023 0.59672 -0.21200
H 	H 	0.10460 0.69990 0.58370 0.09900
C 	C 	0.13477 0.72010 0.62241 0.15800
H 	H 	0.14770 0.69970 0.62690 -0.00100
O 	O 	0.18537 0.72219 0.67251 -0.83700
O 	O 	0.25460 0.65140 0.69020 0.07400
O 	O 	0.24495 0.65905 0.71011 -0.94100
C 	C 	0.89111 0.51734 0.75303 -0.08400
H 	H 	0.87140 0.53190 0.75430 0.06500
C 	C 	0.92643 0.52831 0.75077 0.09100
C 	C 	0.90328 0.60910 0.77977 -0.21200
H 	H 	0.91630 0.60460 0.80010 0.10000
C 	C 	0.87759 0.63477 0.77990 0.15800
H 	H 	0.87310 0.64770 0.80030 -0.00000
O 	O 	0.82749 0.68537 0.77781 -0.83700
O 	O 	0.80980 0.75460 0.84860 0.07500
O 	O 	0.78989 0.74495 0.84095 -0.94100
C 	C 	0.39111 0.01734 0.25303 -0.09100
H 	H 	0.37140 0.03190 0.25430 0.06700
C 	C 	0.42643 0.02831 0.25077 0.09200
C 	C 	0.40328 0.10910 0.27977 -0.21200
H 	H 	0.41630 0.10460 0.30010 0.09900
C 	C 	0.37759 0.13477 0.27990 0.15800
H 	H 	0.37310 0.14770 0.30030 -0.00100
O 	O 	0.32749 0.18537 0.27781 -0.83700
O 	O 	0.30980 0.25460 0.34860 0.07400
O 	O 	0.28989 0.24495 0.34095 -0.94100
C 	C 	0.89111 0.48266 0.24697 -0.08400
H 	H 	0.87140 0.46810 0.24570 0.06500
C 	C 	0.92643 0.47169 0.24923 0.09100
C 	C 	0.90328 0.39090 0.22023 -0.21200
H 	H 	0.91630 0.39540 0.19990 0.10000
C 	C 	0.87759 0.36523 0.22010 0.15800
H 	H 	0.87310 0.35230 0.19970 -0.00000
O 	O 	0.82749 0.31463 0.22219 -0.83700
O 	O 	0.80980 0.24540 0.15140 0.07400
O 	O 	0.78989 0.25505 0.15905 -0.94100
C 	C 	0.39111 0.98266 0.74697 -0.07700
H 	H 	0.37140 0.96810 0.74570 0.06400
C 	C 	0.42643 0.97169 0.74923 0.09200
C 	C 	0.40328 0.89090 0.72023 -0.21200
H 	H 	0.41630 0.89540 0.69990 0.10000
C 	C 	0.37759 0.86523 0.72010 0.15800
H 	H 	0.37310 0.85230 0.69970 -0.00000
O 	O 	0.32749 0.81463 0.72219 -0.83700
O 	O 	0.30980 0.74540 0.65140 0.07400
O 	O 	0.28989 0.75505 0.65905 -0.94100
C 	C 	0.10889 0.48266 0.75303 -0.08400
H 	H 	0.12860 0.46810 0.75430 0.06500
C 	C 	0.07357 0.47169 0.75077 0.09100
C 	C 	0.09672 0.39090 0.77977 -0.21200
H 	H 	0.08370 0.39540 0.80010 0.09900
C 	C 	0.12241 0.36523 0.77990 0.15800
H 	H 	0.12690 0.35230 0.80030 -0.00100
O 	O 	0.17251 0.31463 0.77781 -0.83700
O 	O 	0.19020 0.24540 0.84860 0.07400
O 	O 	0.21011 0.25505 0.84095 -0.94100
C 	C 	0.60889 0.98266 0.25303 -0.07700
H 	H 	0.62860 0.96810 0.25430 0.06400
C 	C 	0.57357 0.97169 0.25077 0.09200
C 	C 	0.59672 0.89090 0.27977 -0.21200
H 	H 	0.58370 0.89540 0.30010 0.10000
C 	C 	0.62241 0.86523 0.27990 0.15800
H 	H 	0.62690 0.85230 0.30030 -0.00000
O 	O 	0.67251 0.81463 0.27781 -0.83700
O 	O 	0.69020 0.74540 0.34860 0.07400
O 	O 	0.71011 0.75505 0.34095 -0.94100
C 	C 	0.10889 0.51734 0.24697 -0.08400
H 	H 	0.12860 0.53190 0.24570 0.06500
C 	C 	0.07357 0.52831 0.24923 0.09100
C 	C 	0.09672 0.60910 0.22023 -0.21200
H 	H 	0.08370 0.60460 0.19990 0.09900
C 	C 	0.12241 0.63477 0.22010 0.15700
H 	H 	0.12690 0.64770 0.19970 -0.00100
O 	O 	0.17251 0.68537 0.22219 -0.83700
O 	O 	0.19020 0.75460 0.15140 0.07400
O 	O 	0.21011 0.74495 0.15905 -0.94100
C 	C 	0.60889 0.01734 0.74697 -0.09100
H 	H 	0.62860 0.03190 0.74570 0.06700
C 	C 	0.57357 0.02831 0.74923 0.09300
C 	C 	0.59672 0.10910 0.72023 -0.21200
H 	H 	0.58370 0.10460 0.69990 0.09900
C 	C 	0.62241 0.13477 0.72010 0.15800
H 	H 	0.62690 0.14770 0.69970 -0.00100
O 	O 	0.67251 0.18537 0.72219 -0.83700
O 	O 	0.69020 0.25460 0.65140 0.07400
O 	O 	0.71011 0.24495 0.65905 -0.94100
C 	C 	0.75303 0.89111 0.51734 -0.08400
H 	H 	0.75430 0.87140 0.53190 0.06500
C 	C 	0.75077 0.92643 0.52831 0.09100
C 	C 	0.77977 0.90328 0.60910 -0.21200
H 	H 	0.80010 0.91630 0.60460 0.10000
C 	C 	0.77990 0.87759 0.63477 0.15800
H 	H 	0.80030 0.87310 0.64770 -0.00000
O 	O 	0.77781 0.82749 0.68537 -0.83700
O 	O 	0.84860 0.80980 0.75460 0.07500
O 	O 	0.84095 0.78989 0.74495 -0.94100
C 	C 	0.25303 0.39111 0.01734 -0.09100
H 	H 	0.25430 0.37140 0.03190 0.06700
C 	C 	0.25077 0.42643 0.02831 0.09200
C 	C 	0.27977 0.40328 0.10910 -0.21200
H 	H 	0.30010 0.41630 0.10460 0.09900
C 	C 	0.27990 0.37759 0.13477 0.15800
H 	H 	0.30030 0.37310 0.14770 -0.00100
O 	O 	0.27781 0.32749 0.18537 -0.83700
O 	O 	0.34860 0.30980 0.25460 0.07400
O 	O 	0.34095 0.28989 0.24495 -0.94100
C 	C 	0.24697 0.89111 0.48266 -0.08400
H 	H 	0.24570 0.87140 0.46810 0.06500
C 	C 	0.24923 0.92643 0.47169 0.09100
C 	C 	0.22023 0.90328 0.39090 -0.21200
H 	H 	0.19990 0.91630 0.39540 0.10000
C 	C 	0.22010 0.87759 0.36523 0.15800
H 	H 	0.19970 0.87310 0.35230 -0.00000
O 	O 	0.22219 0.82749 0.31463 -0.83700
O 	O 	0.15140 0.80980 0.24540 0.07400
O 	O 	0.15905 0.78989 0.25505 -0.94100
C 	C 	0.74697 0.39111 0.98266 -0.07700
H 	H 	0.74570 0.37140 0.96810 0.06400
C 	C 	0.74923 0.42643 0.97169 0.09200
C 	C 	0.72023 0.40328 0.89090 -0.21200
H 	H 	0.69990 0.41630 0.89540 0.10000
C 	C 	0.72010 0.37759 0.86523 0.15800
H 	H 	0.69970 0.37310 0.85230 -0.00000
O 	O 	0.72219 0.32749 0.81463 -0.83700
O 	O 	0.65140 0.30980 0.74540 0.07400
O 	O 	0.65905 0.28989 0.75505 -0.94100
C 	C 	0.75303 0.10889 0.48266 -0.08400
H 	H 	0.75430 0.12860 0.46810 0.06500
C 	C 	0.75077 0.07357 0.47169 0.09100
C 	C 	0.77977 0.09672 0.39090 -0.21200
H 	H 	0.80010 0.08370 0.39540 0.09900
C 	C 	0.77990 0.12241 0.36523 0.15800
H 	H 	0.80030 0.12690 0.35230 -0.00100
O 	O 	0.77781 0.17251 0.31463 -0.83700
O 	O 	0.84860 0.19020 0.24540 0.07400
O 	O 	0.84095 0.21011 0.25505 -0.94100
C 	C 	0.25303 0.60889 0.98266 -0.07700
H 	H 	0.25430 0.62860 0.96810 0.06400
C 	C 	0.25077 0.57357 0.97169 0.09200
C 	C 	0.27977 0.59672 0.89090 -0.21200
H 	H 	0.30010 0.58370 0.89540 0.10000
C 	C 	0.27990 0.62241 0.86523 0.15800
H 	H 	0.30030 0.62690 0.85230 -0.00000
O 	O 	0.27781 0.67251 0.81463 -0.83700
O 	O 	0.34860 0.69020 0.74540 0.07400
O 	O 	0.34095 0.71011 0.75505 -0.94100
C 	C 	0.24697 0.10889 0.51734 -0.08400
H 	H 	0.24570 0.12860 0.53190 0.06500
C 	C 	0.24923 0.07357 0.52831 0.09100
C 	C 	0.22023 0.09672 0.60910 -0.21200
H 	H 	0.19990 0.08370 0.60460 0.09900
C 	C 	0.22010 0.12241 0.63477 0.15700
H 	H 	0.19970 0.12690 0.64770 -0.00100
O 	O 	0.22219 0.17251 0.68537 -0.83700
O 	O 	0.15140 0.19020 0.75460 0.07400
O 	O 	0.15905 0.21011 0.74495 -0.94100
C 	C 	0.74697 0.60889 0.01734 -0.09100
H 	H 	0.74570 0.62860 0.03190 0.06700
C 	C 	0.74923 0.57357 0.02831 0.09300
C 	C 	0.72023 0.59672 0.10910 -0.21200
H 	H 	0.69990 0.58370 0.10460 0.09900
C 	C 	0.72010 0.62241 0.13477 0.15800
H 	H 	0.69970 0.62690 0.14770 -0.00100
O 	O 	0.72219 0.67251 0.18537 -0.83700
O 	O 	0.65140 0.69020 0.25460 0.07400
O 	O 	0.65905 0.71011 0.24495 -0.94100
C 	C 	0.75303 0.51734 0.10889 -0.08400
H 	H 	0.75430 0.53190 0.12860 0.06500
C 	C 	0.75077 0.52831 0.07357 0.09100
C 	C 	0.77977 0.60910 0.09672 -0.21200
H 	H 	0.80010 0.60460 0.08370 0.09900
C 	C 	0.77990 0.63477 0.12241 0.15800
H 	H 	0.80030 0.64770 0.12690 -0.00100
O 	O 	0.77781 0.68537 0.17251 -0.83700
O 	O 	0.84860 0.75460 0.19020 0.07500
O 	O 	0.84095 0.74495 0.21011 -0.94100
C 	C 	0.25303 0.01734 0.60889 -0.09100
H 	H 	0.25430 0.03190 0.62860 0.06700
C 	C 	0.25077 0.02831 0.57357 0.09200
C 	C 	0.27977 0.10910 0.59672 -0.21200
H 	H 	0.30010 0.10460 0.58370 0.09900
C 	C 	0.27990 0.13477 0.62241 0.15800
H 	H 	0.30030 0.14770 0.62690 -0.00100
O 	O 	0.27781 0.18537 0.67251 -0.83700
O 	O 	0.34860 0.25460 0.69020 0.07400
O 	O 	0.34095 0.24495 0.71011 -0.94100
C 	C 	0.24697 0.48266 0.10889 -0.08400
H 	H 	0.24570 0.46810 0.12860 0.06500
C 	C 	0.24923 0.47169 0.07357 0.09100
C 	C 	0.22023 0.39090 0.09672 -0.21200
H 	H 	0.19990 0.39540 0.08370 0.09900
C 	C 	0.22010 0.36523 0.12241 0.15700
H 	H 	0.19970 0.35230 0.12690 -0.00100
O 	O 	0.22219 0.31463 0.17251 -0.83700
O 	O 	0.15140 0.24540 0.19020 0.07400
O 	O 	0.15905 0.25505 0.21011 -0.94100
C 	C 	0.74697 0.98266 0.60889 -0.07700
H 	H 	0.74570 0.96810 0.62860 0.06400
C 	C 	0.74923 0.97169 0.57357 0.09200
C 	C 	0.72023 0.89090 0.59672 -0.21200
H 	H 	0.69990 0.89540 0.58370 0.10000
C 	C 	0.72010 0.86523 0.62241 0.15800
H 	H 	0.69970 0.85230 0.62690 -0.00000
O 	O 	0.72219 0.81463 0.67251 -0.83700
O 	O 	0.65140 0.74540 0.69020 0.07400
O 	O 	0.65905 0.75505 0.71011 -0.94100
C 	C 	0.75303 0.48266 0.89111 -0.08400
H 	H 	0.75430 0.46810 0.87140 0.06500
C 	C 	0.75077 0.47169 0.92643 0.09100
C 	C 	0.77977 0.39090 0.90328 -0.21200
H 	H 	0.80010 0.39540 0.91630 0.10000
C 	C 	0.77990 0.36523 0.87759 0.15800
H 	H 	0.80030 0.35230 0.87310 -0.00000
O 	O 	0.77781 0.31463 0.82749 -0.83700
O 	O 	0.84860 0.24540 0.80980 0.07500
O 	O 	0.84095 0.25505 0.78989 -0.94100
C 	C 	0.25303 0.98266 0.39111 -0.07700
H 	H 	0.25430 0.96810 0.37140 0.06400
C 	C 	0.25077 0.97169 0.42643 0.09200
C 	C 	0.27977 0.89090 0.40328 -0.21200
H 	H 	0.30010 0.89540 0.41630 0.10000
C 	C 	0.27990 0.86523 0.37759 0.15800
H 	H 	0.30030 0.85230 0.37310 -0.00000
O 	O 	0.27781 0.81463 0.32749 -0.83700
O 	O 	0.34860 0.74540 0.30980 0.07400
O 	O 	0.34095 0.75505 0.28989 -0.94100
C 	C 	0.24697 0.51734 0.89111 -0.08400
H 	H 	0.24570 0.53190 0.87140 0.06500
C 	C 	0.24923 0.52831 0.92643 0.09100
C 	C 	0.22023 0.60910 0.90328 -0.21200
H 	H 	0.19990 0.60460 0.91630 0.10000
C 	C 	0.22010 0.63477 0.87759 0.15800
H 	H 	0.19970 0.64770 0.87310 -0.00000
O 	O 	0.22219 0.68537 0.82749 -0.83700
O 	O 	0.15140 0.75460 0.80980 0.07400
O 	O 	0.15905 0.74495 0.78989 -0.94100
C 	C 	0.74697 0.01734 0.39111 -0.09100
H 	H 	0.74570 0.03190 0.37140 0.06700
C 	C 	0.74923 0.02831 0.42643 0.09300
C 	C 	0.72023 0.10910 0.40328 -0.21200
H 	H 	0.69990 0.10460 0.41630 0.09900
C 	C 	0.72010 0.13477 0.37759 0.15800
H 	H 	0.69970 0.14770 0.37310 -0.00100
O 	O 	0.72219 0.18537 0.32749 -0.83700
O 	O 	0.65140 0.25460 0.30980 0.07400
O 	O 	0.65905 0.24495 0.28989 -0.94100
C 	C 	0.51734 0.89111 0.24697 -0.08400
H 	H 	0.53190 0.87140 0.24570 0.06500
C 	C 	0.52831 0.92643 0.24923 0.09100
C 	C 	0.60910 0.90328 0.22023 -0.21200
H 	H 	0.60460 0.91630 0.19990 0.10000
C 	C 	0.63477 0.87759 0.22010 0.15800
H 	H 	0.64770 0.87310 0.19970 -0.00000
O 	O 	0.68537 0.82749 0.22219 -0.83700
O 	O 	0.75460 0.80980 0.15140 0.07400
O 	O 	0.74495 0.78989 0.15905 -0.94100
C 	C 	0.01734 0.39111 0.74697 -0.09100
H 	H 	0.03190 0.37140 0.74570 0.06700
C 	C 	0.02831 0.42643 0.74923 0.09300
C 	C 	0.10910 0.40328 0.72023 -0.21200
H 	H 	0.10460 0.41630 0.69990 0.09900
C 	C 	0.13477 0.37759 0.72010 0.15800
H 	H 	0.14770 0.37310 0.69970 -0.00100
O 	O 	0.18537 0.32749 0.72219 -0.83700
O 	O 	0.25460 0.30980 0.65140 0.07400
O 	O 	0.24495 0.28989 0.65905 -0.94100
C 	C 	0.48266 0.89111 0.75303 -0.08400
H 	H 	0.46810 0.87140 0.75430 0.06500
C 	C 	0.47169 0.92643 0.75077 0.09100
C 	C 	0.39090 0.90328 0.77977 -0.21200
H 	H 	0.39540 0.91630 0.80010 0.10000
C 	C 	0.36523 0.87759 0.77990 0.15800
H 	H 	0.35230 0.87310 0.80030 -0.00000
O 	O 	0.31463 0.82749 0.77781 -0.83700
O 	O 	0.24540 0.80980 0.84860 0.07500
O 	O 	0.25505 0.78989 0.84095 -0.94100
C 	C 	0.98266 0.39111 0.25303 -0.07700
H 	H 	0.96810 0.37140 0.25430 0.06400
C 	C 	0.97169 0.42643 0.25077 0.09200
C 	C 	0.89090 0.40328 0.27977 -0.21200
H 	H 	0.89540 0.41630 0.30010 0.10000
C 	C 	0.86523 0.37759 0.27990 0.15800
H 	H 	0.85230 0.37310 0.30030 -0.00000
O 	O 	0.81463 0.32749 0.27781 -0.83700
O 	O 	0.74540 0.30980 0.34860 0.07400
O 	O 	0.75505 0.28989 0.34095 -0.94100
C 	C 	0.48266 0.10889 0.24697 -0.08400
H 	H 	0.46810 0.12860 0.24570 0.06500
C 	C 	0.47169 0.07357 0.24923 0.09100
C 	C 	0.39090 0.09672 0.22023 -0.21200
H 	H 	0.39540 0.08370 0.19990 0.09900
C 	C 	0.36523 0.12241 0.22010 0.15700
H 	H 	0.35230 0.12690 0.19970 -0.00100
O 	O 	0.31463 0.17251 0.22219 -0.83700
O 	O 	0.24540 0.19020 0.15140 0.07400
O 	O 	0.25505 0.21011 0.15905 -0.94100
C 	C 	0.98266 0.60889 0.74697 -0.07700
H 	H 	0.96810 0.62860 0.74570 0.06400
C 	C 	0.97169 0.57357 0.74923 0.09200
C 	C 	0.89090 0.59672 0.72023 -0.21200
H 	H 	0.89540 0.58370 0.69990 0.10000
C 	C 	0.86523 0.62241 0.72010 0.15800
H 	H 	0.85230 0.62690 0.69970 -0.00000
O 	O 	0.81463 0.67251 0.72219 -0.83700
O 	O 	0.74540 0.69020 0.65140 0.07400
O 	O 	0.75505 0.71011 0.65905 -0.94100
C 	C 	0.51734 0.10889 0.75303 -0.08400
H 	H 	0.53190 0.12860 0.75430 0.06500
C 	C 	0.52831 0.07357 0.75077 0.09100
C 	C 	0.60910 0.09672 0.77977 -0.21200
H 	H 	0.60460 0.08370 0.80010 0.09900
C 	C 	0.63477 0.12241 0.77990 0.15800
H 	H 	0.64770 0.12690 0.80030 -0.00100
O 	O 	0.68537 0.17251 0.77781 -0.83700
O 	O 	0.75460 0.19020 0.84860 0.07500
O 	O 	0.74495 0.21011 0.84095 -0.94100
C 	C 	0.01734 0.60889 0.25303 -0.09100
H 	H 	0.03190 0.62860 0.25430 0.06700
C 	C 	0.02831 0.57357 0.25077 0.09200
C 	C 	0.10910 0.59672 0.27977 -0.21200
H 	H 	0.10460 0.58370 0.30010 0.09900
C 	C 	0.13477 0.62241 0.27990 0.15800
H 	H 	0.14770 0.62690 0.30030 -0.00100
O 	O 	0.18537 0.67251 0.27781 -0.83700
O 	O 	0.25460 0.69020 0.34860 0.07400
O 	O 	0.24495 0.71011 0.34095 -0.94100
C 	C 	0.89111 0.75303 0.48266 -0.08400
H 	H 	0.87140 0.75430 0.46810 0.06500
C 	C 	0.92643 0.75077 0.47169 0.09100
C 	C 	0.90328 0.77977 0.39090 -0.21200
H 	H 	0.91630 0.80010 0.39540 0.10000
C 	C 	0.87759 0.77990 0.36523 0.15800
H 	H 	0.87310 0.80030 0.35230 -0.00000
O 	O 	0.82749 0.77781 0.31463 -0.83700
O 	O 	0.80980 0.84860 0.24540 0.07500
O 	O 	0.78989 0.84095 0.25505 -0.94100
C 	C 	0.39111 0.25303 0.98266 -0.07700
H 	H 	0.37140 0.25430 0.96810 0.06400
C 	C 	0.42643 0.25077 0.97169 0.09200
C 	C 	0.40328 0.27977 0.89090 -0.21200
H 	H 	0.41630 0.30010 0.89540 0.10000
C 	C 	0.37759 0.27990 0.86523 0.15800
H 	H 	0.37310 0.30030 0.85230 -0.00000
O 	O 	0.32749 0.27781 0.81463 -0.83700
O 	O 	0.30980 0.34860 0.74540 0.07400
O 	O 	0.28989 0.34095 0.75505 -0.94100
C 	C 	0.89111 0.24697 0.51734 -0.08400
H 	H 	0.87140 0.24570 0.53190 0.06500
C 	C 	0.92643 0.24923 0.52831 0.09100
C 	C 	0.90328 0.22023 0.60910 -0.21200
H 	H 	0.91630 0.19990 0.60460 0.10000
C 	C 	0.87759 0.22010 0.63477 0.15800
H 	H 	0.87310 0.19970 0.64770 -0.00000
O 	O 	0.82749 0.22219 0.68537 -0.83700
O 	O 	0.80980 0.15140 0.75460 0.07400
O 	O 	0.78989 0.15905 0.74495 -0.94100
C 	C 	0.39111 0.74697 0.01734 -0.09100
H 	H 	0.37140 0.74570 0.03190 0.06700
C 	C 	0.42643 0.74923 0.02831 0.09300
C 	C 	0.40328 0.72023 0.10910 -0.21200
H 	H 	0.41630 0.69990 0.10460 0.09900
C 	C 	0.37759 0.72010 0.13477 0.15800
H 	H 	0.37310 0.69970 0.14770 -0.00100
O 	O 	0.32749 0.72219 0.18537 -0.83700
O 	O 	0.30980 0.65140 0.25460 0.07400
O 	O 	0.28989 0.65905 0.24495 -0.94100
C 	C 	0.10889 0.75303 0.51734 -0.08400
H 	H 	0.12860 0.75430 0.53190 0.06500
C 	C 	0.07357 0.75077 0.52831 0.09100
C 	C 	0.09672 0.77977 0.60910 -0.21200
H 	H 	0.08370 0.80010 0.60460 0.09900
C 	C 	0.12241 0.77990 0.63477 0.15800
H 	H 	0.12690 0.80030 0.64770 -0.00100
O 	O 	0.17251 0.77781 0.68537 -0.83700
O 	O 	0.19020 0.84860 0.75460 0.07500
O 	O 	0.21011 0.84095 0.74495 -0.94100
C 	C 	0.60889 0.25303 0.01734 -0.09100
H 	H 	0.62860 0.25430 0.03190 0.06700
C 	C 	0.57357 0.25077 0.02831 0.09200
C 	C 	0.59672 0.27977 0.10910 -0.21200
H 	H 	0.58370 0.30010 0.10460 0.09900
C 	C 	0.62241 0.27990 0.13477 0.15800
H 	H 	0.62690 0.30030 0.14770 -0.00100
O 	O 	0.67251 0.27781 0.18537 -0.83700
O 	O 	0.69020 0.34860 0.25460 0.07400
O 	O 	0.71011 0.34095 0.24495 -0.94100
C 	C 	0.10889 0.24697 0.48266 -0.08400
H 	H 	0.12860 0.24570 0.46810 0.06500
C 	C 	0.07357 0.24923 0.47169 0.09100
C 	C 	0.09672 0.22023 0.39090 -0.21200
H 	H 	0.08370 0.19990 0.39540 0.09900
C 	C 	0.12241 0.22010 0.36523 0.15700
H 	H 	0.12690 0.19970 0.35230 -0.00100
O 	O 	0.17251 0.22219 0.31463 -0.83700
O 	O 	0.19020 0.15140 0.24540 0.07400
O 	O 	0.21011 0.15905 0.25505 -0.94100
C 	C 	0.60889 0.74697 0.98266 -0.07700
H 	H 	0.62860 0.74570 0.96810 0.06400
C 	C 	0.57357 0.74923 0.97169 0.09200
C 	C 	0.59672 0.72023 0.89090 -0.21200
H 	H 	0.58370 0.69990 0.89540 0.10000
C 	C 	0.62241 0.72010 0.86523 0.15800
H 	H 	0.62690 0.69970 0.85230 -0.00000
O 	O 	0.67251 0.72219 0.81463 -0.83700
O 	O 	0.69020 0.65140 0.74540 0.07400
O 	O 	0.71011 0.65905 0.75505 -0.94100
O 	O 	0.21738 0.21738 0.21738 -1.65700
O 	O 	0.71738 0.71738 0.71738 -1.65700
O 	O 	0.78262 0.78262 0.21738 -1.65700
O 	O 	0.28262 0.28262 0.71738 -1.65700
O 	O 	0.78262 0.21738 0.78262 -1.65700
O 	O 	0.28262 0.71738 0.28262 -1.65700
O 	O 	0.21738 0.78262 0.78262 -1.65700
O 	O 	0.71738 0.28262 0.28262 -1.65700
O 	O 	0.21738 0.21738 0.78262 -1.65700
O 	O 	0.71738 0.71738 0.28262 -1.65700
O 	O 	0.78262 0.78262 0.78262 -1.65700
O 	O 	0.28262 0.28262 0.28262 -1.65700
O 	O 	0.21738 0.78262 0.21738 -1.65700
O 	O 	0.71738 0.28262 0.71738 -1.65700
O 	O 	0.78262 0.21738 0.21738 -1.65700
O 	O 	0.28262 0.71738 0.71738 -1.65700
O 	O 	0.28976 0.23492 0.23492 -1.88900
Zr	Zr	0.26622 0.20159 0.20159 2.77800
Zr	Zr	0.27685 0.21277 0.21277 2.84200
O 	O 	0.31625 0.24552 0.24552 -0.48300
O 	O 	0.78976 0.73492 0.73492 -1.88900
Zr	Zr	0.76622 0.70159 0.70159 2.77800
Zr	Zr	0.77685 0.71277 0.71277 2.84200
O 	O 	0.81625 0.74552 0.74552 -0.48300
O 	O 	0.71024 0.76508 0.23492 -1.88900
Zr	Zr	0.73378 0.79841 0.20159 2.77800
Zr	Zr	0.72315 0.78723 0.21277 2.84200
O 	O 	0.68375 0.75448 0.24552 -0.48300
O 	O 	0.21024 0.26508 0.73492 -1.88900
Zr	Zr	0.23378 0.29841 0.70159 2.77800
Zr	Zr	0.22315 0.28723 0.71277 2.84200
O 	O 	0.18375 0.25448 0.74552 -0.48300
O 	O 	0.71024 0.23492 0.76508 -1.88900
Zr	Zr	0.73378 0.20159 0.79841 2.77800
Zr	Zr	0.72315 0.21277 0.78723 2.84200
O 	O 	0.68375 0.24552 0.75448 -0.48300
O 	O 	0.21024 0.73492 0.26508 -1.88900
Zr	Zr	0.23378 0.70159 0.29841 2.77800
Zr	Zr	0.22315 0.71277 0.28723 2.84200
O 	O 	0.18375 0.74552 0.25448 -0.48300
O 	O 	0.28976 0.76508 0.76508 -1.88900
Zr	Zr	0.26622 0.79841 0.79841 2.77800
Zr	Zr	0.27685 0.78723 0.78723 2.84200
O 	O 	0.31625 0.75448 0.75448 -0.48300
O 	O 	0.78976 0.26508 0.26508 -1.88900
Zr	Zr	0.76622 0.29841 0.29841 2.77800
Zr	Zr	0.77685 0.28723 0.28723 2.84200
O 	O 	0.81625 0.25448 0.25448 -0.48300
O 	O 	0.23492 0.28976 0.23492 -1.88900
Zr	Zr	0.20159 0.26622 0.20159 2.77800
Zr	Zr	0.21277 0.27685 0.21277 2.84200
O 	O 	0.24552 0.31625 0.24552 -0.48300
O 	O 	0.73492 0.78976 0.73492 -1.88900
Zr	Zr	0.70159 0.76622 0.70159 2.77800
Zr	Zr	0.71277 0.77685 0.71277 2.84200
O 	O 	0.74552 0.81625 0.74552 -0.48300
O 	O 	0.23492 0.71024 0.76508 -1.88900
Zr	Zr	0.20159 0.73378 0.79841 2.77800
Zr	Zr	0.21277 0.72315 0.78723 2.84200
O 	O 	0.24552 0.68375 0.75448 -0.48300
O 	O 	0.73492 0.21024 0.26508 -1.88900
Zr	Zr	0.70159 0.23378 0.29841 2.77800
Zr	Zr	0.71277 0.22315 0.28723 2.84200
O 	O 	0.74552 0.18375 0.25448 -0.48300
O 	O 	0.76508 0.71024 0.23492 -1.88900
Zr	Zr	0.79841 0.73378 0.20159 2.77800
Zr	Zr	0.78723 0.72315 0.21277 2.84200
O 	O 	0.75448 0.68375 0.24552 -0.48300
O 	O 	0.26508 0.21024 0.73492 -1.88900
Zr	Zr	0.29841 0.23378 0.70159 2.77800
Zr	Zr	0.28723 0.22315 0.71277 2.84200
O 	O 	0.25448 0.18375 0.74552 -0.48300
O 	O 	0.76508 0.28976 0.76508 -1.88900
Zr	Zr	0.79841 0.26622 0.79841 2.77800
Zr	Zr	0.78723 0.27685 0.78723 2.84200
O 	O 	0.75448 0.31625 0.75448 -0.48300
O 	O 	0.26508 0.78976 0.26508 -1.88900
Zr	Zr	0.29841 0.76622 0.29841 2.77800
Zr	Zr	0.28723 0.77685 0.28723 2.84200
O 	O 	0.25448 0.81625 0.25448 -0.48300
O 	O 	0.23492 0.23492 0.28976 -1.88900
Zr	Zr	0.20159 0.20159 0.26622 2.77800
Zr	Zr	0.21277 0.21277 0.27685 2.84200
O 	O 	0.24552 0.24552 0.31625 -0.48300
O 	O 	0.73492 0.73492 0.78976 -1.88900
Zr	Zr	0.70159 0.70159 0.76622 2.77800
Zr	Zr	0.71277 0.71277 0.77685 2.84200
O 	O 	0.74552 0.74552 0.81625 -0.48300
O 	O 	0.76508 0.23492 0.71024 -1.88900
Zr	Zr	0.79841 0.20159 0.73378 2.77800
Zr	Zr	0.78723 0.21277 0.72315 2.84200
O 	O 	0.75448 0.24552 0.68375 -0.48300
O 	O 	0.26508 0.73492 0.21024 -1.88900
Zr	Zr	0.29841 0.70159 0.23378 2.77800
Zr	Zr	0.28723 0.71277 0.22315 2.84200
O 	O 	0.25448 0.74552 0.18375 -0.48300
O 	O 	0.23492 0.76508 0.71024 -1.88900
Zr	Zr	0.20159 0.79841 0.73378 2.77800
Zr	Zr	0.21277 0.78723 0.72315 2.84200
O 	O 	0.24552 0.75448 0.68375 -0.48300
O 	O 	0.73492 0.26508 0.21024 -1.88900
Zr	Zr	0.70159 0.29841 0.23378 2.77800
Zr	Zr	0.71277 0.28723 0.22315 2.84200
O 	O 	0.74552 0.25448 0.18375 -0.48300
O 	O 	0.76508 0.76508 0.28976 -1.88900
Zr	Zr	0.79841 0.79841 0.26622 2.77800
Zr	Zr	0.78723 0.78723 0.27685 2.84200
O 	O 	0.75448 0.75448 0.31625 -0.48300
O 	O 	0.26508 0.26508 0.78976 -1.88900
Zr	Zr	0.29841 0.29841 0.76622 2.77800
Zr	Zr	0.28723 0.28723 0.77685 2.84200
O 	O 	0.25448 0.25448 0.81625 -0.48300
O 	O 	0.23492 0.28976 0.76508 -1.88900
Zr	Zr	0.20159 0.26622 0.79841 2.77800
Zr	Zr	0.21277 0.27685 0.78723 2.84200
O 	O 	0.24552 0.31625 0.75448 -0.48300
O 	O 	0.73492 0.78976 0.26508 -1.88900
Zr	Zr	0.70159 0.76622 0.29841 2.77800
Zr	Zr	0.71277 0.77685 0.28723 2.84200
O 	O 	0.74552 0.81625 0.25448 -0.48300
O 	O 	0.76508 0.71024 0.76508 -1.88900
Zr	Zr	0.79841 0.73378 0.79841 2.77800
Zr	Zr	0.78723 0.72315 0.78723 2.84200
O 	O 	0.75448 0.68375 0.75448 -0.48300
O 	O 	0.26508 0.21024 0.26508 -1.88800
Zr	Zr	0.29841 0.23378 0.29841 2.77800
Zr	Zr	0.28723 0.22315 0.28723 2.84200
O 	O 	0.25448 0.18375 0.25448 -0.48300
O 	O 	0.23492 0.71024 0.23492 -1.88900
Zr	Zr	0.20159 0.73378 0.20159 2.77800
Zr	Zr	0.21277 0.72315 0.21277 2.84200
O 	O 	0.24552 0.68375 0.24552 -0.48300
O 	O 	0.73492 0.21024 0.73492 -1.88900
Zr	Zr	0.70159 0.23378 0.70159 2.77800
Zr	Zr	0.71277 0.22315 0.71277 2.84200
O 	O 	0.74552 0.18375 0.74552 -0.48300
O 	O 	0.76508 0.28976 0.23492 -1.88900
Zr	Zr	0.79841 0.26622 0.20159 2.77800
Zr	Zr	0.78723 0.27685 0.21277 2.84200
O 	O 	0.75448 0.31625 0.24552 -0.48300
O 	O 	0.26508 0.78976 0.73492 -1.88900
Zr	Zr	0.29841 0.76622 0.70159 2.77800
Zr	Zr	0.28723 0.77685 0.71277 2.84200
O 	O 	0.25448 0.81625 0.74552 -0.48300
O 	O 	0.28976 0.23492 0.76508 -1.88900
Zr	Zr	0.26622 0.20159 0.79841 2.77800
Zr	Zr	0.27685 0.21277 0.78723 2.84200
O 	O 	0.31625 0.24552 0.75448 -0.48300
O 	O 	0.78976 0.73492 0.26508 -1.88900
Zr	Zr	0.76622 0.70159 0.29841 2.77800
Zr	Zr	0.77685 0.71277 0.28723 2.84200
O 	O 	0.81625 0.74552 0.25448 -0.48300
O 	O 	0.71024 0.23492 0.23492 -1.88900
Zr	Zr	0.73378 0.20159 0.20159 2.77800
Zr	Zr	0.72315 0.21277 0.21277 2.84200
O 	O 	0.68375 0.24552 0.24552 -0.48300
O 	O 	0.21024 0.73492 0.73492 -1.88900
Zr	Zr	0.23378 0.70159 0.70159 2.77800
Zr	Zr	0.22315 0.71277 0.71277 2.84200
O 	O 	0.18375 0.74552 0.74552 -0.48300
O 	O 	0.71024 0.76508 0.76508 -1.88900
Zr	Zr	0.73378 0.79841 0.79841 2.77800
Zr	Zr	0.72315 0.78723 0.78723 2.84200
O 	O 	0.68375 0.75448 0.75448 -0.48300
O 	O 	0.21024 0.26508 0.26508 -1.88800
Zr	Zr	0.23378 0.29841 0.29841 2.77800
Zr	Zr	0.22315 0.28723 0.28723 2.84200
O 	O 	0.18375 0.25448 0.25448 -0.48300
O 	O 	0.28976 0.76508 0.23492 -1.88900
Zr	Zr	0.26622 0.79841 0.20159 2.77800
Zr	Zr	0.27685 0.78723 0.21277 2.84200
O 	O 	0.31625 0.75448 0.24552 -0.48300
O 	O 	0.78976 0.26508 0.73492 -1.88900
Zr	Zr	0.76622 0.29841 0.70159 2.77800
Zr	Zr	0.77685 0.28723 0.71277 2.84200
O 	O 	0.81625 0.25448 0.74552 -0.48300
O 	O 	0.23492 0.23492 0.71024 -1.88900
Zr	Zr	0.20159 0.20159 0.73378 2.77800
Zr	Zr	0.21277 0.21277 0.72315 2.84200
O 	O 	0.24552 0.24552 0.68375 -0.48300
O 	O 	0.73492 0.73492 0.21024 -1.88900
Zr	Zr	0.70159 0.70159 0.23378 2.77800
Zr	Zr	0.71277 0.71277 0.22315 2.84200
O 	O 	0.74552 0.74552 0.18375 -0.48300
O 	O 	0.23492 0.76508 0.28976 -1.88900
Zr	Zr	0.20159 0.79841 0.26622 2.77800
Zr	Zr	0.21277 0.78723 0.27685 2.84200
O 	O 	0.24552 0.75448 0.31625 -0.48300
O 	O 	0.73492 0.26508 0.78976 -1.88900
Zr	Zr	0.70159 0.29841 0.76622 2.77800
Zr	Zr	0.71277 0.28723 0.77685 2.84200
O 	O 	0.74552 0.25448 0.81625 -0.48300
O 	O 	0.76508 0.23492 0.28976 -1.88900
Zr	Zr	0.79841 0.20159 0.26622 2.77800
Zr	Zr	0.78723 0.21277 0.27685 2.84200
O 	O 	0.75448 0.24552 0.31625 -0.48300
O 	O 	0.26508 0.73492 0.78976 -1.88900
Zr	Zr	0.29841 0.70159 0.76622 2.77800
Zr	Zr	0.28723 0.71277 0.77685 2.84200
O 	O 	0.25448 0.74552 0.81625 -0.48300
O 	O 	0.76508 0.76508 0.71024 -1.88900
Zr	Zr	0.79841 0.79841 0.73378 2.77800
Zr	Zr	0.78723 0.78723 0.72315 2.84200
O 	O 	0.75448 0.75448 0.68375 -0.48300
O 	O 	0.26508 0.26508 0.21024 -1.88800
Zr	Zr	0.29841 0.29841 0.23378 2.77800
Zr	Zr	0.28723 0.28723 0.22315 2.84200
O 	O 	0.25448 0.25448 0.18375 -0.48300
N 	N 	0.50000 0.25017 0.05216 -0.32600
N 	N 	0.00000 0.75017 0.55216 -0.32800
N 	N 	0.50000 0.74983 0.05216 -0.32600
N 	N 	0.00000 0.24983 0.55216 -0.32800
N 	N 	0.50000 0.25017 0.94784 -0.32500
N 	N 	0.00000 0.75017 0.44784 -0.32800
N 	N 	0.50000 0.74983 0.94784 -0.32500
N 	N 	0.00000 0.24983 0.44784 -0.32800
N 	N 	0.05216 0.50000 0.25017 -0.32600
N 	N 	0.55216 0.00000 0.75017 -0.32800
N 	N 	0.05216 0.50000 0.74983 -0.32600
N 	N 	0.55216 0.00000 0.24983 -0.32800
N 	N 	0.94784 0.50000 0.25017 -0.32500
N 	N 	0.44784 0.00000 0.75017 -0.32800
N 	N 	0.94784 0.50000 0.74983 -0.32500
N 	N 	0.44784 0.00000 0.24983 -0.32800
N 	N 	0.25017 0.05216 0.50000 -0.32600
N 	N 	0.75017 0.55216 -0.00000 -0.32800
N 	N 	0.74983 0.05216 0.50000 -0.32600
N 	N 	0.24983 0.55216 -0.00000 -0.32800
N 	N 	0.25017 0.94784 0.50000 -0.32500
N 	N 	0.75017 0.44784 -0.00000 -0.32800
N 	N 	0.74983 0.94784 0.50000 -0.32500
N 	N 	0.24983 0.44784 -0.00000 -0.32800
N 	N 	0.25017 0.50000 0.94784 -0.32500
N 	N 	0.75017 0.00000 0.44784 -0.32800
N 	N 	0.74983 0.50000 0.94784 -0.32500
N 	N 	0.24983 0.00000 0.44784 -0.32800
N 	N 	0.25017 0.50000 0.05216 -0.32600
N 	N 	0.75017 0.00000 0.55216 -0.32800
N 	N 	0.74983 0.50000 0.05216 -0.32600
N 	N 	0.24983 0.00000 0.55216 -0.32800
N 	N 	0.50000 0.05216 0.74983 -0.32600
N 	N 	0.00000 0.55216 0.24983 -0.32800
N 	N 	0.50000 0.05216 0.25017 -0.32600
N 	N 	0.00000 0.55216 0.75017 -0.32800
N 	N 	0.50000 0.94784 0.74983 -0.32500
N 	N 	0.00000 0.44784 0.24983 -0.32800
N 	N 	0.50000 0.94784 0.25017 -0.32500
N 	N 	0.00000 0.44784 0.75017 -0.32800
N 	N 	0.05216 0.25017 0.50000 -0.32600
N 	N 	0.55216 0.75017 -0.00000 -0.32800
N 	N 	0.05216 0.74983 0.50000 -0.32600
N 	N 	0.55216 0.24983 -0.00000 -0.32800
N 	N 	0.94784 0.25017 0.50000 -0.32500
N 	N 	0.44784 0.75017 -0.00000 -0.32800
N 	N 	0.94784 0.74983 0.50000 -0.32500
N 	N 	0.44784 0.24983 -0.00000 -0.32800
C 	C 	0.40964 0.25000 0.09036 0.16800
C 	C 	0.35887 0.25000 0.14113 -0.24500
C 	C 	0.43720 0.25000 0.06280 -0.17500
C 	C 	0.33142 0.25000 0.16858 0.68000
C 	C 	0.59036 0.75000 0.09036 0.16800
C 	C 	0.64113 0.75000 0.14113 -0.24500
C 	C 	0.56280 0.75000 0.06280 -0.17500
C 	C 	0.66858 0.75000 0.16858 0.68000
C 	C 	0.59036 0.25000 0.90964 0.16800
C 	C 	0.64113 0.25000 0.85887 -0.24500
C 	C 	0.56280 0.25000 0.93720 -0.17400
C 	C 	0.66858 0.25000 0.83142 0.68000
C 	C 	0.40964 0.75000 0.90964 0.16800
C 	C 	0.35887 0.75000 0.85887 -0.24500
C 	C 	0.43720 0.75000 0.93720 -0.17400
C 	C 	0.33142 0.75000 0.83142 0.68000
C 	C 	0.09036 0.40964 0.25000 0.16800
C 	C 	0.14113 0.35887 0.25000 -0.24500
C 	C 	0.06280 0.43720 0.25000 -0.17500
C 	C 	0.16858 0.33142 0.25000 0.68000
C 	C 	0.09036 0.59036 0.75000 0.16800
C 	C 	0.14113 0.64113 0.75000 -0.24500
C 	C 	0.06280 0.56280 0.75000 -0.17500
C 	C 	0.16858 0.66858 0.75000 0.68000
C 	C 	0.90964 0.59036 0.25000 0.16800
C 	C 	0.85887 0.64113 0.25000 -0.24500
C 	C 	0.93720 0.56280 0.25000 -0.17400
C 	C 	0.83142 0.66858 0.25000 0.68000
C 	C 	0.90964 0.40964 0.75000 0.16800
C 	C 	0.85887 0.35887 0.75000 -0.24500
C 	C 	0.93720 0.43720 0.75000 -0.17400
C 	C 	0.83142 0.33142 0.75000 0.68000
C 	C 	0.25000 0.09036 0.40964 0.16800
C 	C 	0.25000 0.14113 0.35887 -0.24500
C 	C 	0.25000 0.06280 0.43720 -0.17500
C 	C 	0.25000 0.16858 0.33142 0.68000
C 	C 	0.75000 0.09036 0.59036 0.16800
C 	C 	0.75000 0.14113 0.64113 -0.24500
C 	C 	0.75000 0.06280 0.56280 -0.17500
C 	C 	0.75000 0.16858 0.66858 0.68000
C 	C 	0.25000 0.90964 0.59036 0.16800
C 	C 	0.25000 0.85887 0.64113 -0.24500
C 	C 	0.25000 0.93720 0.56280 -0.17400
C 	C 	0.25000 0.83142 0.66858 0.68000
C 	C 	0.75000 0.90964 0.40964 0.16800
C 	C 	0.75000 0.85887 0.35887 -0.24500
C 	C 	0.75000 0.93720 0.43720 -0.17400
C 	C 	0.75000 0.83142 0.33142 0.68000
C 	C 	0.25000 0.40964 0.90964 0.16800
C 	C 	0.25000 0.35887 0.85887 -0.24500
C 	C 	0.25000 0.43720 0.93720 -0.17400
C 	C 	0.25000 0.33142 0.83142 0.68000
C 	C 	0.75000 0.59036 0.90964 0.16800
C 	C 	0.75000 0.64113 0.85887 -0.24500
C 	C 	0.75000 0.56280 0.93720 -0.17400
C 	C 	0.75000 0.66858 0.83142 0.68000
C 	C 	0.25000 0.59036 0.09036 0.16800
C 	C 	0.25000 0.64113 0.14113 -0.24500
C 	C 	0.25000 0.56280 0.06280 -0.17500
C 	C 	0.25000 0.66858 0.16858 0.68000
C 	C 	0.75000 0.40964 0.09036 0.16800
C 	C 	0.75000 0.35887 0.14113 -0.24500
C 	C 	0.75000 0.43720 0.06280 -0.17500
C 	C 	0.75000 0.33142 0.16858 0.68000
C 	C 	0.40964 0.09036 0.75000 0.16800
C 	C 	0.35887 0.14113 0.75000 -0.24500
C 	C 	0.43720 0.06280 0.75000 -0.17500
C 	C 	0.33142 0.16858 0.75000 0.68000
C 	C 	0.59036 0.09036 0.25000 0.16800
C 	C 	0.64113 0.14113 0.25000 -0.24500
C 	C 	0.56280 0.06280 0.25000 -0.17500
C 	C 	0.66858 0.16858 0.25000 0.68000
C 	C 	0.59036 0.90964 0.75000 0.16800
C 	C 	0.64113 0.85887 0.75000 -0.24500
C 	C 	0.56280 0.93720 0.75000 -0.17400
C 	C 	0.66858 0.83142 0.75000 0.68000
C 	C 	0.40964 0.90964 0.25000 0.16800
C 	C 	0.35887 0.85887 0.25000 -0.24500
C 	C 	0.43720 0.93720 0.25000 -0.17400
C 	C 	0.33142 0.83142 0.25000 0.68000
C 	C 	0.09036 0.25000 0.59036 0.16800
C 	C 	0.14113 0.25000 0.64113 -0.24500
C 	C 	0.06280 0.25000 0.56280 -0.17500
C 	C 	0.16858 0.25000 0.66858 0.68000
C 	C 	0.09036 0.75000 0.40964 0.16800
C 	C 	0.14113 0.75000 0.35887 -0.24500
C 	C 	0.06280 0.75000 0.43720 -0.17500
C 	C 	0.16858 0.75000 0.33142 0.68000
C 	C 	0.90964 0.25000 0.40964 0.16800
C 	C 	0.85887 0.25000 0.35887 -0.24500
C 	C 	0.93720 0.25000 0.43720 -0.17400
C 	C 	0.83142 0.25000 0.33142 0.68000
C 	C 	0.90964 0.75000 0.59036 0.16800
C 	C 	0.85887 0.75000 0.64113 -0.24500
C 	C 	0.93720 0.75000 0.56280 -0.17400
C 	C 	0.83142 0.75000 0.66858 0.68000
C 	C 	0.59036 0.75000 0.90964 0.16800
C 	C 	0.64113 0.75000 0.85887 -0.24500
C 	C 	0.56280 0.75000 0.93720 -0.17400
C 	C 	0.66858 0.75000 0.83142 0.68000
C 	C 	0.09036 0.25000 0.40964 0.16800
C 	C 	0.14113 0.25000 0.35887 -0.24500
C 	C 	0.06280 0.25000 0.43720 -0.17500
C 	C 	0.16858 0.25000 0.33142 0.68000
C 	C 	0.40964 0.25000 0.90964 0.16800
C 	C 	0.35887 0.25000 0.85887 -0.24500
C 	C 	0.43720 0.25000 0.93720 -0.17400
C 	C 	0.33142 0.25000 0.83142 0.68000
C 	C 	0.40964 0.75000 0.09036 0.16800
C 	C 	0.35887 0.75000 0.14113 -0.24500
C 	C 	0.43720 0.75000 0.06280 -0.17500
C 	C 	0.33142 0.75000 0.16858 0.68000
C 	C 	0.59036 0.25000 0.09036 0.16800
C 	C 	0.64113 0.25000 0.14113 -0.24500
C 	C 	0.56280 0.25000 0.06280 -0.17500
C 	C 	0.66858 0.25000 0.16858 0.68000
C 	C 	0.90964 0.59036 0.75000 0.16800
C 	C 	0.85887 0.64113 0.75000 -0.24500
C 	C 	0.93720 0.56280 0.75000 -0.17400
C 	C 	0.83142 0.66858 0.75000 0.68000
C 	C 	0.40964 0.09036 0.25000 0.16800
C 	C 	0.35887 0.14113 0.25000 -0.24500
C 	C 	0.43720 0.06280 0.25000 -0.17500
C 	C 	0.33142 0.16858 0.25000 0.68000
C 	C 	0.90964 0.40964 0.25000 0.16800
C 	C 	0.85887 0.35887 0.25000 -0.24500
C 	C 	0.93720 0.43720 0.25000 -0.17400
C 	C 	0.83142 0.33142 0.25000 0.68000
C 	C 	0.09036 0.40964 0.75000 0.16800
C 	C 	0.14113 0.35887 0.75000 -0.24500
C 	C 	0.06280 0.43720 0.75000 -0.17500
C 	C 	0.16858 0.33142 0.75000 0.68000
C 	C 	0.09036 0.59036 0.25000 0.16800
C 	C 	0.14113 0.64113 0.25000 -0.24500
C 	C 	0.06280 0.56280 0.25000 -0.17500
C 	C 	0.16858 0.66858 0.25000 0.68000
C 	C 	0.75000 0.90964 0.59036 0.16800
C 	C 	0.75000 0.85887 0.64113 -0.24500
C 	C 	0.75000 0.93720 0.56280 -0.17400
C 	C 	0.75000 0.83142 0.66858 0.68000
C 	C 	0.25000 0.40964 0.09036 0.16800
C 	C 	0.25000 0.35887 0.14113 -0.24500
C 	C 	0.25000 0.43720 0.06280 -0.17500
C 	C 	0.25000 0.33142 0.16858 0.68000
C 	C 	0.25000 0.90964 0.40964 0.16800
C 	C 	0.25000 0.85887 0.35887 -0.24500
C 	C 	0.25000 0.93720 0.43720 -0.17400
C 	C 	0.25000 0.83142 0.33142 0.68000
C 	C 	0.75000 0.09036 0.40964 0.16800
C 	C 	0.75000 0.14113 0.35887 -0.24500
C 	C 	0.75000 0.06280 0.43720 -0.17500
C 	C 	0.75000 0.16858 0.33142 0.68000
C 	C 	0.25000 0.09036 0.59036 0.16800
C 	C 	0.25000 0.14113 0.64113 -0.24500
C 	C 	0.25000 0.06280 0.56280 -0.17500
C 	C 	0.25000 0.16858 0.66858 0.68000
C 	C 	0.75000 0.59036 0.09036 0.16800
C 	C 	0.75000 0.64113 0.14113 -0.24500
C 	C 	0.75000 0.56280 0.06280 -0.17500
C 	C 	0.75000 0.66858 0.16858 0.68000
C 	C 	0.75000 0.40964 0.90964 0.16800
C 	C 	0.75000 0.35887 0.85887 -0.24500
C 	C 	0.75000 0.43720 0.93720 -0.17400
C 	C 	0.75000 0.33142 0.83142 0.68000
C 	C 	0.25000 0.59036 0.90964 0.16800
C 	C 	0.25000 0.64113 0.85887 -0.24500
C 	C 	0.25000 0.56280 0.93720 -0.17400
C 	C 	0.25000 0.66858 0.83142 0.68000
C 	C 	0.59036 0.90964 0.25000 0.16800
C 	C 	0.64113 0.85887 0.25000 -0.24500
C 	C 	0.56280 0.93720 0.25000 -0.17400
C 	C 	0.66858 0.83142 0.25000 0.68000
C 	C 	0.40964 0.90964 0.75000 0.16800
C 	C 	0.35887 0.85887 0.75000 -0.24500
C 	C 	0.43720 0.93720 0.75000 -0.17400
C 	C 	0.33142 0.83142 0.75000 0.68000
C 	C 	0.59036 0.09036 0.75000 0.16800
C 	C 	0.64113 0.14113 0.75000 -0.24500
C 	C 	0.56280 0.06280 0.75000 -0.17500
C 	C 	0.66858 0.16858 0.75000 0.68000
C 	C 	0.90964 0.75000 0.40964 0.16800
C 	C 	0.85887 0.75000 0.35887 -0.24500
C 	C 	0.93720 0.75000 0.43720 -0.17400
C 	C 	0.83142 0.75000 0.33142 0.68000
C 	C 	0.90964 0.25000 0.59036 0.16800
C 	C 	0.85887 0.25000 0.64113 -0.24500
C 	C 	0.93720 0.25000 0.56280 -0.17400
C 	C 	0.83142 0.25000 0.66858 0.68000
C 	C 	0.09036 0.75000 0.59036 0.16800
C 	C 	0.14113 0.75000 0.64113 -0.24500
C 	C 	0.06280 0.75000 0.56280 -0.17500
C 	C 	0.16858 0.75000 0.66858 0.68000
Fe	Fe	0.50000 0.26364 -0.00000 0.74800
Fe	Fe	0.00000 0.76364 0.50000 0.74800
Fe	Fe	0.50000 0.73636 -0.00000 0.74800
Fe	Fe	0.00000 0.23636 0.50000 0.74800
Fe	Fe	0.00000 0.50000 0.26364 0.74800
Fe	Fe	0.50000 0.00000 0.76364 0.74800
Fe	Fe	0.00000 0.50000 0.73636 0.74800
Fe	Fe	0.50000 0.00000 0.23636 0.74800
Fe	Fe	0.26364 0.00000 0.50000 0.74800
Fe	Fe	0.76364 0.50000 -0.00000 0.74800
Fe	Fe	0.73636 0.00000 0.50000 0.74800
Fe	Fe	0.23636 0.50000 -0.00000 0.74800
Fe	Fe	0.26364 0.50000 -0.00000 0.74800
Fe	Fe	0.76364 0.00000 0.50000 0.74800
Fe	Fe	0.73636 0.50000 -0.00000 0.74800
Fe	Fe	0.23636 0.00000 0.50000 0.74800
Fe	Fe	0.50000 0.00000 0.73636 0.74800
Fe	Fe	0.00000 0.50000 0.23636 0.74800
Fe	Fe	0.50000 0.00000 0.26364 0.74800
Fe	Fe	0.00000 0.50000 0.76364 0.74800
Fe	Fe	0.00000 0.26364 0.50000 0.74800
Fe	Fe	0.50000 0.76364 -0.00000 0.74800
Fe	Fe	0.00000 0.73636 0.50000 0.74800
Fe	Fe	0.50000 0.23636 -0.00000 0.74800
