data_crystal

_cell_length_a 14.49270
_cell_length_b 44.27300
_cell_length_c 50.10300
_cell_angle_alpha 90.00000
_cell_angle_beta  90.00000
_cell_angle_gamma 90.00000

_symmetry_space_group_name_	'P 1'
_symmetry_space_group_name_H-M	'P 1'

loop_
_symmetry_equiv_pos_as_xyz
  x,y,z

loop_
_atom_site_label
_atom_site_type_symbol
_atom_site_fract_x
_atom_site_fract_y
_atom_site_fract_z
_atom_site_charge
C 	C 	0.41670 0.60655 0.91544 0.47500
C 	C 	0.33005 0.58954 0.92059 -0.16900
C 	C 	0.25505 0.59416 0.90379 0.11900
H 	H 	0.25930 0.60790 0.88980 -0.01400
C 	C 	0.17364 0.57821 0.90787 -0.17600
C 	C 	0.16724 0.55765 0.92875 -0.00800
H 	H 	0.11280 0.54700 0.93150 0.05500
C 	C 	0.24224 0.55303 0.94555 0.06900
C 	C 	0.32365 0.56897 0.94147 -0.01200
H 	H 	0.37380 0.56590 0.95270 0.04800
C 	C 	0.09680 0.58330 0.88934 0.51900
C 	C 	0.17130 0.51793 0.97692 0.21900
C 	C 	0.19079 0.49695 0.00035 0.01100
C 	C 	0.12375 0.49318 0.01991 -0.10300
H 	H 	0.06820 0.50360 0.01870 0.09200
C 	C 	0.13979 0.47385 0.04128 0.07500
H 	H 	0.09490 0.47130 0.05440 0.00700
C 	C 	0.22286 0.45830 0.04309 -0.17400
C 	C 	0.28990 0.46206 0.02353 0.07300
H 	H 	0.34550 0.45170 0.02470 0.01300
C 	C 	0.27386 0.48139 0.00216 -0.10600
H 	H 	0.31870 0.48390 0.98910 0.06400
C 	C 	0.23900 0.43716 0.06608 0.51300
N 	N 	0.24360 0.53197 0.96745 -0.22100
H 	H 	0.29840 0.52820 0.97520 0.11600
O 	O 	0.48500 0.60119 0.93052 -0.47600
O 	O 	0.42850 0.62707 0.89966 -0.52300
O 	O 	0.13250 0.58595 0.86751 -0.47900
O 	O 	0.01400 0.58463 0.89463 -0.57100
O 	O 	0.09270 0.52094 0.96991 -0.24000
O 	O 	0.20660 0.44253 0.08804 -0.54200
O 	O 	0.28660 0.41636 0.05758 -0.47700
C 	C 	0.41670 0.10655 0.41544 0.47500
C 	C 	0.33005 0.08954 0.42059 -0.16900
C 	C 	0.25505 0.09416 0.40379 0.11900
H 	H 	0.25930 0.10790 0.38980 -0.01400
C 	C 	0.17364 0.07821 0.40787 -0.17600
C 	C 	0.16724 0.05765 0.42875 -0.00800
H 	H 	0.11280 0.04700 0.43150 0.05500
C 	C 	0.24224 0.05303 0.44555 0.06900
C 	C 	0.32365 0.06897 0.44147 -0.01200
H 	H 	0.37380 0.06590 0.45270 0.04800
C 	C 	0.09680 0.08330 0.38934 0.51900
C 	C 	0.17130 0.01793 0.47692 0.21900
C 	C 	0.19079 0.99695 0.50035 0.01100
C 	C 	0.12375 0.99318 0.51991 -0.10300
H 	H 	0.06820 0.00360 0.51870 0.09200
C 	C 	0.13979 0.97385 0.54128 0.07500
H 	H 	0.09490 0.97130 0.55440 0.00700
C 	C 	0.22286 0.95830 0.54309 -0.17400
C 	C 	0.28990 0.96206 0.52353 0.07300
H 	H 	0.34550 0.95170 0.52470 0.01300
C 	C 	0.27386 0.98139 0.50216 -0.10600
H 	H 	0.31870 0.98390 0.48910 0.06400
C 	C 	0.23900 0.93716 0.56608 0.51200
N 	N 	0.24360 0.03197 0.46745 -0.22200
H 	H 	0.29840 0.02820 0.47520 0.11500
O 	O 	0.48500 0.10119 0.43052 -0.47700
O 	O 	0.42850 0.12707 0.39966 -0.52400
O 	O 	0.13250 0.08595 0.36751 -0.48000
O 	O 	0.01400 0.08463 0.39463 -0.57200
O 	O 	0.09270 0.02094 0.46991 -0.24100
O 	O 	0.20660 0.94253 0.58804 -0.54300
O 	O 	0.28660 0.91636 0.55758 -0.47800
C 	C 	0.91670 0.60655 0.41544 0.47400
C 	C 	0.83005 0.58954 0.42059 -0.17000
C 	C 	0.75505 0.59416 0.40379 0.11800
H 	H 	0.75930 0.60790 0.38980 -0.01500
C 	C 	0.67364 0.57821 0.40787 -0.17700
C 	C 	0.66724 0.55765 0.42875 -0.00900
H 	H 	0.61280 0.54700 0.43150 0.05400
C 	C 	0.74224 0.55303 0.44555 0.06800
C 	C 	0.82365 0.56897 0.44147 -0.01300
H 	H 	0.87380 0.56590 0.45270 0.04700
C 	C 	0.59680 0.58330 0.38934 0.51800
C 	C 	0.67130 0.51793 0.47692 0.21800
C 	C 	0.69079 0.49695 0.50035 0.01000
C 	C 	0.62375 0.49318 0.51991 -0.10400
H 	H 	0.56820 0.50360 0.51870 0.09100
C 	C 	0.63979 0.47385 0.54128 0.07400
H 	H 	0.59490 0.47130 0.55440 0.00600
C 	C 	0.72286 0.45830 0.54309 -0.17500
C 	C 	0.78990 0.46206 0.52353 0.07200
H 	H 	0.84550 0.45170 0.52470 0.01200
C 	C 	0.77386 0.48139 0.50216 -0.10700
H 	H 	0.81870 0.48390 0.48910 0.06300
C 	C 	0.73900 0.43716 0.56608 0.51200
N 	N 	0.74360 0.53197 0.46745 -0.22200
H 	H 	0.79840 0.52820 0.47520 0.11500
O 	O 	0.98500 0.60119 0.43052 -0.47700
O 	O 	0.92850 0.62707 0.39966 -0.52400
O 	O 	0.63250 0.58595 0.36751 -0.48000
O 	O 	0.51400 0.58463 0.39463 -0.57200
O 	O 	0.59270 0.52094 0.46991 -0.24100
O 	O 	0.70660 0.44253 0.58804 -0.54300
O 	O 	0.78660 0.41636 0.55758 -0.47800
C 	C 	0.91670 0.10655 0.91544 0.47400
C 	C 	0.83005 0.08954 0.92059 -0.17000
C 	C 	0.75505 0.09416 0.90379 0.11800
H 	H 	0.75930 0.10790 0.88980 -0.01500
C 	C 	0.67364 0.07821 0.90787 -0.17700
C 	C 	0.66724 0.05765 0.92875 -0.00900
H 	H 	0.61280 0.04700 0.93150 0.05400
C 	C 	0.74224 0.05303 0.94555 0.06800
C 	C 	0.82365 0.06897 0.94147 -0.01300
H 	H 	0.87380 0.06590 0.95270 0.04700
C 	C 	0.59680 0.08330 0.88934 0.51800
C 	C 	0.67130 0.01793 0.97692 0.21800
C 	C 	0.69079 0.99695 0.00035 0.01000
C 	C 	0.62375 0.99318 0.01991 -0.10400
H 	H 	0.56820 0.00360 0.01870 0.09100
C 	C 	0.63979 0.97385 0.04128 0.07400
H 	H 	0.59490 0.97130 0.05440 0.00600
C 	C 	0.72286 0.95830 0.04309 -0.17500
C 	C 	0.78990 0.96206 0.02353 0.07200
H 	H 	0.84550 0.95170 0.02470 0.01200
C 	C 	0.77386 0.98139 0.00216 -0.10700
H 	H 	0.81870 0.98390 0.98910 0.06300
C 	C 	0.73900 0.93716 0.06608 0.51200
N 	N 	0.74360 0.03197 0.96745 -0.22200
H 	H 	0.79840 0.02820 0.97520 0.11500
O 	O 	0.98500 0.10119 0.93052 -0.47700
O 	O 	0.92850 0.12707 0.89966 -0.52400
O 	O 	0.63250 0.08595 0.86751 -0.48000
O 	O 	0.51400 0.08463 0.89463 -0.57200
O 	O 	0.59270 0.02094 0.96991 -0.24100
O 	O 	0.70660 0.94253 0.08804 -0.54300
O 	O 	0.78660 0.91636 0.05758 -0.47800
C 	C 	0.33330 0.14345 0.91544 0.47400
C 	C 	0.41995 0.16046 0.92059 -0.17000
C 	C 	0.49495 0.15584 0.90379 0.11800
H 	H 	0.49070 0.14210 0.88980 -0.01500
C 	C 	0.57636 0.17179 0.90787 -0.17700
C 	C 	0.58276 0.19235 0.92875 -0.00900
H 	H 	0.63720 0.20300 0.93150 0.05400
C 	C 	0.50776 0.19697 0.94555 0.06800
C 	C 	0.42635 0.18103 0.94147 -0.01300
H 	H 	0.37620 0.18410 0.95270 0.04700
C 	C 	0.65320 0.16670 0.88934 0.51800
C 	C 	0.57870 0.23207 0.97692 0.21800
C 	C 	0.55921 0.25305 0.00035 0.01000
C 	C 	0.62625 0.25682 0.01991 -0.10400
H 	H 	0.68180 0.24640 0.01870 0.09100
C 	C 	0.61021 0.27615 0.04128 0.07400
H 	H 	0.65510 0.27870 0.05440 0.00600
C 	C 	0.52714 0.29170 0.04309 -0.17500
C 	C 	0.46010 0.28794 0.02353 0.07200
H 	H 	0.40450 0.29830 0.02470 0.01200
C 	C 	0.47614 0.26861 0.00216 -0.10700
H 	H 	0.43130 0.26610 0.98910 0.06300
C 	C 	0.51100 0.31284 0.06608 0.51200
N 	N 	0.50640 0.21803 0.96745 -0.22200
H 	H 	0.45160 0.22180 0.97520 0.11500
O 	O 	0.26500 0.14881 0.93052 -0.47700
O 	O 	0.32150 0.12293 0.89966 -0.52400
O 	O 	0.61750 0.16405 0.86751 -0.48000
O 	O 	0.73600 0.16537 0.89463 -0.57200
O 	O 	0.65730 0.22906 0.96991 -0.24100
O 	O 	0.54340 0.30747 0.08804 -0.54300
O 	O 	0.46340 0.33364 0.05758 -0.47800
C 	C 	0.33330 0.64345 0.41544 0.47400
C 	C 	0.41995 0.66046 0.42059 -0.17000
C 	C 	0.49495 0.65584 0.40379 0.11800
H 	H 	0.49070 0.64210 0.38980 -0.01500
C 	C 	0.57636 0.67179 0.40787 -0.17700
C 	C 	0.58276 0.69235 0.42875 -0.00900
H 	H 	0.63720 0.70300 0.43150 0.05400
C 	C 	0.50776 0.69697 0.44555 0.06800
C 	C 	0.42635 0.68103 0.44147 -0.01300
H 	H 	0.37620 0.68410 0.45270 0.04700
C 	C 	0.65320 0.66670 0.38934 0.51800
C 	C 	0.57870 0.73207 0.47692 0.21800
C 	C 	0.55921 0.75305 0.50035 0.01000
C 	C 	0.62625 0.75682 0.51991 -0.10400
H 	H 	0.68180 0.74640 0.51870 0.09100
C 	C 	0.61021 0.77615 0.54128 0.07400
H 	H 	0.65510 0.77870 0.55440 0.00600
C 	C 	0.52714 0.79170 0.54309 -0.17500
C 	C 	0.46010 0.78794 0.52353 0.07200
H 	H 	0.40450 0.79830 0.52470 0.01200
C 	C 	0.47614 0.76861 0.50216 -0.10700
H 	H 	0.43130 0.76610 0.48910 0.06300
C 	C 	0.51100 0.81284 0.56608 0.51200
N 	N 	0.50640 0.71803 0.46745 -0.22200
H 	H 	0.45160 0.72180 0.47520 0.11500
O 	O 	0.26500 0.64881 0.43052 -0.47700
O 	O 	0.32150 0.62293 0.39966 -0.52400
O 	O 	0.61750 0.66405 0.36751 -0.48000
O 	O 	0.73600 0.66537 0.39463 -0.57200
O 	O 	0.65730 0.72906 0.46991 -0.24100
O 	O 	0.54340 0.80747 0.58804 -0.54300
O 	O 	0.46340 0.83364 0.55758 -0.47800
C 	C 	0.83330 0.14345 0.41544 0.47400
C 	C 	0.91995 0.16046 0.42059 -0.17000
C 	C 	0.99495 0.15584 0.40379 0.11800
H 	H 	0.99070 0.14210 0.38980 -0.01500
C 	C 	0.07636 0.17179 0.40787 -0.17700
C 	C 	0.08276 0.19235 0.42875 -0.00900
H 	H 	0.13720 0.20300 0.43150 0.05400
C 	C 	0.00776 0.19697 0.44555 0.06800
C 	C 	0.92635 0.18103 0.44147 -0.01400
H 	H 	0.87620 0.18410 0.45270 0.04700
C 	C 	0.15320 0.16670 0.38934 0.51800
C 	C 	0.07870 0.23207 0.47692 0.21800
C 	C 	0.05921 0.25305 0.50035 0.01000
C 	C 	0.12625 0.25682 0.51991 -0.10400
H 	H 	0.18180 0.24640 0.51870 0.09100
C 	C 	0.11021 0.27615 0.54128 0.07400
H 	H 	0.15510 0.27870 0.55440 0.00600
C 	C 	0.02714 0.29170 0.54309 -0.17500
C 	C 	0.96010 0.28794 0.52353 0.07200
H 	H 	0.90450 0.29830 0.52470 0.01200
C 	C 	0.97614 0.26861 0.50216 -0.10700
H 	H 	0.93130 0.26610 0.48910 0.06300
C 	C 	0.01100 0.31284 0.56608 0.51200
N 	N 	0.00640 0.21803 0.46745 -0.22200
H 	H 	0.95160 0.22180 0.47520 0.11500
O 	O 	0.76500 0.14881 0.43052 -0.47700
O 	O 	0.82150 0.12293 0.39966 -0.52400
O 	O 	0.11750 0.16405 0.36751 -0.48000
O 	O 	0.23600 0.16537 0.39463 -0.57200
O 	O 	0.15730 0.22906 0.46991 -0.24100
O 	O 	0.04340 0.30747 0.58804 -0.54300
O 	O 	0.96340 0.33364 0.55758 -0.47800
C 	C 	0.83330 0.64345 0.91544 0.47400
C 	C 	0.91995 0.66046 0.92059 -0.17000
C 	C 	0.99495 0.65584 0.90379 0.11800
H 	H 	0.99070 0.64210 0.88980 -0.01500
C 	C 	0.07636 0.67179 0.90787 -0.17700
C 	C 	0.08276 0.69235 0.92875 -0.00900
H 	H 	0.13720 0.70300 0.93150 0.05400
C 	C 	0.00776 0.69697 0.94555 0.06800
C 	C 	0.92635 0.68103 0.94147 -0.01400
H 	H 	0.87620 0.68410 0.95270 0.04700
C 	C 	0.15320 0.66670 0.88934 0.51800
C 	C 	0.07870 0.73207 0.97692 0.21800
C 	C 	0.05921 0.75305 0.00035 0.01000
C 	C 	0.12625 0.75682 0.01991 -0.10400
H 	H 	0.18180 0.74640 0.01870 0.09100
C 	C 	0.11021 0.77615 0.04128 0.07400
H 	H 	0.15510 0.77870 0.05440 0.00600
C 	C 	0.02714 0.79170 0.04309 -0.17500
C 	C 	0.96010 0.78794 0.02353 0.07200
H 	H 	0.90450 0.79830 0.02470 0.01200
C 	C 	0.97614 0.76861 0.00216 -0.10700
H 	H 	0.93130 0.76610 0.98910 0.06300
C 	C 	0.01100 0.81284 0.06608 0.51200
N 	N 	0.00640 0.71803 0.96745 -0.22200
H 	H 	0.95160 0.72180 0.97520 0.11500
O 	O 	0.76500 0.64881 0.93052 -0.47700
O 	O 	0.82150 0.62293 0.89966 -0.52400
O 	O 	0.11750 0.66405 0.86751 -0.48000
O 	O 	0.23600 0.66537 0.89463 -0.57200
O 	O 	0.15730 0.72906 0.96991 -0.24100
O 	O 	0.04340 0.80747 0.08804 -0.54300
O 	O 	0.96340 0.83364 0.05758 -0.47800
C 	C 	0.33330 0.60655 0.83456 0.47400
C 	C 	0.41995 0.58954 0.82941 -0.17000
C 	C 	0.49495 0.59416 0.84621 0.11800
H 	H 	0.49070 0.60790 0.86020 -0.01500
C 	C 	0.57636 0.57821 0.84213 -0.17700
C 	C 	0.58276 0.55765 0.82125 -0.00900
H 	H 	0.63720 0.54700 0.81850 0.05400
C 	C 	0.50776 0.55303 0.80445 0.06800
C 	C 	0.42635 0.56897 0.80853 -0.01300
H 	H 	0.37620 0.56590 0.79730 0.04700
C 	C 	0.65320 0.58330 0.86066 0.51800
C 	C 	0.57870 0.51793 0.77308 0.21800
C 	C 	0.55921 0.49695 0.74965 0.01000
C 	C 	0.62625 0.49318 0.73009 -0.10400
H 	H 	0.68180 0.50360 0.73130 0.09100
C 	C 	0.61021 0.47385 0.70872 0.07400
H 	H 	0.65510 0.47130 0.69560 0.00600
C 	C 	0.52714 0.45830 0.70691 -0.17500
C 	C 	0.46010 0.46206 0.72647 0.07200
H 	H 	0.40450 0.45170 0.72530 0.01200
C 	C 	0.47614 0.48139 0.74784 -0.10700
H 	H 	0.43130 0.48390 0.76090 0.06300
C 	C 	0.51100 0.43716 0.68392 0.51200
N 	N 	0.50640 0.53197 0.78255 -0.22200
H 	H 	0.45160 0.52820 0.77480 0.11500
O 	O 	0.26500 0.60119 0.81948 -0.47700
O 	O 	0.32150 0.62707 0.85034 -0.52400
O 	O 	0.61750 0.58595 0.88249 -0.48000
O 	O 	0.73600 0.58463 0.85537 -0.57200
O 	O 	0.65730 0.52094 0.78009 -0.24100
O 	O 	0.54340 0.44253 0.66196 -0.54300
O 	O 	0.46340 0.41636 0.69242 -0.47800
C 	C 	0.33330 0.10655 0.33456 0.47400
C 	C 	0.41995 0.08954 0.32941 -0.17000
C 	C 	0.49495 0.09416 0.34621 0.11800
H 	H 	0.49070 0.10790 0.36020 -0.01500
C 	C 	0.57636 0.07821 0.34213 -0.17700
C 	C 	0.58276 0.05765 0.32125 -0.00900
H 	H 	0.63720 0.04700 0.31850 0.05400
C 	C 	0.50776 0.05303 0.30445 0.06800
C 	C 	0.42635 0.06897 0.30853 -0.01300
H 	H 	0.37620 0.06590 0.29730 0.04700
C 	C 	0.65320 0.08330 0.36066 0.51800
C 	C 	0.57870 0.01793 0.27308 0.21800
C 	C 	0.55921 0.99695 0.24965 0.01000
C 	C 	0.62625 0.99318 0.23009 -0.10400
H 	H 	0.68180 0.00360 0.23130 0.09100
C 	C 	0.61021 0.97385 0.20872 0.07400
H 	H 	0.65510 0.97130 0.19560 0.00600
C 	C 	0.52714 0.95830 0.20691 -0.17500
C 	C 	0.46010 0.96206 0.22647 0.07200
H 	H 	0.40450 0.95170 0.22530 0.01200
C 	C 	0.47614 0.98139 0.24784 -0.10700
H 	H 	0.43130 0.98390 0.26090 0.06300
C 	C 	0.51100 0.93716 0.18392 0.51200
N 	N 	0.50640 0.03197 0.28255 -0.22200
H 	H 	0.45160 0.02820 0.27480 0.11500
O 	O 	0.26500 0.10119 0.31948 -0.47700
O 	O 	0.32150 0.12707 0.35034 -0.52400
O 	O 	0.61750 0.08595 0.38249 -0.48000
O 	O 	0.73600 0.08463 0.35537 -0.57200
O 	O 	0.65730 0.02094 0.28009 -0.24100
O 	O 	0.54340 0.94253 0.16196 -0.54300
O 	O 	0.46340 0.91636 0.19242 -0.47800
C 	C 	0.83330 0.60655 0.33456 0.47400
C 	C 	0.91995 0.58954 0.32941 -0.17000
C 	C 	0.99495 0.59416 0.34621 0.11800
H 	H 	0.99070 0.60790 0.36020 -0.01500
C 	C 	0.07636 0.57821 0.34213 -0.17700
C 	C 	0.08276 0.55765 0.32125 -0.00900
H 	H 	0.13720 0.54700 0.31850 0.05400
C 	C 	0.00776 0.55303 0.30445 0.06800
C 	C 	0.92635 0.56897 0.30853 -0.01400
H 	H 	0.87620 0.56590 0.29730 0.04700
C 	C 	0.15320 0.58330 0.36066 0.51800
C 	C 	0.07870 0.51793 0.27308 0.21800
C 	C 	0.05921 0.49695 0.24965 0.01000
C 	C 	0.12625 0.49318 0.23009 -0.10400
H 	H 	0.18180 0.50360 0.23130 0.09100
C 	C 	0.11021 0.47385 0.20872 0.07400
H 	H 	0.15510 0.47130 0.19560 0.00600
C 	C 	0.02714 0.45830 0.20691 -0.17500
C 	C 	0.96010 0.46206 0.22647 0.07200
H 	H 	0.90450 0.45170 0.22530 0.01200
C 	C 	0.97614 0.48139 0.24784 -0.10700
H 	H 	0.93130 0.48390 0.26090 0.06300
C 	C 	0.01100 0.43716 0.18392 0.51200
N 	N 	0.00640 0.53197 0.28255 -0.22200
H 	H 	0.95160 0.52820 0.27480 0.11500
O 	O 	0.76500 0.60119 0.31948 -0.47700
O 	O 	0.82150 0.62707 0.35034 -0.52400
O 	O 	0.11750 0.58595 0.38249 -0.48000
O 	O 	0.23600 0.58463 0.35537 -0.57200
O 	O 	0.15730 0.52094 0.28009 -0.24100
O 	O 	0.04340 0.44253 0.16196 -0.54300
O 	O 	0.96340 0.41636 0.19242 -0.47800
C 	C 	0.83330 0.10655 0.83456 0.47400
C 	C 	0.91995 0.08954 0.82941 -0.16900
C 	C 	0.99495 0.09416 0.84621 0.11800
H 	H 	0.99070 0.10790 0.86020 -0.01500
C 	C 	0.07636 0.07821 0.84213 -0.17700
C 	C 	0.08276 0.05765 0.82125 -0.00900
H 	H 	0.13720 0.04700 0.81850 0.05400
C 	C 	0.00776 0.05303 0.80445 0.06800
C 	C 	0.92635 0.06897 0.80853 -0.01400
H 	H 	0.87620 0.06590 0.79730 0.04700
C 	C 	0.15320 0.08330 0.86066 0.51800
C 	C 	0.07870 0.01793 0.77308 0.21800
C 	C 	0.05921 0.99695 0.74965 0.01000
C 	C 	0.12625 0.99318 0.73009 -0.10400
H 	H 	0.18180 0.00360 0.73130 0.09100
C 	C 	0.11021 0.97385 0.70872 0.07400
H 	H 	0.15510 0.97130 0.69560 0.00600
C 	C 	0.02714 0.95830 0.70691 -0.17500
C 	C 	0.96010 0.96206 0.72647 0.07200
H 	H 	0.90450 0.95170 0.72530 0.01200
C 	C 	0.97614 0.98139 0.74784 -0.10700
H 	H 	0.93130 0.98390 0.76090 0.06300
C 	C 	0.01100 0.93716 0.68392 0.51200
N 	N 	0.00640 0.03197 0.78255 -0.22200
H 	H 	0.95160 0.02820 0.77480 0.11500
O 	O 	0.76500 0.10119 0.81948 -0.47700
O 	O 	0.82150 0.12707 0.85034 -0.52400
O 	O 	0.11750 0.08595 0.88249 -0.48000
O 	O 	0.23600 0.08463 0.85537 -0.57200
O 	O 	0.15730 0.02094 0.78009 -0.24100
O 	O 	0.04340 0.94253 0.66196 -0.54300
O 	O 	0.96340 0.91636 0.69242 -0.47800
C 	C 	0.41670 0.14345 0.83456 0.47400
C 	C 	0.33005 0.16046 0.82941 -0.17000
C 	C 	0.25505 0.15584 0.84621 0.11800
H 	H 	0.25930 0.14210 0.86020 -0.01500
C 	C 	0.17364 0.17179 0.84213 -0.17700
C 	C 	0.16724 0.19235 0.82125 -0.00900
H 	H 	0.11280 0.20300 0.81850 0.05400
C 	C 	0.24224 0.19697 0.80445 0.06800
C 	C 	0.32365 0.18103 0.80853 -0.01300
H 	H 	0.37380 0.18410 0.79730 0.04700
C 	C 	0.09680 0.16670 0.86066 0.51800
C 	C 	0.17130 0.23207 0.77308 0.21800
C 	C 	0.19079 0.25305 0.74965 0.01000
C 	C 	0.12375 0.25682 0.73009 -0.10400
H 	H 	0.06820 0.24640 0.73130 0.09100
C 	C 	0.13979 0.27615 0.70872 0.07400
H 	H 	0.09490 0.27870 0.69560 0.00600
C 	C 	0.22286 0.29170 0.70691 -0.17500
C 	C 	0.28990 0.28794 0.72647 0.07200
H 	H 	0.34550 0.29830 0.72530 0.01200
C 	C 	0.27386 0.26861 0.74784 -0.10700
H 	H 	0.31870 0.26610 0.76090 0.06300
C 	C 	0.23900 0.31284 0.68392 0.51200
N 	N 	0.24360 0.21803 0.78255 -0.22200
H 	H 	0.29840 0.22180 0.77480 0.11500
O 	O 	0.48500 0.14881 0.81948 -0.47700
O 	O 	0.42850 0.12293 0.85034 -0.52400
O 	O 	0.13250 0.16405 0.88249 -0.48000
O 	O 	0.01400 0.16537 0.85537 -0.57200
O 	O 	0.09270 0.22906 0.78009 -0.24100
O 	O 	0.20660 0.30747 0.66196 -0.54300
O 	O 	0.28660 0.33364 0.69242 -0.47800
C 	C 	0.41670 0.64345 0.33456 0.47400
C 	C 	0.33005 0.66046 0.32941 -0.17000
C 	C 	0.25505 0.65584 0.34621 0.11800
H 	H 	0.25930 0.64210 0.36020 -0.01500
C 	C 	0.17364 0.67179 0.34213 -0.17700
C 	C 	0.16724 0.69235 0.32125 -0.00900
H 	H 	0.11280 0.70300 0.31850 0.05400
C 	C 	0.24224 0.69697 0.30445 0.06800
C 	C 	0.32365 0.68103 0.30853 -0.01300
H 	H 	0.37380 0.68410 0.29730 0.04700
C 	C 	0.09680 0.66670 0.36066 0.51800
C 	C 	0.17130 0.73207 0.27308 0.21800
C 	C 	0.19079 0.75305 0.24965 0.01000
C 	C 	0.12375 0.75682 0.23009 -0.10400
H 	H 	0.06820 0.74640 0.23130 0.09100
C 	C 	0.13979 0.77615 0.20872 0.07400
H 	H 	0.09490 0.77870 0.19560 0.00600
C 	C 	0.22286 0.79170 0.20691 -0.17500
C 	C 	0.28990 0.78794 0.22647 0.07200
H 	H 	0.34550 0.79830 0.22530 0.01200
C 	C 	0.27386 0.76861 0.24784 -0.10700
H 	H 	0.31870 0.76610 0.26090 0.06300
C 	C 	0.23900 0.81284 0.18392 0.51200
N 	N 	0.24360 0.71803 0.28255 -0.22200
H 	H 	0.29840 0.72180 0.27480 0.11500
O 	O 	0.48500 0.64881 0.31948 -0.47700
O 	O 	0.42850 0.62293 0.35034 -0.52400
O 	O 	0.13250 0.66405 0.38249 -0.48000
O 	O 	0.01400 0.66537 0.35537 -0.57200
O 	O 	0.09270 0.72906 0.28009 -0.24100
O 	O 	0.20660 0.80747 0.16196 -0.54300
O 	O 	0.28660 0.83364 0.19242 -0.47800
C 	C 	0.91670 0.14345 0.33456 0.47400
C 	C 	0.83005 0.16046 0.32941 -0.17000
C 	C 	0.75505 0.15584 0.34621 0.11800
H 	H 	0.75930 0.14210 0.36020 -0.01500
C 	C 	0.67364 0.17179 0.34213 -0.17700
C 	C 	0.66724 0.19235 0.32125 -0.00900
H 	H 	0.61280 0.20300 0.31850 0.05400
C 	C 	0.74224 0.19697 0.30445 0.06800
C 	C 	0.82365 0.18103 0.30853 -0.01300
H 	H 	0.87380 0.18410 0.29730 0.04700
C 	C 	0.59680 0.16670 0.36066 0.51800
C 	C 	0.67130 0.23207 0.27308 0.21800
C 	C 	0.69079 0.25305 0.24965 0.01000
C 	C 	0.62375 0.25682 0.23009 -0.10400
H 	H 	0.56820 0.24640 0.23130 0.09100
C 	C 	0.63979 0.27615 0.20872 0.07400
H 	H 	0.59490 0.27870 0.19560 0.00600
C 	C 	0.72286 0.29170 0.20691 -0.17500
C 	C 	0.78990 0.28794 0.22647 0.07200
H 	H 	0.84550 0.29830 0.22530 0.01200
C 	C 	0.77386 0.26861 0.24784 -0.10700
H 	H 	0.81870 0.26610 0.26090 0.06300
C 	C 	0.73900 0.31284 0.18392 0.51200
N 	N 	0.74360 0.21803 0.28255 -0.22200
H 	H 	0.79840 0.22180 0.27480 0.11500
O 	O 	0.98500 0.14881 0.31948 -0.47700
O 	O 	0.92850 0.12293 0.35034 -0.52400
O 	O 	0.63250 0.16405 0.38249 -0.48000
O 	O 	0.51400 0.16537 0.35537 -0.57200
O 	O 	0.59270 0.22906 0.28009 -0.24100
O 	O 	0.70660 0.30747 0.16196 -0.54300
O 	O 	0.78660 0.33364 0.19242 -0.47800
C 	C 	0.91670 0.64345 0.83456 0.47400
C 	C 	0.83005 0.66046 0.82941 -0.17000
C 	C 	0.75505 0.65584 0.84621 0.11800
H 	H 	0.75930 0.64210 0.86020 -0.01500
C 	C 	0.67364 0.67179 0.84213 -0.17700
C 	C 	0.66724 0.69235 0.82125 -0.00900
H 	H 	0.61280 0.70300 0.81850 0.05400
C 	C 	0.74224 0.69697 0.80445 0.06800
C 	C 	0.82365 0.68103 0.80853 -0.01300
H 	H 	0.87380 0.68410 0.79730 0.04700
C 	C 	0.59680 0.66670 0.86066 0.51800
C 	C 	0.67130 0.73207 0.77308 0.21800
C 	C 	0.69079 0.75305 0.74965 0.01000
C 	C 	0.62375 0.75682 0.73009 -0.10400
H 	H 	0.56820 0.74640 0.73130 0.09100
C 	C 	0.63979 0.77615 0.70872 0.07400
H 	H 	0.59490 0.77870 0.69560 0.00600
C 	C 	0.72286 0.79170 0.70691 -0.17500
C 	C 	0.78990 0.78794 0.72647 0.07200
H 	H 	0.84550 0.79830 0.72530 0.01200
C 	C 	0.77386 0.76861 0.74784 -0.10700
H 	H 	0.81870 0.76610 0.76090 0.06300
C 	C 	0.73900 0.81284 0.68392 0.51200
N 	N 	0.74360 0.71803 0.78255 -0.22200
H 	H 	0.79840 0.72180 0.77480 0.11500
O 	O 	0.98500 0.64881 0.81948 -0.47700
O 	O 	0.92850 0.62293 0.85034 -0.52400
O 	O 	0.63250 0.66405 0.88249 -0.48000
O 	O 	0.51400 0.66537 0.85537 -0.57200
O 	O 	0.59270 0.72906 0.78009 -0.24100
O 	O 	0.70660 0.80747 0.66196 -0.54300
O 	O 	0.78660 0.83364 0.69242 -0.47800
C 	C 	0.58330 0.39345 0.08456 0.47400
C 	C 	0.66995 0.41046 0.07941 -0.17000
C 	C 	0.74495 0.40584 0.09621 0.11800
H 	H 	0.74070 0.39210 0.11020 -0.01500
C 	C 	0.82636 0.42179 0.09213 -0.17700
C 	C 	0.83276 0.44235 0.07125 -0.00900
H 	H 	0.88720 0.45300 0.06850 0.05400
C 	C 	0.75776 0.44697 0.05445 0.06800
C 	C 	0.67635 0.43103 0.05853 -0.01300
H 	H 	0.62620 0.43410 0.04730 0.04700
C 	C 	0.90320 0.41670 0.11066 0.51800
C 	C 	0.82870 0.48207 0.02308 0.21800
C 	C 	0.80921 0.50305 0.99965 0.01000
C 	C 	0.87625 0.50682 0.98009 -0.10400
H 	H 	0.93180 0.49640 0.98130 0.09100
C 	C 	0.86021 0.52615 0.95872 0.07400
H 	H 	0.90510 0.52870 0.94560 0.00600
C 	C 	0.77714 0.54170 0.95691 -0.17500
C 	C 	0.71010 0.53794 0.97647 0.07200
H 	H 	0.65450 0.54830 0.97530 0.01200
C 	C 	0.72614 0.51861 0.99784 -0.10700
H 	H 	0.68130 0.51610 0.01090 0.06300
C 	C 	0.76100 0.56284 0.93392 0.51200
N 	N 	0.75640 0.46803 0.03255 -0.22200
H 	H 	0.70160 0.47180 0.02480 0.11500
O 	O 	0.51500 0.39881 0.06948 -0.47700
O 	O 	0.57150 0.37293 0.10034 -0.52400
O 	O 	0.86750 0.41405 0.13249 -0.48000
O 	O 	0.98600 0.41537 0.10537 -0.57200
O 	O 	0.90730 0.47906 0.03009 -0.24100
O 	O 	0.79340 0.55747 0.91196 -0.54300
O 	O 	0.71340 0.58364 0.94242 -0.47800
C 	C 	0.58330 0.89345 0.58456 0.47400
C 	C 	0.66995 0.91046 0.57941 -0.17000
C 	C 	0.74495 0.90584 0.59621 0.11800
H 	H 	0.74070 0.89210 0.61020 -0.01500
C 	C 	0.82636 0.92179 0.59213 -0.17700
C 	C 	0.83276 0.94235 0.57125 -0.00900
H 	H 	0.88720 0.95300 0.56850 0.05400
C 	C 	0.75776 0.94697 0.55445 0.06800
C 	C 	0.67635 0.93103 0.55853 -0.01300
H 	H 	0.62620 0.93410 0.54730 0.04700
C 	C 	0.90320 0.91670 0.61066 0.51800
C 	C 	0.82870 0.98207 0.52308 0.21800
C 	C 	0.80921 0.00305 0.49965 0.01000
C 	C 	0.87625 0.00682 0.48009 -0.10400
H 	H 	0.93180 0.99640 0.48130 0.09100
C 	C 	0.86021 0.02615 0.45872 0.07400
H 	H 	0.90510 0.02870 0.44560 0.00600
C 	C 	0.77714 0.04170 0.45691 -0.17500
C 	C 	0.71010 0.03794 0.47647 0.07200
H 	H 	0.65450 0.04830 0.47530 0.01200
C 	C 	0.72614 0.01861 0.49784 -0.10700
H 	H 	0.68130 0.01610 0.51090 0.06300
C 	C 	0.76100 0.06284 0.43392 0.51200
N 	N 	0.75640 0.96803 0.53255 -0.22200
H 	H 	0.70160 0.97180 0.52480 0.11500
O 	O 	0.51500 0.89881 0.56948 -0.47700
O 	O 	0.57150 0.87293 0.60034 -0.52400
O 	O 	0.86750 0.91405 0.63249 -0.48000
O 	O 	0.98600 0.91537 0.60537 -0.57200
O 	O 	0.90730 0.97906 0.53009 -0.24100
O 	O 	0.79340 0.05747 0.41196 -0.54300
O 	O 	0.71340 0.08364 0.44242 -0.47800
C 	C 	0.08330 0.39345 0.58456 0.47400
C 	C 	0.16995 0.41046 0.57941 -0.17000
C 	C 	0.24495 0.40584 0.59621 0.11800
H 	H 	0.24070 0.39210 0.61020 -0.01500
C 	C 	0.32636 0.42179 0.59213 -0.17700
C 	C 	0.33276 0.44235 0.57125 -0.00900
H 	H 	0.38720 0.45300 0.56850 0.05400
C 	C 	0.25776 0.44697 0.55445 0.06800
C 	C 	0.17635 0.43103 0.55853 -0.01300
H 	H 	0.12620 0.43410 0.54730 0.04700
C 	C 	0.40320 0.41670 0.61066 0.51800
C 	C 	0.32870 0.48207 0.52308 0.21800
C 	C 	0.30921 0.50305 0.49965 0.01000
C 	C 	0.37625 0.50682 0.48009 -0.10400
H 	H 	0.43180 0.49640 0.48130 0.09100
C 	C 	0.36021 0.52615 0.45872 0.07400
H 	H 	0.40510 0.52870 0.44560 0.00600
C 	C 	0.27714 0.54170 0.45691 -0.17500
C 	C 	0.21010 0.53794 0.47647 0.07200
H 	H 	0.15450 0.54830 0.47530 0.01200
C 	C 	0.22614 0.51861 0.49784 -0.10700
H 	H 	0.18130 0.51610 0.51090 0.06300
C 	C 	0.26100 0.56284 0.43392 0.51200
N 	N 	0.25640 0.46803 0.53255 -0.22200
H 	H 	0.20160 0.47180 0.52480 0.11500
O 	O 	0.01500 0.39881 0.56948 -0.47700
O 	O 	0.07150 0.37293 0.60034 -0.52400
O 	O 	0.36750 0.41405 0.63249 -0.48000
O 	O 	0.48600 0.41537 0.60537 -0.57200
O 	O 	0.40730 0.47906 0.53009 -0.24100
O 	O 	0.29340 0.55747 0.41196 -0.54300
O 	O 	0.21340 0.58364 0.44242 -0.47800
C 	C 	0.08330 0.89345 0.08456 0.47400
C 	C 	0.16995 0.91046 0.07941 -0.17000
C 	C 	0.24495 0.90584 0.09621 0.11800
H 	H 	0.24070 0.89210 0.11020 -0.01500
C 	C 	0.32636 0.92179 0.09213 -0.17700
C 	C 	0.33276 0.94235 0.07125 -0.00900
H 	H 	0.38720 0.95300 0.06850 0.05400
C 	C 	0.25776 0.94697 0.05445 0.06800
C 	C 	0.17635 0.93103 0.05853 -0.01300
H 	H 	0.12620 0.93410 0.04730 0.04700
C 	C 	0.40320 0.91670 0.11066 0.51800
C 	C 	0.32870 0.98207 0.02308 0.21800
C 	C 	0.30921 0.00305 0.99965 0.01000
C 	C 	0.37625 0.00682 0.98009 -0.10400
H 	H 	0.43180 0.99640 0.98130 0.09100
C 	C 	0.36021 0.02615 0.95872 0.07400
H 	H 	0.40510 0.02870 0.94560 0.00600
C 	C 	0.27714 0.04170 0.95691 -0.17500
C 	C 	0.21010 0.03794 0.97647 0.07200
H 	H 	0.15450 0.04830 0.97530 0.01200
C 	C 	0.22614 0.01861 0.99784 -0.10700
H 	H 	0.18130 0.01610 0.01090 0.06300
C 	C 	0.26100 0.06284 0.93392 0.51200
N 	N 	0.25640 0.96803 0.03255 -0.22200
H 	H 	0.20160 0.97180 0.02480 0.11500
O 	O 	0.01500 0.89881 0.06948 -0.47700
O 	O 	0.07150 0.87293 0.10034 -0.52400
O 	O 	0.36750 0.91405 0.13249 -0.48000
O 	O 	0.48600 0.91537 0.10537 -0.57200
O 	O 	0.40730 0.97906 0.03009 -0.24100
O 	O 	0.29340 0.05747 0.91196 -0.54300
O 	O 	0.21340 0.08364 0.94242 -0.47800
C 	C 	0.66670 0.85655 0.08456 0.47400
C 	C 	0.58005 0.83954 0.07941 -0.17000
C 	C 	0.50505 0.84416 0.09621 0.11800
H 	H 	0.50930 0.85790 0.11020 -0.01500
C 	C 	0.42364 0.82821 0.09213 -0.17700
C 	C 	0.41724 0.80765 0.07125 -0.00900
H 	H 	0.36280 0.79700 0.06850 0.05400
C 	C 	0.49224 0.80303 0.05445 0.06800
C 	C 	0.57365 0.81897 0.05853 -0.01300
H 	H 	0.62380 0.81590 0.04730 0.04700
C 	C 	0.34680 0.83330 0.11066 0.51800
C 	C 	0.42130 0.76793 0.02308 0.21800
C 	C 	0.44079 0.74695 0.99965 0.01000
C 	C 	0.37375 0.74318 0.98009 -0.10400
H 	H 	0.31820 0.75360 0.98130 0.09100
C 	C 	0.38979 0.72385 0.95872 0.07400
H 	H 	0.34490 0.72130 0.94560 0.00600
C 	C 	0.47286 0.70830 0.95691 -0.17500
C 	C 	0.53990 0.71206 0.97647 0.07200
H 	H 	0.59550 0.70170 0.97530 0.01200
C 	C 	0.52386 0.73139 0.99784 -0.10700
H 	H 	0.56870 0.73390 0.01090 0.06300
C 	C 	0.48900 0.68716 0.93392 0.51200
N 	N 	0.49360 0.78197 0.03255 -0.22200
H 	H 	0.54840 0.77820 0.02480 0.11500
O 	O 	0.73500 0.85119 0.06948 -0.47700
O 	O 	0.67850 0.87707 0.10034 -0.52400
O 	O 	0.38250 0.83595 0.13249 -0.48000
O 	O 	0.26400 0.83463 0.10537 -0.57200
O 	O 	0.34270 0.77094 0.03009 -0.24100
O 	O 	0.45660 0.69253 0.91196 -0.54300
O 	O 	0.53660 0.66636 0.94242 -0.47800
C 	C 	0.66670 0.35655 0.58456 0.47400
C 	C 	0.58005 0.33954 0.57941 -0.17000
C 	C 	0.50505 0.34416 0.59621 0.11800
H 	H 	0.50930 0.35790 0.61020 -0.01500
C 	C 	0.42364 0.32821 0.59213 -0.17700
C 	C 	0.41724 0.30765 0.57125 -0.00900
H 	H 	0.36280 0.29700 0.56850 0.05400
C 	C 	0.49224 0.30303 0.55445 0.06800
C 	C 	0.57365 0.31897 0.55853 -0.01300
H 	H 	0.62380 0.31590 0.54730 0.04700
C 	C 	0.34680 0.33330 0.61066 0.51800
C 	C 	0.42130 0.26793 0.52308 0.21800
C 	C 	0.44079 0.24695 0.49965 0.01000
C 	C 	0.37375 0.24318 0.48009 -0.10400
H 	H 	0.31820 0.25360 0.48130 0.09100
C 	C 	0.38979 0.22385 0.45872 0.07400
H 	H 	0.34490 0.22130 0.44560 0.00600
C 	C 	0.47286 0.20830 0.45691 -0.17500
C 	C 	0.53990 0.21206 0.47647 0.07200
H 	H 	0.59550 0.20170 0.47530 0.01200
C 	C 	0.52386 0.23139 0.49784 -0.10700
H 	H 	0.56870 0.23390 0.51090 0.06300
C 	C 	0.48900 0.18716 0.43392 0.51200
N 	N 	0.49360 0.28197 0.53255 -0.22200
H 	H 	0.54840 0.27820 0.52480 0.11500
O 	O 	0.73500 0.35119 0.56948 -0.47700
O 	O 	0.67850 0.37707 0.60034 -0.52400
O 	O 	0.38250 0.33595 0.63249 -0.48000
O 	O 	0.26400 0.33463 0.60537 -0.57200
O 	O 	0.34270 0.27094 0.53009 -0.24100
O 	O 	0.45660 0.19253 0.41196 -0.54300
O 	O 	0.53660 0.16636 0.44242 -0.47800
C 	C 	0.16670 0.85655 0.58456 0.47400
C 	C 	0.08005 0.83954 0.57941 -0.17000
C 	C 	0.00505 0.84416 0.59621 0.11800
H 	H 	0.00930 0.85790 0.61020 -0.01500
C 	C 	0.92364 0.82821 0.59213 -0.17700
C 	C 	0.91724 0.80765 0.57125 -0.00900
H 	H 	0.86280 0.79700 0.56850 0.05400
C 	C 	0.99224 0.80303 0.55445 0.06800
C 	C 	0.07365 0.81897 0.55853 -0.01400
H 	H 	0.12380 0.81590 0.54730 0.04700
C 	C 	0.84680 0.83330 0.61066 0.51800
C 	C 	0.92130 0.76793 0.52308 0.21800
C 	C 	0.94079 0.74695 0.49965 0.01000
C 	C 	0.87375 0.74318 0.48009 -0.10400
H 	H 	0.81820 0.75360 0.48130 0.09100
C 	C 	0.88979 0.72385 0.45872 0.07400
H 	H 	0.84490 0.72130 0.44560 0.00600
C 	C 	0.97286 0.70830 0.45691 -0.17500
C 	C 	0.03990 0.71206 0.47647 0.07200
H 	H 	0.09550 0.70170 0.47530 0.01200
C 	C 	0.02386 0.73139 0.49784 -0.10700
H 	H 	0.06870 0.73390 0.51090 0.06300
C 	C 	0.98900 0.68716 0.43392 0.51200
N 	N 	0.99360 0.78197 0.53255 -0.22200
H 	H 	0.04840 0.77820 0.52480 0.11500
O 	O 	0.23500 0.85119 0.56948 -0.47700
O 	O 	0.17850 0.87707 0.60034 -0.52400
O 	O 	0.88250 0.83595 0.63249 -0.48000
O 	O 	0.76400 0.83463 0.60537 -0.57200
O 	O 	0.84270 0.77094 0.53009 -0.24100
O 	O 	0.95660 0.69253 0.41196 -0.54300
O 	O 	0.03660 0.66636 0.44242 -0.47800
C 	C 	0.16670 0.35655 0.08456 0.47400
C 	C 	0.08005 0.33954 0.07941 -0.17000
C 	C 	0.00505 0.34416 0.09621 0.11800
H 	H 	0.00930 0.35790 0.11020 -0.01500
C 	C 	0.92364 0.32821 0.09213 -0.17700
C 	C 	0.91724 0.30765 0.07125 -0.00900
H 	H 	0.86280 0.29700 0.06850 0.05400
C 	C 	0.99224 0.30303 0.05445 0.06800
C 	C 	0.07365 0.31897 0.05853 -0.01400
H 	H 	0.12380 0.31590 0.04730 0.04700
C 	C 	0.84680 0.33330 0.11066 0.51800
C 	C 	0.92130 0.26793 0.02308 0.21800
C 	C 	0.94079 0.24695 0.99965 0.01000
C 	C 	0.87375 0.24318 0.98009 -0.10400
H 	H 	0.81820 0.25360 0.98130 0.09100
C 	C 	0.88979 0.22385 0.95872 0.07400
H 	H 	0.84490 0.22130 0.94560 0.00600
C 	C 	0.97286 0.20830 0.95691 -0.17500
C 	C 	0.03990 0.21206 0.97647 0.07200
H 	H 	0.09550 0.20170 0.97530 0.01200
C 	C 	0.02386 0.23139 0.99784 -0.10700
H 	H 	0.06870 0.23390 0.01090 0.06300
C 	C 	0.98900 0.18716 0.93392 0.51200
N 	N 	0.99360 0.28197 0.03255 -0.22200
H 	H 	0.04840 0.27820 0.02480 0.11500
O 	O 	0.23500 0.35119 0.06948 -0.47700
O 	O 	0.17850 0.37707 0.10034 -0.52400
O 	O 	0.88250 0.33595 0.13249 -0.48000
O 	O 	0.76400 0.33463 0.10537 -0.57200
O 	O 	0.84270 0.27094 0.03009 -0.24100
O 	O 	0.95660 0.19253 0.91196 -0.54300
O 	O 	0.03660 0.16636 0.94242 -0.47800
C 	C 	0.66670 0.39345 0.16544 0.47400
C 	C 	0.58005 0.41046 0.17059 -0.17000
C 	C 	0.50505 0.40584 0.15379 0.11800
H 	H 	0.50930 0.39210 0.13980 -0.01500
C 	C 	0.42364 0.42179 0.15787 -0.17700
C 	C 	0.41724 0.44235 0.17875 -0.00900
H 	H 	0.36280 0.45300 0.18150 0.05400
C 	C 	0.49224 0.44697 0.19555 0.06800
C 	C 	0.57365 0.43103 0.19147 -0.01300
H 	H 	0.62380 0.43410 0.20270 0.04700
C 	C 	0.34680 0.41670 0.13934 0.51800
C 	C 	0.42130 0.48207 0.22692 0.21800
C 	C 	0.44079 0.50305 0.25035 0.01000
C 	C 	0.37375 0.50682 0.26991 -0.10400
H 	H 	0.31820 0.49640 0.26870 0.09100
C 	C 	0.38979 0.52615 0.29128 0.07400
H 	H 	0.34490 0.52870 0.30440 0.00600
C 	C 	0.47286 0.54170 0.29309 -0.17500
C 	C 	0.53990 0.53794 0.27353 0.07200
H 	H 	0.59550 0.54830 0.27470 0.01200
C 	C 	0.52386 0.51861 0.25216 -0.10700
H 	H 	0.56870 0.51610 0.23910 0.06300
C 	C 	0.48900 0.56284 0.31608 0.51200
N 	N 	0.49360 0.46803 0.21745 -0.22200
H 	H 	0.54840 0.47180 0.22520 0.11500
O 	O 	0.73500 0.39881 0.18052 -0.47700
O 	O 	0.67850 0.37293 0.14966 -0.52400
O 	O 	0.38250 0.41405 0.11751 -0.48000
O 	O 	0.26400 0.41537 0.14463 -0.57200
O 	O 	0.34270 0.47906 0.21991 -0.24100
O 	O 	0.45660 0.55747 0.33804 -0.54300
O 	O 	0.53660 0.58364 0.30758 -0.47800
C 	C 	0.66670 0.89345 0.66544 0.47400
C 	C 	0.58005 0.91046 0.67059 -0.17000
C 	C 	0.50505 0.90584 0.65379 0.11800
H 	H 	0.50930 0.89210 0.63980 -0.01500
C 	C 	0.42364 0.92179 0.65787 -0.17700
C 	C 	0.41724 0.94235 0.67875 -0.00900
H 	H 	0.36280 0.95300 0.68150 0.05400
C 	C 	0.49224 0.94697 0.69555 0.06800
C 	C 	0.57365 0.93103 0.69147 -0.01300
H 	H 	0.62380 0.93410 0.70270 0.04700
C 	C 	0.34680 0.91670 0.63934 0.51800
C 	C 	0.42130 0.98207 0.72692 0.21800
C 	C 	0.44079 0.00305 0.75035 0.01000
C 	C 	0.37375 0.00682 0.76991 -0.10400
H 	H 	0.31820 0.99640 0.76870 0.09100
C 	C 	0.38979 0.02615 0.79128 0.07400
H 	H 	0.34490 0.02870 0.80440 0.00600
C 	C 	0.47286 0.04170 0.79309 -0.17500
C 	C 	0.53990 0.03794 0.77353 0.07200
H 	H 	0.59550 0.04830 0.77470 0.01200
C 	C 	0.52386 0.01861 0.75216 -0.10700
H 	H 	0.56870 0.01610 0.73910 0.06300
C 	C 	0.48900 0.06284 0.81608 0.51200
N 	N 	0.49360 0.96803 0.71745 -0.22200
H 	H 	0.54840 0.97180 0.72520 0.11500
O 	O 	0.73500 0.89881 0.68052 -0.47700
O 	O 	0.67850 0.87293 0.64966 -0.52400
O 	O 	0.38250 0.91405 0.61751 -0.48000
O 	O 	0.26400 0.91537 0.64463 -0.57200
O 	O 	0.34270 0.97906 0.71991 -0.24100
O 	O 	0.45660 0.05747 0.83804 -0.54300
O 	O 	0.53660 0.08364 0.80758 -0.47800
C 	C 	0.16670 0.39345 0.66544 0.47400
C 	C 	0.08005 0.41046 0.67059 -0.17000
C 	C 	0.00505 0.40584 0.65379 0.11800
H 	H 	0.00930 0.39210 0.63980 -0.01500
C 	C 	0.92364 0.42179 0.65787 -0.17700
C 	C 	0.91724 0.44235 0.67875 -0.00900
H 	H 	0.86280 0.45300 0.68150 0.05400
C 	C 	0.99224 0.44697 0.69555 0.06800
C 	C 	0.07365 0.43103 0.69147 -0.01400
H 	H 	0.12380 0.43410 0.70270 0.04700
C 	C 	0.84680 0.41670 0.63934 0.51800
C 	C 	0.92130 0.48207 0.72692 0.21800
C 	C 	0.94079 0.50305 0.75035 0.01000
C 	C 	0.87375 0.50682 0.76991 -0.10400
H 	H 	0.81820 0.49640 0.76870 0.09100
C 	C 	0.88979 0.52615 0.79128 0.07400
H 	H 	0.84490 0.52870 0.80440 0.00600
C 	C 	0.97286 0.54170 0.79309 -0.17500
C 	C 	0.03990 0.53794 0.77353 0.07200
H 	H 	0.09550 0.54830 0.77470 0.01200
C 	C 	0.02386 0.51861 0.75216 -0.10700
H 	H 	0.06870 0.51610 0.73910 0.06300
C 	C 	0.98900 0.56284 0.81608 0.51200
N 	N 	0.99360 0.46803 0.71745 -0.22200
H 	H 	0.04840 0.47180 0.72520 0.11500
O 	O 	0.23500 0.39881 0.68052 -0.47700
O 	O 	0.17850 0.37293 0.64966 -0.52400
O 	O 	0.88250 0.41405 0.61751 -0.48000
O 	O 	0.76400 0.41537 0.64463 -0.57200
O 	O 	0.84270 0.47906 0.71991 -0.24100
O 	O 	0.95660 0.55747 0.83804 -0.54300
O 	O 	0.03660 0.58364 0.80758 -0.47800
C 	C 	0.16670 0.89345 0.16544 0.47400
C 	C 	0.08005 0.91046 0.17059 -0.16900
C 	C 	0.00505 0.90584 0.15379 0.11800
H 	H 	0.00930 0.89210 0.13980 -0.01500
C 	C 	0.92364 0.92179 0.15787 -0.17700
C 	C 	0.91724 0.94235 0.17875 -0.00900
H 	H 	0.86280 0.95300 0.18150 0.05400
C 	C 	0.99224 0.94697 0.19555 0.06800
C 	C 	0.07365 0.93103 0.19147 -0.01400
H 	H 	0.12380 0.93410 0.20270 0.04700
C 	C 	0.84680 0.91670 0.13934 0.51800
C 	C 	0.92130 0.98207 0.22692 0.21800
C 	C 	0.94079 0.00305 0.25035 0.01000
C 	C 	0.87375 0.00682 0.26991 -0.10400
H 	H 	0.81820 0.99640 0.26870 0.09100
C 	C 	0.88979 0.02615 0.29128 0.07400
H 	H 	0.84490 0.02870 0.30440 0.00600
C 	C 	0.97286 0.04170 0.29309 -0.17500
C 	C 	0.03990 0.03794 0.27353 0.07200
H 	H 	0.09550 0.04830 0.27470 0.01200
C 	C 	0.02386 0.01861 0.25216 -0.10700
H 	H 	0.06870 0.01610 0.23910 0.06300
C 	C 	0.98900 0.06284 0.31608 0.51200
N 	N 	0.99360 0.96803 0.21745 -0.22200
H 	H 	0.04840 0.97180 0.22520 0.11500
O 	O 	0.23500 0.89881 0.18052 -0.47700
O 	O 	0.17850 0.87293 0.14966 -0.52400
O 	O 	0.88250 0.91405 0.11751 -0.48000
O 	O 	0.76400 0.91537 0.14463 -0.57200
O 	O 	0.84270 0.97906 0.21991 -0.24100
O 	O 	0.95660 0.05747 0.33804 -0.54300
O 	O 	0.03660 0.08364 0.30758 -0.47800
C 	C 	0.58330 0.85655 0.16544 0.47400
C 	C 	0.66995 0.83954 0.17059 -0.17000
C 	C 	0.74495 0.84416 0.15379 0.11800
H 	H 	0.74070 0.85790 0.13980 -0.01500
C 	C 	0.82636 0.82821 0.15787 -0.17700
C 	C 	0.83276 0.80765 0.17875 -0.00900
H 	H 	0.88720 0.79700 0.18150 0.05400
C 	C 	0.75776 0.80303 0.19555 0.06800
C 	C 	0.67635 0.81897 0.19147 -0.01300
H 	H 	0.62620 0.81590 0.20270 0.04700
C 	C 	0.90320 0.83330 0.13934 0.51800
C 	C 	0.82870 0.76793 0.22692 0.21800
C 	C 	0.80921 0.74695 0.25035 0.01000
C 	C 	0.87625 0.74318 0.26991 -0.10400
H 	H 	0.93180 0.75360 0.26870 0.09100
C 	C 	0.86021 0.72385 0.29128 0.07400
H 	H 	0.90510 0.72130 0.30440 0.00600
C 	C 	0.77714 0.70830 0.29309 -0.17500
C 	C 	0.71010 0.71206 0.27353 0.07200
H 	H 	0.65450 0.70170 0.27470 0.01200
C 	C 	0.72614 0.73139 0.25216 -0.10700
H 	H 	0.68130 0.73390 0.23910 0.06300
C 	C 	0.76100 0.68716 0.31608 0.51200
N 	N 	0.75640 0.78197 0.21745 -0.22200
H 	H 	0.70160 0.77820 0.22520 0.11500
O 	O 	0.51500 0.85119 0.18052 -0.47700
O 	O 	0.57150 0.87707 0.14966 -0.52400
O 	O 	0.86750 0.83595 0.11751 -0.48000
O 	O 	0.98600 0.83463 0.14463 -0.57200
O 	O 	0.90730 0.77094 0.21991 -0.24100
O 	O 	0.79340 0.69253 0.33804 -0.54300
O 	O 	0.71340 0.66636 0.30758 -0.47800
C 	C 	0.58330 0.35655 0.66544 0.47400
C 	C 	0.66995 0.33954 0.67059 -0.17000
C 	C 	0.74495 0.34416 0.65379 0.11800
H 	H 	0.74070 0.35790 0.63980 -0.01500
C 	C 	0.82636 0.32821 0.65787 -0.17700
C 	C 	0.83276 0.30765 0.67875 -0.00900
H 	H 	0.88720 0.29700 0.68150 0.05400
C 	C 	0.75776 0.30303 0.69555 0.06800
C 	C 	0.67635 0.31897 0.69147 -0.01300
H 	H 	0.62620 0.31590 0.70270 0.04700
C 	C 	0.90320 0.33330 0.63934 0.51800
C 	C 	0.82870 0.26793 0.72692 0.21800
C 	C 	0.80921 0.24695 0.75035 0.01000
C 	C 	0.87625 0.24318 0.76991 -0.10400
H 	H 	0.93180 0.25360 0.76870 0.09100
C 	C 	0.86021 0.22385 0.79128 0.07400
H 	H 	0.90510 0.22130 0.80440 0.00600
C 	C 	0.77714 0.20830 0.79309 -0.17500
C 	C 	0.71010 0.21206 0.77353 0.07200
H 	H 	0.65450 0.20170 0.77470 0.01200
C 	C 	0.72614 0.23139 0.75216 -0.10700
H 	H 	0.68130 0.23390 0.73910 0.06300
C 	C 	0.76100 0.18716 0.81608 0.51200
N 	N 	0.75640 0.28197 0.71745 -0.22200
H 	H 	0.70160 0.27820 0.72520 0.11500
O 	O 	0.51500 0.35119 0.68052 -0.47700
O 	O 	0.57150 0.37707 0.64966 -0.52400
O 	O 	0.86750 0.33595 0.61751 -0.48000
O 	O 	0.98600 0.33463 0.64463 -0.57200
O 	O 	0.90730 0.27094 0.71991 -0.24100
O 	O 	0.79340 0.19253 0.83804 -0.54300
O 	O 	0.71340 0.16636 0.80758 -0.47800
C 	C 	0.08330 0.85655 0.66544 0.47400
C 	C 	0.16995 0.83954 0.67059 -0.17000
C 	C 	0.24495 0.84416 0.65379 0.11800
H 	H 	0.24070 0.85790 0.63980 -0.01500
C 	C 	0.32636 0.82821 0.65787 -0.17700
C 	C 	0.33276 0.80765 0.67875 -0.00900
H 	H 	0.38720 0.79700 0.68150 0.05400
C 	C 	0.25776 0.80303 0.69555 0.06800
C 	C 	0.17635 0.81897 0.69147 -0.01300
H 	H 	0.12620 0.81590 0.70270 0.04700
C 	C 	0.40320 0.83330 0.63934 0.51800
C 	C 	0.32870 0.76793 0.72692 0.21800
C 	C 	0.30921 0.74695 0.75035 0.01000
C 	C 	0.37625 0.74318 0.76991 -0.10400
H 	H 	0.43180 0.75360 0.76870 0.09100
C 	C 	0.36021 0.72385 0.79128 0.07400
H 	H 	0.40510 0.72130 0.80440 0.00600
C 	C 	0.27714 0.70830 0.79309 -0.17500
C 	C 	0.21010 0.71206 0.77353 0.07200
H 	H 	0.15450 0.70170 0.77470 0.01200
C 	C 	0.22614 0.73139 0.75216 -0.10700
H 	H 	0.18130 0.73390 0.73910 0.06300
C 	C 	0.26100 0.68716 0.81608 0.51200
N 	N 	0.25640 0.78197 0.71745 -0.22200
H 	H 	0.20160 0.77820 0.72520 0.11500
O 	O 	0.01500 0.85119 0.68052 -0.47700
O 	O 	0.07150 0.87707 0.64966 -0.52400
O 	O 	0.36750 0.83595 0.61751 -0.48000
O 	O 	0.48600 0.83463 0.64463 -0.57200
O 	O 	0.40730 0.77094 0.71991 -0.24100
O 	O 	0.29340 0.69253 0.83804 -0.54300
O 	O 	0.21340 0.66636 0.80758 -0.47800
C 	C 	0.08330 0.35655 0.16544 0.47400
C 	C 	0.16995 0.33954 0.17059 -0.17000
C 	C 	0.24495 0.34416 0.15379 0.11800
H 	H 	0.24070 0.35790 0.13980 -0.01500
C 	C 	0.32636 0.32821 0.15787 -0.17700
C 	C 	0.33276 0.30765 0.17875 -0.00900
H 	H 	0.38720 0.29700 0.18150 0.05400
C 	C 	0.25776 0.30303 0.19555 0.06800
C 	C 	0.17635 0.31897 0.19147 -0.01300
H 	H 	0.12620 0.31590 0.20270 0.04700
C 	C 	0.40320 0.33330 0.13934 0.51800
C 	C 	0.32870 0.26793 0.22692 0.21800
C 	C 	0.30921 0.24695 0.25035 0.01000
C 	C 	0.37625 0.24318 0.26991 -0.10400
H 	H 	0.43180 0.25360 0.26870 0.09100
C 	C 	0.36021 0.22385 0.29128 0.07400
H 	H 	0.40510 0.22130 0.30440 0.00600
C 	C 	0.27714 0.20830 0.29309 -0.17500
C 	C 	0.21010 0.21206 0.27353 0.07200
H 	H 	0.15450 0.20170 0.27470 0.01200
C 	C 	0.22614 0.23139 0.25216 -0.10700
H 	H 	0.18130 0.23390 0.23910 0.06300
C 	C 	0.26100 0.18716 0.31608 0.51200
N 	N 	0.25640 0.28197 0.21745 -0.22200
H 	H 	0.20160 0.27820 0.22520 0.11500
O 	O 	0.01500 0.35119 0.18052 -0.47700
O 	O 	0.07150 0.37707 0.14966 -0.52400
O 	O 	0.36750 0.33595 0.11751 -0.48000
O 	O 	0.48600 0.33463 0.14463 -0.57200
O 	O 	0.40730 0.27094 0.21991 -0.24100
O 	O 	0.29340 0.19253 0.33804 -0.54300
O 	O 	0.21340 0.16636 0.30758 -0.47800
Tb	Tb	0.62500 0.62500 0.91981 1.78500
Tb	Tb	0.62500 0.12500 0.41981 1.78500
Tb	Tb	0.12500 0.12500 0.91981 1.78500
Tb	Tb	0.12500 0.62500 0.41981 1.78500
Tb	Tb	0.12500 0.62500 0.83019 1.78500
Tb	Tb	0.12500 0.12500 0.33019 1.78500
Tb	Tb	0.62500 0.62500 0.33019 1.78500
Tb	Tb	0.62500 0.12500 0.83019 1.78500
Tb	Tb	0.37500 0.37500 0.08019 1.78500
Tb	Tb	0.37500 0.87500 0.58019 1.78500
Tb	Tb	0.87500 0.87500 0.08019 1.78500
Tb	Tb	0.87500 0.37500 0.58019 1.78500
Tb	Tb	0.87500 0.37500 0.16981 1.78500
Tb	Tb	0.87500 0.87500 0.66981 1.78500
Tb	Tb	0.37500 0.87500 0.16981 1.78500
Tb	Tb	0.37500 0.37500 0.66981 1.78500
Tb	Tb	0.37500 0.67129 0.87500 1.92200
Tb	Tb	0.37500 0.17129 0.37500 1.92200
Tb	Tb	0.87500 0.67129 0.37500 1.92200
Tb	Tb	0.87500 0.17129 0.87500 1.92200
Tb	Tb	0.37500 0.07871 0.87500 1.92200
Tb	Tb	0.37500 0.57871 0.37500 1.92200
Tb	Tb	0.87500 0.07871 0.37500 1.92200
Tb	Tb	0.87500 0.57871 0.87500 1.92200
Tb	Tb	0.62500 0.32871 0.12500 1.92200
Tb	Tb	0.62500 0.82871 0.62500 1.92200
Tb	Tb	0.12500 0.32871 0.62500 1.92200
Tb	Tb	0.12500 0.82871 0.12500 1.92200
Tb	Tb	0.62500 0.92129 0.12500 1.92200
Tb	Tb	0.62500 0.42129 0.62500 1.92200
Tb	Tb	0.12500 0.92129 0.62500 1.92200
Tb	Tb	0.12500 0.42129 0.12500 1.92200
