data_crystal

_cell_length_a 14.50120
_cell_length_b 44.13200
_cell_length_c 50.41200
_cell_angle_alpha 90.00000
_cell_angle_beta  90.00000
_cell_angle_gamma 90.00000

_symmetry_space_group_name_	'P 1'
_symmetry_space_group_name_H-M	'P 1'

loop_
_symmetry_equiv_pos_as_xyz
  x,y,z

loop_
_atom_site_label
_atom_site_type_symbol
_atom_site_fract_x
_atom_site_fract_y
_atom_site_fract_z
_atom_site_charge
C 	C 	0.41730 0.60635 0.91542 0.47800
C 	C 	0.32990 0.58950 0.92054 -0.17400
C 	C 	0.25480 0.59419 0.90403 0.13000
H 	H 	0.25880 0.60820 0.89030 -0.02400
C 	C 	0.17420 0.57823 0.90784 -0.18600
C 	C 	0.16800 0.55774 0.92869 -0.00400
H 	H 	0.11340 0.54720 0.93140 0.05200
C 	C 	0.24240 0.55290 0.94545 0.06800
C 	C 	0.32350 0.56884 0.94158 -0.01300
H 	H 	0.37340 0.56590 0.95290 0.04700
C 	C 	0.09680 0.58332 0.88936 0.53000
C 	C 	0.17190 0.51776 0.97709 0.21400
C 	C 	0.19030 0.49699 0.00045 0.00900
C 	C 	0.12390 0.49336 0.01994 -0.10100
H 	H 	0.06830 0.50380 0.01870 0.09100
C 	C 	0.13960 0.47412 0.04150 0.07300
H 	H 	0.09490 0.47170 0.05460 0.00600
C 	C 	0.22270 0.45864 0.04319 -0.17500
C 	C 	0.28960 0.46196 0.02338 0.07200
H 	H 	0.34460 0.45120 0.02440 0.01100
C 	C 	0.27390 0.48128 0.00233 -0.10600
H 	H 	0.31890 0.48390 0.98940 0.06300
C 	C 	0.23840 0.43711 0.06606 0.51700
N 	N 	0.24380 0.53202 0.96748 -0.23200
H 	H 	0.29620 0.52870 0.97490 0.12700
O 	O 	0.48570 0.60093 0.93045 -0.49800
O 	O 	0.42780 0.62728 0.89966 -0.54700
O 	O 	0.13140 0.58651 0.86746 -0.50400
O 	O 	0.01420 0.58425 0.89495 -0.59400
O 	O 	0.09240 0.52105 0.96989 -0.23700
O 	O 	0.20470 0.44228 0.08798 -0.56400
O 	O 	0.28770 0.41634 0.05803 -0.50000
C 	C 	0.41730 0.10635 0.41542 0.47700
C 	C 	0.32990 0.08950 0.42054 -0.17500
C 	C 	0.25480 0.09419 0.40403 0.12900
H 	H 	0.25880 0.10820 0.39030 -0.02500
C 	C 	0.17420 0.07823 0.40784 -0.18700
C 	C 	0.16800 0.05774 0.42869 -0.00500
H 	H 	0.11340 0.04720 0.43140 0.05100
C 	C 	0.24240 0.05290 0.44545 0.06700
C 	C 	0.32350 0.06884 0.44158 -0.01400
H 	H 	0.37340 0.06590 0.45290 0.04600
C 	C 	0.09680 0.08332 0.38936 0.52900
C 	C 	0.17190 0.01776 0.47709 0.21300
C 	C 	0.19030 0.99699 0.50045 0.00800
C 	C 	0.12390 0.99336 0.51994 -0.10200
H 	H 	0.06830 0.00380 0.51870 0.09000
C 	C 	0.13960 0.97412 0.54150 0.07200
H 	H 	0.09490 0.97170 0.55460 0.00500
C 	C 	0.22270 0.95864 0.54319 -0.17600
C 	C 	0.28960 0.96196 0.52338 0.07100
H 	H 	0.34460 0.95120 0.52440 0.01000
C 	C 	0.27390 0.98128 0.50233 -0.10700
H 	H 	0.31890 0.98390 0.48940 0.06200
C 	C 	0.23840 0.93711 0.56606 0.51600
N 	N 	0.24380 0.03202 0.46748 -0.23300
H 	H 	0.29620 0.02870 0.47490 0.12700
O 	O 	0.48570 0.10093 0.43045 -0.49800
O 	O 	0.42780 0.12728 0.39966 -0.54700
O 	O 	0.13140 0.08651 0.36746 -0.50400
O 	O 	0.01420 0.08425 0.39495 -0.59400
O 	O 	0.09240 0.02105 0.46989 -0.23700
O 	O 	0.20470 0.94228 0.58798 -0.56400
O 	O 	0.28770 0.91634 0.55803 -0.50000
C 	C 	0.91730 0.60635 0.41542 0.47700
C 	C 	0.82990 0.58950 0.42054 -0.17500
C 	C 	0.75480 0.59419 0.40403 0.12900
H 	H 	0.75880 0.60820 0.39030 -0.02500
C 	C 	0.67420 0.57823 0.40784 -0.18700
C 	C 	0.66800 0.55774 0.42869 -0.00500
H 	H 	0.61340 0.54720 0.43140 0.05200
C 	C 	0.74240 0.55290 0.44545 0.06700
C 	C 	0.82350 0.56884 0.44158 -0.01400
H 	H 	0.87340 0.56590 0.45290 0.04600
C 	C 	0.59680 0.58332 0.38936 0.52900
C 	C 	0.67190 0.51776 0.47709 0.21300
C 	C 	0.69030 0.49699 0.50045 0.00800
C 	C 	0.62390 0.49336 0.51994 -0.10200
H 	H 	0.56830 0.50380 0.51870 0.09000
C 	C 	0.63960 0.47412 0.54150 0.07200
H 	H 	0.59490 0.47170 0.55460 0.00500
C 	C 	0.72270 0.45864 0.54319 -0.17600
C 	C 	0.78960 0.46196 0.52338 0.07100
H 	H 	0.84460 0.45120 0.52440 0.01000
C 	C 	0.77390 0.48128 0.50233 -0.10700
H 	H 	0.81890 0.48390 0.48940 0.06200
C 	C 	0.73840 0.43711 0.56606 0.51600
N 	N 	0.74380 0.53202 0.46748 -0.23300
H 	H 	0.79620 0.52870 0.47490 0.12700
O 	O 	0.98570 0.60093 0.43045 -0.49900
O 	O 	0.92780 0.62728 0.39966 -0.54700
O 	O 	0.63140 0.58651 0.36746 -0.50400
O 	O 	0.51420 0.58425 0.39495 -0.59400
O 	O 	0.59240 0.52105 0.46989 -0.23700
O 	O 	0.70470 0.44228 0.58798 -0.56400
O 	O 	0.78770 0.41634 0.55803 -0.50000
C 	C 	0.91730 0.10635 0.91542 0.47700
C 	C 	0.82990 0.08950 0.92054 -0.17500
C 	C 	0.75480 0.09419 0.90403 0.12900
H 	H 	0.75880 0.10820 0.89030 -0.02500
C 	C 	0.67420 0.07823 0.90784 -0.18700
C 	C 	0.66800 0.05774 0.92869 -0.00500
H 	H 	0.61340 0.04720 0.93140 0.05200
C 	C 	0.74240 0.05290 0.94545 0.06700
C 	C 	0.82350 0.06884 0.94158 -0.01400
H 	H 	0.87340 0.06590 0.95290 0.04600
C 	C 	0.59680 0.08332 0.88936 0.52900
C 	C 	0.67190 0.01776 0.97709 0.21300
C 	C 	0.69030 0.99699 0.00045 0.00800
C 	C 	0.62390 0.99336 0.01994 -0.10200
H 	H 	0.56830 0.00380 0.01870 0.09000
C 	C 	0.63960 0.97412 0.04150 0.07200
H 	H 	0.59490 0.97170 0.05460 0.00500
C 	C 	0.72270 0.95864 0.04319 -0.17600
C 	C 	0.78960 0.96196 0.02338 0.07100
H 	H 	0.84460 0.95120 0.02440 0.01000
C 	C 	0.77390 0.98128 0.00233 -0.10700
H 	H 	0.81890 0.98390 0.98940 0.06200
C 	C 	0.73840 0.93711 0.06606 0.51600
N 	N 	0.74380 0.03202 0.96748 -0.23300
H 	H 	0.79620 0.02870 0.97490 0.12700
O 	O 	0.98570 0.10093 0.93045 -0.49900
O 	O 	0.92780 0.12728 0.89966 -0.54700
O 	O 	0.63140 0.08651 0.86746 -0.50400
O 	O 	0.51420 0.08425 0.89495 -0.59400
O 	O 	0.59240 0.02105 0.96989 -0.23700
O 	O 	0.70470 0.94228 0.08798 -0.56400
O 	O 	0.78770 0.91634 0.05803 -0.50000
C 	C 	0.33270 0.14365 0.91542 0.47700
C 	C 	0.42010 0.16050 0.92054 -0.17500
C 	C 	0.49520 0.15581 0.90403 0.12900
H 	H 	0.49120 0.14180 0.89030 -0.02500
C 	C 	0.57580 0.17177 0.90784 -0.18700
C 	C 	0.58200 0.19226 0.92869 -0.00500
H 	H 	0.63660 0.20280 0.93140 0.05200
C 	C 	0.50760 0.19710 0.94545 0.06700
C 	C 	0.42650 0.18116 0.94158 -0.01400
H 	H 	0.37660 0.18410 0.95290 0.04600
C 	C 	0.65320 0.16668 0.88936 0.52900
C 	C 	0.57810 0.23224 0.97709 0.21300
C 	C 	0.55970 0.25301 0.00045 0.00800
C 	C 	0.62610 0.25664 0.01994 -0.10200
H 	H 	0.68170 0.24620 0.01870 0.09000
C 	C 	0.61040 0.27588 0.04150 0.07200
H 	H 	0.65510 0.27830 0.05460 0.00500
C 	C 	0.52730 0.29136 0.04319 -0.17600
C 	C 	0.46040 0.28804 0.02338 0.07100
H 	H 	0.40540 0.29880 0.02440 0.01000
C 	C 	0.47610 0.26872 0.00233 -0.10700
H 	H 	0.43110 0.26610 0.98940 0.06200
C 	C 	0.51160 0.31289 0.06606 0.51600
N 	N 	0.50620 0.21798 0.96748 -0.23300
H 	H 	0.45380 0.22130 0.97490 0.12700
O 	O 	0.26430 0.14907 0.93045 -0.49800
O 	O 	0.32220 0.12272 0.89966 -0.54700
O 	O 	0.61860 0.16349 0.86746 -0.50400
O 	O 	0.73580 0.16575 0.89495 -0.59400
O 	O 	0.65760 0.22895 0.96989 -0.23700
O 	O 	0.54530 0.30772 0.08798 -0.56400
O 	O 	0.46230 0.33366 0.05803 -0.50000
C 	C 	0.33270 0.64365 0.41542 0.47700
C 	C 	0.42010 0.66050 0.42054 -0.17500
C 	C 	0.49520 0.65581 0.40403 0.12900
H 	H 	0.49120 0.64180 0.39030 -0.02500
C 	C 	0.57580 0.67177 0.40784 -0.18700
C 	C 	0.58200 0.69226 0.42869 -0.00500
H 	H 	0.63660 0.70280 0.43140 0.05200
C 	C 	0.50760 0.69710 0.44545 0.06700
C 	C 	0.42650 0.68116 0.44158 -0.01400
H 	H 	0.37660 0.68410 0.45290 0.04600
C 	C 	0.65320 0.66668 0.38936 0.52900
C 	C 	0.57810 0.73224 0.47709 0.21300
C 	C 	0.55970 0.75301 0.50045 0.00800
C 	C 	0.62610 0.75664 0.51994 -0.10200
H 	H 	0.68170 0.74620 0.51870 0.09000
C 	C 	0.61040 0.77588 0.54150 0.07200
H 	H 	0.65510 0.77830 0.55460 0.00500
C 	C 	0.52730 0.79136 0.54319 -0.17600
C 	C 	0.46040 0.78804 0.52338 0.07100
H 	H 	0.40540 0.79880 0.52440 0.01000
C 	C 	0.47610 0.76872 0.50233 -0.10700
H 	H 	0.43110 0.76610 0.48940 0.06200
C 	C 	0.51160 0.81289 0.56606 0.51600
N 	N 	0.50620 0.71798 0.46748 -0.23300
H 	H 	0.45380 0.72130 0.47490 0.12700
O 	O 	0.26430 0.64907 0.43045 -0.49800
O 	O 	0.32220 0.62272 0.39966 -0.54700
O 	O 	0.61860 0.66349 0.36746 -0.50400
O 	O 	0.73580 0.66575 0.39495 -0.59400
O 	O 	0.65760 0.72895 0.46989 -0.23700
O 	O 	0.54530 0.80772 0.58798 -0.56400
O 	O 	0.46230 0.83366 0.55803 -0.50000
C 	C 	0.83270 0.14365 0.41542 0.47700
C 	C 	0.92010 0.16050 0.42054 -0.17500
C 	C 	0.99520 0.15581 0.40403 0.12900
H 	H 	0.99120 0.14180 0.39030 -0.02400
C 	C 	0.07580 0.17177 0.40784 -0.18600
C 	C 	0.08200 0.19226 0.42869 -0.00500
H 	H 	0.13660 0.20280 0.43140 0.05200
C 	C 	0.00760 0.19710 0.44545 0.06700
C 	C 	0.92650 0.18116 0.44158 -0.01400
H 	H 	0.87660 0.18410 0.45290 0.04600
C 	C 	0.15320 0.16668 0.38936 0.52900
C 	C 	0.07810 0.23224 0.47709 0.21300
C 	C 	0.05970 0.25301 0.50045 0.00800
C 	C 	0.12610 0.25664 0.51994 -0.10200
H 	H 	0.18170 0.24620 0.51870 0.09000
C 	C 	0.11040 0.27588 0.54150 0.07200
H 	H 	0.15510 0.27830 0.55460 0.00500
C 	C 	0.02730 0.29136 0.54319 -0.17600
C 	C 	0.96040 0.28804 0.52338 0.07100
H 	H 	0.90540 0.29880 0.52440 0.01000
C 	C 	0.97610 0.26872 0.50233 -0.10800
H 	H 	0.93110 0.26610 0.48940 0.06200
C 	C 	0.01160 0.31289 0.56606 0.51600
N 	N 	0.00620 0.21798 0.46748 -0.23300
H 	H 	0.95380 0.22130 0.47490 0.12700
O 	O 	0.76430 0.14907 0.43045 -0.49800
O 	O 	0.82220 0.12272 0.39966 -0.54700
O 	O 	0.11860 0.16349 0.36746 -0.50400
O 	O 	0.23580 0.16575 0.39495 -0.59400
O 	O 	0.15760 0.22895 0.46989 -0.23700
O 	O 	0.04530 0.30772 0.58798 -0.56400
O 	O 	0.96230 0.33366 0.55803 -0.50000
C 	C 	0.83270 0.64365 0.91542 0.47700
C 	C 	0.92010 0.66050 0.92054 -0.17500
C 	C 	0.99520 0.65581 0.90403 0.12900
H 	H 	0.99120 0.64180 0.89030 -0.02400
C 	C 	0.07580 0.67177 0.90784 -0.18600
C 	C 	0.08200 0.69226 0.92869 -0.00500
H 	H 	0.13660 0.70280 0.93140 0.05200
C 	C 	0.00760 0.69710 0.94545 0.06700
C 	C 	0.92650 0.68116 0.94158 -0.01400
H 	H 	0.87660 0.68410 0.95290 0.04600
C 	C 	0.15320 0.66668 0.88936 0.52900
C 	C 	0.07810 0.73224 0.97709 0.21300
C 	C 	0.05970 0.75301 0.00045 0.00800
C 	C 	0.12610 0.75664 0.01994 -0.10200
H 	H 	0.18170 0.74620 0.01870 0.09000
C 	C 	0.11040 0.77588 0.04150 0.07200
H 	H 	0.15510 0.77830 0.05460 0.00500
C 	C 	0.02730 0.79136 0.04319 -0.17600
C 	C 	0.96040 0.78804 0.02338 0.07100
H 	H 	0.90540 0.79880 0.02440 0.01000
C 	C 	0.97610 0.76872 0.00233 -0.10700
H 	H 	0.93110 0.76610 0.98940 0.06200
C 	C 	0.01160 0.81289 0.06606 0.51600
N 	N 	0.00620 0.71798 0.96748 -0.23300
H 	H 	0.95380 0.72130 0.97490 0.12700
O 	O 	0.76430 0.64907 0.93045 -0.49800
O 	O 	0.82220 0.62272 0.89966 -0.54700
O 	O 	0.11860 0.66349 0.86746 -0.50400
O 	O 	0.23580 0.66575 0.89495 -0.59400
O 	O 	0.15760 0.72895 0.96989 -0.23700
O 	O 	0.04530 0.80772 0.08798 -0.56400
O 	O 	0.96230 0.83366 0.05803 -0.50000
C 	C 	0.33270 0.60635 0.83458 0.47700
C 	C 	0.42010 0.58950 0.82946 -0.17500
C 	C 	0.49520 0.59419 0.84597 0.12900
H 	H 	0.49120 0.60820 0.85970 -0.02500
C 	C 	0.57580 0.57823 0.84216 -0.18700
C 	C 	0.58200 0.55774 0.82131 -0.00500
H 	H 	0.63660 0.54720 0.81860 0.05200
C 	C 	0.50760 0.55290 0.80455 0.06700
C 	C 	0.42650 0.56884 0.80842 -0.01400
H 	H 	0.37660 0.56590 0.79710 0.04600
C 	C 	0.65320 0.58332 0.86064 0.52900
C 	C 	0.57810 0.51776 0.77291 0.21300
C 	C 	0.55970 0.49699 0.74955 0.00800
C 	C 	0.62610 0.49336 0.73006 -0.10200
H 	H 	0.68170 0.50380 0.73130 0.09000
C 	C 	0.61040 0.47412 0.70850 0.07200
H 	H 	0.65510 0.47170 0.69540 0.00500
C 	C 	0.52730 0.45864 0.70681 -0.17600
C 	C 	0.46040 0.46196 0.72662 0.07100
H 	H 	0.40540 0.45120 0.72560 0.01000
C 	C 	0.47610 0.48128 0.74767 -0.10700
H 	H 	0.43110 0.48390 0.76060 0.06200
C 	C 	0.51160 0.43711 0.68394 0.51600
N 	N 	0.50620 0.53202 0.78252 -0.23300
H 	H 	0.45380 0.52870 0.77510 0.12700
O 	O 	0.26430 0.60093 0.81955 -0.49800
O 	O 	0.32220 0.62728 0.85034 -0.54700
O 	O 	0.61860 0.58651 0.88254 -0.50400
O 	O 	0.73580 0.58425 0.85505 -0.59400
O 	O 	0.65760 0.52105 0.78011 -0.23700
O 	O 	0.54530 0.44228 0.66202 -0.56400
O 	O 	0.46230 0.41634 0.69197 -0.50000
C 	C 	0.33270 0.10635 0.33458 0.47700
C 	C 	0.42010 0.08950 0.32946 -0.17500
C 	C 	0.49520 0.09419 0.34597 0.12900
H 	H 	0.49120 0.10820 0.35970 -0.02500
C 	C 	0.57580 0.07823 0.34216 -0.18700
C 	C 	0.58200 0.05774 0.32131 -0.00500
H 	H 	0.63660 0.04720 0.31860 0.05200
C 	C 	0.50760 0.05290 0.30455 0.06700
C 	C 	0.42650 0.06884 0.30842 -0.01400
H 	H 	0.37660 0.06590 0.29710 0.04600
C 	C 	0.65320 0.08332 0.36064 0.52900
C 	C 	0.57810 0.01776 0.27291 0.21300
C 	C 	0.55970 0.99699 0.24955 0.00800
C 	C 	0.62610 0.99336 0.23006 -0.10200
H 	H 	0.68170 0.00380 0.23130 0.09000
C 	C 	0.61040 0.97412 0.20850 0.07200
H 	H 	0.65510 0.97170 0.19540 0.00500
C 	C 	0.52730 0.95864 0.20681 -0.17600
C 	C 	0.46040 0.96196 0.22662 0.07100
H 	H 	0.40540 0.95120 0.22560 0.01000
C 	C 	0.47610 0.98128 0.24767 -0.10700
H 	H 	0.43110 0.98390 0.26060 0.06200
C 	C 	0.51160 0.93711 0.18394 0.51600
N 	N 	0.50620 0.03202 0.28252 -0.23300
H 	H 	0.45380 0.02870 0.27510 0.12700
O 	O 	0.26430 0.10093 0.31955 -0.49800
O 	O 	0.32220 0.12728 0.35034 -0.54700
O 	O 	0.61860 0.08651 0.38254 -0.50400
O 	O 	0.73580 0.08425 0.35505 -0.59400
O 	O 	0.65760 0.02105 0.28011 -0.23700
O 	O 	0.54530 0.94228 0.16202 -0.56400
O 	O 	0.46230 0.91634 0.19197 -0.50000
C 	C 	0.83270 0.60635 0.33458 0.47700
C 	C 	0.92010 0.58950 0.32946 -0.17500
C 	C 	0.99520 0.59419 0.34597 0.12900
H 	H 	0.99120 0.60820 0.35970 -0.02400
C 	C 	0.07580 0.57823 0.34216 -0.18700
C 	C 	0.08200 0.55774 0.32131 -0.00500
H 	H 	0.13660 0.54720 0.31860 0.05200
C 	C 	0.00760 0.55290 0.30455 0.06700
C 	C 	0.92650 0.56884 0.30842 -0.01400
H 	H 	0.87660 0.56590 0.29710 0.04600
C 	C 	0.15320 0.58332 0.36064 0.52900
C 	C 	0.07810 0.51776 0.27291 0.21300
C 	C 	0.05970 0.49699 0.24955 0.00800
C 	C 	0.12610 0.49336 0.23006 -0.10200
H 	H 	0.18170 0.50380 0.23130 0.09000
C 	C 	0.11040 0.47412 0.20850 0.07200
H 	H 	0.15510 0.47170 0.19540 0.00500
C 	C 	0.02730 0.45864 0.20681 -0.17600
C 	C 	0.96040 0.46196 0.22662 0.07100
H 	H 	0.90540 0.45120 0.22560 0.01000
C 	C 	0.97610 0.48128 0.24767 -0.10800
H 	H 	0.93110 0.48390 0.26060 0.06200
C 	C 	0.01160 0.43711 0.18394 0.51600
N 	N 	0.00620 0.53202 0.28252 -0.23300
H 	H 	0.95380 0.52870 0.27510 0.12700
O 	O 	0.76430 0.60093 0.31955 -0.49800
O 	O 	0.82220 0.62728 0.35034 -0.54700
O 	O 	0.11860 0.58651 0.38254 -0.50400
O 	O 	0.23580 0.58425 0.35505 -0.59400
O 	O 	0.15760 0.52105 0.28011 -0.23700
O 	O 	0.04530 0.44228 0.16202 -0.56400
O 	O 	0.96230 0.41634 0.19197 -0.50000
C 	C 	0.83270 0.10635 0.83458 0.47700
C 	C 	0.92010 0.08950 0.82946 -0.17500
C 	C 	0.99520 0.09419 0.84597 0.12900
H 	H 	0.99120 0.10820 0.85970 -0.02400
C 	C 	0.07580 0.07823 0.84216 -0.18600
C 	C 	0.08200 0.05774 0.82131 -0.00500
H 	H 	0.13660 0.04720 0.81860 0.05200
C 	C 	0.00760 0.05290 0.80455 0.06700
C 	C 	0.92650 0.06884 0.80842 -0.01400
H 	H 	0.87660 0.06590 0.79710 0.04600
C 	C 	0.15320 0.08332 0.86064 0.52900
C 	C 	0.07810 0.01776 0.77291 0.21300
C 	C 	0.05970 0.99699 0.74955 0.00800
C 	C 	0.12610 0.99336 0.73006 -0.10200
H 	H 	0.18170 0.00380 0.73130 0.09000
C 	C 	0.11040 0.97412 0.70850 0.07200
H 	H 	0.15510 0.97170 0.69540 0.00500
C 	C 	0.02730 0.95864 0.70681 -0.17600
C 	C 	0.96040 0.96196 0.72662 0.07100
H 	H 	0.90540 0.95120 0.72560 0.01000
C 	C 	0.97610 0.98128 0.74767 -0.10800
H 	H 	0.93110 0.98390 0.76060 0.06200
C 	C 	0.01160 0.93711 0.68394 0.51600
N 	N 	0.00620 0.03202 0.78252 -0.23300
H 	H 	0.95380 0.02870 0.77510 0.12700
O 	O 	0.76430 0.10093 0.81955 -0.49800
O 	O 	0.82220 0.12728 0.85034 -0.54700
O 	O 	0.11860 0.08651 0.88254 -0.50400
O 	O 	0.23580 0.08425 0.85505 -0.59400
O 	O 	0.15760 0.02105 0.78011 -0.23700
O 	O 	0.04530 0.94228 0.66202 -0.56400
O 	O 	0.96230 0.91634 0.69197 -0.50000
C 	C 	0.41730 0.14365 0.83458 0.47700
C 	C 	0.32990 0.16050 0.82946 -0.17500
C 	C 	0.25480 0.15581 0.84597 0.12900
H 	H 	0.25880 0.14180 0.85970 -0.02500
C 	C 	0.17420 0.17177 0.84216 -0.18700
C 	C 	0.16800 0.19226 0.82131 -0.00500
H 	H 	0.11340 0.20280 0.81860 0.05100
C 	C 	0.24240 0.19710 0.80455 0.06700
C 	C 	0.32350 0.18116 0.80842 -0.01400
H 	H 	0.37340 0.18410 0.79710 0.04600
C 	C 	0.09680 0.16668 0.86064 0.52900
C 	C 	0.17190 0.23224 0.77291 0.21300
C 	C 	0.19030 0.25301 0.74955 0.00800
C 	C 	0.12390 0.25664 0.73006 -0.10200
H 	H 	0.06830 0.24620 0.73130 0.09000
C 	C 	0.13960 0.27588 0.70850 0.07200
H 	H 	0.09490 0.27830 0.69540 0.00500
C 	C 	0.22270 0.29136 0.70681 -0.17600
C 	C 	0.28960 0.28804 0.72662 0.07100
H 	H 	0.34460 0.29880 0.72560 0.01000
C 	C 	0.27390 0.26872 0.74767 -0.10700
H 	H 	0.31890 0.26610 0.76060 0.06200
C 	C 	0.23840 0.31289 0.68394 0.51600
N 	N 	0.24380 0.21798 0.78252 -0.23300
H 	H 	0.29620 0.22130 0.77510 0.12700
O 	O 	0.48570 0.14907 0.81955 -0.49800
O 	O 	0.42780 0.12272 0.85034 -0.54700
O 	O 	0.13140 0.16349 0.88254 -0.50400
O 	O 	0.01420 0.16575 0.85505 -0.59400
O 	O 	0.09240 0.22895 0.78011 -0.23700
O 	O 	0.20470 0.30772 0.66202 -0.56400
O 	O 	0.28770 0.33366 0.69197 -0.50000
C 	C 	0.41730 0.64365 0.33458 0.47700
C 	C 	0.32990 0.66050 0.32946 -0.17500
C 	C 	0.25480 0.65581 0.34597 0.12900
H 	H 	0.25880 0.64180 0.35970 -0.02500
C 	C 	0.17420 0.67177 0.34216 -0.18700
C 	C 	0.16800 0.69226 0.32131 -0.00500
H 	H 	0.11340 0.70280 0.31860 0.05100
C 	C 	0.24240 0.69710 0.30455 0.06700
C 	C 	0.32350 0.68116 0.30842 -0.01400
H 	H 	0.37340 0.68410 0.29710 0.04600
C 	C 	0.09680 0.66668 0.36064 0.52900
C 	C 	0.17190 0.73224 0.27291 0.21300
C 	C 	0.19030 0.75301 0.24955 0.00800
C 	C 	0.12390 0.75664 0.23006 -0.10200
H 	H 	0.06830 0.74620 0.23130 0.09000
C 	C 	0.13960 0.77588 0.20850 0.07200
H 	H 	0.09490 0.77830 0.19540 0.00500
C 	C 	0.22270 0.79136 0.20681 -0.17600
C 	C 	0.28960 0.78804 0.22662 0.07100
H 	H 	0.34460 0.79880 0.22560 0.01000
C 	C 	0.27390 0.76872 0.24767 -0.10700
H 	H 	0.31890 0.76610 0.26060 0.06200
C 	C 	0.23840 0.81289 0.18394 0.51600
N 	N 	0.24380 0.71798 0.28252 -0.23300
H 	H 	0.29620 0.72130 0.27510 0.12700
O 	O 	0.48570 0.64907 0.31955 -0.49800
O 	O 	0.42780 0.62272 0.35034 -0.54700
O 	O 	0.13140 0.66349 0.38254 -0.50400
O 	O 	0.01420 0.66575 0.35505 -0.59400
O 	O 	0.09240 0.72895 0.28011 -0.23700
O 	O 	0.20470 0.80772 0.16202 -0.56400
O 	O 	0.28770 0.83366 0.19197 -0.50000
C 	C 	0.91730 0.14365 0.33458 0.47700
C 	C 	0.82990 0.16050 0.32946 -0.17500
C 	C 	0.75480 0.15581 0.34597 0.12900
H 	H 	0.75880 0.14180 0.35970 -0.02500
C 	C 	0.67420 0.17177 0.34216 -0.18700
C 	C 	0.66800 0.19226 0.32131 -0.00500
H 	H 	0.61340 0.20280 0.31860 0.05200
C 	C 	0.74240 0.19710 0.30455 0.06700
C 	C 	0.82350 0.18116 0.30842 -0.01400
H 	H 	0.87340 0.18410 0.29710 0.04600
C 	C 	0.59680 0.16668 0.36064 0.52900
C 	C 	0.67190 0.23224 0.27291 0.21300
C 	C 	0.69030 0.25301 0.24955 0.00800
C 	C 	0.62390 0.25664 0.23006 -0.10200
H 	H 	0.56830 0.24620 0.23130 0.09000
C 	C 	0.63960 0.27588 0.20850 0.07200
H 	H 	0.59490 0.27830 0.19540 0.00500
C 	C 	0.72270 0.29136 0.20681 -0.17600
C 	C 	0.78960 0.28804 0.22662 0.07100
H 	H 	0.84460 0.29880 0.22560 0.01000
C 	C 	0.77390 0.26872 0.24767 -0.10700
H 	H 	0.81890 0.26610 0.26060 0.06200
C 	C 	0.73840 0.31289 0.18394 0.51600
N 	N 	0.74380 0.21798 0.28252 -0.23300
H 	H 	0.79620 0.22130 0.27510 0.12700
O 	O 	0.98570 0.14907 0.31955 -0.49900
O 	O 	0.92780 0.12272 0.35034 -0.54700
O 	O 	0.63140 0.16349 0.38254 -0.50400
O 	O 	0.51420 0.16575 0.35505 -0.59400
O 	O 	0.59240 0.22895 0.28011 -0.23700
O 	O 	0.70470 0.30772 0.16202 -0.56400
O 	O 	0.78770 0.33366 0.19197 -0.50000
C 	C 	0.91730 0.64365 0.83458 0.47700
C 	C 	0.82990 0.66050 0.82946 -0.17500
C 	C 	0.75480 0.65581 0.84597 0.12900
H 	H 	0.75880 0.64180 0.85970 -0.02500
C 	C 	0.67420 0.67177 0.84216 -0.18700
C 	C 	0.66800 0.69226 0.82131 -0.00500
H 	H 	0.61340 0.70280 0.81860 0.05200
C 	C 	0.74240 0.69710 0.80455 0.06700
C 	C 	0.82350 0.68116 0.80842 -0.01400
H 	H 	0.87340 0.68410 0.79710 0.04600
C 	C 	0.59680 0.66668 0.86064 0.52900
C 	C 	0.67190 0.73224 0.77291 0.21300
C 	C 	0.69030 0.75301 0.74955 0.00800
C 	C 	0.62390 0.75664 0.73006 -0.10200
H 	H 	0.56830 0.74620 0.73130 0.09000
C 	C 	0.63960 0.77588 0.70850 0.07200
H 	H 	0.59490 0.77830 0.69540 0.00500
C 	C 	0.72270 0.79136 0.70681 -0.17600
C 	C 	0.78960 0.78804 0.72662 0.07100
H 	H 	0.84460 0.79880 0.72560 0.01000
C 	C 	0.77390 0.76872 0.74767 -0.10700
H 	H 	0.81890 0.76610 0.76060 0.06200
C 	C 	0.73840 0.81289 0.68394 0.51600
N 	N 	0.74380 0.71798 0.78252 -0.23300
H 	H 	0.79620 0.72130 0.77510 0.12700
O 	O 	0.98570 0.64907 0.81955 -0.49900
O 	O 	0.92780 0.62272 0.85034 -0.54700
O 	O 	0.63140 0.66349 0.88254 -0.50400
O 	O 	0.51420 0.66575 0.85505 -0.59400
O 	O 	0.59240 0.72895 0.78011 -0.23700
O 	O 	0.70470 0.80772 0.66202 -0.56400
O 	O 	0.78770 0.83366 0.69197 -0.50000
C 	C 	0.58270 0.39365 0.08458 0.47700
C 	C 	0.67010 0.41050 0.07946 -0.17500
C 	C 	0.74520 0.40581 0.09597 0.12900
H 	H 	0.74120 0.39180 0.10970 -0.02500
C 	C 	0.82580 0.42177 0.09216 -0.18700
C 	C 	0.83200 0.44226 0.07131 -0.00500
H 	H 	0.88660 0.45280 0.06860 0.05100
C 	C 	0.75760 0.44710 0.05455 0.06700
C 	C 	0.67650 0.43116 0.05842 -0.01400
H 	H 	0.62660 0.43410 0.04710 0.04600
C 	C 	0.90320 0.41668 0.11064 0.52900
C 	C 	0.82810 0.48224 0.02291 0.21300
C 	C 	0.80970 0.50301 0.99955 0.00800
C 	C 	0.87610 0.50664 0.98006 -0.10200
H 	H 	0.93170 0.49620 0.98130 0.09000
C 	C 	0.86040 0.52588 0.95850 0.07200
H 	H 	0.90510 0.52830 0.94540 0.00500
C 	C 	0.77730 0.54136 0.95681 -0.17600
C 	C 	0.71040 0.53804 0.97662 0.07100
H 	H 	0.65540 0.54880 0.97560 0.01000
C 	C 	0.72610 0.51872 0.99767 -0.10700
H 	H 	0.68110 0.51610 0.01060 0.06200
C 	C 	0.76160 0.56289 0.93394 0.51600
N 	N 	0.75620 0.46798 0.03252 -0.23300
H 	H 	0.70380 0.47130 0.02510 0.12700
O 	O 	0.51430 0.39907 0.06955 -0.49800
O 	O 	0.57220 0.37272 0.10034 -0.54700
O 	O 	0.86860 0.41349 0.13254 -0.50400
O 	O 	0.98580 0.41575 0.10505 -0.59400
O 	O 	0.90760 0.47895 0.03011 -0.23700
O 	O 	0.79530 0.55772 0.91202 -0.56400
O 	O 	0.71230 0.58366 0.94197 -0.50000
C 	C 	0.58270 0.89365 0.58458 0.47700
C 	C 	0.67010 0.91050 0.57946 -0.17500
C 	C 	0.74520 0.90581 0.59597 0.12900
H 	H 	0.74120 0.89180 0.60970 -0.02500
C 	C 	0.82580 0.92177 0.59216 -0.18700
C 	C 	0.83200 0.94226 0.57131 -0.00500
H 	H 	0.88660 0.95280 0.56860 0.05100
C 	C 	0.75760 0.94710 0.55455 0.06700
C 	C 	0.67650 0.93116 0.55842 -0.01400
H 	H 	0.62660 0.93410 0.54710 0.04600
C 	C 	0.90320 0.91668 0.61064 0.52900
C 	C 	0.82810 0.98224 0.52291 0.21300
C 	C 	0.80970 0.00301 0.49955 0.00800
C 	C 	0.87610 0.00664 0.48006 -0.10200
H 	H 	0.93170 0.99620 0.48130 0.09000
C 	C 	0.86040 0.02588 0.45850 0.07200
H 	H 	0.90510 0.02830 0.44540 0.00500
C 	C 	0.77730 0.04136 0.45681 -0.17600
C 	C 	0.71040 0.03804 0.47662 0.07100
H 	H 	0.65540 0.04880 0.47560 0.01000
C 	C 	0.72610 0.01872 0.49767 -0.10700
H 	H 	0.68110 0.01610 0.51060 0.06200
C 	C 	0.76160 0.06289 0.43394 0.51600
N 	N 	0.75620 0.96798 0.53252 -0.23300
H 	H 	0.70380 0.97130 0.52510 0.12700
O 	O 	0.51430 0.89907 0.56955 -0.49800
O 	O 	0.57220 0.87272 0.60034 -0.54700
O 	O 	0.86860 0.91349 0.63254 -0.50400
O 	O 	0.98580 0.91575 0.60505 -0.59400
O 	O 	0.90760 0.97895 0.53011 -0.23700
O 	O 	0.79530 0.05772 0.41202 -0.56400
O 	O 	0.71230 0.08366 0.44197 -0.50000
C 	C 	0.08270 0.39365 0.58458 0.47700
C 	C 	0.17010 0.41050 0.57946 -0.17500
C 	C 	0.24520 0.40581 0.59597 0.12900
H 	H 	0.24120 0.39180 0.60970 -0.02500
C 	C 	0.32580 0.42177 0.59216 -0.18700
C 	C 	0.33200 0.44226 0.57131 -0.00500
H 	H 	0.38660 0.45280 0.56860 0.05200
C 	C 	0.25760 0.44710 0.55455 0.06700
C 	C 	0.17650 0.43116 0.55842 -0.01400
H 	H 	0.12660 0.43410 0.54710 0.04600
C 	C 	0.40320 0.41668 0.61064 0.52900
C 	C 	0.32810 0.48224 0.52291 0.21300
C 	C 	0.30970 0.50301 0.49955 0.00800
C 	C 	0.37610 0.50664 0.48006 -0.10200
H 	H 	0.43170 0.49620 0.48130 0.09000
C 	C 	0.36040 0.52588 0.45850 0.07200
H 	H 	0.40510 0.52830 0.44540 0.00500
C 	C 	0.27730 0.54136 0.45681 -0.17600
C 	C 	0.21040 0.53804 0.47662 0.07100
H 	H 	0.15540 0.54880 0.47560 0.01000
C 	C 	0.22610 0.51872 0.49767 -0.10700
H 	H 	0.18110 0.51610 0.51060 0.06200
C 	C 	0.26160 0.56289 0.43394 0.51600
N 	N 	0.25620 0.46798 0.53252 -0.23300
H 	H 	0.20380 0.47130 0.52510 0.12700
O 	O 	0.01430 0.39907 0.56955 -0.49900
O 	O 	0.07220 0.37272 0.60034 -0.54700
O 	O 	0.36860 0.41349 0.63254 -0.50400
O 	O 	0.48580 0.41575 0.60505 -0.59400
O 	O 	0.40760 0.47895 0.53011 -0.23700
O 	O 	0.29530 0.55772 0.41202 -0.56400
O 	O 	0.21230 0.58366 0.44197 -0.50000
C 	C 	0.08270 0.89365 0.08458 0.47700
C 	C 	0.17010 0.91050 0.07946 -0.17500
C 	C 	0.24520 0.90581 0.09597 0.12900
H 	H 	0.24120 0.89180 0.10970 -0.02500
C 	C 	0.32580 0.92177 0.09216 -0.18700
C 	C 	0.33200 0.94226 0.07131 -0.00500
H 	H 	0.38660 0.95280 0.06860 0.05200
C 	C 	0.25760 0.94710 0.05455 0.06700
C 	C 	0.17650 0.93116 0.05842 -0.01400
H 	H 	0.12660 0.93410 0.04710 0.04600
C 	C 	0.40320 0.91668 0.11064 0.52900
C 	C 	0.32810 0.98224 0.02291 0.21300
C 	C 	0.30970 0.00301 0.99955 0.00800
C 	C 	0.37610 0.00664 0.98006 -0.10200
H 	H 	0.43170 0.99620 0.98130 0.09000
C 	C 	0.36040 0.02588 0.95850 0.07200
H 	H 	0.40510 0.02830 0.94540 0.00500
C 	C 	0.27730 0.04136 0.95681 -0.17600
C 	C 	0.21040 0.03804 0.97662 0.07100
H 	H 	0.15540 0.04880 0.97560 0.01000
C 	C 	0.22610 0.01872 0.99767 -0.10700
H 	H 	0.18110 0.01610 0.01060 0.06200
C 	C 	0.26160 0.06289 0.93394 0.51600
N 	N 	0.25620 0.96798 0.03252 -0.23300
H 	H 	0.20380 0.97130 0.02510 0.12700
O 	O 	0.01430 0.89907 0.06955 -0.49900
O 	O 	0.07220 0.87272 0.10034 -0.54700
O 	O 	0.36860 0.91349 0.13254 -0.50400
O 	O 	0.48580 0.91575 0.10505 -0.59400
O 	O 	0.40760 0.97895 0.03011 -0.23700
O 	O 	0.29530 0.05772 0.91202 -0.56400
O 	O 	0.21230 0.08366 0.94197 -0.50000
C 	C 	0.66730 0.85635 0.08458 0.47700
C 	C 	0.57990 0.83950 0.07946 -0.17500
C 	C 	0.50480 0.84419 0.09597 0.12900
H 	H 	0.50880 0.85820 0.10970 -0.02500
C 	C 	0.42420 0.82823 0.09216 -0.18700
C 	C 	0.41800 0.80774 0.07131 -0.00500
H 	H 	0.36340 0.79720 0.06860 0.05200
C 	C 	0.49240 0.80290 0.05455 0.06700
C 	C 	0.57350 0.81884 0.05842 -0.01400
H 	H 	0.62340 0.81590 0.04710 0.04600
C 	C 	0.34680 0.83332 0.11064 0.52900
C 	C 	0.42190 0.76776 0.02291 0.21300
C 	C 	0.44030 0.74699 0.99955 0.00800
C 	C 	0.37390 0.74336 0.98006 -0.10200
H 	H 	0.31830 0.75380 0.98130 0.09000
C 	C 	0.38960 0.72412 0.95850 0.07200
H 	H 	0.34490 0.72170 0.94540 0.00500
C 	C 	0.47270 0.70864 0.95681 -0.17600
C 	C 	0.53960 0.71196 0.97662 0.07100
H 	H 	0.59460 0.70120 0.97560 0.01000
C 	C 	0.52390 0.73128 0.99767 -0.10700
H 	H 	0.56890 0.73390 0.01060 0.06200
C 	C 	0.48840 0.68711 0.93394 0.51600
N 	N 	0.49380 0.78202 0.03252 -0.23300
H 	H 	0.54620 0.77870 0.02510 0.12700
O 	O 	0.73570 0.85093 0.06955 -0.49800
O 	O 	0.67780 0.87728 0.10034 -0.54700
O 	O 	0.38140 0.83651 0.13254 -0.50400
O 	O 	0.26420 0.83425 0.10505 -0.59400
O 	O 	0.34240 0.77105 0.03011 -0.23700
O 	O 	0.45470 0.69228 0.91202 -0.56400
O 	O 	0.53770 0.66634 0.94197 -0.50000
C 	C 	0.66730 0.35635 0.58458 0.47700
C 	C 	0.57990 0.33950 0.57946 -0.17500
C 	C 	0.50480 0.34419 0.59597 0.12900
H 	H 	0.50880 0.35820 0.60970 -0.02500
C 	C 	0.42420 0.32823 0.59216 -0.18700
C 	C 	0.41800 0.30774 0.57131 -0.00500
H 	H 	0.36340 0.29720 0.56860 0.05200
C 	C 	0.49240 0.30290 0.55455 0.06700
C 	C 	0.57350 0.31884 0.55842 -0.01400
H 	H 	0.62340 0.31590 0.54710 0.04600
C 	C 	0.34680 0.33332 0.61064 0.52900
C 	C 	0.42190 0.26776 0.52291 0.21300
C 	C 	0.44030 0.24699 0.49955 0.00800
C 	C 	0.37390 0.24336 0.48006 -0.10200
H 	H 	0.31830 0.25380 0.48130 0.09000
C 	C 	0.38960 0.22412 0.45850 0.07200
H 	H 	0.34490 0.22170 0.44540 0.00500
C 	C 	0.47270 0.20864 0.45681 -0.17600
C 	C 	0.53960 0.21196 0.47662 0.07100
H 	H 	0.59460 0.20120 0.47560 0.01000
C 	C 	0.52390 0.23128 0.49767 -0.10700
H 	H 	0.56890 0.23390 0.51060 0.06200
C 	C 	0.48840 0.18711 0.43394 0.51600
N 	N 	0.49380 0.28202 0.53252 -0.23300
H 	H 	0.54620 0.27870 0.52510 0.12700
O 	O 	0.73570 0.35093 0.56955 -0.49800
O 	O 	0.67780 0.37728 0.60034 -0.54700
O 	O 	0.38140 0.33651 0.63254 -0.50400
O 	O 	0.26420 0.33425 0.60505 -0.59400
O 	O 	0.34240 0.27105 0.53011 -0.23700
O 	O 	0.45470 0.19228 0.41202 -0.56400
O 	O 	0.53770 0.16634 0.44197 -0.50000
C 	C 	0.16730 0.85635 0.58458 0.47700
C 	C 	0.07990 0.83950 0.57946 -0.17500
C 	C 	0.00480 0.84419 0.59597 0.12900
H 	H 	0.00880 0.85820 0.60970 -0.02400
C 	C 	0.92420 0.82823 0.59216 -0.18600
C 	C 	0.91800 0.80774 0.57131 -0.00500
H 	H 	0.86340 0.79720 0.56860 0.05200
C 	C 	0.99240 0.80290 0.55455 0.06700
C 	C 	0.07350 0.81884 0.55842 -0.01400
H 	H 	0.12340 0.81590 0.54710 0.04600
C 	C 	0.84680 0.83332 0.61064 0.52900
C 	C 	0.92190 0.76776 0.52291 0.21300
C 	C 	0.94030 0.74699 0.49955 0.00800
C 	C 	0.87390 0.74336 0.48006 -0.10200
H 	H 	0.81830 0.75380 0.48130 0.09000
C 	C 	0.88960 0.72412 0.45850 0.07200
H 	H 	0.84490 0.72170 0.44540 0.00500
C 	C 	0.97270 0.70864 0.45681 -0.17600
C 	C 	0.03960 0.71196 0.47662 0.07100
H 	H 	0.09460 0.70120 0.47560 0.01000
C 	C 	0.02390 0.73128 0.49767 -0.10800
H 	H 	0.06890 0.73390 0.51060 0.06200
C 	C 	0.98840 0.68711 0.43394 0.51600
N 	N 	0.99380 0.78202 0.53252 -0.23300
H 	H 	0.04620 0.77870 0.52510 0.12700
O 	O 	0.23570 0.85093 0.56955 -0.49800
O 	O 	0.17780 0.87728 0.60034 -0.54700
O 	O 	0.88140 0.83651 0.63254 -0.50400
O 	O 	0.76420 0.83425 0.60505 -0.59400
O 	O 	0.84240 0.77105 0.53011 -0.23700
O 	O 	0.95470 0.69228 0.41202 -0.56400
O 	O 	0.03770 0.66634 0.44197 -0.50000
C 	C 	0.16730 0.35635 0.08458 0.47700
C 	C 	0.07990 0.33950 0.07946 -0.17500
C 	C 	0.00480 0.34419 0.09597 0.12900
H 	H 	0.00880 0.35820 0.10970 -0.02400
C 	C 	0.92420 0.32823 0.09216 -0.18600
C 	C 	0.91800 0.30774 0.07131 -0.00500
H 	H 	0.86340 0.29720 0.06860 0.05200
C 	C 	0.99240 0.30290 0.05455 0.06700
C 	C 	0.07350 0.31884 0.05842 -0.01400
H 	H 	0.12340 0.31590 0.04710 0.04600
C 	C 	0.84680 0.33332 0.11064 0.52900
C 	C 	0.92190 0.26776 0.02291 0.21300
C 	C 	0.94030 0.24699 0.99955 0.00800
C 	C 	0.87390 0.24336 0.98006 -0.10200
H 	H 	0.81830 0.25380 0.98130 0.09000
C 	C 	0.88960 0.22412 0.95850 0.07200
H 	H 	0.84490 0.22170 0.94540 0.00500
C 	C 	0.97270 0.20864 0.95681 -0.17600
C 	C 	0.03960 0.21196 0.97662 0.07100
H 	H 	0.09460 0.20120 0.97560 0.01000
C 	C 	0.02390 0.23128 0.99767 -0.10700
H 	H 	0.06890 0.23390 0.01060 0.06200
C 	C 	0.98840 0.18711 0.93394 0.51600
N 	N 	0.99380 0.28202 0.03252 -0.23300
H 	H 	0.04620 0.27870 0.02510 0.12700
O 	O 	0.23570 0.35093 0.06955 -0.49800
O 	O 	0.17780 0.37728 0.10034 -0.54700
O 	O 	0.88140 0.33651 0.13254 -0.50400
O 	O 	0.76420 0.33425 0.10505 -0.59400
O 	O 	0.84240 0.27105 0.03011 -0.23700
O 	O 	0.95470 0.19228 0.91202 -0.56400
O 	O 	0.03770 0.16634 0.94197 -0.50000
C 	C 	0.66730 0.39365 0.16542 0.47700
C 	C 	0.57990 0.41050 0.17054 -0.17500
C 	C 	0.50480 0.40581 0.15403 0.12900
H 	H 	0.50880 0.39180 0.14030 -0.02500
C 	C 	0.42420 0.42177 0.15784 -0.18700
C 	C 	0.41800 0.44226 0.17869 -0.00500
H 	H 	0.36340 0.45280 0.18140 0.05200
C 	C 	0.49240 0.44710 0.19545 0.06700
C 	C 	0.57350 0.43116 0.19158 -0.01400
H 	H 	0.62340 0.43410 0.20290 0.04600
C 	C 	0.34680 0.41668 0.13936 0.52900
C 	C 	0.42190 0.48224 0.22709 0.21300
C 	C 	0.44030 0.50301 0.25045 0.00800
C 	C 	0.37390 0.50664 0.26994 -0.10200
H 	H 	0.31830 0.49620 0.26870 0.09000
C 	C 	0.38960 0.52588 0.29150 0.07200
H 	H 	0.34490 0.52830 0.30460 0.00500
C 	C 	0.47270 0.54136 0.29319 -0.17600
C 	C 	0.53960 0.53804 0.27338 0.07100
H 	H 	0.59460 0.54880 0.27440 0.01000
C 	C 	0.52390 0.51872 0.25233 -0.10700
H 	H 	0.56890 0.51610 0.23940 0.06200
C 	C 	0.48840 0.56289 0.31606 0.51600
N 	N 	0.49380 0.46798 0.21748 -0.23300
H 	H 	0.54620 0.47130 0.22490 0.12700
O 	O 	0.73570 0.39907 0.18045 -0.49800
O 	O 	0.67780 0.37272 0.14966 -0.54700
O 	O 	0.38140 0.41349 0.11746 -0.50400
O 	O 	0.26420 0.41575 0.14495 -0.59400
O 	O 	0.34240 0.47895 0.21989 -0.23700
O 	O 	0.45470 0.55772 0.33798 -0.56400
O 	O 	0.53770 0.58366 0.30803 -0.50000
C 	C 	0.66730 0.89365 0.66542 0.47700
C 	C 	0.57990 0.91050 0.67054 -0.17500
C 	C 	0.50480 0.90581 0.65403 0.12900
H 	H 	0.50880 0.89180 0.64030 -0.02500
C 	C 	0.42420 0.92177 0.65784 -0.18700
C 	C 	0.41800 0.94226 0.67869 -0.00500
H 	H 	0.36340 0.95280 0.68140 0.05200
C 	C 	0.49240 0.94710 0.69545 0.06700
C 	C 	0.57350 0.93116 0.69158 -0.01400
H 	H 	0.62340 0.93410 0.70290 0.04600
C 	C 	0.34680 0.91668 0.63936 0.52900
C 	C 	0.42190 0.98224 0.72709 0.21300
C 	C 	0.44030 0.00301 0.75045 0.00800
C 	C 	0.37390 0.00664 0.76994 -0.10200
H 	H 	0.31830 0.99620 0.76870 0.09000
C 	C 	0.38960 0.02588 0.79150 0.07200
H 	H 	0.34490 0.02830 0.80460 0.00500
C 	C 	0.47270 0.04136 0.79319 -0.17600
C 	C 	0.53960 0.03804 0.77338 0.07100
H 	H 	0.59460 0.04880 0.77440 0.01000
C 	C 	0.52390 0.01872 0.75233 -0.10700
H 	H 	0.56890 0.01610 0.73940 0.06200
C 	C 	0.48840 0.06289 0.81606 0.51600
N 	N 	0.49380 0.96798 0.71748 -0.23300
H 	H 	0.54620 0.97130 0.72490 0.12700
O 	O 	0.73570 0.89907 0.68045 -0.49800
O 	O 	0.67780 0.87272 0.64966 -0.54700
O 	O 	0.38140 0.91349 0.61746 -0.50400
O 	O 	0.26420 0.91575 0.64495 -0.59400
O 	O 	0.34240 0.97895 0.71989 -0.23700
O 	O 	0.45470 0.05772 0.83798 -0.56400
O 	O 	0.53770 0.08366 0.80803 -0.50000
C 	C 	0.16730 0.39365 0.66542 0.47700
C 	C 	0.07990 0.41050 0.67054 -0.17500
C 	C 	0.00480 0.40581 0.65403 0.12900
H 	H 	0.00880 0.39180 0.64030 -0.02400
C 	C 	0.92420 0.42177 0.65784 -0.18700
C 	C 	0.91800 0.44226 0.67869 -0.00500
H 	H 	0.86340 0.45280 0.68140 0.05200
C 	C 	0.99240 0.44710 0.69545 0.06700
C 	C 	0.07350 0.43116 0.69158 -0.01400
H 	H 	0.12340 0.43410 0.70290 0.04600
C 	C 	0.84680 0.41668 0.63936 0.52900
C 	C 	0.92190 0.48224 0.72709 0.21300
C 	C 	0.94030 0.50301 0.75045 0.00800
C 	C 	0.87390 0.50664 0.76994 -0.10200
H 	H 	0.81830 0.49620 0.76870 0.09000
C 	C 	0.88960 0.52588 0.79150 0.07200
H 	H 	0.84490 0.52830 0.80460 0.00500
C 	C 	0.97270 0.54136 0.79319 -0.17600
C 	C 	0.03960 0.53804 0.77338 0.07100
H 	H 	0.09460 0.54880 0.77440 0.01000
C 	C 	0.02390 0.51872 0.75233 -0.10800
H 	H 	0.06890 0.51610 0.73940 0.06200
C 	C 	0.98840 0.56289 0.81606 0.51600
N 	N 	0.99380 0.46798 0.71748 -0.23300
H 	H 	0.04620 0.47130 0.72490 0.12700
O 	O 	0.23570 0.39907 0.68045 -0.49800
O 	O 	0.17780 0.37272 0.64966 -0.54700
O 	O 	0.88140 0.41349 0.61746 -0.50400
O 	O 	0.76420 0.41575 0.64495 -0.59400
O 	O 	0.84240 0.47895 0.71989 -0.23700
O 	O 	0.95470 0.55772 0.83798 -0.56400
O 	O 	0.03770 0.58366 0.80803 -0.50000
C 	C 	0.16730 0.89365 0.16542 0.47700
C 	C 	0.07990 0.91050 0.17054 -0.17500
C 	C 	0.00480 0.90581 0.15403 0.12900
H 	H 	0.00880 0.89180 0.14030 -0.02400
C 	C 	0.92420 0.92177 0.15784 -0.18600
C 	C 	0.91800 0.94226 0.17869 -0.00500
H 	H 	0.86340 0.95280 0.18140 0.05200
C 	C 	0.99240 0.94710 0.19545 0.06700
C 	C 	0.07350 0.93116 0.19158 -0.01400
H 	H 	0.12340 0.93410 0.20290 0.04600
C 	C 	0.84680 0.91668 0.13936 0.52900
C 	C 	0.92190 0.98224 0.22709 0.21300
C 	C 	0.94030 0.00301 0.25045 0.00800
C 	C 	0.87390 0.00664 0.26994 -0.10200
H 	H 	0.81830 0.99620 0.26870 0.09000
C 	C 	0.88960 0.02588 0.29150 0.07200
H 	H 	0.84490 0.02830 0.30460 0.00500
C 	C 	0.97270 0.04136 0.29319 -0.17600
C 	C 	0.03960 0.03804 0.27338 0.07100
H 	H 	0.09460 0.04880 0.27440 0.01000
C 	C 	0.02390 0.01872 0.25233 -0.10800
H 	H 	0.06890 0.01610 0.23940 0.06200
C 	C 	0.98840 0.06289 0.31606 0.51600
N 	N 	0.99380 0.96798 0.21748 -0.23300
H 	H 	0.04620 0.97130 0.22490 0.12700
O 	O 	0.23570 0.89907 0.18045 -0.49800
O 	O 	0.17780 0.87272 0.14966 -0.54700
O 	O 	0.88140 0.91349 0.11746 -0.50400
O 	O 	0.76420 0.91575 0.14495 -0.59400
O 	O 	0.84240 0.97895 0.21989 -0.23700
O 	O 	0.95470 0.05772 0.33798 -0.56400
O 	O 	0.03770 0.08366 0.30803 -0.50000
C 	C 	0.58270 0.85635 0.16542 0.47700
C 	C 	0.67010 0.83950 0.17054 -0.17500
C 	C 	0.74520 0.84419 0.15403 0.12900
H 	H 	0.74120 0.85820 0.14030 -0.02500
C 	C 	0.82580 0.82823 0.15784 -0.18700
C 	C 	0.83200 0.80774 0.17869 -0.00500
H 	H 	0.88660 0.79720 0.18140 0.05100
C 	C 	0.75760 0.80290 0.19545 0.06700
C 	C 	0.67650 0.81884 0.19158 -0.01400
H 	H 	0.62660 0.81590 0.20290 0.04600
C 	C 	0.90320 0.83332 0.13936 0.52900
C 	C 	0.82810 0.76776 0.22709 0.21300
C 	C 	0.80970 0.74699 0.25045 0.00800
C 	C 	0.87610 0.74336 0.26994 -0.10200
H 	H 	0.93170 0.75380 0.26870 0.09000
C 	C 	0.86040 0.72412 0.29150 0.07200
H 	H 	0.90510 0.72170 0.30460 0.00500
C 	C 	0.77730 0.70864 0.29319 -0.17600
C 	C 	0.71040 0.71196 0.27338 0.07100
H 	H 	0.65540 0.70120 0.27440 0.01000
C 	C 	0.72610 0.73128 0.25233 -0.10700
H 	H 	0.68110 0.73390 0.23940 0.06200
C 	C 	0.76160 0.68711 0.31606 0.51600
N 	N 	0.75620 0.78202 0.21748 -0.23300
H 	H 	0.70380 0.77870 0.22490 0.12700
O 	O 	0.51430 0.85093 0.18045 -0.49800
O 	O 	0.57220 0.87728 0.14966 -0.54700
O 	O 	0.86860 0.83651 0.11746 -0.50400
O 	O 	0.98580 0.83425 0.14495 -0.59400
O 	O 	0.90760 0.77105 0.21989 -0.23700
O 	O 	0.79530 0.69228 0.33798 -0.56400
O 	O 	0.71230 0.66634 0.30803 -0.50000
C 	C 	0.58270 0.35635 0.66542 0.47700
C 	C 	0.67010 0.33950 0.67054 -0.17500
C 	C 	0.74520 0.34419 0.65403 0.12900
H 	H 	0.74120 0.35820 0.64030 -0.02500
C 	C 	0.82580 0.32823 0.65784 -0.18700
C 	C 	0.83200 0.30774 0.67869 -0.00500
H 	H 	0.88660 0.29720 0.68140 0.05100
C 	C 	0.75760 0.30290 0.69545 0.06700
C 	C 	0.67650 0.31884 0.69158 -0.01400
H 	H 	0.62660 0.31590 0.70290 0.04600
C 	C 	0.90320 0.33332 0.63936 0.52900
C 	C 	0.82810 0.26776 0.72709 0.21300
C 	C 	0.80970 0.24699 0.75045 0.00800
C 	C 	0.87610 0.24336 0.76994 -0.10200
H 	H 	0.93170 0.25380 0.76870 0.09000
C 	C 	0.86040 0.22412 0.79150 0.07200
H 	H 	0.90510 0.22170 0.80460 0.00500
C 	C 	0.77730 0.20864 0.79319 -0.17600
C 	C 	0.71040 0.21196 0.77338 0.07100
H 	H 	0.65540 0.20120 0.77440 0.01000
C 	C 	0.72610 0.23128 0.75233 -0.10700
H 	H 	0.68110 0.23390 0.73940 0.06200
C 	C 	0.76160 0.18711 0.81606 0.51600
N 	N 	0.75620 0.28202 0.71748 -0.23300
H 	H 	0.70380 0.27870 0.72490 0.12700
O 	O 	0.51430 0.35093 0.68045 -0.49800
O 	O 	0.57220 0.37728 0.64966 -0.54700
O 	O 	0.86860 0.33651 0.61746 -0.50400
O 	O 	0.98580 0.33425 0.64495 -0.59400
O 	O 	0.90760 0.27105 0.71989 -0.23700
O 	O 	0.79530 0.19228 0.83798 -0.56400
O 	O 	0.71230 0.16634 0.80803 -0.50000
C 	C 	0.08270 0.85635 0.66542 0.47700
C 	C 	0.17010 0.83950 0.67054 -0.17500
C 	C 	0.24520 0.84419 0.65403 0.12900
H 	H 	0.24120 0.85820 0.64030 -0.02500
C 	C 	0.32580 0.82823 0.65784 -0.18700
C 	C 	0.33200 0.80774 0.67869 -0.00500
H 	H 	0.38660 0.79720 0.68140 0.05200
C 	C 	0.25760 0.80290 0.69545 0.06700
C 	C 	0.17650 0.81884 0.69158 -0.01400
H 	H 	0.12660 0.81590 0.70290 0.04600
C 	C 	0.40320 0.83332 0.63936 0.52900
C 	C 	0.32810 0.76776 0.72709 0.21300
C 	C 	0.30970 0.74699 0.75045 0.00800
C 	C 	0.37610 0.74336 0.76994 -0.10200
H 	H 	0.43170 0.75380 0.76870 0.09000
C 	C 	0.36040 0.72412 0.79150 0.07200
H 	H 	0.40510 0.72170 0.80460 0.00500
C 	C 	0.27730 0.70864 0.79319 -0.17600
C 	C 	0.21040 0.71196 0.77338 0.07100
H 	H 	0.15540 0.70120 0.77440 0.01000
C 	C 	0.22610 0.73128 0.75233 -0.10700
H 	H 	0.18110 0.73390 0.73940 0.06200
C 	C 	0.26160 0.68711 0.81606 0.51600
N 	N 	0.25620 0.78202 0.71748 -0.23300
H 	H 	0.20380 0.77870 0.72490 0.12700
O 	O 	0.01430 0.85093 0.68045 -0.49900
O 	O 	0.07220 0.87728 0.64966 -0.54700
O 	O 	0.36860 0.83651 0.61746 -0.50400
O 	O 	0.48580 0.83425 0.64495 -0.59400
O 	O 	0.40760 0.77105 0.71989 -0.23700
O 	O 	0.29530 0.69228 0.83798 -0.56400
O 	O 	0.21230 0.66634 0.80803 -0.50000
C 	C 	0.08270 0.35635 0.16542 0.47700
C 	C 	0.17010 0.33950 0.17054 -0.17500
C 	C 	0.24520 0.34419 0.15403 0.12900
H 	H 	0.24120 0.35820 0.14030 -0.02500
C 	C 	0.32580 0.32823 0.15784 -0.18700
C 	C 	0.33200 0.30774 0.17869 -0.00500
H 	H 	0.38660 0.29720 0.18140 0.05200
C 	C 	0.25760 0.30290 0.19545 0.06700
C 	C 	0.17650 0.31884 0.19158 -0.01400
H 	H 	0.12660 0.31590 0.20290 0.04600
C 	C 	0.40320 0.33332 0.13936 0.52900
C 	C 	0.32810 0.26776 0.22709 0.21300
C 	C 	0.30970 0.24699 0.25045 0.00800
C 	C 	0.37610 0.24336 0.26994 -0.10200
H 	H 	0.43170 0.25380 0.26870 0.09000
C 	C 	0.36040 0.22412 0.29150 0.07200
H 	H 	0.40510 0.22170 0.30460 0.00500
C 	C 	0.27730 0.20864 0.29319 -0.17600
C 	C 	0.21040 0.21196 0.27338 0.07100
H 	H 	0.15540 0.20120 0.27440 0.01000
C 	C 	0.22610 0.23128 0.25233 -0.10700
H 	H 	0.18110 0.23390 0.23940 0.06200
C 	C 	0.26160 0.18711 0.31606 0.51600
N 	N 	0.25620 0.28202 0.21748 -0.23300
H 	H 	0.20380 0.27870 0.22490 0.12700
O 	O 	0.01430 0.35093 0.18045 -0.49900
O 	O 	0.07220 0.37728 0.14966 -0.54700
O 	O 	0.36860 0.33651 0.11746 -0.50400
O 	O 	0.48580 0.33425 0.14495 -0.59400
O 	O 	0.40760 0.27105 0.21989 -0.23700
O 	O 	0.29530 0.19228 0.33798 -0.56400
O 	O 	0.21230 0.16634 0.30803 -0.50000
Eu	Eu	0.62500 0.62500 0.91974 1.92600
Eu	Eu	0.62500 0.12500 0.41974 1.92600
Eu	Eu	0.12500 0.12500 0.91974 1.92600
Eu	Eu	0.12500 0.62500 0.41974 1.92600
Eu	Eu	0.12500 0.62500 0.83026 1.92600
Eu	Eu	0.12500 0.12500 0.33026 1.92600
Eu	Eu	0.62500 0.62500 0.33026 1.92600
Eu	Eu	0.62500 0.12500 0.83026 1.92600
Eu	Eu	0.37500 0.37500 0.08026 1.92600
Eu	Eu	0.37500 0.87500 0.58026 1.92600
Eu	Eu	0.87500 0.87500 0.08026 1.92600
Eu	Eu	0.87500 0.37500 0.58026 1.92600
Eu	Eu	0.87500 0.37500 0.16974 1.92600
Eu	Eu	0.87500 0.87500 0.66974 1.92600
Eu	Eu	0.37500 0.87500 0.16974 1.92600
Eu	Eu	0.37500 0.37500 0.66974 1.92600
Eu	Eu	0.37500 0.67126 0.87500 2.06100
Eu	Eu	0.37500 0.17126 0.37500 2.06100
Eu	Eu	0.87500 0.67126 0.37500 2.06100
Eu	Eu	0.87500 0.17126 0.87500 2.06100
Eu	Eu	0.37500 0.07874 0.87500 2.06100
Eu	Eu	0.37500 0.57874 0.37500 2.06100
Eu	Eu	0.87500 0.07874 0.37500 2.06100
Eu	Eu	0.87500 0.57874 0.87500 2.06100
Eu	Eu	0.62500 0.32874 0.12500 2.06100
Eu	Eu	0.62500 0.82874 0.62500 2.06100
Eu	Eu	0.12500 0.32874 0.62500 2.06100
Eu	Eu	0.12500 0.82874 0.12500 2.06100
Eu	Eu	0.62500 0.92126 0.12500 2.06100
Eu	Eu	0.62500 0.42126 0.62500 2.06100
Eu	Eu	0.12500 0.92126 0.62500 2.06100
Eu	Eu	0.12500 0.42126 0.12500 2.06100
