data_crystal

_cell_length_a 42.60600
_cell_length_b 42.60600
_cell_length_c 42.60600
_cell_angle_alpha 90.00000
_cell_angle_beta  90.00000
_cell_angle_gamma 90.00000

_symmetry_space_group_name_	'P 1'
_symmetry_space_group_name_H-M	'P 1'

loop_
_symmetry_equiv_pos_as_xyz
  x,y,z

loop_
_atom_site_label
_atom_site_type_symbol
_atom_site_fract_x
_atom_site_fract_y
_atom_site_fract_z
_atom_site_charge
N 	N 	0.30716 0.17067 0.10606 -0.21100
C 	C 	0.28695 0.17787 0.08351 0.11400
H 	H 	0.26930 0.16600 0.07860 0.01200
O 	O 	0.25449 0.20877 0.03293 -0.41300
N 	N 	0.30716 0.67067 0.60606 -0.21100
C 	C 	0.28695 0.67787 0.58351 0.11400
H 	H 	0.26930 0.66600 0.57860 0.01300
O 	O 	0.25449 0.70877 0.53293 -0.41200
N 	N 	0.80716 0.17067 0.60606 -0.21100
C 	C 	0.78695 0.17787 0.58351 0.11400
H 	H 	0.76930 0.16600 0.57860 0.01300
O 	O 	0.75449 0.20877 0.53293 -0.41200
N 	N 	0.80716 0.67067 0.10606 -0.21100
C 	C 	0.78695 0.67787 0.08351 0.11400
H 	H 	0.76930 0.66600 0.07860 0.01300
O 	O 	0.75449 0.70877 0.03293 -0.41300
N 	N 	0.69284 0.82933 0.10606 -0.21100
C 	C 	0.71305 0.82213 0.08351 0.11400
H 	H 	0.73070 0.83400 0.07860 0.01300
O 	O 	0.74551 0.79123 0.03293 -0.41200
N 	N 	0.69284 0.32933 0.60606 -0.21100
C 	C 	0.71305 0.32213 0.58351 0.11400
H 	H 	0.73070 0.33400 0.57860 0.01300
O 	O 	0.74551 0.29123 0.53293 -0.41200
N 	N 	0.19284 0.82933 0.60606 -0.21100
C 	C 	0.21305 0.82213 0.58351 0.11400
H 	H 	0.23070 0.83400 0.57860 0.01300
O 	O 	0.24551 0.79123 0.53293 -0.41200
N 	N 	0.19284 0.32933 0.10606 -0.21100
C 	C 	0.21305 0.32213 0.08351 0.11400
H 	H 	0.23070 0.33400 0.07860 0.01300
O 	O 	0.24551 0.29123 0.03293 -0.41300
N 	N 	0.69284 0.17067 0.89394 -0.21100
C 	C 	0.71305 0.17787 0.91649 0.11400
H 	H 	0.73070 0.16600 0.92140 0.01300
O 	O 	0.74551 0.20877 0.96707 -0.41000
N 	N 	0.69284 0.67067 0.39394 -0.21100
C 	C 	0.71305 0.67787 0.41649 0.11400
H 	H 	0.73070 0.66600 0.42140 0.01300
O 	O 	0.74551 0.70877 0.46707 -0.41200
N 	N 	0.19284 0.17067 0.39394 -0.21100
C 	C 	0.21305 0.17787 0.41649 0.11400
H 	H 	0.23070 0.16600 0.42140 0.01300
O 	O 	0.24551 0.20877 0.46707 -0.41200
N 	N 	0.19284 0.67067 0.89394 -0.21100
C 	C 	0.21305 0.67787 0.91649 0.11400
H 	H 	0.23070 0.66600 0.92140 0.01300
O 	O 	0.24551 0.70877 0.96707 -0.41000
N 	N 	0.30716 0.82933 0.89394 -0.21100
C 	C 	0.28695 0.82213 0.91649 0.11400
H 	H 	0.26930 0.83400 0.92140 0.01300
O 	O 	0.25449 0.79123 0.96707 -0.41000
N 	N 	0.30716 0.32933 0.39394 -0.21100
C 	C 	0.28695 0.32213 0.41649 0.11400
H 	H 	0.26930 0.33400 0.42140 0.01300
O 	O 	0.25449 0.29123 0.46707 -0.41200
N 	N 	0.80716 0.82933 0.39394 -0.21100
C 	C 	0.78695 0.82213 0.41649 0.11400
H 	H 	0.76930 0.83400 0.42140 0.01300
O 	O 	0.75449 0.79123 0.46707 -0.41200
N 	N 	0.80716 0.32933 0.89394 -0.21100
C 	C 	0.78695 0.32213 0.91649 0.11400
H 	H 	0.76930 0.33400 0.92140 0.01300
O 	O 	0.75449 0.29123 0.96707 -0.41000
N 	N 	0.10606 0.30716 0.17067 -0.21100
C 	C 	0.08351 0.28695 0.17787 0.11400
H 	H 	0.07860 0.26930 0.16600 0.01200
O 	O 	0.03293 0.25449 0.20877 -0.41300
N 	N 	0.10606 0.80716 0.67067 -0.21100
C 	C 	0.08351 0.78695 0.67787 0.11400
H 	H 	0.07860 0.76930 0.66600 0.01300
O 	O 	0.03293 0.75449 0.70877 -0.41300
N 	N 	0.60606 0.30716 0.67067 -0.21100
C 	C 	0.58351 0.28695 0.67787 0.11400
H 	H 	0.57860 0.26930 0.66600 0.01300
O 	O 	0.53293 0.25449 0.70877 -0.41200
N 	N 	0.60606 0.80716 0.17067 -0.21100
C 	C 	0.58351 0.78695 0.17787 0.11400
H 	H 	0.57860 0.76930 0.16600 0.01300
O 	O 	0.53293 0.75449 0.20877 -0.41200
N 	N 	0.10606 0.69284 0.82933 -0.21200
C 	C 	0.08351 0.71305 0.82213 0.11300
H 	H 	0.07860 0.73070 0.83400 0.01200
O 	O 	0.03293 0.74551 0.79123 -0.41300
N 	N 	0.10606 0.19284 0.32933 -0.21200
C 	C 	0.08351 0.21305 0.32213 0.11300
H 	H 	0.07860 0.23070 0.33400 0.01200
O 	O 	0.03293 0.24551 0.29123 -0.41400
N 	N 	0.60606 0.69284 0.32933 -0.21200
C 	C 	0.58351 0.71305 0.32213 0.11300
H 	H 	0.57860 0.73070 0.33400 0.01200
O 	O 	0.53293 0.74551 0.29123 -0.41300
N 	N 	0.60606 0.19284 0.82933 -0.21200
C 	C 	0.58351 0.21305 0.82213 0.11300
H 	H 	0.57860 0.23070 0.83400 0.01200
O 	O 	0.53293 0.24551 0.79123 -0.41300
N 	N 	0.89394 0.69284 0.17067 -0.21200
C 	C 	0.91649 0.71305 0.17787 0.11300
H 	H 	0.92140 0.73070 0.16600 0.01200
O 	O 	0.96707 0.74551 0.20877 -0.41100
N 	N 	0.89394 0.19284 0.67067 -0.21200
C 	C 	0.91649 0.21305 0.67787 0.11300
H 	H 	0.92140 0.23070 0.66600 0.01200
O 	O 	0.96707 0.24551 0.70877 -0.41100
N 	N 	0.39394 0.69284 0.67067 -0.21200
C 	C 	0.41649 0.71305 0.67787 0.11300
H 	H 	0.42140 0.73070 0.66600 0.01200
O 	O 	0.46707 0.74551 0.70877 -0.41300
N 	N 	0.39394 0.19284 0.17067 -0.21200
C 	C 	0.41649 0.21305 0.17787 0.11300
H 	H 	0.42140 0.23070 0.16600 0.01200
O 	O 	0.46707 0.24551 0.20877 -0.41300
N 	N 	0.89394 0.30716 0.82933 -0.21200
C 	C 	0.91649 0.28695 0.82213 0.11300
H 	H 	0.92140 0.26930 0.83400 0.01200
O 	O 	0.96707 0.25449 0.79123 -0.41100
N 	N 	0.89394 0.80716 0.32933 -0.21200
C 	C 	0.91649 0.78695 0.32213 0.11300
H 	H 	0.92140 0.76930 0.33400 0.01200
O 	O 	0.96707 0.75449 0.29123 -0.41100
N 	N 	0.39394 0.30716 0.32933 -0.21200
C 	C 	0.41649 0.28695 0.32213 0.11300
H 	H 	0.42140 0.26930 0.33400 0.01200
O 	O 	0.46707 0.25449 0.29123 -0.41300
N 	N 	0.39394 0.80716 0.82933 -0.21200
C 	C 	0.41649 0.78695 0.82213 0.11300
H 	H 	0.42140 0.76930 0.83400 0.01200
O 	O 	0.46707 0.75449 0.79123 -0.41300
N 	N 	0.17067 0.10606 0.30716 -0.21200
C 	C 	0.17787 0.08351 0.28695 0.11300
H 	H 	0.16600 0.07860 0.26930 0.01100
O 	O 	0.20877 0.03293 0.25449 -0.41400
N 	N 	0.17067 0.60606 0.80716 -0.21200
C 	C 	0.17787 0.58351 0.78695 0.11300
H 	H 	0.16600 0.57860 0.76930 0.01200
O 	O 	0.20877 0.53293 0.75449 -0.41300
N 	N 	0.67067 0.10606 0.80716 -0.21200
C 	C 	0.67787 0.08351 0.78695 0.11300
H 	H 	0.66600 0.07860 0.76930 0.01200
O 	O 	0.70877 0.03293 0.75449 -0.41400
N 	N 	0.67067 0.60606 0.30716 -0.21200
C 	C 	0.67787 0.58351 0.28695 0.11300
H 	H 	0.66600 0.57860 0.26930 0.01200
O 	O 	0.70877 0.53293 0.25449 -0.41300
N 	N 	0.82933 0.10606 0.69284 -0.21200
C 	C 	0.82213 0.08351 0.71305 0.11300
H 	H 	0.83400 0.07860 0.73070 0.01200
O 	O 	0.79123 0.03293 0.74551 -0.41300
N 	N 	0.82933 0.60606 0.19284 -0.21200
C 	C 	0.82213 0.58351 0.21305 0.11300
H 	H 	0.83400 0.57860 0.23070 0.01200
O 	O 	0.79123 0.53293 0.24551 -0.41300
N 	N 	0.32933 0.10606 0.19284 -0.21200
C 	C 	0.32213 0.08351 0.21305 0.11300
H 	H 	0.33400 0.07860 0.23070 0.01200
O 	O 	0.29123 0.03293 0.24551 -0.41400
N 	N 	0.32933 0.60606 0.69284 -0.21200
C 	C 	0.32213 0.58351 0.71305 0.11300
H 	H 	0.33400 0.57860 0.73070 0.01200
O 	O 	0.29123 0.53293 0.74551 -0.41300
N 	N 	0.17067 0.89394 0.69284 -0.21200
C 	C 	0.17787 0.91649 0.71305 0.11300
H 	H 	0.16600 0.92140 0.73070 0.01200
O 	O 	0.20877 0.96707 0.74551 -0.41100
N 	N 	0.17067 0.39394 0.19284 -0.21200
C 	C 	0.17787 0.41649 0.21305 0.11300
H 	H 	0.16600 0.42140 0.23070 0.01200
O 	O 	0.20877 0.46707 0.24551 -0.41300
N 	N 	0.67067 0.89394 0.19284 -0.21200
C 	C 	0.67787 0.91649 0.21305 0.11300
H 	H 	0.66600 0.92140 0.23070 0.01200
O 	O 	0.70877 0.96707 0.24551 -0.41100
N 	N 	0.67067 0.39394 0.69284 -0.21200
C 	C 	0.67787 0.41649 0.71305 0.11300
H 	H 	0.66600 0.42140 0.73070 0.01200
O 	O 	0.70877 0.46707 0.74551 -0.41300
N 	N 	0.82933 0.89394 0.30716 -0.21200
C 	C 	0.82213 0.91649 0.28695 0.11300
H 	H 	0.83400 0.92140 0.26930 0.01200
O 	O 	0.79123 0.96707 0.25449 -0.41100
N 	N 	0.82933 0.39394 0.80716 -0.21200
C 	C 	0.82213 0.41649 0.78695 0.11300
H 	H 	0.83400 0.42140 0.76930 0.01200
O 	O 	0.79123 0.46707 0.75449 -0.41300
N 	N 	0.32933 0.89394 0.80716 -0.21200
C 	C 	0.32213 0.91649 0.78695 0.11300
H 	H 	0.33400 0.92140 0.76930 0.01200
O 	O 	0.29123 0.96707 0.75449 -0.41100
N 	N 	0.32933 0.39394 0.30716 -0.21200
C 	C 	0.32213 0.41649 0.28695 0.11300
H 	H 	0.33400 0.42140 0.26930 0.01200
O 	O 	0.29123 0.46707 0.25449 -0.41300
N 	N 	0.17067 0.30716 0.89394 -0.21200
C 	C 	0.17787 0.28695 0.91649 0.11300
H 	H 	0.16600 0.26930 0.92140 0.01200
O 	O 	0.20877 0.25449 0.96707 -0.41100
N 	N 	0.17067 0.80716 0.39394 -0.21200
C 	C 	0.17787 0.78695 0.41649 0.11300
H 	H 	0.16600 0.76930 0.42140 0.01200
O 	O 	0.20877 0.75449 0.46707 -0.41300
N 	N 	0.67067 0.30716 0.39394 -0.21200
C 	C 	0.67787 0.28695 0.41649 0.11300
H 	H 	0.66600 0.26930 0.42140 0.01200
O 	O 	0.70877 0.25449 0.46707 -0.41300
N 	N 	0.67067 0.80716 0.89394 -0.21200
C 	C 	0.67787 0.78695 0.91649 0.11300
H 	H 	0.66600 0.76930 0.92140 0.01200
O 	O 	0.70877 0.75449 0.96707 -0.41100
N 	N 	0.82933 0.69284 0.89394 -0.21200
C 	C 	0.82213 0.71305 0.91649 0.11300
H 	H 	0.83400 0.73070 0.92140 0.01200
O 	O 	0.79123 0.74551 0.96707 -0.41100
N 	N 	0.82933 0.19284 0.39394 -0.21200
C 	C 	0.82213 0.21305 0.41649 0.11300
H 	H 	0.83400 0.23070 0.42140 0.01200
O 	O 	0.79123 0.24551 0.46707 -0.41300
N 	N 	0.32933 0.69284 0.39394 -0.21200
C 	C 	0.32213 0.71305 0.41649 0.11300
H 	H 	0.33400 0.73070 0.42140 0.01200
O 	O 	0.29123 0.74551 0.46707 -0.41300
N 	N 	0.32933 0.19284 0.89394 -0.21200
C 	C 	0.32213 0.21305 0.91649 0.11300
H 	H 	0.33400 0.23070 0.92140 0.01200
O 	O 	0.29123 0.24551 0.96707 -0.41100
N 	N 	0.17067 0.69284 0.10606 -0.21200
C 	C 	0.17787 0.71305 0.08351 0.11300
H 	H 	0.16600 0.73070 0.07860 0.01200
O 	O 	0.20877 0.74551 0.03293 -0.41400
N 	N 	0.17067 0.19284 0.60606 -0.21200
C 	C 	0.17787 0.21305 0.58351 0.11300
H 	H 	0.16600 0.23070 0.57860 0.01200
O 	O 	0.20877 0.24551 0.53293 -0.41300
N 	N 	0.67067 0.69284 0.60606 -0.21200
C 	C 	0.67787 0.71305 0.58351 0.11300
H 	H 	0.66600 0.73070 0.57860 0.01200
O 	O 	0.70877 0.74551 0.53293 -0.41300
N 	N 	0.67067 0.19284 0.10606 -0.21200
C 	C 	0.67787 0.21305 0.08351 0.11300
H 	H 	0.66600 0.23070 0.07860 0.01200
O 	O 	0.70877 0.24551 0.03293 -0.41400
N 	N 	0.82933 0.30716 0.10606 -0.21200
C 	C 	0.82213 0.28695 0.08351 0.11300
H 	H 	0.83400 0.26930 0.07860 0.01200
O 	O 	0.79123 0.25449 0.03293 -0.41400
N 	N 	0.82933 0.80716 0.60606 -0.21200
C 	C 	0.82213 0.78695 0.58351 0.11300
H 	H 	0.83400 0.76930 0.57860 0.01200
O 	O 	0.79123 0.75449 0.53293 -0.41300
N 	N 	0.32933 0.30716 0.60606 -0.21200
C 	C 	0.32213 0.28695 0.58351 0.11300
H 	H 	0.33400 0.26930 0.57860 0.01200
O 	O 	0.29123 0.25449 0.53293 -0.41300
N 	N 	0.32933 0.80716 0.10606 -0.21200
C 	C 	0.32213 0.78695 0.08351 0.11300
H 	H 	0.33400 0.76930 0.07860 0.01200
O 	O 	0.29123 0.75449 0.03293 -0.41400
N 	N 	0.30716 0.10606 0.82933 -0.21200
C 	C 	0.28695 0.08351 0.82213 0.11300
H 	H 	0.26930 0.07860 0.83400 0.01200
O 	O 	0.25449 0.03293 0.79123 -0.41400
N 	N 	0.30716 0.60606 0.32933 -0.21200
C 	C 	0.28695 0.58351 0.32213 0.11300
H 	H 	0.26930 0.57860 0.33400 0.01200
O 	O 	0.25449 0.53293 0.29123 -0.41300
N 	N 	0.80716 0.10606 0.32933 -0.21200
C 	C 	0.78695 0.08351 0.32213 0.11300
H 	H 	0.76930 0.07860 0.33400 0.01200
O 	O 	0.75449 0.03293 0.29123 -0.41400
N 	N 	0.80716 0.60606 0.82933 -0.21200
C 	C 	0.78695 0.58351 0.82213 0.11300
H 	H 	0.76930 0.57860 0.83400 0.01200
O 	O 	0.75449 0.53293 0.79123 -0.41300
N 	N 	0.69284 0.10606 0.17067 -0.21200
C 	C 	0.71305 0.08351 0.17787 0.11300
H 	H 	0.73070 0.07860 0.16600 0.01200
O 	O 	0.74551 0.03293 0.20877 -0.41400
N 	N 	0.69284 0.60606 0.67067 -0.21200
C 	C 	0.71305 0.58351 0.67787 0.11300
H 	H 	0.73070 0.57860 0.66600 0.01200
O 	O 	0.74551 0.53293 0.70877 -0.41300
N 	N 	0.19284 0.10606 0.67067 -0.21200
C 	C 	0.21305 0.08351 0.67787 0.11300
H 	H 	0.23070 0.07860 0.66600 0.01200
O 	O 	0.24551 0.03293 0.70877 -0.41400
N 	N 	0.19284 0.60606 0.17067 -0.21200
C 	C 	0.21305 0.58351 0.17787 0.11300
H 	H 	0.23070 0.57860 0.16600 0.01200
O 	O 	0.24551 0.53293 0.20877 -0.41300
N 	N 	0.69284 0.89394 0.82933 -0.21200
C 	C 	0.71305 0.91649 0.82213 0.11300
H 	H 	0.73070 0.92140 0.83400 0.01200
O 	O 	0.74551 0.96707 0.79123 -0.41100
N 	N 	0.69284 0.39394 0.32933 -0.21200
C 	C 	0.71305 0.41649 0.32213 0.11300
H 	H 	0.73070 0.42140 0.33400 0.01200
O 	O 	0.74551 0.46707 0.29123 -0.41300
N 	N 	0.19284 0.89394 0.32933 -0.21200
C 	C 	0.21305 0.91649 0.32213 0.11300
H 	H 	0.23070 0.92140 0.33400 0.01200
O 	O 	0.24551 0.96707 0.29123 -0.41100
N 	N 	0.19284 0.39394 0.82933 -0.21200
C 	C 	0.21305 0.41649 0.82213 0.11300
H 	H 	0.23070 0.42140 0.83400 0.01200
O 	O 	0.24551 0.46707 0.79123 -0.41300
N 	N 	0.30716 0.89394 0.17067 -0.21200
C 	C 	0.28695 0.91649 0.17787 0.11300
H 	H 	0.26930 0.92140 0.16600 0.01200
O 	O 	0.25449 0.96707 0.20877 -0.41100
N 	N 	0.30716 0.39394 0.67067 -0.21200
C 	C 	0.28695 0.41649 0.67787 0.11300
H 	H 	0.26930 0.42140 0.66600 0.01200
O 	O 	0.25449 0.46707 0.70877 -0.41300
N 	N 	0.80716 0.89394 0.67067 -0.21200
C 	C 	0.78695 0.91649 0.67787 0.11300
H 	H 	0.76930 0.92140 0.66600 0.01200
O 	O 	0.75449 0.96707 0.70877 -0.41100
N 	N 	0.80716 0.39394 0.17067 -0.21200
C 	C 	0.78695 0.41649 0.17787 0.11300
H 	H 	0.76930 0.42140 0.16600 0.01200
O 	O 	0.75449 0.46707 0.20877 -0.41300
N 	N 	0.10606 0.17067 0.69284 -0.21200
C 	C 	0.08351 0.17787 0.71305 0.11300
H 	H 	0.07860 0.16600 0.73070 0.01200
O 	O 	0.03293 0.20877 0.74551 -0.41400
N 	N 	0.10606 0.67067 0.19284 -0.21200
C 	C 	0.08351 0.67787 0.21305 0.11300
H 	H 	0.07860 0.66600 0.23070 0.01200
O 	O 	0.03293 0.70877 0.24551 -0.41400
N 	N 	0.60606 0.17067 0.19284 -0.21200
C 	C 	0.58351 0.17787 0.21305 0.11300
H 	H 	0.57860 0.16600 0.23070 0.01200
O 	O 	0.53293 0.20877 0.24551 -0.41300
N 	N 	0.60606 0.67067 0.69284 -0.21200
C 	C 	0.58351 0.67787 0.71305 0.11300
H 	H 	0.57860 0.66600 0.73070 0.01200
O 	O 	0.53293 0.70877 0.74551 -0.41300
N 	N 	0.10606 0.82933 0.30716 -0.21200
C 	C 	0.08351 0.82213 0.28695 0.11300
H 	H 	0.07860 0.83400 0.26930 0.01200
O 	O 	0.03293 0.79123 0.25449 -0.41400
N 	N 	0.10606 0.32933 0.80716 -0.21200
C 	C 	0.08351 0.32213 0.78695 0.11300
H 	H 	0.07860 0.33400 0.76930 0.01200
O 	O 	0.03293 0.29123 0.75449 -0.41400
N 	N 	0.60606 0.82933 0.80716 -0.21200
C 	C 	0.58351 0.82213 0.78695 0.11300
H 	H 	0.57860 0.83400 0.76930 0.01200
O 	O 	0.53293 0.79123 0.75449 -0.41300
N 	N 	0.60606 0.32933 0.30716 -0.21200
C 	C 	0.58351 0.32213 0.28695 0.11300
H 	H 	0.57860 0.33400 0.26930 0.01200
O 	O 	0.53293 0.29123 0.25449 -0.41300
N 	N 	0.89394 0.17067 0.30716 -0.21200
C 	C 	0.91649 0.17787 0.28695 0.11300
H 	H 	0.92140 0.16600 0.26930 0.01200
O 	O 	0.96707 0.20877 0.25449 -0.41100
N 	N 	0.89394 0.67067 0.80716 -0.21200
C 	C 	0.91649 0.67787 0.78695 0.11300
H 	H 	0.92140 0.66600 0.76930 0.01200
O 	O 	0.96707 0.70877 0.75449 -0.41100
N 	N 	0.39394 0.17067 0.80716 -0.21200
C 	C 	0.41649 0.17787 0.78695 0.11300
H 	H 	0.42140 0.16600 0.76930 0.01200
O 	O 	0.46707 0.20877 0.75449 -0.41300
N 	N 	0.39394 0.67067 0.30716 -0.21200
C 	C 	0.41649 0.67787 0.28695 0.11300
H 	H 	0.42140 0.66600 0.26930 0.01200
O 	O 	0.46707 0.70877 0.25449 -0.41300
N 	N 	0.89394 0.82933 0.69284 -0.21200
C 	C 	0.91649 0.82213 0.71305 0.11300
H 	H 	0.92140 0.83400 0.73070 0.01200
O 	O 	0.96707 0.79123 0.74551 -0.41100
N 	N 	0.89394 0.32933 0.19284 -0.21200
C 	C 	0.91649 0.32213 0.21305 0.11300
H 	H 	0.92140 0.33400 0.23070 0.01200
O 	O 	0.96707 0.29123 0.24551 -0.41100
N 	N 	0.39394 0.82933 0.19284 -0.21200
C 	C 	0.41649 0.82213 0.21305 0.11300
H 	H 	0.42140 0.83400 0.23070 0.01200
O 	O 	0.46707 0.79123 0.24551 -0.41300
N 	N 	0.39394 0.32933 0.69284 -0.21200
C 	C 	0.41649 0.32213 0.71305 0.11300
H 	H 	0.42140 0.33400 0.73070 0.01200
O 	O 	0.46707 0.29123 0.74551 -0.41300
N 	N 	0.69284 0.82933 0.89394 -0.21200
C 	C 	0.71305 0.82213 0.91649 0.11300
H 	H 	0.73070 0.83400 0.92140 0.01200
O 	O 	0.74551 0.79123 0.96707 -0.41100
N 	N 	0.69284 0.32933 0.39394 -0.21200
C 	C 	0.71305 0.32213 0.41649 0.11300
H 	H 	0.73070 0.33400 0.42140 0.01200
O 	O 	0.74551 0.29123 0.46707 -0.41300
N 	N 	0.19284 0.82933 0.39394 -0.21200
C 	C 	0.21305 0.82213 0.41649 0.11300
H 	H 	0.23070 0.83400 0.42140 0.01200
O 	O 	0.24551 0.79123 0.46707 -0.41300
N 	N 	0.19284 0.32933 0.89394 -0.21200
C 	C 	0.21305 0.32213 0.91649 0.11300
H 	H 	0.23070 0.33400 0.92140 0.01200
O 	O 	0.24551 0.29123 0.96707 -0.41100
N 	N 	0.30716 0.17067 0.89394 -0.21200
C 	C 	0.28695 0.17787 0.91649 0.11300
H 	H 	0.26930 0.16600 0.92140 0.01200
O 	O 	0.25449 0.20877 0.96707 -0.41100
N 	N 	0.30716 0.67067 0.39394 -0.21200
C 	C 	0.28695 0.67787 0.41649 0.11300
H 	H 	0.26930 0.66600 0.42140 0.01200
O 	O 	0.25449 0.70877 0.46707 -0.41300
N 	N 	0.80716 0.17067 0.39394 -0.21200
C 	C 	0.78695 0.17787 0.41649 0.11300
H 	H 	0.76930 0.16600 0.42140 0.01200
O 	O 	0.75449 0.20877 0.46707 -0.41300
N 	N 	0.80716 0.67067 0.89394 -0.21200
C 	C 	0.78695 0.67787 0.91649 0.11300
H 	H 	0.76930 0.66600 0.92140 0.01200
O 	O 	0.75449 0.70877 0.96707 -0.41100
N 	N 	0.30716 0.82933 0.10606 -0.21200
C 	C 	0.28695 0.82213 0.08351 0.11300
H 	H 	0.26930 0.83400 0.07860 0.01200
O 	O 	0.25449 0.79123 0.03293 -0.41400
N 	N 	0.30716 0.32933 0.60606 -0.21200
C 	C 	0.28695 0.32213 0.58351 0.11300
H 	H 	0.26930 0.33400 0.57860 0.01200
O 	O 	0.25449 0.29123 0.53293 -0.41300
N 	N 	0.80716 0.82933 0.60606 -0.21200
C 	C 	0.78695 0.82213 0.58351 0.11300
H 	H 	0.76930 0.83400 0.57860 0.01200
O 	O 	0.75449 0.79123 0.53293 -0.41300
N 	N 	0.80716 0.32933 0.10606 -0.21200
C 	C 	0.78695 0.32213 0.08351 0.11300
H 	H 	0.76930 0.33400 0.07860 0.01200
O 	O 	0.75449 0.29123 0.03293 -0.41400
N 	N 	0.69284 0.17067 0.10606 -0.21200
C 	C 	0.71305 0.17787 0.08351 0.11300
H 	H 	0.73070 0.16600 0.07860 0.01200
O 	O 	0.74551 0.20877 0.03293 -0.41400
N 	N 	0.69284 0.67067 0.60606 -0.21200
C 	C 	0.71305 0.67787 0.58351 0.11300
H 	H 	0.73070 0.66600 0.57860 0.01200
O 	O 	0.74551 0.70877 0.53293 -0.41300
N 	N 	0.19284 0.17067 0.60606 -0.21200
C 	C 	0.21305 0.17787 0.58351 0.11300
H 	H 	0.23070 0.16600 0.57860 0.01200
O 	O 	0.24551 0.20877 0.53293 -0.41300
N 	N 	0.19284 0.67067 0.10606 -0.21200
C 	C 	0.21305 0.67787 0.08351 0.11300
H 	H 	0.23070 0.66600 0.07860 0.01200
O 	O 	0.24551 0.70877 0.03293 -0.41400
N 	N 	0.89394 0.69284 0.82933 -0.21200
C 	C 	0.91649 0.71305 0.82213 0.11300
H 	H 	0.92140 0.73070 0.83400 0.01200
O 	O 	0.96707 0.74551 0.79123 -0.41100
N 	N 	0.89394 0.19284 0.32933 -0.21200
C 	C 	0.91649 0.21305 0.32213 0.11300
H 	H 	0.92140 0.23070 0.33400 0.01200
O 	O 	0.96707 0.24551 0.29123 -0.41100
N 	N 	0.39394 0.69284 0.32933 -0.21200
C 	C 	0.41649 0.71305 0.32213 0.11300
H 	H 	0.42140 0.73070 0.33400 0.01200
O 	O 	0.46707 0.74551 0.29123 -0.41300
N 	N 	0.39394 0.19284 0.82933 -0.21200
C 	C 	0.41649 0.21305 0.82213 0.11300
H 	H 	0.42140 0.23070 0.83400 0.01200
O 	O 	0.46707 0.24551 0.79123 -0.41300
N 	N 	0.89394 0.30716 0.17067 -0.21200
C 	C 	0.91649 0.28695 0.17787 0.11300
H 	H 	0.92140 0.26930 0.16600 0.01200
O 	O 	0.96707 0.25449 0.20877 -0.41100
N 	N 	0.89394 0.80716 0.67067 -0.21200
C 	C 	0.91649 0.78695 0.67787 0.11300
H 	H 	0.92140 0.76930 0.66600 0.01200
O 	O 	0.96707 0.75449 0.70877 -0.41100
N 	N 	0.39394 0.30716 0.67067 -0.21200
C 	C 	0.41649 0.28695 0.67787 0.11300
H 	H 	0.42140 0.26930 0.66600 0.01200
O 	O 	0.46707 0.25449 0.70877 -0.41300
N 	N 	0.39394 0.80716 0.17067 -0.21200
C 	C 	0.41649 0.78695 0.17787 0.11300
H 	H 	0.42140 0.76930 0.16600 0.01200
O 	O 	0.46707 0.75449 0.20877 -0.41300
N 	N 	0.10606 0.30716 0.82933 -0.21200
C 	C 	0.08351 0.28695 0.82213 0.11300
H 	H 	0.07860 0.26930 0.83400 0.01200
O 	O 	0.03293 0.25449 0.79123 -0.41400
N 	N 	0.10606 0.80716 0.32933 -0.21200
C 	C 	0.08351 0.78695 0.32213 0.11300
H 	H 	0.07860 0.76930 0.33400 0.01200
O 	O 	0.03293 0.75449 0.29123 -0.41400
N 	N 	0.60606 0.30716 0.32933 -0.21200
C 	C 	0.58351 0.28695 0.32213 0.11300
H 	H 	0.57860 0.26930 0.33400 0.01200
O 	O 	0.53293 0.25449 0.29123 -0.41300
N 	N 	0.60606 0.80716 0.82933 -0.21200
C 	C 	0.58351 0.78695 0.82213 0.11300
H 	H 	0.57860 0.76930 0.83400 0.01200
O 	O 	0.53293 0.75449 0.79123 -0.41300
N 	N 	0.10606 0.69284 0.17067 -0.21200
C 	C 	0.08351 0.71305 0.17787 0.11300
H 	H 	0.07860 0.73070 0.16600 0.01200
O 	O 	0.03293 0.74551 0.20877 -0.41400
N 	N 	0.10606 0.19284 0.67067 -0.21200
C 	C 	0.08351 0.21305 0.67787 0.11300
H 	H 	0.07860 0.23070 0.66600 0.01200
O 	O 	0.03293 0.24551 0.70877 -0.41400
N 	N 	0.60606 0.69284 0.67067 -0.21200
C 	C 	0.58351 0.71305 0.67787 0.11300
H 	H 	0.57860 0.73070 0.66600 0.01200
O 	O 	0.53293 0.74551 0.70877 -0.41300
N 	N 	0.60606 0.19284 0.17067 -0.21200
C 	C 	0.58351 0.21305 0.17787 0.11300
H 	H 	0.57860 0.23070 0.16600 0.01200
O 	O 	0.53293 0.24551 0.20877 -0.41300
N 	N 	0.82933 0.89394 0.69284 -0.21200
C 	C 	0.82213 0.91649 0.71305 0.11300
H 	H 	0.83400 0.92140 0.73070 0.01200
O 	O 	0.79123 0.96707 0.74551 -0.41100
N 	N 	0.82933 0.39394 0.19284 -0.21200
C 	C 	0.82213 0.41649 0.21305 0.11300
H 	H 	0.83400 0.42140 0.23070 0.01200
O 	O 	0.79123 0.46707 0.24551 -0.41300
N 	N 	0.32933 0.89394 0.19284 -0.21200
C 	C 	0.32213 0.91649 0.21305 0.11300
H 	H 	0.33400 0.92140 0.23070 0.01200
O 	O 	0.29123 0.96707 0.24551 -0.41100
N 	N 	0.32933 0.39394 0.69284 -0.21200
C 	C 	0.32213 0.41649 0.71305 0.11300
H 	H 	0.33400 0.42140 0.73070 0.01200
O 	O 	0.29123 0.46707 0.74551 -0.41300
N 	N 	0.17067 0.89394 0.30716 -0.21200
C 	C 	0.17787 0.91649 0.28695 0.11300
H 	H 	0.16600 0.92140 0.26930 0.01200
O 	O 	0.20877 0.96707 0.25449 -0.41100
N 	N 	0.17067 0.39394 0.80716 -0.21200
C 	C 	0.17787 0.41649 0.78695 0.11300
H 	H 	0.16600 0.42140 0.76930 0.01200
O 	O 	0.20877 0.46707 0.75449 -0.41300
N 	N 	0.67067 0.89394 0.80716 -0.21200
C 	C 	0.67787 0.91649 0.78695 0.11300
H 	H 	0.66600 0.92140 0.76930 0.01200
O 	O 	0.70877 0.96707 0.75449 -0.41100
N 	N 	0.67067 0.39394 0.30716 -0.21200
C 	C 	0.67787 0.41649 0.28695 0.11300
H 	H 	0.66600 0.42140 0.26930 0.01200
O 	O 	0.70877 0.46707 0.25449 -0.41300
N 	N 	0.82933 0.10606 0.30716 -0.21200
C 	C 	0.82213 0.08351 0.28695 0.11300
H 	H 	0.83400 0.07860 0.26930 0.01200
O 	O 	0.79123 0.03293 0.25449 -0.41400
N 	N 	0.82933 0.60606 0.80716 -0.21200
C 	C 	0.82213 0.58351 0.78695 0.11300
H 	H 	0.83400 0.57860 0.76930 0.01200
O 	O 	0.79123 0.53293 0.75449 -0.41300
N 	N 	0.32933 0.10606 0.80716 -0.21200
C 	C 	0.32213 0.08351 0.78695 0.11300
H 	H 	0.33400 0.07860 0.76930 0.01200
O 	O 	0.29123 0.03293 0.75449 -0.41400
N 	N 	0.32933 0.60606 0.30716 -0.21200
C 	C 	0.32213 0.58351 0.28695 0.11300
H 	H 	0.33400 0.57860 0.26930 0.01200
O 	O 	0.29123 0.53293 0.25449 -0.41300
N 	N 	0.17067 0.10606 0.69284 -0.21200
C 	C 	0.17787 0.08351 0.71305 0.11300
H 	H 	0.16600 0.07860 0.73070 0.01200
O 	O 	0.20877 0.03293 0.74551 -0.41400
N 	N 	0.17067 0.60606 0.19284 -0.21200
C 	C 	0.17787 0.58351 0.21305 0.11300
H 	H 	0.16600 0.57860 0.23070 0.01200
O 	O 	0.20877 0.53293 0.24551 -0.41300
N 	N 	0.67067 0.10606 0.19284 -0.21200
C 	C 	0.67787 0.08351 0.21305 0.11300
H 	H 	0.66600 0.07860 0.23070 0.01200
O 	O 	0.70877 0.03293 0.24551 -0.41400
N 	N 	0.67067 0.60606 0.69284 -0.21200
C 	C 	0.67787 0.58351 0.71305 0.11300
H 	H 	0.66600 0.57860 0.73070 0.01200
O 	O 	0.70877 0.53293 0.74551 -0.41300
N 	N 	0.82933 0.69284 0.10606 -0.21200
C 	C 	0.82213 0.71305 0.08351 0.11300
H 	H 	0.83400 0.73070 0.07860 0.01200
O 	O 	0.79123 0.74551 0.03293 -0.41300
N 	N 	0.82933 0.19284 0.60606 -0.21200
C 	C 	0.82213 0.21305 0.58351 0.11300
H 	H 	0.83400 0.23070 0.57860 0.01200
O 	O 	0.79123 0.24551 0.53293 -0.41300
N 	N 	0.32933 0.69284 0.60606 -0.21200
C 	C 	0.32213 0.71305 0.58351 0.11300
H 	H 	0.33400 0.73070 0.57860 0.01200
O 	O 	0.29123 0.74551 0.53293 -0.41300
N 	N 	0.32933 0.19284 0.10606 -0.21200
C 	C 	0.32213 0.21305 0.08351 0.11300
H 	H 	0.33400 0.23070 0.07860 0.01200
O 	O 	0.29123 0.24551 0.03293 -0.41400
N 	N 	0.17067 0.30716 0.10606 -0.21200
C 	C 	0.17787 0.28695 0.08351 0.11300
H 	H 	0.16600 0.26930 0.07860 0.01100
O 	O 	0.20877 0.25449 0.03293 -0.41400
N 	N 	0.17067 0.80716 0.60606 -0.21200
C 	C 	0.17787 0.78695 0.58351 0.11300
H 	H 	0.16600 0.76930 0.57860 0.01200
O 	O 	0.20877 0.75449 0.53293 -0.41300
N 	N 	0.67067 0.30716 0.60606 -0.21200
C 	C 	0.67787 0.28695 0.58351 0.11300
H 	H 	0.66600 0.26930 0.57860 0.01200
O 	O 	0.70877 0.25449 0.53293 -0.41300
N 	N 	0.67067 0.80716 0.10606 -0.21200
C 	C 	0.67787 0.78695 0.08351 0.11300
H 	H 	0.66600 0.76930 0.07860 0.01200
O 	O 	0.70877 0.75449 0.03293 -0.41400
N 	N 	0.82933 0.30716 0.89394 -0.21200
C 	C 	0.82213 0.28695 0.91649 0.11300
H 	H 	0.83400 0.26930 0.92140 0.01200
O 	O 	0.79123 0.25449 0.96707 -0.41100
N 	N 	0.82933 0.80716 0.39394 -0.21200
C 	C 	0.82213 0.78695 0.41649 0.11300
H 	H 	0.83400 0.76930 0.42140 0.01200
O 	O 	0.79123 0.75449 0.46707 -0.41300
N 	N 	0.32933 0.30716 0.39394 -0.21200
C 	C 	0.32213 0.28695 0.41649 0.11300
H 	H 	0.33400 0.26930 0.42140 0.01200
O 	O 	0.29123 0.25449 0.46707 -0.41300
N 	N 	0.32933 0.80716 0.89394 -0.21200
C 	C 	0.32213 0.78695 0.91649 0.11300
H 	H 	0.33400 0.76930 0.92140 0.01200
O 	O 	0.29123 0.75449 0.96707 -0.41100
N 	N 	0.17067 0.69284 0.89394 -0.21200
C 	C 	0.17787 0.71305 0.91649 0.11300
H 	H 	0.16600 0.73070 0.92140 0.01200
O 	O 	0.20877 0.74551 0.96707 -0.41100
N 	N 	0.17067 0.19284 0.39394 -0.21200
C 	C 	0.17787 0.21305 0.41649 0.11300
H 	H 	0.16600 0.23070 0.42140 0.01200
O 	O 	0.20877 0.24551 0.46707 -0.41300
N 	N 	0.67067 0.69284 0.39394 -0.21200
C 	C 	0.67787 0.71305 0.41649 0.11300
H 	H 	0.66600 0.73070 0.42140 0.01200
O 	O 	0.70877 0.74551 0.46707 -0.41300
N 	N 	0.67067 0.19284 0.89394 -0.21200
C 	C 	0.67787 0.21305 0.91649 0.11300
H 	H 	0.66600 0.23070 0.92140 0.01200
O 	O 	0.70877 0.24551 0.96707 -0.41100
N 	N 	0.69284 0.89394 0.17067 -0.21200
C 	C 	0.71305 0.91649 0.17787 0.11300
H 	H 	0.73070 0.92140 0.16600 0.01200
O 	O 	0.74551 0.96707 0.20877 -0.41100
N 	N 	0.69284 0.39394 0.67067 -0.21200
C 	C 	0.71305 0.41649 0.67787 0.11300
H 	H 	0.73070 0.42140 0.66600 0.01200
O 	O 	0.74551 0.46707 0.70877 -0.41300
N 	N 	0.19284 0.89394 0.67067 -0.21200
C 	C 	0.21305 0.91649 0.67787 0.11300
H 	H 	0.23070 0.92140 0.66600 0.01200
O 	O 	0.24551 0.96707 0.70877 -0.41100
N 	N 	0.19284 0.39394 0.17067 -0.21200
C 	C 	0.21305 0.41649 0.17787 0.11300
H 	H 	0.23070 0.42140 0.16600 0.01200
O 	O 	0.24551 0.46707 0.20877 -0.41300
N 	N 	0.30716 0.89394 0.82933 -0.21200
C 	C 	0.28695 0.91649 0.82213 0.11300
H 	H 	0.26930 0.92140 0.83400 0.01200
O 	O 	0.25449 0.96707 0.79123 -0.41100
N 	N 	0.30716 0.39394 0.32933 -0.21200
C 	C 	0.28695 0.41649 0.32213 0.11300
H 	H 	0.26930 0.42140 0.33400 0.01200
O 	O 	0.25449 0.46707 0.29123 -0.41300
N 	N 	0.80716 0.89394 0.32933 -0.21200
C 	C 	0.78695 0.91649 0.32213 0.11300
H 	H 	0.76930 0.92140 0.33400 0.01200
O 	O 	0.75449 0.96707 0.29123 -0.41100
N 	N 	0.80716 0.39394 0.82933 -0.21200
C 	C 	0.78695 0.41649 0.82213 0.11300
H 	H 	0.76930 0.42140 0.83400 0.01200
O 	O 	0.75449 0.46707 0.79123 -0.41300
N 	N 	0.30716 0.10606 0.17067 -0.21200
C 	C 	0.28695 0.08351 0.17787 0.11300
H 	H 	0.26930 0.07860 0.16600 0.01100
O 	O 	0.25449 0.03293 0.20877 -0.41400
N 	N 	0.30716 0.60606 0.67067 -0.21200
C 	C 	0.28695 0.58351 0.67787 0.11300
H 	H 	0.26930 0.57860 0.66600 0.01200
O 	O 	0.25449 0.53293 0.70877 -0.41300
N 	N 	0.80716 0.10606 0.67067 -0.21200
C 	C 	0.78695 0.08351 0.67787 0.11300
H 	H 	0.76930 0.07860 0.66600 0.01200
O 	O 	0.75449 0.03293 0.70877 -0.41400
N 	N 	0.80716 0.60606 0.17067 -0.21200
C 	C 	0.78695 0.58351 0.17787 0.11300
H 	H 	0.76930 0.57860 0.16600 0.01200
O 	O 	0.75449 0.53293 0.20877 -0.41300
N 	N 	0.69284 0.10606 0.82933 -0.21200
C 	C 	0.71305 0.08351 0.82213 0.11300
H 	H 	0.73070 0.07860 0.83400 0.01200
O 	O 	0.74551 0.03293 0.79123 -0.41300
N 	N 	0.69284 0.60606 0.32933 -0.21200
C 	C 	0.71305 0.58351 0.32213 0.11300
H 	H 	0.73070 0.57860 0.33400 0.01200
O 	O 	0.74551 0.53293 0.29123 -0.41300
N 	N 	0.19284 0.10606 0.32933 -0.21200
C 	C 	0.21305 0.08351 0.32213 0.11300
H 	H 	0.23070 0.07860 0.33400 0.01200
O 	O 	0.24551 0.03293 0.29123 -0.41400
N 	N 	0.19284 0.60606 0.82933 -0.21200
C 	C 	0.21305 0.58351 0.82213 0.11300
H 	H 	0.23070 0.57860 0.83400 0.01200
O 	O 	0.24551 0.53293 0.79123 -0.41300
N 	N 	0.89394 0.82933 0.30716 -0.21200
C 	C 	0.91649 0.82213 0.28695 0.11300
H 	H 	0.92140 0.83400 0.26930 0.01200
O 	O 	0.96707 0.79123 0.25449 -0.41100
N 	N 	0.89394 0.32933 0.80716 -0.21200
C 	C 	0.91649 0.32213 0.78695 0.11300
H 	H 	0.92140 0.33400 0.76930 0.01200
O 	O 	0.96707 0.29123 0.75449 -0.41100
N 	N 	0.39394 0.82933 0.80716 -0.21200
C 	C 	0.41649 0.82213 0.78695 0.11300
H 	H 	0.42140 0.83400 0.76930 0.01200
O 	O 	0.46707 0.79123 0.75449 -0.41300
N 	N 	0.39394 0.32933 0.30716 -0.21200
C 	C 	0.41649 0.32213 0.28695 0.11300
H 	H 	0.42140 0.33400 0.26930 0.01200
O 	O 	0.46707 0.29123 0.25449 -0.41300
N 	N 	0.89394 0.17067 0.69284 -0.21200
C 	C 	0.91649 0.17787 0.71305 0.11300
H 	H 	0.92140 0.16600 0.73070 0.01200
O 	O 	0.96707 0.20877 0.74551 -0.41100
N 	N 	0.89394 0.67067 0.19284 -0.21200
C 	C 	0.91649 0.67787 0.21305 0.11300
H 	H 	0.92140 0.66600 0.23070 0.01200
O 	O 	0.96707 0.70877 0.24551 -0.41100
N 	N 	0.39394 0.17067 0.19284 -0.21200
C 	C 	0.41649 0.17787 0.21305 0.11300
H 	H 	0.42140 0.16600 0.23070 0.01200
O 	O 	0.46707 0.20877 0.24551 -0.41300
N 	N 	0.39394 0.67067 0.69284 -0.21200
C 	C 	0.41649 0.67787 0.71305 0.11300
H 	H 	0.42140 0.66600 0.73070 0.01200
O 	O 	0.46707 0.70877 0.74551 -0.41300
N 	N 	0.10606 0.82933 0.69284 -0.21200
C 	C 	0.08351 0.82213 0.71305 0.11300
H 	H 	0.07860 0.83400 0.73070 0.01200
O 	O 	0.03293 0.79123 0.74551 -0.41300
N 	N 	0.10606 0.32933 0.19284 -0.21200
C 	C 	0.08351 0.32213 0.21305 0.11300
H 	H 	0.07860 0.33400 0.23070 0.01200
O 	O 	0.03293 0.29123 0.24551 -0.41400
N 	N 	0.60606 0.82933 0.19284 -0.21200
C 	C 	0.58351 0.82213 0.21305 0.11300
H 	H 	0.57860 0.83400 0.23070 0.01200
O 	O 	0.53293 0.79123 0.24551 -0.41300
N 	N 	0.60606 0.32933 0.69284 -0.21200
C 	C 	0.58351 0.32213 0.71305 0.11300
H 	H 	0.57860 0.33400 0.73070 0.01200
O 	O 	0.53293 0.29123 0.74551 -0.41300
N 	N 	0.10606 0.17067 0.30716 -0.21200
C 	C 	0.08351 0.17787 0.28695 0.11300
H 	H 	0.07860 0.16600 0.26930 0.01100
O 	O 	0.03293 0.20877 0.25449 -0.41400
N 	N 	0.10606 0.67067 0.80716 -0.21200
C 	C 	0.08351 0.67787 0.78695 0.11300
H 	H 	0.07860 0.66600 0.76930 0.01200
O 	O 	0.03293 0.70877 0.75449 -0.41400
N 	N 	0.60606 0.17067 0.80716 -0.21200
C 	C 	0.58351 0.17787 0.78695 0.11300
H 	H 	0.57860 0.16600 0.76930 0.01200
O 	O 	0.53293 0.20877 0.75449 -0.41300
N 	N 	0.60606 0.67067 0.30716 -0.21200
C 	C 	0.58351 0.67787 0.28695 0.11300
H 	H 	0.57860 0.66600 0.26930 0.01200
O 	O 	0.53293 0.70877 0.25449 -0.41300
Cu	Cu	0.30697 0.13784 0.13784 0.87700
O 	O 	0.28500 0.10530 0.10530 -0.16500
O 	O 	0.26710 0.11970 0.11970 -0.20300
Cu	Cu	0.30697 0.63784 0.63784 0.87700
O 	O 	0.28500 0.60530 0.60530 -0.16400
O 	O 	0.26710 0.61970 0.61970 -0.20200
Cu	Cu	0.80697 0.13784 0.63784 0.87700
O 	O 	0.78500 0.10530 0.60530 -0.16400
O 	O 	0.76710 0.11970 0.61970 -0.20200
Cu	Cu	0.80697 0.63784 0.13784 0.87700
O 	O 	0.78500 0.60530 0.10530 -0.16400
O 	O 	0.76710 0.61970 0.11970 -0.20200
Cu	Cu	0.69303 0.86216 0.13784 0.87700
O 	O 	0.71500 0.89470 0.10530 -0.16300
O 	O 	0.73290 0.88030 0.11970 -0.20200
Cu	Cu	0.69303 0.36216 0.63784 0.87700
O 	O 	0.71500 0.39470 0.60530 -0.16400
O 	O 	0.73290 0.38030 0.61970 -0.20200
Cu	Cu	0.19303 0.86216 0.63784 0.87700
O 	O 	0.21500 0.89470 0.60530 -0.16300
O 	O 	0.23290 0.88030 0.61970 -0.20200
Cu	Cu	0.19303 0.36216 0.13784 0.87700
O 	O 	0.21500 0.39470 0.10530 -0.16400
O 	O 	0.23290 0.38030 0.11970 -0.20200
Cu	Cu	0.69303 0.13784 0.86216 0.87700
O 	O 	0.71500 0.10530 0.89470 -0.16300
O 	O 	0.73290 0.11970 0.88030 -0.20200
Cu	Cu	0.69303 0.63784 0.36216 0.87700
O 	O 	0.71500 0.60530 0.39470 -0.16400
O 	O 	0.73290 0.61970 0.38030 -0.20200
Cu	Cu	0.19303 0.13784 0.36216 0.87700
O 	O 	0.21500 0.10530 0.39470 -0.16400
O 	O 	0.23290 0.11970 0.38030 -0.20200
Cu	Cu	0.19303 0.63784 0.86216 0.87700
O 	O 	0.21500 0.60530 0.89470 -0.16300
O 	O 	0.23290 0.61970 0.88030 -0.20200
Cu	Cu	0.30697 0.86216 0.86216 0.87700
O 	O 	0.28500 0.89470 0.89470 -0.16300
O 	O 	0.26710 0.88030 0.88030 -0.20200
Cu	Cu	0.30697 0.36216 0.36216 0.87700
O 	O 	0.28500 0.39470 0.39470 -0.16400
O 	O 	0.26710 0.38030 0.38030 -0.20200
Cu	Cu	0.80697 0.86216 0.36216 0.87700
O 	O 	0.78500 0.89470 0.39470 -0.16300
O 	O 	0.76710 0.88030 0.38030 -0.20200
Cu	Cu	0.80697 0.36216 0.86216 0.87700
O 	O 	0.78500 0.39470 0.89470 -0.16300
O 	O 	0.76710 0.38030 0.88030 -0.20200
Cu	Cu	0.13784 0.30697 0.13784 0.87700
O 	O 	0.10530 0.28500 0.10530 -0.16500
O 	O 	0.11970 0.26710 0.11970 -0.20300
Cu	Cu	0.13784 0.80697 0.63784 0.87700
O 	O 	0.10530 0.78500 0.60530 -0.16400
O 	O 	0.11970 0.76710 0.61970 -0.20200
Cu	Cu	0.63784 0.30697 0.63784 0.87700
O 	O 	0.60530 0.28500 0.60530 -0.16400
O 	O 	0.61970 0.26710 0.61970 -0.20200
Cu	Cu	0.63784 0.80697 0.13784 0.87700
O 	O 	0.60530 0.78500 0.10530 -0.16400
O 	O 	0.61970 0.76710 0.11970 -0.20200
Cu	Cu	0.13784 0.69303 0.86216 0.87700
O 	O 	0.10530 0.71500 0.89470 -0.16300
O 	O 	0.11970 0.73290 0.88030 -0.20200
Cu	Cu	0.13784 0.19303 0.36216 0.87700
O 	O 	0.10530 0.21500 0.39470 -0.16400
O 	O 	0.11970 0.23290 0.38030 -0.20200
Cu	Cu	0.63784 0.69303 0.36216 0.87700
O 	O 	0.60530 0.71500 0.39470 -0.16400
O 	O 	0.61970 0.73290 0.38030 -0.20200
Cu	Cu	0.63784 0.19303 0.86216 0.87700
O 	O 	0.60530 0.21500 0.89470 -0.16300
O 	O 	0.61970 0.23290 0.88030 -0.20200
Cu	Cu	0.86216 0.69303 0.13784 0.87700
O 	O 	0.89470 0.71500 0.10530 -0.16300
O 	O 	0.88030 0.73290 0.11970 -0.20200
Cu	Cu	0.86216 0.19303 0.63784 0.87700
O 	O 	0.89470 0.21500 0.60530 -0.16300
O 	O 	0.88030 0.23290 0.61970 -0.20200
Cu	Cu	0.36216 0.69303 0.63784 0.87700
O 	O 	0.39470 0.71500 0.60530 -0.16400
O 	O 	0.38030 0.73290 0.61970 -0.20200
Cu	Cu	0.36216 0.19303 0.13784 0.87700
O 	O 	0.39470 0.21500 0.10530 -0.16400
O 	O 	0.38030 0.23290 0.11970 -0.20200
Cu	Cu	0.86216 0.30697 0.86216 0.87700
O 	O 	0.89470 0.28500 0.89470 -0.16300
O 	O 	0.88030 0.26710 0.88030 -0.20200
Cu	Cu	0.86216 0.80697 0.36216 0.87700
O 	O 	0.89470 0.78500 0.39470 -0.16300
O 	O 	0.88030 0.76710 0.38030 -0.20200
Cu	Cu	0.36216 0.30697 0.36216 0.87700
O 	O 	0.39470 0.28500 0.39470 -0.16400
O 	O 	0.38030 0.26710 0.38030 -0.20200
Cu	Cu	0.36216 0.80697 0.86216 0.87700
O 	O 	0.39470 0.78500 0.89470 -0.16300
O 	O 	0.38030 0.76710 0.88030 -0.20200
Cu	Cu	0.13784 0.13784 0.30697 0.87700
O 	O 	0.10530 0.10530 0.28500 -0.16500
O 	O 	0.11970 0.11970 0.26710 -0.20300
Cu	Cu	0.13784 0.63784 0.80697 0.87700
O 	O 	0.10530 0.60530 0.78500 -0.16400
O 	O 	0.11970 0.61970 0.76710 -0.20200
Cu	Cu	0.63784 0.13784 0.80697 0.87700
O 	O 	0.60530 0.10530 0.78500 -0.16400
O 	O 	0.61970 0.11970 0.76710 -0.20200
Cu	Cu	0.63784 0.63784 0.30697 0.87700
O 	O 	0.60530 0.60530 0.28500 -0.16400
O 	O 	0.61970 0.61970 0.26710 -0.20200
Cu	Cu	0.86216 0.13784 0.69303 0.87700
O 	O 	0.89470 0.10530 0.71500 -0.16300
O 	O 	0.88030 0.11970 0.73290 -0.20200
Cu	Cu	0.86216 0.63784 0.19303 0.87700
O 	O 	0.89470 0.60530 0.21500 -0.16300
O 	O 	0.88030 0.61970 0.23290 -0.20200
Cu	Cu	0.36216 0.13784 0.19303 0.87700
O 	O 	0.39470 0.10530 0.21500 -0.16400
O 	O 	0.38030 0.11970 0.23290 -0.20200
Cu	Cu	0.36216 0.63784 0.69303 0.87700
O 	O 	0.39470 0.60530 0.71500 -0.16400
O 	O 	0.38030 0.61970 0.73290 -0.20200
Cu	Cu	0.13784 0.86216 0.69303 0.87700
O 	O 	0.10530 0.89470 0.71500 -0.16300
O 	O 	0.11970 0.88030 0.73290 -0.20200
Cu	Cu	0.13784 0.36216 0.19303 0.87700
O 	O 	0.10530 0.39470 0.21500 -0.16400
O 	O 	0.11970 0.38030 0.23290 -0.20200
Cu	Cu	0.63784 0.86216 0.19303 0.87700
O 	O 	0.60530 0.89470 0.21500 -0.16300
O 	O 	0.61970 0.88030 0.23290 -0.20200
Cu	Cu	0.63784 0.36216 0.69303 0.87700
O 	O 	0.60530 0.39470 0.71500 -0.16400
O 	O 	0.61970 0.38030 0.73290 -0.20200
Cu	Cu	0.86216 0.86216 0.30697 0.87700
O 	O 	0.89470 0.89470 0.28500 -0.16300
O 	O 	0.88030 0.88030 0.26710 -0.20200
Cu	Cu	0.86216 0.36216 0.80697 0.87700
O 	O 	0.89470 0.39470 0.78500 -0.16300
O 	O 	0.88030 0.38030 0.76710 -0.20200
Cu	Cu	0.36216 0.86216 0.80697 0.87700
O 	O 	0.39470 0.89470 0.78500 -0.16300
O 	O 	0.38030 0.88030 0.76710 -0.20200
Cu	Cu	0.36216 0.36216 0.30697 0.87700
O 	O 	0.39470 0.39470 0.28500 -0.16400
O 	O 	0.38030 0.38030 0.26710 -0.20200
Cu	Cu	0.13784 0.30697 0.86216 0.87700
O 	O 	0.10530 0.28500 0.89470 -0.16400
O 	O 	0.11970 0.26710 0.88030 -0.20200
Cu	Cu	0.13784 0.80697 0.36216 0.87700
O 	O 	0.10530 0.78500 0.39470 -0.16400
O 	O 	0.11970 0.76710 0.38030 -0.20200
Cu	Cu	0.63784 0.30697 0.36216 0.87700
O 	O 	0.60530 0.28500 0.39470 -0.16400
O 	O 	0.61970 0.26710 0.38030 -0.20200
Cu	Cu	0.63784 0.80697 0.86216 0.87700
O 	O 	0.60530 0.78500 0.89470 -0.16300
O 	O 	0.61970 0.76710 0.88030 -0.20200
Cu	Cu	0.86216 0.69303 0.86216 0.87700
O 	O 	0.89470 0.71500 0.89470 -0.16300
O 	O 	0.88030 0.73290 0.88030 -0.20200
Cu	Cu	0.86216 0.19303 0.36216 0.87700
O 	O 	0.89470 0.21500 0.39470 -0.16300
O 	O 	0.88030 0.23290 0.38030 -0.20200
Cu	Cu	0.36216 0.69303 0.36216 0.87700
O 	O 	0.39470 0.71500 0.39470 -0.16400
O 	O 	0.38030 0.73290 0.38030 -0.20200
Cu	Cu	0.36216 0.19303 0.86216 0.87700
O 	O 	0.39470 0.21500 0.89470 -0.16300
O 	O 	0.38030 0.23290 0.88030 -0.20200
Cu	Cu	0.13784 0.69303 0.13784 0.87700
O 	O 	0.10530 0.71500 0.10530 -0.16400
O 	O 	0.11970 0.73290 0.11970 -0.20200
Cu	Cu	0.13784 0.19303 0.63784 0.87700
O 	O 	0.10530 0.21500 0.60530 -0.16400
O 	O 	0.11970 0.23290 0.61970 -0.20200
Cu	Cu	0.63784 0.69303 0.63784 0.87700
O 	O 	0.60530 0.71500 0.60530 -0.16400
O 	O 	0.61970 0.73290 0.61970 -0.20200
Cu	Cu	0.63784 0.19303 0.13784 0.87700
O 	O 	0.60530 0.21500 0.10530 -0.16400
O 	O 	0.61970 0.23290 0.11970 -0.20200
Cu	Cu	0.86216 0.30697 0.13784 0.87700
O 	O 	0.89470 0.28500 0.10530 -0.16400
O 	O 	0.88030 0.26710 0.11970 -0.20200
Cu	Cu	0.86216 0.80697 0.63784 0.87700
O 	O 	0.89470 0.78500 0.60530 -0.16300
O 	O 	0.88030 0.76710 0.61970 -0.20200
Cu	Cu	0.36216 0.30697 0.63784 0.87700
O 	O 	0.39470 0.28500 0.60530 -0.16400
O 	O 	0.38030 0.26710 0.61970 -0.20200
Cu	Cu	0.36216 0.80697 0.13784 0.87700
O 	O 	0.39470 0.78500 0.10530 -0.16400
O 	O 	0.38030 0.76710 0.11970 -0.20200
Cu	Cu	0.30697 0.13784 0.86216 0.87700
O 	O 	0.28500 0.10530 0.89470 -0.16400
O 	O 	0.26710 0.11970 0.88030 -0.20200
Cu	Cu	0.30697 0.63784 0.36216 0.87700
O 	O 	0.28500 0.60530 0.39470 -0.16400
O 	O 	0.26710 0.61970 0.38030 -0.20200
Cu	Cu	0.80697 0.13784 0.36216 0.87700
O 	O 	0.78500 0.10530 0.39470 -0.16400
O 	O 	0.76710 0.11970 0.38030 -0.20200
Cu	Cu	0.80697 0.63784 0.86216 0.87700
O 	O 	0.78500 0.60530 0.89470 -0.16300
O 	O 	0.76710 0.61970 0.88030 -0.20200
Cu	Cu	0.69303 0.13784 0.13784 0.87700
O 	O 	0.71500 0.10530 0.10530 -0.16400
O 	O 	0.73290 0.11970 0.11970 -0.20200
Cu	Cu	0.69303 0.63784 0.63784 0.87700
O 	O 	0.71500 0.60530 0.60530 -0.16400
O 	O 	0.73290 0.61970 0.61970 -0.20200
Cu	Cu	0.19303 0.13784 0.63784 0.87700
O 	O 	0.21500 0.10530 0.60530 -0.16400
O 	O 	0.23290 0.11970 0.61970 -0.20200
Cu	Cu	0.19303 0.63784 0.13784 0.87700
O 	O 	0.21500 0.60530 0.10530 -0.16400
O 	O 	0.23290 0.61970 0.11970 -0.20200
Cu	Cu	0.69303 0.86216 0.86216 0.87700
O 	O 	0.71500 0.89470 0.89470 -0.16300
O 	O 	0.73290 0.88030 0.88030 -0.20200
Cu	Cu	0.69303 0.36216 0.36216 0.87700
O 	O 	0.71500 0.39470 0.39470 -0.16400
O 	O 	0.73290 0.38030 0.38030 -0.20200
Cu	Cu	0.19303 0.86216 0.36216 0.87700
O 	O 	0.21500 0.89470 0.39470 -0.16300
O 	O 	0.23290 0.88030 0.38030 -0.20200
Cu	Cu	0.19303 0.36216 0.86216 0.87700
O 	O 	0.21500 0.39470 0.89470 -0.16300
O 	O 	0.23290 0.38030 0.88030 -0.20200
Cu	Cu	0.30697 0.86216 0.13784 0.87700
O 	O 	0.28500 0.89470 0.10530 -0.16400
O 	O 	0.26710 0.88030 0.11970 -0.20200
Cu	Cu	0.30697 0.36216 0.63784 0.87700
O 	O 	0.28500 0.39470 0.60530 -0.16400
O 	O 	0.26710 0.38030 0.61970 -0.20200
Cu	Cu	0.80697 0.86216 0.63784 0.87700
O 	O 	0.78500 0.89470 0.60530 -0.16300
O 	O 	0.76710 0.88030 0.61970 -0.20200
Cu	Cu	0.80697 0.36216 0.13784 0.87700
O 	O 	0.78500 0.39470 0.10530 -0.16400
O 	O 	0.76710 0.38030 0.11970 -0.20200
Cu	Cu	0.13784 0.13784 0.69303 0.87700
O 	O 	0.10530 0.10530 0.71500 -0.16400
O 	O 	0.11970 0.11970 0.73290 -0.20200
Cu	Cu	0.13784 0.63784 0.19303 0.87700
O 	O 	0.10530 0.60530 0.21500 -0.16400
O 	O 	0.11970 0.61970 0.23290 -0.20200
Cu	Cu	0.63784 0.13784 0.19303 0.87700
O 	O 	0.60530 0.10530 0.21500 -0.16400
O 	O 	0.61970 0.11970 0.23290 -0.20200
Cu	Cu	0.63784 0.63784 0.69303 0.87700
O 	O 	0.60530 0.60530 0.71500 -0.16400
O 	O 	0.61970 0.61970 0.73290 -0.20200
Cu	Cu	0.13784 0.86216 0.30697 0.87700
O 	O 	0.10530 0.89470 0.28500 -0.16400
O 	O 	0.11970 0.88030 0.26710 -0.20200
Cu	Cu	0.13784 0.36216 0.80697 0.87700
O 	O 	0.10530 0.39470 0.78500 -0.16400
O 	O 	0.11970 0.38030 0.76710 -0.20200
Cu	Cu	0.63784 0.86216 0.80697 0.87700
O 	O 	0.60530 0.89470 0.78500 -0.16300
O 	O 	0.61970 0.88030 0.76710 -0.20200
Cu	Cu	0.63784 0.36216 0.30697 0.87700
O 	O 	0.60530 0.39470 0.28500 -0.16400
O 	O 	0.61970 0.38030 0.26710 -0.20200
Cu	Cu	0.86216 0.13784 0.30697 0.87700
O 	O 	0.89470 0.10530 0.28500 -0.16400
O 	O 	0.88030 0.11970 0.26710 -0.20200
Cu	Cu	0.86216 0.63784 0.80697 0.87700
O 	O 	0.89470 0.60530 0.78500 -0.16300
O 	O 	0.88030 0.61970 0.76710 -0.20200
Cu	Cu	0.36216 0.13784 0.80697 0.87700
O 	O 	0.39470 0.10530 0.78500 -0.16400
O 	O 	0.38030 0.11970 0.76710 -0.20200
Cu	Cu	0.36216 0.63784 0.30697 0.87700
O 	O 	0.39470 0.60530 0.28500 -0.16400
O 	O 	0.38030 0.61970 0.26710 -0.20200
Cu	Cu	0.86216 0.86216 0.69303 0.87700
O 	O 	0.89470 0.89470 0.71500 -0.16300
O 	O 	0.88030 0.88030 0.73290 -0.20200
Cu	Cu	0.86216 0.36216 0.19303 0.87700
O 	O 	0.89470 0.39470 0.21500 -0.16300
O 	O 	0.88030 0.38030 0.23290 -0.20200
Cu	Cu	0.36216 0.86216 0.19303 0.87700
O 	O 	0.39470 0.89470 0.21500 -0.16300
O 	O 	0.38030 0.88030 0.23290 -0.20200
Cu	Cu	0.36216 0.36216 0.69303 0.87700
O 	O 	0.39470 0.39470 0.71500 -0.16400
O 	O 	0.38030 0.38030 0.73290 -0.20200
O 	O 	0.33780 0.16220 0.16220 -0.58300
O 	O 	0.33780 0.66220 0.66220 -0.58300
O 	O 	0.66220 0.83780 0.16220 -0.58300
O 	O 	0.66220 0.33780 0.66220 -0.58300
O 	O 	0.16220 0.33780 0.16220 -0.58300
O 	O 	0.66220 0.16220 0.83780 -0.58300
O 	O 	0.66220 0.66220 0.33780 -0.58300
O 	O 	0.16220 0.16220 0.33780 -0.58300
O 	O 	0.33780 0.83780 0.83780 -0.58300
O 	O 	0.33780 0.33780 0.33780 -0.58300
O 	O 	0.16220 0.66220 0.83780 -0.58300
O 	O 	0.83780 0.66220 0.16220 -0.58300
O 	O 	0.83780 0.33780 0.83780 -0.58300
O 	O 	0.83780 0.16220 0.66220 -0.58300
O 	O 	0.16220 0.83780 0.66220 -0.58300
O 	O 	0.83780 0.83780 0.33780 -0.58300
O 	O 	0.16220 0.33780 0.83780 -0.58300
O 	O 	0.83780 0.66220 0.83780 -0.58300
O 	O 	0.83780 0.16220 0.33780 -0.58300
O 	O 	0.33780 0.16220 0.83780 -0.58300
O 	O 	0.16220 0.66220 0.16220 -0.58300
O 	O 	0.83780 0.33780 0.16220 -0.58300
O 	O 	0.33780 0.33780 0.66220 -0.58300
O 	O 	0.33780 0.66220 0.33780 -0.58300
O 	O 	0.66220 0.16220 0.16220 -0.58300
O 	O 	0.66220 0.66220 0.66220 -0.58300
O 	O 	0.66220 0.83780 0.83780 -0.58300
O 	O 	0.66220 0.33780 0.33780 -0.58300
O 	O 	0.16220 0.83780 0.33780 -0.58300
O 	O 	0.33780 0.83780 0.16220 -0.58300
O 	O 	0.16220 0.16220 0.66220 -0.58300
O 	O 	0.83780 0.83780 0.66220 -0.58300
C 	C 	0.29529 0.20471 0.06840 -0.17800
C 	C 	0.27944 0.22056 0.04300 0.40800
C 	C 	0.29529 0.70471 0.56840 -0.17800
C 	C 	0.27944 0.72056 0.54300 0.40800
C 	C 	0.70471 0.79529 0.06840 -0.17800
C 	C 	0.72056 0.77944 0.04300 0.40800
C 	C 	0.70471 0.29529 0.56840 -0.17800
C 	C 	0.72056 0.27944 0.54300 0.40800
C 	C 	0.20471 0.29529 0.06840 -0.17800
C 	C 	0.22056 0.27944 0.04300 0.40800
C 	C 	0.70471 0.20471 0.93160 -0.17700
C 	C 	0.72056 0.22056 0.95700 0.40700
C 	C 	0.70471 0.70471 0.43160 -0.17800
C 	C 	0.72056 0.72056 0.45700 0.40800
C 	C 	0.20471 0.20471 0.43160 -0.17800
C 	C 	0.22056 0.22056 0.45700 0.40800
C 	C 	0.29529 0.79529 0.93160 -0.17700
C 	C 	0.27944 0.77944 0.95700 0.40700
C 	C 	0.29529 0.29529 0.43160 -0.17800
C 	C 	0.27944 0.27944 0.45700 0.40800
C 	C 	0.06840 0.29529 0.20471 -0.17800
C 	C 	0.04300 0.27944 0.22056 0.40800
C 	C 	0.56840 0.29529 0.70471 -0.17800
C 	C 	0.54300 0.27944 0.72056 0.40800
C 	C 	0.06840 0.70471 0.79529 -0.17800
C 	C 	0.04300 0.72056 0.77944 0.40800
C 	C 	0.06840 0.20471 0.29529 -0.17800
C 	C 	0.04300 0.22056 0.27944 0.40800
C 	C 	0.56840 0.70471 0.29529 -0.17800
C 	C 	0.54300 0.72056 0.27944 0.40800
C 	C 	0.93160 0.70471 0.20471 -0.17700
C 	C 	0.95700 0.72056 0.22056 0.40700
C 	C 	0.43160 0.70471 0.70471 -0.17800
C 	C 	0.45700 0.72056 0.72056 0.40800
C 	C 	0.43160 0.20471 0.20471 -0.17800
C 	C 	0.45700 0.22056 0.22056 0.40800
C 	C 	0.93160 0.29529 0.79529 -0.17700
C 	C 	0.95700 0.27944 0.77944 0.40700
C 	C 	0.43160 0.29529 0.29529 -0.17800
C 	C 	0.45700 0.27944 0.27944 0.40800
C 	C 	0.20471 0.06840 0.29529 -0.17800
C 	C 	0.22056 0.04300 0.27944 0.40800
C 	C 	0.20471 0.56840 0.79529 -0.17800
C 	C 	0.22056 0.54300 0.77944 0.40800
C 	C 	0.79529 0.06840 0.70471 -0.17800
C 	C 	0.77944 0.04300 0.72056 0.40800
C 	C 	0.79529 0.56840 0.20471 -0.17800
C 	C 	0.77944 0.54300 0.22056 0.40800
C 	C 	0.29529 0.06840 0.20471 -0.17800
C 	C 	0.27944 0.04300 0.22056 0.40800
C 	C 	0.20471 0.93160 0.70471 -0.17700
C 	C 	0.22056 0.95700 0.72056 0.40700
C 	C 	0.20471 0.43160 0.20471 -0.17800
C 	C 	0.22056 0.45700 0.22056 0.40800
C 	C 	0.79529 0.93160 0.29529 -0.17700
C 	C 	0.77944 0.95700 0.27944 0.40700
C 	C 	0.79529 0.43160 0.79529 -0.17700
C 	C 	0.77944 0.45700 0.77944 0.40800
C 	C 	0.29529 0.43160 0.29529 -0.17800
C 	C 	0.27944 0.45700 0.27944 0.40800
C 	C 	0.20471 0.29529 0.93160 -0.17700
C 	C 	0.22056 0.27944 0.95700 0.40700
C 	C 	0.20471 0.79529 0.43160 -0.17800
C 	C 	0.22056 0.77944 0.45700 0.40800
C 	C 	0.79529 0.70471 0.93160 -0.17700
C 	C 	0.77944 0.72056 0.95700 0.40700
C 	C 	0.79529 0.20471 0.43160 -0.17800
C 	C 	0.77944 0.22056 0.45700 0.40800
C 	C 	0.29529 0.20471 0.93160 -0.17700
C 	C 	0.27944 0.22056 0.95700 0.40700
C 	C 	0.20471 0.70471 0.06840 -0.17800
C 	C 	0.22056 0.72056 0.04300 0.40800
C 	C 	0.20471 0.20471 0.56840 -0.17800
C 	C 	0.22056 0.22056 0.54300 0.40800
C 	C 	0.79529 0.29529 0.06840 -0.17800
C 	C 	0.77944 0.27944 0.04300 0.40800
C 	C 	0.79529 0.79529 0.56840 -0.17700
C 	C 	0.77944 0.77944 0.54300 0.40800
C 	C 	0.29529 0.29529 0.56840 -0.17800
C 	C 	0.27944 0.27944 0.54300 0.40800
C 	C 	0.29529 0.06840 0.79529 -0.17800
C 	C 	0.27944 0.04300 0.77944 0.40800
C 	C 	0.29529 0.56840 0.29529 -0.17800
C 	C 	0.27944 0.54300 0.27944 0.40800
C 	C 	0.70471 0.06840 0.20471 -0.17800
C 	C 	0.72056 0.04300 0.22056 0.40800
C 	C 	0.70471 0.56840 0.70471 -0.17800
C 	C 	0.72056 0.54300 0.72056 0.40800
C 	C 	0.20471 0.56840 0.20471 -0.17800
C 	C 	0.22056 0.54300 0.22056 0.40800
C 	C 	0.70471 0.93160 0.79529 -0.17700
C 	C 	0.72056 0.95700 0.77944 0.40700
C 	C 	0.70471 0.43160 0.29529 -0.17800
C 	C 	0.72056 0.45700 0.27944 0.40800
C 	C 	0.20471 0.93160 0.29529 -0.17700
C 	C 	0.22056 0.95700 0.27944 0.40700
C 	C 	0.29529 0.93160 0.20471 -0.17700
C 	C 	0.27944 0.95700 0.22056 0.40700
C 	C 	0.29529 0.43160 0.70471 -0.17800
C 	C 	0.27944 0.45700 0.72056 0.40800
C 	C 	0.06840 0.20471 0.70471 -0.17800
C 	C 	0.04300 0.22056 0.72056 0.40800
C 	C 	0.56840 0.20471 0.20471 -0.17800
C 	C 	0.54300 0.22056 0.22056 0.40800
C 	C 	0.06840 0.79529 0.29529 -0.17800
C 	C 	0.04300 0.77944 0.27944 0.40800
C 	C 	0.56840 0.79529 0.79529 -0.17700
C 	C 	0.54300 0.77944 0.77944 0.40800
C 	C 	0.56840 0.29529 0.29529 -0.17800
C 	C 	0.54300 0.27944 0.27944 0.40800
C 	C 	0.93160 0.20471 0.29529 -0.17700
C 	C 	0.95700 0.22056 0.27944 0.40700
C 	C 	0.43160 0.20471 0.79529 -0.17800
C 	C 	0.45700 0.22056 0.77944 0.40800
C 	C 	0.93160 0.79529 0.70471 -0.17700
C 	C 	0.95700 0.77944 0.72056 0.40700
C 	C 	0.93160 0.29529 0.20471 -0.17700
C 	C 	0.95700 0.27944 0.22056 0.40700
C 	C 	0.43160 0.79529 0.20471 -0.17800
C 	C 	0.45700 0.77944 0.22056 0.40800
C 	C 	0.70471 0.79529 0.93160 -0.17700
C 	C 	0.72056 0.77944 0.95700 0.40700
C 	C 	0.70471 0.29529 0.43160 -0.17800
C 	C 	0.72056 0.27944 0.45700 0.40800
C 	C 	0.29529 0.70471 0.43160 -0.17800
C 	C 	0.27944 0.72056 0.45700 0.40800
C 	C 	0.29529 0.79529 0.06840 -0.17800
C 	C 	0.27944 0.77944 0.04300 0.40800
C 	C 	0.70471 0.20471 0.06840 -0.17800
C 	C 	0.72056 0.22056 0.04300 0.40800
C 	C 	0.70471 0.70471 0.56840 -0.17800
C 	C 	0.72056 0.72056 0.54300 0.40800
C 	C 	0.93160 0.70471 0.79529 -0.17700
C 	C 	0.95700 0.72056 0.77944 0.40700
C 	C 	0.43160 0.70471 0.29529 -0.17800
C 	C 	0.45700 0.72056 0.27944 0.40800
C 	C 	0.43160 0.29529 0.70471 -0.17800
C 	C 	0.45700 0.27944 0.72056 0.40800
C 	C 	0.06840 0.29529 0.79529 -0.17800
C 	C 	0.04300 0.27944 0.77944 0.40800
C 	C 	0.06840 0.70471 0.20471 -0.17800
C 	C 	0.04300 0.72056 0.22056 0.40800
C 	C 	0.56840 0.70471 0.70471 -0.17800
C 	C 	0.54300 0.72056 0.72056 0.40800
C 	C 	0.79529 0.93160 0.70471 -0.17700
C 	C 	0.77944 0.95700 0.72056 0.40700
C 	C 	0.79529 0.43160 0.20471 -0.17800
C 	C 	0.77944 0.45700 0.22056 0.40800
C 	C 	0.20471 0.43160 0.79529 -0.17800
C 	C 	0.22056 0.45700 0.77944 0.40800
C 	C 	0.79529 0.06840 0.29529 -0.17800
C 	C 	0.77944 0.04300 0.27944 0.40800
C 	C 	0.79529 0.56840 0.79529 -0.17700
C 	C 	0.77944 0.54300 0.77944 0.40800
C 	C 	0.20471 0.06840 0.70471 -0.17800
C 	C 	0.22056 0.04300 0.72056 0.40800
C 	C 	0.79529 0.70471 0.06840 -0.17800
C 	C 	0.77944 0.72056 0.04300 0.40800
C 	C 	0.79529 0.20471 0.56840 -0.17800
C 	C 	0.77944 0.22056 0.54300 0.40800
C 	C 	0.20471 0.79529 0.56840 -0.17800
C 	C 	0.22056 0.77944 0.54300 0.40800
C 	C 	0.79529 0.29529 0.93160 -0.17700
C 	C 	0.77944 0.27944 0.95700 0.40700
C 	C 	0.79529 0.79529 0.43160 -0.17700
C 	C 	0.77944 0.77944 0.45700 0.40800
C 	C 	0.20471 0.70471 0.93160 -0.17700
C 	C 	0.22056 0.72056 0.95700 0.40700
C 	C 	0.70471 0.93160 0.20471 -0.17700
C 	C 	0.72056 0.95700 0.22056 0.40700
C 	C 	0.70471 0.43160 0.70471 -0.17800
C 	C 	0.72056 0.45700 0.72056 0.40800
C 	C 	0.29529 0.93160 0.79529 -0.17700
C 	C 	0.27944 0.95700 0.77944 0.40700
C 	C 	0.29529 0.56840 0.70471 -0.17800
C 	C 	0.27944 0.54300 0.72056 0.40800
C 	C 	0.70471 0.06840 0.79529 -0.17800
C 	C 	0.72056 0.04300 0.77944 0.40800
C 	C 	0.70471 0.56840 0.29529 -0.17800
C 	C 	0.72056 0.54300 0.27944 0.40800
C 	C 	0.93160 0.79529 0.29529 -0.17700
C 	C 	0.95700 0.77944 0.27944 0.40700
C 	C 	0.43160 0.79529 0.79529 -0.17700
C 	C 	0.45700 0.77944 0.77944 0.40800
C 	C 	0.93160 0.20471 0.70471 -0.17700
C 	C 	0.95700 0.22056 0.72056 0.40700
C 	C 	0.06840 0.79529 0.70471 -0.17800
C 	C 	0.04300 0.77944 0.72056 0.40800
C 	C 	0.56840 0.79529 0.20471 -0.17800
C 	C 	0.54300 0.77944 0.22056 0.40800
C 	C 	0.56840 0.20471 0.79529 -0.17800
C 	C 	0.54300 0.22056 0.77944 0.40800
Cu	Cu	0.22831 0.22831 -0.00000 0.90200
Cu	Cu	0.22831 0.72831 0.50000 0.90400
Cu	Cu	0.72831 0.22831 0.50000 0.90400
Cu	Cu	0.72831 0.72831 -0.00000 0.90200
Cu	Cu	0.77169 0.77169 -0.00000 0.90300
Cu	Cu	0.77169 0.27169 0.50000 0.90400
Cu	Cu	0.27169 0.77169 0.50000 0.90400
Cu	Cu	0.27169 0.27169 -0.00000 0.90300
Cu	Cu	0.77169 0.22831 -0.00000 0.90300
Cu	Cu	0.77169 0.72831 0.50000 0.90400
Cu	Cu	0.27169 0.22831 0.50000 0.90400
Cu	Cu	0.27169 0.72831 -0.00000 0.90200
Cu	Cu	0.22831 0.77169 -0.00000 0.90300
Cu	Cu	0.22831 0.27169 0.50000 0.90400
Cu	Cu	0.72831 0.77169 0.50000 0.90400
Cu	Cu	0.72831 0.27169 -0.00000 0.90200
Cu	Cu	0.00000 0.22831 0.22831 0.90200
Cu	Cu	-0.00000 0.72831 0.72831 0.90200
Cu	Cu	0.50000 0.22831 0.72831 0.90400
Cu	Cu	0.50000 0.72831 0.22831 0.90400
Cu	Cu	-0.00000 0.77169 0.77169 0.90300
Cu	Cu	0.00000 0.27169 0.27169 0.90300
Cu	Cu	0.50000 0.77169 0.27169 0.90400
Cu	Cu	0.50000 0.27169 0.77169 0.90400
Cu	Cu	-0.00000 0.77169 0.22831 0.90300
Cu	Cu	0.00000 0.27169 0.72831 0.90200
Cu	Cu	0.50000 0.77169 0.72831 0.90400
Cu	Cu	0.50000 0.27169 0.22831 0.90400
Cu	Cu	-0.00000 0.22831 0.77169 0.90300
Cu	Cu	0.00000 0.72831 0.27169 0.90200
Cu	Cu	0.50000 0.22831 0.27169 0.90400
Cu	Cu	0.50000 0.72831 0.77169 0.90400
Cu	Cu	0.22831 0.00000 0.22831 0.90200
Cu	Cu	0.22831 0.50000 0.72831 0.90400
Cu	Cu	0.72831 0.00000 0.72831 0.90200
Cu	Cu	0.72831 0.50000 0.22831 0.90400
Cu	Cu	0.77169 0.00000 0.77169 0.90300
Cu	Cu	0.77169 0.50000 0.27169 0.90400
Cu	Cu	0.27169 -0.00000 0.27169 0.90300
Cu	Cu	0.27169 0.50000 0.77169 0.90400
Cu	Cu	0.22831 0.00000 0.77169 0.90300
Cu	Cu	0.22831 0.50000 0.27169 0.90400
Cu	Cu	0.72831 -0.00000 0.27169 0.90200
Cu	Cu	0.72831 0.50000 0.77169 0.90400
Cu	Cu	0.77169 0.00000 0.22831 0.90300
Cu	Cu	0.77169 0.50000 0.72831 0.90400
Cu	Cu	0.27169 0.00000 0.72831 0.90200
Cu	Cu	0.27169 0.50000 0.22831 0.90400
