data_crystal

_cell_length_a 11.28560
_cell_length_b 11.28560
_cell_length_c 27.05900
_cell_angle_alpha 94.05400
_cell_angle_beta  94.05400
_cell_angle_gamma 119.70400

_symmetry_space_group_name_	'P 1'
_symmetry_space_group_name_H-M	'P 1'

loop_
_symmetry_equiv_pos_as_xyz
  x,y,z

loop_
_atom_site_label
_atom_site_type_symbol
_atom_site_fract_x
_atom_site_fract_y
_atom_site_fract_z
_atom_site_charge
Ni	Ni	0.75526 0.51254 0.57532 1.08500
Ni	Ni	0.74039 0.37047 0.39196 1.12900
Ni	Ni	0.51254 0.75526 0.07532 1.08400
Ni	Ni	0.37047 0.74039 0.89196 1.12900
H 	H 	0.77830 0.45930 0.74530 0.10800
H 	H 	0.78960 0.52280 0.82570 -0.00700
H 	H 	0.77420 0.71340 0.85290 0.12800
H 	H 	0.98020 0.07860 0.79390 0.16400
H 	H 	0.12970 0.24690 0.85720 -0.03100
H 	H 	0.07600 0.24140 0.93640 0.12200
H 	H 	0.86870 0.05510 0.95480 -0.01700
H 	H 	0.00950 0.09330 0.50740 0.08500
H 	H 	0.86550 0.94090 0.44460 -0.00100
H 	H 	0.69850 0.96690 0.40120 0.14100
H 	H 	0.48220 0.96360 0.45180 0.15700
H 	H 	0.28050 0.77070 0.41420 -0.04300
H 	H 	0.21720 0.75040 0.32950 0.14700
H 	H 	0.34400 0.92440 0.28500 -0.01600
H 	H 	0.87120 0.82120 0.59210 0.01600
H 	H 	0.06370 0.02330 0.59130 0.08800
H 	H 	0.25730 0.82310 0.55660 0.08300
H 	H 	0.05550 0.61730 0.55800 0.03000
H 	H 	0.64720 0.21200 0.57840 0.02100
H 	H 	0.44340 0.00240 0.57620 0.08100
H 	H 	0.23920 0.21000 0.57070 0.09100
H 	H 	0.44400 0.40180 0.56950 -0.00400
H 	H 	0.88790 0.25790 0.32750 0.00900
H 	H 	0.09100 0.26280 0.32460 0.09500
H 	H 	0.23540 0.53240 0.44800 0.09400
H 	H 	0.03250 0.52530 0.44520 0.00400
H 	H 	0.55080 0.41220 0.32200 0.02100
H 	H 	0.36160 0.43800 0.31870 0.08500
H 	H 	0.32870 0.36350 0.46040 0.08100
H 	H 	0.52300 0.34280 0.46050 -0.00900
H 	H 	0.45930 0.77830 0.24530 0.10700
H 	H 	0.52280 0.78960 0.32570 -0.00800
H 	H 	0.71340 0.77420 0.35290 0.12800
H 	H 	0.07860 0.98020 0.29390 0.16400
H 	H 	0.24690 0.12970 0.35720 -0.03100
H 	H 	0.24140 0.07600 0.43640 0.12100
H 	H 	0.05510 0.86870 0.45480 -0.01700
H 	H 	0.09330 0.00950 0.00740 0.07800
H 	H 	0.94090 0.86550 0.94460 0.00300
H 	H 	0.96690 0.69850 0.90120 0.13800
H 	H 	0.96360 0.48220 0.95180 0.15700
H 	H 	0.77070 0.28050 0.91420 -0.04300
H 	H 	0.75040 0.21720 0.82950 0.14700
H 	H 	0.92440 0.34400 0.78500 -0.01600
H 	H 	0.82120 0.87120 0.09210 0.01600
H 	H 	0.02330 0.06370 0.09130 0.08700
H 	H 	0.82310 0.25730 0.05660 0.08300
H 	H 	0.61730 0.05550 0.05800 0.02900
H 	H 	0.21200 0.64720 0.07840 0.02100
H 	H 	0.00240 0.44340 0.07620 0.08100
H 	H 	0.21000 0.23920 0.07070 0.09100
H 	H 	0.40180 0.44400 0.06950 -0.00400
H 	H 	0.25790 0.88790 0.82750 0.00900
H 	H 	0.26280 0.09100 0.82460 0.09400
H 	H 	0.53240 0.23540 0.94800 0.09400
H 	H 	0.52530 0.03250 0.94520 0.00500
H 	H 	0.41220 0.55080 0.82200 0.02100
H 	H 	0.43800 0.36160 0.81870 0.08500
H 	H 	0.36350 0.32870 0.96040 0.08200
H 	H 	0.34280 0.52300 0.96050 -0.00900
C 	C 	0.75240 0.57020 0.66430 0.26800
C 	C 	0.72810 0.81590 0.69690 0.33500
C 	C 	0.75470 0.61110 0.71780 0.04400
C 	C 	0.77180 0.53640 0.75490 -0.14600
C 	C 	0.77860 0.57440 0.80240 0.12700
C 	C 	0.76990 0.68830 0.81900 -0.24200
C 	C 	0.75480 0.76340 0.78350 0.24800
C 	C 	0.74480 0.72640 0.73280 -0.13500
C 	C 	0.83390 0.97350 0.83740 0.31200
C 	C 	0.95720 0.07620 0.82630 -0.31200
C 	C 	0.04640 0.17580 0.86440 0.19900
C 	C 	0.01570 0.17250 0.91120 -0.25500
C 	C 	0.88910 0.06170 0.92210 0.16300
C 	C 	0.79770 0.96490 0.88450 -0.24700
C 	C 	0.66450 0.85030 0.89810 0.41300
C 	C 	0.83030 0.24010 0.48200 -0.22900
C 	C 	0.93260 0.22320 0.50740 0.08400
C 	C 	0.94220 0.10680 0.49120 -0.15900
C 	C 	0.85740 0.01740 0.45380 0.14100
C 	C 	0.75790 0.03150 0.42760 -0.27800
C 	C 	0.75050 0.14850 0.44260 0.27900
C 	C 	0.81280 0.36440 0.49870 0.43600
C 	C 	0.03270 0.32190 0.55130 0.25200
C 	C 	0.53150 0.05610 0.38910 0.32000
C 	C 	0.45420 0.95460 0.41790 -0.32800
C 	C 	0.33460 0.83980 0.39550 0.22100
C 	C 	0.29610 0.82850 0.34510 -0.28900
C 	C 	0.37350 0.93170 0.31860 0.21900
C 	C 	0.49460 0.04760 0.33950 -0.30000
C 	C 	0.57200 0.15200 0.30640 0.37600
C 	C 	0.95020 0.82040 0.58500 0.09100
C 	C 	0.06540 0.94220 0.58430 -0.12800
C 	C 	0.18700 0.94860 0.57340 0.06700
C 	C 	0.17890 0.82510 0.56400 -0.12100
C 	C 	0.05650 0.69970 0.56500 0.07100
C 	C 	0.56380 0.21040 0.57600 0.07600
C 	C 	0.44010 0.08290 0.57500 -0.12400
C 	C 	0.31600 0.07820 0.57230 0.05100
C 	C 	0.31920 0.20540 0.57130 -0.14200
C 	C 	0.44330 0.31950 0.57130 0.09600
C 	C 	0.95970 0.31430 0.35240 0.11900
C 	C 	0.08190 0.31690 0.34990 -0.16600
C 	C 	0.19020 0.40120 0.38560 0.07400
C 	C 	0.16600 0.47660 0.42240 -0.14800
C 	C 	0.04380 0.46960 0.42130 0.08900
C 	C 	0.50440 0.39980 0.35000 0.07900
C 	C 	0.39050 0.41550 0.34780 -0.12900
C 	C 	0.31920 0.39780 0.38850 0.05500
C 	C 	0.37100 0.37200 0.43150 -0.13900
C 	C 	0.48780 0.35860 0.43120 0.08800
C 	C 	0.57020 0.75240 0.16430 0.26800
C 	C 	0.81590 0.72810 0.19690 0.33500
C 	C 	0.61110 0.75470 0.21780 0.04400
C 	C 	0.53640 0.77180 0.25490 -0.14600
C 	C 	0.57440 0.77860 0.30240 0.12700
C 	C 	0.68830 0.76990 0.31900 -0.24200
C 	C 	0.76340 0.75480 0.28350 0.24800
C 	C 	0.72640 0.74480 0.23280 -0.13500
C 	C 	0.97350 0.83390 0.33740 0.31300
C 	C 	0.07620 0.95720 0.32630 -0.31200
C 	C 	0.17580 0.04640 0.36440 0.19900
C 	C 	0.17250 0.01570 0.41120 -0.25600
C 	C 	0.06170 0.88910 0.42210 0.16300
C 	C 	0.96490 0.79770 0.38450 -0.24700
C 	C 	0.85030 0.66450 0.39810 0.41400
C 	C 	0.24010 0.83030 0.98200 -0.22300
C 	C 	0.22320 0.93260 0.00740 0.07300
C 	C 	0.10680 0.94220 0.99120 -0.14400
C 	C 	0.01740 0.85740 0.95380 0.12900
C 	C 	0.03150 0.75790 0.92760 -0.26900
C 	C 	0.14850 0.75050 0.94260 0.27400
C 	C 	0.36440 0.81280 0.99870 0.43700
C 	C 	0.32190 0.03270 0.05130 0.25600
C 	C 	0.05610 0.53150 0.88910 0.32000
C 	C 	0.95460 0.45420 0.91790 -0.32700
C 	C 	0.83980 0.33460 0.89550 0.22100
C 	C 	0.82850 0.29610 0.84510 -0.28900
C 	C 	0.93170 0.37350 0.81860 0.21900
C 	C 	0.04760 0.49460 0.83950 -0.30000
C 	C 	0.15200 0.57200 0.80640 0.37600
C 	C 	0.82040 0.95020 0.08500 0.08900
C 	C 	0.94220 0.06540 0.08430 -0.12600
C 	C 	0.94860 0.18700 0.07340 0.06700
C 	C 	0.82510 0.17890 0.06400 -0.12100
C 	C 	0.69970 0.05650 0.06500 0.07100
C 	C 	0.21040 0.56380 0.07600 0.07500
C 	C 	0.08290 0.44010 0.07500 -0.12400
C 	C 	0.07820 0.31600 0.07230 0.05000
C 	C 	0.20540 0.31920 0.07130 -0.14200
C 	C 	0.31950 0.44330 0.07130 0.09600
C 	C 	0.31430 0.95970 0.85240 0.11900
C 	C 	0.31690 0.08190 0.84990 -0.16500
C 	C 	0.40120 0.19020 0.88560 0.07400
C 	C 	0.47660 0.16600 0.92240 -0.14800
C 	C 	0.46960 0.04380 0.92130 0.08900
C 	C 	0.39980 0.50440 0.85000 0.07900
C 	C 	0.41550 0.39050 0.84780 -0.12900
C 	C 	0.39780 0.31920 0.88850 0.05600
C 	C 	0.37200 0.37100 0.93150 -0.13900
C 	C 	0.35860 0.48780 0.93120 0.08800
N 	N 	0.94220 0.69740 0.57590 -0.22200
N 	N 	0.56310 0.32570 0.57360 -0.22900
N 	N 	0.93570 0.38430 0.38660 -0.21400
N 	N 	0.55060 0.36760 0.39080 -0.21500
N 	N 	0.69740 0.94220 0.07590 -0.22200
N 	N 	0.32570 0.56310 0.07360 -0.22900
N 	N 	0.38430 0.93570 0.88660 -0.21400
N 	N 	0.36760 0.55060 0.89080 -0.21500
O 	O 	0.80680 0.49900 0.65170 -0.32700
O 	O 	0.69710 0.60390 0.63120 -0.36200
O 	O 	0.83420 0.90260 0.68070 -0.22100
O 	O 	0.60830 0.79790 0.68660 -0.19900
O 	O 	0.74220 0.87820 0.79690 -0.26500
O 	O 	0.55890 0.83110 0.87150 -0.40000
O 	O 	0.66910 0.79350 0.93390 -0.30900
O 	O 	0.02360 0.27880 0.59230 -0.20600
O 	O 	0.11910 0.43870 0.54240 -0.22100
O 	O 	0.82640 0.39700 0.54450 -0.42900
O 	O 	0.78130 0.41810 0.46650 -0.46300
O 	O 	0.65430 0.17090 0.41400 -0.42000
O 	O 	0.67830 0.27010 0.32280 -0.38300
O 	O 	0.52840 0.12020 0.26000 -0.22500
O 	O 	0.49900 0.80680 0.15170 -0.32700
O 	O 	0.60390 0.69710 0.13120 -0.36200
O 	O 	0.90260 0.83420 0.18070 -0.22100
O 	O 	0.79790 0.60830 0.18660 -0.19900
O 	O 	0.87820 0.74220 0.29690 -0.26500
O 	O 	0.83110 0.55890 0.37150 -0.40000
O 	O 	0.79350 0.66910 0.43390 -0.31000
O 	O 	0.27880 0.02360 0.09230 -0.20700
O 	O 	0.43870 0.11910 0.04240 -0.22300
O 	O 	0.39700 0.82640 0.04450 -0.43000
O 	O 	0.41810 0.78130 0.96650 -0.46300
O 	O 	0.17090 0.65430 0.91400 -0.41900
O 	O 	0.27010 0.67830 0.82280 -0.38300
O 	O 	0.12020 0.52840 0.76000 -0.22500
