data_crystal

_cell_length_a 11.21490
_cell_length_b 17.00250
_cell_length_c 20.31760
_cell_angle_alpha 65.26520
_cell_angle_beta  87.94890
_cell_angle_gamma 85.09300

_symmetry_space_group_name_	'P 1'
_symmetry_space_group_name_H-M	'P 1'

loop_
_symmetry_equiv_pos_as_xyz
  x,y,z

loop_
_atom_site_label
_atom_site_type_symbol
_atom_site_fract_x
_atom_site_fract_y
_atom_site_fract_z
_atom_site_charge
Ni	Ni	0.09149 0.22184 0.95052 1.07700
Ni	Ni	0.40851 0.82764 0.95052 1.07900
Ni	Ni	0.90851 0.77816 0.04948 1.07700
Ni	Ni	0.59149 0.17236 0.04948 1.07900
Ni	Ni	0.25000 0.76073 0.47854 1.09900
Ni	Ni	0.75000 0.23927 0.52146 1.09900
H 	H 	0.48990 0.35570 0.81180 0.09600
H 	H 	0.52630 0.42530 0.68980 -0.00600
H 	H 	0.71580 0.41670 0.64520 0.13000
H 	H 	0.02960 0.36300 0.60240 0.15000
H 	H 	0.13160 0.48550 0.53400 -0.01100
H 	H 	0.01470 0.59210 0.66800 -0.01000
H 	H 	0.92060 0.46770 0.73840 0.15000
H 	H 	0.16890 0.77020 0.33440 0.00500
H 	H 	0.03640 0.84990 0.24320 0.10700
H 	H 	0.89170 0.95970 0.37060 0.08200
H 	H 	0.03250 0.88040 0.45640 -0.00200
H 	H 	0.83430 0.07310 0.06440 -0.01000
H 	H 	0.96610 0.98160 0.15060 0.08800
H 	H 	0.72490 0.97900 0.30120 0.08400
H 	H 	0.59920 0.06890 0.21060 0.00900
H 	H 	0.31870 0.30530 0.94360 0.01000
H 	H 	0.38750 0.42980 0.93720 0.08400
H 	H 	0.05330 0.54040 0.89620 0.07700
H 	H 	0.99390 0.41180 0.90400 0.01300
H 	H 	0.01010 0.83250 0.81180 0.09000
H 	H 	0.97370 0.88490 0.68980 -0.00300
H 	H 	0.78420 0.93810 0.64520 0.12800
H 	H 	0.47040 0.03460 0.60240 0.14900
H 	H 	0.36840 0.98050 0.53400 -0.01100
H 	H 	0.48530 0.73990 0.66800 -0.01000
H 	H 	0.57940 0.79390 0.73840 0.15000
H 	H 	0.33110 0.89540 0.33440 0.00400
H 	H 	0.46360 0.90690 0.24320 0.10800
H 	H 	0.60830 0.66970 0.37060 0.08200
H 	H 	0.46750 0.66320 0.45640 -0.00100
H 	H 	0.66570 0.86250 0.06440 -0.00900
H 	H 	0.53390 0.86780 0.15060 0.08800
H 	H 	0.77510 0.71980 0.30120 0.08300
H 	H 	0.90080 0.72050 0.21060 0.00900
H 	H 	0.18130 0.75110 0.94360 0.00900
H 	H 	0.11250 0.63300 0.93720 0.08400
H 	H 	0.44670 0.56340 0.89620 0.08000
H 	H 	0.50610 0.68420 0.90400 0.00600
H 	H 	0.51010 0.64430 0.18820 0.09600
H 	H 	0.47370 0.57470 0.31020 -0.00600
H 	H 	0.28420 0.58330 0.35480 0.13000
H 	H 	0.97040 0.63700 0.39760 0.15000
H 	H 	0.86840 0.51450 0.46600 -0.01100
H 	H 	0.98530 0.40790 0.33200 -0.01000
H 	H 	0.07940 0.53230 0.26160 0.15000
H 	H 	0.83110 0.22980 0.66560 0.00500
H 	H 	0.96360 0.15010 0.75680 0.10700
H 	H 	0.10830 0.04030 0.62940 0.08200
H 	H 	0.96750 0.11960 0.54360 -0.00200
H 	H 	0.16570 0.92690 0.93560 -0.01000
H 	H 	0.03390 0.01840 0.84940 0.08800
H 	H 	0.27510 0.02100 0.69880 0.08400
H 	H 	0.40080 0.93110 0.78940 0.00900
H 	H 	0.68130 0.69470 0.05640 0.01000
H 	H 	0.61250 0.57020 0.06280 0.08400
H 	H 	0.94670 0.45960 0.10380 0.07700
H 	H 	0.00610 0.58820 0.09600 0.01300
H 	H 	0.98990 0.16750 0.18820 0.09000
H 	H 	0.02630 0.11510 0.31020 -0.00300
H 	H 	0.21580 0.06190 0.35480 0.12800
H 	H 	0.52960 0.96540 0.39760 0.14900
H 	H 	0.63160 0.01950 0.46600 -0.01100
H 	H 	0.51470 0.26010 0.33200 -0.01000
H 	H 	0.42060 0.20610 0.26160 0.15000
H 	H 	0.66890 0.10460 0.66560 0.00400
H 	H 	0.53640 0.09310 0.75680 0.10800
H 	H 	0.39170 0.33030 0.62940 0.08200
H 	H 	0.53250 0.33680 0.54360 -0.00100
H 	H 	0.33430 0.13750 0.93560 -0.00900
H 	H 	0.46610 0.13220 0.84940 0.08800
H 	H 	0.22490 0.28020 0.69880 0.08300
H 	H 	0.09920 0.27950 0.78940 0.00900
H 	H 	0.81870 0.24890 0.05640 0.00900
H 	H 	0.88750 0.36700 0.06280 0.08400
H 	H 	0.55330 0.43660 0.10380 0.08000
H 	H 	0.49390 0.31580 0.09600 0.00600
C 	C 	0.63090 0.25506 0.92108 0.25500
C 	C 	0.87840 0.23851 0.86192 0.38100
C 	C 	0.65820 0.30089 0.84182 0.04500
C 	C 	0.56650 0.35087 0.79406 -0.14400
C 	C 	0.58840 0.39309 0.72122 0.12000
C 	C 	0.70110 0.38803 0.69454 -0.24500
C 	C 	0.79360 0.33977 0.74166 0.25000
C 	C 	0.77450 0.29401 0.81544 -0.16000
C 	C 	0.96260 0.40640 0.67420 0.32400
C 	C 	0.02630 0.40949 0.61542 -0.30600
C 	C 	0.08730 0.48330 0.57420 0.16500
C 	C 	0.08190 0.55229 0.59302 -0.19500
C 	C 	0.01850 0.54612 0.65436 0.16800
C 	C 	0.96040 0.47224 0.69612 -0.30500
C 	C 	0.14360 0.63217 0.54866 0.33600
C 	C 	0.11380 0.81031 0.34098 0.09100
C 	C 	0.03350 0.85728 0.28604 -0.14100
C 	C 	0.94870 0.91562 0.29556 0.06300
C 	C 	0.94880 0.92257 0.36146 -0.14100
C 	C 	0.03340 0.87434 0.41292 0.08700
C 	C 	0.81220 0.05393 0.11294 0.08300
C 	C 	0.89220 0.99933 0.16434 -0.14300
C 	C 	0.86210 0.97045 0.23750 0.06300
C 	C 	0.74980 0.99756 0.25328 -0.13900
C 	C 	0.67460 0.05188 0.19824 0.08200
C 	C 	0.26410 0.35277 0.93546 0.07800
C 	C 	0.30620 0.42768 0.93124 -0.13100
C 	C 	0.22900 0.50045 0.91810 0.05500
C 	C 	0.10900 0.49301 0.90698 -0.12900
C 	C 	0.07400 0.41510 0.91220 0.07100
C 	C 	0.86910 0.82386 0.92108 0.25600
C 	C 	0.62160 0.89957 0.86192 0.38000
C 	C 	0.84180 0.85729 0.84182 0.04100
C 	C 	0.93350 0.85507 0.79406 -0.13300
C 	C 	0.91160 0.88569 0.72122 0.11300
C 	C 	0.79890 0.91743 0.69454 -0.24000
C 	C 	0.70640 0.91857 0.74166 0.24800
C 	C 	0.72550 0.89055 0.81544 -0.15800
C 	C 	0.53740 0.91940 0.67420 0.32200
C 	C 	0.47370 0.97509 0.61542 -0.30300
C 	C 	0.41270 0.94250 0.57420 0.16500
C 	C 	0.41810 0.85469 0.59302 -0.19600
C 	C 	0.48150 0.79952 0.65436 0.17100
C 	C 	0.53960 0.83164 0.69612 -0.30700
C 	C 	0.35640 0.81917 0.54866 0.33600
C 	C 	0.38620 0.84871 0.34098 0.09300
C 	C 	0.46650 0.85668 0.28604 -0.14500
C 	C 	0.55130 0.78882 0.29556 0.06600
C 	C 	0.55120 0.71597 0.36146 -0.14100
C 	C 	0.46660 0.71274 0.41292 0.08600
C 	C 	0.68780 0.83313 0.11294 0.08100
C 	C 	0.60780 0.83633 0.16434 -0.14100
C 	C 	0.63790 0.79205 0.23750 0.06100
C 	C 	0.75020 0.74916 0.25328 -0.13700
C 	C 	0.82540 0.74988 0.19824 0.08100
C 	C 	0.23590 0.71177 0.93546 0.08100
C 	C 	0.19380 0.64108 0.93124 -0.13400
C 	C 	0.27100 0.58145 0.91810 0.06000
C 	C 	0.39100 0.60001 0.90698 -0.13600
C 	C 	0.42600 0.67270 0.91220 0.08300
C 	C 	0.36910 0.74494 0.07892 0.25500
C 	C 	0.12160 0.76149 0.13808 0.38100
C 	C 	0.34180 0.69911 0.15818 0.04500
C 	C 	0.43350 0.64913 0.20594 -0.14400
C 	C 	0.41160 0.60691 0.27878 0.12000
C 	C 	0.29890 0.61197 0.30546 -0.24500
C 	C 	0.20640 0.66023 0.25834 0.25000
C 	C 	0.22550 0.70599 0.18456 -0.16000
C 	C 	0.03740 0.59360 0.32580 0.32400
C 	C 	0.97370 0.59051 0.38458 -0.30600
C 	C 	0.91270 0.51670 0.42580 0.16500
C 	C 	0.91810 0.44771 0.40698 -0.19500
C 	C 	0.98150 0.45388 0.34564 0.16800
C 	C 	0.03960 0.52776 0.30388 -0.30500
C 	C 	0.85640 0.36783 0.45134 0.33600
C 	C 	0.88620 0.18969 0.65902 0.09100
C 	C 	0.96650 0.14272 0.71396 -0.14100
C 	C 	0.05130 0.08438 0.70444 0.06300
C 	C 	0.05120 0.07743 0.63854 -0.14100
C 	C 	0.96660 0.12566 0.58708 0.08700
C 	C 	0.18780 0.94607 0.88706 0.08300
C 	C 	0.10780 0.00067 0.83566 -0.14300
C 	C 	0.13790 0.02955 0.76250 0.06300
C 	C 	0.25020 0.00244 0.74672 -0.13900
C 	C 	0.32540 0.94812 0.80176 0.08200
C 	C 	0.73590 0.64723 0.06454 0.07800
C 	C 	0.69380 0.57232 0.06876 -0.13100
C 	C 	0.77100 0.49955 0.08190 0.05500
C 	C 	0.89100 0.50699 0.09302 -0.12900
C 	C 	0.92600 0.58490 0.08780 0.07100
C 	C 	0.13090 0.17614 0.07892 0.25600
C 	C 	0.37840 0.10043 0.13808 0.38000
C 	C 	0.15820 0.14271 0.15818 0.04100
C 	C 	0.06650 0.14493 0.20594 -0.13300
C 	C 	0.08840 0.11431 0.27878 0.11300
C 	C 	0.20110 0.08257 0.30546 -0.24000
C 	C 	0.29360 0.08143 0.25834 0.24800
C 	C 	0.27450 0.10945 0.18456 -0.15800
C 	C 	0.46260 0.08060 0.32580 0.32200
C 	C 	0.52630 0.02491 0.38458 -0.30300
C 	C 	0.58730 0.05750 0.42580 0.16500
C 	C 	0.58190 0.14531 0.40698 -0.19600
C 	C 	0.51850 0.20048 0.34564 0.17100
C 	C 	0.46040 0.16836 0.30388 -0.30700
C 	C 	0.64360 0.18083 0.45134 0.33600
C 	C 	0.61380 0.15129 0.65902 0.09300
C 	C 	0.53350 0.14332 0.71396 -0.14500
C 	C 	0.44870 0.21118 0.70444 0.06600
C 	C 	0.44880 0.28403 0.63854 -0.14100
C 	C 	0.53340 0.28726 0.58708 0.08600
C 	C 	0.31220 0.16687 0.88706 0.08100
C 	C 	0.39220 0.16367 0.83566 -0.14100
C 	C 	0.36210 0.20795 0.76250 0.06100
C 	C 	0.24980 0.25084 0.74672 -0.13700
C 	C 	0.17460 0.25012 0.80176 0.08100
C 	C 	0.76410 0.28823 0.06454 0.08100
C 	C 	0.80620 0.35892 0.06876 -0.13400
C 	C 	0.72900 0.41855 0.08190 0.06000
C 	C 	0.60900 0.39999 0.09302 -0.13600
C 	C 	0.57400 0.32730 0.08780 0.08300
N 	N 	0.11690 0.81911 0.40324 -0.24200
N 	N 	0.70340 0.08157 0.12842 -0.24500
N 	N 	0.14820 0.34379 0.92844 -0.22700
N 	N 	0.38310 0.77765 0.40324 -0.24200
N 	N 	0.79660 0.79001 0.12842 -0.24500
N 	N 	0.35180 0.72777 0.92844 -0.22800
N 	N 	0.88310 0.18089 0.59676 -0.24200
N 	N 	0.29660 0.91843 0.87158 -0.24500
N 	N 	0.85180 0.65621 0.07156 -0.22700
N 	N 	0.61690 0.22235 0.59676 -0.24200
N 	N 	0.20340 0.20999 0.87158 -0.24500
N 	N 	0.64820 0.27223 0.07156 -0.22800
O 	O 	0.71052 0.20259 0.96266 -0.37300
O 	O 	0.53040 0.26938 0.94522 -0.36300
O 	O 	0.89480 0.16192 0.86840 -0.29000
O 	O 	0.94478 0.27639 0.88688 -0.41400
O 	O 	0.90830 0.33049 0.71538 -0.30400
O 	O 	0.12350 0.69972 0.56014 -0.37100
O 	O 	0.21710 0.63289 0.49968 -0.38500
O 	O 	0.78948 0.83475 0.96266 -0.37200
O 	O 	0.96960 0.78540 0.94522 -0.36000
O 	O 	0.60520 0.96968 0.86840 -0.29100
O 	O 	0.55522 0.83673 0.88688 -0.41500
O 	O 	0.59170 0.95413 0.71538 -0.30400
O 	O 	0.37650 0.74014 0.56014 -0.37100
O 	O 	0.28290 0.86743 0.49968 -0.38600
O 	O 	0.28948 0.79741 0.03734 -0.37300
O 	O 	0.46960 0.73062 0.05478 -0.36300
O 	O 	0.10520 0.83808 0.13160 -0.29000
O 	O 	0.05522 0.72361 0.11312 -0.41400
O 	O 	0.09170 0.66951 0.28462 -0.30400
O 	O 	0.87650 0.30028 0.43986 -0.37100
O 	O 	0.78290 0.36711 0.50032 -0.38500
O 	O 	0.21052 0.16525 0.03734 -0.37200
O 	O 	0.03040 0.21460 0.05478 -0.36000
O 	O 	0.39480 0.03032 0.13160 -0.29100
O 	O 	0.44478 0.16327 0.11312 -0.41500
O 	O 	0.40830 0.04587 0.28462 -0.30400
O 	O 	0.62350 0.25986 0.43986 -0.37100
O 	O 	0.71710 0.13257 0.50032 -0.38600
