data_crystal

_cell_length_a 16.28000
_cell_length_b 11.92400
_cell_length_c 18.04000
_cell_angle_alpha 90.00000
_cell_angle_beta  103.86200
_cell_angle_gamma 90.00000

_symmetry_space_group_name_	'P 1'
_symmetry_space_group_name_H-M	'P 1'

loop_
_symmetry_equiv_pos_as_xyz
  x,y,z

loop_
_atom_site_label
_atom_site_type_symbol
_atom_site_fract_x
_atom_site_fract_y
_atom_site_fract_z
_atom_site_charge
Mo	Mo	0.21669 0.64056 0.06789 1.06900
Mo	Mo	0.21503 0.34816 0.03735 1.06500
Mo	Mo	0.11796 0.76673 0.96706 1.09000
Mo	Mo	0.98003 0.64623 0.80528 1.10000
Mo	Mo	0.97662 0.42997 0.78692 1.10000
Mo	Mo	0.11060 0.25603 0.92189 1.08200
Mn	Mn	0.62426 0.49604 0.13494 1.30300
P 	P 	0.17288 0.52500 0.88644 0.51500
P 	P 	0.06128 0.20159 0.73783 0.47300
P 	P 	0.38874 0.50625 0.05875 0.51600
P 	P 	0.12340 0.83736 0.79022 0.52500
O 	O 	0.23880 0.74480 0.99220 -0.45800
O 	O 	0.09350 0.63480 0.02500 -0.65800
O 	O 	0.09140 0.36110 0.00110 -0.65800
O 	O 	0.11590 0.63170 0.87770 -0.41800
O 	O 	0.47700 0.49580 0.11740 -0.32600
O 	O 	0.11450 0.42300 0.85800 -0.42000
O 	O 	0.21120 0.50960 0.97310 -0.42200
O 	O 	0.96430 0.52400 0.87420 -0.60000
O 	O 	0.24010 0.54070 0.84200 -0.34900
O 	O 	0.99260 0.75350 0.90120 -0.44100
O 	O 	0.20450 0.47980 0.11440 -0.47400
O 	O 	0.34130 0.59890 0.09130 -0.40700
O 	O 	0.23290 0.27470 0.94740 -0.48300
O 	O 	0.34290 0.39260 0.06190 -0.40200
O 	O 	0.01860 0.55040 0.73310 -0.48800
O 	O 	0.98630 0.29240 0.86270 -0.44500
O 	O 	0.12240 0.19690 0.81790 -0.36900
O 	O 	0.13600 0.86200 0.87650 -0.37400
O 	O 	0.98570 0.12290 0.73450 -0.23700
O 	O 	0.03920 0.77570 0.76100 -0.39700
O 	O 	0.40300 0.53720 0.98270 -0.38600
O 	O 	0.02990 0.32510 0.72230 -0.37800
O 	O 	0.13000 0.94360 0.74770 -0.36100
O 	O 	0.10850 0.16980 0.67710 -0.34300
O 	O 	0.19790 0.75970 0.77900 -0.18500
Mo	Mo	0.28331 0.14056 0.43211 1.07100
Mo	Mo	0.28497 0.84816 0.46265 1.08600
Mo	Mo	0.38204 0.26673 0.53294 1.08000
Mo	Mo	0.51997 0.14623 0.69472 1.07900
Mo	Mo	0.52338 0.92997 0.71308 1.10100
Mo	Mo	0.38940 0.75603 0.57811 1.08400
Mn	Mn	0.87574 0.99604 0.36506 1.31700
P 	P 	0.32712 0.02500 0.61356 0.48700
P 	P 	0.43872 0.70159 0.76217 0.50600
P 	P 	0.11126 0.00625 0.44125 0.48700
P 	P 	0.37660 0.33736 0.70978 0.52600
O 	O 	0.26120 0.24480 0.50780 -0.48700
O 	O 	0.40650 0.13480 0.47500 -0.63700
O 	O 	0.40860 0.86110 0.49890 -0.61200
O 	O 	0.38410 0.13170 0.62230 -0.41200
O 	O 	0.02300 0.99580 0.38260 -0.30400
O 	O 	0.38550 0.92300 0.64200 -0.38300
O 	O 	0.28880 0.00960 0.52690 -0.46400
O 	O 	0.53570 0.02400 0.62580 -0.64100
O 	O 	0.25990 0.04070 0.65800 -0.35900
O 	O 	0.50740 0.25350 0.59880 -0.47400
O 	O 	0.29550 0.97980 0.38560 -0.44600
O 	O 	0.15870 0.09890 0.40870 -0.41300
O 	O 	0.26710 0.77470 0.55260 -0.49100
O 	O 	0.15710 0.89260 0.43810 -0.36200
O 	O 	0.48140 0.05040 0.76690 -0.48100
O 	O 	0.51370 0.79240 0.63730 -0.46700
O 	O 	0.37760 0.69690 0.68210 -0.35900
O 	O 	0.36400 0.36200 0.62350 -0.38300
O 	O 	0.51430 0.62290 0.76550 -0.26100
O 	O 	0.46080 0.27570 0.73900 -0.38500
O 	O 	0.09700 0.03720 0.51730 -0.43500
O 	O 	0.47010 0.82510 0.77770 -0.34800
O 	O 	0.37000 0.44360 0.75230 -0.38200
O 	O 	0.39150 0.66980 0.82290 -0.32900
O 	O 	0.30210 0.25970 0.72100 -0.19100
Mo	Mo	0.78331 0.35944 0.93211 1.09300
Mo	Mo	0.78497 0.65184 0.96265 1.09800
Mo	Mo	0.88204 0.23327 0.03294 1.07600
Mo	Mo	0.01997 0.35377 0.19472 1.05800
Mo	Mo	0.02338 0.57003 0.21308 1.06200
Mo	Mo	0.88940 0.74397 0.07811 1.08400
Mn	Mn	0.37574 0.50396 0.86506 1.30600
P 	P 	0.82712 0.47500 0.11356 0.51400
P 	P 	0.93872 0.79841 0.26217 0.53100
P 	P 	0.61126 0.49375 0.94125 0.57700
P 	P 	0.87660 0.16264 0.20978 0.52700
O 	O 	0.76120 0.25520 0.00780 -0.50600
O 	O 	0.90650 0.36520 0.97500 -0.58800
O 	O 	0.90860 0.63890 0.99890 -0.58200
O 	O 	0.88410 0.36830 0.12230 -0.40300
O 	O 	0.52300 0.50420 0.88260 -0.32300
O 	O 	0.88550 0.57700 0.14200 -0.40700
O 	O 	0.78880 0.49040 0.02690 -0.47000
O 	O 	0.03570 0.47600 0.12580 -0.63800
O 	O 	0.75990 0.45930 0.15800 -0.35100
O 	O 	0.00740 0.24650 0.09880 -0.51500
O 	O 	0.79550 0.52020 0.88560 -0.46200
O 	O 	0.65870 0.40110 0.90870 -0.39500
O 	O 	0.76710 0.72530 0.05260 -0.50700
O 	O 	0.65710 0.60740 0.93810 -0.37700
O 	O 	0.98140 0.44960 0.26690 -0.44100
O 	O 	0.01370 0.70760 0.13730 -0.49700
O 	O 	0.87760 0.80310 0.18210 -0.35200
O 	O 	0.86400 0.13800 0.12350 -0.38700
O 	O 	0.01430 0.87710 0.26550 -0.28200
O 	O 	0.96080 0.22430 0.23900 -0.36900
O 	O 	0.59700 0.46280 0.01730 -0.45000
O 	O 	0.97010 0.67490 0.27770 -0.34600
O 	O 	0.87000 0.05640 0.25230 -0.39600
O 	O 	0.89150 0.83020 0.32290 -0.32800
O 	O 	0.80210 0.24030 0.22100 -0.19300
Mo	Mo	0.71669 0.85944 0.56789 1.08900
Mo	Mo	0.71503 0.15184 0.53735 1.07800
Mo	Mo	0.61796 0.73327 0.46706 1.08100
Mo	Mo	0.48003 0.85377 0.30528 1.08300
Mo	Mo	0.47662 0.07003 0.28692 1.06000
Mo	Mo	0.61060 0.24397 0.42189 1.08400
Mn	Mn	0.12426 0.00396 0.63494 1.28600
P 	P 	0.67288 0.97500 0.38644 0.53900
P 	P 	0.56128 0.29841 0.23783 0.50600
P 	P 	0.88874 0.99375 0.55875 0.58900
P 	P 	0.62340 0.66264 0.29022 0.52600
O 	O 	0.73880 0.75520 0.49220 -0.48000
O 	O 	0.59350 0.86520 0.52500 -0.61500
O 	O 	0.59140 0.13890 0.50110 -0.62900
O 	O 	0.61590 0.86830 0.37770 -0.41200
O 	O 	0.97700 0.00420 0.61740 -0.33100
O 	O 	0.61450 0.07700 0.35800 -0.44100
O 	O 	0.71120 0.99040 0.47310 -0.43300
O 	O 	0.46430 0.97600 0.37420 -0.59900
O 	O 	0.74010 0.95930 0.34200 -0.34200
O 	O 	0.49260 0.74650 0.40120 -0.47400
O 	O 	0.70450 0.02020 0.61440 -0.48600
O 	O 	0.84130 0.90110 0.59130 -0.39100
O 	O 	0.73290 0.22530 0.44740 -0.49800
O 	O 	0.84290 0.10740 0.56190 -0.40700
O 	O 	0.51860 0.94960 0.23310 -0.44900
O 	O 	0.48630 0.20760 0.36270 -0.47800
O 	O 	0.62240 0.30310 0.31790 -0.36000
O 	O 	0.63600 0.63800 0.37650 -0.38100
O 	O 	0.48570 0.37710 0.23450 -0.26600
O 	O 	0.53920 0.72430 0.26100 -0.38700
O 	O 	0.90300 0.96280 0.48270 -0.40400
O 	O 	0.52990 0.17490 0.22230 -0.37500
O 	O 	0.63000 0.55640 0.24770 -0.38200
O 	O 	0.60850 0.33020 0.17710 -0.34000
O 	O 	0.69790 0.74030 0.27900 -0.18800
Mn	Mn	0.00000 0.50000 -0.00000 1.28700
Mn	Mn	0.50000 -0.00000 0.50000 1.30200
