data_crystal

_cell_length_a 4.32760
_cell_length_b 17.31810
_cell_length_c 6.76240
_cell_angle_alpha 90.00000
_cell_angle_beta  90.00000
_cell_angle_gamma 90.00000

_symmetry_space_group_name_	'P 1'
_symmetry_space_group_name_H-M	'P 1'

loop_
_symmetry_equiv_pos_as_xyz
  x,y,z

loop_
_atom_site_label
_atom_site_type_symbol
_atom_site_fract_x
_atom_site_fract_y
_atom_site_fract_z
_atom_site_charge
P 	P 	0.47400 0.16030 0.99100 0.40500
O 	O 	0.32700 0.18640 0.18600 -0.41800
O 	O 	0.77400 0.21470 0.96200 -0.44300
O 	O 	0.28600 0.16270 0.80700 -0.40000
Cu	Cu	0.00700 0.25670 0.22530 0.89800
C 	C 	0.63600 0.06290 0.04100 -0.06200
P 	P 	0.52600 0.83970 0.99100 0.40600
O 	O 	0.67300 0.81360 0.18600 -0.41700
O 	O 	0.22600 0.78530 0.96200 -0.44300
O 	O 	0.71400 0.83730 0.80700 -0.39900
Cu	Cu	0.99300 0.74330 0.22530 0.89800
C 	C 	0.36400 0.93710 0.04100 -0.05800
P 	P 	0.47400 0.33970 0.49100 0.40900
O 	O 	0.32700 0.31360 0.68600 -0.41900
O 	O 	0.77400 0.28530 0.46200 -0.44200
O 	O 	0.28600 0.33730 0.30700 -0.40000
Cu	Cu	0.00700 0.24330 0.72530 0.89800
C 	C 	0.63600 0.43710 0.54100 -0.06400
P 	P 	0.52600 0.66030 0.49100 0.40900
O 	O 	0.67300 0.68640 0.68600 -0.41900
O 	O 	0.22600 0.71470 0.46200 -0.44200
O 	O 	0.71400 0.66270 0.30700 -0.40000
Cu	Cu	0.99300 0.75670 0.72530 0.89800
C 	C 	0.36400 0.56290 0.54100 -0.06400
C 	C 	0.50000 -0.00000 0.92300 0.03100
C 	C 	0.50000 0.50000 0.42300 0.03800
