data_crystal

_cell_length_a 9.14700
_cell_length_b 9.21900
_cell_length_c 14.60400
_cell_angle_alpha 97.97300
_cell_angle_beta  104.95600
_cell_angle_gamma 104.56500

_symmetry_space_group_name_	'P 1'
_symmetry_space_group_name_H-M	'P 1'

loop_
_symmetry_equiv_pos_as_xyz
  x,y,z

loop_
_atom_site_label
_atom_site_type_symbol
_atom_site_fract_x
_atom_site_fract_y
_atom_site_fract_z
_atom_site_charge
Cd	Cd	0.59716 0.07904 0.18877 1.21000
Cd	Cd	0.33834 0.24758 0.59602 1.21500
H 	H 	0.92530 0.15960 0.50660 0.03300
H 	H 	0.75660 0.17030 0.60600 0.02100
H 	H 	0.17610 0.20500 0.77500 -0.00500
H 	H 	0.10590 0.28840 0.90890 0.06700
H 	H 	0.99560 0.25130 0.03850 0.01800
H 	H 	0.56630 0.09100 0.85570 0.01500
H 	H 	0.65430 0.10710 0.72580 0.10400
H 	H 	0.18020 0.16830 0.36320 0.02800
H 	H 	0.01540 0.29080 0.26200 0.03300
H 	H 	0.19540 0.55210 0.52440 -0.01300
H 	H 	0.03400 0.69550 0.48600 0.03300
H 	H 	0.90270 0.87010 0.42770 0.05900
H 	H 	0.79220 0.64090 0.15780 0.04400
H 	H 	0.93350 0.47480 0.20670 0.07200
H 	H 	0.26160 0.13810 0.22650 0.05100
H 	H 	0.99650 0.01420 0.12390 0.00400
H 	H 	0.27290 0.78350 0.05700 -0.02200
H 	H 	0.78010 0.79230 0.03420 0.11900
H 	H 	0.57990 0.62190 0.90630 0.01200
H 	H 	0.87970 0.49980 0.78390 0.02500
H 	H 	0.08920 0.68360 0.90270 0.07100
H 	H 	0.70170 0.18980 0.42030 0.02400
H 	H 	0.65430 0.39020 0.52080 0.03400
H 	H 	0.52970 0.43890 0.24730 -0.01900
H 	H 	0.64840 0.63410 0.56750 0.12300
H 	H 	0.54930 0.82060 0.62060 0.00400
H 	H 	0.35720 0.84490 0.34300 0.00200
H 	H 	0.43210 0.62410 0.29380 0.10900
C 	C 	0.95510 0.17180 0.57370 -0.01200
C 	C 	0.86320 0.17570 0.62770 0.02500
C 	C 	0.09390 0.19600 0.71950 0.09600
C 	C 	0.88820 0.18810 0.80330 0.14200
C 	C 	0.99790 0.24420 0.89770 -0.12600
C 	C 	0.92800 0.22690 0.97530 0.07700
C 	C 	0.77780 0.18000 0.96190 -0.13700
C 	C 	0.67460 0.13000 0.86550 0.09000
C 	C 	0.72550 0.13640 0.78820 -0.18500
C 	C 	0.70760 0.15690 0.04420 0.33400
C 	C 	0.16400 0.26180 0.38300 -0.01100
C 	C 	0.07320 0.32880 0.32730 -0.00400
C 	C 	0.17290 0.47240 0.47140 0.10200
C 	C 	0.00240 0.57050 0.35300 0.04800
C 	C 	0.98950 0.68550 0.41970 -0.02200
C 	C 	0.90670 0.78820 0.38430 -0.01600
C 	C 	0.83390 0.76760 0.28830 -0.05800
C 	C 	0.84340 0.65260 0.22350 0.00400
C 	C 	0.92690 0.55220 0.25220 -0.07900
C 	C 	0.74230 0.87530 0.25480 0.28200
C 	C 	0.23070 0.05210 0.17640 -0.10600
C 	C 	0.08530 0.98420 0.12120 0.09600
C 	C 	0.23820 0.86080 0.08400 0.12400
C 	C 	0.95730 0.75590 0.98250 0.18000
C 	C 	0.80270 0.73830 0.98360 -0.19500
C 	C 	0.68400 0.63620 0.90570 0.10700
C 	C 	0.70700 0.55490 0.82820 -0.14900
C 	C 	0.86000 0.56410 0.83120 0.07700
C 	C 	0.98600 0.67000 0.90480 -0.13600
C 	C 	0.57710 0.44500 0.74840 0.34200
C 	C 	0.66110 0.26630 0.39900 -0.00400
C 	C 	0.63880 0.37740 0.45430 -0.00100
C 	C 	0.56880 0.40430 0.30280 0.10900
C 	C 	0.53600 0.60550 0.42280 0.19600
C 	C 	0.58210 0.67090 0.52310 -0.22700
C 	C 	0.53000 0.78670 0.55430 0.12900
C 	C 	0.44490 0.85820 0.48810 -0.18000
C 	C 	0.40980 0.79980 0.38890 0.11300
C 	C 	0.45790 0.66670 0.35960 -0.21900
C 	C 	0.40120 0.98950 0.52260 0.38500
N 	N 	0.11100 0.18960 0.63590 -0.24600
N 	N 	0.94780 0.18880 0.72040 -0.14000
N 	N 	0.22940 0.35370 0.47410 -0.23400
N 	N 	0.08050 0.46280 0.38350 -0.13500
N 	N 	0.33170 0.97880 0.15010 -0.21400
N 	N 	0.08750 0.86000 0.05820 -0.17800
N 	N 	0.61480 0.28050 0.30380 -0.23700
N 	N 	0.58690 0.47450 0.39500 -0.15200
O 	O 	0.80590 0.16900 0.12710 -0.39000
O 	O 	0.56770 0.13110 0.03240 -0.40800
O 	O 	0.75990 0.99740 0.31200 -0.35500
O 	O 	0.65290 0.83830 0.16640 -0.35800
O 	O 	0.59820 0.40770 0.66960 -0.40500
O 	O 	0.44700 0.38480 0.76380 -0.37500
O 	O 	0.39260 0.01520 0.61240 -0.40800
O 	O 	0.35840 0.07150 0.46800 -0.42700
