data_crystal

_cell_length_a 24.50200
_cell_length_b 24.50200
_cell_length_c 18.45000
_cell_angle_alpha 90.00000
_cell_angle_beta  90.00000
_cell_angle_gamma 120.00000

_symmetry_space_group_name_	'P 1'
_symmetry_space_group_name_H-M	'P 1'

loop_
_symmetry_equiv_pos_as_xyz
  x,y,z

loop_
_atom_site_label
_atom_site_type_symbol
_atom_site_fract_x
_atom_site_fract_y
_atom_site_fract_z
_atom_site_charge
Co	Co	0.62950 0.70736 0.49767 1.14500
S 	S 	0.58194 0.76658 0.82387 0.01600
S 	S 	0.57659 0.84894 0.69967 0.04800
O 	O 	0.58251 0.74101 0.56072 -0.45800
O 	O 	0.62565 0.75634 0.67224 -0.45700
N 	N 	0.59028 0.87425 0.83966 -0.19200
C 	C 	0.58754 0.75559 0.62720 0.46500
N 	N 	0.59709 0.85570 0.90786 -0.18100
C 	C 	0.58238 0.83270 0.78980 0.04400
C 	C 	0.59250 0.80020 0.90800 0.02100
H 	H 	0.59480 0.78060 0.95020 0.05100
C 	C 	0.54000 0.77330 0.65500 -0.37700
H 	H 	0.51160 0.74120 0.68870 0.14700
H 	H 	0.51510 0.77400 0.61450 0.15700
N 	N 	0.67920 0.59120 0.56310 -0.04500
N 	N 	0.68830 0.63880 0.43420 -0.03700
N 	N 	0.71850 0.61600 0.44850 -0.05900
Co	Co	0.29617 0.04069 0.83100 1.14900
S 	S 	0.24861 0.09991 0.15720 0.02300
S 	S 	0.24326 0.18227 0.03300 0.05300
O 	O 	0.24918 0.07434 0.89405 -0.45400
O 	O 	0.29232 0.08967 0.00557 -0.45500
N 	N 	0.25695 0.20758 0.17299 -0.19000
C 	C 	0.25421 0.08892 0.96053 0.47000
N 	N 	0.26376 0.18903 0.24119 -0.17900
C 	C 	0.24905 0.16603 0.12313 0.04300
C 	C 	0.25917 0.13353 0.24133 0.02100
H 	H 	0.26147 0.11393 0.28353 0.05200
C 	C 	0.20667 0.10663 0.98833 -0.38100
H 	H 	0.17827 0.07453 0.02203 0.15300
H 	H 	0.18177 0.10733 0.94783 0.16100
N 	N 	0.34587 0.92453 0.89643 -0.04600
N 	N 	0.35497 0.97213 0.76753 -0.04700
N 	N 	0.38517 0.94933 0.78183 -0.06100
Co	Co	0.96283 0.37403 0.16434 1.14000
S 	S 	0.91527 0.43325 0.49054 0.01200
S 	S 	0.90992 0.51561 0.36634 0.04700
O 	O 	0.91584 0.40768 0.22739 -0.46000
O 	O 	0.95898 0.42301 0.33891 -0.46300
N 	N 	0.92361 0.54092 0.50633 -0.19200
C 	C 	0.92087 0.42226 0.29387 0.46700
N 	N 	0.93042 0.52237 0.57453 -0.18100
C 	C 	0.91571 0.49937 0.45647 0.04300
C 	C 	0.92583 0.46687 0.57467 0.01900
H 	H 	0.92813 0.44727 0.61687 0.04900
C 	C 	0.87333 0.43997 0.32167 -0.37800
H 	H 	0.84493 0.40787 0.35537 0.14800
H 	H 	0.84843 0.44067 0.28117 0.15700
N 	N 	0.01253 0.25787 0.22977 -0.03100
N 	N 	0.02163 0.30547 0.10087 -0.02900
N 	N 	0.05183 0.28267 0.11517 -0.05800
Co	Co	0.29264 0.92214 0.49767 1.14400
S 	S 	0.23342 0.81536 0.82387 0.01600
S 	S 	0.15106 0.72765 0.69967 0.05200
O 	O 	0.25899 0.84150 0.56072 -0.45700
O 	O 	0.24366 0.86931 0.67224 -0.45600
N 	N 	0.12575 0.71603 0.83966 -0.19000
C 	C 	0.24441 0.83195 0.62720 0.46700
N 	N 	0.14430 0.74139 0.90786 -0.18000
C 	C 	0.16730 0.74968 0.78980 0.04400
C 	C 	0.19980 0.79230 0.90800 0.02100
H 	H 	0.21940 0.81420 0.95020 0.05000
C 	C 	0.22670 0.76670 0.65500 -0.37800
H 	H 	0.25880 0.77040 0.68870 0.14800
H 	H 	0.22600 0.74110 0.61450 0.15700
N 	N 	0.40880 0.08800 0.56310 -0.04500
N 	N 	0.36120 0.04950 0.43420 -0.03100
N 	N 	0.38400 0.10250 0.44850 -0.06000
Co	Co	0.95931 0.25547 0.83100 1.14100
S 	S 	0.90009 0.14869 0.15720 0.01000
S 	S 	0.81773 0.06098 0.03300 0.05500
O 	O 	0.92566 0.17483 0.89405 -0.46000
O 	O 	0.91033 0.20264 0.00557 -0.46000
N 	N 	0.79242 0.04936 0.17299 -0.18700
C 	C 	0.91108 0.16528 0.96053 0.46700
N 	N 	0.81097 0.07472 0.24119 -0.17900
C 	C 	0.83397 0.08301 0.12313 0.04600
C 	C 	0.86647 0.12563 0.24133 0.02200
H 	H 	0.88607 0.14753 0.28353 0.05000
C 	C 	0.89337 0.10003 0.98833 -0.37100
H 	H 	0.92547 0.10373 0.02203 0.14200
H 	H 	0.89267 0.07443 0.94783 0.15700
N 	N 	0.07547 0.42133 0.89643 -0.04400
N 	N 	0.02787 0.38283 0.76753 -0.03300
N 	N 	0.05067 0.43583 0.78183 -0.05700
Co	Co	0.62597 0.58881 0.16434 1.14600
S 	S 	0.56675 0.48203 0.49054 0.01600
S 	S 	0.48439 0.39432 0.36634 0.05200
O 	O 	0.59232 0.50817 0.22739 -0.45700
O 	O 	0.57699 0.53598 0.33891 -0.45600
N 	N 	0.45908 0.38270 0.50633 -0.19000
C 	C 	0.57774 0.49862 0.29387 0.46700
N 	N 	0.47763 0.40806 0.57453 -0.18000
C 	C 	0.50063 0.41635 0.45647 0.04400
C 	C 	0.53313 0.45897 0.57467 0.02100
H 	H 	0.55273 0.48087 0.61687 0.05100
C 	C 	0.56003 0.43337 0.32167 -0.37800
H 	H 	0.59213 0.43707 0.35537 0.14800
H 	H 	0.55933 0.40777 0.28117 0.15700
N 	N 	0.74213 0.75467 0.22977 -0.04500
N 	N 	0.69453 0.71617 0.10087 -0.03700
N 	N 	0.71733 0.76917 0.11517 -0.05900
Co	Co	0.07786 0.37050 0.49767 1.14700
S 	S 	0.18464 0.41806 0.82387 0.01600
S 	S 	0.27235 0.42341 0.69967 0.05200
O 	O 	0.15850 0.41749 0.56072 -0.45700
O 	O 	0.13069 0.37435 0.67224 -0.45600
N 	N 	0.28397 0.40972 0.83966 -0.19000
C 	C 	0.16805 0.41246 0.62720 0.46600
N 	N 	0.25861 0.40291 0.90786 -0.18000
C 	C 	0.25032 0.41762 0.78980 0.04400
C 	C 	0.20770 0.40750 0.90800 0.02100
H 	H 	0.18580 0.40520 0.95020 0.05100
C 	C 	0.23330 0.46000 0.65500 -0.37800
H 	H 	0.22960 0.48840 0.68870 0.14800
H 	H 	0.25890 0.48490 0.61450 0.15700
N 	N 	0.91200 0.32080 0.56310 -0.04500
N 	N 	0.95050 0.31170 0.43420 -0.04300
N 	N 	0.89750 0.28150 0.44850 -0.05900
Co	Co	0.74453 0.70383 0.83100 1.14500
S 	S 	0.85131 0.75139 0.15720 0.01400
S 	S 	0.93902 0.75674 0.03300 0.04100
O 	O 	0.82517 0.75082 0.89405 -0.45700
O 	O 	0.79736 0.70768 0.00557 -0.45500
N 	N 	0.95064 0.74305 0.17299 -0.19500
C 	C 	0.83472 0.74579 0.96053 0.46500
N 	N 	0.92528 0.73624 0.24119 -0.18200
C 	C 	0.91699 0.75095 0.12313 0.04400
C 	C 	0.87437 0.74083 0.24133 0.02000
H 	H 	0.85247 0.73853 0.28353 0.05100
C 	C 	0.89997 0.79333 0.98833 -0.37100
H 	H 	0.89627 0.82173 0.02203 0.14300
H 	H 	0.92557 0.81823 0.94783 0.15200
N 	N 	0.57867 0.65413 0.89643 -0.04500
N 	N 	0.61717 0.64503 0.76753 -0.03700
N 	N 	0.56417 0.61483 0.78183 -0.05900
Co	Co	0.41119 0.03717 0.16434 1.14900
S 	S 	0.51797 0.08473 0.49054 0.02100
S 	S 	0.60568 0.09008 0.36634 0.05600
O 	O 	0.49183 0.08416 0.22739 -0.45500
O 	O 	0.46402 0.04102 0.33891 -0.44900
N 	N 	0.61730 0.07639 0.50633 -0.18900
C 	C 	0.50138 0.07913 0.29387 0.46600
N 	N 	0.59194 0.06958 0.57453 -0.17800
C 	C 	0.58365 0.08429 0.45647 0.04500
C 	C 	0.54103 0.07417 0.57467 0.02200
H 	H 	0.51913 0.07187 0.61687 0.05300
C 	C 	0.56663 0.12667 0.32167 -0.37800
H 	H 	0.56293 0.15507 0.35537 0.14700
H 	H 	0.59223 0.15157 0.28117 0.15700
N 	N 	0.24533 0.98747 0.22977 -0.06000
N 	N 	0.28383 0.97837 0.10087 -0.04300
N 	N 	0.23083 0.94817 0.11517 -0.06000
Co	Co	0.70736 0.62950 0.00233 1.14600
S 	S 	0.76658 0.58194 0.67613 0.01700
S 	S 	0.84894 0.57659 0.80033 0.05000
O 	O 	0.74101 0.58251 0.93928 -0.45700
O 	O 	0.75634 0.62565 0.82776 -0.45500
N 	N 	0.87425 0.59028 0.66034 -0.19100
C 	C 	0.75559 0.58754 0.87280 0.46600
N 	N 	0.85570 0.59709 0.59214 -0.18000
C 	C 	0.83270 0.58238 0.71020 0.04400
C 	C 	0.80020 0.59250 0.59200 0.02100
H 	H 	0.78060 0.59480 0.54980 0.05100
C 	C 	0.77330 0.54000 0.84500 -0.37700
H 	H 	0.74120 0.51160 0.81130 0.14800
H 	H 	0.77400 0.51510 0.88550 0.15700
N 	N 	0.59120 0.67920 0.93690 -0.04500
N 	N 	0.63880 0.68830 0.06580 -0.03700
N 	N 	0.61600 0.71850 0.05150 -0.05900
Co	Co	0.37403 0.96283 0.33566 1.14100
S 	S 	0.43325 0.91527 0.00946 0.01400
S 	S 	0.51561 0.90992 0.13366 0.04700
O 	O 	0.40768 0.91584 0.27261 -0.46000
O 	O 	0.42301 0.95898 0.16109 -0.46200
N 	N 	0.54092 0.92361 0.99367 -0.19300
C 	C 	0.42226 0.92087 0.20613 0.46700
N 	N 	0.52237 0.93042 0.92547 -0.18100
C 	C 	0.49937 0.91571 0.04353 0.04400
C 	C 	0.46687 0.92583 0.92533 0.01700
H 	H 	0.44727 0.92813 0.88313 0.05000
C 	C 	0.43997 0.87333 0.17833 -0.37800
H 	H 	0.40787 0.84493 0.14463 0.14800
H 	H 	0.44067 0.84843 0.21883 0.15700
N 	N 	0.25787 0.01253 0.27023 -0.03300
N 	N 	0.30547 0.02163 0.39913 -0.03000
N 	N 	0.28267 0.05183 0.38483 -0.05800
Co	Co	0.04069 0.29617 0.66900 1.14800
S 	S 	0.09991 0.24861 0.34280 0.02400
S 	S 	0.18227 0.24326 0.46700 0.05400
O 	O 	0.07434 0.24918 0.60595 -0.45400
O 	O 	0.08967 0.29232 0.49443 -0.45400
N 	N 	0.20758 0.25695 0.32701 -0.19000
C 	C 	0.08892 0.25421 0.53947 0.46900
N 	N 	0.18903 0.26376 0.25881 -0.17900
C 	C 	0.16603 0.24905 0.37687 0.04300
C 	C 	0.13353 0.25917 0.25867 0.02000
H 	H 	0.11393 0.26147 0.21647 0.05200
C 	C 	0.10663 0.20667 0.51167 -0.38200
H 	H 	0.07453 0.17827 0.47797 0.15300
H 	H 	0.10733 0.18177 0.55217 0.16100
N 	N 	0.92453 0.34587 0.60357 -0.04500
N 	N 	0.97213 0.35497 0.73247 -0.04500
N 	N 	0.94933 0.38517 0.71817 -0.06100
Co	Co	0.92214 0.29264 0.00233 1.14400
S 	S 	0.81536 0.23342 0.67613 0.01600
S 	S 	0.72765 0.15106 0.80033 0.05200
O 	O 	0.84150 0.25899 0.93928 -0.45600
O 	O 	0.86931 0.24366 0.82776 -0.45600
N 	N 	0.71603 0.12575 0.66034 -0.19000
C 	C 	0.83195 0.24441 0.87280 0.46700
N 	N 	0.74139 0.14430 0.59214 -0.18000
C 	C 	0.74968 0.16730 0.71020 0.04400
C 	C 	0.79230 0.19980 0.59200 0.02100
H 	H 	0.81420 0.21940 0.54980 0.05100
C 	C 	0.76670 0.22670 0.84500 -0.37800
H 	H 	0.77040 0.25880 0.81130 0.14800
H 	H 	0.74110 0.22600 0.88550 0.15800
N 	N 	0.08800 0.40880 0.93690 -0.04500
N 	N 	0.04950 0.36120 0.06580 -0.03000
N 	N 	0.10250 0.38400 0.05150 -0.05900
Co	Co	0.58881 0.62597 0.33566 1.14600
S 	S 	0.48203 0.56675 0.00946 0.01700
S 	S 	0.39432 0.48439 0.13366 0.05200
O 	O 	0.50817 0.59232 0.27261 -0.45700
O 	O 	0.53598 0.57699 0.16109 -0.45600
N 	N 	0.38270 0.45908 0.99367 -0.19000
C 	C 	0.49862 0.57774 0.20613 0.46700
N 	N 	0.40806 0.47763 0.92547 -0.18000
C 	C 	0.41635 0.50063 0.04353 0.04400
C 	C 	0.45897 0.53313 0.92533 0.02000
H 	H 	0.48087 0.55273 0.88313 0.05100
C 	C 	0.43337 0.56003 0.17833 -0.37800
H 	H 	0.43707 0.59213 0.14463 0.14800
H 	H 	0.40777 0.55933 0.21883 0.15700
N 	N 	0.75467 0.74213 0.27023 -0.04500
N 	N 	0.71617 0.69453 0.39913 -0.03700
N 	N 	0.76917 0.71733 0.38483 -0.05900
Co	Co	0.25547 0.95931 0.66900 1.14100
S 	S 	0.14869 0.90009 0.34280 0.01100
S 	S 	0.06098 0.81773 0.46700 0.06000
O 	O 	0.17483 0.92566 0.60595 -0.46000
O 	O 	0.20264 0.91033 0.49443 -0.45800
N 	N 	0.04936 0.79242 0.32701 -0.18700
C 	C 	0.16528 0.91108 0.53947 0.46600
N 	N 	0.07472 0.81097 0.25881 -0.17800
C 	C 	0.08301 0.83397 0.37687 0.04500
C 	C 	0.12563 0.86647 0.25867 0.02200
H 	H 	0.14753 0.88607 0.21647 0.05000
C 	C 	0.10003 0.89337 0.51167 -0.38000
H 	H 	0.10373 0.92547 0.47797 0.14700
H 	H 	0.07443 0.89267 0.55217 0.15900
N 	N 	0.42133 0.07547 0.60357 -0.04400
N 	N 	0.38283 0.02787 0.73247 -0.03200
N 	N 	0.43583 0.05067 0.71817 -0.05600
Co	Co	0.37050 0.07786 0.00233 1.14600
S 	S 	0.41806 0.18464 0.67613 0.01700
S 	S 	0.42341 0.27235 0.80033 0.05200
O 	O 	0.41749 0.15850 0.93928 -0.45700
O 	O 	0.37435 0.13069 0.82776 -0.45500
N 	N 	0.40972 0.28397 0.66034 -0.19000
C 	C 	0.41246 0.16805 0.87280 0.46600
N 	N 	0.40291 0.25861 0.59214 -0.18000
C 	C 	0.41762 0.25032 0.71020 0.04400
C 	C 	0.40750 0.20770 0.59200 0.02100
H 	H 	0.40520 0.18580 0.54980 0.05100
C 	C 	0.46000 0.23330 0.84500 -0.37800
H 	H 	0.48840 0.22960 0.81130 0.14800
H 	H 	0.48490 0.25890 0.88550 0.15700
N 	N 	0.32080 0.91200 0.93690 -0.04500
N 	N 	0.31170 0.95050 0.06580 -0.04200
N 	N 	0.28150 0.89750 0.05150 -0.05800
Co	Co	0.03717 0.41119 0.33566 1.14900
S 	S 	0.08473 0.51797 0.00946 0.02300
S 	S 	0.09008 0.60568 0.13366 0.05700
O 	O 	0.08416 0.49183 0.27261 -0.45500
O 	O 	0.04102 0.46402 0.16109 -0.44800
N 	N 	0.07639 0.61730 0.99367 -0.19000
C 	C 	0.07913 0.50138 0.20613 0.46600
N 	N 	0.06958 0.59194 0.92547 -0.17800
C 	C 	0.08429 0.58365 0.04353 0.04600
C 	C 	0.07417 0.54103 0.92533 0.02000
H 	H 	0.07187 0.51913 0.88313 0.05300
C 	C 	0.12667 0.56663 0.17833 -0.37800
H 	H 	0.15507 0.56293 0.14463 0.14700
H 	H 	0.15157 0.59223 0.21883 0.15700
N 	N 	0.98747 0.24533 0.27023 -0.06200
N 	N 	0.97837 0.28383 0.39913 -0.04500
N 	N 	0.94817 0.23083 0.38483 -0.06000
Co	Co	0.70383 0.74453 0.66900 1.14500
S 	S 	0.75139 0.85131 0.34280 0.01400
S 	S 	0.75674 0.93902 0.46700 0.04200
O 	O 	0.75082 0.82517 0.60595 -0.45800
O 	O 	0.70768 0.79736 0.49443 -0.45500
N 	N 	0.74305 0.95064 0.32701 -0.19500
C 	C 	0.74579 0.83472 0.53947 0.46500
N 	N 	0.73624 0.92528 0.25881 -0.18200
C 	C 	0.75095 0.91699 0.37687 0.04400
C 	C 	0.74083 0.87437 0.25867 0.02000
H 	H 	0.73853 0.85247 0.21647 0.05100
C 	C 	0.79333 0.89997 0.51167 -0.37300
H 	H 	0.82173 0.89627 0.47797 0.14300
H 	H 	0.81823 0.92557 0.55217 0.15200
N 	N 	0.65413 0.57867 0.60357 -0.04500
N 	N 	0.64503 0.61717 0.73247 -0.03700
N 	N 	0.61483 0.56417 0.71817 -0.05900
Co	Co	0.37050 0.29264 0.50233 1.14600
S 	S 	0.41806 0.23342 0.17613 0.01600
S 	S 	0.42341 0.15106 0.30033 0.05200
O 	O 	0.41749 0.25899 0.43928 -0.45700
O 	O 	0.37435 0.24366 0.32776 -0.45600
N 	N 	0.40972 0.12575 0.16034 -0.19000
C 	C 	0.41246 0.24441 0.37280 0.46700
N 	N 	0.40291 0.14430 0.09214 -0.18000
C 	C 	0.41762 0.16730 0.21020 0.04400
C 	C 	0.40750 0.19980 0.09200 0.02100
H 	H 	0.40520 0.21940 0.04980 0.05100
C 	C 	0.46000 0.22670 0.34500 -0.37800
H 	H 	0.48840 0.25880 0.31130 0.14800
H 	H 	0.48490 0.22600 0.38550 0.15700
N 	N 	0.32080 0.40880 0.43690 -0.04500
N 	N 	0.31170 0.36120 0.56580 -0.03700
N 	N 	0.28150 0.38400 0.55150 -0.05900
Co	Co	0.03717 0.62597 0.83566 1.14900
S 	S 	0.08473 0.56675 0.50946 0.02100
S 	S 	0.09008 0.48439 0.63366 0.05600
O 	O 	0.08416 0.59232 0.77261 -0.45500
O 	O 	0.04102 0.57699 0.66109 -0.44900
N 	N 	0.07639 0.45908 0.49367 -0.18900
C 	C 	0.07913 0.57774 0.70613 0.46600
N 	N 	0.06958 0.47763 0.42547 -0.17800
C 	C 	0.08429 0.50063 0.54353 0.04500
C 	C 	0.07417 0.53313 0.42533 0.02200
H 	H 	0.07187 0.55273 0.38313 0.05300
C 	C 	0.12667 0.56003 0.67833 -0.37800
H 	H 	0.15507 0.59213 0.64463 0.14700
H 	H 	0.15157 0.55933 0.71883 0.15700
N 	N 	0.98747 0.74213 0.77023 -0.06000
N 	N 	0.97837 0.69453 0.89913 -0.04300
N 	N 	0.94817 0.71733 0.88483 -0.06000
Co	Co	0.70383 0.95931 0.16900 1.14100
S 	S 	0.75139 0.90009 0.84280 0.00800
S 	S 	0.75674 0.81773 0.96700 0.05000
O 	O 	0.75082 0.92566 0.10595 -0.46000
O 	O 	0.70768 0.91033 0.99443 -0.45800
N 	N 	0.74305 0.79242 0.82701 -0.19100
C 	C 	0.74579 0.91108 0.03947 0.46500
N 	N 	0.73624 0.81097 0.75881 -0.18000
C 	C 	0.75095 0.83397 0.87687 0.04500
C 	C 	0.74083 0.86647 0.75867 0.02100
H 	H 	0.73853 0.88607 0.71647 0.05000
C 	C 	0.79333 0.89337 0.01167 -0.37400
H 	H 	0.82173 0.92547 0.97797 0.14200
H 	H 	0.81823 0.89267 0.05217 0.15300
N 	N 	0.65413 0.07547 0.10357 -0.04400
N 	N 	0.64503 0.02787 0.23247 -0.03300
N 	N 	0.61483 0.05067 0.21817 -0.05700
Co	Co	0.70736 0.07786 0.50233 1.14700
S 	S 	0.76658 0.18464 0.17613 0.01600
S 	S 	0.84894 0.27235 0.30033 0.04900
O 	O 	0.74101 0.15850 0.43928 -0.45700
O 	O 	0.75634 0.13069 0.32776 -0.45500
N 	N 	0.87425 0.28397 0.16034 -0.19100
C 	C 	0.75559 0.16805 0.37280 0.46600
N 	N 	0.85570 0.25861 0.09214 -0.18000
C 	C 	0.83270 0.25032 0.21020 0.04400
C 	C 	0.80020 0.20770 0.09200 0.02100
H 	H 	0.78060 0.18580 0.04980 0.05100
C 	C 	0.77330 0.23330 0.34500 -0.37700
H 	H 	0.74120 0.22960 0.31130 0.14700
H 	H 	0.77400 0.25890 0.38550 0.15700
N 	N 	0.59120 0.91200 0.43690 -0.04400
N 	N 	0.63880 0.95050 0.56580 -0.04300
N 	N 	0.61600 0.89750 0.55150 -0.05900
Co	Co	0.37403 0.41119 0.83566 1.14600
S 	S 	0.43325 0.51797 0.50946 0.01600
S 	S 	0.51561 0.60568 0.63366 0.05200
O 	O 	0.40768 0.49183 0.77261 -0.45700
O 	O 	0.42301 0.46402 0.66109 -0.45600
N 	N 	0.54092 0.61730 0.49367 -0.19000
C 	C 	0.42226 0.50138 0.70613 0.46700
N 	N 	0.52237 0.59194 0.42547 -0.18000
C 	C 	0.49937 0.58365 0.54353 0.04400
C 	C 	0.46687 0.54103 0.42533 0.02100
H 	H 	0.44727 0.51913 0.38313 0.05100
C 	C 	0.43997 0.56663 0.67833 -0.37800
H 	H 	0.40787 0.56293 0.64463 0.14800
H 	H 	0.44067 0.59223 0.71883 0.15700
N 	N 	0.25787 0.24533 0.77023 -0.04400
N 	N 	0.30547 0.28383 0.89913 -0.03700
N 	N 	0.28267 0.23083 0.88483 -0.05900
Co	Co	0.04069 0.74453 0.16900 1.14900
S 	S 	0.09991 0.85131 0.84280 0.02100
S 	S 	0.18227 0.93902 0.96700 0.03900
O 	O 	0.07434 0.82517 0.10595 -0.45400
O 	O 	0.08967 0.79736 0.99443 -0.45500
N 	N 	0.20758 0.95064 0.82701 -0.19500
C 	C 	0.08892 0.83472 0.03947 0.46800
N 	N 	0.18903 0.92528 0.75881 -0.18200
C 	C 	0.16603 0.91699 0.87687 0.04400
C 	C 	0.13353 0.87437 0.75867 0.02000
H 	H 	0.11393 0.85247 0.71647 0.05200
C 	C 	0.10663 0.89997 0.01167 -0.36700
H 	H 	0.07453 0.89627 0.97797 0.14400
H 	H 	0.10733 0.92557 0.05217 0.15400
N 	N 	0.92453 0.57867 0.10357 -0.04600
N 	N 	0.97213 0.61717 0.23247 -0.04700
N 	N 	0.94933 0.56417 0.21817 -0.06100
Co	Co	0.92214 0.62950 0.50233 1.14400
S 	S 	0.81536 0.58194 0.17613 0.01600
S 	S 	0.72765 0.57659 0.30033 0.05200
O 	O 	0.84150 0.58251 0.43928 -0.45700
O 	O 	0.86931 0.62565 0.32776 -0.45600
N 	N 	0.71603 0.59028 0.16034 -0.19000
C 	C 	0.83195 0.58754 0.37280 0.46700
N 	N 	0.74139 0.59709 0.09214 -0.18000
C 	C 	0.74968 0.58238 0.21020 0.04400
C 	C 	0.79230 0.59250 0.09200 0.02100
H 	H 	0.81420 0.59480 0.04980 0.05100
C 	C 	0.76670 0.54000 0.34500 -0.37800
H 	H 	0.77040 0.51160 0.31130 0.14800
H 	H 	0.74110 0.51510 0.38550 0.15700
N 	N 	0.08800 0.67920 0.43690 -0.04500
N 	N 	0.04950 0.68830 0.56580 -0.03100
N 	N 	0.10250 0.71850 0.55150 -0.06000
Co	Co	0.58881 0.96283 0.83566 1.14000
S 	S 	0.48203 0.91527 0.50946 0.01200
S 	S 	0.39432 0.90992 0.63366 0.04700
O 	O 	0.50817 0.91584 0.77261 -0.46000
O 	O 	0.53598 0.95898 0.66109 -0.46300
N 	N 	0.38270 0.92361 0.49367 -0.19200
C 	C 	0.49862 0.92087 0.70613 0.46700
N 	N 	0.40806 0.93042 0.42547 -0.18100
C 	C 	0.41635 0.91571 0.54353 0.04300
C 	C 	0.45897 0.92583 0.42533 0.01900
H 	H 	0.48087 0.92813 0.38313 0.04900
C 	C 	0.43337 0.87333 0.67833 -0.37800
H 	H 	0.43707 0.84493 0.64463 0.14800
H 	H 	0.40777 0.84843 0.71883 0.15700
N 	N 	0.75467 0.01253 0.77023 -0.03200
N 	N 	0.71617 0.02163 0.89913 -0.02900
N 	N 	0.76917 0.05183 0.88483 -0.05800
Co	Co	0.25547 0.29617 0.16900 1.14600
S 	S 	0.14869 0.24861 0.84280 0.01900
S 	S 	0.06098 0.24326 0.96700 0.06000
O 	O 	0.17483 0.24918 0.10595 -0.45700
O 	O 	0.20264 0.29232 0.99443 -0.45600
N 	N 	0.04936 0.25695 0.82701 -0.18700
C 	C 	0.16528 0.25421 0.03947 0.46900
N 	N 	0.07472 0.26376 0.75881 -0.17800
C 	C 	0.08301 0.24905 0.87687 0.04400
C 	C 	0.12563 0.25917 0.75867 0.02200
H 	H 	0.14753 0.26147 0.71647 0.05200
C 	C 	0.10003 0.20667 0.01167 -0.38200
H 	H 	0.10373 0.17827 0.97797 0.15100
H 	H 	0.07443 0.18177 0.05217 0.16200
N 	N 	0.42133 0.34587 0.10357 -0.04500
N 	N 	0.38283 0.35497 0.23247 -0.03700
N 	N 	0.43583 0.38517 0.21817 -0.05900
Co	Co	0.29264 0.37050 0.99767 1.14500
S 	S 	0.23342 0.41806 0.32387 0.01600
S 	S 	0.15106 0.42341 0.19967 0.05200
O 	O 	0.25899 0.41749 0.06072 -0.45700
O 	O 	0.24366 0.37435 0.17224 -0.45600
N 	N 	0.12575 0.40972 0.33966 -0.19000
C 	C 	0.24441 0.41246 0.12720 0.46700
N 	N 	0.14430 0.40291 0.40786 -0.18000
C 	C 	0.16730 0.41762 0.28980 0.04400
C 	C 	0.19980 0.40750 0.40800 0.02100
H 	H 	0.21940 0.40520 0.45020 0.05100
C 	C 	0.22670 0.46000 0.15500 -0.37800
H 	H 	0.25880 0.48840 0.18870 0.14800
H 	H 	0.22600 0.48490 0.11450 0.15700
N 	N 	0.40880 0.32080 0.06310 -0.04500
N 	N 	0.36120 0.31170 0.93420 -0.03700
N 	N 	0.38400 0.28150 0.94850 -0.05900
Co	Co	0.95931 0.70383 0.33100 1.14100
S 	S 	0.90009 0.75139 0.65720 0.00900
S 	S 	0.81773 0.75674 0.53300 0.05000
O 	O 	0.92566 0.75082 0.39405 -0.46100
O 	O 	0.91033 0.70768 0.50557 -0.45700
N 	N 	0.79242 0.74305 0.67299 -0.19100
C 	C 	0.91108 0.74579 0.46053 0.46400
N 	N 	0.81097 0.73624 0.74119 -0.18000
C 	C 	0.83397 0.75095 0.62313 0.04500
C 	C 	0.86647 0.74083 0.74133 0.02100
H 	H 	0.88607 0.73853 0.78353 0.05000
C 	C 	0.89337 0.79333 0.48833 -0.37500
H 	H 	0.92547 0.82173 0.52203 0.14200
H 	H 	0.89267 0.81823 0.44783 0.15300
N 	N 	0.07547 0.65413 0.39643 -0.04400
N 	N 	0.02787 0.64503 0.26753 -0.03200
N 	N 	0.05067 0.61483 0.28183 -0.05600
Co	Co	0.62597 0.03717 0.66434 1.14900
S 	S 	0.56675 0.08473 0.99054 0.02300
S 	S 	0.48439 0.09008 0.86634 0.05600
O 	O 	0.59232 0.08416 0.72739 -0.45500
O 	O 	0.57699 0.04102 0.83891 -0.44800
N 	N 	0.45908 0.07639 0.00633 -0.19000
C 	C 	0.57774 0.07913 0.79387 0.46600
N 	N 	0.47763 0.06958 0.07453 -0.17800
C 	C 	0.50063 0.08429 0.95647 0.04600
C 	C 	0.53313 0.07417 0.07467 0.02000
H 	H 	0.55273 0.07187 0.11687 0.05300
C 	C 	0.56003 0.12667 0.82167 -0.37800
H 	H 	0.59213 0.15507 0.85537 0.14700
H 	H 	0.55933 0.15157 0.78117 0.15700
N 	N 	0.74213 0.98747 0.72977 -0.06200
N 	N 	0.69453 0.97837 0.60087 -0.04400
N 	N 	0.71733 0.94817 0.61517 -0.06000
Co	Co	0.07786 0.70736 0.99767 1.14600
S 	S 	0.18464 0.76658 0.32387 0.01700
S 	S 	0.27235 0.84894 0.19967 0.05000
O 	O 	0.15850 0.74101 0.06072 -0.45600
O 	O 	0.13069 0.75634 0.17224 -0.45500
N 	N 	0.28397 0.87425 0.33966 -0.19100
C 	C 	0.16805 0.75559 0.12720 0.46600
N 	N 	0.25861 0.85570 0.40786 -0.18000
C 	C 	0.25032 0.83270 0.28980 0.04400
C 	C 	0.20770 0.80020 0.40800 0.02100
H 	H 	0.18580 0.78060 0.45020 0.05100
C 	C 	0.23330 0.77330 0.15500 -0.37700
H 	H 	0.22960 0.74120 0.18870 0.14700
H 	H 	0.25890 0.77400 0.11450 0.15700
N 	N 	0.91200 0.59120 0.06310 -0.04500
N 	N 	0.95050 0.63880 0.93420 -0.04200
N 	N 	0.89750 0.61600 0.94850 -0.05900
Co	Co	0.74453 0.04069 0.33100 1.14800
S 	S 	0.85131 0.09991 0.65720 0.02200
S 	S 	0.93902 0.18227 0.53300 0.04400
O 	O 	0.82517 0.07434 0.39405 -0.45400
O 	O 	0.79736 0.08967 0.50557 -0.45300
N 	N 	0.95064 0.20758 0.67299 -0.19400
C 	C 	0.83472 0.08892 0.46053 0.46700
N 	N 	0.92528 0.18903 0.74119 -0.18100
C 	C 	0.91699 0.16603 0.62313 0.04300
C 	C 	0.87437 0.13353 0.74133 0.02000
H 	H 	0.85247 0.11393 0.78353 0.05200
C 	C 	0.89997 0.10663 0.48833 -0.37600
H 	H 	0.89627 0.07453 0.52203 0.14900
H 	H 	0.92557 0.10733 0.44783 0.15600
N 	N 	0.57867 0.92453 0.39643 -0.04500
N 	N 	0.61717 0.97213 0.26753 -0.04500
N 	N 	0.56417 0.94933 0.28183 -0.06100
Co	Co	0.41119 0.37403 0.66434 1.14600
S 	S 	0.51797 0.43325 0.99054 0.01700
S 	S 	0.60568 0.51561 0.86634 0.05200
O 	O 	0.49183 0.40768 0.72739 -0.45700
O 	O 	0.46402 0.42301 0.83891 -0.45600
N 	N 	0.61730 0.54092 0.00633 -0.19000
C 	C 	0.50138 0.42226 0.79387 0.46700
N 	N 	0.59194 0.52237 0.07453 -0.18000
C 	C 	0.58365 0.49937 0.95647 0.04400
C 	C 	0.54103 0.46687 0.07467 0.02000
H 	H 	0.51913 0.44727 0.11687 0.05100
C 	C 	0.56663 0.43997 0.82167 -0.37800
H 	H 	0.56293 0.40787 0.85537 0.14800
H 	H 	0.59223 0.44067 0.78117 0.15700
N 	N 	0.24533 0.25787 0.72977 -0.04400
N 	N 	0.28383 0.30547 0.60087 -0.03700
N 	N 	0.23083 0.28267 0.61517 -0.05900
Co	Co	0.62950 0.92214 0.99767 1.14400
S 	S 	0.58194 0.81536 0.32387 0.01600
S 	S 	0.57659 0.72765 0.19967 0.05200
O 	O 	0.58251 0.84150 0.06072 -0.45700
O 	O 	0.62565 0.86931 0.17224 -0.45600
N 	N 	0.59028 0.71603 0.33966 -0.19000
C 	C 	0.58754 0.83195 0.12720 0.46700
N 	N 	0.59709 0.74139 0.40786 -0.18000
C 	C 	0.58238 0.74968 0.28980 0.04400
C 	C 	0.59250 0.79230 0.40800 0.02100
H 	H 	0.59480 0.81420 0.45020 0.05100
C 	C 	0.54000 0.76670 0.15500 -0.37800
H 	H 	0.51160 0.77040 0.18870 0.14800
H 	H 	0.51510 0.74110 0.11450 0.15700
N 	N 	0.67920 0.08800 0.06310 -0.04500
N 	N 	0.68830 0.04950 0.93420 -0.03000
N 	N 	0.71850 0.10250 0.94850 -0.05900
Co	Co	0.29617 0.25547 0.33100 1.14600
S 	S 	0.24861 0.14869 0.65720 0.01900
S 	S 	0.24326 0.06098 0.53300 0.06100
O 	O 	0.24918 0.17483 0.39405 -0.45700
O 	O 	0.29232 0.20264 0.50557 -0.45600
N 	N 	0.25695 0.04936 0.67299 -0.18600
C 	C 	0.25421 0.16528 0.46053 0.46800
N 	N 	0.26376 0.07472 0.74119 -0.17800
C 	C 	0.24905 0.08301 0.62313 0.04400
C 	C 	0.25917 0.12563 0.74133 0.02200
H 	H 	0.26147 0.14753 0.78353 0.05200
C 	C 	0.20667 0.10003 0.48833 -0.38400
H 	H 	0.17827 0.10373 0.52203 0.15200
H 	H 	0.18177 0.07443 0.44783 0.16300
N 	N 	0.34587 0.42133 0.39643 -0.04500
N 	N 	0.35497 0.38283 0.26753 -0.03700
N 	N 	0.38517 0.43583 0.28183 -0.05900
Co	Co	0.96283 0.58881 0.66434 1.14100
S 	S 	0.91527 0.48203 0.99054 0.01400
S 	S 	0.90992 0.39432 0.86634 0.04700
O 	O 	0.91584 0.50817 0.72739 -0.46000
O 	O 	0.95898 0.53598 0.83891 -0.46200
N 	N 	0.92361 0.38270 0.00633 -0.19300
C 	C 	0.92087 0.49862 0.79387 0.46700
N 	N 	0.93042 0.40806 0.07453 -0.18100
C 	C 	0.91571 0.41635 0.95647 0.04400
C 	C 	0.92583 0.45897 0.07467 0.01700
H 	H 	0.92813 0.48087 0.11687 0.05000
C 	C 	0.87333 0.43337 0.82167 -0.37800
H 	H 	0.84493 0.43707 0.85537 0.14800
H 	H 	0.84843 0.40777 0.78117 0.15700
N 	N 	0.01253 0.75467 0.72977 -0.03300
N 	N 	0.02163 0.71617 0.60087 -0.03000
N 	N 	0.05183 0.76917 0.61517 -0.05900
N 	N 	0.66667 0.67988 0.58333 -0.29400
N 	N 	0.66667 0.63168 0.58333 -0.03500
N 	N 	0.32012 0.98678 0.58333 -0.30400
N 	N 	0.36832 0.03498 0.58333 -0.02700
N 	N 	0.01322 0.33333 0.58333 -0.28500
N 	N 	0.96502 0.33333 0.58333 -0.04300
N 	N 	0.67988 0.66667 0.91667 -0.29400
N 	N 	0.63168 0.66667 0.91667 -0.03500
N 	N 	0.34655 0.00000 0.25000 -0.29000
N 	N 	0.29835 0.00000 0.25000 -0.02900
N 	N 	0.98678 0.32012 0.91667 -0.30200
N 	N 	0.03498 0.36832 0.91667 -0.02800
N 	N 	0.65345 0.65345 0.25000 -0.29400
N 	N 	0.70165 0.70165 0.25000 -0.03500
N 	N 	0.33333 0.01322 0.91667 -0.28400
N 	N 	0.33333 0.96502 0.91667 -0.04400
N 	N 	0.00000 0.34655 0.25000 -0.28900
N 	N 	0.00000 0.29835 0.25000 -0.02800
N 	N 	0.33333 0.32012 0.41667 -0.29400
N 	N 	0.33333 0.36832 0.41667 -0.03500
N 	N 	-0.00000 0.65345 0.75000 -0.28900
N 	N 	-0.00000 0.70165 0.75000 -0.02900
N 	N 	0.67988 0.01322 0.41667 -0.28500
N 	N 	0.63168 0.96502 0.41667 -0.04300
N 	N 	0.34655 0.34655 0.75000 -0.29400
N 	N 	0.29835 0.29835 0.75000 -0.03500
N 	N 	0.98678 0.66667 0.41667 -0.30400
N 	N 	0.03498 0.66667 0.41667 -0.02600
N 	N 	0.65345 0.00000 0.75000 -0.28900
N 	N 	0.70165 0.00000 0.75000 -0.02800
N 	N 	0.32012 0.33333 0.08333 -0.29400
N 	N 	0.36832 0.33333 0.08333 -0.03500
N 	N 	0.01322 0.67988 0.08333 -0.28400
N 	N 	0.96502 0.63168 0.08333 -0.04400
N 	N 	0.66667 0.98678 0.08333 -0.30300
N 	N 	0.66667 0.03498 0.08333 -0.02800
N 	N 	0.65898 0.66667 0.41667 -0.27000
N 	N 	0.32565 0.00000 0.75000 -0.26100
N 	N 	0.33333 0.99232 0.41667 -0.28100
N 	N 	0.00000 0.32565 0.75000 -0.26200
N 	N 	0.00768 0.34102 0.41667 -0.25900
N 	N 	0.67435 0.67435 0.75000 -0.27000
N 	N 	0.66667 0.65898 0.08333 -0.27000
N 	N 	0.99232 0.33333 0.08333 -0.28200
N 	N 	0.34102 0.00768 0.08333 -0.26100
N 	N 	0.34102 0.33333 0.58333 -0.27000
N 	N 	0.66667 0.00768 0.58333 -0.25900
N 	N 	0.99232 0.65898 0.58333 -0.28100
N 	N 	0.33333 0.34102 0.91667 -0.27000
N 	N 	-0.00000 0.67435 0.25000 -0.26100
N 	N 	0.00768 0.66667 0.91667 -0.26100
N 	N 	0.67435 0.00000 0.25000 -0.26200
N 	N 	0.65898 0.99232 0.91667 -0.28200
N 	N 	0.32565 0.32565 0.25000 -0.27000
