data_crystal

_cell_length_a 7.97000
_cell_length_b 9.41900
_cell_length_c 10.39100
_cell_angle_alpha 95.79000
_cell_angle_beta  112.08400
_cell_angle_gamma 110.00200

_symmetry_space_group_name_	'P 1'
_symmetry_space_group_name_H-M	'P 1'

loop_
_symmetry_equiv_pos_as_xyz
  x,y,z

loop_
_atom_site_label
_atom_site_type_symbol
_atom_site_fract_x
_atom_site_fract_y
_atom_site_fract_z
_atom_site_charge
Eu	Eu	0.28165 0.05090 0.01101 2.12600
O 	O 	0.92730 0.98280 0.86240 -0.46200
O 	O 	0.49720 0.04330 0.24200 -0.48800
O 	O 	0.75690 0.00710 0.23070 -0.48300
O 	O 	0.39160 0.31340 0.16900 -0.40500
O 	O 	0.25640 0.28110 0.93420 -0.41500
O 	O 	0.10460 0.76210 0.97240 -0.45400
O 	O 	0.39880 0.83250 0.97680 -0.62200
N 	N 	0.85950 0.99300 0.72500 -0.04800
C 	C 	0.80830 0.86820 0.62060 0.02500
H 	H 	0.81580 0.77480 0.64350 0.03300
C 	C 	0.74460 0.87730 0.47950 -0.02200
H 	H 	0.71430 0.79180 0.40540 0.04200
C 	C 	0.72490 0.01080 0.44620 -0.08700
C 	C 	0.77300 0.13580 0.55790 -0.02300
H 	H 	0.75620 0.22740 0.53720 0.04200
C 	C 	0.84430 0.12510 0.69710 0.02900
H 	H 	0.88290 0.21130 0.77390 0.03000
C 	C 	0.65300 0.02170 0.29240 0.44800
C 	C 	0.32410 0.36350 0.06040 0.31300
C 	C 	0.32770 0.52670 0.08380 -0.14000
H 	H 	0.46730 0.60550 0.13060 0.07700
H 	H 	0.26650 0.53780 0.14920 0.07200
C 	C 	0.21590 0.55850 0.94240 -0.29700
H 	H 	0.26710 0.53600 0.87310 0.12600
H 	H 	0.07310 0.48760 0.90100 0.12800
C 	C 	0.23900 0.72500 0.96420 0.45700
Eu	Eu	0.71835 0.94910 0.98899 2.12500
O 	O 	0.07270 0.01720 0.13760 -0.46300
O 	O 	0.50280 0.95670 0.75800 -0.48900
O 	O 	0.24310 0.99290 0.76930 -0.48400
O 	O 	0.60840 0.68660 0.83100 -0.40500
O 	O 	0.74360 0.71890 0.06580 -0.41500
O 	O 	0.89540 0.23790 0.02760 -0.45400
O 	O 	0.60120 0.16750 0.02320 -0.62200
N 	N 	0.14050 0.00700 0.27500 -0.04800
C 	C 	0.19170 0.13180 0.37940 0.02500
H 	H 	0.18420 0.22520 0.35650 0.03300
C 	C 	0.25540 0.12270 0.52050 -0.02200
H 	H 	0.28570 0.20820 0.59460 0.04200
C 	C 	0.27510 0.98920 0.55380 -0.08700
C 	C 	0.22700 0.86420 0.44210 -0.02300
H 	H 	0.24380 0.77260 0.46280 0.04200
C 	C 	0.15570 0.87490 0.30290 0.02900
H 	H 	0.11710 0.78870 0.22610 0.03000
C 	C 	0.34700 0.97830 0.70760 0.44800
C 	C 	0.67590 0.63650 0.93960 0.31300
C 	C 	0.67230 0.47330 0.91620 -0.14000
H 	H 	0.53270 0.39450 0.86940 0.07700
H 	H 	0.73350 0.46220 0.85080 0.07200
C 	C 	0.78410 0.44150 0.05760 -0.29700
H 	H 	0.73290 0.46400 0.12690 0.12600
H 	H 	0.92690 0.51240 0.09900 0.12800
C 	C 	0.76100 0.27500 0.03580 0.45700
