data_crystal

_cell_length_a 15.07400
_cell_length_b 24.98180
_cell_length_c 29.61250
_cell_angle_alpha 90.00000
_cell_angle_beta  107.80100
_cell_angle_gamma 90.00000

_symmetry_space_group_name_	'P 1'
_symmetry_space_group_name_H-M	'P 1'

loop_
_symmetry_equiv_pos_as_xyz
  x,y,z

loop_
_atom_site_label
_atom_site_type_symbol
_atom_site_fract_x
_atom_site_fract_y
_atom_site_fract_z
_atom_site_charge
Tb	Tb	0.96453 0.57990 0.51385 1.90900
Tb	Tb	0.95628 0.90056 0.53456 1.87400
Tb	Tb	0.03896 0.74163 0.49543 1.89400
I 	I 	0.67522 0.56667 0.68517 -0.59600
I 	I 	0.47961 0.64433 0.76343 -0.75900
I 	I 	0.74229 0.71965 0.77156 -0.56800
I 	I 	0.51320 0.71173 0.62817 -0.55700
I 	I 	0.49934 0.81086 0.74238 -0.76200
I 	I 	0.30946 0.74811 0.82972 -0.58800
I 	I 	0.49103 0.89177 0.87495 -0.55600
I 	I 	0.25514 0.89740 0.73655 -0.59400
I 	I 	0.51297 0.97779 0.75104 -0.75800
I 	I 	0.69633 0.90915 0.66384 -0.61400
I 	I 	0.77551 0.05473 0.75311 -0.57400
I 	I 	0.52969 0.05180 0.61800 -0.57500
Cu	Cu	0.52060 0.62222 0.68214 0.71700
Cu	Cu	0.67927 0.67053 0.68768 0.71600
Cu	Cu	0.65305 0.62281 0.76005 0.72000
Cu	Cu	0.56450 0.71851 0.72280 0.73100
Cu	Cu	0.32690 0.79799 0.74889 0.72700
Cu	Cu	0.46338 0.79443 0.82640 0.72200
Cu	Cu	0.31731 0.85314 0.82327 0.71800
Cu	Cu	0.43339 0.89446 0.78229 0.74900
Cu	Cu	0.53976 0.95687 0.66594 0.73600
Cu	Cu	0.68264 0.96015 0.74308 0.72900
Cu	Cu	0.70513 0.01476 0.66538 0.73600
Cu	Cu	0.40553 0.55484 0.78877 0.73700
O 	O 	0.09610 0.52891 0.54122 -0.53500
O 	O 	0.17735 0.45668 0.53506 -0.48600
O 	O 	0.01801 0.93354 0.94883 -0.50700
O 	O 	0.07770 0.01394 0.93992 -0.49300
O 	O 	0.08760 0.65964 0.54186 -0.54500
O 	O 	0.03443 0.61546 0.59268 -0.44300
O 	O 	0.91931 0.84291 0.96337 -0.53800
O 	O 	0.97669 0.79469 0.91653 -0.44600
O 	O 	0.98121 0.74246 0.56038 -0.50400
O 	O 	0.91587 0.82173 0.56715 -0.51700
O 	O 	0.17382 0.78352 0.54606 -0.49200
O 	O 	0.09413 0.85112 0.56277 -0.51500
O 	O 	0.92649 0.18703 0.54749 -0.48800
O 	O 	0.98587 0.10967 0.53118 -0.47500
O 	O 	0.89816 0.71739 0.96711 -0.51500
O 	O 	0.82671 0.64219 0.97767 -0.47100
O 	O 	0.93617 0.46857 0.94384 -0.52200
O 	O 	0.88314 0.52881 0.98534 -0.49700
N 	N 	0.41330 0.57769 0.64366 -0.21700
N 	N 	0.23350 0.88818 0.85620 -0.21400
N 	N 	0.25760 0.74597 0.69831 -0.22200
N 	N 	0.75270 0.91322 0.79859 -0.21900
N 	N 	0.76680 0.70227 0.65628 -0.21600
N 	N 	0.42480 0.91317 0.63198 -0.21200
N 	N 	0.78530 0.05273 0.63057 -0.21600
N 	N 	0.57410 0.75322 0.86640 -0.21600
N 	N 	0.71850 0.57786 0.81651 -0.21400
C 	C 	0.32930 0.58426 0.64952 -0.00300
H 	H 	0.32430 0.60640 0.67470 0.01300
C 	C 	0.24950 0.56020 0.62058 -0.02000
H 	H 	0.19100 0.56620 0.62560 0.05500
C 	C 	0.25620 0.52723 0.58422 -0.10600
C 	C 	0.34330 0.51758 0.57938 -0.01700
H 	H 	0.35060 0.49360 0.55590 0.05400
C 	C 	0.41970 0.54366 0.60952 0.01300
H 	H 	0.47930 0.53730 0.60590 0.02300
C 	C 	0.17030 0.50239 0.55111 0.45100
C 	C 	0.17660 0.86040 0.87376 0.00400
H 	H 	0.17330 0.82270 0.86930 0.01400
C 	C 	0.12240 0.88355 0.89813 -0.00700
H 	H 	0.08380 0.86180 0.91070 0.02600
C 	C 	0.12390 0.93835 0.90448 -0.11800
C 	C 	0.18040 0.96789 0.88480 0.00200
H 	H 	0.18200 0.00580 0.88720 0.04300
C 	C 	0.23430 0.94169 0.86150 0.00100
H 	H 	0.27370 0.96240 0.84860 0.03100
C 	C 	0.06800 0.96427 0.93313 0.46300
C 	C 	0.28210 0.73742 0.65917 0.01200
H 	H 	0.33770 0.75350 0.65700 0.00600
C 	C 	0.23020 0.70604 0.62143 -0.03200
H 	H 	0.24990 0.70120 0.59410 0.04400
C 	C 	0.14920 0.68194 0.62441 -0.07200
C 	C 	0.12610 0.68831 0.66605 -0.03100
H 	H 	0.07340 0.67040 0.67010 0.06100
C 	C 	0.18020 0.72083 0.70140 0.02000
H 	H 	0.16240 0.72580 0.72920 0.01400
C 	C 	0.08590 0.65019 0.58401 0.37000
C 	C 	0.73030 0.91300 0.83906 0.01600
H 	H 	0.67590 0.93160 0.84000 0.01100
C 	C 	0.78350 0.88670 0.87973 -0.03500
H 	H 	0.76530 0.88730 0.90770 0.05400
C 	C 	0.86320 0.85957 0.87903 -0.06900
C 	C 	0.88430 0.85728 0.83650 -0.03300
H 	H 	0.93620 0.83720 0.83410 0.06000
C 	C 	0.82820 0.88481 0.79783 0.02700
H 	H 	0.84370 0.88360 0.76910 0.01000
C 	C 	0.92450 0.83079 0.92230 0.37900
C 	C 	0.82450 0.67276 0.63999 0.00700
H 	H 	0.82680 0.63530 0.64560 0.01400
C 	C 	0.88090 0.69378 0.61543 -0.01100
H 	H 	0.92100 0.67130 0.60460 0.03200
C 	C 	0.87770 0.74822 0.60691 -0.11900
C 	C 	0.82240 0.78003 0.62576 -0.00300
H 	H 	0.82180 0.81780 0.62200 0.04100
C 	C 	0.76810 0.75608 0.65009 0.00500
H 	H 	0.73040 0.77800 0.66300 0.02200
C 	C 	0.92980 0.77306 0.57592 0.46200
C 	C 	0.42570 0.86584 0.61020 0.01000
H 	H 	0.48400 0.85150 0.61020 0.02700
C 	C 	0.34530 0.83706 0.58773 -0.01900
H 	H 	0.34900 0.80410 0.57240 0.05600
C 	C 	0.25920 0.85741 0.58807 -0.11000
C 	C 	0.25840 0.90534 0.61141 -0.00700
H 	H 	0.20110 0.92000 0.61280 0.04300
C 	C 	0.34120 0.93183 0.63274 -0.00300
H 	H 	0.33920 0.96460 0.64860 0.01800
C 	C 	0.16910 0.82838 0.56392 0.45100
C 	C 	0.78210 0.10685 0.62685 0.01100
H 	H 	0.74530 0.12620 0.64220 0.02300
C 	C 	0.83030 0.13507 0.60169 -0.01400
H 	H 	0.82610 0.17300 0.59980 0.05200
C 	C 	0.88500 0.10752 0.57903 -0.09800
C 	C 	0.88970 0.05213 0.58356 -0.02400
H 	H 	0.92680 0.03190 0.56890 0.02700
C 	C 	0.84000 0.02668 0.60956 0.02200
H 	H 	0.84490 0.98890 0.61280 -0.02600
C 	C 	0.93730 0.13678 0.55023 0.45000
C 	C 	0.65850 0.76950 0.86560 -0.00200
H 	H 	0.66180 0.79680 0.84380 0.01500
C 	C 	0.74030 0.74863 0.89469 -0.00700
H 	H 	0.79840 0.76150 0.89280 0.05300
C 	C 	0.73790 0.70889 0.92663 -0.10800
C 	C 	0.65130 0.68998 0.92656 -0.01500
H 	H 	0.64680 0.66160 0.94710 0.05000
C 	C 	0.57140 0.71277 0.89625 0.00800
H 	H 	0.51250 0.69950 0.89650 0.02800
C 	C 	0.82780 0.68718 0.95986 0.46300
C 	C 	0.78970 0.54504 0.81783 -0.00200
H 	H 	0.80260 0.53760 0.78900 0.02800
C 	C 	0.84550 0.52138 0.85910 0.00900
H 	H 	0.89510 0.49830 0.85840 0.02500
C 	C 	0.82750 0.53208 0.90133 -0.13000
C 	C 	0.75180 0.56400 0.90010 0.00700
H 	H 	0.73580 0.57050 0.92830 0.04500
C 	C 	0.69930 0.58643 0.85734 -0.01000
H 	H 	0.64800 0.60870 0.85700 0.02100
C 	C 	0.88800 0.50807 0.94751 0.49100
Tb	Tb	0.03547 0.07990 0.98615 1.89600
Tb	Tb	0.04372 0.40056 0.96544 1.86800
Tb	Tb	0.96103 0.24163 0.00457 1.88600
I 	I 	0.32478 0.06667 0.81483 -0.59700
I 	I 	0.52039 0.14433 0.73657 -0.75900
I 	I 	0.25771 0.21965 0.72844 -0.56900
I 	I 	0.48680 0.21173 0.87183 -0.55600
I 	I 	0.50066 0.31086 0.75762 -0.76200
I 	I 	0.69054 0.24811 0.67028 -0.58800
I 	I 	0.50897 0.39177 0.62505 -0.55700
I 	I 	0.74486 0.39740 0.76345 -0.59300
I 	I 	0.48703 0.47779 0.74896 -0.75800
I 	I 	0.30367 0.40915 0.83616 -0.61300
I 	I 	0.22449 0.55473 0.74689 -0.57500
I 	I 	0.47031 0.55180 0.88200 -0.57400
Cu	Cu	0.47940 0.12222 0.81786 0.71700
Cu	Cu	0.32073 0.17053 0.81232 0.71600
Cu	Cu	0.34695 0.12281 0.73995 0.72000
Cu	Cu	0.43550 0.21851 0.77720 0.73100
Cu	Cu	0.67310 0.29799 0.75111 0.72800
Cu	Cu	0.53662 0.29443 0.67360 0.72200
Cu	Cu	0.68269 0.35314 0.67673 0.71800
Cu	Cu	0.56661 0.39446 0.71770 0.74900
Cu	Cu	0.46024 0.45687 0.83406 0.73600
Cu	Cu	0.31736 0.46015 0.75692 0.73000
Cu	Cu	0.29487 0.51476 0.83461 0.73600
Cu	Cu	0.59447 0.05484 0.71123 0.73700
O 	O 	0.90390 0.02891 0.95878 -0.53000
O 	O 	0.82265 0.95668 0.96494 -0.48300
O 	O 	0.98199 0.43354 0.55117 -0.50700
O 	O 	0.92230 0.51394 0.56008 -0.49000
O 	O 	0.91240 0.15964 0.95814 -0.54000
O 	O 	0.96557 0.11546 0.90732 -0.43900
O 	O 	0.08069 0.34291 0.53663 -0.54300
O 	O 	0.02331 0.29469 0.58347 -0.45000
O 	O 	0.01879 0.24246 0.93962 -0.50600
O 	O 	0.08413 0.32173 0.93285 -0.51700
O 	O 	0.82618 0.28352 0.95394 -0.48900
O 	O 	0.90587 0.35112 0.93723 -0.51200
O 	O 	0.07351 0.68703 0.95251 -0.48900
O 	O 	0.01413 0.60967 0.96882 -0.47700
O 	O 	0.10184 0.21739 0.53289 -0.51900
O 	O 	0.17329 0.14219 0.52233 -0.47500
O 	O 	0.06383 0.96857 0.55616 -0.52200
O 	O 	0.11686 0.02881 0.51466 -0.50100
N 	N 	0.58670 0.07769 0.85634 -0.21700
N 	N 	0.76650 0.38818 0.64380 -0.21400
N 	N 	0.74240 0.24597 0.80169 -0.22200
N 	N 	0.24730 0.41322 0.70141 -0.21900
N 	N 	0.23320 0.20227 0.84372 -0.21600
N 	N 	0.57520 0.41317 0.86802 -0.21200
N 	N 	0.21470 0.55273 0.86943 -0.21600
N 	N 	0.42590 0.25322 0.63360 -0.21600
N 	N 	0.28150 0.07786 0.68349 -0.21400
C 	C 	0.67070 0.08426 0.85048 -0.00300
H 	H 	0.67570 0.10640 0.82530 0.01300
C 	C 	0.75050 0.06020 0.87942 -0.02000
H 	H 	0.80900 0.06620 0.87440 0.05500
C 	C 	0.74380 0.02723 0.91578 -0.10400
C 	C 	0.65670 0.01758 0.92062 -0.01800
H 	H 	0.64940 0.99360 0.94410 0.05500
C 	C 	0.58030 0.04366 0.89048 0.01400
H 	H 	0.52070 0.03730 0.89410 0.02300
C 	C 	0.82970 0.00239 0.94889 0.45000
C 	C 	0.82340 0.36040 0.62624 0.00500
H 	H 	0.82670 0.32270 0.63070 0.01300
C 	C 	0.87760 0.38355 0.60187 -0.00900
H 	H 	0.91620 0.36180 0.58930 0.02800
C 	C 	0.87610 0.43835 0.59552 -0.11400
C 	C 	0.81960 0.46789 0.61520 -0.00400
H 	H 	0.81800 0.50580 0.61280 0.04600
C 	C 	0.76570 0.44169 0.63850 0.00300
H 	H 	0.72630 0.46240 0.65140 0.03000
C 	C 	0.93200 0.46427 0.56687 0.46000
C 	C 	0.71790 0.23742 0.84083 0.01300
H 	H 	0.66230 0.25350 0.84300 0.00600
C 	C 	0.76980 0.20604 0.87857 -0.03300
H 	H 	0.75010 0.20120 0.90590 0.04500
C 	C 	0.85080 0.18194 0.87559 -0.07000
C 	C 	0.87390 0.18831 0.83395 -0.03100
H 	H 	0.92660 0.17040 0.82990 0.06200
C 	C 	0.81980 0.22083 0.79860 0.02000
H 	H 	0.83760 0.22580 0.77080 0.01400
C 	C 	0.91410 0.15019 0.91599 0.36900
C 	C 	0.26970 0.41300 0.66094 0.01500
H 	H 	0.32410 0.43160 0.66000 0.01100
C 	C 	0.21650 0.38670 0.62027 -0.03400
H 	H 	0.23470 0.38730 0.59230 0.05300
C 	C 	0.13680 0.35957 0.62097 -0.07000
C 	C 	0.11570 0.35728 0.66350 -0.03300
H 	H 	0.06380 0.33720 0.66590 0.05900
C 	C 	0.17180 0.38481 0.70217 0.02600
H 	H 	0.15630 0.38360 0.73090 0.01000
C 	C 	0.07550 0.33079 0.57770 0.38000
C 	C 	0.17550 0.17276 0.86001 0.00700
H 	H 	0.17320 0.13530 0.85440 0.01400
C 	C 	0.11910 0.19378 0.88457 -0.01100
H 	H 	0.07900 0.17130 0.89540 0.03000
C 	C 	0.12230 0.24822 0.89309 -0.12000
C 	C 	0.17760 0.28003 0.87424 -0.00300
H 	H 	0.17820 0.31780 0.87800 0.04100
C 	C 	0.23190 0.25608 0.84991 0.00400
H 	H 	0.26960 0.27800 0.83700 0.02200
C 	C 	0.07020 0.27306 0.92408 0.46200
C 	C 	0.57430 0.36584 0.88980 0.01100
H 	H 	0.51600 0.35150 0.88980 0.02700
C 	C 	0.65470 0.33706 0.91227 -0.01900
H 	H 	0.65100 0.30410 0.92760 0.05700
C 	C 	0.74080 0.35741 0.91193 -0.10800
C 	C 	0.74160 0.40534 0.88859 -0.00800
H 	H 	0.79890 0.42000 0.88720 0.04300
C 	C 	0.65880 0.43183 0.86726 -0.00300
H 	H 	0.66080 0.46460 0.85140 0.01800
C 	C 	0.83090 0.32838 0.93608 0.45000
C 	C 	0.21790 0.60685 0.87315 0.01000
H 	H 	0.25470 0.62620 0.85780 0.02300
C 	C 	0.16970 0.63507 0.89831 -0.01400
H 	H 	0.17390 0.67300 0.90020 0.05200
C 	C 	0.11500 0.60752 0.92097 -0.10000
C 	C 	0.11030 0.55213 0.91644 -0.02300
H 	H 	0.07320 0.53190 0.93110 0.02400
C 	C 	0.16000 0.52668 0.89044 0.01800
H 	H 	0.15510 0.48890 0.88720 -0.02400
C 	C 	0.06270 0.63678 0.94977 0.44900
C 	C 	0.34150 0.26950 0.63440 -0.00300
H 	H 	0.33820 0.29680 0.65620 0.01500
C 	C 	0.25970 0.24863 0.60531 -0.00700
H 	H 	0.20160 0.26150 0.60720 0.05300
C 	C 	0.26210 0.20889 0.57337 -0.10900
C 	C 	0.34870 0.18998 0.57344 -0.01400
H 	H 	0.35320 0.16160 0.55290 0.04900
C 	C 	0.42860 0.21277 0.60375 0.00700
H 	H 	0.48750 0.19950 0.60350 0.02800
C 	C 	0.17220 0.18718 0.54014 0.46400
C 	C 	0.21030 0.04504 0.68217 0.00000
H 	H 	0.19740 0.03760 0.71100 0.02700
C 	C 	0.15450 0.02138 0.64090 0.00400
H 	H 	0.10490 0.99830 0.64160 0.02600
C 	C 	0.17250 0.03208 0.59867 -0.12900
C 	C 	0.24820 0.06400 0.59990 0.00600
H 	H 	0.26420 0.07050 0.57170 0.04500
C 	C 	0.30070 0.08643 0.64266 -0.01000
H 	H 	0.35200 0.10870 0.64300 0.02000
C 	C 	0.11200 0.00807 0.55249 0.48800
Tb	Tb	0.03547 0.42010 0.48615 1.91000
Tb	Tb	0.04372 0.09944 0.46544 1.87500
Tb	Tb	0.96103 0.25837 0.50457 1.89400
I 	I 	0.32478 0.43333 0.31483 -0.59600
I 	I 	0.52039 0.35567 0.23657 -0.75900
I 	I 	0.25771 0.28035 0.22844 -0.56800
I 	I 	0.48680 0.28827 0.37183 -0.55700
I 	I 	0.50066 0.18914 0.25762 -0.76200
I 	I 	0.69054 0.25189 0.17028 -0.58800
I 	I 	0.50897 0.10823 0.12505 -0.55600
I 	I 	0.74486 0.10260 0.26345 -0.59300
I 	I 	0.48703 0.02221 0.24896 -0.75800
I 	I 	0.30367 0.09085 0.33616 -0.61400
I 	I 	0.22449 0.94527 0.24689 -0.57400
I 	I 	0.47031 0.94820 0.38200 -0.57500
Cu	Cu	0.47940 0.37778 0.31786 0.71700
Cu	Cu	0.32073 0.32947 0.31232 0.71600
Cu	Cu	0.34695 0.37719 0.23995 0.72000
Cu	Cu	0.43550 0.28149 0.27720 0.73100
Cu	Cu	0.67310 0.20201 0.25111 0.72700
Cu	Cu	0.53662 0.20557 0.17360 0.72200
Cu	Cu	0.68269 0.14686 0.17673 0.71800
Cu	Cu	0.56661 0.10554 0.21770 0.74900
Cu	Cu	0.46024 0.04313 0.33406 0.73600
Cu	Cu	0.31736 0.03985 0.25692 0.72900
Cu	Cu	0.29487 0.98524 0.33461 0.73600
Cu	Cu	0.59447 0.44516 0.21123 0.73700
O 	O 	0.90390 0.47109 0.45878 -0.53500
O 	O 	0.82265 0.54332 0.46494 -0.48600
O 	O 	0.98199 0.06646 0.05117 -0.50700
O 	O 	0.92230 0.98606 0.06008 -0.49300
O 	O 	0.91240 0.34036 0.45814 -0.54500
O 	O 	0.96557 0.38454 0.40732 -0.44300
O 	O 	0.08069 0.15709 0.03663 -0.53800
O 	O 	0.02331 0.20531 0.08347 -0.44600
O 	O 	0.01879 0.25754 0.43962 -0.50400
O 	O 	0.08413 0.17827 0.43285 -0.51700
O 	O 	0.82618 0.21648 0.45394 -0.49200
O 	O 	0.90587 0.14888 0.43723 -0.51500
O 	O 	0.07351 0.81297 0.45251 -0.48800
O 	O 	0.01413 0.89033 0.46882 -0.47500
O 	O 	0.10184 0.28261 0.03289 -0.51500
O 	O 	0.17329 0.35781 0.02233 -0.47100
O 	O 	0.06383 0.53143 0.05616 -0.52200
O 	O 	0.11686 0.47119 0.01466 -0.49700
N 	N 	0.58670 0.42231 0.35634 -0.21700
N 	N 	0.76650 0.11182 0.14380 -0.21400
N 	N 	0.74240 0.25403 0.30169 -0.22200
N 	N 	0.24730 0.08678 0.20141 -0.21900
N 	N 	0.23320 0.29773 0.34372 -0.21600
N 	N 	0.57520 0.08683 0.36802 -0.21200
N 	N 	0.21470 0.94727 0.36943 -0.21600
N 	N 	0.42590 0.24678 0.13360 -0.21600
N 	N 	0.28150 0.42214 0.18349 -0.21400
C 	C 	0.67070 0.41574 0.35048 -0.00300
H 	H 	0.67570 0.39360 0.32530 0.01300
C 	C 	0.75050 0.43980 0.37942 -0.02000
H 	H 	0.80900 0.43380 0.37440 0.05500
C 	C 	0.74380 0.47277 0.41578 -0.10600
C 	C 	0.65670 0.48242 0.42062 -0.01700
H 	H 	0.64940 0.50640 0.44410 0.05400
C 	C 	0.58030 0.45634 0.39048 0.01300
H 	H 	0.52070 0.46270 0.39410 0.02300
C 	C 	0.82970 0.49761 0.44889 0.45100
C 	C 	0.82340 0.13960 0.12624 0.00400
H 	H 	0.82670 0.17730 0.13070 0.01400
C 	C 	0.87760 0.11645 0.10187 -0.00700
H 	H 	0.91620 0.13820 0.08930 0.02600
C 	C 	0.87610 0.06165 0.09552 -0.11800
C 	C 	0.81960 0.03211 0.11520 0.00200
H 	H 	0.81800 0.99420 0.11280 0.04300
C 	C 	0.76570 0.05831 0.13850 0.00100
H 	H 	0.72630 0.03760 0.15140 0.03100
C 	C 	0.93200 0.03573 0.06687 0.46300
C 	C 	0.71790 0.26258 0.34083 0.01200
H 	H 	0.66230 0.24650 0.34300 0.00600
C 	C 	0.76980 0.29396 0.37857 -0.03200
H 	H 	0.75010 0.29880 0.40590 0.04400
C 	C 	0.85080 0.31806 0.37559 -0.07200
C 	C 	0.87390 0.31169 0.33395 -0.03100
H 	H 	0.92660 0.32960 0.32990 0.06100
C 	C 	0.81980 0.27917 0.29860 0.02000
H 	H 	0.83760 0.27420 0.27080 0.01400
C 	C 	0.91410 0.34981 0.41599 0.37000
C 	C 	0.26970 0.08700 0.16094 0.01600
H 	H 	0.32410 0.06840 0.16000 0.01100
C 	C 	0.21650 0.11330 0.12027 -0.03500
H 	H 	0.23470 0.11270 0.09230 0.05400
C 	C 	0.13680 0.14043 0.12097 -0.06900
C 	C 	0.11570 0.14272 0.16350 -0.03300
H 	H 	0.06380 0.16280 0.16590 0.06000
C 	C 	0.17180 0.11519 0.20217 0.02700
H 	H 	0.15630 0.11640 0.23090 0.01000
C 	C 	0.07550 0.16921 0.07770 0.37900
C 	C 	0.17550 0.32724 0.36001 0.00700
H 	H 	0.17320 0.36470 0.35440 0.01400
C 	C 	0.11910 0.30622 0.38457 -0.01100
H 	H 	0.07900 0.32870 0.39540 0.03200
C 	C 	0.12230 0.25178 0.39309 -0.11900
C 	C 	0.17760 0.21997 0.37424 -0.00300
H 	H 	0.17820 0.18220 0.37800 0.04100
C 	C 	0.23190 0.24392 0.34991 0.00500
H 	H 	0.26960 0.22200 0.33700 0.02200
C 	C 	0.07020 0.22694 0.42408 0.46200
C 	C 	0.57430 0.13416 0.38980 0.01000
H 	H 	0.51600 0.14850 0.38980 0.02700
C 	C 	0.65470 0.16294 0.41227 -0.01900
H 	H 	0.65100 0.19590 0.42760 0.05600
C 	C 	0.74080 0.14259 0.41193 -0.11000
C 	C 	0.74160 0.09466 0.38859 -0.00700
H 	H 	0.79890 0.08000 0.38720 0.04300
C 	C 	0.65880 0.06817 0.36726 -0.00300
H 	H 	0.66080 0.03540 0.35140 0.01800
C 	C 	0.83090 0.17162 0.43608 0.45100
C 	C 	0.21790 0.89315 0.37315 0.01100
H 	H 	0.25470 0.87380 0.35780 0.02300
C 	C 	0.16970 0.86493 0.39831 -0.01400
H 	H 	0.17390 0.82700 0.40020 0.05200
C 	C 	0.11500 0.89248 0.42097 -0.09800
C 	C 	0.11030 0.94787 0.41644 -0.02400
H 	H 	0.07320 0.96810 0.43110 0.02700
C 	C 	0.16000 0.97332 0.39044 0.02200
H 	H 	0.15510 0.01110 0.38720 -0.02600
C 	C 	0.06270 0.86322 0.44977 0.45000
C 	C 	0.34150 0.23050 0.13440 -0.00200
H 	H 	0.33820 0.20320 0.15620 0.01500
C 	C 	0.25970 0.25137 0.10531 -0.00700
H 	H 	0.20160 0.23850 0.10720 0.05300
C 	C 	0.26210 0.29111 0.07337 -0.10800
C 	C 	0.34870 0.31002 0.07344 -0.01500
H 	H 	0.35320 0.33840 0.05290 0.05000
C 	C 	0.42860 0.28723 0.10375 0.00800
H 	H 	0.48750 0.30050 0.10350 0.02800
C 	C 	0.17220 0.31282 0.04014 0.46300
C 	C 	0.21030 0.45496 0.18217 -0.00200
H 	H 	0.19740 0.46240 0.21100 0.02800
C 	C 	0.15450 0.47862 0.14090 0.00900
H 	H 	0.10490 0.50170 0.14160 0.02500
C 	C 	0.17250 0.46792 0.09867 -0.13000
C 	C 	0.24820 0.43600 0.09990 0.00700
H 	H 	0.26420 0.42950 0.07170 0.04500
C 	C 	0.30070 0.41357 0.14266 -0.01000
H 	H 	0.35200 0.39130 0.14300 0.02100
C 	C 	0.11200 0.49193 0.05249 0.49100
Tb	Tb	0.96453 0.92010 0.01385 1.89600
Tb	Tb	0.95628 0.59944 0.03456 1.86800
Tb	Tb	0.03896 0.75837 0.99543 1.88600
I 	I 	0.67522 0.93333 0.18517 -0.59700
I 	I 	0.47961 0.85567 0.26343 -0.75900
I 	I 	0.74229 0.78035 0.27156 -0.56900
I 	I 	0.51320 0.78827 0.12817 -0.55600
I 	I 	0.49934 0.68914 0.24238 -0.76200
I 	I 	0.30946 0.75189 0.32972 -0.58800
I 	I 	0.49103 0.60823 0.37495 -0.55700
I 	I 	0.25514 0.60260 0.23655 -0.59300
I 	I 	0.51297 0.52221 0.25104 -0.75800
I 	I 	0.69633 0.59085 0.16384 -0.61300
I 	I 	0.77551 0.44527 0.25311 -0.57500
I 	I 	0.52969 0.44820 0.11800 -0.57400
Cu	Cu	0.52060 0.87778 0.18214 0.71700
Cu	Cu	0.67927 0.82947 0.18768 0.71600
Cu	Cu	0.65305 0.87719 0.26005 0.72000
Cu	Cu	0.56450 0.78149 0.22280 0.73100
Cu	Cu	0.32690 0.70201 0.24889 0.72800
Cu	Cu	0.46338 0.70557 0.32640 0.72200
Cu	Cu	0.31731 0.64686 0.32327 0.71800
Cu	Cu	0.43339 0.60554 0.28230 0.74900
Cu	Cu	0.53976 0.54313 0.16594 0.73600
Cu	Cu	0.68264 0.53985 0.24308 0.73000
Cu	Cu	0.70513 0.48524 0.16539 0.73600
Cu	Cu	0.40553 0.94516 0.28877 0.73700
O 	O 	0.09610 0.97109 0.04122 -0.53000
O 	O 	0.17735 0.04332 0.03506 -0.48300
O 	O 	0.01801 0.56646 0.44883 -0.50700
O 	O 	0.07770 0.48606 0.43992 -0.49000
O 	O 	0.08760 0.84036 0.04186 -0.54000
O 	O 	0.03443 0.88454 0.09268 -0.43900
O 	O 	0.91931 0.65709 0.46337 -0.54300
O 	O 	0.97669 0.70531 0.41653 -0.45000
O 	O 	0.98121 0.75754 0.06038 -0.50600
O 	O 	0.91587 0.67827 0.06715 -0.51700
O 	O 	0.17382 0.71648 0.04606 -0.48900
O 	O 	0.09413 0.64888 0.06277 -0.51200
O 	O 	0.92649 0.31297 0.04749 -0.48900
O 	O 	0.98587 0.39033 0.03118 -0.47700
O 	O 	0.89816 0.78261 0.46711 -0.51900
O 	O 	0.82671 0.85781 0.47767 -0.47500
O 	O 	0.93617 0.03143 0.44384 -0.52200
O 	O 	0.88314 0.97119 0.48534 -0.50100
N 	N 	0.41330 0.92231 0.14366 -0.21700
N 	N 	0.23350 0.61182 0.35620 -0.21400
N 	N 	0.25760 0.75403 0.19831 -0.22200
N 	N 	0.75270 0.58678 0.29859 -0.21900
N 	N 	0.76680 0.79773 0.15628 -0.21600
N 	N 	0.42480 0.58683 0.13198 -0.21200
N 	N 	0.78530 0.44727 0.13057 -0.21600
N 	N 	0.57410 0.74678 0.36640 -0.21600
N 	N 	0.71850 0.92214 0.31651 -0.21400
C 	C 	0.32930 0.91574 0.14952 -0.00300
H 	H 	0.32430 0.89360 0.17470 0.01300
C 	C 	0.24950 0.93980 0.12058 -0.02000
H 	H 	0.19100 0.93380 0.12560 0.05500
C 	C 	0.25620 0.97277 0.08422 -0.10400
C 	C 	0.34330 0.98242 0.07938 -0.01800
H 	H 	0.35060 0.00640 0.05590 0.05500
C 	C 	0.41970 0.95634 0.10952 0.01400
H 	H 	0.47930 0.96270 0.10590 0.02300
C 	C 	0.17030 0.99761 0.05111 0.45000
C 	C 	0.17660 0.63960 0.37376 0.00500
H 	H 	0.17330 0.67730 0.36930 0.01300
C 	C 	0.12240 0.61645 0.39813 -0.00900
H 	H 	0.08380 0.63820 0.41070 0.02800
C 	C 	0.12390 0.56165 0.40448 -0.11400
C 	C 	0.18040 0.53211 0.38480 -0.00400
H 	H 	0.18200 0.49420 0.38720 0.04600
C 	C 	0.23430 0.55831 0.36150 0.00300
H 	H 	0.27370 0.53760 0.34860 0.03000
C 	C 	0.06800 0.53573 0.43313 0.46000
C 	C 	0.28210 0.76258 0.15917 0.01300
H 	H 	0.33770 0.74650 0.15700 0.00600
C 	C 	0.23020 0.79396 0.12143 -0.03300
H 	H 	0.24990 0.79880 0.09410 0.04500
C 	C 	0.14920 0.81806 0.12441 -0.07000
C 	C 	0.12610 0.81169 0.16605 -0.03100
H 	H 	0.07340 0.82960 0.17010 0.06200
C 	C 	0.18020 0.77917 0.20140 0.02000
H 	H 	0.16240 0.77420 0.22920 0.01400
C 	C 	0.08590 0.84981 0.08401 0.36900
C 	C 	0.73030 0.58700 0.33906 0.01500
H 	H 	0.67590 0.56840 0.34000 0.01100
C 	C 	0.78350 0.61330 0.37973 -0.03400
H 	H 	0.76530 0.61270 0.40770 0.05300
C 	C 	0.86320 0.64043 0.37903 -0.07000
C 	C 	0.88430 0.64272 0.33650 -0.03300
H 	H 	0.93620 0.66280 0.33410 0.05900
C 	C 	0.82820 0.61519 0.29783 0.02600
H 	H 	0.84370 0.61640 0.26910 0.01000
C 	C 	0.92450 0.66921 0.42230 0.38000
C 	C 	0.82450 0.82724 0.13999 0.00700
H 	H 	0.82680 0.86470 0.14560 0.01400
C 	C 	0.88090 0.80622 0.11543 -0.01100
H 	H 	0.92100 0.82870 0.10460 0.03000
C 	C 	0.87770 0.75178 0.10691 -0.12000
C 	C 	0.82240 0.71997 0.12576 -0.00300
H 	H 	0.82180 0.68220 0.12200 0.04100
C 	C 	0.76810 0.74392 0.15009 0.00400
H 	H 	0.73040 0.72200 0.16300 0.02200
C 	C 	0.92980 0.72694 0.07592 0.46200
C 	C 	0.42570 0.63416 0.11020 0.01100
H 	H 	0.48400 0.64850 0.11020 0.02700
C 	C 	0.34530 0.66294 0.08773 -0.01900
H 	H 	0.34900 0.69590 0.07240 0.05700
C 	C 	0.25920 0.64259 0.08807 -0.10800
C 	C 	0.25840 0.59466 0.11141 -0.00800
H 	H 	0.20110 0.58000 0.11280 0.04300
C 	C 	0.34120 0.56817 0.13274 -0.00300
H 	H 	0.33920 0.53540 0.14860 0.01800
C 	C 	0.16910 0.67162 0.06392 0.45000
C 	C 	0.78210 0.39315 0.12685 0.01000
H 	H 	0.74530 0.37380 0.14220 0.02300
C 	C 	0.83030 0.36493 0.10169 -0.01400
H 	H 	0.82610 0.32700 0.09980 0.05200
C 	C 	0.88500 0.39248 0.07903 -0.10000
C 	C 	0.88970 0.44787 0.08356 -0.02300
H 	H 	0.92680 0.46810 0.06890 0.02400
C 	C 	0.84000 0.47332 0.10956 0.01800
H 	H 	0.84490 0.51110 0.11280 -0.02400
C 	C 	0.93730 0.36322 0.05023 0.44900
C 	C 	0.65850 0.73050 0.36560 -0.00300
H 	H 	0.66180 0.70320 0.34380 0.01500
C 	C 	0.74030 0.75137 0.39469 -0.00700
H 	H 	0.79840 0.73850 0.39280 0.05200
C 	C 	0.73790 0.79111 0.42663 -0.10900
C 	C 	0.65130 0.81002 0.42656 -0.01400
H 	H 	0.64680 0.83840 0.44710 0.04900
C 	C 	0.57140 0.78723 0.39625 0.00700
H 	H 	0.51250 0.80050 0.39650 0.02800
C 	C 	0.82780 0.81282 0.45986 0.46400
C 	C 	0.78970 0.95496 0.31783 0.00000
H 	H 	0.80260 0.96240 0.28900 0.02700
C 	C 	0.84550 0.97862 0.35910 0.00400
H 	H 	0.89510 0.00170 0.35840 0.02600
C 	C 	0.82750 0.96792 0.40133 -0.12900
C 	C 	0.75180 0.93600 0.40010 0.00600
H 	H 	0.73580 0.92950 0.42830 0.04500
C 	C 	0.69930 0.91357 0.35734 -0.01000
H 	H 	0.64800 0.89130 0.35700 0.02000
C 	C 	0.88800 0.99193 0.44751 0.48800
