data_crystal

_cell_length_a 29.67000
_cell_length_b 29.67000
_cell_length_c 17.91500
_cell_angle_alpha 90.00000
_cell_angle_beta  90.00000
_cell_angle_gamma 120.00000

_symmetry_space_group_name_	'P 1'
_symmetry_space_group_name_H-M	'P 1'

loop_
_symmetry_equiv_pos_as_xyz
  x,y,z

loop_
_atom_site_label
_atom_site_type_symbol
_atom_site_fract_x
_atom_site_fract_y
_atom_site_fract_z
_atom_site_charge
Zn	Zn	0.62915 0.85669 0.51957 1.20900
N 	N 	0.64362 0.89648 0.41833 -0.24900
N 	N 	0.59849 0.79467 0.44617 -0.25100
N 	N 	0.57802 0.76940 0.33003 -0.20100
H 	H 	0.57550 0.77090 0.28130 0.14800
O 	O 	0.47318 0.49280 0.24401 -0.46400
O 	O 	0.44638 0.52518 0.15374 -0.32300
O 	O 	0.58190 0.63725 0.75656 -0.37300
O 	O 	0.49801 0.59166 0.73467 -0.41800
C 	C 	0.66602 0.94786 0.40815 0.08200
H 	H 	0.67910 0.97000 0.45050 -0.00400
C 	C 	0.67098 0.97005 0.33928 -0.12200
H 	H 	0.68690 0.00670 0.33420 0.08000
C 	C 	0.65259 0.93827 0.27796 0.04000
H 	H 	0.65600 0.95280 0.22960 0.01900
C 	C 	0.62896 0.88482 0.28673 -0.10100
H 	H 	0.61570 0.86220 0.24490 0.06800
C 	C 	0.62515 0.86529 0.35790 0.03500
C 	C 	0.60096 0.81020 0.37592 0.08400
C 	C 	0.57202 0.74112 0.44512 0.03000
C 	C 	0.55879 0.72434 0.37169 0.03300
C 	C 	0.53303 0.67347 0.33517 0.04900
C 	C 	0.51004 0.66796 0.26518 -0.10700
H 	H 	0.50960 0.69680 0.24300 0.07800
C 	C 	0.48801 0.62089 0.22794 0.03900
H 	H 	0.47260 0.61780 0.18030 0.02900
C 	C 	0.48796 0.57800 0.25899 -0.11500
C 	C 	0.51022 0.58292 0.32926 0.03700
H 	H 	0.51010 0.55380 0.35150 0.03300
C 	C 	0.53237 0.62997 0.36660 -0.10900
H 	H 	0.54740 0.63280 0.41440 0.07100
C 	C 	0.46696 0.52834 0.21524 0.35100
C 	C 	0.56267 0.71221 0.51562 0.02500
C 	C 	0.60259 0.73089 0.56849 -0.08800
H 	H 	0.63470 0.76170 0.55850 0.04700
C 	C 	0.59572 0.70481 0.63535 0.01800
H 	H 	0.62320 0.71750 0.67080 0.03600
C 	C 	0.54885 0.66031 0.65053 -0.08100
C 	C 	0.50810 0.64260 0.59946 0.01500
H 	H 	0.47540 0.61290 0.61060 0.04500
C 	C 	0.51545 0.66866 0.53191 -0.08500
H 	H 	0.48780 0.65640 0.49680 0.06300
C 	C 	0.54303 0.62851 0.71889 0.30400
Zn	Zn	0.29582 0.19002 0.85290 1.21000
N 	N 	0.31029 0.22981 0.75166 -0.24800
N 	N 	0.26516 0.12800 0.77950 -0.25000
N 	N 	0.24469 0.10273 0.66336 -0.20000
H 	H 	0.24217 0.10423 0.61463 0.14900
O 	O 	0.13985 0.82613 0.57734 -0.46300
O 	O 	0.11305 0.85851 0.48707 -0.32200
O 	O 	0.24857 0.97058 0.08989 -0.37300
O 	O 	0.16468 0.92499 0.06800 -0.41700
C 	C 	0.33269 0.28119 0.74148 0.08400
H 	H 	0.34577 0.30333 0.78383 -0.00300
C 	C 	0.33765 0.30338 0.67261 -0.12200
H 	H 	0.35357 0.34003 0.66753 0.08200
C 	C 	0.31926 0.27160 0.61129 0.04200
H 	H 	0.32267 0.28613 0.56293 0.02000
C 	C 	0.29563 0.21815 0.62006 -0.10000
H 	H 	0.28237 0.19553 0.57823 0.06900
C 	C 	0.29182 0.19862 0.69123 0.03600
C 	C 	0.26763 0.14353 0.70925 0.08400
C 	C 	0.23869 0.07445 0.77845 0.03100
C 	C 	0.22546 0.05767 0.70502 0.03400
C 	C 	0.19970 0.00680 0.66850 0.05100
C 	C 	0.17671 0.00129 0.59851 -0.10600
H 	H 	0.17627 0.03013 0.57633 0.07900
C 	C 	0.15468 0.95422 0.56127 0.03800
H 	H 	0.13927 0.95113 0.51363 0.02900
C 	C 	0.15463 0.91133 0.59232 -0.11500
C 	C 	0.17689 0.91625 0.66259 0.03800
H 	H 	0.17677 0.88713 0.68483 0.03300
C 	C 	0.19904 0.96330 0.69993 -0.10900
H 	H 	0.21407 0.96613 0.74773 0.07100
C 	C 	0.13363 0.86167 0.54857 0.35100
C 	C 	0.22934 0.04554 0.84895 0.02500
C 	C 	0.26926 0.06422 0.90182 -0.09000
H 	H 	0.30137 0.09503 0.89183 0.04800
C 	C 	0.26239 0.03814 0.96868 0.02200
H 	H 	0.28987 0.05083 0.00413 0.03400
C 	C 	0.21552 0.99364 0.98386 -0.08400
C 	C 	0.17477 0.97593 0.93279 0.01400
H 	H 	0.14207 0.94623 0.94393 0.04500
C 	C 	0.18212 0.00199 0.86524 -0.08300
H 	H 	0.15447 0.98973 0.83013 0.06200
C 	C 	0.20970 0.96184 0.05222 0.30600
Zn	Zn	0.96248 0.52336 0.18624 1.21000
N 	N 	0.97695 0.56315 0.08500 -0.24700
N 	N 	0.93182 0.46134 0.11284 -0.25000
N 	N 	0.91135 0.43607 0.99670 -0.19900
H 	H 	0.90883 0.43757 0.94797 0.14900
O 	O 	0.80651 0.15947 0.91068 -0.46300
O 	O 	0.77971 0.19185 0.82041 -0.32200
O 	O 	0.91523 0.30392 0.42323 -0.37200
O 	O 	0.83134 0.25833 0.40134 -0.41700
C 	C 	0.99935 0.61453 0.07482 0.07900
H 	H 	0.01243 0.63667 0.11717 -0.00100
C 	C 	0.00431 0.63672 0.00595 -0.11700
H 	H 	0.02023 0.67337 0.00087 0.08000
C 	C 	0.98592 0.60494 0.94463 0.03800
H 	H 	0.98933 0.61947 0.89627 0.02200
C 	C 	0.96229 0.55149 0.95340 -0.09700
H 	H 	0.94903 0.52887 0.91157 0.06800
C 	C 	0.95848 0.53196 0.02457 0.03400
C 	C 	0.93429 0.47687 0.04259 0.08400
C 	C 	0.90535 0.40779 0.11179 0.03100
C 	C 	0.89212 0.39101 0.03836 0.03200
C 	C 	0.86636 0.34014 0.00184 0.05100
C 	C 	0.84337 0.33463 0.93185 -0.10600
H 	H 	0.84293 0.36347 0.90967 0.07900
C 	C 	0.82134 0.28756 0.89461 0.04000
H 	H 	0.80593 0.28447 0.84697 0.02800
C 	C 	0.82129 0.24467 0.92566 -0.11700
C 	C 	0.84355 0.24959 0.99593 0.04300
H 	H 	0.84343 0.22047 0.01817 0.03000
C 	C 	0.86570 0.29664 0.03327 -0.11300
H 	H 	0.88073 0.29947 0.08107 0.07200
C 	C 	0.80029 0.19501 0.88191 0.35200
C 	C 	0.89600 0.37888 0.18229 0.02500
C 	C 	0.93592 0.39756 0.23516 -0.08800
H 	H 	0.96803 0.42837 0.22517 0.04700
C 	C 	0.92905 0.37148 0.30202 0.01800
H 	H 	0.95653 0.38417 0.33747 0.03600
C 	C 	0.88218 0.32698 0.31720 -0.08000
C 	C 	0.84143 0.30927 0.26613 0.01400
H 	H 	0.80873 0.27957 0.27727 0.04500
C 	C 	0.84878 0.33533 0.19858 -0.08400
H 	H 	0.82113 0.32307 0.16347 0.06300
C 	C 	0.87636 0.29518 0.38556 0.30300
Zn	Zn	0.14331 0.77246 0.51957 1.21000
N 	N 	0.10352 0.74714 0.41833 -0.24800
N 	N 	0.20533 0.80382 0.44617 -0.25000
N 	N 	0.23060 0.80862 0.33003 -0.20000
H 	H 	0.22910 0.80460 0.28130 0.14900
O 	O 	0.50720 0.98038 0.24401 -0.46300
O 	O 	0.47482 0.92120 0.15374 -0.32200
O 	O 	0.36275 0.94465 0.75656 -0.37300
O 	O 	0.40834 0.90635 0.73467 -0.41700
C 	C 	0.05214 0.71816 0.40815 0.08300
H 	H 	0.03000 0.70910 0.45050 -0.00300
C 	C 	0.02995 0.70093 0.33928 -0.12100
H 	H 	0.99330 0.68020 0.33420 0.08100
C 	C 	0.06173 0.71432 0.27796 0.04100
H 	H 	0.04720 0.70320 0.22960 0.02100
C 	C 	0.11518 0.74414 0.28673 -0.10000
H 	H 	0.13780 0.75350 0.24490 0.06900
C 	C 	0.13471 0.75986 0.35790 0.03600
C 	C 	0.18980 0.79076 0.37592 0.08500
C 	C 	0.25888 0.83090 0.44512 0.03100
C 	C 	0.27566 0.83445 0.37169 0.03400
C 	C 	0.32653 0.85956 0.33517 0.05000
C 	C 	0.33204 0.84208 0.26518 -0.10600
H 	H 	0.30320 0.81280 0.24300 0.07900
C 	C 	0.37911 0.86712 0.22794 0.03900
H 	H 	0.38220 0.85480 0.18030 0.02900
C 	C 	0.42200 0.90996 0.25899 -0.11500
C 	C 	0.41708 0.92730 0.32926 0.03700
H 	H 	0.44620 0.95630 0.35150 0.03300
C 	C 	0.37003 0.90240 0.36660 -0.10900
H 	H 	0.36720 0.91460 0.41440 0.07100
C 	C 	0.47166 0.93862 0.21524 0.35100
C 	C 	0.28779 0.85046 0.51562 0.02500
C 	C 	0.26911 0.87170 0.56849 -0.08800
H 	H 	0.23830 0.87300 0.55850 0.04700
C 	C 	0.29519 0.89091 0.63535 0.01800
H 	H 	0.28250 0.90570 0.67080 0.03600
C 	C 	0.33969 0.88854 0.65053 -0.08100
C 	C 	0.35740 0.86550 0.59946 0.01500
H 	H 	0.38710 0.86250 0.61060 0.04500
C 	C 	0.33134 0.84679 0.53191 -0.08500
H 	H 	0.34360 0.83140 0.49680 0.06300
C 	C 	0.37149 0.91452 0.71889 0.30400
Zn	Zn	0.80998 0.10579 0.85290 1.21000
N 	N 	0.77019 0.08047 0.75166 -0.24800
N 	N 	0.87200 0.13715 0.77950 -0.25000
N 	N 	0.89727 0.14195 0.66336 -0.20000
H 	H 	0.89577 0.13793 0.61463 0.14900
O 	O 	0.17387 0.31371 0.57734 -0.46300
O 	O 	0.14149 0.25453 0.48707 -0.32200
O 	O 	0.02942 0.27798 0.08989 -0.37300
O 	O 	0.07501 0.23968 0.06800 -0.41700
C 	C 	0.71881 0.05149 0.74148 0.08400
H 	H 	0.69667 0.04243 0.78383 -0.00300
C 	C 	0.69662 0.03426 0.67261 -0.12200
H 	H 	0.65997 0.01353 0.66753 0.08200
C 	C 	0.72840 0.04765 0.61129 0.04200
H 	H 	0.71387 0.03653 0.56293 0.02000
C 	C 	0.78185 0.07747 0.62006 -0.10000
H 	H 	0.80447 0.08683 0.57823 0.06900
C 	C 	0.80138 0.09319 0.69123 0.03600
C 	C 	0.85647 0.12409 0.70925 0.08500
C 	C 	0.92555 0.16423 0.77845 0.03100
C 	C 	0.94233 0.16778 0.70502 0.03400
C 	C 	0.99320 0.19289 0.66850 0.05100
C 	C 	0.99871 0.17541 0.59851 -0.10600
H 	H 	0.96987 0.14613 0.57633 0.07900
C 	C 	0.04578 0.20045 0.56127 0.03900
H 	H 	0.04887 0.18813 0.51363 0.02900
C 	C 	0.08867 0.24329 0.59232 -0.11500
C 	C 	0.08375 0.26063 0.66259 0.03800
H 	H 	0.11287 0.28963 0.68483 0.03300
C 	C 	0.03670 0.23573 0.69993 -0.10900
H 	H 	0.03387 0.24793 0.74773 0.07100
C 	C 	0.13833 0.27195 0.54857 0.35100
C 	C 	0.95446 0.18379 0.84895 0.02600
C 	C 	0.93578 0.20503 0.90182 -0.09100
H 	H 	0.90497 0.20633 0.89183 0.04800
C 	C 	0.96186 0.22424 0.96868 0.02400
H 	H 	0.94917 0.23903 0.00413 0.03300
C 	C 	0.00636 0.22187 0.98386 -0.08400
C 	C 	0.02407 0.19883 0.93279 0.01400
H 	H 	0.05377 0.19583 0.94393 0.04500
C 	C 	0.99801 0.18012 0.86524 -0.08300
H 	H 	0.01027 0.16473 0.83013 0.06200
C 	C 	0.03816 0.24785 0.05222 0.30500
Zn	Zn	0.47664 0.43913 0.18624 1.21000
N 	N 	0.43685 0.41381 0.08500 -0.24800
N 	N 	0.53866 0.47049 0.11284 -0.25000
N 	N 	0.56393 0.47529 0.99670 -0.20000
H 	H 	0.56243 0.47127 0.94797 0.14900
O 	O 	0.84053 0.64705 0.91068 -0.46300
O 	O 	0.80815 0.58787 0.82041 -0.32200
O 	O 	0.69608 0.61132 0.42323 -0.37200
O 	O 	0.74167 0.57302 0.40134 -0.41700
C 	C 	0.38547 0.38483 0.07482 0.08400
H 	H 	0.36333 0.37577 0.11717 -0.00300
C 	C 	0.36328 0.36760 0.00595 -0.12200
H 	H 	0.32663 0.34687 0.00087 0.08200
C 	C 	0.39506 0.38099 0.94463 0.04200
H 	H 	0.38053 0.36987 0.89627 0.02000
C 	C 	0.44851 0.41081 0.95340 -0.10000
H 	H 	0.47113 0.42017 0.91157 0.06900
C 	C 	0.46804 0.42653 0.02457 0.03600
C 	C 	0.52313 0.45743 0.04259 0.08400
C 	C 	0.59221 0.49757 0.11179 0.03100
C 	C 	0.60899 0.50112 0.03836 0.03300
C 	C 	0.65986 0.52623 0.00184 0.05000
C 	C 	0.66537 0.50875 0.93185 -0.10600
H 	H 	0.63653 0.47947 0.90967 0.07900
C 	C 	0.71244 0.53379 0.89461 0.03900
H 	H 	0.71553 0.52147 0.84697 0.02900
C 	C 	0.75533 0.57663 0.92566 -0.11600
C 	C 	0.75041 0.59397 0.99593 0.03900
H 	H 	0.77953 0.62297 0.01817 0.03200
C 	C 	0.70336 0.56907 0.03327 -0.11000
H 	H 	0.70053 0.58127 0.08107 0.07100
C 	C 	0.80499 0.60529 0.88191 0.35100
C 	C 	0.62112 0.51713 0.18229 0.02500
C 	C 	0.60244 0.53837 0.23516 -0.08800
H 	H 	0.57163 0.53967 0.22517 0.04700
C 	C 	0.62852 0.55758 0.30202 0.01800
H 	H 	0.61583 0.57237 0.33747 0.03600
C 	C 	0.67302 0.55521 0.31720 -0.08100
C 	C 	0.69073 0.53217 0.26613 0.01400
H 	H 	0.72043 0.52917 0.27727 0.04500
C 	C 	0.66467 0.51346 0.19858 -0.08500
H 	H 	0.67693 0.49807 0.16347 0.06300
C 	C 	0.70482 0.58119 0.38556 0.30400
Zn	Zn	0.22754 0.37085 0.51957 1.21000
N 	N 	0.25286 0.35638 0.41833 -0.24800
N 	N 	0.19618 0.40151 0.44617 -0.25000
N 	N 	0.19138 0.42198 0.33003 -0.20000
H 	H 	0.19540 0.42450 0.28130 0.14900
O 	O 	0.01962 0.52682 0.24401 -0.46300
O 	O 	0.07880 0.55362 0.15374 -0.32200
O 	O 	0.05535 0.41810 0.75656 -0.37300
O 	O 	0.09365 0.50199 0.73467 -0.41700
C 	C 	0.28184 0.33398 0.40815 0.08400
H 	H 	0.29090 0.32090 0.45050 -0.00300
C 	C 	0.29907 0.32902 0.33928 -0.12200
H 	H 	0.31980 0.31310 0.33420 0.08200
C 	C 	0.28568 0.34741 0.27796 0.04200
H 	H 	0.29680 0.34400 0.22960 0.02000
C 	C 	0.25586 0.37104 0.28673 -0.10000
H 	H 	0.24650 0.38430 0.24490 0.06900
C 	C 	0.24014 0.37485 0.35790 0.03600
C 	C 	0.20924 0.39904 0.37592 0.08400
C 	C 	0.16910 0.42798 0.44512 0.03100
C 	C 	0.16555 0.44121 0.37169 0.03400
C 	C 	0.14044 0.46697 0.33517 0.05000
C 	C 	0.15792 0.48996 0.26518 -0.10600
H 	H 	0.18720 0.49040 0.24300 0.07900
C 	C 	0.13288 0.51199 0.22794 0.03900
H 	H 	0.14520 0.52740 0.18030 0.02900
C 	C 	0.09004 0.51204 0.25899 -0.11500
C 	C 	0.07270 0.48978 0.32926 0.03700
H 	H 	0.04370 0.48990 0.35150 0.03300
C 	C 	0.09760 0.46763 0.36660 -0.10900
H 	H 	0.08540 0.45260 0.41440 0.07100
C 	C 	0.06138 0.53304 0.21524 0.35100
C 	C 	0.14954 0.43733 0.51562 0.02500
C 	C 	0.12830 0.39741 0.56849 -0.08800
H 	H 	0.12700 0.36530 0.55850 0.04700
C 	C 	0.10909 0.40428 0.63535 0.01800
H 	H 	0.09430 0.37680 0.67080 0.03600
C 	C 	0.11146 0.45115 0.65053 -0.08100
C 	C 	0.13450 0.49190 0.59946 0.01500
H 	H 	0.13750 0.52460 0.61060 0.04500
C 	C 	0.15321 0.48455 0.53191 -0.08500
H 	H 	0.16860 0.51220 0.49680 0.06300
C 	C 	0.08548 0.45697 0.71889 0.30400
Zn	Zn	0.89421 0.70418 0.85290 1.21000
N 	N 	0.91953 0.68971 0.75166 -0.24800
N 	N 	0.86285 0.73484 0.77950 -0.25000
N 	N 	0.85805 0.75531 0.66336 -0.20000
H 	H 	0.86207 0.75783 0.61463 0.14900
O 	O 	0.68629 0.86015 0.57734 -0.46300
O 	O 	0.74547 0.88695 0.48707 -0.32200
O 	O 	0.72202 0.75143 0.08989 -0.37200
O 	O 	0.76032 0.83532 0.06800 -0.41700
C 	C 	0.94851 0.66731 0.74148 0.08400
H 	H 	0.95757 0.65423 0.78383 -0.00300
C 	C 	0.96574 0.66235 0.67261 -0.12200
H 	H 	0.98647 0.64643 0.66753 0.08200
C 	C 	0.95235 0.68074 0.61129 0.04200
H 	H 	0.96347 0.67733 0.56293 0.02000
C 	C 	0.92253 0.70437 0.62006 -0.10000
H 	H 	0.91317 0.71763 0.57823 0.06900
C 	C 	0.90681 0.70818 0.69123 0.03600
C 	C 	0.87591 0.73237 0.70925 0.08400
C 	C 	0.83577 0.76131 0.77845 0.03100
C 	C 	0.83222 0.77454 0.70502 0.03400
C 	C 	0.80711 0.80030 0.66850 0.05000
C 	C 	0.82459 0.82329 0.59851 -0.10600
H 	H 	0.85387 0.82373 0.57633 0.07900
C 	C 	0.79955 0.84532 0.56127 0.03900
H 	H 	0.81187 0.86073 0.51363 0.02900
C 	C 	0.75671 0.84537 0.59232 -0.11500
C 	C 	0.73937 0.82311 0.66259 0.03700
H 	H 	0.71037 0.82323 0.68483 0.03300
C 	C 	0.76427 0.80096 0.69993 -0.10900
H 	H 	0.75207 0.78593 0.74773 0.07100
C 	C 	0.72805 0.86637 0.54857 0.35100
C 	C 	0.81621 0.77066 0.84895 0.02600
C 	C 	0.79497 0.73074 0.90182 -0.08900
H 	H 	0.79367 0.69863 0.89183 0.04800
C 	C 	0.77576 0.73761 0.96868 0.01800
H 	H 	0.76097 0.71013 0.00413 0.03600
C 	C 	0.77813 0.78448 0.98386 -0.08100
C 	C 	0.80117 0.82523 0.93279 0.01500
H 	H 	0.80417 0.85793 0.94393 0.04500
C 	C 	0.81988 0.81788 0.86524 -0.08500
H 	H 	0.83527 0.84553 0.83013 0.06300
C 	C 	0.75215 0.79030 0.05222 0.30400
Zn	Zn	0.56087 0.03752 0.18624 1.21000
N 	N 	0.58619 0.02305 0.08500 -0.24700
N 	N 	0.52951 0.06818 0.11284 -0.25000
N 	N 	0.52471 0.08865 0.99670 -0.19900
H 	H 	0.52873 0.09117 0.94797 0.14900
O 	O 	0.35295 0.19349 0.91068 -0.46300
O 	O 	0.41213 0.22029 0.82041 -0.32200
O 	O 	0.38868 0.08477 0.42323 -0.37200
O 	O 	0.42698 0.16866 0.40134 -0.41700
C 	C 	0.61517 0.00065 0.07482 0.07900
H 	H 	0.62423 0.98757 0.11717 -0.00100
C 	C 	0.63240 0.99569 0.00595 -0.11800
H 	H 	0.65313 0.97977 0.00087 0.08000
C 	C 	0.61901 0.01408 0.94463 0.03900
H 	H 	0.63013 0.01067 0.89627 0.02100
C 	C 	0.58919 0.03771 0.95340 -0.09700
H 	H 	0.57983 0.05097 0.91157 0.06800
C 	C 	0.57347 0.04152 0.02457 0.03400
C 	C 	0.54257 0.06571 0.04259 0.08400
C 	C 	0.50243 0.09465 0.11179 0.03100
C 	C 	0.49888 0.10788 0.03836 0.03300
C 	C 	0.47377 0.13364 0.00184 0.05000
C 	C 	0.49125 0.15663 0.93185 -0.10500
H 	H 	0.52053 0.15707 0.90967 0.07900
C 	C 	0.46621 0.17866 0.89461 0.03900
H 	H 	0.47853 0.19407 0.84697 0.02900
C 	C 	0.42337 0.17871 0.92566 -0.11600
C 	C 	0.40603 0.15645 0.99593 0.04000
H 	H 	0.37703 0.15657 0.01817 0.03200
C 	C 	0.43093 0.13430 0.03327 -0.11000
H 	H 	0.41873 0.11927 0.08107 0.07100
C 	C 	0.39471 0.19971 0.88191 0.35100
C 	C 	0.48287 0.10400 0.18229 0.02500
C 	C 	0.46163 0.06408 0.23516 -0.08800
H 	H 	0.46033 0.03197 0.22517 0.04700
C 	C 	0.44242 0.07095 0.30202 0.01800
H 	H 	0.42763 0.04347 0.33747 0.03600
C 	C 	0.44479 0.11782 0.31720 -0.08000
C 	C 	0.46783 0.15857 0.26613 0.01400
H 	H 	0.47083 0.19127 0.27727 0.04500
C 	C 	0.48654 0.15122 0.19858 -0.08400
H 	H 	0.50193 0.17887 0.16347 0.06300
C 	C 	0.41881 0.12364 0.38556 0.30300
Zn	Zn	0.37085 0.14331 0.48043 1.21000
N 	N 	0.35638 0.10352 0.58167 -0.24800
N 	N 	0.40151 0.20533 0.55383 -0.25000
N 	N 	0.42198 0.23060 0.66997 -0.20000
H 	H 	0.42450 0.22910 0.71870 0.14900
O 	O 	0.52682 0.50720 0.75599 -0.46300
O 	O 	0.55362 0.47482 0.84626 -0.32200
O 	O 	0.41810 0.36275 0.24344 -0.37200
O 	O 	0.50199 0.40834 0.26533 -0.41700
C 	C 	0.33398 0.05214 0.59185 0.08300
H 	H 	0.32090 0.03000 0.54950 -0.00300
C 	C 	0.32902 0.02995 0.66072 -0.12100
H 	H 	0.31310 0.99330 0.66580 0.08100
C 	C 	0.34741 0.06173 0.72204 0.04100
H 	H 	0.34400 0.04720 0.77040 0.02000
C 	C 	0.37104 0.11518 0.71327 -0.10000
H 	H 	0.38430 0.13780 0.75510 0.06900
C 	C 	0.37485 0.13471 0.64210 0.03600
C 	C 	0.39904 0.18980 0.62408 0.08500
C 	C 	0.42798 0.25888 0.55488 0.03100
C 	C 	0.44121 0.27566 0.62831 0.03400
C 	C 	0.46697 0.32653 0.66483 0.05000
C 	C 	0.48996 0.33204 0.73482 -0.10600
H 	H 	0.49040 0.30320 0.75700 0.07900
C 	C 	0.51199 0.37911 0.77206 0.03900
H 	H 	0.52740 0.38220 0.81970 0.02900
C 	C 	0.51204 0.42200 0.74101 -0.11500
C 	C 	0.48978 0.41708 0.67074 0.03700
H 	H 	0.48990 0.44620 0.64850 0.03300
C 	C 	0.46763 0.37003 0.63340 -0.10900
H 	H 	0.45260 0.36720 0.58560 0.07100
C 	C 	0.53304 0.47166 0.78476 0.35100
C 	C 	0.43733 0.28779 0.48438 0.02500
C 	C 	0.39741 0.26911 0.43151 -0.08800
H 	H 	0.36530 0.23830 0.44150 0.04700
C 	C 	0.40428 0.29519 0.36465 0.01800
H 	H 	0.37680 0.28250 0.32920 0.03600
C 	C 	0.45115 0.33969 0.34947 -0.08100
C 	C 	0.49190 0.35740 0.40054 0.01500
H 	H 	0.52460 0.38710 0.38940 0.04500
C 	C 	0.48455 0.33134 0.46809 -0.08500
H 	H 	0.51220 0.34360 0.50320 0.06300
C 	C 	0.45697 0.37149 0.28111 0.30400
Zn	Zn	0.03752 0.47664 0.81376 1.21000
N 	N 	0.02305 0.43685 0.91500 -0.24700
N 	N 	0.06818 0.53866 0.88716 -0.25000
N 	N 	0.08865 0.56393 0.00330 -0.19900
H 	H 	0.09117 0.56243 0.05203 0.14900
O 	O 	0.19349 0.84053 0.08932 -0.46300
O 	O 	0.22029 0.80815 0.17959 -0.32200
O 	O 	0.08477 0.69608 0.57677 -0.37200
O 	O 	0.16866 0.74167 0.59866 -0.41700
C 	C 	0.00065 0.38547 0.92518 0.07900
H 	H 	0.98757 0.36333 0.88283 -0.00100
C 	C 	0.99569 0.36328 0.99405 -0.11700
H 	H 	0.97977 0.32663 0.99913 0.08000
C 	C 	0.01408 0.39506 0.05537 0.03800
H 	H 	0.01067 0.38053 0.10373 0.02200
C 	C 	0.03771 0.44851 0.04660 -0.09700
H 	H 	0.05097 0.47113 0.08843 0.06800
C 	C 	0.04152 0.46804 0.97543 0.03400
C 	C 	0.06571 0.52313 0.95741 0.08400
C 	C 	0.09465 0.59221 0.88821 0.03100
C 	C 	0.10788 0.60899 0.96164 0.03200
C 	C 	0.13364 0.65986 0.99816 0.05100
C 	C 	0.15663 0.66537 0.06815 -0.10600
H 	H 	0.15707 0.63653 0.09033 0.07900
C 	C 	0.17866 0.71244 0.10539 0.04000
H 	H 	0.19407 0.71553 0.15303 0.02800
C 	C 	0.17871 0.75533 0.07434 -0.11700
C 	C 	0.15645 0.75041 0.00407 0.04300
H 	H 	0.15657 0.77953 0.98183 0.03000
C 	C 	0.13430 0.70336 0.96673 -0.11300
H 	H 	0.11927 0.70053 0.91893 0.07200
C 	C 	0.19971 0.80499 0.11809 0.35200
C 	C 	0.10400 0.62112 0.81771 0.02500
C 	C 	0.06408 0.60244 0.76484 -0.08800
H 	H 	0.03197 0.57163 0.77483 0.04700
C 	C 	0.07095 0.62852 0.69798 0.01800
H 	H 	0.04347 0.61583 0.66253 0.03600
C 	C 	0.11782 0.67302 0.68280 -0.08000
C 	C 	0.15857 0.69073 0.73387 0.01400
H 	H 	0.19127 0.72043 0.72273 0.04500
C 	C 	0.15122 0.66467 0.80142 -0.08400
H 	H 	0.17887 0.67693 0.83653 0.06300
C 	C 	0.12364 0.70482 0.61444 0.30300
Zn	Zn	0.70418 0.80998 0.14710 1.21000
N 	N 	0.68971 0.77019 0.24834 -0.24800
N 	N 	0.73484 0.87200 0.22050 -0.25000
N 	N 	0.75531 0.89727 0.33664 -0.20000
H 	H 	0.75783 0.89577 0.38537 0.14900
O 	O 	0.86015 0.17387 0.42266 -0.46300
O 	O 	0.88695 0.14149 0.51293 -0.32200
O 	O 	0.75143 0.02942 0.91011 -0.37300
O 	O 	0.83532 0.07501 0.93200 -0.41700
C 	C 	0.66731 0.71881 0.25852 0.08400
H 	H 	0.65423 0.69667 0.21617 -0.00300
C 	C 	0.66235 0.69662 0.32739 -0.12200
H 	H 	0.64643 0.65997 0.33247 0.08200
C 	C 	0.68074 0.72840 0.38871 0.04200
H 	H 	0.67733 0.71387 0.43707 0.02000
C 	C 	0.70437 0.78185 0.37994 -0.10000
H 	H 	0.71763 0.80447 0.42177 0.06900
C 	C 	0.70818 0.80138 0.30877 0.03600
C 	C 	0.73237 0.85647 0.29075 0.08400
C 	C 	0.76131 0.92555 0.22155 0.03100
C 	C 	0.77454 0.94233 0.29498 0.03400
C 	C 	0.80030 0.99320 0.33150 0.05100
C 	C 	0.82329 0.99871 0.40149 -0.10600
H 	H 	0.82373 0.96987 0.42367 0.07900
C 	C 	0.84532 0.04578 0.43873 0.03800
H 	H 	0.86073 0.04887 0.48637 0.02900
C 	C 	0.84537 0.08867 0.40768 -0.11500
C 	C 	0.82311 0.08375 0.33741 0.03800
H 	H 	0.82323 0.11287 0.31517 0.03300
C 	C 	0.80096 0.03670 0.30007 -0.10900
H 	H 	0.78593 0.03387 0.25227 0.07100
C 	C 	0.86637 0.13833 0.45143 0.35100
C 	C 	0.77066 0.95446 0.15105 0.02500
C 	C 	0.73074 0.93578 0.09818 -0.09000
H 	H 	0.69863 0.90497 0.10817 0.04800
C 	C 	0.73761 0.96186 0.03132 0.02200
H 	H 	0.71013 0.94917 0.99587 0.03400
C 	C 	0.78448 0.00636 0.01614 -0.08400
C 	C 	0.82523 0.02407 0.06721 0.01400
H 	H 	0.85793 0.05377 0.05607 0.04500
C 	C 	0.81788 0.99801 0.13476 -0.08300
H 	H 	0.84553 0.01027 0.16987 0.06200
C 	C 	0.79030 0.03816 0.94778 0.30600
Zn	Zn	0.85669 0.22754 0.48043 1.21000
N 	N 	0.89648 0.25286 0.58167 -0.24800
N 	N 	0.79467 0.19618 0.55383 -0.25000
N 	N 	0.76940 0.19138 0.66997 -0.20000
H 	H 	0.77090 0.19540 0.71870 0.14900
O 	O 	0.49280 0.01962 0.75599 -0.46300
O 	O 	0.52518 0.07880 0.84626 -0.32200
O 	O 	0.63725 0.05535 0.24344 -0.37300
O 	O 	0.59166 0.09365 0.26533 -0.41700
C 	C 	0.94786 0.28184 0.59185 0.08300
H 	H 	0.97000 0.29090 0.54950 -0.00300
C 	C 	0.97005 0.29907 0.66072 -0.12100
H 	H 	0.00670 0.31980 0.66580 0.08100
C 	C 	0.93827 0.28568 0.72204 0.04100
H 	H 	0.95280 0.29680 0.77040 0.02100
C 	C 	0.88482 0.25586 0.71327 -0.10000
H 	H 	0.86220 0.24650 0.75510 0.06900
C 	C 	0.86529 0.24014 0.64210 0.03600
C 	C 	0.81020 0.20924 0.62408 0.08500
C 	C 	0.74112 0.16910 0.55488 0.03100
C 	C 	0.72434 0.16555 0.62831 0.03400
C 	C 	0.67347 0.14044 0.66483 0.05000
C 	C 	0.66796 0.15792 0.73482 -0.10600
H 	H 	0.69680 0.18720 0.75700 0.07900
C 	C 	0.62089 0.13288 0.77206 0.03900
H 	H 	0.61780 0.14520 0.81970 0.02900
C 	C 	0.57800 0.09004 0.74101 -0.11500
C 	C 	0.58292 0.07270 0.67074 0.03700
H 	H 	0.55380 0.04370 0.64850 0.03300
C 	C 	0.62997 0.09760 0.63340 -0.10900
H 	H 	0.63280 0.08540 0.58560 0.07100
C 	C 	0.52834 0.06138 0.78476 0.35100
C 	C 	0.71221 0.14954 0.48438 0.02500
C 	C 	0.73089 0.12830 0.43151 -0.08800
H 	H 	0.76170 0.12700 0.44150 0.04700
C 	C 	0.70481 0.10909 0.36465 0.01800
H 	H 	0.71750 0.09430 0.32920 0.03600
C 	C 	0.66031 0.11146 0.34947 -0.08100
C 	C 	0.64260 0.13450 0.40054 0.01500
H 	H 	0.61290 0.13750 0.38940 0.04500
C 	C 	0.66866 0.15321 0.46809 -0.08500
H 	H 	0.65640 0.16860 0.50320 0.06300
C 	C 	0.62851 0.08548 0.28111 0.30400
Zn	Zn	0.52336 0.56087 0.81376 1.21000
N 	N 	0.56315 0.58619 0.91500 -0.24800
N 	N 	0.46134 0.52951 0.88716 -0.25000
N 	N 	0.43607 0.52471 0.00330 -0.20000
H 	H 	0.43757 0.52873 0.05203 0.14900
O 	O 	0.15947 0.35295 0.08932 -0.46300
O 	O 	0.19185 0.41213 0.17959 -0.32200
O 	O 	0.30392 0.38868 0.57677 -0.37200
O 	O 	0.25833 0.42698 0.59866 -0.41700
C 	C 	0.61453 0.61517 0.92518 0.08400
H 	H 	0.63667 0.62423 0.88283 -0.00300
C 	C 	0.63672 0.63240 0.99405 -0.12200
H 	H 	0.67337 0.65313 0.99913 0.08200
C 	C 	0.60494 0.61901 0.05537 0.04200
H 	H 	0.61947 0.63013 0.10373 0.02000
C 	C 	0.55149 0.58919 0.04660 -0.10000
H 	H 	0.52887 0.57983 0.08843 0.06900
C 	C 	0.53196 0.57347 0.97543 0.03600
C 	C 	0.47687 0.54257 0.95741 0.08400
C 	C 	0.40779 0.50243 0.88821 0.03100
C 	C 	0.39101 0.49888 0.96164 0.03300
C 	C 	0.34014 0.47377 0.99816 0.05000
C 	C 	0.33463 0.49125 0.06815 -0.10600
H 	H 	0.36347 0.52053 0.09033 0.07900
C 	C 	0.28756 0.46621 0.10539 0.03900
H 	H 	0.28447 0.47853 0.15303 0.02900
C 	C 	0.24467 0.42337 0.07434 -0.11600
C 	C 	0.24959 0.40603 0.00407 0.03900
H 	H 	0.22047 0.37703 0.98183 0.03200
C 	C 	0.29664 0.43093 0.96673 -0.11000
H 	H 	0.29947 0.41873 0.91893 0.07100
C 	C 	0.19501 0.39471 0.11809 0.35100
C 	C 	0.37888 0.48287 0.81771 0.02500
C 	C 	0.39756 0.46163 0.76484 -0.08800
H 	H 	0.42837 0.46033 0.77483 0.04700
C 	C 	0.37148 0.44242 0.69798 0.01800
H 	H 	0.38417 0.42763 0.66253 0.03600
C 	C 	0.32698 0.44479 0.68280 -0.08100
C 	C 	0.30927 0.46783 0.73387 0.01400
H 	H 	0.27957 0.47083 0.72273 0.04500
C 	C 	0.33533 0.48654 0.80142 -0.08500
H 	H 	0.32307 0.50193 0.83653 0.06300
C 	C 	0.29518 0.41881 0.61444 0.30400
Zn	Zn	0.19002 0.89421 0.14710 1.21000
N 	N 	0.22981 0.91953 0.24834 -0.24800
N 	N 	0.12800 0.86285 0.22050 -0.25000
N 	N 	0.10273 0.85805 0.33664 -0.20000
H 	H 	0.10423 0.86207 0.38537 0.14900
O 	O 	0.82613 0.68629 0.42266 -0.46300
O 	O 	0.85851 0.74547 0.51293 -0.32200
O 	O 	0.97058 0.72202 0.91011 -0.37300
O 	O 	0.92499 0.76032 0.93200 -0.41700
C 	C 	0.28119 0.94851 0.25852 0.08400
H 	H 	0.30333 0.95757 0.21617 -0.00300
C 	C 	0.30338 0.96574 0.32739 -0.12200
H 	H 	0.34003 0.98647 0.33247 0.08200
C 	C 	0.27160 0.95235 0.38871 0.04200
H 	H 	0.28613 0.96347 0.43707 0.02000
C 	C 	0.21815 0.92253 0.37994 -0.10000
H 	H 	0.19553 0.91317 0.42177 0.06900
C 	C 	0.19862 0.90681 0.30877 0.03600
C 	C 	0.14353 0.87591 0.29075 0.08500
C 	C 	0.07445 0.83577 0.22155 0.03100
C 	C 	0.05767 0.83222 0.29498 0.03400
C 	C 	0.00680 0.80711 0.33150 0.05100
C 	C 	0.00129 0.82459 0.40149 -0.10600
H 	H 	0.03013 0.85387 0.42367 0.07900
C 	C 	0.95422 0.79955 0.43873 0.03900
H 	H 	0.95113 0.81187 0.48637 0.02900
C 	C 	0.91133 0.75671 0.40768 -0.11500
C 	C 	0.91625 0.73937 0.33741 0.03800
H 	H 	0.88713 0.71037 0.31517 0.03300
C 	C 	0.96330 0.76427 0.30007 -0.10900
H 	H 	0.96613 0.75207 0.25227 0.07100
C 	C 	0.86167 0.72805 0.45143 0.35100
C 	C 	0.04554 0.81621 0.15105 0.02600
C 	C 	0.06422 0.79497 0.09818 -0.09100
H 	H 	0.09503 0.79367 0.10817 0.04800
C 	C 	0.03814 0.77576 0.03132 0.02400
H 	H 	0.05083 0.76097 0.99587 0.03300
C 	C 	0.99364 0.77813 0.01614 -0.08400
C 	C 	0.97593 0.80117 0.06721 0.01400
H 	H 	0.94623 0.80417 0.05607 0.04500
C 	C 	0.00199 0.81988 0.13476 -0.08300
H 	H 	0.98973 0.83527 0.16987 0.06200
C 	C 	0.96184 0.75215 0.94778 0.30500
Zn	Zn	0.77246 0.62915 0.48043 1.21000
N 	N 	0.74714 0.64362 0.58167 -0.24800
N 	N 	0.80382 0.59849 0.55383 -0.25000
N 	N 	0.80862 0.57802 0.66997 -0.20000
H 	H 	0.80460 0.57550 0.71870 0.14900
O 	O 	0.98038 0.47318 0.75599 -0.46300
O 	O 	0.92120 0.44638 0.84626 -0.32200
O 	O 	0.94465 0.58190 0.24344 -0.37300
O 	O 	0.90635 0.49801 0.26533 -0.41700
C 	C 	0.71816 0.66602 0.59185 0.08400
H 	H 	0.70910 0.67910 0.54950 -0.00300
C 	C 	0.70093 0.67098 0.66072 -0.12200
H 	H 	0.68020 0.68690 0.66580 0.08200
C 	C 	0.71432 0.65259 0.72204 0.04200
H 	H 	0.70320 0.65600 0.77040 0.02000
C 	C 	0.74414 0.62896 0.71327 -0.10000
H 	H 	0.75350 0.61570 0.75510 0.06900
C 	C 	0.75986 0.62515 0.64210 0.03600
C 	C 	0.79076 0.60096 0.62408 0.08400
C 	C 	0.83090 0.57202 0.55488 0.03100
C 	C 	0.83445 0.55879 0.62831 0.03400
C 	C 	0.85956 0.53303 0.66483 0.05000
C 	C 	0.84208 0.51004 0.73482 -0.10600
H 	H 	0.81280 0.50960 0.75700 0.07900
C 	C 	0.86712 0.48801 0.77206 0.03900
H 	H 	0.85480 0.47260 0.81970 0.02900
C 	C 	0.90996 0.48796 0.74101 -0.11500
C 	C 	0.92730 0.51022 0.67074 0.03700
H 	H 	0.95630 0.51010 0.64850 0.03300
C 	C 	0.90240 0.53237 0.63340 -0.10900
H 	H 	0.91460 0.54740 0.58560 0.07100
C 	C 	0.93862 0.46696 0.78476 0.35100
C 	C 	0.85046 0.56267 0.48438 0.02500
C 	C 	0.87170 0.60259 0.43151 -0.08800
H 	H 	0.87300 0.63470 0.44150 0.04700
C 	C 	0.89091 0.59572 0.36465 0.01800
H 	H 	0.90570 0.62320 0.32920 0.03600
C 	C 	0.88854 0.54885 0.34947 -0.08100
C 	C 	0.86550 0.50810 0.40054 0.01500
H 	H 	0.86250 0.47540 0.38940 0.04500
C 	C 	0.84679 0.51545 0.46809 -0.08500
H 	H 	0.83140 0.48780 0.50320 0.06300
C 	C 	0.91452 0.54303 0.28111 0.30400
Zn	Zn	0.43913 0.96248 0.81376 1.21000
N 	N 	0.41381 0.97695 0.91500 -0.24700
N 	N 	0.47049 0.93182 0.88716 -0.25000
N 	N 	0.47529 0.91135 0.00330 -0.19900
H 	H 	0.47127 0.90883 0.05203 0.14900
O 	O 	0.64705 0.80651 0.08932 -0.46300
O 	O 	0.58787 0.77971 0.17959 -0.32200
O 	O 	0.61132 0.91523 0.57677 -0.37200
O 	O 	0.57302 0.83134 0.59866 -0.41700
C 	C 	0.38483 0.99935 0.92518 0.07900
H 	H 	0.37577 0.01243 0.88283 -0.00100
C 	C 	0.36760 0.00431 0.99405 -0.11800
H 	H 	0.34687 0.02023 0.99913 0.08000
C 	C 	0.38099 0.98592 0.05537 0.03900
H 	H 	0.36987 0.98933 0.10373 0.02100
C 	C 	0.41081 0.96229 0.04660 -0.09700
H 	H 	0.42017 0.94903 0.08843 0.06800
C 	C 	0.42653 0.95848 0.97543 0.03400
C 	C 	0.45743 0.93429 0.95741 0.08400
C 	C 	0.49757 0.90535 0.88821 0.03100
C 	C 	0.50112 0.89212 0.96164 0.03300
C 	C 	0.52623 0.86636 0.99816 0.05000
C 	C 	0.50875 0.84337 0.06815 -0.10500
H 	H 	0.47947 0.84293 0.09033 0.07900
C 	C 	0.53379 0.82134 0.10539 0.03900
H 	H 	0.52147 0.80593 0.15303 0.02900
C 	C 	0.57663 0.82129 0.07434 -0.11600
C 	C 	0.59397 0.84355 0.00407 0.04000
H 	H 	0.62297 0.84343 0.98183 0.03200
C 	C 	0.56907 0.86570 0.96673 -0.11000
H 	H 	0.58127 0.88073 0.91893 0.07100
C 	C 	0.60529 0.80029 0.11809 0.35100
C 	C 	0.51713 0.89600 0.81771 0.02500
C 	C 	0.53837 0.93592 0.76484 -0.08800
H 	H 	0.53967 0.96803 0.77483 0.04700
C 	C 	0.55758 0.92905 0.69798 0.01800
H 	H 	0.57237 0.95653 0.66253 0.03600
C 	C 	0.55521 0.88218 0.68280 -0.08000
C 	C 	0.53217 0.84143 0.73387 0.01400
H 	H 	0.52917 0.80873 0.72273 0.04500
C 	C 	0.51346 0.84878 0.80142 -0.08400
H 	H 	0.49807 0.82113 0.83653 0.06300
C 	C 	0.58119 0.87636 0.61444 0.30300
Zn	Zn	0.10579 0.29582 0.14710 1.21000
N 	N 	0.08047 0.31029 0.24834 -0.24800
N 	N 	0.13715 0.26516 0.22050 -0.25000
N 	N 	0.14195 0.24469 0.33664 -0.20000
H 	H 	0.13793 0.24217 0.38537 0.14900
O 	O 	0.31371 0.13985 0.42266 -0.46300
O 	O 	0.25453 0.11305 0.51293 -0.32200
O 	O 	0.27798 0.24857 0.91011 -0.37200
O 	O 	0.23968 0.16468 0.93200 -0.41700
C 	C 	0.05149 0.33269 0.25852 0.08400
H 	H 	0.04243 0.34577 0.21617 -0.00300
C 	C 	0.03426 0.33765 0.32739 -0.12200
H 	H 	0.01353 0.35357 0.33247 0.08200
C 	C 	0.04765 0.31926 0.38871 0.04200
H 	H 	0.03653 0.32267 0.43707 0.02000
C 	C 	0.07747 0.29563 0.37994 -0.10000
H 	H 	0.08683 0.28237 0.42177 0.06900
C 	C 	0.09319 0.29182 0.30877 0.03600
C 	C 	0.12409 0.26763 0.29075 0.08400
C 	C 	0.16423 0.23869 0.22155 0.03100
C 	C 	0.16778 0.22546 0.29498 0.03400
C 	C 	0.19289 0.19970 0.33150 0.05000
C 	C 	0.17541 0.17671 0.40149 -0.10600
H 	H 	0.14613 0.17627 0.42367 0.07900
C 	C 	0.20045 0.15468 0.43873 0.03900
H 	H 	0.18813 0.13927 0.48637 0.02900
C 	C 	0.24329 0.15463 0.40768 -0.11500
C 	C 	0.26063 0.17689 0.33741 0.03700
H 	H 	0.28963 0.17677 0.31517 0.03300
C 	C 	0.23573 0.19904 0.30007 -0.10900
H 	H 	0.24793 0.21407 0.25227 0.07100
C 	C 	0.27195 0.13363 0.45143 0.35100
C 	C 	0.18379 0.22934 0.15105 0.02600
C 	C 	0.20503 0.26926 0.09818 -0.08900
H 	H 	0.20633 0.30137 0.10817 0.04800
C 	C 	0.22424 0.26239 0.03132 0.01800
H 	H 	0.23903 0.28987 0.99587 0.03600
C 	C 	0.22187 0.21552 0.01614 -0.08100
C 	C 	0.19883 0.17477 0.06721 0.01500
H 	H 	0.19583 0.14207 0.05607 0.04500
C 	C 	0.18012 0.18212 0.13476 -0.08500
H 	H 	0.16473 0.15447 0.16987 0.06300
C 	C 	0.24785 0.20970 0.94778 0.30400
