data_crystal

_cell_length_a 19.51900
_cell_length_b 19.94300
_cell_length_c 32.10600
_cell_angle_alpha 76.68700
_cell_angle_beta  83.42500
_cell_angle_gamma 61.03400

_symmetry_space_group_name_	'P 1'
_symmetry_space_group_name_H-M	'P 1'

loop_
_symmetry_equiv_pos_as_xyz
  x,y,z

loop_
_atom_site_label
_atom_site_type_symbol
_atom_site_fract_x
_atom_site_fract_y
_atom_site_fract_z
_atom_site_charge
Ba	Ba	0.55791 0.74026 0.06966 1.89600
Ba	Ba	0.70829 0.68652 0.16930 1.73500
Ba	Ba	0.61014 0.66507 0.29629 1.85600
Ba	Ba	0.68978 0.71711 0.39634 1.70400
Ba	Ba	0.66409 0.62086 0.52296 1.84500
Ba	Ba	0.77694 0.61500 0.63039 1.73000
Ba	Ba	0.65523 0.60195 0.75231 1.73500
Ba	Ba	0.63878 0.72576 0.84305 1.85100
Ba	Ba	0.70043 0.61470 0.97645 1.76500
O 	O 	0.19351 0.94690 0.19868 -0.33000
O 	O 	0.87898 0.24315 0.16029 -0.30100
O 	O 	0.91084 0.88962 0.22039 -0.29900
O 	O 	0.56247 0.74177 0.21672 -0.62600
O 	O 	0.55167 0.77445 0.14682 -0.64400
O 	O 	0.73271 0.69064 0.25095 -0.59600
O 	O 	0.69527 0.73970 0.31053 -0.59500
O 	O 	0.65333 0.58568 0.06087 -0.60800
O 	O 	0.67394 0.60799 0.12182 -0.59500
O 	O 	0.86632 0.22087 0.42923 -0.30100
O 	O 	0.94217 0.86957 0.45562 -0.30700
O 	O 	0.20400 0.97382 0.44636 -0.26500
O 	O 	0.67660 0.59181 0.37424 -0.60800
O 	O 	0.69886 0.57569 0.44288 -0.59500
O 	O 	0.76435 0.67365 0.47345 -0.62100
O 	O 	0.77088 0.66966 0.54245 -0.60800
O 	O 	0.57380 0.74267 0.45389 -0.57000
O 	O 	0.55180 0.78317 0.51448 -0.44900
O 	O 	0.26345 0.83388 0.65467 -0.30400
O 	O 	0.99618 0.78450 0.72064 -0.30700
O 	O 	0.95391 0.14438 0.66857 -0.28900
O 	O 	0.63353 0.65923 0.66871 -0.63100
O 	O 	0.62199 0.65661 0.60103 -0.58800
O 	O 	0.73008 0.68374 0.77330 -0.58100
O 	O 	0.77374 0.64069 0.71268 -0.57300
O 	O 	0.73220 0.46602 0.55000 -0.47200
O 	O 	0.78258 0.50874 0.59008 -0.56600
O 	O 	0.88734 0.21446 0.92191 -0.30000
O 	O 	0.20094 0.95558 0.93362 -0.30800
O 	O 	0.92295 0.86735 0.97440 -0.29400
O 	O 	0.68297 0.57243 0.83824 -0.62100
O 	O 	0.72828 0.58172 0.89521 -0.61000
O 	O 	0.56600 0.71777 0.92066 -0.61000
O 	O 	0.55151 0.73364 0.98732 -0.63500
O 	O 	0.69353 0.75162 0.08379 -0.61300
O 	O 	0.69750 0.71719 0.02224 -0.58900
O 	O 	0.45530 0.68601 0.11795 -0.29300
O 	O 	0.32640 0.74300 0.11794 -0.15600
O 	O 	0.39010 0.79188 0.07057 -0.28200
O 	O 	0.71650 0.56240 0.23048 -0.38700
O 	O 	0.66810 0.51383 0.28607 -0.33500
O 	O 	0.77720 0.43600 0.25558 -0.16700
O 	O 	0.49720 0.83920 0.29417 -0.24300
O 	O 	0.52240 0.88570 0.34471 -0.20800
O 	O 	0.54030 0.76640 0.35314 -0.39100
O 	O 	0.77780 0.49680 0.70046 -0.38900
O 	O 	0.80000 0.46230 0.76680 -0.27400
O 	O 	0.89190 0.39920 0.72974 -0.17300
O 	O 	0.48200 0.79541 0.82083 -0.32000
O 	O 	0.55890 0.75949 0.76568 -0.40900
O 	O 	0.42960 0.83830 0.75792 -0.17000
O 	O 	0.82940 0.63760 0.93098 -0.27700
O 	O 	0.71540 0.73176 0.90925 -0.40400
O 	O 	0.81020 0.70240 0.86657 -0.21900
N 	N 	0.39100 0.73920 0.10062 0.05500
N 	N 	0.71810 0.50580 0.25740 0.07600
N 	N 	0.51020 0.83530 0.33387 0.06600
N 	N 	0.82400 0.45860 0.72780 0.07300
N 	N 	0.49000 0.79730 0.78145 0.05400
N 	N 	0.78660 0.69000 0.90362 0.07400
C 	C 	0.06180 0.99460 0.17693 -0.26600
C 	C 	0.01400 0.07140 0.15819 0.30600
C 	C 	0.93670 0.10480 0.16413 -0.25200
C 	C 	0.90190 0.06290 0.19118 0.28600
C 	C 	0.94820 0.98800 0.21251 -0.24200
C 	C 	0.02910 0.95140 0.20413 0.30400
C 	C 	0.05010 0.12340 0.13307 -0.63300
H 	H 	0.10700 0.09140 0.13110 0.21300
H 	H 	0.02790 0.14610 0.10420 0.22100
H 	H 	0.03820 0.16550 0.14800 0.21600
C 	C 	0.81340 0.10070 0.19943 -0.61600
H 	H 	0.78810 0.15380 0.18210 0.20300
H 	H 	0.79230 0.06950 0.19170 0.20600
H 	H 	0.80310 0.10300 0.22980 0.20700
C 	C 	0.08170 0.86750 0.22513 -0.65900
H 	H 	0.05010 0.84580 0.24300 0.23300
H 	H 	0.10880 0.83670 0.20300 0.21800
H 	H 	0.12030 0.86560 0.24300 0.22800
C 	C 	0.14640 0.95570 0.16495 0.19200
H 	H 	0.16140 0.90370 0.15910 -0.02500
H 	H 	0.15560 0.98750 0.13850 -0.03800
C 	C 	0.27130 0.90740 0.19356 0.36900
C 	C 	0.31630 0.87660 0.22949 -0.38700
H 	H 	0.29200 0.88510 0.25650 0.15200
C 	C 	0.39680 0.83330 0.22695 0.27900
H 	H 	0.42630 0.80850 0.25270 -0.10100
C 	C 	0.43650 0.82460 0.18761 -0.39300
C 	C 	0.38940 0.86100 0.15209 0.31000
H 	H 	0.41380 0.85950 0.12470 -0.12100
C 	C 	0.30900 0.89960 0.15384 -0.38700
H 	H 	0.27920 0.92080 0.12830 0.15500
C 	C 	0.52100 0.77770 0.18349 0.54500
C 	C 	0.91470 0.94270 0.24321 0.14900
H 	H 	0.94860 0.91300 0.26870 -0.00700
H 	H 	0.86180 0.97840 0.25260 -0.01800
C 	C 	0.87160 0.84900 0.23730 0.31200
C 	C 	0.82060 0.86570 0.27319 -0.31900
H 	H 	0.81750 0.90190 0.28900 0.12100
C 	C 	0.77560 0.82760 0.28447 0.20700
H 	H 	0.73760 0.84150 0.30660 -0.08600
C 	C 	0.78510 0.77020 0.26403 -0.31700
C 	C 	0.83710 0.75440 0.22935 0.21800
H 	H 	0.84210 0.71650 0.21430 -0.11100
C 	C 	0.88110 0.79260 0.21662 -0.34100
H 	H 	0.91760 0.77980 0.19370 0.13400
C 	C 	0.73490 0.72950 0.27598 0.45100
C 	C 	0.88450 0.18600 0.13787 0.16800
H 	H 	0.90750 0.19280 0.10910 -0.02900
H 	H 	0.83180 0.19220 0.13450 -0.03200
C 	C 	0.83530 0.31950 0.14148 0.32500
C 	C 	0.79440 0.34510 0.10299 -0.33500
H 	H 	0.79810 0.30840 0.08740 0.12400
C 	C 	0.74820 0.42510 0.08782 0.21600
H 	H 	0.72130 0.44300 0.06140 -0.09900
C 	C 	0.74150 0.47810 0.11088 -0.32000
C 	C 	0.78280 0.45130 0.14968 0.23500
H 	H 	0.77850 0.48720 0.16610 -0.07700
C 	C 	0.82890 0.37340 0.16308 -0.35100
H 	H 	0.85790 0.35560 0.18870 0.15300
C 	C 	0.68680 0.56450 0.09653 0.46500
C 	C 	0.94610 0.09790 0.41195 -0.24200
C 	C 	0.92000 0.04680 0.43630 0.27300
C 	C 	0.97310 0.97140 0.45641 -0.23900
C 	C 	0.05010 0.94770 0.44987 0.27900
C 	C 	0.07900 0.99700 0.42564 -0.21900
C 	C 	0.02420 0.07470 0.40716 0.29900
C 	C 	0.83090 0.07450 0.44093 -0.62300
H 	H 	0.80200 0.12840 0.42500 0.21900
H 	H 	0.81820 0.04040 0.42950 0.20800
H 	H 	0.81610 0.07240 0.47120 0.21600
C 	C 	0.11180 0.86520 0.47137 -0.63300
H 	H 	0.16440 0.85830 0.46300 0.21200
H 	H 	0.10620 0.85920 0.50250 0.23000
H 	H 	0.10410 0.82570 0.46220 0.21300
C 	C 	0.05240 0.13110 0.38521 -0.66800
H 	H 	0.10980 0.10430 0.38470 0.21800
H 	H 	0.03260 0.15220 0.35580 0.23000
H 	H 	0.03340 0.17400 0.40060 0.21600
C 	C 	0.88530 0.18140 0.39434 0.15000
H 	H 	0.90700 0.20600 0.37000 -0.01200
H 	H 	0.83830 0.18270 0.38460 -0.01000
C 	C 	0.81870 0.30140 0.42190 0.31700
C 	C 	0.79090 0.34860 0.38324 -0.34500
H 	H 	0.79930 0.32680 0.35860 0.14500
C 	C 	0.75030 0.42830 0.38023 0.22200
H 	H 	0.72910 0.46070 0.35330 -0.06000
C 	C 	0.73920 0.46350 0.41470 -0.32200
C 	C 	0.76860 0.41340 0.45452 0.20100
H 	H 	0.76160 0.43440 0.47930 -0.05600
C 	C 	0.80760 0.33350 0.45717 -0.32400
H 	H 	0.82720 0.30000 0.48410 0.13400
C 	C 	0.70230 0.54870 0.41069 0.47600
C 	C 	0.94660 0.91550 0.48324 0.14700
H 	H 	0.98420 0.88080 0.50670 -0.00800
H 	H 	0.89460 0.94480 0.49600 -0.00500
C 	C 	0.90790 0.82420 0.47046 0.34800
C 	C 	0.87770 0.81560 0.51115 -0.35400
H 	H 	0.88040 0.84230 0.53140 0.13900
C 	C 	0.84240 0.76580 0.52231 0.23200
H 	H 	0.82400 0.75720 0.55070 -0.10400
C 	C 	0.83450 0.72990 0.49269 -0.35200
C 	C 	0.86550 0.74120 0.45187 0.26000
H 	H 	0.86170 0.71620 0.43100 -0.12000
C 	C 	0.90060 0.78690 0.44139 -0.38300
H 	H 	0.92090 0.79340 0.41330 0.14900
C 	C 	0.78600 0.68820 0.50381 0.49600
C 	C 	0.17050 0.96380 0.41147 0.10700
H 	H 	0.19470 0.90810 0.40950 -0.01800
H 	H 	0.17650 0.99460 0.38370 -0.01700
C 	C 	0.28590 0.92810 0.45046 0.22700
C 	C 	0.31680 0.93190 0.48612 -0.22000
H 	H 	0.28290 0.96630 0.50420 0.09800
C 	C 	0.39780 0.88580 0.49634 0.08400
H 	H 	0.41900 0.88780 0.52090 0.00200
C 	C 	0.44410 0.83750 0.46796 -0.16800
C 	C 	0.40980 0.84010 0.42922 0.08000
H 	H 	0.44320 0.81100 0.40880 0.00400
C 	C 	0.32750 0.88510 0.42092 -0.22700
H 	H 	0.30420 0.88470 0.39670 0.09900
C 	C 	0.53190 0.78560 0.48044 0.38300
C 	C 	0.14530 0.89690 0.69381 -0.26600
C 	C 	0.09600 0.97410 0.67271 0.29900
C 	C 	0.01730 0.00320 0.67617 -0.25900
C 	C 	0.98390 0.95960 0.70139 0.31600
C 	C 	0.03120 0.88410 0.72097 -0.25900
C 	C 	0.11400 0.84930 0.71573 0.32300
C 	C 	0.13370 0.02400 0.64699 -0.62800
H 	H 	0.19080 0.99270 0.64830 0.20700
H 	H 	0.11670 0.04060 0.61710 0.21700
H 	H 	0.11720 0.07020 0.65930 0.20700
C 	C 	0.89620 0.99560 0.70786 -0.66800
H 	H 	0.87120 0.04960 0.69170 0.22100
H 	H 	0.87650 0.96530 0.69780 0.21600
H 	H 	0.88390 0.99520 0.73840 0.23400
C 	C 	0.16520 0.76430 0.73276 -0.69100
H 	H 	0.13290 0.74050 0.74720 0.24700
H 	H 	0.19400 0.73850 0.70910 0.23600
H 	H 	0.20250 0.75810 0.75320 0.23000
C 	C 	0.23220 0.86480 0.69278 0.17700
H 	H 	0.24540 0.90670 0.69330 -0.03400
H 	H 	0.25570 0.82290 0.71830 -0.03600
C 	C 	0.34390 0.79470 0.65205 0.32900
C 	C 	0.39330 0.78970 0.68217 -0.36200
H 	H 	0.37230 0.81300 0.70650 0.15600
C 	C 	0.47320 0.75010 0.67593 0.25700
H 	H 	0.50700 0.74480 0.69690 -0.10000
C 	C 	0.50560 0.71810 0.64044 -0.37000
C 	C 	0.45540 0.72950 0.60972 0.27600
H 	H 	0.47650 0.71160 0.58390 -0.10200
C 	C 	0.37630 0.76580 0.61527 -0.36800
H 	H 	0.34320 0.77140 0.59380 0.14600
C 	C 	0.59150 0.67480 0.63690 0.48600
C 	C 	0.99870 0.83160 0.74708 0.16200
H 	H 	0.03250 0.79790 0.77220 -0.01100
H 	H 	0.94540 0.86390 0.75750 -0.02100
C 	C 	0.94400 0.75550 0.72944 0.32800
C 	C 	0.94240 0.71660 0.69970 -0.35700
H 	H 	0.97810 0.70890 0.67630 0.13600
C 	C 	0.88890 0.68870 0.70383 0.24600
H 	H 	0.88850 0.66110 0.68350 -0.12300
C 	C 	0.83580 0.70100 0.73770 -0.33800
C 	C 	0.83980 0.73810 0.76730 0.24500
H 	H 	0.80460 0.74500 0.79090 -0.07800
C 	C 	0.89360 0.76620 0.76437 -0.34300
H 	H 	0.89570 0.79170 0.78550 0.14000
C 	C 	0.77640 0.67260 0.74140 0.49000
C 	C 	0.96800 0.08140 0.64805 0.15400
H 	H 	0.99510 0.08610 0.62040 -0.00500
H 	H 	0.91730 0.08530 0.64220 -0.02300
C 	C 	0.91140 0.21840 0.64607 0.28100
C 	C 	0.90700 0.27750 0.66214 -0.29100
H 	H 	0.93250 0.26640 0.68820 0.13300
C 	C 	0.86490 0.35460 0.64030 0.16300
H 	H 	0.86240 0.39610 0.65130 -0.04200
C 	C 	0.82650 0.37110 0.60237 -0.24000
C 	C 	0.82110 0.31330 0.58922 0.13700
H 	H 	0.78800 0.32600 0.56600 -0.02200
C 	C 	0.86580 0.23320 0.61074 -0.26200
H 	H 	0.86460 0.19190 0.60150 0.10800
C 	C 	0.78160 0.45330 0.57886 0.40100
C 	C 	0.94140 0.08270 0.91572 -0.23900
C 	C 	0.01810 0.05540 0.90621 0.29900
C 	C 	0.07200 0.97930 0.92214 -0.24600
C 	C 	0.04780 0.93100 0.95178 0.27600
C 	C 	0.96910 0.96000 0.96302 -0.22800
C 	C 	0.91420 0.03410 0.94443 0.27300
C 	C 	0.04600 0.11280 0.87946 -0.63500
H 	H 	0.10280 0.08470 0.87510 0.21800
H 	H 	0.01980 0.13520 0.85160 0.22200
H 	H 	0.03320 0.15480 0.89460 0.21400
C 	C 	0.10800 0.84710 0.97252 -0.62000
H 	H 	0.16030 0.83620 0.96110 0.20700
H 	H 	0.10790 0.84230 0.00360 0.22400
H 	H 	0.09400 0.80960 0.96600 0.20400
C 	C 	0.82670 0.06140 0.95497 -0.63200
H 	H 	0.79540 0.11510 0.93930 0.22300
H 	H 	0.81080 0.02680 0.94650 0.21000
H 	H 	0.81820 0.05980 0.98580 0.22300
C 	C 	0.88210 0.16590 0.89609 0.14700
H 	H 	0.89530 0.18040 0.86580 -0.02200
H 	H 	0.82870 0.17150 0.89750 -0.01200
C 	C 	0.84690 0.29420 0.90730 0.33900
C 	C 	0.79530 0.32940 0.87324 -0.38100
H 	H 	0.78600 0.29910 0.85800 0.16400
C 	C 	0.75840 0.40910 0.86227 0.30300
H 	H 	0.72330 0.43380 0.83870 -0.10600
C 	C 	0.76930 0.45460 0.88323 -0.37200
C 	C 	0.81770 0.41930 0.91820 0.26500
H 	H 	0.82280 0.45090 0.93450 -0.12000
C 	C 	0.85930 0.33890 0.93027 -0.36700
H 	H 	0.89510 0.31470 0.95340 0.14100
C 	C 	0.72380 0.54310 0.87187 0.51200
C 	C 	0.15420 0.94730 0.90579 0.16900
H 	H 	0.17530 0.89150 0.90490 -0.03000
H 	H 	0.15550 0.97610 0.87640 -0.02500
C 	C 	0.28040 0.90610 0.93435 0.33000
C 	C 	0.32290 0.90890 0.96518 -0.37900
H 	H 	0.29700 0.94660 0.98280 0.14600
C 	C 	0.39900 0.85990 0.97047 0.28200
H 	H 	0.42580 0.86140 0.99290 -0.12900
C 	C 	0.44140 0.80530 0.94333 -0.36500
C 	C 	0.39950 0.80570 0.91123 0.23900
H 	H 	0.42600 0.77140 0.89180 -0.06800
C 	C 	0.31930 0.85530 0.90680 -0.34700
H 	H 	0.29140 0.85420 0.88480 0.13700
C 	C 	0.52440 0.74910 0.95020 0.51500
C 	C 	0.94400 0.90990 0.99657 0.13600
H 	H 	0.98740 0.87320 0.01680 -0.00200
H 	H 	0.89870 0.94300 0.01290 -0.00200
C 	C 	0.87630 0.83570 0.99440 0.30000
C 	C 	0.85030 0.83970 0.03696 -0.31500
H 	H 	0.86590 0.86300 0.05400 0.12800
C 	C 	0.79980 0.80720 0.05306 0.20500
H 	H 	0.78200 0.80810 0.08180 -0.08700
C 	C 	0.77580 0.77500 0.02896 -0.31700
C 	C 	0.80240 0.77340 0.98714 0.20500
H 	H 	0.78650 0.75040 0.97000 -0.04500
C 	C 	0.85140 0.80430 0.96985 -0.32400
H 	H 	0.86780 0.80370 0.94090 0.13800
C 	C 	0.71970 0.74450 0.04662 0.45900
Ba	Ba	0.44209 0.25974 0.93034 1.89700
Ba	Ba	0.29171 0.31348 0.83070 1.73600
Ba	Ba	0.38986 0.33493 0.70371 1.85700
Ba	Ba	0.31022 0.28289 0.60366 1.70500
Ba	Ba	0.33591 0.37914 0.47704 1.84600
Ba	Ba	0.22306 0.38500 0.36961 1.73100
Ba	Ba	0.34477 0.39805 0.24769 1.73600
Ba	Ba	0.36122 0.27424 0.15695 1.85200
Ba	Ba	0.29957 0.38530 0.02355 1.76600
O 	O 	0.80649 0.05310 0.80132 -0.32900
O 	O 	0.12102 0.75685 0.83971 -0.30100
O 	O 	0.08916 0.11038 0.77961 -0.29900
O 	O 	0.43753 0.25823 0.78328 -0.62600
O 	O 	0.44833 0.22555 0.85318 -0.64400
O 	O 	0.26729 0.30936 0.74905 -0.59600
O 	O 	0.30473 0.26030 0.68947 -0.59500
O 	O 	0.34667 0.41432 0.93913 -0.60800
O 	O 	0.32606 0.39201 0.87818 -0.59500
O 	O 	0.13368 0.77913 0.57077 -0.30100
O 	O 	0.05783 0.13043 0.54438 -0.30700
O 	O 	0.79600 0.02618 0.55364 -0.26500
O 	O 	0.32340 0.40819 0.62576 -0.60800
O 	O 	0.30114 0.42431 0.55712 -0.59500
O 	O 	0.23565 0.32635 0.52655 -0.62100
O 	O 	0.22912 0.33034 0.45755 -0.60800
O 	O 	0.42620 0.25733 0.54611 -0.57000
O 	O 	0.44820 0.21683 0.48552 -0.44900
O 	O 	0.73655 0.16612 0.34533 -0.30400
O 	O 	0.00382 0.21550 0.27936 -0.30700
O 	O 	0.04609 0.85562 0.33143 -0.28900
O 	O 	0.36647 0.34077 0.33129 -0.63100
O 	O 	0.37801 0.34339 0.39897 -0.58800
O 	O 	0.26992 0.31626 0.22670 -0.58100
O 	O 	0.22626 0.35931 0.28732 -0.57300
O 	O 	0.26780 0.53398 0.45000 -0.47200
O 	O 	0.21742 0.49126 0.40992 -0.56600
O 	O 	0.11266 0.78554 0.07809 -0.30000
O 	O 	0.79906 0.04442 0.06638 -0.30800
O 	O 	0.07705 0.13265 0.02560 -0.29400
O 	O 	0.31703 0.42757 0.16176 -0.62100
O 	O 	0.27172 0.41828 0.10479 -0.61000
O 	O 	0.43400 0.28223 0.07934 -0.61000
O 	O 	0.44849 0.26636 0.01268 -0.63500
O 	O 	0.30647 0.24838 0.91621 -0.61300
O 	O 	0.30250 0.28281 0.97776 -0.58900
O 	O 	0.54470 0.31399 0.88205 -0.29300
O 	O 	0.67360 0.25700 0.88206 -0.15600
O 	O 	0.60990 0.20812 0.92943 -0.28200
O 	O 	0.28350 0.43760 0.76952 -0.38700
O 	O 	0.33190 0.48617 0.71393 -0.33500
O 	O 	0.22280 0.56400 0.74442 -0.16700
O 	O 	0.50280 0.16080 0.70583 -0.24300
O 	O 	0.47760 0.11430 0.65529 -0.20800
O 	O 	0.45970 0.23360 0.64686 -0.39100
O 	O 	0.22220 0.50320 0.29954 -0.38900
O 	O 	0.20000 0.53770 0.23320 -0.27400
O 	O 	0.10810 0.60080 0.27026 -0.17300
O 	O 	0.51800 0.20459 0.17917 -0.32000
O 	O 	0.44110 0.24051 0.23432 -0.40900
O 	O 	0.57040 0.16170 0.24208 -0.17000
O 	O 	0.17060 0.36240 0.06902 -0.27700
O 	O 	0.28460 0.26824 0.09075 -0.40400
O 	O 	0.18980 0.29760 0.13343 -0.21900
N 	N 	0.60900 0.26080 0.89938 0.05500
N 	N 	0.28190 0.49420 0.74260 0.07600
N 	N 	0.48980 0.16470 0.66613 0.06600
N 	N 	0.17600 0.54140 0.27220 0.07300
N 	N 	0.51000 0.20270 0.21855 0.05400
N 	N 	0.21340 0.31000 0.09638 0.07400
C 	C 	0.93820 0.00540 0.82307 -0.26600
C 	C 	0.98600 0.92860 0.84181 0.30600
C 	C 	0.06330 0.89520 0.83587 -0.25200
C 	C 	0.09810 0.93710 0.80882 0.28600
C 	C 	0.05180 0.01200 0.78749 -0.24200
C 	C 	0.97090 0.04860 0.79587 0.30400
C 	C 	0.94990 0.87660 0.86693 -0.63300
H 	H 	0.89300 0.90860 0.86890 0.21300
H 	H 	0.97210 0.85390 0.89580 0.22100
H 	H 	0.96180 0.83450 0.85200 0.21600
C 	C 	0.18660 0.89930 0.80057 -0.61600
H 	H 	0.21190 0.84620 0.81790 0.20300
H 	H 	0.20770 0.93050 0.80830 0.20600
H 	H 	0.19690 0.89700 0.77020 0.20700
C 	C 	0.91830 0.13250 0.77487 -0.65900
H 	H 	0.94990 0.15420 0.75700 0.23300
H 	H 	0.89120 0.16330 0.79700 0.21800
H 	H 	0.87970 0.13440 0.75700 0.22800
C 	C 	0.85360 0.04430 0.83505 0.19200
H 	H 	0.83860 0.09630 0.84090 -0.02500
H 	H 	0.84440 0.01250 0.86150 -0.03800
C 	C 	0.72870 0.09260 0.80644 0.36900
C 	C 	0.68370 0.12340 0.77051 -0.38700
H 	H 	0.70800 0.11490 0.74350 0.15200
C 	C 	0.60320 0.16670 0.77305 0.27900
H 	H 	0.57370 0.19150 0.74730 -0.10100
C 	C 	0.56350 0.17540 0.81239 -0.39300
C 	C 	0.61060 0.13900 0.84791 0.31000
H 	H 	0.58620 0.14050 0.87530 -0.12100
C 	C 	0.69100 0.10040 0.84616 -0.38700
H 	H 	0.72080 0.07920 0.87170 0.15500
C 	C 	0.47900 0.22230 0.81651 0.54500
C 	C 	0.08530 0.05730 0.75679 0.14900
H 	H 	0.05140 0.08700 0.73130 -0.00700
H 	H 	0.13820 0.02160 0.74740 -0.01800
C 	C 	0.12840 0.15100 0.76270 0.31200
C 	C 	0.17940 0.13430 0.72681 -0.31900
H 	H 	0.18250 0.09810 0.71100 0.12100
C 	C 	0.22440 0.17240 0.71553 0.20700
H 	H 	0.26240 0.15850 0.69340 -0.08600
C 	C 	0.21490 0.22980 0.73597 -0.31700
C 	C 	0.16290 0.24560 0.77065 0.21800
H 	H 	0.15790 0.28350 0.78570 -0.11100
C 	C 	0.11890 0.20740 0.78338 -0.34100
H 	H 	0.08240 0.22020 0.80630 0.13400
C 	C 	0.26510 0.27050 0.72402 0.45100
C 	C 	0.11550 0.81400 0.86213 0.16800
H 	H 	0.09250 0.80720 0.89090 -0.02900
H 	H 	0.16820 0.80780 0.86550 -0.03200
C 	C 	0.16470 0.68050 0.85852 0.32500
C 	C 	0.20560 0.65490 0.89701 -0.33500
H 	H 	0.20190 0.69160 0.91260 0.12400
C 	C 	0.25180 0.57490 0.91218 0.21600
H 	H 	0.27870 0.55700 0.93860 -0.09900
C 	C 	0.25850 0.52190 0.88912 -0.32000
C 	C 	0.21720 0.54870 0.85032 0.23500
H 	H 	0.22150 0.51280 0.83390 -0.07700
C 	C 	0.17110 0.62660 0.83692 -0.35100
H 	H 	0.14210 0.64440 0.81130 0.15300
C 	C 	0.31320 0.43550 0.90347 0.46500
C 	C 	0.05390 0.90210 0.58805 -0.24200
C 	C 	0.08000 0.95320 0.56370 0.27300
C 	C 	0.02690 0.02860 0.54359 -0.23900
C 	C 	0.94990 0.05230 0.55013 0.27900
C 	C 	0.92100 0.00300 0.57436 -0.21900
C 	C 	0.97580 0.92530 0.59284 0.29900
C 	C 	0.16910 0.92550 0.55907 -0.62300
H 	H 	0.19800 0.87160 0.57500 0.21900
H 	H 	0.18180 0.95960 0.57050 0.20800
H 	H 	0.18390 0.92760 0.52880 0.21600
C 	C 	0.88820 0.13480 0.52863 -0.63300
H 	H 	0.83560 0.14170 0.53700 0.21200
H 	H 	0.89380 0.14080 0.49750 0.23000
H 	H 	0.89590 0.17430 0.53780 0.21300
C 	C 	0.94760 0.86890 0.61479 -0.66800
H 	H 	0.89020 0.89570 0.61530 0.21800
H 	H 	0.96740 0.84780 0.64420 0.23000
H 	H 	0.96660 0.82600 0.59940 0.21600
C 	C 	0.11470 0.81860 0.60566 0.15000
H 	H 	0.09300 0.79400 0.63000 -0.01200
H 	H 	0.16170 0.81730 0.61540 -0.01000
C 	C 	0.18130 0.69860 0.57810 0.31700
C 	C 	0.20910 0.65140 0.61676 -0.34500
H 	H 	0.20070 0.67320 0.64140 0.14500
C 	C 	0.24970 0.57170 0.61977 0.22200
H 	H 	0.27090 0.53930 0.64670 -0.06000
C 	C 	0.26080 0.53650 0.58530 -0.32200
C 	C 	0.23140 0.58660 0.54548 0.20100
H 	H 	0.23840 0.56560 0.52070 -0.05600
C 	C 	0.19240 0.66650 0.54283 -0.32400
H 	H 	0.17280 0.70000 0.51590 0.13400
C 	C 	0.29770 0.45130 0.58931 0.47600
C 	C 	0.05340 0.08450 0.51676 0.14700
H 	H 	0.01580 0.11920 0.49330 -0.00800
H 	H 	0.10540 0.05520 0.50400 -0.00500
C 	C 	0.09210 0.17580 0.52954 0.34800
C 	C 	0.12230 0.18440 0.48885 -0.35400
H 	H 	0.11960 0.15770 0.46860 0.13900
C 	C 	0.15760 0.23420 0.47769 0.23200
H 	H 	0.17600 0.24280 0.44930 -0.10400
C 	C 	0.16550 0.27010 0.50731 -0.35200
C 	C 	0.13450 0.25880 0.54813 0.26000
H 	H 	0.13830 0.28380 0.56900 -0.12000
C 	C 	0.09940 0.21310 0.55861 -0.38300
H 	H 	0.07910 0.20660 0.58670 0.14900
C 	C 	0.21400 0.31180 0.49619 0.49600
C 	C 	0.82950 0.03620 0.58853 0.10700
H 	H 	0.80530 0.09190 0.59050 -0.01800
H 	H 	0.82350 0.00540 0.61630 -0.01700
C 	C 	0.71410 0.07190 0.54954 0.22700
C 	C 	0.68320 0.06810 0.51388 -0.22000
H 	H 	0.71710 0.03370 0.49580 0.09800
C 	C 	0.60220 0.11420 0.50366 0.08400
H 	H 	0.58100 0.11220 0.47910 0.00200
C 	C 	0.55590 0.16250 0.53204 -0.16800
C 	C 	0.59020 0.15990 0.57078 0.08000
H 	H 	0.55680 0.18900 0.59120 0.00400
C 	C 	0.67250 0.11490 0.57908 -0.22700
H 	H 	0.69580 0.11530 0.60330 0.09900
C 	C 	0.46810 0.21440 0.51956 0.38300
C 	C 	0.85470 0.10310 0.30619 -0.26600
C 	C 	0.90400 0.02590 0.32729 0.29900
C 	C 	0.98270 0.99680 0.32383 -0.25900
C 	C 	0.01610 0.04040 0.29861 0.31600
C 	C 	0.96880 0.11590 0.27903 -0.25900
C 	C 	0.88600 0.15070 0.28427 0.32300
C 	C 	0.86630 0.97600 0.35301 -0.62800
H 	H 	0.80920 0.00730 0.35170 0.20700
H 	H 	0.88330 0.95940 0.38290 0.21700
H 	H 	0.88280 0.92980 0.34070 0.20700
C 	C 	0.10380 0.00440 0.29214 -0.66800
H 	H 	0.12880 0.95040 0.30830 0.22100
H 	H 	0.12350 0.03470 0.30220 0.21600
H 	H 	0.11610 0.00480 0.26160 0.23400
C 	C 	0.83480 0.23570 0.26724 -0.69100
H 	H 	0.86710 0.25950 0.25280 0.24700
H 	H 	0.80600 0.26150 0.29090 0.23600
H 	H 	0.79750 0.24190 0.24680 0.23000
C 	C 	0.76780 0.13520 0.30722 0.17700
H 	H 	0.75460 0.09330 0.30670 -0.03400
H 	H 	0.74430 0.17710 0.28170 -0.03600
C 	C 	0.65610 0.20530 0.34795 0.32900
C 	C 	0.60670 0.21030 0.31783 -0.36200
H 	H 	0.62770 0.18700 0.29350 0.15600
C 	C 	0.52680 0.24990 0.32407 0.25700
H 	H 	0.49300 0.25520 0.30310 -0.10000
C 	C 	0.49440 0.28190 0.35956 -0.37000
C 	C 	0.54460 0.27050 0.39028 0.27600
H 	H 	0.52350 0.28840 0.41610 -0.10200
C 	C 	0.62370 0.23420 0.38473 -0.36800
H 	H 	0.65680 0.22860 0.40620 0.14600
C 	C 	0.40850 0.32520 0.36310 0.48600
C 	C 	0.00130 0.16840 0.25292 0.16200
H 	H 	0.96750 0.20210 0.22780 -0.01100
H 	H 	0.05460 0.13610 0.24250 -0.02100
C 	C 	0.05600 0.24450 0.27056 0.32800
C 	C 	0.05760 0.28340 0.30030 -0.35700
H 	H 	0.02190 0.29110 0.32370 0.13600
C 	C 	0.11110 0.31130 0.29617 0.24600
H 	H 	0.11150 0.33890 0.31650 -0.12300
C 	C 	0.16420 0.29900 0.26230 -0.33800
C 	C 	0.16020 0.26190 0.23270 0.24500
H 	H 	0.19540 0.25500 0.20910 -0.07800
C 	C 	0.10640 0.23380 0.23563 -0.34300
H 	H 	0.10430 0.20830 0.21450 0.14000
C 	C 	0.22360 0.32740 0.25860 0.49000
C 	C 	0.03200 0.91860 0.35195 0.15400
H 	H 	0.00490 0.91390 0.37960 -0.00500
H 	H 	0.08270 0.91470 0.35780 -0.02300
C 	C 	0.08860 0.78160 0.35393 0.28100
C 	C 	0.09300 0.72250 0.33786 -0.29100
H 	H 	0.06750 0.73360 0.31180 0.13300
C 	C 	0.13510 0.64540 0.35970 0.16300
H 	H 	0.13760 0.60390 0.34870 -0.04200
C 	C 	0.17350 0.62890 0.39763 -0.24000
C 	C 	0.17890 0.68670 0.41078 0.13700
H 	H 	0.21200 0.67400 0.43400 -0.02200
C 	C 	0.13420 0.76680 0.38926 -0.26200
H 	H 	0.13540 0.80810 0.39850 0.10800
C 	C 	0.21840 0.54670 0.42114 0.40100
C 	C 	0.05860 0.91730 0.08428 -0.23900
C 	C 	0.98190 0.94460 0.09379 0.29900
C 	C 	0.92800 0.02070 0.07786 -0.24600
C 	C 	0.95220 0.06900 0.04822 0.27600
C 	C 	0.03090 0.04000 0.03698 -0.22800
C 	C 	0.08580 0.96590 0.05557 0.27300
C 	C 	0.95400 0.88720 0.12054 -0.63500
H 	H 	0.89720 0.91530 0.12490 0.21800
H 	H 	0.98020 0.86480 0.14840 0.22200
H 	H 	0.96680 0.84520 0.10540 0.21400
C 	C 	0.89200 0.15290 0.02748 -0.62000
H 	H 	0.83970 0.16380 0.03890 0.20700
H 	H 	0.89210 0.15770 0.99640 0.22400
H 	H 	0.90600 0.19040 0.03400 0.20400
C 	C 	0.17330 0.93860 0.04503 -0.63200
H 	H 	0.20460 0.88490 0.06070 0.22300
H 	H 	0.18920 0.97320 0.05350 0.21000
H 	H 	0.18180 0.94020 0.01420 0.22300
C 	C 	0.11790 0.83410 0.10391 0.14700
H 	H 	0.10470 0.81960 0.13420 -0.02200
H 	H 	0.17130 0.82850 0.10250 -0.01200
C 	C 	0.15310 0.70580 0.09270 0.33900
C 	C 	0.20470 0.67060 0.12676 -0.38100
H 	H 	0.21400 0.70090 0.14200 0.16400
C 	C 	0.24160 0.59090 0.13773 0.30300
H 	H 	0.27670 0.56620 0.16130 -0.10600
C 	C 	0.23070 0.54540 0.11677 -0.37200
C 	C 	0.18230 0.58070 0.08180 0.26500
H 	H 	0.17720 0.54910 0.06550 -0.12000
C 	C 	0.14070 0.66110 0.06973 -0.36700
H 	H 	0.10490 0.68530 0.04660 0.14100
C 	C 	0.27620 0.45690 0.12813 0.51200
C 	C 	0.84580 0.05270 0.09421 0.16900
H 	H 	0.82470 0.10850 0.09510 -0.03000
H 	H 	0.84450 0.02390 0.12360 -0.02500
C 	C 	0.71960 0.09390 0.06565 0.33000
C 	C 	0.67710 0.09110 0.03482 -0.37900
H 	H 	0.70300 0.05340 0.01720 0.14600
C 	C 	0.60100 0.14010 0.02953 0.28200
H 	H 	0.57420 0.13860 0.00710 -0.12900
C 	C 	0.55860 0.19470 0.05667 -0.36500
C 	C 	0.60050 0.19430 0.08877 0.23900
H 	H 	0.57400 0.22860 0.10820 -0.06800
C 	C 	0.68070 0.14470 0.09320 -0.34700
H 	H 	0.70860 0.14580 0.11520 0.13700
C 	C 	0.47560 0.25090 0.04980 0.51500
C 	C 	0.05600 0.09010 0.00343 0.13600
H 	H 	0.01260 0.12680 0.98320 -0.00200
H 	H 	0.10130 0.05700 0.98710 -0.00200
C 	C 	0.12370 0.16430 0.00560 0.30000
C 	C 	0.14970 0.16030 0.96304 -0.31500
H 	H 	0.13410 0.13700 0.94600 0.12800
C 	C 	0.20020 0.19280 0.94694 0.20500
H 	H 	0.21800 0.19190 0.91820 -0.08700
C 	C 	0.22420 0.22500 0.97104 -0.31700
C 	C 	0.19760 0.22660 0.01286 0.20500
H 	H 	0.21350 0.24960 0.03000 -0.04500
C 	C 	0.14860 0.19570 0.03015 -0.32400
H 	H 	0.13220 0.19630 0.05910 0.13800
C 	C 	0.28030 0.25550 0.95338 0.45900
