data_crystal

_cell_length_a 16.74600
_cell_length_b 34.09400
_cell_length_c 19.11400
_cell_angle_alpha 90.00000
_cell_angle_beta  104.32100
_cell_angle_gamma 90.00000

_symmetry_space_group_name_	'P 1'
_symmetry_space_group_name_H-M	'P 1'

loop_
_symmetry_equiv_pos_as_xyz
  x,y,z

loop_
_atom_site_label
_atom_site_type_symbol
_atom_site_fract_x
_atom_site_fract_y
_atom_site_fract_z
_atom_site_charge
Mg	Mg	0.51070 0.83232 0.53172 1.46300
Mg	Mg	0.29403 0.82238 0.48228 1.46900
Mg	Mg	0.00449 0.87504 0.49347 1.46300
Mg	Mg	0.20476 0.34618 0.03863 1.47500
O 	O 	0.39749 0.97587 0.17212 -0.29100
O 	O 	0.45717 0.86622 0.44583 -0.54700
O 	O 	0.32171 0.85838 0.40636 -0.53100
O 	O 	0.35688 0.96617 0.84183 -0.28900
O 	O 	0.32177 0.85958 0.56548 -0.55800
O 	O 	0.45896 0.86150 0.60329 -0.57700
O 	O 	0.46154 0.11985 0.04791 -0.28500
O 	O 	0.58687 0.29197 0.99159 -0.64800
O 	O 	0.69040 0.26994 0.07617 -0.47500
O 	O 	0.85385 0.97720 0.83368 -0.28700
O 	O 	0.95634 0.88950 0.57793 -0.56800
O 	O 	0.82275 0.87251 0.55672 -0.54600
O 	O 	0.96360 0.13467 0.00280 -0.28900
O 	O 	0.14700 0.29703 0.03680 -0.59300
O 	O 	0.01890 0.31718 0.99564 -0.57200
O 	O 	0.88527 0.99485 0.16216 -0.29100
O 	O 	0.75777 0.88571 0.38077 -0.50800
O 	O 	0.88845 0.88153 0.42489 -0.65400
O 	O 	0.68740 0.82777 0.46955 -0.63400
O 	O 	0.56709 0.80005 0.46649 -0.60700
O 	O 	0.05011 0.86140 0.40476 -0.60300
O 	O 	0.17636 0.84088 0.45246 -0.64700
C 	C 	0.35050 0.00665 0.05820 -0.23400
C 	C 	0.37470 0.98463 0.00430 0.28700
C 	C 	0.39860 0.00440 0.94878 -0.22700
C 	C 	0.39640 0.04497 0.94490 0.26100
C 	C 	0.37500 0.06678 0.00030 -0.23600
C 	C 	0.35410 0.04757 0.05740 0.28100
C 	C 	0.37520 0.94052 0.00610 -0.64300
H 	H 	0.35690 0.93140 0.04820 0.21500
H 	H 	0.33790 0.93040 0.96190 0.21800
H 	H 	0.43120 0.93100 0.00920 0.22100
C 	C 	0.41440 0.06660 0.87970 -0.60600
H 	H 	0.41010 0.09500 0.88630 0.20100
H 	H 	0.47020 0.06010 0.87590 0.20600
H 	H 	0.37430 0.05850 0.83550 0.20500
C 	C 	0.33530 0.07064 0.11890 -0.62600
H 	H 	0.32190 0.05250 0.15420 0.21200
H 	H 	0.38360 0.08630 0.14230 0.21200
H 	H 	0.28840 0.08810 0.10020 0.19800
C 	C 	0.32440 0.98499 0.11800 0.14800
H 	H 	0.28740 0.00160 0.13850 -0.00800
H 	H 	0.29460 0.96060 0.09900 -0.01800
C 	C 	0.39050 0.95137 0.22690 0.29600
C 	C 	0.46250 0.94002 0.27420 -0.29400
H 	H 	0.51340 0.94990 0.26800 0.13400
C 	C 	0.46290 0.91473 0.33040 0.18700
H 	H 	0.51370 0.90690 0.36170 -0.02400
C 	C 	0.38910 0.90061 0.34140 -0.25700
C 	C 	0.31620 0.91259 0.29430 0.19300
H 	H 	0.26530 0.90320 0.30110 -0.04600
C 	C 	0.31560 0.93770 0.23790 -0.30100
H 	H 	0.26490 0.94570 0.20670 0.13000
C 	C 	0.38900 0.87289 0.40210 0.49200
C 	C 	0.42880 0.98111 0.89390 0.12900
H 	H 	0.46180 0.99800 0.86950 0.00100
H 	H 	0.46390 0.95910 0.91760 0.00200
C 	C 	0.36920 0.94323 0.78750 0.30100
C 	C 	0.44580 0.93536 0.77440 -0.29800
H 	H 	0.49430 0.94650 0.80430 0.13400
C 	C 	0.45080 0.91095 0.71700 0.19300
H 	H 	0.50340 0.90510 0.70920 -0.03700
C 	C 	0.38210 0.89517 0.67180 -0.26900
C 	C 	0.30620 0.90397 0.68490 0.19300
H 	H 	0.25760 0.89360 0.65370 -0.04300
C 	C 	0.29930 0.92726 0.74190 -0.30000
H 	H 	0.24660 0.93240 0.75010 0.12700
C 	C 	0.38840 0.87017 0.60900 0.49500
C 	C 	0.38210 0.11056 0.00100 0.15500
H 	H 	0.37830 0.12060 0.95170 -0.03200
H 	H 	0.33750 0.12250 0.01950 -0.02400
C 	C 	0.49390 0.15655 0.04260 0.27900
C 	C 	0.45860 0.18510 0.99310 -0.29400
H 	H 	0.40690 0.18040 0.96010 0.11500
C 	C 	0.49850 0.22028 0.99190 0.17900
H 	H 	0.47450 0.23950 0.95700 -0.05500
C 	C 	0.57290 0.22824 0.04030 -0.23300
C 	C 	0.60700 0.19983 0.09120 0.15800
H 	H 	0.65760 0.20490 0.12550 -0.01800
C 	C 	0.56790 0.16426 0.09220 -0.27600
H 	H 	0.59190 0.14500 0.12700 0.12600
C 	C 	0.61890 0.26552 0.03650 0.40800
C 	C 	0.89720 0.01669 0.93740 -0.23800
C 	C 	0.87290 0.99918 0.99540 0.28500
C 	C 	0.84820 0.02443 0.04510 -0.22700
C 	C 	0.85450 0.06509 0.04020 0.27400
C 	C 	0.87510 0.08052 0.97990 -0.24500
C 	C 	0.89620 0.05752 0.92770 0.29200
C 	C 	0.87220 0.95519 0.00490 -0.63400
H 	H 	0.85340 0.94890 0.04830 0.21600
H 	H 	0.83470 0.94330 0.96260 0.21200
H 	H 	0.92790 0.94490 0.01000 0.21800
C 	C 	0.84170 0.09084 0.10180 -0.61500
H 	H 	0.82760 0.07430 0.13900 0.20600
H 	H 	0.89250 0.10530 0.12280 0.20900
H 	H 	0.79680 0.10940 0.08320 0.19600
C 	C 	0.91570 0.07530 0.86230 -0.64400
H 	H 	0.92920 0.05440 0.83190 0.21300
H 	H 	0.86780 0.09000 0.83500 0.20400
H 	H 	0.96290 0.09300 0.87730 0.21100
C 	C 	0.92630 0.99060 0.88630 0.14500
H 	H 	0.96310 0.00520 0.86220 -0.01200
H 	H 	0.95710 0.96800 0.91240 -0.00700
C 	C 	0.86690 0.95452 0.77800 0.30500
C 	C 	0.79590 0.94167 0.72830 -0.30600
H 	H 	0.74300 0.94810 0.73480 0.13100
C 	C 	0.80290 0.91995 0.67040 0.20300
H 	H 	0.75440 0.91030 0.63800 -0.04100
C 	C 	0.87920 0.91157 0.65760 -0.27800
C 	C 	0.94870 0.92453 0.70810 0.21200
H 	H 	0.00160 0.91830 0.70120 -0.04300
C 	C 	0.94350 0.94597 0.76740 -0.32400
H 	H 	0.99200 0.95480 0.80080 0.14900
C 	C 	0.88670 0.88957 0.59280 0.49200
C 	C 	0.81560 0.00611 0.10390 0.13100
H 	H 	0.78040 0.02510 0.12170 -0.00600
H 	H 	0.78200 0.98280 0.08510 -0.00900
C 	C 	0.86830 0.97152 0.21510 0.31800
C 	C 	0.78960 0.96635 0.22480 -0.33300
H 	H 	0.74400 0.97940 0.19420 0.15100
C 	C 	0.77810 0.94241 0.27870 0.21500
H 	H 	0.72420 0.93920 0.28550 -0.03700
C 	C 	0.84380 0.92266 0.32380 -0.29000
C 	C 	0.92250 0.93010 0.31490 0.21000
H 	H 	0.96900 0.91850 0.34720 -0.05700
C 	C 	0.93400 0.95373 0.26080 -0.32700
H 	H 	0.98800 0.95790 0.25480 0.13500
C 	C 	0.82920 0.89626 0.37960 0.46700
C 	C 	0.87880 0.12502 0.97400 0.16000
H 	H 	0.86000 0.13350 0.92300 -0.02500
H 	H 	0.84380 0.13770 0.00230 -0.02600
C 	C 	0.98440 0.17360 0.00560 0.28600
C 	C 	0.06730 0.18180 0.03590 -0.28900
H 	H 	0.10420 0.16120 0.05550 0.12600
C 	C 	0.09540 0.21950 0.03730 0.19200
H 	H 	0.15260 0.22480 0.05460 -0.03900
C 	C 	0.04090 0.25024 0.01360 -0.27300
C 	C 	0.95840 0.24245 0.98860 0.18300
H 	H 	0.92090 0.26350 0.97340 -0.03900
C 	C 	0.92840 0.20373 0.98510 -0.29000
H 	H 	0.87100 0.19850 0.96910 0.11700
C 	C 	0.07120 0.29138 0.01540 0.53100
C 	C 	0.63390 0.80102 0.45060 0.71000
C 	C 	0.65610 0.76660 0.40950 -1.00300
H 	H 	0.71040 0.77100 0.40020 0.30100
H 	H 	0.65750 0.74260 0.43800 0.31500
H 	H 	0.61480 0.76380 0.36340 0.31000
C 	C 	0.11720 0.84707 0.39920 0.74100
C 	C 	0.12710 0.83920 0.32520 -1.08300
H 	H 	0.07570 0.84540 0.28960 0.34100
H 	H 	0.17180 0.85540 0.31620 0.34100
H 	H 	0.14040 0.81140 0.32100 0.32700
Mg	Mg	0.48930 0.33232 0.96828 1.46400
Mg	Mg	0.70597 0.32238 0.01772 1.47000
Mg	Mg	0.99551 0.37504 0.00653 1.46400
Mg	Mg	0.79524 0.84618 0.46137 1.47600
O 	O 	0.60251 0.47587 0.32788 -0.29100
O 	O 	0.54283 0.36622 0.05417 -0.54700
O 	O 	0.67829 0.35838 0.09364 -0.53100
O 	O 	0.64312 0.46617 0.65817 -0.28800
O 	O 	0.67823 0.35958 0.93452 -0.55800
O 	O 	0.54104 0.36150 0.89671 -0.57700
O 	O 	0.53846 0.61985 0.45209 -0.28600
O 	O 	0.41313 0.79197 0.50841 -0.64900
O 	O 	0.30960 0.76994 0.42383 -0.47500
O 	O 	0.14615 0.47720 0.66632 -0.28700
O 	O 	0.04366 0.38950 0.92207 -0.56800
O 	O 	0.17725 0.37251 0.94328 -0.54600
O 	O 	0.03640 0.63467 0.49720 -0.28800
O 	O 	0.85300 0.79703 0.46320 -0.59300
O 	O 	0.98110 0.81718 0.50436 -0.57200
O 	O 	0.11473 0.49485 0.33784 -0.29300
O 	O 	0.24223 0.38571 0.11923 -0.50800
O 	O 	0.11155 0.38153 0.07511 -0.65400
O 	O 	0.31260 0.32777 0.03045 -0.63400
O 	O 	0.43291 0.30005 0.03351 -0.60700
O 	O 	0.94989 0.36140 0.09524 -0.60300
O 	O 	0.82364 0.34088 0.04754 -0.64700
C 	C 	0.64950 0.50665 0.44180 -0.23300
C 	C 	0.62530 0.48463 0.49570 0.28700
C 	C 	0.60140 0.50440 0.55122 -0.22800
C 	C 	0.60360 0.54497 0.55510 0.26000
C 	C 	0.62500 0.56678 0.49970 -0.23500
C 	C 	0.64590 0.54757 0.44260 0.28100
C 	C 	0.62480 0.44052 0.49390 -0.64700
H 	H 	0.64310 0.43140 0.45180 0.21600
H 	H 	0.66210 0.43040 0.53810 0.21900
H 	H 	0.56880 0.43100 0.49080 0.22200
C 	C 	0.58560 0.56660 0.62030 -0.60600
H 	H 	0.58990 0.59500 0.61370 0.20100
H 	H 	0.52980 0.56010 0.62410 0.20600
H 	H 	0.62570 0.55850 0.66450 0.20400
C 	C 	0.66470 0.57064 0.38110 -0.62600
H 	H 	0.67810 0.55250 0.34580 0.21200
H 	H 	0.61640 0.58630 0.35770 0.21200
H 	H 	0.71160 0.58810 0.39980 0.19800
C 	C 	0.67560 0.48499 0.38200 0.14600
H 	H 	0.71260 0.50160 0.36150 -0.00800
H 	H 	0.70540 0.46060 0.40100 -0.01800
C 	C 	0.60950 0.45137 0.27310 0.29600
C 	C 	0.53750 0.44002 0.22580 -0.29400
H 	H 	0.48660 0.44990 0.23200 0.13300
C 	C 	0.53710 0.41473 0.16960 0.18700
H 	H 	0.48630 0.40690 0.13830 -0.02400
C 	C 	0.61090 0.40061 0.15860 -0.25700
C 	C 	0.68380 0.41259 0.20570 0.19300
H 	H 	0.73470 0.40320 0.19890 -0.04600
C 	C 	0.68440 0.43770 0.26210 -0.30100
H 	H 	0.73510 0.44570 0.29330 0.13000
C 	C 	0.61100 0.37289 0.09790 0.49200
C 	C 	0.57120 0.48111 0.60610 0.13000
H 	H 	0.53820 0.49800 0.63050 0.00100
H 	H 	0.53610 0.45910 0.58240 0.00200
C 	C 	0.63080 0.44323 0.71250 0.30100
C 	C 	0.55420 0.43536 0.72560 -0.29700
H 	H 	0.50570 0.44650 0.69570 0.13500
C 	C 	0.54920 0.41095 0.78300 0.19300
H 	H 	0.49660 0.40510 0.79080 -0.03700
C 	C 	0.61790 0.39517 0.82820 -0.26900
C 	C 	0.69380 0.40397 0.81510 0.19300
H 	H 	0.74240 0.39360 0.84630 -0.04300
C 	C 	0.70070 0.42726 0.75810 -0.30000
H 	H 	0.75340 0.43240 0.74990 0.12700
C 	C 	0.61160 0.37017 0.89100 0.49500
C 	C 	0.61790 0.61056 0.49900 0.15700
H 	H 	0.62170 0.62060 0.54830 -0.03300
H 	H 	0.66250 0.62250 0.48050 -0.02400
C 	C 	0.50610 0.65655 0.45740 0.28000
C 	C 	0.54140 0.68510 0.50690 -0.29500
H 	H 	0.59310 0.68040 0.53990 0.11500
C 	C 	0.50150 0.72028 0.50810 0.17800
H 	H 	0.52550 0.73950 0.54300 -0.05500
C 	C 	0.42710 0.72824 0.45970 -0.23200
C 	C 	0.39300 0.69983 0.40880 0.15800
H 	H 	0.34240 0.70490 0.37450 -0.01800
C 	C 	0.43210 0.66426 0.40780 -0.27600
H 	H 	0.40810 0.64500 0.37300 0.12600
C 	C 	0.38110 0.76552 0.46350 0.40800
C 	C 	0.10280 0.51669 0.56260 -0.23800
C 	C 	0.12710 0.49918 0.50460 0.28500
C 	C 	0.15180 0.52443 0.45490 -0.22800
C 	C 	0.14550 0.56509 0.45980 0.27600
C 	C 	0.12490 0.58052 0.52010 -0.24600
C 	C 	0.10380 0.55752 0.57230 0.29200
C 	C 	0.12780 0.45519 0.49510 -0.63700
H 	H 	0.14660 0.44890 0.45170 0.21600
H 	H 	0.16530 0.44330 0.53740 0.21300
H 	H 	0.07210 0.44490 0.49000 0.21800
C 	C 	0.15830 0.59084 0.39820 -0.61800
H 	H 	0.17240 0.57430 0.36100 0.20700
H 	H 	0.10750 0.60530 0.37720 0.21000
H 	H 	0.20320 0.60940 0.41680 0.19700
C 	C 	0.08430 0.57530 0.63770 -0.64400
H 	H 	0.07080 0.55440 0.66810 0.21300
H 	H 	0.13220 0.59000 0.66500 0.20400
H 	H 	0.03710 0.59300 0.62270 0.21100
C 	C 	0.07370 0.49060 0.61370 0.14500
H 	H 	0.03690 0.50520 0.63780 -0.01100
H 	H 	0.04290 0.46800 0.58760 -0.00700
C 	C 	0.13310 0.45452 0.72200 0.30300
C 	C 	0.20410 0.44167 0.77170 -0.30500
H 	H 	0.25700 0.44810 0.76520 0.13000
C 	C 	0.19710 0.41995 0.82960 0.20200
H 	H 	0.24560 0.41030 0.86200 -0.04000
C 	C 	0.12080 0.41157 0.84240 -0.27600
C 	C 	0.05130 0.42453 0.79190 0.20700
H 	H 	0.99840 0.41830 0.79880 -0.04100
C 	C 	0.05650 0.44597 0.73260 -0.32200
H 	H 	0.00800 0.45480 0.69920 0.14800
C 	C 	0.11330 0.38957 0.90720 0.49100
C 	C 	0.18440 0.50611 0.39610 0.13600
H 	H 	0.21960 0.52510 0.37830 -0.00700
H 	H 	0.21800 0.48280 0.41490 -0.01200
C 	C 	0.13170 0.47152 0.28490 0.31900
C 	C 	0.21040 0.46635 0.27520 -0.33300
H 	H 	0.25600 0.47940 0.30580 0.15100
C 	C 	0.22190 0.44241 0.22130 0.21500
H 	H 	0.27580 0.43920 0.21450 -0.03800
C 	C 	0.15620 0.42266 0.17620 -0.29000
C 	C 	0.07750 0.43010 0.18510 0.21000
H 	H 	0.03100 0.41850 0.15280 -0.05700
C 	C 	0.06600 0.45373 0.23920 -0.32800
H 	H 	0.01200 0.45790 0.24520 0.13500
C 	C 	0.17080 0.39626 0.12040 0.46700
C 	C 	0.12120 0.62502 0.52600 0.15700
H 	H 	0.14000 0.63350 0.57700 -0.02500
H 	H 	0.15620 0.63770 0.49770 -0.02400
C 	C 	0.01560 0.67360 0.49440 0.28900
C 	C 	0.93270 0.68180 0.46410 -0.29200
H 	H 	0.89580 0.66120 0.44450 0.12600
C 	C 	0.90460 0.71950 0.46270 0.19300
H 	H 	0.84740 0.72480 0.44540 -0.04000
C 	C 	0.95910 0.75024 0.48640 -0.27400
C 	C 	0.04160 0.74245 0.51140 0.18300
H 	H 	0.07910 0.76350 0.52660 -0.04000
C 	C 	0.07160 0.70373 0.51490 -0.29300
H 	H 	0.12900 0.69850 0.53090 0.11700
C 	C 	0.92880 0.79138 0.48460 0.53100
C 	C 	0.36610 0.30102 0.04940 0.71000
C 	C 	0.34390 0.26660 0.09050 -1.00300
H 	H 	0.28960 0.27100 0.09980 0.30100
H 	H 	0.34250 0.24260 0.06200 0.31500
H 	H 	0.38520 0.26380 0.13660 0.31000
C 	C 	0.88280 0.34707 0.10080 0.74100
C 	C 	0.87290 0.33920 0.17480 -1.08300
H 	H 	0.92430 0.34540 0.21040 0.34100
H 	H 	0.82820 0.35540 0.18380 0.34100
H 	H 	0.85960 0.31140 0.17900 0.32600
Mg	Mg	0.48930 0.16768 0.46828 1.46400
Mg	Mg	0.70597 0.17762 0.51772 1.47000
Mg	Mg	0.99551 0.12496 0.50653 1.46400
Mg	Mg	0.79524 0.65382 0.96137 1.47600
O 	O 	0.60251 0.02413 0.82788 -0.29100
O 	O 	0.54283 0.13378 0.55417 -0.54700
O 	O 	0.67829 0.14162 0.59364 -0.53100
O 	O 	0.64312 0.03383 0.15817 -0.28900
O 	O 	0.67823 0.14042 0.43452 -0.55800
O 	O 	0.54104 0.13850 0.39671 -0.57700
O 	O 	0.53846 0.88015 0.95209 -0.28500
O 	O 	0.41313 0.70803 0.00841 -0.64800
O 	O 	0.30960 0.73006 0.92383 -0.47500
O 	O 	0.14615 0.02280 0.16632 -0.28700
O 	O 	0.04366 0.11050 0.42207 -0.56800
O 	O 	0.17725 0.12749 0.44328 -0.54600
O 	O 	0.03640 0.86533 0.99720 -0.28900
O 	O 	0.85300 0.70297 0.96320 -0.59300
O 	O 	0.98110 0.68282 0.00436 -0.57200
O 	O 	0.11473 0.00515 0.83784 -0.29100
O 	O 	0.24223 0.11429 0.61923 -0.50800
O 	O 	0.11155 0.11847 0.57511 -0.65400
O 	O 	0.31260 0.17223 0.53045 -0.63400
O 	O 	0.43291 0.19995 0.53351 -0.60700
O 	O 	0.94989 0.13860 0.59524 -0.60300
O 	O 	0.82364 0.15912 0.54754 -0.64700
C 	C 	0.64950 0.99335 0.94180 -0.23400
C 	C 	0.62530 0.01537 0.99570 0.28700
C 	C 	0.60140 0.99560 0.05122 -0.22700
C 	C 	0.60360 0.95503 0.05510 0.26100
C 	C 	0.62500 0.93322 0.99970 -0.23600
C 	C 	0.64590 0.95243 0.94260 0.28100
C 	C 	0.62480 0.05948 0.99390 -0.64300
H 	H 	0.64310 0.06860 0.95180 0.21500
H 	H 	0.66210 0.06960 0.03810 0.21800
H 	H 	0.56880 0.06900 0.99080 0.22100
C 	C 	0.58560 0.93340 0.12030 -0.60600
H 	H 	0.58990 0.90500 0.11370 0.20100
H 	H 	0.52980 0.93990 0.12410 0.20600
H 	H 	0.62570 0.94150 0.16450 0.20500
C 	C 	0.66470 0.92936 0.88110 -0.62600
H 	H 	0.67810 0.94750 0.84580 0.21200
H 	H 	0.61640 0.91370 0.85770 0.21200
H 	H 	0.71160 0.91190 0.89980 0.19800
C 	C 	0.67560 0.01501 0.88200 0.14800
H 	H 	0.71260 0.99840 0.86150 -0.00800
H 	H 	0.70540 0.03940 0.90100 -0.01800
C 	C 	0.60950 0.04863 0.77310 0.29600
C 	C 	0.53750 0.05998 0.72580 -0.29400
H 	H 	0.48660 0.05010 0.73200 0.13400
C 	C 	0.53710 0.08527 0.66960 0.18700
H 	H 	0.48630 0.09310 0.63830 -0.02400
C 	C 	0.61090 0.09939 0.65860 -0.25700
C 	C 	0.68380 0.08741 0.70570 0.19300
H 	H 	0.73470 0.09680 0.69890 -0.04600
C 	C 	0.68440 0.06230 0.76210 -0.30100
H 	H 	0.73510 0.05430 0.79330 0.13000
C 	C 	0.61100 0.12711 0.59790 0.49200
C 	C 	0.57120 0.01889 0.10610 0.12900
H 	H 	0.53820 0.00200 0.13050 0.00100
H 	H 	0.53610 0.04090 0.08240 0.00200
C 	C 	0.63080 0.05677 0.21250 0.30100
C 	C 	0.55420 0.06464 0.22560 -0.29800
H 	H 	0.50570 0.05350 0.19570 0.13400
C 	C 	0.54920 0.08905 0.28300 0.19300
H 	H 	0.49660 0.09490 0.29080 -0.03700
C 	C 	0.61790 0.10483 0.32820 -0.26900
C 	C 	0.69380 0.09603 0.31510 0.19300
H 	H 	0.74240 0.10640 0.34630 -0.04300
C 	C 	0.70070 0.07274 0.25810 -0.30000
H 	H 	0.75340 0.06760 0.24990 0.12700
C 	C 	0.61160 0.12983 0.39100 0.49500
C 	C 	0.61790 0.88944 0.99900 0.15500
H 	H 	0.62170 0.87940 0.04830 -0.03200
H 	H 	0.66250 0.87750 0.98050 -0.02400
C 	C 	0.50610 0.84345 0.95740 0.27900
C 	C 	0.54140 0.81490 0.00690 -0.29400
H 	H 	0.59310 0.81960 0.03990 0.11500
C 	C 	0.50150 0.77972 0.00810 0.17900
H 	H 	0.52550 0.76050 0.04300 -0.05500
C 	C 	0.42710 0.77176 0.95970 -0.23300
C 	C 	0.39300 0.80017 0.90880 0.15800
H 	H 	0.34240 0.79510 0.87450 -0.01800
C 	C 	0.43210 0.83574 0.90780 -0.27600
H 	H 	0.40810 0.85500 0.87300 0.12600
C 	C 	0.38110 0.73448 0.96350 0.40800
C 	C 	0.10280 0.98331 0.06260 -0.23800
C 	C 	0.12710 0.00082 0.00460 0.28500
C 	C 	0.15180 0.97557 0.95490 -0.22700
C 	C 	0.14550 0.93491 0.95980 0.27400
C 	C 	0.12490 0.91948 0.02010 -0.24500
C 	C 	0.10380 0.94248 0.07230 0.29200
C 	C 	0.12780 0.04481 0.99510 -0.63400
H 	H 	0.14660 0.05110 0.95170 0.21600
H 	H 	0.16530 0.05670 0.03740 0.21200
H 	H 	0.07210 0.05510 0.99000 0.21800
C 	C 	0.15830 0.90916 0.89820 -0.61500
H 	H 	0.17240 0.92570 0.86100 0.20600
H 	H 	0.10750 0.89470 0.87720 0.20900
H 	H 	0.20320 0.89060 0.91680 0.19600
C 	C 	0.08430 0.92470 0.13770 -0.64400
H 	H 	0.07080 0.94560 0.16810 0.21300
H 	H 	0.13220 0.91000 0.16500 0.20400
H 	H 	0.03710 0.90700 0.12270 0.21100
C 	C 	0.07370 0.00940 0.11370 0.14500
H 	H 	0.03690 0.99480 0.13780 -0.01200
H 	H 	0.04290 0.03200 0.08760 -0.00700
C 	C 	0.13310 0.04548 0.22200 0.30500
C 	C 	0.20410 0.05833 0.27170 -0.30600
H 	H 	0.25700 0.05190 0.26520 0.13100
C 	C 	0.19710 0.08005 0.32960 0.20300
H 	H 	0.24560 0.08970 0.36200 -0.04100
C 	C 	0.12080 0.08843 0.34240 -0.27800
C 	C 	0.05130 0.07547 0.29190 0.21200
H 	H 	0.99840 0.08170 0.29880 -0.04300
C 	C 	0.05650 0.05403 0.23260 -0.32400
H 	H 	0.00800 0.04520 0.19920 0.14900
C 	C 	0.11330 0.11043 0.40720 0.49200
C 	C 	0.18440 0.99389 0.89610 0.13100
H 	H 	0.21960 0.97490 0.87830 -0.00600
H 	H 	0.21800 0.01720 0.91490 -0.00900
C 	C 	0.13170 0.02848 0.78490 0.31800
C 	C 	0.21040 0.03365 0.77520 -0.33300
H 	H 	0.25600 0.02060 0.80580 0.15100
C 	C 	0.22190 0.05759 0.72130 0.21500
H 	H 	0.27580 0.06080 0.71450 -0.03700
C 	C 	0.15620 0.07734 0.67620 -0.29000
C 	C 	0.07750 0.06990 0.68510 0.21000
H 	H 	0.03100 0.08150 0.65280 -0.05700
C 	C 	0.06600 0.04627 0.73920 -0.32700
H 	H 	0.01200 0.04210 0.74520 0.13500
C 	C 	0.17080 0.10374 0.62040 0.46700
C 	C 	0.12120 0.87498 0.02600 0.16000
H 	H 	0.14000 0.86650 0.07700 -0.02500
H 	H 	0.15620 0.86230 0.99770 -0.02600
C 	C 	0.01560 0.82640 0.99440 0.28600
C 	C 	0.93270 0.81820 0.96410 -0.28900
H 	H 	0.89580 0.83880 0.94450 0.12600
C 	C 	0.90460 0.78050 0.96270 0.19200
H 	H 	0.84740 0.77520 0.94540 -0.03900
C 	C 	0.95910 0.74976 0.98640 -0.27300
C 	C 	0.04160 0.75755 0.01140 0.18300
H 	H 	0.07910 0.73650 0.02660 -0.03900
C 	C 	0.07160 0.79627 0.01490 -0.29000
H 	H 	0.12900 0.80150 0.03090 0.11700
C 	C 	0.92880 0.70862 0.98460 0.53100
C 	C 	0.36610 0.19898 0.54940 0.71000
C 	C 	0.34390 0.23340 0.59050 -1.00300
H 	H 	0.28960 0.22900 0.59980 0.30100
H 	H 	0.34250 0.25740 0.56200 0.31500
H 	H 	0.38520 0.23620 0.63660 0.31000
C 	C 	0.88280 0.15293 0.60080 0.74100
C 	C 	0.87290 0.16080 0.67480 -1.08300
H 	H 	0.92430 0.15460 0.71040 0.34100
H 	H 	0.82820 0.14460 0.68380 0.34100
H 	H 	0.85960 0.18860 0.67900 0.32700
Mg	Mg	0.51070 0.66768 0.03172 1.46400
Mg	Mg	0.29403 0.67762 0.98228 1.47000
Mg	Mg	0.00449 0.62496 0.99347 1.46400
Mg	Mg	0.20476 0.15382 0.53863 1.47600
O 	O 	0.39749 0.52413 0.67212 -0.29100
O 	O 	0.45717 0.63378 0.94583 -0.54700
O 	O 	0.32171 0.64162 0.90636 -0.53100
O 	O 	0.35688 0.53383 0.34183 -0.28800
O 	O 	0.32177 0.64042 0.06548 -0.55800
O 	O 	0.45896 0.63850 0.10329 -0.57700
O 	O 	0.46154 0.38015 0.54791 -0.28600
O 	O 	0.58687 0.20803 0.49159 -0.64900
O 	O 	0.69040 0.23006 0.57617 -0.47500
O 	O 	0.85385 0.52280 0.33368 -0.28700
O 	O 	0.95634 0.61050 0.07793 -0.56800
O 	O 	0.82275 0.62749 0.05672 -0.54600
O 	O 	0.96360 0.36533 0.50280 -0.28800
O 	O 	0.14700 0.20297 0.53680 -0.59300
O 	O 	0.01890 0.18282 0.49564 -0.57200
O 	O 	0.88527 0.50515 0.66216 -0.29300
O 	O 	0.75777 0.61429 0.88077 -0.50800
O 	O 	0.88845 0.61847 0.92489 -0.65400
O 	O 	0.68740 0.67223 0.96955 -0.63400
O 	O 	0.56709 0.69995 0.96649 -0.60700
O 	O 	0.05011 0.63860 0.90476 -0.60300
O 	O 	0.17636 0.65912 0.95246 -0.64700
C 	C 	0.35050 0.49335 0.55820 -0.23300
C 	C 	0.37470 0.51537 0.50430 0.28700
C 	C 	0.39860 0.49560 0.44878 -0.22800
C 	C 	0.39640 0.45503 0.44490 0.26000
C 	C 	0.37500 0.43322 0.50030 -0.23500
C 	C 	0.35410 0.45243 0.55740 0.28100
C 	C 	0.37520 0.55948 0.50610 -0.64700
H 	H 	0.35690 0.56860 0.54820 0.21600
H 	H 	0.33790 0.56960 0.46190 0.21900
H 	H 	0.43120 0.56900 0.50920 0.22200
C 	C 	0.41440 0.43340 0.37970 -0.60600
H 	H 	0.41010 0.40500 0.38630 0.20100
H 	H 	0.47020 0.43990 0.37590 0.20600
H 	H 	0.37430 0.44150 0.33550 0.20400
C 	C 	0.33530 0.42936 0.61890 -0.62600
H 	H 	0.32190 0.44750 0.65420 0.21200
H 	H 	0.38360 0.41370 0.64230 0.21200
H 	H 	0.28840 0.41190 0.60020 0.19800
C 	C 	0.32440 0.51501 0.61800 0.14600
H 	H 	0.28740 0.49840 0.63850 -0.00800
H 	H 	0.29460 0.53940 0.59900 -0.01800
C 	C 	0.39050 0.54863 0.72690 0.29600
C 	C 	0.46250 0.55998 0.77420 -0.29400
H 	H 	0.51340 0.55010 0.76800 0.13300
C 	C 	0.46290 0.58527 0.83040 0.18700
H 	H 	0.51370 0.59310 0.86170 -0.02400
C 	C 	0.38910 0.59939 0.84140 -0.25700
C 	C 	0.31620 0.58741 0.79430 0.19300
H 	H 	0.26530 0.59680 0.80110 -0.04600
C 	C 	0.31560 0.56230 0.73790 -0.30100
H 	H 	0.26490 0.55430 0.70670 0.13000
C 	C 	0.38900 0.62711 0.90210 0.49200
C 	C 	0.42880 0.51889 0.39390 0.13000
H 	H 	0.46180 0.50200 0.36950 0.00100
H 	H 	0.46390 0.54090 0.41760 0.00200
C 	C 	0.36920 0.55677 0.28750 0.30100
C 	C 	0.44580 0.56464 0.27440 -0.29700
H 	H 	0.49430 0.55350 0.30430 0.13500
C 	C 	0.45080 0.58905 0.21700 0.19300
H 	H 	0.50340 0.59490 0.20920 -0.03700
C 	C 	0.38210 0.60483 0.17180 -0.26900
C 	C 	0.30620 0.59603 0.18490 0.19300
H 	H 	0.25760 0.60640 0.15370 -0.04300
C 	C 	0.29930 0.57274 0.24190 -0.30000
H 	H 	0.24660 0.56760 0.25010 0.12700
C 	C 	0.38840 0.62983 0.10900 0.49500
C 	C 	0.38210 0.38944 0.50100 0.15700
H 	H 	0.37830 0.37940 0.45170 -0.03300
H 	H 	0.33750 0.37750 0.51950 -0.02400
C 	C 	0.49390 0.34345 0.54260 0.28000
C 	C 	0.45860 0.31490 0.49310 -0.29500
H 	H 	0.40690 0.31960 0.46010 0.11500
C 	C 	0.49850 0.27972 0.49190 0.17800
H 	H 	0.47450 0.26050 0.45700 -0.05500
C 	C 	0.57290 0.27176 0.54030 -0.23200
C 	C 	0.60700 0.30017 0.59120 0.15800
H 	H 	0.65760 0.29510 0.62550 -0.01800
C 	C 	0.56790 0.33574 0.59220 -0.27600
H 	H 	0.59190 0.35500 0.62700 0.12600
C 	C 	0.61890 0.23448 0.53650 0.40800
C 	C 	0.89720 0.48331 0.43740 -0.23800
C 	C 	0.87290 0.50082 0.49540 0.28500
C 	C 	0.84820 0.47557 0.54510 -0.22800
C 	C 	0.85450 0.43491 0.54020 0.27600
C 	C 	0.87510 0.41948 0.47990 -0.24600
C 	C 	0.89620 0.44248 0.42770 0.29200
C 	C 	0.87220 0.54481 0.50490 -0.63700
H 	H 	0.85340 0.55110 0.54830 0.21600
H 	H 	0.83470 0.55670 0.46260 0.21300
H 	H 	0.92790 0.55510 0.51000 0.21800
C 	C 	0.84170 0.40916 0.60180 -0.61800
H 	H 	0.82760 0.42570 0.63900 0.20700
H 	H 	0.89250 0.39470 0.62280 0.21000
H 	H 	0.79680 0.39060 0.58320 0.19700
C 	C 	0.91570 0.42470 0.36230 -0.64400
H 	H 	0.92920 0.44560 0.33190 0.21300
H 	H 	0.86780 0.41000 0.33500 0.20400
H 	H 	0.96290 0.40700 0.37730 0.21100
C 	C 	0.92630 0.50940 0.38630 0.14500
H 	H 	0.96310 0.49480 0.36220 -0.01100
H 	H 	0.95710 0.53200 0.41240 -0.00700
C 	C 	0.86690 0.54548 0.27800 0.30300
C 	C 	0.79590 0.55833 0.22830 -0.30500
H 	H 	0.74300 0.55190 0.23480 0.13000
C 	C 	0.80290 0.58005 0.17040 0.20200
H 	H 	0.75440 0.58970 0.13800 -0.04000
C 	C 	0.87920 0.58843 0.15760 -0.27600
C 	C 	0.94870 0.57547 0.20810 0.20700
H 	H 	0.00160 0.58170 0.20120 -0.04100
C 	C 	0.94350 0.55403 0.26740 -0.32200
H 	H 	0.99200 0.54520 0.30080 0.14800
C 	C 	0.88670 0.61043 0.09280 0.49100
C 	C 	0.81560 0.49389 0.60390 0.13600
H 	H 	0.78040 0.47490 0.62170 -0.00700
H 	H 	0.78200 0.51720 0.58510 -0.01200
C 	C 	0.86830 0.52848 0.71510 0.31900
C 	C 	0.78960 0.53365 0.72480 -0.33300
H 	H 	0.74400 0.52060 0.69420 0.15100
C 	C 	0.77810 0.55759 0.77870 0.21500
H 	H 	0.72420 0.56080 0.78550 -0.03800
C 	C 	0.84380 0.57734 0.82380 -0.29000
C 	C 	0.92250 0.56990 0.81490 0.21000
H 	H 	0.96900 0.58150 0.84720 -0.05700
C 	C 	0.93400 0.54627 0.76080 -0.32800
H 	H 	0.98800 0.54210 0.75480 0.13500
C 	C 	0.82920 0.60374 0.87960 0.46700
C 	C 	0.87880 0.37498 0.47400 0.15700
H 	H 	0.86000 0.36650 0.42300 -0.02500
H 	H 	0.84380 0.36230 0.50230 -0.02400
C 	C 	0.98440 0.32640 0.50560 0.28900
C 	C 	0.06730 0.31820 0.53590 -0.29200
H 	H 	0.10420 0.33880 0.55550 0.12600
C 	C 	0.09540 0.28050 0.53730 0.19300
H 	H 	0.15260 0.27520 0.55460 -0.04000
C 	C 	0.04090 0.24976 0.51360 -0.27400
C 	C 	0.95840 0.25755 0.48860 0.18300
H 	H 	0.92090 0.23650 0.47340 -0.04000
C 	C 	0.92840 0.29627 0.48510 -0.29300
H 	H 	0.87100 0.30150 0.46910 0.11700
C 	C 	0.07120 0.20862 0.51540 0.53100
C 	C 	0.63390 0.69898 0.95060 0.71000
C 	C 	0.65610 0.73340 0.90950 -1.00300
H 	H 	0.71040 0.72900 0.90020 0.30100
H 	H 	0.65750 0.75740 0.93800 0.31500
H 	H 	0.61480 0.73620 0.86340 0.31000
C 	C 	0.11720 0.65293 0.89920 0.74100
C 	C 	0.12710 0.66080 0.82520 -1.08300
H 	H 	0.07570 0.65460 0.78960 0.34100
H 	H 	0.17180 0.64460 0.81620 0.34100
H 	H 	0.14040 0.68860 0.82100 0.32600
