data_crystal

_cell_length_a 21.18700
_cell_length_b 21.18700
_cell_length_c 21.90000
_cell_angle_alpha 90.00000
_cell_angle_beta  90.00000
_cell_angle_gamma 120.00000

_symmetry_space_group_name_	'P 1'
_symmetry_space_group_name_H-M	'P 1'

loop_
_symmetry_equiv_pos_as_xyz
  x,y,z

loop_
_atom_site_label
_atom_site_type_symbol
_atom_site_fract_x
_atom_site_fract_y
_atom_site_fract_z
_atom_site_charge
Cu	Cu	0.46954 0.53956 0.00938 0.90500
C 	C 	0.40550 0.40270 0.06821 0.34800
C 	C 	0.34920 0.34290 0.10711 -0.04000
C 	C 	0.31320 0.35800 0.15293 -0.02000
H 	H 	0.32340 0.40550 0.15970 0.06600
C 	C 	0.26220 0.30150 0.18829 -0.03600
C 	C 	0.24510 0.23110 0.17650 -0.11200
H 	H 	0.20940 0.19340 0.19960 0.10800
C 	C 	0.27990 0.21510 0.13091 0.10600
C 	C 	0.33300 0.27190 0.09693 -0.10200
H 	H 	0.35810 0.26220 0.06690 0.09500
C 	C 	0.29650 0.11940 0.07910 -0.11100
C 	C 	0.25550 0.03870 0.08330 0.04200
C 	C 	0.26850 0.99070 0.05220 -0.08500
H 	H 	0.30590 0.00650 0.02370 0.07800
C 	C 	0.22410 0.91790 0.06470 -0.02200
H 	H 	0.23110 0.88370 0.04390 0.05600
C 	C 	0.17020 0.89500 0.10690 -0.02600
H 	H 	0.14150 0.84540 0.11500 0.05100
C 	C 	0.15720 0.94410 0.13820 -0.07200
H 	H 	0.12010 0.92840 0.16690 0.07600
C 	C 	0.20140 0.01730 0.12540 0.02100
C 	C 	0.20230 0.08080 0.15200 -0.07200
H 	H 	0.15610 0.07880 0.14570 0.20800
H 	H 	0.21210 0.08360 0.19550 0.27100
C 	C 	0.22770 0.31650 0.24147 0.33600
N 	N 	0.26011 0.14207 0.12055 -0.11300
O 	O 	0.45055 0.38973 0.04255 -0.40400
O 	O 	0.24721 0.38122 0.25328 -0.40000
O 	O 	0.40133 0.45866 0.06189 -0.40000
O 	O 	0.18067 0.26144 0.27088 -0.40100
O 	O 	0.34970 0.15680 0.05084 -0.35100
H 	H 	0.34700 0.13870 0.09100 0.22200
H 	H 	0.29490 0.13530 0.03800 0.19000
O 	O 	0.17040 0.08100 0.19050 -0.42700
Cu	Cu	0.13621 0.87289 0.34271 0.90600
C 	C 	0.07217 0.73603 0.40154 0.34900
C 	C 	0.01587 0.67623 0.44044 -0.03900
C 	C 	0.97987 0.69133 0.48626 -0.01900
H 	H 	0.99007 0.73883 0.49303 0.06700
C 	C 	0.92887 0.63483 0.52162 -0.03600
C 	C 	0.91177 0.56443 0.50983 -0.11100
H 	H 	0.87607 0.52673 0.53293 0.10900
C 	C 	0.94657 0.54843 0.46424 0.10700
C 	C 	0.99967 0.60523 0.43026 -0.10000
H 	H 	0.02477 0.59553 0.40023 0.09600
C 	C 	0.96317 0.45273 0.41243 -0.10800
C 	C 	0.92217 0.37203 0.41663 0.04000
C 	C 	0.93517 0.32403 0.38553 -0.07900
H 	H 	0.97257 0.33983 0.35703 0.07600
C 	C 	0.89077 0.25123 0.39803 -0.02600
H 	H 	0.89777 0.21703 0.37723 0.05800
C 	C 	0.83687 0.22833 0.44023 -0.02300
H 	H 	0.80817 0.17873 0.44833 0.05100
C 	C 	0.82387 0.27743 0.47153 -0.07300
H 	H 	0.78677 0.26173 0.50023 0.07700
C 	C 	0.86807 0.35063 0.45873 0.02200
C 	C 	0.86897 0.41413 0.48533 -0.07200
H 	H 	0.82277 0.41213 0.47903 0.20800
H 	H 	0.87877 0.41693 0.52883 0.27100
C 	C 	0.89437 0.64983 0.57480 0.33600
N 	N 	0.92678 0.47540 0.45388 -0.11300
O 	O 	0.11722 0.72306 0.37588 -0.40400
O 	O 	0.91388 0.71455 0.58661 -0.40000
O 	O 	0.06800 0.79199 0.39522 -0.40100
O 	O 	0.84734 0.59477 0.60421 -0.40100
O 	O 	0.01637 0.49013 0.38417 -0.35100
H 	H 	0.01367 0.47203 0.42433 0.22200
H 	H 	0.96157 0.46863 0.37133 0.18900
O 	O 	0.83707 0.41433 0.52383 -0.42700
Cu	Cu	0.80287 0.20623 0.67605 0.90600
C 	C 	0.73883 0.06937 0.73488 0.34900
C 	C 	0.68253 0.00957 0.77378 -0.03900
C 	C 	0.64653 0.02467 0.81960 -0.02000
H 	H 	0.65673 0.07217 0.82637 0.06700
C 	C 	0.59553 0.96817 0.85496 -0.03500
C 	C 	0.57843 0.89777 0.84317 -0.11100
H 	H 	0.54273 0.86007 0.86627 0.10900
C 	C 	0.61323 0.88177 0.79758 0.10700
C 	C 	0.66633 0.93857 0.76360 -0.10000
H 	H 	0.69143 0.92887 0.73357 0.09600
C 	C 	0.62983 0.78607 0.74577 -0.10800
C 	C 	0.58883 0.70537 0.74997 0.04000
C 	C 	0.60183 0.65737 0.71887 -0.07900
H 	H 	0.63923 0.67317 0.69037 0.07600
C 	C 	0.55743 0.58457 0.73137 -0.02600
H 	H 	0.56443 0.55037 0.71057 0.05800
C 	C 	0.50353 0.56167 0.77357 -0.02300
H 	H 	0.47483 0.51207 0.78167 0.05100
C 	C 	0.49053 0.61077 0.80487 -0.07300
H 	H 	0.45343 0.59507 0.83357 0.07700
C 	C 	0.53473 0.68397 0.79207 0.02200
C 	C 	0.53563 0.74747 0.81867 -0.07200
H 	H 	0.48943 0.74547 0.81237 0.20800
H 	H 	0.54543 0.75027 0.86217 0.27100
C 	C 	0.56103 0.98317 0.90814 0.33700
N 	N 	0.59344 0.80874 0.78722 -0.11300
O 	O 	0.78388 0.05640 0.70922 -0.40400
O 	O 	0.58054 0.04789 0.91995 -0.40100
O 	O 	0.73466 0.12533 0.72856 -0.40000
O 	O 	0.51400 0.92811 0.93755 -0.40100
O 	O 	0.68303 0.82347 0.71751 -0.35100
H 	H 	0.68033 0.80537 0.75767 0.22200
H 	H 	0.62823 0.80197 0.70467 0.18900
O 	O 	0.50373 0.74767 0.85717 -0.42700
Cu	Cu	0.46044 0.92998 0.00938 0.90600
C 	C 	0.59730 0.00280 0.06821 0.35000
C 	C 	0.65710 0.00630 0.10711 -0.03800
C 	C 	0.64200 0.95520 0.15293 -0.02000
H 	H 	0.59450 0.91790 0.15970 0.06700
C 	C 	0.69850 0.96070 0.18829 -0.03600
C 	C 	0.76890 0.01400 0.17650 -0.11000
H 	H 	0.80660 0.01600 0.19960 0.10900
C 	C 	0.78490 0.06480 0.13091 0.10700
C 	C 	0.72810 0.06110 0.09693 -0.10100
H 	H 	0.73780 0.09590 0.06690 0.09600
C 	C 	0.88060 0.17710 0.07910 -0.11000
C 	C 	0.96130 0.21680 0.08330 0.04300
C 	C 	0.00930 0.27780 0.05220 -0.08400
H 	H 	0.99350 0.29940 0.02370 0.07800
C 	C 	0.08210 0.30620 0.06470 -0.02300
H 	H 	0.11630 0.34740 0.04390 0.05700
C 	C 	0.10500 0.27520 0.10690 -0.02500
H 	H 	0.15460 0.29610 0.11500 0.05100
C 	C 	0.05590 0.21310 0.13820 -0.07200
H 	H 	0.07160 0.19170 0.16690 0.07600
C 	C 	0.98270 0.18410 0.12540 0.02100
C 	C 	0.91920 0.12150 0.15200 -0.07200
H 	H 	0.92120 0.07730 0.14570 0.20800
H 	H 	0.91640 0.12850 0.19550 0.27100
C 	C 	0.68350 0.91120 0.24147 0.33600
N 	N 	0.85793 0.11804 0.12055 -0.11300
O 	O 	0.61027 0.06082 0.04255 -0.40400
O 	O 	0.61878 0.86599 0.25328 -0.40000
O 	O 	0.54134 0.94267 0.06189 -0.40100
O 	O 	0.73856 0.91923 0.27088 -0.40100
O 	O 	0.84320 0.19290 0.05084 -0.35100
H 	H 	0.86130 0.20830 0.09100 0.22200
H 	H 	0.86470 0.15960 0.03800 0.19000
O 	O 	0.91900 0.08940 0.19050 -0.42700
Cu	Cu	0.12711 0.26331 0.34271 0.90600
C 	C 	0.26397 0.33613 0.40154 0.34900
C 	C 	0.32377 0.33963 0.44044 -0.03900
C 	C 	0.30867 0.28853 0.48626 -0.01900
H 	H 	0.26117 0.25123 0.49303 0.06700
C 	C 	0.36517 0.29403 0.52162 -0.03500
C 	C 	0.43557 0.34733 0.50983 -0.11100
H 	H 	0.47327 0.34933 0.53293 0.10900
C 	C 	0.45157 0.39813 0.46424 0.10700
C 	C 	0.39477 0.39443 0.43026 -0.10100
H 	H 	0.40447 0.42923 0.40023 0.09600
C 	C 	0.54727 0.51043 0.41243 -0.10800
C 	C 	0.62797 0.55013 0.41663 0.04000
C 	C 	0.67597 0.61113 0.38553 -0.07900
H 	H 	0.66017 0.63273 0.35703 0.07600
C 	C 	0.74877 0.63953 0.39803 -0.02600
H 	H 	0.78297 0.68073 0.37723 0.05800
C 	C 	0.77167 0.60853 0.44023 -0.02300
H 	H 	0.82127 0.62943 0.44833 0.05100
C 	C 	0.72257 0.54643 0.47153 -0.07300
H 	H 	0.73827 0.52503 0.50023 0.07700
C 	C 	0.64937 0.51743 0.45873 0.02200
C 	C 	0.58587 0.45483 0.48533 -0.07200
H 	H 	0.58787 0.41063 0.47903 0.20800
H 	H 	0.58307 0.46183 0.52883 0.27100
C 	C 	0.35017 0.24453 0.57480 0.33600
N 	N 	0.52460 0.45137 0.45388 -0.11300
O 	O 	0.27694 0.39415 0.37588 -0.40400
O 	O 	0.28545 0.19932 0.58661 -0.40000
O 	O 	0.20801 0.27600 0.39522 -0.40000
O 	O 	0.40523 0.25256 0.60421 -0.40100
O 	O 	0.50987 0.52623 0.38417 -0.35100
H 	H 	0.52797 0.54163 0.42433 0.22200
H 	H 	0.53137 0.49293 0.37133 0.18900
O 	O 	0.58567 0.42273 0.52383 -0.42700
Cu	Cu	0.79377 0.59665 0.67605 0.90600
C 	C 	0.93063 0.66947 0.73488 0.34900
C 	C 	0.99043 0.67297 0.77378 -0.03900
C 	C 	0.97533 0.62187 0.81960 -0.02000
H 	H 	0.92783 0.58457 0.82637 0.06700
C 	C 	0.03183 0.62737 0.85496 -0.03500
C 	C 	0.10223 0.68067 0.84317 -0.11100
H 	H 	0.13993 0.68267 0.86627 0.10900
C 	C 	0.11823 0.73147 0.79758 0.10700
C 	C 	0.06143 0.72777 0.76360 -0.10000
H 	H 	0.07113 0.76257 0.73357 0.09600
C 	C 	0.21393 0.84377 0.74577 -0.10800
C 	C 	0.29463 0.88347 0.74997 0.04000
C 	C 	0.34263 0.94447 0.71887 -0.08000
H 	H 	0.32683 0.96607 0.69037 0.07600
C 	C 	0.41543 0.97287 0.73137 -0.02400
H 	H 	0.44963 0.01407 0.71057 0.05700
C 	C 	0.43833 0.94187 0.77357 -0.02400
H 	H 	0.48793 0.96277 0.78167 0.05100
C 	C 	0.38923 0.87977 0.80487 -0.07200
H 	H 	0.40493 0.85837 0.83357 0.07700
C 	C 	0.31603 0.85077 0.79207 0.02100
C 	C 	0.25253 0.78817 0.81867 -0.07200
H 	H 	0.25453 0.74397 0.81237 0.20800
H 	H 	0.24973 0.79517 0.86217 0.27100
C 	C 	0.01683 0.57787 0.90814 0.33700
N 	N 	0.19126 0.78471 0.78722 -0.11300
O 	O 	0.94360 0.72749 0.70922 -0.40400
O 	O 	0.95211 0.53266 0.91995 -0.40100
O 	O 	0.87467 0.60934 0.72856 -0.40000
O 	O 	0.07189 0.58590 0.93755 -0.40100
O 	O 	0.17653 0.85957 0.71751 -0.35100
H 	H 	0.19463 0.87497 0.75767 0.22200
H 	H 	0.19803 0.82627 0.70467 0.18900
O 	O 	0.25233 0.75607 0.85717 -0.42700
Cu	Cu	0.07002 0.53046 0.00938 0.90600
C 	C 	0.99720 0.59450 0.06821 0.35000
C 	C 	0.99370 0.65080 0.10711 -0.03800
C 	C 	0.04480 0.68680 0.15293 -0.02000
H 	H 	0.08210 0.67660 0.15970 0.06700
C 	C 	0.03930 0.73780 0.18829 -0.03600
C 	C 	0.98600 0.75490 0.17650 -0.11000
H 	H 	0.98400 0.79060 0.19960 0.10900
C 	C 	0.93520 0.72010 0.13091 0.10700
C 	C 	0.93890 0.66700 0.09693 -0.10100
H 	H 	0.90410 0.64190 0.06690 0.09600
C 	C 	0.82290 0.70350 0.07910 -0.10800
C 	C 	0.78320 0.74450 0.08330 0.04000
C 	C 	0.72220 0.73150 0.05220 -0.08000
H 	H 	0.70060 0.69410 0.02370 0.07600
C 	C 	0.69380 0.77590 0.06470 -0.02600
H 	H 	0.65260 0.76890 0.04390 0.05800
C 	C 	0.72480 0.82980 0.10690 -0.02300
H 	H 	0.70390 0.85850 0.11500 0.05100
C 	C 	0.78690 0.84280 0.13820 -0.07300
H 	H 	0.80830 0.87990 0.16690 0.07700
C 	C 	0.81590 0.79860 0.12540 0.02200
C 	C 	0.87850 0.79770 0.15200 -0.07200
H 	H 	0.92270 0.84390 0.14570 0.20800
H 	H 	0.87150 0.78790 0.19550 0.27100
C 	C 	0.08880 0.77230 0.24147 0.33600
N 	N 	0.88196 0.73989 0.12055 -0.11300
O 	O 	0.93918 0.54945 0.04255 -0.40400
O 	O 	0.13401 0.75279 0.25328 -0.40000
O 	O 	0.05733 0.59867 0.06189 -0.40100
O 	O 	0.08077 0.81933 0.27088 -0.40200
O 	O 	0.80710 0.65030 0.05084 -0.35100
H 	H 	0.79170 0.65300 0.09100 0.22200
H 	H 	0.84040 0.70510 0.03800 0.18900
O 	O 	0.91060 0.82960 0.19050 -0.42700
Cu	Cu	0.73669 0.86379 0.34271 0.90600
C 	C 	0.66387 0.92783 0.40154 0.34900
C 	C 	0.66037 0.98413 0.44044 -0.03900
C 	C 	0.71147 0.02013 0.48626 -0.01900
H 	H 	0.74877 0.00993 0.49303 0.06700
C 	C 	0.70597 0.07113 0.52162 -0.03600
C 	C 	0.65267 0.08823 0.50983 -0.11100
H 	H 	0.65067 0.12393 0.53293 0.10900
C 	C 	0.60187 0.05343 0.46424 0.10700
C 	C 	0.60557 0.00033 0.43026 -0.10000
H 	H 	0.57077 0.97523 0.40023 0.09600
C 	C 	0.48957 0.03683 0.41243 -0.10800
C 	C 	0.44987 0.07783 0.41663 0.04000
C 	C 	0.38887 0.06483 0.38553 -0.07900
H 	H 	0.36727 0.02743 0.35703 0.07600
C 	C 	0.36047 0.10923 0.39803 -0.02600
H 	H 	0.31927 0.10223 0.37723 0.05800
C 	C 	0.39147 0.16313 0.44023 -0.02300
H 	H 	0.37057 0.19183 0.44833 0.05100
C 	C 	0.45357 0.17613 0.47153 -0.07300
H 	H 	0.47497 0.21323 0.50023 0.07700
C 	C 	0.48257 0.13193 0.45873 0.02200
C 	C 	0.54517 0.13103 0.48533 -0.07200
H 	H 	0.58937 0.17723 0.47903 0.20800
H 	H 	0.53817 0.12123 0.52883 0.27100
C 	C 	0.75547 0.10563 0.57480 0.33600
N 	N 	0.54863 0.07322 0.45388 -0.11300
O 	O 	0.60585 0.88278 0.37588 -0.40400
O 	O 	0.80068 0.08612 0.58661 -0.40000
O 	O 	0.72400 0.93200 0.39522 -0.40100
O 	O 	0.74744 0.15266 0.60421 -0.40100
O 	O 	0.47377 0.98363 0.38417 -0.35100
H 	H 	0.45837 0.98633 0.42433 0.22200
H 	H 	0.50707 0.03843 0.37133 0.18900
O 	O 	0.57727 0.16293 0.52383 -0.42700
Cu	Cu	0.40335 0.19713 0.67605 0.90600
C 	C 	0.33053 0.26117 0.73488 0.34900
C 	C 	0.32703 0.31747 0.77378 -0.03900
C 	C 	0.37813 0.35347 0.81960 -0.01900
H 	H 	0.41543 0.34327 0.82637 0.06700
C 	C 	0.37263 0.40447 0.85496 -0.03500
C 	C 	0.31933 0.42157 0.84317 -0.11100
H 	H 	0.31733 0.45727 0.86627 0.10900
C 	C 	0.26853 0.38677 0.79758 0.10700
C 	C 	0.27223 0.33367 0.76360 -0.10100
H 	H 	0.23743 0.30857 0.73357 0.09600
C 	C 	0.15623 0.37017 0.74577 -0.10800
C 	C 	0.11653 0.41117 0.74997 0.04000
C 	C 	0.05553 0.39817 0.71887 -0.08000
H 	H 	0.03393 0.36077 0.69037 0.07600
C 	C 	0.02713 0.44257 0.73137 -0.02400
H 	H 	0.98593 0.43557 0.71057 0.05700
C 	C 	0.05813 0.49647 0.77357 -0.02400
H 	H 	0.03723 0.52517 0.78167 0.05100
C 	C 	0.12023 0.50947 0.80487 -0.07200
H 	H 	0.14163 0.54657 0.83357 0.07700
C 	C 	0.14923 0.46527 0.79207 0.02100
C 	C 	0.21183 0.46437 0.81867 -0.07200
H 	H 	0.25603 0.51057 0.81237 0.20800
H 	H 	0.20483 0.45457 0.86217 0.27100
C 	C 	0.42213 0.43897 0.90814 0.33600
N 	N 	0.21529 0.40656 0.78722 -0.11300
O 	O 	0.27251 0.21612 0.70922 -0.40400
O 	O 	0.46734 0.41946 0.91995 -0.40000
O 	O 	0.39066 0.26534 0.72856 -0.40000
O 	O 	0.41410 0.48600 0.93755 -0.40100
O 	O 	0.14043 0.31697 0.71751 -0.35100
H 	H 	0.12503 0.31967 0.75767 0.22200
H 	H 	0.17373 0.37177 0.70467 0.18900
O 	O 	0.24393 0.49627 0.85717 -0.42700
Cu	Cu	0.53046 0.46044 0.99062 0.90600
C 	C 	0.59450 0.59730 0.93179 0.34900
C 	C 	0.65080 0.65710 0.89289 -0.03900
C 	C 	0.68680 0.64200 0.84707 -0.01900
H 	H 	0.67660 0.59450 0.84030 0.06700
C 	C 	0.73780 0.69850 0.81171 -0.03500
C 	C 	0.75490 0.76890 0.82350 -0.11100
H 	H 	0.79060 0.80660 0.80040 0.10900
C 	C 	0.72010 0.78490 0.86909 0.10700
C 	C 	0.66700 0.72810 0.90307 -0.10100
H 	H 	0.64190 0.73780 0.93310 0.09600
C 	C 	0.70350 0.88060 0.92090 -0.11000
C 	C 	0.74450 0.96130 0.91670 0.04300
C 	C 	0.73150 0.00930 0.94780 -0.08400
H 	H 	0.69410 0.99350 0.97630 0.07800
C 	C 	0.77590 0.08210 0.93530 -0.02200
H 	H 	0.76890 0.11630 0.95610 0.05600
C 	C 	0.82980 0.10500 0.89310 -0.02600
H 	H 	0.85850 0.15460 0.88500 0.05100
C 	C 	0.84280 0.05590 0.86180 -0.07200
H 	H 	0.87990 0.07160 0.83310 0.07600
C 	C 	0.79860 0.98270 0.87460 0.02100
C 	C 	0.79770 0.91920 0.84800 -0.07200
H 	H 	0.84390 0.92120 0.85430 0.20800
H 	H 	0.78790 0.91640 0.80450 0.27100
C 	C 	0.77230 0.68350 0.75853 0.33600
N 	N 	0.73989 0.85793 0.87945 -0.11300
O 	O 	0.54945 0.61027 0.95745 -0.40400
O 	O 	0.75279 0.61878 0.74672 -0.40000
O 	O 	0.59867 0.54134 0.93811 -0.40000
O 	O 	0.81933 0.73856 0.72912 -0.40100
O 	O 	0.65030 0.84320 0.94916 -0.35100
H 	H 	0.65300 0.86130 0.90900 0.22200
H 	H 	0.70510 0.86470 0.96200 0.19000
O 	O 	0.82960 0.91900 0.80950 -0.42700
Cu	Cu	0.19713 0.79377 0.32395 0.90600
C 	C 	0.26117 0.93063 0.26512 0.34900
C 	C 	0.31747 0.99043 0.22622 -0.03900
C 	C 	0.35347 0.97533 0.18040 -0.02000
H 	H 	0.34327 0.92783 0.17363 0.06700
C 	C 	0.40447 0.03183 0.14504 -0.03500
C 	C 	0.42157 0.10223 0.15683 -0.11100
H 	H 	0.45727 0.13993 0.13373 0.10900
C 	C 	0.38677 0.11823 0.20242 0.10700
C 	C 	0.33367 0.06143 0.23640 -0.10000
H 	H 	0.30857 0.07113 0.26643 0.09600
C 	C 	0.37017 0.21393 0.25423 -0.10800
C 	C 	0.41117 0.29463 0.25003 0.04000
C 	C 	0.39817 0.34263 0.28113 -0.07900
H 	H 	0.36077 0.32683 0.30963 0.07600
C 	C 	0.44257 0.41543 0.26863 -0.02600
H 	H 	0.43557 0.44963 0.28943 0.05800
C 	C 	0.49647 0.43833 0.22643 -0.02300
H 	H 	0.52517 0.48793 0.21833 0.05100
C 	C 	0.50947 0.38923 0.19513 -0.07300
H 	H 	0.54657 0.40493 0.16643 0.07700
C 	C 	0.46527 0.31603 0.20793 0.02200
C 	C 	0.46437 0.25253 0.18133 -0.07200
H 	H 	0.51057 0.25453 0.18763 0.20800
H 	H 	0.45457 0.24973 0.13783 0.27100
C 	C 	0.43897 0.01683 0.09186 0.33700
N 	N 	0.40656 0.19126 0.21278 -0.11300
O 	O 	0.21612 0.94360 0.29078 -0.40400
O 	O 	0.41946 0.95211 0.08005 -0.40100
O 	O 	0.26534 0.87467 0.27144 -0.40000
O 	O 	0.48600 0.07189 0.06245 -0.40100
O 	O 	0.31697 0.17653 0.28249 -0.35100
H 	H 	0.31967 0.19463 0.24233 0.22200
H 	H 	0.37177 0.19803 0.29533 0.18900
O 	O 	0.49627 0.25233 0.14283 -0.42700
Cu	Cu	0.86379 0.12711 0.65729 0.90600
C 	C 	0.92783 0.26397 0.59846 0.34900
C 	C 	0.98413 0.32377 0.55956 -0.03900
C 	C 	0.02013 0.30867 0.51374 -0.01900
H 	H 	0.00993 0.26117 0.50697 0.06700
C 	C 	0.07113 0.36517 0.47838 -0.03600
C 	C 	0.08823 0.43557 0.49017 -0.11100
H 	H 	0.12393 0.47327 0.46707 0.10900
C 	C 	0.05343 0.45157 0.53576 0.10700
C 	C 	0.00033 0.39477 0.56974 -0.10000
H 	H 	0.97523 0.40447 0.59977 0.09600
C 	C 	0.03683 0.54727 0.58757 -0.10800
C 	C 	0.07783 0.62797 0.58337 0.04000
C 	C 	0.06483 0.67597 0.61447 -0.07900
H 	H 	0.02743 0.66017 0.64297 0.07600
C 	C 	0.10923 0.74877 0.60197 -0.02600
H 	H 	0.10223 0.78297 0.62277 0.05800
C 	C 	0.16313 0.77167 0.55977 -0.02300
H 	H 	0.19183 0.82127 0.55167 0.05100
C 	C 	0.17613 0.72257 0.52847 -0.07300
H 	H 	0.21323 0.73827 0.49977 0.07700
C 	C 	0.13193 0.64937 0.54127 0.02200
C 	C 	0.13103 0.58587 0.51467 -0.07200
H 	H 	0.17723 0.58787 0.52097 0.20800
H 	H 	0.12123 0.58307 0.47117 0.27100
C 	C 	0.10563 0.35017 0.42520 0.33600
N 	N 	0.07322 0.52460 0.54612 -0.11300
O 	O 	0.88278 0.27694 0.62412 -0.40400
O 	O 	0.08612 0.28545 0.41339 -0.40000
O 	O 	0.93200 0.20801 0.60478 -0.40100
O 	O 	0.15266 0.40523 0.39579 -0.40100
O 	O 	0.98363 0.50987 0.61583 -0.35100
H 	H 	0.98633 0.52797 0.57567 0.22200
H 	H 	0.03843 0.53137 0.62867 0.18900
O 	O 	0.16293 0.58567 0.47617 -0.42700
Cu	Cu	0.53956 0.07002 0.99062 0.90600
C 	C 	0.40270 0.99720 0.93179 0.35000
C 	C 	0.34290 0.99370 0.89289 -0.03800
C 	C 	0.35800 0.04480 0.84707 -0.02000
H 	H 	0.40550 0.08210 0.84030 0.06700
C 	C 	0.30150 0.03930 0.81171 -0.03600
C 	C 	0.23110 0.98600 0.82350 -0.11000
H 	H 	0.19340 0.98400 0.80040 0.10900
C 	C 	0.21510 0.93520 0.86909 0.10700
C 	C 	0.27190 0.93890 0.90307 -0.10100
H 	H 	0.26220 0.90410 0.93310 0.09600
C 	C 	0.11940 0.82290 0.92090 -0.11000
C 	C 	0.03870 0.78320 0.91670 0.04300
C 	C 	0.99070 0.72220 0.94780 -0.08400
H 	H 	0.00650 0.70060 0.97630 0.07800
C 	C 	0.91790 0.69380 0.93530 -0.02300
H 	H 	0.88370 0.65260 0.95610 0.05700
C 	C 	0.89500 0.72480 0.89310 -0.02500
H 	H 	0.84540 0.70390 0.88500 0.05100
C 	C 	0.94410 0.78690 0.86180 -0.07200
H 	H 	0.92840 0.80830 0.83310 0.07600
C 	C 	0.01730 0.81590 0.87460 0.02100
C 	C 	0.08080 0.87850 0.84800 -0.07200
H 	H 	0.07880 0.92270 0.85430 0.20800
H 	H 	0.08360 0.87150 0.80450 0.27100
C 	C 	0.31650 0.08880 0.75853 0.33600
N 	N 	0.14207 0.88196 0.87945 -0.11300
O 	O 	0.38973 0.93918 0.95745 -0.40400
O 	O 	0.38122 0.13401 0.74672 -0.40000
O 	O 	0.45866 0.05733 0.93811 -0.40100
O 	O 	0.26144 0.08077 0.72912 -0.40100
O 	O 	0.15680 0.80710 0.94916 -0.35100
H 	H 	0.13870 0.79170 0.90900 0.22200
H 	H 	0.13530 0.84040 0.96200 0.19000
O 	O 	0.08100 0.91060 0.80950 -0.42700
Cu	Cu	0.20623 0.40335 0.32395 0.90600
C 	C 	0.06937 0.33053 0.26512 0.34900
C 	C 	0.00957 0.32703 0.22622 -0.03900
C 	C 	0.02467 0.37813 0.18040 -0.02000
H 	H 	0.07217 0.41543 0.17363 0.06700
C 	C 	0.96817 0.37263 0.14504 -0.03500
C 	C 	0.89777 0.31933 0.15683 -0.11100
H 	H 	0.86007 0.31733 0.13373 0.10900
C 	C 	0.88177 0.26853 0.20242 0.10700
C 	C 	0.93857 0.27223 0.23640 -0.10000
H 	H 	0.92887 0.23743 0.26643 0.09600
C 	C 	0.78607 0.15623 0.25423 -0.10800
C 	C 	0.70537 0.11653 0.25003 0.04000
C 	C 	0.65737 0.05553 0.28113 -0.08000
H 	H 	0.67317 0.03393 0.30963 0.07600
C 	C 	0.58457 0.02713 0.26863 -0.02400
H 	H 	0.55037 0.98593 0.28943 0.05700
C 	C 	0.56167 0.05813 0.22643 -0.02400
H 	H 	0.51207 0.03723 0.21833 0.05100
C 	C 	0.61077 0.12023 0.19513 -0.07200
H 	H 	0.59507 0.14163 0.16643 0.07700
C 	C 	0.68397 0.14923 0.20793 0.02100
C 	C 	0.74747 0.21183 0.18133 -0.07200
H 	H 	0.74547 0.25603 0.18763 0.20800
H 	H 	0.75027 0.20483 0.13783 0.27100
C 	C 	0.98317 0.42213 0.09186 0.33700
N 	N 	0.80874 0.21529 0.21278 -0.11300
O 	O 	0.05640 0.27251 0.29078 -0.40400
O 	O 	0.04789 0.46734 0.08005 -0.40100
O 	O 	0.12533 0.39066 0.27144 -0.40000
O 	O 	0.92811 0.41410 0.06245 -0.40100
O 	O 	0.82347 0.14043 0.28249 -0.35100
H 	H 	0.80537 0.12503 0.24233 0.22200
H 	H 	0.80197 0.17373 0.29533 0.18900
O 	O 	0.74767 0.24393 0.14283 -0.42700
Cu	Cu	0.87289 0.73669 0.65729 0.90600
C 	C 	0.73603 0.66387 0.59846 0.34900
C 	C 	0.67623 0.66037 0.55956 -0.03900
C 	C 	0.69133 0.71147 0.51374 -0.01900
H 	H 	0.73883 0.74877 0.50697 0.06700
C 	C 	0.63483 0.70597 0.47838 -0.03500
C 	C 	0.56443 0.65267 0.49017 -0.11100
H 	H 	0.52673 0.65067 0.46707 0.10900
C 	C 	0.54843 0.60187 0.53576 0.10700
C 	C 	0.60523 0.60557 0.56974 -0.10100
H 	H 	0.59553 0.57077 0.59977 0.09600
C 	C 	0.45273 0.48957 0.58757 -0.10800
C 	C 	0.37203 0.44987 0.58337 0.04000
C 	C 	0.32403 0.38887 0.61447 -0.07900
H 	H 	0.33983 0.36727 0.64297 0.07600
C 	C 	0.25123 0.36047 0.60197 -0.02600
H 	H 	0.21703 0.31927 0.62277 0.05800
C 	C 	0.22833 0.39147 0.55977 -0.02300
H 	H 	0.17873 0.37057 0.55167 0.05100
C 	C 	0.27743 0.45357 0.52847 -0.07300
H 	H 	0.26173 0.47497 0.49977 0.07700
C 	C 	0.35063 0.48257 0.54127 0.02200
C 	C 	0.41413 0.54517 0.51467 -0.07200
H 	H 	0.41213 0.58937 0.52097 0.20800
H 	H 	0.41693 0.53817 0.47117 0.27100
C 	C 	0.64983 0.75547 0.42520 0.33600
N 	N 	0.47540 0.54863 0.54612 -0.11300
O 	O 	0.72306 0.60585 0.62412 -0.40400
O 	O 	0.71455 0.80068 0.41339 -0.40000
O 	O 	0.79199 0.72400 0.60478 -0.40000
O 	O 	0.59477 0.74744 0.39579 -0.40100
O 	O 	0.49013 0.47377 0.61583 -0.35100
H 	H 	0.47203 0.45837 0.57567 0.22200
H 	H 	0.46863 0.50707 0.62867 0.18900
O 	O 	0.41433 0.57727 0.47617 -0.42700
Cu	Cu	0.92998 0.46954 0.99062 0.90600
C 	C 	0.00280 0.40550 0.93179 0.35000
C 	C 	0.00630 0.34920 0.89289 -0.03800
C 	C 	0.95520 0.31320 0.84707 -0.02000
H 	H 	0.91790 0.32340 0.84030 0.06700
C 	C 	0.96070 0.26220 0.81171 -0.03600
C 	C 	0.01400 0.24510 0.82350 -0.11000
H 	H 	0.01600 0.20940 0.80040 0.10900
C 	C 	0.06480 0.27990 0.86909 0.10700
C 	C 	0.06110 0.33300 0.90307 -0.10100
H 	H 	0.09590 0.35810 0.93310 0.09600
C 	C 	0.17710 0.29650 0.92090 -0.10800
C 	C 	0.21680 0.25550 0.91670 0.04000
C 	C 	0.27780 0.26850 0.94780 -0.08000
H 	H 	0.29940 0.30590 0.97630 0.07600
C 	C 	0.30620 0.22410 0.93530 -0.02600
H 	H 	0.34740 0.23110 0.95610 0.05800
C 	C 	0.27520 0.17020 0.89310 -0.02300
H 	H 	0.29610 0.14150 0.88500 0.05100
C 	C 	0.21310 0.15720 0.86180 -0.07300
H 	H 	0.19170 0.12010 0.83310 0.07700
C 	C 	0.18410 0.20140 0.87460 0.02200
C 	C 	0.12150 0.20230 0.84800 -0.07200
H 	H 	0.07730 0.15610 0.85430 0.20800
H 	H 	0.12850 0.21210 0.80450 0.27100
C 	C 	0.91120 0.22770 0.75853 0.33600
N 	N 	0.11804 0.26011 0.87945 -0.11300
O 	O 	0.06082 0.45055 0.95745 -0.40400
O 	O 	0.86599 0.24721 0.74672 -0.40000
O 	O 	0.94267 0.40133 0.93811 -0.40100
O 	O 	0.91923 0.18067 0.72912 -0.40200
O 	O 	0.19290 0.34970 0.94916 -0.35100
H 	H 	0.20830 0.34700 0.90900 0.22200
H 	H 	0.15960 0.29490 0.96200 0.18900
O 	O 	0.08940 0.17040 0.80950 -0.42700
Cu	Cu	0.59665 0.80287 0.32395 0.90600
C 	C 	0.66947 0.73883 0.26512 0.34900
C 	C 	0.67297 0.68253 0.22622 -0.03900
C 	C 	0.62187 0.64653 0.18040 -0.01900
H 	H 	0.58457 0.65673 0.17363 0.06700
C 	C 	0.62737 0.59553 0.14504 -0.03500
C 	C 	0.68067 0.57843 0.15683 -0.11100
H 	H 	0.68267 0.54273 0.13373 0.10900
C 	C 	0.73147 0.61323 0.20242 0.10700
C 	C 	0.72777 0.66633 0.23640 -0.10100
H 	H 	0.76257 0.69143 0.26643 0.09600
C 	C 	0.84377 0.62983 0.25423 -0.10800
C 	C 	0.88347 0.58883 0.25003 0.04000
C 	C 	0.94447 0.60183 0.28113 -0.08000
H 	H 	0.96607 0.63923 0.30963 0.07600
C 	C 	0.97287 0.55743 0.26863 -0.02400
H 	H 	0.01407 0.56443 0.28943 0.05700
C 	C 	0.94187 0.50353 0.22643 -0.02400
H 	H 	0.96277 0.47483 0.21833 0.05100
C 	C 	0.87977 0.49053 0.19513 -0.07200
H 	H 	0.85837 0.45343 0.16643 0.07700
C 	C 	0.85077 0.53473 0.20793 0.02100
C 	C 	0.78817 0.53563 0.18133 -0.07200
H 	H 	0.74397 0.48943 0.18763 0.20800
H 	H 	0.79517 0.54543 0.13783 0.27100
C 	C 	0.57787 0.56103 0.09186 0.33600
N 	N 	0.78471 0.59344 0.21278 -0.11300
O 	O 	0.72749 0.78388 0.29078 -0.40400
O 	O 	0.53266 0.58054 0.08005 -0.40000
O 	O 	0.60934 0.73466 0.27144 -0.40000
O 	O 	0.58590 0.51400 0.06245 -0.40100
O 	O 	0.85957 0.68303 0.28249 -0.35100
H 	H 	0.87497 0.68033 0.24233 0.22200
H 	H 	0.82627 0.62823 0.29533 0.18900
O 	O 	0.75607 0.50373 0.14283 -0.42700
Cu	Cu	0.26331 0.13621 0.65729 0.90600
C 	C 	0.33613 0.07217 0.59846 0.34900
C 	C 	0.33963 0.01587 0.55956 -0.03900
C 	C 	0.28853 0.97987 0.51374 -0.01900
H 	H 	0.25123 0.99007 0.50697 0.06700
C 	C 	0.29403 0.92887 0.47838 -0.03600
C 	C 	0.34733 0.91177 0.49017 -0.11100
H 	H 	0.34933 0.87607 0.46707 0.10900
C 	C 	0.39813 0.94657 0.53576 0.10700
C 	C 	0.39443 0.99967 0.56974 -0.10000
H 	H 	0.42923 0.02477 0.59977 0.09600
C 	C 	0.51043 0.96317 0.58757 -0.10800
C 	C 	0.55013 0.92217 0.58337 0.04000
C 	C 	0.61113 0.93517 0.61447 -0.07900
H 	H 	0.63273 0.97257 0.64297 0.07600
C 	C 	0.63953 0.89077 0.60197 -0.02600
H 	H 	0.68073 0.89777 0.62277 0.05800
C 	C 	0.60853 0.83687 0.55977 -0.02300
H 	H 	0.62943 0.80817 0.55167 0.05100
C 	C 	0.54643 0.82387 0.52847 -0.07300
H 	H 	0.52503 0.78677 0.49977 0.07700
C 	C 	0.51743 0.86807 0.54127 0.02200
C 	C 	0.45483 0.86897 0.51467 -0.07200
H 	H 	0.41063 0.82277 0.52097 0.20800
H 	H 	0.46183 0.87877 0.47117 0.27100
C 	C 	0.24453 0.89437 0.42520 0.33600
N 	N 	0.45137 0.92678 0.54612 -0.11300
O 	O 	0.39415 0.11722 0.62412 -0.40400
O 	O 	0.19932 0.91388 0.41339 -0.40000
O 	O 	0.27600 0.06800 0.60478 -0.40100
O 	O 	0.25256 0.84734 0.39579 -0.40100
O 	O 	0.52623 0.01637 0.61583 -0.35100
H 	H 	0.54163 0.01367 0.57567 0.22200
H 	H 	0.49293 0.96157 0.62867 0.18900
O 	O 	0.42273 0.83707 0.47617 -0.42700
