data_crystal

_cell_length_a 18.92300
_cell_length_b 16.50460
_cell_length_c 7.84370
_cell_angle_alpha 90.00000
_cell_angle_beta  91.86800
_cell_angle_gamma 90.00000

_symmetry_space_group_name_	'P 1'
_symmetry_space_group_name_H-M	'P 1'

loop_
_symmetry_equiv_pos_as_xyz
  x,y,z

loop_
_atom_site_label
_atom_site_type_symbol
_atom_site_fract_x
_atom_site_fract_y
_atom_site_fract_z
_atom_site_charge
O 	O 	0.06290 0.80140 0.86300 -0.67200
O 	O 	0.06600 0.02370 0.35300 -0.77500
O 	O 	0.08370 0.64720 0.88000 -0.20700
C 	C 	0.11900 0.87530 0.23600 -0.06300
P 	P 	0.06720 0.72360 0.98860 0.27000
O 	O 	0.99840 0.70840 0.06300 0.00300
O 	O 	0.17170 0.96800 0.50400 -0.21800
P 	P 	0.10450 0.94600 0.40630 0.52900
N 	N 	0.12450 0.78980 0.29800 -0.09500
C 	C 	0.25340 0.80400 0.35000 0.02200
C 	C 	0.13650 0.73670 0.15400 0.00900
C 	C 	0.18230 0.78900 0.43200 0.05100
C 	C 	0.18720 0.70500 0.51000 0.01600
O 	O 	0.05700 0.89730 0.53800 -0.76300
O 	O 	0.56290 0.30140 0.86300 -0.62000
O 	O 	0.56600 0.52370 0.35300 -0.70300
O 	O 	0.58370 0.14720 0.88000 -0.16200
C 	C 	0.61900 0.37530 0.23600 -0.02600
P 	P 	0.56720 0.22360 0.98860 0.44500
O 	O 	0.49840 0.20840 0.06300 -0.21200
O 	O 	0.67170 0.46800 0.50400 -0.21200
P 	P 	0.60450 0.44600 0.40630 0.53400
N 	N 	0.62450 0.28980 0.29800 -0.08400
C 	C 	0.75340 0.30400 0.35000 0.02300
C 	C 	0.63650 0.23670 0.15400 0.01300
C 	C 	0.68230 0.28900 0.43200 0.05000
C 	C 	0.68720 0.20500 0.51000 0.03200
O 	O 	0.55700 0.39730 0.53800 -0.68600
O 	O 	0.93710 0.80140 0.63700 -0.55800
O 	O 	0.93400 0.02370 0.14700 -0.62100
O 	O 	0.91630 0.64720 0.62000 -0.11600
C 	C 	0.88100 0.87530 0.26400 0.01300
P 	P 	0.93280 0.72360 0.51140 0.60900
O 	O 	0.00160 0.70840 0.43700 -0.41800
O 	O 	0.82830 0.96800 0.99600 -0.20500
P 	P 	0.89550 0.94600 0.09370 0.51400
N 	N 	0.87550 0.78980 0.20200 -0.07400
C 	C 	0.74660 0.80400 0.15000 0.02500
C 	C 	0.86350 0.73670 0.34600 0.02400
C 	C 	0.81770 0.78900 0.06800 0.02900
C 	C 	0.81280 0.70500 0.99000 0.06900
O 	O 	0.94300 0.89730 0.96200 -0.58500
O 	O 	0.43710 0.30140 0.63700 -0.62100
O 	O 	0.43400 0.52370 0.14700 -0.70500
O 	O 	0.41630 0.14720 0.62000 -0.16200
C 	C 	0.38100 0.37530 0.26400 -0.02500
P 	P 	0.43280 0.22360 0.51140 0.43000
O 	O 	0.50160 0.20840 0.43700 -0.20100
O 	O 	0.32830 0.46800 0.99600 -0.21200
P 	P 	0.39550 0.44600 0.09370 0.51900
N 	N 	0.37550 0.28980 0.20200 -0.08500
C 	C 	0.24660 0.30400 0.15000 0.02400
C 	C 	0.36350 0.23670 0.34600 0.02100
C 	C 	0.31770 0.28900 0.06800 0.03400
C 	C 	0.31280 0.20500 0.99000 0.04900
O 	O 	0.44300 0.39730 0.96200 -0.67600
O 	O 	0.93710 0.19860 0.13700 -0.56100
O 	O 	0.93400 0.97630 0.64700 -0.62000
O 	O 	0.91630 0.35280 0.12000 -0.11900
C 	C 	0.88100 0.12470 0.76400 0.01500
P 	P 	0.93280 0.27640 0.01140 0.59000
O 	O 	0.00160 0.29160 0.93700 -0.40500
O 	O 	0.82830 0.03200 0.49600 -0.22000
P 	P 	0.89550 0.05400 0.59370 0.53400
N 	N 	0.87550 0.21020 0.70200 -0.07400
C 	C 	0.74660 0.19600 0.65000 0.02400
C 	C 	0.86350 0.26330 0.84600 0.03600
C 	C 	0.81770 0.21100 0.56800 0.04500
C 	C 	0.81280 0.29500 0.49000 0.05200
O 	O 	0.94300 0.10270 0.46200 -0.59700
O 	O 	0.43710 0.69860 0.13700 -0.62300
O 	O 	0.43400 0.47630 0.64700 -0.70300
O 	O 	0.41630 0.85280 0.12000 -0.16500
C 	C 	0.38100 0.62470 0.76400 -0.02100
P 	P 	0.43280 0.77640 0.01140 0.41200
O 	O 	0.50160 0.79160 0.93700 -0.18700
O 	O 	0.32830 0.53200 0.49600 -0.22500
P 	P 	0.39550 0.55400 0.59370 0.53400
N 	N 	0.37550 0.71020 0.70200 -0.08600
C 	C 	0.24660 0.69600 0.65000 0.02400
C 	C 	0.36350 0.76330 0.84600 0.03500
C 	C 	0.31770 0.71100 0.56800 0.04600
C 	C 	0.31280 0.79500 0.49000 0.03500
O 	O 	0.44300 0.60270 0.46200 -0.68700
O 	O 	0.06290 0.19860 0.36300 -0.67300
O 	O 	0.06600 0.97630 0.85300 -0.77100
O 	O 	0.08370 0.35280 0.38000 -0.20900
C 	C 	0.11900 0.12470 0.73600 -0.05800
P 	P 	0.06720 0.27640 0.48860 0.25100
O 	O 	0.99840 0.29160 0.56300 0.02000
O 	O 	0.17170 0.03200 0.00400 -0.22600
P 	P 	0.10450 0.05400 0.90630 0.54200
N 	N 	0.12450 0.21020 0.79800 -0.09700
C 	C 	0.25340 0.19600 0.85000 0.02200
C 	C 	0.13650 0.26330 0.65400 0.02200
C 	C 	0.18230 0.21100 0.93200 0.06400
C 	C 	0.18720 0.29500 0.01000 0.00200
O 	O 	0.05700 0.10270 0.03800 -0.77100
O 	O 	0.56290 0.69860 0.36300 -0.62200
O 	O 	0.56600 0.47630 0.85300 -0.70100
O 	O 	0.58370 0.85280 0.38000 -0.16500
C 	C 	0.61900 0.62470 0.73600 -0.02200
P 	P 	0.56720 0.77640 0.48860 0.43000
O 	O 	0.49840 0.79160 0.56300 -0.20000
O 	O 	0.67170 0.53200 0.00400 -0.22600
P 	P 	0.60450 0.55400 0.90630 0.55000
N 	N 	0.62450 0.71020 0.79800 -0.08500
C 	C 	0.75340 0.69600 0.85000 0.02200
C 	C 	0.63650 0.76330 0.65400 0.02500
C 	C 	0.68230 0.71100 0.93200 0.06600
C 	C 	0.68720 0.79500 0.01000 0.01400
O 	O 	0.55700 0.60270 0.03800 -0.69700
Zr	Zr	-0.00000 0.89140 0.75000 3.18700
Zr	Zr	0.50000 0.39140 0.75000 3.21800
Zr	Zr	0.00000 0.10860 0.25000 3.18700
Zr	Zr	0.50000 0.60860 0.25000 3.21700
