data_crystal

_cell_length_a 8.36300
_cell_length_b 12.82700
_cell_length_c 12.98700
_cell_angle_alpha 78.01000
_cell_angle_beta  77.50000
_cell_angle_gamma 71.85000

_symmetry_space_group_name_	'P 1'
_symmetry_space_group_name_H-M	'P 1'

loop_
_symmetry_equiv_pos_as_xyz
  x,y,z

loop_
_atom_site_label
_atom_site_type_symbol
_atom_site_fract_x
_atom_site_fract_y
_atom_site_fract_z
_atom_site_charge
Mn	Mn	0.36189 0.09808 0.30991 1.20300
C 	C 	0.47730 0.01970 0.45950 -0.22000
N 	N 	0.49720 0.94800 0.22230 -0.26000
N 	N 	0.81820 0.41180 0.06970 -0.24100
C 	C 	0.43790 0.92220 0.14580 0.05200
H 	H 	0.34800 0.97460 0.11650 -0.02300
C 	C 	0.50370 0.82160 0.10840 -0.12400
H 	H 	0.45690 0.80720 0.05590 0.04700
C 	C 	0.63870 0.74270 0.14860 0.03100
C 	C 	0.70610 0.77130 0.22460 -0.14600
H 	H 	0.79930 0.72170 0.25290 0.07000
C 	C 	0.63330 0.87390 0.25730 0.06000
H 	H 	0.68190 0.89240 0.30650 -0.03200
C 	C 	0.73610 0.49830 0.00550 0.06900
H 	H 	0.71630 0.48460 0.94250 -0.00900
C 	C 	0.67870 0.60590 0.02580 -0.14500
H 	H 	0.62330 0.66240 0.97730 0.06400
C 	C 	0.70450 0.62860 0.11920 0.05400
C 	C 	0.79040 0.54110 0.18480 -0.15400
H 	H 	0.81250 0.55240 0.24820 0.07900
C 	C 	0.84420 0.43630 0.15700 0.08500
H 	H 	0.90310 0.37880 0.20320 -0.02800
C 	C 	0.67590 0.19850 0.15820 -0.23000
Mn	Mn	0.89563 0.22012 0.04146 1.21200
C 	C 	0.10950 0.19450 0.12310 -0.21600
C 	C 	0.85510 0.28630 0.87910 -0.23400
N 	N 	0.83530 0.31840 0.79390 -0.07100
C 	C 	0.97920 0.04390 0.01050 -0.21500
N 	N 	0.20620 0.17230 0.17910 -0.21100
C 	C 	0.20760 0.35470 0.32900 0.07500
H 	H 	0.26160 0.35950 0.25840 -0.02100
C 	C 	0.12440 0.45210 0.37010 -0.14500
H 	H 	0.12180 0.52020 0.32710 0.08100
C 	C 	0.04430 0.44790 0.47630 0.05500
C 	C 	0.05050 0.34310 0.53440 -0.15000
H 	H 	0.99760 0.33580 0.60520 0.07700
C 	C 	0.13500 0.25040 0.48700 0.07300
H 	H 	0.13700 0.18140 0.52770 -0.04300
N 	N 	0.21490 0.25360 0.38520 -0.26600
N 	N 	0.56580 0.17710 0.21910 -0.20300
Mn	Mn	0.63811 0.90192 0.69009 1.20300
C 	C 	0.52270 0.98030 0.54050 -0.22000
N 	N 	0.50280 0.05200 0.77770 -0.26000
N 	N 	0.18180 0.58820 0.93030 -0.24100
C 	C 	0.56210 0.07780 0.85420 0.05200
H 	H 	0.65200 0.02540 0.88350 -0.02300
C 	C 	0.49630 0.17840 0.89160 -0.12400
H 	H 	0.54310 0.19280 0.94410 0.04700
C 	C 	0.36130 0.25730 0.85140 0.03100
C 	C 	0.29390 0.22870 0.77540 -0.14600
H 	H 	0.20070 0.27830 0.74710 0.07000
C 	C 	0.36670 0.12610 0.74270 0.06000
H 	H 	0.31810 0.10760 0.69350 -0.03200
C 	C 	0.26390 0.50170 0.99450 0.06900
H 	H 	0.28370 0.51540 0.05750 -0.00900
C 	C 	0.32130 0.39410 0.97420 -0.14500
H 	H 	0.37670 0.33760 0.02270 0.06400
C 	C 	0.29550 0.37140 0.88080 0.05400
C 	C 	0.20960 0.45890 0.81520 -0.15400
H 	H 	0.18750 0.44760 0.75180 0.07900
C 	C 	0.15580 0.56370 0.84300 0.08500
H 	H 	0.09690 0.62120 0.79680 -0.02800
C 	C 	0.32410 0.80150 0.84180 -0.23000
Mn	Mn	0.10437 0.77988 0.95854 1.21200
C 	C 	0.89050 0.80550 0.87690 -0.21600
C 	C 	0.14490 0.71370 0.12090 -0.23400
N 	N 	0.16470 0.68160 0.20610 -0.07100
C 	C 	0.02080 0.95610 0.98950 -0.21500
N 	N 	0.79380 0.82770 0.82090 -0.21100
C 	C 	0.79240 0.64530 0.67100 0.07500
H 	H 	0.73840 0.64050 0.74160 -0.02100
C 	C 	0.87560 0.54790 0.62990 -0.14500
H 	H 	0.87820 0.47980 0.67290 0.08100
C 	C 	0.95570 0.55210 0.52370 0.05500
C 	C 	0.94950 0.65690 0.46560 -0.15000
H 	H 	0.00240 0.66420 0.39480 0.07700
C 	C 	0.86500 0.74960 0.51300 0.07300
H 	H 	0.86300 0.81860 0.47230 -0.04300
N 	N 	0.78510 0.74640 0.61480 -0.26600
N 	N 	0.43420 0.82290 0.78090 -0.20300
