data_crystal

_cell_length_a 25.76750
_cell_length_b 16.88910
_cell_length_c 13.28190
_cell_angle_alpha 90.00000
_cell_angle_beta  104.73000
_cell_angle_gamma 90.00000

_symmetry_space_group_name_	'P 1'
_symmetry_space_group_name_H-M	'P 1'

loop_
_symmetry_equiv_pos_as_xyz
  x,y,z

loop_
_atom_site_label
_atom_site_type_symbol
_atom_site_fract_x
_atom_site_fract_y
_atom_site_fract_z
_atom_site_charge
Mn	Mn	0.63443 0.07291 0.85667 1.27000
Mn	Mn	0.67287 0.99562 0.61595 1.29500
O 	O 	0.07020 0.50800 0.89020 -0.46200
O 	O 	0.09920 0.44310 0.03980 -0.44200
O 	O 	0.86330 0.47220 0.75530 -0.56800
O 	O 	0.86210 0.36320 0.65980 -0.29100
O 	O 	0.88440 0.29290 0.07170 -0.37300
O 	O 	0.84750 0.38700 0.97460 -0.57500
O 	O 	0.70880 0.12010 0.84900 -0.48100
O 	O 	0.71100 0.09970 0.68460 -0.45900
O 	O 	0.87920 0.16070 0.59560 -0.08700
O 	O 	0.94370 0.20130 0.70280 -0.07100
O 	O 	0.95670 0.14090 0.92950 -0.07000
O 	O 	0.01780 0.18570 0.06100 -0.08600
O 	O 	0.69570 0.02640 0.46870 -0.78400
N 	N 	0.98420 0.19560 0.97260 -0.00700
N 	N 	0.90000 0.17840 0.68520 -0.00100
C 	C 	0.06670 0.45430 0.95390 0.39700
C 	C 	0.01830 0.40020 0.92150 -0.09100
C 	C 	0.97320 0.42500 0.85120 0.04700
H 	H 	0.97170 0.47610 0.82460 0.02200
C 	C 	0.92920 0.37480 0.81840 -0.11600
C 	C 	0.93110 0.29740 0.85840 0.03500
C 	C 	0.97840 0.27380 0.93050 0.07500
C 	C 	0.02130 0.32450 0.96300 -0.02700
H 	H 	0.05190 0.30820 0.01230 0.08100
C 	C 	0.88030 0.40410 0.73750 0.35000
C 	C 	0.88060 0.24810 0.83350 0.05300
C 	C 	0.86520 0.19630 0.75080 0.06800
C 	C 	0.81770 0.15730 0.73160 -0.02000
H 	H 	0.80780 0.12310 0.67500 0.07500
C 	C 	0.78360 0.16860 0.79720 -0.10400
C 	C 	0.79750 0.21850 0.87760 0.07300
H 	H 	0.77470 0.22560 0.92110 0.02200
C 	C 	0.84530 0.25970 0.89680 -0.14400
C 	C 	0.86020 0.31610 0.98820 0.43300
C 	C 	0.73010 0.12540 0.77530 0.39800
H 	H 	0.67730 0.06100 0.42890 0.34200
H 	H 	0.69910 0.98490 0.43530 0.22900
Mn	Mn	0.13443 0.57291 0.85667 1.26900
Mn	Mn	0.17287 0.49562 0.61595 1.29400
O 	O 	0.57020 0.00800 0.89020 -0.46000
O 	O 	0.59920 0.94310 0.03980 -0.44100
O 	O 	0.36330 0.97220 0.75530 -0.56900
O 	O 	0.36210 0.86320 0.65980 -0.29200
O 	O 	0.38440 0.79290 0.07170 -0.37100
O 	O 	0.34750 0.88700 0.97460 -0.57500
O 	O 	0.20880 0.62010 0.84900 -0.48100
O 	O 	0.21100 0.59970 0.68460 -0.45900
O 	O 	0.37920 0.66070 0.59560 -0.08700
O 	O 	0.44370 0.70130 0.70280 -0.07100
O 	O 	0.45670 0.64090 0.92950 -0.07100
O 	O 	0.51780 0.68570 0.06100 -0.08500
O 	O 	0.19570 0.52640 0.46870 -0.78400
N 	N 	0.48420 0.69560 0.97260 -0.00800
N 	N 	0.40000 0.67840 0.68520 -0.00100
C 	C 	0.56670 0.95430 0.95390 0.39300
C 	C 	0.51830 0.90020 0.92150 -0.08800
C 	C 	0.47320 0.92500 0.85120 0.04500
H 	H 	0.47170 0.97610 0.82460 0.02300
C 	C 	0.42920 0.87480 0.81840 -0.11500
C 	C 	0.43110 0.79740 0.85840 0.03400
C 	C 	0.47840 0.77380 0.93050 0.07700
C 	C 	0.52130 0.82450 0.96300 -0.03200
H 	H 	0.55190 0.80820 0.01230 0.08400
C 	C 	0.38030 0.90410 0.73750 0.34900
C 	C 	0.38060 0.74810 0.83350 0.05300
C 	C 	0.36520 0.69630 0.75080 0.06800
C 	C 	0.31770 0.65730 0.73160 -0.02000
H 	H 	0.30780 0.62310 0.67500 0.07400
C 	C 	0.28360 0.66860 0.79720 -0.10400
C 	C 	0.29750 0.71850 0.87760 0.07300
H 	H 	0.27470 0.72560 0.92110 0.02200
C 	C 	0.34530 0.75970 0.89680 -0.14400
C 	C 	0.36020 0.81610 0.98820 0.43100
C 	C 	0.23010 0.62540 0.77530 0.39800
H 	H 	0.17730 0.56100 0.42890 0.34200
H 	H 	0.19910 0.48490 0.43530 0.22800
Mn	Mn	0.36557 0.07291 0.64333 1.26900
Mn	Mn	0.32713 0.99562 0.88405 1.29400
O 	O 	0.92980 0.50800 0.60980 -0.46300
O 	O 	0.90080 0.44310 0.46020 -0.44300
O 	O 	0.13670 0.47220 0.74470 -0.56900
O 	O 	0.13790 0.36320 0.84020 -0.29200
O 	O 	0.11560 0.29290 0.42830 -0.37300
O 	O 	0.15250 0.38700 0.52540 -0.57400
O 	O 	0.29120 0.12010 0.65100 -0.48100
O 	O 	0.28900 0.09970 0.81540 -0.45900
O 	O 	0.12080 0.16070 0.90440 -0.08700
O 	O 	0.05630 0.20130 0.79720 -0.07100
O 	O 	0.04330 0.14090 0.57050 -0.07100
O 	O 	0.98220 0.18570 0.43900 -0.08500
O 	O 	0.30430 0.02640 0.03130 -0.78700
N 	N 	0.01580 0.19560 0.52740 -0.00800
N 	N 	0.10000 0.17840 0.81480 -0.00100
C 	C 	0.93330 0.45430 0.54610 0.39700
C 	C 	0.98170 0.40020 0.57850 -0.09100
C 	C 	0.02680 0.42500 0.64880 0.04700
H 	H 	0.02830 0.47610 0.67540 0.02200
C 	C 	0.07080 0.37480 0.68160 -0.11600
C 	C 	0.06890 0.29740 0.64160 0.03500
C 	C 	0.02160 0.27380 0.56950 0.07500
C 	C 	0.97870 0.32450 0.53700 -0.02800
H 	H 	0.94810 0.30820 0.48770 0.08200
C 	C 	0.11970 0.40410 0.76250 0.34900
C 	C 	0.11940 0.24810 0.66650 0.05300
C 	C 	0.13480 0.19630 0.74920 0.06800
C 	C 	0.18230 0.15730 0.76840 -0.02100
H 	H 	0.19220 0.12310 0.82500 0.07500
C 	C 	0.21640 0.16860 0.70280 -0.10400
C 	C 	0.20250 0.21850 0.62240 0.07300
H 	H 	0.22530 0.22560 0.57890 0.02200
C 	C 	0.15470 0.25970 0.60320 -0.14400
C 	C 	0.13980 0.31610 0.51180 0.43200
C 	C 	0.26990 0.12540 0.72470 0.39800
H 	H 	0.32270 0.06100 0.07110 0.34300
H 	H 	0.30090 0.98490 0.06470 0.23100
Mn	Mn	0.86557 0.57291 0.64333 1.26900
Mn	Mn	0.82713 0.49562 0.88405 1.29400
O 	O 	0.42980 0.00800 0.60980 -0.46200
O 	O 	0.40080 0.94310 0.46020 -0.44300
O 	O 	0.63670 0.97220 0.74470 -0.56900
O 	O 	0.63790 0.86320 0.84020 -0.29200
O 	O 	0.61560 0.79290 0.42830 -0.37200
O 	O 	0.65250 0.88700 0.52540 -0.57400
O 	O 	0.79120 0.62010 0.65100 -0.48100
O 	O 	0.78900 0.59970 0.81540 -0.45900
O 	O 	0.62080 0.66070 0.90440 -0.08700
O 	O 	0.55630 0.70130 0.79720 -0.07100
O 	O 	0.54330 0.64090 0.57050 -0.07100
O 	O 	0.48220 0.68570 0.43900 -0.08500
O 	O 	0.80430 0.52640 0.03130 -0.78400
N 	N 	0.51580 0.69560 0.52740 -0.00800
N 	N 	0.60000 0.67840 0.81480 -0.00100
C 	C 	0.43330 0.95430 0.54610 0.39700
C 	C 	0.48170 0.90020 0.57850 -0.09000
C 	C 	0.52680 0.92500 0.64880 0.04700
H 	H 	0.52830 0.97610 0.67540 0.02200
C 	C 	0.57080 0.87480 0.68160 -0.11600
C 	C 	0.56890 0.79740 0.64160 0.03500
C 	C 	0.52160 0.77380 0.56950 0.07600
C 	C 	0.47870 0.82450 0.53700 -0.02800
H 	H 	0.44810 0.80820 0.48770 0.08200
C 	C 	0.61970 0.90410 0.76250 0.34900
C 	C 	0.61940 0.74810 0.66650 0.05300
C 	C 	0.63480 0.69630 0.74920 0.06800
C 	C 	0.68230 0.65730 0.76840 -0.02000
H 	H 	0.69220 0.62310 0.82500 0.07400
C 	C 	0.71640 0.66860 0.70280 -0.10400
C 	C 	0.70250 0.71850 0.62240 0.07300
H 	H 	0.72530 0.72560 0.57890 0.02200
C 	C 	0.65470 0.75970 0.60320 -0.14400
C 	C 	0.63980 0.81610 0.51180 0.43300
C 	C 	0.76990 0.62540 0.72470 0.39800
H 	H 	0.82270 0.56100 0.07110 0.34200
H 	H 	0.80090 0.48490 0.06470 0.22800
Mn	Mn	0.36557 0.92709 0.14333 1.26900
Mn	Mn	0.32713 0.00438 0.38405 1.29400
O 	O 	0.92980 0.49200 0.10980 -0.46300
O 	O 	0.90080 0.55690 0.96020 -0.44300
O 	O 	0.13670 0.52780 0.24470 -0.56900
O 	O 	0.13790 0.63680 0.34020 -0.29200
O 	O 	0.11560 0.70710 0.92830 -0.37300
O 	O 	0.15250 0.61300 0.02540 -0.57500
O 	O 	0.29120 0.87990 0.15100 -0.48100
O 	O 	0.28900 0.90030 0.31540 -0.45900
O 	O 	0.12080 0.83930 0.40440 -0.08700
O 	O 	0.05630 0.79870 0.29720 -0.07100
O 	O 	0.04330 0.85910 0.07050 -0.07000
O 	O 	0.98220 0.81430 0.93900 -0.08600
O 	O 	0.30430 0.97360 0.53130 -0.78400
N 	N 	0.01580 0.80440 0.02740 -0.00700
N 	N 	0.10000 0.82160 0.31480 -0.00100
C 	C 	0.93330 0.54570 0.04610 0.39700
C 	C 	0.98170 0.59980 0.07850 -0.09100
C 	C 	0.02680 0.57500 0.14880 0.04700
H 	H 	0.02830 0.52390 0.17540 0.02200
C 	C 	0.07080 0.62520 0.18160 -0.11600
C 	C 	0.06890 0.70260 0.14160 0.03500
C 	C 	0.02160 0.72620 0.06950 0.07500
C 	C 	0.97870 0.67550 0.03700 -0.02700
H 	H 	0.94810 0.69180 0.98770 0.08100
C 	C 	0.11970 0.59590 0.26250 0.35000
C 	C 	0.11940 0.75190 0.16650 0.05300
C 	C 	0.13480 0.80370 0.24920 0.06800
C 	C 	0.18230 0.84270 0.26840 -0.02000
H 	H 	0.19220 0.87690 0.32500 0.07500
C 	C 	0.21640 0.83140 0.20280 -0.10400
C 	C 	0.20250 0.78150 0.12240 0.07300
H 	H 	0.22530 0.77440 0.07890 0.02200
C 	C 	0.15470 0.74030 0.10320 -0.14400
C 	C 	0.13980 0.68390 0.01180 0.43300
C 	C 	0.26990 0.87460 0.22470 0.39800
H 	H 	0.32270 0.93900 0.57110 0.34200
H 	H 	0.30090 0.01510 0.56470 0.22900
Mn	Mn	0.86557 0.42709 0.14333 1.26900
Mn	Mn	0.82713 0.50438 0.38405 1.29400
O 	O 	0.42980 0.99200 0.10980 -0.46000
O 	O 	0.40080 0.05690 0.96020 -0.44100
O 	O 	0.63670 0.02780 0.24470 -0.56900
O 	O 	0.63790 0.13680 0.34020 -0.29200
O 	O 	0.61560 0.20710 0.92830 -0.37100
O 	O 	0.65250 0.11300 0.02540 -0.57500
O 	O 	0.79120 0.37990 0.15100 -0.48100
O 	O 	0.78900 0.40030 0.31540 -0.45900
O 	O 	0.62080 0.33930 0.40440 -0.08700
O 	O 	0.55630 0.29870 0.29720 -0.07100
O 	O 	0.54330 0.35910 0.07050 -0.07100
O 	O 	0.48220 0.31430 0.93900 -0.08500
O 	O 	0.80430 0.47360 0.53130 -0.78400
N 	N 	0.51580 0.30440 0.02740 -0.00800
N 	N 	0.60000 0.32160 0.31480 -0.00100
C 	C 	0.43330 0.04570 0.04610 0.39300
C 	C 	0.48170 0.09980 0.07850 -0.08800
C 	C 	0.52680 0.07500 0.14880 0.04500
H 	H 	0.52830 0.02390 0.17540 0.02300
C 	C 	0.57080 0.12520 0.18160 -0.11500
C 	C 	0.56890 0.20260 0.14160 0.03400
C 	C 	0.52160 0.22620 0.06950 0.07700
C 	C 	0.47870 0.17550 0.03700 -0.03200
H 	H 	0.44810 0.19180 0.98770 0.08400
C 	C 	0.61970 0.09590 0.26250 0.34900
C 	C 	0.61940 0.25190 0.16650 0.05300
C 	C 	0.63480 0.30370 0.24920 0.06800
C 	C 	0.68230 0.34270 0.26840 -0.02000
H 	H 	0.69220 0.37690 0.32500 0.07400
C 	C 	0.71640 0.33140 0.20280 -0.10400
C 	C 	0.70250 0.28150 0.12240 0.07300
H 	H 	0.72530 0.27440 0.07890 0.02200
C 	C 	0.65470 0.24030 0.10320 -0.14400
C 	C 	0.63980 0.18390 0.01180 0.43100
C 	C 	0.76990 0.37460 0.22470 0.39800
H 	H 	0.82270 0.43900 0.57110 0.34200
H 	H 	0.80090 0.51510 0.56470 0.22800
Mn	Mn	0.63443 0.92709 0.35667 1.26900
Mn	Mn	0.67287 0.00438 0.11595 1.29400
O 	O 	0.07020 0.49200 0.39020 -0.46300
O 	O 	0.09920 0.55690 0.53980 -0.44300
O 	O 	0.86330 0.52780 0.25530 -0.56900
O 	O 	0.86210 0.63680 0.15980 -0.29200
O 	O 	0.88440 0.70710 0.57170 -0.37300
O 	O 	0.84750 0.61300 0.47460 -0.57400
O 	O 	0.70880 0.87990 0.34900 -0.48100
O 	O 	0.71100 0.90030 0.18460 -0.45900
O 	O 	0.87920 0.83930 0.09560 -0.08700
O 	O 	0.94370 0.79870 0.20280 -0.07100
O 	O 	0.95670 0.85910 0.42950 -0.07100
O 	O 	0.01780 0.81430 0.56100 -0.08500
O 	O 	0.69570 0.97360 0.96870 -0.78700
N 	N 	0.98420 0.80440 0.47260 -0.00800
N 	N 	0.90000 0.82160 0.18520 -0.00100
C 	C 	0.06670 0.54570 0.45390 0.39700
C 	C 	0.01830 0.59980 0.42150 -0.09100
C 	C 	0.97320 0.57500 0.35120 0.04700
H 	H 	0.97170 0.52390 0.32460 0.02200
C 	C 	0.92920 0.62520 0.31840 -0.11600
C 	C 	0.93110 0.70260 0.35840 0.03500
C 	C 	0.97840 0.72620 0.43050 0.07500
C 	C 	0.02130 0.67550 0.46300 -0.02800
H 	H 	0.05190 0.69180 0.51230 0.08200
C 	C 	0.88030 0.59590 0.23750 0.34900
C 	C 	0.88060 0.75190 0.33350 0.05300
C 	C 	0.86520 0.80370 0.25080 0.06800
C 	C 	0.81770 0.84270 0.23160 -0.02100
H 	H 	0.80780 0.87690 0.17500 0.07500
C 	C 	0.78360 0.83140 0.29720 -0.10400
C 	C 	0.79750 0.78150 0.37760 0.07300
H 	H 	0.77470 0.77440 0.42110 0.02200
C 	C 	0.84530 0.74030 0.39680 -0.14400
C 	C 	0.86020 0.68390 0.48820 0.43200
C 	C 	0.73010 0.87460 0.27530 0.39800
H 	H 	0.67730 0.93900 0.92890 0.34300
H 	H 	0.69910 0.01510 0.93530 0.23100
Mn	Mn	0.13443 0.42709 0.35667 1.26900
Mn	Mn	0.17287 0.50438 0.11595 1.29400
O 	O 	0.57020 0.99200 0.39020 -0.46200
O 	O 	0.59920 0.05690 0.53980 -0.44300
O 	O 	0.36330 0.02780 0.25530 -0.56900
O 	O 	0.36210 0.13680 0.15980 -0.29200
O 	O 	0.38440 0.20710 0.57170 -0.37200
O 	O 	0.34750 0.11300 0.47460 -0.57400
O 	O 	0.20880 0.37990 0.34900 -0.48100
O 	O 	0.21100 0.40030 0.18460 -0.45900
O 	O 	0.37920 0.33930 0.09560 -0.08700
O 	O 	0.44370 0.29870 0.20280 -0.07100
O 	O 	0.45670 0.35910 0.42950 -0.07100
O 	O 	0.51780 0.31430 0.56100 -0.08500
O 	O 	0.19570 0.47360 0.96870 -0.78400
N 	N 	0.48420 0.30440 0.47260 -0.00800
N 	N 	0.40000 0.32160 0.18520 -0.00100
C 	C 	0.56670 0.04570 0.45390 0.39700
C 	C 	0.51830 0.09980 0.42150 -0.09000
C 	C 	0.47320 0.07500 0.35120 0.04700
H 	H 	0.47170 0.02390 0.32460 0.02200
C 	C 	0.42920 0.12520 0.31840 -0.11600
C 	C 	0.43110 0.20260 0.35840 0.03500
C 	C 	0.47840 0.22620 0.43050 0.07600
C 	C 	0.52130 0.17550 0.46300 -0.02800
H 	H 	0.55190 0.19180 0.51230 0.08200
C 	C 	0.38030 0.09590 0.23750 0.34900
C 	C 	0.38060 0.25190 0.33350 0.05300
C 	C 	0.36520 0.30370 0.25080 0.06800
C 	C 	0.31770 0.34270 0.23160 -0.02000
H 	H 	0.30780 0.37690 0.17500 0.07400
C 	C 	0.28360 0.33140 0.29720 -0.10400
C 	C 	0.29750 0.28150 0.37760 0.07300
H 	H 	0.27470 0.27440 0.42110 0.02200
C 	C 	0.34530 0.24030 0.39680 -0.14400
C 	C 	0.36020 0.18390 0.48820 0.43300
C 	C 	0.23010 0.37460 0.27530 0.39800
H 	H 	0.17730 0.43900 0.92890 0.34200
H 	H 	0.19910 0.51510 0.93530 0.22800
