data_crystal

_cell_length_a 62.83990
_cell_length_b 62.83990
_cell_length_c 62.83990
_cell_angle_alpha 60.00000
_cell_angle_beta  60.00000
_cell_angle_gamma 60.00000

_symmetry_space_group_name_	'P 1'
_symmetry_space_group_name_H-M	'P 1'

loop_
_symmetry_equiv_pos_as_xyz
  x,y,z

loop_
_atom_site_label
_atom_site_type_symbol
_atom_site_fract_x
_atom_site_fract_y
_atom_site_fract_z
_atom_site_charge
Cr	Cr	0.11423 0.28384 0.65770 1.57300
Cr	Cr	0.30656 0.35963 0.53034 1.57900
C 	C 	0.42240 0.46092 0.54723 0.01100
C 	C 	0.36102 0.39955 0.51247 0.00200
C 	C 	0.37603 0.41455 0.50403 0.00200
C 	C 	0.31679 0.40521 0.42746 0.00100
C 	C 	0.31227 0.38220 0.47489 0.43300
C 	C 	0.31089 0.40641 0.45167 -0.11000
C 	C 	0.30458 0.43068 0.45304 0.00100
C 	C 	0.18594 0.20837 0.64843 -0.00200
C 	C 	0.15936 0.25305 0.62501 0.41900
C 	C 	0.18218 0.22795 0.62494 -0.10200
C 	C 	0.20145 0.22390 0.60143 -0.00200
C 	C 	0.16297 0.26799 0.70516 -0.00200
C 	C 	0.14404 0.29961 0.66831 0.41900
C 	C 	0.15870 0.29240 0.68530 -0.10200
C 	C 	0.17681 0.26152 0.72083 -0.00200
C 	C 	0.20310 0.27199 0.73261 0.42100
C 	C 	0.18675 0.27927 0.71726 -0.10400
C 	C 	0.16851 0.31016 0.68190 -0.00200
C 	C 	0.18222 0.30374 0.69757 -0.00100
C 	C 	0.28425 0.32264 0.62099 -0.00800
C 	C 	0.27520 0.31363 0.64841 0.01400
C 	C 	0.32224 0.24194 0.53632 0.00200
C 	C 	0.34166 0.27304 0.52830 0.43900
C 	C 	0.33972 0.24672 0.53987 -0.11400
C 	C 	0.31889 0.21750 0.54938 0.00200
C 	C 	0.07796 0.33257 0.66808 0.44100
C 	C 	0.33299 0.19747 0.56615 -0.11500
C 	C 	0.35438 0.22638 0.55592 0.00200
C 	C 	0.35111 0.20213 0.56881 0.00300
O 	O 	0.42559 0.46103 0.50214 -0.54200
O 	O 	0.33327 0.36883 0.52525 -0.53700
O 	O 	0.40801 0.44352 0.48477 -0.53700
O 	O 	0.30637 0.38370 0.49673 -0.53000
O 	O 	0.36082 0.31969 0.47176 -0.53500
O 	O 	0.14341 0.25626 0.64681 -0.52600
O 	O 	0.09285 0.28098 0.64670 -0.52400
O 	O 	0.13396 0.28390 0.67277 -0.52300
O 	O 	0.14205 0.32149 0.65000 -0.52300
O 	O 	0.20797 0.24927 0.74940 -0.52500
O 	O 	0.21218 0.28867 0.72771 -0.52700
O 	O 	0.30379 0.33926 0.56556 -0.52600
O 	O 	0.25801 0.29346 0.70249 -0.53300
O 	O 	0.33112 0.29016 0.51111 -0.53700
O 	O 	0.27746 0.35332 0.53657 -0.53700
O 	O 	0.08410 0.30855 0.67227 -0.53100
O 	O 	0.15737 0.33907 0.59943 -0.54800
H 	H 	0.40729 0.47622 0.53902 0.03400
H 	H 	0.34037 0.40917 0.51532 0.03500
H 	H 	0.36649 0.43529 0.50073 0.03500
H 	H 	0.32174 0.38695 0.42554 0.03600
H 	H 	0.29999 0.43236 0.47131 0.03500
H 	H 	0.17176 0.21061 0.66698 0.03600
H 	H 	0.19950 0.23842 0.58290 0.03500
H 	H 	0.15579 0.25374 0.70849 0.03500
H 	H 	0.17998 0.24241 0.73557 0.03500
H 	H 	0.16567 0.32917 0.66698 0.03600
H 	H 	0.18961 0.31797 0.69394 0.03600
H 	H 	0.27242 0.34107 0.61090 0.03700
H 	H 	0.25665 0.32549 0.65835 0.03200
H 	H 	0.31059 0.25730 0.52408 0.03600
H 	H 	0.30483 0.21452 0.54690 0.03500
H 	H 	0.36814 0.22928 0.55895 0.03400
H 	H 	0.36260 0.18711 0.58131 0.03400
Cr	Cr	0.28384 0.11423 0.94423 1.57300
Cr	Cr	0.35963 0.30656 0.80348 1.57900
C 	C 	0.46092 0.42240 0.56944 0.01100
C 	C 	0.39955 0.36102 0.72696 0.00200
C 	C 	0.41455 0.37603 0.70539 0.00300
C 	C 	0.40521 0.31679 0.85054 0.00100
C 	C 	0.38220 0.31227 0.83063 0.43300
C 	C 	0.40641 0.31089 0.83104 -0.11000
C 	C 	0.43068 0.30458 0.81170 0.00000
C 	C 	0.20837 0.18594 0.95726 -0.00200
C 	C 	0.25305 0.15936 0.96258 0.41800
C 	C 	0.22795 0.18218 0.96494 -0.10200
C 	C 	0.22390 0.20145 0.97322 -0.00200
C 	C 	0.26799 0.16297 0.86389 -0.00200
C 	C 	0.29961 0.14404 0.88804 0.41900
C 	C 	0.29240 0.15870 0.86360 -0.10300
C 	C 	0.26152 0.17681 0.84085 -0.00200
C 	C 	0.27199 0.20310 0.79230 0.42100
C 	C 	0.27927 0.18675 0.81672 -0.10400
C 	C 	0.31016 0.16851 0.83943 -0.00200
C 	C 	0.30374 0.18222 0.81647 -0.00200
C 	C 	0.32264 0.28425 0.77212 -0.00800
C 	C 	0.31363 0.27520 0.76276 0.01400
C 	C 	0.24194 0.32224 0.89950 0.00200
C 	C 	0.27304 0.34166 0.85700 0.43800
C 	C 	0.24672 0.33972 0.87369 -0.11400
C 	C 	0.21750 0.31889 0.91423 0.00200
C 	C 	0.33257 0.07796 0.92138 0.44100
C 	C 	0.19747 0.33299 0.90339 -0.11500
C 	C 	0.22638 0.35438 0.86331 0.00200
C 	C 	0.20213 0.35111 0.87794 0.00400
O 	O 	0.46103 0.42559 0.61124 -0.54200
O 	O 	0.36883 0.33327 0.77265 -0.53700
O 	O 	0.44352 0.40801 0.66370 -0.53700
O 	O 	0.38370 0.30637 0.81320 -0.53100
O 	O 	0.31969 0.36082 0.84773 -0.53500
O 	O 	0.25626 0.14341 0.95352 -0.52500
O 	O 	0.28098 0.09285 0.97946 -0.52300
O 	O 	0.28390 0.13396 0.90937 -0.52200
O 	O 	0.32149 0.14205 0.88647 -0.52200
O 	O 	0.24927 0.20797 0.79336 -0.52300
O 	O 	0.28867 0.21218 0.77143 -0.52700
O 	O 	0.33926 0.30379 0.79140 -0.52500
O 	O 	0.29346 0.25801 0.74604 -0.53200
O 	O 	0.29016 0.33112 0.86762 -0.53600
O 	O 	0.35332 0.27746 0.83264 -0.53600
O 	O 	0.30855 0.08410 0.93508 -0.53000
O 	O 	0.33907 0.15737 0.90414 -0.54700
H 	H 	0.47622 0.40729 0.57747 0.03500
H 	H 	0.40917 0.34037 0.73515 0.03600
H 	H 	0.43529 0.36649 0.69749 0.03600
H 	H 	0.38695 0.32174 0.86577 0.03700
H 	H 	0.43236 0.29999 0.79634 0.03600
H 	H 	0.21061 0.17176 0.95064 0.03700
H 	H 	0.23842 0.19950 0.97918 0.03700
H 	H 	0.25374 0.15579 0.88199 0.03600
H 	H 	0.24241 0.17998 0.84203 0.03600
H 	H 	0.32917 0.16567 0.83819 0.03700
H 	H 	0.31797 0.18961 0.79849 0.03700
H 	H 	0.34107 0.27242 0.77561 0.03800
H 	H 	0.32549 0.25665 0.75951 0.03300
H 	H 	0.25730 0.31059 0.90802 0.03700
H 	H 	0.21452 0.30483 0.93376 0.03600
H 	H 	0.22928 0.36814 0.84363 0.03500
H 	H 	0.18711 0.36260 0.86898 0.03500
Cr	Cr	0.65770 0.94423 0.11423 1.57400
Cr	Cr	0.53034 0.80348 0.30656 1.58000
C 	C 	0.54723 0.56944 0.42240 0.01200
C 	C 	0.51247 0.72696 0.36102 0.00300
C 	C 	0.50403 0.70539 0.37603 0.00400
C 	C 	0.42746 0.85054 0.31679 0.00200
C 	C 	0.47489 0.83063 0.31227 0.43400
C 	C 	0.45167 0.83104 0.31089 -0.10900
C 	C 	0.45304 0.81170 0.30458 0.00200
C 	C 	0.64843 0.95726 0.18594 -0.00100
C 	C 	0.62501 0.96258 0.15936 0.42000
C 	C 	0.62494 0.96494 0.18218 -0.10100
C 	C 	0.60143 0.97322 0.20145 -0.00100
C 	C 	0.70516 0.86389 0.16297 -0.00100
C 	C 	0.66831 0.88804 0.14404 0.42000
C 	C 	0.68530 0.86360 0.15870 -0.10200
C 	C 	0.72083 0.84085 0.17681 -0.00100
C 	C 	0.73261 0.79230 0.20310 0.42100
C 	C 	0.71726 0.81672 0.18675 -0.10200
C 	C 	0.68190 0.83943 0.16851 -0.00100
C 	C 	0.69757 0.81647 0.18222 -0.00100
C 	C 	0.62099 0.77212 0.28425 -0.00700
C 	C 	0.64841 0.76276 0.27520 0.01500
C 	C 	0.53632 0.89950 0.32224 0.00300
C 	C 	0.52830 0.85700 0.34166 0.43900
C 	C 	0.53987 0.87369 0.33972 -0.11300
C 	C 	0.54938 0.91423 0.31889 0.00300
C 	C 	0.66808 0.92138 0.07796 0.44100
C 	C 	0.56615 0.90339 0.33299 -0.11400
C 	C 	0.55592 0.86331 0.35438 0.00300
C 	C 	0.56881 0.87794 0.35111 0.00400
O 	O 	0.50214 0.61124 0.42559 -0.54100
O 	O 	0.52525 0.77265 0.33327 -0.53600
O 	O 	0.48477 0.66370 0.40801 -0.53500
O 	O 	0.49673 0.81320 0.30637 -0.52900
O 	O 	0.47176 0.84773 0.36082 -0.53400
O 	O 	0.64681 0.95352 0.14341 -0.52500
O 	O 	0.64670 0.97946 0.09285 -0.52300
O 	O 	0.67277 0.90937 0.13396 -0.52200
O 	O 	0.65000 0.88647 0.14205 -0.52300
O 	O 	0.74940 0.79336 0.20797 -0.52300
O 	O 	0.72771 0.77143 0.21218 -0.52600
O 	O 	0.56556 0.79140 0.30379 -0.52500
O 	O 	0.70249 0.74604 0.25801 -0.53200
O 	O 	0.51111 0.86762 0.33112 -0.53600
O 	O 	0.53657 0.83264 0.27746 -0.53600
O 	O 	0.67227 0.93508 0.08410 -0.53000
O 	O 	0.59943 0.90414 0.15737 -0.54700
H 	H 	0.53902 0.57747 0.40729 0.03500
H 	H 	0.51532 0.73515 0.34037 0.03600
H 	H 	0.50073 0.69749 0.36649 0.03600
H 	H 	0.42554 0.86577 0.32174 0.03700
H 	H 	0.47131 0.79634 0.29999 0.03600
H 	H 	0.66698 0.95064 0.17176 0.03700
H 	H 	0.58290 0.97918 0.19950 0.03700
H 	H 	0.70849 0.88199 0.15579 0.03600
H 	H 	0.73557 0.84203 0.17998 0.03600
H 	H 	0.66698 0.83819 0.16567 0.03700
H 	H 	0.69394 0.79849 0.18961 0.03700
H 	H 	0.61090 0.77561 0.27242 0.03800
H 	H 	0.65835 0.75951 0.25665 0.03300
H 	H 	0.52408 0.90802 0.31059 0.03700
H 	H 	0.54690 0.93376 0.30483 0.03600
H 	H 	0.55895 0.84363 0.36814 0.03500
H 	H 	0.58131 0.86898 0.36260 0.03500
Cr	Cr	0.94423 0.65770 0.28384 1.57400
Cr	Cr	0.80348 0.53034 0.35963 1.58000
C 	C 	0.56944 0.54723 0.46092 0.01200
C 	C 	0.72696 0.51247 0.39955 0.00300
C 	C 	0.70539 0.50403 0.41455 0.00400
C 	C 	0.85054 0.42746 0.40521 0.00200
C 	C 	0.83063 0.47489 0.38220 0.43400
C 	C 	0.83104 0.45167 0.40641 -0.10900
C 	C 	0.81170 0.45304 0.43068 0.00200
C 	C 	0.95726 0.64843 0.20837 -0.00100
C 	C 	0.96258 0.62501 0.25305 0.42000
C 	C 	0.96494 0.62494 0.22795 -0.10100
C 	C 	0.97322 0.60143 0.22390 -0.00100
C 	C 	0.86389 0.70516 0.26799 -0.00100
C 	C 	0.88804 0.66831 0.29961 0.42000
C 	C 	0.86360 0.68530 0.29240 -0.10200
C 	C 	0.84085 0.72083 0.26152 -0.00100
C 	C 	0.79230 0.73261 0.27199 0.42100
C 	C 	0.81672 0.71726 0.27927 -0.10300
C 	C 	0.83943 0.68190 0.31016 -0.00100
C 	C 	0.81647 0.69757 0.30374 -0.00100
C 	C 	0.77212 0.62099 0.32264 -0.00700
C 	C 	0.76276 0.64841 0.31363 0.01500
C 	C 	0.89950 0.53632 0.24194 0.00300
C 	C 	0.85700 0.52830 0.27304 0.43900
C 	C 	0.87369 0.53987 0.24672 -0.11300
C 	C 	0.91423 0.54938 0.21750 0.00300
C 	C 	0.92138 0.66808 0.33257 0.44100
C 	C 	0.90339 0.56615 0.19747 -0.11400
C 	C 	0.86331 0.55592 0.22638 0.00300
C 	C 	0.87794 0.56881 0.20213 0.00400
O 	O 	0.61124 0.50214 0.46103 -0.54100
O 	O 	0.77265 0.52525 0.36883 -0.53600
O 	O 	0.66370 0.48477 0.44352 -0.53600
O 	O 	0.81320 0.49673 0.38370 -0.52900
O 	O 	0.84773 0.47176 0.31969 -0.53400
O 	O 	0.95352 0.64681 0.25626 -0.52500
O 	O 	0.97946 0.64670 0.28098 -0.52300
O 	O 	0.90937 0.67277 0.28390 -0.52200
O 	O 	0.88647 0.65000 0.32149 -0.52300
O 	O 	0.79336 0.74940 0.24927 -0.52300
O 	O 	0.77143 0.72771 0.28867 -0.52600
O 	O 	0.79140 0.56556 0.33926 -0.52500
O 	O 	0.74604 0.70249 0.29346 -0.53200
O 	O 	0.86762 0.51111 0.29016 -0.53600
O 	O 	0.83264 0.53657 0.35332 -0.53600
O 	O 	0.93508 0.67227 0.30855 -0.53000
O 	O 	0.90414 0.59943 0.33907 -0.54700
H 	H 	0.57747 0.53902 0.47622 0.03500
H 	H 	0.73515 0.51532 0.40917 0.03600
H 	H 	0.69749 0.50073 0.43529 0.03600
H 	H 	0.86577 0.42554 0.38695 0.03700
H 	H 	0.79634 0.47131 0.43236 0.03600
H 	H 	0.95064 0.66698 0.21061 0.03700
H 	H 	0.97918 0.58290 0.23842 0.03700
H 	H 	0.88199 0.70849 0.25374 0.03600
H 	H 	0.84203 0.73557 0.24241 0.03600
H 	H 	0.83819 0.66698 0.32917 0.03700
H 	H 	0.79849 0.69394 0.31797 0.03700
H 	H 	0.77561 0.61090 0.34107 0.03800
H 	H 	0.75951 0.65835 0.32549 0.03300
H 	H 	0.90802 0.52408 0.25730 0.03700
H 	H 	0.93376 0.54690 0.21452 0.03600
H 	H 	0.84363 0.55895 0.22928 0.03500
H 	H 	0.86898 0.58131 0.18711 0.03500
Cr	Cr	0.65770 0.11423 0.28384 1.57400
Cr	Cr	0.53034 0.30656 0.35963 1.58000
C 	C 	0.54723 0.42240 0.46092 0.01200
C 	C 	0.51247 0.36102 0.39955 0.00300
C 	C 	0.50403 0.37603 0.41455 0.00300
C 	C 	0.42746 0.31679 0.40521 0.00200
C 	C 	0.47489 0.31227 0.38220 0.43400
C 	C 	0.45167 0.31089 0.40641 -0.10900
C 	C 	0.45304 0.30458 0.43068 0.00200
C 	C 	0.64843 0.18594 0.20837 -0.00100
C 	C 	0.62501 0.15936 0.25305 0.42000
C 	C 	0.62494 0.18218 0.22795 -0.10100
C 	C 	0.60143 0.20145 0.22390 -0.00100
C 	C 	0.70516 0.16297 0.26799 -0.00100
C 	C 	0.66831 0.14404 0.29961 0.42000
C 	C 	0.68530 0.15870 0.29240 -0.10100
C 	C 	0.72083 0.17681 0.26152 -0.00100
C 	C 	0.73261 0.20310 0.27199 0.42200
C 	C 	0.71726 0.18675 0.27927 -0.10300
C 	C 	0.68190 0.16851 0.31016 -0.00100
C 	C 	0.69757 0.18222 0.30374 -0.00000
C 	C 	0.62099 0.28425 0.32264 -0.00700
C 	C 	0.64841 0.27520 0.31363 0.01500
C 	C 	0.53632 0.32224 0.24194 0.00300
C 	C 	0.52830 0.34166 0.27304 0.44000
C 	C 	0.53987 0.33972 0.24672 -0.11300
C 	C 	0.54938 0.31889 0.21750 0.00300
C 	C 	0.66808 0.07796 0.33257 0.44200
C 	C 	0.56615 0.33299 0.19747 -0.11400
C 	C 	0.55592 0.35438 0.22638 0.00300
C 	C 	0.56881 0.35111 0.20213 0.00400
O 	O 	0.50214 0.42559 0.46103 -0.54100
O 	O 	0.52525 0.33327 0.36883 -0.53600
O 	O 	0.48477 0.40801 0.44352 -0.53600
O 	O 	0.49673 0.30637 0.38370 -0.52900
O 	O 	0.47176 0.36082 0.31969 -0.53400
O 	O 	0.64681 0.14341 0.25626 -0.52500
O 	O 	0.64670 0.09285 0.28098 -0.52300
O 	O 	0.67277 0.13396 0.28390 -0.52200
O 	O 	0.65000 0.14205 0.32149 -0.52200
O 	O 	0.74940 0.20797 0.24927 -0.52400
O 	O 	0.72771 0.21218 0.28867 -0.52600
O 	O 	0.56556 0.30379 0.33926 -0.52500
O 	O 	0.70249 0.25801 0.29346 -0.53200
O 	O 	0.51111 0.33112 0.29016 -0.53600
O 	O 	0.53657 0.27746 0.35332 -0.53600
O 	O 	0.67227 0.08410 0.30855 -0.53000
O 	O 	0.59943 0.15737 0.33907 -0.54700
H 	H 	0.53902 0.40729 0.47622 0.03500
H 	H 	0.51532 0.34037 0.40917 0.03600
H 	H 	0.50073 0.36649 0.43529 0.03600
H 	H 	0.42554 0.32174 0.38695 0.03700
H 	H 	0.47131 0.29999 0.43236 0.03600
H 	H 	0.66698 0.17176 0.21061 0.03700
H 	H 	0.58290 0.19950 0.23842 0.03600
H 	H 	0.70849 0.15579 0.25374 0.03600
H 	H 	0.73557 0.17998 0.24241 0.03600
H 	H 	0.66698 0.16567 0.32917 0.03700
H 	H 	0.69394 0.18961 0.31797 0.03700
H 	H 	0.61090 0.27242 0.34107 0.03800
H 	H 	0.65835 0.25665 0.32549 0.03300
H 	H 	0.52408 0.31059 0.25730 0.03700
H 	H 	0.54690 0.30483 0.21452 0.03600
H 	H 	0.55895 0.36814 0.22928 0.03500
H 	H 	0.58131 0.36260 0.18711 0.03500
Cr	Cr	0.94423 0.28384 0.11423 1.57400
Cr	Cr	0.80348 0.35963 0.30656 1.58000
C 	C 	0.56944 0.46092 0.42240 0.01200
C 	C 	0.72696 0.39955 0.36102 0.00300
C 	C 	0.70539 0.41455 0.37603 0.00400
C 	C 	0.85054 0.40521 0.31679 0.00200
C 	C 	0.83063 0.38220 0.31227 0.43400
C 	C 	0.83104 0.40641 0.31089 -0.10900
C 	C 	0.81170 0.43068 0.30458 0.00100
C 	C 	0.95726 0.20837 0.18594 -0.00100
C 	C 	0.96258 0.25305 0.15936 0.41900
C 	C 	0.96494 0.22795 0.18218 -0.10100
C 	C 	0.97322 0.22390 0.20145 -0.00100
C 	C 	0.86389 0.26799 0.16297 -0.00100
C 	C 	0.88804 0.29961 0.14404 0.42000
C 	C 	0.86360 0.29240 0.15870 -0.10200
C 	C 	0.84085 0.26152 0.17681 -0.00100
C 	C 	0.79230 0.27199 0.20310 0.42200
C 	C 	0.81672 0.27927 0.18675 -0.10300
C 	C 	0.83943 0.31016 0.16851 -0.00100
C 	C 	0.81647 0.30374 0.18222 -0.00100
C 	C 	0.77212 0.32264 0.28425 -0.00700
C 	C 	0.76276 0.31363 0.27520 0.01500
C 	C 	0.89950 0.24194 0.32224 0.00300
C 	C 	0.85700 0.27304 0.34166 0.43900
C 	C 	0.87369 0.24672 0.33972 -0.11300
C 	C 	0.91423 0.21750 0.31889 0.00300
C 	C 	0.92138 0.33257 0.07796 0.44200
C 	C 	0.90339 0.19747 0.33299 -0.11400
C 	C 	0.86331 0.22638 0.35438 0.00300
C 	C 	0.87794 0.20213 0.35111 0.00500
O 	O 	0.61124 0.46103 0.42559 -0.54100
O 	O 	0.77265 0.36883 0.33327 -0.53600
O 	O 	0.66370 0.44352 0.40801 -0.53600
O 	O 	0.81320 0.38370 0.30637 -0.53000
O 	O 	0.84773 0.31969 0.36082 -0.53400
O 	O 	0.95352 0.25626 0.14341 -0.52400
O 	O 	0.97946 0.28098 0.09285 -0.52300
O 	O 	0.90937 0.28390 0.13396 -0.52200
O 	O 	0.88647 0.32149 0.14205 -0.52200
O 	O 	0.79336 0.24927 0.20797 -0.52300
O 	O 	0.77143 0.28867 0.21218 -0.52700
O 	O 	0.79140 0.33926 0.30379 -0.52500
O 	O 	0.74604 0.29346 0.25801 -0.53200
O 	O 	0.86762 0.29016 0.33112 -0.53600
O 	O 	0.83264 0.35332 0.27746 -0.53600
O 	O 	0.93508 0.30855 0.08410 -0.53000
O 	O 	0.90414 0.33907 0.15737 -0.54700
H 	H 	0.57747 0.47622 0.40729 0.03500
H 	H 	0.73515 0.40917 0.34037 0.03600
H 	H 	0.69749 0.43529 0.36649 0.03600
H 	H 	0.86577 0.38695 0.32174 0.03700
H 	H 	0.79634 0.43236 0.29999 0.03600
H 	H 	0.95064 0.21061 0.17176 0.03700
H 	H 	0.97918 0.23842 0.19950 0.03700
H 	H 	0.88199 0.25374 0.15579 0.03600
H 	H 	0.84203 0.24241 0.17998 0.03600
H 	H 	0.83819 0.32917 0.16567 0.03700
H 	H 	0.79849 0.31797 0.18961 0.03700
H 	H 	0.77561 0.34107 0.27242 0.03800
H 	H 	0.75951 0.32549 0.25665 0.03300
H 	H 	0.90802 0.25730 0.31059 0.03700
H 	H 	0.93376 0.21452 0.30483 0.03600
H 	H 	0.84363 0.22928 0.36814 0.03500
H 	H 	0.86898 0.18711 0.36260 0.03500
Cr	Cr	0.11423 0.65770 0.94423 1.57400
Cr	Cr	0.30656 0.53034 0.80348 1.58000
C 	C 	0.42240 0.54723 0.56944 0.01200
C 	C 	0.36102 0.51247 0.72696 0.00300
C 	C 	0.37603 0.50403 0.70539 0.00400
C 	C 	0.31679 0.42746 0.85054 0.00200
C 	C 	0.31227 0.47489 0.83063 0.43400
C 	C 	0.31089 0.45167 0.83104 -0.10900
C 	C 	0.30458 0.45304 0.81170 0.00200
C 	C 	0.18594 0.64843 0.95726 -0.00100
C 	C 	0.15936 0.62501 0.96258 0.42000
C 	C 	0.18218 0.62494 0.96494 -0.10100
C 	C 	0.20145 0.60143 0.97322 -0.00100
C 	C 	0.16297 0.70516 0.86389 -0.00100
C 	C 	0.14404 0.66831 0.88804 0.42000
C 	C 	0.15870 0.68530 0.86360 -0.10200
C 	C 	0.17681 0.72083 0.84085 -0.00100
C 	C 	0.20310 0.73261 0.79230 0.42100
C 	C 	0.18675 0.71726 0.81672 -0.10200
C 	C 	0.16851 0.68190 0.83943 -0.00100
C 	C 	0.18222 0.69757 0.81647 -0.00100
C 	C 	0.28425 0.62099 0.77212 -0.00700
C 	C 	0.27520 0.64841 0.76276 0.01500
C 	C 	0.32224 0.53632 0.89950 0.00300
C 	C 	0.34166 0.52830 0.85700 0.43900
C 	C 	0.33972 0.53987 0.87369 -0.11300
C 	C 	0.31889 0.54938 0.91423 0.00300
C 	C 	0.07796 0.66808 0.92138 0.44100
C 	C 	0.33299 0.56615 0.90339 -0.11400
C 	C 	0.35438 0.55592 0.86331 0.00300
C 	C 	0.35111 0.56881 0.87794 0.00400
O 	O 	0.42559 0.50214 0.61124 -0.54100
O 	O 	0.33327 0.52525 0.77265 -0.53600
O 	O 	0.40801 0.48477 0.66370 -0.53500
O 	O 	0.30637 0.49673 0.81320 -0.52900
O 	O 	0.36082 0.47176 0.84773 -0.53400
O 	O 	0.14341 0.64681 0.95352 -0.52500
O 	O 	0.09285 0.64670 0.97946 -0.52300
O 	O 	0.13396 0.67277 0.90937 -0.52200
O 	O 	0.14205 0.65000 0.88647 -0.52300
O 	O 	0.20797 0.74940 0.79336 -0.52300
O 	O 	0.21218 0.72771 0.77143 -0.52600
O 	O 	0.30379 0.56556 0.79140 -0.52500
O 	O 	0.25801 0.70249 0.74604 -0.53200
O 	O 	0.33112 0.51111 0.86762 -0.53600
O 	O 	0.27746 0.53657 0.83264 -0.53600
O 	O 	0.08410 0.67227 0.93508 -0.53000
O 	O 	0.15737 0.59943 0.90414 -0.54700
H 	H 	0.40729 0.53902 0.57747 0.03500
H 	H 	0.34037 0.51532 0.73515 0.03600
H 	H 	0.36649 0.50073 0.69749 0.03600
H 	H 	0.32174 0.42554 0.86577 0.03700
H 	H 	0.29999 0.47131 0.79634 0.03600
H 	H 	0.17176 0.66698 0.95064 0.03700
H 	H 	0.19950 0.58290 0.97918 0.03700
H 	H 	0.15579 0.70849 0.88199 0.03600
H 	H 	0.17998 0.73557 0.84203 0.03600
H 	H 	0.16567 0.66698 0.83819 0.03700
H 	H 	0.18961 0.69394 0.79849 0.03700
H 	H 	0.27242 0.61090 0.77561 0.03800
H 	H 	0.25665 0.65835 0.75951 0.03300
H 	H 	0.31059 0.52408 0.90802 0.03700
H 	H 	0.30483 0.54690 0.93376 0.03600
H 	H 	0.36814 0.55895 0.84363 0.03500
H 	H 	0.36260 0.58131 0.86898 0.03500
Cr	Cr	0.28384 0.94423 0.65770 1.57400
Cr	Cr	0.35963 0.80348 0.53034 1.58000
C 	C 	0.46092 0.56944 0.54723 0.01200
C 	C 	0.39955 0.72696 0.51247 0.00300
C 	C 	0.41455 0.70539 0.50403 0.00400
C 	C 	0.40521 0.85054 0.42746 0.00200
C 	C 	0.38220 0.83063 0.47489 0.43400
C 	C 	0.40641 0.83104 0.45167 -0.10900
C 	C 	0.43068 0.81170 0.45304 0.00200
C 	C 	0.20837 0.95726 0.64843 -0.00100
C 	C 	0.25305 0.96258 0.62501 0.42000
C 	C 	0.22795 0.96494 0.62494 -0.10100
C 	C 	0.22390 0.97322 0.60143 -0.00100
C 	C 	0.26799 0.86389 0.70516 -0.00100
C 	C 	0.29961 0.88804 0.66831 0.42000
C 	C 	0.29240 0.86360 0.68530 -0.10200
C 	C 	0.26152 0.84085 0.72083 -0.00100
C 	C 	0.27199 0.79230 0.73261 0.42100
C 	C 	0.27927 0.81672 0.71726 -0.10300
C 	C 	0.31016 0.83943 0.68190 -0.00100
C 	C 	0.30374 0.81647 0.69757 -0.00100
C 	C 	0.32264 0.77212 0.62099 -0.00700
C 	C 	0.31363 0.76276 0.64841 0.01500
C 	C 	0.24194 0.89950 0.53632 0.00300
C 	C 	0.27304 0.85700 0.52830 0.43900
C 	C 	0.24672 0.87369 0.53987 -0.11300
C 	C 	0.21750 0.91423 0.54938 0.00300
C 	C 	0.33257 0.92138 0.66808 0.44100
C 	C 	0.19747 0.90339 0.56615 -0.11400
C 	C 	0.22638 0.86331 0.55592 0.00300
C 	C 	0.20213 0.87794 0.56881 0.00400
O 	O 	0.46103 0.61124 0.50214 -0.54100
O 	O 	0.36883 0.77265 0.52525 -0.53600
O 	O 	0.44352 0.66370 0.48477 -0.53600
O 	O 	0.38370 0.81320 0.49673 -0.52900
O 	O 	0.31969 0.84773 0.47176 -0.53400
O 	O 	0.25626 0.95352 0.64681 -0.52500
O 	O 	0.28098 0.97946 0.64670 -0.52300
O 	O 	0.28390 0.90937 0.67277 -0.52200
O 	O 	0.32149 0.88647 0.65000 -0.52300
O 	O 	0.24927 0.79336 0.74940 -0.52300
O 	O 	0.28867 0.77143 0.72771 -0.52600
O 	O 	0.33926 0.79140 0.56556 -0.52500
O 	O 	0.29346 0.74604 0.70249 -0.53200
O 	O 	0.29016 0.86762 0.51111 -0.53600
O 	O 	0.35332 0.83264 0.53657 -0.53600
O 	O 	0.30855 0.93508 0.67227 -0.53000
O 	O 	0.33907 0.90414 0.59943 -0.54700
H 	H 	0.47622 0.57747 0.53902 0.03500
H 	H 	0.40917 0.73515 0.51532 0.03600
H 	H 	0.43529 0.69749 0.50073 0.03600
H 	H 	0.38695 0.86577 0.42554 0.03700
H 	H 	0.43236 0.79634 0.47131 0.03600
H 	H 	0.21061 0.95064 0.66698 0.03700
H 	H 	0.23842 0.97918 0.58290 0.03700
H 	H 	0.25374 0.88199 0.70849 0.03600
H 	H 	0.24241 0.84203 0.73557 0.03600
H 	H 	0.32917 0.83819 0.66698 0.03700
H 	H 	0.31797 0.79849 0.69394 0.03700
H 	H 	0.34107 0.77561 0.61090 0.03800
H 	H 	0.32549 0.75951 0.65835 0.03300
H 	H 	0.25730 0.90802 0.52408 0.03700
H 	H 	0.21452 0.93376 0.54690 0.03600
H 	H 	0.22928 0.84363 0.55895 0.03500
H 	H 	0.18711 0.86898 0.58131 0.03500
Cr	Cr	0.28384 0.65770 0.11423 1.57400
Cr	Cr	0.35963 0.53034 0.30656 1.58000
C 	C 	0.46092 0.54723 0.42240 0.01200
C 	C 	0.39955 0.51247 0.36102 0.00300
C 	C 	0.41455 0.50403 0.37603 0.00300
C 	C 	0.40521 0.42746 0.31679 0.00200
C 	C 	0.38220 0.47489 0.31227 0.43400
C 	C 	0.40641 0.45167 0.31089 -0.10900
C 	C 	0.43068 0.45304 0.30458 0.00200
C 	C 	0.20837 0.64843 0.18594 -0.00100
C 	C 	0.25305 0.62501 0.15936 0.42000
C 	C 	0.22795 0.62494 0.18218 -0.10100
C 	C 	0.22390 0.60143 0.20145 -0.00100
C 	C 	0.26799 0.70516 0.16297 -0.00100
C 	C 	0.29961 0.66831 0.14404 0.42000
C 	C 	0.29240 0.68530 0.15870 -0.10100
C 	C 	0.26152 0.72083 0.17681 -0.00100
C 	C 	0.27199 0.73261 0.20310 0.42200
C 	C 	0.27927 0.71726 0.18675 -0.10300
C 	C 	0.31016 0.68190 0.16851 -0.00100
C 	C 	0.30374 0.69757 0.18222 -0.00000
C 	C 	0.32264 0.62099 0.28425 -0.00700
C 	C 	0.31363 0.64841 0.27520 0.01500
C 	C 	0.24194 0.53632 0.32224 0.00300
C 	C 	0.27304 0.52830 0.34166 0.44000
C 	C 	0.24672 0.53987 0.33972 -0.11300
C 	C 	0.21750 0.54938 0.31889 0.00300
C 	C 	0.33257 0.66808 0.07796 0.44200
C 	C 	0.19747 0.56615 0.33299 -0.11400
C 	C 	0.22638 0.55592 0.35438 0.00300
C 	C 	0.20213 0.56881 0.35111 0.00400
O 	O 	0.46103 0.50214 0.42559 -0.54100
O 	O 	0.36883 0.52525 0.33327 -0.53600
O 	O 	0.44352 0.48477 0.40801 -0.53600
O 	O 	0.38370 0.49673 0.30637 -0.52900
O 	O 	0.31969 0.47176 0.36082 -0.53400
O 	O 	0.25626 0.64681 0.14341 -0.52500
O 	O 	0.28098 0.64670 0.09285 -0.52300
O 	O 	0.28390 0.67277 0.13396 -0.52200
O 	O 	0.32149 0.65000 0.14205 -0.52200
O 	O 	0.24927 0.74940 0.20797 -0.52400
O 	O 	0.28867 0.72771 0.21218 -0.52600
O 	O 	0.33926 0.56556 0.30379 -0.52500
O 	O 	0.29346 0.70249 0.25801 -0.53200
O 	O 	0.29016 0.51111 0.33112 -0.53600
O 	O 	0.35332 0.53657 0.27746 -0.53600
O 	O 	0.30855 0.67227 0.08410 -0.53000
O 	O 	0.33907 0.59943 0.15737 -0.54700
H 	H 	0.47622 0.53902 0.40729 0.03500
H 	H 	0.40917 0.51532 0.34037 0.03600
H 	H 	0.43529 0.50073 0.36649 0.03600
H 	H 	0.38695 0.42554 0.32174 0.03700
H 	H 	0.43236 0.47131 0.29999 0.03600
H 	H 	0.21061 0.66698 0.17176 0.03700
H 	H 	0.23842 0.58290 0.19950 0.03600
H 	H 	0.25374 0.70849 0.15579 0.03600
H 	H 	0.24241 0.73557 0.17998 0.03600
H 	H 	0.32917 0.66698 0.16567 0.03700
H 	H 	0.31797 0.69394 0.18961 0.03700
H 	H 	0.34107 0.61090 0.27242 0.03800
H 	H 	0.32549 0.65835 0.25665 0.03300
H 	H 	0.25730 0.52408 0.31059 0.03700
H 	H 	0.21452 0.54690 0.30483 0.03600
H 	H 	0.22928 0.55895 0.36814 0.03500
H 	H 	0.18711 0.58131 0.36260 0.03500
Cr	Cr	0.11423 0.94423 0.28384 1.57400
Cr	Cr	0.30656 0.80348 0.35963 1.58000
C 	C 	0.42240 0.56944 0.46092 0.01200
C 	C 	0.36102 0.72696 0.39955 0.00300
C 	C 	0.37603 0.70539 0.41455 0.00400
C 	C 	0.31679 0.85054 0.40521 0.00200
C 	C 	0.31227 0.83063 0.38220 0.43400
C 	C 	0.31089 0.83104 0.40641 -0.10900
C 	C 	0.30458 0.81170 0.43068 0.00100
C 	C 	0.18594 0.95726 0.20837 -0.00100
C 	C 	0.15936 0.96258 0.25305 0.41900
C 	C 	0.18218 0.96494 0.22795 -0.10100
C 	C 	0.20145 0.97322 0.22390 -0.00100
C 	C 	0.16297 0.86389 0.26799 -0.00100
C 	C 	0.14404 0.88804 0.29961 0.42000
C 	C 	0.15870 0.86360 0.29240 -0.10200
C 	C 	0.17681 0.84085 0.26152 -0.00100
C 	C 	0.20310 0.79230 0.27199 0.42200
C 	C 	0.18675 0.81672 0.27927 -0.10300
C 	C 	0.16851 0.83943 0.31016 -0.00100
C 	C 	0.18222 0.81647 0.30374 -0.00100
C 	C 	0.28425 0.77212 0.32264 -0.00700
C 	C 	0.27520 0.76276 0.31363 0.01500
C 	C 	0.32224 0.89950 0.24194 0.00300
C 	C 	0.34166 0.85700 0.27304 0.43900
C 	C 	0.33972 0.87369 0.24672 -0.11300
C 	C 	0.31889 0.91423 0.21750 0.00300
C 	C 	0.07796 0.92138 0.33257 0.44200
C 	C 	0.33299 0.90339 0.19747 -0.11400
C 	C 	0.35438 0.86331 0.22638 0.00300
C 	C 	0.35111 0.87794 0.20213 0.00500
O 	O 	0.42559 0.61124 0.46103 -0.54100
O 	O 	0.33327 0.77265 0.36883 -0.53600
O 	O 	0.40801 0.66370 0.44352 -0.53600
O 	O 	0.30637 0.81320 0.38370 -0.53000
O 	O 	0.36082 0.84773 0.31969 -0.53400
O 	O 	0.14341 0.95352 0.25626 -0.52400
O 	O 	0.09285 0.97946 0.28098 -0.52300
O 	O 	0.13396 0.90937 0.28390 -0.52200
O 	O 	0.14205 0.88647 0.32149 -0.52200
O 	O 	0.20797 0.79336 0.24927 -0.52300
O 	O 	0.21218 0.77143 0.28867 -0.52700
O 	O 	0.30379 0.79140 0.33926 -0.52500
O 	O 	0.25801 0.74604 0.29346 -0.53200
O 	O 	0.33112 0.86762 0.29016 -0.53600
O 	O 	0.27746 0.83264 0.35332 -0.53600
O 	O 	0.08410 0.93508 0.30855 -0.53000
O 	O 	0.15737 0.90414 0.33907 -0.54700
H 	H 	0.40729 0.57747 0.47622 0.03500
H 	H 	0.34037 0.73515 0.40917 0.03600
H 	H 	0.36649 0.69749 0.43529 0.03600
H 	H 	0.32174 0.86577 0.38695 0.03700
H 	H 	0.29999 0.79634 0.43236 0.03600
H 	H 	0.17176 0.95064 0.21061 0.03700
H 	H 	0.19950 0.97918 0.23842 0.03700
H 	H 	0.15579 0.88199 0.25374 0.03600
H 	H 	0.17998 0.84203 0.24241 0.03600
H 	H 	0.16567 0.83819 0.32917 0.03700
H 	H 	0.18961 0.79849 0.31797 0.03700
H 	H 	0.27242 0.77561 0.34107 0.03800
H 	H 	0.25665 0.75951 0.32549 0.03300
H 	H 	0.31059 0.90802 0.25730 0.03700
H 	H 	0.30483 0.93376 0.21452 0.03600
H 	H 	0.36814 0.84363 0.22928 0.03500
H 	H 	0.36260 0.86898 0.18711 0.03500
Cr	Cr	0.94423 0.11423 0.65770 1.57400
Cr	Cr	0.80348 0.30656 0.53034 1.58000
C 	C 	0.56944 0.42240 0.54723 0.01200
C 	C 	0.72696 0.36102 0.51247 0.00300
C 	C 	0.70539 0.37603 0.50403 0.00400
C 	C 	0.85054 0.31679 0.42746 0.00200
C 	C 	0.83063 0.31227 0.47489 0.43400
C 	C 	0.83104 0.31089 0.45167 -0.10900
C 	C 	0.81170 0.30458 0.45304 0.00200
C 	C 	0.95726 0.18594 0.64843 -0.00100
C 	C 	0.96258 0.15936 0.62501 0.42000
C 	C 	0.96494 0.18218 0.62494 -0.10100
C 	C 	0.97322 0.20145 0.60143 -0.00100
C 	C 	0.86389 0.16297 0.70516 -0.00100
C 	C 	0.88804 0.14404 0.66831 0.42000
C 	C 	0.86360 0.15870 0.68530 -0.10200
C 	C 	0.84085 0.17681 0.72083 -0.00100
C 	C 	0.79230 0.20310 0.73261 0.42100
C 	C 	0.81672 0.18675 0.71726 -0.10200
C 	C 	0.83943 0.16851 0.68190 -0.00100
C 	C 	0.81647 0.18222 0.69757 -0.00100
C 	C 	0.77212 0.28425 0.62099 -0.00700
C 	C 	0.76276 0.27520 0.64841 0.01500
C 	C 	0.89950 0.32224 0.53632 0.00300
C 	C 	0.85700 0.34166 0.52830 0.43900
C 	C 	0.87369 0.33972 0.53987 -0.11300
C 	C 	0.91423 0.31889 0.54938 0.00300
C 	C 	0.92138 0.07796 0.66808 0.44100
C 	C 	0.90339 0.33299 0.56615 -0.11400
C 	C 	0.86331 0.35438 0.55592 0.00300
C 	C 	0.87794 0.35111 0.56881 0.00400
O 	O 	0.61124 0.42559 0.50214 -0.54100
O 	O 	0.77265 0.33327 0.52525 -0.53600
O 	O 	0.66370 0.40801 0.48477 -0.53500
O 	O 	0.81320 0.30637 0.49673 -0.52900
O 	O 	0.84773 0.36082 0.47176 -0.53400
O 	O 	0.95352 0.14341 0.64681 -0.52500
O 	O 	0.97946 0.09285 0.64670 -0.52300
O 	O 	0.90937 0.13396 0.67277 -0.52200
O 	O 	0.88647 0.14205 0.65000 -0.52300
O 	O 	0.79336 0.20797 0.74940 -0.52300
O 	O 	0.77143 0.21218 0.72771 -0.52600
O 	O 	0.79140 0.30379 0.56556 -0.52500
O 	O 	0.74604 0.25801 0.70249 -0.53200
O 	O 	0.86762 0.33112 0.51111 -0.53600
O 	O 	0.83264 0.27746 0.53657 -0.53600
O 	O 	0.93508 0.08410 0.67227 -0.53000
O 	O 	0.90414 0.15737 0.59943 -0.54700
H 	H 	0.57747 0.40729 0.53902 0.03500
H 	H 	0.73515 0.34037 0.51532 0.03600
H 	H 	0.69749 0.36649 0.50073 0.03600
H 	H 	0.86577 0.32174 0.42554 0.03700
H 	H 	0.79634 0.29999 0.47131 0.03600
H 	H 	0.95064 0.17176 0.66698 0.03700
H 	H 	0.97918 0.19950 0.58290 0.03700
H 	H 	0.88199 0.15579 0.70849 0.03600
H 	H 	0.84203 0.17998 0.73557 0.03600
H 	H 	0.83819 0.16567 0.66698 0.03700
H 	H 	0.79849 0.18961 0.69394 0.03700
H 	H 	0.77561 0.27242 0.61090 0.03800
H 	H 	0.75951 0.25665 0.65835 0.03300
H 	H 	0.90802 0.31059 0.52408 0.03700
H 	H 	0.93376 0.30483 0.54690 0.03600
H 	H 	0.84363 0.36814 0.55895 0.03500
H 	H 	0.86898 0.36260 0.58131 0.03500
Cr	Cr	0.65770 0.28384 0.94423 1.57400
Cr	Cr	0.53034 0.35963 0.80348 1.58000
C 	C 	0.54723 0.46092 0.56944 0.01200
C 	C 	0.51247 0.39955 0.72696 0.00300
C 	C 	0.50403 0.41455 0.70539 0.00400
C 	C 	0.42746 0.40521 0.85054 0.00200
C 	C 	0.47489 0.38220 0.83063 0.43400
C 	C 	0.45167 0.40641 0.83104 -0.10900
C 	C 	0.45304 0.43068 0.81170 0.00200
C 	C 	0.64843 0.20837 0.95726 -0.00100
C 	C 	0.62501 0.25305 0.96258 0.42000
C 	C 	0.62494 0.22795 0.96494 -0.10100
C 	C 	0.60143 0.22390 0.97322 -0.00100
C 	C 	0.70516 0.26799 0.86389 -0.00100
C 	C 	0.66831 0.29961 0.88804 0.42000
C 	C 	0.68530 0.29240 0.86360 -0.10200
C 	C 	0.72083 0.26152 0.84085 -0.00100
C 	C 	0.73261 0.27199 0.79230 0.42100
C 	C 	0.71726 0.27927 0.81672 -0.10300
C 	C 	0.68190 0.31016 0.83943 -0.00100
C 	C 	0.69757 0.30374 0.81647 -0.00100
C 	C 	0.62099 0.32264 0.77212 -0.00700
C 	C 	0.64841 0.31363 0.76276 0.01500
C 	C 	0.53632 0.24194 0.89950 0.00300
C 	C 	0.52830 0.27304 0.85700 0.43900
C 	C 	0.53987 0.24672 0.87369 -0.11300
C 	C 	0.54938 0.21750 0.91423 0.00300
C 	C 	0.66808 0.33257 0.92138 0.44100
C 	C 	0.56615 0.19747 0.90339 -0.11400
C 	C 	0.55592 0.22638 0.86331 0.00300
C 	C 	0.56881 0.20213 0.87794 0.00400
O 	O 	0.50214 0.46103 0.61124 -0.54100
O 	O 	0.52525 0.36883 0.77265 -0.53600
O 	O 	0.48477 0.44352 0.66370 -0.53600
O 	O 	0.49673 0.38370 0.81320 -0.52900
O 	O 	0.47176 0.31969 0.84773 -0.53400
O 	O 	0.64681 0.25626 0.95352 -0.52500
O 	O 	0.64670 0.28098 0.97946 -0.52300
O 	O 	0.67277 0.28390 0.90937 -0.52200
O 	O 	0.65000 0.32149 0.88647 -0.52300
O 	O 	0.74940 0.24927 0.79336 -0.52300
O 	O 	0.72771 0.28867 0.77143 -0.52600
O 	O 	0.56556 0.33926 0.79140 -0.52500
O 	O 	0.70249 0.29346 0.74604 -0.53200
O 	O 	0.51111 0.29016 0.86762 -0.53600
O 	O 	0.53657 0.35332 0.83264 -0.53600
O 	O 	0.67227 0.30855 0.93508 -0.53000
O 	O 	0.59943 0.33907 0.90414 -0.54700
H 	H 	0.53902 0.47622 0.57747 0.03500
H 	H 	0.51532 0.40917 0.73515 0.03600
H 	H 	0.50073 0.43529 0.69749 0.03600
H 	H 	0.42554 0.38695 0.86577 0.03700
H 	H 	0.47131 0.43236 0.79634 0.03600
H 	H 	0.66698 0.21061 0.95064 0.03700
H 	H 	0.58290 0.23842 0.97918 0.03700
H 	H 	0.70849 0.25374 0.88199 0.03600
H 	H 	0.73557 0.24241 0.84203 0.03600
H 	H 	0.66698 0.32917 0.83819 0.03700
H 	H 	0.69394 0.31797 0.79849 0.03700
H 	H 	0.61090 0.34107 0.77561 0.03800
H 	H 	0.65835 0.32549 0.75951 0.03300
H 	H 	0.52408 0.25730 0.90802 0.03700
H 	H 	0.54690 0.21452 0.93376 0.03600
H 	H 	0.55895 0.22928 0.84363 0.03500
H 	H 	0.58131 0.18711 0.86898 0.03500
Cr	Cr	0.13577 0.96616 0.30577 1.57400
Cr	Cr	0.94344 0.89037 0.44652 1.58000
C 	C 	0.82760 0.78908 0.68056 0.01200
C 	C 	0.88898 0.85045 0.52304 0.00300
C 	C 	0.87397 0.83545 0.54461 0.00400
C 	C 	0.93321 0.84479 0.39946 0.00200
C 	C 	0.93773 0.86780 0.41937 0.43400
C 	C 	0.93911 0.84359 0.41896 -0.10900
C 	C 	0.94542 0.81932 0.43830 0.00100
C 	C 	0.06406 0.04163 0.29274 -0.00100
C 	C 	0.09064 0.99695 0.28742 0.41900
C 	C 	0.06782 0.02205 0.28506 -0.10200
C 	C 	0.04855 0.02610 0.27678 -0.00100
C 	C 	0.08703 0.98201 0.38611 -0.00200
C 	C 	0.10596 0.95039 0.36196 0.42000
C 	C 	0.09130 0.95760 0.38640 -0.10100
C 	C 	0.07319 0.98848 0.40915 -0.00000
C 	C 	0.04690 0.97801 0.45770 0.42200
C 	C 	0.06325 0.97073 0.43328 -0.10300
C 	C 	0.08149 0.93984 0.41057 -0.00100
C 	C 	0.06778 0.94626 0.43353 -0.00000
C 	C 	0.96575 0.92736 0.47788 -0.00700
C 	C 	0.97480 0.93637 0.48724 0.01500
C 	C 	0.92776 0.00806 0.35050 0.00300
C 	C 	0.90834 0.97696 0.39300 0.43900
C 	C 	0.91028 0.00328 0.37631 -0.11300
C 	C 	0.93111 0.03250 0.33577 0.00300
C 	C 	0.17204 0.91743 0.32862 0.44200
C 	C 	0.91701 0.05253 0.34661 -0.11400
C 	C 	0.89562 0.02362 0.38669 0.00300
C 	C 	0.89889 0.04787 0.37206 0.00400
O 	O 	0.82441 0.78897 0.63876 -0.54100
O 	O 	0.91673 0.88117 0.47735 -0.53600
O 	O 	0.84199 0.80648 0.58630 -0.53600
O 	O 	0.94363 0.86630 0.43680 -0.53000
O 	O 	0.88918 0.93031 0.40227 -0.53400
O 	O 	0.10659 0.99374 0.29648 -0.52400
O 	O 	0.15715 0.96902 0.27054 -0.52200
O 	O 	0.11604 0.96610 0.34063 -0.52200
O 	O 	0.10795 0.92851 0.36353 -0.52200
O 	O 	0.04203 0.00073 0.45664 -0.52400
O 	O 	0.03782 0.96133 0.47857 -0.52700
O 	O 	0.94621 0.91074 0.45860 -0.52500
O 	O 	0.99199 0.95654 0.50396 -0.53200
O 	O 	0.91888 0.95984 0.38238 -0.53600
O 	O 	0.97254 0.89668 0.41736 -0.53600
O 	O 	0.16590 0.94145 0.31492 -0.53000
O 	O 	0.09263 0.91093 0.34586 -0.54700
H 	H 	0.84271 0.77378 0.67253 0.03500
H 	H 	0.90963 0.84083 0.51485 0.03600
H 	H 	0.88351 0.81471 0.55251 0.03600
H 	H 	0.92826 0.86305 0.38423 0.03700
H 	H 	0.95001 0.81764 0.45366 0.03600
H 	H 	0.07824 0.03939 0.29936 0.03700
H 	H 	0.05050 0.01158 0.27082 0.03600
H 	H 	0.09421 0.99626 0.36801 0.03600
H 	H 	0.07002 0.00759 0.40797 0.03600
H 	H 	0.08433 0.92083 0.41181 0.03700
H 	H 	0.06039 0.93203 0.45151 0.03700
H 	H 	0.97758 0.90893 0.47439 0.03800
H 	H 	0.99335 0.92451 0.49049 0.03300
H 	H 	0.93941 0.99270 0.34198 0.03700
H 	H 	0.94517 0.03548 0.31624 0.03600
H 	H 	0.88186 0.02072 0.40637 0.03500
H 	H 	0.88740 0.06289 0.38102 0.03500
Cr	Cr	0.96616 0.13577 0.59230 1.57400
Cr	Cr	0.89037 0.94344 0.71966 1.58000
C 	C 	0.78908 0.82760 0.70277 0.01200
C 	C 	0.85045 0.88898 0.73753 0.00300
C 	C 	0.83545 0.87397 0.74597 0.00300
C 	C 	0.84479 0.93321 0.82254 0.00200
C 	C 	0.86780 0.93773 0.77511 0.43400
C 	C 	0.84359 0.93911 0.79833 -0.10900
C 	C 	0.81932 0.94542 0.79696 0.00200
C 	C 	0.04163 0.06406 0.60157 -0.00100
C 	C 	0.99695 0.09064 0.62499 0.42000
C 	C 	0.02205 0.06782 0.62506 -0.10200
C 	C 	0.02610 0.04855 0.64857 -0.00100
C 	C 	0.98201 0.08703 0.54484 -0.00200
C 	C 	0.95039 0.10596 0.58169 0.42000
C 	C 	0.95760 0.09130 0.56470 -0.10100
C 	C 	0.98848 0.07319 0.52917 -0.00000
C 	C 	0.97801 0.04690 0.51739 0.42200
C 	C 	0.97073 0.06325 0.53274 -0.10300
C 	C 	0.93984 0.08149 0.56810 -0.00100
C 	C 	0.94626 0.06778 0.55243 -0.00000
C 	C 	0.92736 0.96575 0.62901 -0.00700
C 	C 	0.93637 0.97480 0.60159 0.01500
C 	C 	0.00806 0.92776 0.71368 0.00300
C 	C 	0.97696 0.90834 0.72170 0.44000
C 	C 	0.00328 0.91028 0.71013 -0.11400
C 	C 	0.03250 0.93111 0.70062 0.00300
C 	C 	0.91743 0.17204 0.58192 0.44200
C 	C 	0.05253 0.91701 0.68385 -0.11400
C 	C 	0.02362 0.89562 0.69408 0.00300
C 	C 	0.04787 0.89889 0.68119 0.00400
O 	O 	0.78897 0.82441 0.74786 -0.54100
O 	O 	0.88117 0.91673 0.72475 -0.53600
O 	O 	0.80648 0.84199 0.76523 -0.53600
O 	O 	0.86630 0.94363 0.75327 -0.52900
O 	O 	0.93031 0.88918 0.77824 -0.53400
O 	O 	0.99374 0.10659 0.60319 -0.52500
O 	O 	0.96902 0.15715 0.60330 -0.52300
O 	O 	0.96610 0.11604 0.57723 -0.52200
O 	O 	0.92851 0.10795 0.60000 -0.52200
O 	O 	0.00073 0.04203 0.50060 -0.52400
O 	O 	0.96133 0.03782 0.52229 -0.52700
O 	O 	0.91074 0.94621 0.68444 -0.52500
O 	O 	0.95654 0.99199 0.54751 -0.53200
O 	O 	0.95984 0.91888 0.73889 -0.53600
O 	O 	0.89668 0.97254 0.71343 -0.53600
O 	O 	0.94145 0.16590 0.57773 -0.53000
O 	O 	0.91093 0.09263 0.65057 -0.54700
H 	H 	0.77378 0.84271 0.71098 0.03500
H 	H 	0.84083 0.90963 0.73468 0.03600
H 	H 	0.81471 0.88351 0.74927 0.03600
H 	H 	0.86305 0.92826 0.82446 0.03700
H 	H 	0.81764 0.95001 0.77869 0.03600
H 	H 	0.03939 0.07824 0.58302 0.03700
H 	H 	0.01158 0.05050 0.66710 0.03600
H 	H 	0.99626 0.09421 0.54151 0.03600
H 	H 	0.00759 0.07002 0.51443 0.03600
H 	H 	0.92083 0.08433 0.58302 0.03700
H 	H 	0.93203 0.06039 0.55606 0.03700
H 	H 	0.90893 0.97758 0.63910 0.03800
H 	H 	0.92451 0.99335 0.59165 0.03300
H 	H 	0.99270 0.93941 0.72592 0.03700
H 	H 	0.03548 0.94517 0.70310 0.03600
H 	H 	0.02072 0.88186 0.69105 0.03500
H 	H 	0.06289 0.88740 0.66869 0.03500
Cr	Cr	0.59230 0.30577 0.96616 1.57400
Cr	Cr	0.71966 0.44652 0.89037 1.58000
C 	C 	0.70277 0.68056 0.78908 0.01200
C 	C 	0.73753 0.52304 0.85045 0.00300
C 	C 	0.74597 0.54461 0.83545 0.00400
C 	C 	0.82254 0.39946 0.84479 0.00200
C 	C 	0.77511 0.41937 0.86780 0.43400
C 	C 	0.79833 0.41896 0.84359 -0.10900
C 	C 	0.79696 0.43830 0.81932 0.00200
C 	C 	0.60157 0.29274 0.04163 -0.00100
C 	C 	0.62499 0.28742 0.99695 0.42000
C 	C 	0.62506 0.28506 0.02205 -0.10200
C 	C 	0.64857 0.27678 0.02610 -0.00100
C 	C 	0.54484 0.38611 0.98201 -0.00100
C 	C 	0.58169 0.36196 0.95039 0.42000
C 	C 	0.56470 0.38640 0.95760 -0.10200
C 	C 	0.52917 0.40915 0.98848 -0.00000
C 	C 	0.51739 0.45770 0.97801 0.42200
C 	C 	0.53274 0.43328 0.97073 -0.10300
C 	C 	0.56810 0.41057 0.93984 -0.00100
C 	C 	0.55243 0.43353 0.94626 -0.00000
C 	C 	0.62901 0.47788 0.92736 -0.00700
C 	C 	0.60159 0.48724 0.93637 0.01500
C 	C 	0.71368 0.35050 0.00806 0.00300
C 	C 	0.72170 0.39300 0.97696 0.43900
C 	C 	0.71013 0.37631 0.00328 -0.11300
C 	C 	0.70062 0.33577 0.03250 0.00300
C 	C 	0.58192 0.32862 0.91743 0.44100
C 	C 	0.68385 0.34661 0.05253 -0.11400
C 	C 	0.69408 0.38669 0.02362 0.00300
C 	C 	0.68119 0.37206 0.04787 0.00400
O 	O 	0.74786 0.63876 0.78897 -0.54100
O 	O 	0.72475 0.47735 0.88117 -0.53600
O 	O 	0.76523 0.58630 0.80648 -0.53600
O 	O 	0.75327 0.43680 0.86630 -0.52900
O 	O 	0.77824 0.40227 0.93031 -0.53400
O 	O 	0.60319 0.29648 0.99374 -0.52500
O 	O 	0.60330 0.27054 0.96902 -0.52300
O 	O 	0.57723 0.34063 0.96610 -0.52200
O 	O 	0.60000 0.36353 0.92851 -0.52200
O 	O 	0.50060 0.45664 0.00073 -0.52400
O 	O 	0.52229 0.47857 0.96133 -0.52700
O 	O 	0.68444 0.45860 0.91074 -0.52500
O 	O 	0.54751 0.50396 0.95654 -0.53200
O 	O 	0.73889 0.38238 0.95984 -0.53600
O 	O 	0.71343 0.41736 0.89668 -0.53600
O 	O 	0.57773 0.31492 0.94145 -0.53000
O 	O 	0.65057 0.34586 0.91093 -0.54700
H 	H 	0.71098 0.67253 0.77378 0.03500
H 	H 	0.73468 0.51485 0.84083 0.03600
H 	H 	0.74927 0.55251 0.81471 0.03600
H 	H 	0.82446 0.38423 0.86305 0.03700
H 	H 	0.77869 0.45366 0.81764 0.03600
H 	H 	0.58302 0.29936 0.03939 0.03700
H 	H 	0.66710 0.27082 0.01158 0.03600
H 	H 	0.54151 0.36801 0.99626 0.03600
H 	H 	0.51443 0.40797 0.00759 0.03600
H 	H 	0.58302 0.41181 0.92083 0.03700
H 	H 	0.55606 0.45151 0.93203 0.03700
H 	H 	0.63910 0.47439 0.90893 0.03800
H 	H 	0.59165 0.49049 0.92451 0.03300
H 	H 	0.72592 0.34198 0.99270 0.03700
H 	H 	0.70310 0.31624 0.03548 0.03600
H 	H 	0.69105 0.40637 0.02072 0.03500
H 	H 	0.66869 0.38102 0.06289 0.03500
Cr	Cr	0.30577 0.59230 0.13577 1.57400
Cr	Cr	0.44652 0.71966 0.94344 1.58000
C 	C 	0.68056 0.70277 0.82760 0.01200
C 	C 	0.52304 0.73753 0.88898 0.00300
C 	C 	0.54461 0.74597 0.87397 0.00400
C 	C 	0.39946 0.82254 0.93321 0.00200
C 	C 	0.41937 0.77511 0.93773 0.43400
C 	C 	0.41896 0.79833 0.93911 -0.10900
C 	C 	0.43830 0.79696 0.94542 0.00200
C 	C 	0.29274 0.60157 0.06406 -0.00100
C 	C 	0.28742 0.62499 0.09064 0.42000
C 	C 	0.28506 0.62506 0.06782 -0.10100
C 	C 	0.27678 0.64857 0.04855 -0.00100
C 	C 	0.38611 0.54484 0.08703 -0.00100
C 	C 	0.36196 0.58169 0.10596 0.42000
C 	C 	0.38640 0.56470 0.09130 -0.10200
C 	C 	0.40915 0.52917 0.07319 -0.00100
C 	C 	0.45770 0.51739 0.04690 0.42100
C 	C 	0.43328 0.53274 0.06325 -0.10200
C 	C 	0.41057 0.56810 0.08149 -0.00100
C 	C 	0.43353 0.55243 0.06778 -0.00100
C 	C 	0.47788 0.62901 0.96575 -0.00700
C 	C 	0.48724 0.60159 0.97480 0.01500
C 	C 	0.35050 0.71368 0.92776 0.00300
C 	C 	0.39300 0.72170 0.90834 0.43900
C 	C 	0.37631 0.71013 0.91028 -0.11300
C 	C 	0.33577 0.70062 0.93111 0.00300
C 	C 	0.32862 0.58192 0.17204 0.44100
C 	C 	0.34661 0.68385 0.91701 -0.11400
C 	C 	0.38669 0.69408 0.89562 0.00300
C 	C 	0.37206 0.68119 0.89889 0.00400
O 	O 	0.63876 0.74786 0.82441 -0.54100
O 	O 	0.47735 0.72475 0.91673 -0.53600
O 	O 	0.58630 0.76523 0.84199 -0.53500
O 	O 	0.43680 0.75327 0.94363 -0.52900
O 	O 	0.40227 0.77824 0.88918 -0.53400
O 	O 	0.29648 0.60319 0.10659 -0.52500
O 	O 	0.27054 0.60330 0.15715 -0.52300
O 	O 	0.34063 0.57723 0.11604 -0.52200
O 	O 	0.36353 0.60000 0.10795 -0.52300
O 	O 	0.45664 0.50060 0.04203 -0.52300
O 	O 	0.47857 0.52229 0.03782 -0.52600
O 	O 	0.45860 0.68444 0.94621 -0.52500
O 	O 	0.50396 0.54751 0.99199 -0.53200
O 	O 	0.38238 0.73889 0.91888 -0.53600
O 	O 	0.41736 0.71343 0.97254 -0.53600
O 	O 	0.31492 0.57773 0.16590 -0.53000
O 	O 	0.34586 0.65057 0.09263 -0.54700
H 	H 	0.67253 0.71098 0.84271 0.03500
H 	H 	0.51485 0.73468 0.90963 0.03600
H 	H 	0.55251 0.74927 0.88351 0.03600
H 	H 	0.38423 0.82446 0.92826 0.03700
H 	H 	0.45366 0.77869 0.95001 0.03600
H 	H 	0.29936 0.58302 0.07824 0.03700
H 	H 	0.27082 0.66710 0.05050 0.03700
H 	H 	0.36801 0.54151 0.09421 0.03600
H 	H 	0.40797 0.51443 0.07002 0.03600
H 	H 	0.41181 0.58302 0.08433 0.03700
H 	H 	0.45151 0.55606 0.06039 0.03700
H 	H 	0.47439 0.63910 0.97758 0.03800
H 	H 	0.49049 0.59165 0.99335 0.03300
H 	H 	0.34198 0.72592 0.93941 0.03700
H 	H 	0.31624 0.70310 0.94517 0.03600
H 	H 	0.40637 0.69105 0.88186 0.03500
H 	H 	0.38102 0.66869 0.88740 0.03500
Cr	Cr	0.59230 0.13577 0.30577 1.57400
Cr	Cr	0.71966 0.94344 0.44652 1.58000
C 	C 	0.70277 0.82760 0.68056 0.01200
C 	C 	0.73753 0.88898 0.52304 0.00300
C 	C 	0.74597 0.87397 0.54461 0.00400
C 	C 	0.82254 0.93321 0.39946 0.00200
C 	C 	0.77511 0.93773 0.41937 0.43400
C 	C 	0.79833 0.93911 0.41896 -0.10900
C 	C 	0.79696 0.94542 0.43830 0.00200
C 	C 	0.60157 0.06406 0.29274 -0.00100
C 	C 	0.62499 0.09064 0.28742 0.42000
C 	C 	0.62506 0.06782 0.28506 -0.10100
C 	C 	0.64857 0.04855 0.27678 -0.00100
C 	C 	0.54484 0.08703 0.38611 -0.00100
C 	C 	0.58169 0.10596 0.36196 0.42000
C 	C 	0.56470 0.09130 0.38640 -0.10200
C 	C 	0.52917 0.07319 0.40915 -0.00100
C 	C 	0.51739 0.04690 0.45770 0.42100
C 	C 	0.53274 0.06325 0.43328 -0.10200
C 	C 	0.56810 0.08149 0.41057 -0.00100
C 	C 	0.55243 0.06778 0.43353 -0.00100
C 	C 	0.62901 0.96575 0.47788 -0.00700
C 	C 	0.60159 0.97480 0.48724 0.01500
C 	C 	0.71368 0.92776 0.35050 0.00300
C 	C 	0.72170 0.90834 0.39300 0.43900
C 	C 	0.71013 0.91028 0.37631 -0.11300
C 	C 	0.70062 0.93111 0.33577 0.00300
C 	C 	0.58192 0.17204 0.32862 0.44100
C 	C 	0.68385 0.91701 0.34661 -0.11400
C 	C 	0.69408 0.89562 0.38669 0.00300
C 	C 	0.68119 0.89889 0.37206 0.00400
O 	O 	0.74786 0.82441 0.63876 -0.54100
O 	O 	0.72475 0.91673 0.47735 -0.53600
O 	O 	0.76523 0.84199 0.58630 -0.53500
O 	O 	0.75327 0.94363 0.43680 -0.52900
O 	O 	0.77824 0.88918 0.40227 -0.53400
O 	O 	0.60319 0.10659 0.29648 -0.52500
O 	O 	0.60330 0.15715 0.27054 -0.52300
O 	O 	0.57723 0.11604 0.34063 -0.52200
O 	O 	0.60000 0.10795 0.36353 -0.52300
O 	O 	0.50060 0.04203 0.45664 -0.52300
O 	O 	0.52229 0.03782 0.47857 -0.52600
O 	O 	0.68444 0.94621 0.45860 -0.52500
O 	O 	0.54751 0.99199 0.50396 -0.53200
O 	O 	0.73889 0.91888 0.38238 -0.53600
O 	O 	0.71343 0.97254 0.41736 -0.53600
O 	O 	0.57773 0.16590 0.31492 -0.53000
O 	O 	0.65057 0.09263 0.34586 -0.54700
H 	H 	0.71098 0.84271 0.67253 0.03500
H 	H 	0.73468 0.90963 0.51485 0.03600
H 	H 	0.74927 0.88351 0.55251 0.03600
H 	H 	0.82446 0.92826 0.38423 0.03700
H 	H 	0.77869 0.95001 0.45366 0.03600
H 	H 	0.58302 0.07824 0.29936 0.03700
H 	H 	0.66710 0.05050 0.27082 0.03700
H 	H 	0.54151 0.09421 0.36801 0.03600
H 	H 	0.51443 0.07002 0.40797 0.03600
H 	H 	0.58302 0.08433 0.41181 0.03700
H 	H 	0.55606 0.06039 0.45151 0.03700
H 	H 	0.63910 0.97758 0.47439 0.03800
H 	H 	0.59165 0.99335 0.49049 0.03300
H 	H 	0.72592 0.93941 0.34198 0.03700
H 	H 	0.70310 0.94517 0.31624 0.03600
H 	H 	0.69105 0.88186 0.40637 0.03500
H 	H 	0.66869 0.88740 0.38102 0.03500
Cr	Cr	0.30577 0.96616 0.59230 1.57400
Cr	Cr	0.44652 0.89037 0.71966 1.58000
C 	C 	0.68056 0.78908 0.70277 0.01200
C 	C 	0.52304 0.85045 0.73753 0.00300
C 	C 	0.54461 0.83545 0.74597 0.00400
C 	C 	0.39946 0.84479 0.82254 0.00200
C 	C 	0.41937 0.86780 0.77511 0.43400
C 	C 	0.41896 0.84359 0.79833 -0.10900
C 	C 	0.43830 0.81932 0.79696 0.00200
C 	C 	0.29274 0.04163 0.60157 -0.00100
C 	C 	0.28742 0.99695 0.62499 0.42000
C 	C 	0.28506 0.02205 0.62506 -0.10200
C 	C 	0.27678 0.02610 0.64857 -0.00100
C 	C 	0.38611 0.98201 0.54484 -0.00100
C 	C 	0.36196 0.95039 0.58169 0.42000
C 	C 	0.38640 0.95760 0.56470 -0.10200
C 	C 	0.40915 0.98848 0.52917 -0.00000
C 	C 	0.45770 0.97801 0.51739 0.42200
C 	C 	0.43328 0.97073 0.53274 -0.10300
C 	C 	0.41057 0.93984 0.56810 -0.00100
C 	C 	0.43353 0.94626 0.55243 -0.00000
C 	C 	0.47788 0.92736 0.62901 -0.00700
C 	C 	0.48724 0.93637 0.60159 0.01500
C 	C 	0.35050 0.00806 0.71368 0.00300
C 	C 	0.39300 0.97696 0.72170 0.43900
C 	C 	0.37631 0.00328 0.71013 -0.11300
C 	C 	0.33577 0.03250 0.70062 0.00300
C 	C 	0.32862 0.91743 0.58192 0.44100
C 	C 	0.34661 0.05253 0.68385 -0.11400
C 	C 	0.38669 0.02362 0.69408 0.00300
C 	C 	0.37206 0.04787 0.68119 0.00400
O 	O 	0.63876 0.78897 0.74786 -0.54100
O 	O 	0.47735 0.88117 0.72475 -0.53600
O 	O 	0.58630 0.80648 0.76523 -0.53600
O 	O 	0.43680 0.86630 0.75327 -0.52900
O 	O 	0.40227 0.93031 0.77824 -0.53400
O 	O 	0.29648 0.99374 0.60319 -0.52500
O 	O 	0.27054 0.96902 0.60330 -0.52300
O 	O 	0.34063 0.96610 0.57723 -0.52200
O 	O 	0.36353 0.92851 0.60000 -0.52200
O 	O 	0.45664 0.00073 0.50060 -0.52400
O 	O 	0.47857 0.96133 0.52229 -0.52700
O 	O 	0.45860 0.91074 0.68444 -0.52500
O 	O 	0.50396 0.95654 0.54751 -0.53200
O 	O 	0.38238 0.95984 0.73889 -0.53600
O 	O 	0.41736 0.89668 0.71343 -0.53600
O 	O 	0.31492 0.94145 0.57773 -0.53000
O 	O 	0.34586 0.91093 0.65057 -0.54700
H 	H 	0.67253 0.77378 0.71098 0.03500
H 	H 	0.51485 0.84083 0.73468 0.03600
H 	H 	0.55251 0.81471 0.74927 0.03600
H 	H 	0.38423 0.86305 0.82446 0.03700
H 	H 	0.45366 0.81764 0.77869 0.03600
H 	H 	0.29936 0.03939 0.58302 0.03700
H 	H 	0.27082 0.01158 0.66710 0.03600
H 	H 	0.36801 0.99626 0.54151 0.03600
H 	H 	0.40797 0.00759 0.51443 0.03600
H 	H 	0.41181 0.92083 0.58302 0.03700
H 	H 	0.45151 0.93203 0.55606 0.03700
H 	H 	0.47439 0.90893 0.63910 0.03800
H 	H 	0.49049 0.92451 0.59165 0.03300
H 	H 	0.34198 0.99270 0.72592 0.03700
H 	H 	0.31624 0.03548 0.70310 0.03600
H 	H 	0.40637 0.02072 0.69105 0.03500
H 	H 	0.38102 0.06289 0.66869 0.03500
Cr	Cr	0.13577 0.59230 0.96616 1.57400
Cr	Cr	0.94344 0.71966 0.89037 1.58000
C 	C 	0.82760 0.70277 0.78908 0.01200
C 	C 	0.88898 0.73753 0.85045 0.00300
C 	C 	0.87397 0.74597 0.83545 0.00300
C 	C 	0.93321 0.82254 0.84479 0.00200
C 	C 	0.93773 0.77511 0.86780 0.43400
C 	C 	0.93911 0.79833 0.84359 -0.10900
C 	C 	0.94542 0.79696 0.81932 0.00200
C 	C 	0.06406 0.60157 0.04163 -0.00100
C 	C 	0.09064 0.62499 0.99695 0.42000
C 	C 	0.06782 0.62506 0.02205 -0.10200
C 	C 	0.04855 0.64857 0.02610 -0.00100
C 	C 	0.08703 0.54484 0.98201 -0.00200
C 	C 	0.10596 0.58169 0.95039 0.42000
C 	C 	0.09130 0.56470 0.95760 -0.10100
C 	C 	0.07319 0.52917 0.98848 -0.00000
C 	C 	0.04690 0.51739 0.97801 0.42200
C 	C 	0.06325 0.53274 0.97073 -0.10300
C 	C 	0.08149 0.56810 0.93984 -0.00100
C 	C 	0.06778 0.55243 0.94626 -0.00000
C 	C 	0.96575 0.62901 0.92736 -0.00700
C 	C 	0.97480 0.60159 0.93637 0.01500
C 	C 	0.92776 0.71368 0.00806 0.00300
C 	C 	0.90834 0.72170 0.97696 0.44000
C 	C 	0.91028 0.71013 0.00328 -0.11400
C 	C 	0.93111 0.70062 0.03250 0.00300
C 	C 	0.17204 0.58192 0.91743 0.44200
C 	C 	0.91701 0.68385 0.05253 -0.11400
C 	C 	0.89562 0.69408 0.02362 0.00300
C 	C 	0.89889 0.68119 0.04787 0.00400
O 	O 	0.82441 0.74786 0.78897 -0.54100
O 	O 	0.91673 0.72475 0.88117 -0.53600
O 	O 	0.84199 0.76523 0.80648 -0.53600
O 	O 	0.94363 0.75327 0.86630 -0.52900
O 	O 	0.88918 0.77824 0.93031 -0.53400
O 	O 	0.10659 0.60319 0.99374 -0.52500
O 	O 	0.15715 0.60330 0.96902 -0.52300
O 	O 	0.11604 0.57723 0.96610 -0.52200
O 	O 	0.10795 0.60000 0.92851 -0.52200
O 	O 	0.04203 0.50060 0.00073 -0.52400
O 	O 	0.03782 0.52229 0.96133 -0.52700
O 	O 	0.94621 0.68444 0.91074 -0.52500
O 	O 	0.99199 0.54751 0.95654 -0.53200
O 	O 	0.91888 0.73889 0.95984 -0.53600
O 	O 	0.97254 0.71343 0.89668 -0.53600
O 	O 	0.16590 0.57773 0.94145 -0.53000
O 	O 	0.09263 0.65057 0.91093 -0.54700
H 	H 	0.84271 0.71098 0.77378 0.03500
H 	H 	0.90963 0.73468 0.84083 0.03600
H 	H 	0.88351 0.74927 0.81471 0.03600
H 	H 	0.92826 0.82446 0.86305 0.03700
H 	H 	0.95001 0.77869 0.81764 0.03600
H 	H 	0.07824 0.58302 0.03939 0.03700
H 	H 	0.05050 0.66710 0.01158 0.03600
H 	H 	0.09421 0.54151 0.99626 0.03600
H 	H 	0.07002 0.51443 0.00759 0.03600
H 	H 	0.08433 0.58302 0.92083 0.03700
H 	H 	0.06039 0.55606 0.93203 0.03700
H 	H 	0.97758 0.63910 0.90893 0.03800
H 	H 	0.99335 0.59165 0.92451 0.03300
H 	H 	0.93941 0.72592 0.99270 0.03700
H 	H 	0.94517 0.70310 0.03548 0.03600
H 	H 	0.88186 0.69105 0.02072 0.03500
H 	H 	0.88740 0.66869 0.06289 0.03500
Cr	Cr	0.96616 0.30577 0.13577 1.57400
Cr	Cr	0.89037 0.44652 0.94344 1.58000
C 	C 	0.78908 0.68056 0.82760 0.01200
C 	C 	0.85045 0.52304 0.88898 0.00300
C 	C 	0.83545 0.54461 0.87397 0.00400
C 	C 	0.84479 0.39946 0.93321 0.00200
C 	C 	0.86780 0.41937 0.93773 0.43400
C 	C 	0.84359 0.41896 0.93911 -0.10900
C 	C 	0.81932 0.43830 0.94542 0.00100
C 	C 	0.04163 0.29274 0.06406 -0.00100
C 	C 	0.99695 0.28742 0.09064 0.41900
C 	C 	0.02205 0.28506 0.06782 -0.10200
C 	C 	0.02610 0.27678 0.04855 -0.00100
C 	C 	0.98201 0.38611 0.08703 -0.00200
C 	C 	0.95039 0.36196 0.10596 0.42000
C 	C 	0.95760 0.38640 0.09130 -0.10100
C 	C 	0.98848 0.40915 0.07319 -0.00000
C 	C 	0.97801 0.45770 0.04690 0.42200
C 	C 	0.97073 0.43328 0.06325 -0.10300
C 	C 	0.93984 0.41057 0.08149 -0.00100
C 	C 	0.94626 0.43353 0.06778 -0.00000
C 	C 	0.92736 0.47788 0.96575 -0.00700
C 	C 	0.93637 0.48724 0.97480 0.01500
C 	C 	0.00806 0.35050 0.92776 0.00300
C 	C 	0.97696 0.39300 0.90834 0.43900
C 	C 	0.00328 0.37631 0.91028 -0.11300
C 	C 	0.03250 0.33577 0.93111 0.00300
C 	C 	0.91743 0.32862 0.17204 0.44200
C 	C 	0.05253 0.34661 0.91701 -0.11400
C 	C 	0.02362 0.38669 0.89562 0.00300
C 	C 	0.04787 0.37206 0.89889 0.00400
O 	O 	0.78897 0.63876 0.82441 -0.54100
O 	O 	0.88117 0.47735 0.91673 -0.53600
O 	O 	0.80648 0.58630 0.84199 -0.53600
O 	O 	0.86630 0.43680 0.94363 -0.53000
O 	O 	0.93031 0.40227 0.88918 -0.53400
O 	O 	0.99374 0.29648 0.10659 -0.52400
O 	O 	0.96902 0.27054 0.15715 -0.52200
O 	O 	0.96610 0.34063 0.11604 -0.52200
O 	O 	0.92851 0.36353 0.10795 -0.52200
O 	O 	0.00073 0.45664 0.04203 -0.52400
O 	O 	0.96133 0.47857 0.03782 -0.52700
O 	O 	0.91074 0.45860 0.94621 -0.52500
O 	O 	0.95654 0.50396 0.99199 -0.53200
O 	O 	0.95984 0.38238 0.91888 -0.53600
O 	O 	0.89668 0.41736 0.97254 -0.53600
O 	O 	0.94145 0.31492 0.16590 -0.53000
O 	O 	0.91093 0.34586 0.09263 -0.54700
H 	H 	0.77378 0.67253 0.84271 0.03500
H 	H 	0.84083 0.51485 0.90963 0.03600
H 	H 	0.81471 0.55251 0.88351 0.03600
H 	H 	0.86305 0.38423 0.92826 0.03700
H 	H 	0.81764 0.45366 0.95001 0.03600
H 	H 	0.03939 0.29936 0.07824 0.03700
H 	H 	0.01158 0.27082 0.05050 0.03600
H 	H 	0.99626 0.36801 0.09421 0.03600
H 	H 	0.00759 0.40797 0.07002 0.03600
H 	H 	0.92083 0.41181 0.08433 0.03700
H 	H 	0.93203 0.45151 0.06039 0.03700
H 	H 	0.90893 0.47439 0.97758 0.03800
H 	H 	0.92451 0.49049 0.99335 0.03300
H 	H 	0.99270 0.34198 0.93941 0.03700
H 	H 	0.03548 0.31624 0.94517 0.03600
H 	H 	0.02072 0.40637 0.88186 0.03500
H 	H 	0.06289 0.38102 0.88740 0.03500
Cr	Cr	0.96616 0.59230 0.30577 1.57400
Cr	Cr	0.89037 0.71966 0.44652 1.58000
C 	C 	0.78908 0.70277 0.68056 0.01200
C 	C 	0.85045 0.73753 0.52304 0.00300
C 	C 	0.83545 0.74597 0.54461 0.00400
C 	C 	0.84479 0.82254 0.39946 0.00200
C 	C 	0.86780 0.77511 0.41937 0.43400
C 	C 	0.84359 0.79833 0.41896 -0.10900
C 	C 	0.81932 0.79696 0.43830 0.00200
C 	C 	0.04163 0.60157 0.29274 -0.00100
C 	C 	0.99695 0.62499 0.28742 0.42000
C 	C 	0.02205 0.62506 0.28506 -0.10200
C 	C 	0.02610 0.64857 0.27678 -0.00100
C 	C 	0.98201 0.54484 0.38611 -0.00100
C 	C 	0.95039 0.58169 0.36196 0.42000
C 	C 	0.95760 0.56470 0.38640 -0.10200
C 	C 	0.98848 0.52917 0.40915 -0.00000
C 	C 	0.97801 0.51739 0.45770 0.42200
C 	C 	0.97073 0.53274 0.43328 -0.10300
C 	C 	0.93984 0.56810 0.41057 -0.00100
C 	C 	0.94626 0.55243 0.43353 -0.00000
C 	C 	0.92736 0.62901 0.47788 -0.00700
C 	C 	0.93637 0.60159 0.48724 0.01500
C 	C 	0.00806 0.71368 0.35050 0.00300
C 	C 	0.97696 0.72170 0.39300 0.43900
C 	C 	0.00328 0.71013 0.37631 -0.11300
C 	C 	0.03250 0.70062 0.33577 0.00300
C 	C 	0.91743 0.58192 0.32862 0.44100
C 	C 	0.05253 0.68385 0.34661 -0.11400
C 	C 	0.02362 0.69408 0.38669 0.00300
C 	C 	0.04787 0.68119 0.37206 0.00400
O 	O 	0.78897 0.74786 0.63876 -0.54100
O 	O 	0.88117 0.72475 0.47735 -0.53600
O 	O 	0.80648 0.76523 0.58630 -0.53600
O 	O 	0.86630 0.75327 0.43680 -0.52900
O 	O 	0.93031 0.77824 0.40227 -0.53400
O 	O 	0.99374 0.60319 0.29648 -0.52500
O 	O 	0.96902 0.60330 0.27054 -0.52300
O 	O 	0.96610 0.57723 0.34063 -0.52200
O 	O 	0.92851 0.60000 0.36353 -0.52200
O 	O 	0.00073 0.50060 0.45664 -0.52400
O 	O 	0.96133 0.52229 0.47857 -0.52700
O 	O 	0.91074 0.68444 0.45860 -0.52500
O 	O 	0.95654 0.54751 0.50396 -0.53200
O 	O 	0.95984 0.73889 0.38238 -0.53600
O 	O 	0.89668 0.71343 0.41736 -0.53600
O 	O 	0.94145 0.57773 0.31492 -0.53000
O 	O 	0.91093 0.65057 0.34586 -0.54700
H 	H 	0.77378 0.71098 0.67253 0.03500
H 	H 	0.84083 0.73468 0.51485 0.03600
H 	H 	0.81471 0.74927 0.55251 0.03600
H 	H 	0.86305 0.82446 0.38423 0.03700
H 	H 	0.81764 0.77869 0.45366 0.03600
H 	H 	0.03939 0.58302 0.29936 0.03700
H 	H 	0.01158 0.66710 0.27082 0.03600
H 	H 	0.99626 0.54151 0.36801 0.03600
H 	H 	0.00759 0.51443 0.40797 0.03600
H 	H 	0.92083 0.58302 0.41181 0.03700
H 	H 	0.93203 0.55606 0.45151 0.03700
H 	H 	0.90893 0.63910 0.47439 0.03800
H 	H 	0.92451 0.59165 0.49049 0.03300
H 	H 	0.99270 0.72592 0.34198 0.03700
H 	H 	0.03548 0.70310 0.31624 0.03600
H 	H 	0.02072 0.69105 0.40637 0.03500
H 	H 	0.06289 0.66869 0.38102 0.03500
Cr	Cr	0.13577 0.30577 0.59230 1.57400
Cr	Cr	0.94344 0.44652 0.71966 1.58000
C 	C 	0.82760 0.68056 0.70277 0.01200
C 	C 	0.88898 0.52304 0.73753 0.00300
C 	C 	0.87397 0.54461 0.74597 0.00400
C 	C 	0.93321 0.39946 0.82254 0.00200
C 	C 	0.93773 0.41937 0.77511 0.43400
C 	C 	0.93911 0.41896 0.79833 -0.10900
C 	C 	0.94542 0.43830 0.79696 0.00200
C 	C 	0.06406 0.29274 0.60157 -0.00100
C 	C 	0.09064 0.28742 0.62499 0.42000
C 	C 	0.06782 0.28506 0.62506 -0.10100
C 	C 	0.04855 0.27678 0.64857 -0.00100
C 	C 	0.08703 0.38611 0.54484 -0.00100
C 	C 	0.10596 0.36196 0.58169 0.42000
C 	C 	0.09130 0.38640 0.56470 -0.10200
C 	C 	0.07319 0.40915 0.52917 -0.00100
C 	C 	0.04690 0.45770 0.51739 0.42100
C 	C 	0.06325 0.43328 0.53274 -0.10200
C 	C 	0.08149 0.41057 0.56810 -0.00100
C 	C 	0.06778 0.43353 0.55243 -0.00100
C 	C 	0.96575 0.47788 0.62901 -0.00700
C 	C 	0.97480 0.48724 0.60159 0.01500
C 	C 	0.92776 0.35050 0.71368 0.00300
C 	C 	0.90834 0.39300 0.72170 0.43900
C 	C 	0.91028 0.37631 0.71013 -0.11300
C 	C 	0.93111 0.33577 0.70062 0.00300
C 	C 	0.17204 0.32862 0.58192 0.44100
C 	C 	0.91701 0.34661 0.68385 -0.11400
C 	C 	0.89562 0.38669 0.69408 0.00300
C 	C 	0.89889 0.37206 0.68119 0.00400
O 	O 	0.82441 0.63876 0.74786 -0.54100
O 	O 	0.91673 0.47735 0.72475 -0.53600
O 	O 	0.84199 0.58630 0.76523 -0.53500
O 	O 	0.94363 0.43680 0.75327 -0.52900
O 	O 	0.88918 0.40227 0.77824 -0.53400
O 	O 	0.10659 0.29648 0.60319 -0.52500
O 	O 	0.15715 0.27054 0.60330 -0.52300
O 	O 	0.11604 0.34063 0.57723 -0.52200
O 	O 	0.10795 0.36353 0.60000 -0.52300
O 	O 	0.04203 0.45664 0.50060 -0.52300
O 	O 	0.03782 0.47857 0.52229 -0.52600
O 	O 	0.94621 0.45860 0.68444 -0.52500
O 	O 	0.99199 0.50396 0.54751 -0.53200
O 	O 	0.91888 0.38238 0.73889 -0.53600
O 	O 	0.97254 0.41736 0.71343 -0.53600
O 	O 	0.16590 0.31492 0.57773 -0.53000
O 	O 	0.09263 0.34586 0.65057 -0.54700
H 	H 	0.84271 0.67253 0.71098 0.03500
H 	H 	0.90963 0.51485 0.73468 0.03600
H 	H 	0.88351 0.55251 0.74927 0.03600
H 	H 	0.92826 0.38423 0.82446 0.03700
H 	H 	0.95001 0.45366 0.77869 0.03600
H 	H 	0.07824 0.29936 0.58302 0.03700
H 	H 	0.05050 0.27082 0.66710 0.03700
H 	H 	0.09421 0.36801 0.54151 0.03600
H 	H 	0.07002 0.40797 0.51443 0.03600
H 	H 	0.08433 0.41181 0.58302 0.03700
H 	H 	0.06039 0.45151 0.55606 0.03700
H 	H 	0.97758 0.47439 0.63910 0.03800
H 	H 	0.99335 0.49049 0.59165 0.03300
H 	H 	0.93941 0.34198 0.72592 0.03700
H 	H 	0.94517 0.31624 0.70310 0.03600
H 	H 	0.88186 0.40637 0.69105 0.03500
H 	H 	0.88740 0.38102 0.66869 0.03500
Cr	Cr	0.30577 0.13577 0.96616 1.57400
Cr	Cr	0.44652 0.94344 0.89037 1.58000
C 	C 	0.68056 0.82760 0.78908 0.01200
C 	C 	0.52304 0.88898 0.85045 0.00300
C 	C 	0.54461 0.87397 0.83545 0.00400
C 	C 	0.39946 0.93321 0.84479 0.00200
C 	C 	0.41937 0.93773 0.86780 0.43400
C 	C 	0.41896 0.93911 0.84359 -0.10900
C 	C 	0.43830 0.94542 0.81932 0.00100
C 	C 	0.29274 0.06406 0.04163 -0.00100
C 	C 	0.28742 0.09064 0.99695 0.41900
C 	C 	0.28506 0.06782 0.02205 -0.10200
C 	C 	0.27678 0.04855 0.02610 -0.00100
C 	C 	0.38611 0.08703 0.98201 -0.00200
C 	C 	0.36196 0.10596 0.95039 0.42000
C 	C 	0.38640 0.09130 0.95760 -0.10100
C 	C 	0.40915 0.07319 0.98848 -0.00000
C 	C 	0.45770 0.04690 0.97801 0.42200
C 	C 	0.43328 0.06325 0.97073 -0.10300
C 	C 	0.41057 0.08149 0.93984 -0.00100
C 	C 	0.43353 0.06778 0.94626 -0.00000
C 	C 	0.47788 0.96575 0.92736 -0.00700
C 	C 	0.48724 0.97480 0.93637 0.01500
C 	C 	0.35050 0.92776 0.00806 0.00300
C 	C 	0.39300 0.90834 0.97696 0.43900
C 	C 	0.37631 0.91028 0.00328 -0.11300
C 	C 	0.33577 0.93111 0.03250 0.00300
C 	C 	0.32862 0.17204 0.91743 0.44200
C 	C 	0.34661 0.91701 0.05253 -0.11400
C 	C 	0.38669 0.89562 0.02362 0.00300
C 	C 	0.37206 0.89889 0.04787 0.00400
O 	O 	0.63876 0.82441 0.78897 -0.54100
O 	O 	0.47735 0.91673 0.88117 -0.53600
O 	O 	0.58630 0.84199 0.80648 -0.53600
O 	O 	0.43680 0.94363 0.86630 -0.53000
O 	O 	0.40227 0.88918 0.93031 -0.53400
O 	O 	0.29648 0.10659 0.99374 -0.52400
O 	O 	0.27054 0.15715 0.96902 -0.52200
O 	O 	0.34063 0.11604 0.96610 -0.52200
O 	O 	0.36353 0.10795 0.92851 -0.52200
O 	O 	0.45664 0.04203 0.00073 -0.52400
O 	O 	0.47857 0.03782 0.96133 -0.52700
O 	O 	0.45860 0.94621 0.91074 -0.52500
O 	O 	0.50396 0.99199 0.95654 -0.53200
O 	O 	0.38238 0.91888 0.95984 -0.53600
O 	O 	0.41736 0.97254 0.89668 -0.53600
O 	O 	0.31492 0.16590 0.94145 -0.53000
O 	O 	0.34586 0.09263 0.91093 -0.54700
H 	H 	0.67253 0.84271 0.77378 0.03500
H 	H 	0.51485 0.90963 0.84083 0.03600
H 	H 	0.55251 0.88351 0.81471 0.03600
H 	H 	0.38423 0.92826 0.86305 0.03700
H 	H 	0.45366 0.95001 0.81764 0.03600
H 	H 	0.29936 0.07824 0.03939 0.03700
H 	H 	0.27082 0.05050 0.01158 0.03600
H 	H 	0.36801 0.09421 0.99626 0.03600
H 	H 	0.40797 0.07002 0.00759 0.03600
H 	H 	0.41181 0.08433 0.92083 0.03700
H 	H 	0.45151 0.06039 0.93203 0.03700
H 	H 	0.47439 0.97758 0.90893 0.03800
H 	H 	0.49049 0.99335 0.92451 0.03300
H 	H 	0.34198 0.93941 0.99270 0.03700
H 	H 	0.31624 0.94517 0.03548 0.03600
H 	H 	0.40637 0.88186 0.02072 0.03500
H 	H 	0.38102 0.88740 0.06289 0.03500
Cr	Cr	0.59230 0.96616 0.13577 1.57400
Cr	Cr	0.71966 0.89037 0.94344 1.58000
C 	C 	0.70277 0.78908 0.82760 0.01200
C 	C 	0.73753 0.85045 0.88898 0.00300
C 	C 	0.74597 0.83545 0.87397 0.00300
C 	C 	0.82254 0.84479 0.93321 0.00200
C 	C 	0.77511 0.86780 0.93773 0.43400
C 	C 	0.79833 0.84359 0.93911 -0.10900
C 	C 	0.79696 0.81932 0.94542 0.00200
C 	C 	0.60157 0.04163 0.06406 -0.00100
C 	C 	0.62499 0.99695 0.09064 0.42000
C 	C 	0.62506 0.02205 0.06782 -0.10200
C 	C 	0.64857 0.02610 0.04855 -0.00100
C 	C 	0.54484 0.98201 0.08703 -0.00200
C 	C 	0.58169 0.95039 0.10596 0.42000
C 	C 	0.56470 0.95760 0.09130 -0.10100
C 	C 	0.52917 0.98848 0.07319 -0.00000
C 	C 	0.51739 0.97801 0.04690 0.42200
C 	C 	0.53274 0.97073 0.06325 -0.10300
C 	C 	0.56810 0.93984 0.08149 -0.00100
C 	C 	0.55243 0.94626 0.06778 -0.00000
C 	C 	0.62901 0.92736 0.96575 -0.00700
C 	C 	0.60159 0.93637 0.97480 0.01500
C 	C 	0.71368 0.00806 0.92776 0.00300
C 	C 	0.72170 0.97696 0.90834 0.44000
C 	C 	0.71013 0.00328 0.91028 -0.11400
C 	C 	0.70062 0.03250 0.93111 0.00300
C 	C 	0.58192 0.91743 0.17204 0.44200
C 	C 	0.68385 0.05253 0.91701 -0.11400
C 	C 	0.69408 0.02362 0.89562 0.00300
C 	C 	0.68119 0.04787 0.89889 0.00400
O 	O 	0.74786 0.78897 0.82441 -0.54100
O 	O 	0.72475 0.88117 0.91673 -0.53600
O 	O 	0.76523 0.80648 0.84199 -0.53600
O 	O 	0.75327 0.86630 0.94363 -0.52900
O 	O 	0.77824 0.93031 0.88918 -0.53400
O 	O 	0.60319 0.99374 0.10659 -0.52500
O 	O 	0.60330 0.96902 0.15715 -0.52300
O 	O 	0.57723 0.96610 0.11604 -0.52200
O 	O 	0.60000 0.92851 0.10795 -0.52200
O 	O 	0.50060 0.00073 0.04203 -0.52400
O 	O 	0.52229 0.96133 0.03782 -0.52700
O 	O 	0.68444 0.91074 0.94621 -0.52500
O 	O 	0.54751 0.95654 0.99199 -0.53200
O 	O 	0.73889 0.95984 0.91888 -0.53600
O 	O 	0.71343 0.89668 0.97254 -0.53600
O 	O 	0.57773 0.94145 0.16590 -0.53000
O 	O 	0.65057 0.91093 0.09263 -0.54700
H 	H 	0.71098 0.77378 0.84271 0.03500
H 	H 	0.73468 0.84083 0.90963 0.03600
H 	H 	0.74927 0.81471 0.88351 0.03600
H 	H 	0.82446 0.86305 0.92826 0.03700
H 	H 	0.77869 0.81764 0.95001 0.03600
H 	H 	0.58302 0.03939 0.07824 0.03700
H 	H 	0.66710 0.01158 0.05050 0.03600
H 	H 	0.54151 0.99626 0.09421 0.03600
H 	H 	0.51443 0.00759 0.07002 0.03600
H 	H 	0.58302 0.92083 0.08433 0.03700
H 	H 	0.55606 0.93203 0.06039 0.03700
H 	H 	0.63910 0.90893 0.97758 0.03800
H 	H 	0.59165 0.92451 0.99335 0.03300
H 	H 	0.72592 0.99270 0.93941 0.03700
H 	H 	0.70310 0.03548 0.94517 0.03600
H 	H 	0.69105 0.02072 0.88186 0.03500
H 	H 	0.66869 0.06289 0.88740 0.03500
Cr	Cr	0.13577 0.96616 0.59230 1.57400
Cr	Cr	0.94344 0.89037 0.71966 1.58000
C 	C 	0.82760 0.78908 0.70277 0.01200
C 	C 	0.88898 0.85045 0.73753 0.00300
C 	C 	0.87397 0.83545 0.74597 0.00300
C 	C 	0.93321 0.84479 0.82254 0.00200
C 	C 	0.93773 0.86780 0.77511 0.43400
C 	C 	0.93911 0.84359 0.79833 -0.10900
C 	C 	0.94542 0.81932 0.79696 0.00200
C 	C 	0.06406 0.04163 0.60157 -0.00100
C 	C 	0.09064 0.99695 0.62499 0.42000
C 	C 	0.06782 0.02205 0.62506 -0.10200
C 	C 	0.04855 0.02610 0.64857 -0.00100
C 	C 	0.08703 0.98201 0.54484 -0.00200
C 	C 	0.10596 0.95039 0.58169 0.42000
C 	C 	0.09130 0.95760 0.56470 -0.10100
C 	C 	0.07319 0.98848 0.52917 -0.00000
C 	C 	0.04690 0.97801 0.51739 0.42200
C 	C 	0.06325 0.97073 0.53274 -0.10300
C 	C 	0.08149 0.93984 0.56810 -0.00100
C 	C 	0.06778 0.94626 0.55243 -0.00000
C 	C 	0.96575 0.92736 0.62901 -0.00700
C 	C 	0.97480 0.93637 0.60159 0.01500
C 	C 	0.92776 0.00806 0.71368 0.00300
C 	C 	0.90834 0.97696 0.72170 0.44000
C 	C 	0.91028 0.00328 0.71013 -0.11400
C 	C 	0.93111 0.03250 0.70062 0.00300
C 	C 	0.17204 0.91743 0.58192 0.44200
C 	C 	0.91701 0.05253 0.68385 -0.11400
C 	C 	0.89562 0.02362 0.69408 0.00300
C 	C 	0.89889 0.04787 0.68119 0.00400
O 	O 	0.82441 0.78897 0.74786 -0.54100
O 	O 	0.91673 0.88117 0.72475 -0.53600
O 	O 	0.84199 0.80648 0.76523 -0.53600
O 	O 	0.94363 0.86630 0.75327 -0.52900
O 	O 	0.88918 0.93031 0.77824 -0.53400
O 	O 	0.10659 0.99374 0.60319 -0.52500
O 	O 	0.15715 0.96902 0.60330 -0.52300
O 	O 	0.11604 0.96610 0.57723 -0.52200
O 	O 	0.10795 0.92851 0.60000 -0.52200
O 	O 	0.04203 0.00073 0.50060 -0.52400
O 	O 	0.03782 0.96133 0.52229 -0.52700
O 	O 	0.94621 0.91074 0.68444 -0.52500
O 	O 	0.99199 0.95654 0.54751 -0.53200
O 	O 	0.91888 0.95984 0.73889 -0.53600
O 	O 	0.97254 0.89668 0.71343 -0.53600
O 	O 	0.16590 0.94145 0.57773 -0.53000
O 	O 	0.09263 0.91093 0.65057 -0.54700
H 	H 	0.84271 0.77378 0.71098 0.03500
H 	H 	0.90963 0.84083 0.73468 0.03600
H 	H 	0.88351 0.81471 0.74927 0.03600
H 	H 	0.92826 0.86305 0.82446 0.03700
H 	H 	0.95001 0.81764 0.77869 0.03600
H 	H 	0.07824 0.03939 0.58302 0.03700
H 	H 	0.05050 0.01158 0.66710 0.03600
H 	H 	0.09421 0.99626 0.54151 0.03600
H 	H 	0.07002 0.00759 0.51443 0.03600
H 	H 	0.08433 0.92083 0.58302 0.03700
H 	H 	0.06039 0.93203 0.55606 0.03700
H 	H 	0.97758 0.90893 0.63910 0.03800
H 	H 	0.99335 0.92451 0.59165 0.03300
H 	H 	0.93941 0.99270 0.72592 0.03700
H 	H 	0.94517 0.03548 0.70310 0.03600
H 	H 	0.88186 0.02072 0.69105 0.03500
H 	H 	0.88740 0.06289 0.66869 0.03500
Cr	Cr	0.96616 0.13577 0.30577 1.57400
Cr	Cr	0.89037 0.94344 0.44652 1.58000
C 	C 	0.78908 0.82760 0.68056 0.01200
C 	C 	0.85045 0.88898 0.52304 0.00300
C 	C 	0.83545 0.87397 0.54461 0.00400
C 	C 	0.84479 0.93321 0.39946 0.00200
C 	C 	0.86780 0.93773 0.41937 0.43400
C 	C 	0.84359 0.93911 0.41896 -0.10900
C 	C 	0.81932 0.94542 0.43830 0.00100
C 	C 	0.04163 0.06406 0.29274 -0.00100
C 	C 	0.99695 0.09064 0.28742 0.41900
C 	C 	0.02205 0.06782 0.28506 -0.10200
C 	C 	0.02610 0.04855 0.27678 -0.00100
C 	C 	0.98201 0.08703 0.38611 -0.00200
C 	C 	0.95039 0.10596 0.36196 0.42000
C 	C 	0.95760 0.09130 0.38640 -0.10100
C 	C 	0.98848 0.07319 0.40915 -0.00000
C 	C 	0.97801 0.04690 0.45770 0.42200
C 	C 	0.97073 0.06325 0.43328 -0.10300
C 	C 	0.93984 0.08149 0.41057 -0.00100
C 	C 	0.94626 0.06778 0.43353 -0.00000
C 	C 	0.92736 0.96575 0.47788 -0.00700
C 	C 	0.93637 0.97480 0.48724 0.01500
C 	C 	0.00806 0.92776 0.35050 0.00300
C 	C 	0.97696 0.90834 0.39300 0.43900
C 	C 	0.00328 0.91028 0.37631 -0.11300
C 	C 	0.03250 0.93111 0.33577 0.00300
C 	C 	0.91743 0.17204 0.32862 0.44200
C 	C 	0.05253 0.91701 0.34661 -0.11400
C 	C 	0.02362 0.89562 0.38669 0.00300
C 	C 	0.04787 0.89889 0.37206 0.00400
O 	O 	0.78897 0.82441 0.63876 -0.54100
O 	O 	0.88117 0.91673 0.47735 -0.53600
O 	O 	0.80648 0.84199 0.58630 -0.53600
O 	O 	0.86630 0.94363 0.43680 -0.53000
O 	O 	0.93031 0.88918 0.40227 -0.53400
O 	O 	0.99374 0.10659 0.29648 -0.52400
O 	O 	0.96902 0.15715 0.27054 -0.52200
O 	O 	0.96610 0.11604 0.34063 -0.52200
O 	O 	0.92851 0.10795 0.36353 -0.52200
O 	O 	0.00073 0.04203 0.45664 -0.52400
O 	O 	0.96133 0.03782 0.47857 -0.52700
O 	O 	0.91074 0.94621 0.45860 -0.52500
O 	O 	0.95654 0.99199 0.50396 -0.53200
O 	O 	0.95984 0.91888 0.38238 -0.53600
O 	O 	0.89668 0.97254 0.41736 -0.53600
O 	O 	0.94145 0.16590 0.31492 -0.53000
O 	O 	0.91093 0.09263 0.34586 -0.54700
H 	H 	0.77378 0.84271 0.67253 0.03500
H 	H 	0.84083 0.90963 0.51485 0.03600
H 	H 	0.81471 0.88351 0.55251 0.03600
H 	H 	0.86305 0.92826 0.38423 0.03700
H 	H 	0.81764 0.95001 0.45366 0.03600
H 	H 	0.03939 0.07824 0.29936 0.03700
H 	H 	0.01158 0.05050 0.27082 0.03600
H 	H 	0.99626 0.09421 0.36801 0.03600
H 	H 	0.00759 0.07002 0.40797 0.03600
H 	H 	0.92083 0.08433 0.41181 0.03700
H 	H 	0.93203 0.06039 0.45151 0.03700
H 	H 	0.90893 0.97758 0.47439 0.03800
H 	H 	0.92451 0.99335 0.49049 0.03300
H 	H 	0.99270 0.93941 0.34198 0.03700
H 	H 	0.03548 0.94517 0.31624 0.03600
H 	H 	0.02072 0.88186 0.40637 0.03500
H 	H 	0.06289 0.88740 0.38102 0.03500
Cr	Cr	0.59230 0.30577 0.13577 1.57400
Cr	Cr	0.71966 0.44652 0.94344 1.58000
C 	C 	0.70277 0.68056 0.82760 0.01200
C 	C 	0.73753 0.52304 0.88898 0.00300
C 	C 	0.74597 0.54461 0.87397 0.00400
C 	C 	0.82254 0.39946 0.93321 0.00200
C 	C 	0.77511 0.41937 0.93773 0.43400
C 	C 	0.79833 0.41896 0.93911 -0.10900
C 	C 	0.79696 0.43830 0.94542 0.00200
C 	C 	0.60157 0.29274 0.06406 -0.00100
C 	C 	0.62499 0.28742 0.09064 0.42000
C 	C 	0.62506 0.28506 0.06782 -0.10100
C 	C 	0.64857 0.27678 0.04855 -0.00100
C 	C 	0.54484 0.38611 0.08703 -0.00100
C 	C 	0.58169 0.36196 0.10596 0.42000
C 	C 	0.56470 0.38640 0.09130 -0.10200
C 	C 	0.52917 0.40915 0.07319 -0.00100
C 	C 	0.51739 0.45770 0.04690 0.42100
C 	C 	0.53274 0.43328 0.06325 -0.10200
C 	C 	0.56810 0.41057 0.08149 -0.00100
C 	C 	0.55243 0.43353 0.06778 -0.00100
C 	C 	0.62901 0.47788 0.96575 -0.00700
C 	C 	0.60159 0.48724 0.97480 0.01500
C 	C 	0.71368 0.35050 0.92776 0.00300
C 	C 	0.72170 0.39300 0.90834 0.43900
C 	C 	0.71013 0.37631 0.91028 -0.11300
C 	C 	0.70062 0.33577 0.93111 0.00300
C 	C 	0.58192 0.32862 0.17204 0.44100
C 	C 	0.68385 0.34661 0.91701 -0.11400
C 	C 	0.69408 0.38669 0.89562 0.00300
C 	C 	0.68119 0.37206 0.89889 0.00400
O 	O 	0.74786 0.63876 0.82441 -0.54100
O 	O 	0.72475 0.47735 0.91673 -0.53600
O 	O 	0.76523 0.58630 0.84199 -0.53500
O 	O 	0.75327 0.43680 0.94363 -0.52900
O 	O 	0.77824 0.40227 0.88918 -0.53400
O 	O 	0.60319 0.29648 0.10659 -0.52500
O 	O 	0.60330 0.27054 0.15715 -0.52300
O 	O 	0.57723 0.34063 0.11604 -0.52200
O 	O 	0.60000 0.36353 0.10795 -0.52300
O 	O 	0.50060 0.45664 0.04203 -0.52300
O 	O 	0.52229 0.47857 0.03782 -0.52600
O 	O 	0.68444 0.45860 0.94621 -0.52500
O 	O 	0.54751 0.50396 0.99199 -0.53200
O 	O 	0.73889 0.38238 0.91888 -0.53600
O 	O 	0.71343 0.41736 0.97254 -0.53600
O 	O 	0.57773 0.31492 0.16590 -0.53000
O 	O 	0.65057 0.34586 0.09263 -0.54700
H 	H 	0.71098 0.67253 0.84271 0.03500
H 	H 	0.73468 0.51485 0.90963 0.03600
H 	H 	0.74927 0.55251 0.88351 0.03600
H 	H 	0.82446 0.38423 0.92826 0.03700
H 	H 	0.77869 0.45366 0.95001 0.03600
H 	H 	0.58302 0.29936 0.07824 0.03700
H 	H 	0.66710 0.27082 0.05050 0.03700
H 	H 	0.54151 0.36801 0.09421 0.03600
H 	H 	0.51443 0.40797 0.07002 0.03600
H 	H 	0.58302 0.41181 0.08433 0.03700
H 	H 	0.55606 0.45151 0.06039 0.03700
H 	H 	0.63910 0.47439 0.97758 0.03800
H 	H 	0.59165 0.49049 0.99335 0.03300
H 	H 	0.72592 0.34198 0.93941 0.03700
H 	H 	0.70310 0.31624 0.94517 0.03600
H 	H 	0.69105 0.40637 0.88186 0.03500
H 	H 	0.66869 0.38102 0.88740 0.03500
Cr	Cr	0.30577 0.59230 0.96616 1.57400
Cr	Cr	0.44652 0.71966 0.89037 1.58000
C 	C 	0.68056 0.70277 0.78908 0.01200
C 	C 	0.52304 0.73753 0.85045 0.00300
C 	C 	0.54461 0.74597 0.83545 0.00400
C 	C 	0.39946 0.82254 0.84479 0.00200
C 	C 	0.41937 0.77511 0.86780 0.43400
C 	C 	0.41896 0.79833 0.84359 -0.10900
C 	C 	0.43830 0.79696 0.81932 0.00200
C 	C 	0.29274 0.60157 0.04163 -0.00100
C 	C 	0.28742 0.62499 0.99695 0.42000
C 	C 	0.28506 0.62506 0.02205 -0.10200
C 	C 	0.27678 0.64857 0.02610 -0.00100
C 	C 	0.38611 0.54484 0.98201 -0.00100
C 	C 	0.36196 0.58169 0.95039 0.42000
C 	C 	0.38640 0.56470 0.95760 -0.10200
C 	C 	0.40915 0.52917 0.98848 -0.00000
C 	C 	0.45770 0.51739 0.97801 0.42200
C 	C 	0.43328 0.53274 0.97073 -0.10300
C 	C 	0.41057 0.56810 0.93984 -0.00100
C 	C 	0.43353 0.55243 0.94626 -0.00000
C 	C 	0.47788 0.62901 0.92736 -0.00700
C 	C 	0.48724 0.60159 0.93637 0.01500
C 	C 	0.35050 0.71368 0.00806 0.00300
C 	C 	0.39300 0.72170 0.97696 0.43900
C 	C 	0.37631 0.71013 0.00328 -0.11300
C 	C 	0.33577 0.70062 0.03250 0.00300
C 	C 	0.32862 0.58192 0.91743 0.44100
C 	C 	0.34661 0.68385 0.05253 -0.11400
C 	C 	0.38669 0.69408 0.02362 0.00300
C 	C 	0.37206 0.68119 0.04787 0.00400
O 	O 	0.63876 0.74786 0.78897 -0.54100
O 	O 	0.47735 0.72475 0.88117 -0.53600
O 	O 	0.58630 0.76523 0.80648 -0.53600
O 	O 	0.43680 0.75327 0.86630 -0.52900
O 	O 	0.40227 0.77824 0.93031 -0.53400
O 	O 	0.29648 0.60319 0.99374 -0.52500
O 	O 	0.27054 0.60330 0.96902 -0.52300
O 	O 	0.34063 0.57723 0.96610 -0.52200
O 	O 	0.36353 0.60000 0.92851 -0.52200
O 	O 	0.45664 0.50060 0.00073 -0.52400
O 	O 	0.47857 0.52229 0.96133 -0.52700
O 	O 	0.45860 0.68444 0.91074 -0.52500
O 	O 	0.50396 0.54751 0.95654 -0.53200
O 	O 	0.38238 0.73889 0.95984 -0.53600
O 	O 	0.41736 0.71343 0.89668 -0.53600
O 	O 	0.31492 0.57773 0.94145 -0.53000
O 	O 	0.34586 0.65057 0.91093 -0.54700
H 	H 	0.67253 0.71098 0.77378 0.03500
H 	H 	0.51485 0.73468 0.84083 0.03600
H 	H 	0.55251 0.74927 0.81471 0.03600
H 	H 	0.38423 0.82446 0.86305 0.03700
H 	H 	0.45366 0.77869 0.81764 0.03600
H 	H 	0.29936 0.58302 0.03939 0.03700
H 	H 	0.27082 0.66710 0.01158 0.03600
H 	H 	0.36801 0.54151 0.99626 0.03600
H 	H 	0.40797 0.51443 0.00759 0.03600
H 	H 	0.41181 0.58302 0.92083 0.03700
H 	H 	0.45151 0.55606 0.93203 0.03700
H 	H 	0.47439 0.63910 0.90893 0.03800
H 	H 	0.49049 0.59165 0.92451 0.03300
H 	H 	0.34198 0.72592 0.99270 0.03700
H 	H 	0.31624 0.70310 0.03548 0.03600
H 	H 	0.40637 0.69105 0.02072 0.03500
H 	H 	0.38102 0.66869 0.06289 0.03500
Cr	Cr	0.59230 0.13577 0.96616 1.57400
Cr	Cr	0.71966 0.94344 0.89037 1.58000
C 	C 	0.70277 0.82760 0.78908 0.01200
C 	C 	0.73753 0.88898 0.85045 0.00300
C 	C 	0.74597 0.87397 0.83545 0.00300
C 	C 	0.82254 0.93321 0.84479 0.00200
C 	C 	0.77511 0.93773 0.86780 0.43400
C 	C 	0.79833 0.93911 0.84359 -0.10900
C 	C 	0.79696 0.94542 0.81932 0.00200
C 	C 	0.60157 0.06406 0.04163 -0.00100
C 	C 	0.62499 0.09064 0.99695 0.42000
C 	C 	0.62506 0.06782 0.02205 -0.10200
C 	C 	0.64857 0.04855 0.02610 -0.00100
C 	C 	0.54484 0.08703 0.98201 -0.00200
C 	C 	0.58169 0.10596 0.95039 0.42000
C 	C 	0.56470 0.09130 0.95760 -0.10100
C 	C 	0.52917 0.07319 0.98848 -0.00000
C 	C 	0.51739 0.04690 0.97801 0.42200
C 	C 	0.53274 0.06325 0.97073 -0.10300
C 	C 	0.56810 0.08149 0.93984 -0.00100
C 	C 	0.55243 0.06778 0.94626 -0.00000
C 	C 	0.62901 0.96575 0.92736 -0.00700
C 	C 	0.60159 0.97480 0.93637 0.01500
C 	C 	0.71368 0.92776 0.00806 0.00300
C 	C 	0.72170 0.90834 0.97696 0.44000
C 	C 	0.71013 0.91028 0.00328 -0.11400
C 	C 	0.70062 0.93111 0.03250 0.00300
C 	C 	0.58192 0.17204 0.91743 0.44200
C 	C 	0.68385 0.91701 0.05253 -0.11400
C 	C 	0.69408 0.89562 0.02362 0.00300
C 	C 	0.68119 0.89889 0.04787 0.00400
O 	O 	0.74786 0.82441 0.78897 -0.54100
O 	O 	0.72475 0.91673 0.88117 -0.53600
O 	O 	0.76523 0.84199 0.80648 -0.53600
O 	O 	0.75327 0.94363 0.86630 -0.52900
O 	O 	0.77824 0.88918 0.93031 -0.53400
O 	O 	0.60319 0.10659 0.99374 -0.52500
O 	O 	0.60330 0.15715 0.96902 -0.52300
O 	O 	0.57723 0.11604 0.96610 -0.52200
O 	O 	0.60000 0.10795 0.92851 -0.52200
O 	O 	0.50060 0.04203 0.00073 -0.52400
O 	O 	0.52229 0.03782 0.96133 -0.52700
O 	O 	0.68444 0.94621 0.91074 -0.52500
O 	O 	0.54751 0.99199 0.95654 -0.53200
O 	O 	0.73889 0.91888 0.95984 -0.53600
O 	O 	0.71343 0.97254 0.89668 -0.53600
O 	O 	0.57773 0.16590 0.94145 -0.53000
O 	O 	0.65057 0.09263 0.91093 -0.54700
H 	H 	0.71098 0.84271 0.77378 0.03500
H 	H 	0.73468 0.90963 0.84083 0.03600
H 	H 	0.74927 0.88351 0.81471 0.03600
H 	H 	0.82446 0.92826 0.86305 0.03700
H 	H 	0.77869 0.95001 0.81764 0.03600
H 	H 	0.58302 0.07824 0.03939 0.03700
H 	H 	0.66710 0.05050 0.01158 0.03600
H 	H 	0.54151 0.09421 0.99626 0.03600
H 	H 	0.51443 0.07002 0.00759 0.03600
H 	H 	0.58302 0.08433 0.92083 0.03700
H 	H 	0.55606 0.06039 0.93203 0.03700
H 	H 	0.63910 0.97758 0.90893 0.03800
H 	H 	0.59165 0.99335 0.92451 0.03300
H 	H 	0.72592 0.93941 0.99270 0.03700
H 	H 	0.70310 0.94517 0.03548 0.03600
H 	H 	0.69105 0.88186 0.02072 0.03500
H 	H 	0.66869 0.88740 0.06289 0.03500
Cr	Cr	0.30577 0.96616 0.13577 1.57400
Cr	Cr	0.44652 0.89037 0.94344 1.58000
C 	C 	0.68056 0.78908 0.82760 0.01200
C 	C 	0.52304 0.85045 0.88898 0.00300
C 	C 	0.54461 0.83545 0.87397 0.00400
C 	C 	0.39946 0.84479 0.93321 0.00200
C 	C 	0.41937 0.86780 0.93773 0.43400
C 	C 	0.41896 0.84359 0.93911 -0.10900
C 	C 	0.43830 0.81932 0.94542 0.00100
C 	C 	0.29274 0.04163 0.06406 -0.00100
C 	C 	0.28742 0.99695 0.09064 0.41900
C 	C 	0.28506 0.02205 0.06782 -0.10200
C 	C 	0.27678 0.02610 0.04855 -0.00100
C 	C 	0.38611 0.98201 0.08703 -0.00200
C 	C 	0.36196 0.95039 0.10596 0.42000
C 	C 	0.38640 0.95760 0.09130 -0.10100
C 	C 	0.40915 0.98848 0.07319 -0.00000
C 	C 	0.45770 0.97801 0.04690 0.42200
C 	C 	0.43328 0.97073 0.06325 -0.10300
C 	C 	0.41057 0.93984 0.08149 -0.00100
C 	C 	0.43353 0.94626 0.06778 -0.00000
C 	C 	0.47788 0.92736 0.96575 -0.00700
C 	C 	0.48724 0.93637 0.97480 0.01500
C 	C 	0.35050 0.00806 0.92776 0.00300
C 	C 	0.39300 0.97696 0.90834 0.43900
C 	C 	0.37631 0.00328 0.91028 -0.11300
C 	C 	0.33577 0.03250 0.93111 0.00300
C 	C 	0.32862 0.91743 0.17204 0.44200
C 	C 	0.34661 0.05253 0.91701 -0.11400
C 	C 	0.38669 0.02362 0.89562 0.00300
C 	C 	0.37206 0.04787 0.89889 0.00400
O 	O 	0.63876 0.78897 0.82441 -0.54100
O 	O 	0.47735 0.88117 0.91673 -0.53600
O 	O 	0.58630 0.80648 0.84199 -0.53600
O 	O 	0.43680 0.86630 0.94363 -0.53000
O 	O 	0.40227 0.93031 0.88918 -0.53400
O 	O 	0.29648 0.99374 0.10659 -0.52400
O 	O 	0.27054 0.96902 0.15715 -0.52200
O 	O 	0.34063 0.96610 0.11604 -0.52200
O 	O 	0.36353 0.92851 0.10795 -0.52200
O 	O 	0.45664 0.00073 0.04203 -0.52400
O 	O 	0.47857 0.96133 0.03782 -0.52700
O 	O 	0.45860 0.91074 0.94621 -0.52500
O 	O 	0.50396 0.95654 0.99199 -0.53200
O 	O 	0.38238 0.95984 0.91888 -0.53600
O 	O 	0.41736 0.89668 0.97254 -0.53600
O 	O 	0.31492 0.94145 0.16590 -0.53000
O 	O 	0.34586 0.91093 0.09263 -0.54700
H 	H 	0.67253 0.77378 0.84271 0.03500
H 	H 	0.51485 0.84083 0.90963 0.03600
H 	H 	0.55251 0.81471 0.88351 0.03600
H 	H 	0.38423 0.86305 0.92826 0.03700
H 	H 	0.45366 0.81764 0.95001 0.03600
H 	H 	0.29936 0.03939 0.07824 0.03700
H 	H 	0.27082 0.01158 0.05050 0.03600
H 	H 	0.36801 0.99626 0.09421 0.03600
H 	H 	0.40797 0.00759 0.07002 0.03600
H 	H 	0.41181 0.92083 0.08433 0.03700
H 	H 	0.45151 0.93203 0.06039 0.03700
H 	H 	0.47439 0.90893 0.97758 0.03800
H 	H 	0.49049 0.92451 0.99335 0.03300
H 	H 	0.34198 0.99270 0.93941 0.03700
H 	H 	0.31624 0.03548 0.94517 0.03600
H 	H 	0.40637 0.02072 0.88186 0.03500
H 	H 	0.38102 0.06289 0.88740 0.03500
Cr	Cr	0.13577 0.59230 0.30577 1.57400
Cr	Cr	0.94344 0.71966 0.44652 1.58000
C 	C 	0.82760 0.70277 0.68056 0.01200
C 	C 	0.88898 0.73753 0.52304 0.00300
C 	C 	0.87397 0.74597 0.54461 0.00400
C 	C 	0.93321 0.82254 0.39946 0.00200
C 	C 	0.93773 0.77511 0.41937 0.43400
C 	C 	0.93911 0.79833 0.41896 -0.10900
C 	C 	0.94542 0.79696 0.43830 0.00200
C 	C 	0.06406 0.60157 0.29274 -0.00100
C 	C 	0.09064 0.62499 0.28742 0.42000
C 	C 	0.06782 0.62506 0.28506 -0.10100
C 	C 	0.04855 0.64857 0.27678 -0.00100
C 	C 	0.08703 0.54484 0.38611 -0.00100
C 	C 	0.10596 0.58169 0.36196 0.42000
C 	C 	0.09130 0.56470 0.38640 -0.10200
C 	C 	0.07319 0.52917 0.40915 -0.00100
C 	C 	0.04690 0.51739 0.45770 0.42100
C 	C 	0.06325 0.53274 0.43328 -0.10200
C 	C 	0.08149 0.56810 0.41057 -0.00100
C 	C 	0.06778 0.55243 0.43353 -0.00100
C 	C 	0.96575 0.62901 0.47788 -0.00700
C 	C 	0.97480 0.60159 0.48724 0.01500
C 	C 	0.92776 0.71368 0.35050 0.00300
C 	C 	0.90834 0.72170 0.39300 0.43900
C 	C 	0.91028 0.71013 0.37631 -0.11300
C 	C 	0.93111 0.70062 0.33577 0.00300
C 	C 	0.17204 0.58192 0.32862 0.44100
C 	C 	0.91701 0.68385 0.34661 -0.11400
C 	C 	0.89562 0.69408 0.38669 0.00300
C 	C 	0.89889 0.68119 0.37206 0.00400
O 	O 	0.82441 0.74786 0.63876 -0.54100
O 	O 	0.91673 0.72475 0.47735 -0.53600
O 	O 	0.84199 0.76523 0.58630 -0.53500
O 	O 	0.94363 0.75327 0.43680 -0.52900
O 	O 	0.88918 0.77824 0.40227 -0.53400
O 	O 	0.10659 0.60319 0.29648 -0.52500
O 	O 	0.15715 0.60330 0.27054 -0.52300
O 	O 	0.11604 0.57723 0.34063 -0.52200
O 	O 	0.10795 0.60000 0.36353 -0.52300
O 	O 	0.04203 0.50060 0.45664 -0.52300
O 	O 	0.03782 0.52229 0.47857 -0.52600
O 	O 	0.94621 0.68444 0.45860 -0.52500
O 	O 	0.99199 0.54751 0.50396 -0.53200
O 	O 	0.91888 0.73889 0.38238 -0.53600
O 	O 	0.97254 0.71343 0.41736 -0.53600
O 	O 	0.16590 0.57773 0.31492 -0.53000
O 	O 	0.09263 0.65057 0.34586 -0.54700
H 	H 	0.84271 0.71098 0.67253 0.03500
H 	H 	0.90963 0.73468 0.51485 0.03600
H 	H 	0.88351 0.74927 0.55251 0.03600
H 	H 	0.92826 0.82446 0.38423 0.03700
H 	H 	0.95001 0.77869 0.45366 0.03600
H 	H 	0.07824 0.58302 0.29936 0.03700
H 	H 	0.05050 0.66710 0.27082 0.03700
H 	H 	0.09421 0.54151 0.36801 0.03600
H 	H 	0.07002 0.51443 0.40797 0.03600
H 	H 	0.08433 0.58302 0.41181 0.03700
H 	H 	0.06039 0.55606 0.45151 0.03700
H 	H 	0.97758 0.63910 0.47439 0.03800
H 	H 	0.99335 0.59165 0.49049 0.03300
H 	H 	0.93941 0.72592 0.34198 0.03700
H 	H 	0.94517 0.70310 0.31624 0.03600
H 	H 	0.88186 0.69105 0.40637 0.03500
H 	H 	0.88740 0.66869 0.38102 0.03500
Cr	Cr	0.96616 0.30577 0.59230 1.57400
Cr	Cr	0.89037 0.44652 0.71966 1.58000
C 	C 	0.78908 0.68056 0.70277 0.01200
C 	C 	0.85045 0.52304 0.73753 0.00300
C 	C 	0.83545 0.54461 0.74597 0.00400
C 	C 	0.84479 0.39946 0.82254 0.00200
C 	C 	0.86780 0.41937 0.77511 0.43400
C 	C 	0.84359 0.41896 0.79833 -0.10900
C 	C 	0.81932 0.43830 0.79696 0.00200
C 	C 	0.04163 0.29274 0.60157 -0.00100
C 	C 	0.99695 0.28742 0.62499 0.42000
C 	C 	0.02205 0.28506 0.62506 -0.10200
C 	C 	0.02610 0.27678 0.64857 -0.00100
C 	C 	0.98201 0.38611 0.54484 -0.00100
C 	C 	0.95039 0.36196 0.58169 0.42000
C 	C 	0.95760 0.38640 0.56470 -0.10200
C 	C 	0.98848 0.40915 0.52917 -0.00000
C 	C 	0.97801 0.45770 0.51739 0.42200
C 	C 	0.97073 0.43328 0.53274 -0.10300
C 	C 	0.93984 0.41057 0.56810 -0.00100
C 	C 	0.94626 0.43353 0.55243 -0.00000
C 	C 	0.92736 0.47788 0.62901 -0.00700
C 	C 	0.93637 0.48724 0.60159 0.01500
C 	C 	0.00806 0.35050 0.71368 0.00300
C 	C 	0.97696 0.39300 0.72170 0.43900
C 	C 	0.00328 0.37631 0.71013 -0.11300
C 	C 	0.03250 0.33577 0.70062 0.00300
C 	C 	0.91743 0.32862 0.58192 0.44100
C 	C 	0.05253 0.34661 0.68385 -0.11400
C 	C 	0.02362 0.38669 0.69408 0.00300
C 	C 	0.04787 0.37206 0.68119 0.00400
O 	O 	0.78897 0.63876 0.74786 -0.54100
O 	O 	0.88117 0.47735 0.72475 -0.53600
O 	O 	0.80648 0.58630 0.76523 -0.53600
O 	O 	0.86630 0.43680 0.75327 -0.52900
O 	O 	0.93031 0.40227 0.77824 -0.53400
O 	O 	0.99374 0.29648 0.60319 -0.52500
O 	O 	0.96902 0.27054 0.60330 -0.52300
O 	O 	0.96610 0.34063 0.57723 -0.52200
O 	O 	0.92851 0.36353 0.60000 -0.52200
O 	O 	0.00073 0.45664 0.50060 -0.52400
O 	O 	0.96133 0.47857 0.52229 -0.52700
O 	O 	0.91074 0.45860 0.68444 -0.52500
O 	O 	0.95654 0.50396 0.54751 -0.53200
O 	O 	0.95984 0.38238 0.73889 -0.53600
O 	O 	0.89668 0.41736 0.71343 -0.53600
O 	O 	0.94145 0.31492 0.57773 -0.53000
O 	O 	0.91093 0.34586 0.65057 -0.54700
H 	H 	0.77378 0.67253 0.71098 0.03500
H 	H 	0.84083 0.51485 0.73468 0.03600
H 	H 	0.81471 0.55251 0.74927 0.03600
H 	H 	0.86305 0.38423 0.82446 0.03700
H 	H 	0.81764 0.45366 0.77869 0.03600
H 	H 	0.03939 0.29936 0.58302 0.03700
H 	H 	0.01158 0.27082 0.66710 0.03600
H 	H 	0.99626 0.36801 0.54151 0.03600
H 	H 	0.00759 0.40797 0.51443 0.03600
H 	H 	0.92083 0.41181 0.58302 0.03700
H 	H 	0.93203 0.45151 0.55606 0.03700
H 	H 	0.90893 0.47439 0.63910 0.03800
H 	H 	0.92451 0.49049 0.59165 0.03300
H 	H 	0.99270 0.34198 0.72592 0.03700
H 	H 	0.03548 0.31624 0.70310 0.03600
H 	H 	0.02072 0.40637 0.69105 0.03500
H 	H 	0.06289 0.38102 0.66869 0.03500
Cr	Cr	0.96616 0.59230 0.13577 1.57400
Cr	Cr	0.89037 0.71966 0.94344 1.58000
C 	C 	0.78908 0.70277 0.82760 0.01200
C 	C 	0.85045 0.73753 0.88898 0.00300
C 	C 	0.83545 0.74597 0.87397 0.00300
C 	C 	0.84479 0.82254 0.93321 0.00200
C 	C 	0.86780 0.77511 0.93773 0.43400
C 	C 	0.84359 0.79833 0.93911 -0.10900
C 	C 	0.81932 0.79696 0.94542 0.00200
C 	C 	0.04163 0.60157 0.06406 -0.00100
C 	C 	0.99695 0.62499 0.09064 0.42000
C 	C 	0.02205 0.62506 0.06782 -0.10200
C 	C 	0.02610 0.64857 0.04855 -0.00100
C 	C 	0.98201 0.54484 0.08703 -0.00200
C 	C 	0.95039 0.58169 0.10596 0.42000
C 	C 	0.95760 0.56470 0.09130 -0.10100
C 	C 	0.98848 0.52917 0.07319 -0.00000
C 	C 	0.97801 0.51739 0.04690 0.42200
C 	C 	0.97073 0.53274 0.06325 -0.10300
C 	C 	0.93984 0.56810 0.08149 -0.00100
C 	C 	0.94626 0.55243 0.06778 -0.00000
C 	C 	0.92736 0.62901 0.96575 -0.00700
C 	C 	0.93637 0.60159 0.97480 0.01500
C 	C 	0.00806 0.71368 0.92776 0.00300
C 	C 	0.97696 0.72170 0.90834 0.44000
C 	C 	0.00328 0.71013 0.91028 -0.11400
C 	C 	0.03250 0.70062 0.93111 0.00300
C 	C 	0.91743 0.58192 0.17204 0.44200
C 	C 	0.05253 0.68385 0.91701 -0.11400
C 	C 	0.02362 0.69408 0.89562 0.00300
C 	C 	0.04787 0.68119 0.89889 0.00400
O 	O 	0.78897 0.74786 0.82441 -0.54100
O 	O 	0.88117 0.72475 0.91673 -0.53600
O 	O 	0.80648 0.76523 0.84199 -0.53600
O 	O 	0.86630 0.75327 0.94363 -0.52900
O 	O 	0.93031 0.77824 0.88918 -0.53400
O 	O 	0.99374 0.60319 0.10659 -0.52500
O 	O 	0.96902 0.60330 0.15715 -0.52300
O 	O 	0.96610 0.57723 0.11604 -0.52200
O 	O 	0.92851 0.60000 0.10795 -0.52200
O 	O 	0.00073 0.50060 0.04203 -0.52400
O 	O 	0.96133 0.52229 0.03782 -0.52700
O 	O 	0.91074 0.68444 0.94621 -0.52500
O 	O 	0.95654 0.54751 0.99199 -0.53200
O 	O 	0.95984 0.73889 0.91888 -0.53600
O 	O 	0.89668 0.71343 0.97254 -0.53600
O 	O 	0.94145 0.57773 0.16590 -0.53000
O 	O 	0.91093 0.65057 0.09263 -0.54700
H 	H 	0.77378 0.71098 0.84271 0.03500
H 	H 	0.84083 0.73468 0.90963 0.03600
H 	H 	0.81471 0.74927 0.88351 0.03600
H 	H 	0.86305 0.82446 0.92826 0.03700
H 	H 	0.81764 0.77869 0.95001 0.03600
H 	H 	0.03939 0.58302 0.07824 0.03700
H 	H 	0.01158 0.66710 0.05050 0.03600
H 	H 	0.99626 0.54151 0.09421 0.03600
H 	H 	0.00759 0.51443 0.07002 0.03600
H 	H 	0.92083 0.58302 0.08433 0.03700
H 	H 	0.93203 0.55606 0.06039 0.03700
H 	H 	0.90893 0.63910 0.97758 0.03800
H 	H 	0.92451 0.59165 0.99335 0.03300
H 	H 	0.99270 0.72592 0.93941 0.03700
H 	H 	0.03548 0.70310 0.94517 0.03600
H 	H 	0.02072 0.69105 0.88186 0.03500
H 	H 	0.06289 0.66869 0.88740 0.03500
Cr	Cr	0.13577 0.30577 0.96616 1.57400
Cr	Cr	0.94344 0.44652 0.89037 1.58000
C 	C 	0.82760 0.68056 0.78908 0.01200
C 	C 	0.88898 0.52304 0.85045 0.00300
C 	C 	0.87397 0.54461 0.83545 0.00400
C 	C 	0.93321 0.39946 0.84479 0.00200
C 	C 	0.93773 0.41937 0.86780 0.43400
C 	C 	0.93911 0.41896 0.84359 -0.10900
C 	C 	0.94542 0.43830 0.81932 0.00100
C 	C 	0.06406 0.29274 0.04163 -0.00100
C 	C 	0.09064 0.28742 0.99695 0.41900
C 	C 	0.06782 0.28506 0.02205 -0.10200
C 	C 	0.04855 0.27678 0.02610 -0.00100
C 	C 	0.08703 0.38611 0.98201 -0.00200
C 	C 	0.10596 0.36196 0.95039 0.42000
C 	C 	0.09130 0.38640 0.95760 -0.10100
C 	C 	0.07319 0.40915 0.98848 -0.00000
C 	C 	0.04690 0.45770 0.97801 0.42200
C 	C 	0.06325 0.43328 0.97073 -0.10300
C 	C 	0.08149 0.41057 0.93984 -0.00100
C 	C 	0.06778 0.43353 0.94626 -0.00000
C 	C 	0.96575 0.47788 0.92736 -0.00700
C 	C 	0.97480 0.48724 0.93637 0.01500
C 	C 	0.92776 0.35050 0.00806 0.00300
C 	C 	0.90834 0.39300 0.97696 0.43900
C 	C 	0.91028 0.37631 0.00328 -0.11300
C 	C 	0.93111 0.33577 0.03250 0.00300
C 	C 	0.17204 0.32862 0.91743 0.44200
C 	C 	0.91701 0.34661 0.05253 -0.11400
C 	C 	0.89562 0.38669 0.02362 0.00300
C 	C 	0.89889 0.37206 0.04787 0.00400
O 	O 	0.82441 0.63876 0.78897 -0.54100
O 	O 	0.91673 0.47735 0.88117 -0.53600
O 	O 	0.84199 0.58630 0.80648 -0.53600
O 	O 	0.94363 0.43680 0.86630 -0.53000
O 	O 	0.88918 0.40227 0.93031 -0.53400
O 	O 	0.10659 0.29648 0.99374 -0.52400
O 	O 	0.15715 0.27054 0.96902 -0.52200
O 	O 	0.11604 0.34063 0.96610 -0.52200
O 	O 	0.10795 0.36353 0.92851 -0.52200
O 	O 	0.04203 0.45664 0.00073 -0.52400
O 	O 	0.03782 0.47857 0.96133 -0.52700
O 	O 	0.94621 0.45860 0.91074 -0.52500
O 	O 	0.99199 0.50396 0.95654 -0.53200
O 	O 	0.91888 0.38238 0.95984 -0.53600
O 	O 	0.97254 0.41736 0.89668 -0.53600
O 	O 	0.16590 0.31492 0.94145 -0.53000
O 	O 	0.09263 0.34586 0.91093 -0.54700
H 	H 	0.84271 0.67253 0.77378 0.03500
H 	H 	0.90963 0.51485 0.84083 0.03600
H 	H 	0.88351 0.55251 0.81471 0.03600
H 	H 	0.92826 0.38423 0.86305 0.03700
H 	H 	0.95001 0.45366 0.81764 0.03600
H 	H 	0.07824 0.29936 0.03939 0.03700
H 	H 	0.05050 0.27082 0.01158 0.03600
H 	H 	0.09421 0.36801 0.99626 0.03600
H 	H 	0.07002 0.40797 0.00759 0.03600
H 	H 	0.08433 0.41181 0.92083 0.03700
H 	H 	0.06039 0.45151 0.93203 0.03700
H 	H 	0.97758 0.47439 0.90893 0.03800
H 	H 	0.99335 0.49049 0.92451 0.03300
H 	H 	0.93941 0.34198 0.99270 0.03700
H 	H 	0.94517 0.31624 0.03548 0.03600
H 	H 	0.88186 0.40637 0.02072 0.03500
H 	H 	0.88740 0.38102 0.06289 0.03500
Cr	Cr	0.30577 0.13577 0.59230 1.57400
Cr	Cr	0.44652 0.94344 0.71966 1.58000
C 	C 	0.68056 0.82760 0.70277 0.01200
C 	C 	0.52304 0.88898 0.73753 0.00300
C 	C 	0.54461 0.87397 0.74597 0.00400
C 	C 	0.39946 0.93321 0.82254 0.00200
C 	C 	0.41937 0.93773 0.77511 0.43400
C 	C 	0.41896 0.93911 0.79833 -0.10900
C 	C 	0.43830 0.94542 0.79696 0.00200
C 	C 	0.29274 0.06406 0.60157 -0.00100
C 	C 	0.28742 0.09064 0.62499 0.42000
C 	C 	0.28506 0.06782 0.62506 -0.10100
C 	C 	0.27678 0.04855 0.64857 -0.00100
C 	C 	0.38611 0.08703 0.54484 -0.00100
C 	C 	0.36196 0.10596 0.58169 0.42000
C 	C 	0.38640 0.09130 0.56470 -0.10200
C 	C 	0.40915 0.07319 0.52917 -0.00100
C 	C 	0.45770 0.04690 0.51739 0.42100
C 	C 	0.43328 0.06325 0.53274 -0.10200
C 	C 	0.41057 0.08149 0.56810 -0.00100
C 	C 	0.43353 0.06778 0.55243 -0.00100
C 	C 	0.47788 0.96575 0.62901 -0.00700
C 	C 	0.48724 0.97480 0.60159 0.01500
C 	C 	0.35050 0.92776 0.71368 0.00300
C 	C 	0.39300 0.90834 0.72170 0.43900
C 	C 	0.37631 0.91028 0.71013 -0.11300
C 	C 	0.33577 0.93111 0.70062 0.00300
C 	C 	0.32862 0.17204 0.58192 0.44100
C 	C 	0.34661 0.91701 0.68385 -0.11400
C 	C 	0.38669 0.89562 0.69408 0.00300
C 	C 	0.37206 0.89889 0.68119 0.00400
O 	O 	0.63876 0.82441 0.74786 -0.54100
O 	O 	0.47735 0.91673 0.72475 -0.53600
O 	O 	0.58630 0.84199 0.76523 -0.53500
O 	O 	0.43680 0.94363 0.75327 -0.52900
O 	O 	0.40227 0.88918 0.77824 -0.53400
O 	O 	0.29648 0.10659 0.60319 -0.52500
O 	O 	0.27054 0.15715 0.60330 -0.52300
O 	O 	0.34063 0.11604 0.57723 -0.52200
O 	O 	0.36353 0.10795 0.60000 -0.52300
O 	O 	0.45664 0.04203 0.50060 -0.52300
O 	O 	0.47857 0.03782 0.52229 -0.52600
O 	O 	0.45860 0.94621 0.68444 -0.52500
O 	O 	0.50396 0.99199 0.54751 -0.53200
O 	O 	0.38238 0.91888 0.73889 -0.53600
O 	O 	0.41736 0.97254 0.71343 -0.53600
O 	O 	0.31492 0.16590 0.57773 -0.53000
O 	O 	0.34586 0.09263 0.65057 -0.54700
H 	H 	0.67253 0.84271 0.71098 0.03500
H 	H 	0.51485 0.90963 0.73468 0.03600
H 	H 	0.55251 0.88351 0.74927 0.03600
H 	H 	0.38423 0.92826 0.82446 0.03700
H 	H 	0.45366 0.95001 0.77869 0.03600
H 	H 	0.29936 0.07824 0.58302 0.03700
H 	H 	0.27082 0.05050 0.66710 0.03700
H 	H 	0.36801 0.09421 0.54151 0.03600
H 	H 	0.40797 0.07002 0.51443 0.03600
H 	H 	0.41181 0.08433 0.58302 0.03700
H 	H 	0.45151 0.06039 0.55606 0.03700
H 	H 	0.47439 0.97758 0.63910 0.03800
H 	H 	0.49049 0.99335 0.59165 0.03300
H 	H 	0.34198 0.93941 0.72592 0.03700
H 	H 	0.31624 0.94517 0.70310 0.03600
H 	H 	0.40637 0.88186 0.69105 0.03500
H 	H 	0.38102 0.88740 0.66869 0.03500
Cr	Cr	0.59230 0.96616 0.30577 1.57400
Cr	Cr	0.71966 0.89037 0.44652 1.58000
C 	C 	0.70277 0.78908 0.68056 0.01200
C 	C 	0.73753 0.85045 0.52304 0.00300
C 	C 	0.74597 0.83545 0.54461 0.00400
C 	C 	0.82254 0.84479 0.39946 0.00200
C 	C 	0.77511 0.86780 0.41937 0.43400
C 	C 	0.79833 0.84359 0.41896 -0.10900
C 	C 	0.79696 0.81932 0.43830 0.00200
C 	C 	0.60157 0.04163 0.29274 -0.00100
C 	C 	0.62499 0.99695 0.28742 0.42000
C 	C 	0.62506 0.02205 0.28506 -0.10200
C 	C 	0.64857 0.02610 0.27678 -0.00100
C 	C 	0.54484 0.98201 0.38611 -0.00100
C 	C 	0.58169 0.95039 0.36196 0.42000
C 	C 	0.56470 0.95760 0.38640 -0.10200
C 	C 	0.52917 0.98848 0.40915 -0.00000
C 	C 	0.51739 0.97801 0.45770 0.42200
C 	C 	0.53274 0.97073 0.43328 -0.10300
C 	C 	0.56810 0.93984 0.41057 -0.00100
C 	C 	0.55243 0.94626 0.43353 -0.00000
C 	C 	0.62901 0.92736 0.47788 -0.00700
C 	C 	0.60159 0.93637 0.48724 0.01500
C 	C 	0.71368 0.00806 0.35050 0.00300
C 	C 	0.72170 0.97696 0.39300 0.43900
C 	C 	0.71013 0.00328 0.37631 -0.11300
C 	C 	0.70062 0.03250 0.33577 0.00300
C 	C 	0.58192 0.91743 0.32862 0.44100
C 	C 	0.68385 0.05253 0.34661 -0.11400
C 	C 	0.69408 0.02362 0.38669 0.00300
C 	C 	0.68119 0.04787 0.37206 0.00400
O 	O 	0.74786 0.78897 0.63876 -0.54100
O 	O 	0.72475 0.88117 0.47735 -0.53600
O 	O 	0.76523 0.80648 0.58630 -0.53600
O 	O 	0.75327 0.86630 0.43680 -0.52900
O 	O 	0.77824 0.93031 0.40227 -0.53400
O 	O 	0.60319 0.99374 0.29648 -0.52500
O 	O 	0.60330 0.96902 0.27054 -0.52300
O 	O 	0.57723 0.96610 0.34063 -0.52200
O 	O 	0.60000 0.92851 0.36353 -0.52200
O 	O 	0.50060 0.00073 0.45664 -0.52400
O 	O 	0.52229 0.96133 0.47857 -0.52700
O 	O 	0.68444 0.91074 0.45860 -0.52500
O 	O 	0.54751 0.95654 0.50396 -0.53200
O 	O 	0.73889 0.95984 0.38238 -0.53600
O 	O 	0.71343 0.89668 0.41736 -0.53600
O 	O 	0.57773 0.94145 0.31492 -0.53000
O 	O 	0.65057 0.91093 0.34586 -0.54700
H 	H 	0.71098 0.77378 0.67253 0.03500
H 	H 	0.73468 0.84083 0.51485 0.03600
H 	H 	0.74927 0.81471 0.55251 0.03600
H 	H 	0.82446 0.86305 0.38423 0.03700
H 	H 	0.77869 0.81764 0.45366 0.03600
H 	H 	0.58302 0.03939 0.29936 0.03700
H 	H 	0.66710 0.01158 0.27082 0.03600
H 	H 	0.54151 0.99626 0.36801 0.03600
H 	H 	0.51443 0.00759 0.40797 0.03600
H 	H 	0.58302 0.92083 0.41181 0.03700
H 	H 	0.55606 0.93203 0.45151 0.03700
H 	H 	0.63910 0.90893 0.47439 0.03800
H 	H 	0.59165 0.92451 0.49049 0.03300
H 	H 	0.72592 0.99270 0.34198 0.03700
H 	H 	0.70310 0.03548 0.31624 0.03600
H 	H 	0.69105 0.02072 0.40637 0.03500
H 	H 	0.66869 0.06289 0.38102 0.03500
Cr	Cr	0.11423 0.28384 0.94423 1.57400
Cr	Cr	0.30656 0.35963 0.80348 1.58000
C 	C 	0.42240 0.46092 0.56944 0.01200
C 	C 	0.36102 0.39955 0.72696 0.00300
C 	C 	0.37603 0.41455 0.70539 0.00400
C 	C 	0.31679 0.40521 0.85054 0.00200
C 	C 	0.31227 0.38220 0.83063 0.43400
C 	C 	0.31089 0.40641 0.83104 -0.10900
C 	C 	0.30458 0.43068 0.81170 0.00100
C 	C 	0.18594 0.20837 0.95726 -0.00100
C 	C 	0.15936 0.25305 0.96258 0.41900
C 	C 	0.18218 0.22795 0.96494 -0.10100
C 	C 	0.20145 0.22390 0.97322 -0.00100
C 	C 	0.16297 0.26799 0.86389 -0.00100
C 	C 	0.14404 0.29961 0.88804 0.42000
C 	C 	0.15870 0.29240 0.86360 -0.10200
C 	C 	0.17681 0.26152 0.84085 -0.00100
C 	C 	0.20310 0.27199 0.79230 0.42200
C 	C 	0.18675 0.27927 0.81672 -0.10300
C 	C 	0.16851 0.31016 0.83943 -0.00100
C 	C 	0.18222 0.30374 0.81647 -0.00100
C 	C 	0.28425 0.32264 0.77212 -0.00700
C 	C 	0.27520 0.31363 0.76276 0.01500
C 	C 	0.32224 0.24194 0.89950 0.00300
C 	C 	0.34166 0.27304 0.85700 0.43900
C 	C 	0.33972 0.24672 0.87369 -0.11300
C 	C 	0.31889 0.21750 0.91423 0.00300
C 	C 	0.07796 0.33257 0.92138 0.44200
C 	C 	0.33299 0.19747 0.90339 -0.11400
C 	C 	0.35438 0.22638 0.86331 0.00300
C 	C 	0.35111 0.20213 0.87794 0.00500
O 	O 	0.42559 0.46103 0.61124 -0.54100
O 	O 	0.33327 0.36883 0.77265 -0.53600
O 	O 	0.40801 0.44352 0.66370 -0.53600
O 	O 	0.30637 0.38370 0.81320 -0.53000
O 	O 	0.36082 0.31969 0.84773 -0.53400
O 	O 	0.14341 0.25626 0.95352 -0.52400
O 	O 	0.09285 0.28098 0.97946 -0.52300
O 	O 	0.13396 0.28390 0.90937 -0.52200
O 	O 	0.14205 0.32149 0.88647 -0.52200
O 	O 	0.20797 0.24927 0.79336 -0.52300
O 	O 	0.21218 0.28867 0.77143 -0.52700
O 	O 	0.30379 0.33926 0.79140 -0.52500
O 	O 	0.25801 0.29346 0.74604 -0.53200
O 	O 	0.33112 0.29016 0.86762 -0.53600
O 	O 	0.27746 0.35332 0.83264 -0.53600
O 	O 	0.08410 0.30855 0.93508 -0.53000
O 	O 	0.15737 0.33907 0.90414 -0.54700
H 	H 	0.40729 0.47622 0.57747 0.03500
H 	H 	0.34037 0.40917 0.73515 0.03600
H 	H 	0.36649 0.43529 0.69749 0.03600
H 	H 	0.32174 0.38695 0.86577 0.03700
H 	H 	0.29999 0.43236 0.79634 0.03600
H 	H 	0.17176 0.21061 0.95064 0.03700
H 	H 	0.19950 0.23842 0.97918 0.03700
H 	H 	0.15579 0.25374 0.88199 0.03600
H 	H 	0.17998 0.24241 0.84203 0.03600
H 	H 	0.16567 0.32917 0.83819 0.03700
H 	H 	0.18961 0.31797 0.79849 0.03700
H 	H 	0.27242 0.34107 0.77561 0.03800
H 	H 	0.25665 0.32549 0.75951 0.03300
H 	H 	0.31059 0.25730 0.90802 0.03700
H 	H 	0.30483 0.21452 0.93376 0.03600
H 	H 	0.36814 0.22928 0.84363 0.03500
H 	H 	0.36260 0.18711 0.86898 0.03500
Cr	Cr	0.28384 0.11423 0.65770 1.57400
Cr	Cr	0.35963 0.30656 0.53034 1.58000
C 	C 	0.46092 0.42240 0.54723 0.01200
C 	C 	0.39955 0.36102 0.51247 0.00300
C 	C 	0.41455 0.37603 0.50403 0.00300
C 	C 	0.40521 0.31679 0.42746 0.00200
C 	C 	0.38220 0.31227 0.47489 0.43400
C 	C 	0.40641 0.31089 0.45167 -0.10900
C 	C 	0.43068 0.30458 0.45304 0.00200
C 	C 	0.20837 0.18594 0.64843 -0.00100
C 	C 	0.25305 0.15936 0.62501 0.42000
C 	C 	0.22795 0.18218 0.62494 -0.10100
C 	C 	0.22390 0.20145 0.60143 -0.00100
C 	C 	0.26799 0.16297 0.70516 -0.00100
C 	C 	0.29961 0.14404 0.66831 0.42000
C 	C 	0.29240 0.15870 0.68530 -0.10100
C 	C 	0.26152 0.17681 0.72083 -0.00100
C 	C 	0.27199 0.20310 0.73261 0.42200
C 	C 	0.27927 0.18675 0.71726 -0.10300
C 	C 	0.31016 0.16851 0.68190 -0.00100
C 	C 	0.30374 0.18222 0.69757 -0.00000
C 	C 	0.32264 0.28425 0.62099 -0.00700
C 	C 	0.31363 0.27520 0.64841 0.01500
C 	C 	0.24194 0.32224 0.53632 0.00300
C 	C 	0.27304 0.34166 0.52830 0.44000
C 	C 	0.24672 0.33972 0.53987 -0.11300
C 	C 	0.21750 0.31889 0.54938 0.00300
C 	C 	0.33257 0.07796 0.66808 0.44200
C 	C 	0.19747 0.33299 0.56615 -0.11400
C 	C 	0.22638 0.35438 0.55592 0.00300
C 	C 	0.20213 0.35111 0.56881 0.00400
O 	O 	0.46103 0.42559 0.50214 -0.54100
O 	O 	0.36883 0.33327 0.52525 -0.53600
O 	O 	0.44352 0.40801 0.48477 -0.53600
O 	O 	0.38370 0.30637 0.49673 -0.52900
O 	O 	0.31969 0.36082 0.47176 -0.53400
O 	O 	0.25626 0.14341 0.64681 -0.52500
O 	O 	0.28098 0.09285 0.64670 -0.52300
O 	O 	0.28390 0.13396 0.67277 -0.52200
O 	O 	0.32149 0.14205 0.65000 -0.52200
O 	O 	0.24927 0.20797 0.74940 -0.52400
O 	O 	0.28867 0.21218 0.72771 -0.52600
O 	O 	0.33926 0.30379 0.56556 -0.52500
O 	O 	0.29346 0.25801 0.70249 -0.53200
O 	O 	0.29016 0.33112 0.51111 -0.53600
O 	O 	0.35332 0.27746 0.53657 -0.53600
O 	O 	0.30855 0.08410 0.67227 -0.53000
O 	O 	0.33907 0.15737 0.59943 -0.54700
H 	H 	0.47622 0.40729 0.53902 0.03500
H 	H 	0.40917 0.34037 0.51532 0.03600
H 	H 	0.43529 0.36649 0.50073 0.03600
H 	H 	0.38695 0.32174 0.42554 0.03700
H 	H 	0.43236 0.29999 0.47131 0.03600
H 	H 	0.21061 0.17176 0.66698 0.03700
H 	H 	0.23842 0.19950 0.58290 0.03600
H 	H 	0.25374 0.15579 0.70849 0.03600
H 	H 	0.24241 0.17998 0.73557 0.03600
H 	H 	0.32917 0.16567 0.66698 0.03700
H 	H 	0.31797 0.18961 0.69394 0.03700
H 	H 	0.34107 0.27242 0.61090 0.03800
H 	H 	0.32549 0.25665 0.65835 0.03300
H 	H 	0.25730 0.31059 0.52408 0.03700
H 	H 	0.21452 0.30483 0.54690 0.03600
H 	H 	0.22928 0.36814 0.55895 0.03500
H 	H 	0.18711 0.36260 0.58131 0.03500
Cr	Cr	0.65770 0.94423 0.28384 1.57400
Cr	Cr	0.53034 0.80348 0.35963 1.58000
C 	C 	0.54723 0.56944 0.46092 0.01200
C 	C 	0.51247 0.72696 0.39955 0.00300
C 	C 	0.50403 0.70539 0.41455 0.00400
C 	C 	0.42746 0.85054 0.40521 0.00200
C 	C 	0.47489 0.83063 0.38220 0.43400
C 	C 	0.45167 0.83104 0.40641 -0.10900
C 	C 	0.45304 0.81170 0.43068 0.00200
C 	C 	0.64843 0.95726 0.20837 -0.00100
C 	C 	0.62501 0.96258 0.25305 0.42000
C 	C 	0.62494 0.96494 0.22795 -0.10100
C 	C 	0.60143 0.97322 0.22390 -0.00100
C 	C 	0.70516 0.86389 0.26799 -0.00100
C 	C 	0.66831 0.88804 0.29961 0.42000
C 	C 	0.68530 0.86360 0.29240 -0.10200
C 	C 	0.72083 0.84085 0.26152 -0.00100
C 	C 	0.73261 0.79230 0.27199 0.42100
C 	C 	0.71726 0.81672 0.27927 -0.10300
C 	C 	0.68190 0.83943 0.31016 -0.00100
C 	C 	0.69757 0.81647 0.30374 -0.00100
C 	C 	0.62099 0.77212 0.32264 -0.00700
C 	C 	0.64841 0.76276 0.31363 0.01500
C 	C 	0.53632 0.89950 0.24194 0.00300
C 	C 	0.52830 0.85700 0.27304 0.43900
C 	C 	0.53987 0.87369 0.24672 -0.11300
C 	C 	0.54938 0.91423 0.21750 0.00300
C 	C 	0.66808 0.92138 0.33257 0.44100
C 	C 	0.56615 0.90339 0.19747 -0.11400
C 	C 	0.55592 0.86331 0.22638 0.00300
C 	C 	0.56881 0.87794 0.20213 0.00400
O 	O 	0.50214 0.61124 0.46103 -0.54100
O 	O 	0.52525 0.77265 0.36883 -0.53600
O 	O 	0.48477 0.66370 0.44352 -0.53600
O 	O 	0.49673 0.81320 0.38370 -0.52900
O 	O 	0.47176 0.84773 0.31969 -0.53400
O 	O 	0.64681 0.95352 0.25626 -0.52500
O 	O 	0.64670 0.97946 0.28098 -0.52300
O 	O 	0.67277 0.90937 0.28390 -0.52200
O 	O 	0.65000 0.88647 0.32149 -0.52300
O 	O 	0.74940 0.79336 0.24927 -0.52300
O 	O 	0.72771 0.77143 0.28867 -0.52600
O 	O 	0.56556 0.79140 0.33926 -0.52500
O 	O 	0.70249 0.74604 0.29346 -0.53200
O 	O 	0.51111 0.86762 0.29016 -0.53600
O 	O 	0.53657 0.83264 0.35332 -0.53600
O 	O 	0.67227 0.93508 0.30855 -0.53000
O 	O 	0.59943 0.90414 0.33907 -0.54700
H 	H 	0.53902 0.57747 0.47622 0.03500
H 	H 	0.51532 0.73515 0.40917 0.03600
H 	H 	0.50073 0.69749 0.43529 0.03600
H 	H 	0.42554 0.86577 0.38695 0.03700
H 	H 	0.47131 0.79634 0.43236 0.03600
H 	H 	0.66698 0.95064 0.21061 0.03700
H 	H 	0.58290 0.97918 0.23842 0.03700
H 	H 	0.70849 0.88199 0.25374 0.03600
H 	H 	0.73557 0.84203 0.24241 0.03600
H 	H 	0.66698 0.83819 0.32917 0.03700
H 	H 	0.69394 0.79849 0.31797 0.03700
H 	H 	0.61090 0.77561 0.34107 0.03800
H 	H 	0.65835 0.75951 0.32549 0.03300
H 	H 	0.52408 0.90802 0.25730 0.03700
H 	H 	0.54690 0.93376 0.21452 0.03600
H 	H 	0.55895 0.84363 0.22928 0.03500
H 	H 	0.58131 0.86898 0.18711 0.03500
Cr	Cr	0.94423 0.65770 0.11423 1.57400
Cr	Cr	0.80348 0.53034 0.30656 1.58000
C 	C 	0.56944 0.54723 0.42240 0.01200
C 	C 	0.72696 0.51247 0.36102 0.00300
C 	C 	0.70539 0.50403 0.37603 0.00400
C 	C 	0.85054 0.42746 0.31679 0.00200
C 	C 	0.83063 0.47489 0.31227 0.43400
C 	C 	0.83104 0.45167 0.31089 -0.10900
C 	C 	0.81170 0.45304 0.30458 0.00200
C 	C 	0.95726 0.64843 0.18594 -0.00100
C 	C 	0.96258 0.62501 0.15936 0.42000
C 	C 	0.96494 0.62494 0.18218 -0.10100
C 	C 	0.97322 0.60143 0.20145 -0.00100
C 	C 	0.86389 0.70516 0.16297 -0.00100
C 	C 	0.88804 0.66831 0.14404 0.42000
C 	C 	0.86360 0.68530 0.15870 -0.10200
C 	C 	0.84085 0.72083 0.17681 -0.00100
C 	C 	0.79230 0.73261 0.20310 0.42100
C 	C 	0.81672 0.71726 0.18675 -0.10200
C 	C 	0.83943 0.68190 0.16851 -0.00100
C 	C 	0.81647 0.69757 0.18222 -0.00100
C 	C 	0.77212 0.62099 0.28425 -0.00700
C 	C 	0.76276 0.64841 0.27520 0.01500
C 	C 	0.89950 0.53632 0.32224 0.00300
C 	C 	0.85700 0.52830 0.34166 0.43900
C 	C 	0.87369 0.53987 0.33972 -0.11300
C 	C 	0.91423 0.54938 0.31889 0.00300
C 	C 	0.92138 0.66808 0.07796 0.44100
C 	C 	0.90339 0.56615 0.33299 -0.11400
C 	C 	0.86331 0.55592 0.35438 0.00300
C 	C 	0.87794 0.56881 0.35111 0.00400
O 	O 	0.61124 0.50214 0.42559 -0.54100
O 	O 	0.77265 0.52525 0.33327 -0.53600
O 	O 	0.66370 0.48477 0.40801 -0.53500
O 	O 	0.81320 0.49673 0.30637 -0.52900
O 	O 	0.84773 0.47176 0.36082 -0.53400
O 	O 	0.95352 0.64681 0.14341 -0.52500
O 	O 	0.97946 0.64670 0.09285 -0.52300
O 	O 	0.90937 0.67277 0.13396 -0.52200
O 	O 	0.88647 0.65000 0.14205 -0.52300
O 	O 	0.79336 0.74940 0.20797 -0.52300
O 	O 	0.77143 0.72771 0.21218 -0.52600
O 	O 	0.79140 0.56556 0.30379 -0.52500
O 	O 	0.74604 0.70249 0.25801 -0.53200
O 	O 	0.86762 0.51111 0.33112 -0.53600
O 	O 	0.83264 0.53657 0.27746 -0.53600
O 	O 	0.93508 0.67227 0.08410 -0.53000
O 	O 	0.90414 0.59943 0.15737 -0.54700
H 	H 	0.57747 0.53902 0.40729 0.03500
H 	H 	0.73515 0.51532 0.34037 0.03600
H 	H 	0.69749 0.50073 0.36649 0.03600
H 	H 	0.86577 0.42554 0.32174 0.03700
H 	H 	0.79634 0.47131 0.29999 0.03600
H 	H 	0.95064 0.66698 0.17176 0.03700
H 	H 	0.97918 0.58290 0.19950 0.03700
H 	H 	0.88199 0.70849 0.15579 0.03600
H 	H 	0.84203 0.73557 0.17998 0.03600
H 	H 	0.83819 0.66698 0.16567 0.03700
H 	H 	0.79849 0.69394 0.18961 0.03700
H 	H 	0.77561 0.61090 0.27242 0.03800
H 	H 	0.75951 0.65835 0.25665 0.03300
H 	H 	0.90802 0.52408 0.31059 0.03700
H 	H 	0.93376 0.54690 0.30483 0.03600
H 	H 	0.84363 0.55895 0.36814 0.03500
H 	H 	0.86898 0.58131 0.36260 0.03500
Cr	Cr	0.65770 0.11423 0.94423 1.57400
Cr	Cr	0.53034 0.30656 0.80348 1.58000
C 	C 	0.54723 0.42240 0.56944 0.01200
C 	C 	0.51247 0.36102 0.72696 0.00300
C 	C 	0.50403 0.37603 0.70539 0.00400
C 	C 	0.42746 0.31679 0.85054 0.00200
C 	C 	0.47489 0.31227 0.83063 0.43400
C 	C 	0.45167 0.31089 0.83104 -0.10900
C 	C 	0.45304 0.30458 0.81170 0.00200
C 	C 	0.64843 0.18594 0.95726 -0.00100
C 	C 	0.62501 0.15936 0.96258 0.42000
C 	C 	0.62494 0.18218 0.96494 -0.10100
C 	C 	0.60143 0.20145 0.97322 -0.00100
C 	C 	0.70516 0.16297 0.86389 -0.00100
C 	C 	0.66831 0.14404 0.88804 0.42000
C 	C 	0.68530 0.15870 0.86360 -0.10200
C 	C 	0.72083 0.17681 0.84085 -0.00100
C 	C 	0.73261 0.20310 0.79230 0.42100
C 	C 	0.71726 0.18675 0.81672 -0.10200
C 	C 	0.68190 0.16851 0.83943 -0.00100
C 	C 	0.69757 0.18222 0.81647 -0.00100
C 	C 	0.62099 0.28425 0.77212 -0.00700
C 	C 	0.64841 0.27520 0.76276 0.01500
C 	C 	0.53632 0.32224 0.89950 0.00300
C 	C 	0.52830 0.34166 0.85700 0.43900
C 	C 	0.53987 0.33972 0.87369 -0.11300
C 	C 	0.54938 0.31889 0.91423 0.00300
C 	C 	0.66808 0.07796 0.92138 0.44100
C 	C 	0.56615 0.33299 0.90339 -0.11400
C 	C 	0.55592 0.35438 0.86331 0.00300
C 	C 	0.56881 0.35111 0.87794 0.00400
O 	O 	0.50214 0.42559 0.61124 -0.54100
O 	O 	0.52525 0.33327 0.77265 -0.53600
O 	O 	0.48477 0.40801 0.66370 -0.53500
O 	O 	0.49673 0.30637 0.81320 -0.52900
O 	O 	0.47176 0.36082 0.84773 -0.53400
O 	O 	0.64681 0.14341 0.95352 -0.52500
O 	O 	0.64670 0.09285 0.97946 -0.52300
O 	O 	0.67277 0.13396 0.90937 -0.52200
O 	O 	0.65000 0.14205 0.88647 -0.52300
O 	O 	0.74940 0.20797 0.79336 -0.52300
O 	O 	0.72771 0.21218 0.77143 -0.52600
O 	O 	0.56556 0.30379 0.79140 -0.52500
O 	O 	0.70249 0.25801 0.74604 -0.53200
O 	O 	0.51111 0.33112 0.86762 -0.53600
O 	O 	0.53657 0.27746 0.83264 -0.53600
O 	O 	0.67227 0.08410 0.93508 -0.53000
O 	O 	0.59943 0.15737 0.90414 -0.54700
H 	H 	0.53902 0.40729 0.57747 0.03500
H 	H 	0.51532 0.34037 0.73515 0.03600
H 	H 	0.50073 0.36649 0.69749 0.03600
H 	H 	0.42554 0.32174 0.86577 0.03700
H 	H 	0.47131 0.29999 0.79634 0.03600
H 	H 	0.66698 0.17176 0.95064 0.03700
H 	H 	0.58290 0.19950 0.97918 0.03700
H 	H 	0.70849 0.15579 0.88199 0.03600
H 	H 	0.73557 0.17998 0.84203 0.03600
H 	H 	0.66698 0.16567 0.83819 0.03700
H 	H 	0.69394 0.18961 0.79849 0.03700
H 	H 	0.61090 0.27242 0.77561 0.03800
H 	H 	0.65835 0.25665 0.75951 0.03300
H 	H 	0.52408 0.31059 0.90802 0.03700
H 	H 	0.54690 0.30483 0.93376 0.03600
H 	H 	0.55895 0.36814 0.84363 0.03500
H 	H 	0.58131 0.36260 0.86898 0.03500
Cr	Cr	0.94423 0.28384 0.65770 1.57400
Cr	Cr	0.80348 0.35963 0.53034 1.58000
C 	C 	0.56944 0.46092 0.54723 0.01200
C 	C 	0.72696 0.39955 0.51247 0.00300
C 	C 	0.70539 0.41455 0.50403 0.00400
C 	C 	0.85054 0.40521 0.42746 0.00200
C 	C 	0.83063 0.38220 0.47489 0.43400
C 	C 	0.83104 0.40641 0.45167 -0.10900
C 	C 	0.81170 0.43068 0.45304 0.00200
C 	C 	0.95726 0.20837 0.64843 -0.00100
C 	C 	0.96258 0.25305 0.62501 0.42000
C 	C 	0.96494 0.22795 0.62494 -0.10100
C 	C 	0.97322 0.22390 0.60143 -0.00100
C 	C 	0.86389 0.26799 0.70516 -0.00100
C 	C 	0.88804 0.29961 0.66831 0.42000
C 	C 	0.86360 0.29240 0.68530 -0.10200
C 	C 	0.84085 0.26152 0.72083 -0.00100
C 	C 	0.79230 0.27199 0.73261 0.42100
C 	C 	0.81672 0.27927 0.71726 -0.10300
C 	C 	0.83943 0.31016 0.68190 -0.00100
C 	C 	0.81647 0.30374 0.69757 -0.00100
C 	C 	0.77212 0.32264 0.62099 -0.00700
C 	C 	0.76276 0.31363 0.64841 0.01500
C 	C 	0.89950 0.24194 0.53632 0.00300
C 	C 	0.85700 0.27304 0.52830 0.43900
C 	C 	0.87369 0.24672 0.53987 -0.11300
C 	C 	0.91423 0.21750 0.54938 0.00300
C 	C 	0.92138 0.33257 0.66808 0.44100
C 	C 	0.90339 0.19747 0.56615 -0.11400
C 	C 	0.86331 0.22638 0.55592 0.00300
C 	C 	0.87794 0.20213 0.56881 0.00400
O 	O 	0.61124 0.46103 0.50214 -0.54100
O 	O 	0.77265 0.36883 0.52525 -0.53600
O 	O 	0.66370 0.44352 0.48477 -0.53600
O 	O 	0.81320 0.38370 0.49673 -0.52900
O 	O 	0.84773 0.31969 0.47176 -0.53400
O 	O 	0.95352 0.25626 0.64681 -0.52500
O 	O 	0.97946 0.28098 0.64670 -0.52300
O 	O 	0.90937 0.28390 0.67277 -0.52200
O 	O 	0.88647 0.32149 0.65000 -0.52300
O 	O 	0.79336 0.24927 0.74940 -0.52300
O 	O 	0.77143 0.28867 0.72771 -0.52600
O 	O 	0.79140 0.33926 0.56556 -0.52500
O 	O 	0.74604 0.29346 0.70249 -0.53200
O 	O 	0.86762 0.29016 0.51111 -0.53600
O 	O 	0.83264 0.35332 0.53657 -0.53600
O 	O 	0.93508 0.30855 0.67227 -0.53000
O 	O 	0.90414 0.33907 0.59943 -0.54700
H 	H 	0.57747 0.47622 0.53902 0.03500
H 	H 	0.73515 0.40917 0.51532 0.03600
H 	H 	0.69749 0.43529 0.50073 0.03600
H 	H 	0.86577 0.38695 0.42554 0.03700
H 	H 	0.79634 0.43236 0.47131 0.03600
H 	H 	0.95064 0.21061 0.66698 0.03700
H 	H 	0.97918 0.23842 0.58290 0.03700
H 	H 	0.88199 0.25374 0.70849 0.03600
H 	H 	0.84203 0.24241 0.73557 0.03600
H 	H 	0.83819 0.32917 0.66698 0.03700
H 	H 	0.79849 0.31797 0.69394 0.03700
H 	H 	0.77561 0.34107 0.61090 0.03800
H 	H 	0.75951 0.32549 0.65835 0.03300
H 	H 	0.90802 0.25730 0.52408 0.03700
H 	H 	0.93376 0.21452 0.54690 0.03600
H 	H 	0.84363 0.22928 0.55895 0.03500
H 	H 	0.86898 0.18711 0.58131 0.03500
Cr	Cr	0.11423 0.65770 0.28384 1.57400
Cr	Cr	0.30656 0.53034 0.35963 1.58000
C 	C 	0.42240 0.54723 0.46092 0.01200
C 	C 	0.36102 0.51247 0.39955 0.00300
C 	C 	0.37603 0.50403 0.41455 0.00300
C 	C 	0.31679 0.42746 0.40521 0.00200
C 	C 	0.31227 0.47489 0.38220 0.43400
C 	C 	0.31089 0.45167 0.40641 -0.10900
C 	C 	0.30458 0.45304 0.43068 0.00200
C 	C 	0.18594 0.64843 0.20837 -0.00100
C 	C 	0.15936 0.62501 0.25305 0.42000
C 	C 	0.18218 0.62494 0.22795 -0.10100
C 	C 	0.20145 0.60143 0.22390 -0.00100
C 	C 	0.16297 0.70516 0.26799 -0.00100
C 	C 	0.14404 0.66831 0.29961 0.42000
C 	C 	0.15870 0.68530 0.29240 -0.10100
C 	C 	0.17681 0.72083 0.26152 -0.00100
C 	C 	0.20310 0.73261 0.27199 0.42200
C 	C 	0.18675 0.71726 0.27927 -0.10300
C 	C 	0.16851 0.68190 0.31016 -0.00100
C 	C 	0.18222 0.69757 0.30374 -0.00000
C 	C 	0.28425 0.62099 0.32264 -0.00700
C 	C 	0.27520 0.64841 0.31363 0.01500
C 	C 	0.32224 0.53632 0.24194 0.00300
C 	C 	0.34166 0.52830 0.27304 0.44000
C 	C 	0.33972 0.53987 0.24672 -0.11300
C 	C 	0.31889 0.54938 0.21750 0.00300
C 	C 	0.07796 0.66808 0.33257 0.44200
C 	C 	0.33299 0.56615 0.19747 -0.11400
C 	C 	0.35438 0.55592 0.22638 0.00300
C 	C 	0.35111 0.56881 0.20213 0.00400
O 	O 	0.42559 0.50214 0.46103 -0.54100
O 	O 	0.33327 0.52525 0.36883 -0.53600
O 	O 	0.40801 0.48477 0.44352 -0.53600
O 	O 	0.30637 0.49673 0.38370 -0.52900
O 	O 	0.36082 0.47176 0.31969 -0.53400
O 	O 	0.14341 0.64681 0.25626 -0.52500
O 	O 	0.09285 0.64670 0.28098 -0.52300
O 	O 	0.13396 0.67277 0.28390 -0.52200
O 	O 	0.14205 0.65000 0.32149 -0.52200
O 	O 	0.20797 0.74940 0.24927 -0.52400
O 	O 	0.21218 0.72771 0.28867 -0.52600
O 	O 	0.30379 0.56556 0.33926 -0.52500
O 	O 	0.25801 0.70249 0.29346 -0.53200
O 	O 	0.33112 0.51111 0.29016 -0.53600
O 	O 	0.27746 0.53657 0.35332 -0.53600
O 	O 	0.08410 0.67227 0.30855 -0.53000
O 	O 	0.15737 0.59943 0.33907 -0.54700
H 	H 	0.40729 0.53902 0.47622 0.03500
H 	H 	0.34037 0.51532 0.40917 0.03600
H 	H 	0.36649 0.50073 0.43529 0.03600
H 	H 	0.32174 0.42554 0.38695 0.03700
H 	H 	0.29999 0.47131 0.43236 0.03600
H 	H 	0.17176 0.66698 0.21061 0.03700
H 	H 	0.19950 0.58290 0.23842 0.03600
H 	H 	0.15579 0.70849 0.25374 0.03600
H 	H 	0.17998 0.73557 0.24241 0.03600
H 	H 	0.16567 0.66698 0.32917 0.03700
H 	H 	0.18961 0.69394 0.31797 0.03700
H 	H 	0.27242 0.61090 0.34107 0.03800
H 	H 	0.25665 0.65835 0.32549 0.03300
H 	H 	0.31059 0.52408 0.25730 0.03700
H 	H 	0.30483 0.54690 0.21452 0.03600
H 	H 	0.36814 0.55895 0.22928 0.03500
H 	H 	0.36260 0.58131 0.18711 0.03500
Cr	Cr	0.28384 0.94423 0.11423 1.57400
Cr	Cr	0.35963 0.80348 0.30656 1.58000
C 	C 	0.46092 0.56944 0.42240 0.01200
C 	C 	0.39955 0.72696 0.36102 0.00300
C 	C 	0.41455 0.70539 0.37603 0.00400
C 	C 	0.40521 0.85054 0.31679 0.00200
C 	C 	0.38220 0.83063 0.31227 0.43400
C 	C 	0.40641 0.83104 0.31089 -0.10900
C 	C 	0.43068 0.81170 0.30458 0.00100
C 	C 	0.20837 0.95726 0.18594 -0.00100
C 	C 	0.25305 0.96258 0.15936 0.41900
C 	C 	0.22795 0.96494 0.18218 -0.10100
C 	C 	0.22390 0.97322 0.20145 -0.00100
C 	C 	0.26799 0.86389 0.16297 -0.00100
C 	C 	0.29961 0.88804 0.14404 0.42000
C 	C 	0.29240 0.86360 0.15870 -0.10200
C 	C 	0.26152 0.84085 0.17681 -0.00100
C 	C 	0.27199 0.79230 0.20310 0.42200
C 	C 	0.27927 0.81672 0.18675 -0.10300
C 	C 	0.31016 0.83943 0.16851 -0.00100
C 	C 	0.30374 0.81647 0.18222 -0.00100
C 	C 	0.32264 0.77212 0.28425 -0.00700
C 	C 	0.31363 0.76276 0.27520 0.01500
C 	C 	0.24194 0.89950 0.32224 0.00300
C 	C 	0.27304 0.85700 0.34166 0.43900
C 	C 	0.24672 0.87369 0.33972 -0.11300
C 	C 	0.21750 0.91423 0.31889 0.00300
C 	C 	0.33257 0.92138 0.07796 0.44200
C 	C 	0.19747 0.90339 0.33299 -0.11400
C 	C 	0.22638 0.86331 0.35438 0.00300
C 	C 	0.20213 0.87794 0.35111 0.00500
O 	O 	0.46103 0.61124 0.42559 -0.54100
O 	O 	0.36883 0.77265 0.33327 -0.53600
O 	O 	0.44352 0.66370 0.40801 -0.53600
O 	O 	0.38370 0.81320 0.30637 -0.53000
O 	O 	0.31969 0.84773 0.36082 -0.53400
O 	O 	0.25626 0.95352 0.14341 -0.52400
O 	O 	0.28098 0.97946 0.09285 -0.52300
O 	O 	0.28390 0.90937 0.13396 -0.52200
O 	O 	0.32149 0.88647 0.14205 -0.52200
O 	O 	0.24927 0.79336 0.20797 -0.52300
O 	O 	0.28867 0.77143 0.21218 -0.52700
O 	O 	0.33926 0.79140 0.30379 -0.52500
O 	O 	0.29346 0.74604 0.25801 -0.53200
O 	O 	0.29016 0.86762 0.33112 -0.53600
O 	O 	0.35332 0.83264 0.27746 -0.53600
O 	O 	0.30855 0.93508 0.08410 -0.53000
O 	O 	0.33907 0.90414 0.15737 -0.54700
H 	H 	0.47622 0.57747 0.40729 0.03500
H 	H 	0.40917 0.73515 0.34037 0.03600
H 	H 	0.43529 0.69749 0.36649 0.03600
H 	H 	0.38695 0.86577 0.32174 0.03700
H 	H 	0.43236 0.79634 0.29999 0.03600
H 	H 	0.21061 0.95064 0.17176 0.03700
H 	H 	0.23842 0.97918 0.19950 0.03700
H 	H 	0.25374 0.88199 0.15579 0.03600
H 	H 	0.24241 0.84203 0.17998 0.03600
H 	H 	0.32917 0.83819 0.16567 0.03700
H 	H 	0.31797 0.79849 0.18961 0.03700
H 	H 	0.34107 0.77561 0.27242 0.03800
H 	H 	0.32549 0.75951 0.25665 0.03300
H 	H 	0.25730 0.90802 0.31059 0.03700
H 	H 	0.21452 0.93376 0.30483 0.03600
H 	H 	0.22928 0.84363 0.36814 0.03500
H 	H 	0.18711 0.86898 0.36260 0.03500
Cr	Cr	0.28384 0.65770 0.94423 1.57400
Cr	Cr	0.35963 0.53034 0.80348 1.58000
C 	C 	0.46092 0.54723 0.56944 0.01200
C 	C 	0.39955 0.51247 0.72696 0.00300
C 	C 	0.41455 0.50403 0.70539 0.00400
C 	C 	0.40521 0.42746 0.85054 0.00200
C 	C 	0.38220 0.47489 0.83063 0.43400
C 	C 	0.40641 0.45167 0.83104 -0.10900
C 	C 	0.43068 0.45304 0.81170 0.00200
C 	C 	0.20837 0.64843 0.95726 -0.00100
C 	C 	0.25305 0.62501 0.96258 0.42000
C 	C 	0.22795 0.62494 0.96494 -0.10100
C 	C 	0.22390 0.60143 0.97322 -0.00100
C 	C 	0.26799 0.70516 0.86389 -0.00100
C 	C 	0.29961 0.66831 0.88804 0.42000
C 	C 	0.29240 0.68530 0.86360 -0.10200
C 	C 	0.26152 0.72083 0.84085 -0.00100
C 	C 	0.27199 0.73261 0.79230 0.42100
C 	C 	0.27927 0.71726 0.81672 -0.10300
C 	C 	0.31016 0.68190 0.83943 -0.00100
C 	C 	0.30374 0.69757 0.81647 -0.00100
C 	C 	0.32264 0.62099 0.77212 -0.00700
C 	C 	0.31363 0.64841 0.76276 0.01500
C 	C 	0.24194 0.53632 0.89950 0.00300
C 	C 	0.27304 0.52830 0.85700 0.43900
C 	C 	0.24672 0.53987 0.87369 -0.11300
C 	C 	0.21750 0.54938 0.91423 0.00300
C 	C 	0.33257 0.66808 0.92138 0.44100
C 	C 	0.19747 0.56615 0.90339 -0.11400
C 	C 	0.22638 0.55592 0.86331 0.00300
C 	C 	0.20213 0.56881 0.87794 0.00400
O 	O 	0.46103 0.50214 0.61124 -0.54100
O 	O 	0.36883 0.52525 0.77265 -0.53600
O 	O 	0.44352 0.48477 0.66370 -0.53600
O 	O 	0.38370 0.49673 0.81320 -0.52900
O 	O 	0.31969 0.47176 0.84773 -0.53400
O 	O 	0.25626 0.64681 0.95352 -0.52500
O 	O 	0.28098 0.64670 0.97946 -0.52300
O 	O 	0.28390 0.67277 0.90937 -0.52200
O 	O 	0.32149 0.65000 0.88647 -0.52300
O 	O 	0.24927 0.74940 0.79336 -0.52300
O 	O 	0.28867 0.72771 0.77143 -0.52600
O 	O 	0.33926 0.56556 0.79140 -0.52500
O 	O 	0.29346 0.70249 0.74604 -0.53200
O 	O 	0.29016 0.51111 0.86762 -0.53600
O 	O 	0.35332 0.53657 0.83264 -0.53600
O 	O 	0.30855 0.67227 0.93508 -0.53000
O 	O 	0.33907 0.59943 0.90414 -0.54700
H 	H 	0.47622 0.53902 0.57747 0.03500
H 	H 	0.40917 0.51532 0.73515 0.03600
H 	H 	0.43529 0.50073 0.69749 0.03600
H 	H 	0.38695 0.42554 0.86577 0.03700
H 	H 	0.43236 0.47131 0.79634 0.03600
H 	H 	0.21061 0.66698 0.95064 0.03700
H 	H 	0.23842 0.58290 0.97918 0.03700
H 	H 	0.25374 0.70849 0.88199 0.03600
H 	H 	0.24241 0.73557 0.84203 0.03600
H 	H 	0.32917 0.66698 0.83819 0.03700
H 	H 	0.31797 0.69394 0.79849 0.03700
H 	H 	0.34107 0.61090 0.77561 0.03800
H 	H 	0.32549 0.65835 0.75951 0.03300
H 	H 	0.25730 0.52408 0.90802 0.03700
H 	H 	0.21452 0.54690 0.93376 0.03600
H 	H 	0.22928 0.55895 0.84363 0.03500
H 	H 	0.18711 0.58131 0.86898 0.03500
Cr	Cr	0.11423 0.94423 0.65770 1.57400
Cr	Cr	0.30656 0.80348 0.53034 1.58000
C 	C 	0.42240 0.56944 0.54723 0.01200
C 	C 	0.36102 0.72696 0.51247 0.00300
C 	C 	0.37603 0.70539 0.50403 0.00400
C 	C 	0.31679 0.85054 0.42746 0.00200
C 	C 	0.31227 0.83063 0.47489 0.43400
C 	C 	0.31089 0.83104 0.45167 -0.10900
C 	C 	0.30458 0.81170 0.45304 0.00200
C 	C 	0.18594 0.95726 0.64843 -0.00100
C 	C 	0.15936 0.96258 0.62501 0.42000
C 	C 	0.18218 0.96494 0.62494 -0.10100
C 	C 	0.20145 0.97322 0.60143 -0.00100
C 	C 	0.16297 0.86389 0.70516 -0.00100
C 	C 	0.14404 0.88804 0.66831 0.42000
C 	C 	0.15870 0.86360 0.68530 -0.10200
C 	C 	0.17681 0.84085 0.72083 -0.00100
C 	C 	0.20310 0.79230 0.73261 0.42100
C 	C 	0.18675 0.81672 0.71726 -0.10200
C 	C 	0.16851 0.83943 0.68190 -0.00100
C 	C 	0.18222 0.81647 0.69757 -0.00100
C 	C 	0.28425 0.77212 0.62099 -0.00700
C 	C 	0.27520 0.76276 0.64841 0.01500
C 	C 	0.32224 0.89950 0.53632 0.00300
C 	C 	0.34166 0.85700 0.52830 0.43900
C 	C 	0.33972 0.87369 0.53987 -0.11300
C 	C 	0.31889 0.91423 0.54938 0.00300
C 	C 	0.07796 0.92138 0.66808 0.44100
C 	C 	0.33299 0.90339 0.56615 -0.11400
C 	C 	0.35438 0.86331 0.55592 0.00300
C 	C 	0.35111 0.87794 0.56881 0.00400
O 	O 	0.42559 0.61124 0.50214 -0.54100
O 	O 	0.33327 0.77265 0.52525 -0.53600
O 	O 	0.40801 0.66370 0.48477 -0.53500
O 	O 	0.30637 0.81320 0.49673 -0.52900
O 	O 	0.36082 0.84773 0.47176 -0.53400
O 	O 	0.14341 0.95352 0.64681 -0.52500
O 	O 	0.09285 0.97946 0.64670 -0.52300
O 	O 	0.13396 0.90937 0.67277 -0.52200
O 	O 	0.14205 0.88647 0.65000 -0.52300
O 	O 	0.20797 0.79336 0.74940 -0.52300
O 	O 	0.21218 0.77143 0.72771 -0.52600
O 	O 	0.30379 0.79140 0.56556 -0.52500
O 	O 	0.25801 0.74604 0.70249 -0.53200
O 	O 	0.33112 0.86762 0.51111 -0.53600
O 	O 	0.27746 0.83264 0.53657 -0.53600
O 	O 	0.08410 0.93508 0.67227 -0.53000
O 	O 	0.15737 0.90414 0.59943 -0.54700
H 	H 	0.40729 0.57747 0.53902 0.03500
H 	H 	0.34037 0.73515 0.51532 0.03600
H 	H 	0.36649 0.69749 0.50073 0.03600
H 	H 	0.32174 0.86577 0.42554 0.03700
H 	H 	0.29999 0.79634 0.47131 0.03600
H 	H 	0.17176 0.95064 0.66698 0.03700
H 	H 	0.19950 0.97918 0.58290 0.03700
H 	H 	0.15579 0.88199 0.70849 0.03600
H 	H 	0.17998 0.84203 0.73557 0.03600
H 	H 	0.16567 0.83819 0.66698 0.03700
H 	H 	0.18961 0.79849 0.69394 0.03700
H 	H 	0.27242 0.77561 0.61090 0.03800
H 	H 	0.25665 0.75951 0.65835 0.03300
H 	H 	0.31059 0.90802 0.52408 0.03700
H 	H 	0.30483 0.93376 0.54690 0.03600
H 	H 	0.36814 0.84363 0.55895 0.03500
H 	H 	0.36260 0.86898 0.58131 0.03500
Cr	Cr	0.94423 0.11423 0.28384 1.57400
Cr	Cr	0.80348 0.30656 0.35963 1.58000
C 	C 	0.56944 0.42240 0.46092 0.01200
C 	C 	0.72696 0.36102 0.39955 0.00300
C 	C 	0.70539 0.37603 0.41455 0.00400
C 	C 	0.85054 0.31679 0.40521 0.00200
C 	C 	0.83063 0.31227 0.38220 0.43400
C 	C 	0.83104 0.31089 0.40641 -0.10900
C 	C 	0.81170 0.30458 0.43068 0.00100
C 	C 	0.95726 0.18594 0.20837 -0.00100
C 	C 	0.96258 0.15936 0.25305 0.41900
C 	C 	0.96494 0.18218 0.22795 -0.10100
C 	C 	0.97322 0.20145 0.22390 -0.00100
C 	C 	0.86389 0.16297 0.26799 -0.00100
C 	C 	0.88804 0.14404 0.29961 0.42000
C 	C 	0.86360 0.15870 0.29240 -0.10200
C 	C 	0.84085 0.17681 0.26152 -0.00100
C 	C 	0.79230 0.20310 0.27199 0.42200
C 	C 	0.81672 0.18675 0.27927 -0.10300
C 	C 	0.83943 0.16851 0.31016 -0.00100
C 	C 	0.81647 0.18222 0.30374 -0.00100
C 	C 	0.77212 0.28425 0.32264 -0.00700
C 	C 	0.76276 0.27520 0.31363 0.01500
C 	C 	0.89950 0.32224 0.24194 0.00300
C 	C 	0.85700 0.34166 0.27304 0.43900
C 	C 	0.87369 0.33972 0.24672 -0.11300
C 	C 	0.91423 0.31889 0.21750 0.00300
C 	C 	0.92138 0.07796 0.33257 0.44200
C 	C 	0.90339 0.33299 0.19747 -0.11400
C 	C 	0.86331 0.35438 0.22638 0.00300
C 	C 	0.87794 0.35111 0.20213 0.00500
O 	O 	0.61124 0.42559 0.46103 -0.54100
O 	O 	0.77265 0.33327 0.36883 -0.53600
O 	O 	0.66370 0.40801 0.44352 -0.53600
O 	O 	0.81320 0.30637 0.38370 -0.53000
O 	O 	0.84773 0.36082 0.31969 -0.53400
O 	O 	0.95352 0.14341 0.25626 -0.52400
O 	O 	0.97946 0.09285 0.28098 -0.52300
O 	O 	0.90937 0.13396 0.28390 -0.52200
O 	O 	0.88647 0.14205 0.32149 -0.52200
O 	O 	0.79336 0.20797 0.24927 -0.52300
O 	O 	0.77143 0.21218 0.28867 -0.52700
O 	O 	0.79140 0.30379 0.33926 -0.52500
O 	O 	0.74604 0.25801 0.29346 -0.53200
O 	O 	0.86762 0.33112 0.29016 -0.53600
O 	O 	0.83264 0.27746 0.35332 -0.53600
O 	O 	0.93508 0.08410 0.30855 -0.53000
O 	O 	0.90414 0.15737 0.33907 -0.54700
H 	H 	0.57747 0.40729 0.47622 0.03500
H 	H 	0.73515 0.34037 0.40917 0.03600
H 	H 	0.69749 0.36649 0.43529 0.03600
H 	H 	0.86577 0.32174 0.38695 0.03700
H 	H 	0.79634 0.29999 0.43236 0.03600
H 	H 	0.95064 0.17176 0.21061 0.03700
H 	H 	0.97918 0.19950 0.23842 0.03700
H 	H 	0.88199 0.15579 0.25374 0.03600
H 	H 	0.84203 0.17998 0.24241 0.03600
H 	H 	0.83819 0.16567 0.32917 0.03700
H 	H 	0.79849 0.18961 0.31797 0.03700
H 	H 	0.77561 0.27242 0.34107 0.03800
H 	H 	0.75951 0.25665 0.32549 0.03300
H 	H 	0.90802 0.31059 0.25730 0.03700
H 	H 	0.93376 0.30483 0.21452 0.03600
H 	H 	0.84363 0.36814 0.22928 0.03500
H 	H 	0.86898 0.36260 0.18711 0.03500
Cr	Cr	0.65770 0.28384 0.11423 1.57400
Cr	Cr	0.53034 0.35963 0.30656 1.58000
C 	C 	0.54723 0.46092 0.42240 0.01200
C 	C 	0.51247 0.39955 0.36102 0.00300
C 	C 	0.50403 0.41455 0.37603 0.00300
C 	C 	0.42746 0.40521 0.31679 0.00200
C 	C 	0.47489 0.38220 0.31227 0.43400
C 	C 	0.45167 0.40641 0.31089 -0.10900
C 	C 	0.45304 0.43068 0.30458 0.00200
C 	C 	0.64843 0.20837 0.18594 -0.00100
C 	C 	0.62501 0.25305 0.15936 0.42000
C 	C 	0.62494 0.22795 0.18218 -0.10100
C 	C 	0.60143 0.22390 0.20145 -0.00100
C 	C 	0.70516 0.26799 0.16297 -0.00100
C 	C 	0.66831 0.29961 0.14404 0.42000
C 	C 	0.68530 0.29240 0.15870 -0.10100
C 	C 	0.72083 0.26152 0.17681 -0.00100
C 	C 	0.73261 0.27199 0.20310 0.42200
C 	C 	0.71726 0.27927 0.18675 -0.10300
C 	C 	0.68190 0.31016 0.16851 -0.00100
C 	C 	0.69757 0.30374 0.18222 -0.00000
C 	C 	0.62099 0.32264 0.28425 -0.00700
C 	C 	0.64841 0.31363 0.27520 0.01500
C 	C 	0.53632 0.24194 0.32224 0.00300
C 	C 	0.52830 0.27304 0.34166 0.44000
C 	C 	0.53987 0.24672 0.33972 -0.11300
C 	C 	0.54938 0.21750 0.31889 0.00300
C 	C 	0.66808 0.33257 0.07796 0.44200
C 	C 	0.56615 0.19747 0.33299 -0.11400
C 	C 	0.55592 0.22638 0.35438 0.00300
C 	C 	0.56881 0.20213 0.35111 0.00400
O 	O 	0.50214 0.46103 0.42559 -0.54100
O 	O 	0.52525 0.36883 0.33327 -0.53600
O 	O 	0.48477 0.44352 0.40801 -0.53600
O 	O 	0.49673 0.38370 0.30637 -0.52900
O 	O 	0.47176 0.31969 0.36082 -0.53400
O 	O 	0.64681 0.25626 0.14341 -0.52500
O 	O 	0.64670 0.28098 0.09285 -0.52300
O 	O 	0.67277 0.28390 0.13396 -0.52200
O 	O 	0.65000 0.32149 0.14205 -0.52200
O 	O 	0.74940 0.24927 0.20797 -0.52400
O 	O 	0.72771 0.28867 0.21218 -0.52600
O 	O 	0.56556 0.33926 0.30379 -0.52500
O 	O 	0.70249 0.29346 0.25801 -0.53200
O 	O 	0.51111 0.29016 0.33112 -0.53600
O 	O 	0.53657 0.35332 0.27746 -0.53600
O 	O 	0.67227 0.30855 0.08410 -0.53000
O 	O 	0.59943 0.33907 0.15737 -0.54700
H 	H 	0.53902 0.47622 0.40729 0.03500
H 	H 	0.51532 0.40917 0.34037 0.03600
H 	H 	0.50073 0.43529 0.36649 0.03600
H 	H 	0.42554 0.38695 0.32174 0.03700
H 	H 	0.47131 0.43236 0.29999 0.03600
H 	H 	0.66698 0.21061 0.17176 0.03700
H 	H 	0.58290 0.23842 0.19950 0.03600
H 	H 	0.70849 0.25374 0.15579 0.03600
H 	H 	0.73557 0.24241 0.17998 0.03600
H 	H 	0.66698 0.32917 0.16567 0.03700
H 	H 	0.69394 0.31797 0.18961 0.03700
H 	H 	0.61090 0.34107 0.27242 0.03800
H 	H 	0.65835 0.32549 0.25665 0.03300
H 	H 	0.52408 0.25730 0.31059 0.03700
H 	H 	0.54690 0.21452 0.30483 0.03600
H 	H 	0.55895 0.22928 0.36814 0.03500
H 	H 	0.58131 0.18711 0.36260 0.03500
Cr	Cr	0.41880 0.47185 0.47185 1.58500
Cr	Cr	0.47185 0.41880 0.63750 1.58500
Cr	Cr	0.47185 0.63750 0.41880 1.58500
Cr	Cr	0.63750 0.47185 0.47185 1.58500
Cr	Cr	0.47185 0.41880 0.47185 1.58500
Cr	Cr	0.63750 0.47185 0.41880 1.58500
Cr	Cr	0.41880 0.47185 0.63750 1.58500
Cr	Cr	0.47185 0.63750 0.47185 1.58500
Cr	Cr	0.47185 0.47185 0.41880 1.58500
Cr	Cr	0.41880 0.63750 0.47185 1.58500
Cr	Cr	0.63750 0.41880 0.47185 1.58500
Cr	Cr	0.47185 0.47185 0.63750 1.58500
Cr	Cr	0.83120 0.77815 0.61250 1.58500
Cr	Cr	0.77815 0.83120 0.77815 1.58500
Cr	Cr	0.77815 0.61250 0.77815 1.58500
Cr	Cr	0.61250 0.77815 0.83120 1.58500
Cr	Cr	0.77815 0.83120 0.61250 1.58500
Cr	Cr	0.61250 0.77815 0.77815 1.58500
Cr	Cr	0.83120 0.77815 0.77815 1.58500
Cr	Cr	0.77815 0.61250 0.83120 1.58500
Cr	Cr	0.77815 0.77815 0.61250 1.58500
Cr	Cr	0.83120 0.61250 0.77815 1.58500
Cr	Cr	0.61250 0.83120 0.77815 1.58500
Cr	Cr	0.77815 0.77815 0.83120 1.58500
Cr	Cr	0.12500 0.34065 0.62500 1.58500
O 	O 	0.12500 0.31008 0.62500 -0.76100
Cr	Cr	0.34065 0.12500 0.90935 1.58500
O 	O 	0.31008 0.12500 0.93992 -0.76100
Cr	Cr	0.62500 0.90935 0.12500 1.58500
O 	O 	0.62500 0.93992 0.12500 -0.76100
Cr	Cr	0.90935 0.62500 0.34065 1.58500
O 	O 	0.93992 0.62500 0.31008 -0.76100
Cr	Cr	0.62500 0.12500 0.34065 1.58500
O 	O 	0.62500 0.12500 0.31008 -0.76100
Cr	Cr	0.90935 0.34065 0.12500 1.58500
O 	O 	0.93992 0.31008 0.12500 -0.76100
Cr	Cr	0.12500 0.62500 0.90935 1.58500
O 	O 	0.12500 0.62500 0.93992 -0.76100
Cr	Cr	0.34065 0.90935 0.62500 1.58500
O 	O 	0.31008 0.93992 0.62500 -0.76100
Cr	Cr	0.34065 0.62500 0.12500 1.58500
O 	O 	0.31008 0.62500 0.12500 -0.76100
Cr	Cr	0.12500 0.90935 0.34065 1.58500
O 	O 	0.12500 0.93992 0.31008 -0.76100
Cr	Cr	0.90935 0.12500 0.62500 1.58500
O 	O 	0.93992 0.12500 0.62500 -0.76100
Cr	Cr	0.62500 0.34065 0.90935 1.58500
O 	O 	0.62500 0.31008 0.93992 -0.76100
Cr	Cr	0.12500 0.90935 0.62500 1.58500
O 	O 	0.12500 0.93992 0.62500 -0.76100
Cr	Cr	0.90935 0.12500 0.34065 1.58500
O 	O 	0.93992 0.12500 0.31008 -0.76100
Cr	Cr	0.62500 0.34065 0.12500 1.58500
O 	O 	0.62500 0.31008 0.12500 -0.76100
Cr	Cr	0.34065 0.62500 0.90935 1.58500
O 	O 	0.31008 0.62500 0.93992 -0.76100
Cr	Cr	0.62500 0.12500 0.90935 1.58500
O 	O 	0.62500 0.12500 0.93992 -0.76100
Cr	Cr	0.34065 0.90935 0.12500 1.58500
O 	O 	0.31008 0.93992 0.12500 -0.76100
Cr	Cr	0.12500 0.62500 0.34065 1.58500
O 	O 	0.12500 0.62500 0.31008 -0.76100
Cr	Cr	0.90935 0.34065 0.62500 1.58500
O 	O 	0.93992 0.31008 0.62500 -0.76100
Cr	Cr	0.90935 0.62500 0.12500 1.58500
O 	O 	0.93992 0.62500 0.12500 -0.76100
Cr	Cr	0.12500 0.34065 0.90935 1.58500
O 	O 	0.12500 0.31008 0.93992 -0.76100
Cr	Cr	0.34065 0.12500 0.62500 1.58500
O 	O 	0.31008 0.12500 0.62500 -0.76100
Cr	Cr	0.62500 0.90935 0.34065 1.58500
O 	O 	0.62500 0.93992 0.31008 -0.76100
Cr	Cr	0.22983 0.22983 0.77017 1.57300
O 	O 	0.25157 0.25157 0.74843 -0.76400
Cr	Cr	0.77017 0.77017 0.22983 1.57300
O 	O 	0.74843 0.74843 0.25157 -0.76400
Cr	Cr	0.77017 0.22983 0.22983 1.57300
O 	O 	0.74843 0.25157 0.25157 -0.76400
Cr	Cr	0.22983 0.77017 0.77017 1.57300
O 	O 	0.25157 0.74843 0.74843 -0.76400
Cr	Cr	0.22983 0.77017 0.22983 1.57300
O 	O 	0.25157 0.74843 0.25157 -0.76400
Cr	Cr	0.77017 0.22983 0.77017 1.57300
O 	O 	0.74843 0.25157 0.74843 -0.76400
Cr	Cr	0.02017 0.02017 0.47983 1.57300
O 	O 	0.99843 0.99843 0.50157 -0.76300
Cr	Cr	0.47983 0.47983 0.02017 1.57300
O 	O 	0.50157 0.50157 0.99843 -0.76300
Cr	Cr	0.47983 0.02017 0.47983 1.57300
O 	O 	0.50157 0.99843 0.50157 -0.76300
Cr	Cr	0.02017 0.47983 0.02017 1.57300
O 	O 	0.99843 0.50157 0.99843 -0.76300
Cr	Cr	0.02017 0.47983 0.47983 1.57300
O 	O 	0.99843 0.50157 0.50157 -0.76300
Cr	Cr	0.47983 0.02017 0.02017 1.57300
O 	O 	0.50157 0.99843 0.99843 -0.76300
Cr	Cr	0.23592 0.28896 0.73756 1.57700
Cr	Cr	0.28896 0.23592 0.73756 1.57700
Cr	Cr	0.73756 0.73756 0.23592 1.57700
Cr	Cr	0.73756 0.73756 0.28896 1.57700
Cr	Cr	0.73756 0.23592 0.28896 1.57700
Cr	Cr	0.73756 0.28896 0.23592 1.57700
Cr	Cr	0.23592 0.73756 0.73756 1.57700
Cr	Cr	0.28896 0.73756 0.73756 1.57700
Cr	Cr	0.28896 0.73756 0.23592 1.57700
Cr	Cr	0.23592 0.73756 0.28896 1.57700
Cr	Cr	0.73756 0.23592 0.73756 1.57700
Cr	Cr	0.73756 0.28896 0.73756 1.57700
Cr	Cr	0.01408 0.96104 0.51244 1.57700
Cr	Cr	0.96104 0.01408 0.51244 1.57700
Cr	Cr	0.51244 0.51244 0.96104 1.57700
Cr	Cr	0.51244 0.51244 0.01408 1.57700
Cr	Cr	0.51244 0.01408 0.51244 1.57700
Cr	Cr	0.51244 0.96104 0.51244 1.57700
Cr	Cr	0.01408 0.51244 0.96104 1.57700
Cr	Cr	0.96104 0.51244 0.01408 1.57700
Cr	Cr	0.96104 0.51244 0.51244 1.57700
Cr	Cr	0.01408 0.51244 0.51244 1.57700
Cr	Cr	0.51244 0.01408 0.96104 1.57700
Cr	Cr	0.51244 0.96104 0.01408 1.57700
Cr	Cr	0.32574 0.32574 0.49285 1.58400
C 	C 	0.35723 0.35723 0.52298 0.43800
C 	C 	0.37266 0.37266 0.51646 -0.11200
C 	C 	0.41918 0.41918 0.48908 0.44000
C 	C 	0.40303 0.40303 0.49938 -0.11300
C 	C 	0.31762 0.31762 0.57750 0.42400
C 	C 	0.30807 0.30807 0.60680 -0.09900
C 	C 	0.28000 0.28000 0.69049 0.44600
C 	C 	0.28965 0.28965 0.66272 -0.13500
O 	O 	0.33063 0.33063 0.51787 -0.76000
Cr	Cr	0.32574 0.32574 0.85566 1.58400
C 	C 	0.35723 0.35723 0.76256 0.43800
C 	C 	0.37266 0.37266 0.73822 -0.11200
C 	C 	0.41918 0.41918 0.67257 0.44000
C 	C 	0.40303 0.40303 0.69455 -0.11300
C 	C 	0.31762 0.31762 0.78725 0.42400
C 	C 	0.30807 0.30807 0.77705 -0.09900
C 	C 	0.28000 0.28000 0.74951 0.44600
C 	C 	0.28965 0.28965 0.75798 -0.13500
O 	O 	0.33063 0.33063 0.82086 -0.76000
Cr	Cr	0.49285 0.85566 0.32574 1.58400
C 	C 	0.52298 0.76256 0.35723 0.43800
C 	C 	0.51646 0.73822 0.37266 -0.11200
C 	C 	0.48908 0.67257 0.41918 0.44000
C 	C 	0.49938 0.69455 0.40303 -0.11400
C 	C 	0.57750 0.78725 0.31762 0.42400
C 	C 	0.60680 0.77705 0.30807 -0.09900
C 	C 	0.69049 0.74951 0.28000 0.44600
C 	C 	0.66272 0.75798 0.28965 -0.13500
O 	O 	0.51787 0.82086 0.33063 -0.76000
Cr	Cr	0.85566 0.49285 0.32574 1.58400
C 	C 	0.76256 0.52298 0.35723 0.43800
C 	C 	0.73822 0.51646 0.37266 -0.11200
C 	C 	0.67257 0.48908 0.41918 0.44000
C 	C 	0.69455 0.49938 0.40303 -0.11400
C 	C 	0.78725 0.57750 0.31762 0.42400
C 	C 	0.77705 0.60680 0.30807 -0.09900
C 	C 	0.74951 0.69049 0.28000 0.44600
C 	C 	0.75798 0.66272 0.28965 -0.13500
O 	O 	0.82086 0.51787 0.33063 -0.76000
Cr	Cr	0.49285 0.32574 0.32574 1.58400
C 	C 	0.52298 0.35723 0.35723 0.43800
C 	C 	0.51646 0.37266 0.37266 -0.11200
C 	C 	0.48908 0.41918 0.41918 0.44000
C 	C 	0.49938 0.40303 0.40303 -0.11300
C 	C 	0.57750 0.31762 0.31762 0.42400
C 	C 	0.60680 0.30807 0.30807 -0.09900
C 	C 	0.69049 0.28000 0.28000 0.44600
C 	C 	0.66272 0.28965 0.28965 -0.13500
O 	O 	0.51787 0.33063 0.33063 -0.76000
Cr	Cr	0.85566 0.32574 0.32574 1.58400
C 	C 	0.76256 0.35723 0.35723 0.43800
C 	C 	0.73822 0.37266 0.37266 -0.11200
C 	C 	0.67257 0.41918 0.41918 0.44000
C 	C 	0.69455 0.40303 0.40303 -0.11300
C 	C 	0.78725 0.31762 0.31762 0.42400
C 	C 	0.77705 0.30807 0.30807 -0.09900
C 	C 	0.74951 0.28000 0.28000 0.44600
C 	C 	0.75798 0.28965 0.28965 -0.13500
O 	O 	0.82086 0.33063 0.33063 -0.76000
Cr	Cr	0.32574 0.49285 0.85566 1.58400
C 	C 	0.35723 0.52298 0.76256 0.43800
C 	C 	0.37266 0.51646 0.73822 -0.11200
C 	C 	0.41918 0.48908 0.67257 0.44000
C 	C 	0.40303 0.49938 0.69455 -0.11400
C 	C 	0.31762 0.57750 0.78725 0.42400
C 	C 	0.30807 0.60680 0.77705 -0.09900
C 	C 	0.28000 0.69049 0.74951 0.44600
C 	C 	0.28965 0.66272 0.75798 -0.13500
O 	O 	0.33063 0.51787 0.82086 -0.76000
Cr	Cr	0.32574 0.85566 0.49285 1.58400
C 	C 	0.35723 0.76256 0.52298 0.43800
C 	C 	0.37266 0.73822 0.51646 -0.11200
C 	C 	0.41918 0.67257 0.48908 0.44000
C 	C 	0.40303 0.69455 0.49938 -0.11400
C 	C 	0.31762 0.78725 0.57750 0.42400
C 	C 	0.30807 0.77705 0.60680 -0.09900
C 	C 	0.28000 0.74951 0.69049 0.44600
C 	C 	0.28965 0.75798 0.66272 -0.13500
O 	O 	0.33063 0.82086 0.51787 -0.76000
Cr	Cr	0.32574 0.49285 0.32574 1.58400
C 	C 	0.35723 0.52298 0.35723 0.43800
C 	C 	0.37266 0.51646 0.37266 -0.11200
C 	C 	0.41918 0.48908 0.41918 0.44000
C 	C 	0.40303 0.49938 0.40303 -0.11300
C 	C 	0.31762 0.57750 0.31762 0.42400
C 	C 	0.30807 0.60680 0.30807 -0.09900
C 	C 	0.28000 0.69049 0.28000 0.44600
C 	C 	0.28965 0.66272 0.28965 -0.13500
O 	O 	0.33063 0.51787 0.33063 -0.76000
Cr	Cr	0.32574 0.85566 0.32574 1.58400
C 	C 	0.35723 0.76256 0.35723 0.43800
C 	C 	0.37266 0.73822 0.37266 -0.11200
C 	C 	0.41918 0.67257 0.41918 0.44000
C 	C 	0.40303 0.69455 0.40303 -0.11300
C 	C 	0.31762 0.78725 0.31762 0.42400
C 	C 	0.30807 0.77705 0.30807 -0.09900
C 	C 	0.28000 0.74951 0.28000 0.44600
C 	C 	0.28965 0.75798 0.28965 -0.13500
O 	O 	0.33063 0.82086 0.33063 -0.76000
Cr	Cr	0.85566 0.32574 0.49285 1.58400
C 	C 	0.76256 0.35723 0.52298 0.43800
C 	C 	0.73822 0.37266 0.51646 -0.11200
C 	C 	0.67257 0.41918 0.48908 0.44000
C 	C 	0.69455 0.40303 0.49938 -0.11400
C 	C 	0.78725 0.31762 0.57750 0.42400
C 	C 	0.77705 0.30807 0.60680 -0.09900
C 	C 	0.74951 0.28000 0.69049 0.44600
C 	C 	0.75798 0.28965 0.66272 -0.13500
O 	O 	0.82086 0.33063 0.51787 -0.76000
Cr	Cr	0.49285 0.32574 0.85566 1.58400
C 	C 	0.52298 0.35723 0.76256 0.43800
C 	C 	0.51646 0.37266 0.73822 -0.11200
C 	C 	0.48908 0.41918 0.67257 0.44000
C 	C 	0.49938 0.40303 0.69455 -0.11400
C 	C 	0.57750 0.31762 0.78725 0.42400
C 	C 	0.60680 0.30807 0.77705 -0.09900
C 	C 	0.69049 0.28000 0.74951 0.44600
C 	C 	0.66272 0.28965 0.75798 -0.13500
O 	O 	0.51787 0.33063 0.82086 -0.76000
Cr	Cr	0.92426 0.92426 0.39434 1.58400
C 	C 	0.89277 0.89277 0.48744 0.43800
C 	C 	0.87734 0.87734 0.51178 -0.11200
C 	C 	0.83082 0.83082 0.57743 0.44000
C 	C 	0.84697 0.84697 0.55545 -0.11300
C 	C 	0.93238 0.93238 0.46275 0.42400
C 	C 	0.94193 0.94193 0.47295 -0.09900
C 	C 	0.97000 0.97000 0.50049 0.44600
C 	C 	0.96035 0.96035 0.49202 -0.13500
O 	O 	0.91937 0.91937 0.42914 -0.76000
Cr	Cr	0.92426 0.92426 0.75715 1.58400
C 	C 	0.89277 0.89277 0.72702 0.43800
C 	C 	0.87734 0.87734 0.73354 -0.11200
C 	C 	0.83082 0.83082 0.76092 0.44000
C 	C 	0.84697 0.84697 0.75062 -0.11300
C 	C 	0.93238 0.93238 0.67250 0.42400
C 	C 	0.94193 0.94193 0.64320 -0.09900
C 	C 	0.97000 0.97000 0.55951 0.44600
C 	C 	0.96035 0.96035 0.58728 -0.13500
O 	O 	0.91937 0.91937 0.73213 -0.76000
Cr	Cr	0.75715 0.39434 0.92426 1.58400
C 	C 	0.72702 0.48744 0.89277 0.43800
C 	C 	0.73354 0.51178 0.87734 -0.11200
C 	C 	0.76092 0.57743 0.83082 0.44000
C 	C 	0.75062 0.55545 0.84697 -0.11400
C 	C 	0.67250 0.46275 0.93238 0.42400
C 	C 	0.64320 0.47295 0.94193 -0.09900
C 	C 	0.55951 0.50049 0.97000 0.44600
C 	C 	0.58728 0.49202 0.96035 -0.13500
O 	O 	0.73213 0.42914 0.91937 -0.76000
Cr	Cr	0.39434 0.75715 0.92426 1.58400
C 	C 	0.48744 0.72702 0.89277 0.43800
C 	C 	0.51178 0.73354 0.87734 -0.11200
C 	C 	0.57743 0.76092 0.83082 0.44000
C 	C 	0.55545 0.75062 0.84697 -0.11400
C 	C 	0.46275 0.67250 0.93238 0.42400
C 	C 	0.47295 0.64320 0.94193 -0.09900
C 	C 	0.50049 0.55951 0.97000 0.44600
C 	C 	0.49202 0.58728 0.96035 -0.13500
O 	O 	0.42914 0.73213 0.91937 -0.76000
Cr	Cr	0.75715 0.92426 0.39434 1.58400
C 	C 	0.72702 0.89277 0.48744 0.43800
C 	C 	0.73354 0.87734 0.51178 -0.11200
C 	C 	0.76092 0.83082 0.57743 0.44000
C 	C 	0.75062 0.84697 0.55545 -0.11400
C 	C 	0.67250 0.93238 0.46275 0.42400
C 	C 	0.64320 0.94193 0.47295 -0.09900
C 	C 	0.55951 0.97000 0.50049 0.44600
C 	C 	0.58728 0.96035 0.49202 -0.13500
O 	O 	0.73213 0.91937 0.42914 -0.76000
Cr	Cr	0.39434 0.92426 0.75715 1.58400
C 	C 	0.48744 0.89277 0.72702 0.43800
C 	C 	0.51178 0.87734 0.73354 -0.11200
C 	C 	0.57743 0.83082 0.76092 0.44000
C 	C 	0.55545 0.84697 0.75062 -0.11400
C 	C 	0.46275 0.93238 0.67250 0.42400
C 	C 	0.47295 0.94193 0.64320 -0.09900
C 	C 	0.50049 0.97000 0.55951 0.44600
C 	C 	0.49202 0.96035 0.58728 -0.13500
O 	O 	0.42914 0.91937 0.73213 -0.76000
Cr	Cr	0.92426 0.75715 0.92426 1.58400
C 	C 	0.89277 0.72702 0.89277 0.43800
C 	C 	0.87734 0.73354 0.87734 -0.11200
C 	C 	0.83082 0.76092 0.83082 0.44000
C 	C 	0.84697 0.75062 0.84697 -0.11300
C 	C 	0.93238 0.67250 0.93238 0.42400
C 	C 	0.94193 0.64320 0.94193 -0.09900
C 	C 	0.97000 0.55951 0.97000 0.44600
C 	C 	0.96035 0.58728 0.96035 -0.13500
O 	O 	0.91937 0.73213 0.91937 -0.76000
Cr	Cr	0.92426 0.39434 0.92426 1.58400
C 	C 	0.89277 0.48744 0.89277 0.43800
C 	C 	0.87734 0.51178 0.87734 -0.11200
C 	C 	0.83082 0.57743 0.83082 0.44000
C 	C 	0.84697 0.55545 0.84697 -0.11300
C 	C 	0.93238 0.46275 0.93238 0.42400
C 	C 	0.94193 0.47295 0.94193 -0.09900
C 	C 	0.97000 0.50049 0.97000 0.44600
C 	C 	0.96035 0.49202 0.96035 -0.13500
O 	O 	0.91937 0.42914 0.91937 -0.76000
Cr	Cr	0.92426 0.75715 0.39434 1.58400
C 	C 	0.89277 0.72702 0.48744 0.43800
C 	C 	0.87734 0.73354 0.51178 -0.11200
C 	C 	0.83082 0.76092 0.57743 0.44000
C 	C 	0.84697 0.75062 0.55545 -0.11400
C 	C 	0.93238 0.67250 0.46275 0.42400
C 	C 	0.94193 0.64320 0.47295 -0.09900
C 	C 	0.97000 0.55951 0.50049 0.44600
C 	C 	0.96035 0.58728 0.49202 -0.13500
O 	O 	0.91937 0.73213 0.42914 -0.76000
Cr	Cr	0.92426 0.39434 0.75715 1.58400
C 	C 	0.89277 0.48744 0.72702 0.43800
C 	C 	0.87734 0.51178 0.73354 -0.11200
C 	C 	0.83082 0.57743 0.76092 0.44000
C 	C 	0.84697 0.55545 0.75062 -0.11400
C 	C 	0.93238 0.46275 0.67250 0.42400
C 	C 	0.94193 0.47295 0.64320 -0.09900
C 	C 	0.97000 0.50049 0.55951 0.44600
C 	C 	0.96035 0.49202 0.58728 -0.13500
O 	O 	0.91937 0.42914 0.73213 -0.76000
Cr	Cr	0.39434 0.92426 0.92426 1.58400
C 	C 	0.48744 0.89277 0.89277 0.43800
C 	C 	0.51178 0.87734 0.87734 -0.11200
C 	C 	0.57743 0.83082 0.83082 0.44000
C 	C 	0.55545 0.84697 0.84697 -0.11300
C 	C 	0.46275 0.93238 0.93238 0.42400
C 	C 	0.47295 0.94193 0.94193 -0.09900
C 	C 	0.50049 0.97000 0.97000 0.44600
C 	C 	0.49202 0.96035 0.96035 -0.13500
O 	O 	0.42914 0.91937 0.91937 -0.76000
Cr	Cr	0.75715 0.92426 0.92426 1.58400
C 	C 	0.72702 0.89277 0.89277 0.43800
C 	C 	0.73354 0.87734 0.87734 -0.11200
C 	C 	0.76092 0.83082 0.83082 0.44000
C 	C 	0.75062 0.84697 0.84697 -0.11300
C 	C 	0.67250 0.93238 0.93238 0.42400
C 	C 	0.64320 0.94193 0.94193 -0.09900
C 	C 	0.55951 0.97000 0.97000 0.44600
C 	C 	0.58728 0.96035 0.96035 -0.13500
O 	O 	0.73213 0.91937 0.91937 -0.76000
C 	C 	0.44280 0.44280 0.51229 0.46200
C 	C 	0.44188 0.44188 0.53555 -0.14000
C 	C 	0.44280 0.44280 0.60211 0.46200
C 	C 	0.44188 0.44188 0.58069 -0.14000
C 	C 	0.51229 0.60211 0.44280 0.46200
C 	C 	0.53555 0.58069 0.44188 -0.14000
C 	C 	0.60211 0.51229 0.44280 0.46200
C 	C 	0.58069 0.53555 0.44188 -0.14000
C 	C 	0.51229 0.44280 0.44280 0.46200
C 	C 	0.53555 0.44188 0.44188 -0.14000
C 	C 	0.60211 0.44280 0.44280 0.46200
C 	C 	0.58069 0.44188 0.44188 -0.14000
C 	C 	0.44280 0.51229 0.60211 0.46200
C 	C 	0.44188 0.53555 0.58069 -0.14000
C 	C 	0.44280 0.60211 0.51229 0.46200
C 	C 	0.44188 0.58069 0.53555 -0.14000
C 	C 	0.44280 0.51229 0.44280 0.46200
C 	C 	0.44188 0.53555 0.44188 -0.14000
C 	C 	0.44280 0.60211 0.44280 0.46200
C 	C 	0.44188 0.58069 0.44188 -0.14000
C 	C 	0.60211 0.44280 0.51229 0.46200
C 	C 	0.58069 0.44188 0.53555 -0.14000
C 	C 	0.51229 0.44280 0.60211 0.46200
C 	C 	0.53555 0.44188 0.58069 -0.14000
C 	C 	0.80720 0.80720 0.64789 0.46200
C 	C 	0.80812 0.80812 0.66931 -0.14000
C 	C 	0.80720 0.80720 0.73771 0.46200
C 	C 	0.80812 0.80812 0.71445 -0.14000
C 	C 	0.73771 0.64789 0.80720 0.46200
C 	C 	0.71445 0.66931 0.80812 -0.14000
C 	C 	0.64789 0.73771 0.80720 0.46200
C 	C 	0.66931 0.71445 0.80812 -0.14000
C 	C 	0.73771 0.80720 0.64789 0.46200
C 	C 	0.71445 0.80812 0.66931 -0.14000
C 	C 	0.64789 0.80720 0.73771 0.46200
C 	C 	0.66931 0.80812 0.71445 -0.14000
C 	C 	0.80720 0.73771 0.80720 0.46200
C 	C 	0.80812 0.71445 0.80812 -0.14000
C 	C 	0.80720 0.64789 0.80720 0.46200
C 	C 	0.80812 0.66931 0.80812 -0.14000
C 	C 	0.80720 0.73771 0.64789 0.46200
C 	C 	0.80812 0.71445 0.66931 -0.14000
C 	C 	0.80720 0.64789 0.73771 0.46200
C 	C 	0.80812 0.66931 0.71445 -0.14000
C 	C 	0.64789 0.80720 0.80720 0.46200
C 	C 	0.66931 0.80812 0.80812 -0.14000
C 	C 	0.73771 0.80720 0.80720 0.46200
C 	C 	0.71445 0.80812 0.80812 -0.14000
O 	O 	0.45414 0.45414 0.45414 -0.75900
O 	O 	0.45414 0.45414 0.63759 -0.75900
O 	O 	0.45414 0.63759 0.45414 -0.75900
O 	O 	0.63759 0.45414 0.45414 -0.75900
O 	O 	0.79586 0.79586 0.61241 -0.75900
O 	O 	0.79586 0.79586 0.79586 -0.75900
O 	O 	0.79586 0.61241 0.79586 -0.75900
O 	O 	0.61241 0.79586 0.79586 -0.75900
