data_crystal

_cell_length_a 26.44610
_cell_length_b 16.54890
_cell_length_c 13.48940
_cell_angle_alpha 90.00000
_cell_angle_beta  104.28800
_cell_angle_gamma 90.00000

_symmetry_space_group_name_	'P 1'
_symmetry_space_group_name_H-M	'P 1'

loop_
_symmetry_equiv_pos_as_xyz
  x,y,z

loop_
_atom_site_label
_atom_site_type_symbol
_atom_site_fract_x
_atom_site_fract_y
_atom_site_fract_z
_atom_site_charge
C 	C 	0.43490 0.95320 0.04690 0.34900
C 	C 	0.48130 0.89810 0.07960 -0.07500
C 	C 	0.47870 0.81980 0.03990 -0.03900
H 	H 	0.44870 0.80220 0.99320 0.08200
C 	C 	0.52260 0.76700 0.07170 0.07200
C 	C 	0.56960 0.79270 0.14390 0.03500
C 	C 	0.57110 0.87140 0.18120 -0.10400
C 	C 	0.52700 0.92300 0.14950 0.02800
H 	H 	0.52860 0.97510 0.17620 0.02400
C 	C 	0.61980 0.74350 0.16490 0.04300
C 	C 	0.63760 0.69220 0.25090 0.06500
C 	C 	0.68600 0.65440 0.27120 -0.02900
H 	H 	0.69690 0.62220 0.32900 0.05800
C 	C 	0.71830 0.66550 0.20290 -0.09200
C 	C 	0.70170 0.71600 0.11900 0.03900
H 	H 	0.72300 0.72390 0.07430 0.02600
C 	C 	0.65330 0.75540 0.10050 -0.11800
C 	C 	0.63800 0.81250 0.00910 0.37300
C 	C 	0.77230 0.62490 0.22390 0.36900
C 	C 	0.61880 0.90260 0.26080 0.31600
N 	N 	0.51630 0.68580 0.02930 -0.00300
N 	N 	0.60390 0.67640 0.32260 -0.00300
O 	O 	0.43151 0.01000 0.11020 -0.44700
O 	O 	0.40214 0.94050 0.96140 -0.43100
O 	O 	0.55750 0.69250 0.29740 -0.07300
O 	O 	0.62470 0.64970 0.40880 -0.10000
O 	O 	0.48280 0.67360 0.95240 -0.08900
O 	O 	0.54730 0.63310 0.06890 -0.07700
O 	O 	0.79240 0.60300 0.31500 -0.48400
O 	O 	0.79310 0.61850 0.14960 -0.47000
O 	O 	0.65130 0.88620 0.02390 -0.57200
O 	O 	0.61520 0.78790 0.92310 -0.36200
O 	O 	0.63627 0.97310 0.24380 -0.55000
O 	O 	0.63745 0.86180 0.33940 -0.27200
Mn	Mn	0.87010 0.57834 0.14851 1.25700
Mn	Mn	0.82817 0.49661 0.38608 1.24800
C 	C 	0.93490 0.45320 0.04690 0.35800
C 	C 	0.98130 0.39810 0.07960 -0.07900
C 	C 	0.97870 0.31980 0.03990 -0.02900
H 	H 	0.94870 0.30220 0.99320 0.07800
C 	C 	0.02260 0.26700 0.07170 0.07000
C 	C 	0.06960 0.29270 0.14390 0.03600
C 	C 	0.07110 0.37140 0.18120 -0.10500
C 	C 	0.02700 0.42300 0.14950 0.03100
H 	H 	0.02860 0.47510 0.17620 0.02300
C 	C 	0.11980 0.24350 0.16490 0.04300
C 	C 	0.13760 0.19220 0.25090 0.06600
C 	C 	0.18600 0.15440 0.27120 -0.02900
H 	H 	0.19690 0.12220 0.32900 0.05800
C 	C 	0.21830 0.16550 0.20290 -0.09200
C 	C 	0.20170 0.21600 0.11900 0.04000
H 	H 	0.22300 0.22390 0.07430 0.02700
C 	C 	0.15330 0.25540 0.10050 -0.11900
C 	C 	0.13800 0.31250 0.00910 0.37800
C 	C 	0.27230 0.12490 0.22390 0.36900
C 	C 	0.11880 0.40260 0.26080 0.31700
N 	N 	0.01630 0.18580 0.02930 -0.00100
N 	N 	0.10390 0.17640 0.32260 -0.00300
O 	O 	0.93151 0.51000 0.11020 -0.45200
O 	O 	0.90214 0.44050 0.96140 -0.43700
O 	O 	0.05750 0.19250 0.29740 -0.07300
O 	O 	0.12470 0.14970 0.40880 -0.10000
O 	O 	0.98280 0.17360 0.95240 -0.09200
O 	O 	0.04730 0.13310 0.06890 -0.07600
O 	O 	0.29240 0.10300 0.31500 -0.48400
O 	O 	0.29310 0.11850 0.14960 -0.46900
O 	O 	0.15130 0.38620 0.02390 -0.57200
O 	O 	0.11520 0.28790 0.92310 -0.36600
O 	O 	0.13627 0.47310 0.24380 -0.55000
O 	O 	0.13745 0.36180 0.33940 -0.27200
Mn	Mn	0.37010 0.07834 0.14851 1.25800
Mn	Mn	0.32817 0.99661 0.38608 1.24800
C 	C 	0.56510 0.95320 0.45310 0.35700
C 	C 	0.51870 0.89810 0.42040 -0.07800
C 	C 	0.52130 0.81980 0.46010 -0.03100
H 	H 	0.55130 0.80220 0.50680 0.08000
C 	C 	0.47740 0.76700 0.42830 0.07100
C 	C 	0.43040 0.79270 0.35610 0.03600
C 	C 	0.42890 0.87140 0.31880 -0.10500
C 	C 	0.47300 0.92300 0.35050 0.03000
H 	H 	0.47140 0.97510 0.32380 0.02400
C 	C 	0.38020 0.74350 0.33510 0.04300
C 	C 	0.36240 0.69220 0.24910 0.06500
C 	C 	0.31400 0.65440 0.22880 -0.02900
H 	H 	0.30310 0.62220 0.17100 0.05700
C 	C 	0.28170 0.66550 0.29710 -0.09200
C 	C 	0.29830 0.71600 0.38100 0.04000
H 	H 	0.27700 0.72390 0.42570 0.02600
C 	C 	0.34670 0.75540 0.39950 -0.11800
C 	C 	0.36200 0.81250 0.49090 0.37600
C 	C 	0.22770 0.62490 0.27610 0.36900
C 	C 	0.38120 0.90260 0.23920 0.31700
N 	N 	0.48370 0.68580 0.47070 -0.00200
N 	N 	0.39610 0.67640 0.17740 -0.00300
O 	O 	0.56849 0.01000 0.38980 -0.45100
O 	O 	0.59786 0.94050 0.53860 -0.43600
O 	O 	0.44250 0.69250 0.20260 -0.07300
O 	O 	0.37530 0.64970 0.09120 -0.10100
O 	O 	0.51720 0.67360 0.54760 -0.09000
O 	O 	0.45270 0.63310 0.43110 -0.07600
O 	O 	0.20760 0.60300 0.18500 -0.48500
O 	O 	0.20690 0.61850 0.35040 -0.47000
O 	O 	0.34870 0.88620 0.47610 -0.57100
O 	O 	0.38480 0.78790 0.57690 -0.36400
O 	O 	0.36373 0.97310 0.25620 -0.55000
O 	O 	0.36255 0.86180 0.16060 -0.27200
Mn	Mn	0.12990 0.57834 0.35149 1.25700
Mn	Mn	0.17183 0.49661 0.11392 1.24800
C 	C 	0.06510 0.45320 0.45310 0.35800
C 	C 	0.01870 0.39810 0.42040 -0.07800
C 	C 	0.02130 0.31980 0.46010 -0.03100
H 	H 	0.05130 0.30220 0.50680 0.08000
C 	C 	0.97740 0.26700 0.42830 0.07100
C 	C 	0.93040 0.29270 0.35610 0.03600
C 	C 	0.92890 0.37140 0.31880 -0.10500
C 	C 	0.97300 0.42300 0.35050 0.03000
H 	H 	0.97140 0.47510 0.32380 0.02400
C 	C 	0.88020 0.24350 0.33510 0.04300
C 	C 	0.86240 0.19220 0.24910 0.06600
C 	C 	0.81400 0.15440 0.22880 -0.02900
H 	H 	0.80310 0.12220 0.17100 0.05800
C 	C 	0.78170 0.16550 0.29710 -0.09200
C 	C 	0.79830 0.21600 0.38100 0.03900
H 	H 	0.77700 0.22390 0.42570 0.02600
C 	C 	0.84670 0.25540 0.39950 -0.11800
C 	C 	0.86200 0.31250 0.49090 0.37600
C 	C 	0.72770 0.12490 0.27610 0.36900
C 	C 	0.88120 0.40260 0.23920 0.31700
N 	N 	0.98370 0.18580 0.47070 -0.00200
N 	N 	0.89610 0.17640 0.17740 -0.00300
O 	O 	0.06849 0.51000 0.38980 -0.45200
O 	O 	0.09786 0.44050 0.53860 -0.43600
O 	O 	0.94250 0.19250 0.20260 -0.07300
O 	O 	0.87530 0.14970 0.09120 -0.09900
O 	O 	0.01720 0.17360 0.54760 -0.09000
O 	O 	0.95270 0.13310 0.43110 -0.07600
O 	O 	0.70760 0.10300 0.18500 -0.48300
O 	O 	0.70690 0.11850 0.35040 -0.46900
O 	O 	0.84870 0.38620 0.47610 -0.57100
O 	O 	0.88480 0.28790 0.57690 -0.36400
O 	O 	0.86373 0.47310 0.25620 -0.54900
O 	O 	0.86255 0.36180 0.16060 -0.27200
Mn	Mn	0.62990 0.07834 0.35149 1.25700
Mn	Mn	0.67183 0.99661 0.11392 1.24700
C 	C 	0.56510 0.04680 0.95310 0.35000
C 	C 	0.51870 0.10190 0.92040 -0.07400
C 	C 	0.52130 0.18020 0.96010 -0.03800
H 	H 	0.55130 0.19780 0.00680 0.08300
C 	C 	0.47740 0.23300 0.92830 0.07200
C 	C 	0.43040 0.20730 0.85610 0.03500
C 	C 	0.42890 0.12860 0.81880 -0.10400
C 	C 	0.47300 0.07700 0.85050 0.02800
H 	H 	0.47140 0.02490 0.82380 0.02400
C 	C 	0.38020 0.25650 0.83510 0.04300
C 	C 	0.36240 0.30780 0.74910 0.06500
C 	C 	0.31400 0.34560 0.72880 -0.02900
H 	H 	0.30310 0.37780 0.67100 0.05800
C 	C 	0.28170 0.33450 0.79710 -0.09200
C 	C 	0.29830 0.28400 0.88100 0.03900
H 	H 	0.27700 0.27610 0.92570 0.02600
C 	C 	0.34670 0.24460 0.89950 -0.11800
C 	C 	0.36200 0.18750 0.99090 0.37300
C 	C 	0.22770 0.37510 0.77610 0.36900
C 	C 	0.38120 0.09740 0.73920 0.31600
N 	N 	0.48370 0.31420 0.97070 -0.00300
N 	N 	0.39610 0.32360 0.67740 -0.00300
O 	O 	0.56849 0.99000 0.88980 -0.44700
O 	O 	0.59786 0.05950 0.03860 -0.43100
O 	O 	0.44250 0.30750 0.70260 -0.07300
O 	O 	0.37530 0.35030 0.59120 -0.10000
O 	O 	0.51720 0.32640 0.04760 -0.08900
O 	O 	0.45270 0.36690 0.93110 -0.07700
O 	O 	0.20760 0.39700 0.68500 -0.48400
O 	O 	0.20690 0.38150 0.85040 -0.47000
O 	O 	0.34870 0.11380 0.97610 -0.57200
O 	O 	0.38480 0.21210 0.07690 -0.36200
O 	O 	0.36373 0.02690 0.75620 -0.55000
O 	O 	0.36255 0.13820 0.66060 -0.27200
Mn	Mn	0.12990 0.42166 0.85149 1.25700
Mn	Mn	0.17183 0.50339 0.61392 1.24800
C 	C 	0.06510 0.54680 0.95310 0.35800
C 	C 	0.01870 0.60190 0.92040 -0.07900
C 	C 	0.02130 0.68020 0.96010 -0.02900
H 	H 	0.05130 0.69780 0.00680 0.07800
C 	C 	0.97740 0.73300 0.92830 0.07000
C 	C 	0.93040 0.70730 0.85610 0.03600
C 	C 	0.92890 0.62860 0.81880 -0.10500
C 	C 	0.97300 0.57700 0.85050 0.03100
H 	H 	0.97140 0.52490 0.82380 0.02300
C 	C 	0.88020 0.75650 0.83510 0.04300
C 	C 	0.86240 0.80780 0.74910 0.06600
C 	C 	0.81400 0.84560 0.72880 -0.02900
H 	H 	0.80310 0.87780 0.67100 0.05800
C 	C 	0.78170 0.83450 0.79710 -0.09200
C 	C 	0.79830 0.78400 0.88100 0.04000
H 	H 	0.77700 0.77610 0.92570 0.02700
C 	C 	0.84670 0.74460 0.89950 -0.11900
C 	C 	0.86200 0.68750 0.99090 0.37800
C 	C 	0.72770 0.87510 0.77610 0.36900
C 	C 	0.88120 0.59740 0.73920 0.31700
N 	N 	0.98370 0.81420 0.97070 -0.00100
N 	N 	0.89610 0.82360 0.67740 -0.00300
O 	O 	0.06849 0.49000 0.88980 -0.45200
O 	O 	0.09786 0.55950 0.03860 -0.43700
O 	O 	0.94250 0.80750 0.70260 -0.07300
O 	O 	0.87530 0.85030 0.59120 -0.10000
O 	O 	0.01720 0.82640 0.04760 -0.09200
O 	O 	0.95270 0.86690 0.93110 -0.07600
O 	O 	0.70760 0.89700 0.68500 -0.48400
O 	O 	0.70690 0.88150 0.85040 -0.46900
O 	O 	0.84870 0.61380 0.97610 -0.57200
O 	O 	0.88480 0.71210 0.07690 -0.36600
O 	O 	0.86373 0.52690 0.75620 -0.55000
O 	O 	0.86255 0.63820 0.66060 -0.27200
Mn	Mn	0.62990 0.92166 0.85149 1.25800
Mn	Mn	0.67183 0.00339 0.61392 1.24800
C 	C 	0.43490 0.04680 0.54690 0.35700
C 	C 	0.48130 0.10190 0.57960 -0.07800
C 	C 	0.47870 0.18020 0.53990 -0.03100
H 	H 	0.44870 0.19780 0.49320 0.08000
C 	C 	0.52260 0.23300 0.57170 0.07100
C 	C 	0.56960 0.20730 0.64390 0.03600
C 	C 	0.57110 0.12860 0.68120 -0.10500
C 	C 	0.52700 0.07700 0.64950 0.03000
H 	H 	0.52860 0.02490 0.67620 0.02400
C 	C 	0.61980 0.25650 0.66490 0.04300
C 	C 	0.63760 0.30780 0.75090 0.06500
C 	C 	0.68600 0.34560 0.77120 -0.02900
H 	H 	0.69690 0.37780 0.82900 0.05700
C 	C 	0.71830 0.33450 0.70290 -0.09200
C 	C 	0.70170 0.28400 0.61900 0.04000
H 	H 	0.72300 0.27610 0.57430 0.02600
C 	C 	0.65330 0.24460 0.60050 -0.11800
C 	C 	0.63800 0.18750 0.50910 0.37600
C 	C 	0.77230 0.37510 0.72390 0.36900
C 	C 	0.61880 0.09740 0.76080 0.31700
N 	N 	0.51630 0.31420 0.52930 -0.00200
N 	N 	0.60390 0.32360 0.82260 -0.00300
O 	O 	0.43151 0.99000 0.61020 -0.45100
O 	O 	0.40214 0.05950 0.46140 -0.43600
O 	O 	0.55750 0.30750 0.79740 -0.07300
O 	O 	0.62470 0.35030 0.90880 -0.10100
O 	O 	0.48280 0.32640 0.45240 -0.09000
O 	O 	0.54730 0.36690 0.56890 -0.07600
O 	O 	0.79240 0.39700 0.81500 -0.48500
O 	O 	0.79310 0.38150 0.64960 -0.47000
O 	O 	0.65130 0.11380 0.52390 -0.57100
O 	O 	0.61520 0.21210 0.42310 -0.36400
O 	O 	0.63627 0.02690 0.74380 -0.55000
O 	O 	0.63745 0.13820 0.83940 -0.27200
Mn	Mn	0.87010 0.42166 0.64851 1.25700
Mn	Mn	0.82817 0.50339 0.88608 1.24800
C 	C 	0.93490 0.54680 0.54690 0.35800
C 	C 	0.98130 0.60190 0.57960 -0.07800
C 	C 	0.97870 0.68020 0.53990 -0.03100
H 	H 	0.94870 0.69780 0.49320 0.08000
C 	C 	0.02260 0.73300 0.57170 0.07100
C 	C 	0.06960 0.70730 0.64390 0.03600
C 	C 	0.07110 0.62860 0.68120 -0.10500
C 	C 	0.02700 0.57700 0.64950 0.03000
H 	H 	0.02860 0.52490 0.67620 0.02400
C 	C 	0.11980 0.75650 0.66490 0.04300
C 	C 	0.13760 0.80780 0.75090 0.06600
C 	C 	0.18600 0.84560 0.77120 -0.02900
H 	H 	0.19690 0.87780 0.82900 0.05800
C 	C 	0.21830 0.83450 0.70290 -0.09200
C 	C 	0.20170 0.78400 0.61900 0.03900
H 	H 	0.22300 0.77610 0.57430 0.02600
C 	C 	0.15330 0.74460 0.60050 -0.11800
C 	C 	0.13800 0.68750 0.50910 0.37600
C 	C 	0.27230 0.87510 0.72390 0.36900
C 	C 	0.11880 0.59740 0.76080 0.31700
N 	N 	0.01630 0.81420 0.52930 -0.00200
N 	N 	0.10390 0.82360 0.82260 -0.00300
O 	O 	0.93151 0.49000 0.61020 -0.45200
O 	O 	0.90214 0.55950 0.46140 -0.43600
O 	O 	0.05750 0.80750 0.79740 -0.07300
O 	O 	0.12470 0.85030 0.90880 -0.09900
O 	O 	0.98280 0.82640 0.45240 -0.09000
O 	O 	0.04730 0.86690 0.56890 -0.07600
O 	O 	0.29240 0.89700 0.81500 -0.48300
O 	O 	0.29310 0.88150 0.64960 -0.46900
O 	O 	0.15130 0.61380 0.52390 -0.57100
O 	O 	0.11520 0.71210 0.42310 -0.36400
O 	O 	0.13627 0.52690 0.74380 -0.54900
O 	O 	0.13745 0.63820 0.83940 -0.27200
Mn	Mn	0.37010 0.92166 0.64851 1.25700
Mn	Mn	0.32817 0.00339 0.88608 1.24700
