data_crystal

_cell_length_a 15.64030
_cell_length_b 10.21120
_cell_length_c 18.67950
_cell_angle_alpha 90.00000
_cell_angle_beta  105.48400
_cell_angle_gamma 90.00000

_symmetry_space_group_name_	'P 1'
_symmetry_space_group_name_H-M	'P 1'

loop_
_symmetry_equiv_pos_as_xyz
  x,y,z

loop_
_atom_site_label
_atom_site_type_symbol
_atom_site_fract_x
_atom_site_fract_y
_atom_site_fract_z
_atom_site_charge
V 	V 	0.16504 0.38063 0.08450 1.71500
V 	V 	0.24827 0.45311 0.28748 1.71400
P 	P 	0.20739 0.37992 0.92125 0.51500
P 	P 	0.83587 0.33230 0.83719 0.47800
O 	O 	0.20740 0.42730 0.99893 -0.53600
O 	O 	0.28866 0.29860 0.92129 -0.61500
O 	O 	0.82840 0.42880 0.89797 -0.53400
O 	O 	0.21170 0.35710 0.19244 -1.30100
O 	O 	0.82420 0.39850 0.76186 -0.57600
O 	O 	0.76885 0.22230 0.83434 -0.55500
O 	O 	0.20363 0.50340 0.87359 -0.52800
C 	C 	0.11000 0.28240 0.88530 -0.39900
H 	H 	0.11360 0.24270 0.83780 0.10400
H 	H 	0.10990 0.21010 0.92050 0.09100
C 	C 	0.94470 0.26120 0.86150 -0.36600
H 	H 	0.94820 0.19770 0.82240 0.06900
H 	H 	0.95240 0.21150 0.90830 0.07900
C 	C 	0.02180 0.35690 0.87160 0.18000
H 	H 	0.01310 0.41200 0.82670 -0.04300
H 	H 	0.02340 0.41510 0.91440 -0.09500
H 	H 	0.21700 0.29000 0.19600 0.59200
V 	V 	0.66504 0.88063 0.08450 1.71300
V 	V 	0.74827 0.95311 0.28748 1.71400
P 	P 	0.70739 0.87992 0.92125 0.52000
P 	P 	0.33587 0.83230 0.83719 0.48000
O 	O 	0.70740 0.92730 0.99893 -0.53300
O 	O 	0.78866 0.79860 0.92129 -0.61300
O 	O 	0.32840 0.92880 0.89797 -0.53100
O 	O 	0.71170 0.85710 0.19244 -1.30400
O 	O 	0.32420 0.89850 0.76186 -0.57400
O 	O 	0.26885 0.72230 0.83434 -0.55400
O 	O 	0.70363 0.00340 0.87359 -0.53300
C 	C 	0.61000 0.78240 0.88530 -0.39900
H 	H 	0.61360 0.74270 0.83780 0.10400
H 	H 	0.60990 0.71010 0.92050 0.09200
C 	C 	0.44470 0.76120 0.86150 -0.36500
H 	H 	0.44820 0.69770 0.82240 0.07000
H 	H 	0.45240 0.71150 0.90830 0.08000
C 	C 	0.52180 0.85690 0.87160 0.17900
H 	H 	0.51310 0.91200 0.82670 -0.04200
H 	H 	0.52340 0.91510 0.91440 -0.09400
H 	H 	0.71700 0.79000 0.19600 0.59300
V 	V 	0.83496 0.38063 0.41550 1.71600
V 	V 	0.75173 0.45311 0.21252 1.71500
P 	P 	0.79261 0.37992 0.57875 0.51700
P 	P 	0.16413 0.33230 0.66281 0.48000
O 	O 	0.79260 0.42730 0.50107 -0.53500
O 	O 	0.71134 0.29860 0.57871 -0.61400
O 	O 	0.17160 0.42880 0.60203 -0.53400
O 	O 	0.78830 0.35710 0.30756 -1.30100
O 	O 	0.17580 0.39850 0.73814 -0.57600
O 	O 	0.23115 0.22230 0.66566 -0.55400
O 	O 	0.79637 0.50340 0.62641 -0.52800
C 	C 	0.89000 0.28240 0.61470 -0.39900
H 	H 	0.88640 0.24270 0.66220 0.10400
H 	H 	0.89010 0.21010 0.57950 0.09300
C 	C 	0.05530 0.26120 0.63850 -0.36500
H 	H 	0.05180 0.19770 0.67760 0.07000
H 	H 	0.04760 0.21150 0.59170 0.08000
C 	C 	0.97820 0.35690 0.62840 0.18000
H 	H 	0.98690 0.41200 0.67330 -0.04300
H 	H 	0.97660 0.41510 0.58560 -0.09600
H 	H 	0.78300 0.29000 0.30400 0.59200
V 	V 	0.33496 0.88063 0.41550 1.71500
V 	V 	0.25173 0.95311 0.21252 1.71400
P 	P 	0.29261 0.87992 0.57875 0.51800
P 	P 	0.66413 0.83230 0.66281 0.48000
O 	O 	0.29260 0.92730 0.50107 -0.53500
O 	O 	0.21134 0.79860 0.57871 -0.61300
O 	O 	0.67160 0.92880 0.60203 -0.53300
O 	O 	0.28830 0.85710 0.30756 -1.30200
O 	O 	0.67580 0.89850 0.73814 -0.57400
O 	O 	0.73115 0.72230 0.66566 -0.55400
O 	O 	0.29637 0.00340 0.62641 -0.53000
C 	C 	0.39000 0.78240 0.61470 -0.39900
H 	H 	0.38640 0.74270 0.66220 0.10500
H 	H 	0.39010 0.71010 0.57950 0.09200
C 	C 	0.55530 0.76120 0.63850 -0.36500
H 	H 	0.55180 0.69770 0.67760 0.07000
H 	H 	0.54760 0.71150 0.59170 0.08000
C 	C 	0.47820 0.85690 0.62840 0.18000
H 	H 	0.48690 0.91200 0.67330 -0.04200
H 	H 	0.47660 0.91510 0.58560 -0.09500
H 	H 	0.28300 0.79000 0.30400 0.59200
V 	V 	0.83496 0.61937 0.91550 1.71600
V 	V 	0.75173 0.54689 0.71252 1.71500
P 	P 	0.79261 0.62008 0.07875 0.51600
P 	P 	0.16413 0.66770 0.16281 0.47900
O 	O 	0.79260 0.57270 0.00107 -0.53600
O 	O 	0.71134 0.70140 0.07871 -0.61500
O 	O 	0.17160 0.57120 0.10203 -0.53400
O 	O 	0.78830 0.64290 0.80756 -1.30100
O 	O 	0.17580 0.60150 0.23814 -0.57600
O 	O 	0.23115 0.77770 0.16566 -0.55500
O 	O 	0.79637 0.49660 0.12641 -0.52800
C 	C 	0.89000 0.71760 0.11470 -0.39900
H 	H 	0.88640 0.75730 0.16220 0.10400
H 	H 	0.89010 0.78990 0.07950 0.09100
C 	C 	0.05530 0.73880 0.13850 -0.36600
H 	H 	0.05180 0.80230 0.17760 0.06900
H 	H 	0.04760 0.78850 0.09170 0.07900
C 	C 	0.97820 0.64310 0.12840 0.18000
H 	H 	0.98690 0.58800 0.17330 -0.04300
H 	H 	0.97660 0.58490 0.08560 -0.09500
H 	H 	0.78300 0.71000 0.80400 0.59200
V 	V 	0.33496 0.11937 0.91550 1.71300
V 	V 	0.25173 0.04689 0.71252 1.71400
P 	P 	0.29261 0.12008 0.07875 0.52000
P 	P 	0.66413 0.16770 0.16281 0.48000
O 	O 	0.29260 0.07270 0.00107 -0.53300
O 	O 	0.21134 0.20140 0.07871 -0.61300
O 	O 	0.67160 0.07120 0.10203 -0.53100
O 	O 	0.28830 0.14290 0.80756 -1.30400
O 	O 	0.67580 0.10150 0.23814 -0.57400
O 	O 	0.73115 0.27770 0.16566 -0.55400
O 	O 	0.29637 0.99660 0.12641 -0.53300
C 	C 	0.39000 0.21760 0.11470 -0.39900
H 	H 	0.38640 0.25730 0.16220 0.10400
H 	H 	0.39010 0.28990 0.07950 0.09200
C 	C 	0.55530 0.23880 0.13850 -0.36500
H 	H 	0.55180 0.30230 0.17760 0.07000
H 	H 	0.54760 0.28850 0.09170 0.08000
C 	C 	0.47820 0.14310 0.12840 0.17900
H 	H 	0.48690 0.08800 0.17330 -0.04200
H 	H 	0.47660 0.08490 0.08560 -0.09400
H 	H 	0.28300 0.21000 0.80400 0.59300
V 	V 	0.16504 0.61937 0.58450 1.71600
V 	V 	0.24827 0.54689 0.78748 1.71500
P 	P 	0.20739 0.62008 0.42125 0.51700
P 	P 	0.83587 0.66770 0.33719 0.48000
O 	O 	0.20740 0.57270 0.49893 -0.53500
O 	O 	0.28866 0.70140 0.42129 -0.61400
O 	O 	0.82840 0.57120 0.39797 -0.53400
O 	O 	0.21170 0.64290 0.69244 -1.30100
O 	O 	0.82420 0.60150 0.26186 -0.57600
O 	O 	0.76885 0.77770 0.33434 -0.55400
O 	O 	0.20363 0.49660 0.37359 -0.52800
C 	C 	0.11000 0.71760 0.38530 -0.39900
H 	H 	0.11360 0.75730 0.33780 0.10400
H 	H 	0.10990 0.78990 0.42050 0.09300
C 	C 	0.94470 0.73880 0.36150 -0.36500
H 	H 	0.94820 0.80230 0.32240 0.07000
H 	H 	0.95240 0.78850 0.40830 0.08000
C 	C 	0.02180 0.64310 0.37160 0.18000
H 	H 	0.01310 0.58800 0.32670 -0.04300
H 	H 	0.02340 0.58490 0.41440 -0.09600
H 	H 	0.21700 0.71000 0.69600 0.59200
V 	V 	0.66504 0.11937 0.58450 1.71500
V 	V 	0.74827 0.04689 0.78748 1.71400
P 	P 	0.70739 0.12008 0.42125 0.51800
P 	P 	0.33587 0.16770 0.33719 0.48000
O 	O 	0.70740 0.07270 0.49893 -0.53500
O 	O 	0.78866 0.20140 0.42129 -0.61300
O 	O 	0.32840 0.07120 0.39797 -0.53300
O 	O 	0.71170 0.14290 0.69244 -1.30200
O 	O 	0.32420 0.10150 0.26186 -0.57400
O 	O 	0.26885 0.27770 0.33434 -0.55400
O 	O 	0.70363 0.99660 0.37359 -0.53000
C 	C 	0.61000 0.21760 0.38530 -0.39900
H 	H 	0.61360 0.25730 0.33780 0.10500
H 	H 	0.60990 0.28990 0.42050 0.09200
C 	C 	0.44470 0.23880 0.36150 -0.36500
H 	H 	0.44820 0.30230 0.32240 0.07000
H 	H 	0.45240 0.28850 0.40830 0.08000
C 	C 	0.52180 0.14310 0.37160 0.18000
H 	H 	0.51310 0.08800 0.32670 -0.04200
H 	H 	0.52340 0.08490 0.41440 -0.09500
H 	H 	0.71700 0.21000 0.69600 0.59200
