data_crystal

_cell_length_a 16.32480
_cell_length_b 13.33610
_cell_length_c 10.10190
_cell_angle_alpha 90.00000
_cell_angle_beta  89.99400
_cell_angle_gamma 90.00000

_symmetry_space_group_name_	'P 1'
_symmetry_space_group_name_H-M	'P 1'

loop_
_symmetry_equiv_pos_as_xyz
  x,y,z

loop_
_atom_site_label
_atom_site_type_symbol
_atom_site_fract_x
_atom_site_fract_y
_atom_site_fract_z
_atom_site_charge
V 	V 	0.02370 0.54667 0.24768 1.70600
V 	V 	0.25003 0.24997 0.53647 1.71200
V 	V 	0.47634 0.54669 0.74768 1.70900
P 	P 	0.08665 0.39478 0.49759 0.49400
P 	P 	0.08569 0.10619 0.51492 0.48300
P 	P 	0.41433 0.39385 0.51499 0.48500
P 	P 	0.41335 0.10517 0.49760 0.49300
O 	O 	0.07158 0.47978 0.40110 -0.54900
O 	O 	0.09529 0.04260 0.64037 -0.53200
O 	O 	0.07517 0.42831 0.64169 -0.53200
O 	O 	0.05471 0.04468 0.39886 -0.53700
O 	O 	0.16850 0.15138 0.47893 -0.53100
O 	O 	0.32556 0.14287 0.48187 -0.52700
O 	O 	0.17440 0.35714 0.48201 -0.52700
O 	O 	0.33146 0.34857 0.47903 -0.53100
O 	O 	0.40478 0.45765 0.64042 -0.54000
O 	O 	0.42832 0.02006 0.40120 -0.54900
O 	O 	0.44518 0.45531 0.39876 -0.54200
O 	O 	0.42481 0.07157 0.64180 -0.53200
C 	C 	0.01441 0.29675 0.46070 -0.24200
H 	H 	0.95980 0.32550 0.46170 0.03900
H 	H 	0.02480 0.27320 0.37150 0.04100
C 	C 	0.01507 0.20551 0.55420 -0.21900
H 	H 	0.96030 0.17740 0.55600 0.02600
H 	H 	0.02730 0.22910 0.64280 0.03100
C 	C 	0.48488 0.29457 0.55430 -0.24500
H 	H 	0.53970 0.32270 0.55630 0.04400
H 	H 	0.47260 0.27090 0.64290 0.03500
C 	C 	0.48564 0.20328 0.46080 -0.24400
H 	H 	0.47520 0.22680 0.37150 0.04100
H 	H 	0.54020 0.17460 0.46180 0.04300
V 	V 	0.97630 0.04667 0.25232 1.69700
V 	V 	0.74997 0.74997 0.96353 1.70700
V 	V 	0.52366 0.04669 0.75232 1.70900
P 	P 	0.91335 0.89478 0.00241 0.49600
P 	P 	0.91431 0.60619 0.98508 0.47900
P 	P 	0.58567 0.89385 0.98501 0.47100
P 	P 	0.58665 0.60517 0.00240 0.49400
O 	O 	0.92842 0.97978 0.09890 -0.53500
O 	O 	0.90471 0.54260 0.85963 -0.54100
O 	O 	0.92483 0.92831 0.85831 -0.53900
O 	O 	0.94529 0.54468 0.10114 -0.53500
O 	O 	0.83150 0.65138 0.02107 -0.52400
O 	O 	0.67444 0.64287 0.01813 -0.52500
O 	O 	0.82560 0.85714 0.01799 -0.52200
O 	O 	0.66854 0.84857 0.02097 -0.52200
O 	O 	0.59522 0.95765 0.85958 -0.54100
O 	O 	0.57168 0.52006 0.09880 -0.54800
O 	O 	0.55482 0.95531 0.10124 -0.53400
O 	O 	0.57519 0.57157 0.85820 -0.53500
C 	C 	0.98559 0.79675 0.03930 -0.18000
H 	H 	0.04020 0.82550 0.03830 0.01000
H 	H 	0.97520 0.77320 0.12850 0.02700
C 	C 	0.98493 0.70551 0.94580 -0.28300
H 	H 	0.03970 0.67740 0.94400 0.05400
H 	H 	0.97270 0.72910 0.85720 0.04500
C 	C 	0.51512 0.79457 0.94570 -0.24900
H 	H 	0.46030 0.82270 0.94370 0.04200
H 	H 	0.52740 0.77090 0.85710 0.03500
C 	C 	0.51436 0.70328 0.03920 -0.23900
H 	H 	0.52480 0.72680 0.12850 0.04000
H 	H 	0.45980 0.67460 0.03820 0.04300
V 	V 	0.97630 0.45333 0.75232 1.70600
V 	V 	0.74997 0.75003 0.46353 1.71200
V 	V 	0.52366 0.45331 0.25232 1.70900
P 	P 	0.91335 0.60522 0.50241 0.49400
P 	P 	0.91431 0.89381 0.48508 0.48300
P 	P 	0.58567 0.60615 0.48501 0.48500
P 	P 	0.58665 0.89483 0.50240 0.49300
O 	O 	0.92842 0.52022 0.59890 -0.54900
O 	O 	0.90471 0.95740 0.35963 -0.53200
O 	O 	0.92483 0.57169 0.35831 -0.53200
O 	O 	0.94529 0.95532 0.60114 -0.53700
O 	O 	0.83150 0.84862 0.52107 -0.53100
O 	O 	0.67444 0.85713 0.51813 -0.52700
O 	O 	0.82560 0.64286 0.51799 -0.52700
O 	O 	0.66854 0.65143 0.52097 -0.53100
O 	O 	0.59522 0.54235 0.35958 -0.54000
O 	O 	0.57168 0.97994 0.59880 -0.54900
O 	O 	0.55482 0.54469 0.60124 -0.54200
O 	O 	0.57519 0.92843 0.35820 -0.53200
C 	C 	0.98559 0.70325 0.53930 -0.24200
H 	H 	0.04020 0.67450 0.53830 0.03900
H 	H 	0.97520 0.72680 0.62850 0.04100
C 	C 	0.98493 0.79449 0.44580 -0.21900
H 	H 	0.03970 0.82260 0.44400 0.02600
H 	H 	0.97270 0.77090 0.35720 0.03100
C 	C 	0.51512 0.70543 0.44570 -0.24500
H 	H 	0.46030 0.67730 0.44370 0.04400
H 	H 	0.52740 0.72910 0.35710 0.03500
C 	C 	0.51436 0.79672 0.53920 -0.24400
H 	H 	0.52480 0.77320 0.62850 0.04100
H 	H 	0.45980 0.82540 0.53820 0.04300
V 	V 	0.02370 0.95333 0.74768 1.69700
V 	V 	0.25003 0.25003 0.03647 1.70700
V 	V 	0.47634 0.95331 0.24768 1.70900
P 	P 	0.08665 0.10522 0.99759 0.49600
P 	P 	0.08569 0.39381 0.01492 0.47900
P 	P 	0.41433 0.10615 0.01499 0.47100
P 	P 	0.41335 0.39483 0.99760 0.49400
O 	O 	0.07158 0.02022 0.90110 -0.53500
O 	O 	0.09529 0.45740 0.14037 -0.54100
O 	O 	0.07517 0.07169 0.14169 -0.53900
O 	O 	0.05471 0.45532 0.89886 -0.53500
O 	O 	0.16850 0.34862 0.97893 -0.52400
O 	O 	0.32556 0.35713 0.98187 -0.52500
O 	O 	0.17440 0.14286 0.98201 -0.52200
O 	O 	0.33146 0.15143 0.97903 -0.52200
O 	O 	0.40478 0.04235 0.14042 -0.54100
O 	O 	0.42832 0.47994 0.90120 -0.54800
O 	O 	0.44518 0.04469 0.89876 -0.53400
O 	O 	0.42481 0.42843 0.14180 -0.53500
C 	C 	0.01441 0.20325 0.96070 -0.18000
H 	H 	0.95980 0.17450 0.96170 0.01000
H 	H 	0.02480 0.22680 0.87150 0.02700
C 	C 	0.01507 0.29449 0.05420 -0.28300
H 	H 	0.96030 0.32260 0.05600 0.05400
H 	H 	0.02730 0.27090 0.14280 0.04500
C 	C 	0.48488 0.20543 0.05430 -0.24900
H 	H 	0.53970 0.17730 0.05630 0.04200
H 	H 	0.47260 0.22910 0.14290 0.03500
C 	C 	0.48564 0.29672 0.96080 -0.23900
H 	H 	0.47520 0.27320 0.87150 0.04000
H 	H 	0.54020 0.32540 0.96180 0.04300
