data_crystal

_cell_length_a 33.46490
_cell_length_b 33.47550
_cell_length_c 26.62220
_cell_angle_alpha 90.00000
_cell_angle_beta  127.58100
_cell_angle_gamma 90.00000

_symmetry_space_group_name_	'P 1'
_symmetry_space_group_name_H-M	'P 1'

loop_
_symmetry_equiv_pos_as_xyz
  x,y,z

loop_
_atom_site_label
_atom_site_type_symbol
_atom_site_fract_x
_atom_site_fract_y
_atom_site_fract_z
_atom_site_charge
As	As	0.36191 0.87278 0.51968 0.40000
As	As	0.19808 0.86890 0.16285 0.38700
As	As	0.38266 0.63215 0.02096 0.41500
As	As	0.19396 0.61145 0.66583 0.40100
C 	C 	0.44060 0.45600 0.97700 -0.00100
C 	C 	0.38750 0.57420 0.68600 0.32700
C 	C 	0.40060 0.46360 0.77040 -0.09900
H 	H 	0.40240 0.43980 0.78980 0.03800
C 	C 	0.39230 0.53430 0.71450 -0.02400
C 	C 	0.04340 0.79370 0.20740 0.00600
C 	C 	0.41280 0.44800 0.00430 0.29600
C 	C 	0.16770 0.71200 0.42100 -0.13200
H 	H 	0.13480 0.71830 0.40500 0.04700
C 	C 	0.26290 0.69510 0.46950 -0.01500
C 	C 	0.03760 0.72620 0.23400 0.05200
H 	H 	0.02040 0.70610 0.23770 0.00500
C 	C 	0.19670 0.74120 0.41480 0.06900
H 	H 	0.18240 0.76530 0.39410 -0.02400
C 	C 	0.31750 0.68930 0.49890 0.27800
C 	C 	0.01290 0.76360 0.20080 -0.12400
H 	H 	0.97820 0.76680 0.17650 0.08100
C 	C 	0.47570 0.43080 0.98000 -0.14800
H 	H 	0.48470 0.40600 0.00030 0.08900
C 	C 	0.37480 0.49990 0.77300 0.05300
H 	H 	0.36040 0.49850 0.79410 -0.01500
C 	C 	0.42160 0.46630 0.73820 -0.00700
H 	H 	0.43850 0.44480 0.73660 0.03700
C 	C 	0.49550 0.44530 0.95200 0.12600
H 	H 	0.52010 0.43000 0.95470 -0.00900
C 	C 	0.48350 0.47710 0.92230 -0.21400
H 	H 	0.49600 0.48400 0.90050 0.07900
C 	C 	0.44900 0.50390 0.92280 0.11800
H 	H 	0.44190 0.52890 0.90400 -0.04000
C 	C 	0.41620 0.50230 0.70890 -0.05300
H 	H 	0.42830 0.50510 0.68560 0.04600
C 	C 	0.18550 0.67860 0.44720 0.03600
H 	H 	0.16490 0.66070 0.44870 0.02200
C 	C 	0.23480 0.66760 0.47400 -0.07600
H 	H 	0.24800 0.64300 0.49380 0.04700
C 	C 	0.11310 0.75440 0.25960 0.09900
H 	H 	0.14680 0.75100 0.27720 -0.03400
C 	C 	0.08610 0.72230 0.25820 -0.15900
H 	H 	0.10200 0.69780 0.27450 0.05700
C 	C 	0.02440 0.83480 0.18200 0.29300
Dy	Dy	0.21826 0.87556 0.41516 1.68500
Dy	Dy	0.24942 0.77404 0.26428 1.64900
Dy	Dy	0.42043 0.63277 0.91212 1.65000
Dy	Dy	0.24719 0.52247 0.77691 1.66000
K 	K 	0.32910 0.57630 0.51960 0.64900
K 	K 	0.41640 0.66600 0.51280 0.65200
K 	K 	0.40380 0.66430 0.66820 0.65000
K 	K 	0.99340 0.92560 0.16800 0.65300
N 	N 	0.42750 0.49310 0.94940 -0.20500
N 	N 	0.37300 0.53460 0.74510 -0.18400
N 	N 	0.24560 0.73240 0.43990 -0.18600
N 	N 	0.09150 0.78980 0.23610 -0.19500
O 	O 	0.48680 0.92370 0.61700 -0.45500
O 	O 	0.44280 0.92270 0.66950 -0.45400
O 	O 	0.48690 0.85790 0.67230 -0.44400
O 	O 	0.38460 0.98440 0.60130 -0.43300
O 	O 	0.38810 0.88020 0.69400 -0.43500
O 	O 	0.43280 0.81290 0.69450 -0.44200
O 	O 	0.43060 0.98500 0.55090 -0.45500
O 	O 	0.49680 0.87710 0.54120 -0.44200
O 	O 	0.42190 0.93030 0.47140 -0.44400
O 	O 	0.33180 0.99220 0.47780 -0.43600
O 	O 	0.37470 0.92510 0.53480 -0.35200
O 	O 	0.32710 0.92670 0.59390 -0.45300
O 	O 	0.42170 0.85970 0.53880 -0.37600
O 	O 	0.37630 0.85750 0.59410 -0.38100
O 	O 	0.33210 0.81550 0.63010 -0.43700
O 	O 	0.38390 0.74190 0.64960 -0.41900
O 	O 	0.32280 0.77880 0.53470 -0.47000
O 	O 	0.42110 0.78620 0.59160 -0.48900
O 	O 	0.26980 0.86350 0.52150 -0.55400
O 	O 	0.26980 0.93210 0.46600 -0.55200
O 	O 	0.49740 0.81180 0.59580 -0.45200
O 	O 	0.43560 0.81730 0.47210 -0.47600
O 	O 	0.44890 0.74380 0.52910 -0.43600
O 	O 	0.35750 0.79200 0.46780 -0.50500
O 	O 	0.32530 0.93970 0.39130 -0.46300
O 	O 	0.35820 0.86900 0.40930 -0.49100
O 	O 	0.06160 0.95180 0.15020 -0.41800
O 	O 	0.16270 0.69500 0.71290 -0.45600
O 	O 	0.20340 0.94930 0.06920 -0.46000
O 	O 	0.27940 0.95350 0.21630 -0.43700
O 	O 	0.24480 0.87520 0.15050 -0.35700
O 	O 	0.19750 0.65980 0.64160 -0.38100
O 	O 	0.09280 0.68650 0.56610 -0.44900
O 	O 	0.10140 0.96840 0.08690 -0.45000
O 	O 	0.38750 0.60360 0.81370 -0.59800
O 	O 	0.26260 0.88370 0.38000 -0.56400
O 	O 	0.17910 0.87830 0.01740 -0.45300
O 	O 	0.35430 0.68490 0.11890 -0.45000
O 	O 	0.16400 0.96470 0.21180 -0.45800
O 	O 	0.19350 0.64140 0.79380 -0.47500
O 	O 	0.33770 0.63600 0.87640 -0.57800
O 	O 	0.25890 0.58670 0.80870 -0.57600
O 	O 	0.06970 0.66700 0.64040 -0.44400
O 	O 	0.34060 0.54960 0.97840 -0.50300
O 	O 	0.36820 0.60100 0.69760 -0.42700
O 	O 	0.41890 0.68890 0.95950 -0.56500
O 	O 	0.47620 0.62500 0.01970 -0.55000
O 	O 	0.27060 0.71080 0.70180 -0.45200
O 	O 	0.17490 0.92070 0.14480 -0.38400
O 	O 	0.30410 0.55570 0.76580 -0.53000
O 	O 	0.27550 0.62300 0.91230 -0.50100
O 	O 	0.40130 0.54810 0.09990 -0.49400
O 	O 	0.18440 0.80830 0.25720 -0.52300
O 	O 	0.25550 0.81420 0.42060 -0.52900
O 	O 	0.24030 0.63040 0.58810 -0.50300
O 	O 	0.10710 0.53800 0.60260 -0.46800
O 	O 	0.16380 0.54610 0.72570 -0.56700
O 	O 	0.27400 0.85420 0.08310 -0.42800
O 	O 	0.20380 0.51780 0.66870 -0.56000
O 	O 	0.32590 0.89470 0.29070 -0.48800
O 	O 	0.27140 0.63500 0.04740 -0.44500
O 	O 	0.14030 0.89000 0.21240 -0.48900
O 	O 	0.19340 0.99360 0.14440 -0.44100
O 	O 	0.26540 0.57230 0.98270 -0.45400
O 	O 	0.43820 0.53860 0.03980 -0.47200
O 	O 	0.27450 0.68460 0.97220 -0.45000
O 	O 	0.48620 0.58150 0.19930 -0.45700
O 	O 	0.06940 0.61480 0.51870 -0.46000
O 	O 	0.28210 0.56570 0.65280 -0.48600
O 	O 	0.39300 0.56910 0.92620 -0.54900
O 	O 	0.16200 0.59150 0.48910 -0.45100
O 	O 	0.05710 0.85750 0.98610 -0.45600
O 	O 	0.97700 0.83970 0.14650 -0.37600
O 	O 	0.34350 0.61860 0.04260 -0.37800
O 	O 	0.48520 0.68880 0.08490 -0.46200
O 	O 	0.25210 0.56440 0.53230 -0.48200
O 	O 	0.42170 0.41590 0.03540 -0.38900
O 	O 	0.38030 0.47370 0.99360 -0.42400
O 	O 	0.33610 0.74310 0.04100 -0.43700
O 	O 	0.40360 0.57990 0.65480 -0.40500
O 	O 	0.09540 0.82360 0.14570 -0.47600
O 	O 	0.27270 0.83700 0.30180 -0.57000
O 	O 	0.14670 0.84810 0.08660 -0.37800
O 	O 	0.15280 0.85360 0.31490 -0.59800
O 	O 	0.12810 0.65550 0.50550 -0.43900
O 	O 	0.43370 0.74830 0.09030 -0.42800
O 	O 	0.33660 0.71740 0.48300 -0.39500
O 	O 	0.33010 0.57250 0.10980 -0.44700
O 	O 	0.27290 0.75530 0.36510 -0.60200
O 	O 	0.17150 0.58650 0.59230 -0.38500
O 	O 	0.11180 0.92390 0.01250 -0.45300
O 	O 	0.07410 0.89230 0.08620 -0.48500
O 	O 	0.52790 0.64660 0.19080 -0.44000
O 	O 	0.37990 0.68450 0.02780 -0.35200
O 	O 	0.28100 0.80010 0.21360 -0.56100
O 	O 	0.13680 0.61840 0.65600 -0.35400
O 	O 	0.10010 0.54580 0.49740 -0.43800
O 	O 	0.34240 0.66020 0.53370 -0.38800
O 	O 	0.18660 0.77400 0.15540 -0.55300
O 	O 	0.29850 0.92540 0.13900 -0.44400
O 	O 	0.10230 0.60260 0.71530 -0.46400
O 	O 	0.44220 0.62050 0.09500 -0.37900
O 	O 	0.29870 0.63470 0.71130 -0.49500
O 	O 	0.31510 0.50150 0.04580 -0.41200
O 	O 	0.19600 0.52440 0.55850 -0.45400
O 	O 	0.04380 0.59370 0.59090 -0.44600
O 	O 	0.08720 0.78740 0.04960 -0.46000
O 	O 	0.00460 0.82900 0.02650 -0.45600
O 	O 	0.24520 0.91860 0.27550 -0.48000
O 	O 	0.21010 0.70520 0.57550 -0.44900
O 	O 	0.28940 0.69160 0.88870 -0.46900
O 	O 	0.49760 0.50760 0.16210 -0.42900
O 	O 	0.05690 0.85930 0.19610 -0.42000
O 	O 	0.12300 0.81140 0.98760 -0.44100
O 	O 	0.17400 0.73410 0.63190 -0.45000
O 	O 	0.41020 0.62370 0.17620 -0.45400
O 	O 	0.33800 0.85730 0.20810 -0.44700
O 	O 	0.31140 0.69130 0.64050 -0.42300
O 	O 	0.32340 0.51080 0.87560 -0.60500
O 	O 	0.52240 0.58060 0.13150 -0.45600
O 	O 	0.21700 0.79890 0.08960 -0.46000
O 	O 	0.25400 0.66800 0.77240 -0.49200
O 	O 	0.36460 0.74850 0.96940 -0.45500
O 	O 	0.44760 0.68670 0.16710 -0.45700
W 	W 	0.44414 0.87007 0.69992 0.97600
W 	W 	0.44431 0.96269 0.62051 1.02300
W 	W 	0.50478 0.87050 0.62131 0.97400
W 	W 	0.31708 0.87259 0.60651 0.95600
W 	W 	0.37563 0.78867 0.61535 1.26000
W 	W 	0.43476 0.79190 0.53451 1.32100
W 	W 	0.43230 0.87469 0.46271 0.98800
W 	W 	0.37367 0.96818 0.45874 0.97300
W 	W 	0.31685 0.96208 0.52965 0.99400
W 	W 	0.29689 0.77201 0.44030 1.27400
W 	W 	0.29356 0.88423 0.34187 1.36300
W 	W 	0.13311 0.84066 0.23762 1.24200
W 	W 	0.22724 0.96569 0.22294 0.99300
W 	W 	0.32388 0.90930 0.22827 0.99300
W 	W 	0.28347 0.81899 0.15436 1.00400
W 	W 	0.15578 0.78236 0.07305 0.99100
W 	W 	0.06636 0.83639 0.06257 1.30000
W 	W 	0.10876 0.93379 0.14618 1.27200
W 	W 	0.14884 0.96347 0.06377 1.02500
W 	W 	0.11113 0.86559 0.98347 0.96800
W 	W 	0.24261 0.90347 0.06643 0.99200
W 	W 	0.34329 0.63201 0.12775 0.98100
W 	W 	0.39577 0.72499 0.11471 0.97800
W 	W 	0.47865 0.63619 0.19966 1.01800
W 	W 	0.33260 0.55054 0.04772 1.29000
W 	W 	0.25866 0.62989 0.96938 1.00400
W 	W 	0.30643 0.72383 0.95354 0.98000
W 	W 	0.43143 0.72256 0.02032 1.00400
W 	W 	0.51206 0.63645 0.10316 0.98100
W 	W 	0.46934 0.55186 0.12316 1.26300
W 	W 	0.27389 0.63579 0.84255 1.42800
W 	W 	0.37514 0.52961 0.94961 1.31300
W 	W 	0.33314 0.58626 0.74116 1.28700
W 	W 	0.13141 0.65491 0.72880 1.00600
W 	W 	0.10359 0.56158 0.66515 1.02600
W 	W 	0.15254 0.52089 0.58614 0.97700
W 	W 	0.22808 0.57416 0.56802 1.34800
W 	W 	0.26270 0.67504 0.63994 1.31200
W 	W 	0.21759 0.71123 0.71364 0.99000
W 	W 	0.05448 0.64181 0.56777 0.99000
W 	W 	0.14121 0.70099 0.55567 0.95500
W 	W 	0.10513 0.59957 0.48640 0.99300
As	As	0.86191 0.37278 0.51968 0.40100
As	As	0.69808 0.36890 0.16285 0.38800
As	As	0.88266 0.13215 0.02096 0.41500
As	As	0.69396 0.11145 0.66583 0.40100
C 	C 	0.94060 0.95600 0.97700 0.02200
C 	C 	0.88750 0.07420 0.68600 0.32700
C 	C 	0.90060 0.96360 0.77040 -0.09900
H 	H 	0.90240 0.93980 0.78980 0.04000
C 	C 	0.89230 0.03430 0.71450 -0.02300
C 	C 	0.54340 0.29370 0.20740 -0.01500
C 	C 	0.91280 0.94800 0.00430 0.28900
C 	C 	0.66770 0.21200 0.42100 -0.13200
H 	H 	0.63480 0.21830 0.40500 0.04800
C 	C 	0.76290 0.19510 0.46950 -0.01500
C 	C 	0.53760 0.22620 0.23400 0.02300
H 	H 	0.52040 0.20610 0.23770 0.02100
C 	C 	0.69670 0.24120 0.41480 0.07000
H 	H 	0.68240 0.26530 0.39410 -0.02400
C 	C 	0.81750 0.18930 0.49890 0.27800
C 	C 	0.51290 0.26360 0.20080 -0.07200
H 	H 	0.47820 0.26680 0.17650 0.05300
C 	C 	0.97570 0.93080 0.98000 -0.20300
H 	H 	0.98470 0.90600 0.00030 0.11500
C 	C 	0.87480 0.99990 0.77300 0.05400
H 	H 	0.86040 0.99850 0.79410 -0.01600
C 	C 	0.92160 0.96630 0.73820 -0.00600
H 	H 	0.93850 0.94480 0.73660 0.03800
C 	C 	0.99550 0.94530 0.95200 0.22400
H 	H 	0.02010 0.93000 0.95470 -0.05300
C 	C 	0.98350 0.97710 0.92230 -0.28300
H 	H 	0.99600 0.98400 0.90050 0.10800
C 	C 	0.94900 0.00390 0.92280 0.14900
H 	H 	0.94190 0.02890 0.90400 -0.05000
C 	C 	0.91620 0.00230 0.70890 -0.05300
H 	H 	0.92830 0.00510 0.68560 0.04700
C 	C 	0.68550 0.17860 0.44720 0.03700
H 	H 	0.66490 0.16070 0.44870 0.02200
C 	C 	0.73480 0.16760 0.47400 -0.07600
H 	H 	0.74800 0.14300 0.49380 0.04800
C 	C 	0.61310 0.25440 0.25960 0.08800
H 	H 	0.64680 0.25100 0.27720 -0.03000
C 	C 	0.58610 0.22230 0.25820 -0.13700
H 	H 	0.60200 0.19780 0.27450 0.05000
C 	C 	0.52440 0.33480 0.18200 0.32100
Dy	Dy	0.71826 0.37556 0.41516 1.68900
Dy	Dy	0.74942 0.27404 0.26428 1.65100
Dy	Dy	0.92043 0.13277 0.91212 1.65500
Dy	Dy	0.74719 0.02247 0.77691 1.66100
K 	K 	0.82910 0.07630 0.51960 0.64900
K 	K 	0.91640 0.16600 0.51280 0.65300
K 	K 	0.90380 0.16430 0.66820 0.65000
K 	K 	0.49340 0.42560 0.16800 0.65000
N 	N 	0.92750 0.99310 0.94940 -0.21400
N 	N 	0.87300 0.03460 0.74510 -0.18400
N 	N 	0.74560 0.23240 0.43990 -0.18600
N 	N 	0.59150 0.28980 0.23610 -0.18800
O 	O 	0.98680 0.42370 0.61700 -0.44200
O 	O 	0.94280 0.42270 0.66950 -0.45300
O 	O 	0.98690 0.35790 0.67230 -0.43000
O 	O 	0.88460 0.48440 0.60130 -0.43200
O 	O 	0.88810 0.38020 0.69400 -0.43400
O 	O 	0.93280 0.31290 0.69450 -0.43900
O 	O 	0.93060 0.48500 0.55090 -0.45200
O 	O 	0.99680 0.37710 0.54120 -0.42900
O 	O 	0.92190 0.43030 0.47140 -0.44300
O 	O 	0.83180 0.49220 0.47780 -0.43600
O 	O 	0.87470 0.42510 0.53480 -0.35200
O 	O 	0.82710 0.42670 0.59390 -0.45300
O 	O 	0.92170 0.35970 0.53880 -0.37200
O 	O 	0.87630 0.35750 0.59410 -0.38200
O 	O 	0.83210 0.31550 0.63010 -0.43600
O 	O 	0.88390 0.24190 0.64960 -0.41800
O 	O 	0.82280 0.27880 0.53470 -0.47000
O 	O 	0.92110 0.28620 0.59160 -0.48700
O 	O 	0.76980 0.36350 0.52150 -0.55400
O 	O 	0.76980 0.43210 0.46600 -0.55200
O 	O 	0.99740 0.31180 0.59580 -0.43900
O 	O 	0.93560 0.31730 0.47210 -0.47400
O 	O 	0.94890 0.24380 0.52910 -0.43100
O 	O 	0.85750 0.29200 0.46780 -0.50500
O 	O 	0.82530 0.43970 0.39130 -0.46300
O 	O 	0.85820 0.36900 0.40930 -0.49100
O 	O 	0.56160 0.45180 0.15020 -0.41100
O 	O 	0.66270 0.19500 0.71290 -0.45600
O 	O 	0.70340 0.44930 0.06920 -0.46000
O 	O 	0.77940 0.45350 0.21630 -0.43700
O 	O 	0.74480 0.37520 0.15050 -0.35800
O 	O 	0.69750 0.15980 0.64160 -0.38100
O 	O 	0.59280 0.18650 0.56610 -0.44800
O 	O 	0.60140 0.46840 0.08690 -0.44600
O 	O 	0.88750 0.10360 0.81370 -0.59700
O 	O 	0.76260 0.38370 0.38000 -0.56400
O 	O 	0.67910 0.37830 0.01740 -0.45200
O 	O 	0.85430 0.18490 0.11890 -0.45000
O 	O 	0.66400 0.46470 0.21180 -0.45700
O 	O 	0.69350 0.14140 0.79380 -0.47500
O 	O 	0.83770 0.13600 0.87640 -0.57900
O 	O 	0.75890 0.08670 0.80870 -0.57600
O 	O 	0.56970 0.16700 0.64040 -0.44200
O 	O 	0.84060 0.04960 0.97840 -0.50400
O 	O 	0.86820 0.10100 0.69760 -0.42700
O 	O 	0.91890 0.18890 0.95950 -0.56500
O 	O 	0.97620 0.12500 0.01970 -0.53900
O 	O 	0.77060 0.21080 0.70180 -0.45100
O 	O 	0.67490 0.42070 0.14480 -0.38500
O 	O 	0.80410 0.05570 0.76580 -0.53000
O 	O 	0.77550 0.12300 0.91230 -0.50100
O 	O 	0.90130 0.04810 0.09990 -0.49500
O 	O 	0.68440 0.30830 0.25720 -0.52300
O 	O 	0.75550 0.31420 0.42060 -0.52900
O 	O 	0.74030 0.13040 0.58810 -0.50300
O 	O 	0.60710 0.03800 0.60260 -0.46700
O 	O 	0.66380 0.04610 0.72570 -0.56700
O 	O 	0.77400 0.35420 0.08310 -0.42700
O 	O 	0.70380 0.01780 0.66870 -0.56000
O 	O 	0.82590 0.39470 0.29070 -0.48700
O 	O 	0.77140 0.13500 0.04740 -0.44400
O 	O 	0.64030 0.39000 0.21240 -0.48900
O 	O 	0.69340 0.49360 0.14440 -0.44000
O 	O 	0.76540 0.07230 0.98270 -0.45400
O 	O 	0.93820 0.03860 0.03980 -0.47100
O 	O 	0.77450 0.18460 0.97220 -0.45000
O 	O 	0.98620 0.08150 0.19930 -0.45600
O 	O 	0.56940 0.11480 0.51870 -0.45900
O 	O 	0.78210 0.06570 0.65280 -0.48600
O 	O 	0.89300 0.06910 0.92620 -0.54900
O 	O 	0.66200 0.09150 0.48910 -0.45100
O 	O 	0.55710 0.35750 0.98610 -0.45400
O 	O 	0.47700 0.33970 0.14650 -0.39400
O 	O 	0.84350 0.11860 0.04260 -0.37800
O 	O 	0.98520 0.18880 0.08490 -0.45100
O 	O 	0.75210 0.06440 0.53230 -0.48200
O 	O 	0.92170 0.91590 0.03540 -0.38500
O 	O 	0.88030 0.97370 0.99360 -0.42200
O 	O 	0.83610 0.24310 0.04100 -0.43700
O 	O 	0.90360 0.07990 0.65480 -0.40400
O 	O 	0.59540 0.32360 0.14570 -0.47500
O 	O 	0.77270 0.33700 0.30180 -0.57000
O 	O 	0.64670 0.34810 0.08660 -0.37900
O 	O 	0.65280 0.35360 0.31490 -0.59700
O 	O 	0.62810 0.15550 0.50550 -0.43900
O 	O 	0.93370 0.24830 0.09030 -0.42500
O 	O 	0.83660 0.21740 0.48300 -0.39400
O 	O 	0.83010 0.07250 0.10980 -0.44700
O 	O 	0.77290 0.25530 0.36510 -0.60200
O 	O 	0.67150 0.08650 0.59230 -0.38600
O 	O 	0.61180 0.42390 0.01250 -0.45300
O 	O 	0.57410 0.39230 0.08620 -0.48200
O 	O 	0.02790 0.14660 0.19080 -0.45000
O 	O 	0.87990 0.18450 0.02780 -0.35200
O 	O 	0.78100 0.30010 0.21360 -0.56100
O 	O 	0.63680 0.11840 0.65600 -0.35500
O 	O 	0.60010 0.04580 0.49740 -0.43600
O 	O 	0.84240 0.16020 0.53370 -0.38700
O 	O 	0.68660 0.27400 0.15540 -0.55300
O 	O 	0.79850 0.42540 0.13900 -0.44300
O 	O 	0.60230 0.10260 0.71530 -0.46200
O 	O 	0.94220 0.12050 0.09500 -0.37500
O 	O 	0.79870 0.13470 0.71130 -0.49500
O 	O 	0.81510 0.00150 0.04580 -0.41200
O 	O 	0.69600 0.02440 0.55850 -0.45400
O 	O 	0.54380 0.09370 0.59090 -0.44300
O 	O 	0.58720 0.28740 0.04960 -0.45700
O 	O 	0.50460 0.32900 0.02650 -0.44700
O 	O 	0.74520 0.41860 0.27550 -0.48000
O 	O 	0.71010 0.20520 0.57550 -0.44900
O 	O 	0.78940 0.19160 0.88870 -0.46900
O 	O 	0.99760 0.00760 0.16210 -0.42500
O 	O 	0.55690 0.35930 0.19610 -0.42400
O 	O 	0.62300 0.31140 0.98760 -0.44000
O 	O 	0.67400 0.23410 0.63190 -0.44900
O 	O 	0.91020 0.12370 0.17620 -0.45500
O 	O 	0.83800 0.35730 0.20810 -0.44600
O 	O 	0.81140 0.19130 0.64050 -0.42300
O 	O 	0.82340 0.01080 0.87560 -0.60500
O 	O 	0.02240 0.08060 0.13150 -0.46400
O 	O 	0.71700 0.29890 0.08960 -0.46000
O 	O 	0.75400 0.16800 0.77240 -0.49200
O 	O 	0.86460 0.24850 0.96940 -0.45500
O 	O 	0.94760 0.18670 0.16710 -0.45600
W 	W 	0.94414 0.37007 0.69992 0.98000
W 	W 	0.94431 0.46269 0.62051 1.02600
W 	W 	0.00478 0.37050 0.62131 0.92600
W 	W 	0.81708 0.37259 0.60651 0.95800
W 	W 	0.87563 0.28867 0.61535 1.26000
W 	W 	0.93476 0.29190 0.53451 1.32000
W 	W 	0.93230 0.37469 0.46271 0.99000
W 	W 	0.87367 0.46818 0.45874 0.97600
W 	W 	0.81685 0.46208 0.52965 0.99600
W 	W 	0.79689 0.27201 0.44030 1.27400
W 	W 	0.79356 0.38423 0.34187 1.36400
W 	W 	0.63311 0.34066 0.23762 1.24300
W 	W 	0.72724 0.46569 0.22294 0.99400
W 	W 	0.82388 0.40930 0.22827 0.99600
W 	W 	0.78347 0.31899 0.15436 1.00500
W 	W 	0.65578 0.28236 0.07305 0.99400
W 	W 	0.56636 0.33639 0.06257 1.30100
W 	W 	0.60876 0.43379 0.14618 1.27300
W 	W 	0.64884 0.46347 0.06377 1.02900
W 	W 	0.61113 0.36559 0.98347 0.97100
W 	W 	0.74261 0.40347 0.06643 0.99300
W 	W 	0.84329 0.13201 0.12775 0.98200
W 	W 	0.89577 0.22499 0.11471 0.98100
W 	W 	0.97865 0.13619 0.19966 1.03500
W 	W 	0.83260 0.05054 0.04772 1.29100
W 	W 	0.75866 0.12989 0.96938 1.00500
W 	W 	0.80643 0.22383 0.95354 0.98100
W 	W 	0.93143 0.22256 0.02032 1.00800
W 	W 	0.01206 0.13645 0.10316 0.95100
W 	W 	0.96934 0.05186 0.12316 1.27500
W 	W 	0.77389 0.13579 0.84255 1.42800
W 	W 	0.87514 0.02961 0.94961 1.31400
W 	W 	0.83314 0.08626 0.74116 1.28700
W 	W 	0.63141 0.15491 0.72880 1.00900
W 	W 	0.60359 0.06158 0.66515 1.03000
W 	W 	0.65254 0.02089 0.58614 0.98000
W 	W 	0.72808 0.07416 0.56802 1.34800
W 	W 	0.76270 0.17504 0.63994 1.31200
W 	W 	0.71759 0.21123 0.71364 0.99100
W 	W 	0.55448 0.14181 0.56777 0.99600
W 	W 	0.64121 0.20099 0.55567 0.95800
W 	W 	0.60513 0.09957 0.48640 0.99700
As	As	0.36191 0.12722 0.01968 0.40700
As	As	0.19808 0.13110 0.66285 0.38900
As	As	0.38266 0.36785 0.52096 0.41000
As	As	0.19396 0.38855 0.16583 0.40100
C 	C 	0.44060 0.54400 0.47700 0.00100
C 	C 	0.38750 0.42580 0.18600 0.32700
C 	C 	0.40060 0.53640 0.27040 -0.09900
H 	H 	0.40240 0.56020 0.28980 0.03900
C 	C 	0.39230 0.46570 0.21450 -0.02400
C 	C 	0.04340 0.20630 0.70740 0.00600
C 	C 	0.41280 0.55200 0.50430 0.28200
C 	C 	0.16770 0.28800 0.92100 -0.13200
H 	H 	0.13480 0.28170 0.90500 0.04500
C 	C 	0.26290 0.30490 0.96950 -0.01400
C 	C 	0.03760 0.27380 0.73400 0.05200
H 	H 	0.02040 0.29390 0.73770 0.00400
C 	C 	0.19670 0.25880 0.91480 0.06800
H 	H 	0.18240 0.23470 0.89410 -0.02400
C 	C 	0.31750 0.31070 0.99890 0.26700
C 	C 	0.01290 0.23640 0.70080 -0.12500
H 	H 	0.97820 0.23320 0.67650 0.08100
C 	C 	0.47570 0.56920 0.48000 -0.12300
H 	H 	0.48470 0.59400 0.50030 0.07600
C 	C 	0.37480 0.50010 0.27300 0.05300
H 	H 	0.36040 0.50150 0.29410 -0.01500
C 	C 	0.42160 0.53370 0.23820 -0.00700
H 	H 	0.43850 0.55520 0.23660 0.03700
C 	C 	0.49550 0.55470 0.45200 0.10600
H 	H 	0.52010 0.57000 0.45470 0.00100
C 	C 	0.48350 0.52290 0.42230 -0.19900
H 	H 	0.49600 0.51600 0.40050 0.07500
C 	C 	0.44900 0.49610 0.42280 0.11200
H 	H 	0.44190 0.47110 0.40400 -0.03700
C 	C 	0.41620 0.49770 0.20890 -0.05300
H 	H 	0.42830 0.49490 0.18560 0.04600
C 	C 	0.18550 0.32140 0.94720 0.03500
H 	H 	0.16490 0.33930 0.94870 0.02000
C 	C 	0.23480 0.33240 0.97400 -0.07800
H 	H 	0.24800 0.35700 0.99380 0.04500
C 	C 	0.11310 0.24560 0.75960 0.09900
H 	H 	0.14680 0.24900 0.77720 -0.03400
C 	C 	0.08610 0.27770 0.75820 -0.16000
H 	H 	0.10200 0.30220 0.77450 0.05700
C 	C 	0.02440 0.16520 0.68200 0.29300
Dy	Dy	0.21826 0.12444 0.91516 1.67600
Dy	Dy	0.24942 0.22596 0.76428 1.64700
Dy	Dy	0.42043 0.36723 0.41212 1.65900
Dy	Dy	0.24719 0.47753 0.27691 1.66200
K 	K 	0.32910 0.42370 0.01960 0.65000
K 	K 	0.41640 0.33400 0.01280 0.65300
K 	K 	0.40380 0.33570 0.16820 0.65000
K 	K 	0.99340 0.07440 0.66800 0.65300
N 	N 	0.42750 0.50690 0.44940 -0.20300
N 	N 	0.37300 0.46540 0.24510 -0.18400
N 	N 	0.24560 0.26760 0.93990 -0.18600
N 	N 	0.09150 0.21020 0.73610 -0.19500
O 	O 	0.48680 0.07630 0.11700 -0.45400
O 	O 	0.44280 0.07730 0.16950 -0.45400
O 	O 	0.48690 0.14210 0.17230 -0.44500
O 	O 	0.38460 0.01560 0.10130 -0.43300
O 	O 	0.38810 0.11980 0.19400 -0.43500
O 	O 	0.43280 0.18710 0.19450 -0.44200
O 	O 	0.43060 0.01500 0.05090 -0.45000
O 	O 	0.49680 0.12290 0.04120 -0.43600
O 	O 	0.42190 0.06970 0.97140 -0.44600
O 	O 	0.33180 0.00780 0.97780 -0.44200
O 	O 	0.37470 0.07490 0.03480 -0.35000
O 	O 	0.32710 0.07330 0.09390 -0.45400
O 	O 	0.42170 0.14030 0.03880 -0.37300
O 	O 	0.37630 0.14250 0.09410 -0.38200
O 	O 	0.33210 0.18450 0.13010 -0.43600
O 	O 	0.38390 0.25810 0.14960 -0.41800
O 	O 	0.32280 0.22120 0.03470 -0.46500
O 	O 	0.42110 0.21380 0.09160 -0.48900
O 	O 	0.26980 0.13650 0.02150 -0.54900
O 	O 	0.26980 0.06790 0.96600 -0.55900
O 	O 	0.49740 0.18820 0.09580 -0.45300
O 	O 	0.43560 0.18270 0.97210 -0.48100
O 	O 	0.44890 0.25620 0.02910 -0.43500
O 	O 	0.35750 0.20800 0.96780 -0.51000
O 	O 	0.32530 0.06030 0.89130 -0.46200
O 	O 	0.35820 0.13100 0.90930 -0.49200
O 	O 	0.06160 0.04820 0.65020 -0.41900
O 	O 	0.16270 0.30500 0.21290 -0.45600
O 	O 	0.20340 0.05070 0.56920 -0.46100
O 	O 	0.27940 0.04650 0.71630 -0.43700
O 	O 	0.24480 0.12480 0.65050 -0.35700
O 	O 	0.19750 0.34020 0.14160 -0.38100
O 	O 	0.09280 0.31350 0.06610 -0.44900
O 	O 	0.10140 0.03160 0.58690 -0.45100
O 	O 	0.38750 0.39640 0.31370 -0.59900
O 	O 	0.26260 0.11630 0.88000 -0.56400
O 	O 	0.17910 0.12170 0.51740 -0.45800
O 	O 	0.35430 0.31510 0.61890 -0.45000
O 	O 	0.16400 0.03530 0.71180 -0.45800
O 	O 	0.19350 0.35860 0.29380 -0.47500
O 	O 	0.33770 0.36400 0.37640 -0.57800
O 	O 	0.25890 0.41330 0.30870 -0.57600
O 	O 	0.06970 0.33300 0.14040 -0.44400
O 	O 	0.34060 0.45040 0.47840 -0.49800
O 	O 	0.36820 0.39900 0.19760 -0.42700
O 	O 	0.41890 0.31110 0.45950 -0.55900
O 	O 	0.47620 0.37500 0.51970 -0.55500
O 	O 	0.27060 0.28920 0.20180 -0.45200
O 	O 	0.17490 0.07930 0.64480 -0.38400
O 	O 	0.30410 0.44430 0.26580 -0.53100
O 	O 	0.27550 0.37700 0.41230 -0.50100
O 	O 	0.40130 0.45190 0.59990 -0.49300
O 	O 	0.18440 0.19170 0.75720 -0.52200
O 	O 	0.25550 0.18580 0.92060 -0.53000
O 	O 	0.24030 0.36960 0.08810 -0.50100
O 	O 	0.10710 0.46200 0.10260 -0.46700
O 	O 	0.16380 0.45390 0.22570 -0.56700
O 	O 	0.27400 0.14580 0.58310 -0.42900
O 	O 	0.20380 0.48220 0.16870 -0.56100
O 	O 	0.32590 0.10530 0.79070 -0.48700
O 	O 	0.27140 0.36500 0.54740 -0.45100
O 	O 	0.14030 0.11000 0.71240 -0.48900
O 	O 	0.19340 0.00640 0.64440 -0.44200
O 	O 	0.26540 0.42770 0.48270 -0.44900
O 	O 	0.43820 0.46140 0.53980 -0.47700
O 	O 	0.27450 0.31540 0.47220 -0.44800
O 	O 	0.48620 0.41850 0.69930 -0.45800
O 	O 	0.06940 0.38520 0.01870 -0.45500
O 	O 	0.28210 0.43430 0.15280 -0.48600
O 	O 	0.39300 0.43090 0.42620 -0.54800
O 	O 	0.16200 0.40850 0.98910 -0.45500
O 	O 	0.05710 0.14250 0.48610 -0.45200
O 	O 	0.97700 0.16030 0.64650 -0.37700
O 	O 	0.34350 0.38140 0.54260 -0.38000
O 	O 	0.48520 0.31120 0.58490 -0.46100
O 	O 	0.25210 0.43560 0.03230 -0.48000
O 	O 	0.42170 0.58410 0.53540 -0.38700
O 	O 	0.38030 0.52630 0.49360 -0.41400
O 	O 	0.33610 0.25690 0.54100 -0.44200
O 	O 	0.40360 0.42010 0.15480 -0.40500
O 	O 	0.09540 0.17640 0.64570 -0.47600
O 	O 	0.27270 0.16300 0.80180 -0.57000
O 	O 	0.14670 0.15190 0.58660 -0.38000
O 	O 	0.15280 0.14640 0.81490 -0.59700
O 	O 	0.12810 0.34450 0.00550 -0.43300
O 	O 	0.43370 0.25170 0.59030 -0.42800
O 	O 	0.33660 0.28260 0.98300 -0.39600
O 	O 	0.33010 0.42750 0.60980 -0.44600
O 	O 	0.27290 0.24470 0.86510 -0.60200
O 	O 	0.17150 0.41350 0.09230 -0.38300
O 	O 	0.11180 0.07610 0.51250 -0.45800
O 	O 	0.07410 0.10770 0.58620 -0.48600
O 	O 	0.52790 0.35340 0.69080 -0.44000
O 	O 	0.37990 0.31550 0.52780 -0.35400
O 	O 	0.28100 0.19990 0.71360 -0.56100
O 	O 	0.13680 0.38160 0.15600 -0.35400
O 	O 	0.10010 0.45420 0.99740 -0.44200
O 	O 	0.34240 0.33980 0.03370 -0.37900
O 	O 	0.18660 0.22600 0.65540 -0.55200
O 	O 	0.29850 0.07460 0.63900 -0.44400
O 	O 	0.10230 0.39740 0.21530 -0.46300
O 	O 	0.44220 0.37950 0.59500 -0.37900
O 	O 	0.29870 0.36530 0.21130 -0.49500
O 	O 	0.31510 0.49850 0.54580 -0.41400
O 	O 	0.19600 0.47560 0.05850 -0.45200
O 	O 	0.04380 0.40630 0.09090 -0.44500
O 	O 	0.08720 0.21260 0.54960 -0.46100
O 	O 	0.00460 0.17100 0.52650 -0.45800
O 	O 	0.24520 0.08140 0.77550 -0.48000
O 	O 	0.21010 0.29480 0.07550 -0.44700
O 	O 	0.28940 0.30840 0.38870 -0.46900
O 	O 	0.49760 0.49240 0.66210 -0.43000
O 	O 	0.05690 0.14070 0.69610 -0.42000
O 	O 	0.12300 0.18860 0.48760 -0.43700
O 	O 	0.17400 0.26590 0.13190 -0.44900
O 	O 	0.41020 0.37630 0.67620 -0.45400
O 	O 	0.33800 0.14270 0.70810 -0.44700
O 	O 	0.31140 0.30870 0.14050 -0.42200
O 	O 	0.32340 0.48920 0.37560 -0.60500
O 	O 	0.52240 0.41940 0.63150 -0.45600
O 	O 	0.21700 0.20110 0.58960 -0.46000
O 	O 	0.25400 0.33200 0.27240 -0.49200
O 	O 	0.36460 0.25150 0.46940 -0.45000
O 	O 	0.44760 0.31330 0.66710 -0.45700
W 	W 	0.44414 0.12993 0.19992 0.97700
W 	W 	0.44431 0.03731 0.12051 1.02400
W 	W 	0.50478 0.12950 0.12131 0.97500
W 	W 	0.31708 0.12741 0.10651 0.95800
W 	W 	0.37563 0.21133 0.11535 1.26000
W 	W 	0.43476 0.20810 0.03451 1.33200
W 	W 	0.43230 0.12531 0.96271 0.97800
W 	W 	0.37367 0.03182 0.95874 0.96500
W 	W 	0.31685 0.03792 0.02965 1.00700
W 	W 	0.29689 0.22799 0.94030 1.26900
W 	W 	0.29356 0.11577 0.84187 1.36200
W 	W 	0.13311 0.15934 0.73762 1.24100
W 	W 	0.22724 0.03431 0.72294 0.99200
W 	W 	0.32388 0.09070 0.72827 0.99300
W 	W 	0.28347 0.18101 0.65436 1.00300
W 	W 	0.15578 0.21764 0.57305 0.98500
W 	W 	0.06636 0.16361 0.56257 1.29500
W 	W 	0.10876 0.06621 0.64618 1.27200
W 	W 	0.14884 0.03653 0.56377 1.02300
W 	W 	0.11113 0.13441 0.48347 0.98000
W 	W 	0.24261 0.09653 0.56643 0.99000
W 	W 	0.34329 0.36799 0.62775 0.98000
W 	W 	0.39577 0.27501 0.61471 0.97700
W 	W 	0.47865 0.36381 0.69966 1.01800
W 	W 	0.33260 0.44946 0.54772 1.28000
W 	W 	0.25866 0.37011 0.46938 1.01400
W 	W 	0.30643 0.27617 0.45354 0.98800
W 	W 	0.43143 0.27744 0.52032 0.99200
W 	W 	0.51206 0.36355 0.60316 0.98000
W 	W 	0.46934 0.44814 0.62316 1.26300
W 	W 	0.27389 0.36421 0.34255 1.42900
W 	W 	0.37514 0.47039 0.44961 1.31800
W 	W 	0.33314 0.41374 0.24116 1.28700
W 	W 	0.13141 0.34509 0.22880 1.00700
W 	W 	0.10359 0.43842 0.16515 1.02700
W 	W 	0.15254 0.47911 0.08614 0.98300
W 	W 	0.22808 0.42584 0.06802 1.35300
W 	W 	0.26270 0.32496 0.13994 1.31200
W 	W 	0.21759 0.28877 0.21364 0.99000
W 	W 	0.05448 0.35819 0.06777 0.99200
W 	W 	0.14121 0.29901 0.05567 0.95800
W 	W 	0.10513 0.40043 0.98640 0.97900
As	As	0.86191 0.62722 0.01968 0.40600
As	As	0.69808 0.63110 0.66285 0.38800
As	As	0.88266 0.86785 0.52096 0.41000
As	As	0.69396 0.88855 0.16583 0.40100
C 	C 	0.94060 0.04400 0.47700 0.02500
C 	C 	0.88750 0.92580 0.18600 0.32700
C 	C 	0.90060 0.03640 0.27040 -0.09900
H 	H 	0.90240 0.06020 0.28980 0.04000
C 	C 	0.89230 0.96570 0.21450 -0.02300
C 	C 	0.54340 0.70630 0.70740 -0.01500
C 	C 	0.91280 0.05200 0.50430 0.27500
C 	C 	0.66770 0.78800 0.92100 -0.13300
H 	H 	0.63480 0.78170 0.90500 0.04700
C 	C 	0.76290 0.80490 0.96950 -0.01400
C 	C 	0.53760 0.77380 0.73400 0.02200
H 	H 	0.52040 0.79390 0.73770 0.02100
C 	C 	0.69670 0.75880 0.91480 0.06900
H 	H 	0.68240 0.73470 0.89410 -0.02400
C 	C 	0.81750 0.81070 0.99890 0.26700
C 	C 	0.51290 0.73640 0.70080 -0.07100
H 	H 	0.47820 0.73320 0.67650 0.05300
C 	C 	0.97570 0.06920 0.48000 -0.18100
H 	H 	0.98470 0.09400 0.50030 0.10200
C 	C 	0.87480 0.00010 0.27300 0.05500
H 	H 	0.86040 0.00150 0.29410 -0.01600
C 	C 	0.92160 0.03370 0.23820 -0.00500
H 	H 	0.93850 0.05520 0.23660 0.03800
C 	C 	0.99550 0.05470 0.45200 0.20800
H 	H 	0.02010 0.07000 0.45470 -0.04600
C 	C 	0.98350 0.02290 0.42230 -0.27100
H 	H 	0.99600 0.01600 0.40050 0.10500
C 	C 	0.94900 0.99610 0.42280 0.14500
H 	H 	0.94190 0.97110 0.40400 -0.04800
C 	C 	0.91620 0.99770 0.20890 -0.05400
H 	H 	0.92830 0.99490 0.18560 0.04700
C 	C 	0.68550 0.82140 0.94720 0.03600
H 	H 	0.66490 0.83930 0.94870 0.02100
C 	C 	0.73480 0.83240 0.97400 -0.07800
H 	H 	0.74800 0.85700 0.99380 0.04500
C 	C 	0.61310 0.74560 0.75960 0.08800
H 	H 	0.64680 0.74900 0.77720 -0.03000
C 	C 	0.58610 0.77770 0.75820 -0.13700
H 	H 	0.60200 0.80220 0.77450 0.05000
C 	C 	0.52440 0.66520 0.68200 0.32100
Dy	Dy	0.71826 0.62444 0.91516 1.68000
Dy	Dy	0.74942 0.72596 0.76428 1.64900
Dy	Dy	0.92043 0.86723 0.41212 1.66400
Dy	Dy	0.74719 0.97753 0.27691 1.66300
K 	K 	0.82910 0.92370 0.01960 0.65000
K 	K 	0.91640 0.83400 0.01280 0.65400
K 	K 	0.90380 0.83570 0.16820 0.65100
K 	K 	0.49340 0.57440 0.66800 0.65000
N 	N 	0.92750 0.00690 0.44940 -0.21300
N 	N 	0.87300 0.96540 0.24510 -0.18400
N 	N 	0.74560 0.76760 0.93990 -0.18600
N 	N 	0.59150 0.71020 0.73610 -0.18800
O 	O 	0.98680 0.57630 0.11700 -0.44100
O 	O 	0.94280 0.57730 0.16950 -0.45300
O 	O 	0.98690 0.64210 0.17230 -0.43000
O 	O 	0.88460 0.51560 0.10130 -0.43200
O 	O 	0.88810 0.61980 0.19400 -0.43400
O 	O 	0.93280 0.68710 0.19450 -0.43900
O 	O 	0.93060 0.51500 0.05090 -0.44800
O 	O 	0.99680 0.62290 0.04120 -0.42400
O 	O 	0.92190 0.56970 0.97140 -0.44500
O 	O 	0.83180 0.50780 0.97780 -0.44100
O 	O 	0.87470 0.57490 0.03480 -0.35000
O 	O 	0.82710 0.57330 0.09390 -0.45400
O 	O 	0.92170 0.64030 0.03880 -0.36900
O 	O 	0.87630 0.64250 0.09410 -0.38200
O 	O 	0.83210 0.68450 0.13010 -0.43600
O 	O 	0.88390 0.75810 0.14960 -0.41700
O 	O 	0.82280 0.72120 0.03470 -0.46500
O 	O 	0.92110 0.71380 0.09160 -0.48800
O 	O 	0.76980 0.63650 0.02150 -0.54900
O 	O 	0.76980 0.56790 0.96600 -0.55800
O 	O 	0.99740 0.68820 0.09580 -0.44000
O 	O 	0.93560 0.68270 0.97210 -0.47900
O 	O 	0.94890 0.75620 0.02910 -0.43000
O 	O 	0.85750 0.70800 0.96780 -0.51000
O 	O 	0.82530 0.56030 0.89130 -0.46200
O 	O 	0.85820 0.63100 0.90930 -0.49200
O 	O 	0.56160 0.54820 0.65020 -0.41200
O 	O 	0.66270 0.80500 0.21290 -0.45600
O 	O 	0.70340 0.55070 0.56920 -0.46100
O 	O 	0.77940 0.54650 0.71630 -0.43700
O 	O 	0.74480 0.62480 0.65050 -0.35800
O 	O 	0.69750 0.84020 0.14160 -0.38100
O 	O 	0.59280 0.81350 0.06610 -0.44800
O 	O 	0.60140 0.53160 0.58690 -0.44800
O 	O 	0.88750 0.89640 0.31370 -0.59800
O 	O 	0.76260 0.61630 0.88000 -0.56400
O 	O 	0.67910 0.62170 0.51740 -0.45700
O 	O 	0.85430 0.81510 0.61890 -0.45000
O 	O 	0.66400 0.53530 0.71180 -0.45700
O 	O 	0.69350 0.85860 0.29380 -0.47500
O 	O 	0.83770 0.86400 0.37640 -0.57900
O 	O 	0.75890 0.91330 0.30870 -0.57600
O 	O 	0.56970 0.83300 0.14040 -0.44200
O 	O 	0.84060 0.95040 0.47840 -0.49900
O 	O 	0.86820 0.89900 0.19760 -0.42700
O 	O 	0.91890 0.81110 0.45950 -0.55800
O 	O 	0.97620 0.87500 0.51970 -0.54300
O 	O 	0.77060 0.78920 0.20180 -0.45100
O 	O 	0.67490 0.57930 0.64480 -0.38500
O 	O 	0.80410 0.94430 0.26580 -0.53100
O 	O 	0.77550 0.87700 0.41230 -0.50100
O 	O 	0.90130 0.95190 0.59990 -0.49500
O 	O 	0.68440 0.69170 0.75720 -0.52300
O 	O 	0.75550 0.68580 0.92060 -0.53000
O 	O 	0.74030 0.86960 0.08810 -0.50200
O 	O 	0.60710 0.96200 0.10260 -0.46600
O 	O 	0.66380 0.95390 0.22570 -0.56700
O 	O 	0.77400 0.64580 0.58310 -0.42800
O 	O 	0.70380 0.98220 0.16870 -0.56100
O 	O 	0.82590 0.60530 0.79070 -0.48700
O 	O 	0.77140 0.86500 0.54740 -0.45000
O 	O 	0.64030 0.61000 0.71240 -0.48900
O 	O 	0.69340 0.50640 0.64440 -0.44100
O 	O 	0.76540 0.92770 0.48270 -0.44800
O 	O 	0.93820 0.96140 0.53980 -0.47600
O 	O 	0.77450 0.81540 0.47220 -0.44800
O 	O 	0.98620 0.91850 0.69930 -0.45600
O 	O 	0.56940 0.88520 0.01870 -0.45400
O 	O 	0.78210 0.93430 0.15280 -0.48600
O 	O 	0.89300 0.93090 0.42620 -0.54800
O 	O 	0.66200 0.90850 0.98910 -0.45500
O 	O 	0.55710 0.64250 0.48610 -0.45000
O 	O 	0.47700 0.66030 0.64650 -0.39400
O 	O 	0.84350 0.88140 0.54260 -0.38100
O 	O 	0.98520 0.81120 0.58490 -0.45000
O 	O 	0.75210 0.93560 0.03230 -0.48000
O 	O 	0.92170 0.08410 0.53540 -0.38300
O 	O 	0.88030 0.02630 0.49360 -0.41200
O 	O 	0.83610 0.75690 0.54100 -0.44200
O 	O 	0.90360 0.92010 0.15480 -0.40400
O 	O 	0.59540 0.67640 0.64570 -0.47500
O 	O 	0.77270 0.66300 0.80180 -0.57000
O 	O 	0.64670 0.65190 0.58660 -0.38100
O 	O 	0.65280 0.64640 0.81490 -0.59700
O 	O 	0.62810 0.84450 0.00550 -0.43400
O 	O 	0.93370 0.75170 0.59030 -0.42500
O 	O 	0.83660 0.78260 0.98300 -0.39500
O 	O 	0.83010 0.92750 0.60980 -0.44600
O 	O 	0.77290 0.74470 0.86510 -0.60200
O 	O 	0.67150 0.91350 0.09230 -0.38400
O 	O 	0.61180 0.57610 0.51250 -0.45800
O 	O 	0.57410 0.60770 0.58620 -0.48300
O 	O 	0.02790 0.85340 0.69080 -0.45100
O 	O 	0.87990 0.81550 0.52780 -0.35500
O 	O 	0.78100 0.69990 0.71360 -0.56100
O 	O 	0.63680 0.88160 0.15600 -0.35500
O 	O 	0.60010 0.95420 0.99740 -0.44000
O 	O 	0.84240 0.83980 0.03370 -0.37900
O 	O 	0.68660 0.72600 0.65540 -0.55200
O 	O 	0.79850 0.57460 0.63900 -0.44300
O 	O 	0.60230 0.89740 0.21530 -0.46200
O 	O 	0.94220 0.87950 0.59500 -0.37500
O 	O 	0.79870 0.86530 0.21130 -0.49500
O 	O 	0.81510 0.99850 0.54580 -0.41400
O 	O 	0.69600 0.97560 0.05850 -0.45200
O 	O 	0.54380 0.90630 0.09090 -0.44200
O 	O 	0.58720 0.71260 0.54960 -0.45900
O 	O 	0.50460 0.67100 0.52650 -0.44800
O 	O 	0.74520 0.58140 0.77550 -0.48000
O 	O 	0.71010 0.79480 0.07550 -0.44700
O 	O 	0.78940 0.80840 0.38870 -0.46900
O 	O 	0.99760 0.99240 0.66210 -0.42600
O 	O 	0.55690 0.64070 0.69610 -0.42400
O 	O 	0.62300 0.68860 0.48760 -0.43600
O 	O 	0.67400 0.76590 0.13190 -0.44800
O 	O 	0.91020 0.87630 0.67620 -0.45500
O 	O 	0.83800 0.64270 0.70810 -0.44600
O 	O 	0.81140 0.80870 0.14050 -0.42200
O 	O 	0.82340 0.98920 0.37560 -0.60600
O 	O 	0.02240 0.91940 0.63150 -0.46500
O 	O 	0.71700 0.70110 0.58960 -0.46000
O 	O 	0.75400 0.83200 0.27240 -0.49200
O 	O 	0.86460 0.75150 0.46940 -0.44900
O 	O 	0.94760 0.81330 0.66710 -0.45600
W 	W 	0.94414 0.62993 0.19992 0.98200
W 	W 	0.94431 0.53731 0.12051 1.02700
W 	W 	0.00478 0.62950 0.12131 0.92800
W 	W 	0.81708 0.62741 0.10651 0.95900
W 	W 	0.87563 0.71133 0.11535 1.26000
W 	W 	0.93476 0.70810 0.03451 1.33100
W 	W 	0.93230 0.62531 0.96271 0.98000
W 	W 	0.87367 0.53182 0.95874 0.96700
W 	W 	0.81685 0.53792 0.02965 1.00800
W 	W 	0.79689 0.72799 0.94030 1.26900
W 	W 	0.79356 0.61577 0.84187 1.36200
W 	W 	0.63311 0.65934 0.73762 1.24300
W 	W 	0.72724 0.53431 0.72294 0.99300
W 	W 	0.82388 0.59070 0.72827 0.99500
W 	W 	0.78347 0.68101 0.65436 1.00400
W 	W 	0.65578 0.71764 0.57305 0.98800
W 	W 	0.56636 0.66361 0.56257 1.29700
W 	W 	0.60876 0.56621 0.64618 1.27300
W 	W 	0.64884 0.53653 0.56377 1.02700
W 	W 	0.61113 0.63441 0.48347 0.98400
W 	W 	0.74261 0.59653 0.56643 0.99200
W 	W 	0.84329 0.86799 0.62775 0.98100
W 	W 	0.89577 0.77501 0.61471 0.98000
W 	W 	0.97865 0.86381 0.69966 1.03400
W 	W 	0.83260 0.94946 0.54772 1.28000
W 	W 	0.75866 0.87011 0.46938 1.01500
W 	W 	0.80643 0.77617 0.45354 0.99000
W 	W 	0.93143 0.77744 0.52032 0.99600
W 	W 	0.01206 0.86355 0.60316 0.94900
W 	W 	0.96934 0.94814 0.62316 1.27400
W 	W 	0.77389 0.86421 0.34255 1.42900
W 	W 	0.87514 0.97039 0.44961 1.31900
W 	W 	0.83314 0.91374 0.24116 1.28800
W 	W 	0.63141 0.84509 0.22880 1.01000
W 	W 	0.60359 0.93842 0.16515 1.03100
W 	W 	0.65254 0.97911 0.08614 0.98500
W 	W 	0.72808 0.92584 0.06802 1.35200
W 	W 	0.76270 0.82496 0.13994 1.31300
W 	W 	0.71759 0.78877 0.21364 0.99200
W 	W 	0.55448 0.85819 0.06777 0.99800
W 	W 	0.64121 0.79901 0.05567 0.96000
W 	W 	0.60513 0.90043 0.98640 0.98400
