data_crystal

_cell_length_a 6.10920
_cell_length_b 7.68660
_cell_length_c 22.69870
_cell_angle_alpha 90.00000
_cell_angle_beta  91.65700
_cell_angle_gamma 90.00000

_symmetry_space_group_name_	'P 1'
_symmetry_space_group_name_H-M	'P 1'

loop_
_symmetry_equiv_pos_as_xyz
  x,y,z

loop_
_atom_site_label
_atom_site_type_symbol
_atom_site_fract_x
_atom_site_fract_y
_atom_site_fract_z
_atom_site_charge
Nd	Nd	0.45527 0.50320 0.85402 2.24500
Nd	Nd	0.54473 0.00320 0.64598 2.22000
Nd	Nd	0.54473 0.49680 0.14598 2.24500
Nd	Nd	0.45527 0.99680 0.35402 2.22000
H 	H 	0.30200 0.72300 0.76100 0.27200
H 	H 	0.42300 0.63300 0.61200 0.26700
H 	H 	0.04310 0.47840 0.71750 0.03300
H 	H 	0.12250 0.56910 0.62440 0.01600
H 	H 	0.69800 0.22300 0.73900 0.27000
H 	H 	0.57700 0.13300 0.88800 0.26700
H 	H 	0.95690 0.97840 0.78250 0.05200
H 	H 	0.87750 0.06910 0.87560 0.01000
H 	H 	0.69800 0.27700 0.23900 0.27200
H 	H 	0.57700 0.36700 0.38800 0.26700
H 	H 	0.95690 0.52160 0.28250 0.03300
H 	H 	0.87750 0.43090 0.37560 0.01600
H 	H 	0.30200 0.77700 0.26100 0.27000
H 	H 	0.42300 0.86700 0.11200 0.26700
H 	H 	0.04310 0.02160 0.21750 0.05200
H 	H 	0.12250 0.93090 0.12440 0.01000
C 	C 	0.36630 0.39480 0.71110 0.38500
C 	C 	0.18490 0.53710 0.71470 0.02600
C 	C 	0.18380 0.64230 0.65620 -0.00000
C 	C 	0.04670 0.81150 0.65950 0.39300
C 	C 	0.58370 0.57590 0.99880 0.23300
C 	C 	0.63370 0.89480 0.78890 0.40400
C 	C 	0.81510 0.03710 0.78530 -0.00800
C 	C 	0.81620 0.14230 0.84380 0.00900
C 	C 	0.95330 0.31150 0.84050 0.39300
C 	C 	0.41630 0.07590 0.50120 0.23400
C 	C 	0.63370 0.60520 0.28890 0.38500
C 	C 	0.81510 0.46290 0.28530 0.02600
C 	C 	0.81620 0.35770 0.34380 -0.00000
C 	C 	0.95330 0.18850 0.34050 0.39300
C 	C 	0.41630 0.42410 0.00120 0.23300
C 	C 	0.36630 0.10520 0.21110 0.40400
C 	C 	0.18490 0.96290 0.21470 -0.00800
C 	C 	0.18380 0.85770 0.15620 0.00900
C 	C 	0.04670 0.68850 0.15950 0.39300
C 	C 	0.58370 0.92410 0.49880 0.23400
O 	O 	0.51510 0.40110 0.75160 -0.48300
O 	O 	0.35790 0.28580 0.67040 -0.47900
O 	O 	0.21890 0.64080 0.76680 -0.53300
O 	O 	0.40500 0.69140 0.64170 -0.54800
O 	O 	0.14880 0.95320 0.65390 -0.47900
O 	O 	0.84530 0.79560 0.66620 -0.47400
O 	O 	0.62340 0.63260 0.94720 -0.43400
O 	O 	0.66440 0.63110 0.04710 -0.42500
O 	O 	0.48490 0.90110 0.74840 -0.48100
O 	O 	0.64210 0.78580 0.82960 -0.48300
O 	O 	0.78110 0.14080 0.73320 -0.52700
O 	O 	0.59500 0.19140 0.85830 -0.55400
O 	O 	0.85120 0.45320 0.84610 -0.48700
O 	O 	0.15470 0.29560 0.83380 -0.48000
O 	O 	0.37660 0.13260 0.55280 -0.43400
O 	O 	0.33560 0.13110 0.45290 -0.42000
O 	O 	0.48490 0.59890 0.24840 -0.48300
O 	O 	0.64210 0.71420 0.32960 -0.47900
O 	O 	0.78110 0.35920 0.23320 -0.53300
O 	O 	0.59500 0.30860 0.35830 -0.54800
O 	O 	0.85120 0.04680 0.34610 -0.47900
O 	O 	0.15470 0.20440 0.33380 -0.47400
O 	O 	0.37660 0.36740 0.05280 -0.43400
O 	O 	0.33560 0.36890 0.95290 -0.42500
O 	O 	0.51510 0.09890 0.25160 -0.48100
O 	O 	0.35790 0.21420 0.17040 -0.48300
O 	O 	0.21890 0.85920 0.26680 -0.52700
O 	O 	0.40500 0.80860 0.14170 -0.55400
O 	O 	0.14880 0.54680 0.15390 -0.48700
O 	O 	0.84530 0.70440 0.16620 -0.48000
O 	O 	0.62340 0.86740 0.44720 -0.43400
O 	O 	0.66440 0.86890 0.54710 -0.42000
