data_crystal

_cell_length_a 13.87500
_cell_length_b 14.07200
_cell_length_c 14.20800
_cell_angle_alpha 116.30000
_cell_angle_beta  109.72400
_cell_angle_gamma 101.42800

_symmetry_space_group_name_	'P 1'
_symmetry_space_group_name_H-M	'P 1'

loop_
_symmetry_equiv_pos_as_xyz
  x,y,z

loop_
_atom_site_label
_atom_site_type_symbol
_atom_site_fract_x
_atom_site_fract_y
_atom_site_fract_z
_atom_site_charge
Cd	Cd	0.70531 0.87376 0.88612 1.25400
Cd	Cd	0.29469 0.12624 0.11388 1.21600
Cd	Cd	-0.00000 0.00000 -0.00000 1.19900
Si	Si	0.98988 0.65396 0.38909 0.77100
Si	Si	0.01012 0.34604 0.61091 0.77100
H 	H 	0.76900 0.45690 0.18970 0.00100
H 	H 	0.30570 0.73990 0.74540 0.09400
H 	H 	0.81590 0.52630 0.42020 -0.01100
H 	H 	0.70510 0.25590 0.06530 0.04700
H 	H 	0.00590 0.86670 0.57630 -0.01500
H 	H 	0.74340 0.57960 0.55260 0.08600
H 	H 	0.93580 0.91920 0.71010 0.09200
H 	H 	0.12080 0.69810 0.62380 -0.01300
H 	H 	0.08630 0.48400 0.34080 0.02400
H 	H 	0.77550 0.80430 0.18720 0.06500
H 	H 	0.82690 0.74210 0.31520 0.00600
H 	H 	0.20750 0.72110 0.38910 -0.01900
H 	H 	0.07840 0.70450 0.24610 0.01400
H 	H 	0.03450 0.77920 0.12840 0.03000
H 	H 	0.02270 0.28370 0.21200 0.02000
H 	H 	0.39420 0.76960 0.51430 0.09500
H 	H 	0.23100 0.54310 0.81030 -0.00600
H 	H 	0.69430 0.26010 0.25460 0.07700
H 	H 	0.18410 0.47370 0.57980 -0.00400
H 	H 	0.29490 0.74410 0.93470 0.09800
H 	H 	0.99410 0.13330 0.42370 0.00700
H 	H 	0.25660 0.42040 0.44740 0.07500
H 	H 	0.06420 0.08080 0.28990 0.03800
H 	H 	0.87920 0.30190 0.37620 -0.00300
H 	H 	0.91370 0.51600 0.65920 -0.01500
H 	H 	0.22450 0.19570 0.81280 0.08500
H 	H 	0.17310 0.25790 0.68480 -0.02000
H 	H 	0.79250 0.27890 0.61090 -0.01100
H 	H 	0.92160 0.29550 0.75390 -0.02700
H 	H 	0.96550 0.22080 0.87160 0.10600
H 	H 	0.97730 0.71630 0.78800 0.09100
H 	H 	0.60580 0.23040 0.48570 0.08100
C 	C 	0.82090 0.42210 0.19630 0.04300
C 	C 	0.91980 0.68990 0.48450 -0.27800
C 	C 	0.96140 0.72150 0.30060 -0.22300
C 	C 	0.14310 0.70550 0.49270 -0.28900
C 	C 	0.83390 0.75530 0.64550 0.00400
C 	C 	0.48960 0.79720 0.72650 0.26500
C 	C 	0.79100 0.78850 0.73430 0.27800
C 	C 	0.28650 0.73800 0.67360 -0.12000
C 	C 	0.36830 0.76110 0.64310 0.03200
C 	C 	0.93480 0.49260 0.28120 -0.21800
C 	C 	0.86610 0.83470 0.05870 0.36000
C 	C 	0.90130 0.80040 0.14700 -0.06300
C 	C 	0.84080 0.60630 0.47900 0.10100
C 	C 	0.78270 0.30220 0.12140 -0.05900
C 	C 	0.95350 0.80790 0.57190 0.11700
C 	C 	0.79760 0.63790 0.55800 -0.11000
C 	C 	0.91130 0.83930 0.65120 -0.11200
C 	C 	0.17560 0.71190 0.60000 0.10900
C 	C 	0.00850 0.43830 0.28500 -0.01800
C 	C 	0.83990 0.78720 0.20150 -0.05100
C 	C 	0.87060 0.74920 0.27760 0.05500
C 	C 	0.22690 0.72640 0.46260 0.11600
C 	C 	0.01860 0.72890 0.23840 0.00200
C 	C 	0.99090 0.77090 0.16550 0.00700
C 	C 	0.85760 0.24960 0.12840 -0.07000
C 	C 	0.97050 0.31840 0.20870 0.01200
C 	C 	0.33880 0.75480 0.53690 -0.12200
C 	C 	0.81950 0.11940 0.05540 0.28800
C 	C 	0.17910 0.57790 0.80370 0.10300
C 	C 	0.08020 0.31010 0.51550 -0.25700
C 	C 	0.03860 0.27850 0.69940 -0.31500
C 	C 	0.85690 0.29450 0.50730 -0.27100
C 	C 	0.16610 0.24470 0.35450 -0.03500
C 	C 	0.51040 0.20280 0.27350 0.27200
C 	C 	0.20900 0.21150 0.26570 0.29800
C 	C 	0.71350 0.26200 0.32640 -0.10900
C 	C 	0.63170 0.23890 0.35690 0.00400
C 	C 	0.06520 0.50740 0.71880 -0.28900
C 	C 	0.13390 0.16530 0.94130 0.31700
C 	C 	0.09870 0.19960 0.85300 0.01400
C 	C 	0.15920 0.39370 0.52100 0.07700
C 	C 	0.21730 0.69780 0.87860 -0.10100
C 	C 	0.04650 0.19210 0.42810 0.03700
C 	C 	0.20240 0.36210 0.44200 -0.08400
C 	C 	0.08870 0.16070 0.34880 -0.06800
C 	C 	0.82440 0.28810 0.40000 0.08600
C 	C 	0.99150 0.56170 0.71500 0.12600
C 	C 	0.16010 0.21280 0.79850 -0.13000
C 	C 	0.12940 0.25080 0.72240 0.12300
C 	C 	0.77310 0.27360 0.53740 0.09400
C 	C 	0.98140 0.27110 0.76160 0.15300
C 	C 	0.00910 0.22910 0.83450 -0.15900
C 	C 	0.14240 0.75040 0.87160 -0.00700
C 	C 	0.02950 0.68160 0.79130 -0.12600
C 	C 	0.66120 0.24520 0.46310 -0.11000
C 	C 	0.18050 0.88060 0.94460 0.37600
O 	O 	0.71680 0.71290 0.72490 -0.32900
O 	O 	0.83350 0.89690 0.81800 -0.44500
O 	O 	0.56310 0.84530 0.71100 -0.32000
O 	O 	0.51250 0.77960 0.80970 -0.33400
O 	O 	0.76770 0.82940 0.01920 -0.42800
O 	O 	0.71630 0.05650 0.98820 -0.36100
O 	O 	0.93750 0.86310 0.02940 -0.42300
O 	O 	0.89300 0.08010 0.06740 -0.47700
O 	O 	0.28320 0.28710 0.27510 -0.35200
O 	O 	0.16650 0.10310 0.18200 -0.51700
O 	O 	0.43690 0.15470 0.28900 -0.35600
O 	O 	0.48750 0.22040 0.19030 -0.37600
O 	O 	0.23230 0.17060 0.98080 -0.39800
O 	O 	0.28370 0.94350 0.01180 -0.41100
O 	O 	0.06250 0.13690 0.97060 -0.41500
O 	O 	0.10700 0.91990 0.93260 -0.43200
