data_crystal

_cell_length_a 12.56110
_cell_length_b 12.56110
_cell_length_c 62.47100
_cell_angle_alpha 90.00000
_cell_angle_beta  90.00000
_cell_angle_gamma 120.00000

_symmetry_space_group_name_	'P 1'
_symmetry_space_group_name_H-M	'P 1'

loop_
_symmetry_equiv_pos_as_xyz
  x,y,z

loop_
_atom_site_label
_atom_site_type_symbol
_atom_site_fract_x
_atom_site_fract_y
_atom_site_fract_z
_atom_site_charge
Ni	Ni	0.59427 0.18854 0.41667 1.06100
Ni	Ni	0.59427 0.40573 0.75000 1.06300
Ni	Ni	0.81146 0.40573 0.08333 1.06300
Ni	Ni	0.40573 0.81146 0.91667 1.06300
Ni	Ni	0.40573 0.59427 0.25000 1.06300
Ni	Ni	0.18854 0.59427 0.58333 1.06100
Ni	Ni	0.69610 0.34805 0.58333 1.06200
Ni	Ni	0.65195 0.30390 0.91667 1.06200
Ni	Ni	0.65195 0.34805 0.25000 1.06200
Ni	Ni	0.30390 0.65195 0.08333 1.06200
Ni	Ni	0.34805 0.69610 0.41667 1.06200
Ni	Ni	0.34805 0.65195 0.75000 1.06200
H 	H 	0.96360 0.16320 0.44430 0.12600
H 	H 	0.99640 0.28990 0.43400 0.12700
H 	H 	0.90360 0.61320 0.52020 0.11300
H 	H 	0.01520 0.62250 0.53310 0.10500
H 	H 	0.94140 0.73030 0.47160 0.14300
H 	H 	0.00020 0.79250 0.44970 0.12700
H 	H 	0.59110 0.43410 0.41820 -0.03100
H 	H 	0.62620 0.58790 0.44170 0.13500
H 	H 	0.66210 0.39150 0.48820 0.13700
H 	H 	0.62690 0.24320 0.46400 -0.03000
H 	H 	0.69100 0.68280 0.47580 0.16400
H 	H 	0.75360 0.63090 0.49100 0.16100
H 	H 	0.56050 0.50190 0.50730 -0.03400
H 	H 	0.62790 0.37450 0.62910 -0.01600
H 	H 	0.47220 0.28130 0.65280 0.13000
H 	H 	0.29980 0.00240 0.61140 0.13800
H 	H 	0.46370 0.10300 0.58920 -0.04800
H 	H 	0.24020 0.12660 0.65750 0.15800
H 	H 	0.18260 0.00970 0.64270 0.15700
H 	H 	0.30440 0.94260 0.65940 -0.02700
H 	H 	0.90300 0.17890 0.47130 0.12500
H 	H 	0.89110 0.39430 0.52740 0.15800
H 	H 	0.97520 0.61510 0.43910 0.11700
H 	H 	0.21440 0.90740 0.49250 0.31100
H 	H 	0.19960 0.03640 0.77763 0.12200
H 	H 	0.29350 0.00360 0.76733 0.12100
H 	H 	0.70960 0.09640 0.85353 0.12000
H 	H 	0.60730 0.98480 0.86643 0.12200
H 	H 	0.78890 0.05860 0.80493 0.12300
H 	H 	0.79230 0.99980 0.78303 0.11900
H 	H 	0.84300 0.40890 0.75153 -0.02800
H 	H 	0.96170 0.37380 0.77503 0.13300
H 	H 	0.72940 0.33790 0.82153 0.13300
H 	H 	0.61630 0.37310 0.79733 -0.02700
H 	H 	0.99180 0.30900 0.80913 0.15500
H 	H 	0.87730 0.24640 0.82433 0.15000
H 	H 	0.94140 0.43950 0.84063 -0.01300
H 	H 	0.74660 0.37210 0.96243 -0.01800
H 	H 	0.80910 0.52780 0.98613 0.13500
H 	H 	0.70260 0.70020 0.94473 0.14600
H 	H 	0.63930 0.53630 0.92253 -0.04700
H 	H 	0.88640 0.75980 0.99083 0.17300
H 	H 	0.82710 0.81740 0.97603 0.17500
H 	H 	0.63820 0.69560 0.99273 -0.05100
H 	H 	0.27590 0.09700 0.80463 0.12400
H 	H 	0.50320 0.10890 0.86073 0.15600
H 	H 	0.63990 0.02480 0.77243 0.11600
H 	H 	0.69300 0.78560 0.82583 0.30700
H 	H 	0.83680 0.80040 0.11097 0.12600
H 	H 	0.71010 0.70650 0.10067 0.12300
H 	H 	0.38680 0.29040 0.18687 0.11800
H 	H 	0.37750 0.39270 0.19977 0.11900
H 	H 	0.26970 0.21110 0.13827 0.12500
H 	H 	0.20750 0.20770 0.11637 0.11800
H 	H 	0.56590 0.15700 0.08487 -0.02900
H 	H 	0.41210 0.03830 0.10837 0.12900
H 	H 	0.60850 0.27060 0.15487 0.13300
H 	H 	0.75680 0.38370 0.13067 -0.02700
H 	H 	0.31720 0.00820 0.14247 0.15100
H 	H 	0.36910 0.12270 0.15767 0.14900
H 	H 	0.49810 0.05860 0.17397 -0.02000
H 	H 	0.62550 0.25340 0.29577 -0.01700
H 	H 	0.71870 0.19090 0.31947 0.12800
H 	H 	0.99760 0.29740 0.27807 0.14300
H 	H 	0.89700 0.36070 0.25587 -0.04400
H 	H 	0.87340 0.11360 0.32417 0.15500
H 	H 	0.99030 0.17290 0.30937 0.16000
H 	H 	0.05740 0.36180 0.32607 -0.03300
H 	H 	0.82110 0.72410 0.13797 0.12500
H 	H 	0.60570 0.49680 0.19407 0.15600
H 	H 	0.38490 0.36010 0.10577 0.11600
H 	H 	0.09260 0.30700 0.15917 0.30700
H 	H 	0.03640 0.83680 0.94430 0.12300
H 	H 	0.00360 0.71010 0.93400 0.12100
H 	H 	0.09640 0.38680 0.02020 0.11900
H 	H 	0.98480 0.37750 0.03310 0.12200
H 	H 	0.05860 0.26970 0.97160 0.12000
H 	H 	0.99980 0.20750 0.94970 0.11700
H 	H 	0.40890 0.56590 0.91820 -0.03100
H 	H 	0.37380 0.41210 0.94170 0.13400
H 	H 	0.33790 0.60850 0.98820 0.13700
H 	H 	0.37310 0.75680 0.96400 -0.02900
H 	H 	0.30900 0.31720 0.97580 0.16100
H 	H 	0.24640 0.36910 0.99100 0.15800
H 	H 	0.43950 0.49810 0.00730 -0.03300
H 	H 	0.37210 0.62550 0.12910 -0.01600
H 	H 	0.52780 0.71870 0.15280 0.13000
H 	H 	0.70020 0.99760 0.11140 0.14400
H 	H 	0.53630 0.89700 0.08920 -0.04400
H 	H 	0.75980 0.87340 0.15750 0.16000
H 	H 	0.81740 0.99030 0.14270 0.16400
H 	H 	0.69560 0.05740 0.15940 -0.03400
H 	H 	0.09700 0.82110 0.97130 0.12400
H 	H 	0.10890 0.60570 0.02740 0.15600
H 	H 	0.02480 0.38490 0.93910 0.11500
H 	H 	0.78560 0.09260 0.99250 0.30600
H 	H 	0.80040 0.96360 0.27763 0.12900
H 	H 	0.70650 0.99640 0.26733 0.12800
H 	H 	0.29040 0.90360 0.35353 0.11300
H 	H 	0.39270 0.01520 0.36643 0.10400
H 	H 	0.21110 0.94140 0.30493 0.14200
H 	H 	0.20770 0.00020 0.28303 0.12500
H 	H 	0.15700 0.59110 0.25153 -0.02900
H 	H 	0.03830 0.62620 0.27503 0.13000
H 	H 	0.27060 0.66210 0.32153 0.13400
H 	H 	0.38370 0.62690 0.29733 -0.02700
H 	H 	0.00820 0.69100 0.30913 0.15300
H 	H 	0.12270 0.75360 0.32433 0.15100
H 	H 	0.05860 0.56050 0.34063 -0.02200
H 	H 	0.25340 0.62790 0.46243 -0.01800
H 	H 	0.19090 0.47220 0.48613 0.13000
H 	H 	0.29740 0.29980 0.44473 0.14300
H 	H 	0.36070 0.46370 0.42253 -0.04600
H 	H 	0.11360 0.24020 0.49083 0.16300
H 	H 	0.17290 0.18260 0.47603 0.16600
H 	H 	0.36180 0.30440 0.49273 -0.04600
H 	H 	0.72410 0.90300 0.30463 0.12700
H 	H 	0.49680 0.89110 0.36073 0.15800
H 	H 	0.36010 0.97520 0.27243 0.11700
H 	H 	0.30700 0.21440 0.32583 0.31000
H 	H 	0.16320 0.19960 0.61097 0.12200
H 	H 	0.28990 0.29350 0.60067 0.12300
H 	H 	0.61320 0.70960 0.68687 0.12000
H 	H 	0.62250 0.60730 0.69977 0.12000
H 	H 	0.73030 0.78890 0.63827 0.12800
H 	H 	0.79250 0.79230 0.61637 0.12300
H 	H 	0.43410 0.84300 0.58487 -0.02900
H 	H 	0.58790 0.96170 0.60837 0.13400
H 	H 	0.39150 0.72940 0.65487 0.13400
H 	H 	0.24320 0.61630 0.63067 -0.02900
H 	H 	0.68280 0.99180 0.64247 0.15700
H 	H 	0.63090 0.87730 0.65767 0.15200
H 	H 	0.50190 0.94140 0.67397 -0.01600
H 	H 	0.37450 0.74660 0.79577 -0.01600
H 	H 	0.28130 0.80910 0.81947 0.13100
H 	H 	0.00240 0.70260 0.77807 0.13900
H 	H 	0.10300 0.63930 0.75587 -0.04800
H 	H 	0.12660 0.88640 0.82417 0.16000
H 	H 	0.00970 0.82710 0.80937 0.16000
H 	H 	0.94260 0.63820 0.82607 -0.02700
H 	H 	0.17890 0.27590 0.63797 0.12300
H 	H 	0.39430 0.50320 0.69407 0.15600
H 	H 	0.61510 0.63990 0.60577 0.11600
H 	H 	0.90740 0.69300 0.65917 0.30900
H 	H 	0.80040 0.83680 0.88903 0.12600
H 	H 	0.70650 0.71010 0.89933 0.12300
H 	H 	0.29040 0.38680 0.81313 0.11800
H 	H 	0.39270 0.37750 0.80023 0.11900
H 	H 	0.21110 0.26970 0.86173 0.12500
H 	H 	0.20770 0.20750 0.88363 0.11800
H 	H 	0.15700 0.56590 0.91513 -0.02900
H 	H 	0.03830 0.41210 0.89163 0.12900
H 	H 	0.27060 0.60850 0.84513 0.13300
H 	H 	0.38370 0.75680 0.86933 -0.02700
H 	H 	0.00820 0.31720 0.85753 0.15100
H 	H 	0.12270 0.36910 0.84233 0.14900
H 	H 	0.05860 0.49810 0.82603 -0.02000
H 	H 	0.25340 0.62550 0.70423 -0.01700
H 	H 	0.19090 0.71870 0.68053 0.12800
H 	H 	0.29740 0.99760 0.72193 0.14300
H 	H 	0.36070 0.89700 0.74413 -0.04400
H 	H 	0.11360 0.87340 0.67583 0.15500
H 	H 	0.17290 0.99030 0.69063 0.16000
H 	H 	0.36180 0.05740 0.67393 -0.03300
H 	H 	0.72410 0.82110 0.86203 0.12500
H 	H 	0.49680 0.60570 0.80593 0.15600
H 	H 	0.36010 0.38490 0.89423 0.11600
H 	H 	0.30700 0.09260 0.84083 0.30700
H 	H 	0.16320 0.96360 0.55570 0.12600
H 	H 	0.28990 0.99640 0.56600 0.12700
H 	H 	0.61320 0.90360 0.47980 0.11300
H 	H 	0.62250 0.01520 0.46690 0.10500
H 	H 	0.73030 0.94140 0.52840 0.14300
H 	H 	0.79250 0.00020 0.55030 0.12700
H 	H 	0.43410 0.59110 0.58180 -0.03100
H 	H 	0.58790 0.62620 0.55830 0.13500
H 	H 	0.39150 0.66210 0.51180 0.13700
H 	H 	0.24320 0.62690 0.53600 -0.03000
H 	H 	0.68280 0.69100 0.52420 0.16400
H 	H 	0.63090 0.75360 0.50900 0.16100
H 	H 	0.50190 0.56050 0.49270 -0.03400
H 	H 	0.37450 0.62790 0.37090 -0.01600
H 	H 	0.28130 0.47220 0.34720 0.13000
H 	H 	0.00240 0.29980 0.38860 0.13800
H 	H 	0.10300 0.46370 0.41080 -0.04800
H 	H 	0.12660 0.24020 0.34250 0.15800
H 	H 	0.00970 0.18260 0.35730 0.15700
H 	H 	0.94260 0.30440 0.34060 -0.02700
H 	H 	0.17890 0.90300 0.52870 0.12500
H 	H 	0.39430 0.89110 0.47260 0.15800
H 	H 	0.61510 0.97520 0.56090 0.11700
H 	H 	0.90740 0.21440 0.50750 0.31100
H 	H 	0.03640 0.19960 0.22237 0.12200
H 	H 	0.00360 0.29350 0.23267 0.12100
H 	H 	0.09640 0.70960 0.14647 0.12000
H 	H 	0.98480 0.60730 0.13357 0.12200
H 	H 	0.05860 0.78890 0.19507 0.12300
H 	H 	0.99980 0.79230 0.21697 0.11900
H 	H 	0.40890 0.84300 0.24847 -0.02800
H 	H 	0.37380 0.96170 0.22497 0.13300
H 	H 	0.33790 0.72940 0.17847 0.13300
H 	H 	0.37310 0.61630 0.20267 -0.02700
H 	H 	0.30900 0.99180 0.19087 0.15500
H 	H 	0.24640 0.87730 0.17567 0.15000
H 	H 	0.43950 0.94140 0.15937 -0.01300
H 	H 	0.37210 0.74660 0.03757 -0.01800
H 	H 	0.52780 0.80910 0.01387 0.13500
H 	H 	0.70020 0.70260 0.05527 0.14600
H 	H 	0.53630 0.63930 0.07747 -0.04700
H 	H 	0.75980 0.88640 0.00917 0.17300
H 	H 	0.81740 0.82710 0.02397 0.17500
H 	H 	0.69560 0.63820 0.00727 -0.05100
H 	H 	0.09700 0.27590 0.19537 0.12400
H 	H 	0.10890 0.50320 0.13927 0.15600
H 	H 	0.02480 0.63990 0.22757 0.11600
H 	H 	0.78560 0.69300 0.17417 0.30700
H 	H 	0.19960 0.16320 0.38903 0.12200
H 	H 	0.29350 0.28990 0.39933 0.12300
H 	H 	0.70960 0.61320 0.31313 0.12000
H 	H 	0.60730 0.62250 0.30023 0.12000
H 	H 	0.78890 0.73030 0.36173 0.12800
H 	H 	0.79230 0.79250 0.38363 0.12300
H 	H 	0.84300 0.43410 0.41513 -0.02900
H 	H 	0.96170 0.58790 0.39163 0.13400
H 	H 	0.72940 0.39150 0.34513 0.13400
H 	H 	0.61630 0.24320 0.36933 -0.02900
H 	H 	0.99180 0.68280 0.35753 0.15700
H 	H 	0.87730 0.63090 0.34233 0.15200
H 	H 	0.94140 0.50190 0.32603 -0.01600
H 	H 	0.74660 0.37450 0.20423 -0.01600
H 	H 	0.80910 0.28130 0.18053 0.13100
H 	H 	0.70260 0.00240 0.22193 0.13900
H 	H 	0.63930 0.10300 0.24413 -0.04800
H 	H 	0.88640 0.12660 0.17583 0.16000
H 	H 	0.82710 0.00970 0.19063 0.16000
H 	H 	0.63820 0.94260 0.17393 -0.02700
H 	H 	0.27590 0.17890 0.36203 0.12300
H 	H 	0.50320 0.39430 0.30593 0.15600
H 	H 	0.63990 0.61510 0.39423 0.11600
H 	H 	0.69300 0.90740 0.34083 0.30900
H 	H 	0.83680 0.03640 0.05570 0.12300
H 	H 	0.71010 0.00360 0.06600 0.12100
H 	H 	0.38680 0.09640 0.97980 0.11900
H 	H 	0.37750 0.98480 0.96690 0.12200
H 	H 	0.26970 0.05860 0.02840 0.12000
H 	H 	0.20750 0.99980 0.05030 0.11700
H 	H 	0.56590 0.40890 0.08180 -0.03100
H 	H 	0.41210 0.37380 0.05830 0.13400
H 	H 	0.60850 0.33790 0.01180 0.13700
H 	H 	0.75680 0.37310 0.03600 -0.02900
H 	H 	0.31720 0.30900 0.02420 0.16100
H 	H 	0.36910 0.24640 0.00900 0.15800
H 	H 	0.49810 0.43950 0.99270 -0.03300
H 	H 	0.62550 0.37210 0.87090 -0.01600
H 	H 	0.71870 0.52780 0.84720 0.13000
H 	H 	0.99760 0.70020 0.88860 0.14400
H 	H 	0.89700 0.53630 0.91080 -0.04400
H 	H 	0.87340 0.75980 0.84250 0.16000
H 	H 	0.99030 0.81740 0.85730 0.16400
H 	H 	0.05740 0.69560 0.84060 -0.03400
H 	H 	0.82110 0.09700 0.02870 0.12400
H 	H 	0.60570 0.10890 0.97260 0.15600
H 	H 	0.38490 0.02480 0.06090 0.11500
H 	H 	0.09260 0.78560 0.00750 0.30600
H 	H 	0.96360 0.80040 0.72237 0.12900
H 	H 	0.99640 0.70650 0.73267 0.12800
H 	H 	0.90360 0.29040 0.64647 0.11300
H 	H 	0.01520 0.39270 0.63357 0.10400
H 	H 	0.94140 0.21110 0.69507 0.14200
H 	H 	0.00020 0.20770 0.71697 0.12500
H 	H 	0.59110 0.15700 0.74847 -0.02900
H 	H 	0.62620 0.03830 0.72497 0.13000
H 	H 	0.66210 0.27060 0.67847 0.13400
H 	H 	0.62690 0.38370 0.70267 -0.02700
H 	H 	0.69100 0.00820 0.69087 0.15300
H 	H 	0.75360 0.12270 0.67567 0.15100
H 	H 	0.56050 0.05860 0.65937 -0.02200
H 	H 	0.62790 0.25340 0.53757 -0.01800
H 	H 	0.47220 0.19090 0.51387 0.13000
H 	H 	0.29980 0.29740 0.55527 0.14300
H 	H 	0.46370 0.36070 0.57747 -0.04600
H 	H 	0.24020 0.11360 0.50917 0.16300
H 	H 	0.18260 0.17290 0.52397 0.16600
H 	H 	0.30440 0.36180 0.50727 -0.04600
H 	H 	0.90300 0.72410 0.69537 0.12700
H 	H 	0.89110 0.49680 0.63927 0.15800
H 	H 	0.97520 0.36010 0.72757 0.11700
H 	H 	0.21440 0.30700 0.67417 0.31000
C 	C 	0.92390 0.33810 0.46903 0.19600
C 	C 	0.92430 0.45150 0.49859 0.19100
C 	C 	0.95860 0.53060 0.46546 0.18600
C 	C 	0.92960 0.21360 0.43958 -0.26800
C 	C 	0.81800 0.17220 0.42599 0.41000
C 	C 	0.92860 0.56950 0.52996 -0.21500
C 	C 	0.85550 0.54160 0.55043 0.36000
C 	C 	0.00420 0.74310 0.46126 -0.30000
C 	C 	0.13080 0.81380 0.47199 0.46400
C 	C 	0.60610 0.42510 0.43245 0.16100
C 	C 	0.62720 0.51850 0.44659 -0.29100
C 	C 	0.64960 0.50920 0.46789 0.28300
C 	C 	0.64840 0.40270 0.47399 -0.28500
C 	C 	0.62710 0.31360 0.45931 0.15900
C 	C 	0.67790 0.61030 0.48360 -0.44200
C 	C 	0.56070 0.29890 0.62539 0.15100
C 	C 	0.46680 0.24400 0.63971 -0.27500
C 	C 	0.36350 0.13310 0.63478 0.25600
C 	C 	0.36500 0.07880 0.61530 -0.28200
C 	C 	0.46410 0.14020 0.60208 0.15300
C 	C 	0.25610 0.06720 0.65039 -0.42200
C 	C 	0.41420 0.07610 0.80236 0.19400
C 	C 	0.52720 0.07570 0.83192 0.18800
C 	C 	0.57200 0.04140 0.79879 0.18500
C 	C 	0.28400 0.07040 0.77291 -0.26400
C 	C 	0.35420 0.18200 0.75932 0.40800
C 	C 	0.64090 0.07140 0.86329 -0.24400
C 	C 	0.68610 0.14450 0.88376 0.36700
C 	C 	0.73890 0.99580 0.79459 -0.25800
C 	C 	0.68300 0.86920 0.80532 0.45400
C 	C 	0.81900 0.39390 0.76578 0.15600
C 	C 	0.89130 0.37280 0.77992 -0.27900
C 	C 	0.85960 0.35040 0.80122 0.26700
C 	C 	0.75430 0.35160 0.80732 -0.27400
C 	C 	0.68650 0.37290 0.79264 0.15400
C 	C 	0.93240 0.32210 0.81693 -0.40200
C 	C 	0.73820 0.43930 0.95872 0.15900
C 	C 	0.77720 0.53320 0.97304 -0.28700
C 	C 	0.76960 0.63650 0.96811 0.27700
C 	C 	0.71380 0.63500 0.94863 -0.29300
C 	C 	0.67610 0.53590 0.93541 0.16100
C 	C 	0.81110 0.74390 0.98372 -0.46600
C 	C 	0.66190 0.58580 0.13570 0.19400
C 	C 	0.54850 0.47280 0.16526 0.18800
C 	C 	0.46940 0.42800 0.13213 0.18500
C 	C 	0.78640 0.71600 0.10625 -0.26500
C 	C 	0.82780 0.64580 0.09266 0.40900
C 	C 	0.43050 0.35910 0.19663 -0.24000
C 	C 	0.45840 0.31390 0.21710 0.36600
C 	C 	0.25690 0.26110 0.12793 -0.26600
C 	C 	0.18620 0.31700 0.13866 0.45500
C 	C 	0.57490 0.18100 0.09912 0.15400
C 	C 	0.48150 0.10870 0.11326 -0.28000
C 	C 	0.49080 0.14040 0.13456 0.26600
C 	C 	0.59730 0.24570 0.14066 -0.27400
C 	C 	0.68640 0.31350 0.12598 0.15300
C 	C 	0.38970 0.06760 0.15027 -0.40700
C 	C 	0.70110 0.26180 0.29206 0.15000
C 	C 	0.75600 0.22280 0.30638 -0.27400
C 	C 	0.86690 0.23040 0.30145 0.25500
C 	C 	0.92120 0.28620 0.28197 -0.28000
C 	C 	0.85980 0.32390 0.26875 0.15300
C 	C 	0.93280 0.18890 0.31706 -0.41600
C 	C 	0.07610 0.66190 0.96903 0.19300
C 	C 	0.07570 0.54850 0.99859 0.18700
C 	C 	0.04140 0.46940 0.96546 0.18400
C 	C 	0.07040 0.78640 0.93958 -0.26400
C 	C 	0.18200 0.82780 0.92599 0.40800
C 	C 	0.07140 0.43050 0.02996 -0.24500
C 	C 	0.14450 0.45840 0.05043 0.36700
C 	C 	0.99580 0.25690 0.96126 -0.25400
C 	C 	0.86920 0.18620 0.97199 0.45200
C 	C 	0.39390 0.57490 0.93245 0.16000
C 	C 	0.37280 0.48150 0.94659 -0.28900
C 	C 	0.35040 0.49080 0.96789 0.28100
C 	C 	0.35160 0.59730 0.97399 -0.28300
C 	C 	0.37290 0.68640 0.95931 0.15800
C 	C 	0.32210 0.38970 0.98360 -0.43700
C 	C 	0.43930 0.70110 0.12539 0.15200
C 	C 	0.53320 0.75600 0.13971 -0.27600
C 	C 	0.63650 0.86690 0.13478 0.25900
C 	C 	0.63500 0.92120 0.11530 -0.28200
C 	C 	0.53590 0.85980 0.10208 0.15500
C 	C 	0.74390 0.93280 0.15039 -0.42000
C 	C 	0.58580 0.92390 0.30236 0.19600
C 	C 	0.47280 0.92430 0.33192 0.19100
C 	C 	0.42800 0.95860 0.29879 0.18600
C 	C 	0.71600 0.92960 0.27291 -0.26800
C 	C 	0.64580 0.81800 0.25932 0.41100
C 	C 	0.35910 0.92860 0.36329 -0.21500
C 	C 	0.31390 0.85550 0.38376 0.36000
C 	C 	0.26110 0.00420 0.29459 -0.30000
C 	C 	0.31700 0.13080 0.30532 0.46300
C 	C 	0.18100 0.60610 0.26578 0.15500
C 	C 	0.10870 0.62720 0.27992 -0.28100
C 	C 	0.14040 0.64960 0.30122 0.26800
C 	C 	0.24570 0.64840 0.30732 -0.27500
C 	C 	0.31350 0.62710 0.29264 0.15300
C 	C 	0.06760 0.67790 0.31693 -0.41200
C 	C 	0.26180 0.56070 0.45872 0.15400
C 	C 	0.22280 0.46680 0.47304 -0.28200
C 	C 	0.23040 0.36350 0.46811 0.26700
C 	C 	0.28620 0.36500 0.44863 -0.28800
C 	C 	0.32390 0.46410 0.43541 0.15700
C 	C 	0.18890 0.25610 0.48372 -0.44900
C 	C 	0.33810 0.41420 0.63570 0.19400
C 	C 	0.45150 0.52720 0.66526 0.18800
C 	C 	0.53060 0.57200 0.63213 0.18500
C 	C 	0.21360 0.28400 0.60625 -0.26500
C 	C 	0.17220 0.35420 0.59266 0.40800
C 	C 	0.56950 0.64090 0.69663 -0.24000
C 	C 	0.54160 0.68610 0.71710 0.36600
C 	C 	0.74310 0.73890 0.62793 -0.26800
C 	C 	0.81380 0.68300 0.63866 0.45700
C 	C 	0.42510 0.81900 0.59912 0.15700
C 	C 	0.51850 0.89130 0.61326 -0.28100
C 	C 	0.50920 0.85960 0.63456 0.27000
C 	C 	0.40270 0.75430 0.64066 -0.27600
C 	C 	0.31360 0.68650 0.62598 0.15500
C 	C 	0.61030 0.93240 0.65027 -0.40800
C 	C 	0.29890 0.73820 0.79206 0.15200
C 	C 	0.24400 0.77720 0.80638 -0.27600
C 	C 	0.13310 0.76960 0.80145 0.25800
C 	C 	0.07880 0.71380 0.78197 -0.28300
C 	C 	0.14020 0.67610 0.76875 0.15400
C 	C 	0.06720 0.81110 0.81706 -0.42600
C 	C 	0.58580 0.66190 0.86430 0.19400
C 	C 	0.47280 0.54850 0.83474 0.18800
C 	C 	0.42800 0.46940 0.86787 0.18500
C 	C 	0.71600 0.78640 0.89375 -0.26500
C 	C 	0.64580 0.82780 0.90734 0.40900
C 	C 	0.35910 0.43050 0.80337 -0.24000
C 	C 	0.31390 0.45840 0.78290 0.36600
C 	C 	0.26110 0.25690 0.87207 -0.26600
C 	C 	0.31700 0.18620 0.86134 0.45500
C 	C 	0.18100 0.57490 0.90088 0.15400
C 	C 	0.10870 0.48150 0.88674 -0.28000
C 	C 	0.14040 0.49080 0.86544 0.26600
C 	C 	0.24570 0.59730 0.85934 -0.27400
C 	C 	0.31350 0.68640 0.87402 0.15300
C 	C 	0.06760 0.38970 0.84973 -0.40700
C 	C 	0.26180 0.70110 0.70794 0.15000
C 	C 	0.22280 0.75600 0.69362 -0.27400
C 	C 	0.23040 0.86690 0.69855 0.25500
C 	C 	0.28620 0.92120 0.71803 -0.28000
C 	C 	0.32390 0.85980 0.73125 0.15300
C 	C 	0.18890 0.93280 0.68294 -0.41600
C 	C 	0.33810 0.92390 0.53097 0.19600
C 	C 	0.45150 0.92430 0.50141 0.19100
C 	C 	0.53060 0.95860 0.53454 0.18600
C 	C 	0.21360 0.92960 0.56042 -0.26800
C 	C 	0.17220 0.81800 0.57401 0.41000
C 	C 	0.56950 0.92860 0.47004 -0.21500
C 	C 	0.54160 0.85550 0.44957 0.36000
C 	C 	0.74310 0.00420 0.53874 -0.30000
C 	C 	0.81380 0.13080 0.52801 0.46400
C 	C 	0.42510 0.60610 0.56755 0.16100
C 	C 	0.51850 0.62720 0.55341 -0.29100
C 	C 	0.50920 0.64960 0.53211 0.28300
C 	C 	0.40270 0.64840 0.52601 -0.28500
C 	C 	0.31360 0.62710 0.54069 0.15900
C 	C 	0.61030 0.67790 0.51640 -0.44200
C 	C 	0.29890 0.56070 0.37461 0.15100
C 	C 	0.24400 0.46680 0.36029 -0.27500
C 	C 	0.13310 0.36350 0.36522 0.25600
C 	C 	0.07880 0.36500 0.38470 -0.28200
C 	C 	0.14020 0.46410 0.39792 0.15300
C 	C 	0.06720 0.25610 0.34961 -0.42200
C 	C 	0.07610 0.41420 0.19764 0.19400
C 	C 	0.07570 0.52720 0.16808 0.18800
C 	C 	0.04140 0.57200 0.20121 0.18500
C 	C 	0.07040 0.28400 0.22709 -0.26400
C 	C 	0.18200 0.35420 0.24068 0.40800
C 	C 	0.07140 0.64090 0.13671 -0.24400
C 	C 	0.14450 0.68610 0.11624 0.36700
C 	C 	0.99580 0.73890 0.20541 -0.25800
C 	C 	0.86920 0.68300 0.19468 0.45400
C 	C 	0.39390 0.81900 0.23422 0.15600
C 	C 	0.37280 0.89130 0.22008 -0.27900
C 	C 	0.35040 0.85960 0.19878 0.26700
C 	C 	0.35160 0.75430 0.19268 -0.27400
C 	C 	0.37290 0.68650 0.20736 0.15400
C 	C 	0.32210 0.93240 0.18307 -0.40200
C 	C 	0.43930 0.73820 0.04128 0.15900
C 	C 	0.53320 0.77720 0.02696 -0.28700
C 	C 	0.63650 0.76960 0.03189 0.27700
C 	C 	0.63500 0.71380 0.05137 -0.29300
C 	C 	0.53590 0.67610 0.06459 0.16100
C 	C 	0.74390 0.81110 0.01628 -0.46600
C 	C 	0.41420 0.33810 0.36430 0.19400
C 	C 	0.52720 0.45150 0.33474 0.18800
C 	C 	0.57200 0.53060 0.36787 0.18500
C 	C 	0.28400 0.21360 0.39375 -0.26500
C 	C 	0.35420 0.17220 0.40734 0.40800
C 	C 	0.64090 0.56950 0.30337 -0.24000
C 	C 	0.68610 0.54160 0.28290 0.36600
C 	C 	0.73890 0.74310 0.37207 -0.26800
C 	C 	0.68300 0.81380 0.36134 0.45700
C 	C 	0.81900 0.42510 0.40088 0.15700
C 	C 	0.89130 0.51850 0.38674 -0.28100
C 	C 	0.85960 0.50920 0.36544 0.27000
C 	C 	0.75430 0.40270 0.35934 -0.27600
C 	C 	0.68650 0.31360 0.37402 0.15500
C 	C 	0.93240 0.61030 0.34973 -0.40800
C 	C 	0.73820 0.29890 0.20794 0.15200
C 	C 	0.77720 0.24400 0.19362 -0.27600
C 	C 	0.76960 0.13310 0.19855 0.25800
C 	C 	0.71380 0.07880 0.21803 -0.28300
C 	C 	0.67610 0.14020 0.23125 0.15400
C 	C 	0.81110 0.06720 0.18294 -0.42600
C 	C 	0.66190 0.07610 0.03097 0.19300
C 	C 	0.54850 0.07570 0.00141 0.18700
C 	C 	0.46940 0.04140 0.03454 0.18400
C 	C 	0.78640 0.07040 0.06042 -0.26400
C 	C 	0.82780 0.18200 0.07401 0.40800
C 	C 	0.43050 0.07140 0.97004 -0.24500
C 	C 	0.45840 0.14450 0.94957 0.36700
C 	C 	0.25690 0.99580 0.03874 -0.25400
C 	C 	0.18620 0.86920 0.02801 0.45200
C 	C 	0.57490 0.39390 0.06755 0.16000
C 	C 	0.48150 0.37280 0.05341 -0.28900
C 	C 	0.49080 0.35040 0.03211 0.28100
C 	C 	0.59730 0.35160 0.02601 -0.28300
C 	C 	0.68640 0.37290 0.04069 0.15800
C 	C 	0.38970 0.32210 0.01640 -0.43700
C 	C 	0.70110 0.43930 0.87461 0.15200
C 	C 	0.75600 0.53320 0.86029 -0.27600
C 	C 	0.86690 0.63650 0.86522 0.25900
C 	C 	0.92120 0.63500 0.88470 -0.28200
C 	C 	0.85980 0.53590 0.89792 0.15500
C 	C 	0.93280 0.74390 0.84961 -0.42000
C 	C 	0.92390 0.58580 0.69764 0.19600
C 	C 	0.92430 0.47280 0.66808 0.19100
C 	C 	0.95860 0.42800 0.70121 0.18600
C 	C 	0.92960 0.71600 0.72709 -0.26800
C 	C 	0.81800 0.64580 0.74068 0.41100
C 	C 	0.92860 0.35910 0.63671 -0.21500
C 	C 	0.85550 0.31390 0.61624 0.36000
C 	C 	0.00420 0.26110 0.70541 -0.30000
C 	C 	0.13080 0.31700 0.69468 0.46300
C 	C 	0.60610 0.18100 0.73422 0.15500
C 	C 	0.62720 0.10870 0.72008 -0.28100
C 	C 	0.64960 0.14040 0.69878 0.26800
C 	C 	0.64840 0.24570 0.69268 -0.27500
C 	C 	0.62710 0.31350 0.70736 0.15300
C 	C 	0.67790 0.06760 0.68307 -0.41200
C 	C 	0.56070 0.26180 0.54128 0.15400
C 	C 	0.46680 0.22280 0.52696 -0.28200
C 	C 	0.36350 0.23040 0.53189 0.26700
C 	C 	0.36500 0.28620 0.55137 -0.28800
C 	C 	0.46410 0.32390 0.56459 0.15700
C 	C 	0.25610 0.18890 0.51628 -0.44900
C 	C 	0.57670 0.57670 0.50000 0.22700
C 	C 	-0.00000 0.42330 0.83333 0.17100
C 	C 	0.42330 0.00000 0.16667 0.17100
C 	C 	0.42330 0.42330 -0.00000 0.22200
C 	C 	0.00000 0.57670 0.33333 0.17900
C 	C 	0.57670 0.00000 0.66667 0.17900
C 	C 	0.28800 0.00000 0.66667 0.21100
C 	C 	0.71200 0.71200 -0.00000 0.27800
C 	C 	0.00000 0.28800 0.33333 0.21100
C 	C 	0.71200 0.00000 0.16667 0.21200
C 	C 	0.28800 0.28800 0.50000 0.25900
C 	C 	0.00000 0.71200 0.83333 0.21200
N 	N 	0.94700 0.42960 0.45588 -0.16900
N 	N 	0.90880 0.34340 0.49090 -0.18400
N 	N 	0.95190 0.54890 0.48671 -0.16400
N 	N 	0.91630 0.23540 0.46218 -0.18000
N 	N 	0.91090 0.45820 0.51964 -0.19000
N 	N 	0.97820 0.62500 0.45279 -0.15900
N 	N 	0.60620 0.32260 0.43824 -0.26100
N 	N 	0.56230 0.25090 0.60641 -0.27500
N 	N 	0.48260 0.05300 0.78921 -0.17100
N 	N 	0.43460 0.09120 0.82423 -0.18400
N 	N 	0.59700 0.04810 0.82004 -0.16600
N 	N 	0.31910 0.08370 0.79551 -0.18100
N 	N 	0.54730 0.08910 0.85297 -0.18700
N 	N 	0.64680 0.02180 0.78612 -0.17000
N 	N 	0.71640 0.39380 0.77157 -0.25900
N 	N 	0.68860 0.43770 0.93974 -0.27700
N 	N 	0.57040 0.51740 0.12255 -0.17000
N 	N 	0.65660 0.56540 0.15757 -0.18400
N 	N 	0.45110 0.40300 0.15338 -0.16500
N 	N 	0.76460 0.68090 0.12885 -0.18100
N 	N 	0.54180 0.45270 0.18631 -0.18700
N 	N 	0.37500 0.35320 0.11946 -0.16800
N 	N 	0.67740 0.28360 0.10491 -0.25900
N 	N 	0.74910 0.31140 0.27308 -0.27400
N 	N 	0.05300 0.57040 0.95588 -0.17100
N 	N 	0.09120 0.65660 0.99090 -0.18400
N 	N 	0.04810 0.45110 0.98671 -0.16600
N 	N 	0.08370 0.76460 0.96218 -0.18100
N 	N 	0.08910 0.54180 0.01964 -0.18700
N 	N 	0.02180 0.37500 0.95279 -0.17100
N 	N 	0.39380 0.67740 0.93824 -0.26000
N 	N 	0.43770 0.74910 0.10641 -0.27500
N 	N 	0.51740 0.94700 0.28921 -0.16900
N 	N 	0.56540 0.90880 0.32423 -0.18400
N 	N 	0.40300 0.95190 0.32004 -0.16400
N 	N 	0.68090 0.91630 0.29551 -0.18000
N 	N 	0.45270 0.91090 0.35297 -0.19000
N 	N 	0.35320 0.97820 0.28612 -0.15900
N 	N 	0.28360 0.60620 0.27157 -0.25900
N 	N 	0.31140 0.56230 0.43974 -0.27600
N 	N 	0.42960 0.48260 0.62255 -0.17000
N 	N 	0.34340 0.43460 0.65757 -0.18400
N 	N 	0.54890 0.59700 0.65338 -0.16500
N 	N 	0.23540 0.31910 0.62885 -0.18100
N 	N 	0.45820 0.54730 0.68631 -0.18700
N 	N 	0.62500 0.64680 0.61946 -0.16700
N 	N 	0.32260 0.71640 0.60491 -0.25900
N 	N 	0.25090 0.68860 0.77308 -0.27500
N 	N 	0.51740 0.57040 0.87745 -0.17000
N 	N 	0.56540 0.65660 0.84243 -0.18400
N 	N 	0.40300 0.45110 0.84662 -0.16500
N 	N 	0.68090 0.76460 0.87115 -0.18100
N 	N 	0.45270 0.54180 0.81369 -0.18700
N 	N 	0.35320 0.37500 0.88054 -0.16800
N 	N 	0.28360 0.67740 0.89509 -0.25900
N 	N 	0.31140 0.74910 0.72692 -0.27400
N 	N 	0.42960 0.94700 0.54412 -0.16900
N 	N 	0.34340 0.90880 0.50910 -0.18400
N 	N 	0.54890 0.95190 0.51329 -0.16400
N 	N 	0.23540 0.91630 0.53782 -0.18000
N 	N 	0.45820 0.91090 0.48036 -0.19000
N 	N 	0.62500 0.97820 0.54721 -0.15900
N 	N 	0.32260 0.60620 0.56176 -0.26100
N 	N 	0.25090 0.56230 0.39359 -0.27500
N 	N 	0.05300 0.48260 0.21079 -0.17100
N 	N 	0.09120 0.43460 0.17577 -0.18400
N 	N 	0.04810 0.59700 0.17996 -0.16600
N 	N 	0.08370 0.31910 0.20449 -0.18100
N 	N 	0.08910 0.54730 0.14703 -0.18700
N 	N 	0.02180 0.64680 0.21388 -0.17000
N 	N 	0.39380 0.71640 0.22843 -0.25900
N 	N 	0.43770 0.68860 0.06026 -0.27700
N 	N 	0.48260 0.42960 0.37745 -0.17000
N 	N 	0.43460 0.34340 0.34243 -0.18400
N 	N 	0.59700 0.54890 0.34662 -0.16500
N 	N 	0.31910 0.23540 0.37115 -0.18100
N 	N 	0.54730 0.45820 0.31369 -0.18700
N 	N 	0.64680 0.62500 0.38054 -0.16700
N 	N 	0.71640 0.32260 0.39509 -0.25900
N 	N 	0.68860 0.25090 0.22692 -0.27500
N 	N 	0.57040 0.05300 0.04412 -0.17100
N 	N 	0.65660 0.09120 0.00910 -0.18400
N 	N 	0.45110 0.04810 0.01329 -0.16600
N 	N 	0.76460 0.08370 0.03782 -0.18100
N 	N 	0.54180 0.08910 0.98036 -0.18700
N 	N 	0.37500 0.02180 0.04721 -0.17100
N 	N 	0.67740 0.39380 0.06176 -0.26000
N 	N 	0.74910 0.43770 0.89359 -0.27500
N 	N 	0.94700 0.51740 0.71079 -0.16900
N 	N 	0.90880 0.56540 0.67577 -0.18400
N 	N 	0.95190 0.40300 0.67996 -0.16400
N 	N 	0.91630 0.68090 0.70449 -0.18000
N 	N 	0.91090 0.45270 0.64703 -0.19000
N 	N 	0.97820 0.35320 0.71388 -0.15900
N 	N 	0.60620 0.28360 0.72843 -0.25900
N 	N 	0.56230 0.31140 0.56026 -0.27600
O 	O 	0.73300 0.18500 0.43344 -0.43800
O 	O 	0.82030 0.12990 0.40804 -0.31300
O 	O 	0.82880 0.44320 0.56007 -0.41300
O 	O 	0.82790 0.62030 0.55672 -0.29300
O 	O 	0.14280 0.87430 0.48849 -0.55800
O 	O 	0.21690 0.80570 0.46313 -0.31300
O 	O 	0.45200 0.26700 0.76677 -0.43600
O 	O 	0.30960 0.17970 0.74137 -0.31400
O 	O 	0.61440 0.17120 0.89340 -0.41700
O 	O 	0.79240 0.17210 0.89005 -0.29600
O 	O 	0.73150 0.85720 0.82182 -0.55000
O 	O 	0.58880 0.78310 0.79646 -0.30900
O 	O 	0.81500 0.54800 0.10011 -0.43600
O 	O 	0.87010 0.69040 0.07471 -0.31100
O 	O 	0.55680 0.38560 0.22674 -0.41600
O 	O 	0.37970 0.20760 0.22339 -0.30000
O 	O 	0.12570 0.26850 0.15516 -0.55400
O 	O 	0.19430 0.41120 0.12980 -0.31000
O 	O 	0.26700 0.81500 0.93344 -0.43600
O 	O 	0.17970 0.87010 0.90804 -0.31200
O 	O 	0.17120 0.55680 0.06007 -0.41700
O 	O 	0.17210 0.37970 0.05672 -0.29900
O 	O 	0.85720 0.12570 0.98849 -0.55100
O 	O 	0.78310 0.19430 0.96313 -0.30900
O 	O 	0.54800 0.73300 0.26677 -0.43600
O 	O 	0.69040 0.82030 0.24137 -0.30900
O 	O 	0.38560 0.82880 0.39340 -0.41300
O 	O 	0.20760 0.82790 0.39005 -0.29500
O 	O 	0.26850 0.14280 0.32182 -0.56000
O 	O 	0.41120 0.21690 0.29646 -0.31400
O 	O 	0.18500 0.45200 0.60011 -0.43700
O 	O 	0.12990 0.30960 0.57471 -0.31600
O 	O 	0.44320 0.61440 0.72674 -0.41600
O 	O 	0.62030 0.79240 0.72339 -0.29500
O 	O 	0.87430 0.73150 0.65516 -0.55000
O 	O 	0.80570 0.58880 0.62980 -0.30900
O 	O 	0.54800 0.81500 0.89989 -0.43600
O 	O 	0.69040 0.87010 0.92529 -0.31100
O 	O 	0.38560 0.55680 0.77326 -0.41600
O 	O 	0.20760 0.37970 0.77661 -0.30000
O 	O 	0.26850 0.12570 0.84484 -0.55400
O 	O 	0.41120 0.19430 0.87020 -0.31000
O 	O 	0.18500 0.73300 0.56656 -0.43800
O 	O 	0.12990 0.82030 0.59196 -0.31300
O 	O 	0.44320 0.82880 0.43993 -0.41300
O 	O 	0.62030 0.82790 0.44328 -0.29300
O 	O 	0.87430 0.14280 0.51151 -0.55800
O 	O 	0.80570 0.21690 0.53687 -0.31300
O 	O 	0.26700 0.45200 0.23323 -0.43600
O 	O 	0.17970 0.30960 0.25863 -0.31400
O 	O 	0.17120 0.61440 0.10660 -0.41700
O 	O 	0.17210 0.79240 0.10995 -0.29600
O 	O 	0.85720 0.73150 0.17818 -0.55000
O 	O 	0.78310 0.58880 0.20354 -0.30900
O 	O 	0.45200 0.18500 0.39989 -0.43700
O 	O 	0.30960 0.12990 0.42529 -0.31600
O 	O 	0.61440 0.44320 0.27326 -0.41600
O 	O 	0.79240 0.62030 0.27661 -0.29500
O 	O 	0.73150 0.87430 0.34484 -0.55000
O 	O 	0.58880 0.80570 0.37020 -0.30900
O 	O 	0.81500 0.26700 0.06656 -0.43600
O 	O 	0.87010 0.17970 0.09196 -0.31200
O 	O 	0.55680 0.17120 0.93993 -0.41700
O 	O 	0.37970 0.17210 0.94328 -0.29900
O 	O 	0.12570 0.85720 0.01151 -0.55100
O 	O 	0.19430 0.78310 0.03687 -0.30900
O 	O 	0.73300 0.54800 0.73323 -0.43600
O 	O 	0.82030 0.69040 0.75863 -0.30900
O 	O 	0.82880 0.38560 0.60660 -0.41300
O 	O 	0.82790 0.20760 0.60995 -0.29500
O 	O 	0.14280 0.26850 0.67818 -0.56000
O 	O 	0.21690 0.41120 0.70354 -0.31400
