data_crystal

_cell_length_a 12.57640
_cell_length_b 12.57640
_cell_length_c 62.94100
_cell_angle_alpha 90.00000
_cell_angle_beta  90.00000
_cell_angle_gamma 120.00000

_symmetry_space_group_name_	'P 1'
_symmetry_space_group_name_H-M	'P 1'

loop_
_symmetry_equiv_pos_as_xyz
  x,y,z

loop_
_atom_site_label
_atom_site_type_symbol
_atom_site_fract_x
_atom_site_fract_y
_atom_site_fract_z
_atom_site_charge
Co	Co	0.59425 0.18850 0.41667 1.12400
Co	Co	0.59425 0.40575 0.75000 1.12500
Co	Co	0.81150 0.40575 0.08333 1.12600
Co	Co	0.40575 0.81150 0.91667 1.12600
Co	Co	0.40575 0.59425 0.25000 1.12600
Co	Co	0.18850 0.59425 0.58333 1.12500
Co	Co	0.69638 0.34819 0.58333 1.12600
Co	Co	0.65181 0.30362 0.91667 1.12600
Co	Co	0.65181 0.34819 0.25000 1.12600
Co	Co	0.30362 0.65181 0.08333 1.12600
Co	Co	0.34819 0.69638 0.41667 1.12600
Co	Co	0.34819 0.65181 0.75000 1.12600
H 	H 	0.97800 0.18000 0.43430 0.13100
H 	H 	0.97770 0.30170 0.43950 0.14400
H 	H 	0.90360 0.61360 0.52040 0.11500
H 	H 	0.01500 0.62240 0.53310 0.10600
H 	H 	0.94260 0.73050 0.47180 0.14300
H 	H 	0.00120 0.79330 0.45010 0.12800
H 	H 	0.59090 0.43380 0.41820 -0.03000
H 	H 	0.62480 0.58800 0.44190 0.12800
H 	H 	0.66200 0.39210 0.48810 0.13400
H 	H 	0.62730 0.24420 0.46400 -0.02900
H 	H 	0.69020 0.68190 0.47580 0.16000
H 	H 	0.75350 0.63090 0.49080 0.15600
H 	H 	0.56000 0.50140 0.50730 -0.02600
H 	H 	0.62880 0.37330 0.62940 -0.01400
H 	H 	0.47130 0.28270 0.65250 0.12600
H 	H 	0.29950 0.00270 0.61150 0.13300
H 	H 	0.46370 0.10180 0.58940 -0.04600
H 	H 	0.23950 0.12550 0.65720 0.15500
H 	H 	0.18320 0.00840 0.64260 0.15400
H 	H 	0.30410 0.94230 0.65940 -0.02200
H 	H 	0.90320 0.17970 0.47140 0.13200
H 	H 	0.88970 0.39350 0.52720 0.15700
H 	H 	0.97420 0.61510 0.43930 0.11700
H 	H 	0.21450 0.90770 0.49250 0.30700
H 	H 	0.20200 0.02200 0.76763 0.12600
H 	H 	0.32400 0.02230 0.77283 0.13900
H 	H 	0.71000 0.09640 0.85373 0.12200
H 	H 	0.60740 0.98500 0.86643 0.12100
H 	H 	0.78790 0.05740 0.80513 0.12500
H 	H 	0.79210 0.99880 0.78343 0.12100
H 	H 	0.84290 0.40910 0.75153 -0.02800
H 	H 	0.96320 0.37520 0.77523 0.12700
H 	H 	0.73010 0.33800 0.82143 0.13000
H 	H 	0.61690 0.37270 0.79733 -0.02700
H 	H 	0.99170 0.30980 0.80913 0.15300
H 	H 	0.87740 0.24650 0.82413 0.14600
H 	H 	0.94140 0.44000 0.84063 -0.00800
H 	H 	0.74450 0.37120 0.96273 -0.01500
H 	H 	0.81140 0.52870 0.98583 0.13000
H 	H 	0.70320 0.70050 0.94483 0.14000
H 	H 	0.63810 0.53630 0.92273 -0.04500
H 	H 	0.88600 0.76050 0.99053 0.16700
H 	H 	0.82520 0.81680 0.97593 0.16900
H 	H 	0.63820 0.69590 0.99273 -0.04200
H 	H 	0.27650 0.09680 0.80473 0.13100
H 	H 	0.50380 0.11030 0.86053 0.15500
H 	H 	0.64090 0.02580 0.77263 0.11600
H 	H 	0.69320 0.78550 0.82583 0.30400
H 	H 	0.82000 0.79800 0.10097 0.12900
H 	H 	0.69830 0.67600 0.10617 0.14100
H 	H 	0.38640 0.29000 0.18707 0.12000
H 	H 	0.37760 0.39260 0.19977 0.12000
H 	H 	0.26950 0.21210 0.13847 0.12600
H 	H 	0.20670 0.20790 0.11677 0.12000
H 	H 	0.56620 0.15710 0.08487 -0.02900
H 	H 	0.41200 0.03680 0.10857 0.12300
H 	H 	0.60790 0.26990 0.15477 0.13000
H 	H 	0.75580 0.38310 0.13067 -0.02600
H 	H 	0.31810 0.00830 0.14247 0.14900
H 	H 	0.36910 0.12260 0.15747 0.14600
H 	H 	0.49860 0.05860 0.17397 -0.01400
H 	H 	0.62670 0.25550 0.29607 -0.01400
H 	H 	0.71730 0.18860 0.31917 0.12400
H 	H 	0.99730 0.29680 0.27817 0.13700
H 	H 	0.89820 0.36190 0.25607 -0.04200
H 	H 	0.87450 0.11400 0.32387 0.15200
H 	H 	0.99160 0.17480 0.30927 0.15700
H 	H 	0.05770 0.36180 0.32607 -0.02700
H 	H 	0.82030 0.72350 0.13807 0.13200
H 	H 	0.60650 0.49620 0.19387 0.15600
H 	H 	0.38490 0.35910 0.10597 0.11600
H 	H 	0.09230 0.30680 0.15917 0.30400
H 	H 	0.02200 0.82000 0.93430 0.12700
H 	H 	0.02230 0.69830 0.93950 0.13900
H 	H 	0.09640 0.38640 0.02040 0.12100
H 	H 	0.98500 0.37760 0.03310 0.12200
H 	H 	0.05740 0.26950 0.97180 0.12200
H 	H 	0.99880 0.20670 0.95010 0.11900
H 	H 	0.40910 0.56620 0.91820 -0.03000
H 	H 	0.37520 0.41200 0.94190 0.12700
H 	H 	0.33800 0.60790 0.98810 0.13300
H 	H 	0.37270 0.75580 0.96400 -0.02800
H 	H 	0.30980 0.31810 0.97580 0.15800
H 	H 	0.24650 0.36910 0.99080 0.15400
H 	H 	0.44000 0.49860 0.00730 -0.02500
H 	H 	0.37120 0.62670 0.12940 -0.01400
H 	H 	0.52870 0.71730 0.15250 0.12600
H 	H 	0.70050 0.99730 0.11150 0.13800
H 	H 	0.53630 0.89820 0.08940 -0.04200
H 	H 	0.76050 0.87450 0.15720 0.15600
H 	H 	0.81680 0.99160 0.14260 0.15900
H 	H 	0.69590 0.05770 0.15940 -0.02800
H 	H 	0.09680 0.82030 0.97140 0.13100
H 	H 	0.11030 0.60650 0.02720 0.15500
H 	H 	0.02580 0.38490 0.93930 0.11500
H 	H 	0.78550 0.09230 0.99250 0.30400
H 	H 	0.79800 0.97800 0.26763 0.13300
H 	H 	0.67600 0.97770 0.27283 0.14400
H 	H 	0.29000 0.90360 0.35373 0.11500
H 	H 	0.39260 0.01500 0.36643 0.10500
H 	H 	0.21210 0.94260 0.30513 0.14200
H 	H 	0.20790 0.00120 0.28343 0.12600
H 	H 	0.15710 0.59090 0.25153 -0.02900
H 	H 	0.03680 0.62480 0.27523 0.12400
H 	H 	0.26990 0.66200 0.32143 0.13100
H 	H 	0.38310 0.62730 0.29733 -0.02700
H 	H 	0.00830 0.69020 0.30913 0.15100
H 	H 	0.12260 0.75350 0.32413 0.14800
H 	H 	0.05860 0.56000 0.34063 -0.01600
H 	H 	0.25550 0.62880 0.46273 -0.01500
H 	H 	0.18860 0.47130 0.48583 0.12600
H 	H 	0.29680 0.29950 0.44483 0.13700
H 	H 	0.36190 0.46370 0.42273 -0.04400
H 	H 	0.11400 0.23950 0.49053 0.15900
H 	H 	0.17480 0.18320 0.47593 0.16100
H 	H 	0.36180 0.30410 0.49273 -0.03800
H 	H 	0.72350 0.90320 0.30473 0.13400
H 	H 	0.49620 0.88970 0.36053 0.15800
H 	H 	0.35910 0.97420 0.27263 0.11700
H 	H 	0.30680 0.21450 0.32583 0.30600
H 	H 	0.18000 0.20200 0.60097 0.12600
H 	H 	0.30170 0.32400 0.60617 0.14100
H 	H 	0.61360 0.71000 0.68707 0.12100
H 	H 	0.62240 0.60740 0.69977 0.12000
H 	H 	0.73050 0.78790 0.63847 0.12900
H 	H 	0.79330 0.79210 0.61677 0.12400
H 	H 	0.43380 0.84290 0.58487 -0.02800
H 	H 	0.58800 0.96320 0.60857 0.12800
H 	H 	0.39210 0.73010 0.65477 0.13100
H 	H 	0.24420 0.61690 0.63067 -0.02800
H 	H 	0.68190 0.99170 0.64247 0.15500
H 	H 	0.63090 0.87740 0.65747 0.14800
H 	H 	0.50140 0.94140 0.67397 -0.01100
H 	H 	0.37330 0.74450 0.79607 -0.01400
H 	H 	0.28270 0.81140 0.81917 0.12600
H 	H 	0.00270 0.70320 0.77817 0.13300
H 	H 	0.10180 0.63810 0.75607 -0.04600
H 	H 	0.12550 0.88600 0.82387 0.15600
H 	H 	0.00840 0.82520 0.80927 0.15600
H 	H 	0.94230 0.63820 0.82607 -0.02100
H 	H 	0.17970 0.27650 0.63807 0.13000
H 	H 	0.39350 0.50380 0.69387 0.15500
H 	H 	0.61510 0.64090 0.60597 0.11600
H 	H 	0.90770 0.69320 0.65917 0.30600
H 	H 	0.79800 0.82000 0.89903 0.12900
H 	H 	0.67600 0.69830 0.89383 0.14100
H 	H 	0.29000 0.38640 0.81293 0.12000
H 	H 	0.39260 0.37760 0.80023 0.12000
H 	H 	0.21210 0.26950 0.86153 0.12600
H 	H 	0.20790 0.20670 0.88323 0.12000
H 	H 	0.15710 0.56620 0.91513 -0.02900
H 	H 	0.03680 0.41200 0.89143 0.12300
H 	H 	0.26990 0.60790 0.84523 0.13000
H 	H 	0.38310 0.75580 0.86933 -0.02600
H 	H 	0.00830 0.31810 0.85753 0.14900
H 	H 	0.12260 0.36910 0.84253 0.14600
H 	H 	0.05860 0.49860 0.82603 -0.01400
H 	H 	0.25550 0.62670 0.70393 -0.01400
H 	H 	0.18860 0.71730 0.68083 0.12400
H 	H 	0.29680 0.99730 0.72183 0.13700
H 	H 	0.36190 0.89820 0.74393 -0.04200
H 	H 	0.11400 0.87450 0.67613 0.15200
H 	H 	0.17480 0.99160 0.69073 0.15700
H 	H 	0.36180 0.05770 0.67393 -0.02700
H 	H 	0.72350 0.82030 0.86193 0.13200
H 	H 	0.49620 0.60650 0.80613 0.15600
H 	H 	0.35910 0.38490 0.89403 0.11600
H 	H 	0.30680 0.09230 0.84083 0.30400
H 	H 	0.18000 0.97800 0.56570 0.13100
H 	H 	0.30170 0.97770 0.56050 0.14400
H 	H 	0.61360 0.90360 0.47960 0.11500
H 	H 	0.62240 0.01500 0.46690 0.10600
H 	H 	0.73050 0.94260 0.52820 0.14300
H 	H 	0.79330 0.00120 0.54990 0.12800
H 	H 	0.43380 0.59090 0.58180 -0.03000
H 	H 	0.58800 0.62480 0.55810 0.12800
H 	H 	0.39210 0.66200 0.51190 0.13400
H 	H 	0.24420 0.62730 0.53600 -0.02900
H 	H 	0.68190 0.69020 0.52420 0.16000
H 	H 	0.63090 0.75350 0.50920 0.15600
H 	H 	0.50140 0.56000 0.49270 -0.02600
H 	H 	0.37330 0.62880 0.37060 -0.01400
H 	H 	0.28270 0.47130 0.34750 0.12600
H 	H 	0.00270 0.29950 0.38850 0.13300
H 	H 	0.10180 0.46370 0.41060 -0.04600
H 	H 	0.12550 0.23950 0.34280 0.15500
H 	H 	0.00840 0.18320 0.35740 0.15400
H 	H 	0.94230 0.30410 0.34060 -0.02200
H 	H 	0.17970 0.90320 0.52860 0.13200
H 	H 	0.39350 0.88970 0.47280 0.15700
H 	H 	0.61510 0.97420 0.56070 0.11700
H 	H 	0.90770 0.21450 0.50750 0.30700
H 	H 	0.02200 0.20200 0.23237 0.12600
H 	H 	0.02230 0.32400 0.22717 0.13900
H 	H 	0.09640 0.71000 0.14627 0.12200
H 	H 	0.98500 0.60740 0.13357 0.12100
H 	H 	0.05740 0.78790 0.19487 0.12500
H 	H 	0.99880 0.79210 0.21657 0.12100
H 	H 	0.40910 0.84290 0.24847 -0.02800
H 	H 	0.37520 0.96320 0.22477 0.12700
H 	H 	0.33800 0.73010 0.17857 0.13000
H 	H 	0.37270 0.61690 0.20267 -0.02700
H 	H 	0.30980 0.99170 0.19087 0.15300
H 	H 	0.24650 0.87740 0.17587 0.14600
H 	H 	0.44000 0.94140 0.15937 -0.00800
H 	H 	0.37120 0.74450 0.03727 -0.01500
H 	H 	0.52870 0.81140 0.01417 0.13000
H 	H 	0.70050 0.70320 0.05517 0.14000
H 	H 	0.53630 0.63810 0.07727 -0.04500
H 	H 	0.76050 0.88600 0.00947 0.16700
H 	H 	0.81680 0.82520 0.02407 0.16900
H 	H 	0.69590 0.63820 0.00727 -0.04200
H 	H 	0.09680 0.27650 0.19527 0.13100
H 	H 	0.11030 0.50380 0.13947 0.15500
H 	H 	0.02580 0.64090 0.22737 0.11600
H 	H 	0.78550 0.69320 0.17417 0.30400
H 	H 	0.20200 0.18000 0.39903 0.12600
H 	H 	0.32400 0.30170 0.39383 0.14100
H 	H 	0.71000 0.61360 0.31293 0.12100
H 	H 	0.60740 0.62240 0.30023 0.12000
H 	H 	0.78790 0.73050 0.36153 0.12900
H 	H 	0.79210 0.79330 0.38323 0.12400
H 	H 	0.84290 0.43380 0.41513 -0.02800
H 	H 	0.96320 0.58800 0.39143 0.12800
H 	H 	0.73010 0.39210 0.34523 0.13100
H 	H 	0.61690 0.24420 0.36933 -0.02800
H 	H 	0.99170 0.68190 0.35753 0.15500
H 	H 	0.87740 0.63090 0.34253 0.14800
H 	H 	0.94140 0.50140 0.32603 -0.01100
H 	H 	0.74450 0.37330 0.20393 -0.01400
H 	H 	0.81140 0.28270 0.18083 0.12600
H 	H 	0.70320 0.00270 0.22183 0.13300
H 	H 	0.63810 0.10180 0.24393 -0.04600
H 	H 	0.88600 0.12550 0.17613 0.15600
H 	H 	0.82520 0.00840 0.19073 0.15600
H 	H 	0.63820 0.94230 0.17393 -0.02100
H 	H 	0.27650 0.17970 0.36193 0.13000
H 	H 	0.50380 0.39350 0.30613 0.15500
H 	H 	0.64090 0.61510 0.39403 0.11600
H 	H 	0.69320 0.90770 0.34083 0.30600
H 	H 	0.82000 0.02200 0.06570 0.12700
H 	H 	0.69830 0.02230 0.06050 0.13900
H 	H 	0.38640 0.09640 0.97960 0.12100
H 	H 	0.37760 0.98500 0.96690 0.12200
H 	H 	0.26950 0.05740 0.02820 0.12200
H 	H 	0.20670 0.99880 0.04990 0.11900
H 	H 	0.56620 0.40910 0.08180 -0.03000
H 	H 	0.41200 0.37520 0.05810 0.12700
H 	H 	0.60790 0.33800 0.01190 0.13300
H 	H 	0.75580 0.37270 0.03600 -0.02800
H 	H 	0.31810 0.30980 0.02420 0.15800
H 	H 	0.36910 0.24650 0.00920 0.15400
H 	H 	0.49860 0.44000 0.99270 -0.02400
H 	H 	0.62670 0.37120 0.87060 -0.01400
H 	H 	0.71730 0.52870 0.84750 0.12600
H 	H 	0.99730 0.70050 0.88850 0.13800
H 	H 	0.89820 0.53630 0.91060 -0.04200
H 	H 	0.87450 0.76050 0.84280 0.15600
H 	H 	0.99160 0.81680 0.85740 0.15900
H 	H 	0.05770 0.69590 0.84060 -0.02800
H 	H 	0.82030 0.09680 0.02860 0.13100
H 	H 	0.60650 0.11030 0.97280 0.15500
H 	H 	0.38490 0.02580 0.06070 0.11500
H 	H 	0.09230 0.78550 0.00750 0.30400
H 	H 	0.97800 0.79800 0.73237 0.13300
H 	H 	0.97770 0.67600 0.72717 0.14400
H 	H 	0.90360 0.29000 0.64627 0.11500
H 	H 	0.01500 0.39260 0.63357 0.10500
H 	H 	0.94260 0.21210 0.69487 0.14200
H 	H 	0.00120 0.20790 0.71657 0.12600
H 	H 	0.59090 0.15710 0.74847 -0.02900
H 	H 	0.62480 0.03680 0.72477 0.12400
H 	H 	0.66200 0.26990 0.67857 0.13100
H 	H 	0.62730 0.38310 0.70267 -0.02700
H 	H 	0.69020 0.00830 0.69087 0.15100
H 	H 	0.75350 0.12260 0.67587 0.14800
H 	H 	0.56000 0.05860 0.65937 -0.01600
H 	H 	0.62880 0.25550 0.53727 -0.01500
H 	H 	0.47130 0.18860 0.51417 0.12600
H 	H 	0.29950 0.29680 0.55517 0.13700
H 	H 	0.46370 0.36190 0.57727 -0.04400
H 	H 	0.23950 0.11400 0.50947 0.15900
H 	H 	0.18320 0.17480 0.52407 0.16100
H 	H 	0.30410 0.36180 0.50727 -0.03800
H 	H 	0.90320 0.72350 0.69527 0.13400
H 	H 	0.88970 0.49620 0.63947 0.15800
H 	H 	0.97420 0.35910 0.72737 0.11700
H 	H 	0.21450 0.30680 0.67417 0.30600
C 	C 	0.92330 0.33840 0.46900 0.18600
C 	C 	0.92470 0.45120 0.49875 0.18800
C 	C 	0.95920 0.53150 0.46552 0.18300
C 	C 	0.92980 0.21360 0.43973 -0.28700
C 	C 	0.81770 0.17210 0.42601 0.40800
C 	C 	0.92850 0.56970 0.52994 -0.21800
C 	C 	0.85560 0.54140 0.55026 0.35100
C 	C 	0.00530 0.74350 0.46144 -0.30100
C 	C 	0.13060 0.81360 0.47203 0.45700
C 	C 	0.60580 0.42510 0.43239 0.14800
C 	C 	0.62670 0.51900 0.44667 -0.27300
C 	C 	0.65040 0.50980 0.46794 0.27100
C 	C 	0.64860 0.40340 0.47396 -0.27500
C 	C 	0.62740 0.31450 0.45941 0.15100
C 	C 	0.67760 0.60980 0.48349 -0.42500
C 	C 	0.56100 0.29880 0.62554 0.13900
C 	C 	0.46670 0.24480 0.63963 -0.26300
C 	C 	0.36350 0.13310 0.63479 0.24300
C 	C 	0.36490 0.07880 0.61537 -0.26700
C 	C 	0.46410 0.13970 0.60214 0.14000
C 	C 	0.25630 0.06650 0.65030 -0.40700
C 	C 	0.41510 0.07670 0.80233 0.18500
C 	C 	0.52650 0.07530 0.83208 0.18500
C 	C 	0.57230 0.04080 0.79885 0.18200
C 	C 	0.28380 0.07020 0.77306 -0.28300
C 	C 	0.35440 0.18230 0.75934 0.40600
C 	C 	0.64120 0.07150 0.86327 -0.24400
C 	C 	0.68580 0.14440 0.88359 0.35800
C 	C 	0.73820 0.99470 0.79477 -0.26300
C 	C 	0.68300 0.86940 0.80536 0.44800
C 	C 	0.81930 0.39420 0.76572 0.14400
C 	C 	0.89230 0.37330 0.78000 -0.26400
C 	C 	0.85940 0.34960 0.80127 0.25700
C 	C 	0.75480 0.35140 0.80729 -0.26600
C 	C 	0.68710 0.37260 0.79274 0.14700
C 	C 	0.93220 0.32240 0.81682 -0.39100
C 	C 	0.73780 0.43900 0.95887 0.14500
C 	C 	0.77810 0.53330 0.97296 -0.27300
C 	C 	0.76960 0.63650 0.96812 0.26000
C 	C 	0.71390 0.63510 0.94870 -0.27600
C 	C 	0.67560 0.53590 0.93547 0.14700
C 	C 	0.81020 0.74370 0.98363 -0.44200
C 	C 	0.66160 0.58490 0.13567 0.18500
C 	C 	0.54880 0.47350 0.16542 0.18500
C 	C 	0.46850 0.42770 0.13219 0.18200
C 	C 	0.78640 0.71620 0.10640 -0.28400
C 	C 	0.82790 0.64560 0.09268 0.40700
C 	C 	0.43030 0.35880 0.19661 -0.24200
C 	C 	0.45860 0.31420 0.21693 0.35700
C 	C 	0.25650 0.26180 0.12811 -0.26900
C 	C 	0.18640 0.31700 0.13870 0.44800
C 	C 	0.57490 0.18070 0.09906 0.14200
C 	C 	0.48100 0.10770 0.11334 -0.26400
C 	C 	0.49020 0.14060 0.13461 0.25600
C 	C 	0.59660 0.24520 0.14063 -0.26600
C 	C 	0.68550 0.31290 0.12608 0.14600
C 	C 	0.39020 0.06780 0.15016 -0.39500
C 	C 	0.70120 0.26220 0.29221 0.13700
C 	C 	0.75520 0.22190 0.30630 -0.26200
C 	C 	0.86690 0.23040 0.30146 0.24200
C 	C 	0.92120 0.28610 0.28204 -0.26600
C 	C 	0.86030 0.32440 0.26881 0.14100
C 	C 	0.93350 0.18980 0.31697 -0.40100
C 	C 	0.07670 0.66160 0.96900 0.18400
C 	C 	0.07530 0.54880 0.99875 0.18500
C 	C 	0.04080 0.46850 0.96552 0.18200
C 	C 	0.07020 0.78640 0.93973 -0.28300
C 	C 	0.18230 0.82790 0.92601 0.40600
C 	C 	0.07150 0.43030 0.02994 -0.24400
C 	C 	0.14440 0.45860 0.05026 0.35800
C 	C 	0.99470 0.25650 0.96144 -0.26000
C 	C 	0.86940 0.18640 0.97203 0.44600
C 	C 	0.39420 0.57490 0.93239 0.14700
C 	C 	0.37330 0.48100 0.94667 -0.27200
C 	C 	0.34960 0.49020 0.96794 0.26800
C 	C 	0.35140 0.59660 0.97396 -0.27400
C 	C 	0.37260 0.68550 0.95941 0.15000
C 	C 	0.32240 0.39020 0.98349 -0.42100
C 	C 	0.43900 0.70120 0.12554 0.14000
C 	C 	0.53330 0.75520 0.13963 -0.26300
C 	C 	0.63650 0.86690 0.13479 0.24500
C 	C 	0.63510 0.92120 0.11537 -0.26700
C 	C 	0.53590 0.86030 0.10214 0.14200
C 	C 	0.74370 0.93350 0.15030 -0.40400
C 	C 	0.58490 0.92330 0.30233 0.18700
C 	C 	0.47350 0.92470 0.33208 0.18800
C 	C 	0.42770 0.95920 0.29885 0.18400
C 	C 	0.71620 0.92980 0.27306 -0.28600
C 	C 	0.64560 0.81770 0.25934 0.40800
C 	C 	0.35880 0.92850 0.36327 -0.21700
C 	C 	0.31420 0.85560 0.38359 0.35100
C 	C 	0.26180 0.00530 0.29477 -0.30200
C 	C 	0.31700 0.13060 0.30536 0.45700
C 	C 	0.18070 0.60580 0.26572 0.14300
C 	C 	0.10770 0.62670 0.28000 -0.26500
C 	C 	0.14060 0.65040 0.30127 0.25800
C 	C 	0.24520 0.64860 0.30729 -0.26800
C 	C 	0.31290 0.62740 0.29274 0.14700
C 	C 	0.06780 0.67760 0.31682 -0.40000
C 	C 	0.26220 0.56100 0.45887 0.14100
C 	C 	0.22190 0.46670 0.47296 -0.26900
C 	C 	0.23040 0.36350 0.46812 0.25100
C 	C 	0.28610 0.36490 0.44870 -0.27200
C 	C 	0.32440 0.46410 0.43547 0.14300
C 	C 	0.18980 0.25630 0.48363 -0.42800
C 	C 	0.33840 0.41510 0.63567 0.18500
C 	C 	0.45120 0.52650 0.66542 0.18500
C 	C 	0.53150 0.57230 0.63219 0.18200
C 	C 	0.21360 0.28380 0.60640 -0.28500
C 	C 	0.17210 0.35440 0.59268 0.40700
C 	C 	0.56970 0.64120 0.69661 -0.24200
C 	C 	0.54140 0.68580 0.71693 0.35700
C 	C 	0.74350 0.73820 0.62811 -0.27100
C 	C 	0.81360 0.68300 0.63870 0.45100
C 	C 	0.42510 0.81930 0.59906 0.14500
C 	C 	0.51900 0.89230 0.61334 -0.26500
C 	C 	0.50980 0.85940 0.63461 0.26000
C 	C 	0.40340 0.75480 0.64063 -0.26800
C 	C 	0.31450 0.68710 0.62608 0.14800
C 	C 	0.60980 0.93220 0.65016 -0.39700
C 	C 	0.29880 0.73780 0.79221 0.13900
C 	C 	0.24480 0.77810 0.80630 -0.26300
C 	C 	0.13310 0.76960 0.80146 0.24400
C 	C 	0.07880 0.71390 0.78204 -0.26800
C 	C 	0.13970 0.67560 0.76881 0.14100
C 	C 	0.06650 0.81020 0.81697 -0.40900
C 	C 	0.58490 0.66160 0.86433 0.18500
C 	C 	0.47350 0.54880 0.83458 0.18500
C 	C 	0.42770 0.46850 0.86781 0.18200
C 	C 	0.71620 0.78640 0.89360 -0.28400
C 	C 	0.64560 0.82790 0.90732 0.40700
C 	C 	0.35880 0.43030 0.80339 -0.24200
C 	C 	0.31420 0.45860 0.78307 0.35700
C 	C 	0.26180 0.25650 0.87189 -0.26900
C 	C 	0.31700 0.18640 0.86130 0.44800
C 	C 	0.18070 0.57490 0.90094 0.14200
C 	C 	0.10770 0.48100 0.88666 -0.26400
C 	C 	0.14060 0.49020 0.86539 0.25600
C 	C 	0.24520 0.59660 0.85937 -0.26600
C 	C 	0.31290 0.68550 0.87392 0.14600
C 	C 	0.06780 0.39020 0.84984 -0.39500
C 	C 	0.26220 0.70120 0.70779 0.13700
C 	C 	0.22190 0.75520 0.69370 -0.26200
C 	C 	0.23040 0.86690 0.69854 0.24200
C 	C 	0.28610 0.92120 0.71796 -0.26600
C 	C 	0.32440 0.86030 0.73119 0.14100
C 	C 	0.18980 0.93350 0.68303 -0.40100
C 	C 	0.33840 0.92330 0.53100 0.18600
C 	C 	0.45120 0.92470 0.50125 0.18800
C 	C 	0.53150 0.95920 0.53448 0.18300
C 	C 	0.21360 0.92980 0.56027 -0.28700
C 	C 	0.17210 0.81770 0.57399 0.40800
C 	C 	0.56970 0.92850 0.47006 -0.21800
C 	C 	0.54140 0.85560 0.44974 0.35100
C 	C 	0.74350 0.00530 0.53856 -0.30100
C 	C 	0.81360 0.13060 0.52797 0.45700
C 	C 	0.42510 0.60580 0.56761 0.14800
C 	C 	0.51900 0.62670 0.55333 -0.27300
C 	C 	0.50980 0.65040 0.53206 0.27100
C 	C 	0.40340 0.64860 0.52604 -0.27500
C 	C 	0.31450 0.62740 0.54059 0.15100
C 	C 	0.60980 0.67760 0.51651 -0.42500
C 	C 	0.29880 0.56100 0.37446 0.13900
C 	C 	0.24480 0.46670 0.36037 -0.26300
C 	C 	0.13310 0.36350 0.36521 0.24300
C 	C 	0.07880 0.36490 0.38463 -0.26700
C 	C 	0.13970 0.46410 0.39786 0.14000
C 	C 	0.06650 0.25630 0.34970 -0.40700
C 	C 	0.07670 0.41510 0.19767 0.18500
C 	C 	0.07530 0.52650 0.16792 0.18500
C 	C 	0.04080 0.57230 0.20115 0.18200
C 	C 	0.07020 0.28380 0.22694 -0.28300
C 	C 	0.18230 0.35440 0.24066 0.40600
C 	C 	0.07150 0.64120 0.13673 -0.24400
C 	C 	0.14440 0.68580 0.11641 0.35800
C 	C 	0.99470 0.73820 0.20523 -0.26300
C 	C 	0.86940 0.68300 0.19464 0.44800
C 	C 	0.39420 0.81930 0.23428 0.14400
C 	C 	0.37330 0.89230 0.22000 -0.26400
C 	C 	0.34960 0.85940 0.19873 0.25700
C 	C 	0.35140 0.75480 0.19271 -0.26600
C 	C 	0.37260 0.68710 0.20726 0.14700
C 	C 	0.32240 0.93220 0.18318 -0.39100
C 	C 	0.43900 0.73780 0.04113 0.14500
C 	C 	0.53330 0.77810 0.02704 -0.27300
C 	C 	0.63650 0.76960 0.03188 0.26000
C 	C 	0.63510 0.71390 0.05130 -0.27600
C 	C 	0.53590 0.67560 0.06453 0.14700
C 	C 	0.74370 0.81020 0.01637 -0.44200
C 	C 	0.41510 0.33840 0.36433 0.18500
C 	C 	0.52650 0.45120 0.33458 0.18500
C 	C 	0.57230 0.53150 0.36781 0.18200
C 	C 	0.28380 0.21360 0.39360 -0.28500
C 	C 	0.35440 0.17210 0.40732 0.40700
C 	C 	0.64120 0.56970 0.30339 -0.24200
C 	C 	0.68580 0.54140 0.28307 0.35700
C 	C 	0.73820 0.74350 0.37189 -0.27100
C 	C 	0.68300 0.81360 0.36130 0.45100
C 	C 	0.81930 0.42510 0.40094 0.14500
C 	C 	0.89230 0.51900 0.38666 -0.26500
C 	C 	0.85940 0.50980 0.36539 0.26000
C 	C 	0.75480 0.40340 0.35937 -0.26800
C 	C 	0.68710 0.31450 0.37392 0.14800
C 	C 	0.93220 0.60980 0.34984 -0.39700
C 	C 	0.73780 0.29880 0.20779 0.13900
C 	C 	0.77810 0.24480 0.19370 -0.26300
C 	C 	0.76960 0.13310 0.19854 0.24400
C 	C 	0.71390 0.07880 0.21796 -0.26800
C 	C 	0.67560 0.13970 0.23119 0.14100
C 	C 	0.81020 0.06650 0.18303 -0.40900
C 	C 	0.66160 0.07670 0.03100 0.18400
C 	C 	0.54880 0.07530 0.00125 0.18400
C 	C 	0.46850 0.04080 0.03448 0.18200
C 	C 	0.78640 0.07020 0.06027 -0.28300
C 	C 	0.82790 0.18230 0.07399 0.40600
C 	C 	0.43030 0.07150 0.97006 -0.24500
C 	C 	0.45860 0.14440 0.94974 0.35800
C 	C 	0.25650 0.99470 0.03856 -0.26000
C 	C 	0.18640 0.86940 0.02797 0.44600
C 	C 	0.57490 0.39420 0.06761 0.14700
C 	C 	0.48100 0.37330 0.05333 -0.27200
C 	C 	0.49020 0.34960 0.03206 0.26800
C 	C 	0.59660 0.35140 0.02604 -0.27400
C 	C 	0.68550 0.37260 0.04059 0.15000
C 	C 	0.39020 0.32240 0.01651 -0.42100
C 	C 	0.70120 0.43900 0.87446 0.14000
C 	C 	0.75520 0.53330 0.86037 -0.26300
C 	C 	0.86690 0.63650 0.86521 0.24500
C 	C 	0.92120 0.63510 0.88463 -0.26700
C 	C 	0.86030 0.53590 0.89786 0.14200
C 	C 	0.93350 0.74370 0.84970 -0.40400
C 	C 	0.92330 0.58490 0.69767 0.18700
C 	C 	0.92470 0.47350 0.66792 0.18800
C 	C 	0.95920 0.42770 0.70115 0.18400
C 	C 	0.92980 0.71620 0.72694 -0.28600
C 	C 	0.81770 0.64560 0.74066 0.40800
C 	C 	0.92850 0.35880 0.63673 -0.21700
C 	C 	0.85560 0.31420 0.61641 0.35100
C 	C 	0.00530 0.26180 0.70523 -0.30200
C 	C 	0.13060 0.31700 0.69464 0.45700
C 	C 	0.60580 0.18070 0.73428 0.14300
C 	C 	0.62670 0.10770 0.72000 -0.26500
C 	C 	0.65040 0.14060 0.69873 0.25800
C 	C 	0.64860 0.24520 0.69271 -0.26800
C 	C 	0.62740 0.31290 0.70726 0.14700
C 	C 	0.67760 0.06780 0.68318 -0.40000
C 	C 	0.56100 0.26220 0.54113 0.14100
C 	C 	0.46670 0.22190 0.52704 -0.26900
C 	C 	0.36350 0.23040 0.53188 0.25100
C 	C 	0.36490 0.28610 0.55130 -0.27200
C 	C 	0.46410 0.32440 0.56453 0.14300
C 	C 	0.25630 0.18980 0.51637 -0.42800
C 	C 	0.57630 0.57630 0.50000 0.20000
C 	C 	0.00000 0.42370 0.83333 0.15300
C 	C 	0.42370 0.00000 0.16667 0.15300
C 	C 	0.42370 0.42370 -0.00000 0.19600
C 	C 	0.00000 0.57630 0.33333 0.16100
C 	C 	0.57630 -0.00000 0.66667 0.16100
C 	C 	0.28770 -0.00000 0.66667 0.19400
C 	C 	0.71230 0.71230 -0.00000 0.24900
C 	C 	0.00000 0.28770 0.33333 0.19400
C 	C 	0.71230 0.00000 0.16667 0.19400
C 	C 	0.28770 0.28770 0.50000 0.23400
C 	C 	0.00000 0.71230 0.83333 0.19400
N 	N 	0.94710 0.42990 0.45595 -0.17300
N 	N 	0.90890 0.34350 0.49086 -0.18100
N 	N 	0.95140 0.54930 0.48672 -0.16100
N 	N 	0.91630 0.23590 0.46225 -0.17900
N 	N 	0.91040 0.45770 0.51953 -0.19100
N 	N 	0.97820 0.62530 0.45280 -0.16100
N 	N 	0.60630 0.32350 0.43835 -0.26300
N 	N 	0.56270 0.25130 0.60635 -0.27700
N 	N 	0.48280 0.05290 0.78928 -0.17500
N 	N 	0.43460 0.09110 0.82419 -0.18100
N 	N 	0.59790 0.04860 0.82005 -0.16200
N 	N 	0.31960 0.08370 0.79558 -0.18000
N 	N 	0.54730 0.08960 0.85286 -0.18700
N 	N 	0.64710 0.02180 0.78613 -0.17000
N 	N 	0.71720 0.39370 0.77168 -0.26100
N 	N 	0.68860 0.43730 0.93968 -0.27900
N 	N 	0.57010 0.51720 0.12262 -0.17400
N 	N 	0.65650 0.56540 0.15753 -0.18100
N 	N 	0.45070 0.40210 0.15339 -0.16200
N 	N 	0.76410 0.68040 0.12892 -0.18000
N 	N 	0.54230 0.45270 0.18620 -0.18800
N 	N 	0.37470 0.35290 0.11947 -0.16900
N 	N 	0.67650 0.28280 0.10502 -0.26100
N 	N 	0.74870 0.31140 0.27302 -0.27700
N 	N 	0.05290 0.57010 0.95595 -0.17500
N 	N 	0.09110 0.65650 0.99086 -0.18100
N 	N 	0.04860 0.45070 0.98672 -0.16300
N 	N 	0.08370 0.76410 0.96225 -0.18000
N 	N 	0.08960 0.54230 0.01953 -0.18700
N 	N 	0.02180 0.37470 0.95280 -0.17100
N 	N 	0.39370 0.67650 0.93835 -0.26200
N 	N 	0.43730 0.74870 0.10635 -0.27700
N 	N 	0.51720 0.94710 0.28928 -0.17300
N 	N 	0.56540 0.90890 0.32419 -0.18100
N 	N 	0.40210 0.95140 0.32005 -0.16100
N 	N 	0.68040 0.91630 0.29558 -0.17900
N 	N 	0.45270 0.91040 0.35286 -0.19100
N 	N 	0.35290 0.97820 0.28613 -0.16100
N 	N 	0.28280 0.60630 0.27168 -0.26100
N 	N 	0.31140 0.56270 0.43968 -0.27800
N 	N 	0.42990 0.48280 0.62262 -0.17400
N 	N 	0.34350 0.43460 0.65753 -0.18200
N 	N 	0.54930 0.59790 0.65339 -0.16200
N 	N 	0.23590 0.31960 0.62892 -0.17900
N 	N 	0.45770 0.54730 0.68620 -0.18700
N 	N 	0.62530 0.64710 0.61947 -0.16800
N 	N 	0.32350 0.71720 0.60502 -0.26200
N 	N 	0.25130 0.68860 0.77302 -0.27700
N 	N 	0.51720 0.57010 0.87738 -0.17400
N 	N 	0.56540 0.65650 0.84247 -0.18100
N 	N 	0.40210 0.45070 0.84661 -0.16200
N 	N 	0.68040 0.76410 0.87108 -0.18000
N 	N 	0.45270 0.54230 0.81380 -0.18800
N 	N 	0.35290 0.37470 0.88053 -0.16900
N 	N 	0.28280 0.67650 0.89498 -0.26100
N 	N 	0.31140 0.74870 0.72698 -0.27700
N 	N 	0.42990 0.94710 0.54405 -0.17300
N 	N 	0.34350 0.90890 0.50914 -0.18100
N 	N 	0.54930 0.95140 0.51328 -0.16100
N 	N 	0.23590 0.91630 0.53775 -0.17900
N 	N 	0.45770 0.91040 0.48047 -0.19100
N 	N 	0.62530 0.97820 0.54720 -0.16100
N 	N 	0.32350 0.60630 0.56165 -0.26300
N 	N 	0.25130 0.56270 0.39365 -0.27700
N 	N 	0.05290 0.48280 0.21072 -0.17500
N 	N 	0.09110 0.43460 0.17581 -0.18100
N 	N 	0.04860 0.59790 0.17995 -0.16200
N 	N 	0.08370 0.31960 0.20442 -0.18000
N 	N 	0.08960 0.54730 0.14714 -0.18700
N 	N 	0.02180 0.64710 0.21387 -0.17000
N 	N 	0.39370 0.71720 0.22832 -0.26100
N 	N 	0.43730 0.68860 0.06032 -0.27900
N 	N 	0.48280 0.42990 0.37738 -0.17400
N 	N 	0.43460 0.34350 0.34247 -0.18200
N 	N 	0.59790 0.54930 0.34661 -0.16200
N 	N 	0.31960 0.23590 0.37108 -0.17900
N 	N 	0.54730 0.45770 0.31380 -0.18700
N 	N 	0.64710 0.62530 0.38053 -0.16800
N 	N 	0.71720 0.32350 0.39498 -0.26200
N 	N 	0.68860 0.25130 0.22698 -0.27700
N 	N 	0.57010 0.05290 0.04405 -0.17500
N 	N 	0.65650 0.09110 0.00914 -0.18100
N 	N 	0.45070 0.04860 0.01328 -0.16300
N 	N 	0.76410 0.08370 0.03775 -0.18000
N 	N 	0.54230 0.08960 0.98047 -0.18700
N 	N 	0.37470 0.02180 0.04720 -0.17100
N 	N 	0.67650 0.39370 0.06165 -0.26200
N 	N 	0.74870 0.43730 0.89365 -0.27700
N 	N 	0.94710 0.51720 0.71072 -0.17300
N 	N 	0.90890 0.56540 0.67581 -0.18100
N 	N 	0.95140 0.40210 0.67995 -0.16100
N 	N 	0.91630 0.68040 0.70442 -0.17900
N 	N 	0.91040 0.45270 0.64714 -0.19100
N 	N 	0.97820 0.35290 0.71387 -0.16100
N 	N 	0.60630 0.28280 0.72832 -0.26100
N 	N 	0.56270 0.31140 0.56032 -0.27800
O 	O 	0.73280 0.18450 0.43350 -0.44900
O 	O 	0.82060 0.13020 0.40815 -0.31800
O 	O 	0.82900 0.44300 0.56005 -0.42100
O 	O 	0.82790 0.62080 0.55662 -0.28900
O 	O 	0.14300 0.87480 0.48846 -0.55000
O 	O 	0.21740 0.80620 0.46317 -0.31100
O 	O 	0.45170 0.26720 0.76683 -0.44800
O 	O 	0.30960 0.17940 0.74148 -0.31800
O 	O 	0.61400 0.17100 0.89338 -0.42400
O 	O 	0.79290 0.17210 0.88995 -0.29200
O 	O 	0.73180 0.85700 0.82179 -0.54200
O 	O 	0.58880 0.78260 0.79650 -0.30800
O 	O 	0.81550 0.54830 0.10017 -0.44700
O 	O 	0.86980 0.69040 0.07482 -0.31600
O 	O 	0.55700 0.38600 0.22672 -0.42400
O 	O 	0.37920 0.20710 0.22329 -0.29700
O 	O 	0.12520 0.26820 0.15513 -0.54600
O 	O 	0.19380 0.41120 0.12984 -0.30900
O 	O 	0.26720 0.81550 0.93350 -0.44800
O 	O 	0.17940 0.86980 0.90815 -0.31700
O 	O 	0.17100 0.55700 0.06005 -0.42400
O 	O 	0.17210 0.37920 0.05662 -0.29500
O 	O 	0.85700 0.12520 0.98846 -0.54400
O 	O 	0.78260 0.19380 0.96317 -0.30700
O 	O 	0.54830 0.73280 0.26683 -0.44800
O 	O 	0.69040 0.82060 0.24148 -0.31400
O 	O 	0.38600 0.82900 0.39338 -0.42100
O 	O 	0.20710 0.82790 0.38995 -0.29200
O 	O 	0.26820 0.14300 0.32179 -0.55200
O 	O 	0.41120 0.21740 0.29650 -0.31200
O 	O 	0.18450 0.45170 0.60017 -0.44900
O 	O 	0.13020 0.30960 0.57482 -0.32000
O 	O 	0.44300 0.61400 0.72672 -0.42400
O 	O 	0.62080 0.79290 0.72329 -0.29200
O 	O 	0.87480 0.73180 0.65513 -0.54200
O 	O 	0.80620 0.58880 0.62984 -0.30800
O 	O 	0.54830 0.81550 0.89983 -0.44700
O 	O 	0.69040 0.86980 0.92518 -0.31600
O 	O 	0.38600 0.55700 0.77328 -0.42400
O 	O 	0.20710 0.37920 0.77671 -0.29700
O 	O 	0.26820 0.12520 0.84487 -0.54600
O 	O 	0.41120 0.19380 0.87016 -0.30900
O 	O 	0.18450 0.73280 0.56650 -0.44900
O 	O 	0.13020 0.82060 0.59185 -0.31800
O 	O 	0.44300 0.82900 0.43995 -0.42100
O 	O 	0.62080 0.82790 0.44338 -0.28900
O 	O 	0.87480 0.14300 0.51154 -0.55000
O 	O 	0.80620 0.21740 0.53683 -0.31100
O 	O 	0.26720 0.45170 0.23317 -0.44800
O 	O 	0.17940 0.30960 0.25852 -0.31800
O 	O 	0.17100 0.61400 0.10662 -0.42400
O 	O 	0.17210 0.79290 0.11005 -0.29200
O 	O 	0.85700 0.73180 0.17821 -0.54200
O 	O 	0.78260 0.58880 0.20350 -0.30800
O 	O 	0.45170 0.18450 0.39983 -0.44900
O 	O 	0.30960 0.13020 0.42518 -0.32000
O 	O 	0.61400 0.44300 0.27328 -0.42400
O 	O 	0.79290 0.62080 0.27671 -0.29200
O 	O 	0.73180 0.87480 0.34487 -0.54200
O 	O 	0.58880 0.80620 0.37016 -0.30800
O 	O 	0.81550 0.26720 0.06650 -0.44800
O 	O 	0.86980 0.17940 0.09185 -0.31700
O 	O 	0.55700 0.17100 0.93995 -0.42400
O 	O 	0.37920 0.17210 0.94338 -0.29500
O 	O 	0.12520 0.85700 0.01154 -0.54400
O 	O 	0.19380 0.78260 0.03683 -0.30700
O 	O 	0.73280 0.54830 0.73317 -0.44800
O 	O 	0.82060 0.69040 0.75852 -0.31400
O 	O 	0.82900 0.38600 0.60662 -0.42100
O 	O 	0.82790 0.20710 0.61005 -0.29200
O 	O 	0.14300 0.26820 0.67821 -0.55200
O 	O 	0.21740 0.41120 0.70350 -0.31200
