data_crystal

_cell_length_a 15.12300
_cell_length_b 17.48140
_cell_length_c 17.48140
_cell_angle_alpha 79.21670
_cell_angle_beta  64.37080
_cell_angle_gamma 64.37080

_symmetry_space_group_name_	'P 1'
_symmetry_space_group_name_H-M	'P 1'

loop_
_symmetry_equiv_pos_as_xyz
  x,y,z

loop_
_atom_site_label
_atom_site_type_symbol
_atom_site_fract_x
_atom_site_fract_y
_atom_site_fract_z
_atom_site_charge
Cd	Cd	0.12791 0.41184 0.93368 1.20200
Cd	Cd	0.97343 0.08816 0.56632 1.20300
Cd	Cd	0.06159 0.06632 0.91184 1.20000
Cd	Cd	0.53975 0.43368 0.58816 1.20300
Cd	Cd	0.87209 0.58816 0.06632 1.20200
Cd	Cd	0.02657 0.91184 0.43368 1.20300
Cd	Cd	0.93841 0.93368 0.08816 1.20000
Cd	Cd	0.46025 0.56632 0.41184 1.20300
H 	H 	0.78780 0.40730 0.01810 0.28100
H 	H 	0.28180 0.07900 0.92660 -0.16500
H 	H 	0.46110 0.01160 0.84000 0.30200
H 	H 	0.43420 0.20620 0.67580 0.30300
H 	H 	0.25500 0.27360 0.76220 -0.17900
H 	H 	0.61040 0.01820 0.71920 0.59400
H 	H 	0.58450 0.06520 0.64100 0.58800
H 	H 	0.60220 0.11170 0.69830 0.60700
H 	H 	0.71320 0.09270 0.48190 0.28200
H 	H 	0.78740 0.42100 0.57340 -0.16400
H 	H 	0.81270 0.48840 0.66000 0.30500
H 	H 	0.81620 0.29380 0.82420 0.30500
H 	H 	0.79080 0.22640 0.73780 -0.18000
H 	H 	0.84780 0.48180 0.78080 0.59800
H 	H 	0.79070 0.43480 0.85900 0.59200
H 	H 	0.91220 0.38830 0.80170 0.61100
H 	H 	0.80590 0.98190 0.90730 0.28400
H 	H 	0.20840 0.07340 0.57900 -0.16300
H 	H 	0.30110 0.16000 0.51160 0.30300
H 	H 	0.11000 0.32420 0.70620 0.30300
H 	H 	0.01720 0.23780 0.77360 -0.18000
H 	H 	0.32960 0.28080 0.51820 0.59500
H 	H 	0.22550 0.35900 0.56520 0.58900
H 	H 	0.30050 0.30170 0.61170 0.60800
H 	H 	0.19510 0.51810 0.59270 0.28200
H 	H 	0.36080 0.42660 0.92100 -0.16300
H 	H 	0.47270 0.34000 0.98840 0.30100
H 	H 	0.64040 0.17580 0.79380 0.30200
H 	H 	0.52860 0.26220 0.72640 -0.17800
H 	H 	0.62860 0.21920 0.98180 0.59200
H 	H 	0.64970 0.14100 0.93480 0.58500
H 	H 	0.71390 0.19830 0.88830 0.60500
H 	H 	0.21220 0.59270 0.98190 0.28100
H 	H 	0.71820 0.92100 0.07340 -0.16500
H 	H 	0.53890 0.98840 0.16000 0.30200
H 	H 	0.56580 0.79380 0.32420 0.30300
H 	H 	0.74500 0.72640 0.23780 -0.17900
H 	H 	0.38960 0.98180 0.28080 0.59400
H 	H 	0.41550 0.93480 0.35900 0.58800
H 	H 	0.39780 0.88830 0.30170 0.60700
H 	H 	0.28680 0.90730 0.51810 0.28200
H 	H 	0.21260 0.57900 0.42660 -0.16400
H 	H 	0.18730 0.51160 0.34000 0.30500
H 	H 	0.18380 0.70620 0.17580 0.30500
H 	H 	0.20920 0.77360 0.26220 -0.18000
H 	H 	0.15220 0.51820 0.21920 0.59800
H 	H 	0.20930 0.56520 0.14100 0.59200
H 	H 	0.08780 0.61170 0.19830 0.61100
H 	H 	0.19410 0.01810 0.09270 0.28400
H 	H 	0.79160 0.92660 0.42100 -0.16300
H 	H 	0.69890 0.84000 0.48840 0.30300
H 	H 	0.89000 0.67580 0.29380 0.30300
H 	H 	0.98280 0.76220 0.22640 -0.18000
H 	H 	0.67040 0.71920 0.48180 0.59500
H 	H 	0.77450 0.64100 0.43480 0.58900
H 	H 	0.69950 0.69830 0.38830 0.60800
H 	H 	0.80490 0.48190 0.40730 0.28200
H 	H 	0.63920 0.57340 0.07900 -0.16300
H 	H 	0.52730 0.66000 0.01160 0.30100
H 	H 	0.35960 0.82420 0.20620 0.30200
H 	H 	0.47140 0.73780 0.27360 -0.17800
H 	H 	0.37140 0.78080 0.01820 0.59200
H 	H 	0.35030 0.85900 0.06520 0.58500
H 	H 	0.28610 0.80170 0.11170 0.60500
C 	C 	0.90250 0.40510 0.01570 0.45300
C 	C 	0.97440 0.32250 0.97830 -0.11700
C 	C 	0.96050 0.25100 0.97300 0.00000
C 	C 	0.86030 0.23590 0.99970 0.27500
C 	C 	0.12870 0.22270 0.91110 0.19600
C 	C 	0.25060 0.18300 0.85300 -0.44100
C 	C 	0.31240 0.10450 0.87630 0.49000
C 	C 	0.41980 0.06410 0.82450 -0.87700
C 	C 	0.46540 0.10220 0.74940 1.07900
C 	C 	0.40370 0.18070 0.72610 -0.85100
C 	C 	0.29630 0.22110 0.77790 0.49000
C 	C 	0.57400 0.07200 0.69800 -1.96900
C 	C 	0.82330 0.09490 0.48430 0.45800
C 	C 	0.77520 0.17750 0.52170 -0.12300
C 	C 	0.68450 0.24900 0.52700 -0.00100
C 	C 	0.59590 0.26410 0.50030 0.27400
C 	C 	0.76250 0.27730 0.58890 0.19800
C 	C 	0.78660 0.31700 0.64700 -0.44200
C 	C 	0.79320 0.39550 0.62370 0.49300
C 	C 	0.80840 0.43590 0.67550 -0.88100
C 	C 	0.81700 0.39780 0.75060 1.08600
C 	C 	0.81050 0.31930 0.77390 -0.85500
C 	C 	0.79530 0.27890 0.72210 0.49300
C 	C 	0.84400 0.42800 0.80200 -1.98000
C 	C 	0.91820 0.98430 0.90510 0.46300
C 	C 	0.95270 0.02170 0.82250 -0.12600
C 	C 	0.93350 0.02700 0.75100 0.00100
C 	C 	0.86000 0.00030 0.73590 0.26900
C 	C 	0.03980 0.08890 0.72270 0.19600
C 	C 	0.10360 0.14700 0.68300 -0.44000
C 	C 	0.18870 0.12370 0.60450 0.49100
C 	C 	0.24430 0.17550 0.56410 -0.87700
C 	C 	0.21480 0.25060 0.60220 1.08100
C 	C 	0.12980 0.27390 0.68070 -0.85200
C 	C 	0.07420 0.22210 0.72110 0.49100
C 	C 	0.27200 0.30200 0.57200 -1.97100
C 	C 	0.30760 0.51570 0.59490 0.45800
C 	C 	0.29690 0.47830 0.67750 -0.12300
C 	C 	0.21150 0.47300 0.74900 -0.00100
C 	C 	0.09620 0.49970 0.76410 0.27400
C 	C 	0.35140 0.41110 0.77730 0.19700
C 	C 	0.43360 0.35300 0.81700 -0.43900
C 	C 	0.41690 0.37630 0.89550 0.48800
C 	C 	0.48390 0.32450 0.93590 -0.87400
C 	C 	0.56760 0.24940 0.89780 1.07500
C 	C 	0.58440 0.22610 0.81930 -0.84800
C 	C 	0.51740 0.27790 0.77890 0.48800
C 	C 	0.64600 0.19800 0.92800 -1.96300
C 	C 	0.09750 0.59490 0.98430 0.45300
C 	C 	0.02560 0.67750 0.02170 -0.11700
C 	C 	0.03950 0.74900 0.02700 0.00000
C 	C 	0.13970 0.76410 0.00030 0.27500
C 	C 	0.87130 0.77730 0.08890 0.19600
C 	C 	0.74940 0.81700 0.14700 -0.44100
C 	C 	0.68760 0.89550 0.12370 0.49000
C 	C 	0.58020 0.93590 0.17550 -0.87700
C 	C 	0.53460 0.89780 0.25060 1.07900
C 	C 	0.59630 0.81930 0.27390 -0.85100
C 	C 	0.70370 0.77890 0.22210 0.49000
C 	C 	0.42600 0.92800 0.30200 -1.96900
C 	C 	0.17670 0.90510 0.51570 0.45800
C 	C 	0.22480 0.82250 0.47830 -0.12300
C 	C 	0.31550 0.75100 0.47300 -0.00100
C 	C 	0.40410 0.73590 0.49970 0.27400
C 	C 	0.23750 0.72270 0.41110 0.19800
C 	C 	0.21340 0.68300 0.35300 -0.44200
C 	C 	0.20680 0.60450 0.37630 0.49300
C 	C 	0.19160 0.56410 0.32450 -0.88100
C 	C 	0.18300 0.60220 0.24940 1.08600
C 	C 	0.18950 0.68070 0.22610 -0.85500
C 	C 	0.20470 0.72110 0.27790 0.49300
C 	C 	0.15600 0.57200 0.19800 -1.98000
C 	C 	0.08180 0.01570 0.09490 0.46300
C 	C 	0.04730 0.97830 0.17750 -0.12600
C 	C 	0.06650 0.97300 0.24900 0.00100
C 	C 	0.14000 0.99970 0.26410 0.26900
C 	C 	0.96020 0.91110 0.27730 0.19600
C 	C 	0.89640 0.85300 0.31700 -0.44000
C 	C 	0.81130 0.87630 0.39550 0.49100
C 	C 	0.75570 0.82450 0.43590 -0.87700
C 	C 	0.78520 0.74940 0.39780 1.08100
C 	C 	0.87020 0.72610 0.31930 -0.85200
C 	C 	0.92580 0.77790 0.27890 0.49100
C 	C 	0.72800 0.69800 0.42800 -1.97100
C 	C 	0.69240 0.48430 0.40510 0.45800
C 	C 	0.70310 0.52170 0.32250 -0.12300
C 	C 	0.78850 0.52700 0.25100 -0.00100
C 	C 	0.90380 0.50030 0.23590 0.27400
C 	C 	0.64860 0.58890 0.22270 0.19700
C 	C 	0.56640 0.64700 0.18300 -0.43900
C 	C 	0.58310 0.62370 0.10450 0.48800
C 	C 	0.51610 0.67550 0.06410 -0.87400
C 	C 	0.43240 0.75060 0.10220 1.07500
C 	C 	0.41560 0.77390 0.18070 -0.84800
C 	C 	0.48260 0.72210 0.22110 0.48800
C 	C 	0.35400 0.80200 0.07200 -1.96300
N 	N 	0.08170 0.30520 0.93700 -0.24200
N 	N 	0.05740 0.18900 0.92800 -0.26500
N 	N 	0.82390 0.19480 0.56300 -0.23900
N 	N 	0.67440 0.31100 0.57200 -0.26300
N 	N 	0.01870 0.06300 0.80520 -0.24000
N 	N 	0.98540 0.07200 0.68900 -0.26200
N 	N 	0.38690 0.43700 0.69480 -0.23900
N 	N 	0.24640 0.42800 0.81100 -0.26300
N 	N 	0.91830 0.69480 0.06300 -0.24200
N 	N 	0.94260 0.81100 0.07200 -0.26500
N 	N 	0.17610 0.80520 0.43700 -0.23900
N 	N 	0.32560 0.68900 0.42800 -0.26300
N 	N 	0.98130 0.93700 0.19480 -0.24000
N 	N 	0.01460 0.92800 0.31100 -0.26200
N 	N 	0.61310 0.56300 0.30520 -0.23900
N 	N 	0.75360 0.57200 0.18900 -0.26300
O 	O 	0.94070 0.45300 0.01880 -0.55500
O 	O 	0.80520 0.42180 0.04960 -0.54500
O 	O 	0.77250 0.29740 0.03840 -0.27800
O 	O 	0.87040 0.16660 0.98560 -0.38500
O 	O 	0.91250 0.04700 0.48120 -0.55600
O 	O 	0.77660 0.07820 0.45040 -0.54600
O 	O 	0.60830 0.20260 0.46160 -0.27800
O 	O 	0.52260 0.33340 0.51440 -0.38400
O 	O 	0.95950 0.98120 0.95300 -0.55100
O 	O 	0.85480 0.95040 0.92180 -0.54600
O 	O 	0.81090 0.96160 0.79740 -0.27300
O 	O 	0.85600 0.01440 0.66660 -0.38300
O 	O 	0.39370 0.51880 0.54700 -0.55600
O 	O 	0.22700 0.54960 0.57820 -0.54700
O 	O 	0.06990 0.53840 0.70260 -0.27800
O 	O 	0.03700 0.48560 0.83340 -0.38500
O 	O 	0.05930 0.54700 0.98120 -0.55500
O 	O 	0.19480 0.57820 0.95040 -0.54500
O 	O 	0.22750 0.70260 0.96160 -0.27800
O 	O 	0.12960 0.83340 0.01440 -0.38500
O 	O 	0.08750 0.95300 0.51880 -0.55600
O 	O 	0.22340 0.92180 0.54960 -0.54600
O 	O 	0.39170 0.79740 0.53840 -0.27800
O 	O 	0.47740 0.66660 0.48560 -0.38400
O 	O 	0.04050 0.01880 0.04700 -0.55100
O 	O 	0.14520 0.04960 0.07820 -0.54600
O 	O 	0.18910 0.03840 0.20260 -0.27300
O 	O 	0.14400 0.98560 0.33340 -0.38300
O 	O 	0.60630 0.48120 0.45300 -0.55600
O 	O 	0.77300 0.45040 0.42180 -0.54700
O 	O 	0.93010 0.46160 0.29740 -0.27800
O 	O 	0.96300 0.51440 0.16660 -0.38500
