data_crystal

_cell_length_a 4.98650
_cell_length_b 21.38940
_cell_length_c 18.93380
_cell_angle_alpha 90.00000
_cell_angle_beta  90.00000
_cell_angle_gamma 90.00000

_symmetry_space_group_name_	'P 1'
_symmetry_space_group_name_H-M	'P 1'

loop_
_symmetry_equiv_pos_as_xyz
  x,y,z

loop_
_atom_site_label
_atom_site_type_symbol
_atom_site_fract_x
_atom_site_fract_y
_atom_site_fract_z
_atom_site_charge
Ba	Ba	0.80404 0.43403 0.12022 2.12200
S 	S 	0.30344 0.56007 0.09686 0.67500
O 	O 	0.30060 0.40397 0.04757 -0.87600
H 	H 	0.30030 0.42320 0.00770 0.31000
H 	H 	0.30030 0.36450 0.03860 0.25000
O 	O 	0.19490 0.52068 0.15331 -0.52600
O 	O 	0.59600 0.55644 0.09483 -0.50200
O 	O 	0.18230 0.54707 0.02838 -0.54300
O 	O 	0.57520 0.85956 0.18587 -0.57900
C 	C 	0.33190 0.66120 0.18595 0.31300
C 	C 	0.54310 0.70353 0.18652 -0.39200
H 	H 	0.61710 0.71760 0.14310 0.11300
C 	C 	0.21520 0.63889 0.11724 -0.49000
H 	H 	0.27850 0.66650 0.07870 0.10300
H 	H 	0.01740 0.64230 0.11950 0.13900
H 	H 	0.97930 0.76920 0.20770 0.14300
Ba	Ba	0.19596 0.56597 0.62022 2.12200
S 	S 	0.69656 0.43993 0.59686 0.67600
O 	O 	0.69940 0.59603 0.54757 -0.87500
H 	H 	0.69970 0.57680 0.50770 0.31100
H 	H 	0.69970 0.63550 0.53860 0.25100
O 	O 	0.80510 0.47932 0.65331 -0.52500
O 	O 	0.40400 0.44356 0.59483 -0.50100
O 	O 	0.81770 0.45293 0.52838 -0.54200
O 	O 	0.42480 0.14044 0.68587 -0.57800
C 	C 	0.66810 0.33880 0.68595 0.31400
C 	C 	0.45690 0.29647 0.68652 -0.39100
H 	H 	0.38290 0.28240 0.64310 0.11400
C 	C 	0.78480 0.36111 0.61724 -0.48900
H 	H 	0.72150 0.33350 0.57870 0.10400
H 	H 	0.98260 0.35770 0.61950 0.14000
H 	H 	0.02070 0.23080 0.70770 0.14300
Ba	Ba	0.19596 0.93403 0.37978 2.11900
S 	S 	0.69656 0.06007 0.40314 0.67600
O 	O 	0.69940 0.90397 0.45243 -0.87400
H 	H 	0.69970 0.92320 0.49230 0.31100
H 	H 	0.69970 0.86450 0.46140 0.25100
O 	O 	0.80510 0.02068 0.34669 -0.52500
O 	O 	0.40400 0.05644 0.40517 -0.50000
O 	O 	0.81770 0.04707 0.47162 -0.54200
O 	O 	0.42480 0.35956 0.31413 -0.57900
C 	C 	0.66810 0.16120 0.31405 0.31400
C 	C 	0.45690 0.20353 0.31348 -0.39100
H 	H 	0.38290 0.21760 0.35690 0.11400
C 	C 	0.78480 0.13889 0.38276 -0.48900
H 	H 	0.72150 0.16650 0.42130 0.10400
H 	H 	0.98260 0.14230 0.38050 0.13900
H 	H 	0.02070 0.26920 0.29230 0.14300
Ba	Ba	0.80404 0.06597 0.87978 2.11300
S 	S 	0.30344 0.93993 0.90314 0.67600
O 	O 	0.30060 0.09603 0.95243 -0.87400
H 	H 	0.30030 0.07680 0.99230 0.30900
H 	H 	0.30030 0.13550 0.96140 0.25000
O 	O 	0.19490 0.97932 0.84669 -0.52400
O 	O 	0.59600 0.94356 0.90517 -0.49800
O 	O 	0.18230 0.95293 0.97162 -0.53900
O 	O 	0.57520 0.64044 0.81413 -0.57900
C 	C 	0.33190 0.83880 0.81405 0.31400
C 	C 	0.54310 0.79647 0.81348 -0.39100
H 	H 	0.61710 0.78240 0.85690 0.11500
C 	C 	0.21520 0.86111 0.88276 -0.48900
H 	H 	0.27850 0.83350 0.92130 0.10500
H 	H 	0.01740 0.85770 0.88050 0.14000
H 	H 	0.97930 0.73080 0.79230 0.14300
Ba	Ba	0.19596 0.56597 0.87978 2.12300
S 	S 	0.69656 0.43993 0.90314 0.67600
O 	O 	0.69940 0.59603 0.95243 -0.87500
H 	H 	0.69970 0.57680 0.99230 0.31100
H 	H 	0.69970 0.63550 0.96140 0.25100
O 	O 	0.80510 0.47932 0.84669 -0.52500
O 	O 	0.40400 0.44356 0.90517 -0.50100
O 	O 	0.81770 0.45293 0.97162 -0.54200
O 	O 	0.42480 0.14044 0.81413 -0.57800
C 	C 	0.66810 0.33880 0.81405 0.31400
C 	C 	0.45690 0.29647 0.81348 -0.39100
H 	H 	0.38290 0.28240 0.85690 0.11400
C 	C 	0.78480 0.36111 0.88276 -0.48900
H 	H 	0.72150 0.33350 0.92130 0.10400
H 	H 	0.98260 0.35770 0.88050 0.13900
H 	H 	0.02070 0.23080 0.79230 0.14300
Ba	Ba	0.80404 0.43403 0.37978 2.12200
S 	S 	0.30344 0.56007 0.40314 0.67600
O 	O 	0.30060 0.40397 0.45243 -0.87500
H 	H 	0.30030 0.42320 0.49230 0.31100
H 	H 	0.30030 0.36450 0.46140 0.25100
O 	O 	0.19490 0.52068 0.34669 -0.52500
O 	O 	0.59600 0.55644 0.40517 -0.50100
O 	O 	0.18230 0.54707 0.47162 -0.54200
O 	O 	0.57520 0.85956 0.31413 -0.57800
C 	C 	0.33190 0.66120 0.31405 0.31400
C 	C 	0.54310 0.70353 0.31348 -0.39100
H 	H 	0.61710 0.71760 0.35690 0.11400
C 	C 	0.21520 0.63889 0.38276 -0.48900
H 	H 	0.27850 0.66650 0.42130 0.10400
H 	H 	0.01740 0.64230 0.38050 0.14000
H 	H 	0.97930 0.76920 0.29230 0.14300
Ba	Ba	0.80404 0.06597 0.62022 2.11900
S 	S 	0.30344 0.93993 0.59686 0.67600
O 	O 	0.30060 0.09603 0.54757 -0.87400
H 	H 	0.30030 0.07680 0.50770 0.31100
H 	H 	0.30030 0.13550 0.53860 0.25100
O 	O 	0.19490 0.97932 0.65331 -0.52500
O 	O 	0.59600 0.94356 0.59483 -0.50000
O 	O 	0.18230 0.95293 0.52838 -0.54200
O 	O 	0.57520 0.64044 0.68587 -0.57900
C 	C 	0.33190 0.83880 0.68595 0.31400
C 	C 	0.54310 0.79647 0.68652 -0.39100
H 	H 	0.61710 0.78240 0.64310 0.11400
C 	C 	0.21520 0.86111 0.61724 -0.48900
H 	H 	0.27850 0.83350 0.57870 0.10400
H 	H 	0.01740 0.85770 0.61950 0.13900
H 	H 	0.97930 0.73080 0.70770 0.14300
Ba	Ba	0.19596 0.93403 0.12022 2.11300
S 	S 	0.69656 0.06007 0.09686 0.67600
O 	O 	0.69940 0.90397 0.04757 -0.87400
H 	H 	0.69970 0.92320 0.00770 0.30900
H 	H 	0.69970 0.86450 0.03860 0.25000
O 	O 	0.80510 0.02068 0.15331 -0.52400
O 	O 	0.40400 0.05644 0.09483 -0.49800
O 	O 	0.81770 0.04707 0.02838 -0.53900
O 	O 	0.42480 0.35956 0.18587 -0.57900
C 	C 	0.66810 0.16120 0.18595 0.31400
C 	C 	0.45690 0.20353 0.18652 -0.39100
H 	H 	0.38290 0.21760 0.14310 0.11500
C 	C 	0.78480 0.13889 0.11724 -0.48900
H 	H 	0.72150 0.16650 0.07870 0.10500
H 	H 	0.98260 0.14230 0.11950 0.14000
H 	H 	0.02070 0.26920 0.20770 0.14300
S 	S 	0.73200 0.85224 0.25000 0.75800
O 	O 	0.65950 0.49818 0.25000 -0.88300
H 	H 	0.48890 0.50420 0.25000 0.32000
H 	H 	0.73510 0.53430 0.25000 0.31800
O 	O 	0.96830 0.89325 0.25000 -0.62300
C 	C 	0.22460 0.64062 0.25000 -0.37400
H 	H 	0.07740 0.61240 0.25000 0.14300
C 	C 	0.64710 0.72545 0.25000 0.33000
C 	C 	0.86500 0.77482 0.25000 -0.53100
S 	S 	0.26800 0.14776 0.75000 0.75800
O 	O 	0.34050 0.50182 0.75000 -0.88300
H 	H 	0.51110 0.49580 0.75000 0.32000
H 	H 	0.26490 0.46570 0.75000 0.31800
O 	O 	0.03170 0.10675 0.75000 -0.62300
C 	C 	0.77540 0.35938 0.75000 -0.37400
H 	H 	0.92260 0.38760 0.75000 0.14300
C 	C 	0.35290 0.27455 0.75000 0.33000
C 	C 	0.13500 0.22518 0.75000 -0.53100
S 	S 	0.26800 0.35224 0.25000 0.75900
O 	O 	0.34050 0.99818 0.25000 -0.89000
H 	H 	0.51110 0.00420 0.25000 0.32500
H 	H 	0.26490 0.03430 0.25000 0.32300
O 	O 	0.03170 0.39325 0.25000 -0.62500
C 	C 	0.77540 0.14062 0.25000 -0.37400
H 	H 	0.92260 0.11240 0.25000 0.14300
C 	C 	0.35290 0.22545 0.25000 0.33000
C 	C 	0.13500 0.27482 0.25000 -0.53200
S 	S 	0.73200 0.64776 0.75000 0.75900
O 	O 	0.65950 0.00182 0.75000 -0.89000
H 	H 	0.48890 0.99580 0.75000 0.32500
H 	H 	0.73510 0.96570 0.75000 0.32300
O 	O 	0.96830 0.60675 0.75000 -0.62500
C 	C 	0.22460 0.85938 0.75000 -0.37400
H 	H 	0.07740 0.88760 0.75000 0.14300
C 	C 	0.64710 0.77455 0.75000 0.33000
C 	C 	0.86500 0.72518 0.75000 -0.53200
