data_crystal

_cell_length_a 8.30650
_cell_length_b 17.12380
_cell_length_c 17.12380
_cell_angle_alpha 62.56240
_cell_angle_beta  80.69470
_cell_angle_gamma 99.30530

_symmetry_space_group_name_	'P 1'
_symmetry_space_group_name_H-M	'P 1'

loop_
_symmetry_equiv_pos_as_xyz
  x,y,z

loop_
_atom_site_label
_atom_site_type_symbol
_atom_site_fract_x
_atom_site_fract_y
_atom_site_fract_z
_atom_site_charge
Ni	Ni	0.97436 0.78266 0.06316 1.10300
Ni	Ni	0.66057 0.21825 0.93705 1.10600
Ni	Ni	0.03752 0.06316 0.15418 1.11600
Ni	Ni	0.59762 0.93705 0.84470 1.10700
Ni	Ni	0.19170 0.15418 0.78266 1.10900
Ni	Ni	0.44232 0.84470 0.21825 1.10800
H 	H 	0.70640 0.66700 0.01620 0.12900
H 	H 	0.81380 0.69420 0.91860 0.12800
H 	H 	0.07780 0.76840 0.86890 0.12800
H 	H 	0.16170 0.69320 0.92540 0.13500
H 	H 	0.82970 0.57520 0.11430 0.02500
H 	H 	0.02090 0.60380 0.11050 0.03200
H 	H 	0.28820 0.46420 0.98530 0.20800
H 	H 	0.65220 0.49580 0.09310 0.24400
H 	H 	0.60210 0.43780 0.04740 0.24900
H 	H 	0.65560 0.54480 0.98940 0.23600
H 	H 	0.23870 0.57470 0.10750 0.29600
H 	H 	0.35160 0.62880 0.00620 0.29200
H 	H 	0.36280 0.53050 0.07290 0.28100
H 	H 	0.21360 0.35620 0.93640 0.32100
H 	H 	0.15680 0.41640 0.84990 0.32400
H 	H 	0.02690 0.32820 0.93270 0.34100
H 	H 	0.83300 0.40070 0.88550 0.00100
H 	H 	0.69630 0.43500 0.92520 0.00800
H 	H 	0.79380 0.29350 0.09570 0.14300
H 	H 	0.62350 0.21620 0.13840 0.13000
H 	H 	0.44800 0.33340 0.98230 0.10000
H 	H 	0.46470 0.30960 0.08060 0.11400
H 	H 	0.72260 0.01620 0.31680 0.12700
H 	H 	0.73240 0.91860 0.38720 0.13000
H 	H 	0.94670 0.86890 0.36270 0.09400
H 	H 	0.08710 0.92540 0.38140 0.12200
H 	H 	0.94400 0.11430 0.31050 0.00100
H 	H 	0.13140 0.11050 0.28570 0.00600
H 	H 	0.27350 0.98530 0.55050 0.18900
H 	H 	0.74530 0.09310 0.41110 0.23300
H 	H 	0.64950 0.04740 0.51480 0.23800
H 	H 	0.64500 0.98940 0.46580 0.22600
H 	H 	0.34620 0.10750 0.31780 0.28000
H 	H 	0.35780 0.00620 0.36500 0.27700
H 	H 	0.43570 0.07290 0.39660 0.26600
H 	H 	0.15000 0.93640 0.70740 0.27700
H 	H 	0.00670 0.84990 0.73370 0.28200
H 	H 	0.95960 0.93270 0.73910 0.27200
H 	H 	0.71850 0.88550 0.71380 0.01100
H 	H 	0.62150 0.92520 0.63980 0.01600
H 	H 	0.88950 0.09570 0.61080 0.13700
H 	H 	0.76190 0.13840 0.64540 0.12400
H 	H 	0.43030 0.98230 0.68430 0.10400
H 	H 	0.54530 0.08060 0.60980 0.11600
H 	H 	0.03940 0.31680 0.66700 0.11700
H 	H 	0.11960 0.38720 0.69420 0.12300
H 	H 	0.30940 0.36270 0.76840 0.12500
H 	H 	0.46850 0.38140 0.69320 0.13600
H 	H 	0.25450 0.31050 0.57520 0.02300
H 	H 	0.41710 0.28570 0.60380 0.01700
H 	H 	0.82400 0.55050 0.46420 0.18100
H 	H 	0.15640 0.41110 0.49580 0.24700
H 	H 	0.16430 0.51480 0.43780 0.25000
H 	H 	0.11080 0.46580 0.54480 0.24500
H 	H 	0.66400 0.31780 0.57470 0.27200
H 	H 	0.72280 0.36500 0.62880 0.26700
H 	H 	0.83230 0.39660 0.53050 0.25300
H 	H 	0.85740 0.70740 0.35620 0.28800
H 	H 	0.74040 0.73370 0.41640 0.29200
H 	H 	0.69870 0.73910 0.32820 0.30400
H 	H 	0.43230 0.71380 0.40070 0.01700
H 	H 	0.26130 0.63980 0.43500 0.02100
H 	H 	0.50030 0.61080 0.29350 0.14400
H 	H 	0.40730 0.64540 0.21620 0.13100
H 	H 	0.11460 0.68430 0.33340 0.11300
H 	H 	0.15510 0.60980 0.30960 0.12000
C 	C 	0.79700 0.81170 0.92990 0.48200
C 	C 	0.80740 0.70850 0.96740 -0.35800
C 	C 	0.11190 0.74070 0.92520 -0.33500
C 	C 	0.24990 0.81350 0.92180 0.41600
C 	C 	0.94390 0.60160 0.07410 -0.01600
C 	C 	0.98260 0.53950 0.03690 -0.29300
C 	C 	0.14540 0.52710 0.02660 0.45000
C 	C 	0.18140 0.47440 0.98950 -0.57000
C 	C 	0.06960 0.43550 0.95780 0.49700
C 	C 	0.90120 0.43910 0.97220 -0.33500
C 	C 	0.86020 0.49190 0.01240 0.33200
C 	C 	0.67520 0.49260 0.03800 -0.77400
C 	C 	0.28840 0.56930 0.05620 -0.91400
C 	C 	0.12160 0.37880 0.91520 -1.00800
C 	C 	0.77370 0.39690 0.94140 0.04100
C 	C 	0.72240 0.24980 0.08620 -0.34900
C 	C 	0.81480 0.18630 0.08180 0.35400
C 	C 	0.38440 0.19380 0.07160 0.38400
C 	C 	0.48390 0.29240 0.03400 -0.31900
C 	C 	0.72690 0.92990 0.25840 0.48300
C 	C 	0.77480 0.96740 0.32410 -0.35500
C 	C 	0.03710 0.92520 0.33410 -0.28800
C 	C 	0.17170 0.92180 0.26470 0.40400
C 	C 	0.01800 0.07410 0.32430 0.04400
C 	C 	0.01950 0.03690 0.42360 -0.25000
C 	C 	0.17200 0.02660 0.44630 0.39900
C 	C 	0.17090 0.98950 0.53610 -0.51100
C 	C 	0.02740 0.95780 0.60670 0.43500
C 	C 	0.87340 0.97220 0.58870 -0.29800
C 	C 	0.87260 0.01240 0.49570 0.29400
C 	C 	0.71320 0.03800 0.46940 -0.73900
C 	C 	0.34460 0.05620 0.37450 -0.86500
C 	C 	0.03680 0.91520 0.70600 -0.85400
C 	C 	0.71510 0.94140 0.66170 0.02100
C 	C 	0.80860 0.08620 0.66400 -0.33500
C 	C 	0.89660 0.08180 0.73190 0.33400
C 	C 	0.45600 0.07160 0.73460 0.38700
C 	C 	0.51790 0.03400 0.67360 -0.32300
C 	C 	0.98530 0.25840 0.81170 0.42900
C 	C 	0.09890 0.32410 0.70850 -0.31100
C 	C 	0.37120 0.33410 0.74070 -0.34800
C 	C 	0.43640 0.26470 0.81350 0.41900
C 	C 	0.34230 0.32430 0.60160 -0.00000
C 	C 	0.44310 0.42360 0.53950 -0.25300
C 	C 	0.61830 0.44630 0.52710 0.38500
C 	C 	0.70700 0.53610 0.47440 -0.50400
C 	C 	0.63410 0.60670 0.43550 0.41900
C 	C 	0.46210 0.58870 0.43910 -0.27400
C 	C 	0.36830 0.49570 0.49190 0.30200
C 	C 	0.18260 0.46940 0.49260 -0.77200
C 	C 	0.71910 0.37450 0.56930 -0.84400
C 	C 	0.74280 0.70600 0.37880 -0.91500
C 	C 	0.37680 0.66170 0.39690 0.01200
C 	C 	0.47260 0.66400 0.24980 -0.35100
C 	C 	0.62850 0.73190 0.18630 0.35700
C 	C 	0.19060 0.73460 0.19380 0.39000
C 	C 	0.19150 0.67360 0.29240 -0.33300
N 	N 	0.95870 0.69730 0.00180 -0.10400
N 	N 	0.66780 0.29930 0.00430 -0.11600
N 	N 	0.96050 0.00180 0.30090 -0.12000
N 	N 	0.67210 0.00430 0.69640 -0.11300
N 	N 	0.26140 0.30090 0.69730 -0.10500
N 	N 	0.36850 0.69640 0.29930 -0.11200
O 	O 	0.86180 0.85120 0.96040 -0.49700
O 	O 	0.70700 0.83070 0.87630 -0.47500
O 	O 	0.20850 0.84350 0.97340 -0.44200
O 	O 	0.38390 0.84540 0.86010 -0.44200
O 	O 	0.89210 0.15140 0.14380 -0.41700
O 	O 	0.79160 0.15360 0.02630 -0.41600
O 	O 	0.24000 0.17000 0.12580 -0.42000
O 	O 	0.43870 0.14920 0.03690 -0.42900
O 	O 	0.82220 0.96040 0.18840 -0.49700
O 	O 	0.58330 0.87630 0.29300 -0.47400
O 	O 	0.18190 0.97340 0.18310 -0.44000
O 	O 	0.24400 0.86010 0.29450 -0.43500
O 	O 	0.03590 0.14380 0.70480 -0.39400
O 	O 	0.81790 0.02630 0.82010 -0.41200
O 	O 	0.36580 0.12580 0.70420 -0.42300
O 	O 	0.47560 0.03690 0.81390 -0.43000
O 	O 	0.01060 0.18840 0.85120 -0.45700
O 	O 	0.87630 0.29300 0.83070 -0.46600
O 	O 	0.36500 0.18310 0.84350 -0.44700
O 	O 	0.53850 0.29450 0.84540 -0.44400
O 	O 	0.74070 0.70480 0.15140 -0.41500
O 	O 	0.63800 0.82010 0.15360 -0.41600
O 	O 	0.07000 0.70420 0.17000 -0.41600
O 	O 	0.28950 0.81390 0.14920 -0.43000
