data_crystal

_cell_length_a 12.23200
_cell_length_b 12.26800
_cell_length_c 16.39200
_cell_angle_alpha 90.00000
_cell_angle_beta  90.00000
_cell_angle_gamma 90.00000

_symmetry_space_group_name_	'P 1'
_symmetry_space_group_name_H-M	'P 1'

loop_
_symmetry_equiv_pos_as_xyz
  x,y,z

loop_
_atom_site_label
_atom_site_type_symbol
_atom_site_fract_x
_atom_site_fract_y
_atom_site_fract_z
_atom_site_charge
Ga	Ga	0.17248 0.47635 0.25406 2.10300
Ga	Ga	0.13311 0.45979 0.90095 2.08000
P 	P 	0.12554 0.56249 0.07852 0.67800
P 	P 	0.41065 0.55761 0.23754 0.60100
F 	F 	0.21270 0.49490 0.36710 -0.78000
F 	F 	0.18280 0.64150 0.25850 -0.77500
O 	O 	0.38720 0.66910 0.19940 -0.46200
O 	O 	0.19180 0.66360 0.09720 -0.50600
O 	O 	0.17450 0.51380 -0.00000 -0.48000
O 	O 	0.52080 0.51520 0.20390 -0.42600
O 	O 	0.32490 0.31710 0.37800 -0.56100
O 	O 	0.41510 0.57020 0.33130 -0.57500
O 	O 	0.13060 0.47580 0.14430 -0.57500
O 	O 	0.32490 0.47220 0.21790 -0.54000
O 	O 	0.17650 0.32120 0.26840 -0.51800
O 	O 	0.00560 0.59700 0.06330 -0.53100
Ga	Ga	0.32752 0.02365 0.25406 2.10300
Ga	Ga	0.36689 0.04021 0.90095 2.08100
P 	P 	0.37446 0.93751 0.07852 0.67500
P 	P 	0.08935 0.94239 0.23754 0.61000
F 	F 	0.28730 0.00510 0.36710 -0.78000
F 	F 	0.31720 0.85850 0.25850 -0.77600
O 	O 	0.11280 0.83090 0.19940 -0.46100
O 	O 	0.30820 0.83640 0.09720 -0.50600
O 	O 	0.32550 0.98620 -0.00000 -0.48200
O 	O 	0.97920 0.98480 0.20390 -0.43900
O 	O 	0.17510 0.18290 0.37800 -0.56300
O 	O 	0.08490 0.92980 0.33130 -0.57400
O 	O 	0.36940 0.02420 0.14430 -0.57000
O 	O 	0.17510 0.02780 0.21790 -0.54100
O 	O 	0.32350 0.17880 0.26840 -0.51700
O 	O 	0.49440 0.90300 0.06330 -0.53500
Ga	Ga	0.82752 0.97635 0.24594 2.10200
Ga	Ga	0.86689 0.95979 0.59905 2.08800
P 	P 	0.87446 0.06249 0.42148 0.68900
P 	P 	0.58935 0.05761 0.26246 0.60800
F 	F 	0.78730 0.99490 0.13290 -0.77600
F 	F 	0.81720 0.14150 0.24150 -0.76300
O 	O 	0.61280 0.16910 0.30060 -0.46400
O 	O 	0.80820 0.16360 0.40280 -0.52000
O 	O 	0.82550 0.01380 0.50000 -0.53500
O 	O 	0.47920 0.01520 0.29610 -0.43200
O 	O 	0.67510 0.81710 0.12200 -0.55200
O 	O 	0.58490 0.07020 0.16870 -0.56000
O 	O 	0.86940 0.97580 0.35570 -0.59600
O 	O 	0.67510 0.97220 0.28210 -0.55400
O 	O 	0.82350 0.82120 0.23160 -0.52300
O 	O 	0.99440 0.09700 0.43670 -0.55100
Ga	Ga	0.67248 0.52365 0.24594 2.10300
Ga	Ga	0.63311 0.54021 0.59905 2.09000
P 	P 	0.62554 0.43751 0.42148 0.67900
P 	P 	0.91065 0.44239 0.26246 0.60100
F 	F 	0.71270 0.50510 0.13290 -0.76900
F 	F 	0.68280 0.35850 0.24150 -0.76900
O 	O 	0.88720 0.33090 0.30060 -0.46300
O 	O 	0.69180 0.33640 0.40280 -0.52000
O 	O 	0.67450 0.48620 0.50000 -0.54100
O 	O 	0.02080 0.48480 0.29610 -0.43600
O 	O 	0.82490 0.68290 0.12200 -0.55200
O 	O 	0.91510 0.42980 0.16870 -0.56400
O 	O 	0.63060 0.52420 0.35570 -0.58500
O 	O 	0.82490 0.52780 0.28210 -0.54700
O 	O 	0.67650 0.67880 0.23160 -0.52100
O 	O 	0.50560 0.40300 0.43670 -0.55600
Ga	Ga	0.82752 0.52365 0.74594 2.10300
Ga	Ga	0.86689 0.54021 0.09905 2.09100
P 	P 	0.87446 0.43751 0.92148 0.60900
P 	P 	0.58935 0.44239 0.76246 0.60000
F 	F 	0.78730 0.50510 0.63290 -0.78000
F 	F 	0.81720 0.35850 0.74150 -0.77300
O 	O 	0.61280 0.33090 0.80060 -0.47300
O 	O 	0.80820 0.33640 0.90280 -0.53500
O 	O 	0.82550 0.48620 -0.00000 -0.46300
O 	O 	0.47920 0.48480 0.79610 -0.44700
O 	O 	0.67510 0.68290 0.62200 -0.56200
O 	O 	0.58490 0.42980 0.66870 -0.57400
O 	O 	0.86940 0.52420 0.85570 -0.59300
O 	O 	0.67510 0.52780 0.78210 -0.55700
O 	O 	0.82350 0.67880 0.73160 -0.53000
O 	O 	0.99440 0.40300 0.93670 -0.58500
Ga	Ga	0.67248 0.97635 0.74594 2.10200
Ga	Ga	0.63311 0.95979 0.09905 2.08900
P 	P 	0.62554 0.06249 0.92148 0.60900
P 	P 	0.91065 0.05761 0.76246 0.61800
F 	F 	0.71270 0.99490 0.63290 -0.78300
F 	F 	0.68280 0.14150 0.74150 -0.77100
O 	O 	0.88720 0.16910 0.80060 -0.47200
O 	O 	0.69180 0.16360 0.90280 -0.53500
O 	O 	0.67450 0.01380 -0.00000 -0.45100
O 	O 	0.02080 0.01520 0.79610 -0.45900
O 	O 	0.82490 0.81710 0.62200 -0.56500
O 	O 	0.91510 0.07020 0.66870 -0.56900
O 	O 	0.63060 0.97580 0.85570 -0.59500
O 	O 	0.82490 0.97220 0.78210 -0.56500
O 	O 	0.67650 0.82120 0.73160 -0.53000
O 	O 	0.50560 0.09700 0.93670 -0.58900
Ga	Ga	0.17248 0.02365 0.75406 2.10200
Ga	Ga	0.13311 0.04021 0.40095 2.08900
P 	P 	0.12554 0.93751 0.57852 0.68300
P 	P 	0.41065 0.94239 0.73754 0.60400
F 	F 	0.21270 0.00510 0.86710 -0.80700
F 	F 	0.18280 0.85850 0.75850 -0.78000
O 	O 	0.38720 0.83090 0.69940 -0.47000
O 	O 	0.19180 0.83640 0.59720 -0.52000
O 	O 	0.17450 0.98620 0.50000 -0.54100
O 	O 	0.52080 0.98480 0.70390 -0.43500
O 	O 	0.32490 0.18290 0.87800 -0.58400
O 	O 	0.41510 0.92980 0.83130 -0.59300
O 	O 	0.13060 0.02420 0.64430 -0.59000
O 	O 	0.32490 0.02780 0.71790 -0.54600
O 	O 	0.17650 0.17880 0.76840 -0.52700
O 	O 	0.00560 0.90300 0.56330 -0.55600
Ga	Ga	0.32752 0.47635 0.75406 2.10300
Ga	Ga	0.36689 0.45979 0.40095 2.09000
P 	P 	0.37446 0.56249 0.57852 0.67900
P 	P 	0.08935 0.55761 0.73754 0.60100
F 	F 	0.28730 0.49490 0.86710 -0.80600
F 	F 	0.31720 0.64150 0.75850 -0.78200
O 	O 	0.11280 0.66910 0.69940 -0.47000
O 	O 	0.30820 0.66360 0.59720 -0.52000
O 	O 	0.32550 0.51380 0.50000 -0.54200
O 	O 	0.97920 0.51520 0.70390 -0.43400
O 	O 	0.17510 0.31710 0.87800 -0.58600
O 	O 	0.08490 0.57020 0.83130 -0.59600
O 	O 	0.36940 0.47580 0.64430 -0.58500
O 	O 	0.17510 0.47220 0.71790 -0.54700
O 	O 	0.32350 0.32120 0.76840 -0.52500
O 	O 	0.49440 0.59700 0.56330 -0.55700
Ga	Ga	0.25000 0.75000 0.18389 2.10400
Ga	Ga	0.75000 0.25000 0.31611 2.10500
Ga	Ga	0.75000 0.25000 0.81611 2.10400
Ga	Ga	0.25000 0.75000 0.68389 2.10400
P 	P 	0.25000 0.25000 0.32105 0.67400
P 	P 	0.75000 0.75000 0.17895 0.67400
P 	P 	0.75000 0.75000 0.67895 0.67400
P 	P 	0.25000 0.25000 0.82105 0.67500
