data_crystal

_cell_length_a 27.85950
_cell_length_b 27.85950
_cell_length_c 27.85950
_cell_angle_alpha 96.35890
_cell_angle_beta  116.39900
_cell_angle_gamma 116.39900

_symmetry_space_group_name_	'P 1'
_symmetry_space_group_name_H-M	'P 1'

loop_
_symmetry_equiv_pos_as_xyz
  x,y,z

loop_
_atom_site_label
_atom_site_type_symbol
_atom_site_fract_x
_atom_site_fract_y
_atom_site_fract_z
_atom_site_charge
Cu	Cu	0.77427 0.59704 0.38353 0.90400
Cu	Cu	0.70956 0.64772 0.36048 0.90400
Cu	Cu	0.73994 0.64917 0.83509 0.92100
Cu	Cu	0.72573 0.10927 0.82277 0.90400
Cu	Cu	0.79044 0.15092 0.93816 0.90400
Cu	Cu	0.76006 0.59515 0.90923 0.92100
Cu	Cu	0.21351 0.61647 0.89074 0.90400
Cu	Cu	0.28724 0.63952 0.84908 0.90400
Cu	Cu	0.81408 0.16491 0.40485 0.92100
Cu	Cu	0.28649 0.17723 0.40295 0.90400
Cu	Cu	0.21276 0.06184 0.35228 0.90400
Cu	Cu	0.68592 0.09077 0.35083 0.92100
H 	H 	0.86580 0.65590 0.56810 0.05400
H 	H 	0.74440 0.70770 0.53150 0.04300
H 	H 	0.77010 0.72780 0.62510 0.05800
H 	H 	0.84240 0.71200 0.68920 0.04900
H 	H 	0.86980 0.65140 0.79020 0.05800
H 	H 	0.89800 0.57120 0.90140 0.04600
H 	H 	0.96700 0.56340 0.88520 0.05000
H 	H 	0.97890 0.58850 0.81300 0.05100
H 	H 	0.07780 0.64470 0.77230 0.06100
H 	H 	0.17980 0.67430 0.70110 0.05000
H 	H 	0.10930 0.69020 0.62990 0.05700
H 	H 	0.02870 0.68940 0.63530 0.05600
H 	H 	0.62250 0.59140 0.17330 0.06300
H 	H 	0.73690 0.53020 0.21710 0.05300
H 	H 	0.71410 0.50620 0.12430 0.05600
H 	H 	0.64850 0.52980 0.05590 0.06100
H 	H 	0.63210 0.59840 0.95830 0.05900
H 	H 	0.54660 0.59570 0.79610 0.05200
H 	H 	0.45030 0.56210 0.79040 0.05700
H 	H 	0.45000 0.56150 0.87410 0.05700
H 	H 	0.42250 0.61010 0.96900 0.06200
H 	H 	0.31330 0.57490 0.03500 0.04600
H 	H 	0.37530 0.55170 0.10200 0.05900
H 	H 	0.46280 0.55580 0.10280 0.05800
H 	H 	0.69640 0.63160 0.71180 0.00800
H 	H 	0.65880 0.66490 0.63730 0.08100
H 	H 	0.66250 0.74910 0.66660 0.00800
H 	H 	0.69310 0.79220 0.75590 0.09200
H 	H 	0.72900 0.75290 0.82530 0.01000
H 	H 	0.63420 0.20230 0.79010 0.05300
H 	H 	0.75560 0.28710 0.96330 0.04200
H 	H 	0.72990 0.35500 0.95770 0.05800
H 	H 	0.65760 0.34680 0.86960 0.04900
H 	H 	0.63020 0.42040 0.78160 0.05800
H 	H 	0.60200 0.50340 0.67320 0.04600
H 	H 	0.53300 0.41820 0.59640 0.05000
H 	H 	0.52110 0.33410 0.60960 0.05100
H 	H 	0.42220 0.19450 0.56690 0.06100
H 	H 	0.32020 0.02130 0.49450 0.05000
H 	H 	0.39070 0.02060 0.58090 0.05700
H 	H 	0.47130 0.10660 0.66070 0.05600
H 	H 	0.87750 0.05080 0.96890 0.06300
H 	H 	0.76310 0.98020 0.79330 0.05300
H 	H 	0.78590 0.91020 0.79210 0.05600
H 	H 	0.85150 0.90740 0.88130 0.06100
H 	H 	0.86790 0.82620 0.96630 0.05900
H 	H 	0.95340 0.74950 0.04910 0.05200
H 	H 	0.04970 0.84010 0.11180 0.05700
H 	H 	0.05000 0.92410 0.11150 0.05700
H 	H 	0.07750 0.04650 0.18760 0.06200
H 	H 	0.18670 0.22170 0.26160 0.04600
H 	H 	0.12470 0.22670 0.17640 0.05900
H 	H 	0.03720 0.14000 0.09300 0.05800
H 	H 	0.80360 0.51540 0.93520 0.00800
H 	H 	0.84120 0.47850 0.00610 0.08100
H 	H 	0.83750 0.50410 0.08660 0.00800
H 	H 	0.80690 0.56280 0.09910 0.09200
H 	H 	0.77100 0.59630 0.02390 0.01000
H 	H 	0.08780 0.43190 0.79770 0.05300
H 	H 	0.17620 0.46850 0.71290 0.04200
H 	H 	0.10270 0.37490 0.64500 0.05800
H 	H 	0.02280 0.31080 0.65320 0.04900
H 	H 	0.86120 0.20980 0.57960 0.05800
H 	H 	0.66980 0.09860 0.49660 0.04600
H 	H 	0.67820 0.11480 0.58180 0.05000
H 	H 	0.77550 0.18700 0.66590 0.05100
H 	H 	0.87240 0.22770 0.80550 0.06100
H 	H 	0.97320 0.29890 0.97870 0.05000
H 	H 	0.06030 0.37010 0.97940 0.05700
H 	H 	0.05410 0.36470 0.89340 0.05600
H 	H 	0.41810 0.82670 0.94920 0.06300
H 	H 	0.31310 0.78290 0.01980 0.05300
H 	H 	0.38190 0.87570 0.08980 0.05600
H 	H 	0.47390 0.94410 0.09260 0.06000
H 	H 	0.64010 0.04170 0.17380 0.05900
H 	H 	0.79960 0.20390 0.25050 0.05200
H 	H 	0.77170 0.20960 0.15990 0.05700
H 	H 	0.68740 0.12590 0.07590 0.05700
H 	H 	0.64110 0.03100 0.95350 0.06200
H 	H 	0.53990 0.96500 0.77830 0.04600
H 	H 	0.44970 0.89800 0.77330 0.05900
H 	H 	0.45300 0.89720 0.86000 0.05800
H 	H 	0.91980 0.28820 0.48460 0.00800
H 	H 	0.02760 0.36270 0.52150 0.08100
H 	H 	0.08250 0.33340 0.49590 0.00800
H 	H 	0.03630 0.24410 0.43720 0.09200
H 	H 	0.92760 0.17470 0.40370 0.01000
H 	H 	0.41220 0.20990 0.34410 0.05300
H 	H 	0.32380 0.03670 0.29230 0.04200
H 	H 	0.39730 0.04230 0.27220 0.05800
H 	H 	0.47720 0.13040 0.28800 0.04900
H 	H 	0.63880 0.21840 0.34860 0.05800
H 	H 	0.83020 0.32680 0.42880 0.04600
H 	H 	0.82180 0.40360 0.43660 0.05000
H 	H 	0.72450 0.39040 0.41150 0.05100
H 	H 	0.62760 0.43310 0.35530 0.06100
H 	H 	0.52680 0.50550 0.32570 0.05000
H 	H 	0.43970 0.41910 0.30980 0.05700
H 	H 	0.44590 0.33930 0.31060 0.05600
H 	H 	0.08190 0.03110 0.40860 0.06200
H 	H 	0.18690 0.20670 0.46980 0.05300
H 	H 	0.11810 0.20790 0.49380 0.05600
H 	H 	0.02610 0.11870 0.47020 0.06000
H 	H 	0.85990 0.03370 0.40160 0.05900
H 	H 	0.70040 0.95090 0.40430 0.05200
H 	H 	0.72830 0.88820 0.43790 0.05700
H 	H 	0.81260 0.88850 0.43850 0.05700
H 	H 	0.85890 0.81240 0.38990 0.06200
H 	H 	0.96010 0.73840 0.42510 0.04600
H 	H 	0.05030 0.82360 0.44830 0.05900
H 	H 	0.04700 0.90700 0.44420 0.05800
H 	H 	0.58020 0.06480 0.36840 0.00800
H 	H 	0.47240 0.99390 0.33510 0.08100
H 	H 	0.41750 0.91340 0.25090 0.00800
H 	H 	0.46370 0.90090 0.20780 0.09200
H 	H 	0.57240 0.97610 0.24710 0.01000
C 	C 	0.90931 0.67411 0.67782 0.12500
C 	C 	0.93990 0.64650 0.75300 0.13300
C 	C 	0.99130 0.66228 0.70798 0.12800
C 	C 	0.86310 0.68478 0.63648 -0.02200
C 	C 	0.84640 0.67043 0.57923 -0.00600
C 	C 	0.80120 0.67784 0.53904 -0.08800
C 	C 	0.77360 0.70093 0.55753 0.00800
C 	C 	0.78920 0.71339 0.61339 -0.06400
C 	C 	0.83290 0.70452 0.65162 -0.02000
C 	C 	0.78101 0.66029 0.47714 0.36600
C 	C 	0.93000 0.62780 0.79800 -0.01700
C 	C 	0.88990 0.63410 0.80940 -0.01200
C 	C 	0.87940 0.61520 0.84900 -0.07400
C 	C 	0.90710 0.58593 0.87603 -0.00100
C 	C 	0.94600 0.57966 0.86506 -0.05400
C 	C 	0.95560 0.59718 0.82378 -0.03100
C 	C 	0.83330 0.62016 0.86046 0.35700
C 	C 	0.04410 0.66507 0.70377 -0.01400
C 	C 	0.08480 0.65450 0.74410 -0.01800
C 	C 	0.13660 0.65793 0.74413 -0.07500
C 	C 	0.14570 0.67170 0.70180 -0.00500
C 	C 	0.10370 0.68220 0.65930 -0.05100
C 	C 	0.05480 0.68040 0.66180 -0.03500
C 	C 	0.17930 0.64550 0.78900 0.34800
C 	C 	0.58360 0.57121 0.06501 0.12500
C 	C 	0.54140 0.57790 0.97750 0.12800
C 	C 	0.50210 0.58290 0.03160 0.12700
C 	C 	0.63080 0.56270 0.10910 -0.00600
C 	C 	0.64190 0.57550 0.16400 -0.01900
C 	C 	0.68360 0.56360 0.20620 -0.07700
C 	C 	0.70990 0.53810 0.19000 -0.00300
C 	C 	0.69690 0.52420 0.13450 -0.04700
C 	C 	0.65680 0.53780 0.09300 -0.03900
C 	C 	0.70305 0.58374 0.26631 0.34300
C 	C 	0.54280 0.58140 0.92680 -0.01700
C 	C 	0.59710 0.59340 0.92550 -0.00700
C 	C 	0.60100 0.59790 0.87910 -0.07900
C 	C 	0.54430 0.58940 0.82730 -0.00500
C 	C 	0.48730 0.57210 0.82480 -0.04800
C 	C 	0.48650 0.57010 0.87460 -0.03200
C 	C 	0.65860 0.61230 0.87930 0.35400
C 	C 	0.45110 0.58373 0.03563 -0.01300
C 	C 	0.41317 0.59827 0.99544 -0.01600
C 	C 	0.36197 0.59524 0.99501 -0.07900
C 	C 	0.34800 0.57724 0.03564 -0.00100
C 	C 	0.38470 0.56300 0.07550 -0.05300
C 	C 	0.43780 0.56570 0.07630 -0.03400
C 	C 	0.32140 0.60971 0.95151 0.34700
C 	C 	0.69640 0.66470 0.72110 0.08600
C 	C 	0.67350 0.68370 0.67540 -0.15200
C 	C 	0.67540 0.73350 0.69390 0.08500
C 	C 	0.69380 0.75960 0.74580 -0.15600
C 	C 	0.71570 0.73540 0.78750 0.08800
C 	C 	0.59069 0.26851 0.76480 0.12600
C 	C 	0.56010 0.31310 0.70660 0.13300
C 	C 	0.50870 0.21668 0.67098 0.12800
C 	C 	0.63690 0.27338 0.82168 -0.02200
C 	C 	0.65360 0.23283 0.82403 -0.00600
C 	C 	0.69880 0.23784 0.87664 -0.08800
C 	C 	0.72640 0.28393 0.92733 0.00800
C 	C 	0.71080 0.32419 0.92419 -0.06400
C 	C 	0.66710 0.31872 0.87162 -0.02000
C 	C 	0.71899 0.19613 0.87928 0.36600
C 	C 	0.57000 0.36800 0.69780 -0.01700
C 	C 	0.61010 0.41950 0.74420 -0.01200
C 	C 	0.62060 0.46960 0.73580 -0.07400
C 	C 	0.59290 0.46893 0.67883 -0.00100
C 	C 	0.55400 0.41906 0.63366 -0.05400
C 	C 	0.54440 0.36818 0.64158 -0.03100
C 	C 	0.66670 0.52716 0.78686 0.35700
C 	C 	0.45590 0.15967 0.62097 -0.01400
C 	C 	0.41520 0.15930 0.56970 -0.01800
C 	C 	0.36340 0.10753 0.52133 -0.07500
C 	C 	0.35430 0.05610 0.52600 -0.00500
C 	C 	0.39630 0.05560 0.57850 -0.05100
C 	C 	0.44520 0.10700 0.62560 -0.03500
C 	C 	0.32070 0.10970 0.46620 0.34800
C 	C 	0.91640 0.98141 0.98761 0.12500
C 	C 	0.95860 0.93610 0.03650 0.12700
C 	C 	0.99790 0.02950 0.08080 0.12700
C 	C 	0.86920 0.97830 0.93190 -0.00600
C 	C 	0.85810 0.02210 0.93360 -0.01900
C 	C 	0.81640 0.02260 0.88000 -0.07700
C 	C 	0.79010 0.98010 0.82820 -0.00300
C 	C 	0.80310 0.93760 0.82730 -0.04700
C 	C 	0.84320 0.93620 0.88100 -0.03900
C 	C 	0.79695 0.06326 0.88069 0.34300
C 	C 	0.95720 0.88400 0.03860 -0.01700
C 	C 	0.90290 0.82840 0.99630 -0.00600
C 	C 	0.89900 0.77810 0.99690 -0.07900
C 	C 	0.95570 0.78300 0.04510 -0.00500
C 	C 	0.01270 0.83750 0.08480 -0.04700
C 	C 	0.01350 0.88810 0.08360 -0.03200
C 	C 	0.84140 0.72070 0.95370 0.35400
C 	C 	0.04890 0.08453 0.13263 -0.01300
C 	C 	0.08683 0.08227 0.18510 -0.01600
C 	C 	0.13803 0.13304 0.23327 -0.07900
C 	C 	0.15200 0.18764 0.22924 -0.00100
C 	C 	0.11530 0.19080 0.17830 -0.05300
C 	C 	0.06220 0.13850 0.12790 -0.03400
C 	C 	0.17860 0.13011 0.28831 0.34700
C 	C 	0.80360 0.52470 0.96830 0.08700
C 	C 	0.82650 0.50190 0.01020 -0.15200
C 	C 	0.82460 0.51850 0.05810 0.08500
C 	C 	0.80620 0.55200 0.06580 -0.15600
C 	C 	0.78430 0.57180 0.01970 0.08800
C 	C 	0.99629 0.32218 0.73149 0.12600
C 	C 	0.89350 0.24700 0.68690 0.13300
C 	C 	0.95430 0.29202 0.78332 0.12800
C 	C 	0.04830 0.36352 0.72662 -0.02200
C 	C 	0.09120 0.42077 0.76717 -0.00600
C 	C 	0.13880 0.46096 0.76216 -0.08800
C 	C 	0.14340 0.44247 0.71607 0.00800
C 	C 	0.10000 0.38661 0.67581 -0.06400
C 	C 	0.05290 0.34838 0.68128 -0.02000
C 	C 	0.18315 0.52286 0.80387 0.36600
C 	C 	0.82980 0.20200 0.63200 -0.01700
C 	C 	0.82470 0.19060 0.58050 -0.01200
C 	C 	0.76620 0.15100 0.53040 -0.07400
C 	C 	0.70990 0.12397 0.53107 -0.00100
C 	C 	0.71460 0.13494 0.58094 -0.05400
C 	C 	0.77340 0.17622 0.63182 -0.03100
C 	C 	0.75970 0.13954 0.47284 0.35700
C 	C 	0.96130 0.29623 0.84033 -0.01400
C 	C 	0.91040 0.25590 0.84070 -0.01800
C 	C 	0.91380 0.25587 0.89247 -0.07500
C 	C 	0.96990 0.29820 0.94390 -0.00500
C 	C 	0.02290 0.34070 0.94440 -0.05100
C 	C 	0.01860 0.33820 0.89300 -0.03500
C 	C 	0.85650 0.21100 0.89030 0.34800
C 	C 	0.50620 0.93499 0.01859 0.12500
C 	C 	0.60040 0.02250 0.06390 0.12800
C 	C 	0.55130 0.96840 0.97050 0.12700
C 	C 	0.45360 0.89090 0.02170 -0.00600
C 	C 	0.41150 0.83600 0.97790 -0.01900
C 	C 	0.35740 0.79380 0.97740 -0.07700
C 	C 	0.34810 0.81000 0.01990 -0.00300
C 	C 	0.38970 0.86550 0.06240 -0.04700
C 	C 	0.44480 0.90700 0.06380 -0.03900
C 	C 	0.31743 0.73369 0.93674 0.34300
C 	C 	0.65460 0.07320 0.11600 -0.01700
C 	C 	0.66790 0.07450 0.17160 -0.00700
C 	C 	0.71880 0.12090 0.22190 -0.07900
C 	C 	0.76210 0.17270 0.21700 -0.00500
C 	C 	0.74730 0.17520 0.16250 -0.04800
C 	C 	0.69550 0.12540 0.11190 -0.03200
C 	C 	0.73300 0.12070 0.27930 0.35400
C 	C 	0.54810 0.96437 0.91547 -0.01300
C 	C 	0.60283 0.00456 0.91773 -0.01700
C 	C 	0.60023 0.00499 0.86696 -0.07900
C 	C 	0.54160 0.96436 0.81236 -0.00100
C 	C 	0.48750 0.92450 0.80920 -0.05300
C 	C 	0.48940 0.92370 0.86150 -0.03400
C 	C 	0.65820 0.04849 0.86989 0.34700
C 	C 	0.94360 0.27890 0.47530 0.08700
C 	C 	0.00830 0.32460 0.49810 -0.15300
C 	C 	0.03960 0.30610 0.48150 0.08600
C 	C 	0.01380 0.25420 0.44800 -0.15600
C 	C 	0.94790 0.21250 0.42820 0.08900
C 	C 	0.50371 0.23520 0.32589 0.12600
C 	C 	0.60650 0.29340 0.35350 0.13300
C 	C 	0.54570 0.32902 0.33772 0.12800
C 	C 	0.45170 0.17832 0.31522 -0.02200
C 	C 	0.40880 0.17597 0.32957 -0.00600
C 	C 	0.36120 0.12336 0.32216 -0.08800
C 	C 	0.35660 0.07267 0.29907 0.00800
C 	C 	0.40000 0.07581 0.28661 -0.06400
C 	C 	0.44710 0.12838 0.29548 -0.02000
C 	C 	0.31685 0.12072 0.33971 0.36600
C 	C 	0.67020 0.30220 0.37220 -0.01700
C 	C 	0.67530 0.25580 0.36590 -0.01200
C 	C 	0.73380 0.26420 0.38480 -0.07400
C 	C 	0.79010 0.32117 0.41407 -0.00100
C 	C 	0.78540 0.36634 0.42034 -0.05400
C 	C 	0.72660 0.35842 0.40282 -0.03100
C 	C 	0.74030 0.21314 0.37984 0.35700
C 	C 	0.53870 0.37903 0.33493 -0.01400
C 	C 	0.58960 0.43030 0.34550 -0.01800
C 	C 	0.58620 0.47867 0.34207 -0.07500
C 	C 	0.53010 0.47400 0.32830 -0.00500
C 	C 	0.47710 0.42150 0.31780 -0.05100
C 	C 	0.48140 0.37440 0.31960 -0.03500
C 	C 	0.64350 0.53380 0.35450 0.34800
C 	C 	0.99380 0.01239 0.42879 0.12500
C 	C 	0.89960 0.96350 0.42210 0.12700
C 	C 	0.94870 0.91920 0.41710 0.12700
C 	C 	0.04640 0.06810 0.43730 -0.00600
C 	C 	0.08850 0.06640 0.42450 -0.01900
C 	C 	0.14260 0.12000 0.43640 -0.07700
C 	C 	0.15190 0.17180 0.46190 -0.00300
C 	C 	0.11030 0.17270 0.47580 -0.04700
C 	C 	0.05520 0.11900 0.46220 -0.03900
C 	C 	0.18257 0.11931 0.41626 0.34400
C 	C 	0.84540 0.96140 0.41860 -0.01700
C 	C 	0.83210 0.00370 0.40660 -0.00600
C 	C 	0.78120 0.00310 0.40210 -0.07900
C 	C 	0.73790 0.95490 0.41060 -0.00500
C 	C 	0.75270 0.91520 0.42790 -0.04800
C 	C 	0.80450 0.91640 0.42990 -0.03200
C 	C 	0.76700 0.04630 0.38770 0.35400
C 	C 	0.95190 0.86737 0.41627 -0.01300
C 	C 	0.89717 0.81490 0.40173 -0.01600
C 	C 	0.89977 0.76673 0.40476 -0.07800
C 	C 	0.95840 0.77076 0.42276 -0.00100
C 	C 	0.01250 0.82170 0.43700 -0.05300
C 	C 	0.01060 0.87210 0.43430 -0.03400
C 	C 	0.84180 0.71169 0.39029 0.34700
C 	C 	0.55640 0.03170 0.33530 0.08700
C 	C 	0.49170 0.98980 0.31630 -0.15200
C 	C 	0.46040 0.94190 0.26650 0.08500
C 	C 	0.48620 0.93420 0.24040 -0.15600
C 	C 	0.55210 0.98030 0.26460 0.08800
N 	N 	0.95408 0.67515 0.67035 -0.14800
N 	N 	0.90294 0.66156 0.72070 -0.15000
N 	N 	0.98577 0.64673 0.74930 -0.15100
N 	N 	0.54234 0.57506 0.07300 -0.14700
N 	N 	0.58722 0.57288 0.01790 -0.14300
N 	N 	0.49970 0.58513 0.98283 -0.14600
N 	N 	0.71734 0.68983 0.77447 -0.20000
N 	N 	0.54592 0.21627 0.72107 -0.14800
N 	N 	0.59706 0.31776 0.75862 -0.15000
N 	N 	0.51423 0.26353 0.66096 -0.15100
N 	N 	0.95766 0.03066 0.03272 -0.14700
N 	N 	0.91278 0.93068 0.98566 -0.14200
N 	N 	0.00030 0.98313 0.08543 -0.14600
N 	N 	0.78266 0.55713 0.97249 -0.20000
N 	N 	0.00480 0.32965 0.78373 -0.14800
N 	N 	0.94086 0.27930 0.68224 -0.15000
N 	N 	0.89743 0.25070 0.73647 -0.15100
N 	N 	0.50206 0.92700 0.96934 -0.14700
N 	N 	0.55498 0.98210 0.06932 -0.14300
N 	N 	0.60230 0.01717 0.01687 -0.14600
N 	N 	0.91536 0.22553 0.44287 -0.20100
N 	N 	0.49520 0.27893 0.32485 -0.14800
N 	N 	0.55914 0.24138 0.33844 -0.15000
N 	N 	0.60257 0.33904 0.35327 -0.15100
N 	N 	0.99794 0.96728 0.42494 -0.14800
N 	N 	0.94502 0.01434 0.42712 -0.14300
N 	N 	0.89770 0.91457 0.41487 -0.14600
N 	N 	0.58464 0.02751 0.31017 -0.20000
O 	O 	0.80264 0.63346 0.46398 -0.41200
O 	O 	0.74425 0.67195 0.44446 -0.41400
O 	O 	0.81023 0.64670 0.83637 -0.40200
O 	O 	0.81995 0.59483 0.89146 -0.40200
O 	O 	0.16403 0.62996 0.82383 -0.40600
O 	O 	0.22751 0.65231 0.79004 -0.40100
O 	O 	0.68387 0.61332 0.28045 -0.39500
O 	O 	0.73668 0.56866 0.30048 -0.40400
O 	O 	0.69538 0.60067 0.91563 -0.39400
O 	O 	0.66906 0.63377 0.84539 -0.39600
O 	O 	0.33502 0.62281 0.91429 -0.40000
O 	O 	0.27565 0.60683 0.95174 -0.40900
O 	O 	0.69736 0.16134 0.83082 -0.41200
O 	O 	0.75575 0.20021 0.92770 -0.41400
O 	O 	0.68977 0.52614 0.83647 -0.40200
O 	O 	0.68005 0.57151 0.77488 -0.40200
O 	O 	0.33597 0.15980 0.46593 -0.40600
O 	O 	0.27249 0.06253 0.42480 -0.40100
O 	O 	0.81613 0.09658 0.92945 -0.39500
O 	O 	0.76332 0.06380 0.83198 -0.40400
O 	O 	0.80462 0.72025 0.90529 -0.39400
O 	O 	0.83094 0.67633 0.96471 -0.39600
O 	O 	0.16498 0.07927 0.28779 -0.40000
O 	O 	0.22435 0.17609 0.33118 -0.40900
O 	O 	0.16948 0.53602 0.83866 -0.41200
O 	O 	0.22749 0.55554 0.79979 -0.41400
O 	O 	0.81033 0.16363 0.47386 -0.40200
O 	O 	0.70337 0.10854 0.42849 -0.40200
O 	O 	0.80613 0.17617 0.84020 -0.40600
O 	O 	0.86227 0.20996 0.93747 -0.40100
O 	O 	0.33287 0.71955 0.90342 -0.39500
O 	O 	0.26818 0.69952 0.93620 -0.40400
O 	O 	0.68504 0.08437 0.27975 -0.39400
O 	O 	0.78838 0.15461 0.32367 -0.39600
O 	O 	0.70852 0.08571 0.92073 -0.40000
O 	O 	0.65509 0.04826 0.82391 -0.40900
O 	O 	0.33052 0.16918 0.36654 -0.41200
O 	O 	0.27251 0.07230 0.32805 -0.41400
O 	O 	0.68967 0.16353 0.35330 -0.40200
O 	O 	0.79663 0.22512 0.40517 -0.40200
O 	O 	0.69387 0.53407 0.37004 -0.40600
O 	O 	0.63773 0.57520 0.34769 -0.40100
O 	O 	0.16713 0.07055 0.38668 -0.39500
O 	O 	0.23182 0.16802 0.43134 -0.40400
O 	O 	0.81496 0.09471 0.39933 -0.39400
O 	O 	0.71162 0.03529 0.36623 -0.39600
O 	O 	0.79148 0.71221 0.37719 -0.40000
O 	O 	0.84491 0.66882 0.39317 -0.40900
Cu	Cu	0.78649 0.38353 0.10926 0.90300
Cu	Cu	0.71276 0.36048 0.15092 0.90300
Cu	Cu	0.18592 0.83509 0.59515 0.92000
Cu	Cu	0.71351 0.82277 0.59705 0.90300
Cu	Cu	0.78724 0.93816 0.64772 0.90300
Cu	Cu	0.31408 0.90923 0.64917 0.92000
Cu	Cu	0.22573 0.40296 0.61647 0.90300
Cu	Cu	0.29044 0.35228 0.63952 0.90300
Cu	Cu	0.26006 0.35083 0.16491 0.92000
Cu	Cu	0.27427 0.89073 0.17723 0.90300
Cu	Cu	0.20956 0.84908 0.06184 0.90300
Cu	Cu	0.23994 0.40485 0.09077 0.92000
H 	H 	0.91220 0.56810 0.20230 0.05300
H 	H 	0.82380 0.53150 0.28710 0.04200
H 	H 	0.89730 0.62510 0.35500 0.05800
H 	H 	0.97720 0.68920 0.34680 0.04900
H 	H 	0.13880 0.79020 0.42040 0.05800
H 	H 	0.33020 0.90140 0.50340 0.04600
H 	H 	0.32180 0.88520 0.41820 0.05000
H 	H 	0.22450 0.81300 0.33410 0.05100
H 	H 	0.12760 0.77230 0.19450 0.06100
H 	H 	0.02680 0.70110 0.02130 0.05000
H 	H 	0.93970 0.62990 0.02060 0.05700
H 	H 	0.94590 0.63530 0.10660 0.05600
H 	H 	0.58190 0.17330 0.05080 0.06300
H 	H 	0.68690 0.21710 0.98020 0.05300
H 	H 	0.61810 0.12430 0.91020 0.05600
H 	H 	0.52610 0.05590 0.90740 0.06000
H 	H 	0.35990 0.95830 0.82620 0.05900
H 	H 	0.20040 0.79610 0.74950 0.05200
H 	H 	0.22830 0.79040 0.84010 0.05700
H 	H 	0.31260 0.87410 0.92410 0.05700
H 	H 	0.35890 0.96900 0.04650 0.06200
H 	H 	0.46010 0.03500 0.22170 0.04600
H 	H 	0.55030 0.10200 0.22670 0.05900
H 	H 	0.54700 0.10280 0.14000 0.05800
H 	H 	0.08020 0.71180 0.51540 0.00800
H 	H 	0.97240 0.63730 0.47850 0.08100
H 	H 	0.91750 0.66660 0.50410 0.00800
H 	H 	0.96370 0.75590 0.56280 0.09200
H 	H 	0.07240 0.82530 0.59630 0.01000
H 	H 	0.58780 0.79010 0.65590 0.05300
H 	H 	0.67620 0.96330 0.70770 0.04200
H 	H 	0.60270 0.95770 0.72780 0.05800
H 	H 	0.52280 0.86960 0.71200 0.04900
H 	H 	0.36120 0.78160 0.65140 0.05800
H 	H 	0.16980 0.67320 0.57120 0.04600
H 	H 	0.17820 0.59640 0.56340 0.05000
H 	H 	0.27550 0.60960 0.58850 0.05100
H 	H 	0.37240 0.56690 0.64470 0.06100
H 	H 	0.47320 0.49450 0.67430 0.05000
H 	H 	0.56030 0.58090 0.69020 0.05700
H 	H 	0.55410 0.66070 0.68940 0.05600
H 	H 	0.91810 0.96890 0.59140 0.06200
H 	H 	0.81310 0.79330 0.53020 0.05300
H 	H 	0.88190 0.79210 0.50620 0.05600
H 	H 	0.97390 0.88130 0.52980 0.06000
H 	H 	0.14010 0.96630 0.59840 0.05900
H 	H 	0.29960 0.04910 0.59570 0.05200
H 	H 	0.27170 0.11180 0.56210 0.05700
H 	H 	0.18740 0.11150 0.56150 0.05700
H 	H 	0.14110 0.18760 0.61010 0.06200
H 	H 	0.03990 0.26160 0.57490 0.04600
H 	H 	0.94970 0.17640 0.55170 0.05900
H 	H 	0.95300 0.09300 0.55580 0.05800
H 	H 	0.41980 0.93520 0.63160 0.00800
H 	H 	0.52760 0.00610 0.66490 0.08100
H 	H 	0.58250 0.08660 0.74910 0.00800
H 	H 	0.53630 0.09910 0.79220 0.09200
H 	H 	0.42760 0.02390 0.75290 0.01000
H 	H 	0.13420 0.34410 0.43190 0.05300
H 	H 	0.25560 0.29230 0.46850 0.04200
H 	H 	0.22990 0.27220 0.37490 0.05800
H 	H 	0.15760 0.28800 0.31080 0.04900
H 	H 	0.13020 0.34860 0.20980 0.05800
H 	H 	0.10200 0.42880 0.09860 0.04600
H 	H 	0.03300 0.43660 0.11480 0.05000
H 	H 	0.02110 0.41150 0.18700 0.05100
H 	H 	0.92220 0.35530 0.22770 0.06100
H 	H 	0.82020 0.32570 0.29890 0.05000
H 	H 	0.89070 0.30980 0.37010 0.05700
H 	H 	0.97130 0.31060 0.36470 0.05600
H 	H 	0.37750 0.40860 0.82670 0.06300
H 	H 	0.26310 0.46980 0.78290 0.05300
H 	H 	0.28590 0.49380 0.87570 0.05600
H 	H 	0.35150 0.47020 0.94410 0.06100
H 	H 	0.36790 0.40160 0.04170 0.05900
H 	H 	0.45340 0.40430 0.20390 0.05200
H 	H 	0.54970 0.43790 0.20960 0.05700
H 	H 	0.55000 0.43850 0.12590 0.05700
H 	H 	0.57750 0.38990 0.03100 0.06200
H 	H 	0.68670 0.42510 0.96500 0.04600
H 	H 	0.62470 0.44830 0.89800 0.05900
H 	H 	0.53720 0.44420 0.89720 0.05800
H 	H 	0.30360 0.36840 0.28820 0.00800
H 	H 	0.34120 0.33510 0.36270 0.08100
H 	H 	0.33750 0.25090 0.33340 0.00800
H 	H 	0.30690 0.20780 0.24410 0.09200
H 	H 	0.27100 0.24710 0.17470 0.01000
H 	H 	0.36580 0.79770 0.20990 0.05300
H 	H 	0.24440 0.71290 0.03670 0.04200
H 	H 	0.27010 0.64500 0.04230 0.05800
H 	H 	0.34240 0.65320 0.13040 0.04900
H 	H 	0.36980 0.57960 0.21840 0.05800
H 	H 	0.39800 0.49660 0.32680 0.04600
H 	H 	0.46700 0.58180 0.40360 0.05000
H 	H 	0.47890 0.66590 0.39040 0.05100
H 	H 	0.57780 0.80550 0.43310 0.06100
H 	H 	0.67980 0.97870 0.50550 0.05000
H 	H 	0.60930 0.97940 0.41910 0.05700
H 	H 	0.52870 0.89340 0.33930 0.05600
H 	H 	0.12250 0.94920 0.03110 0.06300
H 	H 	0.23690 0.01980 0.20670 0.05300
H 	H 	0.21410 0.08980 0.20790 0.05600
H 	H 	0.14850 0.09260 0.11870 0.06100
H 	H 	0.13210 0.17380 0.03370 0.05900
H 	H 	0.04660 0.25050 0.95090 0.05200
H 	H 	0.95030 0.15990 0.88820 0.05700
H 	H 	0.95000 0.07590 0.88850 0.05700
H 	H 	0.92250 0.95350 0.81240 0.06200
H 	H 	0.81330 0.77830 0.73840 0.04600
H 	H 	0.87530 0.77330 0.82360 0.05900
H 	H 	0.96280 0.86000 0.90700 0.05800
H 	H 	0.19640 0.48460 0.06480 0.00800
H 	H 	0.15880 0.52150 0.99390 0.08100
H 	H 	0.16250 0.49590 0.91340 0.00800
H 	H 	0.19310 0.43720 0.90090 0.09200
H 	H 	0.22900 0.40370 0.97610 0.01000
C 	C 	0.00371 0.67782 0.26851 0.12600
C 	C 	0.10650 0.75300 0.31310 0.13300
C 	C 	0.04570 0.70798 0.21668 0.12800
C 	C 	0.95170 0.63648 0.27338 -0.02200
C 	C 	0.90880 0.57923 0.23283 -0.00600
C 	C 	0.86120 0.53904 0.23784 -0.08800
C 	C 	0.85660 0.55753 0.28393 0.00800
C 	C 	0.90000 0.61339 0.32419 -0.06400
C 	C 	0.94710 0.65162 0.31872 -0.02000
C 	C 	0.81685 0.47714 0.19613 0.36600
C 	C 	0.17020 0.79800 0.36800 -0.01700
C 	C 	0.17530 0.80940 0.41950 -0.01200
C 	C 	0.23380 0.84900 0.46960 -0.07400
C 	C 	0.29010 0.87603 0.46893 -0.00100
C 	C 	0.28540 0.86506 0.41906 -0.05400
C 	C 	0.22660 0.82378 0.36818 -0.03100
C 	C 	0.24030 0.86046 0.52716 0.35700
C 	C 	0.03870 0.70377 0.15967 -0.01400
C 	C 	0.08960 0.74410 0.15930 -0.01800
C 	C 	0.08620 0.74413 0.10753 -0.07500
C 	C 	0.03010 0.70180 0.05610 -0.00500
C 	C 	0.97710 0.65930 0.05560 -0.05100
C 	C 	0.98140 0.66180 0.10700 -0.03500
C 	C 	0.14350 0.78900 0.10970 0.34800
C 	C 	0.49380 0.06501 0.98141 0.12500
C 	C 	0.39960 0.97750 0.93610 0.12800
C 	C 	0.44870 0.03160 0.02950 0.12700
C 	C 	0.54640 0.10910 0.97830 -0.00600
C 	C 	0.58850 0.16400 0.02210 -0.01900
C 	C 	0.64260 0.20620 0.02260 -0.07700
C 	C 	0.65190 0.19000 0.98010 -0.00300
C 	C 	0.61030 0.13450 0.93760 -0.04700
C 	C 	0.55520 0.09300 0.93620 -0.03900
C 	C 	0.68257 0.26631 0.06326 0.34300
C 	C 	0.34540 0.92680 0.88400 -0.01700
C 	C 	0.33210 0.92550 0.82840 -0.00700
C 	C 	0.28120 0.87910 0.77810 -0.07900
C 	C 	0.23790 0.82730 0.78300 -0.00500
C 	C 	0.25270 0.82480 0.83750 -0.04800
C 	C 	0.30450 0.87460 0.88810 -0.03200
C 	C 	0.26700 0.87930 0.72070 0.35400
C 	C 	0.45190 0.03563 0.08453 -0.01300
C 	C 	0.39717 0.99544 0.08227 -0.01700
C 	C 	0.39977 0.99501 0.13304 -0.07900
C 	C 	0.45840 0.03564 0.18764 -0.00100
C 	C 	0.51250 0.07550 0.19080 -0.05300
C 	C 	0.51060 0.07630 0.13850 -0.03400
C 	C 	0.34180 0.95151 0.13011 0.34700
C 	C 	0.05640 0.72110 0.52470 0.08700
C 	C 	0.99170 0.67540 0.50190 -0.15300
C 	C 	0.96040 0.69390 0.51850 0.08600
C 	C 	0.98620 0.74580 0.55200 -0.15600
C 	C 	0.05210 0.78750 0.57180 0.08900
C 	C 	0.49629 0.76480 0.67411 0.12600
C 	C 	0.39350 0.70660 0.64650 0.13300
C 	C 	0.45430 0.67098 0.66228 0.12800
C 	C 	0.54830 0.82168 0.68478 -0.02200
C 	C 	0.59120 0.82403 0.67043 -0.00600
C 	C 	0.63880 0.87664 0.67784 -0.08800
C 	C 	0.64340 0.92733 0.70093 0.00800
C 	C 	0.60000 0.92419 0.71339 -0.06400
C 	C 	0.55290 0.87162 0.70452 -0.02000
C 	C 	0.68315 0.87928 0.66029 0.36600
C 	C 	0.32980 0.69780 0.62780 -0.01700
C 	C 	0.32470 0.74420 0.63410 -0.01200
C 	C 	0.26620 0.73580 0.61520 -0.07400
C 	C 	0.20990 0.67883 0.58593 -0.00100
C 	C 	0.21460 0.63366 0.57966 -0.05400
C 	C 	0.27340 0.64158 0.59718 -0.03100
C 	C 	0.25970 0.78686 0.62016 0.35700
C 	C 	0.46130 0.62097 0.66507 -0.01400
C 	C 	0.41040 0.56970 0.65450 -0.01800
C 	C 	0.41380 0.52133 0.65793 -0.07500
C 	C 	0.46990 0.52600 0.67170 -0.00500
C 	C 	0.52290 0.57850 0.68220 -0.05100
C 	C 	0.51860 0.62560 0.68040 -0.03500
C 	C 	0.35650 0.46620 0.64550 0.34800
C 	C 	0.00620 0.98761 0.57121 0.12500
C 	C 	0.10040 0.03650 0.57790 0.12700
C 	C 	0.05130 0.08080 0.58290 0.12700
C 	C 	0.95360 0.93190 0.56270 -0.00600
C 	C 	0.91150 0.93360 0.57550 -0.01900
C 	C 	0.85740 0.88000 0.56360 -0.07700
C 	C 	0.84810 0.82820 0.53810 -0.00300
C 	C 	0.88970 0.82730 0.52420 -0.04700
C 	C 	0.94480 0.88100 0.53780 -0.03900
C 	C 	0.81743 0.88069 0.58374 0.34400
C 	C 	0.15460 0.03860 0.58140 -0.01700
C 	C 	0.16790 0.99630 0.59340 -0.00600
C 	C 	0.21880 0.99690 0.59790 -0.07900
C 	C 	0.26210 0.04510 0.58940 -0.00500
C 	C 	0.24730 0.08480 0.57210 -0.04800
C 	C 	0.19550 0.08360 0.57010 -0.03200
C 	C 	0.23300 0.95370 0.61230 0.35400
C 	C 	0.04810 0.13263 0.58373 -0.01300
C 	C 	0.10283 0.18510 0.59827 -0.01600
C 	C 	0.10023 0.23327 0.59524 -0.07800
C 	C 	0.04160 0.22924 0.57724 -0.00100
C 	C 	0.98750 0.17830 0.56300 -0.05300
C 	C 	0.98940 0.12790 0.56570 -0.03400
C 	C 	0.15820 0.28831 0.60971 0.34700
C 	C 	0.44360 0.96830 0.66470 0.08700
C 	C 	0.50830 0.01020 0.68370 -0.15200
C 	C 	0.53960 0.05810 0.73350 0.08500
C 	C 	0.51380 0.06580 0.75960 -0.15600
C 	C 	0.44790 0.01970 0.73540 0.08800
C 	C 	0.09069 0.32589 0.32218 0.12500
C 	C 	0.06010 0.35350 0.24700 0.13300
C 	C 	0.00870 0.33772 0.29202 0.12800
C 	C 	0.13690 0.31522 0.36352 -0.02200
C 	C 	0.15360 0.32957 0.42077 -0.00600
C 	C 	0.19880 0.32216 0.46096 -0.08800
C 	C 	0.22640 0.29907 0.44247 0.00800
C 	C 	0.21080 0.28661 0.38661 -0.06400
C 	C 	0.16710 0.29548 0.34838 -0.02000
C 	C 	0.21899 0.33971 0.52286 0.36600
C 	C 	0.07000 0.37220 0.20200 -0.01700
C 	C 	0.11010 0.36590 0.19060 -0.01200
C 	C 	0.12060 0.38480 0.15100 -0.07400
C 	C 	0.09290 0.41407 0.12397 -0.00100
C 	C 	0.05400 0.42034 0.13494 -0.05400
C 	C 	0.04440 0.40282 0.17622 -0.03100
C 	C 	0.16670 0.37984 0.13954 0.35700
C 	C 	0.95590 0.33493 0.29623 -0.01400
C 	C 	0.91520 0.34550 0.25590 -0.01800
C 	C 	0.86340 0.34207 0.25587 -0.07500
C 	C 	0.85430 0.32830 0.29820 -0.00500
C 	C 	0.89630 0.31780 0.34070 -0.05100
C 	C 	0.94520 0.31960 0.33820 -0.03500
C 	C 	0.82070 0.35450 0.21100 0.34800
C 	C 	0.41640 0.42879 0.93499 0.12500
C 	C 	0.45860 0.42210 0.02250 0.12800
C 	C 	0.49790 0.41710 0.96840 0.12700
C 	C 	0.36920 0.43730 0.89090 -0.00600
C 	C 	0.35810 0.42450 0.83600 -0.01900
C 	C 	0.31640 0.43640 0.79380 -0.07700
C 	C 	0.29010 0.46190 0.81000 -0.00300
C 	C 	0.30310 0.47580 0.86550 -0.04700
C 	C 	0.34320 0.46220 0.90700 -0.03900
C 	C 	0.29695 0.41626 0.73369 0.34300
C 	C 	0.45720 0.41860 0.07320 -0.01700
C 	C 	0.40290 0.40660 0.07450 -0.00700
C 	C 	0.39900 0.40210 0.12090 -0.07900
C 	C 	0.45570 0.41060 0.17270 -0.00500
C 	C 	0.51270 0.42790 0.17520 -0.04800
C 	C 	0.51350 0.42990 0.12540 -0.03200
C 	C 	0.34140 0.38770 0.12070 0.35400
C 	C 	0.54890 0.41627 0.96437 -0.01300
C 	C 	0.58683 0.40173 0.00456 -0.01600
C 	C 	0.63803 0.40476 0.00499 -0.07900
C 	C 	0.65200 0.42276 0.96436 -0.00100
C 	C 	0.61530 0.43700 0.92450 -0.05300
C 	C 	0.56220 0.43430 0.92370 -0.03400
C 	C 	0.67860 0.39029 0.04849 0.34700
C 	C 	0.30360 0.33530 0.27890 0.08600
C 	C 	0.32650 0.31630 0.32460 -0.15200
C 	C 	0.32460 0.26650 0.30610 0.08500
C 	C 	0.30620 0.24040 0.25420 -0.15600
C 	C 	0.28430 0.26460 0.21250 0.08800
C 	C 	0.40931 0.73149 0.23520 0.12600
C 	C 	0.43990 0.68690 0.29340 0.13300
C 	C 	0.49130 0.78332 0.32902 0.12800
C 	C 	0.36310 0.72662 0.17832 -0.02200
C 	C 	0.34640 0.76717 0.17597 -0.00600
C 	C 	0.30120 0.76216 0.12336 -0.08800
C 	C 	0.27360 0.71607 0.07267 0.00800
C 	C 	0.28920 0.67581 0.07581 -0.06400
C 	C 	0.33290 0.68128 0.12838 -0.02000
C 	C 	0.28101 0.80387 0.12072 0.36600
C 	C 	0.43000 0.63200 0.30220 -0.01700
C 	C 	0.38990 0.58050 0.25580 -0.01200
C 	C 	0.37940 0.53040 0.26420 -0.07400
C 	C 	0.40710 0.53107 0.32117 -0.00100
C 	C 	0.44600 0.58094 0.36634 -0.05400
C 	C 	0.45560 0.63182 0.35842 -0.03100
C 	C 	0.33330 0.47284 0.21314 0.35700
C 	C 	0.54410 0.84033 0.37903 -0.01400
C 	C 	0.58480 0.84070 0.43030 -0.01800
C 	C 	0.63660 0.89247 0.47867 -0.07500
C 	C 	0.64570 0.94390 0.47400 -0.00500
C 	C 	0.60370 0.94440 0.42150 -0.05100
C 	C 	0.55480 0.89300 0.37440 -0.03500
C 	C 	0.67930 0.89030 0.53380 0.34800
C 	C 	0.08360 0.01859 0.01239 0.12500
C 	C 	0.04140 0.06390 0.96350 0.12700
C 	C 	0.00210 0.97050 0.91920 0.12700
C 	C 	0.13080 0.02170 0.06810 -0.00600
C 	C 	0.14190 0.97790 0.06640 -0.01900
C 	C 	0.18360 0.97740 0.12000 -0.07700
C 	C 	0.20990 0.01990 0.17180 -0.00300
C 	C 	0.19690 0.06240 0.17270 -0.04700
C 	C 	0.15680 0.06380 0.11900 -0.03900
C 	C 	0.20305 0.93674 0.11931 0.34300
C 	C 	0.04280 0.11600 0.96140 -0.01700
C 	C 	0.09710 0.17160 0.00370 -0.00600
C 	C 	0.10100 0.22190 0.00310 -0.07900
C 	C 	0.04430 0.21700 0.95490 -0.00500
C 	C 	0.98730 0.16250 0.91520 -0.04700
C 	C 	0.98650 0.11190 0.91640 -0.03200
C 	C 	0.15860 0.27930 0.04630 0.35400
C 	C 	0.95110 0.91547 0.86737 -0.01300
C 	C 	0.91317 0.91773 0.81490 -0.01600
C 	C 	0.86197 0.86696 0.76673 -0.07900
C 	C 	0.84800 0.81236 0.77076 -0.00100
C 	C 	0.88470 0.80920 0.82170 -0.05300
C 	C 	0.93780 0.86150 0.87210 -0.03400
C 	C 	0.82140 0.86989 0.71169 0.34700
C 	C 	0.19640 0.47530 0.03170 0.08700
C 	C 	0.17350 0.49810 0.98980 -0.15200
C 	C 	0.17540 0.48150 0.94190 0.08500
C 	C 	0.19380 0.44800 0.93420 -0.15600
C 	C 	0.21570 0.42820 0.98030 0.08800
N 	N 	0.99520 0.67035 0.21627 -0.14800
N 	N 	0.05914 0.72070 0.31776 -0.15000
N 	N 	0.10257 0.74930 0.26353 -0.15100
N 	N 	0.49794 0.07300 0.03066 -0.14700
N 	N 	0.44502 0.01790 0.93068 -0.14300
N 	N 	0.39770 0.98283 0.98313 -0.14600
N 	N 	0.08464 0.77447 0.55713 -0.20100
N 	N 	0.50480 0.72107 0.67515 -0.14800
N 	N 	0.44086 0.75862 0.66156 -0.15000
N 	N 	0.39743 0.66096 0.64673 -0.15100
N 	N 	0.00206 0.03272 0.57506 -0.14800
N 	N 	0.05498 0.98566 0.57288 -0.14300
N 	N 	0.10230 0.08543 0.58513 -0.14600
N 	N 	0.41536 0.97249 0.68983 -0.20000
N 	N 	0.04592 0.32485 0.32965 -0.14800
N 	N 	0.09706 0.33844 0.27930 -0.15000
N 	N 	0.01423 0.35327 0.25070 -0.15100
N 	N 	0.45766 0.42494 0.92700 -0.14700
N 	N 	0.41278 0.42712 0.98210 -0.14300
N 	N 	0.50030 0.41487 0.01717 -0.14600
N 	N 	0.28266 0.31017 0.22553 -0.20000
N 	N 	0.45408 0.78373 0.27893 -0.14800
N 	N 	0.40294 0.68224 0.24138 -0.15000
N 	N 	0.48577 0.73647 0.33904 -0.15100
N 	N 	0.04234 0.96934 0.96728 -0.14700
N 	N 	0.08722 0.06932 0.01434 -0.14200
N 	N 	0.99970 0.01687 0.91457 -0.14600
N 	N 	0.21734 0.44287 0.02751 -0.20000
O 	O 	0.83052 0.46398 0.16134 -0.41200
O 	O 	0.77251 0.44446 0.20021 -0.41400
O 	O 	0.18967 0.83637 0.52614 -0.40200
O 	O 	0.29663 0.89146 0.57151 -0.40200
O 	O 	0.19387 0.82383 0.15980 -0.40600
O 	O 	0.13773 0.79004 0.06253 -0.40100
O 	O 	0.66713 0.28045 0.09658 -0.39500
O 	O 	0.73182 0.30048 0.06380 -0.40400
O 	O 	0.31496 0.91563 0.72025 -0.39400
O 	O 	0.21162 0.84539 0.67633 -0.39600
O 	O 	0.29148 0.91429 0.07927 -0.40000
O 	O 	0.34491 0.95174 0.17609 -0.40900
O 	O 	0.66948 0.83082 0.63346 -0.41200
O 	O 	0.72749 0.92770 0.67195 -0.41400
O 	O 	0.31033 0.83647 0.64670 -0.40200
O 	O 	0.20337 0.77488 0.59483 -0.40200
O 	O 	0.30613 0.46593 0.62996 -0.40600
O 	O 	0.36227 0.42480 0.65231 -0.40100
O 	O 	0.83287 0.92945 0.61332 -0.39500
O 	O 	0.76818 0.83198 0.56866 -0.40400
O 	O 	0.18504 0.90529 0.60067 -0.39400
O 	O 	0.28838 0.96471 0.63377 -0.39600
O 	O 	0.20852 0.28779 0.62281 -0.40000
O 	O 	0.15509 0.33118 0.60683 -0.40900
O 	O 	0.19736 0.36654 0.53602 -0.41200
O 	O 	0.25575 0.32805 0.55554 -0.41400
O 	O 	0.18977 0.35330 0.16363 -0.40200
O 	O 	0.18005 0.40517 0.10854 -0.40200
O 	O 	0.83597 0.37004 0.17617 -0.40600
O 	O 	0.77249 0.34769 0.20996 -0.40100
O 	O 	0.31613 0.38668 0.71955 -0.39500
O 	O 	0.26332 0.43134 0.69952 -0.40400
O 	O 	0.30462 0.39933 0.08437 -0.39400
O 	O 	0.33094 0.36623 0.15461 -0.39600
O 	O 	0.66498 0.37719 0.08571 -0.40000
O 	O 	0.72435 0.39317 0.04826 -0.40900
O 	O 	0.30264 0.83866 0.16918 -0.41200
O 	O 	0.24425 0.79979 0.07230 -0.41400
O 	O 	0.31023 0.47386 0.16353 -0.40200
O 	O 	0.31995 0.42849 0.22512 -0.40200
O 	O 	0.66403 0.84020 0.53407 -0.40600
O 	O 	0.72751 0.93747 0.57520 -0.40100
O 	O 	0.18387 0.90342 0.07055 -0.39500
O 	O 	0.23668 0.93620 0.16802 -0.40400
O 	O 	0.19538 0.27975 0.09471 -0.39400
O 	O 	0.16906 0.32367 0.03529 -0.39600
O 	O 	0.83502 0.92073 0.71221 -0.40000
O 	O 	0.77565 0.82391 0.66882 -0.40900
