data_crystal

_cell_length_a 31.36900
_cell_length_b 31.36900
_cell_length_c 19.80600
_cell_angle_alpha 90.00000
_cell_angle_beta  90.00000
_cell_angle_gamma 90.00000

_symmetry_space_group_name_	'P 1'
_symmetry_space_group_name_H-M	'P 1'

loop_
_symmetry_equiv_pos_as_xyz
  x,y,z

loop_
_atom_site_label
_atom_site_type_symbol
_atom_site_fract_x
_atom_site_fract_y
_atom_site_fract_z
_atom_site_charge
C 	C 	0.68560 0.21500 0.58590 0.33100
C 	C 	0.72110 0.20820 0.63270 -0.04700
C 	C 	0.75030 0.23950 0.64400 -0.05100
H 	H 	0.74750 0.26620 0.62190 0.06600
C 	C 	0.78560 0.23240 0.68950 0.04400
C 	C 	0.78790 0.19250 0.72100 -0.09800
H 	H 	0.81080 0.18680 0.75100 0.07900
C 	C 	0.75840 0.16180 0.71000 0.03800
C 	C 	0.72620 0.16930 0.66550 -0.05300
H 	H 	0.70640 0.14710 0.65650 0.07000
C 	C 	0.81580 0.26470 0.69970 -0.00400
C 	C 	0.84070 0.29450 0.70870 -0.04100
C 	C 	0.86750 0.32980 0.71890 0.10500
C 	C 	0.88510 0.34010 0.78030 -0.14600
H 	H 	0.87880 0.32270 0.81820 0.10700
C 	C 	0.91070 0.37340 0.78870 0.08000
H 	H 	0.92300 0.37860 0.83170 0.05500
C 	C 	0.91950 0.40080 0.73560 -0.12800
C 	C 	0.94880 0.43690 0.74320 0.36000
C 	C 	0.89960 0.39050 0.67300 0.08000
H 	H 	0.90470 0.40880 0.63570 0.02400
C 	C 	0.87490 0.35790 0.66340 -0.15100
H 	H 	0.86220 0.35290 0.62070 0.08800
C 	C 	0.75960 0.12120 0.74720 0.02900
C 	C 	0.75750 0.08680 0.77140 -0.09500
C 	C 	0.75360 0.04780 0.80560 0.22900
C 	C 	0.71420 0.03510 0.81990 -0.26200
H 	H 	0.69100 0.05220 0.80520 0.13000
C 	C 	0.70590 0.99880 0.85490 0.17000
H 	H 	0.67740 0.99140 0.86620 0.01500
C 	C 	0.74090 0.97160 0.87490 -0.17500
C 	C 	0.73200 0.93220 0.91610 0.36700
C 	C 	0.77900 0.98620 0.86140 0.19200
H 	H 	0.80320 0.96980 0.87390 0.00700
C 	C 	0.78510 0.02510 0.82940 -0.27200
H 	H 	0.81340 0.03560 0.82450 0.13600
O 	O 	0.67861 0.25333 0.56790 -0.39200
O 	O 	0.66324 0.18348 0.56890 -0.39600
O 	O 	0.96140 0.45320 0.68620 -0.39400
O 	O 	0.96070 0.44940 0.79970 -0.36900
O 	O 	0.69446 0.92397 0.93230 -0.33000
O 	O 	0.76560 0.91020 0.93030 -0.34100
O 	O 	0.61450 0.11210 0.51000 -0.09800
C 	C 	0.31440 0.78500 0.58590 0.32800
C 	C 	0.27890 0.79180 0.63270 -0.03500
C 	C 	0.24970 0.76050 0.64400 -0.06000
H 	H 	0.25250 0.73380 0.62190 0.06900
C 	C 	0.21440 0.76760 0.68950 0.05400
C 	C 	0.21210 0.80750 0.72100 -0.11800
H 	H 	0.18920 0.81320 0.75100 0.08500
C 	C 	0.24160 0.83820 0.71000 0.07000
C 	C 	0.27380 0.83070 0.66550 -0.07300
H 	H 	0.29360 0.85290 0.65650 0.07900
C 	C 	0.18420 0.73530 0.69970 -0.00900
C 	C 	0.15930 0.70550 0.70870 -0.04100
C 	C 	0.13250 0.67020 0.71890 0.10500
C 	C 	0.11490 0.65990 0.78030 -0.14900
H 	H 	0.12120 0.67730 0.81820 0.10700
C 	C 	0.08930 0.62660 0.78870 0.08300
H 	H 	0.07700 0.62140 0.83170 0.05000
C 	C 	0.08050 0.59920 0.73560 -0.13400
C 	C 	0.05120 0.56310 0.74320 0.36200
C 	C 	0.10040 0.60950 0.67300 0.08200
H 	H 	0.09530 0.59120 0.63570 0.02000
C 	C 	0.12510 0.64210 0.66340 -0.15400
H 	H 	0.13780 0.64710 0.62070 0.08700
C 	C 	0.24040 0.87880 0.74720 -0.02000
C 	C 	0.24250 0.91320 0.77140 -0.00800
C 	C 	0.24640 0.95220 0.80560 0.05200
C 	C 	0.28580 0.96490 0.81990 -0.05000
H 	H 	0.30900 0.94780 0.80520 0.06600
C 	C 	0.29410 0.00120 0.85490 -0.01700
H 	H 	0.32260 0.00860 0.86620 0.06700
C 	C 	0.25910 0.02840 0.87490 -0.04800
C 	C 	0.26800 0.06780 0.91610 0.32100
C 	C 	0.22100 0.01380 0.86140 -0.00800
H 	H 	0.19680 0.03020 0.87390 0.06100
C 	C 	0.21490 0.97490 0.82940 -0.05600
H 	H 	0.18660 0.96440 0.82450 0.07100
O 	O 	0.32139 0.74667 0.56790 -0.39100
O 	O 	0.33676 0.81652 0.56890 -0.39400
O 	O 	0.03860 0.54680 0.68620 -0.40700
O 	O 	0.03930 0.55060 0.79970 -0.38200
O 	O 	0.30554 0.07603 0.93230 -0.32000
O 	O 	0.23440 0.08980 0.93030 -0.33500
O 	O 	0.38550 0.88790 0.51000 -0.09500
C 	C 	0.28500 0.18560 0.08590 0.33500
C 	C 	0.29180 0.22110 0.13270 -0.07000
C 	C 	0.26050 0.25030 0.14400 -0.04600
H 	H 	0.23380 0.24750 0.12190 0.04600
C 	C 	0.26760 0.28560 0.18950 0.02900
C 	C 	0.30750 0.28790 0.22100 -0.09800
H 	H 	0.31320 0.31080 0.25100 0.06700
C 	C 	0.33820 0.25840 0.21000 0.03000
C 	C 	0.33070 0.22620 0.16550 -0.05000
H 	H 	0.35290 0.20640 0.15650 0.05500
C 	C 	0.23530 0.31580 0.19970 -0.01000
C 	C 	0.20550 0.34070 0.20870 -0.05900
C 	C 	0.17020 0.36750 0.21890 0.11200
C 	C 	0.15990 0.38510 0.28030 -0.17100
H 	H 	0.17730 0.37880 0.31820 0.10800
C 	C 	0.12660 0.41070 0.28870 0.09900
H 	H 	0.12140 0.42300 0.33170 0.02300
C 	C 	0.09920 0.41950 0.23560 -0.15900
C 	C 	0.06310 0.44880 0.24320 0.37100
C 	C 	0.10950 0.39960 0.17300 0.09300
H 	H 	0.09120 0.40470 0.13570 -0.00500
C 	C 	0.14210 0.37490 0.16340 -0.17400
H 	H 	0.14710 0.36220 0.12070 0.06800
C 	C 	0.37880 0.25960 0.24720 0.00100
C 	C 	0.41320 0.25750 0.27140 -0.07800
C 	C 	0.45220 0.25360 0.30560 0.14900
C 	C 	0.46490 0.21420 0.31990 -0.18300
H 	H 	0.44780 0.19100 0.30520 0.09700
C 	C 	0.50120 0.20590 0.35490 0.08500
H 	H 	0.50860 0.17740 0.36620 0.02100
C 	C 	0.52840 0.24090 0.37490 -0.14600
C 	C 	0.56780 0.23200 0.41610 0.35500
C 	C 	0.51380 0.27900 0.36140 0.10300
H 	H 	0.53020 0.30320 0.37390 0.00700
C 	C 	0.47490 0.28510 0.32940 -0.19400
H 	H 	0.46440 0.31340 0.32450 0.09100
O 	O 	0.24667 0.17861 0.06790 -0.43000
O 	O 	0.31652 0.16324 0.06890 -0.44100
O 	O 	0.04680 0.46140 0.18620 -0.42600
O 	O 	0.05060 0.46070 0.29970 -0.40200
O 	O 	0.57603 0.19446 0.43230 -0.39800
O 	O 	0.58980 0.26560 0.43030 -0.40400
O 	O 	0.38790 0.11450 0.01000 0.66700
C 	C 	0.71500 0.81440 0.08590 0.33400
C 	C 	0.70820 0.77890 0.13270 -0.06800
C 	C 	0.73950 0.74970 0.14400 -0.04700
H 	H 	0.76620 0.75250 0.12190 0.04700
C 	C 	0.73240 0.71440 0.18950 0.03000
C 	C 	0.69250 0.71210 0.22100 -0.09900
H 	H 	0.68680 0.68920 0.25100 0.06700
C 	C 	0.66180 0.74160 0.21000 0.03100
C 	C 	0.66930 0.77380 0.16550 -0.05100
H 	H 	0.64710 0.79360 0.15650 0.05500
C 	C 	0.76470 0.68420 0.19970 -0.01100
C 	C 	0.79450 0.65930 0.20870 -0.05700
C 	C 	0.82980 0.63250 0.21890 0.11000
C 	C 	0.84010 0.61490 0.28030 -0.16700
H 	H 	0.82270 0.62120 0.31820 0.10700
C 	C 	0.87340 0.58930 0.28870 0.09600
H 	H 	0.87860 0.57700 0.33170 0.02600
C 	C 	0.90080 0.58050 0.23560 -0.15300
C 	C 	0.93690 0.55120 0.24320 0.37000
C 	C 	0.89050 0.60040 0.17300 0.09000
H 	H 	0.90880 0.59530 0.13570 0.00000
C 	C 	0.85790 0.62510 0.16340 -0.16900
H 	H 	0.85290 0.63780 0.12070 0.06900
C 	C 	0.62120 0.74040 0.24720 0.00000
C 	C 	0.58680 0.74250 0.27140 -0.07800
C 	C 	0.54780 0.74640 0.30560 0.14900
C 	C 	0.53510 0.78580 0.31990 -0.18200
H 	H 	0.55220 0.80900 0.30520 0.09600
C 	C 	0.49880 0.79410 0.35490 0.08500
H 	H 	0.49140 0.82260 0.36620 0.02100
C 	C 	0.47160 0.75910 0.37490 -0.14600
C 	C 	0.43220 0.76800 0.41610 0.35400
C 	C 	0.48620 0.72100 0.36140 0.10300
H 	H 	0.46980 0.69680 0.37390 0.00700
C 	C 	0.52510 0.71490 0.32940 -0.19300
H 	H 	0.53560 0.68660 0.32450 0.09100
O 	O 	0.75333 0.82139 0.06790 -0.42800
O 	O 	0.68348 0.83676 0.06890 -0.44100
O 	O 	0.95320 0.53860 0.18620 -0.41400
O 	O 	0.94940 0.53930 0.29970 -0.39000
O 	O 	0.42397 0.80554 0.43230 -0.39800
O 	O 	0.41020 0.73440 0.43030 -0.40400
O 	O 	0.61210 0.88550 0.01000 0.66900
C 	C 	0.31440 0.78500 0.41410 0.32900
C 	C 	0.27890 0.79180 0.36730 -0.03900
C 	C 	0.24970 0.76050 0.35600 -0.05500
H 	H 	0.25250 0.73380 0.37810 0.06700
C 	C 	0.21440 0.76760 0.31050 0.04700
C 	C 	0.21210 0.80750 0.27900 -0.11000
H 	H 	0.18920 0.81320 0.24900 0.07200
C 	C 	0.24160 0.83820 0.29000 0.05700
C 	C 	0.27380 0.83070 0.33450 -0.06600
H 	H 	0.29360 0.85290 0.34350 0.07600
C 	C 	0.18420 0.73530 0.30030 -0.00200
C 	C 	0.15930 0.70550 0.29130 -0.05100
C 	C 	0.13250 0.67020 0.28110 0.12600
C 	C 	0.11490 0.65990 0.21970 -0.18600
H 	H 	0.12120 0.67730 0.18180 0.11000
C 	C 	0.08930 0.62660 0.21130 0.11100
H 	H 	0.07700 0.62140 0.16830 -0.00200
C 	C 	0.08050 0.59920 0.26440 -0.16700
C 	C 	0.05120 0.56310 0.25680 0.37500
C 	C 	0.10040 0.60950 0.32700 0.10500
H 	H 	0.09530 0.59120 0.36430 0.01200
C 	C 	0.12510 0.64210 0.33660 -0.17800
H 	H 	0.13780 0.64710 0.37930 0.09500
C 	C 	0.24040 0.87880 0.25280 -0.02100
C 	C 	0.24250 0.91320 0.22860 -0.03800
C 	C 	0.24640 0.95220 0.19440 0.07300
C 	C 	0.28580 0.96490 0.18010 -0.09600
H 	H 	0.30900 0.94780 0.19480 0.07000
C 	C 	0.29410 0.00120 0.14510 0.00200
H 	H 	0.32260 0.00860 0.13380 0.03000
C 	C 	0.25910 0.02840 0.12510 -0.10800
C 	C 	0.26800 0.06780 0.08390 0.33300
C 	C 	0.22100 0.01380 0.13860 0.01500
H 	H 	0.19680 0.03020 0.12610 0.01700
C 	C 	0.21490 0.97490 0.17060 -0.10500
H 	H 	0.18660 0.96440 0.17550 0.05900
O 	O 	0.32139 0.74667 0.43210 -0.39300
O 	O 	0.33676 0.81652 0.43110 -0.39500
O 	O 	0.03860 0.54680 0.31380 -0.41100
O 	O 	0.03930 0.55060 0.20030 -0.41900
O 	O 	0.30554 0.07603 0.06770 -0.43600
O 	O 	0.23440 0.08980 0.06970 -0.43300
O 	O 	0.38550 0.88790 0.49000 -0.09500
C 	C 	0.68560 0.21500 0.41410 0.33400
C 	C 	0.72110 0.20820 0.36730 -0.05000
C 	C 	0.75030 0.23950 0.35600 -0.04500
H 	H 	0.74750 0.26620 0.37810 0.06500
C 	C 	0.78560 0.23240 0.31050 0.03700
C 	C 	0.78790 0.19250 0.27900 -0.09000
H 	H 	0.81080 0.18680 0.24900 0.06600
C 	C 	0.75840 0.16180 0.29000 0.02600
C 	C 	0.72620 0.16930 0.33450 -0.04600
H 	H 	0.70640 0.14710 0.34350 0.06700
C 	C 	0.81580 0.26470 0.30030 0.00300
C 	C 	0.84070 0.29450 0.29130 -0.05100
C 	C 	0.86750 0.32980 0.28110 0.12600
C 	C 	0.88510 0.34010 0.21970 -0.18300
H 	H 	0.87880 0.32270 0.18180 0.10900
C 	C 	0.91070 0.37340 0.21130 0.10900
H 	H 	0.92300 0.37860 0.16830 0.00300
C 	C 	0.91950 0.40080 0.26440 -0.16100
C 	C 	0.94880 0.43690 0.25680 0.37300
C 	C 	0.89960 0.39050 0.32700 0.10300
H 	H 	0.90470 0.40880 0.36430 0.01600
C 	C 	0.87490 0.35790 0.33660 -0.17400
H 	H 	0.86220 0.35290 0.37930 0.09600
C 	C 	0.75960 0.12120 0.25280 0.02900
C 	C 	0.75750 0.08680 0.22860 -0.12500
C 	C 	0.75360 0.04780 0.19440 0.25000
C 	C 	0.71420 0.03510 0.18010 -0.30800
H 	H 	0.69100 0.05220 0.19480 0.13300
C 	C 	0.70590 0.99880 0.14510 0.18900
H 	H 	0.67740 0.99140 0.13380 -0.02200
C 	C 	0.74090 0.97160 0.12510 -0.23500
C 	C 	0.73200 0.93220 0.08390 0.38000
C 	C 	0.77900 0.98620 0.13860 0.21500
H 	H 	0.80320 0.96980 0.12610 -0.03800
C 	C 	0.78510 0.02510 0.17060 -0.32200
H 	H 	0.81340 0.03560 0.17550 0.12300
O 	O 	0.67861 0.25333 0.43210 -0.39400
O 	O 	0.66324 0.18348 0.43110 -0.39700
O 	O 	0.96140 0.45320 0.31380 -0.39800
O 	O 	0.96070 0.44940 0.20030 -0.40600
O 	O 	0.69446 0.92397 0.06770 -0.44600
O 	O 	0.76560 0.91020 0.06970 -0.43900
O 	O 	0.61450 0.11210 0.49000 -0.09800
C 	C 	0.71500 0.81440 0.91410 0.31500
C 	C 	0.70820 0.77890 0.86730 -0.00900
C 	C 	0.73950 0.74970 0.85600 -0.06300
H 	H 	0.76620 0.75250 0.87810 0.09000
C 	C 	0.73240 0.71440 0.81050 0.06400
C 	C 	0.69250 0.71210 0.77900 -0.11100
H 	H 	0.68680 0.68920 0.74900 0.08300
C 	C 	0.66180 0.74160 0.79000 0.06700
C 	C 	0.66930 0.77380 0.83450 -0.07200
H 	H 	0.64710 0.79360 0.84350 0.09200
C 	C 	0.76470 0.68420 0.80030 0.00300
C 	C 	0.79450 0.65930 0.79130 -0.03300
C 	C 	0.82980 0.63250 0.78110 0.11800
C 	C 	0.84010 0.61490 0.71970 -0.16000
H 	H 	0.82270 0.62120 0.68180 0.10700
C 	C 	0.87340 0.58930 0.71130 0.09200
H 	H 	0.87860 0.57700 0.66830 0.02900
C 	C 	0.90080 0.58050 0.76440 -0.13500
C 	C 	0.93690 0.55120 0.75680 0.36300
C 	C 	0.89050 0.60040 0.82700 0.09200
H 	H 	0.90880 0.59530 0.86430 0.04100
C 	C 	0.85790 0.62510 0.83660 -0.15400
H 	H 	0.85290 0.63780 0.87930 0.11500
C 	C 	0.62120 0.74040 0.75280 0.00700
C 	C 	0.58680 0.74250 0.72860 -0.05600
C 	C 	0.54780 0.74640 0.69440 0.15600
C 	C 	0.53510 0.78580 0.68010 -0.17800
H 	H 	0.55220 0.80900 0.69480 0.10400
C 	C 	0.49880 0.79410 0.64510 0.09000
H 	H 	0.49140 0.82260 0.63380 0.02300
C 	C 	0.47160 0.75910 0.62510 -0.14300
C 	C 	0.43220 0.76800 0.58390 0.35500
C 	C 	0.48620 0.72100 0.63860 0.10800
H 	H 	0.46980 0.69680 0.62610 0.01300
C 	C 	0.52510 0.71490 0.67060 -0.18800
H 	H 	0.53560 0.68660 0.67550 0.10300
O 	O 	0.75333 0.82139 0.93210 -0.32500
O 	O 	0.68348 0.83676 0.93110 -0.31900
O 	O 	0.95320 0.53860 0.81380 -0.37900
O 	O 	0.94940 0.53930 0.70030 -0.38600
O 	O 	0.42397 0.80554 0.56770 -0.39700
O 	O 	0.41020 0.73440 0.56970 -0.40100
O 	O 	0.61210 0.88550 0.99000 -0.85100
C 	C 	0.28500 0.18560 0.91410 0.31600
C 	C 	0.29180 0.22110 0.86730 -0.01100
C 	C 	0.26050 0.25030 0.85600 -0.06200
H 	H 	0.23380 0.24750 0.87810 0.08800
C 	C 	0.26760 0.28560 0.81050 0.06300
C 	C 	0.30750 0.28790 0.77900 -0.11000
H 	H 	0.31320 0.31080 0.74900 0.08300
C 	C 	0.33820 0.25840 0.79000 0.06600
C 	C 	0.33070 0.22620 0.83450 -0.07100
H 	H 	0.35290 0.20640 0.84350 0.09200
C 	C 	0.23530 0.31580 0.80030 0.00400
C 	C 	0.20550 0.34070 0.79130 -0.03400
C 	C 	0.17020 0.36750 0.78110 0.12000
C 	C 	0.15990 0.38510 0.71970 -0.16400
H 	H 	0.17730 0.37880 0.68180 0.10800
C 	C 	0.12660 0.41070 0.71130 0.09500
H 	H 	0.12140 0.42300 0.66830 0.02600
C 	C 	0.09920 0.41950 0.76440 -0.14200
C 	C 	0.06310 0.44880 0.75680 0.36500
C 	C 	0.10950 0.39960 0.82700 0.09500
H 	H 	0.09120 0.40470 0.86430 0.03600
C 	C 	0.14210 0.37490 0.83660 -0.15900
H 	H 	0.14710 0.36220 0.87930 0.11400
C 	C 	0.37880 0.25960 0.75280 0.00700
C 	C 	0.41320 0.25750 0.72860 -0.05600
C 	C 	0.45220 0.25360 0.69440 0.15700
C 	C 	0.46490 0.21420 0.68010 -0.17900
H 	H 	0.44780 0.19100 0.69480 0.10400
C 	C 	0.50120 0.20590 0.64510 0.09100
H 	H 	0.50860 0.17740 0.63380 0.02200
C 	C 	0.52840 0.24090 0.62510 -0.14300
C 	C 	0.56780 0.23200 0.58390 0.35600
C 	C 	0.51380 0.27900 0.63860 0.10900
H 	H 	0.53020 0.30320 0.62610 0.01300
C 	C 	0.47490 0.28510 0.67060 -0.18900
H 	H 	0.46440 0.31340 0.67550 0.10400
O 	O 	0.24667 0.17861 0.93210 -0.32700
O 	O 	0.31652 0.16324 0.93110 -0.31900
O 	O 	0.04680 0.46140 0.81380 -0.39100
O 	O 	0.05060 0.46070 0.70030 -0.39800
O 	O 	0.57603 0.19446 0.56770 -0.39800
O 	O 	0.58980 0.26560 0.56970 -0.40100
O 	O 	0.38790 0.11450 0.99000 -0.85300
Cu	Cu	0.61944 0.18258 0.50000 0.92800
Cu	Cu	0.63452 0.26616 0.50000 0.90000
Cu	Cu	0.38056 0.81742 0.50000 0.92800
Cu	Cu	0.36548 0.73384 0.50000 0.90000
Cu	Cu	0.31742 0.11944 -0.00000 0.86400
Cu	Cu	0.23384 0.13452 -0.00000 0.83600
Cu	Cu	0.68258 0.88056 -0.00000 0.86400
Cu	Cu	0.76616 0.86548 -0.00000 0.83800
Cu	Cu	0.00000 0.50000 0.68294 0.89600
Cu	Cu	0.00000 0.50000 0.18294 0.88800
Cu	Cu	0.00000 0.50000 0.31706 0.89700
Cu	Cu	-0.00000 0.50000 0.81706 0.90600
C 	C 	0.18560 0.71500 0.08590 0.33500
C 	C 	0.22110 0.70820 0.13270 -0.06900
C 	C 	0.25030 0.73950 0.14400 -0.04700
H 	H 	0.24750 0.76620 0.12190 0.04700
C 	C 	0.28560 0.73240 0.18950 0.03000
C 	C 	0.28790 0.69250 0.22100 -0.09900
H 	H 	0.31080 0.68680 0.25100 0.06700
C 	C 	0.25840 0.66180 0.21000 0.03100
C 	C 	0.22620 0.66930 0.16550 -0.05100
H 	H 	0.20640 0.64710 0.15650 0.05500
C 	C 	0.31580 0.76470 0.19970 -0.01000
C 	C 	0.34070 0.79450 0.20870 -0.05700
C 	C 	0.36750 0.82980 0.21890 0.11000
C 	C 	0.38510 0.84010 0.28030 -0.16800
H 	H 	0.37880 0.82270 0.31820 0.10700
C 	C 	0.41070 0.87340 0.28870 0.09600
H 	H 	0.42300 0.87860 0.33170 0.02600
C 	C 	0.41950 0.90080 0.23560 -0.15300
C 	C 	0.44880 0.93690 0.24320 0.37000
C 	C 	0.39960 0.89050 0.17300 0.09000
H 	H 	0.40470 0.90880 0.13570 0.00000
C 	C 	0.37490 0.85790 0.16340 -0.16900
H 	H 	0.36220 0.85290 0.12070 0.06900
C 	C 	0.25960 0.62120 0.24720 0.00100
C 	C 	0.25750 0.58680 0.27140 -0.07800
C 	C 	0.25360 0.54780 0.30560 0.14900
C 	C 	0.21420 0.53510 0.31990 -0.18300
H 	H 	0.19100 0.55220 0.30520 0.09700
C 	C 	0.20590 0.49880 0.35490 0.08500
H 	H 	0.17740 0.49140 0.36620 0.02100
C 	C 	0.24090 0.47160 0.37490 -0.14600
C 	C 	0.23200 0.43220 0.41610 0.35500
C 	C 	0.27900 0.48620 0.36140 0.10300
H 	H 	0.30320 0.46980 0.37390 0.00700
C 	C 	0.28510 0.52510 0.32940 -0.19400
H 	H 	0.31340 0.53560 0.32450 0.09100
O 	O 	0.17861 0.75333 0.06790 -0.42900
O 	O 	0.16324 0.68348 0.06890 -0.44100
O 	O 	0.46140 0.95320 0.18620 -0.41400
O 	O 	0.46070 0.94940 0.29970 -0.39000
O 	O 	0.19446 0.42397 0.43230 -0.39800
O 	O 	0.26560 0.41020 0.43030 -0.40400
O 	O 	0.11450 0.61210 0.01000 0.66700
C 	C 	0.81440 0.28500 0.08590 0.33400
C 	C 	0.77890 0.29180 0.13270 -0.06900
C 	C 	0.74970 0.26050 0.14400 -0.04700
H 	H 	0.75250 0.23380 0.12190 0.04600
C 	C 	0.71440 0.26760 0.18950 0.02900
C 	C 	0.71210 0.30750 0.22100 -0.09900
H 	H 	0.68920 0.31320 0.25100 0.06700
C 	C 	0.74160 0.33820 0.21000 0.03100
C 	C 	0.77380 0.33070 0.16550 -0.05000
H 	H 	0.79360 0.35290 0.15650 0.05500
C 	C 	0.68420 0.23530 0.19970 -0.01000
C 	C 	0.65930 0.20550 0.20870 -0.05900
C 	C 	0.63250 0.17020 0.21890 0.11200
C 	C 	0.61490 0.15990 0.28030 -0.17100
H 	H 	0.62120 0.17730 0.31820 0.10800
C 	C 	0.58930 0.12660 0.28870 0.09900
H 	H 	0.57700 0.12140 0.33170 0.02400
C 	C 	0.58050 0.09920 0.23560 -0.15900
C 	C 	0.55120 0.06310 0.24320 0.37100
C 	C 	0.60040 0.10950 0.17300 0.09300
H 	H 	0.59530 0.09120 0.13570 -0.00500
C 	C 	0.62510 0.14210 0.16340 -0.17400
H 	H 	0.63780 0.14710 0.12070 0.06800
C 	C 	0.74040 0.37880 0.24720 0.00100
C 	C 	0.74250 0.41320 0.27140 -0.07800
C 	C 	0.74640 0.45220 0.30560 0.14900
C 	C 	0.78580 0.46490 0.31990 -0.18200
H 	H 	0.80900 0.44780 0.30520 0.09700
C 	C 	0.79410 0.50120 0.35490 0.08500
H 	H 	0.82260 0.50860 0.36620 0.02100
C 	C 	0.75910 0.52840 0.37490 -0.14600
C 	C 	0.76800 0.56780 0.41610 0.35400
C 	C 	0.72100 0.51380 0.36140 0.10300
H 	H 	0.69680 0.53020 0.37390 0.00700
C 	C 	0.71490 0.47490 0.32940 -0.19300
H 	H 	0.68660 0.46440 0.32450 0.09100
O 	O 	0.82139 0.24667 0.06790 -0.42900
O 	O 	0.83676 0.31652 0.06890 -0.44100
O 	O 	0.53860 0.04680 0.18620 -0.42600
O 	O 	0.53930 0.05060 0.29970 -0.40200
O 	O 	0.80554 0.57603 0.43230 -0.39800
O 	O 	0.73440 0.58980 0.43030 -0.40400
O 	O 	0.88550 0.38790 0.01000 0.66900
C 	C 	0.78500 0.68560 0.58590 0.32800
C 	C 	0.79180 0.72110 0.63270 -0.03400
C 	C 	0.76050 0.75030 0.64400 -0.06100
H 	H 	0.73380 0.74750 0.62190 0.07000
C 	C 	0.76760 0.78560 0.68950 0.05600
C 	C 	0.80750 0.78790 0.72100 -0.11800
H 	H 	0.81320 0.81080 0.75100 0.08800
C 	C 	0.83820 0.75840 0.71000 0.07100
C 	C 	0.83070 0.72620 0.66550 -0.07300
H 	H 	0.85290 0.70640 0.65650 0.07900
C 	C 	0.73530 0.81580 0.69970 -0.00800
C 	C 	0.70550 0.84070 0.70870 -0.03800
C 	C 	0.67020 0.86750 0.71890 0.10300
C 	C 	0.65990 0.88510 0.78030 -0.14400
H 	H 	0.67730 0.87880 0.81820 0.10700
C 	C 	0.62660 0.91070 0.78870 0.07900
H 	H 	0.62140 0.92300 0.83170 0.05600
C 	C 	0.59920 0.91950 0.73560 -0.12700
C 	C 	0.56310 0.94880 0.74320 0.36000
C 	C 	0.60950 0.89960 0.67300 0.07900
H 	H 	0.59120 0.90470 0.63570 0.02400
C 	C 	0.64210 0.87490 0.66340 -0.14900
H 	H 	0.64710 0.86220 0.62070 0.08700
C 	C 	0.87880 0.75960 0.74720 -0.01900
C 	C 	0.91320 0.75750 0.77140 -0.00700
C 	C 	0.95220 0.75360 0.80560 0.05300
C 	C 	0.96490 0.71420 0.81990 -0.05000
H 	H 	0.94780 0.69100 0.80520 0.06700
C 	C 	0.00120 0.70590 0.85490 -0.01700
H 	H 	0.00860 0.67740 0.86620 0.06700
C 	C 	0.02840 0.74090 0.87490 -0.04700
C 	C 	0.06780 0.73200 0.91610 0.32000
C 	C 	0.01380 0.77900 0.86140 -0.00800
H 	H 	0.03020 0.80320 0.87390 0.06400
C 	C 	0.97490 0.78510 0.82940 -0.05500
H 	H 	0.96440 0.81340 0.82450 0.07400
O 	O 	0.74667 0.67861 0.56790 -0.39100
O 	O 	0.81652 0.66324 0.56890 -0.39400
O 	O 	0.54680 0.96140 0.68620 -0.39400
O 	O 	0.55060 0.96070 0.79970 -0.36900
O 	O 	0.07603 0.69446 0.93230 -0.32000
O 	O 	0.08980 0.76560 0.93030 -0.33300
O 	O 	0.88790 0.61450 0.51000 -0.09500
C 	C 	0.21500 0.31440 0.58590 0.33200
C 	C 	0.20820 0.27890 0.63270 -0.04600
C 	C 	0.23950 0.24970 0.64400 -0.05100
H 	H 	0.26620 0.25250 0.62190 0.06600
C 	C 	0.23240 0.21440 0.68950 0.04300
C 	C 	0.19250 0.21210 0.72100 -0.09800
H 	H 	0.18680 0.18920 0.75100 0.07600
C 	C 	0.16180 0.24160 0.71000 0.03700
C 	C 	0.16930 0.27380 0.66550 -0.05300
H 	H 	0.14710 0.29360 0.65650 0.07000
C 	C 	0.26470 0.18420 0.69970 -0.00400
C 	C 	0.29450 0.15930 0.70870 -0.04400
C 	C 	0.32980 0.13250 0.71890 0.10700
C 	C 	0.34010 0.11490 0.78030 -0.15100
H 	H 	0.32270 0.12120 0.81820 0.10800
C 	C 	0.37340 0.08930 0.78870 0.08400
H 	H 	0.37860 0.07700 0.83170 0.05000
C 	C 	0.40080 0.08050 0.73560 -0.13500
C 	C 	0.43690 0.05120 0.74320 0.36200
C 	C 	0.39050 0.10040 0.67300 0.08300
H 	H 	0.40880 0.09530 0.63570 0.02000
C 	C 	0.35790 0.12510 0.66340 -0.15600
H 	H 	0.35290 0.13780 0.62070 0.08700
C 	C 	0.12120 0.24040 0.74720 0.02800
C 	C 	0.08680 0.24250 0.77140 -0.09700
C 	C 	0.04780 0.24640 0.80560 0.22900
C 	C 	0.03510 0.28580 0.81990 -0.26200
H 	H 	0.05220 0.30900 0.80520 0.13000
C 	C 	0.99880 0.29410 0.85490 0.17000
H 	H 	0.99140 0.32260 0.86620 0.01500
C 	C 	0.97160 0.25910 0.87490 -0.17600
C 	C 	0.93220 0.26800 0.91610 0.36800
C 	C 	0.98620 0.22100 0.86140 0.19200
H 	H 	0.96980 0.19680 0.87390 0.00500
C 	C 	0.02510 0.21490 0.82940 -0.27300
H 	H 	0.03560 0.18660 0.82450 0.13300
O 	O 	0.25333 0.32139 0.56790 -0.39200
O 	O 	0.18348 0.33676 0.56890 -0.39600
O 	O 	0.45320 0.03860 0.68620 -0.40700
O 	O 	0.44940 0.03930 0.79970 -0.38200
O 	O 	0.92397 0.30554 0.93230 -0.33000
O 	O 	0.91020 0.23440 0.93030 -0.34200
O 	O 	0.11210 0.38550 0.51000 -0.09800
C 	C 	0.81440 0.28500 0.91410 0.31600
C 	C 	0.77890 0.29180 0.86730 -0.01000
C 	C 	0.74970 0.26050 0.85600 -0.06200
H 	H 	0.75250 0.23380 0.87810 0.08900
C 	C 	0.71440 0.26760 0.81050 0.06300
C 	C 	0.71210 0.30750 0.77900 -0.11100
H 	H 	0.68920 0.31320 0.74900 0.08300
C 	C 	0.74160 0.33820 0.79000 0.06700
C 	C 	0.77380 0.33070 0.83450 -0.07200
H 	H 	0.79360 0.35290 0.84350 0.09200
C 	C 	0.68420 0.23530 0.80030 0.00400
C 	C 	0.65930 0.20550 0.79130 -0.03400
C 	C 	0.63250 0.17020 0.78110 0.12000
C 	C 	0.61490 0.15990 0.71970 -0.16400
H 	H 	0.62120 0.17730 0.68180 0.10800
C 	C 	0.58930 0.12660 0.71130 0.09500
H 	H 	0.57700 0.12140 0.66830 0.02600
C 	C 	0.58050 0.09920 0.76440 -0.14200
C 	C 	0.55120 0.06310 0.75680 0.36500
C 	C 	0.60040 0.10950 0.82700 0.09500
H 	H 	0.59530 0.09120 0.86430 0.03600
C 	C 	0.62510 0.14210 0.83660 -0.15900
H 	H 	0.63780 0.14710 0.87930 0.11400
C 	C 	0.74040 0.37880 0.75280 0.00700
C 	C 	0.74250 0.41320 0.72860 -0.05600
C 	C 	0.74640 0.45220 0.69440 0.15600
C 	C 	0.78580 0.46490 0.68010 -0.17900
H 	H 	0.80900 0.44780 0.69480 0.10400
C 	C 	0.79410 0.50120 0.64510 0.09000
H 	H 	0.82260 0.50860 0.63380 0.02300
C 	C 	0.75910 0.52840 0.62510 -0.14300
C 	C 	0.76800 0.56780 0.58390 0.35600
C 	C 	0.72100 0.51380 0.63860 0.10800
H 	H 	0.69680 0.53020 0.62610 0.01300
C 	C 	0.71490 0.47490 0.67060 -0.18800
H 	H 	0.68660 0.46440 0.67550 0.10300
O 	O 	0.82139 0.24667 0.93210 -0.32600
O 	O 	0.83676 0.31652 0.93110 -0.31900
O 	O 	0.53860 0.04680 0.81380 -0.39100
O 	O 	0.53930 0.05060 0.70030 -0.39800
O 	O 	0.80554 0.57603 0.56770 -0.39700
O 	O 	0.73440 0.58980 0.56970 -0.40100
O 	O 	0.88550 0.38790 0.99000 -0.85100
C 	C 	0.18560 0.71500 0.91410 0.31600
C 	C 	0.22110 0.70820 0.86730 -0.01000
C 	C 	0.25030 0.73950 0.85600 -0.06300
H 	H 	0.24750 0.76620 0.87810 0.08900
C 	C 	0.28560 0.73240 0.81050 0.06400
C 	C 	0.28790 0.69250 0.77900 -0.11100
H 	H 	0.31080 0.68680 0.74900 0.08300
C 	C 	0.25840 0.66180 0.79000 0.06700
C 	C 	0.22620 0.66930 0.83450 -0.07200
H 	H 	0.20640 0.64710 0.84350 0.09200
C 	C 	0.31580 0.76470 0.80030 0.00300
C 	C 	0.34070 0.79450 0.79130 -0.03300
C 	C 	0.36750 0.82980 0.78110 0.11800
C 	C 	0.38510 0.84010 0.71970 -0.16000
H 	H 	0.37880 0.82270 0.68180 0.10700
C 	C 	0.41070 0.87340 0.71130 0.09200
H 	H 	0.42300 0.87860 0.66830 0.02900
C 	C 	0.41950 0.90080 0.76440 -0.13500
C 	C 	0.44880 0.93690 0.75680 0.36300
C 	C 	0.39960 0.89050 0.82700 0.09200
H 	H 	0.40470 0.90880 0.86430 0.04100
C 	C 	0.37490 0.85790 0.83660 -0.15400
H 	H 	0.36220 0.85290 0.87930 0.11400
C 	C 	0.25960 0.62120 0.75280 0.00700
C 	C 	0.25750 0.58680 0.72860 -0.05600
C 	C 	0.25360 0.54780 0.69440 0.15600
C 	C 	0.21420 0.53510 0.68010 -0.17900
H 	H 	0.19100 0.55220 0.69480 0.10400
C 	C 	0.20590 0.49880 0.64510 0.09100
H 	H 	0.17740 0.49140 0.63380 0.02200
C 	C 	0.24090 0.47160 0.62510 -0.14300
C 	C 	0.23200 0.43220 0.58390 0.35600
C 	C 	0.27900 0.48620 0.63860 0.10900
H 	H 	0.30320 0.46980 0.62610 0.01300
C 	C 	0.28510 0.52510 0.67060 -0.18900
H 	H 	0.31340 0.53560 0.67550 0.10400
O 	O 	0.17861 0.75333 0.93210 -0.32600
O 	O 	0.16324 0.68348 0.93110 -0.31900
O 	O 	0.46140 0.95320 0.81380 -0.37900
O 	O 	0.46070 0.94940 0.70030 -0.38700
O 	O 	0.19446 0.42397 0.56770 -0.39800
O 	O 	0.26560 0.41020 0.56970 -0.40100
O 	O 	0.11450 0.61210 0.99000 -0.85300
C 	C 	0.21500 0.31440 0.41410 0.33400
C 	C 	0.20820 0.27890 0.36730 -0.05100
C 	C 	0.23950 0.24970 0.35600 -0.04500
H 	H 	0.26620 0.25250 0.37810 0.06400
C 	C 	0.23240 0.21440 0.31050 0.03500
C 	C 	0.19250 0.21210 0.27900 -0.09000
H 	H 	0.18680 0.18920 0.24900 0.06400
C 	C 	0.16180 0.24160 0.29000 0.02500
C 	C 	0.16930 0.27380 0.33450 -0.04600
H 	H 	0.14710 0.29360 0.34350 0.06700
C 	C 	0.26470 0.18420 0.30030 0.00200
C 	C 	0.29450 0.15930 0.29130 -0.05400
C 	C 	0.32980 0.13250 0.28110 0.12700
C 	C 	0.34010 0.11490 0.21970 -0.18800
H 	H 	0.32270 0.12120 0.18180 0.11000
C 	C 	0.37340 0.08930 0.21130 0.11200
H 	H 	0.37860 0.07700 0.16830 -0.00200
C 	C 	0.40080 0.08050 0.26440 -0.16800
C 	C 	0.43690 0.05120 0.25680 0.37500
C 	C 	0.39050 0.10040 0.32700 0.10600
H 	H 	0.40880 0.09530 0.36430 0.01200
C 	C 	0.35790 0.12510 0.33660 -0.17900
H 	H 	0.35290 0.13780 0.37930 0.09500
C 	C 	0.12120 0.24040 0.25280 0.02800
C 	C 	0.08680 0.24250 0.22860 -0.12600
C 	C 	0.04780 0.24640 0.19440 0.25000
C 	C 	0.03510 0.28580 0.18010 -0.30800
H 	H 	0.05220 0.30900 0.19480 0.13300
C 	C 	0.99880 0.29410 0.14510 0.18900
H 	H 	0.99140 0.32260 0.13380 -0.02200
C 	C 	0.97160 0.25910 0.12510 -0.23600
C 	C 	0.93220 0.26800 0.08390 0.38000
C 	C 	0.98620 0.22100 0.13860 0.21500
H 	H 	0.96980 0.19680 0.12610 -0.04000
C 	C 	0.02510 0.21490 0.17060 -0.32200
H 	H 	0.03560 0.18660 0.17550 0.12100
O 	O 	0.25333 0.32139 0.43210 -0.39400
O 	O 	0.18348 0.33676 0.43110 -0.39700
O 	O 	0.45320 0.03860 0.31380 -0.41100
O 	O 	0.44940 0.03930 0.20030 -0.41900
O 	O 	0.92397 0.30554 0.06770 -0.44600
O 	O 	0.91020 0.23440 0.06970 -0.44000
O 	O 	0.11210 0.38550 0.49000 -0.09800
C 	C 	0.78500 0.68560 0.41410 0.32900
C 	C 	0.79180 0.72110 0.36730 -0.03900
C 	C 	0.76050 0.75030 0.35600 -0.05500
H 	H 	0.73380 0.74750 0.37810 0.06800
C 	C 	0.76760 0.78560 0.31050 0.04800
C 	C 	0.80750 0.78790 0.27900 -0.11000
H 	H 	0.81320 0.81080 0.24900 0.07500
C 	C 	0.83820 0.75840 0.29000 0.05900
C 	C 	0.83070 0.72620 0.33450 -0.06600
H 	H 	0.85290 0.70640 0.34350 0.07700
C 	C 	0.73530 0.81580 0.30030 -0.00200
C 	C 	0.70550 0.84070 0.29130 -0.04800
C 	C 	0.67020 0.86750 0.28110 0.12400
C 	C 	0.65990 0.88510 0.21970 -0.18100
H 	H 	0.67730 0.87880 0.18180 0.10900
C 	C 	0.62660 0.91070 0.21130 0.10800
H 	H 	0.62140 0.92300 0.16830 0.00300
C 	C 	0.59920 0.91950 0.26440 -0.16000
C 	C 	0.56310 0.94880 0.25680 0.37300
C 	C 	0.60950 0.89960 0.32700 0.10200
H 	H 	0.59120 0.90470 0.36430 0.01600
C 	C 	0.64210 0.87490 0.33660 -0.17300
H 	H 	0.64710 0.86220 0.37930 0.09500
C 	C 	0.87880 0.75960 0.25280 -0.02000
C 	C 	0.91320 0.75750 0.22860 -0.03600
C 	C 	0.95220 0.75360 0.19440 0.07400
C 	C 	0.96490 0.71420 0.18010 -0.09600
H 	H 	0.94780 0.69100 0.19480 0.07000
C 	C 	0.00120 0.70590 0.14510 0.00200
H 	H 	0.00860 0.67740 0.13380 0.03000
C 	C 	0.02840 0.74090 0.12510 -0.10700
C 	C 	0.06780 0.73200 0.08390 0.33300
C 	C 	0.01380 0.77900 0.13860 0.01500
H 	H 	0.03020 0.80320 0.12610 0.01900
C 	C 	0.97490 0.78510 0.17060 -0.10500
H 	H 	0.96440 0.81340 0.17550 0.06200
O 	O 	0.74667 0.67861 0.43210 -0.39300
O 	O 	0.81652 0.66324 0.43110 -0.39400
O 	O 	0.54680 0.96140 0.31380 -0.39800
O 	O 	0.55060 0.96070 0.20030 -0.40600
O 	O 	0.07603 0.69446 0.06770 -0.43600
O 	O 	0.08980 0.76560 0.06970 -0.43100
O 	O 	0.88790 0.61450 0.49000 -0.09500
Cu	Cu	0.11944 0.68258 -0.00000 0.86400
Cu	Cu	0.13452 0.76616 -0.00000 0.83700
Cu	Cu	0.88056 0.31742 -0.00000 0.86400
Cu	Cu	0.86548 0.23384 -0.00000 0.83800
Cu	Cu	0.81742 0.61944 0.50000 0.92800
Cu	Cu	0.73384 0.63452 0.50000 0.90000
Cu	Cu	0.18258 0.38056 0.50000 0.92800
Cu	Cu	0.26616 0.36548 0.50000 0.90000
Cu	Cu	0.50000 0.00000 0.18294 0.88800
Cu	Cu	0.50000 0.00000 0.68294 0.89600
Cu	Cu	0.50000 0.00000 0.81706 0.90600
Cu	Cu	0.50000 0.00000 0.31706 0.89700
