data_crystal

_cell_length_a 8.27230
_cell_length_b 20.34500
_cell_length_c 8.63430
_cell_angle_alpha 90.00000
_cell_angle_beta  92.36000
_cell_angle_gamma 90.00000

_symmetry_space_group_name_	'P 1'
_symmetry_space_group_name_H-M	'P 1'

loop_
_symmetry_equiv_pos_as_xyz
  x,y,z

loop_
_atom_site_label
_atom_site_type_symbol
_atom_site_fract_x
_atom_site_fract_y
_atom_site_fract_z
_atom_site_charge
N 	N 	0.82440 0.17370 0.17497 -0.11000
N 	N 	0.88513 0.07828 0.08636 -0.19600
N 	N 	0.71693 0.08132 0.09159 -0.10500
N 	N 	0.85130 0.23687 0.23200 -0.03100
N 	N 	0.72330 0.26875 0.22160 -0.04100
N 	N 	0.74680 0.33094 0.28326 -0.09700
N 	N 	0.84000 0.41647 0.41150 -0.08500
N 	N 	0.67476 0.42627 0.37118 -0.14600
N 	N 	0.34348 0.00047 0.36659 -0.12900
N 	N 	0.15070 0.00079 0.19038 -0.22300
N 	N 	0.08040 0.00360 0.33536 -0.12000
N 	N 	0.50050 0.99940 0.42790 -0.01100
C 	C 	0.94660 0.13332 0.13790 0.17700
H 	H 	0.05860 0.14340 0.14790 -0.04500
C 	C 	0.68330 0.13911 0.14540 0.09600
H 	H 	0.57750 0.15510 0.16190 0.01900
C 	C 	0.87910 0.35924 0.35860 0.10200
H 	H 	0.98330 0.33980 0.37010 0.04000
C 	C 	0.62360 0.37465 0.29520 0.09700
H 	H 	0.51640 0.36840 0.25430 0.01300
C 	C 	0.30770 0.99929 0.21170 0.16400
H 	H 	0.38400 0.99770 0.13240 0.00100
C 	C 	0.19820 0.00305 0.43890 0.09300
H 	H 	0.18620 0.00420 0.54780 0.02000
N 	N 	0.17560 0.82630 0.82503 -0.08900
N 	N 	0.11487 0.92172 0.91364 -0.16100
N 	N 	0.28307 0.91868 0.90841 -0.07800
N 	N 	0.14870 0.76313 0.76800 -0.04100
N 	N 	0.27670 0.73125 0.77840 -0.03300
N 	N 	0.25320 0.66906 0.71674 -0.09700
N 	N 	0.16000 0.58353 0.58850 -0.09700
N 	N 	0.32524 0.57373 0.62882 -0.14700
N 	N 	0.65652 0.99953 0.63341 -0.06800
N 	N 	0.84930 0.99921 0.80962 -0.13700
N 	N 	0.91960 0.99640 0.66464 -0.07600
N 	N 	0.49950 0.00060 0.57210 -0.06000
C 	C 	0.05340 0.86668 0.86210 0.04700
H 	H 	0.94140 0.85660 0.85210 0.06600
C 	C 	0.31670 0.86089 0.85460 0.10600
H 	H 	0.42250 0.84490 0.83810 0.03800
C 	C 	0.12090 0.64076 0.64140 0.09800
H 	H 	0.01670 0.66020 0.62990 0.01800
C 	C 	0.37640 0.62535 0.70480 0.09900
H 	H 	0.48360 0.63160 0.74570 0.02500
C 	C 	0.69230 0.00071 0.78830 0.05100
H 	H 	0.61600 0.00230 0.86760 0.04600
C 	C 	0.80180 0.99695 0.56110 0.11000
H 	H 	0.81380 0.99580 0.45220 0.04700
Cu	Cu	-0.00000 0.00000 -0.00000 0.84100
N 	N 	0.67560 0.67370 0.32503 -0.10000
N 	N 	0.61487 0.57828 0.41364 -0.18600
N 	N 	0.78307 0.58132 0.40841 -0.08800
N 	N 	0.64870 0.73687 0.26800 -0.04100
N 	N 	0.77670 0.76875 0.27840 -0.03500
N 	N 	0.75320 0.83094 0.21674 -0.09700
N 	N 	0.66000 0.91647 0.08850 -0.09600
N 	N 	0.82524 0.92627 0.12882 -0.13700
N 	N 	0.15652 0.50047 0.13341 -0.10600
N 	N 	0.34930 0.50079 0.30962 -0.18600
N 	N 	0.41960 0.50360 0.16464 -0.08900
N 	N 	0.99950 0.49940 0.07210 -0.02800
C 	C 	0.55340 0.63332 0.36210 0.10700
H 	H 	0.44140 0.64340 0.35210 0.00800
C 	C 	0.81670 0.63911 0.35460 0.10200
H 	H 	0.92250 0.65510 0.33810 0.03700
C 	C 	0.62090 0.85924 0.14140 0.09700
H 	H 	0.51670 0.83980 0.12990 0.01900
C 	C 	0.87640 0.87465 0.20480 0.09600
H 	H 	0.98360 0.86840 0.24570 0.03400
C 	C 	0.19230 0.49929 0.28830 0.10100
H 	H 	0.11600 0.49770 0.36760 0.01200
C 	C 	0.30180 0.50305 0.06110 0.01800
H 	H 	0.31380 0.50420 0.95220 0.08500
N 	N 	0.32440 0.32630 0.67497 -0.09900
N 	N 	0.38513 0.42172 0.58636 -0.18600
N 	N 	0.21693 0.41868 0.59159 -0.09800
N 	N 	0.35130 0.26313 0.73200 -0.03400
N 	N 	0.22330 0.23125 0.72160 -0.04000
N 	N 	0.24680 0.16906 0.78326 -0.09700
N 	N 	0.34000 0.08353 0.91150 -0.08500
N 	N 	0.17476 0.07373 0.87118 -0.14600
N 	N 	0.84348 0.49953 0.86659 -0.09200
N 	N 	0.65070 0.49921 0.69038 -0.18400
N 	N 	0.58040 0.49640 0.83536 -0.10700
N 	N 	0.00050 0.50060 0.92790 -0.04100
C 	C 	0.44660 0.36668 0.63790 0.10800
H 	H 	0.55860 0.35660 0.64790 0.01800
C 	C 	0.18330 0.36089 0.64540 0.09900
H 	H 	0.07750 0.34490 0.66190 0.02000
C 	C 	0.37910 0.14076 0.85860 0.10300
H 	H 	0.48330 0.16020 0.87010 0.03800
C 	C 	0.12360 0.12535 0.79520 0.09900
H 	H 	0.01640 0.13160 0.75430 0.00700
C 	C 	0.80770 0.50071 0.71170 0.11200
H 	H 	0.88400 0.50230 0.63240 0.03300
C 	C 	0.69820 0.49695 0.93890 0.18100
H 	H 	0.68620 0.49580 0.04780 -0.01700
Cu	Cu	0.50000 0.50000 0.50000 0.89000
