data_crystal

_cell_length_a 28.76400
_cell_length_b 28.76400
_cell_length_c 69.36900
_cell_angle_alpha 90.00000
_cell_angle_beta  90.00000
_cell_angle_gamma 120.00000

_symmetry_space_group_name_	'P 1'
_symmetry_space_group_name_H-M	'P 1'

loop_
_symmetry_equiv_pos_as_xyz
  x,y,z

loop_
_atom_site_label
_atom_site_type_symbol
_atom_site_fract_x
_atom_site_fract_y
_atom_site_fract_z
_atom_site_charge
N 	N 	0.32380 0.57040 0.55514 -0.24500
N 	N 	0.24940 0.40260 0.51910 -0.11800
N 	N 	0.17260 0.24730 0.47978 -0.12500
N 	N 	0.08580 0.09460 0.43556 -0.25000
C 	C 	0.28780 0.52670 0.54531 0.06900
C 	C 	0.29410 0.48650 0.53657 -0.15100
H 	H 	0.32730 0.48680 0.53680 0.08300
C 	C 	0.24760 0.44490 0.52732 0.07100
C 	C 	0.20670 0.36440 0.51145 -0.01400
C 	C 	0.21420 0.31870 0.50283 0.25400
C 	C 	0.21500 0.28400 0.52009 -0.60700
H 	H 	0.24480 0.30670 0.52880 0.20500
H 	H 	0.21980 0.25480 0.51520 0.20200
H 	H 	0.18110 0.26900 0.52720 0.22000
C 	C 	0.26520 0.34200 0.49079 -0.60500
H 	H 	0.29600 0.36640 0.49870 0.20500
H 	H 	0.26210 0.36170 0.47980 0.20300
H 	H 	0.27040 0.31280 0.48610 0.19600
C 	C 	0.16670 0.28150 0.49051 -0.02300
C 	C 	0.13210 0.21200 0.46847 0.07300
C 	C 	0.13670 0.17370 0.45786 -0.15700
H 	H 	0.16930 0.17280 0.45770 0.07500
C 	C 	0.09310 0.13720 0.44755 0.06300
C 	C 	0.21040 0.11980 0.38330 -0.07200
H 	H 	0.23170 0.13280 0.39460 0.04800
C 	C 	0.23100 0.14040 0.36580 0.04700
C 	C 	0.19800 0.12520 0.34810 0.06100
C 	C 	0.14430 0.09160 0.34860 -0.08800
H 	H 	0.12180 0.08700 0.33790 0.08100
N 	N 	0.28680 0.17250 0.36520 -0.10200
N 	N 	0.22180 0.14360 0.33090 -0.10700
N 	N 	0.44390 0.26100 0.32560 -0.11400
N 	N 	0.37900 0.22650 0.29300 -0.11200
C 	C 	0.37040 0.23190 0.34820 0.12000
C 	C 	0.37670 0.28680 0.35520 -0.46200
H 	H 	0.41490 0.31380 0.35590 0.16500
H 	H 	0.36060 0.28200 0.36800 0.16300
H 	H 	0.35860 0.29850 0.34610 0.14800
C 	C 	0.39620 0.20970 0.36160 0.19200
H 	H 	0.43530 0.23160 0.36060 -0.03000
H 	H 	0.38480 0.17260 0.35790 -0.16200
H 	H 	0.38510 0.21050 0.37490 -0.02100
C 	C 	0.27960 0.18500 0.33140 0.03000
C 	C 	0.27150 0.16040 0.29510 0.30400
H 	H 	0.27530 0.12890 0.29740 -0.14300
H 	H 	0.28780 0.17660 0.28270 -0.04900
H 	H 	0.23340 0.14960 0.29500 -0.04800
C 	C 	0.29840 0.19930 0.31040 -0.01100
C 	C 	0.51280 0.27470 0.27280 0.04800
C 	C 	0.54510 0.29560 0.28890 0.00400
C 	C 	0.52280 0.29280 0.30680 -0.09100
H 	H 	0.54480 0.30690 0.31790 0.01300
C 	C 	0.46910 0.26980 0.30810 0.05600
C 	C 	0.43430 0.24850 0.29080 0.06000
C 	C 	0.36200 0.22900 0.31150 0.03800
C 	C 	0.39270 0.23920 0.32680 0.00900
C 	C 	0.45770 0.25180 0.27310 -0.10100
H 	H 	0.43680 0.23900 0.26170 0.06200
C 	C 	0.30860 0.19400 0.34880 0.01800
C 	C 	0.28940 0.24720 0.30530 -0.36200
H 	H 	0.31570 0.27940 0.31230 0.12000
H 	H 	0.25310 0.23820 0.30910 0.13200
H 	H 	0.29400 0.25390 0.29140 0.13000
N 	N 	0.99047 0.90373 0.88847 -0.23400
N 	N 	0.91607 0.73593 0.85243 -0.11500
N 	N 	0.83927 0.58063 0.81311 -0.12300
N 	N 	0.75247 0.42793 0.76889 -0.24500
C 	C 	0.95447 0.86003 0.87864 0.07500
C 	C 	0.96077 0.81983 0.86990 -0.14900
H 	H 	0.99397 0.82013 0.87013 0.09100
C 	C 	0.91427 0.77823 0.86065 0.07500
C 	C 	0.87337 0.69773 0.84478 -0.01200
C 	C 	0.88087 0.65203 0.83616 0.25900
C 	C 	0.88167 0.61733 0.85342 -0.61000
H 	H 	0.91147 0.64003 0.86213 0.20800
H 	H 	0.88647 0.58813 0.84853 0.20300
H 	H 	0.84777 0.60233 0.86053 0.22300
C 	C 	0.93187 0.67533 0.82412 -0.61500
H 	H 	0.96267 0.69973 0.83203 0.21300
H 	H 	0.92877 0.69503 0.81313 0.21100
H 	H 	0.93707 0.64613 0.81943 0.20200
C 	C 	0.83337 0.61483 0.82384 -0.02100
C 	C 	0.79877 0.54533 0.80180 0.07500
C 	C 	0.80337 0.50703 0.79119 -0.15400
H 	H 	0.83597 0.50613 0.79103 0.07700
C 	C 	0.75977 0.47053 0.78088 0.06400
C 	C 	0.87707 0.45313 0.71663 -0.06900
H 	H 	0.89837 0.46613 0.72793 0.04900
C 	C 	0.89767 0.47373 0.69913 0.04600
C 	C 	0.86467 0.45853 0.68143 0.06400
C 	C 	0.81097 0.42493 0.68193 -0.09200
H 	H 	0.78847 0.42033 0.67123 0.08600
N 	N 	0.95347 0.50583 0.69853 -0.10100
N 	N 	0.88847 0.47693 0.66423 -0.10600
N 	N 	0.11057 0.59433 0.65893 -0.11600
N 	N 	0.04567 0.55983 0.62633 -0.11400
C 	C 	0.03707 0.56523 0.68153 0.09200
C 	C 	0.04337 0.62013 0.68853 -0.44000
H 	H 	0.08157 0.64713 0.68923 0.15900
H 	H 	0.02727 0.61533 0.70133 0.15100
H 	H 	0.02527 0.63183 0.67943 0.13700
C 	C 	0.06287 0.54303 0.69493 0.19600
H 	H 	0.10197 0.56493 0.69393 -0.03100
H 	H 	0.05147 0.50593 0.69123 -0.16100
H 	H 	0.05177 0.54383 0.70823 -0.02500
C 	C 	0.94627 0.51833 0.66473 0.02500
C 	C 	0.93817 0.49373 0.62843 0.32000
H 	H 	0.94197 0.46223 0.63073 -0.15300
H 	H 	0.95447 0.50993 0.61603 -0.04700
H 	H 	0.90007 0.48293 0.62833 -0.05000
C 	C 	0.96507 0.53263 0.64373 0.01200
C 	C 	0.17947 0.60803 0.60613 0.04500
C 	C 	0.21177 0.62893 0.62223 0.00500
C 	C 	0.18947 0.62613 0.64013 -0.09200
H 	H 	0.21147 0.64023 0.65123 0.01300
C 	C 	0.13577 0.60313 0.64143 0.05800
C 	C 	0.10097 0.58183 0.62413 0.05800
C 	C 	0.02867 0.56233 0.64483 0.01300
C 	C 	0.05937 0.57253 0.66013 0.02000
C 	C 	0.12437 0.58513 0.60643 -0.09900
H 	H 	0.10347 0.57233 0.59503 0.05900
C 	C 	0.97527 0.52733 0.68213 0.04300
C 	C 	0.95607 0.58053 0.63863 -0.38900
H 	H 	0.98237 0.61273 0.64563 0.13800
H 	H 	0.91977 0.57153 0.64243 0.14400
H 	H 	0.96067 0.58723 0.62473 0.14400
N 	N 	0.65713 0.23707 0.22181 -0.24400
N 	N 	0.58273 0.06927 0.18577 -0.11600
N 	N 	0.50593 0.91397 0.14645 -0.12000
N 	N 	0.41913 0.76127 0.10223 -0.24500
C 	C 	0.62113 0.19337 0.21198 0.06900
C 	C 	0.62743 0.15317 0.20324 -0.15100
H 	H 	0.66063 0.15347 0.20347 0.08200
C 	C 	0.58093 0.11157 0.19399 0.07000
C 	C 	0.54003 0.03107 0.17812 -0.04000
C 	C 	0.54753 0.98537 0.16950 0.33300
C 	C 	0.54833 0.95067 0.18676 -0.66600
H 	H 	0.57813 0.97337 0.19547 0.23000
H 	H 	0.55313 0.92147 0.18187 0.22100
H 	H 	0.51443 0.93567 0.19387 0.24100
C 	C 	0.59853 0.00867 0.15746 -0.75700
H 	H 	0.62933 0.03307 0.16537 0.24200
H 	H 	0.59543 0.02837 0.14647 0.24100
H 	H 	0.60373 0.97947 0.15277 0.25300
C 	C 	0.50003 0.94817 0.15718 -0.03100
C 	C 	0.46543 0.87867 0.13514 0.07500
C 	C 	0.47003 0.84037 0.12453 -0.15400
H 	H 	0.50263 0.83947 0.12437 0.07700
C 	C 	0.42643 0.80387 0.11422 0.06500
C 	C 	0.54373 0.78647 0.04997 -0.06900
H 	H 	0.56503 0.79947 0.06127 0.04800
C 	C 	0.56433 0.80707 0.03247 0.04600
C 	C 	0.53133 0.79187 0.01477 0.06400
C 	C 	0.47763 0.75827 0.01527 -0.09200
H 	H 	0.45513 0.75367 0.00457 0.08600
N 	N 	0.62013 0.83917 0.03187 -0.10000
N 	N 	0.55513 0.81027 0.99757 -0.10600
N 	N 	0.77723 0.92767 0.99227 -0.11200
N 	N 	0.71233 0.89317 0.95967 -0.11100
C 	C 	0.70373 0.89857 0.01487 0.12600
C 	C 	0.71003 0.95347 0.02187 -0.48000
H 	H 	0.74823 0.98047 0.02257 0.17900
H 	H 	0.69393 0.94867 0.03467 0.17300
H 	H 	0.69193 0.96517 0.01277 0.16100
C 	C 	0.72953 0.87637 0.02827 0.19200
H 	H 	0.76863 0.89827 0.02727 -0.02800
H 	H 	0.71813 0.83927 0.02457 -0.16200
H 	H 	0.71843 0.87717 0.04157 -0.01900
C 	C 	0.61293 0.85167 0.99807 0.03100
C 	C 	0.60483 0.82707 0.96177 0.30800
H 	H 	0.60863 0.79557 0.96407 -0.14600
H 	H 	0.62113 0.84327 0.94937 -0.04800
H 	H 	0.56673 0.81627 0.96167 -0.04600
C 	C 	0.63173 0.86597 0.97707 -0.00900
C 	C 	0.84613 0.94137 0.93947 0.04700
C 	C 	0.87843 0.96227 0.95557 0.01400
C 	C 	0.85613 0.95947 0.97347 -0.09400
H 	H 	0.87813 0.97357 0.98457 0.02300
C 	C 	0.80243 0.93647 0.97477 0.06200
C 	C 	0.76763 0.91517 0.95747 0.06100
C 	C 	0.69533 0.89567 0.97817 0.04000
C 	C 	0.72603 0.90587 0.99347 0.00900
C 	C 	0.79103 0.91847 0.93977 -0.09600
H 	H 	0.77013 0.90567 0.92837 0.06300
C 	C 	0.64193 0.86067 0.01547 0.01600
C 	C 	0.62273 0.91387 0.97197 -0.37700
H 	H 	0.64903 0.94607 0.97897 0.13100
H 	H 	0.58643 0.90487 0.97577 0.14100
H 	H 	0.62733 0.92057 0.95807 0.14000
N 	N 	0.42960 0.75340 0.55514 -0.24300
N 	N 	0.59740 0.84680 0.51910 -0.11500
N 	N 	0.75270 0.92530 0.47978 -0.12000
N 	N 	0.90540 0.99120 0.43556 -0.23600
C 	C 	0.47330 0.76110 0.54531 0.07000
C 	C 	0.51350 0.80760 0.53657 -0.15000
H 	H 	0.51320 0.84050 0.53680 0.08500
C 	C 	0.55510 0.80270 0.52732 0.07300
C 	C 	0.63560 0.84230 0.51145 -0.01500
C 	C 	0.68130 0.89550 0.50283 0.26600
C 	C 	0.71600 0.93100 0.52009 -0.62500
H 	H 	0.69330 0.93810 0.52880 0.21600
H 	H 	0.74520 0.96500 0.51520 0.21700
H 	H 	0.73100 0.91210 0.52720 0.23000
C 	C 	0.65800 0.92320 0.49079 -0.62300
H 	H 	0.63360 0.92960 0.49870 0.21500
H 	H 	0.63830 0.90040 0.47980 0.21200
H 	H 	0.68720 0.95760 0.48610 0.20900
C 	C 	0.71850 0.88520 0.49051 -0.02200
C 	C 	0.78800 0.92010 0.46847 0.07800
C 	C 	0.82630 0.96300 0.45786 -0.15400
H 	H 	0.82720 0.99650 0.45770 0.08600
C 	C 	0.86280 0.95590 0.44755 0.07000
C 	C 	0.88020 0.09060 0.38330 -0.06200
H 	H 	0.86720 0.09890 0.39460 0.04300
C 	C 	0.85960 0.09060 0.36580 0.03700
C 	C 	0.87480 0.07280 0.34810 0.06800
C 	C 	0.90840 0.05270 0.34860 -0.10600
H 	H 	0.91300 0.03480 0.33790 0.08700
N 	N 	0.82750 0.11430 0.36520 -0.10100
N 	N 	0.85640 0.07820 0.33090 -0.10800
N 	N 	0.73900 0.18290 0.32560 -0.11500
N 	N 	0.77350 0.15250 0.29300 -0.11200
C 	C 	0.76810 0.13850 0.34820 0.11700
C 	C 	0.71320 0.08990 0.35520 -0.45500
H 	H 	0.68620 0.10110 0.35590 0.16200
H 	H 	0.71800 0.07860 0.36800 0.15800
H 	H 	0.70150 0.06010 0.34610 0.14300
C 	C 	0.79030 0.18650 0.36160 0.19200
H 	H 	0.76840 0.20370 0.36060 -0.03100
H 	H 	0.82740 0.21220 0.35790 -0.16300
H 	H 	0.78950 0.17460 0.37490 -0.02100
C 	C 	0.81500 0.09460 0.33140 0.03000
C 	C 	0.83960 0.11110 0.29510 0.30800
H 	H 	0.87110 0.14640 0.29740 -0.14700
H 	H 	0.82340 0.11120 0.28270 -0.05000
H 	H 	0.85040 0.08380 0.29500 -0.04700
C 	C 	0.80070 0.09910 0.31040 -0.01400
C 	C 	0.72530 0.23810 0.27280 0.03900
C 	C 	0.70440 0.24950 0.28890 0.00800
C 	C 	0.70720 0.23000 0.30680 -0.09500
H 	H 	0.69310 0.23790 0.31790 0.01400
C 	C 	0.73020 0.19930 0.30810 0.05900
C 	C 	0.75150 0.18580 0.29080 0.05700
C 	C 	0.77100 0.13300 0.31150 0.03800
C 	C 	0.76080 0.15350 0.32680 0.00900
C 	C 	0.74820 0.20590 0.27310 -0.09400
H 	H 	0.76100 0.19780 0.26170 0.05900
C 	C 	0.80600 0.11460 0.34880 0.01700
C 	C 	0.75280 0.04220 0.30530 -0.35700
H 	H 	0.72060 0.03630 0.31230 0.11700
H 	H 	0.76180 0.01490 0.30910 0.12900
H 	H 	0.74610 0.04010 0.29140 0.12700
N 	N 	0.09627 0.08673 0.88847 -0.24700
N 	N 	0.26407 0.18013 0.85243 -0.11800
N 	N 	0.41937 0.25863 0.81311 -0.12300
N 	N 	0.57207 0.32453 0.76889 -0.24600
C 	C 	0.13997 0.09443 0.87864 0.06800
C 	C 	0.18017 0.14093 0.86990 -0.15200
H 	H 	0.17987 0.17383 0.87013 0.08300
C 	C 	0.22177 0.13603 0.86065 0.07100
C 	C 	0.30227 0.17563 0.84478 -0.01300
C 	C 	0.34797 0.22883 0.83616 0.25400
C 	C 	0.38267 0.26433 0.85342 -0.60500
H 	H 	0.35997 0.27143 0.86213 0.20500
H 	H 	0.41187 0.29833 0.84853 0.20300
H 	H 	0.39767 0.24543 0.86053 0.22200
C 	C 	0.32467 0.25653 0.82412 -0.60000
H 	H 	0.30027 0.26293 0.83203 0.20300
H 	H 	0.30497 0.23373 0.81313 0.20100
H 	H 	0.35387 0.29093 0.81943 0.19600
C 	C 	0.38517 0.21853 0.82384 -0.02100
C 	C 	0.45467 0.25343 0.80180 0.07400
C 	C 	0.49297 0.29633 0.79119 -0.15400
H 	H 	0.49387 0.32983 0.79103 0.07700
C 	C 	0.52947 0.28923 0.78088 0.06400
C 	C 	0.54687 0.42393 0.71663 -0.06800
H 	H 	0.53387 0.43223 0.72793 0.04600
C 	C 	0.52627 0.42393 0.69913 0.04300
C 	C 	0.54147 0.40613 0.68143 0.06500
C 	C 	0.57507 0.38603 0.68193 -0.09500
H 	H 	0.57967 0.36813 0.67123 0.08600
N 	N 	0.49417 0.44763 0.69853 -0.10100
N 	N 	0.52307 0.41153 0.66423 -0.10700
N 	N 	0.40567 0.51623 0.65893 -0.11400
N 	N 	0.44017 0.48583 0.62633 -0.11200
C 	C 	0.43477 0.47183 0.68153 0.11900
C 	C 	0.37987 0.42323 0.68853 -0.46100
H 	H 	0.35287 0.43443 0.68923 0.16500
H 	H 	0.38467 0.41193 0.70133 0.16300
H 	H 	0.36817 0.39343 0.67943 0.14800
C 	C 	0.45697 0.51983 0.69493 0.19200
H 	H 	0.43507 0.53703 0.69393 -0.03000
H 	H 	0.49407 0.54553 0.69123 -0.16200
H 	H 	0.45617 0.50793 0.70823 -0.02100
C 	C 	0.48167 0.42793 0.66473 0.03100
C 	C 	0.50627 0.44443 0.62843 0.30700
H 	H 	0.53777 0.47973 0.63073 -0.14600
H 	H 	0.49007 0.44453 0.61603 -0.04900
H 	H 	0.51707 0.41713 0.62833 -0.04700
C 	C 	0.46737 0.43243 0.64373 -0.01100
C 	C 	0.39197 0.57143 0.60613 0.04400
C 	C 	0.37107 0.58283 0.62223 0.00500
C 	C 	0.37387 0.56333 0.64013 -0.09200
H 	H 	0.35977 0.57123 0.65123 0.01300
C 	C 	0.39687 0.53263 0.64143 0.05700
C 	C 	0.41817 0.51913 0.62413 0.05900
C 	C 	0.43767 0.46633 0.64483 0.03800
C 	C 	0.42747 0.48683 0.66013 0.00900
C 	C 	0.41487 0.53923 0.60643 -0.09800
H 	H 	0.42767 0.53113 0.59503 0.06100
C 	C 	0.47267 0.44793 0.68213 0.01700
C 	C 	0.41947 0.37553 0.63863 -0.36400
H 	H 	0.38727 0.36963 0.64563 0.12100
H 	H 	0.42847 0.34823 0.64243 0.13400
H 	H 	0.41277 0.37343 0.62473 0.13100
N 	N 	0.76293 0.42007 0.22181 -0.24300
N 	N 	0.93073 0.51347 0.18577 -0.11800
N 	N 	0.08603 0.59197 0.14645 -0.12600
N 	N 	0.23873 0.65787 0.10223 -0.24600
C 	C 	0.80663 0.42777 0.21198 0.07000
C 	C 	0.84683 0.47427 0.20324 -0.14900
H 	H 	0.84653 0.50717 0.20347 0.08600
C 	C 	0.88843 0.46937 0.19399 0.07400
C 	C 	0.96893 0.50897 0.17812 0.01600
C 	C 	0.01463 0.56217 0.16950 0.17700
C 	C 	0.04933 0.59767 0.18676 -0.54600
H 	H 	0.02663 0.60477 0.19547 0.18300
H 	H 	0.07853 0.63167 0.18187 0.18600
H 	H 	0.06433 0.57877 0.19387 0.20300
C 	C 	0.99133 0.58987 0.15746 -0.45000
H 	H 	0.96693 0.59627 0.16537 0.17000
H 	H 	0.97163 0.56707 0.14647 0.16800
H 	H 	0.02053 0.62427 0.15277 0.14100
C 	C 	0.05183 0.55187 0.15718 -0.00900
C 	C 	0.12133 0.58677 0.13514 0.07300
C 	C 	0.15963 0.62967 0.12453 -0.15400
H 	H 	0.16053 0.66317 0.12437 0.07600
C 	C 	0.19613 0.62257 0.11422 0.06300
C 	C 	0.21353 0.75727 0.04997 -0.06700
H 	H 	0.20053 0.76557 0.06127 0.04600
C 	C 	0.19293 0.75727 0.03247 0.04200
C 	C 	0.20813 0.73947 0.01477 0.06500
C 	C 	0.24173 0.71937 0.01527 -0.09700
H 	H 	0.24633 0.70147 0.00457 0.08600
N 	N 	0.16083 0.78097 0.03187 -0.10200
N 	N 	0.18973 0.74487 0.99757 -0.10700
N 	N 	0.07233 0.84957 0.99227 -0.11600
N 	N 	0.10683 0.81917 0.95967 -0.11300
C 	C 	0.10143 0.80517 0.01487 0.11300
C 	C 	0.04653 0.75657 0.02187 -0.44400
H 	H 	0.01953 0.76777 0.02257 0.15200
H 	H 	0.05133 0.74527 0.03467 0.15400
H 	H 	0.03483 0.72677 0.01277 0.13700
C 	C 	0.12363 0.85317 0.02827 0.19300
H 	H 	0.10173 0.87037 0.02727 -0.03300
H 	H 	0.16073 0.87887 0.02457 -0.16400
H 	H 	0.12283 0.84127 0.04157 -0.02200
C 	C 	0.14833 0.76127 0.99807 0.03000
C 	C 	0.17293 0.77777 0.96177 0.30700
H 	H 	0.20443 0.81307 0.96407 -0.14700
H 	H 	0.15673 0.77787 0.94937 -0.05000
H 	H 	0.18373 0.75047 0.96167 -0.04700
C 	C 	0.13403 0.76577 0.97707 -0.01400
C 	C 	0.05863 0.90477 0.93947 0.04000
C 	C 	0.03773 0.91617 0.95557 -0.00300
C 	C 	0.04053 0.89667 0.97347 -0.09000
H 	H 	0.02643 0.90457 0.98457 0.00800
C 	C 	0.06353 0.86597 0.97477 0.05100
C 	C 	0.08483 0.85247 0.95747 0.05700
C 	C 	0.10433 0.79967 0.97817 0.03600
C 	C 	0.09413 0.82017 0.99347 0.00900
C 	C 	0.08153 0.87257 0.93977 -0.10100
H 	H 	0.09433 0.86447 0.92837 0.06000
C 	C 	0.13933 0.78127 0.01547 0.01800
C 	C 	0.08613 0.70887 0.97197 -0.35300
H 	H 	0.05393 0.70297 0.97897 0.11200
H 	H 	0.09513 0.68157 0.97577 0.12800
H 	H 	0.07943 0.70677 0.95807 0.12400
N 	N 	0.24660 0.67620 0.55514 -0.24400
N 	N 	0.15320 0.75060 0.51910 -0.11900
N 	N 	0.07470 0.82740 0.47978 -0.12600
N 	N 	0.00880 0.91420 0.43556 -0.25100
C 	C 	0.23890 0.71220 0.54531 0.06900
C 	C 	0.19240 0.70590 0.53657 -0.15000
H 	H 	0.15950 0.67270 0.53680 0.08200
C 	C 	0.19730 0.75240 0.52732 0.07100
C 	C 	0.15770 0.79330 0.51145 -0.00700
C 	C 	0.10450 0.78580 0.50283 0.24300
C 	C 	0.06900 0.78500 0.52009 -0.58700
H 	H 	0.06190 0.75520 0.52880 0.19600
H 	H 	0.03500 0.78020 0.51520 0.19100
H 	H 	0.08790 0.81890 0.52720 0.21400
C 	C 	0.07680 0.73480 0.49079 -0.58400
H 	H 	0.07040 0.70400 0.49870 0.19600
H 	H 	0.09960 0.73790 0.47980 0.19700
H 	H 	0.04240 0.72960 0.48610 0.18500
C 	C 	0.11480 0.83330 0.49051 -0.01600
C 	C 	0.07990 0.86790 0.46847 0.07100
C 	C 	0.03700 0.86330 0.45786 -0.15200
H 	H 	0.00350 0.83070 0.45770 0.06800
C 	C 	0.04410 0.90690 0.44755 0.05900
C 	C 	0.90940 0.78960 0.38330 -0.07100
H 	H 	0.90110 0.76830 0.39460 0.05000
C 	C 	0.90940 0.76900 0.36580 0.04900
C 	C 	0.92720 0.80200 0.34810 0.06400
C 	C 	0.94730 0.85570 0.34860 -0.08700
H 	H 	0.96520 0.87820 0.33790 0.09100
N 	N 	0.88570 0.71320 0.36520 -0.10100
N 	N 	0.92180 0.77820 0.33090 -0.10400
N 	N 	0.81710 0.55610 0.32560 -0.11400
N 	N 	0.84750 0.62100 0.29300 -0.11100
C 	C 	0.86150 0.62960 0.34820 0.12200
C 	C 	0.91010 0.62330 0.35520 -0.47000
H 	H 	0.89890 0.58510 0.35590 0.16900
H 	H 	0.92140 0.63940 0.36800 0.16900
H 	H 	0.93990 0.64140 0.34610 0.15500
C 	C 	0.81350 0.60380 0.36160 0.19200
H 	H 	0.79630 0.56470 0.36060 -0.03000
H 	H 	0.78780 0.61520 0.35790 -0.16200
H 	H 	0.82540 0.61490 0.37490 -0.02000
C 	C 	0.90540 0.72040 0.33140 0.03200
C 	C 	0.88890 0.72850 0.29510 0.31000
H 	H 	0.85360 0.72470 0.29740 -0.14700
H 	H 	0.88880 0.71220 0.28270 -0.04700
H 	H 	0.91620 0.76660 0.29500 -0.04400
C 	C 	0.90090 0.70160 0.31040 -0.00800
C 	C 	0.76190 0.48720 0.27280 0.04700
C 	C 	0.75050 0.45490 0.28890 0.00400
C 	C 	0.77000 0.47720 0.30680 -0.09100
H 	H 	0.76210 0.45520 0.31790 0.01200
C 	C 	0.80070 0.53090 0.30810 0.05600
C 	C 	0.81420 0.56570 0.29080 0.06100
C 	C 	0.86700 0.63800 0.31150 0.03800
C 	C 	0.84650 0.60730 0.32680 0.00800
C 	C 	0.79410 0.54230 0.27310 -0.10100
H 	H 	0.80220 0.56320 0.26170 0.06300
C 	C 	0.88540 0.69140 0.34880 0.01800
C 	C 	0.95780 0.71060 0.30530 -0.37600
H 	H 	0.96370 0.68430 0.31230 0.12800
H 	H 	0.98510 0.74690 0.30910 0.14400
H 	H 	0.95990 0.70600 0.29140 0.13900
N 	N 	0.91327 0.00953 0.88847 -0.24900
N 	N 	0.81987 0.08393 0.85243 -0.11800
N 	N 	0.74137 0.16073 0.81311 -0.12300
N 	N 	0.67547 0.24753 0.76889 -0.24600
C 	C 	0.90557 0.04553 0.87864 0.06600
C 	C 	0.85907 0.03923 0.86990 -0.14900
H 	H 	0.82617 0.00603 0.87013 0.07800
C 	C 	0.86397 0.08573 0.86065 0.07000
C 	C 	0.82437 0.12663 0.84478 -0.01100
C 	C 	0.77117 0.11913 0.83616 0.25200
C 	C 	0.73567 0.11833 0.85342 -0.60400
H 	H 	0.72857 0.08853 0.86213 0.20400
H 	H 	0.70167 0.11353 0.84853 0.20400
H 	H 	0.75457 0.15223 0.86053 0.22100
C 	C 	0.74347 0.06813 0.82412 -0.59700
H 	H 	0.73707 0.03733 0.83203 0.20100
H 	H 	0.76627 0.07123 0.81313 0.20000
H 	H 	0.70907 0.06293 0.81943 0.19400
C 	C 	0.78147 0.16663 0.82384 -0.01900
C 	C 	0.74657 0.20123 0.80180 0.07400
C 	C 	0.70367 0.19663 0.79119 -0.15400
H 	H 	0.67017 0.16403 0.79103 0.07700
C 	C 	0.71077 0.24023 0.78088 0.06400
C 	C 	0.57607 0.12293 0.71663 -0.06800
H 	H 	0.56777 0.10163 0.72793 0.04500
C 	C 	0.57607 0.10233 0.69913 0.04300
C 	C 	0.59387 0.13533 0.68143 0.06400
C 	C 	0.61397 0.18903 0.68193 -0.09300
H 	H 	0.63187 0.21153 0.67123 0.08500
N 	N 	0.55237 0.04653 0.69853 -0.10100
N 	N 	0.58847 0.11153 0.66423 -0.10700
N 	N 	0.48377 0.88943 0.65893 -0.11200
N 	N 	0.51417 0.95433 0.62633 -0.11000
C 	C 	0.52817 0.96293 0.68153 0.14700
C 	C 	0.57677 0.95663 0.68853 -0.48600
H 	H 	0.56557 0.91843 0.68923 0.17300
H 	H 	0.58807 0.97273 0.70133 0.17600
H 	H 	0.60657 0.97473 0.67943 0.16100
C 	C 	0.48017 0.93713 0.69493 0.18800
H 	H 	0.46297 0.89803 0.69393 -0.02900
H 	H 	0.45447 0.94853 0.69123 -0.16300
H 	H 	0.49207 0.94823 0.70823 -0.01600
C 	C 	0.57207 0.05373 0.66473 0.03700
C 	C 	0.55557 0.06183 0.62843 0.29400
H 	H 	0.52027 0.05803 0.63073 -0.13800
H 	H 	0.55547 0.04553 0.61603 -0.05000
H 	H 	0.58287 0.09993 0.62833 -0.04300
C 	C 	0.56757 0.03493 0.64373 -0.03300
C 	C 	0.42857 0.82053 0.60613 0.04500
C 	C 	0.41717 0.78823 0.62223 0.00500
C 	C 	0.43667 0.81053 0.64013 -0.09200
H 	H 	0.42877 0.78853 0.65123 0.01300
C 	C 	0.46737 0.86423 0.64143 0.05600
C 	C 	0.48087 0.89903 0.62413 0.06100
C 	C 	0.53367 0.97133 0.64483 0.06400
C 	C 	0.51317 0.94063 0.66013 -0.00200
C 	C 	0.46077 0.87563 0.60643 -0.09900
H 	H 	0.46887 0.89653 0.59503 0.06300
C 	C 	0.55207 0.02473 0.68213 -0.00800
C 	C 	0.62447 0.04393 0.63863 -0.34300
H 	H 	0.63037 0.01763 0.64563 0.10500
H 	H 	0.65177 0.08023 0.64243 0.12700
H 	H 	0.62657 0.03933 0.62473 0.12000
N 	N 	0.57993 0.34287 0.22181 -0.24400
N 	N 	0.48653 0.41727 0.18577 -0.11700
N 	N 	0.40803 0.49407 0.14645 -0.12300
N 	N 	0.34213 0.58087 0.10223 -0.24600
C 	C 	0.57223 0.37887 0.21198 0.06900
C 	C 	0.52573 0.37257 0.20324 -0.15000
H 	H 	0.49283 0.33937 0.20347 0.08300
C 	C 	0.53063 0.41907 0.19399 0.07200
C 	C 	0.49103 0.45997 0.17812 -0.01200
C 	C 	0.43783 0.45247 0.16950 0.25400
C 	C 	0.40233 0.45167 0.18676 -0.60500
H 	H 	0.39523 0.42187 0.19547 0.20500
H 	H 	0.36833 0.44687 0.18187 0.20300
H 	H 	0.42123 0.48557 0.19387 0.22200
C 	C 	0.41013 0.40147 0.15746 -0.60200
H 	H 	0.40373 0.37067 0.16537 0.20500
H 	H 	0.43293 0.40457 0.14647 0.20400
H 	H 	0.37573 0.39627 0.15277 0.19700
C 	C 	0.44813 0.49997 0.15718 -0.02000
C 	C 	0.41323 0.53457 0.13514 0.07400
C 	C 	0.37033 0.52997 0.12453 -0.15400
H 	H 	0.33683 0.49737 0.12437 0.07700
C 	C 	0.37743 0.57357 0.11422 0.06400
C 	C 	0.24273 0.45627 0.04997 -0.06900
H 	H 	0.23443 0.43497 0.06127 0.04700
C 	C 	0.24273 0.43567 0.03247 0.04500
C 	C 	0.26053 0.46867 0.01477 0.06400
C 	C 	0.28063 0.52237 0.01527 -0.09200
H 	H 	0.29853 0.54487 0.00457 0.08500
N 	N 	0.21903 0.37987 0.03187 -0.10100
N 	N 	0.25513 0.44487 0.99757 -0.10600
N 	N 	0.15043 0.22277 0.99227 -0.11500
N 	N 	0.18083 0.28767 0.95967 -0.11200
C 	C 	0.19483 0.29627 0.01487 0.11900
C 	C 	0.24343 0.28997 0.02187 -0.46200
H 	H 	0.23223 0.25177 0.02257 0.16500
H 	H 	0.25473 0.30607 0.03467 0.16300
H 	H 	0.27323 0.30807 0.01277 0.14900
C 	C 	0.14683 0.27047 0.02827 0.19200
H 	H 	0.12963 0.23137 0.02727 -0.03100
H 	H 	0.12113 0.28187 0.02457 -0.16000
H 	H 	0.15873 0.28157 0.04157 -0.02100
C 	C 	0.23873 0.38707 0.99807 0.03100
C 	C 	0.22223 0.39517 0.96177 0.30600
H 	H 	0.18693 0.39137 0.96407 -0.14400
H 	H 	0.22213 0.37887 0.94937 -0.04900
H 	H 	0.24953 0.43327 0.96167 -0.04700
C 	C 	0.23423 0.36827 0.97707 -0.01100
C 	C 	0.09523 0.15387 0.93947 0.04800
C 	C 	0.08383 0.12157 0.95557 0.00500
C 	C 	0.10333 0.14387 0.97347 -0.09300
H 	H 	0.09543 0.12187 0.98457 0.01000
C 	C 	0.13403 0.19757 0.97477 0.05700
C 	C 	0.14753 0.23237 0.95747 0.06000
C 	C 	0.20033 0.30467 0.97817 0.03800
C 	C 	0.17983 0.27397 0.99347 0.00900
C 	C 	0.12743 0.20897 0.93977 -0.10000
H 	H 	0.13553 0.22987 0.92837 0.06100
C 	C 	0.21873 0.35807 0.01547 0.01800
C 	C 	0.29113 0.37727 0.97197 -0.36500
H 	H 	0.29703 0.35097 0.97897 0.12100
H 	H 	0.31843 0.41357 0.97577 0.13500
H 	H 	0.29323 0.37267 0.95807 0.13200
N 	N 	0.42960 0.67620 0.55514 -0.24400
N 	N 	0.59740 0.75060 0.51910 -0.11700
N 	N 	0.75270 0.82740 0.47978 -0.12300
N 	N 	0.90540 0.91420 0.43556 -0.24200
C 	C 	0.47330 0.71220 0.54531 0.07000
C 	C 	0.51350 0.70590 0.53657 -0.15000
H 	H 	0.51320 0.67270 0.53680 0.08400
C 	C 	0.55510 0.75240 0.52732 0.07200
C 	C 	0.63560 0.79330 0.51145 -0.01100
C 	C 	0.68130 0.78580 0.50283 0.25400
C 	C 	0.71600 0.78500 0.52009 -0.60600
H 	H 	0.69330 0.75520 0.52880 0.20600
H 	H 	0.74520 0.78020 0.51520 0.20400
H 	H 	0.73100 0.81890 0.52720 0.22300
C 	C 	0.65800 0.73480 0.49079 -0.60400
H 	H 	0.63360 0.70400 0.49870 0.20600
H 	H 	0.63830 0.73790 0.47980 0.20500
H 	H 	0.68720 0.72960 0.48610 0.19700
C 	C 	0.71850 0.83330 0.49051 -0.01800
C 	C 	0.78800 0.86790 0.46847 0.07500
C 	C 	0.82630 0.86330 0.45786 -0.15200
H 	H 	0.82720 0.83070 0.45770 0.07700
C 	C 	0.86280 0.90690 0.44755 0.06500
C 	C 	0.88020 0.78960 0.38330 -0.06500
H 	H 	0.86720 0.76830 0.39460 0.04600
C 	C 	0.85960 0.76900 0.36580 0.04200
C 	C 	0.87480 0.80200 0.34810 0.06800
C 	C 	0.90840 0.85570 0.34860 -0.09900
H 	H 	0.91300 0.87820 0.33790 0.09100
N 	N 	0.82750 0.71320 0.36520 -0.10100
N 	N 	0.85640 0.77820 0.33090 -0.10600
N 	N 	0.73900 0.55610 0.32560 -0.11400
N 	N 	0.77350 0.62100 0.29300 -0.11100
C 	C 	0.76810 0.62960 0.34820 0.12000
C 	C 	0.71320 0.62330 0.35520 -0.46300
H 	H 	0.68620 0.58510 0.35590 0.16600
H 	H 	0.71800 0.63940 0.36800 0.16400
H 	H 	0.70150 0.64140 0.34610 0.14900
C 	C 	0.79030 0.60380 0.36160 0.19200
H 	H 	0.76840 0.56470 0.36060 -0.03000
H 	H 	0.82740 0.61520 0.35790 -0.16300
H 	H 	0.78950 0.61490 0.37490 -0.02000
C 	C 	0.81500 0.72040 0.33140 0.03100
C 	C 	0.83960 0.72850 0.29510 0.31000
H 	H 	0.87110 0.72470 0.29740 -0.14800
H 	H 	0.82340 0.71220 0.28270 -0.04800
H 	H 	0.85040 0.76660 0.29500 -0.04500
C 	C 	0.80070 0.70160 0.31040 -0.01100
C 	C 	0.72530 0.48720 0.27280 0.04300
C 	C 	0.70440 0.45490 0.28890 0.00600
C 	C 	0.70720 0.47720 0.30680 -0.09300
H 	H 	0.69310 0.45520 0.31790 0.01300
C 	C 	0.73020 0.53090 0.30810 0.05700
C 	C 	0.75150 0.56570 0.29080 0.05900
C 	C 	0.77100 0.63800 0.31150 0.03800
C 	C 	0.76080 0.60730 0.32680 0.00900
C 	C 	0.74820 0.54230 0.27310 -0.09700
H 	H 	0.76100 0.56320 0.26170 0.06100
C 	C 	0.80600 0.69140 0.34880 0.01700
C 	C 	0.75280 0.71060 0.30530 -0.36800
H 	H 	0.72060 0.68430 0.31230 0.12300
H 	H 	0.76180 0.74690 0.30910 0.13800
H 	H 	0.74610 0.70600 0.29140 0.13400
N 	N 	0.09627 0.00953 0.88847 -0.25300
N 	N 	0.26407 0.08393 0.85243 -0.11900
N 	N 	0.41937 0.16073 0.81311 -0.12300
N 	N 	0.57207 0.24753 0.76889 -0.24600
C 	C 	0.13997 0.04553 0.87864 0.06400
C 	C 	0.18017 0.03923 0.86990 -0.15200
H 	H 	0.17987 0.00603 0.87013 0.07600
C 	C 	0.22177 0.08573 0.86065 0.06900
C 	C 	0.30227 0.12663 0.84478 -0.01200
C 	C 	0.34797 0.11913 0.83616 0.25100
C 	C 	0.38267 0.11833 0.85342 -0.60200
H 	H 	0.35997 0.08853 0.86213 0.20400
H 	H 	0.41187 0.11353 0.84853 0.20400
H 	H 	0.39767 0.15223 0.86053 0.22100
C 	C 	0.32467 0.06813 0.82412 -0.59300
H 	H 	0.30027 0.03733 0.83203 0.19800
H 	H 	0.30497 0.07123 0.81313 0.19700
H 	H 	0.35387 0.06293 0.81943 0.19200
C 	C 	0.38517 0.16663 0.82384 -0.01900
C 	C 	0.45467 0.20123 0.80180 0.07400
C 	C 	0.49297 0.19663 0.79119 -0.15400
H 	H 	0.49387 0.16403 0.79103 0.07700
C 	C 	0.52947 0.24023 0.78088 0.06400
C 	C 	0.54687 0.12293 0.71663 -0.06800
H 	H 	0.53387 0.10163 0.72793 0.04400
C 	C 	0.52627 0.10233 0.69913 0.04200
C 	C 	0.54147 0.13533 0.68143 0.06500
C 	C 	0.57507 0.18903 0.68193 -0.09500
H 	H 	0.57967 0.21153 0.67123 0.08600
N 	N 	0.49417 0.04653 0.69853 -0.10100
N 	N 	0.52307 0.11153 0.66423 -0.10700
N 	N 	0.40567 0.88943 0.65893 -0.11200
N 	N 	0.44017 0.95433 0.62633 -0.11000
C 	C 	0.43477 0.96293 0.68153 0.14800
C 	C 	0.37987 0.95663 0.68853 -0.48500
H 	H 	0.35287 0.91843 0.68923 0.17200
H 	H 	0.38467 0.97273 0.70133 0.17600
H 	H 	0.36817 0.97473 0.67943 0.16100
C 	C 	0.45697 0.93713 0.69493 0.18800
H 	H 	0.43507 0.89803 0.69393 -0.02900
H 	H 	0.49407 0.94853 0.69123 -0.16300
H 	H 	0.45617 0.94823 0.70823 -0.01600
C 	C 	0.48167 0.05373 0.66473 0.03700
C 	C 	0.50627 0.06183 0.62843 0.29400
H 	H 	0.53777 0.05803 0.63073 -0.13900
H 	H 	0.49007 0.04553 0.61603 -0.05000
H 	H 	0.51707 0.09993 0.62833 -0.04300
C 	C 	0.46737 0.03493 0.64373 -0.03400
C 	C 	0.39197 0.82053 0.60613 0.04600
C 	C 	0.37107 0.78823 0.62223 0.00500
C 	C 	0.37387 0.81053 0.64013 -0.09100
H 	H 	0.35977 0.78853 0.65123 0.01300
C 	C 	0.39687 0.86423 0.64143 0.05600
C 	C 	0.41817 0.89903 0.62413 0.06100
C 	C 	0.43767 0.97133 0.64483 0.06400
C 	C 	0.42747 0.94063 0.66013 -0.00300
C 	C 	0.41487 0.87563 0.60643 -0.09900
H 	H 	0.42767 0.89653 0.59503 0.06400
C 	C 	0.47267 0.02473 0.68213 -0.00900
C 	C 	0.41947 0.04393 0.63863 -0.34000
H 	H 	0.38727 0.01763 0.64563 0.10400
H 	H 	0.42847 0.08023 0.64243 0.12500
H 	H 	0.41277 0.03933 0.62473 0.11900
N 	N 	0.76293 0.34287 0.22181 -0.24300
N 	N 	0.93073 0.41727 0.18577 -0.11800
N 	N 	0.08603 0.49407 0.14645 -0.12600
N 	N 	0.23873 0.58087 0.10223 -0.24600
C 	C 	0.80663 0.37887 0.21198 0.07000
C 	C 	0.84683 0.37257 0.20324 -0.14900
H 	H 	0.84653 0.33937 0.20347 0.08600
C 	C 	0.88843 0.41907 0.19399 0.07400
C 	C 	0.96893 0.45997 0.17812 0.01800
C 	C 	0.01463 0.45247 0.16950 0.17400
C 	C 	0.04933 0.45167 0.18676 -0.54400
H 	H 	0.02663 0.42187 0.19547 0.18200
H 	H 	0.07853 0.44687 0.18187 0.18500
H 	H 	0.06433 0.48557 0.19387 0.20200
C 	C 	0.99133 0.40147 0.15746 -0.44500
H 	H 	0.96693 0.37067 0.16537 0.16800
H 	H 	0.97163 0.40457 0.14647 0.16700
H 	H 	0.02053 0.39627 0.15277 0.13900
C 	C 	0.05183 0.49997 0.15718 -0.00800
C 	C 	0.12133 0.53457 0.13514 0.07300
C 	C 	0.15963 0.52997 0.12453 -0.15400
H 	H 	0.16053 0.49737 0.12437 0.07600
C 	C 	0.19613 0.57357 0.11422 0.06300
C 	C 	0.21353 0.45627 0.04997 -0.06800
H 	H 	0.20053 0.43497 0.06127 0.04600
C 	C 	0.19293 0.43567 0.03247 0.04300
C 	C 	0.20813 0.46867 0.01477 0.06400
C 	C 	0.24173 0.52237 0.01527 -0.09500
H 	H 	0.24633 0.54487 0.00457 0.08600
N 	N 	0.16083 0.37987 0.03187 -0.10200
N 	N 	0.18973 0.44487 0.99757 -0.10700
N 	N 	0.07233 0.22277 0.99227 -0.11700
N 	N 	0.10683 0.28767 0.95967 -0.11300
C 	C 	0.10143 0.29627 0.01487 0.11200
C 	C 	0.04653 0.28997 0.02187 -0.44300
H 	H 	0.01953 0.25177 0.02257 0.15100
H 	H 	0.05133 0.30607 0.03467 0.15300
H 	H 	0.03483 0.30807 0.01277 0.13600
C 	C 	0.12363 0.27047 0.02827 0.19200
H 	H 	0.10173 0.23137 0.02727 -0.03300
H 	H 	0.16073 0.28187 0.02457 -0.16200
H 	H 	0.12283 0.28157 0.04157 -0.02200
C 	C 	0.14833 0.38707 0.99807 0.03000
C 	C 	0.17293 0.39517 0.96177 0.30600
H 	H 	0.20443 0.39137 0.96407 -0.14600
H 	H 	0.15673 0.37887 0.94937 -0.05000
H 	H 	0.18373 0.43327 0.96167 -0.04700
C 	C 	0.13403 0.36827 0.97707 -0.01400
C 	C 	0.05863 0.15387 0.93947 0.04100
C 	C 	0.03773 0.12157 0.95557 -0.00200
C 	C 	0.04053 0.14387 0.97347 -0.09100
H 	H 	0.02643 0.12187 0.98457 0.00400
C 	C 	0.06353 0.19757 0.97477 0.05200
C 	C 	0.08483 0.23237 0.95747 0.05700
C 	C 	0.10433 0.30467 0.97817 0.03600
C 	C 	0.09413 0.27397 0.99347 0.00900
C 	C 	0.08153 0.20897 0.93977 -0.10000
H 	H 	0.09433 0.22987 0.92837 0.05900
C 	C 	0.13933 0.35807 0.01547 0.01900
C 	C 	0.08613 0.37727 0.97197 -0.35300
H 	H 	0.05393 0.35097 0.97897 0.11200
H 	H 	0.09513 0.41357 0.97577 0.12800
H 	H 	0.07943 0.37267 0.95807 0.12400
N 	N 	0.24660 0.57040 0.55514 -0.24400
N 	N 	0.15320 0.40260 0.51910 -0.11800
N 	N 	0.07470 0.24730 0.47978 -0.12700
N 	N 	0.00880 0.09460 0.43556 -0.25500
C 	C 	0.23890 0.52670 0.54531 0.06900
C 	C 	0.19240 0.48650 0.53657 -0.15000
H 	H 	0.15950 0.48680 0.53680 0.08200
C 	C 	0.19730 0.44490 0.52732 0.07100
C 	C 	0.15770 0.36440 0.51145 -0.00900
C 	C 	0.10450 0.31870 0.50283 0.24300
C 	C 	0.06900 0.28400 0.52009 -0.58600
H 	H 	0.06190 0.30670 0.52880 0.19500
H 	H 	0.03500 0.25480 0.51520 0.18900
H 	H 	0.08790 0.26900 0.52720 0.21300
C 	C 	0.07680 0.34200 0.49079 -0.58300
H 	H 	0.07040 0.36640 0.49870 0.19600
H 	H 	0.09960 0.36170 0.47980 0.19600
H 	H 	0.04240 0.31280 0.48610 0.18400
C 	C 	0.11480 0.28150 0.49051 -0.01800
C 	C 	0.07990 0.21200 0.46847 0.07000
C 	C 	0.03700 0.17370 0.45786 -0.15400
H 	H 	0.00350 0.17280 0.45770 0.06700
C 	C 	0.04410 0.13720 0.44755 0.05800
C 	C 	0.90940 0.11980 0.38330 -0.07500
H 	H 	0.90110 0.13280 0.39460 0.05100
C 	C 	0.90940 0.14040 0.36580 0.05200
C 	C 	0.92720 0.12520 0.34810 0.06100
C 	C 	0.94730 0.09160 0.34860 -0.08100
H 	H 	0.96520 0.08700 0.33790 0.08700
N 	N 	0.88570 0.17250 0.36520 -0.10100
N 	N 	0.92180 0.14360 0.33090 -0.10500
N 	N 	0.81710 0.26100 0.32560 -0.11400
N 	N 	0.84750 0.22650 0.29300 -0.11200
C 	C 	0.86150 0.23190 0.34820 0.12200
C 	C 	0.91010 0.28680 0.35520 -0.47000
H 	H 	0.89890 0.31380 0.35590 0.16900
H 	H 	0.92140 0.28200 0.36800 0.16900
H 	H 	0.93990 0.29850 0.34610 0.15500
C 	C 	0.81350 0.20970 0.36160 0.19200
H 	H 	0.79630 0.23160 0.36060 -0.03000
H 	H 	0.78780 0.17260 0.35790 -0.16200
H 	H 	0.82540 0.21050 0.37490 -0.02000
C 	C 	0.90540 0.18500 0.33140 0.03100
C 	C 	0.88890 0.16040 0.29510 0.30700
H 	H 	0.85360 0.12890 0.29740 -0.14500
H 	H 	0.88880 0.17660 0.28270 -0.04800
H 	H 	0.91620 0.14960 0.29500 -0.04500
C 	C 	0.90090 0.19930 0.31040 -0.00800
C 	C 	0.76190 0.27470 0.27280 0.05000
C 	C 	0.75050 0.29560 0.28890 0.00200
C 	C 	0.77000 0.29280 0.30680 -0.09000
H 	H 	0.76210 0.30690 0.31790 0.01200
C 	C 	0.80070 0.26980 0.30810 0.05500
C 	C 	0.81420 0.24850 0.29080 0.06200
C 	C 	0.86700 0.22900 0.31150 0.03800
C 	C 	0.84650 0.23920 0.32680 0.00800
C 	C 	0.79410 0.25180 0.27310 -0.10300
H 	H 	0.80220 0.23900 0.26170 0.06400
C 	C 	0.88540 0.19400 0.34880 0.01800
C 	C 	0.95780 0.24720 0.30530 -0.37400
H 	H 	0.96370 0.27940 0.31230 0.12700
H 	H 	0.98510 0.23820 0.30910 0.14200
H 	H 	0.95990 0.25390 0.29140 0.13800
N 	N 	0.91327 0.90373 0.88847 -0.24000
N 	N 	0.81987 0.73593 0.85243 -0.11600
N 	N 	0.74137 0.58063 0.81311 -0.12300
N 	N 	0.67547 0.42793 0.76889 -0.24600
C 	C 	0.90557 0.86003 0.87864 0.07100
C 	C 	0.85907 0.81983 0.86990 -0.14800
H 	H 	0.82617 0.82013 0.87013 0.08500
C 	C 	0.86397 0.77823 0.86065 0.07300
C 	C 	0.82437 0.69773 0.84478 -0.01100
C 	C 	0.77117 0.65203 0.83616 0.25600
C 	C 	0.73567 0.61733 0.85342 -0.60700
H 	H 	0.72857 0.64003 0.86213 0.20700
H 	H 	0.70167 0.58813 0.84853 0.20400
H 	H 	0.75457 0.60233 0.86053 0.22200
C 	C 	0.74347 0.67533 0.82412 -0.60700
H 	H 	0.73707 0.69973 0.83203 0.20800
H 	H 	0.76627 0.69503 0.81313 0.20700
H 	H 	0.70907 0.64613 0.81943 0.19900
C 	C 	0.78147 0.61483 0.82384 -0.02000
C 	C 	0.74657 0.54533 0.80180 0.07500
C 	C 	0.70367 0.50703 0.79119 -0.15400
H 	H 	0.67017 0.50613 0.79103 0.07700
C 	C 	0.71077 0.47053 0.78088 0.06400
C 	C 	0.57607 0.45313 0.71663 -0.06900
H 	H 	0.56777 0.46613 0.72793 0.04700
C 	C 	0.57607 0.47373 0.69913 0.04500
C 	C 	0.59387 0.45853 0.68143 0.06400
C 	C 	0.61397 0.42493 0.68193 -0.09200
H 	H 	0.63187 0.42033 0.67123 0.08500
N 	N 	0.55237 0.50583 0.69853 -0.10100
N 	N 	0.58847 0.47693 0.66423 -0.10600
N 	N 	0.48377 0.59433 0.65893 -0.11400
N 	N 	0.51417 0.55983 0.62633 -0.11200
C 	C 	0.52817 0.56523 0.68153 0.12000
C 	C 	0.57677 0.62013 0.68853 -0.46300
H 	H 	0.56557 0.64713 0.68923 0.16600
H 	H 	0.58807 0.61533 0.70133 0.16400
H 	H 	0.60657 0.63183 0.67943 0.14900
C 	C 	0.48017 0.54303 0.69493 0.19200
H 	H 	0.46297 0.56493 0.69393 -0.03000
H 	H 	0.45447 0.50593 0.69123 -0.16200
H 	H 	0.49207 0.54383 0.70823 -0.02100
C 	C 	0.57207 0.51833 0.66473 0.03100
C 	C 	0.55557 0.49373 0.62843 0.30700
H 	H 	0.52027 0.46223 0.63073 -0.14600
H 	H 	0.55547 0.50993 0.61603 -0.04900
H 	H 	0.58287 0.48293 0.62833 -0.04600
C 	C 	0.56757 0.53263 0.64373 -0.01100
C 	C 	0.42857 0.60803 0.60613 0.04500
C 	C 	0.41717 0.62893 0.62223 0.00500
C 	C 	0.43667 0.62613 0.64013 -0.09200
H 	H 	0.42877 0.64023 0.65123 0.01300
C 	C 	0.46737 0.60313 0.64143 0.05700
C 	C 	0.48087 0.58183 0.62413 0.06000
C 	C 	0.53367 0.56233 0.64483 0.03800
C 	C 	0.51317 0.57253 0.66013 0.00900
C 	C 	0.46077 0.58513 0.60643 -0.09900
H 	H 	0.46887 0.57233 0.59503 0.06100
C 	C 	0.55207 0.52733 0.68213 0.01800
C 	C 	0.62447 0.58053 0.63863 -0.36600
H 	H 	0.63037 0.61273 0.64563 0.12200
H 	H 	0.65177 0.57153 0.64243 0.13600
H 	H 	0.62657 0.58723 0.62473 0.13300
N 	N 	0.57993 0.23707 0.22181 -0.24400
N 	N 	0.48653 0.06927 0.18577 -0.11600
N 	N 	0.40803 0.91397 0.14645 -0.12000
N 	N 	0.34213 0.76127 0.10223 -0.24500
C 	C 	0.57223 0.19337 0.21198 0.06900
C 	C 	0.52573 0.15317 0.20324 -0.15100
H 	H 	0.49283 0.15347 0.20347 0.08100
C 	C 	0.53063 0.11157 0.19399 0.07000
C 	C 	0.49103 0.03107 0.17812 -0.04100
C 	C 	0.43783 0.98537 0.16950 0.33400
C 	C 	0.40233 0.95067 0.18676 -0.66700
H 	H 	0.39523 0.97337 0.19547 0.23000
H 	H 	0.36833 0.92147 0.18187 0.22200
H 	H 	0.42123 0.93567 0.19387 0.24100
C 	C 	0.41013 0.00867 0.15746 -0.76000
H 	H 	0.40373 0.03307 0.16537 0.24200
H 	H 	0.43293 0.02837 0.14647 0.24100
H 	H 	0.37573 0.97947 0.15277 0.25400
C 	C 	0.44813 0.94817 0.15718 -0.03200
C 	C 	0.41323 0.87867 0.13514 0.07500
C 	C 	0.37033 0.84037 0.12453 -0.15400
H 	H 	0.33683 0.83947 0.12437 0.07700
C 	C 	0.37743 0.80387 0.11422 0.06500
C 	C 	0.24273 0.78647 0.04997 -0.07000
H 	H 	0.23443 0.79947 0.06127 0.04800
C 	C 	0.24273 0.80707 0.03247 0.04700
C 	C 	0.26053 0.79187 0.01477 0.06400
C 	C 	0.28063 0.75827 0.01527 -0.09000
H 	H 	0.29853 0.75367 0.00457 0.08500
N 	N 	0.21903 0.83917 0.03187 -0.10100
N 	N 	0.25513 0.81027 0.99757 -0.10600
N 	N 	0.15043 0.92767 0.99227 -0.11200
N 	N 	0.18083 0.89317 0.95967 -0.11100
C 	C 	0.19483 0.89857 0.01487 0.12700
C 	C 	0.24343 0.95347 0.02187 -0.48100
H 	H 	0.23223 0.98047 0.02257 0.18000
H 	H 	0.25473 0.94867 0.03467 0.17300
H 	H 	0.27323 0.96517 0.01277 0.16100
C 	C 	0.14683 0.87637 0.02827 0.19100
H 	H 	0.12963 0.89827 0.02727 -0.02800
H 	H 	0.12113 0.83927 0.02457 -0.16000
H 	H 	0.15873 0.87717 0.04157 -0.01900
C 	C 	0.23873 0.85167 0.99807 0.03100
C 	C 	0.22223 0.82707 0.96177 0.30700
H 	H 	0.18693 0.79557 0.96407 -0.14400
H 	H 	0.22213 0.84327 0.94937 -0.04800
H 	H 	0.24953 0.81627 0.96167 -0.04600
C 	C 	0.23423 0.86597 0.97707 -0.00800
C 	C 	0.09523 0.94137 0.93947 0.05000
C 	C 	0.08383 0.96227 0.95557 0.01400
C 	C 	0.10333 0.95947 0.97347 -0.09500
H 	H 	0.09543 0.97357 0.98457 0.02000
C 	C 	0.13403 0.93647 0.97477 0.06300
C 	C 	0.14753 0.91517 0.95747 0.06100
C 	C 	0.20033 0.89567 0.97817 0.04000
C 	C 	0.17983 0.90587 0.99347 0.00900
C 	C 	0.12743 0.91847 0.93977 -0.09600
H 	H 	0.13553 0.90567 0.92837 0.06300
C 	C 	0.21873 0.86067 0.01547 0.01700
C 	C 	0.29113 0.91387 0.97197 -0.37700
H 	H 	0.29703 0.94607 0.97897 0.13100
H 	H 	0.31843 0.90487 0.97577 0.14200
H 	H 	0.29323 0.92057 0.95807 0.14000
N 	N 	0.32380 0.75340 0.55514 -0.24400
N 	N 	0.24940 0.84680 0.51910 -0.11500
N 	N 	0.17260 0.92530 0.47978 -0.12000
N 	N 	0.08580 0.99120 0.43556 -0.23900
C 	C 	0.28780 0.76110 0.54531 0.07000
C 	C 	0.29410 0.80760 0.53657 -0.15000
H 	H 	0.32730 0.84050 0.53680 0.08600
C 	C 	0.24760 0.80270 0.52732 0.07200
C 	C 	0.20670 0.84230 0.51145 -0.01700
C 	C 	0.21420 0.89550 0.50283 0.26800
C 	C 	0.21500 0.93100 0.52009 -0.62600
H 	H 	0.24480 0.93810 0.52880 0.21600
H 	H 	0.21980 0.96500 0.51520 0.21700
H 	H 	0.18110 0.91210 0.52720 0.23000
C 	C 	0.26520 0.92320 0.49079 -0.62400
H 	H 	0.29600 0.92960 0.49870 0.21600
H 	H 	0.26210 0.90040 0.47980 0.21200
H 	H 	0.27040 0.95760 0.48610 0.21000
C 	C 	0.16670 0.88520 0.49051 -0.02400
C 	C 	0.13210 0.92010 0.46847 0.07800
C 	C 	0.13670 0.96300 0.45786 -0.15600
H 	H 	0.16930 0.99650 0.45770 0.08600
C 	C 	0.09310 0.95590 0.44755 0.06900
C 	C 	0.21040 0.09060 0.38330 -0.06600
H 	H 	0.23170 0.09890 0.39460 0.04400
C 	C 	0.23100 0.09060 0.36580 0.04000
C 	C 	0.19800 0.07280 0.34810 0.06400
C 	C 	0.14430 0.05270 0.34860 -0.10000
H 	H 	0.12180 0.03480 0.33790 0.08100
N 	N 	0.28680 0.11430 0.36520 -0.10200
N 	N 	0.22180 0.07820 0.33090 -0.10900
N 	N 	0.44390 0.18290 0.32560 -0.11500
N 	N 	0.37900 0.15250 0.29300 -0.11200
C 	C 	0.37040 0.13850 0.34820 0.11700
C 	C 	0.37670 0.08990 0.35520 -0.45400
H 	H 	0.41490 0.10110 0.35590 0.16200
H 	H 	0.36060 0.07860 0.36800 0.15700
H 	H 	0.35860 0.06010 0.34610 0.14300
C 	C 	0.39620 0.18650 0.36160 0.19200
H 	H 	0.43530 0.20370 0.36060 -0.03100
H 	H 	0.38480 0.21220 0.35790 -0.16200
H 	H 	0.38510 0.17460 0.37490 -0.02100
C 	C 	0.27960 0.09460 0.33140 0.03000
C 	C 	0.27150 0.11110 0.29510 0.30400
H 	H 	0.27530 0.14640 0.29740 -0.14500
H 	H 	0.28780 0.11120 0.28270 -0.05000
H 	H 	0.23340 0.08380 0.29500 -0.04900
C 	C 	0.29840 0.09910 0.31040 -0.01400
C 	C 	0.51280 0.23810 0.27280 0.04200
C 	C 	0.54510 0.24950 0.28890 0.00700
C 	C 	0.52280 0.23000 0.30680 -0.09400
H 	H 	0.54480 0.23790 0.31790 0.01300
C 	C 	0.46910 0.19930 0.30810 0.05800
C 	C 	0.43430 0.18580 0.29080 0.05800
C 	C 	0.36200 0.13300 0.31150 0.03800
C 	C 	0.39270 0.15350 0.32680 0.00900
C 	C 	0.45770 0.20590 0.27310 -0.09600
H 	H 	0.43680 0.19780 0.26170 0.05900
C 	C 	0.30860 0.11460 0.34880 0.01700
C 	C 	0.28940 0.04220 0.30530 -0.35400
H 	H 	0.31570 0.03630 0.31230 0.11500
H 	H 	0.25310 0.01490 0.30910 0.12600
H 	H 	0.29400 0.04010 0.29140 0.12400
N 	N 	0.99047 0.08673 0.88847 -0.23700
N 	N 	0.91607 0.18013 0.85243 -0.11600
N 	N 	0.83927 0.25863 0.81311 -0.12300
N 	N 	0.75247 0.32453 0.76889 -0.24600
C 	C 	0.95447 0.09443 0.87864 0.07400
C 	C 	0.96077 0.14093 0.86990 -0.15100
H 	H 	0.99397 0.17383 0.87013 0.09100
C 	C 	0.91427 0.13603 0.86065 0.07400
C 	C 	0.87337 0.17563 0.84478 -0.01300
C 	C 	0.88087 0.22883 0.83616 0.25800
C 	C 	0.88167 0.26433 0.85342 -0.60900
H 	H 	0.91147 0.27143 0.86213 0.20800
H 	H 	0.88647 0.29833 0.84853 0.20300
H 	H 	0.84777 0.24543 0.86053 0.22300
C 	C 	0.93187 0.25653 0.82412 -0.61200
H 	H 	0.96267 0.26293 0.83203 0.21100
H 	H 	0.92877 0.23373 0.81313 0.20900
H 	H 	0.93707 0.29093 0.81943 0.20100
C 	C 	0.83337 0.21853 0.82384 -0.02100
C 	C 	0.79877 0.25343 0.80180 0.07400
C 	C 	0.80337 0.29633 0.79119 -0.15400
H 	H 	0.83597 0.32983 0.79103 0.07700
C 	C 	0.75977 0.28923 0.78088 0.06400
C 	C 	0.87707 0.42393 0.71663 -0.06800
H 	H 	0.89837 0.43223 0.72793 0.04900
C 	C 	0.89767 0.42393 0.69913 0.04600
C 	C 	0.86467 0.40613 0.68143 0.06400
C 	C 	0.81097 0.38603 0.68193 -0.09400
H 	H 	0.78847 0.36813 0.67123 0.08600
N 	N 	0.95347 0.44763 0.69853 -0.10100
N 	N 	0.88847 0.41153 0.66423 -0.10600
N 	N 	0.11057 0.51623 0.65893 -0.11600
N 	N 	0.04567 0.48583 0.62633 -0.11400
C 	C 	0.03707 0.47183 0.68153 0.09200
C 	C 	0.04337 0.42323 0.68853 -0.43800
H 	H 	0.08157 0.43443 0.68923 0.15800
H 	H 	0.02727 0.41193 0.70133 0.15100
H 	H 	0.02527 0.39343 0.67943 0.13600
C 	C 	0.06287 0.51983 0.69493 0.19600
H 	H 	0.10197 0.53703 0.69393 -0.03100
H 	H 	0.05147 0.54553 0.69123 -0.16200
H 	H 	0.05177 0.50793 0.70823 -0.02600
C 	C 	0.94627 0.42793 0.66473 0.02400
C 	C 	0.93817 0.44443 0.62843 0.32000
H 	H 	0.94197 0.47973 0.63073 -0.15300
H 	H 	0.95447 0.44453 0.61603 -0.04700
H 	H 	0.90007 0.41713 0.62833 -0.05000
C 	C 	0.96507 0.43243 0.64373 0.01200
C 	C 	0.17947 0.57143 0.60613 0.04400
C 	C 	0.21177 0.58283 0.62223 0.00600
C 	C 	0.18947 0.56333 0.64013 -0.09300
H 	H 	0.21147 0.57123 0.65123 0.01300
C 	C 	0.13577 0.53263 0.64143 0.05800
C 	C 	0.10097 0.51913 0.62413 0.05800
C 	C 	0.02867 0.46633 0.64483 0.01200
C 	C 	0.05937 0.48683 0.66013 0.02000
C 	C 	0.12437 0.53923 0.60643 -0.09800
H 	H 	0.10347 0.53113 0.59503 0.05900
C 	C 	0.97527 0.44793 0.68213 0.04300
C 	C 	0.95607 0.37553 0.63863 -0.38800
H 	H 	0.98237 0.36963 0.64563 0.13800
H 	H 	0.91977 0.34823 0.64243 0.14300
H 	H 	0.96067 0.37343 0.62473 0.14400
N 	N 	0.65713 0.42007 0.22181 -0.24400
N 	N 	0.58273 0.51347 0.18577 -0.11700
N 	N 	0.50593 0.59197 0.14645 -0.12300
N 	N 	0.41913 0.65787 0.10223 -0.24600
C 	C 	0.62113 0.42777 0.21198 0.07000
C 	C 	0.62743 0.47427 0.20324 -0.15000
H 	H 	0.66063 0.50717 0.20347 0.08400
C 	C 	0.58093 0.46937 0.19399 0.07200
C 	C 	0.54003 0.50897 0.17812 -0.01200
C 	C 	0.54753 0.56217 0.16950 0.25600
C 	C 	0.54833 0.59767 0.18676 -0.60700
H 	H 	0.57813 0.60477 0.19547 0.20700
H 	H 	0.55313 0.63167 0.18187 0.20400
H 	H 	0.51443 0.57877 0.19387 0.22200
C 	C 	0.59853 0.58987 0.15746 -0.60500
H 	H 	0.62933 0.59627 0.16537 0.20700
H 	H 	0.59543 0.56707 0.14647 0.20500
H 	H 	0.60373 0.62427 0.15277 0.19800
C 	C 	0.50003 0.55187 0.15718 -0.02000
C 	C 	0.46543 0.58677 0.13514 0.07400
C 	C 	0.47003 0.62967 0.12453 -0.15400
H 	H 	0.50263 0.66317 0.12437 0.07700
C 	C 	0.42643 0.62257 0.11422 0.06400
C 	C 	0.54373 0.75727 0.04997 -0.06800
H 	H 	0.56503 0.76557 0.06127 0.04700
C 	C 	0.56433 0.75727 0.03247 0.04400
C 	C 	0.53133 0.73947 0.01477 0.06500
C 	C 	0.47763 0.71937 0.01527 -0.09500
H 	H 	0.45513 0.70147 0.00457 0.08600
N 	N 	0.62013 0.78097 0.03187 -0.10100
N 	N 	0.55513 0.74487 0.99757 -0.10700
N 	N 	0.77723 0.84957 0.99227 -0.11400
N 	N 	0.71233 0.81917 0.95967 -0.11200
C 	C 	0.70373 0.80517 0.01487 0.12000
C 	C 	0.71003 0.75657 0.02187 -0.46300
H 	H 	0.74823 0.76777 0.02257 0.16600
H 	H 	0.69393 0.74527 0.03467 0.16400
H 	H 	0.69193 0.72677 0.01277 0.14900
C 	C 	0.72953 0.85317 0.02827 0.19200
H 	H 	0.76863 0.87037 0.02727 -0.03000
H 	H 	0.71813 0.87887 0.02457 -0.16400
H 	H 	0.71843 0.84127 0.04157 -0.02000
C 	C 	0.61293 0.76127 0.99807 0.03100
C 	C 	0.60483 0.77777 0.96177 0.30800
H 	H 	0.60863 0.81307 0.96407 -0.14700
H 	H 	0.62113 0.77787 0.94937 -0.04900
H 	H 	0.56673 0.75047 0.96167 -0.04700
C 	C 	0.63173 0.76577 0.97707 -0.01200
C 	C 	0.84613 0.90477 0.93947 0.04300
C 	C 	0.87843 0.91617 0.95557 0.00500
C 	C 	0.85613 0.89667 0.97347 -0.09100
H 	H 	0.87813 0.90457 0.98457 0.01700
C 	C 	0.80243 0.86597 0.97477 0.05600
C 	C 	0.76763 0.85247 0.95747 0.05900
C 	C 	0.69533 0.79967 0.97817 0.03800
C 	C 	0.72603 0.82017 0.99347 0.00800
C 	C 	0.79103 0.87257 0.93977 -0.09900
H 	H 	0.77013 0.86447 0.92837 0.06200
C 	C 	0.64193 0.78127 0.01547 0.01700
C 	C 	0.62273 0.70887 0.97197 -0.36500
H 	H 	0.64903 0.70297 0.97897 0.12100
H 	H 	0.58643 0.68157 0.97577 0.13500
H 	H 	0.62733 0.70677 0.95807 0.13200
Zn	Zn	0.33333 0.66667 0.58021 1.14500
Zn	Zn	-0.00000 0.00000 0.91354 1.13100
Zn	Zn	0.66667 0.33333 0.24688 1.14500
Zn	Zn	0.40209 0.59791 0.56221 1.19000
Cl	Cl	0.44143 0.55857 0.55259 -0.61200
Zn	Zn	0.06876 0.93124 0.89554 1.19100
Cl	Cl	0.10810 0.89190 0.88592 -0.61100
Zn	Zn	0.73542 0.26458 0.22888 1.19000
Cl	Cl	0.77476 0.22524 0.21926 -0.61200
Zn	Zn	0.40209 0.80418 0.56221 1.19000
Cl	Cl	0.44143 0.88286 0.55259 -0.60600
Zn	Zn	0.06876 0.13751 0.89554 1.18600
Cl	Cl	0.10810 0.21619 0.88592 -0.62300
Zn	Zn	0.73542 0.47085 0.22888 1.19000
Cl	Cl	0.77476 0.54953 0.21926 -0.60800
Zn	Zn	0.19582 0.59791 0.56221 1.19000
Cl	Cl	0.11714 0.55857 0.55259 -0.61800
Zn	Zn	0.86249 0.93124 0.89554 1.19400
Cl	Cl	0.78381 0.89190 0.88592 -0.60100
Zn	Zn	0.52915 0.26458 0.22888 1.19000
Cl	Cl	0.45047 0.22524 0.21926 -0.61600
Zn	Zn	0.13582 0.06791 0.42792 1.18300
Cl	Cl	0.21534 0.10767 0.43886 -0.63600
N 	N 	0.54391 0.27196 0.25752 -0.24800
N 	N 	0.59550 0.29775 0.26444 -0.20100
N 	N 	0.59690 0.29845 0.28300 -0.23700
N 	N 	0.11770 0.05885 0.39920 -0.24100
N 	N 	0.07010 0.03505 0.39231 -0.20200
N 	N 	0.07040 0.03520 0.37351 -0.22400
C 	C 	0.12200 0.06100 0.36770 0.08000
C 	C 	0.15530 0.07765 0.38440 0.03300
Zn	Zn	0.80249 0.40124 0.76125 1.18700
Cl	Cl	0.88201 0.44100 0.77219 -0.62500
N 	N 	0.21058 0.60529 0.59085 -0.24800
N 	N 	0.26217 0.63108 0.59777 -0.20100
N 	N 	0.26357 0.63178 0.61633 -0.23700
N 	N 	0.78437 0.39218 0.73253 -0.23800
N 	N 	0.73677 0.36838 0.72564 -0.19400
N 	N 	0.73707 0.36853 0.70684 -0.21800
C 	C 	0.78867 0.39433 0.70103 0.08400
C 	C 	0.82197 0.41098 0.71773 0.03700
Zn	Zn	0.46915 0.73458 0.09459 1.18700
Cl	Cl	0.54867 0.77434 0.10553 -0.62700
N 	N 	0.87724 0.93862 0.92419 -0.24500
N 	N 	0.92883 0.96442 0.93111 -0.19000
N 	N 	0.93023 0.96512 0.94967 -0.22700
N 	N 	0.45103 0.72552 0.06587 -0.23800
N 	N 	0.40343 0.70172 0.05898 -0.19400
N 	N 	0.40373 0.70187 0.04018 -0.21800
C 	C 	0.45533 0.72767 0.03437 0.08400
C 	C 	0.48863 0.74432 0.05107 0.03600
Zn	Zn	0.93209 0.06791 0.42792 1.18700
Cl	Cl	0.89233 0.10767 0.43886 -0.62700
N 	N 	0.72804 0.27196 0.25752 -0.24800
N 	N 	0.70225 0.29775 0.26444 -0.20100
N 	N 	0.70155 0.29845 0.28300 -0.23700
N 	N 	0.94115 0.05885 0.39920 -0.23700
N 	N 	0.96495 0.03505 0.39231 -0.19200
N 	N 	0.96480 0.03520 0.37351 -0.21500
C 	C 	0.93900 0.06100 0.36770 0.08400
C 	C 	0.92235 0.07765 0.38440 0.03600
Zn	Zn	0.59876 0.40124 0.76125 1.18700
Cl	Cl	0.55900 0.44100 0.77219 -0.62800
N 	N 	0.39471 0.60529 0.59085 -0.24800
N 	N 	0.36892 0.63108 0.59777 -0.20100
N 	N 	0.36822 0.63178 0.61633 -0.23700
N 	N 	0.60782 0.39218 0.73253 -0.23800
N 	N 	0.63162 0.36838 0.72564 -0.19400
N 	N 	0.63147 0.36853 0.70684 -0.21800
C 	C 	0.60567 0.39433 0.70103 0.08400
C 	C 	0.58902 0.41098 0.71773 0.03600
Zn	Zn	0.26542 0.73458 0.09459 1.18700
Cl	Cl	0.22566 0.77434 0.10553 -0.62800
N 	N 	0.06138 0.93862 0.92419 -0.24700
N 	N 	0.03558 0.96442 0.93111 -0.19900
N 	N 	0.03488 0.96512 0.94967 -0.23400
N 	N 	0.27448 0.72552 0.06587 -0.23800
N 	N 	0.29828 0.70172 0.05898 -0.19400
N 	N 	0.29813 0.70187 0.04018 -0.21800
C 	C 	0.27233 0.72767 0.03437 0.08400
C 	C 	0.25568 0.74432 0.05107 0.03600
Zn	Zn	0.93209 0.86418 0.42792 1.19100
Cl	Cl	0.89233 0.78466 0.43886 -0.62100
N 	N 	0.72804 0.45609 0.25752 -0.24800
N 	N 	0.70225 0.40450 0.26444 -0.20100
N 	N 	0.70155 0.40310 0.28300 -0.23700
N 	N 	0.94115 0.88230 0.39920 -0.23500
N 	N 	0.96495 0.92990 0.39231 -0.18400
N 	N 	0.96480 0.92960 0.37351 -0.20800
C 	C 	0.93900 0.87800 0.36770 0.08800
C 	C 	0.92235 0.84470 0.38440 0.03800
Zn	Zn	0.59876 0.19751 0.76125 1.18700
Cl	Cl	0.55900 0.11799 0.77219 -0.63100
N 	N 	0.39471 0.78942 0.59085 -0.24800
N 	N 	0.36892 0.73783 0.59777 -0.20100
N 	N 	0.36822 0.73643 0.61633 -0.23700
N 	N 	0.60782 0.21563 0.73253 -0.23800
N 	N 	0.63162 0.26323 0.72564 -0.19400
N 	N 	0.63147 0.26293 0.70684 -0.21800
C 	C 	0.60567 0.21133 0.70103 0.08400
C 	C 	0.58902 0.17803 0.71773 0.03400
Zn	Zn	0.26542 0.53085 0.09459 1.18700
Cl	Cl	0.22566 0.45133 0.10553 -0.62900
N 	N 	0.06138 0.12276 0.92419 -0.25100
N 	N 	0.03558 0.07117 0.93111 -0.20800
N 	N 	0.03488 0.06977 0.94967 -0.24300
N 	N 	0.27448 0.54897 0.06587 -0.23800
N 	N 	0.29828 0.59657 0.05898 -0.19400
N 	N 	0.29813 0.59627 0.04018 -0.21800
C 	C 	0.27233 0.54467 0.03437 0.08300
C 	C 	0.25568 0.51137 0.05107 0.03500
Zn	Zn	-0.00000 0.00000 0.41054 1.13200
Zn	Zn	0.00000 0.00000 0.35670 1.21200
Cl	Cl	-0.00000 0.00000 0.32850 -0.46000
Zn	Zn	0.66667 0.33333 0.74387 1.14600
Zn	Zn	0.66667 0.33333 0.69003 1.22400
Cl	Cl	0.66667 0.33333 0.66183 -0.41300
Zn	Zn	0.33333 0.66667 0.07721 1.14600
Zn	Zn	0.33333 0.66667 0.02337 1.22400
Cl	Cl	0.33333 0.66667 0.99517 -0.41300
N 	N 	0.29755 0.59510 0.56142 -0.19800
N 	N 	0.03570 0.07140 0.42894 -0.20700
N 	N 	0.96422 0.92843 0.89475 -0.18700
N 	N 	0.70237 0.40473 0.76227 -0.19900
N 	N 	0.63088 0.26177 0.22809 -0.19800
N 	N 	0.36903 0.73807 0.09561 -0.19900
N 	N 	0.40490 0.70245 0.56142 -0.19800
N 	N 	0.92860 0.96430 0.42894 -0.18900
N 	N 	0.07157 0.03578 0.89475 -0.20600
N 	N 	0.59527 0.29763 0.76227 -0.20000
N 	N 	0.73823 0.36912 0.22809 -0.19800
N 	N 	0.26193 0.63097 0.09561 -0.20000
N 	N 	0.29755 0.70245 0.56142 -0.19800
N 	N 	0.03570 0.96430 0.42894 -0.19700
N 	N 	0.96422 0.03578 0.89475 -0.19600
N 	N 	0.70237 0.29763 0.76227 -0.20000
N 	N 	0.63088 0.36912 0.22809 -0.19800
N 	N 	0.36903 0.63097 0.09561 -0.20000
Zn	Zn	0.66667 0.33333 0.30085 1.10200
Zn	Zn	0.33333 0.66667 0.63418 1.10200
Zn	Zn	0.00000 0.00000 0.96752 1.08800
O 	O 	0.03190 0.96810 0.33710 -0.18900
O 	O 	0.69857 0.30143 0.67043 -0.20400
O 	O 	0.36523 0.63477 0.00377 -0.20400
O 	O 	0.03190 0.06380 0.33710 -0.21100
O 	O 	0.69857 0.39713 0.67043 -0.20400
O 	O 	0.36523 0.73047 0.00377 -0.20300
O 	O 	0.93620 0.96810 0.33710 -0.17100
O 	O 	0.60287 0.30143 0.67043 -0.20500
O 	O 	0.26953 0.63477 0.00377 -0.20500
N 	N 	0.57040 0.32380 0.44486 -0.24400
N 	N 	0.40260 0.24940 0.48090 -0.11700
N 	N 	0.24730 0.17260 0.52022 -0.12400
N 	N 	0.09460 0.08580 0.56444 -0.24900
C 	C 	0.52670 0.28780 0.45469 0.07000
C 	C 	0.48650 0.29410 0.46343 -0.15000
H 	H 	0.48680 0.32730 0.46320 0.08400
C 	C 	0.44490 0.24760 0.47268 0.07200
C 	C 	0.36440 0.20670 0.48855 -0.01300
C 	C 	0.31870 0.21420 0.49717 0.25500
C 	C 	0.28400 0.21500 0.47991 -0.60600
H 	H 	0.30670 0.24480 0.47120 0.20600
H 	H 	0.25480 0.21980 0.48480 0.20300
H 	H 	0.26900 0.18110 0.47280 0.22100
C 	C 	0.34200 0.26520 0.50921 -0.60400
H 	H 	0.36640 0.29600 0.50130 0.20600
H 	H 	0.36170 0.26210 0.52020 0.20400
H 	H 	0.31280 0.27040 0.51390 0.19700
C 	C 	0.28150 0.16670 0.50949 -0.02200
C 	C 	0.21200 0.13210 0.53153 0.07400
C 	C 	0.17370 0.13670 0.54214 -0.15600
H 	H 	0.17280 0.16930 0.54230 0.07600
C 	C 	0.13720 0.09310 0.55245 0.06300
C 	C 	0.11980 0.21040 0.61670 -0.07200
H 	H 	0.13280 0.23170 0.60540 0.04800
C 	C 	0.14040 0.23100 0.63420 0.04700
C 	C 	0.12520 0.19800 0.65190 0.06100
C 	C 	0.09160 0.14430 0.65140 -0.08800
H 	H 	0.08700 0.12180 0.66210 0.08100
N 	N 	0.17250 0.28680 0.63480 -0.10200
N 	N 	0.14360 0.22180 0.66910 -0.10700
N 	N 	0.26100 0.44390 0.67440 -0.11400
N 	N 	0.22650 0.37900 0.70700 -0.11200
C 	C 	0.23190 0.37040 0.65180 0.12000
C 	C 	0.28680 0.37670 0.64480 -0.46200
H 	H 	0.31380 0.41490 0.64410 0.16500
H 	H 	0.28200 0.36060 0.63200 0.16300
H 	H 	0.29850 0.35860 0.65390 0.14800
C 	C 	0.20970 0.39620 0.63840 0.19200
H 	H 	0.23160 0.43530 0.63940 -0.03000
H 	H 	0.17260 0.38480 0.64210 -0.16200
H 	H 	0.21050 0.38510 0.62510 -0.02100
C 	C 	0.18500 0.27960 0.66860 0.03000
C 	C 	0.16040 0.27150 0.70490 0.30400
H 	H 	0.12890 0.27530 0.70260 -0.14300
H 	H 	0.17660 0.28780 0.71730 -0.04900
H 	H 	0.14960 0.23340 0.70500 -0.04800
C 	C 	0.19930 0.29840 0.68960 -0.01100
C 	C 	0.27470 0.51280 0.72720 0.04800
C 	C 	0.29560 0.54510 0.71110 0.00400
C 	C 	0.29280 0.52280 0.69320 -0.09100
H 	H 	0.30690 0.54480 0.68210 0.01300
C 	C 	0.26980 0.46910 0.69190 0.05600
C 	C 	0.24850 0.43430 0.70920 0.06000
C 	C 	0.22900 0.36200 0.68850 0.03800
C 	C 	0.23920 0.39270 0.67320 0.00900
C 	C 	0.25180 0.45770 0.72690 -0.10100
H 	H 	0.23900 0.43680 0.73830 0.06200
C 	C 	0.19400 0.30860 0.65120 0.01800
C 	C 	0.24720 0.28940 0.69470 -0.36200
H 	H 	0.27940 0.31570 0.68770 0.12000
H 	H 	0.23820 0.25310 0.69090 0.13200
H 	H 	0.25390 0.29400 0.70860 0.13000
N 	N 	0.23707 0.65713 0.77819 -0.24400
N 	N 	0.06927 0.58273 0.81423 -0.11600
N 	N 	0.91397 0.50593 0.85355 -0.12000
N 	N 	0.76127 0.41913 0.89777 -0.24500
C 	C 	0.19337 0.62113 0.78802 0.06900
C 	C 	0.15317 0.62743 0.79676 -0.15100
H 	H 	0.15347 0.66063 0.79653 0.08200
C 	C 	0.11157 0.58093 0.80601 0.07000
C 	C 	0.03107 0.54003 0.82188 -0.04000
C 	C 	0.98537 0.54753 0.83050 0.33300
C 	C 	0.95067 0.54833 0.81324 -0.66600
H 	H 	0.97337 0.57813 0.80453 0.23000
H 	H 	0.92147 0.55313 0.81813 0.22100
H 	H 	0.93567 0.51443 0.80613 0.24100
C 	C 	0.00867 0.59853 0.84254 -0.75700
H 	H 	0.03307 0.62933 0.83463 0.24200
H 	H 	0.02837 0.59543 0.85353 0.24100
H 	H 	0.97947 0.60373 0.84723 0.25300
C 	C 	0.94817 0.50003 0.84282 -0.03100
C 	C 	0.87867 0.46543 0.86486 0.07500
C 	C 	0.84037 0.47003 0.87547 -0.15400
H 	H 	0.83947 0.50263 0.87563 0.07700
C 	C 	0.80387 0.42643 0.88578 0.06500
C 	C 	0.78647 0.54373 0.95003 -0.06900
H 	H 	0.79947 0.56503 0.93873 0.04800
C 	C 	0.80707 0.56433 0.96753 0.04600
C 	C 	0.79187 0.53133 0.98523 0.06400
C 	C 	0.75827 0.47763 0.98473 -0.09200
H 	H 	0.75367 0.45513 0.99543 0.08600
N 	N 	0.83917 0.62013 0.96813 -0.10000
N 	N 	0.81027 0.55513 0.00243 -0.10600
N 	N 	0.92767 0.77723 0.00773 -0.11200
N 	N 	0.89317 0.71233 0.04033 -0.11100
C 	C 	0.89857 0.70373 0.98513 0.12600
C 	C 	0.95347 0.71003 0.97813 -0.48000
H 	H 	0.98047 0.74823 0.97743 0.17900
H 	H 	0.94867 0.69393 0.96533 0.17300
H 	H 	0.96517 0.69193 0.98723 0.16100
C 	C 	0.87637 0.72953 0.97173 0.19200
H 	H 	0.89827 0.76863 0.97273 -0.02800
H 	H 	0.83927 0.71813 0.97543 -0.16200
H 	H 	0.87717 0.71843 0.95843 -0.01900
C 	C 	0.85167 0.61293 0.00193 0.03100
C 	C 	0.82707 0.60483 0.03823 0.30800
H 	H 	0.79557 0.60863 0.03593 -0.14600
H 	H 	0.84327 0.62113 0.05063 -0.04800
H 	H 	0.81627 0.56673 0.03833 -0.04600
C 	C 	0.86597 0.63173 0.02293 -0.00900
C 	C 	0.94137 0.84613 0.06053 0.04700
C 	C 	0.96227 0.87843 0.04443 0.01400
C 	C 	0.95947 0.85613 0.02653 -0.09400
H 	H 	0.97357 0.87813 0.01543 0.02300
C 	C 	0.93647 0.80243 0.02523 0.06200
C 	C 	0.91517 0.76763 0.04253 0.06100
C 	C 	0.89567 0.69533 0.02183 0.04000
C 	C 	0.90587 0.72603 0.00653 0.00900
C 	C 	0.91847 0.79103 0.06023 -0.09600
H 	H 	0.90567 0.77013 0.07163 0.06300
C 	C 	0.86067 0.64193 0.98453 0.01600
C 	C 	0.91387 0.62273 0.02803 -0.37700
H 	H 	0.94607 0.64903 0.02103 0.13100
H 	H 	0.90487 0.58643 0.02423 0.14100
H 	H 	0.92057 0.62733 0.04193 0.14000
N 	N 	0.90373 0.99047 0.11153 -0.23400
N 	N 	0.73593 0.91607 0.14757 -0.11500
N 	N 	0.58063 0.83927 0.18689 -0.12300
N 	N 	0.42793 0.75247 0.23111 -0.24500
C 	C 	0.86003 0.95447 0.12136 0.07500
C 	C 	0.81983 0.96077 0.13010 -0.14900
H 	H 	0.82013 0.99397 0.12987 0.09100
C 	C 	0.77823 0.91427 0.13935 0.07500
C 	C 	0.69773 0.87337 0.15522 -0.01200
C 	C 	0.65203 0.88087 0.16384 0.25900
C 	C 	0.61733 0.88167 0.14658 -0.61000
H 	H 	0.64003 0.91147 0.13787 0.20800
H 	H 	0.58813 0.88647 0.15147 0.20300
H 	H 	0.60233 0.84777 0.13947 0.22300
C 	C 	0.67533 0.93187 0.17588 -0.61500
H 	H 	0.69973 0.96267 0.16797 0.21300
H 	H 	0.69503 0.92877 0.18687 0.21100
H 	H 	0.64613 0.93707 0.18057 0.20200
C 	C 	0.61483 0.83337 0.17616 -0.02100
C 	C 	0.54533 0.79877 0.19820 0.07500
C 	C 	0.50703 0.80337 0.20881 -0.15400
H 	H 	0.50613 0.83597 0.20897 0.07700
C 	C 	0.47053 0.75977 0.21912 0.06400
C 	C 	0.45313 0.87707 0.28337 -0.06900
H 	H 	0.46613 0.89837 0.27207 0.04900
C 	C 	0.47373 0.89767 0.30087 0.04600
C 	C 	0.45853 0.86467 0.31857 0.06400
C 	C 	0.42493 0.81097 0.31807 -0.09200
H 	H 	0.42033 0.78847 0.32877 0.08600
N 	N 	0.50583 0.95347 0.30147 -0.10100
N 	N 	0.47693 0.88847 0.33577 -0.10600
N 	N 	0.59433 0.11057 0.34107 -0.11600
N 	N 	0.55983 0.04567 0.37367 -0.11400
C 	C 	0.56523 0.03707 0.31847 0.09200
C 	C 	0.62013 0.04337 0.31147 -0.44000
H 	H 	0.64713 0.08157 0.31077 0.15900
H 	H 	0.61533 0.02727 0.29867 0.15100
H 	H 	0.63183 0.02527 0.32057 0.13700
C 	C 	0.54303 0.06287 0.30507 0.19600
H 	H 	0.56493 0.10197 0.30607 -0.03100
H 	H 	0.50593 0.05147 0.30877 -0.16100
H 	H 	0.54383 0.05177 0.29177 -0.02500
C 	C 	0.51833 0.94627 0.33527 0.02500
C 	C 	0.49373 0.93817 0.37157 0.32000
H 	H 	0.46223 0.94197 0.36927 -0.15300
H 	H 	0.50993 0.95447 0.38397 -0.04700
H 	H 	0.48293 0.90007 0.37167 -0.05000
C 	C 	0.53263 0.96507 0.35627 0.01200
C 	C 	0.60803 0.17947 0.39387 0.04500
C 	C 	0.62893 0.21177 0.37777 0.00500
C 	C 	0.62613 0.18947 0.35987 -0.09200
H 	H 	0.64023 0.21147 0.34877 0.01300
C 	C 	0.60313 0.13577 0.35857 0.05800
C 	C 	0.58183 0.10097 0.37587 0.05800
C 	C 	0.56233 0.02867 0.35517 0.01300
C 	C 	0.57253 0.05937 0.33987 0.02000
C 	C 	0.58513 0.12437 0.39357 -0.09900
H 	H 	0.57233 0.10347 0.40497 0.05900
C 	C 	0.52733 0.97527 0.31787 0.04300
C 	C 	0.58053 0.95607 0.36137 -0.38900
H 	H 	0.61273 0.98237 0.35437 0.13800
H 	H 	0.57153 0.91977 0.35757 0.14400
H 	H 	0.58723 0.96067 0.37527 0.14400
N 	N 	0.75340 0.42960 0.44486 -0.24300
N 	N 	0.84680 0.59740 0.48090 -0.11500
N 	N 	0.92530 0.75270 0.52022 -0.12000
N 	N 	0.99120 0.90540 0.56444 -0.23600
C 	C 	0.76110 0.47330 0.45469 0.07000
C 	C 	0.80760 0.51350 0.46343 -0.15000
H 	H 	0.84050 0.51320 0.46320 0.08500
C 	C 	0.80270 0.55510 0.47268 0.07300
C 	C 	0.84230 0.63560 0.48855 -0.01500
C 	C 	0.89550 0.68130 0.49717 0.26600
C 	C 	0.93100 0.71600 0.47991 -0.62500
H 	H 	0.93810 0.69330 0.47120 0.21600
H 	H 	0.96500 0.74520 0.48480 0.21700
H 	H 	0.91210 0.73100 0.47280 0.23000
C 	C 	0.92320 0.65800 0.50921 -0.62300
H 	H 	0.92960 0.63360 0.50130 0.21500
H 	H 	0.90040 0.63830 0.52020 0.21200
H 	H 	0.95760 0.68720 0.51390 0.20900
C 	C 	0.88520 0.71850 0.50949 -0.02200
C 	C 	0.92010 0.78800 0.53153 0.07800
C 	C 	0.96300 0.82630 0.54214 -0.15400
H 	H 	0.99650 0.82720 0.54230 0.08600
C 	C 	0.95590 0.86280 0.55245 0.07000
C 	C 	0.09060 0.88020 0.61670 -0.06200
H 	H 	0.09890 0.86720 0.60540 0.04300
C 	C 	0.09060 0.85960 0.63420 0.03700
C 	C 	0.07280 0.87480 0.65190 0.06800
C 	C 	0.05270 0.90840 0.65140 -0.10600
H 	H 	0.03480 0.91300 0.66210 0.08700
N 	N 	0.11430 0.82750 0.63480 -0.10100
N 	N 	0.07820 0.85640 0.66910 -0.10800
N 	N 	0.18290 0.73900 0.67440 -0.11500
N 	N 	0.15250 0.77350 0.70700 -0.11200
C 	C 	0.13850 0.76810 0.65180 0.11700
C 	C 	0.08990 0.71320 0.64480 -0.45500
H 	H 	0.10110 0.68620 0.64410 0.16200
H 	H 	0.07860 0.71800 0.63200 0.15800
H 	H 	0.06010 0.70150 0.65390 0.14300
C 	C 	0.18650 0.79030 0.63840 0.19200
H 	H 	0.20370 0.76840 0.63940 -0.03100
H 	H 	0.21220 0.82740 0.64210 -0.16300
H 	H 	0.17460 0.78950 0.62510 -0.02100
C 	C 	0.09460 0.81500 0.66860 0.03000
C 	C 	0.11110 0.83960 0.70490 0.30800
H 	H 	0.14640 0.87110 0.70260 -0.14700
H 	H 	0.11120 0.82340 0.71730 -0.05000
H 	H 	0.08380 0.85040 0.70500 -0.04700
C 	C 	0.09910 0.80070 0.68960 -0.01400
C 	C 	0.23810 0.72530 0.72720 0.03900
C 	C 	0.24950 0.70440 0.71110 0.00800
C 	C 	0.23000 0.70720 0.69320 -0.09500
H 	H 	0.23790 0.69310 0.68210 0.01400
C 	C 	0.19930 0.73020 0.69190 0.05900
C 	C 	0.18580 0.75150 0.70920 0.05700
C 	C 	0.13300 0.77100 0.68850 0.03800
C 	C 	0.15350 0.76080 0.67320 0.00900
C 	C 	0.20590 0.74820 0.72690 -0.09400
H 	H 	0.19780 0.76100 0.73830 0.05900
C 	C 	0.11460 0.80600 0.65120 0.01700
C 	C 	0.04220 0.75280 0.69470 -0.35700
H 	H 	0.03630 0.72060 0.68770 0.11700
H 	H 	0.01490 0.76180 0.69090 0.12900
H 	H 	0.04010 0.74610 0.70860 0.12700
N 	N 	0.42007 0.76293 0.77819 -0.24300
N 	N 	0.51347 0.93073 0.81423 -0.11800
N 	N 	0.59197 0.08603 0.85355 -0.12600
N 	N 	0.65787 0.23873 0.89777 -0.24600
C 	C 	0.42777 0.80663 0.78802 0.07000
C 	C 	0.47427 0.84683 0.79676 -0.14900
H 	H 	0.50717 0.84653 0.79653 0.08600
C 	C 	0.46937 0.88843 0.80601 0.07400
C 	C 	0.50897 0.96893 0.82188 0.01600
C 	C 	0.56217 0.01463 0.83050 0.17700
C 	C 	0.59767 0.04933 0.81324 -0.54600
H 	H 	0.60477 0.02663 0.80453 0.18300
H 	H 	0.63167 0.07853 0.81813 0.18600
H 	H 	0.57877 0.06433 0.80613 0.20300
C 	C 	0.58987 0.99133 0.84254 -0.45000
H 	H 	0.59627 0.96693 0.83463 0.17000
H 	H 	0.56707 0.97163 0.85353 0.16800
H 	H 	0.62427 0.02053 0.84723 0.14100
C 	C 	0.55187 0.05183 0.84282 -0.00900
C 	C 	0.58677 0.12133 0.86486 0.07300
C 	C 	0.62967 0.15963 0.87547 -0.15400
H 	H 	0.66317 0.16053 0.87563 0.07600
C 	C 	0.62257 0.19613 0.88578 0.06300
C 	C 	0.75727 0.21353 0.95003 -0.06700
H 	H 	0.76557 0.20053 0.93873 0.04600
C 	C 	0.75727 0.19293 0.96753 0.04200
C 	C 	0.73947 0.20813 0.98523 0.06500
C 	C 	0.71937 0.24173 0.98473 -0.09700
H 	H 	0.70147 0.24633 0.99543 0.08600
N 	N 	0.78097 0.16083 0.96813 -0.10200
N 	N 	0.74487 0.18973 0.00243 -0.10700
N 	N 	0.84957 0.07233 0.00773 -0.11600
N 	N 	0.81917 0.10683 0.04033 -0.11300
C 	C 	0.80517 0.10143 0.98513 0.11300
C 	C 	0.75657 0.04653 0.97813 -0.44400
H 	H 	0.76777 0.01953 0.97743 0.15200
H 	H 	0.74527 0.05133 0.96533 0.15400
H 	H 	0.72677 0.03483 0.98723 0.13700
C 	C 	0.85317 0.12363 0.97173 0.19300
H 	H 	0.87037 0.10173 0.97273 -0.03300
H 	H 	0.87887 0.16073 0.97543 -0.16400
H 	H 	0.84127 0.12283 0.95843 -0.02200
C 	C 	0.76127 0.14833 0.00193 0.03000
C 	C 	0.77777 0.17293 0.03823 0.30700
H 	H 	0.81307 0.20443 0.03593 -0.14700
H 	H 	0.77787 0.15673 0.05063 -0.05000
H 	H 	0.75047 0.18373 0.03833 -0.04700
C 	C 	0.76577 0.13403 0.02293 -0.01400
C 	C 	0.90477 0.05863 0.06053 0.04000
C 	C 	0.91617 0.03773 0.04443 -0.00300
C 	C 	0.89667 0.04053 0.02653 -0.09000
H 	H 	0.90457 0.02643 0.01543 0.00800
C 	C 	0.86597 0.06353 0.02523 0.05100
C 	C 	0.85247 0.08483 0.04253 0.05700
C 	C 	0.79967 0.10433 0.02183 0.03600
C 	C 	0.82017 0.09413 0.00653 0.00900
C 	C 	0.87257 0.08153 0.06023 -0.10100
H 	H 	0.86447 0.09433 0.07163 0.06000
C 	C 	0.78127 0.13933 0.98453 0.01800
C 	C 	0.70887 0.08613 0.02803 -0.35300
H 	H 	0.70297 0.05393 0.02103 0.11200
H 	H 	0.68157 0.09513 0.02423 0.12800
H 	H 	0.70677 0.07943 0.04193 0.12400
N 	N 	0.08673 0.09627 0.11153 -0.24700
N 	N 	0.18013 0.26407 0.14757 -0.11800
N 	N 	0.25863 0.41937 0.18689 -0.12300
N 	N 	0.32453 0.57207 0.23111 -0.24600
C 	C 	0.09443 0.13997 0.12136 0.06800
C 	C 	0.14093 0.18017 0.13010 -0.15200
H 	H 	0.17383 0.17987 0.12987 0.08300
C 	C 	0.13603 0.22177 0.13935 0.07100
C 	C 	0.17563 0.30227 0.15522 -0.01300
C 	C 	0.22883 0.34797 0.16384 0.25400
C 	C 	0.26433 0.38267 0.14658 -0.60500
H 	H 	0.27143 0.35997 0.13787 0.20500
H 	H 	0.29833 0.41187 0.15147 0.20300
H 	H 	0.24543 0.39767 0.13947 0.22200
C 	C 	0.25653 0.32467 0.17588 -0.60000
H 	H 	0.26293 0.30027 0.16797 0.20300
H 	H 	0.23373 0.30497 0.18687 0.20100
H 	H 	0.29093 0.35387 0.18057 0.19600
C 	C 	0.21853 0.38517 0.17616 -0.02100
C 	C 	0.25343 0.45467 0.19820 0.07400
C 	C 	0.29633 0.49297 0.20881 -0.15400
H 	H 	0.32983 0.49387 0.20897 0.07700
C 	C 	0.28923 0.52947 0.21912 0.06400
C 	C 	0.42393 0.54687 0.28337 -0.06800
H 	H 	0.43223 0.53387 0.27207 0.04600
C 	C 	0.42393 0.52627 0.30087 0.04300
C 	C 	0.40613 0.54147 0.31857 0.06500
C 	C 	0.38603 0.57507 0.31807 -0.09500
H 	H 	0.36813 0.57967 0.32877 0.08600
N 	N 	0.44763 0.49417 0.30147 -0.10100
N 	N 	0.41153 0.52307 0.33577 -0.10700
N 	N 	0.51623 0.40567 0.34107 -0.11400
N 	N 	0.48583 0.44017 0.37367 -0.11200
C 	C 	0.47183 0.43477 0.31847 0.11900
C 	C 	0.42323 0.37987 0.31147 -0.46100
H 	H 	0.43443 0.35287 0.31077 0.16500
H 	H 	0.41193 0.38467 0.29867 0.16300
H 	H 	0.39343 0.36817 0.32057 0.14800
C 	C 	0.51983 0.45697 0.30507 0.19200
H 	H 	0.53703 0.43507 0.30607 -0.03000
H 	H 	0.54553 0.49407 0.30877 -0.16200
H 	H 	0.50793 0.45617 0.29177 -0.02100
C 	C 	0.42793 0.48167 0.33527 0.03100
C 	C 	0.44443 0.50627 0.37157 0.30700
H 	H 	0.47973 0.53777 0.36927 -0.14600
H 	H 	0.44453 0.49007 0.38397 -0.04900
H 	H 	0.41713 0.51707 0.37167 -0.04700
C 	C 	0.43243 0.46737 0.35627 -0.01100
C 	C 	0.57143 0.39197 0.39387 0.04400
C 	C 	0.58283 0.37107 0.37777 0.00500
C 	C 	0.56333 0.37387 0.35987 -0.09200
H 	H 	0.57123 0.35977 0.34877 0.01300
C 	C 	0.53263 0.39687 0.35857 0.05700
C 	C 	0.51913 0.41817 0.37587 0.05900
C 	C 	0.46633 0.43767 0.35517 0.03800
C 	C 	0.48683 0.42747 0.33987 0.00900
C 	C 	0.53923 0.41487 0.39357 -0.09800
H 	H 	0.53113 0.42767 0.40497 0.06100
C 	C 	0.44793 0.47267 0.31787 0.01700
C 	C 	0.37553 0.41947 0.36137 -0.36400
H 	H 	0.36963 0.38727 0.35437 0.12100
H 	H 	0.34823 0.42847 0.35757 0.13400
H 	H 	0.37343 0.41277 0.37527 0.13100
N 	N 	0.67620 0.24660 0.44486 -0.24400
N 	N 	0.75060 0.15320 0.48090 -0.11900
N 	N 	0.82740 0.07470 0.52022 -0.12600
N 	N 	0.91420 0.00880 0.56444 -0.25100
C 	C 	0.71220 0.23890 0.45469 0.06900
C 	C 	0.70590 0.19240 0.46343 -0.15000
H 	H 	0.67270 0.15950 0.46320 0.08200
C 	C 	0.75240 0.19730 0.47268 0.07100
C 	C 	0.79330 0.15770 0.48855 -0.00700
C 	C 	0.78580 0.10450 0.49717 0.24300
C 	C 	0.78500 0.06900 0.47991 -0.58700
H 	H 	0.75520 0.06190 0.47120 0.19600
H 	H 	0.78020 0.03500 0.48480 0.19100
H 	H 	0.81890 0.08790 0.47280 0.21400
C 	C 	0.73480 0.07680 0.50921 -0.58400
H 	H 	0.70400 0.07040 0.50130 0.19600
H 	H 	0.73790 0.09960 0.52020 0.19700
H 	H 	0.72960 0.04240 0.51390 0.18500
C 	C 	0.83330 0.11480 0.50949 -0.01600
C 	C 	0.86790 0.07990 0.53153 0.07100
C 	C 	0.86330 0.03700 0.54214 -0.15200
H 	H 	0.83070 0.00350 0.54230 0.06800
C 	C 	0.90690 0.04410 0.55245 0.05900
C 	C 	0.78960 0.90940 0.61670 -0.07100
H 	H 	0.76830 0.90110 0.60540 0.05000
C 	C 	0.76900 0.90940 0.63420 0.04900
C 	C 	0.80200 0.92720 0.65190 0.06400
C 	C 	0.85570 0.94730 0.65140 -0.08700
H 	H 	0.87820 0.96520 0.66210 0.09100
N 	N 	0.71320 0.88570 0.63480 -0.10100
N 	N 	0.77820 0.92180 0.66910 -0.10400
N 	N 	0.55610 0.81710 0.67440 -0.11400
N 	N 	0.62100 0.84750 0.70700 -0.11100
C 	C 	0.62960 0.86150 0.65180 0.12200
C 	C 	0.62330 0.91010 0.64480 -0.47000
H 	H 	0.58510 0.89890 0.64410 0.16900
H 	H 	0.63940 0.92140 0.63200 0.16900
H 	H 	0.64140 0.93990 0.65390 0.15500
C 	C 	0.60380 0.81350 0.63840 0.19200
H 	H 	0.56470 0.79630 0.63940 -0.03000
H 	H 	0.61520 0.78780 0.64210 -0.16200
H 	H 	0.61490 0.82540 0.62510 -0.02000
C 	C 	0.72040 0.90540 0.66860 0.03200
C 	C 	0.72850 0.88890 0.70490 0.31000
H 	H 	0.72470 0.85360 0.70260 -0.14700
H 	H 	0.71220 0.88880 0.71730 -0.04700
H 	H 	0.76660 0.91620 0.70500 -0.04400
C 	C 	0.70160 0.90090 0.68960 -0.00800
C 	C 	0.48720 0.76190 0.72720 0.04700
C 	C 	0.45490 0.75050 0.71110 0.00400
C 	C 	0.47720 0.77000 0.69320 -0.09100
H 	H 	0.45520 0.76210 0.68210 0.01200
C 	C 	0.53090 0.80070 0.69190 0.05600
C 	C 	0.56570 0.81420 0.70920 0.06100
C 	C 	0.63800 0.86700 0.68850 0.03800
C 	C 	0.60730 0.84650 0.67320 0.00800
C 	C 	0.54230 0.79410 0.72690 -0.10100
H 	H 	0.56320 0.80220 0.73830 0.06300
C 	C 	0.69140 0.88540 0.65120 0.01800
C 	C 	0.71060 0.95780 0.69470 -0.37600
H 	H 	0.68430 0.96370 0.68770 0.12800
H 	H 	0.74690 0.98510 0.69090 0.14400
H 	H 	0.70600 0.95990 0.70860 0.13900
N 	N 	0.34287 0.57993 0.77819 -0.24400
N 	N 	0.41727 0.48653 0.81423 -0.11700
N 	N 	0.49407 0.40803 0.85355 -0.12300
N 	N 	0.58087 0.34213 0.89777 -0.24600
C 	C 	0.37887 0.57223 0.78802 0.06900
C 	C 	0.37257 0.52573 0.79676 -0.15000
H 	H 	0.33937 0.49283 0.79653 0.08300
C 	C 	0.41907 0.53063 0.80601 0.07200
C 	C 	0.45997 0.49103 0.82188 -0.01200
C 	C 	0.45247 0.43783 0.83050 0.25400
C 	C 	0.45167 0.40233 0.81324 -0.60500
H 	H 	0.42187 0.39523 0.80453 0.20500
H 	H 	0.44687 0.36833 0.81813 0.20300
H 	H 	0.48557 0.42123 0.80613 0.22200
C 	C 	0.40147 0.41013 0.84254 -0.60200
H 	H 	0.37067 0.40373 0.83463 0.20500
H 	H 	0.40457 0.43293 0.85353 0.20400
H 	H 	0.39627 0.37573 0.84723 0.19700
C 	C 	0.49997 0.44813 0.84282 -0.02000
C 	C 	0.53457 0.41323 0.86486 0.07400
C 	C 	0.52997 0.37033 0.87547 -0.15400
H 	H 	0.49737 0.33683 0.87563 0.07700
C 	C 	0.57357 0.37743 0.88578 0.06400
C 	C 	0.45627 0.24273 0.95003 -0.06900
H 	H 	0.43497 0.23443 0.93873 0.04700
C 	C 	0.43567 0.24273 0.96753 0.04500
C 	C 	0.46867 0.26053 0.98523 0.06400
C 	C 	0.52237 0.28063 0.98473 -0.09200
H 	H 	0.54487 0.29853 0.99543 0.08500
N 	N 	0.37987 0.21903 0.96813 -0.10100
N 	N 	0.44487 0.25513 0.00243 -0.10600
N 	N 	0.22277 0.15043 0.00773 -0.11500
N 	N 	0.28767 0.18083 0.04033 -0.11200
C 	C 	0.29627 0.19483 0.98513 0.11900
C 	C 	0.28997 0.24343 0.97813 -0.46200
H 	H 	0.25177 0.23223 0.97743 0.16500
H 	H 	0.30607 0.25473 0.96533 0.16300
H 	H 	0.30807 0.27323 0.98723 0.14900
C 	C 	0.27047 0.14683 0.97173 0.19200
H 	H 	0.23137 0.12963 0.97273 -0.03100
H 	H 	0.28187 0.12113 0.97543 -0.16000
H 	H 	0.28157 0.15873 0.95843 -0.02100
C 	C 	0.38707 0.23873 0.00193 0.03100
C 	C 	0.39517 0.22223 0.03823 0.30600
H 	H 	0.39137 0.18693 0.03593 -0.14400
H 	H 	0.37887 0.22213 0.05063 -0.04900
H 	H 	0.43327 0.24953 0.03833 -0.04700
C 	C 	0.36827 0.23423 0.02293 -0.01100
C 	C 	0.15387 0.09523 0.06053 0.04800
C 	C 	0.12157 0.08383 0.04443 0.00500
C 	C 	0.14387 0.10333 0.02653 -0.09300
H 	H 	0.12187 0.09543 0.01543 0.01000
C 	C 	0.19757 0.13403 0.02523 0.05700
C 	C 	0.23237 0.14753 0.04253 0.06000
C 	C 	0.30467 0.20033 0.02183 0.03800
C 	C 	0.27397 0.17983 0.00653 0.00900
C 	C 	0.20897 0.12743 0.06023 -0.10000
H 	H 	0.22987 0.13553 0.07163 0.06100
C 	C 	0.35807 0.21873 0.98453 0.01800
C 	C 	0.37727 0.29113 0.02803 -0.36500
H 	H 	0.35097 0.29703 0.02103 0.12100
H 	H 	0.41357 0.31843 0.02423 0.13500
H 	H 	0.37267 0.29323 0.04193 0.13200
N 	N 	0.00953 0.91327 0.11153 -0.24900
N 	N 	0.08393 0.81987 0.14757 -0.11800
N 	N 	0.16073 0.74137 0.18689 -0.12300
N 	N 	0.24753 0.67547 0.23111 -0.24600
C 	C 	0.04553 0.90557 0.12136 0.06600
C 	C 	0.03923 0.85907 0.13010 -0.14900
H 	H 	0.00603 0.82617 0.12987 0.07800
C 	C 	0.08573 0.86397 0.13935 0.07000
C 	C 	0.12663 0.82437 0.15522 -0.01100
C 	C 	0.11913 0.77117 0.16384 0.25200
C 	C 	0.11833 0.73567 0.14658 -0.60400
H 	H 	0.08853 0.72857 0.13787 0.20400
H 	H 	0.11353 0.70167 0.15147 0.20400
H 	H 	0.15223 0.75457 0.13947 0.22100
C 	C 	0.06813 0.74347 0.17588 -0.59700
H 	H 	0.03733 0.73707 0.16797 0.20100
H 	H 	0.07123 0.76627 0.18687 0.20000
H 	H 	0.06293 0.70907 0.18057 0.19400
C 	C 	0.16663 0.78147 0.17616 -0.01900
C 	C 	0.20123 0.74657 0.19820 0.07400
C 	C 	0.19663 0.70367 0.20881 -0.15400
H 	H 	0.16403 0.67017 0.20897 0.07700
C 	C 	0.24023 0.71077 0.21912 0.06400
C 	C 	0.12293 0.57607 0.28337 -0.06800
H 	H 	0.10163 0.56777 0.27207 0.04500
C 	C 	0.10233 0.57607 0.30087 0.04300
C 	C 	0.13533 0.59387 0.31857 0.06400
C 	C 	0.18903 0.61397 0.31807 -0.09300
H 	H 	0.21153 0.63187 0.32877 0.08500
N 	N 	0.04653 0.55237 0.30147 -0.10100
N 	N 	0.11153 0.58847 0.33577 -0.10700
N 	N 	0.88943 0.48377 0.34107 -0.11200
N 	N 	0.95433 0.51417 0.37367 -0.11000
C 	C 	0.96293 0.52817 0.31847 0.14700
C 	C 	0.95663 0.57677 0.31147 -0.48600
H 	H 	0.91843 0.56557 0.31077 0.17300
H 	H 	0.97273 0.58807 0.29867 0.17600
H 	H 	0.97473 0.60657 0.32057 0.16100
C 	C 	0.93713 0.48017 0.30507 0.18800
H 	H 	0.89803 0.46297 0.30607 -0.02900
H 	H 	0.94853 0.45447 0.30877 -0.16300
H 	H 	0.94823 0.49207 0.29177 -0.01600
C 	C 	0.05373 0.57207 0.33527 0.03700
C 	C 	0.06183 0.55557 0.37157 0.29400
H 	H 	0.05803 0.52027 0.36927 -0.13800
H 	H 	0.04553 0.55547 0.38397 -0.05000
H 	H 	0.09993 0.58287 0.37167 -0.04300
C 	C 	0.03493 0.56757 0.35627 -0.03300
C 	C 	0.82053 0.42857 0.39387 0.04500
C 	C 	0.78823 0.41717 0.37777 0.00500
C 	C 	0.81053 0.43667 0.35987 -0.09200
H 	H 	0.78853 0.42877 0.34877 0.01300
C 	C 	0.86423 0.46737 0.35857 0.05600
C 	C 	0.89903 0.48087 0.37587 0.06100
C 	C 	0.97133 0.53367 0.35517 0.06400
C 	C 	0.94063 0.51317 0.33987 -0.00200
C 	C 	0.87563 0.46077 0.39357 -0.09900
H 	H 	0.89653 0.46887 0.40497 0.06300
C 	C 	0.02473 0.55207 0.31787 -0.00800
C 	C 	0.04393 0.62447 0.36137 -0.34300
H 	H 	0.01763 0.63037 0.35437 0.10500
H 	H 	0.08023 0.65177 0.35757 0.12700
H 	H 	0.03933 0.62657 0.37527 0.12000
N 	N 	0.67620 0.42960 0.44486 -0.24400
N 	N 	0.75060 0.59740 0.48090 -0.11700
N 	N 	0.82740 0.75270 0.52022 -0.12300
N 	N 	0.91420 0.90540 0.56444 -0.24200
C 	C 	0.71220 0.47330 0.45469 0.07000
C 	C 	0.70590 0.51350 0.46343 -0.15000
H 	H 	0.67270 0.51320 0.46320 0.08400
C 	C 	0.75240 0.55510 0.47268 0.07200
C 	C 	0.79330 0.63560 0.48855 -0.01100
C 	C 	0.78580 0.68130 0.49717 0.25400
C 	C 	0.78500 0.71600 0.47991 -0.60600
H 	H 	0.75520 0.69330 0.47120 0.20600
H 	H 	0.78020 0.74520 0.48480 0.20400
H 	H 	0.81890 0.73100 0.47280 0.22300
C 	C 	0.73480 0.65800 0.50921 -0.60400
H 	H 	0.70400 0.63360 0.50130 0.20600
H 	H 	0.73790 0.63830 0.52020 0.20500
H 	H 	0.72960 0.68720 0.51390 0.19700
C 	C 	0.83330 0.71850 0.50949 -0.01800
C 	C 	0.86790 0.78800 0.53153 0.07500
C 	C 	0.86330 0.82630 0.54214 -0.15200
H 	H 	0.83070 0.82720 0.54230 0.07700
C 	C 	0.90690 0.86280 0.55245 0.06500
C 	C 	0.78960 0.88020 0.61670 -0.06500
H 	H 	0.76830 0.86720 0.60540 0.04600
C 	C 	0.76900 0.85960 0.63420 0.04200
C 	C 	0.80200 0.87480 0.65190 0.06800
C 	C 	0.85570 0.90840 0.65140 -0.09900
H 	H 	0.87820 0.91300 0.66210 0.09100
N 	N 	0.71320 0.82750 0.63480 -0.10100
N 	N 	0.77820 0.85640 0.66910 -0.10600
N 	N 	0.55610 0.73900 0.67440 -0.11400
N 	N 	0.62100 0.77350 0.70700 -0.11100
C 	C 	0.62960 0.76810 0.65180 0.12000
C 	C 	0.62330 0.71320 0.64480 -0.46300
H 	H 	0.58510 0.68620 0.64410 0.16600
H 	H 	0.63940 0.71800 0.63200 0.16400
H 	H 	0.64140 0.70150 0.65390 0.14900
C 	C 	0.60380 0.79030 0.63840 0.19200
H 	H 	0.56470 0.76840 0.63940 -0.03000
H 	H 	0.61520 0.82740 0.64210 -0.16300
H 	H 	0.61490 0.78950 0.62510 -0.02000
C 	C 	0.72040 0.81500 0.66860 0.03100
C 	C 	0.72850 0.83960 0.70490 0.31000
H 	H 	0.72470 0.87110 0.70260 -0.14800
H 	H 	0.71220 0.82340 0.71730 -0.04800
H 	H 	0.76660 0.85040 0.70500 -0.04500
C 	C 	0.70160 0.80070 0.68960 -0.01100
C 	C 	0.48720 0.72530 0.72720 0.04300
C 	C 	0.45490 0.70440 0.71110 0.00600
C 	C 	0.47720 0.70720 0.69320 -0.09300
H 	H 	0.45520 0.69310 0.68210 0.01300
C 	C 	0.53090 0.73020 0.69190 0.05700
C 	C 	0.56570 0.75150 0.70920 0.05900
C 	C 	0.63800 0.77100 0.68850 0.03800
C 	C 	0.60730 0.76080 0.67320 0.00900
C 	C 	0.54230 0.74820 0.72690 -0.09700
H 	H 	0.56320 0.76100 0.73830 0.06100
C 	C 	0.69140 0.80600 0.65120 0.01700
C 	C 	0.71060 0.75280 0.69470 -0.36800
H 	H 	0.68430 0.72060 0.68770 0.12300
H 	H 	0.74690 0.76180 0.69090 0.13800
H 	H 	0.70600 0.74610 0.70860 0.13400
N 	N 	0.34287 0.76293 0.77819 -0.24300
N 	N 	0.41727 0.93073 0.81423 -0.11800
N 	N 	0.49407 0.08603 0.85355 -0.12600
N 	N 	0.58087 0.23873 0.89777 -0.24600
C 	C 	0.37887 0.80663 0.78802 0.07000
C 	C 	0.37257 0.84683 0.79676 -0.14900
H 	H 	0.33937 0.84653 0.79653 0.08600
C 	C 	0.41907 0.88843 0.80601 0.07400
C 	C 	0.45997 0.96893 0.82188 0.01800
C 	C 	0.45247 0.01463 0.83050 0.17400
C 	C 	0.45167 0.04933 0.81324 -0.54400
H 	H 	0.42187 0.02663 0.80453 0.18200
H 	H 	0.44687 0.07853 0.81813 0.18500
H 	H 	0.48557 0.06433 0.80613 0.20200
C 	C 	0.40147 0.99133 0.84254 -0.44500
H 	H 	0.37067 0.96693 0.83463 0.16800
H 	H 	0.40457 0.97163 0.85353 0.16700
H 	H 	0.39627 0.02053 0.84723 0.13900
C 	C 	0.49997 0.05183 0.84282 -0.00800
C 	C 	0.53457 0.12133 0.86486 0.07300
C 	C 	0.52997 0.15963 0.87547 -0.15400
H 	H 	0.49737 0.16053 0.87563 0.07600
C 	C 	0.57357 0.19613 0.88578 0.06300
C 	C 	0.45627 0.21353 0.95003 -0.06800
H 	H 	0.43497 0.20053 0.93873 0.04600
C 	C 	0.43567 0.19293 0.96753 0.04300
C 	C 	0.46867 0.20813 0.98523 0.06400
C 	C 	0.52237 0.24173 0.98473 -0.09500
H 	H 	0.54487 0.24633 0.99543 0.08600
N 	N 	0.37987 0.16083 0.96813 -0.10200
N 	N 	0.44487 0.18973 0.00243 -0.10700
N 	N 	0.22277 0.07233 0.00773 -0.11700
N 	N 	0.28767 0.10683 0.04033 -0.11300
C 	C 	0.29627 0.10143 0.98513 0.11200
C 	C 	0.28997 0.04653 0.97813 -0.44300
H 	H 	0.25177 0.01953 0.97743 0.15100
H 	H 	0.30607 0.05133 0.96533 0.15300
H 	H 	0.30807 0.03483 0.98723 0.13600
C 	C 	0.27047 0.12363 0.97173 0.19200
H 	H 	0.23137 0.10173 0.97273 -0.03300
H 	H 	0.28187 0.16073 0.97543 -0.16200
H 	H 	0.28157 0.12283 0.95843 -0.02200
C 	C 	0.38707 0.14833 0.00193 0.03000
C 	C 	0.39517 0.17293 0.03823 0.30600
H 	H 	0.39137 0.20443 0.03593 -0.14600
H 	H 	0.37887 0.15673 0.05063 -0.05000
H 	H 	0.43327 0.18373 0.03833 -0.04700
C 	C 	0.36827 0.13403 0.02293 -0.01400
C 	C 	0.15387 0.05863 0.06053 0.04100
C 	C 	0.12157 0.03773 0.04443 -0.00200
C 	C 	0.14387 0.04053 0.02653 -0.09100
H 	H 	0.12187 0.02643 0.01543 0.00400
C 	C 	0.19757 0.06353 0.02523 0.05200
C 	C 	0.23237 0.08483 0.04253 0.05700
C 	C 	0.30467 0.10433 0.02183 0.03600
C 	C 	0.27397 0.09413 0.00653 0.00900
C 	C 	0.20897 0.08153 0.06023 -0.10000
H 	H 	0.22987 0.09433 0.07163 0.05900
C 	C 	0.35807 0.13933 0.98453 0.01900
C 	C 	0.37727 0.08613 0.02803 -0.35300
H 	H 	0.35097 0.05393 0.02103 0.11200
H 	H 	0.41357 0.09513 0.02423 0.12800
H 	H 	0.37267 0.07943 0.04193 0.12400
N 	N 	0.00953 0.09627 0.11153 -0.25300
N 	N 	0.08393 0.26407 0.14757 -0.11900
N 	N 	0.16073 0.41937 0.18689 -0.12300
N 	N 	0.24753 0.57207 0.23111 -0.24600
C 	C 	0.04553 0.13997 0.12136 0.06400
C 	C 	0.03923 0.18017 0.13010 -0.15200
H 	H 	0.00603 0.17987 0.12987 0.07600
C 	C 	0.08573 0.22177 0.13935 0.06900
C 	C 	0.12663 0.30227 0.15522 -0.01200
C 	C 	0.11913 0.34797 0.16384 0.25100
C 	C 	0.11833 0.38267 0.14658 -0.60200
H 	H 	0.08853 0.35997 0.13787 0.20400
H 	H 	0.11353 0.41187 0.15147 0.20400
H 	H 	0.15223 0.39767 0.13947 0.22100
C 	C 	0.06813 0.32467 0.17588 -0.59300
H 	H 	0.03733 0.30027 0.16797 0.19800
H 	H 	0.07123 0.30497 0.18687 0.19700
H 	H 	0.06293 0.35387 0.18057 0.19200
C 	C 	0.16663 0.38517 0.17616 -0.01900
C 	C 	0.20123 0.45467 0.19820 0.07400
C 	C 	0.19663 0.49297 0.20881 -0.15400
H 	H 	0.16403 0.49387 0.20897 0.07700
C 	C 	0.24023 0.52947 0.21912 0.06400
C 	C 	0.12293 0.54687 0.28337 -0.06800
H 	H 	0.10163 0.53387 0.27207 0.04400
C 	C 	0.10233 0.52627 0.30087 0.04200
C 	C 	0.13533 0.54147 0.31857 0.06500
C 	C 	0.18903 0.57507 0.31807 -0.09500
H 	H 	0.21153 0.57967 0.32877 0.08600
N 	N 	0.04653 0.49417 0.30147 -0.10100
N 	N 	0.11153 0.52307 0.33577 -0.10700
N 	N 	0.88943 0.40567 0.34107 -0.11200
N 	N 	0.95433 0.44017 0.37367 -0.11000
C 	C 	0.96293 0.43477 0.31847 0.14800
C 	C 	0.95663 0.37987 0.31147 -0.48500
H 	H 	0.91843 0.35287 0.31077 0.17200
H 	H 	0.97273 0.38467 0.29867 0.17600
H 	H 	0.97473 0.36817 0.32057 0.16100
C 	C 	0.93713 0.45697 0.30507 0.18800
H 	H 	0.89803 0.43507 0.30607 -0.02900
H 	H 	0.94853 0.49407 0.30877 -0.16300
H 	H 	0.94823 0.45617 0.29177 -0.01600
C 	C 	0.05373 0.48167 0.33527 0.03700
C 	C 	0.06183 0.50627 0.37157 0.29400
H 	H 	0.05803 0.53777 0.36927 -0.13900
H 	H 	0.04553 0.49007 0.38397 -0.05000
H 	H 	0.09993 0.51707 0.37167 -0.04300
C 	C 	0.03493 0.46737 0.35627 -0.03400
C 	C 	0.82053 0.39197 0.39387 0.04600
C 	C 	0.78823 0.37107 0.37777 0.00500
C 	C 	0.81053 0.37387 0.35987 -0.09100
H 	H 	0.78853 0.35977 0.34877 0.01300
C 	C 	0.86423 0.39687 0.35857 0.05600
C 	C 	0.89903 0.41817 0.37587 0.06100
C 	C 	0.97133 0.43767 0.35517 0.06400
C 	C 	0.94063 0.42747 0.33987 -0.00300
C 	C 	0.87563 0.41487 0.39357 -0.09900
H 	H 	0.89653 0.42767 0.40497 0.06400
C 	C 	0.02473 0.47267 0.31787 -0.00900
C 	C 	0.04393 0.41947 0.36137 -0.34000
H 	H 	0.01763 0.38727 0.35437 0.10400
H 	H 	0.08023 0.42847 0.35757 0.12500
H 	H 	0.03933 0.41277 0.37527 0.11900
N 	N 	0.57040 0.24660 0.44486 -0.24400
N 	N 	0.40260 0.15320 0.48090 -0.11800
N 	N 	0.24730 0.07470 0.52022 -0.12700
N 	N 	0.09460 0.00880 0.56444 -0.25500
C 	C 	0.52670 0.23890 0.45469 0.06900
C 	C 	0.48650 0.19240 0.46343 -0.15000
H 	H 	0.48680 0.15950 0.46320 0.08200
C 	C 	0.44490 0.19730 0.47268 0.07100
C 	C 	0.36440 0.15770 0.48855 -0.00900
C 	C 	0.31870 0.10450 0.49717 0.24300
C 	C 	0.28400 0.06900 0.47991 -0.58600
H 	H 	0.30670 0.06190 0.47120 0.19500
H 	H 	0.25480 0.03500 0.48480 0.18900
H 	H 	0.26900 0.08790 0.47280 0.21300
C 	C 	0.34200 0.07680 0.50921 -0.58300
H 	H 	0.36640 0.07040 0.50130 0.19600
H 	H 	0.36170 0.09960 0.52020 0.19600
H 	H 	0.31280 0.04240 0.51390 0.18400
C 	C 	0.28150 0.11480 0.50949 -0.01800
C 	C 	0.21200 0.07990 0.53153 0.07000
C 	C 	0.17370 0.03700 0.54214 -0.15400
H 	H 	0.17280 0.00350 0.54230 0.06700
C 	C 	0.13720 0.04410 0.55245 0.05800
C 	C 	0.11980 0.90940 0.61670 -0.07500
H 	H 	0.13280 0.90110 0.60540 0.05100
C 	C 	0.14040 0.90940 0.63420 0.05200
C 	C 	0.12520 0.92720 0.65190 0.06100
C 	C 	0.09160 0.94730 0.65140 -0.08100
H 	H 	0.08700 0.96520 0.66210 0.08700
N 	N 	0.17250 0.88570 0.63480 -0.10100
N 	N 	0.14360 0.92180 0.66910 -0.10500
N 	N 	0.26100 0.81710 0.67440 -0.11400
N 	N 	0.22650 0.84750 0.70700 -0.11200
C 	C 	0.23190 0.86150 0.65180 0.12200
C 	C 	0.28680 0.91010 0.64480 -0.47000
H 	H 	0.31380 0.89890 0.64410 0.16900
H 	H 	0.28200 0.92140 0.63200 0.16900
H 	H 	0.29850 0.93990 0.65390 0.15500
C 	C 	0.20970 0.81350 0.63840 0.19200
H 	H 	0.23160 0.79630 0.63940 -0.03000
H 	H 	0.17260 0.78780 0.64210 -0.16200
H 	H 	0.21050 0.82540 0.62510 -0.02000
C 	C 	0.18500 0.90540 0.66860 0.03100
C 	C 	0.16040 0.88890 0.70490 0.30700
H 	H 	0.12890 0.85360 0.70260 -0.14500
H 	H 	0.17660 0.88880 0.71730 -0.04800
H 	H 	0.14960 0.91620 0.70500 -0.04500
C 	C 	0.19930 0.90090 0.68960 -0.00800
C 	C 	0.27470 0.76190 0.72720 0.05000
C 	C 	0.29560 0.75050 0.71110 0.00200
C 	C 	0.29280 0.77000 0.69320 -0.09000
H 	H 	0.30690 0.76210 0.68210 0.01200
C 	C 	0.26980 0.80070 0.69190 0.05500
C 	C 	0.24850 0.81420 0.70920 0.06200
C 	C 	0.22900 0.86700 0.68850 0.03800
C 	C 	0.23920 0.84650 0.67320 0.00800
C 	C 	0.25180 0.79410 0.72690 -0.10300
H 	H 	0.23900 0.80220 0.73830 0.06400
C 	C 	0.19400 0.88540 0.65120 0.01800
C 	C 	0.24720 0.95780 0.69470 -0.37400
H 	H 	0.27940 0.96370 0.68770 0.12700
H 	H 	0.23820 0.98510 0.69090 0.14200
H 	H 	0.25390 0.95990 0.70860 0.13800
N 	N 	0.23707 0.57993 0.77819 -0.24400
N 	N 	0.06927 0.48653 0.81423 -0.11600
N 	N 	0.91397 0.40803 0.85355 -0.12000
N 	N 	0.76127 0.34213 0.89777 -0.24500
C 	C 	0.19337 0.57223 0.78802 0.06900
C 	C 	0.15317 0.52573 0.79676 -0.15100
H 	H 	0.15347 0.49283 0.79653 0.08100
C 	C 	0.11157 0.53063 0.80601 0.07000
C 	C 	0.03107 0.49103 0.82188 -0.04100
C 	C 	0.98537 0.43783 0.83050 0.33400
C 	C 	0.95067 0.40233 0.81324 -0.66700
H 	H 	0.97337 0.39523 0.80453 0.23000
H 	H 	0.92147 0.36833 0.81813 0.22200
H 	H 	0.93567 0.42123 0.80613 0.24100
C 	C 	0.00867 0.41013 0.84254 -0.76000
H 	H 	0.03307 0.40373 0.83463 0.24200
H 	H 	0.02837 0.43293 0.85353 0.24100
H 	H 	0.97947 0.37573 0.84723 0.25400
C 	C 	0.94817 0.44813 0.84282 -0.03200
C 	C 	0.87867 0.41323 0.86486 0.07500
C 	C 	0.84037 0.37033 0.87547 -0.15400
H 	H 	0.83947 0.33683 0.87563 0.07700
C 	C 	0.80387 0.37743 0.88578 0.06500
C 	C 	0.78647 0.24273 0.95003 -0.07000
H 	H 	0.79947 0.23443 0.93873 0.04800
C 	C 	0.80707 0.24273 0.96753 0.04700
C 	C 	0.79187 0.26053 0.98523 0.06400
C 	C 	0.75827 0.28063 0.98473 -0.09000
H 	H 	0.75367 0.29853 0.99543 0.08500
N 	N 	0.83917 0.21903 0.96813 -0.10100
N 	N 	0.81027 0.25513 0.00243 -0.10600
N 	N 	0.92767 0.15043 0.00773 -0.11200
N 	N 	0.89317 0.18083 0.04033 -0.11100
C 	C 	0.89857 0.19483 0.98513 0.12700
C 	C 	0.95347 0.24343 0.97813 -0.48100
H 	H 	0.98047 0.23223 0.97743 0.18000
H 	H 	0.94867 0.25473 0.96533 0.17300
H 	H 	0.96517 0.27323 0.98723 0.16100
C 	C 	0.87637 0.14683 0.97173 0.19100
H 	H 	0.89827 0.12963 0.97273 -0.02800
H 	H 	0.83927 0.12113 0.97543 -0.16000
H 	H 	0.87717 0.15873 0.95843 -0.01900
C 	C 	0.85167 0.23873 0.00193 0.03100
C 	C 	0.82707 0.22223 0.03823 0.30700
H 	H 	0.79557 0.18693 0.03593 -0.14400
H 	H 	0.84327 0.22213 0.05063 -0.04800
H 	H 	0.81627 0.24953 0.03833 -0.04600
C 	C 	0.86597 0.23423 0.02293 -0.00800
C 	C 	0.94137 0.09523 0.06053 0.05000
C 	C 	0.96227 0.08383 0.04443 0.01400
C 	C 	0.95947 0.10333 0.02653 -0.09500
H 	H 	0.97357 0.09543 0.01543 0.02000
C 	C 	0.93647 0.13403 0.02523 0.06300
C 	C 	0.91517 0.14753 0.04253 0.06100
C 	C 	0.89567 0.20033 0.02183 0.04000
C 	C 	0.90587 0.17983 0.00653 0.00900
C 	C 	0.91847 0.12743 0.06023 -0.09600
H 	H 	0.90567 0.13553 0.07163 0.06300
C 	C 	0.86067 0.21873 0.98453 0.01700
C 	C 	0.91387 0.29113 0.02803 -0.37700
H 	H 	0.94607 0.29703 0.02103 0.13100
H 	H 	0.90487 0.31843 0.02423 0.14200
H 	H 	0.92057 0.29323 0.04193 0.14000
N 	N 	0.90373 0.91327 0.11153 -0.24000
N 	N 	0.73593 0.81987 0.14757 -0.11600
N 	N 	0.58063 0.74137 0.18689 -0.12300
N 	N 	0.42793 0.67547 0.23111 -0.24600
C 	C 	0.86003 0.90557 0.12136 0.07100
C 	C 	0.81983 0.85907 0.13010 -0.14800
H 	H 	0.82013 0.82617 0.12987 0.08500
C 	C 	0.77823 0.86397 0.13935 0.07300
C 	C 	0.69773 0.82437 0.15522 -0.01100
C 	C 	0.65203 0.77117 0.16384 0.25600
C 	C 	0.61733 0.73567 0.14658 -0.60700
H 	H 	0.64003 0.72857 0.13787 0.20700
H 	H 	0.58813 0.70167 0.15147 0.20400
H 	H 	0.60233 0.75457 0.13947 0.22200
C 	C 	0.67533 0.74347 0.17588 -0.60700
H 	H 	0.69973 0.73707 0.16797 0.20800
H 	H 	0.69503 0.76627 0.18687 0.20700
H 	H 	0.64613 0.70907 0.18057 0.19900
C 	C 	0.61483 0.78147 0.17616 -0.02000
C 	C 	0.54533 0.74657 0.19820 0.07500
C 	C 	0.50703 0.70367 0.20881 -0.15400
H 	H 	0.50613 0.67017 0.20897 0.07700
C 	C 	0.47053 0.71077 0.21912 0.06400
C 	C 	0.45313 0.57607 0.28337 -0.06900
H 	H 	0.46613 0.56777 0.27207 0.04700
C 	C 	0.47373 0.57607 0.30087 0.04500
C 	C 	0.45853 0.59387 0.31857 0.06400
C 	C 	0.42493 0.61397 0.31807 -0.09200
H 	H 	0.42033 0.63187 0.32877 0.08500
N 	N 	0.50583 0.55237 0.30147 -0.10100
N 	N 	0.47693 0.58847 0.33577 -0.10600
N 	N 	0.59433 0.48377 0.34107 -0.11400
N 	N 	0.55983 0.51417 0.37367 -0.11200
C 	C 	0.56523 0.52817 0.31847 0.12000
C 	C 	0.62013 0.57677 0.31147 -0.46300
H 	H 	0.64713 0.56557 0.31077 0.16600
H 	H 	0.61533 0.58807 0.29867 0.16400
H 	H 	0.63183 0.60657 0.32057 0.14900
C 	C 	0.54303 0.48017 0.30507 0.19200
H 	H 	0.56493 0.46297 0.30607 -0.03000
H 	H 	0.50593 0.45447 0.30877 -0.16200
H 	H 	0.54383 0.49207 0.29177 -0.02100
C 	C 	0.51833 0.57207 0.33527 0.03100
C 	C 	0.49373 0.55557 0.37157 0.30700
H 	H 	0.46223 0.52027 0.36927 -0.14600
H 	H 	0.50993 0.55547 0.38397 -0.04900
H 	H 	0.48293 0.58287 0.37167 -0.04600
C 	C 	0.53263 0.56757 0.35627 -0.01100
C 	C 	0.60803 0.42857 0.39387 0.04500
C 	C 	0.62893 0.41717 0.37777 0.00500
C 	C 	0.62613 0.43667 0.35987 -0.09200
H 	H 	0.64023 0.42877 0.34877 0.01300
C 	C 	0.60313 0.46737 0.35857 0.05700
C 	C 	0.58183 0.48087 0.37587 0.06000
C 	C 	0.56233 0.53367 0.35517 0.03800
C 	C 	0.57253 0.51317 0.33987 0.00900
C 	C 	0.58513 0.46077 0.39357 -0.09900
H 	H 	0.57233 0.46887 0.40497 0.06100
C 	C 	0.52733 0.55207 0.31787 0.01800
C 	C 	0.58053 0.62447 0.36137 -0.36600
H 	H 	0.61273 0.63037 0.35437 0.12200
H 	H 	0.57153 0.65177 0.35757 0.13600
H 	H 	0.58723 0.62657 0.37527 0.13300
N 	N 	0.75340 0.32380 0.44486 -0.24400
N 	N 	0.84680 0.24940 0.48090 -0.11500
N 	N 	0.92530 0.17260 0.52022 -0.12000
N 	N 	0.99120 0.08580 0.56444 -0.23900
C 	C 	0.76110 0.28780 0.45469 0.07000
C 	C 	0.80760 0.29410 0.46343 -0.15000
H 	H 	0.84050 0.32730 0.46320 0.08600
C 	C 	0.80270 0.24760 0.47268 0.07200
C 	C 	0.84230 0.20670 0.48855 -0.01700
C 	C 	0.89550 0.21420 0.49717 0.26800
C 	C 	0.93100 0.21500 0.47991 -0.62600
H 	H 	0.93810 0.24480 0.47120 0.21600
H 	H 	0.96500 0.21980 0.48480 0.21700
H 	H 	0.91210 0.18110 0.47280 0.23000
C 	C 	0.92320 0.26520 0.50921 -0.62400
H 	H 	0.92960 0.29600 0.50130 0.21600
H 	H 	0.90040 0.26210 0.52020 0.21200
H 	H 	0.95760 0.27040 0.51390 0.21000
C 	C 	0.88520 0.16670 0.50949 -0.02400
C 	C 	0.92010 0.13210 0.53153 0.07800
C 	C 	0.96300 0.13670 0.54214 -0.15600
H 	H 	0.99650 0.16930 0.54230 0.08600
C 	C 	0.95590 0.09310 0.55245 0.06900
C 	C 	0.09060 0.21040 0.61670 -0.06600
H 	H 	0.09890 0.23170 0.60540 0.04400
C 	C 	0.09060 0.23100 0.63420 0.04000
C 	C 	0.07280 0.19800 0.65190 0.06400
C 	C 	0.05270 0.14430 0.65140 -0.10000
H 	H 	0.03480 0.12180 0.66210 0.08100
N 	N 	0.11430 0.28680 0.63480 -0.10200
N 	N 	0.07820 0.22180 0.66910 -0.10900
N 	N 	0.18290 0.44390 0.67440 -0.11500
N 	N 	0.15250 0.37900 0.70700 -0.11200
C 	C 	0.13850 0.37040 0.65180 0.11700
C 	C 	0.08990 0.37670 0.64480 -0.45400
H 	H 	0.10110 0.41490 0.64410 0.16200
H 	H 	0.07860 0.36060 0.63200 0.15700
H 	H 	0.06010 0.35860 0.65390 0.14300
C 	C 	0.18650 0.39620 0.63840 0.19200
H 	H 	0.20370 0.43530 0.63940 -0.03100
H 	H 	0.21220 0.38480 0.64210 -0.16200
H 	H 	0.17460 0.38510 0.62510 -0.02100
C 	C 	0.09460 0.27960 0.66860 0.03000
C 	C 	0.11110 0.27150 0.70490 0.30400
H 	H 	0.14640 0.27530 0.70260 -0.14500
H 	H 	0.11120 0.28780 0.71730 -0.05000
H 	H 	0.08380 0.23340 0.70500 -0.04900
C 	C 	0.09910 0.29840 0.68960 -0.01400
C 	C 	0.23810 0.51280 0.72720 0.04200
C 	C 	0.24950 0.54510 0.71110 0.00700
C 	C 	0.23000 0.52280 0.69320 -0.09400
H 	H 	0.23790 0.54480 0.68210 0.01300
C 	C 	0.19930 0.46910 0.69190 0.05800
C 	C 	0.18580 0.43430 0.70920 0.05800
C 	C 	0.13300 0.36200 0.68850 0.03800
C 	C 	0.15350 0.39270 0.67320 0.00900
C 	C 	0.20590 0.45770 0.72690 -0.09600
H 	H 	0.19780 0.43680 0.73830 0.05900
C 	C 	0.11460 0.30860 0.65120 0.01700
C 	C 	0.04220 0.28940 0.69470 -0.35400
H 	H 	0.03630 0.31570 0.68770 0.11500
H 	H 	0.01490 0.25310 0.69090 0.12600
H 	H 	0.04010 0.29400 0.70860 0.12400
N 	N 	0.42007 0.65713 0.77819 -0.24400
N 	N 	0.51347 0.58273 0.81423 -0.11700
N 	N 	0.59197 0.50593 0.85355 -0.12300
N 	N 	0.65787 0.41913 0.89777 -0.24600
C 	C 	0.42777 0.62113 0.78802 0.07000
C 	C 	0.47427 0.62743 0.79676 -0.15000
H 	H 	0.50717 0.66063 0.79653 0.08400
C 	C 	0.46937 0.58093 0.80601 0.07200
C 	C 	0.50897 0.54003 0.82188 -0.01200
C 	C 	0.56217 0.54753 0.83050 0.25600
C 	C 	0.59767 0.54833 0.81324 -0.60700
H 	H 	0.60477 0.57813 0.80453 0.20700
H 	H 	0.63167 0.55313 0.81813 0.20400
H 	H 	0.57877 0.51443 0.80613 0.22200
C 	C 	0.58987 0.59853 0.84254 -0.60500
H 	H 	0.59627 0.62933 0.83463 0.20700
H 	H 	0.56707 0.59543 0.85353 0.20500
H 	H 	0.62427 0.60373 0.84723 0.19800
C 	C 	0.55187 0.50003 0.84282 -0.02000
C 	C 	0.58677 0.46543 0.86486 0.07400
C 	C 	0.62967 0.47003 0.87547 -0.15400
H 	H 	0.66317 0.50263 0.87563 0.07700
C 	C 	0.62257 0.42643 0.88578 0.06400
C 	C 	0.75727 0.54373 0.95003 -0.06800
H 	H 	0.76557 0.56503 0.93873 0.04700
C 	C 	0.75727 0.56433 0.96753 0.04400
C 	C 	0.73947 0.53133 0.98523 0.06500
C 	C 	0.71937 0.47763 0.98473 -0.09500
H 	H 	0.70147 0.45513 0.99543 0.08600
N 	N 	0.78097 0.62013 0.96813 -0.10100
N 	N 	0.74487 0.55513 0.00243 -0.10700
N 	N 	0.84957 0.77723 0.00773 -0.11400
N 	N 	0.81917 0.71233 0.04033 -0.11200
C 	C 	0.80517 0.70373 0.98513 0.12000
C 	C 	0.75657 0.71003 0.97813 -0.46300
H 	H 	0.76777 0.74823 0.97743 0.16600
H 	H 	0.74527 0.69393 0.96533 0.16400
H 	H 	0.72677 0.69193 0.98723 0.14900
C 	C 	0.85317 0.72953 0.97173 0.19200
H 	H 	0.87037 0.76863 0.97273 -0.03000
H 	H 	0.87887 0.71813 0.97543 -0.16400
H 	H 	0.84127 0.71843 0.95843 -0.02000
C 	C 	0.76127 0.61293 0.00193 0.03100
C 	C 	0.77777 0.60483 0.03823 0.30800
H 	H 	0.81307 0.60863 0.03593 -0.14700
H 	H 	0.77787 0.62113 0.05063 -0.04900
H 	H 	0.75047 0.56673 0.03833 -0.04700
C 	C 	0.76577 0.63173 0.02293 -0.01200
C 	C 	0.90477 0.84613 0.06053 0.04300
C 	C 	0.91617 0.87843 0.04443 0.00500
C 	C 	0.89667 0.85613 0.02653 -0.09100
H 	H 	0.90457 0.87813 0.01543 0.01700
C 	C 	0.86597 0.80243 0.02523 0.05600
C 	C 	0.85247 0.76763 0.04253 0.05900
C 	C 	0.79967 0.69533 0.02183 0.03800
C 	C 	0.82017 0.72603 0.00653 0.00800
C 	C 	0.87257 0.79103 0.06023 -0.09900
H 	H 	0.86447 0.77013 0.07163 0.06200
C 	C 	0.78127 0.64193 0.98453 0.01700
C 	C 	0.70887 0.62273 0.02803 -0.36500
H 	H 	0.70297 0.64903 0.02103 0.12100
H 	H 	0.68157 0.58643 0.02423 0.13500
H 	H 	0.70677 0.62733 0.04193 0.13200
N 	N 	0.08673 0.99047 0.11153 -0.23700
N 	N 	0.18013 0.91607 0.14757 -0.11600
N 	N 	0.25863 0.83927 0.18689 -0.12300
N 	N 	0.32453 0.75247 0.23111 -0.24600
C 	C 	0.09443 0.95447 0.12136 0.07400
C 	C 	0.14093 0.96077 0.13010 -0.15100
H 	H 	0.17383 0.99397 0.12987 0.09100
C 	C 	0.13603 0.91427 0.13935 0.07400
C 	C 	0.17563 0.87337 0.15522 -0.01300
C 	C 	0.22883 0.88087 0.16384 0.25800
C 	C 	0.26433 0.88167 0.14658 -0.60900
H 	H 	0.27143 0.91147 0.13787 0.20800
H 	H 	0.29833 0.88647 0.15147 0.20300
H 	H 	0.24543 0.84777 0.13947 0.22300
C 	C 	0.25653 0.93187 0.17588 -0.61200
H 	H 	0.26293 0.96267 0.16797 0.21100
H 	H 	0.23373 0.92877 0.18687 0.20900
H 	H 	0.29093 0.93707 0.18057 0.20100
C 	C 	0.21853 0.83337 0.17616 -0.02100
C 	C 	0.25343 0.79877 0.19820 0.07400
C 	C 	0.29633 0.80337 0.20881 -0.15400
H 	H 	0.32983 0.83597 0.20897 0.07700
C 	C 	0.28923 0.75977 0.21912 0.06400
C 	C 	0.42393 0.87707 0.28337 -0.06800
H 	H 	0.43223 0.89837 0.27207 0.04900
C 	C 	0.42393 0.89767 0.30087 0.04600
C 	C 	0.40613 0.86467 0.31857 0.06400
C 	C 	0.38603 0.81097 0.31807 -0.09400
H 	H 	0.36813 0.78847 0.32877 0.08600
N 	N 	0.44763 0.95347 0.30147 -0.10100
N 	N 	0.41153 0.88847 0.33577 -0.10600
N 	N 	0.51623 0.11057 0.34107 -0.11600
N 	N 	0.48583 0.04567 0.37367 -0.11400
C 	C 	0.47183 0.03707 0.31847 0.09200
C 	C 	0.42323 0.04337 0.31147 -0.43800
H 	H 	0.43443 0.08157 0.31077 0.15800
H 	H 	0.41193 0.02727 0.29867 0.15100
H 	H 	0.39343 0.02527 0.32057 0.13600
C 	C 	0.51983 0.06287 0.30507 0.19600
H 	H 	0.53703 0.10197 0.30607 -0.03100
H 	H 	0.54553 0.05147 0.30877 -0.16200
H 	H 	0.50793 0.05177 0.29177 -0.02600
C 	C 	0.42793 0.94627 0.33527 0.02400
C 	C 	0.44443 0.93817 0.37157 0.32000
H 	H 	0.47973 0.94197 0.36927 -0.15300
H 	H 	0.44453 0.95447 0.38397 -0.04700
H 	H 	0.41713 0.90007 0.37167 -0.05000
C 	C 	0.43243 0.96507 0.35627 0.01200
C 	C 	0.57143 0.17947 0.39387 0.04400
C 	C 	0.58283 0.21177 0.37777 0.00600
C 	C 	0.56333 0.18947 0.35987 -0.09300
H 	H 	0.57123 0.21147 0.34877 0.01300
C 	C 	0.53263 0.13577 0.35857 0.05800
C 	C 	0.51913 0.10097 0.37587 0.05800
C 	C 	0.46633 0.02867 0.35517 0.01200
C 	C 	0.48683 0.05937 0.33987 0.02000
C 	C 	0.53923 0.12437 0.39357 -0.09800
H 	H 	0.53113 0.10347 0.40497 0.05900
C 	C 	0.44793 0.97527 0.31787 0.04300
C 	C 	0.37553 0.95607 0.36137 -0.38800
H 	H 	0.36963 0.98237 0.35437 0.13800
H 	H 	0.34823 0.91977 0.35757 0.14300
H 	H 	0.37343 0.96067 0.37527 0.14400
Zn	Zn	0.66667 0.33333 0.41979 1.14500
Zn	Zn	0.33333 0.66667 0.75312 1.14500
Zn	Zn	0.00000 0.00000 0.08646 1.13100
Zn	Zn	0.59791 0.40209 0.43779 1.19000
Cl	Cl	0.55857 0.44143 0.44741 -0.61200
Zn	Zn	0.26458 0.73542 0.77112 1.19000
Cl	Cl	0.22524 0.77476 0.78074 -0.61200
Zn	Zn	0.93124 0.06876 0.10446 1.19100
Cl	Cl	0.89190 0.10810 0.11408 -0.61100
Zn	Zn	0.80418 0.40209 0.43779 1.19000
Cl	Cl	0.88286 0.44143 0.44741 -0.60600
Zn	Zn	0.47085 0.73542 0.77112 1.19000
Cl	Cl	0.54953 0.77476 0.78074 -0.60800
Zn	Zn	0.13751 0.06876 0.10446 1.18600
Cl	Cl	0.21619 0.10810 0.11408 -0.62300
Zn	Zn	0.59791 0.19582 0.43779 1.19000
Cl	Cl	0.55857 0.11714 0.44741 -0.61800
Zn	Zn	0.26458 0.52915 0.77112 1.19000
Cl	Cl	0.22524 0.45047 0.78074 -0.61600
Zn	Zn	0.93124 0.86249 0.10446 1.19400
Cl	Cl	0.89190 0.78381 0.11408 -0.60100
Zn	Zn	0.06791 0.13582 0.57208 1.18300
Cl	Cl	0.10767 0.21534 0.56114 -0.63600
N 	N 	0.27196 0.54391 0.74248 -0.24800
N 	N 	0.29775 0.59550 0.73556 -0.20100
N 	N 	0.29845 0.59690 0.71700 -0.23700
N 	N 	0.05885 0.11770 0.60080 -0.24100
N 	N 	0.03505 0.07010 0.60769 -0.20200
N 	N 	0.03520 0.07040 0.62649 -0.22400
C 	C 	0.06100 0.12200 0.63230 0.08000
C 	C 	0.07765 0.15530 0.61560 0.03300
Zn	Zn	0.73458 0.46915 0.90541 1.18700
Cl	Cl	0.77434 0.54867 0.89447 -0.62700
N 	N 	0.93862 0.87724 0.07581 -0.24500
N 	N 	0.96442 0.92883 0.06889 -0.19000
N 	N 	0.96512 0.93023 0.05033 -0.22700
N 	N 	0.72552 0.45103 0.93413 -0.23800
N 	N 	0.70172 0.40343 0.94102 -0.19400
N 	N 	0.70187 0.40373 0.95982 -0.21800
C 	C 	0.72767 0.45533 0.96563 0.08400
C 	C 	0.74432 0.48863 0.94893 0.03600
Zn	Zn	0.40124 0.80249 0.23875 1.18700
Cl	Cl	0.44100 0.88201 0.22781 -0.62500
N 	N 	0.60529 0.21058 0.40915 -0.24800
N 	N 	0.63108 0.26217 0.40223 -0.20100
N 	N 	0.63178 0.26357 0.38367 -0.23700
N 	N 	0.39218 0.78437 0.26747 -0.23800
N 	N 	0.36838 0.73677 0.27436 -0.19400
N 	N 	0.36853 0.73707 0.29316 -0.21800
C 	C 	0.39433 0.78867 0.29897 0.08400
C 	C 	0.41098 0.82197 0.28227 0.03700
Zn	Zn	0.06791 0.93209 0.57208 1.18700
Cl	Cl	0.10767 0.89233 0.56114 -0.62700
N 	N 	0.27196 0.72804 0.74248 -0.24800
N 	N 	0.29775 0.70225 0.73556 -0.20100
N 	N 	0.29845 0.70155 0.71700 -0.23700
N 	N 	0.05885 0.94115 0.60080 -0.23700
N 	N 	0.03505 0.96495 0.60769 -0.19200
N 	N 	0.03520 0.96480 0.62649 -0.21500
C 	C 	0.06100 0.93900 0.63230 0.08400
C 	C 	0.07765 0.92235 0.61560 0.03600
Zn	Zn	0.73458 0.26542 0.90541 1.18700
Cl	Cl	0.77434 0.22566 0.89447 -0.62800
N 	N 	0.93862 0.06138 0.07581 -0.24700
N 	N 	0.96442 0.03558 0.06889 -0.19900
N 	N 	0.96512 0.03488 0.05033 -0.23400
N 	N 	0.72552 0.27448 0.93413 -0.23800
N 	N 	0.70172 0.29828 0.94102 -0.19400
N 	N 	0.70187 0.29813 0.95982 -0.21800
C 	C 	0.72767 0.27233 0.96563 0.08400
C 	C 	0.74432 0.25568 0.94893 0.03600
Zn	Zn	0.40124 0.59876 0.23875 1.18700
Cl	Cl	0.44100 0.55900 0.22781 -0.62800
N 	N 	0.60529 0.39471 0.40915 -0.24800
N 	N 	0.63108 0.36892 0.40223 -0.20100
N 	N 	0.63178 0.36822 0.38367 -0.23700
N 	N 	0.39218 0.60782 0.26747 -0.23800
N 	N 	0.36838 0.63162 0.27436 -0.19400
N 	N 	0.36853 0.63147 0.29316 -0.21800
C 	C 	0.39433 0.60567 0.29897 0.08400
C 	C 	0.41098 0.58902 0.28227 0.03600
Zn	Zn	0.86418 0.93209 0.57208 1.19100
Cl	Cl	0.78466 0.89233 0.56114 -0.62100
N 	N 	0.45609 0.72804 0.74248 -0.24800
N 	N 	0.40450 0.70225 0.73556 -0.20100
N 	N 	0.40310 0.70155 0.71700 -0.23700
N 	N 	0.88230 0.94115 0.60080 -0.23500
N 	N 	0.92990 0.96495 0.60769 -0.18400
N 	N 	0.92960 0.96480 0.62649 -0.20800
C 	C 	0.87800 0.93900 0.63230 0.08800
C 	C 	0.84470 0.92235 0.61560 0.03800
Zn	Zn	0.53085 0.26542 0.90541 1.18700
Cl	Cl	0.45133 0.22566 0.89447 -0.62900
N 	N 	0.12276 0.06138 0.07581 -0.25100
N 	N 	0.07117 0.03558 0.06889 -0.20800
N 	N 	0.06977 0.03488 0.05033 -0.24300
N 	N 	0.54897 0.27448 0.93413 -0.23800
N 	N 	0.59657 0.29828 0.94102 -0.19400
N 	N 	0.59627 0.29813 0.95982 -0.21800
C 	C 	0.54467 0.27233 0.96563 0.08300
C 	C 	0.51137 0.25568 0.94893 0.03500
Zn	Zn	0.19751 0.59876 0.23875 1.18700
Cl	Cl	0.11799 0.55900 0.22781 -0.63100
N 	N 	0.78942 0.39471 0.40915 -0.24800
N 	N 	0.73783 0.36892 0.40223 -0.20100
N 	N 	0.73643 0.36822 0.38367 -0.23700
N 	N 	0.21563 0.60782 0.26747 -0.23800
N 	N 	0.26323 0.63162 0.27436 -0.19400
N 	N 	0.26293 0.63147 0.29316 -0.21800
C 	C 	0.21133 0.60567 0.29897 0.08400
C 	C 	0.17803 0.58902 0.28227 0.03400
Zn	Zn	-0.00000 -0.00000 0.58946 1.13200
Zn	Zn	-0.00000 -0.00000 0.64330 1.21200
Cl	Cl	0.00000 0.00000 0.67150 -0.46000
Zn	Zn	0.66667 0.33333 0.92279 1.14600
Zn	Zn	0.66667 0.33333 0.97663 1.22400
Cl	Cl	0.66667 0.33333 0.00483 -0.41300
Zn	Zn	0.33333 0.66667 0.25613 1.14600
Zn	Zn	0.33333 0.66667 0.30997 1.22400
Cl	Cl	0.33333 0.66667 0.33817 -0.41300
N 	N 	0.59510 0.29755 0.43858 -0.19800
N 	N 	0.07140 0.03570 0.57106 -0.20700
N 	N 	0.26177 0.63088 0.77191 -0.19800
N 	N 	0.73807 0.36903 0.90439 -0.19900
N 	N 	0.92843 0.96422 0.10525 -0.18700
N 	N 	0.40473 0.70237 0.23773 -0.19900
N 	N 	0.70245 0.40490 0.43858 -0.19800
N 	N 	0.96430 0.92860 0.57106 -0.18900
N 	N 	0.36912 0.73823 0.77191 -0.19800
N 	N 	0.63097 0.26193 0.90439 -0.20000
N 	N 	0.03578 0.07157 0.10525 -0.20600
N 	N 	0.29763 0.59527 0.23773 -0.20000
N 	N 	0.70245 0.29755 0.43858 -0.19800
N 	N 	0.96430 0.03570 0.57106 -0.19700
N 	N 	0.36912 0.63088 0.77191 -0.19800
N 	N 	0.63097 0.36903 0.90439 -0.20000
N 	N 	0.03578 0.96422 0.10525 -0.19600
N 	N 	0.29763 0.70237 0.23773 -0.20000
Zn	Zn	0.33333 0.66667 0.69915 1.10200
Zn	Zn	-0.00000 -0.00000 0.03248 1.08800
Zn	Zn	0.66667 0.33333 0.36582 1.10200
O 	O 	0.96810 0.03190 0.66290 -0.18900
O 	O 	0.63477 0.36523 0.99623 -0.20400
O 	O 	0.30143 0.69857 0.32957 -0.20400
O 	O 	0.06380 0.03190 0.66290 -0.21100
O 	O 	0.73047 0.36523 0.99623 -0.20300
O 	O 	0.39713 0.69857 0.32957 -0.20400
O 	O 	0.96810 0.93620 0.66290 -0.17100
O 	O 	0.63477 0.26953 0.99623 -0.20500
O 	O 	0.30143 0.60287 0.32957 -0.20500
