data_crystal

_cell_length_a 10.75510
_cell_length_b 10.75510
_cell_length_c 10.75510
_cell_angle_alpha 104.04100
_cell_angle_beta  112.25300
_cell_angle_gamma 112.25300

_symmetry_space_group_name_	'P 1'
_symmetry_space_group_name_H-M	'P 1'

loop_
_symmetry_equiv_pos_as_xyz
  x,y,z

loop_
_atom_site_label
_atom_site_type_symbol
_atom_site_fract_x
_atom_site_fract_y
_atom_site_fract_z
_atom_site_charge
Nb	Nb	-0.00000 0.24964 0.24964 1.14300
Nb	Nb	-0.00000 0.75036 0.75036 1.14600
Fe	Fe	0.49202 0.80115 0.69087 1.03100
Fe	Fe	0.50798 0.19885 0.30913 1.03100
Fe	Fe	0.88972 0.69087 0.19885 1.06300
Fe	Fe	0.11028 0.30913 0.80115 1.00000
C 	C 	0.78080 0.07641 0.02381 -0.08500
C 	C 	0.80001 0.19042 0.29223 -0.10200
C 	C 	0.21920 0.24301 0.29561 -0.21500
C 	C 	0.19999 0.49222 0.39041 -0.22600
C 	C 	0.94740 0.02381 0.24301 -0.04300
C 	C 	0.10181 0.29223 0.49222 -0.25900
C 	C 	0.05260 0.29561 0.07641 -0.25400
C 	C 	0.89819 0.39041 0.19042 -0.06800
C 	C 	0.21920 0.92359 0.97619 -0.23400
C 	C 	0.19999 0.80958 0.70777 -0.22700
C 	C 	0.78080 0.75699 0.70439 -0.10600
C 	C 	0.80001 0.50778 0.60959 -0.10300
C 	C 	0.05260 0.97619 0.75699 -0.27200
C 	C 	0.89819 0.70777 0.50778 -0.07000
C 	C 	0.94740 0.70439 0.92359 -0.06400
C 	C 	0.10181 0.60959 0.80958 -0.26000
N 	N 	0.66807 0.98349 0.91176 -0.26000
N 	N 	0.69393 0.16478 0.30643 -0.23800
N 	N 	0.33193 0.24369 0.31542 -0.23600
N 	N 	0.30607 0.61250 0.47085 -0.23500
N 	N 	0.92827 0.91176 0.24369 -0.24200
N 	N 	0.14165 0.30643 0.61250 -0.23900
N 	N 	0.07173 0.31542 0.98349 -0.25400
N 	N 	0.85835 0.47085 0.16478 -0.23400
N 	N 	0.33193 0.01651 0.08824 -0.22300
N 	N 	0.30607 0.83522 0.69357 -0.23600
N 	N 	0.66807 0.75631 0.68458 -0.24500
N 	N 	0.69393 0.38750 0.52915 -0.23900
N 	N 	0.07173 0.08824 0.75631 -0.24200
N 	N 	0.85835 0.69357 0.38750 -0.23500
N 	N 	0.92827 0.68458 0.01651 -0.22800
N 	N 	0.14165 0.52915 0.83522 -0.24000
