data_crystal

_cell_length_a 7.96260
_cell_length_b 12.13310
_cell_length_c 13.31820
_cell_angle_alpha 111.95100
_cell_angle_beta  104.93800
_cell_angle_gamma 91.57600

_symmetry_space_group_name_	'P 1'
_symmetry_space_group_name_H-M	'P 1'

loop_
_symmetry_equiv_pos_as_xyz
  x,y,z

loop_
_atom_site_label
_atom_site_type_symbol
_atom_site_fract_x
_atom_site_fract_y
_atom_site_fract_z
_atom_site_charge
Gd	Gd	0.74870 0.98128 0.01058 1.58500
Gd	Gd	0.25130 0.01872 0.98942 1.58500
H 	H 	0.07650 0.15290 0.41570 0.01400
H 	H 	0.06790 0.27520 0.40130 0.00300
H 	H 	0.29150 0.11230 0.31480 0.19600
H 	H 	0.25600 0.22790 0.29040 0.19300
H 	H 	0.58630 0.10950 0.67350 0.01100
H 	H 	0.69010 0.22600 0.77640 0.01100
H 	H 	0.35270 0.12020 0.75140 0.18800
H 	H 	0.44820 0.24080 0.85180 0.17800
H 	H 	0.61390 0.60140 0.77030 -0.00300
H 	H 	0.50330 0.61080 0.65840 -0.00100
H 	H 	0.34760 0.59150 0.82010 0.19600
H 	H 	0.25090 0.61720 0.71450 0.20600
H 	H 	0.92350 0.84710 0.58430 0.01400
H 	H 	0.93210 0.72480 0.59870 0.00300
H 	H 	0.70850 0.88770 0.68520 0.19600
H 	H 	0.74400 0.77210 0.70960 0.19300
H 	H 	0.41370 0.89050 0.32650 0.01100
H 	H 	0.30990 0.77400 0.22360 0.01100
H 	H 	0.64730 0.87980 0.24860 0.18800
H 	H 	0.55180 0.75920 0.14820 0.17800
H 	H 	0.38610 0.39860 0.22970 -0.00300
H 	H 	0.49670 0.38920 0.34160 -0.00100
H 	H 	0.65240 0.40850 0.17990 0.19600
H 	H 	0.74910 0.38280 0.28550 0.20600
C 	C 	0.33620 0.39680 0.55520 0.29100
C 	C 	0.36400 0.20180 0.56700 0.28800
C 	C 	0.53290 0.38170 0.72250 0.28900
C 	C 	0.14440 0.21620 0.40920 0.16800
C 	C 	0.20340 0.16370 0.30400 -0.47800
C 	C 	0.05080 0.09220 0.20350 0.48200
C 	C 	0.57380 0.18580 0.72850 0.16600
C 	C 	0.46670 0.16420 0.80010 -0.48500
C 	C 	0.55580 0.09470 0.86690 0.50400
C 	C 	0.49940 0.57890 0.71480 0.18700
C 	C 	0.36210 0.63230 0.77210 -0.51300
C 	C 	0.40490 0.76510 0.84260 0.52900
C 	C 	0.66380 0.60320 0.44480 0.29100
C 	C 	0.63600 0.79820 0.43300 0.28800
C 	C 	0.46710 0.61830 0.27750 0.28900
C 	C 	0.85560 0.78380 0.59080 0.16800
C 	C 	0.79660 0.83630 0.69600 -0.47800
C 	C 	0.94920 0.90780 0.79650 0.48200
C 	C 	0.42620 0.81420 0.27150 0.16600
C 	C 	0.53330 0.83580 0.19990 -0.48500
C 	C 	0.44420 0.90530 0.13310 0.50400
C 	C 	0.50060 0.42110 0.28520 0.18700
C 	C 	0.63790 0.36770 0.22790 -0.51300
C 	C 	0.59510 0.23490 0.15740 0.52900
N 	N 	0.45870 0.44690 0.66010 -0.21200
N 	N 	0.29010 0.27350 0.51350 -0.21300
N 	N 	0.48930 0.25960 0.66940 -0.21400
N 	N 	0.54130 0.55310 0.33990 -0.21200
N 	N 	0.70990 0.72650 0.48650 -0.21300
N 	N 	0.51070 0.74040 0.33060 -0.21400
O 	O 	0.92310 0.04380 0.21460 -0.40400
O 	O 	0.05480 0.08680 0.10540 -0.52800
O 	O 	0.55610 0.81550 0.85990 -0.46500
O 	O 	0.28480 0.81500 0.88000 -0.43700
O 	O 	0.46800 0.05110 0.91380 -0.55400
O 	O 	0.71410 0.08280 0.87810 -0.43300
O 	O 	0.63270 0.43020 0.81650 -0.25400
O 	O 	0.27220 0.45590 0.50390 -0.24800
O 	O 	0.32180 0.09410 0.52540 -0.24300
O 	O 	0.07690 0.95620 0.78540 -0.40400
O 	O 	0.94520 0.91320 0.89460 -0.52800
O 	O 	0.44390 0.18450 0.14010 -0.46500
O 	O 	0.71520 0.18500 0.12000 -0.43700
O 	O 	0.53200 0.94890 0.08620 -0.55400
O 	O 	0.28590 0.91720 0.12190 -0.43300
O 	O 	0.36730 0.56980 0.18350 -0.25400
O 	O 	0.72780 0.54410 0.49610 -0.24800
O 	O 	0.67820 0.90590 0.47460 -0.24300
