data_crystal

_cell_length_a 13.98220
_cell_length_b 13.98220
_cell_length_c 6.22330
_cell_angle_alpha 90.00000
_cell_angle_beta  90.00000
_cell_angle_gamma 90.00000

_symmetry_space_group_name_	'P 1'
_symmetry_space_group_name_H-M	'P 1'

loop_
_symmetry_equiv_pos_as_xyz
  x,y,z

loop_
_atom_site_label
_atom_site_type_symbol
_atom_site_fract_x
_atom_site_fract_y
_atom_site_fract_z
_atom_site_charge
N 	N 	0.64090 0.70440 0.07370 -0.27600
C 	C 	0.55490 0.62750 0.83550 -0.01600
C 	C 	0.49700 0.69760 0.91540 -0.02700
C 	C 	0.64060 0.63280 0.92950 0.01000
C 	C 	0.55280 0.74180 0.06260 0.02300
C 	C 	0.52470 0.56190 0.66460 -0.00200
C 	C 	0.55550 0.46720 0.66840 -0.02300
H 	H 	0.59230 0.44490 0.78230 0.03800
C 	C 	0.46890 0.59320 0.49730 -0.02900
H 	H 	0.44730 0.65610 0.49590 0.03800
H 	H 	0.69900 0.59700 0.91900 -0.00000
H 	H 	0.54100 0.79300 0.15500 0.00200
N 	N 	0.44510 0.37250 0.16450 -0.14600
N 	N 	0.85910 0.79560 0.07370 -0.27600
C 	C 	0.94510 0.87250 0.83550 -0.02400
C 	C 	0.00300 0.80240 0.91540 -0.01900
C 	C 	0.85940 0.86720 0.92950 0.01300
C 	C 	0.94720 0.75820 0.06260 0.01500
C 	C 	0.97530 0.93810 0.66460 0.00000
C 	C 	0.94450 0.03280 0.66840 -0.02900
H 	H 	0.90770 0.05510 0.78230 0.03900
C 	C 	0.03110 0.90680 0.49730 -0.02800
H 	H 	0.05270 0.84390 0.49590 0.03900
H 	H 	0.80100 0.90300 0.91900 -0.00100
H 	H 	0.95900 0.70700 0.15500 0.00400
N 	N 	0.05490 0.12750 0.16450 -0.14400
N 	N 	0.29560 0.14090 0.57370 -0.27700
C 	C 	0.37250 0.05490 0.33550 -0.02200
C 	C 	0.30240 0.99700 0.41540 -0.01800
C 	C 	0.36720 0.14060 0.42950 0.01300
C 	C 	0.25820 0.05280 0.56260 0.01300
C 	C 	0.43810 0.02470 0.16460 -0.00700
C 	C 	0.53280 0.05550 0.16840 -0.01800
H 	H 	0.55510 0.09230 0.28230 0.03700
C 	C 	0.40680 0.96890 0.99730 -0.02200
H 	H 	0.34390 0.94730 0.99590 0.03600
H 	H 	0.40300 0.19900 0.41900 -0.00100
H 	H 	0.20700 0.04100 0.65500 0.00400
N 	N 	0.62750 0.94510 0.66450 -0.14400
N 	N 	0.20440 0.35910 0.57370 -0.27800
C 	C 	0.12750 0.44510 0.33550 -0.02400
C 	C 	0.19760 0.50300 0.41540 -0.02400
C 	C 	0.13280 0.35940 0.42950 0.01500
C 	C 	0.24180 0.44720 0.56260 0.02000
C 	C 	0.06190 0.47530 0.16460 0.01400
C 	C 	0.96720 0.44450 0.16840 -0.04000
H 	H 	0.94490 0.40770 0.28230 0.04400
C 	C 	0.09320 0.53110 0.99730 -0.04500
H 	H 	0.15610 0.55270 0.99590 0.04300
H 	H 	0.09700 0.30100 0.41900 -0.00100
H 	H 	0.29300 0.45900 0.65500 0.00200
N 	N 	0.87250 0.55490 0.66450 -0.14400
N 	N 	0.35910 0.29560 0.92630 -0.28500
C 	C 	0.50300 0.30240 0.08460 0.02700
C 	C 	0.35940 0.36720 0.07050 0.09100
C 	C 	0.44720 0.25820 0.93740 -0.00300
C 	C 	0.47530 0.43810 0.33540 0.10000
C 	C 	0.44450 0.53280 0.33160 -0.11100
H 	H 	0.40770 0.55510 0.21770 0.07300
C 	C 	0.53110 0.40680 0.50270 -0.11900
H 	H 	0.55270 0.34390 0.50410 0.06900
H 	H 	0.30100 0.40300 0.08100 -0.02700
H 	H 	0.45900 0.20700 0.84500 0.00900
N 	N 	0.14090 0.20440 0.92630 -0.28600
C 	C 	0.99700 0.19760 0.08460 0.02100
C 	C 	0.14060 0.13280 0.07050 0.09000
C 	C 	0.05280 0.24180 0.93740 0.00300
C 	C 	0.02470 0.06190 0.33540 0.09700
C 	C 	0.05550 0.96720 0.33160 -0.10500
H 	H 	0.09230 0.94490 0.21770 0.07200
C 	C 	0.96890 0.09320 0.50270 -0.11900
H 	H 	0.94730 0.15610 0.50410 0.06800
H 	H 	0.19900 0.09700 0.08100 -0.02700
H 	H 	0.04100 0.29300 0.84500 0.00800
N 	N 	0.70440 0.85910 0.42630 -0.28600
C 	C 	0.69760 0.00300 0.58460 0.01800
C 	C 	0.63280 0.85940 0.57050 0.09000
C 	C 	0.74180 0.94720 0.43740 0.00700
C 	C 	0.56190 0.97530 0.83540 0.10500
C 	C 	0.46720 0.94450 0.83160 -0.11600
H 	H 	0.44490 0.90770 0.71770 0.07500
C 	C 	0.59320 0.03110 0.00270 -0.12600
H 	H 	0.65610 0.05270 0.00410 0.07100
H 	H 	0.59700 0.80100 0.58100 -0.02700
H 	H 	0.79300 0.95900 0.34500 0.00800
N 	N 	0.79560 0.64090 0.42630 -0.28500
C 	C 	0.80240 0.49700 0.58460 0.02400
C 	C 	0.86720 0.64060 0.57050 0.08800
C 	C 	0.75820 0.55280 0.43740 0.00000
C 	C 	0.93810 0.52470 0.83540 0.08500
C 	C 	0.03280 0.55550 0.83160 -0.09400
H 	H 	0.05510 0.59230 0.71770 0.06700
C 	C 	0.90680 0.46890 0.00270 -0.10300
H 	H 	0.84390 0.44730 0.00410 0.06400
H 	H 	0.90300 0.69900 0.58100 -0.02700
H 	H 	0.70700 0.54100 0.34500 0.00900
Zn	Zn	0.75000 0.75000 0.25000 1.17500
Zn	Zn	0.25000 0.25000 0.75000 1.17500
