data_crystal

_cell_length_a 48.92800
_cell_length_b 48.92800
_cell_length_c 48.92800
_cell_angle_alpha 90.00000
_cell_angle_beta  90.00000
_cell_angle_gamma 90.00000

_symmetry_space_group_name_	'P 1'
_symmetry_space_group_name_H-M	'P 1'

loop_
_symmetry_equiv_pos_as_xyz
  x,y,z

loop_
_atom_site_label
_atom_site_type_symbol
_atom_site_fract_x
_atom_site_fract_y
_atom_site_fract_z
_atom_site_charge
Mo	Mo	0.60679 0.93982 0.79167 1.05400
O 	O 	0.60399 0.97433 0.81165 -0.73100
O 	O 	0.60928 0.91562 0.75694 -0.48800
O 	O 	0.56837 0.94804 0.78218 -0.59800
O 	O 	0.64558 0.94359 0.78637 -0.72900
Mo	Mo	0.55603 0.96726 0.75266 1.09100
Mo	Mo	0.60731 0.93348 0.71915 1.06800
Zn	Zn	0.57844 0.00518 0.80894 1.22200
O 	O 	0.55877 0.99725 0.72512 -0.71000
O 	O 	0.57080 0.94200 0.72614 -0.59600
O 	O 	0.55479 0.00613 0.84094 -0.50100
C 	C 	0.56680 0.00930 0.86270 0.37300
C 	C 	0.54780 0.01160 0.88580 -0.17300
O 	O 	0.59239 0.01026 0.86508 -0.34300
C 	C 	0.55830 0.01740 0.91030 0.06200
C 	C 	0.52230 0.00630 0.88300 0.07300
H 	H 	0.57700 0.02040 0.91160 0.00500
C 	C 	0.54190 0.01910 0.93500 -0.14300
C 	C 	0.50350 0.00930 0.90640 -0.14400
H 	H 	0.51560 0.00050 0.86620 0.00200
H 	H 	0.54960 0.02290 0.95190 0.07600
C 	C 	0.51370 0.01490 0.93180 0.06000
H 	H 	0.48470 0.00730 0.90390 0.06500
C 	C 	0.49690 0.01780 0.95670 0.01800
C 	C 	0.50030 0.04010 0.97350 -0.09400
H 	H 	0.51400 0.05280 0.97000 0.05600
Mo	Mo	0.10679 0.43982 0.29167 1.05400
O 	O 	0.10399 0.47433 0.31165 -0.73100
O 	O 	0.10928 0.41562 0.25694 -0.48800
O 	O 	0.06837 0.44804 0.28218 -0.59800
O 	O 	0.14558 0.44359 0.28637 -0.72900
Mo	Mo	0.05603 0.46726 0.25266 1.09100
Mo	Mo	0.10731 0.43348 0.21915 1.06800
Zn	Zn	0.07844 0.50518 0.30894 1.22200
O 	O 	0.05877 0.49725 0.22512 -0.71000
O 	O 	0.07080 0.44200 0.22614 -0.59600
O 	O 	0.05479 0.50613 0.34094 -0.50100
C 	C 	0.06680 0.50930 0.36270 0.37300
C 	C 	0.04780 0.51160 0.38580 -0.17300
O 	O 	0.09239 0.51026 0.36508 -0.34300
C 	C 	0.05830 0.51740 0.41030 0.06200
C 	C 	0.02230 0.50630 0.38300 0.07300
H 	H 	0.07700 0.52040 0.41160 0.00500
C 	C 	0.04190 0.51910 0.43500 -0.14300
C 	C 	0.00350 0.50930 0.40640 -0.14400
H 	H 	0.01560 0.50050 0.36620 0.00200
H 	H 	0.04960 0.52290 0.45190 0.07600
C 	C 	0.01370 0.51490 0.43180 0.06000
H 	H 	0.98470 0.50730 0.40390 0.06500
C 	C 	0.99690 0.51780 0.45670 0.01800
C 	C 	0.00030 0.54010 0.47350 -0.09400
H 	H 	0.01400 0.55280 0.47000 0.05600
Mo	Mo	0.89321 0.06018 0.29167 1.05400
O 	O 	0.89601 0.02567 0.31165 -0.73100
O 	O 	0.89072 0.08438 0.25694 -0.48800
O 	O 	0.93163 0.05196 0.28218 -0.59800
O 	O 	0.85442 0.05641 0.28637 -0.72900
Mo	Mo	0.94397 0.03274 0.25266 1.09100
Mo	Mo	0.89269 0.06652 0.21915 1.06800
Zn	Zn	0.92156 0.99482 0.30894 1.22200
O 	O 	0.94123 0.00275 0.22512 -0.71000
O 	O 	0.92920 0.05800 0.22614 -0.59600
O 	O 	0.94521 0.99387 0.34094 -0.50100
C 	C 	0.93320 0.99070 0.36270 0.37300
C 	C 	0.95220 0.98840 0.38580 -0.17300
O 	O 	0.90761 0.98974 0.36508 -0.34300
C 	C 	0.94170 0.98260 0.41030 0.06200
C 	C 	0.97770 0.99370 0.38300 0.07300
H 	H 	0.92300 0.97960 0.41160 0.00500
C 	C 	0.95810 0.98090 0.43500 -0.14300
C 	C 	0.99650 0.99070 0.40640 -0.14400
H 	H 	0.98440 0.99950 0.36620 0.00200
H 	H 	0.95040 0.97710 0.45190 0.07600
C 	C 	0.98630 0.98510 0.43180 0.06000
H 	H 	0.01530 0.99270 0.40390 0.06500
C 	C 	0.00310 0.98220 0.45670 0.01800
C 	C 	0.99970 0.95990 0.47350 -0.09400
H 	H 	0.98600 0.94720 0.47000 0.05600
Mo	Mo	0.39321 0.56018 0.79167 1.05400
O 	O 	0.39601 0.52567 0.81165 -0.73100
O 	O 	0.39072 0.58438 0.75694 -0.48800
O 	O 	0.43163 0.55196 0.78218 -0.59800
O 	O 	0.35442 0.55641 0.78637 -0.72900
Mo	Mo	0.44397 0.53274 0.75266 1.09100
Mo	Mo	0.39269 0.56652 0.71915 1.06800
Zn	Zn	0.42156 0.49482 0.80894 1.22200
O 	O 	0.44123 0.50275 0.72512 -0.71000
O 	O 	0.42920 0.55800 0.72614 -0.59600
O 	O 	0.44521 0.49387 0.84094 -0.50100
C 	C 	0.43320 0.49070 0.86270 0.37300
C 	C 	0.45220 0.48840 0.88580 -0.17300
O 	O 	0.40761 0.48974 0.86508 -0.34300
C 	C 	0.44170 0.48260 0.91030 0.06200
C 	C 	0.47770 0.49370 0.88300 0.07300
H 	H 	0.42300 0.47960 0.91160 0.00500
C 	C 	0.45810 0.48090 0.93500 -0.14300
C 	C 	0.49650 0.49070 0.90640 -0.14300
H 	H 	0.48440 0.49950 0.86620 0.00300
H 	H 	0.45040 0.47710 0.95190 0.07700
C 	C 	0.48630 0.48510 0.93180 0.06100
H 	H 	0.51530 0.49270 0.90390 0.06600
C 	C 	0.50310 0.48220 0.95670 0.01900
C 	C 	0.49970 0.45990 0.97350 -0.09300
H 	H 	0.48600 0.44720 0.97000 0.05700
Mo	Mo	0.39321 0.43982 0.70833 1.05500
O 	O 	0.39601 0.47433 0.68835 -0.73000
O 	O 	0.39072 0.41562 0.74306 -0.48700
O 	O 	0.43163 0.44804 0.71782 -0.59700
O 	O 	0.35442 0.44359 0.71363 -0.72800
Mo	Mo	0.44397 0.46726 0.74734 1.09200
Mo	Mo	0.39269 0.43348 0.78085 1.06900
Zn	Zn	0.42156 0.50518 0.69106 1.22300
O 	O 	0.44123 0.49725 0.77488 -0.70900
O 	O 	0.42920 0.44200 0.77386 -0.59500
O 	O 	0.44521 0.50613 0.65906 -0.50000
C 	C 	0.43320 0.50930 0.63730 0.37400
C 	C 	0.45220 0.51160 0.61420 -0.17200
O 	O 	0.40761 0.51026 0.63492 -0.34200
C 	C 	0.44170 0.51740 0.58970 0.06300
C 	C 	0.47770 0.50630 0.61700 0.07400
H 	H 	0.42300 0.52040 0.58840 0.00600
C 	C 	0.45810 0.51910 0.56500 -0.14200
C 	C 	0.49650 0.50930 0.59360 -0.14300
H 	H 	0.48440 0.50050 0.63380 0.00300
H 	H 	0.45040 0.52290 0.54810 0.07700
C 	C 	0.48630 0.51490 0.56820 0.06100
H 	H 	0.51530 0.50730 0.59610 0.06600
C 	C 	0.50310 0.51780 0.54330 0.01900
C 	C 	0.49970 0.54010 0.52650 -0.09300
H 	H 	0.48600 0.55280 0.53000 0.05700
Mo	Mo	0.89321 0.93982 0.20833 1.05500
O 	O 	0.89601 0.97433 0.18835 -0.73000
O 	O 	0.89072 0.91562 0.24306 -0.48700
O 	O 	0.93163 0.94804 0.21782 -0.59700
O 	O 	0.85442 0.94359 0.21363 -0.72800
Mo	Mo	0.94397 0.96726 0.24734 1.09200
Mo	Mo	0.89269 0.93348 0.28085 1.06900
Zn	Zn	0.92156 0.00518 0.19106 1.22300
O 	O 	0.94123 0.99725 0.27488 -0.70900
O 	O 	0.92920 0.94200 0.27386 -0.59500
O 	O 	0.94521 0.00613 0.15906 -0.50000
C 	C 	0.93320 0.00930 0.13730 0.37400
C 	C 	0.95220 0.01160 0.11420 -0.17200
O 	O 	0.90761 0.01026 0.13492 -0.34200
C 	C 	0.94170 0.01740 0.08970 0.06300
C 	C 	0.97770 0.00630 0.11700 0.07400
H 	H 	0.92300 0.02040 0.08840 0.00600
C 	C 	0.95810 0.01910 0.06500 -0.14200
C 	C 	0.99650 0.00930 0.09360 -0.14300
H 	H 	0.98440 0.00050 0.13380 0.00300
H 	H 	0.95040 0.02290 0.04810 0.07700
C 	C 	0.98630 0.01490 0.06820 0.06100
H 	H 	0.01530 0.00730 0.09610 0.06600
C 	C 	0.00310 0.01780 0.04330 0.01900
C 	C 	0.99970 0.04010 0.02650 -0.09300
H 	H 	0.98600 0.05280 0.03000 0.05700
Mo	Mo	0.10679 0.56018 0.20833 1.05500
O 	O 	0.10399 0.52567 0.18835 -0.73000
O 	O 	0.10928 0.58438 0.24306 -0.48700
O 	O 	0.06837 0.55196 0.21782 -0.59700
O 	O 	0.14558 0.55641 0.21363 -0.72800
Mo	Mo	0.05603 0.53274 0.24734 1.09200
Mo	Mo	0.10731 0.56652 0.28085 1.06900
Zn	Zn	0.07844 0.49482 0.19106 1.22300
O 	O 	0.05877 0.50275 0.27488 -0.70900
O 	O 	0.07080 0.55800 0.27386 -0.59500
O 	O 	0.05479 0.49387 0.15906 -0.50000
C 	C 	0.06680 0.49070 0.13730 0.37400
C 	C 	0.04780 0.48840 0.11420 -0.17200
O 	O 	0.09239 0.48974 0.13492 -0.34200
C 	C 	0.05830 0.48260 0.08970 0.06300
C 	C 	0.02230 0.49370 0.11700 0.07400
H 	H 	0.07700 0.47960 0.08840 0.00600
C 	C 	0.04190 0.48090 0.06500 -0.14200
C 	C 	0.00350 0.49070 0.09360 -0.14300
H 	H 	0.01560 0.49950 0.13380 0.00300
H 	H 	0.04960 0.47710 0.04810 0.07700
C 	C 	0.01370 0.48510 0.06820 0.06100
H 	H 	0.98470 0.49270 0.09610 0.06600
C 	C 	0.99690 0.48220 0.04330 0.01900
C 	C 	0.00030 0.45990 0.02650 -0.09300
H 	H 	0.01400 0.44720 0.03000 0.05700
Mo	Mo	0.60679 0.06018 0.70833 1.05500
O 	O 	0.60399 0.02567 0.68835 -0.73000
O 	O 	0.60928 0.08438 0.74306 -0.48700
O 	O 	0.56837 0.05196 0.71782 -0.59700
O 	O 	0.64558 0.05641 0.71363 -0.72800
Mo	Mo	0.55603 0.03274 0.74734 1.09200
Mo	Mo	0.60731 0.06652 0.78085 1.06900
Zn	Zn	0.57844 0.99482 0.69106 1.22300
O 	O 	0.55877 0.00275 0.77488 -0.70900
O 	O 	0.57080 0.05800 0.77386 -0.59500
O 	O 	0.55479 0.99387 0.65906 -0.50000
C 	C 	0.56680 0.99070 0.63730 0.37400
C 	C 	0.54780 0.98840 0.61420 -0.17200
O 	O 	0.59239 0.98974 0.63492 -0.34200
C 	C 	0.55830 0.98260 0.58970 0.06300
C 	C 	0.52230 0.99370 0.61700 0.07400
H 	H 	0.57700 0.97960 0.58840 0.00600
C 	C 	0.54190 0.98090 0.56500 -0.14200
C 	C 	0.50350 0.99070 0.59360 -0.14300
H 	H 	0.51560 0.99950 0.63380 0.00300
H 	H 	0.54960 0.97710 0.54810 0.07700
C 	C 	0.51370 0.98510 0.56820 0.06100
H 	H 	0.48470 0.99270 0.59610 0.06600
C 	C 	0.49690 0.98220 0.54330 0.01900
C 	C 	0.50030 0.95990 0.52650 -0.09300
H 	H 	0.51400 0.94720 0.53000 0.05700
Mo	Mo	0.79167 0.60679 0.93982 1.05500
O 	O 	0.81165 0.60399 0.97433 -0.73000
O 	O 	0.75694 0.60928 0.91562 -0.48700
O 	O 	0.78218 0.56837 0.94804 -0.59700
O 	O 	0.78637 0.64558 0.94359 -0.72800
Mo	Mo	0.75266 0.55603 0.96726 1.09200
Mo	Mo	0.71915 0.60731 0.93348 1.06900
Zn	Zn	0.80894 0.57844 0.00518 1.22300
O 	O 	0.72512 0.55877 0.99725 -0.70900
O 	O 	0.72614 0.57080 0.94200 -0.59500
O 	O 	0.84094 0.55479 0.00613 -0.50000
C 	C 	0.86270 0.56680 0.00930 0.37400
C 	C 	0.88580 0.54780 0.01160 -0.17200
O 	O 	0.86508 0.59239 0.01026 -0.34200
C 	C 	0.91030 0.55830 0.01740 0.06300
C 	C 	0.88300 0.52230 0.00630 0.07400
H 	H 	0.91160 0.57700 0.02040 0.00600
C 	C 	0.93500 0.54190 0.01910 -0.14200
C 	C 	0.90640 0.50350 0.00930 -0.14300
H 	H 	0.86620 0.51560 0.00050 0.00300
H 	H 	0.95190 0.54960 0.02290 0.07700
C 	C 	0.93180 0.51370 0.01490 0.06100
H 	H 	0.90390 0.48470 0.00730 0.06600
C 	C 	0.95670 0.49690 0.01780 0.01900
C 	C 	0.97350 0.50030 0.04010 -0.09300
H 	H 	0.97000 0.51400 0.05280 0.05700
Mo	Mo	0.29167 0.10679 0.43982 1.05500
O 	O 	0.31165 0.10399 0.47433 -0.73000
O 	O 	0.25694 0.10928 0.41562 -0.48700
O 	O 	0.28218 0.06837 0.44804 -0.59700
O 	O 	0.28637 0.14558 0.44359 -0.72800
Mo	Mo	0.25266 0.05603 0.46726 1.09200
Mo	Mo	0.21915 0.10731 0.43348 1.06900
Zn	Zn	0.30894 0.07844 0.50518 1.22300
O 	O 	0.22512 0.05877 0.49725 -0.70900
O 	O 	0.22614 0.07080 0.44200 -0.59500
O 	O 	0.34094 0.05479 0.50613 -0.50000
C 	C 	0.36270 0.06680 0.50930 0.37400
C 	C 	0.38580 0.04780 0.51160 -0.17200
O 	O 	0.36508 0.09239 0.51026 -0.34200
C 	C 	0.41030 0.05830 0.51740 0.06300
C 	C 	0.38300 0.02230 0.50630 0.07400
H 	H 	0.41160 0.07700 0.52040 0.00600
C 	C 	0.43500 0.04190 0.51910 -0.14200
C 	C 	0.40640 0.00350 0.50930 -0.14300
H 	H 	0.36620 0.01560 0.50050 0.00300
H 	H 	0.45190 0.04960 0.52290 0.07700
C 	C 	0.43180 0.01370 0.51490 0.06100
H 	H 	0.40390 0.98470 0.50730 0.06600
C 	C 	0.45670 0.99690 0.51780 0.01900
C 	C 	0.47350 0.00030 0.54010 -0.09300
H 	H 	0.47000 0.01400 0.55280 0.05700
Mo	Mo	0.29167 0.89321 0.06018 1.05500
O 	O 	0.31165 0.89601 0.02567 -0.73000
O 	O 	0.25694 0.89072 0.08438 -0.48700
O 	O 	0.28218 0.93163 0.05196 -0.59700
O 	O 	0.28637 0.85442 0.05641 -0.72800
Mo	Mo	0.25266 0.94397 0.03274 1.09200
Mo	Mo	0.21915 0.89269 0.06652 1.06900
Zn	Zn	0.30894 0.92156 0.99482 1.22300
O 	O 	0.22512 0.94123 0.00275 -0.70900
O 	O 	0.22614 0.92920 0.05800 -0.59500
O 	O 	0.34094 0.94521 0.99387 -0.50000
C 	C 	0.36270 0.93320 0.99070 0.37400
C 	C 	0.38580 0.95220 0.98840 -0.17200
O 	O 	0.36508 0.90761 0.98974 -0.34200
C 	C 	0.41030 0.94170 0.98260 0.06300
C 	C 	0.38300 0.97770 0.99370 0.07400
H 	H 	0.41160 0.92300 0.97960 0.00600
C 	C 	0.43500 0.95810 0.98090 -0.14200
C 	C 	0.40640 0.99650 0.99070 -0.14300
H 	H 	0.36620 0.98440 0.99950 0.00300
H 	H 	0.45190 0.95040 0.97710 0.07700
C 	C 	0.43180 0.98630 0.98510 0.06100
H 	H 	0.40390 0.01530 0.99270 0.06600
C 	C 	0.45670 0.00310 0.98220 0.01900
C 	C 	0.47350 0.99970 0.95990 -0.09300
H 	H 	0.47000 0.98600 0.94720 0.05700
Mo	Mo	0.79167 0.39321 0.56018 1.05500
O 	O 	0.81165 0.39601 0.52567 -0.73000
O 	O 	0.75694 0.39072 0.58438 -0.48700
O 	O 	0.78218 0.43163 0.55196 -0.59700
O 	O 	0.78637 0.35442 0.55641 -0.72800
Mo	Mo	0.75266 0.44397 0.53274 1.09200
Mo	Mo	0.71915 0.39269 0.56652 1.06900
Zn	Zn	0.80894 0.42156 0.49482 1.22300
O 	O 	0.72512 0.44123 0.50275 -0.70900
O 	O 	0.72614 0.42920 0.55800 -0.59500
O 	O 	0.84094 0.44521 0.49387 -0.50000
C 	C 	0.86270 0.43320 0.49070 0.37400
C 	C 	0.88580 0.45220 0.48840 -0.17200
O 	O 	0.86508 0.40761 0.48974 -0.34200
C 	C 	0.91030 0.44170 0.48260 0.06300
C 	C 	0.88300 0.47770 0.49370 0.07400
H 	H 	0.91160 0.42300 0.47960 0.00600
C 	C 	0.93500 0.45810 0.48090 -0.14200
C 	C 	0.90640 0.49650 0.49070 -0.14300
H 	H 	0.86620 0.48440 0.49950 0.00300
H 	H 	0.95190 0.45040 0.47710 0.07700
C 	C 	0.93180 0.48630 0.48510 0.06100
H 	H 	0.90390 0.51530 0.49270 0.06600
C 	C 	0.95670 0.50310 0.48220 0.01900
C 	C 	0.97350 0.49970 0.45990 -0.09300
H 	H 	0.97000 0.48600 0.44720 0.05700
Mo	Mo	0.70833 0.39321 0.43982 1.05500
O 	O 	0.68835 0.39601 0.47433 -0.73000
O 	O 	0.74306 0.39072 0.41562 -0.48700
O 	O 	0.71782 0.43163 0.44804 -0.59700
O 	O 	0.71363 0.35442 0.44359 -0.72800
Mo	Mo	0.74734 0.44397 0.46726 1.09200
Mo	Mo	0.78085 0.39269 0.43348 1.06900
Zn	Zn	0.69106 0.42156 0.50518 1.22300
O 	O 	0.77488 0.44123 0.49725 -0.70900
O 	O 	0.77386 0.42920 0.44200 -0.59500
O 	O 	0.65906 0.44521 0.50613 -0.50000
C 	C 	0.63730 0.43320 0.50930 0.37400
C 	C 	0.61420 0.45220 0.51160 -0.17200
O 	O 	0.63492 0.40761 0.51026 -0.34200
C 	C 	0.58970 0.44170 0.51740 0.06300
C 	C 	0.61700 0.47770 0.50630 0.07400
H 	H 	0.58840 0.42300 0.52040 0.00600
C 	C 	0.56500 0.45810 0.51910 -0.14200
C 	C 	0.59360 0.49650 0.50930 -0.14300
H 	H 	0.63380 0.48440 0.50050 0.00300
H 	H 	0.54810 0.45040 0.52290 0.07700
C 	C 	0.56820 0.48630 0.51490 0.06100
H 	H 	0.59610 0.51530 0.50730 0.06600
C 	C 	0.54330 0.50310 0.51780 0.01900
C 	C 	0.52650 0.49970 0.54010 -0.09300
H 	H 	0.53000 0.48600 0.55280 0.05700
Mo	Mo	0.20833 0.89321 0.93982 1.05500
O 	O 	0.18835 0.89601 0.97433 -0.73000
O 	O 	0.24306 0.89072 0.91562 -0.48700
O 	O 	0.21782 0.93163 0.94804 -0.59700
O 	O 	0.21363 0.85442 0.94359 -0.72800
Mo	Mo	0.24734 0.94397 0.96726 1.09200
Mo	Mo	0.28085 0.89269 0.93348 1.06900
Zn	Zn	0.19106 0.92156 0.00518 1.22300
O 	O 	0.27488 0.94123 0.99725 -0.70900
O 	O 	0.27386 0.92920 0.94200 -0.59500
O 	O 	0.15906 0.94521 0.00613 -0.50000
C 	C 	0.13730 0.93320 0.00930 0.37400
C 	C 	0.11420 0.95220 0.01160 -0.17200
O 	O 	0.13492 0.90761 0.01026 -0.34200
C 	C 	0.08970 0.94170 0.01740 0.06300
C 	C 	0.11700 0.97770 0.00630 0.07400
H 	H 	0.08840 0.92300 0.02040 0.00600
C 	C 	0.06500 0.95810 0.01910 -0.14200
C 	C 	0.09360 0.99650 0.00930 -0.14300
H 	H 	0.13380 0.98440 0.00050 0.00300
H 	H 	0.04810 0.95040 0.02290 0.07700
C 	C 	0.06820 0.98630 0.01490 0.06100
H 	H 	0.09610 0.01530 0.00730 0.06600
C 	C 	0.04330 0.00310 0.01780 0.01900
C 	C 	0.02650 0.99970 0.04010 -0.09300
H 	H 	0.03000 0.98600 0.05280 0.05700
Mo	Mo	0.20833 0.10679 0.56018 1.05500
O 	O 	0.18835 0.10399 0.52567 -0.73000
O 	O 	0.24306 0.10928 0.58438 -0.48700
O 	O 	0.21782 0.06837 0.55196 -0.59700
O 	O 	0.21363 0.14558 0.55641 -0.72800
Mo	Mo	0.24734 0.05603 0.53274 1.09200
Mo	Mo	0.28085 0.10731 0.56652 1.06900
Zn	Zn	0.19106 0.07844 0.49482 1.22300
O 	O 	0.27488 0.05877 0.50275 -0.70900
O 	O 	0.27386 0.07080 0.55800 -0.59500
O 	O 	0.15906 0.05479 0.49387 -0.50000
C 	C 	0.13730 0.06680 0.49070 0.37400
C 	C 	0.11420 0.04780 0.48840 -0.17200
O 	O 	0.13492 0.09239 0.48974 -0.34200
C 	C 	0.08970 0.05830 0.48260 0.06300
C 	C 	0.11700 0.02230 0.49370 0.07400
H 	H 	0.08840 0.07700 0.47960 0.00600
C 	C 	0.06500 0.04190 0.48090 -0.14200
C 	C 	0.09360 0.00350 0.49070 -0.14300
H 	H 	0.13380 0.01560 0.49950 0.00300
H 	H 	0.04810 0.04960 0.47710 0.07700
C 	C 	0.06820 0.01370 0.48510 0.06100
H 	H 	0.09610 0.98470 0.49270 0.06600
C 	C 	0.04330 0.99690 0.48220 0.01900
C 	C 	0.02650 0.00030 0.45990 -0.09300
H 	H 	0.03000 0.01400 0.44720 0.05700
Mo	Mo	0.70833 0.60679 0.06018 1.05500
O 	O 	0.68835 0.60399 0.02567 -0.73000
O 	O 	0.74306 0.60928 0.08438 -0.48700
O 	O 	0.71782 0.56837 0.05196 -0.59700
O 	O 	0.71363 0.64558 0.05641 -0.72800
Mo	Mo	0.74734 0.55603 0.03274 1.09200
Mo	Mo	0.78085 0.60731 0.06652 1.06900
Zn	Zn	0.69106 0.57844 0.99482 1.22300
O 	O 	0.77488 0.55877 0.00275 -0.70900
O 	O 	0.77386 0.57080 0.05800 -0.59500
O 	O 	0.65906 0.55479 0.99387 -0.50000
C 	C 	0.63730 0.56680 0.99070 0.37400
C 	C 	0.61420 0.54780 0.98840 -0.17200
O 	O 	0.63492 0.59239 0.98974 -0.34200
C 	C 	0.58970 0.55830 0.98260 0.06300
C 	C 	0.61700 0.52230 0.99370 0.07400
H 	H 	0.58840 0.57700 0.97960 0.00600
C 	C 	0.56500 0.54190 0.98090 -0.14200
C 	C 	0.59360 0.50350 0.99070 -0.14300
H 	H 	0.63380 0.51560 0.99950 0.00300
H 	H 	0.54810 0.54960 0.97710 0.07700
C 	C 	0.56820 0.51370 0.98510 0.06100
H 	H 	0.59610 0.48470 0.99270 0.06600
C 	C 	0.54330 0.49690 0.98220 0.01900
C 	C 	0.52650 0.50030 0.95990 -0.09300
H 	H 	0.53000 0.51400 0.94720 0.05700
Mo	Mo	0.93982 0.79167 0.60679 1.05500
O 	O 	0.97433 0.81165 0.60399 -0.73000
O 	O 	0.91562 0.75694 0.60928 -0.48700
O 	O 	0.94804 0.78218 0.56837 -0.59700
O 	O 	0.94359 0.78637 0.64558 -0.72800
Mo	Mo	0.96726 0.75266 0.55603 1.09200
Mo	Mo	0.93348 0.71915 0.60731 1.06900
Zn	Zn	0.00518 0.80894 0.57844 1.22300
O 	O 	0.99725 0.72512 0.55877 -0.70900
O 	O 	0.94200 0.72614 0.57080 -0.59500
O 	O 	0.00613 0.84094 0.55479 -0.50000
C 	C 	0.00930 0.86270 0.56680 0.37400
C 	C 	0.01160 0.88580 0.54780 -0.17200
O 	O 	0.01026 0.86508 0.59239 -0.34200
C 	C 	0.01740 0.91030 0.55830 0.06300
C 	C 	0.00630 0.88300 0.52230 0.07400
H 	H 	0.02040 0.91160 0.57700 0.00600
C 	C 	0.01910 0.93500 0.54190 -0.14200
C 	C 	0.00930 0.90640 0.50350 -0.14300
H 	H 	0.00050 0.86620 0.51560 0.00300
H 	H 	0.02290 0.95190 0.54960 0.07700
C 	C 	0.01490 0.93180 0.51370 0.06100
H 	H 	0.00730 0.90390 0.48470 0.06600
C 	C 	0.01780 0.95670 0.49690 0.01900
C 	C 	0.04010 0.97350 0.50030 -0.09300
H 	H 	0.05280 0.97000 0.51400 0.05700
Mo	Mo	0.43982 0.29167 0.10679 1.05500
O 	O 	0.47433 0.31165 0.10399 -0.73000
O 	O 	0.41562 0.25694 0.10928 -0.48700
O 	O 	0.44804 0.28218 0.06837 -0.59700
O 	O 	0.44359 0.28637 0.14558 -0.72800
Mo	Mo	0.46726 0.25266 0.05603 1.09200
Mo	Mo	0.43348 0.21915 0.10731 1.06900
Zn	Zn	0.50518 0.30894 0.07844 1.22300
O 	O 	0.49725 0.22512 0.05877 -0.70900
O 	O 	0.44200 0.22614 0.07080 -0.59500
O 	O 	0.50613 0.34094 0.05479 -0.50000
C 	C 	0.50930 0.36270 0.06680 0.37400
C 	C 	0.51160 0.38580 0.04780 -0.17200
O 	O 	0.51026 0.36508 0.09239 -0.34200
C 	C 	0.51740 0.41030 0.05830 0.06300
C 	C 	0.50630 0.38300 0.02230 0.07400
H 	H 	0.52040 0.41160 0.07700 0.00600
C 	C 	0.51910 0.43500 0.04190 -0.14200
C 	C 	0.50930 0.40640 0.00350 -0.14300
H 	H 	0.50050 0.36620 0.01560 0.00300
H 	H 	0.52290 0.45190 0.04960 0.07700
C 	C 	0.51490 0.43180 0.01370 0.06100
H 	H 	0.50730 0.40390 0.98470 0.06600
C 	C 	0.51780 0.45670 0.99690 0.01900
C 	C 	0.54010 0.47350 0.00030 -0.09300
H 	H 	0.55280 0.47000 0.01400 0.05700
Mo	Mo	0.06018 0.29167 0.89321 1.05500
O 	O 	0.02567 0.31165 0.89601 -0.73000
O 	O 	0.08438 0.25694 0.89072 -0.48700
O 	O 	0.05196 0.28218 0.93163 -0.59700
O 	O 	0.05641 0.28637 0.85442 -0.72800
Mo	Mo	0.03274 0.25266 0.94397 1.09200
Mo	Mo	0.06652 0.21915 0.89269 1.06900
Zn	Zn	0.99482 0.30894 0.92156 1.22300
O 	O 	0.00275 0.22512 0.94123 -0.70900
O 	O 	0.05800 0.22614 0.92920 -0.59500
O 	O 	0.99387 0.34094 0.94521 -0.50000
C 	C 	0.99070 0.36270 0.93320 0.37400
C 	C 	0.98840 0.38580 0.95220 -0.17200
O 	O 	0.98974 0.36508 0.90761 -0.34200
C 	C 	0.98260 0.41030 0.94170 0.06300
C 	C 	0.99370 0.38300 0.97770 0.07400
H 	H 	0.97960 0.41160 0.92300 0.00600
C 	C 	0.98090 0.43500 0.95810 -0.14200
C 	C 	0.99070 0.40640 0.99650 -0.14300
H 	H 	0.99950 0.36620 0.98440 0.00300
H 	H 	0.97710 0.45190 0.95040 0.07700
C 	C 	0.98510 0.43180 0.98630 0.06100
H 	H 	0.99270 0.40390 0.01530 0.06600
C 	C 	0.98220 0.45670 0.00310 0.01900
C 	C 	0.95990 0.47350 0.99970 -0.09300
H 	H 	0.94720 0.47000 0.98600 0.05700
Mo	Mo	0.56018 0.79167 0.39321 1.05500
O 	O 	0.52567 0.81165 0.39601 -0.73000
O 	O 	0.58438 0.75694 0.39072 -0.48700
O 	O 	0.55196 0.78218 0.43163 -0.59700
O 	O 	0.55641 0.78637 0.35442 -0.72800
Mo	Mo	0.53274 0.75266 0.44397 1.09200
Mo	Mo	0.56652 0.71915 0.39269 1.06900
Zn	Zn	0.49482 0.80894 0.42156 1.22300
O 	O 	0.50275 0.72512 0.44123 -0.70900
O 	O 	0.55800 0.72614 0.42920 -0.59500
O 	O 	0.49387 0.84094 0.44521 -0.50000
C 	C 	0.49070 0.86270 0.43320 0.37400
C 	C 	0.48840 0.88580 0.45220 -0.17200
O 	O 	0.48974 0.86508 0.40761 -0.34200
C 	C 	0.48260 0.91030 0.44170 0.06300
C 	C 	0.49370 0.88300 0.47770 0.07400
H 	H 	0.47960 0.91160 0.42300 0.00600
C 	C 	0.48090 0.93500 0.45810 -0.14200
C 	C 	0.49070 0.90640 0.49650 -0.14300
H 	H 	0.49950 0.86620 0.48440 0.00300
H 	H 	0.47710 0.95190 0.45040 0.07700
C 	C 	0.48510 0.93180 0.48630 0.06100
H 	H 	0.49270 0.90390 0.51530 0.06600
C 	C 	0.48220 0.95670 0.50310 0.01900
C 	C 	0.45990 0.97350 0.49970 -0.09300
H 	H 	0.44720 0.97000 0.48600 0.05700
Mo	Mo	0.43982 0.70833 0.39321 1.05500
O 	O 	0.47433 0.68835 0.39601 -0.73000
O 	O 	0.41562 0.74306 0.39072 -0.48700
O 	O 	0.44804 0.71782 0.43163 -0.59700
O 	O 	0.44359 0.71363 0.35442 -0.72800
Mo	Mo	0.46726 0.74734 0.44397 1.09200
Mo	Mo	0.43348 0.78085 0.39269 1.06900
Zn	Zn	0.50518 0.69106 0.42156 1.22300
O 	O 	0.49725 0.77488 0.44123 -0.70900
O 	O 	0.44200 0.77386 0.42920 -0.59500
O 	O 	0.50613 0.65906 0.44521 -0.50000
C 	C 	0.50930 0.63730 0.43320 0.37400
C 	C 	0.51160 0.61420 0.45220 -0.17200
O 	O 	0.51026 0.63492 0.40761 -0.34200
C 	C 	0.51740 0.58970 0.44170 0.06300
C 	C 	0.50630 0.61700 0.47770 0.07400
H 	H 	0.52040 0.58840 0.42300 0.00600
C 	C 	0.51910 0.56500 0.45810 -0.14200
C 	C 	0.50930 0.59360 0.49650 -0.14300
H 	H 	0.50050 0.63380 0.48440 0.00300
H 	H 	0.52290 0.54810 0.45040 0.07700
C 	C 	0.51490 0.56820 0.48630 0.06100
H 	H 	0.50730 0.59610 0.51530 0.06600
C 	C 	0.51780 0.54330 0.50310 0.01900
C 	C 	0.54010 0.52650 0.49970 -0.09300
H 	H 	0.55280 0.53000 0.48600 0.05700
Mo	Mo	0.93982 0.20833 0.89321 1.05500
O 	O 	0.97433 0.18835 0.89601 -0.73000
O 	O 	0.91562 0.24306 0.89072 -0.48700
O 	O 	0.94804 0.21782 0.93163 -0.59700
O 	O 	0.94359 0.21363 0.85442 -0.72800
Mo	Mo	0.96726 0.24734 0.94397 1.09200
Mo	Mo	0.93348 0.28085 0.89269 1.06900
Zn	Zn	0.00518 0.19106 0.92156 1.22300
O 	O 	0.99725 0.27488 0.94123 -0.70900
O 	O 	0.94200 0.27386 0.92920 -0.59500
O 	O 	0.00613 0.15906 0.94521 -0.50000
C 	C 	0.00930 0.13730 0.93320 0.37400
C 	C 	0.01160 0.11420 0.95220 -0.17200
O 	O 	0.01026 0.13492 0.90761 -0.34200
C 	C 	0.01740 0.08970 0.94170 0.06300
C 	C 	0.00630 0.11700 0.97770 0.07400
H 	H 	0.02040 0.08840 0.92300 0.00600
C 	C 	0.01910 0.06500 0.95810 -0.14200
C 	C 	0.00930 0.09360 0.99650 -0.14300
H 	H 	0.00050 0.13380 0.98440 0.00300
H 	H 	0.02290 0.04810 0.95040 0.07700
C 	C 	0.01490 0.06820 0.98630 0.06100
H 	H 	0.00730 0.09610 0.01530 0.06600
C 	C 	0.01780 0.04330 0.00310 0.01900
C 	C 	0.04010 0.02650 0.99970 -0.09300
H 	H 	0.05280 0.03000 0.98600 0.05700
Mo	Mo	0.56018 0.20833 0.10679 1.05500
O 	O 	0.52567 0.18835 0.10399 -0.73000
O 	O 	0.58438 0.24306 0.10928 -0.48700
O 	O 	0.55196 0.21782 0.06837 -0.59700
O 	O 	0.55641 0.21363 0.14558 -0.72800
Mo	Mo	0.53274 0.24734 0.05603 1.09200
Mo	Mo	0.56652 0.28085 0.10731 1.06900
Zn	Zn	0.49482 0.19106 0.07844 1.22300
O 	O 	0.50275 0.27488 0.05877 -0.70900
O 	O 	0.55800 0.27386 0.07080 -0.59500
O 	O 	0.49387 0.15906 0.05479 -0.50000
C 	C 	0.49070 0.13730 0.06680 0.37400
C 	C 	0.48840 0.11420 0.04780 -0.17200
O 	O 	0.48974 0.13492 0.09239 -0.34200
C 	C 	0.48260 0.08970 0.05830 0.06300
C 	C 	0.49370 0.11700 0.02230 0.07400
H 	H 	0.47960 0.08840 0.07700 0.00600
C 	C 	0.48090 0.06500 0.04190 -0.14200
C 	C 	0.49070 0.09360 0.00350 -0.14300
H 	H 	0.49950 0.13380 0.01560 0.00300
H 	H 	0.47710 0.04810 0.04960 0.07700
C 	C 	0.48510 0.06820 0.01370 0.06100
H 	H 	0.49270 0.09610 0.98470 0.06600
C 	C 	0.48220 0.04330 0.99690 0.01900
C 	C 	0.45990 0.02650 0.00030 -0.09300
H 	H 	0.44720 0.03000 0.01400 0.05700
Mo	Mo	0.06018 0.70833 0.60679 1.05500
O 	O 	0.02567 0.68835 0.60399 -0.73000
O 	O 	0.08438 0.74306 0.60928 -0.48700
O 	O 	0.05196 0.71782 0.56837 -0.59700
O 	O 	0.05641 0.71363 0.64558 -0.72800
Mo	Mo	0.03274 0.74734 0.55603 1.09200
Mo	Mo	0.06652 0.78085 0.60731 1.06900
Zn	Zn	0.99482 0.69106 0.57844 1.22300
O 	O 	0.00275 0.77488 0.55877 -0.70900
O 	O 	0.05800 0.77386 0.57080 -0.59500
O 	O 	0.99387 0.65906 0.55479 -0.50000
C 	C 	0.99070 0.63730 0.56680 0.37400
C 	C 	0.98840 0.61420 0.54780 -0.17200
O 	O 	0.98974 0.63492 0.59239 -0.34200
C 	C 	0.98260 0.58970 0.55830 0.06300
C 	C 	0.99370 0.61700 0.52230 0.07400
H 	H 	0.97960 0.58840 0.57700 0.00600
C 	C 	0.98090 0.56500 0.54190 -0.14200
C 	C 	0.99070 0.59360 0.50350 -0.14300
H 	H 	0.99950 0.63380 0.51560 0.00300
H 	H 	0.97710 0.54810 0.54960 0.07700
C 	C 	0.98510 0.56820 0.51370 0.06100
H 	H 	0.99270 0.59610 0.48470 0.06600
C 	C 	0.98220 0.54330 0.49690 0.01900
C 	C 	0.95990 0.52650 0.50030 -0.09300
H 	H 	0.94720 0.53000 0.51400 0.05700
Mo	Mo	0.31018 0.14321 0.54167 1.05500
O 	O 	0.27567 0.14601 0.56165 -0.73000
O 	O 	0.33438 0.14072 0.50694 -0.48700
O 	O 	0.30196 0.18163 0.53218 -0.59700
O 	O 	0.30641 0.10442 0.53637 -0.72800
Mo	Mo	0.28274 0.19397 0.50266 1.09200
Mo	Mo	0.31652 0.14269 0.46915 1.06900
Zn	Zn	0.24482 0.17156 0.55894 1.22300
O 	O 	0.25275 0.19123 0.47512 -0.70900
O 	O 	0.30800 0.17920 0.47614 -0.59500
O 	O 	0.24387 0.19521 0.59094 -0.50000
C 	C 	0.24070 0.18320 0.61270 0.37400
C 	C 	0.23840 0.20220 0.63580 -0.17200
O 	O 	0.23974 0.15761 0.61508 -0.34200
C 	C 	0.23260 0.19170 0.66030 0.06300
C 	C 	0.24370 0.22770 0.63300 0.07400
H 	H 	0.22960 0.17300 0.66160 0.00600
C 	C 	0.23090 0.20810 0.68500 -0.14200
C 	C 	0.24070 0.24650 0.65640 -0.14300
H 	H 	0.24950 0.23440 0.61620 0.00300
H 	H 	0.22710 0.20040 0.70190 0.07700
C 	C 	0.23510 0.23630 0.68180 0.06100
H 	H 	0.24270 0.26530 0.65390 0.06600
C 	C 	0.23220 0.25310 0.70670 0.01900
C 	C 	0.20990 0.24970 0.72350 -0.09300
H 	H 	0.19720 0.23600 0.72000 0.05700
Mo	Mo	0.81018 0.64321 0.04167 1.05500
O 	O 	0.77567 0.64601 0.06165 -0.73000
O 	O 	0.83438 0.64072 0.00694 -0.48700
O 	O 	0.80196 0.68163 0.03218 -0.59700
O 	O 	0.80641 0.60442 0.03637 -0.72800
Mo	Mo	0.78274 0.69397 0.00266 1.09200
Mo	Mo	0.81652 0.64269 0.96915 1.06900
Zn	Zn	0.74482 0.67156 0.05894 1.22300
O 	O 	0.75275 0.69123 0.97512 -0.70900
O 	O 	0.80800 0.67920 0.97614 -0.59500
O 	O 	0.74387 0.69521 0.09094 -0.50000
C 	C 	0.74070 0.68320 0.11270 0.37400
C 	C 	0.73840 0.70220 0.13580 -0.17200
O 	O 	0.73974 0.65761 0.11508 -0.34200
C 	C 	0.73260 0.69170 0.16030 0.06300
C 	C 	0.74370 0.72770 0.13300 0.07400
H 	H 	0.72960 0.67300 0.16160 0.00600
C 	C 	0.73090 0.70810 0.18500 -0.14200
C 	C 	0.74070 0.74650 0.15640 -0.14300
H 	H 	0.74950 0.73440 0.11620 0.00300
H 	H 	0.72710 0.70040 0.20190 0.07700
C 	C 	0.73510 0.73630 0.18180 0.06100
H 	H 	0.74270 0.76530 0.15390 0.06600
C 	C 	0.73220 0.75310 0.20670 0.01900
C 	C 	0.70990 0.74970 0.22350 -0.09300
H 	H 	0.69720 0.73600 0.22000 0.05700
Mo	Mo	0.18982 0.85679 0.04167 1.05500
O 	O 	0.22433 0.85399 0.06165 -0.73000
O 	O 	0.16562 0.85928 0.00694 -0.48700
O 	O 	0.19804 0.81837 0.03218 -0.59700
O 	O 	0.19359 0.89558 0.03637 -0.72800
Mo	Mo	0.21726 0.80603 0.00266 1.09200
Mo	Mo	0.18348 0.85731 0.96915 1.06900
Zn	Zn	0.25518 0.82844 0.05894 1.22300
O 	O 	0.24725 0.80877 0.97512 -0.70900
O 	O 	0.19200 0.82080 0.97614 -0.59500
O 	O 	0.25613 0.80479 0.09094 -0.50000
C 	C 	0.25930 0.81680 0.11270 0.37400
C 	C 	0.26160 0.79780 0.13580 -0.17200
O 	O 	0.26026 0.84239 0.11508 -0.34200
C 	C 	0.26740 0.80830 0.16030 0.06300
C 	C 	0.25630 0.77230 0.13300 0.07400
H 	H 	0.27040 0.82700 0.16160 0.00600
C 	C 	0.26910 0.79190 0.18500 -0.14200
C 	C 	0.25930 0.75350 0.15640 -0.14300
H 	H 	0.25050 0.76560 0.11620 0.00300
H 	H 	0.27290 0.79960 0.20190 0.07700
C 	C 	0.26490 0.76370 0.18180 0.06100
H 	H 	0.25730 0.73470 0.15390 0.06600
C 	C 	0.26780 0.74690 0.20670 0.01900
C 	C 	0.29010 0.75030 0.22350 -0.09300
H 	H 	0.30280 0.76400 0.22000 0.05700
Mo	Mo	0.68982 0.35679 0.54167 1.05500
O 	O 	0.72433 0.35399 0.56165 -0.73000
O 	O 	0.66562 0.35928 0.50694 -0.48700
O 	O 	0.69804 0.31837 0.53218 -0.59700
O 	O 	0.69359 0.39558 0.53637 -0.72800
Mo	Mo	0.71726 0.30603 0.50266 1.09200
Mo	Mo	0.68348 0.35731 0.46915 1.06900
Zn	Zn	0.75518 0.32844 0.55894 1.22300
O 	O 	0.74725 0.30877 0.47512 -0.70900
O 	O 	0.69200 0.32080 0.47614 -0.59500
O 	O 	0.75613 0.30479 0.59094 -0.50000
C 	C 	0.75930 0.31680 0.61270 0.37400
C 	C 	0.76160 0.29780 0.63580 -0.17200
O 	O 	0.76026 0.34239 0.61508 -0.34200
C 	C 	0.76740 0.30830 0.66030 0.06300
C 	C 	0.75630 0.27230 0.63300 0.07400
H 	H 	0.77040 0.32700 0.66160 0.00600
C 	C 	0.76910 0.29190 0.68500 -0.14200
C 	C 	0.75930 0.25350 0.65640 -0.14300
H 	H 	0.75050 0.26560 0.61620 0.00300
H 	H 	0.77290 0.29960 0.70190 0.07700
C 	C 	0.76490 0.26370 0.68180 0.06100
H 	H 	0.75730 0.23470 0.65390 0.06600
C 	C 	0.76780 0.24690 0.70670 0.01900
C 	C 	0.79010 0.25030 0.72350 -0.09300
H 	H 	0.80280 0.26400 0.72000 0.05700
Mo	Mo	0.81018 0.35679 0.45833 1.05500
O 	O 	0.77567 0.35399 0.43835 -0.73000
O 	O 	0.83438 0.35928 0.49306 -0.48700
O 	O 	0.80196 0.31837 0.46782 -0.59700
O 	O 	0.80641 0.39558 0.46363 -0.72800
Mo	Mo	0.78274 0.30603 0.49734 1.09200
Mo	Mo	0.81652 0.35731 0.53085 1.06900
Zn	Zn	0.74482 0.32844 0.44106 1.22300
O 	O 	0.75275 0.30877 0.52488 -0.70900
O 	O 	0.80800 0.32080 0.52386 -0.59500
O 	O 	0.74387 0.30479 0.40906 -0.50000
C 	C 	0.74070 0.31680 0.38730 0.37400
C 	C 	0.73840 0.29780 0.36420 -0.17200
O 	O 	0.73974 0.34239 0.38492 -0.34200
C 	C 	0.73260 0.30830 0.33970 0.06300
C 	C 	0.74370 0.27230 0.36700 0.07400
H 	H 	0.72960 0.32700 0.33840 0.00600
C 	C 	0.73090 0.29190 0.31500 -0.14200
C 	C 	0.74070 0.25350 0.34360 -0.14300
H 	H 	0.74950 0.26560 0.38380 0.00300
H 	H 	0.72710 0.29960 0.29810 0.07700
C 	C 	0.73510 0.26370 0.31820 0.06100
H 	H 	0.74270 0.23470 0.34610 0.06600
C 	C 	0.73220 0.24690 0.29330 0.01900
C 	C 	0.70990 0.25030 0.27650 -0.09300
H 	H 	0.69720 0.26400 0.28000 0.05700
Mo	Mo	0.31018 0.85679 0.95833 1.05500
O 	O 	0.27567 0.85399 0.93835 -0.73000
O 	O 	0.33438 0.85928 0.99306 -0.48700
O 	O 	0.30196 0.81837 0.96782 -0.59700
O 	O 	0.30641 0.89558 0.96363 -0.72800
Mo	Mo	0.28274 0.80603 0.99734 1.09200
Mo	Mo	0.31652 0.85731 0.03085 1.06900
Zn	Zn	0.24482 0.82844 0.94106 1.22300
O 	O 	0.25275 0.80877 0.02488 -0.70900
O 	O 	0.30800 0.82080 0.02386 -0.59500
O 	O 	0.24387 0.80479 0.90906 -0.50000
C 	C 	0.24070 0.81680 0.88730 0.37400
C 	C 	0.23840 0.79780 0.86420 -0.17200
O 	O 	0.23974 0.84239 0.88492 -0.34200
C 	C 	0.23260 0.80830 0.83970 0.06300
C 	C 	0.24370 0.77230 0.86700 0.07400
H 	H 	0.22960 0.82700 0.83840 0.00600
C 	C 	0.23090 0.79190 0.81500 -0.14200
C 	C 	0.24070 0.75350 0.84360 -0.14300
H 	H 	0.24950 0.76560 0.88380 0.00300
H 	H 	0.22710 0.79960 0.79810 0.07700
C 	C 	0.23510 0.76370 0.81820 0.06100
H 	H 	0.24270 0.73470 0.84610 0.06600
C 	C 	0.23220 0.74690 0.79330 0.01900
C 	C 	0.20990 0.75030 0.77650 -0.09300
H 	H 	0.19720 0.76400 0.78000 0.05700
Mo	Mo	0.68982 0.64321 0.95833 1.05500
O 	O 	0.72433 0.64601 0.93835 -0.73000
O 	O 	0.66562 0.64072 0.99306 -0.48700
O 	O 	0.69804 0.68163 0.96782 -0.59700
O 	O 	0.69359 0.60442 0.96363 -0.72800
Mo	Mo	0.71726 0.69397 0.99734 1.09200
Mo	Mo	0.68348 0.64269 0.03085 1.06900
Zn	Zn	0.75518 0.67156 0.94106 1.22300
O 	O 	0.74725 0.69123 0.02488 -0.70900
O 	O 	0.69200 0.67920 0.02386 -0.59500
O 	O 	0.75613 0.69521 0.90906 -0.50000
C 	C 	0.75930 0.68320 0.88730 0.37400
C 	C 	0.76160 0.70220 0.86420 -0.17200
O 	O 	0.76026 0.65761 0.88492 -0.34200
C 	C 	0.76740 0.69170 0.83970 0.06300
C 	C 	0.75630 0.72770 0.86700 0.07400
H 	H 	0.77040 0.67300 0.83840 0.00600
C 	C 	0.76910 0.70810 0.81500 -0.14200
C 	C 	0.75930 0.74650 0.84360 -0.14300
H 	H 	0.75050 0.73440 0.88380 0.00300
H 	H 	0.77290 0.70040 0.79810 0.07700
C 	C 	0.76490 0.73630 0.81820 0.06100
H 	H 	0.75730 0.76530 0.84610 0.06600
C 	C 	0.76780 0.75310 0.79330 0.01900
C 	C 	0.79010 0.74970 0.77650 -0.09300
H 	H 	0.80280 0.73600 0.78000 0.05700
Mo	Mo	0.18982 0.14321 0.45833 1.05500
O 	O 	0.22433 0.14601 0.43835 -0.73000
O 	O 	0.16562 0.14072 0.49306 -0.48700
O 	O 	0.19804 0.18163 0.46782 -0.59700
O 	O 	0.19359 0.10442 0.46363 -0.72800
Mo	Mo	0.21726 0.19397 0.49734 1.09200
Mo	Mo	0.18348 0.14269 0.53085 1.06900
Zn	Zn	0.25518 0.17156 0.44106 1.22300
O 	O 	0.24725 0.19123 0.52488 -0.70900
O 	O 	0.19200 0.17920 0.52386 -0.59500
O 	O 	0.25613 0.19521 0.40906 -0.50000
C 	C 	0.25930 0.18320 0.38730 0.37400
C 	C 	0.26160 0.20220 0.36420 -0.17200
O 	O 	0.26026 0.15761 0.38492 -0.34200
C 	C 	0.26740 0.19170 0.33970 0.06300
C 	C 	0.25630 0.22770 0.36700 0.07400
H 	H 	0.27040 0.17300 0.33840 0.00600
C 	C 	0.26910 0.20810 0.31500 -0.14200
C 	C 	0.25930 0.24650 0.34360 -0.14300
H 	H 	0.25050 0.23440 0.38380 0.00300
H 	H 	0.27290 0.20040 0.29810 0.07700
C 	C 	0.26490 0.23630 0.31820 0.06100
H 	H 	0.25730 0.26530 0.34610 0.06600
C 	C 	0.26780 0.25310 0.29330 0.01900
C 	C 	0.29010 0.24970 0.27650 -0.09300
H 	H 	0.30280 0.23600 0.28000 0.05700
Mo	Mo	0.64321 0.95833 0.68982 1.05500
O 	O 	0.64601 0.93835 0.72433 -0.73000
O 	O 	0.64072 0.99306 0.66562 -0.48700
O 	O 	0.68163 0.96782 0.69804 -0.59700
O 	O 	0.60442 0.96363 0.69359 -0.72800
Mo	Mo	0.69397 0.99734 0.71726 1.09200
Mo	Mo	0.64269 0.03085 0.68348 1.06900
Zn	Zn	0.67156 0.94106 0.75518 1.22300
O 	O 	0.69123 0.02488 0.74725 -0.70900
O 	O 	0.67920 0.02386 0.69200 -0.59500
O 	O 	0.69521 0.90906 0.75613 -0.50000
C 	C 	0.68320 0.88730 0.75930 0.37400
C 	C 	0.70220 0.86420 0.76160 -0.17200
O 	O 	0.65761 0.88492 0.76026 -0.34200
C 	C 	0.69170 0.83970 0.76740 0.06300
C 	C 	0.72770 0.86700 0.75630 0.07400
H 	H 	0.67300 0.83840 0.77040 0.00600
C 	C 	0.70810 0.81500 0.76910 -0.14200
C 	C 	0.74650 0.84360 0.75930 -0.14300
H 	H 	0.73440 0.88380 0.75050 0.00300
H 	H 	0.70040 0.79810 0.77290 0.07700
C 	C 	0.73630 0.81820 0.76490 0.06100
H 	H 	0.76530 0.84610 0.75730 0.06600
C 	C 	0.75310 0.79330 0.76780 0.01900
C 	C 	0.74970 0.77650 0.79010 -0.09300
H 	H 	0.73600 0.78000 0.80280 0.05700
Mo	Mo	0.14321 0.45833 0.18982 1.05500
O 	O 	0.14601 0.43835 0.22433 -0.73000
O 	O 	0.14072 0.49306 0.16562 -0.48700
O 	O 	0.18163 0.46782 0.19804 -0.59700
O 	O 	0.10442 0.46363 0.19359 -0.72800
Mo	Mo	0.19397 0.49734 0.21726 1.09200
Mo	Mo	0.14269 0.53085 0.18348 1.06900
Zn	Zn	0.17156 0.44106 0.25518 1.22300
O 	O 	0.19123 0.52488 0.24725 -0.70900
O 	O 	0.17920 0.52386 0.19200 -0.59500
O 	O 	0.19521 0.40906 0.25613 -0.50000
C 	C 	0.18320 0.38730 0.25930 0.37400
C 	C 	0.20220 0.36420 0.26160 -0.17200
O 	O 	0.15761 0.38492 0.26026 -0.34200
C 	C 	0.19170 0.33970 0.26740 0.06300
C 	C 	0.22770 0.36700 0.25630 0.07400
H 	H 	0.17300 0.33840 0.27040 0.00600
C 	C 	0.20810 0.31500 0.26910 -0.14200
C 	C 	0.24650 0.34360 0.25930 -0.14300
H 	H 	0.23440 0.38380 0.25050 0.00300
H 	H 	0.20040 0.29810 0.27290 0.07700
C 	C 	0.23630 0.31820 0.26490 0.06100
H 	H 	0.26530 0.34610 0.25730 0.06600
C 	C 	0.25310 0.29330 0.26780 0.01900
C 	C 	0.24970 0.27650 0.29010 -0.09300
H 	H 	0.23600 0.28000 0.30280 0.05700
Mo	Mo	0.35679 0.45833 0.81018 1.05500
O 	O 	0.35399 0.43835 0.77567 -0.73000
O 	O 	0.35928 0.49306 0.83438 -0.48700
O 	O 	0.31837 0.46782 0.80196 -0.59700
O 	O 	0.39558 0.46363 0.80641 -0.72800
Mo	Mo	0.30603 0.49734 0.78274 1.09200
Mo	Mo	0.35731 0.53085 0.81652 1.06900
Zn	Zn	0.32844 0.44106 0.74482 1.22300
O 	O 	0.30877 0.52488 0.75275 -0.70900
O 	O 	0.32080 0.52386 0.80800 -0.59500
O 	O 	0.30479 0.40906 0.74387 -0.50000
C 	C 	0.31680 0.38730 0.74070 0.37400
C 	C 	0.29780 0.36420 0.73840 -0.17200
O 	O 	0.34239 0.38492 0.73974 -0.34200
C 	C 	0.30830 0.33970 0.73260 0.06300
C 	C 	0.27230 0.36700 0.74370 0.07400
H 	H 	0.32700 0.33840 0.72960 0.00600
C 	C 	0.29190 0.31500 0.73090 -0.14200
C 	C 	0.25350 0.34360 0.74070 -0.14300
H 	H 	0.26560 0.38380 0.74950 0.00300
H 	H 	0.29960 0.29810 0.72710 0.07700
C 	C 	0.26370 0.31820 0.73510 0.06100
H 	H 	0.23470 0.34610 0.74270 0.06600
C 	C 	0.24690 0.29330 0.73220 0.01900
C 	C 	0.25030 0.27650 0.70990 -0.09300
H 	H 	0.26400 0.28000 0.69720 0.05700
Mo	Mo	0.85679 0.95833 0.31018 1.05500
O 	O 	0.85399 0.93835 0.27567 -0.73000
O 	O 	0.85928 0.99306 0.33438 -0.48700
O 	O 	0.81837 0.96782 0.30196 -0.59700
O 	O 	0.89558 0.96363 0.30641 -0.72800
Mo	Mo	0.80603 0.99734 0.28274 1.09200
Mo	Mo	0.85731 0.03085 0.31652 1.06900
Zn	Zn	0.82844 0.94106 0.24482 1.22300
O 	O 	0.80877 0.02488 0.25275 -0.70900
O 	O 	0.82080 0.02386 0.30800 -0.59500
O 	O 	0.80479 0.90906 0.24387 -0.50000
C 	C 	0.81680 0.88730 0.24070 0.37400
C 	C 	0.79780 0.86420 0.23840 -0.17200
O 	O 	0.84239 0.88492 0.23974 -0.34200
C 	C 	0.80830 0.83970 0.23260 0.06300
C 	C 	0.77230 0.86700 0.24370 0.07400
H 	H 	0.82700 0.83840 0.22960 0.00600
C 	C 	0.79190 0.81500 0.23090 -0.14200
C 	C 	0.75350 0.84360 0.24070 -0.14300
H 	H 	0.76560 0.88380 0.24950 0.00300
H 	H 	0.79960 0.79810 0.22710 0.07700
C 	C 	0.76370 0.81820 0.23510 0.06100
H 	H 	0.73470 0.84610 0.24270 0.06600
C 	C 	0.74690 0.79330 0.23220 0.01900
C 	C 	0.75030 0.77650 0.20990 -0.09300
H 	H 	0.76400 0.78000 0.19720 0.05700
Mo	Mo	0.85679 0.04167 0.18982 1.05500
O 	O 	0.85399 0.06165 0.22433 -0.73000
O 	O 	0.85928 0.00694 0.16562 -0.48700
O 	O 	0.81837 0.03218 0.19804 -0.59700
O 	O 	0.89558 0.03637 0.19359 -0.72800
Mo	Mo	0.80603 0.00266 0.21726 1.09200
Mo	Mo	0.85731 0.96915 0.18348 1.06900
Zn	Zn	0.82844 0.05894 0.25518 1.22300
O 	O 	0.80877 0.97512 0.24725 -0.70900
O 	O 	0.82080 0.97614 0.19200 -0.59500
O 	O 	0.80479 0.09094 0.25613 -0.50000
C 	C 	0.81680 0.11270 0.25930 0.37400
C 	C 	0.79780 0.13580 0.26160 -0.17200
O 	O 	0.84239 0.11508 0.26026 -0.34200
C 	C 	0.80830 0.16030 0.26740 0.06300
C 	C 	0.77230 0.13300 0.25630 0.07400
H 	H 	0.82700 0.16160 0.27040 0.00600
C 	C 	0.79190 0.18500 0.26910 -0.14200
C 	C 	0.75350 0.15640 0.25930 -0.14300
H 	H 	0.76560 0.11620 0.25050 0.00300
H 	H 	0.79960 0.20190 0.27290 0.07700
C 	C 	0.76370 0.18180 0.26490 0.06100
H 	H 	0.73470 0.15390 0.25730 0.06600
C 	C 	0.74690 0.20670 0.26780 0.01900
C 	C 	0.75030 0.22350 0.29010 -0.09300
H 	H 	0.76400 0.22000 0.30280 0.05700
Mo	Mo	0.35679 0.54167 0.68982 1.05500
O 	O 	0.35399 0.56165 0.72433 -0.73000
O 	O 	0.35928 0.50694 0.66562 -0.48700
O 	O 	0.31837 0.53218 0.69804 -0.59700
O 	O 	0.39558 0.53637 0.69359 -0.72800
Mo	Mo	0.30603 0.50266 0.71726 1.09200
Mo	Mo	0.35731 0.46915 0.68348 1.06900
Zn	Zn	0.32844 0.55894 0.75518 1.22300
O 	O 	0.30877 0.47512 0.74725 -0.70900
O 	O 	0.32080 0.47614 0.69200 -0.59500
O 	O 	0.30479 0.59094 0.75613 -0.50000
C 	C 	0.31680 0.61270 0.75930 0.37400
C 	C 	0.29780 0.63580 0.76160 -0.17200
O 	O 	0.34239 0.61508 0.76026 -0.34200
C 	C 	0.30830 0.66030 0.76740 0.06300
C 	C 	0.27230 0.63300 0.75630 0.07400
H 	H 	0.32700 0.66160 0.77040 0.00600
C 	C 	0.29190 0.68500 0.76910 -0.14200
C 	C 	0.25350 0.65640 0.75930 -0.14300
H 	H 	0.26560 0.61620 0.75050 0.00300
H 	H 	0.29960 0.70190 0.77290 0.07700
C 	C 	0.26370 0.68180 0.76490 0.06100
H 	H 	0.23470 0.65390 0.75730 0.06600
C 	C 	0.24690 0.70670 0.76780 0.01900
C 	C 	0.25030 0.72350 0.79010 -0.09300
H 	H 	0.26400 0.72000 0.80280 0.05700
Mo	Mo	0.14321 0.54167 0.31018 1.05500
O 	O 	0.14601 0.56165 0.27567 -0.73000
O 	O 	0.14072 0.50694 0.33438 -0.48700
O 	O 	0.18163 0.53218 0.30196 -0.59700
O 	O 	0.10442 0.53637 0.30641 -0.72800
Mo	Mo	0.19397 0.50266 0.28274 1.09200
Mo	Mo	0.14269 0.46915 0.31652 1.06900
Zn	Zn	0.17156 0.55894 0.24482 1.22300
O 	O 	0.19123 0.47512 0.25275 -0.70900
O 	O 	0.17920 0.47614 0.30800 -0.59500
O 	O 	0.19521 0.59094 0.24387 -0.50000
C 	C 	0.18320 0.61270 0.24070 0.37400
C 	C 	0.20220 0.63580 0.23840 -0.17200
O 	O 	0.15761 0.61508 0.23974 -0.34200
C 	C 	0.19170 0.66030 0.23260 0.06300
C 	C 	0.22770 0.63300 0.24370 0.07400
H 	H 	0.17300 0.66160 0.22960 0.00600
C 	C 	0.20810 0.68500 0.23090 -0.14200
C 	C 	0.24650 0.65640 0.24070 -0.14300
H 	H 	0.23440 0.61620 0.24950 0.00300
H 	H 	0.20040 0.70190 0.22710 0.07700
C 	C 	0.23630 0.68180 0.23510 0.06100
H 	H 	0.26530 0.65390 0.24270 0.06600
C 	C 	0.25310 0.70670 0.23220 0.01900
C 	C 	0.24970 0.72350 0.20990 -0.09300
H 	H 	0.23600 0.72000 0.19720 0.05700
Mo	Mo	0.64321 0.04167 0.81018 1.05500
O 	O 	0.64601 0.06165 0.77567 -0.73000
O 	O 	0.64072 0.00694 0.83438 -0.48700
O 	O 	0.68163 0.03218 0.80196 -0.59700
O 	O 	0.60442 0.03637 0.80641 -0.72800
Mo	Mo	0.69397 0.00266 0.78274 1.09200
Mo	Mo	0.64269 0.96915 0.81652 1.06900
Zn	Zn	0.67156 0.05894 0.74482 1.22300
O 	O 	0.69123 0.97512 0.75275 -0.70900
O 	O 	0.67920 0.97614 0.80800 -0.59500
O 	O 	0.69521 0.09094 0.74387 -0.50000
C 	C 	0.68320 0.11270 0.74070 0.37400
C 	C 	0.70220 0.13580 0.73840 -0.17200
O 	O 	0.65761 0.11508 0.73974 -0.34200
C 	C 	0.69170 0.16030 0.73260 0.06300
C 	C 	0.72770 0.13300 0.74370 0.07400
H 	H 	0.67300 0.16160 0.72960 0.00600
C 	C 	0.70810 0.18500 0.73090 -0.14200
C 	C 	0.74650 0.15640 0.74070 -0.14300
H 	H 	0.73440 0.11620 0.74950 0.00300
H 	H 	0.70040 0.20190 0.72710 0.07700
C 	C 	0.73630 0.18180 0.73510 0.06100
H 	H 	0.76530 0.15390 0.74270 0.06600
C 	C 	0.75310 0.20670 0.73220 0.01900
C 	C 	0.74970 0.22350 0.70990 -0.09300
H 	H 	0.73600 0.22000 0.69720 0.05700
Mo	Mo	0.45833 0.81018 0.35679 1.05500
O 	O 	0.43835 0.77567 0.35399 -0.73000
O 	O 	0.49306 0.83438 0.35928 -0.48700
O 	O 	0.46782 0.80196 0.31837 -0.59700
O 	O 	0.46363 0.80641 0.39558 -0.72800
Mo	Mo	0.49734 0.78274 0.30603 1.09200
Mo	Mo	0.53085 0.81652 0.35731 1.06900
Zn	Zn	0.44106 0.74482 0.32844 1.22300
O 	O 	0.52488 0.75275 0.30877 -0.70900
O 	O 	0.52386 0.80800 0.32080 -0.59500
O 	O 	0.40906 0.74387 0.30479 -0.50000
C 	C 	0.38730 0.74070 0.31680 0.37400
C 	C 	0.36420 0.73840 0.29780 -0.17200
O 	O 	0.38492 0.73974 0.34239 -0.34200
C 	C 	0.33970 0.73260 0.30830 0.06300
C 	C 	0.36700 0.74370 0.27230 0.07400
H 	H 	0.33840 0.72960 0.32700 0.00600
C 	C 	0.31500 0.73090 0.29190 -0.14200
C 	C 	0.34360 0.74070 0.25350 -0.14300
H 	H 	0.38380 0.74950 0.26560 0.00300
H 	H 	0.29810 0.72710 0.29960 0.07700
C 	C 	0.31820 0.73510 0.26370 0.06100
H 	H 	0.34610 0.74270 0.23470 0.06600
C 	C 	0.29330 0.73220 0.24690 0.01900
C 	C 	0.27650 0.70990 0.25030 -0.09300
H 	H 	0.28000 0.69720 0.26400 0.05700
Mo	Mo	0.95833 0.31018 0.85679 1.05500
O 	O 	0.93835 0.27567 0.85399 -0.73000
O 	O 	0.99306 0.33438 0.85928 -0.48700
O 	O 	0.96782 0.30196 0.81837 -0.59700
O 	O 	0.96363 0.30641 0.89558 -0.72800
Mo	Mo	0.99734 0.28274 0.80603 1.09200
Mo	Mo	0.03085 0.31652 0.85731 1.06900
Zn	Zn	0.94106 0.24482 0.82844 1.22300
O 	O 	0.02488 0.25275 0.80877 -0.70900
O 	O 	0.02386 0.30800 0.82080 -0.59500
O 	O 	0.90906 0.24387 0.80479 -0.50000
C 	C 	0.88730 0.24070 0.81680 0.37400
C 	C 	0.86420 0.23840 0.79780 -0.17200
O 	O 	0.88492 0.23974 0.84239 -0.34200
C 	C 	0.83970 0.23260 0.80830 0.06300
C 	C 	0.86700 0.24370 0.77230 0.07400
H 	H 	0.83840 0.22960 0.82700 0.00600
C 	C 	0.81500 0.23090 0.79190 -0.14200
C 	C 	0.84360 0.24070 0.75350 -0.14300
H 	H 	0.88380 0.24950 0.76560 0.00300
H 	H 	0.79810 0.22710 0.79960 0.07700
C 	C 	0.81820 0.23510 0.76370 0.06100
H 	H 	0.84610 0.24270 0.73470 0.06600
C 	C 	0.79330 0.23220 0.74690 0.01900
C 	C 	0.77650 0.20990 0.75030 -0.09300
H 	H 	0.78000 0.19720 0.76400 0.05700
Mo	Mo	0.95833 0.68982 0.64321 1.05500
O 	O 	0.93835 0.72433 0.64601 -0.73000
O 	O 	0.99306 0.66562 0.64072 -0.48700
O 	O 	0.96782 0.69804 0.68163 -0.59700
O 	O 	0.96363 0.69359 0.60442 -0.72800
Mo	Mo	0.99734 0.71726 0.69397 1.09200
Mo	Mo	0.03085 0.68348 0.64269 1.06900
Zn	Zn	0.94106 0.75518 0.67156 1.22300
O 	O 	0.02488 0.74725 0.69123 -0.70900
O 	O 	0.02386 0.69200 0.67920 -0.59500
O 	O 	0.90906 0.75613 0.69521 -0.50000
C 	C 	0.88730 0.75930 0.68320 0.37400
C 	C 	0.86420 0.76160 0.70220 -0.17200
O 	O 	0.88492 0.76026 0.65761 -0.34200
C 	C 	0.83970 0.76740 0.69170 0.06300
C 	C 	0.86700 0.75630 0.72770 0.07400
H 	H 	0.83840 0.77040 0.67300 0.00600
C 	C 	0.81500 0.76910 0.70810 -0.14200
C 	C 	0.84360 0.75930 0.74650 -0.14300
H 	H 	0.88380 0.75050 0.73440 0.00300
H 	H 	0.79810 0.77290 0.70040 0.07700
C 	C 	0.81820 0.76490 0.73630 0.06100
H 	H 	0.84610 0.75730 0.76530 0.06600
C 	C 	0.79330 0.76780 0.75310 0.01900
C 	C 	0.77650 0.79010 0.74970 -0.09300
H 	H 	0.78000 0.80280 0.73600 0.05700
Mo	Mo	0.45833 0.18982 0.14321 1.05500
O 	O 	0.43835 0.22433 0.14601 -0.73000
O 	O 	0.49306 0.16562 0.14072 -0.48700
O 	O 	0.46782 0.19804 0.18163 -0.59700
O 	O 	0.46363 0.19359 0.10442 -0.72800
Mo	Mo	0.49734 0.21726 0.19397 1.09200
Mo	Mo	0.53085 0.18348 0.14269 1.06900
Zn	Zn	0.44106 0.25518 0.17156 1.22300
O 	O 	0.52488 0.24725 0.19123 -0.70900
O 	O 	0.52386 0.19200 0.17920 -0.59500
O 	O 	0.40906 0.25613 0.19521 -0.50000
C 	C 	0.38730 0.25930 0.18320 0.37400
C 	C 	0.36420 0.26160 0.20220 -0.17200
O 	O 	0.38492 0.26026 0.15761 -0.34200
C 	C 	0.33970 0.26740 0.19170 0.06300
C 	C 	0.36700 0.25630 0.22770 0.07400
H 	H 	0.33840 0.27040 0.17300 0.00600
C 	C 	0.31500 0.26910 0.20810 -0.14200
C 	C 	0.34360 0.25930 0.24650 -0.14300
H 	H 	0.38380 0.25050 0.23440 0.00300
H 	H 	0.29810 0.27290 0.20040 0.07700
C 	C 	0.31820 0.26490 0.23630 0.06100
H 	H 	0.34610 0.25730 0.26530 0.06600
C 	C 	0.29330 0.26780 0.25310 0.01900
C 	C 	0.27650 0.29010 0.24970 -0.09300
H 	H 	0.28000 0.30280 0.23600 0.05700
Mo	Mo	0.54167 0.31018 0.14321 1.05500
O 	O 	0.56165 0.27567 0.14601 -0.73000
O 	O 	0.50694 0.33438 0.14072 -0.48700
O 	O 	0.53218 0.30196 0.18163 -0.59700
O 	O 	0.53637 0.30641 0.10442 -0.72800
Mo	Mo	0.50266 0.28274 0.19397 1.09200
Mo	Mo	0.46915 0.31652 0.14269 1.06900
Zn	Zn	0.55894 0.24482 0.17156 1.22300
O 	O 	0.47512 0.25275 0.19123 -0.70900
O 	O 	0.47614 0.30800 0.17920 -0.59500
O 	O 	0.59094 0.24387 0.19521 -0.50000
C 	C 	0.61270 0.24070 0.18320 0.37400
C 	C 	0.63580 0.23840 0.20220 -0.17200
O 	O 	0.61508 0.23974 0.15761 -0.34200
C 	C 	0.66030 0.23260 0.19170 0.06300
C 	C 	0.63300 0.24370 0.22770 0.07400
H 	H 	0.66160 0.22960 0.17300 0.00600
C 	C 	0.68500 0.23090 0.20810 -0.14200
C 	C 	0.65640 0.24070 0.24650 -0.14300
H 	H 	0.61620 0.24950 0.23440 0.00300
H 	H 	0.70190 0.22710 0.20040 0.07700
C 	C 	0.68180 0.23510 0.23630 0.06100
H 	H 	0.65390 0.24270 0.26530 0.06600
C 	C 	0.70670 0.23220 0.25310 0.01900
C 	C 	0.72350 0.20990 0.24970 -0.09300
H 	H 	0.72000 0.19720 0.23600 0.05700
Mo	Mo	0.04167 0.81018 0.64321 1.05500
O 	O 	0.06165 0.77567 0.64601 -0.73000
O 	O 	0.00694 0.83438 0.64072 -0.48700
O 	O 	0.03218 0.80196 0.68163 -0.59700
O 	O 	0.03637 0.80641 0.60442 -0.72800
Mo	Mo	0.00266 0.78274 0.69397 1.09200
Mo	Mo	0.96915 0.81652 0.64269 1.06900
Zn	Zn	0.05894 0.74482 0.67156 1.22300
O 	O 	0.97512 0.75275 0.69123 -0.70900
O 	O 	0.97614 0.80800 0.67920 -0.59500
O 	O 	0.09094 0.74387 0.69521 -0.50000
C 	C 	0.11270 0.74070 0.68320 0.37400
C 	C 	0.13580 0.73840 0.70220 -0.17200
O 	O 	0.11508 0.73974 0.65761 -0.34200
C 	C 	0.16030 0.73260 0.69170 0.06300
C 	C 	0.13300 0.74370 0.72770 0.07400
H 	H 	0.16160 0.72960 0.67300 0.00600
C 	C 	0.18500 0.73090 0.70810 -0.14200
C 	C 	0.15640 0.74070 0.74650 -0.14300
H 	H 	0.11620 0.74950 0.73440 0.00300
H 	H 	0.20190 0.72710 0.70040 0.07700
C 	C 	0.18180 0.73510 0.73630 0.06100
H 	H 	0.15390 0.74270 0.76530 0.06600
C 	C 	0.20670 0.73220 0.75310 0.01900
C 	C 	0.22350 0.70990 0.74970 -0.09300
H 	H 	0.22000 0.69720 0.73600 0.05700
Mo	Mo	0.04167 0.18982 0.85679 1.05500
O 	O 	0.06165 0.22433 0.85399 -0.73000
O 	O 	0.00694 0.16562 0.85928 -0.48700
O 	O 	0.03218 0.19804 0.81837 -0.59700
O 	O 	0.03637 0.19359 0.89558 -0.72800
Mo	Mo	0.00266 0.21726 0.80603 1.09200
Mo	Mo	0.96915 0.18348 0.85731 1.06900
Zn	Zn	0.05894 0.25518 0.82844 1.22300
O 	O 	0.97512 0.24725 0.80877 -0.70900
O 	O 	0.97614 0.19200 0.82080 -0.59500
O 	O 	0.09094 0.25613 0.80479 -0.50000
C 	C 	0.11270 0.25930 0.81680 0.37400
C 	C 	0.13580 0.26160 0.79780 -0.17200
O 	O 	0.11508 0.26026 0.84239 -0.34200
C 	C 	0.16030 0.26740 0.80830 0.06300
C 	C 	0.13300 0.25630 0.77230 0.07400
H 	H 	0.16160 0.27040 0.82700 0.00600
C 	C 	0.18500 0.26910 0.79190 -0.14200
C 	C 	0.15640 0.25930 0.75350 -0.14300
H 	H 	0.11620 0.25050 0.76560 0.00300
H 	H 	0.20190 0.27290 0.79960 0.07700
C 	C 	0.18180 0.26490 0.76370 0.06100
H 	H 	0.15390 0.25730 0.73470 0.06600
C 	C 	0.20670 0.26780 0.74690 0.01900
C 	C 	0.22350 0.29010 0.75030 -0.09300
H 	H 	0.22000 0.30280 0.76400 0.05700
Mo	Mo	0.54167 0.68982 0.35679 1.05500
O 	O 	0.56165 0.72433 0.35399 -0.73000
O 	O 	0.50694 0.66562 0.35928 -0.48700
O 	O 	0.53218 0.69804 0.31837 -0.59700
O 	O 	0.53637 0.69359 0.39558 -0.72800
Mo	Mo	0.50266 0.71726 0.30603 1.09200
Mo	Mo	0.46915 0.68348 0.35731 1.06900
Zn	Zn	0.55894 0.75518 0.32844 1.22300
O 	O 	0.47512 0.74725 0.30877 -0.70900
O 	O 	0.47614 0.69200 0.32080 -0.59500
O 	O 	0.59094 0.75613 0.30479 -0.50000
C 	C 	0.61270 0.75930 0.31680 0.37400
C 	C 	0.63580 0.76160 0.29780 -0.17200
O 	O 	0.61508 0.76026 0.34239 -0.34200
C 	C 	0.66030 0.76740 0.30830 0.06300
C 	C 	0.63300 0.75630 0.27230 0.07400
H 	H 	0.66160 0.77040 0.32700 0.00600
C 	C 	0.68500 0.76910 0.29190 -0.14200
C 	C 	0.65640 0.75930 0.25350 -0.14300
H 	H 	0.61620 0.75050 0.26560 0.00300
H 	H 	0.70190 0.77290 0.29960 0.07700
C 	C 	0.68180 0.76490 0.26370 0.06100
H 	H 	0.65390 0.75730 0.23470 0.06600
C 	C 	0.70670 0.76780 0.24690 0.01900
C 	C 	0.72350 0.79010 0.25030 -0.09300
H 	H 	0.72000 0.80280 0.26400 0.05700
Mo	Mo	0.68982 0.85679 0.45833 1.05500
O 	O 	0.72433 0.85399 0.43835 -0.73000
O 	O 	0.66562 0.85928 0.49306 -0.48700
O 	O 	0.69804 0.81837 0.46782 -0.59700
O 	O 	0.69359 0.89558 0.46363 -0.72800
Mo	Mo	0.71726 0.80603 0.49734 1.09200
Mo	Mo	0.68348 0.85731 0.53085 1.06900
Zn	Zn	0.75518 0.82844 0.44106 1.22300
O 	O 	0.74725 0.80877 0.52488 -0.70900
O 	O 	0.69200 0.82080 0.52386 -0.59500
O 	O 	0.75613 0.80479 0.40906 -0.50000
C 	C 	0.75930 0.81680 0.38730 0.37400
C 	C 	0.76160 0.79780 0.36420 -0.17200
O 	O 	0.76026 0.84239 0.38492 -0.34200
C 	C 	0.76740 0.80830 0.33970 0.06300
C 	C 	0.75630 0.77230 0.36700 0.07400
H 	H 	0.77040 0.82700 0.33840 0.00600
C 	C 	0.76910 0.79190 0.31500 -0.14200
C 	C 	0.75930 0.75350 0.34360 -0.14300
H 	H 	0.75050 0.76560 0.38380 0.00300
H 	H 	0.77290 0.79960 0.29810 0.07700
C 	C 	0.76490 0.76370 0.31820 0.06100
H 	H 	0.75730 0.73470 0.34610 0.06600
C 	C 	0.76780 0.74690 0.29330 0.01900
C 	C 	0.79010 0.75030 0.27650 -0.09300
H 	H 	0.80280 0.76400 0.28000 0.05700
Mo	Mo	0.18982 0.35679 0.95833 1.05500
O 	O 	0.22433 0.35399 0.93835 -0.73000
O 	O 	0.16562 0.35928 0.99306 -0.48700
O 	O 	0.19804 0.31837 0.96782 -0.59700
O 	O 	0.19359 0.39558 0.96363 -0.72800
Mo	Mo	0.21726 0.30603 0.99734 1.09200
Mo	Mo	0.18348 0.35731 0.03085 1.06900
Zn	Zn	0.25518 0.32844 0.94106 1.22300
O 	O 	0.24725 0.30877 0.02488 -0.70900
O 	O 	0.19200 0.32080 0.02386 -0.59500
O 	O 	0.25613 0.30479 0.90906 -0.50000
C 	C 	0.25930 0.31680 0.88730 0.37400
C 	C 	0.26160 0.29780 0.86420 -0.17200
O 	O 	0.26026 0.34239 0.88492 -0.34200
C 	C 	0.26740 0.30830 0.83970 0.06300
C 	C 	0.25630 0.27230 0.86700 0.07400
H 	H 	0.27040 0.32700 0.83840 0.00600
C 	C 	0.26910 0.29190 0.81500 -0.14200
C 	C 	0.25930 0.25350 0.84360 -0.14300
H 	H 	0.25050 0.26560 0.88380 0.00300
H 	H 	0.27290 0.29960 0.79810 0.07700
C 	C 	0.26490 0.26370 0.81820 0.06100
H 	H 	0.25730 0.23470 0.84610 0.06600
C 	C 	0.26780 0.24690 0.79330 0.01900
C 	C 	0.29010 0.25030 0.77650 -0.09300
H 	H 	0.30280 0.26400 0.78000 0.05700
Mo	Mo	0.81018 0.14321 0.95833 1.05500
O 	O 	0.77567 0.14601 0.93835 -0.73000
O 	O 	0.83438 0.14072 0.99306 -0.48700
O 	O 	0.80196 0.18163 0.96782 -0.59700
O 	O 	0.80641 0.10442 0.96363 -0.72800
Mo	Mo	0.78274 0.19397 0.99734 1.09200
Mo	Mo	0.81652 0.14269 0.03085 1.06900
Zn	Zn	0.74482 0.17156 0.94106 1.22300
O 	O 	0.75275 0.19123 0.02488 -0.70900
O 	O 	0.80800 0.17920 0.02386 -0.59500
O 	O 	0.74387 0.19521 0.90906 -0.50000
C 	C 	0.74070 0.18320 0.88730 0.37400
C 	C 	0.73840 0.20220 0.86420 -0.17200
O 	O 	0.73974 0.15761 0.88492 -0.34200
C 	C 	0.73260 0.19170 0.83970 0.06300
C 	C 	0.74370 0.22770 0.86700 0.07400
H 	H 	0.72960 0.17300 0.83840 0.00600
C 	C 	0.73090 0.20810 0.81500 -0.14200
C 	C 	0.74070 0.24650 0.84360 -0.14300
H 	H 	0.74950 0.23440 0.88380 0.00300
H 	H 	0.72710 0.20040 0.79810 0.07700
C 	C 	0.73510 0.23630 0.81820 0.06100
H 	H 	0.74270 0.26530 0.84610 0.06600
C 	C 	0.73220 0.25310 0.79330 0.01900
C 	C 	0.70990 0.24970 0.77650 -0.09300
H 	H 	0.69720 0.23600 0.78000 0.05700
Mo	Mo	0.31018 0.64321 0.45833 1.05500
O 	O 	0.27567 0.64601 0.43835 -0.73000
O 	O 	0.33438 0.64072 0.49306 -0.48700
O 	O 	0.30196 0.68163 0.46782 -0.59700
O 	O 	0.30641 0.60442 0.46363 -0.72800
Mo	Mo	0.28274 0.69397 0.49734 1.09200
Mo	Mo	0.31652 0.64269 0.53085 1.06900
Zn	Zn	0.24482 0.67156 0.44106 1.22300
O 	O 	0.25275 0.69123 0.52488 -0.70900
O 	O 	0.30800 0.67920 0.52386 -0.59500
O 	O 	0.24387 0.69521 0.40906 -0.50000
C 	C 	0.24070 0.68320 0.38730 0.37400
C 	C 	0.23840 0.70220 0.36420 -0.17200
O 	O 	0.23974 0.65761 0.38492 -0.34200
C 	C 	0.23260 0.69170 0.33970 0.06300
C 	C 	0.24370 0.72770 0.36700 0.07400
H 	H 	0.22960 0.67300 0.33840 0.00600
C 	C 	0.23090 0.70810 0.31500 -0.14200
C 	C 	0.24070 0.74650 0.34360 -0.14300
H 	H 	0.24950 0.73440 0.38380 0.00300
H 	H 	0.22710 0.70040 0.29810 0.07700
C 	C 	0.23510 0.73630 0.31820 0.06100
H 	H 	0.24270 0.76530 0.34610 0.06600
C 	C 	0.23220 0.75310 0.29330 0.01900
C 	C 	0.20990 0.74970 0.27650 -0.09300
H 	H 	0.19720 0.73600 0.28000 0.05700
Mo	Mo	0.18982 0.64321 0.54167 1.05500
O 	O 	0.22433 0.64601 0.56165 -0.73000
O 	O 	0.16562 0.64072 0.50694 -0.48700
O 	O 	0.19804 0.68163 0.53218 -0.59700
O 	O 	0.19359 0.60442 0.53637 -0.72800
Mo	Mo	0.21726 0.69397 0.50266 1.09200
Mo	Mo	0.18348 0.64269 0.46915 1.06900
Zn	Zn	0.25518 0.67156 0.55894 1.22300
O 	O 	0.24725 0.69123 0.47512 -0.70900
O 	O 	0.19200 0.67920 0.47614 -0.59500
O 	O 	0.25613 0.69521 0.59094 -0.50000
C 	C 	0.25930 0.68320 0.61270 0.37400
C 	C 	0.26160 0.70220 0.63580 -0.17200
O 	O 	0.26026 0.65761 0.61508 -0.34200
C 	C 	0.26740 0.69170 0.66030 0.06300
C 	C 	0.25630 0.72770 0.63300 0.07400
H 	H 	0.27040 0.67300 0.66160 0.00600
C 	C 	0.26910 0.70810 0.68500 -0.14200
C 	C 	0.25930 0.74650 0.65640 -0.14300
H 	H 	0.25050 0.73440 0.61620 0.00300
H 	H 	0.27290 0.70040 0.70190 0.07700
C 	C 	0.26490 0.73630 0.68180 0.06100
H 	H 	0.25730 0.76530 0.65390 0.06600
C 	C 	0.26780 0.75310 0.70670 0.01900
C 	C 	0.29010 0.74970 0.72350 -0.09300
H 	H 	0.30280 0.73600 0.72000 0.05700
Mo	Mo	0.68982 0.14321 0.04167 1.05500
O 	O 	0.72433 0.14601 0.06165 -0.73000
O 	O 	0.66562 0.14072 0.00694 -0.48700
O 	O 	0.69804 0.18163 0.03218 -0.59700
O 	O 	0.69359 0.10442 0.03637 -0.72800
Mo	Mo	0.71726 0.19397 0.00266 1.09200
Mo	Mo	0.68348 0.14269 0.96915 1.06900
Zn	Zn	0.75518 0.17156 0.05894 1.22300
O 	O 	0.74725 0.19123 0.97512 -0.70900
O 	O 	0.69200 0.17920 0.97614 -0.59500
O 	O 	0.75613 0.19521 0.09094 -0.50000
C 	C 	0.75930 0.18320 0.11270 0.37400
C 	C 	0.76160 0.20220 0.13580 -0.17200
O 	O 	0.76026 0.15761 0.11508 -0.34200
C 	C 	0.76740 0.19170 0.16030 0.06300
C 	C 	0.75630 0.22770 0.13300 0.07400
H 	H 	0.77040 0.17300 0.16160 0.00600
C 	C 	0.76910 0.20810 0.18500 -0.14200
C 	C 	0.75930 0.24650 0.15640 -0.14300
H 	H 	0.75050 0.23440 0.11620 0.00300
H 	H 	0.77290 0.20040 0.20190 0.07700
C 	C 	0.76490 0.23630 0.18180 0.06100
H 	H 	0.75730 0.26530 0.15390 0.06600
C 	C 	0.76780 0.25310 0.20670 0.01900
C 	C 	0.79010 0.24970 0.22350 -0.09300
H 	H 	0.80280 0.23600 0.22000 0.05700
Mo	Mo	0.31018 0.35679 0.04167 1.05500
O 	O 	0.27567 0.35399 0.06165 -0.73000
O 	O 	0.33438 0.35928 0.00694 -0.48700
O 	O 	0.30196 0.31837 0.03218 -0.59700
O 	O 	0.30641 0.39558 0.03637 -0.72800
Mo	Mo	0.28274 0.30603 0.00266 1.09200
Mo	Mo	0.31652 0.35731 0.96915 1.06900
Zn	Zn	0.24482 0.32844 0.05894 1.22300
O 	O 	0.25275 0.30877 0.97512 -0.70900
O 	O 	0.30800 0.32080 0.97614 -0.59500
O 	O 	0.24387 0.30479 0.09094 -0.50000
C 	C 	0.24070 0.31680 0.11270 0.37400
C 	C 	0.23840 0.29780 0.13580 -0.17200
O 	O 	0.23974 0.34239 0.11508 -0.34200
C 	C 	0.23260 0.30830 0.16030 0.06300
C 	C 	0.24370 0.27230 0.13300 0.07400
H 	H 	0.22960 0.32700 0.16160 0.00600
C 	C 	0.23090 0.29190 0.18500 -0.14200
C 	C 	0.24070 0.25350 0.15640 -0.14300
H 	H 	0.24950 0.26560 0.11620 0.00300
H 	H 	0.22710 0.29960 0.20190 0.07700
C 	C 	0.23510 0.26370 0.18180 0.06100
H 	H 	0.24270 0.23470 0.15390 0.06600
C 	C 	0.23220 0.24690 0.20670 0.01900
C 	C 	0.20990 0.25030 0.22350 -0.09300
H 	H 	0.19720 0.26400 0.22000 0.05700
Mo	Mo	0.81018 0.85679 0.54167 1.05500
O 	O 	0.77567 0.85399 0.56165 -0.73000
O 	O 	0.83438 0.85928 0.50694 -0.48700
O 	O 	0.80196 0.81837 0.53218 -0.59700
O 	O 	0.80641 0.89558 0.53637 -0.72800
Mo	Mo	0.78274 0.80603 0.50266 1.09200
Mo	Mo	0.81652 0.85731 0.46915 1.06900
Zn	Zn	0.74482 0.82844 0.55894 1.22300
O 	O 	0.75275 0.80877 0.47512 -0.70900
O 	O 	0.80800 0.82080 0.47614 -0.59500
O 	O 	0.74387 0.80479 0.59094 -0.50000
C 	C 	0.74070 0.81680 0.61270 0.37400
C 	C 	0.73840 0.79780 0.63580 -0.17200
O 	O 	0.73974 0.84239 0.61508 -0.34200
C 	C 	0.73260 0.80830 0.66030 0.06300
C 	C 	0.74370 0.77230 0.63300 0.07400
H 	H 	0.72960 0.82700 0.66160 0.00600
C 	C 	0.73090 0.79190 0.68500 -0.14200
C 	C 	0.74070 0.75350 0.65640 -0.14300
H 	H 	0.74950 0.76560 0.61620 0.00300
H 	H 	0.72710 0.79960 0.70190 0.07700
C 	C 	0.73510 0.76370 0.68180 0.06100
H 	H 	0.74270 0.73470 0.65390 0.06600
C 	C 	0.73220 0.74690 0.70670 0.01900
C 	C 	0.70990 0.75030 0.72350 -0.09300
H 	H 	0.69720 0.76400 0.72000 0.05700
Mo	Mo	0.35679 0.04167 0.31018 1.05500
O 	O 	0.35399 0.06165 0.27567 -0.73000
O 	O 	0.35928 0.00694 0.33438 -0.48700
O 	O 	0.31837 0.03218 0.30196 -0.59700
O 	O 	0.39558 0.03637 0.30641 -0.72800
Mo	Mo	0.30603 0.00266 0.28274 1.09200
Mo	Mo	0.35731 0.96915 0.31652 1.06900
Zn	Zn	0.32844 0.05894 0.24482 1.22300
O 	O 	0.30877 0.97512 0.25275 -0.70900
O 	O 	0.32080 0.97614 0.30800 -0.59500
O 	O 	0.30479 0.09094 0.24387 -0.50000
C 	C 	0.31680 0.11270 0.24070 0.37400
C 	C 	0.29780 0.13580 0.23840 -0.17200
O 	O 	0.34239 0.11508 0.23974 -0.34200
C 	C 	0.30830 0.16030 0.23260 0.06300
C 	C 	0.27230 0.13300 0.24370 0.07400
H 	H 	0.32700 0.16160 0.22960 0.00600
C 	C 	0.29190 0.18500 0.23090 -0.14200
C 	C 	0.25350 0.15640 0.24070 -0.14300
H 	H 	0.26560 0.11620 0.24950 0.00300
H 	H 	0.29960 0.20190 0.22710 0.07700
C 	C 	0.26370 0.18180 0.23510 0.06100
H 	H 	0.23470 0.15390 0.24270 0.06600
C 	C 	0.24690 0.20670 0.23220 0.01900
C 	C 	0.25030 0.22350 0.20990 -0.09300
H 	H 	0.26400 0.22000 0.19720 0.05700
Mo	Mo	0.85679 0.54167 0.81018 1.05500
O 	O 	0.85399 0.56165 0.77567 -0.73000
O 	O 	0.85928 0.50694 0.83438 -0.48700
O 	O 	0.81837 0.53218 0.80196 -0.59700
O 	O 	0.89558 0.53637 0.80641 -0.72800
Mo	Mo	0.80603 0.50266 0.78274 1.09200
Mo	Mo	0.85731 0.46915 0.81652 1.06900
Zn	Zn	0.82844 0.55894 0.74482 1.22300
O 	O 	0.80877 0.47512 0.75275 -0.70900
O 	O 	0.82080 0.47614 0.80800 -0.59500
O 	O 	0.80479 0.59094 0.74387 -0.50000
C 	C 	0.81680 0.61270 0.74070 0.37400
C 	C 	0.79780 0.63580 0.73840 -0.17200
O 	O 	0.84239 0.61508 0.73974 -0.34200
C 	C 	0.80830 0.66030 0.73260 0.06300
C 	C 	0.77230 0.63300 0.74370 0.07400
H 	H 	0.82700 0.66160 0.72960 0.00600
C 	C 	0.79190 0.68500 0.73090 -0.14200
C 	C 	0.75350 0.65640 0.74070 -0.14300
H 	H 	0.76560 0.61620 0.74950 0.00300
H 	H 	0.79960 0.70190 0.72710 0.07700
C 	C 	0.76370 0.68180 0.73510 0.06100
H 	H 	0.73470 0.65390 0.74270 0.06600
C 	C 	0.74690 0.70670 0.73220 0.01900
C 	C 	0.75030 0.72350 0.70990 -0.09300
H 	H 	0.76400 0.72000 0.69720 0.05700
Mo	Mo	0.64321 0.54167 0.18982 1.05500
O 	O 	0.64601 0.56165 0.22433 -0.73000
O 	O 	0.64072 0.50694 0.16562 -0.48700
O 	O 	0.68163 0.53218 0.19804 -0.59700
O 	O 	0.60442 0.53637 0.19359 -0.72800
Mo	Mo	0.69397 0.50266 0.21726 1.09200
Mo	Mo	0.64269 0.46915 0.18348 1.06900
Zn	Zn	0.67156 0.55894 0.25518 1.22300
O 	O 	0.69123 0.47512 0.24725 -0.70900
O 	O 	0.67920 0.47614 0.19200 -0.59500
O 	O 	0.69521 0.59094 0.25613 -0.50000
C 	C 	0.68320 0.61270 0.25930 0.37400
C 	C 	0.70220 0.63580 0.26160 -0.17200
O 	O 	0.65761 0.61508 0.26026 -0.34200
C 	C 	0.69170 0.66030 0.26740 0.06300
C 	C 	0.72770 0.63300 0.25630 0.07400
H 	H 	0.67300 0.66160 0.27040 0.00600
C 	C 	0.70810 0.68500 0.26910 -0.14200
C 	C 	0.74650 0.65640 0.25930 -0.14300
H 	H 	0.73440 0.61620 0.25050 0.00300
H 	H 	0.70040 0.70190 0.27290 0.07700
C 	C 	0.73630 0.68180 0.26490 0.06100
H 	H 	0.76530 0.65390 0.25730 0.06600
C 	C 	0.75310 0.70670 0.26780 0.01900
C 	C 	0.74970 0.72350 0.29010 -0.09300
H 	H 	0.73600 0.72000 0.30280 0.05700
Mo	Mo	0.14321 0.04167 0.68982 1.05500
O 	O 	0.14601 0.06165 0.72433 -0.73000
O 	O 	0.14072 0.00694 0.66562 -0.48700
O 	O 	0.18163 0.03218 0.69804 -0.59700
O 	O 	0.10442 0.03637 0.69359 -0.72800
Mo	Mo	0.19397 0.00266 0.71726 1.09200
Mo	Mo	0.14269 0.96915 0.68348 1.06900
Zn	Zn	0.17156 0.05894 0.75518 1.22300
O 	O 	0.19123 0.97512 0.74725 -0.70900
O 	O 	0.17920 0.97614 0.69200 -0.59500
O 	O 	0.19521 0.09094 0.75613 -0.50000
C 	C 	0.18320 0.11270 0.75930 0.37400
C 	C 	0.20220 0.13580 0.76160 -0.17200
O 	O 	0.15761 0.11508 0.76026 -0.34200
C 	C 	0.19170 0.16030 0.76740 0.06300
C 	C 	0.22770 0.13300 0.75630 0.07400
H 	H 	0.17300 0.16160 0.77040 0.00600
C 	C 	0.20810 0.18500 0.76910 -0.14200
C 	C 	0.24650 0.15640 0.75930 -0.14300
H 	H 	0.23440 0.11620 0.75050 0.00300
H 	H 	0.20040 0.20190 0.77290 0.07700
C 	C 	0.23630 0.18180 0.76490 0.06100
H 	H 	0.26530 0.15390 0.75730 0.06600
C 	C 	0.25310 0.20670 0.76780 0.01900
C 	C 	0.24970 0.22350 0.79010 -0.09300
H 	H 	0.23600 0.22000 0.80280 0.05700
Mo	Mo	0.14321 0.95833 0.81018 1.05500
O 	O 	0.14601 0.93835 0.77567 -0.73000
O 	O 	0.14072 0.99306 0.83438 -0.48700
O 	O 	0.18163 0.96782 0.80196 -0.59700
O 	O 	0.10442 0.96363 0.80641 -0.72800
Mo	Mo	0.19397 0.99734 0.78274 1.09200
Mo	Mo	0.14269 0.03085 0.81652 1.06900
Zn	Zn	0.17156 0.94106 0.74482 1.22300
O 	O 	0.19123 0.02488 0.75275 -0.70900
O 	O 	0.17920 0.02386 0.80800 -0.59500
O 	O 	0.19521 0.90906 0.74387 -0.50000
C 	C 	0.18320 0.88730 0.74070 0.37400
C 	C 	0.20220 0.86420 0.73840 -0.17200
O 	O 	0.15761 0.88492 0.73974 -0.34200
C 	C 	0.19170 0.83970 0.73260 0.06300
C 	C 	0.22770 0.86700 0.74370 0.07400
H 	H 	0.17300 0.83840 0.72960 0.00600
C 	C 	0.20810 0.81500 0.73090 -0.14200
C 	C 	0.24650 0.84360 0.74070 -0.14300
H 	H 	0.23440 0.88380 0.74950 0.00300
H 	H 	0.20040 0.79810 0.72710 0.07700
C 	C 	0.23630 0.81820 0.73510 0.06100
H 	H 	0.26530 0.84610 0.74270 0.06600
C 	C 	0.25310 0.79330 0.73220 0.01900
C 	C 	0.24970 0.77650 0.70990 -0.09300
H 	H 	0.23600 0.78000 0.69720 0.05700
Mo	Mo	0.64321 0.45833 0.31018 1.05500
O 	O 	0.64601 0.43835 0.27567 -0.73000
O 	O 	0.64072 0.49306 0.33438 -0.48700
O 	O 	0.68163 0.46782 0.30196 -0.59700
O 	O 	0.60442 0.46363 0.30641 -0.72800
Mo	Mo	0.69397 0.49734 0.28274 1.09200
Mo	Mo	0.64269 0.53085 0.31652 1.06900
Zn	Zn	0.67156 0.44106 0.24482 1.22300
O 	O 	0.69123 0.52488 0.25275 -0.70900
O 	O 	0.67920 0.52386 0.30800 -0.59500
O 	O 	0.69521 0.40906 0.24387 -0.50000
C 	C 	0.68320 0.38730 0.24070 0.37400
C 	C 	0.70220 0.36420 0.23840 -0.17200
O 	O 	0.65761 0.38492 0.23974 -0.34200
C 	C 	0.69170 0.33970 0.23260 0.06300
C 	C 	0.72770 0.36700 0.24370 0.07400
H 	H 	0.67300 0.33840 0.22960 0.00600
C 	C 	0.70810 0.31500 0.23090 -0.14200
C 	C 	0.74650 0.34360 0.24070 -0.14300
H 	H 	0.73440 0.38380 0.24950 0.00300
H 	H 	0.70040 0.29810 0.22710 0.07700
C 	C 	0.73630 0.31820 0.23510 0.06100
H 	H 	0.76530 0.34610 0.24270 0.06600
C 	C 	0.75310 0.29330 0.23220 0.01900
C 	C 	0.74970 0.27650 0.20990 -0.09300
H 	H 	0.73600 0.28000 0.19720 0.05700
Mo	Mo	0.85679 0.45833 0.68982 1.05500
O 	O 	0.85399 0.43835 0.72433 -0.73000
O 	O 	0.85928 0.49306 0.66562 -0.48700
O 	O 	0.81837 0.46782 0.69804 -0.59700
O 	O 	0.89558 0.46363 0.69359 -0.72800
Mo	Mo	0.80603 0.49734 0.71726 1.09200
Mo	Mo	0.85731 0.53085 0.68348 1.06900
Zn	Zn	0.82844 0.44106 0.75518 1.22300
O 	O 	0.80877 0.52488 0.74725 -0.70900
O 	O 	0.82080 0.52386 0.69200 -0.59500
O 	O 	0.80479 0.40906 0.75613 -0.50000
C 	C 	0.81680 0.38730 0.75930 0.37400
C 	C 	0.79780 0.36420 0.76160 -0.17200
O 	O 	0.84239 0.38492 0.76026 -0.34200
C 	C 	0.80830 0.33970 0.76740 0.06300
C 	C 	0.77230 0.36700 0.75630 0.07400
H 	H 	0.82700 0.33840 0.77040 0.00600
C 	C 	0.79190 0.31500 0.76910 -0.14200
C 	C 	0.75350 0.34360 0.75930 -0.14300
H 	H 	0.76560 0.38380 0.75050 0.00300
H 	H 	0.79960 0.29810 0.77290 0.07700
C 	C 	0.76370 0.31820 0.76490 0.06100
H 	H 	0.73470 0.34610 0.75730 0.06600
C 	C 	0.74690 0.29330 0.76780 0.01900
C 	C 	0.75030 0.27650 0.79010 -0.09300
H 	H 	0.76400 0.28000 0.80280 0.05700
Mo	Mo	0.35679 0.95833 0.18982 1.05500
O 	O 	0.35399 0.93835 0.22433 -0.73000
O 	O 	0.35928 0.99306 0.16562 -0.48700
O 	O 	0.31837 0.96782 0.19804 -0.59700
O 	O 	0.39558 0.96363 0.19359 -0.72800
Mo	Mo	0.30603 0.99734 0.21726 1.09200
Mo	Mo	0.35731 0.03085 0.18348 1.06900
Zn	Zn	0.32844 0.94106 0.25518 1.22300
O 	O 	0.30877 0.02488 0.24725 -0.70900
O 	O 	0.32080 0.02386 0.19200 -0.59500
O 	O 	0.30479 0.90906 0.25613 -0.50000
C 	C 	0.31680 0.88730 0.25930 0.37400
C 	C 	0.29780 0.86420 0.26160 -0.17200
O 	O 	0.34239 0.88492 0.26026 -0.34200
C 	C 	0.30830 0.83970 0.26740 0.06300
C 	C 	0.27230 0.86700 0.25630 0.07400
H 	H 	0.32700 0.83840 0.27040 0.00600
C 	C 	0.29190 0.81500 0.26910 -0.14200
C 	C 	0.25350 0.84360 0.25930 -0.14300
H 	H 	0.26560 0.88380 0.25050 0.00300
H 	H 	0.29960 0.79810 0.27290 0.07700
C 	C 	0.26370 0.81820 0.26490 0.06100
H 	H 	0.23470 0.84610 0.25730 0.06600
C 	C 	0.24690 0.79330 0.26780 0.01900
C 	C 	0.25030 0.77650 0.29010 -0.09300
H 	H 	0.26400 0.78000 0.30280 0.05700
Mo	Mo	0.54167 0.18982 0.64321 1.05500
O 	O 	0.56165 0.22433 0.64601 -0.73000
O 	O 	0.50694 0.16562 0.64072 -0.48700
O 	O 	0.53218 0.19804 0.68163 -0.59700
O 	O 	0.53637 0.19359 0.60442 -0.72800
Mo	Mo	0.50266 0.21726 0.69397 1.09200
Mo	Mo	0.46915 0.18348 0.64269 1.06900
Zn	Zn	0.55894 0.25518 0.67156 1.22300
O 	O 	0.47512 0.24725 0.69123 -0.70900
O 	O 	0.47614 0.19200 0.67920 -0.59500
O 	O 	0.59094 0.25613 0.69521 -0.50000
C 	C 	0.61270 0.25930 0.68320 0.37400
C 	C 	0.63580 0.26160 0.70220 -0.17200
O 	O 	0.61508 0.26026 0.65761 -0.34200
C 	C 	0.66030 0.26740 0.69170 0.06300
C 	C 	0.63300 0.25630 0.72770 0.07400
H 	H 	0.66160 0.27040 0.67300 0.00600
C 	C 	0.68500 0.26910 0.70810 -0.14200
C 	C 	0.65640 0.25930 0.74650 -0.14300
H 	H 	0.61620 0.25050 0.73440 0.00300
H 	H 	0.70190 0.27290 0.70040 0.07700
C 	C 	0.68180 0.26490 0.73630 0.06100
H 	H 	0.65390 0.25730 0.76530 0.06600
C 	C 	0.70670 0.26780 0.75310 0.01900
C 	C 	0.72350 0.29010 0.74970 -0.09300
H 	H 	0.72000 0.30280 0.73600 0.05700
Mo	Mo	0.04167 0.68982 0.14321 1.05500
O 	O 	0.06165 0.72433 0.14601 -0.73000
O 	O 	0.00694 0.66562 0.14072 -0.48700
O 	O 	0.03218 0.69804 0.18163 -0.59700
O 	O 	0.03637 0.69359 0.10442 -0.72800
Mo	Mo	0.00266 0.71726 0.19397 1.09200
Mo	Mo	0.96915 0.68348 0.14269 1.06900
Zn	Zn	0.05894 0.75518 0.17156 1.22300
O 	O 	0.97512 0.74725 0.19123 -0.70900
O 	O 	0.97614 0.69200 0.17920 -0.59500
O 	O 	0.09094 0.75613 0.19521 -0.50000
C 	C 	0.11270 0.75930 0.18320 0.37400
C 	C 	0.13580 0.76160 0.20220 -0.17200
O 	O 	0.11508 0.76026 0.15761 -0.34200
C 	C 	0.16030 0.76740 0.19170 0.06300
C 	C 	0.13300 0.75630 0.22770 0.07400
H 	H 	0.16160 0.77040 0.17300 0.00600
C 	C 	0.18500 0.76910 0.20810 -0.14200
C 	C 	0.15640 0.75930 0.24650 -0.14300
H 	H 	0.11620 0.75050 0.23440 0.00300
H 	H 	0.20190 0.77290 0.20040 0.07700
C 	C 	0.18180 0.76490 0.23630 0.06100
H 	H 	0.15390 0.75730 0.26530 0.06600
C 	C 	0.20670 0.76780 0.25310 0.01900
C 	C 	0.22350 0.79010 0.24970 -0.09300
H 	H 	0.22000 0.80280 0.23600 0.05700
Mo	Mo	0.04167 0.31018 0.35679 1.05500
O 	O 	0.06165 0.27567 0.35399 -0.73000
O 	O 	0.00694 0.33438 0.35928 -0.48700
O 	O 	0.03218 0.30196 0.31837 -0.59700
O 	O 	0.03637 0.30641 0.39558 -0.72800
Mo	Mo	0.00266 0.28274 0.30603 1.09200
Mo	Mo	0.96915 0.31652 0.35731 1.06900
Zn	Zn	0.05894 0.24482 0.32844 1.22300
O 	O 	0.97512 0.25275 0.30877 -0.70900
O 	O 	0.97614 0.30800 0.32080 -0.59500
O 	O 	0.09094 0.24387 0.30479 -0.50000
C 	C 	0.11270 0.24070 0.31680 0.37400
C 	C 	0.13580 0.23840 0.29780 -0.17200
O 	O 	0.11508 0.23974 0.34239 -0.34200
C 	C 	0.16030 0.23260 0.30830 0.06300
C 	C 	0.13300 0.24370 0.27230 0.07400
H 	H 	0.16160 0.22960 0.32700 0.00600
C 	C 	0.18500 0.23090 0.29190 -0.14200
C 	C 	0.15640 0.24070 0.25350 -0.14300
H 	H 	0.11620 0.24950 0.26560 0.00300
H 	H 	0.20190 0.22710 0.29960 0.07700
C 	C 	0.18180 0.23510 0.26370 0.06100
H 	H 	0.15390 0.24270 0.23470 0.06600
C 	C 	0.20670 0.23220 0.24690 0.01900
C 	C 	0.22350 0.20990 0.25030 -0.09300
H 	H 	0.22000 0.19720 0.26400 0.05700
Mo	Mo	0.54167 0.81018 0.85679 1.05500
O 	O 	0.56165 0.77567 0.85399 -0.73000
O 	O 	0.50694 0.83438 0.85928 -0.48700
O 	O 	0.53218 0.80196 0.81837 -0.59700
O 	O 	0.53637 0.80641 0.89558 -0.72800
Mo	Mo	0.50266 0.78274 0.80603 1.09200
Mo	Mo	0.46915 0.81652 0.85731 1.06900
Zn	Zn	0.55894 0.74482 0.82844 1.22300
O 	O 	0.47512 0.75275 0.80877 -0.70900
O 	O 	0.47614 0.80800 0.82080 -0.59500
O 	O 	0.59094 0.74387 0.80479 -0.50000
C 	C 	0.61270 0.74070 0.81680 0.37400
C 	C 	0.63580 0.73840 0.79780 -0.17200
O 	O 	0.61508 0.73974 0.84239 -0.34200
C 	C 	0.66030 0.73260 0.80830 0.06300
C 	C 	0.63300 0.74370 0.77230 0.07400
H 	H 	0.66160 0.72960 0.82700 0.00600
C 	C 	0.68500 0.73090 0.79190 -0.14200
C 	C 	0.65640 0.74070 0.75350 -0.14300
H 	H 	0.61620 0.74950 0.76560 0.00300
H 	H 	0.70190 0.72710 0.79960 0.07700
C 	C 	0.68180 0.73510 0.76370 0.06100
H 	H 	0.65390 0.74270 0.73470 0.06600
C 	C 	0.70670 0.73220 0.74690 0.01900
C 	C 	0.72350 0.70990 0.75030 -0.09300
H 	H 	0.72000 0.69720 0.76400 0.05700
Mo	Mo	0.45833 0.68982 0.85679 1.05500
O 	O 	0.43835 0.72433 0.85399 -0.73000
O 	O 	0.49306 0.66562 0.85928 -0.48700
O 	O 	0.46782 0.69804 0.81837 -0.59700
O 	O 	0.46363 0.69359 0.89558 -0.72800
Mo	Mo	0.49734 0.71726 0.80603 1.09200
Mo	Mo	0.53085 0.68348 0.85731 1.06900
Zn	Zn	0.44106 0.75518 0.82844 1.22300
O 	O 	0.52488 0.74725 0.80877 -0.70900
O 	O 	0.52386 0.69200 0.82080 -0.59500
O 	O 	0.40906 0.75613 0.80479 -0.50000
C 	C 	0.38730 0.75930 0.81680 0.37400
C 	C 	0.36420 0.76160 0.79780 -0.17200
O 	O 	0.38492 0.76026 0.84239 -0.34200
C 	C 	0.33970 0.76740 0.80830 0.06300
C 	C 	0.36700 0.75630 0.77230 0.07400
H 	H 	0.33840 0.77040 0.82700 0.00600
C 	C 	0.31500 0.76910 0.79190 -0.14200
C 	C 	0.34360 0.75930 0.75350 -0.14300
H 	H 	0.38380 0.75050 0.76560 0.00300
H 	H 	0.29810 0.77290 0.79960 0.07700
C 	C 	0.31820 0.76490 0.76370 0.06100
H 	H 	0.34610 0.75730 0.73470 0.06600
C 	C 	0.29330 0.76780 0.74690 0.01900
C 	C 	0.27650 0.79010 0.75030 -0.09300
H 	H 	0.28000 0.80280 0.76400 0.05700
Mo	Mo	0.95833 0.18982 0.35679 1.05500
O 	O 	0.93835 0.22433 0.35399 -0.73000
O 	O 	0.99306 0.16562 0.35928 -0.48700
O 	O 	0.96782 0.19804 0.31837 -0.59700
O 	O 	0.96363 0.19359 0.39558 -0.72800
Mo	Mo	0.99734 0.21726 0.30603 1.09200
Mo	Mo	0.03085 0.18348 0.35731 1.06900
Zn	Zn	0.94106 0.25518 0.32844 1.22300
O 	O 	0.02488 0.24725 0.30877 -0.70900
O 	O 	0.02386 0.19200 0.32080 -0.59500
O 	O 	0.90906 0.25613 0.30479 -0.50000
C 	C 	0.88730 0.25930 0.31680 0.37400
C 	C 	0.86420 0.26160 0.29780 -0.17200
O 	O 	0.88492 0.26026 0.34239 -0.34200
C 	C 	0.83970 0.26740 0.30830 0.06300
C 	C 	0.86700 0.25630 0.27230 0.07400
H 	H 	0.83840 0.27040 0.32700 0.00600
C 	C 	0.81500 0.26910 0.29190 -0.14200
C 	C 	0.84360 0.25930 0.25350 -0.14300
H 	H 	0.88380 0.25050 0.26560 0.00300
H 	H 	0.79810 0.27290 0.29960 0.07700
C 	C 	0.81820 0.26490 0.26370 0.06100
H 	H 	0.84610 0.25730 0.23470 0.06600
C 	C 	0.79330 0.26780 0.24690 0.01900
C 	C 	0.77650 0.29010 0.25030 -0.09300
H 	H 	0.78000 0.30280 0.26400 0.05700
Mo	Mo	0.95833 0.81018 0.14321 1.05500
O 	O 	0.93835 0.77567 0.14601 -0.73000
O 	O 	0.99306 0.83438 0.14072 -0.48700
O 	O 	0.96782 0.80196 0.18163 -0.59700
O 	O 	0.96363 0.80641 0.10442 -0.72800
Mo	Mo	0.99734 0.78274 0.19397 1.09200
Mo	Mo	0.03085 0.81652 0.14269 1.06900
Zn	Zn	0.94106 0.74482 0.17156 1.22300
O 	O 	0.02488 0.75275 0.19123 -0.70900
O 	O 	0.02386 0.80800 0.17920 -0.59500
O 	O 	0.90906 0.74387 0.19521 -0.50000
C 	C 	0.88730 0.74070 0.18320 0.37400
C 	C 	0.86420 0.73840 0.20220 -0.17200
O 	O 	0.88492 0.73974 0.15761 -0.34200
C 	C 	0.83970 0.73260 0.19170 0.06300
C 	C 	0.86700 0.74370 0.22770 0.07400
H 	H 	0.83840 0.72960 0.17300 0.00600
C 	C 	0.81500 0.73090 0.20810 -0.14200
C 	C 	0.84360 0.74070 0.24650 -0.14300
H 	H 	0.88380 0.74950 0.23440 0.00300
H 	H 	0.79810 0.72710 0.20040 0.07700
C 	C 	0.81820 0.73510 0.23630 0.06100
H 	H 	0.84610 0.74270 0.26530 0.06600
C 	C 	0.79330 0.73220 0.25310 0.01900
C 	C 	0.77650 0.70990 0.24970 -0.09300
H 	H 	0.78000 0.69720 0.23600 0.05700
Mo	Mo	0.45833 0.31018 0.64321 1.05500
O 	O 	0.43835 0.27567 0.64601 -0.73000
O 	O 	0.49306 0.33438 0.64072 -0.48700
O 	O 	0.46782 0.30196 0.68163 -0.59700
O 	O 	0.46363 0.30641 0.60442 -0.72800
Mo	Mo	0.49734 0.28274 0.69397 1.09200
Mo	Mo	0.53085 0.31652 0.64269 1.06900
Zn	Zn	0.44106 0.24482 0.67156 1.22300
O 	O 	0.52488 0.25275 0.69123 -0.70900
O 	O 	0.52386 0.30800 0.67920 -0.59500
O 	O 	0.40906 0.24387 0.69521 -0.50000
C 	C 	0.38730 0.24070 0.68320 0.37400
C 	C 	0.36420 0.23840 0.70220 -0.17200
O 	O 	0.38492 0.23974 0.65761 -0.34200
C 	C 	0.33970 0.23260 0.69170 0.06300
C 	C 	0.36700 0.24370 0.72770 0.07400
H 	H 	0.33840 0.22960 0.67300 0.00600
C 	C 	0.31500 0.23090 0.70810 -0.14200
C 	C 	0.34360 0.24070 0.74650 -0.14300
H 	H 	0.38380 0.24950 0.73440 0.00300
H 	H 	0.29810 0.22710 0.70040 0.07700
C 	C 	0.31820 0.23510 0.73630 0.06100
H 	H 	0.34610 0.24270 0.76530 0.06600
C 	C 	0.29330 0.23220 0.75310 0.01900
C 	C 	0.27650 0.20990 0.74970 -0.09300
H 	H 	0.28000 0.19720 0.73600 0.05700
Mo	Mo	0.39321 0.06018 0.20833 1.05500
O 	O 	0.39601 0.02567 0.18835 -0.73000
O 	O 	0.39072 0.08438 0.24306 -0.48700
O 	O 	0.43163 0.05196 0.21782 -0.59700
O 	O 	0.35442 0.05641 0.21363 -0.72800
Mo	Mo	0.44397 0.03274 0.24734 1.09200
Mo	Mo	0.39269 0.06652 0.28085 1.06900
Zn	Zn	0.42156 0.99482 0.19106 1.22300
O 	O 	0.44123 0.00275 0.27488 -0.70900
O 	O 	0.42920 0.05800 0.27386 -0.59500
O 	O 	0.44521 0.99387 0.15906 -0.50000
C 	C 	0.43320 0.99070 0.13730 0.37400
C 	C 	0.45220 0.98840 0.11420 -0.17200
O 	O 	0.40761 0.98974 0.13492 -0.34200
C 	C 	0.44170 0.98260 0.08970 0.06300
C 	C 	0.47770 0.99370 0.11700 0.07400
H 	H 	0.42300 0.97960 0.08840 0.00600
C 	C 	0.45810 0.98090 0.06500 -0.14200
C 	C 	0.49650 0.99070 0.09360 -0.14300
H 	H 	0.48440 0.99950 0.13380 0.00300
H 	H 	0.45040 0.97710 0.04810 0.07700
C 	C 	0.48630 0.98510 0.06820 0.06100
H 	H 	0.51530 0.99270 0.09610 0.06600
C 	C 	0.50310 0.98220 0.04330 0.01900
C 	C 	0.49970 0.95990 0.02650 -0.09300
H 	H 	0.48600 0.94720 0.03000 0.05700
Mo	Mo	0.89321 0.56018 0.70833 1.05500
O 	O 	0.89601 0.52567 0.68835 -0.73000
O 	O 	0.89072 0.58438 0.74306 -0.48700
O 	O 	0.93163 0.55196 0.71782 -0.59700
O 	O 	0.85442 0.55641 0.71363 -0.72800
Mo	Mo	0.94397 0.53274 0.74734 1.09200
Mo	Mo	0.89269 0.56652 0.78085 1.06900
Zn	Zn	0.92156 0.49482 0.69106 1.22300
O 	O 	0.94123 0.50275 0.77488 -0.70900
O 	O 	0.92920 0.55800 0.77386 -0.59500
O 	O 	0.94521 0.49387 0.65906 -0.50000
C 	C 	0.93320 0.49070 0.63730 0.37400
C 	C 	0.95220 0.48840 0.61420 -0.17200
O 	O 	0.90761 0.48974 0.63492 -0.34200
C 	C 	0.94170 0.48260 0.58970 0.06300
C 	C 	0.97770 0.49370 0.61700 0.07400
H 	H 	0.92300 0.47960 0.58840 0.00600
C 	C 	0.95810 0.48090 0.56500 -0.14200
C 	C 	0.99650 0.49070 0.59360 -0.14300
H 	H 	0.98440 0.49950 0.63380 0.00300
H 	H 	0.95040 0.47710 0.54810 0.07700
C 	C 	0.98630 0.48510 0.56820 0.06100
H 	H 	0.01530 0.49270 0.59610 0.06600
C 	C 	0.00310 0.48220 0.54330 0.01900
C 	C 	0.99970 0.45990 0.52650 -0.09300
H 	H 	0.98600 0.44720 0.53000 0.05700
Mo	Mo	0.10679 0.93982 0.70833 1.05500
O 	O 	0.10399 0.97433 0.68835 -0.73000
O 	O 	0.10928 0.91562 0.74306 -0.48700
O 	O 	0.06837 0.94804 0.71782 -0.59700
O 	O 	0.14558 0.94359 0.71363 -0.72800
Mo	Mo	0.05603 0.96726 0.74734 1.09200
Mo	Mo	0.10731 0.93348 0.78085 1.06900
Zn	Zn	0.07844 0.00518 0.69106 1.22300
O 	O 	0.05877 0.99725 0.77488 -0.70900
O 	O 	0.07080 0.94200 0.77386 -0.59500
O 	O 	0.05479 0.00613 0.65906 -0.50000
C 	C 	0.06680 0.00930 0.63730 0.37400
C 	C 	0.04780 0.01160 0.61420 -0.17200
O 	O 	0.09239 0.01026 0.63492 -0.34200
C 	C 	0.05830 0.01740 0.58970 0.06300
C 	C 	0.02230 0.00630 0.61700 0.07400
H 	H 	0.07700 0.02040 0.58840 0.00600
C 	C 	0.04190 0.01910 0.56500 -0.14200
C 	C 	0.00350 0.00930 0.59360 -0.14300
H 	H 	0.01560 0.00050 0.63380 0.00300
H 	H 	0.04960 0.02290 0.54810 0.07700
C 	C 	0.01370 0.01490 0.56820 0.06100
H 	H 	0.98470 0.00730 0.59610 0.06600
C 	C 	0.99690 0.01780 0.54330 0.01900
C 	C 	0.00030 0.04010 0.52650 -0.09300
H 	H 	0.01400 0.05280 0.53000 0.05700
Mo	Mo	0.60679 0.43982 0.20833 1.05500
O 	O 	0.60399 0.47433 0.18835 -0.73000
O 	O 	0.60928 0.41562 0.24306 -0.48700
O 	O 	0.56837 0.44804 0.21782 -0.59700
O 	O 	0.64558 0.44359 0.21363 -0.72800
Mo	Mo	0.55603 0.46726 0.24734 1.09200
Mo	Mo	0.60731 0.43348 0.28085 1.06900
Zn	Zn	0.57844 0.50518 0.19106 1.22300
O 	O 	0.55877 0.49725 0.27488 -0.70900
O 	O 	0.57080 0.44200 0.27386 -0.59500
O 	O 	0.55479 0.50613 0.15906 -0.50000
C 	C 	0.56680 0.50930 0.13730 0.37400
C 	C 	0.54780 0.51160 0.11420 -0.17200
O 	O 	0.59239 0.51026 0.13492 -0.34200
C 	C 	0.55830 0.51740 0.08970 0.06300
C 	C 	0.52230 0.50630 0.11700 0.07400
H 	H 	0.57700 0.52040 0.08840 0.00600
C 	C 	0.54190 0.51910 0.06500 -0.14200
C 	C 	0.50350 0.50930 0.09360 -0.14300
H 	H 	0.51560 0.50050 0.13380 0.00300
H 	H 	0.54960 0.52290 0.04810 0.07700
C 	C 	0.51370 0.51490 0.06820 0.06100
H 	H 	0.48470 0.50730 0.09610 0.06600
C 	C 	0.49690 0.51780 0.04330 0.01900
C 	C 	0.50030 0.54010 0.02650 -0.09300
H 	H 	0.51400 0.55280 0.03000 0.05700
Mo	Mo	0.60679 0.56018 0.29167 1.05500
O 	O 	0.60399 0.52567 0.31165 -0.73000
O 	O 	0.60928 0.58438 0.25694 -0.48700
O 	O 	0.56837 0.55196 0.28218 -0.59700
O 	O 	0.64558 0.55641 0.28637 -0.72800
Mo	Mo	0.55603 0.53274 0.25266 1.09200
Mo	Mo	0.60731 0.56652 0.21915 1.06900
Zn	Zn	0.57844 0.49482 0.30894 1.22300
O 	O 	0.55877 0.50275 0.22512 -0.70900
O 	O 	0.57080 0.55800 0.22614 -0.59500
O 	O 	0.55479 0.49387 0.34094 -0.50000
C 	C 	0.56680 0.49070 0.36270 0.37400
C 	C 	0.54780 0.48840 0.38580 -0.17200
O 	O 	0.59239 0.48974 0.36508 -0.34200
C 	C 	0.55830 0.48260 0.41030 0.06300
C 	C 	0.52230 0.49370 0.38300 0.07400
H 	H 	0.57700 0.47960 0.41160 0.00600
C 	C 	0.54190 0.48090 0.43500 -0.14200
C 	C 	0.50350 0.49070 0.40640 -0.14300
H 	H 	0.51560 0.49950 0.36620 0.00300
H 	H 	0.54960 0.47710 0.45190 0.07700
C 	C 	0.51370 0.48510 0.43180 0.06100
H 	H 	0.48470 0.49270 0.40390 0.06600
C 	C 	0.49690 0.48220 0.45670 0.01900
C 	C 	0.50030 0.45990 0.47350 -0.09300
H 	H 	0.51400 0.44720 0.47000 0.05700
Mo	Mo	0.10679 0.06018 0.79167 1.05500
O 	O 	0.10399 0.02567 0.81165 -0.73000
O 	O 	0.10928 0.08438 0.75694 -0.48700
O 	O 	0.06837 0.05196 0.78218 -0.59700
O 	O 	0.14558 0.05641 0.78637 -0.72800
Mo	Mo	0.05603 0.03274 0.75266 1.09200
Mo	Mo	0.10731 0.06652 0.71915 1.06900
Zn	Zn	0.07844 0.99482 0.80894 1.22300
O 	O 	0.05877 0.00275 0.72512 -0.70900
O 	O 	0.07080 0.05800 0.72614 -0.59500
O 	O 	0.05479 0.99387 0.84094 -0.50000
C 	C 	0.06680 0.99070 0.86270 0.37400
C 	C 	0.04780 0.98840 0.88580 -0.17200
O 	O 	0.09239 0.98974 0.86508 -0.34200
C 	C 	0.05830 0.98260 0.91030 0.06300
C 	C 	0.02230 0.99370 0.88300 0.07400
H 	H 	0.07700 0.97960 0.91160 0.00600
C 	C 	0.04190 0.98090 0.93500 -0.14200
C 	C 	0.00350 0.99070 0.90640 -0.14300
H 	H 	0.01560 0.99950 0.86620 0.00300
H 	H 	0.04960 0.97710 0.95190 0.07700
C 	C 	0.01370 0.98510 0.93180 0.06100
H 	H 	0.98470 0.99270 0.90390 0.06600
C 	C 	0.99690 0.98220 0.95670 0.01900
C 	C 	0.00030 0.95990 0.97350 -0.09300
H 	H 	0.01400 0.94720 0.97000 0.05700
Mo	Mo	0.89321 0.43982 0.79167 1.05500
O 	O 	0.89601 0.47433 0.81165 -0.73000
O 	O 	0.89072 0.41562 0.75694 -0.48700
O 	O 	0.93163 0.44804 0.78218 -0.59700
O 	O 	0.85442 0.44359 0.78637 -0.72800
Mo	Mo	0.94397 0.46726 0.75266 1.09200
Mo	Mo	0.89269 0.43348 0.71915 1.06900
Zn	Zn	0.92156 0.50518 0.80894 1.22300
O 	O 	0.94123 0.49725 0.72512 -0.70900
O 	O 	0.92920 0.44200 0.72614 -0.59500
O 	O 	0.94521 0.50613 0.84094 -0.50000
C 	C 	0.93320 0.50930 0.86270 0.37400
C 	C 	0.95220 0.51160 0.88580 -0.17200
O 	O 	0.90761 0.51026 0.86508 -0.34200
C 	C 	0.94170 0.51740 0.91030 0.06300
C 	C 	0.97770 0.50630 0.88300 0.07400
H 	H 	0.92300 0.52040 0.91160 0.00600
C 	C 	0.95810 0.51910 0.93500 -0.14200
C 	C 	0.99650 0.50930 0.90640 -0.14300
H 	H 	0.98440 0.50050 0.86620 0.00300
H 	H 	0.95040 0.52290 0.95190 0.07700
C 	C 	0.98630 0.51490 0.93180 0.06100
H 	H 	0.01530 0.50730 0.90390 0.06600
C 	C 	0.00310 0.51780 0.95670 0.01900
C 	C 	0.99970 0.54010 0.97350 -0.09300
H 	H 	0.98600 0.55280 0.97000 0.05700
Mo	Mo	0.39321 0.93982 0.29167 1.05500
O 	O 	0.39601 0.97433 0.31165 -0.73000
O 	O 	0.39072 0.91562 0.25694 -0.48700
O 	O 	0.43163 0.94804 0.28218 -0.59700
O 	O 	0.35442 0.94359 0.28637 -0.72800
Mo	Mo	0.44397 0.96726 0.25266 1.09200
Mo	Mo	0.39269 0.93348 0.21915 1.06900
Zn	Zn	0.42156 0.00518 0.30894 1.22300
O 	O 	0.44123 0.99725 0.22512 -0.70900
O 	O 	0.42920 0.94200 0.22614 -0.59500
O 	O 	0.44521 0.00613 0.34094 -0.50000
C 	C 	0.43320 0.00930 0.36270 0.37400
C 	C 	0.45220 0.01160 0.38580 -0.17200
O 	O 	0.40761 0.01026 0.36508 -0.34200
C 	C 	0.44170 0.01740 0.41030 0.06300
C 	C 	0.47770 0.00630 0.38300 0.07400
H 	H 	0.42300 0.02040 0.41160 0.00600
C 	C 	0.45810 0.01910 0.43500 -0.14200
C 	C 	0.49650 0.00930 0.40640 -0.14300
H 	H 	0.48440 0.00050 0.36620 0.00300
H 	H 	0.45040 0.02290 0.45190 0.07700
C 	C 	0.48630 0.01490 0.43180 0.06100
H 	H 	0.51530 0.00730 0.40390 0.06600
C 	C 	0.50310 0.01780 0.45670 0.01900
C 	C 	0.49970 0.04010 0.47350 -0.09300
H 	H 	0.48600 0.05280 0.47000 0.05700
Mo	Mo	0.20833 0.39321 0.06018 1.05500
O 	O 	0.18835 0.39601 0.02567 -0.73000
O 	O 	0.24306 0.39072 0.08438 -0.48700
O 	O 	0.21782 0.43163 0.05196 -0.59700
O 	O 	0.21363 0.35442 0.05641 -0.72800
Mo	Mo	0.24734 0.44397 0.03274 1.09200
Mo	Mo	0.28085 0.39269 0.06652 1.06900
Zn	Zn	0.19106 0.42156 0.99482 1.22300
O 	O 	0.27488 0.44123 0.00275 -0.70900
O 	O 	0.27386 0.42920 0.05800 -0.59500
O 	O 	0.15906 0.44521 0.99387 -0.50000
C 	C 	0.13730 0.43320 0.99070 0.37400
C 	C 	0.11420 0.45220 0.98840 -0.17200
O 	O 	0.13492 0.40761 0.98974 -0.34200
C 	C 	0.08970 0.44170 0.98260 0.06300
C 	C 	0.11700 0.47770 0.99370 0.07400
H 	H 	0.08840 0.42300 0.97960 0.00600
C 	C 	0.06500 0.45810 0.98090 -0.14200
C 	C 	0.09360 0.49650 0.99070 -0.14300
H 	H 	0.13380 0.48440 0.99950 0.00300
H 	H 	0.04810 0.45040 0.97710 0.07700
C 	C 	0.06820 0.48630 0.98510 0.06100
H 	H 	0.09610 0.51530 0.99270 0.06600
C 	C 	0.04330 0.50310 0.98220 0.01900
C 	C 	0.02650 0.49970 0.95990 -0.09300
H 	H 	0.03000 0.48600 0.94720 0.05700
Mo	Mo	0.70833 0.89321 0.56018 1.05500
O 	O 	0.68835 0.89601 0.52567 -0.73000
O 	O 	0.74306 0.89072 0.58438 -0.48700
O 	O 	0.71782 0.93163 0.55196 -0.59700
O 	O 	0.71363 0.85442 0.55641 -0.72800
Mo	Mo	0.74734 0.94397 0.53274 1.09200
Mo	Mo	0.78085 0.89269 0.56652 1.06900
Zn	Zn	0.69106 0.92156 0.49482 1.22300
O 	O 	0.77488 0.94123 0.50275 -0.70900
O 	O 	0.77386 0.92920 0.55800 -0.59500
O 	O 	0.65906 0.94521 0.49387 -0.50000
C 	C 	0.63730 0.93320 0.49070 0.37400
C 	C 	0.61420 0.95220 0.48840 -0.17200
O 	O 	0.63492 0.90761 0.48974 -0.34200
C 	C 	0.58970 0.94170 0.48260 0.06300
C 	C 	0.61700 0.97770 0.49370 0.07400
H 	H 	0.58840 0.92300 0.47960 0.00600
C 	C 	0.56500 0.95810 0.48090 -0.14200
C 	C 	0.59360 0.99650 0.49070 -0.14300
H 	H 	0.63380 0.98440 0.49950 0.00300
H 	H 	0.54810 0.95040 0.47710 0.07700
C 	C 	0.56820 0.98630 0.48510 0.06100
H 	H 	0.59610 0.01530 0.49270 0.06600
C 	C 	0.54330 0.00310 0.48220 0.01900
C 	C 	0.52650 0.99970 0.45990 -0.09300
H 	H 	0.53000 0.98600 0.44720 0.05700
Mo	Mo	0.70833 0.10679 0.93982 1.05500
O 	O 	0.68835 0.10399 0.97433 -0.73000
O 	O 	0.74306 0.10928 0.91562 -0.48700
O 	O 	0.71782 0.06837 0.94804 -0.59700
O 	O 	0.71363 0.14558 0.94359 -0.72800
Mo	Mo	0.74734 0.05603 0.96726 1.09200
Mo	Mo	0.78085 0.10731 0.93348 1.06900
Zn	Zn	0.69106 0.07844 0.00518 1.22300
O 	O 	0.77488 0.05877 0.99725 -0.70900
O 	O 	0.77386 0.07080 0.94200 -0.59500
O 	O 	0.65906 0.05479 0.00613 -0.50000
C 	C 	0.63730 0.06680 0.00930 0.37400
C 	C 	0.61420 0.04780 0.01160 -0.17200
O 	O 	0.63492 0.09239 0.01026 -0.34200
C 	C 	0.58970 0.05830 0.01740 0.06300
C 	C 	0.61700 0.02230 0.00630 0.07400
H 	H 	0.58840 0.07700 0.02040 0.00600
C 	C 	0.56500 0.04190 0.01910 -0.14200
C 	C 	0.59360 0.00350 0.00930 -0.14300
H 	H 	0.63380 0.01560 0.00050 0.00300
H 	H 	0.54810 0.04960 0.02290 0.07700
C 	C 	0.56820 0.01370 0.01490 0.06100
H 	H 	0.59610 0.98470 0.00730 0.06600
C 	C 	0.54330 0.99690 0.01780 0.01900
C 	C 	0.52650 0.00030 0.04010 -0.09300
H 	H 	0.53000 0.01400 0.05280 0.05700
Mo	Mo	0.20833 0.60679 0.43982 1.05500
O 	O 	0.18835 0.60399 0.47433 -0.73000
O 	O 	0.24306 0.60928 0.41562 -0.48700
O 	O 	0.21782 0.56837 0.44804 -0.59700
O 	O 	0.21363 0.64558 0.44359 -0.72800
Mo	Mo	0.24734 0.55603 0.46726 1.09200
Mo	Mo	0.28085 0.60731 0.43348 1.06900
Zn	Zn	0.19106 0.57844 0.50518 1.22300
O 	O 	0.27488 0.55877 0.49725 -0.70900
O 	O 	0.27386 0.57080 0.44200 -0.59500
O 	O 	0.15906 0.55479 0.50613 -0.50000
C 	C 	0.13730 0.56680 0.50930 0.37400
C 	C 	0.11420 0.54780 0.51160 -0.17200
O 	O 	0.13492 0.59239 0.51026 -0.34200
C 	C 	0.08970 0.55830 0.51740 0.06300
C 	C 	0.11700 0.52230 0.50630 0.07400
H 	H 	0.08840 0.57700 0.52040 0.00600
C 	C 	0.06500 0.54190 0.51910 -0.14200
C 	C 	0.09360 0.50350 0.50930 -0.14300
H 	H 	0.13380 0.51560 0.50050 0.00300
H 	H 	0.04810 0.54960 0.52290 0.07700
C 	C 	0.06820 0.51370 0.51490 0.06100
H 	H 	0.09610 0.48470 0.50730 0.06600
C 	C 	0.04330 0.49690 0.51780 0.01900
C 	C 	0.02650 0.50030 0.54010 -0.09300
H 	H 	0.03000 0.51400 0.55280 0.05700
Mo	Mo	0.29167 0.60679 0.56018 1.05500
O 	O 	0.31165 0.60399 0.52567 -0.73000
O 	O 	0.25694 0.60928 0.58438 -0.48700
O 	O 	0.28218 0.56837 0.55196 -0.59700
O 	O 	0.28637 0.64558 0.55641 -0.72800
Mo	Mo	0.25266 0.55603 0.53274 1.09200
Mo	Mo	0.21915 0.60731 0.56652 1.06900
Zn	Zn	0.30894 0.57844 0.49482 1.22300
O 	O 	0.22512 0.55877 0.50275 -0.70900
O 	O 	0.22614 0.57080 0.55800 -0.59500
O 	O 	0.34094 0.55479 0.49387 -0.50000
C 	C 	0.36270 0.56680 0.49070 0.37400
C 	C 	0.38580 0.54780 0.48840 -0.17200
O 	O 	0.36508 0.59239 0.48974 -0.34200
C 	C 	0.41030 0.55830 0.48260 0.06300
C 	C 	0.38300 0.52230 0.49370 0.07400
H 	H 	0.41160 0.57700 0.47960 0.00600
C 	C 	0.43500 0.54190 0.48090 -0.14200
C 	C 	0.40640 0.50350 0.49070 -0.14300
H 	H 	0.36620 0.51560 0.49950 0.00300
H 	H 	0.45190 0.54960 0.47710 0.07700
C 	C 	0.43180 0.51370 0.48510 0.06100
H 	H 	0.40390 0.48470 0.49270 0.06600
C 	C 	0.45670 0.49690 0.48220 0.01900
C 	C 	0.47350 0.50030 0.45990 -0.09300
H 	H 	0.47000 0.51400 0.44720 0.05700
Mo	Mo	0.79167 0.10679 0.06018 1.05500
O 	O 	0.81165 0.10399 0.02567 -0.73000
O 	O 	0.75694 0.10928 0.08438 -0.48700
O 	O 	0.78218 0.06837 0.05196 -0.59700
O 	O 	0.78637 0.14558 0.05641 -0.72800
Mo	Mo	0.75266 0.05603 0.03274 1.09200
Mo	Mo	0.71915 0.10731 0.06652 1.06900
Zn	Zn	0.80894 0.07844 0.99482 1.22300
O 	O 	0.72512 0.05877 0.00275 -0.70900
O 	O 	0.72614 0.07080 0.05800 -0.59500
O 	O 	0.84094 0.05479 0.99387 -0.50000
C 	C 	0.86270 0.06680 0.99070 0.37400
C 	C 	0.88580 0.04780 0.98840 -0.17200
O 	O 	0.86508 0.09239 0.98974 -0.34200
C 	C 	0.91030 0.05830 0.98260 0.06300
C 	C 	0.88300 0.02230 0.99370 0.07400
H 	H 	0.91160 0.07700 0.97960 0.00600
C 	C 	0.93500 0.04190 0.98090 -0.14200
C 	C 	0.90640 0.00350 0.99070 -0.14300
H 	H 	0.86620 0.01560 0.99950 0.00300
H 	H 	0.95190 0.04960 0.97710 0.07700
C 	C 	0.93180 0.01370 0.98510 0.06100
H 	H 	0.90390 0.98470 0.99270 0.06600
C 	C 	0.95670 0.99690 0.98220 0.01900
C 	C 	0.97350 0.00030 0.95990 -0.09300
H 	H 	0.97000 0.01400 0.94720 0.05700
Mo	Mo	0.79167 0.89321 0.43982 1.05500
O 	O 	0.81165 0.89601 0.47433 -0.73000
O 	O 	0.75694 0.89072 0.41562 -0.48700
O 	O 	0.78218 0.93163 0.44804 -0.59700
O 	O 	0.78637 0.85442 0.44359 -0.72800
Mo	Mo	0.75266 0.94397 0.46726 1.09200
Mo	Mo	0.71915 0.89269 0.43348 1.06900
Zn	Zn	0.80894 0.92156 0.50518 1.22300
O 	O 	0.72512 0.94123 0.49725 -0.70900
O 	O 	0.72614 0.92920 0.44200 -0.59500
O 	O 	0.84094 0.94521 0.50613 -0.50000
C 	C 	0.86270 0.93320 0.50930 0.37400
C 	C 	0.88580 0.95220 0.51160 -0.17200
O 	O 	0.86508 0.90761 0.51026 -0.34200
C 	C 	0.91030 0.94170 0.51740 0.06300
C 	C 	0.88300 0.97770 0.50630 0.07400
H 	H 	0.91160 0.92300 0.52040 0.00600
C 	C 	0.93500 0.95810 0.51910 -0.14200
C 	C 	0.90640 0.99650 0.50930 -0.14300
H 	H 	0.86620 0.98440 0.50050 0.00300
H 	H 	0.95190 0.95040 0.52290 0.07700
C 	C 	0.93180 0.98630 0.51490 0.06100
H 	H 	0.90390 0.01530 0.50730 0.06600
C 	C 	0.95670 0.00310 0.51780 0.01900
C 	C 	0.97350 0.99970 0.54010 -0.09300
H 	H 	0.97000 0.98600 0.55280 0.05700
Mo	Mo	0.29167 0.39321 0.93982 1.05500
O 	O 	0.31165 0.39601 0.97433 -0.73000
O 	O 	0.25694 0.39072 0.91562 -0.48700
O 	O 	0.28218 0.43163 0.94804 -0.59700
O 	O 	0.28637 0.35442 0.94359 -0.72800
Mo	Mo	0.25266 0.44397 0.96726 1.09200
Mo	Mo	0.21915 0.39269 0.93348 1.06900
Zn	Zn	0.30894 0.42156 0.00518 1.22300
O 	O 	0.22512 0.44123 0.99725 -0.70900
O 	O 	0.22614 0.42920 0.94200 -0.59500
O 	O 	0.34094 0.44521 0.00613 -0.50000
C 	C 	0.36270 0.43320 0.00930 0.37400
C 	C 	0.38580 0.45220 0.01160 -0.17200
O 	O 	0.36508 0.40761 0.01026 -0.34200
C 	C 	0.41030 0.44170 0.01740 0.06300
C 	C 	0.38300 0.47770 0.00630 0.07400
H 	H 	0.41160 0.42300 0.02040 0.00600
C 	C 	0.43500 0.45810 0.01910 -0.14200
C 	C 	0.40640 0.49650 0.00930 -0.14300
H 	H 	0.36620 0.48440 0.00050 0.00300
H 	H 	0.45190 0.45040 0.02290 0.07700
C 	C 	0.43180 0.48630 0.01490 0.06100
H 	H 	0.40390 0.51530 0.00730 0.06600
C 	C 	0.45670 0.50310 0.01780 0.01900
C 	C 	0.47350 0.49970 0.04010 -0.09300
H 	H 	0.47000 0.48600 0.05280 0.05700
Mo	Mo	0.06018 0.20833 0.39321 1.05500
O 	O 	0.02567 0.18835 0.39601 -0.73000
O 	O 	0.08438 0.24306 0.39072 -0.48700
O 	O 	0.05196 0.21782 0.43163 -0.59700
O 	O 	0.05641 0.21363 0.35442 -0.72800
Mo	Mo	0.03274 0.24734 0.44397 1.09200
Mo	Mo	0.06652 0.28085 0.39269 1.06900
Zn	Zn	0.99482 0.19106 0.42156 1.22300
O 	O 	0.00275 0.27488 0.44123 -0.70900
O 	O 	0.05800 0.27386 0.42920 -0.59500
O 	O 	0.99387 0.15906 0.44521 -0.50000
C 	C 	0.99070 0.13730 0.43320 0.37400
C 	C 	0.98840 0.11420 0.45220 -0.17200
O 	O 	0.98974 0.13492 0.40761 -0.34200
C 	C 	0.98260 0.08970 0.44170 0.06300
C 	C 	0.99370 0.11700 0.47770 0.07400
H 	H 	0.97960 0.08840 0.42300 0.00600
C 	C 	0.98090 0.06500 0.45810 -0.14200
C 	C 	0.99070 0.09360 0.49650 -0.14300
H 	H 	0.99950 0.13380 0.48440 0.00300
H 	H 	0.97710 0.04810 0.45040 0.07700
C 	C 	0.98510 0.06820 0.48630 0.06100
H 	H 	0.99270 0.09610 0.51530 0.06600
C 	C 	0.98220 0.04330 0.50310 0.01900
C 	C 	0.95990 0.02650 0.49970 -0.09300
H 	H 	0.94720 0.03000 0.48600 0.05700
Mo	Mo	0.56018 0.70833 0.89321 1.05500
O 	O 	0.52567 0.68835 0.89601 -0.73000
O 	O 	0.58438 0.74306 0.89072 -0.48700
O 	O 	0.55196 0.71782 0.93163 -0.59700
O 	O 	0.55641 0.71363 0.85442 -0.72800
Mo	Mo	0.53274 0.74734 0.94397 1.09200
Mo	Mo	0.56652 0.78085 0.89269 1.06900
Zn	Zn	0.49482 0.69106 0.92156 1.22300
O 	O 	0.50275 0.77488 0.94123 -0.70900
O 	O 	0.55800 0.77386 0.92920 -0.59500
O 	O 	0.49387 0.65906 0.94521 -0.50000
C 	C 	0.49070 0.63730 0.93320 0.37400
C 	C 	0.48840 0.61420 0.95220 -0.17200
O 	O 	0.48974 0.63492 0.90761 -0.34200
C 	C 	0.48260 0.58970 0.94170 0.06300
C 	C 	0.49370 0.61700 0.97770 0.07400
H 	H 	0.47960 0.58840 0.92300 0.00600
C 	C 	0.48090 0.56500 0.95810 -0.14200
C 	C 	0.49070 0.59360 0.99650 -0.14300
H 	H 	0.49950 0.63380 0.98440 0.00300
H 	H 	0.47710 0.54810 0.95040 0.07700
C 	C 	0.48510 0.56820 0.98630 0.06100
H 	H 	0.49270 0.59610 0.01530 0.06600
C 	C 	0.48220 0.54330 0.00310 0.01900
C 	C 	0.45990 0.52650 0.99970 -0.09300
H 	H 	0.44720 0.53000 0.98600 0.05700
Mo	Mo	0.93982 0.70833 0.10679 1.05500
O 	O 	0.97433 0.68835 0.10399 -0.73000
O 	O 	0.91562 0.74306 0.10928 -0.48700
O 	O 	0.94804 0.71782 0.06837 -0.59700
O 	O 	0.94359 0.71363 0.14558 -0.72800
Mo	Mo	0.96726 0.74734 0.05603 1.09200
Mo	Mo	0.93348 0.78085 0.10731 1.06900
Zn	Zn	0.00518 0.69106 0.07844 1.22300
O 	O 	0.99725 0.77488 0.05877 -0.70900
O 	O 	0.94200 0.77386 0.07080 -0.59500
O 	O 	0.00613 0.65906 0.05479 -0.50000
C 	C 	0.00930 0.63730 0.06680 0.37400
C 	C 	0.01160 0.61420 0.04780 -0.17200
O 	O 	0.01026 0.63492 0.09239 -0.34200
C 	C 	0.01740 0.58970 0.05830 0.06300
C 	C 	0.00630 0.61700 0.02230 0.07400
H 	H 	0.02040 0.58840 0.07700 0.00600
C 	C 	0.01910 0.56500 0.04190 -0.14200
C 	C 	0.00930 0.59360 0.00350 -0.14300
H 	H 	0.00050 0.63380 0.01560 0.00300
H 	H 	0.02290 0.54810 0.04960 0.07700
C 	C 	0.01490 0.56820 0.01370 0.06100
H 	H 	0.00730 0.59610 0.98470 0.06600
C 	C 	0.01780 0.54330 0.99690 0.01900
C 	C 	0.04010 0.52650 0.00030 -0.09300
H 	H 	0.05280 0.53000 0.01400 0.05700
Mo	Mo	0.43982 0.20833 0.60679 1.05500
O 	O 	0.47433 0.18835 0.60399 -0.73000
O 	O 	0.41562 0.24306 0.60928 -0.48700
O 	O 	0.44804 0.21782 0.56837 -0.59700
O 	O 	0.44359 0.21363 0.64558 -0.72800
Mo	Mo	0.46726 0.24734 0.55603 1.09200
Mo	Mo	0.43348 0.28085 0.60731 1.06900
Zn	Zn	0.50518 0.19106 0.57844 1.22300
O 	O 	0.49725 0.27488 0.55877 -0.70900
O 	O 	0.44200 0.27386 0.57080 -0.59500
O 	O 	0.50613 0.15906 0.55479 -0.50000
C 	C 	0.50930 0.13730 0.56680 0.37400
C 	C 	0.51160 0.11420 0.54780 -0.17200
O 	O 	0.51026 0.13492 0.59239 -0.34200
C 	C 	0.51740 0.08970 0.55830 0.06300
C 	C 	0.50630 0.11700 0.52230 0.07400
H 	H 	0.52040 0.08840 0.57700 0.00600
C 	C 	0.51910 0.06500 0.54190 -0.14200
C 	C 	0.50930 0.09360 0.50350 -0.14300
H 	H 	0.50050 0.13380 0.51560 0.00300
H 	H 	0.52290 0.04810 0.54960 0.07700
C 	C 	0.51490 0.06820 0.51370 0.06100
H 	H 	0.50730 0.09610 0.48470 0.06600
C 	C 	0.51780 0.04330 0.49690 0.01900
C 	C 	0.54010 0.02650 0.50030 -0.09300
H 	H 	0.55280 0.03000 0.51400 0.05700
Mo	Mo	0.56018 0.29167 0.60679 1.05500
O 	O 	0.52567 0.31165 0.60399 -0.73000
O 	O 	0.58438 0.25694 0.60928 -0.48700
O 	O 	0.55196 0.28218 0.56837 -0.59700
O 	O 	0.55641 0.28637 0.64558 -0.72800
Mo	Mo	0.53274 0.25266 0.55603 1.09200
Mo	Mo	0.56652 0.21915 0.60731 1.06900
Zn	Zn	0.49482 0.30894 0.57844 1.22300
O 	O 	0.50275 0.22512 0.55877 -0.70900
O 	O 	0.55800 0.22614 0.57080 -0.59500
O 	O 	0.49387 0.34094 0.55479 -0.50000
C 	C 	0.49070 0.36270 0.56680 0.37400
C 	C 	0.48840 0.38580 0.54780 -0.17200
O 	O 	0.48974 0.36508 0.59239 -0.34200
C 	C 	0.48260 0.41030 0.55830 0.06300
C 	C 	0.49370 0.38300 0.52230 0.07400
H 	H 	0.47960 0.41160 0.57700 0.00600
C 	C 	0.48090 0.43500 0.54190 -0.14200
C 	C 	0.49070 0.40640 0.50350 -0.14300
H 	H 	0.49950 0.36620 0.51560 0.00300
H 	H 	0.47710 0.45190 0.54960 0.07700
C 	C 	0.48510 0.43180 0.51370 0.06100
H 	H 	0.49270 0.40390 0.48470 0.06600
C 	C 	0.48220 0.45670 0.49690 0.01900
C 	C 	0.45990 0.47350 0.50030 -0.09300
H 	H 	0.44720 0.47000 0.51400 0.05700
Mo	Mo	0.06018 0.79167 0.10679 1.05500
O 	O 	0.02567 0.81165 0.10399 -0.73000
O 	O 	0.08438 0.75694 0.10928 -0.48700
O 	O 	0.05196 0.78218 0.06837 -0.59700
O 	O 	0.05641 0.78637 0.14558 -0.72800
Mo	Mo	0.03274 0.75266 0.05603 1.09200
Mo	Mo	0.06652 0.71915 0.10731 1.06900
Zn	Zn	0.99482 0.80894 0.07844 1.22300
O 	O 	0.00275 0.72512 0.05877 -0.70900
O 	O 	0.05800 0.72614 0.07080 -0.59500
O 	O 	0.99387 0.84094 0.05479 -0.50000
C 	C 	0.99070 0.86270 0.06680 0.37400
C 	C 	0.98840 0.88580 0.04780 -0.17200
O 	O 	0.98974 0.86508 0.09239 -0.34200
C 	C 	0.98260 0.91030 0.05830 0.06300
C 	C 	0.99370 0.88300 0.02230 0.07400
H 	H 	0.97960 0.91160 0.07700 0.00600
C 	C 	0.98090 0.93500 0.04190 -0.14200
C 	C 	0.99070 0.90640 0.00350 -0.14300
H 	H 	0.99950 0.86620 0.01560 0.00300
H 	H 	0.97710 0.95190 0.04960 0.07700
C 	C 	0.98510 0.93180 0.01370 0.06100
H 	H 	0.99270 0.90390 0.98470 0.06600
C 	C 	0.98220 0.95670 0.99690 0.01900
C 	C 	0.95990 0.97350 0.00030 -0.09300
H 	H 	0.94720 0.97000 0.01400 0.05700
Mo	Mo	0.43982 0.79167 0.89321 1.05500
O 	O 	0.47433 0.81165 0.89601 -0.73000
O 	O 	0.41562 0.75694 0.89072 -0.48700
O 	O 	0.44804 0.78218 0.93163 -0.59700
O 	O 	0.44359 0.78637 0.85442 -0.72800
Mo	Mo	0.46726 0.75266 0.94397 1.09200
Mo	Mo	0.43348 0.71915 0.89269 1.06900
Zn	Zn	0.50518 0.80894 0.92156 1.22300
O 	O 	0.49725 0.72512 0.94123 -0.70900
O 	O 	0.44200 0.72614 0.92920 -0.59500
O 	O 	0.50613 0.84094 0.94521 -0.50000
C 	C 	0.50930 0.86270 0.93320 0.37400
C 	C 	0.51160 0.88580 0.95220 -0.17200
O 	O 	0.51026 0.86508 0.90761 -0.34200
C 	C 	0.51740 0.91030 0.94170 0.06300
C 	C 	0.50630 0.88300 0.97770 0.07400
H 	H 	0.52040 0.91160 0.92300 0.00600
C 	C 	0.51910 0.93500 0.95810 -0.14200
C 	C 	0.50930 0.90640 0.99650 -0.14300
H 	H 	0.50050 0.86620 0.98440 0.00300
H 	H 	0.52290 0.95190 0.95040 0.07700
C 	C 	0.51490 0.93180 0.98630 0.06100
H 	H 	0.50730 0.90390 0.01530 0.06600
C 	C 	0.51780 0.95670 0.00310 0.01900
C 	C 	0.54010 0.97350 0.99970 -0.09300
H 	H 	0.55280 0.97000 0.98600 0.05700
Mo	Mo	0.93982 0.29167 0.39321 1.05500
O 	O 	0.97433 0.31165 0.39601 -0.73000
O 	O 	0.91562 0.25694 0.39072 -0.48700
O 	O 	0.94804 0.28218 0.43163 -0.59700
O 	O 	0.94359 0.28637 0.35442 -0.72800
Mo	Mo	0.96726 0.25266 0.44397 1.09200
Mo	Mo	0.93348 0.21915 0.39269 1.06900
Zn	Zn	0.00518 0.30894 0.42156 1.22300
O 	O 	0.99725 0.22512 0.44123 -0.70900
O 	O 	0.94200 0.22614 0.42920 -0.59500
O 	O 	0.00613 0.34094 0.44521 -0.50000
C 	C 	0.00930 0.36270 0.43320 0.37400
C 	C 	0.01160 0.38580 0.45220 -0.17200
O 	O 	0.01026 0.36508 0.40761 -0.34200
C 	C 	0.01740 0.41030 0.44170 0.06300
C 	C 	0.00630 0.38300 0.47770 0.07400
H 	H 	0.02040 0.41160 0.42300 0.00600
C 	C 	0.01910 0.43500 0.45810 -0.14200
C 	C 	0.00930 0.40640 0.49650 -0.14300
H 	H 	0.00050 0.36620 0.48440 0.00300
H 	H 	0.02290 0.45190 0.45040 0.07700
C 	C 	0.01490 0.43180 0.48630 0.06100
H 	H 	0.00730 0.40390 0.51530 0.06600
C 	C 	0.01780 0.45670 0.50310 0.01900
C 	C 	0.04010 0.47350 0.49970 -0.09300
H 	H 	0.05280 0.47000 0.48600 0.05700
