data_crystal

_cell_length_a 28.88180
_cell_length_b 27.40170
_cell_length_c 26.78890
_cell_angle_alpha 90.00000
_cell_angle_beta  104.86000
_cell_angle_gamma 90.00000

_symmetry_space_group_name_	'P 1'
_symmetry_space_group_name_H-M	'P 1'

loop_
_symmetry_equiv_pos_as_xyz
  x,y,z

loop_
_atom_site_label
_atom_site_type_symbol
_atom_site_fract_x
_atom_site_fract_y
_atom_site_fract_z
_atom_site_charge
Mo	Mo	0.27872 0.43989 0.17288 1.04900
Mo	Mo	0.19254 0.46321 0.17754 1.04800
Mo	Mo	0.10998 0.36904 0.19061 1.04900
Mo	Mo	0.13791 0.27816 0.19626 1.05500
Mo	Mo	0.25058 0.23996 0.19215 1.10200
Mo	Mo	0.32362 0.32363 0.18035 1.10200
Mo	Mo	0.29999 0.37961 0.06152 1.04000
Mo	Mo	0.15863 0.21682 0.08511 1.04100
Mo	Mo	0.09270 0.43793 0.08061 1.10400
Mo	Mo	0.11015 0.38359 0.98193 1.10200
Mo	Mo	0.14689 0.26472 0.99846 1.03800
Mo	Mo	0.22706 0.35701 0.98437 1.04100
Zn	Zn	0.23886 0.35142 0.24933 1.22300
Zn	Zn	0.19879 0.46491 0.04487 1.22200
Zn	Zn	0.06608 0.31228 0.06702 1.22100
Zn	Zn	0.22634 0.24719 0.92964 1.19700
O 	O 	0.26160 0.35540 0.32250 -0.48400
O 	O 	0.20330 0.40890 0.32430 -0.32900
O 	O 	0.20766 0.48002 0.50310 -0.47800
O 	O 	0.28040 0.47840 0.55810 -0.33600
O 	O 	0.50250 0.21520 0.54690 -0.48900
O 	O 	0.53080 0.28030 0.59620 -0.33600
O 	O 	0.32295 0.38600 0.20530 -0.59300
O 	O 	0.27595 0.30540 0.21984 -0.71100
O 	O 	0.20200 0.24780 0.22440 -0.59400
O 	O 	0.23886 0.41628 0.21710 -0.72400
O 	O 	0.16944 0.33750 0.22800 -0.72400
O 	O 	0.14800 0.43220 0.21850 -0.49000
O 	O 	0.33856 0.33990 0.12080 -0.62500
O 	O 	0.28976 0.26413 0.14500 -0.72700
O 	O 	0.31058 0.43824 0.11240 -0.49100
O 	O 	0.21736 0.20111 0.14066 -0.62700
O 	O 	0.22386 0.46776 0.12130 -0.72300
O 	O 	0.12419 0.22171 0.14420 -0.48800
O 	O 	0.13374 0.47994 0.12270 -0.60400
O 	O 	0.09086 0.31400 0.14360 -0.72500
O 	O 	0.07111 0.40861 0.13170 -0.60100
O 	O 	0.27181 0.31690 0.03519 -0.77700
O 	O 	0.24185 0.41547 0.02751 -0.72500
O 	O 	0.20430 0.23892 0.04715 -0.77800
O 	O 	0.10924 0.26304 0.04963 -0.72600
O 	O 	0.13334 0.44022 0.03098 -0.71200
O 	O 	0.07861 0.37590 0.04050 -0.71600
O 	O 	0.19194 0.29465 0.96111 -0.72700
O 	O 	0.16317 0.39048 0.95810 -0.60100
O 	O 	0.10067 0.31914 0.96861 -0.60600
C 	C 	0.23880 0.38430 0.34570 0.32100
C 	C 	0.26080 0.38770 0.40310 -0.10400
C 	C 	0.30050 0.36020 0.42570 -0.00400
H 	H 	0.31220 0.33800 0.40570 0.03000
C 	C 	0.32360 0.36480 0.47780 -0.05300
C 	C 	0.30580 0.39870 0.50630 -0.00700
H 	H 	0.32130 0.40280 0.54100 0.02900
C 	C 	0.26630 0.42660 0.48520 -0.10200
C 	C 	0.24280 0.42140 0.43300 0.01700
H 	H 	0.21580 0.43990 0.41830 0.02500
C 	C 	0.25070 0.46410 0.51880 0.31000
C 	C 	0.36770 0.33610 0.50120 0.08400
C 	C 	0.40430 0.35590 0.53930 -0.16200
H 	H 	0.40110 0.38740 0.55090 0.06900
C 	C 	0.44530 0.33030 0.56030 0.06000
H 	H 	0.46900 0.34440 0.58650 -0.00100
C 	C 	0.45240 0.28350 0.54320 -0.15400
C 	C 	0.41580 0.26310 0.50620 0.06200
H 	H 	0.41920 0.23150 0.49500 -0.00300
C 	C 	0.37370 0.28870 0.48490 -0.15900
H 	H 	0.34940 0.27410 0.45980 0.06800
C 	C 	0.49890 0.25850 0.56450 0.33500
Mo	Mo	0.77872 0.93989 0.17288 1.04800
Mo	Mo	0.69254 0.96321 0.17754 1.04700
Mo	Mo	0.60998 0.86904 0.19061 1.04800
Mo	Mo	0.63791 0.77816 0.19626 1.05400
Mo	Mo	0.75058 0.73996 0.19215 1.10100
Mo	Mo	0.82362 0.82363 0.18035 1.10100
Mo	Mo	0.79999 0.87961 0.06152 1.03900
Mo	Mo	0.65863 0.71682 0.08511 1.04000
Mo	Mo	0.59270 0.93793 0.08061 1.10300
Mo	Mo	0.61015 0.88359 0.98193 1.10200
Mo	Mo	0.64689 0.76472 0.99846 1.03700
Mo	Mo	0.72706 0.85701 0.98437 1.04100
Zn	Zn	0.73886 0.85142 0.24933 1.22200
Zn	Zn	0.69879 0.96491 0.04487 1.22100
Zn	Zn	0.56608 0.81228 0.06702 1.22000
Zn	Zn	0.72634 0.74719 0.92964 1.19600
O 	O 	0.76160 0.85540 0.32250 -0.48500
O 	O 	0.70330 0.90890 0.32430 -0.33000
O 	O 	0.70766 0.98002 0.50310 -0.47900
O 	O 	0.78040 0.97840 0.55810 -0.33700
O 	O 	0.00250 0.71520 0.54690 -0.49000
O 	O 	0.03080 0.78030 0.59620 -0.33700
O 	O 	0.82295 0.88600 0.20530 -0.59400
O 	O 	0.77595 0.80540 0.21984 -0.71200
O 	O 	0.70200 0.74780 0.22440 -0.59500
O 	O 	0.73886 0.91628 0.21710 -0.72500
O 	O 	0.66944 0.83750 0.22800 -0.72500
O 	O 	0.64800 0.93220 0.21850 -0.49100
O 	O 	0.83856 0.83990 0.12080 -0.62600
O 	O 	0.78976 0.76413 0.14500 -0.72800
O 	O 	0.81058 0.93824 0.11240 -0.49100
O 	O 	0.71736 0.70111 0.14066 -0.62700
O 	O 	0.72386 0.96776 0.12130 -0.72300
O 	O 	0.62419 0.72171 0.14420 -0.48800
O 	O 	0.63374 0.97994 0.12270 -0.60400
O 	O 	0.59086 0.81400 0.14360 -0.72500
O 	O 	0.57111 0.90861 0.13170 -0.60100
O 	O 	0.77181 0.81690 0.03519 -0.77800
O 	O 	0.74185 0.91547 0.02751 -0.72500
O 	O 	0.70430 0.73892 0.04715 -0.77800
O 	O 	0.60924 0.76304 0.04963 -0.72700
O 	O 	0.63334 0.94022 0.03098 -0.71200
O 	O 	0.57861 0.87590 0.04050 -0.71600
O 	O 	0.69194 0.79465 0.96111 -0.72700
O 	O 	0.66317 0.89048 0.95810 -0.60100
O 	O 	0.60067 0.81914 0.96861 -0.60600
C 	C 	0.73880 0.88430 0.34570 0.32100
C 	C 	0.76080 0.88770 0.40310 -0.10400
C 	C 	0.80050 0.86020 0.42570 -0.00400
H 	H 	0.81220 0.83800 0.40570 0.03000
C 	C 	0.82360 0.86480 0.47780 -0.05300
C 	C 	0.80580 0.89870 0.50630 -0.00700
H 	H 	0.82130 0.90280 0.54100 0.02900
C 	C 	0.76630 0.92660 0.48520 -0.10200
C 	C 	0.74280 0.92140 0.43300 0.01700
H 	H 	0.71580 0.93990 0.41830 0.02500
C 	C 	0.75070 0.96410 0.51880 0.31000
C 	C 	0.86770 0.83610 0.50120 0.08400
C 	C 	0.90430 0.85590 0.53930 -0.16200
H 	H 	0.90110 0.88740 0.55090 0.06800
C 	C 	0.94530 0.83030 0.56030 0.06000
H 	H 	0.96900 0.84440 0.58650 -0.00100
C 	C 	0.95240 0.78350 0.54320 -0.15400
C 	C 	0.91580 0.76310 0.50620 0.06200
H 	H 	0.91920 0.73150 0.49500 -0.00300
C 	C 	0.87370 0.78870 0.48490 -0.15900
H 	H 	0.84940 0.77410 0.45980 0.06800
C 	C 	0.99890 0.75850 0.56450 0.33500
Mo	Mo	0.72128 0.43989 0.32712 1.04800
Mo	Mo	0.80746 0.46321 0.32246 1.04700
Mo	Mo	0.89002 0.36904 0.30939 1.04800
Mo	Mo	0.86209 0.27816 0.30374 1.05400
Mo	Mo	0.74942 0.23996 0.30785 1.10100
Mo	Mo	0.67638 0.32363 0.31965 1.10100
Mo	Mo	0.70001 0.37961 0.43848 1.03900
Mo	Mo	0.84137 0.21682 0.41489 1.04000
Mo	Mo	0.90730 0.43793 0.41939 1.10300
Mo	Mo	0.88985 0.38359 0.51807 1.10200
Mo	Mo	0.85311 0.26472 0.50154 1.03700
Mo	Mo	0.77294 0.35701 0.51563 1.04000
Zn	Zn	0.76114 0.35142 0.25067 1.22200
Zn	Zn	0.80121 0.46491 0.45513 1.22100
Zn	Zn	0.93392 0.31228 0.43298 1.22000
Zn	Zn	0.77366 0.24719 0.57036 1.19600
O 	O 	0.73840 0.35540 0.17750 -0.48500
O 	O 	0.79670 0.40890 0.17570 -0.33000
O 	O 	0.79234 0.48002 0.99690 -0.47900
O 	O 	0.71960 0.47840 0.94190 -0.33700
O 	O 	0.49750 0.21520 0.95310 -0.49000
O 	O 	0.46920 0.28030 0.90380 -0.33700
O 	O 	0.67705 0.38600 0.29470 -0.59400
O 	O 	0.72405 0.30540 0.28016 -0.71200
O 	O 	0.79800 0.24780 0.27560 -0.59500
O 	O 	0.76114 0.41628 0.28290 -0.72500
O 	O 	0.83056 0.33750 0.27200 -0.72500
O 	O 	0.85200 0.43220 0.28150 -0.49200
O 	O 	0.66144 0.33990 0.37920 -0.62600
O 	O 	0.71024 0.26413 0.35500 -0.72800
O 	O 	0.68942 0.43824 0.38760 -0.49100
O 	O 	0.78264 0.20111 0.35934 -0.62700
O 	O 	0.77614 0.46776 0.37870 -0.72300
O 	O 	0.87581 0.22171 0.35580 -0.48800
O 	O 	0.86626 0.47994 0.37730 -0.60400
O 	O 	0.90914 0.31400 0.35640 -0.72500
O 	O 	0.92889 0.40861 0.36830 -0.60100
O 	O 	0.72819 0.31690 0.46481 -0.77800
O 	O 	0.75815 0.41547 0.47249 -0.72500
O 	O 	0.79570 0.23892 0.45285 -0.77800
O 	O 	0.89076 0.26304 0.45037 -0.72700
O 	O 	0.86666 0.44022 0.46902 -0.71200
O 	O 	0.92139 0.37590 0.45950 -0.71600
O 	O 	0.80806 0.29465 0.53889 -0.72700
O 	O 	0.83683 0.39048 0.54190 -0.60100
O 	O 	0.89933 0.31914 0.53139 -0.60600
C 	C 	0.76120 0.38430 0.15430 0.32200
C 	C 	0.73920 0.38770 0.09690 -0.10500
C 	C 	0.69950 0.36020 0.07430 -0.00300
H 	H 	0.68780 0.33800 0.09430 0.02900
C 	C 	0.67640 0.36480 0.02220 -0.05600
C 	C 	0.69420 0.39870 0.99370 -0.00400
H 	H 	0.67870 0.40280 0.95900 0.02800
C 	C 	0.73370 0.42660 0.01480 -0.10400
C 	C 	0.75720 0.42140 0.06700 0.01800
H 	H 	0.78420 0.43990 0.08170 0.02500
C 	C 	0.74930 0.46410 0.98120 0.31100
C 	C 	0.63230 0.33610 0.99880 0.08600
C 	C 	0.59570 0.35590 0.96070 -0.16400
H 	H 	0.59890 0.38740 0.94910 0.06900
C 	C 	0.55470 0.33030 0.93970 0.06100
H 	H 	0.53100 0.34440 0.91350 -0.00100
C 	C 	0.54760 0.28350 0.95680 -0.15600
C 	C 	0.58420 0.26310 0.99380 0.06500
H 	H 	0.58080 0.23150 0.00500 -0.00400
C 	C 	0.62630 0.28870 0.01510 -0.16200
H 	H 	0.65060 0.27410 0.04020 0.06900
C 	C 	0.50110 0.25850 0.93550 0.33600
Mo	Mo	0.22128 0.93989 0.32712 1.04800
Mo	Mo	0.30746 0.96321 0.32246 1.04700
Mo	Mo	0.39002 0.86904 0.30939 1.04800
Mo	Mo	0.36209 0.77816 0.30374 1.05400
Mo	Mo	0.24942 0.73996 0.30785 1.10100
Mo	Mo	0.17638 0.82363 0.31965 1.10100
Mo	Mo	0.20001 0.87961 0.43848 1.03900
Mo	Mo	0.34137 0.71682 0.41489 1.04000
Mo	Mo	0.40730 0.93793 0.41939 1.10300
Mo	Mo	0.38985 0.88359 0.51807 1.10200
Mo	Mo	0.35311 0.76472 0.50154 1.03700
Mo	Mo	0.27294 0.85701 0.51563 1.04000
Zn	Zn	0.26114 0.85142 0.25067 1.22200
Zn	Zn	0.30121 0.96491 0.45513 1.22000
Zn	Zn	0.43392 0.81228 0.43298 1.22000
Zn	Zn	0.27366 0.74719 0.57036 1.19600
O 	O 	0.23840 0.85540 0.17750 -0.48500
O 	O 	0.29670 0.90890 0.17570 -0.32900
O 	O 	0.29234 0.98002 0.99690 -0.47900
O 	O 	0.21960 0.97840 0.94190 -0.33700
O 	O 	0.99750 0.71520 0.95310 -0.48900
O 	O 	0.96920 0.78030 0.90380 -0.33500
O 	O 	0.17705 0.88600 0.29470 -0.59400
O 	O 	0.22405 0.80540 0.28016 -0.71200
O 	O 	0.29800 0.74780 0.27560 -0.59500
O 	O 	0.26114 0.91628 0.28290 -0.72500
O 	O 	0.33056 0.83750 0.27200 -0.72500
O 	O 	0.35200 0.93220 0.28150 -0.49100
O 	O 	0.16144 0.83990 0.37920 -0.62600
O 	O 	0.21024 0.76413 0.35500 -0.72800
O 	O 	0.18942 0.93824 0.38760 -0.49100
O 	O 	0.28264 0.70111 0.35934 -0.62700
O 	O 	0.27614 0.96776 0.37870 -0.72300
O 	O 	0.37581 0.72171 0.35580 -0.48800
O 	O 	0.36626 0.97994 0.37730 -0.60400
O 	O 	0.40914 0.81400 0.35640 -0.72500
O 	O 	0.42889 0.90861 0.36830 -0.60100
O 	O 	0.22819 0.81690 0.46481 -0.77800
O 	O 	0.25815 0.91547 0.47249 -0.72500
O 	O 	0.29570 0.73892 0.45285 -0.77800
O 	O 	0.39076 0.76304 0.45037 -0.72700
O 	O 	0.36666 0.94022 0.46902 -0.71200
O 	O 	0.42139 0.87590 0.45950 -0.71600
O 	O 	0.30806 0.79465 0.53889 -0.72700
O 	O 	0.33683 0.89048 0.54190 -0.60100
O 	O 	0.39933 0.81914 0.53139 -0.60600
C 	C 	0.26120 0.88430 0.15430 0.32000
C 	C 	0.23920 0.88770 0.09690 -0.10200
C 	C 	0.19950 0.86020 0.07430 -0.00800
H 	H 	0.18780 0.83800 0.09430 0.03100
C 	C 	0.17640 0.86480 0.02220 -0.04800
C 	C 	0.19420 0.89870 0.99370 -0.01200
H 	H 	0.17870 0.90280 0.95900 0.03100
C 	C 	0.23370 0.92660 0.01480 -0.09800
C 	C 	0.25720 0.92140 0.06700 0.01400
H 	H 	0.28420 0.93990 0.08170 0.02600
C 	C 	0.24930 0.96410 0.98120 0.30800
C 	C 	0.13230 0.83610 0.99880 0.07700
C 	C 	0.09570 0.85590 0.96070 -0.15600
H 	H 	0.09890 0.88740 0.94910 0.06600
C 	C 	0.05470 0.83030 0.93970 0.05500
H 	H 	0.03100 0.84440 0.91350 0.00100
C 	C 	0.04760 0.78350 0.95680 -0.14900
C 	C 	0.08420 0.76310 0.99380 0.05400
H 	H 	0.08080 0.73150 0.00500 0.00000
C 	C 	0.12630 0.78870 0.01510 -0.15100
H 	H 	0.15060 0.77410 0.04020 0.06600
C 	C 	0.00110 0.75850 0.93550 0.33100
Mo	Mo	0.72128 0.56011 0.82712 1.04800
Mo	Mo	0.80746 0.53679 0.82246 1.04700
Mo	Mo	0.89002 0.63096 0.80939 1.04800
Mo	Mo	0.86209 0.72184 0.80374 1.05400
Mo	Mo	0.74942 0.76004 0.80785 1.10100
Mo	Mo	0.67638 0.67637 0.81965 1.10100
Mo	Mo	0.70001 0.62039 0.93848 1.03900
Mo	Mo	0.84137 0.78318 0.91489 1.04000
Mo	Mo	0.90730 0.56207 0.91939 1.10300
Mo	Mo	0.88985 0.61641 0.01807 1.10100
Mo	Mo	0.85311 0.73528 0.00154 1.03700
Mo	Mo	0.77294 0.64299 0.01563 1.04000
Zn	Zn	0.76114 0.64858 0.75067 1.22200
Zn	Zn	0.80121 0.53509 0.95513 1.22100
Zn	Zn	0.93392 0.68772 0.93298 1.22000
Zn	Zn	0.77366 0.75281 0.07036 1.19600
O 	O 	0.73840 0.64460 0.67750 -0.48500
O 	O 	0.79670 0.59110 0.67570 -0.33000
O 	O 	0.79234 0.51998 0.49690 -0.47900
O 	O 	0.71960 0.52160 0.44190 -0.33700
O 	O 	0.49750 0.78480 0.45310 -0.49000
O 	O 	0.46920 0.71970 0.40380 -0.33700
O 	O 	0.67705 0.61400 0.79470 -0.59400
O 	O 	0.72405 0.69460 0.78016 -0.71200
O 	O 	0.79800 0.75220 0.77560 -0.59500
O 	O 	0.76114 0.58372 0.78290 -0.72500
O 	O 	0.83056 0.66250 0.77200 -0.72500
O 	O 	0.85200 0.56780 0.78150 -0.49100
O 	O 	0.66144 0.66010 0.87920 -0.62600
O 	O 	0.71024 0.73587 0.85500 -0.72800
O 	O 	0.68942 0.56176 0.88760 -0.49100
O 	O 	0.78264 0.79889 0.85934 -0.62700
O 	O 	0.77614 0.53224 0.87870 -0.72300
O 	O 	0.87581 0.77829 0.85580 -0.48800
O 	O 	0.86626 0.52006 0.87730 -0.60400
O 	O 	0.90914 0.68600 0.85640 -0.72500
O 	O 	0.92889 0.59139 0.86830 -0.60100
O 	O 	0.72819 0.68310 0.96481 -0.77700
O 	O 	0.75815 0.58453 0.97249 -0.72500
O 	O 	0.79570 0.76108 0.95285 -0.77800
O 	O 	0.89076 0.73696 0.95037 -0.72600
O 	O 	0.86666 0.55978 0.96902 -0.71200
O 	O 	0.92139 0.62410 0.95950 -0.71600
O 	O 	0.80806 0.70535 0.03889 -0.72700
O 	O 	0.83683 0.60952 0.04190 -0.60100
O 	O 	0.89933 0.68086 0.03139 -0.60600
C 	C 	0.76120 0.61570 0.65430 0.32100
C 	C 	0.73920 0.61230 0.59690 -0.10400
C 	C 	0.69950 0.63980 0.57430 -0.00400
H 	H 	0.68780 0.66200 0.59430 0.03000
C 	C 	0.67640 0.63520 0.52220 -0.05300
C 	C 	0.69420 0.60130 0.49370 -0.00700
H 	H 	0.67870 0.59720 0.45900 0.02900
C 	C 	0.73370 0.57340 0.51480 -0.10200
C 	C 	0.75720 0.57860 0.56700 0.01700
H 	H 	0.78420 0.56010 0.58170 0.02500
C 	C 	0.74930 0.53590 0.48120 0.31000
C 	C 	0.63230 0.66390 0.49880 0.08400
C 	C 	0.59570 0.64410 0.46070 -0.16200
H 	H 	0.59890 0.61260 0.44910 0.06900
C 	C 	0.55470 0.66970 0.43970 0.06000
H 	H 	0.53100 0.65560 0.41350 -0.00100
C 	C 	0.54760 0.71650 0.45680 -0.15400
C 	C 	0.58420 0.73690 0.49380 0.06200
H 	H 	0.58080 0.76850 0.50500 -0.00300
C 	C 	0.62630 0.71130 0.51510 -0.15900
H 	H 	0.65060 0.72590 0.54020 0.06800
C 	C 	0.50110 0.74150 0.43550 0.33500
Mo	Mo	0.22128 0.06011 0.82712 1.04800
Mo	Mo	0.30746 0.03679 0.82246 1.04700
Mo	Mo	0.39002 0.13096 0.80939 1.04800
Mo	Mo	0.36209 0.22184 0.80374 1.05400
Mo	Mo	0.24942 0.26004 0.80785 1.10100
Mo	Mo	0.17638 0.17637 0.81965 1.10100
Mo	Mo	0.20001 0.12039 0.93848 1.03900
Mo	Mo	0.34137 0.28318 0.91489 1.04000
Mo	Mo	0.40730 0.06207 0.91939 1.10300
Mo	Mo	0.38985 0.11641 0.01807 1.10200
Mo	Mo	0.35311 0.23528 0.00154 1.03700
Mo	Mo	0.27294 0.14299 0.01563 1.04100
Zn	Zn	0.26114 0.14858 0.75067 1.22200
Zn	Zn	0.30121 0.03509 0.95513 1.22100
Zn	Zn	0.43392 0.18772 0.93298 1.22000
Zn	Zn	0.27366 0.25281 0.07036 1.19600
O 	O 	0.23840 0.14460 0.67750 -0.48500
O 	O 	0.29670 0.09110 0.67570 -0.33000
O 	O 	0.29234 0.01998 0.49690 -0.47900
O 	O 	0.21960 0.02160 0.44190 -0.33700
O 	O 	0.99750 0.28480 0.45310 -0.49000
O 	O 	0.96920 0.21970 0.40380 -0.33700
O 	O 	0.17705 0.11400 0.79470 -0.59400
O 	O 	0.22405 0.19460 0.78016 -0.71200
O 	O 	0.29800 0.25220 0.77560 -0.59500
O 	O 	0.26114 0.08372 0.78290 -0.72500
O 	O 	0.33056 0.16250 0.77200 -0.72500
O 	O 	0.35200 0.06780 0.78150 -0.49100
O 	O 	0.16144 0.16010 0.87920 -0.62600
O 	O 	0.21024 0.23587 0.85500 -0.72800
O 	O 	0.18942 0.06176 0.88760 -0.49100
O 	O 	0.28264 0.29889 0.85934 -0.62700
O 	O 	0.27614 0.03224 0.87870 -0.72300
O 	O 	0.37581 0.27829 0.85580 -0.48800
O 	O 	0.36626 0.02006 0.87730 -0.60400
O 	O 	0.40914 0.18600 0.85640 -0.72500
O 	O 	0.42889 0.09139 0.86830 -0.60100
O 	O 	0.22819 0.18310 0.96481 -0.77800
O 	O 	0.25815 0.08453 0.97249 -0.72500
O 	O 	0.29570 0.26108 0.95285 -0.77800
O 	O 	0.39076 0.23696 0.95037 -0.72700
O 	O 	0.36666 0.05978 0.96902 -0.71200
O 	O 	0.42139 0.12410 0.95950 -0.71600
O 	O 	0.30806 0.20535 0.03889 -0.72700
O 	O 	0.33683 0.10952 0.04190 -0.60100
O 	O 	0.39933 0.18086 0.03139 -0.60600
C 	C 	0.26120 0.11570 0.65430 0.32100
C 	C 	0.23920 0.11230 0.59690 -0.10400
C 	C 	0.19950 0.13980 0.57430 -0.00400
H 	H 	0.18780 0.16200 0.59430 0.03000
C 	C 	0.17640 0.13520 0.52220 -0.05300
C 	C 	0.19420 0.10130 0.49370 -0.00700
H 	H 	0.17870 0.09720 0.45900 0.02900
C 	C 	0.23370 0.07340 0.51480 -0.10200
C 	C 	0.25720 0.07860 0.56700 0.01700
H 	H 	0.28420 0.06010 0.58170 0.02500
C 	C 	0.24930 0.03590 0.48120 0.31000
C 	C 	0.13230 0.16390 0.49880 0.08400
C 	C 	0.09570 0.14410 0.46070 -0.16200
H 	H 	0.09890 0.11260 0.44910 0.06800
C 	C 	0.05470 0.16970 0.43970 0.06000
H 	H 	0.03100 0.15560 0.41350 -0.00100
C 	C 	0.04760 0.21650 0.45680 -0.15400
C 	C 	0.08420 0.23690 0.49380 0.06200
H 	H 	0.08080 0.26850 0.50500 -0.00300
C 	C 	0.12630 0.21130 0.51510 -0.15900
H 	H 	0.15060 0.22590 0.54020 0.06800
C 	C 	0.00110 0.24150 0.43550 0.33500
Mo	Mo	0.27872 0.56011 0.67288 1.04800
Mo	Mo	0.19254 0.53679 0.67754 1.04700
Mo	Mo	0.10998 0.63096 0.69061 1.04800
Mo	Mo	0.13791 0.72184 0.69626 1.05400
Mo	Mo	0.25058 0.76004 0.69215 1.10100
Mo	Mo	0.32362 0.67637 0.68035 1.10100
Mo	Mo	0.29999 0.62039 0.56152 1.03900
Mo	Mo	0.15863 0.78318 0.58511 1.04000
Mo	Mo	0.09270 0.56207 0.58061 1.10300
Mo	Mo	0.11015 0.61641 0.48193 1.10200
Mo	Mo	0.14689 0.73528 0.49846 1.03700
Mo	Mo	0.22706 0.64299 0.48437 1.04000
Zn	Zn	0.23886 0.64858 0.74933 1.22200
Zn	Zn	0.19879 0.53509 0.54487 1.22100
Zn	Zn	0.06608 0.68772 0.56702 1.22000
Zn	Zn	0.22634 0.75281 0.42964 1.19600
O 	O 	0.26160 0.64460 0.82250 -0.48500
O 	O 	0.20330 0.59110 0.82430 -0.33000
O 	O 	0.20766 0.51998 0.00310 -0.47900
O 	O 	0.28040 0.52160 0.05810 -0.33700
O 	O 	0.50250 0.78480 0.04690 -0.49000
O 	O 	0.53080 0.71970 0.09620 -0.33700
O 	O 	0.32295 0.61400 0.70530 -0.59400
O 	O 	0.27595 0.69460 0.71984 -0.71200
O 	O 	0.20200 0.75220 0.72440 -0.59500
O 	O 	0.23886 0.58372 0.71710 -0.72500
O 	O 	0.16944 0.66250 0.72800 -0.72500
O 	O 	0.14800 0.56780 0.71850 -0.49200
O 	O 	0.33856 0.66010 0.62080 -0.62600
O 	O 	0.28976 0.73587 0.64500 -0.72800
O 	O 	0.31058 0.56176 0.61240 -0.49100
O 	O 	0.21736 0.79889 0.64066 -0.62700
O 	O 	0.22386 0.53224 0.62130 -0.72300
O 	O 	0.12419 0.77829 0.64420 -0.48800
O 	O 	0.13374 0.52006 0.62270 -0.60400
O 	O 	0.09086 0.68600 0.64360 -0.72500
O 	O 	0.07111 0.59139 0.63170 -0.60100
O 	O 	0.27181 0.68310 0.53519 -0.77800
O 	O 	0.24185 0.58453 0.52751 -0.72500
O 	O 	0.20430 0.76108 0.54715 -0.77800
O 	O 	0.10924 0.73696 0.54963 -0.72700
O 	O 	0.13334 0.55978 0.53098 -0.71200
O 	O 	0.07861 0.62410 0.54050 -0.71600
O 	O 	0.19194 0.70535 0.46111 -0.72700
O 	O 	0.16317 0.60952 0.45810 -0.60100
O 	O 	0.10067 0.68086 0.46861 -0.60600
C 	C 	0.23880 0.61570 0.84570 0.32200
C 	C 	0.26080 0.61230 0.90310 -0.10500
C 	C 	0.30050 0.63980 0.92570 -0.00300
H 	H 	0.31220 0.66200 0.90570 0.02900
C 	C 	0.32360 0.63520 0.97780 -0.05600
C 	C 	0.30580 0.60130 0.00630 -0.00400
H 	H 	0.32130 0.59720 0.04100 0.02800
C 	C 	0.26630 0.57340 0.98520 -0.10400
C 	C 	0.24280 0.57860 0.93300 0.01800
H 	H 	0.21580 0.56010 0.91830 0.02500
C 	C 	0.25070 0.53590 0.01880 0.31100
C 	C 	0.36770 0.66390 0.00120 0.08600
C 	C 	0.40430 0.64410 0.03930 -0.16400
H 	H 	0.40110 0.61260 0.05090 0.06900
C 	C 	0.44530 0.66970 0.06030 0.06100
H 	H 	0.46900 0.65560 0.08650 -0.00100
C 	C 	0.45240 0.71650 0.04320 -0.15600
C 	C 	0.41580 0.73690 0.00620 0.06500
H 	H 	0.41920 0.76850 0.99500 -0.00400
C 	C 	0.37370 0.71130 0.98490 -0.16200
H 	H 	0.34940 0.72590 0.95980 0.06900
C 	C 	0.49890 0.74150 0.06450 0.33600
Mo	Mo	0.77872 0.06011 0.67288 1.04800
Mo	Mo	0.69254 0.03679 0.67754 1.04700
Mo	Mo	0.60998 0.13096 0.69061 1.04800
Mo	Mo	0.63791 0.22184 0.69626 1.05400
Mo	Mo	0.75058 0.26004 0.69215 1.10100
Mo	Mo	0.82362 0.17637 0.68035 1.10100
Mo	Mo	0.79999 0.12039 0.56152 1.03900
Mo	Mo	0.65863 0.28318 0.58511 1.04000
Mo	Mo	0.59270 0.06207 0.58061 1.10300
Mo	Mo	0.61015 0.11641 0.48193 1.10200
Mo	Mo	0.64689 0.23528 0.49846 1.03700
Mo	Mo	0.72706 0.14299 0.48437 1.04000
Zn	Zn	0.73886 0.14858 0.74933 1.22200
Zn	Zn	0.69879 0.03509 0.54487 1.22000
Zn	Zn	0.56608 0.18772 0.56702 1.22000
Zn	Zn	0.72634 0.25281 0.42964 1.19600
O 	O 	0.76160 0.14460 0.82250 -0.48500
O 	O 	0.70330 0.09110 0.82430 -0.32900
O 	O 	0.70766 0.01998 0.00310 -0.47900
O 	O 	0.78040 0.02160 0.05810 -0.33700
O 	O 	0.00250 0.28480 0.04690 -0.48900
O 	O 	0.03080 0.21970 0.09620 -0.33500
O 	O 	0.82295 0.11400 0.70530 -0.59400
O 	O 	0.77595 0.19460 0.71984 -0.71200
O 	O 	0.70200 0.25220 0.72440 -0.59500
O 	O 	0.73886 0.08372 0.71710 -0.72500
O 	O 	0.66944 0.16250 0.72800 -0.72500
O 	O 	0.64800 0.06780 0.71850 -0.49100
O 	O 	0.83856 0.16010 0.62080 -0.62600
O 	O 	0.78976 0.23587 0.64500 -0.72800
O 	O 	0.81058 0.06176 0.61240 -0.49100
O 	O 	0.71736 0.29889 0.64066 -0.62700
O 	O 	0.72386 0.03224 0.62130 -0.72300
O 	O 	0.62419 0.27829 0.64420 -0.48800
O 	O 	0.63374 0.02006 0.62270 -0.60400
O 	O 	0.59086 0.18600 0.64360 -0.72500
O 	O 	0.57111 0.09139 0.63170 -0.60100
O 	O 	0.77181 0.18310 0.53519 -0.77800
O 	O 	0.74185 0.08453 0.52751 -0.72500
O 	O 	0.70430 0.26108 0.54715 -0.77800
O 	O 	0.60924 0.23696 0.54963 -0.72700
O 	O 	0.63334 0.05978 0.53098 -0.71200
O 	O 	0.57861 0.12410 0.54050 -0.71600
O 	O 	0.69194 0.20535 0.46111 -0.72700
O 	O 	0.66317 0.10952 0.45810 -0.60100
O 	O 	0.60067 0.18086 0.46861 -0.60600
C 	C 	0.73880 0.11570 0.84570 0.32000
C 	C 	0.76080 0.11230 0.90310 -0.10200
C 	C 	0.80050 0.13980 0.92570 -0.00800
H 	H 	0.81220 0.16200 0.90570 0.03100
C 	C 	0.82360 0.13520 0.97780 -0.04800
C 	C 	0.80580 0.10130 0.00630 -0.01200
H 	H 	0.82130 0.09720 0.04100 0.03100
C 	C 	0.76630 0.07340 0.98520 -0.09800
C 	C 	0.74280 0.07860 0.93300 0.01400
H 	H 	0.71580 0.06010 0.91830 0.02600
C 	C 	0.75070 0.03590 0.01880 0.30800
C 	C 	0.86770 0.16390 0.00120 0.07700
C 	C 	0.90430 0.14410 0.03930 -0.15600
H 	H 	0.90110 0.11260 0.05090 0.06600
C 	C 	0.94530 0.16970 0.06030 0.05500
H 	H 	0.96900 0.15560 0.08650 0.00100
C 	C 	0.95240 0.21650 0.04320 -0.14900
C 	C 	0.91580 0.23690 0.00620 0.05400
H 	H 	0.91920 0.26850 0.99500 0.00000
C 	C 	0.87370 0.21130 0.98490 -0.15100
H 	H 	0.84940 0.22590 0.95980 0.06600
C 	C 	0.99890 0.24150 0.06450 0.33100
