data_crystal

_cell_length_a 34.18370
_cell_length_b 34.18370
_cell_length_c 34.18370
_cell_angle_alpha 90.00000
_cell_angle_beta  90.00000
_cell_angle_gamma 90.00000

_symmetry_space_group_name_	'P 1'
_symmetry_space_group_name_H-M	'P 1'

loop_
_symmetry_equiv_pos_as_xyz
  x,y,z

loop_
_atom_site_label
_atom_site_type_symbol
_atom_site_fract_x
_atom_site_fract_y
_atom_site_fract_z
_atom_site_charge
Nd	Nd	0.63051 0.54254 0.70156 2.42100
Nd	Nd	0.54760 0.61930 0.70766 2.20100
Ge	Ge	0.71648 0.59943 0.71519 1.30200
Ge	Ge	0.63904 0.63880 0.75445 1.30900
Ge	Ge	0.54117 0.52872 0.64982 1.31200
Ge	Ge	0.49561 0.60442 0.61853 1.36400
C 	C 	0.75200 0.56940 0.74790 -0.27900
C 	C 	0.73380 0.55440 0.78530 -0.12000
C 	C 	0.69280 0.53760 0.78120 0.52000
C 	C 	0.63630 0.62570 0.81010 -0.28100
C 	C 	0.60540 0.64800 0.82950 -0.05600
C 	C 	0.56840 0.64990 0.80670 0.38400
C 	C 	0.50970 0.49540 0.68250 -0.29300
C 	C 	0.52880 0.45590 0.69390 -0.12300
C 	C 	0.56530 0.46180 0.71630 0.47200
C 	C 	0.44040 0.60920 0.62530 -0.31900
C 	C 	0.42490 0.58390 0.65780 -0.04800
C 	C 	0.45000 0.58450 0.69390 0.37400
O 	O 	0.69010 0.63740 0.74010 -0.79700
O 	O 	0.56690 0.50410 0.61240 -0.79700
O 	O 	0.51220 0.55500 0.61430 -0.81600
O 	O 	0.74310 0.63810 0.69010 -0.78100
O 	O 	0.61900 0.61200 0.71500 -0.85200
O 	O 	0.68890 0.57510 0.67980 -0.91300
O 	O 	0.57060 0.56350 0.67250 -0.92500
O 	O 	0.64200 0.52790 0.63490 -0.94400
O 	O 	0.67050 0.55530 0.75780 -0.67300
O 	O 	0.68310 0.50930 0.80010 -0.62500
O 	O 	0.57340 0.64840 0.76880 -0.59400
O 	O 	0.53710 0.65420 0.82110 -0.30800
O 	O 	0.59130 0.48530 0.70290 -0.65400
O 	O 	0.57200 0.44150 0.74660 -0.61100
O 	O 	0.48690 0.58430 0.68950 -0.58100
O 	O 	0.43620 0.58410 0.72670 -0.29400
Nd	Nd	0.13051 0.04254 0.20156 2.42100
Nd	Nd	0.04760 0.11930 0.20766 2.20100
Ge	Ge	0.21648 0.09943 0.21519 1.30200
Ge	Ge	0.13904 0.13880 0.25445 1.30900
Ge	Ge	0.04117 0.02872 0.14982 1.31200
Ge	Ge	0.99561 0.10442 0.11853 1.36400
C 	C 	0.25200 0.06940 0.24790 -0.27900
C 	C 	0.23380 0.05440 0.28530 -0.12000
C 	C 	0.19280 0.03760 0.28120 0.52000
C 	C 	0.13630 0.12570 0.31010 -0.28100
C 	C 	0.10540 0.14800 0.32950 -0.05600
C 	C 	0.06840 0.14990 0.30670 0.38400
C 	C 	0.00970 0.99540 0.18250 -0.29300
C 	C 	0.02880 0.95590 0.19390 -0.12300
C 	C 	0.06530 0.96180 0.21630 0.47200
C 	C 	0.94040 0.10920 0.12530 -0.31900
C 	C 	0.92490 0.08390 0.15780 -0.04800
C 	C 	0.95000 0.08450 0.19390 0.37400
O 	O 	0.19010 0.13740 0.24010 -0.79700
O 	O 	0.06690 0.00410 0.11240 -0.79700
O 	O 	0.01220 0.05500 0.11430 -0.81600
O 	O 	0.24310 0.13810 0.19010 -0.78100
O 	O 	0.11900 0.11200 0.21500 -0.85200
O 	O 	0.18890 0.07510 0.17980 -0.91300
O 	O 	0.07060 0.06350 0.17250 -0.92500
O 	O 	0.14200 0.02790 0.13490 -0.94400
O 	O 	0.17050 0.05530 0.25780 -0.67300
O 	O 	0.18310 0.00930 0.30010 -0.62500
O 	O 	0.07340 0.14840 0.26880 -0.59400
O 	O 	0.03710 0.15420 0.32110 -0.30800
O 	O 	0.09130 0.98530 0.20290 -0.65400
O 	O 	0.07200 0.94150 0.24660 -0.61100
O 	O 	0.98690 0.08430 0.18950 -0.58100
O 	O 	0.93620 0.08410 0.22670 -0.29400
Nd	Nd	0.86949 0.45746 0.20156 2.42100
Nd	Nd	0.95240 0.38070 0.20766 2.20100
Ge	Ge	0.78352 0.40057 0.21519 1.30200
Ge	Ge	0.86096 0.36120 0.25445 1.30900
Ge	Ge	0.95883 0.47128 0.14982 1.31200
Ge	Ge	0.00439 0.39558 0.11853 1.36400
C 	C 	0.74800 0.43060 0.24790 -0.27900
C 	C 	0.76620 0.44560 0.28530 -0.12000
C 	C 	0.80720 0.46240 0.28120 0.52000
C 	C 	0.86370 0.37430 0.31010 -0.28100
C 	C 	0.89460 0.35200 0.32950 -0.05600
C 	C 	0.93160 0.35010 0.30670 0.38400
C 	C 	0.99030 0.50460 0.18250 -0.29300
C 	C 	0.97120 0.54410 0.19390 -0.12300
C 	C 	0.93470 0.53820 0.21630 0.47200
C 	C 	0.05960 0.39080 0.12530 -0.31900
C 	C 	0.07510 0.41610 0.15780 -0.04800
C 	C 	0.05000 0.41550 0.19390 0.37400
O 	O 	0.80990 0.36260 0.24010 -0.79700
O 	O 	0.93310 0.49590 0.11240 -0.79700
O 	O 	0.98780 0.44500 0.11430 -0.81600
O 	O 	0.75690 0.36190 0.19010 -0.78100
O 	O 	0.88100 0.38800 0.21500 -0.85200
O 	O 	0.81110 0.42490 0.17980 -0.91300
O 	O 	0.92940 0.43650 0.17250 -0.92500
O 	O 	0.85800 0.47210 0.13490 -0.94400
O 	O 	0.82950 0.44470 0.25780 -0.67400
O 	O 	0.81690 0.49070 0.30010 -0.62600
O 	O 	0.92660 0.35160 0.26880 -0.59500
O 	O 	0.96290 0.34580 0.32110 -0.30900
O 	O 	0.90870 0.51470 0.20290 -0.65500
O 	O 	0.92800 0.55850 0.24660 -0.61200
O 	O 	0.01310 0.41570 0.18950 -0.58200
O 	O 	0.06380 0.41590 0.22670 -0.29500
Nd	Nd	0.36949 0.95746 0.70156 2.42000
Nd	Nd	0.45240 0.88070 0.70766 2.20000
Ge	Ge	0.28352 0.90057 0.71519 1.30100
Ge	Ge	0.36096 0.86120 0.75445 1.30800
Ge	Ge	0.45883 0.97128 0.64982 1.31100
Ge	Ge	0.50439 0.89558 0.61853 1.36300
C 	C 	0.24800 0.93060 0.74790 -0.28000
C 	C 	0.26620 0.94560 0.78530 -0.12100
C 	C 	0.30720 0.96240 0.78120 0.51900
C 	C 	0.36370 0.87430 0.81010 -0.28200
C 	C 	0.39460 0.85200 0.82950 -0.05700
C 	C 	0.43160 0.85010 0.80670 0.38300
C 	C 	0.49030 0.00460 0.68250 -0.29400
C 	C 	0.47120 0.04410 0.69390 -0.12400
C 	C 	0.43470 0.03820 0.71630 0.47100
C 	C 	0.55960 0.89080 0.62530 -0.32000
C 	C 	0.57510 0.91610 0.65780 -0.04900
C 	C 	0.55000 0.91550 0.69390 0.37300
O 	O 	0.30990 0.86260 0.74010 -0.79800
O 	O 	0.43310 0.99590 0.61240 -0.79800
O 	O 	0.48780 0.94500 0.61430 -0.81700
O 	O 	0.25690 0.86190 0.69010 -0.78200
O 	O 	0.38100 0.88800 0.71500 -0.85300
O 	O 	0.31110 0.92490 0.67980 -0.91400
O 	O 	0.42940 0.93650 0.67250 -0.92600
O 	O 	0.35800 0.97210 0.63490 -0.94500
O 	O 	0.32950 0.94470 0.75780 -0.67400
O 	O 	0.31690 0.99070 0.80010 -0.62600
O 	O 	0.42660 0.85160 0.76880 -0.59500
O 	O 	0.46290 0.84580 0.82110 -0.30900
O 	O 	0.40870 0.01470 0.70290 -0.65500
O 	O 	0.42800 0.05850 0.74660 -0.61200
O 	O 	0.51310 0.91570 0.68950 -0.58200
O 	O 	0.56380 0.91590 0.72670 -0.29500
Nd	Nd	0.36949 0.04254 0.79844 2.42000
Nd	Nd	0.45240 0.11930 0.79234 2.20000
Ge	Ge	0.28352 0.09943 0.78481 1.30100
Ge	Ge	0.36096 0.13880 0.74555 1.30800
Ge	Ge	0.45883 0.02872 0.85018 1.31100
Ge	Ge	0.50439 0.10442 0.88147 1.36300
C 	C 	0.24800 0.06940 0.75210 -0.28000
C 	C 	0.26620 0.05440 0.71470 -0.12100
C 	C 	0.30720 0.03760 0.71880 0.51900
C 	C 	0.36370 0.12570 0.68990 -0.28200
C 	C 	0.39460 0.14800 0.67050 -0.05700
C 	C 	0.43160 0.14990 0.69330 0.38300
C 	C 	0.49030 0.99540 0.81750 -0.29400
C 	C 	0.47120 0.95590 0.80610 -0.12400
C 	C 	0.43470 0.96180 0.78370 0.47100
C 	C 	0.55960 0.10920 0.87470 -0.32000
C 	C 	0.57510 0.08390 0.84220 -0.04900
C 	C 	0.55000 0.08450 0.80610 0.37300
O 	O 	0.30990 0.13740 0.75990 -0.79800
O 	O 	0.43310 0.00410 0.88760 -0.79800
O 	O 	0.48780 0.05500 0.88570 -0.81700
O 	O 	0.25690 0.13810 0.80990 -0.78200
O 	O 	0.38100 0.11200 0.78500 -0.85300
O 	O 	0.31110 0.07510 0.82020 -0.91400
O 	O 	0.42940 0.06350 0.82750 -0.92600
O 	O 	0.35800 0.02790 0.86510 -0.94500
O 	O 	0.32950 0.05530 0.74220 -0.67400
O 	O 	0.31690 0.00930 0.69990 -0.62600
O 	O 	0.42660 0.14840 0.73120 -0.59500
O 	O 	0.46290 0.15420 0.67890 -0.30900
O 	O 	0.40870 0.98530 0.79710 -0.65500
O 	O 	0.42800 0.94150 0.75340 -0.61200
O 	O 	0.51310 0.08430 0.81050 -0.58200
O 	O 	0.56380 0.08410 0.77330 -0.29500
Nd	Nd	0.86949 0.54254 0.29844 2.42000
Nd	Nd	0.95240 0.61930 0.29234 2.20000
Ge	Ge	0.78352 0.59943 0.28481 1.30100
Ge	Ge	0.86096 0.63880 0.24555 1.30800
Ge	Ge	0.95883 0.52872 0.35018 1.31100
Ge	Ge	0.00439 0.60442 0.38147 1.36300
C 	C 	0.74800 0.56940 0.25210 -0.28000
C 	C 	0.76620 0.55440 0.21470 -0.12100
C 	C 	0.80720 0.53760 0.21880 0.51900
C 	C 	0.86370 0.62570 0.18990 -0.28200
C 	C 	0.89460 0.64800 0.17050 -0.05700
C 	C 	0.93160 0.64990 0.19330 0.38300
C 	C 	0.99030 0.49540 0.31750 -0.29400
C 	C 	0.97120 0.45590 0.30610 -0.12400
C 	C 	0.93470 0.46180 0.28370 0.47100
C 	C 	0.05960 0.60920 0.37470 -0.32000
C 	C 	0.07510 0.58390 0.34220 -0.04900
C 	C 	0.05000 0.58450 0.30610 0.37300
O 	O 	0.80990 0.63740 0.25990 -0.79800
O 	O 	0.93310 0.50410 0.38760 -0.79800
O 	O 	0.98780 0.55500 0.38570 -0.81700
O 	O 	0.75690 0.63810 0.30990 -0.78200
O 	O 	0.88100 0.61200 0.28500 -0.85300
O 	O 	0.81110 0.57510 0.32020 -0.91400
O 	O 	0.92940 0.56350 0.32750 -0.92600
O 	O 	0.85800 0.52790 0.36510 -0.94500
O 	O 	0.82950 0.55530 0.24220 -0.67400
O 	O 	0.81690 0.50930 0.19990 -0.62600
O 	O 	0.92660 0.64840 0.23120 -0.59500
O 	O 	0.96290 0.65420 0.17890 -0.30900
O 	O 	0.90870 0.48530 0.29710 -0.65500
O 	O 	0.92800 0.44150 0.25340 -0.61200
O 	O 	0.01310 0.58430 0.31050 -0.58200
O 	O 	0.06380 0.58410 0.27330 -0.29500
Nd	Nd	0.13051 0.95746 0.29844 2.42000
Nd	Nd	0.04760 0.88070 0.29234 2.20000
Ge	Ge	0.21648 0.90057 0.28481 1.30100
Ge	Ge	0.13904 0.86120 0.24555 1.30800
Ge	Ge	0.04117 0.97128 0.35018 1.31100
Ge	Ge	0.99561 0.89558 0.38147 1.36300
C 	C 	0.25200 0.93060 0.25210 -0.28000
C 	C 	0.23380 0.94560 0.21470 -0.12100
C 	C 	0.19280 0.96240 0.21880 0.51900
C 	C 	0.13630 0.87430 0.18990 -0.28200
C 	C 	0.10540 0.85200 0.17050 -0.05700
C 	C 	0.06840 0.85010 0.19330 0.38300
C 	C 	0.00970 0.00460 0.31750 -0.29400
C 	C 	0.02880 0.04410 0.30610 -0.12400
C 	C 	0.06530 0.03820 0.28370 0.47100
C 	C 	0.94040 0.89080 0.37470 -0.32000
C 	C 	0.92490 0.91610 0.34220 -0.04900
C 	C 	0.95000 0.91550 0.30610 0.37300
O 	O 	0.19010 0.86260 0.25990 -0.79800
O 	O 	0.06690 0.99590 0.38760 -0.79800
O 	O 	0.01220 0.94500 0.38570 -0.81700
O 	O 	0.24310 0.86190 0.30990 -0.78200
O 	O 	0.11900 0.88800 0.28500 -0.85300
O 	O 	0.18890 0.92490 0.32020 -0.91400
O 	O 	0.07060 0.93650 0.32750 -0.92600
O 	O 	0.14200 0.97210 0.36510 -0.94500
O 	O 	0.17050 0.94470 0.24220 -0.67400
O 	O 	0.18310 0.99070 0.19990 -0.62600
O 	O 	0.07340 0.85160 0.23120 -0.59500
O 	O 	0.03710 0.84580 0.17890 -0.30900
O 	O 	0.09130 0.01470 0.29710 -0.65500
O 	O 	0.07200 0.05850 0.25340 -0.61200
O 	O 	0.98690 0.91570 0.31050 -0.58200
O 	O 	0.93620 0.91590 0.27330 -0.29500
Nd	Nd	0.63051 0.45746 0.79844 2.42000
Nd	Nd	0.54760 0.38070 0.79234 2.20000
Ge	Ge	0.71648 0.40057 0.78481 1.30100
Ge	Ge	0.63904 0.36120 0.74555 1.30800
Ge	Ge	0.54117 0.47128 0.85018 1.31100
Ge	Ge	0.49561 0.39558 0.88147 1.36300
C 	C 	0.75200 0.43060 0.75210 -0.28000
C 	C 	0.73380 0.44560 0.71470 -0.12100
C 	C 	0.69280 0.46240 0.71880 0.51900
C 	C 	0.63630 0.37430 0.68990 -0.28200
C 	C 	0.60540 0.35200 0.67050 -0.05700
C 	C 	0.56840 0.35010 0.69330 0.38300
C 	C 	0.50970 0.50460 0.81750 -0.29400
C 	C 	0.52880 0.54410 0.80610 -0.12400
C 	C 	0.56530 0.53820 0.78370 0.47100
C 	C 	0.44040 0.39080 0.87470 -0.32000
C 	C 	0.42490 0.41610 0.84220 -0.04900
C 	C 	0.45000 0.41550 0.80610 0.37300
O 	O 	0.69010 0.36260 0.75990 -0.79800
O 	O 	0.56690 0.49590 0.88760 -0.79800
O 	O 	0.51220 0.44500 0.88570 -0.81700
O 	O 	0.74310 0.36190 0.80990 -0.78200
O 	O 	0.61900 0.38800 0.78500 -0.85300
O 	O 	0.68890 0.42490 0.82020 -0.91400
O 	O 	0.57060 0.43650 0.82750 -0.92600
O 	O 	0.64200 0.47210 0.86510 -0.94500
O 	O 	0.67050 0.44470 0.74220 -0.67400
O 	O 	0.68310 0.49070 0.69990 -0.62600
O 	O 	0.57340 0.35160 0.73120 -0.59500
O 	O 	0.53710 0.34580 0.67890 -0.30900
O 	O 	0.59130 0.51470 0.79710 -0.65500
O 	O 	0.57200 0.55850 0.75340 -0.61200
O 	O 	0.48690 0.41570 0.81050 -0.58200
O 	O 	0.43620 0.41590 0.77330 -0.29500
Nd	Nd	0.70156 0.63051 0.54254 2.42000
Nd	Nd	0.70766 0.54760 0.61930 2.20000
Ge	Ge	0.71519 0.71648 0.59943 1.30100
Ge	Ge	0.75445 0.63904 0.63880 1.30800
Ge	Ge	0.64982 0.54117 0.52872 1.31100
Ge	Ge	0.61853 0.49561 0.60442 1.36300
C 	C 	0.74790 0.75200 0.56940 -0.28000
C 	C 	0.78530 0.73380 0.55440 -0.12100
C 	C 	0.78120 0.69280 0.53760 0.51900
C 	C 	0.81010 0.63630 0.62570 -0.28200
C 	C 	0.82950 0.60540 0.64800 -0.05700
C 	C 	0.80670 0.56840 0.64990 0.38300
C 	C 	0.68250 0.50970 0.49540 -0.29400
C 	C 	0.69390 0.52880 0.45590 -0.12400
C 	C 	0.71630 0.56530 0.46180 0.47100
C 	C 	0.62530 0.44040 0.60920 -0.32000
C 	C 	0.65780 0.42490 0.58390 -0.04900
C 	C 	0.69390 0.45000 0.58450 0.37300
O 	O 	0.74010 0.69010 0.63740 -0.79800
O 	O 	0.61240 0.56690 0.50410 -0.79800
O 	O 	0.61430 0.51220 0.55500 -0.81700
O 	O 	0.69010 0.74310 0.63810 -0.78200
O 	O 	0.71500 0.61900 0.61200 -0.85300
O 	O 	0.67980 0.68890 0.57510 -0.91400
O 	O 	0.67250 0.57060 0.56350 -0.92600
O 	O 	0.63490 0.64200 0.52790 -0.94500
O 	O 	0.75780 0.67050 0.55530 -0.67400
O 	O 	0.80010 0.68310 0.50930 -0.62600
O 	O 	0.76880 0.57340 0.64840 -0.59500
O 	O 	0.82110 0.53710 0.65420 -0.30900
O 	O 	0.70290 0.59130 0.48530 -0.65500
O 	O 	0.74660 0.57200 0.44150 -0.61200
O 	O 	0.68950 0.48690 0.58430 -0.58200
O 	O 	0.72670 0.43620 0.58410 -0.29500
Nd	Nd	0.20156 0.13051 0.04254 2.42000
Nd	Nd	0.20766 0.04760 0.11930 2.20000
Ge	Ge	0.21519 0.21648 0.09943 1.30100
Ge	Ge	0.25445 0.13904 0.13880 1.30800
Ge	Ge	0.14982 0.04117 0.02872 1.31100
Ge	Ge	0.11853 0.99561 0.10442 1.36300
C 	C 	0.24790 0.25200 0.06940 -0.28000
C 	C 	0.28530 0.23380 0.05440 -0.12100
C 	C 	0.28120 0.19280 0.03760 0.51900
C 	C 	0.31010 0.13630 0.12570 -0.28200
C 	C 	0.32950 0.10540 0.14800 -0.05700
C 	C 	0.30670 0.06840 0.14990 0.38300
C 	C 	0.18250 0.00970 0.99540 -0.29400
C 	C 	0.19390 0.02880 0.95590 -0.12400
C 	C 	0.21630 0.06530 0.96180 0.47100
C 	C 	0.12530 0.94040 0.10920 -0.32000
C 	C 	0.15780 0.92490 0.08390 -0.04900
C 	C 	0.19390 0.95000 0.08450 0.37300
O 	O 	0.24010 0.19010 0.13740 -0.79800
O 	O 	0.11240 0.06690 0.00410 -0.79800
O 	O 	0.11430 0.01220 0.05500 -0.81700
O 	O 	0.19010 0.24310 0.13810 -0.78200
O 	O 	0.21500 0.11900 0.11200 -0.85300
O 	O 	0.17980 0.18890 0.07510 -0.91400
O 	O 	0.17250 0.07060 0.06350 -0.92600
O 	O 	0.13490 0.14200 0.02790 -0.94500
O 	O 	0.25780 0.17050 0.05530 -0.67400
O 	O 	0.30010 0.18310 0.00930 -0.62600
O 	O 	0.26880 0.07340 0.14840 -0.59500
O 	O 	0.32110 0.03710 0.15420 -0.30900
O 	O 	0.20290 0.09130 0.98530 -0.65500
O 	O 	0.24660 0.07200 0.94150 -0.61200
O 	O 	0.18950 0.98690 0.08430 -0.58200
O 	O 	0.22670 0.93620 0.08410 -0.29500
Nd	Nd	0.20156 0.86949 0.45746 2.42000
Nd	Nd	0.20766 0.95240 0.38070 2.20000
Ge	Ge	0.21519 0.78352 0.40057 1.30100
Ge	Ge	0.25445 0.86096 0.36120 1.30800
Ge	Ge	0.14982 0.95883 0.47128 1.31100
Ge	Ge	0.11853 0.00439 0.39558 1.36300
C 	C 	0.24790 0.74800 0.43060 -0.28000
C 	C 	0.28530 0.76620 0.44560 -0.12100
C 	C 	0.28120 0.80720 0.46240 0.51900
C 	C 	0.31010 0.86370 0.37430 -0.28200
C 	C 	0.32950 0.89460 0.35200 -0.05700
C 	C 	0.30670 0.93160 0.35010 0.38300
C 	C 	0.18250 0.99030 0.50460 -0.29400
C 	C 	0.19390 0.97120 0.54410 -0.12400
C 	C 	0.21630 0.93470 0.53820 0.47100
C 	C 	0.12530 0.05960 0.39080 -0.32000
C 	C 	0.15780 0.07510 0.41610 -0.04900
C 	C 	0.19390 0.05000 0.41550 0.37300
O 	O 	0.24010 0.80990 0.36260 -0.79800
O 	O 	0.11240 0.93310 0.49590 -0.79800
O 	O 	0.11430 0.98780 0.44500 -0.81700
O 	O 	0.19010 0.75690 0.36190 -0.78200
O 	O 	0.21500 0.88100 0.38800 -0.85300
O 	O 	0.17980 0.81110 0.42490 -0.91400
O 	O 	0.17250 0.92940 0.43650 -0.92600
O 	O 	0.13490 0.85800 0.47210 -0.94500
O 	O 	0.25780 0.82950 0.44470 -0.67400
O 	O 	0.30010 0.81690 0.49070 -0.62600
O 	O 	0.26880 0.92660 0.35160 -0.59500
O 	O 	0.32110 0.96290 0.34580 -0.30900
O 	O 	0.20290 0.90870 0.51470 -0.65500
O 	O 	0.24660 0.92800 0.55850 -0.61200
O 	O 	0.18950 0.01310 0.41570 -0.58200
O 	O 	0.22670 0.06380 0.41590 -0.29500
Nd	Nd	0.70156 0.36949 0.95746 2.42000
Nd	Nd	0.70766 0.45240 0.88070 2.20000
Ge	Ge	0.71519 0.28352 0.90057 1.30100
Ge	Ge	0.75445 0.36096 0.86120 1.30800
Ge	Ge	0.64982 0.45883 0.97128 1.31100
Ge	Ge	0.61853 0.50439 0.89558 1.36300
C 	C 	0.74790 0.24800 0.93060 -0.28000
C 	C 	0.78530 0.26620 0.94560 -0.12100
C 	C 	0.78120 0.30720 0.96240 0.51900
C 	C 	0.81010 0.36370 0.87430 -0.28200
C 	C 	0.82950 0.39460 0.85200 -0.05700
C 	C 	0.80670 0.43160 0.85010 0.38300
C 	C 	0.68250 0.49030 0.00460 -0.29400
C 	C 	0.69390 0.47120 0.04410 -0.12400
C 	C 	0.71630 0.43470 0.03820 0.47100
C 	C 	0.62530 0.55960 0.89080 -0.32000
C 	C 	0.65780 0.57510 0.91610 -0.04900
C 	C 	0.69390 0.55000 0.91550 0.37300
O 	O 	0.74010 0.30990 0.86260 -0.79800
O 	O 	0.61240 0.43310 0.99590 -0.79800
O 	O 	0.61430 0.48780 0.94500 -0.81700
O 	O 	0.69010 0.25690 0.86190 -0.78200
O 	O 	0.71500 0.38100 0.88800 -0.85300
O 	O 	0.67980 0.31110 0.92490 -0.91400
O 	O 	0.67250 0.42940 0.93650 -0.92600
O 	O 	0.63490 0.35800 0.97210 -0.94500
O 	O 	0.75780 0.32950 0.94470 -0.67400
O 	O 	0.80010 0.31690 0.99070 -0.62600
O 	O 	0.76880 0.42660 0.85160 -0.59500
O 	O 	0.82110 0.46290 0.84580 -0.30900
O 	O 	0.70290 0.40870 0.01470 -0.65500
O 	O 	0.74660 0.42800 0.05850 -0.61200
O 	O 	0.68950 0.51310 0.91570 -0.58200
O 	O 	0.72670 0.56380 0.91590 -0.29500
Nd	Nd	0.79844 0.36949 0.04254 2.42000
Nd	Nd	0.79234 0.45240 0.11930 2.20000
Ge	Ge	0.78481 0.28352 0.09943 1.30100
Ge	Ge	0.74555 0.36096 0.13880 1.30800
Ge	Ge	0.85018 0.45883 0.02872 1.31100
Ge	Ge	0.88147 0.50439 0.10442 1.36300
C 	C 	0.75210 0.24800 0.06940 -0.28000
C 	C 	0.71470 0.26620 0.05440 -0.12100
C 	C 	0.71880 0.30720 0.03760 0.51900
C 	C 	0.68990 0.36370 0.12570 -0.28200
C 	C 	0.67050 0.39460 0.14800 -0.05700
C 	C 	0.69330 0.43160 0.14990 0.38300
C 	C 	0.81750 0.49030 0.99540 -0.29400
C 	C 	0.80610 0.47120 0.95590 -0.12400
C 	C 	0.78370 0.43470 0.96180 0.47100
C 	C 	0.87470 0.55960 0.10920 -0.32000
C 	C 	0.84220 0.57510 0.08390 -0.04900
C 	C 	0.80610 0.55000 0.08450 0.37300
O 	O 	0.75990 0.30990 0.13740 -0.79800
O 	O 	0.88760 0.43310 0.00410 -0.79800
O 	O 	0.88570 0.48780 0.05500 -0.81700
O 	O 	0.80990 0.25690 0.13810 -0.78200
O 	O 	0.78500 0.38100 0.11200 -0.85300
O 	O 	0.82020 0.31110 0.07510 -0.91400
O 	O 	0.82750 0.42940 0.06350 -0.92600
O 	O 	0.86510 0.35800 0.02790 -0.94500
O 	O 	0.74220 0.32950 0.05530 -0.67400
O 	O 	0.69990 0.31690 0.00930 -0.62600
O 	O 	0.73120 0.42660 0.14840 -0.59500
O 	O 	0.67890 0.46290 0.15420 -0.30900
O 	O 	0.79710 0.40870 0.98530 -0.65500
O 	O 	0.75340 0.42800 0.94150 -0.61200
O 	O 	0.81050 0.51310 0.08430 -0.58200
O 	O 	0.77330 0.56380 0.08410 -0.29500
Nd	Nd	0.29844 0.86949 0.54254 2.42000
Nd	Nd	0.29234 0.95240 0.61930 2.20000
Ge	Ge	0.28481 0.78352 0.59943 1.30100
Ge	Ge	0.24555 0.86096 0.63880 1.30800
Ge	Ge	0.35018 0.95883 0.52872 1.31100
Ge	Ge	0.38147 0.00439 0.60442 1.36300
C 	C 	0.25210 0.74800 0.56940 -0.28000
C 	C 	0.21470 0.76620 0.55440 -0.12100
C 	C 	0.21880 0.80720 0.53760 0.51900
C 	C 	0.18990 0.86370 0.62570 -0.28200
C 	C 	0.17050 0.89460 0.64800 -0.05700
C 	C 	0.19330 0.93160 0.64990 0.38300
C 	C 	0.31750 0.99030 0.49540 -0.29400
C 	C 	0.30610 0.97120 0.45590 -0.12400
C 	C 	0.28370 0.93470 0.46180 0.47100
C 	C 	0.37470 0.05960 0.60920 -0.32000
C 	C 	0.34220 0.07510 0.58390 -0.04900
C 	C 	0.30610 0.05000 0.58450 0.37300
O 	O 	0.25990 0.80990 0.63740 -0.79800
O 	O 	0.38760 0.93310 0.50410 -0.79800
O 	O 	0.38570 0.98780 0.55500 -0.81700
O 	O 	0.30990 0.75690 0.63810 -0.78200
O 	O 	0.28500 0.88100 0.61200 -0.85300
O 	O 	0.32020 0.81110 0.57510 -0.91400
O 	O 	0.32750 0.92940 0.56350 -0.92600
O 	O 	0.36510 0.85800 0.52790 -0.94500
O 	O 	0.24220 0.82950 0.55530 -0.67400
O 	O 	0.19990 0.81690 0.50930 -0.62600
O 	O 	0.23120 0.92660 0.64840 -0.59500
O 	O 	0.17890 0.96290 0.65420 -0.30900
O 	O 	0.29710 0.90870 0.48530 -0.65500
O 	O 	0.25340 0.92800 0.44150 -0.61200
O 	O 	0.31050 0.01310 0.58430 -0.58200
O 	O 	0.27330 0.06380 0.58410 -0.29500
Nd	Nd	0.29844 0.13051 0.95746 2.42000
Nd	Nd	0.29234 0.04760 0.88070 2.20000
Ge	Ge	0.28481 0.21648 0.90057 1.30100
Ge	Ge	0.24555 0.13904 0.86120 1.30800
Ge	Ge	0.35018 0.04117 0.97128 1.31100
Ge	Ge	0.38147 0.99561 0.89558 1.36300
C 	C 	0.25210 0.25200 0.93060 -0.28000
C 	C 	0.21470 0.23380 0.94560 -0.12100
C 	C 	0.21880 0.19280 0.96240 0.51900
C 	C 	0.18990 0.13630 0.87430 -0.28200
C 	C 	0.17050 0.10540 0.85200 -0.05700
C 	C 	0.19330 0.06840 0.85010 0.38300
C 	C 	0.31750 0.00970 0.00460 -0.29400
C 	C 	0.30610 0.02880 0.04410 -0.12400
C 	C 	0.28370 0.06530 0.03820 0.47100
C 	C 	0.37470 0.94040 0.89080 -0.32000
C 	C 	0.34220 0.92490 0.91610 -0.04900
C 	C 	0.30610 0.95000 0.91550 0.37300
O 	O 	0.25990 0.19010 0.86260 -0.79800
O 	O 	0.38760 0.06690 0.99590 -0.79800
O 	O 	0.38570 0.01220 0.94500 -0.81700
O 	O 	0.30990 0.24310 0.86190 -0.78200
O 	O 	0.28500 0.11900 0.88800 -0.85300
O 	O 	0.32020 0.18890 0.92490 -0.91400
O 	O 	0.32750 0.07060 0.93650 -0.92600
O 	O 	0.36510 0.14200 0.97210 -0.94500
O 	O 	0.24220 0.17050 0.94470 -0.67400
O 	O 	0.19990 0.18310 0.99070 -0.62600
O 	O 	0.23120 0.07340 0.85160 -0.59500
O 	O 	0.17890 0.03710 0.84580 -0.30900
O 	O 	0.29710 0.09130 0.01470 -0.65500
O 	O 	0.25340 0.07200 0.05850 -0.61200
O 	O 	0.31050 0.98690 0.91570 -0.58200
O 	O 	0.27330 0.93620 0.91590 -0.29500
Nd	Nd	0.79844 0.63051 0.45746 2.42000
Nd	Nd	0.79234 0.54760 0.38070 2.20000
Ge	Ge	0.78481 0.71648 0.40057 1.30100
Ge	Ge	0.74555 0.63904 0.36120 1.30800
Ge	Ge	0.85018 0.54117 0.47128 1.31100
Ge	Ge	0.88147 0.49561 0.39558 1.36300
C 	C 	0.75210 0.75200 0.43060 -0.28000
C 	C 	0.71470 0.73380 0.44560 -0.12100
C 	C 	0.71880 0.69280 0.46240 0.51900
C 	C 	0.68990 0.63630 0.37430 -0.28200
C 	C 	0.67050 0.60540 0.35200 -0.05700
C 	C 	0.69330 0.56840 0.35010 0.38300
C 	C 	0.81750 0.50970 0.50460 -0.29400
C 	C 	0.80610 0.52880 0.54410 -0.12400
C 	C 	0.78370 0.56530 0.53820 0.47100
C 	C 	0.87470 0.44040 0.39080 -0.32000
C 	C 	0.84220 0.42490 0.41610 -0.04900
C 	C 	0.80610 0.45000 0.41550 0.37300
O 	O 	0.75990 0.69010 0.36260 -0.79800
O 	O 	0.88760 0.56690 0.49590 -0.79800
O 	O 	0.88570 0.51220 0.44500 -0.81700
O 	O 	0.80990 0.74310 0.36190 -0.78200
O 	O 	0.78500 0.61900 0.38800 -0.85300
O 	O 	0.82020 0.68890 0.42490 -0.91400
O 	O 	0.82750 0.57060 0.43650 -0.92600
O 	O 	0.86510 0.64200 0.47210 -0.94500
O 	O 	0.74220 0.67050 0.44470 -0.67400
O 	O 	0.69990 0.68310 0.49070 -0.62600
O 	O 	0.73120 0.57340 0.35160 -0.59500
O 	O 	0.67890 0.53710 0.34580 -0.30900
O 	O 	0.79710 0.59130 0.51470 -0.65500
O 	O 	0.75340 0.57200 0.55850 -0.61200
O 	O 	0.81050 0.48690 0.41570 -0.58200
O 	O 	0.77330 0.43620 0.41590 -0.29500
Nd	Nd	0.54254 0.70156 0.63051 2.42000
Nd	Nd	0.61930 0.70766 0.54760 2.20000
Ge	Ge	0.59943 0.71519 0.71648 1.30100
Ge	Ge	0.63880 0.75445 0.63904 1.30800
Ge	Ge	0.52872 0.64982 0.54117 1.31100
Ge	Ge	0.60442 0.61853 0.49561 1.36300
C 	C 	0.56940 0.74790 0.75200 -0.28000
C 	C 	0.55440 0.78530 0.73380 -0.12100
C 	C 	0.53760 0.78120 0.69280 0.51900
C 	C 	0.62570 0.81010 0.63630 -0.28200
C 	C 	0.64800 0.82950 0.60540 -0.05700
C 	C 	0.64990 0.80670 0.56840 0.38300
C 	C 	0.49540 0.68250 0.50970 -0.29400
C 	C 	0.45590 0.69390 0.52880 -0.12400
C 	C 	0.46180 0.71630 0.56530 0.47100
C 	C 	0.60920 0.62530 0.44040 -0.32000
C 	C 	0.58390 0.65780 0.42490 -0.04900
C 	C 	0.58450 0.69390 0.45000 0.37300
O 	O 	0.63740 0.74010 0.69010 -0.79800
O 	O 	0.50410 0.61240 0.56690 -0.79800
O 	O 	0.55500 0.61430 0.51220 -0.81700
O 	O 	0.63810 0.69010 0.74310 -0.78200
O 	O 	0.61200 0.71500 0.61900 -0.85300
O 	O 	0.57510 0.67980 0.68890 -0.91400
O 	O 	0.56350 0.67250 0.57060 -0.92600
O 	O 	0.52790 0.63490 0.64200 -0.94500
O 	O 	0.55530 0.75780 0.67050 -0.67400
O 	O 	0.50930 0.80010 0.68310 -0.62600
O 	O 	0.64840 0.76880 0.57340 -0.59500
O 	O 	0.65420 0.82110 0.53710 -0.30900
O 	O 	0.48530 0.70290 0.59130 -0.65500
O 	O 	0.44150 0.74660 0.57200 -0.61200
O 	O 	0.58430 0.68950 0.48690 -0.58200
O 	O 	0.58410 0.72670 0.43620 -0.29500
Nd	Nd	0.04254 0.20156 0.13051 2.42000
Nd	Nd	0.11930 0.20766 0.04760 2.20000
Ge	Ge	0.09943 0.21519 0.21648 1.30100
Ge	Ge	0.13880 0.25445 0.13904 1.30800
Ge	Ge	0.02872 0.14982 0.04117 1.31100
Ge	Ge	0.10442 0.11853 0.99561 1.36300
C 	C 	0.06940 0.24790 0.25200 -0.28000
C 	C 	0.05440 0.28530 0.23380 -0.12100
C 	C 	0.03760 0.28120 0.19280 0.51900
C 	C 	0.12570 0.31010 0.13630 -0.28200
C 	C 	0.14800 0.32950 0.10540 -0.05700
C 	C 	0.14990 0.30670 0.06840 0.38300
C 	C 	0.99540 0.18250 0.00970 -0.29400
C 	C 	0.95590 0.19390 0.02880 -0.12400
C 	C 	0.96180 0.21630 0.06530 0.47100
C 	C 	0.10920 0.12530 0.94040 -0.32000
C 	C 	0.08390 0.15780 0.92490 -0.04900
C 	C 	0.08450 0.19390 0.95000 0.37300
O 	O 	0.13740 0.24010 0.19010 -0.79800
O 	O 	0.00410 0.11240 0.06690 -0.79800
O 	O 	0.05500 0.11430 0.01220 -0.81700
O 	O 	0.13810 0.19010 0.24310 -0.78200
O 	O 	0.11200 0.21500 0.11900 -0.85300
O 	O 	0.07510 0.17980 0.18890 -0.91400
O 	O 	0.06350 0.17250 0.07060 -0.92600
O 	O 	0.02790 0.13490 0.14200 -0.94500
O 	O 	0.05530 0.25780 0.17050 -0.67400
O 	O 	0.00930 0.30010 0.18310 -0.62600
O 	O 	0.14840 0.26880 0.07340 -0.59500
O 	O 	0.15420 0.32110 0.03710 -0.30900
O 	O 	0.98530 0.20290 0.09130 -0.65500
O 	O 	0.94150 0.24660 0.07200 -0.61200
O 	O 	0.08430 0.18950 0.98690 -0.58200
O 	O 	0.08410 0.22670 0.93620 -0.29500
Nd	Nd	0.45746 0.20156 0.86949 2.42000
Nd	Nd	0.38070 0.20766 0.95240 2.20000
Ge	Ge	0.40057 0.21519 0.78352 1.30100
Ge	Ge	0.36120 0.25445 0.86096 1.30800
Ge	Ge	0.47128 0.14982 0.95883 1.31100
Ge	Ge	0.39558 0.11853 0.00439 1.36300
C 	C 	0.43060 0.24790 0.74800 -0.28000
C 	C 	0.44560 0.28530 0.76620 -0.12100
C 	C 	0.46240 0.28120 0.80720 0.51900
C 	C 	0.37430 0.31010 0.86370 -0.28200
C 	C 	0.35200 0.32950 0.89460 -0.05700
C 	C 	0.35010 0.30670 0.93160 0.38300
C 	C 	0.50460 0.18250 0.99030 -0.29400
C 	C 	0.54410 0.19390 0.97120 -0.12400
C 	C 	0.53820 0.21630 0.93470 0.47100
C 	C 	0.39080 0.12530 0.05960 -0.32000
C 	C 	0.41610 0.15780 0.07510 -0.04900
C 	C 	0.41550 0.19390 0.05000 0.37300
O 	O 	0.36260 0.24010 0.80990 -0.79800
O 	O 	0.49590 0.11240 0.93310 -0.79800
O 	O 	0.44500 0.11430 0.98780 -0.81700
O 	O 	0.36190 0.19010 0.75690 -0.78200
O 	O 	0.38800 0.21500 0.88100 -0.85300
O 	O 	0.42490 0.17980 0.81110 -0.91400
O 	O 	0.43650 0.17250 0.92940 -0.92600
O 	O 	0.47210 0.13490 0.85800 -0.94500
O 	O 	0.44470 0.25780 0.82950 -0.67400
O 	O 	0.49070 0.30010 0.81690 -0.62600
O 	O 	0.35160 0.26880 0.92660 -0.59500
O 	O 	0.34580 0.32110 0.96290 -0.30900
O 	O 	0.51470 0.20290 0.90870 -0.65500
O 	O 	0.55850 0.24660 0.92800 -0.61200
O 	O 	0.41570 0.18950 0.01310 -0.58200
O 	O 	0.41590 0.22670 0.06380 -0.29500
Nd	Nd	0.95746 0.70156 0.36949 2.42000
Nd	Nd	0.88070 0.70766 0.45240 2.20000
Ge	Ge	0.90057 0.71519 0.28352 1.30100
Ge	Ge	0.86120 0.75445 0.36096 1.30800
Ge	Ge	0.97128 0.64982 0.45883 1.31100
Ge	Ge	0.89558 0.61853 0.50439 1.36300
C 	C 	0.93060 0.74790 0.24800 -0.28000
C 	C 	0.94560 0.78530 0.26620 -0.12100
C 	C 	0.96240 0.78120 0.30720 0.51900
C 	C 	0.87430 0.81010 0.36370 -0.28200
C 	C 	0.85200 0.82950 0.39460 -0.05700
C 	C 	0.85010 0.80670 0.43160 0.38300
C 	C 	0.00460 0.68250 0.49030 -0.29400
C 	C 	0.04410 0.69390 0.47120 -0.12400
C 	C 	0.03820 0.71630 0.43470 0.47100
C 	C 	0.89080 0.62530 0.55960 -0.32000
C 	C 	0.91610 0.65780 0.57510 -0.04900
C 	C 	0.91550 0.69390 0.55000 0.37300
O 	O 	0.86260 0.74010 0.30990 -0.79800
O 	O 	0.99590 0.61240 0.43310 -0.79800
O 	O 	0.94500 0.61430 0.48780 -0.81700
O 	O 	0.86190 0.69010 0.25690 -0.78200
O 	O 	0.88800 0.71500 0.38100 -0.85300
O 	O 	0.92490 0.67980 0.31110 -0.91400
O 	O 	0.93650 0.67250 0.42940 -0.92600
O 	O 	0.97210 0.63490 0.35800 -0.94500
O 	O 	0.94470 0.75780 0.32950 -0.67400
O 	O 	0.99070 0.80010 0.31690 -0.62600
O 	O 	0.85160 0.76880 0.42660 -0.59500
O 	O 	0.84580 0.82110 0.46290 -0.30900
O 	O 	0.01470 0.70290 0.40870 -0.65500
O 	O 	0.05850 0.74660 0.42800 -0.61200
O 	O 	0.91570 0.68950 0.51310 -0.58200
O 	O 	0.91590 0.72670 0.56380 -0.29500
Nd	Nd	0.04254 0.79844 0.36949 2.42000
Nd	Nd	0.11930 0.79234 0.45240 2.20000
Ge	Ge	0.09943 0.78481 0.28352 1.30100
Ge	Ge	0.13880 0.74555 0.36096 1.30800
Ge	Ge	0.02872 0.85018 0.45883 1.31100
Ge	Ge	0.10442 0.88147 0.50439 1.36300
C 	C 	0.06940 0.75210 0.24800 -0.28000
C 	C 	0.05440 0.71470 0.26620 -0.12100
C 	C 	0.03760 0.71880 0.30720 0.51900
C 	C 	0.12570 0.68990 0.36370 -0.28200
C 	C 	0.14800 0.67050 0.39460 -0.05700
C 	C 	0.14990 0.69330 0.43160 0.38300
C 	C 	0.99540 0.81750 0.49030 -0.29400
C 	C 	0.95590 0.80610 0.47120 -0.12400
C 	C 	0.96180 0.78370 0.43470 0.47100
C 	C 	0.10920 0.87470 0.55960 -0.32000
C 	C 	0.08390 0.84220 0.57510 -0.04900
C 	C 	0.08450 0.80610 0.55000 0.37300
O 	O 	0.13740 0.75990 0.30990 -0.79800
O 	O 	0.00410 0.88760 0.43310 -0.79800
O 	O 	0.05500 0.88570 0.48780 -0.81700
O 	O 	0.13810 0.80990 0.25690 -0.78200
O 	O 	0.11200 0.78500 0.38100 -0.85300
O 	O 	0.07510 0.82020 0.31110 -0.91400
O 	O 	0.06350 0.82750 0.42940 -0.92600
O 	O 	0.02790 0.86510 0.35800 -0.94500
O 	O 	0.05530 0.74220 0.32950 -0.67400
O 	O 	0.00930 0.69990 0.31690 -0.62600
O 	O 	0.14840 0.73120 0.42660 -0.59500
O 	O 	0.15420 0.67890 0.46290 -0.30900
O 	O 	0.98530 0.79710 0.40870 -0.65500
O 	O 	0.94150 0.75340 0.42800 -0.61200
O 	O 	0.08430 0.81050 0.51310 -0.58200
O 	O 	0.08410 0.77330 0.56380 -0.29500
Nd	Nd	0.54254 0.29844 0.86949 2.42000
Nd	Nd	0.61930 0.29234 0.95240 2.20000
Ge	Ge	0.59943 0.28481 0.78352 1.30100
Ge	Ge	0.63880 0.24555 0.86096 1.30800
Ge	Ge	0.52872 0.35018 0.95883 1.31100
Ge	Ge	0.60442 0.38147 0.00439 1.36300
C 	C 	0.56940 0.25210 0.74800 -0.28000
C 	C 	0.55440 0.21470 0.76620 -0.12100
C 	C 	0.53760 0.21880 0.80720 0.51900
C 	C 	0.62570 0.18990 0.86370 -0.28200
C 	C 	0.64800 0.17050 0.89460 -0.05700
C 	C 	0.64990 0.19330 0.93160 0.38300
C 	C 	0.49540 0.31750 0.99030 -0.29400
C 	C 	0.45590 0.30610 0.97120 -0.12400
C 	C 	0.46180 0.28370 0.93470 0.47100
C 	C 	0.60920 0.37470 0.05960 -0.32000
C 	C 	0.58390 0.34220 0.07510 -0.04900
C 	C 	0.58450 0.30610 0.05000 0.37300
O 	O 	0.63740 0.25990 0.80990 -0.79800
O 	O 	0.50410 0.38760 0.93310 -0.79800
O 	O 	0.55500 0.38570 0.98780 -0.81700
O 	O 	0.63810 0.30990 0.75690 -0.78200
O 	O 	0.61200 0.28500 0.88100 -0.85300
O 	O 	0.57510 0.32020 0.81110 -0.91400
O 	O 	0.56350 0.32750 0.92940 -0.92600
O 	O 	0.52790 0.36510 0.85800 -0.94500
O 	O 	0.55530 0.24220 0.82950 -0.67400
O 	O 	0.50930 0.19990 0.81690 -0.62600
O 	O 	0.64840 0.23120 0.92660 -0.59500
O 	O 	0.65420 0.17890 0.96290 -0.30900
O 	O 	0.48530 0.29710 0.90870 -0.65500
O 	O 	0.44150 0.25340 0.92800 -0.61200
O 	O 	0.58430 0.31050 0.01310 -0.58200
O 	O 	0.58410 0.27330 0.06380 -0.29500
Nd	Nd	0.95746 0.29844 0.13051 2.42000
Nd	Nd	0.88070 0.29234 0.04760 2.20000
Ge	Ge	0.90057 0.28481 0.21648 1.30100
Ge	Ge	0.86120 0.24555 0.13904 1.30800
Ge	Ge	0.97128 0.35018 0.04117 1.31100
Ge	Ge	0.89558 0.38147 0.99561 1.36300
C 	C 	0.93060 0.25210 0.25200 -0.28000
C 	C 	0.94560 0.21470 0.23380 -0.12100
C 	C 	0.96240 0.21880 0.19280 0.51900
C 	C 	0.87430 0.18990 0.13630 -0.28200
C 	C 	0.85200 0.17050 0.10540 -0.05700
C 	C 	0.85010 0.19330 0.06840 0.38300
C 	C 	0.00460 0.31750 0.00970 -0.29400
C 	C 	0.04410 0.30610 0.02880 -0.12400
C 	C 	0.03820 0.28370 0.06530 0.47100
C 	C 	0.89080 0.37470 0.94040 -0.32000
C 	C 	0.91610 0.34220 0.92490 -0.04900
C 	C 	0.91550 0.30610 0.95000 0.37300
O 	O 	0.86260 0.25990 0.19010 -0.79800
O 	O 	0.99590 0.38760 0.06690 -0.79800
O 	O 	0.94500 0.38570 0.01220 -0.81700
O 	O 	0.86190 0.30990 0.24310 -0.78200
O 	O 	0.88800 0.28500 0.11900 -0.85300
O 	O 	0.92490 0.32020 0.18890 -0.91400
O 	O 	0.93650 0.32750 0.07060 -0.92600
O 	O 	0.97210 0.36510 0.14200 -0.94500
O 	O 	0.94470 0.24220 0.17050 -0.67400
O 	O 	0.99070 0.19990 0.18310 -0.62600
O 	O 	0.85160 0.23120 0.07340 -0.59500
O 	O 	0.84580 0.17890 0.03710 -0.30900
O 	O 	0.01470 0.29710 0.09130 -0.65500
O 	O 	0.05850 0.25340 0.07200 -0.61200
O 	O 	0.91570 0.31050 0.98690 -0.58200
O 	O 	0.91590 0.27330 0.93620 -0.29500
Nd	Nd	0.45746 0.79844 0.63051 2.42000
Nd	Nd	0.38070 0.79234 0.54760 2.20000
Ge	Ge	0.40057 0.78481 0.71648 1.30100
Ge	Ge	0.36120 0.74555 0.63904 1.30800
Ge	Ge	0.47128 0.85018 0.54117 1.31100
Ge	Ge	0.39558 0.88147 0.49561 1.36300
C 	C 	0.43060 0.75210 0.75200 -0.28000
C 	C 	0.44560 0.71470 0.73380 -0.12100
C 	C 	0.46240 0.71880 0.69280 0.51900
C 	C 	0.37430 0.68990 0.63630 -0.28200
C 	C 	0.35200 0.67050 0.60540 -0.05700
C 	C 	0.35010 0.69330 0.56840 0.38300
C 	C 	0.50460 0.81750 0.50970 -0.29400
C 	C 	0.54410 0.80610 0.52880 -0.12400
C 	C 	0.53820 0.78370 0.56530 0.47100
C 	C 	0.39080 0.87470 0.44040 -0.32000
C 	C 	0.41610 0.84220 0.42490 -0.04900
C 	C 	0.41550 0.80610 0.45000 0.37300
O 	O 	0.36260 0.75990 0.69010 -0.79800
O 	O 	0.49590 0.88760 0.56690 -0.79800
O 	O 	0.44500 0.88570 0.51220 -0.81700
O 	O 	0.36190 0.80990 0.74310 -0.78200
O 	O 	0.38800 0.78500 0.61900 -0.85300
O 	O 	0.42490 0.82020 0.68890 -0.91400
O 	O 	0.43650 0.82750 0.57060 -0.92600
O 	O 	0.47210 0.86510 0.64200 -0.94500
O 	O 	0.44470 0.74220 0.67050 -0.67400
O 	O 	0.49070 0.69990 0.68310 -0.62600
O 	O 	0.35160 0.73120 0.57340 -0.59500
O 	O 	0.34580 0.67890 0.53710 -0.30900
O 	O 	0.51470 0.79710 0.59130 -0.65500
O 	O 	0.55850 0.75340 0.57200 -0.61200
O 	O 	0.41570 0.81050 0.48690 -0.58200
O 	O 	0.41590 0.77330 0.43620 -0.29500
Nd	Nd	0.69885 0.69885 0.69885 1.64500
Nd	Nd	0.54988 0.54988 0.54988 1.52700
Nd	Nd	0.19885 0.19885 0.19885 1.64500
Nd	Nd	0.04988 0.04988 0.04988 1.52600
Nd	Nd	0.80115 0.30115 0.19885 1.64500
Nd	Nd	0.95012 0.45012 0.04988 1.52600
Nd	Nd	0.30115 0.80115 0.69885 1.64500
Nd	Nd	0.45012 0.95012 0.54988 1.52600
Nd	Nd	0.30115 0.19885 0.80115 1.64500
Nd	Nd	0.45012 0.04988 0.95012 1.52600
Nd	Nd	0.80115 0.69885 0.30115 1.64500
Nd	Nd	0.95012 0.54988 0.45012 1.52600
Nd	Nd	0.19885 0.80115 0.30115 1.64500
Nd	Nd	0.04988 0.95012 0.45012 1.52600
Nd	Nd	0.69885 0.30115 0.80115 1.64500
Nd	Nd	0.54988 0.45012 0.95012 1.52600
Nd	Nd	0.36949 0.45746 0.29844 2.42000
Nd	Nd	0.45240 0.38070 0.29234 2.20000
Ge	Ge	0.28352 0.40057 0.28481 1.30100
Ge	Ge	0.36096 0.36120 0.24555 1.30800
Ge	Ge	0.45883 0.47128 0.35018 1.31100
Ge	Ge	0.50439 0.39558 0.38147 1.36300
C 	C 	0.24800 0.43060 0.25210 -0.28000
C 	C 	0.26620 0.44560 0.21470 -0.12100
C 	C 	0.30720 0.46240 0.21880 0.51900
C 	C 	0.36370 0.37430 0.18990 -0.28200
C 	C 	0.39460 0.35200 0.17050 -0.05700
C 	C 	0.43160 0.35010 0.19330 0.38300
C 	C 	0.49030 0.50460 0.31750 -0.29400
C 	C 	0.47120 0.54410 0.30610 -0.12400
C 	C 	0.43470 0.53820 0.28370 0.47100
C 	C 	0.55960 0.39080 0.37470 -0.32000
C 	C 	0.57510 0.41610 0.34220 -0.04900
C 	C 	0.55000 0.41550 0.30610 0.37300
O 	O 	0.30990 0.36260 0.25990 -0.79800
O 	O 	0.43310 0.49590 0.38760 -0.79800
O 	O 	0.48780 0.44500 0.38570 -0.81700
O 	O 	0.25690 0.36190 0.30990 -0.78200
O 	O 	0.38100 0.38800 0.28500 -0.85300
O 	O 	0.31110 0.42490 0.32020 -0.91400
O 	O 	0.42940 0.43650 0.32750 -0.92600
O 	O 	0.35800 0.47210 0.36510 -0.94500
O 	O 	0.32950 0.44470 0.24220 -0.67400
O 	O 	0.31690 0.49070 0.19990 -0.62600
O 	O 	0.42660 0.35160 0.23120 -0.59500
O 	O 	0.46290 0.34580 0.17890 -0.30900
O 	O 	0.40870 0.51470 0.29710 -0.65500
O 	O 	0.42800 0.55850 0.25340 -0.61200
O 	O 	0.51310 0.41570 0.31050 -0.58200
O 	O 	0.56380 0.41590 0.27330 -0.29500
Nd	Nd	0.86949 0.95746 0.79844 2.42000
Nd	Nd	0.95240 0.88070 0.79234 2.20000
Ge	Ge	0.78352 0.90057 0.78481 1.30100
Ge	Ge	0.86096 0.86120 0.74555 1.30800
Ge	Ge	0.95883 0.97128 0.85018 1.31100
Ge	Ge	0.00439 0.89558 0.88147 1.36300
C 	C 	0.74800 0.93060 0.75210 -0.28000
C 	C 	0.76620 0.94560 0.71470 -0.12100
C 	C 	0.80720 0.96240 0.71880 0.51900
C 	C 	0.86370 0.87430 0.68990 -0.28200
C 	C 	0.89460 0.85200 0.67050 -0.05700
C 	C 	0.93160 0.85010 0.69330 0.38300
C 	C 	0.99030 0.00460 0.81750 -0.29400
C 	C 	0.97120 0.04410 0.80610 -0.12400
C 	C 	0.93470 0.03820 0.78370 0.47100
C 	C 	0.05960 0.89080 0.87470 -0.32000
C 	C 	0.07510 0.91610 0.84220 -0.04900
C 	C 	0.05000 0.91550 0.80610 0.37300
O 	O 	0.80990 0.86260 0.75990 -0.79800
O 	O 	0.93310 0.99590 0.88760 -0.79800
O 	O 	0.98780 0.94500 0.88570 -0.81700
O 	O 	0.75690 0.86190 0.80990 -0.78200
O 	O 	0.88100 0.88800 0.78500 -0.85300
O 	O 	0.81110 0.92490 0.82020 -0.91400
O 	O 	0.92940 0.93650 0.82750 -0.92600
O 	O 	0.85800 0.97210 0.86510 -0.94500
O 	O 	0.82950 0.94470 0.74220 -0.67400
O 	O 	0.81690 0.99070 0.69990 -0.62600
O 	O 	0.92660 0.85160 0.73120 -0.59500
O 	O 	0.96290 0.84580 0.67890 -0.30900
O 	O 	0.90870 0.01470 0.79710 -0.65500
O 	O 	0.92800 0.05850 0.75340 -0.61200
O 	O 	0.01310 0.91570 0.81050 -0.58200
O 	O 	0.06380 0.91590 0.77330 -0.29500
Nd	Nd	0.13051 0.54254 0.79844 2.42000
Nd	Nd	0.04760 0.61930 0.79234 2.20000
Ge	Ge	0.21648 0.59943 0.78481 1.30100
Ge	Ge	0.13904 0.63880 0.74555 1.30800
Ge	Ge	0.04117 0.52872 0.85018 1.31100
Ge	Ge	0.99561 0.60442 0.88147 1.36300
C 	C 	0.25200 0.56940 0.75210 -0.28000
C 	C 	0.23380 0.55440 0.71470 -0.12100
C 	C 	0.19280 0.53760 0.71880 0.51900
C 	C 	0.13630 0.62570 0.68990 -0.28200
C 	C 	0.10540 0.64800 0.67050 -0.05700
C 	C 	0.06840 0.64990 0.69330 0.38300
C 	C 	0.00970 0.49540 0.81750 -0.29400
C 	C 	0.02880 0.45590 0.80610 -0.12400
C 	C 	0.06530 0.46180 0.78370 0.47100
C 	C 	0.94040 0.60920 0.87470 -0.32000
C 	C 	0.92490 0.58390 0.84220 -0.04900
C 	C 	0.95000 0.58450 0.80610 0.37300
O 	O 	0.19010 0.63740 0.75990 -0.79800
O 	O 	0.06690 0.50410 0.88760 -0.79800
O 	O 	0.01220 0.55500 0.88570 -0.81700
O 	O 	0.24310 0.63810 0.80990 -0.78200
O 	O 	0.11900 0.61200 0.78500 -0.85300
O 	O 	0.18890 0.57510 0.82020 -0.91400
O 	O 	0.07060 0.56350 0.82750 -0.92600
O 	O 	0.14200 0.52790 0.86510 -0.94500
O 	O 	0.17050 0.55530 0.74220 -0.67400
O 	O 	0.18310 0.50930 0.69990 -0.62600
O 	O 	0.07340 0.64840 0.73120 -0.59500
O 	O 	0.03710 0.65420 0.67890 -0.30900
O 	O 	0.09130 0.48530 0.79710 -0.65500
O 	O 	0.07200 0.44150 0.75340 -0.61200
O 	O 	0.98690 0.58430 0.81050 -0.58200
O 	O 	0.93620 0.58410 0.77330 -0.29500
Nd	Nd	0.63051 0.04254 0.29844 2.42000
Nd	Nd	0.54760 0.11930 0.29234 2.20000
Ge	Ge	0.71648 0.09943 0.28481 1.30100
Ge	Ge	0.63904 0.13880 0.24555 1.30800
Ge	Ge	0.54117 0.02872 0.35018 1.31100
Ge	Ge	0.49561 0.10442 0.38147 1.36300
C 	C 	0.75200 0.06940 0.25210 -0.28000
C 	C 	0.73380 0.05440 0.21470 -0.12100
C 	C 	0.69280 0.03760 0.21880 0.51900
C 	C 	0.63630 0.12570 0.18990 -0.28200
C 	C 	0.60540 0.14800 0.17050 -0.05700
C 	C 	0.56840 0.14990 0.19330 0.38300
C 	C 	0.50970 0.99540 0.31750 -0.29400
C 	C 	0.52880 0.95590 0.30610 -0.12400
C 	C 	0.56530 0.96180 0.28370 0.47100
C 	C 	0.44040 0.10920 0.37470 -0.32000
C 	C 	0.42490 0.08390 0.34220 -0.04900
C 	C 	0.45000 0.08450 0.30610 0.37300
O 	O 	0.69010 0.13740 0.25990 -0.79800
O 	O 	0.56690 0.00410 0.38760 -0.79800
O 	O 	0.51220 0.05500 0.38570 -0.81700
O 	O 	0.74310 0.13810 0.30990 -0.78200
O 	O 	0.61900 0.11200 0.28500 -0.85300
O 	O 	0.68890 0.07510 0.32020 -0.91400
O 	O 	0.57060 0.06350 0.32750 -0.92600
O 	O 	0.64200 0.02790 0.36510 -0.94500
O 	O 	0.67050 0.05530 0.24220 -0.67400
O 	O 	0.68310 0.00930 0.19990 -0.62600
O 	O 	0.57340 0.14840 0.23120 -0.59500
O 	O 	0.53710 0.15420 0.17890 -0.30900
O 	O 	0.59130 0.98530 0.29710 -0.65500
O 	O 	0.57200 0.94150 0.25340 -0.61200
O 	O 	0.48690 0.08430 0.31050 -0.58200
O 	O 	0.43620 0.08410 0.27330 -0.29500
Nd	Nd	0.63051 0.95746 0.20156 2.42000
Nd	Nd	0.54760 0.88070 0.20766 2.20000
Ge	Ge	0.71648 0.90057 0.21519 1.30100
Ge	Ge	0.63904 0.86120 0.25445 1.30800
Ge	Ge	0.54117 0.97128 0.14982 1.31100
Ge	Ge	0.49561 0.89558 0.11853 1.36300
C 	C 	0.75200 0.93060 0.24790 -0.28000
C 	C 	0.73380 0.94560 0.28530 -0.12100
C 	C 	0.69280 0.96240 0.28120 0.51900
C 	C 	0.63630 0.87430 0.31010 -0.28200
C 	C 	0.60540 0.85200 0.32950 -0.05700
C 	C 	0.56840 0.85010 0.30670 0.38300
C 	C 	0.50970 0.00460 0.18250 -0.29400
C 	C 	0.52880 0.04410 0.19390 -0.12400
C 	C 	0.56530 0.03820 0.21630 0.47100
C 	C 	0.44040 0.89080 0.12530 -0.32000
C 	C 	0.42490 0.91610 0.15780 -0.04900
C 	C 	0.45000 0.91550 0.19390 0.37300
O 	O 	0.69010 0.86260 0.24010 -0.79800
O 	O 	0.56690 0.99590 0.11240 -0.79800
O 	O 	0.51220 0.94500 0.11430 -0.81700
O 	O 	0.74310 0.86190 0.19010 -0.78200
O 	O 	0.61900 0.88800 0.21500 -0.85300
O 	O 	0.68890 0.92490 0.17980 -0.91400
O 	O 	0.57060 0.93650 0.17250 -0.92600
O 	O 	0.64200 0.97210 0.13490 -0.94500
O 	O 	0.67050 0.94470 0.25780 -0.67400
O 	O 	0.68310 0.99070 0.30010 -0.62600
O 	O 	0.57340 0.85160 0.26880 -0.59500
O 	O 	0.53710 0.84580 0.32110 -0.30900
O 	O 	0.59130 0.01470 0.20290 -0.65500
O 	O 	0.57200 0.05850 0.24660 -0.61200
O 	O 	0.48690 0.91570 0.18950 -0.58200
O 	O 	0.43620 0.91590 0.22670 -0.29500
Nd	Nd	0.13051 0.45746 0.70156 2.42000
Nd	Nd	0.04760 0.38070 0.70766 2.20000
Ge	Ge	0.21648 0.40057 0.71519 1.30100
Ge	Ge	0.13904 0.36120 0.75445 1.30800
Ge	Ge	0.04117 0.47128 0.64982 1.31100
Ge	Ge	0.99561 0.39558 0.61853 1.36300
C 	C 	0.25200 0.43060 0.74790 -0.28000
C 	C 	0.23380 0.44560 0.78530 -0.12100
C 	C 	0.19280 0.46240 0.78120 0.51900
C 	C 	0.13630 0.37430 0.81010 -0.28200
C 	C 	0.10540 0.35200 0.82950 -0.05700
C 	C 	0.06840 0.35010 0.80670 0.38300
C 	C 	0.00970 0.50460 0.68250 -0.29400
C 	C 	0.02880 0.54410 0.69390 -0.12400
C 	C 	0.06530 0.53820 0.71630 0.47100
C 	C 	0.94040 0.39080 0.62530 -0.32000
C 	C 	0.92490 0.41610 0.65780 -0.04900
C 	C 	0.95000 0.41550 0.69390 0.37300
O 	O 	0.19010 0.36260 0.74010 -0.79800
O 	O 	0.06690 0.49590 0.61240 -0.79800
O 	O 	0.01220 0.44500 0.61430 -0.81700
O 	O 	0.24310 0.36190 0.69010 -0.78200
O 	O 	0.11900 0.38800 0.71500 -0.85300
O 	O 	0.18890 0.42490 0.67980 -0.91400
O 	O 	0.07060 0.43650 0.67250 -0.92600
O 	O 	0.14200 0.47210 0.63490 -0.94500
O 	O 	0.17050 0.44470 0.75780 -0.67400
O 	O 	0.18310 0.49070 0.80010 -0.62600
O 	O 	0.07340 0.35160 0.76880 -0.59500
O 	O 	0.03710 0.34580 0.82110 -0.30900
O 	O 	0.09130 0.51470 0.70290 -0.65500
O 	O 	0.07200 0.55850 0.74660 -0.61200
O 	O 	0.98690 0.41570 0.68950 -0.58200
O 	O 	0.93620 0.41590 0.72670 -0.29500
Nd	Nd	0.86949 0.04254 0.70156 2.42000
Nd	Nd	0.95240 0.11930 0.70766 2.20000
Ge	Ge	0.78352 0.09943 0.71519 1.30100
Ge	Ge	0.86096 0.13880 0.75445 1.30800
Ge	Ge	0.95883 0.02872 0.64982 1.31100
Ge	Ge	0.00439 0.10442 0.61853 1.36300
C 	C 	0.74800 0.06940 0.74790 -0.28000
C 	C 	0.76620 0.05440 0.78530 -0.12100
C 	C 	0.80720 0.03760 0.78120 0.51900
C 	C 	0.86370 0.12570 0.81010 -0.28200
C 	C 	0.89460 0.14800 0.82950 -0.05700
C 	C 	0.93160 0.14990 0.80670 0.38300
C 	C 	0.99030 0.99540 0.68250 -0.29400
C 	C 	0.97120 0.95590 0.69390 -0.12400
C 	C 	0.93470 0.96180 0.71630 0.47100
C 	C 	0.05960 0.10920 0.62530 -0.32000
C 	C 	0.07510 0.08390 0.65780 -0.04900
C 	C 	0.05000 0.08450 0.69390 0.37300
O 	O 	0.80990 0.13740 0.74010 -0.79800
O 	O 	0.93310 0.00410 0.61240 -0.79800
O 	O 	0.98780 0.05500 0.61430 -0.81700
O 	O 	0.75690 0.13810 0.69010 -0.78200
O 	O 	0.88100 0.11200 0.71500 -0.85300
O 	O 	0.81110 0.07510 0.67980 -0.91400
O 	O 	0.92940 0.06350 0.67250 -0.92600
O 	O 	0.85800 0.02790 0.63490 -0.94500
O 	O 	0.82950 0.05530 0.75780 -0.67400
O 	O 	0.81690 0.00930 0.80010 -0.62600
O 	O 	0.92660 0.14840 0.76880 -0.59500
O 	O 	0.96290 0.15420 0.82110 -0.30900
O 	O 	0.90870 0.98530 0.70290 -0.65500
O 	O 	0.92800 0.94150 0.74660 -0.61200
O 	O 	0.01310 0.08430 0.68950 -0.58200
O 	O 	0.06380 0.08410 0.72670 -0.29500
Nd	Nd	0.36949 0.54254 0.20156 2.42000
Nd	Nd	0.45240 0.61930 0.20766 2.20000
Ge	Ge	0.28352 0.59943 0.21519 1.30100
Ge	Ge	0.36096 0.63880 0.25445 1.30800
Ge	Ge	0.45883 0.52872 0.14982 1.31100
Ge	Ge	0.50439 0.60442 0.11853 1.36300
C 	C 	0.24800 0.56940 0.24790 -0.28000
C 	C 	0.26620 0.55440 0.28530 -0.12100
C 	C 	0.30720 0.53760 0.28120 0.51900
C 	C 	0.36370 0.62570 0.31010 -0.28200
C 	C 	0.39460 0.64800 0.32950 -0.05700
C 	C 	0.43160 0.64990 0.30670 0.38300
C 	C 	0.49030 0.49540 0.18250 -0.29400
C 	C 	0.47120 0.45590 0.19390 -0.12400
C 	C 	0.43470 0.46180 0.21630 0.47100
C 	C 	0.55960 0.60920 0.12530 -0.32000
C 	C 	0.57510 0.58390 0.15780 -0.04900
C 	C 	0.55000 0.58450 0.19390 0.37300
O 	O 	0.30990 0.63740 0.24010 -0.79800
O 	O 	0.43310 0.50410 0.11240 -0.79800
O 	O 	0.48780 0.55500 0.11430 -0.81700
O 	O 	0.25690 0.63810 0.19010 -0.78200
O 	O 	0.38100 0.61200 0.21500 -0.85300
O 	O 	0.31110 0.57510 0.17980 -0.91400
O 	O 	0.42940 0.56350 0.17250 -0.92600
O 	O 	0.35800 0.52790 0.13490 -0.94500
O 	O 	0.32950 0.55530 0.25780 -0.67400
O 	O 	0.31690 0.50930 0.30010 -0.62600
O 	O 	0.42660 0.64840 0.26880 -0.59500
O 	O 	0.46290 0.65420 0.32110 -0.30900
O 	O 	0.40870 0.48530 0.20290 -0.65500
O 	O 	0.42800 0.44150 0.24660 -0.61200
O 	O 	0.51310 0.58430 0.18950 -0.58200
O 	O 	0.56380 0.58410 0.22670 -0.29500
Nd	Nd	0.29844 0.36949 0.45746 2.42000
Nd	Nd	0.29234 0.45240 0.38070 2.20000
Ge	Ge	0.28481 0.28352 0.40057 1.30100
Ge	Ge	0.24555 0.36096 0.36120 1.30800
Ge	Ge	0.35018 0.45883 0.47128 1.31100
Ge	Ge	0.38147 0.50439 0.39558 1.36300
C 	C 	0.25210 0.24800 0.43060 -0.28000
C 	C 	0.21470 0.26620 0.44560 -0.12100
C 	C 	0.21880 0.30720 0.46240 0.51900
C 	C 	0.18990 0.36370 0.37430 -0.28200
C 	C 	0.17050 0.39460 0.35200 -0.05700
C 	C 	0.19330 0.43160 0.35010 0.38300
C 	C 	0.31750 0.49030 0.50460 -0.29400
C 	C 	0.30610 0.47120 0.54410 -0.12400
C 	C 	0.28370 0.43470 0.53820 0.47100
C 	C 	0.37470 0.55960 0.39080 -0.32000
C 	C 	0.34220 0.57510 0.41610 -0.04900
C 	C 	0.30610 0.55000 0.41550 0.37300
O 	O 	0.25990 0.30990 0.36260 -0.79800
O 	O 	0.38760 0.43310 0.49590 -0.79800
O 	O 	0.38570 0.48780 0.44500 -0.81700
O 	O 	0.30990 0.25690 0.36190 -0.78200
O 	O 	0.28500 0.38100 0.38800 -0.85300
O 	O 	0.32020 0.31110 0.42490 -0.91400
O 	O 	0.32750 0.42940 0.43650 -0.92600
O 	O 	0.36510 0.35800 0.47210 -0.94500
O 	O 	0.24220 0.32950 0.44470 -0.67400
O 	O 	0.19990 0.31690 0.49070 -0.62600
O 	O 	0.23120 0.42660 0.35160 -0.59500
O 	O 	0.17890 0.46290 0.34580 -0.30900
O 	O 	0.29710 0.40870 0.51470 -0.65500
O 	O 	0.25340 0.42800 0.55850 -0.61200
O 	O 	0.31050 0.51310 0.41570 -0.58200
O 	O 	0.27330 0.56380 0.41590 -0.29500
Nd	Nd	0.79844 0.86949 0.95746 2.42000
Nd	Nd	0.79234 0.95240 0.88070 2.20000
Ge	Ge	0.78481 0.78352 0.90057 1.30100
Ge	Ge	0.74555 0.86096 0.86120 1.30800
Ge	Ge	0.85018 0.95883 0.97128 1.31100
Ge	Ge	0.88147 0.00439 0.89558 1.36300
C 	C 	0.75210 0.74800 0.93060 -0.28000
C 	C 	0.71470 0.76620 0.94560 -0.12100
C 	C 	0.71880 0.80720 0.96240 0.51900
C 	C 	0.68990 0.86370 0.87430 -0.28200
C 	C 	0.67050 0.89460 0.85200 -0.05700
C 	C 	0.69330 0.93160 0.85010 0.38300
C 	C 	0.81750 0.99030 0.00460 -0.29400
C 	C 	0.80610 0.97120 0.04410 -0.12400
C 	C 	0.78370 0.93470 0.03820 0.47100
C 	C 	0.87470 0.05960 0.89080 -0.32000
C 	C 	0.84220 0.07510 0.91610 -0.04900
C 	C 	0.80610 0.05000 0.91550 0.37300
O 	O 	0.75990 0.80990 0.86260 -0.79800
O 	O 	0.88760 0.93310 0.99590 -0.79800
O 	O 	0.88570 0.98780 0.94500 -0.81700
O 	O 	0.80990 0.75690 0.86190 -0.78200
O 	O 	0.78500 0.88100 0.88800 -0.85300
O 	O 	0.82020 0.81110 0.92490 -0.91400
O 	O 	0.82750 0.92940 0.93650 -0.92600
O 	O 	0.86510 0.85800 0.97210 -0.94500
O 	O 	0.74220 0.82950 0.94470 -0.67400
O 	O 	0.69990 0.81690 0.99070 -0.62600
O 	O 	0.73120 0.92660 0.85160 -0.59500
O 	O 	0.67890 0.96290 0.84580 -0.30900
O 	O 	0.79710 0.90870 0.01470 -0.65500
O 	O 	0.75340 0.92800 0.05850 -0.61200
O 	O 	0.81050 0.01310 0.91570 -0.58200
O 	O 	0.77330 0.06380 0.91590 -0.29500
Nd	Nd	0.79844 0.13051 0.54254 2.42000
Nd	Nd	0.79234 0.04760 0.61930 2.20000
Ge	Ge	0.78481 0.21648 0.59943 1.30100
Ge	Ge	0.74555 0.13904 0.63880 1.30800
Ge	Ge	0.85018 0.04117 0.52872 1.31100
Ge	Ge	0.88147 0.99561 0.60442 1.36300
C 	C 	0.75210 0.25200 0.56940 -0.28000
C 	C 	0.71470 0.23380 0.55440 -0.12100
C 	C 	0.71880 0.19280 0.53760 0.51900
C 	C 	0.68990 0.13630 0.62570 -0.28200
C 	C 	0.67050 0.10540 0.64800 -0.05700
C 	C 	0.69330 0.06840 0.64990 0.38300
C 	C 	0.81750 0.00970 0.49540 -0.29400
C 	C 	0.80610 0.02880 0.45590 -0.12400
C 	C 	0.78370 0.06530 0.46180 0.47100
C 	C 	0.87470 0.94040 0.60920 -0.32000
C 	C 	0.84220 0.92490 0.58390 -0.04900
C 	C 	0.80610 0.95000 0.58450 0.37300
O 	O 	0.75990 0.19010 0.63740 -0.79800
O 	O 	0.88760 0.06690 0.50410 -0.79800
O 	O 	0.88570 0.01220 0.55500 -0.81700
O 	O 	0.80990 0.24310 0.63810 -0.78200
O 	O 	0.78500 0.11900 0.61200 -0.85300
O 	O 	0.82020 0.18890 0.57510 -0.91400
O 	O 	0.82750 0.07060 0.56350 -0.92600
O 	O 	0.86510 0.14200 0.52790 -0.94500
O 	O 	0.74220 0.17050 0.55530 -0.67400
O 	O 	0.69990 0.18310 0.50930 -0.62600
O 	O 	0.73120 0.07340 0.64840 -0.59500
O 	O 	0.67890 0.03710 0.65420 -0.30900
O 	O 	0.79710 0.09130 0.48530 -0.65500
O 	O 	0.75340 0.07200 0.44150 -0.61200
O 	O 	0.81050 0.98690 0.58430 -0.58200
O 	O 	0.77330 0.93620 0.58410 -0.29500
Nd	Nd	0.29844 0.63051 0.04254 2.42000
Nd	Nd	0.29234 0.54760 0.11930 2.20000
Ge	Ge	0.28481 0.71648 0.09943 1.30100
Ge	Ge	0.24555 0.63904 0.13880 1.30800
Ge	Ge	0.35018 0.54117 0.02872 1.31100
Ge	Ge	0.38147 0.49561 0.10442 1.36300
C 	C 	0.25210 0.75200 0.06940 -0.28000
C 	C 	0.21470 0.73380 0.05440 -0.12100
C 	C 	0.21880 0.69280 0.03760 0.51900
C 	C 	0.18990 0.63630 0.12570 -0.28200
C 	C 	0.17050 0.60540 0.14800 -0.05700
C 	C 	0.19330 0.56840 0.14990 0.38300
C 	C 	0.31750 0.50970 0.99540 -0.29400
C 	C 	0.30610 0.52880 0.95590 -0.12400
C 	C 	0.28370 0.56530 0.96180 0.47100
C 	C 	0.37470 0.44040 0.10920 -0.32000
C 	C 	0.34220 0.42490 0.08390 -0.04900
C 	C 	0.30610 0.45000 0.08450 0.37300
O 	O 	0.25990 0.69010 0.13740 -0.79800
O 	O 	0.38760 0.56690 0.00410 -0.79800
O 	O 	0.38570 0.51220 0.05500 -0.81700
O 	O 	0.30990 0.74310 0.13810 -0.78200
O 	O 	0.28500 0.61900 0.11200 -0.85300
O 	O 	0.32020 0.68890 0.07510 -0.91400
O 	O 	0.32750 0.57060 0.06350 -0.92600
O 	O 	0.36510 0.64200 0.02790 -0.94500
O 	O 	0.24220 0.67050 0.05530 -0.67400
O 	O 	0.19990 0.68310 0.00930 -0.62600
O 	O 	0.23120 0.57340 0.14840 -0.59500
O 	O 	0.17890 0.53710 0.15420 -0.30900
O 	O 	0.29710 0.59130 0.98530 -0.65500
O 	O 	0.25340 0.57200 0.94150 -0.61200
O 	O 	0.31050 0.48690 0.08430 -0.58200
O 	O 	0.27330 0.43620 0.08410 -0.29500
Nd	Nd	0.20156 0.63051 0.95746 2.42000
Nd	Nd	0.20766 0.54760 0.88070 2.20000
Ge	Ge	0.21519 0.71648 0.90057 1.30100
Ge	Ge	0.25445 0.63904 0.86120 1.30800
Ge	Ge	0.14982 0.54117 0.97128 1.31100
Ge	Ge	0.11853 0.49561 0.89558 1.36300
C 	C 	0.24790 0.75200 0.93060 -0.28000
C 	C 	0.28530 0.73380 0.94560 -0.12100
C 	C 	0.28120 0.69280 0.96240 0.51900
C 	C 	0.31010 0.63630 0.87430 -0.28200
C 	C 	0.32950 0.60540 0.85200 -0.05700
C 	C 	0.30670 0.56840 0.85010 0.38300
C 	C 	0.18250 0.50970 0.00460 -0.29400
C 	C 	0.19390 0.52880 0.04410 -0.12400
C 	C 	0.21630 0.56530 0.03820 0.47100
C 	C 	0.12530 0.44040 0.89080 -0.32000
C 	C 	0.15780 0.42490 0.91610 -0.04900
C 	C 	0.19390 0.45000 0.91550 0.37300
O 	O 	0.24010 0.69010 0.86260 -0.79800
O 	O 	0.11240 0.56690 0.99590 -0.79800
O 	O 	0.11430 0.51220 0.94500 -0.81700
O 	O 	0.19010 0.74310 0.86190 -0.78200
O 	O 	0.21500 0.61900 0.88800 -0.85300
O 	O 	0.17980 0.68890 0.92490 -0.91400
O 	O 	0.17250 0.57060 0.93650 -0.92600
O 	O 	0.13490 0.64200 0.97210 -0.94500
O 	O 	0.25780 0.67050 0.94470 -0.67400
O 	O 	0.30010 0.68310 0.99070 -0.62600
O 	O 	0.26880 0.57340 0.85160 -0.59500
O 	O 	0.32110 0.53710 0.84580 -0.30900
O 	O 	0.20290 0.59130 0.01470 -0.65500
O 	O 	0.24660 0.57200 0.05850 -0.61200
O 	O 	0.18950 0.48690 0.91570 -0.58200
O 	O 	0.22670 0.43620 0.91590 -0.29500
Nd	Nd	0.70156 0.13051 0.45746 2.42000
Nd	Nd	0.70766 0.04760 0.38070 2.20000
Ge	Ge	0.71519 0.21648 0.40057 1.30100
Ge	Ge	0.75445 0.13904 0.36120 1.30800
Ge	Ge	0.64982 0.04117 0.47128 1.31100
Ge	Ge	0.61853 0.99561 0.39558 1.36300
C 	C 	0.74790 0.25200 0.43060 -0.28000
C 	C 	0.78530 0.23380 0.44560 -0.12100
C 	C 	0.78120 0.19280 0.46240 0.51900
C 	C 	0.81010 0.13630 0.37430 -0.28200
C 	C 	0.82950 0.10540 0.35200 -0.05700
C 	C 	0.80670 0.06840 0.35010 0.38300
C 	C 	0.68250 0.00970 0.50460 -0.29400
C 	C 	0.69390 0.02880 0.54410 -0.12400
C 	C 	0.71630 0.06530 0.53820 0.47100
C 	C 	0.62530 0.94040 0.39080 -0.32000
C 	C 	0.65780 0.92490 0.41610 -0.04900
C 	C 	0.69390 0.95000 0.41550 0.37300
O 	O 	0.74010 0.19010 0.36260 -0.79800
O 	O 	0.61240 0.06690 0.49590 -0.79800
O 	O 	0.61430 0.01220 0.44500 -0.81700
O 	O 	0.69010 0.24310 0.36190 -0.78200
O 	O 	0.71500 0.11900 0.38800 -0.85300
O 	O 	0.67980 0.18890 0.42490 -0.91400
O 	O 	0.67250 0.07060 0.43650 -0.92600
O 	O 	0.63490 0.14200 0.47210 -0.94500
O 	O 	0.75780 0.17050 0.44470 -0.67400
O 	O 	0.80010 0.18310 0.49070 -0.62600
O 	O 	0.76880 0.07340 0.35160 -0.59500
O 	O 	0.82110 0.03710 0.34580 -0.30900
O 	O 	0.70290 0.09130 0.51470 -0.65500
O 	O 	0.74660 0.07200 0.55850 -0.61200
O 	O 	0.68950 0.98690 0.41570 -0.58200
O 	O 	0.72670 0.93620 0.41590 -0.29500
Nd	Nd	0.70156 0.86949 0.04254 2.42000
Nd	Nd	0.70766 0.95240 0.11930 2.20000
Ge	Ge	0.71519 0.78352 0.09943 1.30100
Ge	Ge	0.75445 0.86096 0.13880 1.30800
Ge	Ge	0.64982 0.95883 0.02872 1.31100
Ge	Ge	0.61853 0.00439 0.10442 1.36300
C 	C 	0.74790 0.74800 0.06940 -0.28000
C 	C 	0.78530 0.76620 0.05440 -0.12100
C 	C 	0.78120 0.80720 0.03760 0.51900
C 	C 	0.81010 0.86370 0.12570 -0.28200
C 	C 	0.82950 0.89460 0.14800 -0.05700
C 	C 	0.80670 0.93160 0.14990 0.38300
C 	C 	0.68250 0.99030 0.99540 -0.29400
C 	C 	0.69390 0.97120 0.95590 -0.12400
C 	C 	0.71630 0.93470 0.96180 0.47100
C 	C 	0.62530 0.05960 0.10920 -0.32000
C 	C 	0.65780 0.07510 0.08390 -0.04900
C 	C 	0.69390 0.05000 0.08450 0.37300
O 	O 	0.74010 0.80990 0.13740 -0.79800
O 	O 	0.61240 0.93310 0.00410 -0.79800
O 	O 	0.61430 0.98780 0.05500 -0.81700
O 	O 	0.69010 0.75690 0.13810 -0.78200
O 	O 	0.71500 0.88100 0.11200 -0.85300
O 	O 	0.67980 0.81110 0.07510 -0.91400
O 	O 	0.67250 0.92940 0.06350 -0.92600
O 	O 	0.63490 0.85800 0.02790 -0.94500
O 	O 	0.75780 0.82950 0.05530 -0.67400
O 	O 	0.80010 0.81690 0.00930 -0.62600
O 	O 	0.76880 0.92660 0.14840 -0.59500
O 	O 	0.82110 0.96290 0.15420 -0.30900
O 	O 	0.70290 0.90870 0.98530 -0.65500
O 	O 	0.74660 0.92800 0.94150 -0.61200
O 	O 	0.68950 0.01310 0.08430 -0.58200
O 	O 	0.72670 0.06380 0.08410 -0.29500
Nd	Nd	0.20156 0.36949 0.54254 2.42000
Nd	Nd	0.20766 0.45240 0.61930 2.20000
Ge	Ge	0.21519 0.28352 0.59943 1.30100
Ge	Ge	0.25445 0.36096 0.63880 1.30800
Ge	Ge	0.14982 0.45883 0.52872 1.31100
Ge	Ge	0.11853 0.50439 0.60442 1.36300
C 	C 	0.24790 0.24800 0.56940 -0.28000
C 	C 	0.28530 0.26620 0.55440 -0.12100
C 	C 	0.28120 0.30720 0.53760 0.51900
C 	C 	0.31010 0.36370 0.62570 -0.28200
C 	C 	0.32950 0.39460 0.64800 -0.05700
C 	C 	0.30670 0.43160 0.64990 0.38300
C 	C 	0.18250 0.49030 0.49540 -0.29400
C 	C 	0.19390 0.47120 0.45590 -0.12400
C 	C 	0.21630 0.43470 0.46180 0.47100
C 	C 	0.12530 0.55960 0.60920 -0.32000
C 	C 	0.15780 0.57510 0.58390 -0.04900
C 	C 	0.19390 0.55000 0.58450 0.37300
O 	O 	0.24010 0.30990 0.63740 -0.79800
O 	O 	0.11240 0.43310 0.50410 -0.79800
O 	O 	0.11430 0.48780 0.55500 -0.81700
O 	O 	0.19010 0.25690 0.63810 -0.78200
O 	O 	0.21500 0.38100 0.61200 -0.85300
O 	O 	0.17980 0.31110 0.57510 -0.91400
O 	O 	0.17250 0.42940 0.56350 -0.92600
O 	O 	0.13490 0.35800 0.52790 -0.94500
O 	O 	0.25780 0.32950 0.55530 -0.67400
O 	O 	0.30010 0.31690 0.50930 -0.62600
O 	O 	0.26880 0.42660 0.64840 -0.59500
O 	O 	0.32110 0.46290 0.65420 -0.30900
O 	O 	0.20290 0.40870 0.48530 -0.65500
O 	O 	0.24660 0.42800 0.44150 -0.61200
O 	O 	0.18950 0.51310 0.58430 -0.58200
O 	O 	0.22670 0.56380 0.58410 -0.29500
Nd	Nd	0.45746 0.29844 0.36949 2.42000
Nd	Nd	0.38070 0.29234 0.45240 2.20000
Ge	Ge	0.40057 0.28481 0.28352 1.30100
Ge	Ge	0.36120 0.24555 0.36096 1.30800
Ge	Ge	0.47128 0.35018 0.45883 1.31100
Ge	Ge	0.39558 0.38147 0.50439 1.36300
C 	C 	0.43060 0.25210 0.24800 -0.28000
C 	C 	0.44560 0.21470 0.26620 -0.12100
C 	C 	0.46240 0.21880 0.30720 0.51900
C 	C 	0.37430 0.18990 0.36370 -0.28200
C 	C 	0.35200 0.17050 0.39460 -0.05700
C 	C 	0.35010 0.19330 0.43160 0.38300
C 	C 	0.50460 0.31750 0.49030 -0.29400
C 	C 	0.54410 0.30610 0.47120 -0.12400
C 	C 	0.53820 0.28370 0.43470 0.47100
C 	C 	0.39080 0.37470 0.55960 -0.32000
C 	C 	0.41610 0.34220 0.57510 -0.04900
C 	C 	0.41550 0.30610 0.55000 0.37300
O 	O 	0.36260 0.25990 0.30990 -0.79800
O 	O 	0.49590 0.38760 0.43310 -0.79800
O 	O 	0.44500 0.38570 0.48780 -0.81700
O 	O 	0.36190 0.30990 0.25690 -0.78200
O 	O 	0.38800 0.28500 0.38100 -0.85300
O 	O 	0.42490 0.32020 0.31110 -0.91400
O 	O 	0.43650 0.32750 0.42940 -0.92600
O 	O 	0.47210 0.36510 0.35800 -0.94500
O 	O 	0.44470 0.24220 0.32950 -0.67400
O 	O 	0.49070 0.19990 0.31690 -0.62600
O 	O 	0.35160 0.23120 0.42660 -0.59500
O 	O 	0.34580 0.17890 0.46290 -0.30900
O 	O 	0.51470 0.29710 0.40870 -0.65500
O 	O 	0.55850 0.25340 0.42800 -0.61200
O 	O 	0.41570 0.31050 0.51310 -0.58200
O 	O 	0.41590 0.27330 0.56380 -0.29500
Nd	Nd	0.95746 0.79844 0.86949 2.42000
Nd	Nd	0.88070 0.79234 0.95240 2.20000
Ge	Ge	0.90057 0.78481 0.78352 1.30100
Ge	Ge	0.86120 0.74555 0.86096 1.30800
Ge	Ge	0.97128 0.85018 0.95883 1.31100
Ge	Ge	0.89558 0.88147 0.00439 1.36300
C 	C 	0.93060 0.75210 0.74800 -0.28000
C 	C 	0.94560 0.71470 0.76620 -0.12100
C 	C 	0.96240 0.71880 0.80720 0.51900
C 	C 	0.87430 0.68990 0.86370 -0.28200
C 	C 	0.85200 0.67050 0.89460 -0.05700
C 	C 	0.85010 0.69330 0.93160 0.38300
C 	C 	0.00460 0.81750 0.99030 -0.29400
C 	C 	0.04410 0.80610 0.97120 -0.12400
C 	C 	0.03820 0.78370 0.93470 0.47100
C 	C 	0.89080 0.87470 0.05960 -0.32000
C 	C 	0.91610 0.84220 0.07510 -0.04900
C 	C 	0.91550 0.80610 0.05000 0.37300
O 	O 	0.86260 0.75990 0.80990 -0.79800
O 	O 	0.99590 0.88760 0.93310 -0.79800
O 	O 	0.94500 0.88570 0.98780 -0.81700
O 	O 	0.86190 0.80990 0.75690 -0.78200
O 	O 	0.88800 0.78500 0.88100 -0.85300
O 	O 	0.92490 0.82020 0.81110 -0.91400
O 	O 	0.93650 0.82750 0.92940 -0.92600
O 	O 	0.97210 0.86510 0.85800 -0.94500
O 	O 	0.94470 0.74220 0.82950 -0.67400
O 	O 	0.99070 0.69990 0.81690 -0.62600
O 	O 	0.85160 0.73120 0.92660 -0.59500
O 	O 	0.84580 0.67890 0.96290 -0.30900
O 	O 	0.01470 0.79710 0.90870 -0.65500
O 	O 	0.05850 0.75340 0.92800 -0.61200
O 	O 	0.91570 0.81050 0.01310 -0.58200
O 	O 	0.91590 0.77330 0.06380 -0.29500
Nd	Nd	0.54254 0.79844 0.13051 2.42000
Nd	Nd	0.61930 0.79234 0.04760 2.20000
Ge	Ge	0.59943 0.78481 0.21648 1.30100
Ge	Ge	0.63880 0.74555 0.13904 1.30800
Ge	Ge	0.52872 0.85018 0.04117 1.31100
Ge	Ge	0.60442 0.88147 0.99561 1.36300
C 	C 	0.56940 0.75210 0.25200 -0.28000
C 	C 	0.55440 0.71470 0.23380 -0.12100
C 	C 	0.53760 0.71880 0.19280 0.51900
C 	C 	0.62570 0.68990 0.13630 -0.28200
C 	C 	0.64800 0.67050 0.10540 -0.05700
C 	C 	0.64990 0.69330 0.06840 0.38300
C 	C 	0.49540 0.81750 0.00970 -0.29400
C 	C 	0.45590 0.80610 0.02880 -0.12400
C 	C 	0.46180 0.78370 0.06530 0.47100
C 	C 	0.60920 0.87470 0.94040 -0.32000
C 	C 	0.58390 0.84220 0.92490 -0.04900
C 	C 	0.58450 0.80610 0.95000 0.37300
O 	O 	0.63740 0.75990 0.19010 -0.79800
O 	O 	0.50410 0.88760 0.06690 -0.79800
O 	O 	0.55500 0.88570 0.01220 -0.81700
O 	O 	0.63810 0.80990 0.24310 -0.78200
O 	O 	0.61200 0.78500 0.11900 -0.85300
O 	O 	0.57510 0.82020 0.18890 -0.91400
O 	O 	0.56350 0.82750 0.07060 -0.92600
O 	O 	0.52790 0.86510 0.14200 -0.94500
O 	O 	0.55530 0.74220 0.17050 -0.67400
O 	O 	0.50930 0.69990 0.18310 -0.62600
O 	O 	0.64840 0.73120 0.07340 -0.59500
O 	O 	0.65420 0.67890 0.03710 -0.30900
O 	O 	0.48530 0.79710 0.09130 -0.65500
O 	O 	0.44150 0.75340 0.07200 -0.61200
O 	O 	0.58430 0.81050 0.98690 -0.58200
O 	O 	0.58410 0.77330 0.93620 -0.29500
Nd	Nd	0.04254 0.29844 0.63051 2.42000
Nd	Nd	0.11930 0.29234 0.54760 2.20000
Ge	Ge	0.09943 0.28481 0.71648 1.30100
Ge	Ge	0.13880 0.24555 0.63904 1.30800
Ge	Ge	0.02872 0.35018 0.54117 1.31100
Ge	Ge	0.10442 0.38147 0.49561 1.36300
C 	C 	0.06940 0.25210 0.75200 -0.28000
C 	C 	0.05440 0.21470 0.73380 -0.12100
C 	C 	0.03760 0.21880 0.69280 0.51900
C 	C 	0.12570 0.18990 0.63630 -0.28200
C 	C 	0.14800 0.17050 0.60540 -0.05700
C 	C 	0.14990 0.19330 0.56840 0.38300
C 	C 	0.99540 0.31750 0.50970 -0.29400
C 	C 	0.95590 0.30610 0.52880 -0.12400
C 	C 	0.96180 0.28370 0.56530 0.47100
C 	C 	0.10920 0.37470 0.44040 -0.32000
C 	C 	0.08390 0.34220 0.42490 -0.04900
C 	C 	0.08450 0.30610 0.45000 0.37300
O 	O 	0.13740 0.25990 0.69010 -0.79800
O 	O 	0.00410 0.38760 0.56690 -0.79800
O 	O 	0.05500 0.38570 0.51220 -0.81700
O 	O 	0.13810 0.30990 0.74310 -0.78200
O 	O 	0.11200 0.28500 0.61900 -0.85300
O 	O 	0.07510 0.32020 0.68890 -0.91400
O 	O 	0.06350 0.32750 0.57060 -0.92600
O 	O 	0.02790 0.36510 0.64200 -0.94500
O 	O 	0.05530 0.24220 0.67050 -0.67400
O 	O 	0.00930 0.19990 0.68310 -0.62600
O 	O 	0.14840 0.23120 0.57340 -0.59500
O 	O 	0.15420 0.17890 0.53710 -0.30900
O 	O 	0.98530 0.29710 0.59130 -0.65500
O 	O 	0.94150 0.25340 0.57200 -0.61200
O 	O 	0.08430 0.31050 0.48690 -0.58200
O 	O 	0.08410 0.27330 0.43620 -0.29500
Nd	Nd	0.95746 0.20156 0.63051 2.42000
Nd	Nd	0.88070 0.20766 0.54760 2.20000
Ge	Ge	0.90057 0.21519 0.71648 1.30100
Ge	Ge	0.86120 0.25445 0.63904 1.30800
Ge	Ge	0.97128 0.14982 0.54117 1.31100
Ge	Ge	0.89558 0.11853 0.49561 1.36300
C 	C 	0.93060 0.24790 0.75200 -0.28000
C 	C 	0.94560 0.28530 0.73380 -0.12100
C 	C 	0.96240 0.28120 0.69280 0.51900
C 	C 	0.87430 0.31010 0.63630 -0.28200
C 	C 	0.85200 0.32950 0.60540 -0.05700
C 	C 	0.85010 0.30670 0.56840 0.38300
C 	C 	0.00460 0.18250 0.50970 -0.29400
C 	C 	0.04410 0.19390 0.52880 -0.12400
C 	C 	0.03820 0.21630 0.56530 0.47100
C 	C 	0.89080 0.12530 0.44040 -0.32000
C 	C 	0.91610 0.15780 0.42490 -0.04900
C 	C 	0.91550 0.19390 0.45000 0.37300
O 	O 	0.86260 0.24010 0.69010 -0.79800
O 	O 	0.99590 0.11240 0.56690 -0.79800
O 	O 	0.94500 0.11430 0.51220 -0.81700
O 	O 	0.86190 0.19010 0.74310 -0.78200
O 	O 	0.88800 0.21500 0.61900 -0.85300
O 	O 	0.92490 0.17980 0.68890 -0.91400
O 	O 	0.93650 0.17250 0.57060 -0.92600
O 	O 	0.97210 0.13490 0.64200 -0.94500
O 	O 	0.94470 0.25780 0.67050 -0.67400
O 	O 	0.99070 0.30010 0.68310 -0.62600
O 	O 	0.85160 0.26880 0.57340 -0.59500
O 	O 	0.84580 0.32110 0.53710 -0.30900
O 	O 	0.01470 0.20290 0.59130 -0.65500
O 	O 	0.05850 0.24660 0.57200 -0.61200
O 	O 	0.91570 0.18950 0.48690 -0.58200
O 	O 	0.91590 0.22670 0.43620 -0.29500
Nd	Nd	0.45746 0.70156 0.13051 2.42000
Nd	Nd	0.38070 0.70766 0.04760 2.20000
Ge	Ge	0.40057 0.71519 0.21648 1.30100
Ge	Ge	0.36120 0.75445 0.13904 1.30800
Ge	Ge	0.47128 0.64982 0.04117 1.31100
Ge	Ge	0.39558 0.61853 0.99561 1.36300
C 	C 	0.43060 0.74790 0.25200 -0.28000
C 	C 	0.44560 0.78530 0.23380 -0.12100
C 	C 	0.46240 0.78120 0.19280 0.51900
C 	C 	0.37430 0.81010 0.13630 -0.28200
C 	C 	0.35200 0.82950 0.10540 -0.05700
C 	C 	0.35010 0.80670 0.06840 0.38300
C 	C 	0.50460 0.68250 0.00970 -0.29400
C 	C 	0.54410 0.69390 0.02880 -0.12400
C 	C 	0.53820 0.71630 0.06530 0.47100
C 	C 	0.39080 0.62530 0.94040 -0.32000
C 	C 	0.41610 0.65780 0.92490 -0.04900
C 	C 	0.41550 0.69390 0.95000 0.37300
O 	O 	0.36260 0.74010 0.19010 -0.79800
O 	O 	0.49590 0.61240 0.06690 -0.79800
O 	O 	0.44500 0.61430 0.01220 -0.81700
O 	O 	0.36190 0.69010 0.24310 -0.78200
O 	O 	0.38800 0.71500 0.11900 -0.85300
O 	O 	0.42490 0.67980 0.18890 -0.91400
O 	O 	0.43650 0.67250 0.07060 -0.92600
O 	O 	0.47210 0.63490 0.14200 -0.94500
O 	O 	0.44470 0.75780 0.17050 -0.67400
O 	O 	0.49070 0.80010 0.18310 -0.62600
O 	O 	0.35160 0.76880 0.07340 -0.59500
O 	O 	0.34580 0.82110 0.03710 -0.30900
O 	O 	0.51470 0.70290 0.09130 -0.65500
O 	O 	0.55850 0.74660 0.07200 -0.61200
O 	O 	0.41570 0.68950 0.98690 -0.58200
O 	O 	0.41590 0.72670 0.93620 -0.29500
Nd	Nd	0.04254 0.70156 0.86949 2.42000
Nd	Nd	0.11930 0.70766 0.95240 2.20000
Ge	Ge	0.09943 0.71519 0.78352 1.30100
Ge	Ge	0.13880 0.75445 0.86096 1.30800
Ge	Ge	0.02872 0.64982 0.95883 1.31100
Ge	Ge	0.10442 0.61853 0.00439 1.36300
C 	C 	0.06940 0.74790 0.74800 -0.28000
C 	C 	0.05440 0.78530 0.76620 -0.12100
C 	C 	0.03760 0.78120 0.80720 0.51900
C 	C 	0.12570 0.81010 0.86370 -0.28200
C 	C 	0.14800 0.82950 0.89460 -0.05700
C 	C 	0.14990 0.80670 0.93160 0.38300
C 	C 	0.99540 0.68250 0.99030 -0.29400
C 	C 	0.95590 0.69390 0.97120 -0.12400
C 	C 	0.96180 0.71630 0.93470 0.47100
C 	C 	0.10920 0.62530 0.05960 -0.32000
C 	C 	0.08390 0.65780 0.07510 -0.04900
C 	C 	0.08450 0.69390 0.05000 0.37300
O 	O 	0.13740 0.74010 0.80990 -0.79800
O 	O 	0.00410 0.61240 0.93310 -0.79800
O 	O 	0.05500 0.61430 0.98780 -0.81700
O 	O 	0.13810 0.69010 0.75690 -0.78200
O 	O 	0.11200 0.71500 0.88100 -0.85300
O 	O 	0.07510 0.67980 0.81110 -0.91400
O 	O 	0.06350 0.67250 0.92940 -0.92600
O 	O 	0.02790 0.63490 0.85800 -0.94500
O 	O 	0.05530 0.75780 0.82950 -0.67400
O 	O 	0.00930 0.80010 0.81690 -0.62600
O 	O 	0.14840 0.76880 0.92660 -0.59500
O 	O 	0.15420 0.82110 0.96290 -0.30900
O 	O 	0.98530 0.70290 0.90870 -0.65500
O 	O 	0.94150 0.74660 0.92800 -0.61200
O 	O 	0.08430 0.68950 0.01310 -0.58200
O 	O 	0.08410 0.72670 0.06380 -0.29500
Nd	Nd	0.54254 0.20156 0.36949 2.42000
Nd	Nd	0.61930 0.20766 0.45240 2.20000
Ge	Ge	0.59943 0.21519 0.28352 1.30100
Ge	Ge	0.63880 0.25445 0.36096 1.30800
Ge	Ge	0.52872 0.14982 0.45883 1.31100
Ge	Ge	0.60442 0.11853 0.50439 1.36300
C 	C 	0.56940 0.24790 0.24800 -0.28000
C 	C 	0.55440 0.28530 0.26620 -0.12100
C 	C 	0.53760 0.28120 0.30720 0.51900
C 	C 	0.62570 0.31010 0.36370 -0.28200
C 	C 	0.64800 0.32950 0.39460 -0.05700
C 	C 	0.64990 0.30670 0.43160 0.38300
C 	C 	0.49540 0.18250 0.49030 -0.29400
C 	C 	0.45590 0.19390 0.47120 -0.12400
C 	C 	0.46180 0.21630 0.43470 0.47100
C 	C 	0.60920 0.12530 0.55960 -0.32000
C 	C 	0.58390 0.15780 0.57510 -0.04900
C 	C 	0.58450 0.19390 0.55000 0.37300
O 	O 	0.63740 0.24010 0.30990 -0.79800
O 	O 	0.50410 0.11240 0.43310 -0.79800
O 	O 	0.55500 0.11430 0.48780 -0.81700
O 	O 	0.63810 0.19010 0.25690 -0.78200
O 	O 	0.61200 0.21500 0.38100 -0.85300
O 	O 	0.57510 0.17980 0.31110 -0.91400
O 	O 	0.56350 0.17250 0.42940 -0.92600
O 	O 	0.52790 0.13490 0.35800 -0.94500
O 	O 	0.55530 0.25780 0.32950 -0.67400
O 	O 	0.50930 0.30010 0.31690 -0.62600
O 	O 	0.64840 0.26880 0.42660 -0.59500
O 	O 	0.65420 0.32110 0.46290 -0.30900
O 	O 	0.48530 0.20290 0.40870 -0.65500
O 	O 	0.44150 0.24660 0.42800 -0.61200
O 	O 	0.58430 0.18950 0.51310 -0.58200
O 	O 	0.58410 0.22670 0.56380 -0.29500
Nd	Nd	0.30115 0.30115 0.30115 1.64500
Nd	Nd	0.45012 0.45012 0.45012 1.52700
Nd	Nd	0.80115 0.80115 0.80115 1.64500
Nd	Nd	0.95012 0.95012 0.95012 1.52600
Nd	Nd	0.19885 0.69885 0.80115 1.64500
Nd	Nd	0.04988 0.54988 0.95012 1.52600
Nd	Nd	0.69885 0.19885 0.30115 1.64500
Nd	Nd	0.54988 0.04988 0.45012 1.52600
Nd	Nd	0.69885 0.80115 0.19885 1.64500
Nd	Nd	0.54988 0.95012 0.04988 1.52600
Nd	Nd	0.19885 0.30115 0.69885 1.64500
Nd	Nd	0.04988 0.45012 0.54988 1.52600
Nd	Nd	0.80115 0.19885 0.69885 1.64500
Nd	Nd	0.95012 0.04988 0.54988 1.52600
Nd	Nd	0.30115 0.69885 0.19885 1.64500
Nd	Nd	0.45012 0.54988 0.04988 1.52600
