data_crystal

_cell_length_a 14.05600
_cell_length_b 14.05600
_cell_length_c 18.09900
_cell_angle_alpha 90.00000
_cell_angle_beta  90.00000
_cell_angle_gamma 120.00000

_symmetry_space_group_name_	'P 1'
_symmetry_space_group_name_H-M	'P 1'

loop_
_symmetry_equiv_pos_as_xyz
  x,y,z

loop_
_atom_site_label
_atom_site_type_symbol
_atom_site_fract_x
_atom_site_fract_y
_atom_site_fract_z
_atom_site_charge
Sc	Sc	0.74986 0.49972 0.75000 2.32600
Sc	Sc	0.74986 0.25014 0.75000 2.32600
Sc	Sc	0.50028 0.25014 0.75000 2.32500
Sc	Sc	0.25014 0.50028 0.25000 2.32500
Sc	Sc	0.25014 0.74986 0.25000 2.32500
Sc	Sc	0.49972 0.74986 0.25000 2.32500
H 	H 	0.37910 0.33290 0.94330 0.02600
H 	H 	0.95380 0.62090 0.94330 0.02600
H 	H 	0.66710 0.04620 0.94330 0.02600
H 	H 	0.62090 0.66710 0.44330 0.02600
H 	H 	0.04620 0.37910 0.44330 0.02600
H 	H 	0.33290 0.95380 0.44330 0.02600
H 	H 	0.04620 0.66710 0.05670 0.02600
H 	H 	0.33290 0.37910 0.05670 0.02600
H 	H 	0.62090 0.95380 0.05670 0.02600
H 	H 	0.95380 0.33290 0.55670 0.02600
H 	H 	0.66710 0.62090 0.55670 0.02600
H 	H 	0.37910 0.04620 0.55670 0.02600
H 	H 	0.62090 0.66710 0.05670 0.02600
H 	H 	0.04620 0.37910 0.05670 0.02600
H 	H 	0.33290 0.95380 0.05670 0.02600
H 	H 	0.37910 0.33290 0.55670 0.02600
H 	H 	0.95380 0.62090 0.55670 0.02600
H 	H 	0.66710 0.04620 0.55670 0.02600
H 	H 	0.95380 0.33290 0.94330 0.02600
H 	H 	0.66710 0.62090 0.94330 0.02600
H 	H 	0.37910 0.04620 0.94330 0.02600
H 	H 	0.04620 0.66710 0.44330 0.02600
H 	H 	0.33290 0.37910 0.44330 0.02600
H 	H 	0.62090 0.95380 0.44330 0.02600
C 	C 	0.42830 0.40070 0.96638 -0.00400
C 	C 	0.97240 0.57170 0.96638 -0.00400
C 	C 	0.59930 0.02760 0.96638 -0.00400
C 	C 	0.57170 0.59930 0.46638 -0.00400
C 	C 	0.02760 0.42830 0.46638 -0.00400
C 	C 	0.40070 0.97240 0.46638 -0.00400
C 	C 	0.02760 0.59930 0.03362 -0.00400
C 	C 	0.40070 0.42830 0.03362 -0.00400
C 	C 	0.57170 0.97240 0.03362 -0.00400
C 	C 	0.97240 0.40070 0.53362 -0.00400
C 	C 	0.59930 0.57170 0.53362 -0.00400
C 	C 	0.42830 0.02760 0.53362 -0.00400
C 	C 	0.57170 0.59930 0.03362 -0.00400
C 	C 	0.02760 0.42830 0.03362 -0.00400
C 	C 	0.40070 0.97240 0.03362 -0.00400
C 	C 	0.42830 0.40070 0.53362 -0.00400
C 	C 	0.97240 0.57170 0.53362 -0.00400
C 	C 	0.59930 0.02760 0.53362 -0.00400
C 	C 	0.97240 0.40070 0.96638 -0.00400
C 	C 	0.59930 0.57170 0.96638 -0.00400
C 	C 	0.42830 0.02760 0.96638 -0.00400
C 	C 	0.02760 0.59930 0.46638 -0.00400
C 	C 	0.40070 0.42830 0.46638 -0.00400
C 	C 	0.57170 0.97240 0.46638 -0.00400
C 	C 	0.55820 0.44180 0.86118 0.48700
C 	C 	0.52770 0.47230 0.93294 -0.13300
C 	C 	0.88360 0.44180 0.86118 0.48700
C 	C 	0.94460 0.47230 0.93294 -0.13300
C 	C 	0.55820 0.11640 0.86118 0.48700
C 	C 	0.52770 0.05540 0.93294 -0.13300
C 	C 	0.44180 0.55820 0.36118 0.48700
C 	C 	0.47230 0.52770 0.43294 -0.13300
C 	C 	0.11640 0.55820 0.36118 0.48700
C 	C 	0.05540 0.52770 0.43294 -0.13300
C 	C 	0.44180 0.88360 0.36118 0.48700
C 	C 	0.47230 0.94460 0.43294 -0.13300
C 	C 	0.11640 0.55820 0.13882 0.48700
C 	C 	0.05540 0.52770 0.06706 -0.13300
C 	C 	0.44180 0.55820 0.13882 0.48700
C 	C 	0.47230 0.52770 0.06706 -0.13300
C 	C 	0.44180 0.88360 0.13882 0.48700
C 	C 	0.47230 0.94460 0.06706 -0.13300
C 	C 	0.88360 0.44180 0.63882 0.48700
C 	C 	0.94460 0.47230 0.56706 -0.13300
C 	C 	0.55820 0.44180 0.63882 0.48700
C 	C 	0.52770 0.47230 0.56706 -0.13300
C 	C 	0.55820 0.11640 0.63882 0.48700
C 	C 	0.52770 0.05540 0.56706 -0.13300
O 	O 	0.65063 0.50930 0.83341 -0.68000
O 	O 	0.85867 0.34937 0.83341 -0.68000
O 	O 	0.49070 0.14133 0.83341 -0.68000
O 	O 	0.34937 0.49070 0.33341 -0.68000
O 	O 	0.14133 0.65063 0.33341 -0.68000
O 	O 	0.50930 0.85867 0.33341 -0.68000
O 	O 	0.14133 0.49070 0.16659 -0.68000
O 	O 	0.50930 0.65063 0.16659 -0.68000
O 	O 	0.34937 0.85867 0.16659 -0.68000
O 	O 	0.85867 0.50930 0.66659 -0.68000
O 	O 	0.49070 0.34937 0.66659 -0.68000
O 	O 	0.65063 0.14133 0.66659 -0.68000
O 	O 	0.34937 0.49070 0.16659 -0.68000
O 	O 	0.14133 0.65063 0.16659 -0.68000
O 	O 	0.50930 0.85867 0.16659 -0.68000
O 	O 	0.65063 0.50930 0.66659 -0.68000
O 	O 	0.85867 0.34937 0.66659 -0.68000
O 	O 	0.49070 0.14133 0.66659 -0.68000
O 	O 	0.85867 0.50930 0.83341 -0.68000
O 	O 	0.49070 0.34937 0.83341 -0.68000
O 	O 	0.65063 0.14133 0.83341 -0.68000
O 	O 	0.14133 0.49070 0.33341 -0.68000
O 	O 	0.50930 0.65063 0.33341 -0.68000
O 	O 	0.34937 0.85867 0.33341 -0.68000
O 	O 	0.66667 0.33334 0.75000 -1.20400
O 	O 	0.33333 0.66666 0.25000 -1.20400
