data_crystal

_cell_length_a 16.84300
_cell_length_b 31.47000
_cell_length_c 31.47000
_cell_angle_alpha 120.00000
_cell_angle_beta  90.00000
_cell_angle_gamma 90.00000

_symmetry_space_group_name_	'P 1'
_symmetry_space_group_name_H-M	'P 1'

loop_
_symmetry_equiv_pos_as_xyz
  x,y,z

loop_
_atom_site_label
_atom_site_type_symbol
_atom_site_fract_x
_atom_site_fract_y
_atom_site_fract_z
_atom_site_charge
Sc	Sc	0.64726 0.57059 0.49863 2.33200
Sc	Sc	0.64726 0.92804 0.42941 2.33200
Sc	Sc	0.64726 0.50137 0.07196 2.33200
Sc	Sc	0.85274 0.57059 0.49863 2.33200
Sc	Sc	0.85274 0.92804 0.42941 2.33200
Sc	Sc	0.85274 0.50137 0.07196 2.33200
Sc	Sc	0.35274 0.07196 0.50137 2.33200
Sc	Sc	0.35274 0.49863 0.57059 2.33200
Sc	Sc	0.35274 0.42941 0.92804 2.33200
Sc	Sc	0.14726 0.07196 0.50137 2.33200
Sc	Sc	0.14726 0.49863 0.57059 2.33200
Sc	Sc	0.14726 0.42941 0.92804 2.33200
Sc	Sc	0.75000 0.64212 0.46096 2.32700
Sc	Sc	0.75000 0.81884 0.35788 2.32700
Sc	Sc	0.75000 0.53904 0.18116 2.32700
Sc	Sc	0.25000 0.18116 0.53904 2.32700
Sc	Sc	0.25000 0.46096 0.64212 2.32700
Sc	Sc	0.25000 0.35788 0.81884 2.32700
H 	H 	0.36600 0.51990 0.15990 0.12100
H 	H 	0.37120 0.73400 0.61000 0.09500
H 	H 	0.36890 0.54920 0.23240 0.03500
H 	H 	0.46970 0.59960 0.29270 0.11100
H 	H 	0.36710 0.47560 0.07460 -0.06600
H 	H 	0.47840 0.68280 0.58760 -0.01500
H 	H 	0.36760 0.85220 0.57780 0.05100
H 	H 	0.56760 0.74440 0.51330 -0.01900
H 	H 	0.58240 0.60360 0.33610 -0.03600
H 	H 	0.45310 0.79150 0.53110 0.09400
H 	H 	0.45750 0.55370 0.41060 -0.04000
H 	H 	0.34680 0.54940 0.36710 0.11400
H 	H 	0.34700 0.93910 0.61600 0.09400
H 	H 	0.35470 0.99670 0.59140 -0.02300
H 	H 	0.36600 0.64000 0.48010 0.12100
H 	H 	0.37120 0.87600 0.26600 0.09500
H 	H 	0.36890 0.68320 0.45080 0.03500
H 	H 	0.46970 0.69310 0.40040 0.11100
H 	H 	0.36710 0.59900 0.52440 -0.06600
H 	H 	0.47840 0.90480 0.31720 -0.01500
H 	H 	0.36760 0.72560 0.14780 0.05100
H 	H 	0.56760 0.76890 0.25560 -0.01900
H 	H 	0.58240 0.73250 0.39640 -0.03600
H 	H 	0.45310 0.73960 0.20850 0.09400
H 	H 	0.45750 0.85690 0.44630 -0.04000
H 	H 	0.34680 0.81770 0.45060 0.11400
H 	H 	0.34700 0.67690 0.06090 0.09400
H 	H 	0.35470 0.59470 0.00330 -0.02300
H 	H 	0.36600 0.84010 0.36000 0.12100
H 	H 	0.37120 0.39000 0.12400 0.09500
H 	H 	0.36890 0.76760 0.31680 0.03500
H 	H 	0.46970 0.70730 0.30690 0.11100
H 	H 	0.36710 0.92540 0.40100 -0.06600
H 	H 	0.47840 0.41240 0.09520 -0.01500
H 	H 	0.36760 0.42220 0.27440 0.05100
H 	H 	0.56760 0.48670 0.23110 -0.01900
H 	H 	0.58240 0.66390 0.26750 -0.03600
H 	H 	0.45310 0.46890 0.26040 0.09400
H 	H 	0.45750 0.58940 0.14310 -0.04000
H 	H 	0.34680 0.63290 0.18230 0.11400
H 	H 	0.34700 0.38400 0.32310 0.09400
H 	H 	0.35470 0.40860 0.40530 -0.02200
H 	H 	0.13400 0.51990 0.15990 0.12100
H 	H 	0.12880 0.73400 0.61000 0.09500
H 	H 	0.13110 0.54920 0.23240 0.03500
H 	H 	0.03030 0.59960 0.29270 0.11100
H 	H 	0.13290 0.47560 0.07460 -0.06600
H 	H 	0.02160 0.68280 0.58760 -0.01500
H 	H 	0.13240 0.85220 0.57780 0.05100
H 	H 	0.93240 0.74440 0.51330 -0.01900
H 	H 	0.91760 0.60360 0.33610 -0.03700
H 	H 	0.04690 0.79150 0.53110 0.09400
H 	H 	0.04250 0.55370 0.41060 -0.04000
H 	H 	0.15320 0.54940 0.36710 0.11400
H 	H 	0.15300 0.93910 0.61600 0.09400
H 	H 	0.14530 0.99670 0.59140 -0.02300
H 	H 	0.13400 0.64000 0.48010 0.12100
H 	H 	0.12880 0.87600 0.26600 0.09500
H 	H 	0.13110 0.68320 0.45080 0.03500
H 	H 	0.03030 0.69310 0.40040 0.11100
H 	H 	0.13290 0.59900 0.52440 -0.06600
H 	H 	0.02160 0.90480 0.31720 -0.01500
H 	H 	0.13240 0.72560 0.14780 0.05100
H 	H 	0.93240 0.76890 0.25560 -0.01900
H 	H 	0.91760 0.73250 0.39640 -0.03700
H 	H 	0.04690 0.73960 0.20850 0.09400
H 	H 	0.04250 0.85690 0.44630 -0.04000
H 	H 	0.15320 0.81770 0.45060 0.11300
H 	H 	0.15300 0.67690 0.06090 0.09400
H 	H 	0.14530 0.59470 0.00330 -0.02300
H 	H 	0.13400 0.84010 0.36000 0.12100
H 	H 	0.12880 0.39000 0.12400 0.09500
H 	H 	0.13110 0.76760 0.31680 0.03500
H 	H 	0.03030 0.70730 0.30690 0.11100
H 	H 	0.13290 0.92540 0.40100 -0.06600
H 	H 	0.02160 0.41240 0.09520 -0.01500
H 	H 	0.13240 0.42220 0.27440 0.05100
H 	H 	0.93240 0.48670 0.23110 -0.01900
H 	H 	0.91760 0.66390 0.26750 -0.03700
H 	H 	0.04690 0.46890 0.26040 0.09400
H 	H 	0.04250 0.58940 0.14310 -0.04000
H 	H 	0.15320 0.63290 0.18230 0.11300
H 	H 	0.15300 0.38400 0.32310 0.09400
H 	H 	0.14530 0.40860 0.40530 -0.02200
H 	H 	0.63400 0.36000 0.84010 0.12100
H 	H 	0.62880 0.12400 0.39000 0.09500
H 	H 	0.63110 0.31680 0.76760 0.03500
H 	H 	0.53030 0.30690 0.70730 0.11100
H 	H 	0.63290 0.40100 0.92540 -0.06600
H 	H 	0.52160 0.09520 0.41240 -0.01500
H 	H 	0.63240 0.27440 0.42220 0.05100
H 	H 	0.43240 0.23110 0.48670 -0.01900
H 	H 	0.41760 0.26750 0.66390 -0.03600
H 	H 	0.54690 0.26040 0.46890 0.09400
H 	H 	0.54250 0.14310 0.58940 -0.04000
H 	H 	0.65320 0.18230 0.63290 0.11400
H 	H 	0.65300 0.32310 0.38400 0.09400
H 	H 	0.64530 0.40530 0.40860 -0.02200
H 	H 	0.63400 0.15990 0.51990 0.12100
H 	H 	0.62880 0.61000 0.73400 0.09500
H 	H 	0.63110 0.23240 0.54920 0.03500
H 	H 	0.53030 0.29270 0.59960 0.11100
H 	H 	0.63290 0.07460 0.47560 -0.06600
H 	H 	0.52160 0.58760 0.68280 -0.01500
H 	H 	0.63240 0.57780 0.85220 0.05100
H 	H 	0.43240 0.51330 0.74440 -0.01900
H 	H 	0.41760 0.33610 0.60360 -0.03600
H 	H 	0.54690 0.53110 0.79150 0.09400
H 	H 	0.54250 0.41060 0.55370 -0.04000
H 	H 	0.65320 0.36710 0.54940 0.11400
H 	H 	0.65300 0.61600 0.93910 0.09400
H 	H 	0.64530 0.59140 0.99670 -0.02300
H 	H 	0.63400 0.48010 0.64000 0.12100
H 	H 	0.62880 0.26600 0.87600 0.09500
H 	H 	0.63110 0.45080 0.68320 0.03500
H 	H 	0.53030 0.40040 0.69310 0.11100
H 	H 	0.63290 0.52440 0.59900 -0.06600
H 	H 	0.52160 0.31720 0.90480 -0.01500
H 	H 	0.63240 0.14780 0.72560 0.05100
H 	H 	0.43240 0.25560 0.76890 -0.01900
H 	H 	0.41760 0.39640 0.73250 -0.03600
H 	H 	0.54690 0.20850 0.73960 0.09400
H 	H 	0.54250 0.44630 0.85690 -0.04000
H 	H 	0.65320 0.45060 0.81770 0.11400
H 	H 	0.65300 0.06090 0.67690 0.09400
H 	H 	0.64530 0.00330 0.59470 -0.02300
H 	H 	0.86600 0.36000 0.84010 0.12100
H 	H 	0.87120 0.12400 0.39000 0.09500
H 	H 	0.86890 0.31680 0.76760 0.03500
H 	H 	0.96970 0.30690 0.70730 0.11100
H 	H 	0.86710 0.40100 0.92540 -0.06600
H 	H 	0.97840 0.09520 0.41240 -0.01500
H 	H 	0.86760 0.27440 0.42220 0.05100
H 	H 	0.06760 0.23110 0.48670 -0.01900
H 	H 	0.08240 0.26750 0.66390 -0.03700
H 	H 	0.95310 0.26040 0.46890 0.09400
H 	H 	0.95750 0.14310 0.58940 -0.04000
H 	H 	0.84680 0.18230 0.63290 0.11300
H 	H 	0.84700 0.32310 0.38400 0.09400
H 	H 	0.85470 0.40530 0.40860 -0.02200
H 	H 	0.86600 0.15990 0.51990 0.12100
H 	H 	0.87120 0.61000 0.73400 0.09500
H 	H 	0.86890 0.23240 0.54920 0.03500
H 	H 	0.96970 0.29270 0.59960 0.11100
H 	H 	0.86710 0.07460 0.47560 -0.06600
H 	H 	0.97840 0.58760 0.68280 -0.01500
H 	H 	0.86760 0.57780 0.85220 0.05100
H 	H 	0.06760 0.51330 0.74440 -0.01900
H 	H 	0.08240 0.33610 0.60360 -0.03700
H 	H 	0.95310 0.53110 0.79150 0.09400
H 	H 	0.95750 0.41060 0.55370 -0.04000
H 	H 	0.84680 0.36710 0.54940 0.11400
H 	H 	0.84700 0.61600 0.93910 0.09400
H 	H 	0.85470 0.59140 0.99670 -0.02300
H 	H 	0.86600 0.48010 0.64000 0.12100
H 	H 	0.87120 0.26600 0.87600 0.09500
H 	H 	0.86890 0.45080 0.68320 0.03500
H 	H 	0.96970 0.40040 0.69310 0.11100
H 	H 	0.86710 0.52440 0.59900 -0.06600
H 	H 	0.97840 0.31720 0.90480 -0.01500
H 	H 	0.86760 0.14780 0.72560 0.05100
H 	H 	0.06760 0.25560 0.76890 -0.01900
H 	H 	0.08240 0.39640 0.73250 -0.03700
H 	H 	0.95310 0.20850 0.73960 0.09400
H 	H 	0.95750 0.44630 0.85690 -0.04000
H 	H 	0.84680 0.45060 0.81770 0.11300
H 	H 	0.84700 0.06090 0.67690 0.09400
H 	H 	0.85470 0.00330 0.59470 -0.02300
H 	H 	0.25000 0.59210 0.35680 0.04100
H 	H 	0.25000 0.74070 0.57180 0.05800
H 	H 	0.25000 0.76470 0.40790 0.04100
H 	H 	0.25000 0.83110 0.25930 0.05800
H 	H 	0.25000 0.64320 0.23530 0.04100
H 	H 	0.25000 0.42820 0.16890 0.05800
H 	H 	0.75000 0.23530 0.64320 0.04100
H 	H 	0.75000 0.16890 0.42820 0.05800
H 	H 	0.75000 0.35680 0.59210 0.04100
H 	H 	0.75000 0.57180 0.74070 0.05800
H 	H 	0.75000 0.40790 0.76470 0.04100
H 	H 	0.75000 0.25930 0.83110 0.05800
C 	C 	0.32140 0.57110 0.29990 -0.04100
C 	C 	0.39580 0.57440 0.32630 0.15000
C 	C 	0.53200 0.58010 0.37950 -0.28900
C 	C 	0.31780 0.51040 0.14330 -0.27200
C 	C 	0.39470 0.76680 0.57140 0.10100
C 	C 	0.40860 0.73530 0.58890 -0.18700
C 	C 	0.32110 0.55440 0.24900 -0.02200
C 	C 	0.46750 0.59060 0.31670 -0.23400
C 	C 	0.31920 0.48370 0.09160 0.23800
C 	C 	0.32130 0.79340 0.57710 -0.00000
C 	C 	0.47420 0.70570 0.57730 0.14000
C 	C 	0.31980 0.83740 0.57770 -0.06800
C 	C 	0.52760 0.74170 0.53220 0.14400
C 	C 	0.53470 0.59310 0.34270 0.16900
C 	C 	0.45810 0.76990 0.54300 -0.18000
C 	C 	0.60210 0.67690 0.53210 0.54700
C 	C 	0.60170 0.58300 0.40830 0.57200
C 	C 	0.46050 0.56340 0.38720 0.18500
C 	C 	0.39400 0.56070 0.36100 -0.24600
C 	C 	0.53480 0.71070 0.54960 -0.25600
C 	C 	0.30890 0.94020 0.59510 -0.19300
C 	C 	0.31010 0.97670 0.58260 0.15400
C 	C 	0.32140 0.72880 0.42890 -0.04100
C 	C 	0.39580 0.75190 0.42560 0.15000
C 	C 	0.53200 0.79940 0.41990 -0.28900
C 	C 	0.31780 0.63290 0.48960 -0.27200
C 	C 	0.39470 0.80460 0.23320 0.10000
C 	C 	0.40860 0.85360 0.26470 -0.18700
C 	C 	0.32110 0.69460 0.44560 -0.02200
C 	C 	0.46750 0.72610 0.40940 -0.23400
C 	C 	0.31920 0.60790 0.51630 0.23900
C 	C 	0.32130 0.78370 0.20660 -0.00000
C 	C 	0.47420 0.87160 0.29430 0.14000
C 	C 	0.31980 0.74030 0.16260 -0.06800
C 	C 	0.52760 0.79050 0.25830 0.14400
C 	C 	0.53470 0.74960 0.40690 0.16900
C 	C 	0.45810 0.77310 0.23010 -0.18000
C 	C 	0.60210 0.85520 0.32310 0.54700
C 	C 	0.60170 0.82530 0.41700 0.57200
C 	C 	0.46050 0.82380 0.43660 0.18500
C 	C 	0.39400 0.80030 0.43930 -0.24600
C 	C 	0.53480 0.83890 0.28930 -0.25600
C 	C 	0.30890 0.65490 0.05980 -0.19300
C 	C 	0.31010 0.60590 0.02330 0.15400
C 	C 	0.32140 0.70010 0.27120 -0.04100
C 	C 	0.39580 0.67370 0.24810 0.15000
C 	C 	0.53200 0.62050 0.20060 -0.28900
C 	C 	0.31780 0.85670 0.36710 -0.27200
C 	C 	0.39470 0.42860 0.19540 0.10000
C 	C 	0.40860 0.41110 0.14640 -0.18700
C 	C 	0.32110 0.75100 0.30540 -0.02200
C 	C 	0.46750 0.68330 0.27390 -0.23400
C 	C 	0.31920 0.90840 0.39210 0.23800
C 	C 	0.32130 0.42290 0.21630 -0.00000
C 	C 	0.47420 0.42270 0.12840 0.14000
C 	C 	0.31980 0.42230 0.25970 -0.06800
C 	C 	0.52760 0.46780 0.20950 0.14300
C 	C 	0.53470 0.65730 0.25040 0.16900
C 	C 	0.45810 0.45700 0.22690 -0.18000
C 	C 	0.60210 0.46790 0.14480 0.54700
C 	C 	0.60170 0.59170 0.17470 0.57200
C 	C 	0.46050 0.61280 0.17620 0.18500
C 	C 	0.39400 0.63900 0.19970 -0.24600
C 	C 	0.53480 0.45040 0.16110 -0.25600
C 	C 	0.30890 0.40490 0.34510 -0.19300
C 	C 	0.31010 0.41740 0.39410 0.15400
C 	C 	0.17860 0.57110 0.29990 -0.04100
C 	C 	0.10420 0.57440 0.32630 0.15100
C 	C 	0.96800 0.58010 0.37950 -0.28900
C 	C 	0.18220 0.51040 0.14330 -0.27200
C 	C 	0.10530 0.76680 0.57140 0.10100
C 	C 	0.09140 0.73530 0.58890 -0.18700
C 	C 	0.17890 0.55440 0.24900 -0.02200
C 	C 	0.03250 0.59060 0.31670 -0.23400
C 	C 	0.18080 0.48370 0.09160 0.23800
C 	C 	0.17870 0.79340 0.57710 -0.00000
C 	C 	0.02580 0.70570 0.57730 0.14000
C 	C 	0.18020 0.83740 0.57770 -0.06800
C 	C 	0.97240 0.74170 0.53220 0.14400
C 	C 	0.96530 0.59310 0.34270 0.16900
C 	C 	0.04190 0.76990 0.54300 -0.18000
C 	C 	0.89790 0.67690 0.53210 0.54700
C 	C 	0.89830 0.58300 0.40830 0.57200
C 	C 	0.03950 0.56340 0.38720 0.18500
C 	C 	0.10600 0.56070 0.36100 -0.24600
C 	C 	0.96520 0.71070 0.54960 -0.25600
C 	C 	0.19110 0.94020 0.59510 -0.19300
C 	C 	0.18990 0.97670 0.58260 0.15400
C 	C 	0.17860 0.72880 0.42890 -0.04100
C 	C 	0.10420 0.75190 0.42560 0.15000
C 	C 	0.96800 0.79940 0.41990 -0.28900
C 	C 	0.18220 0.63290 0.48960 -0.27200
C 	C 	0.10530 0.80460 0.23320 0.10100
C 	C 	0.09140 0.85360 0.26470 -0.18700
C 	C 	0.17890 0.69460 0.44560 -0.02200
C 	C 	0.03250 0.72610 0.40940 -0.23400
C 	C 	0.18080 0.60790 0.51630 0.23900
C 	C 	0.17870 0.78370 0.20660 -0.00000
C 	C 	0.02580 0.87160 0.29430 0.13900
C 	C 	0.18020 0.74030 0.16260 -0.06800
C 	C 	0.97240 0.79050 0.25830 0.14400
C 	C 	0.96530 0.74960 0.40690 0.16900
C 	C 	0.04190 0.77310 0.23010 -0.18000
C 	C 	0.89790 0.85520 0.32310 0.54600
C 	C 	0.89830 0.82530 0.41700 0.57200
C 	C 	0.03950 0.82380 0.43660 0.18500
C 	C 	0.10600 0.80030 0.43930 -0.24600
C 	C 	0.96520 0.83890 0.28930 -0.25500
C 	C 	0.19110 0.65490 0.05980 -0.19300
C 	C 	0.18990 0.60590 0.02330 0.15400
C 	C 	0.17860 0.70010 0.27120 -0.04100
C 	C 	0.10420 0.67370 0.24810 0.15000
C 	C 	0.96800 0.62050 0.20060 -0.28900
C 	C 	0.18220 0.85670 0.36710 -0.27200
C 	C 	0.10530 0.42860 0.19540 0.10000
C 	C 	0.09140 0.41110 0.14640 -0.18700
C 	C 	0.17890 0.75100 0.30540 -0.02200
C 	C 	0.03250 0.68330 0.27390 -0.23400
C 	C 	0.18080 0.90840 0.39210 0.23800
C 	C 	0.17870 0.42290 0.21630 -0.00000
C 	C 	0.02580 0.42270 0.12840 0.14000
C 	C 	0.18020 0.42230 0.25970 -0.06800
C 	C 	0.97240 0.46780 0.20950 0.14400
C 	C 	0.96530 0.65730 0.25040 0.16900
C 	C 	0.04190 0.45700 0.22690 -0.18000
C 	C 	0.89790 0.46790 0.14480 0.54600
C 	C 	0.89830 0.59170 0.17470 0.57200
C 	C 	0.03950 0.61280 0.17620 0.18500
C 	C 	0.10600 0.63900 0.19970 -0.24600
C 	C 	0.96520 0.45040 0.16110 -0.25500
C 	C 	0.19110 0.40490 0.34510 -0.19300
C 	C 	0.18990 0.41740 0.39410 0.15400
C 	C 	0.67860 0.27120 0.70010 -0.04100
C 	C 	0.60420 0.24810 0.67370 0.15000
C 	C 	0.46800 0.20060 0.62050 -0.28900
C 	C 	0.68220 0.36710 0.85670 -0.27200
C 	C 	0.60530 0.19540 0.42860 0.10000
C 	C 	0.59140 0.14640 0.41110 -0.18700
C 	C 	0.67890 0.30540 0.75100 -0.02200
C 	C 	0.53250 0.27390 0.68330 -0.23400
C 	C 	0.68080 0.39210 0.90840 0.23800
C 	C 	0.67870 0.21630 0.42290 -0.00000
C 	C 	0.52580 0.12840 0.42270 0.14000
C 	C 	0.68020 0.25970 0.42230 -0.06800
C 	C 	0.47240 0.20950 0.46780 0.14300
C 	C 	0.46530 0.25040 0.65730 0.16900
C 	C 	0.54190 0.22690 0.45700 -0.18000
C 	C 	0.39790 0.14480 0.46790 0.54700
C 	C 	0.39830 0.17470 0.59170 0.57200
C 	C 	0.53950 0.17620 0.61280 0.18500
C 	C 	0.60600 0.19970 0.63900 -0.24600
C 	C 	0.46520 0.16110 0.45040 -0.25600
C 	C 	0.69110 0.34510 0.40490 -0.19300
C 	C 	0.68990 0.39410 0.41740 0.15400
C 	C 	0.67860 0.29990 0.57110 -0.04100
C 	C 	0.60420 0.32630 0.57440 0.15000
C 	C 	0.46800 0.37950 0.58010 -0.28900
C 	C 	0.68220 0.14330 0.51040 -0.27200
C 	C 	0.60530 0.57140 0.76680 0.10100
C 	C 	0.59140 0.58890 0.73530 -0.18700
C 	C 	0.67890 0.24900 0.55440 -0.02200
C 	C 	0.53250 0.31670 0.59060 -0.23400
C 	C 	0.68080 0.09160 0.48370 0.23800
C 	C 	0.67870 0.57710 0.79340 -0.00000
C 	C 	0.52580 0.57730 0.70570 0.14000
C 	C 	0.68020 0.57770 0.83740 -0.06800
C 	C 	0.47240 0.53220 0.74170 0.14400
C 	C 	0.46530 0.34270 0.59310 0.16900
C 	C 	0.54190 0.54300 0.76990 -0.18000
C 	C 	0.39790 0.53210 0.67690 0.54700
C 	C 	0.39830 0.40830 0.58300 0.57200
C 	C 	0.53950 0.38720 0.56340 0.18500
C 	C 	0.60600 0.36100 0.56070 -0.24600
C 	C 	0.46520 0.54960 0.71070 -0.25600
C 	C 	0.69110 0.59510 0.94020 -0.19300
C 	C 	0.68990 0.58260 0.97670 0.15400
C 	C 	0.67860 0.42890 0.72880 -0.04100
C 	C 	0.60420 0.42560 0.75190 0.15000
C 	C 	0.46800 0.41990 0.79940 -0.28900
C 	C 	0.68220 0.48960 0.63290 -0.27200
C 	C 	0.60530 0.23320 0.80460 0.10000
C 	C 	0.59140 0.26470 0.85360 -0.18700
C 	C 	0.67890 0.44560 0.69460 -0.02200
C 	C 	0.53250 0.40940 0.72610 -0.23400
C 	C 	0.68080 0.51630 0.60790 0.23900
C 	C 	0.67870 0.20660 0.78370 -0.00000
C 	C 	0.52580 0.29430 0.87160 0.14000
C 	C 	0.68020 0.16260 0.74030 -0.06800
C 	C 	0.47240 0.25830 0.79050 0.14400
C 	C 	0.46530 0.40690 0.74960 0.16900
C 	C 	0.54190 0.23010 0.77310 -0.18000
C 	C 	0.39790 0.32310 0.85520 0.54700
C 	C 	0.39830 0.41700 0.82530 0.57200
C 	C 	0.53950 0.43660 0.82380 0.18500
C 	C 	0.60600 0.43930 0.80030 -0.24600
C 	C 	0.46520 0.28930 0.83890 -0.25600
C 	C 	0.69110 0.05980 0.65490 -0.19300
C 	C 	0.68990 0.02330 0.60590 0.15400
C 	C 	0.82140 0.27120 0.70010 -0.04100
C 	C 	0.89580 0.24810 0.67370 0.15000
C 	C 	0.03200 0.20060 0.62050 -0.28900
C 	C 	0.81780 0.36710 0.85670 -0.27200
C 	C 	0.89470 0.19540 0.42860 0.10000
C 	C 	0.90860 0.14640 0.41110 -0.18700
C 	C 	0.82110 0.30540 0.75100 -0.02200
C 	C 	0.96750 0.27390 0.68330 -0.23400
C 	C 	0.81920 0.39210 0.90840 0.23800
C 	C 	0.82130 0.21630 0.42290 -0.00000
C 	C 	0.97420 0.12840 0.42270 0.14000
C 	C 	0.81980 0.25970 0.42230 -0.06800
C 	C 	0.02760 0.20950 0.46780 0.14400
C 	C 	0.03470 0.25040 0.65730 0.16900
C 	C 	0.95810 0.22690 0.45700 -0.18000
C 	C 	0.10210 0.14480 0.46790 0.54600
C 	C 	0.10170 0.17470 0.59170 0.57200
C 	C 	0.96050 0.17620 0.61280 0.18500
C 	C 	0.89400 0.19970 0.63900 -0.24600
C 	C 	0.03480 0.16110 0.45040 -0.25500
C 	C 	0.80890 0.34510 0.40490 -0.19300
C 	C 	0.81010 0.39410 0.41740 0.15400
C 	C 	0.82140 0.29990 0.57110 -0.04100
C 	C 	0.89580 0.32630 0.57440 0.15100
C 	C 	0.03200 0.37950 0.58010 -0.28900
C 	C 	0.81780 0.14330 0.51040 -0.27200
C 	C 	0.89470 0.57140 0.76680 0.10100
C 	C 	0.90860 0.58890 0.73530 -0.18700
C 	C 	0.82110 0.24900 0.55440 -0.02200
C 	C 	0.96750 0.31670 0.59060 -0.23400
C 	C 	0.81920 0.09160 0.48370 0.23800
C 	C 	0.82130 0.57710 0.79340 -0.00000
C 	C 	0.97420 0.57730 0.70570 0.14000
C 	C 	0.81980 0.57770 0.83740 -0.06800
C 	C 	0.02760 0.53220 0.74170 0.14400
C 	C 	0.03470 0.34270 0.59310 0.16900
C 	C 	0.95810 0.54300 0.76990 -0.18000
C 	C 	0.10210 0.53210 0.67690 0.54700
C 	C 	0.10170 0.40830 0.58300 0.57200
C 	C 	0.96050 0.38720 0.56340 0.18500
C 	C 	0.89400 0.36100 0.56070 -0.24600
C 	C 	0.03480 0.54960 0.71070 -0.25600
C 	C 	0.80890 0.59510 0.94020 -0.19300
C 	C 	0.81010 0.58260 0.97670 0.15400
C 	C 	0.82140 0.42890 0.72880 -0.04100
C 	C 	0.89580 0.42560 0.75190 0.15000
C 	C 	0.03200 0.41990 0.79940 -0.28900
C 	C 	0.81780 0.48960 0.63290 -0.27200
C 	C 	0.89470 0.23320 0.80460 0.10100
C 	C 	0.90860 0.26470 0.85360 -0.18700
C 	C 	0.82110 0.44560 0.69460 -0.02200
C 	C 	0.96750 0.40940 0.72610 -0.23400
C 	C 	0.81920 0.51630 0.60790 0.23900
C 	C 	0.82130 0.20660 0.78370 -0.00000
C 	C 	0.97420 0.29430 0.87160 0.13900
C 	C 	0.81980 0.16260 0.74030 -0.06800
C 	C 	0.02760 0.25830 0.79050 0.14400
C 	C 	0.03470 0.40690 0.74960 0.16900
C 	C 	0.95810 0.23010 0.77310 -0.18000
C 	C 	0.10210 0.32310 0.85520 0.54600
C 	C 	0.10170 0.41700 0.82530 0.57200
C 	C 	0.96050 0.43660 0.82380 0.18500
C 	C 	0.89400 0.43930 0.80030 -0.24600
C 	C 	0.03480 0.28930 0.83890 -0.25500
C 	C 	0.80890 0.05980 0.65490 -0.19300
C 	C 	0.81010 0.02330 0.60590 0.15400
C 	C 	0.25000 0.57960 0.32300 -0.02900
C 	C 	0.25000 0.98560 0.55800 -0.30900
C 	C 	0.25000 0.02320 0.54690 0.60400
C 	C 	0.25000 0.44090 0.01310 0.63400
C 	C 	0.25000 0.52300 0.17030 0.18400
C 	C 	0.25000 0.90620 0.57580 0.10600
C 	C 	0.25000 0.77170 0.57490 -0.07000
C 	C 	0.25000 0.86010 0.57780 -0.00600
C 	C 	0.25000 0.54560 0.22360 -0.05800
C 	C 	0.25000 0.47030 0.06760 -0.35400
C 	C 	0.25000 0.74340 0.42040 -0.02900
C 	C 	0.25000 0.57240 0.01440 -0.30900
C 	C 	0.25000 0.52370 0.97680 0.60500
C 	C 	0.25000 0.57220 0.55910 0.63500
C 	C 	0.25000 0.64730 0.47700 0.18400
C 	C 	0.25000 0.66960 0.09380 0.10600
C 	C 	0.25000 0.80320 0.22830 -0.07000
C 	C 	0.25000 0.71770 0.13990 -0.00600
C 	C 	0.25000 0.67800 0.45440 -0.05800
C 	C 	0.25000 0.59730 0.52970 -0.35400
C 	C 	0.25000 0.67700 0.25660 -0.02900
C 	C 	0.25000 0.44200 0.42760 -0.30900
C 	C 	0.25000 0.45310 0.47630 0.60400
C 	C 	0.25000 0.98690 0.42780 0.63400
C 	C 	0.25000 0.82970 0.35270 0.18400
C 	C 	0.25000 0.42420 0.33040 0.10600
C 	C 	0.25000 0.42510 0.19680 -0.07000
C 	C 	0.25000 0.42220 0.28230 -0.00600
C 	C 	0.25000 0.77640 0.32200 -0.05800
C 	C 	0.25000 0.93240 0.40270 -0.35400
C 	C 	0.75000 0.25660 0.67700 -0.02900
C 	C 	0.75000 0.42760 0.44200 -0.30900
C 	C 	0.75000 0.47630 0.45310 0.60400
C 	C 	0.75000 0.42780 0.98690 0.63400
C 	C 	0.75000 0.35270 0.82970 0.18400
C 	C 	0.75000 0.33040 0.42420 0.10600
C 	C 	0.75000 0.19680 0.42510 -0.07000
C 	C 	0.75000 0.28230 0.42220 -0.00600
C 	C 	0.75000 0.32200 0.77640 -0.05800
C 	C 	0.75000 0.40270 0.93240 -0.35400
C 	C 	0.75000 0.32300 0.57960 -0.02900
C 	C 	0.75000 0.55800 0.98560 -0.30900
C 	C 	0.75000 0.54690 0.02320 0.60400
C 	C 	0.75000 0.01310 0.44090 0.63400
C 	C 	0.75000 0.17030 0.52300 0.18400
C 	C 	0.75000 0.57580 0.90620 0.10600
C 	C 	0.75000 0.57490 0.77170 -0.07000
C 	C 	0.75000 0.57780 0.86010 -0.00600
C 	C 	0.75000 0.22360 0.54560 -0.05800
C 	C 	0.75000 0.06760 0.47030 -0.35400
C 	C 	0.75000 0.42040 0.74340 -0.02900
C 	C 	0.75000 0.01440 0.57240 -0.30900
C 	C 	0.75000 0.97680 0.52370 0.60500
C 	C 	0.75000 0.55910 0.57220 0.63500
C 	C 	0.75000 0.47700 0.64730 0.18400
C 	C 	0.75000 0.09380 0.66960 0.10600
C 	C 	0.75000 0.22830 0.80320 -0.07000
C 	C 	0.75000 0.13990 0.71770 -0.00600
C 	C 	0.75000 0.45440 0.67800 -0.05800
C 	C 	0.75000 0.52970 0.59730 -0.35400
O 	O 	0.59350 0.56999 0.44012 -0.73000
O 	O 	0.31510 0.03980 0.54210 -0.70800
O 	O 	0.66290 0.60510 0.40640 -0.68600
O 	O 	0.31460 0.43110 0.99205 -0.73000
O 	O 	0.65630 0.68253 0.50917 -0.70000
O 	O 	0.60240 0.64159 0.54204 -0.66700
O 	O 	0.59350 0.87013 0.43001 -0.73000
O 	O 	0.31510 0.50230 0.96020 -0.70800
O 	O 	0.66290 0.80130 0.39490 -0.68600
O 	O 	0.31460 0.56095 0.56890 -0.73000
O 	O 	0.65630 0.82664 0.31747 -0.70000
O 	O 	0.60240 0.90045 0.35841 -0.66700
O 	O 	0.59350 0.55988 0.12987 -0.73000
O 	O 	0.31510 0.45790 0.49770 -0.70800
O 	O 	0.66290 0.59360 0.19870 -0.68600
O 	O 	0.31460 0.00795 0.43905 -0.73000
O 	O 	0.65630 0.49083 0.17336 -0.70000
O 	O 	0.60240 0.45796 0.09955 -0.66700
O 	O 	0.90650 0.56999 0.44012 -0.73000
O 	O 	0.18490 0.03980 0.54210 -0.70800
O 	O 	0.83710 0.60510 0.40640 -0.68600
O 	O 	0.18540 0.43110 0.99205 -0.73000
O 	O 	0.84370 0.68253 0.50917 -0.70000
O 	O 	0.89760 0.64159 0.54204 -0.66700
O 	O 	0.90650 0.87013 0.43001 -0.73000
O 	O 	0.18490 0.50230 0.96020 -0.70800
O 	O 	0.83710 0.80130 0.39490 -0.68600
O 	O 	0.18540 0.56095 0.56890 -0.73000
O 	O 	0.84370 0.82664 0.31747 -0.70000
O 	O 	0.89760 0.90045 0.35841 -0.66700
O 	O 	0.90650 0.55988 0.12987 -0.73000
O 	O 	0.18490 0.45790 0.49770 -0.70800
O 	O 	0.83710 0.59360 0.19870 -0.68600
O 	O 	0.18540 0.00795 0.43905 -0.73000
O 	O 	0.84370 0.49083 0.17336 -0.70000
O 	O 	0.89760 0.45796 0.09955 -0.66700
O 	O 	0.40650 0.12987 0.55988 -0.73000
O 	O 	0.68490 0.49770 0.45790 -0.70800
O 	O 	0.33710 0.19870 0.59360 -0.68600
O 	O 	0.68540 0.43905 0.00795 -0.73000
O 	O 	0.34370 0.17336 0.49083 -0.70000
O 	O 	0.39760 0.09955 0.45796 -0.66700
O 	O 	0.40650 0.44012 0.56999 -0.73000
O 	O 	0.68490 0.54210 0.03980 -0.70800
O 	O 	0.33710 0.40640 0.60510 -0.68600
O 	O 	0.68540 0.99205 0.43110 -0.73000
O 	O 	0.34370 0.50917 0.68253 -0.70000
O 	O 	0.39760 0.54204 0.64159 -0.66700
O 	O 	0.40650 0.43001 0.87013 -0.73000
O 	O 	0.68490 0.96020 0.50230 -0.70800
O 	O 	0.33710 0.39490 0.80130 -0.68600
O 	O 	0.68540 0.56890 0.56095 -0.73000
O 	O 	0.34370 0.31747 0.82664 -0.70000
O 	O 	0.39760 0.35841 0.90045 -0.66700
O 	O 	0.09350 0.12987 0.55988 -0.73000
O 	O 	0.81510 0.49770 0.45790 -0.70800
O 	O 	0.16290 0.19870 0.59360 -0.68600
O 	O 	0.81460 0.43905 0.00795 -0.73000
O 	O 	0.15630 0.17336 0.49083 -0.70000
O 	O 	0.10240 0.09955 0.45796 -0.66700
O 	O 	0.09350 0.44012 0.56999 -0.73000
O 	O 	0.81510 0.54210 0.03980 -0.70800
O 	O 	0.16290 0.40640 0.60510 -0.68600
O 	O 	0.81460 0.99205 0.43110 -0.73000
O 	O 	0.15630 0.50917 0.68253 -0.70000
O 	O 	0.10240 0.54204 0.64159 -0.66700
O 	O 	0.09350 0.43001 0.87013 -0.73000
O 	O 	0.81510 0.96020 0.50230 -0.70800
O 	O 	0.16290 0.39490 0.80130 -0.68600
O 	O 	0.81460 0.56890 0.56095 -0.73000
O 	O 	0.15630 0.31747 0.82664 -0.70000
O 	O 	0.10240 0.35841 0.90045 -0.66700
O 	O 	0.75000 0.59340 0.48574 -1.20500
O 	O 	0.75000 0.89234 0.40660 -1.20500
O 	O 	0.75000 0.51426 0.10766 -1.20500
O 	O 	0.25000 0.10766 0.51426 -1.20500
O 	O 	0.25000 0.48574 0.59340 -1.20500
O 	O 	0.25000 0.40660 0.89234 -1.20500
