data_crystal

_cell_length_a 32.41090
_cell_length_b 19.23580
_cell_length_c 31.47950
_cell_angle_alpha 90.00000
_cell_angle_beta  109.20800
_cell_angle_gamma 90.00000

_symmetry_space_group_name_	'P 1'
_symmetry_space_group_name_H-M	'P 1'

loop_
_symmetry_equiv_pos_as_xyz
  x,y,z

loop_
_atom_site_label
_atom_site_type_symbol
_atom_site_fract_x
_atom_site_fract_y
_atom_site_fract_z
_atom_site_charge
C 	C 	0.35752 0.29037 0.56809 0.01300
C 	C 	0.35278 0.22273 0.58445 -0.01100
C 	C 	0.34925 0.16549 0.55644 0.00500
C 	C 	0.35292 0.17400 0.51287 -0.01700
C 	C 	0.14254 0.25971 0.50281 0.01200
C 	C 	0.36099 0.29881 0.52557 -0.01200
C 	C 	0.15668 0.13928 0.50298 0.05300
C 	C 	0.31585 0.41339 0.51608 0.04300
C 	C 	0.31001 0.39467 0.55948 -0.02100
C 	C 	0.33138 0.33854 0.58516 0.00600
C 	C 	0.31137 0.30032 0.61160 -0.02000
C 	C 	0.32823 0.22804 0.61634 0.05000
C 	C 	0.29380 0.16666 0.61406 0.05000
C 	C 	0.28959 0.11289 0.57918 -0.01500
C 	C 	0.31720 0.11016 0.55385 0.00600
C 	C 	0.30153 0.08538 0.50871 -0.02000
C 	C 	0.32725 0.11832 0.48317 0.04200
C 	C 	0.19874 0.35828 0.56780 0.04600
C 	C 	0.19507 0.28416 0.57896 -0.00800
C 	C 	0.16724 0.23836 0.54926 0.01700
C 	C 	0.17829 0.16730 0.54882 -0.01200
C 	C 	0.21899 0.14421 0.57611 0.02000
C 	C 	0.24443 0.09559 0.55891 0.01300
C 	C 	0.22896 0.07100 0.51495 -0.02300
C 	C 	0.25781 0.06806 0.48926 0.01000
C 	C 	0.26647 0.41074 0.55731 0.00100
C 	C 	0.24633 0.37349 0.58336 -0.02200
C 	C 	0.26898 0.31625 0.60962 0.00600
C 	C 	0.23697 0.26028 0.60726 0.01200
C 	C 	0.24827 0.19050 0.60702 -0.01300
C 	C 	0.35899 0.43415 0.50979 -0.16400
C 	C 	0.33751 0.08876 0.44343 -0.14800
C 	C 	0.33240 0.17965 0.65499 -0.15600
O 	O 	0.40095 0.45410 0.58806 -0.27200
C 	C 	0.39972 0.43954 0.55073 0.32900
O 	O 	0.43385 0.42309 0.53814 -0.18600
C 	C 	0.47581 0.42067 0.57333 -0.19300
H 	H 	0.47520 0.45140 0.59830 0.09500
H 	H 	0.49860 0.43830 0.56150 0.09900
C 	C 	0.48754 0.34756 0.59111 0.40500
O 	O 	0.46279 0.29868 0.57114 -0.45300
O 	O 	0.52137 0.34032 0.62416 -0.47400
O 	O 	0.33378 0.48356 0.43566 -0.26000
C 	C 	0.35592 0.48747 0.47418 0.33500
O 	O 	0.38033 0.54246 0.49288 -0.22100
C 	C 	0.38114 0.59628 0.46155 -0.12500
H 	H 	0.39610 0.63770 0.47840 0.05500
H 	H 	0.35080 0.60970 0.44420 0.07900
C 	C 	0.40452 0.57353 0.42900 0.35300
O 	O 	0.42402 0.51765 0.43405 -0.28400
O 	O 	0.40134 0.61783 0.39827 -0.46600
O 	O 	0.39233 0.15631 0.42478 -0.23500
C 	C 	0.38258 0.10781 0.44253 0.32900
O 	O 	0.40985 0.05948 0.46721 -0.18100
C 	C 	0.45535 0.06730 0.47251 -0.20900
H 	H 	0.45810 0.08810 0.44480 0.17300
H 	H 	0.46920 0.02080 0.47640 0.14700
C 	C 	0.47954 0.11297 0.51286 0.39500
O 	O 	0.45765 0.14422 0.53330 -0.53600
O 	O 	0.51984 0.11538 0.52055 -0.51100
O 	O 	0.30930 0.97560 0.44750 -0.11000
C 	C 	0.32423 0.01565 0.42768 0.28300
O 	O 	0.32650 0.00860 0.38640 -0.08100
C 	C 	0.32000 0.93950 0.36720 -0.03900
H 	H 	0.30470 0.94220 0.33430 0.02600
H 	H 	0.30200 0.91150 0.38080 0.04300
C 	C 	0.36510 0.90550 0.37670 0.17700
O 	O 	0.38830 0.89973 0.41619 -0.44800
O 	O 	0.37081 0.88170 0.34290 -0.30700
O 	O 	0.36834 0.06894 0.65801 -0.26000
C 	C 	0.37068 0.12965 0.66627 0.33100
O 	O 	0.40687 0.16498 0.68475 -0.18900
C 	C 	0.44799 0.12830 0.69856 -0.19300
H 	H 	0.44250 0.07760 0.69600 0.10400
H 	H 	0.46420 0.13910 0.73040 0.11800
C 	C 	0.47522 0.14887 0.66967 0.40600
O 	O 	0.45538 0.17112 0.63078 -0.53700
O 	O 	0.51520 0.13888 0.68702 -0.59700
O 	O 	0.30065 0.17920 0.71336 -0.23700
C 	C 	0.32433 0.20724 0.69677 0.33400
O 	O 	0.34700 0.26429 0.71049 -0.20400
C 	C 	0.34787 0.29170 0.75368 -0.17600
H 	H 	0.31920 0.28380 0.75770 0.10700
H 	H 	0.35320 0.34250 0.75450 0.08200
C 	C 	0.38357 0.25680 0.79177 0.41100
O 	O 	0.39600 0.19821 0.78480 -0.39900
O 	O 	0.39634 0.28899 0.82852 -0.45900
Zn	Zn	0.48268 0.20253 0.58728 1.18900
Zn	Zn	0.58128 0.39082 0.65820 1.20400
Zn	Zn	0.57069 0.18291 0.55420 1.18000
Zn	Zn	0.56812 0.13607 0.66473 1.15000
O 	O 	0.54642 0.19601 0.60839 -0.79600
O 	O 	0.56954 0.39205 0.71878 -0.44400
O 	O 	0.59071 0.17440 0.49730 -0.44400
C 	C 	0.62830 0.15470 0.49790 0.19600
H 	H 	0.64440 0.12720 0.52290 -0.02500
N 	N 	0.64790 0.16800 0.46780 -0.17100
C 	C 	0.62590 0.21380 0.42880 0.14000
H 	H 	0.59390 0.21070 0.42220 0.02200
H 	H 	0.63250 0.19660 0.40210 -0.01600
C 	C 	0.63950 0.28810 0.43660 -0.50000
H 	H 	0.62480 0.31510 0.40940 0.15900
H 	H 	0.67120 0.29150 0.44360 0.16900
H 	H 	0.63140 0.30640 0.46180 0.17200
C 	C 	0.69600 0.15050 0.47770 0.14600
H 	H 	0.71290 0.19360 0.47850 -0.02100
H 	H 	0.70770 0.12720 0.50730 -0.00200
C 	C 	0.69970 0.10290 0.44090 -0.51800
H 	H 	0.73030 0.08920 0.44740 0.18300
H 	H 	0.68950 0.12740 0.41200 0.18300
H 	H 	0.68180 0.06140 0.43940 0.19400
O 	O 	0.58850 0.05280 0.71830 0.03300
O 	O 	0.53182 0.04890 0.61971 5.44900
C 	C 	0.52360 0.99530 0.63620 -2.47900
H 	H 	0.54100 0.98390 0.66610 0.49200
N 	N 	0.49160 0.95190 0.61430 0.53400
C 	C 	0.45820 0.97070 0.57310 -0.85700
H 	H 	0.47000 0.00620 0.55740 0.09200
H 	H 	0.45030 0.92930 0.55340 0.31900
C 	C 	0.41880 0.99820 0.58010 -0.21300
H 	H 	0.40510 0.03270 0.55690 0.07700
H 	H 	0.39820 0.96010 0.57840 0.05100
H 	H 	0.42670 0.02010 0.60980 0.13100
C 	C 	0.48930 0.88330 0.63450 -0.78700
H 	H 	0.50870 0.88330 0.66620 0.30000
H 	H 	0.45910 0.87510 0.63420 0.26400
C 	C 	0.50280 0.82440 0.60940 -0.36500
H 	H 	0.50660 0.78160 0.62710 0.09000
H 	H 	0.48010 0.81740 0.58020 0.05800
H 	H 	0.53040 0.83640 0.60480 0.17900
O 	O 	0.31200 0.96730 0.44400 -0.11700
O 	O 	0.33440 0.01020 0.38980 -0.09200
C 	C 	0.32200 0.94800 0.36360 -0.10000
H 	H 	0.32070 0.95780 0.33230 0.10400
H 	H 	0.29230 0.93410 0.36280 0.06700
C 	C 	0.35340 0.88750 0.38190 0.23400
O 	O 	0.33650 0.83240 0.36230 -0.38700
H 	H 	0.35330 0.79880 0.37290 0.18900
C 	C 	0.55480 0.43970 0.73610 0.92000
H 	H 	0.54190 0.47820 0.71750 -0.29400
N 	N 	0.55550 0.44100 0.77850 -0.29200
C 	C 	0.58120 0.38430 0.81000 -0.02700
H 	H 	0.60420 0.36540 0.79900 0.07100
H 	H 	0.59520 0.40330 0.84060 0.08900
C 	C 	0.55060 0.33070 0.81080 0.60900
H 	H 	0.56650 0.28870 0.82460 -0.12200
H 	H 	0.53200 0.32030 0.78000 -0.41400
H 	H 	0.53240 0.34650 0.82840 -0.12100
C 	C 	0.52680 0.49160 0.79280 0.39100
H 	H 	0.51350 0.46820 0.81320 -0.10200
H 	H 	0.50300 0.50850 0.76620 -0.08500
C 	C 	0.55470 0.55230 0.81690 -1.05500
H 	H 	0.53650 0.58560 0.82620 0.32100
H 	H 	0.56770 0.57530 0.79660 0.39200
H 	H 	0.57800 0.53530 0.84350 0.47200
C 	C 	0.58530 0.44110 0.74610 -0.63000
H 	H 	0.59670 0.48090 0.73580 0.17700
N 	N 	0.58640 0.43880 0.78820 0.00400
C 	C 	0.55240 0.39380 0.79770 -0.02900
H 	H 	0.56760 0.36220 0.82280 -0.20200
H 	H 	0.53330 0.42430 0.80830 0.03900
C 	C 	0.52450 0.35110 0.76060 0.23400
H 	H 	0.52540 0.36940 0.73190 -0.05600
H 	H 	0.49440 0.35240 0.76100 -0.08500
H 	H 	0.53500 0.30300 0.76430 0.20200
C 	C 	0.60370 0.50450 0.81670 0.52200
H 	H 	0.59190 0.54670 0.79890 -0.21300
H 	H 	0.59460 0.50450 0.84370 -0.29700
C 	C 	0.65380 0.50370 0.83040 -0.83100
H 	H 	0.66560 0.54610 0.84730 0.26500
H 	H 	0.66240 0.50150 0.80340 0.26700
H 	H 	0.66520 0.46300 0.84940 0.28000
C 	C 	0.59470 0.11520 0.48480 0.12100
H 	H 	0.59870 0.07760 0.50530 0.00600
N 	N 	0.59360 0.10330 0.44330 -0.15400
C 	C 	0.57410 0.15520 0.40780 0.01800
H 	H 	0.58910 0.20010 0.41770 -0.02200
H 	H 	0.58050 0.14080 0.38040 -0.02000
C 	C 	0.52710 0.16720 0.39520 -0.25500
H 	H 	0.51640 0.18840 0.36530 0.19000
H 	H 	0.52120 0.19840 0.41720 0.10300
H 	H 	0.51220 0.12280 0.39480 0.47300
C 	C 	0.60260 0.03010 0.43030 0.09300
H 	H 	0.62200 0.03210 0.41170 -0.01000
H 	H 	0.61750 0.00280 0.45770 0.00900
C 	C 	0.55980 0.99560 0.40410 0.01000
H 	H 	0.56560 0.94950 0.39410 -0.10500
H 	H 	0.54450 0.02410 0.37780 0.04300
H 	H 	0.54160 0.99090 0.42330 0.39300
O 	O 	0.58590 0.04170 0.67170 -1.66600
C 	C 	0.56350 0.00930 0.63880 3.77500
H 	H 	0.54170 0.03170 0.61480 -5.35900
O 	O 	0.57120 0.94040 0.63780 -0.77400
C 	C 	0.85752 0.79037 0.56809 0.01300
C 	C 	0.85278 0.72273 0.58445 -0.01100
C 	C 	0.84925 0.66549 0.55644 0.00500
C 	C 	0.85292 0.67400 0.51287 -0.01700
C 	C 	0.64254 0.75971 0.50281 0.01200
C 	C 	0.86099 0.79881 0.52557 -0.01200
C 	C 	0.65668 0.63928 0.50298 0.05300
C 	C 	0.81585 0.91339 0.51608 0.04300
C 	C 	0.81001 0.89467 0.55948 -0.02100
C 	C 	0.83138 0.83854 0.58516 0.00600
C 	C 	0.81137 0.80032 0.61160 -0.02000
C 	C 	0.82823 0.72804 0.61634 0.05000
C 	C 	0.79380 0.66666 0.61406 0.05000
C 	C 	0.78959 0.61289 0.57918 -0.01500
C 	C 	0.81720 0.61016 0.55385 0.00600
C 	C 	0.80153 0.58538 0.50871 -0.02000
C 	C 	0.82725 0.61832 0.48317 0.04200
C 	C 	0.69874 0.85828 0.56780 0.04600
C 	C 	0.69507 0.78416 0.57896 -0.00800
C 	C 	0.66724 0.73836 0.54926 0.01700
C 	C 	0.67829 0.66730 0.54882 -0.01200
C 	C 	0.71899 0.64421 0.57611 0.02000
C 	C 	0.74443 0.59559 0.55891 0.01300
C 	C 	0.72896 0.57100 0.51495 -0.02300
C 	C 	0.75781 0.56806 0.48926 0.01000
C 	C 	0.76647 0.91074 0.55731 0.00100
C 	C 	0.74633 0.87349 0.58336 -0.02200
C 	C 	0.76898 0.81625 0.60962 0.00600
C 	C 	0.73697 0.76028 0.60726 0.01200
C 	C 	0.74827 0.69050 0.60702 -0.01300
C 	C 	0.85899 0.93415 0.50979 -0.16400
C 	C 	0.83751 0.58876 0.44343 -0.14800
C 	C 	0.83240 0.67965 0.65499 -0.15500
O 	O 	0.90095 0.95410 0.58806 -0.27200
C 	C 	0.89972 0.93954 0.55073 0.32900
O 	O 	0.93385 0.92309 0.53814 -0.18600
C 	C 	0.97581 0.92067 0.57333 -0.19300
H 	H 	0.97520 0.95140 0.59830 0.09500
H 	H 	0.99860 0.93830 0.56150 0.09900
C 	C 	0.98754 0.84756 0.59111 0.40600
O 	O 	0.96279 0.79868 0.57114 -0.45300
O 	O 	0.02137 0.84032 0.62416 -0.47400
O 	O 	0.83378 0.98356 0.43566 -0.26000
C 	C 	0.85592 0.98747 0.47418 0.33400
O 	O 	0.88033 0.04246 0.49288 -0.22100
C 	C 	0.88114 0.09628 0.46155 -0.12500
H 	H 	0.89610 0.13770 0.47840 0.05500
H 	H 	0.85080 0.10970 0.44420 0.07900
C 	C 	0.90452 0.07353 0.42900 0.35400
O 	O 	0.92402 0.01765 0.43405 -0.28400
O 	O 	0.90134 0.11783 0.39827 -0.46600
O 	O 	0.89233 0.65631 0.42478 -0.23500
C 	C 	0.88258 0.60781 0.44253 0.32800
O 	O 	0.90985 0.55948 0.46721 -0.18100
C 	C 	0.95535 0.56730 0.47251 -0.20900
H 	H 	0.95810 0.58810 0.44480 0.17300
H 	H 	0.96920 0.52080 0.47640 0.14700
C 	C 	0.97954 0.61297 0.51286 0.39500
O 	O 	0.95765 0.64422 0.53330 -0.53600
O 	O 	0.01984 0.61538 0.52055 -0.51100
O 	O 	0.80930 0.47560 0.44750 -0.11000
C 	C 	0.82423 0.51565 0.42768 0.28300
O 	O 	0.82650 0.50860 0.38640 -0.08100
C 	C 	0.82000 0.43950 0.36720 -0.03800
H 	H 	0.80470 0.44220 0.33430 0.02600
H 	H 	0.80200 0.41150 0.38080 0.04300
C 	C 	0.86510 0.40550 0.37670 0.17700
O 	O 	0.88830 0.39973 0.41619 -0.44800
O 	O 	0.87081 0.38170 0.34290 -0.30700
O 	O 	0.86834 0.56894 0.65801 -0.25900
C 	C 	0.87068 0.62965 0.66627 0.33100
O 	O 	0.90687 0.66498 0.68475 -0.18900
C 	C 	0.94799 0.62830 0.69856 -0.19300
H 	H 	0.94250 0.57760 0.69600 0.10500
H 	H 	0.96420 0.63910 0.73040 0.11800
C 	C 	0.97522 0.64887 0.66967 0.40700
O 	O 	0.95538 0.67112 0.63078 -0.53700
O 	O 	0.01520 0.63888 0.68702 -0.59700
O 	O 	0.80065 0.67920 0.71336 -0.23700
C 	C 	0.82433 0.70724 0.69677 0.33400
O 	O 	0.84700 0.76429 0.71049 -0.20400
C 	C 	0.84787 0.79170 0.75368 -0.17600
H 	H 	0.81920 0.78380 0.75770 0.10700
H 	H 	0.85320 0.84250 0.75450 0.08200
C 	C 	0.88357 0.75680 0.79177 0.41100
O 	O 	0.89600 0.69821 0.78480 -0.39900
O 	O 	0.89634 0.78899 0.82852 -0.45900
Zn	Zn	0.98268 0.70253 0.58728 1.18900
Zn	Zn	0.08128 0.89082 0.65820 1.20400
Zn	Zn	0.07069 0.68291 0.55420 1.18000
Zn	Zn	0.06812 0.63607 0.66473 1.15000
O 	O 	0.04642 0.69601 0.60839 -0.79600
O 	O 	0.06954 0.89205 0.71878 -0.44400
O 	O 	0.09071 0.67440 0.49730 -0.44400
C 	C 	0.12830 0.65470 0.49790 0.19600
H 	H 	0.14440 0.62720 0.52290 -0.02500
N 	N 	0.14790 0.66800 0.46780 -0.17100
C 	C 	0.12590 0.71380 0.42880 0.14000
H 	H 	0.09390 0.71070 0.42220 0.02200
H 	H 	0.13250 0.69660 0.40210 -0.01600
C 	C 	0.13950 0.78810 0.43660 -0.50000
H 	H 	0.12480 0.81510 0.40940 0.15900
H 	H 	0.17120 0.79150 0.44360 0.16900
H 	H 	0.13140 0.80640 0.46180 0.17200
C 	C 	0.19600 0.65050 0.47770 0.14600
H 	H 	0.21290 0.69360 0.47850 -0.02100
H 	H 	0.20770 0.62720 0.50730 -0.00200
C 	C 	0.19970 0.60290 0.44090 -0.51800
H 	H 	0.23030 0.58920 0.44740 0.18300
H 	H 	0.18950 0.62740 0.41200 0.18200
H 	H 	0.18180 0.56140 0.43940 0.19400
O 	O 	0.08850 0.55280 0.71830 0.03300
O 	O 	0.03182 0.54890 0.61971 5.43800
C 	C 	0.02360 0.49530 0.63620 -2.47600
H 	H 	0.04100 0.48390 0.66610 0.49200
N 	N 	0.99160 0.45190 0.61430 0.53400
C 	C 	0.95820 0.47070 0.57310 -0.86500
H 	H 	0.97000 0.50620 0.55740 0.09300
H 	H 	0.95030 0.42930 0.55340 0.32100
C 	C 	0.91880 0.49820 0.58010 -0.21100
H 	H 	0.90510 0.53270 0.55690 0.07600
H 	H 	0.89820 0.46010 0.57840 0.05100
H 	H 	0.92670 0.52010 0.60980 0.13100
C 	C 	0.98930 0.38330 0.63450 -0.78700
H 	H 	0.00870 0.38330 0.66620 0.30000
H 	H 	0.95910 0.37510 0.63420 0.26300
C 	C 	0.00280 0.32440 0.60940 -0.36500
H 	H 	0.00660 0.28160 0.62710 0.09000
H 	H 	0.98010 0.31740 0.58020 0.05800
H 	H 	0.03040 0.33640 0.60480 0.17900
O 	O 	0.81200 0.46730 0.44400 -0.11700
O 	O 	0.83440 0.51020 0.38980 -0.09200
C 	C 	0.82200 0.44800 0.36360 -0.10000
H 	H 	0.82070 0.45780 0.33230 0.10500
H 	H 	0.79230 0.43410 0.36280 0.06700
C 	C 	0.85340 0.38750 0.38190 0.23400
O 	O 	0.83650 0.33240 0.36230 -0.38700
H 	H 	0.85330 0.29880 0.37290 0.18900
C 	C 	0.05480 0.93970 0.73610 0.92200
H 	H 	0.04190 0.97820 0.71750 -0.29500
N 	N 	0.05550 0.94100 0.77850 -0.29400
C 	C 	0.08120 0.88430 0.81000 -0.02400
H 	H 	0.10420 0.86540 0.79900 0.07100
H 	H 	0.09520 0.90330 0.84060 0.08900
C 	C 	0.05060 0.83070 0.81080 0.60700
H 	H 	0.06650 0.78870 0.82460 -0.12100
H 	H 	0.03200 0.82030 0.78000 -0.41200
H 	H 	0.03240 0.84650 0.82840 -0.12000
C 	C 	0.02680 0.99160 0.79280 0.40200
H 	H 	0.01350 0.96820 0.81320 -0.10500
H 	H 	0.00300 0.00850 0.76620 -0.09000
C 	C 	0.05470 0.05230 0.81690 -1.07200
H 	H 	0.03650 0.08560 0.82620 0.32500
H 	H 	0.06770 0.07530 0.79660 0.39800
H 	H 	0.07800 0.03530 0.84350 0.47900
C 	C 	0.08530 0.94110 0.74610 -0.63200
H 	H 	0.09670 0.98090 0.73580 0.17700
N 	N 	0.08640 0.93880 0.78820 0.00400
C 	C 	0.05240 0.89380 0.79770 -0.03000
H 	H 	0.06760 0.86220 0.82280 -0.20200
H 	H 	0.03330 0.92430 0.80830 0.03800
C 	C 	0.02450 0.85110 0.76060 0.23300
H 	H 	0.02540 0.86940 0.73190 -0.05600
H 	H 	0.99440 0.85240 0.76100 -0.08500
H 	H 	0.03500 0.80300 0.76430 0.20100
C 	C 	0.10370 0.00450 0.81670 0.53000
H 	H 	0.09190 0.04670 0.79890 -0.21700
H 	H 	0.09460 0.00450 0.84370 -0.30300
C 	C 	0.15380 0.00370 0.83040 -0.84400
H 	H 	0.16560 0.04610 0.84730 0.26800
H 	H 	0.16240 0.00150 0.80340 0.27000
H 	H 	0.16520 0.96300 0.84940 0.28400
C 	C 	0.09470 0.61520 0.48480 0.12000
H 	H 	0.09870 0.57760 0.50530 0.00600
N 	N 	0.09360 0.60330 0.44330 -0.15300
C 	C 	0.07410 0.65520 0.40780 0.01800
H 	H 	0.08910 0.70010 0.41770 -0.02200
H 	H 	0.08050 0.64080 0.38040 -0.02000
C 	C 	0.02710 0.66720 0.39520 -0.25600
H 	H 	0.01640 0.68840 0.36530 0.19000
H 	H 	0.02120 0.69840 0.41720 0.10300
H 	H 	0.01220 0.62280 0.39480 0.47300
C 	C 	0.10260 0.53010 0.43030 0.09300
H 	H 	0.12200 0.53210 0.41170 -0.01000
H 	H 	0.11750 0.50280 0.45770 0.00800
C 	C 	0.05980 0.49560 0.40410 0.00900
H 	H 	0.06560 0.44950 0.39410 -0.10500
H 	H 	0.04450 0.52410 0.37780 0.04400
H 	H 	0.04160 0.49090 0.42330 0.39700
O 	O 	0.08590 0.54170 0.67170 -1.66400
C 	C 	0.06350 0.50930 0.63880 3.77100
H 	H 	0.04170 0.53170 0.61480 -5.35000
O 	O 	0.07120 0.44040 0.63780 -0.77400
C 	C 	0.64248 0.29037 0.93191 0.01500
C 	C 	0.64722 0.22273 0.91555 -0.01200
C 	C 	0.65075 0.16549 0.94356 0.00600
C 	C 	0.64708 0.17400 0.98713 -0.02200
C 	C 	0.85746 0.25971 0.99719 0.01000
C 	C 	0.63901 0.29881 0.97443 -0.01500
C 	C 	0.84332 0.13928 0.99702 0.04800
C 	C 	0.68415 0.41339 0.98392 0.04300
C 	C 	0.68999 0.39467 0.94052 -0.02100
C 	C 	0.66862 0.33854 0.91484 0.00600
C 	C 	0.68863 0.30032 0.88840 -0.02000
C 	C 	0.67177 0.22804 0.88366 0.05000
C 	C 	0.70620 0.16666 0.88594 0.05000
C 	C 	0.71041 0.11289 0.92082 -0.01700
C 	C 	0.68280 0.11016 0.94615 0.00800
C 	C 	0.69847 0.08538 0.99129 -0.02700
C 	C 	0.67275 0.11832 0.01683 0.04800
C 	C 	0.80126 0.35828 0.93220 0.04600
C 	C 	0.80493 0.28416 0.92104 -0.00800
C 	C 	0.83276 0.23836 0.95074 0.01700
C 	C 	0.82171 0.16730 0.95118 -0.01000
C 	C 	0.78101 0.14421 0.92389 0.01900
C 	C 	0.75557 0.09559 0.94109 0.01600
C 	C 	0.77104 0.07100 0.98505 -0.02900
C 	C 	0.74219 0.06806 0.01074 0.01700
C 	C 	0.73353 0.41074 0.94269 0.00100
C 	C 	0.75367 0.37349 0.91664 -0.02200
C 	C 	0.73102 0.31625 0.89038 0.00600
C 	C 	0.76303 0.26028 0.89274 0.01100
C 	C 	0.75173 0.19050 0.89298 -0.01300
C 	C 	0.64101 0.43415 0.99021 -0.16500
C 	C 	0.66249 0.08876 0.05657 -0.14900
C 	C 	0.66760 0.17965 0.84501 -0.15600
O 	O 	0.59905 0.45410 0.91194 -0.27200
C 	C 	0.60028 0.43954 0.94927 0.32900
O 	O 	0.56615 0.42309 0.96186 -0.18600
C 	C 	0.52419 0.42067 0.92667 -0.19300
H 	H 	0.52480 0.45140 0.90170 0.09500
H 	H 	0.50140 0.43830 0.93850 0.09900
C 	C 	0.51246 0.34756 0.90889 0.40500
O 	O 	0.53721 0.29868 0.92886 -0.45300
O 	O 	0.47863 0.34032 0.87584 -0.47400
O 	O 	0.66622 0.48356 0.06434 -0.26000
C 	C 	0.64408 0.48747 0.02582 0.33500
O 	O 	0.61967 0.54246 0.00712 -0.22100
C 	C 	0.61886 0.59628 0.03845 -0.12500
H 	H 	0.60390 0.63770 0.02160 0.05500
H 	H 	0.64920 0.60970 0.05580 0.07800
C 	C 	0.59548 0.57353 0.07100 0.35300
O 	O 	0.57598 0.51765 0.06595 -0.28400
O 	O 	0.59866 0.61783 0.10173 -0.46600
O 	O 	0.60767 0.15631 0.07522 -0.23500
C 	C 	0.61742 0.10781 0.05747 0.32900
O 	O 	0.59015 0.05948 0.03279 -0.18000
C 	C 	0.54465 0.06730 0.02749 -0.20600
H 	H 	0.54190 0.08810 0.05520 0.17300
H 	H 	0.53080 0.02080 0.02360 0.14800
C 	C 	0.52046 0.11297 0.98714 0.39300
O 	O 	0.54235 0.14422 0.96670 -0.53600
O 	O 	0.48016 0.11538 0.97945 -0.51100
O 	O 	0.69070 0.97560 0.05250 -0.11100
C 	C 	0.67577 0.01565 0.07232 0.28700
O 	O 	0.67350 0.00860 0.11360 -0.08100
C 	C 	0.68000 0.93950 0.13280 -0.03900
H 	H 	0.69530 0.94220 0.16570 0.02600
H 	H 	0.69800 0.91150 0.11920 0.04300
C 	C 	0.63490 0.90550 0.12330 0.17700
O 	O 	0.61170 0.89973 0.08381 -0.44800
O 	O 	0.62919 0.88170 0.15710 -0.30700
O 	O 	0.63166 0.06894 0.84199 -0.26000
C 	C 	0.62932 0.12965 0.83373 0.33100
O 	O 	0.59313 0.16498 0.81525 -0.18900
C 	C 	0.55201 0.12830 0.80144 -0.19300
H 	H 	0.55750 0.07760 0.80400 0.10400
H 	H 	0.53580 0.13910 0.76960 0.11800
C 	C 	0.52478 0.14887 0.83033 0.40600
O 	O 	0.54462 0.17112 0.86922 -0.53700
O 	O 	0.48480 0.13888 0.81298 -0.59800
O 	O 	0.69935 0.17920 0.78664 -0.23700
C 	C 	0.67567 0.20724 0.80323 0.33400
O 	O 	0.65300 0.26429 0.78951 -0.20400
C 	C 	0.65213 0.29170 0.74632 -0.17600
H 	H 	0.68080 0.28380 0.74230 0.10700
H 	H 	0.64680 0.34250 0.74550 0.08200
C 	C 	0.61643 0.25680 0.70823 0.41100
O 	O 	0.60400 0.19821 0.71520 -0.39900
O 	O 	0.60366 0.28899 0.67148 -0.45900
Zn	Zn	0.51732 0.20253 0.91272 1.18800
Zn	Zn	0.41872 0.39082 0.84180 1.20400
Zn	Zn	0.42931 0.18291 0.94580 1.18000
Zn	Zn	0.43188 0.13607 0.83527 1.15000
O 	O 	0.45358 0.19601 0.89161 -0.79700
O 	O 	0.43046 0.39205 0.78122 -0.44400
O 	O 	0.40929 0.17440 0.00270 -0.44500
C 	C 	0.37170 0.15470 0.00210 0.19700
H 	H 	0.35560 0.12720 0.97710 -0.02700
N 	N 	0.35210 0.16800 0.03220 -0.17200
C 	C 	0.37410 0.21380 0.07120 0.14100
H 	H 	0.40610 0.21070 0.07780 0.02100
H 	H 	0.36750 0.19660 0.09790 -0.01600
C 	C 	0.36050 0.28810 0.06340 -0.50100
H 	H 	0.37520 0.31510 0.09060 0.15900
H 	H 	0.32880 0.29150 0.05640 0.17000
H 	H 	0.36860 0.30640 0.03820 0.17300
C 	C 	0.30400 0.15050 0.02230 0.15300
H 	H 	0.28710 0.19360 0.02150 -0.02300
H 	H 	0.29230 0.12720 0.99270 -0.00500
C 	C 	0.30030 0.10290 0.05910 -0.52400
H 	H 	0.26970 0.08920 0.05260 0.18500
H 	H 	0.31050 0.12740 0.08800 0.18400
H 	H 	0.31820 0.06140 0.06060 0.19600
O 	O 	0.41150 0.05280 0.78170 0.03300
O 	O 	0.46818 0.04890 0.88029 5.46300
C 	C 	0.47640 0.99530 0.86380 -2.48000
H 	H 	0.45900 0.98390 0.83390 0.49200
N 	N 	0.50840 0.95190 0.88570 0.53100
C 	C 	0.54180 0.97070 0.92690 -0.82800
H 	H 	0.53000 0.00620 0.94260 0.08900
H 	H 	0.54970 0.92930 0.94660 0.30900
C 	C 	0.58120 0.99820 0.91990 -0.22000
H 	H 	0.59490 0.03270 0.94310 0.07700
H 	H 	0.60180 0.96010 0.92160 0.05300
H 	H 	0.57330 0.02010 0.89020 0.13100
C 	C 	0.51070 0.88330 0.86550 -0.78400
H 	H 	0.49130 0.88330 0.83380 0.29900
H 	H 	0.54090 0.87510 0.86580 0.26300
C 	C 	0.49720 0.82440 0.89060 -0.36400
H 	H 	0.49340 0.78160 0.87290 0.09000
H 	H 	0.51990 0.81740 0.91980 0.05700
H 	H 	0.46960 0.83640 0.89520 0.17900
O 	O 	0.68800 0.96730 0.05600 -0.11800
O 	O 	0.66560 0.01020 0.11020 -0.09200
C 	C 	0.67800 0.94800 0.13640 -0.10000
H 	H 	0.67930 0.95780 0.16770 0.10400
H 	H 	0.70770 0.93410 0.13720 0.06600
C 	C 	0.64660 0.88750 0.11810 0.23400
O 	O 	0.66350 0.83240 0.13770 -0.38700
H 	H 	0.64670 0.79880 0.12710 0.18900
C 	C 	0.44520 0.43970 0.76390 0.92000
H 	H 	0.45810 0.47820 0.78250 -0.29400
N 	N 	0.44450 0.44100 0.72150 -0.29200
C 	C 	0.41880 0.38430 0.69000 -0.02700
H 	H 	0.39580 0.36540 0.70100 0.07100
H 	H 	0.40480 0.40330 0.65940 0.08900
C 	C 	0.44940 0.33070 0.68920 0.60900
H 	H 	0.43350 0.28870 0.67540 -0.12200
H 	H 	0.46800 0.32030 0.72000 -0.41400
H 	H 	0.46760 0.34650 0.67160 -0.12100
C 	C 	0.47320 0.49160 0.70720 0.39100
H 	H 	0.48650 0.46820 0.68680 -0.10200
H 	H 	0.49700 0.50850 0.73380 -0.08500
C 	C 	0.44530 0.55230 0.68310 -1.05500
H 	H 	0.46350 0.58560 0.67380 0.32100
H 	H 	0.43230 0.57530 0.70340 0.39200
H 	H 	0.42200 0.53530 0.65650 0.47200
C 	C 	0.41470 0.44110 0.75390 -0.63000
H 	H 	0.40330 0.48090 0.76420 0.17700
N 	N 	0.41360 0.43880 0.71180 0.00400
C 	C 	0.44760 0.39380 0.70230 -0.02900
H 	H 	0.43240 0.36220 0.67720 -0.20200
H 	H 	0.46670 0.42430 0.69170 0.03900
C 	C 	0.47550 0.35110 0.73940 0.23400
H 	H 	0.47460 0.36940 0.76810 -0.05600
H 	H 	0.50560 0.35240 0.73900 -0.08500
H 	H 	0.46500 0.30300 0.73570 0.20200
C 	C 	0.39630 0.50450 0.68330 0.52200
H 	H 	0.40810 0.54670 0.70110 -0.21300
H 	H 	0.40540 0.50450 0.65630 -0.29600
C 	C 	0.34620 0.50370 0.66960 -0.83100
H 	H 	0.33440 0.54610 0.65270 0.26500
H 	H 	0.33760 0.50150 0.69660 0.26700
H 	H 	0.33480 0.46300 0.65060 0.28000
C 	C 	0.40530 0.11520 0.01520 0.12600
H 	H 	0.40130 0.07760 0.99470 0.00200
N 	N 	0.40640 0.10330 0.05670 -0.15500
C 	C 	0.42590 0.15520 0.09220 0.01900
H 	H 	0.41090 0.20010 0.08230 -0.02200
H 	H 	0.41950 0.14080 0.11960 -0.02100
C 	C 	0.47290 0.16720 0.10480 -0.25600
H 	H 	0.48360 0.18840 0.13470 0.18900
H 	H 	0.47880 0.19840 0.08280 0.10300
H 	H 	0.48780 0.12280 0.10520 0.47100
C 	C 	0.39740 0.03010 0.06970 0.09400
H 	H 	0.37800 0.03210 0.08830 -0.01000
H 	H 	0.38250 0.00280 0.04230 0.01000
C 	C 	0.44020 0.99560 0.09590 0.01300
H 	H 	0.43440 0.94950 0.10590 -0.10500
H 	H 	0.45550 0.02410 0.12220 0.04200
H 	H 	0.45840 0.99090 0.07670 0.37900
O 	O 	0.41410 0.04170 0.82830 -1.66800
C 	C 	0.43650 0.00930 0.86120 3.78000
H 	H 	0.45830 0.03170 0.88520 -5.37400
O 	O 	0.42880 0.94040 0.86220 -0.77500
C 	C 	0.14248 0.79037 0.93191 0.01200
C 	C 	0.14722 0.72273 0.91555 -0.01000
C 	C 	0.15075 0.66549 0.94356 0.00400
C 	C 	0.14708 0.67400 0.98713 -0.01500
C 	C 	0.35746 0.75971 0.99719 0.01700
C 	C 	0.13901 0.79881 0.97443 -0.00800
C 	C 	0.34332 0.63928 0.99702 0.05500
C 	C 	0.18415 0.91339 0.98392 0.04700
C 	C 	0.18999 0.89467 0.94052 -0.02100
C 	C 	0.16862 0.83854 0.91484 0.00700
C 	C 	0.18863 0.80032 0.88840 -0.02000
C 	C 	0.17177 0.72804 0.88366 0.04900
C 	C 	0.20620 0.66666 0.88594 0.05000
C 	C 	0.21041 0.61289 0.92082 -0.01500
C 	C 	0.18280 0.61016 0.94615 0.00600
C 	C 	0.19847 0.58538 0.99129 -0.02000
C 	C 	0.17275 0.61832 0.01683 0.04100
C 	C 	0.30126 0.85828 0.93220 0.04500
C 	C 	0.30493 0.78416 0.92104 -0.00700
C 	C 	0.33276 0.73836 0.95074 0.01600
C 	C 	0.32171 0.66730 0.95118 -0.01200
C 	C 	0.28101 0.64421 0.92389 0.02000
C 	C 	0.25557 0.59559 0.94109 0.01300
C 	C 	0.27104 0.57100 0.98505 -0.02200
C 	C 	0.24219 0.56806 0.01074 0.01000
C 	C 	0.23353 0.91074 0.94269 -0.00100
C 	C 	0.25367 0.87349 0.91664 -0.02100
C 	C 	0.23102 0.81625 0.89038 0.00500
C 	C 	0.26303 0.76028 0.89274 0.01100
C 	C 	0.25173 0.69050 0.89298 -0.01300
C 	C 	0.14101 0.93415 0.99021 -0.16100
C 	C 	0.16249 0.58876 0.05657 -0.14700
C 	C 	0.16760 0.67965 0.84501 -0.15500
O 	O 	0.09905 0.95410 0.91194 -0.27100
C 	C 	0.10028 0.93954 0.94927 0.32700
O 	O 	0.06615 0.92309 0.96186 -0.18500
C 	C 	0.02419 0.92067 0.92667 -0.19300
H 	H 	0.02480 0.95140 0.90170 0.09500
H 	H 	0.00140 0.93830 0.93850 0.09900
C 	C 	0.01246 0.84756 0.90889 0.40500
O 	O 	0.03721 0.79868 0.92886 -0.45300
O 	O 	0.97863 0.84032 0.87584 -0.47300
O 	O 	0.16622 0.98356 0.06434 -0.25900
C 	C 	0.14408 0.98747 0.02582 0.32900
O 	O 	0.11967 0.04246 0.00712 -0.21800
C 	C 	0.11886 0.09628 0.03845 -0.12600
H 	H 	0.10390 0.13770 0.02160 0.05600
H 	H 	0.14920 0.10970 0.05580 0.07900
C 	C 	0.09548 0.07353 0.07100 0.35400
O 	O 	0.07598 0.01765 0.06595 -0.28300
O 	O 	0.09866 0.11783 0.10173 -0.46600
O 	O 	0.10767 0.65631 0.07522 -0.23500
C 	C 	0.11742 0.60781 0.05747 0.32800
O 	O 	0.09015 0.55948 0.03279 -0.18100
C 	C 	0.04465 0.56730 0.02749 -0.20900
H 	H 	0.04190 0.58810 0.05520 0.17300
H 	H 	0.03080 0.52080 0.02360 0.14700
C 	C 	0.02046 0.61297 0.98714 0.39400
O 	O 	0.04235 0.64422 0.96670 -0.53600
O 	O 	0.98016 0.61538 0.97945 -0.51000
O 	O 	0.19070 0.47560 0.05250 -0.11000
C 	C 	0.17577 0.51565 0.07232 0.28300
O 	O 	0.17350 0.50860 0.11360 -0.08100
C 	C 	0.18000 0.43950 0.13280 -0.03800
H 	H 	0.19530 0.44220 0.16570 0.02600
H 	H 	0.19800 0.41150 0.11920 0.04300
C 	C 	0.13490 0.40550 0.12330 0.17700
O 	O 	0.11170 0.39973 0.08381 -0.44800
O 	O 	0.12919 0.38170 0.15710 -0.30700
O 	O 	0.13166 0.56894 0.84199 -0.25900
C 	C 	0.12932 0.62965 0.83373 0.33100
O 	O 	0.09313 0.66498 0.81525 -0.18900
C 	C 	0.05201 0.62830 0.80144 -0.19300
H 	H 	0.05750 0.57760 0.80400 0.10400
H 	H 	0.03580 0.63910 0.76960 0.11800
C 	C 	0.02478 0.64887 0.83033 0.40600
O 	O 	0.04462 0.67112 0.86922 -0.53700
O 	O 	0.98480 0.63888 0.81298 -0.59700
O 	O 	0.19935 0.67920 0.78664 -0.23700
C 	C 	0.17567 0.70724 0.80323 0.33400
O 	O 	0.15300 0.76429 0.78951 -0.20400
C 	C 	0.15213 0.79170 0.74632 -0.17600
H 	H 	0.18080 0.78380 0.74230 0.10700
H 	H 	0.14680 0.84250 0.74550 0.08200
C 	C 	0.11643 0.75680 0.70823 0.41100
O 	O 	0.10400 0.69821 0.71520 -0.39900
O 	O 	0.10366 0.78899 0.67148 -0.45900
Zn	Zn	0.01732 0.70253 0.91272 1.18900
Zn	Zn	0.91872 0.89082 0.84180 1.20400
Zn	Zn	0.92931 0.68291 0.94580 1.18100
Zn	Zn	0.93188 0.63607 0.83527 1.15000
O 	O 	0.95358 0.69601 0.89161 -0.79600
O 	O 	0.93046 0.89205 0.78122 -0.44400
O 	O 	0.90929 0.67440 0.00270 -0.44400
C 	C 	0.87170 0.65470 0.00210 0.19400
H 	H 	0.85560 0.62720 0.97710 -0.02400
N 	N 	0.85210 0.66800 0.03220 -0.17000
C 	C 	0.87410 0.71380 0.07120 0.13800
H 	H 	0.90610 0.71070 0.07780 0.02300
H 	H 	0.86750 0.69660 0.09790 -0.01500
C 	C 	0.86050 0.78810 0.06340 -0.49700
H 	H 	0.87520 0.81510 0.09060 0.15800
H 	H 	0.82880 0.79150 0.05640 0.16800
H 	H 	0.86860 0.80640 0.03820 0.17000
C 	C 	0.80400 0.65050 0.02230 0.14300
H 	H 	0.78710 0.69360 0.02150 -0.02100
H 	H 	0.79230 0.62720 0.99270 -0.00000
C 	C 	0.80030 0.60290 0.05910 -0.51600
H 	H 	0.76970 0.58920 0.05260 0.18200
H 	H 	0.81050 0.62740 0.08800 0.18200
H 	H 	0.81820 0.56140 0.06060 0.19300
O 	O 	0.91150 0.55280 0.78170 0.03300
O 	O 	0.96818 0.54890 0.88029 5.43900
C 	C 	0.97640 0.49530 0.86380 -2.47600
H 	H 	0.95900 0.48390 0.83390 0.49200
N 	N 	0.00840 0.45190 0.88570 0.53400
C 	C 	0.04180 0.47070 0.92690 -0.86400
H 	H 	0.03000 0.50620 0.94260 0.09300
H 	H 	0.04970 0.42930 0.94660 0.32100
C 	C 	0.08120 0.49820 0.91990 -0.21100
H 	H 	0.09490 0.53270 0.94310 0.07600
H 	H 	0.10180 0.46010 0.92160 0.05100
H 	H 	0.07330 0.52010 0.89020 0.13100
C 	C 	0.01070 0.38330 0.86550 -0.78800
H 	H 	0.99130 0.38330 0.83380 0.30100
H 	H 	0.04090 0.37510 0.86580 0.26300
C 	C 	0.99720 0.32440 0.89060 -0.37100
H 	H 	0.99340 0.28160 0.87290 0.09200
H 	H 	0.01990 0.31740 0.91980 0.05700
H 	H 	0.96960 0.33640 0.89520 0.18100
O 	O 	0.18800 0.46730 0.05600 -0.11700
O 	O 	0.16560 0.51020 0.11020 -0.09200
C 	C 	0.17800 0.44800 0.13640 -0.10000
H 	H 	0.17930 0.45780 0.16770 0.10500
H 	H 	0.20770 0.43410 0.13720 0.06700
C 	C 	0.14660 0.38750 0.11810 0.23400
O 	O 	0.16350 0.33240 0.13770 -0.38700
H 	H 	0.14670 0.29880 0.12710 0.18900
C 	C 	0.94520 0.93970 0.76390 0.92200
H 	H 	0.95810 0.97820 0.78250 -0.29400
N 	N 	0.94450 0.94100 0.72150 -0.29300
C 	C 	0.91880 0.88430 0.69000 -0.02600
H 	H 	0.89580 0.86540 0.70100 0.07100
H 	H 	0.90480 0.90330 0.65940 0.08900
C 	C 	0.94940 0.83070 0.68920 0.60800
H 	H 	0.93350 0.78870 0.67540 -0.12200
H 	H 	0.96800 0.82030 0.72000 -0.41300
H 	H 	0.96760 0.84650 0.67160 -0.12000
C 	C 	0.97320 0.99160 0.70720 0.39500
H 	H 	0.98650 0.96820 0.68680 -0.10300
H 	H 	0.99700 0.00850 0.73380 -0.08600
C 	C 	0.94530 0.05230 0.68310 -1.06200
H 	H 	0.96350 0.08560 0.67380 0.32300
H 	H 	0.93230 0.07530 0.70340 0.39500
H 	H 	0.92200 0.03530 0.65650 0.47500
C 	C 	0.91470 0.94110 0.75390 -0.63100
H 	H 	0.90330 0.98090 0.76420 0.17700
N 	N 	0.91360 0.93880 0.71180 0.00400
C 	C 	0.94760 0.89380 0.70230 -0.03000
H 	H 	0.93240 0.86220 0.67720 -0.20200
H 	H 	0.96670 0.92430 0.69170 0.03900
C 	C 	0.97550 0.85110 0.73940 0.23500
H 	H 	0.97460 0.86940 0.76810 -0.05700
H 	H 	0.00560 0.85240 0.73900 -0.08500
H 	H 	0.96500 0.80300 0.73570 0.20100
C 	C 	0.89630 0.00450 0.68330 0.52400
H 	H 	0.90810 0.04670 0.70110 -0.21500
H 	H 	0.90540 0.00450 0.65630 -0.29900
C 	C 	0.84620 0.00370 0.66960 -0.83600
H 	H 	0.83440 0.04610 0.65270 0.26600
H 	H 	0.83760 0.00150 0.69660 0.26800
H 	H 	0.83480 0.96300 0.65060 0.28100
C 	C 	0.90530 0.61520 0.01520 0.11900
H 	H 	0.90130 0.57760 0.99470 0.00700
N 	N 	0.90640 0.60330 0.05670 -0.15300
C 	C 	0.92590 0.65520 0.09220 0.01400
H 	H 	0.91090 0.70010 0.08230 -0.02200
H 	H 	0.91950 0.64080 0.11960 -0.01900
C 	C 	0.97290 0.66720 0.10480 -0.24700
H 	H 	0.98360 0.68840 0.13470 0.18700
H 	H 	0.97880 0.69840 0.08280 0.10200
H 	H 	0.98780 0.62280 0.10520 0.47100
C 	C 	0.89740 0.53010 0.06970 0.09300
H 	H 	0.87800 0.53210 0.08830 -0.01000
H 	H 	0.88250 0.50280 0.04230 0.00800
C 	C 	0.94020 0.49560 0.09590 0.00900
H 	H 	0.93440 0.44950 0.10590 -0.10500
H 	H 	0.95550 0.52410 0.12220 0.04400
H 	H 	0.95840 0.49090 0.07670 0.39700
O 	O 	0.91410 0.54170 0.82830 -1.66400
C 	C 	0.93650 0.50930 0.86120 3.77100
H 	H 	0.95830 0.53170 0.88520 -5.35000
O 	O 	0.92880 0.44040 0.86220 -0.77400
C 	C 	0.64248 0.70963 0.43191 0.01300
C 	C 	0.64722 0.77727 0.41555 -0.01100
C 	C 	0.65075 0.83451 0.44356 0.00500
C 	C 	0.64708 0.82600 0.48713 -0.01700
C 	C 	0.85746 0.74029 0.49719 0.01200
C 	C 	0.63901 0.70119 0.47443 -0.01200
C 	C 	0.84332 0.86072 0.49702 0.05300
C 	C 	0.68415 0.58661 0.48392 0.04300
C 	C 	0.68999 0.60533 0.44052 -0.02100
C 	C 	0.66862 0.66146 0.41484 0.00600
C 	C 	0.68863 0.69968 0.38840 -0.02000
C 	C 	0.67177 0.77196 0.38366 0.05000
C 	C 	0.70620 0.83334 0.38594 0.05000
C 	C 	0.71041 0.88711 0.42082 -0.01500
C 	C 	0.68280 0.88984 0.44615 0.00600
C 	C 	0.69847 0.91462 0.49129 -0.02000
C 	C 	0.67275 0.88168 0.51683 0.04200
C 	C 	0.80126 0.64172 0.43220 0.04600
C 	C 	0.80493 0.71584 0.42104 -0.00800
C 	C 	0.83276 0.76164 0.45074 0.01700
C 	C 	0.82171 0.83270 0.45118 -0.01200
C 	C 	0.78101 0.85579 0.42389 0.02000
C 	C 	0.75557 0.90441 0.44109 0.01300
C 	C 	0.77104 0.92900 0.48505 -0.02300
C 	C 	0.74219 0.93194 0.51074 0.01000
C 	C 	0.73353 0.58926 0.44269 0.00100
C 	C 	0.75367 0.62651 0.41664 -0.02200
C 	C 	0.73102 0.68375 0.39038 0.00600
C 	C 	0.76303 0.73972 0.39274 0.01200
C 	C 	0.75173 0.80950 0.39298 -0.01300
C 	C 	0.64101 0.56585 0.49021 -0.16400
C 	C 	0.66249 0.91124 0.55657 -0.14800
C 	C 	0.66760 0.82035 0.34501 -0.15600
O 	O 	0.59905 0.54590 0.41194 -0.27200
C 	C 	0.60028 0.56046 0.44927 0.32900
O 	O 	0.56615 0.57691 0.46186 -0.18600
C 	C 	0.52419 0.57933 0.42667 -0.19300
H 	H 	0.52480 0.54860 0.40170 0.09500
H 	H 	0.50140 0.56170 0.43850 0.09900
C 	C 	0.51246 0.65244 0.40889 0.40500
O 	O 	0.53721 0.70132 0.42886 -0.45300
O 	O 	0.47863 0.65968 0.37584 -0.47400
O 	O 	0.66622 0.51644 0.56434 -0.26000
C 	C 	0.64408 0.51253 0.52582 0.33500
O 	O 	0.61967 0.45754 0.50712 -0.22100
C 	C 	0.61886 0.40372 0.53845 -0.12500
H 	H 	0.60390 0.36230 0.52160 0.05500
H 	H 	0.64920 0.39030 0.55580 0.07900
C 	C 	0.59548 0.42647 0.57100 0.35300
O 	O 	0.57598 0.48235 0.56595 -0.28400
O 	O 	0.59866 0.38217 0.60173 -0.46600
O 	O 	0.60767 0.84369 0.57522 -0.23500
C 	C 	0.61742 0.89219 0.55747 0.32900
O 	O 	0.59015 0.94052 0.53279 -0.18100
C 	C 	0.54465 0.93270 0.52749 -0.20900
H 	H 	0.54190 0.91190 0.55520 0.17300
H 	H 	0.53080 0.97920 0.52360 0.14700
C 	C 	0.52046 0.88703 0.48714 0.39500
O 	O 	0.54235 0.85578 0.46670 -0.53600
O 	O 	0.48016 0.88462 0.47945 -0.51100
O 	O 	0.69070 0.02440 0.55250 -0.11000
C 	C 	0.67577 0.98435 0.57232 0.28300
O 	O 	0.67350 0.99140 0.61360 -0.08100
C 	C 	0.68000 0.06050 0.63280 -0.03900
H 	H 	0.69530 0.05780 0.66570 0.02600
H 	H 	0.69800 0.08850 0.61920 0.04300
C 	C 	0.63490 0.09450 0.62330 0.17700
O 	O 	0.61170 0.10027 0.58381 -0.44800
O 	O 	0.62919 0.11830 0.65710 -0.30700
O 	O 	0.63166 0.93106 0.34199 -0.26000
C 	C 	0.62932 0.87035 0.33373 0.33100
O 	O 	0.59313 0.83502 0.31525 -0.18900
C 	C 	0.55201 0.87170 0.30144 -0.19300
H 	H 	0.55750 0.92240 0.30400 0.10400
H 	H 	0.53580 0.86090 0.26960 0.11800
C 	C 	0.52478 0.85113 0.33033 0.40600
O 	O 	0.54462 0.82888 0.36922 -0.53700
O 	O 	0.48480 0.86112 0.31298 -0.59700
O 	O 	0.69935 0.82080 0.28664 -0.23700
C 	C 	0.67567 0.79276 0.30323 0.33400
O 	O 	0.65300 0.73571 0.28951 -0.20400
C 	C 	0.65213 0.70830 0.24632 -0.17600
H 	H 	0.68080 0.71620 0.24230 0.10700
H 	H 	0.64680 0.65750 0.24550 0.08200
C 	C 	0.61643 0.74320 0.20823 0.41100
O 	O 	0.60400 0.80179 0.21520 -0.39900
O 	O 	0.60366 0.71101 0.17148 -0.45900
Zn	Zn	0.51732 0.79747 0.41272 1.18900
Zn	Zn	0.41872 0.60918 0.34180 1.20400
Zn	Zn	0.42931 0.81709 0.44580 1.18000
Zn	Zn	0.43188 0.86393 0.33527 1.15000
O 	O 	0.45358 0.80399 0.39161 -0.79600
O 	O 	0.43046 0.60795 0.28122 -0.44400
O 	O 	0.40929 0.82560 0.50270 -0.44400
C 	C 	0.37170 0.84530 0.50210 0.19600
H 	H 	0.35560 0.87280 0.47710 -0.02500
N 	N 	0.35210 0.83200 0.53220 -0.17100
C 	C 	0.37410 0.78620 0.57120 0.14000
H 	H 	0.40610 0.78930 0.57780 0.02200
H 	H 	0.36750 0.80340 0.59790 -0.01600
C 	C 	0.36050 0.71190 0.56340 -0.50000
H 	H 	0.37520 0.68490 0.59060 0.15900
H 	H 	0.32880 0.70850 0.55640 0.16900
H 	H 	0.36860 0.69360 0.53820 0.17200
C 	C 	0.30400 0.84950 0.52230 0.14600
H 	H 	0.28710 0.80640 0.52150 -0.02100
H 	H 	0.29230 0.87280 0.49270 -0.00200
C 	C 	0.30030 0.89710 0.55910 -0.51800
H 	H 	0.26970 0.91080 0.55260 0.18300
H 	H 	0.31050 0.87260 0.58800 0.18300
H 	H 	0.31820 0.93860 0.56060 0.19400
O 	O 	0.41150 0.94720 0.28170 0.03300
O 	O 	0.46818 0.95110 0.38029 5.44900
C 	C 	0.47640 0.00470 0.36380 -2.47900
H 	H 	0.45900 0.01610 0.33390 0.49200
N 	N 	0.50840 0.04810 0.38570 0.53400
C 	C 	0.54180 0.02930 0.42690 -0.85700
H 	H 	0.53000 0.99380 0.44260 0.09200
H 	H 	0.54970 0.07070 0.44660 0.31900
C 	C 	0.58120 0.00180 0.41990 -0.21300
H 	H 	0.59490 0.96730 0.44310 0.07700
H 	H 	0.60180 0.03990 0.42160 0.05100
H 	H 	0.57330 0.97990 0.39020 0.13100
C 	C 	0.51070 0.11670 0.36550 -0.78700
H 	H 	0.49130 0.11670 0.33380 0.30000
H 	H 	0.54090 0.12490 0.36580 0.26400
C 	C 	0.49720 0.17560 0.39060 -0.36500
H 	H 	0.49340 0.21840 0.37290 0.09000
H 	H 	0.51990 0.18260 0.41980 0.05800
H 	H 	0.46960 0.16360 0.39520 0.17900
O 	O 	0.68800 0.03270 0.55600 -0.11700
O 	O 	0.66560 0.98980 0.61020 -0.09200
C 	C 	0.67800 0.05200 0.63640 -0.10000
H 	H 	0.67930 0.04220 0.66770 0.10400
H 	H 	0.70770 0.06590 0.63720 0.06700
C 	C 	0.64660 0.11250 0.61810 0.23400
O 	O 	0.66350 0.16760 0.63770 -0.38700
H 	H 	0.64670 0.20120 0.62710 0.18900
C 	C 	0.44520 0.56030 0.26390 0.92000
H 	H 	0.45810 0.52180 0.28250 -0.29400
N 	N 	0.44450 0.55900 0.22150 -0.29200
C 	C 	0.41880 0.61570 0.19000 -0.02700
H 	H 	0.39580 0.63460 0.20100 0.07100
H 	H 	0.40480 0.59670 0.15940 0.08900
C 	C 	0.44940 0.66930 0.18920 0.60900
H 	H 	0.43350 0.71130 0.17540 -0.12200
H 	H 	0.46800 0.67970 0.22000 -0.41400
H 	H 	0.46760 0.65350 0.17160 -0.12100
C 	C 	0.47320 0.50840 0.20720 0.39100
H 	H 	0.48650 0.53180 0.18680 -0.10200
H 	H 	0.49700 0.49150 0.23380 -0.08500
C 	C 	0.44530 0.44770 0.18310 -1.05500
H 	H 	0.46350 0.41440 0.17380 0.32100
H 	H 	0.43230 0.42470 0.20340 0.39200
H 	H 	0.42200 0.46470 0.15650 0.47200
C 	C 	0.41470 0.55890 0.25390 -0.63000
H 	H 	0.40330 0.51910 0.26420 0.17700
N 	N 	0.41360 0.56120 0.21180 0.00400
C 	C 	0.44760 0.60620 0.20230 -0.02900
H 	H 	0.43240 0.63780 0.17720 -0.20200
H 	H 	0.46670 0.57570 0.19170 0.03900
C 	C 	0.47550 0.64890 0.23940 0.23400
H 	H 	0.47460 0.63060 0.26810 -0.05600
H 	H 	0.50560 0.64760 0.23900 -0.08500
H 	H 	0.46500 0.69700 0.23570 0.20200
C 	C 	0.39630 0.49550 0.18330 0.52200
H 	H 	0.40810 0.45330 0.20110 -0.21300
H 	H 	0.40540 0.49550 0.15630 -0.29700
C 	C 	0.34620 0.49630 0.16960 -0.83100
H 	H 	0.33440 0.45390 0.15270 0.26500
H 	H 	0.33760 0.49850 0.19660 0.26700
H 	H 	0.33480 0.53700 0.15060 0.28000
C 	C 	0.40530 0.88480 0.51520 0.12100
H 	H 	0.40130 0.92240 0.49470 0.00600
N 	N 	0.40640 0.89670 0.55670 -0.15400
C 	C 	0.42590 0.84480 0.59220 0.01800
H 	H 	0.41090 0.79990 0.58230 -0.02200
H 	H 	0.41950 0.85920 0.61960 -0.02000
C 	C 	0.47290 0.83280 0.60480 -0.25500
H 	H 	0.48360 0.81160 0.63470 0.19000
H 	H 	0.47880 0.80160 0.58280 0.10300
H 	H 	0.48780 0.87720 0.60520 0.47300
C 	C 	0.39740 0.96990 0.56970 0.09300
H 	H 	0.37800 0.96790 0.58830 -0.01000
H 	H 	0.38250 0.99720 0.54230 0.00900
C 	C 	0.44020 0.00440 0.59590 0.01000
H 	H 	0.43440 0.05050 0.60590 -0.10500
H 	H 	0.45550 0.97590 0.62220 0.04300
H 	H 	0.45840 0.00910 0.57670 0.39300
O 	O 	0.41410 0.95830 0.32830 -1.66600
C 	C 	0.43650 0.99070 0.36120 3.77500
H 	H 	0.45830 0.96830 0.38520 -5.35900
O 	O 	0.42880 0.05960 0.36220 -0.77400
C 	C 	0.14248 0.20963 0.43191 0.01300
C 	C 	0.14722 0.27727 0.41555 -0.01100
C 	C 	0.15075 0.33451 0.44356 0.00500
C 	C 	0.14708 0.32600 0.48713 -0.01700
C 	C 	0.35746 0.24029 0.49719 0.01200
C 	C 	0.13901 0.20119 0.47443 -0.01200
C 	C 	0.34332 0.36072 0.49702 0.05300
C 	C 	0.18415 0.08661 0.48392 0.04300
C 	C 	0.18999 0.10533 0.44052 -0.02100
C 	C 	0.16862 0.16146 0.41484 0.00600
C 	C 	0.18863 0.19968 0.38840 -0.02000
C 	C 	0.17177 0.27196 0.38366 0.05000
C 	C 	0.20620 0.33334 0.38594 0.05000
C 	C 	0.21041 0.38711 0.42082 -0.01500
C 	C 	0.18280 0.38984 0.44615 0.00600
C 	C 	0.19847 0.41462 0.49129 -0.02000
C 	C 	0.17275 0.38168 0.51683 0.04200
C 	C 	0.30126 0.14172 0.43220 0.04600
C 	C 	0.30493 0.21584 0.42104 -0.00800
C 	C 	0.33276 0.26164 0.45074 0.01700
C 	C 	0.32171 0.33270 0.45118 -0.01200
C 	C 	0.28101 0.35579 0.42389 0.02000
C 	C 	0.25557 0.40441 0.44109 0.01300
C 	C 	0.27104 0.42900 0.48505 -0.02300
C 	C 	0.24219 0.43194 0.51074 0.01000
C 	C 	0.23353 0.08926 0.44269 0.00100
C 	C 	0.25367 0.12651 0.41664 -0.02200
C 	C 	0.23102 0.18375 0.39038 0.00600
C 	C 	0.26303 0.23972 0.39274 0.01200
C 	C 	0.25173 0.30950 0.39298 -0.01300
C 	C 	0.14101 0.06585 0.49021 -0.16400
C 	C 	0.16249 0.41124 0.55657 -0.14800
C 	C 	0.16760 0.32035 0.34501 -0.15500
O 	O 	0.09905 0.04590 0.41194 -0.27200
C 	C 	0.10028 0.06046 0.44927 0.32900
O 	O 	0.06615 0.07691 0.46186 -0.18600
C 	C 	0.02419 0.07933 0.42667 -0.19300
H 	H 	0.02480 0.04860 0.40170 0.09500
H 	H 	0.00140 0.06170 0.43850 0.09900
C 	C 	0.01246 0.15244 0.40889 0.40600
O 	O 	0.03721 0.20132 0.42886 -0.45300
O 	O 	0.97863 0.15968 0.37584 -0.47400
O 	O 	0.16622 0.01644 0.56434 -0.26000
C 	C 	0.14408 0.01253 0.52582 0.33400
O 	O 	0.11967 0.95754 0.50712 -0.22100
C 	C 	0.11886 0.90372 0.53845 -0.12500
H 	H 	0.10390 0.86230 0.52160 0.05500
H 	H 	0.14920 0.89030 0.55580 0.07900
C 	C 	0.09548 0.92647 0.57100 0.35400
O 	O 	0.07598 0.98235 0.56595 -0.28400
O 	O 	0.09866 0.88217 0.60173 -0.46600
O 	O 	0.10767 0.34369 0.57522 -0.23500
C 	C 	0.11742 0.39219 0.55747 0.32800
O 	O 	0.09015 0.44052 0.53279 -0.18100
C 	C 	0.04465 0.43270 0.52749 -0.20900
H 	H 	0.04190 0.41190 0.55520 0.17300
H 	H 	0.03080 0.47920 0.52360 0.14700
C 	C 	0.02046 0.38703 0.48714 0.39500
O 	O 	0.04235 0.35578 0.46670 -0.53600
O 	O 	0.98016 0.38462 0.47945 -0.51100
O 	O 	0.19070 0.52440 0.55250 -0.11000
C 	C 	0.17577 0.48435 0.57232 0.28300
O 	O 	0.17350 0.49140 0.61360 -0.08100
C 	C 	0.18000 0.56050 0.63280 -0.03800
H 	H 	0.19530 0.55780 0.66570 0.02600
H 	H 	0.19800 0.58850 0.61920 0.04300
C 	C 	0.13490 0.59450 0.62330 0.17700
O 	O 	0.11170 0.60027 0.58381 -0.44800
O 	O 	0.12919 0.61830 0.65710 -0.30700
O 	O 	0.13166 0.43106 0.34199 -0.25900
C 	C 	0.12932 0.37035 0.33373 0.33100
O 	O 	0.09313 0.33502 0.31525 -0.18900
C 	C 	0.05201 0.37170 0.30144 -0.19300
H 	H 	0.05750 0.42240 0.30400 0.10500
H 	H 	0.03580 0.36090 0.26960 0.11800
C 	C 	0.02478 0.35113 0.33033 0.40700
O 	O 	0.04462 0.32888 0.36922 -0.53700
O 	O 	0.98480 0.36112 0.31298 -0.59700
O 	O 	0.19935 0.32080 0.28664 -0.23700
C 	C 	0.17567 0.29276 0.30323 0.33400
O 	O 	0.15300 0.23571 0.28951 -0.20400
C 	C 	0.15213 0.20830 0.24632 -0.17600
H 	H 	0.18080 0.21620 0.24230 0.10700
H 	H 	0.14680 0.15750 0.24550 0.08200
C 	C 	0.11643 0.24320 0.20823 0.41100
O 	O 	0.10400 0.30179 0.21520 -0.39900
O 	O 	0.10366 0.21101 0.17148 -0.45900
Zn	Zn	0.01732 0.29747 0.41272 1.18900
Zn	Zn	0.91872 0.10918 0.34180 1.20400
Zn	Zn	0.92931 0.31709 0.44580 1.18000
Zn	Zn	0.93188 0.36393 0.33527 1.15000
O 	O 	0.95358 0.30399 0.39161 -0.79600
O 	O 	0.93046 0.10795 0.28122 -0.44400
O 	O 	0.90929 0.32560 0.50270 -0.44400
C 	C 	0.87170 0.34530 0.50210 0.19600
H 	H 	0.85560 0.37280 0.47710 -0.02500
N 	N 	0.85210 0.33200 0.53220 -0.17100
C 	C 	0.87410 0.28620 0.57120 0.14000
H 	H 	0.90610 0.28930 0.57780 0.02200
H 	H 	0.86750 0.30340 0.59790 -0.01600
C 	C 	0.86050 0.21190 0.56340 -0.50000
H 	H 	0.87520 0.18490 0.59060 0.15900
H 	H 	0.82880 0.20850 0.55640 0.16900
H 	H 	0.86860 0.19360 0.53820 0.17200
C 	C 	0.80400 0.34950 0.52230 0.14600
H 	H 	0.78710 0.30640 0.52150 -0.02100
H 	H 	0.79230 0.37280 0.49270 -0.00200
C 	C 	0.80030 0.39710 0.55910 -0.51800
H 	H 	0.76970 0.41080 0.55260 0.18300
H 	H 	0.81050 0.37260 0.58800 0.18200
H 	H 	0.81820 0.43860 0.56060 0.19400
O 	O 	0.91150 0.44720 0.28170 0.03300
O 	O 	0.96818 0.45110 0.38029 5.43800
C 	C 	0.97640 0.50470 0.36380 -2.47600
H 	H 	0.95900 0.51610 0.33390 0.49200
N 	N 	0.00840 0.54810 0.38570 0.53400
C 	C 	0.04180 0.52930 0.42690 -0.86500
H 	H 	0.03000 0.49380 0.44260 0.09300
H 	H 	0.04970 0.57070 0.44660 0.32100
C 	C 	0.08120 0.50180 0.41990 -0.21100
H 	H 	0.09490 0.46730 0.44310 0.07600
H 	H 	0.10180 0.53990 0.42160 0.05100
H 	H 	0.07330 0.47990 0.39020 0.13100
C 	C 	0.01070 0.61670 0.36550 -0.78700
H 	H 	0.99130 0.61670 0.33380 0.30000
H 	H 	0.04090 0.62490 0.36580 0.26300
C 	C 	0.99720 0.67560 0.39060 -0.36500
H 	H 	0.99340 0.71840 0.37290 0.09000
H 	H 	0.01990 0.68260 0.41980 0.05800
H 	H 	0.96960 0.66360 0.39520 0.17900
O 	O 	0.18800 0.53270 0.55600 -0.11700
O 	O 	0.16560 0.48980 0.61020 -0.09200
C 	C 	0.17800 0.55200 0.63640 -0.10000
H 	H 	0.17930 0.54220 0.66770 0.10500
H 	H 	0.20770 0.56590 0.63720 0.06700
C 	C 	0.14660 0.61250 0.61810 0.23400
O 	O 	0.16350 0.66760 0.63770 -0.38700
H 	H 	0.14670 0.70120 0.62710 0.18900
C 	C 	0.94520 0.06030 0.26390 0.92200
H 	H 	0.95810 0.02180 0.28250 -0.29500
N 	N 	0.94450 0.05900 0.22150 -0.29400
C 	C 	0.91880 0.11570 0.19000 -0.02400
H 	H 	0.89580 0.13460 0.20100 0.07100
H 	H 	0.90480 0.09670 0.15940 0.08900
C 	C 	0.94940 0.16930 0.18920 0.60700
H 	H 	0.93350 0.21130 0.17540 -0.12100
H 	H 	0.96800 0.17970 0.22000 -0.41200
H 	H 	0.96760 0.15350 0.17160 -0.12000
C 	C 	0.97320 0.00840 0.20720 0.40200
H 	H 	0.98650 0.03180 0.18680 -0.10500
H 	H 	0.99700 0.99150 0.23380 -0.09000
C 	C 	0.94530 0.94770 0.18310 -1.07200
H 	H 	0.96350 0.91440 0.17380 0.32500
H 	H 	0.93230 0.92470 0.20340 0.39800
H 	H 	0.92200 0.96470 0.15650 0.47900
C 	C 	0.91470 0.05890 0.25390 -0.63200
H 	H 	0.90330 0.01910 0.26420 0.17700
N 	N 	0.91360 0.06120 0.21180 0.00400
C 	C 	0.94760 0.10620 0.20230 -0.03000
H 	H 	0.93240 0.13780 0.17720 -0.20200
H 	H 	0.96670 0.07570 0.19170 0.03800
C 	C 	0.97550 0.14890 0.23940 0.23300
H 	H 	0.97460 0.13060 0.26810 -0.05600
H 	H 	0.00560 0.14760 0.23900 -0.08500
H 	H 	0.96500 0.19700 0.23570 0.20100
C 	C 	0.89630 0.99550 0.18330 0.53000
H 	H 	0.90810 0.95330 0.20110 -0.21700
H 	H 	0.90540 0.99550 0.15630 -0.30300
C 	C 	0.84620 0.99630 0.16960 -0.84400
H 	H 	0.83440 0.95390 0.15270 0.26800
H 	H 	0.83760 0.99850 0.19660 0.27000
H 	H 	0.83480 0.03700 0.15060 0.28400
C 	C 	0.90530 0.38480 0.51520 0.12000
H 	H 	0.90130 0.42240 0.49470 0.00600
N 	N 	0.90640 0.39670 0.55670 -0.15300
C 	C 	0.92590 0.34480 0.59220 0.01800
H 	H 	0.91090 0.29990 0.58230 -0.02200
H 	H 	0.91950 0.35920 0.61960 -0.02000
C 	C 	0.97290 0.33280 0.60480 -0.25600
H 	H 	0.98360 0.31160 0.63470 0.19000
H 	H 	0.97880 0.30160 0.58280 0.10300
H 	H 	0.98780 0.37720 0.60520 0.47300
C 	C 	0.89740 0.46990 0.56970 0.09300
H 	H 	0.87800 0.46790 0.58830 -0.01000
H 	H 	0.88250 0.49720 0.54230 0.00800
C 	C 	0.94020 0.50440 0.59590 0.00900
H 	H 	0.93440 0.55050 0.60590 -0.10500
H 	H 	0.95550 0.47590 0.62220 0.04400
H 	H 	0.95840 0.50910 0.57670 0.39700
O 	O 	0.91410 0.45830 0.32830 -1.66400
C 	C 	0.93650 0.49070 0.36120 3.77100
H 	H 	0.95830 0.46830 0.38520 -5.35000
O 	O 	0.92880 0.55960 0.36220 -0.77400
C 	C 	0.35752 0.70963 0.06809 0.01500
C 	C 	0.35278 0.77727 0.08445 -0.01200
C 	C 	0.34925 0.83451 0.05644 0.00600
C 	C 	0.35292 0.82600 0.01287 -0.02200
C 	C 	0.14254 0.74029 0.00281 0.01000
C 	C 	0.36099 0.70119 0.02557 -0.01500
C 	C 	0.15668 0.86072 0.00298 0.04800
C 	C 	0.31585 0.58661 0.01608 0.04300
C 	C 	0.31001 0.60533 0.05948 -0.02100
C 	C 	0.33138 0.66146 0.08516 0.00600
C 	C 	0.31137 0.69968 0.11160 -0.02000
C 	C 	0.32823 0.77196 0.11634 0.05000
C 	C 	0.29380 0.83334 0.11406 0.05000
C 	C 	0.28959 0.88711 0.07918 -0.01700
C 	C 	0.31720 0.88984 0.05385 0.00800
C 	C 	0.30153 0.91462 0.00871 -0.02700
C 	C 	0.32725 0.88168 0.98317 0.04800
C 	C 	0.19874 0.64172 0.06780 0.04600
C 	C 	0.19507 0.71584 0.07896 -0.00800
C 	C 	0.16724 0.76164 0.04926 0.01700
C 	C 	0.17829 0.83270 0.04882 -0.01000
C 	C 	0.21899 0.85579 0.07611 0.01900
C 	C 	0.24443 0.90441 0.05891 0.01600
C 	C 	0.22896 0.92900 0.01495 -0.02900
C 	C 	0.25781 0.93194 0.98926 0.01700
C 	C 	0.26647 0.58926 0.05731 0.00100
C 	C 	0.24633 0.62651 0.08336 -0.02200
C 	C 	0.26898 0.68375 0.10962 0.00600
C 	C 	0.23697 0.73972 0.10726 0.01100
C 	C 	0.24827 0.80950 0.10702 -0.01300
C 	C 	0.35899 0.56585 0.00979 -0.16500
C 	C 	0.33751 0.91124 0.94343 -0.14900
C 	C 	0.33240 0.82035 0.15499 -0.15600
O 	O 	0.40095 0.54590 0.08806 -0.27200
C 	C 	0.39972 0.56046 0.05073 0.32900
O 	O 	0.43385 0.57691 0.03814 -0.18600
C 	C 	0.47581 0.57933 0.07333 -0.19300
H 	H 	0.47520 0.54860 0.09830 0.09500
H 	H 	0.49860 0.56170 0.06150 0.09900
C 	C 	0.48754 0.65244 0.09111 0.40500
O 	O 	0.46279 0.70132 0.07114 -0.45300
O 	O 	0.52137 0.65968 0.12416 -0.47400
O 	O 	0.33378 0.51644 0.93566 -0.26000
C 	C 	0.35592 0.51253 0.97418 0.33500
O 	O 	0.38033 0.45754 0.99288 -0.22100
C 	C 	0.38114 0.40372 0.96155 -0.12500
H 	H 	0.39610 0.36230 0.97840 0.05500
H 	H 	0.35080 0.39030 0.94420 0.07800
C 	C 	0.40452 0.42647 0.92900 0.35300
O 	O 	0.42402 0.48235 0.93405 -0.28400
O 	O 	0.40134 0.38217 0.89827 -0.46600
O 	O 	0.39233 0.84369 0.92478 -0.23500
C 	C 	0.38258 0.89219 0.94253 0.32900
O 	O 	0.40985 0.94052 0.96721 -0.18000
C 	C 	0.45535 0.93270 0.97251 -0.20600
H 	H 	0.45810 0.91190 0.94480 0.17300
H 	H 	0.46920 0.97920 0.97640 0.14800
C 	C 	0.47954 0.88703 0.01286 0.39300
O 	O 	0.45765 0.85578 0.03330 -0.53600
O 	O 	0.51984 0.88462 0.02055 -0.51100
O 	O 	0.30930 0.02440 0.94750 -0.11100
C 	C 	0.32423 0.98435 0.92768 0.28700
O 	O 	0.32650 0.99140 0.88640 -0.08100
C 	C 	0.32000 0.06050 0.86720 -0.03900
H 	H 	0.30470 0.05780 0.83430 0.02600
H 	H 	0.30200 0.08850 0.88080 0.04300
C 	C 	0.36510 0.09450 0.87670 0.17700
O 	O 	0.38830 0.10027 0.91619 -0.44800
O 	O 	0.37081 0.11830 0.84290 -0.30700
O 	O 	0.36834 0.93106 0.15801 -0.26000
C 	C 	0.37068 0.87035 0.16627 0.33100
O 	O 	0.40687 0.83502 0.18475 -0.18900
C 	C 	0.44799 0.87170 0.19856 -0.19300
H 	H 	0.44250 0.92240 0.19600 0.10400
H 	H 	0.46420 0.86090 0.23040 0.11800
C 	C 	0.47522 0.85113 0.16967 0.40600
O 	O 	0.45538 0.82888 0.13078 -0.53700
O 	O 	0.51520 0.86112 0.18702 -0.59800
O 	O 	0.30065 0.82080 0.21336 -0.23700
C 	C 	0.32433 0.79276 0.19677 0.33400
O 	O 	0.34700 0.73571 0.21049 -0.20400
C 	C 	0.34787 0.70830 0.25368 -0.17600
H 	H 	0.31920 0.71620 0.25770 0.10700
H 	H 	0.35320 0.65750 0.25450 0.08200
C 	C 	0.38357 0.74320 0.29177 0.41100
O 	O 	0.39600 0.80179 0.28480 -0.39900
O 	O 	0.39634 0.71101 0.32852 -0.45900
Zn	Zn	0.48268 0.79747 0.08728 1.18800
Zn	Zn	0.58128 0.60918 0.15820 1.20400
Zn	Zn	0.57069 0.81709 0.05420 1.18000
Zn	Zn	0.56812 0.86393 0.16473 1.15000
O 	O 	0.54642 0.80399 0.10839 -0.79700
O 	O 	0.56954 0.60795 0.21878 -0.44400
O 	O 	0.59071 0.82560 0.99730 -0.44500
C 	C 	0.62830 0.84530 0.99790 0.19700
H 	H 	0.64440 0.87280 0.02290 -0.02700
N 	N 	0.64790 0.83200 0.96780 -0.17200
C 	C 	0.62590 0.78620 0.92880 0.14100
H 	H 	0.59390 0.78930 0.92220 0.02100
H 	H 	0.63250 0.80340 0.90210 -0.01600
C 	C 	0.63950 0.71190 0.93660 -0.50100
H 	H 	0.62480 0.68490 0.90940 0.15900
H 	H 	0.67120 0.70850 0.94360 0.17000
H 	H 	0.63140 0.69360 0.96180 0.17300
C 	C 	0.69600 0.84950 0.97770 0.15300
H 	H 	0.71290 0.80640 0.97850 -0.02300
H 	H 	0.70770 0.87280 0.00730 -0.00500
C 	C 	0.69970 0.89710 0.94090 -0.52400
H 	H 	0.73030 0.91080 0.94740 0.18500
H 	H 	0.68950 0.87260 0.91200 0.18400
H 	H 	0.68180 0.93860 0.93940 0.19600
O 	O 	0.58850 0.94720 0.21830 0.03300
O 	O 	0.53182 0.95110 0.11971 5.46300
C 	C 	0.52360 0.00470 0.13620 -2.48000
H 	H 	0.54100 0.01610 0.16610 0.49200
N 	N 	0.49160 0.04810 0.11430 0.53100
C 	C 	0.45820 0.02930 0.07310 -0.82800
H 	H 	0.47000 0.99380 0.05740 0.08900
H 	H 	0.45030 0.07070 0.05340 0.30900
C 	C 	0.41880 0.00180 0.08010 -0.22000
H 	H 	0.40510 0.96730 0.05690 0.07700
H 	H 	0.39820 0.03990 0.07840 0.05300
H 	H 	0.42670 0.97990 0.10980 0.13100
C 	C 	0.48930 0.11670 0.13450 -0.78400
H 	H 	0.50870 0.11670 0.16620 0.29900
H 	H 	0.45910 0.12490 0.13420 0.26300
C 	C 	0.50280 0.17560 0.10940 -0.36400
H 	H 	0.50660 0.21840 0.12710 0.09000
H 	H 	0.48010 0.18260 0.08020 0.05700
H 	H 	0.53040 0.16360 0.10480 0.17900
O 	O 	0.31200 0.03270 0.94400 -0.11800
O 	O 	0.33440 0.98980 0.88980 -0.09200
C 	C 	0.32200 0.05200 0.86360 -0.10000
H 	H 	0.32070 0.04220 0.83230 0.10400
H 	H 	0.29230 0.06590 0.86280 0.06600
C 	C 	0.35340 0.11250 0.88190 0.23400
O 	O 	0.33650 0.16760 0.86230 -0.38700
H 	H 	0.35330 0.20120 0.87290 0.18900
C 	C 	0.55480 0.56030 0.23610 0.92000
H 	H 	0.54190 0.52180 0.21750 -0.29400
N 	N 	0.55550 0.55900 0.27850 -0.29200
C 	C 	0.58120 0.61570 0.31000 -0.02700
H 	H 	0.60420 0.63460 0.29900 0.07100
H 	H 	0.59520 0.59670 0.34060 0.08900
C 	C 	0.55060 0.66930 0.31080 0.60900
H 	H 	0.56650 0.71130 0.32460 -0.12200
H 	H 	0.53200 0.67970 0.28000 -0.41400
H 	H 	0.53240 0.65350 0.32840 -0.12100
C 	C 	0.52680 0.50840 0.29280 0.39100
H 	H 	0.51350 0.53180 0.31320 -0.10200
H 	H 	0.50300 0.49150 0.26620 -0.08500
C 	C 	0.55470 0.44770 0.31690 -1.05500
H 	H 	0.53650 0.41440 0.32620 0.32100
H 	H 	0.56770 0.42470 0.29660 0.39200
H 	H 	0.57800 0.46470 0.34350 0.47200
C 	C 	0.58530 0.55890 0.24610 -0.63000
H 	H 	0.59670 0.51910 0.23580 0.17700
N 	N 	0.58640 0.56120 0.28820 0.00400
C 	C 	0.55240 0.60620 0.29770 -0.02900
H 	H 	0.56760 0.63780 0.32280 -0.20200
H 	H 	0.53330 0.57570 0.30830 0.03900
C 	C 	0.52450 0.64890 0.26060 0.23400
H 	H 	0.52540 0.63060 0.23190 -0.05600
H 	H 	0.49440 0.64760 0.26100 -0.08500
H 	H 	0.53500 0.69700 0.26430 0.20200
C 	C 	0.60370 0.49550 0.31670 0.52200
H 	H 	0.59190 0.45330 0.29890 -0.21300
H 	H 	0.59460 0.49550 0.34370 -0.29600
C 	C 	0.65380 0.49630 0.33040 -0.83100
H 	H 	0.66560 0.45390 0.34730 0.26500
H 	H 	0.66240 0.49850 0.30340 0.26700
H 	H 	0.66520 0.53700 0.34940 0.28000
C 	C 	0.59470 0.88480 0.98480 0.12600
H 	H 	0.59870 0.92240 0.00530 0.00200
N 	N 	0.59360 0.89670 0.94330 -0.15500
C 	C 	0.57410 0.84480 0.90780 0.01900
H 	H 	0.58910 0.79990 0.91770 -0.02200
H 	H 	0.58050 0.85920 0.88040 -0.02100
C 	C 	0.52710 0.83280 0.89520 -0.25600
H 	H 	0.51640 0.81160 0.86530 0.18900
H 	H 	0.52120 0.80160 0.91720 0.10300
H 	H 	0.51220 0.87720 0.89480 0.47100
C 	C 	0.60260 0.96990 0.93030 0.09400
H 	H 	0.62200 0.96790 0.91170 -0.01000
H 	H 	0.61750 0.99720 0.95770 0.01000
C 	C 	0.55980 0.00440 0.90410 0.01300
H 	H 	0.56560 0.05050 0.89410 -0.10500
H 	H 	0.54450 0.97590 0.87780 0.04200
H 	H 	0.54160 0.00910 0.92330 0.37900
O 	O 	0.58590 0.95830 0.17170 -1.66800
C 	C 	0.56350 0.99070 0.13880 3.78000
H 	H 	0.54170 0.96830 0.11480 -5.37400
O 	O 	0.57120 0.05960 0.13780 -0.77500
C 	C 	0.85752 0.20963 0.06809 0.01200
C 	C 	0.85278 0.27727 0.08445 -0.01000
C 	C 	0.84925 0.33451 0.05644 0.00400
C 	C 	0.85292 0.32600 0.01287 -0.01500
C 	C 	0.64254 0.24029 0.00281 0.01700
C 	C 	0.86099 0.20119 0.02557 -0.00800
C 	C 	0.65668 0.36072 0.00298 0.05500
C 	C 	0.81585 0.08661 0.01608 0.04700
C 	C 	0.81001 0.10533 0.05948 -0.02100
C 	C 	0.83138 0.16146 0.08516 0.00700
C 	C 	0.81137 0.19968 0.11160 -0.02000
C 	C 	0.82823 0.27196 0.11634 0.04900
C 	C 	0.79380 0.33334 0.11406 0.05000
C 	C 	0.78959 0.38711 0.07918 -0.01500
C 	C 	0.81720 0.38984 0.05385 0.00600
C 	C 	0.80153 0.41462 0.00871 -0.02000
C 	C 	0.82725 0.38168 0.98317 0.04100
C 	C 	0.69874 0.14172 0.06780 0.04500
C 	C 	0.69507 0.21584 0.07896 -0.00700
C 	C 	0.66724 0.26164 0.04926 0.01600
C 	C 	0.67829 0.33270 0.04882 -0.01200
C 	C 	0.71899 0.35579 0.07611 0.02000
C 	C 	0.74443 0.40441 0.05891 0.01300
C 	C 	0.72896 0.42900 0.01495 -0.02200
C 	C 	0.75781 0.43194 0.98926 0.01000
C 	C 	0.76647 0.08926 0.05731 -0.00100
C 	C 	0.74633 0.12651 0.08336 -0.02100
C 	C 	0.76898 0.18375 0.10962 0.00500
C 	C 	0.73697 0.23972 0.10726 0.01100
C 	C 	0.74827 0.30950 0.10702 -0.01300
C 	C 	0.85899 0.06585 0.00979 -0.16100
C 	C 	0.83751 0.41124 0.94343 -0.14700
C 	C 	0.83240 0.32035 0.15499 -0.15500
O 	O 	0.90095 0.04590 0.08806 -0.27100
C 	C 	0.89972 0.06046 0.05073 0.32700
O 	O 	0.93385 0.07691 0.03814 -0.18500
C 	C 	0.97581 0.07933 0.07333 -0.19300
H 	H 	0.97520 0.04860 0.09830 0.09500
H 	H 	0.99860 0.06170 0.06150 0.09900
C 	C 	0.98754 0.15244 0.09111 0.40500
O 	O 	0.96279 0.20132 0.07114 -0.45300
O 	O 	0.02137 0.15968 0.12416 -0.47300
O 	O 	0.83378 0.01644 0.93566 -0.25900
C 	C 	0.85592 0.01253 0.97418 0.32900
O 	O 	0.88033 0.95754 0.99288 -0.21800
C 	C 	0.88114 0.90372 0.96155 -0.12600
H 	H 	0.89610 0.86230 0.97840 0.05600
H 	H 	0.85080 0.89030 0.94420 0.07900
C 	C 	0.90452 0.92647 0.92900 0.35400
O 	O 	0.92402 0.98235 0.93405 -0.28300
O 	O 	0.90134 0.88217 0.89827 -0.46600
O 	O 	0.89233 0.34369 0.92478 -0.23500
C 	C 	0.88258 0.39219 0.94253 0.32800
O 	O 	0.90985 0.44052 0.96721 -0.18100
C 	C 	0.95535 0.43270 0.97251 -0.20900
H 	H 	0.95810 0.41190 0.94480 0.17300
H 	H 	0.96920 0.47920 0.97640 0.14700
C 	C 	0.97954 0.38703 0.01286 0.39400
O 	O 	0.95765 0.35578 0.03330 -0.53600
O 	O 	0.01984 0.38462 0.02055 -0.51000
O 	O 	0.80930 0.52440 0.94750 -0.11000
C 	C 	0.82423 0.48435 0.92768 0.28300
O 	O 	0.82650 0.49140 0.88640 -0.08100
C 	C 	0.82000 0.56050 0.86720 -0.03800
H 	H 	0.80470 0.55780 0.83430 0.02600
H 	H 	0.80200 0.58850 0.88080 0.04300
C 	C 	0.86510 0.59450 0.87670 0.17700
O 	O 	0.88830 0.60027 0.91619 -0.44800
O 	O 	0.87081 0.61830 0.84290 -0.30700
O 	O 	0.86834 0.43106 0.15801 -0.25900
C 	C 	0.87068 0.37035 0.16627 0.33100
O 	O 	0.90687 0.33502 0.18475 -0.18900
C 	C 	0.94799 0.37170 0.19856 -0.19300
H 	H 	0.94250 0.42240 0.19600 0.10400
H 	H 	0.96420 0.36090 0.23040 0.11800
C 	C 	0.97522 0.35113 0.16967 0.40600
O 	O 	0.95538 0.32888 0.13078 -0.53700
O 	O 	0.01520 0.36112 0.18702 -0.59700
O 	O 	0.80065 0.32080 0.21336 -0.23700
C 	C 	0.82433 0.29276 0.19677 0.33400
O 	O 	0.84700 0.23571 0.21049 -0.20400
C 	C 	0.84787 0.20830 0.25368 -0.17600
H 	H 	0.81920 0.21620 0.25770 0.10700
H 	H 	0.85320 0.15750 0.25450 0.08200
C 	C 	0.88357 0.24320 0.29177 0.41100
O 	O 	0.89600 0.30179 0.28480 -0.39900
O 	O 	0.89634 0.21101 0.32852 -0.45900
Zn	Zn	0.98268 0.29747 0.08728 1.18900
Zn	Zn	0.08128 0.10918 0.15820 1.20400
Zn	Zn	0.07069 0.31709 0.05420 1.18100
Zn	Zn	0.06812 0.36393 0.16473 1.15000
O 	O 	0.04642 0.30399 0.10839 -0.79600
O 	O 	0.06954 0.10795 0.21878 -0.44400
O 	O 	0.09071 0.32560 0.99730 -0.44400
C 	C 	0.12830 0.34530 0.99790 0.19400
H 	H 	0.14440 0.37280 0.02290 -0.02400
N 	N 	0.14790 0.33200 0.96780 -0.17000
C 	C 	0.12590 0.28620 0.92880 0.13800
H 	H 	0.09390 0.28930 0.92220 0.02300
H 	H 	0.13250 0.30340 0.90210 -0.01500
C 	C 	0.13950 0.21190 0.93660 -0.49700
H 	H 	0.12480 0.18490 0.90940 0.15800
H 	H 	0.17120 0.20850 0.94360 0.16800
H 	H 	0.13140 0.19360 0.96180 0.17000
C 	C 	0.19600 0.34950 0.97770 0.14300
H 	H 	0.21290 0.30640 0.97850 -0.02100
H 	H 	0.20770 0.37280 0.00730 -0.00000
C 	C 	0.19970 0.39710 0.94090 -0.51600
H 	H 	0.23030 0.41080 0.94740 0.18200
H 	H 	0.18950 0.37260 0.91200 0.18200
H 	H 	0.18180 0.43860 0.93940 0.19300
O 	O 	0.08850 0.44720 0.21830 0.03300
O 	O 	0.03182 0.45110 0.11971 5.43900
C 	C 	0.02360 0.50470 0.13620 -2.47600
H 	H 	0.04100 0.51610 0.16610 0.49200
N 	N 	0.99160 0.54810 0.11430 0.53400
C 	C 	0.95820 0.52930 0.07310 -0.86400
H 	H 	0.97000 0.49380 0.05740 0.09300
H 	H 	0.95030 0.57070 0.05340 0.32100
C 	C 	0.91880 0.50180 0.08010 -0.21100
H 	H 	0.90510 0.46730 0.05690 0.07600
H 	H 	0.89820 0.53990 0.07840 0.05100
H 	H 	0.92670 0.47990 0.10980 0.13100
C 	C 	0.98930 0.61670 0.13450 -0.78800
H 	H 	0.00870 0.61670 0.16620 0.30100
H 	H 	0.95910 0.62490 0.13420 0.26300
C 	C 	0.00280 0.67560 0.10940 -0.37100
H 	H 	0.00660 0.71840 0.12710 0.09200
H 	H 	0.98010 0.68260 0.08020 0.05700
H 	H 	0.03040 0.66360 0.10480 0.18100
O 	O 	0.81200 0.53270 0.94400 -0.11700
O 	O 	0.83440 0.48980 0.88980 -0.09200
C 	C 	0.82200 0.55200 0.86360 -0.10000
H 	H 	0.82070 0.54220 0.83230 0.10500
H 	H 	0.79230 0.56590 0.86280 0.06700
C 	C 	0.85340 0.61250 0.88190 0.23400
O 	O 	0.83650 0.66760 0.86230 -0.38700
H 	H 	0.85330 0.70120 0.87290 0.18900
C 	C 	0.05480 0.06030 0.23610 0.92200
H 	H 	0.04190 0.02180 0.21750 -0.29400
N 	N 	0.05550 0.05900 0.27850 -0.29300
C 	C 	0.08120 0.11570 0.31000 -0.02600
H 	H 	0.10420 0.13460 0.29900 0.07100
H 	H 	0.09520 0.09670 0.34060 0.08900
C 	C 	0.05060 0.16930 0.31080 0.60800
H 	H 	0.06650 0.21130 0.32460 -0.12200
H 	H 	0.03200 0.17970 0.28000 -0.41300
H 	H 	0.03240 0.15350 0.32840 -0.12000
C 	C 	0.02680 0.00840 0.29280 0.39500
H 	H 	0.01350 0.03180 0.31320 -0.10300
H 	H 	0.00300 0.99150 0.26620 -0.08600
C 	C 	0.05470 0.94770 0.31690 -1.06200
H 	H 	0.03650 0.91440 0.32620 0.32300
H 	H 	0.06770 0.92470 0.29660 0.39500
H 	H 	0.07800 0.96470 0.34350 0.47500
C 	C 	0.08530 0.05890 0.24610 -0.63100
H 	H 	0.09670 0.01910 0.23580 0.17700
N 	N 	0.08640 0.06120 0.28820 0.00400
C 	C 	0.05240 0.10620 0.29770 -0.03000
H 	H 	0.06760 0.13780 0.32280 -0.20200
H 	H 	0.03330 0.07570 0.30830 0.03900
C 	C 	0.02450 0.14890 0.26060 0.23500
H 	H 	0.02540 0.13060 0.23190 -0.05700
H 	H 	0.99440 0.14760 0.26100 -0.08500
H 	H 	0.03500 0.19700 0.26430 0.20100
C 	C 	0.10370 0.99550 0.31670 0.52400
H 	H 	0.09190 0.95330 0.29890 -0.21500
H 	H 	0.09460 0.99550 0.34370 -0.29900
C 	C 	0.15380 0.99630 0.33040 -0.83600
H 	H 	0.16560 0.95390 0.34730 0.26600
H 	H 	0.16240 0.99850 0.30340 0.26800
H 	H 	0.16520 0.03700 0.34940 0.28100
C 	C 	0.09470 0.38480 0.98480 0.11900
H 	H 	0.09870 0.42240 0.00530 0.00700
N 	N 	0.09360 0.39670 0.94330 -0.15300
C 	C 	0.07410 0.34480 0.90780 0.01400
H 	H 	0.08910 0.29990 0.91770 -0.02200
H 	H 	0.08050 0.35920 0.88040 -0.01900
C 	C 	0.02710 0.33280 0.89520 -0.24700
H 	H 	0.01640 0.31160 0.86530 0.18700
H 	H 	0.02120 0.30160 0.91720 0.10200
H 	H 	0.01220 0.37720 0.89480 0.47100
C 	C 	0.10260 0.46990 0.93030 0.09300
H 	H 	0.12200 0.46790 0.91170 -0.01000
H 	H 	0.11750 0.49720 0.95770 0.00800
C 	C 	0.05980 0.50440 0.90410 0.00900
H 	H 	0.06560 0.55050 0.89410 -0.10500
H 	H 	0.04450 0.47590 0.87780 0.04400
H 	H 	0.04160 0.50910 0.92330 0.39700
O 	O 	0.08590 0.45830 0.17170 -1.66400
C 	C 	0.06350 0.49070 0.13880 3.77100
H 	H 	0.04170 0.46830 0.11480 -5.35000
O 	O 	0.07120 0.55960 0.13780 -0.77400
