data_crystal

_cell_length_a 16.79420
_cell_length_b 16.79420
_cell_length_c 16.79420
_cell_angle_alpha 90.00000
_cell_angle_beta  90.00000
_cell_angle_gamma 90.00000

_symmetry_space_group_name_	'P 1'
_symmetry_space_group_name_H-M	'P 1'

loop_
_symmetry_equiv_pos_as_xyz
  x,y,z

loop_
_atom_site_label
_atom_site_type_symbol
_atom_site_fract_x
_atom_site_fract_y
_atom_site_fract_z
_atom_site_charge
P 	P 	0.12289 0.43554 0.12217 0.67100
O 	O 	0.14597 0.35132 0.14297 -0.50400
O 	O 	0.19471 0.48395 0.09007 -0.91900
O 	O 	0.09342 0.48318 0.19447 -0.90000
O 	O 	0.05757 0.43542 0.05792 -1.26700
P 	P 	0.87711 0.56446 0.12217 0.67400
O 	O 	0.85403 0.64868 0.14297 -0.20200
O 	O 	0.80529 0.51605 0.09007 -0.86200
O 	O 	0.90658 0.51682 0.19447 -0.55500
O 	O 	0.94243 0.56458 0.05792 -0.76500
P 	P 	0.87711 0.43554 0.87783 0.67800
O 	O 	0.85403 0.35132 0.85703 -0.04800
O 	O 	0.80529 0.48395 0.90993 -0.50700
O 	O 	0.90658 0.48318 0.80553 -0.49800
O 	O 	0.94243 0.43542 0.94208 -0.33500
P 	P 	0.12289 0.56446 0.87783 0.67400
O 	O 	0.14597 0.64868 0.85703 -0.19400
O 	O 	0.19471 0.51605 0.90993 -0.56300
O 	O 	0.09342 0.51682 0.80553 -0.84200
O 	O 	0.05757 0.56458 0.94208 -0.76800
P 	P 	0.12217 0.12289 0.43554 0.67200
O 	O 	0.14297 0.14597 0.35132 -0.50300
O 	O 	0.09007 0.19471 0.48395 -0.91800
O 	O 	0.19447 0.09342 0.48318 -0.89900
O 	O 	0.05792 0.05757 0.43542 -1.26600
P 	P 	0.12217 0.87711 0.56446 0.67500
O 	O 	0.14297 0.85403 0.64868 -0.20200
O 	O 	0.09007 0.80529 0.51605 -0.86200
O 	O 	0.19447 0.90658 0.51682 -0.55500
O 	O 	0.05792 0.94243 0.56458 -0.76500
P 	P 	0.87783 0.87711 0.43554 0.67800
O 	O 	0.85703 0.85403 0.35132 -0.04800
O 	O 	0.90993 0.80529 0.48395 -0.50700
O 	O 	0.80553 0.90658 0.48318 -0.49800
O 	O 	0.94208 0.94243 0.43542 -0.33500
P 	P 	0.87783 0.12289 0.56446 0.67400
O 	O 	0.85703 0.14597 0.64868 -0.19400
O 	O 	0.90993 0.19471 0.51605 -0.56300
O 	O 	0.80553 0.09342 0.51682 -0.84200
O 	O 	0.94208 0.05757 0.56458 -0.76800
P 	P 	0.43554 0.12217 0.12289 0.67200
O 	O 	0.35132 0.14297 0.14597 -0.50300
O 	O 	0.48395 0.09007 0.19471 -0.91800
O 	O 	0.48318 0.19447 0.09342 -0.89900
O 	O 	0.43542 0.05792 0.05757 -1.26600
P 	P 	0.56446 0.12217 0.87711 0.67500
O 	O 	0.64868 0.14297 0.85403 -0.20200
O 	O 	0.51605 0.09007 0.80529 -0.86200
O 	O 	0.51682 0.19447 0.90658 -0.55500
O 	O 	0.56458 0.05792 0.94243 -0.76500
P 	P 	0.43554 0.87783 0.87711 0.67800
O 	O 	0.35132 0.85703 0.85403 -0.04800
O 	O 	0.48395 0.90993 0.80529 -0.50700
O 	O 	0.48318 0.80553 0.90658 -0.49800
O 	O 	0.43542 0.94208 0.94243 -0.33500
P 	P 	0.56446 0.87783 0.12289 0.67400
O 	O 	0.64868 0.85703 0.14597 -0.19400
O 	O 	0.51605 0.90993 0.19471 -0.56300
O 	O 	0.51682 0.80553 0.09342 -0.84200
O 	O 	0.56458 0.94208 0.05757 -0.76800
P 	P 	0.93554 0.62289 0.62217 0.67100
O 	O 	0.85132 0.64597 0.64297 -0.14100
O 	O 	0.98395 0.69471 0.59007 -0.42100
O 	O 	0.98318 0.59342 0.69447 -0.40900
O 	O 	0.93542 0.55757 0.55792 -0.59100
P 	P 	0.06446 0.37711 0.62217 0.68300
O 	O 	0.14868 0.35403 0.64297 -0.29200
O 	O 	0.01605 0.30529 0.59007 -0.98300
O 	O 	0.01682 0.40658 0.69447 -0.95000
O 	O 	0.06458 0.44243 0.55792 -0.99300
P 	P 	0.93554 0.37711 0.37783 0.66500
O 	O 	0.85132 0.35403 0.35703 -0.22500
O 	O 	0.98395 0.30529 0.40993 -0.47800
O 	O 	0.98318 0.40658 0.30553 -0.47000
O 	O 	0.93542 0.44243 0.44208 -0.59300
P 	P 	0.06446 0.62289 0.37783 0.68300
O 	O 	0.14868 0.64597 0.35703 -0.29200
O 	O 	0.01605 0.69471 0.40993 -0.96900
O 	O 	0.01682 0.59342 0.30553 -0.96500
O 	O 	0.06458 0.55757 0.44208 -0.99300
P 	P 	0.62289 0.62217 0.93554 0.67100
O 	O 	0.64597 0.64297 0.85132 -0.14100
O 	O 	0.69471 0.59007 0.98395 -0.42100
O 	O 	0.59342 0.69447 0.98318 -0.40900
O 	O 	0.55757 0.55792 0.93542 -0.59100
P 	P 	0.37711 0.62217 0.06446 0.68300
O 	O 	0.35403 0.64297 0.14868 -0.29200
O 	O 	0.30529 0.59007 0.01605 -0.98300
O 	O 	0.40658 0.69447 0.01682 -0.95000
O 	O 	0.44243 0.55792 0.06458 -0.99300
P 	P 	0.37711 0.37783 0.93554 0.66500
O 	O 	0.35403 0.35703 0.85132 -0.22500
O 	O 	0.30529 0.40993 0.98395 -0.47800
O 	O 	0.40658 0.30553 0.98318 -0.47000
O 	O 	0.44243 0.44208 0.93542 -0.59300
P 	P 	0.62289 0.37783 0.06446 0.68300
O 	O 	0.64597 0.35703 0.14868 -0.29200
O 	O 	0.69471 0.40993 0.01605 -0.96900
O 	O 	0.59342 0.30553 0.01682 -0.96500
O 	O 	0.55757 0.44208 0.06458 -0.99300
P 	P 	0.62217 0.93554 0.62289 0.67100
O 	O 	0.64297 0.85132 0.64597 -0.14100
O 	O 	0.59007 0.98395 0.69471 -0.42100
O 	O 	0.69447 0.98318 0.59342 -0.40900
O 	O 	0.55792 0.93542 0.55757 -0.59100
P 	P 	0.62217 0.06446 0.37711 0.68300
O 	O 	0.64297 0.14868 0.35403 -0.29200
O 	O 	0.59007 0.01605 0.30529 -0.98300
O 	O 	0.69447 0.01682 0.40658 -0.95000
O 	O 	0.55792 0.06458 0.44243 -0.99300
P 	P 	0.37783 0.93554 0.37711 0.66500
O 	O 	0.35703 0.85132 0.35403 -0.22500
O 	O 	0.40993 0.98395 0.30529 -0.47800
O 	O 	0.30553 0.98318 0.40658 -0.47000
O 	O 	0.44208 0.93542 0.44243 -0.59300
P 	P 	0.37783 0.06446 0.62289 0.68300
O 	O 	0.35703 0.14868 0.64597 -0.29200
O 	O 	0.40993 0.01605 0.69471 -0.96900
O 	O 	0.30553 0.01682 0.59342 -0.96500
O 	O 	0.44208 0.06458 0.55757 -0.99300
Al	Al	0.00000 0.50000 -0.00000 2.32500
Al	Al	0.00000 0.00000 0.50000 2.32500
Al	Al	0.50000 0.00000 -0.00000 2.32500
Al	Al	0.00000 0.50000 0.50000 2.35900
Al	Al	0.50000 0.50000 -0.00000 2.35900
Al	Al	0.50000 0.00000 0.50000 2.35900
Al	Al	0.25000 0.50000 -0.00000 2.35400
Al	Al	0.75000 0.50000 -0.00000 2.35500
Al	Al	0.00000 0.25000 0.50000 2.35400
Al	Al	0.00000 0.75000 0.50000 2.35500
Al	Al	0.50000 0.00000 0.25000 2.35400
Al	Al	0.50000 0.00000 0.75000 2.35500
Al	Al	0.00000 0.50000 0.25000 2.34800
Al	Al	0.00000 0.50000 0.75000 2.35000
Al	Al	0.25000 0.00000 0.50000 2.34800
Al	Al	0.75000 0.00000 0.50000 2.35000
Al	Al	0.50000 0.25000 -0.00000 2.34800
Al	Al	0.50000 0.75000 -0.00000 2.35000
