data_crystal

_cell_length_a 11.00310
_cell_length_b 11.22170
_cell_length_c 11.69590
_cell_angle_alpha 69.19300
_cell_angle_beta  79.67600
_cell_angle_gamma 81.00800

_symmetry_space_group_name_	'P 1'
_symmetry_space_group_name_H-M	'P 1'

loop_
_symmetry_equiv_pos_as_xyz
  x,y,z

loop_
_atom_site_label
_atom_site_type_symbol
_atom_site_fract_x
_atom_site_fract_y
_atom_site_fract_z
_atom_site_charge
Ni	Ni	0.98467 0.24530 0.23813 1.13000
Ni	Ni	0.86347 0.01760 0.50069 1.06600
Ni	Ni	0.02843 0.57350 0.07488 1.07200
O 	O 	0.01310 0.07090 0.37100 -0.75000
H 	H 	0.01950 0.01910 0.33160 0.25400
O 	O 	0.94240 0.41650 0.10330 -0.76100
H 	H 	0.86530 0.43710 0.11950 0.28000
O 	O 	0.82390 0.18830 0.20390 -0.41200
O 	O 	0.72680 0.09880 0.39790 -0.45200
O 	O 	0.20090 0.46880 0.09390 -0.43400
O 	O 	0.15190 0.29720 0.25850 -0.43800
O 	O 	0.13960 0.82180 0.45560 -0.44400
O 	O 	0.11580 0.66730 0.64050 -0.44100
O 	O 	0.90840 0.84450 0.87890 -0.43400
O 	O 	0.86440 0.68990 0.05710 -0.45000
C 	C 	0.72730 0.16150 0.28480 0.34300
C 	C 	0.60020 0.21820 0.24740 -0.07900
C 	C 	0.54710 0.18730 0.15960 0.00200
C 	C 	0.42970 0.24430 0.13500 -0.02700
H 	H 	0.39370 0.22450 0.07870 0.04700
C 	C 	0.36220 0.33030 0.19050 -0.08800
C 	C 	0.22660 0.36600 0.18290 0.36900
C 	C 	0.41730 0.35970 0.27830 0.00200
C 	C 	0.53560 0.30480 0.29920 -0.03000
H 	H 	0.57390 0.32800 0.35170 0.04700
C 	C 	0.34940 0.44600 0.34170 0.07100
C 	C 	0.33680 0.41210 0.47080 -0.14000
H 	H 	0.37220 0.33240 0.51660 0.07400
C 	C 	0.27500 0.49160 0.53050 0.05900
H 	H 	0.26600 0.46460 0.61620 0.01000
C 	C 	0.22300 0.61750 0.46270 -0.14700
C 	C 	0.15780 0.70350 0.52960 0.37800
C 	C 	0.23870 0.65320 0.33290 0.05900
H 	H 	0.20740 0.73440 0.28590 0.00500
C 	C 	0.29960 0.56930 0.27550 -0.14700
H 	H 	0.30820 0.59490 0.18990 0.07600
C 	C 	0.60850 0.08430 0.11200 0.06600
C 	C 	0.64050 0.10040 0.98730 -0.14200
H 	H 	0.61360 0.17730 0.92970 0.07900
C 	C 	0.70730 0.01120 0.94670 0.06100
H 	H 	0.72300 0.02690 0.86210 0.00800
C 	C 	0.75600 0.89280 0.02720 -0.13700
C 	C 	0.85080 0.80210 0.98390 0.38700
C 	C 	0.72270 0.87090 0.15190 0.05300
H 	H 	0.74560 0.79140 0.20820 0.01100
C 	C 	0.65520 0.96610 0.19470 -0.12200
H 	H 	0.64050 0.95180 0.27910 0.07000
Ni	Ni	0.01533 0.75470 0.76187 1.12900
Ni	Ni	0.13653 0.98240 0.49931 1.06500
Ni	Ni	0.97157 0.42650 0.92512 1.07100
O 	O 	0.98690 0.92910 0.62900 -0.75100
H 	H 	0.98050 0.98090 0.66840 0.25300
O 	O 	0.05760 0.58350 0.89670 -0.76200
H 	H 	0.13470 0.56290 0.88050 0.27900
O 	O 	0.17610 0.81170 0.79610 -0.41300
O 	O 	0.27320 0.90120 0.60210 -0.45200
O 	O 	0.79910 0.53120 0.90610 -0.43400
O 	O 	0.84810 0.70280 0.74150 -0.43800
O 	O 	0.86040 0.17820 0.54440 -0.44400
O 	O 	0.88420 0.33270 0.35950 -0.44100
O 	O 	0.09160 0.15550 0.12110 -0.43400
O 	O 	0.13560 0.31010 0.94290 -0.45000
C 	C 	0.27270 0.83850 0.71520 0.34300
C 	C 	0.39980 0.78180 0.75260 -0.07900
C 	C 	0.45290 0.81270 0.84040 0.00200
C 	C 	0.57030 0.75570 0.86500 -0.02700
H 	H 	0.60630 0.77550 0.92130 0.04700
C 	C 	0.63780 0.66970 0.80950 -0.08800
C 	C 	0.77340 0.63400 0.81710 0.36900
C 	C 	0.58270 0.64030 0.72170 0.00200
C 	C 	0.46440 0.69520 0.70080 -0.03000
H 	H 	0.42610 0.67200 0.64830 0.04700
C 	C 	0.65060 0.55400 0.65830 0.07100
C 	C 	0.66320 0.58790 0.52920 -0.14000
H 	H 	0.62780 0.66760 0.48340 0.07400
C 	C 	0.72500 0.50840 0.46950 0.05900
H 	H 	0.73400 0.53540 0.38380 0.01000
C 	C 	0.77700 0.38250 0.53730 -0.14700
C 	C 	0.84220 0.29650 0.47040 0.37800
C 	C 	0.76130 0.34680 0.66710 0.05900
H 	H 	0.79260 0.26560 0.71410 0.00500
C 	C 	0.70040 0.43070 0.72450 -0.14700
H 	H 	0.69180 0.40510 0.81010 0.07600
C 	C 	0.39150 0.91570 0.88800 0.06600
C 	C 	0.35950 0.89960 0.01270 -0.14200
H 	H 	0.38640 0.82270 0.07030 0.07900
C 	C 	0.29270 0.98880 0.05330 0.06100
H 	H 	0.27700 0.97310 0.13790 0.00800
C 	C 	0.24400 0.10720 0.97280 -0.13700
C 	C 	0.14920 0.19790 0.01610 0.38700
C 	C 	0.27730 0.12910 0.84810 0.05300
H 	H 	0.25440 0.20860 0.79180 0.01100
C 	C 	0.34480 0.03390 0.80530 -0.12200
H 	H 	0.35950 0.04820 0.72090 0.07000
