data_crystal

_cell_length_a 8.74420
_cell_length_b 16.76590
_cell_length_c 16.76590
_cell_angle_alpha 62.95660
_cell_angle_beta  79.98840
_cell_angle_gamma 100.01200

_symmetry_space_group_name_	'P 1'
_symmetry_space_group_name_H-M	'P 1'

loop_
_symmetry_equiv_pos_as_xyz
  x,y,z

loop_
_atom_site_label
_atom_site_type_symbol
_atom_site_fract_x
_atom_site_fract_y
_atom_site_fract_z
_atom_site_charge
Mn	Mn	0.71491 0.42352 0.42792 1.28100
Mn	Mn	0.14283 0.42792 0.14856 1.28000
Mn	Mn	0.29139 0.14856 0.42352 1.28100
Mn	Mn	0.64283 0.85144 0.57208 1.28100
Mn	Mn	0.79139 0.57648 0.85144 1.28000
Mn	Mn	0.21491 0.57208 0.57648 1.28000
H 	H 	0.58980 0.37430 0.76750 0.13200
H 	H 	0.33370 0.27250 0.81090 0.03200
H 	H 	0.14600 0.12670 0.87840 0.05200
H 	H 	0.14420 0.04080 0.80840 0.03000
H 	H 	0.36560 0.07440 0.68810 0.07400
H 	H 	0.55500 0.21390 0.61760 0.00700
H 	H 	0.35730 0.76750 0.85820 0.13200
H 	H 	0.14460 0.81090 0.91660 0.03300
H 	H 	0.02440 0.87840 0.99490 0.05000
H 	H 	0.95260 0.80840 0.15080 0.03600
H 	H 	0.05370 0.68810 0.23750 0.07100
H 	H 	0.17260 0.61760 0.16850 0.00800
H 	H 	0.21550 0.85820 0.37430 0.13200
H 	H 	0.06120 0.91660 0.27250 0.03500
H 	H 	0.01930 0.99490 0.12670 0.04700
H 	H 	0.10340 0.15080 0.04080 0.03300
H 	H 	0.29120 0.23750 0.07440 0.07100
H 	H 	0.34110 0.16850 0.21390 0.01000
H 	H 	0.85730 0.14180 0.23250 0.13300
H 	H 	0.64460 0.08340 0.18910 0.03400
H 	H 	0.52440 0.00510 0.12160 0.05000
H 	H 	0.45260 0.84920 0.19160 0.03200
H 	H 	0.55370 0.76250 0.31190 0.07200
H 	H 	0.67260 0.83150 0.38240 0.00900
H 	H 	0.71550 0.62570 0.14180 0.13300
H 	H 	0.56120 0.72750 0.08340 0.03300
H 	H 	0.51930 0.87330 0.00510 0.05100
H 	H 	0.60340 0.95920 0.84920 0.03200
H 	H 	0.79120 0.92560 0.76250 0.07300
H 	H 	0.84110 0.78610 0.83150 0.00800
H 	H 	0.08980 0.23250 0.62570 0.13200
H 	H 	0.83370 0.18910 0.72750 0.03200
H 	H 	0.64600 0.12160 0.87330 0.05300
H 	H 	0.64420 0.19160 0.95920 0.03000
H 	H 	0.86560 0.31190 0.92560 0.07500
H 	H 	0.05500 0.38240 0.78610 0.00500
C 	C 	0.82020 0.45920 0.57640 -0.08300
C 	C 	0.78440 0.46270 0.65820 -0.02700
C 	C 	0.60340 0.34510 0.66570 0.12800
C 	C 	0.94440 0.51990 0.48770 0.35600
C 	C 	0.84490 0.51230 0.70330 0.34900
C 	C 	0.46700 0.25630 0.70560 -0.05400
C 	C 	0.33960 0.23310 0.78620 -0.01500
C 	C 	0.22760 0.14800 0.82350 -0.06600
C 	C 	0.23050 0.09440 0.78460 -0.00100
C 	C 	0.35890 0.11610 0.71000 -0.08200
C 	C 	0.47160 0.19690 0.67020 0.00500
C 	C 	0.39660 0.57640 0.96440 -0.08300
C 	C 	0.44260 0.65820 0.87910 -0.02700
C 	C 	0.26910 0.66570 0.98920 0.12700
C 	C 	0.43210 0.48770 0.99240 0.35400
C 	C 	0.54820 0.70330 0.78440 0.34700
C 	C 	0.17260 0.70560 0.03810 -0.05200
C 	C 	0.12580 0.78620 0.98070 -0.01800
C 	C 	0.05110 0.82350 0.02850 -0.06200
C 	C 	0.01510 0.78460 0.12100 -0.01100
C 	C 	0.06890 0.71000 0.17390 -0.07500
C 	C 	0.14180 0.67020 0.13290 0.00000
C 	C 	0.36100 0.96440 0.45920 -0.08300
C 	C 	0.32170 0.87910 0.46270 -0.02700
C 	C 	0.25830 0.98920 0.34510 0.12500
C 	C 	0.42450 0.99240 0.51990 0.35400
C 	C 	0.33260 0.78440 0.51230 0.34700
C 	C 	0.21070 0.03810 0.25630 -0.04800
C 	C 	0.10650 0.98070 0.23310 -0.02400
C 	C 	0.07960 0.02850 0.14800 -0.05600
C 	C 	0.13610 0.12100 0.09440 -0.01000
C 	C 	0.24280 0.17390 0.11610 -0.07400
C 	C 	0.27470 0.13290 0.19690 -0.00200
C 	C 	0.89660 0.03560 0.42360 -0.08300
C 	C 	0.94260 0.12090 0.34180 -0.02500
C 	C 	0.76910 0.01080 0.33430 0.12600
C 	C 	0.93210 0.00760 0.51230 0.35400
C 	C 	0.04820 0.21560 0.29670 0.34600
C 	C 	0.67260 0.96190 0.29440 -0.04900
C 	C 	0.62580 0.01930 0.21380 -0.02100
C 	C 	0.55110 0.97150 0.17650 -0.06000
C 	C 	0.51510 0.87900 0.21540 -0.00600
C 	C 	0.56890 0.82610 0.29000 -0.07600
C 	C 	0.64180 0.86710 0.32980 -0.00000
C 	C 	0.86100 0.54080 0.03560 -0.08200
C 	C 	0.82170 0.53730 0.12090 -0.02700
C 	C 	0.75830 0.65490 0.01080 0.12700
C 	C 	0.92450 0.48010 0.00760 0.35400
C 	C 	0.83260 0.48770 0.21560 0.34700
C 	C 	0.71070 0.74370 0.96190 -0.05100
C 	C 	0.60650 0.76690 0.01930 -0.01800
C 	C 	0.57960 0.85200 0.97150 -0.06200
C 	C 	0.63610 0.90560 0.87900 -0.00400
C 	C 	0.74280 0.88390 0.82610 -0.07900
C 	C 	0.77470 0.80310 0.86710 0.00200
C 	C 	0.32020 0.42360 0.54080 -0.08300
C 	C 	0.28440 0.34180 0.53730 -0.02700
C 	C 	0.10340 0.33430 0.65490 0.12700
C 	C 	0.44440 0.51230 0.48010 0.35300
C 	C 	0.34490 0.29670 0.48770 0.34700
C 	C 	0.96700 0.29440 0.74370 -0.05400
C 	C 	0.83960 0.21380 0.76690 -0.01400
C 	C 	0.72760 0.17650 0.85200 -0.06800
C 	C 	0.73050 0.21540 0.90560 0.00200
C 	C 	0.85890 0.29000 0.88390 -0.08500
C 	C 	0.97160 0.32980 0.80310 0.00900
N 	N 	0.70810 0.38830 0.57960 -0.21600
N 	N 	0.64370 0.38940 0.71210 -0.19400
N 	N 	0.28770 0.57960 0.03210 -0.21700
N 	N 	0.35580 0.71210 0.89850 -0.19400
N 	N 	0.31980 0.03210 0.38830 -0.21600
N 	N 	0.25430 0.89850 0.38940 -0.19400
N 	N 	0.78770 0.96790 0.42040 -0.21500
N 	N 	0.85580 0.10150 0.28790 -0.19400
N 	N 	0.81980 0.61170 0.96790 -0.21600
N 	N 	0.75430 0.61060 0.10150 -0.19400
N 	N 	0.20810 0.42040 0.61170 -0.21600
N 	N 	0.14370 0.28790 0.61060 -0.19400
O 	O 	0.92976 0.51902 0.41794 -0.42900
O 	O 	0.07142 0.57594 0.48278 -0.39500
O 	O 	0.00063 0.56060 0.66751 -0.45800
O 	O 	0.75961 0.50765 0.77092 -0.42600
O 	O 	0.34770 0.41794 0.06304 -0.42900
O 	O 	0.55420 0.48278 0.94128 -0.39400
O 	O 	0.66814 0.66751 0.77189 -0.45600
O 	O 	0.53053 0.77092 0.72143 -0.42500
O 	O 	0.41074 0.06304 0.51902 -0.42900
O 	O 	0.49548 0.94128 0.57594 -0.39400
O 	O 	0.44003 0.77189 0.56060 -0.45600
O 	O 	0.25196 0.72143 0.50765 -0.42600
O 	O 	0.84770 0.93696 0.58206 -0.42800
O 	O 	0.05420 0.05872 0.51722 -0.39400
O 	O 	0.16814 0.22811 0.33249 -0.45600
O 	O 	0.03053 0.27857 0.22908 -0.42600
O 	O 	0.91074 0.48098 0.93696 -0.42900
O 	O 	0.99548 0.42406 0.05872 -0.39300
O 	O 	0.94003 0.43940 0.22811 -0.45500
O 	O 	0.75196 0.49235 0.27857 -0.42500
O 	O 	0.42976 0.58206 0.48098 -0.42900
O 	O 	0.57142 0.51722 0.42406 -0.39300
O 	O 	0.50063 0.33249 0.43940 -0.45600
O 	O 	0.25961 0.22908 0.49235 -0.42600
