data_crystal

_cell_length_a 7.74760
_cell_length_b 18.39300
_cell_length_c 18.75300
_cell_angle_alpha 90.00000
_cell_angle_beta  101.72000
_cell_angle_gamma 90.00000

_symmetry_space_group_name_	'P 1'
_symmetry_space_group_name_H-M	'P 1'

loop_
_symmetry_equiv_pos_as_xyz
  x,y,z

loop_
_atom_site_label
_atom_site_type_symbol
_atom_site_fract_x
_atom_site_fract_y
_atom_site_fract_z
_atom_site_charge
Cd	Cd	0.45931 0.16342 0.10277 1.21200
Cd	Cd	0.08366 0.46304 0.36255 1.21300
O 	O 	0.08920 0.51040 0.25360 -0.39900
O 	O 	0.03330 0.60860 0.31330 -0.34100
O 	O 	0.98020 0.84710 0.18880 -0.37400
O 	O 	0.98650 0.85560 0.07270 -0.37600
O 	O 	0.42940 0.41540 0.70400 -0.37700
O 	O 	0.43640 0.29780 0.72090 -0.37400
O 	O 	0.44420 0.20050 0.97330 -0.36400
O 	O 	0.39400 0.27830 0.05710 -0.38400
O 	O 	0.59860 0.06170 0.07650 -0.47900
O 	O 	0.82130 0.02060 0.03000 -0.45300
N 	N 	0.22750 0.53130 0.00230 -0.13900
N 	N 	0.26530 0.58470 0.90340 -0.18100
H 	H 	0.29070 0.59210 0.86140 0.12900
N 	N 	0.20990 0.63560 0.94590 -0.09000
C 	C 	0.06730 0.57850 0.25840 0.29900
C 	C 	0.08410 0.62400 0.19150 -0.05900
C 	C 	0.04370 0.69710 0.19090 -0.00200
H 	H 	0.01070 0.71790 0.23130 0.05700
C 	C 	0.05170 0.74060 0.13010 -0.06200
C 	C 	0.09930 0.70970 0.06940 -0.01900
H 	H 	0.10540 0.73810 0.02900 0.05400
C 	C 	0.13840 0.63480 0.06990 -0.01300
C 	C 	0.13510 0.59270 0.13070 -0.02200
H 	H 	0.16640 0.54390 0.13130 0.06700
C 	C 	0.00530 0.81940 0.13000 0.30000
C 	C 	0.19300 0.60230 0.00610 0.12000
C 	C 	0.27300 0.52340 0.93690 0.14900
C 	C 	0.32050 0.45230 0.91310 -0.03700
C 	C 	0.33720 0.39240 0.95960 -0.00500
H 	H 	0.31480 0.39850 0.00610 0.06400
C 	C 	0.38510 0.32500 0.93960 -0.06200
C 	C 	0.41200 0.31650 0.86750 0.01100
H 	H 	0.44120 0.27080 0.85220 0.05600
C 	C 	0.39670 0.37220 0.82090 -0.07000
C 	C 	0.35100 0.44100 0.84220 -0.00300
H 	H 	0.34050 0.47960 0.80960 0.04000
C 	C 	0.42160 0.36150 0.74310 0.30900
C 	C 	0.41000 0.26290 0.99360 0.29600
C 	C 	0.69830 0.06360 0.03080 0.43100
H 	H 	0.67780 0.09960 0.99530 -0.11900
Cd	Cd	0.54069 0.66342 0.39723 1.21100
Cd	Cd	0.91634 0.96304 0.13745 1.21100
O 	O 	0.91080 0.01040 0.24640 -0.39800
O 	O 	0.96670 0.10860 0.18670 -0.34100
O 	O 	0.01980 0.34710 0.31120 -0.37400
O 	O 	0.01350 0.35560 0.42730 -0.37500
O 	O 	0.57060 0.91540 0.79600 -0.37800
O 	O 	0.56360 0.79780 0.77910 -0.37500
O 	O 	0.55580 0.70050 0.52670 -0.36300
O 	O 	0.60600 0.77830 0.44290 -0.38600
O 	O 	0.40140 0.56170 0.42350 -0.47900
O 	O 	0.17870 0.52060 0.47000 -0.45400
N 	N 	0.77250 0.03130 0.49770 -0.13800
N 	N 	0.73470 0.08470 0.59660 -0.18100
H 	H 	0.70930 0.09210 0.63860 0.12900
N 	N 	0.79010 0.13560 0.55410 -0.09100
C 	C 	0.93270 0.07850 0.24160 0.29900
C 	C 	0.91590 0.12400 0.30850 -0.05900
C 	C 	0.95630 0.19710 0.30910 -0.00200
H 	H 	0.98930 0.21790 0.26870 0.05800
C 	C 	0.94830 0.24060 0.36990 -0.06100
C 	C 	0.90070 0.20970 0.43060 -0.02000
H 	H 	0.89460 0.23810 0.47100 0.05500
C 	C 	0.86160 0.13480 0.43010 -0.01300
C 	C 	0.86490 0.09270 0.36930 -0.02200
H 	H 	0.83360 0.04390 0.36870 0.06700
C 	C 	0.99470 0.31940 0.37000 0.29900
C 	C 	0.80700 0.10230 0.49390 0.12100
C 	C 	0.72700 0.02340 0.56310 0.14900
C 	C 	0.67950 0.95230 0.58690 -0.03800
C 	C 	0.66280 0.89240 0.54040 -0.00300
H 	H 	0.68520 0.89850 0.49390 0.06300
C 	C 	0.61490 0.82500 0.56040 -0.06300
C 	C 	0.58800 0.81650 0.63250 0.01200
H 	H 	0.55880 0.77080 0.64780 0.05600
C 	C 	0.60330 0.87220 0.67910 -0.07000
C 	C 	0.64900 0.94100 0.65780 -0.00200
H 	H 	0.65950 0.97960 0.69040 0.04000
C 	C 	0.57840 0.86150 0.75690 0.30900
C 	C 	0.59000 0.76290 0.50640 0.29800
C 	C 	0.30170 0.56360 0.46920 0.42500
H 	H 	0.32220 0.59960 0.50470 -0.11500
Cd	Cd	0.54069 0.83658 0.89723 1.21100
Cd	Cd	0.91634 0.53696 0.63745 1.21200
O 	O 	0.91080 0.48960 0.74640 -0.40000
O 	O 	0.96670 0.39140 0.68670 -0.34200
O 	O 	0.01980 0.15290 0.81120 -0.37500
O 	O 	0.01350 0.14440 0.92730 -0.37700
O 	O 	0.57060 0.58460 0.29600 -0.37800
O 	O 	0.56360 0.70220 0.27910 -0.37500
O 	O 	0.55580 0.79950 0.02670 -0.36400
O 	O 	0.60600 0.72170 0.94290 -0.38400
O 	O 	0.40140 0.93830 0.92350 -0.47900
O 	O 	0.17870 0.97940 0.97000 -0.45300
N 	N 	0.77250 0.46870 0.99770 -0.13900
N 	N 	0.73470 0.41530 0.09660 -0.18100
H 	H 	0.70930 0.40790 0.13860 0.12900
N 	N 	0.79010 0.36440 0.05410 -0.09000
C 	C 	0.93270 0.42150 0.74160 0.29900
C 	C 	0.91590 0.37600 0.80850 -0.05900
C 	C 	0.95630 0.30290 0.80910 -0.00200
H 	H 	0.98930 0.28210 0.76870 0.05700
C 	C 	0.94830 0.25940 0.86990 -0.06200
C 	C 	0.90070 0.29030 0.93060 -0.01900
H 	H 	0.89460 0.26190 0.97100 0.05400
C 	C 	0.86160 0.36520 0.93010 -0.01300
C 	C 	0.86490 0.40730 0.86930 -0.02200
H 	H 	0.83360 0.45610 0.86870 0.06700
C 	C 	0.99470 0.18060 0.87000 0.30000
C 	C 	0.80700 0.39770 0.99390 0.12000
C 	C 	0.72700 0.47660 0.06310 0.14900
C 	C 	0.67950 0.54770 0.08690 -0.03700
C 	C 	0.66280 0.60760 0.04040 -0.00500
H 	H 	0.68520 0.60150 0.99390 0.06400
C 	C 	0.61490 0.67500 0.06040 -0.06200
C 	C 	0.58800 0.68350 0.13250 0.01100
H 	H 	0.55880 0.72920 0.14780 0.05600
C 	C 	0.60330 0.62780 0.17910 -0.07000
C 	C 	0.64900 0.55900 0.15780 -0.00300
H 	H 	0.65950 0.52040 0.19040 0.04000
C 	C 	0.57840 0.63850 0.25690 0.30900
C 	C 	0.59000 0.73710 0.00640 0.29600
C 	C 	0.30170 0.93640 0.96920 0.43100
H 	H 	0.32220 0.90040 0.00470 -0.11900
Cd	Cd	0.45931 0.33658 0.60277 1.21100
Cd	Cd	0.08366 0.03696 0.86255 1.21100
O 	O 	0.08920 0.98960 0.75360 -0.39800
O 	O 	0.03330 0.89140 0.81330 -0.34100
O 	O 	0.98020 0.65290 0.68880 -0.37400
O 	O 	0.98650 0.64440 0.57270 -0.37500
O 	O 	0.42940 0.08460 0.20400 -0.37800
O 	O 	0.43640 0.20220 0.22090 -0.37500
O 	O 	0.44420 0.29950 0.47330 -0.36300
O 	O 	0.39400 0.22170 0.55710 -0.38600
O 	O 	0.59860 0.43830 0.57650 -0.47900
O 	O 	0.82130 0.47940 0.53000 -0.45400
N 	N 	0.22750 0.96870 0.50230 -0.13800
N 	N 	0.26530 0.91530 0.40340 -0.18100
H 	H 	0.29070 0.90790 0.36140 0.12900
N 	N 	0.20990 0.86440 0.44590 -0.09100
C 	C 	0.06730 0.92150 0.75840 0.29900
C 	C 	0.08410 0.87600 0.69150 -0.05900
C 	C 	0.04370 0.80290 0.69090 -0.00200
H 	H 	0.01070 0.78210 0.73130 0.05800
C 	C 	0.05170 0.75940 0.63010 -0.06100
C 	C 	0.09930 0.79030 0.56940 -0.02000
H 	H 	0.10540 0.76190 0.52900 0.05500
C 	C 	0.13840 0.86520 0.56990 -0.01300
C 	C 	0.13510 0.90730 0.63070 -0.02200
H 	H 	0.16640 0.95610 0.63130 0.06700
C 	C 	0.00530 0.68060 0.63000 0.29900
C 	C 	0.19300 0.89770 0.50610 0.12100
C 	C 	0.27300 0.97660 0.43690 0.14900
C 	C 	0.32050 0.04770 0.41310 -0.03800
C 	C 	0.33720 0.10760 0.45960 -0.00300
H 	H 	0.31480 0.10150 0.50610 0.06300
C 	C 	0.38510 0.17500 0.43960 -0.06300
C 	C 	0.41200 0.18350 0.36750 0.01200
H 	H 	0.44120 0.22920 0.35220 0.05600
C 	C 	0.39670 0.12780 0.32090 -0.07000
C 	C 	0.35100 0.05900 0.34220 -0.00200
H 	H 	0.34050 0.02040 0.30960 0.04000
C 	C 	0.42160 0.13850 0.24310 0.30900
C 	C 	0.41000 0.23710 0.49360 0.29800
C 	C 	0.69830 0.43640 0.53080 0.42500
H 	H 	0.67780 0.40040 0.49530 -0.11500
