data_crystal

_cell_length_a 18.49050
_cell_length_b 18.49050
_cell_length_c 33.54080
_cell_angle_alpha 106.00000
_cell_angle_beta  106.00000
_cell_angle_gamma 90.00000

_symmetry_space_group_name_	'P 1'
_symmetry_space_group_name_H-M	'P 1'

loop_
_symmetry_equiv_pos_as_xyz
  x,y,z

loop_
_atom_site_label
_atom_site_type_symbol
_atom_site_fract_x
_atom_site_fract_y
_atom_site_fract_z
_atom_site_charge
Co	Co	0.27818 0.79015 0.86650 1.15400
Co	Co	0.08832 0.07635 0.86650 1.15400
Co	Co	0.79015 0.08832 0.36650 1.15400
Co	Co	0.07635 0.27818 0.36650 1.15400
Co	Co	0.58832 0.29015 0.86650 1.15400
Co	Co	0.77818 0.57635 0.86650 1.15400
Co	Co	0.57635 0.58832 0.36650 1.15400
Co	Co	0.29015 0.77818 0.36650 1.15400
H 	H 	0.47670 0.99740 0.92380 0.05000
H 	H 	0.53180 0.10630 0.91800 0.05000
H 	H 	0.37940 0.08160 0.80300 0.05300
H 	H 	0.32220 0.97450 0.80840 0.05200
H 	H 	0.31290 0.84290 0.96920 -0.01200
H 	H 	0.31660 0.84030 0.03760 0.04000
H 	H 	0.34720 0.88500 0.11280 0.09900
H 	H 	0.15910 0.98620 0.02880 0.03900
H 	H 	0.18200 0.02440 0.10300 0.09800
H 	H 	0.28470 0.12230 0.19740 0.10700
H 	H 	0.18070 0.91840 0.17100 0.09600
H 	H 	0.17800 0.19350 0.30800 -0.00300
H 	H 	0.97050 0.12840 0.29780 0.02200
H 	H 	0.00580 0.04210 0.23780 0.03800
H 	H 	0.10520 0.96900 0.21640 0.06200
H 	H 	0.20910 0.17440 0.24140 0.04300
H 	H 	0.13020 0.94920 0.95840 0.03900
H 	H 	0.14090 0.88400 0.88580 0.01600
H 	H 	0.94710 0.92640 0.92380 0.05000
H 	H 	0.88620 0.81170 0.91800 0.05200
H 	H 	0.92360 0.72140 0.80300 0.05500
H 	H 	0.98620 0.83390 0.80840 0.05200
H 	H 	0.15630 0.12630 0.96920 -0.01100
H 	H 	0.22100 0.19730 0.03760 0.04100
H 	H 	0.26560 0.22780 0.11280 0.10100
H 	H 	0.36970 0.04260 0.02880 0.03800
H 	H 	0.42100 0.07860 0.10300 0.10100
H 	H 	0.41270 0.07510 0.19740 0.11000
H 	H 	0.49030 0.25260 0.17100 0.10000
H 	H 	0.63000 0.11450 0.30800 -0.00200
H 	H 	0.82730 0.16940 0.29780 0.02200
H 	H 	0.73200 0.19570 0.23780 0.04000
H 	H 	0.61120 0.24740 0.21640 0.06000
H 	H 	0.53230 0.06700 0.24140 0.04200
H 	H 	0.32820 0.00920 0.95840 0.03900
H 	H 	0.24490 0.00180 0.88580 0.01600
H 	H 	0.99740 0.94710 0.42380 0.04700
H 	H 	0.10630 0.88620 0.41800 0.05400
H 	H 	0.08160 0.92360 0.30300 0.05700
H 	H 	0.97450 0.98620 0.30840 0.04800
H 	H 	0.84290 0.15630 0.46920 -0.01100
H 	H 	0.84030 0.22100 0.53760 0.04100
H 	H 	0.88500 0.26560 0.61280 0.10000
H 	H 	0.98620 0.36970 0.52880 0.03900
H 	H 	0.02440 0.42100 0.60300 0.10100
H 	H 	0.12230 0.41270 0.69740 0.11000
H 	H 	0.91840 0.49030 0.67100 0.10000
H 	H 	0.19350 0.63000 0.80800 -0.00200
H 	H 	0.12840 0.82730 0.79780 0.02200
H 	H 	0.04210 0.73200 0.73780 0.04000
H 	H 	0.96900 0.61120 0.71640 0.06000
H 	H 	0.17440 0.53230 0.74140 0.04200
H 	H 	0.94920 0.32820 0.45840 0.03900
H 	H 	0.88400 0.24490 0.38580 0.01600
H 	H 	0.92640 0.47670 0.42380 0.05100
H 	H 	0.81170 0.53180 0.41800 0.05100
H 	H 	0.72140 0.37940 0.30300 0.05500
H 	H 	0.83390 0.32220 0.30840 0.05300
H 	H 	0.12630 0.31290 0.46920 -0.01100
H 	H 	0.19730 0.31660 0.53760 0.04100
H 	H 	0.22780 0.34720 0.61280 0.10000
H 	H 	0.04260 0.15910 0.52880 0.03800
H 	H 	0.07860 0.18200 0.60300 0.10100
H 	H 	0.07510 0.28470 0.69740 0.11000
H 	H 	0.25260 0.18070 0.67100 0.10000
H 	H 	0.11450 0.17800 0.80800 -0.00200
H 	H 	0.16940 0.97050 0.79780 0.02300
H 	H 	0.19570 0.00580 0.73780 0.03900
H 	H 	0.24740 0.10520 0.71640 0.06000
H 	H 	0.06700 0.20910 0.74140 0.04200
H 	H 	0.00920 0.13020 0.45840 0.03900
H 	H 	0.00180 0.14090 0.38580 0.01600
H 	H 	0.44710 0.49740 0.92380 0.05100
H 	H 	0.38620 0.60630 0.91800 0.05100
H 	H 	0.42360 0.58160 0.80300 0.05500
H 	H 	0.48620 0.47450 0.80840 0.05300
H 	H 	0.65630 0.34290 0.96920 -0.01100
H 	H 	0.72100 0.34030 0.03760 0.04100
H 	H 	0.76560 0.38500 0.11280 0.10100
H 	H 	0.86970 0.48620 0.02880 0.03800
H 	H 	0.92100 0.52440 0.10300 0.10100
H 	H 	0.91270 0.62230 0.19740 0.11000
H 	H 	0.99030 0.41840 0.17100 0.10000
H 	H 	0.13000 0.69350 0.30800 -0.00200
H 	H 	0.32730 0.62840 0.29780 0.02200
H 	H 	0.23200 0.54210 0.23780 0.04000
H 	H 	0.11120 0.46900 0.21640 0.06000
H 	H 	0.03230 0.67440 0.24140 0.04200
H 	H 	0.82820 0.44920 0.95840 0.03900
H 	H 	0.74490 0.38400 0.88580 0.01600
H 	H 	0.97670 0.42640 0.92380 0.05200
H 	H 	0.03180 0.31170 0.91800 0.05000
H 	H 	0.87940 0.22140 0.80300 0.05400
H 	H 	0.82220 0.33390 0.80840 0.05300
H 	H 	0.81290 0.62630 0.96920 -0.01100
H 	H 	0.81660 0.69730 0.03760 0.04100
H 	H 	0.84720 0.72780 0.11280 0.10000
H 	H 	0.65910 0.54260 0.02880 0.03900
H 	H 	0.68200 0.57860 0.10300 0.10100
H 	H 	0.78470 0.57510 0.19740 0.11000
H 	H 	0.68070 0.75260 0.17100 0.10000
H 	H 	0.67800 0.61450 0.30800 -0.00200
H 	H 	0.47050 0.66940 0.29780 0.02200
H 	H 	0.50580 0.69570 0.23780 0.04000
H 	H 	0.60520 0.74740 0.21640 0.06000
H 	H 	0.70910 0.56700 0.24140 0.04200
H 	H 	0.63020 0.50920 0.95840 0.03900
H 	H 	0.64090 0.50180 0.88580 0.01600
H 	H 	0.42640 0.44710 0.42380 0.05100
H 	H 	0.31170 0.38620 0.41800 0.05100
H 	H 	0.22140 0.42360 0.30300 0.05500
H 	H 	0.33390 0.48620 0.30840 0.05300
H 	H 	0.62630 0.65630 0.46920 -0.01100
H 	H 	0.69730 0.72100 0.53760 0.04100
H 	H 	0.72780 0.76560 0.61280 0.10000
H 	H 	0.54260 0.86970 0.52880 0.03900
H 	H 	0.57860 0.92100 0.60300 0.10100
H 	H 	0.57510 0.91270 0.69740 0.11000
H 	H 	0.75260 0.99030 0.67100 0.10000
H 	H 	0.61450 0.13000 0.80800 -0.00200
H 	H 	0.66940 0.32730 0.79780 0.02200
H 	H 	0.69570 0.23200 0.73780 0.04000
H 	H 	0.74740 0.11120 0.71640 0.06000
H 	H 	0.56700 0.03230 0.74140 0.04200
H 	H 	0.50920 0.82820 0.45840 0.03900
H 	H 	0.50180 0.74490 0.38580 0.01600
H 	H 	0.49740 0.97670 0.42380 0.05100
H 	H 	0.60630 0.03180 0.41800 0.05200
H 	H 	0.58160 0.87940 0.30300 0.05500
H 	H 	0.47450 0.82220 0.30840 0.05200
H 	H 	0.34290 0.81290 0.46920 -0.01100
H 	H 	0.34030 0.81660 0.53760 0.04100
H 	H 	0.38500 0.84720 0.61280 0.10000
H 	H 	0.48620 0.65910 0.52880 0.03900
H 	H 	0.52440 0.68200 0.60300 0.10100
H 	H 	0.62230 0.78470 0.69740 0.11000
H 	H 	0.41840 0.68070 0.67100 0.10000
H 	H 	0.69350 0.67800 0.80800 -0.00200
H 	H 	0.62840 0.47050 0.79780 0.02200
H 	H 	0.54210 0.50580 0.73780 0.04000
H 	H 	0.46900 0.60520 0.71640 0.06000
H 	H 	0.67440 0.70910 0.74140 0.04200
H 	H 	0.44920 0.63020 0.45840 0.03900
H 	H 	0.38400 0.64090 0.38580 0.01600
C 	C 	0.35707 0.90647 0.87074 0.30800
C 	C 	0.39345 0.97535 0.86690 -0.06200
C 	C 	0.45618 0.01458 0.89916 -0.02600
C 	C 	0.48930 0.07910 0.89540 -0.01600
C 	C 	0.46204 0.10374 0.86028 -0.06500
C 	C 	0.39904 0.06434 0.82768 -0.02200
C 	C 	0.36515 0.00085 0.83090 -0.02100
C 	C 	0.49931 0.17141 0.85522 0.31800
C 	C 	0.26271 0.85321 0.95682 0.11600
C 	C 	0.23470 0.91040 0.02620 0.04600
C 	C 	0.29014 0.87934 0.05088 -0.01000
C 	C 	0.30738 0.90498 0.09536 -0.16400
C 	C 	0.19714 0.96404 0.04608 -0.00200
C 	C 	0.21121 0.98811 0.09002 -0.17000
C 	C 	0.26760 0.95890 0.11440 0.22200
C 	C 	0.24079 0.01569 0.18178 0.21500
C 	C 	0.24859 0.09079 0.20158 -0.16600
C 	C 	0.18739 0.97059 0.18618 -0.14800
C 	C 	0.12962 0.16662 0.29784 0.10300
C 	C 	0.01793 0.13113 0.29226 0.00800
C 	C 	0.03642 0.08372 0.25924 0.00200
C 	C 	0.15339 0.07599 0.23418 0.05700
C 	C 	0.14245 0.00025 0.21290 -0.02500
C 	C 	0.20418 0.12158 0.22776 -0.00800
C 	C 	0.16510 0.91340 0.95160 -0.00200
C 	C 	0.17280 0.87890 0.91220 0.01100
C 	C 	0.01367 0.96427 0.87074 0.31100
C 	C 	0.97345 0.89155 0.86690 -0.06600
C 	C 	0.94298 0.88458 0.89916 -0.02400
C 	C 	0.90610 0.81630 0.89540 -0.01800
C 	C 	0.89824 0.75654 0.86028 -0.06400
C 	C 	0.92864 0.76334 0.82768 -0.02400
C 	C 	0.96575 0.83005 0.83090 -0.01800
C 	C 	0.85591 0.68381 0.85522 0.31700
C 	C 	0.19411 0.10361 0.95682 0.11500
C 	C 	0.29150 0.11580 0.02620 0.04300
C 	C 	0.26074 0.17154 0.05088 -0.00800
C 	C 	0.28798 0.19038 0.09536 -0.16600
C 	C 	0.34894 0.08204 0.04608 0.00100
C 	C 	0.37881 0.10191 0.09002 -0.17400
C 	C 	0.34680 0.15550 0.11440 0.22500
C 	C 	0.44099 0.16609 0.18178 0.22100
C 	C 	0.45299 0.11079 0.20158 -0.17000
C 	C 	0.49879 0.21559 0.18618 -0.15500
C 	C 	0.66822 0.13122 0.29784 0.10300
C 	C 	0.77433 0.16113 0.29226 0.01100
C 	C 	0.72282 0.17552 0.25924 0.00100
C 	C 	0.58079 0.15819 0.23418 0.05400
C 	C 	0.57045 0.21265 0.21290 -0.01800
C 	C 	0.52358 0.10618 0.22776 -0.00400
C 	C 	0.28650 0.03820 0.95160 -0.00300
C 	C 	0.23940 0.03330 0.91220 0.01100
C 	C 	0.90647 0.01367 0.37074 0.31200
C 	C 	0.97535 0.97345 0.36690 -0.07300
C 	C 	0.01458 0.94298 0.39916 -0.01500
C 	C 	0.07910 0.90610 0.39540 -0.02300
C 	C 	0.10374 0.89824 0.36028 -0.06000
C 	C 	0.06434 0.92864 0.32768 -0.03000
C 	C 	0.00085 0.96575 0.33090 -0.00900
C 	C 	0.17141 0.85591 0.35522 0.31600
C 	C 	0.85321 0.19411 0.45682 0.11600
C 	C 	0.91040 0.29150 0.52620 0.04400
C 	C 	0.87934 0.26074 0.55088 -0.00900
C 	C 	0.90498 0.28798 0.59536 -0.16600
C 	C 	0.96404 0.34894 0.54608 0.00000
C 	C 	0.98811 0.37881 0.59002 -0.17300
C 	C 	0.95890 0.34680 0.61440 0.22400
C 	C 	0.01569 0.44099 0.68178 0.22000
C 	C 	0.09079 0.45299 0.70158 -0.17000
C 	C 	0.97059 0.49879 0.68618 -0.15500
C 	C 	0.16662 0.66822 0.79784 0.10300
C 	C 	0.13113 0.77433 0.79226 0.01100
C 	C 	0.08372 0.72282 0.75924 0.00100
C 	C 	0.07599 0.58079 0.73418 0.05300
C 	C 	0.00025 0.57045 0.71290 -0.01800
C 	C 	0.12158 0.52358 0.72776 -0.00400
C 	C 	0.91340 0.28650 0.45160 -0.00300
C 	C 	0.87890 0.23940 0.41220 0.01100
C 	C 	0.96427 0.35707 0.37074 0.30800
C 	C 	0.89155 0.39345 0.36690 -0.06300
C 	C 	0.88458 0.45618 0.39916 -0.02500
C 	C 	0.81630 0.48930 0.39540 -0.01700
C 	C 	0.75654 0.46204 0.36028 -0.06500
C 	C 	0.76334 0.39904 0.32768 -0.02300
C 	C 	0.83005 0.36515 0.33090 -0.02000
C 	C 	0.68381 0.49931 0.35522 0.31700
C 	C 	0.10361 0.26271 0.45682 0.11500
C 	C 	0.11580 0.23470 0.52620 0.04400
C 	C 	0.17154 0.29014 0.55088 -0.00900
C 	C 	0.19038 0.30738 0.59536 -0.16600
C 	C 	0.08204 0.19714 0.54608 0.00100
C 	C 	0.10191 0.21121 0.59002 -0.17400
C 	C 	0.15550 0.26760 0.61440 0.22400
C 	C 	0.16609 0.24079 0.68178 0.22100
C 	C 	0.11079 0.24859 0.70158 -0.17000
C 	C 	0.21559 0.18739 0.68618 -0.15600
C 	C 	0.13122 0.12962 0.79784 0.10300
C 	C 	0.16113 0.01793 0.79226 0.00900
C 	C 	0.17552 0.03642 0.75924 0.00100
C 	C 	0.15819 0.15339 0.73418 0.05300
C 	C 	0.21265 0.14245 0.71290 -0.01800
C 	C 	0.10618 0.20418 0.72776 -0.00400
C 	C 	0.03820 0.16510 0.45160 -0.00300
C 	C 	0.03330 0.17280 0.41220 0.01000
C 	C 	0.51367 0.40647 0.87074 0.30800
C 	C 	0.47345 0.47535 0.86690 -0.06300
C 	C 	0.44298 0.51458 0.89916 -0.02500
C 	C 	0.40610 0.57910 0.89540 -0.01700
C 	C 	0.39824 0.60374 0.86028 -0.06500
C 	C 	0.42864 0.56434 0.82768 -0.02300
C 	C 	0.46575 0.50085 0.83090 -0.02000
C 	C 	0.35591 0.67141 0.85522 0.31700
C 	C 	0.69411 0.35321 0.95682 0.11600
C 	C 	0.79150 0.41040 0.02620 0.04400
C 	C 	0.76074 0.37934 0.05088 -0.00800
C 	C 	0.78798 0.40498 0.09536 -0.16600
C 	C 	0.84894 0.46404 0.04608 0.00100
C 	C 	0.87881 0.48811 0.09002 -0.17400
C 	C 	0.84680 0.45890 0.11440 0.22500
C 	C 	0.94099 0.51569 0.18178 0.22100
C 	C 	0.95299 0.59079 0.20158 -0.17100
C 	C 	0.99879 0.47059 0.18618 -0.15600
C 	C 	0.16822 0.66662 0.29784 0.10300
C 	C 	0.27433 0.63113 0.29226 0.01100
C 	C 	0.22282 0.58372 0.25924 0.00100
C 	C 	0.08079 0.57599 0.23418 0.05300
C 	C 	0.07045 0.50025 0.21290 -0.01800
C 	C 	0.02358 0.62158 0.22776 -0.00300
C 	C 	0.78650 0.41340 0.95160 -0.00300
C 	C 	0.73940 0.37890 0.91220 0.01100
C 	C 	0.85707 0.46427 0.87074 0.30800
C 	C 	0.89345 0.39155 0.86690 -0.06300
C 	C 	0.95618 0.38458 0.89916 -0.02600
C 	C 	0.98930 0.31630 0.89540 -0.01500
C 	C 	0.96204 0.25654 0.86028 -0.06600
C 	C 	0.89904 0.26334 0.82768 -0.02200
C 	C 	0.86515 0.33005 0.83090 -0.02000
C 	C 	0.99931 0.18381 0.85522 0.31900
C 	C 	0.76271 0.60361 0.95682 0.11600
C 	C 	0.73470 0.61580 0.02620 0.04400
C 	C 	0.79014 0.67154 0.05088 -0.00900
C 	C 	0.80738 0.69038 0.09536 -0.16600
C 	C 	0.69714 0.58204 0.04608 0.00100
C 	C 	0.71121 0.60191 0.09002 -0.17400
C 	C 	0.76760 0.65550 0.11440 0.22500
C 	C 	0.74079 0.66609 0.18178 0.22100
C 	C 	0.74859 0.61079 0.20158 -0.17000
C 	C 	0.68739 0.71559 0.18618 -0.15600
C 	C 	0.62962 0.63122 0.29784 0.10300
C 	C 	0.51793 0.66113 0.29226 0.01100
C 	C 	0.53642 0.67552 0.25924 0.00100
C 	C 	0.65339 0.65819 0.23418 0.05300
C 	C 	0.64245 0.71265 0.21290 -0.01800
C 	C 	0.70418 0.60618 0.22776 -0.00400
C 	C 	0.66510 0.53820 0.95160 -0.00300
C 	C 	0.67280 0.53330 0.91220 0.01100
C 	C 	0.46427 0.51367 0.37074 0.30800
C 	C 	0.39155 0.47345 0.36690 -0.06300
C 	C 	0.38458 0.44298 0.39916 -0.02500
C 	C 	0.31630 0.40610 0.39540 -0.01700
C 	C 	0.25654 0.39824 0.36028 -0.06500
C 	C 	0.26334 0.42864 0.32768 -0.02300
C 	C 	0.33005 0.46575 0.33090 -0.02000
C 	C 	0.18381 0.35591 0.35522 0.31700
C 	C 	0.60361 0.69411 0.45682 0.11600
C 	C 	0.61580 0.79150 0.52620 0.04400
C 	C 	0.67154 0.76074 0.55088 -0.00900
C 	C 	0.69038 0.78798 0.59536 -0.16600
C 	C 	0.58204 0.84894 0.54608 0.00100
C 	C 	0.60191 0.87881 0.59002 -0.17400
C 	C 	0.65550 0.84680 0.61440 0.22500
C 	C 	0.66609 0.94099 0.68178 0.22200
C 	C 	0.61079 0.95299 0.70158 -0.17200
C 	C 	0.71559 0.99879 0.68618 -0.15700
C 	C 	0.63122 0.16822 0.79784 0.10300
C 	C 	0.66113 0.27433 0.79226 0.01100
C 	C 	0.67552 0.22282 0.75924 0.00100
C 	C 	0.65819 0.08079 0.73418 0.05200
C 	C 	0.71265 0.07045 0.71290 -0.01600
C 	C 	0.60618 0.02358 0.72776 -0.00200
C 	C 	0.53820 0.78650 0.45160 -0.00300
C 	C 	0.53330 0.73940 0.41220 0.01100
C 	C 	0.40647 0.85707 0.37074 0.30800
C 	C 	0.47535 0.89345 0.36690 -0.06400
C 	C 	0.51458 0.95618 0.39916 -0.02500
C 	C 	0.57910 0.98930 0.39540 -0.01800
C 	C 	0.60374 0.96204 0.36028 -0.06400
C 	C 	0.56434 0.89904 0.32768 -0.02300
C 	C 	0.50085 0.86515 0.33090 -0.01900
C 	C 	0.67141 0.99931 0.35522 0.31700
C 	C 	0.35321 0.76271 0.45682 0.11600
C 	C 	0.41040 0.73470 0.52620 0.04400
C 	C 	0.37934 0.79014 0.55088 -0.00900
C 	C 	0.40498 0.80738 0.59536 -0.16600
C 	C 	0.46404 0.69714 0.54608 0.00100
C 	C 	0.48811 0.71121 0.59002 -0.17400
C 	C 	0.45890 0.76760 0.61440 0.22500
C 	C 	0.51569 0.74079 0.68178 0.22100
C 	C 	0.59079 0.74859 0.70158 -0.17000
C 	C 	0.47059 0.68739 0.68618 -0.15600
C 	C 	0.66662 0.62962 0.79784 0.10300
C 	C 	0.63113 0.51793 0.79226 0.01100
C 	C 	0.58372 0.53642 0.75924 0.00100
C 	C 	0.57599 0.65339 0.73418 0.05300
C 	C 	0.50025 0.64245 0.71290 -0.01800
C 	C 	0.62158 0.70418 0.72776 -0.00400
C 	C 	0.41340 0.66510 0.45160 -0.00300
C 	C 	0.37890 0.67280 0.41220 0.01100
N 	N 	0.23186 0.83626 0.91532 -0.25100
N 	N 	0.21895 0.88565 0.98010 -0.13300
N 	N 	0.07595 0.18375 0.31670 -0.24300
N 	N 	0.10856 0.10726 0.26272 -0.13000
N 	N 	0.18346 0.07906 0.91532 -0.25100
N 	N 	0.26115 0.09445 0.98010 -0.13300
N 	N 	0.74075 0.13295 0.31670 -0.24400
N 	N 	0.65416 0.15546 0.26272 -0.12900
N 	N 	0.83626 0.18346 0.41532 -0.25100
N 	N 	0.88565 0.26115 0.48010 -0.13300
N 	N 	0.18375 0.74075 0.81670 -0.24400
N 	N 	0.10726 0.65416 0.76272 -0.12900
N 	N 	0.07906 0.23186 0.41532 -0.25100
N 	N 	0.09445 0.21895 0.48010 -0.13300
N 	N 	0.13295 0.07595 0.81670 -0.24400
N 	N 	0.15546 0.10856 0.76272 -0.13000
N 	N 	0.68346 0.33626 0.91532 -0.25100
N 	N 	0.76115 0.38565 0.98010 -0.13300
N 	N 	0.24075 0.68375 0.31670 -0.24400
N 	N 	0.15416 0.60726 0.26272 -0.12900
N 	N 	0.73186 0.57906 0.91532 -0.25100
N 	N 	0.71895 0.59445 0.98010 -0.13300
N 	N 	0.57595 0.63295 0.31670 -0.24400
N 	N 	0.60856 0.65546 0.26272 -0.12900
N 	N 	0.57906 0.68346 0.41532 -0.25100
N 	N 	0.59445 0.76115 0.48010 -0.13300
N 	N 	0.63295 0.24075 0.81670 -0.24400
N 	N 	0.65546 0.15416 0.76272 -0.12900
N 	N 	0.33626 0.73186 0.41532 -0.25100
N 	N 	0.38565 0.71895 0.48010 -0.13300
N 	N 	0.68375 0.57595 0.81670 -0.24400
N 	N 	0.60726 0.60856 0.76272 -0.12900
O 	O 	0.29648 0.87628 0.84276 -0.41700
O 	O 	0.38581 0.87951 0.90102 -0.34500
O 	O 	0.47689 0.19039 0.82178 -0.33400
O 	O 	0.55516 0.20696 0.88612 -0.42600
O 	O 	0.29155 0.98285 0.15950 -0.27700
O 	O 	0.04628 0.96648 0.84276 -0.41700
O 	O 	0.01521 0.02151 0.90102 -0.34700
O 	O 	0.84489 0.63139 0.82178 -0.33400
O 	O 	0.83096 0.67916 0.88612 -0.42600
O 	O 	0.36795 0.17665 0.15950 -0.27900
O 	O 	0.87628 0.04628 0.34276 -0.41800
O 	O 	0.87951 0.01521 0.40102 -0.34600
O 	O 	0.19039 0.84489 0.32178 -0.33400
O 	O 	0.20696 0.83096 0.38612 -0.42600
O 	O 	0.98285 0.36795 0.65950 -0.27800
O 	O 	0.96648 0.29648 0.34276 -0.41700
O 	O 	0.02151 0.38581 0.40102 -0.34600
O 	O 	0.63139 0.47689 0.32178 -0.33400
O 	O 	0.67916 0.55516 0.38612 -0.42600
O 	O 	0.17665 0.29155 0.65950 -0.27900
O 	O 	0.54628 0.37628 0.84276 -0.41700
O 	O 	0.51521 0.37951 0.90102 -0.34500
O 	O 	0.34489 0.69039 0.82178 -0.33400
O 	O 	0.33096 0.70696 0.88612 -0.42600
O 	O 	0.86795 0.48285 0.15950 -0.27900
O 	O 	0.79648 0.46648 0.84276 -0.41700
O 	O 	0.88581 0.52151 0.90102 -0.34500
O 	O 	0.97689 0.13139 0.82178 -0.33400
O 	O 	0.05516 0.17916 0.88612 -0.42700
O 	O 	0.79155 0.67665 0.15950 -0.27900
O 	O 	0.46648 0.54628 0.34276 -0.41700
O 	O 	0.52151 0.51521 0.40102 -0.34500
O 	O 	0.13139 0.34489 0.32178 -0.33400
O 	O 	0.17916 0.33096 0.38612 -0.42600
O 	O 	0.67665 0.86795 0.65950 -0.27900
O 	O 	0.37628 0.79648 0.34276 -0.41700
O 	O 	0.37951 0.88581 0.40102 -0.34500
O 	O 	0.69039 0.97689 0.32178 -0.33400
O 	O 	0.70696 0.05516 0.38612 -0.42600
O 	O 	0.48285 0.79155 0.65950 -0.27900
Co	Co	0.41168 0.70985 0.13350 1.15500
Co	Co	0.22182 0.42365 0.13350 1.15500
Co	Co	0.42365 0.41168 0.63350 1.15500
Co	Co	0.70985 0.22182 0.63350 1.15500
Co	Co	0.72182 0.20985 0.13350 1.15500
Co	Co	0.91168 0.92365 0.13350 1.15500
Co	Co	0.20985 0.91168 0.63350 1.15500
Co	Co	0.92365 0.72182 0.63350 1.15500
H 	H 	0.55290 0.50260 0.07620 0.05100
H 	H 	0.61380 0.39370 0.08200 0.05100
H 	H 	0.57640 0.41840 0.19700 0.05500
H 	H 	0.51380 0.52550 0.19160 0.05300
H 	H 	0.34370 0.65710 0.03080 -0.01100
H 	H 	0.27900 0.65970 0.96240 0.04100
H 	H 	0.23440 0.61500 0.88720 0.10100
H 	H 	0.13030 0.51380 0.97120 0.03800
H 	H 	0.07900 0.47560 0.89700 0.10100
H 	H 	0.08730 0.37770 0.80260 0.11000
H 	H 	0.00970 0.58160 0.82900 0.10000
H 	H 	0.87000 0.30650 0.69200 -0.00200
H 	H 	0.67270 0.37160 0.70220 0.02200
H 	H 	0.76800 0.45790 0.76220 0.04000
H 	H 	0.88880 0.53100 0.78360 0.06000
H 	H 	0.96770 0.32560 0.75860 0.04200
H 	H 	0.17180 0.55080 0.04160 0.03900
H 	H 	0.25510 0.61600 0.11420 0.01600
H 	H 	0.02330 0.57360 0.07620 0.05200
H 	H 	0.96820 0.68830 0.08200 0.05000
H 	H 	0.12060 0.77860 0.19700 0.05400
H 	H 	0.17780 0.66610 0.19160 0.05300
H 	H 	0.18710 0.37370 0.03080 -0.01100
H 	H 	0.18340 0.30270 0.96240 0.04100
H 	H 	0.15280 0.27220 0.88720 0.10000
H 	H 	0.34090 0.45740 0.97120 0.03900
H 	H 	0.31800 0.42140 0.89700 0.10100
H 	H 	0.21530 0.42490 0.80260 0.11000
H 	H 	0.31930 0.24740 0.82900 0.10000
H 	H 	0.32200 0.38550 0.69200 -0.00200
H 	H 	0.52950 0.33060 0.70220 0.02200
H 	H 	0.49420 0.30430 0.76220 0.04000
H 	H 	0.39480 0.25260 0.78360 0.06000
H 	H 	0.29090 0.43300 0.75860 0.04200
H 	H 	0.36980 0.49080 0.04160 0.03900
H 	H 	0.35910 0.49820 0.11420 0.01600
H 	H 	0.57360 0.55290 0.57620 0.05100
H 	H 	0.68830 0.61380 0.58200 0.05100
H 	H 	0.77860 0.57640 0.69700 0.05500
H 	H 	0.66610 0.51380 0.69160 0.05300
H 	H 	0.37370 0.34370 0.53080 -0.01100
H 	H 	0.30270 0.27900 0.46240 0.04100
H 	H 	0.27220 0.23440 0.38720 0.10000
H 	H 	0.45740 0.13030 0.47120 0.03900
H 	H 	0.42140 0.07900 0.39700 0.10100
H 	H 	0.42490 0.08730 0.30260 0.11000
H 	H 	0.24740 0.00970 0.32900 0.10000
H 	H 	0.38550 0.87000 0.19200 -0.00200
H 	H 	0.33060 0.67270 0.20220 0.02200
H 	H 	0.30430 0.76800 0.26220 0.04000
H 	H 	0.25260 0.88880 0.28360 0.06000
H 	H 	0.43300 0.96770 0.25860 0.04200
H 	H 	0.49080 0.17180 0.54160 0.03900
H 	H 	0.49820 0.25510 0.61420 0.01600
H 	H 	0.50260 0.02330 0.57620 0.05100
H 	H 	0.39370 0.96820 0.58200 0.05200
H 	H 	0.41840 0.12060 0.69700 0.05500
H 	H 	0.52550 0.17780 0.69160 0.05200
H 	H 	0.65710 0.18710 0.53080 -0.01100
H 	H 	0.65970 0.18340 0.46240 0.04100
H 	H 	0.61500 0.15280 0.38720 0.10000
H 	H 	0.51380 0.34090 0.47120 0.03900
H 	H 	0.47560 0.31800 0.39700 0.10100
H 	H 	0.37770 0.21530 0.30260 0.11000
H 	H 	0.58160 0.31930 0.32900 0.10000
H 	H 	0.30650 0.32200 0.19200 -0.00200
H 	H 	0.37160 0.52950 0.20220 0.02200
H 	H 	0.45790 0.49420 0.26220 0.04000
H 	H 	0.53100 0.39480 0.28360 0.06000
H 	H 	0.32560 0.29090 0.25860 0.04200
H 	H 	0.55080 0.36980 0.54160 0.03900
H 	H 	0.61600 0.35910 0.61420 0.01600
H 	H 	0.52330 0.00260 0.07620 0.05100
H 	H 	0.46820 0.89370 0.08200 0.05100
H 	H 	0.62060 0.91840 0.19700 0.05400
H 	H 	0.67780 0.02550 0.19160 0.05300
H 	H 	0.68710 0.15710 0.03080 -0.01100
H 	H 	0.68340 0.15970 0.96240 0.04100
H 	H 	0.65280 0.11500 0.88720 0.10000
H 	H 	0.84090 0.01380 0.97120 0.04000
H 	H 	0.81800 0.97560 0.89700 0.09900
H 	H 	0.71530 0.87770 0.80260 0.10800
H 	H 	0.81930 0.08160 0.82900 0.09700
H 	H 	0.82200 0.80650 0.69200 -0.00200
H 	H 	0.02950 0.87160 0.70220 0.02300
H 	H 	0.99420 0.95790 0.76220 0.03900
H 	H 	0.89480 0.03100 0.78360 0.06300
H 	H 	0.79090 0.82560 0.75860 0.04400
H 	H 	0.86980 0.05080 0.04160 0.03900
H 	H 	0.85910 0.11600 0.11420 0.01600
H 	H 	0.05290 0.07360 0.07620 0.05000
H 	H 	0.11380 0.18830 0.08200 0.05200
H 	H 	0.07640 0.27860 0.19700 0.05500
H 	H 	0.01380 0.16610 0.19160 0.05200
H 	H 	0.84370 0.87370 0.03080 -0.01100
H 	H 	0.77900 0.80270 0.96240 0.04100
H 	H 	0.73440 0.77220 0.88720 0.10100
H 	H 	0.63030 0.95740 0.97120 0.03800
H 	H 	0.57900 0.92140 0.89700 0.10100
H 	H 	0.58730 0.92490 0.80260 0.11000
H 	H 	0.50970 0.74740 0.82900 0.10000
H 	H 	0.37000 0.88550 0.69200 -0.00200
H 	H 	0.17270 0.83060 0.70220 0.02200
H 	H 	0.26800 0.80430 0.76220 0.04000
H 	H 	0.38880 0.75260 0.78360 0.06000
H 	H 	0.46770 0.93300 0.75860 0.04200
H 	H 	0.67180 0.99080 0.04160 0.03900
H 	H 	0.75510 0.99820 0.11420 0.01600
H 	H 	0.00260 0.05290 0.57620 0.04700
H 	H 	0.89370 0.11380 0.58200 0.05400
H 	H 	0.91840 0.07640 0.69700 0.05700
H 	H 	0.02550 0.01380 0.69160 0.04800
H 	H 	0.15710 0.84370 0.53080 -0.01100
H 	H 	0.15970 0.77900 0.46240 0.04100
H 	H 	0.11500 0.73440 0.38720 0.10000
H 	H 	0.01380 0.63030 0.47120 0.03900
H 	H 	0.97560 0.57900 0.39700 0.10100
H 	H 	0.87770 0.58730 0.30260 0.11000
H 	H 	0.08160 0.50970 0.32900 0.10000
H 	H 	0.80650 0.37000 0.19200 -0.00200
H 	H 	0.87160 0.17270 0.20220 0.02200
H 	H 	0.95790 0.26800 0.26220 0.04000
H 	H 	0.03100 0.38880 0.28360 0.06000
H 	H 	0.82560 0.46770 0.25860 0.04200
H 	H 	0.05080 0.67180 0.54160 0.03900
H 	H 	0.11600 0.75510 0.61420 0.01600
H 	H 	0.07360 0.52330 0.57620 0.05100
H 	H 	0.18830 0.46820 0.58200 0.05100
H 	H 	0.27860 0.62060 0.69700 0.05500
H 	H 	0.16610 0.67780 0.69160 0.05300
H 	H 	0.87370 0.68710 0.53080 -0.01100
H 	H 	0.80270 0.68340 0.46240 0.04100
H 	H 	0.77220 0.65280 0.38720 0.10000
H 	H 	0.95740 0.84090 0.47120 0.03800
H 	H 	0.92140 0.81800 0.39700 0.10100
H 	H 	0.92490 0.71530 0.30260 0.11000
H 	H 	0.74740 0.81930 0.32900 0.10000
H 	H 	0.88550 0.82200 0.19200 -0.00200
H 	H 	0.83060 0.02950 0.20220 0.02300
H 	H 	0.80430 0.99420 0.26220 0.03900
H 	H 	0.75260 0.89480 0.28360 0.06000
H 	H 	0.93300 0.79090 0.25860 0.04200
H 	H 	0.99080 0.86980 0.54160 0.03900
H 	H 	0.99820 0.85910 0.61420 0.01600
C 	C 	0.48633 0.59353 0.12926 0.30800
C 	C 	0.52655 0.52465 0.13310 -0.06300
C 	C 	0.55702 0.48542 0.10084 -0.02500
C 	C 	0.59390 0.42090 0.10460 -0.01700
C 	C 	0.60176 0.39626 0.13972 -0.06500
C 	C 	0.57136 0.43566 0.17232 -0.02300
C 	C 	0.53425 0.49915 0.16910 -0.02000
C 	C 	0.64409 0.32859 0.14478 0.31700
C 	C 	0.30589 0.64679 0.04318 0.11600
C 	C 	0.20850 0.58960 0.97380 0.04400
C 	C 	0.23926 0.62066 0.94912 -0.00800
C 	C 	0.21202 0.59502 0.90464 -0.16600
C 	C 	0.15106 0.53596 0.95392 0.00100
C 	C 	0.12119 0.51189 0.90998 -0.17400
C 	C 	0.15320 0.54110 0.88560 0.22500
C 	C 	0.05901 0.48431 0.81822 0.22100
C 	C 	0.04701 0.40921 0.79842 -0.17100
C 	C 	0.00121 0.52941 0.81382 -0.15600
C 	C 	0.83178 0.33338 0.70216 0.10300
C 	C 	0.72567 0.36887 0.70774 0.01100
C 	C 	0.77718 0.41628 0.74076 0.00100
C 	C 	0.91921 0.42401 0.76582 0.05300
C 	C 	0.92955 0.49975 0.78710 -0.01800
C 	C 	0.97642 0.37842 0.77224 -0.00300
C 	C 	0.21350 0.58660 0.04840 -0.00300
C 	C 	0.26060 0.62110 0.08780 0.01100
C 	C 	0.14293 0.53573 0.12926 0.30800
C 	C 	0.10655 0.60845 0.13310 -0.06300
C 	C 	0.04382 0.61542 0.10084 -0.02600
C 	C 	0.01070 0.68370 0.10460 -0.01500
C 	C 	0.03796 0.74346 0.13972 -0.06600
C 	C 	0.10096 0.73666 0.17232 -0.02200
C 	C 	0.13485 0.66995 0.16910 -0.02000
C 	C 	0.00069 0.81619 0.14478 0.31900
C 	C 	0.23729 0.39639 0.04318 0.11600
C 	C 	0.26530 0.38420 0.97380 0.04400
C 	C 	0.20986 0.32846 0.94912 -0.00900
C 	C 	0.19262 0.30962 0.90464 -0.16600
C 	C 	0.30286 0.41796 0.95392 0.00100
C 	C 	0.28879 0.39809 0.90998 -0.17400
C 	C 	0.23240 0.34450 0.88560 0.22500
C 	C 	0.25921 0.33391 0.81822 0.22100
C 	C 	0.25141 0.38921 0.79842 -0.17000
C 	C 	0.31261 0.28441 0.81382 -0.15600
C 	C 	0.37038 0.36878 0.70216 0.10300
C 	C 	0.48207 0.33887 0.70774 0.01100
C 	C 	0.46358 0.32448 0.74076 0.00100
C 	C 	0.34661 0.34181 0.76582 0.05300
C 	C 	0.35755 0.28735 0.78710 -0.01800
C 	C 	0.29582 0.39382 0.77224 -0.00400
C 	C 	0.33490 0.46180 0.04840 -0.00300
C 	C 	0.32720 0.46670 0.08780 0.01100
C 	C 	0.53573 0.48633 0.62926 0.30800
C 	C 	0.60845 0.52655 0.63310 -0.06300
C 	C 	0.61542 0.55702 0.60084 -0.02500
C 	C 	0.68370 0.59390 0.60460 -0.01700
C 	C 	0.74346 0.60176 0.63972 -0.06500
C 	C 	0.73666 0.57136 0.67232 -0.02300
C 	C 	0.66995 0.53425 0.66910 -0.02000
C 	C 	0.81619 0.64409 0.64478 0.31700
C 	C 	0.39639 0.30589 0.54318 0.11600
C 	C 	0.38420 0.20850 0.47380 0.04400
C 	C 	0.32846 0.23926 0.44912 -0.00900
C 	C 	0.30962 0.21202 0.40464 -0.16600
C 	C 	0.41796 0.15106 0.45392 0.00100
C 	C 	0.39809 0.12119 0.40998 -0.17400
C 	C 	0.34450 0.15320 0.38560 0.22500
C 	C 	0.33391 0.05901 0.31822 0.22200
C 	C 	0.38921 0.04701 0.29842 -0.17200
C 	C 	0.28441 0.00121 0.31382 -0.15700
C 	C 	0.36878 0.83178 0.20216 0.10300
C 	C 	0.33887 0.72567 0.20774 0.01100
C 	C 	0.32448 0.77718 0.24076 0.00100
C 	C 	0.34181 0.91921 0.26582 0.05200
C 	C 	0.28735 0.92955 0.28710 -0.01600
C 	C 	0.39382 0.97642 0.27224 -0.00200
C 	C 	0.46180 0.21350 0.54840 -0.00300
C 	C 	0.46670 0.26060 0.58780 0.01100
C 	C 	0.59353 0.14293 0.62926 0.30800
C 	C 	0.52465 0.10655 0.63310 -0.06400
C 	C 	0.48542 0.04382 0.60084 -0.02500
C 	C 	0.42090 0.01070 0.60460 -0.01800
C 	C 	0.39626 0.03796 0.63972 -0.06400
C 	C 	0.43566 0.10096 0.67232 -0.02300
C 	C 	0.49915 0.13485 0.66910 -0.01900
C 	C 	0.32859 0.00069 0.64478 0.31700
C 	C 	0.64679 0.23729 0.54318 0.11600
C 	C 	0.58960 0.26530 0.47380 0.04400
C 	C 	0.62066 0.20986 0.44912 -0.00900
C 	C 	0.59502 0.19262 0.40464 -0.16600
C 	C 	0.53596 0.30286 0.45392 0.00100
C 	C 	0.51189 0.28879 0.40998 -0.17400
C 	C 	0.54110 0.23240 0.38560 0.22500
C 	C 	0.48431 0.25921 0.31822 0.22100
C 	C 	0.40921 0.25141 0.29842 -0.17000
C 	C 	0.52941 0.31261 0.31382 -0.15600
C 	C 	0.33338 0.37038 0.20216 0.10300
C 	C 	0.36887 0.48207 0.20774 0.01100
C 	C 	0.41628 0.46358 0.24076 0.00100
C 	C 	0.42401 0.34661 0.26582 0.05300
C 	C 	0.49975 0.35755 0.28710 -0.01800
C 	C 	0.37842 0.29582 0.27224 -0.00400
C 	C 	0.58660 0.33490 0.54840 -0.00300
C 	C 	0.62110 0.32720 0.58780 0.01100
C 	C 	0.64293 0.09353 0.12926 0.30800
C 	C 	0.60655 0.02465 0.13310 -0.06200
C 	C 	0.54382 0.98542 0.10084 -0.02600
C 	C 	0.51070 0.92090 0.10460 -0.01600
C 	C 	0.53796 0.89626 0.13972 -0.06500
C 	C 	0.60096 0.93566 0.17232 -0.02200
C 	C 	0.63485 0.99915 0.16910 -0.02100
C 	C 	0.50069 0.82859 0.14478 0.31800
C 	C 	0.73729 0.14679 0.04318 0.11600
C 	C 	0.76530 0.08960 0.97380 0.04600
C 	C 	0.70986 0.12066 0.94912 -0.01000
C 	C 	0.69262 0.09502 0.90464 -0.16400
C 	C 	0.80286 0.03596 0.95392 -0.00200
C 	C 	0.78879 0.01189 0.90998 -0.17000
C 	C 	0.73240 0.04110 0.88560 0.22200
C 	C 	0.75921 0.98431 0.81822 0.21500
C 	C 	0.75141 0.90921 0.79842 -0.16600
C 	C 	0.81261 0.02941 0.81382 -0.14800
C 	C 	0.87038 0.83338 0.70216 0.10300
C 	C 	0.98207 0.86887 0.70774 0.00800
C 	C 	0.96358 0.91628 0.74076 0.00200
C 	C 	0.84661 0.92401 0.76582 0.05700
C 	C 	0.85755 0.99975 0.78710 -0.02500
C 	C 	0.79582 0.87842 0.77224 -0.00800
C 	C 	0.83490 0.08660 0.04840 -0.00200
C 	C 	0.82720 0.12110 0.08780 0.01100
C 	C 	0.98633 0.03573 0.12926 0.31100
C 	C 	0.02655 0.10845 0.13310 -0.06600
C 	C 	0.05702 0.11542 0.10084 -0.02400
C 	C 	0.09390 0.18370 0.10460 -0.01800
C 	C 	0.10176 0.24346 0.13972 -0.06400
C 	C 	0.07136 0.23666 0.17232 -0.02400
C 	C 	0.03425 0.16995 0.16910 -0.01800
C 	C 	0.14409 0.31619 0.14478 0.31700
C 	C 	0.80589 0.89639 0.04318 0.11500
C 	C 	0.70850 0.88420 0.97380 0.04300
C 	C 	0.73926 0.82846 0.94912 -0.00800
C 	C 	0.71202 0.80962 0.90464 -0.16600
C 	C 	0.65106 0.91796 0.95392 0.00100
C 	C 	0.62119 0.89809 0.90998 -0.17400
C 	C 	0.65320 0.84450 0.88560 0.22500
C 	C 	0.55901 0.83391 0.81822 0.22100
C 	C 	0.54701 0.88921 0.79842 -0.17000
C 	C 	0.50121 0.78441 0.81382 -0.15500
C 	C 	0.33178 0.86878 0.70216 0.10300
C 	C 	0.22567 0.83887 0.70774 0.01100
C 	C 	0.27718 0.82448 0.74076 0.00100
C 	C 	0.41921 0.84181 0.76582 0.05400
C 	C 	0.42955 0.78735 0.78710 -0.01800
C 	C 	0.47642 0.89382 0.77224 -0.00400
C 	C 	0.71350 0.96180 0.04840 -0.00300
C 	C 	0.76060 0.96670 0.08780 0.01100
C 	C 	0.09353 0.98633 0.62926 0.31200
C 	C 	0.02465 0.02655 0.63310 -0.07300
C 	C 	0.98542 0.05702 0.60084 -0.01500
C 	C 	0.92090 0.09390 0.60460 -0.02300
C 	C 	0.89626 0.10176 0.63972 -0.06000
C 	C 	0.93566 0.07136 0.67232 -0.03000
C 	C 	0.99915 0.03425 0.66910 -0.00900
C 	C 	0.82859 0.14409 0.64478 0.31600
C 	C 	0.14679 0.80589 0.54318 0.11600
C 	C 	0.08960 0.70850 0.47380 0.04400
C 	C 	0.12066 0.73926 0.44912 -0.00900
C 	C 	0.09502 0.71202 0.40464 -0.16600
C 	C 	0.03596 0.65106 0.45392 0.00000
C 	C 	0.01189 0.62119 0.40998 -0.17300
C 	C 	0.04110 0.65320 0.38560 0.22400
C 	C 	0.98431 0.55901 0.31822 0.22000
C 	C 	0.90921 0.54701 0.29842 -0.17000
C 	C 	0.02941 0.50121 0.31382 -0.15500
C 	C 	0.83338 0.33178 0.20216 0.10300
C 	C 	0.86887 0.22567 0.20774 0.01100
C 	C 	0.91628 0.27718 0.24076 0.00100
C 	C 	0.92401 0.41921 0.26582 0.05300
C 	C 	0.99975 0.42955 0.28710 -0.01800
C 	C 	0.87842 0.47642 0.27224 -0.00400
C 	C 	0.08660 0.71350 0.54840 -0.00300
C 	C 	0.12110 0.76060 0.58780 0.01100
C 	C 	0.03573 0.64293 0.62926 0.30800
C 	C 	0.10845 0.60655 0.63310 -0.06300
C 	C 	0.11542 0.54382 0.60084 -0.02500
C 	C 	0.18370 0.51070 0.60460 -0.01700
C 	C 	0.24346 0.53796 0.63972 -0.06500
C 	C 	0.23666 0.60096 0.67232 -0.02300
C 	C 	0.16995 0.63485 0.66910 -0.02000
C 	C 	0.31619 0.50069 0.64478 0.31700
C 	C 	0.89639 0.73729 0.54318 0.11500
C 	C 	0.88420 0.76530 0.47380 0.04400
C 	C 	0.82846 0.70986 0.44912 -0.00900
C 	C 	0.80962 0.69262 0.40464 -0.16600
C 	C 	0.91796 0.80286 0.45392 0.00100
C 	C 	0.89809 0.78879 0.40998 -0.17400
C 	C 	0.84450 0.73240 0.38560 0.22400
C 	C 	0.83391 0.75921 0.31822 0.22100
C 	C 	0.88921 0.75141 0.29842 -0.17000
C 	C 	0.78441 0.81261 0.31382 -0.15600
C 	C 	0.86878 0.87038 0.20216 0.10300
C 	C 	0.83887 0.98207 0.20774 0.00900
C 	C 	0.82448 0.96358 0.24076 0.00100
C 	C 	0.84181 0.84661 0.26582 0.05300
C 	C 	0.78735 0.85755 0.28710 -0.01800
C 	C 	0.89382 0.79582 0.27224 -0.00400
C 	C 	0.96180 0.83490 0.54840 -0.00300
C 	C 	0.96670 0.82720 0.58780 0.01000
N 	N 	0.31654 0.66374 0.08468 -0.25100
N 	N 	0.23885 0.61435 0.01990 -0.13300
N 	N 	0.75925 0.31625 0.68330 -0.24400
N 	N 	0.84584 0.39274 0.73728 -0.12900
N 	N 	0.26814 0.42094 0.08468 -0.25100
N 	N 	0.28105 0.40555 0.01990 -0.13300
N 	N 	0.42405 0.36705 0.68330 -0.24400
N 	N 	0.39144 0.34454 0.73728 -0.12900
N 	N 	0.42094 0.31654 0.58468 -0.25100
N 	N 	0.40555 0.23885 0.51990 -0.13300
N 	N 	0.36705 0.75925 0.18330 -0.24400
N 	N 	0.34454 0.84584 0.23728 -0.12900
N 	N 	0.66374 0.26814 0.58468 -0.25100
N 	N 	0.61435 0.28105 0.51990 -0.13300
N 	N 	0.31625 0.42405 0.18330 -0.24400
N 	N 	0.39274 0.39144 0.23728 -0.12900
N 	N 	0.76814 0.16374 0.08468 -0.25100
N 	N 	0.78105 0.11435 0.01990 -0.13300
N 	N 	0.92405 0.81625 0.68330 -0.24300
N 	N 	0.89144 0.89274 0.73728 -0.13000
N 	N 	0.81654 0.92094 0.08468 -0.25100
N 	N 	0.73885 0.90555 0.01990 -0.13300
N 	N 	0.25925 0.86705 0.68330 -0.24400
N 	N 	0.34584 0.84454 0.73728 -0.12900
N 	N 	0.16374 0.81654 0.58468 -0.25100
N 	N 	0.11435 0.73885 0.51990 -0.13300
N 	N 	0.81625 0.25925 0.18330 -0.24400
N 	N 	0.89274 0.34584 0.23728 -0.12900
N 	N 	0.92094 0.76814 0.58468 -0.25100
N 	N 	0.90555 0.78105 0.51990 -0.13300
N 	N 	0.86705 0.92405 0.18330 -0.24400
N 	N 	0.84454 0.89144 0.23728 -0.13000
O 	O 	0.45372 0.62372 0.15724 -0.41700
O 	O 	0.48479 0.62049 0.09898 -0.34500
O 	O 	0.65511 0.30961 0.17822 -0.33400
O 	O 	0.66904 0.29304 0.11388 -0.42600
O 	O 	0.13205 0.51715 0.84050 -0.27900
O 	O 	0.20352 0.53352 0.15724 -0.41700
O 	O 	0.11419 0.47849 0.09898 -0.34500
O 	O 	0.02311 0.86861 0.17822 -0.33400
O 	O 	0.94484 0.82084 0.11388 -0.42700
O 	O 	0.20845 0.32335 0.84050 -0.27900
O 	O 	0.53352 0.45372 0.65724 -0.41700
O 	O 	0.47849 0.48479 0.59898 -0.34500
O 	O 	0.86861 0.65511 0.67822 -0.33400
O 	O 	0.82084 0.66904 0.61388 -0.42600
O 	O 	0.32335 0.13205 0.34050 -0.27900
O 	O 	0.62372 0.20352 0.65724 -0.41700
O 	O 	0.62049 0.11419 0.59898 -0.34500
O 	O 	0.30961 0.02311 0.67822 -0.33400
O 	O 	0.29304 0.94484 0.61388 -0.42600
O 	O 	0.51715 0.20845 0.34050 -0.27900
O 	O 	0.70352 0.12372 0.15724 -0.41700
O 	O 	0.61419 0.12049 0.09898 -0.34500
O 	O 	0.52311 0.80961 0.17822 -0.33400
O 	O 	0.44484 0.79304 0.11388 -0.42600
O 	O 	0.70845 0.01715 0.84050 -0.27700
O 	O 	0.95372 0.03352 0.15724 -0.41700
O 	O 	0.98479 0.97849 0.09898 -0.34700
O 	O 	0.15511 0.36861 0.17822 -0.33400
O 	O 	0.16904 0.32084 0.11388 -0.42600
O 	O 	0.63205 0.82335 0.84050 -0.27900
O 	O 	0.12372 0.95372 0.65724 -0.41800
O 	O 	0.12049 0.98479 0.59898 -0.34600
O 	O 	0.80961 0.15511 0.67822 -0.33400
O 	O 	0.79304 0.16904 0.61388 -0.42600
O 	O 	0.01715 0.63205 0.34050 -0.27800
O 	O 	0.03352 0.70352 0.65724 -0.41700
O 	O 	0.97849 0.61419 0.59898 -0.34600
O 	O 	0.36861 0.52311 0.67822 -0.33400
O 	O 	0.32084 0.44484 0.61388 -0.42600
O 	O 	0.82335 0.70845 0.34050 -0.27900
