data_crystal

_cell_length_a 18.90310
_cell_length_b 18.90310
_cell_length_c 33.89350
_cell_angle_alpha 73.80770
_cell_angle_beta  73.80770
_cell_angle_gamma 89.99980

_symmetry_space_group_name_	'P 1'
_symmetry_space_group_name_H-M	'P 1'

loop_
_symmetry_equiv_pos_as_xyz
  x,y,z

loop_
_atom_site_label
_atom_site_type_symbol
_atom_site_fract_x
_atom_site_fract_y
_atom_site_fract_z
_atom_site_charge
Cd	Cd	0.42847 0.90849 0.36940 1.22000
Cd	Cd	0.70213 0.72211 0.36940 1.22000
Cd	Cd	0.40849 0.20213 0.86940 1.22000
Cd	Cd	0.22211 0.92847 0.86940 1.22000
Cd	Cd	0.20213 0.40849 0.36940 1.22000
Cd	Cd	0.92847 0.22211 0.36940 1.22000
Cd	Cd	0.72211 0.70213 0.86940 1.22000
Cd	Cd	0.90849 0.42847 0.86940 1.22000
H 	H 	0.53270 0.82060 0.29560 0.02700
H 	H 	0.49650 0.80210 0.23640 0.03300
H 	H 	0.33420 0.88390 0.30640 -0.00800
H 	H 	0.39890 0.75720 0.21360 0.05100
H 	H 	0.32010 0.75110 0.17200 0.10700
H 	H 	0.21850 0.92070 0.20320 0.11400
H 	H 	0.29360 0.92340 0.24720 0.04200
H 	H 	0.38260 0.95480 0.89240 0.02000
H 	H 	0.39650 0.93710 0.96360 0.03700
H 	H 	0.19210 0.87890 0.97480 -0.01500
H 	H 	0.34550 0.95330 0.03460 0.03700
H 	H 	0.31750 0.91870 0.10880 0.10700
H 	H 	0.15330 0.77980 0.11720 0.10900
H 	H 	0.18190 0.81090 0.04400 0.03800
H 	H 	0.28210 0.10640 0.30680 0.05500
H 	H 	0.18330 0.96730 0.42180 0.05200
H 	H 	0.07670 0.02690 0.42340 0.05100
H 	H 	0.17630 0.16870 0.30900 0.05300
H 	H 	0.67170 0.88380 0.29560 0.02600
H 	H 	0.76710 0.96150 0.23640 0.03200
H 	H 	0.85940 0.80970 0.30640 -0.00900
H 	H 	0.88750 0.02920 0.21360 0.04700
H 	H 	0.00790 0.07690 0.17200 0.10900
H 	H 	0.07830 0.87610 0.20320 0.11500
H 	H 	0.95920 0.82940 0.24720 0.04000
H 	H 	0.22500 0.15280 0.89240 0.02000
H 	H 	0.13990 0.09930 0.96360 0.03700
H 	H 	0.33310 0.14630 0.97480 -0.01500
H 	H 	0.11990 0.01210 0.03460 0.03900
H 	H 	0.07370 0.97250 0.10880 0.10400
H 	H 	0.22950 0.10300 0.11720 0.10800
H 	H 	0.27410 0.14510 0.04400 0.03900
H 	H 	0.91110 0.58680 0.30680 0.05500
H 	H 	0.89490 0.61090 0.42180 0.05300
H 	H 	0.99990 0.54970 0.42340 0.05000
H 	H 	0.01470 0.52230 0.30900 0.05300
H 	H 	0.32060 0.17170 0.79560 0.02600
H 	H 	0.30210 0.26710 0.73640 0.03200
H 	H 	0.38390 0.35940 0.80640 -0.00900
H 	H 	0.25720 0.38750 0.71360 0.05000
H 	H 	0.25110 0.50790 0.67200 0.10600
H 	H 	0.42070 0.57830 0.70320 0.11400
H 	H 	0.42340 0.45920 0.74720 0.04200
H 	H 	0.45480 0.72500 0.39240 0.02000
H 	H 	0.43710 0.63990 0.46360 0.03700
H 	H 	0.37890 0.83310 0.47480 -0.01500
H 	H 	0.45330 0.61990 0.53460 0.03800
H 	H 	0.41870 0.57370 0.60880 0.10700
H 	H 	0.27980 0.72950 0.61720 0.10900
H 	H 	0.31090 0.77410 0.54400 0.03900
H 	H 	0.60640 0.41110 0.80680 0.05500
H 	H 	0.46730 0.39490 0.92180 0.05300
H 	H 	0.52690 0.49990 0.92340 0.05100
H 	H 	0.66870 0.51470 0.80900 0.05300
H 	H 	0.38380 0.03270 0.79560 0.02600
H 	H 	0.46150 0.99650 0.73640 0.03200
H 	H 	0.30970 0.83420 0.80640 -0.00900
H 	H 	0.52920 0.89890 0.71360 0.05000
H 	H 	0.57690 0.82010 0.67200 0.10600
H 	H 	0.37610 0.71850 0.70320 0.11400
H 	H 	0.32940 0.79360 0.74720 0.04200
H 	H 	0.65280 0.88260 0.39240 0.02000
H 	H 	0.59930 0.89650 0.46360 0.03700
H 	H 	0.64630 0.69210 0.47480 -0.01500
H 	H 	0.51210 0.84550 0.53460 0.03800
H 	H 	0.47250 0.81750 0.60880 0.10700
H 	H 	0.60300 0.65330 0.61720 0.10900
H 	H 	0.64510 0.68190 0.54400 0.03900
H 	H 	0.08680 0.78210 0.80680 0.05400
H 	H 	0.11090 0.68330 0.92180 0.05300
H 	H 	0.04970 0.57670 0.92340 0.05100
H 	H 	0.02230 0.67630 0.80900 0.05300
H 	H 	0.17170 0.32060 0.29560 0.02600
H 	H 	0.26710 0.30210 0.23640 0.03200
H 	H 	0.35940 0.38390 0.30640 -0.00900
H 	H 	0.38750 0.25720 0.21360 0.05000
H 	H 	0.50790 0.25110 0.17200 0.10600
H 	H 	0.57830 0.42070 0.20320 0.11400
H 	H 	0.45920 0.42340 0.24720 0.04200
H 	H 	0.72500 0.45480 0.89240 0.02000
H 	H 	0.63990 0.43710 0.96360 0.03700
H 	H 	0.83310 0.37890 0.97480 -0.01500
H 	H 	0.61990 0.45330 0.03460 0.03800
H 	H 	0.57370 0.41870 0.10880 0.10700
H 	H 	0.72950 0.27980 0.11720 0.10900
H 	H 	0.77410 0.31090 0.04400 0.03900
H 	H 	0.41110 0.60640 0.30680 0.05500
H 	H 	0.39490 0.46730 0.42180 0.05300
H 	H 	0.49990 0.52690 0.42340 0.05100
H 	H 	0.51470 0.66870 0.30900 0.05300
H 	H 	0.03270 0.38380 0.29560 0.02600
H 	H 	0.99650 0.46150 0.23640 0.03200
H 	H 	0.83420 0.30970 0.30640 -0.00900
H 	H 	0.89890 0.52920 0.21360 0.05000
H 	H 	0.82010 0.57690 0.17200 0.10700
H 	H 	0.71850 0.37610 0.20320 0.11400
H 	H 	0.79360 0.32940 0.24720 0.04200
H 	H 	0.88260 0.65280 0.89240 0.02000
H 	H 	0.89650 0.59930 0.96360 0.03700
H 	H 	0.69210 0.64630 0.97480 -0.01500
H 	H 	0.84550 0.51210 0.03460 0.03800
H 	H 	0.81750 0.47250 0.10880 0.10700
H 	H 	0.65330 0.60300 0.11720 0.10900
H 	H 	0.68190 0.64510 0.04400 0.03900
H 	H 	0.78210 0.08680 0.30680 0.05500
H 	H 	0.68330 0.11090 0.42180 0.05300
H 	H 	0.57670 0.04970 0.42340 0.05000
H 	H 	0.67630 0.02230 0.30900 0.05300
H 	H 	0.88380 0.67170 0.79560 0.02600
H 	H 	0.96150 0.76710 0.73640 0.03200
H 	H 	0.80970 0.85940 0.80640 -0.00900
H 	H 	0.02920 0.88750 0.71360 0.04700
H 	H 	0.07690 0.00790 0.67200 0.11000
H 	H 	0.87610 0.07830 0.70320 0.11500
H 	H 	0.82940 0.95920 0.74720 0.04000
H 	H 	0.15280 0.22500 0.39240 0.02000
H 	H 	0.09930 0.13990 0.46360 0.03700
H 	H 	0.14630 0.33310 0.47480 -0.01500
H 	H 	0.01210 0.11990 0.53460 0.03900
H 	H 	0.97250 0.07370 0.60880 0.10500
H 	H 	0.10300 0.22950 0.61720 0.10900
H 	H 	0.14510 0.27410 0.54400 0.03900
H 	H 	0.58680 0.91110 0.80680 0.05500
H 	H 	0.61090 0.89490 0.92180 0.05400
H 	H 	0.54970 0.99990 0.92340 0.05000
H 	H 	0.52230 0.01470 0.80900 0.05200
H 	H 	0.82060 0.53270 0.79560 0.02600
H 	H 	0.80210 0.49650 0.73640 0.03200
H 	H 	0.88390 0.33420 0.80640 -0.00900
H 	H 	0.75720 0.39890 0.71360 0.05000
H 	H 	0.75110 0.32010 0.67200 0.10600
H 	H 	0.92070 0.21850 0.70320 0.11300
H 	H 	0.92340 0.29360 0.74720 0.04200
H 	H 	0.95480 0.38260 0.39240 0.02000
H 	H 	0.93710 0.39650 0.46360 0.03700
H 	H 	0.87890 0.19210 0.47480 -0.01500
H 	H 	0.95330 0.34550 0.53460 0.03800
H 	H 	0.91870 0.31750 0.60880 0.10700
H 	H 	0.77980 0.15330 0.61720 0.10900
H 	H 	0.81090 0.18190 0.54400 0.03900
H 	H 	0.10640 0.28210 0.80680 0.05500
H 	H 	0.96730 0.18330 0.92180 0.05100
H 	H 	0.02690 0.07670 0.92340 0.05100
H 	H 	0.16870 0.17630 0.80900 0.05300
C 	C 	0.48736 0.83056 0.29048 0.00200
C 	C 	0.46778 0.82018 0.25804 0.00800
C 	C 	0.37889 0.86479 0.29682 0.09900
C 	C 	0.35101 0.83921 0.23478 0.04800
C 	C 	0.36143 0.78883 0.21234 -0.01000
C 	C 	0.31420 0.78550 0.18740 -0.17700
C 	C 	0.26036 0.83186 0.18568 0.23100
C 	C 	0.25318 0.88628 0.20644 -0.17400
C 	C 	0.29877 0.88857 0.23206 -0.00400
C 	C 	0.34502 0.93862 0.91816 0.00000
C 	C 	0.35282 0.92932 0.95736 0.00200
C 	C 	0.24107 0.89837 0.96306 0.11100
C 	C 	0.26712 0.88532 0.03176 0.04100
C 	C 	0.30692 0.91762 0.05116 0.00200
C 	C 	0.28988 0.89718 0.09564 -0.18600
C 	C 	0.23252 0.84542 0.11996 0.24000
C 	C 	0.19274 0.81444 0.10052 -0.18800
C 	C 	0.20943 0.83323 0.05674 0.00100
C 	C 	0.31197 0.99077 0.36346 0.30800
C 	C 	0.24399 0.03039 0.36422 -0.06200
C 	C 	0.24090 0.09070 0.33060 -0.02500
C 	C 	0.18231 0.00771 0.39878 -0.02300
C 	C 	0.04779 0.14509 0.36842 0.31700
C 	C 	0.11596 0.10516 0.36688 -0.06700
C 	C 	0.11842 0.04402 0.39996 -0.02500
C 	C 	0.17732 0.12819 0.33182 -0.02200
C 	C 	0.72216 0.87896 0.29048 0.00200
C 	C 	0.77418 0.92178 0.25804 0.00800
C 	C 	0.82429 0.83839 0.29682 0.09900
C 	C 	0.91421 0.92601 0.23478 0.04400
C 	C 	0.92623 0.99883 0.21234 -0.00300
C 	C 	0.99840 0.02710 0.18740 -0.18400
C 	C 	0.05396 0.98246 0.18568 0.23400
C 	C 	0.04038 0.90728 0.20644 -0.17900
C 	C 	0.96917 0.87937 0.23206 0.00200
C 	C 	0.23682 0.14322 0.91816 0.00000
C 	C 	0.18982 0.11332 0.95736 0.00200
C 	C 	0.29587 0.13857 0.96306 0.11100
C 	C 	0.20112 0.08292 0.03176 0.04400
C 	C 	0.14192 0.03122 0.05116 -0.00100
C 	C 	0.11448 0.00718 0.09564 -0.18000
C 	C 	0.14752 0.03462 0.11996 0.23700
C 	C 	0.20674 0.08504 0.10052 -0.18500
C 	C 	0.23383 0.11003 0.05674 -0.00200
C 	C 	0.82457 0.64577 0.36346 0.30900
C 	C 	0.89179 0.60539 0.36422 -0.06200
C 	C 	0.92850 0.57870 0.33060 -0.02600
C 	C 	0.91891 0.59351 0.39878 -0.02500
C 	C 	0.08379 0.48649 0.36842 0.31600
C 	C 	0.01716 0.52796 0.36688 -0.06800
C 	C 	0.98162 0.55602 0.39996 -0.02300
C 	C 	0.99086 0.53999 0.33182 -0.02100
C 	C 	0.33056 0.22216 0.79048 0.00200
C 	C 	0.32018 0.27418 0.75804 0.00800
C 	C 	0.36479 0.32429 0.79682 0.09900
C 	C 	0.33921 0.41421 0.73478 0.04800
C 	C 	0.28883 0.42623 0.71234 -0.01000
C 	C 	0.28550 0.49840 0.68740 -0.17700
C 	C 	0.33186 0.55396 0.68568 0.23200
C 	C 	0.38628 0.54038 0.70644 -0.17400
C 	C 	0.38857 0.46917 0.73206 -0.00400
C 	C 	0.43862 0.73682 0.41816 0.00000
C 	C 	0.42932 0.68982 0.45736 0.00200
C 	C 	0.39837 0.79587 0.46306 0.11100
C 	C 	0.38532 0.70112 0.53176 0.04200
C 	C 	0.41762 0.64192 0.55116 0.00200
C 	C 	0.39718 0.61448 0.59564 -0.18500
C 	C 	0.34542 0.64752 0.61996 0.24000
C 	C 	0.31444 0.70674 0.60052 -0.18700
C 	C 	0.33323 0.73383 0.55674 0.00000
C 	C 	0.49077 0.32457 0.86346 0.30900
C 	C 	0.53039 0.39179 0.86422 -0.06200
C 	C 	0.59070 0.42850 0.83060 -0.02500
C 	C 	0.50771 0.41891 0.89878 -0.02500
C 	C 	0.64509 0.58379 0.86842 0.31600
C 	C 	0.60516 0.51716 0.86688 -0.06700
C 	C 	0.54402 0.48162 0.89996 -0.02400
C 	C 	0.62819 0.49086 0.83182 -0.02200
C 	C 	0.37896 0.98736 0.79048 0.00100
C 	C 	0.42178 0.96778 0.75804 0.00800
C 	C 	0.33839 0.87889 0.79682 0.09900
C 	C 	0.42601 0.85101 0.73478 0.04800
C 	C 	0.49883 0.86143 0.71234 -0.01000
C 	C 	0.52710 0.81420 0.68740 -0.17700
C 	C 	0.48246 0.76036 0.68568 0.23200
C 	C 	0.40728 0.75318 0.70644 -0.17400
C 	C 	0.37937 0.79877 0.73206 -0.00400
C 	C 	0.64322 0.84502 0.41816 0.00000
C 	C 	0.61332 0.85282 0.45736 0.00200
C 	C 	0.63857 0.74107 0.46306 0.11100
C 	C 	0.58292 0.76712 0.53176 0.04200
C 	C 	0.53122 0.80692 0.55116 0.00200
C 	C 	0.50718 0.78988 0.59564 -0.18500
C 	C 	0.53462 0.73252 0.61996 0.24000
C 	C 	0.58504 0.69274 0.60052 -0.18700
C 	C 	0.61003 0.70943 0.55674 0.00000
C 	C 	0.14577 0.81197 0.86346 0.30900
C 	C 	0.10539 0.74399 0.86422 -0.06300
C 	C 	0.07870 0.74090 0.83060 -0.02500
C 	C 	0.09351 0.68231 0.89878 -0.02500
C 	C 	0.98649 0.54779 0.86842 0.31600
C 	C 	0.02796 0.61596 0.86688 -0.06700
C 	C 	0.05602 0.61842 0.89996 -0.02400
C 	C 	0.03999 0.67732 0.83182 -0.02300
C 	C 	0.22216 0.33056 0.29048 0.00200
C 	C 	0.27418 0.32018 0.25804 0.00800
C 	C 	0.32429 0.36479 0.29682 0.09900
C 	C 	0.41421 0.33921 0.23478 0.04800
C 	C 	0.42623 0.28883 0.21234 -0.01000
C 	C 	0.49840 0.28550 0.18740 -0.17700
C 	C 	0.55396 0.33186 0.18568 0.23100
C 	C 	0.54038 0.38628 0.20644 -0.17400
C 	C 	0.46917 0.38857 0.23206 -0.00400
C 	C 	0.73682 0.43862 0.91816 0.00000
C 	C 	0.68982 0.42932 0.95736 0.00200
C 	C 	0.79587 0.39837 0.96306 0.11100
C 	C 	0.70112 0.38532 0.03176 0.04300
C 	C 	0.64192 0.41762 0.05116 0.00200
C 	C 	0.61448 0.39718 0.09564 -0.18500
C 	C 	0.64752 0.34542 0.11996 0.23900
C 	C 	0.70674 0.31444 0.10052 -0.18700
C 	C 	0.73383 0.33323 0.05674 -0.00000
C 	C 	0.32457 0.49077 0.36346 0.30900
C 	C 	0.39179 0.53039 0.36422 -0.06200
C 	C 	0.42850 0.59070 0.33060 -0.02500
C 	C 	0.41891 0.50771 0.39878 -0.02500
C 	C 	0.58379 0.64509 0.36842 0.31600
C 	C 	0.51716 0.60516 0.36688 -0.06700
C 	C 	0.48162 0.54402 0.39996 -0.02400
C 	C 	0.49086 0.62819 0.33182 -0.02200
C 	C 	0.98736 0.37896 0.29048 0.00100
C 	C 	0.96778 0.42178 0.25804 0.00800
C 	C 	0.87889 0.33839 0.29682 0.09900
C 	C 	0.85101 0.42601 0.23478 0.04800
C 	C 	0.86143 0.49883 0.21234 -0.01000
C 	C 	0.81420 0.52710 0.18740 -0.17700
C 	C 	0.76036 0.48246 0.18568 0.23200
C 	C 	0.75318 0.40728 0.20644 -0.17400
C 	C 	0.79877 0.37937 0.23206 -0.00400
C 	C 	0.84502 0.64322 0.91816 0.00000
C 	C 	0.85282 0.61332 0.95736 0.00200
C 	C 	0.74107 0.63857 0.96306 0.11100
C 	C 	0.76712 0.58292 0.03176 0.04200
C 	C 	0.80692 0.53122 0.05116 0.00200
C 	C 	0.78988 0.50718 0.09564 -0.18500
C 	C 	0.73252 0.53462 0.11996 0.23900
C 	C 	0.69274 0.58504 0.10052 -0.18700
C 	C 	0.70943 0.61003 0.05674 0.00000
C 	C 	0.81197 0.14577 0.36346 0.30900
C 	C 	0.74399 0.10539 0.36422 -0.06200
C 	C 	0.74090 0.07870 0.33060 -0.02600
C 	C 	0.68231 0.09351 0.39878 -0.02500
C 	C 	0.54779 0.98649 0.36842 0.31600
C 	C 	0.61596 0.02796 0.36688 -0.06700
C 	C 	0.61842 0.05602 0.39996 -0.02400
C 	C 	0.67732 0.03999 0.33182 -0.02200
C 	C 	0.87896 0.72216 0.79048 0.00200
C 	C 	0.92178 0.77418 0.75804 0.00800
C 	C 	0.83839 0.82429 0.79682 0.09900
C 	C 	0.92601 0.91421 0.73478 0.04400
C 	C 	0.99883 0.92623 0.71234 -0.00200
C 	C 	0.02710 0.99840 0.68740 -0.18600
C 	C 	0.98246 0.05396 0.68568 0.23500
C 	C 	0.90728 0.04038 0.70644 -0.17900
C 	C 	0.87937 0.96917 0.73206 0.00200
C 	C 	0.14322 0.23682 0.41816 0.00000
C 	C 	0.11332 0.18982 0.45736 0.00200
C 	C 	0.13857 0.29587 0.46306 0.11100
C 	C 	0.08292 0.20112 0.53176 0.04300
C 	C 	0.03122 0.14192 0.55116 -0.00000
C 	C 	0.00718 0.11448 0.59564 -0.18100
C 	C 	0.03462 0.14752 0.61996 0.23800
C 	C 	0.08504 0.20674 0.60052 -0.18600
C 	C 	0.11003 0.23383 0.55674 -0.00100
C 	C 	0.64577 0.82457 0.86346 0.30800
C 	C 	0.60539 0.89179 0.86422 -0.06100
C 	C 	0.57870 0.92850 0.83060 -0.02700
C 	C 	0.59351 0.91891 0.89878 -0.02600
C 	C 	0.48649 0.08379 0.86842 0.31700
C 	C 	0.52796 0.01716 0.86688 -0.06900
C 	C 	0.55602 0.98162 0.89996 -0.02200
C 	C 	0.53999 0.99086 0.83182 -0.02000
C 	C 	0.83056 0.48736 0.79048 0.00200
C 	C 	0.82018 0.46778 0.75804 0.00800
C 	C 	0.86479 0.37889 0.79682 0.09900
C 	C 	0.83921 0.35101 0.73478 0.04800
C 	C 	0.78883 0.36143 0.71234 -0.01000
C 	C 	0.78550 0.31420 0.68740 -0.17700
C 	C 	0.83186 0.26036 0.68568 0.23100
C 	C 	0.88628 0.25318 0.70644 -0.17400
C 	C 	0.88857 0.29877 0.73206 -0.00400
C 	C 	0.93862 0.34502 0.41816 0.00000
C 	C 	0.92932 0.35282 0.45736 0.00200
C 	C 	0.89837 0.24107 0.46306 0.11100
C 	C 	0.88532 0.26712 0.53176 0.04200
C 	C 	0.91762 0.30692 0.55116 0.00200
C 	C 	0.89718 0.28988 0.59564 -0.18500
C 	C 	0.84542 0.23252 0.61996 0.23900
C 	C 	0.81444 0.19274 0.60052 -0.18700
C 	C 	0.83323 0.20943 0.55674 0.00000
C 	C 	0.99077 0.31197 0.86346 0.30700
C 	C 	0.03039 0.24399 0.86422 -0.06300
C 	C 	0.09070 0.24090 0.83060 -0.02500
C 	C 	0.00771 0.18231 0.89878 -0.02200
C 	C 	0.14509 0.04779 0.86842 0.31700
C 	C 	0.10516 0.11596 0.86688 -0.06600
C 	C 	0.04402 0.11842 0.89996 -0.02500
C 	C 	0.12819 0.17732 0.83182 -0.02300
N 	N 	0.43115 0.85815 0.31550 -0.23600
N 	N 	0.39756 0.84081 0.26202 -0.12900
N 	N 	0.27345 0.92075 0.92230 -0.24600
N 	N 	0.28496 0.90616 0.98668 -0.13200
N 	N 	0.75335 0.82635 0.31550 -0.23600
N 	N 	0.84042 0.89717 0.26202 -0.12900
N 	N 	0.30425 0.15695 0.92230 -0.24600
N 	N 	0.22836 0.10716 0.98668 -0.13300
N 	N 	0.35815 0.25335 0.81550 -0.23600
N 	N 	0.34081 0.34042 0.76202 -0.12900
N 	N 	0.42075 0.80425 0.42230 -0.24600
N 	N 	0.40616 0.72836 0.48668 -0.13200
N 	N 	0.32635 0.93115 0.81550 -0.23600
N 	N 	0.39717 0.89756 0.76202 -0.12900
N 	N 	0.65695 0.77345 0.42230 -0.24600
N 	N 	0.60716 0.78496 0.48668 -0.13200
N 	N 	0.25335 0.35815 0.31550 -0.23600
N 	N 	0.34042 0.34081 0.26202 -0.12900
N 	N 	0.80425 0.42075 0.92230 -0.24600
N 	N 	0.72836 0.40616 0.98668 -0.13300
N 	N 	0.93115 0.32635 0.31550 -0.23600
N 	N 	0.89756 0.39717 0.26202 -0.12900
N 	N 	0.77345 0.65695 0.92230 -0.24600
N 	N 	0.78496 0.60716 0.98668 -0.13200
N 	N 	0.82635 0.75335 0.81550 -0.23600
N 	N 	0.89717 0.84042 0.76202 -0.12800
N 	N 	0.15695 0.30425 0.42230 -0.24600
N 	N 	0.10716 0.22836 0.48668 -0.13300
N 	N 	0.85815 0.43115 0.81550 -0.23600
N 	N 	0.84081 0.39756 0.76202 -0.12900
N 	N 	0.92075 0.27345 0.42230 -0.24600
N 	N 	0.90616 0.28496 0.48668 -0.13200
O 	O 	0.36648 0.01017 0.33132 -0.36200
O 	O 	0.31215 0.93702 0.39530 -0.40200
O 	O 	0.05076 0.20526 0.34044 -0.40000
O 	O 	0.99069 0.11945 0.39766 -0.38000
O 	O 	0.20938 0.82593 0.16414 -0.28700
O 	O 	0.80220 0.65851 0.33132 -0.36200
O 	O 	0.79255 0.66768 0.39530 -0.40200
O 	O 	0.10880 0.45430 0.34044 -0.40000
O 	O 	0.11165 0.48289 0.39766 -0.37900
O 	O 	0.12648 0.00993 0.16414 -0.28600
O 	O 	0.51017 0.30220 0.83132 -0.36200
O 	O 	0.43702 0.29255 0.89530 -0.40200
O 	O 	0.70526 0.60880 0.84044 -0.40000
O 	O 	0.61945 0.61165 0.89766 -0.37900
O 	O 	0.32593 0.62648 0.66414 -0.28700
O 	O 	0.15851 0.86648 0.83132 -0.36200
O 	O 	0.16768 0.81215 0.89530 -0.40200
O 	O 	0.95430 0.55076 0.84044 -0.40000
O 	O 	0.98289 0.49069 0.89766 -0.38000
O 	O 	0.50993 0.70938 0.66414 -0.28700
O 	O 	0.30220 0.51017 0.33132 -0.36200
O 	O 	0.29255 0.43702 0.39530 -0.40200
O 	O 	0.60880 0.70526 0.34044 -0.40000
O 	O 	0.61165 0.61945 0.39766 -0.37900
O 	O 	0.62648 0.32593 0.16414 -0.28700
O 	O 	0.86648 0.15851 0.33132 -0.36200
O 	O 	0.81215 0.16768 0.39530 -0.40200
O 	O 	0.55076 0.95430 0.34044 -0.40000
O 	O 	0.49069 0.98289 0.39766 -0.37900
O 	O 	0.70938 0.50993 0.16414 -0.28700
O 	O 	0.65851 0.80220 0.83132 -0.36200
O 	O 	0.66768 0.79255 0.89530 -0.40200
O 	O 	0.45430 0.10880 0.84044 -0.40000
O 	O 	0.48289 0.11165 0.89766 -0.38000
O 	O 	0.00993 0.12648 0.66414 -0.28700
O 	O 	0.01017 0.36648 0.83132 -0.36200
O 	O 	0.93702 0.31215 0.89530 -0.40200
O 	O 	0.20526 0.05076 0.84044 -0.40000
O 	O 	0.11945 0.99069 0.89766 -0.38000
O 	O 	0.82593 0.20938 0.66414 -0.28700
Cd	Cd	0.79787 0.59151 0.63060 1.21900
Cd	Cd	0.07153 0.77789 0.63060 1.21900
Cd	Cd	0.27789 0.29787 0.13060 1.21900
Cd	Cd	0.09151 0.57153 0.13060 1.21900
Cd	Cd	0.57153 0.09151 0.63060 1.21900
Cd	Cd	0.29787 0.27789 0.63060 1.21900
Cd	Cd	0.59151 0.79787 0.13060 1.21900
Cd	Cd	0.77789 0.07153 0.13060 1.21900
H 	H 	0.82830 0.67940 0.70440 0.02600
H 	H 	0.73290 0.69790 0.76360 0.03200
H 	H 	0.64060 0.61610 0.69360 -0.00900
H 	H 	0.61250 0.74280 0.78640 0.05000
H 	H 	0.49210 0.74890 0.82800 0.10600
H 	H 	0.42170 0.57930 0.79680 0.11400
H 	H 	0.54080 0.57660 0.75280 0.04200
H 	H 	0.27500 0.54520 0.10760 0.02000
H 	H 	0.36010 0.56290 0.03640 0.03700
H 	H 	0.16690 0.62110 0.02520 -0.01500
H 	H 	0.38010 0.54670 0.96540 0.03800
H 	H 	0.42630 0.58130 0.89120 0.10700
H 	H 	0.27050 0.72020 0.88280 0.10900
H 	H 	0.22590 0.68910 0.95600 0.03900
H 	H 	0.58890 0.39360 0.69320 0.05500
H 	H 	0.60510 0.53270 0.57820 0.05300
H 	H 	0.50010 0.47310 0.57660 0.05100
H 	H 	0.48530 0.33130 0.69100 0.05300
H 	H 	0.96730 0.61620 0.70440 0.02600
H 	H 	0.00350 0.53850 0.76360 0.03200
H 	H 	0.16580 0.69030 0.69360 -0.00900
H 	H 	0.10110 0.47080 0.78640 0.05000
H 	H 	0.17990 0.42310 0.82800 0.10700
H 	H 	0.28150 0.62390 0.79680 0.11400
H 	H 	0.20640 0.67060 0.75280 0.04200
H 	H 	0.11740 0.34720 0.10760 0.02000
H 	H 	0.10350 0.40070 0.03640 0.03700
H 	H 	0.30790 0.35370 0.02520 -0.01500
H 	H 	0.15450 0.48790 0.96540 0.03800
H 	H 	0.18250 0.52750 0.89120 0.10700
H 	H 	0.34670 0.39700 0.88280 0.10900
H 	H 	0.31810 0.35490 0.95600 0.03900
H 	H 	0.21790 0.91320 0.69320 0.05500
H 	H 	0.31670 0.88910 0.57820 0.05300
H 	H 	0.42330 0.95030 0.57660 0.05000
H 	H 	0.32370 0.97770 0.69100 0.05300
H 	H 	0.11620 0.32830 0.20440 0.02600
H 	H 	0.03850 0.23290 0.26360 0.03200
H 	H 	0.19030 0.14060 0.19360 -0.00900
H 	H 	0.97080 0.11250 0.28640 0.04700
H 	H 	0.92310 0.99210 0.32800 0.11000
H 	H 	0.12390 0.92170 0.29680 0.11500
H 	H 	0.17060 0.04080 0.25280 0.04000
H 	H 	0.84720 0.77500 0.60760 0.02000
H 	H 	0.90070 0.86010 0.53640 0.03700
H 	H 	0.85370 0.66690 0.52520 -0.01500
H 	H 	0.98790 0.88010 0.46540 0.03900
H 	H 	0.02750 0.92630 0.39120 0.10500
H 	H 	0.89700 0.77050 0.38280 0.10900
H 	H 	0.85490 0.72590 0.45600 0.03900
H 	H 	0.41320 0.08890 0.19320 0.05500
H 	H 	0.38910 0.10510 0.07820 0.05400
H 	H 	0.45030 0.00010 0.07660 0.05000
H 	H 	0.47770 0.98530 0.19100 0.05200
H 	H 	0.17940 0.46730 0.20440 0.02600
H 	H 	0.19790 0.50350 0.26360 0.03200
H 	H 	0.11610 0.66580 0.19360 -0.00900
H 	H 	0.24280 0.60110 0.28640 0.05000
H 	H 	0.24890 0.67990 0.32800 0.10600
H 	H 	0.07930 0.78150 0.29680 0.11300
H 	H 	0.07660 0.70640 0.25280 0.04200
H 	H 	0.04520 0.61740 0.60760 0.02000
H 	H 	0.06290 0.60350 0.53640 0.03700
H 	H 	0.12110 0.80790 0.52520 -0.01500
H 	H 	0.04670 0.65450 0.46540 0.03800
H 	H 	0.08130 0.68250 0.39120 0.10700
H 	H 	0.22020 0.84670 0.38280 0.10900
H 	H 	0.18910 0.81810 0.45600 0.03900
H 	H 	0.89360 0.71790 0.19320 0.05500
H 	H 	0.03270 0.81670 0.07820 0.05100
H 	H 	0.97310 0.92330 0.07660 0.05100
H 	H 	0.83130 0.82370 0.19100 0.05300
H 	H 	0.46730 0.17940 0.70440 0.02600
H 	H 	0.50350 0.19790 0.76360 0.03200
H 	H 	0.66580 0.11610 0.69360 -0.00900
H 	H 	0.60110 0.24280 0.78640 0.05000
H 	H 	0.67990 0.24890 0.82800 0.10600
H 	H 	0.78150 0.07930 0.79680 0.11300
H 	H 	0.70640 0.07660 0.75280 0.04200
H 	H 	0.61740 0.04520 0.10760 0.02000
H 	H 	0.60350 0.06290 0.03640 0.03700
H 	H 	0.80790 0.12110 0.02520 -0.01500
H 	H 	0.65450 0.04670 0.96540 0.03700
H 	H 	0.68250 0.08130 0.89120 0.10700
H 	H 	0.84670 0.22020 0.88280 0.10900
H 	H 	0.81810 0.18910 0.95600 0.03800
H 	H 	0.71790 0.89360 0.69320 0.05500
H 	H 	0.81670 0.03270 0.57820 0.05200
H 	H 	0.92330 0.97310 0.57660 0.05100
H 	H 	0.82370 0.83130 0.69100 0.05300
H 	H 	0.32830 0.11620 0.70440 0.02600
H 	H 	0.23290 0.03850 0.76360 0.03200
H 	H 	0.14060 0.19030 0.69360 -0.00900
H 	H 	0.11250 0.97080 0.78640 0.04700
H 	H 	0.99210 0.92310 0.82800 0.10900
H 	H 	0.92170 0.12390 0.79680 0.11500
H 	H 	0.04080 0.17060 0.75280 0.04000
H 	H 	0.77500 0.84720 0.10760 0.02000
H 	H 	0.86010 0.90070 0.03640 0.03700
H 	H 	0.66690 0.85370 0.02520 -0.01500
H 	H 	0.88010 0.98790 0.96540 0.03900
H 	H 	0.92630 0.02750 0.89120 0.10400
H 	H 	0.77050 0.89700 0.88280 0.10800
H 	H 	0.72590 0.85490 0.95600 0.03900
H 	H 	0.08890 0.41320 0.69320 0.05500
H 	H 	0.10510 0.38910 0.57820 0.05300
H 	H 	0.00010 0.45030 0.57660 0.05000
H 	H 	0.98530 0.47770 0.69100 0.05300
H 	H 	0.67940 0.82830 0.20440 0.02600
H 	H 	0.69790 0.73290 0.26360 0.03200
H 	H 	0.61610 0.64060 0.19360 -0.00900
H 	H 	0.74280 0.61250 0.28640 0.05000
H 	H 	0.74890 0.49210 0.32800 0.10600
H 	H 	0.57930 0.42170 0.29680 0.11400
H 	H 	0.57660 0.54080 0.25280 0.04200
H 	H 	0.54520 0.27500 0.60760 0.02000
H 	H 	0.56290 0.36010 0.53640 0.03700
H 	H 	0.62110 0.16690 0.52520 -0.01500
H 	H 	0.54670 0.38010 0.46540 0.03800
H 	H 	0.58130 0.42630 0.39120 0.10700
H 	H 	0.72020 0.27050 0.38280 0.10900
H 	H 	0.68910 0.22590 0.45600 0.03900
H 	H 	0.39360 0.58890 0.19320 0.05500
H 	H 	0.53270 0.60510 0.07820 0.05300
H 	H 	0.47310 0.50010 0.07660 0.05100
H 	H 	0.33130 0.48530 0.19100 0.05300
H 	H 	0.61620 0.96730 0.20440 0.02600
H 	H 	0.53850 0.00350 0.26360 0.03200
H 	H 	0.69030 0.16580 0.19360 -0.00900
H 	H 	0.47080 0.10110 0.28640 0.05000
H 	H 	0.42310 0.17990 0.32800 0.10600
H 	H 	0.62390 0.28150 0.29680 0.11400
H 	H 	0.67060 0.20640 0.25280 0.04200
H 	H 	0.34720 0.11740 0.60760 0.02000
H 	H 	0.40070 0.10350 0.53640 0.03700
H 	H 	0.35370 0.30790 0.52520 -0.01500
H 	H 	0.48790 0.15450 0.46540 0.03800
H 	H 	0.52750 0.18250 0.39120 0.10700
H 	H 	0.39700 0.34670 0.38280 0.10900
H 	H 	0.35490 0.31810 0.45600 0.03900
H 	H 	0.91320 0.21790 0.19320 0.05400
H 	H 	0.88910 0.31670 0.07820 0.05300
H 	H 	0.95030 0.42330 0.07660 0.05100
H 	H 	0.97770 0.32370 0.19100 0.05300
C 	C 	0.77784 0.66944 0.70952 0.00200
C 	C 	0.72582 0.67982 0.74196 0.00800
C 	C 	0.67571 0.63521 0.70318 0.09900
C 	C 	0.58579 0.66079 0.76522 0.04800
C 	C 	0.57377 0.71117 0.78766 -0.01000
C 	C 	0.50160 0.71450 0.81260 -0.17700
C 	C 	0.44604 0.66814 0.81432 0.23100
C 	C 	0.45962 0.61372 0.79356 -0.17400
C 	C 	0.53083 0.61143 0.76794 -0.00400
C 	C 	0.26318 0.56138 0.08184 0.00000
C 	C 	0.31018 0.57068 0.04264 0.00200
C 	C 	0.20413 0.60163 0.03694 0.11100
C 	C 	0.29888 0.61468 0.96824 0.04300
C 	C 	0.35808 0.58238 0.94884 0.00200
C 	C 	0.38552 0.60282 0.90436 -0.18500
C 	C 	0.35248 0.65458 0.88004 0.23900
C 	C 	0.29326 0.68556 0.89948 -0.18700
C 	C 	0.26617 0.66677 0.94326 -0.00000
C 	C 	0.67543 0.50923 0.63654 0.30900
C 	C 	0.60821 0.46961 0.63578 -0.06200
C 	C 	0.57150 0.40930 0.66940 -0.02500
C 	C 	0.58109 0.49229 0.60122 -0.02500
C 	C 	0.41621 0.35491 0.63158 0.31600
C 	C 	0.48284 0.39484 0.63312 -0.06700
C 	C 	0.51838 0.45598 0.60004 -0.02400
C 	C 	0.50914 0.37181 0.66818 -0.02200
C 	C 	0.01264 0.62104 0.70952 0.00100
C 	C 	0.03222 0.57822 0.74196 0.00800
C 	C 	0.12111 0.66161 0.70318 0.09900
C 	C 	0.14899 0.57399 0.76522 0.04800
C 	C 	0.13857 0.50117 0.78766 -0.01000
C 	C 	0.18580 0.47290 0.81260 -0.17700
C 	C 	0.23964 0.51754 0.81432 0.23200
C 	C 	0.24682 0.59272 0.79356 -0.17400
C 	C 	0.20123 0.62063 0.76794 -0.00400
C 	C 	0.15498 0.35678 0.08184 0.00000
C 	C 	0.14718 0.38668 0.04264 0.00200
C 	C 	0.25893 0.36143 0.03694 0.11100
C 	C 	0.23288 0.41708 0.96824 0.04200
C 	C 	0.19308 0.46878 0.94884 0.00200
C 	C 	0.21012 0.49282 0.90436 -0.18500
C 	C 	0.26748 0.46538 0.88004 0.23900
C 	C 	0.30726 0.41496 0.89948 -0.18700
C 	C 	0.29057 0.38997 0.94326 0.00000
C 	C 	0.18803 0.85423 0.63654 0.30900
C 	C 	0.25601 0.89461 0.63578 -0.06200
C 	C 	0.25910 0.92130 0.66940 -0.02600
C 	C 	0.31769 0.90649 0.60122 -0.02500
C 	C 	0.45221 0.01351 0.63158 0.31600
C 	C 	0.38404 0.97204 0.63312 -0.06700
C 	C 	0.38158 0.94398 0.60004 -0.02400
C 	C 	0.32268 0.96001 0.66818 -0.02200
C 	C 	0.12104 0.27784 0.20952 0.00200
C 	C 	0.07822 0.22582 0.24196 0.00800
C 	C 	0.16161 0.17571 0.20318 0.09900
C 	C 	0.07399 0.08579 0.26522 0.04400
C 	C 	0.00117 0.07377 0.28766 -0.00200
C 	C 	0.97290 0.00160 0.31260 -0.18600
C 	C 	0.01754 0.94604 0.31432 0.23500
C 	C 	0.09272 0.95962 0.29356 -0.17900
C 	C 	0.12063 0.03083 0.26794 0.00200
C 	C 	0.85678 0.76318 0.58184 0.00000
C 	C 	0.88668 0.81018 0.54264 0.00200
C 	C 	0.86143 0.70413 0.53694 0.11100
C 	C 	0.91708 0.79888 0.46824 0.04300
C 	C 	0.96878 0.85808 0.44884 -0.00000
C 	C 	0.99282 0.88552 0.40436 -0.18100
C 	C 	0.96538 0.85248 0.38004 0.23800
C 	C 	0.91496 0.79326 0.39948 -0.18600
C 	C 	0.88997 0.76617 0.44326 -0.00100
C 	C 	0.35423 0.17543 0.13654 0.30800
C 	C 	0.39461 0.10821 0.13578 -0.06100
C 	C 	0.42130 0.07150 0.16940 -0.02700
C 	C 	0.40649 0.08109 0.10122 -0.02600
C 	C 	0.51351 0.91621 0.13158 0.31700
C 	C 	0.47204 0.98284 0.13312 -0.06900
C 	C 	0.44398 0.01838 0.10004 -0.02200
C 	C 	0.46001 0.00914 0.16818 -0.02000
C 	C 	0.16944 0.51264 0.20952 0.00200
C 	C 	0.17982 0.53222 0.24196 0.00800
C 	C 	0.13521 0.62111 0.20318 0.09900
C 	C 	0.16079 0.64899 0.26522 0.04800
C 	C 	0.21117 0.63857 0.28766 -0.01000
C 	C 	0.21450 0.68580 0.31260 -0.17700
C 	C 	0.16814 0.73964 0.31432 0.23100
C 	C 	0.11372 0.74682 0.29356 -0.17400
C 	C 	0.11143 0.70123 0.26794 -0.00400
C 	C 	0.06138 0.65498 0.58184 0.00000
C 	C 	0.07068 0.64718 0.54264 0.00200
C 	C 	0.10163 0.75893 0.53694 0.11100
C 	C 	0.11468 0.73288 0.46824 0.04200
C 	C 	0.08238 0.69308 0.44884 0.00200
C 	C 	0.10282 0.71012 0.40436 -0.18500
C 	C 	0.15458 0.76748 0.38004 0.23900
C 	C 	0.18556 0.80726 0.39948 -0.18700
C 	C 	0.16677 0.79057 0.44326 0.00000
C 	C 	0.00923 0.68803 0.13654 0.30700
C 	C 	0.96961 0.75601 0.13578 -0.06300
C 	C 	0.90930 0.75910 0.16940 -0.02500
C 	C 	0.99229 0.81769 0.10122 -0.02200
C 	C 	0.85491 0.95221 0.13158 0.31700
C 	C 	0.89484 0.88404 0.13312 -0.06600
C 	C 	0.95598 0.88158 0.10004 -0.02500
C 	C 	0.87181 0.82268 0.16818 -0.02300
C 	C 	0.51264 0.16944 0.70952 0.00200
C 	C 	0.53222 0.17982 0.74196 0.00800
C 	C 	0.62111 0.13521 0.70318 0.09900
C 	C 	0.64899 0.16079 0.76522 0.04800
C 	C 	0.63857 0.21117 0.78766 -0.01000
C 	C 	0.68580 0.21450 0.81260 -0.17700
C 	C 	0.73964 0.16814 0.81432 0.23100
C 	C 	0.74682 0.11372 0.79356 -0.17400
C 	C 	0.70123 0.11143 0.76794 -0.00400
C 	C 	0.65498 0.06138 0.08184 0.00000
C 	C 	0.64718 0.07068 0.04264 0.00200
C 	C 	0.75893 0.10163 0.03694 0.11100
C 	C 	0.73288 0.11468 0.96824 0.04100
C 	C 	0.69308 0.08238 0.94884 0.00200
C 	C 	0.71012 0.10282 0.90436 -0.18600
C 	C 	0.76748 0.15458 0.88004 0.24000
C 	C 	0.80726 0.18556 0.89948 -0.18800
C 	C 	0.79057 0.16677 0.94326 0.00100
C 	C 	0.68803 0.00923 0.63654 0.30800
C 	C 	0.75601 0.96961 0.63578 -0.06200
C 	C 	0.75910 0.90930 0.66940 -0.02500
C 	C 	0.81769 0.99229 0.60122 -0.02300
C 	C 	0.95221 0.85491 0.63158 0.31700
C 	C 	0.88404 0.89484 0.63312 -0.06700
C 	C 	0.88158 0.95598 0.60004 -0.02500
C 	C 	0.82268 0.87181 0.66818 -0.02200
C 	C 	0.27784 0.12104 0.70952 0.00200
C 	C 	0.22582 0.07822 0.74196 0.00800
C 	C 	0.17571 0.16161 0.70318 0.09900
C 	C 	0.08579 0.07399 0.76522 0.04400
C 	C 	0.07377 0.00117 0.78766 -0.00300
C 	C 	0.00160 0.97290 0.81260 -0.18400
C 	C 	0.94604 0.01754 0.81432 0.23400
C 	C 	0.95962 0.09272 0.79356 -0.17900
C 	C 	0.03083 0.12063 0.76794 0.00200
C 	C 	0.76318 0.85678 0.08184 0.00000
C 	C 	0.81018 0.88668 0.04264 0.00200
C 	C 	0.70413 0.86143 0.03694 0.11100
C 	C 	0.79888 0.91708 0.96824 0.04400
C 	C 	0.85808 0.96878 0.94884 -0.00100
C 	C 	0.88552 0.99282 0.90436 -0.18000
C 	C 	0.85248 0.96538 0.88004 0.23700
C 	C 	0.79326 0.91496 0.89948 -0.18500
C 	C 	0.76617 0.88997 0.94326 -0.00200
C 	C 	0.17543 0.35423 0.63654 0.30900
C 	C 	0.10821 0.39461 0.63578 -0.06200
C 	C 	0.07150 0.42130 0.66940 -0.02600
C 	C 	0.08109 0.40649 0.60122 -0.02500
C 	C 	0.91621 0.51351 0.63158 0.31600
C 	C 	0.98284 0.47204 0.63312 -0.06800
C 	C 	0.01838 0.44398 0.60004 -0.02300
C 	C 	0.00914 0.46001 0.66818 -0.02100
C 	C 	0.66944 0.77784 0.20952 0.00200
C 	C 	0.67982 0.72582 0.24196 0.00800
C 	C 	0.63521 0.67571 0.20318 0.09900
C 	C 	0.66079 0.58579 0.26522 0.04800
C 	C 	0.71117 0.57377 0.28766 -0.01000
C 	C 	0.71450 0.50160 0.31260 -0.17700
C 	C 	0.66814 0.44604 0.31432 0.23200
C 	C 	0.61372 0.45962 0.29356 -0.17400
C 	C 	0.61143 0.53083 0.26794 -0.00400
C 	C 	0.56138 0.26318 0.58184 0.00000
C 	C 	0.57068 0.31018 0.54264 0.00200
C 	C 	0.60163 0.20413 0.53694 0.11100
C 	C 	0.61468 0.29888 0.46824 0.04200
C 	C 	0.58238 0.35808 0.44884 0.00200
C 	C 	0.60282 0.38552 0.40436 -0.18500
C 	C 	0.65458 0.35248 0.38004 0.24000
C 	C 	0.68556 0.29326 0.39948 -0.18700
C 	C 	0.66677 0.26617 0.44326 0.00000
C 	C 	0.50923 0.67543 0.13654 0.30900
C 	C 	0.46961 0.60821 0.13578 -0.06200
C 	C 	0.40930 0.57150 0.16940 -0.02500
C 	C 	0.49229 0.58109 0.10122 -0.02500
C 	C 	0.35491 0.41621 0.13158 0.31600
C 	C 	0.39484 0.48284 0.13312 -0.06700
C 	C 	0.45598 0.51838 0.10004 -0.02400
C 	C 	0.37181 0.50914 0.16818 -0.02200
C 	C 	0.62104 0.01264 0.20952 0.00100
C 	C 	0.57822 0.03222 0.24196 0.00800
C 	C 	0.66161 0.12111 0.20318 0.09900
C 	C 	0.57399 0.14899 0.26522 0.04800
C 	C 	0.50117 0.13857 0.28766 -0.01000
C 	C 	0.47290 0.18580 0.31260 -0.17700
C 	C 	0.51754 0.23964 0.31432 0.23200
C 	C 	0.59272 0.24682 0.29356 -0.17400
C 	C 	0.62063 0.20123 0.26794 -0.00400
C 	C 	0.35678 0.15498 0.58184 0.00000
C 	C 	0.38668 0.14718 0.54264 0.00200
C 	C 	0.36143 0.25893 0.53694 0.11100
C 	C 	0.41708 0.23288 0.46824 0.04200
C 	C 	0.46878 0.19308 0.44884 0.00200
C 	C 	0.49282 0.21012 0.40436 -0.18500
C 	C 	0.46538 0.26748 0.38004 0.24000
C 	C 	0.41496 0.30726 0.39948 -0.18700
C 	C 	0.38997 0.29057 0.44326 0.00000
C 	C 	0.85423 0.18803 0.13654 0.30900
C 	C 	0.89461 0.25601 0.13578 -0.06300
C 	C 	0.92130 0.25910 0.16940 -0.02500
C 	C 	0.90649 0.31769 0.10122 -0.02500
C 	C 	0.01351 0.45221 0.13158 0.31600
C 	C 	0.97204 0.38404 0.13312 -0.06700
C 	C 	0.94398 0.38158 0.10004 -0.02400
C 	C 	0.96001 0.32268 0.16818 -0.02300
N 	N 	0.74665 0.64185 0.68450 -0.23600
N 	N 	0.65958 0.65919 0.73798 -0.12900
N 	N 	0.19575 0.57925 0.07770 -0.24600
N 	N 	0.27164 0.59384 0.01332 -0.13300
N 	N 	0.06885 0.67365 0.68450 -0.23600
N 	N 	0.10244 0.60283 0.73798 -0.12900
N 	N 	0.22655 0.34305 0.07770 -0.24600
N 	N 	0.21504 0.39284 0.01332 -0.13200
N 	N 	0.17365 0.24665 0.18450 -0.23600
N 	N 	0.10283 0.15958 0.23798 -0.12800
N 	N 	0.84305 0.69575 0.57770 -0.24600
N 	N 	0.89284 0.77164 0.51332 -0.13300
N 	N 	0.14185 0.56885 0.18450 -0.23600
N 	N 	0.15919 0.60244 0.23798 -0.12900
N 	N 	0.07925 0.72655 0.57770 -0.24600
N 	N 	0.09384 0.71504 0.51332 -0.13200
N 	N 	0.56885 0.14185 0.68450 -0.23600
N 	N 	0.60244 0.15919 0.73798 -0.12900
N 	N 	0.72655 0.07925 0.07770 -0.24600
N 	N 	0.71504 0.09384 0.01332 -0.13200
N 	N 	0.24665 0.17365 0.68450 -0.23600
N 	N 	0.15958 0.10283 0.73798 -0.12900
N 	N 	0.69575 0.84305 0.07770 -0.24600
N 	N 	0.77164 0.89284 0.01332 -0.13300
N 	N 	0.64185 0.74665 0.18450 -0.23600
N 	N 	0.65919 0.65958 0.23798 -0.12900
N 	N 	0.57925 0.19575 0.57770 -0.24600
N 	N 	0.59384 0.27164 0.51332 -0.13200
N 	N 	0.67365 0.06885 0.18450 -0.23600
N 	N 	0.60283 0.10244 0.23798 -0.12900
N 	N 	0.34305 0.22655 0.57770 -0.24600
N 	N 	0.39284 0.21504 0.51332 -0.13200
O 	O 	0.69780 0.48983 0.66868 -0.36200
O 	O 	0.70745 0.56298 0.60470 -0.40200
O 	O 	0.39120 0.29474 0.65956 -0.40000
O 	O 	0.38835 0.38055 0.60234 -0.37900
O 	O 	0.37352 0.67407 0.83586 -0.28700
O 	O 	0.13352 0.84149 0.66868 -0.36200
O 	O 	0.18785 0.83232 0.60470 -0.40200
O 	O 	0.44924 0.04570 0.65956 -0.40000
O 	O 	0.50931 0.01711 0.60234 -0.37900
O 	O 	0.29062 0.49007 0.83586 -0.28700
O 	O 	0.34149 0.19780 0.16868 -0.36200
O 	O 	0.33232 0.20745 0.10470 -0.40200
O 	O 	0.54570 0.89120 0.15956 -0.40000
O 	O 	0.51711 0.88835 0.10234 -0.38000
O 	O 	0.99007 0.87352 0.33586 -0.28700
O 	O 	0.98983 0.63352 0.16868 -0.36200
O 	O 	0.06298 0.68785 0.10470 -0.40200
O 	O 	0.79474 0.94924 0.15956 -0.40000
O 	O 	0.88055 0.00931 0.10234 -0.38000
O 	O 	0.17407 0.79062 0.33586 -0.28700
O 	O 	0.63352 0.98983 0.66868 -0.36200
O 	O 	0.68785 0.06298 0.60470 -0.40200
O 	O 	0.94924 0.79474 0.65956 -0.40000
O 	O 	0.00931 0.88055 0.60234 -0.38000
O 	O 	0.79062 0.17407 0.83586 -0.28700
O 	O 	0.19780 0.34149 0.66868 -0.36200
O 	O 	0.20745 0.33232 0.60470 -0.40200
O 	O 	0.89120 0.54570 0.65956 -0.40000
O 	O 	0.88835 0.51711 0.60234 -0.37900
O 	O 	0.87352 0.99007 0.83586 -0.28600
O 	O 	0.48983 0.69780 0.16868 -0.36200
O 	O 	0.56298 0.70745 0.10470 -0.40200
O 	O 	0.29474 0.39120 0.15956 -0.40000
O 	O 	0.38055 0.38835 0.10234 -0.37900
O 	O 	0.67407 0.37352 0.33586 -0.28700
O 	O 	0.84149 0.13352 0.16868 -0.36200
O 	O 	0.83232 0.18785 0.10470 -0.40200
O 	O 	0.04570 0.44924 0.15956 -0.40000
O 	O 	0.01711 0.50931 0.10234 -0.38000
O 	O 	0.49007 0.29062 0.33586 -0.28700
