data_crystal

_cell_length_a 18.38630
_cell_length_b 18.38630
_cell_length_c 33.58590
_cell_angle_alpha 105.88600
_cell_angle_beta  105.88600
_cell_angle_gamma 90.00010

_symmetry_space_group_name_	'P 1'
_symmetry_space_group_name_H-M	'P 1'

loop_
_symmetry_equiv_pos_as_xyz
  x,y,z

loop_
_atom_site_label
_atom_site_type_symbol
_atom_site_fract_x
_atom_site_fract_y
_atom_site_fract_z
_atom_site_charge
Zn	Zn	0.22919 0.42244 0.13460 1.21200
Zn	Zn	0.40541 0.71216 0.13460 1.21200
Zn	Zn	0.42244 0.40541 0.63460 1.21200
Zn	Zn	0.71216 0.22919 0.63460 1.21200
Zn	Zn	0.90541 0.92244 0.13460 1.21200
Zn	Zn	0.72919 0.21216 0.13460 1.21200
Zn	Zn	0.21216 0.90541 0.63460 1.21200
Zn	Zn	0.92244 0.72919 0.63460 1.21200
H 	H 	0.37960 0.53150 0.20360 0.01900
H 	H 	0.46150 0.49600 0.26480 0.03900
H 	H 	0.31350 0.32280 0.19220 -0.00400
H 	H 	0.53700 0.39250 0.28480 0.06100
H 	H 	0.58580 0.31790 0.33060 0.09800
H 	H 	0.32990 0.29100 0.25960 0.04300
H 	H 	0.37960 0.21250 0.30200 0.11200
H 	H 	0.65680 0.38050 0.61400 0.01300
H 	H 	0.58730 0.38980 0.54120 0.03700
H 	H 	0.66220 0.18980 0.53140 -0.01400
H 	H 	0.66200 0.18270 0.46320 0.04000
H 	H 	0.61850 0.15150 0.38880 0.09400
H 	H 	0.51460 0.34490 0.47140 0.04000
H 	H 	0.47640 0.31800 0.39740 0.09900
H 	H 	0.08030 0.27310 0.20200 0.06000
H 	H 	0.01400 0.15950 0.19140 0.04900
H 	H 	0.11660 0.19380 0.08580 0.05400
H 	H 	0.05420 0.07730 0.07620 0.04700
H 	H 	0.32400 0.67210 0.20360 0.01800
H 	H 	0.30330 0.76880 0.26480 0.03800
H 	H 	0.37870 0.86940 0.19220 -0.00400
H 	H 	0.24780 0.89230 0.28480 0.06000
H 	H 	0.24480 0.01270 0.33060 0.09900
H 	H 	0.42970 0.96860 0.25960 0.04300
H 	H 	0.42240 0.08950 0.30200 0.11200
H 	H 	0.45720 0.23350 0.61400 0.01300
H 	H 	0.45390 0.15140 0.54120 0.03700
H 	H 	0.36920 0.34160 0.53140 -0.01400
H 	H 	0.30120 0.28050 0.46320 0.04000
H 	H 	0.27030 0.23730 0.38880 0.09400
H 	H 	0.45680 0.12650 0.47140 0.04000
H 	H 	0.42100 0.07940 0.39740 0.09900
H 	H 	0.62170 0.92890 0.20200 0.06000
H 	H 	0.67740 0.03190 0.19140 0.05000
H 	H 	0.46920 0.89200 0.08580 0.05400
H 	H 	0.52200 0.99890 0.07620 0.04800
H 	H 	0.53150 0.32400 0.70360 0.01800
H 	H 	0.49600 0.30330 0.76480 0.03800
H 	H 	0.32280 0.37870 0.69220 -0.00400
H 	H 	0.39250 0.24780 0.78480 0.06100
H 	H 	0.31790 0.24480 0.83060 0.09800
H 	H 	0.29100 0.42970 0.75960 0.04300
H 	H 	0.21250 0.42240 0.80200 0.11200
H 	H 	0.38050 0.45720 0.11400 0.01300
H 	H 	0.38980 0.45390 0.04120 0.03700
H 	H 	0.18980 0.36920 0.03140 -0.01400
H 	H 	0.18270 0.30120 0.96320 0.04000
H 	H 	0.15150 0.27030 0.88880 0.09400
H 	H 	0.34490 0.45680 0.97140 0.04000
H 	H 	0.31800 0.42100 0.89740 0.09900
H 	H 	0.27310 0.62170 0.70200 0.06000
H 	H 	0.15950 0.67740 0.69140 0.05000
H 	H 	0.19380 0.46920 0.58580 0.05400
H 	H 	0.07730 0.52200 0.57620 0.04800
H 	H 	0.67210 0.37960 0.70360 0.01800
H 	H 	0.76880 0.46150 0.76480 0.03800
H 	H 	0.86940 0.31350 0.69220 -0.00400
H 	H 	0.89230 0.53700 0.78480 0.06000
H 	H 	0.01270 0.58580 0.83060 0.09800
H 	H 	0.96860 0.32990 0.75960 0.04300
H 	H 	0.08950 0.37960 0.80200 0.11200
H 	H 	0.23350 0.65680 0.11400 0.01300
H 	H 	0.15140 0.58730 0.04120 0.03700
H 	H 	0.34160 0.66220 0.03140 -0.01400
H 	H 	0.28050 0.66200 0.96320 0.04000
H 	H 	0.23730 0.61850 0.88880 0.09400
H 	H 	0.12650 0.51460 0.97140 0.04000
H 	H 	0.07940 0.47640 0.89740 0.09900
H 	H 	0.92890 0.08030 0.70200 0.06000
H 	H 	0.03190 0.01400 0.69140 0.05000
H 	H 	0.89200 0.11660 0.58580 0.05400
H 	H 	0.99890 0.05420 0.57620 0.04700
H 	H 	0.82400 0.03150 0.20360 0.01900
H 	H 	0.80330 0.99600 0.26480 0.03700
H 	H 	0.87870 0.82280 0.19220 -0.00400
H 	H 	0.74780 0.89250 0.28480 0.06100
H 	H 	0.74480 0.81790 0.33060 0.09800
H 	H 	0.92970 0.79100 0.25960 0.04300
H 	H 	0.92240 0.71250 0.30200 0.11100
H 	H 	0.95720 0.88050 0.61400 0.01300
H 	H 	0.95390 0.88980 0.54120 0.03700
H 	H 	0.86920 0.68980 0.53140 -0.01400
H 	H 	0.80120 0.68270 0.46320 0.04000
H 	H 	0.77030 0.65150 0.38880 0.09400
H 	H 	0.95680 0.84490 0.47140 0.04000
H 	H 	0.92100 0.81800 0.39740 0.09800
H 	H 	0.12170 0.77310 0.20200 0.05900
H 	H 	0.17740 0.65950 0.19140 0.05000
H 	H 	0.96920 0.69380 0.08580 0.05300
H 	H 	0.02200 0.57730 0.07620 0.04800
H 	H 	0.87960 0.17210 0.20360 0.01800
H 	H 	0.96150 0.26880 0.26480 0.03800
H 	H 	0.81350 0.36940 0.19220 -0.00400
H 	H 	0.03700 0.39230 0.28480 0.06100
H 	H 	0.08580 0.51270 0.33060 0.09800
H 	H 	0.82990 0.46860 0.25960 0.04400
H 	H 	0.87960 0.58950 0.30200 0.11100
H 	H 	0.15680 0.73350 0.61400 0.01300
H 	H 	0.08730 0.65140 0.54120 0.03700
H 	H 	0.16220 0.84160 0.53140 -0.01400
H 	H 	0.16200 0.78050 0.46320 0.04000
H 	H 	0.11850 0.73730 0.38880 0.09400
H 	H 	0.01460 0.62650 0.47140 0.04000
H 	H 	0.97640 0.57940 0.39740 0.09800
H 	H 	0.58030 0.42890 0.20200 0.06000
H 	H 	0.51400 0.53190 0.19140 0.05000
H 	H 	0.61660 0.39200 0.08580 0.05400
H 	H 	0.55420 0.49890 0.07620 0.04800
H 	H 	0.17210 0.82400 0.70360 0.01800
H 	H 	0.26880 0.80330 0.76480 0.03800
H 	H 	0.36940 0.87870 0.69220 -0.00400
H 	H 	0.39230 0.74780 0.78480 0.06100
H 	H 	0.51270 0.74480 0.83060 0.09800
H 	H 	0.46860 0.92970 0.75960 0.04300
H 	H 	0.58950 0.92240 0.80200 0.11100
H 	H 	0.73350 0.95720 0.11400 0.01300
H 	H 	0.65140 0.95390 0.04120 0.03700
H 	H 	0.84160 0.86920 0.03140 -0.01400
H 	H 	0.78050 0.80120 0.96320 0.03900
H 	H 	0.73730 0.77030 0.88880 0.09400
H 	H 	0.62650 0.95680 0.97140 0.04000
H 	H 	0.57940 0.92100 0.89740 0.09900
H 	H 	0.42890 0.12170 0.70200 0.06000
H 	H 	0.53190 0.17740 0.69140 0.05000
H 	H 	0.39200 0.96920 0.58580 0.05400
H 	H 	0.49890 0.02200 0.57620 0.04700
H 	H 	0.03150 0.87960 0.70360 0.01900
H 	H 	0.99600 0.96150 0.76480 0.03700
H 	H 	0.82280 0.81350 0.69220 -0.00400
H 	H 	0.89250 0.03700 0.78480 0.06100
H 	H 	0.81790 0.08580 0.83060 0.09800
H 	H 	0.79100 0.82990 0.75960 0.04400
H 	H 	0.71250 0.87960 0.80200 0.11100
H 	H 	0.88050 0.15680 0.11400 0.01400
H 	H 	0.88980 0.08730 0.04120 0.03700
H 	H 	0.68980 0.16220 0.03140 -0.01400
H 	H 	0.68270 0.16200 0.96320 0.04000
H 	H 	0.65150 0.11850 0.88880 0.09400
H 	H 	0.84490 0.01460 0.97140 0.04100
H 	H 	0.81800 0.97640 0.89740 0.09700
H 	H 	0.77310 0.58030 0.70200 0.06000
H 	H 	0.65950 0.51400 0.69140 0.05000
H 	H 	0.69380 0.61660 0.58580 0.05400
H 	H 	0.57730 0.55420 0.57620 0.04800
C 	C 	0.37599 0.48389 0.20918 0.01100
C 	C 	0.42118 0.46468 0.24236 0.00300
C 	C 	0.34030 0.37150 0.20280 0.10700
C 	C 	0.42892 0.34732 0.26684 0.05200
C 	C 	0.50458 0.35608 0.28836 -0.01700
C 	C 	0.53345 0.31165 0.31510 -0.15900
C 	C 	0.38290 0.29530 0.27320 -0.00000
C 	C 	0.41143 0.24973 0.29866 -0.17500
C 	C 	0.48641 0.25911 0.31902 0.22500
C 	C 	0.54304 0.23244 0.38608 0.21600
C 	C 	0.64802 0.34092 0.58784 0.01300
C 	C 	0.61155 0.34715 0.54770 0.00400
C 	C 	0.65098 0.24008 0.54336 0.12300
C 	C 	0.59244 0.26614 0.47408 0.04900
C 	C 	0.62325 0.20955 0.44970 -0.01500
C 	C 	0.59828 0.19178 0.40596 -0.15700
C 	C 	0.53656 0.30606 0.45432 -0.00300
C 	C 	0.51349 0.28959 0.41078 -0.16600
C 	C 	0.14973 0.31693 0.15206 0.32400
C 	C 	0.10470 0.24380 0.14480 -0.05800
C 	C 	0.07446 0.23346 0.17612 -0.03100
C 	C 	0.03573 0.16573 0.16986 -0.01100
C 	C 	0.09643 0.18633 0.10766 -0.02600
C 	C 	0.05863 0.11733 0.10186 -0.01700
C 	C 	0.02744 0.10624 0.13308 -0.07500
C 	C 	0.98761 0.03181 0.12702 0.32200
C 	C 	0.33319 0.72529 0.20918 0.01100
C 	C 	0.32118 0.77768 0.24236 0.00300
C 	C 	0.36250 0.83130 0.20280 0.10700
C 	C 	0.33792 0.91952 0.26684 0.05100
C 	C 	0.28378 0.93228 0.28836 -0.01500
C 	C 	0.28165 0.00345 0.31510 -0.16100
C 	C 	0.39030 0.97790 0.27320 0.00100
C 	C 	0.38723 0.04893 0.29866 -0.17700
C 	C 	0.33261 0.05991 0.31902 0.22600
C 	C 	0.34304 0.15364 0.38608 0.21600
C 	C 	0.43982 0.24692 0.58784 0.01300
C 	C 	0.43615 0.20055 0.54770 0.00400
C 	C 	0.39238 0.30328 0.54336 0.12300
C 	C 	0.38164 0.20794 0.47408 0.04900
C 	C 	0.32645 0.24015 0.44970 -0.01400
C 	C 	0.30768 0.21418 0.40596 -0.15700
C 	C 	0.41776 0.14826 0.45432 -0.00300
C 	C 	0.39729 0.12119 0.41078 -0.16600
C 	C 	0.50233 0.83513 0.15206 0.32400
C 	C 	0.54010 0.90100 0.14480 -0.05900
C 	C 	0.60166 0.94266 0.17612 -0.03000
C 	C 	0.63413 0.00413 0.16986 -0.01200
C 	C 	0.51123 0.92133 0.10766 -0.02500
C 	C 	0.54323 0.98453 0.10186 -0.01800
C 	C 	0.60564 0.02684 0.13308 -0.07300
C 	C 	0.63941 0.09521 0.12702 0.31900
C 	C 	0.48389 0.33319 0.70918 0.01100
C 	C 	0.46468 0.32118 0.74236 0.00300
C 	C 	0.37150 0.36250 0.70280 0.10700
C 	C 	0.34732 0.33792 0.76684 0.05200
C 	C 	0.35608 0.28378 0.78836 -0.01700
C 	C 	0.31165 0.28165 0.81510 -0.15900
C 	C 	0.29530 0.39030 0.77320 -0.00000
C 	C 	0.24973 0.38723 0.79866 -0.17500
C 	C 	0.25911 0.33261 0.81902 0.22500
C 	C 	0.23244 0.34304 0.88608 0.21600
C 	C 	0.34092 0.43982 0.08784 0.01300
C 	C 	0.34715 0.43615 0.04770 0.00400
C 	C 	0.24008 0.39238 0.04336 0.12300
C 	C 	0.26614 0.38164 0.97408 0.04900
C 	C 	0.20955 0.32645 0.94970 -0.01400
C 	C 	0.19178 0.30768 0.90596 -0.15700
C 	C 	0.30606 0.41776 0.95432 -0.00300
C 	C 	0.28959 0.39729 0.91078 -0.16600
C 	C 	0.31693 0.50233 0.65206 0.32400
C 	C 	0.24380 0.54010 0.64480 -0.05900
C 	C 	0.23346 0.60166 0.67612 -0.03000
C 	C 	0.16573 0.63413 0.66986 -0.01200
C 	C 	0.18633 0.51123 0.60766 -0.02500
C 	C 	0.11733 0.54323 0.60186 -0.01800
C 	C 	0.10624 0.60564 0.63308 -0.07300
C 	C 	0.03181 0.63941 0.62702 0.32000
C 	C 	0.72529 0.37599 0.70918 0.01100
C 	C 	0.77768 0.42118 0.74236 0.00300
C 	C 	0.83130 0.34030 0.70280 0.10700
C 	C 	0.91952 0.42892 0.76684 0.05100
C 	C 	0.93228 0.50458 0.78836 -0.01700
C 	C 	0.00345 0.53345 0.81510 -0.16000
C 	C 	0.97790 0.38290 0.77320 0.00000
C 	C 	0.04893 0.41143 0.79866 -0.17600
C 	C 	0.05991 0.48641 0.81902 0.22500
C 	C 	0.15364 0.54304 0.88608 0.21600
C 	C 	0.24692 0.64802 0.08784 0.01300
C 	C 	0.20055 0.61155 0.04770 0.00400
C 	C 	0.30328 0.65098 0.04336 0.12300
C 	C 	0.20794 0.59244 0.97408 0.04900
C 	C 	0.24015 0.62325 0.94970 -0.01400
C 	C 	0.21418 0.59828 0.90596 -0.15700
C 	C 	0.14826 0.53656 0.95432 -0.00300
C 	C 	0.12119 0.51349 0.91078 -0.16600
C 	C 	0.83513 0.14973 0.65206 0.32400
C 	C 	0.90100 0.10470 0.64480 -0.05900
C 	C 	0.94266 0.07446 0.67612 -0.02800
C 	C 	0.00413 0.03573 0.66986 -0.01300
C 	C 	0.92133 0.09643 0.60766 -0.02500
C 	C 	0.98453 0.05863 0.60186 -0.01600
C 	C 	0.02684 0.02744 0.63308 -0.07500
C 	C 	0.09521 0.98761 0.62702 0.32100
C 	C 	0.83319 0.98389 0.20918 0.00900
C 	C 	0.82118 0.96468 0.24236 0.00400
C 	C 	0.86250 0.87150 0.20280 0.10700
C 	C 	0.83792 0.84732 0.26684 0.05200
C 	C 	0.78378 0.85608 0.28836 -0.01700
C 	C 	0.78165 0.81165 0.31510 -0.15900
C 	C 	0.89030 0.79530 0.27320 -0.00000
C 	C 	0.88723 0.74973 0.29866 -0.17500
C 	C 	0.83261 0.75911 0.31902 0.22500
C 	C 	0.84304 0.73244 0.38608 0.21600
C 	C 	0.93982 0.84092 0.58784 0.01300
C 	C 	0.93615 0.84715 0.54770 0.00400
C 	C 	0.89238 0.74008 0.54336 0.12300
C 	C 	0.88164 0.76614 0.47408 0.04900
C 	C 	0.82645 0.70955 0.44970 -0.01500
C 	C 	0.80768 0.69178 0.40596 -0.15700
C 	C 	0.91776 0.80606 0.45432 -0.00300
C 	C 	0.89729 0.78959 0.41078 -0.16600
C 	C 	0.00233 0.81693 0.15206 0.32600
C 	C 	0.04010 0.74380 0.14480 -0.06000
C 	C 	0.10166 0.73346 0.17612 -0.02900
C 	C 	0.13413 0.66573 0.16986 -0.01300
C 	C 	0.01123 0.68633 0.10766 -0.02300
C 	C 	0.04323 0.61733 0.10186 -0.01900
C 	C 	0.10564 0.60624 0.13308 -0.07200
C 	C 	0.13941 0.53181 0.12702 0.31900
C 	C 	0.87599 0.22529 0.20918 0.01100
C 	C 	0.92118 0.27768 0.24236 0.00300
C 	C 	0.84030 0.33130 0.20280 0.10700
C 	C 	0.92892 0.41952 0.26684 0.05200
C 	C 	0.00458 0.43228 0.28836 -0.01800
C 	C 	0.03345 0.50345 0.31510 -0.15800
C 	C 	0.88290 0.47790 0.27320 -0.00100
C 	C 	0.91143 0.54893 0.29866 -0.17500
C 	C 	0.98641 0.55991 0.31902 0.22400
C 	C 	0.04304 0.65364 0.38608 0.21600
C 	C 	0.14802 0.74692 0.58784 0.01300
C 	C 	0.11155 0.70055 0.54770 0.00400
C 	C 	0.15098 0.80328 0.54336 0.12300
C 	C 	0.09244 0.70794 0.47408 0.05000
C 	C 	0.12325 0.74015 0.44970 -0.01500
C 	C 	0.09828 0.71418 0.40596 -0.15600
C 	C 	0.03656 0.64826 0.45432 -0.00400
C 	C 	0.01349 0.62119 0.41078 -0.16500
C 	C 	0.64973 0.33513 0.15206 0.32400
C 	C 	0.60470 0.40100 0.14480 -0.05900
C 	C 	0.57446 0.44266 0.17612 -0.02900
C 	C 	0.53573 0.50413 0.16986 -0.01200
C 	C 	0.59643 0.42133 0.10766 -0.02400
C 	C 	0.55863 0.48453 0.10186 -0.01800
C 	C 	0.52744 0.52684 0.13308 -0.07300
C 	C 	0.48761 0.59521 0.12702 0.31900
C 	C 	0.22529 0.83319 0.70918 0.01100
C 	C 	0.27768 0.82118 0.74236 0.00300
C 	C 	0.33130 0.86250 0.70280 0.10700
C 	C 	0.41952 0.83792 0.76684 0.05200
C 	C 	0.43228 0.78378 0.78836 -0.01700
C 	C 	0.50345 0.78165 0.81510 -0.15900
C 	C 	0.47790 0.89030 0.77320 -0.00100
C 	C 	0.54893 0.88723 0.79866 -0.17500
C 	C 	0.55991 0.83261 0.81902 0.22500
C 	C 	0.65364 0.84304 0.88608 0.21600
C 	C 	0.74692 0.93982 0.08784 0.01300
C 	C 	0.70055 0.93615 0.04770 0.00400
C 	C 	0.80328 0.89238 0.04336 0.12300
C 	C 	0.70794 0.88164 0.97408 0.04900
C 	C 	0.74015 0.82645 0.94970 -0.01400
C 	C 	0.71418 0.80768 0.90596 -0.15700
C 	C 	0.64826 0.91776 0.95432 -0.00300
C 	C 	0.62119 0.89729 0.91078 -0.16600
C 	C 	0.33513 0.00233 0.65206 0.32300
C 	C 	0.40100 0.04010 0.64480 -0.05900
C 	C 	0.44266 0.10166 0.67612 -0.03000
C 	C 	0.50413 0.13413 0.66986 -0.01200
C 	C 	0.42133 0.01123 0.60766 -0.02600
C 	C 	0.48453 0.04323 0.60186 -0.01800
C 	C 	0.52684 0.10564 0.63308 -0.07300
C 	C 	0.59521 0.13941 0.62702 0.31900
C 	C 	0.98389 0.87599 0.70918 0.00900
C 	C 	0.96468 0.92118 0.74236 0.00400
C 	C 	0.87150 0.84030 0.70280 0.10700
C 	C 	0.84732 0.92892 0.76684 0.05100
C 	C 	0.85608 0.00458 0.78836 -0.01700
C 	C 	0.81165 0.03345 0.81510 -0.15800
C 	C 	0.79530 0.88290 0.77320 -0.00100
C 	C 	0.74973 0.91143 0.79866 -0.17400
C 	C 	0.75911 0.98641 0.81902 0.22300
C 	C 	0.73244 0.04304 0.88608 0.21400
C 	C 	0.84092 0.14802 0.08784 0.01300
C 	C 	0.84715 0.11155 0.04770 0.00400
C 	C 	0.74008 0.15098 0.04336 0.12300
C 	C 	0.76614 0.09244 0.97408 0.05100
C 	C 	0.70955 0.12325 0.94970 -0.01600
C 	C 	0.69178 0.09828 0.90596 -0.15500
C 	C 	0.80606 0.03656 0.95432 -0.00500
C 	C 	0.78959 0.01349 0.91078 -0.16300
C 	C 	0.81693 0.64973 0.65206 0.32400
C 	C 	0.74380 0.60470 0.64480 -0.05900
C 	C 	0.73346 0.57446 0.67612 -0.02900
C 	C 	0.66573 0.53573 0.66986 -0.01200
C 	C 	0.68633 0.59643 0.60766 -0.02400
C 	C 	0.61733 0.55863 0.60186 -0.01800
C 	C 	0.60624 0.52744 0.63308 -0.07300
C 	C 	0.53181 0.48761 0.62702 0.31900
N 	N 	0.32398 0.42528 0.18436 -0.25900
N 	N 	0.39889 0.39219 0.23818 -0.13000
N 	N 	0.66917 0.27187 0.58474 -0.27200
N 	N 	0.61655 0.28195 0.51950 -0.13900
N 	N 	0.36038 0.75908 0.18436 -0.25900
N 	N 	0.33929 0.84599 0.23818 -0.13000
N 	N 	0.41557 0.31287 0.58474 -0.27200
N 	N 	0.40295 0.23755 0.51950 -0.13900
N 	N 	0.42528 0.36038 0.68436 -0.25900
N 	N 	0.39219 0.33929 0.73818 -0.13000
N 	N 	0.27187 0.41557 0.08474 -0.27200
N 	N 	0.28195 0.40295 0.01950 -0.13900
N 	N 	0.75908 0.32398 0.68436 -0.25900
N 	N 	0.84599 0.39889 0.73818 -0.13000
N 	N 	0.31287 0.66917 0.08474 -0.27200
N 	N 	0.23755 0.61655 0.01950 -0.13900
N 	N 	0.86038 0.92528 0.18436 -0.25900
N 	N 	0.83929 0.89219 0.23818 -0.13100
N 	N 	0.91557 0.77187 0.58474 -0.27200
N 	N 	0.90295 0.78195 0.51950 -0.13900
N 	N 	0.82398 0.25908 0.18436 -0.25900
N 	N 	0.89889 0.34599 0.23818 -0.13100
N 	N 	0.16917 0.81287 0.58474 -0.27200
N 	N 	0.11655 0.73755 0.51950 -0.13900
N 	N 	0.25908 0.86038 0.68436 -0.25900
N 	N 	0.34599 0.83929 0.73818 -0.13000
N 	N 	0.81287 0.91557 0.08474 -0.27200
N 	N 	0.73755 0.90295 0.01950 -0.13900
N 	N 	0.92528 0.82398 0.68436 -0.25900
N 	N 	0.89219 0.89889 0.73818 -0.13100
N 	N 	0.77187 0.16917 0.08474 -0.27200
N 	N 	0.78195 0.11655 0.01950 -0.13900
O 	O 	0.17221 0.32541 0.12122 -0.46000
O 	O 	0.16529 0.36359 0.18838 -0.31400
O 	O 	0.98485 0.97715 0.09570 -0.33600
O 	O 	0.95474 0.02714 0.15508 -0.44700
O 	O 	0.51881 0.20831 0.34162 -0.28000
O 	O 	0.44901 0.79581 0.12122 -0.46000
O 	O 	0.52309 0.82479 0.18838 -0.31400
O 	O 	0.61085 0.11855 0.09570 -0.33400
O 	O 	0.70034 0.12794 0.15508 -0.44600
O 	O 	0.32281 0.13331 0.34162 -0.28000
O 	O 	0.32541 0.44901 0.62122 -0.46000
O 	O 	0.36359 0.52309 0.68838 -0.31400
O 	O 	0.97715 0.61085 0.59570 -0.33500
O 	O 	0.02714 0.70034 0.65508 -0.44600
O 	O 	0.20831 0.32281 0.84162 -0.28000
O 	O 	0.79581 0.17221 0.62122 -0.46000
O 	O 	0.82479 0.16529 0.68838 -0.31400
O 	O 	0.11855 0.98485 0.59570 -0.33500
O 	O 	0.12794 0.95474 0.65508 -0.44600
O 	O 	0.13331 0.51881 0.84162 -0.28000
O 	O 	0.94901 0.82541 0.12122 -0.46100
O 	O 	0.02309 0.86359 0.18838 -0.31400
O 	O 	0.11085 0.47715 0.09570 -0.33400
O 	O 	0.20034 0.52714 0.15508 -0.44600
O 	O 	0.82281 0.70831 0.34162 -0.28000
O 	O 	0.67221 0.29581 0.12122 -0.46000
O 	O 	0.66529 0.32479 0.18838 -0.31400
O 	O 	0.48485 0.61855 0.09570 -0.33400
O 	O 	0.45474 0.62794 0.15508 -0.44700
O 	O 	0.01881 0.63331 0.34162 -0.27900
O 	O 	0.29581 0.94901 0.62122 -0.45900
O 	O 	0.32479 0.02309 0.68838 -0.31400
O 	O 	0.61855 0.11085 0.59570 -0.33400
O 	O 	0.62794 0.20034 0.65508 -0.44700
O 	O 	0.63331 0.82281 0.84162 -0.28000
O 	O 	0.82541 0.67221 0.62122 -0.46000
O 	O 	0.86359 0.66529 0.68838 -0.31400
O 	O 	0.47715 0.48485 0.59570 -0.33400
O 	O 	0.52714 0.45474 0.65508 -0.44700
O 	O 	0.70831 0.01881 0.84162 -0.27900
Zn	Zn	0.09459 0.07756 0.86540 1.21100
Zn	Zn	0.27081 0.78784 0.86540 1.21100
Zn	Zn	0.78784 0.09459 0.36540 1.21100
Zn	Zn	0.07756 0.27081 0.36540 1.21100
Zn	Zn	0.77081 0.57756 0.86540 1.21100
Zn	Zn	0.59459 0.28784 0.86540 1.21100
Zn	Zn	0.57756 0.59459 0.36540 1.21100
Zn	Zn	0.28784 0.77081 0.36540 1.21100
H 	H 	0.17600 0.96850 0.79640 0.01900
H 	H 	0.19670 0.00400 0.73520 0.03700
H 	H 	0.12130 0.17720 0.80780 -0.00400
H 	H 	0.25220 0.10750 0.71520 0.06100
H 	H 	0.25520 0.18210 0.66940 0.09800
H 	H 	0.07030 0.20900 0.74040 0.04300
H 	H 	0.07760 0.28750 0.69800 0.11100
H 	H 	0.04280 0.11950 0.38600 0.01300
H 	H 	0.04610 0.11020 0.45880 0.03700
H 	H 	0.13080 0.31020 0.46860 -0.01400
H 	H 	0.19880 0.31730 0.53680 0.04000
H 	H 	0.22970 0.34850 0.61120 0.09400
H 	H 	0.04320 0.15510 0.52860 0.04000
H 	H 	0.07900 0.18200 0.60260 0.09800
H 	H 	0.87830 0.22690 0.79800 0.05900
H 	H 	0.82260 0.34050 0.80860 0.05000
H 	H 	0.03080 0.30620 0.91420 0.05300
H 	H 	0.97800 0.42270 0.92380 0.04800
H 	H 	0.12040 0.82790 0.79640 0.01800
H 	H 	0.03850 0.73120 0.73520 0.03800
H 	H 	0.18650 0.63060 0.80780 -0.00400
H 	H 	0.96300 0.60770 0.71520 0.06100
H 	H 	0.91420 0.48730 0.66940 0.09800
H 	H 	0.17010 0.53140 0.74040 0.04400
H 	H 	0.12040 0.41050 0.69800 0.11100
H 	H 	0.84320 0.26650 0.38600 0.01300
H 	H 	0.91270 0.34860 0.45880 0.03700
H 	H 	0.83780 0.15840 0.46860 -0.01400
H 	H 	0.83800 0.21950 0.53680 0.04000
H 	H 	0.88150 0.26270 0.61120 0.09400
H 	H 	0.98540 0.37350 0.52860 0.04000
H 	H 	0.02360 0.42060 0.60260 0.09800
H 	H 	0.41970 0.57110 0.79800 0.06000
H 	H 	0.48600 0.46810 0.80860 0.05000
H 	H 	0.38340 0.60800 0.91420 0.05400
H 	H 	0.44580 0.50110 0.92380 0.04800
H 	H 	0.82790 0.17600 0.29640 0.01800
H 	H 	0.73120 0.19670 0.23520 0.03800
H 	H 	0.63060 0.12130 0.30780 -0.00400
H 	H 	0.60770 0.25220 0.21520 0.06100
H 	H 	0.48730 0.25520 0.16940 0.09800
H 	H 	0.53140 0.07030 0.24040 0.04300
H 	H 	0.41050 0.07760 0.19800 0.11100
H 	H 	0.26650 0.04280 0.88600 0.01300
H 	H 	0.34860 0.04610 0.95880 0.03700
H 	H 	0.15840 0.13080 0.96860 -0.01400
H 	H 	0.21950 0.19880 0.03680 0.03900
H 	H 	0.26270 0.22970 0.11120 0.09400
H 	H 	0.37350 0.04320 0.02860 0.04000
H 	H 	0.42060 0.07900 0.10260 0.09900
H 	H 	0.57110 0.87830 0.29800 0.06000
H 	H 	0.46810 0.82260 0.30860 0.05000
H 	H 	0.60800 0.03080 0.41420 0.05400
H 	H 	0.50110 0.97800 0.42380 0.04700
H 	H 	0.96850 0.12040 0.29640 0.01900
H 	H 	0.00400 0.03850 0.23520 0.03700
H 	H 	0.17720 0.18650 0.30780 -0.00400
H 	H 	0.10750 0.96300 0.21520 0.06100
H 	H 	0.18210 0.91420 0.16940 0.09800
H 	H 	0.20900 0.17010 0.24040 0.04400
H 	H 	0.28750 0.12040 0.19800 0.11100
H 	H 	0.11950 0.84320 0.88600 0.01400
H 	H 	0.11020 0.91270 0.95880 0.03700
H 	H 	0.31020 0.83780 0.96860 -0.01400
H 	H 	0.31730 0.83800 0.03680 0.04000
H 	H 	0.34850 0.88150 0.11120 0.09400
H 	H 	0.15510 0.98540 0.02860 0.04100
H 	H 	0.18200 0.02360 0.10260 0.09700
H 	H 	0.22690 0.41970 0.29800 0.06000
H 	H 	0.34050 0.48600 0.30860 0.05000
H 	H 	0.30620 0.38340 0.41420 0.05400
H 	H 	0.42270 0.44580 0.42380 0.04800
H 	H 	0.62040 0.46850 0.79640 0.01800
H 	H 	0.53850 0.50400 0.73520 0.03800
H 	H 	0.68650 0.67720 0.80780 -0.00400
H 	H 	0.46300 0.60750 0.71520 0.06100
H 	H 	0.41420 0.68210 0.66940 0.09800
H 	H 	0.67010 0.70900 0.74040 0.04300
H 	H 	0.62040 0.78750 0.69800 0.11200
H 	H 	0.34320 0.61950 0.38600 0.01300
H 	H 	0.41270 0.61020 0.45880 0.03700
H 	H 	0.33780 0.81020 0.46860 -0.01400
H 	H 	0.33800 0.81730 0.53680 0.04000
H 	H 	0.38150 0.84850 0.61120 0.09400
H 	H 	0.48540 0.65510 0.52860 0.04000
H 	H 	0.52360 0.68200 0.60260 0.09900
H 	H 	0.91970 0.72690 0.79800 0.06000
H 	H 	0.98600 0.84050 0.80860 0.04900
H 	H 	0.88340 0.80620 0.91420 0.05400
H 	H 	0.94580 0.92270 0.92380 0.04700
H 	H 	0.67600 0.32790 0.79640 0.01800
H 	H 	0.69670 0.23120 0.73520 0.03800
H 	H 	0.62130 0.13060 0.80780 -0.00400
H 	H 	0.75220 0.10770 0.71520 0.06000
H 	H 	0.75520 0.98730 0.66940 0.09900
H 	H 	0.57030 0.03140 0.74040 0.04300
H 	H 	0.57760 0.91050 0.69800 0.11200
H 	H 	0.54280 0.76650 0.38600 0.01300
H 	H 	0.54610 0.84860 0.45880 0.03700
H 	H 	0.63080 0.65840 0.46860 -0.01400
H 	H 	0.69880 0.71950 0.53680 0.04000
H 	H 	0.72970 0.76270 0.61120 0.09400
H 	H 	0.54320 0.87350 0.52860 0.04000
H 	H 	0.57900 0.92060 0.60260 0.09900
H 	H 	0.37830 0.07110 0.79800 0.06000
H 	H 	0.32260 0.96810 0.80860 0.05000
H 	H 	0.53080 0.10800 0.91420 0.05400
H 	H 	0.47800 0.00110 0.92380 0.04800
H 	H 	0.46850 0.67600 0.29640 0.01800
H 	H 	0.50400 0.69670 0.23520 0.03800
H 	H 	0.67720 0.62130 0.30780 -0.00400
H 	H 	0.60750 0.75220 0.21520 0.06100
H 	H 	0.68210 0.75520 0.16940 0.09800
H 	H 	0.70900 0.57030 0.24040 0.04300
H 	H 	0.78750 0.57760 0.19800 0.11200
H 	H 	0.61950 0.54280 0.88600 0.01300
H 	H 	0.61020 0.54610 0.95880 0.03700
H 	H 	0.81020 0.63080 0.96860 -0.01400
H 	H 	0.81730 0.69880 0.03680 0.04000
H 	H 	0.84850 0.72970 0.11120 0.09400
H 	H 	0.65510 0.54320 0.02860 0.04000
H 	H 	0.68200 0.57900 0.10260 0.09900
H 	H 	0.72690 0.37830 0.29800 0.06000
H 	H 	0.84050 0.32260 0.30860 0.05000
H 	H 	0.80620 0.53080 0.41420 0.05400
H 	H 	0.92270 0.47800 0.42380 0.04800
H 	H 	0.32790 0.62040 0.29640 0.01800
H 	H 	0.23120 0.53850 0.23520 0.03800
H 	H 	0.13060 0.68650 0.30780 -0.00400
H 	H 	0.10770 0.46300 0.21520 0.06000
H 	H 	0.98730 0.41420 0.16940 0.09800
H 	H 	0.03140 0.67010 0.24040 0.04300
H 	H 	0.91050 0.62040 0.19800 0.11200
H 	H 	0.76650 0.34320 0.88600 0.01300
H 	H 	0.84860 0.41270 0.95880 0.03700
H 	H 	0.65840 0.33780 0.96860 -0.01400
H 	H 	0.71950 0.33800 0.03680 0.04000
H 	H 	0.76270 0.38150 0.11120 0.09400
H 	H 	0.87350 0.48540 0.02860 0.04000
H 	H 	0.92060 0.52360 0.10260 0.09900
H 	H 	0.07110 0.91970 0.29800 0.06000
H 	H 	0.96810 0.98600 0.30860 0.05000
H 	H 	0.10800 0.88340 0.41420 0.05400
H 	H 	0.00110 0.94580 0.42380 0.04700
C 	C 	0.16681 0.01611 0.79082 0.00900
C 	C 	0.17882 0.03532 0.75764 0.00400
C 	C 	0.13750 0.12850 0.79720 0.10700
C 	C 	0.16208 0.15268 0.73316 0.05200
C 	C 	0.21622 0.14392 0.71164 -0.01700
C 	C 	0.21835 0.18835 0.68490 -0.15900
C 	C 	0.10970 0.20470 0.72680 -0.00000
C 	C 	0.11277 0.25027 0.70134 -0.17500
C 	C 	0.16739 0.24089 0.68098 0.22500
C 	C 	0.15696 0.26756 0.61392 0.21600
C 	C 	0.06018 0.15908 0.41216 0.01300
C 	C 	0.06385 0.15285 0.45230 0.00400
C 	C 	0.10762 0.25992 0.45664 0.12300
C 	C 	0.11836 0.23386 0.52592 0.04900
C 	C 	0.17355 0.29045 0.55030 -0.01500
C 	C 	0.19232 0.30822 0.59404 -0.15700
C 	C 	0.08224 0.19394 0.54568 -0.00300
C 	C 	0.10271 0.21041 0.58922 -0.16600
C 	C 	0.99767 0.18307 0.84794 0.32600
C 	C 	0.95990 0.25620 0.85520 -0.06000
C 	C 	0.89834 0.26654 0.82388 -0.02900
C 	C 	0.86587 0.33427 0.83014 -0.01300
C 	C 	0.98877 0.31367 0.89234 -0.02300
C 	C 	0.95677 0.38267 0.89814 -0.01900
C 	C 	0.89436 0.39376 0.86692 -0.07200
C 	C 	0.86059 0.46819 0.87298 0.31900
C 	C 	0.12401 0.77471 0.79082 0.01100
C 	C 	0.07882 0.72232 0.75764 0.00300
C 	C 	0.15970 0.66870 0.79720 0.10700
C 	C 	0.07108 0.58048 0.73316 0.05200
C 	C 	0.99542 0.56772 0.71164 -0.01800
C 	C 	0.96655 0.49655 0.68490 -0.15800
C 	C 	0.11710 0.52210 0.72680 -0.00100
C 	C 	0.08857 0.45107 0.70134 -0.17500
C 	C 	0.01359 0.44009 0.68098 0.22400
C 	C 	0.95696 0.34636 0.61392 0.21600
C 	C 	0.85198 0.25308 0.41216 0.01300
C 	C 	0.88845 0.29945 0.45230 0.00400
C 	C 	0.84902 0.19672 0.45664 0.12300
C 	C 	0.90756 0.29206 0.52592 0.05000
C 	C 	0.87675 0.25985 0.55030 -0.01500
C 	C 	0.90172 0.28582 0.59404 -0.15600
C 	C 	0.96344 0.35174 0.54568 -0.00400
C 	C 	0.98651 0.37881 0.58922 -0.16500
C 	C 	0.35027 0.66487 0.84794 0.32400
C 	C 	0.39530 0.59900 0.85520 -0.05900
C 	C 	0.42554 0.55734 0.82388 -0.02900
C 	C 	0.46427 0.49587 0.83014 -0.01200
C 	C 	0.40357 0.57867 0.89234 -0.02400
C 	C 	0.44137 0.51547 0.89814 -0.01800
C 	C 	0.47256 0.47316 0.86692 -0.07300
C 	C 	0.51239 0.40479 0.87298 0.31900
C 	C 	0.77471 0.16681 0.29082 0.01100
C 	C 	0.72232 0.17882 0.25764 0.00300
C 	C 	0.66870 0.13750 0.29720 0.10700
C 	C 	0.58048 0.16208 0.23316 0.05200
C 	C 	0.56772 0.21622 0.21164 -0.01700
C 	C 	0.49655 0.21835 0.18490 -0.15900
C 	C 	0.52210 0.10970 0.22680 -0.00100
C 	C 	0.45107 0.11277 0.20134 -0.17500
C 	C 	0.44009 0.16739 0.18098 0.22500
C 	C 	0.34636 0.15696 0.11392 0.21600
C 	C 	0.25308 0.06018 0.91216 0.01300
C 	C 	0.29945 0.06385 0.95230 0.00400
C 	C 	0.19672 0.10762 0.95664 0.12300
C 	C 	0.29206 0.11836 0.02592 0.04900
C 	C 	0.25985 0.17355 0.05030 -0.01400
C 	C 	0.28582 0.19232 0.09404 -0.15700
C 	C 	0.35174 0.08224 0.04568 -0.00300
C 	C 	0.37881 0.10271 0.08922 -0.16600
C 	C 	0.66487 0.99767 0.34794 0.32300
C 	C 	0.59900 0.95990 0.35520 -0.05900
C 	C 	0.55734 0.89834 0.32388 -0.03000
C 	C 	0.49587 0.86587 0.33014 -0.01200
C 	C 	0.57867 0.98877 0.39234 -0.02600
C 	C 	0.51547 0.95677 0.39814 -0.01800
C 	C 	0.47316 0.89436 0.36692 -0.07300
C 	C 	0.40479 0.86059 0.37298 0.31900
C 	C 	0.01611 0.12401 0.29082 0.00900
C 	C 	0.03532 0.07882 0.25764 0.00400
C 	C 	0.12850 0.15970 0.29720 0.10700
C 	C 	0.15268 0.07108 0.23316 0.05100
C 	C 	0.14392 0.99542 0.21164 -0.01700
C 	C 	0.18835 0.96655 0.18490 -0.15800
C 	C 	0.20470 0.11710 0.22680 -0.00100
C 	C 	0.25027 0.08857 0.20134 -0.17400
C 	C 	0.24089 0.01359 0.18098 0.22300
C 	C 	0.26756 0.95696 0.11392 0.21400
C 	C 	0.15908 0.85198 0.91216 0.01300
C 	C 	0.15285 0.88845 0.95230 0.00400
C 	C 	0.25992 0.84902 0.95664 0.12300
C 	C 	0.23386 0.90756 0.02592 0.05100
C 	C 	0.29045 0.87675 0.05030 -0.01600
C 	C 	0.30822 0.90172 0.09404 -0.15500
C 	C 	0.19394 0.96344 0.04568 -0.00500
C 	C 	0.21041 0.98651 0.08922 -0.16300
C 	C 	0.18307 0.35027 0.34794 0.32400
C 	C 	0.25620 0.39530 0.35520 -0.05900
C 	C 	0.26654 0.42554 0.32388 -0.02900
C 	C 	0.33427 0.46427 0.33014 -0.01200
C 	C 	0.31367 0.40357 0.39234 -0.02400
C 	C 	0.38267 0.44137 0.39814 -0.01800
C 	C 	0.39376 0.47256 0.36692 -0.07300
C 	C 	0.46819 0.51239 0.37298 0.31900
C 	C 	0.62401 0.51611 0.79082 0.01100
C 	C 	0.57882 0.53532 0.75764 0.00300
C 	C 	0.65970 0.62850 0.79720 0.10700
C 	C 	0.57108 0.65268 0.73316 0.05200
C 	C 	0.49542 0.64392 0.71164 -0.01700
C 	C 	0.46655 0.68835 0.68490 -0.15900
C 	C 	0.61710 0.70470 0.72680 -0.00000
C 	C 	0.58857 0.75027 0.70134 -0.17500
C 	C 	0.51359 0.74089 0.68098 0.22500
C 	C 	0.45696 0.76756 0.61392 0.21600
C 	C 	0.35198 0.65908 0.41216 0.01300
C 	C 	0.38845 0.65285 0.45230 0.00400
C 	C 	0.34902 0.75992 0.45664 0.12300
C 	C 	0.40756 0.73386 0.52592 0.04900
C 	C 	0.37675 0.79045 0.55030 -0.01500
C 	C 	0.40172 0.80822 0.59404 -0.15700
C 	C 	0.46344 0.69394 0.54568 -0.00300
C 	C 	0.48651 0.71041 0.58922 -0.16600
C 	C 	0.85027 0.68307 0.84794 0.32400
C 	C 	0.89530 0.75620 0.85520 -0.05800
C 	C 	0.92554 0.76654 0.82388 -0.03100
C 	C 	0.96427 0.83427 0.83014 -0.01100
C 	C 	0.90357 0.81367 0.89234 -0.02600
C 	C 	0.94137 0.88267 0.89814 -0.01700
C 	C 	0.97256 0.89376 0.86692 -0.07500
C 	C 	0.01239 0.96819 0.87298 0.32200
C 	C 	0.66681 0.27471 0.79082 0.01100
C 	C 	0.67882 0.22232 0.75764 0.00300
C 	C 	0.63750 0.16870 0.79720 0.10700
C 	C 	0.66208 0.08048 0.73316 0.05100
C 	C 	0.71622 0.06772 0.71164 -0.01500
C 	C 	0.71835 0.99655 0.68490 -0.16100
C 	C 	0.60970 0.02210 0.72680 0.00100
C 	C 	0.61277 0.95107 0.70134 -0.17700
C 	C 	0.66739 0.94009 0.68098 0.22600
C 	C 	0.65696 0.84636 0.61392 0.21600
C 	C 	0.56018 0.75308 0.41216 0.01300
C 	C 	0.56385 0.79945 0.45230 0.00400
C 	C 	0.60762 0.69672 0.45664 0.12300
C 	C 	0.61836 0.79206 0.52592 0.04900
C 	C 	0.67355 0.75985 0.55030 -0.01400
C 	C 	0.69232 0.78582 0.59404 -0.15700
C 	C 	0.58224 0.85174 0.54568 -0.00300
C 	C 	0.60271 0.87881 0.58922 -0.16600
C 	C 	0.49767 0.16487 0.84794 0.32400
C 	C 	0.45990 0.09900 0.85520 -0.05900
C 	C 	0.39834 0.05734 0.82388 -0.03000
C 	C 	0.36587 0.99587 0.83014 -0.01200
C 	C 	0.48877 0.07867 0.89234 -0.02500
C 	C 	0.45677 0.01547 0.89814 -0.01800
C 	C 	0.39436 0.97316 0.86692 -0.07300
C 	C 	0.36059 0.90479 0.87298 0.31900
C 	C 	0.51611 0.66681 0.29082 0.01100
C 	C 	0.53532 0.67882 0.25764 0.00300
C 	C 	0.62850 0.63750 0.29720 0.10700
C 	C 	0.65268 0.66208 0.23316 0.05200
C 	C 	0.64392 0.71622 0.21164 -0.01700
C 	C 	0.68835 0.71835 0.18490 -0.15900
C 	C 	0.70470 0.60970 0.22680 -0.00000
C 	C 	0.75027 0.61277 0.20134 -0.17500
C 	C 	0.74089 0.66739 0.18098 0.22500
C 	C 	0.76756 0.65696 0.11392 0.21600
C 	C 	0.65908 0.56018 0.91216 0.01300
C 	C 	0.65285 0.56385 0.95230 0.00400
C 	C 	0.75992 0.60762 0.95664 0.12300
C 	C 	0.73386 0.61836 0.02592 0.04900
C 	C 	0.79045 0.67355 0.05030 -0.01400
C 	C 	0.80822 0.69232 0.09404 -0.15700
C 	C 	0.69394 0.58224 0.04568 -0.00300
C 	C 	0.71041 0.60271 0.08922 -0.16600
C 	C 	0.68307 0.49767 0.34794 0.32400
C 	C 	0.75620 0.45990 0.35520 -0.05900
C 	C 	0.76654 0.39834 0.32388 -0.03000
C 	C 	0.83427 0.36587 0.33014 -0.01200
C 	C 	0.81367 0.48877 0.39234 -0.02500
C 	C 	0.88267 0.45677 0.39814 -0.01800
C 	C 	0.89376 0.39436 0.36692 -0.07300
C 	C 	0.96819 0.36059 0.37298 0.32000
C 	C 	0.27471 0.62401 0.29082 0.01100
C 	C 	0.22232 0.57882 0.25764 0.00300
C 	C 	0.16870 0.65970 0.29720 0.10700
C 	C 	0.08048 0.57108 0.23316 0.05100
C 	C 	0.06772 0.49542 0.21164 -0.01700
C 	C 	0.99655 0.46655 0.18490 -0.16000
C 	C 	0.02210 0.61710 0.22680 0.00000
C 	C 	0.95107 0.58857 0.20134 -0.17600
C 	C 	0.94009 0.51359 0.18098 0.22500
C 	C 	0.84636 0.45696 0.11392 0.21600
C 	C 	0.75308 0.35198 0.91216 0.01300
C 	C 	0.79945 0.38845 0.95230 0.00400
C 	C 	0.69672 0.34902 0.95664 0.12300
C 	C 	0.79206 0.40756 0.02592 0.04900
C 	C 	0.75985 0.37675 0.05030 -0.01400
C 	C 	0.78582 0.40172 0.09404 -0.15700
C 	C 	0.85174 0.46344 0.04568 -0.00300
C 	C 	0.87881 0.48651 0.08922 -0.16600
C 	C 	0.16487 0.85027 0.34794 0.32400
C 	C 	0.09900 0.89530 0.35520 -0.05900
C 	C 	0.05734 0.92554 0.32388 -0.02800
C 	C 	0.99587 0.96427 0.33014 -0.01300
C 	C 	0.07867 0.90357 0.39234 -0.02500
C 	C 	0.01547 0.94137 0.39814 -0.01600
C 	C 	0.97316 0.97256 0.36692 -0.07500
C 	C 	0.90479 0.01239 0.37298 0.32100
N 	N 	0.13962 0.07472 0.81564 -0.25900
N 	N 	0.16071 0.10781 0.76182 -0.13100
N 	N 	0.08443 0.22813 0.41526 -0.27200
N 	N 	0.09705 0.21805 0.48050 -0.13900
N 	N 	0.17602 0.74092 0.81564 -0.25900
N 	N 	0.10111 0.65401 0.76182 -0.13100
N 	N 	0.83083 0.18713 0.41526 -0.27200
N 	N 	0.88345 0.26245 0.48050 -0.13900
N 	N 	0.74092 0.13962 0.31564 -0.25900
N 	N 	0.65401 0.16071 0.26182 -0.13000
N 	N 	0.18713 0.08443 0.91526 -0.27200
N 	N 	0.26245 0.09705 0.98050 -0.13900
N 	N 	0.07472 0.17602 0.31564 -0.25900
N 	N 	0.10781 0.10111 0.26182 -0.13100
N 	N 	0.22813 0.83083 0.91526 -0.27200
N 	N 	0.21805 0.88345 0.98050 -0.13900
N 	N 	0.67602 0.57472 0.81564 -0.25900
N 	N 	0.60111 0.60781 0.76182 -0.13000
N 	N 	0.33083 0.72813 0.41526 -0.27200
N 	N 	0.38345 0.71805 0.48050 -0.13900
N 	N 	0.63962 0.24092 0.81564 -0.25900
N 	N 	0.66071 0.15401 0.76182 -0.13000
N 	N 	0.58443 0.68713 0.41526 -0.27200
N 	N 	0.59705 0.76245 0.48050 -0.13900
N 	N 	0.57472 0.63962 0.31564 -0.25900
N 	N 	0.60781 0.66071 0.26182 -0.13000
N 	N 	0.72813 0.58443 0.91526 -0.27200
N 	N 	0.71805 0.59705 0.98050 -0.13900
N 	N 	0.24092 0.67602 0.31564 -0.25900
N 	N 	0.15401 0.60111 0.26182 -0.13000
N 	N 	0.68713 0.33083 0.91526 -0.27200
N 	N 	0.76245 0.38345 0.98050 -0.13900
O 	O 	0.05099 0.17459 0.87878 -0.46100
O 	O 	0.97691 0.13641 0.81162 -0.31400
O 	O 	0.88915 0.52285 0.90430 -0.33400
O 	O 	0.79966 0.47286 0.84492 -0.44600
O 	O 	0.17719 0.29169 0.65838 -0.28000
O 	O 	0.32779 0.70419 0.87878 -0.46000
O 	O 	0.33471 0.67521 0.81162 -0.31400
O 	O 	0.51515 0.38145 0.90430 -0.33400
O 	O 	0.54526 0.37206 0.84492 -0.44700
O 	O 	0.98119 0.36669 0.65838 -0.27900
O 	O 	0.70419 0.05099 0.37878 -0.45900
O 	O 	0.67521 0.97691 0.31162 -0.31400
O 	O 	0.38145 0.88915 0.40430 -0.33400
O 	O 	0.37206 0.79966 0.34492 -0.44700
O 	O 	0.36669 0.17719 0.15838 -0.28000
O 	O 	0.17459 0.32779 0.37878 -0.46000
O 	O 	0.13641 0.33471 0.31162 -0.31400
O 	O 	0.52285 0.51515 0.40430 -0.33400
O 	O 	0.47286 0.54526 0.34492 -0.44700
O 	O 	0.29169 0.98119 0.15838 -0.27900
O 	O 	0.82779 0.67459 0.87878 -0.46000
O 	O 	0.83471 0.63641 0.81162 -0.31400
O 	O 	0.01515 0.02285 0.90430 -0.33600
O 	O 	0.04526 0.97286 0.84492 -0.44700
O 	O 	0.48119 0.79169 0.65838 -0.28000
O 	O 	0.55099 0.20419 0.87878 -0.46000
O 	O 	0.47691 0.17521 0.81162 -0.31400
O 	O 	0.38915 0.88145 0.90430 -0.33400
O 	O 	0.29966 0.87206 0.84492 -0.44600
O 	O 	0.67719 0.86669 0.65838 -0.28000
O 	O 	0.67459 0.55099 0.37878 -0.46000
O 	O 	0.63641 0.47691 0.31162 -0.31400
O 	O 	0.02285 0.38915 0.40430 -0.33500
O 	O 	0.97286 0.29966 0.34492 -0.44600
O 	O 	0.79169 0.67719 0.15838 -0.28000
O 	O 	0.20419 0.82779 0.37878 -0.46000
O 	O 	0.17521 0.83471 0.31162 -0.31400
O 	O 	0.88145 0.01515 0.40430 -0.33500
O 	O 	0.87206 0.04526 0.34492 -0.44600
O 	O 	0.86669 0.48119 0.15838 -0.28000
