data_crystal

_cell_length_a 15.86350
_cell_length_b 15.86350
_cell_length_c 21.46300
_cell_angle_alpha 90.00000
_cell_angle_beta  90.00000
_cell_angle_gamma 90.00000

_symmetry_space_group_name_	'P 1'
_symmetry_space_group_name_H-M	'P 1'

loop_
_symmetry_equiv_pos_as_xyz
  x,y,z

loop_
_atom_site_label
_atom_site_type_symbol
_atom_site_fract_x
_atom_site_fract_y
_atom_site_fract_z
_atom_site_charge
C 	C 	0.64070 0.58900 0.64090 0.07300
H 	H 	0.61160 0.53880 0.65200 -0.00500
C 	C 	0.70210 0.61820 0.68090 -0.13300
H 	H 	0.71480 0.58810 0.71800 0.07500
C 	C 	0.74570 0.69210 0.66650 0.06500
C 	C 	0.71730 0.73540 0.61380 -0.13100
H 	H 	0.74040 0.78910 0.60410 0.06900
C 	C 	0.65670 0.70140 0.57620 0.06200
H 	H 	0.64000 0.73200 0.54020 -0.01400
C 	C 	0.81830 0.72250 0.70370 0.01000
C 	C 	0.83560 0.69240 0.76290 -0.07200
H 	H 	0.79940 0.65160 0.78120 0.05600
C 	C 	0.90450 0.72090 0.79560 -0.01100
H 	H 	0.91550 0.69940 0.83620 0.03300
C 	C 	0.95910 0.78160 0.76960 -0.06700
H 	H 	0.00710 0.80090 0.79190 0.05300
C 	C 	0.94090 0.81240 0.71060 -0.00900
C 	C 	0.87190 0.78370 0.67830 -0.06900
H 	H 	0.86020 0.80580 0.63800 0.04900
C 	C 	0.99620 0.87470 0.68000 0.09800
C 	C 	0.09270 0.92590 0.61730 0.09500
C 	C 	0.16240 0.93450 0.57310 0.01500
C 	C 	0.16590 0.00650 0.53670 -0.07400
H 	H 	0.12240 0.04750 0.53930 0.05600
C 	C 	0.23240 0.01830 0.49710 0.00100
H 	H 	0.23540 0.06840 0.47300 0.02400
C 	C 	0.29470 0.95880 0.49160 -0.07800
H 	H 	0.33900 0.96690 0.46240 0.05300
C 	C 	0.29320 0.88660 0.52860 0.01500
C 	C 	0.22620 0.87510 0.56860 -0.07900
H 	H 	0.22360 0.82560 0.59340 0.06100
C 	C 	0.35940 0.81950 0.52190 0.06900
C 	C 	0.40680 0.81160 0.46780 -0.13600
H 	H 	0.40080 0.85120 0.43500 0.07300
C 	C 	0.46300 0.74500 0.46240 0.07500
H 	H 	0.49430 0.73990 0.42480 -0.00900
C 	C 	0.43140 0.69770 0.55940 0.07100
H 	H 	0.43930 0.65800 0.59210 -0.01100
C 	C 	0.37460 0.76270 0.56870 -0.13200
H 	H 	0.34610 0.76790 0.60740 0.07100
N 	N 	0.61940 0.62670 0.58770 -0.23500
N 	N 	0.99360 0.95650 0.68310 -0.20500
N 	N 	0.05440 0.98950 0.64410 -0.12300
N 	N 	0.05740 0.85280 0.63884 -0.11000
N 	N 	0.07630 0.77040 0.61780 -0.21100
H 	H 	0.10220 0.74140 0.64890 0.11000
H 	H 	0.02760 0.74380 0.60720 0.11100
N 	N 	0.47570 0.68770 0.50700 -0.22900
C 	C 	0.35930 0.41100 0.14090 0.07300
H 	H 	0.38840 0.46120 0.15200 -0.00400
C 	C 	0.29790 0.38180 0.18090 -0.13300
H 	H 	0.28520 0.41190 0.21800 0.07600
C 	C 	0.25430 0.30790 0.16650 0.06500
C 	C 	0.28270 0.26460 0.11380 -0.13200
H 	H 	0.25960 0.21090 0.10410 0.06700
C 	C 	0.34330 0.29860 0.07620 0.06100
H 	H 	0.36000 0.26800 0.04020 -0.02000
C 	C 	0.18170 0.27750 0.20370 0.00900
C 	C 	0.16440 0.30760 0.26290 -0.07200
H 	H 	0.20060 0.34840 0.28120 0.05500
C 	C 	0.09550 0.27910 0.29560 -0.01100
H 	H 	0.08450 0.30060 0.33620 0.03100
C 	C 	0.04090 0.21840 0.26960 -0.06600
H 	H 	0.99290 0.19910 0.29190 0.05200
C 	C 	0.05910 0.18760 0.21060 -0.01000
C 	C 	0.12810 0.21630 0.17830 -0.06800
H 	H 	0.13980 0.19420 0.13800 0.04700
C 	C 	0.00380 0.12530 0.18000 0.09800
C 	C 	0.90730 0.07410 0.11730 0.08800
C 	C 	0.83760 0.06550 0.07310 0.03000
C 	C 	0.83410 0.99350 0.03670 -0.12000
H 	H 	0.87760 0.95250 0.03930 0.06600
C 	C 	0.76760 0.98170 0.99710 0.04500
H 	H 	0.76460 0.93160 0.97300 0.01500
C 	C 	0.70530 0.04120 0.99160 -0.07700
H 	H 	0.66100 0.03310 0.96240 0.05600
C 	C 	0.70680 0.11340 0.02860 0.01100
C 	C 	0.77380 0.12490 0.06860 -0.09100
H 	H 	0.77640 0.17440 0.09340 0.06400
C 	C 	0.64060 0.18050 0.02190 0.04200
C 	C 	0.59320 0.18840 0.96780 -0.10900
H 	H 	0.59920 0.14880 0.93500 0.06700
C 	C 	0.53700 0.25500 0.96240 0.08700
H 	H 	0.50570 0.26010 0.92480 -0.01000
C 	C 	0.56860 0.30230 0.05940 0.06200
H 	H 	0.56070 0.34200 0.09210 -0.00900
C 	C 	0.62540 0.23730 0.06870 -0.12200
H 	H 	0.65390 0.23210 0.10740 0.06700
N 	N 	0.38060 0.37330 0.08770 -0.23700
N 	N 	0.00640 0.04350 0.18310 -0.20500
N 	N 	0.94560 0.01050 0.14410 -0.12200
N 	N 	0.94260 0.14720 0.13884 -0.10900
N 	N 	0.92370 0.22960 0.11780 -0.21200
H 	H 	0.89780 0.25860 0.14890 0.11000
H 	H 	0.97240 0.25620 0.10720 0.10800
N 	N 	0.52430 0.31230 0.00700 -0.24000
C 	C 	0.91100 0.14070 0.89090 0.06700
H 	H 	0.96120 0.11160 0.90200 -0.00000
C 	C 	0.88180 0.20210 0.93090 -0.11700
H 	H 	0.91190 0.21480 0.96800 0.07600
C 	C 	0.80790 0.24570 0.91650 0.04400
C 	C 	0.76460 0.21730 0.86380 -0.11500
H 	H 	0.71090 0.24040 0.85410 0.06400
C 	C 	0.79860 0.15670 0.82620 0.05400
H 	H 	0.76800 0.14000 0.79020 -0.01200
C 	C 	0.77750 0.31830 0.95370 0.07000
C 	C 	0.80760 0.33560 0.01290 -0.14500
H 	H 	0.84840 0.29940 0.03120 0.07500
C 	C 	0.77910 0.40450 0.04560 0.04700
H 	H 	0.80060 0.41550 0.08620 0.01100
C 	C 	0.71840 0.45910 0.01960 -0.14000
H 	H 	0.69910 0.50710 0.04190 0.07400
C 	C 	0.68760 0.44090 0.96060 0.05000
C 	C 	0.71630 0.37190 0.92830 -0.11500
H 	H 	0.69420 0.36020 0.88800 0.06500
C 	C 	0.62530 0.49620 0.93000 0.08300
C 	C 	0.57410 0.59270 0.86730 0.09600
C 	C 	0.56550 0.66240 0.82310 0.01800
C 	C 	0.49350 0.66590 0.78670 -0.07800
H 	H 	0.45250 0.62240 0.78930 0.05700
C 	C 	0.48170 0.73240 0.74710 0.00000
H 	H 	0.43160 0.73540 0.72300 0.02400
C 	C 	0.54120 0.79470 0.74160 -0.07600
H 	H 	0.53310 0.83900 0.71240 0.05300
C 	C 	0.61340 0.79320 0.77860 0.01600
C 	C 	0.62490 0.72620 0.81860 -0.08000
H 	H 	0.67440 0.72360 0.84340 0.06200
C 	C 	0.68050 0.85940 0.77190 0.07000
C 	C 	0.68840 0.90680 0.71780 -0.13500
H 	H 	0.64880 0.90080 0.68500 0.07300
C 	C 	0.75500 0.96300 0.71240 0.07500
H 	H 	0.76010 0.99430 0.67480 -0.00800
C 	C 	0.80230 0.93140 0.80940 0.07100
H 	H 	0.84200 0.93930 0.84210 -0.00900
C 	C 	0.73730 0.87460 0.81870 -0.13200
H 	H 	0.73210 0.84610 0.85740 0.07300
N 	N 	0.87330 0.11940 0.83770 -0.23300
N 	N 	0.54350 0.49360 0.93310 -0.19900
N 	N 	0.51050 0.55440 0.89410 -0.12000
N 	N 	0.64720 0.55740 0.88884 -0.10500
N 	N 	0.72960 0.57630 0.86780 -0.21200
H 	H 	0.75860 0.60220 0.89890 0.11400
H 	H 	0.75620 0.52760 0.85720 0.11200
N 	N 	0.81230 0.97570 0.75700 -0.22800
C 	C 	0.08900 0.85930 0.39090 0.07300
H 	H 	0.03880 0.88840 0.40200 -0.00400
C 	C 	0.11820 0.79790 0.43090 -0.13200
H 	H 	0.08810 0.78520 0.46800 0.07500
C 	C 	0.19210 0.75430 0.41650 0.06500
C 	C 	0.23540 0.78270 0.36380 -0.13000
H 	H 	0.28910 0.75960 0.35410 0.06900
C 	C 	0.20140 0.84330 0.32620 0.06100
H 	H 	0.23200 0.86000 0.29020 -0.01500
C 	C 	0.22250 0.68170 0.45370 0.01200
C 	C 	0.19240 0.66440 0.51290 -0.07400
H 	H 	0.15160 0.70060 0.53120 0.05600
C 	C 	0.22090 0.59550 0.54560 -0.00800
H 	H 	0.19940 0.58450 0.58620 0.03000
C 	C 	0.28160 0.54090 0.51960 -0.07200
H 	H 	0.30090 0.49290 0.54190 0.05500
C 	C 	0.31240 0.55910 0.46060 -0.00700
C 	C 	0.28370 0.62810 0.42830 -0.07100
H 	H 	0.30580 0.63980 0.38800 0.05000
C 	C 	0.37470 0.50380 0.43000 0.09600
C 	C 	0.42590 0.40730 0.36730 0.09500
C 	C 	0.43450 0.33760 0.32310 0.01800
C 	C 	0.50650 0.33410 0.28670 -0.07700
H 	H 	0.54750 0.37760 0.28930 0.05700
C 	C 	0.51830 0.26760 0.24710 -0.00000
H 	H 	0.56840 0.26460 0.22300 0.02400
C 	C 	0.45880 0.20530 0.24160 -0.07500
H 	H 	0.46690 0.16100 0.21240 0.05200
C 	C 	0.38660 0.20680 0.27860 0.01500
C 	C 	0.37510 0.27380 0.31860 -0.08000
H 	H 	0.32560 0.27640 0.34340 0.06100
C 	C 	0.31950 0.14060 0.27190 0.06900
C 	C 	0.31160 0.09320 0.21780 -0.13500
H 	H 	0.35120 0.09920 0.18500 0.07200
C 	C 	0.24500 0.03700 0.21240 0.07500
H 	H 	0.23990 0.00570 0.17480 -0.00900
C 	C 	0.19770 0.06860 0.30940 0.07100
H 	H 	0.15800 0.06070 0.34210 -0.01000
C 	C 	0.26270 0.12540 0.31870 -0.13200
H 	H 	0.26790 0.15390 0.35740 0.07100
N 	N 	0.12670 0.88060 0.33770 -0.23600
N 	N 	0.45650 0.50640 0.43310 -0.20600
N 	N 	0.48950 0.44560 0.39410 -0.12100
N 	N 	0.35280 0.44260 0.38884 -0.10800
N 	N 	0.27040 0.42370 0.36780 -0.21100
H 	H 	0.24140 0.39780 0.39890 0.11000
H 	H 	0.24380 0.47240 0.35720 0.11100
N 	N 	0.18770 0.02430 0.25700 -0.22800
C 	C 	0.85930 0.08900 0.60910 0.07300
H 	H 	0.88840 0.03880 0.59800 -0.00400
C 	C 	0.79790 0.11820 0.56910 -0.13200
H 	H 	0.78520 0.08810 0.53200 0.07500
C 	C 	0.75430 0.19210 0.58350 0.06500
C 	C 	0.78270 0.23540 0.63620 -0.13000
H 	H 	0.75960 0.28910 0.64590 0.06900
C 	C 	0.84330 0.20140 0.67380 0.06100
H 	H 	0.86000 0.23200 0.70980 -0.01500
C 	C 	0.68170 0.22250 0.54630 0.01200
C 	C 	0.66440 0.19240 0.48710 -0.07400
H 	H 	0.70060 0.15160 0.46880 0.05600
C 	C 	0.59550 0.22090 0.45440 -0.00800
H 	H 	0.58450 0.19940 0.41380 0.03000
C 	C 	0.54090 0.28160 0.48040 -0.07200
H 	H 	0.49290 0.30090 0.45810 0.05500
C 	C 	0.55910 0.31240 0.53940 -0.00700
C 	C 	0.62810 0.28370 0.57170 -0.07100
H 	H 	0.63980 0.30580 0.61200 0.05000
C 	C 	0.50380 0.37470 0.57000 0.09500
C 	C 	0.40730 0.42590 0.63270 0.09500
C 	C 	0.33760 0.43450 0.67690 0.01800
C 	C 	0.33410 0.50650 0.71330 -0.07800
H 	H 	0.37760 0.54750 0.71070 0.05700
C 	C 	0.26760 0.51830 0.75290 0.00100
H 	H 	0.26460 0.56840 0.77700 0.02400
C 	C 	0.20530 0.45880 0.75840 -0.07600
H 	H 	0.16100 0.46690 0.78760 0.05300
C 	C 	0.20680 0.38660 0.72140 0.01600
C 	C 	0.27380 0.37510 0.68140 -0.08000
H 	H 	0.27640 0.32560 0.65660 0.06100
C 	C 	0.14060 0.31950 0.72810 0.06900
C 	C 	0.09320 0.31160 0.78220 -0.13500
H 	H 	0.09920 0.35120 0.81500 0.07400
C 	C 	0.03700 0.24500 0.78760 0.07500
H 	H 	0.00570 0.23990 0.82520 -0.00700
C 	C 	0.06860 0.19770 0.69060 0.07100
H 	H 	0.06070 0.15800 0.65790 -0.01000
C 	C 	0.12540 0.26270 0.68130 -0.13200
H 	H 	0.15390 0.26790 0.64260 0.07100
N 	N 	0.88060 0.12670 0.66230 -0.23600
N 	N 	0.50640 0.45650 0.56690 -0.20600
N 	N 	0.44560 0.48950 0.60590 -0.12100
N 	N 	0.44260 0.35280 0.61116 -0.10800
N 	N 	0.42370 0.27040 0.63220 -0.21100
H 	H 	0.39780 0.24140 0.60110 0.11000
H 	H 	0.47240 0.24380 0.64280 0.11100
N 	N 	0.02430 0.18770 0.74300 -0.22800
C 	C 	0.14070 0.91100 0.10910 0.08000
H 	H 	0.11160 0.96120 0.09800 -0.00900
C 	C 	0.20210 0.88180 0.06910 -0.14900
H 	H 	0.21480 0.91190 0.03200 0.07400
C 	C 	0.24570 0.80790 0.08350 0.08800
C 	C 	0.21730 0.76460 0.13620 -0.14500
H 	H 	0.24040 0.71090 0.14590 0.07500
C 	C 	0.15670 0.79860 0.17380 0.06900
H 	H 	0.14000 0.76800 0.20980 -0.01700
C 	C 	0.31830 0.77750 0.04630 -0.05300
C 	C 	0.33560 0.80760 0.98710 0.00300
H 	H 	0.29940 0.84840 0.96880 0.03600
C 	C 	0.40450 0.77910 0.95440 -0.06700
H 	H 	0.41550 0.80060 0.91380 0.05100
C 	C 	0.45910 0.71840 0.98040 0.00200
H 	H 	0.50710 0.69910 0.95810 0.03500
C 	C 	0.44090 0.68760 0.03940 -0.06900
C 	C 	0.37190 0.71630 0.07170 -0.02300
H 	H 	0.36020 0.69420 0.11200 0.03400
C 	C 	0.49620 0.62530 0.07000 0.10900
C 	C 	0.59270 0.57410 0.13270 0.09300
C 	C 	0.66240 0.56550 0.17690 0.01700
C 	C 	0.66590 0.49350 0.21330 -0.07700
H 	H 	0.62240 0.45250 0.21070 0.05600
C 	C 	0.73240 0.48170 0.25290 -0.00000
H 	H 	0.73540 0.43160 0.27700 0.02400
C 	C 	0.79470 0.54120 0.25840 -0.07600
H 	H 	0.83900 0.53310 0.28760 0.05300
C 	C 	0.79320 0.61340 0.22140 0.01500
C 	C 	0.72620 0.62490 0.18140 -0.08000
H 	H 	0.72360 0.67440 0.15660 0.06000
C 	C 	0.85940 0.68050 0.22810 0.06900
C 	C 	0.90680 0.68840 0.28220 -0.13500
H 	H 	0.90080 0.64880 0.31500 0.07300
C 	C 	0.96300 0.75500 0.28760 0.07500
H 	H 	0.99430 0.76010 0.32520 -0.00800
C 	C 	0.93140 0.80230 0.19060 0.07100
H 	H 	0.93930 0.84200 0.15790 -0.01100
C 	C 	0.87460 0.73730 0.18130 -0.13200
H 	H 	0.84610 0.73210 0.14260 0.06900
N 	N 	0.11940 0.87330 0.16230 -0.23900
N 	N 	0.49360 0.54350 0.06690 -0.21200
N 	N 	0.55440 0.51050 0.10590 -0.12200
N 	N 	0.55740 0.64720 0.11116 -0.11200
N 	N 	0.57630 0.72960 0.13220 -0.20900
H 	H 	0.60220 0.75860 0.10110 0.10600
H 	H 	0.52760 0.75620 0.14280 0.11000
N 	N 	0.97570 0.81230 0.24300 -0.22800
C 	C 	0.58900 0.64070 0.35910 0.07400
H 	H 	0.53880 0.61160 0.34800 -0.00300
C 	C 	0.61820 0.70210 0.31910 -0.13200
H 	H 	0.58810 0.71480 0.28200 0.07600
C 	C 	0.69210 0.74570 0.33350 0.06500
C 	C 	0.73540 0.71730 0.38620 -0.13000
H 	H 	0.78910 0.74040 0.39590 0.06900
C 	C 	0.70140 0.65670 0.42380 0.06200
H 	H 	0.73200 0.64000 0.45980 -0.01400
C 	C 	0.72250 0.81830 0.29630 0.01100
C 	C 	0.69240 0.83560 0.23710 -0.07300
H 	H 	0.65160 0.79940 0.21880 0.05500
C 	C 	0.72090 0.90450 0.20440 -0.01000
H 	H 	0.69940 0.91550 0.16380 0.02900
C 	C 	0.78160 0.95910 0.23040 -0.06700
H 	H 	0.80090 0.00710 0.20810 0.05200
C 	C 	0.81240 0.94090 0.28940 -0.00900
C 	C 	0.78370 0.87190 0.32170 -0.06900
H 	H 	0.80580 0.86020 0.36200 0.05000
C 	C 	0.87470 0.99620 0.32000 0.09900
C 	C 	0.92590 0.09270 0.38270 0.09500
C 	C 	0.93450 0.16240 0.42690 0.01500
C 	C 	0.00650 0.16590 0.46330 -0.07400
H 	H 	0.04750 0.12240 0.46070 0.05600
C 	C 	0.01830 0.23240 0.50290 0.00200
H 	H 	0.06840 0.23540 0.52700 0.02400
C 	C 	0.95880 0.29470 0.50840 -0.07800
H 	H 	0.96690 0.33900 0.53760 0.05300
C 	C 	0.88660 0.29320 0.47140 0.01600
C 	C 	0.87510 0.22620 0.43140 -0.07900
H 	H 	0.82560 0.22360 0.40660 0.06100
C 	C 	0.81950 0.35940 0.47810 0.06900
C 	C 	0.81160 0.40680 0.53220 -0.13500
H 	H 	0.85120 0.40080 0.56500 0.07300
C 	C 	0.74500 0.46300 0.53760 0.07500
H 	H 	0.73990 0.49430 0.57520 -0.00900
C 	C 	0.69770 0.43140 0.44060 0.07100
H 	H 	0.65800 0.43930 0.40790 -0.01100
C 	C 	0.76270 0.37460 0.43130 -0.13200
H 	H 	0.76790 0.34610 0.39260 0.07100
N 	N 	0.62670 0.61940 0.41230 -0.23500
N 	N 	0.95650 0.99360 0.31690 -0.20500
N 	N 	0.98950 0.05440 0.35590 -0.12300
N 	N 	0.85280 0.05740 0.36116 -0.11000
N 	N 	0.77040 0.07630 0.38220 -0.21000
H 	H 	0.74140 0.10220 0.35110 0.11000
H 	H 	0.74380 0.02760 0.39280 0.11100
N 	N 	0.68770 0.47570 0.49300 -0.22900
C 	C 	0.41100 0.35930 0.85910 0.07500
H 	H 	0.46120 0.38840 0.84800 -0.00300
C 	C 	0.38180 0.29790 0.81910 -0.13200
H 	H 	0.41190 0.28520 0.78200 0.07600
C 	C 	0.30790 0.25430 0.83350 0.06600
C 	C 	0.26460 0.28270 0.88620 -0.12800
H 	H 	0.21090 0.25960 0.89590 0.07100
C 	C 	0.29860 0.34330 0.92380 0.06300
H 	H 	0.26800 0.36000 0.95980 -0.00800
C 	C 	0.27750 0.18170 0.79630 0.01100
C 	C 	0.30760 0.16440 0.73710 -0.07300
H 	H 	0.34840 0.20060 0.71880 0.05600
C 	C 	0.27910 0.09550 0.70440 -0.01000
H 	H 	0.30060 0.08450 0.66380 0.03100
C 	C 	0.21840 0.04090 0.73040 -0.06700
H 	H 	0.19910 0.99290 0.70810 0.05200
C 	C 	0.18760 0.05910 0.78940 -0.00900
C 	C 	0.21630 0.12810 0.82170 -0.07000
H 	H 	0.19420 0.13980 0.86200 0.05200
C 	C 	0.12530 0.00380 0.82000 0.09900
C 	C 	0.07410 0.90730 0.88270 0.09900
C 	C 	0.06550 0.83760 0.92690 0.01100
C 	C 	0.99350 0.83410 0.96330 -0.04500
H 	H 	0.95250 0.87760 0.96070 0.05200
C 	C 	0.98170 0.76760 0.00290 -0.02300
H 	H 	0.93160 0.76460 0.02700 0.02800
C 	C 	0.04120 0.70530 0.00840 -0.09800
H 	H 	0.03310 0.66100 0.03760 0.05500
C 	C 	0.11340 0.70680 0.97140 0.03200
C 	C 	0.12490 0.77380 0.93140 -0.07600
H 	H 	0.17440 0.77640 0.90660 0.06100
C 	C 	0.18050 0.64060 0.97810 0.09500
C 	C 	0.18840 0.59320 0.03220 -0.16200
H 	H 	0.14880 0.59920 0.06500 0.07900
C 	C 	0.25500 0.53700 0.03760 0.06100
H 	H 	0.26010 0.50570 0.07520 -0.00700
C 	C 	0.30230 0.56860 0.94060 0.08000
H 	H 	0.34200 0.56070 0.90790 -0.01300
C 	C 	0.23730 0.62540 0.93130 -0.14000
H 	H 	0.23210 0.65390 0.89260 0.07400
N 	N 	0.37330 0.38060 0.91230 -0.23200
N 	N 	0.04350 0.00640 0.81690 -0.20400
N 	N 	0.01050 0.94560 0.85590 -0.12200
N 	N 	0.14720 0.94260 0.86116 -0.10900
N 	N 	0.22960 0.92370 0.88220 -0.20900
H 	H 	0.25860 0.89780 0.85110 0.11000
H 	H 	0.25620 0.97240 0.89280 0.11400
N 	N 	0.31230 0.52430 0.99300 -0.21500
Cd	Cd	0.94063 0.05937 0.75000 1.19000
Cd	Cd	0.05937 0.94063 0.25000 1.19000
Cd	Cd	0.44063 0.44063 -0.00000 1.18400
Cd	Cd	0.55937 0.55937 0.50000 1.19100
