data_crystal

_cell_length_a 35.84090
_cell_length_b 42.75160
_cell_length_c 50.81300
_cell_angle_alpha 90.00000
_cell_angle_beta  91.52800
_cell_angle_gamma 90.00000

_symmetry_space_group_name_	'P 1'
_symmetry_space_group_name_H-M	'P 1'

loop_
_symmetry_equiv_pos_as_xyz
  x,y,z

loop_
_atom_site_label
_atom_site_type_symbol
_atom_site_fract_x
_atom_site_fract_y
_atom_site_fract_z
_atom_site_charge
Zn	Zn	0.38589 0.40853 0.19797 1.20100
Zn	Zn	0.43392 0.35294 0.19631 1.19900
Zn	Zn	0.85748 0.35585 0.19508 1.20000
Zn	Zn	0.91014 0.40824 0.19212 1.19600
Zn	Zn	0.14387 0.47468 0.46581 1.19400
Zn	Zn	0.14425 0.50890 0.41570 1.19200
Zn	Zn	0.10391 0.62328 0.21151 1.21800
Zn	Zn	0.15309 0.58240 0.17263 1.18200
Zn	Zn	0.19219 0.62564 0.21532 1.21100
Zn	Zn	0.14734 0.65473 0.16586 1.20700
O 	O 	0.14930 0.62221 0.19211 -0.95800
C 	C 	0.51160 0.26552 0.19444 -0.64300
C 	C 	0.51000 0.24141 0.21315 0.34300
H 	H 	0.49310 0.24340 0.22710 -0.07200
C 	C 	0.53210 0.21493 0.21208 -0.25300
H 	H 	0.53070 0.19950 0.22550 0.12800
C 	C 	0.55640 0.21080 0.19163 0.09000
C 	C 	0.55920 0.23448 0.17305 -0.25800
H 	H 	0.57590 0.23220 0.15900 0.12200
C 	C 	0.53780 0.26133 0.17476 0.33900
H 	H 	0.54100 0.27750 0.16220 -0.08800
B 	B 	0.48520 0.29580 0.19530 1.53900
O 	O 	0.45397 0.28962 0.17588 -0.51700
N 	N 	0.42810 0.31302 0.17229 -0.16700
C 	C 	0.40470 0.30730 0.15390 0.09400
H 	H 	0.40720 0.28770 0.14530 0.02400
C 	C 	0.37460 0.32720 0.14430 -0.20100
C 	C 	0.36600 0.35630 0.15650 0.30100
C 	C 	0.33460 0.37320 0.14510 -0.20100
C 	C 	0.31540 0.36260 0.12250 0.14000
H 	H 	0.29570 0.37490 0.11510 -0.03500
C 	C 	0.32460 0.33460 0.11060 -0.28200
C 	C 	0.35410 0.31750 0.12190 0.13700
H 	H 	0.36060 0.29820 0.11390 -0.03600
C 	C 	0.32250 0.40210 0.15630 0.10300
H 	H 	0.29980 0.41060 0.14940 0.02100
N 	N 	0.33890 0.41760 0.17440 -0.16800
O 	O 	0.31930 0.44437 0.17939 -0.54500
B 	B 	0.33460 0.46620 0.19900 1.53100
O 	O 	0.50798 0.32215 0.18672 -0.54100
N 	N 	0.49050 0.35155 0.18704 -0.17200
C 	C 	0.51330 0.37312 0.18160 0.10000
H 	H 	0.53810 0.36680 0.17810 0.02000
C 	C 	0.50570 0.40669 0.18020 -0.20600
C 	C 	0.46950 0.41916 0.18380 0.29000
C 	C 	0.46580 0.45201 0.18230 -0.20500
C 	C 	0.49770 0.47100 0.17900 0.14800
H 	H 	0.49470 0.49300 0.17900 -0.04100
C 	C 	0.53320 0.45875 0.17570 -0.30800
C 	C 	0.53560 0.42636 0.17530 0.15700
H 	H 	0.55890 0.41710 0.17140 -0.04900
C 	C 	0.43110 0.46880 0.18590 0.09800
H 	H 	0.43140 0.49090 0.18390 0.01900
N 	N 	0.40040 0.45597 0.19160 -0.17000
O 	O 	0.37154 0.47845 0.19392 -0.54900
O 	O 	0.47249 0.29850 0.22213 -0.54000
N 	N 	0.44820 0.32243 0.22748 -0.15900
C 	C 	0.43840 0.32137 0.25124 0.08200
H 	H 	0.44930 0.30540 0.26200 0.04200
C 	C 	0.41190 0.34232 0.26364 -0.14600
C 	C 	0.39640 0.36876 0.25007 0.24900
C 	C 	0.37060 0.38767 0.26430 -0.15500
C 	C 	0.36100 0.37900 0.28976 0.06400
H 	H 	0.34320 0.39140 0.29850 -0.00700
C 	C 	0.37590 0.35340 0.30294 -0.15700
C 	C 	0.40180 0.33540 0.28961 0.06500
H 	H 	0.41300 0.31790 0.29830 0.01100
C 	C 	0.35310 0.41530 0.25307 0.07500
H 	H 	0.33790 0.42720 0.26440 0.02300
N 	N 	0.35600 0.42540 0.22976 -0.16800
O 	O 	0.33420 0.45220 0.22571 -0.52900
C 	C 	0.30510 0.49403 0.19999 -0.56800
C 	C 	0.25200 0.54311 0.20178 -0.02800
C 	C 	0.58020 0.18190 0.19002 0.32200
O 	O 	0.57731 0.16238 0.20815 -0.49100
O 	O 	0.60243 0.18103 0.17120 -0.47800
O 	O 	0.38340 0.36583 0.17686 -0.55600
C 	C 	0.30370 0.32260 0.08590 0.61200
O 	O 	0.44134 0.40084 0.18847 -0.55100
C 	C 	0.56800 0.47950 0.17340 0.66900
C 	C 	0.59420 0.47640 0.19870 -0.82400
H 	H 	0.58130 0.48460 0.21400 0.25700
H 	H 	0.60060 0.45440 0.20160 0.26000
H 	H 	0.61710 0.48850 0.19620 0.24100
C 	C 	0.59400 0.46590 0.15420 -0.97100
H 	H 	0.59690 0.44350 0.15770 0.29300
H 	H 	0.58390 0.46900 0.13630 0.28600
H 	H 	0.61830 0.47620 0.15610 0.28400
C 	C 	0.55810 0.51360 0.17290 -0.96500
H 	H 	0.54070 0.51810 0.18700 0.29300
H 	H 	0.58080 0.52610 0.17560 0.28500
H 	H 	0.54640 0.51890 0.15580 0.28700
O 	O 	0.40533 0.37603 0.22612 -0.53800
C 	C 	0.36420 0.34490 0.33082 0.35700
C 	C 	0.22370 0.56839 0.20370 0.33500
O 	O 	0.19085 0.56142 0.19611 -0.51900
O 	O 	0.23229 0.59485 0.21289 -0.48400
C 	C 	0.27590 0.49660 0.18090 -0.10100
H 	H 	0.27410 0.48180 0.16710 0.05400
C 	C 	0.24970 0.52040 0.18200 -0.27100
H 	H 	0.23000 0.52130 0.16920 0.09300
C 	C 	0.28140 0.54180 0.22010 -0.02800
H 	H 	0.28400 0.55740 0.23330 0.02500
C 	C 	0.30680 0.51750 0.21890 0.13300
H 	H 	0.32660 0.51690 0.23170 -0.03700
C 	C 	0.39430 0.34910 0.35160 0.00800
H 	H 	0.41770 0.34000 0.34540 -0.06200
H 	H 	0.39790 0.37140 0.35510 0.04100
H 	H 	0.38700 0.33850 0.36780 -0.01300
C 	C 	0.35670 0.30870 0.33150 -0.47900
H 	H 	0.33710 0.30340 0.31850 0.15000
H 	H 	0.37970 0.29740 0.32750 0.24700
H 	H 	0.34870 0.30270 0.34910 0.15900
C 	C 	0.32680 0.35820 0.33850 -0.20800
H 	H 	0.30850 0.35470 0.32410 0.03900
H 	H 	0.31850 0.34780 0.35440 0.04500
H 	H 	0.32940 0.38070 0.34180 0.06500
C 	C 	0.32890 0.32500 0.06200 -0.85600
H 	H 	0.35230 0.31380 0.06570 0.26000
H 	H 	0.31610 0.31560 0.04660 0.24900
H 	H 	0.33420 0.34700 0.05830 0.25900
C 	C 	0.26720 0.33980 0.08030 -0.88900
H 	H 	0.25510 0.33130 0.06430 0.26100
H 	H 	0.25070 0.33720 0.09520 0.27000
H 	H 	0.27230 0.36210 0.07770 0.26900
C 	C 	0.29600 0.28740 0.08930 -0.86100
H 	H 	0.31960 0.27640 0.09290 0.26500
H 	H 	0.27930 0.28430 0.10400 0.26400
H 	H 	0.28420 0.27920 0.07310 0.25300
C 	C 	0.14040 0.42170 0.54612 -0.59700
C 	C 	0.13730 0.39370 0.59645 -0.01500
B 	B 	0.14360 0.43890 0.51853 1.57300
O 	O 	0.14180 0.47199 0.52490 -0.55600
N 	N 	0.13950 0.49340 0.50412 -0.16200
C 	C 	0.13800 0.52130 0.51192 0.08200
H 	H 	0.13820 0.52460 0.53040 0.01800
C 	C 	0.13600 0.54887 0.49532 -0.17300
C 	C 	0.13700 0.54770 0.46725 0.28000
C 	C 	0.13400 0.57670 0.45350 -0.17400
C 	C 	0.12920 0.60420 0.46792 0.07300
H 	H 	0.12600 0.62320 0.45840 -0.00300
C 	C 	0.12890 0.60560 0.49478 -0.15900
C 	C 	0.13180 0.57780 0.50830 0.06900
H 	H 	0.13090 0.57800 0.52700 -0.01200
C 	C 	0.13590 0.57940 0.42539 0.07900
H 	H 	0.13390 0.60000 0.41840 0.03000
N 	N 	0.13980 0.55772 0.40880 -0.16400
O 	O 	0.14070 0.56835 0.38337 -0.52500
B 	B 	0.14570 0.54460 0.36304 1.47000
O 	O 	0.11120 0.42846 0.50317 -0.55400
N 	N 	0.10520 0.44160 0.47851 -0.16500
C 	C 	0.07270 0.43550 0.46934 0.09700
H 	H 	0.05710 0.42280 0.47980 0.01800
C 	C 	0.05770 0.44620 0.44447 -0.20600
C 	C 	0.07800 0.46430 0.42574 0.29100
C 	C 	0.05810 0.47320 0.40216 -0.19800
C 	C 	0.02030 0.46550 0.39872 0.15600
H 	H 	0.00750 0.47220 0.38310 -0.02500
C 	C 	0.00050 0.44840 0.41702 -0.31300
C 	C 	0.01990 0.43900 0.43926 0.15700
H 	H 	0.00700 0.42690 0.45180 -0.04700
C 	C 	0.07480 0.49200 0.38172 0.10000
H 	H 	0.06100 0.49440 0.36560 0.03500
N 	N 	0.10630 0.50542 0.38373 -0.16800
O 	O 	0.11470 0.52119 0.36128 -0.49700
C 	C 	0.14580 0.56220 0.33514 -0.62800
C 	C 	0.11370 0.56410 0.31886 0.32600
H 	H 	0.09150 0.55410 0.32420 -0.06600
C 	C 	0.11360 0.58030 0.29512 -0.24400
H 	H 	0.09120 0.58210 0.28480 0.12500
C 	C 	0.14620 0.59388 0.28644 0.08700
C 	C 	0.17860 0.59160 0.30171 -0.25500
H 	H 	0.20100 0.60090 0.29600 0.12100
C 	C 	0.17810 0.57570 0.32556 0.32900
H 	H 	0.20070 0.57390 0.33570 -0.08700
C 	C 	0.13650 0.38080 0.62373 0.29900
O 	O 	0.14858 0.35353 0.62776 -0.47000
O 	O 	0.12000 0.39560 0.64072 -0.49300
O 	O 	0.13790 0.52162 0.45522 -0.56800
C 	C 	0.12400 0.63700 0.50890 0.32200
O 	O 	0.11220 0.47147 0.42989 -0.55200
C 	C 	0.95930 0.43920 0.41330 0.69200
C 	C 	0.95430 0.40340 0.41570 -0.92800
H 	H 	0.96430 0.39630 0.43280 0.28100
H 	H 	0.92780 0.39810 0.41400 0.28200
H 	H 	0.96790 0.39300 0.40160 0.30000
C 	C 	0.93670 0.45380 0.43550 -0.95100
H 	H 	0.94770 0.44770 0.45260 0.29500
H 	H 	0.93710 0.47660 0.43390 0.29700
H 	H 	0.91080 0.44640 0.43420 0.28900
C 	C 	0.94340 0.44790 0.38670 -1.00000
H 	H 	0.95840 0.43820 0.37300 0.33000
H 	H 	0.91760 0.44040 0.38500 0.30500
H 	H 	0.94390 0.47070 0.38470 0.30700
C 	C 	0.14640 0.60984 0.26006 0.30900
O 	O 	0.11526 0.61289 0.24811 -0.48000
O 	O 	0.17775 0.61917 0.25214 -0.47300
O 	O 	0.17480 0.42620 0.50320 -0.35000
C 	C 	0.15200 0.37770 0.57560 -0.05300
H 	H 	0.16120 0.35710 0.57810 0.04900
C 	C 	0.15350 0.39160 0.55100 0.12800
H 	H 	0.16380 0.38010 0.53690 -0.02700
C 	C 	0.12410 0.43700 0.56740 -0.05400
H 	H 	0.11360 0.45710 0.56460 0.03300
C 	C 	0.12270 0.42390 0.59230 -0.25800
H 	H 	0.11210 0.43520 0.60630 0.09500
N 	N 	0.18210 0.44170 0.48070 -0.06500
C 	C 	0.21130 0.43050 0.47080 0.03200
H 	H 	0.22420 0.41440 0.48030 0.03300
C 	C 	0.22630 0.44050 0.44600 -0.02700
C 	C 	0.20920 0.46350 0.42900 0.04600
C 	C 	0.22630 0.46920 0.40430 0.09700
C 	C 	0.25900 0.45320 0.39770 -0.11700
H 	H 	0.26950 0.45690 0.38100 0.05600
C 	C 	0.27600 0.43230 0.41480 0.04000
C 	C 	0.25940 0.42620 0.43840 -0.06700
H 	H 	0.27100 0.41160 0.45010 0.04100
C 	C 	0.21200 0.49100 0.38480 -0.20800
H 	H 	0.22570 0.49300 0.36910 0.10100
N 	N 	0.18300 0.50770 0.38660 -0.03300
O 	O 	0.17810 0.52440 0.36390 -0.15900
O 	O 	0.18070 0.47830 0.43590 -0.17800
C 	C 	0.31280 0.41660 0.40770 0.06500
C 	C 	0.30360 0.38170 0.40770 -0.45500
H 	H 	0.29660 0.37520 0.42540 0.14800
H 	H 	0.28280 0.37760 0.39520 0.15300
H 	H 	0.32550 0.36980 0.40240 0.13400
C 	C 	0.34350 0.42440 0.42790 -0.09300
H 	H 	0.33590 0.41750 0.44540 -0.04800
H 	H 	0.36650 0.41350 0.42330 0.03100
H 	H 	0.34780 0.44700 0.42810 0.09400
C 	C 	0.32380 0.42690 0.38040 -0.49300
H 	H 	0.30370 0.42170 0.36770 0.15500
H 	H 	0.32800 0.44950 0.38040 0.19700
H 	H 	0.34670 0.41610 0.37560 0.14000
C 	C 	0.77570 0.27126 0.19831 -0.69900
C 	C 	0.78090 0.24677 0.21620 0.38000
H 	H 	0.80010 0.24870 0.22930 -0.08900
C 	C 	0.75950 0.22006 0.21580 -0.28400
H 	H 	0.76370 0.20420 0.22870 0.13300
C 	C 	0.73160 0.21636 0.19642 0.10400
C 	C 	0.72480 0.24060 0.17872 -0.29300
H 	H 	0.70530 0.23890 0.16570 0.13100
C 	C 	0.74650 0.26718 0.18018 0.39300
H 	H 	0.74110 0.28360 0.16810 -0.10800
B 	B 	0.80300 0.30100 0.19790 1.62700
O 	O 	0.77920 0.32932 0.19656 -0.54600
N 	N 	0.79840 0.35825 0.19460 -0.16600
C 	C 	0.77610 0.38130 0.19490 0.08700
H 	H 	0.75030 0.37680 0.19680 0.02400
C 	C 	0.78660 0.41376 0.19279 -0.16400
C 	C 	0.82390 0.42374 0.18964 0.26600
C 	C 	0.82978 0.45658 0.18668 -0.15100
C 	C 	0.79925 0.47757 0.18702 0.06600
H 	H 	0.80380 0.49930 0.18500 0.00900
C 	C 	0.76308 0.46731 0.19016 -0.15800
C 	C 	0.75740 0.43531 0.19270 0.06900
H 	H 	0.73270 0.42780 0.19440 -0.00100
C 	C 	0.86685 0.47029 0.18506 0.07800
H 	H 	0.86780 0.49220 0.18220 0.04500
N 	N 	0.89797 0.45645 0.18698 -0.15800
O 	O 	0.92785 0.47662 0.18552 -0.51200
B 	B 	0.96570 0.46300 0.18900 1.51800
O 	O 	0.82360 0.29622 0.17433 -0.57400
N 	N 	0.85140 0.31800 0.16957 -0.16700
C 	C 	0.86750 0.31210 0.14820 0.08900
H 	H 	0.85940 0.29390 0.13900 0.03000
C 	C 	0.89670 0.33020 0.13654 -0.17700
C 	C 	0.91190 0.35760 0.14841 0.28800
C 	C 	0.93870 0.37436 0.13328 -0.17200
C 	C 	0.94930 0.36350 0.10865 0.08500
H 	H 	0.96740 0.37500 0.09930 -0.00600
C 	C 	0.93450 0.33660 0.09725 -0.16100
C 	C 	0.90870 0.32070 0.11190 0.08100
H 	H 	0.89840 0.30200 0.10470 -0.00300
C 	C 	0.95590 0.40291 0.14246 0.07900
H 	H 	0.97290 0.41240 0.13090 0.02100
N 	N 	0.95120 0.41681 0.16396 -0.17400
O 	O 	0.97453 0.44172 0.16732 -0.56000
O 	O 	0.82470 0.30011 0.22242 -0.56600
N 	N 	0.85030 0.32440 0.22597 -0.16100
C 	C 	0.86510 0.32360 0.24880 0.06000
H 	H 	0.85650 0.30750 0.26000 0.04600
C 	C 	0.89320 0.34410 0.26007 -0.10400
C 	C 	0.90800 0.36960 0.24513 0.21600
C 	C 	0.93460 0.38910 0.25843 -0.09200
C 	C 	0.94540 0.38280 0.28459 -0.06700
C 	C 	0.90560 0.33940 0.28597 -0.02900
C 	C 	0.95210 0.41610 0.24598 0.04100
H 	H 	0.96740 0.42910 0.25690 0.06000
N 	N 	0.94860 0.42343 0.22179 -0.16100
O 	O 	0.97180 0.44841 0.21524 -0.52500
C 	C 	0.99466 0.49142 0.18908 -0.65200
C 	C 	0.98850 0.51961 0.20200 0.35700
H 	H 	0.96540 0.52270 0.21040 -0.08300
C 	C 	0.01489 0.54322 0.20287 -0.25500
H 	H 	0.00980 0.56220 0.21180 0.12700
C 	C 	0.04888 0.53924 0.19076 0.08000
C 	C 	0.05550 0.51200 0.17729 -0.25100
H 	H 	0.07830 0.50930 0.16840 0.11000
C 	C 	0.02885 0.48849 0.17665 0.33600
H 	H 	0.03400 0.46970 0.16740 -0.09600
C 	C 	0.71020 0.18650 0.19350 0.31700
O 	O 	0.71588 0.16651 0.21125 -0.49100
O 	O 	0.68756 0.18449 0.17429 -0.49500
O 	O 	0.85116 0.40421 0.18890 -0.53900
C 	C 	0.73020 0.48983 0.19190 0.34800
O 	O 	0.90060 0.36785 0.17004 -0.56400
C 	C 	0.94730 0.32490 0.07040 0.35300
O 	O 	0.89800 0.37411 0.22078 -0.53700
C 	C 	0.07818 0.56436 0.19207 0.35000
O 	O 	0.06901 0.59035 0.20123 -0.48100
O 	O 	0.10982 0.55750 0.18503 -0.49500
C 	C 	0.93430 0.35630 0.29810 0.13500
C 	C 	0.72180 0.51000 0.16840 -0.17100
H 	H 	0.74500 0.51880 0.16200 -0.00700
H 	H 	0.70970 0.49740 0.15450 0.07600
H 	H 	0.70500 0.52700 0.17340 0.04100
C 	C 	0.74140 0.51270 0.21540 -0.53800
H 	H 	0.74720 0.50040 0.23120 0.18100
H 	H 	0.76330 0.52490 0.21070 0.17700
H 	H 	0.72060 0.52680 0.21870 0.17600
C 	C 	0.69440 0.47620 0.20200 -0.28800
H 	H 	0.70010 0.46300 0.21730 -0.06100
H 	H 	0.67770 0.49310 0.20700 0.09900
H 	H 	0.68240 0.46350 0.18810 0.10800
C 	C 	0.92600 0.29660 0.05950 -0.21000
H 	H 	0.92630 0.27990 0.07260 0.05600
H 	H 	0.90010 0.30260 0.05530 0.07700
H 	H 	0.93790 0.28930 0.04350 0.05500
C 	C 	0.98710 0.31260 0.07720 -0.21700
H 	H 	0.00240 0.32970 0.08440 0.05800
H 	H 	0.98570 0.29580 0.09020 -0.00300
H 	H 	0.99840 0.30450 0.06120 0.07300
C 	C 	0.94830 0.35240 0.05130 -0.37100
H 	H 	0.96230 0.36970 0.05940 0.00100
H 	H 	0.96060 0.34580 0.03510 0.12000
H 	H 	0.92280 0.35920 0.04690 0.23400
C 	C 	0.95610 0.34370 0.32230 -0.18100
C 	C 	0.94080 0.31300 0.33220 0.05800
H 	H 	0.94310 0.29700 0.31850 0.01800
H 	H 	0.95500 0.30650 0.34810 0.01200
H 	H 	0.91450 0.31560 0.33640 -0.12500
C 	C 	0.95270 0.36880 0.34340 1.21600
H 	H 	0.96260 0.38860 0.33690 -1.57300
H 	H 	0.92630 0.37150 0.34760 -0.18100
H 	H 	0.96680 0.36240 0.35930 -0.38200
C 	C 	0.99740 0.33770 0.31760 -0.01500
H 	H 	0.00900 0.35690 0.31110 0.00700
H 	H 	0.00990 0.33130 0.33410 0.04700
H 	H 	0.99990 0.32110 0.30450 0.02000
C 	C 	0.09220 0.63630 0.52850 -0.19600
H 	H 	0.09560 0.61830 0.54020 0.07100
H 	H 	0.09250 0.65560 0.53880 0.05700
H 	H 	0.06830 0.63440 0.51880 0.04100
C 	C 	0.11840 0.66520 0.49060 -0.18400
H 	H 	0.13860 0.66590 0.47800 0.05800
H 	H 	0.09440 0.66330 0.48110 0.06000
H 	H 	0.11860 0.68440 0.50110 0.05100
C 	C 	0.16130 0.64400 0.52390 -0.33000
H 	H 	0.16700 0.62690 0.53620 0.09300
H 	H 	0.18140 0.64590 0.51130 0.05700
H 	H 	0.15910 0.66360 0.53370 0.10300
C 	C 	0.26790 0.48950 0.19180 0.29800
H 	H 	0.26030 0.46960 0.18540 -0.07100
C 	C 	0.24170 0.51330 0.19290 0.14500
H 	H 	0.21660 0.50940 0.18750 -0.01700
C 	C 	0.28780 0.54720 0.21200 -0.09700
H 	H 	0.29490 0.56660 0.21960 0.05900
C 	C 	0.31340 0.52300 0.21110 0.06700
H 	H 	0.33780 0.52630 0.21850 -0.00400
C 	C 	0.38810 0.32040 0.34380 -0.19400
H 	H 	0.41440 0.32650 0.34310 0.12900
H 	H 	0.38110 0.31810 0.36220 0.06900
H 	H 	0.38440 0.30040 0.33470 -0.05800
C 	C 	0.32270 0.33770 0.33090 -0.14700
H 	H 	0.30890 0.35470 0.32210 0.07200
H 	H 	0.31790 0.31800 0.32150 0.04500
H 	H 	0.31460 0.33580 0.34900 0.06000
C 	C 	0.37230 0.37440 0.34820 -0.59700
H 	H 	0.35780 0.39210 0.34120 0.17100
H 	H 	0.36520 0.37020 0.36630 0.17600
H 	H 	0.39890 0.37940 0.34790 0.15200
O 	O 	0.18250 0.43680 0.50920 -0.20400
C 	C 	0.11040 0.42630 0.56250 0.28100
H 	H 	0.09030 0.43910 0.55640 -0.07400
C 	C 	0.10860 0.41300 0.58720 0.10500
H 	H 	0.08780 0.41700 0.59790 0.00200
C 	C 	0.16620 0.38640 0.57970 -0.09300
H 	H 	0.18480 0.37170 0.58510 0.04800
C 	C 	0.16770 0.40060 0.55530 0.09200
H 	H 	0.18800 0.39590 0.54430 -0.01100
N 	N 	0.19030 0.45140 0.48480 -0.10100
C 	C 	0.22420 0.44700 0.47920 -0.01600
H 	H 	0.23940 0.43560 0.49150 0.04300
C 	C 	0.24170 0.45810 0.45540 -0.04500
C 	C 	0.22200 0.47640 0.43570 0.11600
C 	C 	0.24320 0.48830 0.41430 -0.18100
C 	C 	0.28140 0.48130 0.41300 0.06500
H 	H 	0.29520 0.48990 0.39900 -0.01200
C 	C 	0.29970 0.46200 0.43150 -0.07600
C 	C 	0.27950 0.45140 0.45250 0.00700
H 	H 	0.29200 0.43910 0.46560 0.01600
C 	C 	0.22640 0.50610 0.39300 0.21400
H 	H 	0.24280 0.51370 0.38000 -0.04000
N 	N 	0.19210 0.51280 0.38980 -0.10800
O 	O 	0.18360 0.53100 0.36790 -0.34000
O 	O 	0.18660 0.48110 0.43660 -0.27500
C 	C 	0.34070 0.45350 0.42730 0.11800
C 	C 	0.35850 0.43690 0.45040 -0.52000
H 	H 	0.35530 0.44940 0.46640 0.16400
H 	H 	0.34670 0.41640 0.45260 0.22200
H 	H 	0.38520 0.43410 0.44740 0.15500
C 	C 	0.36280 0.48400 0.42400 -0.46200
H 	H 	0.35220 0.49580 0.40900 0.14100
H 	H 	0.36120 0.49670 0.44000 0.14800
H 	H 	0.38900 0.47910 0.42070 0.13500
C 	C 	0.34390 0.43620 0.40110 -0.14900
H 	H 	0.33170 0.44850 0.38710 -0.01900
H 	H 	0.37040 0.43340 0.39720 0.03400
H 	H 	0.33180 0.41570 0.40230 0.14300
C 	C 	0.08440 0.64970 0.50090 -0.34800
H 	H 	0.08260 0.65210 0.48170 0.09300
H 	H 	0.06540 0.63490 0.50660 0.10400
H 	H 	0.08050 0.67000 0.50930 0.11300
C 	C 	0.15180 0.66180 0.50100 -0.19300
H 	H 	0.15140 0.66380 0.48170 0.04100
H 	H 	0.14510 0.68190 0.50880 0.05500
H 	H 	0.17690 0.65570 0.50720 0.08300
C 	C 	0.12460 0.63400 0.53860 -0.17600
H 	H 	0.10660 0.61800 0.54370 0.01900
H 	H 	0.14970 0.62800 0.54480 0.04900
H 	H 	0.11790 0.65410 0.54640 0.04900
C 	C 	0.70000 0.47980 0.17090 -0.36300
H 	H 	0.69210 0.45830 0.17430 0.07900
H 	H 	0.67840 0.49380 0.17180 0.09900
H 	H 	0.71040 0.48110 0.15330 0.08200
C 	C 	0.74020 0.52290 0.18480 -0.16900
H 	H 	0.75230 0.52310 0.16770 0.11200
H 	H 	0.71740 0.53570 0.18360 0.05400
H 	H 	0.75720 0.53160 0.19830 0.03000
C 	C 	0.71120 0.48830 0.21830 -0.03200
H 	H 	0.70510 0.46650 0.22230 0.15900
H 	H 	0.72800 0.49670 0.23210 0.00100
H 	H 	0.68820 0.50080 0.21740 -0.01300
C 	C 	0.95580 0.28990 0.07170 -0.34200
H 	H 	0.93430 0.27870 0.07870 0.09200
H 	H 	0.96090 0.28210 0.05400 0.10700
H 	H 	0.97770 0.28630 0.08330 0.15800
C 	C 	0.98010 0.34330 0.05970 -0.26000
H 	H 	0.97380 0.36560 0.05910 0.16700
H 	H 	0.00220 0.34020 0.07120 0.07800
H 	H 	0.98530 0.33600 0.04190 0.06100
C 	C 	0.91570 0.33000 0.04950 -0.11600
H 	H 	0.90970 0.35230 0.04830 -0.08700
H 	H 	0.92390 0.32250 0.03230 0.04900
H 	H 	0.89340 0.31830 0.05450 0.02600
C 	C 	0.92850 0.36010 0.29960 0.04500
C 	C 	0.92860 0.36230 0.32970 -0.66000
C 	C 	0.91700 0.33170 0.34200 0.37800
H 	H 	0.89220 0.32570 0.33510 -0.03200
H 	H 	0.93510 0.31540 0.33770 -0.06600
H 	H 	0.91620 0.33410 0.36120 -0.09600
C 	C 	0.96690 0.37400 0.33900 0.62900
H 	H 	0.97240 0.39380 0.33030 1.01700
H 	H 	0.96700 0.37720 0.35810 -0.08300
H 	H 	0.98590 0.35850 0.33470 -0.27900
C 	C 	0.89990 0.38580 0.34010 0.29700
H 	H 	0.90510 0.40660 0.33310 -0.04600
H 	H 	0.87470 0.37930 0.33440 -0.05800
H 	H 	0.90160 0.38630 0.35940 -0.05300
Zn	Zn	0.88589 0.90853 0.19797 1.20000
Zn	Zn	0.93392 0.85294 0.19631 1.19800
Zn	Zn	0.35748 0.85585 0.19508 1.19900
Zn	Zn	0.41014 0.90824 0.19212 1.19500
Zn	Zn	0.64387 0.97468 0.46581 1.19300
Zn	Zn	0.64425 0.00890 0.41570 1.19100
Zn	Zn	0.60391 0.12328 0.21151 1.21700
Zn	Zn	0.65309 0.08240 0.17263 1.18100
Zn	Zn	0.69219 0.12564 0.21532 1.21000
Zn	Zn	0.64734 0.15473 0.16586 1.20600
O 	O 	0.64930 0.12221 0.19211 -0.95900
C 	C 	0.01160 0.76552 0.19444 -0.64400
C 	C 	0.01000 0.74141 0.21315 0.34200
H 	H 	0.99310 0.74340 0.22710 -0.07300
C 	C 	0.03210 0.71493 0.21208 -0.25400
H 	H 	0.03070 0.69950 0.22550 0.12700
C 	C 	0.05640 0.71080 0.19163 0.08900
C 	C 	0.05920 0.73448 0.17305 -0.25900
H 	H 	0.07590 0.73220 0.15900 0.12200
C 	C 	0.03780 0.76133 0.17476 0.33900
H 	H 	0.04100 0.77750 0.16220 -0.08800
B 	B 	0.98520 0.79580 0.19530 1.53900
O 	O 	0.95397 0.78962 0.17588 -0.51700
N 	N 	0.92810 0.81302 0.17229 -0.16700
C 	C 	0.90470 0.80730 0.15390 0.09400
H 	H 	0.90720 0.78770 0.14530 0.02400
C 	C 	0.87460 0.82720 0.14430 -0.20100
C 	C 	0.86600 0.85630 0.15650 0.30100
C 	C 	0.83460 0.87320 0.14510 -0.20100
C 	C 	0.81540 0.86260 0.12250 0.14000
H 	H 	0.79570 0.87490 0.11510 -0.03500
C 	C 	0.82460 0.83460 0.11060 -0.28200
C 	C 	0.85410 0.81750 0.12190 0.13700
H 	H 	0.86060 0.79820 0.11390 -0.03600
C 	C 	0.82250 0.90210 0.15630 0.10300
H 	H 	0.79980 0.91060 0.14940 0.02100
N 	N 	0.83890 0.91760 0.17440 -0.16800
O 	O 	0.81930 0.94437 0.17939 -0.54500
B 	B 	0.83460 0.96620 0.19900 1.53100
O 	O 	0.00798 0.82215 0.18672 -0.54100
N 	N 	0.99050 0.85155 0.18704 -0.17200
C 	C 	0.01330 0.87312 0.18160 0.10000
H 	H 	0.03810 0.86680 0.17810 0.02000
C 	C 	0.00570 0.90669 0.18020 -0.20600
C 	C 	0.96950 0.91916 0.18380 0.29000
C 	C 	0.96580 0.95201 0.18230 -0.20500
C 	C 	0.99770 0.97100 0.17900 0.14800
H 	H 	0.99470 0.99300 0.17900 -0.04100
C 	C 	0.03320 0.95875 0.17570 -0.30800
C 	C 	0.03560 0.92636 0.17530 0.15700
H 	H 	0.05890 0.91710 0.17140 -0.04900
C 	C 	0.93110 0.96880 0.18590 0.09800
H 	H 	0.93140 0.99090 0.18390 0.01900
N 	N 	0.90040 0.95597 0.19160 -0.17000
O 	O 	0.87154 0.97845 0.19392 -0.54900
O 	O 	0.97249 0.79850 0.22213 -0.54000
N 	N 	0.94820 0.82243 0.22748 -0.15900
C 	C 	0.93840 0.82137 0.25124 0.08200
H 	H 	0.94930 0.80540 0.26200 0.04200
C 	C 	0.91190 0.84232 0.26364 -0.14600
C 	C 	0.89640 0.86876 0.25007 0.24900
C 	C 	0.87060 0.88767 0.26430 -0.15500
C 	C 	0.86100 0.87900 0.28976 0.06400
H 	H 	0.84320 0.89140 0.29850 -0.00700
C 	C 	0.87590 0.85340 0.30294 -0.15700
C 	C 	0.90180 0.83540 0.28961 0.06500
H 	H 	0.91300 0.81790 0.29830 0.01100
C 	C 	0.85310 0.91530 0.25307 0.07500
H 	H 	0.83790 0.92720 0.26440 0.02300
N 	N 	0.85600 0.92540 0.22976 -0.16800
O 	O 	0.83420 0.95220 0.22571 -0.52900
C 	C 	0.80510 0.99403 0.19999 -0.56800
C 	C 	0.75200 0.04311 0.20178 -0.02800
C 	C 	0.08020 0.68190 0.19002 0.32200
O 	O 	0.07731 0.66238 0.20815 -0.49100
O 	O 	0.10243 0.68103 0.17120 -0.47800
O 	O 	0.88340 0.86583 0.17686 -0.55600
C 	C 	0.80370 0.82260 0.08590 0.61200
O 	O 	0.94134 0.90084 0.18847 -0.55100
C 	C 	0.06800 0.97950 0.17340 0.66900
C 	C 	0.09420 0.97640 0.19870 -0.82400
H 	H 	0.08130 0.98460 0.21400 0.25700
H 	H 	0.10060 0.95440 0.20160 0.26000
H 	H 	0.11710 0.98850 0.19620 0.24100
C 	C 	0.09400 0.96590 0.15420 -0.97100
H 	H 	0.09690 0.94350 0.15770 0.29300
H 	H 	0.08390 0.96900 0.13630 0.28600
H 	H 	0.11830 0.97620 0.15610 0.28400
C 	C 	0.05810 0.01360 0.17290 -0.96500
H 	H 	0.04070 0.01810 0.18700 0.29300
H 	H 	0.08080 0.02610 0.17560 0.28500
H 	H 	0.04640 0.01890 0.15580 0.28700
O 	O 	0.90533 0.87603 0.22612 -0.53800
C 	C 	0.86420 0.84490 0.33082 0.35700
C 	C 	0.72370 0.06839 0.20370 0.33500
O 	O 	0.69085 0.06142 0.19611 -0.51900
O 	O 	0.73229 0.09485 0.21289 -0.48400
C 	C 	0.77590 0.99660 0.18090 -0.10100
H 	H 	0.77410 0.98180 0.16710 0.05400
C 	C 	0.74970 0.02040 0.18200 -0.27100
H 	H 	0.73000 0.02130 0.16920 0.09300
C 	C 	0.78140 0.04180 0.22010 -0.02800
H 	H 	0.78400 0.05740 0.23330 0.02500
C 	C 	0.80680 0.01750 0.21890 0.13300
H 	H 	0.82660 0.01690 0.23170 -0.03700
C 	C 	0.89430 0.84910 0.35160 0.00800
H 	H 	0.91770 0.84000 0.34540 -0.06200
H 	H 	0.89790 0.87140 0.35510 0.04100
H 	H 	0.88700 0.83850 0.36780 -0.01300
C 	C 	0.85670 0.80870 0.33150 -0.47900
H 	H 	0.83710 0.80340 0.31850 0.15000
H 	H 	0.87970 0.79740 0.32750 0.24700
H 	H 	0.84870 0.80270 0.34910 0.15900
C 	C 	0.82680 0.85820 0.33850 -0.20800
H 	H 	0.80850 0.85470 0.32410 0.03900
H 	H 	0.81850 0.84780 0.35440 0.04500
H 	H 	0.82940 0.88070 0.34180 0.06500
C 	C 	0.82890 0.82500 0.06200 -0.85600
H 	H 	0.85230 0.81380 0.06570 0.26000
H 	H 	0.81610 0.81560 0.04660 0.24900
H 	H 	0.83420 0.84700 0.05830 0.25900
C 	C 	0.76720 0.83980 0.08030 -0.88900
H 	H 	0.75510 0.83130 0.06430 0.26100
H 	H 	0.75070 0.83720 0.09520 0.27000
H 	H 	0.77230 0.86210 0.07770 0.26900
C 	C 	0.79600 0.78740 0.08930 -0.86100
H 	H 	0.81960 0.77640 0.09290 0.26500
H 	H 	0.77930 0.78430 0.10400 0.26400
H 	H 	0.78420 0.77920 0.07310 0.25300
C 	C 	0.64040 0.92170 0.54612 -0.59700
C 	C 	0.63730 0.89370 0.59645 -0.01500
B 	B 	0.64360 0.93890 0.51853 1.57300
O 	O 	0.64180 0.97199 0.52490 -0.55600
N 	N 	0.63950 0.99340 0.50412 -0.16200
C 	C 	0.63800 0.02130 0.51192 0.08200
H 	H 	0.63820 0.02460 0.53040 0.01800
C 	C 	0.63600 0.04887 0.49532 -0.17300
C 	C 	0.63700 0.04770 0.46725 0.28000
C 	C 	0.63400 0.07670 0.45350 -0.17400
C 	C 	0.62920 0.10420 0.46792 0.07300
H 	H 	0.62600 0.12320 0.45840 -0.00300
C 	C 	0.62890 0.10560 0.49478 -0.15900
C 	C 	0.63180 0.07780 0.50830 0.06900
H 	H 	0.63090 0.07800 0.52700 -0.01200
C 	C 	0.63590 0.07940 0.42539 0.07900
H 	H 	0.63390 0.10000 0.41840 0.03000
N 	N 	0.63980 0.05772 0.40880 -0.16400
O 	O 	0.64070 0.06835 0.38337 -0.52500
B 	B 	0.64570 0.04460 0.36304 1.47000
O 	O 	0.61120 0.92846 0.50317 -0.55400
N 	N 	0.60520 0.94160 0.47851 -0.16500
C 	C 	0.57270 0.93550 0.46934 0.09700
H 	H 	0.55710 0.92280 0.47980 0.01800
C 	C 	0.55770 0.94620 0.44447 -0.20600
C 	C 	0.57800 0.96430 0.42574 0.29100
C 	C 	0.55810 0.97320 0.40216 -0.19800
C 	C 	0.52030 0.96550 0.39872 0.15600
H 	H 	0.50750 0.97220 0.38310 -0.02500
C 	C 	0.50050 0.94840 0.41702 -0.31300
C 	C 	0.51990 0.93900 0.43926 0.15700
H 	H 	0.50700 0.92690 0.45180 -0.04700
C 	C 	0.57480 0.99200 0.38172 0.10000
H 	H 	0.56100 0.99440 0.36560 0.03500
N 	N 	0.60630 0.00542 0.38373 -0.16800
O 	O 	0.61470 0.02119 0.36128 -0.49700
C 	C 	0.64580 0.06220 0.33514 -0.62800
C 	C 	0.61370 0.06410 0.31886 0.32600
H 	H 	0.59150 0.05410 0.32420 -0.06600
C 	C 	0.61360 0.08030 0.29512 -0.24400
H 	H 	0.59120 0.08210 0.28480 0.12500
C 	C 	0.64620 0.09388 0.28644 0.08700
C 	C 	0.67860 0.09160 0.30171 -0.25500
H 	H 	0.70100 0.10090 0.29600 0.12100
C 	C 	0.67810 0.07570 0.32556 0.32900
H 	H 	0.70070 0.07390 0.33570 -0.08700
C 	C 	0.63650 0.88080 0.62373 0.29900
O 	O 	0.64858 0.85353 0.62776 -0.47000
O 	O 	0.62000 0.89560 0.64072 -0.49300
O 	O 	0.63790 0.02162 0.45522 -0.56800
C 	C 	0.62400 0.13700 0.50890 0.32200
O 	O 	0.61220 0.97147 0.42989 -0.55200
C 	C 	0.45930 0.93920 0.41330 0.69200
C 	C 	0.45430 0.90340 0.41570 -0.92800
H 	H 	0.46430 0.89630 0.43280 0.28100
H 	H 	0.42780 0.89810 0.41400 0.28200
H 	H 	0.46790 0.89300 0.40160 0.30000
C 	C 	0.43670 0.95380 0.43550 -0.95100
H 	H 	0.44770 0.94770 0.45260 0.29500
H 	H 	0.43710 0.97660 0.43390 0.29700
H 	H 	0.41080 0.94640 0.43420 0.28900
C 	C 	0.44340 0.94790 0.38670 -1.00000
H 	H 	0.45840 0.93820 0.37300 0.33000
H 	H 	0.41760 0.94040 0.38500 0.30500
H 	H 	0.44390 0.97070 0.38470 0.30700
C 	C 	0.64640 0.10984 0.26006 0.30900
O 	O 	0.61526 0.11289 0.24811 -0.48000
O 	O 	0.67775 0.11917 0.25214 -0.47300
O 	O 	0.67480 0.92620 0.50320 -0.35000
C 	C 	0.65200 0.87770 0.57560 -0.05300
H 	H 	0.66120 0.85710 0.57810 0.04900
C 	C 	0.65350 0.89160 0.55100 0.12800
H 	H 	0.66380 0.88010 0.53690 -0.02700
C 	C 	0.62410 0.93700 0.56740 -0.05400
H 	H 	0.61360 0.95710 0.56460 0.03300
C 	C 	0.62270 0.92390 0.59230 -0.25800
H 	H 	0.61210 0.93520 0.60630 0.09500
N 	N 	0.68210 0.94170 0.48070 -0.06500
C 	C 	0.71130 0.93050 0.47080 0.03200
H 	H 	0.72420 0.91440 0.48030 0.03300
C 	C 	0.72630 0.94050 0.44600 -0.02700
C 	C 	0.70920 0.96350 0.42900 0.04600
C 	C 	0.72630 0.96920 0.40430 0.09700
C 	C 	0.75900 0.95320 0.39770 -0.11700
H 	H 	0.76950 0.95690 0.38100 0.05600
C 	C 	0.77600 0.93230 0.41480 0.04000
C 	C 	0.75940 0.92620 0.43840 -0.06700
H 	H 	0.77100 0.91160 0.45010 0.04100
C 	C 	0.71200 0.99100 0.38480 -0.20800
H 	H 	0.72570 0.99300 0.36910 0.10100
N 	N 	0.68300 0.00770 0.38660 -0.03300
O 	O 	0.67810 0.02440 0.36390 -0.15900
O 	O 	0.68070 0.97830 0.43590 -0.17800
C 	C 	0.81280 0.91660 0.40770 0.06500
C 	C 	0.80360 0.88170 0.40770 -0.45500
H 	H 	0.79660 0.87520 0.42540 0.14800
H 	H 	0.78280 0.87760 0.39520 0.15300
H 	H 	0.82550 0.86980 0.40240 0.13400
C 	C 	0.84350 0.92440 0.42790 -0.09300
H 	H 	0.83590 0.91750 0.44540 -0.04800
H 	H 	0.86650 0.91350 0.42330 0.03100
H 	H 	0.84780 0.94700 0.42810 0.09400
C 	C 	0.82380 0.92690 0.38040 -0.49300
H 	H 	0.80370 0.92170 0.36770 0.15500
H 	H 	0.82800 0.94950 0.38040 0.19700
H 	H 	0.84670 0.91610 0.37560 0.14000
C 	C 	0.27570 0.77126 0.19831 -0.69900
C 	C 	0.28090 0.74677 0.21620 0.38000
H 	H 	0.30010 0.74870 0.22930 -0.08800
C 	C 	0.25950 0.72006 0.21580 -0.28400
H 	H 	0.26370 0.70420 0.22870 0.13300
C 	C 	0.23160 0.71636 0.19642 0.10400
C 	C 	0.22480 0.74060 0.17872 -0.29300
H 	H 	0.20530 0.73890 0.16570 0.13100
C 	C 	0.24650 0.76718 0.18018 0.39300
H 	H 	0.24110 0.78360 0.16810 -0.10800
B 	B 	0.30300 0.80100 0.19790 1.62700
O 	O 	0.27920 0.82932 0.19656 -0.54600
N 	N 	0.29840 0.85825 0.19460 -0.16600
C 	C 	0.27610 0.88130 0.19490 0.08700
H 	H 	0.25030 0.87680 0.19680 0.02400
C 	C 	0.28660 0.91376 0.19279 -0.16400
C 	C 	0.32390 0.92374 0.18964 0.26600
C 	C 	0.32978 0.95658 0.18668 -0.15100
C 	C 	0.29925 0.97757 0.18702 0.06600
H 	H 	0.30380 0.99930 0.18500 0.00900
C 	C 	0.26308 0.96731 0.19016 -0.15800
C 	C 	0.25740 0.93531 0.19270 0.06900
H 	H 	0.23270 0.92780 0.19440 -0.00100
C 	C 	0.36685 0.97029 0.18506 0.07800
H 	H 	0.36780 0.99220 0.18220 0.04500
N 	N 	0.39797 0.95645 0.18698 -0.15800
O 	O 	0.42785 0.97662 0.18552 -0.51200
B 	B 	0.46570 0.96300 0.18900 1.51800
O 	O 	0.32360 0.79622 0.17433 -0.57400
N 	N 	0.35140 0.81800 0.16957 -0.16700
C 	C 	0.36750 0.81210 0.14820 0.08900
H 	H 	0.35940 0.79390 0.13900 0.03000
C 	C 	0.39670 0.83020 0.13654 -0.17700
C 	C 	0.41190 0.85760 0.14841 0.28800
C 	C 	0.43870 0.87436 0.13328 -0.17200
C 	C 	0.44930 0.86350 0.10865 0.08500
H 	H 	0.46740 0.87500 0.09930 -0.00600
C 	C 	0.43450 0.83660 0.09725 -0.16100
C 	C 	0.40870 0.82070 0.11190 0.08100
H 	H 	0.39840 0.80200 0.10470 -0.00300
C 	C 	0.45590 0.90291 0.14246 0.07900
H 	H 	0.47290 0.91240 0.13090 0.02100
N 	N 	0.45120 0.91681 0.16396 -0.17400
O 	O 	0.47453 0.94172 0.16732 -0.56000
O 	O 	0.32470 0.80011 0.22242 -0.56600
N 	N 	0.35030 0.82440 0.22597 -0.16100
C 	C 	0.36510 0.82360 0.24880 0.06000
H 	H 	0.35650 0.80750 0.26000 0.04600
C 	C 	0.39320 0.84410 0.26007 -0.10400
C 	C 	0.40800 0.86960 0.24513 0.21600
C 	C 	0.43460 0.88910 0.25843 -0.09200
C 	C 	0.44540 0.88280 0.28459 -0.06700
C 	C 	0.40560 0.83940 0.28597 -0.02900
C 	C 	0.45210 0.91610 0.24598 0.04100
H 	H 	0.46740 0.92910 0.25690 0.06000
N 	N 	0.44860 0.92343 0.22179 -0.16100
O 	O 	0.47180 0.94841 0.21524 -0.52500
C 	C 	0.49466 0.99142 0.18908 -0.65200
C 	C 	0.48850 0.01961 0.20200 0.35700
H 	H 	0.46540 0.02270 0.21040 -0.08300
C 	C 	0.51489 0.04322 0.20287 -0.25500
H 	H 	0.50980 0.06220 0.21180 0.12700
C 	C 	0.54888 0.03924 0.19076 0.08000
C 	C 	0.55550 0.01200 0.17729 -0.25100
H 	H 	0.57830 0.00930 0.16840 0.11000
C 	C 	0.52885 0.98849 0.17665 0.33600
H 	H 	0.53400 0.96970 0.16740 -0.09600
C 	C 	0.21020 0.68650 0.19350 0.31700
O 	O 	0.21588 0.66651 0.21125 -0.49100
O 	O 	0.18756 0.68449 0.17429 -0.49500
O 	O 	0.35116 0.90421 0.18890 -0.53900
C 	C 	0.23020 0.98983 0.19190 0.34800
O 	O 	0.40060 0.86785 0.17004 -0.56400
C 	C 	0.44730 0.82490 0.07040 0.35300
O 	O 	0.39800 0.87411 0.22078 -0.53700
C 	C 	0.57818 0.06436 0.19207 0.35000
O 	O 	0.56901 0.09035 0.20123 -0.48100
O 	O 	0.60982 0.05750 0.18503 -0.49500
C 	C 	0.43430 0.85630 0.29810 0.13500
C 	C 	0.22180 0.01000 0.16840 -0.17100
H 	H 	0.24500 0.01880 0.16200 -0.00700
H 	H 	0.20970 0.99740 0.15450 0.07600
H 	H 	0.20500 0.02700 0.17340 0.04100
C 	C 	0.24140 0.01270 0.21540 -0.53800
H 	H 	0.24720 0.00040 0.23120 0.18100
H 	H 	0.26330 0.02490 0.21070 0.17700
H 	H 	0.22060 0.02680 0.21870 0.17600
C 	C 	0.19440 0.97620 0.20200 -0.28800
H 	H 	0.20010 0.96300 0.21730 -0.06100
H 	H 	0.17770 0.99310 0.20700 0.09900
H 	H 	0.18240 0.96350 0.18810 0.10800
C 	C 	0.42600 0.79660 0.05950 -0.21000
H 	H 	0.42630 0.77990 0.07260 0.05600
H 	H 	0.40010 0.80260 0.05530 0.07700
H 	H 	0.43790 0.78930 0.04350 0.05500
C 	C 	0.48710 0.81260 0.07720 -0.21700
H 	H 	0.50240 0.82970 0.08440 0.05800
H 	H 	0.48570 0.79580 0.09020 -0.00200
H 	H 	0.49840 0.80450 0.06120 0.07300
C 	C 	0.44830 0.85240 0.05130 -0.37100
H 	H 	0.46230 0.86970 0.05940 0.00100
H 	H 	0.46060 0.84580 0.03510 0.12000
H 	H 	0.42280 0.85920 0.04690 0.23400
C 	C 	0.45610 0.84370 0.32230 -0.18100
C 	C 	0.44080 0.81300 0.33220 0.05800
H 	H 	0.44310 0.79700 0.31850 0.01800
H 	H 	0.45500 0.80650 0.34810 0.01200
H 	H 	0.41450 0.81560 0.33640 -0.12500
C 	C 	0.45270 0.86880 0.34340 1.21600
H 	H 	0.46260 0.88860 0.33690 -1.57300
H 	H 	0.42630 0.87150 0.34760 -0.18100
H 	H 	0.46680 0.86240 0.35930 -0.38200
C 	C 	0.49740 0.83770 0.31760 -0.01500
H 	H 	0.50900 0.85690 0.31110 0.00700
H 	H 	0.50990 0.83130 0.33410 0.04700
H 	H 	0.49990 0.82110 0.30450 0.02000
C 	C 	0.59220 0.13630 0.52850 -0.19600
H 	H 	0.59560 0.11830 0.54020 0.07100
H 	H 	0.59250 0.15560 0.53880 0.05700
H 	H 	0.56830 0.13440 0.51880 0.04100
C 	C 	0.61840 0.16520 0.49060 -0.18400
H 	H 	0.63860 0.16590 0.47800 0.05800
H 	H 	0.59440 0.16330 0.48110 0.06000
H 	H 	0.61860 0.18440 0.50110 0.05100
C 	C 	0.66130 0.14400 0.52390 -0.33000
H 	H 	0.66700 0.12690 0.53620 0.09300
H 	H 	0.68140 0.14590 0.51130 0.05700
H 	H 	0.65910 0.16360 0.53370 0.10300
C 	C 	0.76790 0.98950 0.19180 0.29800
H 	H 	0.76030 0.96960 0.18540 -0.07100
C 	C 	0.74170 0.01330 0.19290 0.14500
H 	H 	0.71660 0.00940 0.18750 -0.01700
C 	C 	0.78780 0.04720 0.21200 -0.09700
H 	H 	0.79490 0.06660 0.21960 0.05900
C 	C 	0.81340 0.02300 0.21110 0.06700
H 	H 	0.83780 0.02630 0.21850 -0.00400
C 	C 	0.88810 0.82040 0.34380 -0.19400
H 	H 	0.91440 0.82650 0.34310 0.12900
H 	H 	0.88110 0.81810 0.36220 0.06900
H 	H 	0.88440 0.80040 0.33470 -0.05800
C 	C 	0.82270 0.83770 0.33090 -0.14700
H 	H 	0.80890 0.85470 0.32210 0.07200
H 	H 	0.81790 0.81800 0.32150 0.04500
H 	H 	0.81460 0.83580 0.34900 0.06000
C 	C 	0.87230 0.87440 0.34820 -0.59700
H 	H 	0.85780 0.89210 0.34120 0.17100
H 	H 	0.86520 0.87020 0.36630 0.17600
H 	H 	0.89890 0.87940 0.34790 0.15200
O 	O 	0.68250 0.93680 0.50920 -0.20400
C 	C 	0.61040 0.92630 0.56250 0.28100
H 	H 	0.59030 0.93910 0.55640 -0.07400
C 	C 	0.60860 0.91300 0.58720 0.10500
H 	H 	0.58780 0.91700 0.59790 0.00200
C 	C 	0.66620 0.88640 0.57970 -0.09300
H 	H 	0.68480 0.87170 0.58510 0.04800
C 	C 	0.66770 0.90060 0.55530 0.09200
H 	H 	0.68800 0.89590 0.54430 -0.01100
N 	N 	0.69030 0.95140 0.48480 -0.10100
C 	C 	0.72420 0.94700 0.47920 -0.01600
H 	H 	0.73940 0.93560 0.49150 0.04300
C 	C 	0.74170 0.95810 0.45540 -0.04500
C 	C 	0.72200 0.97640 0.43570 0.11600
C 	C 	0.74320 0.98830 0.41430 -0.18100
C 	C 	0.78140 0.98130 0.41300 0.06500
H 	H 	0.79520 0.98990 0.39900 -0.01200
C 	C 	0.79970 0.96200 0.43150 -0.07600
C 	C 	0.77950 0.95140 0.45250 0.00700
H 	H 	0.79200 0.93910 0.46560 0.01600
C 	C 	0.72640 0.00610 0.39300 0.21400
H 	H 	0.74280 0.01370 0.38000 -0.04000
N 	N 	0.69210 0.01280 0.38980 -0.10800
O 	O 	0.68360 0.03100 0.36790 -0.34000
O 	O 	0.68660 0.98110 0.43660 -0.27500
C 	C 	0.84070 0.95350 0.42730 0.11800
C 	C 	0.85850 0.93690 0.45040 -0.52000
H 	H 	0.85530 0.94940 0.46640 0.16400
H 	H 	0.84670 0.91640 0.45260 0.22200
H 	H 	0.88520 0.93410 0.44740 0.15500
C 	C 	0.86280 0.98400 0.42400 -0.46200
H 	H 	0.85220 0.99580 0.40900 0.14100
H 	H 	0.86120 0.99670 0.44000 0.14800
H 	H 	0.88900 0.97910 0.42070 0.13500
C 	C 	0.84390 0.93620 0.40110 -0.14900
H 	H 	0.83170 0.94850 0.38710 -0.01900
H 	H 	0.87040 0.93340 0.39720 0.03400
H 	H 	0.83180 0.91570 0.40230 0.14300
C 	C 	0.58440 0.14970 0.50090 -0.34800
H 	H 	0.58260 0.15210 0.48170 0.09300
H 	H 	0.56540 0.13490 0.50660 0.10400
H 	H 	0.58050 0.17000 0.50930 0.11300
C 	C 	0.65180 0.16180 0.50100 -0.19300
H 	H 	0.65140 0.16380 0.48170 0.04100
H 	H 	0.64510 0.18190 0.50880 0.05500
H 	H 	0.67690 0.15570 0.50720 0.08300
C 	C 	0.62460 0.13400 0.53860 -0.17600
H 	H 	0.60660 0.11800 0.54370 0.01900
H 	H 	0.64970 0.12800 0.54480 0.04900
H 	H 	0.61790 0.15410 0.54640 0.04900
C 	C 	0.20000 0.97980 0.17090 -0.36300
H 	H 	0.19210 0.95830 0.17430 0.07900
H 	H 	0.17840 0.99380 0.17180 0.09900
H 	H 	0.21040 0.98110 0.15330 0.08200
C 	C 	0.24020 0.02290 0.18480 -0.16900
H 	H 	0.25230 0.02310 0.16770 0.11200
H 	H 	0.21740 0.03570 0.18360 0.05400
H 	H 	0.25720 0.03160 0.19830 0.03000
C 	C 	0.21120 0.98830 0.21830 -0.03200
H 	H 	0.20510 0.96650 0.22230 0.15900
H 	H 	0.22800 0.99670 0.23210 0.00100
H 	H 	0.18820 0.00080 0.21740 -0.01300
C 	C 	0.45580 0.78990 0.07170 -0.34200
H 	H 	0.43430 0.77870 0.07870 0.09200
H 	H 	0.46090 0.78210 0.05400 0.10700
H 	H 	0.47770 0.78630 0.08330 0.15800
C 	C 	0.48010 0.84330 0.05970 -0.26000
H 	H 	0.47380 0.86560 0.05910 0.16700
H 	H 	0.50220 0.84020 0.07120 0.07800
H 	H 	0.48530 0.83600 0.04190 0.06100
C 	C 	0.41570 0.83000 0.04950 -0.11600
H 	H 	0.40970 0.85230 0.04830 -0.08700
H 	H 	0.42390 0.82250 0.03230 0.04900
H 	H 	0.39340 0.81830 0.05450 0.02600
C 	C 	0.42850 0.86010 0.29960 0.04500
C 	C 	0.42860 0.86230 0.32970 -0.66000
C 	C 	0.41700 0.83170 0.34200 0.37800
H 	H 	0.39220 0.82570 0.33510 -0.03200
H 	H 	0.43510 0.81540 0.33770 -0.06600
H 	H 	0.41620 0.83410 0.36120 -0.09600
C 	C 	0.46690 0.87400 0.33900 0.62900
H 	H 	0.47240 0.89380 0.33030 1.01700
H 	H 	0.46700 0.87720 0.35810 -0.08300
H 	H 	0.48590 0.85850 0.33470 -0.27900
C 	C 	0.39990 0.88580 0.34010 0.29700
H 	H 	0.40510 0.90660 0.33310 -0.04600
H 	H 	0.37470 0.87930 0.33440 -0.05800
H 	H 	0.40160 0.88630 0.35940 -0.05300
Zn	Zn	0.38589 0.59147 0.69797 1.20000
Zn	Zn	0.43392 0.64706 0.69631 1.19800
Zn	Zn	0.85748 0.64415 0.69508 1.19900
Zn	Zn	0.91014 0.59176 0.69212 1.19500
Zn	Zn	0.14387 0.52532 0.96581 1.19300
Zn	Zn	0.14425 0.49110 0.91570 1.19100
Zn	Zn	0.10391 0.37672 0.71151 1.21700
Zn	Zn	0.15309 0.41760 0.67263 1.18100
Zn	Zn	0.19219 0.37436 0.71532 1.21000
Zn	Zn	0.14734 0.34527 0.66586 1.20600
O 	O 	0.14930 0.37779 0.69211 -0.95900
C 	C 	0.51160 0.73448 0.69444 -0.64400
C 	C 	0.51000 0.75859 0.71315 0.34200
H 	H 	0.49310 0.75660 0.72710 -0.07300
C 	C 	0.53210 0.78507 0.71208 -0.25400
H 	H 	0.53070 0.80050 0.72550 0.12700
C 	C 	0.55640 0.78920 0.69163 0.08900
C 	C 	0.55920 0.76552 0.67305 -0.25900
H 	H 	0.57590 0.76780 0.65900 0.12200
C 	C 	0.53780 0.73867 0.67476 0.33900
H 	H 	0.54100 0.72250 0.66220 -0.08800
B 	B 	0.48520 0.70420 0.69530 1.53900
O 	O 	0.45397 0.71038 0.67588 -0.51700
N 	N 	0.42810 0.68698 0.67229 -0.16700
C 	C 	0.40470 0.69270 0.65390 0.09400
H 	H 	0.40720 0.71230 0.64530 0.02400
C 	C 	0.37460 0.67280 0.64430 -0.20100
C 	C 	0.36600 0.64370 0.65650 0.30100
C 	C 	0.33460 0.62680 0.64510 -0.20100
C 	C 	0.31540 0.63740 0.62250 0.14000
H 	H 	0.29570 0.62510 0.61510 -0.03500
C 	C 	0.32460 0.66540 0.61060 -0.28200
C 	C 	0.35410 0.68250 0.62190 0.13700
H 	H 	0.36060 0.70180 0.61390 -0.03600
C 	C 	0.32250 0.59790 0.65630 0.10300
H 	H 	0.29980 0.58940 0.64940 0.02100
N 	N 	0.33890 0.58240 0.67440 -0.16800
O 	O 	0.31930 0.55563 0.67939 -0.54500
B 	B 	0.33460 0.53380 0.69900 1.53100
O 	O 	0.50798 0.67785 0.68672 -0.54100
N 	N 	0.49050 0.64845 0.68704 -0.17200
C 	C 	0.51330 0.62688 0.68160 0.10000
H 	H 	0.53810 0.63320 0.67810 0.02000
C 	C 	0.50570 0.59331 0.68020 -0.20600
C 	C 	0.46950 0.58084 0.68380 0.29000
C 	C 	0.46580 0.54799 0.68230 -0.20500
C 	C 	0.49770 0.52900 0.67900 0.14800
H 	H 	0.49470 0.50700 0.67900 -0.04100
C 	C 	0.53320 0.54125 0.67570 -0.30800
C 	C 	0.53560 0.57364 0.67530 0.15700
H 	H 	0.55890 0.58290 0.67140 -0.04900
C 	C 	0.43110 0.53120 0.68590 0.09800
H 	H 	0.43140 0.50910 0.68390 0.01900
N 	N 	0.40040 0.54403 0.69160 -0.17000
O 	O 	0.37154 0.52155 0.69392 -0.54900
O 	O 	0.47249 0.70150 0.72213 -0.54000
N 	N 	0.44820 0.67757 0.72748 -0.15900
C 	C 	0.43840 0.67863 0.75124 0.08200
H 	H 	0.44930 0.69460 0.76200 0.04200
C 	C 	0.41190 0.65768 0.76364 -0.14600
C 	C 	0.39640 0.63124 0.75007 0.24900
C 	C 	0.37060 0.61233 0.76430 -0.15500
C 	C 	0.36100 0.62100 0.78976 0.06400
H 	H 	0.34320 0.60860 0.79850 -0.00700
C 	C 	0.37590 0.64660 0.80294 -0.15700
C 	C 	0.40180 0.66460 0.78961 0.06500
H 	H 	0.41300 0.68210 0.79830 0.01100
C 	C 	0.35310 0.58470 0.75307 0.07500
H 	H 	0.33790 0.57280 0.76440 0.02300
N 	N 	0.35600 0.57460 0.72976 -0.16800
O 	O 	0.33420 0.54780 0.72571 -0.52900
C 	C 	0.30510 0.50597 0.69999 -0.56800
C 	C 	0.25200 0.45689 0.70178 -0.02800
C 	C 	0.58020 0.81810 0.69002 0.32200
O 	O 	0.57731 0.83762 0.70815 -0.49100
O 	O 	0.60243 0.81897 0.67120 -0.47800
O 	O 	0.38340 0.63417 0.67686 -0.55600
C 	C 	0.30370 0.67740 0.58590 0.61200
O 	O 	0.44134 0.59916 0.68847 -0.55100
C 	C 	0.56800 0.52050 0.67340 0.66900
C 	C 	0.59420 0.52360 0.69870 -0.82400
H 	H 	0.58130 0.51540 0.71400 0.25700
H 	H 	0.60060 0.54560 0.70160 0.26000
H 	H 	0.61710 0.51150 0.69620 0.24100
C 	C 	0.59400 0.53410 0.65420 -0.97100
H 	H 	0.59690 0.55650 0.65770 0.29300
H 	H 	0.58390 0.53100 0.63630 0.28600
H 	H 	0.61830 0.52380 0.65610 0.28400
C 	C 	0.55810 0.48640 0.67290 -0.96500
H 	H 	0.54070 0.48190 0.68700 0.29300
H 	H 	0.58080 0.47390 0.67560 0.28500
H 	H 	0.54640 0.48110 0.65580 0.28700
O 	O 	0.40533 0.62397 0.72612 -0.53800
C 	C 	0.36420 0.65510 0.83082 0.35700
C 	C 	0.22370 0.43161 0.70370 0.33500
O 	O 	0.19085 0.43858 0.69611 -0.51900
O 	O 	0.23229 0.40515 0.71289 -0.48400
C 	C 	0.27590 0.50340 0.68090 -0.10100
H 	H 	0.27410 0.51820 0.66710 0.05400
C 	C 	0.24970 0.47960 0.68200 -0.27100
H 	H 	0.23000 0.47870 0.66920 0.09300
C 	C 	0.28140 0.45820 0.72010 -0.02800
H 	H 	0.28400 0.44260 0.73330 0.02500
C 	C 	0.30680 0.48250 0.71890 0.13300
H 	H 	0.32660 0.48310 0.73170 -0.03700
C 	C 	0.39430 0.65090 0.85160 0.00800
H 	H 	0.41770 0.66000 0.84540 -0.06200
H 	H 	0.39790 0.62860 0.85510 0.04100
H 	H 	0.38700 0.66150 0.86780 -0.01300
C 	C 	0.35670 0.69130 0.83150 -0.47900
H 	H 	0.33710 0.69660 0.81850 0.15000
H 	H 	0.37970 0.70260 0.82750 0.24700
H 	H 	0.34870 0.69730 0.84910 0.15900
C 	C 	0.32680 0.64180 0.83850 -0.20800
H 	H 	0.30850 0.64530 0.82410 0.03900
H 	H 	0.31850 0.65220 0.85440 0.04500
H 	H 	0.32940 0.61930 0.84180 0.06500
C 	C 	0.32890 0.67500 0.56200 -0.85600
H 	H 	0.35230 0.68620 0.56570 0.26000
H 	H 	0.31610 0.68440 0.54660 0.24900
H 	H 	0.33420 0.65300 0.55830 0.25900
C 	C 	0.26720 0.66020 0.58030 -0.88900
H 	H 	0.25510 0.66870 0.56430 0.26100
H 	H 	0.25070 0.66280 0.59520 0.27000
H 	H 	0.27230 0.63790 0.57770 0.26900
C 	C 	0.29600 0.71260 0.58930 -0.86100
H 	H 	0.31960 0.72360 0.59290 0.26500
H 	H 	0.27930 0.71570 0.60400 0.26400
H 	H 	0.28420 0.72080 0.57310 0.25300
C 	C 	0.14040 0.57830 0.04612 -0.59700
C 	C 	0.13730 0.60630 0.09645 -0.01500
B 	B 	0.14360 0.56110 0.01853 1.57300
O 	O 	0.14180 0.52801 0.02490 -0.55600
N 	N 	0.13950 0.50660 0.00412 -0.16200
C 	C 	0.13800 0.47870 0.01192 0.08200
H 	H 	0.13820 0.47540 0.03040 0.01800
C 	C 	0.13600 0.45113 0.99532 -0.17300
C 	C 	0.13700 0.45230 0.96725 0.28000
C 	C 	0.13400 0.42330 0.95350 -0.17400
C 	C 	0.12920 0.39580 0.96792 0.07300
H 	H 	0.12600 0.37680 0.95840 -0.00300
C 	C 	0.12890 0.39440 0.99478 -0.15900
C 	C 	0.13180 0.42220 0.00830 0.06900
H 	H 	0.13090 0.42200 0.02700 -0.01200
C 	C 	0.13590 0.42060 0.92539 0.07900
H 	H 	0.13390 0.40000 0.91840 0.03000
N 	N 	0.13980 0.44228 0.90880 -0.16400
O 	O 	0.14070 0.43165 0.88337 -0.52500
B 	B 	0.14570 0.45540 0.86304 1.47000
O 	O 	0.11120 0.57154 0.00317 -0.55400
N 	N 	0.10520 0.55840 0.97851 -0.16500
C 	C 	0.07270 0.56450 0.96934 0.09700
H 	H 	0.05710 0.57720 0.97980 0.01800
C 	C 	0.05770 0.55380 0.94447 -0.20600
C 	C 	0.07800 0.53570 0.92574 0.29100
C 	C 	0.05810 0.52680 0.90216 -0.19800
C 	C 	0.02030 0.53450 0.89872 0.15600
H 	H 	0.00750 0.52780 0.88310 -0.02500
C 	C 	0.00050 0.55160 0.91702 -0.31300
C 	C 	0.01990 0.56100 0.93926 0.15700
H 	H 	0.00700 0.57310 0.95180 -0.04700
C 	C 	0.07480 0.50800 0.88172 0.10000
H 	H 	0.06100 0.50560 0.86560 0.03500
N 	N 	0.10630 0.49458 0.88373 -0.16800
O 	O 	0.11470 0.47881 0.86128 -0.49700
C 	C 	0.14580 0.43780 0.83514 -0.62800
C 	C 	0.11370 0.43590 0.81886 0.32600
H 	H 	0.09150 0.44590 0.82420 -0.06600
C 	C 	0.11360 0.41970 0.79512 -0.24400
H 	H 	0.09120 0.41790 0.78480 0.12500
C 	C 	0.14620 0.40612 0.78644 0.08700
C 	C 	0.17860 0.40840 0.80171 -0.25500
H 	H 	0.20100 0.39910 0.79600 0.12100
C 	C 	0.17810 0.42430 0.82556 0.32900
H 	H 	0.20070 0.42610 0.83570 -0.08700
C 	C 	0.13650 0.61920 0.12373 0.29900
O 	O 	0.14858 0.64647 0.12776 -0.47000
O 	O 	0.12000 0.60440 0.14072 -0.49300
O 	O 	0.13790 0.47838 0.95522 -0.56800
C 	C 	0.12400 0.36300 0.00890 0.32200
O 	O 	0.11220 0.52853 0.92989 -0.55200
C 	C 	0.95930 0.56080 0.91330 0.69200
C 	C 	0.95430 0.59660 0.91570 -0.92800
H 	H 	0.96430 0.60370 0.93280 0.28100
H 	H 	0.92780 0.60190 0.91400 0.28200
H 	H 	0.96790 0.60700 0.90160 0.30000
C 	C 	0.93670 0.54620 0.93550 -0.95100
H 	H 	0.94770 0.55230 0.95260 0.29500
H 	H 	0.93710 0.52340 0.93390 0.29700
H 	H 	0.91080 0.55360 0.93420 0.28900
C 	C 	0.94340 0.55210 0.88670 -1.00000
H 	H 	0.95840 0.56180 0.87300 0.33000
H 	H 	0.91760 0.55960 0.88500 0.30500
H 	H 	0.94390 0.52930 0.88470 0.30700
C 	C 	0.14640 0.39016 0.76006 0.30900
O 	O 	0.11526 0.38711 0.74811 -0.48000
O 	O 	0.17775 0.38083 0.75214 -0.47300
O 	O 	0.17480 0.57380 0.00320 -0.35000
C 	C 	0.15200 0.62230 0.07560 -0.05300
H 	H 	0.16120 0.64290 0.07810 0.04900
C 	C 	0.15350 0.60840 0.05100 0.12800
H 	H 	0.16380 0.61990 0.03690 -0.02700
C 	C 	0.12410 0.56300 0.06740 -0.05400
H 	H 	0.11360 0.54290 0.06460 0.03300
C 	C 	0.12270 0.57610 0.09230 -0.25800
H 	H 	0.11210 0.56480 0.10630 0.09500
N 	N 	0.18210 0.55830 0.98070 -0.06500
C 	C 	0.21130 0.56950 0.97080 0.03200
H 	H 	0.22420 0.58560 0.98030 0.03300
C 	C 	0.22630 0.55950 0.94600 -0.02700
C 	C 	0.20920 0.53650 0.92900 0.04600
C 	C 	0.22630 0.53080 0.90430 0.09700
C 	C 	0.25900 0.54680 0.89770 -0.11700
H 	H 	0.26950 0.54310 0.88100 0.05600
C 	C 	0.27600 0.56770 0.91480 0.04000
C 	C 	0.25940 0.57380 0.93840 -0.06700
H 	H 	0.27100 0.58840 0.95010 0.04100
C 	C 	0.21200 0.50900 0.88480 -0.20800
H 	H 	0.22570 0.50700 0.86910 0.10100
N 	N 	0.18300 0.49230 0.88660 -0.03300
O 	O 	0.17810 0.47560 0.86390 -0.15900
O 	O 	0.18070 0.52170 0.93590 -0.17800
C 	C 	0.31280 0.58340 0.90770 0.06500
C 	C 	0.30360 0.61830 0.90770 -0.45500
H 	H 	0.29660 0.62480 0.92540 0.14800
H 	H 	0.28280 0.62240 0.89520 0.15300
H 	H 	0.32550 0.63020 0.90240 0.13400
C 	C 	0.34350 0.57560 0.92790 -0.09300
H 	H 	0.33590 0.58250 0.94540 -0.04800
H 	H 	0.36650 0.58650 0.92330 0.03100
H 	H 	0.34780 0.55300 0.92810 0.09400
C 	C 	0.32380 0.57310 0.88040 -0.49300
H 	H 	0.30370 0.57830 0.86770 0.15500
H 	H 	0.32800 0.55050 0.88040 0.19700
H 	H 	0.34670 0.58390 0.87560 0.14000
C 	C 	0.77570 0.72874 0.69831 -0.69900
C 	C 	0.78090 0.75323 0.71620 0.38000
H 	H 	0.80010 0.75130 0.72930 -0.08900
C 	C 	0.75950 0.77994 0.71580 -0.28400
H 	H 	0.76370 0.79580 0.72870 0.13300
C 	C 	0.73160 0.78364 0.69642 0.10400
C 	C 	0.72480 0.75940 0.67872 -0.29300
H 	H 	0.70530 0.76110 0.66570 0.13100
C 	C 	0.74650 0.73282 0.68018 0.39300
H 	H 	0.74110 0.71640 0.66810 -0.10800
B 	B 	0.80300 0.69900 0.69790 1.62700
O 	O 	0.77920 0.67068 0.69656 -0.54600
N 	N 	0.79840 0.64175 0.69460 -0.16600
C 	C 	0.77610 0.61870 0.69490 0.08700
H 	H 	0.75030 0.62320 0.69680 0.02400
C 	C 	0.78660 0.58624 0.69279 -0.16400
C 	C 	0.82390 0.57626 0.68964 0.26600
C 	C 	0.82978 0.54342 0.68668 -0.15100
C 	C 	0.79925 0.52243 0.68702 0.06600
H 	H 	0.80380 0.50070 0.68500 0.00900
C 	C 	0.76308 0.53269 0.69016 -0.15800
C 	C 	0.75740 0.56469 0.69270 0.06900
H 	H 	0.73270 0.57220 0.69440 -0.00100
C 	C 	0.86685 0.52971 0.68506 0.07800
H 	H 	0.86780 0.50780 0.68220 0.04500
N 	N 	0.89797 0.54355 0.68698 -0.15800
O 	O 	0.92785 0.52338 0.68552 -0.51200
B 	B 	0.96570 0.53700 0.68900 1.51800
O 	O 	0.82360 0.70378 0.67433 -0.57400
N 	N 	0.85140 0.68200 0.66957 -0.16700
C 	C 	0.86750 0.68790 0.64820 0.08900
H 	H 	0.85940 0.70610 0.63900 0.03000
C 	C 	0.89670 0.66980 0.63654 -0.17700
C 	C 	0.91190 0.64240 0.64841 0.28800
C 	C 	0.93870 0.62564 0.63328 -0.17200
C 	C 	0.94930 0.63650 0.60865 0.08500
H 	H 	0.96740 0.62500 0.59930 -0.00600
C 	C 	0.93450 0.66340 0.59725 -0.16100
C 	C 	0.90870 0.67930 0.61190 0.08100
H 	H 	0.89840 0.69800 0.60470 -0.00300
C 	C 	0.95590 0.59709 0.64246 0.07900
H 	H 	0.97290 0.58760 0.63090 0.02100
N 	N 	0.95120 0.58319 0.66396 -0.17400
O 	O 	0.97453 0.55828 0.66732 -0.56000
O 	O 	0.82470 0.69989 0.72242 -0.56600
N 	N 	0.85030 0.67560 0.72597 -0.16100
C 	C 	0.86510 0.67640 0.74880 0.06000
H 	H 	0.85650 0.69250 0.76000 0.04600
C 	C 	0.89320 0.65590 0.76007 -0.10400
C 	C 	0.90800 0.63040 0.74513 0.21600
C 	C 	0.93460 0.61090 0.75843 -0.09200
C 	C 	0.94540 0.61720 0.78459 -0.06700
C 	C 	0.90560 0.66060 0.78597 -0.02900
C 	C 	0.95210 0.58390 0.74598 0.04100
H 	H 	0.96740 0.57090 0.75690 0.06000
N 	N 	0.94860 0.57657 0.72179 -0.16100
O 	O 	0.97180 0.55159 0.71524 -0.52500
C 	C 	0.99466 0.50858 0.68908 -0.65200
C 	C 	0.98850 0.48039 0.70200 0.35700
H 	H 	0.96540 0.47730 0.71040 -0.08300
C 	C 	0.01489 0.45678 0.70287 -0.25500
H 	H 	0.00980 0.43780 0.71180 0.12700
C 	C 	0.04888 0.46076 0.69076 0.08000
C 	C 	0.05550 0.48800 0.67729 -0.25100
H 	H 	0.07830 0.49070 0.66840 0.11000
C 	C 	0.02885 0.51151 0.67665 0.33600
H 	H 	0.03400 0.53030 0.66740 -0.09600
C 	C 	0.71020 0.81350 0.69350 0.31700
O 	O 	0.71588 0.83349 0.71125 -0.49100
O 	O 	0.68756 0.81551 0.67429 -0.49500
O 	O 	0.85116 0.59579 0.68890 -0.53900
C 	C 	0.73020 0.51017 0.69190 0.34800
O 	O 	0.90060 0.63215 0.67004 -0.56400
C 	C 	0.94730 0.67510 0.57040 0.35300
O 	O 	0.89800 0.62589 0.72078 -0.53700
C 	C 	0.07818 0.43564 0.69207 0.35000
O 	O 	0.06901 0.40965 0.70123 -0.48100
O 	O 	0.10982 0.44250 0.68503 -0.49500
C 	C 	0.93430 0.64370 0.79810 0.13500
C 	C 	0.72180 0.49000 0.66840 -0.17100
H 	H 	0.74500 0.48120 0.66200 -0.00700
H 	H 	0.70970 0.50260 0.65450 0.07600
H 	H 	0.70500 0.47300 0.67340 0.04100
C 	C 	0.74140 0.48730 0.71540 -0.53800
H 	H 	0.74720 0.49960 0.73120 0.18100
H 	H 	0.76330 0.47510 0.71070 0.17700
H 	H 	0.72060 0.47320 0.71870 0.17600
C 	C 	0.69440 0.52380 0.70200 -0.28800
H 	H 	0.70010 0.53700 0.71730 -0.06100
H 	H 	0.67770 0.50690 0.70700 0.09900
H 	H 	0.68240 0.53650 0.68810 0.10800
C 	C 	0.92600 0.70340 0.55950 -0.21000
H 	H 	0.92630 0.72010 0.57260 0.05600
H 	H 	0.90010 0.69740 0.55530 0.07700
H 	H 	0.93790 0.71070 0.54350 0.05500
C 	C 	0.98710 0.68740 0.57720 -0.21700
H 	H 	0.00240 0.67030 0.58440 0.05800
H 	H 	0.98570 0.70420 0.59020 -0.00300
H 	H 	0.99840 0.69550 0.56120 0.07300
C 	C 	0.94830 0.64760 0.55130 -0.37100
H 	H 	0.96230 0.63030 0.55940 0.00100
H 	H 	0.96060 0.65420 0.53510 0.12000
H 	H 	0.92280 0.64080 0.54690 0.23400
C 	C 	0.95610 0.65630 0.82230 -0.18100
C 	C 	0.94080 0.68700 0.83220 0.05800
H 	H 	0.94310 0.70300 0.81850 0.01800
H 	H 	0.95500 0.69350 0.84810 0.01200
H 	H 	0.91450 0.68440 0.83640 -0.12500
C 	C 	0.95270 0.63120 0.84340 1.21600
H 	H 	0.96260 0.61140 0.83690 -1.57300
H 	H 	0.92630 0.62850 0.84760 -0.18100
H 	H 	0.96680 0.63760 0.85930 -0.38200
C 	C 	0.99740 0.66230 0.81760 -0.01500
H 	H 	0.00900 0.64310 0.81110 0.00700
H 	H 	0.00990 0.66870 0.83410 0.04700
H 	H 	0.99990 0.67890 0.80450 0.02000
C 	C 	0.09220 0.36370 0.02850 -0.19600
H 	H 	0.09560 0.38170 0.04020 0.07100
H 	H 	0.09250 0.34440 0.03880 0.05700
H 	H 	0.06830 0.36560 0.01880 0.04100
C 	C 	0.11840 0.33480 0.99060 -0.18400
H 	H 	0.13860 0.33410 0.97800 0.05800
H 	H 	0.09440 0.33670 0.98110 0.06000
H 	H 	0.11860 0.31560 0.00110 0.05100
C 	C 	0.16130 0.35600 0.02390 -0.33000
H 	H 	0.16700 0.37310 0.03620 0.09300
H 	H 	0.18140 0.35410 0.01130 0.05700
H 	H 	0.15910 0.33640 0.03370 0.10300
C 	C 	0.26790 0.51050 0.69180 0.29800
H 	H 	0.26030 0.53040 0.68540 -0.07100
C 	C 	0.24170 0.48670 0.69290 0.14500
H 	H 	0.21660 0.49060 0.68750 -0.01700
C 	C 	0.28780 0.45280 0.71200 -0.09700
H 	H 	0.29490 0.43340 0.71960 0.05900
C 	C 	0.31340 0.47700 0.71110 0.06700
H 	H 	0.33780 0.47370 0.71850 -0.00400
C 	C 	0.38810 0.67960 0.84380 -0.19400
H 	H 	0.41440 0.67350 0.84310 0.12900
H 	H 	0.38110 0.68190 0.86220 0.06900
H 	H 	0.38440 0.69960 0.83470 -0.05800
C 	C 	0.32270 0.66230 0.83090 -0.14700
H 	H 	0.30890 0.64530 0.82210 0.07200
H 	H 	0.31790 0.68200 0.82150 0.04500
H 	H 	0.31460 0.66420 0.84900 0.06000
C 	C 	0.37230 0.62560 0.84820 -0.59700
H 	H 	0.35780 0.60790 0.84120 0.17100
H 	H 	0.36520 0.62980 0.86630 0.17600
H 	H 	0.39890 0.62060 0.84790 0.15200
O 	O 	0.18250 0.56320 0.00920 -0.20400
C 	C 	0.11040 0.57370 0.06250 0.28100
H 	H 	0.09030 0.56090 0.05640 -0.07400
C 	C 	0.10860 0.58700 0.08720 0.10500
H 	H 	0.08780 0.58300 0.09790 0.00200
C 	C 	0.16620 0.61360 0.07970 -0.09300
H 	H 	0.18480 0.62830 0.08510 0.04800
C 	C 	0.16770 0.59940 0.05530 0.09200
H 	H 	0.18800 0.60410 0.04430 -0.01100
N 	N 	0.19030 0.54860 0.98480 -0.10100
C 	C 	0.22420 0.55300 0.97920 -0.01600
H 	H 	0.23940 0.56440 0.99150 0.04300
C 	C 	0.24170 0.54190 0.95540 -0.04500
C 	C 	0.22200 0.52360 0.93570 0.11600
C 	C 	0.24320 0.51170 0.91430 -0.18100
C 	C 	0.28140 0.51870 0.91300 0.06500
H 	H 	0.29520 0.51010 0.89900 -0.01200
C 	C 	0.29970 0.53800 0.93150 -0.07600
C 	C 	0.27950 0.54860 0.95250 0.00700
H 	H 	0.29200 0.56090 0.96560 0.01600
C 	C 	0.22640 0.49390 0.89300 0.21400
H 	H 	0.24280 0.48630 0.88000 -0.04000
N 	N 	0.19210 0.48720 0.88980 -0.10800
O 	O 	0.18360 0.46900 0.86790 -0.34000
O 	O 	0.18660 0.51890 0.93660 -0.27500
C 	C 	0.34070 0.54650 0.92730 0.11800
C 	C 	0.35850 0.56310 0.95040 -0.52000
H 	H 	0.35530 0.55060 0.96640 0.16400
H 	H 	0.34670 0.58360 0.95260 0.22200
H 	H 	0.38520 0.56590 0.94740 0.15500
C 	C 	0.36280 0.51600 0.92400 -0.46200
H 	H 	0.35220 0.50420 0.90900 0.14100
H 	H 	0.36120 0.50330 0.94000 0.14800
H 	H 	0.38900 0.52090 0.92070 0.13500
C 	C 	0.34390 0.56380 0.90110 -0.14900
H 	H 	0.33170 0.55150 0.88710 -0.01900
H 	H 	0.37040 0.56660 0.89720 0.03400
H 	H 	0.33180 0.58430 0.90230 0.14300
C 	C 	0.08440 0.35030 0.00090 -0.34800
H 	H 	0.08260 0.34790 0.98170 0.09300
H 	H 	0.06540 0.36510 0.00660 0.10400
H 	H 	0.08050 0.33000 0.00930 0.11300
C 	C 	0.15180 0.33820 0.00100 -0.19300
H 	H 	0.15140 0.33620 0.98170 0.04100
H 	H 	0.14510 0.31810 0.00880 0.05500
H 	H 	0.17690 0.34430 0.00720 0.08300
C 	C 	0.12460 0.36600 0.03860 -0.17600
H 	H 	0.10660 0.38200 0.04370 0.01900
H 	H 	0.14970 0.37200 0.04480 0.04900
H 	H 	0.11790 0.34590 0.04640 0.04900
C 	C 	0.70000 0.52020 0.67090 -0.36300
H 	H 	0.69210 0.54170 0.67430 0.07900
H 	H 	0.67840 0.50620 0.67180 0.09900
H 	H 	0.71040 0.51890 0.65330 0.08200
C 	C 	0.74020 0.47710 0.68480 -0.16900
H 	H 	0.75230 0.47690 0.66770 0.11200
H 	H 	0.71740 0.46430 0.68360 0.05400
H 	H 	0.75720 0.46840 0.69830 0.03000
C 	C 	0.71120 0.51170 0.71830 -0.03200
H 	H 	0.70510 0.53350 0.72230 0.15900
H 	H 	0.72800 0.50330 0.73210 0.00100
H 	H 	0.68820 0.49920 0.71740 -0.01300
C 	C 	0.95580 0.71010 0.57170 -0.34200
H 	H 	0.93430 0.72130 0.57870 0.09200
H 	H 	0.96090 0.71790 0.55400 0.10700
H 	H 	0.97770 0.71370 0.58330 0.15800
C 	C 	0.98010 0.65670 0.55970 -0.26000
H 	H 	0.97380 0.63440 0.55910 0.16700
H 	H 	0.00220 0.65980 0.57120 0.07800
H 	H 	0.98530 0.66400 0.54190 0.06100
C 	C 	0.91570 0.67000 0.54950 -0.11600
H 	H 	0.90970 0.64770 0.54830 -0.08700
H 	H 	0.92390 0.67750 0.53230 0.04900
H 	H 	0.89340 0.68170 0.55450 0.02600
C 	C 	0.92850 0.63990 0.79960 0.04500
C 	C 	0.92860 0.63770 0.82970 -0.66000
C 	C 	0.91700 0.66830 0.84200 0.37800
H 	H 	0.89220 0.67430 0.83510 -0.03200
H 	H 	0.93510 0.68460 0.83770 -0.06600
H 	H 	0.91620 0.66590 0.86120 -0.09600
C 	C 	0.96690 0.62600 0.83900 0.62900
H 	H 	0.97240 0.60620 0.83030 1.01700
H 	H 	0.96700 0.62280 0.85810 -0.08300
H 	H 	0.98590 0.64150 0.83470 -0.27900
C 	C 	0.89990 0.61420 0.84010 0.29700
H 	H 	0.90510 0.59340 0.83310 -0.04600
H 	H 	0.87470 0.62070 0.83440 -0.05800
H 	H 	0.90160 0.61370 0.85940 -0.05300
Zn	Zn	0.88589 0.09147 0.69797 1.20000
Zn	Zn	0.93392 0.14706 0.69631 1.19800
Zn	Zn	0.35748 0.14415 0.69508 1.19900
Zn	Zn	0.41014 0.09176 0.69212 1.19500
Zn	Zn	0.64387 0.02532 0.96581 1.19300
Zn	Zn	0.64425 0.99110 0.91570 1.19100
Zn	Zn	0.60391 0.87672 0.71151 1.21700
Zn	Zn	0.65309 0.91760 0.67263 1.18100
Zn	Zn	0.69219 0.87436 0.71532 1.21000
Zn	Zn	0.64734 0.84527 0.66586 1.20600
O 	O 	0.64930 0.87779 0.69211 -0.95900
C 	C 	0.01160 0.23448 0.69444 -0.64400
C 	C 	0.01000 0.25859 0.71315 0.34200
H 	H 	0.99310 0.25660 0.72710 -0.07300
C 	C 	0.03210 0.28507 0.71208 -0.25400
H 	H 	0.03070 0.30050 0.72550 0.12700
C 	C 	0.05640 0.28920 0.69163 0.08900
C 	C 	0.05920 0.26552 0.67305 -0.25900
H 	H 	0.07590 0.26780 0.65900 0.12200
C 	C 	0.03780 0.23867 0.67476 0.33900
H 	H 	0.04100 0.22250 0.66220 -0.08800
B 	B 	0.98520 0.20420 0.69530 1.53900
O 	O 	0.95397 0.21038 0.67588 -0.51700
N 	N 	0.92810 0.18698 0.67229 -0.16700
C 	C 	0.90470 0.19270 0.65390 0.09400
H 	H 	0.90720 0.21230 0.64530 0.02400
C 	C 	0.87460 0.17280 0.64430 -0.20100
C 	C 	0.86600 0.14370 0.65650 0.30100
C 	C 	0.83460 0.12680 0.64510 -0.20100
C 	C 	0.81540 0.13740 0.62250 0.14000
H 	H 	0.79570 0.12510 0.61510 -0.03500
C 	C 	0.82460 0.16540 0.61060 -0.28200
C 	C 	0.85410 0.18250 0.62190 0.13700
H 	H 	0.86060 0.20180 0.61390 -0.03600
C 	C 	0.82250 0.09790 0.65630 0.10300
H 	H 	0.79980 0.08940 0.64940 0.02100
N 	N 	0.83890 0.08240 0.67440 -0.16800
O 	O 	0.81930 0.05563 0.67939 -0.54500
B 	B 	0.83460 0.03380 0.69900 1.53100
O 	O 	0.00798 0.17785 0.68672 -0.54100
N 	N 	0.99050 0.14845 0.68704 -0.17200
C 	C 	0.01330 0.12688 0.68160 0.10000
H 	H 	0.03810 0.13320 0.67810 0.02000
C 	C 	0.00570 0.09331 0.68020 -0.20600
C 	C 	0.96950 0.08084 0.68380 0.29000
C 	C 	0.96580 0.04799 0.68230 -0.20500
C 	C 	0.99770 0.02900 0.67900 0.14800
H 	H 	0.99470 0.00700 0.67900 -0.04100
C 	C 	0.03320 0.04125 0.67570 -0.30800
C 	C 	0.03560 0.07364 0.67530 0.15700
H 	H 	0.05890 0.08290 0.67140 -0.04900
C 	C 	0.93110 0.03120 0.68590 0.09800
H 	H 	0.93140 0.00910 0.68390 0.01900
N 	N 	0.90040 0.04403 0.69160 -0.17000
O 	O 	0.87154 0.02155 0.69392 -0.54900
O 	O 	0.97249 0.20150 0.72213 -0.54000
N 	N 	0.94820 0.17757 0.72748 -0.15900
C 	C 	0.93840 0.17863 0.75124 0.08200
H 	H 	0.94930 0.19460 0.76200 0.04200
C 	C 	0.91190 0.15768 0.76364 -0.14600
C 	C 	0.89640 0.13124 0.75007 0.24900
C 	C 	0.87060 0.11233 0.76430 -0.15500
C 	C 	0.86100 0.12100 0.78976 0.06400
H 	H 	0.84320 0.10860 0.79850 -0.00700
C 	C 	0.87590 0.14660 0.80294 -0.15700
C 	C 	0.90180 0.16460 0.78961 0.06500
H 	H 	0.91300 0.18210 0.79830 0.01100
C 	C 	0.85310 0.08470 0.75307 0.07500
H 	H 	0.83790 0.07280 0.76440 0.02300
N 	N 	0.85600 0.07460 0.72976 -0.16800
O 	O 	0.83420 0.04780 0.72571 -0.52900
C 	C 	0.80510 0.00597 0.69999 -0.56800
C 	C 	0.75200 0.95689 0.70178 -0.02800
C 	C 	0.08020 0.31810 0.69002 0.32200
O 	O 	0.07731 0.33762 0.70815 -0.49100
O 	O 	0.10243 0.31897 0.67120 -0.47800
O 	O 	0.88340 0.13417 0.67686 -0.55600
C 	C 	0.80370 0.17740 0.58590 0.61200
O 	O 	0.94134 0.09916 0.68847 -0.55100
C 	C 	0.06800 0.02050 0.67340 0.66900
C 	C 	0.09420 0.02360 0.69870 -0.82400
H 	H 	0.08130 0.01540 0.71400 0.25700
H 	H 	0.10060 0.04560 0.70160 0.26000
H 	H 	0.11710 0.01150 0.69620 0.24100
C 	C 	0.09400 0.03410 0.65420 -0.97100
H 	H 	0.09690 0.05650 0.65770 0.29300
H 	H 	0.08390 0.03100 0.63630 0.28600
H 	H 	0.11830 0.02380 0.65610 0.28400
C 	C 	0.05810 0.98640 0.67290 -0.96500
H 	H 	0.04070 0.98190 0.68700 0.29300
H 	H 	0.08080 0.97390 0.67560 0.28500
H 	H 	0.04640 0.98110 0.65580 0.28700
O 	O 	0.90533 0.12397 0.72612 -0.53800
C 	C 	0.86420 0.15510 0.83082 0.35700
C 	C 	0.72370 0.93161 0.70370 0.33500
O 	O 	0.69085 0.93858 0.69611 -0.51900
O 	O 	0.73229 0.90515 0.71289 -0.48400
C 	C 	0.77590 0.00340 0.68090 -0.10100
H 	H 	0.77410 0.01820 0.66710 0.05400
C 	C 	0.74970 0.97960 0.68200 -0.27100
H 	H 	0.73000 0.97870 0.66920 0.09300
C 	C 	0.78140 0.95820 0.72010 -0.02800
H 	H 	0.78400 0.94260 0.73330 0.02500
C 	C 	0.80680 0.98250 0.71890 0.13300
H 	H 	0.82660 0.98310 0.73170 -0.03700
C 	C 	0.89430 0.15090 0.85160 0.00800
H 	H 	0.91770 0.16000 0.84540 -0.06200
H 	H 	0.89790 0.12860 0.85510 0.04100
H 	H 	0.88700 0.16150 0.86780 -0.01300
C 	C 	0.85670 0.19130 0.83150 -0.47900
H 	H 	0.83710 0.19660 0.81850 0.15000
H 	H 	0.87970 0.20260 0.82750 0.24700
H 	H 	0.84870 0.19730 0.84910 0.15900
C 	C 	0.82680 0.14180 0.83850 -0.20800
H 	H 	0.80850 0.14530 0.82410 0.03900
H 	H 	0.81850 0.15220 0.85440 0.04500
H 	H 	0.82940 0.11930 0.84180 0.06500
C 	C 	0.82890 0.17500 0.56200 -0.85600
H 	H 	0.85230 0.18620 0.56570 0.26000
H 	H 	0.81610 0.18440 0.54660 0.24900
H 	H 	0.83420 0.15300 0.55830 0.25900
C 	C 	0.76720 0.16020 0.58030 -0.88900
H 	H 	0.75510 0.16870 0.56430 0.26100
H 	H 	0.75070 0.16280 0.59520 0.27000
H 	H 	0.77230 0.13790 0.57770 0.26900
C 	C 	0.79600 0.21260 0.58930 -0.86100
H 	H 	0.81960 0.22360 0.59290 0.26500
H 	H 	0.77930 0.21570 0.60400 0.26400
H 	H 	0.78420 0.22080 0.57310 0.25300
C 	C 	0.64040 0.07830 0.04612 -0.59700
C 	C 	0.63730 0.10630 0.09645 -0.01500
B 	B 	0.64360 0.06110 0.01853 1.57300
O 	O 	0.64180 0.02801 0.02490 -0.55600
N 	N 	0.63950 0.00660 0.00412 -0.16200
C 	C 	0.63800 0.97870 0.01192 0.08200
H 	H 	0.63820 0.97540 0.03040 0.01800
C 	C 	0.63600 0.95113 0.99532 -0.17300
C 	C 	0.63700 0.95230 0.96725 0.28000
C 	C 	0.63400 0.92330 0.95350 -0.17400
C 	C 	0.62920 0.89580 0.96792 0.07300
H 	H 	0.62600 0.87680 0.95840 -0.00300
C 	C 	0.62890 0.89440 0.99478 -0.15900
C 	C 	0.63180 0.92220 0.00830 0.06900
H 	H 	0.63090 0.92200 0.02700 -0.01200
C 	C 	0.63590 0.92060 0.92539 0.07900
H 	H 	0.63390 0.90000 0.91840 0.03000
N 	N 	0.63980 0.94228 0.90880 -0.16400
O 	O 	0.64070 0.93165 0.88337 -0.52500
B 	B 	0.64570 0.95540 0.86304 1.47000
O 	O 	0.61120 0.07154 0.00317 -0.55400
N 	N 	0.60520 0.05840 0.97851 -0.16500
C 	C 	0.57270 0.06450 0.96934 0.09700
H 	H 	0.55710 0.07720 0.97980 0.01800
C 	C 	0.55770 0.05380 0.94447 -0.20600
C 	C 	0.57800 0.03570 0.92574 0.29100
C 	C 	0.55810 0.02680 0.90216 -0.19800
C 	C 	0.52030 0.03450 0.89872 0.15600
H 	H 	0.50750 0.02780 0.88310 -0.02500
C 	C 	0.50050 0.05160 0.91702 -0.31300
C 	C 	0.51990 0.06100 0.93926 0.15700
H 	H 	0.50700 0.07310 0.95180 -0.04700
C 	C 	0.57480 0.00800 0.88172 0.10000
H 	H 	0.56100 0.00560 0.86560 0.03500
N 	N 	0.60630 0.99458 0.88373 -0.16800
O 	O 	0.61470 0.97881 0.86128 -0.49700
C 	C 	0.64580 0.93780 0.83514 -0.62800
C 	C 	0.61370 0.93590 0.81886 0.32600
H 	H 	0.59150 0.94590 0.82420 -0.06600
C 	C 	0.61360 0.91970 0.79512 -0.24400
H 	H 	0.59120 0.91790 0.78480 0.12500
C 	C 	0.64620 0.90612 0.78644 0.08700
C 	C 	0.67860 0.90840 0.80171 -0.25500
H 	H 	0.70100 0.89910 0.79600 0.12100
C 	C 	0.67810 0.92430 0.82556 0.32900
H 	H 	0.70070 0.92610 0.83570 -0.08700
C 	C 	0.63650 0.11920 0.12373 0.29900
O 	O 	0.64858 0.14647 0.12776 -0.47000
O 	O 	0.62000 0.10440 0.14072 -0.49300
O 	O 	0.63790 0.97838 0.95522 -0.56800
C 	C 	0.62400 0.86300 0.00890 0.32200
O 	O 	0.61220 0.02853 0.92989 -0.55200
C 	C 	0.45930 0.06080 0.91330 0.69200
C 	C 	0.45430 0.09660 0.91570 -0.92800
H 	H 	0.46430 0.10370 0.93280 0.28100
H 	H 	0.42780 0.10190 0.91400 0.28200
H 	H 	0.46790 0.10700 0.90160 0.30000
C 	C 	0.43670 0.04620 0.93550 -0.95100
H 	H 	0.44770 0.05230 0.95260 0.29500
H 	H 	0.43710 0.02340 0.93390 0.29700
H 	H 	0.41080 0.05360 0.93420 0.28900
C 	C 	0.44340 0.05210 0.88670 -1.00000
H 	H 	0.45840 0.06180 0.87300 0.33000
H 	H 	0.41760 0.05960 0.88500 0.30500
H 	H 	0.44390 0.02930 0.88470 0.30700
C 	C 	0.64640 0.89016 0.76006 0.30900
O 	O 	0.61526 0.88711 0.74811 -0.48000
O 	O 	0.67775 0.88083 0.75214 -0.47300
O 	O 	0.67480 0.07380 0.00320 -0.35000
C 	C 	0.65200 0.12230 0.07560 -0.05300
H 	H 	0.66120 0.14290 0.07810 0.04900
C 	C 	0.65350 0.10840 0.05100 0.12800
H 	H 	0.66380 0.11990 0.03690 -0.02700
C 	C 	0.62410 0.06300 0.06740 -0.05400
H 	H 	0.61360 0.04290 0.06460 0.03300
C 	C 	0.62270 0.07610 0.09230 -0.25800
H 	H 	0.61210 0.06480 0.10630 0.09500
N 	N 	0.68210 0.05830 0.98070 -0.06500
C 	C 	0.71130 0.06950 0.97080 0.03200
H 	H 	0.72420 0.08560 0.98030 0.03300
C 	C 	0.72630 0.05950 0.94600 -0.02700
C 	C 	0.70920 0.03650 0.92900 0.04600
C 	C 	0.72630 0.03080 0.90430 0.09700
C 	C 	0.75900 0.04680 0.89770 -0.11700
H 	H 	0.76950 0.04310 0.88100 0.05600
C 	C 	0.77600 0.06770 0.91480 0.04000
C 	C 	0.75940 0.07380 0.93840 -0.06700
H 	H 	0.77100 0.08840 0.95010 0.04100
C 	C 	0.71200 0.00900 0.88480 -0.20800
H 	H 	0.72570 0.00700 0.86910 0.10100
N 	N 	0.68300 0.99230 0.88660 -0.03300
O 	O 	0.67810 0.97560 0.86390 -0.15900
O 	O 	0.68070 0.02170 0.93590 -0.17800
C 	C 	0.81280 0.08340 0.90770 0.06500
C 	C 	0.80360 0.11830 0.90770 -0.45500
H 	H 	0.79660 0.12480 0.92540 0.14800
H 	H 	0.78280 0.12240 0.89520 0.15300
H 	H 	0.82550 0.13020 0.90240 0.13400
C 	C 	0.84350 0.07560 0.92790 -0.09300
H 	H 	0.83590 0.08250 0.94540 -0.04800
H 	H 	0.86650 0.08650 0.92330 0.03100
H 	H 	0.84780 0.05300 0.92810 0.09400
C 	C 	0.82380 0.07310 0.88040 -0.49300
H 	H 	0.80370 0.07830 0.86770 0.15500
H 	H 	0.82800 0.05050 0.88040 0.19700
H 	H 	0.84670 0.08390 0.87560 0.14000
C 	C 	0.27570 0.22874 0.69831 -0.69900
C 	C 	0.28090 0.25323 0.71620 0.38000
H 	H 	0.30010 0.25130 0.72930 -0.08800
C 	C 	0.25950 0.27994 0.71580 -0.28400
H 	H 	0.26370 0.29580 0.72870 0.13300
C 	C 	0.23160 0.28364 0.69642 0.10400
C 	C 	0.22480 0.25940 0.67872 -0.29300
H 	H 	0.20530 0.26110 0.66570 0.13100
C 	C 	0.24650 0.23282 0.68018 0.39300
H 	H 	0.24110 0.21640 0.66810 -0.10800
B 	B 	0.30300 0.19900 0.69790 1.62700
O 	O 	0.27920 0.17068 0.69656 -0.54600
N 	N 	0.29840 0.14175 0.69460 -0.16600
C 	C 	0.27610 0.11870 0.69490 0.08700
H 	H 	0.25030 0.12320 0.69680 0.02400
C 	C 	0.28660 0.08624 0.69279 -0.16400
C 	C 	0.32390 0.07626 0.68964 0.26600
C 	C 	0.32978 0.04342 0.68668 -0.15100
C 	C 	0.29925 0.02243 0.68702 0.06600
H 	H 	0.30380 0.00070 0.68500 0.00900
C 	C 	0.26308 0.03269 0.69016 -0.15800
C 	C 	0.25740 0.06469 0.69270 0.06900
H 	H 	0.23270 0.07220 0.69440 -0.00100
C 	C 	0.36685 0.02971 0.68506 0.07800
H 	H 	0.36780 0.00780 0.68220 0.04500
N 	N 	0.39797 0.04355 0.68698 -0.15800
O 	O 	0.42785 0.02338 0.68552 -0.51200
B 	B 	0.46570 0.03700 0.68900 1.51800
O 	O 	0.32360 0.20378 0.67433 -0.57400
N 	N 	0.35140 0.18200 0.66957 -0.16700
C 	C 	0.36750 0.18790 0.64820 0.08900
H 	H 	0.35940 0.20610 0.63900 0.03000
C 	C 	0.39670 0.16980 0.63654 -0.17700
C 	C 	0.41190 0.14240 0.64841 0.28800
C 	C 	0.43870 0.12564 0.63328 -0.17200
C 	C 	0.44930 0.13650 0.60865 0.08500
H 	H 	0.46740 0.12500 0.59930 -0.00600
C 	C 	0.43450 0.16340 0.59725 -0.16100
C 	C 	0.40870 0.17930 0.61190 0.08100
H 	H 	0.39840 0.19800 0.60470 -0.00300
C 	C 	0.45590 0.09709 0.64246 0.07900
H 	H 	0.47290 0.08760 0.63090 0.02100
N 	N 	0.45120 0.08319 0.66396 -0.17400
O 	O 	0.47453 0.05828 0.66732 -0.56000
O 	O 	0.32470 0.19989 0.72242 -0.56600
N 	N 	0.35030 0.17560 0.72597 -0.16100
C 	C 	0.36510 0.17640 0.74880 0.06000
H 	H 	0.35650 0.19250 0.76000 0.04600
C 	C 	0.39320 0.15590 0.76007 -0.10400
C 	C 	0.40800 0.13040 0.74513 0.21600
C 	C 	0.43460 0.11090 0.75843 -0.09200
C 	C 	0.44540 0.11720 0.78459 -0.06700
C 	C 	0.40560 0.16060 0.78597 -0.02900
C 	C 	0.45210 0.08390 0.74598 0.04100
H 	H 	0.46740 0.07090 0.75690 0.06000
N 	N 	0.44860 0.07657 0.72179 -0.16100
O 	O 	0.47180 0.05159 0.71524 -0.52500
C 	C 	0.49466 0.00858 0.68908 -0.65200
C 	C 	0.48850 0.98039 0.70200 0.35700
H 	H 	0.46540 0.97730 0.71040 -0.08300
C 	C 	0.51489 0.95678 0.70287 -0.25500
H 	H 	0.50980 0.93780 0.71180 0.12700
C 	C 	0.54888 0.96076 0.69076 0.08000
C 	C 	0.55550 0.98800 0.67729 -0.25100
H 	H 	0.57830 0.99070 0.66840 0.11000
C 	C 	0.52885 0.01151 0.67665 0.33600
H 	H 	0.53400 0.03030 0.66740 -0.09600
C 	C 	0.21020 0.31350 0.69350 0.31700
O 	O 	0.21588 0.33349 0.71125 -0.49100
O 	O 	0.18756 0.31551 0.67429 -0.49500
O 	O 	0.35116 0.09579 0.68890 -0.53900
C 	C 	0.23020 0.01017 0.69190 0.34800
O 	O 	0.40060 0.13215 0.67004 -0.56400
C 	C 	0.44730 0.17510 0.57040 0.35300
O 	O 	0.39800 0.12589 0.72078 -0.53700
C 	C 	0.57818 0.93564 0.69207 0.35000
O 	O 	0.56901 0.90965 0.70123 -0.48100
O 	O 	0.60982 0.94250 0.68503 -0.49500
C 	C 	0.43430 0.14370 0.79810 0.13500
C 	C 	0.22180 0.99000 0.66840 -0.17100
H 	H 	0.24500 0.98120 0.66200 -0.00700
H 	H 	0.20970 0.00260 0.65450 0.07600
H 	H 	0.20500 0.97300 0.67340 0.04100
C 	C 	0.24140 0.98730 0.71540 -0.53800
H 	H 	0.24720 0.99960 0.73120 0.18100
H 	H 	0.26330 0.97510 0.71070 0.17700
H 	H 	0.22060 0.97320 0.71870 0.17600
C 	C 	0.19440 0.02380 0.70200 -0.28800
H 	H 	0.20010 0.03700 0.71730 -0.06100
H 	H 	0.17770 0.00690 0.70700 0.09900
H 	H 	0.18240 0.03650 0.68810 0.10800
C 	C 	0.42600 0.20340 0.55950 -0.21000
H 	H 	0.42630 0.22010 0.57260 0.05600
H 	H 	0.40010 0.19740 0.55530 0.07700
H 	H 	0.43790 0.21070 0.54350 0.05500
C 	C 	0.48710 0.18740 0.57720 -0.21700
H 	H 	0.50240 0.17030 0.58440 0.05800
H 	H 	0.48570 0.20420 0.59020 -0.00300
H 	H 	0.49840 0.19550 0.56120 0.07300
C 	C 	0.44830 0.14760 0.55130 -0.37100
H 	H 	0.46230 0.13030 0.55940 0.00100
H 	H 	0.46060 0.15420 0.53510 0.12000
H 	H 	0.42280 0.14080 0.54690 0.23400
C 	C 	0.45610 0.15630 0.82230 -0.18100
C 	C 	0.44080 0.18700 0.83220 0.05800
H 	H 	0.44310 0.20300 0.81850 0.01800
H 	H 	0.45500 0.19350 0.84810 0.01200
H 	H 	0.41450 0.18440 0.83640 -0.12500
C 	C 	0.45270 0.13120 0.84340 1.21600
H 	H 	0.46260 0.11140 0.83690 -1.57300
H 	H 	0.42630 0.12850 0.84760 -0.18100
H 	H 	0.46680 0.13760 0.85930 -0.38200
C 	C 	0.49740 0.16230 0.81760 -0.01500
H 	H 	0.50900 0.14310 0.81110 0.00700
H 	H 	0.50990 0.16870 0.83410 0.04700
H 	H 	0.49990 0.17890 0.80450 0.02000
C 	C 	0.59220 0.86370 0.02850 -0.19600
H 	H 	0.59560 0.88170 0.04020 0.07100
H 	H 	0.59250 0.84440 0.03880 0.05700
H 	H 	0.56830 0.86560 0.01880 0.04100
C 	C 	0.61840 0.83480 0.99060 -0.18400
H 	H 	0.63860 0.83410 0.97800 0.05800
H 	H 	0.59440 0.83670 0.98110 0.06000
H 	H 	0.61860 0.81560 0.00110 0.05100
C 	C 	0.66130 0.85600 0.02390 -0.33000
H 	H 	0.66700 0.87310 0.03620 0.09300
H 	H 	0.68140 0.85410 0.01130 0.05700
H 	H 	0.65910 0.83640 0.03370 0.10300
C 	C 	0.76790 0.01050 0.69180 0.29800
H 	H 	0.76030 0.03040 0.68540 -0.07100
C 	C 	0.74170 0.98670 0.69290 0.14500
H 	H 	0.71660 0.99060 0.68750 -0.01700
C 	C 	0.78780 0.95280 0.71200 -0.09700
H 	H 	0.79490 0.93340 0.71960 0.05900
C 	C 	0.81340 0.97700 0.71110 0.06700
H 	H 	0.83780 0.97370 0.71850 -0.00400
C 	C 	0.88810 0.17960 0.84380 -0.19400
H 	H 	0.91440 0.17350 0.84310 0.12900
H 	H 	0.88110 0.18190 0.86220 0.06900
H 	H 	0.88440 0.19960 0.83470 -0.05800
C 	C 	0.82270 0.16230 0.83090 -0.14700
H 	H 	0.80890 0.14530 0.82210 0.07200
H 	H 	0.81790 0.18200 0.82150 0.04500
H 	H 	0.81460 0.16420 0.84900 0.06000
C 	C 	0.87230 0.12560 0.84820 -0.59700
H 	H 	0.85780 0.10790 0.84120 0.17100
H 	H 	0.86520 0.12980 0.86630 0.17600
H 	H 	0.89890 0.12060 0.84790 0.15200
O 	O 	0.68250 0.06320 0.00920 -0.20400
C 	C 	0.61040 0.07370 0.06250 0.28100
H 	H 	0.59030 0.06090 0.05640 -0.07400
C 	C 	0.60860 0.08700 0.08720 0.10500
H 	H 	0.58780 0.08300 0.09790 0.00200
C 	C 	0.66620 0.11360 0.07970 -0.09300
H 	H 	0.68480 0.12830 0.08510 0.04800
C 	C 	0.66770 0.09940 0.05530 0.09200
H 	H 	0.68800 0.10410 0.04430 -0.01100
N 	N 	0.69030 0.04860 0.98480 -0.10100
C 	C 	0.72420 0.05300 0.97920 -0.01600
H 	H 	0.73940 0.06440 0.99150 0.04300
C 	C 	0.74170 0.04190 0.95540 -0.04500
C 	C 	0.72200 0.02360 0.93570 0.11600
C 	C 	0.74320 0.01170 0.91430 -0.18100
C 	C 	0.78140 0.01870 0.91300 0.06500
H 	H 	0.79520 0.01010 0.89900 -0.01200
C 	C 	0.79970 0.03800 0.93150 -0.07600
C 	C 	0.77950 0.04860 0.95250 0.00700
H 	H 	0.79200 0.06090 0.96560 0.01600
C 	C 	0.72640 0.99390 0.89300 0.21400
H 	H 	0.74280 0.98630 0.88000 -0.04000
N 	N 	0.69210 0.98720 0.88980 -0.10800
O 	O 	0.68360 0.96900 0.86790 -0.34000
O 	O 	0.68660 0.01890 0.93660 -0.27500
C 	C 	0.84070 0.04650 0.92730 0.11800
C 	C 	0.85850 0.06310 0.95040 -0.52000
H 	H 	0.85530 0.05060 0.96640 0.16400
H 	H 	0.84670 0.08360 0.95260 0.22200
H 	H 	0.88520 0.06590 0.94740 0.15500
C 	C 	0.86280 0.01600 0.92400 -0.46200
H 	H 	0.85220 0.00420 0.90900 0.14100
H 	H 	0.86120 0.00330 0.94000 0.14800
H 	H 	0.88900 0.02090 0.92070 0.13500
C 	C 	0.84390 0.06380 0.90110 -0.14900
H 	H 	0.83170 0.05150 0.88710 -0.01900
H 	H 	0.87040 0.06660 0.89720 0.03400
H 	H 	0.83180 0.08430 0.90230 0.14300
C 	C 	0.58440 0.85030 0.00090 -0.34800
H 	H 	0.58260 0.84790 0.98170 0.09300
H 	H 	0.56540 0.86510 0.00660 0.10400
H 	H 	0.58050 0.83000 0.00930 0.11300
C 	C 	0.65180 0.83820 0.00100 -0.19300
H 	H 	0.65140 0.83620 0.98170 0.04100
H 	H 	0.64510 0.81810 0.00880 0.05500
H 	H 	0.67690 0.84430 0.00720 0.08300
C 	C 	0.62460 0.86600 0.03860 -0.17600
H 	H 	0.60660 0.88200 0.04370 0.01900
H 	H 	0.64970 0.87200 0.04480 0.04900
H 	H 	0.61790 0.84590 0.04640 0.04900
C 	C 	0.20000 0.02020 0.67090 -0.36300
H 	H 	0.19210 0.04170 0.67430 0.07900
H 	H 	0.17840 0.00620 0.67180 0.09900
H 	H 	0.21040 0.01890 0.65330 0.08200
C 	C 	0.24020 0.97710 0.68480 -0.16900
H 	H 	0.25230 0.97690 0.66770 0.11200
H 	H 	0.21740 0.96430 0.68360 0.05400
H 	H 	0.25720 0.96840 0.69830 0.03000
C 	C 	0.21120 0.01170 0.71830 -0.03200
H 	H 	0.20510 0.03350 0.72230 0.15900
H 	H 	0.22800 0.00330 0.73210 0.00100
H 	H 	0.18820 0.99920 0.71740 -0.01300
C 	C 	0.45580 0.21010 0.57170 -0.34200
H 	H 	0.43430 0.22130 0.57870 0.09200
H 	H 	0.46090 0.21790 0.55400 0.10700
H 	H 	0.47770 0.21370 0.58330 0.15800
C 	C 	0.48010 0.15670 0.55970 -0.26000
H 	H 	0.47380 0.13440 0.55910 0.16700
H 	H 	0.50220 0.15980 0.57120 0.07800
H 	H 	0.48530 0.16400 0.54190 0.06100
C 	C 	0.41570 0.17000 0.54950 -0.11600
H 	H 	0.40970 0.14770 0.54830 -0.08700
H 	H 	0.42390 0.17750 0.53230 0.04900
H 	H 	0.39340 0.18170 0.55450 0.02600
C 	C 	0.42850 0.13990 0.79960 0.04500
C 	C 	0.42860 0.13770 0.82970 -0.66000
C 	C 	0.41700 0.16830 0.84200 0.37800
H 	H 	0.39220 0.17430 0.83510 -0.03200
H 	H 	0.43510 0.18460 0.83770 -0.06600
H 	H 	0.41620 0.16590 0.86120 -0.09600
C 	C 	0.46690 0.12600 0.83900 0.62900
H 	H 	0.47240 0.10620 0.83030 1.01700
H 	H 	0.46700 0.12280 0.85810 -0.08300
H 	H 	0.48590 0.14150 0.83470 -0.27900
C 	C 	0.39990 0.11420 0.84010 0.29700
H 	H 	0.40510 0.09340 0.83310 -0.04600
H 	H 	0.37470 0.12070 0.83440 -0.05800
H 	H 	0.40160 0.11370 0.85940 -0.05300
Zn	Zn	0.61411 0.40853 0.30203 1.20000
Zn	Zn	0.56608 0.35294 0.30369 1.19800
Zn	Zn	0.14252 0.35585 0.30492 1.19900
Zn	Zn	0.08986 0.40824 0.30788 1.19500
Zn	Zn	0.85613 0.47468 0.03419 1.19300
Zn	Zn	0.85575 0.50890 0.08430 1.19100
Zn	Zn	0.89609 0.62328 0.28849 1.21700
Zn	Zn	0.84691 0.58240 0.32737 1.18100
Zn	Zn	0.80781 0.62564 0.28468 1.21000
Zn	Zn	0.85266 0.65473 0.33414 1.20600
O 	O 	0.85070 0.62221 0.30789 -0.95900
C 	C 	0.48840 0.26552 0.30556 -0.64400
C 	C 	0.49000 0.24141 0.28685 0.34200
H 	H 	0.50690 0.24340 0.27290 -0.07300
C 	C 	0.46790 0.21493 0.28792 -0.25400
H 	H 	0.46930 0.19950 0.27450 0.12700
C 	C 	0.44360 0.21080 0.30837 0.08900
C 	C 	0.44080 0.23448 0.32695 -0.25900
H 	H 	0.42410 0.23220 0.34100 0.12200
C 	C 	0.46220 0.26133 0.32524 0.33900
H 	H 	0.45900 0.27750 0.33780 -0.08800
B 	B 	0.51480 0.29580 0.30470 1.53900
O 	O 	0.54603 0.28962 0.32412 -0.51700
N 	N 	0.57190 0.31302 0.32771 -0.16700
C 	C 	0.59530 0.30730 0.34610 0.09400
H 	H 	0.59280 0.28770 0.35470 0.02400
C 	C 	0.62540 0.32720 0.35570 -0.20100
C 	C 	0.63400 0.35630 0.34350 0.30100
C 	C 	0.66540 0.37320 0.35490 -0.20100
C 	C 	0.68460 0.36260 0.37750 0.14000
H 	H 	0.70430 0.37490 0.38490 -0.03500
C 	C 	0.67540 0.33460 0.38940 -0.28200
C 	C 	0.64590 0.31750 0.37810 0.13700
H 	H 	0.63940 0.29820 0.38610 -0.03600
C 	C 	0.67750 0.40210 0.34370 0.10300
H 	H 	0.70020 0.41060 0.35060 0.02100
N 	N 	0.66110 0.41760 0.32560 -0.16800
O 	O 	0.68070 0.44437 0.32061 -0.54500
B 	B 	0.66540 0.46620 0.30100 1.53100
O 	O 	0.49202 0.32215 0.31328 -0.54100
N 	N 	0.50950 0.35155 0.31296 -0.17200
C 	C 	0.48670 0.37312 0.31840 0.10000
H 	H 	0.46190 0.36680 0.32190 0.02000
C 	C 	0.49430 0.40669 0.31980 -0.20600
C 	C 	0.53050 0.41916 0.31620 0.29000
C 	C 	0.53420 0.45201 0.31770 -0.20500
C 	C 	0.50230 0.47100 0.32100 0.14800
H 	H 	0.50530 0.49300 0.32100 -0.04100
C 	C 	0.46680 0.45875 0.32430 -0.30800
C 	C 	0.46440 0.42636 0.32470 0.15700
H 	H 	0.44110 0.41710 0.32860 -0.04900
C 	C 	0.56890 0.46880 0.31410 0.09800
H 	H 	0.56860 0.49090 0.31610 0.01900
N 	N 	0.59960 0.45597 0.30840 -0.17000
O 	O 	0.62846 0.47845 0.30608 -0.54900
O 	O 	0.52751 0.29850 0.27787 -0.54000
N 	N 	0.55180 0.32243 0.27252 -0.15900
C 	C 	0.56160 0.32137 0.24876 0.08200
H 	H 	0.55070 0.30540 0.23800 0.04200
C 	C 	0.58810 0.34232 0.23636 -0.14600
C 	C 	0.60360 0.36876 0.24993 0.24900
C 	C 	0.62940 0.38767 0.23570 -0.15500
C 	C 	0.63900 0.37900 0.21024 0.06400
H 	H 	0.65680 0.39140 0.20150 -0.00700
C 	C 	0.62410 0.35340 0.19706 -0.15700
C 	C 	0.59820 0.33540 0.21039 0.06500
H 	H 	0.58700 0.31790 0.20170 0.01100
C 	C 	0.64690 0.41530 0.24693 0.07500
H 	H 	0.66210 0.42720 0.23560 0.02300
N 	N 	0.64400 0.42540 0.27024 -0.16800
O 	O 	0.66580 0.45220 0.27429 -0.52900
C 	C 	0.69490 0.49403 0.30001 -0.56800
C 	C 	0.74800 0.54311 0.29822 -0.02800
C 	C 	0.41980 0.18190 0.30998 0.32200
O 	O 	0.42269 0.16238 0.29185 -0.49100
O 	O 	0.39757 0.18103 0.32880 -0.47800
O 	O 	0.61660 0.36583 0.32314 -0.55600
C 	C 	0.69630 0.32260 0.41410 0.61200
O 	O 	0.55866 0.40084 0.31153 -0.55100
C 	C 	0.43200 0.47950 0.32660 0.66900
C 	C 	0.40580 0.47640 0.30130 -0.82400
H 	H 	0.41870 0.48460 0.28600 0.25700
H 	H 	0.39940 0.45440 0.29840 0.26000
H 	H 	0.38290 0.48850 0.30380 0.24100
C 	C 	0.40600 0.46590 0.34580 -0.97100
H 	H 	0.40310 0.44350 0.34230 0.29300
H 	H 	0.41610 0.46900 0.36370 0.28600
H 	H 	0.38170 0.47620 0.34390 0.28400
C 	C 	0.44190 0.51360 0.32710 -0.96500
H 	H 	0.45930 0.51810 0.31300 0.29300
H 	H 	0.41920 0.52610 0.32440 0.28500
H 	H 	0.45360 0.51890 0.34420 0.28700
O 	O 	0.59467 0.37603 0.27388 -0.53800
C 	C 	0.63580 0.34490 0.16918 0.35700
C 	C 	0.77630 0.56839 0.29630 0.33500
O 	O 	0.80915 0.56142 0.30389 -0.51900
O 	O 	0.76771 0.59485 0.28711 -0.48400
C 	C 	0.72410 0.49660 0.31910 -0.10100
H 	H 	0.72590 0.48180 0.33290 0.05400
C 	C 	0.75030 0.52040 0.31800 -0.27100
H 	H 	0.77000 0.52130 0.33080 0.09300
C 	C 	0.71860 0.54180 0.27990 -0.02800
H 	H 	0.71600 0.55740 0.26670 0.02500
C 	C 	0.69320 0.51750 0.28110 0.13300
H 	H 	0.67340 0.51690 0.26830 -0.03700
C 	C 	0.60570 0.34910 0.14840 0.00800
H 	H 	0.58230 0.34000 0.15460 -0.06200
H 	H 	0.60210 0.37140 0.14490 0.04100
H 	H 	0.61300 0.33850 0.13220 -0.01300
C 	C 	0.64330 0.30870 0.16850 -0.47900
H 	H 	0.66290 0.30340 0.18150 0.15000
H 	H 	0.62030 0.29740 0.17250 0.24700
H 	H 	0.65130 0.30270 0.15090 0.15900
C 	C 	0.67320 0.35820 0.16150 -0.20800
H 	H 	0.69150 0.35470 0.17590 0.03900
H 	H 	0.68150 0.34780 0.14560 0.04500
H 	H 	0.67060 0.38070 0.15820 0.06500
C 	C 	0.67110 0.32500 0.43800 -0.85600
H 	H 	0.64770 0.31380 0.43430 0.26000
H 	H 	0.68390 0.31560 0.45340 0.24900
H 	H 	0.66580 0.34700 0.44170 0.25900
C 	C 	0.73280 0.33980 0.41970 -0.88900
H 	H 	0.74490 0.33130 0.43570 0.26100
H 	H 	0.74930 0.33720 0.40480 0.27000
H 	H 	0.72770 0.36210 0.42230 0.26900
C 	C 	0.70400 0.28740 0.41070 -0.86100
H 	H 	0.68040 0.27640 0.40710 0.26500
H 	H 	0.72070 0.28430 0.39600 0.26400
H 	H 	0.71580 0.27920 0.42690 0.25300
C 	C 	0.85960 0.42170 0.95388 -0.59700
C 	C 	0.86270 0.39370 0.90355 -0.01500
B 	B 	0.85640 0.43890 0.98147 1.57300
O 	O 	0.85820 0.47199 0.97510 -0.55600
N 	N 	0.86050 0.49340 0.99588 -0.16200
C 	C 	0.86200 0.52130 0.98808 0.08200
H 	H 	0.86180 0.52460 0.96960 0.01800
C 	C 	0.86400 0.54887 0.00468 -0.17300
C 	C 	0.86300 0.54770 0.03275 0.28000
C 	C 	0.86600 0.57670 0.04650 -0.17400
C 	C 	0.87080 0.60420 0.03208 0.07300
H 	H 	0.87400 0.62320 0.04160 -0.00300
C 	C 	0.87110 0.60560 0.00522 -0.15900
C 	C 	0.86820 0.57780 0.99170 0.06900
H 	H 	0.86910 0.57800 0.97300 -0.01200
C 	C 	0.86410 0.57940 0.07461 0.07900
H 	H 	0.86610 0.60000 0.08160 0.03000
N 	N 	0.86020 0.55772 0.09120 -0.16400
O 	O 	0.85930 0.56835 0.11663 -0.52500
B 	B 	0.85430 0.54460 0.13696 1.47000
O 	O 	0.88880 0.42846 0.99683 -0.55400
N 	N 	0.89480 0.44160 0.02149 -0.16500
C 	C 	0.92730 0.43550 0.03066 0.09700
H 	H 	0.94290 0.42280 0.02020 0.01800
C 	C 	0.94230 0.44620 0.05553 -0.20600
C 	C 	0.92200 0.46430 0.07426 0.29100
C 	C 	0.94190 0.47320 0.09784 -0.19800
C 	C 	0.97970 0.46550 0.10128 0.15600
H 	H 	0.99250 0.47220 0.11690 -0.02500
C 	C 	0.99950 0.44840 0.08298 -0.31300
C 	C 	0.98010 0.43900 0.06074 0.15700
H 	H 	0.99300 0.42690 0.04820 -0.04700
C 	C 	0.92520 0.49200 0.11828 0.10000
H 	H 	0.93900 0.49440 0.13440 0.03500
N 	N 	0.89370 0.50542 0.11627 -0.16800
O 	O 	0.88530 0.52119 0.13872 -0.49700
C 	C 	0.85420 0.56220 0.16486 -0.62800
C 	C 	0.88630 0.56410 0.18114 0.32600
H 	H 	0.90850 0.55410 0.17580 -0.06600
C 	C 	0.88640 0.58030 0.20488 -0.24400
H 	H 	0.90880 0.58210 0.21520 0.12500
C 	C 	0.85380 0.59388 0.21356 0.08700
C 	C 	0.82140 0.59160 0.19829 -0.25500
H 	H 	0.79900 0.60090 0.20400 0.12100
C 	C 	0.82190 0.57570 0.17444 0.32900
H 	H 	0.79930 0.57390 0.16430 -0.08700
C 	C 	0.86350 0.38080 0.87627 0.29900
O 	O 	0.85142 0.35353 0.87224 -0.47000
O 	O 	0.88000 0.39560 0.85928 -0.49300
O 	O 	0.86210 0.52162 0.04478 -0.56800
C 	C 	0.87600 0.63700 0.99110 0.32200
O 	O 	0.88780 0.47147 0.07011 -0.55200
C 	C 	0.04070 0.43920 0.08670 0.69200
C 	C 	0.04570 0.40340 0.08430 -0.92800
H 	H 	0.03570 0.39630 0.06720 0.28100
H 	H 	0.07220 0.39810 0.08600 0.28200
H 	H 	0.03210 0.39300 0.09840 0.30000
C 	C 	0.06330 0.45380 0.06450 -0.95100
H 	H 	0.05230 0.44770 0.04740 0.29500
H 	H 	0.06290 0.47660 0.06610 0.29700
H 	H 	0.08920 0.44640 0.06580 0.28900
C 	C 	0.05660 0.44790 0.11330 -1.00000
H 	H 	0.04160 0.43820 0.12700 0.33000
H 	H 	0.08240 0.44040 0.11500 0.30500
H 	H 	0.05610 0.47070 0.11530 0.30700
C 	C 	0.85360 0.60984 0.23994 0.30900
O 	O 	0.88474 0.61289 0.25189 -0.48000
O 	O 	0.82225 0.61917 0.24786 -0.47300
O 	O 	0.82520 0.42620 0.99680 -0.35000
C 	C 	0.84800 0.37770 0.92440 -0.05300
H 	H 	0.83880 0.35710 0.92190 0.04900
C 	C 	0.84650 0.39160 0.94900 0.12800
H 	H 	0.83620 0.38010 0.96310 -0.02700
C 	C 	0.87590 0.43700 0.93260 -0.05400
H 	H 	0.88640 0.45710 0.93540 0.03300
C 	C 	0.87730 0.42390 0.90770 -0.25800
H 	H 	0.88790 0.43520 0.89370 0.09500
N 	N 	0.81790 0.44170 0.01930 -0.06500
C 	C 	0.78870 0.43050 0.02920 0.03200
H 	H 	0.77580 0.41440 0.01970 0.03300
C 	C 	0.77370 0.44050 0.05400 -0.02700
C 	C 	0.79080 0.46350 0.07100 0.04600
C 	C 	0.77370 0.46920 0.09570 0.09700
C 	C 	0.74100 0.45320 0.10230 -0.11700
H 	H 	0.73050 0.45690 0.11900 0.05600
C 	C 	0.72400 0.43230 0.08520 0.04000
C 	C 	0.74060 0.42620 0.06160 -0.06700
H 	H 	0.72900 0.41160 0.04990 0.04100
C 	C 	0.78800 0.49100 0.11520 -0.20800
H 	H 	0.77430 0.49300 0.13090 0.10100
N 	N 	0.81700 0.50770 0.11340 -0.03300
O 	O 	0.82190 0.52440 0.13610 -0.15900
O 	O 	0.81930 0.47830 0.06410 -0.17800
C 	C 	0.68720 0.41660 0.09230 0.06500
C 	C 	0.69640 0.38170 0.09230 -0.45500
H 	H 	0.70340 0.37520 0.07460 0.14800
H 	H 	0.71720 0.37760 0.10480 0.15300
H 	H 	0.67450 0.36980 0.09760 0.13400
C 	C 	0.65650 0.42440 0.07210 -0.09300
H 	H 	0.66410 0.41750 0.05460 -0.04800
H 	H 	0.63350 0.41350 0.07670 0.03100
H 	H 	0.65220 0.44700 0.07190 0.09400
C 	C 	0.67620 0.42690 0.11960 -0.49300
H 	H 	0.69630 0.42170 0.13230 0.15500
H 	H 	0.67200 0.44950 0.11960 0.19700
H 	H 	0.65330 0.41610 0.12440 0.14000
C 	C 	0.22430 0.27126 0.30169 -0.69900
C 	C 	0.21910 0.24677 0.28380 0.38000
H 	H 	0.19990 0.24870 0.27070 -0.08900
C 	C 	0.24050 0.22006 0.28420 -0.28400
H 	H 	0.23630 0.20420 0.27130 0.13300
C 	C 	0.26840 0.21636 0.30358 0.10400
C 	C 	0.27520 0.24060 0.32128 -0.29300
H 	H 	0.29470 0.23890 0.33430 0.13100
C 	C 	0.25350 0.26718 0.31982 0.39300
H 	H 	0.25890 0.28360 0.33190 -0.10800
B 	B 	0.19700 0.30100 0.30210 1.62700
O 	O 	0.22080 0.32932 0.30344 -0.54600
N 	N 	0.20160 0.35825 0.30540 -0.16600
C 	C 	0.22390 0.38130 0.30510 0.08700
H 	H 	0.24970 0.37680 0.30320 0.02400
C 	C 	0.21340 0.41376 0.30721 -0.16400
C 	C 	0.17610 0.42374 0.31036 0.26600
C 	C 	0.17022 0.45658 0.31332 -0.15100
C 	C 	0.20075 0.47757 0.31298 0.06600
H 	H 	0.19620 0.49930 0.31500 0.00900
C 	C 	0.23692 0.46731 0.30984 -0.15800
C 	C 	0.24260 0.43531 0.30730 0.06900
H 	H 	0.26730 0.42780 0.30560 -0.00100
C 	C 	0.13315 0.47029 0.31494 0.07800
H 	H 	0.13220 0.49220 0.31780 0.04500
N 	N 	0.10203 0.45645 0.31302 -0.15800
O 	O 	0.07215 0.47662 0.31448 -0.51200
B 	B 	0.03430 0.46300 0.31100 1.51800
O 	O 	0.17640 0.29622 0.32567 -0.57400
N 	N 	0.14860 0.31800 0.33043 -0.16700
C 	C 	0.13250 0.31210 0.35180 0.08900
H 	H 	0.14060 0.29390 0.36100 0.03000
C 	C 	0.10330 0.33020 0.36346 -0.17700
C 	C 	0.08810 0.35760 0.35159 0.28800
C 	C 	0.06130 0.37436 0.36672 -0.17200
C 	C 	0.05070 0.36350 0.39135 0.08500
H 	H 	0.03260 0.37500 0.40070 -0.00600
C 	C 	0.06550 0.33660 0.40275 -0.16100
C 	C 	0.09130 0.32070 0.38810 0.08100
H 	H 	0.10160 0.30200 0.39530 -0.00300
C 	C 	0.04410 0.40291 0.35754 0.07900
H 	H 	0.02710 0.41240 0.36910 0.02100
N 	N 	0.04880 0.41681 0.33604 -0.17400
O 	O 	0.02547 0.44172 0.33268 -0.56000
O 	O 	0.17530 0.30011 0.27758 -0.56600
N 	N 	0.14970 0.32440 0.27403 -0.16100
C 	C 	0.13490 0.32360 0.25120 0.06000
H 	H 	0.14350 0.30750 0.24000 0.04600
C 	C 	0.10680 0.34410 0.23993 -0.10400
C 	C 	0.09200 0.36960 0.25487 0.21600
C 	C 	0.06540 0.38910 0.24157 -0.09200
C 	C 	0.05460 0.38280 0.21541 -0.06700
C 	C 	0.09440 0.33940 0.21403 -0.02900
C 	C 	0.04790 0.41610 0.25402 0.04100
H 	H 	0.03260 0.42910 0.24310 0.06000
N 	N 	0.05140 0.42343 0.27821 -0.16100
O 	O 	0.02820 0.44841 0.28476 -0.52500
C 	C 	0.00534 0.49142 0.31092 -0.65200
C 	C 	0.01150 0.51961 0.29800 0.35700
H 	H 	0.03460 0.52270 0.28960 -0.08300
C 	C 	0.98511 0.54322 0.29713 -0.25500
H 	H 	0.99020 0.56220 0.28820 0.12700
C 	C 	0.95112 0.53924 0.30924 0.08000
C 	C 	0.94450 0.51200 0.32271 -0.25100
H 	H 	0.92170 0.50930 0.33160 0.11000
C 	C 	0.97115 0.48849 0.32335 0.33600
H 	H 	0.96600 0.46970 0.33260 -0.09600
C 	C 	0.28980 0.18650 0.30650 0.31700
O 	O 	0.28412 0.16651 0.28875 -0.49100
O 	O 	0.31244 0.18449 0.32571 -0.49500
O 	O 	0.14884 0.40421 0.31110 -0.53900
C 	C 	0.26980 0.48983 0.30810 0.34800
O 	O 	0.09940 0.36785 0.32996 -0.56400
C 	C 	0.05270 0.32490 0.42960 0.35300
O 	O 	0.10200 0.37411 0.27922 -0.53700
C 	C 	0.92182 0.56436 0.30793 0.35000
O 	O 	0.93099 0.59035 0.29877 -0.48100
O 	O 	0.89018 0.55750 0.31497 -0.49500
C 	C 	0.06570 0.35630 0.20190 0.13500
C 	C 	0.27820 0.51000 0.33160 -0.17100
H 	H 	0.25500 0.51880 0.33800 -0.00700
H 	H 	0.29030 0.49740 0.34550 0.07600
H 	H 	0.29500 0.52700 0.32660 0.04100
C 	C 	0.25860 0.51270 0.28460 -0.53800
H 	H 	0.25280 0.50040 0.26880 0.18100
H 	H 	0.23670 0.52490 0.28930 0.17700
H 	H 	0.27940 0.52680 0.28130 0.17600
C 	C 	0.30560 0.47620 0.29800 -0.28800
H 	H 	0.29990 0.46300 0.28270 -0.06100
H 	H 	0.32230 0.49310 0.29300 0.09900
H 	H 	0.31760 0.46350 0.31190 0.10800
C 	C 	0.07400 0.29660 0.44050 -0.21000
H 	H 	0.07370 0.27990 0.42740 0.05600
H 	H 	0.09990 0.30260 0.44470 0.07700
H 	H 	0.06210 0.28930 0.45650 0.05500
C 	C 	0.01290 0.31260 0.42280 -0.21700
H 	H 	0.99760 0.32970 0.41560 0.05800
H 	H 	0.01430 0.29580 0.40980 -0.00300
H 	H 	0.00160 0.30450 0.43880 0.07300
C 	C 	0.05170 0.35240 0.44870 -0.37100
H 	H 	0.03770 0.36970 0.44060 0.00100
H 	H 	0.03940 0.34580 0.46490 0.12000
H 	H 	0.07720 0.35920 0.45310 0.23400
C 	C 	0.04390 0.34370 0.17770 -0.18100
C 	C 	0.05920 0.31300 0.16780 0.05800
H 	H 	0.05690 0.29700 0.18150 0.01800
H 	H 	0.04500 0.30650 0.15190 0.01200
H 	H 	0.08550 0.31560 0.16360 -0.12500
C 	C 	0.04730 0.36880 0.15660 1.21600
H 	H 	0.03740 0.38860 0.16310 -1.57300
H 	H 	0.07370 0.37150 0.15240 -0.18100
H 	H 	0.03320 0.36240 0.14070 -0.38200
C 	C 	0.00260 0.33770 0.18240 -0.01500
H 	H 	0.99100 0.35690 0.18890 0.00700
H 	H 	0.99010 0.33130 0.16590 0.04700
H 	H 	0.00010 0.32110 0.19550 0.02000
C 	C 	0.90780 0.63630 0.97150 -0.19600
H 	H 	0.90440 0.61830 0.95980 0.07100
H 	H 	0.90750 0.65560 0.96120 0.05700
H 	H 	0.93170 0.63440 0.98120 0.04100
C 	C 	0.88160 0.66520 0.00940 -0.18400
H 	H 	0.86140 0.66590 0.02200 0.05800
H 	H 	0.90560 0.66330 0.01890 0.06000
H 	H 	0.88140 0.68440 0.99890 0.05100
C 	C 	0.83870 0.64400 0.97610 -0.33000
H 	H 	0.83300 0.62690 0.96380 0.09300
H 	H 	0.81860 0.64590 0.98870 0.05700
H 	H 	0.84090 0.66360 0.96630 0.10300
C 	C 	0.73210 0.48950 0.30820 0.29800
H 	H 	0.73970 0.46960 0.31460 -0.07100
C 	C 	0.75830 0.51330 0.30710 0.14500
H 	H 	0.78340 0.50940 0.31250 -0.01700
C 	C 	0.71220 0.54720 0.28800 -0.09700
H 	H 	0.70510 0.56660 0.28040 0.05900
C 	C 	0.68660 0.52300 0.28890 0.06700
H 	H 	0.66220 0.52630 0.28150 -0.00400
C 	C 	0.61190 0.32040 0.15620 -0.19400
H 	H 	0.58560 0.32650 0.15690 0.12900
H 	H 	0.61890 0.31810 0.13780 0.06900
H 	H 	0.61560 0.30040 0.16530 -0.05800
C 	C 	0.67730 0.33770 0.16910 -0.14700
H 	H 	0.69110 0.35470 0.17790 0.07200
H 	H 	0.68210 0.31800 0.17850 0.04500
H 	H 	0.68540 0.33580 0.15100 0.06000
C 	C 	0.62770 0.37440 0.15180 -0.59700
H 	H 	0.64220 0.39210 0.15880 0.17100
H 	H 	0.63480 0.37020 0.13370 0.17600
H 	H 	0.60110 0.37940 0.15210 0.15200
O 	O 	0.81750 0.43680 0.99080 -0.20400
C 	C 	0.88960 0.42630 0.93750 0.28100
H 	H 	0.90970 0.43910 0.94360 -0.07400
C 	C 	0.89140 0.41300 0.91280 0.10500
H 	H 	0.91220 0.41700 0.90210 0.00200
C 	C 	0.83380 0.38640 0.92030 -0.09300
H 	H 	0.81520 0.37170 0.91490 0.04800
C 	C 	0.83230 0.40060 0.94470 0.09200
H 	H 	0.81200 0.39590 0.95570 -0.01100
N 	N 	0.80970 0.45140 0.01520 -0.10100
C 	C 	0.77580 0.44700 0.02080 -0.01600
H 	H 	0.76060 0.43560 0.00850 0.04300
C 	C 	0.75830 0.45810 0.04460 -0.04500
C 	C 	0.77800 0.47640 0.06430 0.11600
C 	C 	0.75680 0.48830 0.08570 -0.18100
C 	C 	0.71860 0.48130 0.08700 0.06500
H 	H 	0.70480 0.48990 0.10100 -0.01200
C 	C 	0.70030 0.46200 0.06850 -0.07600
C 	C 	0.72050 0.45140 0.04750 0.00700
H 	H 	0.70800 0.43910 0.03440 0.01600
C 	C 	0.77360 0.50610 0.10700 0.21400
H 	H 	0.75720 0.51370 0.12000 -0.04000
N 	N 	0.80790 0.51280 0.11020 -0.10800
O 	O 	0.81640 0.53100 0.13210 -0.34000
O 	O 	0.81340 0.48110 0.06340 -0.27500
C 	C 	0.65930 0.45350 0.07270 0.11800
C 	C 	0.64150 0.43690 0.04960 -0.52000
H 	H 	0.64470 0.44940 0.03360 0.16400
H 	H 	0.65330 0.41640 0.04740 0.22200
H 	H 	0.61480 0.43410 0.05260 0.15500
C 	C 	0.63720 0.48400 0.07600 -0.46200
H 	H 	0.64780 0.49580 0.09100 0.14100
H 	H 	0.63880 0.49670 0.06000 0.14800
H 	H 	0.61100 0.47910 0.07930 0.13500
C 	C 	0.65610 0.43620 0.09890 -0.14900
H 	H 	0.66830 0.44850 0.11290 -0.01900
H 	H 	0.62960 0.43340 0.10280 0.03400
H 	H 	0.66820 0.41570 0.09770 0.14300
C 	C 	0.91560 0.64970 0.99910 -0.34800
H 	H 	0.91740 0.65210 0.01830 0.09300
H 	H 	0.93460 0.63490 0.99340 0.10400
H 	H 	0.91950 0.67000 0.99070 0.11300
C 	C 	0.84820 0.66180 0.99900 -0.19300
H 	H 	0.84860 0.66380 0.01830 0.04100
H 	H 	0.85490 0.68190 0.99120 0.05500
H 	H 	0.82310 0.65570 0.99280 0.08300
C 	C 	0.87540 0.63400 0.96140 -0.17600
H 	H 	0.89340 0.61800 0.95630 0.01900
H 	H 	0.85030 0.62800 0.95520 0.04900
H 	H 	0.88210 0.65410 0.95360 0.04900
C 	C 	0.30000 0.47980 0.32910 -0.36300
H 	H 	0.30790 0.45830 0.32570 0.07900
H 	H 	0.32160 0.49380 0.32820 0.09900
H 	H 	0.28960 0.48110 0.34670 0.08200
C 	C 	0.25980 0.52290 0.31520 -0.16900
H 	H 	0.24770 0.52310 0.33230 0.11200
H 	H 	0.28260 0.53570 0.31640 0.05400
H 	H 	0.24280 0.53160 0.30170 0.03000
C 	C 	0.28880 0.48830 0.28170 -0.03200
H 	H 	0.29490 0.46650 0.27770 0.15900
H 	H 	0.27200 0.49670 0.26790 0.00100
H 	H 	0.31180 0.50080 0.28260 -0.01300
C 	C 	0.04420 0.28990 0.42830 -0.34200
H 	H 	0.06570 0.27870 0.42130 0.09200
H 	H 	0.03910 0.28210 0.44600 0.10700
H 	H 	0.02230 0.28630 0.41670 0.15800
C 	C 	0.01990 0.34330 0.44030 -0.26000
H 	H 	0.02620 0.36560 0.44090 0.16700
H 	H 	0.99780 0.34020 0.42880 0.07800
H 	H 	0.01470 0.33600 0.45810 0.06100
C 	C 	0.08430 0.33000 0.45050 -0.11600
H 	H 	0.09030 0.35230 0.45170 -0.08700
H 	H 	0.07610 0.32250 0.46770 0.04900
H 	H 	0.10660 0.31830 0.44550 0.02600
C 	C 	0.07150 0.36010 0.20040 0.04500
C 	C 	0.07140 0.36230 0.17030 -0.66000
C 	C 	0.08300 0.33170 0.15800 0.37800
H 	H 	0.10780 0.32570 0.16490 -0.03200
H 	H 	0.06490 0.31540 0.16230 -0.06600
H 	H 	0.08380 0.33410 0.13880 -0.09600
C 	C 	0.03310 0.37400 0.16100 0.62900
H 	H 	0.02760 0.39380 0.16970 1.01700
H 	H 	0.03300 0.37720 0.14190 -0.08300
H 	H 	0.01410 0.35850 0.16530 -0.27900
C 	C 	0.10010 0.38580 0.15990 0.29700
H 	H 	0.09490 0.40660 0.16690 -0.04600
H 	H 	0.12530 0.37930 0.16560 -0.05800
H 	H 	0.09840 0.38630 0.14060 -0.05300
Zn	Zn	0.11411 0.90853 0.30203 1.20000
Zn	Zn	0.06608 0.85294 0.30369 1.19800
Zn	Zn	0.64252 0.85585 0.30492 1.19900
Zn	Zn	0.58986 0.90824 0.30788 1.19500
Zn	Zn	0.35613 0.97468 0.03419 1.19300
Zn	Zn	0.35575 0.00890 0.08430 1.19100
Zn	Zn	0.39609 0.12328 0.28849 1.21700
Zn	Zn	0.34691 0.08240 0.32737 1.18100
Zn	Zn	0.30781 0.12564 0.28468 1.21000
Zn	Zn	0.35266 0.15473 0.33414 1.20600
O 	O 	0.35070 0.12221 0.30789 -0.95900
C 	C 	0.98840 0.76552 0.30556 -0.64400
C 	C 	0.99000 0.74141 0.28685 0.34200
H 	H 	0.00690 0.74340 0.27290 -0.07300
C 	C 	0.96790 0.71493 0.28792 -0.25400
H 	H 	0.96930 0.69950 0.27450 0.12700
C 	C 	0.94360 0.71080 0.30837 0.08900
C 	C 	0.94080 0.73448 0.32695 -0.25900
H 	H 	0.92410 0.73220 0.34100 0.12200
C 	C 	0.96220 0.76133 0.32524 0.33900
H 	H 	0.95900 0.77750 0.33780 -0.08800
B 	B 	0.01480 0.79580 0.30470 1.53900
O 	O 	0.04603 0.78962 0.32412 -0.51700
N 	N 	0.07190 0.81302 0.32771 -0.16700
C 	C 	0.09530 0.80730 0.34610 0.09400
H 	H 	0.09280 0.78770 0.35470 0.02400
C 	C 	0.12540 0.82720 0.35570 -0.20100
C 	C 	0.13400 0.85630 0.34350 0.30100
C 	C 	0.16540 0.87320 0.35490 -0.20100
C 	C 	0.18460 0.86260 0.37750 0.14000
H 	H 	0.20430 0.87490 0.38490 -0.03500
C 	C 	0.17540 0.83460 0.38940 -0.28200
C 	C 	0.14590 0.81750 0.37810 0.13700
H 	H 	0.13940 0.79820 0.38610 -0.03600
C 	C 	0.17750 0.90210 0.34370 0.10300
H 	H 	0.20020 0.91060 0.35060 0.02100
N 	N 	0.16110 0.91760 0.32560 -0.16800
O 	O 	0.18070 0.94437 0.32061 -0.54500
B 	B 	0.16540 0.96620 0.30100 1.53100
O 	O 	0.99202 0.82215 0.31328 -0.54100
N 	N 	0.00950 0.85155 0.31296 -0.17200
C 	C 	0.98670 0.87312 0.31840 0.10000
H 	H 	0.96190 0.86680 0.32190 0.02000
C 	C 	0.99430 0.90669 0.31980 -0.20600
C 	C 	0.03050 0.91916 0.31620 0.29000
C 	C 	0.03420 0.95201 0.31770 -0.20500
C 	C 	0.00230 0.97100 0.32100 0.14800
H 	H 	0.00530 0.99300 0.32100 -0.04100
C 	C 	0.96680 0.95875 0.32430 -0.30800
C 	C 	0.96440 0.92636 0.32470 0.15700
H 	H 	0.94110 0.91710 0.32860 -0.04900
C 	C 	0.06890 0.96880 0.31410 0.09800
H 	H 	0.06860 0.99090 0.31610 0.01900
N 	N 	0.09960 0.95597 0.30840 -0.17000
O 	O 	0.12846 0.97845 0.30608 -0.54900
O 	O 	0.02751 0.79850 0.27787 -0.54000
N 	N 	0.05180 0.82243 0.27252 -0.15900
C 	C 	0.06160 0.82137 0.24876 0.08200
H 	H 	0.05070 0.80540 0.23800 0.04200
C 	C 	0.08810 0.84232 0.23636 -0.14600
C 	C 	0.10360 0.86876 0.24993 0.24900
C 	C 	0.12940 0.88767 0.23570 -0.15500
C 	C 	0.13900 0.87900 0.21024 0.06400
H 	H 	0.15680 0.89140 0.20150 -0.00700
C 	C 	0.12410 0.85340 0.19706 -0.15700
C 	C 	0.09820 0.83540 0.21039 0.06500
H 	H 	0.08700 0.81790 0.20170 0.01100
C 	C 	0.14690 0.91530 0.24693 0.07500
H 	H 	0.16210 0.92720 0.23560 0.02300
N 	N 	0.14400 0.92540 0.27024 -0.16800
O 	O 	0.16580 0.95220 0.27429 -0.52900
C 	C 	0.19490 0.99403 0.30001 -0.56800
C 	C 	0.24800 0.04311 0.29822 -0.02800
C 	C 	0.91980 0.68190 0.30998 0.32200
O 	O 	0.92269 0.66238 0.29185 -0.49100
O 	O 	0.89757 0.68103 0.32880 -0.47800
O 	O 	0.11660 0.86583 0.32314 -0.55600
C 	C 	0.19630 0.82260 0.41410 0.61200
O 	O 	0.05866 0.90084 0.31153 -0.55100
C 	C 	0.93200 0.97950 0.32660 0.66900
C 	C 	0.90580 0.97640 0.30130 -0.82400
H 	H 	0.91870 0.98460 0.28600 0.25700
H 	H 	0.89940 0.95440 0.29840 0.26000
H 	H 	0.88290 0.98850 0.30380 0.24100
C 	C 	0.90600 0.96590 0.34580 -0.97100
H 	H 	0.90310 0.94350 0.34230 0.29300
H 	H 	0.91610 0.96900 0.36370 0.28600
H 	H 	0.88170 0.97620 0.34390 0.28400
C 	C 	0.94190 0.01360 0.32710 -0.96500
H 	H 	0.95930 0.01810 0.31300 0.29300
H 	H 	0.91920 0.02610 0.32440 0.28500
H 	H 	0.95360 0.01890 0.34420 0.28700
O 	O 	0.09467 0.87603 0.27388 -0.53800
C 	C 	0.13580 0.84490 0.16918 0.35700
C 	C 	0.27630 0.06839 0.29630 0.33500
O 	O 	0.30915 0.06142 0.30389 -0.51900
O 	O 	0.26771 0.09485 0.28711 -0.48400
C 	C 	0.22410 0.99660 0.31910 -0.10100
H 	H 	0.22590 0.98180 0.33290 0.05400
C 	C 	0.25030 0.02040 0.31800 -0.27100
H 	H 	0.27000 0.02130 0.33080 0.09300
C 	C 	0.21860 0.04180 0.27990 -0.02800
H 	H 	0.21600 0.05740 0.26670 0.02500
C 	C 	0.19320 0.01750 0.28110 0.13300
H 	H 	0.17340 0.01690 0.26830 -0.03700
C 	C 	0.10570 0.84910 0.14840 0.00800
H 	H 	0.08230 0.84000 0.15460 -0.06200
H 	H 	0.10210 0.87140 0.14490 0.04100
H 	H 	0.11300 0.83850 0.13220 -0.01300
C 	C 	0.14330 0.80870 0.16850 -0.47900
H 	H 	0.16290 0.80340 0.18150 0.15000
H 	H 	0.12030 0.79740 0.17250 0.24700
H 	H 	0.15130 0.80270 0.15090 0.15900
C 	C 	0.17320 0.85820 0.16150 -0.20800
H 	H 	0.19150 0.85470 0.17590 0.03900
H 	H 	0.18150 0.84780 0.14560 0.04500
H 	H 	0.17060 0.88070 0.15820 0.06500
C 	C 	0.17110 0.82500 0.43800 -0.85600
H 	H 	0.14770 0.81380 0.43430 0.26000
H 	H 	0.18390 0.81560 0.45340 0.24900
H 	H 	0.16580 0.84700 0.44170 0.25900
C 	C 	0.23280 0.83980 0.41970 -0.88900
H 	H 	0.24490 0.83130 0.43570 0.26100
H 	H 	0.24930 0.83720 0.40480 0.27000
H 	H 	0.22770 0.86210 0.42230 0.26900
C 	C 	0.20400 0.78740 0.41070 -0.86100
H 	H 	0.18040 0.77640 0.40710 0.26500
H 	H 	0.22070 0.78430 0.39600 0.26400
H 	H 	0.21580 0.77920 0.42690 0.25300
C 	C 	0.35960 0.92170 0.95388 -0.59700
C 	C 	0.36270 0.89370 0.90355 -0.01500
B 	B 	0.35640 0.93890 0.98147 1.57300
O 	O 	0.35820 0.97199 0.97510 -0.55600
N 	N 	0.36050 0.99340 0.99588 -0.16200
C 	C 	0.36200 0.02130 0.98808 0.08200
H 	H 	0.36180 0.02460 0.96960 0.01800
C 	C 	0.36400 0.04887 0.00468 -0.17300
C 	C 	0.36300 0.04770 0.03275 0.28000
C 	C 	0.36600 0.07670 0.04650 -0.17400
C 	C 	0.37080 0.10420 0.03208 0.07300
H 	H 	0.37400 0.12320 0.04160 -0.00300
C 	C 	0.37110 0.10560 0.00522 -0.15900
C 	C 	0.36820 0.07780 0.99170 0.06900
H 	H 	0.36910 0.07800 0.97300 -0.01200
C 	C 	0.36410 0.07940 0.07461 0.07900
H 	H 	0.36610 0.10000 0.08160 0.03000
N 	N 	0.36020 0.05772 0.09120 -0.16400
O 	O 	0.35930 0.06835 0.11663 -0.52500
B 	B 	0.35430 0.04460 0.13696 1.47000
O 	O 	0.38880 0.92846 0.99683 -0.55400
N 	N 	0.39480 0.94160 0.02149 -0.16500
C 	C 	0.42730 0.93550 0.03066 0.09700
H 	H 	0.44290 0.92280 0.02020 0.01800
C 	C 	0.44230 0.94620 0.05553 -0.20600
C 	C 	0.42200 0.96430 0.07426 0.29100
C 	C 	0.44190 0.97320 0.09784 -0.19800
C 	C 	0.47970 0.96550 0.10128 0.15600
H 	H 	0.49250 0.97220 0.11690 -0.02500
C 	C 	0.49950 0.94840 0.08298 -0.31300
C 	C 	0.48010 0.93900 0.06074 0.15700
H 	H 	0.49300 0.92690 0.04820 -0.04700
C 	C 	0.42520 0.99200 0.11828 0.10000
H 	H 	0.43900 0.99440 0.13440 0.03500
N 	N 	0.39370 0.00542 0.11627 -0.16800
O 	O 	0.38530 0.02119 0.13872 -0.49700
C 	C 	0.35420 0.06220 0.16486 -0.62800
C 	C 	0.38630 0.06410 0.18114 0.32600
H 	H 	0.40850 0.05410 0.17580 -0.06600
C 	C 	0.38640 0.08030 0.20488 -0.24400
H 	H 	0.40880 0.08210 0.21520 0.12500
C 	C 	0.35380 0.09388 0.21356 0.08700
C 	C 	0.32140 0.09160 0.19829 -0.25500
H 	H 	0.29900 0.10090 0.20400 0.12100
C 	C 	0.32190 0.07570 0.17444 0.32900
H 	H 	0.29930 0.07390 0.16430 -0.08700
C 	C 	0.36350 0.88080 0.87627 0.29900
O 	O 	0.35142 0.85353 0.87224 -0.47000
O 	O 	0.38000 0.89560 0.85928 -0.49300
O 	O 	0.36210 0.02162 0.04478 -0.56800
C 	C 	0.37600 0.13700 0.99110 0.32200
O 	O 	0.38780 0.97147 0.07011 -0.55200
C 	C 	0.54070 0.93920 0.08670 0.69200
C 	C 	0.54570 0.90340 0.08430 -0.92800
H 	H 	0.53570 0.89630 0.06720 0.28100
H 	H 	0.57220 0.89810 0.08600 0.28200
H 	H 	0.53210 0.89300 0.09840 0.30000
C 	C 	0.56330 0.95380 0.06450 -0.95100
H 	H 	0.55230 0.94770 0.04740 0.29500
H 	H 	0.56290 0.97660 0.06610 0.29700
H 	H 	0.58920 0.94640 0.06580 0.28900
C 	C 	0.55660 0.94790 0.11330 -1.00000
H 	H 	0.54160 0.93820 0.12700 0.33000
H 	H 	0.58240 0.94040 0.11500 0.30500
H 	H 	0.55610 0.97070 0.11530 0.30700
C 	C 	0.35360 0.10984 0.23994 0.30900
O 	O 	0.38474 0.11289 0.25189 -0.48000
O 	O 	0.32225 0.11917 0.24786 -0.47300
O 	O 	0.32520 0.92620 0.99680 -0.35000
C 	C 	0.34800 0.87770 0.92440 -0.05300
H 	H 	0.33880 0.85710 0.92190 0.04900
C 	C 	0.34650 0.89160 0.94900 0.12800
H 	H 	0.33620 0.88010 0.96310 -0.02700
C 	C 	0.37590 0.93700 0.93260 -0.05400
H 	H 	0.38640 0.95710 0.93540 0.03300
C 	C 	0.37730 0.92390 0.90770 -0.25800
H 	H 	0.38790 0.93520 0.89370 0.09500
N 	N 	0.31790 0.94170 0.01930 -0.06500
C 	C 	0.28870 0.93050 0.02920 0.03200
H 	H 	0.27580 0.91440 0.01970 0.03300
C 	C 	0.27370 0.94050 0.05400 -0.02700
C 	C 	0.29080 0.96350 0.07100 0.04600
C 	C 	0.27370 0.96920 0.09570 0.09700
C 	C 	0.24100 0.95320 0.10230 -0.11700
H 	H 	0.23050 0.95690 0.11900 0.05600
C 	C 	0.22400 0.93230 0.08520 0.04000
C 	C 	0.24060 0.92620 0.06160 -0.06700
H 	H 	0.22900 0.91160 0.04990 0.04100
C 	C 	0.28800 0.99100 0.11520 -0.20800
H 	H 	0.27430 0.99300 0.13090 0.10100
N 	N 	0.31700 0.00770 0.11340 -0.03300
O 	O 	0.32190 0.02440 0.13610 -0.15900
O 	O 	0.31930 0.97830 0.06410 -0.17800
C 	C 	0.18720 0.91660 0.09230 0.06500
C 	C 	0.19640 0.88170 0.09230 -0.45500
H 	H 	0.20340 0.87520 0.07460 0.14800
H 	H 	0.21720 0.87760 0.10480 0.15300
H 	H 	0.17450 0.86980 0.09760 0.13400
C 	C 	0.15650 0.92440 0.07210 -0.09300
H 	H 	0.16410 0.91750 0.05460 -0.04800
H 	H 	0.13350 0.91350 0.07670 0.03100
H 	H 	0.15220 0.94700 0.07190 0.09400
C 	C 	0.17620 0.92690 0.11960 -0.49300
H 	H 	0.19630 0.92170 0.13230 0.15500
H 	H 	0.17200 0.94950 0.11960 0.19700
H 	H 	0.15330 0.91610 0.12440 0.14000
C 	C 	0.72430 0.77126 0.30169 -0.69900
C 	C 	0.71910 0.74677 0.28380 0.38000
H 	H 	0.69990 0.74870 0.27070 -0.08800
C 	C 	0.74050 0.72006 0.28420 -0.28400
H 	H 	0.73630 0.70420 0.27130 0.13300
C 	C 	0.76840 0.71636 0.30358 0.10400
C 	C 	0.77520 0.74060 0.32128 -0.29300
H 	H 	0.79470 0.73890 0.33430 0.13100
C 	C 	0.75350 0.76718 0.31982 0.39300
H 	H 	0.75890 0.78360 0.33190 -0.10800
B 	B 	0.69700 0.80100 0.30210 1.62700
O 	O 	0.72080 0.82932 0.30344 -0.54600
N 	N 	0.70160 0.85825 0.30540 -0.16600
C 	C 	0.72390 0.88130 0.30510 0.08700
H 	H 	0.74970 0.87680 0.30320 0.02400
C 	C 	0.71340 0.91376 0.30721 -0.16400
C 	C 	0.67610 0.92374 0.31036 0.26600
C 	C 	0.67022 0.95658 0.31332 -0.15100
C 	C 	0.70075 0.97757 0.31298 0.06600
H 	H 	0.69620 0.99930 0.31500 0.00900
C 	C 	0.73692 0.96731 0.30984 -0.15800
C 	C 	0.74260 0.93531 0.30730 0.06900
H 	H 	0.76730 0.92780 0.30560 -0.00100
C 	C 	0.63315 0.97029 0.31494 0.07800
H 	H 	0.63220 0.99220 0.31780 0.04500
N 	N 	0.60203 0.95645 0.31302 -0.15800
O 	O 	0.57215 0.97662 0.31448 -0.51200
B 	B 	0.53430 0.96300 0.31100 1.51800
O 	O 	0.67640 0.79622 0.32567 -0.57400
N 	N 	0.64860 0.81800 0.33043 -0.16700
C 	C 	0.63250 0.81210 0.35180 0.08900
H 	H 	0.64060 0.79390 0.36100 0.03000
C 	C 	0.60330 0.83020 0.36346 -0.17700
C 	C 	0.58810 0.85760 0.35159 0.28800
C 	C 	0.56130 0.87436 0.36672 -0.17200
C 	C 	0.55070 0.86350 0.39135 0.08500
H 	H 	0.53260 0.87500 0.40070 -0.00600
C 	C 	0.56550 0.83660 0.40275 -0.16100
C 	C 	0.59130 0.82070 0.38810 0.08100
H 	H 	0.60160 0.80200 0.39530 -0.00300
C 	C 	0.54410 0.90291 0.35754 0.07900
H 	H 	0.52710 0.91240 0.36910 0.02100
N 	N 	0.54880 0.91681 0.33604 -0.17400
O 	O 	0.52547 0.94172 0.33268 -0.56000
O 	O 	0.67530 0.80011 0.27758 -0.56600
N 	N 	0.64970 0.82440 0.27403 -0.16100
C 	C 	0.63490 0.82360 0.25120 0.06000
H 	H 	0.64350 0.80750 0.24000 0.04600
C 	C 	0.60680 0.84410 0.23993 -0.10400
C 	C 	0.59200 0.86960 0.25487 0.21600
C 	C 	0.56540 0.88910 0.24157 -0.09200
C 	C 	0.55460 0.88280 0.21541 -0.06700
C 	C 	0.59440 0.83940 0.21403 -0.02900
C 	C 	0.54790 0.91610 0.25402 0.04100
H 	H 	0.53260 0.92910 0.24310 0.06000
N 	N 	0.55140 0.92343 0.27821 -0.16100
O 	O 	0.52820 0.94841 0.28476 -0.52500
C 	C 	0.50534 0.99142 0.31092 -0.65200
C 	C 	0.51150 0.01961 0.29800 0.35700
H 	H 	0.53460 0.02270 0.28960 -0.08300
C 	C 	0.48511 0.04322 0.29713 -0.25500
H 	H 	0.49020 0.06220 0.28820 0.12700
C 	C 	0.45112 0.03924 0.30924 0.08000
C 	C 	0.44450 0.01200 0.32271 -0.25100
H 	H 	0.42170 0.00930 0.33160 0.11000
C 	C 	0.47115 0.98849 0.32335 0.33600
H 	H 	0.46600 0.96970 0.33260 -0.09600
C 	C 	0.78980 0.68650 0.30650 0.31700
O 	O 	0.78412 0.66651 0.28875 -0.49100
O 	O 	0.81244 0.68449 0.32571 -0.49500
O 	O 	0.64884 0.90421 0.31110 -0.53900
C 	C 	0.76980 0.98983 0.30810 0.34800
O 	O 	0.59940 0.86785 0.32996 -0.56400
C 	C 	0.55270 0.82490 0.42960 0.35300
O 	O 	0.60200 0.87411 0.27922 -0.53700
C 	C 	0.42182 0.06436 0.30793 0.35000
O 	O 	0.43099 0.09035 0.29877 -0.48100
O 	O 	0.39018 0.05750 0.31497 -0.49500
C 	C 	0.56570 0.85630 0.20190 0.13500
C 	C 	0.77820 0.01000 0.33160 -0.17100
H 	H 	0.75500 0.01880 0.33800 -0.00700
H 	H 	0.79030 0.99740 0.34550 0.07600
H 	H 	0.79500 0.02700 0.32660 0.04100
C 	C 	0.75860 0.01270 0.28460 -0.53800
H 	H 	0.75280 0.00040 0.26880 0.18100
H 	H 	0.73670 0.02490 0.28930 0.17700
H 	H 	0.77940 0.02680 0.28130 0.17600
C 	C 	0.80560 0.97620 0.29800 -0.28800
H 	H 	0.79990 0.96300 0.28270 -0.06100
H 	H 	0.82230 0.99310 0.29300 0.09900
H 	H 	0.81760 0.96350 0.31190 0.10800
C 	C 	0.57400 0.79660 0.44050 -0.21000
H 	H 	0.57370 0.77990 0.42740 0.05600
H 	H 	0.59990 0.80260 0.44470 0.07700
H 	H 	0.56210 0.78930 0.45650 0.05500
C 	C 	0.51290 0.81260 0.42280 -0.21700
H 	H 	0.49760 0.82970 0.41560 0.05800
H 	H 	0.51430 0.79580 0.40980 -0.00300
H 	H 	0.50160 0.80450 0.43880 0.07300
C 	C 	0.55170 0.85240 0.44870 -0.37100
H 	H 	0.53770 0.86970 0.44060 0.00100
H 	H 	0.53940 0.84580 0.46490 0.12000
H 	H 	0.57720 0.85920 0.45310 0.23400
C 	C 	0.54390 0.84370 0.17770 -0.18100
C 	C 	0.55920 0.81300 0.16780 0.05800
H 	H 	0.55690 0.79700 0.18150 0.01800
H 	H 	0.54500 0.80650 0.15190 0.01200
H 	H 	0.58550 0.81560 0.16360 -0.12500
C 	C 	0.54730 0.86880 0.15660 1.21600
H 	H 	0.53740 0.88860 0.16310 -1.57300
H 	H 	0.57370 0.87150 0.15240 -0.18100
H 	H 	0.53320 0.86240 0.14070 -0.38200
C 	C 	0.50260 0.83770 0.18240 -0.01500
H 	H 	0.49100 0.85690 0.18890 0.00700
H 	H 	0.49010 0.83130 0.16590 0.04700
H 	H 	0.50010 0.82110 0.19550 0.02000
C 	C 	0.40780 0.13630 0.97150 -0.19600
H 	H 	0.40440 0.11830 0.95980 0.07100
H 	H 	0.40750 0.15560 0.96120 0.05700
H 	H 	0.43170 0.13440 0.98120 0.04100
C 	C 	0.38160 0.16520 0.00940 -0.18400
H 	H 	0.36140 0.16590 0.02200 0.05800
H 	H 	0.40560 0.16330 0.01890 0.06000
H 	H 	0.38140 0.18440 0.99890 0.05100
C 	C 	0.33870 0.14400 0.97610 -0.33000
H 	H 	0.33300 0.12690 0.96380 0.09300
H 	H 	0.31860 0.14590 0.98870 0.05700
H 	H 	0.34090 0.16360 0.96630 0.10300
C 	C 	0.23210 0.98950 0.30820 0.29800
H 	H 	0.23970 0.96960 0.31460 -0.07100
C 	C 	0.25830 0.01330 0.30710 0.14500
H 	H 	0.28340 0.00940 0.31250 -0.01700
C 	C 	0.21220 0.04720 0.28800 -0.09700
H 	H 	0.20510 0.06660 0.28040 0.05900
C 	C 	0.18660 0.02300 0.28890 0.06700
H 	H 	0.16220 0.02630 0.28150 -0.00400
C 	C 	0.11190 0.82040 0.15620 -0.19400
H 	H 	0.08560 0.82650 0.15690 0.12900
H 	H 	0.11890 0.81810 0.13780 0.06900
H 	H 	0.11560 0.80040 0.16530 -0.05800
C 	C 	0.17730 0.83770 0.16910 -0.14700
H 	H 	0.19110 0.85470 0.17790 0.07200
H 	H 	0.18210 0.81800 0.17850 0.04500
H 	H 	0.18540 0.83580 0.15100 0.06000
C 	C 	0.12770 0.87440 0.15180 -0.59700
H 	H 	0.14220 0.89210 0.15880 0.17100
H 	H 	0.13480 0.87020 0.13370 0.17600
H 	H 	0.10110 0.87940 0.15210 0.15200
O 	O 	0.31750 0.93680 0.99080 -0.20400
C 	C 	0.38960 0.92630 0.93750 0.28100
H 	H 	0.40970 0.93910 0.94360 -0.07400
C 	C 	0.39140 0.91300 0.91280 0.10500
H 	H 	0.41220 0.91700 0.90210 0.00200
C 	C 	0.33380 0.88640 0.92030 -0.09300
H 	H 	0.31520 0.87170 0.91490 0.04800
C 	C 	0.33230 0.90060 0.94470 0.09200
H 	H 	0.31200 0.89590 0.95570 -0.01100
N 	N 	0.30970 0.95140 0.01520 -0.10100
C 	C 	0.27580 0.94700 0.02080 -0.01600
H 	H 	0.26060 0.93560 0.00850 0.04300
C 	C 	0.25830 0.95810 0.04460 -0.04500
C 	C 	0.27800 0.97640 0.06430 0.11600
C 	C 	0.25680 0.98830 0.08570 -0.18100
C 	C 	0.21860 0.98130 0.08700 0.06500
H 	H 	0.20480 0.98990 0.10100 -0.01200
C 	C 	0.20030 0.96200 0.06850 -0.07600
C 	C 	0.22050 0.95140 0.04750 0.00700
H 	H 	0.20800 0.93910 0.03440 0.01600
C 	C 	0.27360 0.00610 0.10700 0.21400
H 	H 	0.25720 0.01370 0.12000 -0.04000
N 	N 	0.30790 0.01280 0.11020 -0.10800
O 	O 	0.31640 0.03100 0.13210 -0.34000
O 	O 	0.31340 0.98110 0.06340 -0.27500
C 	C 	0.15930 0.95350 0.07270 0.11800
C 	C 	0.14150 0.93690 0.04960 -0.52000
H 	H 	0.14470 0.94940 0.03360 0.16400
H 	H 	0.15330 0.91640 0.04740 0.22200
H 	H 	0.11480 0.93410 0.05260 0.15500
C 	C 	0.13720 0.98400 0.07600 -0.46200
H 	H 	0.14780 0.99580 0.09100 0.14100
H 	H 	0.13880 0.99670 0.06000 0.14800
H 	H 	0.11100 0.97910 0.07930 0.13500
C 	C 	0.15610 0.93620 0.09890 -0.14900
H 	H 	0.16830 0.94850 0.11290 -0.01900
H 	H 	0.12960 0.93340 0.10280 0.03400
H 	H 	0.16820 0.91570 0.09770 0.14300
C 	C 	0.41560 0.14970 0.99910 -0.34800
H 	H 	0.41740 0.15210 0.01830 0.09300
H 	H 	0.43460 0.13490 0.99340 0.10400
H 	H 	0.41950 0.17000 0.99070 0.11300
C 	C 	0.34820 0.16180 0.99900 -0.19300
H 	H 	0.34860 0.16380 0.01830 0.04100
H 	H 	0.35490 0.18190 0.99120 0.05500
H 	H 	0.32310 0.15570 0.99280 0.08300
C 	C 	0.37540 0.13400 0.96140 -0.17600
H 	H 	0.39340 0.11800 0.95630 0.01900
H 	H 	0.35030 0.12800 0.95520 0.04900
H 	H 	0.38210 0.15410 0.95360 0.04900
C 	C 	0.80000 0.97980 0.32910 -0.36300
H 	H 	0.80790 0.95830 0.32570 0.07900
H 	H 	0.82160 0.99380 0.32820 0.09900
H 	H 	0.78960 0.98110 0.34670 0.08200
C 	C 	0.75980 0.02290 0.31520 -0.16900
H 	H 	0.74770 0.02310 0.33230 0.11200
H 	H 	0.78260 0.03570 0.31640 0.05400
H 	H 	0.74280 0.03160 0.30170 0.03000
C 	C 	0.78880 0.98830 0.28170 -0.03200
H 	H 	0.79490 0.96650 0.27770 0.15900
H 	H 	0.77200 0.99670 0.26790 0.00100
H 	H 	0.81180 0.00080 0.28260 -0.01300
C 	C 	0.54420 0.78990 0.42830 -0.34200
H 	H 	0.56570 0.77870 0.42130 0.09200
H 	H 	0.53910 0.78210 0.44600 0.10700
H 	H 	0.52230 0.78630 0.41670 0.15800
C 	C 	0.51990 0.84330 0.44030 -0.26000
H 	H 	0.52620 0.86560 0.44090 0.16700
H 	H 	0.49780 0.84020 0.42880 0.07800
H 	H 	0.51470 0.83600 0.45810 0.06100
C 	C 	0.58430 0.83000 0.45050 -0.11600
H 	H 	0.59030 0.85230 0.45170 -0.08700
H 	H 	0.57610 0.82250 0.46770 0.04900
H 	H 	0.60660 0.81830 0.44550 0.02600
C 	C 	0.57150 0.86010 0.20040 0.04500
C 	C 	0.57140 0.86230 0.17030 -0.66000
C 	C 	0.58300 0.83170 0.15800 0.37800
H 	H 	0.60780 0.82570 0.16490 -0.03200
H 	H 	0.56490 0.81540 0.16230 -0.06600
H 	H 	0.58380 0.83410 0.13880 -0.09600
C 	C 	0.53310 0.87400 0.16100 0.62900
H 	H 	0.52760 0.89380 0.16970 1.01700
H 	H 	0.53300 0.87720 0.14190 -0.08300
H 	H 	0.51410 0.85850 0.16530 -0.27900
C 	C 	0.60010 0.88580 0.15990 0.29700
H 	H 	0.59490 0.90660 0.16690 -0.04600
H 	H 	0.62530 0.87930 0.16560 -0.05800
H 	H 	0.59840 0.88630 0.14060 -0.05300
Zn	Zn	0.61411 0.59147 0.80203 1.20000
Zn	Zn	0.56608 0.64706 0.80369 1.19800
Zn	Zn	0.14252 0.64415 0.80492 1.19900
Zn	Zn	0.08986 0.59176 0.80788 1.19500
Zn	Zn	0.85613 0.52532 0.53419 1.19300
Zn	Zn	0.85575 0.49110 0.58430 1.19100
Zn	Zn	0.89609 0.37672 0.78849 1.21700
Zn	Zn	0.84691 0.41760 0.82737 1.18100
Zn	Zn	0.80781 0.37436 0.78468 1.21000
Zn	Zn	0.85266 0.34527 0.83414 1.20600
O 	O 	0.85070 0.37779 0.80789 -0.95900
C 	C 	0.48840 0.73448 0.80556 -0.64400
C 	C 	0.49000 0.75859 0.78685 0.34200
H 	H 	0.50690 0.75660 0.77290 -0.07300
C 	C 	0.46790 0.78507 0.78792 -0.25400
H 	H 	0.46930 0.80050 0.77450 0.12700
C 	C 	0.44360 0.78920 0.80837 0.08900
C 	C 	0.44080 0.76552 0.82695 -0.25900
H 	H 	0.42410 0.76780 0.84100 0.12200
C 	C 	0.46220 0.73867 0.82524 0.33900
H 	H 	0.45900 0.72250 0.83780 -0.08800
B 	B 	0.51480 0.70420 0.80470 1.53900
O 	O 	0.54603 0.71038 0.82412 -0.51700
N 	N 	0.57190 0.68698 0.82771 -0.16700
C 	C 	0.59530 0.69270 0.84610 0.09400
H 	H 	0.59280 0.71230 0.85470 0.02400
C 	C 	0.62540 0.67280 0.85570 -0.20100
C 	C 	0.63400 0.64370 0.84350 0.30100
C 	C 	0.66540 0.62680 0.85490 -0.20100
C 	C 	0.68460 0.63740 0.87750 0.14000
H 	H 	0.70430 0.62510 0.88490 -0.03500
C 	C 	0.67540 0.66540 0.88940 -0.28200
C 	C 	0.64590 0.68250 0.87810 0.13700
H 	H 	0.63940 0.70180 0.88610 -0.03600
C 	C 	0.67750 0.59790 0.84370 0.10300
H 	H 	0.70020 0.58940 0.85060 0.02100
N 	N 	0.66110 0.58240 0.82560 -0.16800
O 	O 	0.68070 0.55563 0.82061 -0.54500
B 	B 	0.66540 0.53380 0.80100 1.53100
O 	O 	0.49202 0.67785 0.81328 -0.54100
N 	N 	0.50950 0.64845 0.81296 -0.17200
C 	C 	0.48670 0.62688 0.81840 0.10000
H 	H 	0.46190 0.63320 0.82190 0.02000
C 	C 	0.49430 0.59331 0.81980 -0.20600
C 	C 	0.53050 0.58084 0.81620 0.29000
C 	C 	0.53420 0.54799 0.81770 -0.20500
C 	C 	0.50230 0.52900 0.82100 0.14800
H 	H 	0.50530 0.50700 0.82100 -0.04100
C 	C 	0.46680 0.54125 0.82430 -0.30800
C 	C 	0.46440 0.57364 0.82470 0.15700
H 	H 	0.44110 0.58290 0.82860 -0.04900
C 	C 	0.56890 0.53120 0.81410 0.09800
H 	H 	0.56860 0.50910 0.81610 0.01900
N 	N 	0.59960 0.54403 0.80840 -0.17000
O 	O 	0.62846 0.52155 0.80608 -0.54900
O 	O 	0.52751 0.70150 0.77787 -0.54000
N 	N 	0.55180 0.67757 0.77252 -0.15900
C 	C 	0.56160 0.67863 0.74876 0.08200
H 	H 	0.55070 0.69460 0.73800 0.04200
C 	C 	0.58810 0.65768 0.73636 -0.14600
C 	C 	0.60360 0.63124 0.74993 0.24900
C 	C 	0.62940 0.61233 0.73570 -0.15500
C 	C 	0.63900 0.62100 0.71024 0.06400
H 	H 	0.65680 0.60860 0.70150 -0.00700
C 	C 	0.62410 0.64660 0.69706 -0.15700
C 	C 	0.59820 0.66460 0.71039 0.06500
H 	H 	0.58700 0.68210 0.70170 0.01100
C 	C 	0.64690 0.58470 0.74693 0.07500
H 	H 	0.66210 0.57280 0.73560 0.02300
N 	N 	0.64400 0.57460 0.77024 -0.16800
O 	O 	0.66580 0.54780 0.77429 -0.52900
C 	C 	0.69490 0.50597 0.80001 -0.56800
C 	C 	0.74800 0.45689 0.79822 -0.02800
C 	C 	0.41980 0.81810 0.80998 0.32200
O 	O 	0.42269 0.83762 0.79185 -0.49100
O 	O 	0.39757 0.81897 0.82880 -0.47800
O 	O 	0.61660 0.63417 0.82314 -0.55600
C 	C 	0.69630 0.67740 0.91410 0.61200
O 	O 	0.55866 0.59916 0.81153 -0.55100
C 	C 	0.43200 0.52050 0.82660 0.66900
C 	C 	0.40580 0.52360 0.80130 -0.82400
H 	H 	0.41870 0.51540 0.78600 0.25700
H 	H 	0.39940 0.54560 0.79840 0.26000
H 	H 	0.38290 0.51150 0.80380 0.24100
C 	C 	0.40600 0.53410 0.84580 -0.97100
H 	H 	0.40310 0.55650 0.84230 0.29300
H 	H 	0.41610 0.53100 0.86370 0.28600
H 	H 	0.38170 0.52380 0.84390 0.28400
C 	C 	0.44190 0.48640 0.82710 -0.96500
H 	H 	0.45930 0.48190 0.81300 0.29300
H 	H 	0.41920 0.47390 0.82440 0.28500
H 	H 	0.45360 0.48110 0.84420 0.28700
O 	O 	0.59467 0.62397 0.77388 -0.53800
C 	C 	0.63580 0.65510 0.66918 0.35700
C 	C 	0.77630 0.43161 0.79630 0.33500
O 	O 	0.80915 0.43858 0.80389 -0.51900
O 	O 	0.76771 0.40515 0.78711 -0.48400
C 	C 	0.72410 0.50340 0.81910 -0.10100
H 	H 	0.72590 0.51820 0.83290 0.05400
C 	C 	0.75030 0.47960 0.81800 -0.27100
H 	H 	0.77000 0.47870 0.83080 0.09300
C 	C 	0.71860 0.45820 0.77990 -0.02800
H 	H 	0.71600 0.44260 0.76670 0.02500
C 	C 	0.69320 0.48250 0.78110 0.13300
H 	H 	0.67340 0.48310 0.76830 -0.03700
C 	C 	0.60570 0.65090 0.64840 0.00800
H 	H 	0.58230 0.66000 0.65460 -0.06200
H 	H 	0.60210 0.62860 0.64490 0.04100
H 	H 	0.61300 0.66150 0.63220 -0.01300
C 	C 	0.64330 0.69130 0.66850 -0.47900
H 	H 	0.66290 0.69660 0.68150 0.15000
H 	H 	0.62030 0.70260 0.67250 0.24700
H 	H 	0.65130 0.69730 0.65090 0.15900
C 	C 	0.67320 0.64180 0.66150 -0.20800
H 	H 	0.69150 0.64530 0.67590 0.03900
H 	H 	0.68150 0.65220 0.64560 0.04500
H 	H 	0.67060 0.61930 0.65820 0.06500
C 	C 	0.67110 0.67500 0.93800 -0.85600
H 	H 	0.64770 0.68620 0.93430 0.26000
H 	H 	0.68390 0.68440 0.95340 0.24900
H 	H 	0.66580 0.65300 0.94170 0.25900
C 	C 	0.73280 0.66020 0.91970 -0.88900
H 	H 	0.74490 0.66870 0.93570 0.26100
H 	H 	0.74930 0.66280 0.90480 0.27000
H 	H 	0.72770 0.63790 0.92230 0.26900
C 	C 	0.70400 0.71260 0.91070 -0.86100
H 	H 	0.68040 0.72360 0.90710 0.26500
H 	H 	0.72070 0.71570 0.89600 0.26400
H 	H 	0.71580 0.72080 0.92690 0.25300
C 	C 	0.85960 0.57830 0.45388 -0.59700
C 	C 	0.86270 0.60630 0.40355 -0.01500
B 	B 	0.85640 0.56110 0.48147 1.57300
O 	O 	0.85820 0.52801 0.47510 -0.55600
N 	N 	0.86050 0.50660 0.49588 -0.16200
C 	C 	0.86200 0.47870 0.48808 0.08200
H 	H 	0.86180 0.47540 0.46960 0.01800
C 	C 	0.86400 0.45113 0.50468 -0.17300
C 	C 	0.86300 0.45230 0.53275 0.28000
C 	C 	0.86600 0.42330 0.54650 -0.17400
C 	C 	0.87080 0.39580 0.53208 0.07300
H 	H 	0.87400 0.37680 0.54160 -0.00300
C 	C 	0.87110 0.39440 0.50522 -0.15900
C 	C 	0.86820 0.42220 0.49170 0.06900
H 	H 	0.86910 0.42200 0.47300 -0.01200
C 	C 	0.86410 0.42060 0.57461 0.07900
H 	H 	0.86610 0.40000 0.58160 0.03000
N 	N 	0.86020 0.44228 0.59120 -0.16400
O 	O 	0.85930 0.43165 0.61663 -0.52500
B 	B 	0.85430 0.45540 0.63696 1.47000
O 	O 	0.88880 0.57154 0.49683 -0.55400
N 	N 	0.89480 0.55840 0.52149 -0.16500
C 	C 	0.92730 0.56450 0.53066 0.09700
H 	H 	0.94290 0.57720 0.52020 0.01800
C 	C 	0.94230 0.55380 0.55553 -0.20600
C 	C 	0.92200 0.53570 0.57426 0.29100
C 	C 	0.94190 0.52680 0.59784 -0.19800
C 	C 	0.97970 0.53450 0.60128 0.15600
H 	H 	0.99250 0.52780 0.61690 -0.02500
C 	C 	0.99950 0.55160 0.58298 -0.31300
C 	C 	0.98010 0.56100 0.56074 0.15700
H 	H 	0.99300 0.57310 0.54820 -0.04700
C 	C 	0.92520 0.50800 0.61828 0.10000
H 	H 	0.93900 0.50560 0.63440 0.03500
N 	N 	0.89370 0.49458 0.61627 -0.16800
O 	O 	0.88530 0.47881 0.63872 -0.49700
C 	C 	0.85420 0.43780 0.66486 -0.62800
C 	C 	0.88630 0.43590 0.68114 0.32600
H 	H 	0.90850 0.44590 0.67580 -0.06600
C 	C 	0.88640 0.41970 0.70488 -0.24400
H 	H 	0.90880 0.41790 0.71520 0.12500
C 	C 	0.85380 0.40612 0.71356 0.08700
C 	C 	0.82140 0.40840 0.69829 -0.25500
H 	H 	0.79900 0.39910 0.70400 0.12100
C 	C 	0.82190 0.42430 0.67444 0.32900
H 	H 	0.79930 0.42610 0.66430 -0.08700
C 	C 	0.86350 0.61920 0.37627 0.29900
O 	O 	0.85142 0.64647 0.37224 -0.47000
O 	O 	0.88000 0.60440 0.35928 -0.49300
O 	O 	0.86210 0.47838 0.54478 -0.56800
C 	C 	0.87600 0.36300 0.49110 0.32200
O 	O 	0.88780 0.52853 0.57011 -0.55200
C 	C 	0.04070 0.56080 0.58670 0.69200
C 	C 	0.04570 0.59660 0.58430 -0.92800
H 	H 	0.03570 0.60370 0.56720 0.28100
H 	H 	0.07220 0.60190 0.58600 0.28200
H 	H 	0.03210 0.60700 0.59840 0.30000
C 	C 	0.06330 0.54620 0.56450 -0.95100
H 	H 	0.05230 0.55230 0.54740 0.29500
H 	H 	0.06290 0.52340 0.56610 0.29700
H 	H 	0.08920 0.55360 0.56580 0.28900
C 	C 	0.05660 0.55210 0.61330 -1.00000
H 	H 	0.04160 0.56180 0.62700 0.33000
H 	H 	0.08240 0.55960 0.61500 0.30500
H 	H 	0.05610 0.52930 0.61530 0.30700
C 	C 	0.85360 0.39016 0.73994 0.30900
O 	O 	0.88474 0.38711 0.75189 -0.48000
O 	O 	0.82225 0.38083 0.74786 -0.47300
O 	O 	0.82520 0.57380 0.49680 -0.35000
C 	C 	0.84800 0.62230 0.42440 -0.05300
H 	H 	0.83880 0.64290 0.42190 0.04900
C 	C 	0.84650 0.60840 0.44900 0.12800
H 	H 	0.83620 0.61990 0.46310 -0.02700
C 	C 	0.87590 0.56300 0.43260 -0.05400
H 	H 	0.88640 0.54290 0.43540 0.03300
C 	C 	0.87730 0.57610 0.40770 -0.25800
H 	H 	0.88790 0.56480 0.39370 0.09500
N 	N 	0.81790 0.55830 0.51930 -0.06500
C 	C 	0.78870 0.56950 0.52920 0.03200
H 	H 	0.77580 0.58560 0.51970 0.03300
C 	C 	0.77370 0.55950 0.55400 -0.02700
C 	C 	0.79080 0.53650 0.57100 0.04600
C 	C 	0.77370 0.53080 0.59570 0.09700
C 	C 	0.74100 0.54680 0.60230 -0.11700
H 	H 	0.73050 0.54310 0.61900 0.05600
C 	C 	0.72400 0.56770 0.58520 0.04000
C 	C 	0.74060 0.57380 0.56160 -0.06700
H 	H 	0.72900 0.58840 0.54990 0.04100
C 	C 	0.78800 0.50900 0.61520 -0.20800
H 	H 	0.77430 0.50700 0.63090 0.10100
N 	N 	0.81700 0.49230 0.61340 -0.03300
O 	O 	0.82190 0.47560 0.63610 -0.15900
O 	O 	0.81930 0.52170 0.56410 -0.17800
C 	C 	0.68720 0.58340 0.59230 0.06500
C 	C 	0.69640 0.61830 0.59230 -0.45500
H 	H 	0.70340 0.62480 0.57460 0.14800
H 	H 	0.71720 0.62240 0.60480 0.15300
H 	H 	0.67450 0.63020 0.59760 0.13400
C 	C 	0.65650 0.57560 0.57210 -0.09300
H 	H 	0.66410 0.58250 0.55460 -0.04800
H 	H 	0.63350 0.58650 0.57670 0.03100
H 	H 	0.65220 0.55300 0.57190 0.09400
C 	C 	0.67620 0.57310 0.61960 -0.49300
H 	H 	0.69630 0.57830 0.63230 0.15500
H 	H 	0.67200 0.55050 0.61960 0.19700
H 	H 	0.65330 0.58390 0.62440 0.14000
C 	C 	0.22430 0.72874 0.80169 -0.69900
C 	C 	0.21910 0.75323 0.78380 0.38000
H 	H 	0.19990 0.75130 0.77070 -0.08900
C 	C 	0.24050 0.77994 0.78420 -0.28400
H 	H 	0.23630 0.79580 0.77130 0.13300
C 	C 	0.26840 0.78364 0.80358 0.10400
C 	C 	0.27520 0.75940 0.82128 -0.29300
H 	H 	0.29470 0.76110 0.83430 0.13100
C 	C 	0.25350 0.73282 0.81982 0.39300
H 	H 	0.25890 0.71640 0.83190 -0.10800
B 	B 	0.19700 0.69900 0.80210 1.62700
O 	O 	0.22080 0.67068 0.80344 -0.54600
N 	N 	0.20160 0.64175 0.80540 -0.16600
C 	C 	0.22390 0.61870 0.80510 0.08700
H 	H 	0.24970 0.62320 0.80320 0.02400
C 	C 	0.21340 0.58624 0.80721 -0.16400
C 	C 	0.17610 0.57626 0.81036 0.26600
C 	C 	0.17022 0.54342 0.81332 -0.15100
C 	C 	0.20075 0.52243 0.81298 0.06600
H 	H 	0.19620 0.50070 0.81500 0.00900
C 	C 	0.23692 0.53269 0.80984 -0.15800
C 	C 	0.24260 0.56469 0.80730 0.06900
H 	H 	0.26730 0.57220 0.80560 -0.00100
C 	C 	0.13315 0.52971 0.81494 0.07800
H 	H 	0.13220 0.50780 0.81780 0.04500
N 	N 	0.10203 0.54355 0.81302 -0.15800
O 	O 	0.07215 0.52338 0.81448 -0.51200
B 	B 	0.03430 0.53700 0.81100 1.51800
O 	O 	0.17640 0.70378 0.82567 -0.57400
N 	N 	0.14860 0.68200 0.83043 -0.16700
C 	C 	0.13250 0.68790 0.85180 0.08900
H 	H 	0.14060 0.70610 0.86100 0.03000
C 	C 	0.10330 0.66980 0.86346 -0.17700
C 	C 	0.08810 0.64240 0.85159 0.28800
C 	C 	0.06130 0.62564 0.86672 -0.17200
C 	C 	0.05070 0.63650 0.89135 0.08500
H 	H 	0.03260 0.62500 0.90070 -0.00600
C 	C 	0.06550 0.66340 0.90275 -0.16100
C 	C 	0.09130 0.67930 0.88810 0.08100
H 	H 	0.10160 0.69800 0.89530 -0.00300
C 	C 	0.04410 0.59709 0.85754 0.07900
H 	H 	0.02710 0.58760 0.86910 0.02100
N 	N 	0.04880 0.58319 0.83604 -0.17400
O 	O 	0.02547 0.55828 0.83268 -0.56000
O 	O 	0.17530 0.69989 0.77758 -0.56600
N 	N 	0.14970 0.67560 0.77403 -0.16100
C 	C 	0.13490 0.67640 0.75120 0.06000
H 	H 	0.14350 0.69250 0.74000 0.04600
C 	C 	0.10680 0.65590 0.73993 -0.10400
C 	C 	0.09200 0.63040 0.75487 0.21600
C 	C 	0.06540 0.61090 0.74157 -0.09200
C 	C 	0.05460 0.61720 0.71541 -0.06700
C 	C 	0.09440 0.66060 0.71403 -0.02900
C 	C 	0.04790 0.58390 0.75402 0.04100
H 	H 	0.03260 0.57090 0.74310 0.06000
N 	N 	0.05140 0.57657 0.77821 -0.16100
O 	O 	0.02820 0.55159 0.78476 -0.52500
C 	C 	0.00534 0.50858 0.81092 -0.65200
C 	C 	0.01150 0.48039 0.79800 0.35700
H 	H 	0.03460 0.47730 0.78960 -0.08300
C 	C 	0.98511 0.45678 0.79713 -0.25500
H 	H 	0.99020 0.43780 0.78820 0.12700
C 	C 	0.95112 0.46076 0.80924 0.08000
C 	C 	0.94450 0.48800 0.82271 -0.25100
H 	H 	0.92170 0.49070 0.83160 0.11000
C 	C 	0.97115 0.51151 0.82335 0.33600
H 	H 	0.96600 0.53030 0.83260 -0.09600
C 	C 	0.28980 0.81350 0.80650 0.31700
O 	O 	0.28412 0.83349 0.78875 -0.49100
O 	O 	0.31244 0.81551 0.82571 -0.49500
O 	O 	0.14884 0.59579 0.81110 -0.53900
C 	C 	0.26980 0.51017 0.80810 0.34800
O 	O 	0.09940 0.63215 0.82996 -0.56400
C 	C 	0.05270 0.67510 0.92960 0.35300
O 	O 	0.10200 0.62589 0.77922 -0.53700
C 	C 	0.92182 0.43564 0.80793 0.35000
O 	O 	0.93099 0.40965 0.79877 -0.48100
O 	O 	0.89018 0.44250 0.81497 -0.49500
C 	C 	0.06570 0.64370 0.70190 0.13500
C 	C 	0.27820 0.49000 0.83160 -0.17100
H 	H 	0.25500 0.48120 0.83800 -0.00700
H 	H 	0.29030 0.50260 0.84550 0.07600
H 	H 	0.29500 0.47300 0.82660 0.04100
C 	C 	0.25860 0.48730 0.78460 -0.53800
H 	H 	0.25280 0.49960 0.76880 0.18100
H 	H 	0.23670 0.47510 0.78930 0.17700
H 	H 	0.27940 0.47320 0.78130 0.17600
C 	C 	0.30560 0.52380 0.79800 -0.28800
H 	H 	0.29990 0.53700 0.78270 -0.06100
H 	H 	0.32230 0.50690 0.79300 0.09900
H 	H 	0.31760 0.53650 0.81190 0.10800
C 	C 	0.07400 0.70340 0.94050 -0.21000
H 	H 	0.07370 0.72010 0.92740 0.05600
H 	H 	0.09990 0.69740 0.94470 0.07700
H 	H 	0.06210 0.71070 0.95650 0.05500
C 	C 	0.01290 0.68740 0.92280 -0.21700
H 	H 	0.99760 0.67030 0.91560 0.05800
H 	H 	0.01430 0.70420 0.90980 -0.00300
H 	H 	0.00160 0.69550 0.93880 0.07300
C 	C 	0.05170 0.64760 0.94870 -0.37100
H 	H 	0.03770 0.63030 0.94060 0.00100
H 	H 	0.03940 0.65420 0.96490 0.12000
H 	H 	0.07720 0.64080 0.95310 0.23400
C 	C 	0.04390 0.65630 0.67770 -0.18100
C 	C 	0.05920 0.68700 0.66780 0.05800
H 	H 	0.05690 0.70300 0.68150 0.01800
H 	H 	0.04500 0.69350 0.65190 0.01200
H 	H 	0.08550 0.68440 0.66360 -0.12500
C 	C 	0.04730 0.63120 0.65660 1.21600
H 	H 	0.03740 0.61140 0.66310 -1.57300
H 	H 	0.07370 0.62850 0.65240 -0.18100
H 	H 	0.03320 0.63760 0.64070 -0.38200
C 	C 	0.00260 0.66230 0.68240 -0.01500
H 	H 	0.99100 0.64310 0.68890 0.00700
H 	H 	0.99010 0.66870 0.66590 0.04700
H 	H 	0.00010 0.67890 0.69550 0.02000
C 	C 	0.90780 0.36370 0.47150 -0.19600
H 	H 	0.90440 0.38170 0.45980 0.07100
H 	H 	0.90750 0.34440 0.46120 0.05700
H 	H 	0.93170 0.36560 0.48120 0.04100
C 	C 	0.88160 0.33480 0.50940 -0.18400
H 	H 	0.86140 0.33410 0.52200 0.05800
H 	H 	0.90560 0.33670 0.51890 0.06000
H 	H 	0.88140 0.31560 0.49890 0.05100
C 	C 	0.83870 0.35600 0.47610 -0.33000
H 	H 	0.83300 0.37310 0.46380 0.09300
H 	H 	0.81860 0.35410 0.48870 0.05700
H 	H 	0.84090 0.33640 0.46630 0.10300
C 	C 	0.73210 0.51050 0.80820 0.29800
H 	H 	0.73970 0.53040 0.81460 -0.07100
C 	C 	0.75830 0.48670 0.80710 0.14500
H 	H 	0.78340 0.49060 0.81250 -0.01700
C 	C 	0.71220 0.45280 0.78800 -0.09700
H 	H 	0.70510 0.43340 0.78040 0.05900
C 	C 	0.68660 0.47700 0.78890 0.06700
H 	H 	0.66220 0.47370 0.78150 -0.00400
C 	C 	0.61190 0.67960 0.65620 -0.19400
H 	H 	0.58560 0.67350 0.65690 0.12900
H 	H 	0.61890 0.68190 0.63780 0.06900
H 	H 	0.61560 0.69960 0.66530 -0.05800
C 	C 	0.67730 0.66230 0.66910 -0.14700
H 	H 	0.69110 0.64530 0.67790 0.07200
H 	H 	0.68210 0.68200 0.67850 0.04500
H 	H 	0.68540 0.66420 0.65100 0.06000
C 	C 	0.62770 0.62560 0.65180 -0.59700
H 	H 	0.64220 0.60790 0.65880 0.17100
H 	H 	0.63480 0.62980 0.63370 0.17600
H 	H 	0.60110 0.62060 0.65210 0.15200
O 	O 	0.81750 0.56320 0.49080 -0.20400
C 	C 	0.88960 0.57370 0.43750 0.28100
H 	H 	0.90970 0.56090 0.44360 -0.07400
C 	C 	0.89140 0.58700 0.41280 0.10500
H 	H 	0.91220 0.58300 0.40210 0.00200
C 	C 	0.83380 0.61360 0.42030 -0.09300
H 	H 	0.81520 0.62830 0.41490 0.04800
C 	C 	0.83230 0.59940 0.44470 0.09200
H 	H 	0.81200 0.60410 0.45570 -0.01100
N 	N 	0.80970 0.54860 0.51520 -0.10100
C 	C 	0.77580 0.55300 0.52080 -0.01600
H 	H 	0.76060 0.56440 0.50850 0.04300
C 	C 	0.75830 0.54190 0.54460 -0.04500
C 	C 	0.77800 0.52360 0.56430 0.11600
C 	C 	0.75680 0.51170 0.58570 -0.18100
C 	C 	0.71860 0.51870 0.58700 0.06500
H 	H 	0.70480 0.51010 0.60100 -0.01200
C 	C 	0.70030 0.53800 0.56850 -0.07600
C 	C 	0.72050 0.54860 0.54750 0.00700
H 	H 	0.70800 0.56090 0.53440 0.01600
C 	C 	0.77360 0.49390 0.60700 0.21400
H 	H 	0.75720 0.48630 0.62000 -0.04000
N 	N 	0.80790 0.48720 0.61020 -0.10800
O 	O 	0.81640 0.46900 0.63210 -0.34000
O 	O 	0.81340 0.51890 0.56340 -0.27500
C 	C 	0.65930 0.54650 0.57270 0.11800
C 	C 	0.64150 0.56310 0.54960 -0.52000
H 	H 	0.64470 0.55060 0.53360 0.16400
H 	H 	0.65330 0.58360 0.54740 0.22200
H 	H 	0.61480 0.56590 0.55260 0.15500
C 	C 	0.63720 0.51600 0.57600 -0.46200
H 	H 	0.64780 0.50420 0.59100 0.14100
H 	H 	0.63880 0.50330 0.56000 0.14800
H 	H 	0.61100 0.52090 0.57930 0.13500
C 	C 	0.65610 0.56380 0.59890 -0.14900
H 	H 	0.66830 0.55150 0.61290 -0.01900
H 	H 	0.62960 0.56660 0.60280 0.03400
H 	H 	0.66820 0.58430 0.59770 0.14300
C 	C 	0.91560 0.35030 0.49910 -0.34800
H 	H 	0.91740 0.34790 0.51830 0.09300
H 	H 	0.93460 0.36510 0.49340 0.10400
H 	H 	0.91950 0.33000 0.49070 0.11300
C 	C 	0.84820 0.33820 0.49900 -0.19300
H 	H 	0.84860 0.33620 0.51830 0.04100
H 	H 	0.85490 0.31810 0.49120 0.05500
H 	H 	0.82310 0.34430 0.49280 0.08300
C 	C 	0.87540 0.36600 0.46140 -0.17600
H 	H 	0.89340 0.38200 0.45630 0.01900
H 	H 	0.85030 0.37200 0.45520 0.04900
H 	H 	0.88210 0.34590 0.45360 0.04900
C 	C 	0.30000 0.52020 0.82910 -0.36300
H 	H 	0.30790 0.54170 0.82570 0.07900
H 	H 	0.32160 0.50620 0.82820 0.09900
H 	H 	0.28960 0.51890 0.84670 0.08200
C 	C 	0.25980 0.47710 0.81520 -0.16900
H 	H 	0.24770 0.47690 0.83230 0.11200
H 	H 	0.28260 0.46430 0.81640 0.05400
H 	H 	0.24280 0.46840 0.80170 0.03000
C 	C 	0.28880 0.51170 0.78170 -0.03200
H 	H 	0.29490 0.53350 0.77770 0.15900
H 	H 	0.27200 0.50330 0.76790 0.00100
H 	H 	0.31180 0.49920 0.78260 -0.01300
C 	C 	0.04420 0.71010 0.92830 -0.34200
H 	H 	0.06570 0.72130 0.92130 0.09200
H 	H 	0.03910 0.71790 0.94600 0.10700
H 	H 	0.02230 0.71370 0.91670 0.15800
C 	C 	0.01990 0.65670 0.94030 -0.26000
H 	H 	0.02620 0.63440 0.94090 0.16700
H 	H 	0.99780 0.65980 0.92880 0.07800
H 	H 	0.01470 0.66400 0.95810 0.06100
C 	C 	0.08430 0.67000 0.95050 -0.11600
H 	H 	0.09030 0.64770 0.95170 -0.08700
H 	H 	0.07610 0.67750 0.96770 0.04900
H 	H 	0.10660 0.68170 0.94550 0.02600
C 	C 	0.07150 0.63990 0.70040 0.04500
C 	C 	0.07140 0.63770 0.67030 -0.66000
C 	C 	0.08300 0.66830 0.65800 0.37800
H 	H 	0.10780 0.67430 0.66490 -0.03200
H 	H 	0.06490 0.68460 0.66230 -0.06600
H 	H 	0.08380 0.66590 0.63880 -0.09600
C 	C 	0.03310 0.62600 0.66100 0.62900
H 	H 	0.02760 0.60620 0.66970 1.01700
H 	H 	0.03300 0.62280 0.64190 -0.08300
H 	H 	0.01410 0.64150 0.66530 -0.27900
C 	C 	0.10010 0.61420 0.65990 0.29700
H 	H 	0.09490 0.59340 0.66690 -0.04600
H 	H 	0.12530 0.62070 0.66560 -0.05800
H 	H 	0.09840 0.61370 0.64060 -0.05300
Zn	Zn	0.11411 0.09147 0.80203 1.20000
Zn	Zn	0.06608 0.14706 0.80369 1.19800
Zn	Zn	0.64252 0.14415 0.80492 1.19900
Zn	Zn	0.58986 0.09176 0.80788 1.19500
Zn	Zn	0.35613 0.02532 0.53419 1.19300
Zn	Zn	0.35575 0.99110 0.58430 1.19100
Zn	Zn	0.39609 0.87672 0.78849 1.21700
Zn	Zn	0.34691 0.91760 0.82737 1.18100
Zn	Zn	0.30781 0.87436 0.78468 1.21000
Zn	Zn	0.35266 0.84527 0.83414 1.20600
O 	O 	0.35070 0.87779 0.80789 -0.95900
C 	C 	0.98840 0.23448 0.80556 -0.64400
C 	C 	0.99000 0.25859 0.78685 0.34200
H 	H 	0.00690 0.25660 0.77290 -0.07300
C 	C 	0.96790 0.28507 0.78792 -0.25400
H 	H 	0.96930 0.30050 0.77450 0.12700
C 	C 	0.94360 0.28920 0.80837 0.08900
C 	C 	0.94080 0.26552 0.82695 -0.25900
H 	H 	0.92410 0.26780 0.84100 0.12200
C 	C 	0.96220 0.23867 0.82524 0.33900
H 	H 	0.95900 0.22250 0.83780 -0.08800
B 	B 	0.01480 0.20420 0.80470 1.53900
O 	O 	0.04603 0.21038 0.82412 -0.51700
N 	N 	0.07190 0.18698 0.82771 -0.16700
C 	C 	0.09530 0.19270 0.84610 0.09400
H 	H 	0.09280 0.21230 0.85470 0.02400
C 	C 	0.12540 0.17280 0.85570 -0.20100
C 	C 	0.13400 0.14370 0.84350 0.30100
C 	C 	0.16540 0.12680 0.85490 -0.20100
C 	C 	0.18460 0.13740 0.87750 0.14000
H 	H 	0.20430 0.12510 0.88490 -0.03500
C 	C 	0.17540 0.16540 0.88940 -0.28200
C 	C 	0.14590 0.18250 0.87810 0.13700
H 	H 	0.13940 0.20180 0.88610 -0.03600
C 	C 	0.17750 0.09790 0.84370 0.10300
H 	H 	0.20020 0.08940 0.85060 0.02100
N 	N 	0.16110 0.08240 0.82560 -0.16800
O 	O 	0.18070 0.05563 0.82061 -0.54500
B 	B 	0.16540 0.03380 0.80100 1.53100
O 	O 	0.99202 0.17785 0.81328 -0.54100
N 	N 	0.00950 0.14845 0.81296 -0.17200
C 	C 	0.98670 0.12688 0.81840 0.10000
H 	H 	0.96190 0.13320 0.82190 0.02000
C 	C 	0.99430 0.09331 0.81980 -0.20600
C 	C 	0.03050 0.08084 0.81620 0.29000
C 	C 	0.03420 0.04799 0.81770 -0.20500
C 	C 	0.00230 0.02900 0.82100 0.14800
H 	H 	0.00530 0.00700 0.82100 -0.04100
C 	C 	0.96680 0.04125 0.82430 -0.30800
C 	C 	0.96440 0.07364 0.82470 0.15700
H 	H 	0.94110 0.08290 0.82860 -0.04900
C 	C 	0.06890 0.03120 0.81410 0.09800
H 	H 	0.06860 0.00910 0.81610 0.01900
N 	N 	0.09960 0.04403 0.80840 -0.17000
O 	O 	0.12846 0.02155 0.80608 -0.54900
O 	O 	0.02751 0.20150 0.77787 -0.54000
N 	N 	0.05180 0.17757 0.77252 -0.15900
C 	C 	0.06160 0.17863 0.74876 0.08200
H 	H 	0.05070 0.19460 0.73800 0.04200
C 	C 	0.08810 0.15768 0.73636 -0.14600
C 	C 	0.10360 0.13124 0.74993 0.24900
C 	C 	0.12940 0.11233 0.73570 -0.15500
C 	C 	0.13900 0.12100 0.71024 0.06400
H 	H 	0.15680 0.10860 0.70150 -0.00700
C 	C 	0.12410 0.14660 0.69706 -0.15700
C 	C 	0.09820 0.16460 0.71039 0.06500
H 	H 	0.08700 0.18210 0.70170 0.01100
C 	C 	0.14690 0.08470 0.74693 0.07500
H 	H 	0.16210 0.07280 0.73560 0.02300
N 	N 	0.14400 0.07460 0.77024 -0.16800
O 	O 	0.16580 0.04780 0.77429 -0.52900
C 	C 	0.19490 0.00597 0.80001 -0.56800
C 	C 	0.24800 0.95689 0.79822 -0.02800
C 	C 	0.91980 0.31810 0.80998 0.32200
O 	O 	0.92269 0.33762 0.79185 -0.49100
O 	O 	0.89757 0.31897 0.82880 -0.47800
O 	O 	0.11660 0.13417 0.82314 -0.55600
C 	C 	0.19630 0.17740 0.91410 0.61200
O 	O 	0.05866 0.09916 0.81153 -0.55100
C 	C 	0.93200 0.02050 0.82660 0.66900
C 	C 	0.90580 0.02360 0.80130 -0.82400
H 	H 	0.91870 0.01540 0.78600 0.25700
H 	H 	0.89940 0.04560 0.79840 0.26000
H 	H 	0.88290 0.01150 0.80380 0.24100
C 	C 	0.90600 0.03410 0.84580 -0.97100
H 	H 	0.90310 0.05650 0.84230 0.29300
H 	H 	0.91610 0.03100 0.86370 0.28600
H 	H 	0.88170 0.02380 0.84390 0.28400
C 	C 	0.94190 0.98640 0.82710 -0.96500
H 	H 	0.95930 0.98190 0.81300 0.29300
H 	H 	0.91920 0.97390 0.82440 0.28500
H 	H 	0.95360 0.98110 0.84420 0.28700
O 	O 	0.09467 0.12397 0.77388 -0.53800
C 	C 	0.13580 0.15510 0.66918 0.35700
C 	C 	0.27630 0.93161 0.79630 0.33500
O 	O 	0.30915 0.93858 0.80389 -0.51900
O 	O 	0.26771 0.90515 0.78711 -0.48400
C 	C 	0.22410 0.00340 0.81910 -0.10100
H 	H 	0.22590 0.01820 0.83290 0.05400
C 	C 	0.25030 0.97960 0.81800 -0.27100
H 	H 	0.27000 0.97870 0.83080 0.09300
C 	C 	0.21860 0.95820 0.77990 -0.02800
H 	H 	0.21600 0.94260 0.76670 0.02500
C 	C 	0.19320 0.98250 0.78110 0.13300
H 	H 	0.17340 0.98310 0.76830 -0.03700
C 	C 	0.10570 0.15090 0.64840 0.00800
H 	H 	0.08230 0.16000 0.65460 -0.06200
H 	H 	0.10210 0.12860 0.64490 0.04100
H 	H 	0.11300 0.16150 0.63220 -0.01300
C 	C 	0.14330 0.19130 0.66850 -0.47900
H 	H 	0.16290 0.19660 0.68150 0.15000
H 	H 	0.12030 0.20260 0.67250 0.24700
H 	H 	0.15130 0.19730 0.65090 0.15900
C 	C 	0.17320 0.14180 0.66150 -0.20800
H 	H 	0.19150 0.14530 0.67590 0.03900
H 	H 	0.18150 0.15220 0.64560 0.04500
H 	H 	0.17060 0.11930 0.65820 0.06500
C 	C 	0.17110 0.17500 0.93800 -0.85600
H 	H 	0.14770 0.18620 0.93430 0.26000
H 	H 	0.18390 0.18440 0.95340 0.24900
H 	H 	0.16580 0.15300 0.94170 0.25900
C 	C 	0.23280 0.16020 0.91970 -0.88900
H 	H 	0.24490 0.16870 0.93570 0.26100
H 	H 	0.24930 0.16280 0.90480 0.27000
H 	H 	0.22770 0.13790 0.92230 0.26900
C 	C 	0.20400 0.21260 0.91070 -0.86100
H 	H 	0.18040 0.22360 0.90710 0.26500
H 	H 	0.22070 0.21570 0.89600 0.26400
H 	H 	0.21580 0.22080 0.92690 0.25300
C 	C 	0.35960 0.07830 0.45388 -0.59700
C 	C 	0.36270 0.10630 0.40355 -0.01500
B 	B 	0.35640 0.06110 0.48147 1.57300
O 	O 	0.35820 0.02801 0.47510 -0.55600
N 	N 	0.36050 0.00660 0.49588 -0.16200
C 	C 	0.36200 0.97870 0.48808 0.08200
H 	H 	0.36180 0.97540 0.46960 0.01800
C 	C 	0.36400 0.95113 0.50468 -0.17300
C 	C 	0.36300 0.95230 0.53275 0.28000
C 	C 	0.36600 0.92330 0.54650 -0.17400
C 	C 	0.37080 0.89580 0.53208 0.07300
H 	H 	0.37400 0.87680 0.54160 -0.00300
C 	C 	0.37110 0.89440 0.50522 -0.15900
C 	C 	0.36820 0.92220 0.49170 0.06900
H 	H 	0.36910 0.92200 0.47300 -0.01200
C 	C 	0.36410 0.92060 0.57461 0.07900
H 	H 	0.36610 0.90000 0.58160 0.03000
N 	N 	0.36020 0.94228 0.59120 -0.16400
O 	O 	0.35930 0.93165 0.61663 -0.52500
B 	B 	0.35430 0.95540 0.63696 1.47000
O 	O 	0.38880 0.07154 0.49683 -0.55400
N 	N 	0.39480 0.05840 0.52149 -0.16500
C 	C 	0.42730 0.06450 0.53066 0.09700
H 	H 	0.44290 0.07720 0.52020 0.01800
C 	C 	0.44230 0.05380 0.55553 -0.20600
C 	C 	0.42200 0.03570 0.57426 0.29100
C 	C 	0.44190 0.02680 0.59784 -0.19800
C 	C 	0.47970 0.03450 0.60128 0.15600
H 	H 	0.49250 0.02780 0.61690 -0.02500
C 	C 	0.49950 0.05160 0.58298 -0.31300
C 	C 	0.48010 0.06100 0.56074 0.15700
H 	H 	0.49300 0.07310 0.54820 -0.04700
C 	C 	0.42520 0.00800 0.61828 0.10000
H 	H 	0.43900 0.00560 0.63440 0.03500
N 	N 	0.39370 0.99458 0.61627 -0.16800
O 	O 	0.38530 0.97881 0.63872 -0.49700
C 	C 	0.35420 0.93780 0.66486 -0.62800
C 	C 	0.38630 0.93590 0.68114 0.32600
H 	H 	0.40850 0.94590 0.67580 -0.06600
C 	C 	0.38640 0.91970 0.70488 -0.24400
H 	H 	0.40880 0.91790 0.71520 0.12500
C 	C 	0.35380 0.90612 0.71356 0.08700
C 	C 	0.32140 0.90840 0.69829 -0.25500
H 	H 	0.29900 0.89910 0.70400 0.12100
C 	C 	0.32190 0.92430 0.67444 0.32900
H 	H 	0.29930 0.92610 0.66430 -0.08700
C 	C 	0.36350 0.11920 0.37627 0.29900
O 	O 	0.35142 0.14647 0.37224 -0.47000
O 	O 	0.38000 0.10440 0.35928 -0.49300
O 	O 	0.36210 0.97838 0.54478 -0.56800
C 	C 	0.37600 0.86300 0.49110 0.32200
O 	O 	0.38780 0.02853 0.57011 -0.55200
C 	C 	0.54070 0.06080 0.58670 0.69200
C 	C 	0.54570 0.09660 0.58430 -0.92800
H 	H 	0.53570 0.10370 0.56720 0.28100
H 	H 	0.57220 0.10190 0.58600 0.28200
H 	H 	0.53210 0.10700 0.59840 0.30000
C 	C 	0.56330 0.04620 0.56450 -0.95100
H 	H 	0.55230 0.05230 0.54740 0.29500
H 	H 	0.56290 0.02340 0.56610 0.29700
H 	H 	0.58920 0.05360 0.56580 0.28900
C 	C 	0.55660 0.05210 0.61330 -1.00000
H 	H 	0.54160 0.06180 0.62700 0.33000
H 	H 	0.58240 0.05960 0.61500 0.30500
H 	H 	0.55610 0.02930 0.61530 0.30700
C 	C 	0.35360 0.89016 0.73994 0.30900
O 	O 	0.38474 0.88711 0.75189 -0.48000
O 	O 	0.32225 0.88083 0.74786 -0.47300
O 	O 	0.32520 0.07380 0.49680 -0.35000
C 	C 	0.34800 0.12230 0.42440 -0.05300
H 	H 	0.33880 0.14290 0.42190 0.04900
C 	C 	0.34650 0.10840 0.44900 0.12800
H 	H 	0.33620 0.11990 0.46310 -0.02700
C 	C 	0.37590 0.06300 0.43260 -0.05400
H 	H 	0.38640 0.04290 0.43540 0.03300
C 	C 	0.37730 0.07610 0.40770 -0.25800
H 	H 	0.38790 0.06480 0.39370 0.09500
N 	N 	0.31790 0.05830 0.51930 -0.06500
C 	C 	0.28870 0.06950 0.52920 0.03200
H 	H 	0.27580 0.08560 0.51970 0.03300
C 	C 	0.27370 0.05950 0.55400 -0.02700
C 	C 	0.29080 0.03650 0.57100 0.04600
C 	C 	0.27370 0.03080 0.59570 0.09700
C 	C 	0.24100 0.04680 0.60230 -0.11700
H 	H 	0.23050 0.04310 0.61900 0.05600
C 	C 	0.22400 0.06770 0.58520 0.04000
C 	C 	0.24060 0.07380 0.56160 -0.06700
H 	H 	0.22900 0.08840 0.54990 0.04100
C 	C 	0.28800 0.00900 0.61520 -0.20800
H 	H 	0.27430 0.00700 0.63090 0.10100
N 	N 	0.31700 0.99230 0.61340 -0.03300
O 	O 	0.32190 0.97560 0.63610 -0.15900
O 	O 	0.31930 0.02170 0.56410 -0.17800
C 	C 	0.18720 0.08340 0.59230 0.06500
C 	C 	0.19640 0.11830 0.59230 -0.45500
H 	H 	0.20340 0.12480 0.57460 0.14800
H 	H 	0.21720 0.12240 0.60480 0.15300
H 	H 	0.17450 0.13020 0.59760 0.13400
C 	C 	0.15650 0.07560 0.57210 -0.09300
H 	H 	0.16410 0.08250 0.55460 -0.04800
H 	H 	0.13350 0.08650 0.57670 0.03100
H 	H 	0.15220 0.05300 0.57190 0.09400
C 	C 	0.17620 0.07310 0.61960 -0.49300
H 	H 	0.19630 0.07830 0.63230 0.15500
H 	H 	0.17200 0.05050 0.61960 0.19700
H 	H 	0.15330 0.08390 0.62440 0.14000
C 	C 	0.72430 0.22874 0.80169 -0.69900
C 	C 	0.71910 0.25323 0.78380 0.38000
H 	H 	0.69990 0.25130 0.77070 -0.08800
C 	C 	0.74050 0.27994 0.78420 -0.28400
H 	H 	0.73630 0.29580 0.77130 0.13300
C 	C 	0.76840 0.28364 0.80358 0.10400
C 	C 	0.77520 0.25940 0.82128 -0.29300
H 	H 	0.79470 0.26110 0.83430 0.13100
C 	C 	0.75350 0.23282 0.81982 0.39300
H 	H 	0.75890 0.21640 0.83190 -0.10800
B 	B 	0.69700 0.19900 0.80210 1.62700
O 	O 	0.72080 0.17068 0.80344 -0.54600
N 	N 	0.70160 0.14175 0.80540 -0.16600
C 	C 	0.72390 0.11870 0.80510 0.08700
H 	H 	0.74970 0.12320 0.80320 0.02400
C 	C 	0.71340 0.08624 0.80721 -0.16400
C 	C 	0.67610 0.07626 0.81036 0.26600
C 	C 	0.67022 0.04342 0.81332 -0.15100
C 	C 	0.70075 0.02243 0.81298 0.06600
H 	H 	0.69620 0.00070 0.81500 0.00900
C 	C 	0.73692 0.03269 0.80984 -0.15800
C 	C 	0.74260 0.06469 0.80730 0.06900
H 	H 	0.76730 0.07220 0.80560 -0.00100
C 	C 	0.63315 0.02971 0.81494 0.07800
H 	H 	0.63220 0.00780 0.81780 0.04500
N 	N 	0.60203 0.04355 0.81302 -0.15800
O 	O 	0.57215 0.02338 0.81448 -0.51200
B 	B 	0.53430 0.03700 0.81100 1.51800
O 	O 	0.67640 0.20378 0.82567 -0.57400
N 	N 	0.64860 0.18200 0.83043 -0.16700
C 	C 	0.63250 0.18790 0.85180 0.08900
H 	H 	0.64060 0.20610 0.86100 0.03000
C 	C 	0.60330 0.16980 0.86346 -0.17700
C 	C 	0.58810 0.14240 0.85159 0.28800
C 	C 	0.56130 0.12564 0.86672 -0.17200
C 	C 	0.55070 0.13650 0.89135 0.08500
H 	H 	0.53260 0.12500 0.90070 -0.00600
C 	C 	0.56550 0.16340 0.90275 -0.16100
C 	C 	0.59130 0.17930 0.88810 0.08100
H 	H 	0.60160 0.19800 0.89530 -0.00300
C 	C 	0.54410 0.09709 0.85754 0.07900
H 	H 	0.52710 0.08760 0.86910 0.02100
N 	N 	0.54880 0.08319 0.83604 -0.17400
O 	O 	0.52547 0.05828 0.83268 -0.56000
O 	O 	0.67530 0.19989 0.77758 -0.56600
N 	N 	0.64970 0.17560 0.77403 -0.16100
C 	C 	0.63490 0.17640 0.75120 0.06000
H 	H 	0.64350 0.19250 0.74000 0.04600
C 	C 	0.60680 0.15590 0.73993 -0.10400
C 	C 	0.59200 0.13040 0.75487 0.21600
C 	C 	0.56540 0.11090 0.74157 -0.09200
C 	C 	0.55460 0.11720 0.71541 -0.06700
C 	C 	0.59440 0.16060 0.71403 -0.02900
C 	C 	0.54790 0.08390 0.75402 0.04100
H 	H 	0.53260 0.07090 0.74310 0.06000
N 	N 	0.55140 0.07657 0.77821 -0.16100
O 	O 	0.52820 0.05159 0.78476 -0.52500
C 	C 	0.50534 0.00858 0.81092 -0.65200
C 	C 	0.51150 0.98039 0.79800 0.35700
H 	H 	0.53460 0.97730 0.78960 -0.08300
C 	C 	0.48511 0.95678 0.79713 -0.25500
H 	H 	0.49020 0.93780 0.78820 0.12700
C 	C 	0.45112 0.96076 0.80924 0.08000
C 	C 	0.44450 0.98800 0.82271 -0.25100
H 	H 	0.42170 0.99070 0.83160 0.11000
C 	C 	0.47115 0.01151 0.82335 0.33600
H 	H 	0.46600 0.03030 0.83260 -0.09600
C 	C 	0.78980 0.31350 0.80650 0.31700
O 	O 	0.78412 0.33349 0.78875 -0.49100
O 	O 	0.81244 0.31551 0.82571 -0.49500
O 	O 	0.64884 0.09579 0.81110 -0.53900
C 	C 	0.76980 0.01017 0.80810 0.34800
O 	O 	0.59940 0.13215 0.82996 -0.56400
C 	C 	0.55270 0.17510 0.92960 0.35300
O 	O 	0.60200 0.12589 0.77922 -0.53700
C 	C 	0.42182 0.93564 0.80793 0.35000
O 	O 	0.43099 0.90965 0.79877 -0.48100
O 	O 	0.39018 0.94250 0.81497 -0.49500
C 	C 	0.56570 0.14370 0.70190 0.13500
C 	C 	0.77820 0.99000 0.83160 -0.17100
H 	H 	0.75500 0.98120 0.83800 -0.00700
H 	H 	0.79030 0.00260 0.84550 0.07600
H 	H 	0.79500 0.97300 0.82660 0.04100
C 	C 	0.75860 0.98730 0.78460 -0.53800
H 	H 	0.75280 0.99960 0.76880 0.18100
H 	H 	0.73670 0.97510 0.78930 0.17700
H 	H 	0.77940 0.97320 0.78130 0.17600
C 	C 	0.80560 0.02380 0.79800 -0.28800
H 	H 	0.79990 0.03700 0.78270 -0.06100
H 	H 	0.82230 0.00690 0.79300 0.09900
H 	H 	0.81760 0.03650 0.81190 0.10800
C 	C 	0.57400 0.20340 0.94050 -0.21000
H 	H 	0.57370 0.22010 0.92740 0.05600
H 	H 	0.59990 0.19740 0.94470 0.07700
H 	H 	0.56210 0.21070 0.95650 0.05500
C 	C 	0.51290 0.18740 0.92280 -0.21700
H 	H 	0.49760 0.17030 0.91560 0.05800
H 	H 	0.51430 0.20420 0.90980 -0.00200
H 	H 	0.50160 0.19550 0.93880 0.07300
C 	C 	0.55170 0.14760 0.94870 -0.37100
H 	H 	0.53770 0.13030 0.94060 0.00100
H 	H 	0.53940 0.15420 0.96490 0.12000
H 	H 	0.57720 0.14080 0.95310 0.23400
C 	C 	0.54390 0.15630 0.67770 -0.18100
C 	C 	0.55920 0.18700 0.66780 0.05800
H 	H 	0.55690 0.20300 0.68150 0.01800
H 	H 	0.54500 0.19350 0.65190 0.01200
H 	H 	0.58550 0.18440 0.66360 -0.12500
C 	C 	0.54730 0.13120 0.65660 1.21600
H 	H 	0.53740 0.11140 0.66310 -1.57300
H 	H 	0.57370 0.12850 0.65240 -0.18100
H 	H 	0.53320 0.13760 0.64070 -0.38200
C 	C 	0.50260 0.16230 0.68240 -0.01500
H 	H 	0.49100 0.14310 0.68890 0.00700
H 	H 	0.49010 0.16870 0.66590 0.04700
H 	H 	0.50010 0.17890 0.69550 0.02000
C 	C 	0.40780 0.86370 0.47150 -0.19600
H 	H 	0.40440 0.88170 0.45980 0.07100
H 	H 	0.40750 0.84440 0.46120 0.05700
H 	H 	0.43170 0.86560 0.48120 0.04100
C 	C 	0.38160 0.83480 0.50940 -0.18400
H 	H 	0.36140 0.83410 0.52200 0.05800
H 	H 	0.40560 0.83670 0.51890 0.06000
H 	H 	0.38140 0.81560 0.49890 0.05100
C 	C 	0.33870 0.85600 0.47610 -0.33000
H 	H 	0.33300 0.87310 0.46380 0.09300
H 	H 	0.31860 0.85410 0.48870 0.05700
H 	H 	0.34090 0.83640 0.46630 0.10300
C 	C 	0.23210 0.01050 0.80820 0.29800
H 	H 	0.23970 0.03040 0.81460 -0.07100
C 	C 	0.25830 0.98670 0.80710 0.14500
H 	H 	0.28340 0.99060 0.81250 -0.01700
C 	C 	0.21220 0.95280 0.78800 -0.09700
H 	H 	0.20510 0.93340 0.78040 0.05900
C 	C 	0.18660 0.97700 0.78890 0.06700
H 	H 	0.16220 0.97370 0.78150 -0.00400
C 	C 	0.11190 0.17960 0.65620 -0.19400
H 	H 	0.08560 0.17350 0.65690 0.12900
H 	H 	0.11890 0.18190 0.63780 0.06900
H 	H 	0.11560 0.19960 0.66530 -0.05800
C 	C 	0.17730 0.16230 0.66910 -0.14700
H 	H 	0.19110 0.14530 0.67790 0.07200
H 	H 	0.18210 0.18200 0.67850 0.04500
H 	H 	0.18540 0.16420 0.65100 0.06000
C 	C 	0.12770 0.12560 0.65180 -0.59700
H 	H 	0.14220 0.10790 0.65880 0.17100
H 	H 	0.13480 0.12980 0.63370 0.17600
H 	H 	0.10110 0.12060 0.65210 0.15200
O 	O 	0.31750 0.06320 0.49080 -0.20400
C 	C 	0.38960 0.07370 0.43750 0.28100
H 	H 	0.40970 0.06090 0.44360 -0.07400
C 	C 	0.39140 0.08700 0.41280 0.10500
H 	H 	0.41220 0.08300 0.40210 0.00200
C 	C 	0.33380 0.11360 0.42030 -0.09300
H 	H 	0.31520 0.12830 0.41490 0.04800
C 	C 	0.33230 0.09940 0.44470 0.09200
H 	H 	0.31200 0.10410 0.45570 -0.01100
N 	N 	0.30970 0.04860 0.51520 -0.10100
C 	C 	0.27580 0.05300 0.52080 -0.01600
H 	H 	0.26060 0.06440 0.50850 0.04300
C 	C 	0.25830 0.04190 0.54460 -0.04500
C 	C 	0.27800 0.02360 0.56430 0.11600
C 	C 	0.25680 0.01170 0.58570 -0.18100
C 	C 	0.21860 0.01870 0.58700 0.06500
H 	H 	0.20480 0.01010 0.60100 -0.01200
C 	C 	0.20030 0.03800 0.56850 -0.07600
C 	C 	0.22050 0.04860 0.54750 0.00700
H 	H 	0.20800 0.06090 0.53440 0.01600
C 	C 	0.27360 0.99390 0.60700 0.21400
H 	H 	0.25720 0.98630 0.62000 -0.04000
N 	N 	0.30790 0.98720 0.61020 -0.10800
O 	O 	0.31640 0.96900 0.63210 -0.34000
O 	O 	0.31340 0.01890 0.56340 -0.27500
C 	C 	0.15930 0.04650 0.57270 0.11800
C 	C 	0.14150 0.06310 0.54960 -0.52000
H 	H 	0.14470 0.05060 0.53360 0.16400
H 	H 	0.15330 0.08360 0.54740 0.22200
H 	H 	0.11480 0.06590 0.55260 0.15500
C 	C 	0.13720 0.01600 0.57600 -0.46200
H 	H 	0.14780 0.00420 0.59100 0.14100
H 	H 	0.13880 0.00330 0.56000 0.14800
H 	H 	0.11100 0.02090 0.57930 0.13500
C 	C 	0.15610 0.06380 0.59890 -0.14900
H 	H 	0.16830 0.05150 0.61290 -0.01900
H 	H 	0.12960 0.06660 0.60280 0.03400
H 	H 	0.16820 0.08430 0.59770 0.14300
C 	C 	0.41560 0.85030 0.49910 -0.34800
H 	H 	0.41740 0.84790 0.51830 0.09300
H 	H 	0.43460 0.86510 0.49340 0.10400
H 	H 	0.41950 0.83000 0.49070 0.11300
C 	C 	0.34820 0.83820 0.49900 -0.19300
H 	H 	0.34860 0.83620 0.51830 0.04100
H 	H 	0.35490 0.81810 0.49120 0.05500
H 	H 	0.32310 0.84430 0.49280 0.08300
C 	C 	0.37540 0.86600 0.46140 -0.17600
H 	H 	0.39340 0.88200 0.45630 0.01900
H 	H 	0.35030 0.87200 0.45520 0.04900
H 	H 	0.38210 0.84590 0.45360 0.04900
C 	C 	0.80000 0.02020 0.82910 -0.36300
H 	H 	0.80790 0.04170 0.82570 0.07900
H 	H 	0.82160 0.00620 0.82820 0.09900
H 	H 	0.78960 0.01890 0.84670 0.08200
C 	C 	0.75980 0.97710 0.81520 -0.16900
H 	H 	0.74770 0.97690 0.83230 0.11200
H 	H 	0.78260 0.96430 0.81640 0.05400
H 	H 	0.74280 0.96840 0.80170 0.03000
C 	C 	0.78880 0.01170 0.78170 -0.03200
H 	H 	0.79490 0.03350 0.77770 0.15900
H 	H 	0.77200 0.00330 0.76790 0.00100
H 	H 	0.81180 0.99920 0.78260 -0.01300
C 	C 	0.54420 0.21010 0.92830 -0.34200
H 	H 	0.56570 0.22130 0.92130 0.09200
H 	H 	0.53910 0.21790 0.94600 0.10700
H 	H 	0.52230 0.21370 0.91670 0.15800
C 	C 	0.51990 0.15670 0.94030 -0.26000
H 	H 	0.52620 0.13440 0.94090 0.16700
H 	H 	0.49780 0.15980 0.92880 0.07800
H 	H 	0.51470 0.16400 0.95810 0.06100
C 	C 	0.58430 0.17000 0.95050 -0.11600
H 	H 	0.59030 0.14770 0.95170 -0.08700
H 	H 	0.57610 0.17750 0.96770 0.04900
H 	H 	0.60660 0.18170 0.94550 0.02600
C 	C 	0.57150 0.13990 0.70040 0.04500
C 	C 	0.57140 0.13770 0.67030 -0.66000
C 	C 	0.58300 0.16830 0.65800 0.37800
H 	H 	0.60780 0.17430 0.66490 -0.03200
H 	H 	0.56490 0.18460 0.66230 -0.06600
H 	H 	0.58380 0.16590 0.63880 -0.09600
C 	C 	0.53310 0.12600 0.66100 0.62900
H 	H 	0.52760 0.10620 0.66970 1.01700
H 	H 	0.53300 0.12280 0.64190 -0.08300
H 	H 	0.51410 0.14150 0.66530 -0.27900
C 	C 	0.60010 0.11420 0.65990 0.29700
H 	H 	0.59490 0.09340 0.66690 -0.04600
H 	H 	0.62530 0.12070 0.66560 -0.05800
H 	H 	0.59840 0.11370 0.64060 -0.05300
