data_crystal

_cell_length_a 31.47300
_cell_length_b 31.47300
_cell_length_c 62.31600
_cell_angle_alpha 90.00000
_cell_angle_beta  90.00000
_cell_angle_gamma 120.00000

_symmetry_space_group_name_	'P 1'
_symmetry_space_group_name_H-M	'P 1'

loop_
_symmetry_equiv_pos_as_xyz
  x,y,z

loop_
_atom_site_label
_atom_site_type_symbol
_atom_site_fract_x
_atom_site_fract_y
_atom_site_fract_z
_atom_site_charge
Co	Co	0.51198 0.48788 0.36289 1.13900
Co	Co	0.48029 0.51956 0.40124 1.13700
Zn	Zn	0.40079 0.70042 0.54393 1.22000
B 	B 	0.54470 0.45380 0.32350 1.43200
O 	O 	0.51230 0.41040 0.33525 -0.54300
N 	N 	0.49160 0.41640 0.35345 -0.15300
C 	C 	0.45930 0.37500 0.36096 0.09200
H 	H 	0.45440 0.34640 0.35370 0.03500
C 	C 	0.42930 0.36820 0.37970 -0.20300
C 	C 	0.43420 0.40740 0.39277 0.29600
C 	C 	0.40350 0.39470 0.41140 -0.20600
C 	C 	0.36750 0.34550 0.41515 0.15400
H 	H 	0.34740 0.33770 0.42750 -0.04700
C 	C 	0.36050 0.30820 0.40133 -0.31100
C 	C 	0.39170 0.32050 0.38401 0.15400
H 	H 	0.38740 0.29510 0.37450 -0.03400
C 	C 	0.40720 0.43050 0.42660 0.10200
H 	H 	0.38850 0.41790 0.43940 0.02200
N 	N 	0.43230 0.47650 0.42520 -0.16100
O 	O 	0.42480 0.49930 0.44246 -0.55100
B 	B 	0.44820 0.55280 0.44121 1.60500
O 	O 	0.51810 0.47940 0.31539 -0.51700
N 	N 	0.50050 0.49710 0.33081 -0.16100
C 	C 	0.47890 0.51810 0.32240 0.07200
H 	H 	0.47690 0.51690 0.30720 0.00200
C 	C 	0.45720 0.54340 0.33294 -0.18200
C 	C 	0.45550 0.54550 0.35585 0.25700
C 	C 	0.43530 0.57310 0.36508 -0.17600
C 	C 	0.42250 0.60080 0.35134 0.10600
H 	H 	0.41040 0.62020 0.35760 -0.02400
C 	C 	0.42660 0.60110 0.32919 -0.25200
C 	C 	0.44390 0.57160 0.32021 0.10600
H 	H 	0.44670 0.57080 0.30510 -0.04400
C 	C 	0.42920 0.57610 0.38797 0.08200
H 	H 	0.41430 0.59450 0.39230 0.02900
N 	N 	0.44150 0.55710 0.40290 -0.16000
O 	O 	0.43080 0.56930 0.42270 -0.54300
O 	O 	0.58980 0.48830 0.33542 -0.51000
N 	N 	0.58370 0.50890 0.35305 -0.15000
C 	C 	0.62490 0.54190 0.36059 0.08500
H 	H 	0.65340 0.54770 0.35290 0.03700
C 	C 	0.63240 0.57110 0.37954 -0.19500
C 	C 	0.59290 0.56540 0.39301 0.28400
C 	C 	0.60550 0.59770 0.41093 -0.21000
C 	C 	0.65400 0.63310 0.41428 0.16300
H 	H 	0.66120 0.65450 0.42620 -0.04800
C 	C 	0.69300 0.63940 0.40146 -0.32600
C 	C 	0.68060 0.60760 0.38423 0.15700
H 	H 	0.70620 0.61070 0.37510 -0.03400
C 	C 	0.56970 0.59600 0.42610 0.10500
H 	H 	0.58200 0.61750 0.43810 0.02100
N 	N 	0.52380 0.56890 0.42489 -0.16300
O 	O 	0.50180 0.57750 0.44223 -0.55200
C 	C 	0.43080 0.56840 0.46230 -0.71600
C 	C 	0.38660 0.53830 0.47216 0.40900
H 	H 	0.36610 0.50630 0.46650 -0.10300
C 	C 	0.37080 0.55290 0.48996 -0.30100
H 	H 	0.33970 0.53150 0.49610 0.13900
C 	C 	0.40060 0.59890 0.49870 0.11800
C 	C 	0.44570 0.62910 0.48964 -0.29200
H 	H 	0.46670 0.66050 0.49570 0.13600
C 	C 	0.46060 0.61410 0.47169 0.39000
H 	H 	0.49190 0.63550 0.46560 -0.09800
O 	O 	0.46630 0.45150 0.38911 -0.52900
C 	C 	0.31910 0.25540 0.40540 0.68200
C 	C 	0.30490 0.22130 0.38640 -0.98200
H 	H 	0.33430 0.22280 0.38030 0.31600
H 	H 	0.28200 0.18770 0.39110 0.28200
H 	H 	0.28920 0.23130 0.37550 0.29600
C 	C 	0.27360 0.25250 0.41440 -0.95200
H 	H 	0.28220 0.27440 0.42680 0.28500
H 	H 	0.25800 0.26230 0.40340 0.27900
H 	H 	0.25080 0.21870 0.41890 0.26800
C 	C 	0.34060 0.23840 0.42370 -0.88700
H 	H 	0.37070 0.23960 0.41870 0.27200
H 	H 	0.34800 0.26020 0.43610 0.26900
H 	H 	0.31650 0.20480 0.42790 0.24900
O 	O 	0.47450 0.52600 0.36811 -0.52100
C 	C 	0.41390 0.63290 0.31470 0.57500
C 	C 	0.45500 0.66360 0.29960 -0.86500
H 	H 	0.46380 0.64240 0.29150 0.24900
H 	H 	0.44460 0.68070 0.28970 0.24400
H 	H 	0.48360 0.68760 0.30780 0.25200
C 	C 	0.36870 0.59430 0.30150 -0.79300
H 	H 	0.34170 0.57410 0.31130 0.23000
H 	H 	0.35840 0.61130 0.29150 0.21700
H 	H 	0.37790 0.57330 0.29350 0.22900
C 	C 	0.39900 0.66460 0.32780 -0.84500
H 	H 	0.37210 0.64370 0.33750 0.25200
H 	H 	0.42710 0.68870 0.33620 0.25100
H 	H 	0.38820 0.68180 0.31800 0.23500
O 	O 	0.54830 0.53300 0.38894 -0.52300
C 	C 	0.74570 0.67880 0.40680 0.70500
C 	C 	0.78170 0.69380 0.38900 -1.02700
H 	H 	0.77820 0.66460 0.38180 0.33100
H 	H 	0.77580 0.71380 0.37870 0.30800
H 	H 	0.81500 0.71300 0.39480 0.29600
C 	C 	0.76340 0.65610 0.42420 -0.88500
H 	H 	0.74070 0.64550 0.43640 0.27000
H 	H 	0.76440 0.62780 0.41830 0.27100
H 	H 	0.79630 0.68070 0.42910 0.24800
C 	C 	0.75120 0.72410 0.41790 -0.95400
H 	H 	0.72740 0.71420 0.42960 0.28700
H 	H 	0.78450 0.74330 0.42370 0.27000
H 	H 	0.74530 0.74400 0.40760 0.27900
C 	C 	0.38310 0.61600 0.51757 0.32300
O 	O 	0.34189 0.58680 0.52469 -0.48200
O 	O 	0.41289 0.65780 0.52460 -0.47700
C 	C 	0.56680 0.44240 0.30264 -0.23400
C 	C 	0.61080 0.44140 0.30345 0.11200
H 	H 	0.62960 0.45150 0.31630 -0.00200
C 	C 	0.62800 0.42650 0.28645 -0.10400
H 	H 	0.65790 0.42620 0.28780 0.07300
C 	C 	0.60180 0.41190 0.26732 0.01200
C 	C 	0.55940 0.41480 0.26563 -0.08100
H 	H 	0.54150 0.40630 0.25250 0.05000
C 	C 	0.54320 0.43010 0.28287 0.09200
H 	H 	0.51440 0.43230 0.28120 -0.03100
C 	C 	0.62070 0.39540 0.24900 0.19000
O 	O 	0.65690 0.39090 0.25223 -0.38100
O 	O 	0.60010 0.38830 0.23120 -0.22700
C 	C 	0.55940 0.43350 0.30304 -0.24100
C 	C 	0.56060 0.38960 0.30407 0.08700
H 	H 	0.55130 0.37130 0.31700 0.00600
C 	C 	0.57490 0.37210 0.28690 -0.08200
H 	H 	0.57580 0.34250 0.28820 0.06600
C 	C 	0.58790 0.39820 0.26758 -0.00300
C 	C 	0.58420 0.43990 0.26582 -0.05900
H 	H 	0.59050 0.45640 0.25240 0.04300
C 	C 	0.57140 0.45810 0.28346 0.09400
H 	H 	0.57080 0.48790 0.28210 -0.02900
C 	C 	0.60630 0.38040 0.24950 0.20400
O 	O 	0.61060 0.34400 0.25288 -0.38600
O 	O 	0.61350 0.40100 0.23150 -0.20900
Co	Co	0.17865 0.82121 0.69622 1.14000
Co	Co	0.14696 0.85289 0.73457 1.13800
Zn	Zn	0.06746 0.03375 0.87726 1.21900
B 	B 	0.21137 0.78713 0.65683 1.43200
O 	O 	0.17897 0.74373 0.66858 -0.54300
N 	N 	0.15827 0.74973 0.68678 -0.15300
C 	C 	0.12597 0.70833 0.69429 0.09200
H 	H 	0.12107 0.67973 0.68703 0.03500
C 	C 	0.09597 0.70153 0.71303 -0.20300
C 	C 	0.10087 0.74073 0.72610 0.29600
C 	C 	0.07017 0.72803 0.74473 -0.20600
C 	C 	0.03417 0.67883 0.74848 0.15400
H 	H 	0.01407 0.67103 0.76083 -0.04600
C 	C 	0.02717 0.64153 0.73466 -0.31100
C 	C 	0.05837 0.65383 0.71734 0.15400
H 	H 	0.05407 0.62843 0.70783 -0.03400
C 	C 	0.07387 0.76383 0.75993 0.10200
H 	H 	0.05517 0.75123 0.77273 0.02200
N 	N 	0.09897 0.80983 0.75853 -0.16100
O 	O 	0.09147 0.83263 0.77579 -0.55100
B 	B 	0.11487 0.88613 0.77454 1.60500
O 	O 	0.18477 0.81273 0.64872 -0.51700
N 	N 	0.16717 0.83043 0.66414 -0.16100
C 	C 	0.14557 0.85143 0.65573 0.07100
H 	H 	0.14357 0.85023 0.64053 0.00300
C 	C 	0.12387 0.87673 0.66627 -0.18000
C 	C 	0.12217 0.87883 0.68918 0.25500
C 	C 	0.10197 0.90643 0.69841 -0.17400
C 	C 	0.08917 0.93413 0.68467 0.10100
H 	H 	0.07707 0.95353 0.69093 -0.02100
C 	C 	0.09327 0.93443 0.66252 -0.24300
C 	C 	0.11057 0.90493 0.65354 0.10100
H 	H 	0.11337 0.90413 0.63843 -0.04100
C 	C 	0.09587 0.90943 0.72130 0.08100
H 	H 	0.08097 0.92783 0.72563 0.02900
N 	N 	0.10817 0.89043 0.73623 -0.16000
O 	O 	0.09747 0.90263 0.75603 -0.54200
O 	O 	0.25647 0.82163 0.66875 -0.51000
N 	N 	0.25037 0.84223 0.68638 -0.15000
C 	C 	0.29157 0.87523 0.69392 0.08400
H 	H 	0.32007 0.88103 0.68623 0.03800
C 	C 	0.29907 0.90443 0.71287 -0.19200
C 	C 	0.25957 0.89873 0.72634 0.28300
C 	C 	0.27217 0.93103 0.74426 -0.20700
C 	C 	0.32067 0.96643 0.74761 0.15900
H 	H 	0.32787 0.98783 0.75953 -0.04600
C 	C 	0.35967 0.97273 0.73479 -0.31800
C 	C 	0.34727 0.94093 0.71756 0.15200
H 	H 	0.37287 0.94403 0.70843 -0.03200
C 	C 	0.23637 0.92933 0.75943 0.10400
H 	H 	0.24867 0.95083 0.77143 0.02200
N 	N 	0.19047 0.90223 0.75822 -0.16300
O 	O 	0.16847 0.91083 0.77556 -0.55200
C 	C 	0.09747 0.90173 0.79563 -0.71600
C 	C 	0.05327 0.87163 0.80549 0.40900
H 	H 	0.03277 0.83963 0.79983 -0.10200
C 	C 	0.03747 0.88623 0.82329 -0.30100
H 	H 	0.00637 0.86483 0.82943 0.13900
C 	C 	0.06727 0.93223 0.83203 0.11800
C 	C 	0.11237 0.96243 0.82297 -0.29200
H 	H 	0.13337 0.99383 0.82903 0.13600
C 	C 	0.12727 0.94743 0.80502 0.39000
H 	H 	0.15857 0.96883 0.79893 -0.09800
O 	O 	0.13297 0.78483 0.72244 -0.52900
C 	C 	0.98577 0.58873 0.73873 0.68100
C 	C 	0.97157 0.55463 0.71973 -0.98200
H 	H 	0.00097 0.55613 0.71363 0.31600
H 	H 	0.94867 0.52103 0.72443 0.28200
H 	H 	0.95587 0.56463 0.70883 0.29600
C 	C 	0.94027 0.58583 0.74773 -0.95200
H 	H 	0.94887 0.60773 0.76013 0.28500
H 	H 	0.92467 0.59563 0.73673 0.27900
H 	H 	0.91747 0.55203 0.75223 0.26800
C 	C 	0.00727 0.57173 0.75703 -0.88500
H 	H 	0.03737 0.57293 0.75203 0.27100
H 	H 	0.01467 0.59353 0.76943 0.26900
H 	H 	0.98317 0.53813 0.76123 0.24900
O 	O 	0.14117 0.85933 0.70144 -0.52100
C 	C 	0.08057 0.96623 0.64803 0.55400
C 	C 	0.12167 0.99693 0.63293 -0.82900
H 	H 	0.13047 0.97573 0.62483 0.24000
H 	H 	0.11127 0.01403 0.62303 0.23200
H 	H 	0.15027 0.02093 0.64113 0.24000
C 	C 	0.03537 0.92763 0.63483 -0.77600
H 	H 	0.00837 0.90743 0.64463 0.22500
H 	H 	0.02507 0.94463 0.62483 0.21300
H 	H 	0.04457 0.90663 0.62683 0.22500
C 	C 	0.06567 0.99793 0.66113 -0.81000
H 	H 	0.03877 0.97703 0.67083 0.24200
H 	H 	0.09377 0.02203 0.66953 0.23900
H 	H 	0.05487 0.01513 0.65133 0.22300
O 	O 	0.21497 0.86633 0.72227 -0.52300
C 	C 	0.41237 0.01213 0.74013 0.69100
C 	C 	0.44837 0.02713 0.72233 -1.02400
H 	H 	0.44487 0.99793 0.71513 0.33200
H 	H 	0.44247 0.04713 0.71203 0.30600
H 	H 	0.48167 0.04633 0.72813 0.29500
C 	C 	0.43007 0.98943 0.75753 -0.86200
H 	H 	0.40737 0.97883 0.76973 0.26400
H 	H 	0.43107 0.96113 0.75163 0.26500
H 	H 	0.46297 0.01403 0.76243 0.24000
C 	C 	0.41787 0.05743 0.75123 -0.94200
H 	H 	0.39407 0.04753 0.76293 0.28200
H 	H 	0.45117 0.07663 0.75703 0.26600
H 	H 	0.41197 0.07733 0.74093 0.27500
C 	C 	0.04977 0.94933 0.85090 0.32300
O 	O 	0.00856 0.92013 0.85802 -0.48200
O 	O 	0.07956 0.99113 0.85793 -0.47600
C 	C 	0.23347 0.77573 0.63597 -0.23400
C 	C 	0.27747 0.77473 0.63678 0.11200
H 	H 	0.29627 0.78483 0.64963 -0.00200
C 	C 	0.29467 0.75983 0.61978 -0.10400
H 	H 	0.32457 0.75953 0.62113 0.07300
C 	C 	0.26847 0.74523 0.60065 0.01200
C 	C 	0.22607 0.74813 0.59896 -0.08100
H 	H 	0.20817 0.73963 0.58583 0.05000
C 	C 	0.20987 0.76343 0.61620 0.09200
H 	H 	0.18107 0.76563 0.61453 -0.03100
C 	C 	0.28737 0.72873 0.58233 0.19000
O 	O 	0.32357 0.72423 0.58556 -0.38100
O 	O 	0.26677 0.72163 0.56453 -0.22700
C 	C 	0.22607 0.76683 0.63637 -0.24100
C 	C 	0.22727 0.72293 0.63740 0.08700
H 	H 	0.21797 0.70463 0.65033 0.00600
C 	C 	0.24157 0.70543 0.62023 -0.08200
H 	H 	0.24247 0.67583 0.62153 0.06600
C 	C 	0.25457 0.73153 0.60091 -0.00300
C 	C 	0.25087 0.77323 0.59915 -0.05900
H 	H 	0.25717 0.78973 0.58573 0.04300
C 	C 	0.23807 0.79143 0.61679 0.09400
H 	H 	0.23747 0.82123 0.61543 -0.02900
C 	C 	0.27297 0.71373 0.58283 0.20400
O 	O 	0.27727 0.67733 0.58621 -0.38600
O 	O 	0.28017 0.73433 0.56483 -0.20900
Co	Co	0.84531 0.15455 0.02956 1.14000
Co	Co	0.81362 0.18623 0.06791 1.13900
Zn	Zn	0.73412 0.36709 0.21060 1.22000
B 	B 	0.87803 0.12047 0.99017 1.43200
O 	O 	0.84563 0.07707 0.00192 -0.54300
N 	N 	0.82493 0.08307 0.02012 -0.15300
C 	C 	0.79263 0.04167 0.02763 0.09200
H 	H 	0.78773 0.01307 0.02037 0.03400
C 	C 	0.76263 0.03487 0.04637 -0.20400
C 	C 	0.76753 0.07407 0.05944 0.29600
C 	C 	0.73683 0.06137 0.07807 -0.20600
C 	C 	0.70083 0.01217 0.08182 0.15300
H 	H 	0.68073 0.00437 0.09417 -0.04700
C 	C 	0.69383 0.97487 0.06800 -0.31100
C 	C 	0.72503 0.98717 0.05068 0.15600
H 	H 	0.72073 0.96177 0.04117 -0.03400
C 	C 	0.74053 0.09717 0.09327 0.10200
H 	H 	0.72183 0.08457 0.10607 0.02200
N 	N 	0.76563 0.14317 0.09187 -0.16100
O 	O 	0.75813 0.16597 0.10913 -0.55100
B 	B 	0.78153 0.21947 0.10788 1.60500
O 	O 	0.85143 0.14607 0.98206 -0.51700
N 	N 	0.83383 0.16377 0.99748 -0.16100
C 	C 	0.81223 0.18477 0.98907 0.07200
H 	H 	0.81023 0.18357 0.97387 0.00200
C 	C 	0.79053 0.21007 0.99961 -0.18200
C 	C 	0.78883 0.21217 0.02252 0.25700
C 	C 	0.76863 0.23977 0.03175 -0.17600
C 	C 	0.75583 0.26747 0.01801 0.10600
H 	H 	0.74373 0.28687 0.02427 -0.02400
C 	C 	0.75993 0.26777 0.99586 -0.25200
C 	C 	0.77723 0.23827 0.98688 0.10600
H 	H 	0.78003 0.23747 0.97177 -0.04400
C 	C 	0.76253 0.24277 0.05464 0.08200
H 	H 	0.74763 0.26117 0.05897 0.02900
N 	N 	0.77483 0.22377 0.06957 -0.16000
O 	O 	0.76413 0.23597 0.08937 -0.54200
O 	O 	0.92313 0.15497 0.00209 -0.50900
N 	N 	0.91703 0.17557 0.01972 -0.15000
C 	C 	0.95823 0.20857 0.02726 0.08400
H 	H 	0.98673 0.21437 0.01957 0.03800
C 	C 	0.96573 0.23777 0.04621 -0.19200
C 	C 	0.92623 0.23207 0.05968 0.28400
C 	C 	0.93883 0.26437 0.07760 -0.21000
C 	C 	0.98733 0.29977 0.08095 0.16600
H 	H 	0.99453 0.32117 0.09287 -0.04800
C 	C 	0.02633 0.30607 0.06813 -0.32800
C 	C 	0.01393 0.27427 0.05090 0.15400
H 	H 	0.03953 0.27737 0.04177 -0.03300
C 	C 	0.90303 0.26267 0.09277 0.10500
H 	H 	0.91533 0.28417 0.10477 0.02100
N 	N 	0.85713 0.23557 0.09156 -0.16300
O 	O 	0.83513 0.24417 0.10890 -0.55200
C 	C 	0.76413 0.23507 0.12897 -0.71600
C 	C 	0.71993 0.20497 0.13883 0.40900
H 	H 	0.69943 0.17297 0.13317 -0.10300
C 	C 	0.70413 0.21957 0.15663 -0.30000
H 	H 	0.67303 0.19817 0.16277 0.13900
C 	C 	0.73393 0.26557 0.16537 0.11800
C 	C 	0.77903 0.29577 0.15631 -0.29200
H 	H 	0.80003 0.32717 0.16237 0.13600
C 	C 	0.79393 0.28077 0.13836 0.39000
H 	H 	0.82523 0.30217 0.13227 -0.09800
O 	O 	0.79963 0.11817 0.05578 -0.52900
C 	C 	0.65243 0.92207 0.07207 0.68300
C 	C 	0.63823 0.88797 0.05307 -0.98200
H 	H 	0.66763 0.88947 0.04697 0.31600
H 	H 	0.61533 0.85437 0.05777 0.28300
H 	H 	0.62253 0.89797 0.04217 0.29600
C 	C 	0.60693 0.91917 0.08107 -0.95300
H 	H 	0.61553 0.94107 0.09347 0.28600
H 	H 	0.59133 0.92897 0.07007 0.27900
H 	H 	0.58413 0.88537 0.08557 0.26800
C 	C 	0.67393 0.90507 0.09037 -0.88700
H 	H 	0.70403 0.90627 0.08537 0.27200
H 	H 	0.68133 0.92687 0.10277 0.27000
H 	H 	0.64983 0.87147 0.09457 0.25000
O 	O 	0.80783 0.19267 0.03478 -0.52100
C 	C 	0.74723 0.29957 0.98137 0.57500
C 	C 	0.78833 0.33027 0.96627 -0.86500
H 	H 	0.79713 0.30907 0.95817 0.24900
H 	H 	0.77793 0.34737 0.95637 0.24400
H 	H 	0.81693 0.35427 0.97447 0.25200
C 	C 	0.70203 0.26097 0.96817 -0.79300
H 	H 	0.67503 0.24077 0.97797 0.23000
H 	H 	0.69173 0.27797 0.95817 0.21700
H 	H 	0.71123 0.23997 0.96017 0.22900
C 	C 	0.73233 0.33127 0.99447 -0.84500
H 	H 	0.70543 0.31037 0.00417 0.25200
H 	H 	0.76043 0.35537 0.00287 0.25100
H 	H 	0.72153 0.34847 0.98467 0.23500
O 	O 	0.88163 0.19967 0.05561 -0.52300
C 	C 	0.07903 0.34547 0.07347 0.70400
C 	C 	0.11503 0.36047 0.05567 -1.02600
H 	H 	0.11153 0.33127 0.04847 0.33000
H 	H 	0.10913 0.38047 0.04537 0.30700
H 	H 	0.14833 0.37967 0.06147 0.29600
C 	C 	0.09673 0.32277 0.09087 -0.88400
H 	H 	0.07403 0.31217 0.10307 0.26800
H 	H 	0.09773 0.29447 0.08497 0.27100
H 	H 	0.12963 0.34737 0.09577 0.24700
C 	C 	0.08453 0.39077 0.08457 -0.95300
H 	H 	0.06073 0.38087 0.09627 0.28500
H 	H 	0.11783 0.40997 0.09037 0.26900
H 	H 	0.07863 0.41067 0.07427 0.27800
C 	C 	0.71643 0.28267 0.18424 0.32300
O 	O 	0.67522 0.25347 0.19136 -0.48200
O 	O 	0.74622 0.32447 0.19127 -0.47700
C 	C 	0.90013 0.10907 0.96931 -0.23400
C 	C 	0.94413 0.10807 0.97012 0.11200
H 	H 	0.96293 0.11817 0.98297 -0.00200
C 	C 	0.96133 0.09317 0.95312 -0.10300
H 	H 	0.99123 0.09287 0.95447 0.07300
C 	C 	0.93513 0.07857 0.93399 0.01200
C 	C 	0.89273 0.08147 0.93230 -0.08200
H 	H 	0.87483 0.07297 0.91917 0.05000
C 	C 	0.87653 0.09677 0.94954 0.09100
H 	H 	0.84773 0.09897 0.94787 -0.03000
C 	C 	0.95403 0.06207 0.91567 0.19000
O 	O 	0.99023 0.05757 0.91890 -0.38000
O 	O 	0.93343 0.05497 0.89787 -0.22600
C 	C 	0.89273 0.10017 0.96971 -0.24100
C 	C 	0.89393 0.05627 0.97074 0.08700
H 	H 	0.88463 0.03797 0.98367 0.00600
C 	C 	0.90823 0.03877 0.95357 -0.08200
H 	H 	0.90913 0.00917 0.95487 0.06500
C 	C 	0.92123 0.06487 0.93425 -0.00300
C 	C 	0.91753 0.10657 0.93249 -0.05900
H 	H 	0.92383 0.12307 0.91907 0.04300
C 	C 	0.90473 0.12477 0.95013 0.09400
H 	H 	0.90413 0.15457 0.94877 -0.02900
C 	C 	0.93963 0.04707 0.91617 0.20400
O 	O 	0.94393 0.01067 0.91955 -0.38700
O 	O 	0.94683 0.06767 0.89817 -0.21100
Co	Co	0.51212 0.02410 0.36289 1.14000
Co	Co	0.48044 0.96073 0.40124 1.13900
Zn	Zn	0.29958 0.70037 0.54393 1.22000
B 	B 	0.54620 0.09090 0.32350 1.43200
O 	O 	0.58960 0.10190 0.33525 -0.54300
N 	N 	0.58360 0.07520 0.35345 -0.15300
C 	C 	0.62500 0.08430 0.36096 0.09200
H 	H 	0.65360 0.10800 0.35370 0.03500
C 	C 	0.63180 0.06110 0.37970 -0.20300
C 	C 	0.59260 0.02680 0.39277 0.29600
C 	C 	0.60530 0.00880 0.41140 -0.20700
C 	C 	0.65450 0.02200 0.41515 0.15500
H 	H 	0.66230 0.00970 0.42750 -0.04700
C 	C 	0.69180 0.05230 0.40133 -0.31200
C 	C 	0.67950 0.07120 0.38401 0.15500
H 	H 	0.70490 0.09230 0.37450 -0.03400
C 	C 	0.56950 0.97670 0.42660 0.10200
H 	H 	0.58210 0.97060 0.43940 0.02200
N 	N 	0.52350 0.95580 0.42520 -0.16100
O 	O 	0.50070 0.92550 0.44246 -0.55100
B 	B 	0.44720 0.89540 0.44121 1.60500
O 	O 	0.52060 0.03870 0.31539 -0.51700
N 	N 	0.50290 0.00340 0.33081 -0.16100
C 	C 	0.48190 0.96080 0.32240 0.07200
H 	H 	0.48310 0.96000 0.30720 0.00200
C 	C 	0.45660 0.91380 0.33294 -0.18200
C 	C 	0.45450 0.91000 0.35585 0.25700
C 	C 	0.42690 0.86220 0.36508 -0.17600
C 	C 	0.39920 0.82170 0.35134 0.10600
H 	H 	0.37980 0.79020 0.35760 -0.02400
C 	C 	0.39890 0.82550 0.32919 -0.25100
C 	C 	0.42840 0.87230 0.32021 0.10600
H 	H 	0.42920 0.87590 0.30510 -0.04400
C 	C 	0.42390 0.85310 0.38797 0.08200
H 	H 	0.40550 0.81980 0.39230 0.02900
N 	N 	0.44290 0.88440 0.40290 -0.16000
O 	O 	0.43070 0.86150 0.42270 -0.54300
O 	O 	0.51170 0.10150 0.33542 -0.51000
N 	N 	0.49110 0.07480 0.35305 -0.15000
C 	C 	0.45810 0.08300 0.36059 0.08500
H 	H 	0.45230 0.10570 0.35290 0.03700
C 	C 	0.42890 0.06130 0.37954 -0.19500
C 	C 	0.43460 0.02750 0.39301 0.28500
C 	C 	0.40230 0.00780 0.41093 -0.21000
C 	C 	0.36690 0.02090 0.41428 0.16300
H 	H 	0.34550 0.00670 0.42620 -0.04900
C 	C 	0.36060 0.05360 0.40146 -0.32600
C 	C 	0.39240 0.07300 0.38423 0.15700
H 	H 	0.38930 0.09550 0.37510 -0.03400
C 	C 	0.40400 0.97370 0.42610 0.10500
H 	H 	0.38250 0.96450 0.43810 0.02100
N 	N 	0.43110 0.95490 0.42489 -0.16300
O 	O 	0.42250 0.92430 0.44223 -0.55200
C 	C 	0.43160 0.86240 0.46230 -0.71600
C 	C 	0.46170 0.84830 0.47216 0.40900
H 	H 	0.49370 0.85980 0.46650 -0.10200
C 	C 	0.44710 0.81790 0.48996 -0.30000
H 	H 	0.46850 0.80820 0.49610 0.13900
C 	C 	0.40110 0.80170 0.49870 0.11800
C 	C 	0.37090 0.81660 0.48964 -0.29200
H 	H 	0.33950 0.80620 0.49570 0.13600
C 	C 	0.38590 0.84650 0.47169 0.39000
H 	H 	0.36450 0.85640 0.46560 -0.09800
O 	O 	0.54850 0.01480 0.38911 -0.52900
C 	C 	0.74460 0.06370 0.40540 0.68300
C 	C 	0.77870 0.08360 0.38640 -0.98300
H 	H 	0.77720 0.11150 0.38030 0.31600
H 	H 	0.81230 0.09430 0.39110 0.28300
H 	H 	0.76870 0.05790 0.37550 0.29600
C 	C 	0.74750 0.02110 0.41440 -0.95400
H 	H 	0.72560 0.00780 0.42680 0.28600
H 	H 	0.73770 0.99570 0.40340 0.28000
H 	H 	0.78130 0.03210 0.41890 0.26800
C 	C 	0.76160 0.10220 0.42370 -0.88700
H 	H 	0.76040 0.13110 0.41870 0.27200
H 	H 	0.73980 0.08780 0.43610 0.27000
H 	H 	0.79520 0.11170 0.42790 0.25000
O 	O 	0.47400 0.94850 0.36811 -0.52100
C 	C 	0.36710 0.78100 0.31470 0.57500
C 	C 	0.33640 0.79140 0.29960 -0.86500
H 	H 	0.35760 0.82140 0.29150 0.24900
H 	H 	0.31930 0.76390 0.28970 0.24400
H 	H 	0.31240 0.79600 0.30780 0.25200
C 	C 	0.40570 0.77440 0.30150 -0.79300
H 	H 	0.42590 0.76760 0.31130 0.23000
H 	H 	0.38870 0.74710 0.29150 0.21700
H 	H 	0.42670 0.80460 0.29350 0.22900
C 	C 	0.33540 0.73440 0.32780 -0.84500
H 	H 	0.35630 0.72840 0.33750 0.25100
H 	H 	0.31130 0.73840 0.33620 0.25100
H 	H 	0.31820 0.70640 0.31800 0.23500
O 	O 	0.46700 0.01530 0.38894 -0.52300
C 	C 	0.32120 0.06690 0.40680 0.70400
C 	C 	0.30620 0.08790 0.38900 -1.02600
H 	H 	0.33540 0.11360 0.38180 0.33000
H 	H 	0.28620 0.06200 0.37870 0.30700
H 	H 	0.28700 0.10200 0.39480 0.29600
C 	C 	0.34390 0.10730 0.42420 -0.88400
H 	H 	0.35450 0.09520 0.43640 0.26900
H 	H 	0.37220 0.13660 0.41830 0.27100
H 	H 	0.31930 0.11560 0.42910 0.24800
C 	C 	0.27590 0.02710 0.41790 -0.95300
H 	H 	0.28580 0.01320 0.42960 0.28600
H 	H 	0.25670 0.04120 0.42370 0.26900
H 	H 	0.25600 0.00130 0.40760 0.27800
C 	C 	0.38400 0.76710 0.51757 0.32300
O 	O 	0.41320 0.75509 0.52469 -0.48200
O 	O 	0.34220 0.75509 0.52460 -0.47700
C 	C 	0.55760 0.12440 0.30264 -0.23400
C 	C 	0.55860 0.16940 0.30345 0.11200
H 	H 	0.54850 0.17810 0.31630 -0.00200
C 	C 	0.57350 0.20150 0.28645 -0.10400
H 	H 	0.57380 0.23170 0.28780 0.07300
C 	C 	0.58810 0.18990 0.26732 0.01200
C 	C 	0.58520 0.14460 0.26563 -0.08100
H 	H 	0.59370 0.13520 0.25250 0.05000
C 	C 	0.56990 0.11310 0.28287 0.09200
H 	H 	0.56770 0.08210 0.28120 -0.03100
C 	C 	0.60460 0.22530 0.24900 0.19000
O 	O 	0.60910 0.26600 0.25223 -0.38100
O 	O 	0.61170 0.21180 0.23120 -0.22700
C 	C 	0.56650 0.12590 0.30304 -0.24100
C 	C 	0.61040 0.17100 0.30407 0.08700
H 	H 	0.62870 0.18000 0.31700 0.00600
C 	C 	0.62790 0.20280 0.28690 -0.08200
H 	H 	0.65750 0.23330 0.28820 0.06600
C 	C 	0.60180 0.18970 0.26758 -0.00300
C 	C 	0.56010 0.14430 0.26582 -0.05900
H 	H 	0.54360 0.13410 0.25240 0.04300
C 	C 	0.54190 0.11330 0.28346 0.09400
H 	H 	0.51210 0.08290 0.28210 -0.02900
C 	C 	0.61960 0.22590 0.24950 0.20400
O 	O 	0.65600 0.26660 0.25288 -0.38600
O 	O 	0.59900 0.21250 0.23150 -0.20900
Co	Co	0.17879 0.35743 0.69622 1.14000
Co	Co	0.14711 0.29406 0.73457 1.13800
Zn	Zn	0.96625 0.03370 0.87726 1.21900
B 	B 	0.21287 0.42423 0.65683 1.43200
O 	O 	0.25627 0.43523 0.66858 -0.54300
N 	N 	0.25027 0.40853 0.68678 -0.15300
C 	C 	0.29167 0.41763 0.69429 0.09200
H 	H 	0.32027 0.44133 0.68703 0.03500
C 	C 	0.29847 0.39443 0.71303 -0.20300
C 	C 	0.25927 0.36013 0.72610 0.29600
C 	C 	0.27197 0.34213 0.74473 -0.20600
C 	C 	0.32117 0.35533 0.74848 0.15400
H 	H 	0.32897 0.34303 0.76083 -0.04700
C 	C 	0.35847 0.38563 0.73466 -0.31100
C 	C 	0.34617 0.40453 0.71734 0.15400
H 	H 	0.37157 0.42563 0.70783 -0.03400
C 	C 	0.23617 0.31003 0.75993 0.10200
H 	H 	0.24877 0.30393 0.77273 0.02200
N 	N 	0.19017 0.28913 0.75853 -0.16100
O 	O 	0.16737 0.25883 0.77579 -0.55100
B 	B 	0.11387 0.22873 0.77454 1.60500
O 	O 	0.18727 0.37203 0.64872 -0.51700
N 	N 	0.16957 0.33673 0.66414 -0.16100
C 	C 	0.14857 0.29413 0.65573 0.07200
H 	H 	0.14977 0.29333 0.64053 0.00200
C 	C 	0.12327 0.24713 0.66627 -0.18200
C 	C 	0.12117 0.24333 0.68918 0.25700
C 	C 	0.09357 0.19553 0.69841 -0.17700
C 	C 	0.06587 0.15503 0.68467 0.10600
H 	H 	0.04647 0.12353 0.69093 -0.02400
C 	C 	0.06557 0.15883 0.66252 -0.25100
C 	C 	0.09507 0.20563 0.65354 0.10500
H 	H 	0.09587 0.20923 0.63843 -0.04400
C 	C 	0.09057 0.18643 0.72130 0.08200
H 	H 	0.07217 0.15313 0.72563 0.02800
N 	N 	0.10957 0.21773 0.73623 -0.16000
O 	O 	0.09737 0.19483 0.75603 -0.54300
O 	O 	0.17837 0.43483 0.66875 -0.51000
N 	N 	0.15777 0.40813 0.68638 -0.15000
C 	C 	0.12477 0.41633 0.69392 0.08400
H 	H 	0.11897 0.43903 0.68623 0.03700
C 	C 	0.09557 0.39463 0.71287 -0.19500
C 	C 	0.10127 0.36083 0.72634 0.28400
C 	C 	0.06897 0.34113 0.74426 -0.20900
C 	C 	0.03357 0.35423 0.74761 0.16300
H 	H 	0.01217 0.34003 0.75953 -0.04800
C 	C 	0.02727 0.38693 0.73479 -0.32500
C 	C 	0.05907 0.40633 0.71756 0.15600
H 	H 	0.05597 0.42883 0.70843 -0.03400
C 	C 	0.07067 0.30703 0.75943 0.10500
H 	H 	0.04917 0.29783 0.77143 0.02100
N 	N 	0.09777 0.28823 0.75822 -0.16300
O 	O 	0.08917 0.25763 0.77556 -0.55200
C 	C 	0.09827 0.19573 0.79563 -0.71600
C 	C 	0.12837 0.18163 0.80549 0.40800
H 	H 	0.16037 0.19313 0.79983 -0.10300
C 	C 	0.11377 0.15123 0.82329 -0.30000
H 	H 	0.13517 0.14153 0.82943 0.13800
C 	C 	0.06777 0.13503 0.83203 0.11700
C 	C 	0.03757 0.14993 0.82297 -0.29200
H 	H 	0.00617 0.13953 0.82903 0.13500
C 	C 	0.05257 0.17983 0.80502 0.38900
H 	H 	0.03117 0.18973 0.79893 -0.09800
O 	O 	0.21517 0.34813 0.72244 -0.52900
C 	C 	0.41127 0.39703 0.73873 0.68200
C 	C 	0.44537 0.41693 0.71973 -0.98200
H 	H 	0.44387 0.44483 0.71363 0.31600
H 	H 	0.47897 0.42763 0.72443 0.28200
H 	H 	0.43537 0.39123 0.70883 0.29600
C 	C 	0.41417 0.35443 0.74773 -0.95200
H 	H 	0.39227 0.34113 0.76013 0.28500
H 	H 	0.40437 0.32903 0.73673 0.27900
H 	H 	0.44797 0.36543 0.75223 0.26800
C 	C 	0.42827 0.43553 0.75703 -0.88700
H 	H 	0.42707 0.46443 0.75203 0.27200
H 	H 	0.40647 0.42113 0.76943 0.27000
H 	H 	0.46187 0.44503 0.76123 0.25000
O 	O 	0.14067 0.28183 0.70144 -0.52100
C 	C 	0.03377 0.11433 0.64803 0.57400
C 	C 	0.00307 0.12473 0.63293 -0.86400
H 	H 	0.02427 0.15473 0.62483 0.24900
H 	H 	0.98597 0.09723 0.62303 0.24400
H 	H 	0.97907 0.12933 0.64113 0.25200
C 	C 	0.07237 0.10773 0.63483 -0.79200
H 	H 	0.09257 0.10093 0.64463 0.23000
H 	H 	0.05537 0.08043 0.62483 0.21700
H 	H 	0.09337 0.13793 0.62683 0.22900
C 	C 	0.00207 0.06773 0.66113 -0.84300
H 	H 	0.02297 0.06173 0.67083 0.25100
H 	H 	0.97797 0.07173 0.66953 0.25000
H 	H 	0.98487 0.03973 0.65133 0.23400
O 	O 	0.13367 0.34863 0.72227 -0.52300
C 	C 	0.98787 0.40023 0.74013 0.70300
C 	C 	0.97287 0.42123 0.72233 -1.02600
H 	H 	0.00207 0.44693 0.71513 0.33100
H 	H 	0.95287 0.39533 0.71203 0.30700
H 	H 	0.95367 0.43533 0.72813 0.29600
C 	C 	0.01057 0.44063 0.75753 -0.88300
H 	H 	0.02117 0.42853 0.76973 0.26900
H 	H 	0.03887 0.46993 0.75163 0.27100
H 	H 	0.98597 0.44893 0.76243 0.24700
C 	C 	0.94257 0.36043 0.75123 -0.95300
H 	H 	0.95247 0.34653 0.76293 0.28600
H 	H 	0.92337 0.37453 0.75703 0.26900
H 	H 	0.92267 0.33463 0.74093 0.27800
C 	C 	0.05067 0.10043 0.85090 0.32300
O 	O 	0.07987 0.08842 0.85802 -0.48300
O 	O 	0.00887 0.08842 0.85793 -0.47800
C 	C 	0.22427 0.45773 0.63597 -0.23400
C 	C 	0.22527 0.50273 0.63678 0.11200
H 	H 	0.21517 0.51143 0.64963 -0.00200
C 	C 	0.24017 0.53483 0.61978 -0.10400
H 	H 	0.24047 0.56503 0.62113 0.07300
C 	C 	0.25477 0.52323 0.60065 0.01200
C 	C 	0.25187 0.47793 0.59896 -0.08100
H 	H 	0.26037 0.46853 0.58583 0.05000
C 	C 	0.23657 0.44643 0.61620 0.09200
H 	H 	0.23437 0.41543 0.61453 -0.03100
C 	C 	0.27127 0.55863 0.58233 0.19000
O 	O 	0.27577 0.59933 0.58556 -0.38100
O 	O 	0.27837 0.54513 0.56453 -0.22700
C 	C 	0.23317 0.45923 0.63637 -0.24100
C 	C 	0.27707 0.50433 0.63740 0.08700
H 	H 	0.29537 0.51333 0.65033 0.00600
C 	C 	0.29457 0.53613 0.62023 -0.08200
H 	H 	0.32417 0.56663 0.62153 0.06600
C 	C 	0.26847 0.52303 0.60091 -0.00300
C 	C 	0.22677 0.47763 0.59915 -0.05900
H 	H 	0.21027 0.46743 0.58573 0.04300
C 	C 	0.20857 0.44663 0.61679 0.09400
H 	H 	0.17877 0.41623 0.61543 -0.02900
C 	C 	0.28627 0.55923 0.58283 0.20400
O 	O 	0.32267 0.59993 0.58621 -0.38600
O 	O 	0.26567 0.54583 0.56483 -0.20900
Co	Co	0.84545 0.69077 0.02956 1.14000
Co	Co	0.81377 0.62740 0.06791 1.13900
Zn	Zn	0.63291 0.36704 0.21060 1.22000
B 	B 	0.87953 0.75757 0.99017 1.43200
O 	O 	0.92293 0.76857 0.00192 -0.54300
N 	N 	0.91693 0.74187 0.02012 -0.15300
C 	C 	0.95833 0.75097 0.02763 0.09100
H 	H 	0.98693 0.77467 0.02037 0.03600
C 	C 	0.96513 0.72777 0.04637 -0.20000
C 	C 	0.92593 0.69347 0.05944 0.29500
C 	C 	0.93863 0.67547 0.07807 -0.20600
C 	C 	0.98783 0.68867 0.08182 0.15700
H 	H 	0.99563 0.67637 0.09417 -0.04700
C 	C 	0.02513 0.71897 0.06800 -0.31300
C 	C 	0.01283 0.73787 0.05068 0.15200
H 	H 	0.03823 0.75897 0.04117 -0.03300
C 	C 	0.90283 0.64337 0.09327 0.10200
H 	H 	0.91543 0.63727 0.10607 0.02200
N 	N 	0.85683 0.62247 0.09187 -0.16100
O 	O 	0.83403 0.59217 0.10913 -0.55100
B 	B 	0.78053 0.56207 0.10788 1.60500
O 	O 	0.85393 0.70537 0.98206 -0.51700
N 	N 	0.83623 0.67007 0.99748 -0.16100
C 	C 	0.81523 0.62747 0.98907 0.07200
H 	H 	0.81643 0.62667 0.97387 0.00200
C 	C 	0.78993 0.58047 0.99961 -0.18200
C 	C 	0.78783 0.57667 0.02252 0.25700
C 	C 	0.76023 0.52887 0.03175 -0.17600
C 	C 	0.73253 0.48837 0.01801 0.10600
H 	H 	0.71313 0.45687 0.02427 -0.02400
C 	C 	0.73223 0.49217 0.99586 -0.25200
C 	C 	0.76173 0.53897 0.98688 0.10600
H 	H 	0.76253 0.54257 0.97177 -0.04400
C 	C 	0.75723 0.51977 0.05464 0.08200
H 	H 	0.73883 0.48647 0.05897 0.02900
N 	N 	0.77623 0.55107 0.06957 -0.16000
O 	O 	0.76403 0.52817 0.08937 -0.54200
O 	O 	0.84503 0.76817 0.00209 -0.51000
N 	N 	0.82443 0.74147 0.01972 -0.15000
C 	C 	0.79143 0.74967 0.02726 0.08500
H 	H 	0.78563 0.77237 0.01957 0.03700
C 	C 	0.76223 0.72797 0.04621 -0.19500
C 	C 	0.76793 0.69417 0.05968 0.28400
C 	C 	0.73563 0.67447 0.07760 -0.21000
C 	C 	0.70023 0.68757 0.08095 0.16300
H 	H 	0.67883 0.67337 0.09287 -0.04800
C 	C 	0.69393 0.72027 0.06813 -0.32600
C 	C 	0.72573 0.73967 0.05090 0.15700
H 	H 	0.72263 0.76217 0.04177 -0.03400
C 	C 	0.73733 0.64037 0.09277 0.10500
H 	H 	0.71583 0.63117 0.10477 0.02100
N 	N 	0.76443 0.62157 0.09156 -0.16300
O 	O 	0.75583 0.59097 0.10890 -0.55200
C 	C 	0.76493 0.52907 0.12897 -0.71600
C 	C 	0.79503 0.51497 0.13883 0.40900
H 	H 	0.82703 0.52647 0.13317 -0.10200
C 	C 	0.78043 0.48457 0.15663 -0.30000
H 	H 	0.80183 0.47487 0.16277 0.13900
C 	C 	0.73443 0.46837 0.16537 0.11800
C 	C 	0.70423 0.48327 0.15631 -0.29200
H 	H 	0.67283 0.47287 0.16237 0.13500
C 	C 	0.71923 0.51317 0.13836 0.39000
H 	H 	0.69783 0.52307 0.13227 -0.09800
O 	O 	0.88183 0.68147 0.05578 -0.52800
C 	C 	0.07793 0.73037 0.07207 0.68200
C 	C 	0.11203 0.75027 0.05307 -0.98200
H 	H 	0.11053 0.77817 0.04697 0.31500
H 	H 	0.14563 0.76097 0.05777 0.28200
H 	H 	0.10203 0.72457 0.04217 0.29600
C 	C 	0.08083 0.68777 0.08107 -0.95200
H 	H 	0.05893 0.67447 0.09347 0.28400
H 	H 	0.07103 0.66237 0.07007 0.27800
H 	H 	0.11463 0.69877 0.08557 0.26800
C 	C 	0.09493 0.76887 0.09037 -0.88600
H 	H 	0.09373 0.79777 0.08537 0.27100
H 	H 	0.07313 0.75447 0.10277 0.26900
H 	H 	0.12853 0.77837 0.09457 0.24900
O 	O 	0.80733 0.61517 0.03478 -0.52100
C 	C 	0.70043 0.44767 0.98137 0.57500
C 	C 	0.66973 0.45807 0.96627 -0.86500
H 	H 	0.69093 0.48807 0.95817 0.24900
H 	H 	0.65263 0.43057 0.95637 0.24400
H 	H 	0.64573 0.46267 0.97447 0.25200
C 	C 	0.73903 0.44107 0.96817 -0.79300
H 	H 	0.75923 0.43427 0.97797 0.23000
H 	H 	0.72203 0.41377 0.95817 0.21700
H 	H 	0.76003 0.47127 0.96017 0.23000
C 	C 	0.66873 0.40107 0.99447 -0.84500
H 	H 	0.68963 0.39507 0.00417 0.25200
H 	H 	0.64463 0.40507 0.00287 0.25100
H 	H 	0.65153 0.37307 0.98467 0.23500
O 	O 	0.80033 0.68197 0.05561 -0.52300
C 	C 	0.65453 0.73357 0.07347 0.70500
C 	C 	0.63953 0.75457 0.05567 -1.02600
H 	H 	0.66873 0.78027 0.04847 0.33100
H 	H 	0.61953 0.72867 0.04537 0.30700
H 	H 	0.62033 0.76867 0.06147 0.29600
C 	C 	0.67723 0.77397 0.09087 -0.88500
H 	H 	0.68783 0.76187 0.10307 0.26900
H 	H 	0.70553 0.80327 0.08497 0.27100
H 	H 	0.65263 0.78227 0.09577 0.24800
C 	C 	0.60923 0.69377 0.08457 -0.95400
H 	H 	0.61913 0.67987 0.09627 0.28600
H 	H 	0.59003 0.70787 0.09037 0.26900
H 	H 	0.58933 0.66797 0.07427 0.27900
C 	C 	0.71733 0.43377 0.18424 0.32300
O 	O 	0.74653 0.42176 0.19136 -0.48200
O 	O 	0.67553 0.42176 0.19127 -0.47700
C 	C 	0.89093 0.79107 0.96931 -0.23400
C 	C 	0.89193 0.83607 0.97012 0.11200
H 	H 	0.88183 0.84477 0.98297 -0.00200
C 	C 	0.90683 0.86817 0.95312 -0.10400
H 	H 	0.90713 0.89837 0.95447 0.07300
C 	C 	0.92143 0.85657 0.93399 0.01200
C 	C 	0.91853 0.81127 0.93230 -0.08100
H 	H 	0.92703 0.80187 0.91917 0.05000
C 	C 	0.90323 0.77977 0.94954 0.09200
H 	H 	0.90103 0.74877 0.94787 -0.03100
C 	C 	0.93793 0.89197 0.91567 0.19000
O 	O 	0.94243 0.93267 0.91890 -0.38000
O 	O 	0.94503 0.87847 0.89787 -0.22700
C 	C 	0.89983 0.79257 0.96971 -0.24100
C 	C 	0.94373 0.83767 0.97074 0.08700
H 	H 	0.96203 0.84667 0.98367 0.00600
C 	C 	0.96123 0.86947 0.95357 -0.08200
H 	H 	0.99083 0.89997 0.95487 0.06600
C 	C 	0.93513 0.85637 0.93425 -0.00300
C 	C 	0.89343 0.81097 0.93249 -0.05900
H 	H 	0.87693 0.80077 0.91907 0.04400
C 	C 	0.87523 0.77997 0.95013 0.09300
H 	H 	0.84543 0.74957 0.94877 -0.02900
C 	C 	0.95293 0.89257 0.91617 0.20300
O 	O 	0.98933 0.93327 0.91955 -0.38500
O 	O 	0.93233 0.87917 0.89817 -0.20900
Co	Co	0.97590 0.48802 0.36289 1.14100
Co	Co	0.03927 0.51971 0.40124 1.13800
Zn	Zn	0.29963 0.59921 0.54393 1.22000
B 	B 	0.90910 0.45530 0.32350 1.43200
O 	O 	0.89810 0.48770 0.33525 -0.54300
N 	N 	0.92480 0.50840 0.35345 -0.15300
C 	C 	0.91570 0.54070 0.36096 0.09200
H 	H 	0.89200 0.54560 0.35370 0.03500
C 	C 	0.93890 0.57070 0.37970 -0.20100
C 	C 	0.97320 0.56580 0.39277 0.29400
C 	C 	0.99120 0.59650 0.41140 -0.20200
C 	C 	0.97800 0.63250 0.41515 0.15200
H 	H 	0.99030 0.65260 0.42750 -0.04500
C 	C 	0.94770 0.63950 0.40133 -0.30900
C 	C 	0.92880 0.60830 0.38401 0.15300
H 	H 	0.90770 0.61260 0.37450 -0.03300
C 	C 	0.02330 0.59280 0.42660 0.09800
H 	H 	0.02940 0.61150 0.43940 0.02300
N 	N 	0.04420 0.56770 0.42520 -0.16100
O 	O 	0.07450 0.57520 0.44246 -0.55100
B 	B 	0.10460 0.55180 0.44121 1.60400
O 	O 	0.96130 0.48190 0.31539 -0.51700
N 	N 	0.99660 0.49950 0.33081 -0.15900
C 	C 	0.03920 0.52110 0.32240 0.06800
H 	H 	0.04000 0.52310 0.30720 0.00300
C 	C 	0.08620 0.54280 0.33294 -0.18100
C 	C 	0.09000 0.54450 0.35585 0.25600
C 	C 	0.13780 0.56470 0.36508 -0.17600
C 	C 	0.17830 0.57750 0.35134 0.10600
H 	H 	0.20980 0.58960 0.35760 -0.02300
C 	C 	0.17450 0.57340 0.32919 -0.25100
C 	C 	0.12770 0.55610 0.32021 0.10500
H 	H 	0.12410 0.55330 0.30510 -0.04300
C 	C 	0.14690 0.57080 0.38797 0.08200
H 	H 	0.18020 0.58570 0.39230 0.02900
N 	N 	0.11560 0.55850 0.40290 -0.16000
O 	O 	0.13850 0.56920 0.42270 -0.54300
O 	O 	0.89850 0.41020 0.33542 -0.51000
N 	N 	0.92520 0.41630 0.35305 -0.15000
C 	C 	0.91700 0.37510 0.36059 0.08400
H 	H 	0.89430 0.34660 0.35290 0.03800
C 	C 	0.93870 0.36760 0.37954 -0.19400
C 	C 	0.97250 0.40710 0.39301 0.28300
C 	C 	0.99220 0.39450 0.41093 -0.20600
C 	C 	0.97910 0.34600 0.41428 0.16100
H 	H 	0.99330 0.33880 0.42620 -0.04700
C 	C 	0.94640 0.30700 0.40146 -0.32500
C 	C 	0.92700 0.31940 0.38423 0.15600
H 	H 	0.90450 0.29380 0.37510 -0.03400
C 	C 	0.02630 0.43030 0.42610 0.10100
H 	H 	0.03550 0.41800 0.43810 0.02100
N 	N 	0.04510 0.47620 0.42489 -0.16300
O 	O 	0.07570 0.49820 0.44223 -0.55200
C 	C 	0.13760 0.56920 0.46230 -0.71600
C 	C 	0.15170 0.61340 0.47216 0.40900
H 	H 	0.14020 0.63390 0.46650 -0.10300
C 	C 	0.18210 0.62920 0.48996 -0.30100
H 	H 	0.19180 0.66030 0.49610 0.13900
C 	C 	0.19830 0.59940 0.49870 0.11800
C 	C 	0.18340 0.55430 0.48964 -0.29200
H 	H 	0.19380 0.53330 0.49570 0.13500
C 	C 	0.15350 0.53940 0.47169 0.39000
H 	H 	0.14360 0.50810 0.46560 -0.09800
O 	O 	0.98520 0.53370 0.38911 -0.52700
C 	C 	0.93630 0.68090 0.40540 0.67800
C 	C 	0.91640 0.69510 0.38640 -0.97900
H 	H 	0.88850 0.66570 0.38030 0.31500
H 	H 	0.90570 0.71800 0.39110 0.28200
H 	H 	0.94210 0.71080 0.37550 0.29600
C 	C 	0.97890 0.72640 0.41440 -0.94300
H 	H 	0.99220 0.71780 0.42680 0.28300
H 	H 	0.00430 0.74200 0.40340 0.27500
H 	H 	0.96790 0.74920 0.41890 0.26600
C 	C 	0.89780 0.65940 0.42370 -0.88400
H 	H 	0.86890 0.62930 0.41870 0.27100
H 	H 	0.91220 0.65200 0.43610 0.26900
H 	H 	0.88830 0.68350 0.42790 0.24900
O 	O 	0.05150 0.52550 0.36811 -0.52200
C 	C 	0.21900 0.58610 0.31470 0.57500
C 	C 	0.20860 0.54500 0.29960 -0.86400
H 	H 	0.17860 0.53620 0.29150 0.24900
H 	H 	0.23610 0.55540 0.28970 0.24400
H 	H 	0.20400 0.51640 0.30780 0.25200
C 	C 	0.22560 0.63130 0.30150 -0.79200
H 	H 	0.23240 0.65830 0.31130 0.23000
H 	H 	0.25290 0.64160 0.29150 0.21700
H 	H 	0.19540 0.62210 0.29350 0.22900
C 	C 	0.26560 0.60100 0.32780 -0.84500
H 	H 	0.27160 0.62790 0.33750 0.25100
H 	H 	0.26160 0.57290 0.33620 0.25100
H 	H 	0.29360 0.61180 0.31800 0.23500
O 	O 	0.98470 0.45170 0.38894 -0.52200
C 	C 	0.93310 0.25430 0.40680 0.70500
C 	C 	0.91210 0.21830 0.38900 -1.02700
H 	H 	0.88640 0.22180 0.38180 0.33100
H 	H 	0.93800 0.22420 0.37870 0.30800
H 	H 	0.89800 0.18500 0.39480 0.29600
C 	C 	0.89270 0.23660 0.42420 -0.88500
H 	H 	0.90480 0.25930 0.43640 0.26900
H 	H 	0.86340 0.23560 0.41830 0.27100
H 	H 	0.88440 0.20370 0.42910 0.24800
C 	C 	0.97290 0.24880 0.41790 -0.95400
H 	H 	0.98680 0.27260 0.42960 0.28700
H 	H 	0.95880 0.21550 0.42370 0.27000
H 	H 	0.99870 0.25470 0.40760 0.27900
C 	C 	0.23290 0.61690 0.51757 0.32300
O 	O 	0.24491 0.65811 0.52469 -0.48200
O 	O 	0.24491 0.58711 0.52460 -0.47700
C 	C 	0.87560 0.43320 0.30264 -0.23400
C 	C 	0.83060 0.38920 0.30345 0.11200
H 	H 	0.82190 0.37040 0.31630 -0.00200
C 	C 	0.79850 0.37200 0.28645 -0.10400
H 	H 	0.76830 0.34210 0.28780 0.07300
C 	C 	0.81010 0.39820 0.26732 0.01200
C 	C 	0.85540 0.44060 0.26563 -0.08100
H 	H 	0.86480 0.45850 0.25250 0.05000
C 	C 	0.88690 0.45680 0.28287 0.09200
H 	H 	0.91790 0.48560 0.28120 -0.03000
C 	C 	0.77470 0.37930 0.24900 0.19000
O 	O 	0.73400 0.34310 0.25223 -0.38100
O 	O 	0.78820 0.39990 0.23120 -0.22700
C 	C 	0.87410 0.44060 0.30304 -0.24100
C 	C 	0.82900 0.43940 0.30407 0.08700
H 	H 	0.82000 0.44870 0.31700 0.00600
C 	C 	0.79720 0.42510 0.28690 -0.08200
H 	H 	0.76670 0.42420 0.28820 0.06600
C 	C 	0.81030 0.41210 0.26758 -0.00300
C 	C 	0.85570 0.41580 0.26582 -0.05900
H 	H 	0.86590 0.40950 0.25240 0.04400
C 	C 	0.88670 0.42860 0.28346 0.09400
H 	H 	0.91710 0.42920 0.28210 -0.02900
C 	C 	0.77410 0.39370 0.24950 0.20400
O 	O 	0.73340 0.38940 0.25288 -0.38600
O 	O 	0.78750 0.38650 0.23150 -0.20900
Co	Co	0.64257 0.82135 0.69622 1.14000
Co	Co	0.70594 0.85304 0.73457 1.13800
Zn	Zn	0.96630 0.93254 0.87726 1.22000
B 	B 	0.57577 0.78863 0.65683 1.43200
O 	O 	0.56477 0.82103 0.66858 -0.54300
N 	N 	0.59147 0.84173 0.68678 -0.15300
C 	C 	0.58237 0.87403 0.69429 0.09100
H 	H 	0.55867 0.87893 0.68703 0.03500
C 	C 	0.60557 0.90403 0.71303 -0.20100
C 	C 	0.63987 0.89913 0.72610 0.29400
C 	C 	0.65787 0.92983 0.74473 -0.20300
C 	C 	0.64467 0.96583 0.74848 0.15000
H 	H 	0.65697 0.98593 0.76083 -0.04400
C 	C 	0.61437 0.97283 0.73466 -0.30300
C 	C 	0.59547 0.94163 0.71734 0.15000
H 	H 	0.57437 0.94593 0.70783 -0.03200
C 	C 	0.68997 0.92613 0.75993 0.10100
H 	H 	0.69607 0.94483 0.77273 0.02300
N 	N 	0.71087 0.90103 0.75853 -0.16100
O 	O 	0.74117 0.90853 0.77579 -0.55100
B 	B 	0.77127 0.88513 0.77454 1.60500
O 	O 	0.62797 0.81523 0.64872 -0.51700
N 	N 	0.66327 0.83283 0.66414 -0.16100
C 	C 	0.70587 0.85443 0.65573 0.07200
H 	H 	0.70667 0.85643 0.64053 0.00200
C 	C 	0.75287 0.87613 0.66627 -0.18200
C 	C 	0.75667 0.87783 0.68918 0.25700
C 	C 	0.80447 0.89803 0.69841 -0.17700
C 	C 	0.84497 0.91083 0.68467 0.10600
H 	H 	0.87647 0.92293 0.69093 -0.02300
C 	C 	0.84117 0.90673 0.66252 -0.25200
C 	C 	0.79437 0.88943 0.65354 0.10600
H 	H 	0.79077 0.88663 0.63843 -0.04400
C 	C 	0.81357 0.90413 0.72130 0.08200
H 	H 	0.84687 0.91903 0.72563 0.02900
N 	N 	0.78227 0.89183 0.73623 -0.16000
O 	O 	0.80517 0.90253 0.75603 -0.54200
O 	O 	0.56517 0.74353 0.66875 -0.51000
N 	N 	0.59187 0.74963 0.68638 -0.15000
C 	C 	0.58367 0.70843 0.69392 0.08400
H 	H 	0.56097 0.67993 0.68623 0.03700
C 	C 	0.60537 0.70093 0.71287 -0.19500
C 	C 	0.63917 0.74043 0.72634 0.28400
C 	C 	0.65887 0.72783 0.74426 -0.21000
C 	C 	0.64577 0.67933 0.74761 0.16300
H 	H 	0.65997 0.67213 0.75953 -0.04800
C 	C 	0.61307 0.64033 0.73479 -0.32600
C 	C 	0.59367 0.65273 0.71756 0.15700
H 	H 	0.57117 0.62713 0.70843 -0.03400
C 	C 	0.69297 0.76363 0.75943 0.10500
H 	H 	0.70217 0.75133 0.77143 0.02100
N 	N 	0.71177 0.80953 0.75822 -0.16300
O 	O 	0.74237 0.83153 0.77556 -0.55200
C 	C 	0.80427 0.90253 0.79563 -0.71600
C 	C 	0.81837 0.94673 0.80549 0.40900
H 	H 	0.80687 0.96723 0.79983 -0.10200
C 	C 	0.84877 0.96253 0.82329 -0.30100
H 	H 	0.85847 0.99363 0.82943 0.13900
C 	C 	0.86497 0.93273 0.83203 0.11800
C 	C 	0.85007 0.88763 0.82297 -0.29200
H 	H 	0.86047 0.86663 0.82903 0.13600
C 	C 	0.82017 0.87273 0.80502 0.39000
H 	H 	0.81027 0.84143 0.79893 -0.09800
O 	O 	0.65187 0.86703 0.72244 -0.52800
C 	C 	0.60297 0.01423 0.73873 0.66900
C 	C 	0.58307 0.02843 0.71973 -0.98000
H 	H 	0.55517 0.99903 0.71363 0.31700
H 	H 	0.57237 0.05133 0.72443 0.28200
H 	H 	0.60877 0.04413 0.70883 0.29500
C 	C 	0.64557 0.05973 0.74773 -0.94100
H 	H 	0.65887 0.05113 0.76013 0.28100
H 	H 	0.67097 0.07533 0.73673 0.27500
H 	H 	0.63457 0.08253 0.75223 0.26500
C 	C 	0.56447 0.99273 0.75703 -0.86500
H 	H 	0.53557 0.96263 0.75203 0.26600
H 	H 	0.57887 0.98533 0.76943 0.26400
H 	H 	0.55497 0.01683 0.76123 0.24200
O 	O 	0.71817 0.85883 0.70144 -0.52100
C 	C 	0.88567 0.91943 0.64803 0.57700
C 	C 	0.87527 0.87833 0.63293 -0.86700
H 	H 	0.84527 0.86953 0.62483 0.25000
H 	H 	0.90277 0.88873 0.62303 0.24500
H 	H 	0.87067 0.84973 0.64113 0.25300
C 	C 	0.89227 0.96463 0.63483 -0.79600
H 	H 	0.89907 0.99163 0.64463 0.23200
H 	H 	0.91957 0.97493 0.62483 0.21900
H 	H 	0.86207 0.95543 0.62683 0.23100
C 	C 	0.93227 0.93433 0.66113 -0.84800
H 	H 	0.93827 0.96123 0.67083 0.25300
H 	H 	0.92827 0.90623 0.66953 0.25200
H 	H 	0.96027 0.94513 0.65133 0.23700
O 	O 	0.65137 0.78503 0.72227 -0.52300
C 	C 	0.59977 0.58763 0.74013 0.70500
C 	C 	0.57877 0.55163 0.72233 -1.02600
H 	H 	0.55307 0.55513 0.71513 0.33100
H 	H 	0.60467 0.55753 0.71203 0.30800
H 	H 	0.56467 0.51833 0.72813 0.29600
C 	C 	0.55937 0.56993 0.75753 -0.88500
H 	H 	0.57147 0.59263 0.76973 0.26900
H 	H 	0.53007 0.56893 0.75163 0.27100
H 	H 	0.55107 0.53703 0.76243 0.24800
C 	C 	0.63957 0.58213 0.75123 -0.95400
H 	H 	0.65347 0.60593 0.76293 0.28600
H 	H 	0.62547 0.54883 0.75703 0.26900
H 	H 	0.66537 0.58803 0.74093 0.27900
C 	C 	0.89957 0.95023 0.85090 0.32300
O 	O 	0.91158 0.99144 0.85802 -0.48100
O 	O 	0.91158 0.92044 0.85793 -0.47700
C 	C 	0.54227 0.76653 0.63597 -0.23400
C 	C 	0.49727 0.72253 0.63678 0.11200
H 	H 	0.48857 0.70373 0.64963 -0.00200
C 	C 	0.46517 0.70533 0.61978 -0.10400
H 	H 	0.43497 0.67543 0.62113 0.07300
C 	C 	0.47677 0.73153 0.60065 0.01200
C 	C 	0.52207 0.77393 0.59896 -0.08100
H 	H 	0.53147 0.79183 0.58583 0.05000
C 	C 	0.55357 0.79013 0.61620 0.09200
H 	H 	0.58457 0.81893 0.61453 -0.03100
C 	C 	0.44137 0.71263 0.58233 0.19000
O 	O 	0.40067 0.67643 0.58556 -0.38100
O 	O 	0.45487 0.73323 0.56453 -0.22700
C 	C 	0.54077 0.77393 0.63637 -0.24100
C 	C 	0.49567 0.77273 0.63740 0.08700
H 	H 	0.48667 0.78203 0.65033 0.00600
C 	C 	0.46387 0.75843 0.62023 -0.08200
H 	H 	0.43337 0.75753 0.62153 0.06600
C 	C 	0.47697 0.74543 0.60091 -0.00300
C 	C 	0.52237 0.74913 0.59915 -0.05900
H 	H 	0.53257 0.74283 0.58573 0.04300
C 	C 	0.55337 0.76193 0.61679 0.09400
H 	H 	0.58377 0.76253 0.61543 -0.02900
C 	C 	0.44077 0.72703 0.58283 0.20400
O 	O 	0.40007 0.72273 0.58621 -0.38600
O 	O 	0.45417 0.71983 0.56483 -0.20900
Co	Co	0.30923 0.15469 0.02956 1.14000
Co	Co	0.37260 0.18638 0.06791 1.13800
Zn	Zn	0.63296 0.26588 0.21060 1.22000
B 	B 	0.24243 0.12197 0.99017 1.43200
O 	O 	0.23143 0.15437 0.00192 -0.54300
N 	N 	0.25813 0.17507 0.02012 -0.15300
C 	C 	0.24903 0.20737 0.02763 0.09200
H 	H 	0.22533 0.21227 0.02037 0.03500
C 	C 	0.27223 0.23737 0.04637 -0.20300
C 	C 	0.30653 0.23247 0.05944 0.29600
C 	C 	0.32453 0.26317 0.07807 -0.20600
C 	C 	0.31133 0.29917 0.08182 0.15400
H 	H 	0.32363 0.31927 0.09417 -0.04700
C 	C 	0.28103 0.30617 0.06800 -0.31100
C 	C 	0.26213 0.27497 0.05068 0.15500
H 	H 	0.24103 0.27927 0.04117 -0.03400
C 	C 	0.35663 0.25947 0.09327 0.10200
H 	H 	0.36273 0.27817 0.10607 0.02200
N 	N 	0.37753 0.23437 0.09187 -0.16100
O 	O 	0.40783 0.24187 0.10913 -0.55100
B 	B 	0.43793 0.21847 0.10788 1.60500
O 	O 	0.29463 0.14857 0.98206 -0.51700
N 	N 	0.32993 0.16617 0.99748 -0.16100
C 	C 	0.37253 0.18777 0.98907 0.07200
H 	H 	0.37333 0.18977 0.97387 0.00200
C 	C 	0.41953 0.20947 0.99961 -0.18200
C 	C 	0.42333 0.21117 0.02252 0.25700
C 	C 	0.47113 0.23137 0.03175 -0.17600
C 	C 	0.51163 0.24417 0.01801 0.10600
H 	H 	0.54313 0.25627 0.02427 -0.02400
C 	C 	0.50783 0.24007 0.99586 -0.25100
C 	C 	0.46103 0.22277 0.98688 0.10600
H 	H 	0.45743 0.21997 0.97177 -0.04400
C 	C 	0.48023 0.23747 0.05464 0.08200
H 	H 	0.51353 0.25237 0.05897 0.02900
N 	N 	0.44893 0.22517 0.06957 -0.16000
O 	O 	0.47183 0.23587 0.08937 -0.54300
O 	O 	0.23183 0.07687 0.00209 -0.51000
N 	N 	0.25853 0.08297 0.01972 -0.15000
C 	C 	0.25033 0.04177 0.02726 0.08500
H 	H 	0.22763 0.01327 0.01957 0.03700
C 	C 	0.27203 0.03427 0.04621 -0.19600
C 	C 	0.30583 0.07377 0.05968 0.28500
C 	C 	0.32553 0.06117 0.07760 -0.21000
C 	C 	0.31243 0.01267 0.08095 0.16200
H 	H 	0.32663 0.00547 0.09287 -0.04800
C 	C 	0.27973 0.97367 0.06813 -0.32500
C 	C 	0.26033 0.98607 0.05090 0.15800
H 	H 	0.23783 0.96047 0.04177 -0.03400
C 	C 	0.35963 0.09697 0.09277 0.10500
H 	H 	0.36883 0.08467 0.10477 0.02100
N 	N 	0.37843 0.14287 0.09156 -0.16300
O 	O 	0.40903 0.16487 0.10890 -0.55200
C 	C 	0.47093 0.23587 0.12897 -0.71600
C 	C 	0.48503 0.28007 0.13883 0.40900
H 	H 	0.47353 0.30057 0.13317 -0.10300
C 	C 	0.51543 0.29587 0.15663 -0.30000
H 	H 	0.52513 0.32697 0.16277 0.13900
C 	C 	0.53163 0.26607 0.16537 0.11800
C 	C 	0.51673 0.22097 0.15631 -0.29200
H 	H 	0.52713 0.19997 0.16237 0.13500
C 	C 	0.48683 0.20607 0.13836 0.39000
H 	H 	0.47693 0.17477 0.13227 -0.09800
O 	O 	0.31853 0.20037 0.05578 -0.52900
C 	C 	0.26963 0.34757 0.07207 0.68200
C 	C 	0.24973 0.36177 0.05307 -0.98200
H 	H 	0.22183 0.33237 0.04697 0.31600
H 	H 	0.23903 0.38467 0.05777 0.28200
H 	H 	0.27543 0.37747 0.04217 0.29600
C 	C 	0.31223 0.39307 0.08107 -0.95200
H 	H 	0.32553 0.38447 0.09347 0.28500
H 	H 	0.33763 0.40867 0.07007 0.27900
H 	H 	0.30123 0.41587 0.08557 0.26800
C 	C 	0.23113 0.32607 0.09037 -0.88700
H 	H 	0.20223 0.29597 0.08537 0.27200
H 	H 	0.24553 0.31867 0.10277 0.26900
H 	H 	0.22163 0.35017 0.09457 0.24900
O 	O 	0.38483 0.19217 0.03478 -0.52100
C 	C 	0.55233 0.25277 0.98137 0.57500
C 	C 	0.54193 0.21167 0.96627 -0.86500
H 	H 	0.51193 0.20287 0.95817 0.24900
H 	H 	0.56943 0.22207 0.95637 0.24400
H 	H 	0.53733 0.18307 0.97447 0.25200
C 	C 	0.55893 0.29797 0.96817 -0.79200
H 	H 	0.56573 0.32497 0.97797 0.23000
H 	H 	0.58623 0.30827 0.95817 0.21700
H 	H 	0.52873 0.28877 0.96017 0.22900
C 	C 	0.59893 0.26767 0.99447 -0.84500
H 	H 	0.60493 0.29457 0.00417 0.25100
H 	H 	0.59493 0.23957 0.00287 0.25100
H 	H 	0.62693 0.27847 0.98467 0.23500
O 	O 	0.31803 0.11837 0.05561 -0.52300
C 	C 	0.26643 0.92097 0.07347 0.70500
C 	C 	0.24543 0.88497 0.05567 -1.02600
H 	H 	0.21973 0.88847 0.04847 0.33100
H 	H 	0.27133 0.89087 0.04537 0.30800
H 	H 	0.23133 0.85167 0.06147 0.29600
C 	C 	0.22603 0.90327 0.09087 -0.88500
H 	H 	0.23813 0.92597 0.10307 0.26900
H 	H 	0.19673 0.90227 0.08497 0.27100
H 	H 	0.21773 0.87037 0.09577 0.24800
C 	C 	0.30623 0.91547 0.08457 -0.95400
H 	H 	0.32013 0.93927 0.09627 0.28700
H 	H 	0.29213 0.88217 0.09037 0.26900
H 	H 	0.33203 0.92137 0.07427 0.27900
C 	C 	0.56623 0.28357 0.18424 0.32300
O 	O 	0.57824 0.32478 0.19136 -0.48200
O 	O 	0.57824 0.25378 0.19127 -0.47700
C 	C 	0.20893 0.09987 0.96931 -0.23400
C 	C 	0.16393 0.05587 0.97012 0.11200
H 	H 	0.15523 0.03707 0.98297 -0.00300
C 	C 	0.13183 0.03867 0.95312 -0.10400
H 	H 	0.10163 0.00877 0.95447 0.07200
C 	C 	0.14343 0.06487 0.93399 0.01200
C 	C 	0.18873 0.10727 0.93230 -0.08100
H 	H 	0.19813 0.12517 0.91917 0.05000
C 	C 	0.22023 0.12347 0.94954 0.09300
H 	H 	0.25123 0.15227 0.94787 -0.03100
C 	C 	0.10803 0.04597 0.91567 0.19100
O 	O 	0.06733 0.00977 0.91890 -0.38200
O 	O 	0.12153 0.06657 0.89787 -0.22800
C 	C 	0.20743 0.10727 0.96971 -0.24100
C 	C 	0.16233 0.10607 0.97074 0.08700
H 	H 	0.15333 0.11537 0.98367 0.00600
C 	C 	0.13053 0.09177 0.95357 -0.08200
H 	H 	0.10003 0.09087 0.95487 0.06500
C 	C 	0.14363 0.07877 0.93425 -0.00300
C 	C 	0.18903 0.08247 0.93249 -0.06000
H 	H 	0.19923 0.07617 0.91907 0.04300
C 	C 	0.22003 0.09527 0.95013 0.09300
H 	H 	0.25043 0.09587 0.94877 -0.02900
C 	C 	0.10743 0.06037 0.91617 0.20300
O 	O 	0.06673 0.05607 0.91955 -0.38600
O 	O 	0.12083 0.05317 0.89817 -0.20900
Zn	Zn	0.66667 0.33333 0.25144 1.26100
Zn	Zn	0.33333 0.66667 0.58477 1.26100
Zn	Zn	-0.00000 -0.00000 0.91811 1.26000
O 	O 	0.33333 0.66667 0.55282 -0.90000
O 	O 	-0.00000 0.00000 0.88615 -0.90200
O 	O 	0.66667 0.33333 0.21949 -0.90000
Co	Co	0.48802 0.51212 0.63711 1.14000
Co	Co	0.51971 0.48044 0.59876 1.13800
Zn	Zn	0.59921 0.29958 0.45607 1.22000
B 	B 	0.45530 0.54620 0.67650 1.43200
O 	O 	0.48770 0.58960 0.66475 -0.54300
N 	N 	0.50840 0.58360 0.64655 -0.15300
C 	C 	0.54070 0.62500 0.63904 0.09200
H 	H 	0.54560 0.65360 0.64630 0.03500
C 	C 	0.57070 0.63180 0.62030 -0.20300
C 	C 	0.56580 0.59260 0.60723 0.29600
C 	C 	0.59650 0.60530 0.58860 -0.20600
C 	C 	0.63250 0.65450 0.58485 0.15400
H 	H 	0.65260 0.66230 0.57250 -0.04700
C 	C 	0.63950 0.69180 0.59867 -0.31200
C 	C 	0.60830 0.67950 0.61599 0.15500
H 	H 	0.61260 0.70490 0.62550 -0.03400
C 	C 	0.59280 0.56950 0.57340 0.10200
H 	H 	0.61150 0.58210 0.56060 0.02200
N 	N 	0.56770 0.52350 0.57480 -0.16100
O 	O 	0.57520 0.50070 0.55754 -0.55100
B 	B 	0.55180 0.44720 0.55879 1.60500
O 	O 	0.48190 0.52060 0.68461 -0.51700
N 	N 	0.49950 0.50290 0.66919 -0.16100
C 	C 	0.52110 0.48190 0.67760 0.07200
H 	H 	0.52310 0.48310 0.69280 0.00200
C 	C 	0.54280 0.45660 0.66706 -0.18200
C 	C 	0.54450 0.45450 0.64415 0.25700
C 	C 	0.56470 0.42690 0.63492 -0.17600
C 	C 	0.57750 0.39920 0.64866 0.10600
H 	H 	0.58960 0.37980 0.64240 -0.02400
C 	C 	0.57340 0.39890 0.67081 -0.25200
C 	C 	0.55610 0.42840 0.67979 0.10600
H 	H 	0.55330 0.42920 0.69490 -0.04400
C 	C 	0.57080 0.42390 0.61203 0.08200
H 	H 	0.58570 0.40550 0.60770 0.02900
N 	N 	0.55850 0.44290 0.59710 -0.16000
O 	O 	0.56920 0.43070 0.57730 -0.54300
O 	O 	0.41020 0.51170 0.66458 -0.51000
N 	N 	0.41630 0.49110 0.64695 -0.15000
C 	C 	0.37510 0.45810 0.63941 0.08400
H 	H 	0.34660 0.45230 0.64710 0.03700
C 	C 	0.36760 0.42890 0.62046 -0.19500
C 	C 	0.40710 0.43460 0.60699 0.28400
C 	C 	0.39450 0.40230 0.58907 -0.21000
C 	C 	0.34600 0.36690 0.58572 0.16300
H 	H 	0.33880 0.34550 0.57380 -0.04800
C 	C 	0.30700 0.36060 0.59854 -0.32600
C 	C 	0.31940 0.39240 0.61577 0.15700
H 	H 	0.29380 0.38930 0.62490 -0.03400
C 	C 	0.43030 0.40400 0.57390 0.10500
H 	H 	0.41800 0.38250 0.56190 0.02100
N 	N 	0.47620 0.43110 0.57511 -0.16300
O 	O 	0.49820 0.42250 0.55777 -0.55200
C 	C 	0.56920 0.43160 0.53770 -0.71600
C 	C 	0.61340 0.46170 0.52784 0.40900
H 	H 	0.63390 0.49370 0.53350 -0.10200
C 	C 	0.62920 0.44710 0.51004 -0.30000
H 	H 	0.66030 0.46850 0.50390 0.13900
C 	C 	0.59940 0.40110 0.50130 0.11800
C 	C 	0.55430 0.37090 0.51036 -0.29200
H 	H 	0.53330 0.33950 0.50430 0.13500
C 	C 	0.53940 0.38590 0.52831 0.39000
H 	H 	0.50810 0.36450 0.53440 -0.09800
O 	O 	0.53370 0.54850 0.61089 -0.52900
C 	C 	0.68090 0.74460 0.59460 0.68300
C 	C 	0.69510 0.77870 0.61360 -0.98200
H 	H 	0.66570 0.77720 0.61970 0.31600
H 	H 	0.71800 0.81230 0.60890 0.28300
H 	H 	0.71080 0.76870 0.62450 0.29600
C 	C 	0.72640 0.74750 0.58560 -0.95300
H 	H 	0.71780 0.72560 0.57320 0.28600
H 	H 	0.74200 0.73770 0.59660 0.27900
H 	H 	0.74920 0.78130 0.58110 0.26800
C 	C 	0.65940 0.76160 0.57630 -0.88700
H 	H 	0.62930 0.76040 0.58130 0.27200
H 	H 	0.65200 0.73980 0.56390 0.27000
H 	H 	0.68350 0.79520 0.57210 0.25000
O 	O 	0.52550 0.47400 0.63189 -0.52100
C 	C 	0.58610 0.36710 0.68530 0.57500
C 	C 	0.54500 0.33640 0.70040 -0.86500
H 	H 	0.53620 0.35760 0.70850 0.24900
H 	H 	0.55540 0.31930 0.71030 0.24400
H 	H 	0.51640 0.31240 0.69220 0.25200
C 	C 	0.63130 0.40570 0.69850 -0.79300
H 	H 	0.65830 0.42590 0.68870 0.23000
H 	H 	0.64160 0.38870 0.70850 0.21700
H 	H 	0.62210 0.42670 0.70650 0.22900
C 	C 	0.60100 0.33540 0.67220 -0.84500
H 	H 	0.62790 0.35630 0.66250 0.25100
H 	H 	0.57290 0.31130 0.66380 0.25100
H 	H 	0.61180 0.31820 0.68200 0.23500
O 	O 	0.45170 0.46700 0.61106 -0.52300
C 	C 	0.25430 0.32120 0.59320 0.70400
C 	C 	0.21830 0.30620 0.61100 -1.02600
H 	H 	0.22180 0.33540 0.61820 0.33000
H 	H 	0.22420 0.28620 0.62130 0.30700
H 	H 	0.18500 0.28700 0.60520 0.29600
C 	C 	0.23660 0.34390 0.57580 -0.88500
H 	H 	0.25930 0.35450 0.56360 0.26900
H 	H 	0.23560 0.37220 0.58170 0.27100
H 	H 	0.20370 0.31930 0.57090 0.24800
C 	C 	0.24880 0.27590 0.58210 -0.95300
H 	H 	0.27260 0.28580 0.57040 0.28600
H 	H 	0.21550 0.25670 0.57630 0.26900
H 	H 	0.25470 0.25600 0.59240 0.27800
C 	C 	0.61690 0.38400 0.48243 0.32300
O 	O 	0.65811 0.41320 0.47531 -0.48200
O 	O 	0.58711 0.34220 0.47540 -0.47700
C 	C 	0.43320 0.55760 0.69736 -0.23400
C 	C 	0.38920 0.55860 0.69655 0.11200
H 	H 	0.37040 0.54850 0.68370 -0.00200
C 	C 	0.37200 0.57350 0.71355 -0.10400
H 	H 	0.34210 0.57380 0.71220 0.07300
C 	C 	0.39820 0.58810 0.73268 0.01200
C 	C 	0.44060 0.58520 0.73437 -0.08100
H 	H 	0.45850 0.59370 0.74750 0.05000
C 	C 	0.45680 0.56990 0.71713 0.09200
H 	H 	0.48560 0.56770 0.71880 -0.03100
C 	C 	0.37930 0.60460 0.75100 0.19000
O 	O 	0.34310 0.60910 0.74777 -0.38100
O 	O 	0.39990 0.61170 0.76880 -0.22700
C 	C 	0.44060 0.56650 0.69696 -0.24100
C 	C 	0.43940 0.61040 0.69593 0.08700
H 	H 	0.44870 0.62870 0.68300 0.00600
C 	C 	0.42510 0.62790 0.71310 -0.08200
H 	H 	0.42420 0.65750 0.71180 0.06600
C 	C 	0.41210 0.60180 0.73242 -0.00300
C 	C 	0.41580 0.56010 0.73418 -0.05900
H 	H 	0.40950 0.54360 0.74760 0.04300
C 	C 	0.42860 0.54190 0.71654 0.09400
H 	H 	0.42920 0.51210 0.71790 -0.02900
C 	C 	0.39370 0.61960 0.75050 0.20400
O 	O 	0.38940 0.65600 0.74712 -0.38600
O 	O 	0.38650 0.59900 0.76850 -0.20900
Co	Co	0.15469 0.84545 0.97044 1.14000
Co	Co	0.18638 0.81377 0.93209 1.13900
Zn	Zn	0.26588 0.63291 0.78940 1.22000
B 	B 	0.12197 0.87953 0.00983 1.43200
O 	O 	0.15437 0.92293 0.99808 -0.54300
N 	N 	0.17507 0.91693 0.97988 -0.15300
C 	C 	0.20737 0.95833 0.97237 0.09100
H 	H 	0.21227 0.98693 0.97963 0.03600
C 	C 	0.23737 0.96513 0.95363 -0.20000
C 	C 	0.23247 0.92593 0.94056 0.29500
C 	C 	0.26317 0.93863 0.92193 -0.20600
C 	C 	0.29917 0.98783 0.91818 0.15700
H 	H 	0.31927 0.99563 0.90583 -0.04700
C 	C 	0.30617 0.02513 0.93200 -0.31300
C 	C 	0.27497 0.01283 0.94932 0.15200
H 	H 	0.27927 0.03823 0.95883 -0.03300
C 	C 	0.25947 0.90283 0.90673 0.10200
H 	H 	0.27817 0.91543 0.89393 0.02200
N 	N 	0.23437 0.85683 0.90813 -0.16100
O 	O 	0.24187 0.83403 0.89087 -0.55100
B 	B 	0.21847 0.78053 0.89212 1.60500
O 	O 	0.14857 0.85393 0.01794 -0.51700
N 	N 	0.16617 0.83623 0.00252 -0.16100
C 	C 	0.18777 0.81523 0.01093 0.07200
H 	H 	0.18977 0.81643 0.02613 0.00200
C 	C 	0.20947 0.78993 0.00039 -0.18200
C 	C 	0.21117 0.78783 0.97748 0.25700
C 	C 	0.23137 0.76023 0.96825 -0.17600
C 	C 	0.24417 0.73253 0.98199 0.10600
H 	H 	0.25627 0.71313 0.97573 -0.02400
C 	C 	0.24007 0.73223 0.00414 -0.25100
C 	C 	0.22277 0.76173 0.01312 0.10600
H 	H 	0.21997 0.76253 0.02823 -0.04400
C 	C 	0.23747 0.75723 0.94536 0.08200
H 	H 	0.25237 0.73883 0.94103 0.02900
N 	N 	0.22517 0.77623 0.93043 -0.16000
O 	O 	0.23587 0.76403 0.91063 -0.54200
O 	O 	0.07687 0.84503 0.99791 -0.51000
N 	N 	0.08297 0.82443 0.98028 -0.15000
C 	C 	0.04177 0.79143 0.97274 0.08500
H 	H 	0.01327 0.78563 0.98043 0.03700
C 	C 	0.03427 0.76223 0.95379 -0.19600
C 	C 	0.07377 0.76793 0.94032 0.28500
C 	C 	0.06117 0.73563 0.92240 -0.21000
C 	C 	0.01267 0.70023 0.91905 0.16200
H 	H 	0.00547 0.67883 0.90713 -0.04800
C 	C 	0.97367 0.69393 0.93187 -0.32600
C 	C 	0.98607 0.72573 0.94910 0.15800
H 	H 	0.96047 0.72263 0.95823 -0.03400
C 	C 	0.09697 0.73733 0.90723 0.10500
H 	H 	0.08467 0.71583 0.89523 0.02100
N 	N 	0.14287 0.76443 0.90844 -0.16300
O 	O 	0.16487 0.75583 0.89110 -0.55200
C 	C 	0.23587 0.76493 0.87103 -0.71600
C 	C 	0.28007 0.79503 0.86117 0.40900
H 	H 	0.30057 0.82703 0.86683 -0.10200
C 	C 	0.29587 0.78043 0.84337 -0.30000
H 	H 	0.32697 0.80183 0.83723 0.13900
C 	C 	0.26607 0.73443 0.83463 0.11800
C 	C 	0.22097 0.70423 0.84369 -0.29200
H 	H 	0.19997 0.67283 0.83763 0.13500
C 	C 	0.20607 0.71923 0.86164 0.39000
H 	H 	0.17477 0.69783 0.86773 -0.09800
O 	O 	0.20037 0.88183 0.94422 -0.52800
C 	C 	0.34757 0.07793 0.92793 0.68200
C 	C 	0.36177 0.11203 0.94693 -0.98200
H 	H 	0.33237 0.11053 0.95303 0.31500
H 	H 	0.38467 0.14563 0.94223 0.28200
H 	H 	0.37747 0.10203 0.95783 0.29600
C 	C 	0.39307 0.08083 0.91893 -0.95200
H 	H 	0.38447 0.05893 0.90653 0.28400
H 	H 	0.40867 0.07103 0.92993 0.27800
H 	H 	0.41587 0.11463 0.91443 0.26800
C 	C 	0.32607 0.09493 0.90963 -0.88600
H 	H 	0.29597 0.09373 0.91463 0.27100
H 	H 	0.31867 0.07313 0.89723 0.26900
H 	H 	0.35017 0.12853 0.90543 0.24900
O 	O 	0.19217 0.80733 0.96522 -0.52100
C 	C 	0.25277 0.70043 0.01863 0.57500
C 	C 	0.21167 0.66973 0.03373 -0.86500
H 	H 	0.20287 0.69093 0.04183 0.24900
H 	H 	0.22207 0.65263 0.04363 0.24400
H 	H 	0.18307 0.64573 0.02553 0.25200
C 	C 	0.29797 0.73903 0.03183 -0.79300
H 	H 	0.32497 0.75923 0.02203 0.23000
H 	H 	0.30827 0.72203 0.04183 0.21700
H 	H 	0.28877 0.76003 0.03983 0.22900
C 	C 	0.26767 0.66873 0.00553 -0.84500
H 	H 	0.29457 0.68963 0.99583 0.25200
H 	H 	0.23957 0.64463 0.99713 0.25100
H 	H 	0.27847 0.65153 0.01533 0.23500
O 	O 	0.11837 0.80033 0.94439 -0.52300
C 	C 	0.92097 0.65453 0.92653 0.70500
C 	C 	0.88497 0.63953 0.94433 -1.02600
H 	H 	0.88847 0.66873 0.95153 0.33100
H 	H 	0.89087 0.61953 0.95463 0.30800
H 	H 	0.85167 0.62033 0.93853 0.29600
C 	C 	0.90327 0.67723 0.90913 -0.88500
H 	H 	0.92597 0.68783 0.89693 0.26900
H 	H 	0.90227 0.70553 0.91503 0.27100
H 	H 	0.87037 0.65263 0.90423 0.24800
C 	C 	0.91547 0.60923 0.91543 -0.95400
H 	H 	0.93927 0.61913 0.90373 0.28700
H 	H 	0.88217 0.59003 0.90963 0.27000
H 	H 	0.92137 0.58933 0.92573 0.27900
C 	C 	0.28357 0.71733 0.81576 0.32300
O 	O 	0.32478 0.74653 0.80864 -0.48200
O 	O 	0.25378 0.67553 0.80873 -0.47700
C 	C 	0.09987 0.89093 0.03069 -0.23400
C 	C 	0.05587 0.89193 0.02988 0.11200
H 	H 	0.03707 0.88183 0.01703 -0.00300
C 	C 	0.03867 0.90683 0.04688 -0.10400
H 	H 	0.00877 0.90713 0.04553 0.07200
C 	C 	0.06487 0.92143 0.06601 0.01200
C 	C 	0.10727 0.91853 0.06770 -0.08100
H 	H 	0.12517 0.92703 0.08083 0.05000
C 	C 	0.12347 0.90323 0.05046 0.09300
H 	H 	0.15227 0.90103 0.05213 -0.03100
C 	C 	0.04597 0.93793 0.08433 0.19100
O 	O 	0.00977 0.94243 0.08110 -0.38200
O 	O 	0.06657 0.94503 0.10213 -0.22800
C 	C 	0.10727 0.89983 0.03029 -0.24100
C 	C 	0.10607 0.94373 0.02926 0.08700
H 	H 	0.11537 0.96203 0.01633 0.00600
C 	C 	0.09177 0.96123 0.04643 -0.08200
H 	H 	0.09087 0.99083 0.04513 0.06600
C 	C 	0.07877 0.93513 0.06575 -0.00300
C 	C 	0.08247 0.89343 0.06751 -0.06000
H 	H 	0.07617 0.87693 0.08093 0.04300
C 	C 	0.09527 0.87523 0.04987 0.09300
H 	H 	0.09587 0.84543 0.05123 -0.02900
C 	C 	0.06037 0.95293 0.08383 0.20300
O 	O 	0.05607 0.98933 0.08045 -0.38500
O 	O 	0.05317 0.93233 0.10183 -0.20900
Co	Co	0.82135 0.17879 0.30378 1.14000
Co	Co	0.85304 0.14711 0.26543 1.13800
Zn	Zn	0.93254 0.96625 0.12274 1.22000
B 	B 	0.78863 0.21287 0.34317 1.43200
O 	O 	0.82103 0.25627 0.33142 -0.54300
N 	N 	0.84173 0.25027 0.31322 -0.15300
C 	C 	0.87403 0.29167 0.30571 0.09100
H 	H 	0.87893 0.32027 0.31297 0.03500
C 	C 	0.90403 0.29847 0.28697 -0.20100
C 	C 	0.89913 0.25927 0.27390 0.29400
C 	C 	0.92983 0.27197 0.25527 -0.20300
C 	C 	0.96583 0.32117 0.25152 0.15000
H 	H 	0.98593 0.32897 0.23917 -0.04400
C 	C 	0.97283 0.35847 0.26534 -0.30300
C 	C 	0.94163 0.34617 0.28266 0.15000
H 	H 	0.94593 0.37157 0.29217 -0.03200
C 	C 	0.92613 0.23617 0.24007 0.10100
H 	H 	0.94483 0.24877 0.22727 0.02300
N 	N 	0.90103 0.19017 0.24147 -0.16100
O 	O 	0.90853 0.16737 0.22421 -0.55100
B 	B 	0.88513 0.11387 0.22546 1.60500
O 	O 	0.81523 0.18727 0.35128 -0.51700
N 	N 	0.83283 0.16957 0.33586 -0.16100
C 	C 	0.85443 0.14857 0.34427 0.07200
H 	H 	0.85643 0.14977 0.35947 0.00200
C 	C 	0.87613 0.12327 0.33373 -0.18200
C 	C 	0.87783 0.12117 0.31082 0.25700
C 	C 	0.89803 0.09357 0.30159 -0.17600
C 	C 	0.91083 0.06587 0.31533 0.10600
H 	H 	0.92293 0.04647 0.30907 -0.02300
C 	C 	0.90673 0.06557 0.33748 -0.25200
C 	C 	0.88943 0.09507 0.34646 0.10600
H 	H 	0.88663 0.09587 0.36157 -0.04400
C 	C 	0.90413 0.09057 0.27870 0.08200
H 	H 	0.91903 0.07217 0.27437 0.02900
N 	N 	0.89183 0.10957 0.26377 -0.16000
O 	O 	0.90253 0.09737 0.24397 -0.54200
O 	O 	0.74353 0.17837 0.33125 -0.51000
N 	N 	0.74963 0.15777 0.31362 -0.15000
C 	C 	0.70843 0.12477 0.30608 0.08400
H 	H 	0.67993 0.11897 0.31377 0.03700
C 	C 	0.70093 0.09557 0.28713 -0.19500
C 	C 	0.74043 0.10127 0.27366 0.28400
C 	C 	0.72783 0.06897 0.25574 -0.20900
C 	C 	0.67933 0.03357 0.25239 0.16300
H 	H 	0.67213 0.01217 0.24047 -0.04800
C 	C 	0.64033 0.02727 0.26521 -0.32500
C 	C 	0.65273 0.05907 0.28244 0.15600
H 	H 	0.62713 0.05597 0.29157 -0.03400
C 	C 	0.76363 0.07067 0.24057 0.10500
H 	H 	0.75133 0.04917 0.22857 0.02100
N 	N 	0.80953 0.09777 0.24178 -0.16300
O 	O 	0.83153 0.08917 0.22444 -0.55200
C 	C 	0.90253 0.09827 0.20437 -0.71600
C 	C 	0.94673 0.12837 0.19451 0.40900
H 	H 	0.96723 0.16037 0.20017 -0.10200
C 	C 	0.96253 0.11377 0.17671 -0.30000
H 	H 	0.99363 0.13517 0.17057 0.13900
C 	C 	0.93273 0.06777 0.16797 0.11800
C 	C 	0.88763 0.03757 0.17703 -0.29200
H 	H 	0.86663 0.00617 0.17097 0.13600
C 	C 	0.87273 0.05257 0.19498 0.39000
H 	H 	0.84143 0.03117 0.20107 -0.09800
O 	O 	0.86703 0.21517 0.27756 -0.52800
C 	C 	0.01423 0.41127 0.26127 0.66900
C 	C 	0.02843 0.44537 0.28027 -0.98000
H 	H 	0.99903 0.44387 0.28637 0.31700
H 	H 	0.05133 0.47897 0.27557 0.28200
H 	H 	0.04413 0.43537 0.29117 0.29500
C 	C 	0.05973 0.41417 0.25227 -0.94100
H 	H 	0.05113 0.39227 0.23987 0.28100
H 	H 	0.07533 0.40437 0.26327 0.27500
H 	H 	0.08253 0.44797 0.24777 0.26500
C 	C 	0.99273 0.42827 0.24297 -0.86500
H 	H 	0.96263 0.42707 0.24797 0.26600
H 	H 	0.98533 0.40647 0.23057 0.26400
H 	H 	0.01683 0.46187 0.23877 0.24200
O 	O 	0.85883 0.14067 0.29856 -0.52100
C 	C 	0.91943 0.03377 0.35197 0.57700
C 	C 	0.87833 0.00307 0.36707 -0.86700
H 	H 	0.86953 0.02427 0.37517 0.25000
H 	H 	0.88873 0.98597 0.37697 0.24500
H 	H 	0.84973 0.97907 0.35887 0.25300
C 	C 	0.96463 0.07237 0.36517 -0.79500
H 	H 	0.99163 0.09257 0.35537 0.23200
H 	H 	0.97493 0.05537 0.37517 0.21900
H 	H 	0.95543 0.09337 0.37317 0.23000
C 	C 	0.93433 0.00207 0.33887 -0.84700
H 	H 	0.96123 0.02297 0.32917 0.25300
H 	H 	0.90623 0.97797 0.33047 0.25200
H 	H 	0.94513 0.98487 0.34867 0.23600
O 	O 	0.78503 0.13367 0.27773 -0.52300
C 	C 	0.58763 0.98787 0.25987 0.70300
C 	C 	0.55163 0.97287 0.27767 -1.02600
H 	H 	0.55513 0.00207 0.28487 0.33100
H 	H 	0.55753 0.95287 0.28797 0.30700
H 	H 	0.51833 0.95367 0.27187 0.29600
C 	C 	0.56993 0.01057 0.24247 -0.88300
H 	H 	0.59263 0.02117 0.23027 0.26900
H 	H 	0.56893 0.03887 0.24837 0.27100
H 	H 	0.53703 0.98597 0.23757 0.24700
C 	C 	0.58213 0.94257 0.24877 -0.95300
H 	H 	0.60593 0.95247 0.23707 0.28600
H 	H 	0.54883 0.92337 0.24297 0.26900
H 	H 	0.58803 0.92267 0.25907 0.27800
C 	C 	0.95023 0.05067 0.14910 0.32300
O 	O 	0.99144 0.07987 0.14198 -0.48100
O 	O 	0.92044 0.00887 0.14207 -0.47700
C 	C 	0.76653 0.22427 0.36403 -0.23400
C 	C 	0.72253 0.22527 0.36322 0.11200
H 	H 	0.70373 0.21517 0.35037 -0.00200
C 	C 	0.70533 0.24017 0.38022 -0.10400
H 	H 	0.67543 0.24047 0.37887 0.07300
C 	C 	0.73153 0.25477 0.39935 0.01200
C 	C 	0.77393 0.25187 0.40104 -0.08100
H 	H 	0.79183 0.26037 0.41417 0.05000
C 	C 	0.79013 0.23657 0.38380 0.09200
H 	H 	0.81893 0.23437 0.38547 -0.03100
C 	C 	0.71263 0.27127 0.41767 0.19100
O 	O 	0.67643 0.27577 0.41444 -0.38100
O 	O 	0.73323 0.27837 0.43547 -0.22700
C 	C 	0.77393 0.23317 0.36363 -0.24100
C 	C 	0.77273 0.27707 0.36260 0.08700
H 	H 	0.78203 0.29537 0.34967 0.00600
C 	C 	0.75843 0.29457 0.37977 -0.08200
H 	H 	0.75753 0.32417 0.37847 0.06600
C 	C 	0.74543 0.26847 0.39909 -0.00300
C 	C 	0.74913 0.22677 0.40085 -0.05900
H 	H 	0.74283 0.21027 0.41427 0.04300
C 	C 	0.76193 0.20857 0.38321 0.09400
H 	H 	0.76253 0.17877 0.38457 -0.02900
C 	C 	0.72703 0.28627 0.41717 0.20400
O 	O 	0.72273 0.32267 0.41379 -0.38600
O 	O 	0.71983 0.26567 0.43517 -0.20900
Co	Co	0.48788 0.97590 0.63711 1.14100
Co	Co	0.51956 0.03927 0.59876 1.13800
Zn	Zn	0.70042 0.29963 0.45607 1.22000
B 	B 	0.45380 0.90910 0.67650 1.43200
O 	O 	0.41040 0.89810 0.66475 -0.54300
N 	N 	0.41640 0.92480 0.64655 -0.15300
C 	C 	0.37500 0.91570 0.63904 0.09200
H 	H 	0.34640 0.89200 0.64630 0.03500
C 	C 	0.36820 0.93890 0.62030 -0.20100
C 	C 	0.40740 0.97320 0.60723 0.29400
C 	C 	0.39470 0.99120 0.58860 -0.20200
C 	C 	0.34550 0.97800 0.58485 0.15200
H 	H 	0.33770 0.99030 0.57250 -0.04500
C 	C 	0.30820 0.94770 0.59867 -0.30800
C 	C 	0.32050 0.92880 0.61599 0.15300
H 	H 	0.29510 0.90770 0.62550 -0.03300
C 	C 	0.43050 0.02330 0.57340 0.09700
H 	H 	0.41790 0.02940 0.56060 0.02300
N 	N 	0.47650 0.04420 0.57480 -0.16100
O 	O 	0.49930 0.07450 0.55754 -0.55100
B 	B 	0.55280 0.10460 0.55879 1.60400
O 	O 	0.47940 0.96130 0.68461 -0.51700
N 	N 	0.49710 0.99660 0.66919 -0.15900
C 	C 	0.51810 0.03920 0.67760 0.06800
H 	H 	0.51690 0.04000 0.69280 0.00300
C 	C 	0.54340 0.08620 0.66706 -0.18100
C 	C 	0.54550 0.09000 0.64415 0.25600
C 	C 	0.57310 0.13780 0.63492 -0.17600
C 	C 	0.60080 0.17830 0.64866 0.10600
H 	H 	0.62020 0.20980 0.64240 -0.02300
C 	C 	0.60110 0.17450 0.67081 -0.25100
C 	C 	0.57160 0.12770 0.67979 0.10500
H 	H 	0.57080 0.12410 0.69490 -0.04300
C 	C 	0.57610 0.14690 0.61203 0.08200
H 	H 	0.59450 0.18020 0.60770 0.02900
N 	N 	0.55710 0.11560 0.59710 -0.16000
O 	O 	0.56930 0.13850 0.57730 -0.54300
O 	O 	0.48830 0.89850 0.66458 -0.51000
N 	N 	0.50890 0.92520 0.64695 -0.15000
C 	C 	0.54190 0.91700 0.63941 0.08400
H 	H 	0.54770 0.89430 0.64710 0.03800
C 	C 	0.57110 0.93870 0.62046 -0.19400
C 	C 	0.56540 0.97250 0.60699 0.28300
C 	C 	0.59770 0.99220 0.58907 -0.20600
C 	C 	0.63310 0.97910 0.58572 0.16100
H 	H 	0.65450 0.99330 0.57380 -0.04700
C 	C 	0.63940 0.94640 0.59854 -0.32500
C 	C 	0.60760 0.92700 0.61577 0.15600
H 	H 	0.61070 0.90450 0.62490 -0.03400
C 	C 	0.59600 0.02630 0.57390 0.10100
H 	H 	0.61750 0.03550 0.56190 0.02200
N 	N 	0.56890 0.04510 0.57511 -0.16300
O 	O 	0.57750 0.07570 0.55777 -0.55200
C 	C 	0.56840 0.13760 0.53770 -0.71600
C 	C 	0.53830 0.15170 0.52784 0.40900
H 	H 	0.50630 0.14020 0.53350 -0.10300
C 	C 	0.55290 0.18210 0.51004 -0.30100
H 	H 	0.53150 0.19180 0.50390 0.13900
C 	C 	0.59890 0.19830 0.50130 0.11800
C 	C 	0.62910 0.18340 0.51036 -0.29200
H 	H 	0.66050 0.19380 0.50430 0.13500
C 	C 	0.61410 0.15350 0.52831 0.39000
H 	H 	0.63550 0.14360 0.53440 -0.09800
O 	O 	0.45150 0.98520 0.61089 -0.52700
C 	C 	0.25540 0.93630 0.59460 0.67800
C 	C 	0.22130 0.91640 0.61360 -0.97900
H 	H 	0.22280 0.88850 0.61970 0.31500
H 	H 	0.18770 0.90570 0.60890 0.28200
H 	H 	0.23130 0.94210 0.62450 0.29600
C 	C 	0.25250 0.97890 0.58560 -0.94200
H 	H 	0.27440 0.99220 0.57320 0.28300
H 	H 	0.26230 0.00430 0.59660 0.27400
H 	H 	0.21870 0.96790 0.58110 0.26600
C 	C 	0.23840 0.89780 0.57630 -0.88400
H 	H 	0.23960 0.86890 0.58130 0.27100
H 	H 	0.26020 0.91220 0.56390 0.26900
H 	H 	0.20480 0.88830 0.57210 0.24900
O 	O 	0.52600 0.05150 0.63189 -0.52200
C 	C 	0.63290 0.21900 0.68530 0.57500
C 	C 	0.66360 0.20860 0.70040 -0.86400
H 	H 	0.64240 0.17860 0.70850 0.24900
H 	H 	0.68070 0.23610 0.71030 0.24400
H 	H 	0.68760 0.20400 0.69220 0.25200
C 	C 	0.59430 0.22560 0.69850 -0.79200
H 	H 	0.57410 0.23240 0.68870 0.23000
H 	H 	0.61130 0.25290 0.70850 0.21700
H 	H 	0.57330 0.19540 0.70650 0.22900
C 	C 	0.66460 0.26560 0.67220 -0.84500
H 	H 	0.64370 0.27160 0.66250 0.25100
H 	H 	0.68870 0.26160 0.66380 0.25100
H 	H 	0.68180 0.29360 0.68200 0.23500
O 	O 	0.53300 0.98470 0.61106 -0.52200
C 	C 	0.67880 0.93310 0.59320 0.70500
C 	C 	0.69380 0.91210 0.61100 -1.02700
H 	H 	0.66460 0.88640 0.61820 0.33100
H 	H 	0.71380 0.93800 0.62130 0.30800
H 	H 	0.71300 0.89800 0.60520 0.29600
C 	C 	0.65610 0.89270 0.57580 -0.88500
H 	H 	0.64550 0.90480 0.56360 0.27000
H 	H 	0.62780 0.86340 0.58170 0.27100
H 	H 	0.68070 0.88440 0.57090 0.24800
C 	C 	0.72410 0.97290 0.58210 -0.95500
H 	H 	0.71420 0.98680 0.57040 0.28700
H 	H 	0.74330 0.95880 0.57630 0.27000
H 	H 	0.74400 0.99870 0.59240 0.27900
C 	C 	0.61600 0.23290 0.48243 0.32300
O 	O 	0.58680 0.24491 0.47531 -0.48200
O 	O 	0.65780 0.24491 0.47540 -0.47700
C 	C 	0.44240 0.87560 0.69736 -0.23400
C 	C 	0.44140 0.83060 0.69655 0.11200
H 	H 	0.45150 0.82190 0.68370 -0.00200
C 	C 	0.42650 0.79850 0.71355 -0.10400
H 	H 	0.42620 0.76830 0.71220 0.07300
C 	C 	0.41190 0.81010 0.73268 0.01200
C 	C 	0.41480 0.85540 0.73437 -0.08100
H 	H 	0.40630 0.86480 0.74750 0.05000
C 	C 	0.43010 0.88690 0.71713 0.09200
H 	H 	0.43230 0.91790 0.71880 -0.03000
C 	C 	0.39540 0.77470 0.75100 0.19000
O 	O 	0.39090 0.73400 0.74777 -0.38100
O 	O 	0.38830 0.78820 0.76880 -0.22700
C 	C 	0.43350 0.87410 0.69696 -0.24100
C 	C 	0.38960 0.82900 0.69593 0.08700
H 	H 	0.37130 0.82000 0.68300 0.00600
C 	C 	0.37210 0.79720 0.71310 -0.08200
H 	H 	0.34250 0.76670 0.71180 0.06600
C 	C 	0.39820 0.81030 0.73242 -0.00300
C 	C 	0.43990 0.85570 0.73418 -0.05900
H 	H 	0.45640 0.86590 0.74760 0.04400
C 	C 	0.45810 0.88670 0.71654 0.09400
H 	H 	0.48790 0.91710 0.71790 -0.02900
C 	C 	0.38040 0.77410 0.75050 0.20400
O 	O 	0.34400 0.73340 0.74712 -0.38600
O 	O 	0.40100 0.78750 0.76850 -0.20900
Co	Co	0.15455 0.30923 0.97044 1.14000
Co	Co	0.18623 0.37260 0.93209 1.13800
Zn	Zn	0.36709 0.63296 0.78940 1.22000
B 	B 	0.12047 0.24243 0.00983 1.43200
O 	O 	0.07707 0.23143 0.99808 -0.54300
N 	N 	0.08307 0.25813 0.97988 -0.15300
C 	C 	0.04167 0.24903 0.97237 0.09200
H 	H 	0.01307 0.22533 0.97963 0.03400
C 	C 	0.03487 0.27223 0.95363 -0.20500
C 	C 	0.07407 0.30653 0.94056 0.29600
C 	C 	0.06137 0.32453 0.92193 -0.20600
C 	C 	0.01217 0.31133 0.91818 0.15300
H 	H 	0.00437 0.32363 0.90583 -0.04700
C 	C 	0.97487 0.28103 0.93200 -0.31100
C 	C 	0.98717 0.26213 0.94932 0.15600
H 	H 	0.96177 0.24103 0.95883 -0.03400
C 	C 	0.09717 0.35663 0.90673 0.10200
H 	H 	0.08457 0.36273 0.89393 0.02200
N 	N 	0.14317 0.37753 0.90813 -0.16100
O 	O 	0.16597 0.40783 0.89087 -0.55100
B 	B 	0.21947 0.43793 0.89212 1.60500
O 	O 	0.14607 0.29463 0.01794 -0.51700
N 	N 	0.16377 0.32993 0.00252 -0.16100
C 	C 	0.18477 0.37253 0.01093 0.07200
H 	H 	0.18357 0.37333 0.02613 0.00200
C 	C 	0.21007 0.41953 0.00039 -0.18200
C 	C 	0.21217 0.42333 0.97748 0.25700
C 	C 	0.23977 0.47113 0.96825 -0.17600
C 	C 	0.26747 0.51163 0.98199 0.10600
H 	H 	0.28687 0.54313 0.97573 -0.02400
C 	C 	0.26777 0.50783 0.00414 -0.25200
C 	C 	0.23827 0.46103 0.01312 0.10600
H 	H 	0.23747 0.45743 0.02823 -0.04400
C 	C 	0.24277 0.48023 0.94536 0.08200
H 	H 	0.26117 0.51353 0.94103 0.02900
N 	N 	0.22377 0.44893 0.93043 -0.16000
O 	O 	0.23597 0.47183 0.91063 -0.54300
O 	O 	0.15497 0.23183 0.99791 -0.51000
N 	N 	0.17557 0.25853 0.98028 -0.15000
C 	C 	0.20857 0.25033 0.97274 0.08400
H 	H 	0.21437 0.22763 0.98043 0.03700
C 	C 	0.23777 0.27203 0.95379 -0.19500
C 	C 	0.23207 0.30583 0.94032 0.28400
C 	C 	0.26437 0.32553 0.92240 -0.21000
C 	C 	0.29977 0.31243 0.91905 0.16300
H 	H 	0.32117 0.32663 0.90713 -0.04800
C 	C 	0.30607 0.27973 0.93187 -0.32600
C 	C 	0.27427 0.26033 0.94910 0.15700
H 	H 	0.27737 0.23783 0.95823 -0.03400
C 	C 	0.26267 0.35963 0.90723 0.10500
H 	H 	0.28417 0.36883 0.89523 0.02100
N 	N 	0.23557 0.37843 0.90844 -0.16300
O 	O 	0.24417 0.40903 0.89110 -0.55200
C 	C 	0.23507 0.47093 0.87103 -0.71600
C 	C 	0.20497 0.48503 0.86117 0.40900
H 	H 	0.17297 0.47353 0.86683 -0.10300
C 	C 	0.21957 0.51543 0.84337 -0.30100
H 	H 	0.19817 0.52513 0.83723 0.13900
C 	C 	0.26557 0.53163 0.83463 0.11800
C 	C 	0.29577 0.51673 0.84369 -0.29200
H 	H 	0.32717 0.52713 0.83763 0.13500
C 	C 	0.28077 0.48683 0.86164 0.39000
H 	H 	0.30217 0.47693 0.86773 -0.09800
O 	O 	0.11817 0.31853 0.94422 -0.52900
C 	C 	0.92207 0.26963 0.92793 0.68300
C 	C 	0.88797 0.24973 0.94693 -0.98200
H 	H 	0.88947 0.22183 0.95303 0.31600
H 	H 	0.85437 0.23903 0.94223 0.28300
H 	H 	0.89797 0.27543 0.95783 0.29600
C 	C 	0.91917 0.31223 0.91893 -0.95300
H 	H 	0.94107 0.32553 0.90653 0.28600
H 	H 	0.92897 0.33763 0.92993 0.27900
H 	H 	0.88537 0.30123 0.91443 0.26800
C 	C 	0.90507 0.23113 0.90963 -0.88700
H 	H 	0.90627 0.20223 0.91463 0.27200
H 	H 	0.92687 0.24553 0.89723 0.27000
H 	H 	0.87147 0.22163 0.90543 0.25000
O 	O 	0.19267 0.38483 0.96522 -0.52100
C 	C 	0.29957 0.55233 0.01863 0.57500
C 	C 	0.33027 0.54193 0.03373 -0.86500
H 	H 	0.30907 0.51193 0.04183 0.24900
H 	H 	0.34737 0.56943 0.04363 0.24400
H 	H 	0.35427 0.53733 0.02553 0.25200
C 	C 	0.26097 0.55893 0.03183 -0.79200
H 	H 	0.24077 0.56573 0.02203 0.23000
H 	H 	0.27797 0.58623 0.04183 0.21700
H 	H 	0.23997 0.52873 0.03983 0.22900
C 	C 	0.33127 0.59893 0.00553 -0.84500
H 	H 	0.31037 0.60493 0.99583 0.25200
H 	H 	0.35537 0.59493 0.99713 0.25100
H 	H 	0.34847 0.62693 0.01533 0.23500
O 	O 	0.19967 0.31803 0.94439 -0.52300
C 	C 	0.34547 0.26643 0.92653 0.70400
C 	C 	0.36047 0.24543 0.94433 -1.02600
H 	H 	0.33127 0.21973 0.95153 0.33000
H 	H 	0.38047 0.27133 0.95463 0.30700
H 	H 	0.37967 0.23133 0.93853 0.29600
C 	C 	0.32277 0.22603 0.90913 -0.88500
H 	H 	0.31217 0.23813 0.89693 0.26900
H 	H 	0.29447 0.19673 0.91503 0.27100
H 	H 	0.34737 0.21773 0.90423 0.24800
C 	C 	0.39077 0.30623 0.91543 -0.95300
H 	H 	0.38087 0.32013 0.90373 0.28600
H 	H 	0.40997 0.29213 0.90963 0.26900
H 	H 	0.41067 0.33203 0.92573 0.27800
C 	C 	0.28267 0.56623 0.81576 0.32300
O 	O 	0.25347 0.57824 0.80864 -0.48200
O 	O 	0.32447 0.57824 0.80873 -0.47700
C 	C 	0.10907 0.20893 0.03069 -0.23400
C 	C 	0.10807 0.16393 0.02988 0.11200
H 	H 	0.11817 0.15523 0.01703 -0.00200
C 	C 	0.09317 0.13183 0.04688 -0.10300
H 	H 	0.09287 0.10163 0.04553 0.07300
C 	C 	0.07857 0.14343 0.06601 0.01100
C 	C 	0.08147 0.18873 0.06770 -0.08100
H 	H 	0.07297 0.19813 0.08083 0.05000
C 	C 	0.09677 0.22023 0.05046 0.09100
H 	H 	0.09897 0.25123 0.05213 -0.03100
C 	C 	0.06207 0.10803 0.08433 0.19000
O 	O 	0.05757 0.06733 0.08110 -0.38100
O 	O 	0.05497 0.12153 0.10213 -0.22600
C 	C 	0.10017 0.20743 0.03029 -0.24100
C 	C 	0.05627 0.16233 0.02926 0.08700
H 	H 	0.03797 0.15333 0.01633 0.00600
C 	C 	0.03877 0.13053 0.04643 -0.08200
H 	H 	0.00917 0.10003 0.04513 0.06500
C 	C 	0.06487 0.14363 0.06575 -0.00300
C 	C 	0.10657 0.18903 0.06751 -0.05900
H 	H 	0.12307 0.19923 0.08093 0.04300
C 	C 	0.12477 0.22003 0.04987 0.09400
H 	H 	0.15457 0.25043 0.05123 -0.02900
C 	C 	0.04707 0.10743 0.08383 0.20400
O 	O 	0.01067 0.06673 0.08045 -0.38700
O 	O 	0.06767 0.12083 0.10183 -0.21100
Co	Co	0.82121 0.64257 0.30378 1.14000
Co	Co	0.85289 0.70594 0.26543 1.13800
Zn	Zn	0.03375 0.96630 0.12274 1.21900
B 	B 	0.78713 0.57577 0.34317 1.43200
O 	O 	0.74373 0.56477 0.33142 -0.54300
N 	N 	0.74973 0.59147 0.31322 -0.15300
C 	C 	0.70833 0.58237 0.30571 0.09200
H 	H 	0.67973 0.55867 0.31297 0.03500
C 	C 	0.70153 0.60557 0.28697 -0.20300
C 	C 	0.74073 0.63987 0.27390 0.29600
C 	C 	0.72803 0.65787 0.25527 -0.20600
C 	C 	0.67883 0.64467 0.25152 0.15400
H 	H 	0.67103 0.65697 0.23917 -0.04700
C 	C 	0.64153 0.61437 0.26534 -0.31200
C 	C 	0.65383 0.59547 0.28266 0.15500
H 	H 	0.62843 0.57437 0.29217 -0.03400
C 	C 	0.76383 0.68997 0.24007 0.10200
H 	H 	0.75123 0.69607 0.22727 0.02200
N 	N 	0.80983 0.71087 0.24147 -0.16100
O 	O 	0.83263 0.74117 0.22421 -0.55100
B 	B 	0.88613 0.77127 0.22546 1.60500
O 	O 	0.81273 0.62797 0.35128 -0.51700
N 	N 	0.83043 0.66327 0.33586 -0.16100
C 	C 	0.85143 0.70587 0.34427 0.07100
H 	H 	0.85023 0.70667 0.35947 0.00300
C 	C 	0.87673 0.75287 0.33373 -0.18000
C 	C 	0.87883 0.75667 0.31082 0.25500
C 	C 	0.90643 0.80447 0.30159 -0.17400
C 	C 	0.93413 0.84497 0.31533 0.10100
H 	H 	0.95353 0.87647 0.30907 -0.02100
C 	C 	0.93443 0.84117 0.33748 -0.24300
C 	C 	0.90493 0.79437 0.34646 0.10100
H 	H 	0.90413 0.79077 0.36157 -0.04100
C 	C 	0.90943 0.81357 0.27870 0.08100
H 	H 	0.92783 0.84687 0.27437 0.02900
N 	N 	0.89043 0.78227 0.26377 -0.16000
O 	O 	0.90263 0.80517 0.24397 -0.54200
O 	O 	0.82163 0.56517 0.33125 -0.51000
N 	N 	0.84223 0.59187 0.31362 -0.15000
C 	C 	0.87523 0.58367 0.30608 0.08400
H 	H 	0.88103 0.56097 0.31377 0.03800
C 	C 	0.90443 0.60537 0.28713 -0.19200
C 	C 	0.89873 0.63917 0.27366 0.28300
C 	C 	0.93103 0.65887 0.25574 -0.20700
C 	C 	0.96643 0.64577 0.25239 0.15900
H 	H 	0.98783 0.65997 0.24047 -0.04600
C 	C 	0.97273 0.61307 0.26521 -0.31800
C 	C 	0.94093 0.59367 0.28244 0.15200
H 	H 	0.94403 0.57117 0.29157 -0.03200
C 	C 	0.92933 0.69297 0.24057 0.10400
H 	H 	0.95083 0.70217 0.22857 0.02200
N 	N 	0.90223 0.71177 0.24178 -0.16300
O 	O 	0.91083 0.74237 0.22444 -0.55200
C 	C 	0.90173 0.80427 0.20437 -0.71600
C 	C 	0.87163 0.81837 0.19451 0.40900
H 	H 	0.83963 0.80687 0.20017 -0.10300
C 	C 	0.88623 0.84877 0.17671 -0.30100
H 	H 	0.86483 0.85847 0.17057 0.13900
C 	C 	0.93223 0.86497 0.16797 0.11800
C 	C 	0.96243 0.85007 0.17703 -0.29200
H 	H 	0.99383 0.86047 0.17097 0.13600
C 	C 	0.94743 0.82017 0.19498 0.39000
H 	H 	0.96883 0.81027 0.20107 -0.09800
O 	O 	0.78483 0.65187 0.27756 -0.52900
C 	C 	0.58873 0.60297 0.26127 0.68300
C 	C 	0.55463 0.58307 0.28027 -0.98200
H 	H 	0.55613 0.55517 0.28637 0.31600
H 	H 	0.52103 0.57237 0.27557 0.28300
H 	H 	0.56463 0.60877 0.29117 0.29600
C 	C 	0.58583 0.64557 0.25227 -0.95300
H 	H 	0.60773 0.65887 0.23987 0.28500
H 	H 	0.59563 0.67097 0.26327 0.27900
H 	H 	0.55203 0.63457 0.24777 0.26800
C 	C 	0.57173 0.56447 0.24297 -0.88700
H 	H 	0.57293 0.53557 0.24797 0.27200
H 	H 	0.59353 0.57887 0.23057 0.27000
H 	H 	0.53813 0.55497 0.23877 0.25000
O 	O 	0.85933 0.71817 0.29856 -0.52100
C 	C 	0.96623 0.88567 0.35197 0.55600
C 	C 	0.99693 0.87527 0.36707 -0.83100
H 	H 	0.97573 0.84527 0.37517 0.24000
H 	H 	0.01403 0.90277 0.37697 0.23300
H 	H 	0.02093 0.87067 0.35887 0.24100
C 	C 	0.92763 0.89227 0.36517 -0.77700
H 	H 	0.90743 0.89907 0.35537 0.22600
H 	H 	0.94463 0.91957 0.37517 0.21400
H 	H 	0.90663 0.86207 0.37317 0.22500
C 	C 	0.99793 0.93227 0.33887 -0.81200
H 	H 	0.97703 0.93827 0.32917 0.24300
H 	H 	0.02203 0.92827 0.33047 0.24000
H 	H 	0.01513 0.96027 0.34867 0.22400
O 	O 	0.86633 0.65137 0.27773 -0.52300
C 	C 	0.01213 0.59977 0.25987 0.69100
C 	C 	0.02713 0.57877 0.27767 -1.02400
H 	H 	0.99793 0.55307 0.28487 0.33200
H 	H 	0.04713 0.60467 0.28797 0.30600
H 	H 	0.04633 0.56467 0.27187 0.29500
C 	C 	0.98943 0.55937 0.24247 -0.86300
H 	H 	0.97883 0.57147 0.23027 0.26400
H 	H 	0.96113 0.53007 0.24837 0.26600
H 	H 	0.01403 0.55107 0.23757 0.24000
C 	C 	0.05743 0.63957 0.24877 -0.94200
H 	H 	0.04753 0.65347 0.23707 0.28200
H 	H 	0.07663 0.62547 0.24297 0.26600
H 	H 	0.07733 0.66537 0.25907 0.27500
C 	C 	0.94933 0.89957 0.14910 0.32300
O 	O 	0.92013 0.91158 0.14198 -0.48200
O 	O 	0.99113 0.91158 0.14207 -0.47600
C 	C 	0.77573 0.54227 0.36403 -0.23400
C 	C 	0.77473 0.49727 0.36322 0.11200
H 	H 	0.78483 0.48857 0.35037 -0.00200
C 	C 	0.75983 0.46517 0.38022 -0.10400
H 	H 	0.75953 0.43497 0.37887 0.07300
C 	C 	0.74523 0.47677 0.39935 0.01200
C 	C 	0.74813 0.52207 0.40104 -0.08100
H 	H 	0.73963 0.53147 0.41417 0.05000
C 	C 	0.76343 0.55357 0.38380 0.09200
H 	H 	0.76563 0.58457 0.38547 -0.03100
C 	C 	0.72873 0.44137 0.41767 0.19000
O 	O 	0.72423 0.40067 0.41444 -0.38100
O 	O 	0.72163 0.45487 0.43547 -0.22700
C 	C 	0.76683 0.54077 0.36363 -0.24100
C 	C 	0.72293 0.49567 0.36260 0.08700
H 	H 	0.70463 0.48667 0.34967 0.00600
C 	C 	0.70543 0.46387 0.37977 -0.08200
H 	H 	0.67583 0.43337 0.37847 0.06600
C 	C 	0.73153 0.47697 0.39909 -0.00300
C 	C 	0.77323 0.52237 0.40085 -0.05900
H 	H 	0.78973 0.53257 0.41427 0.04300
C 	C 	0.79143 0.55337 0.38321 0.09400
H 	H 	0.82123 0.58377 0.38457 -0.02900
C 	C 	0.71373 0.44077 0.41717 0.20400
O 	O 	0.67733 0.40007 0.41379 -0.38600
O 	O 	0.73433 0.45417 0.43517 -0.20900
Co	Co	0.02410 0.51198 0.63711 1.14000
Co	Co	0.96073 0.48029 0.59876 1.13900
Zn	Zn	0.70037 0.40079 0.45607 1.22000
B 	B 	0.09090 0.54470 0.67650 1.43200
O 	O 	0.10190 0.51230 0.66475 -0.54300
N 	N 	0.07520 0.49160 0.64655 -0.15300
C 	C 	0.08430 0.45930 0.63904 0.09200
H 	H 	0.10800 0.45440 0.64630 0.03500
C 	C 	0.06110 0.42930 0.62030 -0.20300
C 	C 	0.02680 0.43420 0.60723 0.29600
C 	C 	0.00880 0.40350 0.58860 -0.20700
C 	C 	0.02200 0.36750 0.58485 0.15500
H 	H 	0.00970 0.34740 0.57250 -0.04700
C 	C 	0.05230 0.36050 0.59867 -0.31200
C 	C 	0.07120 0.39170 0.61599 0.15500
H 	H 	0.09230 0.38740 0.62550 -0.03400
C 	C 	0.97670 0.40720 0.57340 0.10200
H 	H 	0.97060 0.38850 0.56060 0.02200
N 	N 	0.95580 0.43230 0.57480 -0.16100
O 	O 	0.92550 0.42480 0.55754 -0.55100
B 	B 	0.89540 0.44820 0.55879 1.60500
O 	O 	0.03870 0.51810 0.68461 -0.51700
N 	N 	0.00340 0.50050 0.66919 -0.16100
C 	C 	0.96080 0.47890 0.67760 0.07200
H 	H 	0.96000 0.47690 0.69280 0.00200
C 	C 	0.91380 0.45720 0.66706 -0.18200
C 	C 	0.91000 0.45550 0.64415 0.25700
C 	C 	0.86220 0.43530 0.63492 -0.17600
C 	C 	0.82170 0.42250 0.64866 0.10600
H 	H 	0.79020 0.41040 0.64240 -0.02400
C 	C 	0.82550 0.42660 0.67081 -0.25200
C 	C 	0.87230 0.44390 0.67979 0.10600
H 	H 	0.87590 0.44670 0.69490 -0.04400
C 	C 	0.85310 0.42920 0.61203 0.08200
H 	H 	0.81980 0.41430 0.60770 0.02900
N 	N 	0.88440 0.44150 0.59710 -0.16000
O 	O 	0.86150 0.43080 0.57730 -0.54300
O 	O 	0.10150 0.58980 0.66458 -0.51000
N 	N 	0.07480 0.58370 0.64695 -0.15000
C 	C 	0.08300 0.62490 0.63941 0.08500
H 	H 	0.10570 0.65340 0.64710 0.03700
C 	C 	0.06130 0.63240 0.62046 -0.19500
C 	C 	0.02750 0.59290 0.60699 0.28500
C 	C 	0.00780 0.60550 0.58907 -0.21000
C 	C 	0.02090 0.65400 0.58572 0.16300
H 	H 	0.00670 0.66120 0.57380 -0.04900
C 	C 	0.05360 0.69300 0.59854 -0.32600
C 	C 	0.07300 0.68060 0.61577 0.15700
H 	H 	0.09550 0.70620 0.62490 -0.03400
C 	C 	0.97370 0.56970 0.57390 0.10500
H 	H 	0.96450 0.58200 0.56190 0.02100
N 	N 	0.95490 0.52380 0.57511 -0.16300
O 	O 	0.92430 0.50180 0.55777 -0.55200
C 	C 	0.86240 0.43080 0.53770 -0.71600
C 	C 	0.84830 0.38660 0.52784 0.40900
H 	H 	0.85980 0.36610 0.53350 -0.10200
C 	C 	0.81790 0.37080 0.51004 -0.30000
H 	H 	0.80820 0.33970 0.50390 0.13900
C 	C 	0.80170 0.40060 0.50130 0.11800
C 	C 	0.81660 0.44570 0.51036 -0.29200
H 	H 	0.80620 0.46670 0.50430 0.13600
C 	C 	0.84650 0.46060 0.52831 0.39000
H 	H 	0.85640 0.49190 0.53440 -0.09800
O 	O 	0.01480 0.46630 0.61089 -0.52900
C 	C 	0.06370 0.31910 0.59460 0.68300
C 	C 	0.08360 0.30490 0.61360 -0.98200
H 	H 	0.11150 0.33430 0.61970 0.31600
H 	H 	0.09430 0.28200 0.60890 0.28300
H 	H 	0.05790 0.28920 0.62450 0.29600
C 	C 	0.02110 0.27360 0.58560 -0.95400
H 	H 	0.00780 0.28220 0.57320 0.28500
H 	H 	0.99570 0.25800 0.59660 0.28000
H 	H 	0.03210 0.25080 0.58110 0.26800
C 	C 	0.10220 0.34060 0.57630 -0.88700
H 	H 	0.13110 0.37070 0.58130 0.27200
H 	H 	0.08780 0.34800 0.56390 0.27000
H 	H 	0.11170 0.31650 0.57210 0.25000
O 	O 	0.94850 0.47450 0.63189 -0.52100
C 	C 	0.78100 0.41390 0.68530 0.57500
C 	C 	0.79140 0.45500 0.70040 -0.86500
H 	H 	0.82140 0.46380 0.70850 0.24900
H 	H 	0.76390 0.44460 0.71030 0.24400
H 	H 	0.79600 0.48360 0.69220 0.25200
C 	C 	0.77440 0.36870 0.69850 -0.79300
H 	H 	0.76760 0.34170 0.68870 0.23000
H 	H 	0.74710 0.35840 0.70850 0.21700
H 	H 	0.80460 0.37790 0.70650 0.22900
C 	C 	0.73440 0.39900 0.67220 -0.84500
H 	H 	0.72840 0.37210 0.66250 0.25200
H 	H 	0.73840 0.42710 0.66380 0.25100
H 	H 	0.70640 0.38820 0.68200 0.23500
O 	O 	0.01530 0.54830 0.61106 -0.52300
C 	C 	0.06690 0.74570 0.59320 0.70500
C 	C 	0.08790 0.78170 0.61100 -1.02700
H 	H 	0.11360 0.77820 0.61820 0.33100
H 	H 	0.06200 0.77580 0.62130 0.30800
H 	H 	0.10200 0.81500 0.60520 0.29600
C 	C 	0.10730 0.76340 0.57580 -0.88500
H 	H 	0.09520 0.74070 0.56360 0.26900
H 	H 	0.13660 0.76440 0.58170 0.27100
H 	H 	0.11560 0.79630 0.57090 0.24800
C 	C 	0.02710 0.75120 0.58210 -0.95400
H 	H 	0.01320 0.72740 0.57040 0.28700
H 	H 	0.04120 0.78450 0.57630 0.27000
H 	H 	0.00130 0.74530 0.59240 0.27900
C 	C 	0.76710 0.38310 0.48243 0.32300
O 	O 	0.75509 0.34189 0.47531 -0.48200
O 	O 	0.75509 0.41289 0.47540 -0.47700
C 	C 	0.12440 0.56680 0.69736 -0.23400
C 	C 	0.16940 0.61080 0.69655 0.11200
H 	H 	0.17810 0.62960 0.68370 -0.00200
C 	C 	0.20150 0.62800 0.71355 -0.10400
H 	H 	0.23170 0.65790 0.71220 0.07300
C 	C 	0.18990 0.60180 0.73268 0.01200
C 	C 	0.14460 0.55940 0.73437 -0.08100
H 	H 	0.13520 0.54150 0.74750 0.05000
C 	C 	0.11310 0.54320 0.71713 0.09200
H 	H 	0.08210 0.51440 0.71880 -0.03100
C 	C 	0.22530 0.62070 0.75100 0.19000
O 	O 	0.26600 0.65690 0.74777 -0.38100
O 	O 	0.21180 0.60010 0.76880 -0.22700
C 	C 	0.12590 0.55940 0.69696 -0.24100
C 	C 	0.17100 0.56060 0.69593 0.08700
H 	H 	0.18000 0.55130 0.68300 0.00600
C 	C 	0.20280 0.57490 0.71310 -0.08200
H 	H 	0.23330 0.57580 0.71180 0.06600
C 	C 	0.18970 0.58790 0.73242 -0.00300
C 	C 	0.14430 0.58420 0.73418 -0.05900
H 	H 	0.13410 0.59050 0.74760 0.04300
C 	C 	0.11330 0.57140 0.71654 0.09400
H 	H 	0.08290 0.57080 0.71790 -0.02900
C 	C 	0.22590 0.60630 0.75050 0.20400
O 	O 	0.26660 0.61060 0.74712 -0.38600
O 	O 	0.21250 0.61350 0.76850 -0.20900
Co	Co	0.69077 0.84531 0.97044 1.14000
Co	Co	0.62740 0.81362 0.93209 1.13900
Zn	Zn	0.36704 0.73412 0.78940 1.22000
B 	B 	0.75757 0.87803 0.00983 1.43200
O 	O 	0.76857 0.84563 0.99808 -0.54300
N 	N 	0.74187 0.82493 0.97988 -0.15300
C 	C 	0.75097 0.79263 0.97237 0.09200
H 	H 	0.77467 0.78773 0.97963 0.03500
C 	C 	0.72777 0.76263 0.95363 -0.20300
C 	C 	0.69347 0.76753 0.94056 0.29600
C 	C 	0.67547 0.73683 0.92193 -0.20600
C 	C 	0.68867 0.70083 0.91818 0.15400
H 	H 	0.67637 0.68073 0.90583 -0.04700
C 	C 	0.71897 0.69383 0.93200 -0.31200
C 	C 	0.73787 0.72503 0.94932 0.15500
H 	H 	0.75897 0.72073 0.95883 -0.03400
C 	C 	0.64337 0.74053 0.90673 0.10200
H 	H 	0.63727 0.72183 0.89393 0.02200
N 	N 	0.62247 0.76563 0.90813 -0.16100
O 	O 	0.59217 0.75813 0.89087 -0.55100
B 	B 	0.56207 0.78153 0.89212 1.60500
O 	O 	0.70537 0.85143 0.01794 -0.51700
N 	N 	0.67007 0.83383 0.00252 -0.16100
C 	C 	0.62747 0.81223 0.01093 0.07200
H 	H 	0.62667 0.81023 0.02613 0.00200
C 	C 	0.58047 0.79053 0.00039 -0.18200
C 	C 	0.57667 0.78883 0.97748 0.25700
C 	C 	0.52887 0.76863 0.96825 -0.17600
C 	C 	0.48837 0.75583 0.98199 0.10600
H 	H 	0.45687 0.74373 0.97573 -0.02400
C 	C 	0.49217 0.75993 0.00414 -0.25200
C 	C 	0.53897 0.77723 0.01312 0.10600
H 	H 	0.54257 0.78003 0.02823 -0.04400
C 	C 	0.51977 0.76253 0.94536 0.08200
H 	H 	0.48647 0.74763 0.94103 0.02900
N 	N 	0.55107 0.77483 0.93043 -0.16000
O 	O 	0.52817 0.76413 0.91063 -0.54200
O 	O 	0.76817 0.92313 0.99791 -0.50900
N 	N 	0.74147 0.91703 0.98028 -0.15000
C 	C 	0.74967 0.95823 0.97274 0.08400
H 	H 	0.77237 0.98673 0.98043 0.03800
C 	C 	0.72797 0.96573 0.95379 -0.19200
C 	C 	0.69417 0.92623 0.94032 0.28400
C 	C 	0.67447 0.93883 0.92240 -0.21000
C 	C 	0.68757 0.98733 0.91905 0.16600
H 	H 	0.67337 0.99453 0.90713 -0.04800
C 	C 	0.72027 0.02633 0.93187 -0.32800
C 	C 	0.73967 0.01393 0.94910 0.15400
H 	H 	0.76217 0.03953 0.95823 -0.03300
C 	C 	0.64037 0.90303 0.90723 0.10500
H 	H 	0.63117 0.91533 0.89523 0.02100
N 	N 	0.62157 0.85713 0.90844 -0.16300
O 	O 	0.59097 0.83513 0.89110 -0.55200
C 	C 	0.52907 0.76413 0.87103 -0.71600
C 	C 	0.51497 0.71993 0.86117 0.40900
H 	H 	0.52647 0.69943 0.86683 -0.10300
C 	C 	0.48457 0.70413 0.84337 -0.30000
H 	H 	0.47487 0.67303 0.83723 0.13900
C 	C 	0.46837 0.73393 0.83463 0.11800
C 	C 	0.48327 0.77903 0.84369 -0.29200
H 	H 	0.47287 0.80003 0.83763 0.13600
C 	C 	0.51317 0.79393 0.86164 0.39000
H 	H 	0.52307 0.82523 0.86773 -0.09800
O 	O 	0.68147 0.79963 0.94422 -0.52900
C 	C 	0.73037 0.65243 0.92793 0.68300
C 	C 	0.75027 0.63823 0.94693 -0.98200
H 	H 	0.77817 0.66763 0.95303 0.31600
H 	H 	0.76097 0.61533 0.94223 0.28300
H 	H 	0.72457 0.62253 0.95783 0.29600
C 	C 	0.68777 0.60693 0.91893 -0.95300
H 	H 	0.67447 0.61553 0.90653 0.28500
H 	H 	0.66237 0.59133 0.92993 0.27900
H 	H 	0.69877 0.58413 0.91443 0.26800
C 	C 	0.76887 0.67393 0.90963 -0.88700
H 	H 	0.79777 0.70403 0.91463 0.27200
H 	H 	0.75447 0.68133 0.89723 0.27000
H 	H 	0.77837 0.64983 0.90543 0.25000
O 	O 	0.61517 0.80783 0.96522 -0.52100
C 	C 	0.44767 0.74723 0.01863 0.57500
C 	C 	0.45807 0.78833 0.03373 -0.86500
H 	H 	0.48807 0.79713 0.04183 0.24900
H 	H 	0.43057 0.77793 0.04363 0.24400
H 	H 	0.46267 0.81693 0.02553 0.25200
C 	C 	0.44107 0.70203 0.03183 -0.79300
H 	H 	0.43427 0.67503 0.02203 0.23000
H 	H 	0.41377 0.69173 0.04183 0.21700
H 	H 	0.47127 0.71123 0.03983 0.23000
C 	C 	0.40107 0.73233 0.00553 -0.84500
H 	H 	0.39507 0.70543 0.99583 0.25200
H 	H 	0.40507 0.76043 0.99713 0.25200
H 	H 	0.37307 0.72153 0.01533 0.23500
O 	O 	0.68197 0.88163 0.94439 -0.52300
C 	C 	0.73357 0.07903 0.92653 0.70400
C 	C 	0.75457 0.11503 0.94433 -1.02600
H 	H 	0.78027 0.11153 0.95153 0.33000
H 	H 	0.72867 0.10913 0.95463 0.30700
H 	H 	0.76867 0.14833 0.93853 0.29600
C 	C 	0.77397 0.09673 0.90913 -0.88400
H 	H 	0.76187 0.07403 0.89693 0.26800
H 	H 	0.80327 0.09773 0.91503 0.27100
H 	H 	0.78227 0.12963 0.90423 0.24700
C 	C 	0.69377 0.08453 0.91543 -0.95300
H 	H 	0.67987 0.06073 0.90373 0.28600
H 	H 	0.70787 0.11783 0.90963 0.26900
H 	H 	0.66797 0.07863 0.92573 0.27800
C 	C 	0.43377 0.71643 0.81576 0.32300
O 	O 	0.42176 0.67522 0.80864 -0.48200
O 	O 	0.42176 0.74622 0.80873 -0.47700
C 	C 	0.79107 0.90013 0.03069 -0.23400
C 	C 	0.83607 0.94413 0.02988 0.11200
H 	H 	0.84477 0.96293 0.01703 -0.00200
C 	C 	0.86817 0.96133 0.04688 -0.10400
H 	H 	0.89837 0.99123 0.04553 0.07400
C 	C 	0.85657 0.93513 0.06601 0.01200
C 	C 	0.81127 0.89273 0.06770 -0.08100
H 	H 	0.80187 0.87483 0.08083 0.05000
C 	C 	0.77977 0.87653 0.05046 0.09200
H 	H 	0.74877 0.84773 0.05213 -0.03100
C 	C 	0.89197 0.95403 0.08433 0.19000
O 	O 	0.93267 0.99023 0.08110 -0.38000
O 	O 	0.87847 0.93343 0.10213 -0.22700
C 	C 	0.79257 0.89273 0.03029 -0.24100
C 	C 	0.83767 0.89393 0.02926 0.08700
H 	H 	0.84667 0.88463 0.01633 0.00600
C 	C 	0.86947 0.90823 0.04643 -0.08200
H 	H 	0.89997 0.90913 0.04513 0.06600
C 	C 	0.85637 0.92123 0.06575 -0.00300
C 	C 	0.81097 0.91753 0.06751 -0.05900
H 	H 	0.80077 0.92383 0.08093 0.04300
C 	C 	0.77997 0.90473 0.04987 0.09400
H 	H 	0.74957 0.90413 0.05123 -0.02900
C 	C 	0.89257 0.93963 0.08383 0.20300
O 	O 	0.93327 0.94393 0.08045 -0.38500
O 	O 	0.87917 0.94683 0.10183 -0.20900
Co	Co	0.35743 0.17865 0.30378 1.14000
Co	Co	0.29406 0.14696 0.26543 1.13800
Zn	Zn	0.03370 0.06746 0.12274 1.21900
B 	B 	0.42423 0.21137 0.34317 1.43200
O 	O 	0.43523 0.17897 0.33142 -0.54300
N 	N 	0.40853 0.15827 0.31322 -0.15300
C 	C 	0.41763 0.12597 0.30571 0.09200
H 	H 	0.44133 0.12107 0.31297 0.03500
C 	C 	0.39443 0.09597 0.28697 -0.20300
C 	C 	0.36013 0.10087 0.27390 0.29600
C 	C 	0.34213 0.07017 0.25527 -0.20600
C 	C 	0.35533 0.03417 0.25152 0.15400
H 	H 	0.34303 0.01407 0.23917 -0.04600
C 	C 	0.38563 0.02717 0.26534 -0.31100
C 	C 	0.40453 0.05837 0.28266 0.15400
H 	H 	0.42563 0.05407 0.29217 -0.03400
C 	C 	0.31003 0.07387 0.24007 0.10100
H 	H 	0.30393 0.05517 0.22727 0.02200
N 	N 	0.28913 0.09897 0.24147 -0.16100
O 	O 	0.25883 0.09147 0.22421 -0.55100
B 	B 	0.22873 0.11487 0.22546 1.60500
O 	O 	0.37203 0.18477 0.35128 -0.51700
N 	N 	0.33673 0.16717 0.33586 -0.16100
C 	C 	0.29413 0.14557 0.34427 0.07200
H 	H 	0.29333 0.14357 0.35947 0.00200
C 	C 	0.24713 0.12387 0.33373 -0.18200
C 	C 	0.24333 0.12217 0.31082 0.25700
C 	C 	0.19553 0.10197 0.30159 -0.17600
C 	C 	0.15503 0.08917 0.31533 0.10600
H 	H 	0.12353 0.07707 0.30907 -0.02400
C 	C 	0.15883 0.09327 0.33748 -0.25100
C 	C 	0.20563 0.11057 0.34646 0.10500
H 	H 	0.20923 0.11337 0.36157 -0.04300
C 	C 	0.18643 0.09587 0.27870 0.08200
H 	H 	0.15313 0.08097 0.27437 0.02800
N 	N 	0.21773 0.10817 0.26377 -0.16000
O 	O 	0.19483 0.09747 0.24397 -0.54300
O 	O 	0.43483 0.25647 0.33125 -0.51000
N 	N 	0.40813 0.25037 0.31362 -0.15000
C 	C 	0.41633 0.29157 0.30608 0.08400
H 	H 	0.43903 0.32007 0.31377 0.03700
C 	C 	0.39463 0.29907 0.28713 -0.19500
C 	C 	0.36083 0.25957 0.27366 0.28400
C 	C 	0.34113 0.27217 0.25574 -0.21000
C 	C 	0.35423 0.32067 0.25239 0.16300
H 	H 	0.34003 0.32787 0.24047 -0.04800
C 	C 	0.38693 0.35967 0.26521 -0.32600
C 	C 	0.40633 0.34727 0.28244 0.15700
H 	H 	0.42883 0.37287 0.29157 -0.03400
C 	C 	0.30703 0.23637 0.24057 0.10500
H 	H 	0.29783 0.24867 0.22857 0.02100
N 	N 	0.28823 0.19047 0.24178 -0.16300
O 	O 	0.25763 0.16847 0.22444 -0.55200
C 	C 	0.19573 0.09747 0.20437 -0.71600
C 	C 	0.18163 0.05327 0.19451 0.40800
H 	H 	0.19313 0.03277 0.20017 -0.10300
C 	C 	0.15123 0.03747 0.17671 -0.30000
H 	H 	0.14153 0.00637 0.17057 0.13800
C 	C 	0.13503 0.06727 0.16797 0.11700
C 	C 	0.14993 0.11237 0.17703 -0.29200
H 	H 	0.13953 0.13337 0.17097 0.13500
C 	C 	0.17983 0.12727 0.19498 0.38900
H 	H 	0.18973 0.15857 0.20107 -0.09800
O 	O 	0.34813 0.13297 0.27756 -0.52900
C 	C 	0.39703 0.98577 0.26127 0.68100
C 	C 	0.41693 0.97157 0.28027 -0.98200
H 	H 	0.44483 0.00097 0.28637 0.31600
H 	H 	0.42763 0.94867 0.27557 0.28200
H 	H 	0.39123 0.95587 0.29117 0.29600
C 	C 	0.35443 0.94027 0.25227 -0.95200
H 	H 	0.34113 0.94887 0.23987 0.28500
H 	H 	0.32903 0.92467 0.26327 0.27900
H 	H 	0.36543 0.91747 0.24777 0.26800
C 	C 	0.43553 0.00727 0.24297 -0.88500
H 	H 	0.46443 0.03737 0.24797 0.27100
H 	H 	0.42113 0.01467 0.23057 0.26900
H 	H 	0.44503 0.98317 0.23877 0.24900
O 	O 	0.28183 0.14117 0.29856 -0.52100
C 	C 	0.11433 0.08057 0.35197 0.57400
C 	C 	0.12473 0.12167 0.36707 -0.86300
H 	H 	0.15473 0.13047 0.37517 0.24800
H 	H 	0.09723 0.11127 0.37697 0.24300
H 	H 	0.12933 0.15027 0.35887 0.25100
C 	C 	0.10773 0.03537 0.36517 -0.79100
H 	H 	0.10093 0.00837 0.35537 0.23000
H 	H 	0.08043 0.02507 0.37517 0.21700
H 	H 	0.13793 0.04457 0.37317 0.22900
C 	C 	0.06773 0.06567 0.33887 -0.84200
H 	H 	0.06173 0.03877 0.32917 0.25100
H 	H 	0.07173 0.09377 0.33047 0.25000
H 	H 	0.03973 0.05487 0.34867 0.23400
O 	O 	0.34863 0.21497 0.27773 -0.52300
C 	C 	0.40023 0.41237 0.25987 0.70400
C 	C 	0.42123 0.44837 0.27767 -1.02600
H 	H 	0.44693 0.44487 0.28487 0.33000
H 	H 	0.39533 0.44247 0.28797 0.30700
H 	H 	0.43533 0.48167 0.27187 0.29600
C 	C 	0.44063 0.43007 0.24247 -0.88500
H 	H 	0.42853 0.40737 0.23027 0.26900
H 	H 	0.46993 0.43107 0.24837 0.27100
H 	H 	0.44893 0.46297 0.23757 0.24800
C 	C 	0.36043 0.41787 0.24877 -0.95300
H 	H 	0.34653 0.39407 0.23707 0.28600
H 	H 	0.37453 0.45117 0.24297 0.26900
H 	H 	0.33463 0.41197 0.25907 0.27800
C 	C 	0.10043 0.04977 0.14910 0.32300
O 	O 	0.08842 0.00856 0.14198 -0.48300
O 	O 	0.08842 0.07956 0.14207 -0.47800
C 	C 	0.45773 0.23347 0.36403 -0.23400
C 	C 	0.50273 0.27747 0.36322 0.11200
H 	H 	0.51143 0.29627 0.35037 -0.00200
C 	C 	0.53483 0.29467 0.38022 -0.10400
H 	H 	0.56503 0.32457 0.37887 0.07300
C 	C 	0.52323 0.26847 0.39935 0.01200
C 	C 	0.47793 0.22607 0.40104 -0.08100
H 	H 	0.46853 0.20817 0.41417 0.05000
C 	C 	0.44643 0.20987 0.38380 0.09200
H 	H 	0.41543 0.18107 0.38547 -0.03100
C 	C 	0.55863 0.28737 0.41767 0.19000
O 	O 	0.59933 0.32357 0.41444 -0.38100
O 	O 	0.54513 0.26677 0.43547 -0.22700
C 	C 	0.45923 0.22607 0.36363 -0.24100
C 	C 	0.50433 0.22727 0.36260 0.08700
H 	H 	0.51333 0.21797 0.34967 0.00600
C 	C 	0.53613 0.24157 0.37977 -0.08200
H 	H 	0.56663 0.24247 0.37847 0.06600
C 	C 	0.52303 0.25457 0.39909 -0.00300
C 	C 	0.47763 0.25087 0.40085 -0.05900
H 	H 	0.46743 0.25717 0.41427 0.04300
C 	C 	0.44663 0.23807 0.38321 0.09400
H 	H 	0.41623 0.23747 0.38457 -0.02900
C 	C 	0.55923 0.27297 0.41717 0.20400
O 	O 	0.59993 0.27727 0.41379 -0.38600
O 	O 	0.54583 0.28017 0.43517 -0.20900
Zn	Zn	0.33333 0.66667 0.74856 1.26100
Zn	Zn	0.00000 0.00000 0.08189 1.26000
Zn	Zn	0.66667 0.33333 0.41523 1.26100
O 	O 	0.66667 0.33333 0.44718 -0.90000
O 	O 	0.33333 0.66667 0.78051 -0.90000
O 	O 	-0.00000 0.00000 0.11385 -0.90200
