data_crystal

_cell_length_a 40.84500
_cell_length_b 42.36700
_cell_length_c 34.54700
_cell_angle_alpha 90.00000
_cell_angle_beta  115.81600
_cell_angle_gamma 90.00000

_symmetry_space_group_name_	'P 1'
_symmetry_space_group_name_H-M	'P 1'

loop_
_symmetry_equiv_pos_as_xyz
  x,y,z

loop_
_atom_site_label
_atom_site_type_symbol
_atom_site_fract_x
_atom_site_fract_y
_atom_site_fract_z
_atom_site_charge
Zn	Zn	0.00374 0.91164 0.13000 1.19100
Zn	Zn	0.04890 0.86507 0.11157 1.19300
Zn	Zn	0.47740 0.13126 0.57873 1.19400
Zn	Zn	0.51979 0.08404 0.55561 1.19400
Zn	Zn	0.24734 0.82115 0.55412 1.20800
Zn	Zn	0.25701 0.89548 0.56353 1.22300
Zn	Zn	0.31938 0.84741 0.62691 1.18100
Zn	Zn	0.24428 0.85505 0.63393 1.21400
O 	O 	0.26550 0.85570 0.59420 -0.95000
C 	C 	0.58620 0.00830 0.51850 -0.73900
C 	C 	0.61870 0.01550 0.51620 0.47600
H 	H 	0.62780 0.03650 0.52240 -0.11500
C 	C 	0.63830 0.99340 0.50520 -0.43800
H 	H 	0.66060 0.99920 0.50460 0.19700
Br	Br	0.65013 0.93162 0.47872 -0.28800
C 	C 	0.62520 0.96300 0.49510 0.37500
C 	C 	0.59310 0.95550 0.49640 -0.45300
H 	H 	0.58380 0.93470 0.48930 0.18900
C 	C 	0.57400 0.97730 0.50770 0.48100
H 	H 	0.55180 0.97110 0.50830 -0.13300
B 	B 	0.56240 0.03260 0.53110 1.54900
O 	O 	0.58990 0.06180 0.55470 -0.42600
N 	N 	0.57330 0.08670 0.56130 -0.15300
C 	C 	0.59630 0.11200 0.57500 0.03300
H 	H 	0.62020 0.10910 0.57730 0.05100
C 	C 	0.58750 0.14380 0.58680 -0.10100
C 	C 	0.55650 0.15040 0.59330 0.22600
C 	C 	0.55200 0.18200 0.60420 -0.11100
C 	C 	0.57860 0.20480 0.60850 -0.00300
H 	H 	0.57590 0.22570 0.61650 0.04000
C 	C 	0.60860 0.19750 0.60130 -0.03500
C 	C 	0.61310 0.16680 0.59070 -0.00600
H 	H 	0.63380 0.16140 0.58620 0.03700
C 	C 	0.52120 0.19320 0.61040 0.06300
H 	H 	0.52120 0.21480 0.61760 0.04800
N 	N 	0.49430 0.17680 0.60710 -0.15000
O 	O 	0.46980 0.19390 0.61640 -0.54800
B 	B 	0.43310 0.18050 0.60220 1.66600
O 	O 	0.53410 0.04440 0.49070 -0.54100
N 	N 	0.51070 0.06770 0.49290 -0.15000
C 	C 	0.48590 0.07590 0.45670 0.05400
H 	H 	0.48700 0.06640 0.43240 0.04600
C 	C 	0.45610 0.09760 0.44720 -0.10300
C 	C 	0.45000 0.11420 0.47980 0.21000
C 	C 	0.41930 0.13500 0.46630 -0.09700
C 	C 	0.39590 0.13820 0.42210 -0.00900
H 	H 	0.37530 0.15170 0.41340 0.04700
C 	C 	0.40210 0.12200 0.39110 -0.03200
C 	C 	0.43220 0.10210 0.40360 -0.00700
H 	H 	0.43670 0.09140 0.38220 0.03600
C 	C 	0.41100 0.15410 0.49570 0.05600
H 	H 	0.38940 0.16640 0.48350 0.06500
N 	N 	0.42970 0.15620 0.53620 -0.15100
O 	O 	0.41440 0.17720 0.55560 -0.55800
O 	O 	0.55160 0.01900 0.56060 -0.58400
N 	N 	0.52810 0.03570 0.57250 -0.14600
C 	C 	0.50990 0.01830 0.58610 0.04700
H 	H 	0.51410 0.99620 0.58660 0.05700
C 	C 	0.48350 0.02860 0.60090 -0.09400
C 	C 	0.47620 0.06130 0.60560 0.19400
C 	C 	0.44870 0.06780 0.61970 -0.09400
C 	C 	0.42850 0.04310 0.62630 -0.00600
H 	H 	0.41030 0.04800 0.63550 0.04500
C 	C 	0.43480 0.01180 0.61950 -0.03100
C 	C 	0.46280 0.00490 0.60830 -0.01000
H 	H 	0.46800 0.98340 0.60540 0.04300
C 	C 	0.43890 0.09930 0.62680 0.06000
H 	H 	0.42270 0.10090 0.63980 0.05500
N 	N 	0.44960 0.12500 0.61750 -0.15500
O 	O 	0.43370 0.15220 0.62640 -0.55700
C 	C 	0.41120 0.20650 0.61480 -0.78800
C 	C 	0.41310 0.20940 0.65610 0.52100
H 	H 	0.42800 0.19500 0.67760 -0.12500
C 	C 	0.39420 0.23210 0.66690 -0.47400
H 	H 	0.39580 0.23260 0.69520 0.21300
Br	Br	0.34500 0.28409 0.65010 -0.26500
C 	C 	0.37340 0.25390 0.63720 0.40300
C 	C 	0.37140 0.25290 0.59650 -0.47300
H 	H 	0.35790 0.26840 0.57580 0.22000
C 	C 	0.38950 0.22920 0.58600 0.52500
H 	H 	0.38690 0.22830 0.55730 -0.13000
O 	O 	0.53220 0.12880 0.58770 -0.51700
C 	C 	0.63410 0.22250 0.60130 0.08200
C 	C 	0.64440 0.22420 0.56790 -0.12900
H 	H 	0.63640 0.20850 0.54610 0.07700
C 	C 	0.66640 0.24860 0.56630 0.06000
H 	H 	0.67240 0.25000 0.54270 0.02800
C 	C 	0.67970 0.27120 0.59880 -0.13800
C 	C 	0.67030 0.26870 0.63290 0.06400
H 	H 	0.67990 0.28340 0.65590 0.03000
C 	C 	0.64740 0.24520 0.63370 -0.13000
H 	H 	0.64050 0.24450 0.65670 0.08300
C 	C 	0.70300 0.29810 0.59670 0.40600
O 	O 	0.71040 0.29850 0.56480 -0.51300
O 	O 	0.47190 0.11000 0.52100 -0.53500
O 	O 	0.71380 0.31720 0.62690 -0.50200
C 	C 	0.37830 0.12620 0.34440 0.08400
C 	C 	0.39170 0.12310 0.31370 -0.13300
H 	H 	0.41650 0.11770 0.32280 0.07500
C 	C 	0.36970 0.12770 0.27040 0.06500
H 	H 	0.37970 0.12630 0.25030 0.01300
C 	C 	0.33270 0.13460 0.25620 -0.14900
C 	C 	0.31910 0.13730 0.28640 0.06900
H 	H 	0.29400 0.14160 0.27730 0.03000
C 	C 	0.34170 0.13370 0.33010 -0.13100
H 	H 	0.33210 0.13650 0.35050 0.08900
C 	C 	0.30830 0.13750 0.20870 0.40400
O 	O 	0.49490 0.08430 0.59880 -0.50400
O 	O 	0.32270 0.13340 0.18310 -0.51400
O 	O 	0.27530 0.14250 0.19480 -0.50000
C 	C 	0.40960 0.98650 0.61960 0.08900
C 	C 	0.37280 0.99330 0.60480 -0.13800
H 	H 	0.36450 0.01440 0.59800 0.09400
C 	C 	0.34840 0.96930 0.60010 0.06800
H 	H 	0.32330 0.97420 0.58920 0.02800
C 	C 	0.35990 0.93820 0.61100 -0.13800
C 	C 	0.39720 0.93180 0.62820 0.06600
H 	H 	0.40600 0.91100 0.63700 0.01900
C 	C 	0.42140 0.95600 0.63230 -0.13500
H 	H 	0.44670 0.95160 0.64410 0.07800
C 	C 	0.33200 0.91230 0.60240 0.41400
O 	O 	0.34450 0.88570 0.61820 -0.48800
O 	O 	0.29910 0.91950 0.58090 -0.52300
C 	C 	0.93030 0.98550 0.15850 -0.74900
C 	C 	0.94480 0.01070 0.18690 0.49900
H 	H 	0.97060 0.01230 0.20200 -0.12100
C 	C 	0.92400 0.03330 0.19410 -0.46800
H 	H 	0.93520 0.04940 0.21480 0.21200
Br	Br	0.85755 0.06425 0.17900 -0.27600
C 	C 	0.88680 0.03230 0.17140 0.39400
C 	C 	0.87110 0.00870 0.14230 -0.46300
H 	H 	0.84540 0.00800 0.12620 0.20600
C 	C 	0.89240 0.98570 0.13620 0.48400
H 	H 	0.88080 0.96940 0.11600 -0.12100
B 	B 	0.95450 0.95860 0.15140 1.52400
O 	O 	0.97120 0.97680 0.12130 -0.40400
N 	N 	0.99780 0.96070 0.11710 -0.15800
C 	C 	0.01940 0.97900 0.10650 0.03400
H 	H 	0.01350 0.00080 0.10200 0.05100
C 	C 	0.05200 0.96820 0.10100 -0.10200
C 	C 	0.05890 0.93610 0.09540 0.21800
C 	C 	0.08990 0.92970 0.08790 -0.10900
C 	C 	0.11210 0.95500 0.08760 -0.00100
H 	H 	0.13280 0.95030 0.08280 0.03700
C 	C 	0.10580 0.98640 0.09400 -0.03700
C 	C 	0.07500 0.99210 0.10010 -0.00300
H 	H 	0.06930 0.01330 0.10390 0.03700
C 	C 	0.10060 0.89830 0.08210 0.05600
H 	H 	0.12080 0.89690 0.07540 0.05200
N 	N 	0.08650 0.87230 0.08480 -0.15200
O 	O 	0.10520 0.84560 0.08010 -0.54100
B 	B 	0.09600 0.81460 0.09340 1.72600
O 	O 	0.98520 0.95170 0.19210 -0.54400
N 	N 	0.00980 0.92890 0.19240 -0.14400
C 	C 	0.03440 0.92240 0.22970 0.04500
H 	H 	0.03360 0.93360 0.25310 0.06100
C 	C 	0.06370 0.89950 0.24010 -0.10600
C 	C 	0.06870 0.87980 0.20930 0.22000
C 	C 	0.09910 0.85850 0.22440 -0.11000
C 	C 	0.12190 0.85700 0.26870 -0.00800
H 	H 	0.14140 0.84230 0.27870 0.03400
C 	C 	0.11700 0.87610 0.29840 -0.03400
C 	C 	0.08820 0.89720 0.28380 -0.01000
H 	H 	0.08490 0.91040 0.30400 0.04000
C 	C 	0.10830 0.83810 0.19680 0.05300
H 	H 	0.12830 0.82430 0.21070 0.04700
N 	N 	0.09230 0.83690 0.15610 -0.13800
O 	O 	0.10770 0.81570 0.13860 -0.60700
O 	O 	0.93160 0.93410 0.12650 -0.57800
N 	N 	0.94720 0.90880 0.11480 -0.15000
C 	C 	0.92590 0.88550 0.10010 0.05300
H 	H 	0.90210 0.88780 0.09830 0.04700
C 	C 	0.93400 0.85560 0.08580 -0.10900
C 	C 	0.96710 0.84890 0.08250 0.21700
C 	C 	0.97130 0.81770 0.06970 -0.11000
C 	C 	0.94490 0.79450 0.06260 -0.00500
H 	H 	0.94880 0.77370 0.05500 0.03400
C 	C 	0.91300 0.80100 0.06650 -0.03900
C 	C 	0.90820 0.83130 0.07770 -0.00800
H 	H 	0.88640 0.83610 0.08020 0.03700
C 	C 	0.00330 0.80700 0.06500 0.05500
H 	H 	0.00250 0.78670 0.05320 0.04600
N 	N 	0.03240 0.82300 0.07570 -0.14100
O 	O 	0.05800 0.80660 0.06890 -0.59200
C 	C 	0.12020 0.78830 0.08500 -0.82000
C 	C 	0.15140 0.77490 0.11690 0.53000
H 	H 	0.16010 0.78330 0.14520 -0.12800
C 	C 	0.11000 0.77520 0.04430 0.53300
H 	H 	0.08900 0.78350 0.02100 -0.13600
C 	C 	0.17060 0.75010 0.11000 -0.48300
H 	H 	0.19120 0.74130 0.13320 0.21500
C 	C 	0.12860 0.75090 0.03610 -0.49000
H 	H 	0.12040 0.74290 0.00780 0.22400
Br	Br	0.18548 0.70600 0.05700 -0.27000
C 	C 	0.15910 0.73850 0.06910 0.40300
O 	O 	0.03830 0.91340 0.09770 -0.52000
C 	C 	0.13090 0.01200 0.09560 0.08500
C 	C 	0.13220 0.04070 0.11580 -0.12800
H 	H 	0.11570 0.04440 0.12800 0.08100
C 	C 	0.15670 0.06400 0.11880 0.06400
H 	H 	0.15690 0.08330 0.13290 0.03000
C 	C 	0.18110 0.05960 0.10110 -0.13300
C 	C 	0.18040 0.03080 0.08140 0.06300
H 	H 	0.19720 0.02710 0.06970 0.03000
C 	C 	0.15580 0.00760 0.07850 -0.12700
H 	H 	0.15580 0.98820 0.06460 0.08000
C 	C 	0.20720 0.08480 0.10200 0.39600
O 	O 	0.20920 0.10960 0.12230 -0.48200
O 	O 	0.04560 0.88050 0.16890 -0.53300
O 	O 	0.22660 0.07830 0.08240 -0.48200
C 	C 	0.14240 0.87440 0.34480 0.07300
C 	C 	0.15230 0.90090 0.37140 -0.11700
H 	H 	0.14290 0.92100 0.35950 0.07900
C 	C 	0.17570 0.89860 0.41470 0.05200
H 	H 	0.18250 0.91700 0.43210 0.03100
C 	C 	0.18920 0.86900 0.43280 -0.12700
C 	C 	0.17970 0.84240 0.40610 0.04700
H 	H 	0.18920 0.82240 0.41790 0.02700
C 	C 	0.15680 0.84510 0.36280 -0.12100
H 	H 	0.15080 0.82680 0.34500 0.06800
C 	C 	0.21310 0.86500 0.48040 0.38800
O 	O 	0.99210 0.87030 0.09080 -0.51600
O 	O 	0.22640 0.88990 0.50270 -0.49700
O 	O 	0.22080 0.83740 0.49460 -0.49100
C 	C 	0.88630 0.77540 0.06100 0.08000
C 	C 	0.89830 0.74510 0.07720 -0.13700
H 	H 	0.92340 0.74020 0.08900 0.07400
C 	C 	0.87370 0.72240 0.07620 0.06000
H 	H 	0.88230 0.70200 0.08720 0.01100
C 	C 	0.83680 0.72870 0.05960 -0.14800
C 	C 	0.82440 0.75840 0.04200 0.06200
H 	H 	0.79910 0.76310 0.02980 0.02800
C 	C 	0.84880 0.78100 0.04230 -0.13300
H 	H 	0.83990 0.80090 0.02950 0.08300
C 	C 	0.81010 0.70420 0.06030 0.39000
O 	O 	0.77750 0.71110 0.04530 -0.49500
O 	O 	0.82300 0.67810 0.07650 -0.52000
Zn	Zn	0.50374 0.41164 0.13000 1.19000
Zn	Zn	0.54890 0.36507 0.11157 1.19200
Zn	Zn	0.97740 0.63126 0.57873 1.19300
Zn	Zn	0.01979 0.58404 0.55561 1.19300
Zn	Zn	0.74734 0.32115 0.55412 1.20700
Zn	Zn	0.75701 0.39548 0.56353 1.22200
Zn	Zn	0.81938 0.34741 0.62691 1.18000
Zn	Zn	0.74428 0.35505 0.63393 1.21300
O 	O 	0.76550 0.35570 0.59420 -0.95100
C 	C 	0.08620 0.50830 0.51850 -0.74000
C 	C 	0.11870 0.51550 0.51620 0.47500
H 	H 	0.12780 0.53650 0.52240 -0.11600
C 	C 	0.13830 0.49340 0.50520 -0.43900
H 	H 	0.16060 0.49920 0.50460 0.19600
Br	Br	0.15013 0.43162 0.47872 -0.28900
C 	C 	0.12520 0.46300 0.49510 0.37400
C 	C 	0.09310 0.45550 0.49640 -0.45400
H 	H 	0.08380 0.43470 0.48930 0.18800
C 	C 	0.07400 0.47730 0.50770 0.48000
H 	H 	0.05180 0.47110 0.50830 -0.13400
B 	B 	0.06240 0.53260 0.53110 1.54800
O 	O 	0.08990 0.56180 0.55470 -0.42700
N 	N 	0.07330 0.58670 0.56130 -0.15400
C 	C 	0.09630 0.61200 0.57500 0.03200
H 	H 	0.12020 0.60910 0.57730 0.05000
C 	C 	0.08750 0.64380 0.58680 -0.10200
C 	C 	0.05650 0.65040 0.59330 0.22500
C 	C 	0.05200 0.68200 0.60420 -0.11200
C 	C 	0.07860 0.70480 0.60850 -0.00400
H 	H 	0.07590 0.72570 0.61650 0.03900
C 	C 	0.10860 0.69750 0.60130 -0.03600
C 	C 	0.11310 0.66680 0.59070 -0.00700
H 	H 	0.13380 0.66140 0.58620 0.03700
C 	C 	0.02120 0.69320 0.61040 0.06300
H 	H 	0.02120 0.71480 0.61760 0.04800
N 	N 	0.99430 0.67680 0.60710 -0.15000
O 	O 	0.96980 0.69390 0.61640 -0.54800
B 	B 	0.93310 0.68050 0.60220 1.66600
O 	O 	0.03410 0.54440 0.49070 -0.54100
N 	N 	0.01070 0.56770 0.49290 -0.15000
C 	C 	0.98590 0.57590 0.45670 0.05400
H 	H 	0.98700 0.56640 0.43240 0.04600
C 	C 	0.95610 0.59760 0.44720 -0.10300
C 	C 	0.95000 0.61420 0.47980 0.21000
C 	C 	0.91930 0.63500 0.46630 -0.09700
C 	C 	0.89590 0.63820 0.42210 -0.00900
H 	H 	0.87530 0.65170 0.41340 0.04700
C 	C 	0.90210 0.62200 0.39110 -0.03200
C 	C 	0.93220 0.60210 0.40360 -0.00700
H 	H 	0.93670 0.59140 0.38220 0.03600
C 	C 	0.91100 0.65410 0.49570 0.05600
H 	H 	0.88940 0.66640 0.48350 0.06500
N 	N 	0.92970 0.65620 0.53620 -0.15100
O 	O 	0.91440 0.67720 0.55560 -0.55800
O 	O 	0.05160 0.51900 0.56060 -0.58400
N 	N 	0.02810 0.53570 0.57250 -0.14600
C 	C 	0.00990 0.51830 0.58610 0.04800
H 	H 	0.01410 0.49620 0.58660 0.05700
C 	C 	0.98350 0.52860 0.60090 -0.09400
C 	C 	0.97620 0.56130 0.60560 0.19400
C 	C 	0.94870 0.56780 0.61970 -0.09400
C 	C 	0.92850 0.54310 0.62630 -0.00600
H 	H 	0.91030 0.54800 0.63550 0.04500
C 	C 	0.93480 0.51180 0.61950 -0.03100
C 	C 	0.96280 0.50490 0.60830 -0.01000
H 	H 	0.96800 0.48340 0.60540 0.04300
C 	C 	0.93890 0.59930 0.62680 0.06000
H 	H 	0.92270 0.60090 0.63980 0.05500
N 	N 	0.94960 0.62500 0.61750 -0.15500
O 	O 	0.93370 0.65220 0.62640 -0.55700
C 	C 	0.91120 0.70650 0.61480 -0.78800
C 	C 	0.91310 0.70940 0.65610 0.52100
H 	H 	0.92800 0.69500 0.67760 -0.12500
C 	C 	0.89420 0.73210 0.66690 -0.47400
H 	H 	0.89580 0.73260 0.69520 0.21300
Br	Br	0.84500 0.78409 0.65010 -0.26500
C 	C 	0.87340 0.75390 0.63720 0.40300
C 	C 	0.87140 0.75290 0.59650 -0.47300
H 	H 	0.85790 0.76840 0.57580 0.22000
C 	C 	0.88950 0.72920 0.58600 0.52500
H 	H 	0.88690 0.72830 0.55730 -0.13000
O 	O 	0.03220 0.62880 0.58770 -0.51700
C 	C 	0.13410 0.72250 0.60130 0.08200
C 	C 	0.14440 0.72420 0.56790 -0.12900
H 	H 	0.13640 0.70850 0.54610 0.07700
C 	C 	0.16640 0.74860 0.56630 0.06000
H 	H 	0.17240 0.75000 0.54270 0.02800
C 	C 	0.17970 0.77120 0.59880 -0.13800
C 	C 	0.17030 0.76870 0.63290 0.06400
H 	H 	0.17990 0.78340 0.65590 0.03000
C 	C 	0.14740 0.74520 0.63370 -0.13000
H 	H 	0.14050 0.74450 0.65670 0.08300
C 	C 	0.20300 0.79810 0.59670 0.40600
O 	O 	0.21040 0.79850 0.56480 -0.51300
O 	O 	0.97190 0.61000 0.52100 -0.53500
O 	O 	0.21380 0.81720 0.62690 -0.50200
C 	C 	0.87830 0.62620 0.34440 0.08400
C 	C 	0.89170 0.62310 0.31370 -0.13300
H 	H 	0.91650 0.61770 0.32280 0.07500
C 	C 	0.86970 0.62770 0.27040 0.06500
H 	H 	0.87970 0.62630 0.25030 0.01300
C 	C 	0.83270 0.63460 0.25620 -0.14900
C 	C 	0.81910 0.63730 0.28640 0.06900
H 	H 	0.79400 0.64160 0.27730 0.03000
C 	C 	0.84170 0.63370 0.33010 -0.13100
H 	H 	0.83210 0.63650 0.35050 0.08900
C 	C 	0.80830 0.63750 0.20870 0.40400
O 	O 	0.99490 0.58430 0.59880 -0.50400
O 	O 	0.82270 0.63340 0.18310 -0.51400
O 	O 	0.77530 0.64250 0.19480 -0.50000
C 	C 	0.90960 0.48650 0.61960 0.08900
C 	C 	0.87280 0.49330 0.60480 -0.13800
H 	H 	0.86450 0.51440 0.59800 0.09400
C 	C 	0.84840 0.46930 0.60010 0.06800
H 	H 	0.82330 0.47420 0.58920 0.02800
C 	C 	0.85990 0.43820 0.61100 -0.13800
C 	C 	0.89720 0.43180 0.62820 0.06600
H 	H 	0.90600 0.41100 0.63700 0.01900
C 	C 	0.92140 0.45600 0.63230 -0.13500
H 	H 	0.94670 0.45160 0.64410 0.07800
C 	C 	0.83200 0.41230 0.60240 0.41400
O 	O 	0.84450 0.38570 0.61820 -0.48800
O 	O 	0.79910 0.41950 0.58090 -0.52300
C 	C 	0.43030 0.48550 0.15850 -0.74900
C 	C 	0.44480 0.51070 0.18690 0.49900
H 	H 	0.47060 0.51230 0.20200 -0.12100
C 	C 	0.42400 0.53330 0.19410 -0.46800
H 	H 	0.43520 0.54940 0.21480 0.21200
Br	Br	0.35755 0.56425 0.17900 -0.27600
C 	C 	0.38680 0.53230 0.17140 0.39400
C 	C 	0.37110 0.50870 0.14230 -0.46300
H 	H 	0.34540 0.50800 0.12620 0.20600
C 	C 	0.39240 0.48570 0.13620 0.48400
H 	H 	0.38080 0.46940 0.11600 -0.12100
B 	B 	0.45450 0.45860 0.15140 1.52400
O 	O 	0.47120 0.47680 0.12130 -0.40400
N 	N 	0.49780 0.46070 0.11710 -0.15900
C 	C 	0.51940 0.47900 0.10650 0.03500
H 	H 	0.51350 0.50080 0.10200 0.05100
C 	C 	0.55200 0.46820 0.10100 -0.10200
C 	C 	0.55890 0.43610 0.09540 0.21800
C 	C 	0.58990 0.42970 0.08790 -0.10900
C 	C 	0.61210 0.45500 0.08760 -0.00100
H 	H 	0.63280 0.45030 0.08280 0.03700
C 	C 	0.60580 0.48640 0.09400 -0.03700
C 	C 	0.57500 0.49210 0.10010 -0.00300
H 	H 	0.56930 0.51330 0.10390 0.03700
C 	C 	0.60060 0.39830 0.08210 0.05600
H 	H 	0.62080 0.39690 0.07540 0.05200
N 	N 	0.58650 0.37230 0.08480 -0.15200
O 	O 	0.60520 0.34560 0.08010 -0.54100
B 	B 	0.59600 0.31460 0.09340 1.72600
O 	O 	0.48520 0.45170 0.19210 -0.54500
N 	N 	0.50980 0.42890 0.19240 -0.14400
C 	C 	0.53440 0.42240 0.22970 0.04500
H 	H 	0.53360 0.43360 0.25310 0.06100
C 	C 	0.56370 0.39950 0.24010 -0.10600
C 	C 	0.56870 0.37980 0.20930 0.22000
C 	C 	0.59910 0.35850 0.22440 -0.11000
C 	C 	0.62190 0.35700 0.26870 -0.00800
H 	H 	0.64140 0.34230 0.27870 0.03400
C 	C 	0.61700 0.37610 0.29840 -0.03400
C 	C 	0.58820 0.39720 0.28380 -0.01000
H 	H 	0.58490 0.41040 0.30400 0.04000
C 	C 	0.60830 0.33810 0.19680 0.05300
H 	H 	0.62830 0.32430 0.21070 0.04700
N 	N 	0.59230 0.33690 0.15610 -0.13800
O 	O 	0.60770 0.31570 0.13860 -0.60700
O 	O 	0.43160 0.43410 0.12650 -0.57800
N 	N 	0.44720 0.40880 0.11480 -0.15000
C 	C 	0.42590 0.38550 0.10010 0.05300
H 	H 	0.40210 0.38780 0.09830 0.04700
C 	C 	0.43400 0.35560 0.08580 -0.10900
C 	C 	0.46710 0.34890 0.08250 0.21700
C 	C 	0.47130 0.31770 0.06970 -0.11100
C 	C 	0.44490 0.29450 0.06260 -0.00400
H 	H 	0.44880 0.27370 0.05500 0.03300
C 	C 	0.41300 0.30100 0.06650 -0.03900
C 	C 	0.40820 0.33130 0.07770 -0.00700
H 	H 	0.38640 0.33610 0.08020 0.03700
C 	C 	0.50330 0.30700 0.06500 0.05600
H 	H 	0.50250 0.28670 0.05320 0.04600
N 	N 	0.53240 0.32300 0.07570 -0.14100
O 	O 	0.55800 0.30660 0.06890 -0.59200
C 	C 	0.62020 0.28830 0.08500 -0.82000
C 	C 	0.65140 0.27490 0.11690 0.53000
H 	H 	0.66010 0.28330 0.14520 -0.12800
C 	C 	0.61000 0.27520 0.04430 0.53300
H 	H 	0.58900 0.28350 0.02100 -0.13600
C 	C 	0.67060 0.25010 0.11000 -0.48300
H 	H 	0.69120 0.24130 0.13320 0.21500
C 	C 	0.62860 0.25090 0.03610 -0.49000
H 	H 	0.62040 0.24290 0.00780 0.22500
Br	Br	0.68548 0.20600 0.05700 -0.27000
C 	C 	0.65910 0.23850 0.06910 0.40400
O 	O 	0.53830 0.41340 0.09770 -0.52000
C 	C 	0.63090 0.51200 0.09560 0.08500
C 	C 	0.63220 0.54070 0.11580 -0.12800
H 	H 	0.61570 0.54440 0.12800 0.08100
C 	C 	0.65670 0.56400 0.11880 0.06400
H 	H 	0.65690 0.58330 0.13290 0.03000
C 	C 	0.68110 0.55960 0.10110 -0.13300
C 	C 	0.68040 0.53080 0.08140 0.06300
H 	H 	0.69720 0.52710 0.06970 0.03000
C 	C 	0.65580 0.50760 0.07850 -0.12700
H 	H 	0.65580 0.48820 0.06460 0.08000
C 	C 	0.70720 0.58480 0.10200 0.39600
O 	O 	0.70920 0.60960 0.12230 -0.48200
O 	O 	0.54560 0.38050 0.16890 -0.53300
O 	O 	0.72660 0.57830 0.08240 -0.48200
C 	C 	0.64240 0.37440 0.34480 0.07300
C 	C 	0.65230 0.40090 0.37140 -0.11700
H 	H 	0.64290 0.42100 0.35950 0.07900
C 	C 	0.67570 0.39860 0.41470 0.05200
H 	H 	0.68250 0.41700 0.43210 0.03100
C 	C 	0.68920 0.36900 0.43280 -0.12700
C 	C 	0.67970 0.34240 0.40610 0.04700
H 	H 	0.68920 0.32240 0.41790 0.02700
C 	C 	0.65680 0.34510 0.36280 -0.12100
H 	H 	0.65080 0.32680 0.34500 0.06800
C 	C 	0.71310 0.36500 0.48040 0.38800
O 	O 	0.49210 0.37030 0.09080 -0.51700
O 	O 	0.72640 0.38990 0.50270 -0.49700
O 	O 	0.72080 0.33740 0.49460 -0.49100
C 	C 	0.38630 0.27540 0.06100 0.08000
C 	C 	0.39830 0.24510 0.07720 -0.13700
H 	H 	0.42340 0.24020 0.08900 0.07400
C 	C 	0.37370 0.22240 0.07620 0.06000
H 	H 	0.38230 0.20200 0.08720 0.01100
C 	C 	0.33680 0.22870 0.05960 -0.14800
C 	C 	0.32440 0.25840 0.04200 0.06200
H 	H 	0.29910 0.26310 0.02980 0.02800
C 	C 	0.34880 0.28100 0.04230 -0.13400
H 	H 	0.33990 0.30090 0.02950 0.08300
C 	C 	0.31010 0.20420 0.06030 0.39000
O 	O 	0.27750 0.21110 0.04530 -0.49500
O 	O 	0.32300 0.17810 0.07650 -0.52000
Zn	Zn	0.00374 0.08836 0.63000 1.19000
Zn	Zn	0.04890 0.13493 0.61157 1.19200
Zn	Zn	0.47740 0.86874 0.07873 1.19300
Zn	Zn	0.51979 0.91596 0.05561 1.19300
Zn	Zn	0.24734 0.17885 0.05412 1.20700
Zn	Zn	0.25701 0.10452 0.06353 1.22200
Zn	Zn	0.31938 0.15259 0.12691 1.18000
Zn	Zn	0.24428 0.14495 0.13393 1.21300
O 	O 	0.26550 0.14430 0.09420 -0.95100
C 	C 	0.58620 0.99170 0.01850 -0.74000
C 	C 	0.61870 0.98450 0.01620 0.47400
H 	H 	0.62780 0.96350 0.02240 -0.11600
C 	C 	0.63830 0.00660 0.00520 -0.43900
H 	H 	0.66060 0.00080 0.00460 0.19600
Br	Br	0.65013 0.06838 0.97872 -0.29000
C 	C 	0.62520 0.03700 0.99510 0.37400
C 	C 	0.59310 0.04450 0.99640 -0.45400
H 	H 	0.58380 0.06530 0.98930 0.18800
C 	C 	0.57400 0.02270 0.00770 0.48000
H 	H 	0.55180 0.02890 0.00830 -0.13400
B 	B 	0.56240 0.96740 0.03110 1.54800
O 	O 	0.58990 0.93820 0.05470 -0.42700
N 	N 	0.57330 0.91330 0.06130 -0.15400
C 	C 	0.59630 0.88800 0.07500 0.03200
H 	H 	0.62020 0.89090 0.07730 0.05000
C 	C 	0.58750 0.85620 0.08680 -0.10200
C 	C 	0.55650 0.84960 0.09330 0.22500
C 	C 	0.55200 0.81800 0.10420 -0.11200
C 	C 	0.57860 0.79520 0.10850 -0.00400
H 	H 	0.57590 0.77430 0.11650 0.03900
C 	C 	0.60860 0.80250 0.10130 -0.03600
C 	C 	0.61310 0.83320 0.09070 -0.00700
H 	H 	0.63380 0.83860 0.08620 0.03700
C 	C 	0.52120 0.80680 0.11040 0.06300
H 	H 	0.52120 0.78520 0.11760 0.04800
N 	N 	0.49430 0.82320 0.10710 -0.15000
O 	O 	0.46980 0.80610 0.11640 -0.54800
B 	B 	0.43310 0.81950 0.10220 1.66600
O 	O 	0.53410 0.95560 0.99070 -0.54100
N 	N 	0.51070 0.93230 0.99290 -0.15000
C 	C 	0.48590 0.92410 0.95670 0.05400
H 	H 	0.48700 0.93360 0.93240 0.04600
C 	C 	0.45610 0.90240 0.94720 -0.10300
C 	C 	0.45000 0.88580 0.97980 0.21000
C 	C 	0.41930 0.86500 0.96630 -0.09700
C 	C 	0.39590 0.86180 0.92210 -0.00900
H 	H 	0.37530 0.84830 0.91340 0.04700
C 	C 	0.40210 0.87800 0.89110 -0.03200
C 	C 	0.43220 0.89790 0.90360 -0.00700
H 	H 	0.43670 0.90860 0.88220 0.03600
C 	C 	0.41100 0.84590 0.99570 0.05600
H 	H 	0.38940 0.83360 0.98350 0.06500
N 	N 	0.42970 0.84380 0.03620 -0.15100
O 	O 	0.41440 0.82280 0.05560 -0.55800
O 	O 	0.55160 0.98100 0.06060 -0.58400
N 	N 	0.52810 0.96430 0.07250 -0.14600
C 	C 	0.50990 0.98170 0.08610 0.04700
H 	H 	0.51410 0.00380 0.08660 0.05700
C 	C 	0.48350 0.97140 0.10090 -0.09400
C 	C 	0.47620 0.93870 0.10560 0.19400
C 	C 	0.44870 0.93220 0.11970 -0.09400
C 	C 	0.42850 0.95690 0.12630 -0.00600
H 	H 	0.41030 0.95200 0.13550 0.04500
C 	C 	0.43480 0.98820 0.11950 -0.03100
C 	C 	0.46280 0.99510 0.10830 -0.01000
H 	H 	0.46800 0.01660 0.10540 0.04300
C 	C 	0.43890 0.90070 0.12680 0.06000
H 	H 	0.42270 0.89910 0.13980 0.05500
N 	N 	0.44960 0.87500 0.11750 -0.15500
O 	O 	0.43370 0.84780 0.12640 -0.55700
C 	C 	0.41120 0.79350 0.11480 -0.78800
C 	C 	0.41310 0.79060 0.15610 0.52100
H 	H 	0.42800 0.80500 0.17760 -0.12500
C 	C 	0.39420 0.76790 0.16690 -0.47400
H 	H 	0.39580 0.76740 0.19520 0.21300
Br	Br	0.34500 0.71591 0.15010 -0.26500
C 	C 	0.37340 0.74610 0.13720 0.40300
C 	C 	0.37140 0.74710 0.09650 -0.47300
H 	H 	0.35790 0.73160 0.07580 0.22000
C 	C 	0.38950 0.77080 0.08600 0.52500
H 	H 	0.38690 0.77170 0.05730 -0.13000
O 	O 	0.53220 0.87120 0.08770 -0.51700
C 	C 	0.63410 0.77750 0.10130 0.08200
C 	C 	0.64440 0.77580 0.06790 -0.12900
H 	H 	0.63640 0.79150 0.04610 0.07700
C 	C 	0.66640 0.75140 0.06630 0.06000
H 	H 	0.67240 0.75000 0.04270 0.02800
C 	C 	0.67970 0.72880 0.09880 -0.13800
C 	C 	0.67030 0.73130 0.13290 0.06400
H 	H 	0.67990 0.71660 0.15590 0.03000
C 	C 	0.64740 0.75480 0.13370 -0.13000
H 	H 	0.64050 0.75550 0.15670 0.08300
C 	C 	0.70300 0.70190 0.09670 0.40600
O 	O 	0.71040 0.70150 0.06480 -0.51300
O 	O 	0.47190 0.89000 0.02100 -0.53500
O 	O 	0.71380 0.68280 0.12690 -0.50200
C 	C 	0.37830 0.87380 0.84440 0.08400
C 	C 	0.39170 0.87690 0.81370 -0.13300
H 	H 	0.41650 0.88230 0.82280 0.07500
C 	C 	0.36970 0.87230 0.77040 0.06500
H 	H 	0.37970 0.87370 0.75030 0.01300
C 	C 	0.33270 0.86540 0.75620 -0.14900
C 	C 	0.31910 0.86270 0.78640 0.06900
H 	H 	0.29400 0.85840 0.77730 0.03000
C 	C 	0.34170 0.86630 0.83010 -0.13100
H 	H 	0.33210 0.86350 0.85050 0.08900
C 	C 	0.30830 0.86250 0.70870 0.40400
O 	O 	0.49490 0.91570 0.09880 -0.50400
O 	O 	0.32270 0.86660 0.68310 -0.51400
O 	O 	0.27530 0.85750 0.69480 -0.50000
C 	C 	0.40960 0.01350 0.11960 0.08900
C 	C 	0.37280 0.00670 0.10480 -0.13800
H 	H 	0.36450 0.98560 0.09800 0.09400
C 	C 	0.34840 0.03070 0.10010 0.06800
H 	H 	0.32330 0.02580 0.08920 0.02800
C 	C 	0.35990 0.06180 0.11100 -0.13800
C 	C 	0.39720 0.06820 0.12820 0.06600
H 	H 	0.40600 0.08900 0.13700 0.01900
C 	C 	0.42140 0.04400 0.13230 -0.13500
H 	H 	0.44670 0.04840 0.14410 0.07800
C 	C 	0.33200 0.08770 0.10240 0.41400
O 	O 	0.34450 0.11430 0.11820 -0.48800
O 	O 	0.29910 0.08050 0.08090 -0.52300
C 	C 	0.93030 0.01450 0.65850 -0.74900
C 	C 	0.94480 0.98930 0.68690 0.49900
H 	H 	0.97060 0.98770 0.70200 -0.12100
C 	C 	0.92400 0.96670 0.69410 -0.46800
H 	H 	0.93520 0.95060 0.71480 0.21200
Br	Br	0.85755 0.93575 0.67900 -0.27600
C 	C 	0.88680 0.96770 0.67140 0.39400
C 	C 	0.87110 0.99130 0.64230 -0.46300
H 	H 	0.84540 0.99200 0.62620 0.20600
C 	C 	0.89240 0.01430 0.63620 0.48400
H 	H 	0.88080 0.03060 0.61600 -0.12100
B 	B 	0.95450 0.04140 0.65140 1.52400
O 	O 	0.97120 0.02320 0.62130 -0.40400
N 	N 	0.99780 0.03930 0.61710 -0.15900
C 	C 	0.01940 0.02100 0.60650 0.03500
H 	H 	0.01350 0.99920 0.60200 0.05100
C 	C 	0.05200 0.03180 0.60100 -0.10200
C 	C 	0.05890 0.06390 0.59540 0.21800
C 	C 	0.08990 0.07030 0.58790 -0.10900
C 	C 	0.11210 0.04500 0.58760 -0.00100
H 	H 	0.13280 0.04970 0.58280 0.03700
C 	C 	0.10580 0.01360 0.59400 -0.03700
C 	C 	0.07500 0.00790 0.60010 -0.00300
H 	H 	0.06930 0.98670 0.60390 0.03700
C 	C 	0.10060 0.10170 0.58210 0.05600
H 	H 	0.12080 0.10310 0.57540 0.05200
N 	N 	0.08650 0.12770 0.58480 -0.15200
O 	O 	0.10520 0.15440 0.58010 -0.54100
B 	B 	0.09600 0.18540 0.59340 1.72600
O 	O 	0.98520 0.04830 0.69210 -0.54500
N 	N 	0.00980 0.07110 0.69240 -0.14400
C 	C 	0.03440 0.07760 0.72970 0.04500
H 	H 	0.03360 0.06640 0.75310 0.06100
C 	C 	0.06370 0.10050 0.74010 -0.10600
C 	C 	0.06870 0.12020 0.70930 0.22000
C 	C 	0.09910 0.14150 0.72440 -0.11000
C 	C 	0.12190 0.14300 0.76870 -0.00800
H 	H 	0.14140 0.15770 0.77870 0.03400
C 	C 	0.11700 0.12390 0.79840 -0.03400
C 	C 	0.08820 0.10280 0.78380 -0.01000
H 	H 	0.08490 0.08960 0.80400 0.04000
C 	C 	0.10830 0.16190 0.69680 0.05300
H 	H 	0.12830 0.17570 0.71070 0.04700
N 	N 	0.09230 0.16310 0.65610 -0.13800
O 	O 	0.10770 0.18430 0.63860 -0.60700
O 	O 	0.93160 0.06590 0.62650 -0.57800
N 	N 	0.94720 0.09120 0.61480 -0.15000
C 	C 	0.92590 0.11450 0.60010 0.05300
H 	H 	0.90210 0.11220 0.59830 0.04700
C 	C 	0.93400 0.14440 0.58580 -0.10900
C 	C 	0.96710 0.15110 0.58250 0.21700
C 	C 	0.97130 0.18230 0.56970 -0.11100
C 	C 	0.94490 0.20550 0.56260 -0.00400
H 	H 	0.94880 0.22630 0.55500 0.03300
C 	C 	0.91300 0.19900 0.56650 -0.03900
C 	C 	0.90820 0.16870 0.57770 -0.00700
H 	H 	0.88640 0.16390 0.58020 0.03700
C 	C 	0.00330 0.19300 0.56500 0.05600
H 	H 	0.00250 0.21330 0.55320 0.04600
N 	N 	0.03240 0.17700 0.57570 -0.14100
O 	O 	0.05800 0.19340 0.56890 -0.59200
C 	C 	0.12020 0.21170 0.58500 -0.82000
C 	C 	0.15140 0.22510 0.61690 0.53000
H 	H 	0.16010 0.21670 0.64520 -0.12800
C 	C 	0.11000 0.22480 0.54430 0.53300
H 	H 	0.08900 0.21650 0.52100 -0.13600
C 	C 	0.17060 0.24990 0.61000 -0.48300
H 	H 	0.19120 0.25870 0.63320 0.21500
C 	C 	0.12860 0.24910 0.53610 -0.49000
H 	H 	0.12040 0.25710 0.50780 0.22500
Br	Br	0.18548 0.29400 0.55700 -0.27000
C 	C 	0.15910 0.26150 0.56910 0.40400
O 	O 	0.03830 0.08660 0.59770 -0.52000
C 	C 	0.13090 0.98800 0.59560 0.08500
C 	C 	0.13220 0.95930 0.61580 -0.12800
H 	H 	0.11570 0.95560 0.62800 0.08100
C 	C 	0.15670 0.93600 0.61880 0.06400
H 	H 	0.15690 0.91670 0.63290 0.03000
C 	C 	0.18110 0.94040 0.60110 -0.13300
C 	C 	0.18040 0.96920 0.58140 0.06300
H 	H 	0.19720 0.97290 0.56970 0.03000
C 	C 	0.15580 0.99240 0.57850 -0.12700
H 	H 	0.15580 0.01180 0.56460 0.08000
C 	C 	0.20720 0.91520 0.60200 0.39600
O 	O 	0.20920 0.89040 0.62230 -0.48200
O 	O 	0.04560 0.11950 0.66890 -0.53200
O 	O 	0.22660 0.92170 0.58240 -0.48200
C 	C 	0.14240 0.12560 0.84480 0.07300
C 	C 	0.15230 0.09910 0.87140 -0.11700
H 	H 	0.14290 0.07900 0.85950 0.07900
C 	C 	0.17570 0.10140 0.91470 0.05200
H 	H 	0.18250 0.08300 0.93210 0.03100
C 	C 	0.18920 0.13100 0.93280 -0.12700
C 	C 	0.17970 0.15760 0.90610 0.04700
H 	H 	0.18920 0.17760 0.91790 0.02700
C 	C 	0.15680 0.15490 0.86280 -0.12100
H 	H 	0.15080 0.17320 0.84500 0.06800
C 	C 	0.21310 0.13500 0.98040 0.38800
O 	O 	0.99210 0.12970 0.59080 -0.51700
O 	O 	0.22640 0.11010 0.00270 -0.49800
O 	O 	0.22080 0.16260 0.99460 -0.49200
C 	C 	0.88630 0.22460 0.56100 0.08000
C 	C 	0.89830 0.25490 0.57720 -0.13700
H 	H 	0.92340 0.25980 0.58900 0.07400
C 	C 	0.87370 0.27760 0.57620 0.06000
H 	H 	0.88230 0.29800 0.58720 0.01100
C 	C 	0.83680 0.27130 0.55960 -0.14800
C 	C 	0.82440 0.24160 0.54200 0.06200
H 	H 	0.79910 0.23690 0.52980 0.02800
C 	C 	0.84880 0.21900 0.54230 -0.13400
H 	H 	0.83990 0.19910 0.52950 0.08300
C 	C 	0.81010 0.29580 0.56030 0.39000
O 	O 	0.77750 0.28890 0.54530 -0.49500
O 	O 	0.82300 0.32190 0.57650 -0.52000
Zn	Zn	0.50374 0.58836 0.63000 1.19000
Zn	Zn	0.54890 0.63493 0.61157 1.19200
Zn	Zn	0.97740 0.36874 0.07873 1.19300
Zn	Zn	0.01979 0.41596 0.05561 1.19300
Zn	Zn	0.74734 0.67885 0.05412 1.20700
Zn	Zn	0.75701 0.60452 0.06353 1.22200
Zn	Zn	0.81938 0.65259 0.12691 1.18000
Zn	Zn	0.74428 0.64495 0.13393 1.21300
O 	O 	0.76550 0.64430 0.09420 -0.95100
C 	C 	0.08620 0.49170 0.01850 -0.73900
C 	C 	0.11870 0.48450 0.01620 0.47400
H 	H 	0.12780 0.46350 0.02240 -0.11600
C 	C 	0.13830 0.50660 0.00520 -0.43900
H 	H 	0.16060 0.50080 0.00460 0.19600
Br	Br	0.15013 0.56838 0.97872 -0.28900
C 	C 	0.12520 0.53700 0.99510 0.37500
C 	C 	0.09310 0.54450 0.99640 -0.45300
H 	H 	0.08380 0.56530 0.98930 0.18800
C 	C 	0.07400 0.52270 0.00770 0.47900
H 	H 	0.05180 0.52890 0.00830 -0.13400
B 	B 	0.06240 0.46740 0.03110 1.54700
O 	O 	0.08990 0.43820 0.05470 -0.42700
N 	N 	0.07330 0.41330 0.06130 -0.15400
C 	C 	0.09630 0.38800 0.07500 0.03200
H 	H 	0.12020 0.39090 0.07730 0.05000
C 	C 	0.08750 0.35620 0.08680 -0.10200
C 	C 	0.05650 0.34960 0.09330 0.22500
C 	C 	0.05200 0.31800 0.10420 -0.11200
C 	C 	0.07860 0.29520 0.10850 -0.00500
H 	H 	0.07590 0.27430 0.11650 0.03900
C 	C 	0.10860 0.30250 0.10130 -0.03600
C 	C 	0.11310 0.33320 0.09070 -0.00700
H 	H 	0.13380 0.33860 0.08620 0.03700
C 	C 	0.02120 0.30680 0.11040 0.06200
H 	H 	0.02120 0.28520 0.11760 0.04800
N 	N 	0.99430 0.32320 0.10710 -0.14900
O 	O 	0.96980 0.30610 0.11640 -0.54800
B 	B 	0.93310 0.31950 0.10220 1.66600
O 	O 	0.03410 0.45560 0.99070 -0.54100
N 	N 	0.01070 0.43230 0.99290 -0.15000
C 	C 	0.98590 0.42410 0.95670 0.05400
H 	H 	0.98700 0.43360 0.93240 0.04600
C 	C 	0.95610 0.40240 0.94720 -0.10200
C 	C 	0.95000 0.38580 0.97980 0.20900
C 	C 	0.91930 0.36500 0.96630 -0.09700
C 	C 	0.89590 0.36180 0.92210 -0.00900
H 	H 	0.87530 0.34830 0.91340 0.04700
C 	C 	0.90210 0.37800 0.89110 -0.03200
C 	C 	0.93220 0.39790 0.90360 -0.00700
H 	H 	0.93670 0.40860 0.88220 0.03600
C 	C 	0.91100 0.34590 0.99570 0.05500
H 	H 	0.88940 0.33360 0.98350 0.06500
N 	N 	0.92970 0.34380 0.03620 -0.15000
O 	O 	0.91440 0.32280 0.05560 -0.55800
O 	O 	0.05160 0.48100 0.06060 -0.58400
N 	N 	0.02810 0.46430 0.07250 -0.14600
C 	C 	0.00990 0.48170 0.08610 0.04700
H 	H 	0.01410 0.50380 0.08660 0.05700
C 	C 	0.98350 0.47140 0.10090 -0.09300
C 	C 	0.97620 0.43870 0.10560 0.19400
C 	C 	0.94870 0.43220 0.11970 -0.09400
C 	C 	0.92850 0.45690 0.12630 -0.00600
H 	H 	0.91030 0.45200 0.13550 0.04500
C 	C 	0.93480 0.48820 0.11950 -0.03100
C 	C 	0.96280 0.49510 0.10830 -0.01000
H 	H 	0.96800 0.51660 0.10540 0.04300
C 	C 	0.93890 0.40070 0.12680 0.06000
H 	H 	0.92270 0.39910 0.13980 0.05500
N 	N 	0.94960 0.37500 0.11750 -0.15500
O 	O 	0.93370 0.34780 0.12640 -0.55700
C 	C 	0.91120 0.29350 0.11480 -0.78800
C 	C 	0.91310 0.29060 0.15610 0.52100
H 	H 	0.92800 0.30500 0.17760 -0.12500
C 	C 	0.89420 0.26790 0.16690 -0.47400
H 	H 	0.89580 0.26740 0.19520 0.21300
Br	Br	0.84500 0.21591 0.15010 -0.26500
C 	C 	0.87340 0.24610 0.13720 0.40300
C 	C 	0.87140 0.24710 0.09650 -0.47300
H 	H 	0.85790 0.23160 0.07580 0.22000
C 	C 	0.88950 0.27080 0.08600 0.52500
H 	H 	0.88690 0.27170 0.05730 -0.13000
O 	O 	0.03220 0.37120 0.08770 -0.51700
C 	C 	0.13410 0.27750 0.10130 0.08200
C 	C 	0.14440 0.27580 0.06790 -0.12900
H 	H 	0.13640 0.29150 0.04610 0.07700
C 	C 	0.16640 0.25140 0.06630 0.06000
H 	H 	0.17240 0.25000 0.04270 0.02800
C 	C 	0.17970 0.22880 0.09880 -0.13900
C 	C 	0.17030 0.23130 0.13290 0.06400
H 	H 	0.17990 0.21660 0.15590 0.03000
C 	C 	0.14740 0.25480 0.13370 -0.13000
H 	H 	0.14050 0.25550 0.15670 0.08300
C 	C 	0.20300 0.20190 0.09670 0.40600
O 	O 	0.21040 0.20150 0.06480 -0.51300
O 	O 	0.97190 0.39000 0.02100 -0.53500
O 	O 	0.21380 0.18280 0.12690 -0.50200
C 	C 	0.87830 0.37380 0.84440 0.08400
C 	C 	0.89170 0.37690 0.81370 -0.13300
H 	H 	0.91650 0.38230 0.82280 0.07400
C 	C 	0.86970 0.37230 0.77040 0.06500
H 	H 	0.87970 0.37370 0.75030 0.01300
C 	C 	0.83270 0.36540 0.75620 -0.14900
C 	C 	0.81910 0.36270 0.78640 0.06900
H 	H 	0.79400 0.35840 0.77730 0.03000
C 	C 	0.84170 0.36630 0.83010 -0.13100
H 	H 	0.83210 0.36350 0.85050 0.08900
C 	C 	0.80830 0.36250 0.70870 0.40400
O 	O 	0.99490 0.41570 0.09880 -0.50400
O 	O 	0.82270 0.36660 0.68310 -0.51400
O 	O 	0.77530 0.35750 0.69480 -0.50000
C 	C 	0.90960 0.51350 0.11960 0.08900
C 	C 	0.87280 0.50670 0.10480 -0.13800
H 	H 	0.86450 0.48560 0.09800 0.09400
C 	C 	0.84840 0.53070 0.10010 0.06800
H 	H 	0.82330 0.52580 0.08920 0.02800
C 	C 	0.85990 0.56180 0.11100 -0.13800
C 	C 	0.89720 0.56820 0.12820 0.06600
H 	H 	0.90600 0.58900 0.13700 0.01900
C 	C 	0.92140 0.54400 0.13230 -0.13500
H 	H 	0.94670 0.54840 0.14410 0.07800
C 	C 	0.83200 0.58770 0.10240 0.41400
O 	O 	0.84450 0.61430 0.11820 -0.48800
O 	O 	0.79910 0.58050 0.08090 -0.52300
C 	C 	0.43030 0.51450 0.65850 -0.74900
C 	C 	0.44480 0.48930 0.68690 0.49900
H 	H 	0.47060 0.48770 0.70200 -0.12100
C 	C 	0.42400 0.46670 0.69410 -0.46800
H 	H 	0.43520 0.45060 0.71480 0.21200
Br	Br	0.35755 0.43575 0.67900 -0.27600
C 	C 	0.38680 0.46770 0.67140 0.39400
C 	C 	0.37110 0.49130 0.64230 -0.46300
H 	H 	0.34540 0.49200 0.62620 0.20600
C 	C 	0.39240 0.51430 0.63620 0.48400
H 	H 	0.38080 0.53060 0.61600 -0.12100
B 	B 	0.45450 0.54140 0.65140 1.52400
O 	O 	0.47120 0.52320 0.62130 -0.40400
N 	N 	0.49780 0.53930 0.61710 -0.15900
C 	C 	0.51940 0.52100 0.60650 0.03500
H 	H 	0.51350 0.49920 0.60200 0.05100
C 	C 	0.55200 0.53180 0.60100 -0.10200
C 	C 	0.55890 0.56390 0.59540 0.21800
C 	C 	0.58990 0.57030 0.58790 -0.10900
C 	C 	0.61210 0.54500 0.58760 -0.00100
H 	H 	0.63280 0.54970 0.58280 0.03700
C 	C 	0.60580 0.51360 0.59400 -0.03700
C 	C 	0.57500 0.50790 0.60010 -0.00300
H 	H 	0.56930 0.48670 0.60390 0.03700
C 	C 	0.60060 0.60170 0.58210 0.05600
H 	H 	0.62080 0.60310 0.57540 0.05200
N 	N 	0.58650 0.62770 0.58480 -0.15200
O 	O 	0.60520 0.65440 0.58010 -0.54100
B 	B 	0.59600 0.68540 0.59340 1.72600
O 	O 	0.48520 0.54830 0.69210 -0.54500
N 	N 	0.50980 0.57110 0.69240 -0.14400
C 	C 	0.53440 0.57760 0.72970 0.04500
H 	H 	0.53360 0.56640 0.75310 0.06100
C 	C 	0.56370 0.60050 0.74010 -0.10600
C 	C 	0.56870 0.62020 0.70930 0.22000
C 	C 	0.59910 0.64150 0.72440 -0.11000
C 	C 	0.62190 0.64300 0.76870 -0.00800
H 	H 	0.64140 0.65770 0.77870 0.03400
C 	C 	0.61700 0.62390 0.79840 -0.03400
C 	C 	0.58820 0.60280 0.78380 -0.01000
H 	H 	0.58490 0.58960 0.80400 0.04000
C 	C 	0.60830 0.66190 0.69680 0.05300
H 	H 	0.62830 0.67570 0.71070 0.04700
N 	N 	0.59230 0.66310 0.65610 -0.13800
O 	O 	0.60770 0.68430 0.63860 -0.60700
O 	O 	0.43160 0.56590 0.62650 -0.57800
N 	N 	0.44720 0.59120 0.61480 -0.15000
C 	C 	0.42590 0.61450 0.60010 0.05300
H 	H 	0.40210 0.61220 0.59830 0.04700
C 	C 	0.43400 0.64440 0.58580 -0.10900
C 	C 	0.46710 0.65110 0.58250 0.21700
C 	C 	0.47130 0.68230 0.56970 -0.11000
C 	C 	0.44490 0.70550 0.56260 -0.00400
H 	H 	0.44880 0.72630 0.55500 0.03300
C 	C 	0.41300 0.69900 0.56650 -0.03900
C 	C 	0.40820 0.66870 0.57770 -0.00700
H 	H 	0.38640 0.66390 0.58020 0.03700
C 	C 	0.50330 0.69300 0.56500 0.05600
H 	H 	0.50250 0.71330 0.55320 0.04600
N 	N 	0.53240 0.67700 0.57570 -0.14100
O 	O 	0.55800 0.69340 0.56890 -0.59200
C 	C 	0.62020 0.71170 0.58500 -0.82000
C 	C 	0.65140 0.72510 0.61690 0.53000
H 	H 	0.66010 0.71670 0.64520 -0.12800
C 	C 	0.61000 0.72480 0.54430 0.53300
H 	H 	0.58900 0.71650 0.52100 -0.13600
C 	C 	0.67060 0.74990 0.61000 -0.48300
H 	H 	0.69120 0.75870 0.63320 0.21500
C 	C 	0.62860 0.74910 0.53610 -0.49000
H 	H 	0.62040 0.75710 0.50780 0.22500
Br	Br	0.68548 0.79400 0.55700 -0.27000
C 	C 	0.65910 0.76150 0.56910 0.40400
O 	O 	0.53830 0.58660 0.59770 -0.52000
C 	C 	0.63090 0.48800 0.59560 0.08500
C 	C 	0.63220 0.45930 0.61580 -0.12800
H 	H 	0.61570 0.45560 0.62800 0.08100
C 	C 	0.65670 0.43600 0.61880 0.06400
H 	H 	0.65690 0.41670 0.63290 0.03000
C 	C 	0.68110 0.44040 0.60110 -0.13300
C 	C 	0.68040 0.46920 0.58140 0.06300
H 	H 	0.69720 0.47290 0.56970 0.03000
C 	C 	0.65580 0.49240 0.57850 -0.12700
H 	H 	0.65580 0.51180 0.56460 0.08000
C 	C 	0.70720 0.41520 0.60200 0.39600
O 	O 	0.70920 0.39040 0.62230 -0.48200
O 	O 	0.54560 0.61950 0.66890 -0.53300
O 	O 	0.72660 0.42170 0.58240 -0.48200
C 	C 	0.64240 0.62560 0.84480 0.07300
C 	C 	0.65230 0.59910 0.87140 -0.11700
H 	H 	0.64290 0.57900 0.85950 0.07900
C 	C 	0.67570 0.60140 0.91470 0.05200
H 	H 	0.68250 0.58300 0.93210 0.03100
C 	C 	0.68920 0.63100 0.93280 -0.12700
C 	C 	0.67970 0.65760 0.90610 0.04700
H 	H 	0.68920 0.67760 0.91790 0.02700
C 	C 	0.65680 0.65490 0.86280 -0.12100
H 	H 	0.65080 0.67320 0.84500 0.06800
C 	C 	0.71310 0.63500 0.98040 0.38800
O 	O 	0.49210 0.62970 0.59080 -0.51700
O 	O 	0.72640 0.61010 0.00270 -0.49700
O 	O 	0.72080 0.66260 0.99460 -0.49200
C 	C 	0.38630 0.72460 0.56100 0.08000
C 	C 	0.39830 0.75490 0.57720 -0.13700
H 	H 	0.42340 0.75980 0.58900 0.07400
C 	C 	0.37370 0.77760 0.57620 0.06000
H 	H 	0.38230 0.79800 0.58720 0.01100
C 	C 	0.33680 0.77130 0.55960 -0.14800
C 	C 	0.32440 0.74160 0.54200 0.06200
H 	H 	0.29910 0.73690 0.52980 0.02800
C 	C 	0.34880 0.71900 0.54230 -0.13400
H 	H 	0.33990 0.69910 0.52950 0.08300
C 	C 	0.31010 0.79580 0.56030 0.39000
O 	O 	0.27750 0.78890 0.54530 -0.49500
O 	O 	0.32300 0.82190 0.57650 -0.52000
Zn	Zn	0.99626 0.91164 0.37000 1.19000
Zn	Zn	0.95110 0.86507 0.38843 1.19200
Zn	Zn	0.52260 0.13126 0.92127 1.19300
Zn	Zn	0.48021 0.08404 0.94439 1.19300
Zn	Zn	0.75266 0.82115 0.94588 1.20700
Zn	Zn	0.74299 0.89548 0.93647 1.22200
Zn	Zn	0.68062 0.84741 0.87309 1.18000
Zn	Zn	0.75572 0.85505 0.86607 1.21300
O 	O 	0.73450 0.85570 0.90580 -0.95100
C 	C 	0.41380 0.00830 0.98150 -0.74000
C 	C 	0.38130 0.01550 0.98380 0.47400
H 	H 	0.37220 0.03650 0.97760 -0.11600
C 	C 	0.36170 0.99340 0.99480 -0.43900
H 	H 	0.33940 0.99920 0.99540 0.19600
Br	Br	0.34987 0.93162 0.02128 -0.29000
C 	C 	0.37480 0.96300 0.00490 0.37400
C 	C 	0.40690 0.95550 0.00360 -0.45400
H 	H 	0.41620 0.93470 0.01070 0.18800
C 	C 	0.42600 0.97730 0.99230 0.48000
H 	H 	0.44820 0.97110 0.99170 -0.13400
B 	B 	0.43760 0.03260 0.96890 1.54800
O 	O 	0.41010 0.06180 0.94530 -0.42700
N 	N 	0.42670 0.08670 0.93870 -0.15400
C 	C 	0.40370 0.11200 0.92500 0.03200
H 	H 	0.37980 0.10910 0.92270 0.05000
C 	C 	0.41250 0.14380 0.91320 -0.10200
C 	C 	0.44350 0.15040 0.90670 0.22500
C 	C 	0.44800 0.18200 0.89580 -0.11200
C 	C 	0.42140 0.20480 0.89150 -0.00400
H 	H 	0.42410 0.22570 0.88350 0.03900
C 	C 	0.39140 0.19750 0.89870 -0.03600
C 	C 	0.38690 0.16680 0.90930 -0.00700
H 	H 	0.36620 0.16140 0.91380 0.03700
C 	C 	0.47880 0.19320 0.88960 0.06300
H 	H 	0.47880 0.21480 0.88240 0.04800
N 	N 	0.50570 0.17680 0.89290 -0.15000
O 	O 	0.53020 0.19390 0.88360 -0.54800
B 	B 	0.56690 0.18050 0.89780 1.66600
O 	O 	0.46590 0.04440 0.00930 -0.54100
N 	N 	0.48930 0.06770 0.00710 -0.15000
C 	C 	0.51410 0.07590 0.04330 0.05400
H 	H 	0.51300 0.06640 0.06760 0.04600
C 	C 	0.54390 0.09760 0.05280 -0.10300
C 	C 	0.55000 0.11420 0.02020 0.21000
C 	C 	0.58070 0.13500 0.03370 -0.09700
C 	C 	0.60410 0.13820 0.07790 -0.00900
H 	H 	0.62470 0.15170 0.08660 0.04700
C 	C 	0.59790 0.12200 0.10890 -0.03200
C 	C 	0.56780 0.10210 0.09640 -0.00700
H 	H 	0.56330 0.09140 0.11780 0.03600
C 	C 	0.58900 0.15410 0.00430 0.05600
H 	H 	0.61060 0.16640 0.01650 0.06500
N 	N 	0.57030 0.15620 0.96380 -0.15100
O 	O 	0.58560 0.17720 0.94440 -0.55800
O 	O 	0.44840 0.01900 0.93940 -0.58400
N 	N 	0.47190 0.03570 0.92750 -0.14600
C 	C 	0.49010 0.01830 0.91390 0.04700
H 	H 	0.48590 0.99620 0.91340 0.05700
C 	C 	0.51650 0.02860 0.89910 -0.09400
C 	C 	0.52380 0.06130 0.89440 0.19400
C 	C 	0.55130 0.06780 0.88030 -0.09400
C 	C 	0.57150 0.04310 0.87370 -0.00600
H 	H 	0.58970 0.04800 0.86450 0.04500
C 	C 	0.56520 0.01180 0.88050 -0.03100
C 	C 	0.53720 0.00490 0.89170 -0.01000
H 	H 	0.53200 0.98340 0.89460 0.04300
C 	C 	0.56110 0.09930 0.87320 0.06000
H 	H 	0.57730 0.10090 0.86020 0.05500
N 	N 	0.55040 0.12500 0.88250 -0.15500
O 	O 	0.56630 0.15220 0.87360 -0.55700
C 	C 	0.58880 0.20650 0.88520 -0.78800
C 	C 	0.58690 0.20940 0.84390 0.52100
H 	H 	0.57200 0.19500 0.82240 -0.12500
C 	C 	0.60580 0.23210 0.83310 -0.47400
H 	H 	0.60420 0.23260 0.80480 0.21300
Br	Br	0.65500 0.28409 0.84990 -0.26500
C 	C 	0.62660 0.25390 0.86280 0.40300
C 	C 	0.62860 0.25290 0.90350 -0.47300
H 	H 	0.64210 0.26840 0.92420 0.22000
C 	C 	0.61050 0.22920 0.91400 0.52500
H 	H 	0.61310 0.22830 0.94270 -0.13000
O 	O 	0.46780 0.12880 0.91230 -0.51700
C 	C 	0.36590 0.22250 0.89870 0.08200
C 	C 	0.35560 0.22420 0.93210 -0.12900
H 	H 	0.36360 0.20850 0.95390 0.07700
C 	C 	0.33360 0.24860 0.93370 0.06000
H 	H 	0.32760 0.25000 0.95730 0.02800
C 	C 	0.32030 0.27120 0.90120 -0.13800
C 	C 	0.32970 0.26870 0.86710 0.06400
H 	H 	0.32010 0.28340 0.84410 0.03000
C 	C 	0.35260 0.24520 0.86630 -0.13000
H 	H 	0.35950 0.24450 0.84330 0.08300
C 	C 	0.29700 0.29810 0.90330 0.40600
O 	O 	0.28960 0.29850 0.93520 -0.51300
O 	O 	0.52810 0.11000 0.97900 -0.53500
O 	O 	0.28620 0.31720 0.87310 -0.50200
C 	C 	0.62170 0.12620 0.15560 0.08400
C 	C 	0.60830 0.12310 0.18630 -0.13300
H 	H 	0.58350 0.11770 0.17720 0.07500
C 	C 	0.63030 0.12770 0.22960 0.06500
H 	H 	0.62030 0.12630 0.24970 0.01300
C 	C 	0.66730 0.13460 0.24380 -0.14900
C 	C 	0.68090 0.13730 0.21360 0.06900
H 	H 	0.70600 0.14160 0.22270 0.03000
C 	C 	0.65830 0.13370 0.16990 -0.13100
H 	H 	0.66790 0.13650 0.14950 0.08900
C 	C 	0.69170 0.13750 0.29130 0.40400
O 	O 	0.50510 0.08430 0.90120 -0.50400
O 	O 	0.67730 0.13340 0.31690 -0.51400
O 	O 	0.72470 0.14250 0.30520 -0.50000
C 	C 	0.59040 0.98650 0.88040 0.08900
C 	C 	0.62720 0.99330 0.89520 -0.13800
H 	H 	0.63550 0.01440 0.90200 0.09400
C 	C 	0.65160 0.96930 0.89990 0.06800
H 	H 	0.67670 0.97420 0.91080 0.02800
C 	C 	0.64010 0.93820 0.88900 -0.13800
C 	C 	0.60280 0.93180 0.87180 0.06600
H 	H 	0.59400 0.91100 0.86300 0.01900
C 	C 	0.57860 0.95600 0.86770 -0.13500
H 	H 	0.55330 0.95160 0.85590 0.07800
C 	C 	0.66800 0.91230 0.89760 0.41400
O 	O 	0.65550 0.88570 0.88180 -0.48800
O 	O 	0.70090 0.91950 0.91910 -0.52300
C 	C 	0.06970 0.98550 0.34150 -0.74900
C 	C 	0.05520 0.01070 0.31310 0.49900
H 	H 	0.02940 0.01230 0.29800 -0.12100
C 	C 	0.07600 0.03330 0.30590 -0.46800
H 	H 	0.06480 0.04940 0.28520 0.21200
Br	Br	0.14245 0.06425 0.32100 -0.27600
C 	C 	0.11320 0.03230 0.32860 0.39400
C 	C 	0.12890 0.00870 0.35770 -0.46300
H 	H 	0.15460 0.00800 0.37380 0.20600
C 	C 	0.10760 0.98570 0.36380 0.48400
H 	H 	0.11920 0.96940 0.38400 -0.12100
B 	B 	0.04550 0.95860 0.34860 1.52400
O 	O 	0.02880 0.97680 0.37870 -0.40400
N 	N 	0.00220 0.96070 0.38290 -0.15900
C 	C 	0.98060 0.97900 0.39350 0.03500
H 	H 	0.98650 0.00080 0.39800 0.05100
C 	C 	0.94800 0.96820 0.39900 -0.10200
C 	C 	0.94110 0.93610 0.40460 0.21800
C 	C 	0.91010 0.92970 0.41210 -0.10900
C 	C 	0.88790 0.95500 0.41240 -0.00100
H 	H 	0.86720 0.95030 0.41720 0.03700
C 	C 	0.89420 0.98640 0.40600 -0.03700
C 	C 	0.92500 0.99210 0.39990 -0.00300
H 	H 	0.93070 0.01330 0.39610 0.03700
C 	C 	0.89940 0.89830 0.41790 0.05600
H 	H 	0.87920 0.89690 0.42460 0.05200
N 	N 	0.91350 0.87230 0.41520 -0.15200
O 	O 	0.89480 0.84560 0.41990 -0.54100
B 	B 	0.90400 0.81460 0.40660 1.72600
O 	O 	0.01480 0.95170 0.30790 -0.54500
N 	N 	0.99020 0.92890 0.30760 -0.14400
C 	C 	0.96560 0.92240 0.27030 0.04500
H 	H 	0.96640 0.93360 0.24690 0.06100
C 	C 	0.93630 0.89950 0.25990 -0.10600
C 	C 	0.93130 0.87980 0.29070 0.22000
C 	C 	0.90090 0.85850 0.27560 -0.11000
C 	C 	0.87810 0.85700 0.23130 -0.00800
H 	H 	0.85860 0.84230 0.22130 0.03400
C 	C 	0.88300 0.87610 0.20160 -0.03400
C 	C 	0.91180 0.89720 0.21620 -0.01000
H 	H 	0.91510 0.91040 0.19600 0.04000
C 	C 	0.89170 0.83810 0.30320 0.05300
H 	H 	0.87170 0.82430 0.28930 0.04700
N 	N 	0.90770 0.83690 0.34390 -0.13800
O 	O 	0.89230 0.81570 0.36140 -0.60700
O 	O 	0.06840 0.93410 0.37350 -0.57800
N 	N 	0.05280 0.90880 0.38520 -0.15000
C 	C 	0.07410 0.88550 0.39990 0.05300
H 	H 	0.09790 0.88780 0.40170 0.04700
C 	C 	0.06600 0.85560 0.41420 -0.10900
C 	C 	0.03290 0.84890 0.41750 0.21700
C 	C 	0.02870 0.81770 0.43030 -0.11100
C 	C 	0.05510 0.79450 0.43740 -0.00400
H 	H 	0.05120 0.77370 0.44500 0.03300
C 	C 	0.08700 0.80100 0.43350 -0.03900
C 	C 	0.09180 0.83130 0.42230 -0.00700
H 	H 	0.11360 0.83610 0.41980 0.03700
C 	C 	0.99670 0.80700 0.43500 0.05600
H 	H 	0.99750 0.78670 0.44680 0.04600
N 	N 	0.96760 0.82300 0.42430 -0.14100
O 	O 	0.94200 0.80660 0.43110 -0.59200
C 	C 	0.87980 0.78830 0.41500 -0.82000
C 	C 	0.84860 0.77490 0.38310 0.53000
H 	H 	0.83990 0.78330 0.35480 -0.12800
C 	C 	0.89000 0.77520 0.45570 0.53300
H 	H 	0.91100 0.78350 0.47900 -0.13600
C 	C 	0.82940 0.75010 0.39000 -0.48300
H 	H 	0.80880 0.74130 0.36680 0.21500
C 	C 	0.87140 0.75090 0.46390 -0.49000
H 	H 	0.87960 0.74290 0.49220 0.22500
Br	Br	0.81452 0.70600 0.44300 -0.27000
C 	C 	0.84090 0.73850 0.43090 0.40400
O 	O 	0.96170 0.91340 0.40230 -0.52000
C 	C 	0.86910 0.01200 0.40440 0.08500
C 	C 	0.86780 0.04070 0.38420 -0.12800
H 	H 	0.88430 0.04440 0.37200 0.08100
C 	C 	0.84330 0.06400 0.38120 0.06400
H 	H 	0.84310 0.08330 0.36710 0.03000
C 	C 	0.81890 0.05960 0.39890 -0.13300
C 	C 	0.81960 0.03080 0.41860 0.06300
H 	H 	0.80280 0.02710 0.43030 0.03000
C 	C 	0.84420 0.00760 0.42150 -0.12700
H 	H 	0.84420 0.98820 0.43540 0.08000
C 	C 	0.79280 0.08480 0.39800 0.39600
O 	O 	0.79080 0.10960 0.37770 -0.48200
O 	O 	0.95440 0.88050 0.33110 -0.53200
O 	O 	0.77340 0.07830 0.41760 -0.48200
C 	C 	0.85760 0.87440 0.15520 0.07300
C 	C 	0.84770 0.90090 0.12860 -0.11700
H 	H 	0.85710 0.92100 0.14050 0.07900
C 	C 	0.82430 0.89860 0.08530 0.05200
H 	H 	0.81750 0.91700 0.06790 0.03100
C 	C 	0.81080 0.86900 0.06720 -0.12700
C 	C 	0.82030 0.84240 0.09390 0.04700
H 	H 	0.81080 0.82240 0.08210 0.02700
C 	C 	0.84320 0.84510 0.13720 -0.12100
H 	H 	0.84920 0.82680 0.15500 0.06800
C 	C 	0.78690 0.86500 0.01960 0.38800
O 	O 	0.00790 0.87030 0.40920 -0.51700
O 	O 	0.77360 0.88990 0.99730 -0.49800
O 	O 	0.77920 0.83740 0.00540 -0.49200
C 	C 	0.11370 0.77540 0.43900 0.08000
C 	C 	0.10170 0.74510 0.42280 -0.13700
H 	H 	0.07660 0.74020 0.41100 0.07400
C 	C 	0.12630 0.72240 0.42380 0.06000
H 	H 	0.11770 0.70200 0.41280 0.01100
C 	C 	0.16320 0.72870 0.44040 -0.14800
C 	C 	0.17560 0.75840 0.45800 0.06200
H 	H 	0.20090 0.76310 0.47020 0.02800
C 	C 	0.15120 0.78100 0.45770 -0.13400
H 	H 	0.16010 0.80090 0.47050 0.08300
C 	C 	0.18990 0.70420 0.43970 0.39000
O 	O 	0.22250 0.71110 0.45470 -0.49500
O 	O 	0.17700 0.67810 0.42350 -0.52000
Zn	Zn	0.49626 0.41164 0.37000 1.19000
Zn	Zn	0.45110 0.36507 0.38843 1.19200
Zn	Zn	0.02260 0.63126 0.92127 1.19300
Zn	Zn	0.98021 0.58404 0.94439 1.19300
Zn	Zn	0.25266 0.32115 0.94588 1.20700
Zn	Zn	0.24299 0.39548 0.93647 1.22200
Zn	Zn	0.18062 0.34741 0.87309 1.18000
Zn	Zn	0.25572 0.35505 0.86607 1.21300
O 	O 	0.23450 0.35570 0.90580 -0.95100
C 	C 	0.91380 0.50830 0.98150 -0.73900
C 	C 	0.88130 0.51550 0.98380 0.47400
H 	H 	0.87220 0.53650 0.97760 -0.11600
C 	C 	0.86170 0.49340 0.99480 -0.43900
H 	H 	0.83940 0.49920 0.99540 0.19600
Br	Br	0.84987 0.43162 0.02128 -0.28900
C 	C 	0.87480 0.46300 0.00490 0.37500
C 	C 	0.90690 0.45550 0.00360 -0.45300
H 	H 	0.91620 0.43470 0.01070 0.18800
C 	C 	0.92600 0.47730 0.99230 0.47900
H 	H 	0.94820 0.47110 0.99170 -0.13400
B 	B 	0.93760 0.53260 0.96890 1.54700
O 	O 	0.91010 0.56180 0.94530 -0.42700
N 	N 	0.92670 0.58670 0.93870 -0.15400
C 	C 	0.90370 0.61200 0.92500 0.03200
H 	H 	0.87980 0.60910 0.92270 0.05000
C 	C 	0.91250 0.64380 0.91320 -0.10200
C 	C 	0.94350 0.65040 0.90670 0.22500
C 	C 	0.94800 0.68200 0.89580 -0.11200
C 	C 	0.92140 0.70480 0.89150 -0.00500
H 	H 	0.92410 0.72570 0.88350 0.03900
C 	C 	0.89140 0.69750 0.89870 -0.03600
C 	C 	0.88690 0.66680 0.90930 -0.00700
H 	H 	0.86620 0.66140 0.91380 0.03700
C 	C 	0.97880 0.69320 0.88960 0.06200
H 	H 	0.97880 0.71480 0.88240 0.04800
N 	N 	0.00570 0.67680 0.89290 -0.14900
O 	O 	0.03020 0.69390 0.88360 -0.54800
B 	B 	0.06690 0.68050 0.89780 1.66600
O 	O 	0.96590 0.54440 0.00930 -0.54100
N 	N 	0.98930 0.56770 0.00710 -0.15000
C 	C 	0.01410 0.57590 0.04330 0.05400
H 	H 	0.01300 0.56640 0.06760 0.04600
C 	C 	0.04390 0.59760 0.05280 -0.10200
C 	C 	0.05000 0.61420 0.02020 0.20900
C 	C 	0.08070 0.63500 0.03370 -0.09700
C 	C 	0.10410 0.63820 0.07790 -0.00900
H 	H 	0.12470 0.65170 0.08660 0.04700
C 	C 	0.09790 0.62200 0.10890 -0.03200
C 	C 	0.06780 0.60210 0.09640 -0.00700
H 	H 	0.06330 0.59140 0.11780 0.03600
C 	C 	0.08900 0.65410 0.00430 0.05500
H 	H 	0.11060 0.66640 0.01650 0.06500
N 	N 	0.07030 0.65620 0.96380 -0.15000
O 	O 	0.08560 0.67720 0.94440 -0.55800
O 	O 	0.94840 0.51900 0.93940 -0.58400
N 	N 	0.97190 0.53570 0.92750 -0.14600
C 	C 	0.99010 0.51830 0.91390 0.04700
H 	H 	0.98590 0.49620 0.91340 0.05700
C 	C 	0.01650 0.52860 0.89910 -0.09300
C 	C 	0.02380 0.56130 0.89440 0.19400
C 	C 	0.05130 0.56780 0.88030 -0.09400
C 	C 	0.07150 0.54310 0.87370 -0.00600
H 	H 	0.08970 0.54800 0.86450 0.04500
C 	C 	0.06520 0.51180 0.88050 -0.03100
C 	C 	0.03720 0.50490 0.89170 -0.01000
H 	H 	0.03200 0.48340 0.89460 0.04300
C 	C 	0.06110 0.59930 0.87320 0.06000
H 	H 	0.07730 0.60090 0.86020 0.05500
N 	N 	0.05040 0.62500 0.88250 -0.15500
O 	O 	0.06630 0.65220 0.87360 -0.55700
C 	C 	0.08880 0.70650 0.88520 -0.78800
C 	C 	0.08690 0.70940 0.84390 0.52100
H 	H 	0.07200 0.69500 0.82240 -0.12500
C 	C 	0.10580 0.73210 0.83310 -0.47400
H 	H 	0.10420 0.73260 0.80480 0.21300
Br	Br	0.15500 0.78409 0.84990 -0.26500
C 	C 	0.12660 0.75390 0.86280 0.40300
C 	C 	0.12860 0.75290 0.90350 -0.47300
H 	H 	0.14210 0.76840 0.92420 0.22000
C 	C 	0.11050 0.72920 0.91400 0.52500
H 	H 	0.11310 0.72830 0.94270 -0.13000
O 	O 	0.96780 0.62880 0.91230 -0.51700
C 	C 	0.86590 0.72250 0.89870 0.08200
C 	C 	0.85560 0.72420 0.93210 -0.12900
H 	H 	0.86360 0.70850 0.95390 0.07700
C 	C 	0.83360 0.74860 0.93370 0.06000
H 	H 	0.82760 0.75000 0.95730 0.02800
C 	C 	0.82030 0.77120 0.90120 -0.13900
C 	C 	0.82970 0.76870 0.86710 0.06400
H 	H 	0.82010 0.78340 0.84410 0.03000
C 	C 	0.85260 0.74520 0.86630 -0.13000
H 	H 	0.85950 0.74450 0.84330 0.08300
C 	C 	0.79700 0.79810 0.90330 0.40600
O 	O 	0.78960 0.79850 0.93520 -0.51300
O 	O 	0.02810 0.61000 0.97900 -0.53500
O 	O 	0.78620 0.81720 0.87310 -0.50200
C 	C 	0.12170 0.62620 0.15560 0.08400
C 	C 	0.10830 0.62310 0.18630 -0.13300
H 	H 	0.08350 0.61770 0.17720 0.07400
C 	C 	0.13030 0.62770 0.22960 0.06500
H 	H 	0.12030 0.62630 0.24970 0.01300
C 	C 	0.16730 0.63460 0.24380 -0.14900
C 	C 	0.18090 0.63730 0.21360 0.06900
H 	H 	0.20600 0.64160 0.22270 0.03000
C 	C 	0.15830 0.63370 0.16990 -0.13100
H 	H 	0.16790 0.63650 0.14950 0.08900
C 	C 	0.19170 0.63750 0.29130 0.40400
O 	O 	0.00510 0.58430 0.90120 -0.50400
O 	O 	0.17730 0.63340 0.31690 -0.51400
O 	O 	0.22470 0.64250 0.30520 -0.50000
C 	C 	0.09040 0.48650 0.88040 0.08900
C 	C 	0.12720 0.49330 0.89520 -0.13800
H 	H 	0.13550 0.51440 0.90200 0.09400
C 	C 	0.15160 0.46930 0.89990 0.06800
H 	H 	0.17670 0.47420 0.91080 0.02800
C 	C 	0.14010 0.43820 0.88900 -0.13800
C 	C 	0.10280 0.43180 0.87180 0.06600
H 	H 	0.09400 0.41100 0.86300 0.01900
C 	C 	0.07860 0.45600 0.86770 -0.13500
H 	H 	0.05330 0.45160 0.85590 0.07800
C 	C 	0.16800 0.41230 0.89760 0.41400
O 	O 	0.15550 0.38570 0.88180 -0.48800
O 	O 	0.20090 0.41950 0.91910 -0.52300
C 	C 	0.56970 0.48550 0.34150 -0.74900
C 	C 	0.55520 0.51070 0.31310 0.49900
H 	H 	0.52940 0.51230 0.29800 -0.12100
C 	C 	0.57600 0.53330 0.30590 -0.46800
H 	H 	0.56480 0.54940 0.28520 0.21200
Br	Br	0.64245 0.56425 0.32100 -0.27600
C 	C 	0.61320 0.53230 0.32860 0.39400
C 	C 	0.62890 0.50870 0.35770 -0.46300
H 	H 	0.65460 0.50800 0.37380 0.20600
C 	C 	0.60760 0.48570 0.36380 0.48400
H 	H 	0.61920 0.46940 0.38400 -0.12100
B 	B 	0.54550 0.45860 0.34860 1.52400
O 	O 	0.52880 0.47680 0.37870 -0.40400
N 	N 	0.50220 0.46070 0.38290 -0.15900
C 	C 	0.48060 0.47900 0.39350 0.03500
H 	H 	0.48650 0.50080 0.39800 0.05100
C 	C 	0.44800 0.46820 0.39900 -0.10200
C 	C 	0.44110 0.43610 0.40460 0.21800
C 	C 	0.41010 0.42970 0.41210 -0.10900
C 	C 	0.38790 0.45500 0.41240 -0.00100
H 	H 	0.36720 0.45030 0.41720 0.03700
C 	C 	0.39420 0.48640 0.40600 -0.03700
C 	C 	0.42500 0.49210 0.39990 -0.00300
H 	H 	0.43070 0.51330 0.39610 0.03700
C 	C 	0.39940 0.39830 0.41790 0.05600
H 	H 	0.37920 0.39690 0.42460 0.05200
N 	N 	0.41350 0.37230 0.41520 -0.15200
O 	O 	0.39480 0.34560 0.41990 -0.54100
B 	B 	0.40400 0.31460 0.40660 1.72600
O 	O 	0.51480 0.45170 0.30790 -0.54500
N 	N 	0.49020 0.42890 0.30760 -0.14400
C 	C 	0.46560 0.42240 0.27030 0.04500
H 	H 	0.46640 0.43360 0.24690 0.06100
C 	C 	0.43630 0.39950 0.25990 -0.10600
C 	C 	0.43130 0.37980 0.29070 0.22000
C 	C 	0.40090 0.35850 0.27560 -0.11000
C 	C 	0.37810 0.35700 0.23130 -0.00800
H 	H 	0.35860 0.34230 0.22130 0.03400
C 	C 	0.38300 0.37610 0.20160 -0.03400
C 	C 	0.41180 0.39720 0.21620 -0.01000
H 	H 	0.41510 0.41040 0.19600 0.04000
C 	C 	0.39170 0.33810 0.30320 0.05300
H 	H 	0.37170 0.32430 0.28930 0.04700
N 	N 	0.40770 0.33690 0.34390 -0.13800
O 	O 	0.39230 0.31570 0.36140 -0.60700
O 	O 	0.56840 0.43410 0.37350 -0.57800
N 	N 	0.55280 0.40880 0.38520 -0.15000
C 	C 	0.57410 0.38550 0.39990 0.05300
H 	H 	0.59790 0.38780 0.40170 0.04700
C 	C 	0.56600 0.35560 0.41420 -0.10900
C 	C 	0.53290 0.34890 0.41750 0.21700
C 	C 	0.52870 0.31770 0.43030 -0.11000
C 	C 	0.55510 0.29450 0.43740 -0.00400
H 	H 	0.55120 0.27370 0.44500 0.03300
C 	C 	0.58700 0.30100 0.43350 -0.03900
C 	C 	0.59180 0.33130 0.42230 -0.00700
H 	H 	0.61360 0.33610 0.41980 0.03700
C 	C 	0.49670 0.30700 0.43500 0.05600
H 	H 	0.49750 0.28670 0.44680 0.04600
N 	N 	0.46760 0.32300 0.42430 -0.14100
O 	O 	0.44200 0.30660 0.43110 -0.59200
C 	C 	0.37980 0.28830 0.41500 -0.82000
C 	C 	0.34860 0.27490 0.38310 0.53000
H 	H 	0.33990 0.28330 0.35480 -0.12800
C 	C 	0.39000 0.27520 0.45570 0.53300
H 	H 	0.41100 0.28350 0.47900 -0.13600
C 	C 	0.32940 0.25010 0.39000 -0.48300
H 	H 	0.30880 0.24130 0.36680 0.21500
C 	C 	0.37140 0.25090 0.46390 -0.49000
H 	H 	0.37960 0.24290 0.49220 0.22500
Br	Br	0.31452 0.20600 0.44300 -0.27000
C 	C 	0.34090 0.23850 0.43090 0.40400
O 	O 	0.46170 0.41340 0.40230 -0.52000
C 	C 	0.36910 0.51200 0.40440 0.08500
C 	C 	0.36780 0.54070 0.38420 -0.12800
H 	H 	0.38430 0.54440 0.37200 0.08100
C 	C 	0.34330 0.56400 0.38120 0.06400
H 	H 	0.34310 0.58330 0.36710 0.03000
C 	C 	0.31890 0.55960 0.39890 -0.13300
C 	C 	0.31960 0.53080 0.41860 0.06300
H 	H 	0.30280 0.52710 0.43030 0.03000
C 	C 	0.34420 0.50760 0.42150 -0.12700
H 	H 	0.34420 0.48820 0.43540 0.08000
C 	C 	0.29280 0.58480 0.39800 0.39600
O 	O 	0.29080 0.60960 0.37770 -0.48200
O 	O 	0.45440 0.38050 0.33110 -0.53300
O 	O 	0.27340 0.57830 0.41760 -0.48200
C 	C 	0.35760 0.37440 0.15520 0.07300
C 	C 	0.34770 0.40090 0.12860 -0.11700
H 	H 	0.35710 0.42100 0.14050 0.07900
C 	C 	0.32430 0.39860 0.08530 0.05200
H 	H 	0.31750 0.41700 0.06790 0.03100
C 	C 	0.31080 0.36900 0.06720 -0.12700
C 	C 	0.32030 0.34240 0.09390 0.04700
H 	H 	0.31080 0.32240 0.08210 0.02700
C 	C 	0.34320 0.34510 0.13720 -0.12100
H 	H 	0.34920 0.32680 0.15500 0.06800
C 	C 	0.28690 0.36500 0.01960 0.38800
O 	O 	0.50790 0.37030 0.40920 -0.51700
O 	O 	0.27360 0.38990 0.99730 -0.49700
O 	O 	0.27920 0.33740 0.00540 -0.49200
C 	C 	0.61370 0.27540 0.43900 0.08000
C 	C 	0.60170 0.24510 0.42280 -0.13700
H 	H 	0.57660 0.24020 0.41100 0.07400
C 	C 	0.62630 0.22240 0.42380 0.06000
H 	H 	0.61770 0.20200 0.41280 0.01100
C 	C 	0.66320 0.22870 0.44040 -0.14800
C 	C 	0.67560 0.25840 0.45800 0.06200
H 	H 	0.70090 0.26310 0.47020 0.02800
C 	C 	0.65120 0.28100 0.45770 -0.13400
H 	H 	0.66010 0.30090 0.47050 0.08300
C 	C 	0.68990 0.20420 0.43970 0.39000
O 	O 	0.72250 0.21110 0.45470 -0.49500
O 	O 	0.67700 0.17810 0.42350 -0.52000
Zn	Zn	0.99626 0.08836 0.87000 1.19000
Zn	Zn	0.95110 0.13493 0.88843 1.19200
Zn	Zn	0.52260 0.86874 0.42127 1.19300
Zn	Zn	0.48021 0.91596 0.44439 1.19300
Zn	Zn	0.75266 0.17885 0.44588 1.20700
Zn	Zn	0.74299 0.10452 0.43647 1.22200
Zn	Zn	0.68062 0.15259 0.37309 1.18000
Zn	Zn	0.75572 0.14495 0.36607 1.21300
O 	O 	0.73450 0.14430 0.40580 -0.95100
C 	C 	0.41380 0.99170 0.48150 -0.74000
C 	C 	0.38130 0.98450 0.48380 0.47500
H 	H 	0.37220 0.96350 0.47760 -0.11600
C 	C 	0.36170 0.00660 0.49480 -0.43900
H 	H 	0.33940 0.00080 0.49540 0.19600
Br	Br	0.34987 0.06838 0.52128 -0.28900
C 	C 	0.37480 0.03700 0.50490 0.37400
C 	C 	0.40690 0.04450 0.50360 -0.45400
H 	H 	0.41620 0.06530 0.51070 0.18800
C 	C 	0.42600 0.02270 0.49230 0.48000
H 	H 	0.44820 0.02890 0.49170 -0.13400
B 	B 	0.43760 0.96740 0.46890 1.54800
O 	O 	0.41010 0.93820 0.44530 -0.42700
N 	N 	0.42670 0.91330 0.43870 -0.15400
C 	C 	0.40370 0.88800 0.42500 0.03200
H 	H 	0.37980 0.89090 0.42270 0.05000
C 	C 	0.41250 0.85620 0.41320 -0.10200
C 	C 	0.44350 0.84960 0.40670 0.22500
C 	C 	0.44800 0.81800 0.39580 -0.11200
C 	C 	0.42140 0.79520 0.39150 -0.00400
H 	H 	0.42410 0.77430 0.38350 0.03900
C 	C 	0.39140 0.80250 0.39870 -0.03600
C 	C 	0.38690 0.83320 0.40930 -0.00700
H 	H 	0.36620 0.83860 0.41380 0.03700
C 	C 	0.47880 0.80680 0.38960 0.06300
H 	H 	0.47880 0.78520 0.38240 0.04800
N 	N 	0.50570 0.82320 0.39290 -0.15000
O 	O 	0.53020 0.80610 0.38360 -0.54800
B 	B 	0.56690 0.81950 0.39780 1.66600
O 	O 	0.46590 0.95560 0.50930 -0.54100
N 	N 	0.48930 0.93230 0.50710 -0.15000
C 	C 	0.51410 0.92410 0.54330 0.05400
H 	H 	0.51300 0.93360 0.56760 0.04600
C 	C 	0.54390 0.90240 0.55280 -0.10300
C 	C 	0.55000 0.88580 0.52020 0.21000
C 	C 	0.58070 0.86500 0.53370 -0.09700
C 	C 	0.60410 0.86180 0.57790 -0.00900
H 	H 	0.62470 0.84830 0.58660 0.04700
C 	C 	0.59790 0.87800 0.60890 -0.03200
C 	C 	0.56780 0.89790 0.59640 -0.00700
H 	H 	0.56330 0.90860 0.61780 0.03600
C 	C 	0.58900 0.84590 0.50430 0.05600
H 	H 	0.61060 0.83360 0.51650 0.06500
N 	N 	0.57030 0.84380 0.46380 -0.15100
O 	O 	0.58560 0.82280 0.44440 -0.55800
O 	O 	0.44840 0.98100 0.43940 -0.58400
N 	N 	0.47190 0.96430 0.42750 -0.14600
C 	C 	0.49010 0.98170 0.41390 0.04700
H 	H 	0.48590 0.00380 0.41340 0.05700
C 	C 	0.51650 0.97140 0.39910 -0.09400
C 	C 	0.52380 0.93870 0.39440 0.19400
C 	C 	0.55130 0.93220 0.38030 -0.09400
C 	C 	0.57150 0.95690 0.37370 -0.00600
H 	H 	0.58970 0.95200 0.36450 0.04500
C 	C 	0.56520 0.98820 0.38050 -0.03100
C 	C 	0.53720 0.99510 0.39170 -0.01000
H 	H 	0.53200 0.01660 0.39460 0.04300
C 	C 	0.56110 0.90070 0.37320 0.06000
H 	H 	0.57730 0.89910 0.36020 0.05500
N 	N 	0.55040 0.87500 0.38250 -0.15500
O 	O 	0.56630 0.84780 0.37360 -0.55700
C 	C 	0.58880 0.79350 0.38520 -0.78800
C 	C 	0.58690 0.79060 0.34390 0.52100
H 	H 	0.57200 0.80500 0.32240 -0.12500
C 	C 	0.60580 0.76790 0.33310 -0.47400
H 	H 	0.60420 0.76740 0.30480 0.21300
Br	Br	0.65500 0.71591 0.34990 -0.26500
C 	C 	0.62660 0.74610 0.36280 0.40300
C 	C 	0.62860 0.74710 0.40350 -0.47300
H 	H 	0.64210 0.73160 0.42420 0.22000
C 	C 	0.61050 0.77080 0.41400 0.52500
H 	H 	0.61310 0.77170 0.44270 -0.13000
O 	O 	0.46780 0.87120 0.41230 -0.51700
C 	C 	0.36590 0.77750 0.39870 0.08200
C 	C 	0.35560 0.77580 0.43210 -0.12900
H 	H 	0.36360 0.79150 0.45390 0.07700
C 	C 	0.33360 0.75140 0.43370 0.06000
H 	H 	0.32760 0.75000 0.45730 0.02800
C 	C 	0.32030 0.72880 0.40120 -0.13800
C 	C 	0.32970 0.73130 0.36710 0.06400
H 	H 	0.32010 0.71660 0.34410 0.03000
C 	C 	0.35260 0.75480 0.36630 -0.13000
H 	H 	0.35950 0.75550 0.34330 0.08300
C 	C 	0.29700 0.70190 0.40330 0.40600
O 	O 	0.28960 0.70150 0.43520 -0.51300
O 	O 	0.52810 0.89000 0.47900 -0.53500
O 	O 	0.28620 0.68280 0.37310 -0.50200
C 	C 	0.62170 0.87380 0.65560 0.08400
C 	C 	0.60830 0.87690 0.68630 -0.13300
H 	H 	0.58350 0.88230 0.67720 0.07500
C 	C 	0.63030 0.87230 0.72960 0.06500
H 	H 	0.62030 0.87370 0.74970 0.01300
C 	C 	0.66730 0.86540 0.74380 -0.14900
C 	C 	0.68090 0.86270 0.71360 0.06900
H 	H 	0.70600 0.85840 0.72270 0.03000
C 	C 	0.65830 0.86630 0.66990 -0.13100
H 	H 	0.66790 0.86350 0.64950 0.08900
C 	C 	0.69170 0.86250 0.79130 0.40400
O 	O 	0.50510 0.91570 0.40120 -0.50400
O 	O 	0.67730 0.86660 0.81690 -0.51400
O 	O 	0.72470 0.85750 0.80520 -0.50000
C 	C 	0.59040 0.01350 0.38040 0.08900
C 	C 	0.62720 0.00670 0.39520 -0.13800
H 	H 	0.63550 0.98560 0.40200 0.09400
C 	C 	0.65160 0.03070 0.39990 0.06800
H 	H 	0.67670 0.02580 0.41080 0.02800
C 	C 	0.64010 0.06180 0.38900 -0.13800
C 	C 	0.60280 0.06820 0.37180 0.06600
H 	H 	0.59400 0.08900 0.36300 0.01900
C 	C 	0.57860 0.04400 0.36770 -0.13500
H 	H 	0.55330 0.04840 0.35590 0.07800
C 	C 	0.66800 0.08770 0.39760 0.41400
O 	O 	0.65550 0.11430 0.38180 -0.48800
O 	O 	0.70090 0.08050 0.41910 -0.52300
C 	C 	0.06970 0.01450 0.84150 -0.74900
C 	C 	0.05520 0.98930 0.81310 0.49900
H 	H 	0.02940 0.98770 0.79800 -0.12100
C 	C 	0.07600 0.96670 0.80590 -0.46800
H 	H 	0.06480 0.95060 0.78520 0.21200
Br	Br	0.14245 0.93575 0.82100 -0.27600
C 	C 	0.11320 0.96770 0.82860 0.39400
C 	C 	0.12890 0.99130 0.85770 -0.46300
H 	H 	0.15460 0.99200 0.87380 0.20600
C 	C 	0.10760 0.01430 0.86380 0.48400
H 	H 	0.11920 0.03060 0.88400 -0.12100
B 	B 	0.04550 0.04140 0.84860 1.52400
O 	O 	0.02880 0.02320 0.87870 -0.40400
N 	N 	0.00220 0.03930 0.88290 -0.15800
C 	C 	0.98060 0.02100 0.89350 0.03400
H 	H 	0.98650 0.99920 0.89800 0.05100
C 	C 	0.94800 0.03180 0.89900 -0.10200
C 	C 	0.94110 0.06390 0.90460 0.21800
C 	C 	0.91010 0.07030 0.91210 -0.10900
C 	C 	0.88790 0.04500 0.91240 -0.00100
H 	H 	0.86720 0.04970 0.91720 0.03700
C 	C 	0.89420 0.01360 0.90600 -0.03700
C 	C 	0.92500 0.00790 0.89990 -0.00300
H 	H 	0.93070 0.98670 0.89610 0.03700
C 	C 	0.89940 0.10170 0.91790 0.05600
H 	H 	0.87920 0.10310 0.92460 0.05200
N 	N 	0.91350 0.12770 0.91520 -0.15200
O 	O 	0.89480 0.15440 0.91990 -0.54100
B 	B 	0.90400 0.18540 0.90660 1.72600
O 	O 	0.01480 0.04830 0.80790 -0.54400
N 	N 	0.99020 0.07110 0.80760 -0.14400
C 	C 	0.96560 0.07760 0.77030 0.04500
H 	H 	0.96640 0.06640 0.74690 0.06100
C 	C 	0.93630 0.10050 0.75990 -0.10600
C 	C 	0.93130 0.12020 0.79070 0.22000
C 	C 	0.90090 0.14150 0.77560 -0.11000
C 	C 	0.87810 0.14300 0.73130 -0.00800
H 	H 	0.85860 0.15770 0.72130 0.03400
C 	C 	0.88300 0.12390 0.70160 -0.03400
C 	C 	0.91180 0.10280 0.71620 -0.01000
H 	H 	0.91510 0.08960 0.69600 0.04000
C 	C 	0.89170 0.16190 0.80320 0.05300
H 	H 	0.87170 0.17570 0.78930 0.04700
N 	N 	0.90770 0.16310 0.84390 -0.13800
O 	O 	0.89230 0.18430 0.86140 -0.60700
O 	O 	0.06840 0.06590 0.87350 -0.57800
N 	N 	0.05280 0.09120 0.88520 -0.15000
C 	C 	0.07410 0.11450 0.89990 0.05300
H 	H 	0.09790 0.11220 0.90170 0.04700
C 	C 	0.06600 0.14440 0.91420 -0.10900
C 	C 	0.03290 0.15110 0.91750 0.21700
C 	C 	0.02870 0.18230 0.93030 -0.11000
C 	C 	0.05510 0.20550 0.93740 -0.00500
H 	H 	0.05120 0.22630 0.94500 0.03400
C 	C 	0.08700 0.19900 0.93350 -0.03900
C 	C 	0.09180 0.16870 0.92230 -0.00800
H 	H 	0.11360 0.16390 0.91980 0.03700
C 	C 	0.99670 0.19300 0.93500 0.05500
H 	H 	0.99750 0.21330 0.94680 0.04600
N 	N 	0.96760 0.17700 0.92430 -0.14100
O 	O 	0.94200 0.19340 0.93110 -0.59200
C 	C 	0.87980 0.21170 0.91500 -0.82000
C 	C 	0.84860 0.22510 0.88310 0.53000
H 	H 	0.83990 0.21670 0.85480 -0.12800
C 	C 	0.89000 0.22480 0.95570 0.53300
H 	H 	0.91100 0.21650 0.97900 -0.13600
C 	C 	0.82940 0.24990 0.89000 -0.48300
H 	H 	0.80880 0.25870 0.86680 0.21500
C 	C 	0.87140 0.24910 0.96390 -0.49000
H 	H 	0.87960 0.25710 0.99220 0.22400
Br	Br	0.81452 0.29400 0.94300 -0.27000
C 	C 	0.84090 0.26150 0.93090 0.40300
O 	O 	0.96170 0.08660 0.90230 -0.52000
C 	C 	0.86910 0.98800 0.90440 0.08500
C 	C 	0.86780 0.95930 0.88420 -0.12800
H 	H 	0.88430 0.95560 0.87200 0.08100
C 	C 	0.84330 0.93600 0.88120 0.06400
H 	H 	0.84310 0.91670 0.86710 0.03000
C 	C 	0.81890 0.94040 0.89890 -0.13300
C 	C 	0.81960 0.96920 0.91860 0.06300
H 	H 	0.80280 0.97290 0.93030 0.03000
C 	C 	0.84420 0.99240 0.92150 -0.12700
H 	H 	0.84420 0.01180 0.93540 0.08000
C 	C 	0.79280 0.91520 0.89800 0.39600
O 	O 	0.79080 0.89040 0.87770 -0.48200
O 	O 	0.95440 0.11950 0.83110 -0.53300
O 	O 	0.77340 0.92170 0.91760 -0.48200
C 	C 	0.85760 0.12560 0.65520 0.07300
C 	C 	0.84770 0.09910 0.62860 -0.11700
H 	H 	0.85710 0.07900 0.64050 0.07900
C 	C 	0.82430 0.10140 0.58530 0.05200
H 	H 	0.81750 0.08300 0.56790 0.03100
C 	C 	0.81080 0.13100 0.56720 -0.12700
C 	C 	0.82030 0.15760 0.59390 0.04700
H 	H 	0.81080 0.17760 0.58210 0.02700
C 	C 	0.84320 0.15490 0.63720 -0.12100
H 	H 	0.84920 0.17320 0.65500 0.06800
C 	C 	0.78690 0.13500 0.51960 0.38800
O 	O 	0.00790 0.12970 0.90920 -0.51600
O 	O 	0.77360 0.11010 0.49730 -0.49700
O 	O 	0.77920 0.16260 0.50540 -0.49100
C 	C 	0.11370 0.22460 0.93900 0.08000
C 	C 	0.10170 0.25490 0.92280 -0.13700
H 	H 	0.07660 0.25980 0.91100 0.07400
C 	C 	0.12630 0.27760 0.92380 0.06000
H 	H 	0.11770 0.29800 0.91280 0.01100
C 	C 	0.16320 0.27130 0.94040 -0.14800
C 	C 	0.17560 0.24160 0.95800 0.06200
H 	H 	0.20090 0.23690 0.97020 0.02800
C 	C 	0.15120 0.21900 0.95770 -0.13300
H 	H 	0.16010 0.19910 0.97050 0.08300
C 	C 	0.18990 0.29580 0.93970 0.39000
O 	O 	0.22250 0.28890 0.95470 -0.49500
O 	O 	0.17700 0.32190 0.92350 -0.52000
Zn	Zn	0.49626 0.58836 0.87000 1.19000
Zn	Zn	0.45110 0.63493 0.88843 1.19200
Zn	Zn	0.02260 0.36874 0.42127 1.19300
Zn	Zn	0.98021 0.41596 0.44439 1.19300
Zn	Zn	0.25266 0.67885 0.44588 1.20700
Zn	Zn	0.24299 0.60452 0.43647 1.22200
Zn	Zn	0.18062 0.65259 0.37309 1.18000
Zn	Zn	0.25572 0.64495 0.36607 1.21300
O 	O 	0.23450 0.64430 0.40580 -0.95100
C 	C 	0.91380 0.49170 0.48150 -0.74000
C 	C 	0.88130 0.48450 0.48380 0.47500
H 	H 	0.87220 0.46350 0.47760 -0.11600
C 	C 	0.86170 0.50660 0.49480 -0.43900
H 	H 	0.83940 0.50080 0.49540 0.19600
Br	Br	0.84987 0.56838 0.52128 -0.28900
C 	C 	0.87480 0.53700 0.50490 0.37400
C 	C 	0.90690 0.54450 0.50360 -0.45400
H 	H 	0.91620 0.56530 0.51070 0.18800
C 	C 	0.92600 0.52270 0.49230 0.48000
H 	H 	0.94820 0.52890 0.49170 -0.13400
B 	B 	0.93760 0.46740 0.46890 1.54800
O 	O 	0.91010 0.43820 0.44530 -0.42700
N 	N 	0.92670 0.41330 0.43870 -0.15400
C 	C 	0.90370 0.38800 0.42500 0.03200
H 	H 	0.87980 0.39090 0.42270 0.05000
C 	C 	0.91250 0.35620 0.41320 -0.10200
C 	C 	0.94350 0.34960 0.40670 0.22500
C 	C 	0.94800 0.31800 0.39580 -0.11200
C 	C 	0.92140 0.29520 0.39150 -0.00400
H 	H 	0.92410 0.27430 0.38350 0.03900
C 	C 	0.89140 0.30250 0.39870 -0.03600
C 	C 	0.88690 0.33320 0.40930 -0.00700
H 	H 	0.86620 0.33860 0.41380 0.03700
C 	C 	0.97880 0.30680 0.38960 0.06300
H 	H 	0.97880 0.28520 0.38240 0.04800
N 	N 	0.00570 0.32320 0.39290 -0.15000
O 	O 	0.03020 0.30610 0.38360 -0.54800
B 	B 	0.06690 0.31950 0.39780 1.66600
O 	O 	0.96590 0.45560 0.50930 -0.54100
N 	N 	0.98930 0.43230 0.50710 -0.15000
C 	C 	0.01410 0.42410 0.54330 0.05400
H 	H 	0.01300 0.43360 0.56760 0.04600
C 	C 	0.04390 0.40240 0.55280 -0.10300
C 	C 	0.05000 0.38580 0.52020 0.21000
C 	C 	0.08070 0.36500 0.53370 -0.09700
C 	C 	0.10410 0.36180 0.57790 -0.00900
H 	H 	0.12470 0.34830 0.58660 0.04700
C 	C 	0.09790 0.37800 0.60890 -0.03200
C 	C 	0.06780 0.39790 0.59640 -0.00700
H 	H 	0.06330 0.40860 0.61780 0.03600
C 	C 	0.08900 0.34590 0.50430 0.05600
H 	H 	0.11060 0.33360 0.51650 0.06500
N 	N 	0.07030 0.34380 0.46380 -0.15100
O 	O 	0.08560 0.32280 0.44440 -0.55800
O 	O 	0.94840 0.48100 0.43940 -0.58400
N 	N 	0.97190 0.46430 0.42750 -0.14600
C 	C 	0.99010 0.48170 0.41390 0.04800
H 	H 	0.98590 0.50380 0.41340 0.05700
C 	C 	0.01650 0.47140 0.39910 -0.09400
C 	C 	0.02380 0.43870 0.39440 0.19400
C 	C 	0.05130 0.43220 0.38030 -0.09400
C 	C 	0.07150 0.45690 0.37370 -0.00600
H 	H 	0.08970 0.45200 0.36450 0.04500
C 	C 	0.06520 0.48820 0.38050 -0.03100
C 	C 	0.03720 0.49510 0.39170 -0.01000
H 	H 	0.03200 0.51660 0.39460 0.04300
C 	C 	0.06110 0.40070 0.37320 0.06000
H 	H 	0.07730 0.39910 0.36020 0.05500
N 	N 	0.05040 0.37500 0.38250 -0.15500
O 	O 	0.06630 0.34780 0.37360 -0.55700
C 	C 	0.08880 0.29350 0.38520 -0.78800
C 	C 	0.08690 0.29060 0.34390 0.52100
H 	H 	0.07200 0.30500 0.32240 -0.12500
C 	C 	0.10580 0.26790 0.33310 -0.47400
H 	H 	0.10420 0.26740 0.30480 0.21300
Br	Br	0.15500 0.21591 0.34990 -0.26500
C 	C 	0.12660 0.24610 0.36280 0.40300
C 	C 	0.12860 0.24710 0.40350 -0.47300
H 	H 	0.14210 0.23160 0.42420 0.22000
C 	C 	0.11050 0.27080 0.41400 0.52500
H 	H 	0.11310 0.27170 0.44270 -0.13000
O 	O 	0.96780 0.37120 0.41230 -0.51700
C 	C 	0.86590 0.27750 0.39870 0.08200
C 	C 	0.85560 0.27580 0.43210 -0.12900
H 	H 	0.86360 0.29150 0.45390 0.07700
C 	C 	0.83360 0.25140 0.43370 0.06000
H 	H 	0.82760 0.25000 0.45730 0.02800
C 	C 	0.82030 0.22880 0.40120 -0.13800
C 	C 	0.82970 0.23130 0.36710 0.06400
H 	H 	0.82010 0.21660 0.34410 0.03000
C 	C 	0.85260 0.25480 0.36630 -0.13000
H 	H 	0.85950 0.25550 0.34330 0.08300
C 	C 	0.79700 0.20190 0.40330 0.40600
O 	O 	0.78960 0.20150 0.43520 -0.51300
O 	O 	0.02810 0.39000 0.47900 -0.53500
O 	O 	0.78620 0.18280 0.37310 -0.50200
C 	C 	0.12170 0.37380 0.65560 0.08400
C 	C 	0.10830 0.37690 0.68630 -0.13300
H 	H 	0.08350 0.38230 0.67720 0.07500
C 	C 	0.13030 0.37230 0.72960 0.06500
H 	H 	0.12030 0.37370 0.74970 0.01300
C 	C 	0.16730 0.36540 0.74380 -0.14900
C 	C 	0.18090 0.36270 0.71360 0.06900
H 	H 	0.20600 0.35840 0.72270 0.03000
C 	C 	0.15830 0.36630 0.66990 -0.13100
H 	H 	0.16790 0.36350 0.64950 0.08900
C 	C 	0.19170 0.36250 0.79130 0.40400
O 	O 	0.00510 0.41570 0.40120 -0.50400
O 	O 	0.17730 0.36660 0.81690 -0.51400
O 	O 	0.22470 0.35750 0.80520 -0.50000
C 	C 	0.09040 0.51350 0.38040 0.08900
C 	C 	0.12720 0.50670 0.39520 -0.13800
H 	H 	0.13550 0.48560 0.40200 0.09400
C 	C 	0.15160 0.53070 0.39990 0.06800
H 	H 	0.17670 0.52580 0.41080 0.02800
C 	C 	0.14010 0.56180 0.38900 -0.13800
C 	C 	0.10280 0.56820 0.37180 0.06600
H 	H 	0.09400 0.58900 0.36300 0.01900
C 	C 	0.07860 0.54400 0.36770 -0.13500
H 	H 	0.05330 0.54840 0.35590 0.07800
C 	C 	0.16800 0.58770 0.39760 0.41400
O 	O 	0.15550 0.61430 0.38180 -0.48800
O 	O 	0.20090 0.58050 0.41910 -0.52300
C 	C 	0.56970 0.51450 0.84150 -0.74900
C 	C 	0.55520 0.48930 0.81310 0.49900
H 	H 	0.52940 0.48770 0.79800 -0.12100
C 	C 	0.57600 0.46670 0.80590 -0.46800
H 	H 	0.56480 0.45060 0.78520 0.21200
Br	Br	0.64245 0.43575 0.82100 -0.27600
C 	C 	0.61320 0.46770 0.82860 0.39400
C 	C 	0.62890 0.49130 0.85770 -0.46300
H 	H 	0.65460 0.49200 0.87380 0.20600
C 	C 	0.60760 0.51430 0.86380 0.48400
H 	H 	0.61920 0.53060 0.88400 -0.12100
B 	B 	0.54550 0.54140 0.84860 1.52400
O 	O 	0.52880 0.52320 0.87870 -0.40400
N 	N 	0.50220 0.53930 0.88290 -0.15900
C 	C 	0.48060 0.52100 0.89350 0.03500
H 	H 	0.48650 0.49920 0.89800 0.05100
C 	C 	0.44800 0.53180 0.89900 -0.10200
C 	C 	0.44110 0.56390 0.90460 0.21800
C 	C 	0.41010 0.57030 0.91210 -0.10900
C 	C 	0.38790 0.54500 0.91240 -0.00100
H 	H 	0.36720 0.54970 0.91720 0.03700
C 	C 	0.39420 0.51360 0.90600 -0.03700
C 	C 	0.42500 0.50790 0.89990 -0.00300
H 	H 	0.43070 0.48670 0.89610 0.03700
C 	C 	0.39940 0.60170 0.91790 0.05600
H 	H 	0.37920 0.60310 0.92460 0.05200
N 	N 	0.41350 0.62770 0.91520 -0.15200
O 	O 	0.39480 0.65440 0.91990 -0.54100
B 	B 	0.40400 0.68540 0.90660 1.72600
O 	O 	0.51480 0.54830 0.80790 -0.54500
N 	N 	0.49020 0.57110 0.80760 -0.14400
C 	C 	0.46560 0.57760 0.77030 0.04500
H 	H 	0.46640 0.56640 0.74690 0.06100
C 	C 	0.43630 0.60050 0.75990 -0.10600
C 	C 	0.43130 0.62020 0.79070 0.22000
C 	C 	0.40090 0.64150 0.77560 -0.11000
C 	C 	0.37810 0.64300 0.73130 -0.00800
H 	H 	0.35860 0.65770 0.72130 0.03400
C 	C 	0.38300 0.62390 0.70160 -0.03400
C 	C 	0.41180 0.60280 0.71620 -0.01000
H 	H 	0.41510 0.58960 0.69600 0.04000
C 	C 	0.39170 0.66190 0.80320 0.05300
H 	H 	0.37170 0.67570 0.78930 0.04700
N 	N 	0.40770 0.66310 0.84390 -0.13800
O 	O 	0.39230 0.68430 0.86140 -0.60700
O 	O 	0.56840 0.56590 0.87350 -0.57800
N 	N 	0.55280 0.59120 0.88520 -0.15000
C 	C 	0.57410 0.61450 0.89990 0.05300
H 	H 	0.59790 0.61220 0.90170 0.04700
C 	C 	0.56600 0.64440 0.91420 -0.10900
C 	C 	0.53290 0.65110 0.91750 0.21700
C 	C 	0.52870 0.68230 0.93030 -0.11100
C 	C 	0.55510 0.70550 0.93740 -0.00400
H 	H 	0.55120 0.72630 0.94500 0.03300
C 	C 	0.58700 0.69900 0.93350 -0.03900
C 	C 	0.59180 0.66870 0.92230 -0.00700
H 	H 	0.61360 0.66390 0.91980 0.03700
C 	C 	0.49670 0.69300 0.93500 0.05600
H 	H 	0.49750 0.71330 0.94680 0.04600
N 	N 	0.46760 0.67700 0.92430 -0.14100
O 	O 	0.44200 0.69340 0.93110 -0.59200
C 	C 	0.37980 0.71170 0.91500 -0.82000
C 	C 	0.34860 0.72510 0.88310 0.53000
H 	H 	0.33990 0.71670 0.85480 -0.12800
C 	C 	0.39000 0.72480 0.95570 0.53300
H 	H 	0.41100 0.71650 0.97900 -0.13600
C 	C 	0.32940 0.74990 0.89000 -0.48300
H 	H 	0.30880 0.75870 0.86680 0.21500
C 	C 	0.37140 0.74910 0.96390 -0.49000
H 	H 	0.37960 0.75710 0.99220 0.22500
Br	Br	0.31452 0.79400 0.94300 -0.27000
C 	C 	0.34090 0.76150 0.93090 0.40400
O 	O 	0.46170 0.58660 0.90230 -0.52000
C 	C 	0.36910 0.48800 0.90440 0.08500
C 	C 	0.36780 0.45930 0.88420 -0.12800
H 	H 	0.38430 0.45560 0.87200 0.08100
C 	C 	0.34330 0.43600 0.88120 0.06400
H 	H 	0.34310 0.41670 0.86710 0.03000
C 	C 	0.31890 0.44040 0.89890 -0.13300
C 	C 	0.31960 0.46920 0.91860 0.06300
H 	H 	0.30280 0.47290 0.93030 0.03000
C 	C 	0.34420 0.49240 0.92150 -0.12700
H 	H 	0.34420 0.51180 0.93540 0.08000
C 	C 	0.29280 0.41520 0.89800 0.39600
O 	O 	0.29080 0.39040 0.87770 -0.48200
O 	O 	0.45440 0.61950 0.83110 -0.53300
O 	O 	0.27340 0.42170 0.91760 -0.48200
C 	C 	0.35760 0.62560 0.65520 0.07300
C 	C 	0.34770 0.59910 0.62860 -0.11700
H 	H 	0.35710 0.57900 0.64050 0.07900
C 	C 	0.32430 0.60140 0.58530 0.05200
H 	H 	0.31750 0.58300 0.56790 0.03100
C 	C 	0.31080 0.63100 0.56720 -0.12700
C 	C 	0.32030 0.65760 0.59390 0.04700
H 	H 	0.31080 0.67760 0.58210 0.02700
C 	C 	0.34320 0.65490 0.63720 -0.12100
H 	H 	0.34920 0.67320 0.65500 0.06800
C 	C 	0.28690 0.63500 0.51960 0.38800
O 	O 	0.50790 0.62970 0.90920 -0.51700
O 	O 	0.27360 0.61010 0.49730 -0.49700
O 	O 	0.27920 0.66260 0.50540 -0.49100
C 	C 	0.61370 0.72460 0.93900 0.08000
C 	C 	0.60170 0.75490 0.92280 -0.13700
H 	H 	0.57660 0.75980 0.91100 0.07400
C 	C 	0.62630 0.77760 0.92380 0.06000
H 	H 	0.61770 0.79800 0.91280 0.01100
C 	C 	0.66320 0.77130 0.94040 -0.14800
C 	C 	0.67560 0.74160 0.95800 0.06200
H 	H 	0.70090 0.73690 0.97020 0.02800
C 	C 	0.65120 0.71900 0.95770 -0.13400
H 	H 	0.66010 0.69910 0.97050 0.08300
C 	C 	0.68990 0.79580 0.93970 0.39000
O 	O 	0.72250 0.78890 0.95470 -0.49500
O 	O 	0.67700 0.82190 0.92350 -0.52000
