data_crystal

_cell_length_a 46.37100
_cell_length_b 46.37100
_cell_length_c 46.37100
_cell_angle_alpha 90.00000
_cell_angle_beta  90.00000
_cell_angle_gamma 90.00000

_symmetry_space_group_name_	'P 1'
_symmetry_space_group_name_H-M	'P 1'

loop_
_symmetry_equiv_pos_as_xyz
  x,y,z

loop_
_atom_site_label
_atom_site_type_symbol
_atom_site_fract_x
_atom_site_fract_y
_atom_site_fract_z
_atom_site_charge
O 	O 	0.19678 0.49942 0.46046 -0.41900
O 	O 	0.14921 0.49952 0.46023 -0.41800
O 	O 	0.03896 0.50048 0.34997 -0.43100
O 	O 	0.03873 0.50058 0.30241 -0.43200
N 	N 	0.17258 0.50514 0.32658 -0.15300
C 	C 	0.22076 0.53024 0.26599 -0.02500
C 	C 	0.19916 0.52996 0.28697 -0.07400
C 	C 	0.20155 0.50217 0.40069 0.04000
C 	C 	0.20254 0.50347 0.37047 -0.10000
C 	C 	0.17651 0.50340 0.35545 0.09600
C 	C 	0.15044 0.50223 0.36975 -0.03000
C 	C 	0.14873 0.50087 0.39972 0.01600
C 	C 	0.17480 0.50092 0.41560 -0.11500
C 	C 	0.17308 0.49931 0.44675 0.37300
C 	C 	0.05244 0.50070 0.32611 0.38100
C 	C 	0.08350 0.50276 0.32439 -0.11900
C 	C 	0.09938 0.50204 0.35045 0.01800
C 	C 	0.12938 0.50309 0.34874 -0.03100
C 	C 	0.14366 0.50498 0.32270 0.09700
C 	C 	0.12862 0.50575 0.29669 -0.10000
C 	C 	0.09839 0.50468 0.29767 0.04300
C 	C 	0.19496 0.50546 0.30412 0.08500
C 	C 	0.21240 0.48195 0.30006 -0.07600
C 	C 	0.23375 0.48203 0.27881 -0.02300
C 	C 	0.23817 0.50582 0.26165 -0.00200
H 	H 	0.22366 0.54937 0.25290 0.03500
H 	H 	0.18579 0.54886 0.29004 0.05200
H 	H 	0.22173 0.50230 0.41245 0.03400
H 	H 	0.22300 0.50469 0.35933 0.05900
H 	H 	0.12794 0.50009 0.41033 0.04300
H 	H 	0.08880 0.50045 0.37120 0.04200
H 	H 	0.13977 0.50692 0.27623 0.05900
H 	H 	0.08663 0.50518 0.27751 0.03300
H 	H 	0.20927 0.46292 0.31322 0.05300
H 	H 	0.24705 0.46304 0.27597 0.03500
O 	O 	0.19678 0.99942 0.96046 -0.41600
O 	O 	0.14921 0.99952 0.96023 -0.41400
O 	O 	0.03896 0.00048 0.84997 -0.43000
O 	O 	0.03873 0.00058 0.80241 -0.43200
N 	N 	0.17258 0.00514 0.82658 -0.15200
C 	C 	0.22076 0.03024 0.76599 -0.02400
C 	C 	0.19916 0.02996 0.78697 -0.07300
C 	C 	0.20155 0.00217 0.90069 0.04200
C 	C 	0.20254 0.00347 0.87047 -0.10000
C 	C 	0.17651 0.00340 0.85545 0.09600
C 	C 	0.15044 0.00223 0.86975 -0.03000
C 	C 	0.14873 0.00087 0.89972 0.01700
C 	C 	0.17480 0.00092 0.91560 -0.11800
C 	C 	0.17308 0.99931 0.94675 0.37700
C 	C 	0.05244 0.00070 0.82611 0.38100
C 	C 	0.08350 0.00276 0.82439 -0.11900
C 	C 	0.09938 0.00204 0.85045 0.01800
C 	C 	0.12938 0.00309 0.84874 -0.03100
C 	C 	0.14366 0.00498 0.82270 0.09700
C 	C 	0.12862 0.00575 0.79669 -0.10000
C 	C 	0.09839 0.00468 0.79767 0.04200
C 	C 	0.19496 0.00546 0.80412 0.08100
C 	C 	0.21240 0.98195 0.80006 -0.07200
C 	C 	0.23375 0.98203 0.77881 -0.02000
C 	C 	0.23817 0.00582 0.76165 -0.00500
H 	H 	0.22366 0.04937 0.75290 0.03500
H 	H 	0.18579 0.04886 0.79004 0.05200
H 	H 	0.22173 0.00230 0.91245 0.03300
H 	H 	0.22300 0.00469 0.85933 0.05900
H 	H 	0.12794 0.00009 0.91033 0.04200
H 	H 	0.08880 0.00045 0.87120 0.04200
H 	H 	0.13977 0.00692 0.77623 0.05900
H 	H 	0.08663 0.00518 0.77751 0.03300
H 	H 	0.20927 0.96292 0.81322 0.05400
H 	H 	0.24705 0.96304 0.77597 0.03500
O 	O 	0.69678 0.49942 0.96046 -0.41700
O 	O 	0.64921 0.49952 0.96023 -0.41500
O 	O 	0.53896 0.50048 0.84997 -0.42900
O 	O 	0.53873 0.50058 0.80241 -0.43000
N 	N 	0.67258 0.50514 0.82658 -0.15200
C 	C 	0.72076 0.53024 0.76599 -0.02400
C 	C 	0.69916 0.52996 0.78697 -0.07300
C 	C 	0.70155 0.50217 0.90069 0.04100
C 	C 	0.70254 0.50347 0.87047 -0.09900
C 	C 	0.67651 0.50340 0.85545 0.09600
C 	C 	0.65044 0.50223 0.86975 -0.03000
C 	C 	0.64873 0.50087 0.89972 0.01600
C 	C 	0.67480 0.50092 0.91560 -0.11400
C 	C 	0.67308 0.49931 0.94675 0.37300
C 	C 	0.55244 0.50070 0.82611 0.38100
C 	C 	0.58350 0.50276 0.82439 -0.11900
C 	C 	0.59938 0.50204 0.85045 0.01800
C 	C 	0.62938 0.50309 0.84874 -0.03100
C 	C 	0.64366 0.50498 0.82270 0.09700
C 	C 	0.62862 0.50575 0.79669 -0.10000
C 	C 	0.59839 0.50468 0.79767 0.04300
C 	C 	0.69496 0.50546 0.80412 0.08500
C 	C 	0.71240 0.48195 0.80006 -0.07500
C 	C 	0.73375 0.48203 0.77881 -0.02300
C 	C 	0.73817 0.50582 0.76165 -0.00200
H 	H 	0.72366 0.54937 0.75290 0.03500
H 	H 	0.68579 0.54886 0.79004 0.05200
H 	H 	0.72173 0.50230 0.91245 0.03400
H 	H 	0.72300 0.50469 0.85933 0.05900
H 	H 	0.62794 0.50009 0.91033 0.04300
H 	H 	0.58880 0.50045 0.87120 0.04200
H 	H 	0.63977 0.50692 0.77623 0.05900
H 	H 	0.58663 0.50518 0.77751 0.03400
H 	H 	0.70927 0.46292 0.81322 0.05400
H 	H 	0.74705 0.46304 0.77597 0.03500
O 	O 	0.69678 0.99942 0.46046 -0.41700
O 	O 	0.64921 0.99952 0.46023 -0.41500
O 	O 	0.53896 0.00048 0.34997 -0.43000
O 	O 	0.53873 0.00058 0.30241 -0.43100
N 	N 	0.67258 0.00514 0.32658 -0.15200
C 	C 	0.72076 0.03024 0.26599 -0.02400
C 	C 	0.69916 0.02996 0.28697 -0.07300
C 	C 	0.70155 0.00217 0.40069 0.04200
C 	C 	0.70254 0.00347 0.37047 -0.10000
C 	C 	0.67651 0.00340 0.35545 0.09600
C 	C 	0.65044 0.00223 0.36975 -0.03100
C 	C 	0.64873 0.00087 0.39972 0.01700
C 	C 	0.67480 0.00092 0.41560 -0.11900
C 	C 	0.67308 0.99931 0.44675 0.37700
C 	C 	0.55244 0.00070 0.32611 0.38100
C 	C 	0.58350 0.00276 0.32439 -0.11900
C 	C 	0.59938 0.00204 0.35045 0.01800
C 	C 	0.62938 0.00309 0.34874 -0.03100
C 	C 	0.64366 0.00498 0.32270 0.09700
C 	C 	0.62862 0.00575 0.29669 -0.10000
C 	C 	0.59839 0.00468 0.29767 0.04200
C 	C 	0.69496 0.00546 0.30412 0.08100
C 	C 	0.71240 0.98195 0.30006 -0.07200
C 	C 	0.73375 0.98203 0.27881 -0.02000
C 	C 	0.73817 0.00582 0.26165 -0.00500
H 	H 	0.72366 0.04937 0.25290 0.03500
H 	H 	0.68579 0.04886 0.29004 0.05200
H 	H 	0.72173 0.00230 0.41245 0.03300
H 	H 	0.72300 0.00469 0.35933 0.05900
H 	H 	0.62794 0.00009 0.41033 0.04200
H 	H 	0.58880 0.00045 0.37120 0.04200
H 	H 	0.63977 0.00692 0.27623 0.05900
H 	H 	0.58663 0.00518 0.27751 0.03300
H 	H 	0.70927 0.96292 0.31322 0.05400
H 	H 	0.74705 0.96304 0.27597 0.03500
O 	O 	0.80322 0.50058 0.46046 -0.41800
O 	O 	0.85079 0.50048 0.46023 -0.41600
O 	O 	0.96104 0.49952 0.34997 -0.42700
O 	O 	0.96127 0.49942 0.30241 -0.42900
N 	N 	0.82742 0.49486 0.32658 -0.15200
C 	C 	0.77924 0.46976 0.26599 -0.02400
C 	C 	0.80084 0.47004 0.28697 -0.07300
C 	C 	0.79845 0.49783 0.40069 0.04100
C 	C 	0.79746 0.49653 0.37047 -0.09900
C 	C 	0.82349 0.49660 0.35545 0.09600
C 	C 	0.84956 0.49777 0.36975 -0.03000
C 	C 	0.85127 0.49913 0.39972 0.01600
C 	C 	0.82520 0.49908 0.41560 -0.11500
C 	C 	0.82692 0.50069 0.44675 0.37300
C 	C 	0.94756 0.49930 0.32611 0.38100
C 	C 	0.91650 0.49724 0.32439 -0.11800
C 	C 	0.90062 0.49796 0.35045 0.01800
C 	C 	0.87062 0.49691 0.34874 -0.03100
C 	C 	0.85634 0.49502 0.32270 0.09700
C 	C 	0.87138 0.49425 0.29669 -0.10000
C 	C 	0.90161 0.49532 0.29767 0.04300
C 	C 	0.80504 0.49454 0.30412 0.08500
C 	C 	0.78760 0.51805 0.30006 -0.07600
C 	C 	0.76625 0.51797 0.27881 -0.02300
C 	C 	0.76183 0.49418 0.26165 -0.00200
H 	H 	0.77634 0.45063 0.25290 0.03500
H 	H 	0.81421 0.45114 0.29004 0.05300
H 	H 	0.77827 0.49770 0.41245 0.03400
H 	H 	0.77700 0.49531 0.35933 0.05900
H 	H 	0.87206 0.49991 0.41033 0.04300
H 	H 	0.91120 0.49955 0.37120 0.04200
H 	H 	0.86023 0.49308 0.27623 0.05900
H 	H 	0.91337 0.49482 0.27751 0.03400
H 	H 	0.79073 0.53708 0.31322 0.05300
H 	H 	0.75295 0.53696 0.27597 0.03500
O 	O 	0.80322 0.00058 0.96046 -0.41800
O 	O 	0.85079 0.00048 0.96023 -0.41500
O 	O 	0.96104 0.99952 0.84997 -0.42600
O 	O 	0.96127 0.99942 0.80241 -0.42700
N 	N 	0.82742 0.99486 0.82658 -0.15300
C 	C 	0.77924 0.96976 0.76599 -0.02400
C 	C 	0.80084 0.97004 0.78697 -0.07400
C 	C 	0.79845 0.99783 0.90069 0.04000
C 	C 	0.79746 0.99653 0.87047 -0.09800
C 	C 	0.82349 0.99660 0.85545 0.09600
C 	C 	0.84956 0.99777 0.86975 -0.02900
C 	C 	0.85127 0.99913 0.89972 0.01500
C 	C 	0.82520 0.99908 0.91560 -0.11000
C 	C 	0.82692 0.00069 0.94675 0.36900
C 	C 	0.94756 0.99930 0.82611 0.38100
C 	C 	0.91650 0.99724 0.82439 -0.11800
C 	C 	0.90062 0.99796 0.85045 0.01800
C 	C 	0.87062 0.99691 0.84874 -0.03100
C 	C 	0.85634 0.99502 0.82270 0.09700
C 	C 	0.87138 0.99425 0.79669 -0.10000
C 	C 	0.90161 0.99532 0.79767 0.04300
C 	C 	0.80504 0.99454 0.80412 0.08800
C 	C 	0.78760 0.01805 0.80006 -0.07900
C 	C 	0.76625 0.01797 0.77881 -0.02600
C 	C 	0.76183 0.99418 0.76165 0.00000
H 	H 	0.77634 0.95063 0.75290 0.03500
H 	H 	0.81421 0.95114 0.79004 0.05300
H 	H 	0.77827 0.99770 0.91245 0.03600
H 	H 	0.77700 0.99531 0.85933 0.06000
H 	H 	0.87206 0.99991 0.91033 0.04400
H 	H 	0.91120 0.99955 0.87120 0.04300
H 	H 	0.86023 0.99308 0.77623 0.06000
H 	H 	0.91337 0.99482 0.77751 0.03400
H 	H 	0.79073 0.03708 0.81322 0.05300
H 	H 	0.75295 0.03696 0.77597 0.03500
O 	O 	0.30322 0.50058 0.96046 -0.41700
O 	O 	0.35079 0.50048 0.96023 -0.41500
O 	O 	0.46104 0.49952 0.84997 -0.42900
O 	O 	0.46127 0.49942 0.80241 -0.43000
N 	N 	0.32742 0.49486 0.82658 -0.15200
C 	C 	0.27924 0.46976 0.76599 -0.02400
C 	C 	0.30084 0.47004 0.78697 -0.07300
C 	C 	0.29845 0.49783 0.90069 0.04100
C 	C 	0.29746 0.49653 0.87047 -0.09900
C 	C 	0.32349 0.49660 0.85545 0.09600
C 	C 	0.34956 0.49777 0.86975 -0.03000
C 	C 	0.35127 0.49913 0.89972 0.01600
C 	C 	0.32520 0.49908 0.91560 -0.11400
C 	C 	0.32692 0.50069 0.94675 0.37300
C 	C 	0.44756 0.49930 0.82611 0.38100
C 	C 	0.41650 0.49724 0.82439 -0.11900
C 	C 	0.40062 0.49796 0.85045 0.01800
C 	C 	0.37062 0.49691 0.84874 -0.03100
C 	C 	0.35634 0.49502 0.82270 0.09700
C 	C 	0.37138 0.49425 0.79669 -0.10000
C 	C 	0.40161 0.49532 0.79767 0.04300
C 	C 	0.30504 0.49454 0.80412 0.08500
C 	C 	0.28760 0.51805 0.80006 -0.07600
C 	C 	0.26625 0.51797 0.77881 -0.02300
C 	C 	0.26183 0.49418 0.76165 -0.00200
H 	H 	0.27634 0.45063 0.75290 0.03500
H 	H 	0.31421 0.45114 0.79004 0.05200
H 	H 	0.27827 0.49770 0.91245 0.03400
H 	H 	0.27700 0.49531 0.85933 0.05900
H 	H 	0.37206 0.49991 0.91033 0.04300
H 	H 	0.41120 0.49955 0.87120 0.04200
H 	H 	0.36023 0.49308 0.77623 0.05900
H 	H 	0.41337 0.49482 0.77751 0.03400
H 	H 	0.29073 0.53708 0.81322 0.05400
H 	H 	0.25295 0.53696 0.77597 0.03500
O 	O 	0.30322 0.00058 0.46046 -0.41900
O 	O 	0.35079 0.00048 0.46023 -0.41700
O 	O 	0.46104 0.99952 0.34997 -0.42700
O 	O 	0.46127 0.99942 0.30241 -0.42800
N 	N 	0.32742 0.99486 0.32658 -0.15300
C 	C 	0.27924 0.96976 0.26599 -0.02400
C 	C 	0.30084 0.97004 0.28697 -0.07400
C 	C 	0.29845 0.99783 0.40069 0.04000
C 	C 	0.29746 0.99653 0.37047 -0.09800
C 	C 	0.32349 0.99660 0.35545 0.09600
C 	C 	0.34956 0.99777 0.36975 -0.02900
C 	C 	0.35127 0.99913 0.39972 0.01500
C 	C 	0.32520 0.99908 0.41560 -0.11100
C 	C 	0.32692 0.00069 0.44675 0.36900
C 	C 	0.44756 0.99930 0.32611 0.38100
C 	C 	0.41650 0.99724 0.32439 -0.11800
C 	C 	0.40062 0.99796 0.35045 0.01800
C 	C 	0.37062 0.99691 0.34874 -0.03100
C 	C 	0.35634 0.99502 0.32270 0.09700
C 	C 	0.37138 0.99425 0.29669 -0.10000
C 	C 	0.40161 0.99532 0.29767 0.04300
C 	C 	0.30504 0.99454 0.30412 0.08800
C 	C 	0.28760 0.01805 0.30006 -0.07900
C 	C 	0.26625 0.01797 0.27881 -0.02600
C 	C 	0.26183 0.99418 0.26165 0.00000
H 	H 	0.27634 0.95063 0.25290 0.03500
H 	H 	0.31421 0.95114 0.29004 0.05300
H 	H 	0.27827 0.99770 0.41245 0.03500
H 	H 	0.27700 0.99531 0.35933 0.06000
H 	H 	0.37206 0.99991 0.41033 0.04400
H 	H 	0.41120 0.99955 0.37120 0.04300
H 	H 	0.36023 0.99308 0.27623 0.06000
H 	H 	0.41337 0.99482 0.27751 0.03400
H 	H 	0.29073 0.03708 0.31322 0.05300
H 	H 	0.25295 0.03696 0.27597 0.03500
O 	O 	0.80322 0.49942 0.53954 -0.41800
O 	O 	0.85079 0.49952 0.53977 -0.41600
O 	O 	0.96104 0.50048 0.65003 -0.42700
O 	O 	0.96127 0.50058 0.69759 -0.42800
N 	N 	0.82742 0.50514 0.67342 -0.15200
C 	C 	0.77924 0.53024 0.73401 -0.02400
C 	C 	0.80084 0.52996 0.71303 -0.07300
C 	C 	0.79845 0.50217 0.59931 0.04100
C 	C 	0.79746 0.50347 0.62953 -0.09900
C 	C 	0.82349 0.50340 0.64455 0.09600
C 	C 	0.84956 0.50223 0.63025 -0.03000
C 	C 	0.85127 0.50087 0.60028 0.01600
C 	C 	0.82520 0.50092 0.58440 -0.11500
C 	C 	0.82692 0.49931 0.55325 0.37300
C 	C 	0.94756 0.50070 0.67389 0.38100
C 	C 	0.91650 0.50276 0.67561 -0.11800
C 	C 	0.90062 0.50204 0.64955 0.01800
C 	C 	0.87062 0.50309 0.65126 -0.03100
C 	C 	0.85634 0.50498 0.67730 0.09700
C 	C 	0.87138 0.50575 0.70331 -0.10000
C 	C 	0.90161 0.50468 0.70233 0.04300
C 	C 	0.80504 0.50546 0.69588 0.08500
C 	C 	0.78760 0.48195 0.69994 -0.07500
C 	C 	0.76625 0.48203 0.72119 -0.02300
C 	C 	0.76183 0.50582 0.73835 -0.00200
H 	H 	0.77634 0.54937 0.74710 0.03500
H 	H 	0.81421 0.54886 0.70996 0.05300
H 	H 	0.77827 0.50230 0.58755 0.03400
H 	H 	0.77700 0.50469 0.64067 0.05900
H 	H 	0.87206 0.50009 0.58967 0.04300
H 	H 	0.91120 0.50045 0.62880 0.04200
H 	H 	0.86023 0.50692 0.72377 0.05900
H 	H 	0.91337 0.50518 0.72249 0.03400
H 	H 	0.79073 0.46292 0.68678 0.05400
H 	H 	0.75295 0.46304 0.72403 0.03500
O 	O 	0.80322 0.99942 0.03954 -0.41800
O 	O 	0.85079 0.99952 0.03977 -0.41600
O 	O 	0.96104 0.00048 0.15003 -0.42800
O 	O 	0.96127 0.00058 0.19759 -0.42900
N 	N 	0.82742 0.00514 0.17342 -0.15200
C 	C 	0.77924 0.03024 0.23401 -0.02400
C 	C 	0.80084 0.02996 0.21303 -0.07300
C 	C 	0.79845 0.00217 0.09931 0.04200
C 	C 	0.79746 0.00347 0.12953 -0.10000
C 	C 	0.82349 0.00340 0.14455 0.09600
C 	C 	0.84956 0.00223 0.13025 -0.03100
C 	C 	0.85127 0.00087 0.10028 0.01700
C 	C 	0.82520 0.00092 0.08440 -0.11900
C 	C 	0.82692 0.99931 0.05325 0.37700
C 	C 	0.94756 0.00070 0.17389 0.38100
C 	C 	0.91650 0.00276 0.17561 -0.11900
C 	C 	0.90062 0.00204 0.14955 0.01800
C 	C 	0.87062 0.00309 0.15126 -0.03100
C 	C 	0.85634 0.00498 0.17730 0.09600
C 	C 	0.87138 0.00575 0.20331 -0.10000
C 	C 	0.90161 0.00468 0.20233 0.04200
C 	C 	0.80504 0.00546 0.19588 0.08100
C 	C 	0.78760 0.98195 0.19994 -0.07200
C 	C 	0.76625 0.98203 0.22119 -0.02000
C 	C 	0.76183 0.00582 0.23835 -0.00500
H 	H 	0.77634 0.04937 0.24710 0.03500
H 	H 	0.81421 0.04886 0.20996 0.05200
H 	H 	0.77827 0.00230 0.08755 0.03300
H 	H 	0.77700 0.00469 0.14067 0.05900
H 	H 	0.87206 0.00009 0.08967 0.04100
H 	H 	0.91120 0.00045 0.12880 0.04200
H 	H 	0.86023 0.00692 0.22377 0.05900
H 	H 	0.91337 0.00518 0.22249 0.03400
H 	H 	0.79073 0.96292 0.18678 0.05400
H 	H 	0.75295 0.96304 0.22403 0.03500
O 	O 	0.30322 0.49942 0.03954 -0.41900
O 	O 	0.35079 0.49952 0.03977 -0.41700
O 	O 	0.46104 0.50048 0.15003 -0.42900
O 	O 	0.46127 0.50058 0.19759 -0.43000
N 	N 	0.32742 0.50514 0.17342 -0.15200
C 	C 	0.27924 0.53024 0.23401 -0.02400
C 	C 	0.30084 0.52996 0.21303 -0.07300
C 	C 	0.29845 0.50217 0.09931 0.04100
C 	C 	0.29746 0.50347 0.12953 -0.09900
C 	C 	0.32349 0.50340 0.14455 0.09600
C 	C 	0.34956 0.50223 0.13025 -0.03000
C 	C 	0.35127 0.50087 0.10028 0.01600
C 	C 	0.32520 0.50092 0.08440 -0.11500
C 	C 	0.32692 0.49931 0.05325 0.37300
C 	C 	0.44756 0.50070 0.17389 0.38100
C 	C 	0.41650 0.50276 0.17561 -0.11900
C 	C 	0.40062 0.50204 0.14955 0.01800
C 	C 	0.37062 0.50309 0.15126 -0.03100
C 	C 	0.35634 0.50498 0.17730 0.09700
C 	C 	0.37138 0.50575 0.20331 -0.10000
C 	C 	0.40161 0.50468 0.20233 0.04300
C 	C 	0.30504 0.50546 0.19588 0.08500
C 	C 	0.28760 0.48195 0.19994 -0.07600
C 	C 	0.26625 0.48203 0.22119 -0.02300
C 	C 	0.26183 0.50582 0.23835 -0.00200
H 	H 	0.27634 0.54937 0.24710 0.03500
H 	H 	0.31421 0.54886 0.20996 0.05200
H 	H 	0.27827 0.50230 0.08755 0.03400
H 	H 	0.27700 0.50469 0.14067 0.05900
H 	H 	0.37206 0.50009 0.08967 0.04200
H 	H 	0.41120 0.50045 0.12880 0.04200
H 	H 	0.36023 0.50692 0.22377 0.05900
H 	H 	0.41337 0.50518 0.22249 0.03400
H 	H 	0.29073 0.46292 0.18678 0.05300
H 	H 	0.25295 0.46304 0.22403 0.03500
O 	O 	0.30322 0.99942 0.53954 -0.41700
O 	O 	0.35079 0.99952 0.53977 -0.41500
O 	O 	0.46104 0.00048 0.65003 -0.43000
O 	O 	0.46127 0.00058 0.69759 -0.43100
N 	N 	0.32742 0.00514 0.67342 -0.15200
C 	C 	0.27924 0.03024 0.73401 -0.02400
C 	C 	0.30084 0.02996 0.71303 -0.07300
C 	C 	0.29845 0.00217 0.59931 0.04200
C 	C 	0.29746 0.00347 0.62953 -0.10000
C 	C 	0.32349 0.00340 0.64455 0.09600
C 	C 	0.34956 0.00223 0.63025 -0.03100
C 	C 	0.35127 0.00087 0.60028 0.01700
C 	C 	0.32520 0.00092 0.58440 -0.11900
C 	C 	0.32692 0.99931 0.55325 0.37700
C 	C 	0.44756 0.00070 0.67389 0.38100
C 	C 	0.41650 0.00276 0.67561 -0.11900
C 	C 	0.40062 0.00204 0.64955 0.01800
C 	C 	0.37062 0.00309 0.65126 -0.03100
C 	C 	0.35634 0.00498 0.67730 0.09700
C 	C 	0.37138 0.00575 0.70331 -0.10000
C 	C 	0.40161 0.00468 0.70233 0.04200
C 	C 	0.30504 0.00546 0.69588 0.08100
C 	C 	0.28760 0.98195 0.69994 -0.07200
C 	C 	0.26625 0.98203 0.72119 -0.02000
C 	C 	0.26183 0.00582 0.73835 -0.00500
H 	H 	0.27634 0.04937 0.74710 0.03500
H 	H 	0.31421 0.04886 0.70996 0.05200
H 	H 	0.27827 0.00230 0.58755 0.03300
H 	H 	0.27700 0.00469 0.64067 0.05900
H 	H 	0.37206 0.00009 0.58967 0.04200
H 	H 	0.41120 0.00045 0.62880 0.04200
H 	H 	0.36023 0.00692 0.72377 0.05900
H 	H 	0.41337 0.00518 0.72249 0.03300
H 	H 	0.29073 0.96292 0.68678 0.05400
H 	H 	0.25295 0.96304 0.72403 0.03500
O 	O 	0.19678 0.50058 0.53954 -0.41900
O 	O 	0.14921 0.50048 0.53977 -0.41700
O 	O 	0.03896 0.49952 0.65003 -0.43000
O 	O 	0.03873 0.49942 0.69759 -0.43100
N 	N 	0.17258 0.49486 0.67342 -0.15200
C 	C 	0.22076 0.46976 0.73401 -0.02400
C 	C 	0.19916 0.47004 0.71303 -0.07300
C 	C 	0.20155 0.49783 0.59931 0.04100
C 	C 	0.20254 0.49653 0.62953 -0.09900
C 	C 	0.17651 0.49660 0.64455 0.09600
C 	C 	0.15044 0.49777 0.63025 -0.03000
C 	C 	0.14873 0.49913 0.60028 0.01600
C 	C 	0.17480 0.49908 0.58440 -0.11500
C 	C 	0.17308 0.50069 0.55325 0.37300
C 	C 	0.05244 0.49930 0.67389 0.38100
C 	C 	0.08350 0.49724 0.67561 -0.11900
C 	C 	0.09938 0.49796 0.64955 0.01800
C 	C 	0.12938 0.49691 0.65126 -0.03100
C 	C 	0.14366 0.49502 0.67730 0.09700
C 	C 	0.12862 0.49425 0.70331 -0.10000
C 	C 	0.09839 0.49532 0.70233 0.04300
C 	C 	0.19496 0.49454 0.69588 0.08500
C 	C 	0.21240 0.51805 0.69994 -0.07600
C 	C 	0.23375 0.51797 0.72119 -0.02300
C 	C 	0.23817 0.49418 0.73835 -0.00200
H 	H 	0.22366 0.45063 0.74710 0.03500
H 	H 	0.18579 0.45114 0.70996 0.05200
H 	H 	0.22173 0.49770 0.58755 0.03400
H 	H 	0.22300 0.49531 0.64067 0.05900
H 	H 	0.12794 0.49991 0.58967 0.04300
H 	H 	0.08880 0.49955 0.62880 0.04200
H 	H 	0.13977 0.49308 0.72377 0.05900
H 	H 	0.08663 0.49482 0.72249 0.03300
H 	H 	0.20927 0.53708 0.68678 0.05300
H 	H 	0.24705 0.53696 0.72403 0.03500
O 	O 	0.19678 0.00058 0.03954 -0.42000
O 	O 	0.14921 0.00048 0.03977 -0.41800
O 	O 	0.03896 0.99952 0.15003 -0.42800
O 	O 	0.03873 0.99942 0.19759 -0.42900
N 	N 	0.17258 0.99486 0.17342 -0.15300
C 	C 	0.22076 0.96976 0.23401 -0.02400
C 	C 	0.19916 0.97004 0.21303 -0.07400
C 	C 	0.20155 0.99783 0.09931 0.04000
C 	C 	0.20254 0.99653 0.12953 -0.09900
C 	C 	0.17651 0.99660 0.14455 0.09600
C 	C 	0.15044 0.99777 0.13025 -0.02900
C 	C 	0.14873 0.99913 0.10028 0.01500
C 	C 	0.17480 0.99908 0.08440 -0.11100
C 	C 	0.17308 0.00069 0.05325 0.37000
C 	C 	0.05244 0.99930 0.17389 0.38100
C 	C 	0.08350 0.99724 0.17561 -0.11900
C 	C 	0.09938 0.99796 0.14955 0.01800
C 	C 	0.12938 0.99691 0.15126 -0.03100
C 	C 	0.14366 0.99502 0.17730 0.09700
C 	C 	0.12862 0.99425 0.20331 -0.10000
C 	C 	0.09839 0.99532 0.20233 0.04300
C 	C 	0.19496 0.99454 0.19588 0.08800
C 	C 	0.21240 0.01805 0.19994 -0.07900
C 	C 	0.23375 0.01797 0.22119 -0.02600
C 	C 	0.23817 0.99418 0.23835 0.00000
H 	H 	0.22366 0.95063 0.24710 0.03500
H 	H 	0.18579 0.95114 0.20996 0.05300
H 	H 	0.22173 0.99770 0.08755 0.03500
H 	H 	0.22300 0.99531 0.14067 0.06000
H 	H 	0.12794 0.99991 0.08967 0.04300
H 	H 	0.08880 0.99955 0.12880 0.04200
H 	H 	0.13977 0.99308 0.22377 0.06000
H 	H 	0.08663 0.99482 0.22249 0.03400
H 	H 	0.20927 0.03708 0.18678 0.05300
H 	H 	0.24705 0.03696 0.22403 0.03500
O 	O 	0.69678 0.50058 0.03954 -0.41900
O 	O 	0.64921 0.50048 0.03977 -0.41700
O 	O 	0.53896 0.49952 0.15003 -0.42900
O 	O 	0.53873 0.49942 0.19759 -0.43000
N 	N 	0.67258 0.49486 0.17342 -0.15200
C 	C 	0.72076 0.46976 0.23401 -0.02400
C 	C 	0.69916 0.47004 0.21303 -0.07300
C 	C 	0.70155 0.49783 0.09931 0.04100
C 	C 	0.70254 0.49653 0.12953 -0.09900
C 	C 	0.67651 0.49660 0.14455 0.09600
C 	C 	0.65044 0.49777 0.13025 -0.03000
C 	C 	0.64873 0.49913 0.10028 0.01600
C 	C 	0.67480 0.49908 0.08440 -0.11500
C 	C 	0.67308 0.50069 0.05325 0.37300
C 	C 	0.55244 0.49930 0.17389 0.38100
C 	C 	0.58350 0.49724 0.17561 -0.11900
C 	C 	0.59938 0.49796 0.14955 0.01800
C 	C 	0.62938 0.49691 0.15126 -0.03100
C 	C 	0.64366 0.49502 0.17730 0.09700
C 	C 	0.62862 0.49425 0.20331 -0.10000
C 	C 	0.59839 0.49532 0.20233 0.04300
C 	C 	0.69496 0.49454 0.19588 0.08500
C 	C 	0.71240 0.51805 0.19994 -0.07600
C 	C 	0.73375 0.51797 0.22119 -0.02300
C 	C 	0.73817 0.49418 0.23835 -0.00200
H 	H 	0.72366 0.45063 0.24710 0.03500
H 	H 	0.68579 0.45114 0.20996 0.05200
H 	H 	0.72173 0.49770 0.08755 0.03400
H 	H 	0.72300 0.49531 0.14067 0.05900
H 	H 	0.62794 0.49991 0.08967 0.04200
H 	H 	0.58880 0.49955 0.12880 0.04200
H 	H 	0.63977 0.49308 0.22377 0.05900
H 	H 	0.58663 0.49482 0.22249 0.03400
H 	H 	0.70927 0.53708 0.18678 0.05300
H 	H 	0.74705 0.53696 0.22403 0.03500
O 	O 	0.69678 0.00058 0.53954 -0.41900
O 	O 	0.64921 0.00048 0.53977 -0.41700
O 	O 	0.53896 0.99952 0.65003 -0.42700
O 	O 	0.53873 0.99942 0.69759 -0.42800
N 	N 	0.67258 0.99486 0.67342 -0.15300
C 	C 	0.72076 0.96976 0.73401 -0.02400
C 	C 	0.69916 0.97004 0.71303 -0.07400
C 	C 	0.70155 0.99783 0.59931 0.04000
C 	C 	0.70254 0.99653 0.62953 -0.09800
C 	C 	0.67651 0.99660 0.64455 0.09600
C 	C 	0.65044 0.99777 0.63025 -0.02900
C 	C 	0.64873 0.99913 0.60028 0.01500
C 	C 	0.67480 0.99908 0.58440 -0.11100
C 	C 	0.67308 0.00069 0.55325 0.36900
C 	C 	0.55244 0.99930 0.67389 0.38100
C 	C 	0.58350 0.99724 0.67561 -0.11800
C 	C 	0.59938 0.99796 0.64955 0.01800
C 	C 	0.62938 0.99691 0.65126 -0.03100
C 	C 	0.64366 0.99502 0.67730 0.09700
C 	C 	0.62862 0.99425 0.70331 -0.10000
C 	C 	0.59839 0.99532 0.70233 0.04300
C 	C 	0.69496 0.99454 0.69588 0.08800
C 	C 	0.71240 0.01805 0.69994 -0.07900
C 	C 	0.73375 0.01797 0.72119 -0.02600
C 	C 	0.73817 0.99418 0.73835 0.00000
H 	H 	0.72366 0.95063 0.74710 0.03500
H 	H 	0.68579 0.95114 0.70996 0.05300
H 	H 	0.72173 0.99770 0.58755 0.03500
H 	H 	0.72300 0.99531 0.64067 0.06000
H 	H 	0.62794 0.99991 0.58967 0.04400
H 	H 	0.58880 0.99955 0.62880 0.04300
H 	H 	0.63977 0.99308 0.72377 0.06000
H 	H 	0.58663 0.99482 0.72249 0.03400
H 	H 	0.70927 0.03708 0.68678 0.05300
H 	H 	0.74705 0.03696 0.72403 0.03500
O 	O 	0.46046 0.19678 0.49942 -0.41800
O 	O 	0.46023 0.14921 0.49952 -0.41700
O 	O 	0.34997 0.03896 0.50048 -0.43000
O 	O 	0.30241 0.03873 0.50058 -0.43100
N 	N 	0.32658 0.17258 0.50514 -0.15200
C 	C 	0.26599 0.22076 0.53024 -0.02400
C 	C 	0.28697 0.19916 0.52996 -0.07300
C 	C 	0.40069 0.20155 0.50217 0.04100
C 	C 	0.37047 0.20254 0.50347 -0.09900
C 	C 	0.35545 0.17651 0.50340 0.09600
C 	C 	0.36975 0.15044 0.50223 -0.03000
C 	C 	0.39972 0.14873 0.50087 0.01600
C 	C 	0.41560 0.17480 0.50092 -0.11500
C 	C 	0.44675 0.17308 0.49931 0.37300
C 	C 	0.32611 0.05244 0.50070 0.38100
C 	C 	0.32439 0.08350 0.50276 -0.11900
C 	C 	0.35045 0.09938 0.50204 0.01800
C 	C 	0.34874 0.12938 0.50309 -0.03100
C 	C 	0.32270 0.14366 0.50498 0.09700
C 	C 	0.29669 0.12862 0.50575 -0.10000
C 	C 	0.29767 0.09839 0.50468 0.04300
C 	C 	0.30412 0.19496 0.50546 0.08500
C 	C 	0.30006 0.21240 0.48195 -0.07600
C 	C 	0.27881 0.23375 0.48203 -0.02300
C 	C 	0.26165 0.23817 0.50582 -0.00200
H 	H 	0.25290 0.22366 0.54937 0.03500
H 	H 	0.29004 0.18579 0.54886 0.05200
H 	H 	0.41245 0.22173 0.50230 0.03400
H 	H 	0.35933 0.22300 0.50469 0.05900
H 	H 	0.41033 0.12794 0.50009 0.04300
H 	H 	0.37120 0.08880 0.50045 0.04200
H 	H 	0.27623 0.13977 0.50692 0.05900
H 	H 	0.27751 0.08663 0.50518 0.03300
H 	H 	0.31322 0.20927 0.46292 0.05300
H 	H 	0.27597 0.24705 0.46304 0.03500
O 	O 	0.46046 0.69678 0.99942 -0.41700
O 	O 	0.46023 0.64921 0.99952 -0.41500
O 	O 	0.34997 0.53896 0.00048 -0.43000
O 	O 	0.30241 0.53873 0.00058 -0.43100
N 	N 	0.32658 0.67258 0.00514 -0.15200
C 	C 	0.26599 0.72076 0.03024 -0.02400
C 	C 	0.28697 0.69916 0.02996 -0.07300
C 	C 	0.40069 0.70155 0.00217 0.04200
C 	C 	0.37047 0.70254 0.00347 -0.10000
C 	C 	0.35545 0.67651 0.00340 0.09600
C 	C 	0.36975 0.65044 0.00223 -0.03100
C 	C 	0.39972 0.64873 0.00087 0.01700
C 	C 	0.41560 0.67480 0.00092 -0.11900
C 	C 	0.44675 0.67308 0.99931 0.37700
C 	C 	0.32611 0.55244 0.00070 0.38100
C 	C 	0.32439 0.58350 0.00276 -0.11900
C 	C 	0.35045 0.59938 0.00204 0.01800
C 	C 	0.34874 0.62938 0.00309 -0.03100
C 	C 	0.32270 0.64366 0.00498 0.09700
C 	C 	0.29669 0.62862 0.00575 -0.10000
C 	C 	0.29767 0.59839 0.00468 0.04200
C 	C 	0.30412 0.69496 0.00546 0.08100
C 	C 	0.30006 0.71240 0.98195 -0.07200
C 	C 	0.27881 0.73375 0.98203 -0.02000
C 	C 	0.26165 0.73817 0.00582 -0.00500
H 	H 	0.25290 0.72366 0.04937 0.03500
H 	H 	0.29004 0.68579 0.04886 0.05200
H 	H 	0.41245 0.72173 0.00230 0.03300
H 	H 	0.35933 0.72300 0.00469 0.05900
H 	H 	0.41033 0.62794 0.00009 0.04200
H 	H 	0.37120 0.58880 0.00045 0.04200
H 	H 	0.27623 0.63977 0.00692 0.05900
H 	H 	0.27751 0.58663 0.00518 0.03300
H 	H 	0.31322 0.70927 0.96292 0.05400
H 	H 	0.27597 0.74705 0.96304 0.03500
O 	O 	0.96046 0.19678 0.99942 -0.41600
O 	O 	0.96023 0.14921 0.99952 -0.41400
O 	O 	0.84997 0.03896 0.00048 -0.43000
O 	O 	0.80241 0.03873 0.00058 -0.43200
N 	N 	0.82658 0.17258 0.00514 -0.15200
C 	C 	0.76599 0.22076 0.03024 -0.02400
C 	C 	0.78697 0.19916 0.02996 -0.07300
C 	C 	0.90069 0.20155 0.00217 0.04200
C 	C 	0.87047 0.20254 0.00347 -0.10000
C 	C 	0.85545 0.17651 0.00340 0.09600
C 	C 	0.86975 0.15044 0.00223 -0.03000
C 	C 	0.89972 0.14873 0.00087 0.01700
C 	C 	0.91560 0.17480 0.00092 -0.11800
C 	C 	0.94675 0.17308 0.99931 0.37700
C 	C 	0.82611 0.05244 0.00070 0.38100
C 	C 	0.82439 0.08350 0.00276 -0.11900
C 	C 	0.85045 0.09938 0.00204 0.01800
C 	C 	0.84874 0.12938 0.00309 -0.03100
C 	C 	0.82270 0.14366 0.00498 0.09700
C 	C 	0.79669 0.12862 0.00575 -0.10000
C 	C 	0.79767 0.09839 0.00468 0.04200
C 	C 	0.80412 0.19496 0.00546 0.08100
C 	C 	0.80006 0.21240 0.98195 -0.07200
C 	C 	0.77881 0.23375 0.98203 -0.02000
C 	C 	0.76165 0.23817 0.00582 -0.00500
H 	H 	0.75290 0.22366 0.04937 0.03500
H 	H 	0.79004 0.18579 0.04886 0.05200
H 	H 	0.91245 0.22173 0.00230 0.03300
H 	H 	0.85933 0.22300 0.00469 0.05900
H 	H 	0.91033 0.12794 0.00009 0.04200
H 	H 	0.87120 0.08880 0.00045 0.04200
H 	H 	0.77623 0.13977 0.00692 0.05900
H 	H 	0.77751 0.08663 0.00518 0.03300
H 	H 	0.81322 0.20927 0.96292 0.05400
H 	H 	0.77597 0.24705 0.96304 0.03500
O 	O 	0.96046 0.69678 0.49942 -0.41700
O 	O 	0.96023 0.64921 0.49952 -0.41500
O 	O 	0.84997 0.53896 0.50048 -0.42900
O 	O 	0.80241 0.53873 0.50058 -0.43000
N 	N 	0.82658 0.67258 0.50514 -0.15200
C 	C 	0.76599 0.72076 0.53024 -0.02400
C 	C 	0.78697 0.69916 0.52996 -0.07300
C 	C 	0.90069 0.70155 0.50217 0.04100
C 	C 	0.87047 0.70254 0.50347 -0.09900
C 	C 	0.85545 0.67651 0.50340 0.09600
C 	C 	0.86975 0.65044 0.50223 -0.03000
C 	C 	0.89972 0.64873 0.50087 0.01600
C 	C 	0.91560 0.67480 0.50092 -0.11400
C 	C 	0.94675 0.67308 0.49931 0.37300
C 	C 	0.82611 0.55244 0.50070 0.38100
C 	C 	0.82439 0.58350 0.50276 -0.11900
C 	C 	0.85045 0.59938 0.50204 0.01800
C 	C 	0.84874 0.62938 0.50309 -0.03100
C 	C 	0.82270 0.64366 0.50498 0.09700
C 	C 	0.79669 0.62862 0.50575 -0.10000
C 	C 	0.79767 0.59839 0.50468 0.04300
C 	C 	0.80412 0.69496 0.50546 0.08500
C 	C 	0.80006 0.71240 0.48195 -0.07500
C 	C 	0.77881 0.73375 0.48203 -0.02300
C 	C 	0.76165 0.73817 0.50582 -0.00200
H 	H 	0.75290 0.72366 0.54937 0.03500
H 	H 	0.79004 0.68579 0.54886 0.05200
H 	H 	0.91245 0.72173 0.50230 0.03400
H 	H 	0.85933 0.72300 0.50469 0.05900
H 	H 	0.91033 0.62794 0.50009 0.04300
H 	H 	0.87120 0.58880 0.50045 0.04200
H 	H 	0.77623 0.63977 0.50692 0.05900
H 	H 	0.77751 0.58663 0.50518 0.03400
H 	H 	0.81322 0.70927 0.46292 0.05400
H 	H 	0.77597 0.74705 0.46304 0.03500
O 	O 	0.46046 0.80322 0.50058 -0.41800
O 	O 	0.46023 0.85079 0.50048 -0.41600
O 	O 	0.34997 0.96104 0.49952 -0.42700
O 	O 	0.30241 0.96127 0.49942 -0.42900
N 	N 	0.32658 0.82742 0.49486 -0.15200
C 	C 	0.26599 0.77924 0.46976 -0.02400
C 	C 	0.28697 0.80084 0.47004 -0.07300
C 	C 	0.40069 0.79845 0.49783 0.04100
C 	C 	0.37047 0.79746 0.49653 -0.09900
C 	C 	0.35545 0.82349 0.49660 0.09600
C 	C 	0.36975 0.84956 0.49777 -0.03000
C 	C 	0.39972 0.85127 0.49913 0.01600
C 	C 	0.41560 0.82520 0.49908 -0.11500
C 	C 	0.44675 0.82692 0.50069 0.37300
C 	C 	0.32611 0.94756 0.49930 0.38100
C 	C 	0.32439 0.91650 0.49724 -0.11800
C 	C 	0.35045 0.90062 0.49796 0.01800
C 	C 	0.34874 0.87062 0.49691 -0.03100
C 	C 	0.32270 0.85634 0.49502 0.09700
C 	C 	0.29669 0.87138 0.49425 -0.10000
C 	C 	0.29767 0.90161 0.49532 0.04300
C 	C 	0.30412 0.80504 0.49454 0.08500
C 	C 	0.30006 0.78760 0.51805 -0.07600
C 	C 	0.27881 0.76625 0.51797 -0.02300
C 	C 	0.26165 0.76183 0.49418 -0.00200
H 	H 	0.25290 0.77634 0.45063 0.03500
H 	H 	0.29004 0.81421 0.45114 0.05300
H 	H 	0.41245 0.77827 0.49770 0.03400
H 	H 	0.35933 0.77700 0.49531 0.05900
H 	H 	0.41033 0.87206 0.49991 0.04300
H 	H 	0.37120 0.91120 0.49955 0.04200
H 	H 	0.27623 0.86023 0.49308 0.05900
H 	H 	0.27751 0.91337 0.49482 0.03400
H 	H 	0.31322 0.79073 0.53708 0.05300
H 	H 	0.27597 0.75295 0.53696 0.03500
O 	O 	0.46046 0.30322 0.00058 -0.41900
O 	O 	0.46023 0.35079 0.00048 -0.41700
O 	O 	0.34997 0.46104 0.99952 -0.42700
O 	O 	0.30241 0.46127 0.99942 -0.42800
N 	N 	0.32658 0.32742 0.99486 -0.15300
C 	C 	0.26599 0.27924 0.96976 -0.02400
C 	C 	0.28697 0.30084 0.97004 -0.07400
C 	C 	0.40069 0.29845 0.99783 0.04000
C 	C 	0.37047 0.29746 0.99653 -0.09800
C 	C 	0.35545 0.32349 0.99660 0.09600
C 	C 	0.36975 0.34956 0.99777 -0.02900
C 	C 	0.39972 0.35127 0.99913 0.01500
C 	C 	0.41560 0.32520 0.99908 -0.11100
C 	C 	0.44675 0.32692 0.00069 0.36900
C 	C 	0.32611 0.44756 0.99930 0.38100
C 	C 	0.32439 0.41650 0.99724 -0.11800
C 	C 	0.35045 0.40062 0.99796 0.01800
C 	C 	0.34874 0.37062 0.99691 -0.03100
C 	C 	0.32270 0.35634 0.99502 0.09700
C 	C 	0.29669 0.37138 0.99425 -0.10000
C 	C 	0.29767 0.40161 0.99532 0.04300
C 	C 	0.30412 0.30504 0.99454 0.08800
C 	C 	0.30006 0.28760 0.01805 -0.07900
C 	C 	0.27881 0.26625 0.01797 -0.02600
C 	C 	0.26165 0.26183 0.99418 0.00000
H 	H 	0.25290 0.27634 0.95063 0.03500
H 	H 	0.29004 0.31421 0.95114 0.05300
H 	H 	0.41245 0.27827 0.99770 0.03500
H 	H 	0.35933 0.27700 0.99531 0.06000
H 	H 	0.41033 0.37206 0.99991 0.04400
H 	H 	0.37120 0.41120 0.99955 0.04300
H 	H 	0.27623 0.36023 0.99308 0.06000
H 	H 	0.27751 0.41337 0.99482 0.03400
H 	H 	0.31322 0.29073 0.03708 0.05300
H 	H 	0.27597 0.25295 0.03696 0.03500
O 	O 	0.96046 0.80322 0.00058 -0.41800
O 	O 	0.96023 0.85079 0.00048 -0.41500
O 	O 	0.84997 0.96104 0.99952 -0.42600
O 	O 	0.80241 0.96127 0.99942 -0.42700
N 	N 	0.82658 0.82742 0.99486 -0.15300
C 	C 	0.76599 0.77924 0.96976 -0.02400
C 	C 	0.78697 0.80084 0.97004 -0.07400
C 	C 	0.90069 0.79845 0.99783 0.04000
C 	C 	0.87047 0.79746 0.99653 -0.09800
C 	C 	0.85545 0.82349 0.99660 0.09600
C 	C 	0.86975 0.84956 0.99777 -0.02900
C 	C 	0.89972 0.85127 0.99913 0.01500
C 	C 	0.91560 0.82520 0.99908 -0.11000
C 	C 	0.94675 0.82692 0.00069 0.36900
C 	C 	0.82611 0.94756 0.99930 0.38100
C 	C 	0.82439 0.91650 0.99724 -0.11800
C 	C 	0.85045 0.90062 0.99796 0.01800
C 	C 	0.84874 0.87062 0.99691 -0.03100
C 	C 	0.82270 0.85634 0.99502 0.09700
C 	C 	0.79669 0.87138 0.99425 -0.10000
C 	C 	0.79767 0.90161 0.99532 0.04300
C 	C 	0.80412 0.80504 0.99454 0.08800
C 	C 	0.80006 0.78760 0.01805 -0.07900
C 	C 	0.77881 0.76625 0.01797 -0.02600
C 	C 	0.76165 0.76183 0.99418 0.00000
H 	H 	0.75290 0.77634 0.95063 0.03500
H 	H 	0.79004 0.81421 0.95114 0.05300
H 	H 	0.91245 0.77827 0.99770 0.03600
H 	H 	0.85933 0.77700 0.99531 0.06000
H 	H 	0.91033 0.87206 0.99991 0.04400
H 	H 	0.87120 0.91120 0.99955 0.04300
H 	H 	0.77623 0.86023 0.99308 0.06000
H 	H 	0.77751 0.91337 0.99482 0.03400
H 	H 	0.81322 0.79073 0.03708 0.05300
H 	H 	0.77597 0.75295 0.03696 0.03500
O 	O 	0.96046 0.30322 0.50058 -0.41700
O 	O 	0.96023 0.35079 0.50048 -0.41500
O 	O 	0.84997 0.46104 0.49952 -0.42900
O 	O 	0.80241 0.46127 0.49942 -0.43000
N 	N 	0.82658 0.32742 0.49486 -0.15200
C 	C 	0.76599 0.27924 0.46976 -0.02400
C 	C 	0.78697 0.30084 0.47004 -0.07300
C 	C 	0.90069 0.29845 0.49783 0.04100
C 	C 	0.87047 0.29746 0.49653 -0.09900
C 	C 	0.85545 0.32349 0.49660 0.09600
C 	C 	0.86975 0.34956 0.49777 -0.03000
C 	C 	0.89972 0.35127 0.49913 0.01600
C 	C 	0.91560 0.32520 0.49908 -0.11400
C 	C 	0.94675 0.32692 0.50069 0.37300
C 	C 	0.82611 0.44756 0.49930 0.38100
C 	C 	0.82439 0.41650 0.49724 -0.11900
C 	C 	0.85045 0.40062 0.49796 0.01800
C 	C 	0.84874 0.37062 0.49691 -0.03100
C 	C 	0.82270 0.35634 0.49502 0.09700
C 	C 	0.79669 0.37138 0.49425 -0.10000
C 	C 	0.79767 0.40161 0.49532 0.04300
C 	C 	0.80412 0.30504 0.49454 0.08500
C 	C 	0.80006 0.28760 0.51805 -0.07600
C 	C 	0.77881 0.26625 0.51797 -0.02300
C 	C 	0.76165 0.26183 0.49418 -0.00200
H 	H 	0.75290 0.27634 0.45063 0.03500
H 	H 	0.79004 0.31421 0.45114 0.05200
H 	H 	0.91245 0.27827 0.49770 0.03400
H 	H 	0.85933 0.27700 0.49531 0.05900
H 	H 	0.91033 0.37206 0.49991 0.04300
H 	H 	0.87120 0.41120 0.49955 0.04200
H 	H 	0.77623 0.36023 0.49308 0.05900
H 	H 	0.77751 0.41337 0.49482 0.03400
H 	H 	0.81322 0.29073 0.53708 0.05400
H 	H 	0.77597 0.25295 0.53696 0.03500
O 	O 	0.53954 0.80322 0.49942 -0.41800
O 	O 	0.53977 0.85079 0.49952 -0.41600
O 	O 	0.65003 0.96104 0.50048 -0.42700
O 	O 	0.69759 0.96127 0.50058 -0.42800
N 	N 	0.67342 0.82742 0.50514 -0.15200
C 	C 	0.73401 0.77924 0.53024 -0.02400
C 	C 	0.71303 0.80084 0.52996 -0.07300
C 	C 	0.59931 0.79845 0.50217 0.04100
C 	C 	0.62953 0.79746 0.50347 -0.09900
C 	C 	0.64455 0.82349 0.50340 0.09600
C 	C 	0.63025 0.84956 0.50223 -0.03000
C 	C 	0.60028 0.85127 0.50087 0.01600
C 	C 	0.58440 0.82520 0.50092 -0.11500
C 	C 	0.55325 0.82692 0.49931 0.37300
C 	C 	0.67389 0.94756 0.50070 0.38100
C 	C 	0.67561 0.91650 0.50276 -0.11800
C 	C 	0.64955 0.90062 0.50204 0.01800
C 	C 	0.65126 0.87062 0.50309 -0.03100
C 	C 	0.67730 0.85634 0.50498 0.09700
C 	C 	0.70331 0.87138 0.50575 -0.10000
C 	C 	0.70233 0.90161 0.50468 0.04300
C 	C 	0.69588 0.80504 0.50546 0.08500
C 	C 	0.69994 0.78760 0.48195 -0.07500
C 	C 	0.72119 0.76625 0.48203 -0.02300
C 	C 	0.73835 0.76183 0.50582 -0.00200
H 	H 	0.74710 0.77634 0.54937 0.03500
H 	H 	0.70996 0.81421 0.54886 0.05300
H 	H 	0.58755 0.77827 0.50230 0.03400
H 	H 	0.64067 0.77700 0.50469 0.05900
H 	H 	0.58967 0.87206 0.50009 0.04300
H 	H 	0.62880 0.91120 0.50045 0.04200
H 	H 	0.72377 0.86023 0.50692 0.05900
H 	H 	0.72249 0.91337 0.50518 0.03400
H 	H 	0.68678 0.79073 0.46292 0.05400
H 	H 	0.72403 0.75295 0.46304 0.03500
O 	O 	0.53954 0.30322 0.99942 -0.41700
O 	O 	0.53977 0.35079 0.99952 -0.41500
O 	O 	0.65003 0.46104 0.00048 -0.43000
O 	O 	0.69759 0.46127 0.00058 -0.43100
N 	N 	0.67342 0.32742 0.00514 -0.15200
C 	C 	0.73401 0.27924 0.03024 -0.02400
C 	C 	0.71303 0.30084 0.02996 -0.07300
C 	C 	0.59931 0.29845 0.00217 0.04200
C 	C 	0.62953 0.29746 0.00347 -0.10000
C 	C 	0.64455 0.32349 0.00340 0.09600
C 	C 	0.63025 0.34956 0.00223 -0.03100
C 	C 	0.60028 0.35127 0.00087 0.01700
C 	C 	0.58440 0.32520 0.00092 -0.11900
C 	C 	0.55325 0.32692 0.99931 0.37700
C 	C 	0.67389 0.44756 0.00070 0.38100
C 	C 	0.67561 0.41650 0.00276 -0.11900
C 	C 	0.64955 0.40062 0.00204 0.01800
C 	C 	0.65126 0.37062 0.00309 -0.03100
C 	C 	0.67730 0.35634 0.00498 0.09700
C 	C 	0.70331 0.37138 0.00575 -0.10000
C 	C 	0.70233 0.40161 0.00468 0.04200
C 	C 	0.69588 0.30504 0.00546 0.08100
C 	C 	0.69994 0.28760 0.98195 -0.07200
C 	C 	0.72119 0.26625 0.98203 -0.02000
C 	C 	0.73835 0.26183 0.00582 -0.00500
H 	H 	0.74710 0.27634 0.04937 0.03500
H 	H 	0.70996 0.31421 0.04886 0.05200
H 	H 	0.58755 0.27827 0.00230 0.03300
H 	H 	0.64067 0.27700 0.00469 0.05900
H 	H 	0.58967 0.37206 0.00009 0.04200
H 	H 	0.62880 0.41120 0.00045 0.04200
H 	H 	0.72377 0.36023 0.00692 0.05900
H 	H 	0.72249 0.41337 0.00518 0.03300
H 	H 	0.68678 0.29073 0.96292 0.05400
H 	H 	0.72403 0.25295 0.96304 0.03500
O 	O 	0.03954 0.80322 0.99942 -0.41800
O 	O 	0.03977 0.85079 0.99952 -0.41600
O 	O 	0.15003 0.96104 0.00048 -0.42800
O 	O 	0.19759 0.96127 0.00058 -0.42900
N 	N 	0.17342 0.82742 0.00514 -0.15200
C 	C 	0.23401 0.77924 0.03024 -0.02400
C 	C 	0.21303 0.80084 0.02996 -0.07300
C 	C 	0.09931 0.79845 0.00217 0.04200
C 	C 	0.12953 0.79746 0.00347 -0.10000
C 	C 	0.14455 0.82349 0.00340 0.09600
C 	C 	0.13025 0.84956 0.00223 -0.03100
C 	C 	0.10028 0.85127 0.00087 0.01700
C 	C 	0.08440 0.82520 0.00092 -0.11900
C 	C 	0.05325 0.82692 0.99931 0.37700
C 	C 	0.17389 0.94756 0.00070 0.38100
C 	C 	0.17561 0.91650 0.00276 -0.11900
C 	C 	0.14955 0.90062 0.00204 0.01800
C 	C 	0.15126 0.87062 0.00309 -0.03100
C 	C 	0.17730 0.85634 0.00498 0.09600
C 	C 	0.20331 0.87138 0.00575 -0.10000
C 	C 	0.20233 0.90161 0.00468 0.04200
C 	C 	0.19588 0.80504 0.00546 0.08100
C 	C 	0.19994 0.78760 0.98195 -0.07200
C 	C 	0.22119 0.76625 0.98203 -0.02000
C 	C 	0.23835 0.76183 0.00582 -0.00500
H 	H 	0.24710 0.77634 0.04937 0.03500
H 	H 	0.20996 0.81421 0.04886 0.05200
H 	H 	0.08755 0.77827 0.00230 0.03300
H 	H 	0.14067 0.77700 0.00469 0.05900
H 	H 	0.08967 0.87206 0.00009 0.04100
H 	H 	0.12880 0.91120 0.00045 0.04200
H 	H 	0.22377 0.86023 0.00692 0.05900
H 	H 	0.22249 0.91337 0.00518 0.03400
H 	H 	0.18678 0.79073 0.96292 0.05400
H 	H 	0.22403 0.75295 0.96304 0.03500
O 	O 	0.03954 0.30322 0.49942 -0.41900
O 	O 	0.03977 0.35079 0.49952 -0.41700
O 	O 	0.15003 0.46104 0.50048 -0.42900
O 	O 	0.19759 0.46127 0.50058 -0.43000
N 	N 	0.17342 0.32742 0.50514 -0.15200
C 	C 	0.23401 0.27924 0.53024 -0.02400
C 	C 	0.21303 0.30084 0.52996 -0.07300
C 	C 	0.09931 0.29845 0.50217 0.04100
C 	C 	0.12953 0.29746 0.50347 -0.09900
C 	C 	0.14455 0.32349 0.50340 0.09600
C 	C 	0.13025 0.34956 0.50223 -0.03000
C 	C 	0.10028 0.35127 0.50087 0.01600
C 	C 	0.08440 0.32520 0.50092 -0.11500
C 	C 	0.05325 0.32692 0.49931 0.37300
C 	C 	0.17389 0.44756 0.50070 0.38100
C 	C 	0.17561 0.41650 0.50276 -0.11900
C 	C 	0.14955 0.40062 0.50204 0.01800
C 	C 	0.15126 0.37062 0.50309 -0.03100
C 	C 	0.17730 0.35634 0.50498 0.09700
C 	C 	0.20331 0.37138 0.50575 -0.10000
C 	C 	0.20233 0.40161 0.50468 0.04300
C 	C 	0.19588 0.30504 0.50546 0.08500
C 	C 	0.19994 0.28760 0.48195 -0.07600
C 	C 	0.22119 0.26625 0.48203 -0.02300
C 	C 	0.23835 0.26183 0.50582 -0.00200
H 	H 	0.24710 0.27634 0.54937 0.03500
H 	H 	0.20996 0.31421 0.54886 0.05200
H 	H 	0.08755 0.27827 0.50230 0.03400
H 	H 	0.14067 0.27700 0.50469 0.05900
H 	H 	0.08967 0.37206 0.50009 0.04200
H 	H 	0.12880 0.41120 0.50045 0.04200
H 	H 	0.22377 0.36023 0.50692 0.05900
H 	H 	0.22249 0.41337 0.50518 0.03400
H 	H 	0.18678 0.29073 0.46292 0.05300
H 	H 	0.22403 0.25295 0.46304 0.03500
O 	O 	0.53954 0.19678 0.50058 -0.41900
O 	O 	0.53977 0.14921 0.50048 -0.41700
O 	O 	0.65003 0.03896 0.49952 -0.43000
O 	O 	0.69759 0.03873 0.49942 -0.43100
N 	N 	0.67342 0.17258 0.49486 -0.15200
C 	C 	0.73401 0.22076 0.46976 -0.02400
C 	C 	0.71303 0.19916 0.47004 -0.07300
C 	C 	0.59931 0.20155 0.49783 0.04100
C 	C 	0.62953 0.20254 0.49653 -0.09900
C 	C 	0.64455 0.17651 0.49660 0.09600
C 	C 	0.63025 0.15044 0.49777 -0.03000
C 	C 	0.60028 0.14873 0.49913 0.01600
C 	C 	0.58440 0.17480 0.49908 -0.11500
C 	C 	0.55325 0.17308 0.50069 0.37300
C 	C 	0.67389 0.05244 0.49930 0.38100
C 	C 	0.67561 0.08350 0.49724 -0.11900
C 	C 	0.64955 0.09938 0.49796 0.01800
C 	C 	0.65126 0.12938 0.49691 -0.03100
C 	C 	0.67730 0.14366 0.49502 0.09700
C 	C 	0.70331 0.12862 0.49425 -0.10000
C 	C 	0.70233 0.09839 0.49532 0.04300
C 	C 	0.69588 0.19496 0.49454 0.08500
C 	C 	0.69994 0.21240 0.51805 -0.07600
C 	C 	0.72119 0.23375 0.51797 -0.02300
C 	C 	0.73835 0.23817 0.49418 -0.00200
H 	H 	0.74710 0.22366 0.45063 0.03500
H 	H 	0.70996 0.18579 0.45114 0.05200
H 	H 	0.58755 0.22173 0.49770 0.03400
H 	H 	0.64067 0.22300 0.49531 0.05900
H 	H 	0.58967 0.12794 0.49991 0.04300
H 	H 	0.62880 0.08880 0.49955 0.04200
H 	H 	0.72377 0.13977 0.49308 0.05900
H 	H 	0.72249 0.08663 0.49482 0.03300
H 	H 	0.68678 0.20927 0.53708 0.05300
H 	H 	0.72403 0.24705 0.53696 0.03500
O 	O 	0.53954 0.69678 0.00058 -0.41900
O 	O 	0.53977 0.64921 0.00048 -0.41700
O 	O 	0.65003 0.53896 0.99952 -0.42700
O 	O 	0.69759 0.53873 0.99942 -0.42800
N 	N 	0.67342 0.67258 0.99486 -0.15300
C 	C 	0.73401 0.72076 0.96976 -0.02400
C 	C 	0.71303 0.69916 0.97004 -0.07400
C 	C 	0.59931 0.70155 0.99783 0.04000
C 	C 	0.62953 0.70254 0.99653 -0.09800
C 	C 	0.64455 0.67651 0.99660 0.09600
C 	C 	0.63025 0.65044 0.99777 -0.02900
C 	C 	0.60028 0.64873 0.99913 0.01500
C 	C 	0.58440 0.67480 0.99908 -0.11100
C 	C 	0.55325 0.67308 0.00069 0.36900
C 	C 	0.67389 0.55244 0.99930 0.38100
C 	C 	0.67561 0.58350 0.99724 -0.11800
C 	C 	0.64955 0.59938 0.99796 0.01800
C 	C 	0.65126 0.62938 0.99691 -0.03100
C 	C 	0.67730 0.64366 0.99502 0.09700
C 	C 	0.70331 0.62862 0.99425 -0.10000
C 	C 	0.70233 0.59839 0.99532 0.04300
C 	C 	0.69588 0.69496 0.99454 0.08800
C 	C 	0.69994 0.71240 0.01805 -0.07900
C 	C 	0.72119 0.73375 0.01797 -0.02600
C 	C 	0.73835 0.73817 0.99418 0.00000
H 	H 	0.74710 0.72366 0.95063 0.03500
H 	H 	0.70996 0.68579 0.95114 0.05300
H 	H 	0.58755 0.72173 0.99770 0.03500
H 	H 	0.64067 0.72300 0.99531 0.06000
H 	H 	0.58967 0.62794 0.99991 0.04400
H 	H 	0.62880 0.58880 0.99955 0.04300
H 	H 	0.72377 0.63977 0.99308 0.06000
H 	H 	0.72249 0.58663 0.99482 0.03400
H 	H 	0.68678 0.70927 0.03708 0.05300
H 	H 	0.72403 0.74705 0.03696 0.03500
O 	O 	0.03954 0.19678 0.00058 -0.42000
O 	O 	0.03977 0.14921 0.00048 -0.41800
O 	O 	0.15003 0.03896 0.99952 -0.42800
O 	O 	0.19759 0.03873 0.99942 -0.42900
N 	N 	0.17342 0.17258 0.99486 -0.15300
C 	C 	0.23401 0.22076 0.96976 -0.02400
C 	C 	0.21303 0.19916 0.97004 -0.07400
C 	C 	0.09931 0.20155 0.99783 0.04000
C 	C 	0.12953 0.20254 0.99653 -0.09900
C 	C 	0.14455 0.17651 0.99660 0.09600
C 	C 	0.13025 0.15044 0.99777 -0.02900
C 	C 	0.10028 0.14873 0.99913 0.01500
C 	C 	0.08440 0.17480 0.99908 -0.11100
C 	C 	0.05325 0.17308 0.00069 0.37000
C 	C 	0.17389 0.05244 0.99930 0.38100
C 	C 	0.17561 0.08350 0.99724 -0.11900
C 	C 	0.14955 0.09938 0.99796 0.01800
C 	C 	0.15126 0.12938 0.99691 -0.03100
C 	C 	0.17730 0.14366 0.99502 0.09700
C 	C 	0.20331 0.12862 0.99425 -0.10000
C 	C 	0.20233 0.09839 0.99532 0.04300
C 	C 	0.19588 0.19496 0.99454 0.08800
C 	C 	0.19994 0.21240 0.01805 -0.07900
C 	C 	0.22119 0.23375 0.01797 -0.02600
C 	C 	0.23835 0.23817 0.99418 0.00000
H 	H 	0.24710 0.22366 0.95063 0.03500
H 	H 	0.20996 0.18579 0.95114 0.05300
H 	H 	0.08755 0.22173 0.99770 0.03500
H 	H 	0.14067 0.22300 0.99531 0.06000
H 	H 	0.08967 0.12794 0.99991 0.04300
H 	H 	0.12880 0.08880 0.99955 0.04200
H 	H 	0.22377 0.13977 0.99308 0.06000
H 	H 	0.22249 0.08663 0.99482 0.03400
H 	H 	0.18678 0.20927 0.03708 0.05300
H 	H 	0.22403 0.24705 0.03696 0.03500
O 	O 	0.03954 0.69678 0.50058 -0.41900
O 	O 	0.03977 0.64921 0.50048 -0.41700
O 	O 	0.15003 0.53896 0.49952 -0.42900
O 	O 	0.19759 0.53873 0.49942 -0.43000
N 	N 	0.17342 0.67258 0.49486 -0.15200
C 	C 	0.23401 0.72076 0.46976 -0.02400
C 	C 	0.21303 0.69916 0.47004 -0.07300
C 	C 	0.09931 0.70155 0.49783 0.04100
C 	C 	0.12953 0.70254 0.49653 -0.09900
C 	C 	0.14455 0.67651 0.49660 0.09600
C 	C 	0.13025 0.65044 0.49777 -0.03000
C 	C 	0.10028 0.64873 0.49913 0.01600
C 	C 	0.08440 0.67480 0.49908 -0.11500
C 	C 	0.05325 0.67308 0.50069 0.37300
C 	C 	0.17389 0.55244 0.49930 0.38100
C 	C 	0.17561 0.58350 0.49724 -0.11900
C 	C 	0.14955 0.59938 0.49796 0.01800
C 	C 	0.15126 0.62938 0.49691 -0.03100
C 	C 	0.17730 0.64366 0.49502 0.09700
C 	C 	0.20331 0.62862 0.49425 -0.10000
C 	C 	0.20233 0.59839 0.49532 0.04300
C 	C 	0.19588 0.69496 0.49454 0.08500
C 	C 	0.19994 0.71240 0.51805 -0.07600
C 	C 	0.22119 0.73375 0.51797 -0.02300
C 	C 	0.23835 0.73817 0.49418 -0.00200
H 	H 	0.24710 0.72366 0.45063 0.03500
H 	H 	0.20996 0.68579 0.45114 0.05200
H 	H 	0.08755 0.72173 0.49770 0.03400
H 	H 	0.14067 0.72300 0.49531 0.05900
H 	H 	0.08967 0.62794 0.49991 0.04200
H 	H 	0.12880 0.58880 0.49955 0.04200
H 	H 	0.22377 0.63977 0.49308 0.05900
H 	H 	0.22249 0.58663 0.49482 0.03400
H 	H 	0.18678 0.70927 0.53708 0.05300
H 	H 	0.22403 0.74705 0.53696 0.03500
O 	O 	0.49942 0.46046 0.19678 -0.41800
O 	O 	0.49952 0.46023 0.14921 -0.41700
O 	O 	0.50048 0.34997 0.03896 -0.43000
O 	O 	0.50058 0.30241 0.03873 -0.43100
N 	N 	0.50514 0.32658 0.17258 -0.15200
C 	C 	0.53024 0.26599 0.22076 -0.02400
C 	C 	0.52996 0.28697 0.19916 -0.07300
C 	C 	0.50217 0.40069 0.20155 0.04100
C 	C 	0.50347 0.37047 0.20254 -0.09900
C 	C 	0.50340 0.35545 0.17651 0.09600
C 	C 	0.50223 0.36975 0.15044 -0.03000
C 	C 	0.50087 0.39972 0.14873 0.01600
C 	C 	0.50092 0.41560 0.17480 -0.11500
C 	C 	0.49931 0.44675 0.17308 0.37300
C 	C 	0.50070 0.32611 0.05244 0.38100
C 	C 	0.50276 0.32439 0.08350 -0.11900
C 	C 	0.50204 0.35045 0.09938 0.01800
C 	C 	0.50309 0.34874 0.12938 -0.03100
C 	C 	0.50498 0.32270 0.14366 0.09700
C 	C 	0.50575 0.29669 0.12862 -0.10000
C 	C 	0.50468 0.29767 0.09839 0.04300
C 	C 	0.50546 0.30412 0.19496 0.08500
C 	C 	0.48195 0.30006 0.21240 -0.07600
C 	C 	0.48203 0.27881 0.23375 -0.02300
C 	C 	0.50582 0.26165 0.23817 -0.00200
H 	H 	0.54937 0.25290 0.22366 0.03500
H 	H 	0.54886 0.29004 0.18579 0.05200
H 	H 	0.50230 0.41245 0.22173 0.03400
H 	H 	0.50469 0.35933 0.22300 0.05900
H 	H 	0.50009 0.41033 0.12794 0.04300
H 	H 	0.50045 0.37120 0.08880 0.04200
H 	H 	0.50692 0.27623 0.13977 0.05900
H 	H 	0.50518 0.27751 0.08663 0.03300
H 	H 	0.46292 0.31322 0.20927 0.05300
H 	H 	0.46304 0.27597 0.24705 0.03500
O 	O 	0.49942 0.96046 0.69678 -0.41700
O 	O 	0.49952 0.96023 0.64921 -0.41500
O 	O 	0.50048 0.84997 0.53896 -0.42900
O 	O 	0.50058 0.80241 0.53873 -0.43000
N 	N 	0.50514 0.82658 0.67258 -0.15200
C 	C 	0.53024 0.76599 0.72076 -0.02400
C 	C 	0.52996 0.78697 0.69916 -0.07300
C 	C 	0.50217 0.90069 0.70155 0.04100
C 	C 	0.50347 0.87047 0.70254 -0.09900
C 	C 	0.50340 0.85545 0.67651 0.09600
C 	C 	0.50223 0.86975 0.65044 -0.03000
C 	C 	0.50087 0.89972 0.64873 0.01600
C 	C 	0.50092 0.91560 0.67480 -0.11400
C 	C 	0.49931 0.94675 0.67308 0.37300
C 	C 	0.50070 0.82611 0.55244 0.38100
C 	C 	0.50276 0.82439 0.58350 -0.11900
C 	C 	0.50204 0.85045 0.59938 0.01800
C 	C 	0.50309 0.84874 0.62938 -0.03100
C 	C 	0.50498 0.82270 0.64366 0.09700
C 	C 	0.50575 0.79669 0.62862 -0.10000
C 	C 	0.50468 0.79767 0.59839 0.04300
C 	C 	0.50546 0.80412 0.69496 0.08500
C 	C 	0.48195 0.80006 0.71240 -0.07500
C 	C 	0.48203 0.77881 0.73375 -0.02300
C 	C 	0.50582 0.76165 0.73817 -0.00200
H 	H 	0.54937 0.75290 0.72366 0.03500
H 	H 	0.54886 0.79004 0.68579 0.05200
H 	H 	0.50230 0.91245 0.72173 0.03400
H 	H 	0.50469 0.85933 0.72300 0.05900
H 	H 	0.50009 0.91033 0.62794 0.04300
H 	H 	0.50045 0.87120 0.58880 0.04200
H 	H 	0.50692 0.77623 0.63977 0.05900
H 	H 	0.50518 0.77751 0.58663 0.03400
H 	H 	0.46292 0.81322 0.70927 0.05400
H 	H 	0.46304 0.77597 0.74705 0.03500
O 	O 	0.99942 0.46046 0.69678 -0.41700
O 	O 	0.99952 0.46023 0.64921 -0.41500
O 	O 	0.00048 0.34997 0.53896 -0.43000
O 	O 	0.00058 0.30241 0.53873 -0.43100
N 	N 	0.00514 0.32658 0.67258 -0.15200
C 	C 	0.03024 0.26599 0.72076 -0.02400
C 	C 	0.02996 0.28697 0.69916 -0.07300
C 	C 	0.00217 0.40069 0.70155 0.04200
C 	C 	0.00347 0.37047 0.70254 -0.10000
C 	C 	0.00340 0.35545 0.67651 0.09600
C 	C 	0.00223 0.36975 0.65044 -0.03100
C 	C 	0.00087 0.39972 0.64873 0.01700
C 	C 	0.00092 0.41560 0.67480 -0.11900
C 	C 	0.99931 0.44675 0.67308 0.37700
C 	C 	0.00070 0.32611 0.55244 0.38100
C 	C 	0.00276 0.32439 0.58350 -0.11900
C 	C 	0.00204 0.35045 0.59938 0.01800
C 	C 	0.00309 0.34874 0.62938 -0.03100
C 	C 	0.00498 0.32270 0.64366 0.09700
C 	C 	0.00575 0.29669 0.62862 -0.10000
C 	C 	0.00468 0.29767 0.59839 0.04200
C 	C 	0.00546 0.30412 0.69496 0.08100
C 	C 	0.98195 0.30006 0.71240 -0.07200
C 	C 	0.98203 0.27881 0.73375 -0.02000
C 	C 	0.00582 0.26165 0.73817 -0.00500
H 	H 	0.04937 0.25290 0.72366 0.03500
H 	H 	0.04886 0.29004 0.68579 0.05200
H 	H 	0.00230 0.41245 0.72173 0.03300
H 	H 	0.00469 0.35933 0.72300 0.05900
H 	H 	0.00009 0.41033 0.62794 0.04200
H 	H 	0.00045 0.37120 0.58880 0.04200
H 	H 	0.00692 0.27623 0.63977 0.05900
H 	H 	0.00518 0.27751 0.58663 0.03300
H 	H 	0.96292 0.31322 0.70927 0.05400
H 	H 	0.96304 0.27597 0.74705 0.03500
O 	O 	0.99942 0.96046 0.19678 -0.41600
O 	O 	0.99952 0.96023 0.14921 -0.41400
O 	O 	0.00048 0.84997 0.03896 -0.43000
O 	O 	0.00058 0.80241 0.03873 -0.43200
N 	N 	0.00514 0.82658 0.17258 -0.15200
C 	C 	0.03024 0.76599 0.22076 -0.02400
C 	C 	0.02996 0.78697 0.19916 -0.07300
C 	C 	0.00217 0.90069 0.20155 0.04200
C 	C 	0.00347 0.87047 0.20254 -0.10000
C 	C 	0.00340 0.85545 0.17651 0.09600
C 	C 	0.00223 0.86975 0.15044 -0.03000
C 	C 	0.00087 0.89972 0.14873 0.01700
C 	C 	0.00092 0.91560 0.17480 -0.11800
C 	C 	0.99931 0.94675 0.17308 0.37700
C 	C 	0.00070 0.82611 0.05244 0.38100
C 	C 	0.00276 0.82439 0.08350 -0.11900
C 	C 	0.00204 0.85045 0.09938 0.01800
C 	C 	0.00309 0.84874 0.12938 -0.03100
C 	C 	0.00498 0.82270 0.14366 0.09700
C 	C 	0.00575 0.79669 0.12862 -0.10000
C 	C 	0.00468 0.79767 0.09839 0.04200
C 	C 	0.00546 0.80412 0.19496 0.08100
C 	C 	0.98195 0.80006 0.21240 -0.07200
C 	C 	0.98203 0.77881 0.23375 -0.02000
C 	C 	0.00582 0.76165 0.23817 -0.00500
H 	H 	0.04937 0.75290 0.22366 0.03500
H 	H 	0.04886 0.79004 0.18579 0.05200
H 	H 	0.00230 0.91245 0.22173 0.03300
H 	H 	0.00469 0.85933 0.22300 0.05900
H 	H 	0.00009 0.91033 0.12794 0.04200
H 	H 	0.00045 0.87120 0.08880 0.04200
H 	H 	0.00692 0.77623 0.13977 0.05900
H 	H 	0.00518 0.77751 0.08663 0.03300
H 	H 	0.96292 0.81322 0.20927 0.05400
H 	H 	0.96304 0.77597 0.24705 0.03500
O 	O 	0.50058 0.46046 0.80322 -0.41800
O 	O 	0.50048 0.46023 0.85079 -0.41600
O 	O 	0.49952 0.34997 0.96104 -0.42700
O 	O 	0.49942 0.30241 0.96127 -0.42900
N 	N 	0.49486 0.32658 0.82742 -0.15200
C 	C 	0.46976 0.26599 0.77924 -0.02400
C 	C 	0.47004 0.28697 0.80084 -0.07300
C 	C 	0.49783 0.40069 0.79845 0.04100
C 	C 	0.49653 0.37047 0.79746 -0.09900
C 	C 	0.49660 0.35545 0.82349 0.09600
C 	C 	0.49777 0.36975 0.84956 -0.03000
C 	C 	0.49913 0.39972 0.85127 0.01600
C 	C 	0.49908 0.41560 0.82520 -0.11500
C 	C 	0.50069 0.44675 0.82692 0.37300
C 	C 	0.49930 0.32611 0.94756 0.38100
C 	C 	0.49724 0.32439 0.91650 -0.11800
C 	C 	0.49796 0.35045 0.90062 0.01800
C 	C 	0.49691 0.34874 0.87062 -0.03100
C 	C 	0.49502 0.32270 0.85634 0.09700
C 	C 	0.49425 0.29669 0.87138 -0.10000
C 	C 	0.49532 0.29767 0.90161 0.04300
C 	C 	0.49454 0.30412 0.80504 0.08500
C 	C 	0.51805 0.30006 0.78760 -0.07600
C 	C 	0.51797 0.27881 0.76625 -0.02300
C 	C 	0.49418 0.26165 0.76183 -0.00200
H 	H 	0.45063 0.25290 0.77634 0.03500
H 	H 	0.45114 0.29004 0.81421 0.05300
H 	H 	0.49770 0.41245 0.77827 0.03400
H 	H 	0.49531 0.35933 0.77700 0.05900
H 	H 	0.49991 0.41033 0.87206 0.04300
H 	H 	0.49955 0.37120 0.91120 0.04200
H 	H 	0.49308 0.27623 0.86023 0.05900
H 	H 	0.49482 0.27751 0.91337 0.03400
H 	H 	0.53708 0.31322 0.79073 0.05300
H 	H 	0.53696 0.27597 0.75295 0.03500
O 	O 	0.50058 0.96046 0.30322 -0.41700
O 	O 	0.50048 0.96023 0.35079 -0.41500
O 	O 	0.49952 0.84997 0.46104 -0.42900
O 	O 	0.49942 0.80241 0.46127 -0.43000
N 	N 	0.49486 0.82658 0.32742 -0.15200
C 	C 	0.46976 0.76599 0.27924 -0.02400
C 	C 	0.47004 0.78697 0.30084 -0.07300
C 	C 	0.49783 0.90069 0.29845 0.04100
C 	C 	0.49653 0.87047 0.29746 -0.09900
C 	C 	0.49660 0.85545 0.32349 0.09600
C 	C 	0.49777 0.86975 0.34956 -0.03000
C 	C 	0.49913 0.89972 0.35127 0.01600
C 	C 	0.49908 0.91560 0.32520 -0.11400
C 	C 	0.50069 0.94675 0.32692 0.37300
C 	C 	0.49930 0.82611 0.44756 0.38100
C 	C 	0.49724 0.82439 0.41650 -0.11900
C 	C 	0.49796 0.85045 0.40062 0.01800
C 	C 	0.49691 0.84874 0.37062 -0.03100
C 	C 	0.49502 0.82270 0.35634 0.09700
C 	C 	0.49425 0.79669 0.37138 -0.10000
C 	C 	0.49532 0.79767 0.40161 0.04300
C 	C 	0.49454 0.80412 0.30504 0.08500
C 	C 	0.51805 0.80006 0.28760 -0.07600
C 	C 	0.51797 0.77881 0.26625 -0.02300
C 	C 	0.49418 0.76165 0.26183 -0.00200
H 	H 	0.45063 0.75290 0.27634 0.03500
H 	H 	0.45114 0.79004 0.31421 0.05200
H 	H 	0.49770 0.91245 0.27827 0.03400
H 	H 	0.49531 0.85933 0.27700 0.05900
H 	H 	0.49991 0.91033 0.37206 0.04300
H 	H 	0.49955 0.87120 0.41120 0.04200
H 	H 	0.49308 0.77623 0.36023 0.05900
H 	H 	0.49482 0.77751 0.41337 0.03400
H 	H 	0.53708 0.81322 0.29073 0.05400
H 	H 	0.53696 0.77597 0.25295 0.03500
O 	O 	0.00058 0.46046 0.30322 -0.41900
O 	O 	0.00048 0.46023 0.35079 -0.41700
O 	O 	0.99952 0.34997 0.46104 -0.42700
O 	O 	0.99942 0.30241 0.46127 -0.42800
N 	N 	0.99486 0.32658 0.32742 -0.15300
C 	C 	0.96976 0.26599 0.27924 -0.02400
C 	C 	0.97004 0.28697 0.30084 -0.07400
C 	C 	0.99783 0.40069 0.29845 0.04000
C 	C 	0.99653 0.37047 0.29746 -0.09800
C 	C 	0.99660 0.35545 0.32349 0.09600
C 	C 	0.99777 0.36975 0.34956 -0.02900
C 	C 	0.99913 0.39972 0.35127 0.01500
C 	C 	0.99908 0.41560 0.32520 -0.11100
C 	C 	0.00069 0.44675 0.32692 0.36900
C 	C 	0.99930 0.32611 0.44756 0.38100
C 	C 	0.99724 0.32439 0.41650 -0.11800
C 	C 	0.99796 0.35045 0.40062 0.01800
C 	C 	0.99691 0.34874 0.37062 -0.03100
C 	C 	0.99502 0.32270 0.35634 0.09700
C 	C 	0.99425 0.29669 0.37138 -0.10000
C 	C 	0.99532 0.29767 0.40161 0.04300
C 	C 	0.99454 0.30412 0.30504 0.08800
C 	C 	0.01805 0.30006 0.28760 -0.07900
C 	C 	0.01797 0.27881 0.26625 -0.02600
C 	C 	0.99418 0.26165 0.26183 0.00000
H 	H 	0.95063 0.25290 0.27634 0.03500
H 	H 	0.95114 0.29004 0.31421 0.05300
H 	H 	0.99770 0.41245 0.27827 0.03500
H 	H 	0.99531 0.35933 0.27700 0.06000
H 	H 	0.99991 0.41033 0.37206 0.04400
H 	H 	0.99955 0.37120 0.41120 0.04300
H 	H 	0.99308 0.27623 0.36023 0.06000
H 	H 	0.99482 0.27751 0.41337 0.03400
H 	H 	0.03708 0.31322 0.29073 0.05300
H 	H 	0.03696 0.27597 0.25295 0.03500
O 	O 	0.00058 0.96046 0.80322 -0.41800
O 	O 	0.00048 0.96023 0.85079 -0.41500
O 	O 	0.99952 0.84997 0.96104 -0.42600
O 	O 	0.99942 0.80241 0.96127 -0.42700
N 	N 	0.99486 0.82658 0.82742 -0.15300
C 	C 	0.96976 0.76599 0.77924 -0.02400
C 	C 	0.97004 0.78697 0.80084 -0.07400
C 	C 	0.99783 0.90069 0.79845 0.04000
C 	C 	0.99653 0.87047 0.79746 -0.09800
C 	C 	0.99660 0.85545 0.82349 0.09600
C 	C 	0.99777 0.86975 0.84956 -0.02900
C 	C 	0.99913 0.89972 0.85127 0.01500
C 	C 	0.99908 0.91560 0.82520 -0.11000
C 	C 	0.00069 0.94675 0.82692 0.36900
C 	C 	0.99930 0.82611 0.94756 0.38100
C 	C 	0.99724 0.82439 0.91650 -0.11800
C 	C 	0.99796 0.85045 0.90062 0.01800
C 	C 	0.99691 0.84874 0.87062 -0.03100
C 	C 	0.99502 0.82270 0.85634 0.09700
C 	C 	0.99425 0.79669 0.87138 -0.10000
C 	C 	0.99532 0.79767 0.90161 0.04300
C 	C 	0.99454 0.80412 0.80504 0.08800
C 	C 	0.01805 0.80006 0.78760 -0.07900
C 	C 	0.01797 0.77881 0.76625 -0.02600
C 	C 	0.99418 0.76165 0.76183 0.00000
H 	H 	0.95063 0.75290 0.77634 0.03500
H 	H 	0.95114 0.79004 0.81421 0.05300
H 	H 	0.99770 0.91245 0.77827 0.03600
H 	H 	0.99531 0.85933 0.77700 0.06000
H 	H 	0.99991 0.91033 0.87206 0.04400
H 	H 	0.99955 0.87120 0.91120 0.04300
H 	H 	0.99308 0.77623 0.86023 0.06000
H 	H 	0.99482 0.77751 0.91337 0.03400
H 	H 	0.03708 0.81322 0.79073 0.05300
H 	H 	0.03696 0.77597 0.75295 0.03500
O 	O 	0.49942 0.53954 0.80322 -0.41800
O 	O 	0.49952 0.53977 0.85079 -0.41600
O 	O 	0.50048 0.65003 0.96104 -0.42700
O 	O 	0.50058 0.69759 0.96127 -0.42800
N 	N 	0.50514 0.67342 0.82742 -0.15200
C 	C 	0.53024 0.73401 0.77924 -0.02400
C 	C 	0.52996 0.71303 0.80084 -0.07300
C 	C 	0.50217 0.59931 0.79845 0.04100
C 	C 	0.50347 0.62953 0.79746 -0.09900
C 	C 	0.50340 0.64455 0.82349 0.09600
C 	C 	0.50223 0.63025 0.84956 -0.03000
C 	C 	0.50087 0.60028 0.85127 0.01600
C 	C 	0.50092 0.58440 0.82520 -0.11500
C 	C 	0.49931 0.55325 0.82692 0.37300
C 	C 	0.50070 0.67389 0.94756 0.38100
C 	C 	0.50276 0.67561 0.91650 -0.11800
C 	C 	0.50204 0.64955 0.90062 0.01800
C 	C 	0.50309 0.65126 0.87062 -0.03100
C 	C 	0.50498 0.67730 0.85634 0.09700
C 	C 	0.50575 0.70331 0.87138 -0.10000
C 	C 	0.50468 0.70233 0.90161 0.04300
C 	C 	0.50546 0.69588 0.80504 0.08500
C 	C 	0.48195 0.69994 0.78760 -0.07500
C 	C 	0.48203 0.72119 0.76625 -0.02300
C 	C 	0.50582 0.73835 0.76183 -0.00200
H 	H 	0.54937 0.74710 0.77634 0.03500
H 	H 	0.54886 0.70996 0.81421 0.05300
H 	H 	0.50230 0.58755 0.77827 0.03400
H 	H 	0.50469 0.64067 0.77700 0.05900
H 	H 	0.50009 0.58967 0.87206 0.04300
H 	H 	0.50045 0.62880 0.91120 0.04200
H 	H 	0.50692 0.72377 0.86023 0.05900
H 	H 	0.50518 0.72249 0.91337 0.03400
H 	H 	0.46292 0.68678 0.79073 0.05400
H 	H 	0.46304 0.72403 0.75295 0.03500
O 	O 	0.49942 0.03954 0.30322 -0.41900
O 	O 	0.49952 0.03977 0.35079 -0.41700
O 	O 	0.50048 0.15003 0.46104 -0.42900
O 	O 	0.50058 0.19759 0.46127 -0.43000
N 	N 	0.50514 0.17342 0.32742 -0.15200
C 	C 	0.53024 0.23401 0.27924 -0.02400
C 	C 	0.52996 0.21303 0.30084 -0.07300
C 	C 	0.50217 0.09931 0.29845 0.04100
C 	C 	0.50347 0.12953 0.29746 -0.09900
C 	C 	0.50340 0.14455 0.32349 0.09600
C 	C 	0.50223 0.13025 0.34956 -0.03000
C 	C 	0.50087 0.10028 0.35127 0.01600
C 	C 	0.50092 0.08440 0.32520 -0.11500
C 	C 	0.49931 0.05325 0.32692 0.37300
C 	C 	0.50070 0.17389 0.44756 0.38100
C 	C 	0.50276 0.17561 0.41650 -0.11900
C 	C 	0.50204 0.14955 0.40062 0.01800
C 	C 	0.50309 0.15126 0.37062 -0.03100
C 	C 	0.50498 0.17730 0.35634 0.09700
C 	C 	0.50575 0.20331 0.37138 -0.10000
C 	C 	0.50468 0.20233 0.40161 0.04300
C 	C 	0.50546 0.19588 0.30504 0.08500
C 	C 	0.48195 0.19994 0.28760 -0.07600
C 	C 	0.48203 0.22119 0.26625 -0.02300
C 	C 	0.50582 0.23835 0.26183 -0.00200
H 	H 	0.54937 0.24710 0.27634 0.03500
H 	H 	0.54886 0.20996 0.31421 0.05200
H 	H 	0.50230 0.08755 0.27827 0.03400
H 	H 	0.50469 0.14067 0.27700 0.05900
H 	H 	0.50009 0.08967 0.37206 0.04200
H 	H 	0.50045 0.12880 0.41120 0.04200
H 	H 	0.50692 0.22377 0.36023 0.05900
H 	H 	0.50518 0.22249 0.41337 0.03400
H 	H 	0.46292 0.18678 0.29073 0.05300
H 	H 	0.46304 0.22403 0.25295 0.03500
O 	O 	0.99942 0.53954 0.30322 -0.41700
O 	O 	0.99952 0.53977 0.35079 -0.41500
O 	O 	0.00048 0.65003 0.46104 -0.43000
O 	O 	0.00058 0.69759 0.46127 -0.43100
N 	N 	0.00514 0.67342 0.32742 -0.15200
C 	C 	0.03024 0.73401 0.27924 -0.02400
C 	C 	0.02996 0.71303 0.30084 -0.07300
C 	C 	0.00217 0.59931 0.29845 0.04200
C 	C 	0.00347 0.62953 0.29746 -0.10000
C 	C 	0.00340 0.64455 0.32349 0.09600
C 	C 	0.00223 0.63025 0.34956 -0.03100
C 	C 	0.00087 0.60028 0.35127 0.01700
C 	C 	0.00092 0.58440 0.32520 -0.11900
C 	C 	0.99931 0.55325 0.32692 0.37700
C 	C 	0.00070 0.67389 0.44756 0.38100
C 	C 	0.00276 0.67561 0.41650 -0.11900
C 	C 	0.00204 0.64955 0.40062 0.01800
C 	C 	0.00309 0.65126 0.37062 -0.03100
C 	C 	0.00498 0.67730 0.35634 0.09700
C 	C 	0.00575 0.70331 0.37138 -0.10000
C 	C 	0.00468 0.70233 0.40161 0.04200
C 	C 	0.00546 0.69588 0.30504 0.08100
C 	C 	0.98195 0.69994 0.28760 -0.07200
C 	C 	0.98203 0.72119 0.26625 -0.02000
C 	C 	0.00582 0.73835 0.26183 -0.00500
H 	H 	0.04937 0.74710 0.27634 0.03500
H 	H 	0.04886 0.70996 0.31421 0.05200
H 	H 	0.00230 0.58755 0.27827 0.03300
H 	H 	0.00469 0.64067 0.27700 0.05900
H 	H 	0.00009 0.58967 0.37206 0.04200
H 	H 	0.00045 0.62880 0.41120 0.04200
H 	H 	0.00692 0.72377 0.36023 0.05900
H 	H 	0.00518 0.72249 0.41337 0.03300
H 	H 	0.96292 0.68678 0.29073 0.05400
H 	H 	0.96304 0.72403 0.25295 0.03500
O 	O 	0.99942 0.03954 0.80322 -0.41800
O 	O 	0.99952 0.03977 0.85079 -0.41600
O 	O 	0.00048 0.15003 0.96104 -0.42800
O 	O 	0.00058 0.19759 0.96127 -0.42900
N 	N 	0.00514 0.17342 0.82742 -0.15200
C 	C 	0.03024 0.23401 0.77924 -0.02400
C 	C 	0.02996 0.21303 0.80084 -0.07300
C 	C 	0.00217 0.09931 0.79845 0.04200
C 	C 	0.00347 0.12953 0.79746 -0.10000
C 	C 	0.00340 0.14455 0.82349 0.09600
C 	C 	0.00223 0.13025 0.84956 -0.03100
C 	C 	0.00087 0.10028 0.85127 0.01700
C 	C 	0.00092 0.08440 0.82520 -0.11900
C 	C 	0.99931 0.05325 0.82692 0.37700
C 	C 	0.00070 0.17389 0.94756 0.38100
C 	C 	0.00276 0.17561 0.91650 -0.11900
C 	C 	0.00204 0.14955 0.90062 0.01800
C 	C 	0.00309 0.15126 0.87062 -0.03100
C 	C 	0.00498 0.17730 0.85634 0.09600
C 	C 	0.00575 0.20331 0.87138 -0.10000
C 	C 	0.00468 0.20233 0.90161 0.04200
C 	C 	0.00546 0.19588 0.80504 0.08100
C 	C 	0.98195 0.19994 0.78760 -0.07200
C 	C 	0.98203 0.22119 0.76625 -0.02000
C 	C 	0.00582 0.23835 0.76183 -0.00500
H 	H 	0.04937 0.24710 0.77634 0.03500
H 	H 	0.04886 0.20996 0.81421 0.05200
H 	H 	0.00230 0.08755 0.77827 0.03300
H 	H 	0.00469 0.14067 0.77700 0.05900
H 	H 	0.00009 0.08967 0.87206 0.04100
H 	H 	0.00045 0.12880 0.91120 0.04200
H 	H 	0.00692 0.22377 0.86023 0.05900
H 	H 	0.00518 0.22249 0.91337 0.03400
H 	H 	0.96292 0.18678 0.79073 0.05400
H 	H 	0.96304 0.22403 0.75295 0.03500
O 	O 	0.50058 0.53954 0.19678 -0.41900
O 	O 	0.50048 0.53977 0.14921 -0.41700
O 	O 	0.49952 0.65003 0.03896 -0.43000
O 	O 	0.49942 0.69759 0.03873 -0.43100
N 	N 	0.49486 0.67342 0.17258 -0.15200
C 	C 	0.46976 0.73401 0.22076 -0.02400
C 	C 	0.47004 0.71303 0.19916 -0.07300
C 	C 	0.49783 0.59931 0.20155 0.04100
C 	C 	0.49653 0.62953 0.20254 -0.09900
C 	C 	0.49660 0.64455 0.17651 0.09600
C 	C 	0.49777 0.63025 0.15044 -0.03000
C 	C 	0.49913 0.60028 0.14873 0.01600
C 	C 	0.49908 0.58440 0.17480 -0.11500
C 	C 	0.50069 0.55325 0.17308 0.37300
C 	C 	0.49930 0.67389 0.05244 0.38100
C 	C 	0.49724 0.67561 0.08350 -0.11900
C 	C 	0.49796 0.64955 0.09938 0.01800
C 	C 	0.49691 0.65126 0.12938 -0.03100
C 	C 	0.49502 0.67730 0.14366 0.09700
C 	C 	0.49425 0.70331 0.12862 -0.10000
C 	C 	0.49532 0.70233 0.09839 0.04300
C 	C 	0.49454 0.69588 0.19496 0.08500
C 	C 	0.51805 0.69994 0.21240 -0.07600
C 	C 	0.51797 0.72119 0.23375 -0.02300
C 	C 	0.49418 0.73835 0.23817 -0.00200
H 	H 	0.45063 0.74710 0.22366 0.03500
H 	H 	0.45114 0.70996 0.18579 0.05200
H 	H 	0.49770 0.58755 0.22173 0.03400
H 	H 	0.49531 0.64067 0.22300 0.05900
H 	H 	0.49991 0.58967 0.12794 0.04300
H 	H 	0.49955 0.62880 0.08880 0.04200
H 	H 	0.49308 0.72377 0.13977 0.05900
H 	H 	0.49482 0.72249 0.08663 0.03300
H 	H 	0.53708 0.68678 0.20927 0.05300
H 	H 	0.53696 0.72403 0.24705 0.03500
O 	O 	0.50058 0.03954 0.69678 -0.41900
O 	O 	0.50048 0.03977 0.64921 -0.41700
O 	O 	0.49952 0.15003 0.53896 -0.42900
O 	O 	0.49942 0.19759 0.53873 -0.43000
N 	N 	0.49486 0.17342 0.67258 -0.15200
C 	C 	0.46976 0.23401 0.72076 -0.02400
C 	C 	0.47004 0.21303 0.69916 -0.07300
C 	C 	0.49783 0.09931 0.70155 0.04100
C 	C 	0.49653 0.12953 0.70254 -0.09900
C 	C 	0.49660 0.14455 0.67651 0.09600
C 	C 	0.49777 0.13025 0.65044 -0.03000
C 	C 	0.49913 0.10028 0.64873 0.01600
C 	C 	0.49908 0.08440 0.67480 -0.11500
C 	C 	0.50069 0.05325 0.67308 0.37300
C 	C 	0.49930 0.17389 0.55244 0.38100
C 	C 	0.49724 0.17561 0.58350 -0.11900
C 	C 	0.49796 0.14955 0.59938 0.01800
C 	C 	0.49691 0.15126 0.62938 -0.03100
C 	C 	0.49502 0.17730 0.64366 0.09700
C 	C 	0.49425 0.20331 0.62862 -0.10000
C 	C 	0.49532 0.20233 0.59839 0.04300
C 	C 	0.49454 0.19588 0.69496 0.08500
C 	C 	0.51805 0.19994 0.71240 -0.07600
C 	C 	0.51797 0.22119 0.73375 -0.02300
C 	C 	0.49418 0.23835 0.73817 -0.00200
H 	H 	0.45063 0.24710 0.72366 0.03500
H 	H 	0.45114 0.20996 0.68579 0.05200
H 	H 	0.49770 0.08755 0.72173 0.03400
H 	H 	0.49531 0.14067 0.72300 0.05900
H 	H 	0.49991 0.08967 0.62794 0.04200
H 	H 	0.49955 0.12880 0.58880 0.04200
H 	H 	0.49308 0.22377 0.63977 0.05900
H 	H 	0.49482 0.22249 0.58663 0.03400
H 	H 	0.53708 0.18678 0.70927 0.05300
H 	H 	0.53696 0.22403 0.74705 0.03500
O 	O 	0.00058 0.53954 0.69678 -0.41900
O 	O 	0.00048 0.53977 0.64921 -0.41700
O 	O 	0.99952 0.65003 0.53896 -0.42700
O 	O 	0.99942 0.69759 0.53873 -0.42800
N 	N 	0.99486 0.67342 0.67258 -0.15300
C 	C 	0.96976 0.73401 0.72076 -0.02400
C 	C 	0.97004 0.71303 0.69916 -0.07400
C 	C 	0.99783 0.59931 0.70155 0.04000
C 	C 	0.99653 0.62953 0.70254 -0.09800
C 	C 	0.99660 0.64455 0.67651 0.09600
C 	C 	0.99777 0.63025 0.65044 -0.02900
C 	C 	0.99913 0.60028 0.64873 0.01500
C 	C 	0.99908 0.58440 0.67480 -0.11100
C 	C 	0.00069 0.55325 0.67308 0.36900
C 	C 	0.99930 0.67389 0.55244 0.38100
C 	C 	0.99724 0.67561 0.58350 -0.11800
C 	C 	0.99796 0.64955 0.59938 0.01800
C 	C 	0.99691 0.65126 0.62938 -0.03100
C 	C 	0.99502 0.67730 0.64366 0.09700
C 	C 	0.99425 0.70331 0.62862 -0.10000
C 	C 	0.99532 0.70233 0.59839 0.04300
C 	C 	0.99454 0.69588 0.69496 0.08800
C 	C 	0.01805 0.69994 0.71240 -0.07900
C 	C 	0.01797 0.72119 0.73375 -0.02600
C 	C 	0.99418 0.73835 0.73817 0.00000
H 	H 	0.95063 0.74710 0.72366 0.03500
H 	H 	0.95114 0.70996 0.68579 0.05300
H 	H 	0.99770 0.58755 0.72173 0.03500
H 	H 	0.99531 0.64067 0.72300 0.06000
H 	H 	0.99991 0.58967 0.62794 0.04400
H 	H 	0.99955 0.62880 0.58880 0.04300
H 	H 	0.99308 0.72377 0.63977 0.06000
H 	H 	0.99482 0.72249 0.58663 0.03400
H 	H 	0.03708 0.68678 0.70927 0.05300
H 	H 	0.03696 0.72403 0.74705 0.03500
O 	O 	0.00058 0.03954 0.19678 -0.42000
O 	O 	0.00048 0.03977 0.14921 -0.41800
O 	O 	0.99952 0.15003 0.03896 -0.42800
O 	O 	0.99942 0.19759 0.03873 -0.42900
N 	N 	0.99486 0.17342 0.17258 -0.15300
C 	C 	0.96976 0.23401 0.22076 -0.02400
C 	C 	0.97004 0.21303 0.19916 -0.07400
C 	C 	0.99783 0.09931 0.20155 0.04000
C 	C 	0.99653 0.12953 0.20254 -0.09900
C 	C 	0.99660 0.14455 0.17651 0.09600
C 	C 	0.99777 0.13025 0.15044 -0.02900
C 	C 	0.99913 0.10028 0.14873 0.01500
C 	C 	0.99908 0.08440 0.17480 -0.11100
C 	C 	0.00069 0.05325 0.17308 0.37000
C 	C 	0.99930 0.17389 0.05244 0.38100
C 	C 	0.99724 0.17561 0.08350 -0.11900
C 	C 	0.99796 0.14955 0.09938 0.01800
C 	C 	0.99691 0.15126 0.12938 -0.03100
C 	C 	0.99502 0.17730 0.14366 0.09700
C 	C 	0.99425 0.20331 0.12862 -0.10000
C 	C 	0.99532 0.20233 0.09839 0.04300
C 	C 	0.99454 0.19588 0.19496 0.08800
C 	C 	0.01805 0.19994 0.21240 -0.07900
C 	C 	0.01797 0.22119 0.23375 -0.02600
C 	C 	0.99418 0.23835 0.23817 0.00000
H 	H 	0.95063 0.24710 0.22366 0.03500
H 	H 	0.95114 0.20996 0.18579 0.05300
H 	H 	0.99770 0.08755 0.22173 0.03500
H 	H 	0.99531 0.14067 0.22300 0.06000
H 	H 	0.99991 0.08967 0.12794 0.04300
H 	H 	0.99955 0.12880 0.08880 0.04200
H 	H 	0.99308 0.22377 0.13977 0.06000
H 	H 	0.99482 0.22249 0.08663 0.03400
H 	H 	0.03708 0.18678 0.20927 0.05300
H 	H 	0.03696 0.22403 0.24705 0.03500
Cu	Cu	0.19997 0.50000 0.50000 0.94300
Cu	Cu	0.14625 0.50000 0.50000 0.93900
Cu	Cu	0.19997 0.00000 -0.00000 0.94000
Cu	Cu	0.14625 0.00000 -0.00000 0.93600
Cu	Cu	0.69997 0.50000 -0.00000 0.94200
Cu	Cu	0.64625 0.50000 -0.00000 0.93800
Cu	Cu	0.69997 0.00000 0.50000 0.94200
Cu	Cu	0.64625 0.00000 0.50000 0.93800
Cu	Cu	0.80003 0.50000 0.50000 0.94300
Cu	Cu	0.85375 0.50000 0.50000 0.93900
Cu	Cu	0.80003 0.00000 -0.00000 0.94000
Cu	Cu	0.85375 0.00000 -0.00000 0.93600
Cu	Cu	0.30003 0.50000 -0.00000 0.94200
Cu	Cu	0.35375 0.50000 -0.00000 0.93800
Cu	Cu	0.30003 0.00000 0.50000 0.94200
Cu	Cu	0.35375 0.00000 0.50000 0.93800
Cu	Cu	0.50000 0.19997 0.50000 0.94300
Cu	Cu	0.50000 0.14625 0.50000 0.93900
Cu	Cu	0.50000 0.69997 -0.00000 0.94200
Cu	Cu	0.50000 0.64625 -0.00000 0.93800
Cu	Cu	-0.00000 0.19997 -0.00000 0.94000
Cu	Cu	-0.00000 0.14625 -0.00000 0.93600
Cu	Cu	-0.00000 0.69997 0.50000 0.94200
Cu	Cu	-0.00000 0.64625 0.50000 0.93800
Cu	Cu	0.50000 0.80003 0.50000 0.94300
Cu	Cu	0.50000 0.85375 0.50000 0.93900
Cu	Cu	0.50000 0.30003 -0.00000 0.94200
Cu	Cu	0.50000 0.35375 -0.00000 0.93800
Cu	Cu	-0.00000 0.80003 -0.00000 0.94000
Cu	Cu	-0.00000 0.85375 -0.00000 0.93600
Cu	Cu	0.00000 0.30003 0.50000 0.94200
Cu	Cu	-0.00000 0.35375 0.50000 0.93800
Cu	Cu	0.50000 0.50000 0.19997 0.94300
Cu	Cu	0.50000 0.50000 0.14625 0.93900
Cu	Cu	0.50000 0.00000 0.69997 0.94200
Cu	Cu	0.50000 0.00000 0.64625 0.93800
Cu	Cu	-0.00000 0.50000 0.69997 0.94200
Cu	Cu	-0.00000 0.50000 0.64625 0.93800
Cu	Cu	0.00000 0.00000 0.19997 0.94000
Cu	Cu	-0.00000 0.00000 0.14625 0.93600
Cu	Cu	0.50000 0.50000 0.80003 0.94300
Cu	Cu	0.50000 0.50000 0.85375 0.93900
Cu	Cu	0.50000 0.00000 0.30003 0.94200
Cu	Cu	0.50000 0.00000 0.35375 0.93800
Cu	Cu	0.00000 0.50000 0.30003 0.94200
Cu	Cu	-0.00000 0.50000 0.35375 0.93800
Cu	Cu	0.00000 0.00000 0.80003 0.94000
Cu	Cu	0.00000 0.00000 0.85375 0.93600
