data_crystal

_cell_length_a 36.16010
_cell_length_b 36.16010
_cell_length_c 36.16010
_cell_angle_alpha 90.00000
_cell_angle_beta  90.00000
_cell_angle_gamma 90.00000

_symmetry_space_group_name_	'P 1'
_symmetry_space_group_name_H-M	'P 1'

loop_
_symmetry_equiv_pos_as_xyz
  x,y,z

loop_
_atom_site_label
_atom_site_type_symbol
_atom_site_fract_x
_atom_site_fract_y
_atom_site_fract_z
_atom_site_charge
Cu	Cu	0.08624 0.67345 0.32873 0.94100
Cu	Cu	0.06146 0.62778 0.37436 0.94000
O 	O 	0.11019 0.63401 0.30952 -0.42900
O 	O 	0.09280 0.59429 0.35235 -0.41400
O 	O 	0.94488 0.20613 0.14711 -0.41700
O 	O 	0.96954 0.16510 0.10944 -0.41200
O 	O 	0.18058 0.36218 0.37908 -0.44400
O 	O 	0.14399 0.40512 0.40230 -0.42500
O 	O 	0.15956 0.19914 0.95471 -0.41800
O 	O 	0.11543 0.16086 0.97221 -0.42000
N 	N 	0.17605 0.48127 0.25006 -0.15300
N 	N 	0.08879 0.28896 0.08779 -0.15400
C 	C 	0.11083 0.60153 0.32302 0.36700
C 	C 	0.96868 0.19765 0.12265 0.36400
C 	C 	0.16630 0.39433 0.37745 0.37600
C 	C 	0.13325 0.19088 0.97647 0.36800
C 	C 	0.13144 0.57193 0.30368 -0.10700
C 	C 	0.14195 0.53936 0.32262 0.01200
C 	C 	0.15847 0.51102 0.30225 -0.02900
C 	C 	0.16329 0.51349 0.26443 0.09100
C 	C 	0.15319 0.54527 0.24509 -0.09800
C 	C 	0.13779 0.57480 0.26505 0.03300
C 	C 	0.17409 0.41798 0.34519 -0.11200
C 	C 	0.16515 0.45610 0.34518 0.01500
C 	C 	0.16889 0.47564 0.31202 -0.03100
C 	C 	0.17989 0.45856 0.27969 0.09400
C 	C 	0.18914 0.42106 0.27924 -0.09800
C 	C 	0.18690 0.40110 0.31227 0.03600
C 	C 	0.12328 0.21652 0.00648 -0.11000
C 	C 	0.08951 0.21228 0.02558 0.01400
C 	C 	0.08042 0.23850 0.05221 -0.03100
C 	C 	0.10339 0.26773 0.06063 0.09400
C 	C 	0.13736 0.27209 0.04291 -0.09700
C 	C 	0.14728 0.24611 0.01585 0.03500
C 	C 	0.99677 0.22507 0.11127 -0.10600
C 	C 	0.02115 0.21723 0.08177 0.01200
C 	C 	0.05054 0.24127 0.07555 -0.02900
C 	C 	0.05639 0.27234 0.09689 0.09300
C 	C 	0.03232 0.28135 0.12568 -0.09700
C 	C 	0.00226 0.25761 0.13265 0.03300
C 	C 	0.10544 0.32066 0.10465 0.08400
C 	C 	0.11602 0.31950 0.14184 -0.07400
C 	C 	0.13170 0.35047 0.15862 -0.02600
C 	C 	0.13743 0.38325 0.13839 -0.00200
C 	C 	0.12825 0.38361 0.10052 -0.03000
C 	C 	0.11208 0.35264 0.08390 -0.06700
C 	C 	0.16921 0.46766 0.21334 0.08400
C 	C 	0.13246 0.46509 0.20134 -0.07400
C 	C 	0.12258 0.43973 0.17403 -0.02400
C 	C 	0.14942 0.41667 0.15785 -0.00400
C 	C 	0.18685 0.42245 0.16700 -0.02500
C 	C 	0.19655 0.44738 0.19489 -0.07500
H 	H 	0.13683 0.53607 0.35192 0.04100
H 	H 	0.15680 0.54719 0.21544 0.05500
H 	H 	0.12938 0.59935 0.25010 0.03100
H 	H 	0.15434 0.46955 0.36963 0.04100
H 	H 	0.19715 0.40705 0.25411 0.05600
H 	H 	0.19330 0.37186 0.31163 0.03300
H 	H 	0.07063 0.18992 0.01930 0.04200
H 	H 	0.15567 0.29481 0.04955 0.05700
H 	H 	0.17365 0.24905 0.00219 0.03300
H 	H 	0.01844 0.19228 0.06545 0.04200
H 	H 	0.03705 0.30529 0.14297 0.05800
H 	H 	0.98413 0.26391 0.15560 0.03400
H 	H 	0.11089 0.29495 0.15817 0.05300
H 	H 	0.13753 0.34917 0.18793 0.03700
H 	H 	0.13278 0.40807 0.08391 0.03700
H 	H 	0.11088 0.48006 0.21570 0.05300
H 	H 	0.09350 0.43601 0.16814 0.03700
H 	H 	0.20842 0.40593 0.15444 0.03800
H 	H 	0.22490 0.44849 0.20432 0.05200
H 	H 	0.10428 0.35341 0.05336 0.04700
Cu	Cu	0.41376 0.32655 0.82873 0.94200
Cu	Cu	0.43854 0.37222 0.87436 0.94100
O 	O 	0.38981 0.36599 0.80952 -0.42800
O 	O 	0.40720 0.40571 0.85235 -0.41300
O 	O 	0.55512 0.79387 0.64711 -0.41600
O 	O 	0.53046 0.83490 0.60944 -0.41100
O 	O 	0.31942 0.63782 0.87908 -0.44300
O 	O 	0.35601 0.59488 0.90230 -0.42400
O 	O 	0.34044 0.80086 0.45471 -0.41700
O 	O 	0.38457 0.83914 0.47221 -0.41900
N 	N 	0.32395 0.51873 0.75006 -0.15200
N 	N 	0.41121 0.71104 0.58779 -0.15300
C 	C 	0.38917 0.39847 0.82302 0.36800
C 	C 	0.53132 0.80235 0.62265 0.36600
C 	C 	0.33370 0.60567 0.87745 0.37700
C 	C 	0.36675 0.80912 0.47647 0.36800
C 	C 	0.36856 0.42807 0.80368 -0.10600
C 	C 	0.35805 0.46064 0.82262 0.01300
C 	C 	0.34153 0.48898 0.80225 -0.02800
C 	C 	0.33671 0.48651 0.76443 0.09200
C 	C 	0.34681 0.45473 0.74509 -0.09700
C 	C 	0.36221 0.42520 0.76505 0.03400
C 	C 	0.32591 0.58202 0.84519 -0.11100
C 	C 	0.33485 0.54390 0.84518 0.01600
C 	C 	0.33111 0.52436 0.81202 -0.03000
C 	C 	0.32011 0.54144 0.77969 0.09500
C 	C 	0.31086 0.57894 0.77924 -0.09700
C 	C 	0.31310 0.59890 0.81227 0.03700
C 	C 	0.37672 0.78348 0.50648 -0.10900
C 	C 	0.41049 0.78772 0.52558 0.01500
C 	C 	0.41958 0.76150 0.55221 -0.03000
C 	C 	0.39661 0.73227 0.56063 0.09500
C 	C 	0.36264 0.72791 0.54291 -0.09600
C 	C 	0.35272 0.75389 0.51585 0.03600
C 	C 	0.50323 0.77493 0.61127 -0.10500
C 	C 	0.47885 0.78277 0.58177 0.01300
C 	C 	0.44946 0.75873 0.57555 -0.02800
C 	C 	0.44361 0.72766 0.59689 0.09400
C 	C 	0.46768 0.71865 0.62568 -0.09600
C 	C 	0.49774 0.74239 0.63265 0.03400
C 	C 	0.39456 0.67934 0.60465 0.08500
C 	C 	0.38398 0.68050 0.64184 -0.07300
C 	C 	0.36830 0.64953 0.65862 -0.02500
C 	C 	0.36257 0.61675 0.63839 -0.00100
C 	C 	0.37175 0.61639 0.60052 -0.02900
C 	C 	0.38792 0.64736 0.58390 -0.06600
C 	C 	0.33079 0.53234 0.71334 0.08500
C 	C 	0.36754 0.53491 0.70134 -0.07300
C 	C 	0.37742 0.56027 0.67403 -0.02300
C 	C 	0.35058 0.58333 0.65785 -0.00300
C 	C 	0.31315 0.57755 0.66700 -0.02400
C 	C 	0.30345 0.55262 0.69489 -0.07400
H 	H 	0.36317 0.46393 0.85192 0.04200
H 	H 	0.34320 0.45281 0.71544 0.05600
H 	H 	0.37062 0.40065 0.75010 0.03200
H 	H 	0.34566 0.53045 0.86963 0.04200
H 	H 	0.30285 0.59295 0.75411 0.05700
H 	H 	0.30670 0.62814 0.81163 0.03400
H 	H 	0.42937 0.81008 0.51930 0.04300
H 	H 	0.34433 0.70519 0.54955 0.05800
H 	H 	0.32635 0.75095 0.50219 0.03400
H 	H 	0.48156 0.80772 0.56545 0.04300
H 	H 	0.46295 0.69471 0.64297 0.05900
H 	H 	0.51587 0.73609 0.65560 0.03500
H 	H 	0.38911 0.70505 0.65817 0.05400
H 	H 	0.36247 0.65083 0.68793 0.03800
H 	H 	0.36722 0.59193 0.58391 0.03800
H 	H 	0.38912 0.51994 0.71570 0.05400
H 	H 	0.40650 0.56399 0.66814 0.03800
H 	H 	0.29158 0.59407 0.65444 0.03900
H 	H 	0.27510 0.55151 0.70432 0.05300
H 	H 	0.39572 0.64659 0.55336 0.04800
Cu	Cu	0.91376 0.17345 0.17127 0.94200
Cu	Cu	0.93854 0.12778 0.12564 0.94100
O 	O 	0.88981 0.13401 0.19048 -0.42800
O 	O 	0.90720 0.09429 0.14765 -0.41300
O 	O 	0.05512 0.70613 0.35289 -0.41600
O 	O 	0.03046 0.66510 0.39056 -0.41100
O 	O 	0.81942 0.86218 0.12092 -0.44300
O 	O 	0.85601 0.90512 0.09770 -0.42400
O 	O 	0.84044 0.69914 0.54529 -0.41700
O 	O 	0.88457 0.66086 0.52779 -0.41900
N 	N 	0.82395 0.98127 0.24994 -0.15200
N 	N 	0.91121 0.78896 0.41221 -0.15300
C 	C 	0.88917 0.10153 0.17698 0.36800
C 	C 	0.03132 0.69765 0.37735 0.36600
C 	C 	0.83370 0.89433 0.12255 0.37700
C 	C 	0.86675 0.69088 0.52353 0.36800
C 	C 	0.86856 0.07193 0.19632 -0.10600
C 	C 	0.85805 0.03936 0.17738 0.01300
C 	C 	0.84153 0.01102 0.19775 -0.02800
C 	C 	0.83671 0.01349 0.23557 0.09200
C 	C 	0.84681 0.04527 0.25491 -0.09700
C 	C 	0.86221 0.07480 0.23495 0.03400
C 	C 	0.82591 0.91798 0.15481 -0.11100
C 	C 	0.83485 0.95610 0.15482 0.01600
C 	C 	0.83111 0.97564 0.18798 -0.03000
C 	C 	0.82011 0.95856 0.22031 0.09500
C 	C 	0.81086 0.92106 0.22076 -0.09700
C 	C 	0.81310 0.90110 0.18773 0.03700
C 	C 	0.87672 0.71652 0.49352 -0.10900
C 	C 	0.91049 0.71228 0.47442 0.01500
C 	C 	0.91958 0.73850 0.44779 -0.03000
C 	C 	0.89661 0.76773 0.43937 0.09500
C 	C 	0.86264 0.77209 0.45709 -0.09600
C 	C 	0.85272 0.74611 0.48415 0.03600
C 	C 	0.00323 0.72507 0.38873 -0.10500
C 	C 	0.97885 0.71723 0.41823 0.01300
C 	C 	0.94946 0.74127 0.42445 -0.02800
C 	C 	0.94361 0.77234 0.40311 0.09400
C 	C 	0.96768 0.78135 0.37432 -0.09600
C 	C 	0.99774 0.75761 0.36735 0.03400
C 	C 	0.89456 0.82066 0.39535 0.08500
C 	C 	0.88398 0.81950 0.35816 -0.07300
C 	C 	0.86830 0.85047 0.34138 -0.02500
C 	C 	0.86257 0.88325 0.36161 -0.00100
C 	C 	0.87175 0.88361 0.39948 -0.02900
C 	C 	0.88792 0.85264 0.41610 -0.06600
C 	C 	0.83079 0.96766 0.28666 0.08500
C 	C 	0.86754 0.96509 0.29866 -0.07300
C 	C 	0.87742 0.93973 0.32597 -0.02300
C 	C 	0.85058 0.91667 0.34215 -0.00300
C 	C 	0.81315 0.92245 0.33300 -0.02400
C 	C 	0.80345 0.94738 0.30511 -0.07400
H 	H 	0.86317 0.03607 0.14808 0.04200
H 	H 	0.84320 0.04719 0.28456 0.05600
H 	H 	0.87062 0.09935 0.24990 0.03200
H 	H 	0.84566 0.96955 0.13037 0.04200
H 	H 	0.80285 0.90705 0.24589 0.05700
H 	H 	0.80670 0.87186 0.18837 0.03400
H 	H 	0.92937 0.68992 0.48070 0.04300
H 	H 	0.84433 0.79481 0.45045 0.05800
H 	H 	0.82635 0.74905 0.49781 0.03400
H 	H 	0.98156 0.69228 0.43455 0.04300
H 	H 	0.96295 0.80529 0.35703 0.05900
H 	H 	0.01587 0.76391 0.34440 0.03500
H 	H 	0.88911 0.79495 0.34183 0.05400
H 	H 	0.86247 0.84917 0.31207 0.03800
H 	H 	0.86722 0.90807 0.41609 0.03800
H 	H 	0.88912 0.98006 0.28430 0.05400
H 	H 	0.90650 0.93601 0.33186 0.03800
H 	H 	0.79158 0.90593 0.34556 0.03900
H 	H 	0.77510 0.94849 0.29568 0.05300
H 	H 	0.89572 0.85341 0.44664 0.04800
Cu	Cu	0.58624 0.82655 0.67127 0.94200
Cu	Cu	0.56146 0.87222 0.62564 0.94100
O 	O 	0.61019 0.86599 0.69048 -0.42800
O 	O 	0.59280 0.90571 0.64765 -0.41300
O 	O 	0.44488 0.29387 0.85289 -0.41600
O 	O 	0.46954 0.33490 0.89056 -0.41100
O 	O 	0.68058 0.13782 0.62092 -0.44300
O 	O 	0.64399 0.09488 0.59770 -0.42400
O 	O 	0.65956 0.30086 0.04529 -0.41700
O 	O 	0.61543 0.33914 0.02779 -0.41900
N 	N 	0.67605 0.01873 0.74994 -0.15200
N 	N 	0.58879 0.21104 0.91221 -0.15300
C 	C 	0.61083 0.89847 0.67698 0.36800
C 	C 	0.46868 0.30235 0.87735 0.36600
C 	C 	0.66630 0.10567 0.62255 0.37700
C 	C 	0.63325 0.30912 0.02353 0.36800
C 	C 	0.63144 0.92807 0.69632 -0.10600
C 	C 	0.64195 0.96064 0.67738 0.01300
C 	C 	0.65847 0.98898 0.69775 -0.02800
C 	C 	0.66329 0.98651 0.73557 0.09200
C 	C 	0.65319 0.95473 0.75491 -0.09700
C 	C 	0.63779 0.92520 0.73495 0.03400
C 	C 	0.67409 0.08202 0.65481 -0.11100
C 	C 	0.66515 0.04390 0.65482 0.01600
C 	C 	0.66889 0.02436 0.68798 -0.03000
C 	C 	0.67989 0.04144 0.72031 0.09500
C 	C 	0.68914 0.07894 0.72076 -0.09700
C 	C 	0.68690 0.09890 0.68773 0.03700
C 	C 	0.62328 0.28348 0.99352 -0.10900
C 	C 	0.58951 0.28772 0.97442 0.01500
C 	C 	0.58042 0.26150 0.94779 -0.03000
C 	C 	0.60339 0.23227 0.93937 0.09500
C 	C 	0.63736 0.22791 0.95709 -0.09600
C 	C 	0.64728 0.25389 0.98415 0.03600
C 	C 	0.49677 0.27493 0.88873 -0.10500
C 	C 	0.52115 0.28277 0.91823 0.01300
C 	C 	0.55054 0.25873 0.92445 -0.02800
C 	C 	0.55639 0.22766 0.90311 0.09400
C 	C 	0.53232 0.21865 0.87432 -0.09600
C 	C 	0.50226 0.24239 0.86735 0.03400
C 	C 	0.60544 0.17934 0.89535 0.08500
C 	C 	0.61602 0.18050 0.85816 -0.07300
C 	C 	0.63170 0.14953 0.84138 -0.02500
C 	C 	0.63743 0.11675 0.86161 -0.00100
C 	C 	0.62825 0.11639 0.89948 -0.02900
C 	C 	0.61208 0.14736 0.91610 -0.06600
C 	C 	0.66921 0.03234 0.78666 0.08500
C 	C 	0.63246 0.03491 0.79866 -0.07300
C 	C 	0.62258 0.06027 0.82597 -0.02300
C 	C 	0.64942 0.08333 0.84215 -0.00300
C 	C 	0.68685 0.07755 0.83300 -0.02400
C 	C 	0.69655 0.05262 0.80511 -0.07400
H 	H 	0.63683 0.96393 0.64808 0.04200
H 	H 	0.65680 0.95281 0.78456 0.05600
H 	H 	0.62938 0.90065 0.74990 0.03200
H 	H 	0.65434 0.03045 0.63037 0.04200
H 	H 	0.69715 0.09295 0.74589 0.05700
H 	H 	0.69330 0.12814 0.68837 0.03400
H 	H 	0.57063 0.31008 0.98070 0.04300
H 	H 	0.65567 0.20519 0.95045 0.05800
H 	H 	0.67365 0.25095 0.99781 0.03400
H 	H 	0.51844 0.30772 0.93455 0.04300
H 	H 	0.53705 0.19471 0.85703 0.05900
H 	H 	0.48413 0.23609 0.84440 0.03500
H 	H 	0.61089 0.20505 0.84183 0.05400
H 	H 	0.63753 0.15083 0.81207 0.03800
H 	H 	0.63278 0.09193 0.91609 0.03800
H 	H 	0.61088 0.01994 0.78430 0.05400
H 	H 	0.59350 0.06399 0.83186 0.03800
H 	H 	0.70842 0.09407 0.84556 0.03900
H 	H 	0.72490 0.05151 0.79568 0.05300
H 	H 	0.60428 0.14659 0.94664 0.04800
Cu	Cu	0.32873 0.08624 0.67345 0.94200
Cu	Cu	0.37436 0.06146 0.62778 0.94100
O 	O 	0.30952 0.11019 0.63401 -0.42800
O 	O 	0.35235 0.09280 0.59429 -0.41300
O 	O 	0.14711 0.94488 0.20613 -0.41600
O 	O 	0.10944 0.96954 0.16510 -0.41100
O 	O 	0.37908 0.18058 0.36218 -0.44300
O 	O 	0.40230 0.14399 0.40512 -0.42400
O 	O 	0.95471 0.15956 0.19914 -0.41700
O 	O 	0.97221 0.11543 0.16086 -0.41900
N 	N 	0.25006 0.17605 0.48127 -0.15200
N 	N 	0.08779 0.08879 0.28896 -0.15300
C 	C 	0.32302 0.11083 0.60153 0.36800
C 	C 	0.12265 0.96868 0.19765 0.36500
C 	C 	0.37745 0.16630 0.39433 0.37700
C 	C 	0.97647 0.13325 0.19088 0.36900
C 	C 	0.30368 0.13144 0.57193 -0.10600
C 	C 	0.32262 0.14195 0.53936 0.01300
C 	C 	0.30225 0.15847 0.51102 -0.02800
C 	C 	0.26443 0.16329 0.51349 0.09200
C 	C 	0.24509 0.15319 0.54527 -0.09700
C 	C 	0.26505 0.13779 0.57480 0.03400
C 	C 	0.34519 0.17409 0.41798 -0.11100
C 	C 	0.34518 0.16515 0.45610 0.01600
C 	C 	0.31202 0.16889 0.47564 -0.03000
C 	C 	0.27969 0.17989 0.45856 0.09500
C 	C 	0.27924 0.18914 0.42106 -0.09700
C 	C 	0.31227 0.18690 0.40110 0.03700
C 	C 	0.00648 0.12328 0.21652 -0.10900
C 	C 	0.02558 0.08951 0.21228 0.01500
C 	C 	0.05221 0.08042 0.23850 -0.03000
C 	C 	0.06063 0.10339 0.26773 0.09500
C 	C 	0.04291 0.13736 0.27209 -0.09600
C 	C 	0.01585 0.14728 0.24611 0.03600
C 	C 	0.11127 0.99677 0.22507 -0.10500
C 	C 	0.08177 0.02115 0.21723 0.01300
C 	C 	0.07555 0.05054 0.24127 -0.02800
C 	C 	0.09689 0.05639 0.27234 0.09400
C 	C 	0.12568 0.03232 0.28135 -0.09600
C 	C 	0.13265 0.00226 0.25761 0.03400
C 	C 	0.10465 0.10544 0.32066 0.08500
C 	C 	0.14184 0.11602 0.31950 -0.07300
C 	C 	0.15862 0.13170 0.35047 -0.02500
C 	C 	0.13839 0.13743 0.38325 -0.00100
C 	C 	0.10052 0.12825 0.38361 -0.02900
C 	C 	0.08390 0.11208 0.35264 -0.06600
C 	C 	0.21334 0.16921 0.46766 0.08500
C 	C 	0.20134 0.13246 0.46509 -0.07300
C 	C 	0.17403 0.12258 0.43973 -0.02300
C 	C 	0.15785 0.14942 0.41667 -0.00300
C 	C 	0.16700 0.18685 0.42245 -0.02400
C 	C 	0.19489 0.19655 0.44738 -0.07400
H 	H 	0.35192 0.13683 0.53607 0.04200
H 	H 	0.21544 0.15680 0.54719 0.05600
H 	H 	0.25010 0.12938 0.59935 0.03200
H 	H 	0.36963 0.15434 0.46955 0.04200
H 	H 	0.25411 0.19715 0.40705 0.05700
H 	H 	0.31163 0.19330 0.37186 0.03400
H 	H 	0.01930 0.07063 0.18992 0.04300
H 	H 	0.04955 0.15567 0.29481 0.05800
H 	H 	0.00219 0.17365 0.24905 0.03400
H 	H 	0.06545 0.01844 0.19228 0.04300
H 	H 	0.14297 0.03705 0.30529 0.05900
H 	H 	0.15560 0.98413 0.26391 0.03500
H 	H 	0.15817 0.11089 0.29495 0.05400
H 	H 	0.18793 0.13753 0.34917 0.03800
H 	H 	0.08391 0.13278 0.40807 0.03800
H 	H 	0.21570 0.11088 0.48006 0.05400
H 	H 	0.16814 0.09350 0.43601 0.03800
H 	H 	0.15444 0.20842 0.40593 0.03900
H 	H 	0.20432 0.22490 0.44849 0.05300
H 	H 	0.05336 0.10428 0.35341 0.04800
Cu	Cu	0.82873 0.41376 0.32655 0.94200
Cu	Cu	0.87436 0.43854 0.37222 0.94100
O 	O 	0.80952 0.38981 0.36599 -0.42800
O 	O 	0.85235 0.40720 0.40571 -0.41300
O 	O 	0.64711 0.55512 0.79387 -0.41600
O 	O 	0.60944 0.53046 0.83490 -0.41100
O 	O 	0.87908 0.31942 0.63782 -0.44300
O 	O 	0.90230 0.35601 0.59488 -0.42400
O 	O 	0.45471 0.34044 0.80086 -0.41700
O 	O 	0.47221 0.38457 0.83914 -0.41900
N 	N 	0.75006 0.32395 0.51873 -0.15200
N 	N 	0.58779 0.41121 0.71104 -0.15300
C 	C 	0.82302 0.38917 0.39847 0.36800
C 	C 	0.62265 0.53132 0.80235 0.36600
C 	C 	0.87745 0.33370 0.60567 0.37700
C 	C 	0.47647 0.36675 0.80912 0.36800
C 	C 	0.80368 0.36856 0.42807 -0.10600
C 	C 	0.82262 0.35805 0.46064 0.01300
C 	C 	0.80225 0.34153 0.48898 -0.02800
C 	C 	0.76443 0.33671 0.48651 0.09200
C 	C 	0.74509 0.34681 0.45473 -0.09700
C 	C 	0.76505 0.36221 0.42520 0.03400
C 	C 	0.84519 0.32591 0.58202 -0.11100
C 	C 	0.84518 0.33485 0.54390 0.01600
C 	C 	0.81202 0.33111 0.52436 -0.03000
C 	C 	0.77969 0.32011 0.54144 0.09500
C 	C 	0.77924 0.31086 0.57894 -0.09700
C 	C 	0.81227 0.31310 0.59890 0.03700
C 	C 	0.50648 0.37672 0.78348 -0.10900
C 	C 	0.52558 0.41049 0.78772 0.01500
C 	C 	0.55221 0.41958 0.76150 -0.03000
C 	C 	0.56063 0.39661 0.73227 0.09500
C 	C 	0.54291 0.36264 0.72791 -0.09600
C 	C 	0.51585 0.35272 0.75389 0.03600
C 	C 	0.61127 0.50323 0.77493 -0.10500
C 	C 	0.58177 0.47885 0.78277 0.01300
C 	C 	0.57555 0.44946 0.75873 -0.02800
C 	C 	0.59689 0.44361 0.72766 0.09400
C 	C 	0.62568 0.46768 0.71865 -0.09600
C 	C 	0.63265 0.49774 0.74239 0.03400
C 	C 	0.60465 0.39456 0.67934 0.08500
C 	C 	0.64184 0.38398 0.68050 -0.07300
C 	C 	0.65862 0.36830 0.64953 -0.02500
C 	C 	0.63839 0.36257 0.61675 -0.00100
C 	C 	0.60052 0.37175 0.61639 -0.02900
C 	C 	0.58390 0.38792 0.64736 -0.06600
C 	C 	0.71334 0.33079 0.53234 0.08500
C 	C 	0.70134 0.36754 0.53491 -0.07300
C 	C 	0.67403 0.37742 0.56027 -0.02300
C 	C 	0.65785 0.35058 0.58333 -0.00300
C 	C 	0.66700 0.31315 0.57755 -0.02400
C 	C 	0.69489 0.30345 0.55262 -0.07400
H 	H 	0.85192 0.36317 0.46393 0.04200
H 	H 	0.71544 0.34320 0.45281 0.05600
H 	H 	0.75010 0.37062 0.40065 0.03200
H 	H 	0.86963 0.34566 0.53045 0.04200
H 	H 	0.75411 0.30285 0.59295 0.05700
H 	H 	0.81163 0.30670 0.62814 0.03400
H 	H 	0.51930 0.42937 0.81008 0.04300
H 	H 	0.54955 0.34433 0.70519 0.05800
H 	H 	0.50219 0.32635 0.75095 0.03400
H 	H 	0.56545 0.48156 0.80772 0.04300
H 	H 	0.64297 0.46295 0.69471 0.05900
H 	H 	0.65560 0.51587 0.73609 0.03500
H 	H 	0.65817 0.38911 0.70505 0.05400
H 	H 	0.68793 0.36247 0.65083 0.03800
H 	H 	0.58391 0.36722 0.59193 0.03800
H 	H 	0.71570 0.38912 0.51994 0.05400
H 	H 	0.66814 0.40650 0.56399 0.03800
H 	H 	0.65444 0.29158 0.59407 0.03900
H 	H 	0.70432 0.27510 0.55151 0.05300
H 	H 	0.55336 0.39572 0.64659 0.04800
Cu	Cu	0.17127 0.91376 0.17345 0.94200
Cu	Cu	0.12564 0.93854 0.12778 0.94100
O 	O 	0.19048 0.88981 0.13401 -0.42800
O 	O 	0.14765 0.90720 0.09429 -0.41300
O 	O 	0.35289 0.05512 0.70613 -0.41600
O 	O 	0.39056 0.03046 0.66510 -0.41100
O 	O 	0.12092 0.81942 0.86218 -0.44300
O 	O 	0.09770 0.85601 0.90512 -0.42400
O 	O 	0.54529 0.84044 0.69914 -0.41700
O 	O 	0.52779 0.88457 0.66086 -0.41900
N 	N 	0.24994 0.82395 0.98127 -0.15200
N 	N 	0.41221 0.91121 0.78896 -0.15300
C 	C 	0.17698 0.88917 0.10153 0.36800
C 	C 	0.37735 0.03132 0.69765 0.36600
C 	C 	0.12255 0.83370 0.89433 0.37700
C 	C 	0.52353 0.86675 0.69088 0.36800
C 	C 	0.19632 0.86856 0.07193 -0.10600
C 	C 	0.17738 0.85805 0.03936 0.01300
C 	C 	0.19775 0.84153 0.01102 -0.02800
C 	C 	0.23557 0.83671 0.01349 0.09200
C 	C 	0.25491 0.84681 0.04527 -0.09700
C 	C 	0.23495 0.86221 0.07480 0.03400
C 	C 	0.15481 0.82591 0.91798 -0.11100
C 	C 	0.15482 0.83485 0.95610 0.01600
C 	C 	0.18798 0.83111 0.97564 -0.03000
C 	C 	0.22031 0.82011 0.95856 0.09500
C 	C 	0.22076 0.81086 0.92106 -0.09700
C 	C 	0.18773 0.81310 0.90110 0.03700
C 	C 	0.49352 0.87672 0.71652 -0.10900
C 	C 	0.47442 0.91049 0.71228 0.01500
C 	C 	0.44779 0.91958 0.73850 -0.03000
C 	C 	0.43937 0.89661 0.76773 0.09500
C 	C 	0.45709 0.86264 0.77209 -0.09600
C 	C 	0.48415 0.85272 0.74611 0.03600
C 	C 	0.38873 0.00323 0.72507 -0.10500
C 	C 	0.41823 0.97885 0.71723 0.01300
C 	C 	0.42445 0.94946 0.74127 -0.02800
C 	C 	0.40311 0.94361 0.77234 0.09400
C 	C 	0.37432 0.96768 0.78135 -0.09600
C 	C 	0.36735 0.99774 0.75761 0.03400
C 	C 	0.39535 0.89456 0.82066 0.08500
C 	C 	0.35816 0.88398 0.81950 -0.07300
C 	C 	0.34138 0.86830 0.85047 -0.02500
C 	C 	0.36161 0.86257 0.88325 -0.00100
C 	C 	0.39948 0.87175 0.88361 -0.02900
C 	C 	0.41610 0.88792 0.85264 -0.06600
C 	C 	0.28666 0.83079 0.96766 0.08500
C 	C 	0.29866 0.86754 0.96509 -0.07300
C 	C 	0.32597 0.87742 0.93973 -0.02300
C 	C 	0.34215 0.85058 0.91667 -0.00300
C 	C 	0.33300 0.81315 0.92245 -0.02400
C 	C 	0.30511 0.80345 0.94738 -0.07400
H 	H 	0.14808 0.86317 0.03607 0.04200
H 	H 	0.28456 0.84320 0.04719 0.05600
H 	H 	0.24990 0.87062 0.09935 0.03200
H 	H 	0.13037 0.84566 0.96955 0.04200
H 	H 	0.24589 0.80285 0.90705 0.05700
H 	H 	0.18837 0.80670 0.87186 0.03400
H 	H 	0.48070 0.92937 0.68992 0.04300
H 	H 	0.45045 0.84433 0.79481 0.05800
H 	H 	0.49781 0.82635 0.74905 0.03400
H 	H 	0.43455 0.98156 0.69228 0.04300
H 	H 	0.35703 0.96295 0.80529 0.05900
H 	H 	0.34440 0.01587 0.76391 0.03500
H 	H 	0.34183 0.88911 0.79495 0.05400
H 	H 	0.31207 0.86247 0.84917 0.03800
H 	H 	0.41609 0.86722 0.90807 0.03800
H 	H 	0.28430 0.88912 0.98006 0.05400
H 	H 	0.33186 0.90650 0.93601 0.03800
H 	H 	0.34556 0.79158 0.90593 0.03900
H 	H 	0.29568 0.77510 0.94849 0.05300
H 	H 	0.44664 0.89572 0.85341 0.04800
Cu	Cu	0.67127 0.58624 0.82655 0.94200
Cu	Cu	0.62564 0.56146 0.87222 0.94100
O 	O 	0.69048 0.61019 0.86599 -0.42800
O 	O 	0.64765 0.59280 0.90571 -0.41300
O 	O 	0.85289 0.44488 0.29387 -0.41600
O 	O 	0.89056 0.46954 0.33490 -0.41100
O 	O 	0.62092 0.68058 0.13782 -0.44300
O 	O 	0.59770 0.64399 0.09488 -0.42400
O 	O 	0.04529 0.65956 0.30086 -0.41700
O 	O 	0.02779 0.61543 0.33914 -0.41900
N 	N 	0.74994 0.67605 0.01873 -0.15200
N 	N 	0.91221 0.58879 0.21104 -0.15300
C 	C 	0.67698 0.61083 0.89847 0.36800
C 	C 	0.87735 0.46868 0.30235 0.36600
C 	C 	0.62255 0.66630 0.10567 0.37700
C 	C 	0.02353 0.63325 0.30912 0.36800
C 	C 	0.69632 0.63144 0.92807 -0.10600
C 	C 	0.67738 0.64195 0.96064 0.01300
C 	C 	0.69775 0.65847 0.98898 -0.02800
C 	C 	0.73557 0.66329 0.98651 0.09200
C 	C 	0.75491 0.65319 0.95473 -0.09700
C 	C 	0.73495 0.63779 0.92520 0.03400
C 	C 	0.65481 0.67409 0.08202 -0.11100
C 	C 	0.65482 0.66515 0.04390 0.01600
C 	C 	0.68798 0.66889 0.02436 -0.03000
C 	C 	0.72031 0.67989 0.04144 0.09500
C 	C 	0.72076 0.68914 0.07894 -0.09700
C 	C 	0.68773 0.68690 0.09890 0.03700
C 	C 	0.99352 0.62328 0.28348 -0.10900
C 	C 	0.97442 0.58951 0.28772 0.01500
C 	C 	0.94779 0.58042 0.26150 -0.03000
C 	C 	0.93937 0.60339 0.23227 0.09500
C 	C 	0.95709 0.63736 0.22791 -0.09600
C 	C 	0.98415 0.64728 0.25389 0.03600
C 	C 	0.88873 0.49677 0.27493 -0.10500
C 	C 	0.91823 0.52115 0.28277 0.01300
C 	C 	0.92445 0.55054 0.25873 -0.02800
C 	C 	0.90311 0.55639 0.22766 0.09400
C 	C 	0.87432 0.53232 0.21865 -0.09600
C 	C 	0.86735 0.50226 0.24239 0.03400
C 	C 	0.89535 0.60544 0.17934 0.08500
C 	C 	0.85816 0.61602 0.18050 -0.07300
C 	C 	0.84138 0.63170 0.14953 -0.02500
C 	C 	0.86161 0.63743 0.11675 -0.00100
C 	C 	0.89948 0.62825 0.11639 -0.02900
C 	C 	0.91610 0.61208 0.14736 -0.06600
C 	C 	0.78666 0.66921 0.03234 0.08500
C 	C 	0.79866 0.63246 0.03491 -0.07300
C 	C 	0.82597 0.62258 0.06027 -0.02300
C 	C 	0.84215 0.64942 0.08333 -0.00300
C 	C 	0.83300 0.68685 0.07755 -0.02400
C 	C 	0.80511 0.69655 0.05262 -0.07400
H 	H 	0.64808 0.63683 0.96393 0.04200
H 	H 	0.78456 0.65680 0.95281 0.05600
H 	H 	0.74990 0.62938 0.90065 0.03200
H 	H 	0.63037 0.65434 0.03045 0.04200
H 	H 	0.74589 0.69715 0.09295 0.05700
H 	H 	0.68837 0.69330 0.12814 0.03400
H 	H 	0.98070 0.57063 0.31008 0.04300
H 	H 	0.95045 0.65567 0.20519 0.05800
H 	H 	0.99781 0.67365 0.25095 0.03400
H 	H 	0.93455 0.51844 0.30772 0.04300
H 	H 	0.85703 0.53705 0.19471 0.05900
H 	H 	0.84440 0.48413 0.23609 0.03500
H 	H 	0.84183 0.61089 0.20505 0.05400
H 	H 	0.81207 0.63753 0.15083 0.03800
H 	H 	0.91609 0.63278 0.09193 0.03800
H 	H 	0.78430 0.61088 0.01994 0.05400
H 	H 	0.83186 0.59350 0.06399 0.03800
H 	H 	0.84556 0.70842 0.09407 0.03900
H 	H 	0.79568 0.72490 0.05151 0.05300
H 	H 	0.94664 0.60428 0.14659 0.04800
Cu	Cu	0.67345 0.32873 0.08624 0.94200
Cu	Cu	0.62778 0.37436 0.06146 0.94100
O 	O 	0.63401 0.30952 0.11019 -0.42800
O 	O 	0.59429 0.35235 0.09280 -0.41300
O 	O 	0.20613 0.14711 0.94488 -0.41600
O 	O 	0.16510 0.10944 0.96954 -0.41100
O 	O 	0.36218 0.37908 0.18058 -0.44300
O 	O 	0.40512 0.40230 0.14399 -0.42400
O 	O 	0.19914 0.95471 0.15956 -0.41700
O 	O 	0.16086 0.97221 0.11543 -0.41900
N 	N 	0.48127 0.25006 0.17605 -0.15200
N 	N 	0.28896 0.08779 0.08879 -0.15300
C 	C 	0.60153 0.32302 0.11083 0.36800
C 	C 	0.19765 0.12265 0.96868 0.36500
C 	C 	0.39433 0.37745 0.16630 0.37700
C 	C 	0.19088 0.97647 0.13325 0.36900
C 	C 	0.57193 0.30368 0.13144 -0.10600
C 	C 	0.53936 0.32262 0.14195 0.01300
C 	C 	0.51102 0.30225 0.15847 -0.02800
C 	C 	0.51349 0.26443 0.16329 0.09200
C 	C 	0.54527 0.24509 0.15319 -0.09700
C 	C 	0.57480 0.26505 0.13779 0.03400
C 	C 	0.41798 0.34519 0.17409 -0.11100
C 	C 	0.45610 0.34518 0.16515 0.01600
C 	C 	0.47564 0.31202 0.16889 -0.03000
C 	C 	0.45856 0.27969 0.17989 0.09500
C 	C 	0.42106 0.27924 0.18914 -0.09700
C 	C 	0.40110 0.31227 0.18690 0.03700
C 	C 	0.21652 0.00648 0.12328 -0.10900
C 	C 	0.21228 0.02558 0.08951 0.01500
C 	C 	0.23850 0.05221 0.08042 -0.03000
C 	C 	0.26773 0.06063 0.10339 0.09500
C 	C 	0.27209 0.04291 0.13736 -0.09600
C 	C 	0.24611 0.01585 0.14728 0.03600
C 	C 	0.22507 0.11127 0.99677 -0.10500
C 	C 	0.21723 0.08177 0.02115 0.01300
C 	C 	0.24127 0.07555 0.05054 -0.02800
C 	C 	0.27234 0.09689 0.05639 0.09400
C 	C 	0.28135 0.12568 0.03232 -0.09600
C 	C 	0.25761 0.13265 0.00226 0.03400
C 	C 	0.32066 0.10465 0.10544 0.08500
C 	C 	0.31950 0.14184 0.11602 -0.07300
C 	C 	0.35047 0.15862 0.13170 -0.02500
C 	C 	0.38325 0.13839 0.13743 -0.00100
C 	C 	0.38361 0.10052 0.12825 -0.02900
C 	C 	0.35264 0.08390 0.11208 -0.06600
C 	C 	0.46766 0.21334 0.16921 0.08500
C 	C 	0.46509 0.20134 0.13246 -0.07300
C 	C 	0.43973 0.17403 0.12258 -0.02300
C 	C 	0.41667 0.15785 0.14942 -0.00300
C 	C 	0.42245 0.16700 0.18685 -0.02400
C 	C 	0.44738 0.19489 0.19655 -0.07400
H 	H 	0.53607 0.35192 0.13683 0.04200
H 	H 	0.54719 0.21544 0.15680 0.05600
H 	H 	0.59935 0.25010 0.12938 0.03200
H 	H 	0.46955 0.36963 0.15434 0.04200
H 	H 	0.40705 0.25411 0.19715 0.05700
H 	H 	0.37186 0.31163 0.19330 0.03400
H 	H 	0.18992 0.01930 0.07063 0.04300
H 	H 	0.29481 0.04955 0.15567 0.05800
H 	H 	0.24905 0.00219 0.17365 0.03400
H 	H 	0.19228 0.06545 0.01844 0.04300
H 	H 	0.30529 0.14297 0.03705 0.05900
H 	H 	0.26391 0.15560 0.98413 0.03500
H 	H 	0.29495 0.15817 0.11089 0.05400
H 	H 	0.34917 0.18793 0.13753 0.03800
H 	H 	0.40807 0.08391 0.13278 0.03800
H 	H 	0.48006 0.21570 0.11088 0.05400
H 	H 	0.43601 0.16814 0.09350 0.03800
H 	H 	0.40593 0.15444 0.20842 0.03900
H 	H 	0.44849 0.20432 0.22490 0.05300
H 	H 	0.35341 0.05336 0.10428 0.04800
Cu	Cu	0.32655 0.82873 0.41376 0.94200
Cu	Cu	0.37222 0.87436 0.43854 0.94100
O 	O 	0.36599 0.80952 0.38981 -0.42800
O 	O 	0.40571 0.85235 0.40720 -0.41300
O 	O 	0.79387 0.64711 0.55512 -0.41600
O 	O 	0.83490 0.60944 0.53046 -0.41100
O 	O 	0.63782 0.87908 0.31942 -0.44300
O 	O 	0.59488 0.90230 0.35601 -0.42400
O 	O 	0.80086 0.45471 0.34044 -0.41700
O 	O 	0.83914 0.47221 0.38457 -0.41900
N 	N 	0.51873 0.75006 0.32395 -0.15200
N 	N 	0.71104 0.58779 0.41121 -0.15300
C 	C 	0.39847 0.82302 0.38917 0.36800
C 	C 	0.80235 0.62265 0.53132 0.36600
C 	C 	0.60567 0.87745 0.33370 0.37700
C 	C 	0.80912 0.47647 0.36675 0.36800
C 	C 	0.42807 0.80368 0.36856 -0.10600
C 	C 	0.46064 0.82262 0.35805 0.01300
C 	C 	0.48898 0.80225 0.34153 -0.02800
C 	C 	0.48651 0.76443 0.33671 0.09200
C 	C 	0.45473 0.74509 0.34681 -0.09700
C 	C 	0.42520 0.76505 0.36221 0.03400
C 	C 	0.58202 0.84519 0.32591 -0.11100
C 	C 	0.54390 0.84518 0.33485 0.01600
C 	C 	0.52436 0.81202 0.33111 -0.03000
C 	C 	0.54144 0.77969 0.32011 0.09500
C 	C 	0.57894 0.77924 0.31086 -0.09700
C 	C 	0.59890 0.81227 0.31310 0.03700
C 	C 	0.78348 0.50648 0.37672 -0.10900
C 	C 	0.78772 0.52558 0.41049 0.01500
C 	C 	0.76150 0.55221 0.41958 -0.03000
C 	C 	0.73227 0.56063 0.39661 0.09500
C 	C 	0.72791 0.54291 0.36264 -0.09600
C 	C 	0.75389 0.51585 0.35272 0.03600
C 	C 	0.77493 0.61127 0.50323 -0.10500
C 	C 	0.78277 0.58177 0.47885 0.01300
C 	C 	0.75873 0.57555 0.44946 -0.02800
C 	C 	0.72766 0.59689 0.44361 0.09400
C 	C 	0.71865 0.62568 0.46768 -0.09600
C 	C 	0.74239 0.63265 0.49774 0.03400
C 	C 	0.67934 0.60465 0.39456 0.08500
C 	C 	0.68050 0.64184 0.38398 -0.07300
C 	C 	0.64953 0.65862 0.36830 -0.02500
C 	C 	0.61675 0.63839 0.36257 -0.00100
C 	C 	0.61639 0.60052 0.37175 -0.02900
C 	C 	0.64736 0.58390 0.38792 -0.06600
C 	C 	0.53234 0.71334 0.33079 0.08500
C 	C 	0.53491 0.70134 0.36754 -0.07300
C 	C 	0.56027 0.67403 0.37742 -0.02300
C 	C 	0.58333 0.65785 0.35058 -0.00300
C 	C 	0.57755 0.66700 0.31315 -0.02400
C 	C 	0.55262 0.69489 0.30345 -0.07400
H 	H 	0.46393 0.85192 0.36317 0.04200
H 	H 	0.45281 0.71544 0.34320 0.05600
H 	H 	0.40065 0.75010 0.37062 0.03200
H 	H 	0.53045 0.86963 0.34566 0.04200
H 	H 	0.59295 0.75411 0.30285 0.05700
H 	H 	0.62814 0.81163 0.30670 0.03400
H 	H 	0.81008 0.51930 0.42937 0.04300
H 	H 	0.70519 0.54955 0.34433 0.05800
H 	H 	0.75095 0.50219 0.32635 0.03400
H 	H 	0.80772 0.56545 0.48156 0.04300
H 	H 	0.69471 0.64297 0.46295 0.05900
H 	H 	0.73609 0.65560 0.51587 0.03500
H 	H 	0.70505 0.65817 0.38911 0.05400
H 	H 	0.65083 0.68793 0.36247 0.03800
H 	H 	0.59193 0.58391 0.36722 0.03800
H 	H 	0.51994 0.71570 0.38912 0.05400
H 	H 	0.56399 0.66814 0.40650 0.03800
H 	H 	0.59407 0.65444 0.29158 0.03900
H 	H 	0.55151 0.70432 0.27510 0.05300
H 	H 	0.64659 0.55336 0.39572 0.04800
Cu	Cu	0.17345 0.17127 0.91376 0.94200
Cu	Cu	0.12778 0.12564 0.93854 0.94100
O 	O 	0.13401 0.19048 0.88981 -0.42800
O 	O 	0.09429 0.14765 0.90720 -0.41300
O 	O 	0.70613 0.35289 0.05512 -0.41600
O 	O 	0.66510 0.39056 0.03046 -0.41100
O 	O 	0.86218 0.12092 0.81942 -0.44300
O 	O 	0.90512 0.09770 0.85601 -0.42400
O 	O 	0.69914 0.54529 0.84044 -0.41700
O 	O 	0.66086 0.52779 0.88457 -0.41900
N 	N 	0.98127 0.24994 0.82395 -0.15200
N 	N 	0.78896 0.41221 0.91121 -0.15300
C 	C 	0.10153 0.17698 0.88917 0.36800
C 	C 	0.69765 0.37735 0.03132 0.36600
C 	C 	0.89433 0.12255 0.83370 0.37700
C 	C 	0.69088 0.52353 0.86675 0.36800
C 	C 	0.07193 0.19632 0.86856 -0.10600
C 	C 	0.03936 0.17738 0.85805 0.01300
C 	C 	0.01102 0.19775 0.84153 -0.02800
C 	C 	0.01349 0.23557 0.83671 0.09200
C 	C 	0.04527 0.25491 0.84681 -0.09700
C 	C 	0.07480 0.23495 0.86221 0.03400
C 	C 	0.91798 0.15481 0.82591 -0.11100
C 	C 	0.95610 0.15482 0.83485 0.01600
C 	C 	0.97564 0.18798 0.83111 -0.03000
C 	C 	0.95856 0.22031 0.82011 0.09500
C 	C 	0.92106 0.22076 0.81086 -0.09700
C 	C 	0.90110 0.18773 0.81310 0.03700
C 	C 	0.71652 0.49352 0.87672 -0.10900
C 	C 	0.71228 0.47442 0.91049 0.01500
C 	C 	0.73850 0.44779 0.91958 -0.03000
C 	C 	0.76773 0.43937 0.89661 0.09500
C 	C 	0.77209 0.45709 0.86264 -0.09600
C 	C 	0.74611 0.48415 0.85272 0.03600
C 	C 	0.72507 0.38873 0.00323 -0.10500
C 	C 	0.71723 0.41823 0.97885 0.01300
C 	C 	0.74127 0.42445 0.94946 -0.02800
C 	C 	0.77234 0.40311 0.94361 0.09400
C 	C 	0.78135 0.37432 0.96768 -0.09600
C 	C 	0.75761 0.36735 0.99774 0.03400
C 	C 	0.82066 0.39535 0.89456 0.08500
C 	C 	0.81950 0.35816 0.88398 -0.07300
C 	C 	0.85047 0.34138 0.86830 -0.02500
C 	C 	0.88325 0.36161 0.86257 -0.00100
C 	C 	0.88361 0.39948 0.87175 -0.02900
C 	C 	0.85264 0.41610 0.88792 -0.06600
C 	C 	0.96766 0.28666 0.83079 0.08500
C 	C 	0.96509 0.29866 0.86754 -0.07300
C 	C 	0.93973 0.32597 0.87742 -0.02300
C 	C 	0.91667 0.34215 0.85058 -0.00300
C 	C 	0.92245 0.33300 0.81315 -0.02400
C 	C 	0.94738 0.30511 0.80345 -0.07400
H 	H 	0.03607 0.14808 0.86317 0.04200
H 	H 	0.04719 0.28456 0.84320 0.05600
H 	H 	0.09935 0.24990 0.87062 0.03200
H 	H 	0.96955 0.13037 0.84566 0.04200
H 	H 	0.90705 0.24589 0.80285 0.05700
H 	H 	0.87186 0.18837 0.80670 0.03400
H 	H 	0.68992 0.48070 0.92937 0.04300
H 	H 	0.79481 0.45045 0.84433 0.05800
H 	H 	0.74905 0.49781 0.82635 0.03400
H 	H 	0.69228 0.43455 0.98156 0.04300
H 	H 	0.80529 0.35703 0.96295 0.05900
H 	H 	0.76391 0.34440 0.01587 0.03500
H 	H 	0.79495 0.34183 0.88911 0.05400
H 	H 	0.84917 0.31207 0.86247 0.03800
H 	H 	0.90807 0.41609 0.86722 0.03800
H 	H 	0.98006 0.28430 0.88912 0.05400
H 	H 	0.93601 0.33186 0.90650 0.03800
H 	H 	0.90593 0.34556 0.79158 0.03900
H 	H 	0.94849 0.29568 0.77510 0.05300
H 	H 	0.85341 0.44664 0.89572 0.04800
Cu	Cu	0.82655 0.67127 0.58624 0.94200
Cu	Cu	0.87222 0.62564 0.56146 0.94100
O 	O 	0.86599 0.69048 0.61019 -0.42800
O 	O 	0.90571 0.64765 0.59280 -0.41300
O 	O 	0.29387 0.85289 0.44488 -0.41600
O 	O 	0.33490 0.89056 0.46954 -0.41100
O 	O 	0.13782 0.62092 0.68058 -0.44300
O 	O 	0.09488 0.59770 0.64399 -0.42400
O 	O 	0.30086 0.04529 0.65956 -0.41700
O 	O 	0.33914 0.02779 0.61543 -0.41900
N 	N 	0.01873 0.74994 0.67605 -0.15200
N 	N 	0.21104 0.91221 0.58879 -0.15300
C 	C 	0.89847 0.67698 0.61083 0.36800
C 	C 	0.30235 0.87735 0.46868 0.36600
C 	C 	0.10567 0.62255 0.66630 0.37700
C 	C 	0.30912 0.02353 0.63325 0.36800
C 	C 	0.92807 0.69632 0.63144 -0.10600
C 	C 	0.96064 0.67738 0.64195 0.01300
C 	C 	0.98898 0.69775 0.65847 -0.02800
C 	C 	0.98651 0.73557 0.66329 0.09200
C 	C 	0.95473 0.75491 0.65319 -0.09700
C 	C 	0.92520 0.73495 0.63779 0.03400
C 	C 	0.08202 0.65481 0.67409 -0.11100
C 	C 	0.04390 0.65482 0.66515 0.01600
C 	C 	0.02436 0.68798 0.66889 -0.03000
C 	C 	0.04144 0.72031 0.67989 0.09500
C 	C 	0.07894 0.72076 0.68914 -0.09700
C 	C 	0.09890 0.68773 0.68690 0.03700
C 	C 	0.28348 0.99352 0.62328 -0.10900
C 	C 	0.28772 0.97442 0.58951 0.01500
C 	C 	0.26150 0.94779 0.58042 -0.03000
C 	C 	0.23227 0.93937 0.60339 0.09500
C 	C 	0.22791 0.95709 0.63736 -0.09600
C 	C 	0.25389 0.98415 0.64728 0.03600
C 	C 	0.27493 0.88873 0.49677 -0.10500
C 	C 	0.28277 0.91823 0.52115 0.01300
C 	C 	0.25873 0.92445 0.55054 -0.02800
C 	C 	0.22766 0.90311 0.55639 0.09400
C 	C 	0.21865 0.87432 0.53232 -0.09600
C 	C 	0.24239 0.86735 0.50226 0.03400
C 	C 	0.17934 0.89535 0.60544 0.08500
C 	C 	0.18050 0.85816 0.61602 -0.07300
C 	C 	0.14953 0.84138 0.63170 -0.02500
C 	C 	0.11675 0.86161 0.63743 -0.00100
C 	C 	0.11639 0.89948 0.62825 -0.02900
C 	C 	0.14736 0.91610 0.61208 -0.06600
C 	C 	0.03234 0.78666 0.66921 0.08500
C 	C 	0.03491 0.79866 0.63246 -0.07300
C 	C 	0.06027 0.82597 0.62258 -0.02300
C 	C 	0.08333 0.84215 0.64942 -0.00300
C 	C 	0.07755 0.83300 0.68685 -0.02400
C 	C 	0.05262 0.80511 0.69655 -0.07400
H 	H 	0.96393 0.64808 0.63683 0.04200
H 	H 	0.95281 0.78456 0.65680 0.05600
H 	H 	0.90065 0.74990 0.62938 0.03200
H 	H 	0.03045 0.63037 0.65434 0.04200
H 	H 	0.09295 0.74589 0.69715 0.05700
H 	H 	0.12814 0.68837 0.69330 0.03400
H 	H 	0.31008 0.98070 0.57063 0.04300
H 	H 	0.20519 0.95045 0.65567 0.05800
H 	H 	0.25095 0.99781 0.67365 0.03400
H 	H 	0.30772 0.93455 0.51844 0.04300
H 	H 	0.19471 0.85703 0.53705 0.05900
H 	H 	0.23609 0.84440 0.48413 0.03500
H 	H 	0.20505 0.84183 0.61089 0.05400
H 	H 	0.15083 0.81207 0.63753 0.03800
H 	H 	0.09193 0.91609 0.63278 0.03800
H 	H 	0.01994 0.78430 0.61088 0.05400
H 	H 	0.06399 0.83186 0.59350 0.03800
H 	H 	0.09407 0.84556 0.70842 0.03900
H 	H 	0.05151 0.79568 0.72490 0.05300
H 	H 	0.14659 0.94664 0.60428 0.04800
Cu	Cu	0.91376 0.32655 0.67127 0.94200
Cu	Cu	0.93854 0.37222 0.62564 0.94100
O 	O 	0.88981 0.36599 0.69048 -0.42800
O 	O 	0.90720 0.40571 0.64765 -0.41300
O 	O 	0.05512 0.79387 0.85289 -0.41600
O 	O 	0.03046 0.83490 0.89056 -0.41100
O 	O 	0.81942 0.63782 0.62092 -0.44300
O 	O 	0.85601 0.59488 0.59770 -0.42400
O 	O 	0.84044 0.80086 0.04529 -0.41700
O 	O 	0.88457 0.83914 0.02779 -0.41900
N 	N 	0.82395 0.51873 0.74994 -0.15200
N 	N 	0.91121 0.71104 0.91221 -0.15300
C 	C 	0.88917 0.39847 0.67698 0.36800
C 	C 	0.03132 0.80235 0.87735 0.36500
C 	C 	0.83370 0.60567 0.62255 0.37700
C 	C 	0.86675 0.80912 0.02353 0.36900
C 	C 	0.86856 0.42807 0.69632 -0.10600
C 	C 	0.85805 0.46064 0.67738 0.01300
C 	C 	0.84153 0.48898 0.69775 -0.02800
C 	C 	0.83671 0.48651 0.73557 0.09200
C 	C 	0.84681 0.45473 0.75491 -0.09700
C 	C 	0.86221 0.42520 0.73495 0.03400
C 	C 	0.82591 0.58202 0.65481 -0.11100
C 	C 	0.83485 0.54390 0.65482 0.01600
C 	C 	0.83111 0.52436 0.68798 -0.03000
C 	C 	0.82011 0.54144 0.72031 0.09500
C 	C 	0.81086 0.57894 0.72076 -0.09700
C 	C 	0.81310 0.59890 0.68773 0.03700
C 	C 	0.87672 0.78348 0.99352 -0.10900
C 	C 	0.91049 0.78772 0.97442 0.01500
C 	C 	0.91958 0.76150 0.94779 -0.03000
C 	C 	0.89661 0.73227 0.93937 0.09500
C 	C 	0.86264 0.72791 0.95709 -0.09600
C 	C 	0.85272 0.75389 0.98415 0.03600
C 	C 	0.00323 0.77493 0.88873 -0.10500
C 	C 	0.97885 0.78277 0.91823 0.01300
C 	C 	0.94946 0.75873 0.92445 -0.02800
C 	C 	0.94361 0.72766 0.90311 0.09400
C 	C 	0.96768 0.71865 0.87432 -0.09600
C 	C 	0.99774 0.74239 0.86735 0.03400
C 	C 	0.89456 0.67934 0.89535 0.08500
C 	C 	0.88398 0.68050 0.85816 -0.07300
C 	C 	0.86830 0.64953 0.84138 -0.02500
C 	C 	0.86257 0.61675 0.86161 -0.00100
C 	C 	0.87175 0.61639 0.89948 -0.02900
C 	C 	0.88792 0.64736 0.91610 -0.06600
C 	C 	0.83079 0.53234 0.78666 0.08500
C 	C 	0.86754 0.53491 0.79866 -0.07300
C 	C 	0.87742 0.56027 0.82597 -0.02300
C 	C 	0.85058 0.58333 0.84215 -0.00300
C 	C 	0.81315 0.57755 0.83300 -0.02400
C 	C 	0.80345 0.55262 0.80511 -0.07400
H 	H 	0.86317 0.46393 0.64808 0.04200
H 	H 	0.84320 0.45281 0.78456 0.05600
H 	H 	0.87062 0.40065 0.74990 0.03200
H 	H 	0.84566 0.53045 0.63037 0.04200
H 	H 	0.80285 0.59295 0.74589 0.05700
H 	H 	0.80670 0.62814 0.68837 0.03400
H 	H 	0.92937 0.81008 0.98070 0.04300
H 	H 	0.84433 0.70519 0.95045 0.05800
H 	H 	0.82635 0.75095 0.99781 0.03400
H 	H 	0.98156 0.80772 0.93455 0.04300
H 	H 	0.96295 0.69471 0.85703 0.05900
H 	H 	0.01587 0.73609 0.84440 0.03500
H 	H 	0.88911 0.70505 0.84183 0.05400
H 	H 	0.86247 0.65083 0.81207 0.03800
H 	H 	0.86722 0.59193 0.91609 0.03800
H 	H 	0.88912 0.51994 0.78430 0.05400
H 	H 	0.90650 0.56399 0.83186 0.03800
H 	H 	0.79158 0.59407 0.84556 0.03900
H 	H 	0.77510 0.55151 0.79568 0.05300
H 	H 	0.89572 0.64659 0.94664 0.04800
Cu	Cu	0.58624 0.67345 0.17127 0.94200
Cu	Cu	0.56146 0.62778 0.12564 0.94100
O 	O 	0.61019 0.63401 0.19048 -0.42800
O 	O 	0.59280 0.59429 0.14765 -0.41300
O 	O 	0.44488 0.20613 0.35289 -0.41600
O 	O 	0.46954 0.16510 0.39056 -0.41100
O 	O 	0.68058 0.36218 0.12092 -0.44300
O 	O 	0.64399 0.40512 0.09770 -0.42400
O 	O 	0.65956 0.19914 0.54529 -0.41700
O 	O 	0.61543 0.16086 0.52779 -0.41900
N 	N 	0.67605 0.48127 0.24994 -0.15200
N 	N 	0.58879 0.28896 0.41221 -0.15300
C 	C 	0.61083 0.60153 0.17698 0.36800
C 	C 	0.46868 0.19765 0.37735 0.36600
C 	C 	0.66630 0.39433 0.12255 0.37700
C 	C 	0.63325 0.19088 0.52353 0.36800
C 	C 	0.63144 0.57193 0.19632 -0.10600
C 	C 	0.64195 0.53936 0.17738 0.01300
C 	C 	0.65847 0.51102 0.19775 -0.02800
C 	C 	0.66329 0.51349 0.23557 0.09200
C 	C 	0.65319 0.54527 0.25491 -0.09700
C 	C 	0.63779 0.57480 0.23495 0.03400
C 	C 	0.67409 0.41798 0.15481 -0.11100
C 	C 	0.66515 0.45610 0.15482 0.01600
C 	C 	0.66889 0.47564 0.18798 -0.03000
C 	C 	0.67989 0.45856 0.22031 0.09500
C 	C 	0.68914 0.42106 0.22076 -0.09700
C 	C 	0.68690 0.40110 0.18773 0.03700
C 	C 	0.62328 0.21652 0.49352 -0.10900
C 	C 	0.58951 0.21228 0.47442 0.01500
C 	C 	0.58042 0.23850 0.44779 -0.03000
C 	C 	0.60339 0.26773 0.43937 0.09500
C 	C 	0.63736 0.27209 0.45709 -0.09600
C 	C 	0.64728 0.24611 0.48415 0.03600
C 	C 	0.49677 0.22507 0.38873 -0.10500
C 	C 	0.52115 0.21723 0.41823 0.01300
C 	C 	0.55054 0.24127 0.42445 -0.02800
C 	C 	0.55639 0.27234 0.40311 0.09400
C 	C 	0.53232 0.28135 0.37432 -0.09600
C 	C 	0.50226 0.25761 0.36735 0.03400
C 	C 	0.60544 0.32066 0.39535 0.08500
C 	C 	0.61602 0.31950 0.35816 -0.07300
C 	C 	0.63170 0.35047 0.34138 -0.02500
C 	C 	0.63743 0.38325 0.36161 -0.00100
C 	C 	0.62825 0.38361 0.39948 -0.02900
C 	C 	0.61208 0.35264 0.41610 -0.06600
C 	C 	0.66921 0.46766 0.28666 0.08500
C 	C 	0.63246 0.46509 0.29866 -0.07300
C 	C 	0.62258 0.43973 0.32597 -0.02300
C 	C 	0.64942 0.41667 0.34215 -0.00300
C 	C 	0.68685 0.42245 0.33300 -0.02400
C 	C 	0.69655 0.44738 0.30511 -0.07400
H 	H 	0.63683 0.53607 0.14808 0.04200
H 	H 	0.65680 0.54719 0.28456 0.05600
H 	H 	0.62938 0.59935 0.24990 0.03200
H 	H 	0.65434 0.46955 0.13037 0.04200
H 	H 	0.69715 0.40705 0.24589 0.05700
H 	H 	0.69330 0.37186 0.18837 0.03400
H 	H 	0.57063 0.18992 0.48070 0.04300
H 	H 	0.65567 0.29481 0.45045 0.05800
H 	H 	0.67365 0.24905 0.49781 0.03400
H 	H 	0.51844 0.19228 0.43455 0.04300
H 	H 	0.53705 0.30529 0.35703 0.05900
H 	H 	0.48413 0.26391 0.34440 0.03500
H 	H 	0.61089 0.29495 0.34183 0.05400
H 	H 	0.63753 0.34917 0.31207 0.03800
H 	H 	0.63278 0.40807 0.41609 0.03800
H 	H 	0.61088 0.48006 0.28430 0.05400
H 	H 	0.59350 0.43601 0.33186 0.03800
H 	H 	0.70842 0.40593 0.34556 0.03900
H 	H 	0.72490 0.44849 0.29568 0.05300
H 	H 	0.60428 0.35341 0.44664 0.04800
Cu	Cu	0.08624 0.82655 0.82873 0.94200
Cu	Cu	0.06146 0.87222 0.87436 0.94100
O 	O 	0.11019 0.86599 0.80952 -0.42800
O 	O 	0.09280 0.90571 0.85235 -0.41300
O 	O 	0.94488 0.29387 0.64711 -0.41600
O 	O 	0.96954 0.33490 0.60944 -0.41100
O 	O 	0.18058 0.13782 0.87908 -0.44300
O 	O 	0.14399 0.09488 0.90230 -0.42400
O 	O 	0.15956 0.30086 0.45471 -0.41700
O 	O 	0.11543 0.33914 0.47221 -0.41900
N 	N 	0.17605 0.01873 0.75006 -0.15200
N 	N 	0.08879 0.21104 0.58779 -0.15300
C 	C 	0.11083 0.89847 0.82302 0.36800
C 	C 	0.96868 0.30235 0.62265 0.36600
C 	C 	0.16630 0.10567 0.87745 0.37700
C 	C 	0.13325 0.30912 0.47647 0.36800
C 	C 	0.13144 0.92807 0.80368 -0.10600
C 	C 	0.14195 0.96064 0.82262 0.01300
C 	C 	0.15847 0.98898 0.80225 -0.02800
C 	C 	0.16329 0.98651 0.76443 0.09200
C 	C 	0.15319 0.95473 0.74509 -0.09700
C 	C 	0.13779 0.92520 0.76505 0.03400
C 	C 	0.17409 0.08202 0.84519 -0.11100
C 	C 	0.16515 0.04390 0.84518 0.01600
C 	C 	0.16889 0.02436 0.81202 -0.03000
C 	C 	0.17989 0.04144 0.77969 0.09500
C 	C 	0.18914 0.07894 0.77924 -0.09700
C 	C 	0.18690 0.09890 0.81227 0.03700
C 	C 	0.12328 0.28348 0.50648 -0.10900
C 	C 	0.08951 0.28772 0.52558 0.01500
C 	C 	0.08042 0.26150 0.55221 -0.03000
C 	C 	0.10339 0.23227 0.56063 0.09500
C 	C 	0.13736 0.22791 0.54291 -0.09600
C 	C 	0.14728 0.25389 0.51585 0.03600
C 	C 	0.99677 0.27493 0.61127 -0.10500
C 	C 	0.02115 0.28277 0.58177 0.01300
C 	C 	0.05054 0.25873 0.57555 -0.02800
C 	C 	0.05639 0.22766 0.59689 0.09400
C 	C 	0.03232 0.21865 0.62568 -0.09600
C 	C 	0.00226 0.24239 0.63265 0.03400
C 	C 	0.10544 0.17934 0.60465 0.08500
C 	C 	0.11602 0.18050 0.64184 -0.07300
C 	C 	0.13170 0.14953 0.65862 -0.02500
C 	C 	0.13743 0.11675 0.63839 -0.00100
C 	C 	0.12825 0.11639 0.60052 -0.02900
C 	C 	0.11208 0.14736 0.58390 -0.06600
C 	C 	0.16921 0.03234 0.71334 0.08500
C 	C 	0.13246 0.03491 0.70134 -0.07300
C 	C 	0.12258 0.06027 0.67403 -0.02300
C 	C 	0.14942 0.08333 0.65785 -0.00300
C 	C 	0.18685 0.07755 0.66700 -0.02400
C 	C 	0.19655 0.05262 0.69489 -0.07400
H 	H 	0.13683 0.96393 0.85192 0.04200
H 	H 	0.15680 0.95281 0.71544 0.05600
H 	H 	0.12938 0.90065 0.75010 0.03200
H 	H 	0.15434 0.03045 0.86963 0.04200
H 	H 	0.19715 0.09295 0.75411 0.05700
H 	H 	0.19330 0.12814 0.81163 0.03400
H 	H 	0.07063 0.31008 0.51930 0.04300
H 	H 	0.15567 0.20519 0.54955 0.05800
H 	H 	0.17365 0.25095 0.50219 0.03400
H 	H 	0.01844 0.30772 0.56545 0.04300
H 	H 	0.03705 0.19471 0.64297 0.05900
H 	H 	0.98413 0.23609 0.65560 0.03500
H 	H 	0.11089 0.20505 0.65817 0.05400
H 	H 	0.13753 0.15083 0.68793 0.03800
H 	H 	0.13278 0.09193 0.58391 0.03800
H 	H 	0.11088 0.01994 0.71570 0.05400
H 	H 	0.09350 0.06399 0.66814 0.03800
H 	H 	0.20842 0.09407 0.65444 0.03900
H 	H 	0.22490 0.05151 0.70432 0.05300
H 	H 	0.10428 0.14659 0.55336 0.04800
Cu	Cu	0.41376 0.17345 0.32873 0.94200
Cu	Cu	0.43854 0.12778 0.37436 0.94100
O 	O 	0.38981 0.13401 0.30952 -0.42800
O 	O 	0.40720 0.09429 0.35235 -0.41300
O 	O 	0.55512 0.70613 0.14711 -0.41600
O 	O 	0.53046 0.66510 0.10944 -0.41100
O 	O 	0.31942 0.86218 0.37908 -0.44300
O 	O 	0.35601 0.90512 0.40230 -0.42400
O 	O 	0.34044 0.69914 0.95471 -0.41700
O 	O 	0.38457 0.66086 0.97221 -0.41900
N 	N 	0.32395 0.98127 0.25006 -0.15200
N 	N 	0.41121 0.78896 0.08779 -0.15300
C 	C 	0.38917 0.10153 0.32302 0.36800
C 	C 	0.53132 0.69765 0.12265 0.36600
C 	C 	0.33370 0.89433 0.37745 0.37700
C 	C 	0.36675 0.69088 0.97647 0.36800
C 	C 	0.36856 0.07193 0.30368 -0.10600
C 	C 	0.35805 0.03936 0.32262 0.01300
C 	C 	0.34153 0.01102 0.30225 -0.02800
C 	C 	0.33671 0.01349 0.26443 0.09200
C 	C 	0.34681 0.04527 0.24509 -0.09700
C 	C 	0.36221 0.07480 0.26505 0.03400
C 	C 	0.32591 0.91798 0.34519 -0.11100
C 	C 	0.33485 0.95610 0.34518 0.01600
C 	C 	0.33111 0.97564 0.31202 -0.03000
C 	C 	0.32011 0.95856 0.27969 0.09500
C 	C 	0.31086 0.92106 0.27924 -0.09700
C 	C 	0.31310 0.90110 0.31227 0.03700
C 	C 	0.37672 0.71652 0.00648 -0.10900
C 	C 	0.41049 0.71228 0.02558 0.01500
C 	C 	0.41958 0.73850 0.05221 -0.03000
C 	C 	0.39661 0.76773 0.06063 0.09500
C 	C 	0.36264 0.77209 0.04291 -0.09600
C 	C 	0.35272 0.74611 0.01585 0.03600
C 	C 	0.50323 0.72507 0.11127 -0.10500
C 	C 	0.47885 0.71723 0.08177 0.01300
C 	C 	0.44946 0.74127 0.07555 -0.02800
C 	C 	0.44361 0.77234 0.09689 0.09400
C 	C 	0.46768 0.78135 0.12568 -0.09600
C 	C 	0.49774 0.75761 0.13265 0.03400
C 	C 	0.39456 0.82066 0.10465 0.08500
C 	C 	0.38398 0.81950 0.14184 -0.07300
C 	C 	0.36830 0.85047 0.15862 -0.02500
C 	C 	0.36257 0.88325 0.13839 -0.00100
C 	C 	0.37175 0.88361 0.10052 -0.02900
C 	C 	0.38792 0.85264 0.08390 -0.06600
C 	C 	0.33079 0.96766 0.21334 0.08500
C 	C 	0.36754 0.96509 0.20134 -0.07300
C 	C 	0.37742 0.93973 0.17403 -0.02300
C 	C 	0.35058 0.91667 0.15785 -0.00300
C 	C 	0.31315 0.92245 0.16700 -0.02400
C 	C 	0.30345 0.94738 0.19489 -0.07400
H 	H 	0.36317 0.03607 0.35192 0.04200
H 	H 	0.34320 0.04719 0.21544 0.05600
H 	H 	0.37062 0.09935 0.25010 0.03200
H 	H 	0.34566 0.96955 0.36963 0.04200
H 	H 	0.30285 0.90705 0.25411 0.05700
H 	H 	0.30670 0.87186 0.31163 0.03400
H 	H 	0.42937 0.68992 0.01930 0.04300
H 	H 	0.34433 0.79481 0.04955 0.05800
H 	H 	0.32635 0.74905 0.00219 0.03400
H 	H 	0.48156 0.69228 0.06545 0.04300
H 	H 	0.46295 0.80529 0.14297 0.05900
H 	H 	0.51587 0.76391 0.15560 0.03500
H 	H 	0.38911 0.79495 0.15817 0.05400
H 	H 	0.36247 0.84917 0.18793 0.03800
H 	H 	0.36722 0.90807 0.08391 0.03800
H 	H 	0.38912 0.98006 0.21570 0.05400
H 	H 	0.40650 0.93601 0.16814 0.03800
H 	H 	0.29158 0.90593 0.15444 0.03900
H 	H 	0.27510 0.94849 0.20432 0.05300
H 	H 	0.39572 0.85341 0.05336 0.04800
Cu	Cu	0.67127 0.91376 0.32655 0.94200
Cu	Cu	0.62564 0.93854 0.37222 0.94100
O 	O 	0.69048 0.88981 0.36599 -0.42800
O 	O 	0.64765 0.90720 0.40571 -0.41300
O 	O 	0.85289 0.05512 0.79387 -0.41600
O 	O 	0.89056 0.03046 0.83490 -0.41100
O 	O 	0.62092 0.81942 0.63782 -0.44300
O 	O 	0.59770 0.85601 0.59488 -0.42400
O 	O 	0.04529 0.84044 0.80086 -0.41700
O 	O 	0.02779 0.88457 0.83914 -0.41900
N 	N 	0.74994 0.82395 0.51873 -0.15200
N 	N 	0.91221 0.91121 0.71104 -0.15300
C 	C 	0.67698 0.88917 0.39847 0.36800
C 	C 	0.87735 0.03132 0.80235 0.36500
C 	C 	0.62255 0.83370 0.60567 0.37700
C 	C 	0.02353 0.86675 0.80912 0.36900
C 	C 	0.69632 0.86856 0.42807 -0.10600
C 	C 	0.67738 0.85805 0.46064 0.01300
C 	C 	0.69775 0.84153 0.48898 -0.02800
C 	C 	0.73557 0.83671 0.48651 0.09200
C 	C 	0.75491 0.84681 0.45473 -0.09700
C 	C 	0.73495 0.86221 0.42520 0.03400
C 	C 	0.65481 0.82591 0.58202 -0.11100
C 	C 	0.65482 0.83485 0.54390 0.01600
C 	C 	0.68798 0.83111 0.52436 -0.03000
C 	C 	0.72031 0.82011 0.54144 0.09500
C 	C 	0.72076 0.81086 0.57894 -0.09700
C 	C 	0.68773 0.81310 0.59890 0.03700
C 	C 	0.99352 0.87672 0.78348 -0.10900
C 	C 	0.97442 0.91049 0.78772 0.01500
C 	C 	0.94779 0.91958 0.76150 -0.03000
C 	C 	0.93937 0.89661 0.73227 0.09500
C 	C 	0.95709 0.86264 0.72791 -0.09600
C 	C 	0.98415 0.85272 0.75389 0.03600
C 	C 	0.88873 0.00323 0.77493 -0.10500
C 	C 	0.91823 0.97885 0.78277 0.01300
C 	C 	0.92445 0.94946 0.75873 -0.02800
C 	C 	0.90311 0.94361 0.72766 0.09400
C 	C 	0.87432 0.96768 0.71865 -0.09600
C 	C 	0.86735 0.99774 0.74239 0.03400
C 	C 	0.89535 0.89456 0.67934 0.08500
C 	C 	0.85816 0.88398 0.68050 -0.07300
C 	C 	0.84138 0.86830 0.64953 -0.02500
C 	C 	0.86161 0.86257 0.61675 -0.00100
C 	C 	0.89948 0.87175 0.61639 -0.02900
C 	C 	0.91610 0.88792 0.64736 -0.06600
C 	C 	0.78666 0.83079 0.53234 0.08500
C 	C 	0.79866 0.86754 0.53491 -0.07300
C 	C 	0.82597 0.87742 0.56027 -0.02300
C 	C 	0.84215 0.85058 0.58333 -0.00300
C 	C 	0.83300 0.81315 0.57755 -0.02400
C 	C 	0.80511 0.80345 0.55262 -0.07400
H 	H 	0.64808 0.86317 0.46393 0.04200
H 	H 	0.78456 0.84320 0.45281 0.05600
H 	H 	0.74990 0.87062 0.40065 0.03200
H 	H 	0.63037 0.84566 0.53045 0.04200
H 	H 	0.74589 0.80285 0.59295 0.05700
H 	H 	0.68837 0.80670 0.62814 0.03400
H 	H 	0.98070 0.92937 0.81008 0.04300
H 	H 	0.95045 0.84433 0.70519 0.05800
H 	H 	0.99781 0.82635 0.75095 0.03400
H 	H 	0.93455 0.98156 0.80772 0.04300
H 	H 	0.85703 0.96295 0.69471 0.05900
H 	H 	0.84440 0.01587 0.73609 0.03500
H 	H 	0.84183 0.88911 0.70505 0.05400
H 	H 	0.81207 0.86247 0.65083 0.03800
H 	H 	0.91609 0.86722 0.59193 0.03800
H 	H 	0.78430 0.88912 0.51994 0.05400
H 	H 	0.83186 0.90650 0.56399 0.03800
H 	H 	0.84556 0.79158 0.59407 0.03900
H 	H 	0.79568 0.77510 0.55151 0.05300
H 	H 	0.94664 0.89572 0.64659 0.04800
Cu	Cu	0.17127 0.58624 0.67345 0.94200
Cu	Cu	0.12564 0.56146 0.62778 0.94100
O 	O 	0.19048 0.61019 0.63401 -0.42800
O 	O 	0.14765 0.59280 0.59429 -0.41300
O 	O 	0.35289 0.44488 0.20613 -0.41600
O 	O 	0.39056 0.46954 0.16510 -0.41100
O 	O 	0.12092 0.68058 0.36218 -0.44300
O 	O 	0.09770 0.64399 0.40512 -0.42400
O 	O 	0.54529 0.65956 0.19914 -0.41700
O 	O 	0.52779 0.61543 0.16086 -0.41900
N 	N 	0.24994 0.67605 0.48127 -0.15200
N 	N 	0.41221 0.58879 0.28896 -0.15300
C 	C 	0.17698 0.61083 0.60153 0.36800
C 	C 	0.37735 0.46868 0.19765 0.36600
C 	C 	0.12255 0.66630 0.39433 0.37700
C 	C 	0.52353 0.63325 0.19088 0.36800
C 	C 	0.19632 0.63144 0.57193 -0.10600
C 	C 	0.17738 0.64195 0.53936 0.01300
C 	C 	0.19775 0.65847 0.51102 -0.02800
C 	C 	0.23557 0.66329 0.51349 0.09200
C 	C 	0.25491 0.65319 0.54527 -0.09700
C 	C 	0.23495 0.63779 0.57480 0.03400
C 	C 	0.15481 0.67409 0.41798 -0.11100
C 	C 	0.15482 0.66515 0.45610 0.01600
C 	C 	0.18798 0.66889 0.47564 -0.03000
C 	C 	0.22031 0.67989 0.45856 0.09500
C 	C 	0.22076 0.68914 0.42106 -0.09700
C 	C 	0.18773 0.68690 0.40110 0.03700
C 	C 	0.49352 0.62328 0.21652 -0.10900
C 	C 	0.47442 0.58951 0.21228 0.01500
C 	C 	0.44779 0.58042 0.23850 -0.03000
C 	C 	0.43937 0.60339 0.26773 0.09500
C 	C 	0.45709 0.63736 0.27209 -0.09600
C 	C 	0.48415 0.64728 0.24611 0.03600
C 	C 	0.38873 0.49677 0.22507 -0.10500
C 	C 	0.41823 0.52115 0.21723 0.01300
C 	C 	0.42445 0.55054 0.24127 -0.02800
C 	C 	0.40311 0.55639 0.27234 0.09400
C 	C 	0.37432 0.53232 0.28135 -0.09600
C 	C 	0.36735 0.50226 0.25761 0.03400
C 	C 	0.39535 0.60544 0.32066 0.08500
C 	C 	0.35816 0.61602 0.31950 -0.07300
C 	C 	0.34138 0.63170 0.35047 -0.02500
C 	C 	0.36161 0.63743 0.38325 -0.00100
C 	C 	0.39948 0.62825 0.38361 -0.02900
C 	C 	0.41610 0.61208 0.35264 -0.06600
C 	C 	0.28666 0.66921 0.46766 0.08500
C 	C 	0.29866 0.63246 0.46509 -0.07300
C 	C 	0.32597 0.62258 0.43973 -0.02300
C 	C 	0.34215 0.64942 0.41667 -0.00300
C 	C 	0.33300 0.68685 0.42245 -0.02400
C 	C 	0.30511 0.69655 0.44738 -0.07400
H 	H 	0.14808 0.63683 0.53607 0.04200
H 	H 	0.28456 0.65680 0.54719 0.05600
H 	H 	0.24990 0.62938 0.59935 0.03200
H 	H 	0.13037 0.65434 0.46955 0.04200
H 	H 	0.24589 0.69715 0.40705 0.05700
H 	H 	0.18837 0.69330 0.37186 0.03400
H 	H 	0.48070 0.57063 0.18992 0.04300
H 	H 	0.45045 0.65567 0.29481 0.05800
H 	H 	0.49781 0.67365 0.24905 0.03400
H 	H 	0.43455 0.51844 0.19228 0.04300
H 	H 	0.35703 0.53705 0.30529 0.05900
H 	H 	0.34440 0.48413 0.26391 0.03500
H 	H 	0.34183 0.61089 0.29495 0.05400
H 	H 	0.31207 0.63753 0.34917 0.03800
H 	H 	0.41609 0.63278 0.40807 0.03800
H 	H 	0.28430 0.61088 0.48006 0.05400
H 	H 	0.33186 0.59350 0.43601 0.03800
H 	H 	0.34556 0.70842 0.40593 0.03900
H 	H 	0.29568 0.72490 0.44849 0.05300
H 	H 	0.44664 0.60428 0.35341 0.04800
Cu	Cu	0.82873 0.08624 0.82655 0.94200
Cu	Cu	0.87436 0.06146 0.87222 0.94100
O 	O 	0.80952 0.11019 0.86599 -0.42800
O 	O 	0.85235 0.09280 0.90571 -0.41300
O 	O 	0.64711 0.94488 0.29387 -0.41600
O 	O 	0.60944 0.96954 0.33490 -0.41100
O 	O 	0.87908 0.18058 0.13782 -0.44300
O 	O 	0.90230 0.14399 0.09488 -0.42400
O 	O 	0.45471 0.15956 0.30086 -0.41700
O 	O 	0.47221 0.11543 0.33914 -0.41900
N 	N 	0.75006 0.17605 0.01873 -0.15200
N 	N 	0.58779 0.08879 0.21104 -0.15300
C 	C 	0.82302 0.11083 0.89847 0.36800
C 	C 	0.62265 0.96868 0.30235 0.36600
C 	C 	0.87745 0.16630 0.10567 0.37700
C 	C 	0.47647 0.13325 0.30912 0.36800
C 	C 	0.80368 0.13144 0.92807 -0.10600
C 	C 	0.82262 0.14195 0.96064 0.01300
C 	C 	0.80225 0.15847 0.98898 -0.02800
C 	C 	0.76443 0.16329 0.98651 0.09200
C 	C 	0.74509 0.15319 0.95473 -0.09700
C 	C 	0.76505 0.13779 0.92520 0.03400
C 	C 	0.84519 0.17409 0.08202 -0.11100
C 	C 	0.84518 0.16515 0.04390 0.01600
C 	C 	0.81202 0.16889 0.02436 -0.03000
C 	C 	0.77969 0.17989 0.04144 0.09500
C 	C 	0.77924 0.18914 0.07894 -0.09700
C 	C 	0.81227 0.18690 0.09890 0.03700
C 	C 	0.50648 0.12328 0.28348 -0.10900
C 	C 	0.52558 0.08951 0.28772 0.01500
C 	C 	0.55221 0.08042 0.26150 -0.03000
C 	C 	0.56063 0.10339 0.23227 0.09500
C 	C 	0.54291 0.13736 0.22791 -0.09600
C 	C 	0.51585 0.14728 0.25389 0.03600
C 	C 	0.61127 0.99677 0.27493 -0.10500
C 	C 	0.58177 0.02115 0.28277 0.01300
C 	C 	0.57555 0.05054 0.25873 -0.02800
C 	C 	0.59689 0.05639 0.22766 0.09400
C 	C 	0.62568 0.03232 0.21865 -0.09600
C 	C 	0.63265 0.00226 0.24239 0.03400
C 	C 	0.60465 0.10544 0.17934 0.08500
C 	C 	0.64184 0.11602 0.18050 -0.07300
C 	C 	0.65862 0.13170 0.14953 -0.02500
C 	C 	0.63839 0.13743 0.11675 -0.00100
C 	C 	0.60052 0.12825 0.11639 -0.02900
C 	C 	0.58390 0.11208 0.14736 -0.06600
C 	C 	0.71334 0.16921 0.03234 0.08500
C 	C 	0.70134 0.13246 0.03491 -0.07300
C 	C 	0.67403 0.12258 0.06027 -0.02300
C 	C 	0.65785 0.14942 0.08333 -0.00300
C 	C 	0.66700 0.18685 0.07755 -0.02400
C 	C 	0.69489 0.19655 0.05262 -0.07400
H 	H 	0.85192 0.13683 0.96393 0.04200
H 	H 	0.71544 0.15680 0.95281 0.05600
H 	H 	0.75010 0.12938 0.90065 0.03200
H 	H 	0.86963 0.15434 0.03045 0.04200
H 	H 	0.75411 0.19715 0.09295 0.05700
H 	H 	0.81163 0.19330 0.12814 0.03400
H 	H 	0.51930 0.07063 0.31008 0.04300
H 	H 	0.54955 0.15567 0.20519 0.05800
H 	H 	0.50219 0.17365 0.25095 0.03400
H 	H 	0.56545 0.01844 0.30772 0.04300
H 	H 	0.64297 0.03705 0.19471 0.05900
H 	H 	0.65560 0.98413 0.23609 0.03500
H 	H 	0.65817 0.11089 0.20505 0.05400
H 	H 	0.68793 0.13753 0.15083 0.03800
H 	H 	0.58391 0.13278 0.09193 0.03800
H 	H 	0.71570 0.11088 0.01994 0.05400
H 	H 	0.66814 0.09350 0.06399 0.03800
H 	H 	0.65444 0.20842 0.09407 0.03900
H 	H 	0.70432 0.22490 0.05151 0.05300
H 	H 	0.55336 0.10428 0.14659 0.04800
Cu	Cu	0.32873 0.41376 0.17345 0.94200
Cu	Cu	0.37436 0.43854 0.12778 0.94100
O 	O 	0.30952 0.38981 0.13401 -0.42800
O 	O 	0.35235 0.40720 0.09429 -0.41300
O 	O 	0.14711 0.55512 0.70613 -0.41600
O 	O 	0.10944 0.53046 0.66510 -0.41100
O 	O 	0.37908 0.31942 0.86218 -0.44300
O 	O 	0.40230 0.35601 0.90512 -0.42400
O 	O 	0.95471 0.34044 0.69914 -0.41700
O 	O 	0.97221 0.38457 0.66086 -0.41900
N 	N 	0.25006 0.32395 0.98127 -0.15200
N 	N 	0.08779 0.41121 0.78896 -0.15300
C 	C 	0.32302 0.38917 0.10153 0.36800
C 	C 	0.12265 0.53132 0.69765 0.36600
C 	C 	0.37745 0.33370 0.89433 0.37700
C 	C 	0.97647 0.36675 0.69088 0.36800
C 	C 	0.30368 0.36856 0.07193 -0.10600
C 	C 	0.32262 0.35805 0.03936 0.01300
C 	C 	0.30225 0.34153 0.01102 -0.02800
C 	C 	0.26443 0.33671 0.01349 0.09200
C 	C 	0.24509 0.34681 0.04527 -0.09700
C 	C 	0.26505 0.36221 0.07480 0.03400
C 	C 	0.34519 0.32591 0.91798 -0.11100
C 	C 	0.34518 0.33485 0.95610 0.01600
C 	C 	0.31202 0.33111 0.97564 -0.03000
C 	C 	0.27969 0.32011 0.95856 0.09500
C 	C 	0.27924 0.31086 0.92106 -0.09700
C 	C 	0.31227 0.31310 0.90110 0.03700
C 	C 	0.00648 0.37672 0.71652 -0.10900
C 	C 	0.02558 0.41049 0.71228 0.01500
C 	C 	0.05221 0.41958 0.73850 -0.03000
C 	C 	0.06063 0.39661 0.76773 0.09500
C 	C 	0.04291 0.36264 0.77209 -0.09600
C 	C 	0.01585 0.35272 0.74611 0.03600
C 	C 	0.11127 0.50323 0.72507 -0.10500
C 	C 	0.08177 0.47885 0.71723 0.01300
C 	C 	0.07555 0.44946 0.74127 -0.02800
C 	C 	0.09689 0.44361 0.77234 0.09400
C 	C 	0.12568 0.46768 0.78135 -0.09600
C 	C 	0.13265 0.49774 0.75761 0.03400
C 	C 	0.10465 0.39456 0.82066 0.08500
C 	C 	0.14184 0.38398 0.81950 -0.07300
C 	C 	0.15862 0.36830 0.85047 -0.02500
C 	C 	0.13839 0.36257 0.88325 -0.00100
C 	C 	0.10052 0.37175 0.88361 -0.02900
C 	C 	0.08390 0.38792 0.85264 -0.06600
C 	C 	0.21334 0.33079 0.96766 0.08500
C 	C 	0.20134 0.36754 0.96509 -0.07300
C 	C 	0.17403 0.37742 0.93973 -0.02300
C 	C 	0.15785 0.35058 0.91667 -0.00300
C 	C 	0.16700 0.31315 0.92245 -0.02400
C 	C 	0.19489 0.30345 0.94738 -0.07400
H 	H 	0.35192 0.36317 0.03607 0.04200
H 	H 	0.21544 0.34320 0.04719 0.05600
H 	H 	0.25010 0.37062 0.09935 0.03200
H 	H 	0.36963 0.34566 0.96955 0.04200
H 	H 	0.25411 0.30285 0.90705 0.05700
H 	H 	0.31163 0.30670 0.87186 0.03400
H 	H 	0.01930 0.42937 0.68992 0.04300
H 	H 	0.04955 0.34433 0.79481 0.05800
H 	H 	0.00219 0.32635 0.74905 0.03400
H 	H 	0.06545 0.48156 0.69228 0.04300
H 	H 	0.14297 0.46295 0.80529 0.05900
H 	H 	0.15560 0.51587 0.76391 0.03500
H 	H 	0.15817 0.38911 0.79495 0.05400
H 	H 	0.18793 0.36247 0.84917 0.03800
H 	H 	0.08391 0.36722 0.90807 0.03800
H 	H 	0.21570 0.38912 0.98006 0.05400
H 	H 	0.16814 0.40650 0.93601 0.03800
H 	H 	0.15444 0.29158 0.90593 0.03900
H 	H 	0.20432 0.27510 0.94849 0.05300
H 	H 	0.05336 0.39572 0.85341 0.04800
Cu	Cu	0.32655 0.67127 0.91376 0.94200
Cu	Cu	0.37222 0.62564 0.93854 0.94100
O 	O 	0.36599 0.69048 0.88981 -0.42800
O 	O 	0.40571 0.64765 0.90720 -0.41300
O 	O 	0.79387 0.85289 0.05512 -0.41600
O 	O 	0.83490 0.89056 0.03046 -0.41100
O 	O 	0.63782 0.62092 0.81942 -0.44300
O 	O 	0.59488 0.59770 0.85601 -0.42400
O 	O 	0.80086 0.04529 0.84044 -0.41700
O 	O 	0.83914 0.02779 0.88457 -0.41900
N 	N 	0.51873 0.74994 0.82395 -0.15200
N 	N 	0.71104 0.91221 0.91121 -0.15300
C 	C 	0.39847 0.67698 0.88917 0.36800
C 	C 	0.80235 0.87735 0.03132 0.36500
C 	C 	0.60567 0.62255 0.83370 0.37700
C 	C 	0.80912 0.02353 0.86675 0.36900
C 	C 	0.42807 0.69632 0.86856 -0.10600
C 	C 	0.46064 0.67738 0.85805 0.01300
C 	C 	0.48898 0.69775 0.84153 -0.02800
C 	C 	0.48651 0.73557 0.83671 0.09200
C 	C 	0.45473 0.75491 0.84681 -0.09700
C 	C 	0.42520 0.73495 0.86221 0.03400
C 	C 	0.58202 0.65481 0.82591 -0.11100
C 	C 	0.54390 0.65482 0.83485 0.01600
C 	C 	0.52436 0.68798 0.83111 -0.03000
C 	C 	0.54144 0.72031 0.82011 0.09500
C 	C 	0.57894 0.72076 0.81086 -0.09700
C 	C 	0.59890 0.68773 0.81310 0.03700
C 	C 	0.78348 0.99352 0.87672 -0.10900
C 	C 	0.78772 0.97442 0.91049 0.01500
C 	C 	0.76150 0.94779 0.91958 -0.03000
C 	C 	0.73227 0.93937 0.89661 0.09500
C 	C 	0.72791 0.95709 0.86264 -0.09600
C 	C 	0.75389 0.98415 0.85272 0.03600
C 	C 	0.77493 0.88873 0.00323 -0.10500
C 	C 	0.78277 0.91823 0.97885 0.01300
C 	C 	0.75873 0.92445 0.94946 -0.02800
C 	C 	0.72766 0.90311 0.94361 0.09400
C 	C 	0.71865 0.87432 0.96768 -0.09600
C 	C 	0.74239 0.86735 0.99774 0.03400
C 	C 	0.67934 0.89535 0.89456 0.08500
C 	C 	0.68050 0.85816 0.88398 -0.07300
C 	C 	0.64953 0.84138 0.86830 -0.02500
C 	C 	0.61675 0.86161 0.86257 -0.00100
C 	C 	0.61639 0.89948 0.87175 -0.02900
C 	C 	0.64736 0.91610 0.88792 -0.06600
C 	C 	0.53234 0.78666 0.83079 0.08500
C 	C 	0.53491 0.79866 0.86754 -0.07300
C 	C 	0.56027 0.82597 0.87742 -0.02300
C 	C 	0.58333 0.84215 0.85058 -0.00300
C 	C 	0.57755 0.83300 0.81315 -0.02400
C 	C 	0.55262 0.80511 0.80345 -0.07400
H 	H 	0.46393 0.64808 0.86317 0.04200
H 	H 	0.45281 0.78456 0.84320 0.05600
H 	H 	0.40065 0.74990 0.87062 0.03200
H 	H 	0.53045 0.63037 0.84566 0.04200
H 	H 	0.59295 0.74589 0.80285 0.05700
H 	H 	0.62814 0.68837 0.80670 0.03400
H 	H 	0.81008 0.98070 0.92937 0.04300
H 	H 	0.70519 0.95045 0.84433 0.05800
H 	H 	0.75095 0.99781 0.82635 0.03400
H 	H 	0.80772 0.93455 0.98156 0.04300
H 	H 	0.69471 0.85703 0.96295 0.05900
H 	H 	0.73609 0.84440 0.01587 0.03500
H 	H 	0.70505 0.84183 0.88911 0.05400
H 	H 	0.65083 0.81207 0.86247 0.03800
H 	H 	0.59193 0.91609 0.86722 0.03800
H 	H 	0.51994 0.78430 0.88912 0.05400
H 	H 	0.56399 0.83186 0.90650 0.03800
H 	H 	0.59407 0.84556 0.79158 0.03900
H 	H 	0.55151 0.79568 0.77510 0.05300
H 	H 	0.64659 0.94664 0.89572 0.04800
Cu	Cu	0.67345 0.17127 0.58624 0.94200
Cu	Cu	0.62778 0.12564 0.56146 0.94100
O 	O 	0.63401 0.19048 0.61019 -0.42800
O 	O 	0.59429 0.14765 0.59280 -0.41300
O 	O 	0.20613 0.35289 0.44488 -0.41600
O 	O 	0.16510 0.39056 0.46954 -0.41100
O 	O 	0.36218 0.12092 0.68058 -0.44300
O 	O 	0.40512 0.09770 0.64399 -0.42400
O 	O 	0.19914 0.54529 0.65956 -0.41700
O 	O 	0.16086 0.52779 0.61543 -0.41900
N 	N 	0.48127 0.24994 0.67605 -0.15200
N 	N 	0.28896 0.41221 0.58879 -0.15300
C 	C 	0.60153 0.17698 0.61083 0.36800
C 	C 	0.19765 0.37735 0.46868 0.36600
C 	C 	0.39433 0.12255 0.66630 0.37700
C 	C 	0.19088 0.52353 0.63325 0.36800
C 	C 	0.57193 0.19632 0.63144 -0.10600
C 	C 	0.53936 0.17738 0.64195 0.01300
C 	C 	0.51102 0.19775 0.65847 -0.02800
C 	C 	0.51349 0.23557 0.66329 0.09200
C 	C 	0.54527 0.25491 0.65319 -0.09700
C 	C 	0.57480 0.23495 0.63779 0.03400
C 	C 	0.41798 0.15481 0.67409 -0.11100
C 	C 	0.45610 0.15482 0.66515 0.01600
C 	C 	0.47564 0.18798 0.66889 -0.03000
C 	C 	0.45856 0.22031 0.67989 0.09500
C 	C 	0.42106 0.22076 0.68914 -0.09700
C 	C 	0.40110 0.18773 0.68690 0.03700
C 	C 	0.21652 0.49352 0.62328 -0.10900
C 	C 	0.21228 0.47442 0.58951 0.01500
C 	C 	0.23850 0.44779 0.58042 -0.03000
C 	C 	0.26773 0.43937 0.60339 0.09500
C 	C 	0.27209 0.45709 0.63736 -0.09600
C 	C 	0.24611 0.48415 0.64728 0.03600
C 	C 	0.22507 0.38873 0.49677 -0.10500
C 	C 	0.21723 0.41823 0.52115 0.01300
C 	C 	0.24127 0.42445 0.55054 -0.02800
C 	C 	0.27234 0.40311 0.55639 0.09400
C 	C 	0.28135 0.37432 0.53232 -0.09600
C 	C 	0.25761 0.36735 0.50226 0.03400
C 	C 	0.32066 0.39535 0.60544 0.08500
C 	C 	0.31950 0.35816 0.61602 -0.07300
C 	C 	0.35047 0.34138 0.63170 -0.02500
C 	C 	0.38325 0.36161 0.63743 -0.00100
C 	C 	0.38361 0.39948 0.62825 -0.02900
C 	C 	0.35264 0.41610 0.61208 -0.06600
C 	C 	0.46766 0.28666 0.66921 0.08500
C 	C 	0.46509 0.29866 0.63246 -0.07300
C 	C 	0.43973 0.32597 0.62258 -0.02300
C 	C 	0.41667 0.34215 0.64942 -0.00300
C 	C 	0.42245 0.33300 0.68685 -0.02400
C 	C 	0.44738 0.30511 0.69655 -0.07400
H 	H 	0.53607 0.14808 0.63683 0.04200
H 	H 	0.54719 0.28456 0.65680 0.05600
H 	H 	0.59935 0.24990 0.62938 0.03200
H 	H 	0.46955 0.13037 0.65434 0.04200
H 	H 	0.40705 0.24589 0.69715 0.05700
H 	H 	0.37186 0.18837 0.69330 0.03400
H 	H 	0.18992 0.48070 0.57063 0.04300
H 	H 	0.29481 0.45045 0.65567 0.05800
H 	H 	0.24905 0.49781 0.67365 0.03400
H 	H 	0.19228 0.43455 0.51844 0.04300
H 	H 	0.30529 0.35703 0.53705 0.05900
H 	H 	0.26391 0.34440 0.48413 0.03500
H 	H 	0.29495 0.34183 0.61089 0.05400
H 	H 	0.34917 0.31207 0.63753 0.03800
H 	H 	0.40807 0.41609 0.63278 0.03800
H 	H 	0.48006 0.28430 0.61088 0.05400
H 	H 	0.43601 0.33186 0.59350 0.03800
H 	H 	0.40593 0.34556 0.70842 0.03900
H 	H 	0.44849 0.29568 0.72490 0.05300
H 	H 	0.35341 0.44664 0.60428 0.04800
Cu	Cu	0.82655 0.82873 0.08624 0.94200
Cu	Cu	0.87222 0.87436 0.06146 0.94100
O 	O 	0.86599 0.80952 0.11019 -0.42800
O 	O 	0.90571 0.85235 0.09280 -0.41300
O 	O 	0.29387 0.64711 0.94488 -0.41600
O 	O 	0.33490 0.60944 0.96954 -0.41100
O 	O 	0.13782 0.87908 0.18058 -0.44300
O 	O 	0.09488 0.90230 0.14399 -0.42400
O 	O 	0.30086 0.45471 0.15956 -0.41700
O 	O 	0.33914 0.47221 0.11543 -0.41900
N 	N 	0.01873 0.75006 0.17605 -0.15200
N 	N 	0.21104 0.58779 0.08879 -0.15300
C 	C 	0.89847 0.82302 0.11083 0.36800
C 	C 	0.30235 0.62265 0.96868 0.36600
C 	C 	0.10567 0.87745 0.16630 0.37700
C 	C 	0.30912 0.47647 0.13325 0.36800
C 	C 	0.92807 0.80368 0.13144 -0.10600
C 	C 	0.96064 0.82262 0.14195 0.01300
C 	C 	0.98898 0.80225 0.15847 -0.02800
C 	C 	0.98651 0.76443 0.16329 0.09200
C 	C 	0.95473 0.74509 0.15319 -0.09700
C 	C 	0.92520 0.76505 0.13779 0.03400
C 	C 	0.08202 0.84519 0.17409 -0.11100
C 	C 	0.04390 0.84518 0.16515 0.01600
C 	C 	0.02436 0.81202 0.16889 -0.03000
C 	C 	0.04144 0.77969 0.17989 0.09500
C 	C 	0.07894 0.77924 0.18914 -0.09700
C 	C 	0.09890 0.81227 0.18690 0.03700
C 	C 	0.28348 0.50648 0.12328 -0.10900
C 	C 	0.28772 0.52558 0.08951 0.01500
C 	C 	0.26150 0.55221 0.08042 -0.03000
C 	C 	0.23227 0.56063 0.10339 0.09500
C 	C 	0.22791 0.54291 0.13736 -0.09600
C 	C 	0.25389 0.51585 0.14728 0.03600
C 	C 	0.27493 0.61127 0.99677 -0.10500
C 	C 	0.28277 0.58177 0.02115 0.01300
C 	C 	0.25873 0.57555 0.05054 -0.02800
C 	C 	0.22766 0.59689 0.05639 0.09400
C 	C 	0.21865 0.62568 0.03232 -0.09600
C 	C 	0.24239 0.63265 0.00226 0.03400
C 	C 	0.17934 0.60465 0.10544 0.08500
C 	C 	0.18050 0.64184 0.11602 -0.07300
C 	C 	0.14953 0.65862 0.13170 -0.02500
C 	C 	0.11675 0.63839 0.13743 -0.00100
C 	C 	0.11639 0.60052 0.12825 -0.02900
C 	C 	0.14736 0.58390 0.11208 -0.06600
C 	C 	0.03234 0.71334 0.16921 0.08500
C 	C 	0.03491 0.70134 0.13246 -0.07300
C 	C 	0.06027 0.67403 0.12258 -0.02300
C 	C 	0.08333 0.65785 0.14942 -0.00300
C 	C 	0.07755 0.66700 0.18685 -0.02400
C 	C 	0.05262 0.69489 0.19655 -0.07400
H 	H 	0.96393 0.85192 0.13683 0.04200
H 	H 	0.95281 0.71544 0.15680 0.05600
H 	H 	0.90065 0.75010 0.12938 0.03200
H 	H 	0.03045 0.86963 0.15434 0.04200
H 	H 	0.09295 0.75411 0.19715 0.05700
H 	H 	0.12814 0.81163 0.19330 0.03400
H 	H 	0.31008 0.51930 0.07063 0.04300
H 	H 	0.20519 0.54955 0.15567 0.05800
H 	H 	0.25095 0.50219 0.17365 0.03400
H 	H 	0.30772 0.56545 0.01844 0.04300
H 	H 	0.19471 0.64297 0.03705 0.05900
H 	H 	0.23609 0.65560 0.98413 0.03500
H 	H 	0.20505 0.65817 0.11089 0.05400
H 	H 	0.15083 0.68793 0.13753 0.03800
H 	H 	0.09193 0.58391 0.13278 0.03800
H 	H 	0.01994 0.71570 0.11088 0.05400
H 	H 	0.06399 0.66814 0.09350 0.03800
H 	H 	0.09407 0.65444 0.20842 0.03900
H 	H 	0.05151 0.70432 0.22490 0.05300
H 	H 	0.14659 0.55336 0.10428 0.04800
Cu	Cu	0.17345 0.32873 0.41376 0.94200
Cu	Cu	0.12778 0.37436 0.43854 0.94100
O 	O 	0.13401 0.30952 0.38981 -0.42800
O 	O 	0.09429 0.35235 0.40720 -0.41300
O 	O 	0.70613 0.14711 0.55512 -0.41600
O 	O 	0.66510 0.10944 0.53046 -0.41100
O 	O 	0.86218 0.37908 0.31942 -0.44300
O 	O 	0.90512 0.40230 0.35601 -0.42400
O 	O 	0.69914 0.95471 0.34044 -0.41700
O 	O 	0.66086 0.97221 0.38457 -0.41900
N 	N 	0.98127 0.25006 0.32395 -0.15200
N 	N 	0.78896 0.08779 0.41121 -0.15300
C 	C 	0.10153 0.32302 0.38917 0.36800
C 	C 	0.69765 0.12265 0.53132 0.36600
C 	C 	0.89433 0.37745 0.33370 0.37700
C 	C 	0.69088 0.97647 0.36675 0.36800
C 	C 	0.07193 0.30368 0.36856 -0.10600
C 	C 	0.03936 0.32262 0.35805 0.01300
C 	C 	0.01102 0.30225 0.34153 -0.02800
C 	C 	0.01349 0.26443 0.33671 0.09200
C 	C 	0.04527 0.24509 0.34681 -0.09700
C 	C 	0.07480 0.26505 0.36221 0.03400
C 	C 	0.91798 0.34519 0.32591 -0.11100
C 	C 	0.95610 0.34518 0.33485 0.01600
C 	C 	0.97564 0.31202 0.33111 -0.03000
C 	C 	0.95856 0.27969 0.32011 0.09500
C 	C 	0.92106 0.27924 0.31086 -0.09700
C 	C 	0.90110 0.31227 0.31310 0.03700
C 	C 	0.71652 0.00648 0.37672 -0.10900
C 	C 	0.71228 0.02558 0.41049 0.01500
C 	C 	0.73850 0.05221 0.41958 -0.03000
C 	C 	0.76773 0.06063 0.39661 0.09500
C 	C 	0.77209 0.04291 0.36264 -0.09600
C 	C 	0.74611 0.01585 0.35272 0.03600
C 	C 	0.72507 0.11127 0.50323 -0.10500
C 	C 	0.71723 0.08177 0.47885 0.01300
C 	C 	0.74127 0.07555 0.44946 -0.02800
C 	C 	0.77234 0.09689 0.44361 0.09400
C 	C 	0.78135 0.12568 0.46768 -0.09600
C 	C 	0.75761 0.13265 0.49774 0.03400
C 	C 	0.82066 0.10465 0.39456 0.08500
C 	C 	0.81950 0.14184 0.38398 -0.07300
C 	C 	0.85047 0.15862 0.36830 -0.02500
C 	C 	0.88325 0.13839 0.36257 -0.00100
C 	C 	0.88361 0.10052 0.37175 -0.02900
C 	C 	0.85264 0.08390 0.38792 -0.06600
C 	C 	0.96766 0.21334 0.33079 0.08500
C 	C 	0.96509 0.20134 0.36754 -0.07300
C 	C 	0.93973 0.17403 0.37742 -0.02300
C 	C 	0.91667 0.15785 0.35058 -0.00300
C 	C 	0.92245 0.16700 0.31315 -0.02400
C 	C 	0.94738 0.19489 0.30345 -0.07400
H 	H 	0.03607 0.35192 0.36317 0.04200
H 	H 	0.04719 0.21544 0.34320 0.05600
H 	H 	0.09935 0.25010 0.37062 0.03200
H 	H 	0.96955 0.36963 0.34566 0.04200
H 	H 	0.90705 0.25411 0.30285 0.05700
H 	H 	0.87186 0.31163 0.30670 0.03400
H 	H 	0.68992 0.01930 0.42937 0.04300
H 	H 	0.79481 0.04955 0.34433 0.05800
H 	H 	0.74905 0.00219 0.32635 0.03400
H 	H 	0.69228 0.06545 0.48156 0.04300
H 	H 	0.80529 0.14297 0.46295 0.05900
H 	H 	0.76391 0.15560 0.51587 0.03500
H 	H 	0.79495 0.15817 0.38911 0.05400
H 	H 	0.84917 0.18793 0.36247 0.03800
H 	H 	0.90807 0.08391 0.36722 0.03800
H 	H 	0.98006 0.21570 0.38912 0.05400
H 	H 	0.93601 0.16814 0.40650 0.03800
H 	H 	0.90593 0.15444 0.29158 0.03900
H 	H 	0.94849 0.20432 0.27510 0.05300
H 	H 	0.85341 0.05336 0.39572 0.04800
