data_crystal

_cell_length_a 16.41300
_cell_length_b 18.43000
_cell_length_c 24.70000
_cell_angle_alpha 87.90000
_cell_angle_beta  85.39500
_cell_angle_gamma 75.05800

_symmetry_space_group_name_	'P 1'
_symmetry_space_group_name_H-M	'P 1'

loop_
_symmetry_equiv_pos_as_xyz
  x,y,z

loop_
_atom_site_label
_atom_site_type_symbol
_atom_site_fract_x
_atom_site_fract_y
_atom_site_fract_z
_atom_site_charge
Cd	Cd	0.24619 0.17842 0.35282 1.23800
Cd	Cd	0.91889 0.32951 0.55407 1.20500
Cd	Cd	0.63596 0.48584 0.49610 1.18700
Cd	Cd	0.72753 0.23500 0.03138 1.15900
Cd	Cd	0.83462 0.69990 0.15594 1.18100
Cd	Cd	0.60639 0.99649 0.64364 1.19300
Cd	Cd	0.66898 0.05213 0.99895 1.13100
Co	Co	0.79073 0.10140 0.33712 1.17200
Co	Co	0.23631 0.36464 0.15232 1.17100
O 	O 	0.66550 0.94390 0.32080 -0.23300
O 	O 	0.72730 0.30130 0.25930 -0.18600
O 	O 	0.11580 0.17060 0.32390 -0.34700
O 	O 	0.12010 0.23610 0.39690 -0.36500
O 	O 	0.85200 0.39790 0.48330 -0.46300
O 	O 	0.73730 0.41360 0.43900 -0.44900
O 	O 	0.63780 0.00520 0.54940 -0.41100
O 	O 	0.73780 0.92830 0.59150 -0.49700
O 	O 	0.97680 0.76590 0.48070 -0.41800
O 	O 	0.98700 0.77420 0.39280 -0.35200
O 	O 	0.01920 0.97760 0.27840 -0.21500
O 	O 	0.75660 0.17330 0.49110 -0.23400
O 	O 	0.35470 0.20480 0.38460 -0.44800
O 	O 	0.45360 0.09810 0.36820 -0.45300
O 	O 	0.43730 0.42260 0.45130 -0.49300
O 	O 	0.56140 0.40310 0.48240 -0.51600
O 	O 	0.80470 0.82860 0.12960 -0.40300
O 	O 	0.85910 0.79880 0.20730 -0.39700
O 	O 	0.79390 0.17780 0.10610 -0.43700
O 	O 	0.74650 0.09670 0.06220 -0.55700
O 	O 	0.07650 0.57040 0.15830 -0.25200
O 	O 	0.19570 0.20300 0.06040 -0.23900
O 	O 	0.31120 0.09640 0.28720 -0.49800
O 	O 	0.42920 0.01110 0.26440 -0.41900
O 	O 	0.55040 0.13040 0.04280 -0.47500
O 	O 	0.55790 0.01670 0.06900 -0.41400
O 	O 	0.47230 0.51610 0.19990 -0.23300
O 	O 	0.45440 0.58680 0.26940 -0.25400
O 	O 	0.18490 0.61050 0.38810 -0.45700
O 	O 	0.07500 0.60210 0.35190 -0.35200
O 	O 	0.46270 0.38630 0.08550 -0.21400
O 	O 	0.21230 0.29730 0.30860 -0.33100
O 	O 	0.99260 0.19630 0.13790 -0.29600
O 	O 	0.86500 0.25920 0.16420 -0.48700
H 	H 	0.85320 0.22950 0.14420 0.31200
O 	O 	0.81720 0.47230 0.28900 -0.48500
H 	H 	0.79060 0.50410 0.31070 0.27100
O 	O 	0.92190 0.47910 0.33680 -0.28800
O 	O 	0.24780 0.65130 0.93940 -0.36800
O 	O 	0.30870 0.64760 0.01580 -0.40700
O 	O 	0.18110 0.41540 0.87830 -0.38000
O 	O 	0.23140 0.31060 0.92430 -0.37600
N 	N 	0.75150 0.01120 0.35240 -0.27900
N 	N 	0.70620 0.12000 0.28920 -0.25600
N 	N 	0.80200 0.20010 0.30860 -0.26800
N 	N 	0.87870 0.04500 0.28510 -0.27200
N 	N 	0.88160 0.07990 0.38110 -0.25300
N 	N 	0.72980 0.15130 0.40280 -0.26900
N 	N 	0.19060 0.47020 0.17120 -0.27500
N 	N 	0.14310 0.38650 0.11050 -0.25100
N 	N 	0.25170 0.26560 0.12090 -0.27500
N 	N 	0.18290 0.33410 0.21980 -0.27900
N 	N 	0.33030 0.34290 0.19380 -0.25300
N 	N 	0.32060 0.38970 0.09830 -0.27600
C 	C 	0.69690 0.99930 0.32070 0.17200
C 	C 	0.67060 0.06280 0.28110 0.01700
C 	C 	0.61610 0.07150 0.24080 -0.07400
H 	H 	0.58850 0.03450 0.23530 0.07000
C 	C 	0.60250 0.13530 0.20860 0.00900
H 	H 	0.56630 0.14030 0.18080 0.02900
C 	C 	0.64040 0.19150 0.21630 -0.08000
H 	H 	0.63150 0.23430 0.19420 0.06300
C 	C 	0.69350 0.18190 0.25920 0.03400
C 	C 	0.74270 0.23490 0.27620 0.16100
C 	C 	0.84980 0.24000 0.33450 0.11200
C 	C 	0.93740 0.21510 0.33100 -0.11100
H 	H 	0.96450 0.17890 0.30570 0.09000
C 	C 	0.98470 0.24360 0.36450 -0.01100
C 	C 	0.94540 0.29790 0.40150 -0.01500
H 	H 	0.97740 0.31640 0.42440 0.04300
C 	C 	0.85690 0.32560 0.40470 -0.07800
C 	C 	0.81080 0.29710 0.37040 -0.07500
H 	H 	0.75250 0.31650 0.37140 0.08000
C 	C 	0.08070 0.21500 0.36200 0.27900
C 	C 	0.81220 0.38280 0.44520 0.37200
C 	C 	0.77590 0.96330 0.39820 0.10400
C 	C 	0.73030 0.98030 0.44880 -0.09100
H 	H 	0.68150 0.01950 0.45130 0.07900
C 	C 	0.75780 0.93920 0.49470 -0.05300
C 	C 	0.82930 0.87960 0.49110 -0.02600
H 	H 	0.84650 0.85110 0.52190 0.05900
C 	C 	0.87510 0.86230 0.44150 -0.03500
C 	C 	0.84740 0.90470 0.39550 -0.10000
H 	H 	0.87810 0.89300 0.36220 0.08300
C 	C 	0.70730 0.95890 0.54810 0.33700
C 	C 	0.95150 0.79670 0.43890 0.30500
C 	C 	0.95460 0.01890 0.30290 0.16500
C 	C 	0.95720 0.04210 0.36010 0.02400
C 	C 	0.02660 0.03020 0.39080 -0.06900
H 	H 	0.07980 0.00390 0.37670 0.06200
C 	C 	0.01520 0.05820 0.44240 0.00300
H 	H 	0.06110 0.05100 0.46360 0.03800
C 	C 	0.93520 0.09720 0.46330 -0.07100
H 	H 	0.92690 0.11580 0.49840 0.05900
C 	C 	0.86870 0.10750 0.43060 0.02300
C 	C 	0.77890 0.14850 0.44470 0.15800
C 	C 	0.64400 0.19200 0.40920 0.08300
C 	C 	0.62000 0.26510 0.42930 -0.04600
H 	H 	0.66130 0.28710 0.43950 0.06300
C 	C 	0.53590 0.30560 0.43430 -0.11000
C 	C 	0.47450 0.27350 0.41780 0.02900
H 	H 	0.41830 0.30090 0.41990 0.03300
C 	C 	0.49580 0.20110 0.39820 -0.08500
C 	C 	0.58060 0.16180 0.39450 -0.07000
H 	H 	0.59510 0.11300 0.38150 0.06200
C 	C 	0.51050 0.38230 0.45940 0.42700
C 	C 	0.43050 0.16380 0.38280 0.38000
C 	C 	0.86230 0.02200 0.23390 0.10900
C 	C 	0.85970 0.94790 0.22620 -0.09100
H 	H 	0.87430 0.91270 0.25400 0.08600
C 	C 	0.83600 0.92570 0.17860 -0.04700
C 	C 	0.81020 0.97980 0.13730 -0.00800
H 	H 	0.79030 0.96650 0.10580 0.02000
C 	C 	0.81460 0.05300 0.14410 -0.06600
C 	C 	0.84250 0.07210 0.19160 -0.09000
H 	H 	0.84810 0.12070 0.19500 0.08000
C 	C 	0.83090 0.84640 0.17100 0.30200
C 	C 	0.78320 0.11230 0.10120 0.34100
C 	C 	0.11790 0.50430 0.15060 0.17200
C 	C 	0.09130 0.45490 0.11340 0.01100
C 	C 	0.01870 0.47190 0.08390 -0.06200
H 	H 	0.98080 0.51910 0.08580 0.05300
C 	C 	0.00550 0.41710 0.05260 -0.00100
H 	H 	0.95780 0.42690 0.03280 0.03300
C 	C 	0.06260 0.34680 0.04990 -0.06800
H 	H 	0.05420 0.31010 0.02770 0.05600
C 	C 	0.13020 0.33250 0.07980 0.02300
C 	C 	0.19750 0.25940 0.08550 0.17200
C 	C 	0.31610 0.20040 0.13390 0.08600
C 	C 	0.31100 0.16410 0.18410 -0.08400
H 	H 	0.26460 0.18100 0.20870 0.05900
C 	C 	0.37530 0.10290 0.19720 -0.07800
C 	C 	0.44220 0.07510 0.15950 -0.00000
H 	H 	0.48310 0.03160 0.16760 0.04000
C 	C 	0.44880 0.11140 0.11000 -0.09300
C 	C 	0.38620 0.17560 0.09720 -0.07800
H 	H 	0.39130 0.20150 0.06460 0.06200
C 	C 	0.37060 0.06840 0.25270 0.33600
C 	C 	0.52310 0.08360 0.07040 0.35300
C 	C 	0.22150 0.50810 0.21150 0.10800
C 	C 	0.30260 0.51720 0.20440 -0.10400
H 	H 	0.33410 0.50350 0.17160 0.07900
C 	C 	0.33790 0.54610 0.24430 -0.03500
C 	C 	0.28640 0.57260 0.29110 -0.01900
H 	H 	0.30730 0.59600 0.31760 0.04700
C 	C 	0.20670 0.56460 0.29830 -0.05100
C 	C 	0.17220 0.53270 0.25870 -0.09000
H 	H 	0.11710 0.52790 0.26380 0.08300
C 	C 	0.42660 0.55220 0.23650 0.29900
C 	C 	0.15020 0.59370 0.34960 0.34900
C 	C 	0.39810 0.37680 0.11280 0.16300
C 	C 	0.40400 0.35030 0.17100 0.03100
C 	C 	0.47110 0.34120 0.20170 -0.08000
H 	H 	0.52280 0.34630 0.18610 0.07800
C 	C 	0.46200 0.32440 0.25580 0.01700
H 	H 	0.50750 0.31910 0.27720 0.03800
C 	C 	0.38400 0.31510 0.27970 -0.08400
H 	H 	0.37630 0.30390 0.31650 0.06900
C 	C 	0.32060 0.32340 0.24560 0.01600
C 	C 	0.23110 0.31780 0.26090 0.17900
C 	C 	0.09500 0.33480 0.22690 0.09700
C 	C 	0.03820 0.38800 0.26140 -0.07500
H 	H 	0.05920 0.41810 0.28310 0.07900
C 	C 	0.95230 0.39530 0.26310 -0.05400
C 	C 	0.92060 0.34930 0.22990 0.00200
H 	H 	0.86270 0.35550 0.22920 0.08800
C 	C 	0.97560 0.29640 0.19930 -0.05600
C 	C 	0.06250 0.28780 0.19900 -0.08700
H 	H 	0.09910 0.24910 0.17920 0.07400
C 	C 	0.89390 0.45360 0.29910 0.37700
C 	C 	0.94600 0.24610 0.16440 0.38500
C 	C 	0.29930 0.42470 0.04720 0.12100
C 	C 	0.27590 0.38700 0.00680 -0.12300
H 	H 	0.28000 0.33580 0.01090 0.08700
C 	C 	0.24610 0.42450 0.95970 -0.00900
C 	C 	0.24430 0.49990 0.95190 -0.04800
H 	H 	0.22490 0.52480 0.92020 0.08200
C 	C 	0.27110 0.53780 0.99120 -0.01500
C 	C 	0.29860 0.50070 0.03970 -0.10600
H 	H 	0.31600 0.52630 0.06660 0.09000
C 	C 	0.21890 0.38120 0.91820 0.26500
C 	C 	0.27570 0.61720 0.98180 0.28200
Cd	Cd	0.75381 0.82158 0.64718 1.23900
Cd	Cd	0.08111 0.67049 0.44593 1.20600
Cd	Cd	0.36404 0.51416 0.50390 1.18700
Cd	Cd	0.27247 0.76500 0.96862 1.15900
Cd	Cd	0.16538 0.30010 0.84406 1.18100
Cd	Cd	0.39361 0.00351 0.35636 1.19300
Cd	Cd	0.33102 0.94787 0.00105 1.13100
Co	Co	0.20927 0.89860 0.66288 1.17200
Co	Co	0.76369 0.63536 0.84768 1.17100
O 	O 	0.33450 0.05610 0.67920 -0.23300
O 	O 	0.27270 0.69870 0.74070 -0.18600
O 	O 	0.88420 0.82940 0.67610 -0.34700
O 	O 	0.87990 0.76390 0.60310 -0.36500
O 	O 	0.14800 0.60210 0.51670 -0.46300
O 	O 	0.26270 0.58640 0.56100 -0.44900
O 	O 	0.36220 0.99480 0.45060 -0.41100
O 	O 	0.26220 0.07170 0.40850 -0.49700
O 	O 	0.02320 0.23410 0.51930 -0.41800
O 	O 	0.01300 0.22580 0.60720 -0.35200
O 	O 	0.98080 0.02240 0.72160 -0.21500
O 	O 	0.24340 0.82670 0.50890 -0.23400
O 	O 	0.64530 0.79520 0.61540 -0.44800
O 	O 	0.54640 0.90190 0.63180 -0.45300
O 	O 	0.56270 0.57740 0.54870 -0.49300
O 	O 	0.43860 0.59690 0.51760 -0.51600
O 	O 	0.19530 0.17140 0.87040 -0.40300
O 	O 	0.14090 0.20120 0.79270 -0.39700
O 	O 	0.20610 0.82220 0.89390 -0.43700
O 	O 	0.25350 0.90330 0.93780 -0.55700
O 	O 	0.92350 0.42960 0.84170 -0.25200
O 	O 	0.80430 0.79700 0.93960 -0.23900
O 	O 	0.68880 0.90360 0.71280 -0.49800
O 	O 	0.57080 0.98890 0.73560 -0.41900
O 	O 	0.44960 0.86960 0.95720 -0.47500
O 	O 	0.44210 0.98330 0.93100 -0.41400
O 	O 	0.52770 0.48390 0.80010 -0.23300
O 	O 	0.54560 0.41320 0.73060 -0.25400
O 	O 	0.81510 0.38950 0.61190 -0.45700
O 	O 	0.92500 0.39790 0.64810 -0.35200
O 	O 	0.53730 0.61370 0.91450 -0.21400
O 	O 	0.78770 0.70270 0.69140 -0.33100
O 	O 	0.00740 0.80370 0.86210 -0.29600
O 	O 	0.13500 0.74080 0.83580 -0.48700
H 	H 	0.14680 0.77050 0.85580 0.31200
O 	O 	0.18280 0.52770 0.71100 -0.48500
H 	H 	0.20940 0.49590 0.68930 0.27100
O 	O 	0.07810 0.52090 0.66320 -0.28800
O 	O 	0.75220 0.34870 0.06060 -0.36800
O 	O 	0.69130 0.35240 0.98420 -0.40700
O 	O 	0.81890 0.58460 0.12170 -0.38000
O 	O 	0.76860 0.68940 0.07570 -0.37600
N 	N 	0.24850 0.98880 0.64760 -0.27900
N 	N 	0.29380 0.88000 0.71080 -0.25600
N 	N 	0.19800 0.79990 0.69140 -0.26800
N 	N 	0.12130 0.95500 0.71490 -0.27200
N 	N 	0.11840 0.92010 0.61890 -0.25300
N 	N 	0.27020 0.84870 0.59720 -0.26900
N 	N 	0.80940 0.52980 0.82880 -0.27500
N 	N 	0.85690 0.61350 0.88950 -0.25100
N 	N 	0.74830 0.73440 0.87910 -0.27500
N 	N 	0.81710 0.66590 0.78020 -0.27900
N 	N 	0.66970 0.65710 0.80620 -0.25300
N 	N 	0.67940 0.61030 0.90170 -0.27600
C 	C 	0.30310 0.00070 0.67930 0.17200
C 	C 	0.32940 0.93720 0.71890 0.01700
C 	C 	0.38390 0.92850 0.75920 -0.07400
H 	H 	0.41150 0.96550 0.76470 0.07000
C 	C 	0.39750 0.86470 0.79140 0.00900
H 	H 	0.43370 0.85970 0.81920 0.02900
C 	C 	0.35960 0.80850 0.78370 -0.08000
H 	H 	0.36850 0.76570 0.80580 0.06300
C 	C 	0.30650 0.81810 0.74080 0.03400
C 	C 	0.25730 0.76510 0.72380 0.16100
C 	C 	0.15020 0.76000 0.66550 0.11200
C 	C 	0.06260 0.78490 0.66900 -0.11100
H 	H 	0.03550 0.82110 0.69430 0.09000
C 	C 	0.01530 0.75640 0.63550 -0.01100
C 	C 	0.05460 0.70210 0.59850 -0.01500
H 	H 	0.02260 0.68360 0.57560 0.04300
C 	C 	0.14310 0.67440 0.59530 -0.07800
C 	C 	0.18920 0.70290 0.62960 -0.07500
H 	H 	0.24750 0.68350 0.62860 0.08000
C 	C 	0.91930 0.78500 0.63800 0.27900
C 	C 	0.18780 0.61720 0.55480 0.37200
C 	C 	0.22410 0.03670 0.60180 0.10400
C 	C 	0.26970 0.01970 0.55120 -0.09100
H 	H 	0.31850 0.98050 0.54870 0.07900
C 	C 	0.24220 0.06080 0.50530 -0.05300
C 	C 	0.17070 0.12040 0.50890 -0.02600
H 	H 	0.15350 0.14890 0.47810 0.05900
C 	C 	0.12490 0.13770 0.55850 -0.03500
C 	C 	0.15260 0.09530 0.60450 -0.10000
H 	H 	0.12190 0.10700 0.63780 0.08300
C 	C 	0.29270 0.04110 0.45190 0.33700
C 	C 	0.04850 0.20330 0.56110 0.30500
C 	C 	0.04540 0.98110 0.69710 0.16500
C 	C 	0.04280 0.95790 0.63990 0.02400
C 	C 	0.97340 0.96980 0.60920 -0.06900
H 	H 	0.92020 0.99610 0.62330 0.06200
C 	C 	0.98480 0.94180 0.55760 0.00300
H 	H 	0.93890 0.94900 0.53640 0.03800
C 	C 	0.06480 0.90280 0.53670 -0.07100
H 	H 	0.07310 0.88420 0.50160 0.05900
C 	C 	0.13130 0.89250 0.56940 0.02300
C 	C 	0.22110 0.85150 0.55530 0.15800
C 	C 	0.35600 0.80800 0.59080 0.08300
C 	C 	0.38000 0.73490 0.57070 -0.04600
H 	H 	0.33870 0.71290 0.56050 0.06300
C 	C 	0.46410 0.69440 0.56570 -0.11000
C 	C 	0.52550 0.72650 0.58220 0.02900
H 	H 	0.58170 0.69910 0.58010 0.03300
C 	C 	0.50420 0.79890 0.60180 -0.08500
C 	C 	0.41940 0.83820 0.60550 -0.07000
H 	H 	0.40490 0.88700 0.61850 0.06200
C 	C 	0.48950 0.61770 0.54060 0.42700
C 	C 	0.56950 0.83620 0.61720 0.38000
C 	C 	0.13770 0.97800 0.76610 0.10900
C 	C 	0.14030 0.05210 0.77380 -0.09100
H 	H 	0.12570 0.08730 0.74600 0.08600
C 	C 	0.16400 0.07430 0.82140 -0.04700
C 	C 	0.18980 0.02020 0.86270 -0.00800
H 	H 	0.20970 0.03350 0.89420 0.02000
C 	C 	0.18540 0.94700 0.85590 -0.06600
C 	C 	0.15750 0.92790 0.80840 -0.09000
H 	H 	0.15190 0.87930 0.80500 0.08000
C 	C 	0.16910 0.15360 0.82900 0.30200
C 	C 	0.21680 0.88770 0.89880 0.34100
C 	C 	0.88210 0.49570 0.84940 0.17200
C 	C 	0.90870 0.54510 0.88660 0.01100
C 	C 	0.98130 0.52810 0.91610 -0.06200
H 	H 	0.01920 0.48090 0.91420 0.05300
C 	C 	0.99450 0.58290 0.94740 -0.00100
H 	H 	0.04220 0.57310 0.96720 0.03300
C 	C 	0.93740 0.65320 0.95010 -0.06800
H 	H 	0.94580 0.68990 0.97230 0.05600
C 	C 	0.86980 0.66750 0.92020 0.02300
C 	C 	0.80250 0.74060 0.91450 0.17200
C 	C 	0.68390 0.79960 0.86610 0.08600
C 	C 	0.68900 0.83590 0.81590 -0.08400
H 	H 	0.73540 0.81900 0.79130 0.05900
C 	C 	0.62470 0.89710 0.80280 -0.07800
C 	C 	0.55780 0.92490 0.84050 -0.00000
H 	H 	0.51690 0.96840 0.83240 0.04000
C 	C 	0.55120 0.88860 0.89000 -0.09300
C 	C 	0.61380 0.82440 0.90280 -0.07800
H 	H 	0.60870 0.79850 0.93540 0.06200
C 	C 	0.62940 0.93160 0.74730 0.33600
C 	C 	0.47690 0.91640 0.92960 0.35300
C 	C 	0.77850 0.49190 0.78850 0.10800
C 	C 	0.69740 0.48280 0.79560 -0.10400
H 	H 	0.66590 0.49650 0.82840 0.07900
C 	C 	0.66210 0.45390 0.75570 -0.03500
C 	C 	0.71360 0.42740 0.70890 -0.01900
H 	H 	0.69270 0.40400 0.68240 0.04700
C 	C 	0.79330 0.43540 0.70170 -0.05100
C 	C 	0.82780 0.46730 0.74130 -0.09000
H 	H 	0.88290 0.47210 0.73620 0.08300
C 	C 	0.57340 0.44780 0.76350 0.29900
C 	C 	0.84980 0.40630 0.65040 0.34900
C 	C 	0.60190 0.62320 0.88720 0.16300
C 	C 	0.59600 0.64970 0.82900 0.03100
C 	C 	0.52890 0.65880 0.79830 -0.08000
H 	H 	0.47720 0.65370 0.81390 0.07800
C 	C 	0.53800 0.67560 0.74420 0.01700
H 	H 	0.49250 0.68090 0.72280 0.03800
C 	C 	0.61600 0.68490 0.72030 -0.08400
H 	H 	0.62370 0.69610 0.68350 0.06900
C 	C 	0.67940 0.67660 0.75440 0.01600
C 	C 	0.76890 0.68220 0.73910 0.17900
C 	C 	0.90500 0.66520 0.77310 0.09700
C 	C 	0.96180 0.61200 0.73860 -0.07500
H 	H 	0.94080 0.58190 0.71690 0.07900
C 	C 	0.04770 0.60470 0.73690 -0.05400
C 	C 	0.07940 0.65070 0.77010 0.00200
H 	H 	0.13730 0.64450 0.77080 0.08800
C 	C 	0.02440 0.70360 0.80070 -0.05600
C 	C 	0.93750 0.71220 0.80100 -0.08700
H 	H 	0.90090 0.75090 0.82080 0.07400
C 	C 	0.10610 0.54640 0.70090 0.37700
C 	C 	0.05400 0.75390 0.83560 0.38500
C 	C 	0.70070 0.57530 0.95280 0.12100
C 	C 	0.72410 0.61300 0.99320 -0.12300
H 	H 	0.72000 0.66420 0.98910 0.08700
C 	C 	0.75390 0.57550 0.04030 -0.00900
C 	C 	0.75570 0.50010 0.04810 -0.04800
H 	H 	0.77510 0.47520 0.07980 0.08200
C 	C 	0.72890 0.46220 0.00880 -0.01500
C 	C 	0.70140 0.49930 0.96030 -0.10600
H 	H 	0.68400 0.47370 0.93340 0.09000
C 	C 	0.78110 0.61880 0.08180 0.26500
C 	C 	0.72430 0.38280 0.01820 0.28200
