data_crystal

_cell_length_a 34.58000
_cell_length_b 34.58000
_cell_length_c 20.76000
_cell_angle_alpha 90.00000
_cell_angle_beta  90.00000
_cell_angle_gamma 120.00000

_symmetry_space_group_name_	'P 1'
_symmetry_space_group_name_H-M	'P 1'

loop_
_symmetry_equiv_pos_as_xyz
  x,y,z

loop_
_atom_site_label
_atom_site_type_symbol
_atom_site_fract_x
_atom_site_fract_y
_atom_site_fract_z
_atom_site_charge
Cu	Cu	0.66578 0.68723 0.23517 0.81300
Cu	Cu	0.70962 0.63986 0.30223 0.80300
Cu	Cu	0.62012 0.55287 0.30510 0.81100
Cu	Cu	0.57448 0.59914 0.23147 0.80800
Cu	Cu	0.56026 0.70466 0.22822 0.84700
Cu	Cu	0.66766 0.60020 0.12553 0.84300
S 	S 	0.63120 0.72783 0.26042 -0.75800
S 	S 	0.63345 0.53456 0.40709 -0.69200
S 	S 	0.63027 0.63417 0.15638 -0.67600
S 	S 	0.67618 0.58226 0.22833 -0.68300
S 	S 	0.73830 0.71268 0.26283 -0.83400
S 	S 	0.55009 0.52688 0.26458 -0.67700
O 	O 	0.64281 0.42031 0.52130 -0.41200
O 	O 	0.60028 0.38220 0.43480 -0.39700
O 	O 	0.64570 0.64800 0.92660 -0.32500
O 	O 	0.67130 0.72110 0.96380 -0.29100
O 	O 	0.73550 0.51326 0.08410 -0.30600
O 	O 	0.68467 0.45519 0.14100 -0.31700
O 	O 	0.87660 0.82830 0.17190 -0.34700
O 	O 	0.83140 0.81270 0.09580 -0.32100
O 	O 	0.45050 0.37330 0.19150 -0.35000
O 	O 	0.52020 0.39030 0.16840 -0.33400
N 	N 	0.58495 0.76686 0.19200 -0.25500
H 	H 	0.57280 0.76490 0.15190 0.07000
H 	H 	0.57650 0.78280 0.21810 0.08500
N 	N 	0.68563 0.49492 0.45900 -0.26900
H 	H 	0.70720 0.48920 0.44340 0.09600
H 	H 	0.68500 0.49170 0.50310 0.08900
N 	N 	0.67638 0.63200 0.03870 -0.28600
H 	H 	0.70590 0.64470 0.02690 0.06200
H 	H 	0.65970 0.61100 0.00800 0.11300
N 	N 	0.68622 0.55596 0.09500 -0.28100
H 	H 	0.66890 0.54100 0.05990 0.10500
H 	H 	0.71530 0.57190 0.08110 0.08000
N 	N 	0.81260 0.80470 0.25780 -0.20600
H 	H 	0.81390 0.83190 0.25420 0.07100
H 	H 	0.84080 0.81040 0.26850 0.08100
N 	N 	0.47580 0.43960 0.28730 -0.29600
H 	H 	0.46740 0.41690 0.31670 0.05600
H 	H 	0.45090 0.43320 0.26330 0.08000
C 	C 	0.65930 0.78930 0.23600 0.88700
C 	C 	0.63390 0.79110 0.18640 -0.41500
H 	H 	0.64110 0.77870 0.14770 0.11600
C 	C 	0.65580 0.81130 0.29370 -1.19200
H 	H 	0.62470 0.80380 0.29980 0.33500
H 	H 	0.67480 0.84370 0.28900 0.32500
H 	H 	0.66560 0.80120 0.33120 0.30100
C 	C 	0.70020 0.79680 0.21730 -1.35300
H 	H 	0.71630 0.79460 0.25470 0.35300
H 	H 	0.71720 0.82670 0.19840 0.39300
H 	H 	0.69660 0.77440 0.18520 0.36400
C 	C 	0.60956 0.47593 0.43790 0.40800
C 	C 	0.64212 0.46085 0.43310 -0.31100
H 	H 	0.64680 0.45860 0.38600 0.07700
C 	C 	0.62630 0.41830 0.45820 0.36200
C 	C 	0.59640 0.47480 0.50720 -0.69900
H 	H 	0.57460 0.48490 0.51040 0.18400
H 	H 	0.62290 0.49450 0.53270 0.19900
H 	H 	0.58320 0.44420 0.52360 0.21900
C 	C 	0.56620 0.44710 0.39880 -0.65000
H 	H 	0.54610 0.45910 0.40380 0.15800
H 	H 	0.55150 0.41630 0.41460 0.19300
H 	H 	0.57370 0.44760 0.35310 0.16400
C 	C 	0.62261 0.65347 0.07530 0.27900
C 	C 	0.66400 0.66672 0.03813 -0.19000
H 	H 	0.68880 0.69430 0.05800 0.05500
C 	C 	0.65660 0.67790 0.96838 0.28500
C 	C 	0.58140 0.61080 0.04260 -0.55700
H 	H 	0.55420 0.60220 0.06730 0.14900
H 	H 	0.58740 0.58590 0.04200 0.16400
H 	H 	0.57750 0.61810 0.99830 0.17400
C 	C 	0.61460 0.69490 0.08440 -0.54200
H 	H 	0.58720 0.68540 0.10910 0.12700
H 	H 	0.61190 0.70580 0.04210 0.17200
H 	H 	0.64000 0.71880 0.10760 0.13800
C 	C 	0.70530 0.54885 0.20710 0.36900
C 	C 	0.68311 0.52350 0.14050 -0.22900
H 	H 	0.65060 0.50340 0.14940 0.07900
C 	C 	0.70060 0.49460 0.12130 0.33500
C 	C 	0.75275 0.58413 0.20170 -0.65400
H 	H 	0.75620 0.60440 0.16630 0.15600
H 	H 	0.77110 0.57040 0.19320 0.18300
H 	H 	0.76240 0.60100 0.24210 0.15000
C 	C 	0.69406 0.51543 0.25990 -0.65900
H 	H 	0.66190 0.49420 0.25960 0.17400
H 	H 	0.70260 0.53090 0.30150 0.15900
H 	H 	0.71040 0.49930 0.25320 0.19700
C 	C 	0.78570 0.73673 0.20230 1.09500
C 	C 	0.80284 0.78580 0.20090 -0.55100
H 	H 	0.77790 0.78960 0.18390 0.15600
C 	C 	0.84197 0.81010 0.15240 0.49800
C 	C 	0.81720 0.72570 0.21920 -1.51500
H 	H 	0.83180 0.74110 0.25930 0.41500
H 	H 	0.83960 0.73490 0.18490 0.42800
H 	H 	0.80290 0.69340 0.22550 0.40300
C 	C 	0.76670 0.71370 0.14710 -1.51300
H 	H 	0.74300 0.71940 0.13330 0.42100
H 	H 	0.75410 0.68160 0.15490 0.39200
H 	H 	0.78950 0.72330 0.11330 0.43700
C 	C 	0.52904 0.47987 0.20570 0.32500
C 	C 	0.51030 0.43882 0.24190 -0.22400
H 	H 	0.53450 0.43930 0.26870 0.05800
C 	C 	0.49150 0.39540 0.19110 0.35500
C 	C 	0.49395 0.48664 0.16550 -0.56100
H 	H 	0.50940 0.51530 0.14280 0.14400
H 	H 	0.47150 0.48640 0.19460 0.14400
H 	H 	0.47920 0.46240 0.13400 0.16500
C 	C 	0.57040 0.48890 0.16370 -0.60500
H 	H 	0.58190 0.51750 0.14120 0.15400
H 	H 	0.56140 0.46480 0.13210 0.20500
H 	H 	0.59380 0.48990 0.19150 0.16600
K 	K 	0.40346 0.75440 0.02000 0.60500
O 	O 	0.68380 0.41860 0.64740 -0.40200
K 	K 	0.68980 0.62540 0.84950 0.64600
Cu	Cu	0.31277 0.97855 0.90184 0.81300
Cu	Cu	0.36014 0.06976 0.96890 0.80300
Cu	Cu	0.44713 0.06725 0.97177 0.81000
Cu	Cu	0.40086 0.97534 0.89814 0.80800
Cu	Cu	0.29534 0.85560 0.89489 0.84600
Cu	Cu	0.39980 0.06746 0.79220 0.84200
S 	S 	0.27217 0.90337 0.92709 -0.75900
S 	S 	0.46544 0.09889 0.07376 -0.69400
S 	S 	0.36583 0.99610 0.82305 -0.67500
S 	S 	0.41774 0.09392 0.89500 -0.68400
S 	S 	0.28732 0.02562 0.92950 -0.83600
S 	S 	0.47312 0.02321 0.93125 -0.67900
O 	O 	0.57969 0.22250 0.18797 -0.41300
O 	O 	0.61780 0.21808 0.10147 -0.39800
O 	O 	0.35200 0.99770 0.59327 -0.32500
O 	O 	0.27890 0.95020 0.63047 -0.29200
O 	O 	0.48674 0.22224 0.75077 -0.30600
O 	O 	0.54481 0.22948 0.80767 -0.31800
O 	O 	0.17170 0.04830 0.83857 -0.34900
O 	O 	0.18730 0.01870 0.76247 -0.32300
O 	O 	0.62670 0.07720 0.85817 -0.35100
O 	O 	0.60970 0.12990 0.83507 -0.33500
N 	N 	0.23314 0.81809 0.85867 -0.25500
H 	H 	0.23510 0.80790 0.81857 0.07000
H 	H 	0.21720 0.79370 0.88477 0.08500
N 	N 	0.50508 0.19071 0.12567 -0.26900
H 	H 	0.51080 0.21800 0.11007 0.09600
H 	H 	0.50830 0.19330 0.16977 0.08900
N 	N 	0.36800 0.04438 0.70537 -0.28700
H 	H 	0.35530 0.06120 0.69357 0.06200
H 	H 	0.38900 0.04870 0.67467 0.11400
N 	N 	0.44404 0.13026 0.76167 -0.28100
H 	H 	0.45900 0.12790 0.72657 0.10600
H 	H 	0.42810 0.14340 0.74777 0.08000
N 	N 	0.19530 0.00790 0.92447 -0.20600
H 	H 	0.16810 0.98200 0.92087 0.07200
H 	H 	0.18960 0.03040 0.93517 0.08100
N 	N 	0.56040 0.03620 0.95397 -0.29500
H 	H 	0.58310 0.05050 0.98337 0.05600
H 	H 	0.56680 0.01770 0.92997 0.08000
C 	C 	0.21070 0.87000 0.90267 0.88800
C 	C 	0.20890 0.84280 0.85307 -0.41600
H 	H 	0.22130 0.86240 0.81437 0.11600
C 	C 	0.18870 0.84450 0.96037 -1.19300
H 	H 	0.19620 0.82090 0.96647 0.33600
H 	H 	0.15630 0.83110 0.95567 0.32600
H 	H 	0.19880 0.86440 0.99787 0.30200
C 	C 	0.20320 0.90340 0.88397 -1.35500
H 	H 	0.20540 0.92170 0.92137 0.35300
H 	H 	0.17330 0.89050 0.86507 0.39400
H 	H 	0.22560 0.92220 0.85187 0.36500
C 	C 	0.52407 0.13363 0.10457 0.40800
C 	C 	0.53915 0.18127 0.09977 -0.31100
H 	H 	0.54140 0.18820 0.05267 0.07700
C 	C 	0.58170 0.20800 0.12487 0.36100
C 	C 	0.52520 0.12160 0.17387 -0.69800
H 	H 	0.51510 0.08970 0.17707 0.18400
H 	H 	0.50550 0.12840 0.19937 0.19900
H 	H 	0.55580 0.13900 0.19027 0.21900
C 	C 	0.55290 0.11910 0.06547 -0.64900
H 	H 	0.54090 0.08700 0.07047 0.15800
H 	H 	0.58370 0.13520 0.08127 0.19300
H 	H 	0.55240 0.12610 0.01977 0.16400
C 	C 	0.34653 0.96914 0.74197 0.27700
C 	C 	0.33328 0.99728 0.70480 -0.18700
H 	H 	0.30570 0.99450 0.72467 0.05500
C 	C 	0.32210 0.97870 0.63505 0.28300
C 	C 	0.38920 0.97060 0.70927 -0.54800
H 	H 	0.39780 0.95200 0.73397 0.14600
H 	H 	0.41410 0.00150 0.70867 0.16000
H 	H 	0.38190 0.95940 0.66497 0.17000
C 	C 	0.30510 0.91970 0.75107 -0.54000
H 	H 	0.31460 0.90180 0.77577 0.12600
H 	H 	0.29420 0.90610 0.70877 0.17200
H 	H 	0.28120 0.92120 0.77427 0.13800
C 	C 	0.45115 0.15645 0.87377 0.36900
C 	C 	0.47650 0.15961 0.80717 -0.22900
H 	H 	0.49660 0.14720 0.81607 0.07900
C 	C 	0.50540 0.20600 0.78797 0.33500
C 	C 	0.41587 0.16862 0.86837 -0.65400
H 	H 	0.39560 0.15180 0.83297 0.15600
H 	H 	0.42960 0.20070 0.85987 0.18400
H 	H 	0.39900 0.16140 0.90877 0.15100
C 	C 	0.48457 0.17863 0.92657 -0.66000
H 	H 	0.50580 0.16770 0.92627 0.17400
H 	H 	0.46910 0.17170 0.96817 0.16000
H 	H 	0.50070 0.21110 0.91987 0.19800
C 	C 	0.26327 0.04897 0.86897 1.09600
C 	C 	0.21420 0.01704 0.86757 -0.55300
H 	H 	0.21040 0.98830 0.85057 0.15700
C 	C 	0.18990 0.03187 0.81907 0.49800
C 	C 	0.27430 0.09150 0.88587 -1.51700
H 	H 	0.25890 0.09070 0.92597 0.41600
H 	H 	0.26510 0.10470 0.85157 0.42800
H 	H 	0.30660 0.10950 0.89217 0.40400
C 	C 	0.28630 0.05300 0.81377 -1.51500
H 	H 	0.28060 0.02360 0.79997 0.42100
H 	H 	0.31840 0.07250 0.82157 0.39200
H 	H 	0.27670 0.06620 0.77997 0.43700
C 	C 	0.52013 0.04917 0.87237 0.32800
C 	C 	0.56118 0.07148 0.90857 -0.22500
H 	H 	0.56070 0.09520 0.93537 0.05900
C 	C 	0.60460 0.09610 0.85777 0.35500
C 	C 	0.51336 0.00731 0.83217 -0.57200
H 	H 	0.48470 0.99410 0.80947 0.14800
H 	H 	0.51360 0.98510 0.86127 0.14800
H 	H 	0.53760 0.01680 0.80067 0.16800
C 	C 	0.51110 0.08150 0.83037 -0.60800
H 	H 	0.48250 0.06440 0.80787 0.15500
H 	H 	0.53520 0.09660 0.79877 0.20600
H 	H 	0.51010 0.10390 0.85817 0.16700
K 	K 	0.24560 0.64906 0.68667 0.60500
O 	O 	0.58140 0.26520 0.31407 -0.40200
K 	K 	0.37460 0.06440 0.51617 0.64600
Cu	Cu	0.02145 0.33422 0.56850 0.81200
Cu	Cu	0.93024 0.29038 0.63556 0.80300
Cu	Cu	0.93275 0.37988 0.63843 0.81000
Cu	Cu	0.02466 0.42552 0.56480 0.80700
Cu	Cu	0.14440 0.43974 0.56155 0.84600
Cu	Cu	0.93254 0.33234 0.45886 0.84300
S 	S 	0.09663 0.36880 0.59375 -0.75900
S 	S 	0.90111 0.36655 0.74042 -0.69300
S 	S 	0.00390 0.36973 0.48971 -0.67800
S 	S 	0.90608 0.32382 0.56166 -0.68400
S 	S 	0.97438 0.26170 0.59616 -0.83300
S 	S 	0.97679 0.44991 0.59791 -0.67600
O 	O 	0.77750 0.35719 0.85463 -0.41300
O 	O 	0.78192 0.39972 0.76813 -0.39800
O 	O 	0.00230 0.35430 0.25993 -0.32700
O 	O 	0.04980 0.32870 0.29713 -0.29300
O 	O 	0.77776 0.26450 0.41743 -0.30600
O 	O 	0.77052 0.31533 0.47433 -0.31800
O 	O 	0.95170 0.12340 0.50523 -0.34800
O 	O 	0.98130 0.16860 0.42913 -0.32200
O 	O 	0.92280 0.54950 0.52483 -0.35100
O 	O 	0.87010 0.47980 0.50173 -0.33500
N 	N 	0.18191 0.41505 0.52533 -0.25500
H 	H 	0.19210 0.42720 0.48523 0.07000
H 	H 	0.20630 0.42350 0.55143 0.08500
N 	N 	0.80929 0.31437 0.79233 -0.26900
H 	H 	0.78200 0.29280 0.77673 0.09600
H 	H 	0.80670 0.31500 0.83643 0.08900
N 	N 	0.95562 0.32362 0.37203 -0.28500
H 	H 	0.93880 0.29410 0.36023 0.06200
H 	H 	0.95130 0.34030 0.34133 0.11400
N 	N 	0.86974 0.31378 0.42833 -0.28100
H 	H 	0.87210 0.33110 0.39323 0.10600
H 	H 	0.85660 0.28470 0.41443 0.08000
N 	N 	0.99210 0.18740 0.59113 -0.20500
H 	H 	0.01800 0.18610 0.58753 0.07000
H 	H 	0.96960 0.15920 0.60183 0.08100
N 	N 	0.96380 0.52420 0.62063 -0.29600
H 	H 	0.94950 0.53260 0.65003 0.05600
H 	H 	0.98230 0.54910 0.59663 0.08100
C 	C 	0.13000 0.34070 0.56933 0.88700
C 	C 	0.15720 0.36610 0.51973 -0.41500
H 	H 	0.13760 0.35890 0.48103 0.11600
C 	C 	0.15550 0.34420 0.62703 -1.19100
H 	H 	0.17910 0.37530 0.63313 0.33500
H 	H 	0.16890 0.32520 0.62233 0.32500
H 	H 	0.13560 0.33440 0.66453 0.30100
C 	C 	0.09660 0.29980 0.55063 -1.35200
H 	H 	0.07830 0.28370 0.58803 0.35200
H 	H 	0.10950 0.28280 0.53173 0.39300
H 	H 	0.07780 0.30340 0.51853 0.36400
C 	C 	0.86637 0.39044 0.77123 0.40800
C 	C 	0.81873 0.35788 0.76643 -0.31100
H 	H 	0.81180 0.35320 0.71933 0.07700
C 	C 	0.79200 0.37370 0.79153 0.36200
C 	C 	0.87840 0.40360 0.84053 -0.69900
H 	H 	0.91030 0.42540 0.84373 0.18400
H 	H 	0.87160 0.37710 0.86603 0.19900
H 	H 	0.86100 0.41680 0.85693 0.22000
C 	C 	0.88090 0.43380 0.73213 -0.65000
H 	H 	0.91300 0.45390 0.73713 0.15800
H 	H 	0.86480 0.44850 0.74793 0.19300
H 	H 	0.87390 0.42630 0.68643 0.16500
C 	C 	0.03086 0.37739 0.40863 0.28000
C 	C 	0.00272 0.33600 0.37146 -0.19000
H 	H 	0.00550 0.31120 0.39133 0.05500
C 	C 	0.02130 0.34340 0.30171 0.28400
C 	C 	0.02940 0.41860 0.37593 -0.56000
H 	H 	0.04800 0.44580 0.40063 0.14900
H 	H 	0.99850 0.41260 0.37533 0.16600
H 	H 	0.04060 0.42250 0.33163 0.17300
C 	C 	0.08030 0.38540 0.41773 -0.54200
H 	H 	0.09820 0.41280 0.44243 0.12700
H 	H 	0.09390 0.38810 0.37543 0.17200
H 	H 	0.07880 0.36000 0.44093 0.13900
C 	C 	0.84355 0.29470 0.54043 0.36900
C 	C 	0.84039 0.31689 0.47383 -0.22900
H 	H 	0.85280 0.34940 0.48273 0.07900
C 	C 	0.79400 0.29940 0.45463 0.33500
C 	C 	0.83138 0.24725 0.53503 -0.65400
H 	H 	0.84820 0.24380 0.49963 0.15600
H 	H 	0.79930 0.22890 0.52653 0.18300
H 	H 	0.83860 0.23760 0.57543 0.15000
C 	C 	0.82137 0.30594 0.59323 -0.65900
H 	H 	0.83230 0.33810 0.59293 0.17400
H 	H 	0.82830 0.29740 0.63483 0.15900
H 	H 	0.78890 0.28960 0.58653 0.19700
C 	C 	0.95103 0.21430 0.53563 1.09300
C 	C 	0.98296 0.19716 0.53423 -0.54800
H 	H 	0.01170 0.22210 0.51723 0.15400
C 	C 	0.96813 0.15803 0.48573 0.49700
C 	C 	0.90850 0.18280 0.55253 -1.51400
H 	H 	0.90930 0.16820 0.59263 0.41500
H 	H 	0.89530 0.16040 0.51823 0.42700
H 	H 	0.89050 0.19710 0.55883 0.40200
C 	C 	0.94700 0.23330 0.48043 -1.51200
H 	H 	0.97640 0.25700 0.46663 0.42100
H 	H 	0.92750 0.24590 0.48823 0.39200
H 	H 	0.93380 0.21050 0.44663 0.43600
C 	C 	0.95083 0.47096 0.53903 0.32100
C 	C 	0.92852 0.48970 0.57523 -0.22200
H 	H 	0.90480 0.46550 0.60203 0.05800
C 	C 	0.90390 0.50850 0.52443 0.35500
C 	C 	0.99269 0.50605 0.49883 -0.54800
H 	H 	0.00590 0.49060 0.47613 0.13900
H 	H 	0.01490 0.52850 0.52793 0.13900
H 	H 	0.98320 0.52080 0.46733 0.16200
C 	C 	0.91850 0.42960 0.49703 -0.60300
H 	H 	0.93560 0.41810 0.47453 0.15400
H 	H 	0.90340 0.43860 0.46543 0.20500
H 	H 	0.89610 0.40620 0.52483 0.16500
K 	K 	0.35094 0.59654 0.35333 0.60500
O 	O 	0.73480 0.31620 0.98073 -0.40200
K 	K 	0.93560 0.31020 0.18283 0.64600
Cu	Cu	0.33422 0.31277 0.73517 0.81200
Cu	Cu	0.29038 0.36014 0.80223 0.80200
Cu	Cu	0.37988 0.44713 0.80510 0.81000
Cu	Cu	0.42552 0.40086 0.73147 0.80700
Cu	Cu	0.43974 0.29534 0.72822 0.84600
Cu	Cu	0.33234 0.39980 0.62553 0.84200
S 	S 	0.36880 0.27217 0.76042 -0.75900
S 	S 	0.36655 0.46544 0.90709 -0.69300
S 	S 	0.36973 0.36583 0.65638 -0.67700
S 	S 	0.32382 0.41774 0.72833 -0.68400
S 	S 	0.26170 0.28732 0.76283 -0.83500
S 	S 	0.44991 0.47312 0.76458 -0.67800
O 	O 	0.35719 0.57969 0.02130 -0.41400
O 	O 	0.39972 0.61780 0.93480 -0.39800
O 	O 	0.35430 0.35200 0.42660 -0.32600
O 	O 	0.32870 0.27890 0.46380 -0.29200
O 	O 	0.26450 0.48674 0.58410 -0.30600
O 	O 	0.31533 0.54481 0.64100 -0.31800
O 	O 	0.12340 0.17170 0.67190 -0.34900
O 	O 	0.16860 0.18730 0.59580 -0.32300
O 	O 	0.54950 0.62670 0.69150 -0.35100
O 	O 	0.47980 0.60970 0.66840 -0.33500
N 	N 	0.41505 0.23314 0.69200 -0.25500
H 	H 	0.42720 0.23510 0.65190 0.07000
H 	H 	0.42350 0.21720 0.71810 0.08500
N 	N 	0.31437 0.50508 0.95900 -0.26800
H 	H 	0.29280 0.51080 0.94340 0.09600
H 	H 	0.31500 0.50830 0.00310 0.08900
N 	N 	0.32362 0.36800 0.53870 -0.28600
H 	H 	0.29410 0.35530 0.52690 0.06200
H 	H 	0.34030 0.38900 0.50800 0.11400
N 	N 	0.31378 0.44404 0.59500 -0.28100
H 	H 	0.33110 0.45900 0.55990 0.10600
H 	H 	0.28470 0.42810 0.58110 0.08000
N 	N 	0.18740 0.19530 0.75780 -0.20600
H 	H 	0.18610 0.16810 0.75420 0.07100
H 	H 	0.15920 0.18960 0.76850 0.08000
N 	N 	0.52420 0.56040 0.78730 -0.29600
H 	H 	0.53260 0.58310 0.81670 0.05600
H 	H 	0.54910 0.56680 0.76330 0.08000
C 	C 	0.34070 0.21070 0.73600 0.88700
C 	C 	0.36610 0.20890 0.68640 -0.41500
H 	H 	0.35890 0.22130 0.64770 0.11600
C 	C 	0.34420 0.18870 0.79370 -1.19100
H 	H 	0.37530 0.19620 0.79980 0.33500
H 	H 	0.32520 0.15630 0.78900 0.32500
H 	H 	0.33440 0.19880 0.83120 0.30100
C 	C 	0.29980 0.20320 0.71730 -1.35300
H 	H 	0.28370 0.20540 0.75470 0.35200
H 	H 	0.28280 0.17330 0.69840 0.39300
H 	H 	0.30340 0.22560 0.68520 0.36400
C 	C 	0.39044 0.52407 0.93790 0.40900
C 	C 	0.35788 0.53915 0.93310 -0.31200
H 	H 	0.35320 0.54140 0.88600 0.07700
C 	C 	0.37370 0.58170 0.95820 0.36300
C 	C 	0.40360 0.52520 0.00720 -0.70100
H 	H 	0.42540 0.51510 0.01040 0.18400
H 	H 	0.37710 0.50550 0.03270 0.19900
H 	H 	0.41680 0.55580 0.02360 0.22000
C 	C 	0.43380 0.55290 0.89880 -0.65100
H 	H 	0.45390 0.54090 0.90380 0.15800
H 	H 	0.44850 0.58370 0.91460 0.19400
H 	H 	0.42630 0.55240 0.85310 0.16500
C 	C 	0.37739 0.34653 0.57530 0.27800
C 	C 	0.33600 0.33328 0.53813 -0.18800
H 	H 	0.31120 0.30570 0.55800 0.05500
C 	C 	0.34340 0.32210 0.46838 0.28400
C 	C 	0.41860 0.38920 0.54260 -0.55300
H 	H 	0.44580 0.39780 0.56730 0.14800
H 	H 	0.41260 0.41410 0.54200 0.16300
H 	H 	0.42250 0.38190 0.49830 0.17200
C 	C 	0.38540 0.30510 0.58440 -0.54100
H 	H 	0.41280 0.31460 0.60910 0.12600
H 	H 	0.38810 0.29420 0.54210 0.17200
H 	H 	0.36000 0.28120 0.60760 0.13800
C 	C 	0.29470 0.45115 0.70710 0.36900
C 	C 	0.31689 0.47650 0.64050 -0.22900
H 	H 	0.34940 0.49660 0.64940 0.07900
C 	C 	0.29940 0.50540 0.62130 0.33500
C 	C 	0.24725 0.41587 0.70170 -0.65400
H 	H 	0.24380 0.39560 0.66630 0.15600
H 	H 	0.22890 0.42960 0.69320 0.18300
H 	H 	0.23760 0.39900 0.74210 0.15000
C 	C 	0.30594 0.48457 0.75990 -0.65900
H 	H 	0.33810 0.50580 0.75960 0.17400
H 	H 	0.29740 0.46910 0.80150 0.15900
H 	H 	0.28960 0.50070 0.75320 0.19700
C 	C 	0.21430 0.26327 0.70230 1.09500
C 	C 	0.19716 0.21420 0.70090 -0.55100
H 	H 	0.22210 0.21040 0.68390 0.15600
C 	C 	0.15803 0.18990 0.65240 0.49800
C 	C 	0.18280 0.27430 0.71920 -1.51600
H 	H 	0.16820 0.25890 0.75930 0.41500
H 	H 	0.16040 0.26510 0.68490 0.42800
H 	H 	0.19710 0.30660 0.72550 0.40300
C 	C 	0.23330 0.28630 0.64710 -1.51400
H 	H 	0.25700 0.28060 0.63330 0.42100
H 	H 	0.24590 0.31840 0.65490 0.39200
H 	H 	0.21050 0.27670 0.61330 0.43700
C 	C 	0.47096 0.52013 0.70570 0.32500
C 	C 	0.48970 0.56118 0.74190 -0.22400
H 	H 	0.46550 0.56070 0.76870 0.05800
C 	C 	0.50850 0.60460 0.69110 0.35500
C 	C 	0.50605 0.51336 0.66550 -0.56100
H 	H 	0.49060 0.48470 0.64280 0.14400
H 	H 	0.52850 0.51360 0.69460 0.14400
H 	H 	0.52080 0.53760 0.63400 0.16500
C 	C 	0.42960 0.51110 0.66370 -0.60600
H 	H 	0.41810 0.48250 0.64120 0.15400
H 	H 	0.43860 0.53520 0.63210 0.20600
H 	H 	0.40620 0.51010 0.69150 0.16600
K 	K 	0.59654 0.24560 0.52000 0.60500
O 	O 	0.31620 0.58140 0.14740 -0.40200
K 	K 	0.31020 0.37460 0.34950 0.64600
Cu	Cu	0.68723 0.02145 0.40184 0.81200
Cu	Cu	0.63986 0.93024 0.46890 0.80300
Cu	Cu	0.55287 0.93275 0.47177 0.81000
Cu	Cu	0.59914 0.02466 0.39814 0.80700
Cu	Cu	0.70466 0.14440 0.39489 0.84600
Cu	Cu	0.60020 0.93254 0.29220 0.84300
S 	S 	0.72783 0.09663 0.42709 -0.75900
S 	S 	0.53456 0.90111 0.57376 -0.69300
S 	S 	0.63417 0.00390 0.32305 -0.67900
S 	S 	0.58226 0.90608 0.39500 -0.68400
S 	S 	0.71268 0.97438 0.42950 -0.83300
S 	S 	0.52688 0.97679 0.43125 -0.67600
O 	O 	0.42031 0.77750 0.68797 -0.41300
O 	O 	0.38220 0.78192 0.60147 -0.39800
O 	O 	0.64800 0.00230 0.09327 -0.32700
O 	O 	0.72110 0.04980 0.13047 -0.29300
O 	O 	0.51326 0.77776 0.25077 -0.30700
O 	O 	0.45519 0.77052 0.30767 -0.31800
O 	O 	0.82830 0.95170 0.33857 -0.34800
O 	O 	0.81270 0.98130 0.26247 -0.32200
O 	O 	0.37330 0.92280 0.35817 -0.35100
O 	O 	0.39030 0.87010 0.33507 -0.33500
N 	N 	0.76686 0.18191 0.35867 -0.25500
H 	H 	0.76490 0.19210 0.31857 0.07000
H 	H 	0.78280 0.20630 0.38477 0.08500
N 	N 	0.49492 0.80929 0.62567 -0.26900
H 	H 	0.48920 0.78200 0.61007 0.09600
H 	H 	0.49170 0.80670 0.66977 0.08900
N 	N 	0.63200 0.95562 0.20537 -0.28500
H 	H 	0.64470 0.93880 0.19357 0.06200
H 	H 	0.61100 0.95130 0.17467 0.11400
N 	N 	0.55596 0.86974 0.26167 -0.28100
H 	H 	0.54100 0.87210 0.22657 0.10600
H 	H 	0.57190 0.85660 0.24777 0.08000
N 	N 	0.80470 0.99210 0.42447 -0.20500
H 	H 	0.83190 0.01800 0.42087 0.06900
H 	H 	0.81040 0.96960 0.43517 0.08100
N 	N 	0.43960 0.96380 0.45397 -0.29600
H 	H 	0.41690 0.94950 0.48337 0.05600
H 	H 	0.43320 0.98230 0.42997 0.08100
C 	C 	0.78930 0.13000 0.40267 0.88700
C 	C 	0.79110 0.15720 0.35307 -0.41500
H 	H 	0.77870 0.13760 0.31437 0.11600
C 	C 	0.81130 0.15550 0.46037 -1.19100
H 	H 	0.80380 0.17910 0.46647 0.33500
H 	H 	0.84370 0.16890 0.45567 0.32500
H 	H 	0.80120 0.13560 0.49787 0.30100
C 	C 	0.79680 0.09660 0.38397 -1.35200
H 	H 	0.79460 0.07830 0.42137 0.35200
H 	H 	0.82670 0.10950 0.36507 0.39300
H 	H 	0.77440 0.07780 0.35187 0.36400
C 	C 	0.47593 0.86637 0.60457 0.40800
C 	C 	0.46085 0.81873 0.59977 -0.31100
H 	H 	0.45860 0.81180 0.55267 0.07700
C 	C 	0.41830 0.79200 0.62487 0.36200
C 	C 	0.47480 0.87840 0.67387 -0.69900
H 	H 	0.48490 0.91030 0.67707 0.18400
H 	H 	0.49450 0.87160 0.69937 0.19900
H 	H 	0.44420 0.86100 0.69027 0.21900
C 	C 	0.44710 0.88090 0.56547 -0.65000
H 	H 	0.45910 0.91300 0.57047 0.15800
H 	H 	0.41630 0.86480 0.58127 0.19300
H 	H 	0.44760 0.87390 0.51977 0.16500
C 	C 	0.65347 0.03086 0.24197 0.28000
C 	C 	0.66672 0.00272 0.20480 -0.19100
H 	H 	0.69430 0.00550 0.22467 0.05500
C 	C 	0.67790 0.02130 0.13505 0.28400
C 	C 	0.61080 0.02940 0.20927 -0.56000
H 	H 	0.60220 0.04800 0.23397 0.15000
H 	H 	0.58590 0.99850 0.20867 0.16700
H 	H 	0.61810 0.04060 0.16497 0.17300
C 	C 	0.69490 0.08030 0.25107 -0.54300
H 	H 	0.68540 0.09820 0.27577 0.12700
H 	H 	0.70580 0.09390 0.20877 0.17200
H 	H 	0.71880 0.07880 0.27427 0.13900
C 	C 	0.54885 0.84355 0.37377 0.36900
C 	C 	0.52350 0.84039 0.30717 -0.22900
H 	H 	0.50340 0.85280 0.31607 0.07900
C 	C 	0.49460 0.79400 0.28797 0.33500
C 	C 	0.58413 0.83138 0.36837 -0.65400
H 	H 	0.60440 0.84820 0.33297 0.15600
H 	H 	0.57040 0.79930 0.35987 0.18300
H 	H 	0.60100 0.83860 0.40877 0.15000
C 	C 	0.51543 0.82137 0.42657 -0.65800
H 	H 	0.49420 0.83230 0.42627 0.17400
H 	H 	0.53090 0.82830 0.46817 0.15900
H 	H 	0.49930 0.78890 0.41987 0.19700
C 	C 	0.73673 0.95103 0.36897 1.09300
C 	C 	0.78580 0.98296 0.36757 -0.54700
H 	H 	0.78960 0.01170 0.35057 0.15400
C 	C 	0.81010 0.96813 0.31907 0.49700
C 	C 	0.72570 0.90850 0.38587 -1.51300
H 	H 	0.74110 0.90930 0.42597 0.41500
H 	H 	0.73490 0.89530 0.35157 0.42700
H 	H 	0.69340 0.89050 0.39217 0.40200
C 	C 	0.71370 0.94700 0.31377 -1.51200
H 	H 	0.71940 0.97640 0.29997 0.42100
H 	H 	0.68160 0.92750 0.32157 0.39200
H 	H 	0.72330 0.93380 0.27997 0.43600
C 	C 	0.47987 0.95083 0.37237 0.32100
C 	C 	0.43882 0.92852 0.40857 -0.22200
H 	H 	0.43930 0.90480 0.43537 0.05800
C 	C 	0.39540 0.90390 0.35777 0.35500
C 	C 	0.48664 0.99269 0.33217 -0.54800
H 	H 	0.51530 0.00590 0.30947 0.13900
H 	H 	0.48640 0.01490 0.36127 0.13900
H 	H 	0.46240 0.98320 0.30067 0.16200
C 	C 	0.48890 0.91850 0.33037 -0.60300
H 	H 	0.51750 0.93560 0.30787 0.15400
H 	H 	0.46480 0.90340 0.29877 0.20500
H 	H 	0.48990 0.89610 0.35817 0.16500
K 	K 	0.75440 0.35094 0.18667 0.60500
O 	O 	0.41860 0.73480 0.81407 -0.40200
K 	K 	0.62540 0.93560 0.01617 0.64600
Cu	Cu	0.97855 0.66578 0.06850 0.81300
Cu	Cu	0.06976 0.70962 0.13556 0.80200
Cu	Cu	0.06725 0.62012 0.13843 0.81000
Cu	Cu	0.97534 0.57448 0.06480 0.80700
Cu	Cu	0.85560 0.56026 0.06155 0.84600
Cu	Cu	0.06746 0.66766 0.95886 0.84200
S 	S 	0.90337 0.63120 0.09375 -0.76000
S 	S 	0.09889 0.63345 0.24042 -0.69300
S 	S 	0.99610 0.63027 0.98971 -0.67400
S 	S 	0.09392 0.67618 0.06166 -0.68500
S 	S 	0.02562 0.73830 0.09616 -0.83700
S 	S 	0.02321 0.55009 0.09791 -0.68000
O 	O 	0.22250 0.64281 0.35463 -0.41300
O 	O 	0.21808 0.60028 0.26813 -0.39800
O 	O 	0.99770 0.64570 0.75993 -0.32500
O 	O 	0.95020 0.67130 0.79713 -0.29100
O 	O 	0.22224 0.73550 0.91743 -0.30600
O 	O 	0.22948 0.68467 0.97433 -0.31700
O 	O 	0.04830 0.87660 0.00523 -0.35000
O 	O 	0.01870 0.83140 0.92913 -0.32400
O 	O 	0.07720 0.45050 0.02483 -0.35200
O 	O 	0.12990 0.52020 0.00173 -0.33600
N 	N 	0.81809 0.58495 0.02533 -0.25500
H 	H 	0.80790 0.57280 0.98523 0.07100
H 	H 	0.79370 0.57650 0.05143 0.08500
N 	N 	0.19071 0.68563 0.29233 -0.26900
H 	H 	0.21800 0.70720 0.27673 0.09600
H 	H 	0.19330 0.68500 0.33643 0.08900
N 	N 	0.04438 0.67638 0.87203 -0.28700
H 	H 	0.06120 0.70590 0.86023 0.06200
H 	H 	0.04870 0.65970 0.84133 0.11400
N 	N 	0.13026 0.68622 0.92833 -0.28100
H 	H 	0.12790 0.66890 0.89323 0.10600
H 	H 	0.14340 0.71530 0.91443 0.08000
N 	N 	0.00790 0.81260 0.09113 -0.20600
H 	H 	0.98200 0.81390 0.08753 0.07200
H 	H 	0.03040 0.84080 0.10183 0.08000
N 	N 	0.03620 0.47580 0.12063 -0.29500
H 	H 	0.05050 0.46740 0.15003 0.05500
H 	H 	0.01770 0.45090 0.09663 0.07900
C 	C 	0.87000 0.65930 0.06933 0.88900
C 	C 	0.84280 0.63390 0.01973 -0.41700
H 	H 	0.86240 0.64110 0.98103 0.11800
C 	C 	0.84450 0.65580 0.12703 -1.19400
H 	H 	0.82090 0.62470 0.13313 0.33600
H 	H 	0.83110 0.67480 0.12233 0.32600
H 	H 	0.86440 0.66560 0.16453 0.30100
C 	C 	0.90340 0.70020 0.05063 -1.35600
H 	H 	0.92170 0.71630 0.08803 0.35300
H 	H 	0.89050 0.71720 0.03173 0.39400
H 	H 	0.92220 0.69660 0.01853 0.36500
C 	C 	0.13363 0.60956 0.27123 0.40800
C 	C 	0.18127 0.64212 0.26643 -0.31100
H 	H 	0.18820 0.64680 0.21933 0.07700
C 	C 	0.20800 0.62630 0.29153 0.36200
C 	C 	0.12160 0.59640 0.34053 -0.69800
H 	H 	0.08970 0.57460 0.34373 0.18400
H 	H 	0.12840 0.62290 0.36603 0.19900
H 	H 	0.13900 0.58320 0.35693 0.21900
C 	C 	0.11910 0.56620 0.23213 -0.65000
H 	H 	0.08700 0.54610 0.23713 0.15800
H 	H 	0.13520 0.55150 0.24793 0.19300
H 	H 	0.12610 0.57370 0.18643 0.16400
C 	C 	0.96914 0.62261 0.90863 0.27600
C 	C 	0.99728 0.66400 0.87146 -0.18600
H 	H 	0.99450 0.68880 0.89133 0.05500
C 	C 	0.97870 0.65660 0.80171 0.28300
C 	C 	0.97060 0.58140 0.87593 -0.54600
H 	H 	0.95200 0.55420 0.90063 0.14600
H 	H 	0.00150 0.58740 0.87533 0.15900
H 	H 	0.95940 0.57750 0.83163 0.17000
C 	C 	0.91970 0.61460 0.91773 -0.54000
H 	H 	0.90180 0.58720 0.94243 0.12600
H 	H 	0.90610 0.61190 0.87543 0.17200
H 	H 	0.92120 0.64000 0.94093 0.13800
C 	C 	0.15645 0.70530 0.04043 0.36900
C 	C 	0.15961 0.68311 0.97383 -0.22900
H 	H 	0.14720 0.65060 0.98273 0.07900
C 	C 	0.20600 0.70060 0.95463 0.33500
C 	C 	0.16862 0.75275 0.03503 -0.65700
H 	H 	0.15180 0.75620 0.99963 0.15700
H 	H 	0.20070 0.77110 0.02653 0.18400
H 	H 	0.16140 0.76240 0.07543 0.15100
C 	C 	0.17863 0.69406 0.09323 -0.65900
H 	H 	0.16770 0.66190 0.09293 0.17400
H 	H 	0.17170 0.70260 0.13483 0.15900
H 	H 	0.21110 0.71040 0.08653 0.19700
C 	C 	0.04897 0.78570 0.03563 1.09400
C 	C 	0.01704 0.80284 0.03423 -0.55400
H 	H 	0.98830 0.77790 0.01723 0.15700
C 	C 	0.03187 0.84197 0.98573 0.50000
C 	C 	0.09150 0.81720 0.05253 -1.51500
H 	H 	0.09070 0.83180 0.09263 0.41500
H 	H 	0.10470 0.83960 0.01823 0.42700
H 	H 	0.10950 0.80290 0.05883 0.40300
C 	C 	0.05300 0.76670 0.98043 -1.51100
H 	H 	0.02360 0.74300 0.96663 0.42000
H 	H 	0.07250 0.75410 0.98823 0.39200
H 	H 	0.06620 0.78950 0.94663 0.43600
C 	C 	0.04917 0.52904 0.03903 0.32400
C 	C 	0.07148 0.51030 0.07523 -0.22400
H 	H 	0.09520 0.53450 0.10203 0.05800
C 	C 	0.09610 0.49150 0.02443 0.35500
C 	C 	0.00731 0.49395 0.99883 -0.56700
H 	H 	0.99410 0.50940 0.97613 0.14700
H 	H 	0.98510 0.47150 0.02793 0.14700
H 	H 	0.01680 0.47920 0.96733 0.16700
C 	C 	0.08150 0.57040 0.99703 -0.60200
H 	H 	0.06440 0.58190 0.97453 0.15300
H 	H 	0.09660 0.56140 0.96543 0.20500
H 	H 	0.10390 0.59380 0.02483 0.16400
K 	K 	0.64906 0.40346 0.85333 0.60500
O 	O 	0.26520 0.68380 0.48073 -0.40200
K 	K 	0.06440 0.68980 0.68283 0.64600
Cu	Cu	0.68723 0.66578 0.43150 0.81200
Cu	Cu	0.63986 0.70962 0.36444 0.80200
Cu	Cu	0.55287 0.62012 0.36157 0.81000
Cu	Cu	0.59914 0.57448 0.43520 0.80700
Cu	Cu	0.70466 0.56026 0.43845 0.84600
Cu	Cu	0.60020 0.66766 0.54114 0.84200
S 	S 	0.72783 0.63120 0.40625 -0.75900
S 	S 	0.53456 0.63345 0.25958 -0.69300
S 	S 	0.63417 0.63027 0.51029 -0.67700
S 	S 	0.58226 0.67618 0.43834 -0.68400
S 	S 	0.71268 0.73830 0.40384 -0.83500
S 	S 	0.52688 0.55009 0.40209 -0.67800
O 	O 	0.42031 0.64281 0.14537 -0.41300
O 	O 	0.38220 0.60028 0.23187 -0.39800
O 	O 	0.64800 0.64570 0.74007 -0.32600
O 	O 	0.72110 0.67130 0.70287 -0.29200
O 	O 	0.51326 0.73550 0.58257 -0.30600
O 	O 	0.45519 0.68467 0.52567 -0.31800
O 	O 	0.82830 0.87660 0.49477 -0.34800
O 	O 	0.81270 0.83140 0.57087 -0.32200
O 	O 	0.37330 0.45050 0.47517 -0.35100
O 	O 	0.39030 0.52020 0.49827 -0.33500
N 	N 	0.76686 0.58495 0.47467 -0.25500
H 	H 	0.76490 0.57280 0.51477 0.07000
H 	H 	0.78280 0.57650 0.44857 0.08500
N 	N 	0.49492 0.68563 0.20767 -0.26900
H 	H 	0.48920 0.70720 0.22327 0.09600
H 	H 	0.49170 0.68500 0.16357 0.08900
N 	N 	0.63200 0.67638 0.62797 -0.28600
H 	H 	0.64470 0.70590 0.63977 0.06200
H 	H 	0.61100 0.65970 0.65867 0.11400
N 	N 	0.55596 0.68622 0.57167 -0.28100
H 	H 	0.54100 0.66890 0.60677 0.10600
H 	H 	0.57190 0.71530 0.58557 0.08000
N 	N 	0.80470 0.81260 0.40887 -0.20600
H 	H 	0.83190 0.81390 0.41247 0.07100
H 	H 	0.81040 0.84080 0.39817 0.08100
N 	N 	0.43960 0.47580 0.37937 -0.29600
H 	H 	0.41690 0.46740 0.34997 0.05600
H 	H 	0.43320 0.45090 0.40337 0.08000
C 	C 	0.78930 0.65930 0.43067 0.88700
C 	C 	0.79110 0.63390 0.48027 -0.41500
H 	H 	0.77870 0.64110 0.51897 0.11600
C 	C 	0.81130 0.65580 0.37297 -1.19200
H 	H 	0.80380 0.62470 0.36687 0.33500
H 	H 	0.84370 0.67480 0.37767 0.32500
H 	H 	0.80120 0.66560 0.33547 0.30100
C 	C 	0.79680 0.70020 0.44937 -1.35400
H 	H 	0.79460 0.71630 0.41197 0.35300
H 	H 	0.82670 0.71720 0.46827 0.39300
H 	H 	0.77440 0.69660 0.48147 0.36400
C 	C 	0.47593 0.60956 0.22877 0.40800
C 	C 	0.46085 0.64212 0.23357 -0.31100
H 	H 	0.45860 0.64680 0.28067 0.07700
C 	C 	0.41830 0.62630 0.20847 0.36200
C 	C 	0.47480 0.59640 0.15947 -0.69800
H 	H 	0.48490 0.57460 0.15627 0.18400
H 	H 	0.49450 0.62290 0.13397 0.19900
H 	H 	0.44420 0.58320 0.14307 0.21900
C 	C 	0.44710 0.56620 0.26787 -0.65000
H 	H 	0.45910 0.54610 0.26287 0.15800
H 	H 	0.41630 0.55150 0.25207 0.19300
H 	H 	0.44760 0.57370 0.31357 0.16400
C 	C 	0.65347 0.62261 0.59137 0.27800
C 	C 	0.66672 0.66400 0.62854 -0.18800
H 	H 	0.69430 0.68880 0.60867 0.05500
C 	C 	0.67790 0.65660 0.69829 0.28400
C 	C 	0.61080 0.58140 0.62407 -0.55300
H 	H 	0.60220 0.55420 0.59937 0.14800
H 	H 	0.58590 0.58740 0.62467 0.16300
H 	H 	0.61810 0.57750 0.66837 0.17200
C 	C 	0.69490 0.61460 0.58227 -0.54100
H 	H 	0.68540 0.58720 0.55757 0.12600
H 	H 	0.70580 0.61190 0.62457 0.17200
H 	H 	0.71880 0.64000 0.55907 0.13800
C 	C 	0.54885 0.70530 0.45957 0.36900
C 	C 	0.52350 0.68311 0.52617 -0.22900
H 	H 	0.50340 0.65060 0.51727 0.07900
C 	C 	0.49460 0.70060 0.54537 0.33500
C 	C 	0.58413 0.75275 0.46497 -0.65400
H 	H 	0.60440 0.75620 0.50037 0.15600
H 	H 	0.57040 0.77110 0.47347 0.18300
H 	H 	0.60100 0.76240 0.42457 0.15000
C 	C 	0.51543 0.69406 0.40677 -0.65900
H 	H 	0.49420 0.66190 0.40707 0.17400
H 	H 	0.53090 0.70260 0.36517 0.15900
H 	H 	0.49930 0.71040 0.41347 0.19700
C 	C 	0.73673 0.78570 0.46437 1.09500
C 	C 	0.78580 0.80284 0.46577 -0.55100
H 	H 	0.78960 0.77790 0.48277 0.15600
C 	C 	0.81010 0.84197 0.51427 0.49700
C 	C 	0.72570 0.81720 0.44747 -1.51600
H 	H 	0.74110 0.83180 0.40737 0.41500
H 	H 	0.73490 0.83960 0.48177 0.42800
H 	H 	0.69340 0.80290 0.44117 0.40300
C 	C 	0.71370 0.76670 0.51957 -1.51400
H 	H 	0.71940 0.74300 0.53337 0.42100
H 	H 	0.68160 0.75410 0.51177 0.39200
H 	H 	0.72330 0.78950 0.55337 0.43700
C 	C 	0.47987 0.52904 0.46097 0.32500
C 	C 	0.43882 0.51030 0.42477 -0.22400
H 	H 	0.43930 0.53450 0.39797 0.05800
C 	C 	0.39540 0.49150 0.47557 0.35500
C 	C 	0.48664 0.49395 0.50117 -0.56100
H 	H 	0.51530 0.50940 0.52387 0.14400
H 	H 	0.48640 0.47150 0.47207 0.14400
H 	H 	0.46240 0.47920 0.53267 0.16500
C 	C 	0.48890 0.57040 0.50297 -0.60600
H 	H 	0.51750 0.58190 0.52547 0.15400
H 	H 	0.46480 0.56140 0.53457 0.20600
H 	H 	0.48990 0.59380 0.47517 0.16600
K 	K 	0.75440 0.40346 0.64667 0.60500
O 	O 	0.41860 0.68380 0.01927 -0.40300
K 	K 	0.62540 0.68980 0.81717 0.64600
Cu	Cu	0.97855 0.31277 0.76483 0.81300
Cu	Cu	0.06976 0.36014 0.69777 0.80200
Cu	Cu	0.06725 0.44713 0.69490 0.81000
Cu	Cu	0.97534 0.40086 0.76853 0.80800
Cu	Cu	0.85560 0.29534 0.77178 0.84600
Cu	Cu	0.06746 0.39980 0.87447 0.84200
S 	S 	0.90337 0.27217 0.73958 -0.75900
S 	S 	0.09889 0.46544 0.59291 -0.69300
S 	S 	0.99610 0.36583 0.84362 -0.67500
S 	S 	0.09392 0.41774 0.77167 -0.68500
S 	S 	0.02562 0.28732 0.73717 -0.83700
S 	S 	0.02321 0.47312 0.73542 -0.68100
O 	O 	0.22250 0.57969 0.47870 -0.41300
O 	O 	0.21808 0.61780 0.56520 -0.39800
O 	O 	0.99770 0.35200 0.07340 -0.32500
O 	O 	0.95020 0.27890 0.03620 -0.29200
O 	O 	0.22224 0.48674 0.91590 -0.30600
O 	O 	0.22948 0.54481 0.85900 -0.31800
O 	O 	0.04830 0.17170 0.82810 -0.34900
O 	O 	0.01870 0.18730 0.90420 -0.32300
O 	O 	0.07720 0.62670 0.80850 -0.35100
O 	O 	0.12990 0.60970 0.83160 -0.33500
N 	N 	0.81809 0.23314 0.80800 -0.25500
H 	H 	0.80790 0.23510 0.84810 0.07000
H 	H 	0.79370 0.21720 0.78190 0.08500
N 	N 	0.19071 0.50508 0.54100 -0.26900
H 	H 	0.21800 0.51080 0.55660 0.09600
H 	H 	0.19330 0.50830 0.49690 0.08900
N 	N 	0.04438 0.36800 0.96130 -0.28700
H 	H 	0.06120 0.35530 0.97310 0.06200
H 	H 	0.04870 0.38900 0.99200 0.11400
N 	N 	0.13026 0.44404 0.90500 -0.28100
H 	H 	0.12790 0.45900 0.94010 0.10600
H 	H 	0.14340 0.42810 0.91890 0.08000
N 	N 	0.00790 0.19530 0.74220 -0.20600
H 	H 	0.98200 0.16810 0.74580 0.07200
H 	H 	0.03040 0.18960 0.73150 0.08000
N 	N 	0.03620 0.56040 0.71270 -0.29500
H 	H 	0.05050 0.58310 0.68330 0.05500
H 	H 	0.01770 0.56680 0.73670 0.07900
C 	C 	0.87000 0.21070 0.76400 0.88800
C 	C 	0.84280 0.20890 0.81360 -0.41500
H 	H 	0.86240 0.22130 0.85230 0.11600
C 	C 	0.84450 0.18870 0.70630 -1.19200
H 	H 	0.82090 0.19620 0.70020 0.33500
H 	H 	0.83110 0.15630 0.71100 0.32500
H 	H 	0.86440 0.19880 0.66880 0.30100
C 	C 	0.90340 0.20320 0.78270 -1.35400
H 	H 	0.92170 0.20540 0.74530 0.35300
H 	H 	0.89050 0.17330 0.80160 0.39400
H 	H 	0.92220 0.22560 0.81480 0.36500
C 	C 	0.13363 0.52407 0.56210 0.40800
C 	C 	0.18127 0.53915 0.56690 -0.31100
H 	H 	0.18820 0.54140 0.61400 0.07700
C 	C 	0.20800 0.58170 0.54180 0.36200
C 	C 	0.12160 0.52520 0.49280 -0.69900
H 	H 	0.08970 0.51510 0.48960 0.18400
H 	H 	0.12840 0.50550 0.46730 0.19900
H 	H 	0.13900 0.55580 0.47640 0.21900
C 	C 	0.11910 0.55290 0.60120 -0.65000
H 	H 	0.08700 0.54090 0.59620 0.15800
H 	H 	0.13520 0.58370 0.58540 0.19300
H 	H 	0.12610 0.55240 0.64690 0.16400
C 	C 	0.96914 0.34653 0.92470 0.27500
C 	C 	0.99728 0.33328 0.96187 -0.18400
H 	H 	0.99450 0.30570 0.94200 0.05500
C 	C 	0.97870 0.32210 0.03162 0.28200
C 	C 	0.97060 0.38920 0.95740 -0.54200
H 	H 	0.95200 0.39780 0.93270 0.14500
H 	H 	0.00150 0.41410 0.95800 0.15800
H 	H 	0.95940 0.38190 0.00170 0.16800
C 	C 	0.91970 0.30510 0.91560 -0.53900
H 	H 	0.90180 0.31460 0.89090 0.12600
H 	H 	0.90610 0.29420 0.95790 0.17200
H 	H 	0.92120 0.28120 0.89240 0.13800
C 	C 	0.15645 0.45115 0.79290 0.36900
C 	C 	0.15961 0.47650 0.85950 -0.22900
H 	H 	0.14720 0.49660 0.85060 0.07900
C 	C 	0.20600 0.50540 0.87870 0.33500
C 	C 	0.16862 0.41587 0.79830 -0.65400
H 	H 	0.15180 0.39560 0.83370 0.15600
H 	H 	0.20070 0.42960 0.80680 0.18300
H 	H 	0.16140 0.39900 0.75790 0.15000
C 	C 	0.17863 0.48457 0.74010 -0.65900
H 	H 	0.16770 0.50580 0.74040 0.17400
H 	H 	0.17170 0.46910 0.69850 0.15900
H 	H 	0.21110 0.50070 0.74680 0.19800
C 	C 	0.04897 0.26327 0.79770 1.09700
C 	C 	0.01704 0.21420 0.79910 -0.55400
H 	H 	0.98830 0.21040 0.81610 0.15800
C 	C 	0.03187 0.18990 0.84760 0.49800
C 	C 	0.09150 0.27430 0.78080 -1.51800
H 	H 	0.09070 0.25890 0.74070 0.41600
H 	H 	0.10470 0.26510 0.81510 0.42800
H 	H 	0.10950 0.30660 0.77450 0.40400
C 	C 	0.05300 0.28630 0.85290 -1.51600
H 	H 	0.02360 0.28060 0.86670 0.42100
H 	H 	0.07250 0.31840 0.84510 0.39300
H 	H 	0.06620 0.27670 0.88670 0.43700
C 	C 	0.04917 0.52013 0.79430 0.32900
C 	C 	0.07148 0.56118 0.75810 -0.22500
H 	H 	0.09520 0.56070 0.73130 0.05900
C 	C 	0.09610 0.60460 0.80890 0.35600
C 	C 	0.00731 0.51336 0.83450 -0.57500
H 	H 	0.99410 0.48470 0.85720 0.14900
H 	H 	0.98510 0.51360 0.80540 0.15000
H 	H 	0.01680 0.53760 0.86600 0.16900
C 	C 	0.08150 0.51110 0.83630 -0.60900
H 	H 	0.06440 0.48250 0.85880 0.15500
H 	H 	0.09660 0.53520 0.86790 0.20700
H 	H 	0.10390 0.51010 0.80850 0.16700
K 	K 	0.64906 0.24560 0.98000 0.60600
O 	O 	0.26520 0.58140 0.35260 -0.40200
K 	K 	0.06440 0.37460 0.15050 0.64600
Cu	Cu	0.33422 0.02145 0.09816 0.81200
Cu	Cu	0.29038 0.93024 0.03110 0.80200
Cu	Cu	0.37988 0.93275 0.02823 0.81000
Cu	Cu	0.42552 0.02466 0.10186 0.80700
Cu	Cu	0.43974 0.14440 0.10511 0.84600
Cu	Cu	0.33234 0.93254 0.20780 0.84300
S 	S 	0.36880 0.09663 0.07291 -0.76000
S 	S 	0.36655 0.90111 0.92624 -0.69200
S 	S 	0.36973 0.00390 0.17695 -0.67900
S 	S 	0.32382 0.90608 0.10500 -0.68400
S 	S 	0.26170 0.97438 0.07050 -0.83400
S 	S 	0.44991 0.97679 0.06875 -0.67600
O 	O 	0.35719 0.77750 0.81203 -0.41300
O 	O 	0.39972 0.78192 0.89853 -0.39700
O 	O 	0.35430 0.00230 0.40673 -0.32700
O 	O 	0.32870 0.04980 0.36953 -0.29300
O 	O 	0.26450 0.77776 0.24923 -0.30600
O 	O 	0.31533 0.77052 0.19233 -0.31800
O 	O 	0.12340 0.95170 0.16143 -0.34800
O 	O 	0.16860 0.98130 0.23753 -0.32200
O 	O 	0.54950 0.92280 0.14183 -0.35100
O 	O 	0.47980 0.87010 0.16493 -0.33500
N 	N 	0.41505 0.18191 0.14133 -0.25500
H 	H 	0.42720 0.19210 0.18143 0.07000
H 	H 	0.42350 0.20630 0.11523 0.08500
N 	N 	0.31437 0.80929 0.87433 -0.26900
H 	H 	0.29280 0.78200 0.88993 0.09600
H 	H 	0.31500 0.80670 0.83023 0.08900
N 	N 	0.32362 0.95562 0.29463 -0.28500
H 	H 	0.29410 0.93880 0.30643 0.06200
H 	H 	0.34030 0.95130 0.32533 0.11400
N 	N 	0.31378 0.86974 0.23833 -0.28100
H 	H 	0.33110 0.87210 0.27343 0.10600
H 	H 	0.28470 0.85660 0.25223 0.08000
N 	N 	0.18740 0.99210 0.07553 -0.20500
H 	H 	0.18610 0.01800 0.07913 0.06900
H 	H 	0.15920 0.96960 0.06483 0.08000
N 	N 	0.52420 0.96380 0.04603 -0.29600
H 	H 	0.53260 0.94950 0.01663 0.05600
H 	H 	0.54910 0.98230 0.07003 0.08100
C 	C 	0.34070 0.13000 0.09733 0.88500
C 	C 	0.36610 0.15720 0.14693 -0.41400
H 	H 	0.35890 0.13760 0.18563 0.11600
C 	C 	0.34420 0.15550 0.03963 -1.18900
H 	H 	0.37530 0.17910 0.03353 0.33400
H 	H 	0.32520 0.16890 0.04433 0.32400
H 	H 	0.33440 0.13560 0.00213 0.30000
C 	C 	0.29980 0.09660 0.11603 -1.35000
H 	H 	0.28370 0.07830 0.07863 0.35100
H 	H 	0.28280 0.10950 0.13493 0.39200
H 	H 	0.30340 0.07780 0.14813 0.36300
C 	C 	0.39044 0.86637 0.89543 0.40800
C 	C 	0.35788 0.81873 0.90023 -0.31100
H 	H 	0.35320 0.81180 0.94733 0.07700
C 	C 	0.37370 0.79200 0.87513 0.36200
C 	C 	0.40360 0.87840 0.82613 -0.69900
H 	H 	0.42540 0.91030 0.82293 0.18400
H 	H 	0.37710 0.87160 0.80063 0.19900
H 	H 	0.41680 0.86100 0.80973 0.21900
C 	C 	0.43380 0.88090 0.93453 -0.65000
H 	H 	0.45390 0.91300 0.92953 0.15900
H 	H 	0.44850 0.86480 0.91873 0.19400
H 	H 	0.42630 0.87390 0.98023 0.16500
C 	C 	0.37739 0.03086 0.25803 0.28000
C 	C 	0.33600 0.00272 0.29520 -0.19000
H 	H 	0.31120 0.00550 0.27533 0.05500
C 	C 	0.34340 0.02130 0.36495 0.28400
C 	C 	0.41860 0.02940 0.29073 -0.56000
H 	H 	0.44580 0.04800 0.26603 0.14900
H 	H 	0.41260 0.99850 0.29133 0.16600
H 	H 	0.42250 0.04060 0.33503 0.17300
C 	C 	0.38540 0.08030 0.24893 -0.54300
H 	H 	0.41280 0.09820 0.22423 0.12700
H 	H 	0.38810 0.09390 0.29123 0.17200
H 	H 	0.36000 0.07880 0.22573 0.13900
C 	C 	0.29470 0.84355 0.12623 0.36800
C 	C 	0.31689 0.84039 0.19283 -0.22900
H 	H 	0.34940 0.85280 0.18393 0.07900
C 	C 	0.29940 0.79400 0.21203 0.33500
C 	C 	0.24725 0.83138 0.13163 -0.65300
H 	H 	0.24380 0.84820 0.16703 0.15600
H 	H 	0.22890 0.79930 0.14013 0.18300
H 	H 	0.23760 0.83860 0.09123 0.15000
C 	C 	0.30594 0.82137 0.07343 -0.65800
H 	H 	0.33810 0.83230 0.07373 0.17300
H 	H 	0.29740 0.82830 0.03183 0.15800
H 	H 	0.28960 0.78890 0.08013 0.19700
C 	C 	0.21430 0.95103 0.13103 1.09300
C 	C 	0.19716 0.98296 0.13243 -0.54800
H 	H 	0.22210 0.01170 0.14943 0.15400
C 	C 	0.15803 0.96813 0.18093 0.49700
C 	C 	0.18280 0.90850 0.11413 -1.51300
H 	H 	0.16820 0.90930 0.07403 0.41400
H 	H 	0.16040 0.89530 0.14843 0.42700
H 	H 	0.19710 0.89050 0.10783 0.40200
C 	C 	0.23330 0.94700 0.18623 -1.51200
H 	H 	0.25700 0.97640 0.20003 0.42100
H 	H 	0.24590 0.92750 0.17843 0.39200
H 	H 	0.21050 0.93380 0.22003 0.43600
C 	C 	0.47096 0.95083 0.12763 0.32100
C 	C 	0.48970 0.92852 0.09143 -0.22200
H 	H 	0.46550 0.90480 0.06463 0.05700
C 	C 	0.50850 0.90390 0.14223 0.35500
C 	C 	0.50605 0.99269 0.16783 -0.54800
H 	H 	0.49060 0.00590 0.19053 0.13900
H 	H 	0.52850 0.01490 0.13873 0.13900
H 	H 	0.52080 0.98320 0.19933 0.16200
C 	C 	0.42960 0.91850 0.16963 -0.60300
H 	H 	0.41810 0.93560 0.19213 0.15400
H 	H 	0.43860 0.90340 0.20123 0.20500
H 	H 	0.40620 0.89610 0.14183 0.16500
K 	K 	0.59654 0.35094 0.31333 0.60500
O 	O 	0.31620 0.73480 0.68593 -0.40200
K 	K 	0.31020 0.93560 0.48383 0.64600
Cu	Cu	0.31277 0.33422 0.93150 0.81300
Cu	Cu	0.36014 0.29038 0.86444 0.80200
Cu	Cu	0.44713 0.37988 0.86157 0.81000
Cu	Cu	0.40086 0.42552 0.93520 0.80700
Cu	Cu	0.29534 0.43974 0.93845 0.84600
Cu	Cu	0.39980 0.33234 0.04114 0.84200
S 	S 	0.27217 0.36880 0.90625 -0.75900
S 	S 	0.46544 0.36655 0.75958 -0.69300
S 	S 	0.36583 0.36973 0.01029 -0.67800
S 	S 	0.41774 0.32382 0.93834 -0.68400
S 	S 	0.28732 0.26170 0.90384 -0.83600
S 	S 	0.47312 0.44991 0.90209 -0.67900
O 	O 	0.57969 0.35719 0.64537 -0.41300
O 	O 	0.61780 0.39972 0.73187 -0.39800
O 	O 	0.35200 0.35430 0.24007 -0.32600
O 	O 	0.27890 0.32870 0.20287 -0.29200
O 	O 	0.48674 0.26450 0.08257 -0.30700
O 	O 	0.54481 0.31533 0.02567 -0.31800
O 	O 	0.17170 0.12340 0.99477 -0.34700
O 	O 	0.18730 0.16860 0.07087 -0.32300
O 	O 	0.62670 0.54950 0.97517 -0.35000
O 	O 	0.60970 0.47980 0.99827 -0.33500
N 	N 	0.23314 0.41505 0.97467 -0.25400
H 	H 	0.23510 0.42720 0.01477 0.06900
H 	H 	0.21720 0.42350 0.94857 0.08500
N 	N 	0.50508 0.31437 0.70767 -0.26900
H 	H 	0.51080 0.29280 0.72327 0.09600
H 	H 	0.50830 0.31500 0.66357 0.08900
N 	N 	0.36800 0.32362 0.12797 -0.28600
H 	H 	0.35530 0.29410 0.13977 0.06200
H 	H 	0.38900 0.34030 0.15867 0.11400
N 	N 	0.44404 0.31378 0.07167 -0.28100
H 	H 	0.45900 0.33110 0.10677 0.10600
H 	H 	0.42810 0.28470 0.08557 0.08000
N 	N 	0.19530 0.18740 0.90887 -0.20600
H 	H 	0.16810 0.18610 0.91247 0.07100
H 	H 	0.18960 0.15920 0.89817 0.08000
N 	N 	0.56040 0.52420 0.87937 -0.29500
H 	H 	0.58310 0.53260 0.84997 0.05600
H 	H 	0.56680 0.54910 0.90337 0.08000
C 	C 	0.21070 0.34070 0.93067 0.88600
C 	C 	0.20890 0.36610 0.98027 -0.41300
H 	H 	0.22130 0.35890 0.01897 0.11500
C 	C 	0.18870 0.34420 0.87297 -1.19000
H 	H 	0.19620 0.37530 0.86687 0.33500
H 	H 	0.15630 0.32520 0.87767 0.32500
H 	H 	0.19880 0.33440 0.83547 0.30000
C 	C 	0.20320 0.29980 0.94937 -1.35200
H 	H 	0.20540 0.28370 0.91197 0.35200
H 	H 	0.17330 0.28280 0.96827 0.39300
H 	H 	0.22560 0.30340 0.98147 0.36400
C 	C 	0.52407 0.39044 0.72877 0.40800
C 	C 	0.53915 0.35788 0.73357 -0.31100
H 	H 	0.54140 0.35320 0.78067 0.07700
C 	C 	0.58170 0.37370 0.70847 0.36200
C 	C 	0.52520 0.40360 0.65947 -0.69900
H 	H 	0.51510 0.42540 0.65627 0.18400
H 	H 	0.50550 0.37710 0.63397 0.19900
H 	H 	0.55580 0.41680 0.64307 0.21900
C 	C 	0.55290 0.43380 0.76787 -0.65000
H 	H 	0.54090 0.45390 0.76287 0.15800
H 	H 	0.58370 0.44850 0.75207 0.19300
H 	H 	0.55240 0.42630 0.81357 0.16400
C 	C 	0.34653 0.37739 0.09137 0.27800
C 	C 	0.33328 0.33600 0.12854 -0.18800
H 	H 	0.30570 0.31120 0.10867 0.05500
C 	C 	0.32210 0.34340 0.19829 0.28400
C 	C 	0.38920 0.41860 0.12407 -0.55300
H 	H 	0.39780 0.44580 0.09937 0.14800
H 	H 	0.41410 0.41260 0.12467 0.16300
H 	H 	0.38190 0.42250 0.16837 0.17200
C 	C 	0.30510 0.38540 0.08227 -0.54100
H 	H 	0.31460 0.41280 0.05757 0.12600
H 	H 	0.29420 0.38810 0.12457 0.17200
H 	H 	0.28120 0.36000 0.05907 0.13800
C 	C 	0.45115 0.29470 0.95957 0.36900
C 	C 	0.47650 0.31689 0.02617 -0.23000
H 	H 	0.49660 0.34940 0.01727 0.07800
C 	C 	0.50540 0.29940 0.04537 0.33500
C 	C 	0.41587 0.24725 0.96497 -0.65000
H 	H 	0.39560 0.24380 0.00037 0.15400
H 	H 	0.42960 0.22890 0.97347 0.18300
H 	H 	0.39900 0.23760 0.92457 0.14900
C 	C 	0.48457 0.30594 0.90677 -0.65800
H 	H 	0.50580 0.33810 0.90707 0.17400
H 	H 	0.46910 0.29740 0.86517 0.15900
H 	H 	0.50070 0.28960 0.91347 0.19800
C 	C 	0.26327 0.21430 0.96437 1.09900
C 	C 	0.21420 0.19716 0.96577 -0.55100
H 	H 	0.21040 0.22210 0.98277 0.15600
C 	C 	0.18990 0.15803 0.01427 0.49500
C 	C 	0.27430 0.18280 0.94747 -1.52000
H 	H 	0.25890 0.16820 0.90737 0.41600
H 	H 	0.26510 0.16040 0.98177 0.42900
H 	H 	0.30660 0.19710 0.94117 0.40500
C 	C 	0.28630 0.23330 0.01957 -1.51900
H 	H 	0.28060 0.25700 0.03337 0.42200
H 	H 	0.31840 0.24590 0.01177 0.39300
H 	H 	0.27670 0.21050 0.05337 0.43800
C 	C 	0.52013 0.47096 0.96097 0.32900
C 	C 	0.56118 0.48970 0.92477 -0.22500
H 	H 	0.56070 0.46550 0.89797 0.05900
C 	C 	0.60460 0.50850 0.97557 0.35600
C 	C 	0.51336 0.50605 0.00117 -0.56900
H 	H 	0.48470 0.49060 0.02387 0.14600
H 	H 	0.51360 0.52850 0.97207 0.14700
H 	H 	0.53760 0.52080 0.03267 0.16700
C 	C 	0.51110 0.42960 0.00297 -0.61400
H 	H 	0.48250 0.41810 0.02547 0.15600
H 	H 	0.53520 0.43860 0.03457 0.20800
H 	H 	0.51010 0.40620 0.97517 0.16900
K 	K 	0.24560 0.59654 0.14667 0.60500
O 	O 	0.58140 0.31620 0.51927 -0.40200
K 	K 	0.37460 0.31020 0.31717 0.64600
Cu	Cu	0.02145 0.68723 0.26483 0.81200
Cu	Cu	0.93024 0.63986 0.19777 0.80300
Cu	Cu	0.93275 0.55287 0.19490 0.81000
Cu	Cu	0.02466 0.59914 0.26853 0.80700
Cu	Cu	0.14440 0.70466 0.27178 0.84600
Cu	Cu	0.93254 0.60020 0.37447 0.84300
S 	S 	0.09663 0.72783 0.23958 -0.75900
S 	S 	0.90111 0.53456 0.09291 -0.69300
S 	S 	0.00390 0.63417 0.34362 -0.67900
S 	S 	0.90608 0.58226 0.27167 -0.68400
S 	S 	0.97438 0.71268 0.23717 -0.83300
S 	S 	0.97679 0.52688 0.23542 -0.67600
O 	O 	0.77750 0.42031 0.97870 -0.41200
O 	O 	0.78192 0.38220 0.06520 -0.39800
O 	O 	0.00230 0.64800 0.57340 -0.32700
O 	O 	0.04980 0.72110 0.53620 -0.29300
O 	O 	0.77776 0.51326 0.41590 -0.30600
O 	O 	0.77052 0.45519 0.35900 -0.31800
O 	O 	0.95170 0.82830 0.32810 -0.34800
O 	O 	0.98130 0.81270 0.40420 -0.32100
O 	O 	0.92280 0.37330 0.30850 -0.35100
O 	O 	0.87010 0.39030 0.33160 -0.33500
N 	N 	0.18191 0.76686 0.30800 -0.25500
H 	H 	0.19210 0.76490 0.34810 0.07000
H 	H 	0.20630 0.78280 0.28190 0.08500
N 	N 	0.80929 0.49492 0.04100 -0.27000
H 	H 	0.78200 0.48920 0.05660 0.09600
H 	H 	0.80670 0.49170 0.99690 0.09000
N 	N 	0.95562 0.63200 0.46130 -0.28500
H 	H 	0.93880 0.64470 0.47310 0.06200
H 	H 	0.95130 0.61100 0.49200 0.11400
N 	N 	0.86974 0.55596 0.40500 -0.28100
H 	H 	0.87210 0.54100 0.44010 0.10600
H 	H 	0.85660 0.57190 0.41890 0.08000
N 	N 	0.99210 0.80470 0.24220 -0.20500
H 	H 	0.01800 0.83190 0.24580 0.07000
H 	H 	0.96960 0.81040 0.23150 0.08100
N 	N 	0.96380 0.43960 0.21270 -0.29600
H 	H 	0.94950 0.41690 0.18330 0.05600
H 	H 	0.98230 0.43320 0.23670 0.08100
C 	C 	0.13000 0.78930 0.26400 0.88700
C 	C 	0.15720 0.79110 0.31360 -0.41500
H 	H 	0.13760 0.77870 0.35230 0.11600
C 	C 	0.15550 0.81130 0.20630 -1.19100
H 	H 	0.17910 0.80380 0.20020 0.33500
H 	H 	0.16890 0.84370 0.21100 0.32500
H 	H 	0.13560 0.80120 0.16880 0.30100
C 	C 	0.09660 0.79680 0.28270 -1.35200
H 	H 	0.07830 0.79460 0.24530 0.35200
H 	H 	0.10950 0.82670 0.30160 0.39300
H 	H 	0.07780 0.77440 0.31480 0.36400
C 	C 	0.86637 0.47593 0.06210 0.40600
C 	C 	0.81873 0.46085 0.06690 -0.31000
H 	H 	0.81180 0.45860 0.11400 0.07700
C 	C 	0.79200 0.41830 0.04180 0.36000
C 	C 	0.87840 0.47480 0.99280 -0.69600
H 	H 	0.91030 0.48490 0.98960 0.18400
H 	H 	0.87160 0.49450 0.96730 0.19800
H 	H 	0.86100 0.44420 0.97640 0.21900
C 	C 	0.88090 0.44710 0.10120 -0.64800
H 	H 	0.91300 0.45910 0.09620 0.15800
H 	H 	0.86480 0.41630 0.08540 0.19300
H 	H 	0.87390 0.44760 0.14690 0.16400
C 	C 	0.03086 0.65347 0.42470 0.28000
C 	C 	0.00272 0.66672 0.46187 -0.19100
H 	H 	0.00550 0.69430 0.44200 0.05500
C 	C 	0.02130 0.67790 0.53162 0.28400
C 	C 	0.02940 0.61080 0.45740 -0.56000
H 	H 	0.04800 0.60220 0.43270 0.15000
H 	H 	0.99850 0.58590 0.45800 0.16600
H 	H 	0.04060 0.61810 0.50170 0.17400
C 	C 	0.08030 0.69490 0.41560 -0.54300
H 	H 	0.09820 0.68540 0.39090 0.12700
H 	H 	0.09390 0.70580 0.45790 0.17200
H 	H 	0.07880 0.71880 0.39240 0.13900
C 	C 	0.84355 0.54885 0.29290 0.36900
C 	C 	0.84039 0.52350 0.35950 -0.22900
H 	H 	0.85280 0.50340 0.35060 0.07900
C 	C 	0.79400 0.49460 0.37870 0.33500
C 	C 	0.83138 0.58413 0.29830 -0.65400
H 	H 	0.84820 0.60440 0.33370 0.15600
H 	H 	0.79930 0.57040 0.30680 0.18300
H 	H 	0.83860 0.60100 0.25790 0.15000
C 	C 	0.82137 0.51543 0.24010 -0.65900
H 	H 	0.83230 0.49420 0.24040 0.17400
H 	H 	0.82830 0.53090 0.19850 0.15900
H 	H 	0.78890 0.49930 0.24680 0.19700
C 	C 	0.95103 0.73673 0.29770 1.09300
C 	C 	0.98296 0.78580 0.29910 -0.54800
H 	H 	0.01170 0.78960 0.31610 0.15400
C 	C 	0.96813 0.81010 0.34760 0.49700
C 	C 	0.90850 0.72570 0.28080 -1.51300
H 	H 	0.90930 0.74110 0.24070 0.41500
H 	H 	0.89530 0.73490 0.31510 0.42700
H 	H 	0.89050 0.69340 0.27450 0.40200
C 	C 	0.94700 0.71370 0.35290 -1.51200
H 	H 	0.97640 0.71940 0.36670 0.42100
H 	H 	0.92750 0.68160 0.34510 0.39200
H 	H 	0.93380 0.72330 0.38670 0.43600
C 	C 	0.95083 0.47987 0.29430 0.32100
C 	C 	0.92852 0.43882 0.25810 -0.22200
H 	H 	0.90480 0.43930 0.23130 0.05800
C 	C 	0.90390 0.39540 0.30890 0.35500
C 	C 	0.99269 0.48664 0.33450 -0.54900
H 	H 	0.00590 0.51530 0.35720 0.13900
H 	H 	0.01490 0.48640 0.30540 0.14000
H 	H 	0.98320 0.46240 0.36600 0.16200
C 	C 	0.91850 0.48890 0.33630 -0.60300
H 	H 	0.93560 0.51750 0.35880 0.15400
H 	H 	0.90340 0.46480 0.36790 0.20500
H 	H 	0.89610 0.48990 0.30850 0.16500
K 	K 	0.35094 0.75440 0.48000 0.60500
O 	O 	0.73480 0.41860 0.85260 -0.40200
K 	K 	0.93560 0.62540 0.65050 0.64600
Cu	Cu	0.66578 0.97855 0.59816 0.81300
Cu	Cu	0.70962 0.06976 0.53110 0.80200
Cu	Cu	0.62012 0.06725 0.52823 0.81000
Cu	Cu	0.57448 0.97534 0.60186 0.80800
Cu	Cu	0.56026 0.85560 0.60511 0.84600
Cu	Cu	0.66766 0.06746 0.70780 0.84200
S 	S 	0.63120 0.90337 0.57291 -0.75900
S 	S 	0.63345 0.09889 0.42624 -0.69300
S 	S 	0.63027 0.99610 0.67695 -0.67500
S 	S 	0.67618 0.09392 0.60500 -0.68500
S 	S 	0.73830 0.02562 0.57050 -0.83700
S 	S 	0.55009 0.02321 0.56875 -0.68000
O 	O 	0.64281 0.22250 0.31203 -0.41300
O 	O 	0.60028 0.21808 0.39853 -0.39800
O 	O 	0.64570 0.99770 0.90673 -0.32500
O 	O 	0.67130 0.95020 0.86953 -0.29100
O 	O 	0.73550 0.22224 0.74923 -0.30600
O 	O 	0.68467 0.22948 0.69233 -0.31800
O 	O 	0.87660 0.04830 0.66143 -0.34900
O 	O 	0.83140 0.01870 0.73753 -0.32300
O 	O 	0.45050 0.07720 0.64183 -0.35100
O 	O 	0.52020 0.12990 0.66493 -0.33500
N 	N 	0.58495 0.81809 0.64133 -0.25500
H 	H 	0.57280 0.80790 0.68143 0.07000
H 	H 	0.57650 0.79370 0.61523 0.08500
N 	N 	0.68563 0.19071 0.37433 -0.26900
H 	H 	0.70720 0.21800 0.38993 0.09600
H 	H 	0.68500 0.19330 0.33023 0.08900
N 	N 	0.67638 0.04438 0.79463 -0.28700
H 	H 	0.70590 0.06120 0.80643 0.06200
H 	H 	0.65970 0.04870 0.82533 0.11400
N 	N 	0.68622 0.13026 0.73833 -0.28100
H 	H 	0.66890 0.12790 0.77343 0.10600
H 	H 	0.71530 0.14340 0.75223 0.08000
N 	N 	0.81260 0.00790 0.57553 -0.20700
H 	H 	0.81390 0.98200 0.57913 0.07200
H 	H 	0.84080 0.03040 0.56483 0.08000
N 	N 	0.47580 0.03620 0.54603 -0.29500
H 	H 	0.46740 0.05050 0.51663 0.05500
H 	H 	0.45090 0.01770 0.57003 0.07900
C 	C 	0.65930 0.87000 0.59733 0.88800
C 	C 	0.63390 0.84280 0.64693 -0.41500
H 	H 	0.64110 0.86240 0.68563 0.11600
C 	C 	0.65580 0.84450 0.53963 -1.19200
H 	H 	0.62470 0.82090 0.53353 0.33500
H 	H 	0.67480 0.83110 0.54433 0.32600
H 	H 	0.66560 0.86440 0.50213 0.30100
C 	C 	0.70020 0.90340 0.61603 -1.35500
H 	H 	0.71630 0.92170 0.57863 0.35300
H 	H 	0.71720 0.89050 0.63493 0.39400
H 	H 	0.69660 0.92220 0.64813 0.36500
C 	C 	0.60956 0.13363 0.39543 0.40800
C 	C 	0.64212 0.18127 0.40023 -0.31100
H 	H 	0.64680 0.18820 0.44733 0.07700
C 	C 	0.62630 0.20800 0.37513 0.36200
C 	C 	0.59640 0.12160 0.32613 -0.69800
H 	H 	0.57460 0.08970 0.32293 0.18400
H 	H 	0.62290 0.12840 0.30063 0.19900
H 	H 	0.58320 0.13900 0.30973 0.21900
C 	C 	0.56620 0.11910 0.43453 -0.65000
H 	H 	0.54610 0.08700 0.42953 0.15800
H 	H 	0.55150 0.13520 0.41873 0.19300
H 	H 	0.57370 0.12610 0.48023 0.16400
C 	C 	0.62261 0.96914 0.75803 0.27700
C 	C 	0.66400 0.99728 0.79520 -0.18600
H 	H 	0.68880 0.99450 0.77533 0.05500
C 	C 	0.65660 0.97870 0.86495 0.28300
C 	C 	0.58140 0.97060 0.79073 -0.54800
H 	H 	0.55420 0.95200 0.76603 0.14600
H 	H 	0.58740 0.00150 0.79133 0.16000
H 	H 	0.57750 0.95940 0.83503 0.17000
C 	C 	0.61460 0.91970 0.74893 -0.54000
H 	H 	0.58720 0.90180 0.72423 0.12600
H 	H 	0.61190 0.90610 0.79123 0.17200
H 	H 	0.64000 0.92120 0.72573 0.13800
C 	C 	0.70530 0.15645 0.62623 0.36900
C 	C 	0.68311 0.15961 0.69283 -0.22900
H 	H 	0.65060 0.14720 0.68393 0.07900
C 	C 	0.70060 0.20600 0.71203 0.33500
C 	C 	0.75275 0.16862 0.63163 -0.65400
H 	H 	0.75620 0.15180 0.66703 0.15600
H 	H 	0.77110 0.20070 0.64013 0.18300
H 	H 	0.76240 0.16140 0.59123 0.15000
C 	C 	0.69406 0.17863 0.57343 -0.65900
H 	H 	0.66190 0.16770 0.57373 0.17400
H 	H 	0.70260 0.17170 0.53183 0.15900
H 	H 	0.71040 0.21110 0.58013 0.19700
C 	C 	0.78570 0.04897 0.63103 1.09700
C 	C 	0.80284 0.01704 0.63243 -0.55400
H 	H 	0.77790 0.98830 0.64943 0.15800
C 	C 	0.84197 0.03187 0.68093 0.49800
C 	C 	0.81720 0.09150 0.61413 -1.51800
H 	H 	0.83180 0.09070 0.57403 0.41600
H 	H 	0.83960 0.10470 0.64843 0.42800
H 	H 	0.80290 0.10950 0.60783 0.40400
C 	C 	0.76670 0.05300 0.68623 -1.51500
H 	H 	0.74300 0.02360 0.70003 0.42100
H 	H 	0.75410 0.07250 0.67843 0.39300
H 	H 	0.78950 0.06620 0.72003 0.43700
C 	C 	0.52904 0.04917 0.62763 0.32800
C 	C 	0.51030 0.07148 0.59143 -0.22500
H 	H 	0.53450 0.09520 0.56463 0.05800
C 	C 	0.49150 0.09610 0.64223 0.35500
C 	C 	0.49395 0.00731 0.66783 -0.57200
H 	H 	0.50940 0.99410 0.69053 0.14800
H 	H 	0.47150 0.98510 0.63873 0.14900
H 	H 	0.47920 0.01680 0.69933 0.16800
C 	C 	0.57040 0.08150 0.66963 -0.60800
H 	H 	0.58190 0.06440 0.69213 0.15500
H 	H 	0.56140 0.09660 0.70123 0.20600
H 	H 	0.59380 0.10390 0.64183 0.16700
K 	K 	0.40346 0.64906 0.81333 0.60500
O 	O 	0.68380 0.26520 0.18593 -0.40300
K 	K 	0.68980 0.06440 0.98383 0.64600
Cu	Cu	0.77027 0.77027 0.33333 0.82800
Cu	Cu	0.49269 0.49269 0.33333 0.85600
Cl	Cl	0.63118 0.63118 0.33333 -1.10700
Cu	Cu	0.22973 0.00000 -0.00000 0.82700
Cu	Cu	0.50731 0.00000 -0.00000 0.85400
Cl	Cl	0.36882 0.00000 -0.00000 -1.11000
Cu	Cu	0.00000 0.22973 0.66667 0.82700
Cu	Cu	-0.00000 0.50731 0.66667 0.85500
Cl	Cl	0.00000 0.36882 0.66667 -1.10900
Cu	Cu	0.22973 0.22973 0.83333 0.82800
Cu	Cu	0.50731 0.50731 0.83333 0.85600
Cl	Cl	0.36882 0.36882 0.83333 -1.10700
Cu	Cu	0.77027 0.00000 0.50000 0.82700
Cu	Cu	0.49269 0.00000 0.50000 0.85500
Cl	Cl	0.63118 0.00000 0.50000 -1.10900
Cu	Cu	-0.00000 0.77027 0.16667 0.82700
Cu	Cu	-0.00000 0.49269 0.16667 0.85500
Cl	Cl	-0.00000 0.63118 0.16667 -1.10900
Co	Co	0.63271 0.36729 0.58333 1.08000
Co	Co	0.63271 0.26542 0.25000 1.08000
Co	Co	0.73458 0.36729 0.91667 1.08000
Co	Co	0.36729 0.63271 0.08333 1.08000
Co	Co	0.36729 0.73458 0.75000 1.08000
Co	Co	0.26542 0.63271 0.41667 1.08000
O 	O 	0.66430 0.66430 0.83333 -0.36400
O 	O 	0.33570 0.00000 0.50000 -0.36500
O 	O 	-0.00000 0.33570 0.16667 -0.36500
O 	O 	0.33570 0.33570 0.33333 -0.36400
O 	O 	0.66430 0.00000 -0.00000 -0.36600
O 	O 	-0.00000 0.66430 0.66667 -0.36500
