data_crystal

_cell_length_a 24.92700
_cell_length_b 24.92700
_cell_length_c 46.04500
_cell_angle_alpha 90.00000
_cell_angle_beta  90.00000
_cell_angle_gamma 90.00000

_symmetry_space_group_name_	'P 1'
_symmetry_space_group_name_H-M	'P 1'

loop_
_symmetry_equiv_pos_as_xyz
  x,y,z

loop_
_atom_site_label
_atom_site_type_symbol
_atom_site_fract_x
_atom_site_fract_y
_atom_site_fract_z
_atom_site_charge
Ag	Ag	0.71208 0.65604 0.22785 0.46800
Ag	Ag	0.84585 0.61015 0.24873 0.46200
Ag	Ag	0.81020 0.50038 0.28849 0.47000
Ag	Ag	0.67479 0.55774 0.27382 0.45600
Ag	Ag	0.72925 0.73215 0.29047 0.46200
Ag	Ag	0.87110 0.71398 0.30986 0.47400
Ag	Ag	0.80061 0.59139 0.34450 0.46400
Ag	Ag	0.65067 0.64009 0.34684 0.48000
Pd	Pd	0.75550 0.49710 0.20383 0.71600
Pd	Pd	0.83075 0.77110 0.22625 0.71900
Pd	Pd	0.95410 0.57041 0.31228 0.71500
Pd	Pd	0.68492 0.47676 0.34935 0.72400
Pd	Pd	0.57106 0.68222 0.27109 0.71900
Pd	Pd	0.76551 0.74581 0.37538 0.70900
S 	S 	0.69517 0.55910 0.21963 -0.51800
S 	S 	0.82294 0.51506 0.23571 -0.50200
S 	S 	0.80555 0.68532 0.21844 -0.52500
S 	S 	0.81762 0.77051 0.27501 -0.49900
S 	S 	0.91706 0.63588 0.28407 -0.51500
S 	S 	0.87531 0.53189 0.32561 -0.50800
S 	S 	0.71530 0.48088 0.30295 -0.51100
S 	S 	0.70981 0.56162 0.36131 -0.48600
S 	S 	0.60550 0.61529 0.29927 -0.50000
S 	S 	0.65158 0.71463 0.25581 -0.49700
S 	S 	0.69927 0.72883 0.34272 -0.49600
S 	S 	0.82657 0.68658 0.35705 -0.51200
O 	O 	0.60890 0.45140 0.14640 -0.31200
O 	O 	0.58990 0.53440 0.13170 -0.32900
O 	O 	0.88260 0.39130 0.16023 -0.46900
O 	O 	0.93420 0.37290 0.19960 -0.33300
O 	O 	0.87100 0.75650 0.12900 -0.35400
O 	O 	0.79460 0.71370 0.11740 -0.29500
O 	O 	0.85510 0.95490 0.24140 -0.41200
O 	O 	0.90010 0.94060 0.28440 -0.37900
O 	O 	0.11070 0.64970 0.27450 -0.27100
O 	O 	0.07610 0.73250 0.27710 -0.35500
O 	O 	0.02260 0.42980 0.36901 -0.42000
O 	O 	0.96150 0.36990 0.35350 -0.30900
O 	O 	0.63460 0.30280 0.31700 -0.29800
O 	O 	0.71020 0.29140 0.29290 -0.28800
O 	O 	0.66750 0.46870 0.45120 -0.29800
O 	O 	0.62430 0.55620 0.45520 -0.44800
O 	O 	0.41430 0.58680 0.29770 -0.25700
O 	O 	0.43510 0.58550 0.34540 -0.25700
O 	O 	0.50920 0.82180 0.20855 -0.30400
O 	O 	0.57520 0.81010 0.17729 -0.46800
O 	O 	0.64660 0.88610 0.39890 -0.31000
O 	O 	0.57130 0.83930 0.39380 -0.29500
O 	O 	0.90500 0.76530 0.44340 -0.29400
O 	O 	0.96860 0.75760 0.41460 -0.35300
N 	N 	0.69940 0.48170 0.17220 -0.27000
H 	H 	0.71710 0.47480 0.15510 0.09300
H 	H 	0.68100 0.45110 0.17730 0.11500
N 	N 	0.80510 0.43510 0.18940 -0.26800
H 	H 	0.78510 0.40410 0.18900 0.10600
H 	H 	0.81490 0.44260 0.17060 0.09900
N 	N 	0.83290 0.77800 0.18220 -0.26600
H 	H 	0.81530 0.80890 0.17690 0.08200
H 	H 	0.86810 0.78130 0.17640 0.09500
N 	N 	0.86070 0.84720 0.23160 -0.27600
H 	H 	0.89260 0.84970 0.22170 0.10100
H 	H 	0.83720 0.87120 0.22330 0.09200
N 	N 	0.02650 0.60540 0.30360 -0.27200
H 	H 	0.04490 0.60960 0.32080 0.11500
H 	H 	0.04620 0.58270 0.29200 0.10100
N 	N 	0.98900 0.50830 0.33590 -0.25100
H 	H 	0.02090 0.49860 0.32740 0.07800
H 	H 	0.99620 0.51990 0.35450 0.06800
N 	N 	0.66890 0.39700 0.34140 -0.27200
H 	H 	0.67910 0.37710 0.35730 0.13100
H 	H 	0.63250 0.39270 0.33900 0.11500
N 	N 	0.65440 0.47180 0.39080 -0.27500
H 	H 	0.61900 0.46150 0.38980 0.09000
H 	H 	0.67270 0.44570 0.40090 0.10400
N 	N 	0.49790 0.65810 0.28620 -0.27500
H 	H 	0.47900 0.68790 0.29190 0.12600
H 	H 	0.47940 0.64240 0.27120 0.10600
N 	N 	0.53890 0.73650 0.24360 -0.27400
H 	H 	0.50910 0.72160 0.23510 0.09600
H 	H 	0.52770 0.76570 0.25430 0.09600
N 	N 	0.71140 0.80040 0.39370 -0.26600
H 	H 	0.71180 0.79610 0.41360 0.08700
H 	H 	0.72320 0.83460 0.38980 0.09400
N 	N 	0.82470 0.76580 0.40420 -0.26400
H 	H 	0.82550 0.80250 0.40610 0.09600
H 	H 	0.81610 0.75160 0.42210 0.09100
C 	C 	0.63730 0.54140 0.19690 0.39600
C 	C 	0.66140 0.52340 0.16710 -0.21200
H 	H 	0.67940 0.55450 0.15750 0.06400
C 	C 	0.61470 0.50010 0.14630 0.33500
C 	C 	0.60580 0.49930 0.20980 -0.75300
H 	H 	0.62810 0.46730 0.21230 0.21400
H 	H 	0.57540 0.49090 0.19710 0.23200
H 	H 	0.59250 0.51120 0.22880 0.20000
C 	C 	0.60260 0.59290 0.19230 -0.67000
H 	H 	0.62470 0.62090 0.18340 0.18200
H 	H 	0.58910 0.60550 0.21100 0.17800
H 	H 	0.57240 0.58450 0.17950 0.21800
C 	C 	0.87840 0.47880 0.21790 0.33800
C 	C 	0.85460 0.42440 0.20630 -0.22200
H 	H 	0.84520 0.40130 0.22330 0.08200
C 	C 	0.89310 0.39260 0.18620 0.36700
C 	C 	0.90030 0.51070 0.19260 -0.65300
H 	H 	0.87210 0.51580 0.17810 0.19400
H 	H 	0.93040 0.49120 0.18390 0.20600
H 	H 	0.91270 0.54570 0.19960 0.17400
C 	C 	0.92110 0.47050 0.24220 -0.61600
H 	H 	0.90530 0.45010 0.25820 0.17200
H 	H 	0.93320 0.50550 0.24940 0.15900
H 	H 	0.95180 0.45070 0.23430 0.20100
C 	C 	0.82400 0.67760 0.18050 0.42100
C 	C 	0.80820 0.73160 0.16630 -0.24900
H 	H 	0.76820 0.73550 0.16630 0.08000
C 	C 	0.83010 0.73570 0.13420 0.37100
C 	C 	0.88480 0.67010 0.17810 -0.69500
H 	H 	0.90300 0.70090 0.18690 0.19600
H 	H 	0.89490 0.66760 0.15750 0.21300
H 	H 	0.89540 0.63720 0.18810 0.18500
C 	C 	0.79500 0.63230 0.16800 -0.76300
H 	H 	0.75630 0.63860 0.16970 0.20900
H 	H 	0.80450 0.59940 0.17840 0.20200
H 	H 	0.80470 0.62860 0.14750 0.24600
C 	C 	0.82130 0.84410 0.28040 0.33200
C 	C 	0.86980 0.86310 0.26180 -0.18700
H 	H 	0.90410 0.84750 0.26930 0.06100
C 	C 	0.87420 0.92840 0.25940 0.30500
C 	C 	0.77250 0.87340 0.27250 -0.66800
H 	H 	0.74220 0.85970 0.28390 0.17900
H 	H 	0.76520 0.86860 0.25180 0.18900
H 	H 	0.77740 0.91170 0.27670 0.21300
C 	C 	0.83050 0.84950 0.31460 -0.58900
H 	H 	0.86300 0.82990 0.32010 0.16200
H 	H 	0.79960 0.83460 0.32490 0.15300
H 	H 	0.83470 0.88750 0.31970 0.20300
C 	C 	0.97780 0.65930 0.26490 0.41200
C 	C 	0.02190 0.65980 0.28870 -0.25900
H 	H 	0.00800 0.68460 0.30400 0.08800
C 	C 	0.07410 0.68330 0.27950 0.37400
C 	C 	0.99260 0.62130 0.24180 -0.71700
H 	H 	0.99980 0.58600 0.25030 0.20400
H 	H 	0.02490 0.63420 0.23180 0.22100
H 	H 	0.96310 0.61840 0.22780 0.19000
C 	C 	0.96700 0.71290 0.25150 -0.70500
H 	H 	0.95770 0.73870 0.26670 0.19200
H 	H 	0.93700 0.70980 0.23780 0.18300
H 	H 	0.99900 0.72530 0.24120 0.21700
C 	C 	0.89900 0.47590 0.34960 0.40100
C 	C 	0.95280 0.46120 0.33720 -0.26100
H 	H 	0.94700 0.44840 0.31680 0.08500
C 	C 	0.98160 0.41550 0.35430 0.37300
C 	C 	0.90290 0.49640 0.38010 -0.70400
H 	H 	0.93010 0.52470 0.38100 0.20100
H 	H 	0.91320 0.46690 0.39300 0.21400
H 	H 	0.86810 0.51090 0.38610 0.19000
C 	C 	0.85740 0.43140 0.34680 -0.71400
H 	H 	0.85580 0.41930 0.32660 0.20600
H 	H 	0.82220 0.44510 0.35270 0.20100
H 	H 	0.86750 0.40130 0.35930 0.23500
C 	C 	0.69190 0.41440 0.29010 0.40000
C 	C 	0.69650 0.37640 0.31560 -0.24100
H 	H 	0.73550 0.37480 0.32070 0.10000
C 	C 	0.67980 0.31850 0.30770 0.34700
C 	C 	0.63360 0.41850 0.28170 -0.68700
H 	H 	0.62970 0.44360 0.26540 0.17800
H 	H 	0.61270 0.43140 0.29830 0.19400
H 	H 	0.62040 0.38300 0.27580 0.20500
C 	C 	0.72550 0.39910 0.26470 -0.71400
H 	H 	0.76310 0.39610 0.27070 0.20700
H 	H 	0.72240 0.42660 0.24950 0.18300
H 	H 	0.71330 0.36450 0.25700 0.24100
C 	C 	0.71060 0.55390 0.40150 0.29800
C 	C 	0.65830 0.52530 0.40770 -0.19800
H 	H 	0.62870 0.54890 0.40050 0.05800
C 	C 	0.64840 0.51600 0.44110 0.27100
C 	C 	0.76070 0.52300 0.41020 -0.59200
H 	H 	0.76000 0.48740 0.40120 0.16900
H 	H 	0.76180 0.51920 0.43140 0.17900
H 	H 	0.79260 0.54250 0.40360 0.15000
C 	C 	0.71190 0.61060 0.41510 -0.53600
H 	H 	0.68040 0.63090 0.40860 0.12800
H 	H 	0.74460 0.62920 0.40890 0.13100
H 	H 	0.71140 0.60760 0.43630 0.14000
C 	C 	0.54140 0.57760 0.30580 0.40100
C 	C 	0.49970 0.61950 0.31110 -0.25900
H 	H 	0.51150 0.64020 0.32850 0.09800
C 	C 	0.44690 0.59700 0.31790 0.32000
C 	C 	0.52920 0.54460 0.27910 -0.68900
H 	H 	0.55740 0.51760 0.27640 0.17900
H 	H 	0.52770 0.56810 0.26200 0.19000
H 	H 	0.49450 0.52660 0.28150 0.21800
C 	C 	0.55260 0.54300 0.33140 -0.71300
H 	H 	0.58060 0.51700 0.32640 0.18500
H 	H 	0.51990 0.52400 0.33700 0.23400
H 	H 	0.56480 0.56540 0.34760 0.19300
C 	C 	0.63000 0.77430 0.23350 0.33000
C 	C 	0.57590 0.75580 0.22000 -0.22500
H 	H 	0.58370 0.72440 0.20720 0.06800
C 	C 	0.55040 0.80030 0.20060 0.38700
C 	C 	0.62010 0.82350 0.25290 -0.63400
H 	H 	0.59150 0.81540 0.26680 0.18800
H 	H 	0.60950 0.85400 0.24080 0.20500
H 	H 	0.65320 0.83230 0.26340 0.17100
C 	C 	0.67320 0.78370 0.21060 -0.61200
H 	H 	0.67760 0.75130 0.19880 0.16100
H 	H 	0.70730 0.79230 0.22020 0.15500
H 	H 	0.66260 0.81370 0.19810 0.19500
C 	C 	0.65520 0.78760 0.35020 0.34400
C 	C 	0.65490 0.79540 0.38340 -0.22600
H 	H 	0.63830 0.76320 0.39270 0.07500
C 	C 	0.62350 0.84630 0.39300 0.34900
C 	C 	0.67520 0.83670 0.33510 -0.64000
H 	H 	0.65010 0.86630 0.33830 0.19800
H 	H 	0.67820 0.82950 0.31420 0.16600
H 	H 	0.71050 0.84640 0.34290 0.17900
C 	C 	0.60130 0.77270 0.33590 -0.62400
H 	H 	0.57460 0.80030 0.34040 0.20800
H 	H 	0.58900 0.73800 0.34350 0.17700
H 	H 	0.60610 0.77020 0.31480 0.16700
C 	C 	0.87810 0.68930 0.38710 0.44200
C 	C 	0.88200 0.74570 0.39540 -0.32100
H 	H 	0.89330 0.76640 0.37780 0.10100
C 	C 	0.92280 0.75590 0.41890 0.43700
C 	C 	0.86230 0.65210 0.41050 -0.75900
H 	H 	0.86130 0.61540 0.40290 0.20600
H 	H 	0.82660 0.66190 0.41770 0.21500
H 	H 	0.88830 0.65420 0.42640 0.24100
C 	C 	0.93060 0.67000 0.37380 -0.71800
H 	H 	0.92680 0.63240 0.36790 0.18700
H 	H 	0.95940 0.67310 0.38820 0.23700
H 	H 	0.93920 0.69190 0.35680 0.19800
La	La	0.92207 0.37786 0.11182 1.50200
La	La	0.89490 0.04780 0.27360 0.72400
La	La	0.84260 0.10170 0.30430 0.95300
O 	O 	0.91680 0.43020 0.06100 -0.43000
O 	O 	0.84070 0.41030 0.08350 -0.39700
C 	C 	0.87030 0.42990 0.05980 0.42500
C 	C 	0.83350 0.45400 0.03400 -0.65700
H 	H 	0.79550 0.44900 0.03880 0.21200
H 	H 	0.84170 0.43540 0.01580 0.19800
H 	H 	0.84100 0.49240 0.03170 0.21500
O 	O 	0.84670 0.00280 0.32830 -0.37300
O 	O 	0.79420 0.05290 0.25640 -0.46100
O 	O 	0.84830 0.18770 0.27610 -0.58100
Ag	Ag	0.28792 0.34396 0.72785 0.46700
Ag	Ag	0.15415 0.38985 0.74873 0.46100
Ag	Ag	0.18980 0.49962 0.78849 0.46900
Ag	Ag	0.32521 0.44226 0.77382 0.45500
Ag	Ag	0.27075 0.26785 0.79047 0.46100
Ag	Ag	0.12890 0.28602 0.80986 0.47300
Ag	Ag	0.19939 0.40861 0.84450 0.46300
Ag	Ag	0.34933 0.35991 0.84684 0.47900
Pd	Pd	0.24450 0.50290 0.70383 0.71500
Pd	Pd	0.16925 0.22890 0.72625 0.71800
Pd	Pd	0.04590 0.42959 0.81228 0.71400
Pd	Pd	0.31508 0.52324 0.84935 0.72300
Pd	Pd	0.42894 0.31778 0.77109 0.71700
Pd	Pd	0.23449 0.25419 0.87538 0.70800
S 	S 	0.30483 0.44090 0.71963 -0.51900
S 	S 	0.17706 0.48494 0.73571 -0.50300
S 	S 	0.19445 0.31468 0.71844 -0.52600
S 	S 	0.18238 0.22949 0.77501 -0.50000
S 	S 	0.08294 0.36412 0.78407 -0.51600
S 	S 	0.12469 0.46811 0.82561 -0.50900
S 	S 	0.28470 0.51912 0.80295 -0.51200
S 	S 	0.29019 0.43838 0.86131 -0.48700
S 	S 	0.39450 0.38471 0.79927 -0.50100
S 	S 	0.34842 0.28537 0.75581 -0.49800
S 	S 	0.30073 0.27117 0.84272 -0.49700
S 	S 	0.17343 0.31342 0.85705 -0.51300
O 	O 	0.39110 0.54860 0.64640 -0.31300
O 	O 	0.41010 0.46560 0.63170 -0.33000
O 	O 	0.11740 0.60870 0.66023 -0.47000
O 	O 	0.06580 0.62710 0.69960 -0.33400
O 	O 	0.12900 0.24350 0.62900 -0.35500
O 	O 	0.20540 0.28630 0.61740 -0.29500
O 	O 	0.14490 0.04510 0.74140 -0.41300
O 	O 	0.09990 0.05940 0.78440 -0.38000
O 	O 	0.88930 0.35030 0.77450 -0.27200
O 	O 	0.92390 0.26750 0.77710 -0.35600
O 	O 	0.97740 0.57020 0.86901 -0.42100
O 	O 	0.03850 0.63010 0.85350 -0.31000
O 	O 	0.36540 0.69720 0.81700 -0.29900
O 	O 	0.28980 0.70860 0.79290 -0.28900
O 	O 	0.33250 0.53130 0.95120 -0.29900
O 	O 	0.37570 0.44380 0.95520 -0.44900
O 	O 	0.58570 0.41320 0.79770 -0.25800
O 	O 	0.56490 0.41450 0.84540 -0.25800
O 	O 	0.49080 0.17820 0.70855 -0.30500
O 	O 	0.42480 0.18990 0.67729 -0.46900
O 	O 	0.35340 0.11390 0.89890 -0.31100
O 	O 	0.42870 0.16070 0.89380 -0.29600
O 	O 	0.09500 0.23470 0.94340 -0.29500
O 	O 	0.03140 0.24240 0.91460 -0.35400
N 	N 	0.30060 0.51830 0.67220 -0.27100
H 	H 	0.28290 0.52520 0.65510 0.09200
H 	H 	0.31900 0.54890 0.67730 0.11400
N 	N 	0.19490 0.56490 0.68940 -0.26900
H 	H 	0.21490 0.59590 0.68900 0.10500
H 	H 	0.18510 0.55740 0.67060 0.09800
N 	N 	0.16710 0.22200 0.68220 -0.26700
H 	H 	0.18470 0.19110 0.67690 0.08100
H 	H 	0.13190 0.21870 0.67640 0.09400
N 	N 	0.13930 0.15280 0.73160 -0.27700
H 	H 	0.10740 0.15030 0.72170 0.10000
H 	H 	0.16280 0.12880 0.72330 0.09100
N 	N 	0.97350 0.39460 0.80360 -0.27300
H 	H 	0.95510 0.39040 0.82080 0.11400
H 	H 	0.95380 0.41730 0.79200 0.10000
N 	N 	0.01100 0.49170 0.83590 -0.25200
H 	H 	0.97910 0.50140 0.82740 0.07800
H 	H 	0.00380 0.48010 0.85450 0.06800
N 	N 	0.33110 0.60300 0.84140 -0.27200
H 	H 	0.32090 0.62290 0.85730 0.13100
H 	H 	0.36750 0.60730 0.83900 0.11500
N 	N 	0.34560 0.52820 0.89080 -0.27500
H 	H 	0.38100 0.53850 0.88980 0.09000
H 	H 	0.32730 0.55430 0.90090 0.10400
N 	N 	0.50210 0.34190 0.78620 -0.27500
H 	H 	0.52100 0.31210 0.79190 0.12600
H 	H 	0.52060 0.35760 0.77120 0.10600
N 	N 	0.46110 0.26350 0.74360 -0.27400
H 	H 	0.49090 0.27840 0.73510 0.09600
H 	H 	0.47230 0.23430 0.75430 0.09600
N 	N 	0.28860 0.19960 0.89370 -0.26600
H 	H 	0.28820 0.20390 0.91360 0.08800
H 	H 	0.27680 0.16540 0.88980 0.09400
N 	N 	0.17530 0.23420 0.90420 -0.26400
H 	H 	0.17450 0.19750 0.90610 0.09600
H 	H 	0.18390 0.24840 0.92210 0.09100
C 	C 	0.36270 0.45860 0.69690 0.39600
C 	C 	0.33860 0.47660 0.66710 -0.21200
H 	H 	0.32060 0.44550 0.65750 0.06400
C 	C 	0.38530 0.49990 0.64630 0.33500
C 	C 	0.39420 0.50070 0.70980 -0.75300
H 	H 	0.37190 0.53270 0.71230 0.21400
H 	H 	0.42460 0.50910 0.69710 0.23200
H 	H 	0.40750 0.48880 0.72880 0.20000
C 	C 	0.39740 0.40710 0.69230 -0.67000
H 	H 	0.37530 0.37910 0.68340 0.18200
H 	H 	0.41090 0.39450 0.71100 0.17800
H 	H 	0.42760 0.41550 0.67950 0.21800
C 	C 	0.12160 0.52120 0.71790 0.33800
C 	C 	0.14540 0.57560 0.70630 -0.22200
H 	H 	0.15480 0.59870 0.72330 0.08200
C 	C 	0.10690 0.60740 0.68620 0.36700
C 	C 	0.09970 0.48930 0.69260 -0.65300
H 	H 	0.12790 0.48420 0.67810 0.19400
H 	H 	0.06960 0.50880 0.68390 0.20600
H 	H 	0.08730 0.45430 0.69960 0.17400
C 	C 	0.07890 0.52950 0.74220 -0.61600
H 	H 	0.09470 0.54990 0.75820 0.17200
H 	H 	0.06680 0.49450 0.74940 0.15900
H 	H 	0.04820 0.54930 0.73430 0.20100
C 	C 	0.17600 0.32240 0.68050 0.42100
C 	C 	0.19180 0.26840 0.66630 -0.24900
H 	H 	0.23180 0.26450 0.66630 0.08000
C 	C 	0.16990 0.26430 0.63420 0.37100
C 	C 	0.11520 0.32990 0.67810 -0.69500
H 	H 	0.09700 0.29910 0.68690 0.19600
H 	H 	0.10510 0.33240 0.65750 0.21300
H 	H 	0.10460 0.36280 0.68810 0.18500
C 	C 	0.20500 0.36770 0.66800 -0.76300
H 	H 	0.24370 0.36140 0.66970 0.20900
H 	H 	0.19550 0.40060 0.67840 0.20200
H 	H 	0.19530 0.37140 0.64750 0.24600
C 	C 	0.17870 0.15590 0.78040 0.33200
C 	C 	0.13020 0.13690 0.76180 -0.18700
H 	H 	0.09590 0.15250 0.76930 0.06100
C 	C 	0.12580 0.07160 0.75940 0.30500
C 	C 	0.22750 0.12660 0.77250 -0.66800
H 	H 	0.25780 0.14030 0.78390 0.17900
H 	H 	0.23480 0.13140 0.75180 0.18900
H 	H 	0.22260 0.08830 0.77670 0.21300
C 	C 	0.16950 0.15050 0.81460 -0.58900
H 	H 	0.13700 0.17010 0.82010 0.16200
H 	H 	0.20040 0.16540 0.82490 0.15300
H 	H 	0.16530 0.11250 0.81970 0.20300
C 	C 	0.02220 0.34070 0.76490 0.41200
C 	C 	0.97810 0.34020 0.78870 -0.25900
H 	H 	0.99200 0.31540 0.80400 0.08800
C 	C 	0.92590 0.31670 0.77950 0.37400
C 	C 	0.00740 0.37870 0.74180 -0.71700
H 	H 	0.00020 0.41400 0.75030 0.20400
H 	H 	0.97510 0.36580 0.73180 0.22100
H 	H 	0.03690 0.38160 0.72780 0.19000
C 	C 	0.03300 0.28710 0.75150 -0.70500
H 	H 	0.04230 0.26130 0.76670 0.19200
H 	H 	0.06300 0.29020 0.73780 0.18300
H 	H 	0.00100 0.27470 0.74120 0.21700
C 	C 	0.10100 0.52410 0.84960 0.40100
C 	C 	0.04720 0.53880 0.83720 -0.26100
H 	H 	0.05300 0.55160 0.81680 0.08500
C 	C 	0.01840 0.58450 0.85430 0.37300
C 	C 	0.09710 0.50360 0.88010 -0.70400
H 	H 	0.06990 0.47530 0.88100 0.20100
H 	H 	0.08680 0.53310 0.89300 0.21400
H 	H 	0.13190 0.48910 0.88610 0.19000
C 	C 	0.14260 0.56860 0.84680 -0.71400
H 	H 	0.14420 0.58070 0.82660 0.20600
H 	H 	0.17780 0.55490 0.85270 0.20100
H 	H 	0.13250 0.59870 0.85930 0.23500
C 	C 	0.30810 0.58560 0.79010 0.40000
C 	C 	0.30350 0.62360 0.81560 -0.24100
H 	H 	0.26450 0.62520 0.82070 0.10000
C 	C 	0.32020 0.68150 0.80770 0.34700
C 	C 	0.36640 0.58150 0.78170 -0.68700
H 	H 	0.37030 0.55640 0.76540 0.17800
H 	H 	0.38730 0.56860 0.79830 0.19400
H 	H 	0.37960 0.61700 0.77580 0.20500
C 	C 	0.27450 0.60090 0.76470 -0.71400
H 	H 	0.23690 0.60390 0.77070 0.20700
H 	H 	0.27760 0.57340 0.74950 0.18300
H 	H 	0.28670 0.63550 0.75700 0.24100
C 	C 	0.28940 0.44610 0.90150 0.29800
C 	C 	0.34170 0.47470 0.90770 -0.19800
H 	H 	0.37130 0.45110 0.90050 0.05800
C 	C 	0.35160 0.48400 0.94110 0.27100
C 	C 	0.23930 0.47700 0.91020 -0.59200
H 	H 	0.24000 0.51260 0.90120 0.16900
H 	H 	0.23820 0.48080 0.93140 0.17900
H 	H 	0.20740 0.45750 0.90360 0.15000
C 	C 	0.28810 0.38940 0.91510 -0.53700
H 	H 	0.31960 0.36910 0.90860 0.12800
H 	H 	0.25540 0.37080 0.90890 0.13200
H 	H 	0.28860 0.39240 0.93630 0.14100
C 	C 	0.45860 0.42240 0.80580 0.40100
C 	C 	0.50030 0.38050 0.81110 -0.25900
H 	H 	0.48850 0.35980 0.82850 0.09800
C 	C 	0.55310 0.40300 0.81790 0.32000
C 	C 	0.47080 0.45540 0.77910 -0.68900
H 	H 	0.44260 0.48240 0.77640 0.17900
H 	H 	0.47230 0.43190 0.76200 0.19000
H 	H 	0.50550 0.47340 0.78150 0.21800
C 	C 	0.44740 0.45700 0.83140 -0.71300
H 	H 	0.41940 0.48300 0.82640 0.18500
H 	H 	0.48010 0.47600 0.83700 0.23400
H 	H 	0.43520 0.43460 0.84760 0.19300
C 	C 	0.37000 0.22570 0.73350 0.33000
C 	C 	0.42410 0.24420 0.72000 -0.22500
H 	H 	0.41630 0.27560 0.70720 0.06800
C 	C 	0.44960 0.19970 0.70060 0.38700
C 	C 	0.37990 0.17650 0.75290 -0.63400
H 	H 	0.40850 0.18460 0.76680 0.18800
H 	H 	0.39050 0.14600 0.74080 0.20500
H 	H 	0.34680 0.16770 0.76340 0.17100
C 	C 	0.32680 0.21630 0.71060 -0.61200
H 	H 	0.32240 0.24870 0.69880 0.16100
H 	H 	0.29270 0.20770 0.72020 0.15500
H 	H 	0.33740 0.18630 0.69810 0.19500
C 	C 	0.34480 0.21240 0.85020 0.34400
C 	C 	0.34510 0.20460 0.88340 -0.22600
H 	H 	0.36170 0.23680 0.89270 0.07500
C 	C 	0.37650 0.15370 0.89300 0.34900
C 	C 	0.32480 0.16330 0.83510 -0.64000
H 	H 	0.34990 0.13370 0.83830 0.19800
H 	H 	0.32180 0.17050 0.81420 0.16600
H 	H 	0.28950 0.15360 0.84290 0.17900
C 	C 	0.39870 0.22730 0.83590 -0.62400
H 	H 	0.42540 0.19970 0.84040 0.20800
H 	H 	0.41100 0.26200 0.84350 0.17700
H 	H 	0.39390 0.22980 0.81480 0.16700
C 	C 	0.12190 0.31070 0.88710 0.44200
C 	C 	0.11800 0.25430 0.89540 -0.32100
H 	H 	0.10670 0.23360 0.87780 0.10100
C 	C 	0.07720 0.24410 0.91890 0.43700
C 	C 	0.13770 0.34790 0.91050 -0.76000
H 	H 	0.13870 0.38460 0.90290 0.20600
H 	H 	0.17340 0.33810 0.91770 0.21500
H 	H 	0.11170 0.34580 0.92640 0.24200
C 	C 	0.06940 0.33000 0.87380 -0.71800
H 	H 	0.07320 0.36760 0.86790 0.18700
H 	H 	0.04060 0.32690 0.88820 0.23700
H 	H 	0.06080 0.30810 0.85680 0.19800
La	La	0.07793 0.62214 0.61182 1.50200
La	La	0.10510 0.95220 0.77360 0.72400
La	La	0.15740 0.89830 0.80430 0.95300
O 	O 	0.08320 0.56980 0.56100 -0.43000
O 	O 	0.15930 0.58970 0.58350 -0.39700
C 	C 	0.12970 0.57010 0.55980 0.42500
C 	C 	0.16650 0.54600 0.53400 -0.65800
H 	H 	0.20450 0.55100 0.53880 0.21200
H 	H 	0.15830 0.56460 0.51580 0.19800
H 	H 	0.15900 0.50760 0.53170 0.21500
O 	O 	0.15330 0.99720 0.82830 -0.37300
O 	O 	0.20580 0.94710 0.75640 -0.46100
O 	O 	0.15170 0.81230 0.77610 -0.58100
Ag	Ag	0.84396 0.21208 0.47785 0.46700
Ag	Ag	0.88985 0.34585 0.49873 0.46100
Ag	Ag	0.99962 0.31020 0.53849 0.46800
Ag	Ag	0.94226 0.17479 0.52382 0.45500
Ag	Ag	0.76785 0.22925 0.54047 0.46100
Ag	Ag	0.78602 0.37110 0.55986 0.47300
Ag	Ag	0.90861 0.30061 0.59450 0.46300
Ag	Ag	0.85991 0.15067 0.59684 0.47900
Pd	Pd	0.00290 0.25550 0.45383 0.71600
Pd	Pd	0.72890 0.33075 0.47625 0.71800
Pd	Pd	0.92959 0.45410 0.56228 0.71400
Pd	Pd	0.02324 0.18492 0.59935 0.72400
Pd	Pd	0.81778 0.07106 0.52109 0.71700
Pd	Pd	0.75419 0.26551 0.62538 0.70800
S 	S 	0.94090 0.19517 0.46963 -0.51900
S 	S 	0.98494 0.32294 0.48571 -0.50400
S 	S 	0.81468 0.30555 0.46844 -0.52600
S 	S 	0.72949 0.31762 0.52501 -0.50000
S 	S 	0.86412 0.41706 0.53407 -0.51600
S 	S 	0.96811 0.37531 0.57561 -0.50900
S 	S 	0.01912 0.21530 0.55295 -0.51100
S 	S 	0.93838 0.20981 0.61131 -0.48800
S 	S 	0.88471 0.10550 0.54927 -0.50100
S 	S 	0.78537 0.15158 0.50581 -0.49800
S 	S 	0.77117 0.19927 0.59272 -0.49700
S 	S 	0.81342 0.32657 0.60705 -0.51300
O 	O 	0.04860 0.10890 0.39640 -0.31100
O 	O 	0.96560 0.08990 0.38170 -0.33000
O 	O 	0.10870 0.38260 0.41023 -0.47000
O 	O 	0.12710 0.43420 0.44960 -0.33400
O 	O 	0.74350 0.37100 0.37900 -0.35500
O 	O 	0.78630 0.29460 0.36740 -0.29600
O 	O 	0.54510 0.35510 0.49140 -0.41400
O 	O 	0.55940 0.40010 0.53440 -0.38100
O 	O 	0.85030 0.61070 0.52450 -0.27200
O 	O 	0.76750 0.57610 0.52710 -0.35600
O 	O 	0.07020 0.52260 0.61901 -0.42100
O 	O 	0.13010 0.46150 0.60350 -0.31000
O 	O 	0.19720 0.13460 0.56700 -0.29900
O 	O 	0.20860 0.21020 0.54290 -0.28900
O 	O 	0.03130 0.16750 0.70120 -0.29800
O 	O 	0.94380 0.12430 0.70520 -0.45000
O 	O 	0.91320 0.91430 0.54770 -0.25700
O 	O 	0.91450 0.93510 0.59540 -0.25700
O 	O 	0.67820 0.00920 0.45855 -0.30500
O 	O 	0.68990 0.07520 0.42729 -0.46900
O 	O 	0.61390 0.14660 0.64890 -0.31200
O 	O 	0.66070 0.07130 0.64380 -0.29600
O 	O 	0.73470 0.40500 0.69340 -0.29600
O 	O 	0.74240 0.46860 0.66460 -0.35500
N 	N 	0.01830 0.19940 0.42220 -0.27000
H 	H 	0.02520 0.21710 0.40510 0.09300
H 	H 	0.04890 0.18100 0.42730 0.11400
N 	N 	0.06490 0.30510 0.43940 -0.26800
H 	H 	0.09590 0.28510 0.43900 0.10500
H 	H 	0.05740 0.31490 0.42060 0.09800
N 	N 	0.72200 0.33290 0.43220 -0.26700
H 	H 	0.69110 0.31530 0.42690 0.08100
H 	H 	0.71870 0.36810 0.42640 0.09400
N 	N 	0.65280 0.36070 0.48160 -0.27700
H 	H 	0.65030 0.39260 0.47170 0.10000
H 	H 	0.62880 0.33720 0.47330 0.09100
N 	N 	0.89460 0.52650 0.55360 -0.27300
H 	H 	0.89040 0.54490 0.57080 0.11400
H 	H 	0.91730 0.54620 0.54200 0.10000
N 	N 	0.99170 0.48900 0.58590 -0.25200
H 	H 	0.00140 0.52090 0.57740 0.07800
H 	H 	0.98010 0.49620 0.60450 0.06800
N 	N 	0.10300 0.16890 0.59140 -0.27200
H 	H 	0.12290 0.17910 0.60730 0.13100
H 	H 	0.10730 0.13250 0.58900 0.11500
N 	N 	0.02820 0.15440 0.64080 -0.27500
H 	H 	0.03850 0.11900 0.63980 0.09000
H 	H 	0.05430 0.17270 0.65090 0.10400
N 	N 	0.84190 0.99790 0.53620 -0.27500
H 	H 	0.81210 0.97900 0.54190 0.12700
H 	H 	0.85760 0.97940 0.52120 0.10600
N 	N 	0.76350 0.03890 0.49360 -0.27300
H 	H 	0.77840 0.00910 0.48510 0.09600
H 	H 	0.73430 0.02770 0.50430 0.09500
N 	N 	0.69960 0.21140 0.64370 -0.26600
H 	H 	0.70390 0.21180 0.66360 0.08700
H 	H 	0.66540 0.22320 0.63980 0.09400
N 	N 	0.73420 0.32470 0.65420 -0.26400
H 	H 	0.69750 0.32550 0.65610 0.09600
H 	H 	0.74840 0.31610 0.67210 0.09100
C 	C 	0.95860 0.13730 0.44690 0.39100
C 	C 	0.97660 0.16140 0.41710 -0.21100
H 	H 	0.94550 0.17940 0.40750 0.06400
C 	C 	0.99990 0.11470 0.39630 0.33300
C 	C 	0.00070 0.10580 0.45980 -0.74300
H 	H 	0.03270 0.12810 0.46230 0.21100
H 	H 	0.00910 0.07540 0.44710 0.23000
H 	H 	0.98880 0.09250 0.47880 0.19600
C 	C 	0.90710 0.10260 0.44230 -0.66600
H 	H 	0.87910 0.12470 0.43340 0.18100
H 	H 	0.89450 0.08910 0.46100 0.17700
H 	H 	0.91550 0.07240 0.42950 0.21700
C 	C 	0.02120 0.37840 0.46790 0.33900
C 	C 	0.07560 0.35460 0.45630 -0.22300
H 	H 	0.09870 0.34520 0.47330 0.08200
C 	C 	0.10740 0.39310 0.43620 0.36700
C 	C 	0.98930 0.40030 0.44260 -0.65500
H 	H 	0.98420 0.37210 0.42810 0.19500
H 	H 	0.00880 0.43040 0.43390 0.20700
H 	H 	0.95430 0.41270 0.44960 0.17400
C 	C 	0.02950 0.42110 0.49220 -0.61600
H 	H 	0.04990 0.40530 0.50820 0.17200
H 	H 	0.99450 0.43320 0.49940 0.15900
H 	H 	0.04930 0.45180 0.48430 0.20100
C 	C 	0.82240 0.32400 0.43050 0.42100
C 	C 	0.76840 0.30820 0.41630 -0.24900
H 	H 	0.76450 0.26820 0.41630 0.08000
C 	C 	0.76430 0.33010 0.38420 0.37100
C 	C 	0.82990 0.38480 0.42810 -0.69500
H 	H 	0.79910 0.40300 0.43690 0.19600
H 	H 	0.83240 0.39490 0.40750 0.21200
H 	H 	0.86280 0.39540 0.43810 0.18500
C 	C 	0.86770 0.29500 0.41800 -0.76300
H 	H 	0.86140 0.25630 0.41970 0.20900
H 	H 	0.90060 0.30450 0.42840 0.20200
H 	H 	0.87140 0.30470 0.39750 0.24600
C 	C 	0.65590 0.32130 0.53040 0.33200
C 	C 	0.63690 0.36980 0.51180 -0.18700
H 	H 	0.65250 0.40410 0.51930 0.06100
C 	C 	0.57160 0.37420 0.50940 0.30500
C 	C 	0.62660 0.27250 0.52250 -0.66800
H 	H 	0.64030 0.24220 0.53390 0.17900
H 	H 	0.63140 0.26520 0.50180 0.18900
H 	H 	0.58830 0.27740 0.52670 0.21300
C 	C 	0.65050 0.33050 0.56460 -0.58900
H 	H 	0.67010 0.36300 0.57010 0.16200
H 	H 	0.66540 0.29960 0.57490 0.15200
H 	H 	0.61250 0.33470 0.56970 0.20300
C 	C 	0.84070 0.47780 0.51490 0.41200
C 	C 	0.84020 0.52190 0.53870 -0.25900
H 	H 	0.81540 0.50800 0.55400 0.08800
C 	C 	0.81670 0.57410 0.52950 0.37300
C 	C 	0.87870 0.49260 0.49180 -0.71800
H 	H 	0.91400 0.49980 0.50030 0.20400
H 	H 	0.86580 0.52490 0.48180 0.22200
H 	H 	0.88160 0.46310 0.47780 0.19000
C 	C 	0.78710 0.46700 0.50150 -0.70400
H 	H 	0.76130 0.45770 0.51670 0.19200
H 	H 	0.79020 0.43700 0.48780 0.18300
H 	H 	0.77470 0.49900 0.49120 0.21700
C 	C 	0.02410 0.39900 0.59960 0.40100
C 	C 	0.03880 0.45280 0.58720 -0.26100
H 	H 	0.05160 0.44700 0.56680 0.08500
C 	C 	0.08450 0.48160 0.60430 0.37300
C 	C 	0.00360 0.40290 0.63010 -0.70200
H 	H 	0.97530 0.43010 0.63100 0.20000
H 	H 	0.03310 0.41320 0.64300 0.21300
H 	H 	0.98910 0.36810 0.63610 0.18900
C 	C 	0.06860 0.35740 0.59680 -0.71300
H 	H 	0.08070 0.35580 0.57660 0.20600
H 	H 	0.05490 0.32220 0.60270 0.20100
H 	H 	0.09870 0.36750 0.60930 0.23500
C 	C 	0.08560 0.19190 0.54010 0.40000
C 	C 	0.12360 0.19650 0.56560 -0.24100
H 	H 	0.12520 0.23550 0.57070 0.10000
C 	C 	0.18150 0.17980 0.55770 0.34700
C 	C 	0.08150 0.13360 0.53170 -0.68700
H 	H 	0.05640 0.12970 0.51540 0.17900
H 	H 	0.06860 0.11270 0.54830 0.19400
H 	H 	0.11700 0.12040 0.52580 0.20600
C 	C 	0.10090 0.22550 0.51470 -0.71500
H 	H 	0.10390 0.26310 0.52070 0.20700
H 	H 	0.07340 0.22240 0.49950 0.18400
H 	H 	0.13550 0.21330 0.50700 0.24100
C 	C 	0.94610 0.21060 0.65150 0.29900
C 	C 	0.97470 0.15830 0.65770 -0.19900
H 	H 	0.95110 0.12870 0.65050 0.05800
C 	C 	0.98400 0.14840 0.69110 0.27000
C 	C 	0.97700 0.26070 0.66020 -0.59500
H 	H 	0.01260 0.26000 0.65120 0.17100
H 	H 	0.98080 0.26180 0.68140 0.18000
H 	H 	0.95750 0.29260 0.65360 0.15100
C 	C 	0.88940 0.21190 0.66510 -0.53700
H 	H 	0.86910 0.18040 0.65860 0.12800
H 	H 	0.87080 0.24460 0.65890 0.13200
H 	H 	0.89240 0.21140 0.68630 0.14000
C 	C 	0.92240 0.04140 0.55580 0.40000
C 	C 	0.88050 0.99970 0.56110 -0.25600
H 	H 	0.85980 0.01150 0.57850 0.09600
C 	C 	0.90300 0.94690 0.56790 0.31900
C 	C 	0.95540 0.02920 0.52910 -0.69300
H 	H 	0.98240 0.05740 0.52640 0.18000
H 	H 	0.93190 0.02770 0.51200 0.19100
H 	H 	0.97340 0.99450 0.53150 0.22100
C 	C 	0.95700 0.05260 0.58140 -0.71100
H 	H 	0.98300 0.08060 0.57640 0.18400
H 	H 	0.97600 0.01990 0.58700 0.23300
H 	H 	0.93460 0.06480 0.59760 0.19300
C 	C 	0.72570 0.13000 0.48350 0.33000
C 	C 	0.74420 0.07590 0.47000 -0.22500
H 	H 	0.77560 0.08370 0.45720 0.06800
C 	C 	0.69970 0.05040 0.45060 0.38700
C 	C 	0.67650 0.12010 0.50290 -0.63400
H 	H 	0.68460 0.09150 0.51680 0.18800
H 	H 	0.64600 0.10950 0.49080 0.20500
H 	H 	0.66770 0.15320 0.51340 0.17100
C 	C 	0.71630 0.17320 0.46060 -0.61200
H 	H 	0.74870 0.17760 0.44880 0.16100
H 	H 	0.70770 0.20730 0.47020 0.15500
H 	H 	0.68630 0.16260 0.44810 0.19500
C 	C 	0.71240 0.15520 0.60020 0.34400
C 	C 	0.70460 0.15490 0.63340 -0.22600
H 	H 	0.73680 0.13830 0.64270 0.07500
C 	C 	0.65370 0.12350 0.64300 0.34900
C 	C 	0.66330 0.17520 0.58510 -0.64000
H 	H 	0.63370 0.15010 0.58830 0.19800
H 	H 	0.67050 0.17820 0.56420 0.16600
H 	H 	0.65360 0.21050 0.59290 0.17900
C 	C 	0.72730 0.10130 0.58590 -0.62400
H 	H 	0.69970 0.07460 0.59040 0.20800
H 	H 	0.76200 0.08900 0.59350 0.17600
H 	H 	0.72980 0.10610 0.56480 0.16700
C 	C 	0.81070 0.37810 0.63710 0.44100
C 	C 	0.75430 0.38200 0.64540 -0.32100
H 	H 	0.73360 0.39330 0.62780 0.10100
C 	C 	0.74410 0.42280 0.66890 0.43700
C 	C 	0.84790 0.36230 0.66050 -0.75900
H 	H 	0.88460 0.36130 0.65290 0.20600
H 	H 	0.83810 0.32660 0.66770 0.21500
H 	H 	0.84580 0.38830 0.67640 0.24100
C 	C 	0.83000 0.43060 0.62380 -0.71700
H 	H 	0.86760 0.42680 0.61790 0.18700
H 	H 	0.82690 0.45940 0.63820 0.23600
H 	H 	0.80810 0.43920 0.60680 0.19800
La	La	0.12214 0.42207 0.36182 1.50200
La	La	0.45220 0.39490 0.52360 0.72500
La	La	0.39830 0.34260 0.55430 0.95300
O 	O 	0.06980 0.41680 0.31100 -0.43000
O 	O 	0.08970 0.34070 0.33350 -0.39600
C 	C 	0.07010 0.37030 0.30980 0.42500
C 	C 	0.04600 0.33350 0.28400 -0.65800
H 	H 	0.05100 0.29550 0.28880 0.21300
H 	H 	0.06460 0.34170 0.26580 0.19900
H 	H 	0.00760 0.34100 0.28170 0.21500
O 	O 	0.49720 0.34670 0.57830 -0.37300
O 	O 	0.44710 0.29420 0.50640 -0.46100
O 	O 	0.31230 0.34830 0.52610 -0.58100
Ag	Ag	0.15604 0.78792 0.97785 0.46700
Ag	Ag	0.11015 0.65415 0.99873 0.46100
Ag	Ag	0.00038 0.68980 0.03849 0.46800
Ag	Ag	0.05774 0.82521 0.02382 0.45400
Ag	Ag	0.23215 0.77075 0.04047 0.46100
Ag	Ag	0.21398 0.62890 0.05986 0.47300
Ag	Ag	0.09139 0.69939 0.09450 0.46300
Ag	Ag	0.14009 0.84933 0.09684 0.47900
Pd	Pd	0.99710 0.74450 0.95383 0.71500
Pd	Pd	0.27110 0.66925 0.97625 0.71800
Pd	Pd	0.07041 0.54590 0.06228 0.71400
Pd	Pd	0.97676 0.81508 0.09935 0.72400
Pd	Pd	0.18222 0.92894 0.02109 0.71700
Pd	Pd	0.24581 0.73449 0.12538 0.70800
S 	S 	0.05910 0.80483 0.96963 -0.51800
S 	S 	0.01506 0.67706 0.98571 -0.50300
S 	S 	0.18532 0.69445 0.96844 -0.52600
S 	S 	0.27051 0.68238 0.02501 -0.50100
S 	S 	0.13588 0.58294 0.03407 -0.51700
S 	S 	0.03189 0.62469 0.07561 -0.50900
S 	S 	0.98088 0.78470 0.05295 -0.51200
S 	S 	0.06162 0.79019 0.11131 -0.48800
S 	S 	0.11529 0.89450 0.04927 -0.50200
S 	S 	0.21463 0.84842 0.00581 -0.50000
S 	S 	0.22883 0.80073 0.09272 -0.49700
S 	S 	0.18658 0.67343 0.10705 -0.51300
O 	O 	0.95140 0.89110 0.89640 -0.31100
O 	O 	0.03440 0.91010 0.88170 -0.33000
O 	O 	0.89130 0.61740 0.91023 -0.47000
O 	O 	0.87290 0.56580 0.94960 -0.33300
O 	O 	0.25650 0.62900 0.87900 -0.35500
O 	O 	0.21370 0.70540 0.86740 -0.29600
O 	O 	0.45490 0.64490 0.99140 -0.41200
O 	O 	0.44060 0.59990 0.03440 -0.38000
O 	O 	0.14970 0.38930 0.02450 -0.27300
O 	O 	0.23250 0.42390 0.02710 -0.35700
O 	O 	0.92980 0.47740 0.11901 -0.42100
O 	O 	0.86990 0.53850 0.10350 -0.31000
O 	O 	0.80280 0.86540 0.06700 -0.29900
O 	O 	0.79140 0.78980 0.04290 -0.28900
O 	O 	0.96870 0.83250 0.20120 -0.29800
O 	O 	0.05620 0.87570 0.20520 -0.45000
O 	O 	0.08680 0.08570 0.04770 -0.25700
O 	O 	0.08550 0.06490 0.09540 -0.25700
O 	O 	0.32180 0.99080 0.95855 -0.30500
O 	O 	0.31010 0.92480 0.92729 -0.46900
O 	O 	0.38610 0.85340 0.14890 -0.31200
O 	O 	0.33930 0.92870 0.14380 -0.29600
O 	O 	0.26530 0.59500 0.19340 -0.29500
O 	O 	0.25760 0.53140 0.16460 -0.35500
N 	N 	0.98170 0.80060 0.92220 -0.27000
H 	H 	0.97480 0.78290 0.90510 0.09300
H 	H 	0.95110 0.81900 0.92730 0.11400
N 	N 	0.93510 0.69490 0.93940 -0.26900
H 	H 	0.90410 0.71490 0.93900 0.10500
H 	H 	0.94260 0.68510 0.92060 0.09800
N 	N 	0.27800 0.66710 0.93220 -0.26700
H 	H 	0.30890 0.68470 0.92690 0.08100
H 	H 	0.28130 0.63190 0.92640 0.09400
N 	N 	0.34720 0.63930 0.98160 -0.27600
H 	H 	0.34970 0.60740 0.97170 0.10000
H 	H 	0.37120 0.66280 0.97330 0.09100
N 	N 	0.10540 0.47350 0.05360 -0.27300
H 	H 	0.10960 0.45510 0.07080 0.11400
H 	H 	0.08270 0.45380 0.04200 0.10000
N 	N 	0.00830 0.51100 0.08590 -0.25200
H 	H 	0.99860 0.47910 0.07740 0.07800
H 	H 	0.01990 0.50380 0.10450 0.06800
N 	N 	0.89700 0.83110 0.09140 -0.27200
H 	H 	0.87710 0.82090 0.10730 0.13100
H 	H 	0.89270 0.86750 0.08900 0.11500
N 	N 	0.97180 0.84560 0.14080 -0.27500
H 	H 	0.96150 0.88100 0.13980 0.09000
H 	H 	0.94570 0.82730 0.15090 0.10400
N 	N 	0.15810 0.00210 0.03620 -0.27500
H 	H 	0.18790 0.02100 0.04190 0.12600
H 	H 	0.14240 0.02060 0.02120 0.10600
N 	N 	0.23650 0.96110 0.99360 -0.27200
H 	H 	0.22160 0.99090 0.98510 0.09600
H 	H 	0.26570 0.97230 0.00430 0.09400
N 	N 	0.30040 0.78860 0.14370 -0.26600
H 	H 	0.29610 0.78820 0.16360 0.08700
H 	H 	0.33460 0.77680 0.13980 0.09400
N 	N 	0.26580 0.67530 0.15420 -0.26400
H 	H 	0.30250 0.67450 0.15610 0.09600
H 	H 	0.25160 0.68390 0.17210 0.09100
C 	C 	0.04140 0.86270 0.94690 0.39200
C 	C 	0.02340 0.83860 0.91710 -0.21100
H 	H 	0.05450 0.82060 0.90750 0.06400
C 	C 	0.00010 0.88530 0.89630 0.33300
C 	C 	0.99930 0.89420 0.95980 -0.74400
H 	H 	0.96730 0.87190 0.96230 0.21200
H 	H 	0.99090 0.92460 0.94710 0.23000
H 	H 	0.01120 0.90750 0.97880 0.19700
C 	C 	0.09290 0.89740 0.94230 -0.66700
H 	H 	0.12090 0.87530 0.93340 0.18100
H 	H 	0.10550 0.91090 0.96100 0.17700
H 	H 	0.08450 0.92760 0.92950 0.21700
C 	C 	0.97880 0.62160 0.96790 0.33800
C 	C 	0.92440 0.64540 0.95630 -0.22200
H 	H 	0.90130 0.65480 0.97330 0.08200
C 	C 	0.89260 0.60690 0.93620 0.36700
C 	C 	0.01070 0.59970 0.94260 -0.65400
H 	H 	0.01580 0.62790 0.92810 0.19400
H 	H 	0.99120 0.56960 0.93390 0.20700
H 	H 	0.04570 0.58730 0.94960 0.17400
C 	C 	0.97050 0.57890 0.99220 -0.61100
H 	H 	0.95010 0.59470 0.00820 0.17000
H 	H 	0.00550 0.56680 0.99940 0.15800
H 	H 	0.95070 0.54820 0.98430 0.20000
C 	C 	0.17760 0.67600 0.93050 0.42100
C 	C 	0.23160 0.69180 0.91630 -0.24900
H 	H 	0.23550 0.73180 0.91630 0.08000
C 	C 	0.23570 0.66990 0.88420 0.37100
C 	C 	0.17010 0.61520 0.92810 -0.69500
H 	H 	0.20090 0.59700 0.93690 0.19600
H 	H 	0.16760 0.60510 0.90750 0.21200
H 	H 	0.13720 0.60460 0.93810 0.18500
C 	C 	0.13230 0.70500 0.91800 -0.76300
H 	H 	0.13860 0.74370 0.91970 0.20800
H 	H 	0.09940 0.69550 0.92840 0.20200
H 	H 	0.12860 0.69530 0.89750 0.24500
C 	C 	0.34410 0.67870 0.03040 0.33100
C 	C 	0.36310 0.63020 0.01180 -0.18800
H 	H 	0.34750 0.59590 0.01930 0.06100
C 	C 	0.42840 0.62580 0.00940 0.30300
C 	C 	0.37340 0.72750 0.02250 -0.66700
H 	H 	0.35970 0.75780 0.03390 0.17900
H 	H 	0.36860 0.73480 0.00180 0.18800
H 	H 	0.41170 0.72260 0.02670 0.21200
C 	C 	0.34950 0.66950 0.06460 -0.58800
H 	H 	0.32990 0.63700 0.07010 0.16200
H 	H 	0.33460 0.70040 0.07490 0.15200
H 	H 	0.38750 0.66530 0.06970 0.20300
C 	C 	0.15930 0.52220 0.01490 0.41200
C 	C 	0.15980 0.47810 0.03870 -0.25900
H 	H 	0.18460 0.49200 0.05400 0.08800
C 	C 	0.18330 0.42590 0.02950 0.37300
C 	C 	0.12130 0.50740 0.99180 -0.71200
H 	H 	0.08600 0.50020 0.00030 0.20200
H 	H 	0.13420 0.47510 0.98180 0.22100
H 	H 	0.11840 0.53690 0.97780 0.18800
C 	C 	0.21290 0.53300 0.00150 -0.71300
H 	H 	0.23870 0.54230 0.01670 0.19400
H 	H 	0.20980 0.56300 0.98780 0.18700
H 	H 	0.22530 0.50100 0.99120 0.22000
C 	C 	0.97590 0.60100 0.09960 0.40100
C 	C 	0.96120 0.54720 0.08720 -0.26000
H 	H 	0.94840 0.55300 0.06680 0.08500
C 	C 	0.91550 0.51840 0.10430 0.37300
C 	C 	0.99640 0.59710 0.13010 -0.70200
H 	H 	0.02470 0.56990 0.13100 0.20000
H 	H 	0.96690 0.58680 0.14300 0.21300
H 	H 	0.01090 0.63190 0.13610 0.18900
C 	C 	0.93140 0.64260 0.09680 -0.71300
H 	H 	0.91930 0.64420 0.07660 0.20600
H 	H 	0.94510 0.67780 0.10270 0.20100
H 	H 	0.90130 0.63250 0.10930 0.23500
C 	C 	0.91440 0.80810 0.04010 0.40200
C 	C 	0.87640 0.80350 0.06560 -0.24200
H 	H 	0.87480 0.76450 0.07070 0.10000
C 	C 	0.81850 0.82020 0.05770 0.34800
C 	C 	0.91850 0.86640 0.03170 -0.68800
H 	H 	0.94360 0.87030 0.01540 0.17900
H 	H 	0.93140 0.88730 0.04830 0.19400
H 	H 	0.88300 0.87960 0.02580 0.20600
C 	C 	0.89910 0.77450 0.01470 -0.72000
H 	H 	0.89610 0.73690 0.02070 0.20900
H 	H 	0.92660 0.77760 0.99950 0.18600
H 	H 	0.86450 0.78670 0.00700 0.24200
C 	C 	0.05390 0.78940 0.15150 0.29900
C 	C 	0.02530 0.84170 0.15770 -0.19900
H 	H 	0.04890 0.87130 0.15050 0.05900
C 	C 	0.01600 0.85160 0.19110 0.27000
C 	C 	0.02300 0.73930 0.16020 -0.59500
H 	H 	0.98740 0.74000 0.15120 0.17100
H 	H 	0.01920 0.73820 0.18140 0.18000
H 	H 	0.04250 0.70740 0.15360 0.15100
C 	C 	0.11060 0.78810 0.16510 -0.53700
H 	H 	0.13090 0.81960 0.15860 0.12800
H 	H 	0.12920 0.75540 0.15890 0.13200
H 	H 	0.10760 0.78860 0.18630 0.14000
C 	C 	0.07760 0.95860 0.05580 0.40000
C 	C 	0.11950 0.00030 0.06110 -0.25600
H 	H 	0.14020 0.98850 0.07850 0.09600
C 	C 	0.09700 0.05310 0.06790 0.31900
C 	C 	0.04460 0.97080 0.02910 -0.69200
H 	H 	0.01760 0.94260 0.02640 0.18000
H 	H 	0.06810 0.97230 0.01200 0.19000
H 	H 	0.02660 0.00550 0.03150 0.22000
C 	C 	0.04300 0.94740 0.08140 -0.71100
H 	H 	0.01700 0.91940 0.07640 0.18400
H 	H 	0.02400 0.98010 0.08700 0.23300
H 	H 	0.06540 0.93520 0.09760 0.19300
C 	C 	0.27430 0.87000 0.98350 0.33500
C 	C 	0.25580 0.92410 0.97000 -0.22600
H 	H 	0.22440 0.91630 0.95720 0.06900
C 	C 	0.30030 0.94960 0.95060 0.38800
C 	C 	0.32350 0.87990 0.00290 -0.64500
H 	H 	0.31540 0.90850 0.01680 0.19100
H 	H 	0.35400 0.89050 0.99080 0.20900
H 	H 	0.33230 0.84680 0.01340 0.17400
C 	C 	0.28370 0.82680 0.96060 -0.61700
H 	H 	0.25130 0.82240 0.94880 0.16200
H 	H 	0.29230 0.79270 0.97020 0.15600
H 	H 	0.31370 0.83740 0.94810 0.19700
C 	C 	0.28760 0.84480 0.10020 0.34400
C 	C 	0.29540 0.84510 0.13340 -0.22600
H 	H 	0.26320 0.86170 0.14270 0.07500
C 	C 	0.34630 0.87650 0.14300 0.34900
C 	C 	0.33670 0.82480 0.08510 -0.64000
H 	H 	0.36630 0.84990 0.08830 0.19800
H 	H 	0.32950 0.82180 0.06420 0.16600
H 	H 	0.34640 0.78950 0.09290 0.17900
C 	C 	0.27270 0.89870 0.08590 -0.62400
H 	H 	0.30030 0.92540 0.09040 0.20800
H 	H 	0.23800 0.91100 0.09350 0.17600
H 	H 	0.27020 0.89390 0.06480 0.16700
C 	C 	0.18930 0.62190 0.13710 0.44100
C 	C 	0.24570 0.61800 0.14540 -0.32100
H 	H 	0.26640 0.60670 0.12780 0.10100
C 	C 	0.25590 0.57720 0.16890 0.43700
C 	C 	0.15210 0.63770 0.16050 -0.75900
H 	H 	0.11540 0.63870 0.15290 0.20600
H 	H 	0.16190 0.67340 0.16770 0.21500
H 	H 	0.15420 0.61170 0.17640 0.24100
C 	C 	0.17000 0.56940 0.12380 -0.71700
H 	H 	0.13240 0.57320 0.11790 0.18700
H 	H 	0.17310 0.54060 0.13820 0.23600
H 	H 	0.19190 0.56080 0.10680 0.19800
La	La	0.87786 0.57793 0.86182 1.50200
La	La	0.54780 0.60510 0.02360 0.72400
La	La	0.60170 0.65740 0.05430 0.95300
O 	O 	0.93020 0.58320 0.81100 -0.43000
O 	O 	0.91030 0.65930 0.83350 -0.39700
C 	C 	0.92990 0.62970 0.80980 0.42500
C 	C 	0.95400 0.66650 0.78400 -0.65800
H 	H 	0.94900 0.70450 0.78880 0.21300
H 	H 	0.93540 0.65830 0.76580 0.19900
H 	H 	0.99240 0.65900 0.78170 0.21500
O 	O 	0.50280 0.65330 0.07830 -0.37300
O 	O 	0.55290 0.70580 0.00640 -0.46100
O 	O 	0.68770 0.65170 0.02610 -0.58100
Ag	Ag	0.78792 0.15604 0.02215 0.46600
Ag	Ag	0.65415 0.11015 0.00127 0.46000
Ag	Ag	0.68980 0.00038 0.96151 0.46900
Ag	Ag	0.82521 0.05774 0.97618 0.45500
Ag	Ag	0.77075 0.23215 0.95953 0.46100
Ag	Ag	0.62890 0.21398 0.94014 0.47400
Ag	Ag	0.69939 0.09139 0.90550 0.46300
Ag	Ag	0.84933 0.14009 0.90316 0.47900
Pd	Pd	0.74450 0.99710 0.04617 0.71600
Pd	Pd	0.66925 0.27110 0.02375 0.71700
Pd	Pd	0.54590 0.07041 0.93772 0.71400
Pd	Pd	0.81508 0.97676 0.90065 0.72400
Pd	Pd	0.92894 0.18222 0.97891 0.71800
Pd	Pd	0.73449 0.24581 0.87462 0.70800
S 	S 	0.80483 0.05910 0.03037 -0.51900
S 	S 	0.67706 0.01506 0.01429 -0.50500
S 	S 	0.69445 0.18532 0.03156 -0.52700
S 	S 	0.68238 0.27051 0.97499 -0.49900
S 	S 	0.58294 0.13588 0.96593 -0.51600
S 	S 	0.62469 0.03189 0.92439 -0.50900
S 	S 	0.78470 0.98088 0.94705 -0.51000
S 	S 	0.79019 0.06162 0.88869 -0.48800
S 	S 	0.89450 0.11529 0.95073 -0.50100
S 	S 	0.84842 0.21463 0.99419 -0.49500
S 	S 	0.80073 0.22883 0.90728 -0.49700
S 	S 	0.67343 0.18658 0.89295 -0.51300
O 	O 	0.89110 0.95140 0.10360 -0.31100
O 	O 	0.91010 0.03440 0.11830 -0.33000
O 	O 	0.61740 0.89130 0.08977 -0.47000
O 	O 	0.56580 0.87290 0.05040 -0.33400
O 	O 	0.62900 0.25650 0.12100 -0.35500
O 	O 	0.70540 0.21370 0.13260 -0.29600
O 	O 	0.64490 0.45490 0.00860 -0.41600
O 	O 	0.59990 0.44060 0.96560 -0.38100
O 	O 	0.38930 0.14970 0.97550 -0.27200
O 	O 	0.42390 0.23250 0.97290 -0.35500
O 	O 	0.47740 0.92980 0.88099 -0.42100
O 	O 	0.53850 0.86990 0.89650 -0.31000
O 	O 	0.86540 0.80280 0.93300 -0.29900
O 	O 	0.78980 0.79140 0.95710 -0.28800
O 	O 	0.83250 0.96870 0.79880 -0.29800
O 	O 	0.87570 0.05620 0.79480 -0.45000
O 	O 	0.08570 0.08680 0.95230 -0.25700
O 	O 	0.06490 0.08550 0.90460 -0.25700
O 	O 	0.99080 0.32180 0.04145 -0.30600
O 	O 	0.92480 0.31010 0.07271 -0.46900
O 	O 	0.85340 0.38610 0.85110 -0.31200
O 	O 	0.92870 0.33930 0.85620 -0.29600
O 	O 	0.59500 0.26530 0.80660 -0.29600
O 	O 	0.53140 0.25760 0.83540 -0.35500
N 	N 	0.80060 0.98170 0.07780 -0.27000
H 	H 	0.78290 0.97480 0.09490 0.09300
H 	H 	0.81900 0.95110 0.07270 0.11400
N 	N 	0.69490 0.93510 0.06060 -0.26800
H 	H 	0.71490 0.90410 0.06100 0.10500
H 	H 	0.68510 0.94260 0.07940 0.09800
N 	N 	0.66710 0.27800 0.06780 -0.26700
H 	H 	0.68470 0.30890 0.07310 0.08100
H 	H 	0.63190 0.28130 0.07360 0.09400
N 	N 	0.63930 0.34720 0.01840 -0.27700
H 	H 	0.60740 0.34970 0.02830 0.10000
H 	H 	0.66280 0.37120 0.02670 0.09100
N 	N 	0.47350 0.10540 0.94640 -0.27300
H 	H 	0.45510 0.10960 0.92920 0.11400
H 	H 	0.45380 0.08270 0.95800 0.10000
N 	N 	0.51100 0.00830 0.91410 -0.25200
H 	H 	0.47910 0.99860 0.92260 0.07800
H 	H 	0.50380 0.01990 0.89550 0.06800
N 	N 	0.83110 0.89700 0.90860 -0.27200
H 	H 	0.82090 0.87710 0.89270 0.13100
H 	H 	0.86750 0.89270 0.91100 0.11500
N 	N 	0.84560 0.97180 0.85920 -0.27500
H 	H 	0.88100 0.96150 0.86020 0.09000
H 	H 	0.82730 0.94570 0.84910 0.10400
N 	N 	0.00210 0.15810 0.96380 -0.27500
H 	H 	0.02100 0.18790 0.95810 0.12700
H 	H 	0.02060 0.14240 0.97880 0.10600
N 	N 	0.96110 0.23650 0.00640 -0.27500
H 	H 	0.99090 0.22160 0.01490 0.09600
H 	H 	0.97230 0.26570 0.99570 0.09700
N 	N 	0.78860 0.30040 0.85630 -0.26600
H 	H 	0.78820 0.29610 0.83640 0.08700
H 	H 	0.77680 0.33460 0.86020 0.09400
N 	N 	0.67530 0.26580 0.84580 -0.26400
H 	H 	0.67450 0.30250 0.84390 0.09600
H 	H 	0.68390 0.25160 0.82790 0.09100
C 	C 	0.86270 0.04140 0.05310 0.39100
C 	C 	0.83860 0.02340 0.08290 -0.21100
H 	H 	0.82060 0.05450 0.09250 0.06400
C 	C 	0.88530 0.00010 0.10370 0.33300
C 	C 	0.89420 0.99930 0.04020 -0.74200
H 	H 	0.87190 0.96730 0.03770 0.21100
H 	H 	0.92460 0.99090 0.05290 0.23000
H 	H 	0.90750 0.01120 0.02120 0.19500
C 	C 	0.89740 0.09290 0.05770 -0.66600
H 	H 	0.87530 0.12090 0.06660 0.18100
H 	H 	0.91090 0.10550 0.03900 0.17600
H 	H 	0.92760 0.08450 0.07050 0.21700
C 	C 	0.62160 0.97880 0.03210 0.34100
C 	C 	0.64540 0.92440 0.04370 -0.22300
H 	H 	0.65480 0.90130 0.02670 0.08200
C 	C 	0.60690 0.89260 0.06380 0.36800
C 	C 	0.59970 0.01070 0.05740 -0.65600
H 	H 	0.62790 0.01580 0.07190 0.19500
H 	H 	0.56960 0.99120 0.06610 0.20700
H 	H 	0.58730 0.04570 0.05040 0.17500
C 	C 	0.57890 0.97050 0.00780 -0.62100
H 	H 	0.59470 0.95010 0.99180 0.17500
H 	H 	0.56680 0.00550 0.00060 0.16000
H 	H 	0.54820 0.95070 0.01570 0.20200
C 	C 	0.67600 0.17760 0.06950 0.42100
C 	C 	0.69180 0.23160 0.08370 -0.24900
H 	H 	0.73180 0.23550 0.08370 0.08000
C 	C 	0.66990 0.23570 0.11580 0.37100
C 	C 	0.61520 0.17010 0.07190 -0.69500
H 	H 	0.59700 0.20090 0.06310 0.19600
H 	H 	0.60510 0.16760 0.09250 0.21200
H 	H 	0.60460 0.13720 0.06190 0.18500
C 	C 	0.70500 0.13230 0.08200 -0.76300
H 	H 	0.74370 0.13860 0.08030 0.20900
H 	H 	0.69550 0.09940 0.07160 0.20200
H 	H 	0.69530 0.12860 0.10250 0.24600
C 	C 	0.67870 0.34410 0.96960 0.33200
C 	C 	0.63020 0.36310 0.98820 -0.18700
H 	H 	0.59590 0.34750 0.98070 0.06200
C 	C 	0.62580 0.42840 0.99060 0.30800
C 	C 	0.72750 0.37340 0.97750 -0.66900
H 	H 	0.75780 0.35970 0.96610 0.18000
H 	H 	0.73480 0.36860 0.99820 0.19000
H 	H 	0.72260 0.41170 0.97330 0.21300
C 	C 	0.66950 0.34950 0.93540 -0.58900
H 	H 	0.63700 0.32990 0.92990 0.16200
H 	H 	0.70040 0.33460 0.92510 0.15300
H 	H 	0.66530 0.38750 0.93030 0.20300
C 	C 	0.52220 0.15930 0.98510 0.41200
C 	C 	0.47810 0.15980 0.96130 -0.25900
H 	H 	0.49200 0.18460 0.94600 0.08800
C 	C 	0.42590 0.18330 0.97050 0.37300
C 	C 	0.50740 0.12130 0.00820 -0.72400
H 	H 	0.50020 0.08600 0.99970 0.20700
H 	H 	0.47510 0.13420 0.01820 0.22300
H 	H 	0.53690 0.11840 0.02220 0.19100
C 	C 	0.53300 0.21290 0.99850 -0.69500
H 	H 	0.54230 0.23870 0.98330 0.18900
H 	H 	0.56300 0.20980 0.01220 0.18000
H 	H 	0.50100 0.22530 0.00880 0.21300
C 	C 	0.60100 0.97590 0.90040 0.40100
C 	C 	0.54720 0.96120 0.91280 -0.26100
H 	H 	0.55300 0.94840 0.93320 0.08500
C 	C 	0.51840 0.91550 0.89570 0.37300
C 	C 	0.59710 0.99640 0.86990 -0.70200
H 	H 	0.56990 0.02470 0.86900 0.20000
H 	H 	0.58680 0.96690 0.85700 0.21300
H 	H 	0.63190 0.01090 0.86390 0.18900
C 	C 	0.64260 0.93140 0.90320 -0.71300
H 	H 	0.64420 0.91930 0.92340 0.20600
H 	H 	0.67780 0.94510 0.89730 0.20100
H 	H 	0.63250 0.90130 0.89070 0.23500
C 	C 	0.80810 0.91440 0.95990 0.39900
C 	C 	0.80350 0.87640 0.93440 -0.24100
H 	H 	0.76450 0.87480 0.92930 0.10000
C 	C 	0.82020 0.81850 0.94230 0.34700
C 	C 	0.86640 0.91850 0.96830 -0.68700
H 	H 	0.87030 0.94360 0.98460 0.17900
H 	H 	0.88730 0.93140 0.95170 0.19400
H 	H 	0.87960 0.88300 0.97420 0.20600
C 	C 	0.77450 0.89910 0.98530 -0.71000
H 	H 	0.73690 0.89610 0.97930 0.20600
H 	H 	0.77760 0.92660 0.00050 0.18100
H 	H 	0.78670 0.86450 0.99300 0.24000
C 	C 	0.78940 0.05390 0.84850 0.29900
C 	C 	0.84170 0.02530 0.84230 -0.19900
H 	H 	0.87130 0.04890 0.84950 0.05800
C 	C 	0.85160 0.01600 0.80890 0.27000
C 	C 	0.73930 0.02300 0.83980 -0.59500
H 	H 	0.74000 0.98740 0.84880 0.17100
H 	H 	0.73820 0.01920 0.81860 0.18000
H 	H 	0.70740 0.04250 0.84640 0.15100
C 	C 	0.78810 0.11060 0.83490 -0.53700
H 	H 	0.81960 0.13090 0.84140 0.12800
H 	H 	0.75540 0.12920 0.84110 0.13200
H 	H 	0.78860 0.10760 0.81370 0.14000
C 	C 	0.95860 0.07760 0.94420 0.40000
C 	C 	0.00030 0.11950 0.93890 -0.25600
H 	H 	0.98850 0.14020 0.92150 0.09600
C 	C 	0.05310 0.09700 0.93210 0.31900
C 	C 	0.97080 0.04460 0.97090 -0.69400
H 	H 	0.94260 0.01760 0.97360 0.18100
H 	H 	0.97230 0.06810 0.98800 0.19200
H 	H 	0.00550 0.02660 0.96850 0.22100
C 	C 	0.94740 0.04300 0.91860 -0.71200
H 	H 	0.91940 0.01700 0.92360 0.18400
H 	H 	0.98010 0.02400 0.91300 0.23300
H 	H 	0.93520 0.06540 0.90240 0.19300
C 	C 	0.87000 0.27430 0.01650 0.32500
C 	C 	0.92410 0.25580 0.03000 -0.22300
H 	H 	0.91630 0.22440 0.04280 0.06800
C 	C 	0.94960 0.30030 0.04940 0.38700
C 	C 	0.87990 0.32350 0.99710 -0.62400
H 	H 	0.90850 0.31540 0.98320 0.18600
H 	H 	0.89050 0.35400 0.00920 0.20100
H 	H 	0.84680 0.33230 0.98660 0.16900
C 	C 	0.82680 0.28370 0.03940 -0.60800
H 	H 	0.82240 0.25130 0.05120 0.15900
H 	H 	0.79270 0.29230 0.02980 0.15300
H 	H 	0.83740 0.31370 0.05190 0.19400
C 	C 	0.84480 0.28760 0.89980 0.34400
C 	C 	0.84510 0.29540 0.86660 -0.22600
H 	H 	0.86170 0.26320 0.85730 0.07500
C 	C 	0.87650 0.34630 0.85700 0.34900
C 	C 	0.82480 0.33670 0.91490 -0.64000
H 	H 	0.84990 0.36630 0.91170 0.19800
H 	H 	0.82180 0.32950 0.93580 0.16600
H 	H 	0.78950 0.34640 0.90710 0.17900
C 	C 	0.89870 0.27270 0.91410 -0.62400
H 	H 	0.92540 0.30030 0.90960 0.20800
H 	H 	0.91100 0.23800 0.90650 0.17600
H 	H 	0.89390 0.27020 0.93520 0.16700
C 	C 	0.62190 0.18930 0.86290 0.44100
C 	C 	0.61800 0.24570 0.85460 -0.32100
H 	H 	0.60670 0.26640 0.87220 0.10100
C 	C 	0.57720 0.25590 0.83110 0.43700
C 	C 	0.63770 0.15210 0.83950 -0.75900
H 	H 	0.63870 0.11540 0.84710 0.20600
H 	H 	0.67340 0.16190 0.83230 0.21500
H 	H 	0.61170 0.15420 0.82360 0.24100
C 	C 	0.56940 0.17000 0.87620 -0.71700
H 	H 	0.57320 0.13240 0.88210 0.18700
H 	H 	0.54060 0.17310 0.86180 0.23600
H 	H 	0.56080 0.19190 0.89320 0.19800
La	La	0.57793 0.87786 0.13818 1.50200
La	La	0.60510 0.54780 0.97640 0.72700
La	La	0.65740 0.60170 0.94570 0.95400
O 	O 	0.58320 0.93020 0.18900 -0.43000
O 	O 	0.65930 0.91030 0.16650 -0.39600
C 	C 	0.62970 0.92990 0.19020 0.42500
C 	C 	0.66650 0.95400 0.21600 -0.65800
H 	H 	0.70450 0.94900 0.21120 0.21300
H 	H 	0.65830 0.93540 0.23420 0.19900
H 	H 	0.65900 0.99240 0.21830 0.21500
O 	O 	0.65330 0.50280 0.92170 -0.37300
O 	O 	0.70580 0.55290 0.99360 -0.46000
O 	O 	0.65170 0.68770 0.97390 -0.58000
Ag	Ag	0.21208 0.84396 0.52215 0.46700
Ag	Ag	0.34585 0.88985 0.50127 0.46100
Ag	Ag	0.31020 0.99962 0.46151 0.46800
Ag	Ag	0.17479 0.94226 0.47618 0.45500
Ag	Ag	0.22925 0.76785 0.45953 0.46100
Ag	Ag	0.37110 0.78602 0.44014 0.47300
Ag	Ag	0.30061 0.90861 0.40550 0.46300
Ag	Ag	0.15067 0.85991 0.40316 0.47900
Pd	Pd	0.25550 0.00290 0.54617 0.71600
Pd	Pd	0.33075 0.72890 0.52375 0.71800
Pd	Pd	0.45410 0.92959 0.43772 0.71400
Pd	Pd	0.18492 0.02324 0.40065 0.72400
Pd	Pd	0.07106 0.81778 0.47891 0.71700
Pd	Pd	0.26551 0.75419 0.37462 0.70800
S 	S 	0.19517 0.94090 0.53037 -0.51900
S 	S 	0.32294 0.98494 0.51429 -0.50400
S 	S 	0.30555 0.81468 0.53156 -0.52600
S 	S 	0.31762 0.72949 0.47499 -0.50000
S 	S 	0.41706 0.86412 0.46593 -0.51600
S 	S 	0.37531 0.96811 0.42439 -0.50900
S 	S 	0.21530 0.01912 0.44705 -0.51100
S 	S 	0.20981 0.93838 0.38869 -0.48800
S 	S 	0.10550 0.88471 0.45073 -0.50100
S 	S 	0.15158 0.78537 0.49419 -0.49800
S 	S 	0.19927 0.77117 0.40728 -0.49700
S 	S 	0.32657 0.81342 0.39295 -0.51300
O 	O 	0.10890 0.04860 0.60360 -0.31100
O 	O 	0.08990 0.96560 0.61830 -0.33000
O 	O 	0.38260 0.10870 0.58977 -0.47000
O 	O 	0.43420 0.12710 0.55040 -0.33400
O 	O 	0.37100 0.74350 0.62100 -0.35500
O 	O 	0.29460 0.78630 0.63260 -0.29600
O 	O 	0.35510 0.54510 0.50860 -0.41400
O 	O 	0.40010 0.55940 0.46560 -0.38100
O 	O 	0.61070 0.85030 0.47550 -0.27200
O 	O 	0.57610 0.76750 0.47290 -0.35600
O 	O 	0.52260 0.07020 0.38099 -0.42100
O 	O 	0.46150 0.13010 0.39650 -0.31000
O 	O 	0.13460 0.19720 0.43300 -0.29900
O 	O 	0.21020 0.20860 0.45710 -0.28900
O 	O 	0.16750 0.03130 0.29880 -0.29800
O 	O 	0.12430 0.94380 0.29480 -0.45000
O 	O 	0.91430 0.91320 0.45230 -0.25700
O 	O 	0.93510 0.91450 0.40460 -0.25700
O 	O 	0.00920 0.67820 0.54145 -0.30500
O 	O 	0.07520 0.68990 0.57271 -0.46900
O 	O 	0.14660 0.61390 0.35110 -0.31200
O 	O 	0.07130 0.66070 0.35620 -0.29600
O 	O 	0.40500 0.73470 0.30660 -0.29500
O 	O 	0.46860 0.74240 0.33540 -0.35500
N 	N 	0.19940 0.01830 0.57780 -0.27000
H 	H 	0.21710 0.02520 0.59490 0.09300
H 	H 	0.18100 0.04890 0.57270 0.11400
N 	N 	0.30510 0.06490 0.56060 -0.26800
H 	H 	0.28510 0.09590 0.56100 0.10500
H 	H 	0.31490 0.05740 0.57940 0.09800
N 	N 	0.33290 0.72200 0.56780 -0.26700
H 	H 	0.31530 0.69110 0.57310 0.08100
H 	H 	0.36810 0.71870 0.57360 0.09400
N 	N 	0.36070 0.65280 0.51840 -0.27700
H 	H 	0.39260 0.65030 0.52830 0.10000
H 	H 	0.33720 0.62880 0.52670 0.09100
N 	N 	0.52650 0.89460 0.44640 -0.27300
H 	H 	0.54490 0.89040 0.42920 0.11400
H 	H 	0.54620 0.91730 0.45800 0.10000
N 	N 	0.48900 0.99170 0.41410 -0.25200
H 	H 	0.52090 0.00140 0.42260 0.07800
H 	H 	0.49620 0.98010 0.39550 0.06800
N 	N 	0.16890 0.10300 0.40860 -0.27200
H 	H 	0.17910 0.12290 0.39270 0.13100
H 	H 	0.13250 0.10730 0.41100 0.11500
N 	N 	0.15440 0.02820 0.35920 -0.27500
H 	H 	0.11900 0.03850 0.36020 0.09000
H 	H 	0.17270 0.05430 0.34910 0.10400
N 	N 	0.99790 0.84190 0.46380 -0.27500
H 	H 	0.97900 0.81210 0.45810 0.12700
H 	H 	0.97940 0.85760 0.47880 0.10600
N 	N 	0.03890 0.76350 0.50640 -0.27300
H 	H 	0.00910 0.77840 0.51490 0.09600
H 	H 	0.02770 0.73430 0.49570 0.09500
N 	N 	0.21140 0.69960 0.35630 -0.26600
H 	H 	0.21180 0.70390 0.33640 0.08700
H 	H 	0.22320 0.66540 0.36020 0.09400
N 	N 	0.32470 0.73420 0.34580 -0.26400
H 	H 	0.32550 0.69750 0.34390 0.09600
H 	H 	0.31610 0.74840 0.32790 0.09100
C 	C 	0.13730 0.95860 0.55310 0.39100
C 	C 	0.16140 0.97660 0.58290 -0.21100
H 	H 	0.17940 0.94550 0.59250 0.06400
C 	C 	0.11470 0.99990 0.60370 0.33300
C 	C 	0.10580 0.00070 0.54020 -0.74300
H 	H 	0.12810 0.03270 0.53770 0.21100
H 	H 	0.07540 0.00910 0.55290 0.23000
H 	H 	0.09250 0.98880 0.52120 0.19600
C 	C 	0.10260 0.90710 0.55770 -0.66600
H 	H 	0.12470 0.87910 0.56660 0.18100
H 	H 	0.08910 0.89450 0.53900 0.17700
H 	H 	0.07240 0.91550 0.57050 0.21700
C 	C 	0.37840 0.02120 0.53210 0.33900
C 	C 	0.35460 0.07560 0.54370 -0.22300
H 	H 	0.34520 0.09870 0.52670 0.08200
C 	C 	0.39310 0.10740 0.56380 0.36700
C 	C 	0.40030 0.98930 0.55740 -0.65500
H 	H 	0.37210 0.98420 0.57190 0.19500
H 	H 	0.43040 0.00880 0.56610 0.20700
H 	H 	0.41270 0.95430 0.55040 0.17400
C 	C 	0.42110 0.02950 0.50780 -0.61600
H 	H 	0.40530 0.04990 0.49180 0.17200
H 	H 	0.43320 0.99450 0.50060 0.15900
H 	H 	0.45180 0.04930 0.51570 0.20100
C 	C 	0.32400 0.82240 0.56950 0.42100
C 	C 	0.30820 0.76840 0.58370 -0.24900
H 	H 	0.26820 0.76450 0.58370 0.08000
C 	C 	0.33010 0.76430 0.61580 0.37100
C 	C 	0.38480 0.82990 0.57190 -0.69500
H 	H 	0.40300 0.79910 0.56310 0.19600
H 	H 	0.39490 0.83240 0.59250 0.21200
H 	H 	0.39540 0.86280 0.56190 0.18500
C 	C 	0.29500 0.86770 0.58200 -0.76300
H 	H 	0.25630 0.86140 0.58030 0.20900
H 	H 	0.30450 0.90060 0.57160 0.20200
H 	H 	0.30470 0.87140 0.60250 0.24600
C 	C 	0.32130 0.65590 0.46960 0.33200
C 	C 	0.36980 0.63690 0.48820 -0.18700
H 	H 	0.40410 0.65250 0.48070 0.06100
C 	C 	0.37420 0.57160 0.49060 0.30500
C 	C 	0.27250 0.62660 0.47750 -0.66800
H 	H 	0.24220 0.64030 0.46610 0.17900
H 	H 	0.26520 0.63140 0.49820 0.18900
H 	H 	0.27740 0.58830 0.47330 0.21300
C 	C 	0.33050 0.65050 0.43540 -0.58900
H 	H 	0.36300 0.67010 0.42990 0.16200
H 	H 	0.29960 0.66540 0.42510 0.15200
H 	H 	0.33470 0.61250 0.43030 0.20300
C 	C 	0.47780 0.84070 0.48510 0.41200
C 	C 	0.52190 0.84020 0.46130 -0.25900
H 	H 	0.50800 0.81540 0.44600 0.08800
C 	C 	0.57410 0.81670 0.47050 0.37300
C 	C 	0.49260 0.87870 0.50820 -0.71800
H 	H 	0.49980 0.91400 0.49970 0.20400
H 	H 	0.52490 0.86580 0.51820 0.22200
H 	H 	0.46310 0.88160 0.52220 0.19000
C 	C 	0.46700 0.78710 0.49850 -0.70400
H 	H 	0.45770 0.76130 0.48330 0.19200
H 	H 	0.43700 0.79020 0.51220 0.18300
H 	H 	0.49900 0.77470 0.50880 0.21700
C 	C 	0.39900 0.02410 0.40040 0.40100
C 	C 	0.45280 0.03880 0.41280 -0.26000
H 	H 	0.44700 0.05160 0.43320 0.08500
C 	C 	0.48160 0.08450 0.39570 0.37300
C 	C 	0.40290 0.00360 0.36990 -0.70200
H 	H 	0.43010 0.97530 0.36900 0.20000
H 	H 	0.41320 0.03310 0.35700 0.21300
H 	H 	0.36810 0.98910 0.36390 0.18900
C 	C 	0.35740 0.06860 0.40320 -0.71300
H 	H 	0.35580 0.08070 0.42340 0.20600
H 	H 	0.32220 0.05490 0.39730 0.20100
H 	H 	0.36750 0.09870 0.39070 0.23500
C 	C 	0.19190 0.08560 0.45990 0.40000
C 	C 	0.19650 0.12360 0.43440 -0.24100
H 	H 	0.23550 0.12520 0.42930 0.10000
C 	C 	0.17980 0.18150 0.44230 0.34700
C 	C 	0.13360 0.08150 0.46830 -0.68700
H 	H 	0.12970 0.05640 0.48460 0.17900
H 	H 	0.11270 0.06860 0.45170 0.19400
H 	H 	0.12040 0.11700 0.47420 0.20600
C 	C 	0.22550 0.10090 0.48530 -0.71500
H 	H 	0.26310 0.10390 0.47930 0.20700
H 	H 	0.22240 0.07340 0.50050 0.18400
H 	H 	0.21330 0.13550 0.49300 0.24100
C 	C 	0.21060 0.94610 0.34850 0.29900
C 	C 	0.15830 0.97470 0.34230 -0.19900
H 	H 	0.12870 0.95110 0.34950 0.05900
C 	C 	0.14840 0.98400 0.30890 0.27000
C 	C 	0.26070 0.97700 0.33980 -0.59500
H 	H 	0.26000 0.01260 0.34880 0.17100
H 	H 	0.26180 0.98080 0.31860 0.18000
H 	H 	0.29260 0.95750 0.34640 0.15100
C 	C 	0.21190 0.88940 0.33490 -0.53700
H 	H 	0.18040 0.86910 0.34140 0.12800
H 	H 	0.24460 0.87080 0.34110 0.13200
H 	H 	0.21140 0.89240 0.31370 0.14000
C 	C 	0.04140 0.92240 0.44420 0.40000
C 	C 	0.99970 0.88050 0.43890 -0.25600
H 	H 	0.01150 0.85980 0.42150 0.09600
C 	C 	0.94690 0.90300 0.43210 0.31900
C 	C 	0.02920 0.95540 0.47090 -0.69300
H 	H 	0.05740 0.98240 0.47360 0.18000
H 	H 	0.02770 0.93190 0.48800 0.19100
H 	H 	0.99450 0.97340 0.46850 0.22100
C 	C 	0.05260 0.95700 0.41860 -0.71100
H 	H 	0.08060 0.98300 0.42360 0.18400
H 	H 	0.01990 0.97600 0.41300 0.23300
H 	H 	0.06480 0.93460 0.40240 0.19300
C 	C 	0.13000 0.72570 0.51650 0.33000
C 	C 	0.07590 0.74420 0.53000 -0.22500
H 	H 	0.08370 0.77560 0.54280 0.06800
C 	C 	0.05040 0.69970 0.54940 0.38700
C 	C 	0.12010 0.67650 0.49710 -0.63400
H 	H 	0.09150 0.68460 0.48320 0.18800
H 	H 	0.10950 0.64600 0.50920 0.20500
H 	H 	0.15320 0.66770 0.48660 0.17100
C 	C 	0.17320 0.71630 0.53940 -0.61200
H 	H 	0.17760 0.74870 0.55120 0.16100
H 	H 	0.20730 0.70770 0.52980 0.15500
H 	H 	0.16260 0.68630 0.55190 0.19500
C 	C 	0.15520 0.71240 0.39980 0.34400
C 	C 	0.15490 0.70460 0.36660 -0.22600
H 	H 	0.13830 0.73680 0.35730 0.07500
C 	C 	0.12350 0.65370 0.35700 0.34900
C 	C 	0.17520 0.66330 0.41490 -0.64000
H 	H 	0.15010 0.63370 0.41170 0.19800
H 	H 	0.17820 0.67050 0.43580 0.16600
H 	H 	0.21050 0.65360 0.40710 0.17900
C 	C 	0.10130 0.72730 0.41410 -0.62400
H 	H 	0.07460 0.69970 0.40960 0.20800
H 	H 	0.08900 0.76200 0.40650 0.17600
H 	H 	0.10610 0.72980 0.43520 0.16700
C 	C 	0.37810 0.81070 0.36290 0.44100
C 	C 	0.38200 0.75430 0.35460 -0.32100
H 	H 	0.39330 0.73360 0.37220 0.10100
C 	C 	0.42280 0.74410 0.33110 0.43700
C 	C 	0.36230 0.84790 0.33950 -0.75900
H 	H 	0.36130 0.88460 0.34710 0.20600
H 	H 	0.32660 0.83810 0.33230 0.21500
H 	H 	0.38830 0.84580 0.32360 0.24100
C 	C 	0.43060 0.83000 0.37620 -0.71700
H 	H 	0.42680 0.86760 0.38210 0.18700
H 	H 	0.45940 0.82690 0.36180 0.23600
H 	H 	0.43920 0.80810 0.39320 0.19800
La	La	0.42207 0.12214 0.63818 1.50200
La	La	0.39490 0.45220 0.47640 0.72500
La	La	0.34260 0.39830 0.44570 0.95300
O 	O 	0.41680 0.06980 0.68900 -0.43000
O 	O 	0.34070 0.08970 0.66650 -0.39700
C 	C 	0.37030 0.07010 0.69020 0.42500
C 	C 	0.33350 0.04600 0.71600 -0.65800
H 	H 	0.29550 0.05100 0.71120 0.21300
H 	H 	0.34170 0.06460 0.73420 0.19900
H 	H 	0.34100 0.00760 0.71830 0.21500
O 	O 	0.34670 0.49720 0.42170 -0.37300
O 	O 	0.29420 0.44710 0.49360 -0.46100
O 	O 	0.34830 0.31230 0.47390 -0.58100
Ag	Ag	0.65604 0.71208 0.77215 0.46700
Ag	Ag	0.61015 0.84585 0.75127 0.46100
Ag	Ag	0.50038 0.81020 0.71151 0.46900
Ag	Ag	0.55774 0.67479 0.72618 0.45500
Ag	Ag	0.73215 0.72925 0.70953 0.46100
Ag	Ag	0.71398 0.87110 0.69014 0.47300
Ag	Ag	0.59139 0.80061 0.65550 0.46300
Ag	Ag	0.64009 0.65067 0.65316 0.47900
Pd	Pd	0.49710 0.75550 0.79617 0.71500
Pd	Pd	0.77110 0.83075 0.77375 0.71800
Pd	Pd	0.57041 0.95410 0.68772 0.71400
Pd	Pd	0.47676 0.68492 0.65065 0.72300
Pd	Pd	0.68222 0.57106 0.72891 0.71700
Pd	Pd	0.74581 0.76551 0.62462 0.70800
S 	S 	0.55910 0.69517 0.78037 -0.51900
S 	S 	0.51506 0.82294 0.76429 -0.50300
S 	S 	0.68532 0.80555 0.78156 -0.52600
S 	S 	0.77051 0.81762 0.72499 -0.50000
S 	S 	0.63588 0.91706 0.71593 -0.51600
S 	S 	0.53189 0.87531 0.67439 -0.50900
S 	S 	0.48088 0.71530 0.69705 -0.51200
S 	S 	0.56162 0.70981 0.63869 -0.48700
S 	S 	0.61529 0.60550 0.70073 -0.50100
S 	S 	0.71463 0.65158 0.74419 -0.49800
S 	S 	0.72883 0.69927 0.65728 -0.49700
S 	S 	0.68658 0.82657 0.64295 -0.51300
O 	O 	0.45140 0.60890 0.85360 -0.31300
O 	O 	0.53440 0.58990 0.86830 -0.33000
O 	O 	0.39130 0.88260 0.83977 -0.47000
O 	O 	0.37290 0.93420 0.80040 -0.33400
O 	O 	0.75650 0.87100 0.87100 -0.35500
O 	O 	0.71370 0.79460 0.88260 -0.29500
O 	O 	0.95490 0.85510 0.75860 -0.41300
O 	O 	0.94060 0.90010 0.71560 -0.38000
O 	O 	0.64970 0.11070 0.72550 -0.27200
O 	O 	0.73250 0.07610 0.72290 -0.35600
O 	O 	0.42980 0.02260 0.63099 -0.42100
O 	O 	0.36990 0.96150 0.64650 -0.31000
O 	O 	0.30280 0.63460 0.68300 -0.29900
O 	O 	0.29140 0.71020 0.70710 -0.28900
O 	O 	0.46870 0.66750 0.54880 -0.29900
O 	O 	0.55620 0.62430 0.54480 -0.44900
O 	O 	0.58680 0.41430 0.70230 -0.25800
O 	O 	0.58550 0.43510 0.65460 -0.25800
O 	O 	0.82180 0.50920 0.79145 -0.30500
O 	O 	0.81010 0.57520 0.82271 -0.46900
O 	O 	0.88610 0.64660 0.60110 -0.31100
O 	O 	0.83930 0.57130 0.60620 -0.29600
O 	O 	0.76530 0.90500 0.55660 -0.29500
O 	O 	0.75760 0.96860 0.58540 -0.35400
N 	N 	0.48170 0.69940 0.82780 -0.27100
H 	H 	0.47480 0.71710 0.84490 0.09200
H 	H 	0.45110 0.68100 0.82270 0.11400
N 	N 	0.43510 0.80510 0.81060 -0.26900
H 	H 	0.40410 0.78510 0.81100 0.10500
H 	H 	0.44260 0.81490 0.82940 0.09800
N 	N 	0.77800 0.83290 0.81780 -0.26700
H 	H 	0.80890 0.81530 0.82310 0.08100
H 	H 	0.78130 0.86810 0.82360 0.09400
N 	N 	0.84720 0.86070 0.76840 -0.27700
H 	H 	0.84970 0.89260 0.77830 0.10000
H 	H 	0.87120 0.83720 0.77670 0.09100
N 	N 	0.60540 0.02650 0.69640 -0.27300
H 	H 	0.60960 0.04490 0.67920 0.11400
H 	H 	0.58270 0.04620 0.70800 0.10000
N 	N 	0.50830 0.98900 0.66410 -0.25200
H 	H 	0.49860 0.02090 0.67260 0.07800
H 	H 	0.51990 0.99620 0.64550 0.06800
N 	N 	0.39700 0.66890 0.65860 -0.27200
H 	H 	0.37710 0.67910 0.64270 0.13100
H 	H 	0.39270 0.63250 0.66100 0.11500
N 	N 	0.47180 0.65440 0.60920 -0.27500
H 	H 	0.46150 0.61900 0.61020 0.09000
H 	H 	0.44570 0.67270 0.59910 0.10400
N 	N 	0.65810 0.49790 0.71380 -0.27500
H 	H 	0.68790 0.47900 0.70810 0.12600
H 	H 	0.64240 0.47940 0.72880 0.10600
N 	N 	0.73650 0.53890 0.75640 -0.27400
H 	H 	0.72160 0.50910 0.76490 0.09600
H 	H 	0.76570 0.52770 0.74570 0.09600
N 	N 	0.80040 0.71140 0.60630 -0.26600
H 	H 	0.79610 0.71180 0.58640 0.08700
H 	H 	0.83460 0.72320 0.61020 0.09400
N 	N 	0.76580 0.82470 0.59580 -0.26400
H 	H 	0.80250 0.82550 0.59390 0.09600
H 	H 	0.75160 0.81610 0.57790 0.09100
C 	C 	0.54140 0.63730 0.80310 0.39600
C 	C 	0.52340 0.66140 0.83290 -0.21200
H 	H 	0.55450 0.67940 0.84250 0.06400
C 	C 	0.50010 0.61470 0.85370 0.33500
C 	C 	0.49930 0.60580 0.79020 -0.75300
H 	H 	0.46730 0.62810 0.78770 0.21400
H 	H 	0.49090 0.57540 0.80290 0.23200
H 	H 	0.51120 0.59250 0.77120 0.20000
C 	C 	0.59290 0.60260 0.80770 -0.67000
H 	H 	0.62090 0.62470 0.81660 0.18200
H 	H 	0.60550 0.58910 0.78900 0.17800
H 	H 	0.58450 0.57240 0.82050 0.21800
C 	C 	0.47880 0.87840 0.78210 0.33800
C 	C 	0.42440 0.85460 0.79370 -0.22200
H 	H 	0.40130 0.84520 0.77670 0.08200
C 	C 	0.39260 0.89310 0.81380 0.36700
C 	C 	0.51070 0.90030 0.80740 -0.65300
H 	H 	0.51580 0.87210 0.82190 0.19400
H 	H 	0.49120 0.93040 0.81610 0.20600
H 	H 	0.54570 0.91270 0.80040 0.17400
C 	C 	0.47050 0.92110 0.75780 -0.61600
H 	H 	0.45010 0.90530 0.74180 0.17200
H 	H 	0.50550 0.93320 0.75060 0.15900
H 	H 	0.45070 0.95180 0.76570 0.20100
C 	C 	0.67760 0.82400 0.81950 0.42100
C 	C 	0.73160 0.80820 0.83370 -0.24900
H 	H 	0.73550 0.76820 0.83370 0.08000
C 	C 	0.73570 0.83010 0.86580 0.37100
C 	C 	0.67010 0.88480 0.82190 -0.69500
H 	H 	0.70090 0.90300 0.81310 0.19600
H 	H 	0.66760 0.89490 0.84250 0.21300
H 	H 	0.63720 0.89540 0.81190 0.18500
C 	C 	0.63230 0.79500 0.83200 -0.76300
H 	H 	0.63860 0.75630 0.83030 0.20900
H 	H 	0.59940 0.80450 0.82160 0.20200
H 	H 	0.62860 0.80470 0.85250 0.24600
C 	C 	0.84410 0.82130 0.71960 0.33200
C 	C 	0.86310 0.86980 0.73820 -0.18700
H 	H 	0.84750 0.90410 0.73070 0.06100
C 	C 	0.92840 0.87420 0.74060 0.30500
C 	C 	0.87340 0.77250 0.72750 -0.66800
H 	H 	0.85970 0.74220 0.71610 0.17900
H 	H 	0.86860 0.76520 0.74820 0.18900
H 	H 	0.91170 0.77740 0.72330 0.21300
C 	C 	0.84950 0.83050 0.68540 -0.58900
H 	H 	0.82990 0.86300 0.67990 0.16200
H 	H 	0.83460 0.79960 0.67510 0.15300
H 	H 	0.88750 0.83470 0.68030 0.20300
C 	C 	0.65930 0.97780 0.73510 0.41200
C 	C 	0.65980 0.02190 0.71130 -0.25900
H 	H 	0.68460 0.00800 0.69600 0.08800
C 	C 	0.68330 0.07410 0.72050 0.37400
C 	C 	0.62130 0.99260 0.75820 -0.71700
H 	H 	0.58600 0.99980 0.74970 0.20400
H 	H 	0.63420 0.02490 0.76820 0.22100
H 	H 	0.61840 0.96310 0.77220 0.19000
C 	C 	0.71290 0.96700 0.74850 -0.70500
H 	H 	0.73870 0.95770 0.73330 0.19200
H 	H 	0.70980 0.93700 0.76220 0.18300
H 	H 	0.72530 0.99900 0.75880 0.21700
C 	C 	0.47590 0.89900 0.65040 0.40100
C 	C 	0.46120 0.95280 0.66280 -0.26100
H 	H 	0.44840 0.94700 0.68320 0.08500
C 	C 	0.41550 0.98160 0.64570 0.37300
C 	C 	0.49640 0.90290 0.61990 -0.70400
H 	H 	0.52470 0.93010 0.61900 0.20100
H 	H 	0.46690 0.91320 0.60700 0.21400
H 	H 	0.51090 0.86810 0.61390 0.19000
C 	C 	0.43140 0.85740 0.65320 -0.71400
H 	H 	0.41930 0.85580 0.67340 0.20600
H 	H 	0.44510 0.82220 0.64730 0.20100
H 	H 	0.40130 0.86750 0.64070 0.23500
C 	C 	0.41440 0.69190 0.70990 0.40000
C 	C 	0.37640 0.69650 0.68440 -0.24100
H 	H 	0.37480 0.73550 0.67930 0.10000
C 	C 	0.31850 0.67980 0.69230 0.34700
C 	C 	0.41850 0.63360 0.71830 -0.68700
H 	H 	0.44360 0.62970 0.73460 0.17800
H 	H 	0.43140 0.61270 0.70170 0.19400
H 	H 	0.38300 0.62040 0.72420 0.20500
C 	C 	0.39910 0.72550 0.73530 -0.71400
H 	H 	0.39610 0.76310 0.72930 0.20700
H 	H 	0.42660 0.72240 0.75050 0.18300
H 	H 	0.36450 0.71330 0.74300 0.24100
C 	C 	0.55390 0.71060 0.59850 0.29800
C 	C 	0.52530 0.65830 0.59230 -0.19800
H 	H 	0.54890 0.62870 0.59950 0.05800
C 	C 	0.51600 0.64840 0.55890 0.27100
C 	C 	0.52300 0.76070 0.58980 -0.59200
H 	H 	0.48740 0.76000 0.59880 0.16900
H 	H 	0.51920 0.76180 0.56860 0.17900
H 	H 	0.54250 0.79260 0.59640 0.15000
C 	C 	0.61060 0.71190 0.58490 -0.53600
H 	H 	0.63090 0.68040 0.59140 0.12800
H 	H 	0.62920 0.74460 0.59110 0.13100
H 	H 	0.60760 0.71140 0.56370 0.14000
C 	C 	0.57760 0.54140 0.69420 0.40100
C 	C 	0.61950 0.49970 0.68890 -0.25900
H 	H 	0.64020 0.51150 0.67150 0.09800
C 	C 	0.59700 0.44690 0.68210 0.32000
C 	C 	0.54460 0.52920 0.72090 -0.68900
H 	H 	0.51760 0.55740 0.72360 0.17900
H 	H 	0.56810 0.52770 0.73800 0.19000
H 	H 	0.52660 0.49450 0.71850 0.21800
C 	C 	0.54300 0.55260 0.66860 -0.71300
H 	H 	0.51700 0.58060 0.67360 0.18500
H 	H 	0.52400 0.51990 0.66300 0.23400
H 	H 	0.56540 0.56480 0.65240 0.19300
C 	C 	0.77430 0.63000 0.76650 0.33000
C 	C 	0.75580 0.57590 0.78000 -0.22500
H 	H 	0.72440 0.58370 0.79280 0.06800
C 	C 	0.80030 0.55040 0.79940 0.38700
C 	C 	0.82350 0.62010 0.74710 -0.63400
H 	H 	0.81540 0.59150 0.73320 0.18800
H 	H 	0.85400 0.60950 0.75920 0.20500
H 	H 	0.83230 0.65320 0.73660 0.17100
C 	C 	0.78370 0.67320 0.78940 -0.61200
H 	H 	0.75130 0.67760 0.80120 0.16100
H 	H 	0.79230 0.70730 0.77980 0.15500
H 	H 	0.81370 0.66260 0.80190 0.19500
C 	C 	0.78760 0.65520 0.64980 0.34400
C 	C 	0.79540 0.65490 0.61660 -0.22600
H 	H 	0.76320 0.63830 0.60730 0.07500
C 	C 	0.84630 0.62350 0.60700 0.34900
C 	C 	0.83670 0.67520 0.66490 -0.64000
H 	H 	0.86630 0.65010 0.66170 0.19800
H 	H 	0.82950 0.67820 0.68580 0.16600
H 	H 	0.84640 0.71050 0.65710 0.17900
C 	C 	0.77270 0.60130 0.66410 -0.62400
H 	H 	0.80030 0.57460 0.65960 0.20800
H 	H 	0.73800 0.58900 0.65650 0.17700
H 	H 	0.77020 0.60610 0.68520 0.16700
C 	C 	0.68930 0.87810 0.61290 0.44200
C 	C 	0.74570 0.88200 0.60460 -0.32100
H 	H 	0.76640 0.89330 0.62220 0.10100
C 	C 	0.75590 0.92280 0.58110 0.43700
C 	C 	0.65210 0.86230 0.58950 -0.75900
H 	H 	0.61540 0.86130 0.59710 0.20600
H 	H 	0.66190 0.82660 0.58230 0.21500
H 	H 	0.65420 0.88830 0.57360 0.24100
C 	C 	0.67000 0.93060 0.62620 -0.71800
H 	H 	0.63240 0.92680 0.63210 0.18700
H 	H 	0.67310 0.95940 0.61180 0.23700
H 	H 	0.69190 0.93920 0.64320 0.19800
La	La	0.37786 0.92207 0.88818 1.50200
La	La	0.04780 0.89490 0.72640 0.72400
La	La	0.10170 0.84260 0.69570 0.95300
O 	O 	0.43020 0.91680 0.93900 -0.43000
O 	O 	0.41030 0.84070 0.91650 -0.39700
C 	C 	0.42990 0.87030 0.94020 0.42500
C 	C 	0.45400 0.83350 0.96600 -0.65800
H 	H 	0.44900 0.79550 0.96120 0.21300
H 	H 	0.43540 0.84170 0.98420 0.19900
H 	H 	0.49240 0.84100 0.96830 0.21600
O 	O 	0.00280 0.84670 0.67170 -0.37300
O 	O 	0.05290 0.79420 0.74360 -0.46100
O 	O 	0.18770 0.84830 0.72390 -0.58100
Ag	Ag	0.34396 0.28792 0.27215 0.46700
Ag	Ag	0.38985 0.15415 0.25127 0.46100
Ag	Ag	0.49962 0.18980 0.21151 0.46900
Ag	Ag	0.44226 0.32521 0.22618 0.45500
Ag	Ag	0.26785 0.27075 0.20953 0.46100
Ag	Ag	0.28602 0.12890 0.19014 0.47300
Ag	Ag	0.40861 0.19939 0.15550 0.46300
Ag	Ag	0.35991 0.34933 0.15316 0.47900
Pd	Pd	0.50290 0.24450 0.29617 0.71500
Pd	Pd	0.22890 0.16925 0.27375 0.71800
Pd	Pd	0.42959 0.04590 0.18772 0.71400
Pd	Pd	0.52324 0.31508 0.15065 0.72300
Pd	Pd	0.31778 0.42894 0.22891 0.71800
Pd	Pd	0.25419 0.23449 0.12462 0.70800
S 	S 	0.44090 0.30483 0.28037 -0.51900
S 	S 	0.48494 0.17706 0.26429 -0.50300
S 	S 	0.31468 0.19445 0.28156 -0.52600
S 	S 	0.22949 0.18238 0.22499 -0.50000
S 	S 	0.36412 0.08294 0.21593 -0.51600
S 	S 	0.46811 0.12469 0.17439 -0.50900
S 	S 	0.51912 0.28470 0.19705 -0.51200
S 	S 	0.43838 0.29019 0.13869 -0.48700
S 	S 	0.38471 0.39450 0.20073 -0.50100
S 	S 	0.28537 0.34842 0.24419 -0.49800
S 	S 	0.27117 0.30073 0.15728 -0.49700
S 	S 	0.31342 0.17343 0.14295 -0.51300
O 	O 	0.54860 0.39110 0.35360 -0.31300
O 	O 	0.46560 0.41010 0.36830 -0.33000
O 	O 	0.60870 0.11740 0.33977 -0.47000
O 	O 	0.62710 0.06580 0.30040 -0.33400
O 	O 	0.24350 0.12900 0.37100 -0.35500
O 	O 	0.28630 0.20540 0.38260 -0.29500
O 	O 	0.04510 0.14490 0.25860 -0.41300
O 	O 	0.05940 0.09990 0.21560 -0.38000
O 	O 	0.35030 0.88930 0.22550 -0.27200
O 	O 	0.26750 0.92390 0.22290 -0.35600
O 	O 	0.57020 0.97740 0.13099 -0.42100
O 	O 	0.63010 0.03850 0.14650 -0.31000
O 	O 	0.69720 0.36540 0.18300 -0.29900
O 	O 	0.70860 0.28980 0.20710 -0.28900
O 	O 	0.53130 0.33250 0.04880 -0.29900
O 	O 	0.44380 0.37570 0.04480 -0.45000
O 	O 	0.41320 0.58570 0.20230 -0.25800
O 	O 	0.41450 0.56490 0.15460 -0.25800
O 	O 	0.17820 0.49080 0.29145 -0.30500
O 	O 	0.18990 0.42480 0.32271 -0.46900
O 	O 	0.11390 0.35340 0.10110 -0.31100
O 	O 	0.16070 0.42870 0.10620 -0.29600
O 	O 	0.23470 0.09500 0.05660 -0.29600
O 	O 	0.24240 0.03140 0.08540 -0.35400
N 	N 	0.51830 0.30060 0.32780 -0.27100
H 	H 	0.52520 0.28290 0.34490 0.09200
H 	H 	0.54890 0.31900 0.32270 0.11400
N 	N 	0.56490 0.19490 0.31060 -0.26900
H 	H 	0.59590 0.21490 0.31100 0.10500
H 	H 	0.55740 0.18510 0.32940 0.09800
N 	N 	0.22200 0.16710 0.31780 -0.26700
H 	H 	0.19110 0.18470 0.32310 0.08100
H 	H 	0.21870 0.13190 0.32360 0.09400
N 	N 	0.15280 0.13930 0.26840 -0.27700
H 	H 	0.15030 0.10740 0.27830 0.10000
H 	H 	0.12880 0.16280 0.27670 0.09100
N 	N 	0.39460 0.97350 0.19640 -0.27300
H 	H 	0.39040 0.95510 0.17920 0.11400
H 	H 	0.41730 0.95380 0.20800 0.10000
N 	N 	0.49170 0.01100 0.16410 -0.25200
H 	H 	0.50140 0.97910 0.17260 0.07800
H 	H 	0.48010 0.00380 0.14550 0.06800
N 	N 	0.60300 0.33110 0.15860 -0.27200
H 	H 	0.62290 0.32090 0.14270 0.13100
H 	H 	0.60730 0.36750 0.16100 0.11500
N 	N 	0.52820 0.34560 0.10920 -0.27500
H 	H 	0.53850 0.38100 0.11020 0.09000
H 	H 	0.55430 0.32730 0.09910 0.10400
N 	N 	0.34190 0.50210 0.21380 -0.27500
H 	H 	0.31210 0.52100 0.20810 0.12600
H 	H 	0.35760 0.52060 0.22880 0.10600
N 	N 	0.26350 0.46110 0.25640 -0.27400
H 	H 	0.27840 0.49090 0.26490 0.09600
H 	H 	0.23430 0.47230 0.24570 0.09600
N 	N 	0.19960 0.28860 0.10630 -0.26600
H 	H 	0.20390 0.28820 0.08640 0.08700
H 	H 	0.16540 0.27680 0.11020 0.09400
N 	N 	0.23420 0.17530 0.09580 -0.26400
H 	H 	0.19750 0.17450 0.09390 0.09600
H 	H 	0.24840 0.18390 0.07790 0.09000
C 	C 	0.45860 0.36270 0.30310 0.39600
C 	C 	0.47660 0.33860 0.33290 -0.21200
H 	H 	0.44550 0.32060 0.34250 0.06400
C 	C 	0.49990 0.38530 0.35370 0.33500
C 	C 	0.50070 0.39420 0.29020 -0.75300
H 	H 	0.53270 0.37190 0.28770 0.21400
H 	H 	0.50910 0.42460 0.30290 0.23200
H 	H 	0.48880 0.40750 0.27120 0.20000
C 	C 	0.40710 0.39740 0.30770 -0.67000
H 	H 	0.37910 0.37530 0.31660 0.18200
H 	H 	0.39450 0.41090 0.28900 0.17800
H 	H 	0.41550 0.42760 0.32050 0.21800
C 	C 	0.52120 0.12160 0.28210 0.33800
C 	C 	0.57560 0.14540 0.29370 -0.22200
H 	H 	0.59870 0.15480 0.27670 0.08200
C 	C 	0.60740 0.10690 0.31380 0.36700
C 	C 	0.48930 0.09970 0.30740 -0.65300
H 	H 	0.48420 0.12790 0.32190 0.19400
H 	H 	0.50880 0.06960 0.31610 0.20600
H 	H 	0.45430 0.08730 0.30040 0.17400
C 	C 	0.52950 0.07890 0.25780 -0.61600
H 	H 	0.54990 0.09470 0.24180 0.17200
H 	H 	0.49450 0.06680 0.25060 0.15900
H 	H 	0.54930 0.04820 0.26570 0.20100
C 	C 	0.32240 0.17600 0.31950 0.42100
C 	C 	0.26840 0.19180 0.33370 -0.24900
H 	H 	0.26450 0.23180 0.33370 0.08000
C 	C 	0.26430 0.16990 0.36580 0.37100
C 	C 	0.32990 0.11520 0.32190 -0.69500
H 	H 	0.29910 0.09700 0.31310 0.19600
H 	H 	0.33240 0.10510 0.34250 0.21300
H 	H 	0.36280 0.10460 0.31190 0.18500
C 	C 	0.36770 0.20500 0.33200 -0.76300
H 	H 	0.36140 0.24370 0.33030 0.20900
H 	H 	0.40060 0.19550 0.32160 0.20200
H 	H 	0.37140 0.19530 0.35250 0.24600
C 	C 	0.15590 0.17870 0.21960 0.33200
C 	C 	0.13690 0.13020 0.23820 -0.18700
H 	H 	0.15250 0.09590 0.23070 0.06100
C 	C 	0.07160 0.12580 0.24060 0.30500
C 	C 	0.12660 0.22750 0.22750 -0.66800
H 	H 	0.14030 0.25780 0.21610 0.17900
H 	H 	0.13140 0.23480 0.24820 0.18900
H 	H 	0.08830 0.22260 0.22330 0.21300
C 	C 	0.15050 0.16950 0.18540 -0.58900
H 	H 	0.17010 0.13700 0.17990 0.16200
H 	H 	0.16540 0.20040 0.17510 0.15300
H 	H 	0.11250 0.16530 0.18030 0.20300
C 	C 	0.34070 0.02220 0.23510 0.41200
C 	C 	0.34020 0.97810 0.21130 -0.25900
H 	H 	0.31540 0.99200 0.19600 0.08800
C 	C 	0.31670 0.92590 0.22050 0.37400
C 	C 	0.37870 0.00740 0.25820 -0.71700
H 	H 	0.41400 0.00020 0.24970 0.20400
H 	H 	0.36580 0.97510 0.26820 0.22100
H 	H 	0.38160 0.03690 0.27220 0.19000
C 	C 	0.28710 0.03300 0.24850 -0.70500
H 	H 	0.26130 0.04230 0.23330 0.19200
H 	H 	0.29020 0.06300 0.26220 0.18300
H 	H 	0.27470 0.00100 0.25880 0.21700
C 	C 	0.52410 0.10100 0.15040 0.40100
C 	C 	0.53880 0.04720 0.16280 -0.26100
H 	H 	0.55160 0.05300 0.18320 0.08500
C 	C 	0.58450 0.01840 0.14570 0.37300
C 	C 	0.50360 0.09710 0.11990 -0.70400
H 	H 	0.47530 0.06990 0.11900 0.20100
H 	H 	0.53310 0.08680 0.10700 0.21300
H 	H 	0.48910 0.13190 0.11390 0.19000
C 	C 	0.56860 0.14260 0.15320 -0.71400
H 	H 	0.58070 0.14420 0.17340 0.20600
H 	H 	0.55490 0.17780 0.14730 0.20100
H 	H 	0.59870 0.13250 0.14070 0.23500
C 	C 	0.58560 0.30810 0.20990 0.40000
C 	C 	0.62360 0.30350 0.18440 -0.24100
H 	H 	0.62520 0.26450 0.17930 0.10000
C 	C 	0.68150 0.32020 0.19230 0.34700
C 	C 	0.58150 0.36640 0.21830 -0.68700
H 	H 	0.55640 0.37030 0.23460 0.17800
H 	H 	0.56860 0.38730 0.20170 0.19400
H 	H 	0.61700 0.37960 0.22420 0.20500
C 	C 	0.60090 0.27450 0.23530 -0.71400
H 	H 	0.60390 0.23690 0.22930 0.20700
H 	H 	0.57340 0.27760 0.25050 0.18300
H 	H 	0.63550 0.28670 0.24300 0.24100
C 	C 	0.44610 0.28940 0.09850 0.29700
C 	C 	0.47470 0.34170 0.09230 -0.19800
H 	H 	0.45110 0.37130 0.09950 0.05800
C 	C 	0.48400 0.35160 0.05890 0.27100
C 	C 	0.47700 0.23930 0.08980 -0.59200
H 	H 	0.51260 0.24000 0.09880 0.16900
H 	H 	0.48080 0.23820 0.06860 0.17900
H 	H 	0.45750 0.20740 0.09640 0.15000
C 	C 	0.38940 0.28810 0.08490 -0.53600
H 	H 	0.36910 0.31960 0.09140 0.12800
H 	H 	0.37080 0.25540 0.09110 0.13100
H 	H 	0.39240 0.28860 0.06370 0.14000
C 	C 	0.42240 0.45860 0.19420 0.40100
C 	C 	0.38050 0.50030 0.18890 -0.25900
H 	H 	0.35980 0.48850 0.17150 0.09800
C 	C 	0.40300 0.55310 0.18210 0.32000
C 	C 	0.45540 0.47080 0.22090 -0.68900
H 	H 	0.48240 0.44260 0.22360 0.17900
H 	H 	0.43190 0.47230 0.23800 0.19000
H 	H 	0.47340 0.50550 0.21850 0.21800
C 	C 	0.45700 0.44740 0.16860 -0.71300
H 	H 	0.48300 0.41940 0.17360 0.18500
H 	H 	0.47600 0.48010 0.16300 0.23400
H 	H 	0.43460 0.43520 0.15240 0.19300
C 	C 	0.22570 0.37000 0.26650 0.33000
C 	C 	0.24420 0.42410 0.28000 -0.22500
H 	H 	0.27560 0.41630 0.29280 0.06800
C 	C 	0.19970 0.44960 0.29940 0.38700
C 	C 	0.17650 0.37990 0.24710 -0.63400
H 	H 	0.18460 0.40850 0.23320 0.18800
H 	H 	0.14600 0.39050 0.25920 0.20500
H 	H 	0.16770 0.34680 0.23660 0.17100
C 	C 	0.21630 0.32680 0.28940 -0.61200
H 	H 	0.24870 0.32240 0.30120 0.16100
H 	H 	0.20770 0.29270 0.27980 0.15500
H 	H 	0.18630 0.33740 0.30190 0.19500
C 	C 	0.21240 0.34480 0.14980 0.34400
C 	C 	0.20460 0.34510 0.11660 -0.22600
H 	H 	0.23680 0.36170 0.10730 0.07500
C 	C 	0.15370 0.37650 0.10700 0.34900
C 	C 	0.16330 0.32480 0.16490 -0.64000
H 	H 	0.13370 0.34990 0.16170 0.19800
H 	H 	0.17050 0.32180 0.18580 0.16600
H 	H 	0.15360 0.28950 0.15710 0.17900
C 	C 	0.22730 0.39870 0.16410 -0.62400
H 	H 	0.19970 0.42540 0.15960 0.20800
H 	H 	0.26200 0.41100 0.15650 0.17700
H 	H 	0.22980 0.39390 0.18520 0.16700
C 	C 	0.31070 0.12190 0.11290 0.44100
C 	C 	0.25430 0.11800 0.10460 -0.32100
H 	H 	0.23360 0.10670 0.12220 0.10100
C 	C 	0.24410 0.07720 0.08110 0.43700
C 	C 	0.34790 0.13770 0.08950 -0.75900
H 	H 	0.38460 0.13870 0.09710 0.20600
H 	H 	0.33810 0.17340 0.08230 0.21500
H 	H 	0.34580 0.11170 0.07360 0.24100
C 	C 	0.33000 0.06940 0.12620 -0.71800
H 	H 	0.36760 0.07320 0.13210 0.18700
H 	H 	0.32690 0.04060 0.11180 0.23600
H 	H 	0.30810 0.06080 0.14320 0.19800
La	La	0.62214 0.07793 0.38818 1.50200
La	La	0.95220 0.10510 0.22640 0.72400
La	La	0.89830 0.15740 0.19570 0.95300
O 	O 	0.56980 0.08320 0.43900 -0.43000
O 	O 	0.58970 0.15930 0.41650 -0.39700
C 	C 	0.57010 0.12970 0.44020 0.42500
C 	C 	0.54600 0.16650 0.46600 -0.65800
H 	H 	0.55100 0.20450 0.46120 0.21200
H 	H 	0.56460 0.15830 0.48420 0.19800
H 	H 	0.50760 0.15900 0.46830 0.21500
O 	O 	0.99720 0.15330 0.17170 -0.37300
O 	O 	0.94710 0.20580 0.24360 -0.46100
O 	O 	0.81230 0.15170 0.22390 -0.58100
La	La	0.61403 0.61403 0.50000 1.27800
La	La	0.38597 0.38597 -0.00000 1.27700
La	La	0.88597 0.11403 0.75000 1.27800
La	La	0.11403 0.88597 0.25000 1.27800
La	La	0.86655 0.13345 0.25000 1.00400
La	La	0.13345 0.86655 0.75000 1.00400
La	La	0.36655 0.36655 0.50000 1.00400
La	La	0.63345 0.63345 -0.00000 1.00200
