data_crystal

_cell_length_a 38.06800
_cell_length_b 38.06800
_cell_length_c 38.06800
_cell_angle_alpha 90.00000
_cell_angle_beta  90.00000
_cell_angle_gamma 90.00000

_symmetry_space_group_name_	'P 1'
_symmetry_space_group_name_H-M	'P 1'

loop_
_symmetry_equiv_pos_as_xyz
  x,y,z

loop_
_atom_site_label
_atom_site_type_symbol
_atom_site_fract_x
_atom_site_fract_y
_atom_site_fract_z
_atom_site_charge
N 	N 	0.68749 0.53921 0.29407 -0.17700
N 	N 	0.71409 0.53955 0.31716 -0.20400
N 	N 	0.66644 0.56652 0.29908 -0.10400
C 	C 	0.67982 0.58513 0.32625 0.02500
C 	C 	0.70990 0.56781 0.33752 0.00000
H 	H 	0.72480 0.57480 0.35630 0.00500
C 	C 	0.67670 0.63350 0.36940 -0.11200
H 	H 	0.69720 0.62450 0.38040 0.06500
C 	C 	0.66322 0.61688 0.33974 0.04900
N 	N 	0.68749 0.03921 0.79407 -0.17800
N 	N 	0.71409 0.03955 0.81716 -0.20600
N 	N 	0.66644 0.06652 0.79908 -0.10400
C 	C 	0.67982 0.08513 0.82625 0.02500
C 	C 	0.70990 0.06781 0.83752 -0.00100
H 	H 	0.72480 0.07480 0.85630 0.00500
C 	C 	0.67670 0.13350 0.86940 -0.11200
H 	H 	0.69720 0.12450 0.88040 0.06600
C 	C 	0.66322 0.11688 0.83974 0.04900
N 	N 	0.18749 0.53921 0.79407 -0.17700
N 	N 	0.21409 0.53955 0.81716 -0.20400
N 	N 	0.16644 0.56652 0.79908 -0.10400
C 	C 	0.17982 0.58513 0.82625 0.02500
C 	C 	0.20990 0.56781 0.83752 0.00000
H 	H 	0.22480 0.57480 0.85630 0.00600
C 	C 	0.17670 0.63350 0.86940 -0.11200
H 	H 	0.19720 0.62450 0.88040 0.06600
C 	C 	0.16322 0.61688 0.83974 0.04900
N 	N 	0.18749 0.03921 0.29407 -0.17900
N 	N 	0.21409 0.03955 0.31716 -0.20600
N 	N 	0.16644 0.06652 0.29908 -0.10500
C 	C 	0.17982 0.08513 0.32625 0.02500
C 	C 	0.20990 0.06781 0.33752 -0.00100
H 	H 	0.22480 0.07480 0.35630 0.00400
C 	C 	0.17670 0.13350 0.36940 -0.11200
H 	H 	0.19720 0.12450 0.38040 0.06500
C 	C 	0.16322 0.11688 0.33974 0.04800
N 	N 	0.31251 0.46079 0.29407 -0.17700
N 	N 	0.28591 0.46045 0.31716 -0.20400
N 	N 	0.33356 0.43348 0.29908 -0.10400
C 	C 	0.32018 0.41487 0.32625 0.02500
C 	C 	0.29010 0.43219 0.33752 0.00000
H 	H 	0.27520 0.42520 0.35630 0.00500
C 	C 	0.32330 0.36650 0.36940 -0.11200
H 	H 	0.30280 0.37550 0.38040 0.06500
C 	C 	0.33678 0.38312 0.33974 0.04900
N 	N 	0.31251 0.96079 0.79407 -0.17100
N 	N 	0.28591 0.96045 0.81716 -0.19900
N 	N 	0.33356 0.93348 0.79908 -0.10200
C 	C 	0.32018 0.91487 0.82625 0.02700
C 	C 	0.29010 0.93219 0.83752 0.00100
H 	H 	0.27520 0.92520 0.85630 0.00700
C 	C 	0.32330 0.86650 0.86940 -0.11200
H 	H 	0.30280 0.87550 0.88040 0.06700
C 	C 	0.33678 0.88312 0.83974 0.05100
N 	N 	0.81251 0.46079 0.79407 -0.17600
N 	N 	0.78591 0.46045 0.81716 -0.20400
N 	N 	0.83356 0.43348 0.79908 -0.10300
C 	C 	0.82018 0.41487 0.82625 0.02600
C 	C 	0.79010 0.43219 0.83752 0.00000
H 	H 	0.77520 0.42520 0.85630 0.00600
C 	C 	0.82330 0.36650 0.86940 -0.11200
H 	H 	0.80280 0.37550 0.88040 0.06700
C 	C 	0.83678 0.38312 0.83974 0.05000
N 	N 	0.81251 0.96079 0.29407 -0.17100
N 	N 	0.78591 0.96045 0.31716 -0.19900
N 	N 	0.83356 0.93348 0.29908 -0.10200
C 	C 	0.82018 0.91487 0.32625 0.02700
C 	C 	0.79010 0.93219 0.33752 0.00100
H 	H 	0.77520 0.92520 0.35630 0.00700
C 	C 	0.82330 0.86650 0.36940 -0.11200
H 	H 	0.80280 0.87550 0.38040 0.06600
C 	C 	0.83678 0.88312 0.33974 0.05100
N 	N 	0.31251 0.53921 0.70593 -0.17600
N 	N 	0.28591 0.53955 0.68284 -0.20300
N 	N 	0.33356 0.56652 0.70092 -0.10300
C 	C 	0.32018 0.58513 0.67375 0.02600
C 	C 	0.29010 0.56781 0.66248 0.00100
H 	H 	0.27520 0.57480 0.64370 0.00600
C 	C 	0.32330 0.63350 0.63060 -0.11100
H 	H 	0.30280 0.62450 0.61960 0.06600
C 	C 	0.33678 0.61688 0.66026 0.05000
N 	N 	0.31251 0.03921 0.20593 -0.17800
N 	N 	0.28591 0.03955 0.18284 -0.20500
N 	N 	0.33356 0.06652 0.20092 -0.10400
C 	C 	0.32018 0.08513 0.17375 0.02600
C 	C 	0.29010 0.06781 0.16248 -0.00000
H 	H 	0.27520 0.07480 0.14370 0.00400
C 	C 	0.32330 0.13350 0.13060 -0.11100
H 	H 	0.30280 0.12450 0.11960 0.06500
C 	C 	0.33678 0.11688 0.16026 0.04900
N 	N 	0.81251 0.53921 0.20593 -0.17600
N 	N 	0.78591 0.53955 0.18284 -0.20300
N 	N 	0.83356 0.56652 0.20092 -0.10200
C 	C 	0.82018 0.58513 0.17375 0.02600
C 	C 	0.79010 0.56781 0.16248 0.00100
H 	H 	0.77520 0.57480 0.14370 0.00500
C 	C 	0.82330 0.63350 0.13060 -0.11200
H 	H 	0.80280 0.62450 0.11960 0.06600
C 	C 	0.83678 0.61688 0.16026 0.05000
N 	N 	0.81251 0.03921 0.70593 -0.17700
N 	N 	0.78591 0.03955 0.68284 -0.20500
N 	N 	0.83356 0.06652 0.70092 -0.10300
C 	C 	0.82018 0.08513 0.67375 0.02600
C 	C 	0.79010 0.06781 0.66248 0.00000
H 	H 	0.77520 0.07480 0.64370 0.00500
C 	C 	0.82330 0.13350 0.63060 -0.11100
H 	H 	0.80280 0.12450 0.61960 0.06600
C 	C 	0.83678 0.11688 0.66026 0.05000
N 	N 	0.68749 0.46079 0.70593 -0.17600
N 	N 	0.71409 0.46045 0.68284 -0.20300
N 	N 	0.66644 0.43348 0.70092 -0.10300
C 	C 	0.67982 0.41487 0.67375 0.02600
C 	C 	0.70990 0.43219 0.66248 0.00100
H 	H 	0.72480 0.42520 0.64370 0.00600
C 	C 	0.67670 0.36650 0.63060 -0.11100
H 	H 	0.69720 0.37550 0.61960 0.06600
C 	C 	0.66322 0.38312 0.66026 0.05000
N 	N 	0.68749 0.96079 0.20593 -0.17100
N 	N 	0.71409 0.96045 0.18284 -0.19800
N 	N 	0.66644 0.93348 0.20092 -0.10100
C 	C 	0.67982 0.91487 0.17375 0.02700
C 	C 	0.70990 0.93219 0.16248 0.00100
H 	H 	0.72480 0.92520 0.14370 0.00700
C 	C 	0.67670 0.86650 0.13060 -0.11100
H 	H 	0.69720 0.87550 0.11960 0.06700
C 	C 	0.66322 0.88312 0.16026 0.05000
N 	N 	0.18749 0.46079 0.20593 -0.17600
N 	N 	0.21409 0.46045 0.18284 -0.20400
N 	N 	0.16644 0.43348 0.20092 -0.10300
C 	C 	0.17982 0.41487 0.17375 0.02600
C 	C 	0.20990 0.43219 0.16248 0.00000
H 	H 	0.22480 0.42520 0.14370 0.00500
C 	C 	0.17670 0.36650 0.13060 -0.11100
H 	H 	0.19720 0.37550 0.11960 0.06600
C 	C 	0.16322 0.38312 0.16026 0.04900
N 	N 	0.18749 0.96079 0.70593 -0.17100
N 	N 	0.21409 0.96045 0.68284 -0.19800
N 	N 	0.16644 0.93348 0.70092 -0.10200
C 	C 	0.17982 0.91487 0.67375 0.02700
C 	C 	0.20990 0.93219 0.66248 0.00100
H 	H 	0.22480 0.92520 0.64370 0.00800
C 	C 	0.17670 0.86650 0.63060 -0.11100
H 	H 	0.19720 0.87550 0.61960 0.06700
C 	C 	0.16322 0.88312 0.66026 0.05000
N 	N 	0.29407 0.68749 0.53921 -0.17600
N 	N 	0.31716 0.71409 0.53955 -0.20300
N 	N 	0.29908 0.66644 0.56652 -0.10300
C 	C 	0.32625 0.67982 0.58513 0.02600
C 	C 	0.33752 0.70990 0.56781 0.00100
H 	H 	0.35630 0.72480 0.57480 0.00600
C 	C 	0.36940 0.67670 0.63350 -0.11100
H 	H 	0.38040 0.69720 0.62450 0.06600
C 	C 	0.33974 0.66322 0.61688 0.05000
N 	N 	0.29407 0.18749 0.03921 -0.17800
N 	N 	0.31716 0.21409 0.03955 -0.20500
N 	N 	0.29908 0.16644 0.06652 -0.10400
C 	C 	0.32625 0.17982 0.08513 0.02600
C 	C 	0.33752 0.20990 0.06781 -0.00000
H 	H 	0.35630 0.22480 0.07480 0.00500
C 	C 	0.36940 0.17670 0.13350 -0.11100
H 	H 	0.38040 0.19720 0.12450 0.06600
C 	C 	0.33974 0.16322 0.11688 0.04900
N 	N 	0.79407 0.68749 0.03921 -0.17700
N 	N 	0.81716 0.71409 0.03955 -0.20500
N 	N 	0.79908 0.66644 0.06652 -0.10300
C 	C 	0.82625 0.67982 0.08513 0.02600
C 	C 	0.83752 0.70990 0.06781 0.00000
H 	H 	0.85630 0.72480 0.07480 0.00600
C 	C 	0.86940 0.67670 0.13350 -0.11100
H 	H 	0.88040 0.69720 0.12450 0.06700
C 	C 	0.83974 0.66322 0.11688 0.05000
N 	N 	0.79407 0.18749 0.53921 -0.17600
N 	N 	0.81716 0.21409 0.53955 -0.20300
N 	N 	0.79908 0.16644 0.56652 -0.10300
C 	C 	0.82625 0.17982 0.58513 0.02600
C 	C 	0.83752 0.20990 0.56781 0.00100
H 	H 	0.85630 0.22480 0.57480 0.00700
C 	C 	0.86940 0.17670 0.63350 -0.11100
H 	H 	0.88040 0.19720 0.62450 0.06700
C 	C 	0.83974 0.16322 0.61688 0.05000
N 	N 	0.29407 0.31251 0.46079 -0.17600
N 	N 	0.31716 0.28591 0.46045 -0.20300
N 	N 	0.29908 0.33356 0.43348 -0.10300
C 	C 	0.32625 0.32018 0.41487 0.02600
C 	C 	0.33752 0.29010 0.43219 0.00100
H 	H 	0.35630 0.27520 0.42520 0.00600
C 	C 	0.36940 0.32330 0.36650 -0.11100
H 	H 	0.38040 0.30280 0.37550 0.06600
C 	C 	0.33974 0.33678 0.38312 0.05000
N 	N 	0.29407 0.81251 0.96079 -0.17000
N 	N 	0.31716 0.78591 0.96045 -0.19800
N 	N 	0.29908 0.83356 0.93348 -0.10100
C 	C 	0.32625 0.82018 0.91487 0.02800
C 	C 	0.33752 0.79010 0.93219 0.00200
H 	H 	0.35630 0.77520 0.92520 0.00800
C 	C 	0.36940 0.82330 0.86650 -0.11100
H 	H 	0.38040 0.80280 0.87550 0.06700
C 	C 	0.33974 0.83678 0.88312 0.05200
N 	N 	0.79407 0.31251 0.96079 -0.17000
N 	N 	0.81716 0.28591 0.96045 -0.19800
N 	N 	0.79908 0.33356 0.93348 -0.10100
C 	C 	0.82625 0.32018 0.91487 0.02800
C 	C 	0.83752 0.29010 0.93219 0.00200
H 	H 	0.85630 0.27520 0.92520 0.00800
C 	C 	0.86940 0.32330 0.86650 -0.11100
H 	H 	0.88040 0.30280 0.87550 0.06800
C 	C 	0.83974 0.33678 0.88312 0.05200
N 	N 	0.79407 0.81251 0.46079 -0.17500
N 	N 	0.81716 0.78591 0.46045 -0.20300
N 	N 	0.79908 0.83356 0.43348 -0.10200
C 	C 	0.82625 0.82018 0.41487 0.02700
C 	C 	0.83752 0.79010 0.43219 0.00100
H 	H 	0.85630 0.77520 0.42520 0.00700
C 	C 	0.86940 0.82330 0.36650 -0.11100
H 	H 	0.88040 0.80280 0.37550 0.06800
C 	C 	0.83974 0.83678 0.38312 0.05100
N 	N 	0.70593 0.31251 0.53921 -0.17600
N 	N 	0.68284 0.28591 0.53955 -0.20300
N 	N 	0.70092 0.33356 0.56652 -0.10300
C 	C 	0.67375 0.32018 0.58513 0.02600
C 	C 	0.66248 0.29010 0.56781 0.00100
H 	H 	0.64370 0.27520 0.57480 0.00600
C 	C 	0.63060 0.32330 0.63350 -0.11100
H 	H 	0.61960 0.30280 0.62450 0.06600
C 	C 	0.66026 0.33678 0.61688 0.05000
N 	N 	0.70593 0.81251 0.03921 -0.17700
N 	N 	0.68284 0.78591 0.03955 -0.20500
N 	N 	0.70092 0.83356 0.06652 -0.10300
C 	C 	0.67375 0.82018 0.08513 0.02600
C 	C 	0.66248 0.79010 0.06781 0.00000
H 	H 	0.64370 0.77520 0.07480 0.00500
C 	C 	0.63060 0.82330 0.13350 -0.11100
H 	H 	0.61960 0.80280 0.12450 0.06600
C 	C 	0.66026 0.83678 0.11688 0.05000
N 	N 	0.20593 0.31251 0.03921 -0.17800
N 	N 	0.18284 0.28591 0.03955 -0.20500
N 	N 	0.20092 0.33356 0.06652 -0.10400
C 	C 	0.17375 0.32018 0.08513 0.02600
C 	C 	0.16248 0.29010 0.06781 -0.00000
H 	H 	0.14370 0.27520 0.07480 0.00400
C 	C 	0.13060 0.32330 0.13350 -0.11100
H 	H 	0.11960 0.30280 0.12450 0.06500
C 	C 	0.16026 0.33678 0.11688 0.04900
N 	N 	0.20593 0.81251 0.53921 -0.17600
N 	N 	0.18284 0.78591 0.53955 -0.20300
N 	N 	0.20092 0.83356 0.56652 -0.10200
C 	C 	0.17375 0.82018 0.58513 0.02600
C 	C 	0.16248 0.79010 0.56781 0.00100
H 	H 	0.14370 0.77520 0.57480 0.00500
C 	C 	0.13060 0.82330 0.63350 -0.11200
H 	H 	0.11960 0.80280 0.62450 0.06600
C 	C 	0.16026 0.83678 0.61688 0.05000
N 	N 	0.70593 0.68749 0.46079 -0.17600
N 	N 	0.68284 0.71409 0.46045 -0.20300
N 	N 	0.70092 0.66644 0.43348 -0.10300
C 	C 	0.67375 0.67982 0.41487 0.02600
C 	C 	0.66248 0.70990 0.43219 0.00100
H 	H 	0.64370 0.72480 0.42520 0.00600
C 	C 	0.63060 0.67670 0.36650 -0.11100
H 	H 	0.61960 0.69720 0.37550 0.06600
C 	C 	0.66026 0.66322 0.38312 0.05000
N 	N 	0.70593 0.18749 0.96079 -0.17100
N 	N 	0.68284 0.21409 0.96045 -0.19800
N 	N 	0.70092 0.16644 0.93348 -0.10200
C 	C 	0.67375 0.17982 0.91487 0.02700
C 	C 	0.66248 0.20990 0.93219 0.00100
H 	H 	0.64370 0.22480 0.92520 0.00800
C 	C 	0.63060 0.17670 0.86650 -0.11100
H 	H 	0.61960 0.19720 0.87550 0.06700
C 	C 	0.66026 0.16322 0.88312 0.05000
N 	N 	0.20593 0.68749 0.96079 -0.17100
N 	N 	0.18284 0.71409 0.96045 -0.19800
N 	N 	0.20092 0.66644 0.93348 -0.10100
C 	C 	0.17375 0.67982 0.91487 0.02700
C 	C 	0.16248 0.70990 0.93219 0.00100
H 	H 	0.14370 0.72480 0.92520 0.00700
C 	C 	0.13060 0.67670 0.86650 -0.11100
H 	H 	0.11960 0.69720 0.87550 0.06700
C 	C 	0.16026 0.66322 0.88312 0.05000
N 	N 	0.20593 0.18749 0.46079 -0.17600
N 	N 	0.18284 0.21409 0.46045 -0.20400
N 	N 	0.20092 0.16644 0.43348 -0.10300
C 	C 	0.17375 0.17982 0.41487 0.02600
C 	C 	0.16248 0.20990 0.43219 0.00000
H 	H 	0.14370 0.22480 0.42520 0.00500
C 	C 	0.13060 0.17670 0.36650 -0.11100
H 	H 	0.11960 0.19720 0.37550 0.06600
C 	C 	0.16026 0.16322 0.38312 0.04900
N 	N 	0.53921 0.29407 0.68749 -0.17600
N 	N 	0.53955 0.31716 0.71409 -0.20300
N 	N 	0.56652 0.29908 0.66644 -0.10300
C 	C 	0.58513 0.32625 0.67982 0.02600
C 	C 	0.56781 0.33752 0.70990 0.00100
H 	H 	0.57480 0.35630 0.72480 0.00600
C 	C 	0.63350 0.36940 0.67670 -0.11100
H 	H 	0.62450 0.38040 0.69720 0.06600
C 	C 	0.61688 0.33974 0.66322 0.05000
N 	N 	0.53921 0.79407 0.18749 -0.17600
N 	N 	0.53955 0.81716 0.21409 -0.20300
N 	N 	0.56652 0.79908 0.16644 -0.10300
C 	C 	0.58513 0.82625 0.17982 0.02600
C 	C 	0.56781 0.83752 0.20990 0.00100
H 	H 	0.57480 0.85630 0.22480 0.00700
C 	C 	0.63350 0.86940 0.17670 -0.11100
H 	H 	0.62450 0.88040 0.19720 0.06700
C 	C 	0.61688 0.83974 0.16322 0.05000
N 	N 	0.03921 0.29407 0.18749 -0.17800
N 	N 	0.03955 0.31716 0.21409 -0.20500
N 	N 	0.06652 0.29908 0.16644 -0.10400
C 	C 	0.08513 0.32625 0.17982 0.02600
C 	C 	0.06781 0.33752 0.20990 -0.00000
H 	H 	0.07480 0.35630 0.22480 0.00500
C 	C 	0.13350 0.36940 0.17670 -0.11100
H 	H 	0.12450 0.38040 0.19720 0.06600
C 	C 	0.11688 0.33974 0.16322 0.04900
N 	N 	0.03921 0.79407 0.68749 -0.17700
N 	N 	0.03955 0.81716 0.71409 -0.20500
N 	N 	0.06652 0.79908 0.66644 -0.10300
C 	C 	0.08513 0.82625 0.67982 0.02600
C 	C 	0.06781 0.83752 0.70990 0.00000
H 	H 	0.07480 0.85630 0.72480 0.00600
C 	C 	0.13350 0.86940 0.67670 -0.11100
H 	H 	0.12450 0.88040 0.69720 0.06700
C 	C 	0.11688 0.83974 0.66322 0.05000
N 	N 	0.46079 0.29407 0.31251 -0.17600
N 	N 	0.46045 0.31716 0.28591 -0.20300
N 	N 	0.43348 0.29908 0.33356 -0.10300
C 	C 	0.41487 0.32625 0.32018 0.02600
C 	C 	0.43219 0.33752 0.29010 0.00100
H 	H 	0.42520 0.35630 0.27520 0.00600
C 	C 	0.36650 0.36940 0.32330 -0.11100
H 	H 	0.37550 0.38040 0.30280 0.06600
C 	C 	0.38312 0.33974 0.33678 0.05000
N 	N 	0.46079 0.79407 0.81251 -0.17500
N 	N 	0.46045 0.81716 0.78591 -0.20300
N 	N 	0.43348 0.79908 0.83356 -0.10200
C 	C 	0.41487 0.82625 0.82018 0.02700
C 	C 	0.43219 0.83752 0.79010 0.00100
H 	H 	0.42520 0.85630 0.77520 0.00700
C 	C 	0.36650 0.86940 0.82330 -0.11100
H 	H 	0.37550 0.88040 0.80280 0.06800
C 	C 	0.38312 0.83974 0.83678 0.05100
N 	N 	0.96079 0.29407 0.81251 -0.17000
N 	N 	0.96045 0.31716 0.78591 -0.19800
N 	N 	0.93348 0.29908 0.83356 -0.10100
C 	C 	0.91487 0.32625 0.82018 0.02800
C 	C 	0.93219 0.33752 0.79010 0.00200
H 	H 	0.92520 0.35630 0.77520 0.00800
C 	C 	0.86650 0.36940 0.82330 -0.11100
H 	H 	0.87550 0.38040 0.80280 0.06700
C 	C 	0.88312 0.33974 0.83678 0.05200
N 	N 	0.96079 0.79407 0.31251 -0.17000
N 	N 	0.96045 0.81716 0.28591 -0.19800
N 	N 	0.93348 0.79908 0.33356 -0.10100
C 	C 	0.91487 0.82625 0.32018 0.02800
C 	C 	0.93219 0.83752 0.29010 0.00200
H 	H 	0.92520 0.85630 0.27520 0.00800
C 	C 	0.86650 0.86940 0.32330 -0.11100
H 	H 	0.87550 0.88040 0.30280 0.06800
C 	C 	0.88312 0.83974 0.33678 0.05200
N 	N 	0.53921 0.70593 0.31251 -0.17600
N 	N 	0.53955 0.68284 0.28591 -0.20300
N 	N 	0.56652 0.70092 0.33356 -0.10300
C 	C 	0.58513 0.67375 0.32018 0.02600
C 	C 	0.56781 0.66248 0.29010 0.00100
H 	H 	0.57480 0.64370 0.27520 0.00600
C 	C 	0.63350 0.63060 0.32330 -0.11100
H 	H 	0.62450 0.61960 0.30280 0.06600
C 	C 	0.61688 0.66026 0.33678 0.05000
N 	N 	0.53921 0.20593 0.81251 -0.17600
N 	N 	0.53955 0.18284 0.78591 -0.20300
N 	N 	0.56652 0.20092 0.83356 -0.10200
C 	C 	0.58513 0.17375 0.82018 0.02600
C 	C 	0.56781 0.16248 0.79010 0.00100
H 	H 	0.57480 0.14370 0.77520 0.00500
C 	C 	0.63350 0.13060 0.82330 -0.11200
H 	H 	0.62450 0.11960 0.80280 0.06600
C 	C 	0.61688 0.16026 0.83678 0.05000
N 	N 	0.03921 0.70593 0.81251 -0.17700
N 	N 	0.03955 0.68284 0.78591 -0.20500
N 	N 	0.06652 0.70092 0.83356 -0.10300
C 	C 	0.08513 0.67375 0.82018 0.02600
C 	C 	0.06781 0.66248 0.79010 0.00000
H 	H 	0.07480 0.64370 0.77520 0.00500
C 	C 	0.13350 0.63060 0.82330 -0.11100
H 	H 	0.12450 0.61960 0.80280 0.06600
C 	C 	0.11688 0.66026 0.83678 0.05000
N 	N 	0.03921 0.20593 0.31251 -0.17800
N 	N 	0.03955 0.18284 0.28591 -0.20500
N 	N 	0.06652 0.20092 0.33356 -0.10400
C 	C 	0.08513 0.17375 0.32018 0.02600
C 	C 	0.06781 0.16248 0.29010 -0.00000
H 	H 	0.07480 0.14370 0.27520 0.00400
C 	C 	0.13350 0.13060 0.32330 -0.11100
H 	H 	0.12450 0.11960 0.30280 0.06500
C 	C 	0.11688 0.16026 0.33678 0.04900
N 	N 	0.46079 0.70593 0.68749 -0.17600
N 	N 	0.46045 0.68284 0.71409 -0.20300
N 	N 	0.43348 0.70092 0.66644 -0.10300
C 	C 	0.41487 0.67375 0.67982 0.02600
C 	C 	0.43219 0.66248 0.70990 0.00100
H 	H 	0.42520 0.64370 0.72480 0.00600
C 	C 	0.36650 0.63060 0.67670 -0.11100
H 	H 	0.37550 0.61960 0.69720 0.06600
C 	C 	0.38312 0.66026 0.66322 0.05000
N 	N 	0.46079 0.20593 0.18749 -0.17600
N 	N 	0.46045 0.18284 0.21409 -0.20400
N 	N 	0.43348 0.20092 0.16644 -0.10300
C 	C 	0.41487 0.17375 0.17982 0.02600
C 	C 	0.43219 0.16248 0.20990 0.00000
H 	H 	0.42520 0.14370 0.22480 0.00500
C 	C 	0.36650 0.13060 0.17670 -0.11100
H 	H 	0.37550 0.11960 0.19720 0.06600
C 	C 	0.38312 0.16026 0.16322 0.04900
N 	N 	0.96079 0.70593 0.18749 -0.17100
N 	N 	0.96045 0.68284 0.21409 -0.19800
N 	N 	0.93348 0.70092 0.16644 -0.10200
C 	C 	0.91487 0.67375 0.17982 0.02700
C 	C 	0.93219 0.66248 0.20990 0.00100
H 	H 	0.92520 0.64370 0.22480 0.00800
C 	C 	0.86650 0.63060 0.17670 -0.11100
H 	H 	0.87550 0.61960 0.19720 0.06700
C 	C 	0.88312 0.66026 0.16322 0.05000
N 	N 	0.96079 0.20593 0.68749 -0.17100
N 	N 	0.96045 0.18284 0.71409 -0.19800
N 	N 	0.93348 0.20092 0.66644 -0.10100
C 	C 	0.91487 0.17375 0.67982 0.02700
C 	C 	0.93219 0.16248 0.70990 0.00100
H 	H 	0.92520 0.14370 0.72480 0.00700
C 	C 	0.86650 0.13060 0.67670 -0.11100
H 	H 	0.87550 0.11960 0.69720 0.06700
C 	C 	0.88312 0.16026 0.66322 0.05000
N 	N 	0.03921 0.18749 0.20593 -0.17800
N 	N 	0.03955 0.21409 0.18284 -0.20500
N 	N 	0.06652 0.16644 0.20092 -0.10400
C 	C 	0.08513 0.17982 0.17375 0.02500
C 	C 	0.06781 0.20990 0.16248 -0.00100
H 	H 	0.07480 0.22480 0.14370 0.00400
C 	C 	0.13350 0.17670 0.13060 -0.11200
H 	H 	0.12450 0.19720 0.11960 0.06500
C 	C 	0.11688 0.16322 0.16026 0.04800
N 	N 	0.03921 0.68749 0.70593 -0.17700
N 	N 	0.03955 0.71409 0.68284 -0.20500
N 	N 	0.06652 0.66644 0.70092 -0.10400
C 	C 	0.08513 0.67982 0.67375 0.02600
C 	C 	0.06781 0.70990 0.66248 -0.00000
H 	H 	0.07480 0.72480 0.64370 0.00500
C 	C 	0.13350 0.67670 0.63060 -0.11200
H 	H 	0.12450 0.69720 0.61960 0.06600
C 	C 	0.11688 0.66322 0.66026 0.04900
N 	N 	0.53921 0.18749 0.70593 -0.17600
N 	N 	0.53955 0.21409 0.68284 -0.20300
N 	N 	0.56652 0.16644 0.70092 -0.10300
C 	C 	0.58513 0.17982 0.67375 0.02600
C 	C 	0.56781 0.20990 0.66248 0.00000
H 	H 	0.57480 0.22480 0.64370 0.00600
C 	C 	0.63350 0.17670 0.63060 -0.11200
H 	H 	0.62450 0.19720 0.61960 0.06600
C 	C 	0.61688 0.16322 0.66026 0.05000
N 	N 	0.53921 0.68749 0.20593 -0.17600
N 	N 	0.53955 0.71409 0.18284 -0.20400
N 	N 	0.56652 0.66644 0.20092 -0.10300
C 	C 	0.58513 0.67982 0.17375 0.02600
C 	C 	0.56781 0.70990 0.16248 0.00000
H 	H 	0.57480 0.72480 0.14370 0.00500
C 	C 	0.63350 0.67670 0.13060 -0.11200
H 	H 	0.62450 0.69720 0.11960 0.06600
C 	C 	0.61688 0.66322 0.16026 0.05000
N 	N 	0.96079 0.81251 0.20593 -0.17000
N 	N 	0.96045 0.78591 0.18284 -0.19800
N 	N 	0.93348 0.83356 0.20092 -0.10100
C 	C 	0.91487 0.82018 0.17375 0.02700
C 	C 	0.93219 0.79010 0.16248 0.00200
H 	H 	0.92520 0.77520 0.14370 0.00700
C 	C 	0.86650 0.82330 0.13060 -0.11100
H 	H 	0.87550 0.80280 0.11960 0.06700
C 	C 	0.88312 0.83678 0.16026 0.05100
N 	N 	0.96079 0.31251 0.70593 -0.17100
N 	N 	0.96045 0.28591 0.68284 -0.19800
N 	N 	0.93348 0.33356 0.70092 -0.10100
C 	C 	0.91487 0.32018 0.67375 0.02700
C 	C 	0.93219 0.29010 0.66248 0.00200
H 	H 	0.92520 0.27520 0.64370 0.00800
C 	C 	0.86650 0.32330 0.63060 -0.11100
H 	H 	0.87550 0.30280 0.61960 0.06700
C 	C 	0.88312 0.33678 0.66026 0.05100
N 	N 	0.46079 0.81251 0.70593 -0.17500
N 	N 	0.46045 0.78591 0.68284 -0.20300
N 	N 	0.43348 0.83356 0.70092 -0.10200
C 	C 	0.41487 0.82018 0.67375 0.02700
C 	C 	0.43219 0.79010 0.66248 0.00100
H 	H 	0.42520 0.77520 0.64370 0.00600
C 	C 	0.36650 0.82330 0.63060 -0.11100
H 	H 	0.37550 0.80280 0.61960 0.06700
C 	C 	0.38312 0.83678 0.66026 0.05100
N 	N 	0.46079 0.31251 0.20593 -0.17600
N 	N 	0.46045 0.28591 0.18284 -0.20400
N 	N 	0.43348 0.33356 0.20092 -0.10300
C 	C 	0.41487 0.32018 0.17375 0.02600
C 	C 	0.43219 0.29010 0.16248 0.00000
H 	H 	0.42520 0.27520 0.14370 0.00500
C 	C 	0.36650 0.32330 0.13060 -0.11100
H 	H 	0.37550 0.30280 0.11960 0.06600
C 	C 	0.38312 0.33678 0.16026 0.05000
N 	N 	0.03921 0.81251 0.79407 -0.17700
N 	N 	0.03955 0.78591 0.81716 -0.20500
N 	N 	0.06652 0.83356 0.79908 -0.10300
C 	C 	0.08513 0.82018 0.82625 0.02600
C 	C 	0.06781 0.79010 0.83752 0.00000
H 	H 	0.07480 0.77520 0.85630 0.00600
C 	C 	0.13350 0.82330 0.86940 -0.11100
H 	H 	0.12450 0.80280 0.88040 0.06700
C 	C 	0.11688 0.83678 0.83974 0.05000
N 	N 	0.03921 0.31251 0.29407 -0.17700
N 	N 	0.03955 0.28591 0.31716 -0.20500
N 	N 	0.06652 0.33356 0.29908 -0.10400
C 	C 	0.08513 0.32018 0.32625 0.02600
C 	C 	0.06781 0.29010 0.33752 -0.00000
H 	H 	0.07480 0.27520 0.35630 0.00500
C 	C 	0.13350 0.32330 0.36940 -0.11100
H 	H 	0.12450 0.30280 0.38040 0.06600
C 	C 	0.11688 0.33678 0.33974 0.04900
N 	N 	0.53921 0.81251 0.29407 -0.17500
N 	N 	0.53955 0.78591 0.31716 -0.20300
N 	N 	0.56652 0.83356 0.29908 -0.10200
C 	C 	0.58513 0.82018 0.32625 0.02700
C 	C 	0.56781 0.79010 0.33752 0.00100
H 	H 	0.57480 0.77520 0.35630 0.00600
C 	C 	0.63350 0.82330 0.36940 -0.11100
H 	H 	0.62450 0.80280 0.38040 0.06700
C 	C 	0.61688 0.83678 0.33974 0.05100
N 	N 	0.53921 0.31251 0.79407 -0.17600
N 	N 	0.53955 0.28591 0.81716 -0.20300
N 	N 	0.56652 0.33356 0.79908 -0.10200
C 	C 	0.58513 0.32018 0.82625 0.02700
C 	C 	0.56781 0.29010 0.83752 0.00100
H 	H 	0.57480 0.27520 0.85630 0.00700
C 	C 	0.63350 0.32330 0.86940 -0.11100
H 	H 	0.62450 0.30280 0.88040 0.06700
C 	C 	0.61688 0.33678 0.83974 0.05100
N 	N 	0.96079 0.18749 0.79407 -0.17100
N 	N 	0.96045 0.21409 0.81716 -0.19800
N 	N 	0.93348 0.16644 0.79908 -0.10100
C 	C 	0.91487 0.17982 0.82625 0.02700
C 	C 	0.93219 0.20990 0.83752 0.00200
H 	H 	0.92520 0.22480 0.85630 0.00800
C 	C 	0.86650 0.17670 0.86940 -0.11100
H 	H 	0.87550 0.19720 0.88040 0.06800
C 	C 	0.88312 0.16322 0.83974 0.05100
N 	N 	0.96079 0.68749 0.29407 -0.17100
N 	N 	0.96045 0.71409 0.31716 -0.19800
N 	N 	0.93348 0.66644 0.29908 -0.10100
C 	C 	0.91487 0.67982 0.32625 0.02700
C 	C 	0.93219 0.70990 0.33752 0.00200
H 	H 	0.92520 0.72480 0.35630 0.00800
C 	C 	0.86650 0.67670 0.36940 -0.11100
H 	H 	0.87550 0.69720 0.38040 0.06700
C 	C 	0.88312 0.66322 0.33974 0.05100
N 	N 	0.46079 0.18749 0.29407 -0.17600
N 	N 	0.46045 0.21409 0.31716 -0.20300
N 	N 	0.43348 0.16644 0.29908 -0.10300
C 	C 	0.41487 0.17982 0.32625 0.02600
C 	C 	0.43219 0.20990 0.33752 0.00100
H 	H 	0.42520 0.22480 0.35630 0.00600
C 	C 	0.36650 0.17670 0.36940 -0.11100
H 	H 	0.37550 0.19720 0.38040 0.06600
C 	C 	0.38312 0.16322 0.33974 0.05000
N 	N 	0.46079 0.68749 0.79407 -0.17600
N 	N 	0.46045 0.71409 0.81716 -0.20300
N 	N 	0.43348 0.66644 0.79908 -0.10200
C 	C 	0.41487 0.67982 0.82625 0.02700
C 	C 	0.43219 0.70990 0.83752 0.00100
H 	H 	0.42520 0.72480 0.85630 0.00700
C 	C 	0.36650 0.67670 0.86940 -0.11100
H 	H 	0.37550 0.69720 0.88040 0.06700
C 	C 	0.38312 0.66322 0.83974 0.05100
N 	N 	0.18749 0.79407 0.96079 -0.17100
N 	N 	0.21409 0.81716 0.96045 -0.19800
N 	N 	0.16644 0.79908 0.93348 -0.10100
C 	C 	0.17982 0.82625 0.91487 0.02700
C 	C 	0.20990 0.83752 0.93219 0.00200
H 	H 	0.22480 0.85630 0.92520 0.00800
C 	C 	0.17670 0.86940 0.86650 -0.11100
H 	H 	0.19720 0.88040 0.87550 0.06800
C 	C 	0.16322 0.83974 0.88312 0.05100
N 	N 	0.18749 0.29407 0.46079 -0.17600
N 	N 	0.21409 0.31716 0.46045 -0.20300
N 	N 	0.16644 0.29908 0.43348 -0.10300
C 	C 	0.17982 0.32625 0.41487 0.02600
C 	C 	0.20990 0.33752 0.43219 0.00100
H 	H 	0.22480 0.35630 0.42520 0.00600
C 	C 	0.17670 0.36940 0.36650 -0.11100
H 	H 	0.19720 0.38040 0.37550 0.06600
C 	C 	0.16322 0.33974 0.38312 0.05000
N 	N 	0.68749 0.79407 0.46079 -0.17600
N 	N 	0.71409 0.81716 0.46045 -0.20300
N 	N 	0.66644 0.79908 0.43348 -0.10200
C 	C 	0.67982 0.82625 0.41487 0.02700
C 	C 	0.70990 0.83752 0.43219 0.00100
H 	H 	0.72480 0.85630 0.42520 0.00700
C 	C 	0.67670 0.86940 0.36650 -0.11100
H 	H 	0.69720 0.88040 0.37550 0.06700
C 	C 	0.66322 0.83974 0.38312 0.05100
N 	N 	0.68749 0.29407 0.96079 -0.17100
N 	N 	0.71409 0.31716 0.96045 -0.19800
N 	N 	0.66644 0.29908 0.93348 -0.10100
C 	C 	0.67982 0.32625 0.91487 0.02700
C 	C 	0.70990 0.33752 0.93219 0.00200
H 	H 	0.72480 0.35630 0.92520 0.00800
C 	C 	0.67670 0.36940 0.86650 -0.11100
H 	H 	0.69720 0.38040 0.87550 0.06700
C 	C 	0.66322 0.33974 0.88312 0.05100
N 	N 	0.81251 0.79407 0.03921 -0.17700
N 	N 	0.78591 0.81716 0.03955 -0.20500
N 	N 	0.83356 0.79908 0.06652 -0.10300
C 	C 	0.82018 0.82625 0.08513 0.02600
C 	C 	0.79010 0.83752 0.06781 0.00000
H 	H 	0.77520 0.85630 0.07480 0.00600
C 	C 	0.82330 0.86940 0.13350 -0.11100
H 	H 	0.80280 0.88040 0.12450 0.06700
C 	C 	0.83678 0.83974 0.11688 0.05000
N 	N 	0.81251 0.29407 0.53921 -0.17500
N 	N 	0.78591 0.31716 0.53955 -0.20300
N 	N 	0.83356 0.29908 0.56652 -0.10200
C 	C 	0.82018 0.32625 0.58513 0.02700
C 	C 	0.79010 0.33752 0.56781 0.00100
H 	H 	0.77520 0.35630 0.57480 0.00600
C 	C 	0.82330 0.36940 0.63350 -0.11100
H 	H 	0.80280 0.38040 0.62450 0.06700
C 	C 	0.83678 0.33974 0.61688 0.05100
N 	N 	0.31251 0.79407 0.53921 -0.17600
N 	N 	0.28591 0.81716 0.53955 -0.20300
N 	N 	0.33356 0.79908 0.56652 -0.10200
C 	C 	0.32018 0.82625 0.58513 0.02700
C 	C 	0.29010 0.83752 0.56781 0.00100
H 	H 	0.27520 0.85630 0.57480 0.00700
C 	C 	0.32330 0.86940 0.63350 -0.11100
H 	H 	0.30280 0.88040 0.62450 0.06700
C 	C 	0.33678 0.83974 0.61688 0.05100
N 	N 	0.31251 0.29407 0.03921 -0.17700
N 	N 	0.28591 0.31716 0.03955 -0.20500
N 	N 	0.33356 0.29908 0.06652 -0.10400
C 	C 	0.32018 0.32625 0.08513 0.02600
C 	C 	0.29010 0.33752 0.06781 -0.00000
H 	H 	0.27520 0.35630 0.07480 0.00500
C 	C 	0.32330 0.36940 0.13350 -0.11100
H 	H 	0.30280 0.38040 0.12450 0.06600
C 	C 	0.33678 0.33974 0.11688 0.04900
N 	N 	0.81251 0.20593 0.96079 -0.17000
N 	N 	0.78591 0.18284 0.96045 -0.19800
N 	N 	0.83356 0.20092 0.93348 -0.10100
C 	C 	0.82018 0.17375 0.91487 0.02700
C 	C 	0.79010 0.16248 0.93219 0.00200
H 	H 	0.77520 0.14370 0.92520 0.00700
C 	C 	0.82330 0.13060 0.86650 -0.11100
H 	H 	0.80280 0.11960 0.87550 0.06700
C 	C 	0.83678 0.16026 0.88312 0.05100
N 	N 	0.81251 0.70593 0.46079 -0.17500
N 	N 	0.78591 0.68284 0.46045 -0.20300
N 	N 	0.83356 0.70092 0.43348 -0.10200
C 	C 	0.82018 0.67375 0.41487 0.02700
C 	C 	0.79010 0.66248 0.43219 0.00100
H 	H 	0.77520 0.64370 0.42520 0.00600
C 	C 	0.82330 0.63060 0.36650 -0.11100
H 	H 	0.80280 0.61960 0.37550 0.06700
C 	C 	0.83678 0.66026 0.38312 0.05100
N 	N 	0.31251 0.20593 0.46079 -0.17600
N 	N 	0.28591 0.18284 0.46045 -0.20400
N 	N 	0.33356 0.20092 0.43348 -0.10300
C 	C 	0.32018 0.17375 0.41487 0.02600
C 	C 	0.29010 0.16248 0.43219 0.00000
H 	H 	0.27520 0.14370 0.42520 0.00500
C 	C 	0.32330 0.13060 0.36650 -0.11100
H 	H 	0.30280 0.11960 0.37550 0.06600
C 	C 	0.33678 0.16026 0.38312 0.05000
N 	N 	0.31251 0.70593 0.96079 -0.17100
N 	N 	0.28591 0.68284 0.96045 -0.19800
N 	N 	0.33356 0.70092 0.93348 -0.10100
C 	C 	0.32018 0.67375 0.91487 0.02700
C 	C 	0.29010 0.66248 0.93219 0.00200
H 	H 	0.27520 0.64370 0.92520 0.00800
C 	C 	0.32330 0.63060 0.86650 -0.11100
H 	H 	0.30280 0.61960 0.87550 0.06700
C 	C 	0.33678 0.66026 0.88312 0.05100
N 	N 	0.18749 0.20593 0.03921 -0.17800
N 	N 	0.21409 0.18284 0.03955 -0.20500
N 	N 	0.16644 0.20092 0.06652 -0.10400
C 	C 	0.17982 0.17375 0.08513 0.02500
C 	C 	0.20990 0.16248 0.06781 -0.00100
H 	H 	0.22480 0.14370 0.07480 0.00400
C 	C 	0.17670 0.13060 0.13350 -0.11200
H 	H 	0.19720 0.11960 0.12450 0.06500
C 	C 	0.16322 0.16026 0.11688 0.04800
N 	N 	0.18749 0.70593 0.53921 -0.17600
N 	N 	0.21409 0.68284 0.53955 -0.20300
N 	N 	0.16644 0.70092 0.56652 -0.10300
C 	C 	0.17982 0.67375 0.58513 0.02600
C 	C 	0.20990 0.66248 0.56781 0.00000
H 	H 	0.22480 0.64370 0.57480 0.00600
C 	C 	0.17670 0.63060 0.63350 -0.11200
H 	H 	0.19720 0.61960 0.62450 0.06600
C 	C 	0.16322 0.66026 0.61688 0.05000
N 	N 	0.68749 0.20593 0.53921 -0.17600
N 	N 	0.71409 0.18284 0.53955 -0.20400
N 	N 	0.66644 0.20092 0.56652 -0.10300
C 	C 	0.67982 0.17375 0.58513 0.02600
C 	C 	0.70990 0.16248 0.56781 0.00000
H 	H 	0.72480 0.14370 0.57480 0.00500
C 	C 	0.67670 0.13060 0.63350 -0.11200
H 	H 	0.69720 0.11960 0.62450 0.06600
C 	C 	0.66322 0.16026 0.61688 0.05000
N 	N 	0.68749 0.70593 0.03921 -0.17700
N 	N 	0.71409 0.68284 0.03955 -0.20500
N 	N 	0.66644 0.70092 0.06652 -0.10400
C 	C 	0.67982 0.67375 0.08513 0.02600
C 	C 	0.70990 0.66248 0.06781 -0.00000
H 	H 	0.72480 0.64370 0.07480 0.00500
C 	C 	0.67670 0.63060 0.13350 -0.11200
H 	H 	0.69720 0.61960 0.12450 0.06600
C 	C 	0.66322 0.66026 0.11688 0.04900
N 	N 	0.79407 0.03921 0.81251 -0.17700
N 	N 	0.81716 0.03955 0.78591 -0.20500
N 	N 	0.79908 0.06652 0.83356 -0.10300
C 	C 	0.82625 0.08513 0.82018 0.02600
C 	C 	0.83752 0.06781 0.79010 0.00000
H 	H 	0.85630 0.07480 0.77520 0.00600
C 	C 	0.86940 0.13350 0.82330 -0.11100
H 	H 	0.88040 0.12450 0.80280 0.06700
C 	C 	0.83974 0.11688 0.83678 0.05000
N 	N 	0.79407 0.53921 0.31251 -0.17600
N 	N 	0.81716 0.53955 0.28591 -0.20300
N 	N 	0.79908 0.56652 0.33356 -0.10200
C 	C 	0.82625 0.58513 0.32018 0.02700
C 	C 	0.83752 0.56781 0.29010 0.00100
H 	H 	0.85630 0.57480 0.27520 0.00700
C 	C 	0.86940 0.63350 0.32330 -0.11100
H 	H 	0.88040 0.62450 0.30280 0.06700
C 	C 	0.83974 0.61688 0.33678 0.05100
N 	N 	0.29407 0.03921 0.31251 -0.17700
N 	N 	0.31716 0.03955 0.28591 -0.20500
N 	N 	0.29908 0.06652 0.33356 -0.10400
C 	C 	0.32625 0.08513 0.32018 0.02600
C 	C 	0.33752 0.06781 0.29010 -0.00000
H 	H 	0.35630 0.07480 0.27520 0.00500
C 	C 	0.36940 0.13350 0.32330 -0.11100
H 	H 	0.38040 0.12450 0.30280 0.06600
C 	C 	0.33974 0.11688 0.33678 0.04900
N 	N 	0.29407 0.53921 0.81251 -0.17500
N 	N 	0.31716 0.53955 0.78591 -0.20300
N 	N 	0.29908 0.56652 0.83356 -0.10200
C 	C 	0.32625 0.58513 0.82018 0.02700
C 	C 	0.33752 0.56781 0.79010 0.00100
H 	H 	0.35630 0.57480 0.77520 0.00600
C 	C 	0.36940 0.63350 0.82330 -0.11100
H 	H 	0.38040 0.62450 0.80280 0.06700
C 	C 	0.33974 0.61688 0.83678 0.05100
N 	N 	0.79407 0.96079 0.18749 -0.17100
N 	N 	0.81716 0.96045 0.21409 -0.19800
N 	N 	0.79908 0.93348 0.16644 -0.10100
C 	C 	0.82625 0.91487 0.17982 0.02700
C 	C 	0.83752 0.93219 0.20990 0.00200
H 	H 	0.85630 0.92520 0.22480 0.00800
C 	C 	0.86940 0.86650 0.17670 -0.11100
H 	H 	0.88040 0.87550 0.19720 0.06800
C 	C 	0.83974 0.88312 0.16322 0.05100
N 	N 	0.79407 0.46079 0.68749 -0.17600
N 	N 	0.81716 0.46045 0.71409 -0.20300
N 	N 	0.79908 0.43348 0.66644 -0.10200
C 	C 	0.82625 0.41487 0.67982 0.02700
C 	C 	0.83752 0.43219 0.70990 0.00100
H 	H 	0.85630 0.42520 0.72480 0.00700
C 	C 	0.86940 0.36650 0.67670 -0.11100
H 	H 	0.88040 0.37550 0.69720 0.06700
C 	C 	0.83974 0.38312 0.66322 0.05100
N 	N 	0.29407 0.96079 0.68749 -0.17100
N 	N 	0.31716 0.96045 0.71409 -0.19800
N 	N 	0.29908 0.93348 0.66644 -0.10100
C 	C 	0.32625 0.91487 0.67982 0.02700
C 	C 	0.33752 0.93219 0.70990 0.00200
H 	H 	0.35630 0.92520 0.72480 0.00800
C 	C 	0.36940 0.86650 0.67670 -0.11100
H 	H 	0.38040 0.87550 0.69720 0.06700
C 	C 	0.33974 0.88312 0.66322 0.05100
N 	N 	0.29407 0.46079 0.18749 -0.17600
N 	N 	0.31716 0.46045 0.21409 -0.20300
N 	N 	0.29908 0.43348 0.16644 -0.10300
C 	C 	0.32625 0.41487 0.17982 0.02600
C 	C 	0.33752 0.43219 0.20990 0.00100
H 	H 	0.35630 0.42520 0.22480 0.00600
C 	C 	0.36940 0.36650 0.17670 -0.11100
H 	H 	0.38040 0.37550 0.19720 0.06600
C 	C 	0.33974 0.38312 0.16322 0.05000
N 	N 	0.20593 0.03921 0.18749 -0.17800
N 	N 	0.18284 0.03955 0.21409 -0.20500
N 	N 	0.20092 0.06652 0.16644 -0.10400
C 	C 	0.17375 0.08513 0.17982 0.02500
C 	C 	0.16248 0.06781 0.20990 -0.00100
H 	H 	0.14370 0.07480 0.22480 0.00400
C 	C 	0.13060 0.13350 0.17670 -0.11200
H 	H 	0.11960 0.12450 0.19720 0.06500
C 	C 	0.16026 0.11688 0.16322 0.04800
N 	N 	0.20593 0.53921 0.68749 -0.17600
N 	N 	0.18284 0.53955 0.71409 -0.20400
N 	N 	0.20092 0.56652 0.66644 -0.10300
C 	C 	0.17375 0.58513 0.67982 0.02600
C 	C 	0.16248 0.56781 0.70990 0.00000
H 	H 	0.14370 0.57480 0.72480 0.00500
C 	C 	0.13060 0.63350 0.67670 -0.11200
H 	H 	0.11960 0.62450 0.69720 0.06600
C 	C 	0.16026 0.61688 0.66322 0.05000
N 	N 	0.70593 0.03921 0.68749 -0.17700
N 	N 	0.68284 0.03955 0.71409 -0.20500
N 	N 	0.70092 0.06652 0.66644 -0.10400
C 	C 	0.67375 0.08513 0.67982 0.02600
C 	C 	0.66248 0.06781 0.70990 -0.00000
H 	H 	0.64370 0.07480 0.72480 0.00500
C 	C 	0.63060 0.13350 0.67670 -0.11200
H 	H 	0.61960 0.12450 0.69720 0.06600
C 	C 	0.66026 0.11688 0.66322 0.04900
N 	N 	0.70593 0.53921 0.18749 -0.17600
N 	N 	0.68284 0.53955 0.21409 -0.20300
N 	N 	0.70092 0.56652 0.16644 -0.10300
C 	C 	0.67375 0.58513 0.17982 0.02600
C 	C 	0.66248 0.56781 0.20990 0.00000
H 	H 	0.64370 0.57480 0.22480 0.00600
C 	C 	0.63060 0.63350 0.17670 -0.11200
H 	H 	0.61960 0.62450 0.19720 0.06600
C 	C 	0.66026 0.61688 0.16322 0.05000
N 	N 	0.20593 0.96079 0.81251 -0.17000
N 	N 	0.18284 0.96045 0.78591 -0.19800
N 	N 	0.20092 0.93348 0.83356 -0.10100
C 	C 	0.17375 0.91487 0.82018 0.02700
C 	C 	0.16248 0.93219 0.79010 0.00200
H 	H 	0.14370 0.92520 0.77520 0.00700
C 	C 	0.13060 0.86650 0.82330 -0.11100
H 	H 	0.11960 0.87550 0.80280 0.06700
C 	C 	0.16026 0.88312 0.83678 0.05100
N 	N 	0.20593 0.46079 0.31251 -0.17600
N 	N 	0.18284 0.46045 0.28591 -0.20400
N 	N 	0.20092 0.43348 0.33356 -0.10300
C 	C 	0.17375 0.41487 0.32018 0.02600
C 	C 	0.16248 0.43219 0.29010 0.00000
H 	H 	0.14370 0.42520 0.27520 0.00500
C 	C 	0.13060 0.36650 0.32330 -0.11100
H 	H 	0.11960 0.37550 0.30280 0.06600
C 	C 	0.16026 0.38312 0.33678 0.05000
N 	N 	0.70593 0.96079 0.31251 -0.17100
N 	N 	0.68284 0.96045 0.28591 -0.19800
N 	N 	0.70092 0.93348 0.33356 -0.10100
C 	C 	0.67375 0.91487 0.32018 0.02700
C 	C 	0.66248 0.93219 0.29010 0.00200
H 	H 	0.64370 0.92520 0.27520 0.00800
C 	C 	0.63060 0.86650 0.32330 -0.11100
H 	H 	0.61960 0.87550 0.30280 0.06700
C 	C 	0.66026 0.88312 0.33678 0.05100
N 	N 	0.70593 0.46079 0.81251 -0.17500
N 	N 	0.68284 0.46045 0.78591 -0.20300
N 	N 	0.70092 0.43348 0.83356 -0.10200
C 	C 	0.67375 0.41487 0.82018 0.02700
C 	C 	0.66248 0.43219 0.79010 0.00100
H 	H 	0.64370 0.42520 0.77520 0.00600
C 	C 	0.63060 0.36650 0.82330 -0.11100
H 	H 	0.61960 0.37550 0.80280 0.06700
C 	C 	0.66026 0.38312 0.83678 0.05100
N 	N 	0.31251 0.46079 0.70593 -0.17600
N 	N 	0.28591 0.46045 0.68284 -0.20300
N 	N 	0.33356 0.43348 0.70092 -0.10300
C 	C 	0.32018 0.41487 0.67375 0.02600
C 	C 	0.29010 0.43219 0.66248 0.00100
H 	H 	0.27520 0.42520 0.64370 0.00600
C 	C 	0.32330 0.36650 0.63060 -0.11100
H 	H 	0.30280 0.37550 0.61960 0.06600
C 	C 	0.33678 0.38312 0.66026 0.05000
N 	N 	0.31251 0.96079 0.20593 -0.17100
N 	N 	0.28591 0.96045 0.18284 -0.19900
N 	N 	0.33356 0.93348 0.20092 -0.10100
C 	C 	0.32018 0.91487 0.17375 0.02700
C 	C 	0.29010 0.93219 0.16248 0.00100
H 	H 	0.27520 0.92520 0.14370 0.00700
C 	C 	0.32330 0.86650 0.13060 -0.11100
H 	H 	0.30280 0.87550 0.11960 0.06700
C 	C 	0.33678 0.88312 0.16026 0.05100
N 	N 	0.81251 0.46079 0.20593 -0.17600
N 	N 	0.78591 0.46045 0.18284 -0.20300
N 	N 	0.83356 0.43348 0.20092 -0.10200
C 	C 	0.82018 0.41487 0.17375 0.02600
C 	C 	0.79010 0.43219 0.16248 0.00100
H 	H 	0.77520 0.42520 0.14370 0.00500
C 	C 	0.82330 0.36650 0.13060 -0.11100
H 	H 	0.80280 0.37550 0.11960 0.06600
C 	C 	0.83678 0.38312 0.16026 0.05000
N 	N 	0.81251 0.96079 0.70593 -0.17000
N 	N 	0.78591 0.96045 0.68284 -0.19800
N 	N 	0.83356 0.93348 0.70092 -0.10100
C 	C 	0.82018 0.91487 0.67375 0.02800
C 	C 	0.79010 0.93219 0.66248 0.00200
H 	H 	0.77520 0.92520 0.64370 0.00800
C 	C 	0.82330 0.86650 0.63060 -0.11100
H 	H 	0.80280 0.87550 0.61960 0.06700
C 	C 	0.83678 0.88312 0.66026 0.05200
N 	N 	0.68749 0.53921 0.70593 -0.17600
N 	N 	0.71409 0.53955 0.68284 -0.20300
N 	N 	0.66644 0.56652 0.70092 -0.10300
C 	C 	0.67982 0.58513 0.67375 0.02600
C 	C 	0.70990 0.56781 0.66248 0.00100
H 	H 	0.72480 0.57480 0.64370 0.00600
C 	C 	0.67670 0.63350 0.63060 -0.11200
H 	H 	0.69720 0.62450 0.61960 0.06600
C 	C 	0.66322 0.61688 0.66026 0.05000
N 	N 	0.68749 0.03921 0.20593 -0.17800
N 	N 	0.71409 0.03955 0.18284 -0.20500
N 	N 	0.66644 0.06652 0.20092 -0.10400
C 	C 	0.67982 0.08513 0.17375 0.02500
C 	C 	0.70990 0.06781 0.16248 -0.00000
H 	H 	0.72480 0.07480 0.14370 0.00400
C 	C 	0.67670 0.13350 0.13060 -0.11200
H 	H 	0.69720 0.12450 0.11960 0.06500
C 	C 	0.66322 0.11688 0.16026 0.04900
N 	N 	0.18749 0.53921 0.20593 -0.17600
N 	N 	0.21409 0.53955 0.18284 -0.20400
N 	N 	0.16644 0.56652 0.20092 -0.10300
C 	C 	0.17982 0.58513 0.17375 0.02600
C 	C 	0.20990 0.56781 0.16248 0.00000
H 	H 	0.22480 0.57480 0.14370 0.00500
C 	C 	0.17670 0.63350 0.13060 -0.11200
H 	H 	0.19720 0.62450 0.11960 0.06600
C 	C 	0.16322 0.61688 0.16026 0.04900
N 	N 	0.18749 0.03921 0.70593 -0.17800
N 	N 	0.21409 0.03955 0.68284 -0.20500
N 	N 	0.16644 0.06652 0.70092 -0.10400
C 	C 	0.17982 0.08513 0.67375 0.02600
C 	C 	0.20990 0.06781 0.66248 -0.00000
H 	H 	0.22480 0.07480 0.64370 0.00500
C 	C 	0.17670 0.13350 0.63060 -0.11200
H 	H 	0.19720 0.12450 0.61960 0.06600
C 	C 	0.16322 0.11688 0.66026 0.04900
N 	N 	0.68749 0.46079 0.29407 -0.17600
N 	N 	0.71409 0.46045 0.31716 -0.20300
N 	N 	0.66644 0.43348 0.29908 -0.10300
C 	C 	0.67982 0.41487 0.32625 0.02600
C 	C 	0.70990 0.43219 0.33752 0.00100
H 	H 	0.72480 0.42520 0.35630 0.00600
C 	C 	0.67670 0.36650 0.36940 -0.11100
H 	H 	0.69720 0.37550 0.38040 0.06700
C 	C 	0.66322 0.38312 0.33974 0.05000
N 	N 	0.68749 0.96079 0.79407 -0.17000
N 	N 	0.71409 0.96045 0.81716 -0.19800
N 	N 	0.66644 0.93348 0.79908 -0.10100
C 	C 	0.67982 0.91487 0.82625 0.02800
C 	C 	0.70990 0.93219 0.83752 0.00200
H 	H 	0.72480 0.92520 0.85630 0.00800
C 	C 	0.67670 0.86650 0.86940 -0.11100
H 	H 	0.69720 0.87550 0.88040 0.06800
C 	C 	0.66322 0.88312 0.83974 0.05200
N 	N 	0.18749 0.46079 0.79407 -0.17600
N 	N 	0.21409 0.46045 0.81716 -0.20300
N 	N 	0.16644 0.43348 0.79908 -0.10300
C 	C 	0.17982 0.41487 0.82625 0.02700
C 	C 	0.20990 0.43219 0.83752 0.00100
H 	H 	0.22480 0.42520 0.85630 0.00700
C 	C 	0.17670 0.36650 0.86940 -0.11100
H 	H 	0.19720 0.37550 0.88040 0.06700
C 	C 	0.16322 0.38312 0.83974 0.05000
N 	N 	0.18749 0.96079 0.29407 -0.17100
N 	N 	0.21409 0.96045 0.31716 -0.19800
N 	N 	0.16644 0.93348 0.29908 -0.10200
C 	C 	0.17982 0.91487 0.32625 0.02700
C 	C 	0.20990 0.93219 0.33752 0.00100
H 	H 	0.22480 0.92520 0.35630 0.00800
C 	C 	0.17670 0.86650 0.36940 -0.11100
H 	H 	0.19720 0.87550 0.38040 0.06700
C 	C 	0.16322 0.88312 0.33974 0.05100
N 	N 	0.31251 0.53921 0.29407 -0.17600
N 	N 	0.28591 0.53955 0.31716 -0.20300
N 	N 	0.33356 0.56652 0.29908 -0.10300
C 	C 	0.32018 0.58513 0.32625 0.02600
C 	C 	0.29010 0.56781 0.33752 0.00100
H 	H 	0.27520 0.57480 0.35630 0.00600
C 	C 	0.32330 0.63350 0.36940 -0.11100
H 	H 	0.30280 0.62450 0.38040 0.06600
C 	C 	0.33678 0.61688 0.33974 0.05000
N 	N 	0.31251 0.03921 0.79407 -0.17700
N 	N 	0.28591 0.03955 0.81716 -0.20500
N 	N 	0.33356 0.06652 0.79908 -0.10300
C 	C 	0.32018 0.08513 0.82625 0.02600
C 	C 	0.29010 0.06781 0.83752 0.00000
H 	H 	0.27520 0.07480 0.85630 0.00600
C 	C 	0.32330 0.13350 0.86940 -0.11100
H 	H 	0.30280 0.12450 0.88040 0.06700
C 	C 	0.33678 0.11688 0.83974 0.05000
N 	N 	0.81251 0.53921 0.79407 -0.17500
N 	N 	0.78591 0.53955 0.81716 -0.20300
N 	N 	0.83356 0.56652 0.79908 -0.10200
C 	C 	0.82018 0.58513 0.82625 0.02700
C 	C 	0.79010 0.56781 0.83752 0.00100
H 	H 	0.77520 0.57480 0.85630 0.00700
C 	C 	0.82330 0.63350 0.86940 -0.11100
H 	H 	0.80280 0.62450 0.88040 0.06800
C 	C 	0.83678 0.61688 0.83974 0.05100
N 	N 	0.81251 0.03921 0.29407 -0.17700
N 	N 	0.78591 0.03955 0.31716 -0.20500
N 	N 	0.83356 0.06652 0.29908 -0.10300
C 	C 	0.82018 0.08513 0.32625 0.02600
C 	C 	0.79010 0.06781 0.33752 0.00000
H 	H 	0.77520 0.07480 0.35630 0.00500
C 	C 	0.82330 0.13350 0.36940 -0.11100
H 	H 	0.80280 0.12450 0.38040 0.06600
C 	C 	0.83678 0.11688 0.33974 0.05000
N 	N 	0.70593 0.31251 0.46079 -0.17600
N 	N 	0.68284 0.28591 0.46045 -0.20300
N 	N 	0.70092 0.33356 0.43348 -0.10300
C 	C 	0.67375 0.32018 0.41487 0.02600
C 	C 	0.66248 0.29010 0.43219 0.00100
H 	H 	0.64370 0.27520 0.42520 0.00600
C 	C 	0.63060 0.32330 0.36650 -0.11100
H 	H 	0.61960 0.30280 0.37550 0.06600
C 	C 	0.66026 0.33678 0.38312 0.05000
N 	N 	0.70593 0.81251 0.96079 -0.17000
N 	N 	0.68284 0.78591 0.96045 -0.19800
N 	N 	0.70092 0.83356 0.93348 -0.10100
C 	C 	0.67375 0.82018 0.91487 0.02800
C 	C 	0.66248 0.79010 0.93219 0.00200
H 	H 	0.64370 0.77520 0.92520 0.00800
C 	C 	0.63060 0.82330 0.86650 -0.11100
H 	H 	0.61960 0.80280 0.87550 0.06700
C 	C 	0.66026 0.83678 0.88312 0.05200
N 	N 	0.20593 0.31251 0.96079 -0.17100
N 	N 	0.18284 0.28591 0.96045 -0.19900
N 	N 	0.20092 0.33356 0.93348 -0.10100
C 	C 	0.17375 0.32018 0.91487 0.02700
C 	C 	0.16248 0.29010 0.93219 0.00100
H 	H 	0.14370 0.27520 0.92520 0.00700
C 	C 	0.13060 0.32330 0.86650 -0.11100
H 	H 	0.11960 0.30280 0.87550 0.06700
C 	C 	0.16026 0.33678 0.88312 0.05100
N 	N 	0.20593 0.81251 0.46079 -0.17600
N 	N 	0.18284 0.78591 0.46045 -0.20300
N 	N 	0.20092 0.83356 0.43348 -0.10200
C 	C 	0.17375 0.82018 0.41487 0.02600
C 	C 	0.16248 0.79010 0.43219 0.00100
H 	H 	0.14370 0.77520 0.42520 0.00500
C 	C 	0.13060 0.82330 0.36650 -0.11100
H 	H 	0.11960 0.80280 0.37550 0.06600
C 	C 	0.16026 0.83678 0.38312 0.05000
N 	N 	0.70593 0.68749 0.53921 -0.17600
N 	N 	0.68284 0.71409 0.53955 -0.20300
N 	N 	0.70092 0.66644 0.56652 -0.10300
C 	C 	0.67375 0.67982 0.58513 0.02600
C 	C 	0.66248 0.70990 0.56781 0.00100
H 	H 	0.64370 0.72480 0.57480 0.00600
C 	C 	0.63060 0.67670 0.63350 -0.11200
H 	H 	0.61960 0.69720 0.62450 0.06600
C 	C 	0.66026 0.66322 0.61688 0.05000
N 	N 	0.70593 0.18749 0.03921 -0.17800
N 	N 	0.68284 0.21409 0.03955 -0.20500
N 	N 	0.70092 0.16644 0.06652 -0.10400
C 	C 	0.67375 0.17982 0.08513 0.02600
C 	C 	0.66248 0.20990 0.06781 -0.00000
H 	H 	0.64370 0.22480 0.07480 0.00500
C 	C 	0.63060 0.17670 0.13350 -0.11200
H 	H 	0.61960 0.19720 0.12450 0.06600
C 	C 	0.66026 0.16322 0.11688 0.04900
N 	N 	0.20593 0.68749 0.03921 -0.17800
N 	N 	0.18284 0.71409 0.03955 -0.20500
N 	N 	0.20092 0.66644 0.06652 -0.10400
C 	C 	0.17375 0.67982 0.08513 0.02500
C 	C 	0.16248 0.70990 0.06781 -0.00000
H 	H 	0.14370 0.72480 0.07480 0.00400
C 	C 	0.13060 0.67670 0.13350 -0.11200
H 	H 	0.11960 0.69720 0.12450 0.06500
C 	C 	0.16026 0.66322 0.11688 0.04900
N 	N 	0.20593 0.18749 0.53921 -0.17600
N 	N 	0.18284 0.21409 0.53955 -0.20400
N 	N 	0.20092 0.16644 0.56652 -0.10300
C 	C 	0.17375 0.17982 0.58513 0.02600
C 	C 	0.16248 0.20990 0.56781 0.00000
H 	H 	0.14370 0.22480 0.57480 0.00500
C 	C 	0.13060 0.17670 0.63350 -0.11200
H 	H 	0.11960 0.19720 0.62450 0.06600
C 	C 	0.16026 0.16322 0.61688 0.04900
N 	N 	0.29407 0.68749 0.46079 -0.17600
N 	N 	0.31716 0.71409 0.46045 -0.20300
N 	N 	0.29908 0.66644 0.43348 -0.10300
C 	C 	0.32625 0.67982 0.41487 0.02600
C 	C 	0.33752 0.70990 0.43219 0.00100
H 	H 	0.35630 0.72480 0.42520 0.00600
C 	C 	0.36940 0.67670 0.36650 -0.11100
H 	H 	0.38040 0.69720 0.37550 0.06700
C 	C 	0.33974 0.66322 0.38312 0.05000
N 	N 	0.29407 0.18749 0.96079 -0.17100
N 	N 	0.31716 0.21409 0.96045 -0.19800
N 	N 	0.29908 0.16644 0.93348 -0.10200
C 	C 	0.32625 0.17982 0.91487 0.02700
C 	C 	0.33752 0.20990 0.93219 0.00100
H 	H 	0.35630 0.22480 0.92520 0.00800
C 	C 	0.36940 0.17670 0.86650 -0.11100
H 	H 	0.38040 0.19720 0.87550 0.06700
C 	C 	0.33974 0.16322 0.88312 0.05100
N 	N 	0.79407 0.68749 0.96079 -0.17000
N 	N 	0.81716 0.71409 0.96045 -0.19800
N 	N 	0.79908 0.66644 0.93348 -0.10100
C 	C 	0.82625 0.67982 0.91487 0.02800
C 	C 	0.83752 0.70990 0.93219 0.00200
H 	H 	0.85630 0.72480 0.92520 0.00800
C 	C 	0.86940 0.67670 0.86650 -0.11100
H 	H 	0.88040 0.69720 0.87550 0.06800
C 	C 	0.83974 0.66322 0.88312 0.05200
N 	N 	0.79407 0.18749 0.46079 -0.17600
N 	N 	0.81716 0.21409 0.46045 -0.20300
N 	N 	0.79908 0.16644 0.43348 -0.10300
C 	C 	0.82625 0.17982 0.41487 0.02700
C 	C 	0.83752 0.20990 0.43219 0.00100
H 	H 	0.85630 0.22480 0.42520 0.00700
C 	C 	0.86940 0.17670 0.36650 -0.11100
H 	H 	0.88040 0.19720 0.37550 0.06700
C 	C 	0.83974 0.16322 0.38312 0.05000
N 	N 	0.29407 0.31251 0.53921 -0.17600
N 	N 	0.31716 0.28591 0.53955 -0.20300
N 	N 	0.29908 0.33356 0.56652 -0.10300
C 	C 	0.32625 0.32018 0.58513 0.02600
C 	C 	0.33752 0.29010 0.56781 0.00100
H 	H 	0.35630 0.27520 0.57480 0.00600
C 	C 	0.36940 0.32330 0.63350 -0.11100
H 	H 	0.38040 0.30280 0.62450 0.06600
C 	C 	0.33974 0.33678 0.61688 0.05000
N 	N 	0.29407 0.81251 0.03921 -0.17700
N 	N 	0.31716 0.78591 0.03955 -0.20500
N 	N 	0.29908 0.83356 0.06652 -0.10300
C 	C 	0.32625 0.82018 0.08513 0.02600
C 	C 	0.33752 0.79010 0.06781 0.00000
H 	H 	0.35630 0.77520 0.07480 0.00500
C 	C 	0.36940 0.82330 0.13350 -0.11100
H 	H 	0.38040 0.80280 0.12450 0.06600
C 	C 	0.33974 0.83678 0.11688 0.05000
N 	N 	0.79407 0.31251 0.03921 -0.17700
N 	N 	0.81716 0.28591 0.03955 -0.20500
N 	N 	0.79908 0.33356 0.06652 -0.10300
C 	C 	0.82625 0.32018 0.08513 0.02600
C 	C 	0.83752 0.29010 0.06781 0.00000
H 	H 	0.85630 0.27520 0.07480 0.00600
C 	C 	0.86940 0.32330 0.13350 -0.11100
H 	H 	0.88040 0.30280 0.12450 0.06700
C 	C 	0.83974 0.33678 0.11688 0.05000
N 	N 	0.79407 0.81251 0.53921 -0.17500
N 	N 	0.81716 0.78591 0.53955 -0.20300
N 	N 	0.79908 0.83356 0.56652 -0.10200
C 	C 	0.82625 0.82018 0.58513 0.02700
C 	C 	0.83752 0.79010 0.56781 0.00100
H 	H 	0.85630 0.77520 0.57480 0.00700
C 	C 	0.86940 0.82330 0.63350 -0.11100
H 	H 	0.88040 0.80280 0.62450 0.06800
C 	C 	0.83974 0.83678 0.61688 0.05100
N 	N 	0.46079 0.70593 0.31251 -0.17600
N 	N 	0.46045 0.68284 0.28591 -0.20300
N 	N 	0.43348 0.70092 0.33356 -0.10300
C 	C 	0.41487 0.67375 0.32018 0.02600
C 	C 	0.43219 0.66248 0.29010 0.00100
H 	H 	0.42520 0.64370 0.27520 0.00600
C 	C 	0.36650 0.63060 0.32330 -0.11100
H 	H 	0.37550 0.61960 0.30280 0.06600
C 	C 	0.38312 0.66026 0.33678 0.05000
N 	N 	0.46079 0.20593 0.81251 -0.17600
N 	N 	0.46045 0.18284 0.78591 -0.20300
N 	N 	0.43348 0.20092 0.83356 -0.10200
C 	C 	0.41487 0.17375 0.82018 0.02600
C 	C 	0.43219 0.16248 0.79010 0.00100
H 	H 	0.42520 0.14370 0.77520 0.00500
C 	C 	0.36650 0.13060 0.82330 -0.11100
H 	H 	0.37550 0.11960 0.80280 0.06600
C 	C 	0.38312 0.16026 0.83678 0.05000
N 	N 	0.96079 0.70593 0.81251 -0.17000
N 	N 	0.96045 0.68284 0.78591 -0.19800
N 	N 	0.93348 0.70092 0.83356 -0.10100
C 	C 	0.91487 0.67375 0.82018 0.02800
C 	C 	0.93219 0.66248 0.79010 0.00200
H 	H 	0.92520 0.64370 0.77520 0.00800
C 	C 	0.86650 0.63060 0.82330 -0.11100
H 	H 	0.87550 0.61960 0.80280 0.06700
C 	C 	0.88312 0.66026 0.83678 0.05200
N 	N 	0.96079 0.20593 0.31251 -0.17100
N 	N 	0.96045 0.18284 0.28591 -0.19900
N 	N 	0.93348 0.20092 0.33356 -0.10100
C 	C 	0.91487 0.17375 0.32018 0.02700
C 	C 	0.93219 0.16248 0.29010 0.00100
H 	H 	0.92520 0.14370 0.27520 0.00700
C 	C 	0.86650 0.13060 0.32330 -0.11100
H 	H 	0.87550 0.11960 0.30280 0.06700
C 	C 	0.88312 0.16026 0.33678 0.05100
N 	N 	0.53921 0.70593 0.68749 -0.17600
N 	N 	0.53955 0.68284 0.71409 -0.20300
N 	N 	0.56652 0.70092 0.66644 -0.10300
C 	C 	0.58513 0.67375 0.67982 0.02600
C 	C 	0.56781 0.66248 0.70990 0.00100
H 	H 	0.57480 0.64370 0.72480 0.00600
C 	C 	0.63350 0.63060 0.67670 -0.11200
H 	H 	0.62450 0.61960 0.69720 0.06600
C 	C 	0.61688 0.66026 0.66322 0.05000
N 	N 	0.53921 0.20593 0.18749 -0.17600
N 	N 	0.53955 0.18284 0.21409 -0.20400
N 	N 	0.56652 0.20092 0.16644 -0.10300
C 	C 	0.58513 0.17375 0.17982 0.02600
C 	C 	0.56781 0.16248 0.20990 0.00000
H 	H 	0.57480 0.14370 0.22480 0.00500
C 	C 	0.63350 0.13060 0.17670 -0.11200
H 	H 	0.62450 0.11960 0.19720 0.06600
C 	C 	0.61688 0.16026 0.16322 0.04900
N 	N 	0.03921 0.70593 0.18749 -0.17800
N 	N 	0.03955 0.68284 0.21409 -0.20500
N 	N 	0.06652 0.70092 0.16644 -0.10400
C 	C 	0.08513 0.67375 0.17982 0.02600
C 	C 	0.06781 0.66248 0.20990 -0.00000
H 	H 	0.07480 0.64370 0.22480 0.00500
C 	C 	0.13350 0.63060 0.17670 -0.11200
H 	H 	0.12450 0.61960 0.19720 0.06600
C 	C 	0.11688 0.66026 0.16322 0.04900
N 	N 	0.03921 0.20593 0.68749 -0.17800
N 	N 	0.03955 0.18284 0.71409 -0.20500
N 	N 	0.06652 0.20092 0.66644 -0.10400
C 	C 	0.08513 0.17375 0.67982 0.02500
C 	C 	0.06781 0.16248 0.70990 -0.00000
H 	H 	0.07480 0.14370 0.72480 0.00400
C 	C 	0.13350 0.13060 0.67670 -0.11200
H 	H 	0.12450 0.11960 0.69720 0.06500
C 	C 	0.11688 0.16026 0.66322 0.04900
N 	N 	0.46079 0.29407 0.68749 -0.17600
N 	N 	0.46045 0.31716 0.71409 -0.20300
N 	N 	0.43348 0.29908 0.66644 -0.10300
C 	C 	0.41487 0.32625 0.67982 0.02600
C 	C 	0.43219 0.33752 0.70990 0.00100
H 	H 	0.42520 0.35630 0.72480 0.00600
C 	C 	0.36650 0.36940 0.67670 -0.11100
H 	H 	0.37550 0.38040 0.69720 0.06700
C 	C 	0.38312 0.33974 0.66322 0.05000
N 	N 	0.46079 0.79407 0.18749 -0.17600
N 	N 	0.46045 0.81716 0.21409 -0.20300
N 	N 	0.43348 0.79908 0.16644 -0.10300
C 	C 	0.41487 0.82625 0.17982 0.02700
C 	C 	0.43219 0.83752 0.20990 0.00100
H 	H 	0.42520 0.85630 0.22480 0.00700
C 	C 	0.36650 0.86940 0.17670 -0.11100
H 	H 	0.37550 0.88040 0.19720 0.06700
C 	C 	0.38312 0.83974 0.16322 0.05000
N 	N 	0.96079 0.29407 0.18749 -0.17100
N 	N 	0.96045 0.31716 0.21409 -0.19800
N 	N 	0.93348 0.29908 0.16644 -0.10200
C 	C 	0.91487 0.32625 0.17982 0.02700
C 	C 	0.93219 0.33752 0.20990 0.00100
H 	H 	0.92520 0.35630 0.22480 0.00800
C 	C 	0.86650 0.36940 0.17670 -0.11100
H 	H 	0.87550 0.38040 0.19720 0.06700
C 	C 	0.88312 0.33974 0.16322 0.05100
N 	N 	0.96079 0.79407 0.68749 -0.17000
N 	N 	0.96045 0.81716 0.71409 -0.19800
N 	N 	0.93348 0.79908 0.66644 -0.10100
C 	C 	0.91487 0.82625 0.67982 0.02800
C 	C 	0.93219 0.83752 0.70990 0.00200
H 	H 	0.92520 0.85630 0.72480 0.00800
C 	C 	0.86650 0.86940 0.67670 -0.11100
H 	H 	0.87550 0.88040 0.69720 0.06800
C 	C 	0.88312 0.83974 0.66322 0.05200
N 	N 	0.53921 0.29407 0.31251 -0.17600
N 	N 	0.53955 0.31716 0.28591 -0.20300
N 	N 	0.56652 0.29908 0.33356 -0.10300
C 	C 	0.58513 0.32625 0.32018 0.02600
C 	C 	0.56781 0.33752 0.29010 0.00100
H 	H 	0.57480 0.35630 0.27520 0.00600
C 	C 	0.63350 0.36940 0.32330 -0.11100
H 	H 	0.62450 0.38040 0.30280 0.06600
C 	C 	0.61688 0.33974 0.33678 0.05000
N 	N 	0.53921 0.79407 0.81251 -0.17500
N 	N 	0.53955 0.81716 0.78591 -0.20300
N 	N 	0.56652 0.79908 0.83356 -0.10200
C 	C 	0.58513 0.82625 0.82018 0.02700
C 	C 	0.56781 0.83752 0.79010 0.00100
H 	H 	0.57480 0.85630 0.77520 0.00700
C 	C 	0.63350 0.86940 0.82330 -0.11100
H 	H 	0.62450 0.88040 0.80280 0.06800
C 	C 	0.61688 0.83974 0.83678 0.05100
N 	N 	0.03921 0.29407 0.81251 -0.17700
N 	N 	0.03955 0.31716 0.78591 -0.20500
N 	N 	0.06652 0.29908 0.83356 -0.10300
C 	C 	0.08513 0.32625 0.82018 0.02600
C 	C 	0.06781 0.33752 0.79010 0.00000
H 	H 	0.07480 0.35630 0.77520 0.00500
C 	C 	0.13350 0.36940 0.82330 -0.11100
H 	H 	0.12450 0.38040 0.80280 0.06600
C 	C 	0.11688 0.33974 0.83678 0.05000
N 	N 	0.03921 0.79407 0.31251 -0.17700
N 	N 	0.03955 0.81716 0.28591 -0.20500
N 	N 	0.06652 0.79908 0.33356 -0.10300
C 	C 	0.08513 0.82625 0.32018 0.02600
C 	C 	0.06781 0.83752 0.29010 0.00000
H 	H 	0.07480 0.85630 0.27520 0.00600
C 	C 	0.13350 0.86940 0.32330 -0.11100
H 	H 	0.12450 0.88040 0.30280 0.06700
C 	C 	0.11688 0.83974 0.33678 0.05000
N 	N 	0.96079 0.81251 0.79407 -0.17000
N 	N 	0.96045 0.78591 0.81716 -0.19800
N 	N 	0.93348 0.83356 0.79908 -0.10000
C 	C 	0.91487 0.82018 0.82625 0.02800
C 	C 	0.93219 0.79010 0.83752 0.00200
H 	H 	0.92520 0.77520 0.85630 0.00900
C 	C 	0.86650 0.82330 0.86940 -0.11100
H 	H 	0.87550 0.80280 0.88040 0.06800
C 	C 	0.88312 0.83678 0.83974 0.05200
N 	N 	0.96079 0.31251 0.29407 -0.17100
N 	N 	0.96045 0.28591 0.31716 -0.19800
N 	N 	0.93348 0.33356 0.29908 -0.10100
C 	C 	0.91487 0.32018 0.32625 0.02700
C 	C 	0.93219 0.29010 0.33752 0.00200
H 	H 	0.92520 0.27520 0.35630 0.00800
C 	C 	0.86650 0.32330 0.36940 -0.11100
H 	H 	0.87550 0.30280 0.38040 0.06700
C 	C 	0.88312 0.33678 0.33974 0.05100
N 	N 	0.46079 0.81251 0.29407 -0.17500
N 	N 	0.46045 0.78591 0.31716 -0.20300
N 	N 	0.43348 0.83356 0.29908 -0.10200
C 	C 	0.41487 0.82018 0.32625 0.02700
C 	C 	0.43219 0.79010 0.33752 0.00100
H 	H 	0.42520 0.77520 0.35630 0.00600
C 	C 	0.36650 0.82330 0.36940 -0.11100
H 	H 	0.37550 0.80280 0.38040 0.06700
C 	C 	0.38312 0.83678 0.33974 0.05100
N 	N 	0.46079 0.31251 0.79407 -0.17600
N 	N 	0.46045 0.28591 0.81716 -0.20300
N 	N 	0.43348 0.33356 0.79908 -0.10200
C 	C 	0.41487 0.32018 0.82625 0.02700
C 	C 	0.43219 0.29010 0.83752 0.00100
H 	H 	0.42520 0.27520 0.85630 0.00700
C 	C 	0.36650 0.32330 0.86940 -0.11100
H 	H 	0.37550 0.30280 0.88040 0.06700
C 	C 	0.38312 0.33678 0.83974 0.05100
N 	N 	0.03921 0.18749 0.79407 -0.17700
N 	N 	0.03955 0.21409 0.81716 -0.20500
N 	N 	0.06652 0.16644 0.79908 -0.10400
C 	C 	0.08513 0.17982 0.82625 0.02600
C 	C 	0.06781 0.20990 0.83752 -0.00000
H 	H 	0.07480 0.22480 0.85630 0.00600
C 	C 	0.13350 0.17670 0.86940 -0.11100
H 	H 	0.12450 0.19720 0.88040 0.06700
C 	C 	0.11688 0.16322 0.83974 0.04900
N 	N 	0.03921 0.68749 0.29407 -0.17700
N 	N 	0.03955 0.71409 0.31716 -0.20500
N 	N 	0.06652 0.66644 0.29908 -0.10400
C 	C 	0.08513 0.67982 0.32625 0.02600
C 	C 	0.06781 0.70990 0.33752 -0.00000
H 	H 	0.07480 0.72480 0.35630 0.00500
C 	C 	0.13350 0.67670 0.36940 -0.11100
H 	H 	0.12450 0.69720 0.38040 0.06600
C 	C 	0.11688 0.66322 0.33974 0.04900
N 	N 	0.53921 0.18749 0.29407 -0.17600
N 	N 	0.53955 0.21409 0.31716 -0.20300
N 	N 	0.56652 0.16644 0.29908 -0.10300
C 	C 	0.58513 0.17982 0.32625 0.02600
C 	C 	0.56781 0.20990 0.33752 0.00100
H 	H 	0.57480 0.22480 0.35630 0.00600
C 	C 	0.63350 0.17670 0.36940 -0.11100
H 	H 	0.62450 0.19720 0.38040 0.06600
C 	C 	0.61688 0.16322 0.33974 0.05000
N 	N 	0.53921 0.68749 0.79407 -0.17600
N 	N 	0.53955 0.71409 0.81716 -0.20300
N 	N 	0.56652 0.66644 0.79908 -0.10200
C 	C 	0.58513 0.67982 0.82625 0.02700
C 	C 	0.56781 0.70990 0.83752 0.00100
H 	H 	0.57480 0.72480 0.85630 0.00700
C 	C 	0.63350 0.67670 0.86940 -0.11100
H 	H 	0.62450 0.69720 0.88040 0.06700
C 	C 	0.61688 0.66322 0.83974 0.05100
N 	N 	0.96079 0.18749 0.20593 -0.17100
N 	N 	0.96045 0.21409 0.18284 -0.19900
N 	N 	0.93348 0.16644 0.20092 -0.10200
C 	C 	0.91487 0.17982 0.17375 0.02700
C 	C 	0.93219 0.20990 0.16248 0.00100
H 	H 	0.92520 0.22480 0.14370 0.00700
C 	C 	0.86650 0.17670 0.13060 -0.11100
H 	H 	0.87550 0.19720 0.11960 0.06600
C 	C 	0.88312 0.16322 0.16026 0.05000
N 	N 	0.96079 0.68749 0.70593 -0.17100
N 	N 	0.96045 0.71409 0.68284 -0.19800
N 	N 	0.93348 0.66644 0.70092 -0.10100
C 	C 	0.91487 0.67982 0.67375 0.02700
C 	C 	0.93219 0.70990 0.66248 0.00200
H 	H 	0.92520 0.72480 0.64370 0.00800
C 	C 	0.86650 0.67670 0.63060 -0.11100
H 	H 	0.87550 0.69720 0.61960 0.06700
C 	C 	0.88312 0.66322 0.66026 0.05100
N 	N 	0.46079 0.18749 0.70593 -0.17600
N 	N 	0.46045 0.21409 0.68284 -0.20300
N 	N 	0.43348 0.16644 0.70092 -0.10300
C 	C 	0.41487 0.17982 0.67375 0.02600
C 	C 	0.43219 0.20990 0.66248 0.00000
H 	H 	0.42520 0.22480 0.64370 0.00600
C 	C 	0.36650 0.17670 0.63060 -0.11100
H 	H 	0.37550 0.19720 0.61960 0.06600
C 	C 	0.38312 0.16322 0.66026 0.05000
N 	N 	0.46079 0.68749 0.20593 -0.17600
N 	N 	0.46045 0.71409 0.18284 -0.20400
N 	N 	0.43348 0.66644 0.20092 -0.10300
C 	C 	0.41487 0.67982 0.17375 0.02600
C 	C 	0.43219 0.70990 0.16248 0.00000
H 	H 	0.42520 0.72480 0.14370 0.00500
C 	C 	0.36650 0.67670 0.13060 -0.11200
H 	H 	0.37550 0.69720 0.11960 0.06600
C 	C 	0.38312 0.66322 0.16026 0.05000
N 	N 	0.03921 0.81251 0.20593 -0.17700
N 	N 	0.03955 0.78591 0.18284 -0.20500
N 	N 	0.06652 0.83356 0.20092 -0.10300
C 	C 	0.08513 0.82018 0.17375 0.02600
C 	C 	0.06781 0.79010 0.16248 -0.00000
H 	H 	0.07480 0.77520 0.14370 0.00400
C 	C 	0.13350 0.82330 0.13060 -0.11200
H 	H 	0.12450 0.80280 0.11960 0.06500
C 	C 	0.11688 0.83678 0.16026 0.04900
N 	N 	0.03921 0.31251 0.70593 -0.17700
N 	N 	0.03955 0.28591 0.68284 -0.20500
N 	N 	0.06652 0.33356 0.70092 -0.10400
C 	C 	0.08513 0.32018 0.67375 0.02600
C 	C 	0.06781 0.29010 0.66248 -0.00000
H 	H 	0.07480 0.27520 0.64370 0.00500
C 	C 	0.13350 0.32330 0.63060 -0.11100
H 	H 	0.12450 0.30280 0.61960 0.06600
C 	C 	0.11688 0.33678 0.66026 0.04900
N 	N 	0.53921 0.81251 0.70593 -0.17600
N 	N 	0.53955 0.78591 0.68284 -0.20300
N 	N 	0.56652 0.83356 0.70092 -0.10200
C 	C 	0.58513 0.82018 0.67375 0.02700
C 	C 	0.56781 0.79010 0.66248 0.00100
H 	H 	0.57480 0.77520 0.64370 0.00600
C 	C 	0.63350 0.82330 0.63060 -0.11100
H 	H 	0.62450 0.80280 0.61960 0.06700
C 	C 	0.61688 0.83678 0.66026 0.05100
N 	N 	0.53921 0.31251 0.20593 -0.17600
N 	N 	0.53955 0.28591 0.18284 -0.20400
N 	N 	0.56652 0.33356 0.20092 -0.10300
C 	C 	0.58513 0.32018 0.17375 0.02600
C 	C 	0.56781 0.29010 0.16248 0.00000
H 	H 	0.57480 0.27520 0.14370 0.00500
C 	C 	0.63350 0.32330 0.13060 -0.11100
H 	H 	0.62450 0.30280 0.11960 0.06600
C 	C 	0.61688 0.33678 0.16026 0.05000
N 	N 	0.81251 0.20593 0.03921 -0.17700
N 	N 	0.78591 0.18284 0.03955 -0.20500
N 	N 	0.83356 0.20092 0.06652 -0.10300
C 	C 	0.82018 0.17375 0.08513 0.02600
C 	C 	0.79010 0.16248 0.06781 -0.00000
H 	H 	0.77520 0.14370 0.07480 0.00400
C 	C 	0.82330 0.13060 0.13350 -0.11200
H 	H 	0.80280 0.11960 0.12450 0.06500
C 	C 	0.83678 0.16026 0.11688 0.04900
N 	N 	0.81251 0.70593 0.53921 -0.17600
N 	N 	0.78591 0.68284 0.53955 -0.20300
N 	N 	0.83356 0.70092 0.56652 -0.10200
C 	C 	0.82018 0.67375 0.58513 0.02700
C 	C 	0.79010 0.66248 0.56781 0.00100
H 	H 	0.77520 0.64370 0.57480 0.00600
C 	C 	0.82330 0.63060 0.63350 -0.11100
H 	H 	0.80280 0.61960 0.62450 0.06700
C 	C 	0.83678 0.66026 0.61688 0.05100
N 	N 	0.31251 0.20593 0.53921 -0.17600
N 	N 	0.28591 0.18284 0.53955 -0.20400
N 	N 	0.33356 0.20092 0.56652 -0.10300
C 	C 	0.32018 0.17375 0.58513 0.02600
C 	C 	0.29010 0.16248 0.56781 0.00000
H 	H 	0.27520 0.14370 0.57480 0.00500
C 	C 	0.32330 0.13060 0.63350 -0.11100
H 	H 	0.30280 0.11960 0.62450 0.06600
C 	C 	0.33678 0.16026 0.61688 0.05000
N 	N 	0.31251 0.70593 0.03921 -0.17700
N 	N 	0.28591 0.68284 0.03955 -0.20500
N 	N 	0.33356 0.70092 0.06652 -0.10400
C 	C 	0.32018 0.67375 0.08513 0.02600
C 	C 	0.29010 0.66248 0.06781 -0.00000
H 	H 	0.27520 0.64370 0.07480 0.00500
C 	C 	0.32330 0.63060 0.13350 -0.11100
H 	H 	0.30280 0.61960 0.12450 0.06600
C 	C 	0.33678 0.66026 0.11688 0.04900
N 	N 	0.18749 0.20593 0.96079 -0.17100
N 	N 	0.21409 0.18284 0.96045 -0.19900
N 	N 	0.16644 0.20092 0.93348 -0.10200
C 	C 	0.17982 0.17375 0.91487 0.02700
C 	C 	0.20990 0.16248 0.93219 0.00100
H 	H 	0.22480 0.14370 0.92520 0.00700
C 	C 	0.17670 0.13060 0.86650 -0.11100
H 	H 	0.19720 0.11960 0.87550 0.06600
C 	C 	0.16322 0.16026 0.88312 0.05000
N 	N 	0.18749 0.70593 0.46079 -0.17600
N 	N 	0.21409 0.68284 0.46045 -0.20300
N 	N 	0.16644 0.70092 0.43348 -0.10300
C 	C 	0.17982 0.67375 0.41487 0.02600
C 	C 	0.20990 0.66248 0.43219 0.00000
H 	H 	0.22480 0.64370 0.42520 0.00600
C 	C 	0.17670 0.63060 0.36650 -0.11100
H 	H 	0.19720 0.61960 0.37550 0.06600
C 	C 	0.16322 0.66026 0.38312 0.05000
N 	N 	0.68749 0.20593 0.46079 -0.17600
N 	N 	0.71409 0.18284 0.46045 -0.20400
N 	N 	0.66644 0.20092 0.43348 -0.10300
C 	C 	0.67982 0.17375 0.41487 0.02600
C 	C 	0.70990 0.16248 0.43219 0.00000
H 	H 	0.72480 0.14370 0.42520 0.00500
C 	C 	0.67670 0.13060 0.36650 -0.11200
H 	H 	0.69720 0.11960 0.37550 0.06600
C 	C 	0.66322 0.16026 0.38312 0.05000
N 	N 	0.68749 0.70593 0.96079 -0.17100
N 	N 	0.71409 0.68284 0.96045 -0.19800
N 	N 	0.66644 0.70092 0.93348 -0.10100
C 	C 	0.67982 0.67375 0.91487 0.02700
C 	C 	0.70990 0.66248 0.93219 0.00200
H 	H 	0.72480 0.64370 0.92520 0.00800
C 	C 	0.67670 0.63060 0.86650 -0.11100
H 	H 	0.69720 0.61960 0.87550 0.06700
C 	C 	0.66322 0.66026 0.88312 0.05100
N 	N 	0.18749 0.79407 0.03921 -0.17700
N 	N 	0.21409 0.81716 0.03955 -0.20500
N 	N 	0.16644 0.79908 0.06652 -0.10400
C 	C 	0.17982 0.82625 0.08513 0.02600
C 	C 	0.20990 0.83752 0.06781 -0.00000
H 	H 	0.22480 0.85630 0.07480 0.00600
C 	C 	0.17670 0.86940 0.13350 -0.11100
H 	H 	0.19720 0.88040 0.12450 0.06700
C 	C 	0.16322 0.83974 0.11688 0.04900
N 	N 	0.18749 0.29407 0.53921 -0.17600
N 	N 	0.21409 0.31716 0.53955 -0.20300
N 	N 	0.16644 0.29908 0.56652 -0.10300
C 	C 	0.17982 0.32625 0.58513 0.02600
C 	C 	0.20990 0.33752 0.56781 0.00100
H 	H 	0.22480 0.35630 0.57480 0.00600
C 	C 	0.17670 0.36940 0.63350 -0.11100
H 	H 	0.19720 0.38040 0.62450 0.06600
C 	C 	0.16322 0.33974 0.61688 0.05000
N 	N 	0.68749 0.79407 0.53921 -0.17600
N 	N 	0.71409 0.81716 0.53955 -0.20300
N 	N 	0.66644 0.79908 0.56652 -0.10200
C 	C 	0.67982 0.82625 0.58513 0.02700
C 	C 	0.70990 0.83752 0.56781 0.00100
H 	H 	0.72480 0.85630 0.57480 0.00700
C 	C 	0.67670 0.86940 0.63350 -0.11100
H 	H 	0.69720 0.88040 0.62450 0.06700
C 	C 	0.66322 0.83974 0.61688 0.05100
N 	N 	0.68749 0.29407 0.03921 -0.17700
N 	N 	0.71409 0.31716 0.03955 -0.20500
N 	N 	0.66644 0.29908 0.06652 -0.10400
C 	C 	0.67982 0.32625 0.08513 0.02600
C 	C 	0.70990 0.33752 0.06781 -0.00000
H 	H 	0.72480 0.35630 0.07480 0.00500
C 	C 	0.67670 0.36940 0.13350 -0.11100
H 	H 	0.69720 0.38040 0.12450 0.06600
C 	C 	0.66322 0.33974 0.11688 0.04900
N 	N 	0.81251 0.79407 0.96079 -0.17000
N 	N 	0.78591 0.81716 0.96045 -0.19800
N 	N 	0.83356 0.79908 0.93348 -0.10000
C 	C 	0.82018 0.82625 0.91487 0.02800
C 	C 	0.79010 0.83752 0.93219 0.00200
H 	H 	0.77520 0.85630 0.92520 0.00900
C 	C 	0.82330 0.86940 0.86650 -0.11100
H 	H 	0.80280 0.88040 0.87550 0.06800
C 	C 	0.83678 0.83974 0.88312 0.05200
N 	N 	0.81251 0.29407 0.46079 -0.17500
N 	N 	0.78591 0.31716 0.46045 -0.20300
N 	N 	0.83356 0.29908 0.43348 -0.10200
C 	C 	0.82018 0.32625 0.41487 0.02700
C 	C 	0.79010 0.33752 0.43219 0.00100
H 	H 	0.77520 0.35630 0.42520 0.00600
C 	C 	0.82330 0.36940 0.36650 -0.11100
H 	H 	0.80280 0.38040 0.37550 0.06700
C 	C 	0.83678 0.33974 0.38312 0.05100
N 	N 	0.31251 0.79407 0.46079 -0.17600
N 	N 	0.28591 0.81716 0.46045 -0.20300
N 	N 	0.33356 0.79908 0.43348 -0.10200
C 	C 	0.32018 0.82625 0.41487 0.02700
C 	C 	0.29010 0.83752 0.43219 0.00100
H 	H 	0.27520 0.85630 0.42520 0.00700
C 	C 	0.32330 0.86940 0.36650 -0.11100
H 	H 	0.30280 0.88040 0.37550 0.06700
C 	C 	0.33678 0.83974 0.38312 0.05100
N 	N 	0.31251 0.29407 0.96079 -0.17100
N 	N 	0.28591 0.31716 0.96045 -0.19800
N 	N 	0.33356 0.29908 0.93348 -0.10100
C 	C 	0.32018 0.32625 0.91487 0.02700
C 	C 	0.29010 0.33752 0.93219 0.00200
H 	H 	0.27520 0.35630 0.92520 0.00800
C 	C 	0.32330 0.36940 0.86650 -0.11100
H 	H 	0.30280 0.38040 0.87550 0.06700
C 	C 	0.33678 0.33974 0.88312 0.05100
N 	N 	0.20593 0.96079 0.18749 -0.17100
N 	N 	0.18284 0.96045 0.21409 -0.19900
N 	N 	0.20092 0.93348 0.16644 -0.10200
C 	C 	0.17375 0.91487 0.17982 0.02700
C 	C 	0.16248 0.93219 0.20990 0.00100
H 	H 	0.14370 0.92520 0.22480 0.00700
C 	C 	0.13060 0.86650 0.17670 -0.11100
H 	H 	0.11960 0.87550 0.19720 0.06600
C 	C 	0.16026 0.88312 0.16322 0.05000
N 	N 	0.20593 0.46079 0.68749 -0.17600
N 	N 	0.18284 0.46045 0.71409 -0.20400
N 	N 	0.20092 0.43348 0.66644 -0.10300
C 	C 	0.17375 0.41487 0.67982 0.02600
C 	C 	0.16248 0.43219 0.70990 0.00000
H 	H 	0.14370 0.42520 0.72480 0.00500
C 	C 	0.13060 0.36650 0.67670 -0.11200
H 	H 	0.11960 0.37550 0.69720 0.06600
C 	C 	0.16026 0.38312 0.66322 0.05000
N 	N 	0.70593 0.96079 0.68749 -0.17100
N 	N 	0.68284 0.96045 0.71409 -0.19800
N 	N 	0.70092 0.93348 0.66644 -0.10100
C 	C 	0.67375 0.91487 0.67982 0.02700
C 	C 	0.66248 0.93219 0.70990 0.00200
H 	H 	0.64370 0.92520 0.72480 0.00800
C 	C 	0.63060 0.86650 0.67670 -0.11100
H 	H 	0.61960 0.87550 0.69720 0.06700
C 	C 	0.66026 0.88312 0.66322 0.05100
N 	N 	0.70593 0.46079 0.18749 -0.17600
N 	N 	0.68284 0.46045 0.21409 -0.20300
N 	N 	0.70092 0.43348 0.16644 -0.10300
C 	C 	0.67375 0.41487 0.17982 0.02600
C 	C 	0.66248 0.43219 0.20990 0.00000
H 	H 	0.64370 0.42520 0.22480 0.00600
C 	C 	0.63060 0.36650 0.17670 -0.11100
H 	H 	0.61960 0.37550 0.19720 0.06600
C 	C 	0.66026 0.38312 0.16322 0.05000
N 	N 	0.20593 0.03921 0.81251 -0.17700
N 	N 	0.18284 0.03955 0.78591 -0.20500
N 	N 	0.20092 0.06652 0.83356 -0.10300
C 	C 	0.17375 0.08513 0.82018 0.02600
C 	C 	0.16248 0.06781 0.79010 -0.00000
H 	H 	0.14370 0.07480 0.77520 0.00400
C 	C 	0.13060 0.13350 0.82330 -0.11200
H 	H 	0.11960 0.12450 0.80280 0.06500
C 	C 	0.16026 0.11688 0.83678 0.04900
N 	N 	0.20593 0.53921 0.31251 -0.17600
N 	N 	0.18284 0.53955 0.28591 -0.20400
N 	N 	0.20092 0.56652 0.33356 -0.10300
C 	C 	0.17375 0.58513 0.32018 0.02600
C 	C 	0.16248 0.56781 0.29010 0.00000
H 	H 	0.14370 0.57480 0.27520 0.00500
C 	C 	0.13060 0.63350 0.32330 -0.11100
H 	H 	0.11960 0.62450 0.30280 0.06600
C 	C 	0.16026 0.61688 0.33678 0.05000
N 	N 	0.70593 0.03921 0.31251 -0.17700
N 	N 	0.68284 0.03955 0.28591 -0.20500
N 	N 	0.70092 0.06652 0.33356 -0.10400
C 	C 	0.67375 0.08513 0.32018 0.02600
C 	C 	0.66248 0.06781 0.29010 -0.00000
H 	H 	0.64370 0.07480 0.27520 0.00500
C 	C 	0.63060 0.13350 0.32330 -0.11100
H 	H 	0.61960 0.12450 0.30280 0.06600
C 	C 	0.66026 0.11688 0.33678 0.04900
N 	N 	0.70593 0.53921 0.81251 -0.17600
N 	N 	0.68284 0.53955 0.78591 -0.20300
N 	N 	0.70092 0.56652 0.83356 -0.10200
C 	C 	0.67375 0.58513 0.82018 0.02700
C 	C 	0.66248 0.56781 0.79010 0.00100
H 	H 	0.64370 0.57480 0.77520 0.00600
C 	C 	0.63060 0.63350 0.82330 -0.11100
H 	H 	0.61960 0.62450 0.80280 0.06700
C 	C 	0.66026 0.61688 0.83678 0.05100
N 	N 	0.79407 0.96079 0.81251 -0.17000
N 	N 	0.81716 0.96045 0.78591 -0.19800
N 	N 	0.79908 0.93348 0.83356 -0.10000
C 	C 	0.82625 0.91487 0.82018 0.02800
C 	C 	0.83752 0.93219 0.79010 0.00200
H 	H 	0.85630 0.92520 0.77520 0.00900
C 	C 	0.86940 0.86650 0.82330 -0.11100
H 	H 	0.88040 0.87550 0.80280 0.06800
C 	C 	0.83974 0.88312 0.83678 0.05200
N 	N 	0.79407 0.46079 0.31251 -0.17600
N 	N 	0.81716 0.46045 0.28591 -0.20300
N 	N 	0.79908 0.43348 0.33356 -0.10200
C 	C 	0.82625 0.41487 0.32018 0.02700
C 	C 	0.83752 0.43219 0.29010 0.00100
H 	H 	0.85630 0.42520 0.27520 0.00700
C 	C 	0.86940 0.36650 0.32330 -0.11100
H 	H 	0.88040 0.37550 0.30280 0.06700
C 	C 	0.83974 0.38312 0.33678 0.05100
N 	N 	0.29407 0.96079 0.31251 -0.17100
N 	N 	0.31716 0.96045 0.28591 -0.19800
N 	N 	0.29908 0.93348 0.33356 -0.10100
C 	C 	0.32625 0.91487 0.32018 0.02700
C 	C 	0.33752 0.93219 0.29010 0.00200
H 	H 	0.35630 0.92520 0.27520 0.00800
C 	C 	0.36940 0.86650 0.32330 -0.11100
H 	H 	0.38040 0.87550 0.30280 0.06700
C 	C 	0.33974 0.88312 0.33678 0.05100
N 	N 	0.29407 0.46079 0.81251 -0.17500
N 	N 	0.31716 0.46045 0.78591 -0.20300
N 	N 	0.29908 0.43348 0.83356 -0.10200
C 	C 	0.32625 0.41487 0.82018 0.02700
C 	C 	0.33752 0.43219 0.79010 0.00100
H 	H 	0.35630 0.42520 0.77520 0.00600
C 	C 	0.36940 0.36650 0.82330 -0.11100
H 	H 	0.38040 0.37550 0.80280 0.06700
C 	C 	0.33974 0.38312 0.83678 0.05100
N 	N 	0.79407 0.03921 0.18749 -0.17700
N 	N 	0.81716 0.03955 0.21409 -0.20500
N 	N 	0.79908 0.06652 0.16644 -0.10400
C 	C 	0.82625 0.08513 0.17982 0.02600
C 	C 	0.83752 0.06781 0.20990 -0.00000
H 	H 	0.85630 0.07480 0.22480 0.00600
C 	C 	0.86940 0.13350 0.17670 -0.11100
H 	H 	0.88040 0.12450 0.19720 0.06700
C 	C 	0.83974 0.11688 0.16322 0.04900
N 	N 	0.79407 0.53921 0.68749 -0.17600
N 	N 	0.81716 0.53955 0.71409 -0.20300
N 	N 	0.79908 0.56652 0.66644 -0.10200
C 	C 	0.82625 0.58513 0.67982 0.02700
C 	C 	0.83752 0.56781 0.70990 0.00100
H 	H 	0.85630 0.57480 0.72480 0.00700
C 	C 	0.86940 0.63350 0.67670 -0.11100
H 	H 	0.88040 0.62450 0.69720 0.06700
C 	C 	0.83974 0.61688 0.66322 0.05100
N 	N 	0.29407 0.03921 0.68749 -0.17700
N 	N 	0.31716 0.03955 0.71409 -0.20500
N 	N 	0.29908 0.06652 0.66644 -0.10400
C 	C 	0.32625 0.08513 0.67982 0.02600
C 	C 	0.33752 0.06781 0.70990 -0.00000
H 	H 	0.35630 0.07480 0.72480 0.00500
C 	C 	0.36940 0.13350 0.67670 -0.11100
H 	H 	0.38040 0.12450 0.69720 0.06600
C 	C 	0.33974 0.11688 0.66322 0.04900
N 	N 	0.29407 0.53921 0.18749 -0.17600
N 	N 	0.31716 0.53955 0.21409 -0.20300
N 	N 	0.29908 0.56652 0.16644 -0.10300
C 	C 	0.32625 0.58513 0.17982 0.02600
C 	C 	0.33752 0.56781 0.20990 0.00100
H 	H 	0.35630 0.57480 0.22480 0.00600
C 	C 	0.36940 0.63350 0.17670 -0.11100
H 	H 	0.38040 0.62450 0.19720 0.06600
C 	C 	0.33974 0.61688 0.16322 0.05000
Fe	Fe	0.68180 0.50000 0.25406 1.09100
Fe	Fe	0.68180 0.00000 0.75406 1.08400
Fe	Fe	0.18180 0.50000 0.75406 1.09100
Fe	Fe	0.18180 0.00000 0.25406 1.08400
Fe	Fe	0.31820 0.50000 0.25406 1.09100
Fe	Fe	0.31820 0.00000 0.75406 1.08400
Fe	Fe	0.81820 0.50000 0.75406 1.09200
Fe	Fe	0.81820 0.00000 0.25406 1.08500
Fe	Fe	0.31820 0.50000 0.74594 1.09100
Fe	Fe	0.31820 0.00000 0.24594 1.08400
Fe	Fe	0.81820 0.50000 0.24594 1.09200
Fe	Fe	0.81820 0.00000 0.74594 1.08500
Fe	Fe	0.68180 0.50000 0.74594 1.09100
Fe	Fe	0.68180 0.00000 0.24594 1.08400
Fe	Fe	0.18180 0.50000 0.24594 1.09100
Fe	Fe	0.18180 0.00000 0.74594 1.08400
Fe	Fe	0.25406 0.68180 0.50000 1.09100
Fe	Fe	0.25406 0.18180 -0.00000 1.08400
Fe	Fe	0.75406 0.68180 -0.00000 1.08400
Fe	Fe	0.75406 0.18180 0.50000 1.09100
Fe	Fe	0.25406 0.31820 0.50000 1.09100
Fe	Fe	0.25406 0.81820 -0.00000 1.08500
Fe	Fe	0.75406 0.31820 -0.00000 1.08400
Fe	Fe	0.75406 0.81820 0.50000 1.09200
Fe	Fe	0.74594 0.31820 0.50000 1.09100
Fe	Fe	0.74594 0.81820 -0.00000 1.08500
Fe	Fe	0.24594 0.31820 -0.00000 1.08400
Fe	Fe	0.24594 0.81820 0.50000 1.09200
Fe	Fe	0.74594 0.68180 0.50000 1.09100
Fe	Fe	0.74594 0.18180 -0.00000 1.08400
Fe	Fe	0.24594 0.68180 -0.00000 1.08400
Fe	Fe	0.24594 0.18180 0.50000 1.09100
Fe	Fe	0.50000 0.25406 0.68180 1.09100
Fe	Fe	0.50000 0.75406 0.18180 1.09100
Fe	Fe	0.00000 0.25406 0.18180 1.08400
Fe	Fe	0.00000 0.75406 0.68180 1.08400
Fe	Fe	0.50000 0.25406 0.31820 1.09100
Fe	Fe	0.50000 0.75406 0.81820 1.09200
Fe	Fe	-0.00000 0.25406 0.81820 1.08500
Fe	Fe	-0.00000 0.75406 0.31820 1.08400
Fe	Fe	0.50000 0.74594 0.31820 1.09100
Fe	Fe	0.50000 0.24594 0.81820 1.09200
Fe	Fe	-0.00000 0.74594 0.81820 1.08500
Fe	Fe	0.00000 0.24594 0.31820 1.08400
Fe	Fe	0.50000 0.74594 0.68180 1.09100
Fe	Fe	0.50000 0.24594 0.18180 1.09100
Fe	Fe	-0.00000 0.74594 0.18180 1.08400
Fe	Fe	-0.00000 0.24594 0.68180 1.08400
Fe	Fe	-0.00000 0.18180 0.24594 1.08400
Fe	Fe	0.00000 0.68180 0.74594 1.08400
Fe	Fe	0.50000 0.18180 0.74594 1.09100
Fe	Fe	0.50000 0.68180 0.24594 1.09100
Fe	Fe	-0.00000 0.81820 0.24594 1.08500
Fe	Fe	0.00000 0.31820 0.74594 1.08400
Fe	Fe	0.50000 0.81820 0.74594 1.09200
Fe	Fe	0.50000 0.31820 0.24594 1.09100
Fe	Fe	-0.00000 0.81820 0.75406 1.08500
Fe	Fe	-0.00000 0.31820 0.25406 1.08400
Fe	Fe	0.50000 0.81820 0.25406 1.09200
Fe	Fe	0.50000 0.31820 0.75406 1.09100
Fe	Fe	-0.00000 0.18180 0.75406 1.08400
Fe	Fe	-0.00000 0.68180 0.25406 1.08400
Fe	Fe	0.50000 0.18180 0.25406 1.09100
Fe	Fe	0.50000 0.68180 0.75406 1.09100
Fe	Fe	0.18180 0.75406 -0.00000 1.08400
Fe	Fe	0.18180 0.25406 0.50000 1.09100
Fe	Fe	0.68180 0.75406 0.50000 1.09100
Fe	Fe	0.68180 0.25406 -0.00000 1.08400
Fe	Fe	0.81820 0.75406 -0.00000 1.08500
Fe	Fe	0.81820 0.25406 0.50000 1.09200
Fe	Fe	0.31820 0.75406 0.50000 1.09100
Fe	Fe	0.31820 0.25406 -0.00000 1.08400
Fe	Fe	0.81820 0.24594 -0.00000 1.08500
Fe	Fe	0.81820 0.74594 0.50000 1.09200
Fe	Fe	0.31820 0.24594 0.50000 1.09100
Fe	Fe	0.31820 0.74594 -0.00000 1.08400
Fe	Fe	0.18180 0.24594 -0.00000 1.08400
Fe	Fe	0.18180 0.74594 0.50000 1.09100
Fe	Fe	0.68180 0.24594 0.50000 1.09100
Fe	Fe	0.68180 0.74594 -0.00000 1.08400
Fe	Fe	0.75406 0.00000 0.81820 1.08500
Fe	Fe	0.75406 0.50000 0.31820 1.09100
Fe	Fe	0.25406 0.00000 0.31820 1.08400
Fe	Fe	0.25406 0.50000 0.81820 1.09200
Fe	Fe	0.75406 0.00000 0.18180 1.08400
Fe	Fe	0.75406 0.50000 0.68180 1.09100
Fe	Fe	0.25406 0.00000 0.68180 1.08400
Fe	Fe	0.25406 0.50000 0.18180 1.09100
Fe	Fe	0.24594 0.00000 0.18180 1.08400
Fe	Fe	0.24594 0.50000 0.68180 1.09100
Fe	Fe	0.74594 0.00000 0.68180 1.08400
Fe	Fe	0.74594 0.50000 0.18180 1.09100
Fe	Fe	0.24594 0.00000 0.81820 1.08500
Fe	Fe	0.24594 0.50000 0.31820 1.09100
Fe	Fe	0.74594 0.00000 0.31820 1.08400
Fe	Fe	0.74594 0.50000 0.81820 1.09200
Cl	Cl	0.75000 0.50000 0.25000 -0.81700
Cl	Cl	0.25000 0.50000 0.25000 -0.81700
Cl	Cl	0.25000 0.50000 0.75000 -0.81700
Cl	Cl	0.75000 0.50000 0.75000 -0.81700
Cl	Cl	0.25000 0.75000 0.50000 -0.81700
Cl	Cl	0.25000 0.25000 0.50000 -0.81700
Cl	Cl	0.75000 0.25000 0.50000 -0.81700
Cl	Cl	0.75000 0.75000 0.50000 -0.81700
Cl	Cl	0.50000 0.25000 0.75000 -0.81700
Cl	Cl	0.50000 0.25000 0.25000 -0.81700
Cl	Cl	0.50000 0.75000 0.25000 -0.81700
Cl	Cl	0.50000 0.75000 0.75000 -0.81700
Cl	Cl	-0.00000 0.25000 0.25000 -0.82700
Cl	Cl	-0.00000 0.75000 0.25000 -0.82700
Cl	Cl	0.00000 0.75000 0.75000 -0.82700
Cl	Cl	-0.00000 0.25000 0.75000 -0.82700
Cl	Cl	0.25000 0.75000 -0.00000 -0.82700
Cl	Cl	0.75000 0.75000 -0.00000 -0.82700
Cl	Cl	0.75000 0.25000 -0.00000 -0.82700
Cl	Cl	0.25000 0.25000 -0.00000 -0.82700
Cl	Cl	0.75000 0.00000 0.75000 -0.82700
Cl	Cl	0.75000 0.00000 0.25000 -0.82700
Cl	Cl	0.25000 0.00000 0.25000 -0.82700
Cl	Cl	0.25000 0.00000 0.75000 -0.82700
