data_crystal

_cell_length_a 9.05210
_cell_length_b 15.40100
_cell_length_c 17.14100
_cell_angle_alpha 90.00000
_cell_angle_beta  90.00000
_cell_angle_gamma 90.00000

_symmetry_space_group_name_	'P 1'
_symmetry_space_group_name_H-M	'P 1'

loop_
_symmetry_equiv_pos_as_xyz
  x,y,z

loop_
_atom_site_label
_atom_site_type_symbol
_atom_site_fract_x
_atom_site_fract_y
_atom_site_fract_z
_atom_site_charge
Cu	Cu	0.57064 0.27827 0.78185 0.90200
Cu	Cu	0.07064 0.72173 0.21815 0.88600
Cu	Cu	0.57064 0.77827 0.71815 0.90200
Cu	Cu	0.07064 0.22173 0.28185 0.88700
H 	H 	0.26510 0.69140 0.66790 -0.00200
H 	H 	0.39110 0.76700 0.87450 0.01800
H 	H 	0.13960 0.70750 0.88770 0.03900
H 	H 	0.97600 0.66700 0.70030 0.11700
H 	H 	0.94120 0.65380 0.78900 0.12000
H 	H 	0.07550 0.53420 0.68860 0.05500
H 	H 	0.93180 0.51980 0.73780 0.08700
H 	H 	0.07670 0.51540 0.85240 0.06100
H 	H 	0.21930 0.52570 0.80130 0.07000
H 	H 	0.14390 0.38840 0.73790 0.05500
H 	H 	0.21230 0.38050 0.82170 0.06200
H 	H 	0.85690 0.36110 0.72610 0.00300
H 	H 	0.03550 0.32830 0.93410 -0.01100
H 	H 	0.78340 0.27050 0.93650 0.04900
H 	H 	0.80830 0.22050 0.57430 0.04300
H 	H 	0.87590 0.02790 0.42110 0.04000
H 	H 	0.73750 0.93610 0.49700 0.06800
H 	H 	0.65310 0.98190 0.61810 0.03400
H 	H 	0.76510 0.30860 0.33210 0.00200
H 	H 	0.89110 0.23300 0.12550 0.03100
H 	H 	0.63960 0.29250 0.11230 0.04600
H 	H 	0.47600 0.33300 0.29970 0.05400
H 	H 	0.44120 0.34620 0.21100 0.05900
H 	H 	0.57550 0.46580 0.31140 0.06100
H 	H 	0.43180 0.48020 0.26220 0.06200
H 	H 	0.57670 0.48460 0.14760 0.07500
H 	H 	0.71930 0.47430 0.19870 0.07600
H 	H 	0.64390 0.61160 0.26210 0.05400
H 	H 	0.71230 0.61950 0.17830 0.05600
H 	H 	0.35690 0.63890 0.27390 -0.00500
H 	H 	0.53550 0.67170 0.06590 0.04000
H 	H 	0.28340 0.72950 0.06350 0.02400
H 	H 	0.30830 0.77950 0.42570 0.03600
H 	H 	0.37590 0.97210 0.57890 0.03000
H 	H 	0.23750 0.06390 0.50300 0.06400
H 	H 	0.15310 0.01810 0.38190 0.02400
H 	H 	0.26510 0.19140 0.83210 -0.00100
H 	H 	0.39110 0.26700 0.62550 0.01900
H 	H 	0.13960 0.20750 0.61230 0.03900
H 	H 	0.97600 0.16700 0.79970 0.11600
H 	H 	0.94120 0.15380 0.71100 0.12000
H 	H 	0.07550 0.03420 0.81140 0.05600
H 	H 	0.93180 0.01980 0.76220 0.08700
H 	H 	0.07670 0.01540 0.64760 0.06100
H 	H 	0.21930 0.02570 0.69870 0.06900
H 	H 	0.14390 0.88840 0.76210 0.05500
H 	H 	0.21230 0.88050 0.67830 0.06200
H 	H 	0.85690 0.86110 0.77390 0.00300
H 	H 	0.03550 0.82830 0.56590 -0.01400
H 	H 	0.78340 0.77050 0.56350 0.05000
H 	H 	0.80830 0.72050 0.92570 0.04400
H 	H 	0.87590 0.52790 0.07890 0.04000
H 	H 	0.73750 0.43610 0.00300 0.06800
H 	H 	0.65310 0.48190 0.88190 0.03400
H 	H 	0.76510 0.80860 0.16790 0.00200
H 	H 	0.89110 0.73300 0.37450 0.03100
H 	H 	0.63960 0.79250 0.38770 0.04600
H 	H 	0.47600 0.83300 0.20030 0.05400
H 	H 	0.44120 0.84620 0.28900 0.05900
H 	H 	0.57550 0.96580 0.18860 0.06100
H 	H 	0.43180 0.98020 0.23780 0.06200
H 	H 	0.57670 0.98460 0.35240 0.07500
H 	H 	0.71930 0.97430 0.30130 0.07600
H 	H 	0.64390 0.11160 0.23790 0.05400
H 	H 	0.71230 0.11950 0.32170 0.05600
H 	H 	0.35690 0.13890 0.22610 -0.00500
H 	H 	0.53550 0.17170 0.43410 0.04000
H 	H 	0.28340 0.22950 0.43650 0.02500
H 	H 	0.30830 0.27950 0.07430 0.03600
H 	H 	0.37590 0.47210 0.92110 0.02700
H 	H 	0.23750 0.56390 0.99700 0.06900
H 	H 	0.15310 0.51810 0.11810 0.02200
C 	C 	0.26510 0.70290 0.72120 0.09400
C 	C 	0.33380 0.74420 0.83440 0.01700
C 	C 	0.19470 0.71150 0.84200 -0.02400
C 	C 	0.01340 0.64230 0.74850 -0.18900
C 	C 	0.02950 0.54570 0.73860 -0.10200
C 	C 	0.12000 0.50210 0.80200 -0.09900
C 	C 	0.12850 0.40240 0.79250 -0.08400
C 	C 	0.86920 0.34580 0.77820 0.09100
C 	C 	0.96900 0.32810 0.89280 0.07700
C 	C 	0.82970 0.29610 0.89390 -0.03400
C 	C 	0.71890 0.10710 0.60720 -0.10700
C 	C 	0.79670 0.16280 0.55970 0.03600
C 	C 	0.85790 0.13370 0.49030 -0.09800
C 	C 	0.83580 0.04780 0.46770 0.02700
C 	C 	0.75560 0.99260 0.51360 -0.09400
C 	C 	0.70110 0.02060 0.58520 0.03000
C 	C 	0.65620 0.13860 0.68310 0.33500
C 	C 	0.94610 0.19440 0.43780 0.34200
C 	C 	0.76510 0.29710 0.27880 0.10500
C 	C 	0.83380 0.25580 0.16560 0.01800
C 	C 	0.69470 0.28850 0.15800 -0.01200
C 	C 	0.51340 0.35770 0.25150 -0.05500
C 	C 	0.52950 0.45430 0.26140 -0.08900
C 	C 	0.62000 0.49790 0.19800 -0.11200
C 	C 	0.62850 0.59760 0.20750 -0.05000
C 	C 	0.36920 0.65420 0.22180 0.09200
C 	C 	0.46900 0.67190 0.10720 -0.00600
C 	C 	0.32970 0.70390 0.10610 0.00500
C 	C 	0.21890 0.89290 0.39280 -0.11800
C 	C 	0.29670 0.83720 0.44030 0.04200
C 	C 	0.35790 0.86630 0.50970 -0.11100
C 	C 	0.33580 0.95220 0.53230 0.03000
C 	C 	0.25560 0.00740 0.48640 -0.10500
C 	C 	0.20110 0.97940 0.41480 0.03100
C 	C 	0.15620 0.86140 0.31690 0.33700
C 	C 	0.44610 0.80560 0.56220 0.34500
C 	C 	0.26510 0.20290 0.77880 0.09400
C 	C 	0.33380 0.24420 0.66560 0.01700
C 	C 	0.19470 0.21150 0.65800 -0.02300
C 	C 	0.01340 0.14230 0.75150 -0.18700
C 	C 	0.02950 0.04570 0.76140 -0.10300
C 	C 	0.12000 0.00210 0.69800 -0.09700
C 	C 	0.12850 0.90240 0.70750 -0.08500
C 	C 	0.86920 0.84580 0.72180 0.09100
C 	C 	0.96900 0.82810 0.60720 0.08100
C 	C 	0.82970 0.79610 0.60610 -0.03600
C 	C 	0.71890 0.60710 0.89280 -0.10600
C 	C 	0.79670 0.66280 0.94030 0.03400
C 	C 	0.85790 0.63370 0.00970 -0.09700
C 	C 	0.83580 0.54780 0.03230 0.02700
C 	C 	0.75560 0.49260 0.98640 -0.09500
C 	C 	0.70110 0.52060 0.91480 0.02900
C 	C 	0.65620 0.63860 0.81690 0.33500
C 	C 	0.94610 0.69440 0.06220 0.34200
C 	C 	0.76510 0.79710 0.22120 0.10500
C 	C 	0.83380 0.75580 0.33440 0.01800
C 	C 	0.69470 0.78850 0.34200 -0.01200
C 	C 	0.51340 0.85770 0.24850 -0.05500
C 	C 	0.52950 0.95430 0.23860 -0.08900
C 	C 	0.62000 0.99790 0.30200 -0.11200
C 	C 	0.62850 0.09760 0.29250 -0.05000
C 	C 	0.36920 0.15420 0.27820 0.09200
C 	C 	0.46900 0.17190 0.39280 -0.00600
C 	C 	0.32970 0.20390 0.39390 0.00500
C 	C 	0.21890 0.39290 0.10720 -0.12100
C 	C 	0.29670 0.33720 0.05970 0.04300
C 	C 	0.35790 0.36630 0.99030 -0.11300
C 	C 	0.33580 0.45220 0.96770 0.03900
C 	C 	0.25560 0.50740 0.01360 -0.11700
C 	C 	0.20110 0.47940 0.08520 0.03800
C 	C 	0.15620 0.36140 0.18310 0.33800
C 	C 	0.44610 0.30560 0.93780 0.34600
N 	N 	0.37470 0.73790 0.75860 -0.21400
N 	N 	0.15240 0.68560 0.76890 -0.10000
N 	N 	0.99330 0.35970 0.81990 -0.10700
N 	N 	0.76810 0.30780 0.82100 -0.21100
N 	N 	0.87470 0.26210 0.24140 -0.20500
N 	N 	0.65240 0.31440 0.23110 -0.11400
N 	N 	0.49330 0.64030 0.18010 -0.11400
N 	N 	0.26810 0.69220 0.17900 -0.22100
N 	N 	0.37470 0.23790 0.74140 -0.21400
N 	N 	0.15240 0.18560 0.73110 -0.10000
N 	N 	0.99330 0.85970 0.68010 -0.10700
N 	N 	0.76810 0.80780 0.67900 -0.21000
N 	N 	0.87470 0.76210 0.25860 -0.20500
N 	N 	0.65240 0.81440 0.26890 -0.11400
N 	N 	0.49330 0.14030 0.31990 -0.11400
N 	N 	0.26810 0.19220 0.32100 -0.22100
O 	O 	0.66100 0.22000 0.69350 -0.40300
O 	O 	0.60810 0.08510 0.73070 -0.29100
O 	O 	0.97440 0.16590 0.37110 -0.39000
O 	O 	0.98630 0.26560 0.46400 -0.26800
O 	O 	0.16100 0.78000 0.30650 -0.41300
O 	O 	0.10810 0.91490 0.26930 -0.30700
O 	O 	0.47440 0.83410 0.62890 -0.41000
O 	O 	0.48630 0.73440 0.53600 -0.28600
O 	O 	0.66100 0.72000 0.80650 -0.40300
O 	O 	0.60810 0.58510 0.76930 -0.29100
O 	O 	0.97440 0.66590 0.12890 -0.39000
O 	O 	0.98630 0.76560 0.03600 -0.26800
O 	O 	0.16100 0.28000 0.19350 -0.41300
O 	O 	0.10810 0.41490 0.23070 -0.30700
O 	O 	0.47440 0.33410 0.87110 -0.41000
O 	O 	0.48630 0.23440 0.96400 -0.28600
