data_crystal

_cell_length_a 10.47870
_cell_length_b 20.00910
_cell_length_c 14.95940
_cell_angle_alpha 90.00000
_cell_angle_beta  90.00000
_cell_angle_gamma 90.00000

_symmetry_space_group_name_	'P 1'
_symmetry_space_group_name_H-M	'P 1'

loop_
_symmetry_equiv_pos_as_xyz
  x,y,z

loop_
_atom_site_label
_atom_site_type_symbol
_atom_site_fract_x
_atom_site_fract_y
_atom_site_fract_z
_atom_site_charge
Zn	Zn	0.07352 0.75628 0.38658 1.22000
Zn	Zn	0.90568 0.58893 0.43416 1.08100
Zn	Zn	0.36740 0.08386 0.98210 1.03000
P 	P 	0.30773 0.76569 0.52151 0.59000
P 	P 	0.13640 0.44127 0.07896 0.64400
O 	O 	0.07530 0.83840 0.31400 -0.49400
O 	O 	0.92000 0.67910 0.18880 -0.43800
O 	O 	0.24500 0.74580 0.43480 -0.45100
O 	O 	0.94580 0.75800 0.47960 -0.43700
O 	O 	0.08700 0.93110 0.20190 -0.46300
H 	H 	0.14180 0.91100 0.17340 0.30700
O 	O 	0.90790 0.59320 0.30200 -0.36200
O 	O 	0.73580 0.76710 0.39770 -0.48300
H 	H 	0.73790 0.80790 0.40260 0.31100
O 	O 	0.29280 0.84000 0.53970 -0.64500
O 	O 	0.19070 0.50630 0.05050 -0.62400
O 	O 	0.24410 0.39350 0.10300 -0.33200
O 	O 	0.05290 0.40860 0.01190 -0.70300
O 	O 	0.94340 0.54400 0.83780 -0.57100
H 	H 	0.91840 0.56720 0.79620 0.31400
Zn	Zn	0.42648 0.74372 0.88658 1.23400
Zn	Zn	0.59432 0.91107 0.93416 1.07100
Zn	Zn	0.13260 0.41614 0.48210 1.02500
P 	P 	0.19227 0.73431 0.02151 0.59700
P 	P 	0.36360 0.05873 0.57896 0.64400
O 	O 	0.42470 0.66160 0.81400 -0.49000
O 	O 	0.58000 0.82090 0.68880 -0.48600
O 	O 	0.25500 0.75420 0.93480 -0.45900
O 	O 	0.55420 0.74200 0.97960 -0.47600
O 	O 	0.41300 0.56890 0.70190 -0.45700
H 	H 	0.35820 0.58900 0.67340 0.30800
O 	O 	0.59210 0.90680 0.80200 -0.40600
O 	O 	0.76420 0.73290 0.89770 -0.47400
H 	H 	0.76210 0.69210 0.90260 0.30900
O 	O 	0.20720 0.66000 0.03970 -0.64200
O 	O 	0.30930 0.99370 0.55050 -0.62800
O 	O 	0.25590 0.10650 0.60300 -0.33600
O 	O 	0.44710 0.09140 0.51190 -0.67700
O 	O 	0.55660 0.95600 0.33780 -0.59600
H 	H 	0.58160 0.93280 0.29620 0.30600
Zn	Zn	0.92648 0.75628 0.11342 1.24600
Zn	Zn	0.09432 0.58893 0.06584 1.06300
Zn	Zn	0.63260 0.08386 0.51790 1.03800
P 	P 	0.69227 0.76569 0.97849 0.59100
P 	P 	0.86360 0.44127 0.42104 0.64400
O 	O 	0.92470 0.83840 0.18600 -0.43200
O 	O 	0.08000 0.67910 0.31120 -0.49500
O 	O 	0.75500 0.74580 0.06520 -0.43800
O 	O 	0.05420 0.75800 0.02040 -0.50500
O 	O 	0.91300 0.93110 0.29810 -0.39400
H 	H 	0.85820 0.91100 0.32660 0.29600
O 	O 	0.09210 0.59320 0.19800 -0.41300
O 	O 	0.26420 0.76710 0.10230 -0.49000
H 	H 	0.26210 0.80790 0.09740 0.30900
O 	O 	0.70720 0.84000 0.96030 -0.62900
O 	O 	0.80930 0.50630 0.44950 -0.61200
O 	O 	0.75590 0.39350 0.39700 -0.32500
O 	O 	0.94710 0.40860 0.48810 -0.64000
O 	O 	0.05660 0.54400 0.66220 -0.61900
H 	H 	0.08160 0.56720 0.70380 0.29500
Zn	Zn	0.57352 0.74372 0.61342 1.23500
Zn	Zn	0.40568 0.91107 0.56584 1.07100
Zn	Zn	0.86740 0.41614 0.01790 1.04700
P 	P 	0.80773 0.73431 0.47849 0.59300
P 	P 	0.63640 0.05873 0.92104 0.64200
O 	O 	0.57530 0.66160 0.68600 -0.48300
O 	O 	0.42000 0.82090 0.81120 -0.49400
O 	O 	0.74500 0.75420 0.56520 -0.43600
O 	O 	0.44580 0.74200 0.52040 -0.47400
O 	O 	0.58700 0.56890 0.79810 -0.45500
H 	H 	0.64180 0.58900 0.82660 0.31000
O 	O 	0.40790 0.90680 0.69800 -0.41400
O 	O 	0.23580 0.73290 0.60230 -0.49900
H 	H 	0.23790 0.69210 0.59740 0.30800
O 	O 	0.79280 0.66000 0.46030 -0.62900
O 	O 	0.69070 0.99370 0.94950 -0.61200
O 	O 	0.74410 0.10650 0.89700 -0.32000
O 	O 	0.55290 0.09140 0.98810 -0.67800
O 	O 	0.44340 0.95600 0.16220 -0.59400
H 	H 	0.41840 0.93280 0.20380 0.30400
Zn	Zn	0.92648 0.24372 0.61342 1.24700
Zn	Zn	0.09432 0.41107 0.56584 1.06000
Zn	Zn	0.63260 0.91614 0.01790 1.03800
P 	P 	0.69227 0.23431 0.47849 0.59200
P 	P 	0.86360 0.55873 0.92104 0.64400
O 	O 	0.92470 0.16160 0.68600 -0.42500
O 	O 	0.08000 0.32090 0.81120 -0.49700
O 	O 	0.75500 0.25420 0.56520 -0.43800
O 	O 	0.05420 0.24200 0.52040 -0.51000
O 	O 	0.91300 0.06890 0.79810 -0.38700
H 	H 	0.85820 0.08900 0.82660 0.29500
O 	O 	0.09210 0.40680 0.69800 -0.41400
O 	O 	0.26420 0.23290 0.60230 -0.49000
H 	H 	0.26210 0.19210 0.59740 0.30800
O 	O 	0.70720 0.16000 0.46030 -0.62900
O 	O 	0.80930 0.49370 0.94950 -0.61300
O 	O 	0.75590 0.60650 0.89700 -0.32600
O 	O 	0.94710 0.59140 0.98810 -0.64000
O 	O 	0.05660 0.45600 0.16220 -0.61600
H 	H 	0.08160 0.43280 0.20380 0.29700
Zn	Zn	0.57352 0.25628 0.11342 1.23500
Zn	Zn	0.40568 0.08893 0.06584 1.07300
Zn	Zn	0.86740 0.58386 0.51790 1.04800
P 	P 	0.80773 0.26569 0.97849 0.59000
P 	P 	0.63640 0.94127 0.42104 0.64400
O 	O 	0.57530 0.33840 0.18600 -0.48300
O 	O 	0.42000 0.17910 0.31120 -0.49300
O 	O 	0.74500 0.24580 0.06520 -0.43500
O 	O 	0.44580 0.25800 0.02040 -0.47200
O 	O 	0.58700 0.43110 0.29810 -0.45400
H 	H 	0.64180 0.41100 0.32660 0.31000
O 	O 	0.40790 0.09320 0.19800 -0.41300
O 	O 	0.23580 0.26710 0.10230 -0.49800
H 	H 	0.23790 0.30790 0.09740 0.31000
O 	O 	0.79280 0.34000 0.96030 -0.63000
O 	O 	0.69070 0.00630 0.44950 -0.61200
O 	O 	0.74410 0.89350 0.39700 -0.32000
O 	O 	0.55290 0.90860 0.48810 -0.67400
O 	O 	0.44340 0.04400 0.66220 -0.59500
H 	H 	0.41840 0.06720 0.70380 0.30300
Zn	Zn	0.07352 0.24372 0.88658 1.21900
Zn	Zn	0.90568 0.41107 0.93416 1.08100
Zn	Zn	0.36740 0.91614 0.48210 1.03500
P 	P 	0.30773 0.23431 0.02151 0.59900
P 	P 	0.13640 0.55873 0.57896 0.64500
O 	O 	0.07530 0.16160 0.81400 -0.49500
O 	O 	0.92000 0.32090 0.68880 -0.43100
O 	O 	0.24500 0.25420 0.93480 -0.46000
O 	O 	0.94580 0.24200 0.97960 -0.43600
O 	O 	0.08700 0.06890 0.70190 -0.46500
H 	H 	0.14180 0.08900 0.67340 0.30600
O 	O 	0.90790 0.40680 0.80200 -0.35700
O 	O 	0.73580 0.23290 0.89770 -0.48300
H 	H 	0.73790 0.19210 0.90260 0.31000
O 	O 	0.29280 0.16000 0.03970 -0.64100
O 	O 	0.19070 0.49370 0.55050 -0.62700
O 	O 	0.24410 0.60650 0.60300 -0.33400
O 	O 	0.05290 0.59140 0.51190 -0.71000
O 	O 	0.94340 0.45600 0.33780 -0.57200
H 	H 	0.91840 0.43280 0.29620 0.31200
Zn	Zn	0.42648 0.25628 0.38658 1.23400
Zn	Zn	0.59432 0.08893 0.43416 1.07100
Zn	Zn	0.13260 0.58386 0.98210 1.02000
P 	P 	0.19227 0.26569 0.52151 0.59100
P 	P 	0.36360 0.94127 0.07896 0.64300
O 	O 	0.42470 0.33840 0.31400 -0.48900
O 	O 	0.58000 0.17910 0.18880 -0.48600
O 	O 	0.25500 0.24580 0.43480 -0.45100
O 	O 	0.55420 0.25800 0.47960 -0.47400
O 	O 	0.41300 0.43110 0.20190 -0.45600
H 	H 	0.35820 0.41100 0.17340 0.30800
O 	O 	0.59210 0.09320 0.30200 -0.40600
O 	O 	0.76420 0.26710 0.39770 -0.47500
H 	H 	0.76210 0.30790 0.40260 0.30900
O 	O 	0.20720 0.34000 0.53970 -0.64500
O 	O 	0.30930 0.00630 0.05050 -0.62200
O 	O 	0.25590 0.89350 0.10300 -0.33400
O 	O 	0.44710 0.90860 0.01190 -0.67400
O 	O 	0.55660 0.04400 0.83780 -0.59700
H 	H 	0.58160 0.06720 0.79620 0.30600
P 	P 	-0.00000 0.88021 0.25000 0.53800
P 	P 	-0.00000 0.63798 0.25000 0.48600
P 	P 	0.50000 0.61979 0.75000 0.62700
P 	P 	0.50000 0.86202 0.75000 0.57500
P 	P 	0.00000 0.11979 0.75000 0.52600
P 	P 	0.00000 0.36202 0.75000 0.47400
P 	P 	0.50000 0.38021 0.25000 0.62700
P 	P 	0.50000 0.13798 0.25000 0.57500
