data_crystal

_cell_length_a 18.29500
_cell_length_b 14.54100
_cell_length_c 18.65500
_cell_angle_alpha 90.00000
_cell_angle_beta  90.00000
_cell_angle_gamma 90.00000

_symmetry_space_group_name_	'P 1'
_symmetry_space_group_name_H-M	'P 1'

loop_
_symmetry_equiv_pos_as_xyz
  x,y,z

loop_
_atom_site_label
_atom_site_type_symbol
_atom_site_fract_x
_atom_site_fract_y
_atom_site_fract_z
_atom_site_charge
Zn	Zn	0.72629 0.37430 0.45158 1.17300
C 	C 	0.79761 0.28780 0.57885 0.08600
H 	H 	0.83170 0.33490 0.58340 -0.03000
C 	C 	0.70834 0.20340 0.54095 -0.00700
H 	H 	0.66950 0.18190 0.51350 0.00400
C 	C 	0.73516 0.16260 0.60034 -0.00500
H 	H 	0.71830 0.10860 0.62140 0.02500
C 	C 	0.83323 0.20030 0.69007 -0.13200
H 	H 	0.83410 0.25750 0.71690 0.06400
H 	H 	0.80650 0.15580 0.71860 0.07300
C 	C 	0.91286 0.16596 0.68242 0.11100
C 	C 	0.94491 0.15890 0.75931 -0.14600
H 	H 	0.95520 0.22050 0.77650 0.07100
H 	H 	0.99100 0.12600 0.75690 0.07500
C 	C 	0.84835 0.15520 0.85266 0.07600
H 	H 	0.83980 0.21820 0.85250 -0.03100
C 	C 	0.89528 0.02070 0.82776 -0.02300
H 	H 	0.92390 0.97440 0.80790 0.03100
C 	C 	0.84300 0.01080 0.87829 0.00500
H 	H 	0.82920 0.95550 0.89940 -0.00100
C 	C 	0.95900 0.23997 0.64377 -0.14200
H 	H 	0.94950 0.29900 0.66620 0.06800
H 	H 	0.94280 0.24400 0.59440 0.07600
C 	C 	0.08679 0.25850 0.69362 -0.02300
H 	H 	0.07560 0.29330 0.73390 0.03000
C 	C 	0.15372 0.23190 0.67183 0.00500
H 	H 	0.19740 0.24570 0.69500 0.00000
C 	C 	0.07672 0.17850 0.59496 0.07600
H 	H 	0.05660 0.14910 0.55530 -0.02100
C 	C 	0.91893 0.06990 0.64855 -0.13500
H 	H 	0.89900 0.02570 0.68220 0.07300
H 	H 	0.97040 0.05570 0.64270 0.07100
C 	C 	0.83650 0.98670 0.56677 0.08100
H 	H 	0.81970 0.94640 0.60180 -0.02400
C 	C 	0.89570 0.09850 0.51431 -0.01100
H 	H 	0.92640 0.14840 0.50610 0.02900
C 	C 	0.85480 0.05340 0.46494 -0.00000
H 	H 	0.85220 0.06760 0.41640 -0.00300
N 	N 	0.74815 0.28257 0.52750 -0.28600
N 	N 	0.79215 0.21613 0.62354 -0.10500
N 	N 	0.89786 0.11278 0.81138 -0.10600
N 	N 	0.81333 0.09565 0.89362 -0.29200
N 	N 	0.03816 0.22358 0.64421 -0.10600
N 	N 	0.14752 0.18091 0.60980 -0.28200
N 	N 	0.88265 0.05582 0.57901 -0.10200
N 	N 	0.81775 0.98297 0.49853 -0.28700
Zn	Zn	0.77371 0.62570 0.95158 1.17200
C 	C 	0.70239 0.71220 0.07885 0.08600
H 	H 	0.66830 0.66510 0.08340 -0.03000
C 	C 	0.79166 0.79660 0.04095 -0.00700
H 	H 	0.83050 0.81810 0.01350 0.00400
C 	C 	0.76484 0.83740 0.10034 -0.00500
H 	H 	0.78170 0.89140 0.12140 0.02500
C 	C 	0.66677 0.79970 0.19007 -0.13200
H 	H 	0.66590 0.74250 0.21690 0.06400
H 	H 	0.69350 0.84420 0.21860 0.07300
C 	C 	0.58714 0.83404 0.18242 0.11100
C 	C 	0.55509 0.84110 0.25931 -0.14600
H 	H 	0.54480 0.77950 0.27650 0.07100
H 	H 	0.50900 0.87400 0.25690 0.07600
C 	C 	0.65165 0.84480 0.35266 0.07600
H 	H 	0.66020 0.78180 0.35250 -0.03100
C 	C 	0.60472 0.97930 0.32776 -0.02300
H 	H 	0.57610 0.02560 0.30790 0.03100
C 	C 	0.65700 0.98920 0.37829 0.00400
H 	H 	0.67080 0.04450 0.39940 -0.00100
C 	C 	0.54100 0.76003 0.14377 -0.14200
H 	H 	0.55050 0.70100 0.16620 0.06800
H 	H 	0.55720 0.75600 0.09440 0.07600
C 	C 	0.41321 0.74150 0.19362 -0.02400
H 	H 	0.42440 0.70670 0.23390 0.03000
C 	C 	0.34628 0.76810 0.17183 0.00500
H 	H 	0.30260 0.75430 0.19500 0.00000
C 	C 	0.42328 0.82150 0.09496 0.07600
H 	H 	0.44340 0.85090 0.05530 -0.02100
C 	C 	0.58107 0.93010 0.14855 -0.13500
H 	H 	0.60100 0.97430 0.18220 0.07300
H 	H 	0.52960 0.94430 0.14270 0.07200
C 	C 	0.66350 0.01330 0.06677 0.08100
H 	H 	0.68030 0.05360 0.10180 -0.02500
C 	C 	0.60430 0.90150 0.01431 -0.01000
H 	H 	0.57360 0.85160 0.00610 0.02800
C 	C 	0.64520 0.94660 0.96494 -0.00200
H 	H 	0.64780 0.93240 0.91640 -0.00300
N 	N 	0.75185 0.71743 0.02750 -0.28500
N 	N 	0.70785 0.78387 0.12354 -0.10500
N 	N 	0.60214 0.88722 0.31138 -0.10600
N 	N 	0.68667 0.90435 0.39362 -0.29200
N 	N 	0.46184 0.77642 0.14421 -0.10600
N 	N 	0.35248 0.81909 0.10980 -0.28300
N 	N 	0.61735 0.94418 0.07901 -0.10200
N 	N 	0.68225 0.01703 0.99853 -0.28700
Zn	Zn	0.27371 0.87430 0.04842 1.17200
C 	C 	0.20239 0.78780 0.92115 0.08600
H 	H 	0.16830 0.83490 0.91660 -0.03000
C 	C 	0.29166 0.70340 0.95905 -0.00700
H 	H 	0.33050 0.68190 0.98650 0.00400
C 	C 	0.26484 0.66260 0.89966 -0.00500
H 	H 	0.28170 0.60860 0.87860 0.02500
C 	C 	0.16677 0.70030 0.80993 -0.13200
H 	H 	0.16590 0.75750 0.78310 0.06400
H 	H 	0.19350 0.65580 0.78140 0.07300
C 	C 	0.08714 0.66596 0.81758 0.11100
C 	C 	0.05509 0.65890 0.74069 -0.14600
H 	H 	0.04480 0.72050 0.72350 0.07100
H 	H 	0.00900 0.62600 0.74310 0.07600
C 	C 	0.15165 0.65520 0.64734 0.07600
H 	H 	0.16020 0.71820 0.64750 -0.03000
C 	C 	0.10472 0.52070 0.67224 -0.02300
H 	H 	0.07610 0.47440 0.69210 0.03200
C 	C 	0.15700 0.51080 0.62171 0.00400
H 	H 	0.17080 0.45550 0.60060 -0.00100
C 	C 	0.04100 0.73997 0.85623 -0.14100
H 	H 	0.05050 0.79900 0.83380 0.06800
H 	H 	0.05720 0.74400 0.90560 0.07600
C 	C 	0.91321 0.75850 0.80638 -0.02400
H 	H 	0.92440 0.79330 0.76610 0.03000
C 	C 	0.84628 0.73190 0.82817 0.00500
H 	H 	0.80260 0.74570 0.80500 0.00000
C 	C 	0.92328 0.67850 0.90504 0.07600
H 	H 	0.94340 0.64910 0.94470 -0.02200
C 	C 	0.08107 0.56990 0.85145 -0.13500
H 	H 	0.10100 0.52570 0.81780 0.07300
H 	H 	0.02960 0.55570 0.85730 0.07200
C 	C 	0.16350 0.48670 0.93323 0.08200
H 	H 	0.18030 0.44640 0.89820 -0.02500
C 	C 	0.10430 0.59850 0.98569 -0.00900
H 	H 	0.07360 0.64840 0.99390 0.02800
C 	C 	0.14520 0.55340 0.03506 -0.00300
H 	H 	0.14780 0.56760 0.08360 -0.00300
N 	N 	0.25185 0.78257 0.97250 -0.28600
N 	N 	0.20785 0.71613 0.87646 -0.10500
N 	N 	0.10214 0.61278 0.68862 -0.10600
N 	N 	0.18667 0.59565 0.60638 -0.29200
N 	N 	0.96184 0.72358 0.85579 -0.10700
N 	N 	0.85248 0.68091 0.89020 -0.28300
N 	N 	0.11735 0.55582 0.92099 -0.10300
N 	N 	0.18225 0.48297 0.00147 -0.28800
Zn	Zn	0.22629 0.12570 0.54842 1.17200
C 	C 	0.29761 0.21220 0.42115 0.08500
H 	H 	0.33170 0.16510 0.41660 -0.03000
C 	C 	0.20834 0.29660 0.45905 -0.00700
H 	H 	0.16950 0.31810 0.48650 0.00400
C 	C 	0.23516 0.33740 0.39966 -0.00500
H 	H 	0.21830 0.39140 0.37860 0.02500
C 	C 	0.33323 0.29970 0.30993 -0.13200
H 	H 	0.33410 0.24250 0.28310 0.06400
H 	H 	0.30650 0.34420 0.28140 0.07300
C 	C 	0.41286 0.33404 0.31758 0.11100
C 	C 	0.44491 0.34110 0.24069 -0.14600
H 	H 	0.45520 0.27950 0.22350 0.07100
H 	H 	0.49100 0.37400 0.24310 0.07600
C 	C 	0.34835 0.34480 0.14734 0.07600
H 	H 	0.33980 0.28180 0.14750 -0.03100
C 	C 	0.39528 0.47930 0.17224 -0.02300
H 	H 	0.42390 0.52560 0.19210 0.03100
C 	C 	0.34300 0.48920 0.12171 0.00400
H 	H 	0.32920 0.54450 0.10060 -0.00100
C 	C 	0.45900 0.26003 0.35623 -0.14200
H 	H 	0.44950 0.20100 0.33380 0.06800
H 	H 	0.44280 0.25600 0.40560 0.07600
C 	C 	0.58679 0.24150 0.30638 -0.02400
H 	H 	0.57560 0.20670 0.26610 0.03000
C 	C 	0.65372 0.26810 0.32817 0.00500
H 	H 	0.69740 0.25430 0.30500 0.00000
C 	C 	0.57672 0.32150 0.40504 0.07600
H 	H 	0.55660 0.35090 0.44470 -0.02100
C 	C 	0.41893 0.43010 0.35145 -0.13500
H 	H 	0.39900 0.47430 0.31780 0.07300
H 	H 	0.47040 0.44430 0.35730 0.07200
C 	C 	0.33650 0.51330 0.43323 0.08100
H 	H 	0.31970 0.55360 0.39820 -0.02400
C 	C 	0.39570 0.40150 0.48569 -0.01100
H 	H 	0.42640 0.35160 0.49390 0.02900
C 	C 	0.35480 0.44660 0.53506 -0.00000
H 	H 	0.35220 0.43240 0.58360 -0.00300
N 	N 	0.24815 0.21743 0.47250 -0.28600
N 	N 	0.29215 0.28387 0.37646 -0.10500
N 	N 	0.39786 0.38722 0.18862 -0.10600
N 	N 	0.31333 0.40435 0.10638 -0.29200
N 	N 	0.53816 0.27642 0.35579 -0.10600
N 	N 	0.64752 0.31909 0.39020 -0.28200
N 	N 	0.38265 0.44418 0.42099 -0.10200
N 	N 	0.31775 0.51703 0.50147 -0.28700
Zn	Zn	0.27371 0.62570 0.54842 1.17200
C 	C 	0.20239 0.71220 0.42115 0.08500
H 	H 	0.16830 0.66510 0.41660 -0.03000
C 	C 	0.29166 0.79660 0.45905 -0.00700
H 	H 	0.33050 0.81810 0.48650 0.00400
C 	C 	0.26484 0.83740 0.39966 -0.00500
H 	H 	0.28170 0.89140 0.37860 0.02500
C 	C 	0.16677 0.79970 0.30993 -0.13200
H 	H 	0.16590 0.74250 0.28310 0.06400
H 	H 	0.19350 0.84420 0.28140 0.07300
C 	C 	0.08714 0.83404 0.31758 0.11100
C 	C 	0.05509 0.84110 0.24069 -0.14600
H 	H 	0.04480 0.77950 0.22350 0.07100
H 	H 	0.00900 0.87400 0.24310 0.07500
C 	C 	0.15165 0.84480 0.14734 0.07600
H 	H 	0.16020 0.78180 0.14750 -0.03100
C 	C 	0.10472 0.97930 0.17224 -0.02300
H 	H 	0.07610 0.02560 0.19210 0.03100
C 	C 	0.15700 0.98920 0.12171 0.00500
H 	H 	0.17080 0.04450 0.10060 -0.00100
C 	C 	0.04100 0.76003 0.35623 -0.14200
H 	H 	0.05050 0.70100 0.33380 0.06800
H 	H 	0.05720 0.75600 0.40560 0.07600
C 	C 	0.91321 0.74150 0.30638 -0.02300
H 	H 	0.92440 0.70670 0.26610 0.03000
C 	C 	0.84628 0.76810 0.32817 0.00500
H 	H 	0.80260 0.75430 0.30500 0.00000
C 	C 	0.92328 0.82150 0.40504 0.07600
H 	H 	0.94340 0.85090 0.44470 -0.02100
C 	C 	0.08107 0.93010 0.35145 -0.13500
H 	H 	0.10100 0.97430 0.31780 0.07300
H 	H 	0.02960 0.94430 0.35730 0.07100
C 	C 	0.16350 0.01330 0.43323 0.08100
H 	H 	0.18030 0.05360 0.39820 -0.02400
C 	C 	0.10430 0.90150 0.48569 -0.01100
H 	H 	0.07360 0.85160 0.49390 0.02900
C 	C 	0.14520 0.94660 0.53506 -0.00000
H 	H 	0.14780 0.93240 0.58360 -0.00300
N 	N 	0.25185 0.71743 0.47250 -0.28600
N 	N 	0.20785 0.78387 0.37646 -0.10500
N 	N 	0.10214 0.88722 0.18862 -0.10600
N 	N 	0.18667 0.90435 0.10638 -0.29200
N 	N 	0.96184 0.77642 0.35579 -0.10600
N 	N 	0.85248 0.81909 0.39020 -0.28200
N 	N 	0.11735 0.94418 0.42099 -0.10200
N 	N 	0.18225 0.01703 0.50147 -0.28700
Zn	Zn	0.22629 0.37430 0.04842 1.17200
C 	C 	0.29761 0.28780 0.92115 0.08600
H 	H 	0.33170 0.33490 0.91660 -0.03000
C 	C 	0.20834 0.20340 0.95905 -0.00700
H 	H 	0.16950 0.18190 0.98650 0.00400
C 	C 	0.23516 0.16260 0.89966 -0.00500
H 	H 	0.21830 0.10860 0.87860 0.02500
C 	C 	0.33323 0.20030 0.80993 -0.13200
H 	H 	0.33410 0.25750 0.78310 0.06400
H 	H 	0.30650 0.15580 0.78140 0.07300
C 	C 	0.41286 0.16596 0.81758 0.11100
C 	C 	0.44491 0.15890 0.74069 -0.14600
H 	H 	0.45520 0.22050 0.72350 0.07100
H 	H 	0.49100 0.12600 0.74310 0.07600
C 	C 	0.34835 0.15520 0.64734 0.07600
H 	H 	0.33980 0.21820 0.64750 -0.03100
C 	C 	0.39528 0.02070 0.67224 -0.02300
H 	H 	0.42390 0.97440 0.69210 0.03100
C 	C 	0.34300 0.01080 0.62171 0.00400
H 	H 	0.32920 0.95550 0.60060 -0.00100
C 	C 	0.45900 0.23997 0.85623 -0.14200
H 	H 	0.44950 0.29900 0.83380 0.06800
H 	H 	0.44280 0.24400 0.90560 0.07600
C 	C 	0.58679 0.25850 0.80638 -0.02400
H 	H 	0.57560 0.29330 0.76610 0.03000
C 	C 	0.65372 0.23190 0.82817 0.00500
H 	H 	0.69740 0.24570 0.80500 0.00000
C 	C 	0.57672 0.17850 0.90504 0.07600
H 	H 	0.55660 0.14910 0.94470 -0.02100
C 	C 	0.41893 0.06990 0.85145 -0.13500
H 	H 	0.39900 0.02570 0.81780 0.07300
H 	H 	0.47040 0.05570 0.85730 0.07200
C 	C 	0.33650 0.98670 0.93323 0.08100
H 	H 	0.31970 0.94640 0.89820 -0.02500
C 	C 	0.39570 0.09850 0.98569 -0.01000
H 	H 	0.42640 0.14840 0.99390 0.02800
C 	C 	0.35480 0.05340 0.03506 -0.00200
H 	H 	0.35220 0.06760 0.08360 -0.00300
N 	N 	0.24815 0.28257 0.97250 -0.28500
N 	N 	0.29215 0.21613 0.87646 -0.10500
N 	N 	0.39786 0.11278 0.68862 -0.10600
N 	N 	0.31333 0.09565 0.60638 -0.29200
N 	N 	0.53816 0.22358 0.85579 -0.10600
N 	N 	0.64752 0.18091 0.89020 -0.28300
N 	N 	0.38265 0.05582 0.92099 -0.10200
N 	N 	0.31775 0.98297 0.00147 -0.28700
Zn	Zn	0.72629 0.12570 0.95158 1.17200
C 	C 	0.79761 0.21220 0.07885 0.08600
H 	H 	0.83170 0.16510 0.08340 -0.03000
C 	C 	0.70834 0.29660 0.04095 -0.00700
H 	H 	0.66950 0.31810 0.01350 0.00400
C 	C 	0.73516 0.33740 0.10034 -0.00500
H 	H 	0.71830 0.39140 0.12140 0.02500
C 	C 	0.83323 0.29970 0.19007 -0.13200
H 	H 	0.83410 0.24250 0.21690 0.06400
H 	H 	0.80650 0.34420 0.21860 0.07300
C 	C 	0.91286 0.33404 0.18242 0.11100
C 	C 	0.94491 0.34110 0.25931 -0.14600
H 	H 	0.95520 0.27950 0.27650 0.07100
H 	H 	0.99100 0.37400 0.25690 0.07600
C 	C 	0.84835 0.34480 0.35266 0.07600
H 	H 	0.83980 0.28180 0.35250 -0.03000
C 	C 	0.89528 0.47930 0.32776 -0.02300
H 	H 	0.92390 0.52560 0.30790 0.03200
C 	C 	0.84300 0.48920 0.37829 0.00400
H 	H 	0.82920 0.54450 0.39940 -0.00100
C 	C 	0.95900 0.26003 0.14377 -0.14100
H 	H 	0.94950 0.20100 0.16620 0.06800
H 	H 	0.94280 0.25600 0.09440 0.07600
C 	C 	0.08679 0.24150 0.19362 -0.02400
H 	H 	0.07560 0.20670 0.23390 0.03000
C 	C 	0.15372 0.26810 0.17183 0.00500
H 	H 	0.19740 0.25430 0.19500 0.00000
C 	C 	0.07672 0.32150 0.09496 0.07600
H 	H 	0.05660 0.35090 0.05530 -0.02200
C 	C 	0.91893 0.43010 0.14855 -0.13500
H 	H 	0.89900 0.47430 0.18220 0.07300
H 	H 	0.97040 0.44430 0.14270 0.07200
C 	C 	0.83650 0.51330 0.06677 0.08200
H 	H 	0.81970 0.55360 0.10180 -0.02500
C 	C 	0.89570 0.40150 0.01431 -0.00900
H 	H 	0.92640 0.35160 0.00610 0.02800
C 	C 	0.85480 0.44660 0.96494 -0.00300
H 	H 	0.85220 0.43240 0.91640 -0.00300
N 	N 	0.74815 0.21743 0.02750 -0.28600
N 	N 	0.79215 0.28387 0.12354 -0.10500
N 	N 	0.89786 0.38722 0.31138 -0.10600
N 	N 	0.81333 0.40435 0.39362 -0.29200
N 	N 	0.03816 0.27642 0.14421 -0.10700
N 	N 	0.14752 0.31909 0.10980 -0.28300
N 	N 	0.88265 0.44418 0.07901 -0.10300
N 	N 	0.81775 0.51703 0.99853 -0.28800
Zn	Zn	0.77371 0.87430 0.45158 1.17200
C 	C 	0.70239 0.78780 0.57885 0.08500
H 	H 	0.66830 0.83490 0.58340 -0.03000
C 	C 	0.79166 0.70340 0.54095 -0.00700
H 	H 	0.83050 0.68190 0.51350 0.00400
C 	C 	0.76484 0.66260 0.60034 -0.00500
H 	H 	0.78170 0.60860 0.62140 0.02500
C 	C 	0.66677 0.70030 0.69007 -0.13200
H 	H 	0.66590 0.75750 0.71690 0.06400
H 	H 	0.69350 0.65580 0.71860 0.07300
C 	C 	0.58714 0.66596 0.68242 0.11100
C 	C 	0.55509 0.65890 0.75931 -0.14600
H 	H 	0.54480 0.72050 0.77650 0.07100
H 	H 	0.50900 0.62600 0.75690 0.07600
C 	C 	0.65165 0.65520 0.85266 0.07600
H 	H 	0.66020 0.71820 0.85250 -0.03100
C 	C 	0.60472 0.52070 0.82776 -0.02300
H 	H 	0.57610 0.47440 0.80790 0.03100
C 	C 	0.65700 0.51080 0.87829 0.00400
H 	H 	0.67080 0.45550 0.89940 -0.00100
C 	C 	0.54100 0.73997 0.64377 -0.14200
H 	H 	0.55050 0.79900 0.66620 0.06800
H 	H 	0.55720 0.74400 0.59440 0.07600
C 	C 	0.41321 0.75850 0.69362 -0.02400
H 	H 	0.42440 0.79330 0.73390 0.03000
C 	C 	0.34628 0.73190 0.67183 0.00500
H 	H 	0.30260 0.74570 0.69500 0.00000
C 	C 	0.42328 0.67850 0.59496 0.07600
H 	H 	0.44340 0.64910 0.55530 -0.02100
C 	C 	0.58107 0.56990 0.64855 -0.13500
H 	H 	0.60100 0.52570 0.68220 0.07300
H 	H 	0.52960 0.55570 0.64270 0.07200
C 	C 	0.66350 0.48670 0.56677 0.08100
H 	H 	0.68030 0.44640 0.60180 -0.02400
C 	C 	0.60430 0.59850 0.51431 -0.01100
H 	H 	0.57360 0.64840 0.50610 0.02900
C 	C 	0.64520 0.55340 0.46494 -0.00000
H 	H 	0.64780 0.56760 0.41640 -0.00300
N 	N 	0.75185 0.78257 0.52750 -0.28600
N 	N 	0.70785 0.71613 0.62354 -0.10500
N 	N 	0.60214 0.61278 0.81138 -0.10600
N 	N 	0.68667 0.59565 0.89362 -0.29200
N 	N 	0.46184 0.72358 0.64421 -0.10600
N 	N 	0.35248 0.68091 0.60980 -0.28200
N 	N 	0.61735 0.55582 0.57901 -0.10200
N 	N 	0.68225 0.48297 0.49853 -0.28700
