data_crystal

_cell_length_a 44.59930
_cell_length_b 44.59930
_cell_length_c 44.59930
_cell_angle_alpha 90.00000
_cell_angle_beta  90.00000
_cell_angle_gamma 90.00000

_symmetry_space_group_name_	'P 1'
_symmetry_space_group_name_H-M	'P 1'

loop_
_symmetry_equiv_pos_as_xyz
  x,y,z

loop_
_atom_site_label
_atom_site_type_symbol
_atom_site_fract_x
_atom_site_fract_y
_atom_site_fract_z
_atom_site_charge
O 	O 	0.15135 0.10802 0.03108 -0.40000
O 	O 	0.18690 0.14347 0.03101 -0.39600
C 	C 	0.21623 0.11636 0.07836 -0.00200
H 	H 	0.22530 0.13270 0.06920 0.07100
C 	C 	0.19003 0.10476 0.06677 -0.07800
C 	C 	0.17511 0.12013 0.04084 0.36000
N 	N 	0.27022 0.10595 0.14066 -0.08100
N 	N 	0.29273 0.12504 0.14520 -0.13700
O 	O 	0.15135 0.60802 0.53108 -0.40000
O 	O 	0.18690 0.64347 0.53101 -0.39600
C 	C 	0.21623 0.61636 0.57836 -0.00400
H 	H 	0.22530 0.63270 0.56920 0.07100
C 	C 	0.19003 0.60476 0.56677 -0.07800
C 	C 	0.17511 0.62013 0.54084 0.35900
N 	N 	0.27022 0.60595 0.64066 -0.08100
N 	N 	0.29273 0.62504 0.64520 -0.13700
O 	O 	0.65135 0.10802 0.53108 -0.40000
O 	O 	0.68690 0.14347 0.53101 -0.39600
C 	C 	0.71623 0.11636 0.57836 -0.00400
H 	H 	0.72530 0.13270 0.56920 0.07100
C 	C 	0.69003 0.10476 0.56677 -0.07800
C 	C 	0.67511 0.12013 0.54084 0.35900
N 	N 	0.77022 0.10595 0.64066 -0.08100
N 	N 	0.79273 0.12504 0.64520 -0.13700
O 	O 	0.65135 0.60802 0.03108 -0.40100
O 	O 	0.68690 0.64347 0.03101 -0.39700
C 	C 	0.71623 0.61636 0.07836 -0.00400
H 	H 	0.72530 0.63270 0.06920 0.07100
C 	C 	0.69003 0.60476 0.06677 -0.07800
C 	C 	0.67511 0.62013 0.04084 0.35900
N 	N 	0.77022 0.60595 0.14066 -0.08100
N 	N 	0.79273 0.62504 0.14520 -0.13700
O 	O 	0.84865 0.89198 0.03108 -0.40000
O 	O 	0.81310 0.85653 0.03101 -0.39700
C 	C 	0.78377 0.88364 0.07836 -0.00400
H 	H 	0.77470 0.86730 0.06920 0.07100
C 	C 	0.80997 0.89524 0.06677 -0.07800
C 	C 	0.82489 0.87987 0.04084 0.35900
N 	N 	0.72978 0.89405 0.14066 -0.08000
N 	N 	0.70727 0.87496 0.14520 -0.13700
O 	O 	0.84865 0.39198 0.53108 -0.40000
O 	O 	0.81310 0.35653 0.53101 -0.39600
C 	C 	0.78377 0.38364 0.57836 -0.00400
H 	H 	0.77470 0.36730 0.56920 0.07100
C 	C 	0.80997 0.39524 0.56677 -0.07700
C 	C 	0.82489 0.37987 0.54084 0.35900
N 	N 	0.72978 0.39405 0.64066 -0.08100
N 	N 	0.70727 0.37496 0.64520 -0.13700
O 	O 	0.34865 0.89198 0.53108 -0.39900
O 	O 	0.31310 0.85653 0.53101 -0.39600
C 	C 	0.28377 0.88364 0.57836 -0.00400
H 	H 	0.27470 0.86730 0.56920 0.07100
C 	C 	0.30997 0.89524 0.56677 -0.07700
C 	C 	0.32489 0.87987 0.54084 0.35900
N 	N 	0.22978 0.89405 0.64066 -0.08000
N 	N 	0.20727 0.87496 0.64520 -0.13700
O 	O 	0.34865 0.39198 0.03108 -0.40100
O 	O 	0.31310 0.35653 0.03101 -0.39700
C 	C 	0.28377 0.38364 0.07836 -0.00400
H 	H 	0.27470 0.36730 0.06920 0.07100
C 	C 	0.30997 0.39524 0.06677 -0.07800
C 	C 	0.32489 0.37987 0.04084 0.35900
N 	N 	0.22978 0.39405 0.14066 -0.08100
N 	N 	0.20727 0.37496 0.14520 -0.13700
O 	O 	0.84865 0.10802 0.96892 -0.39800
O 	O 	0.81310 0.14347 0.96899 -0.39400
C 	C 	0.78377 0.11636 0.92164 -0.00400
H 	H 	0.77470 0.13270 0.93080 0.07100
C 	C 	0.80997 0.10476 0.93323 -0.07700
C 	C 	0.82489 0.12013 0.95916 0.35800
N 	N 	0.72978 0.10595 0.85934 -0.08100
N 	N 	0.70727 0.12504 0.85480 -0.13700
O 	O 	0.84865 0.60802 0.46892 -0.40000
O 	O 	0.81310 0.64347 0.46899 -0.39600
C 	C 	0.78377 0.61636 0.42164 -0.00400
H 	H 	0.77470 0.63270 0.43080 0.07100
C 	C 	0.80997 0.60476 0.43323 -0.07800
C 	C 	0.82489 0.62013 0.45916 0.35900
N 	N 	0.72978 0.60595 0.35934 -0.08100
N 	N 	0.70727 0.62504 0.35480 -0.13700
O 	O 	0.34865 0.10802 0.46892 -0.40000
O 	O 	0.31310 0.14347 0.46899 -0.39600
C 	C 	0.28377 0.11636 0.42164 -0.00400
H 	H 	0.27470 0.13270 0.43080 0.07100
C 	C 	0.30997 0.10476 0.43323 -0.07800
C 	C 	0.32489 0.12013 0.45916 0.35900
N 	N 	0.22978 0.10595 0.35934 -0.08100
N 	N 	0.20727 0.12504 0.35480 -0.13700
O 	O 	0.34865 0.60802 0.96892 -0.39800
O 	O 	0.31310 0.64347 0.96899 -0.39400
C 	C 	0.28377 0.61636 0.92164 -0.00400
H 	H 	0.27470 0.63270 0.93080 0.07200
C 	C 	0.30997 0.60476 0.93323 -0.07700
C 	C 	0.32489 0.62013 0.95916 0.35800
N 	N 	0.22978 0.60595 0.85934 -0.08100
N 	N 	0.20727 0.62504 0.85480 -0.13700
O 	O 	0.15135 0.89198 0.96892 -0.39700
O 	O 	0.18690 0.85653 0.96899 -0.39400
C 	C 	0.21623 0.88364 0.92164 -0.00400
H 	H 	0.22530 0.86730 0.93080 0.07200
C 	C 	0.19003 0.89524 0.93323 -0.07600
C 	C 	0.17511 0.87987 0.95916 0.35800
N 	N 	0.27022 0.89405 0.85934 -0.08000
N 	N 	0.29273 0.87496 0.85480 -0.13700
O 	O 	0.15135 0.39198 0.46892 -0.40000
O 	O 	0.18690 0.35653 0.46899 -0.39600
C 	C 	0.21623 0.38364 0.42164 -0.00400
H 	H 	0.22530 0.36730 0.43080 0.07100
C 	C 	0.19003 0.39524 0.43323 -0.07800
C 	C 	0.17511 0.37987 0.45916 0.35900
N 	N 	0.27022 0.39405 0.35934 -0.08100
N 	N 	0.29273 0.37496 0.35480 -0.13700
O 	O 	0.65135 0.89198 0.46892 -0.39900
O 	O 	0.68690 0.85653 0.46899 -0.39600
C 	C 	0.71623 0.88364 0.42164 -0.00400
H 	H 	0.72530 0.86730 0.43080 0.07100
C 	C 	0.69003 0.89524 0.43323 -0.07700
C 	C 	0.67511 0.87987 0.45916 0.35900
N 	N 	0.77022 0.89405 0.35934 -0.08000
N 	N 	0.79273 0.87496 0.35480 -0.13700
O 	O 	0.65135 0.39198 0.96892 -0.39800
O 	O 	0.68690 0.35653 0.96899 -0.39400
C 	C 	0.71623 0.38364 0.92164 -0.00400
H 	H 	0.72530 0.36730 0.93080 0.07200
C 	C 	0.69003 0.39524 0.93323 -0.07700
C 	C 	0.67511 0.37987 0.95916 0.35800
N 	N 	0.77022 0.39405 0.85934 -0.08100
N 	N 	0.79273 0.37496 0.85480 -0.13700
O 	O 	0.03108 0.15135 0.10802 -0.40100
O 	O 	0.03101 0.18690 0.14347 -0.39700
C 	C 	0.07836 0.21623 0.11636 -0.00300
H 	H 	0.06920 0.22530 0.13270 0.07000
C 	C 	0.06677 0.19003 0.10476 -0.07900
C 	C 	0.04084 0.17511 0.12013 0.35900
N 	N 	0.14066 0.27022 0.10595 -0.08100
N 	N 	0.14520 0.29273 0.12504 -0.13700
O 	O 	0.03108 0.65135 0.60802 -0.40100
O 	O 	0.03101 0.68690 0.64347 -0.39700
C 	C 	0.07836 0.71623 0.61636 -0.00400
H 	H 	0.06920 0.72530 0.63270 0.07100
C 	C 	0.06677 0.69003 0.60476 -0.07800
C 	C 	0.04084 0.67511 0.62013 0.35900
N 	N 	0.14066 0.77022 0.60595 -0.08100
N 	N 	0.14520 0.79273 0.62504 -0.13700
O 	O 	0.53108 0.15135 0.60802 -0.40000
O 	O 	0.53101 0.18690 0.64347 -0.39600
C 	C 	0.57836 0.21623 0.61636 -0.00400
H 	H 	0.56920 0.22530 0.63270 0.07100
C 	C 	0.56677 0.19003 0.60476 -0.07800
C 	C 	0.54084 0.17511 0.62013 0.35900
N 	N 	0.64066 0.27022 0.60595 -0.08100
N 	N 	0.64520 0.29273 0.62504 -0.13700
O 	O 	0.53108 0.65135 0.10802 -0.40000
O 	O 	0.53101 0.68690 0.14347 -0.39600
C 	C 	0.57836 0.71623 0.11636 -0.00400
H 	H 	0.56920 0.72530 0.13270 0.07100
C 	C 	0.56677 0.69003 0.10476 -0.07800
C 	C 	0.54084 0.67511 0.12013 0.35900
N 	N 	0.64066 0.77022 0.10595 -0.08100
N 	N 	0.64520 0.79273 0.12504 -0.13700
O 	O 	0.03108 0.84865 0.89198 -0.40000
O 	O 	0.03101 0.81310 0.85653 -0.39700
C 	C 	0.07836 0.78377 0.88364 -0.00400
H 	H 	0.06920 0.77470 0.86730 0.07100
C 	C 	0.06677 0.80997 0.89524 -0.07800
C 	C 	0.04084 0.82489 0.87987 0.35900
N 	N 	0.14066 0.72978 0.89405 -0.08000
N 	N 	0.14520 0.70727 0.87496 -0.13700
O 	O 	0.03108 0.34865 0.39198 -0.40100
O 	O 	0.03101 0.31310 0.35653 -0.39700
C 	C 	0.07836 0.28377 0.38364 -0.00400
H 	H 	0.06920 0.27470 0.36730 0.07100
C 	C 	0.06677 0.30997 0.39524 -0.07800
C 	C 	0.04084 0.32489 0.37987 0.35900
N 	N 	0.14066 0.22978 0.39405 -0.08100
N 	N 	0.14520 0.20727 0.37496 -0.13700
O 	O 	0.53108 0.84865 0.39198 -0.40000
O 	O 	0.53101 0.81310 0.35653 -0.39600
C 	C 	0.57836 0.78377 0.38364 -0.00400
H 	H 	0.56920 0.77470 0.36730 0.07100
C 	C 	0.56677 0.80997 0.39524 -0.07700
C 	C 	0.54084 0.82489 0.37987 0.35900
N 	N 	0.64066 0.72978 0.39405 -0.08100
N 	N 	0.64520 0.70727 0.37496 -0.13700
O 	O 	0.53108 0.34865 0.89198 -0.39900
O 	O 	0.53101 0.31310 0.85653 -0.39600
C 	C 	0.57836 0.28377 0.88364 -0.00400
H 	H 	0.56920 0.27470 0.86730 0.07100
C 	C 	0.56677 0.30997 0.89524 -0.07700
C 	C 	0.54084 0.32489 0.87987 0.35900
N 	N 	0.64066 0.22978 0.89405 -0.08000
N 	N 	0.64520 0.20727 0.87496 -0.13700
O 	O 	0.96892 0.84865 0.10802 -0.39800
O 	O 	0.96899 0.81310 0.14347 -0.39400
C 	C 	0.92164 0.78377 0.11636 -0.00400
H 	H 	0.93080 0.77470 0.13270 0.07100
C 	C 	0.93323 0.80997 0.10476 -0.07700
C 	C 	0.95916 0.82489 0.12013 0.35800
N 	N 	0.85934 0.72978 0.10595 -0.08100
N 	N 	0.85480 0.70727 0.12504 -0.13700
O 	O 	0.96892 0.34865 0.60802 -0.39800
O 	O 	0.96899 0.31310 0.64347 -0.39400
C 	C 	0.92164 0.28377 0.61636 -0.00400
H 	H 	0.93080 0.27470 0.63270 0.07200
C 	C 	0.93323 0.30997 0.60476 -0.07700
C 	C 	0.95916 0.32489 0.62013 0.35800
N 	N 	0.85934 0.22978 0.60595 -0.08100
N 	N 	0.85480 0.20727 0.62504 -0.13700
O 	O 	0.46892 0.84865 0.60802 -0.40000
O 	O 	0.46899 0.81310 0.64347 -0.39600
C 	C 	0.42164 0.78377 0.61636 -0.00400
H 	H 	0.43080 0.77470 0.63270 0.07100
C 	C 	0.43323 0.80997 0.60476 -0.07800
C 	C 	0.45916 0.82489 0.62013 0.35900
N 	N 	0.35934 0.72978 0.60595 -0.08100
N 	N 	0.35480 0.70727 0.62504 -0.13700
O 	O 	0.46892 0.34865 0.10802 -0.40000
O 	O 	0.46899 0.31310 0.14347 -0.39600
C 	C 	0.42164 0.28377 0.11636 -0.00400
H 	H 	0.43080 0.27470 0.13270 0.07100
C 	C 	0.43323 0.30997 0.10476 -0.07800
C 	C 	0.45916 0.32489 0.12013 0.35900
N 	N 	0.35934 0.22978 0.10595 -0.08100
N 	N 	0.35480 0.20727 0.12504 -0.13700
O 	O 	0.96892 0.15135 0.89198 -0.39700
O 	O 	0.96899 0.18690 0.85653 -0.39400
C 	C 	0.92164 0.21623 0.88364 -0.00400
H 	H 	0.93080 0.22530 0.86730 0.07200
C 	C 	0.93323 0.19003 0.89524 -0.07600
C 	C 	0.95916 0.17511 0.87987 0.35800
N 	N 	0.85934 0.27022 0.89405 -0.08000
N 	N 	0.85480 0.29273 0.87496 -0.13700
O 	O 	0.96892 0.65135 0.39198 -0.39800
O 	O 	0.96899 0.68690 0.35653 -0.39400
C 	C 	0.92164 0.71623 0.38364 -0.00400
H 	H 	0.93080 0.72530 0.36730 0.07200
C 	C 	0.93323 0.69003 0.39524 -0.07700
C 	C 	0.95916 0.67511 0.37987 0.35800
N 	N 	0.85934 0.77022 0.39405 -0.08100
N 	N 	0.85480 0.79273 0.37496 -0.13700
O 	O 	0.46892 0.15135 0.39198 -0.40000
O 	O 	0.46899 0.18690 0.35653 -0.39600
C 	C 	0.42164 0.21623 0.38364 -0.00400
H 	H 	0.43080 0.22530 0.36730 0.07100
C 	C 	0.43323 0.19003 0.39524 -0.07800
C 	C 	0.45916 0.17511 0.37987 0.35900
N 	N 	0.35934 0.27022 0.39405 -0.08100
N 	N 	0.35480 0.29273 0.37496 -0.13700
O 	O 	0.46892 0.65135 0.89198 -0.39900
O 	O 	0.46899 0.68690 0.85653 -0.39600
C 	C 	0.42164 0.71623 0.88364 -0.00400
H 	H 	0.43080 0.72530 0.86730 0.07100
C 	C 	0.43323 0.69003 0.89524 -0.07700
C 	C 	0.45916 0.67511 0.87987 0.35900
N 	N 	0.35934 0.77022 0.89405 -0.08000
N 	N 	0.35480 0.79273 0.87496 -0.13700
O 	O 	0.10802 0.03108 0.15135 -0.40100
O 	O 	0.14347 0.03101 0.18690 -0.39700
C 	C 	0.11636 0.07836 0.21623 -0.00300
H 	H 	0.13270 0.06920 0.22530 0.07000
C 	C 	0.10476 0.06677 0.19003 -0.07900
C 	C 	0.12013 0.04084 0.17511 0.35900
N 	N 	0.10595 0.14066 0.27022 -0.08100
N 	N 	0.12504 0.14520 0.29273 -0.13700
O 	O 	0.10802 0.53108 0.65135 -0.40000
O 	O 	0.14347 0.53101 0.68690 -0.39600
C 	C 	0.11636 0.57836 0.71623 -0.00400
H 	H 	0.13270 0.56920 0.72530 0.07100
C 	C 	0.10476 0.56677 0.69003 -0.07800
C 	C 	0.12013 0.54084 0.67511 0.35900
N 	N 	0.10595 0.64066 0.77022 -0.08100
N 	N 	0.12504 0.64520 0.79273 -0.13700
O 	O 	0.60802 0.03108 0.65135 -0.40100
O 	O 	0.64347 0.03101 0.68690 -0.39700
C 	C 	0.61636 0.07836 0.71623 -0.00400
H 	H 	0.63270 0.06920 0.72530 0.07100
C 	C 	0.60476 0.06677 0.69003 -0.07800
C 	C 	0.62013 0.04084 0.67511 0.35900
N 	N 	0.60595 0.14066 0.77022 -0.08100
N 	N 	0.62504 0.14520 0.79273 -0.13700
O 	O 	0.60802 0.53108 0.15135 -0.40000
O 	O 	0.64347 0.53101 0.18690 -0.39600
C 	C 	0.61636 0.57836 0.21623 -0.00400
H 	H 	0.63270 0.56920 0.22530 0.07100
C 	C 	0.60476 0.56677 0.19003 -0.07800
C 	C 	0.62013 0.54084 0.17511 0.35900
N 	N 	0.60595 0.64066 0.27022 -0.08100
N 	N 	0.62504 0.64520 0.29273 -0.13700
O 	O 	0.89198 0.03108 0.84865 -0.40000
O 	O 	0.85653 0.03101 0.81310 -0.39700
C 	C 	0.88364 0.07836 0.78377 -0.00400
H 	H 	0.86730 0.06920 0.77470 0.07100
C 	C 	0.89524 0.06677 0.80997 -0.07800
C 	C 	0.87987 0.04084 0.82489 0.35900
N 	N 	0.89405 0.14066 0.72978 -0.08000
N 	N 	0.87496 0.14520 0.70727 -0.13700
O 	O 	0.89198 0.53108 0.34865 -0.39900
O 	O 	0.85653 0.53101 0.31310 -0.39600
C 	C 	0.88364 0.57836 0.28377 -0.00400
H 	H 	0.86730 0.56920 0.27470 0.07100
C 	C 	0.89524 0.56677 0.30997 -0.07700
C 	C 	0.87987 0.54084 0.32489 0.35900
N 	N 	0.89405 0.64066 0.22978 -0.08000
N 	N 	0.87496 0.64520 0.20727 -0.13700
O 	O 	0.39198 0.03108 0.34865 -0.40100
O 	O 	0.35653 0.03101 0.31310 -0.39700
C 	C 	0.38364 0.07836 0.28377 -0.00400
H 	H 	0.36730 0.06920 0.27470 0.07100
C 	C 	0.39524 0.06677 0.30997 -0.07800
C 	C 	0.37987 0.04084 0.32489 0.35900
N 	N 	0.39405 0.14066 0.22978 -0.08100
N 	N 	0.37496 0.14520 0.20727 -0.13700
O 	O 	0.39198 0.53108 0.84865 -0.40000
O 	O 	0.35653 0.53101 0.81310 -0.39600
C 	C 	0.38364 0.57836 0.78377 -0.00400
H 	H 	0.36730 0.56920 0.77470 0.07100
C 	C 	0.39524 0.56677 0.80997 -0.07700
C 	C 	0.37987 0.54084 0.82489 0.35900
N 	N 	0.39405 0.64066 0.72978 -0.08100
N 	N 	0.37496 0.64520 0.70727 -0.13700
O 	O 	0.10802 0.96892 0.84865 -0.39800
O 	O 	0.14347 0.96899 0.81310 -0.39400
C 	C 	0.11636 0.92164 0.78377 -0.00400
H 	H 	0.13270 0.93080 0.77470 0.07100
C 	C 	0.10476 0.93323 0.80997 -0.07700
C 	C 	0.12013 0.95916 0.82489 0.35800
N 	N 	0.10595 0.85934 0.72978 -0.08100
N 	N 	0.12504 0.85480 0.70727 -0.13700
O 	O 	0.10802 0.46892 0.34865 -0.40000
O 	O 	0.14347 0.46899 0.31310 -0.39600
C 	C 	0.11636 0.42164 0.28377 -0.00400
H 	H 	0.13270 0.43080 0.27470 0.07100
C 	C 	0.10476 0.43323 0.30997 -0.07800
C 	C 	0.12013 0.45916 0.32489 0.35900
N 	N 	0.10595 0.35934 0.22978 -0.08100
N 	N 	0.12504 0.35480 0.20727 -0.13700
O 	O 	0.60802 0.96892 0.34865 -0.39800
O 	O 	0.64347 0.96899 0.31310 -0.39400
C 	C 	0.61636 0.92164 0.28377 -0.00400
H 	H 	0.63270 0.93080 0.27470 0.07200
C 	C 	0.60476 0.93323 0.30997 -0.07700
C 	C 	0.62013 0.95916 0.32489 0.35800
N 	N 	0.60595 0.85934 0.22978 -0.08100
N 	N 	0.62504 0.85480 0.20727 -0.13700
O 	O 	0.60802 0.46892 0.84865 -0.40000
O 	O 	0.64347 0.46899 0.81310 -0.39600
C 	C 	0.61636 0.42164 0.78377 -0.00400
H 	H 	0.63270 0.43080 0.77470 0.07100
C 	C 	0.60476 0.43323 0.80997 -0.07800
C 	C 	0.62013 0.45916 0.82489 0.35900
N 	N 	0.60595 0.35934 0.72978 -0.08100
N 	N 	0.62504 0.35480 0.70727 -0.13700
O 	O 	0.89198 0.96892 0.15135 -0.39700
O 	O 	0.85653 0.96899 0.18690 -0.39400
C 	C 	0.88364 0.92164 0.21623 -0.00400
H 	H 	0.86730 0.93080 0.22530 0.07200
C 	C 	0.89524 0.93323 0.19003 -0.07600
C 	C 	0.87987 0.95916 0.17511 0.35800
N 	N 	0.89405 0.85934 0.27022 -0.08000
N 	N 	0.87496 0.85480 0.29273 -0.13700
O 	O 	0.89198 0.46892 0.65135 -0.39900
O 	O 	0.85653 0.46899 0.68690 -0.39600
C 	C 	0.88364 0.42164 0.71623 -0.00400
H 	H 	0.86730 0.43080 0.72530 0.07100
C 	C 	0.89524 0.43323 0.69003 -0.07700
C 	C 	0.87987 0.45916 0.67511 0.35900
N 	N 	0.89405 0.35934 0.77022 -0.08000
N 	N 	0.87496 0.35480 0.79273 -0.13700
O 	O 	0.39198 0.96892 0.65135 -0.39800
O 	O 	0.35653 0.96899 0.68690 -0.39400
C 	C 	0.38364 0.92164 0.71623 -0.00400
H 	H 	0.36730 0.93080 0.72530 0.07200
C 	C 	0.39524 0.93323 0.69003 -0.07700
C 	C 	0.37987 0.95916 0.67511 0.35800
N 	N 	0.39405 0.85934 0.77022 -0.08100
N 	N 	0.37496 0.85480 0.79273 -0.13700
O 	O 	0.39198 0.46892 0.15135 -0.40000
O 	O 	0.35653 0.46899 0.18690 -0.39600
C 	C 	0.38364 0.42164 0.21623 -0.00400
H 	H 	0.36730 0.43080 0.22530 0.07100
C 	C 	0.39524 0.43323 0.19003 -0.07800
C 	C 	0.37987 0.45916 0.17511 0.35900
N 	N 	0.39405 0.35934 0.27022 -0.08100
N 	N 	0.37496 0.35480 0.29273 -0.13700
O 	O 	0.10802 0.15135 0.96892 -0.39800
O 	O 	0.14347 0.18690 0.96899 -0.39400
C 	C 	0.11636 0.21623 0.92164 -0.00400
H 	H 	0.13270 0.22530 0.93080 0.07100
C 	C 	0.10476 0.19003 0.93323 -0.07700
C 	C 	0.12013 0.17511 0.95916 0.35800
N 	N 	0.10595 0.27022 0.85934 -0.08100
N 	N 	0.12504 0.29273 0.85480 -0.13700
O 	O 	0.10802 0.65135 0.46892 -0.40000
O 	O 	0.14347 0.68690 0.46899 -0.39600
C 	C 	0.11636 0.71623 0.42164 -0.00400
H 	H 	0.13270 0.72530 0.43080 0.07100
C 	C 	0.10476 0.69003 0.43323 -0.07800
C 	C 	0.12013 0.67511 0.45916 0.35900
N 	N 	0.10595 0.77022 0.35934 -0.08100
N 	N 	0.12504 0.79273 0.35480 -0.13700
O 	O 	0.60802 0.15135 0.46892 -0.40000
O 	O 	0.64347 0.18690 0.46899 -0.39600
C 	C 	0.61636 0.21623 0.42164 -0.00400
H 	H 	0.63270 0.22530 0.43080 0.07100
C 	C 	0.60476 0.19003 0.43323 -0.07800
C 	C 	0.62013 0.17511 0.45916 0.35900
N 	N 	0.60595 0.27022 0.35934 -0.08100
N 	N 	0.62504 0.29273 0.35480 -0.13700
O 	O 	0.60802 0.65135 0.96892 -0.39800
O 	O 	0.64347 0.68690 0.96899 -0.39400
C 	C 	0.61636 0.71623 0.92164 -0.00400
H 	H 	0.63270 0.72530 0.93080 0.07200
C 	C 	0.60476 0.69003 0.93323 -0.07700
C 	C 	0.62013 0.67511 0.95916 0.35800
N 	N 	0.60595 0.77022 0.85934 -0.08100
N 	N 	0.62504 0.79273 0.85480 -0.13700
O 	O 	0.89198 0.84865 0.96892 -0.39700
O 	O 	0.85653 0.81310 0.96899 -0.39400
C 	C 	0.88364 0.78377 0.92164 -0.00500
H 	H 	0.86730 0.77470 0.93080 0.07200
C 	C 	0.89524 0.80997 0.93323 -0.07600
C 	C 	0.87987 0.82489 0.95916 0.35800
N 	N 	0.89405 0.72978 0.85934 -0.08000
N 	N 	0.87496 0.70727 0.85480 -0.13700
O 	O 	0.89198 0.34865 0.46892 -0.39900
O 	O 	0.85653 0.31310 0.46899 -0.39600
C 	C 	0.88364 0.28377 0.42164 -0.00400
H 	H 	0.86730 0.27470 0.43080 0.07100
C 	C 	0.89524 0.30997 0.43323 -0.07700
C 	C 	0.87987 0.32489 0.45916 0.35900
N 	N 	0.89405 0.22978 0.35934 -0.08000
N 	N 	0.87496 0.20727 0.35480 -0.13700
O 	O 	0.39198 0.84865 0.46892 -0.40000
O 	O 	0.35653 0.81310 0.46899 -0.39600
C 	C 	0.38364 0.78377 0.42164 -0.00400
H 	H 	0.36730 0.77470 0.43080 0.07100
C 	C 	0.39524 0.80997 0.43323 -0.07700
C 	C 	0.37987 0.82489 0.45916 0.35900
N 	N 	0.39405 0.72978 0.35934 -0.08100
N 	N 	0.37496 0.70727 0.35480 -0.13700
O 	O 	0.39198 0.34865 0.96892 -0.39800
O 	O 	0.35653 0.31310 0.96899 -0.39400
C 	C 	0.38364 0.28377 0.92164 -0.00400
H 	H 	0.36730 0.27470 0.93080 0.07200
C 	C 	0.39524 0.30997 0.93323 -0.07700
C 	C 	0.37987 0.32489 0.95916 0.35800
N 	N 	0.39405 0.22978 0.85934 -0.08100
N 	N 	0.37496 0.20727 0.85480 -0.13700
O 	O 	0.10802 0.84865 0.03108 -0.40100
O 	O 	0.14347 0.81310 0.03101 -0.39700
C 	C 	0.11636 0.78377 0.07836 -0.00300
H 	H 	0.13270 0.77470 0.06920 0.07000
C 	C 	0.10476 0.80997 0.06677 -0.07900
C 	C 	0.12013 0.82489 0.04084 0.35900
N 	N 	0.10595 0.72978 0.14066 -0.08100
N 	N 	0.12504 0.70727 0.14520 -0.13700
O 	O 	0.10802 0.34865 0.53108 -0.40000
O 	O 	0.14347 0.31310 0.53101 -0.39600
C 	C 	0.11636 0.28377 0.57836 -0.00400
H 	H 	0.13270 0.27470 0.56920 0.07100
C 	C 	0.10476 0.30997 0.56677 -0.07800
C 	C 	0.12013 0.32489 0.54084 0.35900
N 	N 	0.10595 0.22978 0.64066 -0.08100
N 	N 	0.12504 0.20727 0.64520 -0.13700
O 	O 	0.60802 0.84865 0.53108 -0.40000
O 	O 	0.64347 0.81310 0.53101 -0.39600
C 	C 	0.61636 0.78377 0.57836 -0.00400
H 	H 	0.63270 0.77470 0.56920 0.07100
C 	C 	0.60476 0.80997 0.56677 -0.07800
C 	C 	0.62013 0.82489 0.54084 0.35900
N 	N 	0.60595 0.72978 0.64066 -0.08100
N 	N 	0.62504 0.70727 0.64520 -0.13700
O 	O 	0.60802 0.34865 0.03108 -0.40100
O 	O 	0.64347 0.31310 0.03101 -0.39700
C 	C 	0.61636 0.28377 0.07836 -0.00400
H 	H 	0.63270 0.27470 0.06920 0.07100
C 	C 	0.60476 0.30997 0.06677 -0.07800
C 	C 	0.62013 0.32489 0.04084 0.35900
N 	N 	0.60595 0.22978 0.14066 -0.08100
N 	N 	0.62504 0.20727 0.14520 -0.13700
O 	O 	0.89198 0.15135 0.03108 -0.40100
O 	O 	0.85653 0.18690 0.03101 -0.39700
C 	C 	0.88364 0.21623 0.07836 -0.00400
H 	H 	0.86730 0.22530 0.06920 0.07100
C 	C 	0.89524 0.19003 0.06677 -0.07800
C 	C 	0.87987 0.17511 0.04084 0.35900
N 	N 	0.89405 0.27022 0.14066 -0.08000
N 	N 	0.87496 0.29273 0.14520 -0.13700
O 	O 	0.89198 0.65135 0.53108 -0.39900
O 	O 	0.85653 0.68690 0.53101 -0.39600
C 	C 	0.88364 0.71623 0.57836 -0.00400
H 	H 	0.86730 0.72530 0.56920 0.07100
C 	C 	0.89524 0.69003 0.56677 -0.07700
C 	C 	0.87987 0.67511 0.54084 0.35900
N 	N 	0.89405 0.77022 0.64066 -0.08000
N 	N 	0.87496 0.79273 0.64520 -0.13700
O 	O 	0.39198 0.15135 0.53108 -0.40000
O 	O 	0.35653 0.18690 0.53101 -0.39600
C 	C 	0.38364 0.21623 0.57836 -0.00400
H 	H 	0.36730 0.22530 0.56920 0.07100
C 	C 	0.39524 0.19003 0.56677 -0.07800
C 	C 	0.37987 0.17511 0.54084 0.35900
N 	N 	0.39405 0.27022 0.64066 -0.08100
N 	N 	0.37496 0.29273 0.64520 -0.13700
O 	O 	0.39198 0.65135 0.03108 -0.40100
O 	O 	0.35653 0.68690 0.03101 -0.39700
C 	C 	0.38364 0.71623 0.07836 -0.00400
H 	H 	0.36730 0.72530 0.06920 0.07100
C 	C 	0.39524 0.69003 0.06677 -0.07800
C 	C 	0.37987 0.67511 0.04084 0.35900
N 	N 	0.39405 0.77022 0.14066 -0.08100
N 	N 	0.37496 0.79273 0.14520 -0.13700
O 	O 	0.15135 0.03108 0.89198 -0.40100
O 	O 	0.18690 0.03101 0.85653 -0.39700
C 	C 	0.21623 0.07836 0.88364 -0.00400
H 	H 	0.22530 0.06920 0.86730 0.07100
C 	C 	0.19003 0.06677 0.89524 -0.07800
C 	C 	0.17511 0.04084 0.87987 0.35900
N 	N 	0.27022 0.14066 0.89405 -0.08000
N 	N 	0.29273 0.14520 0.87496 -0.13700
O 	O 	0.15135 0.53108 0.39198 -0.40000
O 	O 	0.18690 0.53101 0.35653 -0.39600
C 	C 	0.21623 0.57836 0.38364 -0.00400
H 	H 	0.22530 0.56920 0.36730 0.07100
C 	C 	0.19003 0.56677 0.39524 -0.07800
C 	C 	0.17511 0.54084 0.37987 0.35900
N 	N 	0.27022 0.64066 0.39405 -0.08100
N 	N 	0.29273 0.64520 0.37496 -0.13700
O 	O 	0.65135 0.03108 0.39198 -0.40100
O 	O 	0.68690 0.03101 0.35653 -0.39700
C 	C 	0.71623 0.07836 0.38364 -0.00400
H 	H 	0.72530 0.06920 0.36730 0.07100
C 	C 	0.69003 0.06677 0.39524 -0.07800
C 	C 	0.67511 0.04084 0.37987 0.35900
N 	N 	0.77022 0.14066 0.39405 -0.08100
N 	N 	0.79273 0.14520 0.37496 -0.13700
O 	O 	0.65135 0.53108 0.89198 -0.39900
O 	O 	0.68690 0.53101 0.85653 -0.39600
C 	C 	0.71623 0.57836 0.88364 -0.00400
H 	H 	0.72530 0.56920 0.86730 0.07100
C 	C 	0.69003 0.56677 0.89524 -0.07700
C 	C 	0.67511 0.54084 0.87987 0.35900
N 	N 	0.77022 0.64066 0.89405 -0.08000
N 	N 	0.79273 0.64520 0.87496 -0.13700
O 	O 	0.84865 0.03108 0.10802 -0.40100
O 	O 	0.81310 0.03101 0.14347 -0.39700
C 	C 	0.78377 0.07836 0.11636 -0.00300
H 	H 	0.77470 0.06920 0.13270 0.07000
C 	C 	0.80997 0.06677 0.10476 -0.07900
C 	C 	0.82489 0.04084 0.12013 0.35900
N 	N 	0.72978 0.14066 0.10595 -0.08100
N 	N 	0.70727 0.14520 0.12504 -0.13700
O 	O 	0.84865 0.53108 0.60802 -0.40000
O 	O 	0.81310 0.53101 0.64347 -0.39600
C 	C 	0.78377 0.57836 0.61636 -0.00400
H 	H 	0.77470 0.56920 0.63270 0.07100
C 	C 	0.80997 0.56677 0.60476 -0.07800
C 	C 	0.82489 0.54084 0.62013 0.35900
N 	N 	0.72978 0.64066 0.60595 -0.08100
N 	N 	0.70727 0.64520 0.62504 -0.13700
O 	O 	0.34865 0.03108 0.60802 -0.40100
O 	O 	0.31310 0.03101 0.64347 -0.39700
C 	C 	0.28377 0.07836 0.61636 -0.00400
H 	H 	0.27470 0.06920 0.63270 0.07100
C 	C 	0.30997 0.06677 0.60476 -0.07800
C 	C 	0.32489 0.04084 0.62013 0.35900
N 	N 	0.22978 0.14066 0.60595 -0.08100
N 	N 	0.20727 0.14520 0.62504 -0.13700
O 	O 	0.34865 0.53108 0.10802 -0.40000
O 	O 	0.31310 0.53101 0.14347 -0.39600
C 	C 	0.28377 0.57836 0.11636 -0.00400
H 	H 	0.27470 0.56920 0.13270 0.07100
C 	C 	0.30997 0.56677 0.10476 -0.07800
C 	C 	0.32489 0.54084 0.12013 0.35900
N 	N 	0.22978 0.64066 0.10595 -0.08100
N 	N 	0.20727 0.64520 0.12504 -0.13700
O 	O 	0.84865 0.96892 0.89198 -0.39700
O 	O 	0.81310 0.96899 0.85653 -0.39400
C 	C 	0.78377 0.92164 0.88364 -0.00500
H 	H 	0.77470 0.93080 0.86730 0.07200
C 	C 	0.80997 0.93323 0.89524 -0.07600
C 	C 	0.82489 0.95916 0.87987 0.35800
N 	N 	0.72978 0.85934 0.89405 -0.08000
N 	N 	0.70727 0.85480 0.87496 -0.13700
O 	O 	0.84865 0.46892 0.39198 -0.40000
O 	O 	0.81310 0.46899 0.35653 -0.39600
C 	C 	0.78377 0.42164 0.38364 -0.00400
H 	H 	0.77470 0.43080 0.36730 0.07100
C 	C 	0.80997 0.43323 0.39524 -0.07700
C 	C 	0.82489 0.45916 0.37987 0.35900
N 	N 	0.72978 0.35934 0.39405 -0.08100
N 	N 	0.70727 0.35480 0.37496 -0.13700
O 	O 	0.34865 0.96892 0.39198 -0.39800
O 	O 	0.31310 0.96899 0.35653 -0.39400
C 	C 	0.28377 0.92164 0.38364 -0.00400
H 	H 	0.27470 0.93080 0.36730 0.07200
C 	C 	0.30997 0.93323 0.39524 -0.07700
C 	C 	0.32489 0.95916 0.37987 0.35800
N 	N 	0.22978 0.85934 0.39405 -0.08100
N 	N 	0.20727 0.85480 0.37496 -0.13700
O 	O 	0.34865 0.46892 0.89198 -0.39900
O 	O 	0.31310 0.46899 0.85653 -0.39600
C 	C 	0.28377 0.42164 0.88364 -0.00400
H 	H 	0.27470 0.43080 0.86730 0.07100
C 	C 	0.30997 0.43323 0.89524 -0.07700
C 	C 	0.32489 0.45916 0.87987 0.35900
N 	N 	0.22978 0.35934 0.89405 -0.08000
N 	N 	0.20727 0.35480 0.87496 -0.13700
O 	O 	0.15135 0.96892 0.10802 -0.39800
O 	O 	0.18690 0.96899 0.14347 -0.39400
C 	C 	0.21623 0.92164 0.11636 -0.00400
H 	H 	0.22530 0.93080 0.13270 0.07100
C 	C 	0.19003 0.93323 0.10476 -0.07700
C 	C 	0.17511 0.95916 0.12013 0.35800
N 	N 	0.27022 0.85934 0.10595 -0.08100
N 	N 	0.29273 0.85480 0.12504 -0.13700
O 	O 	0.15135 0.46892 0.60802 -0.40000
O 	O 	0.18690 0.46899 0.64347 -0.39600
C 	C 	0.21623 0.42164 0.61636 -0.00400
H 	H 	0.22530 0.43080 0.63270 0.07100
C 	C 	0.19003 0.43323 0.60476 -0.07800
C 	C 	0.17511 0.45916 0.62013 0.35900
N 	N 	0.27022 0.35934 0.60595 -0.08100
N 	N 	0.29273 0.35480 0.62504 -0.13700
O 	O 	0.65135 0.96892 0.60802 -0.39800
O 	O 	0.68690 0.96899 0.64347 -0.39400
C 	C 	0.71623 0.92164 0.61636 -0.00400
H 	H 	0.72530 0.93080 0.63270 0.07200
C 	C 	0.69003 0.93323 0.60476 -0.07700
C 	C 	0.67511 0.95916 0.62013 0.35800
N 	N 	0.77022 0.85934 0.60595 -0.08100
N 	N 	0.79273 0.85480 0.62504 -0.13700
O 	O 	0.65135 0.46892 0.10802 -0.40000
O 	O 	0.68690 0.46899 0.14347 -0.39600
C 	C 	0.71623 0.42164 0.11636 -0.00400
H 	H 	0.72530 0.43080 0.13270 0.07100
C 	C 	0.69003 0.43323 0.10476 -0.07800
C 	C 	0.67511 0.45916 0.12013 0.35900
N 	N 	0.77022 0.35934 0.10595 -0.08100
N 	N 	0.79273 0.35480 0.12504 -0.13700
O 	O 	0.03108 0.10802 0.84865 -0.40100
O 	O 	0.03101 0.14347 0.81310 -0.39700
C 	C 	0.07836 0.11636 0.78377 -0.00300
H 	H 	0.06920 0.13270 0.77470 0.07000
C 	C 	0.06677 0.10476 0.80997 -0.07900
C 	C 	0.04084 0.12013 0.82489 0.35900
N 	N 	0.14066 0.10595 0.72978 -0.08100
N 	N 	0.14520 0.12504 0.70727 -0.13700
O 	O 	0.03108 0.60802 0.34865 -0.40100
O 	O 	0.03101 0.64347 0.31310 -0.39700
C 	C 	0.07836 0.61636 0.28377 -0.00400
H 	H 	0.06920 0.63270 0.27470 0.07100
C 	C 	0.06677 0.60476 0.30997 -0.07800
C 	C 	0.04084 0.62013 0.32489 0.35900
N 	N 	0.14066 0.60595 0.22978 -0.08100
N 	N 	0.14520 0.62504 0.20727 -0.13700
O 	O 	0.53108 0.10802 0.34865 -0.40000
O 	O 	0.53101 0.14347 0.31310 -0.39600
C 	C 	0.57836 0.11636 0.28377 -0.00400
H 	H 	0.56920 0.13270 0.27470 0.07100
C 	C 	0.56677 0.10476 0.30997 -0.07800
C 	C 	0.54084 0.12013 0.32489 0.35900
N 	N 	0.64066 0.10595 0.22978 -0.08100
N 	N 	0.64520 0.12504 0.20727 -0.13700
O 	O 	0.53108 0.60802 0.84865 -0.40000
O 	O 	0.53101 0.64347 0.81310 -0.39600
C 	C 	0.57836 0.61636 0.78377 -0.00400
H 	H 	0.56920 0.63270 0.77470 0.07100
C 	C 	0.56677 0.60476 0.80997 -0.07800
C 	C 	0.54084 0.62013 0.82489 0.35900
N 	N 	0.64066 0.60595 0.72978 -0.08100
N 	N 	0.64520 0.62504 0.70727 -0.13700
O 	O 	0.03108 0.89198 0.15135 -0.40100
O 	O 	0.03101 0.85653 0.18690 -0.39700
C 	C 	0.07836 0.88364 0.21623 -0.00400
H 	H 	0.06920 0.86730 0.22530 0.07100
C 	C 	0.06677 0.89524 0.19003 -0.07800
C 	C 	0.04084 0.87987 0.17511 0.35900
N 	N 	0.14066 0.89405 0.27022 -0.08000
N 	N 	0.14520 0.87496 0.29273 -0.13700
O 	O 	0.03108 0.39198 0.65135 -0.40100
O 	O 	0.03101 0.35653 0.68690 -0.39700
C 	C 	0.07836 0.38364 0.71623 -0.00400
H 	H 	0.06920 0.36730 0.72530 0.07100
C 	C 	0.06677 0.39524 0.69003 -0.07800
C 	C 	0.04084 0.37987 0.67511 0.35900
N 	N 	0.14066 0.39405 0.77022 -0.08100
N 	N 	0.14520 0.37496 0.79273 -0.13700
O 	O 	0.53108 0.89198 0.65135 -0.39900
O 	O 	0.53101 0.85653 0.68690 -0.39600
C 	C 	0.57836 0.88364 0.71623 -0.00400
H 	H 	0.56920 0.86730 0.72530 0.07100
C 	C 	0.56677 0.89524 0.69003 -0.07700
C 	C 	0.54084 0.87987 0.67511 0.35900
N 	N 	0.64066 0.89405 0.77022 -0.08000
N 	N 	0.64520 0.87496 0.79273 -0.13700
O 	O 	0.53108 0.39198 0.15135 -0.40000
O 	O 	0.53101 0.35653 0.18690 -0.39600
C 	C 	0.57836 0.38364 0.21623 -0.00400
H 	H 	0.56920 0.36730 0.22530 0.07100
C 	C 	0.56677 0.39524 0.19003 -0.07800
C 	C 	0.54084 0.37987 0.17511 0.35900
N 	N 	0.64066 0.39405 0.27022 -0.08100
N 	N 	0.64520 0.37496 0.29273 -0.13700
O 	O 	0.96892 0.10802 0.15135 -0.39800
O 	O 	0.96899 0.14347 0.18690 -0.39400
C 	C 	0.92164 0.11636 0.21623 -0.00400
H 	H 	0.93080 0.13270 0.22530 0.07100
C 	C 	0.93323 0.10476 0.19003 -0.07700
C 	C 	0.95916 0.12013 0.17511 0.35800
N 	N 	0.85934 0.10595 0.27022 -0.08100
N 	N 	0.85480 0.12504 0.29273 -0.13700
O 	O 	0.96892 0.60802 0.65135 -0.39800
O 	O 	0.96899 0.64347 0.68690 -0.39400
C 	C 	0.92164 0.61636 0.71623 -0.00400
H 	H 	0.93080 0.63270 0.72530 0.07200
C 	C 	0.93323 0.60476 0.69003 -0.07700
C 	C 	0.95916 0.62013 0.67511 0.35800
N 	N 	0.85934 0.60595 0.77022 -0.08100
N 	N 	0.85480 0.62504 0.79273 -0.13700
O 	O 	0.46892 0.10802 0.65135 -0.40000
O 	O 	0.46899 0.14347 0.68690 -0.39600
C 	C 	0.42164 0.11636 0.71623 -0.00400
H 	H 	0.43080 0.13270 0.72530 0.07100
C 	C 	0.43323 0.10476 0.69003 -0.07800
C 	C 	0.45916 0.12013 0.67511 0.35900
N 	N 	0.35934 0.10595 0.77022 -0.08100
N 	N 	0.35480 0.12504 0.79273 -0.13700
O 	O 	0.46892 0.60802 0.15135 -0.40000
O 	O 	0.46899 0.64347 0.18690 -0.39600
C 	C 	0.42164 0.61636 0.21623 -0.00400
H 	H 	0.43080 0.63270 0.22530 0.07100
C 	C 	0.43323 0.60476 0.19003 -0.07800
C 	C 	0.45916 0.62013 0.17511 0.35900
N 	N 	0.35934 0.60595 0.27022 -0.08100
N 	N 	0.35480 0.62504 0.29273 -0.13700
O 	O 	0.96892 0.89198 0.84865 -0.39700
O 	O 	0.96899 0.85653 0.81310 -0.39400
C 	C 	0.92164 0.88364 0.78377 -0.00500
H 	H 	0.93080 0.86730 0.77470 0.07200
C 	C 	0.93323 0.89524 0.80997 -0.07600
C 	C 	0.95916 0.87987 0.82489 0.35800
N 	N 	0.85934 0.89405 0.72978 -0.08000
N 	N 	0.85480 0.87496 0.70727 -0.13700
O 	O 	0.96892 0.39198 0.34865 -0.39800
O 	O 	0.96899 0.35653 0.31310 -0.39400
C 	C 	0.92164 0.38364 0.28377 -0.00400
H 	H 	0.93080 0.36730 0.27470 0.07200
C 	C 	0.93323 0.39524 0.30997 -0.07700
C 	C 	0.95916 0.37987 0.32489 0.35800
N 	N 	0.85934 0.39405 0.22978 -0.08100
N 	N 	0.85480 0.37496 0.20727 -0.13700
O 	O 	0.46892 0.89198 0.34865 -0.39900
O 	O 	0.46899 0.85653 0.31310 -0.39600
C 	C 	0.42164 0.88364 0.28377 -0.00400
H 	H 	0.43080 0.86730 0.27470 0.07100
C 	C 	0.43323 0.89524 0.30997 -0.07700
C 	C 	0.45916 0.87987 0.32489 0.35900
N 	N 	0.35934 0.89405 0.22978 -0.08000
N 	N 	0.35480 0.87496 0.20727 -0.13700
O 	O 	0.46892 0.39198 0.84865 -0.40000
O 	O 	0.46899 0.35653 0.81310 -0.39600
C 	C 	0.42164 0.38364 0.78377 -0.00400
H 	H 	0.43080 0.36730 0.77470 0.07100
C 	C 	0.43323 0.39524 0.80997 -0.07700
C 	C 	0.45916 0.37987 0.82489 0.35900
N 	N 	0.35934 0.39405 0.72978 -0.08100
N 	N 	0.35480 0.37496 0.70727 -0.13700
O 	O 	0.84865 0.89198 0.96892 -0.39700
O 	O 	0.81310 0.85653 0.96899 -0.39400
C 	C 	0.78377 0.88364 0.92164 -0.00500
H 	H 	0.77470 0.86730 0.93080 0.07200
C 	C 	0.80997 0.89524 0.93323 -0.07600
C 	C 	0.82489 0.87987 0.95916 0.35800
N 	N 	0.72978 0.89405 0.85934 -0.08000
N 	N 	0.70727 0.87496 0.85480 -0.13700
O 	O 	0.84865 0.39198 0.46892 -0.40000
O 	O 	0.81310 0.35653 0.46899 -0.39600
C 	C 	0.78377 0.38364 0.42164 -0.00400
H 	H 	0.77470 0.36730 0.43080 0.07100
C 	C 	0.80997 0.39524 0.43323 -0.07700
C 	C 	0.82489 0.37987 0.45916 0.35900
N 	N 	0.72978 0.39405 0.35934 -0.08100
N 	N 	0.70727 0.37496 0.35480 -0.13700
O 	O 	0.34865 0.89198 0.46892 -0.39900
O 	O 	0.31310 0.85653 0.46899 -0.39600
C 	C 	0.28377 0.88364 0.42164 -0.00400
H 	H 	0.27470 0.86730 0.43080 0.07100
C 	C 	0.30997 0.89524 0.43323 -0.07700
C 	C 	0.32489 0.87987 0.45916 0.35900
N 	N 	0.22978 0.89405 0.35934 -0.08000
N 	N 	0.20727 0.87496 0.35480 -0.13700
O 	O 	0.34865 0.39198 0.96892 -0.39800
O 	O 	0.31310 0.35653 0.96899 -0.39400
C 	C 	0.28377 0.38364 0.92164 -0.00400
H 	H 	0.27470 0.36730 0.93080 0.07200
C 	C 	0.30997 0.39524 0.93323 -0.07700
C 	C 	0.32489 0.37987 0.95916 0.35800
N 	N 	0.22978 0.39405 0.85934 -0.08100
N 	N 	0.20727 0.37496 0.85480 -0.13700
O 	O 	0.15135 0.10802 0.96892 -0.39800
O 	O 	0.18690 0.14347 0.96899 -0.39400
C 	C 	0.21623 0.11636 0.92164 -0.00400
H 	H 	0.22530 0.13270 0.93080 0.07100
C 	C 	0.19003 0.10476 0.93323 -0.07700
C 	C 	0.17511 0.12013 0.95916 0.35800
N 	N 	0.27022 0.10595 0.85934 -0.08100
N 	N 	0.29273 0.12504 0.85480 -0.13700
O 	O 	0.15135 0.60802 0.46892 -0.40000
O 	O 	0.18690 0.64347 0.46899 -0.39600
C 	C 	0.21623 0.61636 0.42164 -0.00400
H 	H 	0.22530 0.63270 0.43080 0.07100
C 	C 	0.19003 0.60476 0.43323 -0.07800
C 	C 	0.17511 0.62013 0.45916 0.35900
N 	N 	0.27022 0.60595 0.35934 -0.08100
N 	N 	0.29273 0.62504 0.35480 -0.13700
O 	O 	0.65135 0.10802 0.46892 -0.40000
O 	O 	0.68690 0.14347 0.46899 -0.39600
C 	C 	0.71623 0.11636 0.42164 -0.00400
H 	H 	0.72530 0.13270 0.43080 0.07100
C 	C 	0.69003 0.10476 0.43323 -0.07800
C 	C 	0.67511 0.12013 0.45916 0.35900
N 	N 	0.77022 0.10595 0.35934 -0.08100
N 	N 	0.79273 0.12504 0.35480 -0.13700
O 	O 	0.65135 0.60802 0.96892 -0.39800
O 	O 	0.68690 0.64347 0.96899 -0.39400
C 	C 	0.71623 0.61636 0.92164 -0.00400
H 	H 	0.72530 0.63270 0.93080 0.07200
C 	C 	0.69003 0.60476 0.93323 -0.07700
C 	C 	0.67511 0.62013 0.95916 0.35800
N 	N 	0.77022 0.60595 0.85934 -0.08100
N 	N 	0.79273 0.62504 0.85480 -0.13700
O 	O 	0.15135 0.89198 0.03108 -0.40100
O 	O 	0.18690 0.85653 0.03101 -0.39700
C 	C 	0.21623 0.88364 0.07836 -0.00400
H 	H 	0.22530 0.86730 0.06920 0.07100
C 	C 	0.19003 0.89524 0.06677 -0.07800
C 	C 	0.17511 0.87987 0.04084 0.35900
N 	N 	0.27022 0.89405 0.14066 -0.08000
N 	N 	0.29273 0.87496 0.14520 -0.13700
O 	O 	0.15135 0.39198 0.53108 -0.40000
O 	O 	0.18690 0.35653 0.53101 -0.39600
C 	C 	0.21623 0.38364 0.57836 -0.00400
H 	H 	0.22530 0.36730 0.56920 0.07100
C 	C 	0.19003 0.39524 0.56677 -0.07800
C 	C 	0.17511 0.37987 0.54084 0.35900
N 	N 	0.27022 0.39405 0.64066 -0.08100
N 	N 	0.29273 0.37496 0.64520 -0.13700
O 	O 	0.65135 0.89198 0.53108 -0.39900
O 	O 	0.68690 0.85653 0.53101 -0.39600
C 	C 	0.71623 0.88364 0.57836 -0.00400
H 	H 	0.72530 0.86730 0.56920 0.07100
C 	C 	0.69003 0.89524 0.56677 -0.07700
C 	C 	0.67511 0.87987 0.54084 0.35900
N 	N 	0.77022 0.89405 0.64066 -0.08000
N 	N 	0.79273 0.87496 0.64520 -0.13700
O 	O 	0.65135 0.39198 0.03108 -0.40100
O 	O 	0.68690 0.35653 0.03101 -0.39700
C 	C 	0.71623 0.38364 0.07836 -0.00400
H 	H 	0.72530 0.36730 0.06920 0.07100
C 	C 	0.69003 0.39524 0.06677 -0.07800
C 	C 	0.67511 0.37987 0.04084 0.35900
N 	N 	0.77022 0.39405 0.14066 -0.08100
N 	N 	0.79273 0.37496 0.14520 -0.13700
O 	O 	0.84865 0.10802 0.03108 -0.40100
O 	O 	0.81310 0.14347 0.03101 -0.39700
C 	C 	0.78377 0.11636 0.07836 -0.00300
H 	H 	0.77470 0.13270 0.06920 0.07000
C 	C 	0.80997 0.10476 0.06677 -0.07900
C 	C 	0.82489 0.12013 0.04084 0.35900
N 	N 	0.72978 0.10595 0.14066 -0.08100
N 	N 	0.70727 0.12504 0.14520 -0.13700
O 	O 	0.84865 0.60802 0.53108 -0.40000
O 	O 	0.81310 0.64347 0.53101 -0.39600
C 	C 	0.78377 0.61636 0.57836 -0.00400
H 	H 	0.77470 0.63270 0.56920 0.07100
C 	C 	0.80997 0.60476 0.56677 -0.07800
C 	C 	0.82489 0.62013 0.54084 0.35900
N 	N 	0.72978 0.60595 0.64066 -0.08100
N 	N 	0.70727 0.62504 0.64520 -0.13700
O 	O 	0.34865 0.10802 0.53108 -0.40000
O 	O 	0.31310 0.14347 0.53101 -0.39600
C 	C 	0.28377 0.11636 0.57836 -0.00400
H 	H 	0.27470 0.13270 0.56920 0.07100
C 	C 	0.30997 0.10476 0.56677 -0.07800
C 	C 	0.32489 0.12013 0.54084 0.35900
N 	N 	0.22978 0.10595 0.64066 -0.08100
N 	N 	0.20727 0.12504 0.64520 -0.13700
O 	O 	0.34865 0.60802 0.03108 -0.40100
O 	O 	0.31310 0.64347 0.03101 -0.39700
C 	C 	0.28377 0.61636 0.07836 -0.00400
H 	H 	0.27470 0.63270 0.06920 0.07100
C 	C 	0.30997 0.60476 0.06677 -0.07800
C 	C 	0.32489 0.62013 0.04084 0.35900
N 	N 	0.22978 0.60595 0.14066 -0.08100
N 	N 	0.20727 0.62504 0.14520 -0.13700
O 	O 	0.96892 0.84865 0.89198 -0.39700
O 	O 	0.96899 0.81310 0.85653 -0.39400
C 	C 	0.92164 0.78377 0.88364 -0.00500
H 	H 	0.93080 0.77470 0.86730 0.07200
C 	C 	0.93323 0.80997 0.89524 -0.07600
C 	C 	0.95916 0.82489 0.87987 0.35800
N 	N 	0.85934 0.72978 0.89405 -0.08000
N 	N 	0.85480 0.70727 0.87496 -0.13700
O 	O 	0.96892 0.34865 0.39198 -0.39800
O 	O 	0.96899 0.31310 0.35653 -0.39400
C 	C 	0.92164 0.28377 0.38364 -0.00400
H 	H 	0.93080 0.27470 0.36730 0.07200
C 	C 	0.93323 0.30997 0.39524 -0.07700
C 	C 	0.95916 0.32489 0.37987 0.35800
N 	N 	0.85934 0.22978 0.39405 -0.08100
N 	N 	0.85480 0.20727 0.37496 -0.13700
O 	O 	0.46892 0.84865 0.39198 -0.40000
O 	O 	0.46899 0.81310 0.35653 -0.39600
C 	C 	0.42164 0.78377 0.38364 -0.00400
H 	H 	0.43080 0.77470 0.36730 0.07100
C 	C 	0.43323 0.80997 0.39524 -0.07700
C 	C 	0.45916 0.82489 0.37987 0.35900
N 	N 	0.35934 0.72978 0.39405 -0.08100
N 	N 	0.35480 0.70727 0.37496 -0.13700
O 	O 	0.46892 0.34865 0.89198 -0.39900
O 	O 	0.46899 0.31310 0.85653 -0.39600
C 	C 	0.42164 0.28377 0.88364 -0.00400
H 	H 	0.43080 0.27470 0.86730 0.07100
C 	C 	0.43323 0.30997 0.89524 -0.07700
C 	C 	0.45916 0.32489 0.87987 0.35900
N 	N 	0.35934 0.22978 0.89405 -0.08000
N 	N 	0.35480 0.20727 0.87496 -0.13700
O 	O 	0.96892 0.15135 0.10802 -0.39800
O 	O 	0.96899 0.18690 0.14347 -0.39400
C 	C 	0.92164 0.21623 0.11636 -0.00400
H 	H 	0.93080 0.22530 0.13270 0.07100
C 	C 	0.93323 0.19003 0.10476 -0.07700
C 	C 	0.95916 0.17511 0.12013 0.35800
N 	N 	0.85934 0.27022 0.10595 -0.08100
N 	N 	0.85480 0.29273 0.12504 -0.13700
O 	O 	0.96892 0.65135 0.60802 -0.39800
O 	O 	0.96899 0.68690 0.64347 -0.39400
C 	C 	0.92164 0.71623 0.61636 -0.00400
H 	H 	0.93080 0.72530 0.63270 0.07200
C 	C 	0.93323 0.69003 0.60476 -0.07700
C 	C 	0.95916 0.67511 0.62013 0.35800
N 	N 	0.85934 0.77022 0.60595 -0.08100
N 	N 	0.85480 0.79273 0.62504 -0.13700
O 	O 	0.46892 0.15135 0.60802 -0.40000
O 	O 	0.46899 0.18690 0.64347 -0.39600
C 	C 	0.42164 0.21623 0.61636 -0.00400
H 	H 	0.43080 0.22530 0.63270 0.07100
C 	C 	0.43323 0.19003 0.60476 -0.07800
C 	C 	0.45916 0.17511 0.62013 0.35900
N 	N 	0.35934 0.27022 0.60595 -0.08100
N 	N 	0.35480 0.29273 0.62504 -0.13700
O 	O 	0.46892 0.65135 0.10802 -0.40000
O 	O 	0.46899 0.68690 0.14347 -0.39600
C 	C 	0.42164 0.71623 0.11636 -0.00400
H 	H 	0.43080 0.72530 0.13270 0.07100
C 	C 	0.43323 0.69003 0.10476 -0.07800
C 	C 	0.45916 0.67511 0.12013 0.35900
N 	N 	0.35934 0.77022 0.10595 -0.08100
N 	N 	0.35480 0.79273 0.12504 -0.13700
O 	O 	0.03108 0.15135 0.89198 -0.40100
O 	O 	0.03101 0.18690 0.85653 -0.39700
C 	C 	0.07836 0.21623 0.88364 -0.00400
H 	H 	0.06920 0.22530 0.86730 0.07100
C 	C 	0.06677 0.19003 0.89524 -0.07800
C 	C 	0.04084 0.17511 0.87987 0.35900
N 	N 	0.14066 0.27022 0.89405 -0.08000
N 	N 	0.14520 0.29273 0.87496 -0.13700
O 	O 	0.03108 0.65135 0.39198 -0.40100
O 	O 	0.03101 0.68690 0.35653 -0.39700
C 	C 	0.07836 0.71623 0.38364 -0.00400
H 	H 	0.06920 0.72530 0.36730 0.07100
C 	C 	0.06677 0.69003 0.39524 -0.07800
C 	C 	0.04084 0.67511 0.37987 0.35900
N 	N 	0.14066 0.77022 0.39405 -0.08100
N 	N 	0.14520 0.79273 0.37496 -0.13700
O 	O 	0.53108 0.15135 0.39198 -0.40000
O 	O 	0.53101 0.18690 0.35653 -0.39600
C 	C 	0.57836 0.21623 0.38364 -0.00400
H 	H 	0.56920 0.22530 0.36730 0.07100
C 	C 	0.56677 0.19003 0.39524 -0.07800
C 	C 	0.54084 0.17511 0.37987 0.35900
N 	N 	0.64066 0.27022 0.39405 -0.08100
N 	N 	0.64520 0.29273 0.37496 -0.13700
O 	O 	0.53108 0.65135 0.89198 -0.39900
O 	O 	0.53101 0.68690 0.85653 -0.39600
C 	C 	0.57836 0.71623 0.88364 -0.00400
H 	H 	0.56920 0.72530 0.86730 0.07100
C 	C 	0.56677 0.69003 0.89524 -0.07700
C 	C 	0.54084 0.67511 0.87987 0.35900
N 	N 	0.64066 0.77022 0.89405 -0.08000
N 	N 	0.64520 0.79273 0.87496 -0.13700
O 	O 	0.03108 0.84865 0.10802 -0.40100
O 	O 	0.03101 0.81310 0.14347 -0.39700
C 	C 	0.07836 0.78377 0.11636 -0.00300
H 	H 	0.06920 0.77470 0.13270 0.07000
C 	C 	0.06677 0.80997 0.10476 -0.07900
C 	C 	0.04084 0.82489 0.12013 0.35900
N 	N 	0.14066 0.72978 0.10595 -0.08100
N 	N 	0.14520 0.70727 0.12504 -0.13700
O 	O 	0.03108 0.34865 0.60802 -0.40100
O 	O 	0.03101 0.31310 0.64347 -0.39700
C 	C 	0.07836 0.28377 0.61636 -0.00400
H 	H 	0.06920 0.27470 0.63270 0.07100
C 	C 	0.06677 0.30997 0.60476 -0.07800
C 	C 	0.04084 0.32489 0.62013 0.35900
N 	N 	0.14066 0.22978 0.60595 -0.08100
N 	N 	0.14520 0.20727 0.62504 -0.13700
O 	O 	0.53108 0.84865 0.60802 -0.40000
O 	O 	0.53101 0.81310 0.64347 -0.39600
C 	C 	0.57836 0.78377 0.61636 -0.00400
H 	H 	0.56920 0.77470 0.63270 0.07100
C 	C 	0.56677 0.80997 0.60476 -0.07800
C 	C 	0.54084 0.82489 0.62013 0.35900
N 	N 	0.64066 0.72978 0.60595 -0.08100
N 	N 	0.64520 0.70727 0.62504 -0.13700
O 	O 	0.53108 0.34865 0.10802 -0.40000
O 	O 	0.53101 0.31310 0.14347 -0.39600
C 	C 	0.57836 0.28377 0.11636 -0.00400
H 	H 	0.56920 0.27470 0.13270 0.07100
C 	C 	0.56677 0.30997 0.10476 -0.07800
C 	C 	0.54084 0.32489 0.12013 0.35900
N 	N 	0.64066 0.22978 0.10595 -0.08100
N 	N 	0.64520 0.20727 0.12504 -0.13700
O 	O 	0.89198 0.96892 0.84865 -0.39700
O 	O 	0.85653 0.96899 0.81310 -0.39400
C 	C 	0.88364 0.92164 0.78377 -0.00500
H 	H 	0.86730 0.93080 0.77470 0.07200
C 	C 	0.89524 0.93323 0.80997 -0.07600
C 	C 	0.87987 0.95916 0.82489 0.35800
N 	N 	0.89405 0.85934 0.72978 -0.08000
N 	N 	0.87496 0.85480 0.70727 -0.13700
O 	O 	0.89198 0.46892 0.34865 -0.39900
O 	O 	0.85653 0.46899 0.31310 -0.39600
C 	C 	0.88364 0.42164 0.28377 -0.00400
H 	H 	0.86730 0.43080 0.27470 0.07100
C 	C 	0.89524 0.43323 0.30997 -0.07700
C 	C 	0.87987 0.45916 0.32489 0.35900
N 	N 	0.89405 0.35934 0.22978 -0.08000
N 	N 	0.87496 0.35480 0.20727 -0.13700
O 	O 	0.39198 0.96892 0.34865 -0.39800
O 	O 	0.35653 0.96899 0.31310 -0.39400
C 	C 	0.38364 0.92164 0.28377 -0.00400
H 	H 	0.36730 0.93080 0.27470 0.07200
C 	C 	0.39524 0.93323 0.30997 -0.07700
C 	C 	0.37987 0.95916 0.32489 0.35800
N 	N 	0.39405 0.85934 0.22978 -0.08100
N 	N 	0.37496 0.85480 0.20727 -0.13700
O 	O 	0.39198 0.46892 0.84865 -0.40000
O 	O 	0.35653 0.46899 0.81310 -0.39600
C 	C 	0.38364 0.42164 0.78377 -0.00400
H 	H 	0.36730 0.43080 0.77470 0.07100
C 	C 	0.39524 0.43323 0.80997 -0.07700
C 	C 	0.37987 0.45916 0.82489 0.35900
N 	N 	0.39405 0.35934 0.72978 -0.08100
N 	N 	0.37496 0.35480 0.70727 -0.13700
O 	O 	0.10802 0.96892 0.15135 -0.39800
O 	O 	0.14347 0.96899 0.18690 -0.39400
C 	C 	0.11636 0.92164 0.21623 -0.00400
H 	H 	0.13270 0.93080 0.22530 0.07100
C 	C 	0.10476 0.93323 0.19003 -0.07700
C 	C 	0.12013 0.95916 0.17511 0.35800
N 	N 	0.10595 0.85934 0.27022 -0.08100
N 	N 	0.12504 0.85480 0.29273 -0.13700
O 	O 	0.10802 0.46892 0.65135 -0.40000
O 	O 	0.14347 0.46899 0.68690 -0.39600
C 	C 	0.11636 0.42164 0.71623 -0.00400
H 	H 	0.13270 0.43080 0.72530 0.07100
C 	C 	0.10476 0.43323 0.69003 -0.07800
C 	C 	0.12013 0.45916 0.67511 0.35900
N 	N 	0.10595 0.35934 0.77022 -0.08100
N 	N 	0.12504 0.35480 0.79273 -0.13700
O 	O 	0.60802 0.96892 0.65135 -0.39800
O 	O 	0.64347 0.96899 0.68690 -0.39400
C 	C 	0.61636 0.92164 0.71623 -0.00400
H 	H 	0.63270 0.93080 0.72530 0.07200
C 	C 	0.60476 0.93323 0.69003 -0.07700
C 	C 	0.62013 0.95916 0.67511 0.35800
N 	N 	0.60595 0.85934 0.77022 -0.08100
N 	N 	0.62504 0.85480 0.79273 -0.13700
O 	O 	0.60802 0.46892 0.15135 -0.40000
O 	O 	0.64347 0.46899 0.18690 -0.39600
C 	C 	0.61636 0.42164 0.21623 -0.00400
H 	H 	0.63270 0.43080 0.22530 0.07100
C 	C 	0.60476 0.43323 0.19003 -0.07800
C 	C 	0.62013 0.45916 0.17511 0.35900
N 	N 	0.60595 0.35934 0.27022 -0.08100
N 	N 	0.62504 0.35480 0.29273 -0.13700
O 	O 	0.89198 0.03108 0.15135 -0.40100
O 	O 	0.85653 0.03101 0.18690 -0.39700
C 	C 	0.88364 0.07836 0.21623 -0.00400
H 	H 	0.86730 0.06920 0.22530 0.07100
C 	C 	0.89524 0.06677 0.19003 -0.07800
C 	C 	0.87987 0.04084 0.17511 0.35900
N 	N 	0.89405 0.14066 0.27022 -0.08000
N 	N 	0.87496 0.14520 0.29273 -0.13700
O 	O 	0.89198 0.53108 0.65135 -0.39900
O 	O 	0.85653 0.53101 0.68690 -0.39600
C 	C 	0.88364 0.57836 0.71623 -0.00400
H 	H 	0.86730 0.56920 0.72530 0.07100
C 	C 	0.89524 0.56677 0.69003 -0.07700
C 	C 	0.87987 0.54084 0.67511 0.35900
N 	N 	0.89405 0.64066 0.77022 -0.08000
N 	N 	0.87496 0.64520 0.79273 -0.13700
O 	O 	0.39198 0.03108 0.65135 -0.40100
O 	O 	0.35653 0.03101 0.68690 -0.39700
C 	C 	0.38364 0.07836 0.71623 -0.00400
H 	H 	0.36730 0.06920 0.72530 0.07100
C 	C 	0.39524 0.06677 0.69003 -0.07800
C 	C 	0.37987 0.04084 0.67511 0.35900
N 	N 	0.39405 0.14066 0.77022 -0.08100
N 	N 	0.37496 0.14520 0.79273 -0.13700
O 	O 	0.39198 0.53108 0.15135 -0.40000
O 	O 	0.35653 0.53101 0.18690 -0.39600
C 	C 	0.38364 0.57836 0.21623 -0.00400
H 	H 	0.36730 0.56920 0.22530 0.07100
C 	C 	0.39524 0.56677 0.19003 -0.07800
C 	C 	0.37987 0.54084 0.17511 0.35900
N 	N 	0.39405 0.64066 0.27022 -0.08100
N 	N 	0.37496 0.64520 0.29273 -0.13700
O 	O 	0.10802 0.03108 0.84865 -0.40100
O 	O 	0.14347 0.03101 0.81310 -0.39700
C 	C 	0.11636 0.07836 0.78377 -0.00300
H 	H 	0.13270 0.06920 0.77470 0.07000
C 	C 	0.10476 0.06677 0.80997 -0.07900
C 	C 	0.12013 0.04084 0.82489 0.35900
N 	N 	0.10595 0.14066 0.72978 -0.08100
N 	N 	0.12504 0.14520 0.70727 -0.13700
O 	O 	0.10802 0.53108 0.34865 -0.40000
O 	O 	0.14347 0.53101 0.31310 -0.39600
C 	C 	0.11636 0.57836 0.28377 -0.00400
H 	H 	0.13270 0.56920 0.27470 0.07100
C 	C 	0.10476 0.56677 0.30997 -0.07800
C 	C 	0.12013 0.54084 0.32489 0.35900
N 	N 	0.10595 0.64066 0.22978 -0.08100
N 	N 	0.12504 0.64520 0.20727 -0.13700
O 	O 	0.60802 0.03108 0.34865 -0.40100
O 	O 	0.64347 0.03101 0.31310 -0.39700
C 	C 	0.61636 0.07836 0.28377 -0.00400
H 	H 	0.63270 0.06920 0.27470 0.07100
C 	C 	0.60476 0.06677 0.30997 -0.07800
C 	C 	0.62013 0.04084 0.32489 0.35900
N 	N 	0.60595 0.14066 0.22978 -0.08100
N 	N 	0.62504 0.14520 0.20727 -0.13700
O 	O 	0.60802 0.53108 0.84865 -0.40000
O 	O 	0.64347 0.53101 0.81310 -0.39600
C 	C 	0.61636 0.57836 0.78377 -0.00400
H 	H 	0.63270 0.56920 0.77470 0.07100
C 	C 	0.60476 0.56677 0.80997 -0.07800
C 	C 	0.62013 0.54084 0.82489 0.35900
N 	N 	0.60595 0.64066 0.72978 -0.08100
N 	N 	0.62504 0.64520 0.70727 -0.13700
O 	O 	0.89198 0.84865 0.03108 -0.40000
O 	O 	0.85653 0.81310 0.03101 -0.39700
C 	C 	0.88364 0.78377 0.07836 -0.00400
H 	H 	0.86730 0.77470 0.06920 0.07100
C 	C 	0.89524 0.80997 0.06677 -0.07800
C 	C 	0.87987 0.82489 0.04084 0.35900
N 	N 	0.89405 0.72978 0.14066 -0.08000
N 	N 	0.87496 0.70727 0.14520 -0.13700
O 	O 	0.89198 0.34865 0.53108 -0.39900
O 	O 	0.85653 0.31310 0.53101 -0.39600
C 	C 	0.88364 0.28377 0.57836 -0.00400
H 	H 	0.86730 0.27470 0.56920 0.07100
C 	C 	0.89524 0.30997 0.56677 -0.07700
C 	C 	0.87987 0.32489 0.54084 0.35900
N 	N 	0.89405 0.22978 0.64066 -0.08000
N 	N 	0.87496 0.20727 0.64520 -0.13700
O 	O 	0.39198 0.84865 0.53108 -0.40000
O 	O 	0.35653 0.81310 0.53101 -0.39600
C 	C 	0.38364 0.78377 0.57836 -0.00400
H 	H 	0.36730 0.77470 0.56920 0.07100
C 	C 	0.39524 0.80997 0.56677 -0.07700
C 	C 	0.37987 0.82489 0.54084 0.35900
N 	N 	0.39405 0.72978 0.64066 -0.08100
N 	N 	0.37496 0.70727 0.64520 -0.13700
O 	O 	0.39198 0.34865 0.03108 -0.40100
O 	O 	0.35653 0.31310 0.03101 -0.39700
C 	C 	0.38364 0.28377 0.07836 -0.00400
H 	H 	0.36730 0.27470 0.06920 0.07100
C 	C 	0.39524 0.30997 0.06677 -0.07800
C 	C 	0.37987 0.32489 0.04084 0.35900
N 	N 	0.39405 0.22978 0.14066 -0.08100
N 	N 	0.37496 0.20727 0.14520 -0.13700
O 	O 	0.10802 0.15135 0.03108 -0.40100
O 	O 	0.14347 0.18690 0.03101 -0.39700
C 	C 	0.11636 0.21623 0.07836 -0.00300
H 	H 	0.13270 0.22530 0.06920 0.07000
C 	C 	0.10476 0.19003 0.06677 -0.07900
C 	C 	0.12013 0.17511 0.04084 0.35900
N 	N 	0.10595 0.27022 0.14066 -0.08100
N 	N 	0.12504 0.29273 0.14520 -0.13700
O 	O 	0.10802 0.65135 0.53108 -0.40000
O 	O 	0.14347 0.68690 0.53101 -0.39600
C 	C 	0.11636 0.71623 0.57836 -0.00400
H 	H 	0.13270 0.72530 0.56920 0.07100
C 	C 	0.10476 0.69003 0.56677 -0.07800
C 	C 	0.12013 0.67511 0.54084 0.35900
N 	N 	0.10595 0.77022 0.64066 -0.08100
N 	N 	0.12504 0.79273 0.64520 -0.13700
O 	O 	0.60802 0.15135 0.53108 -0.40000
O 	O 	0.64347 0.18690 0.53101 -0.39600
C 	C 	0.61636 0.21623 0.57836 -0.00400
H 	H 	0.63270 0.22530 0.56920 0.07100
C 	C 	0.60476 0.19003 0.56677 -0.07800
C 	C 	0.62013 0.17511 0.54084 0.35900
N 	N 	0.60595 0.27022 0.64066 -0.08100
N 	N 	0.62504 0.29273 0.64520 -0.13700
O 	O 	0.60802 0.65135 0.03108 -0.40100
O 	O 	0.64347 0.68690 0.03101 -0.39700
C 	C 	0.61636 0.71623 0.07836 -0.00400
H 	H 	0.63270 0.72530 0.06920 0.07100
C 	C 	0.60476 0.69003 0.06677 -0.07800
C 	C 	0.62013 0.67511 0.04084 0.35900
N 	N 	0.60595 0.77022 0.14066 -0.08100
N 	N 	0.62504 0.79273 0.14520 -0.13700
O 	O 	0.89198 0.15135 0.96892 -0.39700
O 	O 	0.85653 0.18690 0.96899 -0.39400
C 	C 	0.88364 0.21623 0.92164 -0.00400
H 	H 	0.86730 0.22530 0.93080 0.07200
C 	C 	0.89524 0.19003 0.93323 -0.07600
C 	C 	0.87987 0.17511 0.95916 0.35800
N 	N 	0.89405 0.27022 0.85934 -0.08000
N 	N 	0.87496 0.29273 0.85480 -0.13700
O 	O 	0.89198 0.65135 0.46892 -0.39900
O 	O 	0.85653 0.68690 0.46899 -0.39600
C 	C 	0.88364 0.71623 0.42164 -0.00400
H 	H 	0.86730 0.72530 0.43080 0.07100
C 	C 	0.89524 0.69003 0.43323 -0.07700
C 	C 	0.87987 0.67511 0.45916 0.35900
N 	N 	0.89405 0.77022 0.35934 -0.08000
N 	N 	0.87496 0.79273 0.35480 -0.13700
O 	O 	0.39198 0.15135 0.46892 -0.40000
O 	O 	0.35653 0.18690 0.46899 -0.39600
C 	C 	0.38364 0.21623 0.42164 -0.00400
H 	H 	0.36730 0.22530 0.43080 0.07100
C 	C 	0.39524 0.19003 0.43323 -0.07800
C 	C 	0.37987 0.17511 0.45916 0.35900
N 	N 	0.39405 0.27022 0.35934 -0.08100
N 	N 	0.37496 0.29273 0.35480 -0.13700
O 	O 	0.39198 0.65135 0.96892 -0.39800
O 	O 	0.35653 0.68690 0.96899 -0.39400
C 	C 	0.38364 0.71623 0.92164 -0.00400
H 	H 	0.36730 0.72530 0.93080 0.07200
C 	C 	0.39524 0.69003 0.93323 -0.07700
C 	C 	0.37987 0.67511 0.95916 0.35800
N 	N 	0.39405 0.77022 0.85934 -0.08100
N 	N 	0.37496 0.79273 0.85480 -0.13700
O 	O 	0.10802 0.84865 0.96892 -0.39800
O 	O 	0.14347 0.81310 0.96899 -0.39400
C 	C 	0.11636 0.78377 0.92164 -0.00400
H 	H 	0.13270 0.77470 0.93080 0.07100
C 	C 	0.10476 0.80997 0.93323 -0.07700
C 	C 	0.12013 0.82489 0.95916 0.35800
N 	N 	0.10595 0.72978 0.85934 -0.08100
N 	N 	0.12504 0.70727 0.85480 -0.13700
O 	O 	0.10802 0.34865 0.46892 -0.40000
O 	O 	0.14347 0.31310 0.46899 -0.39600
C 	C 	0.11636 0.28377 0.42164 -0.00400
H 	H 	0.13270 0.27470 0.43080 0.07100
C 	C 	0.10476 0.30997 0.43323 -0.07800
C 	C 	0.12013 0.32489 0.45916 0.35900
N 	N 	0.10595 0.22978 0.35934 -0.08100
N 	N 	0.12504 0.20727 0.35480 -0.13700
O 	O 	0.60802 0.84865 0.46892 -0.40000
O 	O 	0.64347 0.81310 0.46899 -0.39600
C 	C 	0.61636 0.78377 0.42164 -0.00400
H 	H 	0.63270 0.77470 0.43080 0.07100
C 	C 	0.60476 0.80997 0.43323 -0.07800
C 	C 	0.62013 0.82489 0.45916 0.35900
N 	N 	0.60595 0.72978 0.35934 -0.08100
N 	N 	0.62504 0.70727 0.35480 -0.13700
O 	O 	0.60802 0.34865 0.96892 -0.39800
O 	O 	0.64347 0.31310 0.96899 -0.39400
C 	C 	0.61636 0.28377 0.92164 -0.00400
H 	H 	0.63270 0.27470 0.93080 0.07200
C 	C 	0.60476 0.30997 0.93323 -0.07700
C 	C 	0.62013 0.32489 0.95916 0.35800
N 	N 	0.60595 0.22978 0.85934 -0.08100
N 	N 	0.62504 0.20727 0.85480 -0.13700
O 	O 	0.84865 0.96892 0.10802 -0.39800
O 	O 	0.81310 0.96899 0.14347 -0.39400
C 	C 	0.78377 0.92164 0.11636 -0.00400
H 	H 	0.77470 0.93080 0.13270 0.07100
C 	C 	0.80997 0.93323 0.10476 -0.07700
C 	C 	0.82489 0.95916 0.12013 0.35800
N 	N 	0.72978 0.85934 0.10595 -0.08100
N 	N 	0.70727 0.85480 0.12504 -0.13700
O 	O 	0.84865 0.46892 0.60802 -0.40000
O 	O 	0.81310 0.46899 0.64347 -0.39600
C 	C 	0.78377 0.42164 0.61636 -0.00400
H 	H 	0.77470 0.43080 0.63270 0.07100
C 	C 	0.80997 0.43323 0.60476 -0.07800
C 	C 	0.82489 0.45916 0.62013 0.35900
N 	N 	0.72978 0.35934 0.60595 -0.08100
N 	N 	0.70727 0.35480 0.62504 -0.13700
O 	O 	0.34865 0.96892 0.60802 -0.39800
O 	O 	0.31310 0.96899 0.64347 -0.39400
C 	C 	0.28377 0.92164 0.61636 -0.00400
H 	H 	0.27470 0.93080 0.63270 0.07200
C 	C 	0.30997 0.93323 0.60476 -0.07700
C 	C 	0.32489 0.95916 0.62013 0.35800
N 	N 	0.22978 0.85934 0.60595 -0.08100
N 	N 	0.20727 0.85480 0.62504 -0.13700
O 	O 	0.34865 0.46892 0.10802 -0.40000
O 	O 	0.31310 0.46899 0.14347 -0.39600
C 	C 	0.28377 0.42164 0.11636 -0.00400
H 	H 	0.27470 0.43080 0.13270 0.07100
C 	C 	0.30997 0.43323 0.10476 -0.07800
C 	C 	0.32489 0.45916 0.12013 0.35900
N 	N 	0.22978 0.35934 0.10595 -0.08100
N 	N 	0.20727 0.35480 0.12504 -0.13700
O 	O 	0.15135 0.96892 0.89198 -0.39700
O 	O 	0.18690 0.96899 0.85653 -0.39400
C 	C 	0.21623 0.92164 0.88364 -0.00400
H 	H 	0.22530 0.93080 0.86730 0.07200
C 	C 	0.19003 0.93323 0.89524 -0.07600
C 	C 	0.17511 0.95916 0.87987 0.35800
N 	N 	0.27022 0.85934 0.89405 -0.08000
N 	N 	0.29273 0.85480 0.87496 -0.13700
O 	O 	0.15135 0.46892 0.39198 -0.40000
O 	O 	0.18690 0.46899 0.35653 -0.39600
C 	C 	0.21623 0.42164 0.38364 -0.00400
H 	H 	0.22530 0.43080 0.36730 0.07100
C 	C 	0.19003 0.43323 0.39524 -0.07800
C 	C 	0.17511 0.45916 0.37987 0.35900
N 	N 	0.27022 0.35934 0.39405 -0.08100
N 	N 	0.29273 0.35480 0.37496 -0.13700
O 	O 	0.65135 0.96892 0.39198 -0.39800
O 	O 	0.68690 0.96899 0.35653 -0.39400
C 	C 	0.71623 0.92164 0.38364 -0.00400
H 	H 	0.72530 0.93080 0.36730 0.07200
C 	C 	0.69003 0.93323 0.39524 -0.07700
C 	C 	0.67511 0.95916 0.37987 0.35800
N 	N 	0.77022 0.85934 0.39405 -0.08100
N 	N 	0.79273 0.85480 0.37496 -0.13700
O 	O 	0.65135 0.46892 0.89198 -0.39900
O 	O 	0.68690 0.46899 0.85653 -0.39600
C 	C 	0.71623 0.42164 0.88364 -0.00400
H 	H 	0.72530 0.43080 0.86730 0.07100
C 	C 	0.69003 0.43323 0.89524 -0.07700
C 	C 	0.67511 0.45916 0.87987 0.35900
N 	N 	0.77022 0.35934 0.89405 -0.08000
N 	N 	0.79273 0.35480 0.87496 -0.13700
O 	O 	0.15135 0.03108 0.10802 -0.40100
O 	O 	0.18690 0.03101 0.14347 -0.39700
C 	C 	0.21623 0.07836 0.11636 -0.00300
H 	H 	0.22530 0.06920 0.13270 0.07000
C 	C 	0.19003 0.06677 0.10476 -0.07900
C 	C 	0.17511 0.04084 0.12013 0.35900
N 	N 	0.27022 0.14066 0.10595 -0.08100
N 	N 	0.29273 0.14520 0.12504 -0.13700
O 	O 	0.15135 0.53108 0.60802 -0.40000
O 	O 	0.18690 0.53101 0.64347 -0.39600
C 	C 	0.21623 0.57836 0.61636 -0.00400
H 	H 	0.22530 0.56920 0.63270 0.07100
C 	C 	0.19003 0.56677 0.60476 -0.07800
C 	C 	0.17511 0.54084 0.62013 0.35900
N 	N 	0.27022 0.64066 0.60595 -0.08100
N 	N 	0.29273 0.64520 0.62504 -0.13700
O 	O 	0.65135 0.03108 0.60802 -0.40100
O 	O 	0.68690 0.03101 0.64347 -0.39700
C 	C 	0.71623 0.07836 0.61636 -0.00400
H 	H 	0.72530 0.06920 0.63270 0.07100
C 	C 	0.69003 0.06677 0.60476 -0.07800
C 	C 	0.67511 0.04084 0.62013 0.35900
N 	N 	0.77022 0.14066 0.60595 -0.08100
N 	N 	0.79273 0.14520 0.62504 -0.13700
O 	O 	0.65135 0.53108 0.10802 -0.40000
O 	O 	0.68690 0.53101 0.14347 -0.39600
C 	C 	0.71623 0.57836 0.11636 -0.00400
H 	H 	0.72530 0.56920 0.13270 0.07100
C 	C 	0.69003 0.56677 0.10476 -0.07800
C 	C 	0.67511 0.54084 0.12013 0.35900
N 	N 	0.77022 0.64066 0.10595 -0.08100
N 	N 	0.79273 0.64520 0.12504 -0.13700
O 	O 	0.84865 0.03108 0.89198 -0.40000
O 	O 	0.81310 0.03101 0.85653 -0.39700
C 	C 	0.78377 0.07836 0.88364 -0.00400
H 	H 	0.77470 0.06920 0.86730 0.07100
C 	C 	0.80997 0.06677 0.89524 -0.07800
C 	C 	0.82489 0.04084 0.87987 0.35900
N 	N 	0.72978 0.14066 0.89405 -0.08000
N 	N 	0.70727 0.14520 0.87496 -0.13700
O 	O 	0.84865 0.53108 0.39198 -0.40000
O 	O 	0.81310 0.53101 0.35653 -0.39600
C 	C 	0.78377 0.57836 0.38364 -0.00400
H 	H 	0.77470 0.56920 0.36730 0.07100
C 	C 	0.80997 0.56677 0.39524 -0.07700
C 	C 	0.82489 0.54084 0.37987 0.35900
N 	N 	0.72978 0.64066 0.39405 -0.08100
N 	N 	0.70727 0.64520 0.37496 -0.13700
O 	O 	0.34865 0.03108 0.39198 -0.40100
O 	O 	0.31310 0.03101 0.35653 -0.39700
C 	C 	0.28377 0.07836 0.38364 -0.00400
H 	H 	0.27470 0.06920 0.36730 0.07100
C 	C 	0.30997 0.06677 0.39524 -0.07800
C 	C 	0.32489 0.04084 0.37987 0.35900
N 	N 	0.22978 0.14066 0.39405 -0.08100
N 	N 	0.20727 0.14520 0.37496 -0.13700
O 	O 	0.34865 0.53108 0.89198 -0.39900
O 	O 	0.31310 0.53101 0.85653 -0.39600
C 	C 	0.28377 0.57836 0.88364 -0.00400
H 	H 	0.27470 0.56920 0.86730 0.07100
C 	C 	0.30997 0.56677 0.89524 -0.07700
C 	C 	0.32489 0.54084 0.87987 0.35900
N 	N 	0.22978 0.64066 0.89405 -0.08000
N 	N 	0.20727 0.64520 0.87496 -0.13700
O 	O 	0.96892 0.89198 0.15135 -0.39700
O 	O 	0.96899 0.85653 0.18690 -0.39400
C 	C 	0.92164 0.88364 0.21623 -0.00400
H 	H 	0.93080 0.86730 0.22530 0.07200
C 	C 	0.93323 0.89524 0.19003 -0.07600
C 	C 	0.95916 0.87987 0.17511 0.35800
N 	N 	0.85934 0.89405 0.27022 -0.08000
N 	N 	0.85480 0.87496 0.29273 -0.13700
O 	O 	0.96892 0.39198 0.65135 -0.39800
O 	O 	0.96899 0.35653 0.68690 -0.39400
C 	C 	0.92164 0.38364 0.71623 -0.00400
H 	H 	0.93080 0.36730 0.72530 0.07200
C 	C 	0.93323 0.39524 0.69003 -0.07700
C 	C 	0.95916 0.37987 0.67511 0.35800
N 	N 	0.85934 0.39405 0.77022 -0.08100
N 	N 	0.85480 0.37496 0.79273 -0.13700
O 	O 	0.46892 0.89198 0.65135 -0.39900
O 	O 	0.46899 0.85653 0.68690 -0.39600
C 	C 	0.42164 0.88364 0.71623 -0.00400
H 	H 	0.43080 0.86730 0.72530 0.07100
C 	C 	0.43323 0.89524 0.69003 -0.07700
C 	C 	0.45916 0.87987 0.67511 0.35900
N 	N 	0.35934 0.89405 0.77022 -0.08000
N 	N 	0.35480 0.87496 0.79273 -0.13700
O 	O 	0.46892 0.39198 0.15135 -0.40000
O 	O 	0.46899 0.35653 0.18690 -0.39600
C 	C 	0.42164 0.38364 0.21623 -0.00400
H 	H 	0.43080 0.36730 0.22530 0.07100
C 	C 	0.43323 0.39524 0.19003 -0.07800
C 	C 	0.45916 0.37987 0.17511 0.35900
N 	N 	0.35934 0.39405 0.27022 -0.08100
N 	N 	0.35480 0.37496 0.29273 -0.13700
O 	O 	0.96892 0.10802 0.84865 -0.39800
O 	O 	0.96899 0.14347 0.81310 -0.39400
C 	C 	0.92164 0.11636 0.78377 -0.00400
H 	H 	0.93080 0.13270 0.77470 0.07100
C 	C 	0.93323 0.10476 0.80997 -0.07700
C 	C 	0.95916 0.12013 0.82489 0.35800
N 	N 	0.85934 0.10595 0.72978 -0.08100
N 	N 	0.85480 0.12504 0.70727 -0.13700
O 	O 	0.96892 0.60802 0.34865 -0.39800
O 	O 	0.96899 0.64347 0.31310 -0.39400
C 	C 	0.92164 0.61636 0.28377 -0.00400
H 	H 	0.93080 0.63270 0.27470 0.07200
C 	C 	0.93323 0.60476 0.30997 -0.07700
C 	C 	0.95916 0.62013 0.32489 0.35800
N 	N 	0.85934 0.60595 0.22978 -0.08100
N 	N 	0.85480 0.62504 0.20727 -0.13700
O 	O 	0.46892 0.10802 0.34865 -0.40000
O 	O 	0.46899 0.14347 0.31310 -0.39600
C 	C 	0.42164 0.11636 0.28377 -0.00400
H 	H 	0.43080 0.13270 0.27470 0.07100
C 	C 	0.43323 0.10476 0.30997 -0.07800
C 	C 	0.45916 0.12013 0.32489 0.35900
N 	N 	0.35934 0.10595 0.22978 -0.08100
N 	N 	0.35480 0.12504 0.20727 -0.13700
O 	O 	0.46892 0.60802 0.84865 -0.40000
O 	O 	0.46899 0.64347 0.81310 -0.39600
C 	C 	0.42164 0.61636 0.78377 -0.00400
H 	H 	0.43080 0.63270 0.77470 0.07100
C 	C 	0.43323 0.60476 0.80997 -0.07800
C 	C 	0.45916 0.62013 0.82489 0.35900
N 	N 	0.35934 0.60595 0.72978 -0.08100
N 	N 	0.35480 0.62504 0.70727 -0.13700
O 	O 	0.03108 0.89198 0.84865 -0.40000
O 	O 	0.03101 0.85653 0.81310 -0.39700
C 	C 	0.07836 0.88364 0.78377 -0.00400
H 	H 	0.06920 0.86730 0.77470 0.07100
C 	C 	0.06677 0.89524 0.80997 -0.07800
C 	C 	0.04084 0.87987 0.82489 0.35900
N 	N 	0.14066 0.89405 0.72978 -0.08000
N 	N 	0.14520 0.87496 0.70727 -0.13700
O 	O 	0.03108 0.39198 0.34865 -0.40100
O 	O 	0.03101 0.35653 0.31310 -0.39700
C 	C 	0.07836 0.38364 0.28377 -0.00400
H 	H 	0.06920 0.36730 0.27470 0.07100
C 	C 	0.06677 0.39524 0.30997 -0.07800
C 	C 	0.04084 0.37987 0.32489 0.35900
N 	N 	0.14066 0.39405 0.22978 -0.08100
N 	N 	0.14520 0.37496 0.20727 -0.13700
O 	O 	0.53108 0.89198 0.34865 -0.39900
O 	O 	0.53101 0.85653 0.31310 -0.39600
C 	C 	0.57836 0.88364 0.28377 -0.00400
H 	H 	0.56920 0.86730 0.27470 0.07100
C 	C 	0.56677 0.89524 0.30997 -0.07700
C 	C 	0.54084 0.87987 0.32489 0.35900
N 	N 	0.64066 0.89405 0.22978 -0.08000
N 	N 	0.64520 0.87496 0.20727 -0.13700
O 	O 	0.53108 0.39198 0.84865 -0.40000
O 	O 	0.53101 0.35653 0.81310 -0.39600
C 	C 	0.57836 0.38364 0.78377 -0.00400
H 	H 	0.56920 0.36730 0.77470 0.07100
C 	C 	0.56677 0.39524 0.80997 -0.07700
C 	C 	0.54084 0.37987 0.82489 0.35900
N 	N 	0.64066 0.39405 0.72978 -0.08100
N 	N 	0.64520 0.37496 0.70727 -0.13700
O 	O 	0.03108 0.10802 0.15135 -0.40100
O 	O 	0.03101 0.14347 0.18690 -0.39700
C 	C 	0.07836 0.11636 0.21623 -0.00300
H 	H 	0.06920 0.13270 0.22530 0.07000
C 	C 	0.06677 0.10476 0.19003 -0.07900
C 	C 	0.04084 0.12013 0.17511 0.35900
N 	N 	0.14066 0.10595 0.27022 -0.08100
N 	N 	0.14520 0.12504 0.29273 -0.13700
O 	O 	0.03108 0.60802 0.65135 -0.40100
O 	O 	0.03101 0.64347 0.68690 -0.39700
C 	C 	0.07836 0.61636 0.71623 -0.00400
H 	H 	0.06920 0.63270 0.72530 0.07100
C 	C 	0.06677 0.60476 0.69003 -0.07800
C 	C 	0.04084 0.62013 0.67511 0.35900
N 	N 	0.14066 0.60595 0.77022 -0.08100
N 	N 	0.14520 0.62504 0.79273 -0.13700
O 	O 	0.53108 0.10802 0.65135 -0.40000
O 	O 	0.53101 0.14347 0.68690 -0.39600
C 	C 	0.57836 0.11636 0.71623 -0.00400
H 	H 	0.56920 0.13270 0.72530 0.07100
C 	C 	0.56677 0.10476 0.69003 -0.07800
C 	C 	0.54084 0.12013 0.67511 0.35900
N 	N 	0.64066 0.10595 0.77022 -0.08100
N 	N 	0.64520 0.12504 0.79273 -0.13700
O 	O 	0.53108 0.60802 0.15135 -0.40000
O 	O 	0.53101 0.64347 0.18690 -0.39600
C 	C 	0.57836 0.61636 0.21623 -0.00400
H 	H 	0.56920 0.63270 0.22530 0.07100
C 	C 	0.56677 0.60476 0.19003 -0.07800
C 	C 	0.54084 0.62013 0.17511 0.35900
N 	N 	0.64066 0.60595 0.27022 -0.08100
N 	N 	0.64520 0.62504 0.29273 -0.13700
Cu	Cu	0.32380 0.12316 0.17620 0.91500
O 	O 	0.29350 0.10140 0.20650 -0.15500
O 	O 	0.34900 0.08720 0.15100 -0.14300
O 	O 	0.31000 0.08350 0.19000 -0.16300
O 	O 	0.36550 0.10980 0.13450 -0.07100
Cu	Cu	0.32380 0.62316 0.67620 0.91500
O 	O 	0.29350 0.60140 0.70650 -0.15500
O 	O 	0.34900 0.58720 0.65100 -0.14200
O 	O 	0.31000 0.58350 0.69000 -0.16200
O 	O 	0.36550 0.60980 0.63450 -0.07100
Cu	Cu	0.67620 0.87684 0.17620 0.91500
O 	O 	0.70650 0.89860 0.20650 -0.15400
O 	O 	0.65100 0.91280 0.15100 -0.14200
O 	O 	0.69000 0.91650 0.19000 -0.16100
O 	O 	0.63450 0.89020 0.13450 -0.07100
Cu	Cu	0.67620 0.37684 0.67620 0.91500
O 	O 	0.70650 0.39860 0.70650 -0.15500
O 	O 	0.65100 0.41280 0.65100 -0.14200
O 	O 	0.69000 0.41650 0.69000 -0.16200
O 	O 	0.63450 0.39020 0.63450 -0.07100
Cu	Cu	0.17620 0.37684 0.17620 0.91500
O 	O 	0.20650 0.39860 0.20650 -0.15500
O 	O 	0.15100 0.41280 0.15100 -0.14300
O 	O 	0.19000 0.41650 0.19000 -0.16200
O 	O 	0.13450 0.39020 0.13450 -0.07100
Cu	Cu	0.67620 0.12316 0.82380 0.91500
O 	O 	0.70650 0.10140 0.79350 -0.15500
O 	O 	0.65100 0.08720 0.84900 -0.14300
O 	O 	0.69000 0.08350 0.81000 -0.16200
O 	O 	0.63450 0.10980 0.86550 -0.07100
Cu	Cu	0.67620 0.62316 0.32380 0.91500
O 	O 	0.70650 0.60140 0.29350 -0.15500
O 	O 	0.65100 0.58720 0.34900 -0.14200
O 	O 	0.69000 0.58350 0.31000 -0.16200
O 	O 	0.63450 0.60980 0.36550 -0.07100
Cu	Cu	0.17620 0.12316 0.32380 0.91500
O 	O 	0.20650 0.10140 0.29350 -0.15500
O 	O 	0.15100 0.08720 0.34900 -0.14300
O 	O 	0.19000 0.08350 0.31000 -0.16300
O 	O 	0.13450 0.10980 0.36550 -0.07100
Cu	Cu	0.32380 0.87684 0.82380 0.91500
O 	O 	0.29350 0.89860 0.79350 -0.15500
O 	O 	0.34900 0.91280 0.84900 -0.14100
O 	O 	0.31000 0.91650 0.81000 -0.16100
O 	O 	0.36550 0.89020 0.86550 -0.07100
Cu	Cu	0.32380 0.37684 0.32380 0.91500
O 	O 	0.29350 0.39860 0.29350 -0.15500
O 	O 	0.34900 0.41280 0.34900 -0.14200
O 	O 	0.31000 0.41650 0.31000 -0.16200
O 	O 	0.36550 0.39020 0.36550 -0.07100
Cu	Cu	0.17620 0.32380 0.12316 0.91500
O 	O 	0.20650 0.29350 0.10140 -0.15500
O 	O 	0.15100 0.34900 0.08720 -0.14300
O 	O 	0.19000 0.31000 0.08350 -0.16300
O 	O 	0.13450 0.36550 0.10980 -0.07100
Cu	Cu	0.17620 0.82380 0.62316 0.91500
O 	O 	0.20650 0.79350 0.60140 -0.15500
O 	O 	0.15100 0.84900 0.58720 -0.14200
O 	O 	0.19000 0.81000 0.58350 -0.16200
O 	O 	0.13450 0.86550 0.60980 -0.07100
Cu	Cu	0.17620 0.67620 0.87684 0.91500
O 	O 	0.20650 0.70650 0.89860 -0.15400
O 	O 	0.15100 0.65100 0.91280 -0.14200
O 	O 	0.19000 0.69000 0.91650 -0.16100
O 	O 	0.13450 0.63450 0.89020 -0.07100
Cu	Cu	0.17620 0.17620 0.37684 0.91500
O 	O 	0.20650 0.20650 0.39860 -0.15500
O 	O 	0.15100 0.15100 0.41280 -0.14300
O 	O 	0.19000 0.19000 0.41650 -0.16200
O 	O 	0.13450 0.13450 0.39020 -0.07100
Cu	Cu	0.82380 0.67620 0.12316 0.91500
O 	O 	0.79350 0.70650 0.10140 -0.15500
O 	O 	0.84900 0.65100 0.08720 -0.14300
O 	O 	0.81000 0.69000 0.08350 -0.16200
O 	O 	0.86550 0.63450 0.10980 -0.07100
Cu	Cu	0.82380 0.17620 0.62316 0.91500
O 	O 	0.79350 0.20650 0.60140 -0.15500
O 	O 	0.84900 0.15100 0.58720 -0.14200
O 	O 	0.81000 0.19000 0.58350 -0.16200
O 	O 	0.86550 0.13450 0.60980 -0.07100
Cu	Cu	0.32380 0.17620 0.12316 0.91500
O 	O 	0.29350 0.20650 0.10140 -0.15500
O 	O 	0.34900 0.15100 0.08720 -0.14300
O 	O 	0.31000 0.19000 0.08350 -0.16300
O 	O 	0.36550 0.13450 0.10980 -0.07100
Cu	Cu	0.82380 0.32380 0.87684 0.91500
O 	O 	0.79350 0.29350 0.89860 -0.15500
O 	O 	0.84900 0.34900 0.91280 -0.14100
O 	O 	0.81000 0.31000 0.91650 -0.16100
O 	O 	0.86550 0.36550 0.89020 -0.07100
Cu	Cu	0.82380 0.82380 0.37684 0.91500
O 	O 	0.79350 0.79350 0.39860 -0.15500
O 	O 	0.84900 0.84900 0.41280 -0.14200
O 	O 	0.81000 0.81000 0.41650 -0.16200
O 	O 	0.86550 0.86550 0.39020 -0.07100
Cu	Cu	0.32380 0.32380 0.37684 0.91500
O 	O 	0.29350 0.29350 0.39860 -0.15500
O 	O 	0.34900 0.34900 0.41280 -0.14200
O 	O 	0.31000 0.31000 0.41650 -0.16200
O 	O 	0.36550 0.36550 0.39020 -0.07100
Cu	Cu	0.12316 0.17620 0.32380 0.91500
O 	O 	0.10140 0.20650 0.29350 -0.15500
O 	O 	0.08720 0.15100 0.34900 -0.14300
O 	O 	0.08350 0.19000 0.31000 -0.16300
O 	O 	0.10980 0.13450 0.36550 -0.07100
Cu	Cu	0.62316 0.17620 0.82380 0.91500
O 	O 	0.60140 0.20650 0.79350 -0.15500
O 	O 	0.58720 0.15100 0.84900 -0.14200
O 	O 	0.58350 0.19000 0.81000 -0.16200
O 	O 	0.60980 0.13450 0.86550 -0.07100
Cu	Cu	0.87684 0.17620 0.67620 0.91500
O 	O 	0.89860 0.20650 0.70650 -0.15400
O 	O 	0.91280 0.15100 0.65100 -0.14200
O 	O 	0.91650 0.19000 0.69000 -0.16100
O 	O 	0.89020 0.13450 0.63450 -0.07100
Cu	Cu	0.37684 0.17620 0.17620 0.91500
O 	O 	0.39860 0.20650 0.20650 -0.15500
O 	O 	0.41280 0.15100 0.15100 -0.14300
O 	O 	0.41650 0.19000 0.19000 -0.16200
O 	O 	0.39020 0.13450 0.13450 -0.07100
Cu	Cu	0.12316 0.82380 0.67620 0.91500
O 	O 	0.10140 0.79350 0.70650 -0.15500
O 	O 	0.08720 0.84900 0.65100 -0.14300
O 	O 	0.08350 0.81000 0.69000 -0.16200
O 	O 	0.10980 0.86550 0.63450 -0.07100
Cu	Cu	0.12316 0.32380 0.17620 0.91500
O 	O 	0.10140 0.29350 0.20650 -0.15500
O 	O 	0.08720 0.34900 0.15100 -0.14300
O 	O 	0.08350 0.31000 0.19000 -0.16300
O 	O 	0.10980 0.36550 0.13450 -0.07100
Cu	Cu	0.62316 0.82380 0.17620 0.91500
O 	O 	0.60140 0.79350 0.20650 -0.15500
O 	O 	0.58720 0.84900 0.15100 -0.14200
O 	O 	0.58350 0.81000 0.19000 -0.16200
O 	O 	0.60980 0.86550 0.13450 -0.07100
Cu	Cu	0.87684 0.82380 0.32380 0.91500
O 	O 	0.89860 0.79350 0.29350 -0.15500
O 	O 	0.91280 0.84900 0.34900 -0.14100
O 	O 	0.91650 0.81000 0.31000 -0.16100
O 	O 	0.89020 0.86550 0.36550 -0.07100
Cu	Cu	0.37684 0.82380 0.82380 0.91500
O 	O 	0.39860 0.79350 0.79350 -0.15500
O 	O 	0.41280 0.84900 0.84900 -0.14200
O 	O 	0.41650 0.81000 0.81000 -0.16200
O 	O 	0.39020 0.86550 0.86550 -0.07100
Cu	Cu	0.37684 0.32380 0.32380 0.91500
O 	O 	0.39860 0.29350 0.29350 -0.15500
O 	O 	0.41280 0.34900 0.34900 -0.14200
O 	O 	0.41650 0.31000 0.31000 -0.16200
O 	O 	0.39020 0.36550 0.36550 -0.07100
Cu	Cu	0.12316 0.32380 0.82380 0.91500
O 	O 	0.10140 0.29350 0.79350 -0.15500
O 	O 	0.08720 0.34900 0.84900 -0.14300
O 	O 	0.08350 0.31000 0.81000 -0.16200
O 	O 	0.10980 0.36550 0.86550 -0.07100
Cu	Cu	0.62316 0.32380 0.32380 0.91500
O 	O 	0.60140 0.29350 0.29350 -0.15500
O 	O 	0.58720 0.34900 0.34900 -0.14200
O 	O 	0.58350 0.31000 0.31000 -0.16200
O 	O 	0.60980 0.36550 0.36550 -0.07100
Cu	Cu	0.87684 0.67620 0.82380 0.91500
O 	O 	0.89860 0.70650 0.79350 -0.15500
O 	O 	0.91280 0.65100 0.84900 -0.14100
O 	O 	0.91650 0.69000 0.81000 -0.16100
O 	O 	0.89020 0.63450 0.86550 -0.07100
Cu	Cu	0.87684 0.17620 0.32380 0.91500
O 	O 	0.89860 0.20650 0.29350 -0.15400
O 	O 	0.91280 0.15100 0.34900 -0.14200
O 	O 	0.91650 0.19000 0.31000 -0.16100
O 	O 	0.89020 0.13450 0.36550 -0.07100
Cu	Cu	0.37684 0.67620 0.32380 0.91500
O 	O 	0.39860 0.70650 0.29350 -0.15500
O 	O 	0.41280 0.65100 0.34900 -0.14200
O 	O 	0.41650 0.69000 0.31000 -0.16200
O 	O 	0.39020 0.63450 0.36550 -0.07100
Cu	Cu	0.12316 0.67620 0.17620 0.91500
O 	O 	0.10140 0.70650 0.20650 -0.15500
O 	O 	0.08720 0.65100 0.15100 -0.14300
O 	O 	0.08350 0.69000 0.19000 -0.16300
O 	O 	0.10980 0.63450 0.13450 -0.07100
Cu	Cu	0.62316 0.67620 0.67620 0.91500
O 	O 	0.60140 0.70650 0.70650 -0.15500
O 	O 	0.58720 0.65100 0.65100 -0.14200
O 	O 	0.58350 0.69000 0.69000 -0.16200
O 	O 	0.60980 0.63450 0.63450 -0.07100
Cu	Cu	0.62316 0.17620 0.17620 0.91500
O 	O 	0.60140 0.20650 0.20650 -0.15500
O 	O 	0.58720 0.15100 0.15100 -0.14300
O 	O 	0.58350 0.19000 0.19000 -0.16200
O 	O 	0.60980 0.13450 0.13450 -0.07100
Cu	Cu	0.87684 0.32380 0.17620 0.91500
O 	O 	0.89860 0.29350 0.20650 -0.15400
O 	O 	0.91280 0.34900 0.15100 -0.14200
O 	O 	0.91650 0.31000 0.19000 -0.16100
O 	O 	0.89020 0.36550 0.13450 -0.07100
Cu	Cu	0.37684 0.32380 0.67620 0.91500
O 	O 	0.39860 0.29350 0.70650 -0.15500
O 	O 	0.41280 0.34900 0.65100 -0.14200
O 	O 	0.41650 0.31000 0.69000 -0.16200
O 	O 	0.39020 0.36550 0.63450 -0.07100
Cu	Cu	0.32380 0.17620 0.87684 0.91500
O 	O 	0.29350 0.20650 0.89860 -0.15400
O 	O 	0.34900 0.15100 0.91280 -0.14200
O 	O 	0.31000 0.19000 0.91650 -0.16100
O 	O 	0.36550 0.13450 0.89020 -0.07100
Cu	Cu	0.32380 0.67620 0.37684 0.91500
O 	O 	0.29350 0.70650 0.39860 -0.15500
O 	O 	0.34900 0.65100 0.41280 -0.14200
O 	O 	0.31000 0.69000 0.41650 -0.16200
O 	O 	0.36550 0.63450 0.39020 -0.07100
Cu	Cu	0.67620 0.17620 0.12316 0.91500
O 	O 	0.70650 0.20650 0.10140 -0.15500
O 	O 	0.65100 0.15100 0.08720 -0.14300
O 	O 	0.69000 0.19000 0.08350 -0.16300
O 	O 	0.63450 0.13450 0.10980 -0.07100
Cu	Cu	0.67620 0.67620 0.62316 0.91500
O 	O 	0.70650 0.70650 0.60140 -0.15500
O 	O 	0.65100 0.65100 0.58720 -0.14200
O 	O 	0.69000 0.69000 0.58350 -0.16200
O 	O 	0.63450 0.63450 0.60980 -0.07100
Cu	Cu	0.17620 0.17620 0.62316 0.91500
O 	O 	0.20650 0.20650 0.60140 -0.15500
O 	O 	0.15100 0.15100 0.58720 -0.14300
O 	O 	0.19000 0.19000 0.58350 -0.16200
O 	O 	0.13450 0.13450 0.60980 -0.07100
Cu	Cu	0.67620 0.82380 0.87684 0.91500
O 	O 	0.70650 0.79350 0.89860 -0.15500
O 	O 	0.65100 0.84900 0.91280 -0.14100
O 	O 	0.69000 0.81000 0.91650 -0.16100
O 	O 	0.63450 0.86550 0.89020 -0.07100
Cu	Cu	0.67620 0.32380 0.37684 0.91500
O 	O 	0.70650 0.29350 0.39860 -0.15500
O 	O 	0.65100 0.34900 0.41280 -0.14200
O 	O 	0.69000 0.31000 0.41650 -0.16200
O 	O 	0.63450 0.36550 0.39020 -0.07100
Cu	Cu	0.17620 0.32380 0.87684 0.91500
O 	O 	0.20650 0.29350 0.89860 -0.15400
O 	O 	0.15100 0.34900 0.91280 -0.14200
O 	O 	0.19000 0.31000 0.91650 -0.16100
O 	O 	0.13450 0.36550 0.89020 -0.07100
Cu	Cu	0.32380 0.82380 0.12316 0.91500
O 	O 	0.29350 0.79350 0.10140 -0.15500
O 	O 	0.34900 0.84900 0.08720 -0.14300
O 	O 	0.31000 0.81000 0.08350 -0.16200
O 	O 	0.36550 0.86550 0.10980 -0.07100
Cu	Cu	0.32380 0.32380 0.62316 0.91500
O 	O 	0.29350 0.29350 0.60140 -0.15500
O 	O 	0.34900 0.34900 0.58720 -0.14200
O 	O 	0.31000 0.31000 0.58350 -0.16200
O 	O 	0.36550 0.36550 0.60980 -0.07100
Cu	Cu	0.17620 0.12316 0.67620 0.91500
O 	O 	0.20650 0.10140 0.70650 -0.15500
O 	O 	0.15100 0.08720 0.65100 -0.14300
O 	O 	0.19000 0.08350 0.69000 -0.16300
O 	O 	0.13450 0.10980 0.63450 -0.07100
Cu	Cu	0.17620 0.62316 0.17620 0.91500
O 	O 	0.20650 0.60140 0.20650 -0.15500
O 	O 	0.15100 0.58720 0.15100 -0.14300
O 	O 	0.19000 0.58350 0.19000 -0.16200
O 	O 	0.13450 0.60980 0.13450 -0.07100
Cu	Cu	0.17620 0.87684 0.32380 0.91500
O 	O 	0.20650 0.89860 0.29350 -0.15400
O 	O 	0.15100 0.91280 0.34900 -0.14200
O 	O 	0.19000 0.91650 0.31000 -0.16100
O 	O 	0.13450 0.89020 0.36550 -0.07100
Cu	Cu	0.17620 0.37684 0.82380 0.91500
O 	O 	0.20650 0.39860 0.79350 -0.15500
O 	O 	0.15100 0.41280 0.84900 -0.14200
O 	O 	0.19000 0.41650 0.81000 -0.16200
O 	O 	0.13450 0.39020 0.86550 -0.07100
Cu	Cu	0.82380 0.12316 0.32380 0.91500
O 	O 	0.79350 0.10140 0.29350 -0.15500
O 	O 	0.84900 0.08720 0.34900 -0.14300
O 	O 	0.81000 0.08350 0.31000 -0.16200
O 	O 	0.86550 0.10980 0.36550 -0.07100
Cu	Cu	0.82380 0.62316 0.82380 0.91500
O 	O 	0.79350 0.60140 0.79350 -0.15500
O 	O 	0.84900 0.58720 0.84900 -0.14200
O 	O 	0.81000 0.58350 0.81000 -0.16200
O 	O 	0.86550 0.60980 0.86550 -0.07100
Cu	Cu	0.32380 0.62316 0.32380 0.91500
O 	O 	0.29350 0.60140 0.29350 -0.15500
O 	O 	0.34900 0.58720 0.34900 -0.14200
O 	O 	0.31000 0.58350 0.31000 -0.16200
O 	O 	0.36550 0.60980 0.36550 -0.07100
Cu	Cu	0.82380 0.87684 0.67620 0.91500
O 	O 	0.79350 0.89860 0.70650 -0.15500
O 	O 	0.84900 0.91280 0.65100 -0.14100
O 	O 	0.81000 0.91650 0.69000 -0.16100
O 	O 	0.86550 0.89020 0.63450 -0.07100
Cu	Cu	0.82380 0.37684 0.17620 0.91500
O 	O 	0.79350 0.39860 0.20650 -0.15500
O 	O 	0.84900 0.41280 0.15100 -0.14200
O 	O 	0.81000 0.41650 0.19000 -0.16200
O 	O 	0.86550 0.39020 0.13450 -0.07100
Cu	Cu	0.32380 0.87684 0.17620 0.91500
O 	O 	0.29350 0.89860 0.20650 -0.15400
O 	O 	0.34900 0.91280 0.15100 -0.14200
O 	O 	0.31000 0.91650 0.19000 -0.16100
O 	O 	0.36550 0.89020 0.13450 -0.07100
Cu	Cu	0.67620 0.87684 0.82380 0.91500
O 	O 	0.70650 0.89860 0.79350 -0.15500
O 	O 	0.65100 0.91280 0.84900 -0.14100
O 	O 	0.69000 0.91650 0.81000 -0.16100
O 	O 	0.63450 0.89020 0.86550 -0.07100
Cu	Cu	0.67620 0.37684 0.32380 0.91500
O 	O 	0.70650 0.39860 0.29350 -0.15500
O 	O 	0.65100 0.41280 0.34900 -0.14200
O 	O 	0.69000 0.41650 0.31000 -0.16200
O 	O 	0.63450 0.39020 0.36550 -0.07100
Cu	Cu	0.32380 0.12316 0.82380 0.91500
O 	O 	0.29350 0.10140 0.79350 -0.15500
O 	O 	0.34900 0.08720 0.84900 -0.14300
O 	O 	0.31000 0.08350 0.81000 -0.16200
O 	O 	0.36550 0.10980 0.86550 -0.07100
Cu	Cu	0.32380 0.37684 0.67620 0.91500
O 	O 	0.29350 0.39860 0.70650 -0.15500
O 	O 	0.34900 0.41280 0.65100 -0.14200
O 	O 	0.31000 0.41650 0.69000 -0.16200
O 	O 	0.36550 0.39020 0.63450 -0.07100
Cu	Cu	0.67620 0.12316 0.17620 0.91500
O 	O 	0.70650 0.10140 0.20650 -0.15500
O 	O 	0.65100 0.08720 0.15100 -0.14300
O 	O 	0.69000 0.08350 0.19000 -0.16300
O 	O 	0.63450 0.10980 0.13450 -0.07100
Cu	Cu	0.67620 0.62316 0.67620 0.91500
O 	O 	0.70650 0.60140 0.70650 -0.15500
O 	O 	0.65100 0.58720 0.65100 -0.14200
O 	O 	0.69000 0.58350 0.69000 -0.16200
O 	O 	0.63450 0.60980 0.63450 -0.07100
Cu	Cu	0.82380 0.67620 0.87684 0.91500
O 	O 	0.79350 0.70650 0.89860 -0.15500
O 	O 	0.84900 0.65100 0.91280 -0.14100
O 	O 	0.81000 0.69000 0.91650 -0.16100
O 	O 	0.86550 0.63450 0.89020 -0.07100
Cu	Cu	0.82380 0.17620 0.37684 0.91500
O 	O 	0.79350 0.20650 0.39860 -0.15500
O 	O 	0.84900 0.15100 0.41280 -0.14200
O 	O 	0.81000 0.19000 0.41650 -0.16200
O 	O 	0.86550 0.13450 0.39020 -0.07100
Cu	Cu	0.82380 0.32380 0.12316 0.91500
O 	O 	0.79350 0.29350 0.10140 -0.15500
O 	O 	0.84900 0.34900 0.08720 -0.14300
O 	O 	0.81000 0.31000 0.08350 -0.16200
O 	O 	0.86550 0.36550 0.10980 -0.07100
Cu	Cu	0.82380 0.82380 0.62316 0.91500
O 	O 	0.79350 0.79350 0.60140 -0.15500
O 	O 	0.84900 0.84900 0.58720 -0.14200
O 	O 	0.81000 0.81000 0.58350 -0.16200
O 	O 	0.86550 0.86550 0.60980 -0.07100
Cu	Cu	0.17620 0.82380 0.37684 0.91500
O 	O 	0.20650 0.79350 0.39860 -0.15500
O 	O 	0.15100 0.84900 0.41280 -0.14200
O 	O 	0.19000 0.81000 0.41650 -0.16200
O 	O 	0.13450 0.86550 0.39020 -0.07100
Cu	Cu	0.17620 0.67620 0.12316 0.91500
O 	O 	0.20650 0.70650 0.10140 -0.15500
O 	O 	0.15100 0.65100 0.08720 -0.14300
O 	O 	0.19000 0.69000 0.08350 -0.16300
O 	O 	0.13450 0.63450 0.10980 -0.07100
Cu	Cu	0.87684 0.82380 0.67620 0.91500
O 	O 	0.89860 0.79350 0.70650 -0.15500
O 	O 	0.91280 0.84900 0.65100 -0.14100
O 	O 	0.91650 0.81000 0.69000 -0.16100
O 	O 	0.89020 0.86550 0.63450 -0.07100
Cu	Cu	0.37684 0.82380 0.17620 0.91500
O 	O 	0.39860 0.79350 0.20650 -0.15500
O 	O 	0.41280 0.84900 0.15100 -0.14200
O 	O 	0.41650 0.81000 0.19000 -0.16200
O 	O 	0.39020 0.86550 0.13450 -0.07100
Cu	Cu	0.12316 0.82380 0.32380 0.91500
O 	O 	0.10140 0.79350 0.29350 -0.15500
O 	O 	0.08720 0.84900 0.34900 -0.14300
O 	O 	0.08350 0.81000 0.31000 -0.16200
O 	O 	0.10980 0.86550 0.36550 -0.07100
Cu	Cu	0.62316 0.82380 0.82380 0.91500
O 	O 	0.60140 0.79350 0.79350 -0.15500
O 	O 	0.58720 0.84900 0.84900 -0.14200
O 	O 	0.58350 0.81000 0.81000 -0.16200
O 	O 	0.60980 0.86550 0.86550 -0.07100
Cu	Cu	0.37684 0.17620 0.82380 0.91500
O 	O 	0.39860 0.20650 0.79350 -0.15500
O 	O 	0.41280 0.15100 0.84900 -0.14200
O 	O 	0.41650 0.19000 0.81000 -0.16200
O 	O 	0.39020 0.13450 0.86550 -0.07100
Cu	Cu	0.12316 0.17620 0.67620 0.91500
O 	O 	0.10140 0.20650 0.70650 -0.15500
O 	O 	0.08720 0.15100 0.65100 -0.14300
O 	O 	0.08350 0.19000 0.69000 -0.16300
O 	O 	0.10980 0.13450 0.63450 -0.07100
Cu	Cu	0.87684 0.67620 0.17620 0.91500
O 	O 	0.89860 0.70650 0.20650 -0.15400
O 	O 	0.91280 0.65100 0.15100 -0.14200
O 	O 	0.91650 0.69000 0.19000 -0.16100
O 	O 	0.89020 0.63450 0.13450 -0.07100
Cu	Cu	0.37684 0.67620 0.67620 0.91500
O 	O 	0.39860 0.70650 0.70650 -0.15500
O 	O 	0.41280 0.65100 0.65100 -0.14200
O 	O 	0.41650 0.69000 0.69000 -0.16200
O 	O 	0.39020 0.63450 0.63450 -0.07100
Cu	Cu	0.62316 0.32380 0.67620 0.91500
O 	O 	0.60140 0.29350 0.70650 -0.15500
O 	O 	0.58720 0.34900 0.65100 -0.14200
O 	O 	0.58350 0.31000 0.69000 -0.16200
O 	O 	0.60980 0.36550 0.63450 -0.07100
Cu	Cu	0.87684 0.32380 0.82380 0.91500
O 	O 	0.89860 0.29350 0.79350 -0.15500
O 	O 	0.91280 0.34900 0.84900 -0.14100
O 	O 	0.91650 0.31000 0.81000 -0.16100
O 	O 	0.89020 0.36550 0.86550 -0.07100
Cu	Cu	0.12316 0.67620 0.82380 0.91500
O 	O 	0.10140 0.70650 0.79350 -0.15500
O 	O 	0.08720 0.65100 0.84900 -0.14300
O 	O 	0.08350 0.69000 0.81000 -0.16200
O 	O 	0.10980 0.63450 0.86550 -0.07100
Cu	Cu	0.62316 0.67620 0.32380 0.91500
O 	O 	0.60140 0.70650 0.29350 -0.15500
O 	O 	0.58720 0.65100 0.34900 -0.14200
O 	O 	0.58350 0.69000 0.31000 -0.16200
O 	O 	0.60980 0.63450 0.36550 -0.07100
Cu	Cu	0.67620 0.82380 0.12316 0.91500
O 	O 	0.70650 0.79350 0.10140 -0.15500
O 	O 	0.65100 0.84900 0.08720 -0.14300
O 	O 	0.69000 0.81000 0.08350 -0.16200
O 	O 	0.63450 0.86550 0.10980 -0.07100
Cu	Cu	0.67620 0.32380 0.62316 0.91500
O 	O 	0.70650 0.29350 0.60140 -0.15500
O 	O 	0.65100 0.34900 0.58720 -0.14200
O 	O 	0.69000 0.31000 0.58350 -0.16200
O 	O 	0.63450 0.36550 0.60980 -0.07100
Cu	Cu	0.32380 0.82380 0.87684 0.91500
O 	O 	0.29350 0.79350 0.89860 -0.15500
O 	O 	0.34900 0.84900 0.91280 -0.14100
O 	O 	0.31000 0.81000 0.91650 -0.16100
O 	O 	0.36550 0.86550 0.89020 -0.07100
Cu	Cu	0.32380 0.67620 0.62316 0.91500
O 	O 	0.29350 0.70650 0.60140 -0.15500
O 	O 	0.34900 0.65100 0.58720 -0.14200
O 	O 	0.31000 0.69000 0.58350 -0.16200
O 	O 	0.36550 0.63450 0.60980 -0.07100
Cu	Cu	0.67620 0.17620 0.87684 0.91500
O 	O 	0.70650 0.20650 0.89860 -0.15400
O 	O 	0.65100 0.15100 0.91280 -0.14200
O 	O 	0.69000 0.19000 0.91650 -0.16100
O 	O 	0.63450 0.13450 0.89020 -0.07100
Cu	Cu	0.67620 0.67620 0.37684 0.91500
O 	O 	0.70650 0.70650 0.39860 -0.15500
O 	O 	0.65100 0.65100 0.41280 -0.14200
O 	O 	0.69000 0.69000 0.41650 -0.16200
O 	O 	0.63450 0.63450 0.39020 -0.07100
Cu	Cu	0.82380 0.87684 0.32380 0.91500
O 	O 	0.79350 0.89860 0.29350 -0.15500
O 	O 	0.84900 0.91280 0.34900 -0.14100
O 	O 	0.81000 0.91650 0.31000 -0.16100
O 	O 	0.86550 0.89020 0.36550 -0.07100
Cu	Cu	0.82380 0.37684 0.82380 0.91500
O 	O 	0.79350 0.39860 0.79350 -0.15500
O 	O 	0.84900 0.41280 0.84900 -0.14200
O 	O 	0.81000 0.41650 0.81000 -0.16200
O 	O 	0.86550 0.39020 0.86550 -0.07100
Cu	Cu	0.82380 0.12316 0.67620 0.91500
O 	O 	0.79350 0.10140 0.70650 -0.15500
O 	O 	0.84900 0.08720 0.65100 -0.14300
O 	O 	0.81000 0.08350 0.69000 -0.16200
O 	O 	0.86550 0.10980 0.63450 -0.07100
Cu	Cu	0.82380 0.62316 0.17620 0.91500
O 	O 	0.79350 0.60140 0.20650 -0.15500
O 	O 	0.84900 0.58720 0.15100 -0.14200
O 	O 	0.81000 0.58350 0.19000 -0.16200
O 	O 	0.86550 0.60980 0.13450 -0.07100
Cu	Cu	0.17620 0.87684 0.67620 0.91500
O 	O 	0.20650 0.89860 0.70650 -0.15400
O 	O 	0.15100 0.91280 0.65100 -0.14200
O 	O 	0.19000 0.91650 0.69000 -0.16100
O 	O 	0.13450 0.89020 0.63450 -0.07100
Cu	Cu	0.17620 0.62316 0.82380 0.91500
O 	O 	0.20650 0.60140 0.79350 -0.15500
O 	O 	0.15100 0.58720 0.84900 -0.14200
O 	O 	0.19000 0.58350 0.81000 -0.16200
O 	O 	0.13450 0.60980 0.86550 -0.07100
O 	O 	0.33480 0.16520 0.16520 -0.52500
O 	O 	0.33480 0.66520 0.66520 -0.52500
O 	O 	0.66520 0.83480 0.16520 -0.52500
O 	O 	0.66520 0.33480 0.66520 -0.52500
O 	O 	0.16520 0.33480 0.16520 -0.52500
O 	O 	0.66520 0.16520 0.83480 -0.52500
O 	O 	0.66520 0.66520 0.33480 -0.52500
O 	O 	0.16520 0.16520 0.33480 -0.52500
O 	O 	0.33480 0.83480 0.83480 -0.52500
O 	O 	0.33480 0.33480 0.33480 -0.52500
O 	O 	0.16520 0.66520 0.83480 -0.52500
O 	O 	0.83480 0.66520 0.16520 -0.52500
O 	O 	0.83480 0.33480 0.83480 -0.52500
O 	O 	0.83480 0.16520 0.66520 -0.52500
O 	O 	0.16520 0.83480 0.66520 -0.52500
O 	O 	0.83480 0.83480 0.33480 -0.52500
O 	O 	0.16520 0.33480 0.83480 -0.52500
O 	O 	0.83480 0.66520 0.83480 -0.52500
O 	O 	0.83480 0.16520 0.33480 -0.52500
O 	O 	0.33480 0.16520 0.83480 -0.52500
O 	O 	0.16520 0.66520 0.16520 -0.52500
O 	O 	0.83480 0.33480 0.16520 -0.52500
O 	O 	0.33480 0.33480 0.66520 -0.52500
O 	O 	0.33480 0.66520 0.33480 -0.52500
O 	O 	0.66520 0.16520 0.16520 -0.52500
O 	O 	0.66520 0.66520 0.66520 -0.52500
O 	O 	0.66520 0.83480 0.83480 -0.52500
O 	O 	0.66520 0.33480 0.33480 -0.52500
O 	O 	0.16520 0.83480 0.33480 -0.52500
O 	O 	0.33480 0.83480 0.16520 -0.52500
O 	O 	0.16520 0.16520 0.66520 -0.52500
O 	O 	0.83480 0.83480 0.66520 -0.52500
Cu	Cu	0.16854 0.16854 -0.00000 0.91000
Cu	Cu	0.12652 0.12652 -0.00000 0.90400
Cu	Cu	0.16854 0.66854 0.50000 0.91200
Cu	Cu	0.12652 0.62652 0.50000 0.90600
Cu	Cu	0.66854 0.16854 0.50000 0.91200
Cu	Cu	0.62652 0.12652 0.50000 0.90600
Cu	Cu	0.66854 0.66854 -0.00000 0.91000
Cu	Cu	0.62652 0.62652 -0.00000 0.90400
Cu	Cu	0.83146 0.83146 -0.00000 0.91000
Cu	Cu	0.87348 0.87348 -0.00000 0.90400
Cu	Cu	0.83146 0.33146 0.50000 0.91200
Cu	Cu	0.87348 0.37348 0.50000 0.90600
Cu	Cu	0.33146 0.83146 0.50000 0.91200
Cu	Cu	0.37348 0.87348 0.50000 0.90600
Cu	Cu	0.33146 0.33146 -0.00000 0.91000
Cu	Cu	0.37348 0.37348 -0.00000 0.90400
Cu	Cu	0.83146 0.16854 -0.00000 0.91000
Cu	Cu	0.87348 0.12652 -0.00000 0.90400
Cu	Cu	0.83146 0.66854 0.50000 0.91200
Cu	Cu	0.87348 0.62652 0.50000 0.90600
Cu	Cu	0.33146 0.16854 0.50000 0.91200
Cu	Cu	0.37348 0.12652 0.50000 0.90600
Cu	Cu	0.33146 0.66854 -0.00000 0.91000
Cu	Cu	0.37348 0.62652 -0.00000 0.90400
Cu	Cu	0.16854 0.83146 -0.00000 0.91000
Cu	Cu	0.12652 0.87348 -0.00000 0.90400
Cu	Cu	0.16854 0.33146 0.50000 0.91200
Cu	Cu	0.12652 0.37348 0.50000 0.90600
Cu	Cu	0.66854 0.83146 0.50000 0.91200
Cu	Cu	0.62652 0.87348 0.50000 0.90600
Cu	Cu	0.66854 0.33146 -0.00000 0.91000
Cu	Cu	0.62652 0.37348 -0.00000 0.90400
Cu	Cu	0.00000 0.16854 0.16854 0.91000
Cu	Cu	0.00000 0.12652 0.12652 0.90400
Cu	Cu	-0.00000 0.66854 0.66854 0.91000
Cu	Cu	0.00000 0.62652 0.62652 0.90400
Cu	Cu	0.50000 0.16854 0.66854 0.91200
Cu	Cu	0.50000 0.12652 0.62652 0.90600
Cu	Cu	0.50000 0.66854 0.16854 0.91200
Cu	Cu	0.50000 0.62652 0.12652 0.90600
Cu	Cu	0.00000 0.83146 0.83146 0.91000
Cu	Cu	0.00000 0.87348 0.87348 0.90400
Cu	Cu	-0.00000 0.33146 0.33146 0.91000
Cu	Cu	0.00000 0.37348 0.37348 0.90400
Cu	Cu	0.50000 0.83146 0.33146 0.91200
Cu	Cu	0.50000 0.87348 0.37348 0.90600
Cu	Cu	0.50000 0.33146 0.83146 0.91200
Cu	Cu	0.50000 0.37348 0.87348 0.90600
Cu	Cu	0.00000 0.83146 0.16854 0.91000
Cu	Cu	0.00000 0.87348 0.12652 0.90400
Cu	Cu	0.00000 0.33146 0.66854 0.91000
Cu	Cu	0.00000 0.37348 0.62652 0.90400
Cu	Cu	0.50000 0.83146 0.66854 0.91200
Cu	Cu	0.50000 0.87348 0.62652 0.90600
Cu	Cu	0.50000 0.33146 0.16854 0.91200
Cu	Cu	0.50000 0.37348 0.12652 0.90600
Cu	Cu	0.00000 0.16854 0.83146 0.91000
Cu	Cu	0.00000 0.12652 0.87348 0.90400
Cu	Cu	0.00000 0.66854 0.33146 0.91000
Cu	Cu	0.00000 0.62652 0.37348 0.90400
Cu	Cu	0.50000 0.16854 0.33146 0.91200
Cu	Cu	0.50000 0.12652 0.37348 0.90600
Cu	Cu	0.50000 0.66854 0.83146 0.91200
Cu	Cu	0.50000 0.62652 0.87348 0.90600
Cu	Cu	0.16854 0.00000 0.16854 0.91000
Cu	Cu	0.12652 0.00000 0.12652 0.90400
Cu	Cu	0.16854 0.50000 0.66854 0.91200
Cu	Cu	0.12652 0.50000 0.62652 0.90600
Cu	Cu	0.66854 -0.00000 0.66854 0.91000
Cu	Cu	0.62652 0.00000 0.62652 0.90400
Cu	Cu	0.66854 0.50000 0.16854 0.91200
Cu	Cu	0.62652 0.50000 0.12652 0.90600
Cu	Cu	0.83146 0.00000 0.83146 0.91000
Cu	Cu	0.87348 0.00000 0.87348 0.90400
Cu	Cu	0.83146 0.50000 0.33146 0.91200
Cu	Cu	0.87348 0.50000 0.37348 0.90600
Cu	Cu	0.33146 -0.00000 0.33146 0.91000
Cu	Cu	0.37348 0.00000 0.37348 0.90400
Cu	Cu	0.33146 0.50000 0.83146 0.91200
Cu	Cu	0.37348 0.50000 0.87348 0.90600
Cu	Cu	0.16854 0.00000 0.83146 0.91000
Cu	Cu	0.12652 0.00000 0.87348 0.90400
Cu	Cu	0.16854 0.50000 0.33146 0.91200
Cu	Cu	0.12652 0.50000 0.37348 0.90600
Cu	Cu	0.66854 -0.00000 0.33146 0.91000
Cu	Cu	0.62652 0.00000 0.37348 0.90400
Cu	Cu	0.66854 0.50000 0.83146 0.91200
Cu	Cu	0.62652 0.50000 0.87348 0.90600
Cu	Cu	0.83146 0.00000 0.16854 0.91000
Cu	Cu	0.87348 0.00000 0.12652 0.90400
Cu	Cu	0.83146 0.50000 0.66854 0.91200
Cu	Cu	0.87348 0.50000 0.62652 0.90600
Cu	Cu	0.33146 -0.00000 0.66854 0.91000
Cu	Cu	0.37348 0.00000 0.62652 0.90400
Cu	Cu	0.33146 0.50000 0.16854 0.91200
Cu	Cu	0.37348 0.50000 0.12652 0.90600
C 	C 	0.25710 0.11680 0.11680 0.13900
C 	C 	0.22913 0.10368 0.10368 -0.01400
C 	C 	0.17726 0.07999 0.07999 0.03100
H 	H 	0.15970 0.07210 0.07210 0.05400
C 	C 	0.25710 0.61680 0.61680 0.13900
C 	C 	0.22913 0.60368 0.60368 -0.01300
C 	C 	0.17726 0.57999 0.57999 0.03000
H 	H 	0.15970 0.57210 0.57210 0.05500
C 	C 	0.75710 0.11680 0.61680 0.13900
C 	C 	0.72913 0.10368 0.60368 -0.01400
C 	C 	0.67726 0.07999 0.57999 0.03000
H 	H 	0.65970 0.07210 0.57210 0.05500
C 	C 	0.75710 0.61680 0.11680 0.13900
C 	C 	0.72913 0.60368 0.10368 -0.01400
C 	C 	0.67726 0.57999 0.07999 0.03000
H 	H 	0.65970 0.57210 0.07210 0.05500
C 	C 	0.74290 0.88320 0.11680 0.13900
C 	C 	0.77087 0.89632 0.10368 -0.01300
C 	C 	0.82274 0.92001 0.07999 0.03000
H 	H 	0.84030 0.92790 0.07210 0.05600
C 	C 	0.74290 0.38320 0.61680 0.13900
C 	C 	0.77087 0.39632 0.60368 -0.01300
C 	C 	0.82274 0.42001 0.57999 0.03000
H 	H 	0.84030 0.42790 0.57210 0.05600
C 	C 	0.24290 0.88320 0.61680 0.13900
C 	C 	0.27087 0.89632 0.60368 -0.01300
C 	C 	0.32274 0.92001 0.57999 0.03000
H 	H 	0.34030 0.92790 0.57210 0.05600
C 	C 	0.24290 0.38320 0.11680 0.13900
C 	C 	0.27087 0.39632 0.10368 -0.01400
C 	C 	0.32274 0.42001 0.07999 0.03000
H 	H 	0.34030 0.42790 0.07210 0.05500
C 	C 	0.74290 0.11680 0.88320 0.13900
C 	C 	0.77087 0.10368 0.89632 -0.01300
C 	C 	0.82274 0.07999 0.92001 0.03000
H 	H 	0.84030 0.07210 0.92790 0.05600
C 	C 	0.74290 0.61680 0.38320 0.13900
C 	C 	0.77087 0.60368 0.39632 -0.01300
C 	C 	0.82274 0.57999 0.42001 0.03000
H 	H 	0.84030 0.57210 0.42790 0.05600
C 	C 	0.24290 0.11680 0.38320 0.13900
C 	C 	0.27087 0.10368 0.39632 -0.01400
C 	C 	0.32274 0.07999 0.42001 0.03000
H 	H 	0.34030 0.07210 0.42790 0.05500
C 	C 	0.24290 0.61680 0.88320 0.13900
C 	C 	0.27087 0.60368 0.89632 -0.01300
C 	C 	0.32274 0.57999 0.92001 0.03000
H 	H 	0.34030 0.57210 0.92790 0.05600
C 	C 	0.25710 0.88320 0.88320 0.13900
C 	C 	0.22913 0.89632 0.89632 -0.01200
C 	C 	0.17726 0.92001 0.92001 0.02900
H 	H 	0.15970 0.92790 0.92790 0.05600
C 	C 	0.25710 0.38320 0.38320 0.13900
C 	C 	0.22913 0.39632 0.39632 -0.01300
C 	C 	0.17726 0.42001 0.42001 0.03000
H 	H 	0.15970 0.42790 0.42790 0.05500
C 	C 	0.75710 0.88320 0.38320 0.13900
C 	C 	0.72913 0.89632 0.39632 -0.01300
C 	C 	0.67726 0.92001 0.42001 0.03000
H 	H 	0.65970 0.92790 0.42790 0.05600
C 	C 	0.75710 0.38320 0.88320 0.13900
C 	C 	0.72913 0.39632 0.89632 -0.01300
C 	C 	0.67726 0.42001 0.92001 0.03000
H 	H 	0.65970 0.42790 0.92790 0.05600
C 	C 	0.11680 0.25710 0.11680 0.13900
C 	C 	0.10368 0.22913 0.10368 -0.01400
C 	C 	0.07999 0.17726 0.07999 0.03100
H 	H 	0.07210 0.15970 0.07210 0.05400
C 	C 	0.11680 0.75710 0.61680 0.13900
C 	C 	0.10368 0.72913 0.60368 -0.01400
C 	C 	0.07999 0.67726 0.57999 0.03000
H 	H 	0.07210 0.65970 0.57210 0.05500
C 	C 	0.61680 0.25710 0.61680 0.13900
C 	C 	0.60368 0.22913 0.60368 -0.01300
C 	C 	0.57999 0.17726 0.57999 0.03000
H 	H 	0.57210 0.15970 0.57210 0.05500
C 	C 	0.61680 0.75710 0.11680 0.13900
C 	C 	0.60368 0.72913 0.10368 -0.01400
C 	C 	0.57999 0.67726 0.07999 0.03000
H 	H 	0.57210 0.65970 0.07210 0.05500
C 	C 	0.11680 0.74290 0.88320 0.13900
C 	C 	0.10368 0.77087 0.89632 -0.01300
C 	C 	0.07999 0.82274 0.92001 0.03000
H 	H 	0.07210 0.84030 0.92790 0.05600
C 	C 	0.11680 0.24290 0.38320 0.13900
C 	C 	0.10368 0.27087 0.39632 -0.01400
C 	C 	0.07999 0.32274 0.42001 0.03000
H 	H 	0.07210 0.34030 0.42790 0.05500
C 	C 	0.61680 0.74290 0.38320 0.13900
C 	C 	0.60368 0.77087 0.39632 -0.01300
C 	C 	0.57999 0.82274 0.42001 0.03000
H 	H 	0.57210 0.84030 0.42790 0.05600
C 	C 	0.61680 0.24290 0.88320 0.13900
C 	C 	0.60368 0.27087 0.89632 -0.01300
C 	C 	0.57999 0.32274 0.92001 0.03000
H 	H 	0.57210 0.34030 0.92790 0.05600
C 	C 	0.88320 0.74290 0.11680 0.13900
C 	C 	0.89632 0.77087 0.10368 -0.01300
C 	C 	0.92001 0.82274 0.07999 0.03000
H 	H 	0.92790 0.84030 0.07210 0.05600
C 	C 	0.88320 0.24290 0.61680 0.13900
C 	C 	0.89632 0.27087 0.60368 -0.01300
C 	C 	0.92001 0.32274 0.57999 0.03000
H 	H 	0.92790 0.34030 0.57210 0.05600
C 	C 	0.38320 0.74290 0.61680 0.13900
C 	C 	0.39632 0.77087 0.60368 -0.01300
C 	C 	0.42001 0.82274 0.57999 0.03000
H 	H 	0.42790 0.84030 0.57210 0.05600
C 	C 	0.38320 0.24290 0.11680 0.13900
C 	C 	0.39632 0.27087 0.10368 -0.01400
C 	C 	0.42001 0.32274 0.07999 0.03000
H 	H 	0.42790 0.34030 0.07210 0.05500
C 	C 	0.88320 0.25710 0.88320 0.13900
C 	C 	0.89632 0.22913 0.89632 -0.01200
C 	C 	0.92001 0.17726 0.92001 0.02900
H 	H 	0.92790 0.15970 0.92790 0.05600
C 	C 	0.88320 0.75710 0.38320 0.13900
C 	C 	0.89632 0.72913 0.39632 -0.01300
C 	C 	0.92001 0.67726 0.42001 0.03000
H 	H 	0.92790 0.65970 0.42790 0.05600
C 	C 	0.38320 0.25710 0.38320 0.13900
C 	C 	0.39632 0.22913 0.39632 -0.01300
C 	C 	0.42001 0.17726 0.42001 0.03000
H 	H 	0.42790 0.15970 0.42790 0.05500
C 	C 	0.38320 0.75710 0.88320 0.13900
C 	C 	0.39632 0.72913 0.89632 -0.01300
C 	C 	0.42001 0.67726 0.92001 0.03000
H 	H 	0.42790 0.65970 0.92790 0.05600
C 	C 	0.11680 0.11680 0.25710 0.13900
C 	C 	0.10368 0.10368 0.22913 -0.01400
C 	C 	0.07999 0.07999 0.17726 0.03100
H 	H 	0.07210 0.07210 0.15970 0.05400
C 	C 	0.11680 0.61680 0.75710 0.13900
C 	C 	0.10368 0.60368 0.72913 -0.01400
C 	C 	0.07999 0.57999 0.67726 0.03000
H 	H 	0.07210 0.57210 0.65970 0.05500
C 	C 	0.61680 0.11680 0.75710 0.13900
C 	C 	0.60368 0.10368 0.72913 -0.01400
C 	C 	0.57999 0.07999 0.67726 0.03000
H 	H 	0.57210 0.07210 0.65970 0.05500
C 	C 	0.61680 0.61680 0.25710 0.13900
C 	C 	0.60368 0.60368 0.22913 -0.01300
C 	C 	0.57999 0.57999 0.17726 0.03000
H 	H 	0.57210 0.57210 0.15970 0.05500
C 	C 	0.88320 0.11680 0.74290 0.13900
C 	C 	0.89632 0.10368 0.77087 -0.01300
C 	C 	0.92001 0.07999 0.82274 0.03000
H 	H 	0.92790 0.07210 0.84030 0.05600
C 	C 	0.88320 0.61680 0.24290 0.13900
C 	C 	0.89632 0.60368 0.27087 -0.01300
C 	C 	0.92001 0.57999 0.32274 0.03000
H 	H 	0.92790 0.57210 0.34030 0.05600
C 	C 	0.38320 0.11680 0.24290 0.13900
C 	C 	0.39632 0.10368 0.27087 -0.01400
C 	C 	0.42001 0.07999 0.32274 0.03000
H 	H 	0.42790 0.07210 0.34030 0.05500
C 	C 	0.38320 0.61680 0.74290 0.13900
C 	C 	0.39632 0.60368 0.77087 -0.01300
C 	C 	0.42001 0.57999 0.82274 0.03000
H 	H 	0.42790 0.57210 0.84030 0.05600
C 	C 	0.11680 0.88320 0.74290 0.13900
C 	C 	0.10368 0.89632 0.77087 -0.01300
C 	C 	0.07999 0.92001 0.82274 0.03000
H 	H 	0.07210 0.92790 0.84030 0.05600
C 	C 	0.11680 0.38320 0.24290 0.13900
C 	C 	0.10368 0.39632 0.27087 -0.01400
C 	C 	0.07999 0.42001 0.32274 0.03000
H 	H 	0.07210 0.42790 0.34030 0.05500
C 	C 	0.61680 0.88320 0.24290 0.13900
C 	C 	0.60368 0.89632 0.27087 -0.01300
C 	C 	0.57999 0.92001 0.32274 0.03000
H 	H 	0.57210 0.92790 0.34030 0.05600
C 	C 	0.61680 0.38320 0.74290 0.13900
C 	C 	0.60368 0.39632 0.77087 -0.01300
C 	C 	0.57999 0.42001 0.82274 0.03000
H 	H 	0.57210 0.42790 0.84030 0.05600
C 	C 	0.88320 0.88320 0.25710 0.13900
C 	C 	0.89632 0.89632 0.22913 -0.01200
C 	C 	0.92001 0.92001 0.17726 0.02900
H 	H 	0.92790 0.92790 0.15970 0.05600
C 	C 	0.88320 0.38320 0.75710 0.13900
C 	C 	0.89632 0.39632 0.72913 -0.01300
C 	C 	0.92001 0.42001 0.67726 0.03000
H 	H 	0.92790 0.42790 0.65970 0.05600
C 	C 	0.38320 0.88320 0.75710 0.13900
C 	C 	0.39632 0.89632 0.72913 -0.01300
C 	C 	0.42001 0.92001 0.67726 0.03000
H 	H 	0.42790 0.92790 0.65970 0.05600
C 	C 	0.38320 0.38320 0.25710 0.13900
C 	C 	0.39632 0.39632 0.22913 -0.01300
C 	C 	0.42001 0.42001 0.17726 0.03000
H 	H 	0.42790 0.42790 0.15970 0.05500
C 	C 	0.11680 0.25710 0.88320 0.13900
C 	C 	0.10368 0.22913 0.89632 -0.01300
C 	C 	0.07999 0.17726 0.92001 0.03000
H 	H 	0.07210 0.15970 0.92790 0.05500
C 	C 	0.11680 0.75710 0.38320 0.13900
C 	C 	0.10368 0.72913 0.39632 -0.01400
C 	C 	0.07999 0.67726 0.42001 0.03000
H 	H 	0.07210 0.65970 0.42790 0.05500
C 	C 	0.61680 0.25710 0.38320 0.13900
C 	C 	0.60368 0.22913 0.39632 -0.01300
C 	C 	0.57999 0.17726 0.42001 0.03000
H 	H 	0.57210 0.15970 0.42790 0.05500
C 	C 	0.61680 0.75710 0.88320 0.13900
C 	C 	0.60368 0.72913 0.89632 -0.01300
C 	C 	0.57999 0.67726 0.92001 0.03000
H 	H 	0.57210 0.65970 0.92790 0.05600
C 	C 	0.88320 0.74290 0.88320 0.13900
C 	C 	0.89632 0.77087 0.89632 -0.01200
C 	C 	0.92001 0.82274 0.92001 0.02900
H 	H 	0.92790 0.84030 0.92790 0.05700
C 	C 	0.88320 0.24290 0.38320 0.13900
C 	C 	0.89632 0.27087 0.39632 -0.01300
C 	C 	0.92001 0.32274 0.42001 0.03000
H 	H 	0.92790 0.34030 0.42790 0.05600
C 	C 	0.38320 0.74290 0.38320 0.13900
C 	C 	0.39632 0.77087 0.39632 -0.01300
C 	C 	0.42001 0.82274 0.42001 0.03000
H 	H 	0.42790 0.84030 0.42790 0.05600
C 	C 	0.38320 0.24290 0.88320 0.13900
C 	C 	0.39632 0.27087 0.89632 -0.01300
C 	C 	0.42001 0.32274 0.92001 0.03000
H 	H 	0.42790 0.34030 0.92790 0.05600
C 	C 	0.11680 0.74290 0.11680 0.13900
C 	C 	0.10368 0.77087 0.10368 -0.01400
C 	C 	0.07999 0.82274 0.07999 0.03100
H 	H 	0.07210 0.84030 0.07210 0.05500
C 	C 	0.11680 0.24290 0.61680 0.13900
C 	C 	0.10368 0.27087 0.60368 -0.01400
C 	C 	0.07999 0.32274 0.57999 0.03000
H 	H 	0.07210 0.34030 0.57210 0.05500
C 	C 	0.61680 0.74290 0.61680 0.13900
C 	C 	0.60368 0.77087 0.60368 -0.01300
C 	C 	0.57999 0.82274 0.57999 0.03000
H 	H 	0.57210 0.84030 0.57210 0.05600
C 	C 	0.61680 0.24290 0.11680 0.13900
C 	C 	0.60368 0.27087 0.10368 -0.01400
C 	C 	0.57999 0.32274 0.07999 0.03000
H 	H 	0.57210 0.34030 0.07210 0.05500
C 	C 	0.88320 0.25710 0.11680 0.13900
C 	C 	0.89632 0.22913 0.10368 -0.01300
C 	C 	0.92001 0.17726 0.07999 0.03000
H 	H 	0.92790 0.15970 0.07210 0.05500
C 	C 	0.88320 0.75710 0.61680 0.13900
C 	C 	0.89632 0.72913 0.60368 -0.01300
C 	C 	0.92001 0.67726 0.57999 0.03000
H 	H 	0.92790 0.65970 0.57210 0.05600
C 	C 	0.38320 0.25710 0.61680 0.13900
C 	C 	0.39632 0.22913 0.60368 -0.01300
C 	C 	0.42001 0.17726 0.57999 0.03000
H 	H 	0.42790 0.15970 0.57210 0.05500
C 	C 	0.38320 0.75710 0.11680 0.13900
C 	C 	0.39632 0.72913 0.10368 -0.01400
C 	C 	0.42001 0.67726 0.07999 0.03000
H 	H 	0.42790 0.65970 0.07210 0.05500
C 	C 	0.25710 0.11680 0.88320 0.13900
C 	C 	0.22913 0.10368 0.89632 -0.01300
C 	C 	0.17726 0.07999 0.92001 0.03000
H 	H 	0.15970 0.07210 0.92790 0.05500
C 	C 	0.25710 0.61680 0.38320 0.13900
C 	C 	0.22913 0.60368 0.39632 -0.01300
C 	C 	0.17726 0.57999 0.42001 0.03000
H 	H 	0.15970 0.57210 0.42790 0.05500
C 	C 	0.75710 0.11680 0.38320 0.13900
C 	C 	0.72913 0.10368 0.39632 -0.01400
C 	C 	0.67726 0.07999 0.42001 0.03000
H 	H 	0.65970 0.07210 0.42790 0.05500
C 	C 	0.75710 0.61680 0.88320 0.13900
C 	C 	0.72913 0.60368 0.89632 -0.01300
C 	C 	0.67726 0.57999 0.92001 0.03000
H 	H 	0.65970 0.57210 0.92790 0.05600
C 	C 	0.74290 0.11680 0.11680 0.13900
C 	C 	0.77087 0.10368 0.10368 -0.01400
C 	C 	0.82274 0.07999 0.07999 0.03100
H 	H 	0.84030 0.07210 0.07210 0.05500
C 	C 	0.74290 0.61680 0.61680 0.13900
C 	C 	0.77087 0.60368 0.60368 -0.01300
C 	C 	0.82274 0.57999 0.57999 0.03000
H 	H 	0.84030 0.57210 0.57210 0.05600
C 	C 	0.24290 0.11680 0.61680 0.13900
C 	C 	0.27087 0.10368 0.60368 -0.01400
C 	C 	0.32274 0.07999 0.57999 0.03000
H 	H 	0.34030 0.07210 0.57210 0.05500
C 	C 	0.24290 0.61680 0.11680 0.13900
C 	C 	0.27087 0.60368 0.10368 -0.01400
C 	C 	0.32274 0.57999 0.07999 0.03000
H 	H 	0.34030 0.57210 0.07210 0.05500
C 	C 	0.74290 0.88320 0.88320 0.13900
C 	C 	0.77087 0.89632 0.89632 -0.01200
C 	C 	0.82274 0.92001 0.92001 0.02900
H 	H 	0.84030 0.92790 0.92790 0.05700
C 	C 	0.74290 0.38320 0.38320 0.13900
C 	C 	0.77087 0.39632 0.39632 -0.01300
C 	C 	0.82274 0.42001 0.42001 0.03000
H 	H 	0.84030 0.42790 0.42790 0.05600
C 	C 	0.24290 0.88320 0.38320 0.13900
C 	C 	0.27087 0.89632 0.39632 -0.01300
C 	C 	0.32274 0.92001 0.42001 0.03000
H 	H 	0.34030 0.92790 0.42790 0.05600
C 	C 	0.24290 0.38320 0.88320 0.13900
C 	C 	0.27087 0.39632 0.89632 -0.01300
C 	C 	0.32274 0.42001 0.92001 0.03000
H 	H 	0.34030 0.42790 0.92790 0.05600
C 	C 	0.25710 0.88320 0.11680 0.13900
C 	C 	0.22913 0.89632 0.10368 -0.01300
C 	C 	0.17726 0.92001 0.07999 0.03000
H 	H 	0.15970 0.92790 0.07210 0.05500
C 	C 	0.25710 0.38320 0.61680 0.13900
C 	C 	0.22913 0.39632 0.60368 -0.01300
C 	C 	0.17726 0.42001 0.57999 0.03000
H 	H 	0.15970 0.42790 0.57210 0.05500
C 	C 	0.75710 0.88320 0.61680 0.13900
C 	C 	0.72913 0.89632 0.60368 -0.01300
C 	C 	0.67726 0.92001 0.57999 0.03000
H 	H 	0.65970 0.92790 0.57210 0.05600
C 	C 	0.75710 0.38320 0.11680 0.13900
C 	C 	0.72913 0.39632 0.10368 -0.01400
C 	C 	0.67726 0.42001 0.07999 0.03000
H 	H 	0.65970 0.42790 0.07210 0.05500
C 	C 	0.11680 0.11680 0.74290 0.13900
C 	C 	0.10368 0.10368 0.77087 -0.01400
C 	C 	0.07999 0.07999 0.82274 0.03100
H 	H 	0.07210 0.07210 0.84030 0.05500
C 	C 	0.11680 0.61680 0.24290 0.13900
C 	C 	0.10368 0.60368 0.27087 -0.01400
C 	C 	0.07999 0.57999 0.32274 0.03000
H 	H 	0.07210 0.57210 0.34030 0.05500
C 	C 	0.61680 0.11680 0.24290 0.13900
C 	C 	0.60368 0.10368 0.27087 -0.01400
C 	C 	0.57999 0.07999 0.32274 0.03000
H 	H 	0.57210 0.07210 0.34030 0.05500
C 	C 	0.61680 0.61680 0.74290 0.13900
C 	C 	0.60368 0.60368 0.77087 -0.01300
C 	C 	0.57999 0.57999 0.82274 0.03000
H 	H 	0.57210 0.57210 0.84030 0.05600
C 	C 	0.11680 0.88320 0.25710 0.13900
C 	C 	0.10368 0.89632 0.22913 -0.01300
C 	C 	0.07999 0.92001 0.17726 0.03000
H 	H 	0.07210 0.92790 0.15970 0.05500
C 	C 	0.11680 0.38320 0.75710 0.13900
C 	C 	0.10368 0.39632 0.72913 -0.01400
C 	C 	0.07999 0.42001 0.67726 0.03000
H 	H 	0.07210 0.42790 0.65970 0.05500
C 	C 	0.61680 0.88320 0.75710 0.13900
C 	C 	0.60368 0.89632 0.72913 -0.01300
C 	C 	0.57999 0.92001 0.67726 0.03000
H 	H 	0.57210 0.92790 0.65970 0.05600
C 	C 	0.61680 0.38320 0.25710 0.13900
C 	C 	0.60368 0.39632 0.22913 -0.01300
C 	C 	0.57999 0.42001 0.17726 0.03000
H 	H 	0.57210 0.42790 0.15970 0.05500
C 	C 	0.88320 0.11680 0.25710 0.13900
C 	C 	0.89632 0.10368 0.22913 -0.01300
C 	C 	0.92001 0.07999 0.17726 0.03000
H 	H 	0.92790 0.07210 0.15970 0.05500
C 	C 	0.88320 0.61680 0.75710 0.13900
C 	C 	0.89632 0.60368 0.72913 -0.01300
C 	C 	0.92001 0.57999 0.67726 0.03000
H 	H 	0.92790 0.57210 0.65970 0.05600
C 	C 	0.38320 0.11680 0.75710 0.13900
C 	C 	0.39632 0.10368 0.72913 -0.01400
C 	C 	0.42001 0.07999 0.67726 0.03000
H 	H 	0.42790 0.07210 0.65970 0.05500
C 	C 	0.38320 0.61680 0.25710 0.13900
C 	C 	0.39632 0.60368 0.22913 -0.01300
C 	C 	0.42001 0.57999 0.17726 0.03000
H 	H 	0.42790 0.57210 0.15970 0.05500
C 	C 	0.88320 0.88320 0.74290 0.13900
C 	C 	0.89632 0.89632 0.77087 -0.01200
C 	C 	0.92001 0.92001 0.82274 0.02900
H 	H 	0.92790 0.92790 0.84030 0.05700
C 	C 	0.88320 0.38320 0.24290 0.13900
C 	C 	0.89632 0.39632 0.27087 -0.01300
C 	C 	0.92001 0.42001 0.32274 0.03000
H 	H 	0.92790 0.42790 0.34030 0.05600
C 	C 	0.38320 0.88320 0.24290 0.13900
C 	C 	0.39632 0.89632 0.27087 -0.01300
C 	C 	0.42001 0.92001 0.32274 0.03000
H 	H 	0.42790 0.92790 0.34030 0.05600
C 	C 	0.38320 0.38320 0.74290 0.13900
C 	C 	0.39632 0.39632 0.77087 -0.01300
C 	C 	0.42001 0.42001 0.82274 0.03000
H 	H 	0.42790 0.42790 0.84030 0.05600
