data_crystal

_cell_length_a 44.47420
_cell_length_b 44.47420
_cell_length_c 44.47420
_cell_angle_alpha 90.00000
_cell_angle_beta  90.00000
_cell_angle_gamma 90.00000

_symmetry_space_group_name_	'P 1'
_symmetry_space_group_name_H-M	'P 1'

loop_
_symmetry_equiv_pos_as_xyz
  x,y,z

loop_
_atom_site_label
_atom_site_type_symbol
_atom_site_fract_x
_atom_site_fract_y
_atom_site_fract_z
_atom_site_charge
O 	O 	0.15180 0.10747 0.03080 -0.41200
O 	O 	0.18716 0.14352 0.03059 -0.43300
N 	N 	0.27094 0.13891 0.10352 -0.13500
N 	N 	0.29256 0.14567 0.12575 -0.18900
C 	C 	0.21645 0.11625 0.07728 0.00700
H 	H 	0.22654 0.13161 0.06731 0.03900
C 	C 	0.19021 0.10528 0.06648 -0.09700
C 	C 	0.17482 0.12091 0.04004 0.37700
O 	O 	0.15180 0.60747 0.53080 -0.41200
O 	O 	0.18716 0.64352 0.53059 -0.43300
N 	N 	0.27094 0.63891 0.60352 -0.13500
N 	N 	0.29256 0.64567 0.62575 -0.18900
C 	C 	0.21645 0.61625 0.57728 0.00500
H 	H 	0.22654 0.63161 0.56731 0.04000
C 	C 	0.19021 0.60528 0.56648 -0.09600
C 	C 	0.17482 0.62091 0.54004 0.37600
O 	O 	0.65180 0.10747 0.53080 -0.41200
O 	O 	0.68716 0.14352 0.53059 -0.43300
N 	N 	0.77094 0.13891 0.60352 -0.13500
N 	N 	0.79256 0.14567 0.62575 -0.18900
C 	C 	0.71645 0.11625 0.57728 0.00500
H 	H 	0.72654 0.13161 0.56731 0.04000
C 	C 	0.69021 0.10528 0.56648 -0.09600
C 	C 	0.67482 0.12091 0.54004 0.37600
O 	O 	0.65180 0.60747 0.03080 -0.41300
O 	O 	0.68716 0.64352 0.03059 -0.43400
N 	N 	0.77094 0.63891 0.10352 -0.13500
N 	N 	0.79256 0.64567 0.12575 -0.18900
C 	C 	0.71645 0.61625 0.07728 0.00500
H 	H 	0.72654 0.63161 0.06731 0.04000
C 	C 	0.69021 0.60528 0.06648 -0.09600
C 	C 	0.67482 0.62091 0.04004 0.37600
O 	O 	0.84820 0.89253 0.03080 -0.41200
O 	O 	0.81284 0.85648 0.03059 -0.43400
N 	N 	0.72906 0.86109 0.10352 -0.13500
N 	N 	0.70744 0.85433 0.12575 -0.18900
C 	C 	0.78355 0.88375 0.07728 0.00500
H 	H 	0.77346 0.86839 0.06731 0.04000
C 	C 	0.80979 0.89472 0.06648 -0.09600
C 	C 	0.82518 0.87909 0.04004 0.37600
O 	O 	0.84820 0.39253 0.53080 -0.41200
O 	O 	0.81284 0.35648 0.53059 -0.43300
N 	N 	0.72906 0.36109 0.60352 -0.13500
N 	N 	0.70744 0.35433 0.62575 -0.18900
C 	C 	0.78355 0.38375 0.57728 0.00500
H 	H 	0.77346 0.36839 0.56731 0.04000
C 	C 	0.80979 0.39472 0.56648 -0.09500
C 	C 	0.82518 0.37909 0.54004 0.37600
O 	O 	0.34820 0.89253 0.53080 -0.41100
O 	O 	0.31284 0.85648 0.53059 -0.43300
N 	N 	0.22906 0.86109 0.60352 -0.13500
N 	N 	0.20744 0.85433 0.62575 -0.18900
C 	C 	0.28355 0.88375 0.57728 0.00500
H 	H 	0.27346 0.86839 0.56731 0.04000
C 	C 	0.30979 0.89472 0.56648 -0.09500
C 	C 	0.32518 0.87909 0.54004 0.37600
O 	O 	0.34820 0.39253 0.03080 -0.41300
O 	O 	0.31284 0.35648 0.03059 -0.43400
N 	N 	0.22906 0.36109 0.10352 -0.13600
N 	N 	0.20744 0.35433 0.12575 -0.18900
C 	C 	0.28355 0.38375 0.07728 0.00500
H 	H 	0.27346 0.36839 0.06731 0.04000
C 	C 	0.30979 0.39472 0.06648 -0.09600
C 	C 	0.32518 0.37909 0.04004 0.37600
O 	O 	0.84820 0.10747 0.96920 -0.41000
O 	O 	0.81284 0.14352 0.96941 -0.43100
N 	N 	0.72906 0.13891 0.89648 -0.13500
N 	N 	0.70744 0.14567 0.87425 -0.18900
C 	C 	0.78355 0.11625 0.92272 0.00500
H 	H 	0.77346 0.13161 0.93269 0.04100
C 	C 	0.80979 0.10528 0.93352 -0.09500
C 	C 	0.82518 0.12091 0.95996 0.37600
O 	O 	0.84820 0.60747 0.46920 -0.41200
O 	O 	0.81284 0.64352 0.46941 -0.43300
N 	N 	0.72906 0.63891 0.39648 -0.13500
N 	N 	0.70744 0.64567 0.37425 -0.18900
C 	C 	0.78355 0.61625 0.42272 0.00500
H 	H 	0.77346 0.63161 0.43269 0.04000
C 	C 	0.80979 0.60528 0.43352 -0.09500
C 	C 	0.82518 0.62091 0.45996 0.37600
O 	O 	0.34820 0.10747 0.46920 -0.41200
O 	O 	0.31284 0.14352 0.46941 -0.43300
N 	N 	0.22906 0.13891 0.39648 -0.13500
N 	N 	0.20744 0.14567 0.37425 -0.18900
C 	C 	0.28355 0.11625 0.42272 0.00500
H 	H 	0.27346 0.13161 0.43269 0.04000
C 	C 	0.30979 0.10528 0.43352 -0.09600
C 	C 	0.32518 0.12091 0.45996 0.37600
O 	O 	0.34820 0.60747 0.96920 -0.40900
O 	O 	0.31284 0.64352 0.96941 -0.43100
N 	N 	0.22906 0.63891 0.89648 -0.13500
N 	N 	0.20744 0.64567 0.87425 -0.18900
C 	C 	0.28355 0.61625 0.92272 0.00500
H 	H 	0.27346 0.63161 0.93269 0.04100
C 	C 	0.30979 0.60528 0.93352 -0.09500
C 	C 	0.32518 0.62091 0.95996 0.37600
O 	O 	0.15180 0.89253 0.96920 -0.40900
O 	O 	0.18716 0.85648 0.96941 -0.43100
N 	N 	0.27094 0.86109 0.89648 -0.13500
N 	N 	0.29256 0.85433 0.87425 -0.18900
C 	C 	0.21645 0.88375 0.92272 0.00400
H 	H 	0.22654 0.86839 0.93269 0.04100
C 	C 	0.19021 0.89472 0.93352 -0.09400
C 	C 	0.17482 0.87909 0.95996 0.37600
O 	O 	0.15180 0.39253 0.46920 -0.41200
O 	O 	0.18716 0.35648 0.46941 -0.43300
N 	N 	0.27094 0.36109 0.39648 -0.13500
N 	N 	0.29256 0.35433 0.37425 -0.18900
C 	C 	0.21645 0.38375 0.42272 0.00500
H 	H 	0.22654 0.36839 0.43269 0.04000
C 	C 	0.19021 0.39472 0.43352 -0.09600
C 	C 	0.17482 0.37909 0.45996 0.37600
O 	O 	0.65180 0.89253 0.46920 -0.41100
O 	O 	0.68716 0.85648 0.46941 -0.43300
N 	N 	0.77094 0.86109 0.39648 -0.13500
N 	N 	0.79256 0.85433 0.37425 -0.18900
C 	C 	0.71645 0.88375 0.42272 0.00500
H 	H 	0.72654 0.86839 0.43269 0.04000
C 	C 	0.69021 0.89472 0.43352 -0.09500
C 	C 	0.67482 0.87909 0.45996 0.37600
O 	O 	0.65180 0.39253 0.96920 -0.40900
O 	O 	0.68716 0.35648 0.96941 -0.43100
N 	N 	0.77094 0.36109 0.89648 -0.13500
N 	N 	0.79256 0.35433 0.87425 -0.18900
C 	C 	0.71645 0.38375 0.92272 0.00500
H 	H 	0.72654 0.36839 0.93269 0.04100
C 	C 	0.69021 0.39472 0.93352 -0.09500
C 	C 	0.67482 0.37909 0.95996 0.37600
O 	O 	0.03080 0.15180 0.10747 -0.41300
O 	O 	0.03059 0.18716 0.14352 -0.43400
N 	N 	0.10352 0.27094 0.13891 -0.13600
N 	N 	0.12575 0.29256 0.14567 -0.19000
C 	C 	0.07728 0.21645 0.11625 0.00600
H 	H 	0.06731 0.22654 0.13161 0.03900
C 	C 	0.06648 0.19021 0.10528 -0.09700
C 	C 	0.04004 0.17482 0.12091 0.37700
O 	O 	0.03080 0.65180 0.60747 -0.41300
O 	O 	0.03059 0.68716 0.64352 -0.43400
N 	N 	0.10352 0.77094 0.63891 -0.13500
N 	N 	0.12575 0.79256 0.64567 -0.18900
C 	C 	0.07728 0.71645 0.61625 0.00500
H 	H 	0.06731 0.72654 0.63161 0.04000
C 	C 	0.06648 0.69021 0.60528 -0.09600
C 	C 	0.04004 0.67482 0.62091 0.37600
O 	O 	0.53080 0.15180 0.60747 -0.41200
O 	O 	0.53059 0.18716 0.64352 -0.43300
N 	N 	0.60352 0.27094 0.63891 -0.13500
N 	N 	0.62575 0.29256 0.64567 -0.18900
C 	C 	0.57728 0.21645 0.61625 0.00500
H 	H 	0.56731 0.22654 0.63161 0.04000
C 	C 	0.56648 0.19021 0.60528 -0.09600
C 	C 	0.54004 0.17482 0.62091 0.37600
O 	O 	0.53080 0.65180 0.10747 -0.41200
O 	O 	0.53059 0.68716 0.14352 -0.43300
N 	N 	0.60352 0.77094 0.13891 -0.13500
N 	N 	0.62575 0.79256 0.14567 -0.18900
C 	C 	0.57728 0.71645 0.11625 0.00500
H 	H 	0.56731 0.72654 0.13161 0.04000
C 	C 	0.56648 0.69021 0.10528 -0.09600
C 	C 	0.54004 0.67482 0.12091 0.37600
O 	O 	0.03080 0.84820 0.89253 -0.41200
O 	O 	0.03059 0.81284 0.85648 -0.43400
N 	N 	0.10352 0.72906 0.86109 -0.13500
N 	N 	0.12575 0.70744 0.85433 -0.18900
C 	C 	0.07728 0.78355 0.88375 0.00500
H 	H 	0.06731 0.77346 0.86839 0.04000
C 	C 	0.06648 0.80979 0.89472 -0.09600
C 	C 	0.04004 0.82518 0.87909 0.37600
O 	O 	0.03080 0.34820 0.39253 -0.41300
O 	O 	0.03059 0.31284 0.35648 -0.43400
N 	N 	0.10352 0.22906 0.36109 -0.13600
N 	N 	0.12575 0.20744 0.35433 -0.18900
C 	C 	0.07728 0.28355 0.38375 0.00500
H 	H 	0.06731 0.27346 0.36839 0.04000
C 	C 	0.06648 0.30979 0.39472 -0.09600
C 	C 	0.04004 0.32518 0.37909 0.37600
O 	O 	0.53080 0.84820 0.39253 -0.41200
O 	O 	0.53059 0.81284 0.35648 -0.43300
N 	N 	0.60352 0.72906 0.36109 -0.13500
N 	N 	0.62575 0.70744 0.35433 -0.18900
C 	C 	0.57728 0.78355 0.38375 0.00500
H 	H 	0.56731 0.77346 0.36839 0.04000
C 	C 	0.56648 0.80979 0.39472 -0.09500
C 	C 	0.54004 0.82518 0.37909 0.37600
O 	O 	0.53080 0.34820 0.89253 -0.41100
O 	O 	0.53059 0.31284 0.85648 -0.43300
N 	N 	0.60352 0.22906 0.86109 -0.13500
N 	N 	0.62575 0.20744 0.85433 -0.18900
C 	C 	0.57728 0.28355 0.88375 0.00500
H 	H 	0.56731 0.27346 0.86839 0.04000
C 	C 	0.56648 0.30979 0.89472 -0.09500
C 	C 	0.54004 0.32518 0.87909 0.37600
O 	O 	0.96920 0.84820 0.10747 -0.41000
O 	O 	0.96941 0.81284 0.14352 -0.43100
N 	N 	0.89648 0.72906 0.13891 -0.13500
N 	N 	0.87425 0.70744 0.14567 -0.18900
C 	C 	0.92272 0.78355 0.11625 0.00500
H 	H 	0.93269 0.77346 0.13161 0.04100
C 	C 	0.93352 0.80979 0.10528 -0.09500
C 	C 	0.95996 0.82518 0.12091 0.37600
O 	O 	0.96920 0.34820 0.60747 -0.40900
O 	O 	0.96941 0.31284 0.64352 -0.43100
N 	N 	0.89648 0.22906 0.63891 -0.13500
N 	N 	0.87425 0.20744 0.64567 -0.18900
C 	C 	0.92272 0.28355 0.61625 0.00500
H 	H 	0.93269 0.27346 0.63161 0.04100
C 	C 	0.93352 0.30979 0.60528 -0.09500
C 	C 	0.95996 0.32518 0.62091 0.37600
O 	O 	0.46920 0.84820 0.60747 -0.41200
O 	O 	0.46941 0.81284 0.64352 -0.43300
N 	N 	0.39648 0.72906 0.63891 -0.13500
N 	N 	0.37425 0.70744 0.64567 -0.18900
C 	C 	0.42272 0.78355 0.61625 0.00500
H 	H 	0.43269 0.77346 0.63161 0.04000
C 	C 	0.43352 0.80979 0.60528 -0.09500
C 	C 	0.45996 0.82518 0.62091 0.37600
O 	O 	0.46920 0.34820 0.10747 -0.41200
O 	O 	0.46941 0.31284 0.14352 -0.43300
N 	N 	0.39648 0.22906 0.13891 -0.13500
N 	N 	0.37425 0.20744 0.14567 -0.18900
C 	C 	0.42272 0.28355 0.11625 0.00500
H 	H 	0.43269 0.27346 0.13161 0.04000
C 	C 	0.43352 0.30979 0.10528 -0.09600
C 	C 	0.45996 0.32518 0.12091 0.37600
O 	O 	0.96920 0.15180 0.89253 -0.40900
O 	O 	0.96941 0.18716 0.85648 -0.43100
N 	N 	0.89648 0.27094 0.86109 -0.13500
N 	N 	0.87425 0.29256 0.85433 -0.18900
C 	C 	0.92272 0.21645 0.88375 0.00400
H 	H 	0.93269 0.22654 0.86839 0.04100
C 	C 	0.93352 0.19021 0.89472 -0.09400
C 	C 	0.95996 0.17482 0.87909 0.37600
O 	O 	0.96920 0.65180 0.39253 -0.40900
O 	O 	0.96941 0.68716 0.35648 -0.43100
N 	N 	0.89648 0.77094 0.36109 -0.13500
N 	N 	0.87425 0.79256 0.35433 -0.18900
C 	C 	0.92272 0.71645 0.38375 0.00500
H 	H 	0.93269 0.72654 0.36839 0.04100
C 	C 	0.93352 0.69021 0.39472 -0.09500
C 	C 	0.95996 0.67482 0.37909 0.37600
O 	O 	0.46920 0.15180 0.39253 -0.41200
O 	O 	0.46941 0.18716 0.35648 -0.43300
N 	N 	0.39648 0.27094 0.36109 -0.13500
N 	N 	0.37425 0.29256 0.35433 -0.18900
C 	C 	0.42272 0.21645 0.38375 0.00500
H 	H 	0.43269 0.22654 0.36839 0.04000
C 	C 	0.43352 0.19021 0.39472 -0.09600
C 	C 	0.45996 0.17482 0.37909 0.37600
O 	O 	0.46920 0.65180 0.89253 -0.41100
O 	O 	0.46941 0.68716 0.85648 -0.43300
N 	N 	0.39648 0.77094 0.86109 -0.13500
N 	N 	0.37425 0.79256 0.85433 -0.18900
C 	C 	0.42272 0.71645 0.88375 0.00500
H 	H 	0.43269 0.72654 0.86839 0.04000
C 	C 	0.43352 0.69021 0.89472 -0.09500
C 	C 	0.45996 0.67482 0.87909 0.37600
O 	O 	0.10747 0.03080 0.15180 -0.41300
O 	O 	0.14352 0.03059 0.18716 -0.43400
N 	N 	0.13891 0.10352 0.27094 -0.13600
N 	N 	0.14567 0.12575 0.29256 -0.19000
C 	C 	0.11625 0.07728 0.21645 0.00600
H 	H 	0.13161 0.06731 0.22654 0.03900
C 	C 	0.10528 0.06648 0.19021 -0.09700
C 	C 	0.12091 0.04004 0.17482 0.37700
O 	O 	0.10747 0.53080 0.65180 -0.41200
O 	O 	0.14352 0.53059 0.68716 -0.43300
N 	N 	0.13891 0.60352 0.77094 -0.13500
N 	N 	0.14567 0.62575 0.79256 -0.18900
C 	C 	0.11625 0.57728 0.71645 0.00500
H 	H 	0.13161 0.56731 0.72654 0.04000
C 	C 	0.10528 0.56648 0.69021 -0.09600
C 	C 	0.12091 0.54004 0.67482 0.37600
O 	O 	0.60747 0.03080 0.65180 -0.41300
O 	O 	0.64352 0.03059 0.68716 -0.43400
N 	N 	0.63891 0.10352 0.77094 -0.13500
N 	N 	0.64567 0.12575 0.79256 -0.18900
C 	C 	0.61625 0.07728 0.71645 0.00500
H 	H 	0.63161 0.06731 0.72654 0.04000
C 	C 	0.60528 0.06648 0.69021 -0.09600
C 	C 	0.62091 0.04004 0.67482 0.37600
O 	O 	0.60747 0.53080 0.15180 -0.41200
O 	O 	0.64352 0.53059 0.18716 -0.43300
N 	N 	0.63891 0.60352 0.27094 -0.13500
N 	N 	0.64567 0.62575 0.29256 -0.18900
C 	C 	0.61625 0.57728 0.21645 0.00500
H 	H 	0.63161 0.56731 0.22654 0.04000
C 	C 	0.60528 0.56648 0.19021 -0.09600
C 	C 	0.62091 0.54004 0.17482 0.37600
O 	O 	0.89253 0.03080 0.84820 -0.41200
O 	O 	0.85648 0.03059 0.81284 -0.43400
N 	N 	0.86109 0.10352 0.72906 -0.13500
N 	N 	0.85433 0.12575 0.70744 -0.18900
C 	C 	0.88375 0.07728 0.78355 0.00500
H 	H 	0.86839 0.06731 0.77346 0.04000
C 	C 	0.89472 0.06648 0.80979 -0.09600
C 	C 	0.87909 0.04004 0.82518 0.37600
O 	O 	0.89253 0.53080 0.34820 -0.41100
O 	O 	0.85648 0.53059 0.31284 -0.43300
N 	N 	0.86109 0.60352 0.22906 -0.13500
N 	N 	0.85433 0.62575 0.20744 -0.18900
C 	C 	0.88375 0.57728 0.28355 0.00500
H 	H 	0.86839 0.56731 0.27346 0.04000
C 	C 	0.89472 0.56648 0.30979 -0.09500
C 	C 	0.87909 0.54004 0.32518 0.37600
O 	O 	0.39253 0.03080 0.34820 -0.41300
O 	O 	0.35648 0.03059 0.31284 -0.43400
N 	N 	0.36109 0.10352 0.22906 -0.13600
N 	N 	0.35433 0.12575 0.20744 -0.18900
C 	C 	0.38375 0.07728 0.28355 0.00500
H 	H 	0.36839 0.06731 0.27346 0.04000
C 	C 	0.39472 0.06648 0.30979 -0.09600
C 	C 	0.37909 0.04004 0.32518 0.37600
O 	O 	0.39253 0.53080 0.84820 -0.41200
O 	O 	0.35648 0.53059 0.81284 -0.43300
N 	N 	0.36109 0.60352 0.72906 -0.13500
N 	N 	0.35433 0.62575 0.70744 -0.18900
C 	C 	0.38375 0.57728 0.78355 0.00500
H 	H 	0.36839 0.56731 0.77346 0.04000
C 	C 	0.39472 0.56648 0.80979 -0.09500
C 	C 	0.37909 0.54004 0.82518 0.37600
O 	O 	0.10747 0.96920 0.84820 -0.41000
O 	O 	0.14352 0.96941 0.81284 -0.43100
N 	N 	0.13891 0.89648 0.72906 -0.13500
N 	N 	0.14567 0.87425 0.70744 -0.18900
C 	C 	0.11625 0.92272 0.78355 0.00500
H 	H 	0.13161 0.93269 0.77346 0.04100
C 	C 	0.10528 0.93352 0.80979 -0.09500
C 	C 	0.12091 0.95996 0.82518 0.37600
O 	O 	0.10747 0.46920 0.34820 -0.41200
O 	O 	0.14352 0.46941 0.31284 -0.43300
N 	N 	0.13891 0.39648 0.22906 -0.13500
N 	N 	0.14567 0.37425 0.20744 -0.18900
C 	C 	0.11625 0.42272 0.28355 0.00500
H 	H 	0.13161 0.43269 0.27346 0.04000
C 	C 	0.10528 0.43352 0.30979 -0.09600
C 	C 	0.12091 0.45996 0.32518 0.37600
O 	O 	0.60747 0.96920 0.34820 -0.40900
O 	O 	0.64352 0.96941 0.31284 -0.43100
N 	N 	0.63891 0.89648 0.22906 -0.13500
N 	N 	0.64567 0.87425 0.20744 -0.18900
C 	C 	0.61625 0.92272 0.28355 0.00500
H 	H 	0.63161 0.93269 0.27346 0.04100
C 	C 	0.60528 0.93352 0.30979 -0.09500
C 	C 	0.62091 0.95996 0.32518 0.37600
O 	O 	0.60747 0.46920 0.84820 -0.41200
O 	O 	0.64352 0.46941 0.81284 -0.43300
N 	N 	0.63891 0.39648 0.72906 -0.13500
N 	N 	0.64567 0.37425 0.70744 -0.18900
C 	C 	0.61625 0.42272 0.78355 0.00500
H 	H 	0.63161 0.43269 0.77346 0.04000
C 	C 	0.60528 0.43352 0.80979 -0.09500
C 	C 	0.62091 0.45996 0.82518 0.37600
O 	O 	0.89253 0.96920 0.15180 -0.40900
O 	O 	0.85648 0.96941 0.18716 -0.43100
N 	N 	0.86109 0.89648 0.27094 -0.13500
N 	N 	0.85433 0.87425 0.29256 -0.18900
C 	C 	0.88375 0.92272 0.21645 0.00400
H 	H 	0.86839 0.93269 0.22654 0.04100
C 	C 	0.89472 0.93352 0.19021 -0.09400
C 	C 	0.87909 0.95996 0.17482 0.37600
O 	O 	0.89253 0.46920 0.65180 -0.41100
O 	O 	0.85648 0.46941 0.68716 -0.43300
N 	N 	0.86109 0.39648 0.77094 -0.13500
N 	N 	0.85433 0.37425 0.79256 -0.18900
C 	C 	0.88375 0.42272 0.71645 0.00500
H 	H 	0.86839 0.43269 0.72654 0.04000
C 	C 	0.89472 0.43352 0.69021 -0.09500
C 	C 	0.87909 0.45996 0.67482 0.37600
O 	O 	0.39253 0.96920 0.65180 -0.40900
O 	O 	0.35648 0.96941 0.68716 -0.43100
N 	N 	0.36109 0.89648 0.77094 -0.13500
N 	N 	0.35433 0.87425 0.79256 -0.18900
C 	C 	0.38375 0.92272 0.71645 0.00500
H 	H 	0.36839 0.93269 0.72654 0.04100
C 	C 	0.39472 0.93352 0.69021 -0.09500
C 	C 	0.37909 0.95996 0.67482 0.37600
O 	O 	0.39253 0.46920 0.15180 -0.41200
O 	O 	0.35648 0.46941 0.18716 -0.43300
N 	N 	0.36109 0.39648 0.27094 -0.13500
N 	N 	0.35433 0.37425 0.29256 -0.18900
C 	C 	0.38375 0.42272 0.21645 0.00500
H 	H 	0.36839 0.43269 0.22654 0.04000
C 	C 	0.39472 0.43352 0.19021 -0.09600
C 	C 	0.37909 0.45996 0.17482 0.37600
O 	O 	0.10747 0.15180 0.96920 -0.41000
O 	O 	0.14352 0.18716 0.96941 -0.43100
N 	N 	0.13891 0.27094 0.89648 -0.13500
N 	N 	0.14567 0.29256 0.87425 -0.18900
C 	C 	0.11625 0.21645 0.92272 0.00500
H 	H 	0.13161 0.22654 0.93269 0.04100
C 	C 	0.10528 0.19021 0.93352 -0.09500
C 	C 	0.12091 0.17482 0.95996 0.37600
O 	O 	0.10747 0.65180 0.46920 -0.41200
O 	O 	0.14352 0.68716 0.46941 -0.43300
N 	N 	0.13891 0.77094 0.39648 -0.13500
N 	N 	0.14567 0.79256 0.37425 -0.18900
C 	C 	0.11625 0.71645 0.42272 0.00500
H 	H 	0.13161 0.72654 0.43269 0.04000
C 	C 	0.10528 0.69021 0.43352 -0.09600
C 	C 	0.12091 0.67482 0.45996 0.37600
O 	O 	0.60747 0.15180 0.46920 -0.41200
O 	O 	0.64352 0.18716 0.46941 -0.43300
N 	N 	0.63891 0.27094 0.39648 -0.13500
N 	N 	0.64567 0.29256 0.37425 -0.18900
C 	C 	0.61625 0.21645 0.42272 0.00500
H 	H 	0.63161 0.22654 0.43269 0.04000
C 	C 	0.60528 0.19021 0.43352 -0.09600
C 	C 	0.62091 0.17482 0.45996 0.37600
O 	O 	0.60747 0.65180 0.96920 -0.40900
O 	O 	0.64352 0.68716 0.96941 -0.43100
N 	N 	0.63891 0.77094 0.89648 -0.13500
N 	N 	0.64567 0.79256 0.87425 -0.18900
C 	C 	0.61625 0.71645 0.92272 0.00500
H 	H 	0.63161 0.72654 0.93269 0.04100
C 	C 	0.60528 0.69021 0.93352 -0.09500
C 	C 	0.62091 0.67482 0.95996 0.37600
O 	O 	0.89253 0.84820 0.96920 -0.40900
O 	O 	0.85648 0.81284 0.96941 -0.43100
N 	N 	0.86109 0.72906 0.89648 -0.13500
N 	N 	0.85433 0.70744 0.87425 -0.18900
C 	C 	0.88375 0.78355 0.92272 0.00400
H 	H 	0.86839 0.77346 0.93269 0.04100
C 	C 	0.89472 0.80979 0.93352 -0.09400
C 	C 	0.87909 0.82518 0.95996 0.37600
O 	O 	0.89253 0.34820 0.46920 -0.41100
O 	O 	0.85648 0.31284 0.46941 -0.43300
N 	N 	0.86109 0.22906 0.39648 -0.13500
N 	N 	0.85433 0.20744 0.37425 -0.18900
C 	C 	0.88375 0.28355 0.42272 0.00500
H 	H 	0.86839 0.27346 0.43269 0.04000
C 	C 	0.89472 0.30979 0.43352 -0.09500
C 	C 	0.87909 0.32518 0.45996 0.37600
O 	O 	0.39253 0.84820 0.46920 -0.41200
O 	O 	0.35648 0.81284 0.46941 -0.43300
N 	N 	0.36109 0.72906 0.39648 -0.13500
N 	N 	0.35433 0.70744 0.37425 -0.18900
C 	C 	0.38375 0.78355 0.42272 0.00500
H 	H 	0.36839 0.77346 0.43269 0.04000
C 	C 	0.39472 0.80979 0.43352 -0.09500
C 	C 	0.37909 0.82518 0.45996 0.37600
O 	O 	0.39253 0.34820 0.96920 -0.40900
O 	O 	0.35648 0.31284 0.96941 -0.43100
N 	N 	0.36109 0.22906 0.89648 -0.13500
N 	N 	0.35433 0.20744 0.87425 -0.18900
C 	C 	0.38375 0.28355 0.92272 0.00500
H 	H 	0.36839 0.27346 0.93269 0.04100
C 	C 	0.39472 0.30979 0.93352 -0.09500
C 	C 	0.37909 0.32518 0.95996 0.37600
O 	O 	0.10747 0.84820 0.03080 -0.41300
O 	O 	0.14352 0.81284 0.03059 -0.43400
N 	N 	0.13891 0.72906 0.10352 -0.13600
N 	N 	0.14567 0.70744 0.12575 -0.19000
C 	C 	0.11625 0.78355 0.07728 0.00600
H 	H 	0.13161 0.77346 0.06731 0.03900
C 	C 	0.10528 0.80979 0.06648 -0.09700
C 	C 	0.12091 0.82518 0.04004 0.37700
O 	O 	0.10747 0.34820 0.53080 -0.41200
O 	O 	0.14352 0.31284 0.53059 -0.43300
N 	N 	0.13891 0.22906 0.60352 -0.13500
N 	N 	0.14567 0.20744 0.62575 -0.18900
C 	C 	0.11625 0.28355 0.57728 0.00500
H 	H 	0.13161 0.27346 0.56731 0.04000
C 	C 	0.10528 0.30979 0.56648 -0.09600
C 	C 	0.12091 0.32518 0.54004 0.37600
O 	O 	0.60747 0.84820 0.53080 -0.41200
O 	O 	0.64352 0.81284 0.53059 -0.43300
N 	N 	0.63891 0.72906 0.60352 -0.13500
N 	N 	0.64567 0.70744 0.62575 -0.18900
C 	C 	0.61625 0.78355 0.57728 0.00500
H 	H 	0.63161 0.77346 0.56731 0.04000
C 	C 	0.60528 0.80979 0.56648 -0.09500
C 	C 	0.62091 0.82518 0.54004 0.37600
O 	O 	0.60747 0.34820 0.03080 -0.41300
O 	O 	0.64352 0.31284 0.03059 -0.43400
N 	N 	0.63891 0.22906 0.10352 -0.13600
N 	N 	0.64567 0.20744 0.12575 -0.19000
C 	C 	0.61625 0.28355 0.07728 0.00500
H 	H 	0.63161 0.27346 0.06731 0.04000
C 	C 	0.60528 0.30979 0.06648 -0.09600
C 	C 	0.62091 0.32518 0.04004 0.37600
O 	O 	0.89253 0.15180 0.03080 -0.41300
O 	O 	0.85648 0.18716 0.03059 -0.43400
N 	N 	0.86109 0.27094 0.10352 -0.13500
N 	N 	0.85433 0.29256 0.12575 -0.18900
C 	C 	0.88375 0.21645 0.07728 0.00500
H 	H 	0.86839 0.22654 0.06731 0.04000
C 	C 	0.89472 0.19021 0.06648 -0.09600
C 	C 	0.87909 0.17482 0.04004 0.37600
O 	O 	0.89253 0.65180 0.53080 -0.41100
O 	O 	0.85648 0.68716 0.53059 -0.43300
N 	N 	0.86109 0.77094 0.60352 -0.13500
N 	N 	0.85433 0.79256 0.62575 -0.18900
C 	C 	0.88375 0.71645 0.57728 0.00500
H 	H 	0.86839 0.72654 0.56731 0.04000
C 	C 	0.89472 0.69021 0.56648 -0.09500
C 	C 	0.87909 0.67482 0.54004 0.37600
O 	O 	0.39253 0.15180 0.53080 -0.41200
O 	O 	0.35648 0.18716 0.53059 -0.43300
N 	N 	0.36109 0.27094 0.60352 -0.13500
N 	N 	0.35433 0.29256 0.62575 -0.18900
C 	C 	0.38375 0.21645 0.57728 0.00500
H 	H 	0.36839 0.22654 0.56731 0.04000
C 	C 	0.39472 0.19021 0.56648 -0.09600
C 	C 	0.37909 0.17482 0.54004 0.37600
O 	O 	0.39253 0.65180 0.03080 -0.41300
O 	O 	0.35648 0.68716 0.03059 -0.43400
N 	N 	0.36109 0.77094 0.10352 -0.13500
N 	N 	0.35433 0.79256 0.12575 -0.18900
C 	C 	0.38375 0.71645 0.07728 0.00500
H 	H 	0.36839 0.72654 0.06731 0.04000
C 	C 	0.39472 0.69021 0.06648 -0.09600
C 	C 	0.37909 0.67482 0.04004 0.37600
O 	O 	0.15180 0.03080 0.89253 -0.41300
O 	O 	0.18716 0.03059 0.85648 -0.43400
N 	N 	0.27094 0.10352 0.86109 -0.13500
N 	N 	0.29256 0.12575 0.85433 -0.18900
C 	C 	0.21645 0.07728 0.88375 0.00500
H 	H 	0.22654 0.06731 0.86839 0.04000
C 	C 	0.19021 0.06648 0.89472 -0.09600
C 	C 	0.17482 0.04004 0.87909 0.37600
O 	O 	0.15180 0.53080 0.39253 -0.41200
O 	O 	0.18716 0.53059 0.35648 -0.43300
N 	N 	0.27094 0.60352 0.36109 -0.13500
N 	N 	0.29256 0.62575 0.35433 -0.18900
C 	C 	0.21645 0.57728 0.38375 0.00500
H 	H 	0.22654 0.56731 0.36839 0.04000
C 	C 	0.19021 0.56648 0.39472 -0.09600
C 	C 	0.17482 0.54004 0.37909 0.37600
O 	O 	0.65180 0.03080 0.39253 -0.41300
O 	O 	0.68716 0.03059 0.35648 -0.43400
N 	N 	0.77094 0.10352 0.36109 -0.13500
N 	N 	0.79256 0.12575 0.35433 -0.18900
C 	C 	0.71645 0.07728 0.38375 0.00500
H 	H 	0.72654 0.06731 0.36839 0.04000
C 	C 	0.69021 0.06648 0.39472 -0.09600
C 	C 	0.67482 0.04004 0.37909 0.37600
O 	O 	0.65180 0.53080 0.89253 -0.41100
O 	O 	0.68716 0.53059 0.85648 -0.43300
N 	N 	0.77094 0.60352 0.86109 -0.13500
N 	N 	0.79256 0.62575 0.85433 -0.18900
C 	C 	0.71645 0.57728 0.88375 0.00500
H 	H 	0.72654 0.56731 0.86839 0.04000
C 	C 	0.69021 0.56648 0.89472 -0.09500
C 	C 	0.67482 0.54004 0.87909 0.37600
O 	O 	0.84820 0.03080 0.10747 -0.41300
O 	O 	0.81284 0.03059 0.14352 -0.43400
N 	N 	0.72906 0.10352 0.13891 -0.13600
N 	N 	0.70744 0.12575 0.14567 -0.19000
C 	C 	0.78355 0.07728 0.11625 0.00600
H 	H 	0.77346 0.06731 0.13161 0.03900
C 	C 	0.80979 0.06648 0.10528 -0.09700
C 	C 	0.82518 0.04004 0.12091 0.37700
O 	O 	0.84820 0.53080 0.60747 -0.41200
O 	O 	0.81284 0.53059 0.64352 -0.43300
N 	N 	0.72906 0.60352 0.63891 -0.13500
N 	N 	0.70744 0.62575 0.64567 -0.18900
C 	C 	0.78355 0.57728 0.61625 0.00500
H 	H 	0.77346 0.56731 0.63161 0.04000
C 	C 	0.80979 0.56648 0.60528 -0.09500
C 	C 	0.82518 0.54004 0.62091 0.37600
O 	O 	0.34820 0.03080 0.60747 -0.41300
O 	O 	0.31284 0.03059 0.64352 -0.43400
N 	N 	0.22906 0.10352 0.63891 -0.13600
N 	N 	0.20744 0.12575 0.64567 -0.19000
C 	C 	0.28355 0.07728 0.61625 0.00500
H 	H 	0.27346 0.06731 0.63161 0.04000
C 	C 	0.30979 0.06648 0.60528 -0.09600
C 	C 	0.32518 0.04004 0.62091 0.37600
O 	O 	0.34820 0.53080 0.10747 -0.41200
O 	O 	0.31284 0.53059 0.14352 -0.43300
N 	N 	0.22906 0.60352 0.13891 -0.13500
N 	N 	0.20744 0.62575 0.14567 -0.18900
C 	C 	0.28355 0.57728 0.11625 0.00500
H 	H 	0.27346 0.56731 0.13161 0.04000
C 	C 	0.30979 0.56648 0.10528 -0.09600
C 	C 	0.32518 0.54004 0.12091 0.37600
O 	O 	0.84820 0.96920 0.89253 -0.40900
O 	O 	0.81284 0.96941 0.85648 -0.43100
N 	N 	0.72906 0.89648 0.86109 -0.13500
N 	N 	0.70744 0.87425 0.85433 -0.18900
C 	C 	0.78355 0.92272 0.88375 0.00400
H 	H 	0.77346 0.93269 0.86839 0.04100
C 	C 	0.80979 0.93352 0.89472 -0.09400
C 	C 	0.82518 0.95996 0.87909 0.37600
O 	O 	0.84820 0.46920 0.39253 -0.41200
O 	O 	0.81284 0.46941 0.35648 -0.43300
N 	N 	0.72906 0.39648 0.36109 -0.13500
N 	N 	0.70744 0.37425 0.35433 -0.18900
C 	C 	0.78355 0.42272 0.38375 0.00500
H 	H 	0.77346 0.43269 0.36839 0.04000
C 	C 	0.80979 0.43352 0.39472 -0.09500
C 	C 	0.82518 0.45996 0.37909 0.37600
O 	O 	0.34820 0.96920 0.39253 -0.40900
O 	O 	0.31284 0.96941 0.35648 -0.43100
N 	N 	0.22906 0.89648 0.36109 -0.13500
N 	N 	0.20744 0.87425 0.35433 -0.18900
C 	C 	0.28355 0.92272 0.38375 0.00500
H 	H 	0.27346 0.93269 0.36839 0.04100
C 	C 	0.30979 0.93352 0.39472 -0.09500
C 	C 	0.32518 0.95996 0.37909 0.37600
O 	O 	0.34820 0.46920 0.89253 -0.41100
O 	O 	0.31284 0.46941 0.85648 -0.43300
N 	N 	0.22906 0.39648 0.86109 -0.13500
N 	N 	0.20744 0.37425 0.85433 -0.18900
C 	C 	0.28355 0.42272 0.88375 0.00500
H 	H 	0.27346 0.43269 0.86839 0.04000
C 	C 	0.30979 0.43352 0.89472 -0.09500
C 	C 	0.32518 0.45996 0.87909 0.37600
O 	O 	0.15180 0.96920 0.10747 -0.41000
O 	O 	0.18716 0.96941 0.14352 -0.43100
N 	N 	0.27094 0.89648 0.13891 -0.13500
N 	N 	0.29256 0.87425 0.14567 -0.18900
C 	C 	0.21645 0.92272 0.11625 0.00500
H 	H 	0.22654 0.93269 0.13161 0.04100
C 	C 	0.19021 0.93352 0.10528 -0.09500
C 	C 	0.17482 0.95996 0.12091 0.37600
O 	O 	0.15180 0.46920 0.60747 -0.41200
O 	O 	0.18716 0.46941 0.64352 -0.43300
N 	N 	0.27094 0.39648 0.63891 -0.13500
N 	N 	0.29256 0.37425 0.64567 -0.18900
C 	C 	0.21645 0.42272 0.61625 0.00500
H 	H 	0.22654 0.43269 0.63161 0.04000
C 	C 	0.19021 0.43352 0.60528 -0.09600
C 	C 	0.17482 0.45996 0.62091 0.37600
O 	O 	0.65180 0.96920 0.60747 -0.40900
O 	O 	0.68716 0.96941 0.64352 -0.43100
N 	N 	0.77094 0.89648 0.63891 -0.13500
N 	N 	0.79256 0.87425 0.64567 -0.18900
C 	C 	0.71645 0.92272 0.61625 0.00500
H 	H 	0.72654 0.93269 0.63161 0.04100
C 	C 	0.69021 0.93352 0.60528 -0.09500
C 	C 	0.67482 0.95996 0.62091 0.37600
O 	O 	0.65180 0.46920 0.10747 -0.41200
O 	O 	0.68716 0.46941 0.14352 -0.43300
N 	N 	0.77094 0.39648 0.13891 -0.13500
N 	N 	0.79256 0.37425 0.14567 -0.18900
C 	C 	0.71645 0.42272 0.11625 0.00500
H 	H 	0.72654 0.43269 0.13161 0.04000
C 	C 	0.69021 0.43352 0.10528 -0.09600
C 	C 	0.67482 0.45996 0.12091 0.37600
O 	O 	0.03080 0.10747 0.84820 -0.41300
O 	O 	0.03059 0.14352 0.81284 -0.43400
N 	N 	0.10352 0.13891 0.72906 -0.13600
N 	N 	0.12575 0.14567 0.70744 -0.19000
C 	C 	0.07728 0.11625 0.78355 0.00600
H 	H 	0.06731 0.13161 0.77346 0.03900
C 	C 	0.06648 0.10528 0.80979 -0.09700
C 	C 	0.04004 0.12091 0.82518 0.37700
O 	O 	0.03080 0.60747 0.34820 -0.41300
O 	O 	0.03059 0.64352 0.31284 -0.43400
N 	N 	0.10352 0.63891 0.22906 -0.13600
N 	N 	0.12575 0.64567 0.20744 -0.19000
C 	C 	0.07728 0.61625 0.28355 0.00500
H 	H 	0.06731 0.63161 0.27346 0.04000
C 	C 	0.06648 0.60528 0.30979 -0.09600
C 	C 	0.04004 0.62091 0.32518 0.37600
O 	O 	0.53080 0.10747 0.34820 -0.41200
O 	O 	0.53059 0.14352 0.31284 -0.43300
N 	N 	0.60352 0.13891 0.22906 -0.13500
N 	N 	0.62575 0.14567 0.20744 -0.18900
C 	C 	0.57728 0.11625 0.28355 0.00500
H 	H 	0.56731 0.13161 0.27346 0.04000
C 	C 	0.56648 0.10528 0.30979 -0.09600
C 	C 	0.54004 0.12091 0.32518 0.37600
O 	O 	0.53080 0.60747 0.84820 -0.41200
O 	O 	0.53059 0.64352 0.81284 -0.43300
N 	N 	0.60352 0.63891 0.72906 -0.13500
N 	N 	0.62575 0.64567 0.70744 -0.18900
C 	C 	0.57728 0.61625 0.78355 0.00500
H 	H 	0.56731 0.63161 0.77346 0.04000
C 	C 	0.56648 0.60528 0.80979 -0.09500
C 	C 	0.54004 0.62091 0.82518 0.37600
O 	O 	0.03080 0.89253 0.15180 -0.41300
O 	O 	0.03059 0.85648 0.18716 -0.43400
N 	N 	0.10352 0.86109 0.27094 -0.13500
N 	N 	0.12575 0.85433 0.29256 -0.18900
C 	C 	0.07728 0.88375 0.21645 0.00500
H 	H 	0.06731 0.86839 0.22654 0.04000
C 	C 	0.06648 0.89472 0.19021 -0.09600
C 	C 	0.04004 0.87909 0.17482 0.37600
O 	O 	0.03080 0.39253 0.65180 -0.41300
O 	O 	0.03059 0.35648 0.68716 -0.43400
N 	N 	0.10352 0.36109 0.77094 -0.13500
N 	N 	0.12575 0.35433 0.79256 -0.18900
C 	C 	0.07728 0.38375 0.71645 0.00500
H 	H 	0.06731 0.36839 0.72654 0.04000
C 	C 	0.06648 0.39472 0.69021 -0.09600
C 	C 	0.04004 0.37909 0.67482 0.37600
O 	O 	0.53080 0.89253 0.65180 -0.41100
O 	O 	0.53059 0.85648 0.68716 -0.43300
N 	N 	0.60352 0.86109 0.77094 -0.13500
N 	N 	0.62575 0.85433 0.79256 -0.18900
C 	C 	0.57728 0.88375 0.71645 0.00500
H 	H 	0.56731 0.86839 0.72654 0.04000
C 	C 	0.56648 0.89472 0.69021 -0.09500
C 	C 	0.54004 0.87909 0.67482 0.37600
O 	O 	0.53080 0.39253 0.15180 -0.41200
O 	O 	0.53059 0.35648 0.18716 -0.43300
N 	N 	0.60352 0.36109 0.27094 -0.13500
N 	N 	0.62575 0.35433 0.29256 -0.18900
C 	C 	0.57728 0.38375 0.21645 0.00500
H 	H 	0.56731 0.36839 0.22654 0.04000
C 	C 	0.56648 0.39472 0.19021 -0.09600
C 	C 	0.54004 0.37909 0.17482 0.37600
O 	O 	0.96920 0.10747 0.15180 -0.41000
O 	O 	0.96941 0.14352 0.18716 -0.43100
N 	N 	0.89648 0.13891 0.27094 -0.13500
N 	N 	0.87425 0.14567 0.29256 -0.18900
C 	C 	0.92272 0.11625 0.21645 0.00500
H 	H 	0.93269 0.13161 0.22654 0.04100
C 	C 	0.93352 0.10528 0.19021 -0.09500
C 	C 	0.95996 0.12091 0.17482 0.37600
O 	O 	0.96920 0.60747 0.65180 -0.40900
O 	O 	0.96941 0.64352 0.68716 -0.43100
N 	N 	0.89648 0.63891 0.77094 -0.13500
N 	N 	0.87425 0.64567 0.79256 -0.18900
C 	C 	0.92272 0.61625 0.71645 0.00500
H 	H 	0.93269 0.63161 0.72654 0.04100
C 	C 	0.93352 0.60528 0.69021 -0.09500
C 	C 	0.95996 0.62091 0.67482 0.37600
O 	O 	0.46920 0.10747 0.65180 -0.41200
O 	O 	0.46941 0.14352 0.68716 -0.43300
N 	N 	0.39648 0.13891 0.77094 -0.13500
N 	N 	0.37425 0.14567 0.79256 -0.18900
C 	C 	0.42272 0.11625 0.71645 0.00500
H 	H 	0.43269 0.13161 0.72654 0.04000
C 	C 	0.43352 0.10528 0.69021 -0.09600
C 	C 	0.45996 0.12091 0.67482 0.37600
O 	O 	0.46920 0.60747 0.15180 -0.41200
O 	O 	0.46941 0.64352 0.18716 -0.43300
N 	N 	0.39648 0.63891 0.27094 -0.13500
N 	N 	0.37425 0.64567 0.29256 -0.18900
C 	C 	0.42272 0.61625 0.21645 0.00500
H 	H 	0.43269 0.63161 0.22654 0.04000
C 	C 	0.43352 0.60528 0.19021 -0.09600
C 	C 	0.45996 0.62091 0.17482 0.37600
O 	O 	0.96920 0.89253 0.84820 -0.40900
O 	O 	0.96941 0.85648 0.81284 -0.43100
N 	N 	0.89648 0.86109 0.72906 -0.13500
N 	N 	0.87425 0.85433 0.70744 -0.18900
C 	C 	0.92272 0.88375 0.78355 0.00400
H 	H 	0.93269 0.86839 0.77346 0.04100
C 	C 	0.93352 0.89472 0.80979 -0.09400
C 	C 	0.95996 0.87909 0.82518 0.37600
O 	O 	0.96920 0.39253 0.34820 -0.40900
O 	O 	0.96941 0.35648 0.31284 -0.43100
N 	N 	0.89648 0.36109 0.22906 -0.13500
N 	N 	0.87425 0.35433 0.20744 -0.18900
C 	C 	0.92272 0.38375 0.28355 0.00500
H 	H 	0.93269 0.36839 0.27346 0.04100
C 	C 	0.93352 0.39472 0.30979 -0.09500
C 	C 	0.95996 0.37909 0.32518 0.37600
O 	O 	0.46920 0.89253 0.34820 -0.41100
O 	O 	0.46941 0.85648 0.31284 -0.43300
N 	N 	0.39648 0.86109 0.22906 -0.13500
N 	N 	0.37425 0.85433 0.20744 -0.18900
C 	C 	0.42272 0.88375 0.28355 0.00500
H 	H 	0.43269 0.86839 0.27346 0.04000
C 	C 	0.43352 0.89472 0.30979 -0.09500
C 	C 	0.45996 0.87909 0.32518 0.37600
O 	O 	0.46920 0.39253 0.84820 -0.41200
O 	O 	0.46941 0.35648 0.81284 -0.43300
N 	N 	0.39648 0.36109 0.72906 -0.13500
N 	N 	0.37425 0.35433 0.70744 -0.18900
C 	C 	0.42272 0.38375 0.78355 0.00500
H 	H 	0.43269 0.36839 0.77346 0.04000
C 	C 	0.43352 0.39472 0.80979 -0.09500
C 	C 	0.45996 0.37909 0.82518 0.37600
O 	O 	0.84820 0.89253 0.96920 -0.40900
O 	O 	0.81284 0.85648 0.96941 -0.43100
N 	N 	0.72906 0.86109 0.89648 -0.13500
N 	N 	0.70744 0.85433 0.87425 -0.18900
C 	C 	0.78355 0.88375 0.92272 0.00400
H 	H 	0.77346 0.86839 0.93269 0.04100
C 	C 	0.80979 0.89472 0.93352 -0.09400
C 	C 	0.82518 0.87909 0.95996 0.37600
O 	O 	0.84820 0.39253 0.46920 -0.41200
O 	O 	0.81284 0.35648 0.46941 -0.43300
N 	N 	0.72906 0.36109 0.39648 -0.13500
N 	N 	0.70744 0.35433 0.37425 -0.18900
C 	C 	0.78355 0.38375 0.42272 0.00500
H 	H 	0.77346 0.36839 0.43269 0.04000
C 	C 	0.80979 0.39472 0.43352 -0.09500
C 	C 	0.82518 0.37909 0.45996 0.37600
O 	O 	0.34820 0.89253 0.46920 -0.41100
O 	O 	0.31284 0.85648 0.46941 -0.43300
N 	N 	0.22906 0.86109 0.39648 -0.13500
N 	N 	0.20744 0.85433 0.37425 -0.18900
C 	C 	0.28355 0.88375 0.42272 0.00500
H 	H 	0.27346 0.86839 0.43269 0.04000
C 	C 	0.30979 0.89472 0.43352 -0.09500
C 	C 	0.32518 0.87909 0.45996 0.37600
O 	O 	0.34820 0.39253 0.96920 -0.40900
O 	O 	0.31284 0.35648 0.96941 -0.43100
N 	N 	0.22906 0.36109 0.89648 -0.13500
N 	N 	0.20744 0.35433 0.87425 -0.18900
C 	C 	0.28355 0.38375 0.92272 0.00500
H 	H 	0.27346 0.36839 0.93269 0.04100
C 	C 	0.30979 0.39472 0.93352 -0.09500
C 	C 	0.32518 0.37909 0.95996 0.37600
O 	O 	0.15180 0.10747 0.96920 -0.41000
O 	O 	0.18716 0.14352 0.96941 -0.43100
N 	N 	0.27094 0.13891 0.89648 -0.13500
N 	N 	0.29256 0.14567 0.87425 -0.18900
C 	C 	0.21645 0.11625 0.92272 0.00500
H 	H 	0.22654 0.13161 0.93269 0.04100
C 	C 	0.19021 0.10528 0.93352 -0.09500
C 	C 	0.17482 0.12091 0.95996 0.37600
O 	O 	0.15180 0.60747 0.46920 -0.41200
O 	O 	0.18716 0.64352 0.46941 -0.43300
N 	N 	0.27094 0.63891 0.39648 -0.13500
N 	N 	0.29256 0.64567 0.37425 -0.18900
C 	C 	0.21645 0.61625 0.42272 0.00500
H 	H 	0.22654 0.63161 0.43269 0.04000
C 	C 	0.19021 0.60528 0.43352 -0.09600
C 	C 	0.17482 0.62091 0.45996 0.37600
O 	O 	0.65180 0.10747 0.46920 -0.41200
O 	O 	0.68716 0.14352 0.46941 -0.43300
N 	N 	0.77094 0.13891 0.39648 -0.13500
N 	N 	0.79256 0.14567 0.37425 -0.18900
C 	C 	0.71645 0.11625 0.42272 0.00500
H 	H 	0.72654 0.13161 0.43269 0.04000
C 	C 	0.69021 0.10528 0.43352 -0.09600
C 	C 	0.67482 0.12091 0.45996 0.37600
O 	O 	0.65180 0.60747 0.96920 -0.40900
O 	O 	0.68716 0.64352 0.96941 -0.43100
N 	N 	0.77094 0.63891 0.89648 -0.13500
N 	N 	0.79256 0.64567 0.87425 -0.18900
C 	C 	0.71645 0.61625 0.92272 0.00500
H 	H 	0.72654 0.63161 0.93269 0.04100
C 	C 	0.69021 0.60528 0.93352 -0.09500
C 	C 	0.67482 0.62091 0.95996 0.37600
O 	O 	0.15180 0.89253 0.03080 -0.41300
O 	O 	0.18716 0.85648 0.03059 -0.43400
N 	N 	0.27094 0.86109 0.10352 -0.13500
N 	N 	0.29256 0.85433 0.12575 -0.18900
C 	C 	0.21645 0.88375 0.07728 0.00500
H 	H 	0.22654 0.86839 0.06731 0.04000
C 	C 	0.19021 0.89472 0.06648 -0.09600
C 	C 	0.17482 0.87909 0.04004 0.37600
O 	O 	0.15180 0.39253 0.53080 -0.41200
O 	O 	0.18716 0.35648 0.53059 -0.43300
N 	N 	0.27094 0.36109 0.60352 -0.13500
N 	N 	0.29256 0.35433 0.62575 -0.18900
C 	C 	0.21645 0.38375 0.57728 0.00500
H 	H 	0.22654 0.36839 0.56731 0.04000
C 	C 	0.19021 0.39472 0.56648 -0.09600
C 	C 	0.17482 0.37909 0.54004 0.37600
O 	O 	0.65180 0.89253 0.53080 -0.41100
O 	O 	0.68716 0.85648 0.53059 -0.43300
N 	N 	0.77094 0.86109 0.60352 -0.13500
N 	N 	0.79256 0.85433 0.62575 -0.18900
C 	C 	0.71645 0.88375 0.57728 0.00500
H 	H 	0.72654 0.86839 0.56731 0.04000
C 	C 	0.69021 0.89472 0.56648 -0.09500
C 	C 	0.67482 0.87909 0.54004 0.37600
O 	O 	0.65180 0.39253 0.03080 -0.41300
O 	O 	0.68716 0.35648 0.03059 -0.43400
N 	N 	0.77094 0.36109 0.10352 -0.13500
N 	N 	0.79256 0.35433 0.12575 -0.18900
C 	C 	0.71645 0.38375 0.07728 0.00500
H 	H 	0.72654 0.36839 0.06731 0.04000
C 	C 	0.69021 0.39472 0.06648 -0.09600
C 	C 	0.67482 0.37909 0.04004 0.37600
O 	O 	0.84820 0.10747 0.03080 -0.41300
O 	O 	0.81284 0.14352 0.03059 -0.43400
N 	N 	0.72906 0.13891 0.10352 -0.13600
N 	N 	0.70744 0.14567 0.12575 -0.19000
C 	C 	0.78355 0.11625 0.07728 0.00600
H 	H 	0.77346 0.13161 0.06731 0.03900
C 	C 	0.80979 0.10528 0.06648 -0.09700
C 	C 	0.82518 0.12091 0.04004 0.37700
O 	O 	0.84820 0.60747 0.53080 -0.41200
O 	O 	0.81284 0.64352 0.53059 -0.43300
N 	N 	0.72906 0.63891 0.60352 -0.13500
N 	N 	0.70744 0.64567 0.62575 -0.18900
C 	C 	0.78355 0.61625 0.57728 0.00500
H 	H 	0.77346 0.63161 0.56731 0.04000
C 	C 	0.80979 0.60528 0.56648 -0.09500
C 	C 	0.82518 0.62091 0.54004 0.37600
O 	O 	0.34820 0.10747 0.53080 -0.41200
O 	O 	0.31284 0.14352 0.53059 -0.43300
N 	N 	0.22906 0.13891 0.60352 -0.13500
N 	N 	0.20744 0.14567 0.62575 -0.18900
C 	C 	0.28355 0.11625 0.57728 0.00500
H 	H 	0.27346 0.13161 0.56731 0.04000
C 	C 	0.30979 0.10528 0.56648 -0.09600
C 	C 	0.32518 0.12091 0.54004 0.37600
O 	O 	0.34820 0.60747 0.03080 -0.41300
O 	O 	0.31284 0.64352 0.03059 -0.43400
N 	N 	0.22906 0.63891 0.10352 -0.13600
N 	N 	0.20744 0.64567 0.12575 -0.19000
C 	C 	0.28355 0.61625 0.07728 0.00500
H 	H 	0.27346 0.63161 0.06731 0.04000
C 	C 	0.30979 0.60528 0.06648 -0.09600
C 	C 	0.32518 0.62091 0.04004 0.37600
O 	O 	0.96920 0.84820 0.89253 -0.40900
O 	O 	0.96941 0.81284 0.85648 -0.43100
N 	N 	0.89648 0.72906 0.86109 -0.13500
N 	N 	0.87425 0.70744 0.85433 -0.18900
C 	C 	0.92272 0.78355 0.88375 0.00400
H 	H 	0.93269 0.77346 0.86839 0.04100
C 	C 	0.93352 0.80979 0.89472 -0.09400
C 	C 	0.95996 0.82518 0.87909 0.37600
O 	O 	0.96920 0.34820 0.39253 -0.40900
O 	O 	0.96941 0.31284 0.35648 -0.43100
N 	N 	0.89648 0.22906 0.36109 -0.13500
N 	N 	0.87425 0.20744 0.35433 -0.18900
C 	C 	0.92272 0.28355 0.38375 0.00500
H 	H 	0.93269 0.27346 0.36839 0.04100
C 	C 	0.93352 0.30979 0.39472 -0.09500
C 	C 	0.95996 0.32518 0.37909 0.37600
O 	O 	0.46920 0.84820 0.39253 -0.41200
O 	O 	0.46941 0.81284 0.35648 -0.43300
N 	N 	0.39648 0.72906 0.36109 -0.13500
N 	N 	0.37425 0.70744 0.35433 -0.18900
C 	C 	0.42272 0.78355 0.38375 0.00500
H 	H 	0.43269 0.77346 0.36839 0.04000
C 	C 	0.43352 0.80979 0.39472 -0.09500
C 	C 	0.45996 0.82518 0.37909 0.37600
O 	O 	0.46920 0.34820 0.89253 -0.41100
O 	O 	0.46941 0.31284 0.85648 -0.43300
N 	N 	0.39648 0.22906 0.86109 -0.13500
N 	N 	0.37425 0.20744 0.85433 -0.18900
C 	C 	0.42272 0.28355 0.88375 0.00500
H 	H 	0.43269 0.27346 0.86839 0.04000
C 	C 	0.43352 0.30979 0.89472 -0.09500
C 	C 	0.45996 0.32518 0.87909 0.37600
O 	O 	0.96920 0.15180 0.10747 -0.41000
O 	O 	0.96941 0.18716 0.14352 -0.43100
N 	N 	0.89648 0.27094 0.13891 -0.13500
N 	N 	0.87425 0.29256 0.14567 -0.18900
C 	C 	0.92272 0.21645 0.11625 0.00500
H 	H 	0.93269 0.22654 0.13161 0.04100
C 	C 	0.93352 0.19021 0.10528 -0.09500
C 	C 	0.95996 0.17482 0.12091 0.37600
O 	O 	0.96920 0.65180 0.60747 -0.40900
O 	O 	0.96941 0.68716 0.64352 -0.43100
N 	N 	0.89648 0.77094 0.63891 -0.13500
N 	N 	0.87425 0.79256 0.64567 -0.18900
C 	C 	0.92272 0.71645 0.61625 0.00500
H 	H 	0.93269 0.72654 0.63161 0.04100
C 	C 	0.93352 0.69021 0.60528 -0.09500
C 	C 	0.95996 0.67482 0.62091 0.37600
O 	O 	0.46920 0.15180 0.60747 -0.41200
O 	O 	0.46941 0.18716 0.64352 -0.43300
N 	N 	0.39648 0.27094 0.63891 -0.13500
N 	N 	0.37425 0.29256 0.64567 -0.18900
C 	C 	0.42272 0.21645 0.61625 0.00500
H 	H 	0.43269 0.22654 0.63161 0.04000
C 	C 	0.43352 0.19021 0.60528 -0.09600
C 	C 	0.45996 0.17482 0.62091 0.37600
O 	O 	0.46920 0.65180 0.10747 -0.41200
O 	O 	0.46941 0.68716 0.14352 -0.43300
N 	N 	0.39648 0.77094 0.13891 -0.13500
N 	N 	0.37425 0.79256 0.14567 -0.18900
C 	C 	0.42272 0.71645 0.11625 0.00500
H 	H 	0.43269 0.72654 0.13161 0.04000
C 	C 	0.43352 0.69021 0.10528 -0.09600
C 	C 	0.45996 0.67482 0.12091 0.37600
O 	O 	0.03080 0.15180 0.89253 -0.41300
O 	O 	0.03059 0.18716 0.85648 -0.43400
N 	N 	0.10352 0.27094 0.86109 -0.13500
N 	N 	0.12575 0.29256 0.85433 -0.18900
C 	C 	0.07728 0.21645 0.88375 0.00500
H 	H 	0.06731 0.22654 0.86839 0.04000
C 	C 	0.06648 0.19021 0.89472 -0.09600
C 	C 	0.04004 0.17482 0.87909 0.37600
O 	O 	0.03080 0.65180 0.39253 -0.41300
O 	O 	0.03059 0.68716 0.35648 -0.43400
N 	N 	0.10352 0.77094 0.36109 -0.13500
N 	N 	0.12575 0.79256 0.35433 -0.18900
C 	C 	0.07728 0.71645 0.38375 0.00500
H 	H 	0.06731 0.72654 0.36839 0.04000
C 	C 	0.06648 0.69021 0.39472 -0.09600
C 	C 	0.04004 0.67482 0.37909 0.37600
O 	O 	0.53080 0.15180 0.39253 -0.41200
O 	O 	0.53059 0.18716 0.35648 -0.43300
N 	N 	0.60352 0.27094 0.36109 -0.13500
N 	N 	0.62575 0.29256 0.35433 -0.18900
C 	C 	0.57728 0.21645 0.38375 0.00500
H 	H 	0.56731 0.22654 0.36839 0.04000
C 	C 	0.56648 0.19021 0.39472 -0.09600
C 	C 	0.54004 0.17482 0.37909 0.37600
O 	O 	0.53080 0.65180 0.89253 -0.41100
O 	O 	0.53059 0.68716 0.85648 -0.43300
N 	N 	0.60352 0.77094 0.86109 -0.13500
N 	N 	0.62575 0.79256 0.85433 -0.18900
C 	C 	0.57728 0.71645 0.88375 0.00500
H 	H 	0.56731 0.72654 0.86839 0.04000
C 	C 	0.56648 0.69021 0.89472 -0.09500
C 	C 	0.54004 0.67482 0.87909 0.37600
O 	O 	0.03080 0.84820 0.10747 -0.41300
O 	O 	0.03059 0.81284 0.14352 -0.43400
N 	N 	0.10352 0.72906 0.13891 -0.13600
N 	N 	0.12575 0.70744 0.14567 -0.19000
C 	C 	0.07728 0.78355 0.11625 0.00600
H 	H 	0.06731 0.77346 0.13161 0.03900
C 	C 	0.06648 0.80979 0.10528 -0.09700
C 	C 	0.04004 0.82518 0.12091 0.37700
O 	O 	0.03080 0.34820 0.60747 -0.41300
O 	O 	0.03059 0.31284 0.64352 -0.43400
N 	N 	0.10352 0.22906 0.63891 -0.13600
N 	N 	0.12575 0.20744 0.64567 -0.19000
C 	C 	0.07728 0.28355 0.61625 0.00500
H 	H 	0.06731 0.27346 0.63161 0.04000
C 	C 	0.06648 0.30979 0.60528 -0.09600
C 	C 	0.04004 0.32518 0.62091 0.37600
O 	O 	0.53080 0.84820 0.60747 -0.41200
O 	O 	0.53059 0.81284 0.64352 -0.43300
N 	N 	0.60352 0.72906 0.63891 -0.13500
N 	N 	0.62575 0.70744 0.64567 -0.18900
C 	C 	0.57728 0.78355 0.61625 0.00500
H 	H 	0.56731 0.77346 0.63161 0.04000
C 	C 	0.56648 0.80979 0.60528 -0.09500
C 	C 	0.54004 0.82518 0.62091 0.37600
O 	O 	0.53080 0.34820 0.10747 -0.41200
O 	O 	0.53059 0.31284 0.14352 -0.43300
N 	N 	0.60352 0.22906 0.13891 -0.13500
N 	N 	0.62575 0.20744 0.14567 -0.18900
C 	C 	0.57728 0.28355 0.11625 0.00500
H 	H 	0.56731 0.27346 0.13161 0.04000
C 	C 	0.56648 0.30979 0.10528 -0.09600
C 	C 	0.54004 0.32518 0.12091 0.37600
O 	O 	0.89253 0.96920 0.84820 -0.40900
O 	O 	0.85648 0.96941 0.81284 -0.43100
N 	N 	0.86109 0.89648 0.72906 -0.13500
N 	N 	0.85433 0.87425 0.70744 -0.18900
C 	C 	0.88375 0.92272 0.78355 0.00400
H 	H 	0.86839 0.93269 0.77346 0.04100
C 	C 	0.89472 0.93352 0.80979 -0.09400
C 	C 	0.87909 0.95996 0.82518 0.37600
O 	O 	0.89253 0.46920 0.34820 -0.41100
O 	O 	0.85648 0.46941 0.31284 -0.43300
N 	N 	0.86109 0.39648 0.22906 -0.13500
N 	N 	0.85433 0.37425 0.20744 -0.18900
C 	C 	0.88375 0.42272 0.28355 0.00500
H 	H 	0.86839 0.43269 0.27346 0.04000
C 	C 	0.89472 0.43352 0.30979 -0.09500
C 	C 	0.87909 0.45996 0.32518 0.37600
O 	O 	0.39253 0.96920 0.34820 -0.40900
O 	O 	0.35648 0.96941 0.31284 -0.43100
N 	N 	0.36109 0.89648 0.22906 -0.13500
N 	N 	0.35433 0.87425 0.20744 -0.18900
C 	C 	0.38375 0.92272 0.28355 0.00500
H 	H 	0.36839 0.93269 0.27346 0.04100
C 	C 	0.39472 0.93352 0.30979 -0.09500
C 	C 	0.37909 0.95996 0.32518 0.37600
O 	O 	0.39253 0.46920 0.84820 -0.41200
O 	O 	0.35648 0.46941 0.81284 -0.43300
N 	N 	0.36109 0.39648 0.72906 -0.13500
N 	N 	0.35433 0.37425 0.70744 -0.18900
C 	C 	0.38375 0.42272 0.78355 0.00500
H 	H 	0.36839 0.43269 0.77346 0.04000
C 	C 	0.39472 0.43352 0.80979 -0.09500
C 	C 	0.37909 0.45996 0.82518 0.37600
O 	O 	0.10747 0.96920 0.15180 -0.41000
O 	O 	0.14352 0.96941 0.18716 -0.43100
N 	N 	0.13891 0.89648 0.27094 -0.13500
N 	N 	0.14567 0.87425 0.29256 -0.18900
C 	C 	0.11625 0.92272 0.21645 0.00500
H 	H 	0.13161 0.93269 0.22654 0.04100
C 	C 	0.10528 0.93352 0.19021 -0.09500
C 	C 	0.12091 0.95996 0.17482 0.37600
O 	O 	0.10747 0.46920 0.65180 -0.41200
O 	O 	0.14352 0.46941 0.68716 -0.43300
N 	N 	0.13891 0.39648 0.77094 -0.13500
N 	N 	0.14567 0.37425 0.79256 -0.18900
C 	C 	0.11625 0.42272 0.71645 0.00500
H 	H 	0.13161 0.43269 0.72654 0.04000
C 	C 	0.10528 0.43352 0.69021 -0.09600
C 	C 	0.12091 0.45996 0.67482 0.37600
O 	O 	0.60747 0.96920 0.65180 -0.40900
O 	O 	0.64352 0.96941 0.68716 -0.43100
N 	N 	0.63891 0.89648 0.77094 -0.13500
N 	N 	0.64567 0.87425 0.79256 -0.18900
C 	C 	0.61625 0.92272 0.71645 0.00500
H 	H 	0.63161 0.93269 0.72654 0.04100
C 	C 	0.60528 0.93352 0.69021 -0.09500
C 	C 	0.62091 0.95996 0.67482 0.37600
O 	O 	0.60747 0.46920 0.15180 -0.41200
O 	O 	0.64352 0.46941 0.18716 -0.43300
N 	N 	0.63891 0.39648 0.27094 -0.13500
N 	N 	0.64567 0.37425 0.29256 -0.18900
C 	C 	0.61625 0.42272 0.21645 0.00500
H 	H 	0.63161 0.43269 0.22654 0.04000
C 	C 	0.60528 0.43352 0.19021 -0.09600
C 	C 	0.62091 0.45996 0.17482 0.37600
O 	O 	0.89253 0.03080 0.15180 -0.41300
O 	O 	0.85648 0.03059 0.18716 -0.43400
N 	N 	0.86109 0.10352 0.27094 -0.13500
N 	N 	0.85433 0.12575 0.29256 -0.18900
C 	C 	0.88375 0.07728 0.21645 0.00500
H 	H 	0.86839 0.06731 0.22654 0.04000
C 	C 	0.89472 0.06648 0.19021 -0.09600
C 	C 	0.87909 0.04004 0.17482 0.37600
O 	O 	0.89253 0.53080 0.65180 -0.41100
O 	O 	0.85648 0.53059 0.68716 -0.43300
N 	N 	0.86109 0.60352 0.77094 -0.13500
N 	N 	0.85433 0.62575 0.79256 -0.18900
C 	C 	0.88375 0.57728 0.71645 0.00500
H 	H 	0.86839 0.56731 0.72654 0.04000
C 	C 	0.89472 0.56648 0.69021 -0.09500
C 	C 	0.87909 0.54004 0.67482 0.37600
O 	O 	0.39253 0.03080 0.65180 -0.41300
O 	O 	0.35648 0.03059 0.68716 -0.43400
N 	N 	0.36109 0.10352 0.77094 -0.13500
N 	N 	0.35433 0.12575 0.79256 -0.18900
C 	C 	0.38375 0.07728 0.71645 0.00500
H 	H 	0.36839 0.06731 0.72654 0.04000
C 	C 	0.39472 0.06648 0.69021 -0.09600
C 	C 	0.37909 0.04004 0.67482 0.37600
O 	O 	0.39253 0.53080 0.15180 -0.41200
O 	O 	0.35648 0.53059 0.18716 -0.43300
N 	N 	0.36109 0.60352 0.27094 -0.13500
N 	N 	0.35433 0.62575 0.29256 -0.18900
C 	C 	0.38375 0.57728 0.21645 0.00500
H 	H 	0.36839 0.56731 0.22654 0.04000
C 	C 	0.39472 0.56648 0.19021 -0.09600
C 	C 	0.37909 0.54004 0.17482 0.37600
O 	O 	0.10747 0.03080 0.84820 -0.41300
O 	O 	0.14352 0.03059 0.81284 -0.43400
N 	N 	0.13891 0.10352 0.72906 -0.13600
N 	N 	0.14567 0.12575 0.70744 -0.19000
C 	C 	0.11625 0.07728 0.78355 0.00600
H 	H 	0.13161 0.06731 0.77346 0.03900
C 	C 	0.10528 0.06648 0.80979 -0.09700
C 	C 	0.12091 0.04004 0.82518 0.37700
O 	O 	0.10747 0.53080 0.34820 -0.41200
O 	O 	0.14352 0.53059 0.31284 -0.43300
N 	N 	0.13891 0.60352 0.22906 -0.13500
N 	N 	0.14567 0.62575 0.20744 -0.18900
C 	C 	0.11625 0.57728 0.28355 0.00500
H 	H 	0.13161 0.56731 0.27346 0.04000
C 	C 	0.10528 0.56648 0.30979 -0.09600
C 	C 	0.12091 0.54004 0.32518 0.37600
O 	O 	0.60747 0.03080 0.34820 -0.41300
O 	O 	0.64352 0.03059 0.31284 -0.43400
N 	N 	0.63891 0.10352 0.22906 -0.13600
N 	N 	0.64567 0.12575 0.20744 -0.19000
C 	C 	0.61625 0.07728 0.28355 0.00500
H 	H 	0.63161 0.06731 0.27346 0.04000
C 	C 	0.60528 0.06648 0.30979 -0.09600
C 	C 	0.62091 0.04004 0.32518 0.37600
O 	O 	0.60747 0.53080 0.84820 -0.41200
O 	O 	0.64352 0.53059 0.81284 -0.43300
N 	N 	0.63891 0.60352 0.72906 -0.13500
N 	N 	0.64567 0.62575 0.70744 -0.18900
C 	C 	0.61625 0.57728 0.78355 0.00500
H 	H 	0.63161 0.56731 0.77346 0.04000
C 	C 	0.60528 0.56648 0.80979 -0.09500
C 	C 	0.62091 0.54004 0.82518 0.37600
O 	O 	0.89253 0.84820 0.03080 -0.41200
O 	O 	0.85648 0.81284 0.03059 -0.43400
N 	N 	0.86109 0.72906 0.10352 -0.13500
N 	N 	0.85433 0.70744 0.12575 -0.18900
C 	C 	0.88375 0.78355 0.07728 0.00500
H 	H 	0.86839 0.77346 0.06731 0.04000
C 	C 	0.89472 0.80979 0.06648 -0.09600
C 	C 	0.87909 0.82518 0.04004 0.37600
O 	O 	0.89253 0.34820 0.53080 -0.41100
O 	O 	0.85648 0.31284 0.53059 -0.43300
N 	N 	0.86109 0.22906 0.60352 -0.13500
N 	N 	0.85433 0.20744 0.62575 -0.18900
C 	C 	0.88375 0.28355 0.57728 0.00500
H 	H 	0.86839 0.27346 0.56731 0.04000
C 	C 	0.89472 0.30979 0.56648 -0.09500
C 	C 	0.87909 0.32518 0.54004 0.37600
O 	O 	0.39253 0.84820 0.53080 -0.41200
O 	O 	0.35648 0.81284 0.53059 -0.43300
N 	N 	0.36109 0.72906 0.60352 -0.13500
N 	N 	0.35433 0.70744 0.62575 -0.18900
C 	C 	0.38375 0.78355 0.57728 0.00500
H 	H 	0.36839 0.77346 0.56731 0.04000
C 	C 	0.39472 0.80979 0.56648 -0.09500
C 	C 	0.37909 0.82518 0.54004 0.37600
O 	O 	0.39253 0.34820 0.03080 -0.41300
O 	O 	0.35648 0.31284 0.03059 -0.43400
N 	N 	0.36109 0.22906 0.10352 -0.13600
N 	N 	0.35433 0.20744 0.12575 -0.18900
C 	C 	0.38375 0.28355 0.07728 0.00500
H 	H 	0.36839 0.27346 0.06731 0.04000
C 	C 	0.39472 0.30979 0.06648 -0.09600
C 	C 	0.37909 0.32518 0.04004 0.37600
O 	O 	0.10747 0.15180 0.03080 -0.41300
O 	O 	0.14352 0.18716 0.03059 -0.43400
N 	N 	0.13891 0.27094 0.10352 -0.13600
N 	N 	0.14567 0.29256 0.12575 -0.19000
C 	C 	0.11625 0.21645 0.07728 0.00600
H 	H 	0.13161 0.22654 0.06731 0.03900
C 	C 	0.10528 0.19021 0.06648 -0.09700
C 	C 	0.12091 0.17482 0.04004 0.37700
O 	O 	0.10747 0.65180 0.53080 -0.41200
O 	O 	0.14352 0.68716 0.53059 -0.43300
N 	N 	0.13891 0.77094 0.60352 -0.13500
N 	N 	0.14567 0.79256 0.62575 -0.18900
C 	C 	0.11625 0.71645 0.57728 0.00500
H 	H 	0.13161 0.72654 0.56731 0.04000
C 	C 	0.10528 0.69021 0.56648 -0.09600
C 	C 	0.12091 0.67482 0.54004 0.37600
O 	O 	0.60747 0.15180 0.53080 -0.41200
O 	O 	0.64352 0.18716 0.53059 -0.43300
N 	N 	0.63891 0.27094 0.60352 -0.13500
N 	N 	0.64567 0.29256 0.62575 -0.18900
C 	C 	0.61625 0.21645 0.57728 0.00500
H 	H 	0.63161 0.22654 0.56731 0.04000
C 	C 	0.60528 0.19021 0.56648 -0.09600
C 	C 	0.62091 0.17482 0.54004 0.37600
O 	O 	0.60747 0.65180 0.03080 -0.41300
O 	O 	0.64352 0.68716 0.03059 -0.43400
N 	N 	0.63891 0.77094 0.10352 -0.13500
N 	N 	0.64567 0.79256 0.12575 -0.18900
C 	C 	0.61625 0.71645 0.07728 0.00500
H 	H 	0.63161 0.72654 0.06731 0.04000
C 	C 	0.60528 0.69021 0.06648 -0.09600
C 	C 	0.62091 0.67482 0.04004 0.37600
O 	O 	0.89253 0.15180 0.96920 -0.40900
O 	O 	0.85648 0.18716 0.96941 -0.43100
N 	N 	0.86109 0.27094 0.89648 -0.13500
N 	N 	0.85433 0.29256 0.87425 -0.18900
C 	C 	0.88375 0.21645 0.92272 0.00400
H 	H 	0.86839 0.22654 0.93269 0.04100
C 	C 	0.89472 0.19021 0.93352 -0.09400
C 	C 	0.87909 0.17482 0.95996 0.37600
O 	O 	0.89253 0.65180 0.46920 -0.41100
O 	O 	0.85648 0.68716 0.46941 -0.43300
N 	N 	0.86109 0.77094 0.39648 -0.13500
N 	N 	0.85433 0.79256 0.37425 -0.18900
C 	C 	0.88375 0.71645 0.42272 0.00500
H 	H 	0.86839 0.72654 0.43269 0.04000
C 	C 	0.89472 0.69021 0.43352 -0.09500
C 	C 	0.87909 0.67482 0.45996 0.37600
O 	O 	0.39253 0.15180 0.46920 -0.41200
O 	O 	0.35648 0.18716 0.46941 -0.43300
N 	N 	0.36109 0.27094 0.39648 -0.13500
N 	N 	0.35433 0.29256 0.37425 -0.18900
C 	C 	0.38375 0.21645 0.42272 0.00500
H 	H 	0.36839 0.22654 0.43269 0.04000
C 	C 	0.39472 0.19021 0.43352 -0.09600
C 	C 	0.37909 0.17482 0.45996 0.37600
O 	O 	0.39253 0.65180 0.96920 -0.40900
O 	O 	0.35648 0.68716 0.96941 -0.43100
N 	N 	0.36109 0.77094 0.89648 -0.13500
N 	N 	0.35433 0.79256 0.87425 -0.18900
C 	C 	0.38375 0.71645 0.92272 0.00500
H 	H 	0.36839 0.72654 0.93269 0.04100
C 	C 	0.39472 0.69021 0.93352 -0.09500
C 	C 	0.37909 0.67482 0.95996 0.37600
O 	O 	0.10747 0.84820 0.96920 -0.41000
O 	O 	0.14352 0.81284 0.96941 -0.43100
N 	N 	0.13891 0.72906 0.89648 -0.13500
N 	N 	0.14567 0.70744 0.87425 -0.18900
C 	C 	0.11625 0.78355 0.92272 0.00500
H 	H 	0.13161 0.77346 0.93269 0.04100
C 	C 	0.10528 0.80979 0.93352 -0.09500
C 	C 	0.12091 0.82518 0.95996 0.37600
O 	O 	0.10747 0.34820 0.46920 -0.41200
O 	O 	0.14352 0.31284 0.46941 -0.43300
N 	N 	0.13891 0.22906 0.39648 -0.13500
N 	N 	0.14567 0.20744 0.37425 -0.18900
C 	C 	0.11625 0.28355 0.42272 0.00500
H 	H 	0.13161 0.27346 0.43269 0.04000
C 	C 	0.10528 0.30979 0.43352 -0.09600
C 	C 	0.12091 0.32518 0.45996 0.37600
O 	O 	0.60747 0.84820 0.46920 -0.41200
O 	O 	0.64352 0.81284 0.46941 -0.43300
N 	N 	0.63891 0.72906 0.39648 -0.13500
N 	N 	0.64567 0.70744 0.37425 -0.18900
C 	C 	0.61625 0.78355 0.42272 0.00500
H 	H 	0.63161 0.77346 0.43269 0.04000
C 	C 	0.60528 0.80979 0.43352 -0.09500
C 	C 	0.62091 0.82518 0.45996 0.37600
O 	O 	0.60747 0.34820 0.96920 -0.40900
O 	O 	0.64352 0.31284 0.96941 -0.43100
N 	N 	0.63891 0.22906 0.89648 -0.13500
N 	N 	0.64567 0.20744 0.87425 -0.18900
C 	C 	0.61625 0.28355 0.92272 0.00500
H 	H 	0.63161 0.27346 0.93269 0.04100
C 	C 	0.60528 0.30979 0.93352 -0.09500
C 	C 	0.62091 0.32518 0.95996 0.37600
O 	O 	0.84820 0.96920 0.10747 -0.41000
O 	O 	0.81284 0.96941 0.14352 -0.43100
N 	N 	0.72906 0.89648 0.13891 -0.13500
N 	N 	0.70744 0.87425 0.14567 -0.18900
C 	C 	0.78355 0.92272 0.11625 0.00500
H 	H 	0.77346 0.93269 0.13161 0.04100
C 	C 	0.80979 0.93352 0.10528 -0.09500
C 	C 	0.82518 0.95996 0.12091 0.37600
O 	O 	0.84820 0.46920 0.60747 -0.41200
O 	O 	0.81284 0.46941 0.64352 -0.43300
N 	N 	0.72906 0.39648 0.63891 -0.13500
N 	N 	0.70744 0.37425 0.64567 -0.18900
C 	C 	0.78355 0.42272 0.61625 0.00500
H 	H 	0.77346 0.43269 0.63161 0.04000
C 	C 	0.80979 0.43352 0.60528 -0.09500
C 	C 	0.82518 0.45996 0.62091 0.37600
O 	O 	0.34820 0.96920 0.60747 -0.40900
O 	O 	0.31284 0.96941 0.64352 -0.43100
N 	N 	0.22906 0.89648 0.63891 -0.13500
N 	N 	0.20744 0.87425 0.64567 -0.18900
C 	C 	0.28355 0.92272 0.61625 0.00500
H 	H 	0.27346 0.93269 0.63161 0.04100
C 	C 	0.30979 0.93352 0.60528 -0.09500
C 	C 	0.32518 0.95996 0.62091 0.37600
O 	O 	0.34820 0.46920 0.10747 -0.41200
O 	O 	0.31284 0.46941 0.14352 -0.43300
N 	N 	0.22906 0.39648 0.13891 -0.13500
N 	N 	0.20744 0.37425 0.14567 -0.18900
C 	C 	0.28355 0.42272 0.11625 0.00500
H 	H 	0.27346 0.43269 0.13161 0.04000
C 	C 	0.30979 0.43352 0.10528 -0.09600
C 	C 	0.32518 0.45996 0.12091 0.37600
O 	O 	0.15180 0.96920 0.89253 -0.40900
O 	O 	0.18716 0.96941 0.85648 -0.43100
N 	N 	0.27094 0.89648 0.86109 -0.13500
N 	N 	0.29256 0.87425 0.85433 -0.18900
C 	C 	0.21645 0.92272 0.88375 0.00400
H 	H 	0.22654 0.93269 0.86839 0.04100
C 	C 	0.19021 0.93352 0.89472 -0.09400
C 	C 	0.17482 0.95996 0.87909 0.37600
O 	O 	0.15180 0.46920 0.39253 -0.41200
O 	O 	0.18716 0.46941 0.35648 -0.43300
N 	N 	0.27094 0.39648 0.36109 -0.13500
N 	N 	0.29256 0.37425 0.35433 -0.18900
C 	C 	0.21645 0.42272 0.38375 0.00500
H 	H 	0.22654 0.43269 0.36839 0.04000
C 	C 	0.19021 0.43352 0.39472 -0.09600
C 	C 	0.17482 0.45996 0.37909 0.37600
O 	O 	0.65180 0.96920 0.39253 -0.40900
O 	O 	0.68716 0.96941 0.35648 -0.43100
N 	N 	0.77094 0.89648 0.36109 -0.13500
N 	N 	0.79256 0.87425 0.35433 -0.18900
C 	C 	0.71645 0.92272 0.38375 0.00500
H 	H 	0.72654 0.93269 0.36839 0.04100
C 	C 	0.69021 0.93352 0.39472 -0.09500
C 	C 	0.67482 0.95996 0.37909 0.37600
O 	O 	0.65180 0.46920 0.89253 -0.41100
O 	O 	0.68716 0.46941 0.85648 -0.43300
N 	N 	0.77094 0.39648 0.86109 -0.13500
N 	N 	0.79256 0.37425 0.85433 -0.18900
C 	C 	0.71645 0.42272 0.88375 0.00500
H 	H 	0.72654 0.43269 0.86839 0.04000
C 	C 	0.69021 0.43352 0.89472 -0.09500
C 	C 	0.67482 0.45996 0.87909 0.37600
O 	O 	0.15180 0.03080 0.10747 -0.41300
O 	O 	0.18716 0.03059 0.14352 -0.43400
N 	N 	0.27094 0.10352 0.13891 -0.13600
N 	N 	0.29256 0.12575 0.14567 -0.19000
C 	C 	0.21645 0.07728 0.11625 0.00600
H 	H 	0.22654 0.06731 0.13161 0.03900
C 	C 	0.19021 0.06648 0.10528 -0.09700
C 	C 	0.17482 0.04004 0.12091 0.37700
O 	O 	0.15180 0.53080 0.60747 -0.41200
O 	O 	0.18716 0.53059 0.64352 -0.43300
N 	N 	0.27094 0.60352 0.63891 -0.13500
N 	N 	0.29256 0.62575 0.64567 -0.18900
C 	C 	0.21645 0.57728 0.61625 0.00500
H 	H 	0.22654 0.56731 0.63161 0.04000
C 	C 	0.19021 0.56648 0.60528 -0.09600
C 	C 	0.17482 0.54004 0.62091 0.37600
O 	O 	0.65180 0.03080 0.60747 -0.41300
O 	O 	0.68716 0.03059 0.64352 -0.43400
N 	N 	0.77094 0.10352 0.63891 -0.13500
N 	N 	0.79256 0.12575 0.64567 -0.18900
C 	C 	0.71645 0.07728 0.61625 0.00500
H 	H 	0.72654 0.06731 0.63161 0.04000
C 	C 	0.69021 0.06648 0.60528 -0.09600
C 	C 	0.67482 0.04004 0.62091 0.37600
O 	O 	0.65180 0.53080 0.10747 -0.41200
O 	O 	0.68716 0.53059 0.14352 -0.43300
N 	N 	0.77094 0.60352 0.13891 -0.13500
N 	N 	0.79256 0.62575 0.14567 -0.18900
C 	C 	0.71645 0.57728 0.11625 0.00500
H 	H 	0.72654 0.56731 0.13161 0.04000
C 	C 	0.69021 0.56648 0.10528 -0.09600
C 	C 	0.67482 0.54004 0.12091 0.37600
O 	O 	0.84820 0.03080 0.89253 -0.41200
O 	O 	0.81284 0.03059 0.85648 -0.43400
N 	N 	0.72906 0.10352 0.86109 -0.13500
N 	N 	0.70744 0.12575 0.85433 -0.18900
C 	C 	0.78355 0.07728 0.88375 0.00500
H 	H 	0.77346 0.06731 0.86839 0.04000
C 	C 	0.80979 0.06648 0.89472 -0.09600
C 	C 	0.82518 0.04004 0.87909 0.37600
O 	O 	0.84820 0.53080 0.39253 -0.41200
O 	O 	0.81284 0.53059 0.35648 -0.43300
N 	N 	0.72906 0.60352 0.36109 -0.13500
N 	N 	0.70744 0.62575 0.35433 -0.18900
C 	C 	0.78355 0.57728 0.38375 0.00500
H 	H 	0.77346 0.56731 0.36839 0.04000
C 	C 	0.80979 0.56648 0.39472 -0.09500
C 	C 	0.82518 0.54004 0.37909 0.37600
O 	O 	0.34820 0.03080 0.39253 -0.41300
O 	O 	0.31284 0.03059 0.35648 -0.43400
N 	N 	0.22906 0.10352 0.36109 -0.13600
N 	N 	0.20744 0.12575 0.35433 -0.18900
C 	C 	0.28355 0.07728 0.38375 0.00500
H 	H 	0.27346 0.06731 0.36839 0.04000
C 	C 	0.30979 0.06648 0.39472 -0.09600
C 	C 	0.32518 0.04004 0.37909 0.37600
O 	O 	0.34820 0.53080 0.89253 -0.41100
O 	O 	0.31284 0.53059 0.85648 -0.43300
N 	N 	0.22906 0.60352 0.86109 -0.13500
N 	N 	0.20744 0.62575 0.85433 -0.18900
C 	C 	0.28355 0.57728 0.88375 0.00500
H 	H 	0.27346 0.56731 0.86839 0.04000
C 	C 	0.30979 0.56648 0.89472 -0.09500
C 	C 	0.32518 0.54004 0.87909 0.37600
O 	O 	0.96920 0.89253 0.15180 -0.40900
O 	O 	0.96941 0.85648 0.18716 -0.43100
N 	N 	0.89648 0.86109 0.27094 -0.13500
N 	N 	0.87425 0.85433 0.29256 -0.18900
C 	C 	0.92272 0.88375 0.21645 0.00400
H 	H 	0.93269 0.86839 0.22654 0.04100
C 	C 	0.93352 0.89472 0.19021 -0.09400
C 	C 	0.95996 0.87909 0.17482 0.37600
O 	O 	0.96920 0.39253 0.65180 -0.40900
O 	O 	0.96941 0.35648 0.68716 -0.43100
N 	N 	0.89648 0.36109 0.77094 -0.13500
N 	N 	0.87425 0.35433 0.79256 -0.18900
C 	C 	0.92272 0.38375 0.71645 0.00500
H 	H 	0.93269 0.36839 0.72654 0.04100
C 	C 	0.93352 0.39472 0.69021 -0.09500
C 	C 	0.95996 0.37909 0.67482 0.37600
O 	O 	0.46920 0.89253 0.65180 -0.41100
O 	O 	0.46941 0.85648 0.68716 -0.43300
N 	N 	0.39648 0.86109 0.77094 -0.13500
N 	N 	0.37425 0.85433 0.79256 -0.18900
C 	C 	0.42272 0.88375 0.71645 0.00500
H 	H 	0.43269 0.86839 0.72654 0.04000
C 	C 	0.43352 0.89472 0.69021 -0.09500
C 	C 	0.45996 0.87909 0.67482 0.37600
O 	O 	0.46920 0.39253 0.15180 -0.41200
O 	O 	0.46941 0.35648 0.18716 -0.43300
N 	N 	0.39648 0.36109 0.27094 -0.13500
N 	N 	0.37425 0.35433 0.29256 -0.18900
C 	C 	0.42272 0.38375 0.21645 0.00500
H 	H 	0.43269 0.36839 0.22654 0.04000
C 	C 	0.43352 0.39472 0.19021 -0.09600
C 	C 	0.45996 0.37909 0.17482 0.37600
O 	O 	0.96920 0.10747 0.84820 -0.41000
O 	O 	0.96941 0.14352 0.81284 -0.43100
N 	N 	0.89648 0.13891 0.72906 -0.13500
N 	N 	0.87425 0.14567 0.70744 -0.18900
C 	C 	0.92272 0.11625 0.78355 0.00500
H 	H 	0.93269 0.13161 0.77346 0.04100
C 	C 	0.93352 0.10528 0.80979 -0.09500
C 	C 	0.95996 0.12091 0.82518 0.37600
O 	O 	0.96920 0.60747 0.34820 -0.40900
O 	O 	0.96941 0.64352 0.31284 -0.43100
N 	N 	0.89648 0.63891 0.22906 -0.13500
N 	N 	0.87425 0.64567 0.20744 -0.18900
C 	C 	0.92272 0.61625 0.28355 0.00500
H 	H 	0.93269 0.63161 0.27346 0.04100
C 	C 	0.93352 0.60528 0.30979 -0.09500
C 	C 	0.95996 0.62091 0.32518 0.37600
O 	O 	0.46920 0.10747 0.34820 -0.41200
O 	O 	0.46941 0.14352 0.31284 -0.43300
N 	N 	0.39648 0.13891 0.22906 -0.13500
N 	N 	0.37425 0.14567 0.20744 -0.18900
C 	C 	0.42272 0.11625 0.28355 0.00500
H 	H 	0.43269 0.13161 0.27346 0.04000
C 	C 	0.43352 0.10528 0.30979 -0.09600
C 	C 	0.45996 0.12091 0.32518 0.37600
O 	O 	0.46920 0.60747 0.84820 -0.41200
O 	O 	0.46941 0.64352 0.81284 -0.43300
N 	N 	0.39648 0.63891 0.72906 -0.13500
N 	N 	0.37425 0.64567 0.70744 -0.18900
C 	C 	0.42272 0.61625 0.78355 0.00500
H 	H 	0.43269 0.63161 0.77346 0.04000
C 	C 	0.43352 0.60528 0.80979 -0.09500
C 	C 	0.45996 0.62091 0.82518 0.37600
O 	O 	0.03080 0.89253 0.84820 -0.41200
O 	O 	0.03059 0.85648 0.81284 -0.43400
N 	N 	0.10352 0.86109 0.72906 -0.13500
N 	N 	0.12575 0.85433 0.70744 -0.18900
C 	C 	0.07728 0.88375 0.78355 0.00500
H 	H 	0.06731 0.86839 0.77346 0.04000
C 	C 	0.06648 0.89472 0.80979 -0.09600
C 	C 	0.04004 0.87909 0.82518 0.37600
O 	O 	0.03080 0.39253 0.34820 -0.41300
O 	O 	0.03059 0.35648 0.31284 -0.43400
N 	N 	0.10352 0.36109 0.22906 -0.13600
N 	N 	0.12575 0.35433 0.20744 -0.18900
C 	C 	0.07728 0.38375 0.28355 0.00500
H 	H 	0.06731 0.36839 0.27346 0.04000
C 	C 	0.06648 0.39472 0.30979 -0.09600
C 	C 	0.04004 0.37909 0.32518 0.37600
O 	O 	0.53080 0.89253 0.34820 -0.41100
O 	O 	0.53059 0.85648 0.31284 -0.43300
N 	N 	0.60352 0.86109 0.22906 -0.13500
N 	N 	0.62575 0.85433 0.20744 -0.18900
C 	C 	0.57728 0.88375 0.28355 0.00500
H 	H 	0.56731 0.86839 0.27346 0.04000
C 	C 	0.56648 0.89472 0.30979 -0.09500
C 	C 	0.54004 0.87909 0.32518 0.37600
O 	O 	0.53080 0.39253 0.84820 -0.41200
O 	O 	0.53059 0.35648 0.81284 -0.43300
N 	N 	0.60352 0.36109 0.72906 -0.13500
N 	N 	0.62575 0.35433 0.70744 -0.18900
C 	C 	0.57728 0.38375 0.78355 0.00500
H 	H 	0.56731 0.36839 0.77346 0.04000
C 	C 	0.56648 0.39472 0.80979 -0.09500
C 	C 	0.54004 0.37909 0.82518 0.37600
O 	O 	0.03080 0.10747 0.15180 -0.41300
O 	O 	0.03059 0.14352 0.18716 -0.43400
N 	N 	0.10352 0.13891 0.27094 -0.13600
N 	N 	0.12575 0.14567 0.29256 -0.19000
C 	C 	0.07728 0.11625 0.21645 0.00600
H 	H 	0.06731 0.13161 0.22654 0.03900
C 	C 	0.06648 0.10528 0.19021 -0.09700
C 	C 	0.04004 0.12091 0.17482 0.37700
O 	O 	0.03080 0.60747 0.65180 -0.41300
O 	O 	0.03059 0.64352 0.68716 -0.43400
N 	N 	0.10352 0.63891 0.77094 -0.13500
N 	N 	0.12575 0.64567 0.79256 -0.18900
C 	C 	0.07728 0.61625 0.71645 0.00500
H 	H 	0.06731 0.63161 0.72654 0.04000
C 	C 	0.06648 0.60528 0.69021 -0.09600
C 	C 	0.04004 0.62091 0.67482 0.37600
O 	O 	0.53080 0.10747 0.65180 -0.41200
O 	O 	0.53059 0.14352 0.68716 -0.43300
N 	N 	0.60352 0.13891 0.77094 -0.13500
N 	N 	0.62575 0.14567 0.79256 -0.18900
C 	C 	0.57728 0.11625 0.71645 0.00500
H 	H 	0.56731 0.13161 0.72654 0.04000
C 	C 	0.56648 0.10528 0.69021 -0.09600
C 	C 	0.54004 0.12091 0.67482 0.37600
O 	O 	0.53080 0.60747 0.15180 -0.41200
O 	O 	0.53059 0.64352 0.18716 -0.43300
N 	N 	0.60352 0.63891 0.27094 -0.13500
N 	N 	0.62575 0.64567 0.29256 -0.18900
C 	C 	0.57728 0.61625 0.21645 0.00500
H 	H 	0.56731 0.63161 0.22654 0.04000
C 	C 	0.56648 0.60528 0.19021 -0.09600
C 	C 	0.54004 0.62091 0.17482 0.37600
Cu	Cu	0.16867 0.16867 -0.00000 0.90200
Cu	Cu	0.12656 0.12656 -0.00000 0.90100
Cu	Cu	0.16867 0.66867 0.50000 0.90400
Cu	Cu	0.12656 0.62656 0.50000 0.90300
Cu	Cu	0.66867 0.16867 0.50000 0.90400
Cu	Cu	0.62656 0.12656 0.50000 0.90300
Cu	Cu	0.66867 0.66867 -0.00000 0.90200
Cu	Cu	0.62656 0.62656 -0.00000 0.90100
Cu	Cu	0.83133 0.83133 -0.00000 0.90200
Cu	Cu	0.87344 0.87344 -0.00000 0.90100
Cu	Cu	0.83133 0.33133 0.50000 0.90400
Cu	Cu	0.87344 0.37344 0.50000 0.90300
Cu	Cu	0.33133 0.83133 0.50000 0.90400
Cu	Cu	0.37344 0.87344 0.50000 0.90300
Cu	Cu	0.33133 0.33133 -0.00000 0.90200
Cu	Cu	0.37344 0.37344 -0.00000 0.90100
Cu	Cu	0.83133 0.16867 -0.00000 0.90200
Cu	Cu	0.87344 0.12656 -0.00000 0.90100
Cu	Cu	0.83133 0.66867 0.50000 0.90400
Cu	Cu	0.87344 0.62656 0.50000 0.90300
Cu	Cu	0.33133 0.16867 0.50000 0.90400
Cu	Cu	0.37344 0.12656 0.50000 0.90300
Cu	Cu	0.33133 0.66867 -0.00000 0.90200
Cu	Cu	0.37344 0.62656 -0.00000 0.90100
Cu	Cu	0.16867 0.83133 -0.00000 0.90200
Cu	Cu	0.12656 0.87344 -0.00000 0.90100
Cu	Cu	0.16867 0.33133 0.50000 0.90400
Cu	Cu	0.12656 0.37344 0.50000 0.90300
Cu	Cu	0.66867 0.83133 0.50000 0.90400
Cu	Cu	0.62656 0.87344 0.50000 0.90300
Cu	Cu	0.66867 0.33133 -0.00000 0.90200
Cu	Cu	0.62656 0.37344 -0.00000 0.90100
Cu	Cu	-0.00000 0.16867 0.16867 0.90200
Cu	Cu	-0.00000 0.12656 0.12656 0.90100
Cu	Cu	0.00000 0.66867 0.66867 0.90200
Cu	Cu	0.00000 0.62656 0.62656 0.90100
Cu	Cu	0.50000 0.16867 0.66867 0.90400
Cu	Cu	0.50000 0.12656 0.62656 0.90300
Cu	Cu	0.50000 0.66867 0.16867 0.90400
Cu	Cu	0.50000 0.62656 0.12656 0.90300
Cu	Cu	0.00000 0.83133 0.83133 0.90200
Cu	Cu	0.00000 0.87344 0.87344 0.90100
Cu	Cu	-0.00000 0.33133 0.33133 0.90200
Cu	Cu	-0.00000 0.37344 0.37344 0.90100
Cu	Cu	0.50000 0.83133 0.33133 0.90400
Cu	Cu	0.50000 0.87344 0.37344 0.90300
Cu	Cu	0.50000 0.33133 0.83133 0.90400
Cu	Cu	0.50000 0.37344 0.87344 0.90300
Cu	Cu	-0.00000 0.83133 0.16867 0.90200
Cu	Cu	-0.00000 0.87344 0.12656 0.90100
Cu	Cu	0.00000 0.33133 0.66867 0.90200
Cu	Cu	-0.00000 0.37344 0.62656 0.90100
Cu	Cu	0.50000 0.83133 0.66867 0.90400
Cu	Cu	0.50000 0.87344 0.62656 0.90300
Cu	Cu	0.50000 0.33133 0.16867 0.90400
Cu	Cu	0.50000 0.37344 0.12656 0.90300
Cu	Cu	-0.00000 0.16867 0.83133 0.90200
Cu	Cu	-0.00000 0.12656 0.87344 0.90100
Cu	Cu	0.00000 0.66867 0.33133 0.90200
Cu	Cu	-0.00000 0.62656 0.37344 0.90100
Cu	Cu	0.50000 0.16867 0.33133 0.90400
Cu	Cu	0.50000 0.12656 0.37344 0.90300
Cu	Cu	0.50000 0.66867 0.83133 0.90400
Cu	Cu	0.50000 0.62656 0.87344 0.90300
Cu	Cu	0.16867 -0.00000 0.16867 0.90200
Cu	Cu	0.12656 -0.00000 0.12656 0.90100
Cu	Cu	0.16867 0.50000 0.66867 0.90400
Cu	Cu	0.12656 0.50000 0.62656 0.90300
Cu	Cu	0.66867 0.00000 0.66867 0.90200
Cu	Cu	0.62656 0.00000 0.62656 0.90100
Cu	Cu	0.66867 0.50000 0.16867 0.90400
Cu	Cu	0.62656 0.50000 0.12656 0.90300
Cu	Cu	0.83133 0.00000 0.83133 0.90200
Cu	Cu	0.87344 0.00000 0.87344 0.90100
Cu	Cu	0.83133 0.50000 0.33133 0.90400
Cu	Cu	0.87344 0.50000 0.37344 0.90300
Cu	Cu	0.33133 0.00000 0.33133 0.90200
Cu	Cu	0.37344 -0.00000 0.37344 0.90100
Cu	Cu	0.33133 0.50000 0.83133 0.90400
Cu	Cu	0.37344 0.50000 0.87344 0.90300
Cu	Cu	0.16867 0.00000 0.83133 0.90200
Cu	Cu	0.12656 0.00000 0.87344 0.90100
Cu	Cu	0.16867 0.50000 0.33133 0.90400
Cu	Cu	0.12656 0.50000 0.37344 0.90300
Cu	Cu	0.66867 0.00000 0.33133 0.90200
Cu	Cu	0.62656 -0.00000 0.37344 0.90100
Cu	Cu	0.66867 0.50000 0.83133 0.90400
Cu	Cu	0.62656 0.50000 0.87344 0.90300
Cu	Cu	0.83133 -0.00000 0.16867 0.90200
Cu	Cu	0.87344 -0.00000 0.12656 0.90100
Cu	Cu	0.83133 0.50000 0.66867 0.90400
Cu	Cu	0.87344 0.50000 0.62656 0.90300
Cu	Cu	0.33133 0.00000 0.66867 0.90200
Cu	Cu	0.37344 0.00000 0.62656 0.90100
Cu	Cu	0.33133 0.50000 0.16867 0.90400
Cu	Cu	0.37344 0.50000 0.12656 0.90300
Cu	Cu	0.32504 0.17496 0.12195 0.82100
Cu	Cu	0.32504 0.67496 0.62195 0.82100
Cu	Cu	0.67496 0.82504 0.12195 0.82100
Cu	Cu	0.67496 0.32504 0.62195 0.82100
Cu	Cu	0.17496 0.32504 0.12195 0.82100
Cu	Cu	0.67496 0.17496 0.87805 0.82100
Cu	Cu	0.67496 0.67496 0.37805 0.82100
Cu	Cu	0.17496 0.17496 0.37805 0.82100
Cu	Cu	0.32504 0.82504 0.87805 0.82200
Cu	Cu	0.32504 0.32504 0.37805 0.82100
Cu	Cu	0.12195 0.32504 0.17496 0.82100
Cu	Cu	0.62195 0.32504 0.67496 0.82100
Cu	Cu	0.12195 0.67496 0.82504 0.82100
Cu	Cu	0.12195 0.17496 0.32504 0.82100
Cu	Cu	0.62195 0.67496 0.32504 0.82100
Cu	Cu	0.87805 0.67496 0.17496 0.82100
Cu	Cu	0.37805 0.67496 0.67496 0.82100
Cu	Cu	0.37805 0.17496 0.17496 0.82100
Cu	Cu	0.87805 0.32504 0.82504 0.82200
Cu	Cu	0.37805 0.32504 0.32504 0.82100
Cu	Cu	0.17496 0.12195 0.32504 0.82100
Cu	Cu	0.17496 0.62195 0.82504 0.82100
Cu	Cu	0.82504 0.12195 0.67496 0.82100
Cu	Cu	0.82504 0.62195 0.17496 0.82100
Cu	Cu	0.32504 0.12195 0.17496 0.82100
Cu	Cu	0.17496 0.87805 0.67496 0.82100
Cu	Cu	0.17496 0.37805 0.17496 0.82100
Cu	Cu	0.82504 0.87805 0.32504 0.82200
Cu	Cu	0.82504 0.37805 0.82504 0.82200
Cu	Cu	0.32504 0.37805 0.32504 0.82100
Cu	Cu	0.17496 0.32504 0.87805 0.82200
Cu	Cu	0.17496 0.82504 0.37805 0.82100
Cu	Cu	0.82504 0.67496 0.87805 0.82200
Cu	Cu	0.82504 0.17496 0.37805 0.82100
Cu	Cu	0.32504 0.17496 0.87805 0.82200
Cu	Cu	0.17496 0.67496 0.12195 0.82100
Cu	Cu	0.17496 0.17496 0.62195 0.82100
Cu	Cu	0.82504 0.32504 0.12195 0.82100
Cu	Cu	0.82504 0.82504 0.62195 0.82100
Cu	Cu	0.32504 0.32504 0.62195 0.82100
Cu	Cu	0.32504 0.12195 0.82504 0.82100
Cu	Cu	0.32504 0.62195 0.32504 0.82100
Cu	Cu	0.67496 0.12195 0.17496 0.82100
Cu	Cu	0.67496 0.62195 0.67496 0.82100
Cu	Cu	0.17496 0.62195 0.17496 0.82100
Cu	Cu	0.67496 0.87805 0.82504 0.82200
Cu	Cu	0.67496 0.37805 0.32504 0.82100
Cu	Cu	0.17496 0.87805 0.32504 0.82200
Cu	Cu	0.32504 0.87805 0.17496 0.82200
Cu	Cu	0.32504 0.37805 0.67496 0.82100
Cu	Cu	0.12195 0.17496 0.67496 0.82100
Cu	Cu	0.62195 0.17496 0.17496 0.82100
Cu	Cu	0.12195 0.82504 0.32504 0.82100
Cu	Cu	0.62195 0.82504 0.82504 0.82100
Cu	Cu	0.62195 0.32504 0.32504 0.82100
Cu	Cu	0.87805 0.17496 0.32504 0.82200
Cu	Cu	0.37805 0.17496 0.82504 0.82100
Cu	Cu	0.87805 0.82504 0.67496 0.82200
Cu	Cu	0.87805 0.32504 0.17496 0.82200
Cu	Cu	0.37805 0.82504 0.17496 0.82100
Cu	Cu	0.67496 0.82504 0.87805 0.82200
Cu	Cu	0.67496 0.32504 0.37805 0.82100
Cu	Cu	0.32504 0.67496 0.37805 0.82100
Cu	Cu	0.32504 0.82504 0.12195 0.82100
Cu	Cu	0.67496 0.17496 0.12195 0.82100
Cu	Cu	0.67496 0.67496 0.62195 0.82100
Cu	Cu	0.87805 0.67496 0.82504 0.82200
Cu	Cu	0.37805 0.67496 0.32504 0.82100
Cu	Cu	0.37805 0.32504 0.67496 0.82100
Cu	Cu	0.12195 0.32504 0.82504 0.82100
Cu	Cu	0.12195 0.67496 0.17496 0.82100
Cu	Cu	0.62195 0.67496 0.67496 0.82100
Cu	Cu	0.82504 0.87805 0.67496 0.82200
Cu	Cu	0.82504 0.37805 0.17496 0.82100
Cu	Cu	0.17496 0.37805 0.82504 0.82100
Cu	Cu	0.82504 0.12195 0.32504 0.82100
Cu	Cu	0.82504 0.62195 0.82504 0.82100
Cu	Cu	0.17496 0.12195 0.67496 0.82100
Cu	Cu	0.82504 0.67496 0.12195 0.82100
Cu	Cu	0.82504 0.17496 0.62195 0.82100
Cu	Cu	0.17496 0.82504 0.62195 0.82100
Cu	Cu	0.82504 0.32504 0.87805 0.82200
Cu	Cu	0.82504 0.82504 0.37805 0.82200
Cu	Cu	0.17496 0.67496 0.87805 0.82100
Cu	Cu	0.67496 0.87805 0.17496 0.82100
Cu	Cu	0.67496 0.37805 0.67496 0.82100
Cu	Cu	0.32504 0.87805 0.82504 0.82200
Cu	Cu	0.32504 0.62195 0.67496 0.82100
Cu	Cu	0.67496 0.12195 0.82504 0.82100
Cu	Cu	0.67496 0.62195 0.32504 0.82100
Cu	Cu	0.87805 0.82504 0.32504 0.82200
Cu	Cu	0.37805 0.82504 0.82504 0.82200
Cu	Cu	0.87805 0.17496 0.67496 0.82100
Cu	Cu	0.12195 0.82504 0.67496 0.82100
Cu	Cu	0.62195 0.82504 0.17496 0.82100
Cu	Cu	0.62195 0.17496 0.82504 0.82100
O 	O 	0.33930 0.16070 0.16070 -0.62200
O 	O 	0.33930 0.66070 0.66070 -0.62200
O 	O 	0.66070 0.83930 0.16070 -0.62200
O 	O 	0.66070 0.33930 0.66070 -0.62200
O 	O 	0.16070 0.33930 0.16070 -0.62200
O 	O 	0.66070 0.16070 0.83930 -0.62200
O 	O 	0.66070 0.66070 0.33930 -0.62200
O 	O 	0.16070 0.16070 0.33930 -0.62200
O 	O 	0.33930 0.83930 0.83930 -0.62100
O 	O 	0.33930 0.33930 0.33930 -0.62200
O 	O 	0.16070 0.66070 0.83930 -0.62200
O 	O 	0.83930 0.66070 0.16070 -0.62200
O 	O 	0.83930 0.33930 0.83930 -0.62100
O 	O 	0.83930 0.16070 0.66070 -0.62200
O 	O 	0.16070 0.83930 0.66070 -0.62200
O 	O 	0.83930 0.83930 0.33930 -0.62100
O 	O 	0.16070 0.33930 0.83930 -0.62200
O 	O 	0.83930 0.66070 0.83930 -0.62100
O 	O 	0.83930 0.16070 0.33930 -0.62200
O 	O 	0.33930 0.16070 0.83930 -0.62200
O 	O 	0.16070 0.66070 0.16070 -0.62200
O 	O 	0.83930 0.33930 0.16070 -0.62200
O 	O 	0.33930 0.33930 0.66070 -0.62200
O 	O 	0.33930 0.66070 0.33930 -0.62200
O 	O 	0.66070 0.16070 0.16070 -0.62200
O 	O 	0.66070 0.66070 0.66070 -0.62200
O 	O 	0.66070 0.83930 0.83930 -0.62100
O 	O 	0.66070 0.33930 0.33930 -0.62200
O 	O 	0.16070 0.83930 0.33930 -0.62200
O 	O 	0.33930 0.83930 0.16070 -0.62200
O 	O 	0.16070 0.16070 0.66070 -0.62200
O 	O 	0.83930 0.83930 0.66070 -0.62100
C 	C 	0.25600 0.11874 0.11874 0.12800
C 	C 	0.22810 0.10390 0.10390 -0.04600
C 	C 	0.17745 0.08043 0.08043 0.03500
H 	H 	0.15955 0.07278 0.07278 0.05000
C 	C 	0.25600 0.61874 0.61874 0.12800
C 	C 	0.22810 0.60390 0.60390 -0.04500
C 	C 	0.17745 0.58043 0.58043 0.03400
H 	H 	0.15955 0.57278 0.57278 0.05100
C 	C 	0.75600 0.11874 0.61874 0.12800
C 	C 	0.72810 0.10390 0.60390 -0.04500
C 	C 	0.67745 0.08043 0.58043 0.03400
H 	H 	0.65955 0.07278 0.57278 0.05100
C 	C 	0.75600 0.61874 0.11874 0.12800
C 	C 	0.72810 0.60390 0.10390 -0.04500
C 	C 	0.67745 0.58043 0.08043 0.03400
H 	H 	0.65955 0.57278 0.07278 0.05100
C 	C 	0.74400 0.88126 0.11874 0.12800
C 	C 	0.77190 0.89610 0.10390 -0.04500
C 	C 	0.82255 0.91957 0.08043 0.03400
H 	H 	0.84045 0.92722 0.07278 0.05200
C 	C 	0.74400 0.38126 0.61874 0.12800
C 	C 	0.77190 0.39610 0.60390 -0.04500
C 	C 	0.82255 0.41957 0.58043 0.03400
H 	H 	0.84045 0.42722 0.57278 0.05200
C 	C 	0.24400 0.88126 0.61874 0.12800
C 	C 	0.27190 0.89610 0.60390 -0.04400
C 	C 	0.32255 0.91957 0.58043 0.03400
H 	H 	0.34045 0.92722 0.57278 0.05200
C 	C 	0.24400 0.38126 0.11874 0.12800
C 	C 	0.27190 0.39610 0.10390 -0.04500
C 	C 	0.32255 0.41957 0.08043 0.03400
H 	H 	0.34045 0.42722 0.07278 0.05100
C 	C 	0.74400 0.11874 0.88126 0.12800
C 	C 	0.77190 0.10390 0.89610 -0.04500
C 	C 	0.82255 0.08043 0.91957 0.03400
H 	H 	0.84045 0.07278 0.92722 0.05200
C 	C 	0.74400 0.61874 0.38126 0.12800
C 	C 	0.77190 0.60390 0.39610 -0.04500
C 	C 	0.82255 0.58043 0.41957 0.03400
H 	H 	0.84045 0.57278 0.42722 0.05200
C 	C 	0.24400 0.11874 0.38126 0.12800
C 	C 	0.27190 0.10390 0.39610 -0.04500
C 	C 	0.32255 0.08043 0.41957 0.03400
H 	H 	0.34045 0.07278 0.42722 0.05100
C 	C 	0.24400 0.61874 0.88126 0.12800
C 	C 	0.27190 0.60390 0.89610 -0.04400
C 	C 	0.32255 0.58043 0.91957 0.03400
H 	H 	0.34045 0.57278 0.92722 0.05200
C 	C 	0.25600 0.88126 0.88126 0.12800
C 	C 	0.22810 0.89610 0.89610 -0.04400
C 	C 	0.17745 0.91957 0.91957 0.03300
H 	H 	0.15955 0.92722 0.92722 0.05200
C 	C 	0.25600 0.38126 0.38126 0.12800
C 	C 	0.22810 0.39610 0.39610 -0.04500
C 	C 	0.17745 0.41957 0.41957 0.03400
H 	H 	0.15955 0.42722 0.42722 0.05100
C 	C 	0.75600 0.88126 0.38126 0.12800
C 	C 	0.72810 0.89610 0.39610 -0.04400
C 	C 	0.67745 0.91957 0.41957 0.03400
H 	H 	0.65955 0.92722 0.42722 0.05200
C 	C 	0.75600 0.38126 0.88126 0.12800
C 	C 	0.72810 0.39610 0.89610 -0.04400
C 	C 	0.67745 0.41957 0.91957 0.03400
H 	H 	0.65955 0.42722 0.92722 0.05200
C 	C 	0.11874 0.25600 0.11874 0.12800
C 	C 	0.10390 0.22810 0.10390 -0.04600
C 	C 	0.08043 0.17745 0.08043 0.03500
H 	H 	0.07278 0.15955 0.07278 0.05000
C 	C 	0.11874 0.75600 0.61874 0.12800
C 	C 	0.10390 0.72810 0.60390 -0.04500
C 	C 	0.08043 0.67745 0.58043 0.03400
H 	H 	0.07278 0.65955 0.57278 0.05100
C 	C 	0.61874 0.25600 0.61874 0.12800
C 	C 	0.60390 0.22810 0.60390 -0.04500
C 	C 	0.58043 0.17745 0.58043 0.03400
H 	H 	0.57278 0.15955 0.57278 0.05100
C 	C 	0.61874 0.75600 0.11874 0.12800
C 	C 	0.60390 0.72810 0.10390 -0.04500
C 	C 	0.58043 0.67745 0.08043 0.03400
H 	H 	0.57278 0.65955 0.07278 0.05100
C 	C 	0.11874 0.74400 0.88126 0.12800
C 	C 	0.10390 0.77190 0.89610 -0.04500
C 	C 	0.08043 0.82255 0.91957 0.03400
H 	H 	0.07278 0.84045 0.92722 0.05200
C 	C 	0.11874 0.24400 0.38126 0.12800
C 	C 	0.10390 0.27190 0.39610 -0.04500
C 	C 	0.08043 0.32255 0.41957 0.03400
H 	H 	0.07278 0.34045 0.42722 0.05100
C 	C 	0.61874 0.74400 0.38126 0.12800
C 	C 	0.60390 0.77190 0.39610 -0.04500
C 	C 	0.58043 0.82255 0.41957 0.03400
H 	H 	0.57278 0.84045 0.42722 0.05200
C 	C 	0.61874 0.24400 0.88126 0.12800
C 	C 	0.60390 0.27190 0.89610 -0.04400
C 	C 	0.58043 0.32255 0.91957 0.03400
H 	H 	0.57278 0.34045 0.92722 0.05200
C 	C 	0.88126 0.74400 0.11874 0.12800
C 	C 	0.89610 0.77190 0.10390 -0.04500
C 	C 	0.91957 0.82255 0.08043 0.03400
H 	H 	0.92722 0.84045 0.07278 0.05200
C 	C 	0.88126 0.24400 0.61874 0.12800
C 	C 	0.89610 0.27190 0.60390 -0.04400
C 	C 	0.91957 0.32255 0.58043 0.03400
H 	H 	0.92722 0.34045 0.57278 0.05200
C 	C 	0.38126 0.74400 0.61874 0.12800
C 	C 	0.39610 0.77190 0.60390 -0.04500
C 	C 	0.41957 0.82255 0.58043 0.03400
H 	H 	0.42722 0.84045 0.57278 0.05200
C 	C 	0.38126 0.24400 0.11874 0.12800
C 	C 	0.39610 0.27190 0.10390 -0.04500
C 	C 	0.41957 0.32255 0.08043 0.03400
H 	H 	0.42722 0.34045 0.07278 0.05100
C 	C 	0.88126 0.25600 0.88126 0.12800
C 	C 	0.89610 0.22810 0.89610 -0.04400
C 	C 	0.91957 0.17745 0.91957 0.03300
H 	H 	0.92722 0.15955 0.92722 0.05200
C 	C 	0.88126 0.75600 0.38126 0.12800
C 	C 	0.89610 0.72810 0.39610 -0.04400
C 	C 	0.91957 0.67745 0.41957 0.03400
H 	H 	0.92722 0.65955 0.42722 0.05200
C 	C 	0.38126 0.25600 0.38126 0.12800
C 	C 	0.39610 0.22810 0.39610 -0.04500
C 	C 	0.41957 0.17745 0.41957 0.03400
H 	H 	0.42722 0.15955 0.42722 0.05100
C 	C 	0.38126 0.75600 0.88126 0.12800
C 	C 	0.39610 0.72810 0.89610 -0.04400
C 	C 	0.41957 0.67745 0.91957 0.03400
H 	H 	0.42722 0.65955 0.92722 0.05200
C 	C 	0.11874 0.11874 0.25600 0.12800
C 	C 	0.10390 0.10390 0.22810 -0.04600
C 	C 	0.08043 0.08043 0.17745 0.03500
H 	H 	0.07278 0.07278 0.15955 0.05000
C 	C 	0.11874 0.61874 0.75600 0.12800
C 	C 	0.10390 0.60390 0.72810 -0.04500
C 	C 	0.08043 0.58043 0.67745 0.03400
H 	H 	0.07278 0.57278 0.65955 0.05100
C 	C 	0.61874 0.11874 0.75600 0.12800
C 	C 	0.60390 0.10390 0.72810 -0.04500
C 	C 	0.58043 0.08043 0.67745 0.03400
H 	H 	0.57278 0.07278 0.65955 0.05100
C 	C 	0.61874 0.61874 0.25600 0.12800
C 	C 	0.60390 0.60390 0.22810 -0.04500
C 	C 	0.58043 0.58043 0.17745 0.03400
H 	H 	0.57278 0.57278 0.15955 0.05100
C 	C 	0.88126 0.11874 0.74400 0.12800
C 	C 	0.89610 0.10390 0.77190 -0.04500
C 	C 	0.91957 0.08043 0.82255 0.03400
H 	H 	0.92722 0.07278 0.84045 0.05200
C 	C 	0.88126 0.61874 0.24400 0.12800
C 	C 	0.89610 0.60390 0.27190 -0.04400
C 	C 	0.91957 0.58043 0.32255 0.03400
H 	H 	0.92722 0.57278 0.34045 0.05200
C 	C 	0.38126 0.11874 0.24400 0.12800
C 	C 	0.39610 0.10390 0.27190 -0.04500
C 	C 	0.41957 0.08043 0.32255 0.03400
H 	H 	0.42722 0.07278 0.34045 0.05100
C 	C 	0.38126 0.61874 0.74400 0.12800
C 	C 	0.39610 0.60390 0.77190 -0.04500
C 	C 	0.41957 0.58043 0.82255 0.03400
H 	H 	0.42722 0.57278 0.84045 0.05200
C 	C 	0.11874 0.88126 0.74400 0.12800
C 	C 	0.10390 0.89610 0.77190 -0.04500
C 	C 	0.08043 0.91957 0.82255 0.03400
H 	H 	0.07278 0.92722 0.84045 0.05200
C 	C 	0.11874 0.38126 0.24400 0.12800
C 	C 	0.10390 0.39610 0.27190 -0.04500
C 	C 	0.08043 0.41957 0.32255 0.03400
H 	H 	0.07278 0.42722 0.34045 0.05100
C 	C 	0.61874 0.88126 0.24400 0.12800
C 	C 	0.60390 0.89610 0.27190 -0.04400
C 	C 	0.58043 0.91957 0.32255 0.03400
H 	H 	0.57278 0.92722 0.34045 0.05200
C 	C 	0.61874 0.38126 0.74400 0.12800
C 	C 	0.60390 0.39610 0.77190 -0.04500
C 	C 	0.58043 0.41957 0.82255 0.03400
H 	H 	0.57278 0.42722 0.84045 0.05200
C 	C 	0.88126 0.88126 0.25600 0.12800
C 	C 	0.89610 0.89610 0.22810 -0.04400
C 	C 	0.91957 0.91957 0.17745 0.03300
H 	H 	0.92722 0.92722 0.15955 0.05200
C 	C 	0.88126 0.38126 0.75600 0.12800
C 	C 	0.89610 0.39610 0.72810 -0.04400
C 	C 	0.91957 0.41957 0.67745 0.03400
H 	H 	0.92722 0.42722 0.65955 0.05200
C 	C 	0.38126 0.88126 0.75600 0.12800
C 	C 	0.39610 0.89610 0.72810 -0.04400
C 	C 	0.41957 0.91957 0.67745 0.03400
H 	H 	0.42722 0.92722 0.65955 0.05200
C 	C 	0.38126 0.38126 0.25600 0.12800
C 	C 	0.39610 0.39610 0.22810 -0.04500
C 	C 	0.41957 0.41957 0.17745 0.03400
H 	H 	0.42722 0.42722 0.15955 0.05100
C 	C 	0.11874 0.25600 0.88126 0.12800
C 	C 	0.10390 0.22810 0.89610 -0.04500
C 	C 	0.08043 0.17745 0.91957 0.03400
H 	H 	0.07278 0.15955 0.92722 0.05100
C 	C 	0.11874 0.75600 0.38126 0.12800
C 	C 	0.10390 0.72810 0.39610 -0.04500
C 	C 	0.08043 0.67745 0.41957 0.03400
H 	H 	0.07278 0.65955 0.42722 0.05100
C 	C 	0.61874 0.25600 0.38126 0.12800
C 	C 	0.60390 0.22810 0.39610 -0.04500
C 	C 	0.58043 0.17745 0.41957 0.03400
H 	H 	0.57278 0.15955 0.42722 0.05100
C 	C 	0.61874 0.75600 0.88126 0.12800
C 	C 	0.60390 0.72810 0.89610 -0.04400
C 	C 	0.58043 0.67745 0.91957 0.03400
H 	H 	0.57278 0.65955 0.92722 0.05200
C 	C 	0.88126 0.74400 0.88126 0.12800
C 	C 	0.89610 0.77190 0.89610 -0.04400
C 	C 	0.91957 0.82255 0.91957 0.03300
H 	H 	0.92722 0.84045 0.92722 0.05300
C 	C 	0.88126 0.24400 0.38126 0.12800
C 	C 	0.89610 0.27190 0.39610 -0.04400
C 	C 	0.91957 0.32255 0.41957 0.03400
H 	H 	0.92722 0.34045 0.42722 0.05200
C 	C 	0.38126 0.74400 0.38126 0.12800
C 	C 	0.39610 0.77190 0.39610 -0.04500
C 	C 	0.41957 0.82255 0.41957 0.03400
H 	H 	0.42722 0.84045 0.42722 0.05200
C 	C 	0.38126 0.24400 0.88126 0.12800
C 	C 	0.39610 0.27190 0.89610 -0.04400
C 	C 	0.41957 0.32255 0.91957 0.03400
H 	H 	0.42722 0.34045 0.92722 0.05200
C 	C 	0.11874 0.74400 0.11874 0.12800
C 	C 	0.10390 0.77190 0.10390 -0.04600
C 	C 	0.08043 0.82255 0.08043 0.03500
H 	H 	0.07278 0.84045 0.07278 0.05100
C 	C 	0.11874 0.24400 0.61874 0.12800
C 	C 	0.10390 0.27190 0.60390 -0.04500
C 	C 	0.08043 0.32255 0.58043 0.03400
H 	H 	0.07278 0.34045 0.57278 0.05100
C 	C 	0.61874 0.74400 0.61874 0.12800
C 	C 	0.60390 0.77190 0.60390 -0.04500
C 	C 	0.58043 0.82255 0.58043 0.03400
H 	H 	0.57278 0.84045 0.57278 0.05200
C 	C 	0.61874 0.24400 0.11874 0.12800
C 	C 	0.60390 0.27190 0.10390 -0.04500
C 	C 	0.58043 0.32255 0.08043 0.03400
H 	H 	0.57278 0.34045 0.07278 0.05100
C 	C 	0.88126 0.25600 0.11874 0.12800
C 	C 	0.89610 0.22810 0.10390 -0.04500
C 	C 	0.91957 0.17745 0.08043 0.03400
H 	H 	0.92722 0.15955 0.07278 0.05100
C 	C 	0.88126 0.75600 0.61874 0.12800
C 	C 	0.89610 0.72810 0.60390 -0.04400
C 	C 	0.91957 0.67745 0.58043 0.03400
H 	H 	0.92722 0.65955 0.57278 0.05200
C 	C 	0.38126 0.25600 0.61874 0.12800
C 	C 	0.39610 0.22810 0.60390 -0.04500
C 	C 	0.41957 0.17745 0.58043 0.03400
H 	H 	0.42722 0.15955 0.57278 0.05100
C 	C 	0.38126 0.75600 0.11874 0.12800
C 	C 	0.39610 0.72810 0.10390 -0.04500
C 	C 	0.41957 0.67745 0.08043 0.03400
H 	H 	0.42722 0.65955 0.07278 0.05100
C 	C 	0.25600 0.11874 0.88126 0.12800
C 	C 	0.22810 0.10390 0.89610 -0.04500
C 	C 	0.17745 0.08043 0.91957 0.03400
H 	H 	0.15955 0.07278 0.92722 0.05100
C 	C 	0.25600 0.61874 0.38126 0.12800
C 	C 	0.22810 0.60390 0.39610 -0.04500
C 	C 	0.17745 0.58043 0.41957 0.03400
H 	H 	0.15955 0.57278 0.42722 0.05100
C 	C 	0.75600 0.11874 0.38126 0.12800
C 	C 	0.72810 0.10390 0.39610 -0.04500
C 	C 	0.67745 0.08043 0.41957 0.03400
H 	H 	0.65955 0.07278 0.42722 0.05100
C 	C 	0.75600 0.61874 0.88126 0.12800
C 	C 	0.72810 0.60390 0.89610 -0.04400
C 	C 	0.67745 0.58043 0.91957 0.03400
H 	H 	0.65955 0.57278 0.92722 0.05200
C 	C 	0.74400 0.11874 0.11874 0.12800
C 	C 	0.77190 0.10390 0.10390 -0.04600
C 	C 	0.82255 0.08043 0.08043 0.03500
H 	H 	0.84045 0.07278 0.07278 0.05100
C 	C 	0.74400 0.61874 0.61874 0.12800
C 	C 	0.77190 0.60390 0.60390 -0.04500
C 	C 	0.82255 0.58043 0.58043 0.03400
H 	H 	0.84045 0.57278 0.57278 0.05200
C 	C 	0.24400 0.11874 0.61874 0.12800
C 	C 	0.27190 0.10390 0.60390 -0.04500
C 	C 	0.32255 0.08043 0.58043 0.03400
H 	H 	0.34045 0.07278 0.57278 0.05100
C 	C 	0.24400 0.61874 0.11874 0.12800
C 	C 	0.27190 0.60390 0.10390 -0.04500
C 	C 	0.32255 0.58043 0.08043 0.03400
H 	H 	0.34045 0.57278 0.07278 0.05100
C 	C 	0.74400 0.88126 0.88126 0.12800
C 	C 	0.77190 0.89610 0.89610 -0.04400
C 	C 	0.82255 0.91957 0.91957 0.03300
H 	H 	0.84045 0.92722 0.92722 0.05300
C 	C 	0.74400 0.38126 0.38126 0.12800
C 	C 	0.77190 0.39610 0.39610 -0.04500
C 	C 	0.82255 0.41957 0.41957 0.03400
H 	H 	0.84045 0.42722 0.42722 0.05200
C 	C 	0.24400 0.88126 0.38126 0.12800
C 	C 	0.27190 0.89610 0.39610 -0.04400
C 	C 	0.32255 0.91957 0.41957 0.03400
H 	H 	0.34045 0.92722 0.42722 0.05200
C 	C 	0.24400 0.38126 0.88126 0.12800
C 	C 	0.27190 0.39610 0.89610 -0.04400
C 	C 	0.32255 0.41957 0.91957 0.03400
H 	H 	0.34045 0.42722 0.92722 0.05200
C 	C 	0.25600 0.88126 0.11874 0.12800
C 	C 	0.22810 0.89610 0.10390 -0.04500
C 	C 	0.17745 0.91957 0.08043 0.03400
H 	H 	0.15955 0.92722 0.07278 0.05100
C 	C 	0.25600 0.38126 0.61874 0.12800
C 	C 	0.22810 0.39610 0.60390 -0.04500
C 	C 	0.17745 0.41957 0.58043 0.03400
H 	H 	0.15955 0.42722 0.57278 0.05100
C 	C 	0.75600 0.88126 0.61874 0.12800
C 	C 	0.72810 0.89610 0.60390 -0.04400
C 	C 	0.67745 0.91957 0.58043 0.03400
H 	H 	0.65955 0.92722 0.57278 0.05200
C 	C 	0.75600 0.38126 0.11874 0.12800
C 	C 	0.72810 0.39610 0.10390 -0.04500
C 	C 	0.67745 0.41957 0.08043 0.03400
H 	H 	0.65955 0.42722 0.07278 0.05100
C 	C 	0.11874 0.11874 0.74400 0.12800
C 	C 	0.10390 0.10390 0.77190 -0.04600
C 	C 	0.08043 0.08043 0.82255 0.03500
H 	H 	0.07278 0.07278 0.84045 0.05100
C 	C 	0.11874 0.61874 0.24400 0.12800
C 	C 	0.10390 0.60390 0.27190 -0.04500
C 	C 	0.08043 0.58043 0.32255 0.03400
H 	H 	0.07278 0.57278 0.34045 0.05100
C 	C 	0.61874 0.11874 0.24400 0.12800
C 	C 	0.60390 0.10390 0.27190 -0.04500
C 	C 	0.58043 0.08043 0.32255 0.03400
H 	H 	0.57278 0.07278 0.34045 0.05100
C 	C 	0.61874 0.61874 0.74400 0.12800
C 	C 	0.60390 0.60390 0.77190 -0.04500
C 	C 	0.58043 0.58043 0.82255 0.03400
H 	H 	0.57278 0.57278 0.84045 0.05200
C 	C 	0.11874 0.88126 0.25600 0.12800
C 	C 	0.10390 0.89610 0.22810 -0.04500
C 	C 	0.08043 0.91957 0.17745 0.03400
H 	H 	0.07278 0.92722 0.15955 0.05100
C 	C 	0.11874 0.38126 0.75600 0.12800
C 	C 	0.10390 0.39610 0.72810 -0.04500
C 	C 	0.08043 0.41957 0.67745 0.03400
H 	H 	0.07278 0.42722 0.65955 0.05100
C 	C 	0.61874 0.88126 0.75600 0.12800
C 	C 	0.60390 0.89610 0.72810 -0.04400
C 	C 	0.58043 0.91957 0.67745 0.03400
H 	H 	0.57278 0.92722 0.65955 0.05200
C 	C 	0.61874 0.38126 0.25600 0.12800
C 	C 	0.60390 0.39610 0.22810 -0.04500
C 	C 	0.58043 0.41957 0.17745 0.03400
H 	H 	0.57278 0.42722 0.15955 0.05100
C 	C 	0.88126 0.11874 0.25600 0.12800
C 	C 	0.89610 0.10390 0.22810 -0.04500
C 	C 	0.91957 0.08043 0.17745 0.03400
H 	H 	0.92722 0.07278 0.15955 0.05100
C 	C 	0.88126 0.61874 0.75600 0.12800
C 	C 	0.89610 0.60390 0.72810 -0.04400
C 	C 	0.91957 0.58043 0.67745 0.03400
H 	H 	0.92722 0.57278 0.65955 0.05200
C 	C 	0.38126 0.11874 0.75600 0.12800
C 	C 	0.39610 0.10390 0.72810 -0.04500
C 	C 	0.41957 0.08043 0.67745 0.03400
H 	H 	0.42722 0.07278 0.65955 0.05100
C 	C 	0.38126 0.61874 0.25600 0.12800
C 	C 	0.39610 0.60390 0.22810 -0.04500
C 	C 	0.41957 0.58043 0.17745 0.03400
H 	H 	0.42722 0.57278 0.15955 0.05100
C 	C 	0.88126 0.88126 0.74400 0.12800
C 	C 	0.89610 0.89610 0.77190 -0.04400
C 	C 	0.91957 0.91957 0.82255 0.03300
H 	H 	0.92722 0.92722 0.84045 0.05300
C 	C 	0.88126 0.38126 0.24400 0.12800
C 	C 	0.89610 0.39610 0.27190 -0.04400
C 	C 	0.91957 0.41957 0.32255 0.03400
H 	H 	0.92722 0.42722 0.34045 0.05200
C 	C 	0.38126 0.88126 0.24400 0.12800
C 	C 	0.39610 0.89610 0.27190 -0.04400
C 	C 	0.41957 0.91957 0.32255 0.03400
H 	H 	0.42722 0.92722 0.34045 0.05200
C 	C 	0.38126 0.38126 0.74400 0.12800
C 	C 	0.39610 0.39610 0.77190 -0.04500
C 	C 	0.41957 0.41957 0.82255 0.03400
H 	H 	0.42722 0.42722 0.84045 0.05200
