data_crystal

_cell_length_a 44.61400
_cell_length_b 44.61400
_cell_length_c 44.61400
_cell_angle_alpha 90.00000
_cell_angle_beta  90.00000
_cell_angle_gamma 90.00000

_symmetry_space_group_name_	'P 1'
_symmetry_space_group_name_H-M	'P 1'

loop_
_symmetry_equiv_pos_as_xyz
  x,y,z

loop_
_atom_site_label
_atom_site_type_symbol
_atom_site_fract_x
_atom_site_fract_y
_atom_site_fract_z
_atom_site_charge
O 	O 	0.14347 0.18687 0.96912 -0.41600
O 	O 	0.10798 0.15137 0.96915 -0.40800
N 	N 	0.14507 0.29264 0.87518 -0.19000
C 	C 	0.11995 0.17485 0.95913 0.36300
N 	N 	0.14086 0.27017 0.89385 -0.12900
C 	C 	0.10498 0.18976 0.93317 -0.10900
C 	C 	0.11638 0.21607 0.92133 0.01400
H 	H 	0.13260 0.22540 0.93060 0.03400
O 	O 	0.14347 0.68687 0.46912 -0.41800
O 	O 	0.10798 0.65137 0.46915 -0.41000
N 	N 	0.14507 0.79264 0.37518 -0.18900
C 	C 	0.11995 0.67485 0.45913 0.36500
N 	N 	0.14086 0.77017 0.39385 -0.12800
C 	C 	0.10498 0.68976 0.43317 -0.10900
C 	C 	0.11638 0.71607 0.42133 0.01500
H 	H 	0.13260 0.72540 0.43060 0.03500
O 	O 	0.64347 0.18687 0.46912 -0.41700
O 	O 	0.60798 0.15137 0.46915 -0.40900
N 	N 	0.64507 0.29264 0.37518 -0.18900
C 	C 	0.61995 0.17485 0.45913 0.36400
N 	N 	0.64086 0.27017 0.39385 -0.12800
C 	C 	0.60498 0.18976 0.43317 -0.10900
C 	C 	0.61638 0.21607 0.42133 0.01500
H 	H 	0.63260 0.22540 0.43060 0.03500
O 	O 	0.64347 0.68687 0.96912 -0.41500
O 	O 	0.60798 0.65137 0.96915 -0.40600
N 	N 	0.64507 0.79264 0.87518 -0.18900
C 	C 	0.61995 0.67485 0.95913 0.36400
N 	N 	0.64086 0.77017 0.89385 -0.12800
C 	C 	0.60498 0.68976 0.93317 -0.10800
C 	C 	0.61638 0.71607 0.92133 0.01500
H 	H 	0.63260 0.72540 0.93060 0.03500
O 	O 	0.85653 0.81313 0.96912 -0.41500
O 	O 	0.89202 0.84863 0.96915 -0.40600
N 	N 	0.85493 0.70736 0.87518 -0.18900
C 	C 	0.88005 0.82515 0.95913 0.36400
N 	N 	0.85914 0.72983 0.89385 -0.12800
C 	C 	0.89502 0.81024 0.93317 -0.10700
C 	C 	0.88362 0.78393 0.92133 0.01500
H 	H 	0.86740 0.77460 0.93060 0.03600
O 	O 	0.85653 0.31313 0.46912 -0.41700
O 	O 	0.89202 0.34863 0.46915 -0.40800
N 	N 	0.85493 0.20736 0.37518 -0.18900
C 	C 	0.88005 0.32515 0.45913 0.36400
N 	N 	0.85914 0.22983 0.39385 -0.12800
C 	C 	0.89502 0.31024 0.43317 -0.10800
C 	C 	0.88362 0.28393 0.42133 0.01500
H 	H 	0.86740 0.27460 0.43060 0.03500
O 	O 	0.35653 0.81313 0.46912 -0.41700
O 	O 	0.39202 0.84863 0.46915 -0.40800
N 	N 	0.35493 0.70736 0.37518 -0.18900
C 	C 	0.38005 0.82515 0.45913 0.36400
N 	N 	0.35914 0.72983 0.39385 -0.12800
C 	C 	0.39502 0.81024 0.43317 -0.10900
C 	C 	0.38362 0.78393 0.42133 0.01500
H 	H 	0.36740 0.77460 0.43060 0.03500
O 	O 	0.35653 0.31313 0.96912 -0.41500
O 	O 	0.39202 0.34863 0.96915 -0.40600
N 	N 	0.35493 0.20736 0.87518 -0.18900
C 	C 	0.38005 0.32515 0.95913 0.36400
N 	N 	0.35914 0.22983 0.89385 -0.12800
C 	C 	0.39502 0.31024 0.93317 -0.10800
C 	C 	0.38362 0.28393 0.92133 0.01500
H 	H 	0.36740 0.27460 0.93060 0.03500
O 	O 	0.85653 0.18687 0.03088 -0.41800
O 	O 	0.89202 0.15137 0.03085 -0.40900
N 	N 	0.85493 0.29264 0.12482 -0.18900
C 	C 	0.88005 0.17485 0.04087 0.36400
N 	N 	0.85914 0.27017 0.10615 -0.12800
C 	C 	0.89502 0.18976 0.06683 -0.10900
C 	C 	0.88362 0.21607 0.07867 0.01500
H 	H 	0.86740 0.22540 0.06940 0.03500
O 	O 	0.85653 0.68687 0.53088 -0.41700
O 	O 	0.89202 0.65137 0.53085 -0.40800
N 	N 	0.85493 0.79264 0.62482 -0.18900
C 	C 	0.88005 0.67485 0.54087 0.36400
N 	N 	0.85914 0.77017 0.60615 -0.12800
C 	C 	0.89502 0.68976 0.56683 -0.10800
C 	C 	0.88362 0.71607 0.57867 0.01500
H 	H 	0.86740 0.72540 0.56940 0.03500
O 	O 	0.35653 0.18687 0.53088 -0.41700
O 	O 	0.39202 0.15137 0.53085 -0.40900
N 	N 	0.35493 0.29264 0.62482 -0.18900
C 	C 	0.38005 0.17485 0.54087 0.36400
N 	N 	0.35914 0.27017 0.60615 -0.12800
C 	C 	0.39502 0.18976 0.56683 -0.10900
C 	C 	0.38362 0.21607 0.57867 0.01500
H 	H 	0.36740 0.22540 0.56940 0.03500
O 	O 	0.35653 0.68687 0.03088 -0.41800
O 	O 	0.39202 0.65137 0.03085 -0.41000
N 	N 	0.35493 0.79264 0.12482 -0.18900
C 	C 	0.38005 0.67485 0.04087 0.36500
N 	N 	0.35914 0.77017 0.10615 -0.12800
C 	C 	0.39502 0.68976 0.06683 -0.10900
C 	C 	0.38362 0.71607 0.07867 0.01600
H 	H 	0.36740 0.72540 0.06940 0.03400
O 	O 	0.14347 0.81313 0.03088 -0.41800
O 	O 	0.10798 0.84863 0.03085 -0.41000
N 	N 	0.14507 0.70736 0.12482 -0.18900
C 	C 	0.11995 0.82515 0.04087 0.36500
N 	N 	0.14086 0.72983 0.10615 -0.12800
C 	C 	0.10498 0.81024 0.06683 -0.11000
C 	C 	0.11638 0.78393 0.07867 0.01600
H 	H 	0.13260 0.77460 0.06940 0.03400
O 	O 	0.14347 0.31313 0.53088 -0.41700
O 	O 	0.10798 0.34863 0.53085 -0.40900
N 	N 	0.14507 0.20736 0.62482 -0.18900
C 	C 	0.11995 0.32515 0.54087 0.36500
N 	N 	0.14086 0.22983 0.60615 -0.12800
C 	C 	0.10498 0.31024 0.56683 -0.10900
C 	C 	0.11638 0.28393 0.57867 0.01600
H 	H 	0.13260 0.27460 0.56940 0.03500
O 	O 	0.64347 0.81313 0.53088 -0.41700
O 	O 	0.60798 0.84863 0.53085 -0.40800
N 	N 	0.64507 0.70736 0.62482 -0.18900
C 	C 	0.61995 0.82515 0.54087 0.36400
N 	N 	0.64086 0.72983 0.60615 -0.12800
C 	C 	0.60498 0.81024 0.56683 -0.10900
C 	C 	0.61638 0.78393 0.57867 0.01500
H 	H 	0.63260 0.77460 0.56940 0.03500
O 	O 	0.64347 0.31313 0.03088 -0.41800
O 	O 	0.60798 0.34863 0.03085 -0.41000
N 	N 	0.64507 0.20736 0.12482 -0.18900
C 	C 	0.61995 0.32515 0.04087 0.36500
N 	N 	0.64086 0.22983 0.10615 -0.12800
C 	C 	0.60498 0.31024 0.06683 -0.10900
C 	C 	0.61638 0.28393 0.07867 0.01600
H 	H 	0.63260 0.27460 0.06940 0.03400
O 	O 	0.96912 0.14347 0.18687 -0.41500
O 	O 	0.96915 0.10798 0.15137 -0.40700
N 	N 	0.87518 0.14507 0.29264 -0.18900
C 	C 	0.95913 0.11995 0.17485 0.36400
N 	N 	0.89385 0.14086 0.27017 -0.12800
C 	C 	0.93317 0.10498 0.18976 -0.10800
C 	C 	0.92133 0.11638 0.21607 0.01500
H 	H 	0.93060 0.13260 0.22540 0.03500
O 	O 	0.96912 0.64347 0.68687 -0.41500
O 	O 	0.96915 0.60798 0.65137 -0.40600
N 	N 	0.87518 0.64507 0.79264 -0.18900
C 	C 	0.95913 0.61995 0.67485 0.36400
N 	N 	0.89385 0.64086 0.77017 -0.12800
C 	C 	0.93317 0.60498 0.68976 -0.10800
C 	C 	0.92133 0.61638 0.71607 0.01500
H 	H 	0.93060 0.63260 0.72540 0.03500
O 	O 	0.46912 0.14347 0.68687 -0.41700
O 	O 	0.46915 0.10798 0.65137 -0.40900
N 	N 	0.37518 0.14507 0.79264 -0.18900
C 	C 	0.45913 0.11995 0.67485 0.36500
N 	N 	0.39385 0.14086 0.77017 -0.12800
C 	C 	0.43317 0.10498 0.68976 -0.10900
C 	C 	0.42133 0.11638 0.71607 0.01500
H 	H 	0.43060 0.13260 0.72540 0.03500
O 	O 	0.46912 0.64347 0.18687 -0.41700
O 	O 	0.46915 0.60798 0.15137 -0.40900
N 	N 	0.37518 0.64507 0.29264 -0.18900
C 	C 	0.45913 0.61995 0.17485 0.36400
N 	N 	0.39385 0.64086 0.27017 -0.12800
C 	C 	0.43317 0.60498 0.18976 -0.10900
C 	C 	0.42133 0.61638 0.21607 0.01500
H 	H 	0.43060 0.63260 0.22540 0.03500
O 	O 	0.96912 0.85653 0.81313 -0.41500
O 	O 	0.96915 0.89202 0.84863 -0.40600
N 	N 	0.87518 0.85493 0.70736 -0.18900
C 	C 	0.95913 0.88005 0.82515 0.36400
N 	N 	0.89385 0.85914 0.72983 -0.12800
C 	C 	0.93317 0.89502 0.81024 -0.10700
C 	C 	0.92133 0.88362 0.78393 0.01500
H 	H 	0.93060 0.86740 0.77460 0.03600
O 	O 	0.96912 0.35653 0.31313 -0.41500
O 	O 	0.96915 0.39202 0.34863 -0.40600
N 	N 	0.87518 0.35493 0.20736 -0.18900
C 	C 	0.95913 0.38005 0.32515 0.36400
N 	N 	0.89385 0.35914 0.22983 -0.12800
C 	C 	0.93317 0.39502 0.31024 -0.10800
C 	C 	0.92133 0.38362 0.28393 0.01500
H 	H 	0.93060 0.36740 0.27460 0.03500
O 	O 	0.46912 0.85653 0.31313 -0.41700
O 	O 	0.46915 0.89202 0.34863 -0.40800
N 	N 	0.37518 0.85493 0.20736 -0.18900
C 	C 	0.45913 0.88005 0.32515 0.36400
N 	N 	0.39385 0.85914 0.22983 -0.12800
C 	C 	0.43317 0.89502 0.31024 -0.10800
C 	C 	0.42133 0.88362 0.28393 0.01500
H 	H 	0.43060 0.86740 0.27460 0.03500
O 	O 	0.46912 0.35653 0.81313 -0.41700
O 	O 	0.46915 0.39202 0.84863 -0.40800
N 	N 	0.37518 0.35493 0.70736 -0.18900
C 	C 	0.45913 0.38005 0.82515 0.36400
N 	N 	0.39385 0.35914 0.72983 -0.12800
C 	C 	0.43317 0.39502 0.81024 -0.10900
C 	C 	0.42133 0.38362 0.78393 0.01500
H 	H 	0.43060 0.36740 0.77460 0.03500
O 	O 	0.03088 0.85653 0.18687 -0.41800
O 	O 	0.03085 0.89202 0.15137 -0.40900
N 	N 	0.12482 0.85493 0.29264 -0.18900
C 	C 	0.04087 0.88005 0.17485 0.36400
N 	N 	0.10615 0.85914 0.27017 -0.12800
C 	C 	0.06683 0.89502 0.18976 -0.10900
C 	C 	0.07867 0.88362 0.21607 0.01500
H 	H 	0.06940 0.86740 0.22540 0.03500
O 	O 	0.03088 0.35653 0.68687 -0.41800
O 	O 	0.03085 0.39202 0.65137 -0.41000
N 	N 	0.12482 0.35493 0.79264 -0.18900
C 	C 	0.04087 0.38005 0.67485 0.36500
N 	N 	0.10615 0.35914 0.77017 -0.12800
C 	C 	0.06683 0.39502 0.68976 -0.10900
C 	C 	0.07867 0.38362 0.71607 0.01600
H 	H 	0.06940 0.36740 0.72540 0.03400
O 	O 	0.53088 0.85653 0.68687 -0.41700
O 	O 	0.53085 0.89202 0.65137 -0.40800
N 	N 	0.62482 0.85493 0.79264 -0.18900
C 	C 	0.54087 0.88005 0.67485 0.36400
N 	N 	0.60615 0.85914 0.77017 -0.12800
C 	C 	0.56683 0.89502 0.68976 -0.10800
C 	C 	0.57867 0.88362 0.71607 0.01500
H 	H 	0.56940 0.86740 0.72540 0.03500
O 	O 	0.53088 0.35653 0.18687 -0.41700
O 	O 	0.53085 0.39202 0.15137 -0.40900
N 	N 	0.62482 0.35493 0.29264 -0.18900
C 	C 	0.54087 0.38005 0.17485 0.36400
N 	N 	0.60615 0.35914 0.27017 -0.12800
C 	C 	0.56683 0.39502 0.18976 -0.10900
C 	C 	0.57867 0.38362 0.21607 0.01500
H 	H 	0.56940 0.36740 0.22540 0.03500
O 	O 	0.03088 0.14347 0.81313 -0.41800
O 	O 	0.03085 0.10798 0.84863 -0.41000
N 	N 	0.12482 0.14507 0.70736 -0.18900
C 	C 	0.04087 0.11995 0.82515 0.36500
N 	N 	0.10615 0.14086 0.72983 -0.12800
C 	C 	0.06683 0.10498 0.81024 -0.11000
C 	C 	0.07867 0.11638 0.78393 0.01600
H 	H 	0.06940 0.13260 0.77460 0.03400
O 	O 	0.03088 0.64347 0.31313 -0.41800
O 	O 	0.03085 0.60798 0.34863 -0.41000
N 	N 	0.12482 0.64507 0.20736 -0.18900
C 	C 	0.04087 0.61995 0.32515 0.36500
N 	N 	0.10615 0.64086 0.22983 -0.12800
C 	C 	0.06683 0.60498 0.31024 -0.10900
C 	C 	0.07867 0.61638 0.28393 0.01600
H 	H 	0.06940 0.63260 0.27460 0.03400
O 	O 	0.53088 0.14347 0.31313 -0.41700
O 	O 	0.53085 0.10798 0.34863 -0.40900
N 	N 	0.62482 0.14507 0.20736 -0.18900
C 	C 	0.54087 0.11995 0.32515 0.36500
N 	N 	0.60615 0.14086 0.22983 -0.12800
C 	C 	0.56683 0.10498 0.31024 -0.10900
C 	C 	0.57867 0.11638 0.28393 0.01600
H 	H 	0.56940 0.13260 0.27460 0.03500
O 	O 	0.53088 0.64347 0.81313 -0.41700
O 	O 	0.53085 0.60798 0.84863 -0.40800
N 	N 	0.62482 0.64507 0.70736 -0.18900
C 	C 	0.54087 0.61995 0.82515 0.36400
N 	N 	0.60615 0.64086 0.72983 -0.12800
C 	C 	0.56683 0.60498 0.81024 -0.10900
C 	C 	0.57867 0.61638 0.78393 0.01500
H 	H 	0.56940 0.63260 0.77460 0.03500
O 	O 	0.18687 0.96912 0.14347 -0.41500
O 	O 	0.15137 0.96915 0.10798 -0.40700
N 	N 	0.29264 0.87518 0.14507 -0.18900
C 	C 	0.17485 0.95913 0.11995 0.36400
N 	N 	0.27017 0.89385 0.14086 -0.12800
C 	C 	0.18976 0.93317 0.10498 -0.10800
C 	C 	0.21607 0.92133 0.11638 0.01500
H 	H 	0.22540 0.93060 0.13260 0.03500
O 	O 	0.18687 0.46912 0.64347 -0.41700
O 	O 	0.15137 0.46915 0.60798 -0.40900
N 	N 	0.29264 0.37518 0.64507 -0.18900
C 	C 	0.17485 0.45913 0.61995 0.36400
N 	N 	0.27017 0.39385 0.64086 -0.12800
C 	C 	0.18976 0.43317 0.60498 -0.10900
C 	C 	0.21607 0.42133 0.61638 0.01500
H 	H 	0.22540 0.43060 0.63260 0.03500
O 	O 	0.68687 0.96912 0.64347 -0.41500
O 	O 	0.65137 0.96915 0.60798 -0.40600
N 	N 	0.79264 0.87518 0.64507 -0.18900
C 	C 	0.67485 0.95913 0.61995 0.36400
N 	N 	0.77017 0.89385 0.64086 -0.12800
C 	C 	0.68976 0.93317 0.60498 -0.10800
C 	C 	0.71607 0.92133 0.61638 0.01500
H 	H 	0.72540 0.93060 0.63260 0.03500
O 	O 	0.68687 0.46912 0.14347 -0.41700
O 	O 	0.65137 0.46915 0.10798 -0.40900
N 	N 	0.79264 0.37518 0.14507 -0.18900
C 	C 	0.67485 0.45913 0.11995 0.36500
N 	N 	0.77017 0.39385 0.14086 -0.12800
C 	C 	0.68976 0.43317 0.10498 -0.10900
C 	C 	0.71607 0.42133 0.11638 0.01500
H 	H 	0.72540 0.43060 0.13260 0.03500
O 	O 	0.81313 0.96912 0.85653 -0.41500
O 	O 	0.84863 0.96915 0.89202 -0.40600
N 	N 	0.70736 0.87518 0.85493 -0.18900
C 	C 	0.82515 0.95913 0.88005 0.36400
N 	N 	0.72983 0.89385 0.85914 -0.12800
C 	C 	0.81024 0.93317 0.89502 -0.10700
C 	C 	0.78393 0.92133 0.88362 0.01500
H 	H 	0.77460 0.93060 0.86740 0.03600
O 	O 	0.81313 0.46912 0.35653 -0.41700
O 	O 	0.84863 0.46915 0.39202 -0.40800
N 	N 	0.70736 0.37518 0.35493 -0.18900
C 	C 	0.82515 0.45913 0.38005 0.36400
N 	N 	0.72983 0.39385 0.35914 -0.12800
C 	C 	0.81024 0.43317 0.39502 -0.10900
C 	C 	0.78393 0.42133 0.38362 0.01500
H 	H 	0.77460 0.43060 0.36740 0.03500
O 	O 	0.31313 0.96912 0.35653 -0.41500
O 	O 	0.34863 0.96915 0.39202 -0.40600
N 	N 	0.20736 0.87518 0.35493 -0.18900
C 	C 	0.32515 0.95913 0.38005 0.36400
N 	N 	0.22983 0.89385 0.35914 -0.12800
C 	C 	0.31024 0.93317 0.39502 -0.10800
C 	C 	0.28393 0.92133 0.38362 0.01500
H 	H 	0.27460 0.93060 0.36740 0.03500
O 	O 	0.31313 0.46912 0.85653 -0.41700
O 	O 	0.34863 0.46915 0.89202 -0.40800
N 	N 	0.20736 0.37518 0.85493 -0.18900
C 	C 	0.32515 0.45913 0.88005 0.36400
N 	N 	0.22983 0.39385 0.85914 -0.12800
C 	C 	0.31024 0.43317 0.89502 -0.10800
C 	C 	0.28393 0.42133 0.88362 0.01500
H 	H 	0.27460 0.43060 0.86740 0.03500
O 	O 	0.18687 0.03088 0.85653 -0.41800
O 	O 	0.15137 0.03085 0.89202 -0.40900
N 	N 	0.29264 0.12482 0.85493 -0.18900
C 	C 	0.17485 0.04087 0.88005 0.36400
N 	N 	0.27017 0.10615 0.85914 -0.12800
C 	C 	0.18976 0.06683 0.89502 -0.10900
C 	C 	0.21607 0.07867 0.88362 0.01500
H 	H 	0.22540 0.06940 0.86740 0.03500
O 	O 	0.18687 0.53088 0.35653 -0.41700
O 	O 	0.15137 0.53085 0.39202 -0.40900
N 	N 	0.29264 0.62482 0.35493 -0.18900
C 	C 	0.17485 0.54087 0.38005 0.36400
N 	N 	0.27017 0.60615 0.35914 -0.12800
C 	C 	0.18976 0.56683 0.39502 -0.10900
C 	C 	0.21607 0.57867 0.38362 0.01500
H 	H 	0.22540 0.56940 0.36740 0.03500
O 	O 	0.68687 0.03088 0.35653 -0.41800
O 	O 	0.65137 0.03085 0.39202 -0.41000
N 	N 	0.79264 0.12482 0.35493 -0.18900
C 	C 	0.67485 0.04087 0.38005 0.36500
N 	N 	0.77017 0.10615 0.35914 -0.12800
C 	C 	0.68976 0.06683 0.39502 -0.10900
C 	C 	0.71607 0.07867 0.38362 0.01600
H 	H 	0.72540 0.06940 0.36740 0.03400
O 	O 	0.68687 0.53088 0.85653 -0.41700
O 	O 	0.65137 0.53085 0.89202 -0.40800
N 	N 	0.79264 0.62482 0.85493 -0.18900
C 	C 	0.67485 0.54087 0.88005 0.36400
N 	N 	0.77017 0.60615 0.85914 -0.12800
C 	C 	0.68976 0.56683 0.89502 -0.10800
C 	C 	0.71607 0.57867 0.88362 0.01500
H 	H 	0.72540 0.56940 0.86740 0.03500
O 	O 	0.81313 0.03088 0.14347 -0.41800
O 	O 	0.84863 0.03085 0.10798 -0.41000
N 	N 	0.70736 0.12482 0.14507 -0.18900
C 	C 	0.82515 0.04087 0.11995 0.36500
N 	N 	0.72983 0.10615 0.14086 -0.12800
C 	C 	0.81024 0.06683 0.10498 -0.11000
C 	C 	0.78393 0.07867 0.11638 0.01600
H 	H 	0.77460 0.06940 0.13260 0.03400
O 	O 	0.81313 0.53088 0.64347 -0.41700
O 	O 	0.84863 0.53085 0.60798 -0.40800
N 	N 	0.70736 0.62482 0.64507 -0.18900
C 	C 	0.82515 0.54087 0.61995 0.36400
N 	N 	0.72983 0.60615 0.64086 -0.12800
C 	C 	0.81024 0.56683 0.60498 -0.10900
C 	C 	0.78393 0.57867 0.61638 0.01500
H 	H 	0.77460 0.56940 0.63260 0.03500
O 	O 	0.31313 0.03088 0.64347 -0.41800
O 	O 	0.34863 0.03085 0.60798 -0.41000
N 	N 	0.20736 0.12482 0.64507 -0.18900
C 	C 	0.32515 0.04087 0.61995 0.36500
N 	N 	0.22983 0.10615 0.64086 -0.12800
C 	C 	0.31024 0.06683 0.60498 -0.10900
C 	C 	0.28393 0.07867 0.61638 0.01600
H 	H 	0.27460 0.06940 0.63260 0.03400
O 	O 	0.31313 0.53088 0.14347 -0.41700
O 	O 	0.34863 0.53085 0.10798 -0.40900
N 	N 	0.20736 0.62482 0.14507 -0.18900
C 	C 	0.32515 0.54087 0.11995 0.36500
N 	N 	0.22983 0.60615 0.14086 -0.12800
C 	C 	0.31024 0.56683 0.10498 -0.10900
C 	C 	0.28393 0.57867 0.11638 0.01600
H 	H 	0.27460 0.56940 0.13260 0.03500
O 	O 	0.18687 0.14347 0.03088 -0.41800
O 	O 	0.15137 0.10798 0.03085 -0.41000
N 	N 	0.29264 0.14507 0.12482 -0.18900
C 	C 	0.17485 0.11995 0.04087 0.36500
N 	N 	0.27017 0.14086 0.10615 -0.12800
C 	C 	0.18976 0.10498 0.06683 -0.11000
C 	C 	0.21607 0.11638 0.07867 0.01600
H 	H 	0.22540 0.13260 0.06940 0.03400
O 	O 	0.18687 0.64347 0.53088 -0.41700
O 	O 	0.15137 0.60798 0.53085 -0.40900
N 	N 	0.29264 0.64507 0.62482 -0.18900
C 	C 	0.17485 0.61995 0.54087 0.36400
N 	N 	0.27017 0.64086 0.60615 -0.12800
C 	C 	0.18976 0.60498 0.56683 -0.10900
C 	C 	0.21607 0.61638 0.57867 0.01500
H 	H 	0.22540 0.63260 0.56940 0.03500
O 	O 	0.68687 0.14347 0.53088 -0.41700
O 	O 	0.65137 0.10798 0.53085 -0.40900
N 	N 	0.79264 0.14507 0.62482 -0.18900
C 	C 	0.67485 0.11995 0.54087 0.36500
N 	N 	0.77017 0.14086 0.60615 -0.12800
C 	C 	0.68976 0.10498 0.56683 -0.10900
C 	C 	0.71607 0.11638 0.57867 0.01500
H 	H 	0.72540 0.13260 0.56940 0.03500
O 	O 	0.68687 0.64347 0.03088 -0.41800
O 	O 	0.65137 0.60798 0.03085 -0.41000
N 	N 	0.79264 0.64507 0.12482 -0.18900
C 	C 	0.67485 0.61995 0.04087 0.36500
N 	N 	0.77017 0.64086 0.10615 -0.12800
C 	C 	0.68976 0.60498 0.06683 -0.10900
C 	C 	0.71607 0.61638 0.07867 0.01600
H 	H 	0.72540 0.63260 0.06940 0.03400
O 	O 	0.81313 0.85653 0.03088 -0.41800
O 	O 	0.84863 0.89202 0.03085 -0.40900
N 	N 	0.70736 0.85493 0.12482 -0.18900
C 	C 	0.82515 0.88005 0.04087 0.36400
N 	N 	0.72983 0.85914 0.10615 -0.12800
C 	C 	0.81024 0.89502 0.06683 -0.10900
C 	C 	0.78393 0.88362 0.07867 0.01500
H 	H 	0.77460 0.86740 0.06940 0.03500
O 	O 	0.81313 0.35653 0.53088 -0.41700
O 	O 	0.84863 0.39202 0.53085 -0.40800
N 	N 	0.70736 0.35493 0.62482 -0.18900
C 	C 	0.82515 0.38005 0.54087 0.36400
N 	N 	0.72983 0.35914 0.60615 -0.12800
C 	C 	0.81024 0.39502 0.56683 -0.10900
C 	C 	0.78393 0.38362 0.57867 0.01500
H 	H 	0.77460 0.36740 0.56940 0.03500
O 	O 	0.31313 0.85653 0.53088 -0.41700
O 	O 	0.34863 0.89202 0.53085 -0.40800
N 	N 	0.20736 0.85493 0.62482 -0.18900
C 	C 	0.32515 0.88005 0.54087 0.36400
N 	N 	0.22983 0.85914 0.60615 -0.12800
C 	C 	0.31024 0.89502 0.56683 -0.10800
C 	C 	0.28393 0.88362 0.57867 0.01500
H 	H 	0.27460 0.86740 0.56940 0.03500
O 	O 	0.31313 0.35653 0.03088 -0.41800
O 	O 	0.34863 0.39202 0.03085 -0.41000
N 	N 	0.20736 0.35493 0.12482 -0.18900
C 	C 	0.32515 0.38005 0.04087 0.36500
N 	N 	0.22983 0.35914 0.10615 -0.12800
C 	C 	0.31024 0.39502 0.06683 -0.10900
C 	C 	0.28393 0.38362 0.07867 0.01600
H 	H 	0.27460 0.36740 0.06940 0.03400
O 	O 	0.18687 0.85653 0.96912 -0.41500
O 	O 	0.15137 0.89202 0.96915 -0.40600
N 	N 	0.29264 0.85493 0.87518 -0.18900
C 	C 	0.17485 0.88005 0.95913 0.36400
N 	N 	0.27017 0.85914 0.89385 -0.12700
C 	C 	0.18976 0.89502 0.93317 -0.10700
C 	C 	0.21607 0.88362 0.92133 0.01500
H 	H 	0.22540 0.86740 0.93060 0.03600
O 	O 	0.18687 0.35653 0.46912 -0.41700
O 	O 	0.15137 0.39202 0.46915 -0.40900
N 	N 	0.29264 0.35493 0.37518 -0.18900
C 	C 	0.17485 0.38005 0.45913 0.36400
N 	N 	0.27017 0.35914 0.39385 -0.12800
C 	C 	0.18976 0.39502 0.43317 -0.10900
C 	C 	0.21607 0.38362 0.42133 0.01500
H 	H 	0.22540 0.36740 0.43060 0.03500
O 	O 	0.68687 0.85653 0.46912 -0.41700
O 	O 	0.65137 0.89202 0.46915 -0.40800
N 	N 	0.79264 0.85493 0.37518 -0.18900
C 	C 	0.67485 0.88005 0.45913 0.36400
N 	N 	0.77017 0.85914 0.39385 -0.12800
C 	C 	0.68976 0.89502 0.43317 -0.10800
C 	C 	0.71607 0.88362 0.42133 0.01500
H 	H 	0.72540 0.86740 0.43060 0.03500
O 	O 	0.68687 0.35653 0.96912 -0.41500
O 	O 	0.65137 0.39202 0.96915 -0.40600
N 	N 	0.79264 0.35493 0.87518 -0.18900
C 	C 	0.67485 0.38005 0.95913 0.36400
N 	N 	0.77017 0.35914 0.89385 -0.12800
C 	C 	0.68976 0.39502 0.93317 -0.10800
C 	C 	0.71607 0.38362 0.92133 0.01500
H 	H 	0.72540 0.36740 0.93060 0.03500
O 	O 	0.81313 0.14347 0.96912 -0.41500
O 	O 	0.84863 0.10798 0.96915 -0.40700
N 	N 	0.70736 0.14507 0.87518 -0.18900
C 	C 	0.82515 0.11995 0.95913 0.36400
N 	N 	0.72983 0.14086 0.89385 -0.12800
C 	C 	0.81024 0.10498 0.93317 -0.10800
C 	C 	0.78393 0.11638 0.92133 0.01500
H 	H 	0.77460 0.13260 0.93060 0.03500
O 	O 	0.81313 0.64347 0.46912 -0.41700
O 	O 	0.84863 0.60798 0.46915 -0.40800
N 	N 	0.70736 0.64507 0.37518 -0.18900
C 	C 	0.82515 0.61995 0.45913 0.36400
N 	N 	0.72983 0.64086 0.39385 -0.12800
C 	C 	0.81024 0.60498 0.43317 -0.10900
C 	C 	0.78393 0.61638 0.42133 0.01500
H 	H 	0.77460 0.63260 0.43060 0.03500
O 	O 	0.31313 0.14347 0.46912 -0.41700
O 	O 	0.34863 0.10798 0.46915 -0.40900
N 	N 	0.20736 0.14507 0.37518 -0.18900
C 	C 	0.32515 0.11995 0.45913 0.36500
N 	N 	0.22983 0.14086 0.39385 -0.12800
C 	C 	0.31024 0.10498 0.43317 -0.10900
C 	C 	0.28393 0.11638 0.42133 0.01600
H 	H 	0.27460 0.13260 0.43060 0.03500
O 	O 	0.31313 0.64347 0.96912 -0.41500
O 	O 	0.34863 0.60798 0.96915 -0.40600
N 	N 	0.20736 0.64507 0.87518 -0.18900
C 	C 	0.32515 0.61995 0.95913 0.36400
N 	N 	0.22983 0.64086 0.89385 -0.12800
C 	C 	0.31024 0.60498 0.93317 -0.10800
C 	C 	0.28393 0.61638 0.92133 0.01500
H 	H 	0.27460 0.63260 0.93060 0.03500
O 	O 	0.14347 0.96912 0.81313 -0.41500
O 	O 	0.10798 0.96915 0.84863 -0.40700
N 	N 	0.14507 0.87518 0.70736 -0.18900
C 	C 	0.11995 0.95913 0.82515 0.36400
N 	N 	0.14086 0.89385 0.72983 -0.12800
C 	C 	0.10498 0.93317 0.81024 -0.10800
C 	C 	0.11638 0.92133 0.78393 0.01500
H 	H 	0.13260 0.93060 0.77460 0.03500
O 	O 	0.14347 0.46912 0.31313 -0.41700
O 	O 	0.10798 0.46915 0.34863 -0.40900
N 	N 	0.14507 0.37518 0.20736 -0.18900
C 	C 	0.11995 0.45913 0.32515 0.36500
N 	N 	0.14086 0.39385 0.22983 -0.12800
C 	C 	0.10498 0.43317 0.31024 -0.10900
C 	C 	0.11638 0.42133 0.28393 0.01600
H 	H 	0.13260 0.43060 0.27460 0.03500
O 	O 	0.64347 0.96912 0.31313 -0.41500
O 	O 	0.60798 0.96915 0.34863 -0.40600
N 	N 	0.64507 0.87518 0.20736 -0.18900
C 	C 	0.61995 0.95913 0.32515 0.36400
N 	N 	0.64086 0.89385 0.22983 -0.12800
C 	C 	0.60498 0.93317 0.31024 -0.10800
C 	C 	0.61638 0.92133 0.28393 0.01500
H 	H 	0.63260 0.93060 0.27460 0.03500
O 	O 	0.64347 0.46912 0.81313 -0.41700
O 	O 	0.60798 0.46915 0.84863 -0.40800
N 	N 	0.64507 0.37518 0.70736 -0.18900
C 	C 	0.61995 0.45913 0.82515 0.36400
N 	N 	0.64086 0.39385 0.72983 -0.12800
C 	C 	0.60498 0.43317 0.81024 -0.10900
C 	C 	0.61638 0.42133 0.78393 0.01500
H 	H 	0.63260 0.43060 0.77460 0.03500
O 	O 	0.85653 0.96912 0.18687 -0.41500
O 	O 	0.89202 0.96915 0.15137 -0.40600
N 	N 	0.85493 0.87518 0.29264 -0.18900
C 	C 	0.88005 0.95913 0.17485 0.36400
N 	N 	0.85914 0.89385 0.27017 -0.12700
C 	C 	0.89502 0.93317 0.18976 -0.10700
C 	C 	0.88362 0.92133 0.21607 0.01500
H 	H 	0.86740 0.93060 0.22540 0.03600
O 	O 	0.85653 0.46912 0.68687 -0.41700
O 	O 	0.89202 0.46915 0.65137 -0.40800
N 	N 	0.85493 0.37518 0.79264 -0.18900
C 	C 	0.88005 0.45913 0.67485 0.36400
N 	N 	0.85914 0.39385 0.77017 -0.12800
C 	C 	0.89502 0.43317 0.68976 -0.10800
C 	C 	0.88362 0.42133 0.71607 0.01500
H 	H 	0.86740 0.43060 0.72540 0.03500
O 	O 	0.35653 0.96912 0.68687 -0.41500
O 	O 	0.39202 0.96915 0.65137 -0.40600
N 	N 	0.35493 0.87518 0.79264 -0.18900
C 	C 	0.38005 0.95913 0.67485 0.36400
N 	N 	0.35914 0.89385 0.77017 -0.12800
C 	C 	0.39502 0.93317 0.68976 -0.10800
C 	C 	0.38362 0.92133 0.71607 0.01500
H 	H 	0.36740 0.93060 0.72540 0.03500
O 	O 	0.35653 0.46912 0.18687 -0.41700
O 	O 	0.39202 0.46915 0.15137 -0.40900
N 	N 	0.35493 0.37518 0.29264 -0.18900
C 	C 	0.38005 0.45913 0.17485 0.36400
N 	N 	0.35914 0.39385 0.27017 -0.12800
C 	C 	0.39502 0.43317 0.18976 -0.10900
C 	C 	0.38362 0.42133 0.21607 0.01500
H 	H 	0.36740 0.43060 0.22540 0.03500
O 	O 	0.85653 0.03088 0.81313 -0.41800
O 	O 	0.89202 0.03085 0.84863 -0.40900
N 	N 	0.85493 0.12482 0.70736 -0.18900
C 	C 	0.88005 0.04087 0.82515 0.36400
N 	N 	0.85914 0.10615 0.72983 -0.12800
C 	C 	0.89502 0.06683 0.81024 -0.10900
C 	C 	0.88362 0.07867 0.78393 0.01500
H 	H 	0.86740 0.06940 0.77460 0.03500
O 	O 	0.85653 0.53088 0.31313 -0.41700
O 	O 	0.89202 0.53085 0.34863 -0.40800
N 	N 	0.85493 0.62482 0.20736 -0.18900
C 	C 	0.88005 0.54087 0.32515 0.36400
N 	N 	0.85914 0.60615 0.22983 -0.12800
C 	C 	0.89502 0.56683 0.31024 -0.10800
C 	C 	0.88362 0.57867 0.28393 0.01500
H 	H 	0.86740 0.56940 0.27460 0.03500
O 	O 	0.35653 0.03088 0.31313 -0.41800
O 	O 	0.39202 0.03085 0.34863 -0.41000
N 	N 	0.35493 0.12482 0.20736 -0.18900
C 	C 	0.38005 0.04087 0.32515 0.36500
N 	N 	0.35914 0.10615 0.22983 -0.12800
C 	C 	0.39502 0.06683 0.31024 -0.10900
C 	C 	0.38362 0.07867 0.28393 0.01600
H 	H 	0.36740 0.06940 0.27460 0.03400
O 	O 	0.35653 0.53088 0.81313 -0.41700
O 	O 	0.39202 0.53085 0.84863 -0.40800
N 	N 	0.35493 0.62482 0.70736 -0.18900
C 	C 	0.38005 0.54087 0.82515 0.36400
N 	N 	0.35914 0.60615 0.72983 -0.12800
C 	C 	0.39502 0.56683 0.81024 -0.10900
C 	C 	0.38362 0.57867 0.78393 0.01500
H 	H 	0.36740 0.56940 0.77460 0.03500
O 	O 	0.14347 0.03088 0.18687 -0.41800
O 	O 	0.10798 0.03085 0.15137 -0.41000
N 	N 	0.14507 0.12482 0.29264 -0.18900
C 	C 	0.11995 0.04087 0.17485 0.36500
N 	N 	0.14086 0.10615 0.27017 -0.12800
C 	C 	0.10498 0.06683 0.18976 -0.11000
C 	C 	0.11638 0.07867 0.21607 0.01600
H 	H 	0.13260 0.06940 0.22540 0.03400
O 	O 	0.14347 0.53088 0.68687 -0.41700
O 	O 	0.10798 0.53085 0.65137 -0.40900
N 	N 	0.14507 0.62482 0.79264 -0.18900
C 	C 	0.11995 0.54087 0.67485 0.36500
N 	N 	0.14086 0.60615 0.77017 -0.12800
C 	C 	0.10498 0.56683 0.68976 -0.10900
C 	C 	0.11638 0.57867 0.71607 0.01500
H 	H 	0.13260 0.56940 0.72540 0.03500
O 	O 	0.64347 0.03088 0.68687 -0.41800
O 	O 	0.60798 0.03085 0.65137 -0.41000
N 	N 	0.64507 0.12482 0.79264 -0.18900
C 	C 	0.61995 0.04087 0.67485 0.36500
N 	N 	0.64086 0.10615 0.77017 -0.12800
C 	C 	0.60498 0.06683 0.68976 -0.10900
C 	C 	0.61638 0.07867 0.71607 0.01600
H 	H 	0.63260 0.06940 0.72540 0.03400
O 	O 	0.64347 0.53088 0.18687 -0.41700
O 	O 	0.60798 0.53085 0.15137 -0.40900
N 	N 	0.64507 0.62482 0.29264 -0.18900
C 	C 	0.61995 0.54087 0.17485 0.36400
N 	N 	0.64086 0.60615 0.27017 -0.12800
C 	C 	0.60498 0.56683 0.18976 -0.10900
C 	C 	0.61638 0.57867 0.21607 0.01500
H 	H 	0.63260 0.56940 0.22540 0.03500
O 	O 	0.96912 0.18687 0.85653 -0.41500
O 	O 	0.96915 0.15137 0.89202 -0.40600
N 	N 	0.87518 0.29264 0.85493 -0.18900
C 	C 	0.95913 0.17485 0.88005 0.36400
N 	N 	0.89385 0.27017 0.85914 -0.12700
C 	C 	0.93317 0.18976 0.89502 -0.10700
C 	C 	0.92133 0.21607 0.88362 0.01500
H 	H 	0.93060 0.22540 0.86740 0.03600
O 	O 	0.96912 0.68687 0.35653 -0.41500
O 	O 	0.96915 0.65137 0.39202 -0.40600
N 	N 	0.87518 0.79264 0.35493 -0.18900
C 	C 	0.95913 0.67485 0.38005 0.36400
N 	N 	0.89385 0.77017 0.35914 -0.12800
C 	C 	0.93317 0.68976 0.39502 -0.10800
C 	C 	0.92133 0.71607 0.38362 0.01500
H 	H 	0.93060 0.72540 0.36740 0.03500
O 	O 	0.46912 0.18687 0.35653 -0.41700
O 	O 	0.46915 0.15137 0.39202 -0.40900
N 	N 	0.37518 0.29264 0.35493 -0.18900
C 	C 	0.45913 0.17485 0.38005 0.36400
N 	N 	0.39385 0.27017 0.35914 -0.12800
C 	C 	0.43317 0.18976 0.39502 -0.10900
C 	C 	0.42133 0.21607 0.38362 0.01500
H 	H 	0.43060 0.22540 0.36740 0.03500
O 	O 	0.46912 0.68687 0.85653 -0.41700
O 	O 	0.46915 0.65137 0.89202 -0.40800
N 	N 	0.37518 0.79264 0.85493 -0.18900
C 	C 	0.45913 0.67485 0.88005 0.36400
N 	N 	0.39385 0.77017 0.85914 -0.12800
C 	C 	0.43317 0.68976 0.89502 -0.10800
C 	C 	0.42133 0.71607 0.88362 0.01500
H 	H 	0.43060 0.72540 0.86740 0.03500
O 	O 	0.96912 0.81313 0.14347 -0.41500
O 	O 	0.96915 0.84863 0.10798 -0.40700
N 	N 	0.87518 0.70736 0.14507 -0.18900
C 	C 	0.95913 0.82515 0.11995 0.36400
N 	N 	0.89385 0.72983 0.14086 -0.12800
C 	C 	0.93317 0.81024 0.10498 -0.10800
C 	C 	0.92133 0.78393 0.11638 0.01500
H 	H 	0.93060 0.77460 0.13260 0.03500
O 	O 	0.96912 0.31313 0.64347 -0.41500
O 	O 	0.96915 0.34863 0.60798 -0.40600
N 	N 	0.87518 0.20736 0.64507 -0.18900
C 	C 	0.95913 0.32515 0.61995 0.36400
N 	N 	0.89385 0.22983 0.64086 -0.12800
C 	C 	0.93317 0.31024 0.60498 -0.10800
C 	C 	0.92133 0.28393 0.61638 0.01500
H 	H 	0.93060 0.27460 0.63260 0.03500
O 	O 	0.46912 0.81313 0.64347 -0.41700
O 	O 	0.46915 0.84863 0.60798 -0.40800
N 	N 	0.37518 0.70736 0.64507 -0.18900
C 	C 	0.45913 0.82515 0.61995 0.36400
N 	N 	0.39385 0.72983 0.64086 -0.12800
C 	C 	0.43317 0.81024 0.60498 -0.10900
C 	C 	0.42133 0.78393 0.61638 0.01500
H 	H 	0.43060 0.77460 0.63260 0.03500
O 	O 	0.46912 0.31313 0.14347 -0.41700
O 	O 	0.46915 0.34863 0.10798 -0.40900
N 	N 	0.37518 0.20736 0.14507 -0.18900
C 	C 	0.45913 0.32515 0.11995 0.36500
N 	N 	0.39385 0.22983 0.14086 -0.12800
C 	C 	0.43317 0.31024 0.10498 -0.10900
C 	C 	0.42133 0.28393 0.11638 0.01600
H 	H 	0.43060 0.27460 0.13260 0.03500
O 	O 	0.03088 0.18687 0.14347 -0.41800
O 	O 	0.03085 0.15137 0.10798 -0.41000
N 	N 	0.12482 0.29264 0.14507 -0.18900
C 	C 	0.04087 0.17485 0.11995 0.36500
N 	N 	0.10615 0.27017 0.14086 -0.12800
C 	C 	0.06683 0.18976 0.10498 -0.11000
C 	C 	0.07867 0.21607 0.11638 0.01600
H 	H 	0.06940 0.22540 0.13260 0.03400
O 	O 	0.03088 0.68687 0.64347 -0.41800
O 	O 	0.03085 0.65137 0.60798 -0.41000
N 	N 	0.12482 0.79264 0.64507 -0.18900
C 	C 	0.04087 0.67485 0.61995 0.36500
N 	N 	0.10615 0.77017 0.64086 -0.12800
C 	C 	0.06683 0.68976 0.60498 -0.10900
C 	C 	0.07867 0.71607 0.61638 0.01600
H 	H 	0.06940 0.72540 0.63260 0.03400
O 	O 	0.53088 0.18687 0.64347 -0.41700
O 	O 	0.53085 0.15137 0.60798 -0.40900
N 	N 	0.62482 0.29264 0.64507 -0.18900
C 	C 	0.54087 0.17485 0.61995 0.36400
N 	N 	0.60615 0.27017 0.64086 -0.12800
C 	C 	0.56683 0.18976 0.60498 -0.10900
C 	C 	0.57867 0.21607 0.61638 0.01500
H 	H 	0.56940 0.22540 0.63260 0.03500
O 	O 	0.53088 0.68687 0.14347 -0.41700
O 	O 	0.53085 0.65137 0.10798 -0.40900
N 	N 	0.62482 0.79264 0.14507 -0.18900
C 	C 	0.54087 0.67485 0.11995 0.36500
N 	N 	0.60615 0.77017 0.14086 -0.12800
C 	C 	0.56683 0.68976 0.10498 -0.10900
C 	C 	0.57867 0.71607 0.11638 0.01500
H 	H 	0.56940 0.72540 0.13260 0.03500
O 	O 	0.03088 0.81313 0.85653 -0.41800
O 	O 	0.03085 0.84863 0.89202 -0.40900
N 	N 	0.12482 0.70736 0.85493 -0.18900
C 	C 	0.04087 0.82515 0.88005 0.36400
N 	N 	0.10615 0.72983 0.85914 -0.12800
C 	C 	0.06683 0.81024 0.89502 -0.10900
C 	C 	0.07867 0.78393 0.88362 0.01500
H 	H 	0.06940 0.77460 0.86740 0.03500
O 	O 	0.03088 0.31313 0.35653 -0.41800
O 	O 	0.03085 0.34863 0.39202 -0.41000
N 	N 	0.12482 0.20736 0.35493 -0.18900
C 	C 	0.04087 0.32515 0.38005 0.36500
N 	N 	0.10615 0.22983 0.35914 -0.12800
C 	C 	0.06683 0.31024 0.39502 -0.10900
C 	C 	0.07867 0.28393 0.38362 0.01600
H 	H 	0.06940 0.27460 0.36740 0.03400
O 	O 	0.53088 0.81313 0.35653 -0.41700
O 	O 	0.53085 0.84863 0.39202 -0.40800
N 	N 	0.62482 0.70736 0.35493 -0.18900
C 	C 	0.54087 0.82515 0.38005 0.36400
N 	N 	0.60615 0.72983 0.35914 -0.12800
C 	C 	0.56683 0.81024 0.39502 -0.10900
C 	C 	0.57867 0.78393 0.38362 0.01500
H 	H 	0.56940 0.77460 0.36740 0.03500
O 	O 	0.53088 0.31313 0.85653 -0.41700
O 	O 	0.53085 0.34863 0.89202 -0.40800
N 	N 	0.62482 0.20736 0.85493 -0.18900
C 	C 	0.54087 0.32515 0.88005 0.36400
N 	N 	0.60615 0.22983 0.85914 -0.12800
C 	C 	0.56683 0.31024 0.89502 -0.10800
C 	C 	0.57867 0.28393 0.88362 0.01500
H 	H 	0.56940 0.27460 0.86740 0.03500
O 	O 	0.85653 0.81313 0.03088 -0.41800
O 	O 	0.89202 0.84863 0.03085 -0.40900
N 	N 	0.85493 0.70736 0.12482 -0.18900
C 	C 	0.88005 0.82515 0.04087 0.36400
N 	N 	0.85914 0.72983 0.10615 -0.12800
C 	C 	0.89502 0.81024 0.06683 -0.10900
C 	C 	0.88362 0.78393 0.07867 0.01500
H 	H 	0.86740 0.77460 0.06940 0.03500
O 	O 	0.85653 0.31313 0.53088 -0.41700
O 	O 	0.89202 0.34863 0.53085 -0.40800
N 	N 	0.85493 0.20736 0.62482 -0.18900
C 	C 	0.88005 0.32515 0.54087 0.36400
N 	N 	0.85914 0.22983 0.60615 -0.12800
C 	C 	0.89502 0.31024 0.56683 -0.10800
C 	C 	0.88362 0.28393 0.57867 0.01500
H 	H 	0.86740 0.27460 0.56940 0.03500
O 	O 	0.35653 0.81313 0.53088 -0.41700
O 	O 	0.39202 0.84863 0.53085 -0.40800
N 	N 	0.35493 0.70736 0.62482 -0.18900
C 	C 	0.38005 0.82515 0.54087 0.36400
N 	N 	0.35914 0.72983 0.60615 -0.12800
C 	C 	0.39502 0.81024 0.56683 -0.10900
C 	C 	0.38362 0.78393 0.57867 0.01500
H 	H 	0.36740 0.77460 0.56940 0.03500
O 	O 	0.35653 0.31313 0.03088 -0.41800
O 	O 	0.39202 0.34863 0.03085 -0.41000
N 	N 	0.35493 0.20736 0.12482 -0.18900
C 	C 	0.38005 0.32515 0.04087 0.36500
N 	N 	0.35914 0.22983 0.10615 -0.12800
C 	C 	0.39502 0.31024 0.06683 -0.10900
C 	C 	0.38362 0.28393 0.07867 0.01600
H 	H 	0.36740 0.27460 0.06940 0.03400
O 	O 	0.14347 0.18687 0.03088 -0.41800
O 	O 	0.10798 0.15137 0.03085 -0.41000
N 	N 	0.14507 0.29264 0.12482 -0.18900
C 	C 	0.11995 0.17485 0.04087 0.36500
N 	N 	0.14086 0.27017 0.10615 -0.12800
C 	C 	0.10498 0.18976 0.06683 -0.11000
C 	C 	0.11638 0.21607 0.07867 0.01600
H 	H 	0.13260 0.22540 0.06940 0.03400
O 	O 	0.14347 0.68687 0.53088 -0.41700
O 	O 	0.10798 0.65137 0.53085 -0.40900
N 	N 	0.14507 0.79264 0.62482 -0.18900
C 	C 	0.11995 0.67485 0.54087 0.36500
N 	N 	0.14086 0.77017 0.60615 -0.12800
C 	C 	0.10498 0.68976 0.56683 -0.10900
C 	C 	0.11638 0.71607 0.57867 0.01500
H 	H 	0.13260 0.72540 0.56940 0.03500
O 	O 	0.64347 0.18687 0.53088 -0.41700
O 	O 	0.60798 0.15137 0.53085 -0.40900
N 	N 	0.64507 0.29264 0.62482 -0.18900
C 	C 	0.61995 0.17485 0.54087 0.36400
N 	N 	0.64086 0.27017 0.60615 -0.12800
C 	C 	0.60498 0.18976 0.56683 -0.10900
C 	C 	0.61638 0.21607 0.57867 0.01500
H 	H 	0.63260 0.22540 0.56940 0.03500
O 	O 	0.64347 0.68687 0.03088 -0.41800
O 	O 	0.60798 0.65137 0.03085 -0.41000
N 	N 	0.64507 0.79264 0.12482 -0.18900
C 	C 	0.61995 0.67485 0.04087 0.36500
N 	N 	0.64086 0.77017 0.10615 -0.12800
C 	C 	0.60498 0.68976 0.06683 -0.10900
C 	C 	0.61638 0.71607 0.07867 0.01600
H 	H 	0.63260 0.72540 0.06940 0.03400
O 	O 	0.14347 0.81313 0.96912 -0.41500
O 	O 	0.10798 0.84863 0.96915 -0.40700
N 	N 	0.14507 0.70736 0.87518 -0.18900
C 	C 	0.11995 0.82515 0.95913 0.36400
N 	N 	0.14086 0.72983 0.89385 -0.12800
C 	C 	0.10498 0.81024 0.93317 -0.10800
C 	C 	0.11638 0.78393 0.92133 0.01500
H 	H 	0.13260 0.77460 0.93060 0.03500
O 	O 	0.14347 0.31313 0.46912 -0.41700
O 	O 	0.10798 0.34863 0.46915 -0.40900
N 	N 	0.14507 0.20736 0.37518 -0.18900
C 	C 	0.11995 0.32515 0.45913 0.36500
N 	N 	0.14086 0.22983 0.39385 -0.12800
C 	C 	0.10498 0.31024 0.43317 -0.10900
C 	C 	0.11638 0.28393 0.42133 0.01600
H 	H 	0.13260 0.27460 0.43060 0.03500
O 	O 	0.64347 0.81313 0.46912 -0.41700
O 	O 	0.60798 0.84863 0.46915 -0.40800
N 	N 	0.64507 0.70736 0.37518 -0.18900
C 	C 	0.61995 0.82515 0.45913 0.36400
N 	N 	0.64086 0.72983 0.39385 -0.12800
C 	C 	0.60498 0.81024 0.43317 -0.10900
C 	C 	0.61638 0.78393 0.42133 0.01500
H 	H 	0.63260 0.77460 0.43060 0.03500
O 	O 	0.64347 0.31313 0.96912 -0.41500
O 	O 	0.60798 0.34863 0.96915 -0.40600
N 	N 	0.64507 0.20736 0.87518 -0.18900
C 	C 	0.61995 0.32515 0.95913 0.36400
N 	N 	0.64086 0.22983 0.89385 -0.12800
C 	C 	0.60498 0.31024 0.93317 -0.10800
C 	C 	0.61638 0.28393 0.92133 0.01500
H 	H 	0.63260 0.27460 0.93060 0.03500
O 	O 	0.85653 0.18687 0.96912 -0.41500
O 	O 	0.89202 0.15137 0.96915 -0.40600
N 	N 	0.85493 0.29264 0.87518 -0.18900
C 	C 	0.88005 0.17485 0.95913 0.36400
N 	N 	0.85914 0.27017 0.89385 -0.12700
C 	C 	0.89502 0.18976 0.93317 -0.10700
C 	C 	0.88362 0.21607 0.92133 0.01500
H 	H 	0.86740 0.22540 0.93060 0.03600
O 	O 	0.85653 0.68687 0.46912 -0.41700
O 	O 	0.89202 0.65137 0.46915 -0.40800
N 	N 	0.85493 0.79264 0.37518 -0.18900
C 	C 	0.88005 0.67485 0.45913 0.36400
N 	N 	0.85914 0.77017 0.39385 -0.12800
C 	C 	0.89502 0.68976 0.43317 -0.10800
C 	C 	0.88362 0.71607 0.42133 0.01500
H 	H 	0.86740 0.72540 0.43060 0.03500
O 	O 	0.35653 0.18687 0.46912 -0.41700
O 	O 	0.39202 0.15137 0.46915 -0.40900
N 	N 	0.35493 0.29264 0.37518 -0.18900
C 	C 	0.38005 0.17485 0.45913 0.36400
N 	N 	0.35914 0.27017 0.39385 -0.12800
C 	C 	0.39502 0.18976 0.43317 -0.10900
C 	C 	0.38362 0.21607 0.42133 0.01500
H 	H 	0.36740 0.22540 0.43060 0.03500
O 	O 	0.35653 0.68687 0.96912 -0.41500
O 	O 	0.39202 0.65137 0.96915 -0.40600
N 	N 	0.35493 0.79264 0.87518 -0.18900
C 	C 	0.38005 0.67485 0.95913 0.36400
N 	N 	0.35914 0.77017 0.89385 -0.12800
C 	C 	0.39502 0.68976 0.93317 -0.10800
C 	C 	0.38362 0.71607 0.92133 0.01500
H 	H 	0.36740 0.72540 0.93060 0.03500
O 	O 	0.03088 0.85653 0.81313 -0.41800
O 	O 	0.03085 0.89202 0.84863 -0.40900
N 	N 	0.12482 0.85493 0.70736 -0.18900
C 	C 	0.04087 0.88005 0.82515 0.36400
N 	N 	0.10615 0.85914 0.72983 -0.12800
C 	C 	0.06683 0.89502 0.81024 -0.10900
C 	C 	0.07867 0.88362 0.78393 0.01500
H 	H 	0.06940 0.86740 0.77460 0.03500
O 	O 	0.03088 0.35653 0.31313 -0.41800
O 	O 	0.03085 0.39202 0.34863 -0.41000
N 	N 	0.12482 0.35493 0.20736 -0.18900
C 	C 	0.04087 0.38005 0.32515 0.36500
N 	N 	0.10615 0.35914 0.22983 -0.12800
C 	C 	0.06683 0.39502 0.31024 -0.10900
C 	C 	0.07867 0.38362 0.28393 0.01600
H 	H 	0.06940 0.36740 0.27460 0.03400
O 	O 	0.53088 0.85653 0.31313 -0.41700
O 	O 	0.53085 0.89202 0.34863 -0.40800
N 	N 	0.62482 0.85493 0.20736 -0.18900
C 	C 	0.54087 0.88005 0.32515 0.36400
N 	N 	0.60615 0.85914 0.22983 -0.12800
C 	C 	0.56683 0.89502 0.31024 -0.10800
C 	C 	0.57867 0.88362 0.28393 0.01500
H 	H 	0.56940 0.86740 0.27460 0.03500
O 	O 	0.53088 0.35653 0.81313 -0.41700
O 	O 	0.53085 0.39202 0.84863 -0.40800
N 	N 	0.62482 0.35493 0.70736 -0.18900
C 	C 	0.54087 0.38005 0.82515 0.36400
N 	N 	0.60615 0.35914 0.72983 -0.12800
C 	C 	0.56683 0.39502 0.81024 -0.10900
C 	C 	0.57867 0.38362 0.78393 0.01500
H 	H 	0.56940 0.36740 0.77460 0.03500
O 	O 	0.03088 0.14347 0.18687 -0.41800
O 	O 	0.03085 0.10798 0.15137 -0.41000
N 	N 	0.12482 0.14507 0.29264 -0.18900
C 	C 	0.04087 0.11995 0.17485 0.36500
N 	N 	0.10615 0.14086 0.27017 -0.12800
C 	C 	0.06683 0.10498 0.18976 -0.11000
C 	C 	0.07867 0.11638 0.21607 0.01600
H 	H 	0.06940 0.13260 0.22540 0.03400
O 	O 	0.03088 0.64347 0.68687 -0.41800
O 	O 	0.03085 0.60798 0.65137 -0.41000
N 	N 	0.12482 0.64507 0.79264 -0.18900
C 	C 	0.04087 0.61995 0.67485 0.36500
N 	N 	0.10615 0.64086 0.77017 -0.12800
C 	C 	0.06683 0.60498 0.68976 -0.10900
C 	C 	0.07867 0.61638 0.71607 0.01600
H 	H 	0.06940 0.63260 0.72540 0.03400
O 	O 	0.53088 0.14347 0.68687 -0.41700
O 	O 	0.53085 0.10798 0.65137 -0.40900
N 	N 	0.62482 0.14507 0.79264 -0.18900
C 	C 	0.54087 0.11995 0.67485 0.36500
N 	N 	0.60615 0.14086 0.77017 -0.12800
C 	C 	0.56683 0.10498 0.68976 -0.10900
C 	C 	0.57867 0.11638 0.71607 0.01500
H 	H 	0.56940 0.13260 0.72540 0.03500
O 	O 	0.53088 0.64347 0.18687 -0.41700
O 	O 	0.53085 0.60798 0.15137 -0.40900
N 	N 	0.62482 0.64507 0.29264 -0.18900
C 	C 	0.54087 0.61995 0.17485 0.36400
N 	N 	0.60615 0.64086 0.27017 -0.12800
C 	C 	0.56683 0.60498 0.18976 -0.10900
C 	C 	0.57867 0.61638 0.21607 0.01500
H 	H 	0.56940 0.63260 0.22540 0.03500
O 	O 	0.96912 0.14347 0.81313 -0.41500
O 	O 	0.96915 0.10798 0.84863 -0.40700
N 	N 	0.87518 0.14507 0.70736 -0.18900
C 	C 	0.95913 0.11995 0.82515 0.36400
N 	N 	0.89385 0.14086 0.72983 -0.12800
C 	C 	0.93317 0.10498 0.81024 -0.10800
C 	C 	0.92133 0.11638 0.78393 0.01500
H 	H 	0.93060 0.13260 0.77460 0.03500
O 	O 	0.96912 0.64347 0.31313 -0.41500
O 	O 	0.96915 0.60798 0.34863 -0.40600
N 	N 	0.87518 0.64507 0.20736 -0.18900
C 	C 	0.95913 0.61995 0.32515 0.36400
N 	N 	0.89385 0.64086 0.22983 -0.12800
C 	C 	0.93317 0.60498 0.31024 -0.10800
C 	C 	0.92133 0.61638 0.28393 0.01500
H 	H 	0.93060 0.63260 0.27460 0.03500
O 	O 	0.46912 0.14347 0.31313 -0.41700
O 	O 	0.46915 0.10798 0.34863 -0.40900
N 	N 	0.37518 0.14507 0.20736 -0.18900
C 	C 	0.45913 0.11995 0.32515 0.36500
N 	N 	0.39385 0.14086 0.22983 -0.12800
C 	C 	0.43317 0.10498 0.31024 -0.10900
C 	C 	0.42133 0.11638 0.28393 0.01600
H 	H 	0.43060 0.13260 0.27460 0.03500
O 	O 	0.46912 0.64347 0.81313 -0.41700
O 	O 	0.46915 0.60798 0.84863 -0.40800
N 	N 	0.37518 0.64507 0.70736 -0.18900
C 	C 	0.45913 0.61995 0.82515 0.36400
N 	N 	0.39385 0.64086 0.72983 -0.12800
C 	C 	0.43317 0.60498 0.81024 -0.10900
C 	C 	0.42133 0.61638 0.78393 0.01500
H 	H 	0.43060 0.63260 0.77460 0.03500
O 	O 	0.96912 0.85653 0.18687 -0.41500
O 	O 	0.96915 0.89202 0.15137 -0.40600
N 	N 	0.87518 0.85493 0.29264 -0.18900
C 	C 	0.95913 0.88005 0.17485 0.36400
N 	N 	0.89385 0.85914 0.27017 -0.12700
C 	C 	0.93317 0.89502 0.18976 -0.10700
C 	C 	0.92133 0.88362 0.21607 0.01500
H 	H 	0.93060 0.86740 0.22540 0.03600
O 	O 	0.96912 0.35653 0.68687 -0.41500
O 	O 	0.96915 0.39202 0.65137 -0.40600
N 	N 	0.87518 0.35493 0.79264 -0.18900
C 	C 	0.95913 0.38005 0.67485 0.36400
N 	N 	0.89385 0.35914 0.77017 -0.12800
C 	C 	0.93317 0.39502 0.68976 -0.10800
C 	C 	0.92133 0.38362 0.71607 0.01500
H 	H 	0.93060 0.36740 0.72540 0.03500
O 	O 	0.46912 0.85653 0.68687 -0.41700
O 	O 	0.46915 0.89202 0.65137 -0.40800
N 	N 	0.37518 0.85493 0.79264 -0.18900
C 	C 	0.45913 0.88005 0.67485 0.36400
N 	N 	0.39385 0.85914 0.77017 -0.12800
C 	C 	0.43317 0.89502 0.68976 -0.10800
C 	C 	0.42133 0.88362 0.71607 0.01500
H 	H 	0.43060 0.86740 0.72540 0.03500
O 	O 	0.46912 0.35653 0.18687 -0.41700
O 	O 	0.46915 0.39202 0.15137 -0.40900
N 	N 	0.37518 0.35493 0.29264 -0.18900
C 	C 	0.45913 0.38005 0.17485 0.36400
N 	N 	0.39385 0.35914 0.27017 -0.12800
C 	C 	0.43317 0.39502 0.18976 -0.10900
C 	C 	0.42133 0.38362 0.21607 0.01500
H 	H 	0.43060 0.36740 0.22540 0.03500
O 	O 	0.81313 0.03088 0.85653 -0.41800
O 	O 	0.84863 0.03085 0.89202 -0.40900
N 	N 	0.70736 0.12482 0.85493 -0.18900
C 	C 	0.82515 0.04087 0.88005 0.36400
N 	N 	0.72983 0.10615 0.85914 -0.12800
C 	C 	0.81024 0.06683 0.89502 -0.10900
C 	C 	0.78393 0.07867 0.88362 0.01500
H 	H 	0.77460 0.06940 0.86740 0.03500
O 	O 	0.81313 0.53088 0.35653 -0.41700
O 	O 	0.84863 0.53085 0.39202 -0.40800
N 	N 	0.70736 0.62482 0.35493 -0.18900
C 	C 	0.82515 0.54087 0.38005 0.36400
N 	N 	0.72983 0.60615 0.35914 -0.12800
C 	C 	0.81024 0.56683 0.39502 -0.10900
C 	C 	0.78393 0.57867 0.38362 0.01500
H 	H 	0.77460 0.56940 0.36740 0.03500
O 	O 	0.31313 0.03088 0.35653 -0.41800
O 	O 	0.34863 0.03085 0.39202 -0.41000
N 	N 	0.20736 0.12482 0.35493 -0.18900
C 	C 	0.32515 0.04087 0.38005 0.36500
N 	N 	0.22983 0.10615 0.35914 -0.12800
C 	C 	0.31024 0.06683 0.39502 -0.10900
C 	C 	0.28393 0.07867 0.38362 0.01600
H 	H 	0.27460 0.06940 0.36740 0.03400
O 	O 	0.31313 0.53088 0.85653 -0.41700
O 	O 	0.34863 0.53085 0.89202 -0.40800
N 	N 	0.20736 0.62482 0.85493 -0.18900
C 	C 	0.32515 0.54087 0.88005 0.36400
N 	N 	0.22983 0.60615 0.85914 -0.12800
C 	C 	0.31024 0.56683 0.89502 -0.10800
C 	C 	0.28393 0.57867 0.88362 0.01500
H 	H 	0.27460 0.56940 0.86740 0.03500
O 	O 	0.18687 0.03088 0.14347 -0.41800
O 	O 	0.15137 0.03085 0.10798 -0.41000
N 	N 	0.29264 0.12482 0.14507 -0.18900
C 	C 	0.17485 0.04087 0.11995 0.36500
N 	N 	0.27017 0.10615 0.14086 -0.12800
C 	C 	0.18976 0.06683 0.10498 -0.11000
C 	C 	0.21607 0.07867 0.11638 0.01600
H 	H 	0.22540 0.06940 0.13260 0.03400
O 	O 	0.18687 0.53088 0.64347 -0.41700
O 	O 	0.15137 0.53085 0.60798 -0.40900
N 	N 	0.29264 0.62482 0.64507 -0.18900
C 	C 	0.17485 0.54087 0.61995 0.36400
N 	N 	0.27017 0.60615 0.64086 -0.12800
C 	C 	0.18976 0.56683 0.60498 -0.10900
C 	C 	0.21607 0.57867 0.61638 0.01500
H 	H 	0.22540 0.56940 0.63260 0.03500
O 	O 	0.68687 0.03088 0.64347 -0.41800
O 	O 	0.65137 0.03085 0.60798 -0.41000
N 	N 	0.79264 0.12482 0.64507 -0.18900
C 	C 	0.67485 0.04087 0.61995 0.36500
N 	N 	0.77017 0.10615 0.64086 -0.12800
C 	C 	0.68976 0.06683 0.60498 -0.10900
C 	C 	0.71607 0.07867 0.61638 0.01600
H 	H 	0.72540 0.06940 0.63260 0.03400
O 	O 	0.68687 0.53088 0.14347 -0.41700
O 	O 	0.65137 0.53085 0.10798 -0.40900
N 	N 	0.79264 0.62482 0.14507 -0.18900
C 	C 	0.67485 0.54087 0.11995 0.36500
N 	N 	0.77017 0.60615 0.14086 -0.12800
C 	C 	0.68976 0.56683 0.10498 -0.10900
C 	C 	0.71607 0.57867 0.11638 0.01500
H 	H 	0.72540 0.56940 0.13260 0.03500
O 	O 	0.81313 0.96912 0.14347 -0.41500
O 	O 	0.84863 0.96915 0.10798 -0.40700
N 	N 	0.70736 0.87518 0.14507 -0.18900
C 	C 	0.82515 0.95913 0.11995 0.36400
N 	N 	0.72983 0.89385 0.14086 -0.12800
C 	C 	0.81024 0.93317 0.10498 -0.10800
C 	C 	0.78393 0.92133 0.11638 0.01500
H 	H 	0.77460 0.93060 0.13260 0.03500
O 	O 	0.81313 0.46912 0.64347 -0.41700
O 	O 	0.84863 0.46915 0.60798 -0.40800
N 	N 	0.70736 0.37518 0.64507 -0.18900
C 	C 	0.82515 0.45913 0.61995 0.36400
N 	N 	0.72983 0.39385 0.64086 -0.12800
C 	C 	0.81024 0.43317 0.60498 -0.10900
C 	C 	0.78393 0.42133 0.61638 0.01500
H 	H 	0.77460 0.43060 0.63260 0.03500
O 	O 	0.31313 0.96912 0.64347 -0.41500
O 	O 	0.34863 0.96915 0.60798 -0.40600
N 	N 	0.20736 0.87518 0.64507 -0.18900
C 	C 	0.32515 0.95913 0.61995 0.36400
N 	N 	0.22983 0.89385 0.64086 -0.12800
C 	C 	0.31024 0.93317 0.60498 -0.10800
C 	C 	0.28393 0.92133 0.61638 0.01500
H 	H 	0.27460 0.93060 0.63260 0.03500
O 	O 	0.31313 0.46912 0.14347 -0.41700
O 	O 	0.34863 0.46915 0.10798 -0.40900
N 	N 	0.20736 0.37518 0.14507 -0.18900
C 	C 	0.32515 0.45913 0.11995 0.36500
N 	N 	0.22983 0.39385 0.14086 -0.12800
C 	C 	0.31024 0.43317 0.10498 -0.10900
C 	C 	0.28393 0.42133 0.11638 0.01600
H 	H 	0.27460 0.43060 0.13260 0.03500
O 	O 	0.18687 0.96912 0.85653 -0.41500
O 	O 	0.15137 0.96915 0.89202 -0.40600
N 	N 	0.29264 0.87518 0.85493 -0.18900
C 	C 	0.17485 0.95913 0.88005 0.36400
N 	N 	0.27017 0.89385 0.85914 -0.12700
C 	C 	0.18976 0.93317 0.89502 -0.10700
C 	C 	0.21607 0.92133 0.88362 0.01500
H 	H 	0.22540 0.93060 0.86740 0.03600
O 	O 	0.18687 0.46912 0.35653 -0.41700
O 	O 	0.15137 0.46915 0.39202 -0.40900
N 	N 	0.29264 0.37518 0.35493 -0.18900
C 	C 	0.17485 0.45913 0.38005 0.36400
N 	N 	0.27017 0.39385 0.35914 -0.12800
C 	C 	0.18976 0.43317 0.39502 -0.10900
C 	C 	0.21607 0.42133 0.38362 0.01500
H 	H 	0.22540 0.43060 0.36740 0.03500
O 	O 	0.68687 0.96912 0.35653 -0.41500
O 	O 	0.65137 0.96915 0.39202 -0.40600
N 	N 	0.79264 0.87518 0.35493 -0.18900
C 	C 	0.67485 0.95913 0.38005 0.36400
N 	N 	0.77017 0.89385 0.35914 -0.12800
C 	C 	0.68976 0.93317 0.39502 -0.10800
C 	C 	0.71607 0.92133 0.38362 0.01500
H 	H 	0.72540 0.93060 0.36740 0.03500
O 	O 	0.68687 0.46912 0.85653 -0.41700
O 	O 	0.65137 0.46915 0.89202 -0.40800
N 	N 	0.79264 0.37518 0.85493 -0.18900
C 	C 	0.67485 0.45913 0.88005 0.36400
N 	N 	0.77017 0.39385 0.85914 -0.12800
C 	C 	0.68976 0.43317 0.89502 -0.10800
C 	C 	0.71607 0.42133 0.88362 0.01500
H 	H 	0.72540 0.43060 0.86740 0.03500
O 	O 	0.81313 0.85653 0.96912 -0.41500
O 	O 	0.84863 0.89202 0.96915 -0.40600
N 	N 	0.70736 0.85493 0.87518 -0.18900
C 	C 	0.82515 0.88005 0.95913 0.36400
N 	N 	0.72983 0.85914 0.89385 -0.12800
C 	C 	0.81024 0.89502 0.93317 -0.10700
C 	C 	0.78393 0.88362 0.92133 0.01500
H 	H 	0.77460 0.86740 0.93060 0.03600
O 	O 	0.81313 0.35653 0.46912 -0.41700
O 	O 	0.84863 0.39202 0.46915 -0.40800
N 	N 	0.70736 0.35493 0.37518 -0.18900
C 	C 	0.82515 0.38005 0.45913 0.36400
N 	N 	0.72983 0.35914 0.39385 -0.12800
C 	C 	0.81024 0.39502 0.43317 -0.10900
C 	C 	0.78393 0.38362 0.42133 0.01500
H 	H 	0.77460 0.36740 0.43060 0.03500
O 	O 	0.31313 0.85653 0.46912 -0.41700
O 	O 	0.34863 0.89202 0.46915 -0.40800
N 	N 	0.20736 0.85493 0.37518 -0.18900
C 	C 	0.32515 0.88005 0.45913 0.36400
N 	N 	0.22983 0.85914 0.39385 -0.12800
C 	C 	0.31024 0.89502 0.43317 -0.10800
C 	C 	0.28393 0.88362 0.42133 0.01500
H 	H 	0.27460 0.86740 0.43060 0.03500
O 	O 	0.31313 0.35653 0.96912 -0.41500
O 	O 	0.34863 0.39202 0.96915 -0.40600
N 	N 	0.20736 0.35493 0.87518 -0.18900
C 	C 	0.32515 0.38005 0.95913 0.36400
N 	N 	0.22983 0.35914 0.89385 -0.12800
C 	C 	0.31024 0.39502 0.93317 -0.10800
C 	C 	0.28393 0.38362 0.92133 0.01500
H 	H 	0.27460 0.36740 0.93060 0.03500
O 	O 	0.18687 0.14347 0.96912 -0.41500
O 	O 	0.15137 0.10798 0.96915 -0.40700
N 	N 	0.29264 0.14507 0.87518 -0.18900
C 	C 	0.17485 0.11995 0.95913 0.36400
N 	N 	0.27017 0.14086 0.89385 -0.12800
C 	C 	0.18976 0.10498 0.93317 -0.10800
C 	C 	0.21607 0.11638 0.92133 0.01500
H 	H 	0.22540 0.13260 0.93060 0.03500
O 	O 	0.18687 0.64347 0.46912 -0.41700
O 	O 	0.15137 0.60798 0.46915 -0.40900
N 	N 	0.29264 0.64507 0.37518 -0.18900
C 	C 	0.17485 0.61995 0.45913 0.36400
N 	N 	0.27017 0.64086 0.39385 -0.12800
C 	C 	0.18976 0.60498 0.43317 -0.10900
C 	C 	0.21607 0.61638 0.42133 0.01500
H 	H 	0.22540 0.63260 0.43060 0.03500
O 	O 	0.68687 0.14347 0.46912 -0.41700
O 	O 	0.65137 0.10798 0.46915 -0.40900
N 	N 	0.79264 0.14507 0.37518 -0.18900
C 	C 	0.67485 0.11995 0.45913 0.36500
N 	N 	0.77017 0.14086 0.39385 -0.12800
C 	C 	0.68976 0.10498 0.43317 -0.10900
C 	C 	0.71607 0.11638 0.42133 0.01500
H 	H 	0.72540 0.13260 0.43060 0.03500
O 	O 	0.68687 0.64347 0.96912 -0.41500
O 	O 	0.65137 0.60798 0.96915 -0.40600
N 	N 	0.79264 0.64507 0.87518 -0.18900
C 	C 	0.67485 0.61995 0.95913 0.36400
N 	N 	0.77017 0.64086 0.89385 -0.12800
C 	C 	0.68976 0.60498 0.93317 -0.10800
C 	C 	0.71607 0.61638 0.92133 0.01500
H 	H 	0.72540 0.63260 0.93060 0.03500
O 	O 	0.81313 0.14347 0.03088 -0.41800
O 	O 	0.84863 0.10798 0.03085 -0.41000
N 	N 	0.70736 0.14507 0.12482 -0.18900
C 	C 	0.82515 0.11995 0.04087 0.36500
N 	N 	0.72983 0.14086 0.10615 -0.12800
C 	C 	0.81024 0.10498 0.06683 -0.11000
C 	C 	0.78393 0.11638 0.07867 0.01600
H 	H 	0.77460 0.13260 0.06940 0.03400
O 	O 	0.81313 0.64347 0.53088 -0.41700
O 	O 	0.84863 0.60798 0.53085 -0.40800
N 	N 	0.70736 0.64507 0.62482 -0.18900
C 	C 	0.82515 0.61995 0.54087 0.36400
N 	N 	0.72983 0.64086 0.60615 -0.12800
C 	C 	0.81024 0.60498 0.56683 -0.10900
C 	C 	0.78393 0.61638 0.57867 0.01500
H 	H 	0.77460 0.63260 0.56940 0.03500
O 	O 	0.31313 0.14347 0.53088 -0.41700
O 	O 	0.34863 0.10798 0.53085 -0.40900
N 	N 	0.20736 0.14507 0.62482 -0.18900
C 	C 	0.32515 0.11995 0.54087 0.36500
N 	N 	0.22983 0.14086 0.60615 -0.12800
C 	C 	0.31024 0.10498 0.56683 -0.10900
C 	C 	0.28393 0.11638 0.57867 0.01600
H 	H 	0.27460 0.13260 0.56940 0.03500
O 	O 	0.31313 0.64347 0.03088 -0.41800
O 	O 	0.34863 0.60798 0.03085 -0.41000
N 	N 	0.20736 0.64507 0.12482 -0.18900
C 	C 	0.32515 0.61995 0.04087 0.36500
N 	N 	0.22983 0.64086 0.10615 -0.12800
C 	C 	0.31024 0.60498 0.06683 -0.10900
C 	C 	0.28393 0.61638 0.07867 0.01600
H 	H 	0.27460 0.63260 0.06940 0.03400
O 	O 	0.18687 0.85653 0.03088 -0.41800
O 	O 	0.15137 0.89202 0.03085 -0.40900
N 	N 	0.29264 0.85493 0.12482 -0.18900
C 	C 	0.17485 0.88005 0.04087 0.36400
N 	N 	0.27017 0.85914 0.10615 -0.12800
C 	C 	0.18976 0.89502 0.06683 -0.10900
C 	C 	0.21607 0.88362 0.07867 0.01500
H 	H 	0.22540 0.86740 0.06940 0.03500
O 	O 	0.18687 0.35653 0.53088 -0.41700
O 	O 	0.15137 0.39202 0.53085 -0.40900
N 	N 	0.29264 0.35493 0.62482 -0.18900
C 	C 	0.17485 0.38005 0.54087 0.36400
N 	N 	0.27017 0.35914 0.60615 -0.12800
C 	C 	0.18976 0.39502 0.56683 -0.10900
C 	C 	0.21607 0.38362 0.57867 0.01500
H 	H 	0.22540 0.36740 0.56940 0.03500
O 	O 	0.68687 0.85653 0.53088 -0.41700
O 	O 	0.65137 0.89202 0.53085 -0.40800
N 	N 	0.79264 0.85493 0.62482 -0.18900
C 	C 	0.67485 0.88005 0.54087 0.36400
N 	N 	0.77017 0.85914 0.60615 -0.12800
C 	C 	0.68976 0.89502 0.56683 -0.10800
C 	C 	0.71607 0.88362 0.57867 0.01500
H 	H 	0.72540 0.86740 0.56940 0.03500
O 	O 	0.68687 0.35653 0.03088 -0.41800
O 	O 	0.65137 0.39202 0.03085 -0.41000
N 	N 	0.79264 0.35493 0.12482 -0.18900
C 	C 	0.67485 0.38005 0.04087 0.36500
N 	N 	0.77017 0.35914 0.10615 -0.12800
C 	C 	0.68976 0.39502 0.06683 -0.10900
C 	C 	0.71607 0.38362 0.07867 0.01600
H 	H 	0.72540 0.36740 0.06940 0.03400
O 	O 	0.85653 0.03088 0.18687 -0.41800
O 	O 	0.89202 0.03085 0.15137 -0.40900
N 	N 	0.85493 0.12482 0.29264 -0.18900
C 	C 	0.88005 0.04087 0.17485 0.36400
N 	N 	0.85914 0.10615 0.27017 -0.12800
C 	C 	0.89502 0.06683 0.18976 -0.10900
C 	C 	0.88362 0.07867 0.21607 0.01500
H 	H 	0.86740 0.06940 0.22540 0.03500
O 	O 	0.85653 0.53088 0.68687 -0.41700
O 	O 	0.89202 0.53085 0.65137 -0.40800
N 	N 	0.85493 0.62482 0.79264 -0.18900
C 	C 	0.88005 0.54087 0.67485 0.36400
N 	N 	0.85914 0.60615 0.77017 -0.12800
C 	C 	0.89502 0.56683 0.68976 -0.10800
C 	C 	0.88362 0.57867 0.71607 0.01500
H 	H 	0.86740 0.56940 0.72540 0.03500
O 	O 	0.35653 0.03088 0.68687 -0.41800
O 	O 	0.39202 0.03085 0.65137 -0.41000
N 	N 	0.35493 0.12482 0.79264 -0.18900
C 	C 	0.38005 0.04087 0.67485 0.36500
N 	N 	0.35914 0.10615 0.77017 -0.12800
C 	C 	0.39502 0.06683 0.68976 -0.10900
C 	C 	0.38362 0.07867 0.71607 0.01600
H 	H 	0.36740 0.06940 0.72540 0.03400
O 	O 	0.35653 0.53088 0.18687 -0.41700
O 	O 	0.39202 0.53085 0.15137 -0.40900
N 	N 	0.35493 0.62482 0.29264 -0.18900
C 	C 	0.38005 0.54087 0.17485 0.36400
N 	N 	0.35914 0.60615 0.27017 -0.12800
C 	C 	0.39502 0.56683 0.18976 -0.10900
C 	C 	0.38362 0.57867 0.21607 0.01500
H 	H 	0.36740 0.56940 0.22540 0.03500
O 	O 	0.14347 0.03088 0.81313 -0.41800
O 	O 	0.10798 0.03085 0.84863 -0.41000
N 	N 	0.14507 0.12482 0.70736 -0.18900
C 	C 	0.11995 0.04087 0.82515 0.36500
N 	N 	0.14086 0.10615 0.72983 -0.12800
C 	C 	0.10498 0.06683 0.81024 -0.11000
C 	C 	0.11638 0.07867 0.78393 0.01600
H 	H 	0.13260 0.06940 0.77460 0.03400
O 	O 	0.14347 0.53088 0.31313 -0.41700
O 	O 	0.10798 0.53085 0.34863 -0.40900
N 	N 	0.14507 0.62482 0.20736 -0.18900
C 	C 	0.11995 0.54087 0.32515 0.36500
N 	N 	0.14086 0.60615 0.22983 -0.12800
C 	C 	0.10498 0.56683 0.31024 -0.10900
C 	C 	0.11638 0.57867 0.28393 0.01600
H 	H 	0.13260 0.56940 0.27460 0.03500
O 	O 	0.64347 0.03088 0.31313 -0.41800
O 	O 	0.60798 0.03085 0.34863 -0.41000
N 	N 	0.64507 0.12482 0.20736 -0.18900
C 	C 	0.61995 0.04087 0.32515 0.36500
N 	N 	0.64086 0.10615 0.22983 -0.12800
C 	C 	0.60498 0.06683 0.31024 -0.10900
C 	C 	0.61638 0.07867 0.28393 0.01600
H 	H 	0.63260 0.06940 0.27460 0.03400
O 	O 	0.64347 0.53088 0.81313 -0.41700
O 	O 	0.60798 0.53085 0.84863 -0.40800
N 	N 	0.64507 0.62482 0.70736 -0.18900
C 	C 	0.61995 0.54087 0.82515 0.36400
N 	N 	0.64086 0.60615 0.72983 -0.12800
C 	C 	0.60498 0.56683 0.81024 -0.10900
C 	C 	0.61638 0.57867 0.78393 0.01500
H 	H 	0.63260 0.56940 0.77460 0.03500
O 	O 	0.14347 0.96912 0.18687 -0.41500
O 	O 	0.10798 0.96915 0.15137 -0.40700
N 	N 	0.14507 0.87518 0.29264 -0.18900
C 	C 	0.11995 0.95913 0.17485 0.36400
N 	N 	0.14086 0.89385 0.27017 -0.12800
C 	C 	0.10498 0.93317 0.18976 -0.10800
C 	C 	0.11638 0.92133 0.21607 0.01500
H 	H 	0.13260 0.93060 0.22540 0.03500
O 	O 	0.14347 0.46912 0.68687 -0.41700
O 	O 	0.10798 0.46915 0.65137 -0.40900
N 	N 	0.14507 0.37518 0.79264 -0.18900
C 	C 	0.11995 0.45913 0.67485 0.36500
N 	N 	0.14086 0.39385 0.77017 -0.12800
C 	C 	0.10498 0.43317 0.68976 -0.10900
C 	C 	0.11638 0.42133 0.71607 0.01500
H 	H 	0.13260 0.43060 0.72540 0.03500
O 	O 	0.64347 0.96912 0.68687 -0.41500
O 	O 	0.60798 0.96915 0.65137 -0.40600
N 	N 	0.64507 0.87518 0.79264 -0.18900
C 	C 	0.61995 0.95913 0.67485 0.36400
N 	N 	0.64086 0.89385 0.77017 -0.12800
C 	C 	0.60498 0.93317 0.68976 -0.10800
C 	C 	0.61638 0.92133 0.71607 0.01500
H 	H 	0.63260 0.93060 0.72540 0.03500
O 	O 	0.64347 0.46912 0.18687 -0.41700
O 	O 	0.60798 0.46915 0.15137 -0.40900
N 	N 	0.64507 0.37518 0.29264 -0.18900
C 	C 	0.61995 0.45913 0.17485 0.36400
N 	N 	0.64086 0.39385 0.27017 -0.12800
C 	C 	0.60498 0.43317 0.18976 -0.10900
C 	C 	0.61638 0.42133 0.21607 0.01500
H 	H 	0.63260 0.43060 0.22540 0.03500
O 	O 	0.85653 0.96912 0.81313 -0.41500
O 	O 	0.89202 0.96915 0.84863 -0.40600
N 	N 	0.85493 0.87518 0.70736 -0.18900
C 	C 	0.88005 0.95913 0.82515 0.36400
N 	N 	0.85914 0.89385 0.72983 -0.12800
C 	C 	0.89502 0.93317 0.81024 -0.10700
C 	C 	0.88362 0.92133 0.78393 0.01500
H 	H 	0.86740 0.93060 0.77460 0.03600
O 	O 	0.85653 0.46912 0.31313 -0.41700
O 	O 	0.89202 0.46915 0.34863 -0.40800
N 	N 	0.85493 0.37518 0.20736 -0.18900
C 	C 	0.88005 0.45913 0.32515 0.36400
N 	N 	0.85914 0.39385 0.22983 -0.12800
C 	C 	0.89502 0.43317 0.31024 -0.10800
C 	C 	0.88362 0.42133 0.28393 0.01500
H 	H 	0.86740 0.43060 0.27460 0.03500
O 	O 	0.35653 0.96912 0.31313 -0.41500
O 	O 	0.39202 0.96915 0.34863 -0.40600
N 	N 	0.35493 0.87518 0.20736 -0.18900
C 	C 	0.38005 0.95913 0.32515 0.36400
N 	N 	0.35914 0.89385 0.22983 -0.12800
C 	C 	0.39502 0.93317 0.31024 -0.10800
C 	C 	0.38362 0.92133 0.28393 0.01500
H 	H 	0.36740 0.93060 0.27460 0.03500
O 	O 	0.35653 0.46912 0.81313 -0.41700
O 	O 	0.39202 0.46915 0.84863 -0.40800
N 	N 	0.35493 0.37518 0.70736 -0.18900
C 	C 	0.38005 0.45913 0.82515 0.36400
N 	N 	0.35914 0.39385 0.72983 -0.12800
C 	C 	0.39502 0.43317 0.81024 -0.10900
C 	C 	0.38362 0.42133 0.78393 0.01500
H 	H 	0.36740 0.43060 0.77460 0.03500
O 	O 	0.03088 0.81313 0.14347 -0.41800
O 	O 	0.03085 0.84863 0.10798 -0.41000
N 	N 	0.12482 0.70736 0.14507 -0.18900
C 	C 	0.04087 0.82515 0.11995 0.36500
N 	N 	0.10615 0.72983 0.14086 -0.12800
C 	C 	0.06683 0.81024 0.10498 -0.11000
C 	C 	0.07867 0.78393 0.11638 0.01600
H 	H 	0.06940 0.77460 0.13260 0.03400
O 	O 	0.03088 0.31313 0.64347 -0.41800
O 	O 	0.03085 0.34863 0.60798 -0.41000
N 	N 	0.12482 0.20736 0.64507 -0.18900
C 	C 	0.04087 0.32515 0.61995 0.36500
N 	N 	0.10615 0.22983 0.64086 -0.12800
C 	C 	0.06683 0.31024 0.60498 -0.10900
C 	C 	0.07867 0.28393 0.61638 0.01600
H 	H 	0.06940 0.27460 0.63260 0.03400
O 	O 	0.53088 0.81313 0.64347 -0.41700
O 	O 	0.53085 0.84863 0.60798 -0.40800
N 	N 	0.62482 0.70736 0.64507 -0.18900
C 	C 	0.54087 0.82515 0.61995 0.36400
N 	N 	0.60615 0.72983 0.64086 -0.12800
C 	C 	0.56683 0.81024 0.60498 -0.10900
C 	C 	0.57867 0.78393 0.61638 0.01500
H 	H 	0.56940 0.77460 0.63260 0.03500
O 	O 	0.53088 0.31313 0.14347 -0.41700
O 	O 	0.53085 0.34863 0.10798 -0.40900
N 	N 	0.62482 0.20736 0.14507 -0.18900
C 	C 	0.54087 0.32515 0.11995 0.36500
N 	N 	0.60615 0.22983 0.14086 -0.12800
C 	C 	0.56683 0.31024 0.10498 -0.10900
C 	C 	0.57867 0.28393 0.11638 0.01600
H 	H 	0.56940 0.27460 0.13260 0.03500
O 	O 	0.03088 0.18687 0.85653 -0.41800
O 	O 	0.03085 0.15137 0.89202 -0.40900
N 	N 	0.12482 0.29264 0.85493 -0.18900
C 	C 	0.04087 0.17485 0.88005 0.36400
N 	N 	0.10615 0.27017 0.85914 -0.12800
C 	C 	0.06683 0.18976 0.89502 -0.10900
C 	C 	0.07867 0.21607 0.88362 0.01500
H 	H 	0.06940 0.22540 0.86740 0.03500
O 	O 	0.03088 0.68687 0.35653 -0.41800
O 	O 	0.03085 0.65137 0.39202 -0.41000
N 	N 	0.12482 0.79264 0.35493 -0.18900
C 	C 	0.04087 0.67485 0.38005 0.36500
N 	N 	0.10615 0.77017 0.35914 -0.12800
C 	C 	0.06683 0.68976 0.39502 -0.10900
C 	C 	0.07867 0.71607 0.38362 0.01600
H 	H 	0.06940 0.72540 0.36740 0.03400
O 	O 	0.53088 0.18687 0.35653 -0.41700
O 	O 	0.53085 0.15137 0.39202 -0.40900
N 	N 	0.62482 0.29264 0.35493 -0.18900
C 	C 	0.54087 0.17485 0.38005 0.36400
N 	N 	0.60615 0.27017 0.35914 -0.12800
C 	C 	0.56683 0.18976 0.39502 -0.10900
C 	C 	0.57867 0.21607 0.38362 0.01500
H 	H 	0.56940 0.22540 0.36740 0.03500
O 	O 	0.53088 0.68687 0.85653 -0.41700
O 	O 	0.53085 0.65137 0.89202 -0.40800
N 	N 	0.62482 0.79264 0.85493 -0.18900
C 	C 	0.54087 0.67485 0.88005 0.36400
N 	N 	0.60615 0.77017 0.85914 -0.12800
C 	C 	0.56683 0.68976 0.89502 -0.10800
C 	C 	0.57867 0.71607 0.88362 0.01500
H 	H 	0.56940 0.72540 0.86740 0.03500
O 	O 	0.96912 0.81313 0.85653 -0.41500
O 	O 	0.96915 0.84863 0.89202 -0.40600
N 	N 	0.87518 0.70736 0.85493 -0.18900
C 	C 	0.95913 0.82515 0.88005 0.36400
N 	N 	0.89385 0.72983 0.85914 -0.12800
C 	C 	0.93317 0.81024 0.89502 -0.10700
C 	C 	0.92133 0.78393 0.88362 0.01500
H 	H 	0.93060 0.77460 0.86740 0.03600
O 	O 	0.96912 0.31313 0.35653 -0.41500
O 	O 	0.96915 0.34863 0.39202 -0.40600
N 	N 	0.87518 0.20736 0.35493 -0.18900
C 	C 	0.95913 0.32515 0.38005 0.36400
N 	N 	0.89385 0.22983 0.35914 -0.12800
C 	C 	0.93317 0.31024 0.39502 -0.10800
C 	C 	0.92133 0.28393 0.38362 0.01500
H 	H 	0.93060 0.27460 0.36740 0.03500
O 	O 	0.46912 0.81313 0.35653 -0.41700
O 	O 	0.46915 0.84863 0.39202 -0.40800
N 	N 	0.37518 0.70736 0.35493 -0.18900
C 	C 	0.45913 0.82515 0.38005 0.36400
N 	N 	0.39385 0.72983 0.35914 -0.12800
C 	C 	0.43317 0.81024 0.39502 -0.10900
C 	C 	0.42133 0.78393 0.38362 0.01500
H 	H 	0.43060 0.77460 0.36740 0.03500
O 	O 	0.46912 0.31313 0.85653 -0.41700
O 	O 	0.46915 0.34863 0.89202 -0.40800
N 	N 	0.37518 0.20736 0.85493 -0.18900
C 	C 	0.45913 0.32515 0.88005 0.36400
N 	N 	0.39385 0.22983 0.85914 -0.12800
C 	C 	0.43317 0.31024 0.89502 -0.10800
C 	C 	0.42133 0.28393 0.88362 0.01500
H 	H 	0.43060 0.27460 0.86740 0.03500
O 	O 	0.96912 0.18687 0.14347 -0.41500
O 	O 	0.96915 0.15137 0.10798 -0.40700
N 	N 	0.87518 0.29264 0.14507 -0.18900
C 	C 	0.95913 0.17485 0.11995 0.36400
N 	N 	0.89385 0.27017 0.14086 -0.12800
C 	C 	0.93317 0.18976 0.10498 -0.10800
C 	C 	0.92133 0.21607 0.11638 0.01500
H 	H 	0.93060 0.22540 0.13260 0.03500
O 	O 	0.96912 0.68687 0.64347 -0.41500
O 	O 	0.96915 0.65137 0.60798 -0.40600
N 	N 	0.87518 0.79264 0.64507 -0.18900
C 	C 	0.95913 0.67485 0.61995 0.36400
N 	N 	0.89385 0.77017 0.64086 -0.12800
C 	C 	0.93317 0.68976 0.60498 -0.10800
C 	C 	0.92133 0.71607 0.61638 0.01500
H 	H 	0.93060 0.72540 0.63260 0.03500
O 	O 	0.46912 0.18687 0.64347 -0.41700
O 	O 	0.46915 0.15137 0.60798 -0.40900
N 	N 	0.37518 0.29264 0.64507 -0.18900
C 	C 	0.45913 0.17485 0.61995 0.36400
N 	N 	0.39385 0.27017 0.64086 -0.12800
C 	C 	0.43317 0.18976 0.60498 -0.10900
C 	C 	0.42133 0.21607 0.61638 0.01500
H 	H 	0.43060 0.22540 0.63260 0.03500
O 	O 	0.46912 0.68687 0.14347 -0.41700
O 	O 	0.46915 0.65137 0.10798 -0.40900
N 	N 	0.37518 0.79264 0.14507 -0.18900
C 	C 	0.45913 0.67485 0.11995 0.36500
N 	N 	0.39385 0.77017 0.14086 -0.12800
C 	C 	0.43317 0.68976 0.10498 -0.10900
C 	C 	0.42133 0.71607 0.11638 0.01500
H 	H 	0.43060 0.72540 0.13260 0.03500
Cu	Cu	0.16838 0.16838 -0.00000 0.90000
Cu	Cu	0.12647 0.12647 -0.00000 0.90500
Cu	Cu	0.16838 0.66838 0.50000 0.90200
Cu	Cu	0.12647 0.62647 0.50000 0.90700
Cu	Cu	0.66838 0.16838 0.50000 0.90200
Cu	Cu	0.62647 0.12647 0.50000 0.90700
Cu	Cu	0.66838 0.66838 -0.00000 0.90000
Cu	Cu	0.62647 0.62647 -0.00000 0.90500
Cu	Cu	0.83162 0.83162 -0.00000 0.90000
Cu	Cu	0.87353 0.87353 -0.00000 0.90500
Cu	Cu	0.83162 0.33162 0.50000 0.90200
Cu	Cu	0.87353 0.37353 0.50000 0.90700
Cu	Cu	0.33162 0.83162 0.50000 0.90200
Cu	Cu	0.37353 0.87353 0.50000 0.90700
Cu	Cu	0.33162 0.33162 -0.00000 0.90000
Cu	Cu	0.37353 0.37353 -0.00000 0.90500
Cu	Cu	0.83162 0.16838 -0.00000 0.90000
Cu	Cu	0.87353 0.12647 -0.00000 0.90500
Cu	Cu	0.83162 0.66838 0.50000 0.90200
Cu	Cu	0.87353 0.62647 0.50000 0.90700
Cu	Cu	0.33162 0.16838 0.50000 0.90200
Cu	Cu	0.37353 0.12647 0.50000 0.90700
Cu	Cu	0.33162 0.66838 -0.00000 0.90000
Cu	Cu	0.37353 0.62647 -0.00000 0.90500
Cu	Cu	0.16838 0.83162 -0.00000 0.90000
Cu	Cu	0.12647 0.87353 -0.00000 0.90500
Cu	Cu	0.16838 0.33162 0.50000 0.90200
Cu	Cu	0.12647 0.37353 0.50000 0.90700
Cu	Cu	0.66838 0.83162 0.50000 0.90200
Cu	Cu	0.62647 0.87353 0.50000 0.90700
Cu	Cu	0.66838 0.33162 -0.00000 0.90000
Cu	Cu	0.62647 0.37353 -0.00000 0.90500
Cu	Cu	-0.00000 0.16838 0.16838 0.90000
Cu	Cu	0.00000 0.12647 0.12647 0.90500
Cu	Cu	-0.00000 0.66838 0.66838 0.90000
Cu	Cu	-0.00000 0.62647 0.62647 0.90500
Cu	Cu	0.50000 0.16838 0.66838 0.90200
Cu	Cu	0.50000 0.12647 0.62647 0.90700
Cu	Cu	0.50000 0.66838 0.16838 0.90200
Cu	Cu	0.50000 0.62647 0.12647 0.90700
Cu	Cu	-0.00000 0.83162 0.83162 0.90000
Cu	Cu	0.00000 0.87353 0.87353 0.90500
Cu	Cu	-0.00000 0.33162 0.33162 0.90000
Cu	Cu	-0.00000 0.37353 0.37353 0.90500
Cu	Cu	0.50000 0.83162 0.33162 0.90200
Cu	Cu	0.50000 0.87353 0.37353 0.90700
Cu	Cu	0.50000 0.33162 0.83162 0.90200
Cu	Cu	0.50000 0.37353 0.87353 0.90700
Cu	Cu	-0.00000 0.83162 0.16838 0.90000
Cu	Cu	-0.00000 0.87353 0.12647 0.90500
Cu	Cu	-0.00000 0.33162 0.66838 0.90000
Cu	Cu	-0.00000 0.37353 0.62647 0.90500
Cu	Cu	0.50000 0.83162 0.66838 0.90200
Cu	Cu	0.50000 0.87353 0.62647 0.90700
Cu	Cu	0.50000 0.33162 0.16838 0.90200
Cu	Cu	0.50000 0.37353 0.12647 0.90700
Cu	Cu	-0.00000 0.16838 0.83162 0.90000
Cu	Cu	-0.00000 0.12647 0.87353 0.90500
Cu	Cu	-0.00000 0.66838 0.33162 0.90000
Cu	Cu	-0.00000 0.62647 0.37353 0.90500
Cu	Cu	0.50000 0.16838 0.33162 0.90200
Cu	Cu	0.50000 0.12647 0.37353 0.90700
Cu	Cu	0.50000 0.66838 0.83162 0.90200
Cu	Cu	0.50000 0.62647 0.87353 0.90700
Cu	Cu	0.16838 -0.00000 0.16838 0.90000
Cu	Cu	0.12647 0.00000 0.12647 0.90500
Cu	Cu	0.16838 0.50000 0.66838 0.90200
Cu	Cu	0.12647 0.50000 0.62647 0.90700
Cu	Cu	0.66838 -0.00000 0.66838 0.90000
Cu	Cu	0.62647 -0.00000 0.62647 0.90500
Cu	Cu	0.66838 0.50000 0.16838 0.90200
Cu	Cu	0.62647 0.50000 0.12647 0.90700
Cu	Cu	0.83162 0.00000 0.83162 0.90000
Cu	Cu	0.87353 0.00000 0.87353 0.90500
Cu	Cu	0.83162 0.50000 0.33162 0.90200
Cu	Cu	0.87353 0.50000 0.37353 0.90700
Cu	Cu	0.33162 -0.00000 0.33162 0.90000
Cu	Cu	0.37353 -0.00000 0.37353 0.90500
Cu	Cu	0.33162 0.50000 0.83162 0.90200
Cu	Cu	0.37353 0.50000 0.87353 0.90700
Cu	Cu	0.16838 0.00000 0.83162 0.90000
Cu	Cu	0.12647 0.00000 0.87353 0.90500
Cu	Cu	0.16838 0.50000 0.33162 0.90200
Cu	Cu	0.12647 0.50000 0.37353 0.90700
Cu	Cu	0.66838 -0.00000 0.33162 0.90000
Cu	Cu	0.62647 -0.00000 0.37353 0.90500
Cu	Cu	0.66838 0.50000 0.83162 0.90200
Cu	Cu	0.62647 0.50000 0.87353 0.90700
Cu	Cu	0.83162 -0.00000 0.16838 0.90000
Cu	Cu	0.87353 0.00000 0.12647 0.90500
Cu	Cu	0.83162 0.50000 0.66838 0.90200
Cu	Cu	0.87353 0.50000 0.62647 0.90700
Cu	Cu	0.33162 -0.00000 0.66838 0.90000
Cu	Cu	0.37353 -0.00000 0.62647 0.90500
Cu	Cu	0.33162 0.50000 0.16838 0.90200
Cu	Cu	0.37353 0.50000 0.12647 0.90700
Cu	Cu	0.17617 0.32383 0.87714 0.81100
Cu	Cu	0.17617 0.82383 0.37714 0.81100
Cu	Cu	0.82383 0.67617 0.87714 0.81100
Cu	Cu	0.82383 0.17617 0.37714 0.81100
Cu	Cu	0.32383 0.17617 0.87714 0.81100
Cu	Cu	0.82383 0.32383 0.12286 0.81100
Cu	Cu	0.82383 0.82383 0.62286 0.81100
Cu	Cu	0.32383 0.32383 0.62286 0.81100
Cu	Cu	0.17617 0.67617 0.12286 0.81100
Cu	Cu	0.17617 0.17617 0.62286 0.81100
Cu	Cu	0.87714 0.17617 0.32383 0.81100
Cu	Cu	0.37714 0.17617 0.82383 0.81100
Cu	Cu	0.87714 0.82383 0.67617 0.81100
Cu	Cu	0.87714 0.32383 0.17617 0.81100
Cu	Cu	0.37714 0.82383 0.17617 0.81100
Cu	Cu	0.12286 0.82383 0.32383 0.81100
Cu	Cu	0.62286 0.82383 0.82383 0.81100
Cu	Cu	0.62286 0.32383 0.32383 0.81100
Cu	Cu	0.12286 0.17617 0.67617 0.81100
Cu	Cu	0.62286 0.17617 0.17617 0.81100
Cu	Cu	0.32383 0.87714 0.17617 0.81100
Cu	Cu	0.32383 0.37714 0.67617 0.81100
Cu	Cu	0.67617 0.87714 0.82383 0.81100
Cu	Cu	0.67617 0.37714 0.32383 0.81100
Cu	Cu	0.17617 0.87714 0.32383 0.81100
Cu	Cu	0.32383 0.12286 0.82383 0.81100
Cu	Cu	0.32383 0.62286 0.32383 0.81100
Cu	Cu	0.67617 0.12286 0.17617 0.81100
Cu	Cu	0.67617 0.62286 0.67617 0.81100
Cu	Cu	0.17617 0.62286 0.17617 0.81100
Cu	Cu	0.32383 0.17617 0.12286 0.81100
Cu	Cu	0.32383 0.67617 0.62286 0.81100
Cu	Cu	0.67617 0.82383 0.12286 0.81100
Cu	Cu	0.67617 0.32383 0.62286 0.81100
Cu	Cu	0.17617 0.32383 0.12286 0.81100
Cu	Cu	0.32383 0.82383 0.87714 0.81200
Cu	Cu	0.32383 0.32383 0.37714 0.81100
Cu	Cu	0.67617 0.17617 0.87714 0.81100
Cu	Cu	0.67617 0.67617 0.37714 0.81100
Cu	Cu	0.17617 0.17617 0.37714 0.81100
Cu	Cu	0.17617 0.87714 0.67617 0.81100
Cu	Cu	0.17617 0.37714 0.17617 0.81100
Cu	Cu	0.82383 0.87714 0.32383 0.81200
Cu	Cu	0.82383 0.37714 0.82383 0.81100
Cu	Cu	0.32383 0.37714 0.32383 0.81100
Cu	Cu	0.82383 0.12286 0.67617 0.81100
Cu	Cu	0.82383 0.62286 0.17617 0.81100
Cu	Cu	0.32383 0.12286 0.17617 0.81100
Cu	Cu	0.17617 0.12286 0.32383 0.81100
Cu	Cu	0.17617 0.62286 0.82383 0.81100
Cu	Cu	0.87714 0.32383 0.82383 0.81200
Cu	Cu	0.37714 0.32383 0.32383 0.81100
Cu	Cu	0.87714 0.67617 0.17617 0.81100
Cu	Cu	0.37714 0.67617 0.67617 0.81100
Cu	Cu	0.37714 0.17617 0.17617 0.81100
Cu	Cu	0.12286 0.32383 0.17617 0.81100
Cu	Cu	0.62286 0.32383 0.67617 0.81100
Cu	Cu	0.12286 0.67617 0.82383 0.81100
Cu	Cu	0.12286 0.17617 0.32383 0.81100
Cu	Cu	0.62286 0.67617 0.32383 0.81100
Cu	Cu	0.82383 0.67617 0.12286 0.81100
Cu	Cu	0.82383 0.17617 0.62286 0.81100
Cu	Cu	0.17617 0.82383 0.62286 0.81100
Cu	Cu	0.17617 0.67617 0.87714 0.81100
Cu	Cu	0.82383 0.32383 0.87714 0.81200
Cu	Cu	0.82383 0.82383 0.37714 0.81100
Cu	Cu	0.12286 0.82383 0.67617 0.81100
Cu	Cu	0.62286 0.82383 0.17617 0.81100
Cu	Cu	0.62286 0.17617 0.82383 0.81100
Cu	Cu	0.87714 0.17617 0.67617 0.81100
Cu	Cu	0.87714 0.82383 0.32383 0.81200
Cu	Cu	0.37714 0.82383 0.82383 0.81100
Cu	Cu	0.67617 0.12286 0.82383 0.81100
Cu	Cu	0.67617 0.62286 0.32383 0.81100
Cu	Cu	0.32383 0.62286 0.67617 0.81100
Cu	Cu	0.67617 0.87714 0.17617 0.81100
Cu	Cu	0.67617 0.37714 0.67617 0.81100
Cu	Cu	0.32383 0.87714 0.82383 0.81200
Cu	Cu	0.67617 0.82383 0.87714 0.81100
Cu	Cu	0.67617 0.32383 0.37714 0.81100
Cu	Cu	0.32383 0.67617 0.37714 0.81100
Cu	Cu	0.67617 0.17617 0.12286 0.81100
Cu	Cu	0.67617 0.67617 0.62286 0.81100
Cu	Cu	0.32383 0.82383 0.12286 0.81100
Cu	Cu	0.82383 0.12286 0.32383 0.81100
Cu	Cu	0.82383 0.62286 0.82383 0.81100
Cu	Cu	0.17617 0.12286 0.67617 0.81100
Cu	Cu	0.17617 0.37714 0.82383 0.81100
Cu	Cu	0.82383 0.87714 0.67617 0.81100
Cu	Cu	0.82383 0.37714 0.17617 0.81100
Cu	Cu	0.12286 0.67617 0.17617 0.81100
Cu	Cu	0.62286 0.67617 0.67617 0.81100
Cu	Cu	0.12286 0.32383 0.82383 0.81100
Cu	Cu	0.87714 0.67617 0.82383 0.81100
Cu	Cu	0.37714 0.67617 0.32383 0.81100
Cu	Cu	0.37714 0.32383 0.67617 0.81100
O 	O 	0.16519 0.33481 0.83481 -0.59200
O 	O 	0.83481 0.66519 0.83481 -0.59200
O 	O 	0.83481 0.16519 0.33481 -0.59200
O 	O 	0.33481 0.16519 0.83481 -0.59200
O 	O 	0.83481 0.33481 0.16519 -0.59200
O 	O 	0.33481 0.33481 0.66519 -0.59200
O 	O 	0.16519 0.66519 0.16519 -0.59300
O 	O 	0.33481 0.66519 0.33481 -0.59200
O 	O 	0.83481 0.83481 0.66519 -0.59200
O 	O 	0.33481 0.83481 0.16519 -0.59200
O 	O 	0.16519 0.83481 0.33481 -0.59200
O 	O 	0.16519 0.16519 0.66519 -0.59300
O 	O 	0.66519 0.83481 0.83481 -0.59200
O 	O 	0.66519 0.33481 0.33481 -0.59200
O 	O 	0.66519 0.16519 0.16519 -0.59300
O 	O 	0.66519 0.66519 0.66519 -0.59200
O 	O 	0.33481 0.16519 0.16519 -0.59200
O 	O 	0.33481 0.66519 0.66519 -0.59200
O 	O 	0.66519 0.83481 0.16519 -0.59200
O 	O 	0.66519 0.33481 0.66519 -0.59200
O 	O 	0.16519 0.33481 0.16519 -0.59200
O 	O 	0.33481 0.83481 0.83481 -0.59200
O 	O 	0.33481 0.33481 0.33481 -0.59200
O 	O 	0.66519 0.16519 0.83481 -0.59200
O 	O 	0.66519 0.66519 0.33481 -0.59200
O 	O 	0.16519 0.16519 0.33481 -0.59200
O 	O 	0.16519 0.83481 0.66519 -0.59200
O 	O 	0.83481 0.83481 0.33481 -0.59200
O 	O 	0.83481 0.16519 0.66519 -0.59200
O 	O 	0.83481 0.33481 0.83481 -0.59200
O 	O 	0.83481 0.66519 0.16519 -0.59200
O 	O 	0.16519 0.66519 0.83481 -0.59200
C 	C 	0.10395 0.22840 0.89605 -0.05600
C 	C 	0.08002 0.17697 0.91998 0.04600
H 	H 	0.07200 0.15950 0.92800 0.04500
C 	C 	0.11683 0.25680 0.88317 0.12000
C 	C 	0.10395 0.72840 0.39605 -0.05600
C 	C 	0.08002 0.67697 0.41998 0.04600
H 	H 	0.07200 0.65950 0.42800 0.04500
C 	C 	0.11683 0.75680 0.38317 0.12000
C 	C 	0.60395 0.22840 0.39605 -0.05600
C 	C 	0.58002 0.17697 0.41998 0.04600
H 	H 	0.57200 0.15950 0.42800 0.04500
C 	C 	0.61683 0.25680 0.38317 0.12000
C 	C 	0.60395 0.72840 0.89605 -0.05600
C 	C 	0.58002 0.67697 0.91998 0.04600
H 	H 	0.57200 0.65950 0.92800 0.04600
C 	C 	0.61683 0.75680 0.88317 0.12000
C 	C 	0.89605 0.77160 0.89605 -0.05500
C 	C 	0.91998 0.82303 0.91998 0.04500
H 	H 	0.92800 0.84050 0.92800 0.04700
C 	C 	0.88317 0.74320 0.88317 0.12000
C 	C 	0.89605 0.27160 0.39605 -0.05600
C 	C 	0.91998 0.32303 0.41998 0.04600
H 	H 	0.92800 0.34050 0.42800 0.04600
C 	C 	0.88317 0.24320 0.38317 0.12000
C 	C 	0.39605 0.77160 0.39605 -0.05600
C 	C 	0.41998 0.82303 0.41998 0.04600
H 	H 	0.42800 0.84050 0.42800 0.04500
C 	C 	0.38317 0.74320 0.38317 0.12000
C 	C 	0.39605 0.27160 0.89605 -0.05600
C 	C 	0.41998 0.32303 0.91998 0.04600
H 	H 	0.42800 0.34050 0.92800 0.04600
C 	C 	0.38317 0.24320 0.88317 0.12000
C 	C 	0.89605 0.22840 0.10395 -0.05600
C 	C 	0.91998 0.17697 0.08002 0.04600
H 	H 	0.92800 0.15950 0.07200 0.04500
C 	C 	0.88317 0.25680 0.11683 0.12000
C 	C 	0.89605 0.72840 0.60395 -0.05600
C 	C 	0.91998 0.67697 0.58002 0.04600
H 	H 	0.92800 0.65950 0.57200 0.04600
C 	C 	0.88317 0.75680 0.61683 0.12000
C 	C 	0.39605 0.22840 0.60395 -0.05600
C 	C 	0.41998 0.17697 0.58002 0.04600
H 	H 	0.42800 0.15950 0.57200 0.04500
C 	C 	0.38317 0.25680 0.61683 0.12000
C 	C 	0.39605 0.72840 0.10395 -0.05600
C 	C 	0.41998 0.67697 0.08002 0.04600
H 	H 	0.42800 0.65950 0.07200 0.04500
C 	C 	0.38317 0.75680 0.11683 0.12000
C 	C 	0.10395 0.77160 0.10395 -0.05700
C 	C 	0.08002 0.82303 0.08002 0.04600
H 	H 	0.07200 0.84050 0.07200 0.04500
C 	C 	0.11683 0.74320 0.11683 0.12000
C 	C 	0.10395 0.27160 0.60395 -0.05700
C 	C 	0.08002 0.32303 0.58002 0.04600
H 	H 	0.07200 0.34050 0.57200 0.04500
C 	C 	0.11683 0.24320 0.61683 0.12000
C 	C 	0.60395 0.77160 0.60395 -0.05600
C 	C 	0.58002 0.82303 0.58002 0.04600
H 	H 	0.57200 0.84050 0.57200 0.04500
C 	C 	0.61683 0.74320 0.61683 0.12000
C 	C 	0.60395 0.27160 0.10395 -0.05700
C 	C 	0.58002 0.32303 0.08002 0.04600
H 	H 	0.57200 0.34050 0.07200 0.04500
C 	C 	0.61683 0.24320 0.11683 0.12000
C 	C 	0.89605 0.10395 0.22840 -0.05600
C 	C 	0.91998 0.08002 0.17697 0.04600
H 	H 	0.92800 0.07200 0.15950 0.04500
C 	C 	0.88317 0.11683 0.25680 0.12000
C 	C 	0.89605 0.60395 0.72840 -0.05600
C 	C 	0.91998 0.58002 0.67697 0.04600
H 	H 	0.92800 0.57200 0.65950 0.04600
C 	C 	0.88317 0.61683 0.75680 0.12000
C 	C 	0.39605 0.10395 0.72840 -0.05600
C 	C 	0.41998 0.08002 0.67697 0.04600
H 	H 	0.42800 0.07200 0.65950 0.04500
C 	C 	0.38317 0.11683 0.75680 0.12000
C 	C 	0.39605 0.60395 0.22840 -0.05600
C 	C 	0.41998 0.58002 0.17697 0.04600
H 	H 	0.42800 0.57200 0.15950 0.04500
C 	C 	0.38317 0.61683 0.25680 0.12000
C 	C 	0.89605 0.89605 0.77160 -0.05500
C 	C 	0.91998 0.91998 0.82303 0.04500
H 	H 	0.92800 0.92800 0.84050 0.04700
C 	C 	0.88317 0.88317 0.74320 0.12000
C 	C 	0.89605 0.39605 0.27160 -0.05600
C 	C 	0.91998 0.41998 0.32303 0.04600
H 	H 	0.92800 0.42800 0.34050 0.04600
C 	C 	0.88317 0.38317 0.24320 0.12000
C 	C 	0.39605 0.89605 0.27160 -0.05600
C 	C 	0.41998 0.91998 0.32303 0.04600
H 	H 	0.42800 0.92800 0.34050 0.04600
C 	C 	0.38317 0.88317 0.24320 0.12000
C 	C 	0.39605 0.39605 0.77160 -0.05600
C 	C 	0.41998 0.41998 0.82303 0.04600
H 	H 	0.42800 0.42800 0.84050 0.04500
C 	C 	0.38317 0.38317 0.74320 0.12000
C 	C 	0.10395 0.89605 0.22840 -0.05600
C 	C 	0.08002 0.91998 0.17697 0.04600
H 	H 	0.07200 0.92800 0.15950 0.04500
C 	C 	0.11683 0.88317 0.25680 0.12000
C 	C 	0.10395 0.39605 0.72840 -0.05600
C 	C 	0.08002 0.41998 0.67697 0.04600
H 	H 	0.07200 0.42800 0.65950 0.04500
C 	C 	0.11683 0.38317 0.75680 0.12000
C 	C 	0.60395 0.89605 0.72840 -0.05600
C 	C 	0.58002 0.91998 0.67697 0.04600
H 	H 	0.57200 0.92800 0.65950 0.04600
C 	C 	0.61683 0.88317 0.75680 0.12000
C 	C 	0.60395 0.39605 0.22840 -0.05600
C 	C 	0.58002 0.41998 0.17697 0.04600
H 	H 	0.57200 0.42800 0.15950 0.04500
C 	C 	0.61683 0.38317 0.25680 0.12000
C 	C 	0.10395 0.10395 0.77160 -0.05700
C 	C 	0.08002 0.08002 0.82303 0.04600
H 	H 	0.07200 0.07200 0.84050 0.04500
C 	C 	0.11683 0.11683 0.74320 0.12000
C 	C 	0.10395 0.60395 0.27160 -0.05700
C 	C 	0.08002 0.58002 0.32303 0.04600
H 	H 	0.07200 0.57200 0.34050 0.04500
C 	C 	0.11683 0.61683 0.24320 0.12000
C 	C 	0.60395 0.10395 0.27160 -0.05700
C 	C 	0.58002 0.08002 0.32303 0.04600
H 	H 	0.57200 0.07200 0.34050 0.04500
C 	C 	0.61683 0.11683 0.24320 0.12000
C 	C 	0.60395 0.60395 0.77160 -0.05600
C 	C 	0.58002 0.58002 0.82303 0.04600
H 	H 	0.57200 0.57200 0.84050 0.04500
C 	C 	0.61683 0.61683 0.74320 0.12000
C 	C 	0.22840 0.89605 0.10395 -0.05600
C 	C 	0.17697 0.91998 0.08002 0.04600
H 	H 	0.15950 0.92800 0.07200 0.04500
C 	C 	0.25680 0.88317 0.11683 0.12000
C 	C 	0.22840 0.39605 0.60395 -0.05600
C 	C 	0.17697 0.41998 0.58002 0.04600
H 	H 	0.15950 0.42800 0.57200 0.04500
C 	C 	0.25680 0.38317 0.61683 0.12000
C 	C 	0.72840 0.89605 0.60395 -0.05600
C 	C 	0.67697 0.91998 0.58002 0.04600
H 	H 	0.65950 0.92800 0.57200 0.04600
C 	C 	0.75680 0.88317 0.61683 0.12000
C 	C 	0.72840 0.39605 0.10395 -0.05600
C 	C 	0.67697 0.41998 0.08002 0.04600
H 	H 	0.65950 0.42800 0.07200 0.04500
C 	C 	0.75680 0.38317 0.11683 0.12000
C 	C 	0.77160 0.89605 0.89605 -0.05500
C 	C 	0.82303 0.91998 0.91998 0.04500
H 	H 	0.84050 0.92800 0.92800 0.04700
C 	C 	0.74320 0.88317 0.88317 0.12000
C 	C 	0.77160 0.39605 0.39605 -0.05600
C 	C 	0.82303 0.41998 0.41998 0.04600
H 	H 	0.84050 0.42800 0.42800 0.04500
C 	C 	0.74320 0.38317 0.38317 0.12000
C 	C 	0.27160 0.89605 0.39605 -0.05600
C 	C 	0.32303 0.91998 0.41998 0.04600
H 	H 	0.34050 0.92800 0.42800 0.04600
C 	C 	0.24320 0.88317 0.38317 0.12000
C 	C 	0.27160 0.39605 0.89605 -0.05600
C 	C 	0.32303 0.41998 0.91998 0.04600
H 	H 	0.34050 0.42800 0.92800 0.04600
C 	C 	0.24320 0.38317 0.88317 0.12000
C 	C 	0.22840 0.10395 0.89605 -0.05600
C 	C 	0.17697 0.08002 0.91998 0.04600
H 	H 	0.15950 0.07200 0.92800 0.04500
C 	C 	0.25680 0.11683 0.88317 0.12000
C 	C 	0.22840 0.60395 0.39605 -0.05600
C 	C 	0.17697 0.58002 0.41998 0.04600
H 	H 	0.15950 0.57200 0.42800 0.04500
C 	C 	0.25680 0.61683 0.38317 0.12000
C 	C 	0.72840 0.10395 0.39605 -0.05600
C 	C 	0.67697 0.08002 0.41998 0.04600
H 	H 	0.65950 0.07200 0.42800 0.04500
C 	C 	0.75680 0.11683 0.38317 0.12000
C 	C 	0.72840 0.60395 0.89605 -0.05600
C 	C 	0.67697 0.58002 0.91998 0.04600
H 	H 	0.65950 0.57200 0.92800 0.04600
C 	C 	0.75680 0.61683 0.88317 0.12000
C 	C 	0.77160 0.10395 0.10395 -0.05700
C 	C 	0.82303 0.08002 0.08002 0.04600
H 	H 	0.84050 0.07200 0.07200 0.04500
C 	C 	0.74320 0.11683 0.11683 0.12000
C 	C 	0.77160 0.60395 0.60395 -0.05600
C 	C 	0.82303 0.58002 0.58002 0.04600
H 	H 	0.84050 0.57200 0.57200 0.04500
C 	C 	0.74320 0.61683 0.61683 0.12000
C 	C 	0.27160 0.10395 0.60395 -0.05700
C 	C 	0.32303 0.08002 0.58002 0.04600
H 	H 	0.34050 0.07200 0.57200 0.04500
C 	C 	0.24320 0.11683 0.61683 0.12000
C 	C 	0.27160 0.60395 0.10395 -0.05700
C 	C 	0.32303 0.58002 0.08002 0.04600
H 	H 	0.34050 0.57200 0.07200 0.04500
C 	C 	0.24320 0.61683 0.11683 0.12000
C 	C 	0.22840 0.10395 0.10395 -0.05700
C 	C 	0.17697 0.08002 0.08002 0.04700
H 	H 	0.15950 0.07200 0.07200 0.04400
C 	C 	0.25680 0.11683 0.11683 0.12000
C 	C 	0.22840 0.60395 0.60395 -0.05600
C 	C 	0.17697 0.58002 0.58002 0.04600
H 	H 	0.15950 0.57200 0.57200 0.04500
C 	C 	0.25680 0.61683 0.61683 0.12000
C 	C 	0.72840 0.10395 0.60395 -0.05600
C 	C 	0.67697 0.08002 0.58002 0.04600
H 	H 	0.65950 0.07200 0.57200 0.04500
C 	C 	0.75680 0.11683 0.61683 0.12000
C 	C 	0.72840 0.60395 0.10395 -0.05600
C 	C 	0.67697 0.58002 0.08002 0.04600
H 	H 	0.65950 0.57200 0.07200 0.04500
C 	C 	0.75680 0.61683 0.11683 0.12000
C 	C 	0.77160 0.89605 0.10395 -0.05600
C 	C 	0.82303 0.91998 0.08002 0.04600
H 	H 	0.84050 0.92800 0.07200 0.04600
C 	C 	0.74320 0.88317 0.11683 0.12000
C 	C 	0.77160 0.39605 0.60395 -0.05600
C 	C 	0.82303 0.41998 0.58002 0.04600
H 	H 	0.84050 0.42800 0.57200 0.04500
C 	C 	0.74320 0.38317 0.61683 0.12000
C 	C 	0.27160 0.89605 0.60395 -0.05600
C 	C 	0.32303 0.91998 0.58002 0.04600
H 	H 	0.34050 0.92800 0.57200 0.04600
C 	C 	0.24320 0.88317 0.61683 0.12000
C 	C 	0.27160 0.39605 0.10395 -0.05700
C 	C 	0.32303 0.41998 0.08002 0.04600
H 	H 	0.34050 0.42800 0.07200 0.04500
C 	C 	0.24320 0.38317 0.11683 0.12000
C 	C 	0.22840 0.89605 0.89605 -0.05500
C 	C 	0.17697 0.91998 0.91998 0.04500
H 	H 	0.15950 0.92800 0.92800 0.04600
C 	C 	0.25680 0.88317 0.88317 0.12000
C 	C 	0.22840 0.39605 0.39605 -0.05600
C 	C 	0.17697 0.41998 0.41998 0.04600
H 	H 	0.15950 0.42800 0.42800 0.04500
C 	C 	0.25680 0.38317 0.38317 0.12000
C 	C 	0.72840 0.89605 0.39605 -0.05600
C 	C 	0.67697 0.91998 0.41998 0.04600
H 	H 	0.65950 0.92800 0.42800 0.04600
C 	C 	0.75680 0.88317 0.38317 0.12000
C 	C 	0.72840 0.39605 0.89605 -0.05600
C 	C 	0.67697 0.41998 0.91998 0.04600
H 	H 	0.65950 0.42800 0.92800 0.04600
C 	C 	0.75680 0.38317 0.88317 0.12000
C 	C 	0.77160 0.10395 0.89605 -0.05600
C 	C 	0.82303 0.08002 0.91998 0.04600
H 	H 	0.84050 0.07200 0.92800 0.04600
C 	C 	0.74320 0.11683 0.88317 0.12000
C 	C 	0.77160 0.60395 0.39605 -0.05600
C 	C 	0.82303 0.58002 0.41998 0.04600
H 	H 	0.84050 0.57200 0.42800 0.04500
C 	C 	0.74320 0.61683 0.38317 0.12000
C 	C 	0.27160 0.10395 0.39605 -0.05700
C 	C 	0.32303 0.08002 0.41998 0.04600
H 	H 	0.34050 0.07200 0.42800 0.04500
C 	C 	0.24320 0.11683 0.38317 0.12000
C 	C 	0.27160 0.60395 0.89605 -0.05600
C 	C 	0.32303 0.58002 0.91998 0.04600
H 	H 	0.34050 0.57200 0.92800 0.04600
C 	C 	0.24320 0.61683 0.88317 0.12000
C 	C 	0.10395 0.89605 0.77160 -0.05600
C 	C 	0.08002 0.91998 0.82303 0.04600
H 	H 	0.07200 0.92800 0.84050 0.04600
C 	C 	0.11683 0.88317 0.74320 0.12000
C 	C 	0.10395 0.39605 0.27160 -0.05700
C 	C 	0.08002 0.41998 0.32303 0.04600
H 	H 	0.07200 0.42800 0.34050 0.04500
C 	C 	0.11683 0.38317 0.24320 0.12000
C 	C 	0.60395 0.89605 0.27160 -0.05600
C 	C 	0.58002 0.91998 0.32303 0.04600
H 	H 	0.57200 0.92800 0.34050 0.04600
C 	C 	0.61683 0.88317 0.24320 0.12000
C 	C 	0.60395 0.39605 0.77160 -0.05600
C 	C 	0.58002 0.41998 0.82303 0.04600
H 	H 	0.57200 0.42800 0.84050 0.04500
C 	C 	0.61683 0.38317 0.74320 0.12000
C 	C 	0.89605 0.89605 0.22840 -0.05500
C 	C 	0.91998 0.91998 0.17697 0.04500
H 	H 	0.92800 0.92800 0.15950 0.04600
C 	C 	0.88317 0.88317 0.25680 0.12000
C 	C 	0.89605 0.39605 0.72840 -0.05600
C 	C 	0.91998 0.41998 0.67697 0.04600
H 	H 	0.92800 0.42800 0.65950 0.04600
C 	C 	0.88317 0.38317 0.75680 0.12000
C 	C 	0.39605 0.89605 0.72840 -0.05600
C 	C 	0.41998 0.91998 0.67697 0.04600
H 	H 	0.42800 0.92800 0.65950 0.04600
C 	C 	0.38317 0.88317 0.75680 0.12000
C 	C 	0.39605 0.39605 0.22840 -0.05600
C 	C 	0.41998 0.41998 0.17697 0.04600
H 	H 	0.42800 0.42800 0.15950 0.04500
C 	C 	0.38317 0.38317 0.25680 0.12000
C 	C 	0.89605 0.10395 0.77160 -0.05600
C 	C 	0.91998 0.08002 0.82303 0.04600
H 	H 	0.92800 0.07200 0.84050 0.04600
C 	C 	0.88317 0.11683 0.74320 0.12000
C 	C 	0.89605 0.60395 0.27160 -0.05600
C 	C 	0.91998 0.58002 0.32303 0.04600
H 	H 	0.92800 0.57200 0.34050 0.04600
C 	C 	0.88317 0.61683 0.24320 0.12000
C 	C 	0.39605 0.10395 0.27160 -0.05700
C 	C 	0.41998 0.08002 0.32303 0.04600
H 	H 	0.42800 0.07200 0.34050 0.04500
C 	C 	0.38317 0.11683 0.24320 0.12000
C 	C 	0.39605 0.60395 0.77160 -0.05600
C 	C 	0.41998 0.58002 0.82303 0.04600
H 	H 	0.42800 0.57200 0.84050 0.04500
C 	C 	0.38317 0.61683 0.74320 0.12000
C 	C 	0.10395 0.10395 0.22840 -0.05700
C 	C 	0.08002 0.08002 0.17697 0.04700
H 	H 	0.07200 0.07200 0.15950 0.04400
C 	C 	0.11683 0.11683 0.25680 0.12000
C 	C 	0.10395 0.60395 0.72840 -0.05600
C 	C 	0.08002 0.58002 0.67697 0.04600
H 	H 	0.07200 0.57200 0.65950 0.04500
C 	C 	0.11683 0.61683 0.75680 0.12000
C 	C 	0.60395 0.10395 0.72840 -0.05600
C 	C 	0.58002 0.08002 0.67697 0.04600
H 	H 	0.57200 0.07200 0.65950 0.04500
C 	C 	0.61683 0.11683 0.75680 0.12000
C 	C 	0.60395 0.60395 0.22840 -0.05600
C 	C 	0.58002 0.58002 0.17697 0.04600
H 	H 	0.57200 0.57200 0.15950 0.04500
C 	C 	0.61683 0.61683 0.25680 0.12000
C 	C 	0.89605 0.22840 0.89605 -0.05500
C 	C 	0.91998 0.17697 0.91998 0.04500
H 	H 	0.92800 0.15950 0.92800 0.04600
C 	C 	0.88317 0.25680 0.88317 0.12000
C 	C 	0.89605 0.72840 0.39605 -0.05600
C 	C 	0.91998 0.67697 0.41998 0.04600
H 	H 	0.92800 0.65950 0.42800 0.04600
C 	C 	0.88317 0.75680 0.38317 0.12000
C 	C 	0.39605 0.22840 0.39605 -0.05600
C 	C 	0.41998 0.17697 0.41998 0.04600
H 	H 	0.42800 0.15950 0.42800 0.04500
C 	C 	0.38317 0.25680 0.38317 0.12000
C 	C 	0.39605 0.72840 0.89605 -0.05600
C 	C 	0.41998 0.67697 0.91998 0.04600
H 	H 	0.42800 0.65950 0.92800 0.04600
C 	C 	0.38317 0.75680 0.88317 0.12000
C 	C 	0.89605 0.77160 0.10395 -0.05600
C 	C 	0.91998 0.82303 0.08002 0.04600
H 	H 	0.92800 0.84050 0.07200 0.04600
C 	C 	0.88317 0.74320 0.11683 0.12000
C 	C 	0.89605 0.27160 0.60395 -0.05600
C 	C 	0.91998 0.32303 0.58002 0.04600
H 	H 	0.92800 0.34050 0.57200 0.04600
C 	C 	0.88317 0.24320 0.61683 0.12000
C 	C 	0.39605 0.77160 0.60395 -0.05600
C 	C 	0.41998 0.82303 0.58002 0.04600
H 	H 	0.42800 0.84050 0.57200 0.04500
C 	C 	0.38317 0.74320 0.61683 0.12000
C 	C 	0.39605 0.27160 0.10395 -0.05700
C 	C 	0.41998 0.32303 0.08002 0.04600
H 	H 	0.42800 0.34050 0.07200 0.04500
C 	C 	0.38317 0.24320 0.11683 0.12000
C 	C 	0.10395 0.22840 0.10395 -0.05700
C 	C 	0.08002 0.17697 0.08002 0.04700
H 	H 	0.07200 0.15950 0.07200 0.04400
C 	C 	0.11683 0.25680 0.11683 0.12000
C 	C 	0.10395 0.72840 0.60395 -0.05600
C 	C 	0.08002 0.67697 0.58002 0.04600
H 	H 	0.07200 0.65950 0.57200 0.04500
C 	C 	0.11683 0.75680 0.61683 0.12000
C 	C 	0.60395 0.22840 0.60395 -0.05600
C 	C 	0.58002 0.17697 0.58002 0.04600
H 	H 	0.57200 0.15950 0.57200 0.04500
C 	C 	0.61683 0.25680 0.61683 0.12000
C 	C 	0.60395 0.72840 0.10395 -0.05600
C 	C 	0.58002 0.67697 0.08002 0.04600
H 	H 	0.57200 0.65950 0.07200 0.04500
C 	C 	0.61683 0.75680 0.11683 0.12000
C 	C 	0.10395 0.77160 0.89605 -0.05600
C 	C 	0.08002 0.82303 0.91998 0.04600
H 	H 	0.07200 0.84050 0.92800 0.04600
C 	C 	0.11683 0.74320 0.88317 0.12000
C 	C 	0.10395 0.27160 0.39605 -0.05700
C 	C 	0.08002 0.32303 0.41998 0.04600
H 	H 	0.07200 0.34050 0.42800 0.04500
C 	C 	0.11683 0.24320 0.38317 0.12000
C 	C 	0.60395 0.77160 0.39605 -0.05600
C 	C 	0.58002 0.82303 0.41998 0.04600
H 	H 	0.57200 0.84050 0.42800 0.04500
C 	C 	0.61683 0.74320 0.38317 0.12000
C 	C 	0.60395 0.27160 0.89605 -0.05600
C 	C 	0.58002 0.32303 0.91998 0.04600
H 	H 	0.57200 0.34050 0.92800 0.04600
C 	C 	0.61683 0.24320 0.88317 0.12000
