data_crystal

_cell_length_a 18.76000
_cell_length_b 18.76000
_cell_length_c 17.99900
_cell_angle_alpha 90.00000
_cell_angle_beta  90.00000
_cell_angle_gamma 90.00000

_symmetry_space_group_name_	'P 1'
_symmetry_space_group_name_H-M	'P 1'

loop_
_symmetry_equiv_pos_as_xyz
  x,y,z

loop_
_atom_site_label
_atom_site_type_symbol
_atom_site_fract_x
_atom_site_fract_y
_atom_site_fract_z
_atom_site_charge
C 	C 	0.90340 0.80030 0.76280 0.35900
C 	C 	0.88040 0.77410 0.68800 -0.10200
C 	C 	0.81400 0.76480 0.66120 -0.00700
H 	H 	0.77280 0.77660 0.68720 0.03300
C 	C 	0.03580 0.77570 0.96540 0.04200
H 	H 	0.02780 0.73260 0.94120 -0.00000
C 	C 	0.08450 0.78790 0.01950 -0.04100
H 	H 	0.11580 0.75450 0.03930 0.03000
C 	C 	0.97790 0.97010 0.77030 0.11900
H 	H 	0.95980 0.94730 0.72850 -0.00400
N 	N 	0.02930 0.88640 0.99900 -0.18600
N 	N 	0.00100 0.83800 0.95300 -0.24800
N 	N 	0.07970 0.85560 0.03920 -0.23300
N 	N 	0.96640 0.95160 0.83980 -0.20400
O 	O 	0.96220 0.79080 0.78460 -0.37500
O 	O 	0.85700 0.83300 0.80050 -0.47000
Zn	Zn	0.91593 0.86150 0.88833 1.18300
C 	C 	0.40340 0.30030 0.26280 0.35800
C 	C 	0.38040 0.27410 0.18800 -0.10000
C 	C 	0.31400 0.26480 0.16120 -0.01800
H 	H 	0.27280 0.27660 0.18720 0.03100
C 	C 	0.53580 0.27570 0.46540 0.00500
H 	H 	0.52780 0.23260 0.44120 0.01300
C 	C 	0.58450 0.28790 0.51950 -0.00000
H 	H 	0.61580 0.25450 0.53930 0.02000
C 	C 	0.47790 0.47010 0.27030 0.01500
H 	H 	0.45980 0.44730 0.22850 0.01900
N 	N 	0.52930 0.38640 0.49900 -0.20200
N 	N 	0.50100 0.33800 0.45300 -0.23800
N 	N 	0.57970 0.35560 0.53920 -0.23400
N 	N 	0.46640 0.45160 0.33980 -0.21400
O 	O 	0.46220 0.29080 0.28460 -0.39100
O 	O 	0.35700 0.33300 0.30050 -0.47600
Zn	Zn	0.41593 0.36150 0.38833 1.17600
C 	C 	0.09660 0.19970 0.76280 0.36100
C 	C 	0.11960 0.22590 0.68800 -0.10300
C 	C 	0.18600 0.23520 0.66120 -0.01000
H 	H 	0.22720 0.22340 0.68720 0.03200
C 	C 	0.96420 0.22430 0.96540 0.04100
H 	H 	0.97220 0.26740 0.94120 0.01300
C 	C 	0.91550 0.21210 0.01950 -0.03300
H 	H 	0.88420 0.24550 0.03930 0.02800
C 	C 	0.02210 0.02990 0.77030 -0.08800
H 	H 	0.04020 0.05270 0.72850 0.04300
N 	N 	0.97070 0.11360 0.99900 -0.18500
N 	N 	0.99900 0.16200 0.95300 -0.23000
N 	N 	0.92030 0.14440 0.03920 -0.23700
N 	N 	0.03360 0.04840 0.83980 -0.20300
O 	O 	0.03780 0.20920 0.78460 -0.39900
O 	O 	0.14300 0.16700 0.80050 -0.47700
Zn	Zn	0.08407 0.13850 0.88833 1.17300
C 	C 	0.59660 0.69970 0.26280 0.36000
C 	C 	0.61960 0.72590 0.18800 -0.09900
C 	C 	0.68600 0.73520 0.16120 -0.01400
H 	H 	0.72720 0.72340 0.18720 0.03700
C 	C 	0.46420 0.72430 0.46540 0.00500
H 	H 	0.47220 0.76740 0.44120 0.01700
C 	C 	0.41550 0.71210 0.51950 0.00100
H 	H 	0.38420 0.74550 0.53930 0.02000
C 	C 	0.52210 0.52990 0.27030 0.01500
H 	H 	0.54020 0.55270 0.22850 0.01900
N 	N 	0.47070 0.61360 0.49900 -0.20200
N 	N 	0.49900 0.66200 0.45300 -0.23700
N 	N 	0.42030 0.64440 0.53920 -0.23400
N 	N 	0.53360 0.54840 0.33980 -0.21400
O 	O 	0.53780 0.70920 0.28460 -0.38700
O 	O 	0.64300 0.66700 0.30050 -0.47300
Zn	Zn	0.58407 0.63850 0.38833 1.17700
C 	C 	0.80030 0.09660 0.23720 0.36100
C 	C 	0.77410 0.11960 0.31200 -0.10300
C 	C 	0.76480 0.18600 0.33880 -0.00800
H 	H 	0.77660 0.22720 0.31280 0.03200
C 	C 	0.77570 0.96420 0.03460 -0.02300
H 	H 	0.73260 0.97220 0.05880 0.02900
C 	C 	0.78790 0.91550 0.98050 0.03700
H 	H 	0.75450 0.88420 0.96070 0.01400
C 	C 	0.97010 0.02210 0.22970 0.01600
H 	H 	0.94730 0.04020 0.27150 0.02000
N 	N 	0.88640 0.97070 0.00100 -0.19500
N 	N 	0.83800 0.99900 0.04700 -0.22200
N 	N 	0.85560 0.92030 0.96080 -0.22700
N 	N 	0.95160 0.03360 0.16020 -0.20600
O 	O 	0.79080 0.03780 0.21540 -0.39900
O 	O 	0.83300 0.14300 0.19950 -0.47700
Zn	Zn	0.86150 0.08407 0.11167 1.17200
C 	C 	0.30030 0.59660 0.73720 0.36100
C 	C 	0.27410 0.61960 0.81200 -0.10500
C 	C 	0.26480 0.68600 0.83880 0.00000
H 	H 	0.27660 0.72720 0.81280 0.03100
C 	C 	0.27570 0.46420 0.53460 0.00500
H 	H 	0.23260 0.47220 0.55880 0.01300
C 	C 	0.28790 0.41550 0.48050 -0.00000
H 	H 	0.25450 0.38420 0.46070 0.01900
C 	C 	0.47010 0.52210 0.72970 0.01500
H 	H 	0.44730 0.54020 0.77150 0.02100
N 	N 	0.38640 0.47070 0.50100 -0.20200
N 	N 	0.33800 0.49900 0.54700 -0.23800
N 	N 	0.35560 0.42030 0.46080 -0.23400
N 	N 	0.45160 0.53360 0.66020 -0.21400
O 	O 	0.29080 0.53780 0.71540 -0.38900
O 	O 	0.33300 0.64300 0.69950 -0.47500
Zn	Zn	0.36150 0.58407 0.61167 1.17600
C 	C 	0.19970 0.90340 0.23720 0.35900
C 	C 	0.22590 0.88040 0.31200 -0.10300
C 	C 	0.23520 0.81400 0.33880 -0.00800
H 	H 	0.22340 0.77280 0.31280 0.03100
C 	C 	0.22430 0.03580 0.03460 -0.04000
H 	H 	0.26740 0.02780 0.05880 0.01700
C 	C 	0.21210 0.08450 0.98050 0.04000
H 	H 	0.24550 0.11580 0.96070 0.00900
C 	C 	0.02990 0.97790 0.22970 0.01600
H 	H 	0.05270 0.95980 0.27150 0.02000
N 	N 	0.11360 0.02930 0.00100 -0.22200
N 	N 	0.16200 0.00100 0.04700 -0.24500
N 	N 	0.14440 0.07970 0.96080 -0.23400
N 	N 	0.04840 0.96640 0.16020 -0.20200
O 	O 	0.20920 0.96220 0.21540 -0.37900
O 	O 	0.16700 0.85700 0.19950 -0.47400
Zn	Zn	0.13850 0.91593 0.11167 1.18000
C 	C 	0.69970 0.40340 0.73720 0.36300
C 	C 	0.72590 0.38040 0.81200 -0.10500
C 	C 	0.73520 0.31400 0.83880 0.00100
H 	H 	0.72340 0.27280 0.81280 0.03000
C 	C 	0.72430 0.53580 0.53460 0.00500
H 	H 	0.76740 0.52780 0.55880 0.01700
C 	C 	0.71210 0.58450 0.48050 0.00100
H 	H 	0.74550 0.61580 0.46070 0.02100
C 	C 	0.52990 0.47790 0.72970 0.01600
H 	H 	0.55270 0.45980 0.77150 0.02100
N 	N 	0.61360 0.52930 0.50100 -0.20200
N 	N 	0.66200 0.50100 0.54700 -0.23700
N 	N 	0.64440 0.57970 0.46080 -0.23400
N 	N 	0.54840 0.46640 0.66020 -0.21400
O 	O 	0.70920 0.46220 0.71540 -0.38600
O 	O 	0.66700 0.35700 0.69950 -0.47500
Zn	Zn	0.63850 0.41593 0.61167 1.17700
C 	C 	0.59660 0.80030 0.98720 0.38100
C 	C 	0.61960 0.77410 0.06200 -0.12200
C 	C 	0.68600 0.76480 0.08880 0.00500
H 	H 	0.72720 0.77660 0.06280 0.02600
C 	C 	0.46420 0.77570 0.78460 0.00600
H 	H 	0.47220 0.73260 0.80880 0.01700
C 	C 	0.41550 0.78790 0.73050 0.00200
H 	H 	0.38420 0.75450 0.71070 0.02000
C 	C 	0.52210 0.97010 0.97970 0.08600
H 	H 	0.54020 0.94730 0.02150 -0.01100
N 	N 	0.47070 0.88640 0.75100 -0.19500
N 	N 	0.49900 0.83800 0.79700 -0.23500
N 	N 	0.42030 0.85560 0.71080 -0.23000
N 	N 	0.53360 0.95160 0.91020 -0.21200
O 	O 	0.53780 0.79080 0.96540 -0.38600
O 	O 	0.64300 0.83300 0.94950 -0.47300
Zn	Zn	0.58407 0.86150 0.86167 1.17800
C 	C 	0.09660 0.30030 0.48720 0.36100
C 	C 	0.11960 0.27410 0.56200 -0.10400
C 	C 	0.18600 0.26480 0.58880 -0.01000
H 	H 	0.22720 0.27660 0.56280 0.03100
C 	C 	0.96420 0.27570 0.28460 0.00700
H 	H 	0.97220 0.23260 0.30880 0.02000
C 	C 	0.91550 0.28790 0.23050 0.00200
H 	H 	0.88420 0.25450 0.21070 0.02000
C 	C 	0.02210 0.47010 0.47970 -0.03900
H 	H 	0.04020 0.44730 0.52150 0.03300
N 	N 	0.97070 0.38640 0.25100 -0.19400
N 	N 	0.99900 0.33800 0.29700 -0.22700
N 	N 	0.92030 0.35560 0.21080 -0.23300
N 	N 	0.03360 0.45160 0.41020 -0.20900
O 	O 	0.03780 0.29080 0.46540 -0.40100
O 	O 	0.14300 0.33300 0.44950 -0.47900
Zn	Zn	0.08407 0.36150 0.36167 1.17200
C 	C 	0.40340 0.19970 0.98720 0.38400
C 	C 	0.38040 0.22590 0.06200 -0.12700
C 	C 	0.31400 0.23520 0.08880 0.00300
H 	H 	0.27280 0.22340 0.06280 0.01900
C 	C 	0.53580 0.22430 0.78460 0.00400
H 	H 	0.52780 0.26740 0.80880 0.01600
C 	C 	0.58450 0.21210 0.73050 0.00000
H 	H 	0.61580 0.24550 0.71070 0.02000
C 	C 	0.47790 0.02990 0.97970 -0.00700
H 	H 	0.45980 0.05270 0.02150 0.00700
N 	N 	0.52930 0.11360 0.75100 -0.20500
N 	N 	0.50100 0.16200 0.79700 -0.23800
N 	N 	0.57970 0.14440 0.71080 -0.23600
N 	N 	0.46640 0.04840 0.91020 -0.21200
O 	O 	0.46220 0.20920 0.96540 -0.38900
O 	O 	0.35700 0.16700 0.94950 -0.47600
Zn	Zn	0.41593 0.13850 0.86167 1.17700
C 	C 	0.90340 0.69970 0.48720 0.36000
C 	C 	0.88040 0.72590 0.56200 -0.10100
C 	C 	0.81400 0.73520 0.58880 -0.00600
H 	H 	0.77280 0.72340 0.56280 0.03400
C 	C 	0.03580 0.72430 0.28460 0.00200
H 	H 	0.02780 0.76740 0.30880 0.01000
C 	C 	0.08450 0.71210 0.23050 -0.00200
H 	H 	0.11580 0.74550 0.21070 0.01900
C 	C 	0.97790 0.52990 0.47970 0.07000
H 	H 	0.95980 0.55270 0.52150 0.00700
N 	N 	0.02930 0.61360 0.25100 -0.20700
N 	N 	0.00100 0.66200 0.29700 -0.24700
N 	N 	0.07970 0.64440 0.21080 -0.23500
N 	N 	0.96640 0.54840 0.41020 -0.20800
O 	O 	0.96220 0.70920 0.46540 -0.37500
O 	O 	0.85700 0.66700 0.44950 -0.47100
Zn	Zn	0.91593 0.63850 0.36167 1.18200
C 	C 	0.69970 0.09660 0.51280 0.36200
C 	C 	0.72590 0.11960 0.43800 -0.10200
C 	C 	0.73520 0.18600 0.41120 -0.00800
H 	H 	0.72340 0.22720 0.43720 0.03300
C 	C 	0.72430 0.96420 0.71540 0.00800
H 	H 	0.76740 0.97220 0.69120 0.02400
C 	C 	0.71210 0.91550 0.76950 0.00400
H 	H 	0.74550 0.88420 0.78930 0.02100
C 	C 	0.52990 0.02210 0.52030 -0.03900
H 	H 	0.55270 0.04020 0.47850 0.03200
N 	N 	0.61360 0.97070 0.74900 -0.19300
N 	N 	0.66200 0.99900 0.70300 -0.22600
N 	N 	0.64440 0.92030 0.78920 -0.23100
N 	N 	0.54840 0.03360 0.58980 -0.20900
O 	O 	0.70920 0.03780 0.53460 -0.39800
O 	O 	0.66700 0.14300 0.55050 -0.47600
Zn	Zn	0.63850 0.08407 0.63833 1.17300
C 	C 	0.19970 0.59660 0.01280 0.33700
C 	C 	0.22590 0.61960 0.93800 -0.07900
C 	C 	0.23520 0.68600 0.91120 -0.02100
H 	H 	0.22340 0.72720 0.93720 0.04400
C 	C 	0.22430 0.46420 0.21540 0.00300
H 	H 	0.26740 0.47220 0.19120 0.01300
C 	C 	0.21210 0.41550 0.26950 -0.00100
H 	H 	0.24550 0.38420 0.28930 0.01900
C 	C 	0.02990 0.52210 0.02030 -0.07200
H 	H 	0.05270 0.54020 0.97850 0.05900
N 	N 	0.11360 0.47070 0.24900 -0.20600
N 	N 	0.16200 0.49900 0.20300 -0.23900
N 	N 	0.14440 0.42030 0.28920 -0.23700
N 	N 	0.04840 0.53360 0.08980 -0.20300
O 	O 	0.20920 0.53780 0.03460 -0.39000
O 	O 	0.16700 0.64300 0.05050 -0.47600
Zn	Zn	0.13850 0.58407 0.13833 1.17500
C 	C 	0.30030 0.90340 0.51280 0.35900
C 	C 	0.27410 0.88040 0.43800 -0.10200
C 	C 	0.26480 0.81400 0.41120 -0.00800
H 	H 	0.27660 0.77280 0.43720 0.03100
C 	C 	0.27570 0.03580 0.71540 0.00200
H 	H 	0.23260 0.02780 0.69120 0.00600
C 	C 	0.28790 0.08450 0.76950 -0.00200
H 	H 	0.25450 0.11580 0.78930 0.02000
C 	C 	0.47010 0.97790 0.52030 0.07000
H 	H 	0.44730 0.95980 0.47850 0.00700
N 	N 	0.38640 0.02930 0.74900 -0.20600
N 	N 	0.33800 0.00100 0.70300 -0.24800
N 	N 	0.35560 0.07970 0.78920 -0.23400
N 	N 	0.45160 0.96640 0.58980 -0.20800
O 	O 	0.29080 0.96220 0.53460 -0.37800
O 	O 	0.33300 0.85700 0.55050 -0.47300
Zn	Zn	0.36150 0.91593 0.63833 1.18100
C 	C 	0.80030 0.40340 0.01280 0.33900
C 	C 	0.77410 0.38040 0.93800 -0.08000
C 	C 	0.76480 0.31400 0.91120 -0.01900
H 	H 	0.77660 0.27280 0.93720 0.04000
C 	C 	0.77570 0.53580 0.21540 0.00600
H 	H 	0.73260 0.52780 0.19120 0.01400
C 	C 	0.78790 0.58450 0.26950 0.00100
H 	H 	0.75450 0.61580 0.28930 0.02100
C 	C 	0.97010 0.47790 0.02030 0.05400
H 	H 	0.94730 0.45980 0.97850 0.02500
N 	N 	0.88640 0.52930 0.24900 -0.19500
N 	N 	0.83800 0.50100 0.20300 -0.23600
N 	N 	0.85560 0.57970 0.28920 -0.23000
N 	N 	0.95160 0.46640 0.08980 -0.20700
O 	O 	0.79080 0.46220 0.03460 -0.38700
O 	O 	0.83300 0.35700 0.05050 -0.47500
Zn	Zn	0.86150 0.41593 0.13833 1.17700
N 	N 	0.00000 0.00000 0.88150 -0.23400
N 	N 	0.50000 0.50000 0.38150 -0.20800
N 	N 	-0.00000 -0.00000 0.11850 -0.24300
N 	N 	0.50000 0.50000 0.61850 -0.20800
N 	N 	0.50000 0.00000 0.86850 -0.22300
N 	N 	0.00000 0.50000 0.36850 -0.22400
N 	N 	0.50000 0.00000 0.63150 -0.22400
N 	N 	0.00000 0.50000 0.13150 -0.22500
S 	S 	0.94274 0.75000 0.62500 0.08700
S 	S 	0.05726 0.25000 0.62500 0.05300
S 	S 	0.75000 0.05726 0.37500 0.06000
S 	S 	0.25000 0.55726 0.87500 0.07000
S 	S 	0.25000 0.94274 0.37500 0.07900
S 	S 	0.75000 0.44274 0.87500 0.07700
S 	S 	0.55726 0.75000 0.12500 0.07000
S 	S 	0.44274 0.25000 0.12500 0.06200
Zn	Zn	-0.00000 0.00000 -0.00000 1.12300
Zn	Zn	0.50000 0.50000 0.50000 1.14400
Zn	Zn	0.50000 -0.00000 0.75000 1.13700
Zn	Zn	-0.00000 0.50000 0.25000 1.13600
