data_crystal

_cell_length_a 24.08750
_cell_length_b 27.82620
_cell_length_c 30.31540
_cell_angle_alpha 90.00000
_cell_angle_beta  90.00000
_cell_angle_gamma 90.00000

_symmetry_space_group_name_	'P 1'
_symmetry_space_group_name_H-M	'P 1'

loop_
_symmetry_equiv_pos_as_xyz
  x,y,z

loop_
_atom_site_label
_atom_site_type_symbol
_atom_site_fract_x
_atom_site_fract_y
_atom_site_fract_z
_atom_site_charge
Eu	Eu	0.75636 0.76293 0.36313 2.97600
O 	O 	0.89010 0.33000 0.69400 -0.53300
O 	O 	0.75970 0.77100 0.28540 -10.95100
O 	O 	0.68220 0.25320 0.20210 -0.41100
C 	C 	0.59600 0.96660 0.40950 0.16200
O 	O 	0.68450 0.81790 0.34900 -0.49100
C 	C 	0.71820 0.10850 0.03820 0.00800
C 	C 	0.75980 0.96030 0.05770 -0.19900
H 	H 	0.76490 0.98100 0.08150 0.09300
O 	O 	0.68810 0.10810 0.68530 -0.40700
C 	C 	0.71890 0.05880 0.04180 -0.07800
H 	H 	0.70130 0.04410 0.06550 0.05700
C 	C 	0.56920 0.00520 0.43750 -0.08500
C 	C 	0.50200 0.07080 0.44210 -0.16800
C 	C 	0.76900 0.10260 0.96860 0.00700
C 	C 	0.73950 0.94720 0.98290 -0.18700
H 	H 	0.73140 0.95900 0.95500 0.04100
C 	C 	0.96100 0.48340 0.42970 0.02000
H 	H 	0.96960 0.49470 0.40160 -0.01100
C 	C 	0.52770 0.03320 0.41750 0.03600
H 	H 	0.51710 0.02730 0.38850 -0.01000
C 	C 	0.95550 0.40310 0.58370 -0.19700
H 	H 	0.99270 0.40070 0.57600 0.08000
C 	C 	0.89720 0.55410 0.43770 0.34400
C 	C 	0.84300 0.11870 0.91430 -0.15800
H 	H 	0.86590 0.09650 0.92830 0.07700
C 	C 	0.88030 0.38380 0.63430 -0.19600
C 	C 	0.86440 0.43410 0.57210 -0.18200
H 	H 	0.83960 0.45240 0.55560 0.09500
C 	C 	0.88640 0.59090 0.46560 -0.48700
H 	H 	0.89360 0.58750 0.49560 0.20100
C 	C 	0.86430 0.63440 0.44920 0.47400
H 	H 	0.85870 0.66030 0.46800 -0.12100
O 	O 	0.31840 0.20520 0.34370 -2.23700
C 	C 	0.77050 0.05320 0.97430 -0.07500
H 	H 	0.78880 0.03440 0.95350 0.03300
C 	C 	0.62790 0.16380 0.12600 0.09300
H 	H 	0.59050 0.16310 0.13360 -0.01300
C 	C 	0.92260 0.50690 0.45440 -0.13200
C 	C 	0.93590 0.38100 0.62230 0.10400
H 	H 	0.96060 0.36430 0.64020 -0.07500
C 	C 	0.74920 0.97870 0.01750 0.10400
C 	C 	0.74200 0.89820 0.99000 0.12200
H 	H 	0.73570 0.87740 0.96650 -0.04400
C 	C 	0.84610 0.41350 0.61030 0.10000
H 	H 	0.81020 0.41950 0.62020 0.00300
C 	C 	0.64820 0.89540 0.35910 -0.30200
C 	C 	0.93460 0.45020 0.51360 -0.04600
C 	C 	0.97430 0.42610 0.48830 -0.01700
H 	H 	0.99160 0.39910 0.50000 0.03000
C 	C 	0.56120 0.04950 0.50450 -0.07600
C 	C 	0.75360 0.87930 0.03090 -0.23100
C 	C 	0.65400 0.06970 0.60410 0.10500
H 	H 	0.69120 0.06470 0.61100 -0.04500
C 	C 	0.58420 0.01300 0.47920 0.00800
H 	H 	0.61110 0.99330 0.49180 0.02300
C 	C 	0.74530 0.03090 0.01050 -0.01200
C 	C 	0.58070 0.06330 0.55090 0.14900
O 	O 	0.61180 0.14720 0.69480 -0.53400
O 	O 	0.59760 0.22930 0.19580 -0.48600
O 	O 	0.80470 0.68500 0.35000 -2.04200
O 	O 	0.81300 0.22960 0.79660 -0.41900
O 	O 	0.89650 0.20710 0.80660 -0.48400
C 	C 	0.90950 0.49150 0.49660 0.00700
H 	H 	0.88390 0.50850 0.51350 0.02400
O 	O 	0.80000 0.71010 0.41850 -0.30700
C 	C 	0.61840 0.09740 0.63310 -0.25800
O 	O 	0.76550 0.81350 0.07710 -0.57400
C 	C 	0.60990 0.97480 0.36600 -0.24700
H 	H 	0.60240 0.00460 0.35340 0.09700
O 	O 	0.80910 0.36880 0.68590 -0.30000
C 	C 	0.52030 0.07810 0.48480 0.04300
H 	H 	0.50490 0.10310 0.50100 0.00200
C 	C 	0.88290 0.55720 0.39340 -0.59700
H 	H 	0.88880 0.53130 0.37460 0.13200
C 	C 	0.74340 0.12860 0.00120 -0.08300
H 	H 	0.74270 0.16190 0.99830 0.06000
C 	C 	0.77550 0.18150 0.86880 0.06800
H 	H 	0.75160 0.20140 0.85310 0.02800
O 	O 	0.69850 0.87140 0.29530 -0.52300
C 	C 	0.98840 0.44140 0.44640 -0.07400
C 	C 	0.45940 0.10190 0.42380 0.37800
C 	C 	0.60920 0.92270 0.42700 -0.26400
H 	H 	0.60160 0.91680 0.45660 0.12800
C 	C 	0.79020 0.12610 0.92980 0.06500
C 	C 	0.03020 0.41710 0.42050 0.14600
C 	C 	0.76350 0.91060 0.06450 0.14500
H 	H 	0.77270 0.89890 0.09230 -0.02600
C 	C 	0.91830 0.42910 0.55670 0.10800
C 	C 	0.69630 0.13880 0.07510 0.08500
C 	C 	0.84860 0.20690 0.81700 0.39700
C 	C 	0.85790 0.35820 0.67440 0.39500
O 	O 	0.74960 0.79810 0.00900 -0.28200
C 	C 	0.64520 0.22830 0.18280 0.38700
O 	O 	0.32150 0.23590 0.40810 -0.30100
C 	C 	0.68040 0.85950 0.33270 0.55000
C 	C 	0.63330 0.88740 0.40210 0.19700
H 	H 	0.63970 0.85730 0.41450 -0.04100
C 	C 	0.85120 0.63840 0.40500 -0.76800
C 	C 	0.82930 0.17650 0.85550 -0.15900
C 	C 	0.85970 0.60000 0.37750 0.56300
H 	H 	0.84990 0.60240 0.34790 -0.65200
C 	C 	0.82080 0.68180 0.38910 0.90100
C 	C 	0.66230 0.19500 0.14760 -0.16900
C 	C 	0.73370 0.16860 0.09740 -0.14200
H 	H 	0.77120 0.16790 0.09030 0.08500
C 	C 	0.06590 0.44270 0.39030 -0.24400
H 	H 	0.06240 0.47560 0.38610 0.09800
C 	C 	0.86260 0.14380 0.87790 0.06000
H 	H 	0.89880 0.13860 0.86840 -0.00800
C 	C 	0.71420 0.20020 0.13120 0.08000
H 	H 	0.73720 0.22440 0.14180 0.02200
C 	C 	0.63500 0.93930 0.34080 0.17100
H 	H 	0.64300 0.94510 0.31130 -0.04900
C 	C 	0.33310 0.20190 0.38190 1.06300
C 	C 	0.75640 0.15750 0.90520 -0.14000
H 	H 	0.71980 0.16210 0.91400 0.08100
O 	O 	0.17270 0.31870 0.35370 -0.30300
C 	C 	0.04080 0.36840 0.42620 -0.27500
H 	H 	0.02290 0.35200 0.44890 0.11700
C 	C 	0.75610 0.82590 0.03950 0.52100
C 	C 	0.10600 0.41630 0.36750 0.17900
H 	H 	0.13060 0.43290 0.34940 -0.06700
C 	C 	0.54500 0.08500 0.58130 -0.24200
H 	H 	0.50760 0.08800 0.57440 0.10900
C 	C 	0.07730 0.34320 0.39910 0.24400
H 	H 	0.07900 0.30980 0.40050 -0.07900
C 	C 	0.63090 0.05100 0.56570 -0.22700
H 	H 	0.65150 0.02880 0.54960 0.09200
C 	C 	0.56350 0.10160 0.62070 0.15600
H 	H 	0.53850 0.11620 0.63990 -0.05000
C 	C 	0.64660 0.13330 0.09320 -0.16900
H 	H 	0.62380 0.10830 0.08370 0.08900
C 	C 	0.64210 0.11740 0.67380 0.45800
C 	C 	0.37770 0.16580 0.39500 -0.80000
C 	C 	0.41600 0.14910 0.36500 -0.34700
H 	H 	0.41540 0.15980 0.33590 -0.18600
C 	C 	0.45620 0.11580 0.37900 0.25600
H 	H 	0.48080 0.10270 0.35870 -0.12800
C 	C 	0.37700 0.14860 0.43790 -0.77600
H 	H 	0.34880 0.15740 0.45730 0.30900
C 	C 	0.41910 0.11790 0.45140 0.80900
H 	H 	0.41980 0.10790 0.48060 -0.26200
C 	C 	0.11110 0.36820 0.37020 -0.39900
O 	O 	0.18180 0.38500 0.31420 -0.36400
C 	C 	0.16750 0.36190 0.34690 0.89600
H 	H 	0.71680 0.69210 0.23270 13.49000
C 	C 	0.41390 0.08620 0.39740 -1.01500
H 	H 	0.40880 0.05350 0.39230 0.32100
C 	C 	0.37800 0.11860 0.37980 1.07300
H 	H 	0.35370 0.10920 0.35760 -0.76100
C 	C 	0.41510 0.17910 0.42760 1.23500
H 	H 	0.41240 0.20940 0.44040 -0.39900
C 	C 	0.45630 0.14780 0.44130 -1.26000
H 	H 	0.48200 0.15760 0.46240 0.46600
O 	O 	0.80900 0.85780 0.32550 -0.48900
C 	C 	0.84770 0.83610 0.34410 -0.04800
O 	O 	0.84690 0.79120 0.34840 -0.25400
O 	O 	0.82200 0.72060 0.41230 -0.33700
O 	O 	0.69740 0.71690 0.41340 -0.44900
H 	H 	0.78080 0.68330 0.23750 13.53800
H 	H 	0.74360 0.68840 0.27970 13.91700
Eu	Eu	0.24364 0.23707 0.86313 2.97700
O 	O 	0.10990 0.67000 0.19400 -0.53200
O 	O 	0.24030 0.22900 0.78540 -10.95000
O 	O 	0.31780 0.74680 0.70210 -0.41000
C 	C 	0.40400 0.03340 0.90950 0.16300
O 	O 	0.31550 0.18210 0.84900 -0.49000
C 	C 	0.28180 0.89150 0.53820 0.00800
C 	C 	0.24020 0.03970 0.55770 -0.19700
H 	H 	0.23510 0.01900 0.58150 0.09300
O 	O 	0.31190 0.89190 0.18530 -0.40600
C 	C 	0.28110 0.94120 0.54180 -0.07700
H 	H 	0.29870 0.95590 0.56550 0.05800
C 	C 	0.43080 0.99480 0.93750 -0.08500
C 	C 	0.49800 0.92920 0.94210 -0.16800
C 	C 	0.23100 0.89740 0.46860 0.00700
C 	C 	0.26050 0.05280 0.48290 -0.18500
H 	H 	0.26860 0.04100 0.45500 0.04100
C 	C 	0.03900 0.51660 0.92970 0.02200
H 	H 	0.03040 0.50530 0.90160 -0.01100
C 	C 	0.47230 0.96680 0.91750 0.03600
H 	H 	0.48290 0.97270 0.88850 -0.01000
C 	C 	0.04450 0.59690 0.08370 -0.19800
H 	H 	0.00730 0.59930 0.07600 0.08000
C 	C 	0.10280 0.44590 0.93770 0.34400
C 	C 	0.15700 0.88130 0.41430 -0.15900
H 	H 	0.13410 0.90350 0.42830 0.07700
C 	C 	0.11970 0.61620 0.13430 -0.19600
C 	C 	0.13560 0.56590 0.07210 -0.18300
H 	H 	0.16040 0.54760 0.05560 0.09600
C 	C 	0.11360 0.40910 0.96560 -0.48700
H 	H 	0.10640 0.41250 0.99560 0.20100
C 	C 	0.13570 0.36560 0.94920 0.47400
H 	H 	0.14130 0.33970 0.96800 -0.12100
O 	O 	0.68160 0.79480 0.84370 -2.23700
C 	C 	0.22950 0.94680 0.47430 -0.07500
H 	H 	0.21120 0.96560 0.45350 0.03300
C 	C 	0.37210 0.83620 0.62600 0.09400
H 	H 	0.40950 0.83690 0.63360 -0.01300
C 	C 	0.07740 0.49310 0.95440 -0.13300
C 	C 	0.06410 0.61900 0.12230 0.10400
H 	H 	0.03940 0.63570 0.14020 -0.07600
C 	C 	0.25080 0.02130 0.51750 0.10300
C 	C 	0.25800 0.10180 0.49000 0.12200
H 	H 	0.26430 0.12260 0.46650 -0.04400
C 	C 	0.15390 0.58650 0.11030 0.10000
H 	H 	0.18980 0.58050 0.12020 0.00300
C 	C 	0.35180 0.10460 0.85910 -0.30200
C 	C 	0.06540 0.54980 0.01360 -0.04800
C 	C 	0.02570 0.57390 0.98830 -0.01500
H 	H 	0.00840 0.60090 -0.00000 0.02900
C 	C 	0.43880 0.95050 0.00450 -0.07700
C 	C 	0.24640 0.12070 0.53090 -0.23000
C 	C 	0.34600 0.93030 0.10410 0.10500
H 	H 	0.30880 0.93530 0.11100 -0.04500
C 	C 	0.41580 0.98700 0.97920 0.00800
H 	H 	0.38890 0.00670 0.99180 0.02300
C 	C 	0.25470 0.96910 0.51050 -0.01000
C 	C 	0.41930 0.93670 0.05090 0.14900
O 	O 	0.38820 0.85280 0.19480 -0.53400
O 	O 	0.40240 0.77070 0.69580 -0.48600
O 	O 	0.19530 0.31500 0.85000 -2.04200
O 	O 	0.18700 0.77040 0.29660 -0.41900
O 	O 	0.10350 0.79290 0.30660 -0.48400
C 	C 	0.09050 0.50850 0.99660 0.00800
H 	H 	0.11610 0.49150 0.01350 0.02300
O 	O 	0.20000 0.28990 0.91850 -0.30700
C 	C 	0.38160 0.90260 0.13310 -0.25800
O 	O 	0.23450 0.18650 0.57710 -0.57400
C 	C 	0.39010 0.02520 0.86600 -0.24700
H 	H 	0.39760 0.99540 0.85340 0.09700
O 	O 	0.19090 0.63120 0.18590 -0.30000
C 	C 	0.47970 0.92190 0.98480 0.04300
H 	H 	0.49510 0.89690 0.00100 0.00100
C 	C 	0.11710 0.44280 0.89340 -0.59700
H 	H 	0.11120 0.46870 0.87460 0.13200
C 	C 	0.25660 0.87140 0.50120 -0.07900
H 	H 	0.25730 0.83810 0.49830 0.05800
C 	C 	0.22450 0.81850 0.36880 0.06800
H 	H 	0.24840 0.79860 0.35310 0.02800
O 	O 	0.30150 0.12860 0.79530 -0.52300
C 	C 	0.01160 0.55860 0.94640 -0.07500
C 	C 	0.54060 0.89810 0.92380 0.37800
C 	C 	0.39080 0.07730 0.92700 -0.26400
H 	H 	0.39840 0.08320 0.95660 0.12800
C 	C 	0.20980 0.87390 0.42980 0.06600
C 	C 	0.96980 0.58290 0.92050 0.14700
C 	C 	0.23650 0.08940 0.56450 0.14500
H 	H 	0.22730 0.10110 0.59230 -0.02600
C 	C 	0.08170 0.57090 0.05670 0.10900
C 	C 	0.30370 0.86120 0.57510 0.08600
C 	C 	0.15140 0.79310 0.31700 0.39700
C 	C 	0.14210 0.64180 0.17440 0.39500
O 	O 	0.25040 0.20190 0.50900 -0.28100
C 	C 	0.35480 0.77170 0.68280 0.38700
O 	O 	0.67850 0.76410 0.90810 -0.30100
C 	C 	0.31960 0.14050 0.83270 0.55000
C 	C 	0.36670 0.11260 0.90210 0.19700
H 	H 	0.36030 0.14270 0.91450 -0.04100
C 	C 	0.14880 0.36160 0.90500 -0.76900
C 	C 	0.17070 0.82350 0.35550 -0.15900
C 	C 	0.14030 0.40000 0.87750 0.56300
H 	H 	0.15010 0.39760 0.84790 -0.65200
C 	C 	0.17920 0.31820 0.88910 0.90100
C 	C 	0.33770 0.80500 0.64760 -0.16900
C 	C 	0.26630 0.83140 0.59740 -0.14200
H 	H 	0.22880 0.83210 0.59030 0.08500
C 	C 	0.93410 0.55730 0.89030 -0.24400
H 	H 	0.93760 0.52440 0.88610 0.09800
C 	C 	0.13740 0.85620 0.37790 0.06000
H 	H 	0.10120 0.86140 0.36840 -0.00800
C 	C 	0.28580 0.79980 0.63120 0.08100
H 	H 	0.26280 0.77560 0.64180 0.02200
C 	C 	0.36500 0.06070 0.84080 0.17100
H 	H 	0.35700 0.05490 0.81130 -0.04900
C 	C 	0.66690 0.79810 0.88190 1.06300
C 	C 	0.24360 0.84250 0.40520 -0.14000
H 	H 	0.28020 0.83790 0.41400 0.08200
O 	O 	0.82730 0.68130 0.85370 -0.30300
C 	C 	0.95920 0.63160 0.92620 -0.27500
H 	H 	0.97710 0.64800 0.94890 0.11700
C 	C 	0.24390 0.17410 0.53950 0.52100
C 	C 	0.89400 0.58370 0.86750 0.17900
H 	H 	0.86940 0.56710 0.84940 -0.06700
C 	C 	0.45500 0.91500 0.08130 -0.24200
H 	H 	0.49240 0.91200 0.07440 0.10900
C 	C 	0.92270 0.65680 0.89910 0.24400
H 	H 	0.92100 0.69020 0.90050 -0.07900
C 	C 	0.36910 0.94900 0.06570 -0.22700
H 	H 	0.34850 0.97120 0.04960 0.09200
C 	C 	0.43650 0.89840 0.12070 0.15600
H 	H 	0.46150 0.88380 0.13990 -0.05000
C 	C 	0.35340 0.86670 0.59320 -0.17000
H 	H 	0.37620 0.89170 0.58370 0.08900
C 	C 	0.35790 0.88260 0.17380 0.45800
C 	C 	0.62230 0.83420 0.89500 -0.80000
C 	C 	0.58400 0.85090 0.86500 -0.34700
H 	H 	0.58460 0.84020 0.83590 -0.18600
C 	C 	0.54380 0.88420 0.87900 0.25600
H 	H 	0.51920 0.89730 0.85870 -0.12800
C 	C 	0.62300 0.85140 0.93790 -0.77600
H 	H 	0.65120 0.84260 0.95730 0.30900
C 	C 	0.58090 0.88210 0.95140 0.80900
H 	H 	0.58020 0.89210 0.98060 -0.26200
C 	C 	0.88890 0.63180 0.87020 -0.39900
O 	O 	0.81820 0.61500 0.81420 -0.36400
C 	C 	0.83250 0.63810 0.84690 0.89600
H 	H 	0.28320 0.30790 0.73270 13.49100
C 	C 	0.58610 0.91380 0.89740 -1.01500
H 	H 	0.59120 0.94650 0.89230 0.32100
C 	C 	0.62200 0.88140 0.87980 1.07300
H 	H 	0.64630 0.89080 0.85760 -0.76100
C 	C 	0.58490 0.82090 0.92760 1.23500
H 	H 	0.58760 0.79060 0.94040 -0.39900
C 	C 	0.54370 0.85220 0.94130 -1.26000
H 	H 	0.51800 0.84240 0.96240 0.46600
O 	O 	0.19100 0.14220 0.82550 -0.48900
C 	C 	0.15230 0.16390 0.84410 -0.04700
O 	O 	0.15310 0.20880 0.84840 -0.25400
O 	O 	0.17800 0.27940 0.91230 -0.33700
O 	O 	0.30260 0.28310 0.91340 -0.44900
H 	H 	0.21920 0.31670 0.73750 13.53800
H 	H 	0.25640 0.31160 0.77970 13.91700
Eu	Eu	0.24364 0.26293 0.13687 2.97700
O 	O 	0.10990 0.83000 0.80600 -0.53200
O 	O 	0.24030 0.27100 0.21460 -10.94800
O 	O 	0.31780 0.75320 0.29790 -0.41000
C 	C 	0.40400 0.46660 0.09050 0.16200
O 	O 	0.31550 0.31790 0.15100 -0.49000
C 	C 	0.28180 0.60850 0.46180 0.00700
C 	C 	0.24020 0.46030 0.44230 -0.19900
H 	H 	0.23510 0.48100 0.41850 0.09400
O 	O 	0.31190 0.60810 0.81470 -0.40600
C 	C 	0.28110 0.55880 0.45820 -0.07600
H 	H 	0.29870 0.54410 0.43450 0.05700
C 	C 	0.43080 0.50520 0.06250 -0.08300
C 	C 	0.49800 0.57080 0.05790 -0.16600
C 	C 	0.23100 0.60260 0.53140 0.00600
C 	C 	0.26050 0.44720 0.51710 -0.18700
H 	H 	0.26860 0.45900 0.54500 0.04200
C 	C 	0.03900 0.98340 0.07030 0.02500
H 	H 	0.03040 0.99470 0.09840 -0.01200
C 	C 	0.47230 0.53320 0.08250 0.03500
H 	H 	0.48290 0.52730 0.11150 -0.00900
C 	C 	0.04450 0.90310 0.91630 -0.19800
H 	H 	0.00730 0.90070 0.92400 0.08000
C 	C 	0.10280 0.05410 0.06230 0.34600
C 	C 	0.15700 0.61870 0.58570 -0.15900
H 	H 	0.13410 0.59650 0.57170 0.07700
C 	C 	0.11970 0.88380 0.86570 -0.19700
C 	C 	0.13560 0.93410 0.92790 -0.18400
H 	H 	0.16040 0.95240 0.94440 0.09600
C 	C 	0.11360 0.09090 0.03440 -0.48800
H 	H 	0.10640 0.08750 0.00440 0.20100
C 	C 	0.13570 0.13440 0.05080 0.47500
H 	H 	0.14130 0.16030 0.03200 -0.12200
O 	O 	0.68160 0.70520 0.15630 -2.23800
C 	C 	0.22950 0.55320 0.52570 -0.07400
H 	H 	0.21120 0.53440 0.54650 0.03300
C 	C 	0.37210 0.66380 0.37400 0.09400
H 	H 	0.40950 0.66310 0.36640 -0.01300
C 	C 	0.07740 0.00690 0.04560 -0.13900
C 	C 	0.06410 0.88100 0.87770 0.10500
H 	H 	0.03940 0.86430 0.85980 -0.07600
C 	C 	0.25080 0.47870 0.48250 0.10500
C 	C 	0.25800 0.39820 0.51000 0.12300
H 	H 	0.26430 0.37740 0.53350 -0.04400
C 	C 	0.15390 0.91350 0.88970 0.10100
H 	H 	0.18980 0.91950 0.87980 0.00300
C 	C 	0.35180 0.39540 0.14090 -0.30200
C 	C 	0.06540 0.95020 0.98640 -0.04900
C 	C 	0.02570 0.92610 0.01170 -0.01500
H 	H 	0.00840 0.89910 -0.00000 0.03000
C 	C 	0.43880 0.54950 0.99550 -0.07500
C 	C 	0.24640 0.37930 0.46910 -0.23100
C 	C 	0.34600 0.56970 0.89590 0.10500
H 	H 	0.30880 0.56470 0.88900 -0.04500
C 	C 	0.41580 0.51300 0.02080 0.00600
H 	H 	0.38890 0.49330 0.00820 0.02300
C 	C 	0.25470 0.53090 0.48950 -0.01200
C 	C 	0.41930 0.56330 0.94910 0.14800
O 	O 	0.38820 0.64720 0.80520 -0.53400
O 	O 	0.40240 0.72930 0.30420 -0.48600
O 	O 	0.19530 0.18500 0.15000 -2.04200
O 	O 	0.18700 0.72960 0.70340 -0.41900
O 	O 	0.10350 0.70710 0.69340 -0.48400
C 	C 	0.09050 0.99150 0.00340 0.01200
H 	H 	0.11610 0.00850 0.98650 0.02100
O 	O 	0.20000 0.21010 0.08150 -0.30700
C 	C 	0.38160 0.59740 0.86690 -0.25800
O 	O 	0.23450 0.31350 0.42290 -0.57400
C 	C 	0.39010 0.47480 0.13400 -0.24600
H 	H 	0.39760 0.50460 0.14660 0.09700
O 	O 	0.19090 0.86880 0.81410 -0.30000
C 	C 	0.47970 0.57810 0.01520 0.04100
H 	H 	0.49510 0.60310 0.99900 0.00200
C 	C 	0.11710 0.05720 0.10660 -0.59900
H 	H 	0.11120 0.03130 0.12540 0.13200
C 	C 	0.25660 0.62860 0.49880 -0.07900
H 	H 	0.25730 0.66190 0.50170 0.05800
C 	C 	0.22450 0.68150 0.63120 0.06800
H 	H 	0.24840 0.70140 0.64690 0.02800
O 	O 	0.30150 0.37140 0.20470 -0.52300
C 	C 	0.01160 0.94140 0.05360 -0.07500
C 	C 	0.54060 0.60190 0.07620 0.37700
C 	C 	0.39080 0.42270 0.07300 -0.26400
H 	H 	0.39840 0.41680 0.04340 0.12800
C 	C 	0.20980 0.62610 0.57020 0.06700
C 	C 	0.96980 0.91710 0.07950 0.14600
C 	C 	0.23650 0.41060 0.43550 0.14600
H 	H 	0.22730 0.39890 0.40770 -0.02600
C 	C 	0.08170 0.92910 0.94330 0.11000
C 	C 	0.30370 0.63880 0.42490 0.08600
C 	C 	0.15140 0.70690 0.68300 0.39700
C 	C 	0.14210 0.85820 0.82560 0.39500
O 	O 	0.25040 0.29810 0.49100 -0.28100
C 	C 	0.35480 0.72830 0.31720 0.38700
O 	O 	0.67850 0.73590 0.09190 -0.30100
C 	C 	0.31960 0.35950 0.16730 0.55000
C 	C 	0.36670 0.38740 0.09790 0.19600
H 	H 	0.36030 0.35730 0.08550 -0.04100
C 	C 	0.14880 0.13840 0.09500 -0.76900
C 	C 	0.17070 0.67650 0.64450 -0.16000
C 	C 	0.14030 0.10000 0.12250 0.56400
H 	H 	0.15010 0.10240 0.15210 -0.65200
C 	C 	0.17920 0.18180 0.11090 0.90100
C 	C 	0.33770 0.69500 0.35240 -0.17000
C 	C 	0.26630 0.66860 0.40260 -0.14200
H 	H 	0.22880 0.66790 0.40970 0.08600
C 	C 	0.93410 0.94270 0.10970 -0.24400
H 	H 	0.93760 0.97560 0.11390 0.09800
C 	C 	0.13740 0.64380 0.62210 0.06100
H 	H 	0.10120 0.63860 0.63160 -0.00800
C 	C 	0.28580 0.70020 0.36880 0.08100
H 	H 	0.26280 0.72440 0.35820 0.02200
C 	C 	0.36500 0.43930 0.15920 0.17000
H 	H 	0.35700 0.44510 0.18870 -0.04900
C 	C 	0.66690 0.70190 0.11810 1.06300
C 	C 	0.24360 0.65750 0.59480 -0.14100
H 	H 	0.28020 0.66210 0.58600 0.08200
O 	O 	0.82730 0.81870 0.14630 -0.30300
C 	C 	0.95920 0.86840 0.07380 -0.27500
H 	H 	0.97710 0.85200 0.05110 0.11600
C 	C 	0.24390 0.32590 0.46050 0.52100
C 	C 	0.89400 0.91630 0.13250 0.17800
H 	H 	0.86940 0.93290 0.15060 -0.06700
C 	C 	0.45500 0.58500 0.91870 -0.24100
H 	H 	0.49240 0.58800 0.92560 0.10900
C 	C 	0.92270 0.84320 0.10090 0.24400
H 	H 	0.92100 0.80980 0.09950 -0.07900
C 	C 	0.36910 0.55100 0.93430 -0.22700
H 	H 	0.34850 0.52880 0.95040 0.09100
C 	C 	0.43650 0.60160 0.87930 0.15600
H 	H 	0.46150 0.61620 0.86010 -0.04900
C 	C 	0.35340 0.63330 0.40680 -0.17000
H 	H 	0.37620 0.60830 0.41630 0.08900
C 	C 	0.35790 0.61740 0.82620 0.45800
C 	C 	0.62230 0.66580 0.10500 -0.80000
C 	C 	0.58400 0.64910 0.13500 -0.34800
H 	H 	0.58460 0.65980 0.16410 -0.18500
C 	C 	0.54380 0.61580 0.12100 0.25700
H 	H 	0.51920 0.60270 0.14130 -0.12800
C 	C 	0.62300 0.64860 0.06210 -0.77800
H 	H 	0.65120 0.65740 0.04270 0.30900
C 	C 	0.58090 0.61790 0.04860 0.81000
H 	H 	0.58020 0.60790 0.01940 -0.26300
C 	C 	0.88890 0.86820 0.12980 -0.39900
O 	O 	0.81820 0.88500 0.18580 -0.36500
C 	C 	0.83250 0.86190 0.15310 0.89600
H 	H 	0.28320 0.19210 0.26730 13.48800
C 	C 	0.58610 0.58620 0.10260 -1.01500
H 	H 	0.59120 0.55350 0.10770 0.32100
C 	C 	0.62200 0.61860 0.12020 1.07400
H 	H 	0.64630 0.60920 0.14240 -0.76100
C 	C 	0.58490 0.67910 0.07240 1.23600
H 	H 	0.58760 0.70940 0.05960 -0.40000
C 	C 	0.54370 0.64780 0.05870 -1.26000
H 	H 	0.51800 0.65760 0.03760 0.46600
O 	O 	0.19100 0.35780 0.17450 -0.48900
C 	C 	0.15230 0.33610 0.15590 -0.04700
O 	O 	0.15310 0.29120 0.15160 -0.25400
O 	O 	0.17800 0.22060 0.08770 -0.33700
O 	O 	0.30260 0.21690 0.08660 -0.44900
H 	H 	0.21920 0.18330 0.26250 13.53500
H 	H 	0.25640 0.18840 0.22030 13.91500
Eu	Eu	0.75636 0.73707 0.63687 2.97700
O 	O 	0.89010 0.17000 0.30600 -0.53200
O 	O 	0.75970 0.72900 0.71460 -10.94800
O 	O 	0.68220 0.24680 0.79790 -0.41000
C 	C 	0.59600 0.53340 0.59050 0.16200
O 	O 	0.68450 0.68210 0.65100 -0.49000
C 	C 	0.71820 0.39150 0.96180 0.00600
C 	C 	0.75980 0.53970 0.94230 -0.19900
H 	H 	0.76490 0.51900 0.91850 0.09400
O 	O 	0.68810 0.39190 0.31470 -0.40600
C 	C 	0.71890 0.44120 0.95820 -0.07600
H 	H 	0.70130 0.45590 0.93450 0.05700
C 	C 	0.56920 0.49480 0.56250 -0.08400
C 	C 	0.50200 0.42920 0.55790 -0.16700
C 	C 	0.76900 0.39740 0.03140 0.00500
C 	C 	0.73950 0.55280 0.01710 -0.18700
H 	H 	0.73140 0.54100 0.04500 0.04200
C 	C 	0.96100 0.01660 0.57030 0.02400
H 	H 	0.96960 0.00530 0.59840 -0.01200
C 	C 	0.52770 0.46680 0.58250 0.03600
H 	H 	0.51710 0.47270 0.61150 -0.00900
C 	C 	0.95550 0.09690 0.41630 -0.19800
H 	H 	0.99270 0.09930 0.42400 0.08000
C 	C 	0.89720 0.94590 0.56230 0.34600
C 	C 	0.84300 0.38130 0.08570 -0.15900
H 	H 	0.86590 0.40350 0.07170 0.07700
C 	C 	0.88030 0.11620 0.36570 -0.19700
C 	C 	0.86440 0.06590 0.42790 -0.18400
H 	H 	0.83960 0.04760 0.44440 0.09600
C 	C 	0.88640 0.90910 0.53440 -0.48800
H 	H 	0.89360 0.91250 0.50440 0.20200
C 	C 	0.86430 0.86560 0.55080 0.47500
H 	H 	0.85870 0.83970 0.53200 -0.12100
O 	O 	0.31840 0.29480 0.65630 -2.23800
C 	C 	0.77050 0.44680 0.02570 -0.07400
H 	H 	0.78880 0.46560 0.04650 0.03300
C 	C 	0.62790 0.33620 0.87400 0.09400
H 	H 	0.59050 0.33690 0.86640 -0.01300
C 	C 	0.92260 0.99310 0.54560 -0.13800
C 	C 	0.93590 0.11900 0.37770 0.10500
H 	H 	0.96060 0.13570 0.35980 -0.07600
C 	C 	0.74920 0.52130 0.98250 0.10500
C 	C 	0.74200 0.60180 0.01000 0.12200
H 	H 	0.73570 0.62260 0.03350 -0.04400
C 	C 	0.84610 0.08650 0.38970 0.10100
H 	H 	0.81020 0.08050 0.37980 0.00300
C 	C 	0.64820 0.60460 0.64090 -0.30200
C 	C 	0.93460 0.04980 0.48640 -0.04900
C 	C 	0.97430 0.07390 0.51170 -0.01500
H 	H 	0.99160 0.10090 0.50000 0.03000
C 	C 	0.56120 0.45050 0.49550 -0.07600
C 	C 	0.75360 0.62070 0.96910 -0.23100
C 	C 	0.65400 0.43030 0.39590 0.10500
H 	H 	0.69120 0.43530 0.38900 -0.04500
C 	C 	0.58420 0.48700 0.52080 0.00800
H 	H 	0.61110 0.50670 0.50820 0.02300
C 	C 	0.74530 0.46910 0.98950 -0.01200
C 	C 	0.58070 0.43670 0.44910 0.14900
O 	O 	0.61180 0.35280 0.30520 -0.53400
O 	O 	0.59760 0.27070 0.80420 -0.48600
O 	O 	0.80470 0.81500 0.65000 -2.04200
O 	O 	0.81300 0.27040 0.20340 -0.41900
O 	O 	0.89650 0.29290 0.19340 -0.48400
C 	C 	0.90950 0.00850 0.50340 0.01300
H 	H 	0.88390 0.99150 0.48650 0.02100
O 	O 	0.80000 0.78990 0.58150 -0.30700
C 	C 	0.61840 0.40260 0.36690 -0.25800
O 	O 	0.76550 0.68650 0.92290 -0.57400
C 	C 	0.60990 0.52520 0.63400 -0.24700
H 	H 	0.60240 0.49540 0.64660 0.09700
O 	O 	0.80910 0.13120 0.31410 -0.30000
C 	C 	0.52030 0.42190 0.51520 0.04200
H 	H 	0.50490 0.39690 0.49900 0.00200
C 	C 	0.88290 0.94280 0.60660 -0.59900
H 	H 	0.88880 0.96870 0.62540 0.13200
C 	C 	0.74340 0.37140 0.99880 -0.07700
H 	H 	0.74270 0.33810 0.00170 0.05700
C 	C 	0.77550 0.31850 0.13120 0.06900
H 	H 	0.75160 0.29860 0.14690 0.02800
O 	O 	0.69850 0.62860 0.70470 -0.52300
C 	C 	0.98840 0.05860 0.55360 -0.07500
C 	C 	0.45940 0.39810 0.57620 0.37800
C 	C 	0.60920 0.57730 0.57300 -0.26400
H 	H 	0.60160 0.58320 0.54340 0.12800
C 	C 	0.79020 0.37390 0.07020 0.06700
C 	C 	0.03020 0.08290 0.57950 0.14600
C 	C 	0.76350 0.58940 0.93550 0.14600
H 	H 	0.77270 0.60110 0.90770 -0.02600
C 	C 	0.91830 0.07090 0.44330 0.11000
C 	C 	0.69630 0.36120 0.92490 0.08700
C 	C 	0.84860 0.29310 0.18300 0.39700
C 	C 	0.85790 0.14180 0.32560 0.39500
O 	O 	0.74960 0.70190 0.99100 -0.28200
C 	C 	0.64520 0.27170 0.81720 0.38700
O 	O 	0.32150 0.26410 0.59190 -0.30100
C 	C 	0.68040 0.64050 0.66730 0.55000
C 	C 	0.63330 0.61260 0.59790 0.19700
H 	H 	0.63970 0.64270 0.58550 -0.04100
C 	C 	0.85120 0.86160 0.59500 -0.76900
C 	C 	0.82930 0.32350 0.14450 -0.16000
C 	C 	0.85970 0.90000 0.62250 0.56400
H 	H 	0.84990 0.89760 0.65210 -0.65200
C 	C 	0.82080 0.81820 0.61090 0.90100
C 	C 	0.66230 0.30500 0.85240 -0.17000
C 	C 	0.73370 0.33140 0.90260 -0.14300
H 	H 	0.77120 0.33210 0.90970 0.08600
C 	C 	0.06590 0.05730 0.60970 -0.24400
H 	H 	0.06240 0.02440 0.61390 0.09800
C 	C 	0.86260 0.35620 0.12210 0.06100
H 	H 	0.89880 0.36140 0.13160 -0.00800
C 	C 	0.71420 0.29980 0.86880 0.08100
H 	H 	0.73720 0.27560 0.85820 0.02200
C 	C 	0.63500 0.56070 0.65920 0.17000
H 	H 	0.64300 0.55490 0.68870 -0.04900
C 	C 	0.33310 0.29810 0.61810 1.06300
C 	C 	0.75640 0.34250 0.09480 -0.14100
H 	H 	0.71980 0.33790 0.08600 0.08200
O 	O 	0.17270 0.18130 0.64630 -0.30300
C 	C 	0.04080 0.13160 0.57380 -0.27500
H 	H 	0.02290 0.14800 0.55110 0.11700
C 	C 	0.75610 0.67410 0.96050 0.52100
C 	C 	0.10600 0.08370 0.63250 0.17800
H 	H 	0.13060 0.06710 0.65060 -0.06700
C 	C 	0.54500 0.41500 0.41870 -0.24100
H 	H 	0.50760 0.41200 0.42560 0.10900
C 	C 	0.07730 0.15680 0.60090 0.24400
H 	H 	0.07900 0.19020 0.59950 -0.07900
C 	C 	0.63090 0.44900 0.43430 -0.22700
H 	H 	0.65150 0.47120 0.45040 0.09200
C 	C 	0.56350 0.39840 0.37930 0.15600
H 	H 	0.53850 0.38380 0.36010 -0.05000
C 	C 	0.64660 0.36670 0.90680 -0.17000
H 	H 	0.62380 0.39170 0.91630 0.08900
C 	C 	0.64210 0.38260 0.32620 0.45800
C 	C 	0.37770 0.33420 0.60500 -0.80000
C 	C 	0.41600 0.35090 0.63500 -0.34700
H 	H 	0.41540 0.34020 0.66410 -0.18600
C 	C 	0.45620 0.38420 0.62100 0.25600
H 	H 	0.48080 0.39730 0.64130 -0.12800
C 	C 	0.37700 0.35140 0.56210 -0.77700
H 	H 	0.34880 0.34260 0.54270 0.30900
C 	C 	0.41910 0.38210 0.54860 0.80900
H 	H 	0.41980 0.39210 0.51940 -0.26200
C 	C 	0.11110 0.13180 0.62980 -0.39900
O 	O 	0.18180 0.11500 0.68580 -0.36500
C 	C 	0.16750 0.13810 0.65310 0.89600
H 	H 	0.71680 0.80790 0.76730 13.48800
C 	C 	0.41390 0.41380 0.60260 -1.01500
H 	H 	0.40880 0.44650 0.60770 0.32100
C 	C 	0.37800 0.38140 0.62020 1.07400
H 	H 	0.35370 0.39080 0.64240 -0.76100
C 	C 	0.41510 0.32090 0.57240 1.23500
H 	H 	0.41240 0.29060 0.55960 -0.39900
C 	C 	0.45630 0.35220 0.55870 -1.26000
H 	H 	0.48200 0.34240 0.53760 0.46600
O 	O 	0.80900 0.64220 0.67450 -0.48900
C 	C 	0.84770 0.66390 0.65590 -0.04700
O 	O 	0.84690 0.70880 0.65160 -0.25400
O 	O 	0.82200 0.77940 0.58770 -0.33700
O 	O 	0.69740 0.78310 0.58660 -0.44900
H 	H 	0.78080 0.81670 0.76250 13.53500
H 	H 	0.74360 0.81160 0.72030 13.91500
Eu	Eu	0.24364 0.23707 0.63687 2.97700
O 	O 	0.10990 0.67000 0.30600 -0.53200
O 	O 	0.24030 0.22900 0.71460 -10.95000
O 	O 	0.31780 0.74680 0.79790 -0.41000
C 	C 	0.40400 0.03340 0.59050 0.16300
O 	O 	0.31550 0.18210 0.65100 -0.49000
C 	C 	0.28180 0.89150 0.96180 0.00700
C 	C 	0.24020 0.03970 0.94230 -0.19800
H 	H 	0.23510 0.01900 0.91850 0.09400
O 	O 	0.31190 0.89190 0.31470 -0.40600
C 	C 	0.28110 0.94120 0.95820 -0.07700
H 	H 	0.29870 0.95590 0.93450 0.05700
C 	C 	0.43080 0.99480 0.56250 -0.08500
C 	C 	0.49800 0.92920 0.55790 -0.16700
C 	C 	0.23100 0.89740 0.03140 0.00600
C 	C 	0.26050 0.05280 0.01710 -0.18700
H 	H 	0.26860 0.04100 0.04500 0.04200
C 	C 	0.03900 0.51660 0.57030 0.02100
H 	H 	0.03040 0.50530 0.59840 -0.01100
C 	C 	0.47230 0.96680 0.58250 0.03600
H 	H 	0.48290 0.97270 0.61150 -0.01000
C 	C 	0.04450 0.59690 0.41630 -0.19700
H 	H 	0.00730 0.59930 0.42400 0.08000
C 	C 	0.10280 0.44590 0.56230 0.34400
C 	C 	0.15700 0.88130 0.08570 -0.15900
H 	H 	0.13410 0.90350 0.07170 0.07700
C 	C 	0.11970 0.61620 0.36570 -0.19600
C 	C 	0.13560 0.56590 0.42790 -0.18200
H 	H 	0.16040 0.54760 0.44440 0.09500
C 	C 	0.11360 0.40910 0.53440 -0.48700
H 	H 	0.10640 0.41250 0.50440 0.20100
C 	C 	0.13570 0.36560 0.55080 0.47400
H 	H 	0.14130 0.33970 0.53200 -0.12100
O 	O 	0.68160 0.79480 0.65630 -2.23700
C 	C 	0.22950 0.94680 0.02570 -0.07500
H 	H 	0.21120 0.96560 0.04650 0.03300
C 	C 	0.37210 0.83620 0.87400 0.09400
H 	H 	0.40950 0.83690 0.86640 -0.01300
C 	C 	0.07740 0.49310 0.54560 -0.13200
C 	C 	0.06410 0.61900 0.37770 0.10400
H 	H 	0.03940 0.63570 0.35980 -0.07500
C 	C 	0.25080 0.02130 0.98250 0.10500
C 	C 	0.25800 0.10180 0.01000 0.12100
H 	H 	0.26430 0.12260 0.03350 -0.04400
C 	C 	0.15390 0.58650 0.38970 0.10000
H 	H 	0.18980 0.58050 0.37980 0.00300
C 	C 	0.35180 0.10460 0.64090 -0.30300
C 	C 	0.06540 0.54980 0.48640 -0.04600
C 	C 	0.02570 0.57390 0.51170 -0.01700
H 	H 	0.00840 0.60090 0.50000 0.03000
C 	C 	0.43880 0.95050 0.49550 -0.07600
C 	C 	0.24640 0.12070 0.96910 -0.23000
C 	C 	0.34600 0.93030 0.39590 0.10500
H 	H 	0.30880 0.93530 0.38900 -0.04500
C 	C 	0.41580 0.98700 0.52080 0.00900
H 	H 	0.38890 0.00670 0.50820 0.02300
C 	C 	0.25470 0.96910 0.98950 -0.01200
C 	C 	0.41930 0.93670 0.44910 0.14900
O 	O 	0.38820 0.85280 0.30520 -0.53400
O 	O 	0.40240 0.77070 0.80420 -0.48600
O 	O 	0.19530 0.31500 0.65000 -2.04200
O 	O 	0.18700 0.77040 0.20340 -0.41900
O 	O 	0.10350 0.79290 0.19340 -0.48400
C 	C 	0.09050 0.50850 0.50340 0.00700
H 	H 	0.11610 0.49150 0.48650 0.02400
O 	O 	0.20000 0.28990 0.58150 -0.30700
C 	C 	0.38160 0.90260 0.36690 -0.25800
O 	O 	0.23450 0.18650 0.92290 -0.57400
C 	C 	0.39010 0.02520 0.63400 -0.24800
H 	H 	0.39760 0.99540 0.64660 0.09700
O 	O 	0.19090 0.63120 0.31410 -0.30000
C 	C 	0.47970 0.92190 0.51520 0.04300
H 	H 	0.49510 0.89690 0.49900 0.00200
C 	C 	0.11710 0.44280 0.60660 -0.59700
H 	H 	0.11120 0.46870 0.62540 0.13200
C 	C 	0.25660 0.87140 0.99880 -0.07900
H 	H 	0.25730 0.83810 0.00170 0.05800
C 	C 	0.22450 0.81850 0.13120 0.06800
H 	H 	0.24840 0.79860 0.14690 0.02800
O 	O 	0.30150 0.12860 0.70470 -0.52300
C 	C 	0.01160 0.55860 0.55360 -0.07400
C 	C 	0.54060 0.89810 0.57620 0.37800
C 	C 	0.39080 0.07730 0.57300 -0.26400
H 	H 	0.39840 0.08320 0.54340 0.12800
C 	C 	0.20980 0.87390 0.07020 0.06600
C 	C 	0.96980 0.58290 0.57950 0.14600
C 	C 	0.23650 0.08940 0.93550 0.14500
H 	H 	0.22730 0.10110 0.90770 -0.02600
C 	C 	0.08170 0.57090 0.44330 0.10800
C 	C 	0.30370 0.86120 0.92490 0.08600
C 	C 	0.15140 0.79310 0.18300 0.39700
C 	C 	0.14210 0.64180 0.32560 0.39500
O 	O 	0.25040 0.20190 0.99100 -0.28100
C 	C 	0.35480 0.77170 0.81720 0.38700
O 	O 	0.67850 0.76410 0.59190 -0.30100
C 	C 	0.31960 0.14050 0.66730 0.55000
C 	C 	0.36670 0.11260 0.59790 0.19700
H 	H 	0.36030 0.14270 0.58550 -0.04100
C 	C 	0.14880 0.36160 0.59500 -0.76800
C 	C 	0.17070 0.82350 0.14450 -0.15900
C 	C 	0.14030 0.40000 0.62250 0.56300
H 	H 	0.15010 0.39760 0.65210 -0.65200
C 	C 	0.17920 0.31820 0.61090 0.90100
C 	C 	0.33770 0.80500 0.85240 -0.16900
C 	C 	0.26630 0.83140 0.90260 -0.14200
H 	H 	0.22880 0.83210 0.90970 0.08500
C 	C 	0.93410 0.55730 0.60970 -0.24400
H 	H 	0.93760 0.52440 0.61390 0.09800
C 	C 	0.13740 0.85620 0.12210 0.06000
H 	H 	0.10120 0.86140 0.13160 -0.00800
C 	C 	0.28580 0.79980 0.86880 0.08100
H 	H 	0.26280 0.77560 0.85820 0.02200
C 	C 	0.36500 0.06070 0.65920 0.17100
H 	H 	0.35700 0.05490 0.68870 -0.04900
C 	C 	0.66690 0.79810 0.61810 1.06300
C 	C 	0.24360 0.84250 0.09480 -0.14100
H 	H 	0.28020 0.83790 0.08600 0.08200
O 	O 	0.82730 0.68130 0.64630 -0.30300
C 	C 	0.95920 0.63160 0.57380 -0.27500
H 	H 	0.97710 0.64800 0.55110 0.11700
C 	C 	0.24390 0.17410 0.96050 0.52000
C 	C 	0.89400 0.58370 0.63250 0.17900
H 	H 	0.86940 0.56710 0.65060 -0.06700
C 	C 	0.45500 0.91500 0.41870 -0.24200
H 	H 	0.49240 0.91200 0.42560 0.10900
C 	C 	0.92270 0.65680 0.60090 0.24400
H 	H 	0.92100 0.69020 0.59950 -0.07900
C 	C 	0.36910 0.94900 0.43430 -0.22700
H 	H 	0.34850 0.97120 0.45040 0.09200
C 	C 	0.43650 0.89840 0.37930 0.15600
H 	H 	0.46150 0.88380 0.36010 -0.05000
C 	C 	0.35340 0.86670 0.90680 -0.17000
H 	H 	0.37620 0.89170 0.91630 0.08900
C 	C 	0.35790 0.88260 0.32620 0.45800
C 	C 	0.62230 0.83420 0.60500 -0.80000
C 	C 	0.58400 0.85090 0.63500 -0.34700
H 	H 	0.58460 0.84020 0.66410 -0.18600
C 	C 	0.54380 0.88420 0.62100 0.25600
H 	H 	0.51920 0.89730 0.64130 -0.12800
C 	C 	0.62300 0.85140 0.56210 -0.77600
H 	H 	0.65120 0.84260 0.54270 0.30900
C 	C 	0.58090 0.88210 0.54860 0.80900
H 	H 	0.58020 0.89210 0.51940 -0.26200
C 	C 	0.88890 0.63180 0.62980 -0.39900
O 	O 	0.81820 0.61500 0.68580 -0.36400
C 	C 	0.83250 0.63810 0.65310 0.89600
H 	H 	0.28320 0.30790 0.76730 13.49100
C 	C 	0.58610 0.91380 0.60260 -1.01500
H 	H 	0.59120 0.94650 0.60770 0.32100
C 	C 	0.62200 0.88140 0.62020 1.07300
H 	H 	0.64630 0.89080 0.64240 -0.76100
C 	C 	0.58490 0.82090 0.57240 1.23500
H 	H 	0.58760 0.79060 0.55960 -0.39900
C 	C 	0.54370 0.85220 0.55870 -1.26000
H 	H 	0.51800 0.84240 0.53760 0.46600
O 	O 	0.19100 0.14220 0.67450 -0.48900
C 	C 	0.15230 0.16390 0.65590 -0.04800
O 	O 	0.15310 0.20880 0.65160 -0.25400
O 	O 	0.17800 0.27940 0.58770 -0.33700
O 	O 	0.30260 0.28310 0.58660 -0.44900
H 	H 	0.21920 0.31670 0.76250 13.53800
H 	H 	0.25640 0.31160 0.72030 13.91700
Eu	Eu	0.75636 0.76293 0.13687 2.97700
O 	O 	0.89010 0.33000 0.80600 -0.53200
O 	O 	0.75970 0.77100 0.21460 -10.95000
O 	O 	0.68220 0.25320 0.29790 -0.41000
C 	C 	0.59600 0.96660 0.09050 0.16100
O 	O 	0.68450 0.81790 0.15100 -0.49000
C 	C 	0.71820 0.10850 0.46180 0.00800
C 	C 	0.75980 0.96030 0.44230 -0.19700
H 	H 	0.76490 0.98100 0.41850 0.09300
O 	O 	0.68810 0.10810 0.81470 -0.40600
C 	C 	0.71890 0.05880 0.45820 -0.07700
H 	H 	0.70130 0.04410 0.43450 0.05800
C 	C 	0.56920 0.00520 0.06250 -0.08200
C 	C 	0.50200 0.07080 0.05790 -0.16500
C 	C 	0.76900 0.10260 0.53140 0.00700
C 	C 	0.73950 0.94720 0.51710 -0.18500
H 	H 	0.73140 0.95900 0.54500 0.04200
C 	C 	0.96100 0.48340 0.07030 0.01900
H 	H 	0.96960 0.49470 0.09840 -0.01000
C 	C 	0.52770 0.03320 0.08250 0.03400
H 	H 	0.51710 0.02730 0.11150 -0.00900
C 	C 	0.95550 0.40310 0.91630 -0.19700
H 	H 	0.99270 0.40070 0.92400 0.07900
C 	C 	0.89720 0.55410 0.06230 0.34300
C 	C 	0.84300 0.11870 0.58570 -0.15900
H 	H 	0.86590 0.09650 0.57170 0.07700
C 	C 	0.88030 0.38380 0.86570 -0.19600
C 	C 	0.86440 0.43410 0.92790 -0.18200
H 	H 	0.83960 0.45240 0.94440 0.09500
C 	C 	0.88640 0.59090 0.03440 -0.48600
H 	H 	0.89360 0.58750 0.00440 0.20100
C 	C 	0.86430 0.63440 0.05080 0.47300
H 	H 	0.85870 0.66030 0.03200 -0.12100
O 	O 	0.31840 0.20520 0.15630 -2.23700
C 	C 	0.77050 0.05320 0.52570 -0.07500
H 	H 	0.78880 0.03440 0.54650 0.03300
C 	C 	0.62790 0.16380 0.37400 0.09400
H 	H 	0.59050 0.16310 0.36640 -0.01300
C 	C 	0.92260 0.50690 0.04560 -0.13100
C 	C 	0.93590 0.38100 0.87770 0.10300
H 	H 	0.96060 0.36430 0.85980 -0.07500
C 	C 	0.74920 0.97870 0.48250 0.10300
C 	C 	0.74200 0.89820 0.51000 0.12200
H 	H 	0.73570 0.87740 0.53350 -0.04400
C 	C 	0.84610 0.41350 0.88970 0.09900
H 	H 	0.81020 0.41950 0.87980 0.00300
C 	C 	0.64820 0.89540 0.14090 -0.30200
C 	C 	0.93460 0.45020 0.98640 -0.04400
C 	C 	0.97430 0.42610 0.01170 -0.01900
H 	H 	0.99160 0.39910 -0.00000 0.03100
C 	C 	0.56120 0.04950 0.99550 -0.07300
C 	C 	0.75360 0.87930 0.46910 -0.23000
C 	C 	0.65400 0.06970 0.89590 0.10400
H 	H 	0.69120 0.06470 0.88900 -0.04500
C 	C 	0.58420 0.01300 0.02080 0.00500
H 	H 	0.61110 0.99330 0.00820 0.02400
C 	C 	0.74530 0.03090 0.48950 -0.01100
C 	C 	0.58070 0.06330 0.94910 0.14700
O 	O 	0.61180 0.14720 0.80520 -0.53400
O 	O 	0.59760 0.22930 0.30420 -0.48600
O 	O 	0.80470 0.68500 0.15000 -2.04200
O 	O 	0.81300 0.22960 0.70340 -0.41900
O 	O 	0.89650 0.20710 0.69340 -0.48400
C 	C 	0.90950 0.49150 0.00340 0.00300
H 	H 	0.88390 0.50850 0.98650 0.02500
O 	O 	0.80000 0.71010 0.08150 -0.30700
C 	C 	0.61840 0.09740 0.86690 -0.25800
O 	O 	0.76550 0.81350 0.42290 -0.57400
C 	C 	0.60990 0.97480 0.13400 -0.24600
H 	H 	0.60240 0.00460 0.14660 0.09600
O 	O 	0.80910 0.36880 0.81410 -0.30000
C 	C 	0.52030 0.07810 0.01520 0.03800
H 	H 	0.50490 0.10310 0.99900 0.00300
C 	C 	0.88290 0.55720 0.10660 -0.59600
H 	H 	0.88880 0.53130 0.12540 0.13200
C 	C 	0.74340 0.12860 0.49880 -0.07900
H 	H 	0.74270 0.16190 0.50170 0.05800
C 	C 	0.77550 0.18150 0.63120 0.06800
H 	H 	0.75160 0.20140 0.64690 0.02800
O 	O 	0.69850 0.87140 0.20470 -0.52300
C 	C 	0.98840 0.44140 0.05360 -0.07200
C 	C 	0.45940 0.10190 0.07620 0.37700
C 	C 	0.60920 0.92270 0.07300 -0.26300
H 	H 	0.60160 0.91680 0.04340 0.12800
C 	C 	0.79020 0.12610 0.57020 0.06600
C 	C 	0.03020 0.41710 0.07950 0.14500
C 	C 	0.76350 0.91060 0.43550 0.14500
H 	H 	0.77270 0.89890 0.40770 -0.02600
C 	C 	0.91830 0.42910 0.94330 0.10700
C 	C 	0.69630 0.13880 0.42490 0.08600
C 	C 	0.84860 0.20690 0.68300 0.39700
C 	C 	0.85790 0.35820 0.82560 0.39500
O 	O 	0.74960 0.79810 0.49100 -0.28100
C 	C 	0.64520 0.22830 0.31720 0.38700
O 	O 	0.32150 0.23590 0.09190 -0.30100
C 	C 	0.68040 0.85950 0.16730 0.54900
C 	C 	0.63330 0.88740 0.09790 0.19600
H 	H 	0.63970 0.85730 0.08550 -0.04100
C 	C 	0.85120 0.63840 0.09500 -0.76800
C 	C 	0.82930 0.17650 0.64450 -0.15900
C 	C 	0.85970 0.60000 0.12250 0.56300
H 	H 	0.84990 0.60240 0.15210 -0.65200
C 	C 	0.82080 0.68180 0.11090 0.90100
C 	C 	0.66230 0.19500 0.35240 -0.16900
C 	C 	0.73370 0.16860 0.40260 -0.14200
H 	H 	0.77120 0.16790 0.40970 0.08500
C 	C 	0.06590 0.44270 0.10970 -0.24400
H 	H 	0.06240 0.47560 0.11390 0.09800
C 	C 	0.86260 0.14380 0.62210 0.06000
H 	H 	0.89880 0.13860 0.63160 -0.00800
C 	C 	0.71420 0.20020 0.36880 0.08100
H 	H 	0.73720 0.22440 0.35820 0.02200
C 	C 	0.63500 0.93930 0.15920 0.17000
H 	H 	0.64300 0.94510 0.18870 -0.04900
C 	C 	0.33310 0.20190 0.11810 1.06200
C 	C 	0.75640 0.15750 0.59480 -0.14000
H 	H 	0.71980 0.16210 0.58600 0.08200
O 	O 	0.17270 0.31870 0.14630 -0.30300
C 	C 	0.04080 0.36840 0.07380 -0.27400
H 	H 	0.02290 0.35200 0.05110 0.11600
C 	C 	0.75610 0.82590 0.46050 0.52100
C 	C 	0.10600 0.41630 0.13250 0.17800
H 	H 	0.13060 0.43290 0.15060 -0.06700
C 	C 	0.54500 0.08500 0.91870 -0.24000
H 	H 	0.50760 0.08800 0.92560 0.10800
C 	C 	0.07730 0.34320 0.10090 0.24400
H 	H 	0.07900 0.30980 0.09950 -0.07900
C 	C 	0.63090 0.05100 0.93430 -0.22600
H 	H 	0.65150 0.02880 0.95040 0.09100
C 	C 	0.56350 0.10160 0.87930 0.15500
H 	H 	0.53850 0.11620 0.86010 -0.04900
C 	C 	0.64660 0.13330 0.40680 -0.17000
H 	H 	0.62380 0.10830 0.41630 0.08900
C 	C 	0.64210 0.11740 0.82620 0.45800
C 	C 	0.37770 0.16580 0.10500 -0.79900
C 	C 	0.41600 0.14910 0.13500 -0.34700
H 	H 	0.41540 0.15980 0.16410 -0.18500
C 	C 	0.45620 0.11580 0.12100 0.25700
H 	H 	0.48080 0.10270 0.14130 -0.12800
C 	C 	0.37700 0.14860 0.06210 -0.77700
H 	H 	0.34880 0.15740 0.04270 0.30900
C 	C 	0.41910 0.11790 0.04860 0.81000
H 	H 	0.41980 0.10790 0.01940 -0.26300
C 	C 	0.11110 0.36820 0.12980 -0.39900
O 	O 	0.18180 0.38500 0.18580 -0.36400
C 	C 	0.16750 0.36190 0.15310 0.89600
H 	H 	0.71680 0.69210 0.26730 13.49000
C 	C 	0.41390 0.08620 0.10260 -1.01500
H 	H 	0.40880 0.05350 0.10770 0.32100
C 	C 	0.37800 0.11860 0.12020 1.07300
H 	H 	0.35370 0.10920 0.14240 -0.76100
C 	C 	0.41510 0.17910 0.07240 1.23500
H 	H 	0.41240 0.20940 0.05960 -0.39900
C 	C 	0.45630 0.14780 0.05870 -1.25900
H 	H 	0.48200 0.15760 0.03760 0.46500
O 	O 	0.80900 0.85780 0.17450 -0.48900
C 	C 	0.84770 0.83610 0.15590 -0.04700
O 	O 	0.84690 0.79120 0.15160 -0.25400
O 	O 	0.82200 0.72060 0.08770 -0.33700
O 	O 	0.69740 0.71690 0.08660 -0.44900
H 	H 	0.78080 0.68330 0.26250 13.53800
H 	H 	0.74360 0.68840 0.22030 13.91700
Eu	Eu	0.75636 0.73707 0.86313 2.97700
O 	O 	0.89010 0.17000 0.19400 -0.53200
O 	O 	0.75970 0.72900 0.78540 -10.94800
O 	O 	0.68220 0.24680 0.70210 -0.41000
C 	C 	0.59600 0.53340 0.90950 0.16300
O 	O 	0.68450 0.68210 0.84900 -0.49000
C 	C 	0.71820 0.39150 0.53820 0.00700
C 	C 	0.75980 0.53970 0.55770 -0.19900
H 	H 	0.76490 0.51900 0.58150 0.09400
O 	O 	0.68810 0.39190 0.18530 -0.40600
C 	C 	0.71890 0.44120 0.54180 -0.07600
H 	H 	0.70130 0.45590 0.56550 0.05700
C 	C 	0.56920 0.49480 0.93750 -0.08500
C 	C 	0.50200 0.42920 0.94210 -0.16900
C 	C 	0.76900 0.39740 0.46860 0.00600
C 	C 	0.73950 0.55280 0.48290 -0.18700
H 	H 	0.73140 0.54100 0.45500 0.04200
C 	C 	0.96100 0.01660 0.92970 0.02700
H 	H 	0.96960 0.00530 0.90160 -0.01300
C 	C 	0.52770 0.46680 0.91750 0.03700
H 	H 	0.51710 0.47270 0.88850 -0.01000
C 	C 	0.95550 0.09690 0.08370 -0.20000
H 	H 	0.99270 0.09930 0.07600 0.08100
C 	C 	0.89720 0.94590 0.93770 0.34700
C 	C 	0.84300 0.38130 0.41430 -0.15900
H 	H 	0.86590 0.40350 0.42830 0.07700
C 	C 	0.88030 0.11620 0.13430 -0.19700
C 	C 	0.86440 0.06590 0.07210 -0.18500
H 	H 	0.83960 0.04760 0.05560 0.09600
C 	C 	0.88640 0.90910 0.96560 -0.48900
H 	H 	0.89360 0.91250 0.99560 0.20200
C 	C 	0.86430 0.86560 0.94920 0.47600
H 	H 	0.85870 0.83970 0.96800 -0.12200
O 	O 	0.31840 0.29480 0.84370 -2.23800
C 	C 	0.77050 0.44680 0.47430 -0.07400
H 	H 	0.78880 0.46560 0.45350 0.03300
C 	C 	0.62790 0.33620 0.62600 0.09400
H 	H 	0.59050 0.33690 0.63360 -0.01300
C 	C 	0.92260 0.99310 0.95440 -0.14100
C 	C 	0.93590 0.11900 0.12230 0.10600
H 	H 	0.96060 0.13570 0.14020 -0.07600
C 	C 	0.74920 0.52130 0.51750 0.10500
C 	C 	0.74200 0.60180 0.49000 0.12300
H 	H 	0.73570 0.62260 0.46650 -0.04400
C 	C 	0.84610 0.08650 0.11030 0.10200
H 	H 	0.81020 0.08050 0.12020 0.00300
C 	C 	0.64820 0.60460 0.85910 -0.30300
C 	C 	0.93460 0.04980 0.01360 -0.05300
C 	C 	0.97430 0.07390 0.98830 -0.01100
H 	H 	0.99160 0.10090 -0.00000 0.02800
C 	C 	0.56120 0.45050 0.00450 -0.07900
C 	C 	0.75360 0.62070 0.53090 -0.23100
C 	C 	0.65400 0.43030 0.10410 0.10600
H 	H 	0.69120 0.43530 0.11100 -0.04600
C 	C 	0.58420 0.48700 0.97920 0.01000
H 	H 	0.61110 0.50670 0.99180 0.02200
C 	C 	0.74530 0.46910 0.51050 -0.01200
C 	C 	0.58070 0.43670 0.05090 0.15000
O 	O 	0.61180 0.35280 0.19480 -0.53400
O 	O 	0.59760 0.27070 0.69580 -0.48600
O 	O 	0.80470 0.81500 0.85000 -2.04200
O 	O 	0.81300 0.27040 0.29660 -0.41900
O 	O 	0.89650 0.29290 0.30660 -0.48400
C 	C 	0.90950 0.00850 0.99660 0.01700
H 	H 	0.88390 0.99150 0.01350 0.01900
O 	O 	0.80000 0.78990 0.91850 -0.30700
C 	C 	0.61840 0.40260 0.13310 -0.25900
O 	O 	0.76550 0.68650 0.57710 -0.57400
C 	C 	0.60990 0.52520 0.86600 -0.24700
H 	H 	0.60240 0.49540 0.85340 0.09700
O 	O 	0.80910 0.13120 0.18590 -0.30000
C 	C 	0.52030 0.42190 0.98480 0.04500
H 	H 	0.50490 0.39690 0.00100 0.00000
C 	C 	0.88290 0.94280 0.89340 -0.60000
H 	H 	0.88880 0.96870 0.87460 0.13300
C 	C 	0.74340 0.37140 0.50120 -0.07900
H 	H 	0.74270 0.33810 0.49830 0.05800
C 	C 	0.77550 0.31850 0.36880 0.06800
H 	H 	0.75160 0.29860 0.35310 0.02800
O 	O 	0.69850 0.62860 0.79530 -0.52300
C 	C 	0.98840 0.05860 0.94640 -0.07700
C 	C 	0.45940 0.39810 0.92380 0.37900
C 	C 	0.60920 0.57730 0.92700 -0.26500
H 	H 	0.60160 0.58320 0.95660 0.12800
C 	C 	0.79020 0.37390 0.42980 0.06700
C 	C 	0.03020 0.08290 0.92050 0.14700
C 	C 	0.76350 0.58940 0.56450 0.14600
H 	H 	0.77270 0.60110 0.59230 -0.02600
C 	C 	0.91830 0.07090 0.05670 0.11200
C 	C 	0.69630 0.36120 0.57510 0.08600
C 	C 	0.84860 0.29310 0.31700 0.39700
C 	C 	0.85790 0.14180 0.17440 0.39500
O 	O 	0.74960 0.70190 0.50900 -0.28100
C 	C 	0.64520 0.27170 0.68280 0.38700
O 	O 	0.32150 0.26410 0.90810 -0.30100
C 	C 	0.68040 0.64050 0.83270 0.55000
C 	C 	0.63330 0.61260 0.90210 0.19700
H 	H 	0.63970 0.64270 0.91450 -0.04200
C 	C 	0.85120 0.86160 0.90500 -0.77000
C 	C 	0.82930 0.32350 0.35550 -0.16000
C 	C 	0.85970 0.90000 0.87750 0.56500
H 	H 	0.84990 0.89760 0.84790 -0.65300
C 	C 	0.82080 0.81820 0.88910 0.90100
C 	C 	0.66230 0.30500 0.64760 -0.17000
C 	C 	0.73370 0.33140 0.59740 -0.14200
H 	H 	0.77120 0.33210 0.59030 0.08600
C 	C 	0.06590 0.05730 0.89030 -0.24500
H 	H 	0.06240 0.02440 0.88610 0.09800
C 	C 	0.86260 0.35620 0.37790 0.06100
H 	H 	0.89880 0.36140 0.36840 -0.00800
C 	C 	0.71420 0.29980 0.63120 0.08100
H 	H 	0.73720 0.27560 0.64180 0.02200
C 	C 	0.63500 0.56070 0.84080 0.17100
H 	H 	0.64300 0.55490 0.81130 -0.04900
C 	C 	0.33310 0.29810 0.88190 1.06300
C 	C 	0.75640 0.34250 0.40520 -0.14100
H 	H 	0.71980 0.33790 0.41400 0.08200
O 	O 	0.17270 0.18130 0.85370 -0.30300
C 	C 	0.04080 0.13160 0.92620 -0.27600
H 	H 	0.02290 0.14800 0.94890 0.11700
C 	C 	0.75610 0.67410 0.53950 0.52100
C 	C 	0.10600 0.08370 0.86750 0.17900
H 	H 	0.13060 0.06710 0.84940 -0.06700
C 	C 	0.54500 0.41500 0.08130 -0.24300
H 	H 	0.50760 0.41200 0.07440 0.10900
C 	C 	0.07730 0.15680 0.89910 0.24500
H 	H 	0.07900 0.19020 0.90050 -0.07900
C 	C 	0.63090 0.44900 0.06570 -0.22800
H 	H 	0.65150 0.47120 0.04960 0.09200
C 	C 	0.56350 0.39840 0.12070 0.15700
H 	H 	0.53850 0.38380 0.13990 -0.05000
C 	C 	0.64660 0.36670 0.59320 -0.17000
H 	H 	0.62380 0.39170 0.58370 0.08900
C 	C 	0.64210 0.38260 0.17380 0.45800
C 	C 	0.37770 0.33420 0.89500 -0.80000
C 	C 	0.41600 0.35090 0.86500 -0.34700
H 	H 	0.41540 0.34020 0.83590 -0.18600
C 	C 	0.45620 0.38420 0.87900 0.25600
H 	H 	0.48080 0.39730 0.85870 -0.12800
C 	C 	0.37700 0.35140 0.93790 -0.77700
H 	H 	0.34880 0.34260 0.95730 0.30900
C 	C 	0.41910 0.38210 0.95140 0.80900
H 	H 	0.41980 0.39210 0.98060 -0.26200
C 	C 	0.11110 0.13180 0.87020 -0.39900
O 	O 	0.18180 0.11500 0.81420 -0.36400
C 	C 	0.16750 0.13810 0.84690 0.89600
H 	H 	0.71680 0.80790 0.73270 13.48800
C 	C 	0.41390 0.41380 0.89740 -1.01600
H 	H 	0.40880 0.44650 0.89230 0.32100
C 	C 	0.37800 0.38140 0.87980 1.07400
H 	H 	0.35370 0.39080 0.85760 -0.76200
C 	C 	0.41510 0.32090 0.92760 1.23600
H 	H 	0.41240 0.29060 0.94040 -0.40000
C 	C 	0.45630 0.35220 0.94130 -1.26100
H 	H 	0.48200 0.34240 0.96240 0.46600
O 	O 	0.80900 0.64220 0.82550 -0.48900
C 	C 	0.84770 0.66390 0.84410 -0.04700
O 	O 	0.84690 0.70880 0.84840 -0.25400
O 	O 	0.82200 0.77940 0.91230 -0.33700
O 	O 	0.69740 0.78310 0.91340 -0.44900
H 	H 	0.78080 0.81670 0.73750 13.53500
H 	H 	0.74360 0.81160 0.77970 13.91500
Eu	Eu	0.24364 0.26293 0.36313 2.97700
O 	O 	0.10990 0.83000 0.69400 -0.53200
O 	O 	0.24030 0.27100 0.28540 -10.94800
O 	O 	0.31780 0.75320 0.20210 -0.41000
C 	C 	0.40400 0.46660 0.40950 0.16200
O 	O 	0.31550 0.31790 0.34900 -0.49000
C 	C 	0.28180 0.60850 0.03820 0.00800
C 	C 	0.24020 0.46030 0.05770 -0.19800
H 	H 	0.23510 0.48100 0.08150 0.09400
O 	O 	0.31190 0.60810 0.68530 -0.40600
C 	C 	0.28110 0.55880 0.04180 -0.07700
H 	H 	0.29870 0.54410 0.06550 0.05800
C 	C 	0.43080 0.50520 0.43750 -0.08400
C 	C 	0.49800 0.57080 0.44210 -0.16700
C 	C 	0.23100 0.60260 0.96860 0.00700
C 	C 	0.26050 0.44720 0.98290 -0.18600
H 	H 	0.26860 0.45900 0.95500 0.04200
C 	C 	0.03900 0.98340 0.42970 0.02500
H 	H 	0.03040 0.99470 0.40160 -0.01200
C 	C 	0.47230 0.53320 0.41750 0.03600
H 	H 	0.48290 0.52730 0.38850 -0.00900
C 	C 	0.04450 0.90310 0.58370 -0.19800
H 	H 	0.00730 0.90070 0.57600 0.08000
C 	C 	0.10280 0.05410 0.43770 0.34600
C 	C 	0.15700 0.61870 0.91430 -0.15900
H 	H 	0.13410 0.59650 0.92830 0.07700
C 	C 	0.11970 0.88380 0.63430 -0.19700
C 	C 	0.13560 0.93410 0.57210 -0.18400
H 	H 	0.16040 0.95240 0.55560 0.09600
C 	C 	0.11360 0.09090 0.46560 -0.48800
H 	H 	0.10640 0.08750 0.49560 0.20200
C 	C 	0.13570 0.13440 0.44920 0.47500
H 	H 	0.14130 0.16030 0.46800 -0.12100
O 	O 	0.68160 0.70520 0.34370 -2.23800
C 	C 	0.22950 0.55320 0.97430 -0.07400
H 	H 	0.21120 0.53440 0.95350 0.03300
C 	C 	0.37210 0.66380 0.12600 0.09400
H 	H 	0.40950 0.66310 0.13360 -0.01300
C 	C 	0.07740 0.00690 0.45440 -0.13800
C 	C 	0.06410 0.88100 0.62230 0.10500
H 	H 	0.03940 0.86430 0.64020 -0.07600
C 	C 	0.25080 0.47870 0.01750 0.10400
C 	C 	0.25800 0.39820 0.99000 0.12300
H 	H 	0.26430 0.37740 0.96650 -0.04400
C 	C 	0.15390 0.91350 0.61030 0.10100
H 	H 	0.18980 0.91950 0.62020 0.00300
C 	C 	0.35180 0.39540 0.35910 -0.30200
C 	C 	0.06540 0.95020 0.51360 -0.04900
C 	C 	0.02570 0.92610 0.48830 -0.01500
H 	H 	0.00840 0.89910 0.50000 0.03000
C 	C 	0.43880 0.54950 0.50450 -0.07600
C 	C 	0.24640 0.37930 0.03090 -0.23200
C 	C 	0.34600 0.56970 0.60410 0.10500
H 	H 	0.30880 0.56470 0.61100 -0.04500
C 	C 	0.41580 0.51300 0.47920 0.00800
H 	H 	0.38890 0.49330 0.49180 0.02300
C 	C 	0.25470 0.53090 0.01050 -0.01200
C 	C 	0.41930 0.56330 0.55090 0.14900
O 	O 	0.38820 0.64720 0.69480 -0.53400
O 	O 	0.40240 0.72930 0.19580 -0.48600
O 	O 	0.19530 0.18500 0.35000 -2.04200
O 	O 	0.18700 0.72960 0.79660 -0.41900
O 	O 	0.10350 0.70710 0.80660 -0.48400
C 	C 	0.09050 0.99150 0.49660 0.01300
H 	H 	0.11610 0.00850 0.51350 0.02100
O 	O 	0.20000 0.21010 0.41850 -0.30700
C 	C 	0.38160 0.59740 0.63310 -0.25800
O 	O 	0.23450 0.31350 0.07710 -0.57400
C 	C 	0.39010 0.47480 0.36600 -0.24700
H 	H 	0.39760 0.50460 0.35340 0.09700
O 	O 	0.19090 0.86880 0.68590 -0.30000
C 	C 	0.47970 0.57810 0.48480 0.04200
H 	H 	0.49510 0.60310 0.50100 0.00200
C 	C 	0.11710 0.05720 0.39340 -0.59900
H 	H 	0.11120 0.03130 0.37460 0.13300
C 	C 	0.25660 0.62860 0.00120 -0.08100
H 	H 	0.25730 0.66190 0.99830 0.05900
C 	C 	0.22450 0.68150 0.86880 0.06800
H 	H 	0.24840 0.70140 0.85310 0.02800
O 	O 	0.30150 0.37140 0.29530 -0.52300
C 	C 	0.01160 0.94140 0.44640 -0.07500
C 	C 	0.54060 0.60190 0.42380 0.37800
C 	C 	0.39080 0.42270 0.42700 -0.26400
H 	H 	0.39840 0.41680 0.45660 0.12800
C 	C 	0.20980 0.62610 0.92980 0.06600
C 	C 	0.96980 0.91710 0.42050 0.14600
C 	C 	0.23650 0.41060 0.06450 0.14600
H 	H 	0.22730 0.39890 0.09230 -0.02600
C 	C 	0.08170 0.92910 0.55670 0.11000
C 	C 	0.30370 0.63880 0.07510 0.08600
C 	C 	0.15140 0.70690 0.81700 0.39700
C 	C 	0.14210 0.85820 0.67440 0.39500
O 	O 	0.25040 0.29810 0.00900 -0.28200
C 	C 	0.35480 0.72830 0.18280 0.38700
O 	O 	0.67850 0.73590 0.40810 -0.30100
C 	C 	0.31960 0.35950 0.33270 0.55000
C 	C 	0.36670 0.38740 0.40210 0.19700
H 	H 	0.36030 0.35730 0.41450 -0.04100
C 	C 	0.14880 0.13840 0.40500 -0.76900
C 	C 	0.17070 0.67650 0.85550 -0.15900
C 	C 	0.14030 0.10000 0.37750 0.56400
H 	H 	0.15010 0.10240 0.34790 -0.65200
C 	C 	0.17920 0.18180 0.38910 0.90100
C 	C 	0.33770 0.69500 0.14760 -0.16900
C 	C 	0.26630 0.66860 0.09740 -0.14200
H 	H 	0.22880 0.66790 0.09030 0.08500
C 	C 	0.93410 0.94270 0.39030 -0.24400
H 	H 	0.93760 0.97560 0.38610 0.09800
C 	C 	0.13740 0.64380 0.87790 0.06000
H 	H 	0.10120 0.63860 0.86840 -0.00800
C 	C 	0.28580 0.70020 0.13120 0.08100
H 	H 	0.26280 0.72440 0.14180 0.02200
C 	C 	0.36500 0.43930 0.34080 0.17000
H 	H 	0.35700 0.44510 0.31130 -0.04900
C 	C 	0.66690 0.70190 0.38190 1.06300
C 	C 	0.24360 0.65750 0.90520 -0.14000
H 	H 	0.28020 0.66210 0.91400 0.08200
O 	O 	0.82730 0.81870 0.35370 -0.30300
C 	C 	0.95920 0.86840 0.42620 -0.27500
H 	H 	0.97710 0.85200 0.44890 0.11700
C 	C 	0.24390 0.32590 0.03950 0.52100
C 	C 	0.89400 0.91630 0.36750 0.17800
H 	H 	0.86940 0.93290 0.34940 -0.06700
C 	C 	0.45500 0.58500 0.58130 -0.24100
H 	H 	0.49240 0.58800 0.57440 0.10900
C 	C 	0.92270 0.84320 0.39910 0.24400
H 	H 	0.92100 0.80980 0.40050 -0.07900
C 	C 	0.36910 0.55100 0.56570 -0.22700
H 	H 	0.34850 0.52880 0.54960 0.09200
C 	C 	0.43650 0.60160 0.62070 0.15600
H 	H 	0.46150 0.61620 0.63990 -0.05000
C 	C 	0.35340 0.63330 0.09320 -0.17000
H 	H 	0.37620 0.60830 0.08370 0.08900
C 	C 	0.35790 0.61740 0.67380 0.45800
C 	C 	0.62230 0.66580 0.39500 -0.80000
C 	C 	0.58400 0.64910 0.36500 -0.34700
H 	H 	0.58460 0.65980 0.33590 -0.18600
C 	C 	0.54380 0.61580 0.37900 0.25600
H 	H 	0.51920 0.60270 0.35870 -0.12800
C 	C 	0.62300 0.64860 0.43790 -0.77700
H 	H 	0.65120 0.65740 0.45730 0.30900
C 	C 	0.58090 0.61790 0.45140 0.80900
H 	H 	0.58020 0.60790 0.48060 -0.26200
C 	C 	0.88890 0.86820 0.37020 -0.39900
O 	O 	0.81820 0.88500 0.31420 -0.36500
C 	C 	0.83250 0.86190 0.34690 0.89600
H 	H 	0.28320 0.19210 0.23270 13.48800
C 	C 	0.58610 0.58620 0.39740 -1.01500
H 	H 	0.59120 0.55350 0.39230 0.32100
C 	C 	0.62200 0.61860 0.37980 1.07400
H 	H 	0.64630 0.60920 0.35760 -0.76100
C 	C 	0.58490 0.67910 0.42760 1.23500
H 	H 	0.58760 0.70940 0.44040 -0.39900
C 	C 	0.54370 0.64780 0.44130 -1.26000
H 	H 	0.51800 0.65760 0.46240 0.46600
O 	O 	0.19100 0.35780 0.32550 -0.48900
C 	C 	0.15230 0.33610 0.34410 -0.04700
O 	O 	0.15310 0.29120 0.34840 -0.25400
O 	O 	0.17800 0.22060 0.41230 -0.33700
O 	O 	0.30260 0.21690 0.41340 -0.44900
H 	H 	0.21920 0.18330 0.23750 13.53500
H 	H 	0.25640 0.18840 0.27970 13.91500
Eu	Eu	0.87839 0.27268 0.75000 1.60700
Eu	Eu	0.12161 0.72732 0.25000 1.60700
Eu	Eu	0.12161 0.77268 0.75000 1.60700
Eu	Eu	0.87839 0.22732 0.25000 1.60700
Eu	Eu	0.77383 0.85184 0.25000 2.54000
C 	C 	0.74920 0.69930 0.25000 -84.59000
C 	C 	0.75800 0.74730 0.25000 34.02100
Eu	Eu	0.22617 0.14816 0.75000 2.54000
C 	C 	0.25080 0.30070 0.75000 -84.59100
C 	C 	0.24200 0.25270 0.75000 34.02200
Eu	Eu	0.22617 0.35184 0.25000 2.54100
C 	C 	0.25080 0.19930 0.25000 -84.57500
C 	C 	0.24200 0.24730 0.25000 34.01600
Eu	Eu	0.77383 0.64816 0.75000 2.54100
C 	C 	0.74920 0.80070 0.75000 -84.57700
C 	C 	0.75800 0.75270 0.75000 34.01600
Eu	Eu	0.61793 0.29552 0.25000 1.69700
Eu	Eu	0.38207 0.70448 0.75000 1.69700
Eu	Eu	0.38207 0.79552 0.25000 1.69700
Eu	Eu	0.61793 0.20448 0.75000 1.69700
