data_crystal

_cell_length_a 24.43500
_cell_length_b 27.25500
_cell_length_c 30.40700
_cell_angle_alpha 90.00000
_cell_angle_beta  90.00000
_cell_angle_gamma 90.00000

_symmetry_space_group_name_	'P 1'
_symmetry_space_group_name_H-M	'P 1'

loop_
_symmetry_equiv_pos_as_xyz
  x,y,z

loop_
_atom_site_label
_atom_site_type_symbol
_atom_site_fract_x
_atom_site_fract_y
_atom_site_fract_z
_atom_site_charge
Dy	Dy	0.74457 0.76063 0.36267 2.22000
O 	O 	0.69830 0.68250 0.35062 -1.08600
O 	O 	0.74240 0.76897 0.28569 -4.32000
O 	O 	0.67810 0.72090 0.41120 -0.22200
O 	O 	0.66070 0.79740 0.34960 -0.51400
O 	O 	0.73570 0.81510 0.41828 -0.47700
O 	O 	0.81100 0.81810 0.34884 -0.48200
O 	O 	0.82150 0.70620 0.34320 -1.07000
O 	O 	0.80810 0.72330 0.41220 -0.48500
C 	C 	0.68170 0.67970 0.38980 0.52400
C 	C 	0.65650 0.84220 0.34470 0.49500
C 	C 	0.74370 0.82880 0.45760 0.41300
C 	C 	0.65490 0.63470 0.40660 -0.35600
O 	O 	0.68590 0.86650 0.31920 -0.50700
C 	C 	0.61310 0.86920 0.37040 -0.23900
O 	O 	0.73940 0.79960 0.48880 -0.07000
C 	C 	0.74420 0.88270 0.46540 -0.14800
C 	C 	0.64010 0.63080 0.45060 0.20400
C 	C 	0.64570 0.59460 0.37880 0.23200
C 	C 	0.60440 0.91840 0.36560 0.13600
C 	C 	0.58450 0.84380 0.40110 0.14300
C 	C 	0.73210 0.91510 0.43200 0.07300
C 	C 	0.75670 0.90090 0.50690 0.05600
H 	H 	0.64630 0.65710 0.46940 -0.02000
C 	C 	0.61660 0.58870 0.46680 -0.25000
C 	C 	0.62230 0.55230 0.39530 -0.29700
H 	H 	0.65530 0.59650 0.34930 -0.25700
H 	H 	0.62530 0.93620 0.34570 -0.02800
C 	C 	0.56460 0.94200 0.39020 -0.19600
C 	C 	0.54350 0.86620 0.42490 -0.19600
H 	H 	0.59260 0.81100 0.40600 -0.01000
C 	C 	0.73320 0.96480 0.43880 -0.13300
H 	H 	0.72310 0.90300 0.40430 0.01700
C 	C 	0.75870 0.95140 0.51440 -0.12600
H 	H 	0.76370 0.87930 0.52990 0.00600
C 	C 	0.60740 0.54810 0.43920 0.15100
H 	H 	0.60660 0.58710 0.49620 0.12200
H 	H 	0.61650 0.52590 0.37650 0.08700
C 	C 	0.53280 0.91560 0.41990 0.10900
H 	H 	0.55910 0.97560 0.38690 0.09300
H 	H 	0.52290 0.84780 0.44460 0.09900
H 	H 	0.72460 0.98600 0.41580 0.07500
C 	C 	0.74730 0.98380 0.48030 0.05300
H 	H 	0.76770 0.96330 0.54210 0.04500
C 	C 	0.57960 0.50350 0.45630 -0.03000
C 	C 	0.48960 0.93970 0.44680 -0.01200
C 	C 	0.74960 0.03770 0.48610 0.01900
C 	C 	0.59130 0.48590 0.49800 -0.06400
C 	C 	0.53980 0.47980 0.43050 -0.05600
C 	C 	0.47700 0.92300 0.48910 -0.06800
C 	C 	0.72530 0.05970 0.52270 -0.09700
C 	C 	0.77600 0.06700 0.45540 -0.09600
H 	H 	0.61780 0.50130 0.51510 0.05400
C 	C 	0.56280 0.44470 0.51480 0.00500
H 	H 	0.53300 0.49090 0.40210 0.03600
H 	H 	0.49620 0.89630 0.50030 0.05400
H 	H 	0.70920 0.04020 0.54420 0.05200
C 	C 	0.72500 0.11160 0.52730 0.01500
C 	C 	0.77710 0.11780 0.45960 0.01400
H 	H 	0.79330 0.05230 0.43150 0.06400
C 	C 	0.57550 0.42380 0.55900 0.07400
C 	C 	0.69610 0.13400 0.56530 0.07100
C 	C 	0.75170 0.13840 0.49620 -0.08800
C 	C 	0.80410 0.14730 0.42460 0.09000
C 	C 	0.62910 0.41750 0.57350 -0.14300
C 	C 	0.53280 0.40730 0.58510 -0.14900
C 	C 	0.64560 0.11640 0.57860 -0.15400
C 	C 	0.71760 0.17490 0.58670 -0.15600
H 	H 	0.75290 0.17230 0.49950 0.06100
C 	C 	0.78310 0.18820 0.40800 -0.16100
C 	C 	0.85420 0.13130 0.40780 -0.16600
H 	H 	0.65800 0.42790 0.55600 0.08500
C 	C 	0.63940 0.39610 0.61340 0.06000
C 	C 	0.54400 0.38460 0.62570 0.06400
H 	H 	0.49680 0.41130 0.57590 0.08000
H 	H 	0.63080 0.08900 0.56470 0.08400
C 	C 	0.61630 0.13910 0.61260 0.07600
C 	C 	0.68870 0.19500 0.62140 0.08600
H 	H 	0.75080 0.18840 0.57780 0.08300
C 	C 	0.81240 0.21550 0.37420 0.09200
H 	H 	0.74950 0.19950 0.41800 0.08700
H 	H 	0.87000 0.10290 0.41900 0.09200
C 	C 	0.88080 0.15680 0.37480 0.10200
C 	C 	0.59660 0.37870 0.63990 -0.13700
H 	H 	0.67530 0.39310 0.62320 0.01900
H 	H 	0.51520 0.37350 0.64310 -0.00900
H 	H 	0.58190 0.12730 0.62060 0.00900
C 	C 	0.63810 0.17840 0.63400 -0.17600
H 	H 	0.70420 0.22100 0.63680 0.00100
H 	H 	0.79760 0.24470 0.36360 -0.00100
C 	C 	0.86120 0.19920 0.35770 -0.18500
H 	H 	0.91340 0.14430 0.36380 -0.00100
C 	C 	0.60750 0.35150 0.68130 0.33700
C 	C 	0.60850 0.20280 0.67110 0.41700
C 	C 	0.89300 0.22540 0.32110 0.47700
O 	O 	0.56770 0.33110 0.70040 -0.44000
O 	O 	0.65530 0.34800 0.69710 -0.40600
O 	O 	0.63310 0.23530 0.69110 -0.50800
O 	O 	0.56160 0.18640 0.68060 -0.32200
O 	O 	0.86870 0.25860 0.30540 -0.54700
O 	O 	0.93920 0.20870 0.31180 -0.34900
O 	O 	0.20300 0.37150 0.29481 -0.49100
C 	C 	0.18450 0.35960 0.33170 0.49800
C 	C 	0.15500 0.39920 0.35800 -0.20700
C 	C 	0.14340 0.44360 0.33930 0.10200
C 	C 	0.14140 0.39080 0.40140 0.11500
C 	C 	0.11690 0.47990 0.36440 -0.16800
H 	H 	0.15280 0.44980 0.31020 -0.00800
C 	C 	0.11730 0.42580 0.42640 -0.17200
H 	H 	0.14890 0.36030 0.41390 0.00100
H 	H 	0.10770 0.50980 0.35150 0.07800
C 	C 	0.10460 0.47160 0.40790 0.08800
H 	H 	0.10910 0.41960 0.45570 0.08500
C 	C 	0.07690 0.51050 0.43450 -0.00900
C 	C 	0.09330 0.51910 0.47890 -0.07600
C 	C 	0.03520 0.53840 0.41700 -0.05700
C 	C 	0.06870 0.55450 0.50390 0.00600
H 	H 	0.12130 0.50030 0.49110 0.05300
C 	C 	0.00840 0.57450 0.44200 -0.03500
H 	H 	0.02460 0.53330 0.38800 0.03400
C 	C 	0.08610 0.56530 0.55000 0.06700
C 	C 	0.02580 0.58180 0.48510 -0.06000
C 	C 	0.96220 0.60480 0.42430 0.17000
C 	C 	0.03990 0.57670 0.58100 -0.10900
C 	C 	0.13190 0.57320 0.56190 -0.14600
H 	H 	0.00850 0.60560 0.50200 0.05300
C 	C 	0.96070 0.62090 0.38180 -0.28900
C 	C 	0.92110 0.61890 0.45150 -0.27900
H 	H 	0.00370 0.57300 0.57220 0.06900
C 	C 	0.05220 0.59260 0.62280 0.00500
C 	C 	0.14560 0.59370 0.60480 0.02500
H 	H 	0.16040 0.56590 0.54270 0.07900
H 	H 	0.98840 0.61180 0.36250 0.10600
C 	C 	0.91770 0.65130 0.36670 0.20800
H 	H 	0.91960 0.60570 0.47970 0.12000
C 	C 	0.88150 0.65200 0.43890 0.22600
C 	C 	0.10960 0.59810 0.63480 -0.09100
H 	H 	0.02460 0.59980 0.64290 0.03600
H 	H 	0.18130 0.60380 0.61040 0.01800
H 	H 	0.91580 0.66050 0.33730 -0.18900
C 	C 	0.87820 0.66720 0.39650 -0.38800
H 	H 	0.85690 0.66400 0.45960 -0.03000
C 	C 	0.11600 0.62620 0.67950 0.25100
C 	C 	0.83410 0.70030 0.38270 0.54800
O 	O 	0.16290 0.62720 0.69490 -0.40900
O 	O 	0.07050 0.64090 0.70090 -0.38800
H 	H 	0.75580 0.68230 0.22020 5.68200
H 	H 	0.72250 0.67870 0.26420 5.60900
H 	H 	0.78620 0.68570 0.26550 5.59800
O 	O 	0.76190 0.80150 0.48730 -0.17200
O 	O 	0.69650 0.71260 0.41850 -0.22200
Dy	Dy	0.25543 0.23937 0.86267 2.21900
O 	O 	0.30170 0.31750 0.85062 -1.08700
O 	O 	0.25760 0.23103 0.78569 -4.32100
O 	O 	0.32190 0.27910 0.91120 -0.22300
O 	O 	0.33930 0.20260 0.84960 -0.51500
O 	O 	0.26430 0.18490 0.91828 -0.47800
O 	O 	0.18900 0.18190 0.84884 -0.48300
O 	O 	0.17850 0.29380 0.84320 -1.07100
O 	O 	0.19190 0.27670 0.91220 -0.48600
C 	C 	0.31830 0.32030 0.88980 0.52300
C 	C 	0.34350 0.15780 0.84470 0.49400
C 	C 	0.25630 0.17120 0.95760 0.41200
C 	C 	0.34510 0.36530 0.90660 -0.35700
O 	O 	0.31410 0.13350 0.81920 -0.50800
C 	C 	0.38690 0.13080 0.87040 -0.24000
O 	O 	0.26060 0.20040 0.98880 -0.07100
C 	C 	0.25580 0.11730 0.96540 -0.14900
C 	C 	0.35990 0.36920 0.95060 0.20300
C 	C 	0.35430 0.40540 0.87880 0.23000
C 	C 	0.39560 0.08160 0.86560 0.13500
C 	C 	0.41550 0.15620 0.90110 0.14200
C 	C 	0.26790 0.08490 0.93200 0.07200
C 	C 	0.24330 0.09910 0.00690 0.05500
H 	H 	0.35370 0.34290 0.96940 -0.02100
C 	C 	0.38340 0.41130 0.96680 -0.25100
C 	C 	0.37770 0.44770 0.89530 -0.29800
H 	H 	0.34470 0.40350 0.84930 -0.25700
H 	H 	0.37470 0.06380 0.84570 -0.02800
C 	C 	0.43540 0.05800 0.89020 -0.19700
C 	C 	0.45650 0.13380 0.92490 -0.19600
H 	H 	0.40740 0.18900 0.90600 -0.01100
C 	C 	0.26680 0.03520 0.93880 -0.13300
H 	H 	0.27690 0.09700 0.90430 0.01700
C 	C 	0.24130 0.04860 0.01440 -0.12700
H 	H 	0.23630 0.12070 0.02990 0.00600
C 	C 	0.39260 0.45190 0.93920 0.15100
H 	H 	0.39340 0.41290 0.99620 0.12200
H 	H 	0.38350 0.47410 0.87650 0.08700
C 	C 	0.46720 0.08440 0.91990 0.11000
H 	H 	0.44090 0.02440 0.88690 0.09300
H 	H 	0.47710 0.15220 0.94460 0.09900
H 	H 	0.27540 0.01400 0.91580 0.07500
C 	C 	0.25270 0.01620 0.98030 0.05300
H 	H 	0.23230 0.03670 0.04210 0.04500
C 	C 	0.42040 0.49650 0.95630 -0.03000
C 	C 	0.51040 0.06030 0.94680 -0.01300
C 	C 	0.25040 0.96230 0.98610 0.01800
C 	C 	0.40870 0.51410 0.99800 -0.06500
C 	C 	0.46020 0.52020 0.93050 -0.05600
C 	C 	0.52300 0.07700 0.98910 -0.06700
C 	C 	0.27470 0.94030 0.02270 -0.09600
C 	C 	0.22400 0.93300 0.95540 -0.09500
H 	H 	0.38220 0.49870 0.01510 0.05400
C 	C 	0.43720 0.55530 0.01480 0.00600
H 	H 	0.46700 0.50910 0.90210 0.03600
H 	H 	0.50380 0.10370 0.00030 0.05300
H 	H 	0.29080 0.95980 0.04420 0.05200
C 	C 	0.27500 0.88840 0.02730 0.01500
C 	C 	0.22290 0.88220 0.95960 0.01400
H 	H 	0.20670 0.94770 0.93150 0.06400
C 	C 	0.42450 0.57620 0.05900 0.07400
C 	C 	0.30390 0.86600 0.06530 0.07100
C 	C 	0.24830 0.86160 0.99620 -0.08900
C 	C 	0.19590 0.85270 0.92460 0.09000
C 	C 	0.37090 0.58250 0.07350 -0.14300
C 	C 	0.46720 0.59270 0.08510 -0.14900
C 	C 	0.35440 0.88360 0.07860 -0.15400
C 	C 	0.28240 0.82510 0.08670 -0.15600
H 	H 	0.24710 0.82770 0.99950 0.06100
C 	C 	0.21690 0.81180 0.90800 -0.16100
C 	C 	0.14580 0.86870 0.90780 -0.16600
H 	H 	0.34200 0.57210 0.05600 0.08500
C 	C 	0.36060 0.60390 0.11340 0.06000
C 	C 	0.45600 0.61540 0.12570 0.06400
H 	H 	0.50320 0.58870 0.07590 0.08000
H 	H 	0.36920 0.91100 0.06470 0.08400
C 	C 	0.38370 0.86090 0.11260 0.07600
C 	C 	0.31130 0.80500 0.12140 0.08600
H 	H 	0.24920 0.81160 0.07780 0.08300
C 	C 	0.18760 0.78450 0.87420 0.09200
H 	H 	0.25050 0.80050 0.91800 0.08700
H 	H 	0.13000 0.89710 0.91900 0.09200
C 	C 	0.11920 0.84320 0.87480 0.10200
C 	C 	0.40340 0.62130 0.13990 -0.13700
H 	H 	0.32470 0.60690 0.12320 0.01900
H 	H 	0.48480 0.62650 0.14310 -0.00900
H 	H 	0.41810 0.87270 0.12060 0.00900
C 	C 	0.36190 0.82160 0.13400 -0.17600
H 	H 	0.29580 0.77900 0.13680 0.00100
H 	H 	0.20240 0.75530 0.86360 -0.00100
C 	C 	0.13880 0.80080 0.85770 -0.18500
H 	H 	0.08660 0.85570 0.86380 -0.00100
C 	C 	0.39250 0.64850 0.18130 0.33700
C 	C 	0.39150 0.79720 0.17110 0.41700
C 	C 	0.10700 0.77460 0.82110 0.47700
O 	O 	0.43230 0.66890 0.20040 -0.44000
O 	O 	0.34470 0.65200 0.19710 -0.40600
O 	O 	0.36690 0.76470 0.19110 -0.50800
O 	O 	0.43840 0.81360 0.18060 -0.32200
O 	O 	0.13130 0.74140 0.80540 -0.54700
O 	O 	0.06080 0.79130 0.81180 -0.34900
O 	O 	0.79700 0.62850 0.79481 -0.49100
C 	C 	0.81550 0.64040 0.83170 0.49800
C 	C 	0.84500 0.60080 0.85800 -0.20700
C 	C 	0.85660 0.55640 0.83930 0.10200
C 	C 	0.85860 0.60920 0.90140 0.11500
C 	C 	0.88310 0.52010 0.86440 -0.16800
H 	H 	0.84720 0.55020 0.81020 -0.00800
C 	C 	0.88270 0.57420 0.92640 -0.17200
H 	H 	0.85110 0.63970 0.91390 0.00100
H 	H 	0.89230 0.49020 0.85150 0.07800
C 	C 	0.89540 0.52840 0.90790 0.08800
H 	H 	0.89090 0.58040 0.95570 0.08500
C 	C 	0.92310 0.48950 0.93450 -0.00900
C 	C 	0.90670 0.48090 0.97890 -0.07500
C 	C 	0.96480 0.46160 0.91700 -0.05600
C 	C 	0.93130 0.44550 0.00390 0.00600
H 	H 	0.87870 0.49970 0.99110 0.05200
C 	C 	0.99160 0.42550 0.94200 -0.03500
H 	H 	0.97540 0.46670 0.88800 0.03400
C 	C 	0.91390 0.43470 0.05000 0.06800
C 	C 	0.97420 0.41820 0.98510 -0.06000
C 	C 	0.03780 0.39520 0.92430 0.17000
C 	C 	0.96010 0.42330 0.08100 -0.11000
C 	C 	0.86810 0.42680 0.06190 -0.14600
H 	H 	0.99150 0.39440 0.00200 0.05300
C 	C 	0.03930 0.37910 0.88180 -0.28900
C 	C 	0.07890 0.38110 0.95150 -0.27900
H 	H 	0.99630 0.42700 0.07220 0.06900
C 	C 	0.94780 0.40740 0.12280 0.00600
C 	C 	0.85440 0.40630 0.10480 0.02500
H 	H 	0.83960 0.43410 0.04270 0.07900
H 	H 	0.01160 0.38820 0.86250 0.10600
C 	C 	0.08230 0.34870 0.86670 0.20800
H 	H 	0.08040 0.39430 0.97970 0.12000
C 	C 	0.11850 0.34800 0.93890 0.22600
C 	C 	0.89040 0.40190 0.13480 -0.09100
H 	H 	0.97540 0.40020 0.14290 0.03600
H 	H 	0.81870 0.39620 0.11040 0.01700
H 	H 	0.08420 0.33950 0.83730 -0.18900
C 	C 	0.12180 0.33280 0.89650 -0.38800
H 	H 	0.14310 0.33600 0.95960 -0.03000
C 	C 	0.88400 0.37380 0.17950 0.25100
C 	C 	0.16590 0.29970 0.88270 0.54800
O 	O 	0.83710 0.37280 0.19490 -0.41000
O 	O 	0.92950 0.35910 0.20090 -0.38800
H 	H 	0.24420 0.31770 0.72020 5.68200
H 	H 	0.27750 0.32130 0.76420 5.60900
H 	H 	0.21380 0.31430 0.76550 5.59800
O 	O 	0.23810 0.19850 0.98730 -0.17200
O 	O 	0.30350 0.28740 0.91850 -0.22200
Dy	Dy	0.25543 0.26063 0.13733 2.21900
O 	O 	0.30170 0.18250 0.14938 -1.08700
O 	O 	0.25760 0.26897 0.21431 -4.32000
O 	O 	0.32190 0.22090 0.08880 -0.22200
O 	O 	0.33930 0.29740 0.15040 -0.51500
O 	O 	0.26430 0.31510 0.08172 -0.47800
O 	O 	0.18900 0.31810 0.15116 -0.48300
O 	O 	0.17850 0.20620 0.15680 -1.07100
O 	O 	0.19190 0.22330 0.08780 -0.48600
C 	C 	0.31830 0.17970 0.11020 0.52300
C 	C 	0.34350 0.34220 0.15530 0.49400
C 	C 	0.25630 0.32880 0.04240 0.41200
C 	C 	0.34510 0.13470 0.09340 -0.35700
O 	O 	0.31410 0.36650 0.18080 -0.50800
C 	C 	0.38690 0.36920 0.12960 -0.24000
O 	O 	0.26060 0.29960 0.01120 -0.07300
C 	C 	0.25580 0.38270 0.03460 -0.15000
C 	C 	0.35990 0.13080 0.04940 0.20400
C 	C 	0.35430 0.09460 0.12120 0.23100
C 	C 	0.39560 0.41840 0.13440 0.13500
C 	C 	0.41550 0.34380 0.09890 0.14200
C 	C 	0.26790 0.41510 0.06800 0.07200
C 	C 	0.24330 0.40090 0.99310 0.05500
H 	H 	0.35370 0.15710 0.03060 -0.02100
C 	C 	0.38340 0.08870 0.03320 -0.25200
C 	C 	0.37770 0.05230 0.10470 -0.29900
H 	H 	0.34470 0.09650 0.15070 -0.25700
H 	H 	0.37470 0.43620 0.15430 -0.02700
C 	C 	0.43540 0.44200 0.10980 -0.19600
C 	C 	0.45650 0.36620 0.07510 -0.19600
H 	H 	0.40740 0.31100 0.09400 -0.01000
C 	C 	0.26680 0.46480 0.06120 -0.13300
H 	H 	0.27690 0.40300 0.09570 0.01700
C 	C 	0.24130 0.45140 0.98560 -0.12700
H 	H 	0.23630 0.37930 0.97010 0.00600
C 	C 	0.39260 0.04810 0.06080 0.15200
H 	H 	0.39340 0.08710 0.00380 0.12200
H 	H 	0.38350 0.02590 0.12350 0.08700
C 	C 	0.46720 0.41560 0.08010 0.10900
H 	H 	0.44090 0.47560 0.11310 0.09300
H 	H 	0.47710 0.34780 0.05540 0.09900
H 	H 	0.27540 0.48600 0.08420 0.07500
C 	C 	0.25270 0.48380 0.01970 0.05300
H 	H 	0.23230 0.46330 0.95790 0.04500
C 	C 	0.42040 0.00350 0.04370 -0.03200
C 	C 	0.51040 0.43970 0.05320 -0.01200
C 	C 	0.25040 0.53770 0.01390 0.01800
C 	C 	0.40870 0.98590 0.00200 -0.06200
C 	C 	0.46020 0.97980 0.06950 -0.05400
C 	C 	0.52300 0.42300 0.01090 -0.06900
C 	C 	0.27470 0.55970 0.97730 -0.09600
C 	C 	0.22400 0.56700 0.04460 -0.09500
H 	H 	0.38220 0.00130 0.98490 0.05300
C 	C 	0.43720 0.94470 0.98520 0.00300
H 	H 	0.46700 0.99090 0.09790 0.03600
H 	H 	0.50380 0.39630 0.99970 0.05400
H 	H 	0.29080 0.54020 0.95580 0.05200
C 	C 	0.27500 0.61160 0.97270 0.01500
C 	C 	0.22290 0.61780 0.04040 0.01400
H 	H 	0.20670 0.55230 0.06850 0.06400
C 	C 	0.42450 0.92380 0.94100 0.07500
C 	C 	0.30390 0.63400 0.93470 0.07100
C 	C 	0.24830 0.63840 0.00380 -0.08800
C 	C 	0.19590 0.64730 0.07540 0.09000
C 	C 	0.37090 0.91750 0.92650 -0.14400
C 	C 	0.46720 0.90730 0.91490 -0.15000
C 	C 	0.35440 0.61640 0.92140 -0.15400
C 	C 	0.28240 0.67490 0.91330 -0.15600
H 	H 	0.24710 0.67230 0.00050 0.06100
C 	C 	0.21690 0.68820 0.09200 -0.16100
C 	C 	0.14580 0.63130 0.09220 -0.16600
H 	H 	0.34200 0.92790 0.94400 0.08500
C 	C 	0.36060 0.89610 0.88660 0.06000
C 	C 	0.45600 0.88460 0.87430 0.06500
H 	H 	0.50320 0.91130 0.92410 0.08000
H 	H 	0.36920 0.58900 0.93530 0.08400
C 	C 	0.38370 0.63910 0.88740 0.07600
C 	C 	0.31130 0.69500 0.87860 0.08600
H 	H 	0.24920 0.68840 0.92220 0.08300
C 	C 	0.18760 0.71550 0.12580 0.09200
H 	H 	0.25050 0.69950 0.08200 0.08700
H 	H 	0.13000 0.60290 0.08100 0.09200
C 	C 	0.11920 0.65680 0.12520 0.10200
C 	C 	0.40340 0.87870 0.86010 -0.13800
H 	H 	0.32470 0.89310 0.87680 0.01900
H 	H 	0.48480 0.87350 0.85690 -0.00900
H 	H 	0.41810 0.62730 0.87940 0.00900
C 	C 	0.36190 0.67840 0.86600 -0.17600
H 	H 	0.29580 0.72100 0.86320 0.00100
H 	H 	0.20240 0.74470 0.13640 -0.00100
C 	C 	0.13880 0.69920 0.14230 -0.18500
H 	H 	0.08660 0.64430 0.13620 -0.00200
C 	C 	0.39250 0.85150 0.81870 0.33700
C 	C 	0.39150 0.70280 0.82890 0.41700
C 	C 	0.10700 0.72540 0.17890 0.47700
O 	O 	0.43230 0.83110 0.79960 -0.44000
O 	O 	0.34470 0.84800 0.80290 -0.40600
O 	O 	0.36690 0.73530 0.80890 -0.50800
O 	O 	0.43840 0.68640 0.81940 -0.32200
O 	O 	0.13130 0.75860 0.19460 -0.54700
O 	O 	0.06080 0.70870 0.18820 -0.34900
O 	O 	0.79700 0.87150 0.20519 -0.49100
C 	C 	0.81550 0.85960 0.16830 0.49800
C 	C 	0.84500 0.89920 0.14200 -0.20700
C 	C 	0.85660 0.94360 0.16070 0.10200
C 	C 	0.85860 0.89080 0.09860 0.11500
C 	C 	0.88310 0.97990 0.13560 -0.16800
H 	H 	0.84720 0.94980 0.18980 -0.00800
C 	C 	0.88270 0.92580 0.07360 -0.17200
H 	H 	0.85110 0.86030 0.08610 0.00100
H 	H 	0.89230 0.00980 0.14850 0.07900
C 	C 	0.89540 0.97160 0.09210 0.08700
H 	H 	0.89090 0.91960 0.04430 0.08400
C 	C 	0.92310 0.01050 0.06550 -0.00800
C 	C 	0.90670 0.01910 0.02110 -0.07700
C 	C 	0.96480 0.03840 0.08300 -0.05800
C 	C 	0.93130 0.05450 0.99610 0.00800
H 	H 	0.87870 0.00030 0.00890 0.05300
C 	C 	0.99160 0.07450 0.05800 -0.03300
H 	H 	0.97540 0.03330 0.11200 0.03400
C 	C 	0.91390 0.06530 0.95000 0.06700
C 	C 	0.97420 0.08180 0.01490 -0.06200
C 	C 	0.03780 0.10480 0.07570 0.16900
C 	C 	0.96010 0.07670 0.91900 -0.10900
C 	C 	0.86810 0.07320 0.93810 -0.14500
H 	H 	0.99150 0.10560 0.99800 0.05400
C 	C 	0.03930 0.12090 0.11820 -0.28800
C 	C 	0.07890 0.11890 0.04850 -0.27700
H 	H 	0.99630 0.07300 0.92780 0.06900
C 	C 	0.94780 0.09260 0.87720 0.00500
C 	C 	0.85440 0.09370 0.89520 0.02500
H 	H 	0.83960 0.06590 0.95730 0.07900
H 	H 	0.01160 0.11180 0.13750 0.10600
C 	C 	0.08230 0.15130 0.13330 0.20700
H 	H 	0.08040 0.10570 0.02030 0.11900
C 	C 	0.11850 0.15200 0.06110 0.22500
C 	C 	0.89040 0.09810 0.86520 -0.09100
H 	H 	0.97540 0.09980 0.85710 0.03600
H 	H 	0.81870 0.10380 0.88960 0.01800
H 	H 	0.08420 0.16050 0.16270 -0.18900
C 	C 	0.12180 0.16720 0.10350 -0.38700
H 	H 	0.14310 0.16400 0.04040 -0.03000
C 	C 	0.88400 0.12620 0.82050 0.25100
C 	C 	0.16590 0.20030 0.11730 0.54800
O 	O 	0.83710 0.12720 0.80510 -0.40900
O 	O 	0.92950 0.14090 0.79910 -0.38800
H 	H 	0.24420 0.18230 0.27980 5.68100
H 	H 	0.27750 0.17870 0.23580 5.60900
H 	H 	0.21380 0.18570 0.23450 5.59800
O 	O 	0.23810 0.30150 0.01270 -0.17100
O 	O 	0.30350 0.21260 0.08150 -0.22300
Dy	Dy	0.74457 0.73937 0.63733 2.21900
O 	O 	0.69830 0.81750 0.64938 -1.08700
O 	O 	0.74240 0.73103 0.71431 -4.32000
O 	O 	0.67810 0.77910 0.58880 -0.22200
O 	O 	0.66070 0.70260 0.65040 -0.51500
O 	O 	0.73570 0.68490 0.58172 -0.47800
O 	O 	0.81100 0.68190 0.65116 -0.48300
O 	O 	0.82150 0.79380 0.65680 -1.07100
O 	O 	0.80810 0.77670 0.58780 -0.48600
C 	C 	0.68170 0.82030 0.61020 0.52300
C 	C 	0.65650 0.65780 0.65530 0.49400
C 	C 	0.74370 0.67120 0.54240 0.41200
C 	C 	0.65490 0.86530 0.59340 -0.35700
O 	O 	0.68590 0.63350 0.68080 -0.50800
C 	C 	0.61310 0.63080 0.62960 -0.24000
O 	O 	0.73940 0.70040 0.51120 -0.07200
C 	C 	0.74420 0.61730 0.53460 -0.14900
C 	C 	0.64010 0.86920 0.54940 0.20300
C 	C 	0.64570 0.90540 0.62120 0.23100
C 	C 	0.60440 0.58160 0.63440 0.13500
C 	C 	0.58450 0.65620 0.59890 0.14200
C 	C 	0.73210 0.58490 0.56800 0.07200
C 	C 	0.75670 0.59910 0.49310 0.05500
H 	H 	0.64630 0.84290 0.53060 -0.02100
C 	C 	0.61660 0.91130 0.53320 -0.25200
C 	C 	0.62230 0.94770 0.60470 -0.29800
H 	H 	0.65530 0.90350 0.65070 -0.25700
H 	H 	0.62530 0.56380 0.65430 -0.02700
C 	C 	0.56460 0.55800 0.60980 -0.19600
C 	C 	0.54350 0.63380 0.57510 -0.19600
H 	H 	0.59260 0.68900 0.59400 -0.01000
C 	C 	0.73320 0.53520 0.56120 -0.13300
H 	H 	0.72310 0.59700 0.59570 0.01700
C 	C 	0.75870 0.54860 0.48560 -0.12700
H 	H 	0.76370 0.62070 0.47010 0.00500
C 	C 	0.60740 0.95190 0.56080 0.15100
H 	H 	0.60660 0.91290 0.50380 0.12200
H 	H 	0.61650 0.97410 0.62350 0.08700
C 	C 	0.53280 0.58440 0.58010 0.10900
H 	H 	0.55910 0.52440 0.61310 0.09300
H 	H 	0.52290 0.65220 0.55540 0.09900
H 	H 	0.72460 0.51400 0.58420 0.07500
C 	C 	0.74730 0.51620 0.51970 0.05400
H 	H 	0.76770 0.53670 0.45790 0.04500
C 	C 	0.57960 0.99650 0.54370 -0.03100
C 	C 	0.48960 0.56030 0.55320 -0.01200
C 	C 	0.74960 0.46230 0.51390 0.01800
C 	C 	0.59130 0.01410 0.50200 -0.06400
C 	C 	0.53980 0.02020 0.56950 -0.05500
C 	C 	0.47700 0.57700 0.51090 -0.06900
C 	C 	0.72530 0.44030 0.47730 -0.09600
C 	C 	0.77600 0.43300 0.54460 -0.09500
H 	H 	0.61780 0.99870 0.48490 0.05400
C 	C 	0.56280 0.05530 0.48520 0.00500
H 	H 	0.53300 0.00910 0.59790 0.03600
H 	H 	0.49620 0.60370 0.49970 0.05400
H 	H 	0.70920 0.45980 0.45580 0.05100
C 	C 	0.72500 0.38840 0.47270 0.01500
C 	C 	0.77710 0.38220 0.54040 0.01400
H 	H 	0.79330 0.44770 0.56850 0.06400
C 	C 	0.57550 0.07620 0.44100 0.07400
C 	C 	0.69610 0.36600 0.43470 0.07100
C 	C 	0.75170 0.36160 0.50380 -0.08800
C 	C 	0.80410 0.35270 0.57540 0.09100
C 	C 	0.62910 0.08250 0.42650 -0.14300
C 	C 	0.53280 0.09270 0.41490 -0.14900
C 	C 	0.64560 0.38360 0.42140 -0.15400
C 	C 	0.71760 0.32510 0.41330 -0.15600
H 	H 	0.75290 0.32770 0.50050 0.06100
C 	C 	0.78310 0.31180 0.59200 -0.16100
C 	C 	0.85420 0.36870 0.59220 -0.16600
H 	H 	0.65800 0.07210 0.44400 0.08500
C 	C 	0.63940 0.10390 0.38660 0.06000
C 	C 	0.54400 0.11540 0.37430 0.06400
H 	H 	0.49680 0.08870 0.42410 0.08000
H 	H 	0.63080 0.41100 0.43530 0.08400
C 	C 	0.61630 0.36090 0.38740 0.07600
C 	C 	0.68870 0.30500 0.37860 0.08600
H 	H 	0.75080 0.31160 0.42220 0.08300
C 	C 	0.81240 0.28450 0.62580 0.09200
H 	H 	0.74950 0.30050 0.58200 0.08700
H 	H 	0.87000 0.39710 0.58100 0.09200
C 	C 	0.88080 0.34320 0.62520 0.10200
C 	C 	0.59660 0.12130 0.36010 -0.13700
H 	H 	0.67530 0.10690 0.37680 0.01900
H 	H 	0.51520 0.12650 0.35690 -0.00900
H 	H 	0.58190 0.37270 0.37940 0.00900
C 	C 	0.63810 0.32160 0.36600 -0.17600
H 	H 	0.70420 0.27900 0.36320 0.00100
H 	H 	0.79760 0.25530 0.63640 -0.00100
C 	C 	0.86120 0.30080 0.64230 -0.18500
H 	H 	0.91340 0.35570 0.63620 -0.00200
C 	C 	0.60750 0.14850 0.31870 0.33700
C 	C 	0.60850 0.29720 0.32890 0.41700
C 	C 	0.89300 0.27460 0.67890 0.47700
O 	O 	0.56770 0.16890 0.29960 -0.44000
O 	O 	0.65530 0.15200 0.30290 -0.40600
O 	O 	0.63310 0.26470 0.30890 -0.50800
O 	O 	0.56160 0.31360 0.31940 -0.32200
O 	O 	0.86870 0.24140 0.69460 -0.54700
O 	O 	0.93920 0.29130 0.68820 -0.34900
O 	O 	0.20300 0.12850 0.70519 -0.49100
C 	C 	0.18450 0.14040 0.66830 0.49800
C 	C 	0.15500 0.10080 0.64200 -0.20700
C 	C 	0.14340 0.05640 0.66070 0.10300
C 	C 	0.14140 0.10920 0.59860 0.11500
C 	C 	0.11690 0.02010 0.63560 -0.16900
H 	H 	0.15280 0.05020 0.68980 -0.00800
C 	C 	0.11730 0.07420 0.57360 -0.17200
H 	H 	0.14890 0.13970 0.58610 0.00100
H 	H 	0.10770 0.99020 0.64850 0.07900
C 	C 	0.10460 0.02840 0.59210 0.08700
H 	H 	0.10910 0.08040 0.54430 0.08400
C 	C 	0.07690 0.98950 0.56550 -0.00800
C 	C 	0.09330 0.98090 0.52110 -0.07600
C 	C 	0.03520 0.96160 0.58300 -0.05800
C 	C 	0.06870 0.94550 0.49610 0.00700
H 	H 	0.12130 0.99970 0.50890 0.05300
C 	C 	0.00840 0.92550 0.55800 -0.03400
H 	H 	0.02460 0.96670 0.61200 0.03400
C 	C 	0.08610 0.93470 0.45000 0.06700
C 	C 	0.02580 0.91820 0.51490 -0.06100
C 	C 	0.96220 0.89520 0.57570 0.16900
C 	C 	0.03990 0.92330 0.41900 -0.10900
C 	C 	0.13190 0.92680 0.43810 -0.14500
H 	H 	0.00850 0.89440 0.49800 0.05400
C 	C 	0.96070 0.87910 0.61820 -0.28800
C 	C 	0.92110 0.88110 0.54850 -0.27800
H 	H 	0.00370 0.92700 0.42780 0.06900
C 	C 	0.05220 0.90740 0.37720 0.00500
C 	C 	0.14560 0.90630 0.39520 0.02500
H 	H 	0.16040 0.93410 0.45730 0.07900
H 	H 	0.98840 0.88820 0.63750 0.10600
C 	C 	0.91770 0.84870 0.63330 0.20700
H 	H 	0.91960 0.89430 0.52030 0.11900
C 	C 	0.88150 0.84800 0.56110 0.22600
C 	C 	0.10960 0.90190 0.36520 -0.09100
H 	H 	0.02460 0.90020 0.35710 0.03600
H 	H 	0.18130 0.89620 0.38960 0.01800
H 	H 	0.91580 0.83950 0.66270 -0.18900
C 	C 	0.87820 0.83280 0.60350 -0.38700
H 	H 	0.85690 0.83600 0.54040 -0.03000
C 	C 	0.11600 0.87380 0.32050 0.25100
C 	C 	0.83410 0.79970 0.61730 0.54800
O 	O 	0.16290 0.87280 0.30510 -0.40900
O 	O 	0.07050 0.85910 0.29910 -0.38800
H 	H 	0.75580 0.81770 0.77980 5.68100
H 	H 	0.72250 0.82130 0.73580 5.60900
H 	H 	0.78620 0.81430 0.73450 5.59800
O 	O 	0.76190 0.69850 0.51270 -0.17100
O 	O 	0.69650 0.78740 0.58150 -0.22200
Dy	Dy	0.25543 0.23937 0.63733 2.21900
O 	O 	0.30170 0.31750 0.64938 -1.08700
O 	O 	0.25760 0.23103 0.71431 -4.32100
O 	O 	0.32190 0.27910 0.58880 -0.22300
O 	O 	0.33930 0.20260 0.65040 -0.51500
O 	O 	0.26430 0.18490 0.58172 -0.47800
O 	O 	0.18900 0.18190 0.65116 -0.48300
O 	O 	0.17850 0.29380 0.65680 -1.07100
O 	O 	0.19190 0.27670 0.58780 -0.48600
C 	C 	0.31830 0.32030 0.61020 0.52300
C 	C 	0.34350 0.15780 0.65530 0.49400
C 	C 	0.25630 0.17120 0.54240 0.41200
C 	C 	0.34510 0.36530 0.59340 -0.35700
O 	O 	0.31410 0.13350 0.68080 -0.50800
C 	C 	0.38690 0.13080 0.62960 -0.24000
O 	O 	0.26060 0.20040 0.51120 -0.07100
C 	C 	0.25580 0.11730 0.53460 -0.14900
C 	C 	0.35990 0.36920 0.54940 0.20300
C 	C 	0.35430 0.40540 0.62120 0.23100
C 	C 	0.39560 0.08160 0.63440 0.13500
C 	C 	0.41550 0.15620 0.59890 0.14200
C 	C 	0.26790 0.08490 0.56800 0.07200
C 	C 	0.24330 0.09910 0.49310 0.05500
H 	H 	0.35370 0.34290 0.53060 -0.02100
C 	C 	0.38340 0.41130 0.53320 -0.25100
C 	C 	0.37770 0.44770 0.60470 -0.29800
H 	H 	0.34470 0.40350 0.65070 -0.25700
H 	H 	0.37470 0.06380 0.65430 -0.02800
C 	C 	0.43540 0.05800 0.60980 -0.19600
C 	C 	0.45650 0.13380 0.57510 -0.19600
H 	H 	0.40740 0.18900 0.59400 -0.01000
C 	C 	0.26680 0.03520 0.56120 -0.13300
H 	H 	0.27690 0.09700 0.59570 0.01700
C 	C 	0.24130 0.04860 0.48560 -0.12600
H 	H 	0.23630 0.12070 0.47010 0.00600
C 	C 	0.39260 0.45190 0.56080 0.15100
H 	H 	0.39340 0.41290 0.50380 0.12200
H 	H 	0.38350 0.47410 0.62350 0.08700
C 	C 	0.46720 0.08440 0.58010 0.10900
H 	H 	0.44090 0.02440 0.61310 0.09300
H 	H 	0.47710 0.15220 0.55540 0.09900
H 	H 	0.27540 0.01400 0.58420 0.07500
C 	C 	0.25270 0.01620 0.51970 0.05300
H 	H 	0.23230 0.03670 0.45790 0.04500
C 	C 	0.42040 0.49650 0.54370 -0.03000
C 	C 	0.51040 0.06030 0.55320 -0.01200
C 	C 	0.25040 0.96230 0.51390 0.01900
C 	C 	0.40870 0.51410 0.50200 -0.06400
C 	C 	0.46020 0.52020 0.56950 -0.05600
C 	C 	0.52300 0.07700 0.51090 -0.06800
C 	C 	0.27470 0.94030 0.47730 -0.09700
C 	C 	0.22400 0.93300 0.54460 -0.09600
H 	H 	0.38220 0.49870 0.48490 0.05400
C 	C 	0.43720 0.55530 0.48520 0.00500
H 	H 	0.46700 0.50910 0.59790 0.03600
H 	H 	0.50380 0.10370 0.49970 0.05400
H 	H 	0.29080 0.95980 0.45580 0.05200
C 	C 	0.27500 0.88840 0.47270 0.01500
C 	C 	0.22290 0.88220 0.54040 0.01400
H 	H 	0.20670 0.94770 0.56850 0.06400
C 	C 	0.42450 0.57620 0.44100 0.07400
C 	C 	0.30390 0.86600 0.43470 0.07100
C 	C 	0.24830 0.86160 0.50380 -0.08800
C 	C 	0.19590 0.85270 0.57540 0.09000
C 	C 	0.37090 0.58250 0.42650 -0.14300
C 	C 	0.46720 0.59270 0.41490 -0.14900
C 	C 	0.35440 0.88360 0.42140 -0.15400
C 	C 	0.28240 0.82510 0.41330 -0.15600
H 	H 	0.24710 0.82770 0.50050 0.06100
C 	C 	0.21690 0.81180 0.59200 -0.16100
C 	C 	0.14580 0.86870 0.59220 -0.16600
H 	H 	0.34200 0.57210 0.44400 0.08500
C 	C 	0.36060 0.60390 0.38660 0.06000
C 	C 	0.45600 0.61540 0.37430 0.06400
H 	H 	0.50320 0.58870 0.42410 0.08000
H 	H 	0.36920 0.91100 0.43530 0.08400
C 	C 	0.38370 0.86090 0.38740 0.07600
C 	C 	0.31130 0.80500 0.37860 0.08600
H 	H 	0.24920 0.81160 0.42220 0.08300
C 	C 	0.18760 0.78450 0.62580 0.09200
H 	H 	0.25050 0.80050 0.58200 0.08700
H 	H 	0.13000 0.89710 0.58100 0.09200
C 	C 	0.11920 0.84320 0.62520 0.10200
C 	C 	0.40340 0.62130 0.36010 -0.13700
H 	H 	0.32470 0.60690 0.37680 0.01900
H 	H 	0.48480 0.62650 0.35690 -0.00900
H 	H 	0.41810 0.87270 0.37940 0.00900
C 	C 	0.36190 0.82160 0.36600 -0.17600
H 	H 	0.29580 0.77900 0.36320 0.00100
H 	H 	0.20240 0.75530 0.63640 -0.00100
C 	C 	0.13880 0.80080 0.64230 -0.18500
H 	H 	0.08660 0.85570 0.63620 -0.00100
C 	C 	0.39250 0.64850 0.31870 0.33700
C 	C 	0.39150 0.79720 0.32890 0.41700
C 	C 	0.10700 0.77460 0.67890 0.47700
O 	O 	0.43230 0.66890 0.29960 -0.44000
O 	O 	0.34470 0.65200 0.30290 -0.40600
O 	O 	0.36690 0.76470 0.30890 -0.50800
O 	O 	0.43840 0.81360 0.31940 -0.32200
O 	O 	0.13130 0.74140 0.69460 -0.54700
O 	O 	0.06080 0.79130 0.68820 -0.34900
O 	O 	0.79700 0.62850 0.70519 -0.49100
C 	C 	0.81550 0.64040 0.66830 0.49800
C 	C 	0.84500 0.60080 0.64200 -0.20700
C 	C 	0.85660 0.55640 0.66070 0.10200
C 	C 	0.85860 0.60920 0.59860 0.11500
C 	C 	0.88310 0.52010 0.63560 -0.16800
H 	H 	0.84720 0.55020 0.68980 -0.00800
C 	C 	0.88270 0.57420 0.57360 -0.17200
H 	H 	0.85110 0.63970 0.58610 0.00100
H 	H 	0.89230 0.49020 0.64850 0.07800
C 	C 	0.89540 0.52840 0.59210 0.08800
H 	H 	0.89090 0.58040 0.54430 0.08500
C 	C 	0.92310 0.48950 0.56550 -0.00900
C 	C 	0.90670 0.48090 0.52110 -0.07600
C 	C 	0.96480 0.46160 0.58300 -0.05700
C 	C 	0.93130 0.44550 0.49610 0.00600
H 	H 	0.87870 0.49970 0.50890 0.05300
C 	C 	0.99160 0.42550 0.55800 -0.03500
H 	H 	0.97540 0.46670 0.61200 0.03400
C 	C 	0.91390 0.43470 0.45000 0.06700
C 	C 	0.97420 0.41820 0.51490 -0.06000
C 	C 	0.03780 0.39520 0.57570 0.17000
C 	C 	0.96010 0.42330 0.41900 -0.10900
C 	C 	0.86810 0.42680 0.43810 -0.14600
H 	H 	0.99150 0.39440 0.49800 0.05300
C 	C 	0.03930 0.37910 0.61820 -0.28900
C 	C 	0.07890 0.38110 0.54850 -0.27900
H 	H 	0.99630 0.42700 0.42780 0.06900
C 	C 	0.94780 0.40740 0.37720 0.00500
C 	C 	0.85440 0.40630 0.39520 0.02500
H 	H 	0.83960 0.43410 0.45730 0.07900
H 	H 	0.01160 0.38820 0.63750 0.10600
C 	C 	0.08230 0.34870 0.63330 0.20800
H 	H 	0.08040 0.39430 0.52030 0.12000
C 	C 	0.11850 0.34800 0.56110 0.22600
C 	C 	0.89040 0.40190 0.36520 -0.09100
H 	H 	0.97540 0.40020 0.35710 0.03600
H 	H 	0.81870 0.39620 0.38960 0.01800
H 	H 	0.08420 0.33950 0.66270 -0.18900
C 	C 	0.12180 0.33280 0.60350 -0.38800
H 	H 	0.14310 0.33600 0.54040 -0.03000
C 	C 	0.88400 0.37380 0.32050 0.25100
C 	C 	0.16590 0.29970 0.61730 0.54800
O 	O 	0.83710 0.37280 0.30510 -0.40900
O 	O 	0.92950 0.35910 0.29910 -0.38800
H 	H 	0.24420 0.31770 0.77980 5.68200
H 	H 	0.27750 0.32130 0.73580 5.60900
H 	H 	0.21380 0.31430 0.73450 5.59800
O 	O 	0.23810 0.19850 0.51270 -0.17200
O 	O 	0.30350 0.28740 0.58150 -0.22200
Dy	Dy	0.74457 0.76063 0.13733 2.21900
O 	O 	0.69830 0.68250 0.14938 -1.08700
O 	O 	0.74240 0.76897 0.21431 -4.32100
O 	O 	0.67810 0.72090 0.08880 -0.22300
O 	O 	0.66070 0.79740 0.15040 -0.51500
O 	O 	0.73570 0.81510 0.08172 -0.47800
O 	O 	0.81100 0.81810 0.15116 -0.48300
O 	O 	0.82150 0.70620 0.15680 -1.07100
O 	O 	0.80810 0.72330 0.08780 -0.48600
C 	C 	0.68170 0.67970 0.11020 0.52300
C 	C 	0.65650 0.84220 0.15530 0.49400
C 	C 	0.74370 0.82880 0.04240 0.41200
C 	C 	0.65490 0.63470 0.09340 -0.35700
O 	O 	0.68590 0.86650 0.18080 -0.50800
C 	C 	0.61310 0.86920 0.12960 -0.24000
O 	O 	0.73940 0.79960 0.01120 -0.07100
C 	C 	0.74420 0.88270 0.03460 -0.14900
C 	C 	0.64010 0.63080 0.04940 0.20300
C 	C 	0.64570 0.59460 0.12120 0.23000
C 	C 	0.60440 0.91840 0.13440 0.13500
C 	C 	0.58450 0.84380 0.09890 0.14200
C 	C 	0.73210 0.91510 0.06800 0.07200
C 	C 	0.75670 0.90090 0.99310 0.05500
H 	H 	0.64630 0.65710 0.03060 -0.02100
C 	C 	0.61660 0.58870 0.03320 -0.25100
C 	C 	0.62230 0.55230 0.10470 -0.29800
H 	H 	0.65530 0.59650 0.15070 -0.25700
H 	H 	0.62530 0.93620 0.15430 -0.02800
C 	C 	0.56460 0.94200 0.10980 -0.19700
C 	C 	0.54350 0.86620 0.07510 -0.19600
H 	H 	0.59260 0.81100 0.09400 -0.01100
C 	C 	0.73320 0.96480 0.06120 -0.13300
H 	H 	0.72310 0.90300 0.09570 0.01700
C 	C 	0.75870 0.95140 0.98560 -0.12700
H 	H 	0.76370 0.87930 0.97010 0.00600
C 	C 	0.60740 0.54810 0.06080 0.15100
H 	H 	0.60660 0.58710 0.00380 0.12200
H 	H 	0.61650 0.52590 0.12350 0.08700
C 	C 	0.53280 0.91560 0.08010 0.11000
H 	H 	0.55910 0.97560 0.11310 0.09300
H 	H 	0.52290 0.84780 0.05540 0.09900
H 	H 	0.72460 0.98600 0.08420 0.07500
C 	C 	0.74730 0.98380 0.01970 0.05300
H 	H 	0.76770 0.96330 0.95790 0.04500
C 	C 	0.57960 0.50350 0.04370 -0.03000
C 	C 	0.48960 0.93970 0.05320 -0.01300
C 	C 	0.74960 0.03770 0.01390 0.01800
C 	C 	0.59130 0.48590 0.00200 -0.06500
C 	C 	0.53980 0.47980 0.06950 -0.05600
C 	C 	0.47700 0.92300 0.01090 -0.06700
C 	C 	0.72530 0.05970 0.97730 -0.09600
C 	C 	0.77600 0.06700 0.04460 -0.09500
H 	H 	0.61780 0.50130 0.98490 0.05400
C 	C 	0.56280 0.44470 0.98520 0.00600
H 	H 	0.53300 0.49090 0.09790 0.03600
H 	H 	0.49620 0.89630 0.99970 0.05300
H 	H 	0.70920 0.04020 0.95580 0.05200
C 	C 	0.72500 0.11160 0.97270 0.01500
C 	C 	0.77710 0.11780 0.04040 0.01400
H 	H 	0.79330 0.05230 0.06850 0.06400
C 	C 	0.57550 0.42380 0.94100 0.07400
C 	C 	0.69610 0.13400 0.93470 0.07100
C 	C 	0.75170 0.13840 0.00380 -0.08900
C 	C 	0.80410 0.14730 0.07540 0.09000
C 	C 	0.62910 0.41750 0.92650 -0.14300
C 	C 	0.53280 0.40730 0.91490 -0.14900
C 	C 	0.64560 0.11640 0.92140 -0.15400
C 	C 	0.71760 0.17490 0.91330 -0.15600
H 	H 	0.75290 0.17230 0.00050 0.06100
C 	C 	0.78310 0.18820 0.09200 -0.16100
C 	C 	0.85420 0.13130 0.09220 -0.16600
H 	H 	0.65800 0.42790 0.94400 0.08500
C 	C 	0.63940 0.39610 0.88660 0.06000
C 	C 	0.54400 0.38460 0.87430 0.06400
H 	H 	0.49680 0.41130 0.92410 0.08000
H 	H 	0.63080 0.08900 0.93530 0.08400
C 	C 	0.61630 0.13910 0.88740 0.07600
C 	C 	0.68870 0.19500 0.87860 0.08600
H 	H 	0.75080 0.18840 0.92220 0.08300
C 	C 	0.81240 0.21550 0.12580 0.09200
H 	H 	0.74950 0.19950 0.08200 0.08700
H 	H 	0.87000 0.10290 0.08100 0.09200
C 	C 	0.88080 0.15680 0.12520 0.10200
C 	C 	0.59660 0.37870 0.86010 -0.13700
H 	H 	0.67530 0.39310 0.87680 0.01900
H 	H 	0.51520 0.37350 0.85690 -0.00900
H 	H 	0.58190 0.12730 0.87940 0.00900
C 	C 	0.63810 0.17840 0.86600 -0.17600
H 	H 	0.70420 0.22100 0.86320 0.00100
H 	H 	0.79760 0.24470 0.13640 -0.00100
C 	C 	0.86120 0.19920 0.14230 -0.18500
H 	H 	0.91340 0.14430 0.13620 -0.00100
C 	C 	0.60750 0.35150 0.81870 0.33700
C 	C 	0.60850 0.20280 0.82890 0.41700
C 	C 	0.89300 0.22540 0.17890 0.47700
O 	O 	0.56770 0.33110 0.79960 -0.44000
O 	O 	0.65530 0.34800 0.80290 -0.40600
O 	O 	0.63310 0.23530 0.80890 -0.50800
O 	O 	0.56160 0.18640 0.81940 -0.32200
O 	O 	0.86870 0.25860 0.19460 -0.54700
O 	O 	0.93920 0.20870 0.18820 -0.34900
O 	O 	0.20300 0.37150 0.20519 -0.49100
C 	C 	0.18450 0.35960 0.16830 0.49800
C 	C 	0.15500 0.39920 0.14200 -0.20700
C 	C 	0.14340 0.44360 0.16070 0.10200
C 	C 	0.14140 0.39080 0.09860 0.11500
C 	C 	0.11690 0.47990 0.13560 -0.16800
H 	H 	0.15280 0.44980 0.18980 -0.00800
C 	C 	0.11730 0.42580 0.07360 -0.17200
H 	H 	0.14890 0.36030 0.08610 0.00100
H 	H 	0.10770 0.50980 0.14850 0.07800
C 	C 	0.10460 0.47160 0.09210 0.08800
H 	H 	0.10910 0.41960 0.04430 0.08500
C 	C 	0.07690 0.51050 0.06550 -0.00900
C 	C 	0.09330 0.51910 0.02110 -0.07500
C 	C 	0.03520 0.53840 0.08300 -0.05600
C 	C 	0.06870 0.55450 0.99610 0.00600
H 	H 	0.12130 0.50030 0.00890 0.05200
C 	C 	0.00840 0.57450 0.05800 -0.03500
H 	H 	0.02460 0.53330 0.11200 0.03400
C 	C 	0.08610 0.56530 0.95000 0.06800
C 	C 	0.02580 0.58180 0.01490 -0.06000
C 	C 	0.96220 0.60480 0.07570 0.17000
C 	C 	0.03990 0.57670 0.91900 -0.11000
C 	C 	0.13190 0.57320 0.93810 -0.14600
H 	H 	0.00850 0.60560 0.99800 0.05300
C 	C 	0.96070 0.62090 0.11820 -0.28900
C 	C 	0.92110 0.61890 0.04850 -0.27900
H 	H 	0.00370 0.57300 0.92780 0.06900
C 	C 	0.05220 0.59260 0.87720 0.00600
C 	C 	0.14560 0.59370 0.89520 0.02500
H 	H 	0.16040 0.56590 0.95730 0.07900
H 	H 	0.98840 0.61180 0.13750 0.10600
C 	C 	0.91770 0.65130 0.13330 0.20800
H 	H 	0.91960 0.60570 0.02030 0.12000
C 	C 	0.88150 0.65200 0.06110 0.22600
C 	C 	0.10960 0.59810 0.86520 -0.09100
H 	H 	0.02460 0.59980 0.85710 0.03600
H 	H 	0.18130 0.60380 0.88960 0.01700
H 	H 	0.91580 0.66050 0.16270 -0.18900
C 	C 	0.87820 0.66720 0.10350 -0.38800
H 	H 	0.85690 0.66400 0.04040 -0.03000
C 	C 	0.11600 0.62620 0.82050 0.25100
C 	C 	0.83410 0.70030 0.11730 0.54800
O 	O 	0.16290 0.62720 0.80510 -0.41000
O 	O 	0.07050 0.64090 0.79910 -0.38800
H 	H 	0.75580 0.68230 0.27980 5.68200
H 	H 	0.72250 0.67870 0.23580 5.60900
H 	H 	0.78620 0.68570 0.23450 5.59800
O 	O 	0.76190 0.80150 0.01270 -0.17200
O 	O 	0.69650 0.71260 0.08150 -0.22200
Dy	Dy	0.74457 0.73937 0.86267 2.21900
O 	O 	0.69830 0.81750 0.85062 -1.08700
O 	O 	0.74240 0.73103 0.78569 -4.32000
O 	O 	0.67810 0.77910 0.91120 -0.22200
O 	O 	0.66070 0.70260 0.84960 -0.51500
O 	O 	0.73570 0.68490 0.91828 -0.47800
O 	O 	0.81100 0.68190 0.84884 -0.48300
O 	O 	0.82150 0.79380 0.84320 -1.07100
O 	O 	0.80810 0.77670 0.91220 -0.48600
C 	C 	0.68170 0.82030 0.88980 0.52300
C 	C 	0.65650 0.65780 0.84470 0.49400
C 	C 	0.74370 0.67120 0.95760 0.41200
C 	C 	0.65490 0.86530 0.90660 -0.35700
O 	O 	0.68590 0.63350 0.81920 -0.50800
C 	C 	0.61310 0.63080 0.87040 -0.24000
O 	O 	0.73940 0.70040 0.98880 -0.07300
C 	C 	0.74420 0.61730 0.96540 -0.15000
C 	C 	0.64010 0.86920 0.95060 0.20400
C 	C 	0.64570 0.90540 0.87880 0.23100
C 	C 	0.60440 0.58160 0.86560 0.13500
C 	C 	0.58450 0.65620 0.90110 0.14200
C 	C 	0.73210 0.58490 0.93200 0.07200
C 	C 	0.75670 0.59910 0.00690 0.05500
H 	H 	0.64630 0.84290 0.96940 -0.02100
C 	C 	0.61660 0.91130 0.96680 -0.25200
C 	C 	0.62230 0.94770 0.89530 -0.29900
H 	H 	0.65530 0.90350 0.84930 -0.25700
H 	H 	0.62530 0.56380 0.84570 -0.02700
C 	C 	0.56460 0.55800 0.89020 -0.19600
C 	C 	0.54350 0.63380 0.92490 -0.19600
H 	H 	0.59260 0.68900 0.90600 -0.01000
C 	C 	0.73320 0.53520 0.93880 -0.13300
H 	H 	0.72310 0.59700 0.90430 0.01700
C 	C 	0.75870 0.54860 0.01440 -0.12700
H 	H 	0.76370 0.62070 0.02990 0.00600
C 	C 	0.60740 0.95190 0.93920 0.15200
H 	H 	0.60660 0.91290 0.99620 0.12200
H 	H 	0.61650 0.97410 0.87650 0.08700
C 	C 	0.53280 0.58440 0.91990 0.10900
H 	H 	0.55910 0.52440 0.88690 0.09300
H 	H 	0.52290 0.65220 0.94460 0.09900
H 	H 	0.72460 0.51400 0.91580 0.07500
C 	C 	0.74730 0.51620 0.98030 0.05300
H 	H 	0.76770 0.53670 0.04210 0.04500
C 	C 	0.57960 0.99650 0.95630 -0.03200
C 	C 	0.48960 0.56030 0.94680 -0.01200
C 	C 	0.74960 0.46230 0.98610 0.01800
C 	C 	0.59130 0.01410 0.99800 -0.06200
C 	C 	0.53980 0.02020 0.93050 -0.05400
C 	C 	0.47700 0.57700 0.98910 -0.06900
C 	C 	0.72530 0.44030 0.02270 -0.09600
C 	C 	0.77600 0.43300 0.95540 -0.09500
H 	H 	0.61780 0.99870 0.01510 0.05300
C 	C 	0.56280 0.05530 0.01480 0.00300
H 	H 	0.53300 0.00910 0.90210 0.03600
H 	H 	0.49620 0.60370 0.00030 0.05400
H 	H 	0.70920 0.45980 0.04420 0.05200
C 	C 	0.72500 0.38840 0.02730 0.01500
C 	C 	0.77710 0.38220 0.95960 0.01400
H 	H 	0.79330 0.44770 0.93150 0.06400
C 	C 	0.57550 0.07620 0.05900 0.07500
C 	C 	0.69610 0.36600 0.06530 0.07100
C 	C 	0.75170 0.36160 0.99620 -0.08800
C 	C 	0.80410 0.35270 0.92460 0.09000
C 	C 	0.62910 0.08250 0.07350 -0.14400
C 	C 	0.53280 0.09270 0.08510 -0.15000
C 	C 	0.64560 0.38360 0.07860 -0.15400
C 	C 	0.71760 0.32510 0.08670 -0.15600
H 	H 	0.75290 0.32770 0.99950 0.06100
C 	C 	0.78310 0.31180 0.90800 -0.16100
C 	C 	0.85420 0.36870 0.90780 -0.16600
H 	H 	0.65800 0.07210 0.05600 0.08500
C 	C 	0.63940 0.10390 0.11340 0.06000
C 	C 	0.54400 0.11540 0.12570 0.06500
H 	H 	0.49680 0.08870 0.07590 0.08000
H 	H 	0.63080 0.41100 0.06470 0.08400
C 	C 	0.61630 0.36090 0.11260 0.07600
C 	C 	0.68870 0.30500 0.12140 0.08600
H 	H 	0.75080 0.31160 0.07780 0.08300
C 	C 	0.81240 0.28450 0.87420 0.09200
H 	H 	0.74950 0.30050 0.91800 0.08700
H 	H 	0.87000 0.39710 0.91900 0.09200
C 	C 	0.88080 0.34320 0.87480 0.10200
C 	C 	0.59660 0.12130 0.13990 -0.13800
H 	H 	0.67530 0.10690 0.12320 0.01900
H 	H 	0.51520 0.12650 0.14310 -0.00900
H 	H 	0.58190 0.37270 0.12060 0.00900
C 	C 	0.63810 0.32160 0.13400 -0.17600
H 	H 	0.70420 0.27900 0.13680 0.00100
H 	H 	0.79760 0.25530 0.86360 -0.00100
C 	C 	0.86120 0.30080 0.85770 -0.18500
H 	H 	0.91340 0.35570 0.86380 -0.00200
C 	C 	0.60750 0.14850 0.18130 0.33700
C 	C 	0.60850 0.29720 0.17110 0.41700
C 	C 	0.89300 0.27460 0.82110 0.47700
O 	O 	0.56770 0.16890 0.20040 -0.44000
O 	O 	0.65530 0.15200 0.19710 -0.40600
O 	O 	0.63310 0.26470 0.19110 -0.50800
O 	O 	0.56160 0.31360 0.18060 -0.32200
O 	O 	0.86870 0.24140 0.80540 -0.54700
O 	O 	0.93920 0.29130 0.81180 -0.34900
O 	O 	0.20300 0.12850 0.79481 -0.49100
C 	C 	0.18450 0.14040 0.83170 0.49800
C 	C 	0.15500 0.10080 0.85800 -0.20700
C 	C 	0.14340 0.05640 0.83930 0.10200
C 	C 	0.14140 0.10920 0.90140 0.11500
C 	C 	0.11690 0.02010 0.86440 -0.16800
H 	H 	0.15280 0.05020 0.81020 -0.00800
C 	C 	0.11730 0.07420 0.92640 -0.17200
H 	H 	0.14890 0.13970 0.91390 0.00100
H 	H 	0.10770 0.99020 0.85150 0.07900
C 	C 	0.10460 0.02840 0.90790 0.08700
H 	H 	0.10910 0.08040 0.95570 0.08400
C 	C 	0.07690 0.98950 0.93450 -0.00800
C 	C 	0.09330 0.98090 0.97890 -0.07700
C 	C 	0.03520 0.96160 0.91700 -0.05800
C 	C 	0.06870 0.94550 0.00390 0.00800
H 	H 	0.12130 0.99970 0.99110 0.05300
C 	C 	0.00840 0.92550 0.94200 -0.03300
H 	H 	0.02460 0.96670 0.88800 0.03400
C 	C 	0.08610 0.93470 0.05000 0.06700
C 	C 	0.02580 0.91820 0.98510 -0.06200
C 	C 	0.96220 0.89520 0.92430 0.16900
C 	C 	0.03990 0.92330 0.08100 -0.10900
C 	C 	0.13190 0.92680 0.06190 -0.14500
H 	H 	0.00850 0.89440 0.00200 0.05400
C 	C 	0.96070 0.87910 0.88180 -0.28800
C 	C 	0.92110 0.88110 0.95150 -0.27700
H 	H 	0.00370 0.92700 0.07220 0.06900
C 	C 	0.05220 0.90740 0.12280 0.00500
C 	C 	0.14560 0.90630 0.10480 0.02500
H 	H 	0.16040 0.93410 0.04270 0.07900
H 	H 	0.98840 0.88820 0.86250 0.10600
C 	C 	0.91770 0.84870 0.86670 0.20700
H 	H 	0.91960 0.89430 0.97970 0.11900
C 	C 	0.88150 0.84800 0.93890 0.22500
C 	C 	0.10960 0.90190 0.13480 -0.09100
H 	H 	0.02460 0.90020 0.14290 0.03600
H 	H 	0.18130 0.89620 0.11040 0.01800
H 	H 	0.91580 0.83950 0.83730 -0.18900
C 	C 	0.87820 0.83280 0.89650 -0.38700
H 	H 	0.85690 0.83600 0.95960 -0.03000
C 	C 	0.11600 0.87380 0.17950 0.25100
C 	C 	0.83410 0.79970 0.88270 0.54800
O 	O 	0.16290 0.87280 0.19490 -0.40900
O 	O 	0.07050 0.85910 0.20090 -0.38800
H 	H 	0.75580 0.81770 0.72020 5.68100
H 	H 	0.72250 0.82130 0.76420 5.60900
H 	H 	0.78620 0.81430 0.76550 5.59800
O 	O 	0.76190 0.69850 0.98730 -0.17100
O 	O 	0.69650 0.78740 0.91850 -0.22300
Dy	Dy	0.25543 0.26063 0.36267 2.21900
O 	O 	0.30170 0.18250 0.35062 -1.08700
O 	O 	0.25760 0.26897 0.28569 -4.32000
O 	O 	0.32190 0.22090 0.41120 -0.22200
O 	O 	0.33930 0.29740 0.34960 -0.51500
O 	O 	0.26430 0.31510 0.41828 -0.47800
O 	O 	0.18900 0.31810 0.34884 -0.48300
O 	O 	0.17850 0.20620 0.34320 -1.07100
O 	O 	0.19190 0.22330 0.41220 -0.48600
C 	C 	0.31830 0.17970 0.38980 0.52300
C 	C 	0.34350 0.34220 0.34470 0.49400
C 	C 	0.25630 0.32880 0.45760 0.41200
C 	C 	0.34510 0.13470 0.40660 -0.35700
O 	O 	0.31410 0.36650 0.31920 -0.50800
C 	C 	0.38690 0.36920 0.37040 -0.24000
O 	O 	0.26060 0.29960 0.48880 -0.07200
C 	C 	0.25580 0.38270 0.46540 -0.14900
C 	C 	0.35990 0.13080 0.45060 0.20300
C 	C 	0.35430 0.09460 0.37880 0.23100
C 	C 	0.39560 0.41840 0.36560 0.13500
C 	C 	0.41550 0.34380 0.40110 0.14200
C 	C 	0.26790 0.41510 0.43200 0.07200
C 	C 	0.24330 0.40090 0.50690 0.05500
H 	H 	0.35370 0.15710 0.46940 -0.02100
C 	C 	0.38340 0.08870 0.46680 -0.25200
C 	C 	0.37770 0.05230 0.39530 -0.29800
H 	H 	0.34470 0.09650 0.34930 -0.25700
H 	H 	0.37470 0.43620 0.34570 -0.02700
C 	C 	0.43540 0.44200 0.39020 -0.19600
C 	C 	0.45650 0.36620 0.42490 -0.19600
H 	H 	0.40740 0.31100 0.40600 -0.01000
C 	C 	0.26680 0.46480 0.43880 -0.13300
H 	H 	0.27690 0.40300 0.40430 0.01700
C 	C 	0.24130 0.45140 0.51440 -0.12700
H 	H 	0.23630 0.37930 0.52990 0.00500
C 	C 	0.39260 0.04810 0.43920 0.15100
H 	H 	0.39340 0.08710 0.49620 0.12200
H 	H 	0.38350 0.02590 0.37650 0.08700
C 	C 	0.46720 0.41560 0.41990 0.10900
H 	H 	0.44090 0.47560 0.38690 0.09300
H 	H 	0.47710 0.34780 0.44460 0.09900
H 	H 	0.27540 0.48600 0.41580 0.07500
C 	C 	0.25270 0.48380 0.48030 0.05400
H 	H 	0.23230 0.46330 0.54210 0.04500
C 	C 	0.42040 0.00350 0.45630 -0.03100
C 	C 	0.51040 0.43970 0.44680 -0.01200
C 	C 	0.25040 0.53770 0.48610 0.01800
C 	C 	0.40870 0.98590 0.49800 -0.06400
C 	C 	0.46020 0.97980 0.43050 -0.05500
C 	C 	0.52300 0.42300 0.48910 -0.06900
C 	C 	0.27470 0.55970 0.52270 -0.09600
C 	C 	0.22400 0.56700 0.45540 -0.09500
H 	H 	0.38220 0.00130 0.51510 0.05400
C 	C 	0.43720 0.94470 0.51480 0.00500
H 	H 	0.46700 0.99090 0.40210 0.03600
H 	H 	0.50380 0.39630 0.50030 0.05400
H 	H 	0.29080 0.54020 0.54420 0.05100
C 	C 	0.27500 0.61160 0.52730 0.01500
C 	C 	0.22290 0.61780 0.45960 0.01400
H 	H 	0.20670 0.55230 0.43150 0.06400
C 	C 	0.42450 0.92380 0.55900 0.07400
C 	C 	0.30390 0.63400 0.56530 0.07100
C 	C 	0.24830 0.63840 0.49620 -0.08800
C 	C 	0.19590 0.64730 0.42460 0.09100
C 	C 	0.37090 0.91750 0.57350 -0.14300
C 	C 	0.46720 0.90730 0.58510 -0.14900
C 	C 	0.35440 0.61640 0.57860 -0.15400
C 	C 	0.28240 0.67490 0.58670 -0.15600
H 	H 	0.24710 0.67230 0.49950 0.06100
C 	C 	0.21690 0.68820 0.40800 -0.16100
C 	C 	0.14580 0.63130 0.40780 -0.16600
H 	H 	0.34200 0.92790 0.55600 0.08500
C 	C 	0.36060 0.89610 0.61340 0.06000
C 	C 	0.45600 0.88460 0.62570 0.06400
H 	H 	0.50320 0.91130 0.57590 0.08000
H 	H 	0.36920 0.58900 0.56470 0.08400
C 	C 	0.38370 0.63910 0.61260 0.07600
C 	C 	0.31130 0.69500 0.62140 0.08600
H 	H 	0.24920 0.68840 0.57780 0.08300
C 	C 	0.18760 0.71550 0.37420 0.09200
H 	H 	0.25050 0.69950 0.41800 0.08700
H 	H 	0.13000 0.60290 0.41900 0.09200
C 	C 	0.11920 0.65680 0.37480 0.10200
C 	C 	0.40340 0.87870 0.63990 -0.13700
H 	H 	0.32470 0.89310 0.62320 0.01900
H 	H 	0.48480 0.87350 0.64310 -0.00900
H 	H 	0.41810 0.62730 0.62060 0.00900
C 	C 	0.36190 0.67840 0.63400 -0.17600
H 	H 	0.29580 0.72100 0.63680 0.00100
H 	H 	0.20240 0.74470 0.36360 -0.00100
C 	C 	0.13880 0.69920 0.35770 -0.18500
H 	H 	0.08660 0.64430 0.36380 -0.00200
C 	C 	0.39250 0.85150 0.68130 0.33700
C 	C 	0.39150 0.70280 0.67110 0.41700
C 	C 	0.10700 0.72540 0.32110 0.47700
O 	O 	0.43230 0.83110 0.70040 -0.44000
O 	O 	0.34470 0.84800 0.69710 -0.40600
O 	O 	0.36690 0.73530 0.69110 -0.50800
O 	O 	0.43840 0.68640 0.68060 -0.32200
O 	O 	0.13130 0.75860 0.30540 -0.54700
O 	O 	0.06080 0.70870 0.31180 -0.34900
O 	O 	0.79700 0.87150 0.29481 -0.49100
C 	C 	0.81550 0.85960 0.33170 0.49800
C 	C 	0.84500 0.89920 0.35800 -0.20700
C 	C 	0.85660 0.94360 0.33930 0.10300
C 	C 	0.85860 0.89080 0.40140 0.11500
C 	C 	0.88310 0.97990 0.36440 -0.16900
H 	H 	0.84720 0.94980 0.31020 -0.00800
C 	C 	0.88270 0.92580 0.42640 -0.17200
H 	H 	0.85110 0.86030 0.41390 0.00100
H 	H 	0.89230 0.00980 0.35150 0.07900
C 	C 	0.89540 0.97160 0.40790 0.08700
H 	H 	0.89090 0.91960 0.45570 0.08400
C 	C 	0.92310 0.01050 0.43450 -0.00800
C 	C 	0.90670 0.01910 0.47890 -0.07600
C 	C 	0.96480 0.03840 0.41700 -0.05800
C 	C 	0.93130 0.05450 0.50390 0.00700
H 	H 	0.87870 0.00030 0.49110 0.05300
C 	C 	0.99160 0.07450 0.44200 -0.03400
H 	H 	0.97540 0.03330 0.38800 0.03400
C 	C 	0.91390 0.06530 0.55000 0.06700
C 	C 	0.97420 0.08180 0.48510 -0.06100
C 	C 	0.03780 0.10480 0.42430 0.16900
C 	C 	0.96010 0.07670 0.58100 -0.10900
C 	C 	0.86810 0.07320 0.56190 -0.14500
H 	H 	0.99150 0.10560 0.50200 0.05400
C 	C 	0.03930 0.12090 0.38180 -0.28800
C 	C 	0.07890 0.11890 0.45150 -0.27800
H 	H 	0.99630 0.07300 0.57220 0.06900
C 	C 	0.94780 0.09260 0.62280 0.00500
C 	C 	0.85440 0.09370 0.60480 0.02500
H 	H 	0.83960 0.06590 0.54270 0.07900
H 	H 	0.01160 0.11180 0.36250 0.10600
C 	C 	0.08230 0.15130 0.36670 0.20700
H 	H 	0.08040 0.10570 0.47970 0.11900
C 	C 	0.11850 0.15200 0.43890 0.22600
C 	C 	0.89040 0.09810 0.63480 -0.09100
H 	H 	0.97540 0.09980 0.64290 0.03600
H 	H 	0.81870 0.10380 0.61040 0.01800
H 	H 	0.08420 0.16050 0.33730 -0.18900
C 	C 	0.12180 0.16720 0.39650 -0.38700
H 	H 	0.14310 0.16400 0.45960 -0.03000
C 	C 	0.88400 0.12620 0.67950 0.25100
C 	C 	0.16590 0.20030 0.38270 0.54800
O 	O 	0.83710 0.12720 0.69490 -0.40900
O 	O 	0.92950 0.14090 0.70090 -0.38800
H 	H 	0.24420 0.18230 0.22020 5.68100
H 	H 	0.27750 0.17870 0.26420 5.60900
H 	H 	0.21380 0.18570 0.26550 5.59800
O 	O 	0.23810 0.30150 0.48730 -0.17100
O 	O 	0.30350 0.21260 0.41850 -0.22200
C 	C 	0.74630 0.74430 0.25000 12.84100
Dy	Dy	0.72428 0.85048 0.25000 1.89400
C 	C 	0.75320 0.69390 0.25000 -34.26500
Dy	Dy	0.87278 0.31286 0.25000 1.65200
C 	C 	0.25370 0.25570 0.75000 12.84100
Dy	Dy	0.27572 0.14952 0.75000 1.89400
C 	C 	0.24680 0.30610 0.75000 -34.26500
Dy	Dy	0.12722 0.68714 0.75000 1.65200
C 	C 	0.25370 0.24430 0.25000 12.84000
Dy	Dy	0.27572 0.35048 0.25000 1.89400
C 	C 	0.24680 0.19390 0.25000 -34.26100
Dy	Dy	0.12722 0.81286 0.25000 1.65200
C 	C 	0.74630 0.75570 0.75000 12.84000
Dy	Dy	0.72428 0.64952 0.75000 1.89400
C 	C 	0.75320 0.80610 0.75000 -34.26100
Dy	Dy	0.87278 0.18714 0.75000 1.65200
Dy	Dy	0.62513 0.28651 0.75000 1.64900
Dy	Dy	0.37487 0.71349 0.25000 1.64900
Dy	Dy	0.37487 0.78651 0.75000 1.64900
Dy	Dy	0.62513 0.21349 0.25000 1.64900
