data_crystal

_cell_length_a 35.75500
_cell_length_b 35.75500
_cell_length_c 35.75500
_cell_angle_alpha 90.00000
_cell_angle_beta  90.00000
_cell_angle_gamma 90.00000

_symmetry_space_group_name_	'P 1'
_symmetry_space_group_name_H-M	'P 1'

loop_
_symmetry_equiv_pos_as_xyz
  x,y,z

loop_
_atom_site_label
_atom_site_type_symbol
_atom_site_fract_x
_atom_site_fract_y
_atom_site_fract_z
_atom_site_charge
O 	O 	0.24390 0.70810 0.82596 -0.55200
C 	C 	0.31360 0.65870 0.97780 -0.01100
C 	C 	0.34490 0.67410 0.99500 -0.02200
C 	C 	0.35840 0.65870 0.02810 -0.00400
C 	C 	0.34060 0.62800 0.04392 -0.00200
C 	C 	0.30930 0.61267 0.02670 -0.01100
C 	C 	0.29580 0.62800 0.99370 -0.00900
C 	C 	0.36830 0.61530 0.08230 -0.00400
C 	C 	0.38300 0.71290 0.07060 -0.01700
C 	C 	0.36080 0.58530 0.10340 -0.00100
C 	C 	0.43190 0.66670 0.02930 -0.01900
C 	C 	0.39430 0.67220 0.05270 -0.00200
C 	C 	0.44020 0.62870 0.01490 -0.04400
C 	C 	0.35000 0.71630 0.09260 -0.01600
O 	O 	0.30340 0.72230 0.81240 -0.65300
C 	C 	0.28770 0.69781 0.87098 -0.14300
C 	C 	0.26061 0.68400 0.89530 0.05100
C 	C 	0.27090 0.67063 0.93030 -0.03500
C 	C 	0.30830 0.67100 0.94099 0.01400
C 	C 	0.33534 0.68470 0.91670 -0.05300
C 	C 	0.32500 0.69820 0.88170 0.00300
C 	C 	0.27670 0.71220 0.83180 0.44100
Zn	Zn	0.23602 0.80392 0.75177 1.05600
O 	O 	0.25610 0.29190 0.32596 -0.55100
C 	C 	0.18640 0.34130 0.47780 -0.01000
C 	C 	0.15510 0.32590 0.49500 -0.02100
C 	C 	0.14160 0.34130 0.52810 -0.00300
C 	C 	0.15940 0.37200 0.54392 -0.00100
C 	C 	0.19070 0.38733 0.52670 -0.01000
C 	C 	0.20420 0.37200 0.49370 -0.00800
C 	C 	0.13170 0.38470 0.58230 -0.00300
C 	C 	0.11700 0.28710 0.57060 -0.01600
C 	C 	0.13920 0.41470 0.60340 0.00000
C 	C 	0.06810 0.33330 0.52930 -0.01800
C 	C 	0.10570 0.32780 0.55270 -0.00100
C 	C 	0.05980 0.37130 0.51490 -0.04300
C 	C 	0.15000 0.28370 0.59260 -0.01500
O 	O 	0.19660 0.27770 0.31240 -0.65200
C 	C 	0.21230 0.30219 0.37098 -0.14200
C 	C 	0.23939 0.31600 0.39530 0.05200
C 	C 	0.22910 0.32937 0.43030 -0.03500
C 	C 	0.19170 0.32900 0.44099 0.01400
C 	C 	0.16466 0.31530 0.41670 -0.05300
C 	C 	0.17500 0.30180 0.38170 0.00300
C 	C 	0.22330 0.28780 0.33180 0.44100
Zn	Zn	0.26398 0.19608 0.25177 1.05600
O 	O 	0.75610 0.20810 0.67404 -0.55100
C 	C 	0.68640 0.15870 0.52220 -0.01000
C 	C 	0.65510 0.17410 0.50500 -0.02100
C 	C 	0.64160 0.15870 0.47190 -0.00300
C 	C 	0.65940 0.12800 0.45608 -0.00100
C 	C 	0.69070 0.11267 0.47330 -0.01000
C 	C 	0.70420 0.12800 0.50630 -0.00800
C 	C 	0.63170 0.11530 0.41770 -0.00300
C 	C 	0.61700 0.21290 0.42940 -0.01600
C 	C 	0.63920 0.08530 0.39660 0.00000
C 	C 	0.56810 0.16670 0.47070 -0.01800
C 	C 	0.60570 0.17220 0.44730 -0.00100
C 	C 	0.55980 0.12870 0.48510 -0.04300
C 	C 	0.65000 0.21630 0.40740 -0.01500
O 	O 	0.69660 0.22230 0.68760 -0.65200
C 	C 	0.71230 0.19781 0.62902 -0.14200
C 	C 	0.73939 0.18400 0.60470 0.05200
C 	C 	0.72910 0.17063 0.56970 -0.03500
C 	C 	0.69170 0.17100 0.55901 0.01400
C 	C 	0.66466 0.18470 0.58330 -0.05300
C 	C 	0.67500 0.19820 0.61830 0.00300
C 	C 	0.72330 0.21220 0.66820 0.44100
Zn	Zn	0.76398 0.30392 0.74823 1.05600
O 	O 	0.74390 0.79190 0.17404 -0.55100
C 	C 	0.81360 0.84130 0.02220 -0.01000
C 	C 	0.84490 0.82590 0.00500 -0.02100
C 	C 	0.85840 0.84130 0.97190 -0.00300
C 	C 	0.84060 0.87200 0.95608 -0.00100
C 	C 	0.80930 0.88733 0.97330 -0.01000
C 	C 	0.79580 0.87200 0.00630 -0.00800
C 	C 	0.86830 0.88470 0.91770 -0.00300
C 	C 	0.88300 0.78710 0.92940 -0.01600
C 	C 	0.86080 0.91470 0.89660 0.00000
C 	C 	0.93190 0.83330 0.97070 -0.01800
C 	C 	0.89430 0.82780 0.94730 -0.00100
C 	C 	0.94020 0.87130 0.98510 -0.04300
C 	C 	0.85000 0.78370 0.90740 -0.01500
O 	O 	0.80340 0.77770 0.18760 -0.65200
C 	C 	0.78770 0.80219 0.12902 -0.14200
C 	C 	0.76061 0.81600 0.10470 0.05200
C 	C 	0.77090 0.82937 0.06970 -0.03500
C 	C 	0.80830 0.82900 0.05901 0.01400
C 	C 	0.83534 0.81530 0.08330 -0.05400
C 	C 	0.82500 0.80180 0.11830 0.00300
C 	C 	0.77670 0.78780 0.16820 0.44100
Zn	Zn	0.73602 0.69608 0.24823 1.05600
O 	O 	0.82596 0.24390 0.70810 -0.55100
C 	C 	0.97780 0.31360 0.65870 -0.01000
C 	C 	0.99500 0.34490 0.67410 -0.02100
C 	C 	0.02810 0.35840 0.65870 -0.00300
C 	C 	0.04392 0.34060 0.62800 -0.00100
C 	C 	0.02670 0.30930 0.61267 -0.01000
C 	C 	0.99370 0.29580 0.62800 -0.00800
C 	C 	0.08230 0.36830 0.61530 -0.00300
C 	C 	0.07060 0.38300 0.71290 -0.01600
C 	C 	0.10340 0.36080 0.58530 0.00000
C 	C 	0.02930 0.43190 0.66670 -0.01800
C 	C 	0.05270 0.39430 0.67220 -0.00100
C 	C 	0.01490 0.44020 0.62870 -0.04300
C 	C 	0.09260 0.35000 0.71630 -0.01500
O 	O 	0.81240 0.30340 0.72230 -0.65200
C 	C 	0.87098 0.28770 0.69781 -0.14200
C 	C 	0.89530 0.26061 0.68400 0.05200
C 	C 	0.93030 0.27090 0.67063 -0.03500
C 	C 	0.94099 0.30830 0.67100 0.01400
C 	C 	0.91670 0.33534 0.68470 -0.05300
C 	C 	0.88170 0.32500 0.69820 0.00300
C 	C 	0.83180 0.27670 0.71220 0.44100
Zn	Zn	0.75177 0.23602 0.80392 1.05600
O 	O 	0.32596 0.25610 0.29190 -0.55100
C 	C 	0.47780 0.18640 0.34130 -0.01000
C 	C 	0.49500 0.15510 0.32590 -0.02100
C 	C 	0.52810 0.14160 0.34130 -0.00300
C 	C 	0.54392 0.15940 0.37200 -0.00100
C 	C 	0.52670 0.19070 0.38733 -0.01000
C 	C 	0.49370 0.20420 0.37200 -0.00800
C 	C 	0.58230 0.13170 0.38470 -0.00300
C 	C 	0.57060 0.11700 0.28710 -0.01600
C 	C 	0.60340 0.13920 0.41470 0.00000
C 	C 	0.52930 0.06810 0.33330 -0.01800
C 	C 	0.55270 0.10570 0.32780 -0.00100
C 	C 	0.51490 0.05980 0.37130 -0.04300
C 	C 	0.59260 0.15000 0.28370 -0.01500
O 	O 	0.31240 0.19660 0.27770 -0.65200
C 	C 	0.37098 0.21230 0.30219 -0.14200
C 	C 	0.39530 0.23939 0.31600 0.05200
C 	C 	0.43030 0.22910 0.32937 -0.03500
C 	C 	0.44099 0.19170 0.32900 0.01400
C 	C 	0.41670 0.16466 0.31530 -0.05300
C 	C 	0.38170 0.17500 0.30180 0.00300
C 	C 	0.33180 0.22330 0.28780 0.44100
Zn	Zn	0.25177 0.26398 0.19608 1.05600
O 	O 	0.67404 0.75610 0.20810 -0.55100
C 	C 	0.52220 0.68640 0.15870 -0.01000
C 	C 	0.50500 0.65510 0.17410 -0.02100
C 	C 	0.47190 0.64160 0.15870 -0.00300
C 	C 	0.45608 0.65940 0.12800 -0.00100
C 	C 	0.47330 0.69070 0.11267 -0.01000
C 	C 	0.50630 0.70420 0.12800 -0.00800
C 	C 	0.41770 0.63170 0.11530 -0.00300
C 	C 	0.42940 0.61700 0.21290 -0.01600
C 	C 	0.39660 0.63920 0.08530 0.00000
C 	C 	0.47070 0.56810 0.16670 -0.01800
C 	C 	0.44730 0.60570 0.17220 -0.00100
C 	C 	0.48510 0.55980 0.12870 -0.04300
C 	C 	0.40740 0.65000 0.21630 -0.01500
O 	O 	0.68760 0.69660 0.22230 -0.65200
C 	C 	0.62902 0.71230 0.19781 -0.14200
C 	C 	0.60470 0.73939 0.18400 0.05200
C 	C 	0.56970 0.72910 0.17063 -0.03500
C 	C 	0.55901 0.69170 0.17100 0.01400
C 	C 	0.58330 0.66466 0.18470 -0.05300
C 	C 	0.61830 0.67500 0.19820 0.00300
C 	C 	0.66820 0.72330 0.21220 0.44100
Zn	Zn	0.74823 0.76398 0.30392 1.05600
O 	O 	0.17404 0.74390 0.79190 -0.55100
C 	C 	0.02220 0.81360 0.84130 -0.01000
C 	C 	0.00500 0.84490 0.82590 -0.02100
C 	C 	0.97190 0.85840 0.84130 -0.00300
C 	C 	0.95608 0.84060 0.87200 -0.00100
C 	C 	0.97330 0.80930 0.88733 -0.01000
C 	C 	0.00630 0.79580 0.87200 -0.00800
C 	C 	0.91770 0.86830 0.88470 -0.00300
C 	C 	0.92940 0.88300 0.78710 -0.01600
C 	C 	0.89660 0.86080 0.91470 0.00000
C 	C 	0.97070 0.93190 0.83330 -0.01800
C 	C 	0.94730 0.89430 0.82780 -0.00100
C 	C 	0.98510 0.94020 0.87130 -0.04300
C 	C 	0.90740 0.85000 0.78370 -0.01500
O 	O 	0.18760 0.80340 0.77770 -0.65200
C 	C 	0.12902 0.78770 0.80219 -0.14200
C 	C 	0.10470 0.76061 0.81600 0.05200
C 	C 	0.06970 0.77090 0.82937 -0.03500
C 	C 	0.05901 0.80830 0.82900 0.01400
C 	C 	0.08330 0.83534 0.81530 -0.05400
C 	C 	0.11830 0.82500 0.80180 0.00300
C 	C 	0.16820 0.77670 0.78780 0.44100
Zn	Zn	0.24823 0.73602 0.69608 1.05600
O 	O 	0.70810 0.82596 0.24390 -0.55100
C 	C 	0.65870 0.97780 0.31360 -0.01000
C 	C 	0.67410 0.99500 0.34490 -0.02100
C 	C 	0.65870 0.02810 0.35840 -0.00300
C 	C 	0.62800 0.04392 0.34060 -0.00100
C 	C 	0.61267 0.02670 0.30930 -0.01000
C 	C 	0.62800 0.99370 0.29580 -0.00800
C 	C 	0.61530 0.08230 0.36830 -0.00300
C 	C 	0.71290 0.07060 0.38300 -0.01600
C 	C 	0.58530 0.10340 0.36080 0.00000
C 	C 	0.66670 0.02930 0.43190 -0.01800
C 	C 	0.67220 0.05270 0.39430 -0.00100
C 	C 	0.62870 0.01490 0.44020 -0.04300
C 	C 	0.71630 0.09260 0.35000 -0.01500
O 	O 	0.72230 0.81240 0.30340 -0.65200
C 	C 	0.69781 0.87098 0.28770 -0.14200
C 	C 	0.68400 0.89530 0.26061 0.05200
C 	C 	0.67063 0.93030 0.27090 -0.03500
C 	C 	0.67100 0.94099 0.30830 0.01400
C 	C 	0.68470 0.91670 0.33534 -0.05300
C 	C 	0.69820 0.88170 0.32500 0.00300
C 	C 	0.71220 0.83180 0.27670 0.44100
Zn	Zn	0.80392 0.75177 0.23602 1.05600
O 	O 	0.29190 0.32596 0.25610 -0.55100
C 	C 	0.34130 0.47780 0.18640 -0.01000
C 	C 	0.32590 0.49500 0.15510 -0.02100
C 	C 	0.34130 0.52810 0.14160 -0.00300
C 	C 	0.37200 0.54392 0.15940 -0.00100
C 	C 	0.38733 0.52670 0.19070 -0.01000
C 	C 	0.37200 0.49370 0.20420 -0.00800
C 	C 	0.38470 0.58230 0.13170 -0.00300
C 	C 	0.28710 0.57060 0.11700 -0.01600
C 	C 	0.41470 0.60340 0.13920 0.00000
C 	C 	0.33330 0.52930 0.06810 -0.01800
C 	C 	0.32780 0.55270 0.10570 -0.00100
C 	C 	0.37130 0.51490 0.05980 -0.04300
C 	C 	0.28370 0.59260 0.15000 -0.01500
O 	O 	0.27770 0.31240 0.19660 -0.65200
C 	C 	0.30219 0.37098 0.21230 -0.14200
C 	C 	0.31600 0.39530 0.23939 0.05200
C 	C 	0.32937 0.43030 0.22910 -0.03500
C 	C 	0.32900 0.44099 0.19170 0.01400
C 	C 	0.31530 0.41670 0.16466 -0.05300
C 	C 	0.30180 0.38170 0.17500 0.00300
C 	C 	0.28780 0.33180 0.22330 0.44100
Zn	Zn	0.19608 0.25177 0.26398 1.05600
O 	O 	0.20810 0.67404 0.75610 -0.55100
C 	C 	0.15870 0.52220 0.68640 -0.01000
C 	C 	0.17410 0.50500 0.65510 -0.02100
C 	C 	0.15870 0.47190 0.64160 -0.00300
C 	C 	0.12800 0.45608 0.65940 -0.00100
C 	C 	0.11267 0.47330 0.69070 -0.01000
C 	C 	0.12800 0.50630 0.70420 -0.00800
C 	C 	0.11530 0.41770 0.63170 -0.00300
C 	C 	0.21290 0.42940 0.61700 -0.01600
C 	C 	0.08530 0.39660 0.63920 0.00000
C 	C 	0.16670 0.47070 0.56810 -0.01800
C 	C 	0.17220 0.44730 0.60570 -0.00100
C 	C 	0.12870 0.48510 0.55980 -0.04300
C 	C 	0.21630 0.40740 0.65000 -0.01500
O 	O 	0.22230 0.68760 0.69660 -0.65200
C 	C 	0.19781 0.62902 0.71230 -0.14200
C 	C 	0.18400 0.60470 0.73939 0.05200
C 	C 	0.17063 0.56970 0.72910 -0.03500
C 	C 	0.17100 0.55901 0.69170 0.01400
C 	C 	0.18470 0.58330 0.66466 -0.05300
C 	C 	0.19820 0.61830 0.67500 0.00300
C 	C 	0.21220 0.66820 0.72330 0.44100
Zn	Zn	0.30392 0.74823 0.76398 1.05600
O 	O 	0.79190 0.17404 0.74390 -0.55100
C 	C 	0.84130 0.02220 0.81360 -0.01000
C 	C 	0.82590 0.00500 0.84490 -0.02100
C 	C 	0.84130 0.97190 0.85840 -0.00300
C 	C 	0.87200 0.95608 0.84060 -0.00100
C 	C 	0.88733 0.97330 0.80930 -0.01000
C 	C 	0.87200 0.00630 0.79580 -0.00800
C 	C 	0.88470 0.91770 0.86830 -0.00300
C 	C 	0.78710 0.92940 0.88300 -0.01600
C 	C 	0.91470 0.89660 0.86080 0.00000
C 	C 	0.83330 0.97070 0.93190 -0.01800
C 	C 	0.82780 0.94730 0.89430 -0.00100
C 	C 	0.87130 0.98510 0.94020 -0.04300
C 	C 	0.78370 0.90740 0.85000 -0.01500
O 	O 	0.77770 0.18760 0.80340 -0.65200
C 	C 	0.80219 0.12902 0.78770 -0.14200
C 	C 	0.81600 0.10470 0.76061 0.05200
C 	C 	0.82937 0.06970 0.77090 -0.03500
C 	C 	0.82900 0.05901 0.80830 0.01400
C 	C 	0.81530 0.08330 0.83534 -0.05400
C 	C 	0.80180 0.11830 0.82500 0.00300
C 	C 	0.78780 0.16820 0.77670 0.44100
Zn	Zn	0.69608 0.24823 0.73602 1.05600
Zn	Zn	0.22149 0.72149 0.77851 1.20200
O 	O 	0.25299 0.75299 0.74701 -1.15100
Zn	Zn	0.27851 0.27851 0.27851 1.20200
O 	O 	0.24701 0.24701 0.24701 -1.15200
Zn	Zn	0.77851 0.22149 0.72149 1.20200
O 	O 	0.74701 0.25299 0.75299 -1.15100
Zn	Zn	0.72149 0.77851 0.22149 1.20200
O 	O 	0.75299 0.74701 0.25299 -1.15100
O 	O 	0.74390 0.20810 0.32596 -0.55100
C 	C 	0.81360 0.15870 0.47780 -0.01000
C 	C 	0.84490 0.17410 0.49500 -0.02100
C 	C 	0.85840 0.15870 0.52810 -0.00300
C 	C 	0.84060 0.12800 0.54392 -0.00100
C 	C 	0.80930 0.11267 0.52670 -0.01000
C 	C 	0.79580 0.12800 0.49370 -0.00800
C 	C 	0.86830 0.11530 0.58230 -0.00300
C 	C 	0.88300 0.21290 0.57060 -0.01600
C 	C 	0.86080 0.08530 0.60340 0.00000
C 	C 	0.93190 0.16670 0.52930 -0.01800
C 	C 	0.89430 0.17220 0.55270 -0.00100
C 	C 	0.94020 0.12870 0.51490 -0.04300
C 	C 	0.85000 0.21630 0.59260 -0.01500
O 	O 	0.80340 0.22230 0.31240 -0.65200
C 	C 	0.78770 0.19781 0.37098 -0.14200
C 	C 	0.76061 0.18400 0.39530 0.05200
C 	C 	0.77090 0.17063 0.43030 -0.03500
C 	C 	0.80830 0.17100 0.44099 0.01400
C 	C 	0.83534 0.18470 0.41670 -0.05300
C 	C 	0.82500 0.19820 0.38170 0.00300
C 	C 	0.77670 0.21220 0.33180 0.44100
Zn	Zn	0.73602 0.30392 0.25177 1.05600
O 	O 	0.75610 0.79190 0.82596 -0.55100
C 	C 	0.68640 0.84130 0.97780 -0.01000
C 	C 	0.65510 0.82590 0.99500 -0.02100
C 	C 	0.64160 0.84130 0.02810 -0.00300
C 	C 	0.65940 0.87200 0.04392 -0.00100
C 	C 	0.69070 0.88733 0.02670 -0.01000
C 	C 	0.70420 0.87200 0.99370 -0.00800
C 	C 	0.63170 0.88470 0.08230 -0.00300
C 	C 	0.61700 0.78710 0.07060 -0.01600
C 	C 	0.63920 0.91470 0.10340 0.00000
C 	C 	0.56810 0.83330 0.02930 -0.01800
C 	C 	0.60570 0.82780 0.05270 -0.00100
C 	C 	0.55980 0.87130 0.01490 -0.04300
C 	C 	0.65000 0.78370 0.09260 -0.01500
O 	O 	0.69660 0.77770 0.81240 -0.65200
C 	C 	0.71230 0.80219 0.87098 -0.14200
C 	C 	0.73939 0.81600 0.89530 0.05200
C 	C 	0.72910 0.82937 0.93030 -0.03500
C 	C 	0.69170 0.82900 0.94099 0.01400
C 	C 	0.66466 0.81530 0.91670 -0.05300
C 	C 	0.67500 0.80180 0.88170 0.00300
C 	C 	0.72330 0.78780 0.83180 0.44100
Zn	Zn	0.76398 0.69608 0.75177 1.05600
O 	O 	0.25610 0.70810 0.17404 -0.55100
C 	C 	0.18640 0.65870 0.02220 -0.01000
C 	C 	0.15510 0.67410 0.00500 -0.02100
C 	C 	0.14160 0.65870 0.97190 -0.00300
C 	C 	0.15940 0.62800 0.95608 -0.00100
C 	C 	0.19070 0.61267 0.97330 -0.01000
C 	C 	0.20420 0.62800 0.00630 -0.00800
C 	C 	0.13170 0.61530 0.91770 -0.00300
C 	C 	0.11700 0.71290 0.92940 -0.01600
C 	C 	0.13920 0.58530 0.89660 0.00000
C 	C 	0.06810 0.66670 0.97070 -0.01800
C 	C 	0.10570 0.67220 0.94730 -0.00100
C 	C 	0.05980 0.62870 0.98510 -0.04300
C 	C 	0.15000 0.71630 0.90740 -0.01500
O 	O 	0.19660 0.72230 0.18760 -0.65200
C 	C 	0.21230 0.69781 0.12902 -0.14200
C 	C 	0.23939 0.68400 0.10470 0.05200
C 	C 	0.22910 0.67063 0.06970 -0.03500
C 	C 	0.19170 0.67100 0.05901 0.01400
C 	C 	0.16466 0.68470 0.08330 -0.05400
C 	C 	0.17500 0.69820 0.11830 0.00300
C 	C 	0.22330 0.71220 0.16820 0.44100
Zn	Zn	0.26398 0.80392 0.24823 1.05600
O 	O 	0.24390 0.29190 0.67404 -0.55100
C 	C 	0.31360 0.34130 0.52220 -0.01000
C 	C 	0.34490 0.32590 0.50500 -0.02100
C 	C 	0.35840 0.34130 0.47190 -0.00300
C 	C 	0.34060 0.37200 0.45608 -0.00100
C 	C 	0.30930 0.38733 0.47330 -0.01000
C 	C 	0.29580 0.37200 0.50630 -0.00800
C 	C 	0.36830 0.38470 0.41770 -0.00300
C 	C 	0.38300 0.28710 0.42940 -0.01600
C 	C 	0.36080 0.41470 0.39660 0.00000
C 	C 	0.43190 0.33330 0.47070 -0.01800
C 	C 	0.39430 0.32780 0.44730 -0.00100
C 	C 	0.44020 0.37130 0.48510 -0.04300
C 	C 	0.35000 0.28370 0.40740 -0.01500
O 	O 	0.30340 0.27770 0.68760 -0.65200
C 	C 	0.28770 0.30219 0.62902 -0.14200
C 	C 	0.26061 0.31600 0.60470 0.05200
C 	C 	0.27090 0.32937 0.56970 -0.03500
C 	C 	0.30830 0.32900 0.55901 0.01400
C 	C 	0.33534 0.31530 0.58330 -0.05300
C 	C 	0.32500 0.30180 0.61830 0.00300
C 	C 	0.27670 0.28780 0.66820 0.44100
Zn	Zn	0.23602 0.19608 0.74823 1.05600
O 	O 	0.32596 0.74390 0.20810 -0.55100
C 	C 	0.47780 0.81360 0.15870 -0.01000
C 	C 	0.49500 0.84490 0.17410 -0.02100
C 	C 	0.52810 0.85840 0.15870 -0.00300
C 	C 	0.54392 0.84060 0.12800 -0.00100
C 	C 	0.52670 0.80930 0.11267 -0.01000
C 	C 	0.49370 0.79580 0.12800 -0.00800
C 	C 	0.58230 0.86830 0.11530 -0.00300
C 	C 	0.57060 0.88300 0.21290 -0.01600
C 	C 	0.60340 0.86080 0.08530 0.00000
C 	C 	0.52930 0.93190 0.16670 -0.01800
C 	C 	0.55270 0.89430 0.17220 -0.00100
C 	C 	0.51490 0.94020 0.12870 -0.04300
C 	C 	0.59260 0.85000 0.21630 -0.01500
O 	O 	0.31240 0.80340 0.22230 -0.65200
C 	C 	0.37098 0.78770 0.19781 -0.14200
C 	C 	0.39530 0.76061 0.18400 0.05200
C 	C 	0.43030 0.77090 0.17063 -0.03500
C 	C 	0.44099 0.80830 0.17100 0.01400
C 	C 	0.41670 0.83534 0.18470 -0.05300
C 	C 	0.38170 0.82500 0.19820 0.00300
C 	C 	0.33180 0.77670 0.21220 0.44100
Zn	Zn	0.25177 0.73602 0.30392 1.05600
O 	O 	0.82596 0.75610 0.79190 -0.55100
C 	C 	0.97780 0.68640 0.84130 -0.01000
C 	C 	0.99500 0.65510 0.82590 -0.02100
C 	C 	0.02810 0.64160 0.84130 -0.00300
C 	C 	0.04392 0.65940 0.87200 -0.00100
C 	C 	0.02670 0.69070 0.88733 -0.01000
C 	C 	0.99370 0.70420 0.87200 -0.00800
C 	C 	0.08230 0.63170 0.88470 -0.00300
C 	C 	0.07060 0.61700 0.78710 -0.01600
C 	C 	0.10340 0.63920 0.91470 0.00000
C 	C 	0.02930 0.56810 0.83330 -0.01800
C 	C 	0.05270 0.60570 0.82780 -0.00100
C 	C 	0.01490 0.55980 0.87130 -0.04300
C 	C 	0.09260 0.65000 0.78370 -0.01500
O 	O 	0.81240 0.69660 0.77770 -0.65200
C 	C 	0.87098 0.71230 0.80219 -0.14200
C 	C 	0.89530 0.73939 0.81600 0.05200
C 	C 	0.93030 0.72910 0.82937 -0.03500
C 	C 	0.94099 0.69170 0.82900 0.01400
C 	C 	0.91670 0.66466 0.81530 -0.05300
C 	C 	0.88170 0.67500 0.80180 0.00300
C 	C 	0.83180 0.72330 0.78780 0.44100
Zn	Zn	0.75177 0.76398 0.69608 1.05600
O 	O 	0.17404 0.25610 0.70810 -0.55100
C 	C 	0.02220 0.18640 0.65870 -0.01000
C 	C 	0.00500 0.15510 0.67410 -0.02100
C 	C 	0.97190 0.14160 0.65870 -0.00300
C 	C 	0.95608 0.15940 0.62800 -0.00100
C 	C 	0.97330 0.19070 0.61267 -0.01000
C 	C 	0.00630 0.20420 0.62800 -0.00800
C 	C 	0.91770 0.13170 0.61530 -0.00300
C 	C 	0.92940 0.11700 0.71290 -0.01600
C 	C 	0.89660 0.13920 0.58530 0.00000
C 	C 	0.97070 0.06810 0.66670 -0.01800
C 	C 	0.94730 0.10570 0.67220 -0.00100
C 	C 	0.98510 0.05980 0.62870 -0.04300
C 	C 	0.90740 0.15000 0.71630 -0.01500
O 	O 	0.18760 0.19660 0.72230 -0.65200
C 	C 	0.12902 0.21230 0.69781 -0.14200
C 	C 	0.10470 0.23939 0.68400 0.05200
C 	C 	0.06970 0.22910 0.67063 -0.03500
C 	C 	0.05901 0.19170 0.67100 0.01400
C 	C 	0.08330 0.16466 0.68470 -0.05400
C 	C 	0.11830 0.17500 0.69820 0.00300
C 	C 	0.16820 0.22330 0.71220 0.44100
Zn	Zn	0.24823 0.26398 0.80392 1.05600
O 	O 	0.67404 0.24390 0.29190 -0.55100
C 	C 	0.52220 0.31360 0.34130 -0.01000
C 	C 	0.50500 0.34490 0.32590 -0.02100
C 	C 	0.47190 0.35840 0.34130 -0.00300
C 	C 	0.45608 0.34060 0.37200 -0.00100
C 	C 	0.47330 0.30930 0.38733 -0.01000
C 	C 	0.50630 0.29580 0.37200 -0.00800
C 	C 	0.41770 0.36830 0.38470 -0.00300
C 	C 	0.42940 0.38300 0.28710 -0.01600
C 	C 	0.39660 0.36080 0.41470 0.00000
C 	C 	0.47070 0.43190 0.33330 -0.01800
C 	C 	0.44730 0.39430 0.32780 -0.00100
C 	C 	0.48510 0.44020 0.37130 -0.04300
C 	C 	0.40740 0.35000 0.28370 -0.01500
O 	O 	0.68760 0.30340 0.27770 -0.65200
C 	C 	0.62902 0.28770 0.30219 -0.14200
C 	C 	0.60470 0.26061 0.31600 0.05200
C 	C 	0.56970 0.27090 0.32937 -0.03500
C 	C 	0.55901 0.30830 0.32900 0.01400
C 	C 	0.58330 0.33534 0.31530 -0.05300
C 	C 	0.61830 0.32500 0.30180 0.00300
C 	C 	0.66820 0.27670 0.28780 0.44100
Zn	Zn	0.74823 0.23602 0.19608 1.05600
O 	O 	0.20810 0.32596 0.74390 -0.55100
C 	C 	0.15870 0.47780 0.81360 -0.01000
C 	C 	0.17410 0.49500 0.84490 -0.02100
C 	C 	0.15870 0.52810 0.85840 -0.00300
C 	C 	0.12800 0.54392 0.84060 -0.00100
C 	C 	0.11267 0.52670 0.80930 -0.01000
C 	C 	0.12800 0.49370 0.79580 -0.00800
C 	C 	0.11530 0.58230 0.86830 -0.00300
C 	C 	0.21290 0.57060 0.88300 -0.01600
C 	C 	0.08530 0.60340 0.86080 0.00000
C 	C 	0.16670 0.52930 0.93190 -0.01800
C 	C 	0.17220 0.55270 0.89430 -0.00100
C 	C 	0.12870 0.51490 0.94020 -0.04300
C 	C 	0.21630 0.59260 0.85000 -0.01500
O 	O 	0.22230 0.31240 0.80340 -0.65200
C 	C 	0.19781 0.37098 0.78770 -0.14200
C 	C 	0.18400 0.39530 0.76061 0.05200
C 	C 	0.17063 0.43030 0.77090 -0.03500
C 	C 	0.17100 0.44099 0.80830 0.01400
C 	C 	0.18470 0.41670 0.83534 -0.05300
C 	C 	0.19820 0.38170 0.82500 0.00300
C 	C 	0.21220 0.33180 0.77670 0.44100
Zn	Zn	0.30392 0.25177 0.73602 1.05600
O 	O 	0.79190 0.82596 0.75610 -0.55100
C 	C 	0.84130 0.97780 0.68640 -0.01000
C 	C 	0.82590 0.99500 0.65510 -0.02100
C 	C 	0.84130 0.02810 0.64160 -0.00300
C 	C 	0.87200 0.04392 0.65940 -0.00100
C 	C 	0.88733 0.02670 0.69070 -0.01000
C 	C 	0.87200 0.99370 0.70420 -0.00800
C 	C 	0.88470 0.08230 0.63170 -0.00300
C 	C 	0.78710 0.07060 0.61700 -0.01600
C 	C 	0.91470 0.10340 0.63920 0.00000
C 	C 	0.83330 0.02930 0.56810 -0.01800
C 	C 	0.82780 0.05270 0.60570 -0.00100
C 	C 	0.87130 0.01490 0.55980 -0.04300
C 	C 	0.78370 0.09260 0.65000 -0.01500
O 	O 	0.77770 0.81240 0.69660 -0.65200
C 	C 	0.80219 0.87098 0.71230 -0.14200
C 	C 	0.81600 0.89530 0.73939 0.05200
C 	C 	0.82937 0.93030 0.72910 -0.03500
C 	C 	0.82900 0.94099 0.69170 0.01400
C 	C 	0.81530 0.91670 0.66466 -0.05300
C 	C 	0.80180 0.88170 0.67500 0.00300
C 	C 	0.78780 0.83180 0.72330 0.44100
Zn	Zn	0.69608 0.75177 0.76398 1.05600
O 	O 	0.70810 0.17404 0.25610 -0.55100
C 	C 	0.65870 0.02220 0.18640 -0.01000
C 	C 	0.67410 0.00500 0.15510 -0.02100
C 	C 	0.65870 0.97190 0.14160 -0.00300
C 	C 	0.62800 0.95608 0.15940 -0.00100
C 	C 	0.61267 0.97330 0.19070 -0.01000
C 	C 	0.62800 0.00630 0.20420 -0.00800
C 	C 	0.61530 0.91770 0.13170 -0.00300
C 	C 	0.71290 0.92940 0.11700 -0.01600
C 	C 	0.58530 0.89660 0.13920 0.00000
C 	C 	0.66670 0.97070 0.06810 -0.01800
C 	C 	0.67220 0.94730 0.10570 -0.00100
C 	C 	0.62870 0.98510 0.05980 -0.04300
C 	C 	0.71630 0.90740 0.15000 -0.01500
O 	O 	0.72230 0.18760 0.19660 -0.65200
C 	C 	0.69781 0.12902 0.21230 -0.14200
C 	C 	0.68400 0.10470 0.23939 0.05200
C 	C 	0.67063 0.06970 0.22910 -0.03500
C 	C 	0.67100 0.05901 0.19170 0.01400
C 	C 	0.68470 0.08330 0.16466 -0.05400
C 	C 	0.69820 0.11830 0.17500 0.00300
C 	C 	0.71220 0.16820 0.22330 0.44100
Zn	Zn	0.80392 0.24823 0.26398 1.05600
O 	O 	0.29190 0.67404 0.24390 -0.55100
C 	C 	0.34130 0.52220 0.31360 -0.01000
C 	C 	0.32590 0.50500 0.34490 -0.02100
C 	C 	0.34130 0.47190 0.35840 -0.00300
C 	C 	0.37200 0.45608 0.34060 -0.00100
C 	C 	0.38733 0.47330 0.30930 -0.01000
C 	C 	0.37200 0.50630 0.29580 -0.00800
C 	C 	0.38470 0.41770 0.36830 -0.00300
C 	C 	0.28710 0.42940 0.38300 -0.01600
C 	C 	0.41470 0.39660 0.36080 0.00000
C 	C 	0.33330 0.47070 0.43190 -0.01800
C 	C 	0.32780 0.44730 0.39430 -0.00100
C 	C 	0.37130 0.48510 0.44020 -0.04300
C 	C 	0.28370 0.40740 0.35000 -0.01500
O 	O 	0.27770 0.68760 0.30340 -0.65200
C 	C 	0.30219 0.62902 0.28770 -0.14200
C 	C 	0.31600 0.60470 0.26061 0.05200
C 	C 	0.32937 0.56970 0.27090 -0.03500
C 	C 	0.32900 0.55901 0.30830 0.01400
C 	C 	0.31530 0.58330 0.33534 -0.05300
C 	C 	0.30180 0.61830 0.32500 0.00300
C 	C 	0.28780 0.66820 0.27670 0.44100
Zn	Zn	0.19608 0.74823 0.23602 1.05600
Zn	Zn	0.72149 0.22149 0.27851 1.20200
O 	O 	0.75299 0.25299 0.24701 -1.15100
Zn	Zn	0.77851 0.77851 0.77851 1.20200
O 	O 	0.74701 0.74701 0.74701 -1.15100
Zn	Zn	0.27851 0.72149 0.22149 1.20200
O 	O 	0.24701 0.75299 0.25299 -1.15100
Zn	Zn	0.22149 0.27851 0.72149 1.20200
O 	O 	0.25299 0.24701 0.75299 -1.15100
