data_crystal

_cell_length_a 21.45510
_cell_length_b 21.45510
_cell_length_c 34.17080
_cell_angle_alpha 90.00000
_cell_angle_beta  90.00000
_cell_angle_gamma 120.00000

_symmetry_space_group_name_	'P 1'
_symmetry_space_group_name_H-M	'P 1'

loop_
_symmetry_equiv_pos_as_xyz
  x,y,z

loop_
_atom_site_label
_atom_site_type_symbol
_atom_site_fract_x
_atom_site_fract_y
_atom_site_fract_z
_atom_site_charge
W 	W 	0.29337 0.73113 0.06796 0.97600
W 	W 	0.15774 0.51820 0.97825 1.01200
W 	W 	0.29122 0.72878 0.77959 0.99900
W 	W 	0.15721 0.51871 0.86833 1.02600
W 	W 	0.17853 0.68362 0.97969 1.04600
W 	W 	0.17939 0.68447 0.86934 1.28500
N 	N 	0.27770 0.90780 0.71350 -0.26800
N 	N 	0.20180 0.85120 0.78240 -0.23000
O 	O 	0.14680 0.52270 0.92390 -0.45100
O 	O 	0.12040 0.58130 0.98690 -0.45000
O 	O 	0.12150 0.58340 0.86130 -0.46500
O 	O 	0.22610 0.48950 0.87870 -0.48900
O 	O 	0.25420 0.63570 0.87870 -0.35000
O 	O 	0.16520 0.67190 0.92400 -0.45900
O 	O 	0.25490 0.63530 0.96900 -0.33000
O 	O 	0.21440 0.69320 0.03160 -0.46300
O 	O 	0.25040 0.63260 0.75820 -0.45300
O 	O 	0.22700 0.48880 0.96930 -0.45600
O 	O 	0.21540 0.69380 0.81580 -0.47300
O 	O 	0.34290 0.80540 0.03120 -0.46600
O 	O 	0.25170 0.63490 0.09050 -0.43200
O 	O 	0.11710 0.71150 0.85850 -0.49200
O 	O 	0.19370 0.53730 0.81550 -0.45200
C 	C 	0.30820 0.92560 0.74860 -0.01800
H 	H 	0.35750 0.95740 0.75000 -0.02400
C 	C 	0.20890 0.86290 0.71290 -0.00200
H 	H 	0.18470 0.85000 0.68910 -0.03800
C 	C 	0.27150 0.89980 0.78220 -0.00900
H 	H 	0.29550 0.91650 0.80590 -0.02500
C 	C 	0.17160 0.83430 0.74700 -0.00400
H 	H 	0.12260 0.80120 0.74530 0.00500
W 	W 	0.96004 0.06446 0.40129 0.99500
W 	W 	0.82441 0.85153 0.31158 1.00800
W 	W 	0.95789 0.06211 0.11292 1.01400
W 	W 	0.82388 0.85204 0.20166 1.03100
W 	W 	0.84520 0.01695 0.31302 1.01700
W 	W 	0.84606 0.01780 0.20267 1.26500
N 	N 	0.94437 0.24113 0.04683 -0.27300
N 	N 	0.86847 0.18453 0.11573 -0.22500
O 	O 	0.81347 0.85603 0.25723 -0.44600
O 	O 	0.78707 0.91463 0.32023 -0.43800
O 	O 	0.78817 0.91673 0.19463 -0.45100
O 	O 	0.89277 0.82283 0.21203 -0.49100
O 	O 	0.92087 0.96903 0.21203 -0.32000
O 	O 	0.83187 0.00523 0.25733 -0.46000
O 	O 	0.92157 0.96863 0.30233 -0.30100
O 	O 	0.88107 0.02653 0.36493 -0.45800
O 	O 	0.91707 0.96593 0.09153 -0.44100
O 	O 	0.89367 0.82213 0.30263 -0.45700
O 	O 	0.88207 0.02713 0.14913 -0.47600
O 	O 	0.00957 0.13873 0.36453 -0.47000
O 	O 	0.91837 0.96823 0.42383 -0.41800
O 	O 	0.78377 0.04483 0.19183 -0.49100
O 	O 	0.86037 0.87063 0.14883 -0.45100
C 	C 	0.97487 0.25893 0.08193 0.02700
H 	H 	0.02417 0.29073 0.08333 -0.05800
C 	C 	0.87557 0.19623 0.04623 0.00100
H 	H 	0.85137 0.18333 0.02243 -0.04200
C 	C 	0.93817 0.23313 0.11553 -0.03300
H 	H 	0.96217 0.24983 0.13923 -0.01300
C 	C 	0.83827 0.16763 0.08033 -0.01000
H 	H 	0.78927 0.13453 0.07863 0.00500
W 	W 	0.62670 0.39780 0.73463 0.97700
W 	W 	0.49107 0.18487 0.64492 1.00000
W 	W 	0.62455 0.39545 0.44626 1.00000
W 	W 	0.49054 0.18538 0.53500 1.02400
W 	W 	0.51186 0.35029 0.64636 1.03800
W 	W 	0.51272 0.35114 0.53601 1.28600
N 	N 	0.61103 0.57447 0.38017 -0.26800
N 	N 	0.53513 0.51787 0.44907 -0.22900
O 	O 	0.48013 0.18937 0.59057 -0.44900
O 	O 	0.45373 0.24797 0.65357 -0.45000
O 	O 	0.45483 0.25007 0.52797 -0.46300
O 	O 	0.55943 0.15617 0.54537 -0.49100
O 	O 	0.58753 0.30237 0.54537 -0.34900
O 	O 	0.49853 0.33857 0.59067 -0.45700
O 	O 	0.58823 0.30197 0.63567 -0.33000
O 	O 	0.54773 0.35987 0.69827 -0.45400
O 	O 	0.58373 0.29927 0.42487 -0.45200
O 	O 	0.56033 0.15547 0.63597 -0.45800
O 	O 	0.54873 0.36047 0.48247 -0.47300
O 	O 	0.67623 0.47207 0.69787 -0.45900
O 	O 	0.58503 0.30157 0.75717 -0.43000
O 	O 	0.45043 0.37817 0.52517 -0.49000
O 	O 	0.52703 0.20397 0.48217 -0.45200
C 	C 	0.64153 0.59227 0.41527 -0.02000
H 	H 	0.69083 0.62407 0.41667 -0.02700
C 	C 	0.54223 0.52957 0.37957 -0.00300
H 	H 	0.51803 0.51667 0.35577 -0.03800
C 	C 	0.60483 0.56647 0.44887 -0.01000
H 	H 	0.62883 0.58317 0.47257 -0.02600
C 	C 	0.50493 0.50097 0.41367 -0.00500
H 	H 	0.45593 0.46787 0.41197 0.00600
W 	W 	0.26887 0.56224 0.06796 0.97500
W 	W 	0.48180 0.63954 0.97825 1.01800
W 	W 	0.27122 0.56244 0.77959 1.00000
W 	W 	0.48129 0.63850 0.86833 1.03000
W 	W 	0.31638 0.49491 0.97969 1.05000
W 	W 	0.31553 0.49492 0.86934 1.28700
N 	N 	0.09220 0.36990 0.71350 -0.27000
N 	N 	0.14880 0.35060 0.78240 -0.23000
O 	O 	0.47730 0.62410 0.92390 -0.44900
O 	O 	0.41870 0.53910 0.98690 -0.44700
O 	O 	0.41660 0.53810 0.86130 -0.46200
O 	O 	0.51050 0.73660 0.87870 -0.49000
O 	O 	0.36430 0.61850 0.87870 -0.35000
O 	O 	0.32810 0.49330 0.92400 -0.45800
O 	O 	0.36470 0.61960 0.96900 -0.33100
O 	O 	0.30680 0.52120 0.03160 -0.46200
O 	O 	0.36740 0.61780 0.75820 -0.45200
O 	O 	0.51120 0.73820 0.96930 -0.45600
O 	O 	0.30620 0.52160 0.81580 -0.47300
O 	O 	0.19460 0.53750 0.03120 -0.46800
O 	O 	0.36510 0.61680 0.09050 -0.43100
O 	O 	0.28850 0.40560 0.85850 -0.49000
O 	O 	0.46270 0.65640 0.81550 -0.45200
C 	C 	0.07440 0.38260 0.74860 -0.02100
H 	H 	0.04260 0.40010 0.75000 -0.03200
C 	C 	0.13710 0.34600 0.71290 -0.00400
H 	H 	0.15000 0.33470 0.68910 -0.03900
C 	C 	0.10020 0.37170 0.78220 -0.01200
H 	H 	0.08350 0.37900 0.80590 -0.02800
C 	C 	0.16570 0.33730 0.74700 -0.00600
H 	H 	0.19880 0.32140 0.74530 0.00600
W 	W 	0.93554 0.89557 0.40129 1.00200
W 	W 	0.14847 0.97287 0.31158 1.02500
W 	W 	0.93789 0.89577 0.11292 1.02200
W 	W 	0.14796 0.97183 0.20166 1.04900
W 	W 	0.98305 0.82824 0.31302 1.06000
W 	W 	0.98220 0.82825 0.20267 1.30700
N 	N 	0.75887 0.70323 0.04683 -0.26900
N 	N 	0.81547 0.68393 0.11573 -0.22900
O 	O 	0.14397 0.95743 0.25723 -0.44800
O 	O 	0.08537 0.87243 0.32023 -0.46200
O 	O 	0.08327 0.87143 0.19463 -0.47600
O 	O 	0.17717 0.06993 0.21203 -0.50100
O 	O 	0.03097 0.95183 0.21203 -0.34300
O 	O 	0.99477 0.82663 0.25733 -0.45400
O 	O 	0.03137 0.95293 0.30233 -0.32400
O 	O 	0.97347 0.85453 0.36493 -0.45000
O 	O 	0.03407 0.95113 0.09153 -0.45100
O 	O 	0.17787 0.07153 0.30263 -0.46700
O 	O 	0.97287 0.85493 0.14913 -0.46900
O 	O 	0.86127 0.87083 0.36453 -0.45900
O 	O 	0.03177 0.95013 0.42383 -0.43000
O 	O 	0.95517 0.73893 0.19183 -0.48900
O 	O 	0.12937 0.98973 0.14883 -0.43900
C 	C 	0.74107 0.71593 0.08193 -0.02000
H 	H 	0.70927 0.73343 0.08333 -0.02800
C 	C 	0.80377 0.67933 0.04623 -0.00200
H 	H 	0.81667 0.66803 0.02243 -0.03900
C 	C 	0.76687 0.70503 0.11553 -0.01100
H 	H 	0.75017 0.71233 0.13923 -0.02600
C 	C 	0.83237 0.67063 0.08033 -0.00600
H 	H 	0.86547 0.65473 0.07863 0.00700
W 	W 	0.60220 0.22891 0.73463 0.97300
W 	W 	0.81513 0.30621 0.64492 1.01100
W 	W 	0.60455 0.22911 0.44626 0.99900
W 	W 	0.81462 0.30517 0.53500 1.03300
W 	W 	0.64971 0.16158 0.64636 1.03300
W 	W 	0.64886 0.16159 0.53601 1.28600
N 	N 	0.42553 0.03657 0.38017 -0.27500
N 	N 	0.48213 0.01727 0.44907 -0.22500
O 	O 	0.81063 0.29077 0.59057 -0.44700
O 	O 	0.75203 0.20577 0.65357 -0.45000
O 	O 	0.74993 0.20477 0.52797 -0.46300
O 	O 	0.84383 0.40327 0.54537 -0.48700
O 	O 	0.69763 0.28517 0.54537 -0.35000
O 	O 	0.66143 0.15997 0.59067 -0.45700
O 	O 	0.69803 0.28627 0.63567 -0.33000
O 	O 	0.64013 0.18787 0.69827 -0.45500
O 	O 	0.70073 0.28447 0.42487 -0.45200
O 	O 	0.84453 0.40487 0.63597 -0.45400
O 	O 	0.63953 0.18827 0.48247 -0.47300
O 	O 	0.52793 0.20417 0.69787 -0.46000
O 	O 	0.69843 0.28347 0.75717 -0.43000
O 	O 	0.62183 0.07227 0.52517 -0.49500
O 	O 	0.79603 0.32307 0.48217 -0.45200
C 	C 	0.40773 0.04927 0.41527 -0.01800
H 	H 	0.37593 0.06677 0.41667 -0.03100
C 	C 	0.47043 0.01267 0.37957 0.01800
H 	H 	0.48333 0.00137 0.35577 -0.05200
C 	C 	0.43353 0.03837 0.44887 -0.01500
H 	H 	0.41683 0.04567 0.47257 -0.02900
C 	C 	0.49903 0.00397 0.41367 -0.05300
H 	H 	0.53213 0.98807 0.41197 0.03600
W 	W 	0.43776 0.70663 0.06796 0.97800
W 	W 	0.36046 0.84226 0.97825 1.02100
W 	W 	0.43756 0.70878 0.77959 1.00000
W 	W 	0.36150 0.84279 0.86833 1.03200
W 	W 	0.50509 0.82147 0.97969 1.05300
W 	W 	0.50508 0.82061 0.86934 1.28700
N 	N 	0.63010 0.72230 0.71350 -0.26800
N 	N 	0.64940 0.79820 0.78240 -0.22900
O 	O 	0.37590 0.85320 0.92390 -0.44800
O 	O 	0.46090 0.87960 0.98690 -0.44400
O 	O 	0.46190 0.87850 0.86130 -0.46000
O 	O 	0.26340 0.77390 0.87870 -0.49000
O 	O 	0.38150 0.74580 0.87870 -0.35000
O 	O 	0.50670 0.83480 0.92400 -0.45700
O 	O 	0.38040 0.74510 0.96900 -0.33100
O 	O 	0.47880 0.78560 0.03160 -0.46100
O 	O 	0.38220 0.74960 0.75820 -0.45100
O 	O 	0.26180 0.77300 0.96930 -0.45600
O 	O 	0.47840 0.78460 0.81580 -0.47200
O 	O 	0.46250 0.65710 0.03120 -0.46700
O 	O 	0.38320 0.74830 0.09050 -0.42900
O 	O 	0.59440 0.88290 0.85850 -0.48700
O 	O 	0.34360 0.80630 0.81550 -0.45200
C 	C 	0.61740 0.69180 0.74860 -0.01900
H 	H 	0.59990 0.64250 0.75000 -0.02800
C 	C 	0.65400 0.79110 0.71290 -0.00200
H 	H 	0.66530 0.81530 0.68910 -0.03800
C 	C 	0.62830 0.72850 0.78220 -0.01000
H 	H 	0.62100 0.70450 0.80590 -0.02600
C 	C 	0.66270 0.82840 0.74700 -0.00500
H 	H 	0.67860 0.87740 0.74530 0.00700
W 	W 	0.10443 0.03996 0.40129 0.94700
W 	W 	0.02713 0.17559 0.31158 0.98500
W 	W 	0.10423 0.04211 0.11292 0.96900
W 	W 	0.02817 0.17612 0.20166 1.00800
W 	W 	0.17176 0.15480 0.31302 1.03600
W 	W 	0.17175 0.15394 0.20267 1.28500
N 	N 	0.29677 0.05563 0.04683 -0.26300
N 	N 	0.31607 0.13153 0.11573 -0.23500
O 	O 	0.04257 0.18653 0.25723 -0.44900
O 	O 	0.12757 0.21293 0.32023 -0.44700
O 	O 	0.12857 0.21183 0.19463 -0.46100
O 	O 	0.93007 0.10723 0.21203 -0.47500
O 	O 	0.04817 0.07913 0.21203 -0.34900
O 	O 	0.17337 0.16813 0.25733 -0.45700
O 	O 	0.04707 0.07843 0.30233 -0.32900
O 	O 	0.14547 0.11893 0.36493 -0.45300
O 	O 	0.04887 0.08293 0.09153 -0.46400
O 	O 	0.92847 0.10633 0.30263 -0.44200
O 	O 	0.14507 0.11793 0.14913 -0.47100
O 	O 	0.12917 0.99043 0.36453 -0.44700
O 	O 	0.04987 0.08163 0.42383 -0.44200
O 	O 	0.26107 0.21623 0.19183 -0.49000
O 	O 	0.01027 0.13963 0.14883 -0.46200
C 	C 	0.28407 0.02513 0.08193 -0.07100
H 	H 	0.26657 0.97583 0.08333 0.00300
C 	C 	0.32067 0.12443 0.04623 -0.00700
H 	H 	0.33197 0.14863 0.02243 -0.04100
C 	C 	0.29497 0.06183 0.11553 0.01400
H 	H 	0.28767 0.03783 0.13923 -0.04200
C 	C 	0.32937 0.16173 0.08033 -0.00200
H 	H 	0.34527 0.21073 0.07863 0.00400
W 	W 	0.77109 0.37330 0.73463 0.98100
W 	W 	0.69379 0.50893 0.64492 1.00600
W 	W 	0.77089 0.37545 0.44626 1.00100
W 	W 	0.69483 0.50946 0.53500 1.03000
W 	W 	0.83842 0.48814 0.64636 1.04400
W 	W 	0.83841 0.48728 0.53601 1.28700
N 	N 	0.96343 0.38897 0.38017 -0.26200
N 	N 	0.98273 0.46487 0.44907 -0.23200
O 	O 	0.70923 0.51987 0.59057 -0.44700
O 	O 	0.79423 0.54627 0.65357 -0.44800
O 	O 	0.79523 0.54517 0.52797 -0.46100
O 	O 	0.59673 0.44057 0.54537 -0.48900
O 	O 	0.71483 0.41247 0.54537 -0.35000
O 	O 	0.84003 0.50147 0.59067 -0.45600
O 	O 	0.71373 0.41177 0.63567 -0.33100
O 	O 	0.81213 0.45227 0.69827 -0.45300
O 	O 	0.71553 0.41627 0.42487 -0.45100
O 	O 	0.59513 0.43967 0.63597 -0.45600
O 	O 	0.81173 0.45127 0.48247 -0.47200
O 	O 	0.79583 0.32377 0.69787 -0.45900
O 	O 	0.71653 0.41497 0.75717 -0.42900
O 	O 	0.92773 0.54957 0.52517 -0.48200
O 	O 	0.67693 0.47297 0.48217 -0.45200
C 	C 	0.95073 0.35847 0.41527 -0.02100
H 	H 	0.93323 0.30917 0.41667 -0.02500
C 	C 	0.98733 0.45777 0.37957 -0.02200
H 	H 	0.99863 0.48197 0.35577 -0.02500
C 	C 	0.96163 0.39517 0.44887 -0.00600
H 	H 	0.95433 0.37117 0.47257 -0.02300
C 	C 	0.99603 0.49507 0.41367 0.04100
H 	H 	0.01193 0.54407 0.41197 -0.02300
W 	W 	0.73113 0.29337 0.93204 0.97800
W 	W 	0.51820 0.15774 0.02175 0.98900
W 	W 	0.72878 0.29122 0.22041 1.00000
W 	W 	0.51871 0.15721 0.13167 1.02500
W 	W 	0.68362 0.17853 0.02031 1.02200
W 	W 	0.68447 0.17939 0.13066 1.28500
N 	N 	0.90780 0.27770 0.28650 -0.26700
N 	N 	0.85120 0.20180 0.21760 -0.22900
O 	O 	0.52270 0.14680 0.07610 -0.44700
O 	O 	0.58130 0.12040 0.01310 -0.45400
O 	O 	0.58340 0.12150 0.13870 -0.46500
O 	O 	0.48950 0.22610 0.12130 -0.48900
O 	O 	0.63570 0.25420 0.12130 -0.34900
O 	O 	0.67190 0.16520 0.07600 -0.45600
O 	O 	0.63530 0.25490 0.03100 -0.33000
O 	O 	0.69320 0.21440 0.96840 -0.44600
O 	O 	0.63260 0.25040 0.24180 -0.45300
O 	O 	0.48880 0.22700 0.03070 -0.45600
O 	O 	0.69380 0.21540 0.18420 -0.47300
O 	O 	0.80540 0.34290 0.96880 -0.44900
O 	O 	0.63490 0.25170 0.90950 -0.43100
O 	O 	0.71150 0.11710 0.14150 -0.49300
O 	O 	0.53730 0.19370 0.18450 -0.45200
C 	C 	0.92560 0.30820 0.25140 -0.01800
H 	H 	0.95740 0.35750 0.25000 -0.02400
C 	C 	0.86290 0.20890 0.28710 -0.00200
H 	H 	0.85000 0.18470 0.31090 -0.03800
C 	C 	0.89980 0.27150 0.21780 -0.00900
H 	H 	0.91650 0.29550 0.19410 -0.02500
C 	C 	0.83430 0.17160 0.25300 -0.00400
H 	H 	0.80120 0.12260 0.25470 0.00500
W 	W 	0.39780 0.62670 0.26537 0.97700
W 	W 	0.18487 0.49107 0.35508 0.99900
W 	W 	0.39545 0.62455 0.55374 1.00000
W 	W 	0.18538 0.49054 0.46500 1.02400
W 	W 	0.35029 0.51186 0.35364 1.03800
W 	W 	0.35114 0.51272 0.46399 1.28600
N 	N 	0.57447 0.61103 0.61983 -0.26800
N 	N 	0.51787 0.53513 0.55093 -0.22900
O 	O 	0.18937 0.48013 0.40943 -0.44900
O 	O 	0.24797 0.45373 0.34643 -0.45000
O 	O 	0.25007 0.45483 0.47203 -0.46300
O 	O 	0.15617 0.55943 0.45463 -0.49100
O 	O 	0.30237 0.58753 0.45463 -0.34900
O 	O 	0.33857 0.49853 0.40933 -0.45700
O 	O 	0.30197 0.58823 0.36433 -0.33000
O 	O 	0.35987 0.54773 0.30173 -0.45400
O 	O 	0.29927 0.58373 0.57513 -0.45200
O 	O 	0.15547 0.56033 0.36403 -0.45800
O 	O 	0.36047 0.54873 0.51753 -0.47300
O 	O 	0.47207 0.67623 0.30213 -0.45900
O 	O 	0.30157 0.58503 0.24283 -0.43000
O 	O 	0.37817 0.45043 0.47483 -0.49000
O 	O 	0.20397 0.52703 0.51783 -0.45200
C 	C 	0.59227 0.64153 0.58473 -0.02000
H 	H 	0.62407 0.69083 0.58333 -0.02700
C 	C 	0.52957 0.54223 0.62043 -0.00300
H 	H 	0.51667 0.51803 0.64423 -0.03800
C 	C 	0.56647 0.60483 0.55113 -0.01000
H 	H 	0.58317 0.62883 0.52743 -0.02600
C 	C 	0.50097 0.50493 0.58633 -0.00500
H 	H 	0.46787 0.45593 0.58803 0.00600
W 	W 	0.06446 0.96004 0.59871 0.99400
W 	W 	0.85153 0.82441 0.68842 1.00800
W 	W 	0.06211 0.95789 0.88708 1.01600
W 	W 	0.85204 0.82388 0.79834 1.03100
W 	W 	0.01695 0.84520 0.68698 1.01600
W 	W 	0.01780 0.84606 0.79733 1.26400
N 	N 	0.24113 0.94437 0.95317 -0.26900
N 	N 	0.18453 0.86847 0.88427 -0.22500
O 	O 	0.85603 0.81347 0.74277 -0.44600
O 	O 	0.91463 0.78707 0.67977 -0.43800
O 	O 	0.91673 0.78817 0.80537 -0.45000
O 	O 	0.82283 0.89277 0.78797 -0.49100
O 	O 	0.96903 0.92087 0.78797 -0.32000
O 	O 	0.00523 0.83187 0.74267 -0.46000
O 	O 	0.96863 0.92157 0.69767 -0.30100
O 	O 	0.02653 0.88107 0.63507 -0.45800
O 	O 	0.96593 0.91707 0.90847 -0.43800
O 	O 	0.82213 0.89367 0.69737 -0.45700
O 	O 	0.02713 0.88207 0.85087 -0.47600
O 	O 	0.13873 0.00957 0.63547 -0.46900
O 	O 	0.96823 0.91837 0.57617 -0.41800
O 	O 	0.04483 0.78377 0.80817 -0.49000
O 	O 	0.87063 0.86037 0.85117 -0.45100
C 	C 	0.25893 0.97487 0.91807 0.02500
H 	H 	0.29073 0.02417 0.91667 -0.05300
C 	C 	0.19623 0.87557 0.95377 0.00000
H 	H 	0.18333 0.85137 0.97757 -0.03600
C 	C 	0.23313 0.93817 0.88447 -0.03100
H 	H 	0.24983 0.96217 0.86077 -0.01300
C 	C 	0.16763 0.83827 0.91967 -0.00800
H 	H 	0.13453 0.78927 0.92137 0.00600
W 	W 	0.56224 0.26887 0.93204 0.97500
W 	W 	0.63954 0.48180 0.02175 0.99400
W 	W 	0.56244 0.27122 0.22041 1.00000
W 	W 	0.63850 0.48129 0.13167 1.02800
W 	W 	0.49491 0.31638 0.02031 1.02500
W 	W 	0.49492 0.31553 0.13066 1.28600
N 	N 	0.36990 0.09220 0.28650 -0.27000
N 	N 	0.35060 0.14880 0.21760 -0.23000
O 	O 	0.62410 0.47730 0.07610 -0.44600
O 	O 	0.53910 0.41870 0.01310 -0.45100
O 	O 	0.53810 0.41660 0.13870 -0.46300
O 	O 	0.73660 0.51050 0.12130 -0.48900
O 	O 	0.61850 0.36430 0.12130 -0.34900
O 	O 	0.49330 0.32810 0.07600 -0.45500
O 	O 	0.61960 0.36470 0.03100 -0.33000
O 	O 	0.52120 0.30680 0.96840 -0.44500
O 	O 	0.61780 0.36740 0.24180 -0.45200
O 	O 	0.73820 0.51120 0.03070 -0.45600
O 	O 	0.52160 0.30620 0.18420 -0.47300
O 	O 	0.53750 0.19460 0.96880 -0.45100
O 	O 	0.61680 0.36510 0.90950 -0.43000
O 	O 	0.40560 0.28850 0.14150 -0.49000
O 	O 	0.65640 0.46270 0.18450 -0.45200
C 	C 	0.38260 0.07440 0.25140 -0.02100
H 	H 	0.40010 0.04260 0.25000 -0.03200
C 	C 	0.34600 0.13710 0.28710 -0.00400
H 	H 	0.33470 0.15000 0.31090 -0.03900
C 	C 	0.37170 0.10020 0.21780 -0.01200
H 	H 	0.37900 0.08350 0.19410 -0.02800
C 	C 	0.33730 0.16570 0.25300 -0.00600
H 	H 	0.32140 0.19880 0.25470 0.00600
W 	W 	0.22891 0.60220 0.26537 0.97200
W 	W 	0.30621 0.81513 0.35508 1.01100
W 	W 	0.22911 0.60455 0.55374 0.99900
W 	W 	0.30517 0.81462 0.46500 1.03300
W 	W 	0.16158 0.64971 0.35364 1.03300
W 	W 	0.16159 0.64886 0.46399 1.28600
N 	N 	0.03657 0.42553 0.61983 -0.27500
N 	N 	0.01727 0.48213 0.55093 -0.22500
O 	O 	0.29077 0.81063 0.40943 -0.44700
O 	O 	0.20577 0.75203 0.34643 -0.45000
O 	O 	0.20477 0.74993 0.47203 -0.46300
O 	O 	0.40327 0.84383 0.45463 -0.48700
O 	O 	0.28517 0.69763 0.45463 -0.35000
O 	O 	0.15997 0.66143 0.40933 -0.45700
O 	O 	0.28627 0.69803 0.36433 -0.33000
O 	O 	0.18787 0.64013 0.30173 -0.45500
O 	O 	0.28447 0.70073 0.57513 -0.45200
O 	O 	0.40487 0.84453 0.36403 -0.45400
O 	O 	0.18827 0.63953 0.51753 -0.47300
O 	O 	0.20417 0.52793 0.30213 -0.46000
O 	O 	0.28347 0.69843 0.24283 -0.43000
O 	O 	0.07227 0.62183 0.47483 -0.49500
O 	O 	0.32307 0.79603 0.51783 -0.45200
C 	C 	0.04927 0.40773 0.58473 -0.01800
H 	H 	0.06677 0.37593 0.58333 -0.03100
C 	C 	0.01267 0.47043 0.62043 0.01800
H 	H 	0.00137 0.48333 0.64423 -0.05200
C 	C 	0.03837 0.43353 0.55113 -0.01500
H 	H 	0.04567 0.41683 0.52743 -0.02900
C 	C 	0.00397 0.49903 0.58633 -0.05400
H 	H 	0.98807 0.53213 0.58803 0.03700
W 	W 	0.89557 0.93554 0.59871 1.00100
W 	W 	0.97287 0.14847 0.68842 1.02500
W 	W 	0.89577 0.93789 0.88708 1.02500
W 	W 	0.97183 0.14796 0.79834 1.05000
W 	W 	0.82824 0.98305 0.68698 1.05900
W 	W 	0.82825 0.98220 0.79733 1.30600
N 	N 	0.70323 0.75887 0.95317 -0.26500
N 	N 	0.68393 0.81547 0.88427 -0.22900
O 	O 	0.95743 0.14397 0.74277 -0.44800
O 	O 	0.87243 0.08537 0.67977 -0.46200
O 	O 	0.87143 0.08327 0.80537 -0.47500
O 	O 	0.06993 0.17717 0.78797 -0.50100
O 	O 	0.95183 0.03097 0.78797 -0.34300
O 	O 	0.82663 0.99477 0.74267 -0.45400
O 	O 	0.95293 0.03137 0.69767 -0.32400
O 	O 	0.85453 0.97347 0.63507 -0.45000
O 	O 	0.95113 0.03407 0.90847 -0.44800
O 	O 	0.07153 0.17787 0.69737 -0.46800
O 	O 	0.85493 0.97287 0.85087 -0.46900
O 	O 	0.87083 0.86127 0.63547 -0.45900
O 	O 	0.95013 0.03177 0.57617 -0.42900
O 	O 	0.73893 0.95517 0.80817 -0.48900
O 	O 	0.98973 0.12937 0.85117 -0.43900
C 	C 	0.71593 0.74107 0.91807 -0.01900
H 	H 	0.73343 0.70927 0.91667 -0.02500
C 	C 	0.67933 0.80377 0.95377 -0.00200
H 	H 	0.66803 0.81667 0.97757 -0.03300
C 	C 	0.70503 0.76687 0.88447 -0.01000
H 	H 	0.71233 0.75017 0.86077 -0.02600
C 	C 	0.67063 0.83237 0.91967 -0.00400
H 	H 	0.65473 0.86547 0.92137 0.00800
W 	W 	0.70663 0.43776 0.93204 0.97900
W 	W 	0.84226 0.36046 0.02175 0.99700
W 	W 	0.70878 0.43756 0.22041 1.00100
W 	W 	0.84279 0.36150 0.13167 1.03100
W 	W 	0.82147 0.50509 0.02031 1.02900
W 	W 	0.82061 0.50508 0.13066 1.28600
N 	N 	0.72230 0.63010 0.28650 -0.26800
N 	N 	0.79820 0.64940 0.21760 -0.22900
O 	O 	0.85320 0.37590 0.07610 -0.44500
O 	O 	0.87960 0.46090 0.01310 -0.44800
O 	O 	0.87850 0.46190 0.13870 -0.46000
O 	O 	0.77390 0.26340 0.12130 -0.48900
O 	O 	0.74580 0.38150 0.12130 -0.35000
O 	O 	0.83480 0.50670 0.07600 -0.45400
O 	O 	0.74510 0.38040 0.03100 -0.33100
O 	O 	0.78560 0.47880 0.96840 -0.44400
O 	O 	0.74960 0.38220 0.24180 -0.45100
O 	O 	0.77300 0.26180 0.03070 -0.45600
O 	O 	0.78460 0.47840 0.18420 -0.47200
O 	O 	0.65710 0.46250 0.96880 -0.45100
O 	O 	0.74830 0.38320 0.90950 -0.42800
O 	O 	0.88290 0.59440 0.14150 -0.48700
O 	O 	0.80630 0.34360 0.18450 -0.45200
C 	C 	0.69180 0.61740 0.25140 -0.01900
H 	H 	0.64250 0.59990 0.25000 -0.02800
C 	C 	0.79110 0.65400 0.28710 -0.00200
H 	H 	0.81530 0.66530 0.31090 -0.03800
C 	C 	0.72850 0.62830 0.21780 -0.01000
H 	H 	0.70450 0.62100 0.19410 -0.02600
C 	C 	0.82840 0.66270 0.25300 -0.00500
H 	H 	0.87740 0.67860 0.25470 0.00700
W 	W 	0.37330 0.77109 0.26537 0.98100
W 	W 	0.50893 0.69379 0.35508 1.00600
W 	W 	0.37545 0.77089 0.55374 1.00100
W 	W 	0.50946 0.69483 0.46500 1.03000
W 	W 	0.48814 0.83842 0.35364 1.04400
W 	W 	0.48728 0.83841 0.46399 1.28700
N 	N 	0.38897 0.96343 0.61983 -0.26200
N 	N 	0.46487 0.98273 0.55093 -0.23200
O 	O 	0.51987 0.70923 0.40943 -0.44700
O 	O 	0.54627 0.79423 0.34643 -0.44800
O 	O 	0.54517 0.79523 0.47203 -0.46100
O 	O 	0.44057 0.59673 0.45463 -0.48900
O 	O 	0.41247 0.71483 0.45463 -0.35000
O 	O 	0.50147 0.84003 0.40933 -0.45600
O 	O 	0.41177 0.71373 0.36433 -0.33100
O 	O 	0.45227 0.81213 0.30173 -0.45300
O 	O 	0.41627 0.71553 0.57513 -0.45100
O 	O 	0.43967 0.59513 0.36403 -0.45600
O 	O 	0.45127 0.81173 0.51753 -0.47200
O 	O 	0.32377 0.79583 0.30213 -0.45900
O 	O 	0.41497 0.71653 0.24283 -0.42900
O 	O 	0.54957 0.92773 0.47483 -0.48200
O 	O 	0.47297 0.67693 0.51783 -0.45200
C 	C 	0.35847 0.95073 0.58473 -0.02100
H 	H 	0.30917 0.93323 0.58333 -0.02500
C 	C 	0.45777 0.98733 0.62043 -0.02200
H 	H 	0.48197 0.99863 0.64423 -0.02500
C 	C 	0.39517 0.96163 0.55113 -0.00600
H 	H 	0.37117 0.95433 0.52743 -0.02300
C 	C 	0.49507 0.99603 0.58633 0.04000
H 	H 	0.54407 0.01193 0.58803 -0.02200
W 	W 	0.03996 0.10443 0.59871 0.94600
W 	W 	0.17559 0.02713 0.68842 0.98500
W 	W 	0.04211 0.10423 0.88708 0.97300
W 	W 	0.17612 0.02817 0.79834 1.00900
W 	W 	0.15480 0.17176 0.68698 1.03600
W 	W 	0.15394 0.17175 0.79733 1.28500
N 	N 	0.05563 0.29677 0.95317 -0.25900
N 	N 	0.13153 0.31607 0.88427 -0.23500
O 	O 	0.18653 0.04257 0.74277 -0.44900
O 	O 	0.21293 0.12757 0.67977 -0.44700
O 	O 	0.21183 0.12857 0.80537 -0.46000
O 	O 	0.10723 0.93007 0.78797 -0.47600
O 	O 	0.07913 0.04817 0.78797 -0.34900
O 	O 	0.16813 0.17337 0.74267 -0.45700
O 	O 	0.07843 0.04707 0.69767 -0.32900
O 	O 	0.11893 0.14547 0.63507 -0.45300
O 	O 	0.08293 0.04887 0.90847 -0.46100
O 	O 	0.10633 0.92847 0.69737 -0.44300
O 	O 	0.11793 0.14507 0.85087 -0.47000
O 	O 	0.99043 0.12917 0.63547 -0.44700
O 	O 	0.08163 0.04987 0.57617 -0.44100
O 	O 	0.21623 0.26107 0.80817 -0.49000
O 	O 	0.13963 0.01027 0.85117 -0.46100
C 	C 	0.02513 0.28407 0.91807 -0.07100
H 	H 	0.97583 0.26657 0.91667 0.00600
C 	C 	0.12443 0.32067 0.95377 -0.00700
H 	H 	0.14863 0.33197 0.97757 -0.03500
C 	C 	0.06183 0.29497 0.88447 0.01500
H 	H 	0.03783 0.28767 0.86077 -0.04200
C 	C 	0.16173 0.32937 0.91967 -0.00100
H 	H 	0.21073 0.34527 0.92137 0.00500
Cu	Cu	0.33333 0.94162 0.66667 0.78200
Cu	Cu	-0.00000 0.27495 -0.00000 0.76700
Cu	Cu	0.05838 0.39172 0.66667 0.77700
Cu	Cu	0.72505 0.72505 -0.00000 0.77600
Cu	Cu	0.60828 0.66667 0.66667 0.78000
Cu	Cu	0.27495 0.00000 -0.00000 0.76600
Cu	Cu	0.94162 0.33333 0.33333 0.78300
Cu	Cu	0.39172 0.05838 0.33333 0.77700
Cu	Cu	0.66667 0.60828 0.33333 0.78000
Cu	Cu	0.15019 0.81686 0.83333 0.86200
Cu	Cu	0.18314 0.33333 0.83333 0.86200
Cu	Cu	0.66667 0.84981 0.83333 0.86300
Cu	Cu	0.81686 0.15019 0.16667 0.86200
Cu	Cu	0.48353 0.48353 0.50000 0.86200
Cu	Cu	0.33333 0.18314 0.16667 0.86200
Cu	Cu	0.00000 0.51647 0.50000 0.85400
Cu	Cu	0.84981 0.66667 0.16667 0.86300
Cu	Cu	0.51647 -0.00000 0.50000 0.85400
P 	P 	0.33333 0.66667 0.98228 0.56300
P 	P 	0.33333 0.66667 0.86552 0.55200
O 	O 	0.33333 0.66667 0.02820 -0.38100
O 	O 	0.33333 0.66667 0.81970 -0.38200
P 	P 	0.00000 -0.00000 0.31561 0.51500
P 	P 	-0.00000 -0.00000 0.19885 0.51400
O 	O 	0.00000 -0.00000 0.36153 -0.38900
O 	O 	-0.00000 0.00000 0.15303 -0.39700
P 	P 	0.66667 0.33333 0.64895 0.55400
P 	P 	0.66667 0.33333 0.53219 0.55200
O 	O 	0.66667 0.33333 0.69487 -0.37400
O 	O 	0.66667 0.33333 0.48637 -0.38200
P 	P 	0.66667 0.33333 0.01772 0.54400
P 	P 	0.66667 0.33333 0.13448 0.55200
O 	O 	0.66667 0.33333 0.97180 -0.36600
O 	O 	0.66667 0.33333 0.18030 -0.38200
P 	P 	0.33333 0.66667 0.35105 0.55400
P 	P 	0.33333 0.66667 0.46781 0.55200
O 	O 	0.33333 0.66667 0.30513 -0.37400
O 	O 	0.33333 0.66667 0.51363 -0.38200
P 	P 	-0.00000 -0.00000 0.68439 0.51500
P 	P 	-0.00000 0.00000 0.80115 0.51400
O 	O 	0.00000 0.00000 0.63847 -0.38900
O 	O 	-0.00000 0.00000 0.84697 -0.39800
