data_crystal

_cell_length_a 41.27500
_cell_length_b 13.16650
_cell_length_c 24.79800
_cell_angle_alpha 90.00000
_cell_angle_beta  90.00000
_cell_angle_gamma 90.00000

_symmetry_space_group_name_	'P 1'
_symmetry_space_group_name_H-M	'P 1'

loop_
_symmetry_equiv_pos_as_xyz
  x,y,z

loop_
_atom_site_label
_atom_site_type_symbol
_atom_site_fract_x
_atom_site_fract_y
_atom_site_fract_z
_atom_site_charge
Ni	Ni	0.07975 0.61824 0.95193 1.10800
Ni	Ni	0.13109 0.67477 0.86253 1.11400
Ni	Ni	0.09512 0.21769 0.97422 1.04800
Ni	Ni	0.21963 0.31250 0.07145 1.11000
Ni	Ni	0.11025 0.82631 0.95433 1.11400
Ni	Ni	0.06494 0.76882 0.85563 1.11400
Ni	Ni	0.23112 0.15459 0.16707 1.10900
Ni	Ni	0.09743 0.75696 0.15458 1.15600
K 	K 	0.10184 0.22628 0.81105 0.66000
K 	K 	0.18214 0.40411 0.79596 0.66400
K 	K 	0.03739 0.46654 0.04725 0.65600
K 	K 	0.31883 0.81300 0.13506 0.65100
K 	K 	0.09326 0.47810 0.18099 0.66500
K 	K 	0.12552 0.45870 0.68729 0.63600
K 	K 	0.23878 0.81300 0.83130 0.33700
O 	O 	0.11240 0.68320 0.37000 -0.60200
O 	O 	0.08260 0.62670 0.86880 -0.60600
O 	O 	0.06417 0.76900 0.93960 -0.59000
O 	O 	0.12495 0.67670 0.94590 -0.60900
O 	O 	0.06675 0.74030 0.77330 -0.46500
O 	O 	0.01682 0.74080 0.85130 -0.41000
O 	O 	0.06255 0.58190 0.33180 -0.35400
O 	O 	0.06449 0.65160 0.18400 -0.85600
H 	H 	0.04750 0.65060 0.16450 0.34100
H 	H 	0.05910 0.66630 0.21610 0.37900
O 	O 	0.11845 0.65270 0.10390 -0.49900
O 	O 	0.06335 0.80880 0.10100 -0.41700
O 	O 	0.13078 0.86220 0.12640 -0.67700
H 	H 	0.14990 0.83900 0.13020 0.25600
H 	H 	0.12920 0.91670 0.14450 0.19600
O 	O 	0.07827 0.63580 0.70590 -0.46700
O 	O 	0.12950 0.69630 0.21010 -0.48800
O 	O 	0.11358 0.37170 0.41410 -0.50200
O 	O 	0.08066 0.31530 0.91350 -0.49400
O 	O 	0.07929 0.30330 0.03890 -0.34000
O 	O 	0.22326 0.32580 0.31600 -0.43800
O 	O 	0.27973 0.32850 0.92330 -0.40800
O 	O 	0.21874 0.37740 0.88460 -0.83100
H 	H 	0.23000 0.43040 0.89050 0.35900
H 	H 	0.20670 0.36660 0.91180 0.34700
O 	O 	0.22149 0.31020 0.15490 -0.59300
O 	O 	0.28328 0.21680 0.98990 -0.45600
O 	O 	0.22324 0.46200 0.05140 -0.37600
O 	O 	0.16998 0.31260 0.07140 -0.43600
O 	O 	0.26946 0.33830 0.08370 -0.59900
O 	O 	0.18312 0.16280 0.18750 -0.43800
O 	O 	0.26675 0.49870 0.16380 -0.46000
O 	O 	0.08801 0.46550 0.95180 -0.48700
O 	O 	0.13384 0.80160 0.27960 -0.43400
O 	O 	0.17884 0.70300 0.86830 -0.48600
O 	O 	0.08477 0.61870 0.03620 -0.48700
O 	O 	0.03081 0.60560 0.96810 -0.42700
O 	O 	0.10238 0.52260 0.44990 -0.47900
O 	O 	0.15652 0.83590 0.98330 -0.35100
O 	O 	0.09795 0.83690 0.03420 -0.42900
O 	O 	0.14568 0.26740 0.22040 -0.31000
O 	O 	0.25907 0.35280 0.24960 -0.48000
O 	O 	0.11097 0.41980 0.78870 -0.36800
O 	O 	0.13617 0.52590 0.84440 -0.40500
O 	O 	0.12477 0.38120 0.10220 -0.33700
O 	O 	0.25717 0.56970 0.01070 -0.27800
O 	O 	0.22228 0.70230 0.92040 -0.41800
O 	O 	0.19197 0.74290 0.02990 -0.32300
O 	O 	0.96962 0.73290 0.89120 -0.28300
O 	O 	0.99474 0.69140 0.01580 -0.29500
O 	O 	0.09307 0.47000 0.28830 -0.32800
O 	O 	0.29780 0.62940 0.14940 -0.36700
O 	O 	0.23360 0.97540 0.89620 -0.24800
O 	O 	0.27010 0.84050 0.21150 -0.62800
H 	H 	0.27850 0.85620 0.24170 0.18600
H 	H 	0.25740 0.88760 0.20120 0.30600
O 	O 	0.16180 0.23670 0.85200 -0.46000
H 	H 	0.17480 0.17570 0.84320 0.18000
H 	H 	0.16180 0.24800 0.89140 0.16000
O 	O 	0.02400 0.39760 0.20890 -0.11300
O 	O 	0.20280 0.60390 0.77040 -0.17900
C 	C 	0.13510 0.71410 0.25850 0.46700
C 	C 	0.14440 0.62430 0.29380 -0.49700
H 	H 	0.16590 0.63850 0.30980 0.12900
H 	H 	0.14680 0.56390 0.27040 0.14600
C 	C 	0.12110 0.59770 0.33940 0.28600
C 	C 	0.13870 0.51700 0.37450 -0.52100
H 	H 	0.14780 0.46400 0.35060 0.17200
H 	H 	0.15700 0.55000 0.39350 0.16800
C 	C 	0.11670 0.46720 0.41570 0.46600
C 	C 	0.08990 0.54630 0.31740 0.20100
C 	C 	0.16780 0.75200 -0.00000 0.19200
C 	C 	0.15150 0.65210 0.97950 0.30100
C 	C 	0.14090 0.58090 0.02520 -0.55000
H 	H 	0.13510 0.51420 0.00960 0.19100
H 	H 	0.15950 0.57030 0.04990 0.16700
C 	C 	0.11250 0.62040 0.05740 0.49800
C 	C 	0.01030 0.84130 0.93100 -0.49700
H 	H 	0.99180 0.86500 0.95310 0.16500
H 	H 	0.02020 0.90150 0.91370 0.16300
C 	C 	0.03538 0.79040 0.96780 0.28800
C 	C 	0.04140 0.86280 0.01600 -0.49700
H 	H 	0.04550 0.93190 0.00190 0.15800
H 	H 	0.02140 0.86590 0.03810 0.17300
C 	C 	0.06960 0.83260 0.05260 0.45300
C 	C 	0.28690 0.30450 0.97150 0.45800
C 	C 	0.30170 0.38860 0.00600 -0.51800
H 	H 	0.30590 0.44820 0.98270 0.20300
H 	H 	0.32280 0.36470 0.02000 0.15900
C 	C 	0.25160 0.49020 0.03700 0.19500
C 	C 	0.17250 0.25120 0.19870 0.19500
C 	C 	0.23120 0.35540 0.26910 0.45500
C 	C 	0.07700 0.41020 0.91470 0.48100
C 	C 	0.05830 0.45730 0.86880 -0.54100
H 	H 	0.03820 0.48830 0.88330 0.17300
H 	H 	0.05180 0.40310 0.84330 0.17700
C 	C 	0.07760 0.53990 0.83730 0.31300
C 	C 	0.05780 0.56330 0.78660 -0.57300
H 	H 	0.05790 0.50210 0.76340 0.19400
H 	H 	0.03510 0.57540 0.79760 0.22000
C 	C 	0.11090 0.49130 0.82190 0.19200
C 	C 	0.01930 0.68890 0.98640 0.19300
C 	C 	0.99780 0.76930 0.88730 0.42900
C 	C 	0.17820 0.59490 0.94700 -0.52300
H 	H 	0.19440 0.56540 0.97200 0.19900
H 	H 	0.16840 0.53900 0.92590 0.16600
C 	C 	0.19460 0.67050 0.90930 0.43900
C 	C 	0.28060 0.42270 0.05400 0.29600
C 	C 	0.30330 0.49210 0.08790 -0.52200
H 	H 	0.32180 0.45070 0.10060 0.14700
H 	H 	0.31210 0.54550 0.06400 0.19600
C 	C 	0.28810 0.54330 0.13650 0.45500
C 	C 	0.19410 0.34290 0.18450 0.25300
C 	C 	0.20390 0.40180 0.23610 -0.47900
H 	H 	0.21030 0.47140 0.22550 0.14000
H 	H 	0.18450 0.40780 0.25950 0.15200
C 	C 	0.15480 0.36630 0.10490 0.40800
C 	C 	0.06870 0.65180 0.75330 0.50200
C 	C 	0.17390 0.41920 0.14980 -0.44400
H 	H 	0.15870 0.45610 0.17360 0.11600
H 	H 	0.18880 0.46960 0.13350 0.11800
O 	O 	0.08110 0.21960 0.69790 -0.22100
K 	K 	0.23010 0.82440 0.82560 0.37000
O 	O 	0.02800 0.45630 0.15640 -0.20400
O 	O 	0.18190 0.57030 0.74800 -0.16400
Ni	Ni	0.42025 0.88176 0.95193 1.10900
Ni	Ni	0.36891 0.82523 0.86253 1.11500
Ni	Ni	0.40488 0.28231 0.97422 1.04900
Ni	Ni	0.28037 0.18750 0.07145 1.11100
Ni	Ni	0.38975 0.67369 0.95433 1.11500
Ni	Ni	0.43506 0.73118 0.85563 1.11500
Ni	Ni	0.26888 0.34541 0.16707 1.10900
Ni	Ni	0.40257 0.74304 0.15458 1.15600
K 	K 	0.39816 0.27372 0.81105 0.66000
K 	K 	0.31786 0.09589 0.79596 0.66400
K 	K 	0.46261 0.03346 0.04725 0.65600
K 	K 	0.18117 0.68700 0.13506 0.65100
K 	K 	0.40674 0.02190 0.18099 0.66500
K 	K 	0.37448 0.04130 0.68729 0.63600
K 	K 	0.26122 0.68700 0.83130 0.33700
O 	O 	0.38760 0.81680 0.37000 -0.60200
O 	O 	0.41740 0.87330 0.86880 -0.60600
O 	O 	0.43583 0.73100 0.93960 -0.59000
O 	O 	0.37505 0.82330 0.94590 -0.60900
O 	O 	0.43325 0.75970 0.77330 -0.46500
O 	O 	0.48318 0.75920 0.85130 -0.41000
O 	O 	0.43745 0.91810 0.33180 -0.35400
O 	O 	0.43551 0.84840 0.18400 -0.85600
H 	H 	0.45250 0.84940 0.16450 0.34100
H 	H 	0.44090 0.83370 0.21610 0.37900
O 	O 	0.38155 0.84730 0.10390 -0.49900
O 	O 	0.43665 0.69120 0.10100 -0.41700
O 	O 	0.36922 0.63780 0.12640 -0.67700
H 	H 	0.35010 0.66100 0.13020 0.25600
H 	H 	0.37080 0.58330 0.14450 0.19600
O 	O 	0.42173 0.86420 0.70590 -0.46700
O 	O 	0.37050 0.80370 0.21010 -0.48700
O 	O 	0.38642 0.12830 0.41410 -0.50000
O 	O 	0.41934 0.18470 0.91350 -0.49400
O 	O 	0.42071 0.19670 0.03890 -0.34000
O 	O 	0.27674 0.17420 0.31600 -0.43800
O 	O 	0.22027 0.17150 0.92330 -0.40900
O 	O 	0.28126 0.12260 0.88460 -0.83100
H 	H 	0.27000 0.06960 0.89050 0.35800
H 	H 	0.29330 0.13340 0.91180 0.34600
O 	O 	0.27851 0.18980 0.15490 -0.59300
O 	O 	0.21672 0.28320 0.98990 -0.45600
O 	O 	0.27676 0.03800 0.05140 -0.37600
O 	O 	0.33002 0.18740 0.07140 -0.43600
O 	O 	0.23054 0.16170 0.08370 -0.60000
O 	O 	0.31688 0.33720 0.18750 -0.43800
O 	O 	0.23325 0.00130 0.16380 -0.46400
O 	O 	0.41199 0.03450 0.95180 -0.48800
O 	O 	0.36616 0.69840 0.27960 -0.43400
O 	O 	0.32116 0.79700 0.86830 -0.48700
O 	O 	0.41523 0.88130 0.03620 -0.48700
O 	O 	0.46919 0.89440 0.96810 -0.42700
O 	O 	0.39762 0.97740 0.44990 -0.47600
O 	O 	0.34348 0.66410 0.98330 -0.35100
O 	O 	0.40205 0.66310 0.03420 -0.42900
O 	O 	0.35432 0.23260 0.22040 -0.31000
O 	O 	0.24093 0.14720 0.24960 -0.48000
O 	O 	0.38903 0.08020 0.78870 -0.36700
O 	O 	0.36383 0.97410 0.84440 -0.40200
O 	O 	0.37523 0.11880 0.10220 -0.33800
O 	O 	0.24283 0.93030 0.01070 -0.27500
O 	O 	0.27772 0.79770 0.92040 -0.41800
O 	O 	0.30803 0.75710 0.02990 -0.32300
O 	O 	0.53038 0.76710 0.89120 -0.28300
O 	O 	0.50526 0.80860 0.01580 -0.29500
O 	O 	0.40693 0.03000 0.28830 -0.32900
O 	O 	0.20220 0.87060 0.14940 -0.36900
O 	O 	0.26640 0.52460 0.89620 -0.24900
O 	O 	0.22990 0.65950 0.21150 -0.62800
H 	H 	0.22150 0.64380 0.24170 0.18600
H 	H 	0.24260 0.61240 0.20120 0.30500
O 	O 	0.33820 0.26330 0.85200 -0.46000
H 	H 	0.32520 0.32430 0.84320 0.18000
H 	H 	0.33820 0.25200 0.89140 0.16000
O 	O 	0.47600 0.10240 0.20890 -0.11300
O 	O 	0.29720 0.89610 0.77040 -0.17900
C 	C 	0.36490 0.78590 0.25850 0.46700
C 	C 	0.35560 0.87570 0.29380 -0.49600
H 	H 	0.33410 0.86150 0.30980 0.12900
H 	H 	0.35320 0.93610 0.27040 0.14700
C 	C 	0.37890 0.90230 0.33940 0.28400
C 	C 	0.36130 0.98300 0.37450 -0.51300
H 	H 	0.35220 0.03600 0.35060 0.16800
H 	H 	0.34300 0.95000 0.39350 0.16700
C 	C 	0.38330 0.03280 0.41570 0.46000
C 	C 	0.41010 0.95370 0.31740 0.20400
C 	C 	0.33220 0.74800 -0.00000 0.19200
C 	C 	0.34850 0.84790 0.97950 0.30200
C 	C 	0.35910 0.91910 0.02520 -0.55000
H 	H 	0.36490 0.98580 0.00960 0.19200
H 	H 	0.34050 0.92970 0.04990 0.16800
C 	C 	0.38750 0.87960 0.05740 0.49800
C 	C 	0.48970 0.65870 0.93100 -0.49800
H 	H 	0.50820 0.63500 0.95310 0.16600
H 	H 	0.47980 0.59850 0.91370 0.16300
C 	C 	0.46462 0.70960 0.96780 0.28900
C 	C 	0.45860 0.63720 0.01600 -0.49700
H 	H 	0.45450 0.56810 0.00190 0.15800
H 	H 	0.47860 0.63410 0.03810 0.17300
C 	C 	0.43040 0.66740 0.05260 0.45300
C 	C 	0.21310 0.19550 0.97150 0.45800
C 	C 	0.19830 0.11140 0.00600 -0.52000
H 	H 	0.19410 0.05180 0.98270 0.20200
H 	H 	0.17720 0.13530 0.02000 0.15900
C 	C 	0.24840 0.00980 0.03700 0.19100
C 	C 	0.32750 0.24880 0.19870 0.19500
C 	C 	0.26880 0.14460 0.26910 0.45500
C 	C 	0.42300 0.08980 0.91470 0.48200
C 	C 	0.44170 0.04270 0.86880 -0.54300
H 	H 	0.46180 0.01170 0.88330 0.17400
H 	H 	0.44820 0.09690 0.84330 0.17700
C 	C 	0.42240 0.96010 0.83730 0.31500
C 	C 	0.44220 0.93670 0.78660 -0.57400
H 	H 	0.44210 0.99790 0.76340 0.19500
H 	H 	0.46490 0.92460 0.79760 0.22100
C 	C 	0.38910 0.00870 0.82190 0.18900
C 	C 	0.48070 0.81110 0.98640 0.19300
C 	C 	0.50220 0.73070 0.88730 0.43000
C 	C 	0.32180 0.90510 0.94700 -0.52400
H 	H 	0.30560 0.93460 0.97200 0.19900
H 	H 	0.33160 0.96100 0.92590 0.16700
C 	C 	0.30540 0.82950 0.90930 0.43900
C 	C 	0.21940 0.07730 0.05400 0.30000
C 	C 	0.19670 0.00790 0.08790 -0.53300
H 	H 	0.17820 0.04930 0.10060 0.14900
H 	H 	0.18790 0.95450 0.06400 0.20000
C 	C 	0.21190 0.95670 0.13650 0.46300
C 	C 	0.30590 0.15710 0.18450 0.25200
C 	C 	0.29610 0.09820 0.23610 -0.47800
H 	H 	0.28970 0.02860 0.22550 0.13900
H 	H 	0.31550 0.09220 0.25950 0.15100
C 	C 	0.34520 0.13370 0.10490 0.40800
C 	C 	0.43130 0.84820 0.75330 0.50300
C 	C 	0.32610 0.08080 0.14980 -0.44400
H 	H 	0.34130 0.04390 0.17360 0.11500
H 	H 	0.31120 0.03040 0.13350 0.11700
O 	O 	0.41890 0.28040 0.69790 -0.22100
K 	K 	0.26990 0.67560 0.82560 0.37000
O 	O 	0.47200 0.04370 0.15640 -0.20400
O 	O 	0.31810 0.92970 0.74800 -0.16300
Ni	Ni	0.92025 0.11824 0.54807 1.10800
Ni	Ni	0.86891 0.17477 0.63747 1.11500
Ni	Ni	0.90488 0.71769 0.52578 1.04700
Ni	Ni	0.78037 0.81250 0.42855 1.11100
Ni	Ni	0.88975 0.32631 0.54567 1.11400
Ni	Ni	0.93506 0.26882 0.64437 1.11500
Ni	Ni	0.76888 0.65459 0.33293 1.10900
Ni	Ni	0.90257 0.25696 0.34542 1.15600
K 	K 	0.89816 0.72628 0.68895 0.66000
K 	K 	0.81786 0.90411 0.70404 0.66400
K 	K 	0.96261 0.96654 0.45275 0.65600
K 	K 	0.68117 0.31300 0.36494 0.65100
K 	K 	0.90674 0.97810 0.31901 0.66500
K 	K 	0.87448 0.95870 0.81271 0.63600
K 	K 	0.76122 0.31300 0.66870 0.33700
O 	O 	0.88760 0.18320 0.13000 -0.60200
O 	O 	0.91740 0.12670 0.63120 -0.60600
O 	O 	0.93583 0.26900 0.56040 -0.59000
O 	O 	0.87505 0.17670 0.55410 -0.60800
O 	O 	0.93325 0.24030 0.72670 -0.46600
O 	O 	0.98318 0.24080 0.64870 -0.41000
O 	O 	0.93745 0.08190 0.16820 -0.35400
O 	O 	0.93551 0.15160 0.31600 -0.85600
H 	H 	0.95250 0.15060 0.33550 0.34100
H 	H 	0.94090 0.16630 0.28390 0.37900
O 	O 	0.88155 0.15270 0.39610 -0.49800
O 	O 	0.93665 0.30880 0.39900 -0.41600
O 	O 	0.86922 0.36220 0.37360 -0.67700
H 	H 	0.85010 0.33900 0.36980 0.25600
H 	H 	0.87080 0.41670 0.35550 0.19600
O 	O 	0.92173 0.13580 0.79410 -0.46700
O 	O 	0.87050 0.19630 0.28990 -0.48700
O 	O 	0.88642 0.87170 0.08590 -0.50100
O 	O 	0.91934 0.81530 0.58650 -0.49500
O 	O 	0.92071 0.80330 0.46110 -0.33700
O 	O 	0.77674 0.82580 0.18400 -0.43800
O 	O 	0.72027 0.82850 0.57670 -0.40700
O 	O 	0.78126 0.87740 0.61540 -0.83000
H 	H 	0.77000 0.93040 0.60950 0.35800
H 	H 	0.79330 0.86660 0.58820 0.34600
O 	O 	0.77851 0.81020 0.34510 -0.59300
O 	O 	0.71672 0.71680 0.51010 -0.45700
O 	O 	0.77676 0.96200 0.44860 -0.37500
O 	O 	0.83002 0.81260 0.42860 -0.43500
O 	O 	0.73054 0.83830 0.41630 -0.59800
O 	O 	0.81688 0.66280 0.31250 -0.43800
O 	O 	0.73325 0.99870 0.33620 -0.46300
O 	O 	0.91199 0.96550 0.54820 -0.49000
O 	O 	0.86616 0.30160 0.22040 -0.43400
O 	O 	0.82116 0.20300 0.63170 -0.48600
O 	O 	0.91523 0.11870 0.46380 -0.48400
O 	O 	0.96919 0.10560 0.53190 -0.42700
O 	O 	0.89762 0.02260 0.05010 -0.47800
O 	O 	0.84348 0.33590 0.51670 -0.35900
O 	O 	0.90205 0.33690 0.46580 -0.42600
O 	O 	0.85432 0.76740 0.27960 -0.31000
O 	O 	0.74093 0.85280 0.25040 -0.48000
O 	O 	0.88903 0.91980 0.71130 -0.36700
O 	O 	0.86383 0.02590 0.65560 -0.40200
O 	O 	0.87523 0.88120 0.39780 -0.33700
O 	O 	0.74283 0.06970 0.48930 -0.27300
O 	O 	0.77772 0.20230 0.57960 -0.41900
O 	O 	0.80803 0.24290 0.47010 -0.32400
O 	O 	0.03038 0.23290 0.60880 -0.28300
O 	O 	0.00526 0.19140 0.48420 -0.28900
O 	O 	0.90693 0.97000 0.21170 -0.33000
O 	O 	0.70220 0.12940 0.35060 -0.36900
O 	O 	0.76640 0.47540 0.60380 -0.25000
O 	O 	0.72990 0.34050 0.28850 -0.62800
H 	H 	0.72150 0.35620 0.25830 0.18600
H 	H 	0.74260 0.38760 0.29880 0.30500
O 	O 	0.83820 0.73670 0.64800 -0.46000
H 	H 	0.82520 0.67570 0.65680 0.18000
H 	H 	0.83820 0.74800 0.60860 0.15900
O 	O 	0.97600 0.89760 0.29110 -0.11300
O 	O 	0.79720 0.10390 0.72960 -0.17900
C 	C 	0.86490 0.21410 0.24150 0.46700
C 	C 	0.85560 0.12430 0.20620 -0.49600
H 	H 	0.83410 0.13850 0.19020 0.12900
H 	H 	0.85320 0.06390 0.22960 0.14700
C 	C 	0.87890 0.09770 0.16060 0.28400
C 	C 	0.86130 0.01700 0.12550 -0.51300
H 	H 	0.85220 0.96400 0.14940 0.16800
H 	H 	0.84300 0.05000 0.10650 0.16600
C 	C 	0.88330 0.96720 0.08430 0.46000
C 	C 	0.91010 0.04630 0.18260 0.20400
C 	C 	0.83220 0.25200 0.50000 0.20500
C 	C 	0.84850 0.15210 0.52050 0.29000
C 	C 	0.85910 0.08090 0.47480 -0.54100
H 	H 	0.86490 0.01420 0.49040 0.19200
H 	H 	0.84050 0.07030 0.45010 0.16600
C 	C 	0.88750 0.12040 0.44260 0.49600
C 	C 	0.98970 0.34130 0.56900 -0.49500
H 	H 	0.00820 0.36500 0.54690 0.16300
H 	H 	0.97980 0.40150 0.58630 0.16100
C 	C 	0.96462 0.29040 0.53220 0.28500
C 	C 	0.95860 0.36280 0.48400 -0.49100
H 	H 	0.95450 0.43190 0.49810 0.15800
H 	H 	0.97860 0.36590 0.46190 0.17300
C 	C 	0.93040 0.33260 0.44740 0.45200
C 	C 	0.71310 0.80450 0.52850 0.44900
C 	C 	0.69830 0.88860 0.49400 -0.50200
H 	H 	0.69410 0.94820 0.51730 0.19400
H 	H 	0.67720 0.86470 0.48000 0.15600
C 	C 	0.74840 0.99020 0.46300 0.19300
C 	C 	0.82750 0.75120 0.30130 0.19500
C 	C 	0.76880 0.85540 0.23090 0.45500
C 	C 	0.92300 0.91020 0.58530 0.48200
C 	C 	0.94170 0.95730 0.63120 -0.54400
H 	H 	0.96180 0.98830 0.61670 0.17300
H 	H 	0.94820 0.90310 0.65670 0.17700
C 	C 	0.92240 0.03990 0.66270 0.31600
C 	C 	0.94220 0.06330 0.71340 -0.57500
H 	H 	0.94210 0.00210 0.73660 0.19500
H 	H 	0.96490 0.07540 0.70240 0.22100
C 	C 	0.88910 0.99130 0.67810 0.18800
C 	C 	0.98070 0.18890 0.51360 0.18700
C 	C 	0.00220 0.26930 0.61270 0.42900
C 	C 	0.82180 0.09490 0.55300 -0.51900
H 	H 	0.80560 0.06540 0.52800 0.19600
H 	H 	0.83160 0.03900 0.57410 0.16500
C 	C 	0.80540 0.17050 0.59070 0.43700
C 	C 	0.71940 0.92270 0.44600 0.29600
C 	C 	0.69670 0.99210 0.41210 -0.53100
H 	H 	0.67820 0.95070 0.39940 0.14900
H 	H 	0.68790 0.04550 0.43600 0.20100
C 	C 	0.71190 0.04330 0.36350 0.46300
C 	C 	0.80590 0.84290 0.31550 0.25200
C 	C 	0.79610 0.90180 0.26390 -0.47800
H 	H 	0.78970 0.97140 0.27450 0.13900
H 	H 	0.81550 0.90780 0.24050 0.15100
C 	C 	0.84520 0.86630 0.39510 0.40700
C 	C 	0.93130 0.15180 0.74670 0.50300
C 	C 	0.82610 0.91920 0.35020 -0.44300
H 	H 	0.84130 0.95610 0.32640 0.11500
H 	H 	0.81120 0.96960 0.36650 0.11700
O 	O 	0.91890 0.71960 0.80210 -0.22100
K 	K 	0.76990 0.32440 0.67440 0.37000
O 	O 	0.97200 0.95630 0.34360 -0.20400
O 	O 	0.81810 0.07030 0.75200 -0.16300
Ni	Ni	0.57975 0.38176 0.54807 1.10800
Ni	Ni	0.63109 0.32523 0.63747 1.11500
Ni	Ni	0.59512 0.78231 0.52578 1.04700
Ni	Ni	0.71963 0.68750 0.42855 1.11100
Ni	Ni	0.61025 0.17369 0.54567 1.11400
Ni	Ni	0.56494 0.23118 0.64437 1.11500
Ni	Ni	0.73112 0.84541 0.33293 1.11000
Ni	Ni	0.59743 0.24304 0.34542 1.15600
K 	K 	0.60184 0.77372 0.68895 0.66000
K 	K 	0.68214 0.59589 0.70404 0.66400
K 	K 	0.53739 0.53346 0.45275 0.65600
K 	K 	0.81883 0.18700 0.36494 0.65100
K 	K 	0.59326 0.52190 0.31901 0.66500
K 	K 	0.62552 0.54130 0.81271 0.63600
K 	K 	0.73878 0.18700 0.66870 0.33700
O 	O 	0.61240 0.31680 0.13000 -0.60200
O 	O 	0.58260 0.37330 0.63120 -0.60600
O 	O 	0.56417 0.23100 0.56040 -0.59000
O 	O 	0.62495 0.32330 0.55410 -0.60800
O 	O 	0.56675 0.25970 0.72670 -0.46500
O 	O 	0.51682 0.25920 0.64870 -0.41000
O 	O 	0.56255 0.41810 0.16820 -0.35400
O 	O 	0.56449 0.34840 0.31600 -0.85600
H 	H 	0.54750 0.34940 0.33550 0.34100
H 	H 	0.55910 0.33370 0.28390 0.37900
O 	O 	0.61845 0.34730 0.39610 -0.49800
O 	O 	0.56335 0.19120 0.39900 -0.41600
O 	O 	0.63078 0.13780 0.37360 -0.67700
H 	H 	0.64990 0.16100 0.36980 0.25600
H 	H 	0.62920 0.08330 0.35550 0.19600
O 	O 	0.57827 0.36420 0.79410 -0.46700
O 	O 	0.62950 0.30370 0.28990 -0.48800
O 	O 	0.61358 0.62830 0.08590 -0.50200
O 	O 	0.58066 0.68470 0.58650 -0.49500
O 	O 	0.57929 0.69670 0.46110 -0.33700
O 	O 	0.72326 0.67420 0.18400 -0.43800
O 	O 	0.77973 0.67150 0.57670 -0.40600
O 	O 	0.71874 0.62260 0.61540 -0.83100
H 	H 	0.73000 0.56960 0.60950 0.35900
H 	H 	0.70670 0.63340 0.58820 0.34600
O 	O 	0.72149 0.68980 0.34510 -0.59300
O 	O 	0.78328 0.78320 0.51010 -0.45700
O 	O 	0.72324 0.53800 0.44860 -0.37500
O 	O 	0.66998 0.68740 0.42860 -0.43500
O 	O 	0.76946 0.66170 0.41630 -0.59800
O 	O 	0.68312 0.83720 0.31250 -0.43800
O 	O 	0.76675 0.50130 0.33620 -0.45900
O 	O 	0.58801 0.53450 0.54820 -0.48900
O 	O 	0.63384 0.19840 0.22040 -0.43400
O 	O 	0.67884 0.29700 0.63170 -0.48600
O 	O 	0.58477 0.38130 0.46380 -0.48400
O 	O 	0.53081 0.39440 0.53190 -0.42700
O 	O 	0.60238 0.47740 0.05010 -0.48000
O 	O 	0.65652 0.16410 0.51670 -0.35800
O 	O 	0.59795 0.16310 0.46580 -0.42600
O 	O 	0.64568 0.73260 0.27960 -0.31000
O 	O 	0.75907 0.64720 0.25040 -0.48000
O 	O 	0.61097 0.58020 0.71130 -0.36800
O 	O 	0.63617 0.47410 0.65560 -0.40500
O 	O 	0.62477 0.61880 0.39780 -0.33700
O 	O 	0.75717 0.43030 0.48930 -0.27600
O 	O 	0.72228 0.29770 0.57960 -0.41900
O 	O 	0.69197 0.25710 0.47010 -0.32400
O 	O 	0.46962 0.26710 0.60880 -0.28300
O 	O 	0.49474 0.30860 0.48420 -0.28900
O 	O 	0.59307 0.53000 0.21170 -0.32800
O 	O 	0.79780 0.37060 0.35060 -0.36700
O 	O 	0.73360 0.02460 0.60380 -0.24900
O 	O 	0.77010 0.15950 0.28850 -0.62800
H 	H 	0.77850 0.14380 0.25830 0.18600
H 	H 	0.75740 0.11240 0.29880 0.30600
O 	O 	0.66180 0.76330 0.64800 -0.46000
H 	H 	0.67480 0.82430 0.65680 0.18000
H 	H 	0.66180 0.75200 0.60860 0.15900
O 	O 	0.52400 0.60240 0.29110 -0.11300
O 	O 	0.70280 0.39610 0.72960 -0.17900
C 	C 	0.63510 0.28590 0.24150 0.46700
C 	C 	0.64440 0.37570 0.20620 -0.49700
H 	H 	0.66590 0.36150 0.19020 0.12900
H 	H 	0.64680 0.43610 0.22960 0.14600
C 	C 	0.62110 0.40230 0.16060 0.28600
C 	C 	0.63870 0.48300 0.12550 -0.52200
H 	H 	0.64780 0.53600 0.14940 0.17200
H 	H 	0.65700 0.45000 0.10650 0.16800
C 	C 	0.61670 0.53280 0.08430 0.46600
C 	C 	0.58990 0.45370 0.18260 0.20100
C 	C 	0.66780 0.24800 0.50000 0.20500
C 	C 	0.65150 0.34790 0.52050 0.29000
C 	C 	0.64090 0.41910 0.47480 -0.54000
H 	H 	0.63510 0.48580 0.49040 0.19100
H 	H 	0.65950 0.42970 0.45010 0.16500
C 	C 	0.61250 0.37960 0.44260 0.49500
C 	C 	0.51030 0.15870 0.56900 -0.49600
H 	H 	0.49180 0.13500 0.54690 0.16400
H 	H 	0.52020 0.09850 0.58630 0.16200
C 	C 	0.53538 0.20960 0.53220 0.28500
C 	C 	0.54140 0.13720 0.48400 -0.49100
H 	H 	0.54550 0.06810 0.49810 0.15900
H 	H 	0.52140 0.13410 0.46190 0.17300
C 	C 	0.56960 0.16740 0.44740 0.45200
C 	C 	0.78690 0.69550 0.52850 0.44900
C 	C 	0.80170 0.61140 0.49400 -0.50000
H 	H 	0.80590 0.55180 0.51730 0.19400
H 	H 	0.82280 0.63530 0.48000 0.15600
C 	C 	0.75160 0.50980 0.46300 0.19700
C 	C 	0.67250 0.74880 0.30130 0.19500
C 	C 	0.73120 0.64460 0.23090 0.45500
C 	C 	0.57700 0.58980 0.58530 0.48200
C 	C 	0.55830 0.54270 0.63120 -0.54100
H 	H 	0.53820 0.51170 0.61670 0.17300
H 	H 	0.55180 0.59690 0.65670 0.17700
C 	C 	0.57760 0.46010 0.66270 0.31300
C 	C 	0.55780 0.43670 0.71340 -0.57300
H 	H 	0.55790 0.49790 0.73660 0.19400
H 	H 	0.53510 0.42460 0.70240 0.22000
C 	C 	0.61090 0.50870 0.67810 0.19200
C 	C 	0.51930 0.31110 0.51360 0.18700
C 	C 	0.49780 0.23070 0.61270 0.42900
C 	C 	0.67820 0.40510 0.55300 -0.51800
H 	H 	0.69440 0.43460 0.52800 0.19500
H 	H 	0.66840 0.46100 0.57410 0.16400
C 	C 	0.69460 0.32950 0.59070 0.43700
C 	C 	0.78060 0.57730 0.44600 0.29200
C 	C 	0.80330 0.50790 0.41210 -0.52100
H 	H 	0.82180 0.54930 0.39940 0.14700
H 	H 	0.81210 0.45450 0.43600 0.19600
C 	C 	0.78810 0.45670 0.36350 0.45500
C 	C 	0.69410 0.65710 0.31550 0.25300
C 	C 	0.70390 0.59820 0.26390 -0.47900
H 	H 	0.71030 0.52860 0.27450 0.14000
H 	H 	0.68450 0.59220 0.24050 0.15100
C 	C 	0.65480 0.63370 0.39510 0.40800
C 	C 	0.56870 0.34820 0.74670 0.50200
C 	C 	0.67390 0.58080 0.35020 -0.44400
H 	H 	0.65870 0.54390 0.32640 0.11500
H 	H 	0.68880 0.53040 0.36650 0.11800
O 	O 	0.58110 0.78040 0.80210 -0.22100
K 	K 	0.73010 0.17560 0.67440 0.37000
O 	O 	0.52800 0.54370 0.34360 -0.20400
O 	O 	0.68190 0.42970 0.75200 -0.16400
Ni	Ni	0.92025 0.38176 0.04807 1.10700
Ni	Ni	0.86891 0.32523 0.13747 1.11500
Ni	Ni	0.90488 0.78231 0.02578 1.04500
Ni	Ni	0.78037 0.68750 0.92855 1.11200
Ni	Ni	0.88975 0.17369 0.04567 1.11300
Ni	Ni	0.93506 0.23118 0.14437 1.11500
Ni	Ni	0.76888 0.84541 0.83293 1.10900
Ni	Ni	0.90257 0.24304 0.84542 1.15600
K 	K 	0.89816 0.77372 0.18895 0.66000
K 	K 	0.81786 0.59589 0.20404 0.66400
K 	K 	0.96261 0.53346 0.95275 0.65700
K 	K 	0.68117 0.18700 0.86494 0.65100
K 	K 	0.90674 0.52190 0.81901 0.66500
K 	K 	0.87448 0.54130 0.31271 0.63600
K 	K 	0.76122 0.18700 0.16870 0.33700
O 	O 	0.88760 0.31680 0.63000 -0.60200
O 	O 	0.91740 0.37330 0.13120 -0.60600
O 	O 	0.93583 0.23100 0.06040 -0.59100
O 	O 	0.87505 0.32330 0.05410 -0.60800
O 	O 	0.93325 0.25970 0.22670 -0.46500
O 	O 	0.98318 0.25920 0.14870 -0.41000
O 	O 	0.93745 0.41810 0.66820 -0.35400
O 	O 	0.93551 0.34840 0.81600 -0.85600
H 	H 	0.95250 0.34940 0.83550 0.34100
H 	H 	0.94090 0.33370 0.78390 0.37900
O 	O 	0.88155 0.34730 0.89610 -0.49700
O 	O 	0.93665 0.19120 0.89900 -0.41500
O 	O 	0.86922 0.13780 0.87360 -0.67700
H 	H 	0.85010 0.16100 0.86980 0.25600
H 	H 	0.87080 0.08330 0.85550 0.19600
O 	O 	0.92173 0.36420 0.29410 -0.46700
O 	O 	0.87050 0.30370 0.78990 -0.48800
O 	O 	0.88642 0.62830 0.58590 -0.50200
O 	O 	0.91934 0.68470 0.08650 -0.49600
O 	O 	0.92071 0.69670 0.96110 -0.33400
O 	O 	0.77674 0.67420 0.68400 -0.43800
O 	O 	0.72027 0.67150 0.07670 -0.40400
O 	O 	0.78126 0.62260 0.11540 -0.83000
H 	H 	0.77000 0.56960 0.10950 0.35900
H 	H 	0.79330 0.63340 0.08820 0.34600
O 	O 	0.77851 0.68980 0.84510 -0.59300
O 	O 	0.71672 0.78320 0.01010 -0.45700
O 	O 	0.77676 0.53800 0.94860 -0.37400
O 	O 	0.83002 0.68740 0.92860 -0.43300
O 	O 	0.73054 0.66170 0.91630 -0.59700
O 	O 	0.81688 0.83720 0.81250 -0.43800
O 	O 	0.73325 0.50130 0.83620 -0.45900
O 	O 	0.91199 0.53450 0.04820 -0.49100
O 	O 	0.86616 0.19840 0.72040 -0.43400
O 	O 	0.82116 0.29700 0.13170 -0.48600
O 	O 	0.91523 0.38130 0.96380 -0.48100
O 	O 	0.96919 0.39440 0.03190 -0.42800
O 	O 	0.89762 0.47740 0.55010 -0.47900
O 	O 	0.84348 0.16410 0.01670 -0.35900
O 	O 	0.90205 0.16310 0.96580 -0.42300
O 	O 	0.85432 0.73260 0.77960 -0.31000
O 	O 	0.74093 0.64720 0.75040 -0.48000
O 	O 	0.88903 0.58020 0.21130 -0.36800
O 	O 	0.86383 0.47410 0.15560 -0.40500
O 	O 	0.87523 0.61880 0.89780 -0.33600
O 	O 	0.74283 0.43030 0.98930 -0.27400
O 	O 	0.77772 0.29770 0.07960 -0.42000
O 	O 	0.80803 0.25710 0.97010 -0.31900
O 	O 	0.03038 0.26710 0.10880 -0.28400
O 	O 	0.00526 0.30860 0.98420 -0.28300
O 	O 	0.90693 0.53000 0.71170 -0.32800
O 	O 	0.70220 0.37060 0.85060 -0.36700
O 	O 	0.76640 0.02460 0.10380 -0.24900
O 	O 	0.72990 0.15950 0.78850 -0.62800
H 	H 	0.72150 0.14380 0.75830 0.18600
H 	H 	0.74260 0.11240 0.79880 0.30600
O 	O 	0.83820 0.76330 0.14800 -0.46000
H 	H 	0.82520 0.82430 0.15680 0.18000
H 	H 	0.83820 0.75200 0.10860 0.15900
O 	O 	0.97600 0.60240 0.79110 -0.11300
O 	O 	0.79720 0.39610 0.22960 -0.17900
C 	C 	0.86490 0.28590 0.74150 0.46700
C 	C 	0.85560 0.37570 0.70620 -0.49700
H 	H 	0.83410 0.36150 0.69020 0.12900
H 	H 	0.85320 0.43610 0.72960 0.14600
C 	C 	0.87890 0.40230 0.66060 0.28600
C 	C 	0.86130 0.48300 0.62550 -0.52100
H 	H 	0.85220 0.53600 0.64940 0.17200
H 	H 	0.84300 0.45000 0.60650 0.16800
C 	C 	0.88330 0.53280 0.58430 0.46600
C 	C 	0.91010 0.45370 0.68260 0.20100
C 	C 	0.83220 0.24800 -0.00000 0.19800
C 	C 	0.84850 0.34790 0.02050 0.28500
C 	C 	0.85910 0.41910 0.97480 -0.53300
H 	H 	0.86490 0.48580 0.99040 0.19100
H 	H 	0.84050 0.42970 0.95010 0.16400
C 	C 	0.88750 0.37960 0.94260 0.49400
C 	C 	0.98970 0.15870 0.06900 -0.49300
H 	H 	0.00820 0.13500 0.04690 0.16100
H 	H 	0.97980 0.09850 0.08630 0.16000
C 	C 	0.96462 0.20960 0.03220 0.28100
C 	C 	0.95860 0.13720 0.98400 -0.48500
H 	H 	0.95450 0.06810 0.99810 0.15900
H 	H 	0.97860 0.13410 0.96190 0.17200
C 	C 	0.93040 0.16740 0.94740 0.45100
C 	C 	0.71310 0.69550 0.02850 0.44000
C 	C 	0.69830 0.61140 0.99400 -0.48100
H 	H 	0.69410 0.55180 0.01730 0.18500
H 	H 	0.67720 0.63530 0.98000 0.15200
C 	C 	0.74840 0.50980 0.96300 0.19900
C 	C 	0.82750 0.74880 0.80130 0.19500
C 	C 	0.76880 0.64460 0.73090 0.45500
C 	C 	0.92300 0.58980 0.08530 0.48200
C 	C 	0.94170 0.54270 0.13120 -0.54100
H 	H 	0.96180 0.51170 0.11670 0.17300
H 	H 	0.94820 0.59690 0.15670 0.17700
C 	C 	0.92240 0.46010 0.16270 0.31300
C 	C 	0.94220 0.43670 0.21340 -0.57300
H 	H 	0.94210 0.49790 0.23660 0.19400
H 	H 	0.96490 0.42460 0.20240 0.22000
C 	C 	0.88910 0.50870 0.17810 0.19200
C 	C 	0.98070 0.31110 0.01360 0.18100
C 	C 	0.00220 0.23070 0.11270 0.42800
C 	C 	0.82180 0.40510 0.05300 -0.51600
H 	H 	0.80560 0.43460 0.02800 0.19300
H 	H 	0.83160 0.46100 0.07410 0.16300
C 	C 	0.80540 0.32950 0.09070 0.43700
C 	C 	0.71940 0.57730 0.94600 0.28800
C 	C 	0.69670 0.50790 0.91210 -0.51900
H 	H 	0.67820 0.54930 0.89940 0.14700
H 	H 	0.68790 0.45450 0.93600 0.19700
C 	C 	0.71190 0.45670 0.86350 0.45400
C 	C 	0.80590 0.65710 0.81550 0.25300
C 	C 	0.79610 0.59820 0.76390 -0.47900
H 	H 	0.78970 0.52860 0.77450 0.14000
H 	H 	0.81550 0.59220 0.74050 0.15100
C 	C 	0.84520 0.63370 0.89510 0.40800
C 	C 	0.93130 0.34820 0.24670 0.50200
C 	C 	0.82610 0.58080 0.85020 -0.44400
H 	H 	0.84130 0.54390 0.82640 0.11500
H 	H 	0.81120 0.53040 0.86650 0.11800
O 	O 	0.91890 0.78040 0.30210 -0.22100
K 	K 	0.76990 0.17560 0.17440 0.37000
O 	O 	0.97200 0.54370 0.84360 -0.20400
O 	O 	0.81810 0.42970 0.25200 -0.16400
Ni	Ni	0.57975 0.11824 0.04807 1.10700
Ni	Ni	0.63109 0.17477 0.13747 1.11500
Ni	Ni	0.59512 0.71769 0.02578 1.04500
Ni	Ni	0.71963 0.81250 0.92855 1.11200
Ni	Ni	0.61025 0.32631 0.04567 1.11300
Ni	Ni	0.56494 0.26882 0.14437 1.11500
Ni	Ni	0.73112 0.65459 0.83293 1.10900
Ni	Ni	0.59743 0.25696 0.84542 1.15600
K 	K 	0.60184 0.72628 0.18895 0.66000
K 	K 	0.68214 0.90411 0.20404 0.66400
K 	K 	0.53739 0.96654 0.95275 0.65700
K 	K 	0.81883 0.31300 0.86494 0.65100
K 	K 	0.59326 0.97810 0.81901 0.66500
K 	K 	0.62552 0.95870 0.31271 0.63600
K 	K 	0.73878 0.31300 0.16870 0.33700
O 	O 	0.61240 0.18320 0.63000 -0.60200
O 	O 	0.58260 0.12670 0.13120 -0.60600
O 	O 	0.56417 0.26900 0.06040 -0.59100
O 	O 	0.62495 0.17670 0.05410 -0.60800
O 	O 	0.56675 0.24030 0.22670 -0.46600
O 	O 	0.51682 0.24080 0.14870 -0.41000
O 	O 	0.56255 0.08190 0.66820 -0.35400
O 	O 	0.56449 0.15160 0.81600 -0.85600
H 	H 	0.54750 0.15060 0.83550 0.34100
H 	H 	0.55910 0.16630 0.78390 0.37900
O 	O 	0.61845 0.15270 0.89610 -0.49700
O 	O 	0.56335 0.30880 0.89900 -0.41600
O 	O 	0.63078 0.36220 0.87360 -0.67700
H 	H 	0.64990 0.33900 0.86980 0.25600
H 	H 	0.62920 0.41670 0.85550 0.19600
O 	O 	0.57827 0.13580 0.29410 -0.46700
O 	O 	0.62950 0.19630 0.78990 -0.48700
O 	O 	0.61358 0.87170 0.58590 -0.50000
O 	O 	0.58066 0.81530 0.08650 -0.49600
O 	O 	0.57929 0.80330 0.96110 -0.33400
O 	O 	0.72326 0.82580 0.68400 -0.43800
O 	O 	0.77973 0.82850 0.07670 -0.40500
O 	O 	0.71874 0.87740 0.11540 -0.83000
H 	H 	0.73000 0.93040 0.10950 0.35800
H 	H 	0.70670 0.86660 0.08820 0.34500
O 	O 	0.72149 0.81020 0.84510 -0.59300
O 	O 	0.78328 0.71680 0.01010 -0.45700
O 	O 	0.72324 0.96200 0.94860 -0.37400
O 	O 	0.66998 0.81260 0.92860 -0.43400
O 	O 	0.76946 0.83830 0.91630 -0.59700
O 	O 	0.68312 0.66280 0.81250 -0.43800
O 	O 	0.76675 0.99870 0.83620 -0.46400
O 	O 	0.58801 0.96550 0.04820 -0.49200
O 	O 	0.63384 0.30160 0.72040 -0.43400
O 	O 	0.67884 0.20300 0.13170 -0.48600
O 	O 	0.58477 0.11870 0.96380 -0.48100
O 	O 	0.53081 0.10560 0.03190 -0.42800
O 	O 	0.60238 0.02260 0.55010 -0.47600
O 	O 	0.65652 0.33590 0.01670 -0.35900
O 	O 	0.59795 0.33690 0.96580 -0.42300
O 	O 	0.64568 0.76740 0.77960 -0.31000
O 	O 	0.75907 0.85280 0.75040 -0.48000
O 	O 	0.61097 0.91980 0.21130 -0.36700
O 	O 	0.63617 0.02590 0.15560 -0.40300
O 	O 	0.62477 0.88120 0.89780 -0.33700
O 	O 	0.75717 0.06970 0.98930 -0.27100
O 	O 	0.72228 0.20230 0.07960 -0.42000
O 	O 	0.69197 0.24290 0.97010 -0.31900
O 	O 	0.46962 0.23290 0.10880 -0.28400
O 	O 	0.49474 0.19140 0.98420 -0.28300
O 	O 	0.59307 0.97000 0.71170 -0.33000
O 	O 	0.79780 0.12940 0.85060 -0.36900
O 	O 	0.73360 0.47540 0.10380 -0.25100
O 	O 	0.77010 0.34050 0.78850 -0.62800
H 	H 	0.77850 0.35620 0.75830 0.18600
H 	H 	0.75740 0.38760 0.79880 0.30500
O 	O 	0.66180 0.73670 0.14800 -0.46000
H 	H 	0.67480 0.67570 0.15680 0.18000
H 	H 	0.66180 0.74800 0.10860 0.15900
O 	O 	0.52400 0.89760 0.79110 -0.11300
O 	O 	0.70280 0.10390 0.22960 -0.17900
C 	C 	0.63510 0.21410 0.74150 0.46700
C 	C 	0.64440 0.12430 0.70620 -0.49600
H 	H 	0.66590 0.13850 0.69020 0.12900
H 	H 	0.64680 0.06390 0.72960 0.14700
C 	C 	0.62110 0.09770 0.66060 0.28400
C 	C 	0.63870 0.01700 0.62550 -0.51300
H 	H 	0.64780 0.96400 0.64940 0.16800
H 	H 	0.65700 0.05000 0.60650 0.16700
C 	C 	0.61670 0.96720 0.58430 0.46000
C 	C 	0.58990 0.04630 0.68260 0.20400
C 	C 	0.66780 0.25200 -0.00000 0.19800
C 	C 	0.65150 0.15210 0.02050 0.28600
C 	C 	0.64090 0.08090 0.97480 -0.53400
H 	H 	0.63510 0.01420 0.99040 0.19200
H 	H 	0.65950 0.07030 0.95010 0.16500
C 	C 	0.61250 0.12040 0.94260 0.49400
C 	C 	0.51030 0.34130 0.06900 -0.49400
H 	H 	0.49180 0.36500 0.04690 0.16200
H 	H 	0.52020 0.40150 0.08630 0.16000
C 	C 	0.53538 0.29040 0.03220 0.28100
C 	C 	0.54140 0.36280 0.98400 -0.48500
H 	H 	0.54550 0.43190 0.99810 0.15900
H 	H 	0.52140 0.36590 0.96190 0.17200
C 	C 	0.56960 0.33260 0.94740 0.45100
C 	C 	0.78690 0.80450 0.02850 0.44000
C 	C 	0.80170 0.88860 0.99400 -0.48300
H 	H 	0.80590 0.94820 0.01730 0.18500
H 	H 	0.82280 0.86470 0.98000 0.15200
C 	C 	0.75160 0.99020 0.96300 0.19500
C 	C 	0.67250 0.75120 0.80130 0.19500
C 	C 	0.73120 0.85540 0.73090 0.45500
C 	C 	0.57700 0.91020 0.08530 0.48300
C 	C 	0.55830 0.95730 0.13120 -0.54400
H 	H 	0.53820 0.98830 0.11670 0.17300
H 	H 	0.55180 0.90310 0.15670 0.17700
C 	C 	0.57760 0.03990 0.16270 0.31600
C 	C 	0.55780 0.06330 0.21340 -0.57400
H 	H 	0.55790 0.00210 0.23660 0.19500
H 	H 	0.53510 0.07540 0.20240 0.22100
C 	C 	0.61090 0.99130 0.17810 0.18900
C 	C 	0.51930 0.18890 0.01360 0.18100
C 	C 	0.49780 0.26930 0.11270 0.42900
C 	C 	0.67820 0.09490 0.05300 -0.51700
H 	H 	0.69440 0.06540 0.02800 0.19300
H 	H 	0.66840 0.03900 0.07410 0.16400
C 	C 	0.69460 0.17050 0.09070 0.43700
C 	C 	0.78060 0.92270 0.94600 0.29200
C 	C 	0.80330 0.99210 0.91210 -0.53000
H 	H 	0.82180 0.95070 0.89940 0.14900
H 	H 	0.81210 0.04550 0.93600 0.20200
C 	C 	0.78810 0.04330 0.86350 0.46300
C 	C 	0.69410 0.84290 0.81550 0.25200
C 	C 	0.70390 0.90180 0.76390 -0.47800
H 	H 	0.71030 0.97140 0.77450 0.13900
H 	H 	0.68450 0.90780 0.74050 0.15100
C 	C 	0.65480 0.86630 0.89510 0.40700
C 	C 	0.56870 0.15180 0.24670 0.50300
C 	C 	0.67390 0.91920 0.85020 -0.44300
H 	H 	0.65870 0.95610 0.82640 0.11500
H 	H 	0.68880 0.96960 0.86650 0.11700
O 	O 	0.58110 0.71960 0.30210 -0.22100
K 	K 	0.73010 0.32440 0.17440 0.37000
O 	O 	0.52800 0.95630 0.84360 -0.20400
O 	O 	0.68190 0.07030 0.25200 -0.16300
Ni	Ni	0.07975 0.88176 0.45193 1.10800
Ni	Ni	0.13109 0.82523 0.36253 1.11500
Ni	Ni	0.09512 0.28231 0.47422 1.04700
Ni	Ni	0.21963 0.18750 0.57145 1.11100
Ni	Ni	0.11025 0.67369 0.45433 1.11400
Ni	Ni	0.06494 0.73118 0.35563 1.11500
Ni	Ni	0.23112 0.34541 0.66707 1.10900
Ni	Ni	0.09743 0.74304 0.65458 1.15600
K 	K 	0.10184 0.27372 0.31105 0.66000
K 	K 	0.18214 0.09589 0.29596 0.66400
K 	K 	0.03739 0.03346 0.54725 0.65600
K 	K 	0.31883 0.68700 0.63506 0.65100
K 	K 	0.09326 0.02190 0.68099 0.66500
K 	K 	0.12552 0.04130 0.18729 0.63600
K 	K 	0.23878 0.68700 0.33130 0.33700
O 	O 	0.11240 0.81680 0.87000 -0.60200
O 	O 	0.08260 0.87330 0.36880 -0.60600
O 	O 	0.06417 0.73100 0.43960 -0.59000
O 	O 	0.12495 0.82330 0.44590 -0.60800
O 	O 	0.06675 0.75970 0.27330 -0.46600
O 	O 	0.01682 0.75920 0.35130 -0.41000
O 	O 	0.06255 0.91810 0.83180 -0.35400
O 	O 	0.06449 0.84840 0.68400 -0.85600
H 	H 	0.04750 0.84940 0.66450 0.34100
H 	H 	0.05910 0.83370 0.71610 0.37900
O 	O 	0.11845 0.84730 0.60390 -0.49800
O 	O 	0.06335 0.69120 0.60100 -0.41600
O 	O 	0.13078 0.63780 0.62640 -0.67700
H 	H 	0.14990 0.66100 0.63020 0.25600
H 	H 	0.12920 0.58330 0.64450 0.19600
O 	O 	0.07827 0.86420 0.20590 -0.46700
O 	O 	0.12950 0.80370 0.71010 -0.48700
O 	O 	0.11358 0.12830 0.91410 -0.50000
O 	O 	0.08066 0.18470 0.41350 -0.49500
O 	O 	0.07929 0.19670 0.53890 -0.33700
O 	O 	0.22326 0.17420 0.81600 -0.43800
O 	O 	0.27973 0.17150 0.42330 -0.40700
O 	O 	0.21874 0.12260 0.38460 -0.83000
H 	H 	0.23000 0.06960 0.39050 0.35800
H 	H 	0.20670 0.13340 0.41180 0.34600
O 	O 	0.22149 0.18980 0.65490 -0.59300
O 	O 	0.28328 0.28320 0.48990 -0.45700
O 	O 	0.22324 0.03800 0.55140 -0.37500
O 	O 	0.16998 0.18740 0.57140 -0.43500
O 	O 	0.26946 0.16170 0.58370 -0.59800
O 	O 	0.18312 0.33720 0.68750 -0.43800
O 	O 	0.26675 0.00130 0.66380 -0.46300
O 	O 	0.08801 0.03450 0.45180 -0.49000
O 	O 	0.13384 0.69840 0.77960 -0.43400
O 	O 	0.17884 0.79700 0.36830 -0.48600
O 	O 	0.08477 0.88130 0.53620 -0.48400
O 	O 	0.03081 0.89440 0.46810 -0.42700
O 	O 	0.10238 0.97740 0.94990 -0.47400
O 	O 	0.15652 0.66410 0.48330 -0.35900
O 	O 	0.09795 0.66310 0.53420 -0.42600
O 	O 	0.14568 0.23260 0.72040 -0.31000
O 	O 	0.25907 0.14720 0.74960 -0.48000
O 	O 	0.11097 0.08020 0.28870 -0.36700
O 	O 	0.13617 0.97410 0.34440 -0.40200
O 	O 	0.12477 0.11880 0.60220 -0.33700
O 	O 	0.25717 0.93030 0.51070 -0.27300
O 	O 	0.22228 0.79770 0.42040 -0.41900
O 	O 	0.19197 0.75710 0.52990 -0.32400
O 	O 	0.96962 0.76710 0.39120 -0.28300
O 	O 	0.99474 0.80860 0.51580 -0.28900
O 	O 	0.09307 0.03000 0.78830 -0.33000
O 	O 	0.29780 0.87060 0.64940 -0.36900
O 	O 	0.23360 0.52460 0.39620 -0.25000
O 	O 	0.27010 0.65950 0.71150 -0.62800
H 	H 	0.27850 0.64380 0.74170 0.18600
H 	H 	0.25740 0.61240 0.70120 0.30500
O 	O 	0.16180 0.26330 0.35200 -0.46000
H 	H 	0.17480 0.32430 0.34320 0.18000
H 	H 	0.16180 0.25200 0.39140 0.15900
O 	O 	0.02400 0.10240 0.70890 -0.11300
O 	O 	0.20280 0.89610 0.27040 -0.17900
C 	C 	0.13510 0.78590 0.75850 0.46700
C 	C 	0.14440 0.87570 0.79380 -0.49600
H 	H 	0.16590 0.86150 0.80980 0.12900
H 	H 	0.14680 0.93610 0.77040 0.14700
C 	C 	0.12110 0.90230 0.83940 0.28400
C 	C 	0.13870 0.98300 0.87450 -0.51300
H 	H 	0.14780 0.03600 0.85060 0.16800
H 	H 	0.15700 0.95000 0.89350 0.16700
C 	C 	0.11670 0.03280 0.91570 0.46000
C 	C 	0.08990 0.95370 0.81740 0.20400
C 	C 	0.16780 0.74800 0.50000 0.20500
C 	C 	0.15150 0.84790 0.47950 0.29000
C 	C 	0.14090 0.91910 0.52520 -0.54100
H 	H 	0.13510 0.98580 0.50960 0.19200
H 	H 	0.15950 0.92970 0.54990 0.16600
C 	C 	0.11250 0.87960 0.55740 0.49600
C 	C 	0.01030 0.65870 0.43100 -0.49500
H 	H 	0.99180 0.63500 0.45310 0.16400
H 	H 	0.02020 0.59850 0.41370 0.16100
C 	C 	0.03538 0.70960 0.46780 0.28500
C 	C 	0.04140 0.63720 0.51600 -0.49100
H 	H 	0.04550 0.56810 0.50190 0.15900
H 	H 	0.02140 0.63410 0.53810 0.17300
C 	C 	0.06960 0.66740 0.55260 0.45200
C 	C 	0.28690 0.19550 0.47150 0.44900
C 	C 	0.30170 0.11140 0.50600 -0.50200
H 	H 	0.30590 0.05180 0.48270 0.19400
H 	H 	0.32280 0.13530 0.52000 0.15600
C 	C 	0.25160 0.00980 0.53700 0.19300
C 	C 	0.17250 0.24880 0.69870 0.19500
C 	C 	0.23120 0.14460 0.76910 0.45500
C 	C 	0.07700 0.08980 0.41470 0.48200
C 	C 	0.05830 0.04270 0.36880 -0.54400
H 	H 	0.03820 0.01170 0.38330 0.17300
H 	H 	0.05180 0.09690 0.34330 0.17700
C 	C 	0.07760 0.96010 0.33730 0.31600
C 	C 	0.05780 0.93670 0.28660 -0.57500
H 	H 	0.05790 0.99790 0.26340 0.19500
H 	H 	0.03510 0.92460 0.29760 0.22100
C 	C 	0.11090 0.00870 0.32190 0.18800
C 	C 	0.01930 0.81110 0.48640 0.18700
C 	C 	0.99780 0.73070 0.38730 0.42900
C 	C 	0.17820 0.90510 0.44700 -0.51900
H 	H 	0.19440 0.93460 0.47200 0.19600
H 	H 	0.16840 0.96100 0.42590 0.16500
C 	C 	0.19460 0.82950 0.40930 0.43700
C 	C 	0.28060 0.07730 0.55400 0.29600
C 	C 	0.30330 0.00790 0.58790 -0.53100
H 	H 	0.32180 0.04930 0.60060 0.14900
H 	H 	0.31210 0.95450 0.56400 0.20100
C 	C 	0.28810 0.95670 0.63650 0.46300
C 	C 	0.19410 0.15710 0.68450 0.25200
C 	C 	0.20390 0.09820 0.73610 -0.47800
H 	H 	0.21030 0.02860 0.72550 0.13900
H 	H 	0.18450 0.09220 0.75950 0.15100
C 	C 	0.15480 0.13370 0.60490 0.40700
C 	C 	0.06870 0.84820 0.25330 0.50300
C 	C 	0.17390 0.08080 0.64980 -0.44300
H 	H 	0.15870 0.04390 0.67360 0.11500
H 	H 	0.18880 0.03040 0.63350 0.11700
O 	O 	0.08110 0.28040 0.19790 -0.22100
K 	K 	0.23010 0.67560 0.32560 0.37000
O 	O 	0.02800 0.04370 0.65640 -0.20400
O 	O 	0.18190 0.92970 0.24800 -0.16300
Ni	Ni	0.42025 0.61824 0.45193 1.10800
Ni	Ni	0.36891 0.67477 0.36253 1.11500
Ni	Ni	0.40488 0.21769 0.47422 1.04700
Ni	Ni	0.28037 0.31250 0.57145 1.11100
Ni	Ni	0.38975 0.82631 0.45433 1.11400
Ni	Ni	0.43506 0.76882 0.35563 1.11500
Ni	Ni	0.26888 0.15459 0.66707 1.11000
Ni	Ni	0.40257 0.75696 0.65458 1.15600
K 	K 	0.39816 0.22628 0.31105 0.66000
K 	K 	0.31786 0.40411 0.29596 0.66400
K 	K 	0.46261 0.46654 0.54725 0.65600
K 	K 	0.18117 0.81300 0.63506 0.65100
K 	K 	0.40674 0.47810 0.68099 0.66500
K 	K 	0.37448 0.45870 0.18729 0.63600
K 	K 	0.26122 0.81300 0.33130 0.33700
O 	O 	0.38760 0.68320 0.87000 -0.60200
O 	O 	0.41740 0.62670 0.36880 -0.60600
O 	O 	0.43583 0.76900 0.43960 -0.59000
O 	O 	0.37505 0.67670 0.44590 -0.60800
O 	O 	0.43325 0.74030 0.27330 -0.46500
O 	O 	0.48318 0.74080 0.35130 -0.41000
O 	O 	0.43745 0.58190 0.83180 -0.35400
O 	O 	0.43551 0.65160 0.68400 -0.85600
H 	H 	0.45250 0.65060 0.66450 0.34100
H 	H 	0.44090 0.66630 0.71610 0.37900
O 	O 	0.38155 0.65270 0.60390 -0.49800
O 	O 	0.43665 0.80880 0.60100 -0.41600
O 	O 	0.36922 0.86220 0.62640 -0.67700
H 	H 	0.35010 0.83900 0.63020 0.25600
H 	H 	0.37080 0.91670 0.64450 0.19600
O 	O 	0.42173 0.63580 0.20590 -0.46700
O 	O 	0.37050 0.69630 0.71010 -0.48800
O 	O 	0.38642 0.37170 0.91410 -0.50100
O 	O 	0.41934 0.31530 0.41350 -0.49500
O 	O 	0.42071 0.30330 0.53890 -0.33700
O 	O 	0.27674 0.32580 0.81600 -0.43800
O 	O 	0.22027 0.32850 0.42330 -0.40600
O 	O 	0.28126 0.37740 0.38460 -0.83100
H 	H 	0.27000 0.43040 0.39050 0.35900
H 	H 	0.29330 0.36660 0.41180 0.34600
O 	O 	0.27851 0.31020 0.65490 -0.59300
O 	O 	0.21672 0.21680 0.48990 -0.45700
O 	O 	0.27676 0.46200 0.55140 -0.37500
O 	O 	0.33002 0.31260 0.57140 -0.43500
O 	O 	0.23054 0.33830 0.58370 -0.59800
O 	O 	0.31688 0.16280 0.68750 -0.43800
O 	O 	0.23325 0.49870 0.66380 -0.45900
O 	O 	0.41199 0.46550 0.45180 -0.48900
O 	O 	0.36616 0.80160 0.77960 -0.43400
O 	O 	0.32116 0.70300 0.36830 -0.48600
O 	O 	0.41523 0.61870 0.53620 -0.48400
O 	O 	0.46919 0.60560 0.46810 -0.42700
O 	O 	0.39762 0.52260 0.94990 -0.47700
O 	O 	0.34348 0.83590 0.48330 -0.35800
O 	O 	0.40205 0.83690 0.53420 -0.42600
O 	O 	0.35432 0.26740 0.72040 -0.31000
O 	O 	0.24093 0.35280 0.74960 -0.48000
O 	O 	0.38903 0.41980 0.28870 -0.36800
O 	O 	0.36383 0.52590 0.34440 -0.40500
O 	O 	0.37523 0.38120 0.60220 -0.33700
O 	O 	0.24283 0.56970 0.51070 -0.27600
O 	O 	0.27772 0.70230 0.42040 -0.41900
O 	O 	0.30803 0.74290 0.52990 -0.32400
O 	O 	0.53038 0.73290 0.39120 -0.28300
O 	O 	0.50526 0.69140 0.51580 -0.28900
O 	O 	0.40693 0.47000 0.78830 -0.32800
O 	O 	0.20220 0.62940 0.64940 -0.36700
O 	O 	0.26640 0.97540 0.39620 -0.24900
O 	O 	0.22990 0.84050 0.71150 -0.62800
H 	H 	0.22150 0.85620 0.74170 0.18600
H 	H 	0.24260 0.88760 0.70120 0.30600
O 	O 	0.33820 0.23670 0.35200 -0.46000
H 	H 	0.32520 0.17570 0.34320 0.18000
H 	H 	0.33820 0.24800 0.39140 0.15900
O 	O 	0.47600 0.39760 0.70890 -0.11300
O 	O 	0.29720 0.60390 0.27040 -0.17900
C 	C 	0.36490 0.71410 0.75850 0.46700
C 	C 	0.35560 0.62430 0.79380 -0.49700
H 	H 	0.33410 0.63850 0.80980 0.12900
H 	H 	0.35320 0.56390 0.77040 0.14600
C 	C 	0.37890 0.59770 0.83940 0.28600
C 	C 	0.36130 0.51700 0.87450 -0.52100
H 	H 	0.35220 0.46400 0.85060 0.17200
H 	H 	0.34300 0.55000 0.89350 0.16800
C 	C 	0.38330 0.46720 0.91570 0.46500
C 	C 	0.41010 0.54630 0.81740 0.20100
C 	C 	0.33220 0.75200 0.50000 0.20500
C 	C 	0.34850 0.65210 0.47950 0.29000
C 	C 	0.35910 0.58090 0.52520 -0.54000
H 	H 	0.36490 0.51420 0.50960 0.19100
H 	H 	0.34050 0.57030 0.54990 0.16500
C 	C 	0.38750 0.62040 0.55740 0.49500
C 	C 	0.48970 0.84130 0.43100 -0.49600
H 	H 	0.50820 0.86500 0.45310 0.16400
H 	H 	0.47980 0.90150 0.41370 0.16200
C 	C 	0.46462 0.79040 0.46780 0.28500
C 	C 	0.45860 0.86280 0.51600 -0.49100
H 	H 	0.45450 0.93190 0.50190 0.15900
H 	H 	0.47860 0.86590 0.53810 0.17300
C 	C 	0.43040 0.83260 0.55260 0.45200
C 	C 	0.21310 0.30450 0.47150 0.44900
C 	C 	0.19830 0.38860 0.50600 -0.50000
H 	H 	0.19410 0.44820 0.48270 0.19400
H 	H 	0.17720 0.36470 0.52000 0.15600
C 	C 	0.24840 0.49020 0.53700 0.19700
C 	C 	0.32750 0.25120 0.69870 0.19500
C 	C 	0.26880 0.35540 0.76910 0.45500
C 	C 	0.42300 0.41020 0.41470 0.48200
C 	C 	0.44170 0.45730 0.36880 -0.54100
H 	H 	0.46180 0.48830 0.38330 0.17300
H 	H 	0.44820 0.40310 0.34330 0.17700
C 	C 	0.42240 0.53990 0.33730 0.31300
C 	C 	0.44220 0.56330 0.28660 -0.57300
H 	H 	0.44210 0.50210 0.26340 0.19400
H 	H 	0.46490 0.57540 0.29760 0.22000
C 	C 	0.38910 0.49130 0.32190 0.19200
C 	C 	0.48070 0.68890 0.48640 0.18700
C 	C 	0.50220 0.76930 0.38730 0.42900
C 	C 	0.32180 0.59490 0.44700 -0.51800
H 	H 	0.30560 0.56540 0.47200 0.19500
H 	H 	0.33160 0.53900 0.42590 0.16400
C 	C 	0.30540 0.67050 0.40930 0.43700
C 	C 	0.21940 0.42270 0.55400 0.29200
C 	C 	0.19670 0.49210 0.58790 -0.52100
H 	H 	0.17820 0.45070 0.60060 0.14700
H 	H 	0.18790 0.54550 0.56400 0.19600
C 	C 	0.21190 0.54330 0.63650 0.45500
C 	C 	0.30590 0.34290 0.68450 0.25300
C 	C 	0.29610 0.40180 0.73610 -0.47900
H 	H 	0.28970 0.47140 0.72550 0.14000
H 	H 	0.31550 0.40780 0.75950 0.15100
C 	C 	0.34520 0.36630 0.60490 0.40800
C 	C 	0.43130 0.65180 0.25330 0.50200
C 	C 	0.32610 0.41920 0.64980 -0.44400
H 	H 	0.34130 0.45610 0.67360 0.11500
H 	H 	0.31120 0.46960 0.63350 0.11800
O 	O 	0.41890 0.21960 0.19790 -0.22100
K 	K 	0.26990 0.82440 0.32560 0.37000
O 	O 	0.47200 0.45630 0.65640 -0.20400
O 	O 	0.31810 0.57030 0.24800 -0.16400
Ni	Ni	0.25000 0.25000 0.87130 1.16300
Ni	Ni	0.75000 0.75000 0.62870 1.16300
Ni	Ni	0.75000 0.75000 0.12870 1.16200
Ni	Ni	0.25000 0.25000 0.37130 1.16300
K 	K 	0.25000 0.75000 0.00269 0.68800
K 	K 	0.75000 0.25000 0.49731 0.68900
K 	K 	0.75000 0.25000 0.99731 0.69000
K 	K 	0.25000 0.75000 0.50269 0.68900
