data_crystal

_cell_length_a 47.51500
_cell_length_b 47.51500
_cell_length_c 47.51500
_cell_angle_alpha 90.00000
_cell_angle_beta  90.00000
_cell_angle_gamma 90.00000

_symmetry_space_group_name_	'P 1'
_symmetry_space_group_name_H-M	'P 1'

loop_
_symmetry_equiv_pos_as_xyz
  x,y,z

loop_
_atom_site_label
_atom_site_type_symbol
_atom_site_fract_x
_atom_site_fract_y
_atom_site_fract_z
_atom_site_charge
C 	C 	0.96136 0.72214 0.22495 0.41800
O 	O 	0.97050 0.71097 0.24700 -0.45100
O 	O 	0.96970 0.74444 0.21412 -0.45400
C 	C 	0.93743 0.70714 0.21072 -0.20700
C 	C 	0.91705 0.69251 0.22619 0.16500
C 	C 	0.89468 0.68021 0.21312 -0.20200
H 	H 	0.88130 0.67080 0.22380 0.08800
C 	C 	0.89161 0.68151 0.18376 0.10400
C 	C 	0.91178 0.69613 0.16837 -0.21100
H 	H 	0.91010 0.69720 0.14890 0.11800
C 	C 	0.93416 0.70901 0.18129 0.17700
C 	C 	0.85374 0.64487 0.18096 -0.07600
H 	H 	0.86130 0.63660 0.19700 0.05200
C 	C 	0.86654 0.66874 0.16971 -0.00400
N 	N 	0.91506 0.68904 0.25857 -0.11400
C 	C 	0.92790 0.66650 0.27140 0.35000
O 	O 	0.93680 0.64560 0.26050 -0.26000
O 	O 	0.93125 0.67190 0.29856 -0.29400
C 	C 	0.92320 0.70170 0.30500 0.26300
H 	H 	0.91060 0.70250 0.32100 -0.05600
H 	H 	0.93980 0.71290 0.30900 -0.01900
C 	C 	0.90896 0.71168 0.27898 -0.50300
H 	H 	0.91790 0.72920 0.27260 0.19300
C 	C 	0.87885 0.71630 0.28210 1.05800
H 	H 	0.87200 0.72210 0.26350 -0.30000
C 	C 	0.86180 0.69130 0.29020 -1.57000
H 	H 	0.86690 0.67550 0.27860 0.48700
H 	H 	0.84220 0.69540 0.28760 0.45400
H 	H 	0.86520 0.68680 0.30960 0.47900
C 	C 	0.87210 0.74080 0.30220 -1.53300
H 	H 	0.85210 0.74360 0.30290 0.45900
H 	H 	0.88100 0.75760 0.29550 0.49300
H 	H 	0.87900 0.73640 0.32070 0.48100
N 	N 	0.95768 0.71880 0.15922 -0.17600
C 	C 	0.95290 0.74180 0.14360 0.39200
O 	O 	0.93210 0.75450 0.14180 -0.29000
O 	O 	0.97630 0.75170 0.13180 -0.24300
C 	C 	0.99800 0.73690 0.14270 0.02700
H 	H 	0.00860 0.74890 0.15540 0.06500
H 	H 	0.01050 0.73130 0.12760 0.05600
C 	C 	0.98800 0.71010 0.15910 0.00500
H 	H 	0.99500 0.71180 0.17840 0.05000
O 	O 	0.00268 0.69561 0.29806 -0.43400
N 	N 	0.00454 0.66666 0.34152 -0.13000
C 	C 	0.00454 0.69546 0.32302 1.01600
H 	H 	0.00170 0.67150 0.29610 -0.54600
C 	C 	0.00842 0.67604 0.37123 -0.09400
H 	H 	0.99420 0.67010 0.38460 0.08400
H 	H 	0.01480 0.69530 0.37400 0.08400
C 	C 	0.96136 0.22214 0.72495 0.41800
O 	O 	0.97050 0.21097 0.74700 -0.45100
O 	O 	0.96970 0.24444 0.71412 -0.45400
C 	C 	0.93743 0.20714 0.71072 -0.20700
C 	C 	0.91705 0.19251 0.72619 0.16500
C 	C 	0.89468 0.18021 0.71312 -0.20200
H 	H 	0.88130 0.17080 0.72380 0.08800
C 	C 	0.89161 0.18151 0.68376 0.10400
C 	C 	0.91178 0.19613 0.66837 -0.21100
H 	H 	0.91010 0.19720 0.64890 0.11800
C 	C 	0.93416 0.20901 0.68129 0.17700
C 	C 	0.85374 0.14487 0.68096 -0.07600
H 	H 	0.86130 0.13660 0.69700 0.05200
C 	C 	0.86654 0.16874 0.66971 -0.00400
N 	N 	0.91506 0.18904 0.75857 -0.11400
C 	C 	0.92790 0.16650 0.77140 0.35000
O 	O 	0.93680 0.14560 0.76050 -0.26000
O 	O 	0.93125 0.17190 0.79856 -0.29400
C 	C 	0.92320 0.20170 0.80500 0.26300
H 	H 	0.91060 0.20250 0.82100 -0.05600
H 	H 	0.93980 0.21290 0.80900 -0.01900
C 	C 	0.90896 0.21168 0.77898 -0.50300
H 	H 	0.91790 0.22920 0.77260 0.19300
C 	C 	0.87885 0.21630 0.78210 1.05800
H 	H 	0.87200 0.22210 0.76350 -0.30000
C 	C 	0.86180 0.19130 0.79020 -1.57000
H 	H 	0.86690 0.17550 0.77860 0.48700
H 	H 	0.84220 0.19540 0.78760 0.45400
H 	H 	0.86520 0.18680 0.80960 0.47900
C 	C 	0.87210 0.24080 0.80220 -1.53300
H 	H 	0.85210 0.24360 0.80290 0.45900
H 	H 	0.88100 0.25760 0.79550 0.49300
H 	H 	0.87900 0.23640 0.82070 0.48100
N 	N 	0.95768 0.21880 0.65922 -0.17600
C 	C 	0.95290 0.24180 0.64360 0.39200
O 	O 	0.93210 0.25450 0.64180 -0.29000
O 	O 	0.97630 0.25170 0.63180 -0.24300
C 	C 	0.99800 0.23690 0.64270 0.02700
H 	H 	0.00860 0.24890 0.65540 0.06500
H 	H 	0.01050 0.23130 0.62760 0.05600
C 	C 	0.98800 0.21010 0.65910 0.00500
H 	H 	0.99500 0.21180 0.67840 0.05000
O 	O 	0.00268 0.19561 0.79806 -0.43400
N 	N 	0.00454 0.16666 0.84152 -0.13000
C 	C 	0.00454 0.19546 0.82302 1.01600
H 	H 	0.00170 0.17150 0.79610 -0.54600
C 	C 	0.00842 0.17604 0.87123 -0.09400
H 	H 	0.99420 0.17010 0.88460 0.08400
H 	H 	0.01480 0.19530 0.87400 0.08400
C 	C 	0.46136 0.72214 0.72495 0.41800
O 	O 	0.47050 0.71097 0.74700 -0.45100
O 	O 	0.46970 0.74444 0.71412 -0.45500
C 	C 	0.43743 0.70714 0.71072 -0.20800
C 	C 	0.41705 0.69251 0.72619 0.16500
C 	C 	0.39468 0.68021 0.71312 -0.20200
H 	H 	0.38130 0.67080 0.72380 0.08800
C 	C 	0.39161 0.68151 0.68376 0.10400
C 	C 	0.41178 0.69613 0.66837 -0.21100
H 	H 	0.41010 0.69720 0.64890 0.11800
C 	C 	0.43416 0.70901 0.68129 0.17700
C 	C 	0.35374 0.64487 0.68096 -0.07600
H 	H 	0.36130 0.63660 0.69700 0.05200
C 	C 	0.36654 0.66874 0.66971 -0.00400
N 	N 	0.41506 0.68904 0.75857 -0.11400
C 	C 	0.42790 0.66650 0.77140 0.35000
O 	O 	0.43680 0.64560 0.76050 -0.26000
O 	O 	0.43125 0.67190 0.79856 -0.29400
C 	C 	0.42320 0.70170 0.80500 0.26300
H 	H 	0.41060 0.70250 0.82100 -0.05600
H 	H 	0.43980 0.71290 0.80900 -0.01900
C 	C 	0.40896 0.71168 0.77898 -0.50400
H 	H 	0.41790 0.72920 0.77260 0.19300
C 	C 	0.37885 0.71630 0.78210 1.05800
H 	H 	0.37200 0.72210 0.76350 -0.30100
C 	C 	0.36180 0.69130 0.79020 -1.57000
H 	H 	0.36690 0.67550 0.77860 0.48700
H 	H 	0.34220 0.69540 0.78760 0.45400
H 	H 	0.36520 0.68680 0.80960 0.47900
C 	C 	0.37210 0.74080 0.80220 -1.53300
H 	H 	0.35210 0.74360 0.80290 0.45900
H 	H 	0.38100 0.75760 0.79550 0.49300
H 	H 	0.37900 0.73640 0.82070 0.48100
N 	N 	0.45768 0.71880 0.65922 -0.17700
C 	C 	0.45290 0.74180 0.64360 0.39200
O 	O 	0.43210 0.75450 0.64180 -0.29000
O 	O 	0.47630 0.75170 0.63180 -0.24200
C 	C 	0.49800 0.73690 0.64270 0.01900
H 	H 	0.50860 0.74890 0.65540 0.06800
H 	H 	0.51050 0.73130 0.62760 0.05900
C 	C 	0.48800 0.71010 0.65910 0.00600
H 	H 	0.49500 0.71180 0.67840 0.04900
O 	O 	0.50268 0.69561 0.79806 -0.44600
N 	N 	0.50454 0.66666 0.84152 -0.12600
C 	C 	0.50454 0.69546 0.82302 1.00500
H 	H 	0.50170 0.67150 0.79610 -0.55100
C 	C 	0.50842 0.67604 0.87123 -0.09100
H 	H 	0.49420 0.67010 0.88460 0.08200
H 	H 	0.51480 0.69530 0.87400 0.08300
C 	C 	0.46136 0.22214 0.22495 0.41800
O 	O 	0.47050 0.21097 0.24700 -0.45100
O 	O 	0.46970 0.24444 0.21412 -0.45500
C 	C 	0.43743 0.20714 0.21072 -0.20800
C 	C 	0.41705 0.19251 0.22619 0.16500
C 	C 	0.39468 0.18021 0.21312 -0.20200
H 	H 	0.38130 0.17080 0.22380 0.08800
C 	C 	0.39161 0.18151 0.18376 0.10400
C 	C 	0.41178 0.19613 0.16837 -0.21100
H 	H 	0.41010 0.19720 0.14890 0.11800
C 	C 	0.43416 0.20901 0.18129 0.17700
C 	C 	0.35374 0.14487 0.18096 -0.07600
H 	H 	0.36130 0.13660 0.19700 0.05200
C 	C 	0.36654 0.16874 0.16971 -0.00400
N 	N 	0.41506 0.18904 0.25857 -0.11400
C 	C 	0.42790 0.16650 0.27140 0.35000
O 	O 	0.43680 0.14560 0.26050 -0.26000
O 	O 	0.43125 0.17190 0.29856 -0.29400
C 	C 	0.42320 0.20170 0.30500 0.26300
H 	H 	0.41060 0.20250 0.32100 -0.05600
H 	H 	0.43980 0.21290 0.30900 -0.01900
C 	C 	0.40896 0.21168 0.27898 -0.50400
H 	H 	0.41790 0.22920 0.27260 0.19300
C 	C 	0.37885 0.21630 0.28210 1.05800
H 	H 	0.37200 0.22210 0.26350 -0.30100
C 	C 	0.36180 0.19130 0.29020 -1.57000
H 	H 	0.36690 0.17550 0.27860 0.48700
H 	H 	0.34220 0.19540 0.28760 0.45400
H 	H 	0.36520 0.18680 0.30960 0.47900
C 	C 	0.37210 0.24080 0.30220 -1.53300
H 	H 	0.35210 0.24360 0.30290 0.45900
H 	H 	0.38100 0.25760 0.29550 0.49300
H 	H 	0.37900 0.23640 0.32070 0.48100
N 	N 	0.45768 0.21880 0.15922 -0.17700
C 	C 	0.45290 0.24180 0.14360 0.39200
O 	O 	0.43210 0.25450 0.14180 -0.29000
O 	O 	0.47630 0.25170 0.13180 -0.24200
C 	C 	0.49800 0.23690 0.14270 0.01900
H 	H 	0.50860 0.24890 0.15540 0.06800
H 	H 	0.51050 0.23130 0.12760 0.05900
C 	C 	0.48800 0.21010 0.15910 0.00600
H 	H 	0.49500 0.21180 0.17840 0.04900
O 	O 	0.50268 0.19561 0.29806 -0.44600
N 	N 	0.50454 0.16666 0.34152 -0.12600
C 	C 	0.50454 0.19546 0.32302 1.00500
H 	H 	0.50170 0.17150 0.29610 -0.55100
C 	C 	0.50842 0.17604 0.37123 -0.09100
H 	H 	0.49420 0.17010 0.38460 0.08200
H 	H 	0.51480 0.19530 0.37400 0.08300
C 	C 	0.03864 0.27786 0.22495 0.41800
O 	O 	0.02950 0.28903 0.24700 -0.45200
O 	O 	0.03030 0.25556 0.21412 -0.45500
C 	C 	0.06257 0.29286 0.21072 -0.20800
C 	C 	0.08295 0.30749 0.22619 0.16500
C 	C 	0.10532 0.31979 0.21312 -0.20200
H 	H 	0.11870 0.32920 0.22380 0.08800
C 	C 	0.10839 0.31849 0.18376 0.10400
C 	C 	0.08822 0.30387 0.16837 -0.21100
H 	H 	0.08990 0.30280 0.14890 0.11800
C 	C 	0.06584 0.29099 0.18129 0.17700
C 	C 	0.14626 0.35513 0.18096 -0.07600
H 	H 	0.13870 0.36340 0.19700 0.05200
C 	C 	0.13346 0.33126 0.16971 -0.00400
N 	N 	0.08494 0.31096 0.25857 -0.11400
C 	C 	0.07210 0.33350 0.27140 0.35000
O 	O 	0.06320 0.35440 0.26050 -0.26000
O 	O 	0.06875 0.32810 0.29856 -0.29500
C 	C 	0.07680 0.29830 0.30500 0.26400
H 	H 	0.08940 0.29750 0.32100 -0.05700
H 	H 	0.06020 0.28710 0.30900 -0.02000
C 	C 	0.09104 0.28832 0.27898 -0.50400
H 	H 	0.08210 0.27080 0.27260 0.19300
C 	C 	0.12115 0.28370 0.28210 1.05700
H 	H 	0.12800 0.27790 0.26350 -0.30200
C 	C 	0.13820 0.30870 0.29020 -1.57100
H 	H 	0.13310 0.32450 0.27860 0.48600
H 	H 	0.15780 0.30460 0.28760 0.45300
H 	H 	0.13480 0.31320 0.30960 0.47800
C 	C 	0.12790 0.25920 0.30220 -1.53400
H 	H 	0.14790 0.25640 0.30290 0.45800
H 	H 	0.11900 0.24240 0.29550 0.49200
H 	H 	0.12100 0.26360 0.32070 0.48000
N 	N 	0.04232 0.28120 0.15922 -0.17800
C 	C 	0.04710 0.25820 0.14360 0.39100
O 	O 	0.06790 0.24550 0.14180 -0.29100
O 	O 	0.02370 0.24830 0.13180 -0.24200
C 	C 	0.00200 0.26310 0.14270 0.01000
H 	H 	0.99140 0.25110 0.15540 0.07000
H 	H 	0.98950 0.26870 0.12760 0.06200
C 	C 	0.01200 0.28990 0.15910 0.00700
H 	H 	0.00500 0.28820 0.17840 0.04700
O 	O 	0.99732 0.30439 0.29806 -0.45800
N 	N 	0.99546 0.33334 0.34152 -0.12300
C 	C 	0.99546 0.30454 0.32302 0.99200
H 	H 	0.99830 0.32850 0.29610 -0.55600
C 	C 	0.99158 0.32396 0.37123 -0.09000
H 	H 	0.00580 0.32990 0.38460 0.07900
H 	H 	0.98520 0.30470 0.37400 0.08200
C 	C 	0.03864 0.77786 0.72495 0.41700
O 	O 	0.02950 0.78903 0.74700 -0.45300
O 	O 	0.03030 0.75556 0.71412 -0.45600
C 	C 	0.06257 0.79286 0.71072 -0.20900
C 	C 	0.08295 0.80749 0.72619 0.16400
C 	C 	0.10532 0.81979 0.71312 -0.20300
H 	H 	0.11870 0.82920 0.72380 0.08700
C 	C 	0.10839 0.81849 0.68376 0.10300
C 	C 	0.08822 0.80387 0.66837 -0.21200
H 	H 	0.08990 0.80280 0.64890 0.11700
C 	C 	0.06584 0.79099 0.68129 0.17600
C 	C 	0.14626 0.85513 0.68096 -0.07700
H 	H 	0.13870 0.86340 0.69700 0.05100
C 	C 	0.13346 0.83126 0.66971 -0.00500
N 	N 	0.08494 0.81096 0.75857 -0.11500
C 	C 	0.07210 0.83350 0.77140 0.34900
O 	O 	0.06320 0.85440 0.76050 -0.26100
O 	O 	0.06875 0.82810 0.79856 -0.29600
C 	C 	0.07680 0.79830 0.80500 0.26300
H 	H 	0.08940 0.79750 0.82100 -0.05700
H 	H 	0.06020 0.78710 0.80900 -0.02100
C 	C 	0.09104 0.78832 0.77898 -0.50500
H 	H 	0.08210 0.77080 0.77260 0.19200
C 	C 	0.12115 0.78370 0.78210 1.05700
H 	H 	0.12800 0.77790 0.76350 -0.30200
C 	C 	0.13820 0.80870 0.79020 -1.57100
H 	H 	0.13310 0.82450 0.77860 0.48600
H 	H 	0.15780 0.80460 0.78760 0.45300
H 	H 	0.13480 0.81320 0.80960 0.47800
C 	C 	0.12790 0.75920 0.80220 -1.53400
H 	H 	0.14790 0.75640 0.80290 0.45800
H 	H 	0.11900 0.74240 0.79550 0.49200
H 	H 	0.12100 0.76360 0.82070 0.48000
N 	N 	0.04232 0.78120 0.65922 -0.17800
C 	C 	0.04710 0.75820 0.64360 0.39100
O 	O 	0.06790 0.74550 0.64180 -0.29100
O 	O 	0.02370 0.74830 0.63180 -0.24200
C 	C 	0.00200 0.76310 0.64270 0.01000
H 	H 	0.99140 0.75110 0.65540 0.07000
H 	H 	0.98950 0.76870 0.62760 0.06200
C 	C 	0.01200 0.78990 0.65910 0.00700
H 	H 	0.00500 0.78820 0.67840 0.04700
O 	O 	0.99732 0.80439 0.79806 -0.45800
N 	N 	0.99546 0.83334 0.84152 -0.12300
C 	C 	0.99546 0.80454 0.82302 0.99200
H 	H 	0.99830 0.82850 0.79610 -0.55600
C 	C 	0.99158 0.82396 0.87123 -0.09000
H 	H 	0.00580 0.82990 0.88460 0.08000
H 	H 	0.98520 0.80470 0.87400 0.08200
C 	C 	0.53864 0.27786 0.72495 0.41700
O 	O 	0.52950 0.28903 0.74700 -0.45200
O 	O 	0.53030 0.25556 0.71412 -0.45600
C 	C 	0.56257 0.29286 0.71072 -0.20900
C 	C 	0.58295 0.30749 0.72619 0.16400
C 	C 	0.60532 0.31979 0.71312 -0.20300
H 	H 	0.61870 0.32920 0.72380 0.08700
C 	C 	0.60839 0.31849 0.68376 0.10300
C 	C 	0.58822 0.30387 0.66837 -0.21200
H 	H 	0.58990 0.30280 0.64890 0.11700
C 	C 	0.56584 0.29099 0.68129 0.17600
C 	C 	0.64626 0.35513 0.68096 -0.07700
H 	H 	0.63870 0.36340 0.69700 0.05100
C 	C 	0.63346 0.33126 0.66971 -0.00500
N 	N 	0.58494 0.31096 0.75857 -0.11500
C 	C 	0.57210 0.33350 0.77140 0.34900
O 	O 	0.56320 0.35440 0.76050 -0.26100
O 	O 	0.56875 0.32810 0.79856 -0.29500
C 	C 	0.57680 0.29830 0.80500 0.26200
H 	H 	0.58940 0.29750 0.82100 -0.05700
H 	H 	0.56020 0.28710 0.80900 -0.02000
C 	C 	0.59104 0.28832 0.77898 -0.50500
H 	H 	0.58210 0.27080 0.77260 0.19200
C 	C 	0.62115 0.28370 0.78210 1.05700
H 	H 	0.62800 0.27790 0.76350 -0.30200
C 	C 	0.63820 0.30870 0.79020 -1.57100
H 	H 	0.63310 0.32450 0.77860 0.48600
H 	H 	0.65780 0.30460 0.78760 0.45300
H 	H 	0.63480 0.31320 0.80960 0.47800
C 	C 	0.62790 0.25920 0.80220 -1.53400
H 	H 	0.64790 0.25640 0.80290 0.45800
H 	H 	0.61900 0.24240 0.79550 0.49200
H 	H 	0.62100 0.26360 0.82070 0.48000
N 	N 	0.54232 0.28120 0.65922 -0.17800
C 	C 	0.54710 0.25820 0.64360 0.39100
O 	O 	0.56790 0.24550 0.64180 -0.29100
O 	O 	0.52370 0.24830 0.63180 -0.24300
C 	C 	0.50200 0.26310 0.64270 0.01800
H 	H 	0.49140 0.25110 0.65540 0.06700
H 	H 	0.48950 0.26870 0.62760 0.05800
C 	C 	0.51200 0.28990 0.65910 0.00500
H 	H 	0.50500 0.28820 0.67840 0.04800
O 	O 	0.49732 0.30439 0.79806 -0.44700
N 	N 	0.49546 0.33334 0.84152 -0.12700
C 	C 	0.49546 0.30454 0.82302 1.00400
H 	H 	0.49830 0.32850 0.79610 -0.55200
C 	C 	0.49158 0.32396 0.87123 -0.09200
H 	H 	0.50580 0.32990 0.88460 0.08100
H 	H 	0.48520 0.30470 0.87400 0.08200
C 	C 	0.53864 0.77786 0.22495 0.41700
O 	O 	0.52950 0.78903 0.24700 -0.45200
O 	O 	0.53030 0.75556 0.21412 -0.45600
C 	C 	0.56257 0.79286 0.21072 -0.20900
C 	C 	0.58295 0.80749 0.22619 0.16400
C 	C 	0.60532 0.81979 0.21312 -0.20300
H 	H 	0.61870 0.82920 0.22380 0.08700
C 	C 	0.60839 0.81849 0.18376 0.10300
C 	C 	0.58822 0.80387 0.16837 -0.21200
H 	H 	0.58990 0.80280 0.14890 0.11700
C 	C 	0.56584 0.79099 0.18129 0.17600
C 	C 	0.64626 0.85513 0.18096 -0.07700
H 	H 	0.63870 0.86340 0.19700 0.05100
C 	C 	0.63346 0.83126 0.16971 -0.00500
N 	N 	0.58494 0.81096 0.25857 -0.11500
C 	C 	0.57210 0.83350 0.27140 0.34900
O 	O 	0.56320 0.85440 0.26050 -0.26100
O 	O 	0.56875 0.82810 0.29856 -0.29500
C 	C 	0.57680 0.79830 0.30500 0.26200
H 	H 	0.58940 0.79750 0.32100 -0.05700
H 	H 	0.56020 0.78710 0.30900 -0.02000
C 	C 	0.59104 0.78832 0.27898 -0.50500
H 	H 	0.58210 0.77080 0.27260 0.19200
C 	C 	0.62115 0.78370 0.28210 1.05700
H 	H 	0.62800 0.77790 0.26350 -0.30200
C 	C 	0.63820 0.80870 0.29020 -1.57100
H 	H 	0.63310 0.82450 0.27860 0.48600
H 	H 	0.65780 0.80460 0.28760 0.45300
H 	H 	0.63480 0.81320 0.30960 0.47800
C 	C 	0.62790 0.75920 0.30220 -1.53400
H 	H 	0.64790 0.75640 0.30290 0.45800
H 	H 	0.61900 0.74240 0.29550 0.49200
H 	H 	0.62100 0.76360 0.32070 0.48000
N 	N 	0.54232 0.78120 0.15922 -0.17800
C 	C 	0.54710 0.75820 0.14360 0.39100
O 	O 	0.56790 0.74550 0.14180 -0.29100
O 	O 	0.52370 0.74830 0.13180 -0.24300
C 	C 	0.50200 0.76310 0.14270 0.01800
H 	H 	0.49140 0.75110 0.15540 0.06700
H 	H 	0.48950 0.76870 0.12760 0.05800
C 	C 	0.51200 0.78990 0.15910 0.00500
H 	H 	0.50500 0.78820 0.17840 0.04800
O 	O 	0.49732 0.80439 0.29806 -0.44700
N 	N 	0.49546 0.83334 0.34152 -0.12700
C 	C 	0.49546 0.80454 0.32302 1.00400
H 	H 	0.49830 0.82850 0.29610 -0.55200
C 	C 	0.49158 0.82396 0.37123 -0.09200
H 	H 	0.50580 0.82990 0.38460 0.08100
H 	H 	0.48520 0.80470 0.37400 0.08200
C 	C 	0.03864 0.72214 0.77505 0.41700
O 	O 	0.02950 0.71097 0.75300 -0.45300
O 	O 	0.03030 0.74444 0.78588 -0.45600
C 	C 	0.06257 0.70714 0.78928 -0.20900
C 	C 	0.08295 0.69251 0.77381 0.16400
C 	C 	0.10532 0.68021 0.78688 -0.20300
H 	H 	0.11870 0.67080 0.77620 0.08700
C 	C 	0.10839 0.68151 0.81624 0.10300
C 	C 	0.08822 0.69613 0.83163 -0.21200
H 	H 	0.08990 0.69720 0.85110 0.11700
C 	C 	0.06584 0.70901 0.81871 0.17600
C 	C 	0.14626 0.64487 0.81904 -0.07700
H 	H 	0.13870 0.63660 0.80300 0.05100
C 	C 	0.13346 0.66874 0.83029 -0.00500
N 	N 	0.08494 0.68904 0.74143 -0.11500
C 	C 	0.07210 0.66650 0.72860 0.34900
O 	O 	0.06320 0.64560 0.73950 -0.26100
O 	O 	0.06875 0.67190 0.70144 -0.29600
C 	C 	0.07680 0.70170 0.69500 0.26300
H 	H 	0.08940 0.70250 0.67900 -0.05800
H 	H 	0.06020 0.71290 0.69100 -0.02100
C 	C 	0.09104 0.71168 0.72102 -0.50500
H 	H 	0.08210 0.72920 0.72740 0.19200
C 	C 	0.12115 0.71630 0.71790 1.05700
H 	H 	0.12800 0.72210 0.73650 -0.30200
C 	C 	0.13820 0.69130 0.70980 -1.57100
H 	H 	0.13310 0.67550 0.72140 0.48600
H 	H 	0.15780 0.69540 0.71240 0.45300
H 	H 	0.13480 0.68680 0.69040 0.47800
C 	C 	0.12790 0.74080 0.69780 -1.53400
H 	H 	0.14790 0.74360 0.69710 0.45800
H 	H 	0.11900 0.75760 0.70450 0.49200
H 	H 	0.12100 0.73640 0.67930 0.48000
N 	N 	0.04232 0.71880 0.84078 -0.17800
C 	C 	0.04710 0.74180 0.85640 0.39100
O 	O 	0.06790 0.75450 0.85820 -0.29100
O 	O 	0.02370 0.75170 0.86820 -0.24200
C 	C 	0.00200 0.73690 0.85730 0.01000
H 	H 	0.99140 0.74890 0.84460 0.07100
H 	H 	0.98950 0.73130 0.87240 0.06200
C 	C 	0.01200 0.71010 0.84090 0.00700
H 	H 	0.00500 0.71180 0.82160 0.04700
O 	O 	0.99732 0.69561 0.70194 -0.45800
N 	N 	0.99546 0.66666 0.65848 -0.12300
C 	C 	0.99546 0.69546 0.67698 0.99200
H 	H 	0.99830 0.67150 0.70390 -0.55600
C 	C 	0.99158 0.67604 0.62877 -0.09000
H 	H 	0.00580 0.67010 0.61540 0.07900
H 	H 	0.98520 0.69530 0.62600 0.08200
C 	C 	0.03864 0.22214 0.27505 0.41700
O 	O 	0.02950 0.21097 0.25300 -0.45300
O 	O 	0.03030 0.24444 0.28588 -0.45600
C 	C 	0.06257 0.20714 0.28928 -0.20900
C 	C 	0.08295 0.19251 0.27381 0.16400
C 	C 	0.10532 0.18021 0.28688 -0.20300
H 	H 	0.11870 0.17080 0.27620 0.08700
C 	C 	0.10839 0.18151 0.31624 0.10300
C 	C 	0.08822 0.19613 0.33163 -0.21200
H 	H 	0.08990 0.19720 0.35110 0.11700
C 	C 	0.06584 0.20901 0.31871 0.17600
C 	C 	0.14626 0.14487 0.31904 -0.07700
H 	H 	0.13870 0.13660 0.30300 0.05100
C 	C 	0.13346 0.16874 0.33029 -0.00500
N 	N 	0.08494 0.18904 0.24143 -0.11500
C 	C 	0.07210 0.16650 0.22860 0.34900
O 	O 	0.06320 0.14560 0.23950 -0.26100
O 	O 	0.06875 0.17190 0.20144 -0.29600
C 	C 	0.07680 0.20170 0.19500 0.26300
H 	H 	0.08940 0.20250 0.17900 -0.05800
H 	H 	0.06020 0.21290 0.19100 -0.02100
C 	C 	0.09104 0.21168 0.22102 -0.50500
H 	H 	0.08210 0.22920 0.22740 0.19200
C 	C 	0.12115 0.21630 0.21790 1.05700
H 	H 	0.12800 0.22210 0.23650 -0.30200
C 	C 	0.13820 0.19130 0.20980 -1.57100
H 	H 	0.13310 0.17550 0.22140 0.48600
H 	H 	0.15780 0.19540 0.21240 0.45300
H 	H 	0.13480 0.18680 0.19040 0.47800
C 	C 	0.12790 0.24080 0.19780 -1.53400
H 	H 	0.14790 0.24360 0.19710 0.45800
H 	H 	0.11900 0.25760 0.20450 0.49200
H 	H 	0.12100 0.23640 0.17930 0.48000
N 	N 	0.04232 0.21880 0.34078 -0.17800
C 	C 	0.04710 0.24180 0.35640 0.39100
O 	O 	0.06790 0.25450 0.35820 -0.29100
O 	O 	0.02370 0.25170 0.36820 -0.24200
C 	C 	0.00200 0.23690 0.35730 0.01000
H 	H 	0.99140 0.24890 0.34460 0.07000
H 	H 	0.98950 0.23130 0.37240 0.06200
C 	C 	0.01200 0.21010 0.34090 0.00700
H 	H 	0.00500 0.21180 0.32160 0.04700
O 	O 	0.99732 0.19561 0.20194 -0.45800
N 	N 	0.99546 0.16666 0.15848 -0.12300
C 	C 	0.99546 0.19546 0.17698 0.99200
H 	H 	0.99830 0.17150 0.20390 -0.55600
C 	C 	0.99158 0.17604 0.12877 -0.09000
H 	H 	0.00580 0.17010 0.11540 0.07900
H 	H 	0.98520 0.19530 0.12600 0.08200
C 	C 	0.53864 0.72214 0.27505 0.41700
O 	O 	0.52950 0.71097 0.25300 -0.45200
O 	O 	0.53030 0.74444 0.28588 -0.45600
C 	C 	0.56257 0.70714 0.28928 -0.20900
C 	C 	0.58295 0.69251 0.27381 0.16400
C 	C 	0.60532 0.68021 0.28688 -0.20300
H 	H 	0.61870 0.67080 0.27620 0.08700
C 	C 	0.60839 0.68151 0.31624 0.10300
C 	C 	0.58822 0.69613 0.33163 -0.21200
H 	H 	0.58990 0.69720 0.35110 0.11700
C 	C 	0.56584 0.70901 0.31871 0.17600
C 	C 	0.64626 0.64487 0.31904 -0.07700
H 	H 	0.63870 0.63660 0.30300 0.05100
C 	C 	0.63346 0.66874 0.33029 -0.00500
N 	N 	0.58494 0.68904 0.24143 -0.11500
C 	C 	0.57210 0.66650 0.22860 0.34900
O 	O 	0.56320 0.64560 0.23950 -0.26100
O 	O 	0.56875 0.67190 0.20144 -0.29500
C 	C 	0.57680 0.70170 0.19500 0.26200
H 	H 	0.58940 0.70250 0.17900 -0.05700
H 	H 	0.56020 0.71290 0.19100 -0.02000
C 	C 	0.59104 0.71168 0.22102 -0.50500
H 	H 	0.58210 0.72920 0.22740 0.19200
C 	C 	0.62115 0.71630 0.21790 1.05700
H 	H 	0.62800 0.72210 0.23650 -0.30200
C 	C 	0.63820 0.69130 0.20980 -1.57100
H 	H 	0.63310 0.67550 0.22140 0.48600
H 	H 	0.65780 0.69540 0.21240 0.45300
H 	H 	0.63480 0.68680 0.19040 0.47800
C 	C 	0.62790 0.74080 0.19780 -1.53400
H 	H 	0.64790 0.74360 0.19710 0.45800
H 	H 	0.61900 0.75760 0.20450 0.49200
H 	H 	0.62100 0.73640 0.17930 0.48000
N 	N 	0.54232 0.71880 0.34078 -0.17800
C 	C 	0.54710 0.74180 0.35640 0.39100
O 	O 	0.56790 0.75450 0.35820 -0.29100
O 	O 	0.52370 0.75170 0.36820 -0.24300
C 	C 	0.50200 0.73690 0.35730 0.01800
H 	H 	0.49140 0.74890 0.34460 0.06700
H 	H 	0.48950 0.73130 0.37240 0.05800
C 	C 	0.51200 0.71010 0.34090 0.00500
H 	H 	0.50500 0.71180 0.32160 0.04800
O 	O 	0.49732 0.69561 0.20194 -0.44700
N 	N 	0.49546 0.66666 0.15848 -0.12700
C 	C 	0.49546 0.69546 0.17698 1.00400
H 	H 	0.49830 0.67150 0.20390 -0.55200
C 	C 	0.49158 0.67604 0.12877 -0.09200
H 	H 	0.50580 0.67010 0.11540 0.08100
H 	H 	0.48520 0.69530 0.12600 0.08200
C 	C 	0.53864 0.22214 0.77505 0.41700
O 	O 	0.52950 0.21097 0.75300 -0.45200
O 	O 	0.53030 0.24444 0.78588 -0.45600
C 	C 	0.56257 0.20714 0.78928 -0.20900
C 	C 	0.58295 0.19251 0.77381 0.16400
C 	C 	0.60532 0.18021 0.78688 -0.20300
H 	H 	0.61870 0.17080 0.77620 0.08700
C 	C 	0.60839 0.18151 0.81624 0.10300
C 	C 	0.58822 0.19613 0.83163 -0.21200
H 	H 	0.58990 0.19720 0.85110 0.11700
C 	C 	0.56584 0.20901 0.81871 0.17600
C 	C 	0.64626 0.14487 0.81904 -0.07700
H 	H 	0.63870 0.13660 0.80300 0.05100
C 	C 	0.63346 0.16874 0.83029 -0.00500
N 	N 	0.58494 0.18904 0.74143 -0.11500
C 	C 	0.57210 0.16650 0.72860 0.34900
O 	O 	0.56320 0.14560 0.73950 -0.26100
O 	O 	0.56875 0.17190 0.70144 -0.29500
C 	C 	0.57680 0.20170 0.69500 0.26200
H 	H 	0.58940 0.20250 0.67900 -0.05700
H 	H 	0.56020 0.21290 0.69100 -0.02000
C 	C 	0.59104 0.21168 0.72102 -0.50500
H 	H 	0.58210 0.22920 0.72740 0.19200
C 	C 	0.62115 0.21630 0.71790 1.05700
H 	H 	0.62800 0.22210 0.73650 -0.30200
C 	C 	0.63820 0.19130 0.70980 -1.57100
H 	H 	0.63310 0.17550 0.72140 0.48600
H 	H 	0.65780 0.19540 0.71240 0.45300
H 	H 	0.63480 0.18680 0.69040 0.47800
C 	C 	0.62790 0.24080 0.69780 -1.53400
H 	H 	0.64790 0.24360 0.69710 0.45800
H 	H 	0.61900 0.25760 0.70450 0.49200
H 	H 	0.62100 0.23640 0.67930 0.48000
N 	N 	0.54232 0.21880 0.84078 -0.17800
C 	C 	0.54710 0.24180 0.85640 0.39100
O 	O 	0.56790 0.25450 0.85820 -0.29100
O 	O 	0.52370 0.25170 0.86820 -0.24300
C 	C 	0.50200 0.23690 0.85730 0.01800
H 	H 	0.49140 0.24890 0.84460 0.06700
H 	H 	0.48950 0.23130 0.87240 0.05800
C 	C 	0.51200 0.21010 0.84090 0.00500
H 	H 	0.50500 0.21180 0.82160 0.04800
O 	O 	0.49732 0.19561 0.70194 -0.44700
N 	N 	0.49546 0.16666 0.65848 -0.12700
C 	C 	0.49546 0.19546 0.67698 1.00400
H 	H 	0.49830 0.17150 0.70390 -0.55200
C 	C 	0.49158 0.17604 0.62877 -0.09200
H 	H 	0.50580 0.17010 0.61540 0.08100
H 	H 	0.48520 0.19530 0.62600 0.08200
C 	C 	0.96136 0.27786 0.77505 0.41700
O 	O 	0.97050 0.28903 0.75300 -0.45200
O 	O 	0.96970 0.25556 0.78588 -0.45500
C 	C 	0.93743 0.29286 0.78928 -0.20800
C 	C 	0.91705 0.30749 0.77381 0.16400
C 	C 	0.89468 0.31979 0.78688 -0.20300
H 	H 	0.88130 0.32920 0.77620 0.08700
C 	C 	0.89161 0.31849 0.81624 0.10300
C 	C 	0.91178 0.30387 0.83163 -0.21200
H 	H 	0.91010 0.30280 0.85110 0.11700
C 	C 	0.93416 0.29099 0.81871 0.17600
C 	C 	0.85374 0.35513 0.81904 -0.07700
H 	H 	0.86130 0.36340 0.80300 0.05100
C 	C 	0.86654 0.33126 0.83029 -0.00500
N 	N 	0.91506 0.31096 0.74143 -0.11500
C 	C 	0.92790 0.33350 0.72860 0.34900
O 	O 	0.93680 0.35440 0.73950 -0.26100
O 	O 	0.93125 0.32810 0.70144 -0.29500
C 	C 	0.92320 0.29830 0.69500 0.26200
H 	H 	0.91060 0.29750 0.67900 -0.05700
H 	H 	0.93980 0.28710 0.69100 -0.02000
C 	C 	0.90896 0.28832 0.72102 -0.50400
H 	H 	0.91790 0.27080 0.72740 0.19200
C 	C 	0.87885 0.28370 0.71790 1.05700
H 	H 	0.87200 0.27790 0.73650 -0.30100
C 	C 	0.86180 0.30870 0.70980 -1.57100
H 	H 	0.86690 0.32450 0.72140 0.48600
H 	H 	0.84220 0.30460 0.71240 0.45300
H 	H 	0.86520 0.31320 0.69040 0.47800
C 	C 	0.87210 0.25920 0.69780 -1.53400
H 	H 	0.85210 0.25640 0.69710 0.45800
H 	H 	0.88100 0.24240 0.70450 0.49200
H 	H 	0.87900 0.26360 0.67930 0.48000
N 	N 	0.95768 0.28120 0.84078 -0.17700
C 	C 	0.95290 0.25820 0.85640 0.39100
O 	O 	0.93210 0.24550 0.85820 -0.29100
O 	O 	0.97630 0.24830 0.86820 -0.24400
C 	C 	0.99800 0.26310 0.85730 0.02600
H 	H 	0.00860 0.25110 0.84460 0.06400
H 	H 	0.01050 0.26870 0.87240 0.05500
C 	C 	0.98800 0.28990 0.84090 0.00400
H 	H 	0.99500 0.28820 0.82160 0.04900
O 	O 	0.00268 0.30439 0.70194 -0.43500
N 	N 	0.00454 0.33334 0.65848 -0.13100
C 	C 	0.00454 0.30454 0.67698 1.01500
H 	H 	0.00170 0.32850 0.70390 -0.54700
C 	C 	0.00842 0.32396 0.62877 -0.09500
H 	H 	0.99420 0.32990 0.61540 0.08300
H 	H 	0.01480 0.30470 0.62600 0.08300
C 	C 	0.96136 0.77786 0.27505 0.41700
O 	O 	0.97050 0.78903 0.25300 -0.45200
O 	O 	0.96970 0.75556 0.28588 -0.45500
C 	C 	0.93743 0.79286 0.28928 -0.20800
C 	C 	0.91705 0.80749 0.27381 0.16400
C 	C 	0.89468 0.81979 0.28688 -0.20300
H 	H 	0.88130 0.82920 0.27620 0.08700
C 	C 	0.89161 0.81849 0.31624 0.10300
C 	C 	0.91178 0.80387 0.33163 -0.21200
H 	H 	0.91010 0.80280 0.35110 0.11700
C 	C 	0.93416 0.79099 0.31871 0.17600
C 	C 	0.85374 0.85513 0.31904 -0.07700
H 	H 	0.86130 0.86340 0.30300 0.05100
C 	C 	0.86654 0.83126 0.33029 -0.00500
N 	N 	0.91506 0.81096 0.24143 -0.11500
C 	C 	0.92790 0.83350 0.22860 0.34900
O 	O 	0.93680 0.85440 0.23950 -0.26000
O 	O 	0.93125 0.82810 0.20144 -0.29500
C 	C 	0.92320 0.79830 0.19500 0.26200
H 	H 	0.91060 0.79750 0.17900 -0.05700
H 	H 	0.93980 0.78710 0.19100 -0.02000
C 	C 	0.90896 0.78832 0.22102 -0.50500
H 	H 	0.91790 0.77080 0.22740 0.19200
C 	C 	0.87885 0.78370 0.21790 1.05700
H 	H 	0.87200 0.77790 0.23650 -0.30100
C 	C 	0.86180 0.80870 0.20980 -1.57100
H 	H 	0.86690 0.82450 0.22140 0.48600
H 	H 	0.84220 0.80460 0.21240 0.45300
H 	H 	0.86520 0.81320 0.19040 0.47800
C 	C 	0.87210 0.75920 0.19780 -1.53400
H 	H 	0.85210 0.75640 0.19710 0.45800
H 	H 	0.88100 0.74240 0.20450 0.49200
H 	H 	0.87900 0.76360 0.17930 0.48000
N 	N 	0.95768 0.78120 0.34078 -0.17700
C 	C 	0.95290 0.75820 0.35640 0.39100
O 	O 	0.93210 0.74550 0.35820 -0.29100
O 	O 	0.97630 0.74830 0.36820 -0.24400
C 	C 	0.99800 0.76310 0.35730 0.02600
H 	H 	0.00860 0.75110 0.34460 0.06400
H 	H 	0.01050 0.76870 0.37240 0.05500
C 	C 	0.98800 0.78990 0.34090 0.00400
H 	H 	0.99500 0.78820 0.32160 0.04900
O 	O 	0.00268 0.80439 0.20194 -0.43500
N 	N 	0.00454 0.83334 0.15848 -0.13100
C 	C 	0.00454 0.80454 0.17698 1.01500
H 	H 	0.00170 0.82850 0.20390 -0.54700
C 	C 	0.00842 0.82396 0.12877 -0.09500
H 	H 	0.99420 0.82990 0.11540 0.08300
H 	H 	0.01480 0.80470 0.12600 0.08300
C 	C 	0.46136 0.27786 0.27505 0.41700
O 	O 	0.47050 0.28903 0.25300 -0.45200
O 	O 	0.46970 0.25556 0.28588 -0.45600
C 	C 	0.43743 0.29286 0.28928 -0.20900
C 	C 	0.41705 0.30749 0.27381 0.16400
C 	C 	0.39468 0.31979 0.28688 -0.20300
H 	H 	0.38130 0.32920 0.27620 0.08700
C 	C 	0.39161 0.31849 0.31624 0.10300
C 	C 	0.41178 0.30387 0.33163 -0.21200
H 	H 	0.41010 0.30280 0.35110 0.11700
C 	C 	0.43416 0.29099 0.31871 0.17600
C 	C 	0.35374 0.35513 0.31904 -0.07700
H 	H 	0.36130 0.36340 0.30300 0.05100
C 	C 	0.36654 0.33126 0.33029 -0.00500
N 	N 	0.41506 0.31096 0.24143 -0.11500
C 	C 	0.42790 0.33350 0.22860 0.34900
O 	O 	0.43680 0.35440 0.23950 -0.26100
O 	O 	0.43125 0.32810 0.20144 -0.29500
C 	C 	0.42320 0.29830 0.19500 0.26200
H 	H 	0.41060 0.29750 0.17900 -0.05700
H 	H 	0.43980 0.28710 0.19100 -0.02000
C 	C 	0.40896 0.28832 0.22102 -0.50500
H 	H 	0.41790 0.27080 0.22740 0.19200
C 	C 	0.37885 0.28370 0.21790 1.05700
H 	H 	0.37200 0.27790 0.23650 -0.30200
C 	C 	0.36180 0.30870 0.20980 -1.57100
H 	H 	0.36690 0.32450 0.22140 0.48600
H 	H 	0.34220 0.30460 0.21240 0.45300
H 	H 	0.36520 0.31320 0.19040 0.47800
C 	C 	0.37210 0.25920 0.19780 -1.53400
H 	H 	0.35210 0.25640 0.19710 0.45800
H 	H 	0.38100 0.24240 0.20450 0.49200
H 	H 	0.37900 0.26360 0.17930 0.48000
N 	N 	0.45768 0.28120 0.34078 -0.17800
C 	C 	0.45290 0.25820 0.35640 0.39100
O 	O 	0.43210 0.24550 0.35820 -0.29100
O 	O 	0.47630 0.24830 0.36820 -0.24300
C 	C 	0.49800 0.26310 0.35730 0.01800
H 	H 	0.50860 0.25110 0.34460 0.06700
H 	H 	0.51050 0.26870 0.37240 0.05800
C 	C 	0.48800 0.28990 0.34090 0.00500
H 	H 	0.49500 0.28820 0.32160 0.04800
O 	O 	0.50268 0.30439 0.20194 -0.44700
N 	N 	0.50454 0.33334 0.15848 -0.12700
C 	C 	0.50454 0.30454 0.17698 1.00400
H 	H 	0.50170 0.32850 0.20390 -0.55200
C 	C 	0.50842 0.32396 0.12877 -0.09200
H 	H 	0.49420 0.32990 0.11540 0.08100
H 	H 	0.51480 0.30470 0.12600 0.08200
C 	C 	0.46136 0.77786 0.77505 0.41700
O 	O 	0.47050 0.78903 0.75300 -0.45200
O 	O 	0.46970 0.75556 0.78588 -0.45600
C 	C 	0.43743 0.79286 0.78928 -0.20900
C 	C 	0.41705 0.80749 0.77381 0.16400
C 	C 	0.39468 0.81979 0.78688 -0.20300
H 	H 	0.38130 0.82920 0.77620 0.08700
C 	C 	0.39161 0.81849 0.81624 0.10300
C 	C 	0.41178 0.80387 0.83163 -0.21200
H 	H 	0.41010 0.80280 0.85110 0.11700
C 	C 	0.43416 0.79099 0.81871 0.17600
C 	C 	0.35374 0.85513 0.81904 -0.07700
H 	H 	0.36130 0.86340 0.80300 0.05100
C 	C 	0.36654 0.83126 0.83029 -0.00500
N 	N 	0.41506 0.81096 0.74143 -0.11500
C 	C 	0.42790 0.83350 0.72860 0.34900
O 	O 	0.43680 0.85440 0.73950 -0.26100
O 	O 	0.43125 0.82810 0.70144 -0.29500
C 	C 	0.42320 0.79830 0.69500 0.26200
H 	H 	0.41060 0.79750 0.67900 -0.05700
H 	H 	0.43980 0.78710 0.69100 -0.02000
C 	C 	0.40896 0.78832 0.72102 -0.50500
H 	H 	0.41790 0.77080 0.72740 0.19200
C 	C 	0.37885 0.78370 0.71790 1.05700
H 	H 	0.37200 0.77790 0.73650 -0.30200
C 	C 	0.36180 0.80870 0.70980 -1.57100
H 	H 	0.36690 0.82450 0.72140 0.48600
H 	H 	0.34220 0.80460 0.71240 0.45300
H 	H 	0.36520 0.81320 0.69040 0.47800
C 	C 	0.37210 0.75920 0.69780 -1.53400
H 	H 	0.35210 0.75640 0.69710 0.45800
H 	H 	0.38100 0.74240 0.70450 0.49200
H 	H 	0.37900 0.76360 0.67930 0.48000
N 	N 	0.45768 0.78120 0.84078 -0.17800
C 	C 	0.45290 0.75820 0.85640 0.39100
O 	O 	0.43210 0.74550 0.85820 -0.29100
O 	O 	0.47630 0.74830 0.86820 -0.24300
C 	C 	0.49800 0.76310 0.85730 0.01800
H 	H 	0.50860 0.75110 0.84460 0.06700
H 	H 	0.51050 0.76870 0.87240 0.05900
C 	C 	0.48800 0.78990 0.84090 0.00500
H 	H 	0.49500 0.78820 0.82160 0.04800
O 	O 	0.50268 0.80439 0.70194 -0.44700
N 	N 	0.50454 0.83334 0.65848 -0.12700
C 	C 	0.50454 0.80454 0.67698 1.00400
H 	H 	0.50170 0.82850 0.70390 -0.55200
C 	C 	0.50842 0.82396 0.62877 -0.09200
H 	H 	0.49420 0.82990 0.61540 0.08100
H 	H 	0.51480 0.80470 0.62600 0.08200
C 	C 	0.22495 0.96136 0.72214 0.41700
O 	O 	0.24700 0.97050 0.71097 -0.45200
O 	O 	0.21412 0.96970 0.74444 -0.45500
C 	C 	0.21072 0.93743 0.70714 -0.20800
C 	C 	0.22619 0.91705 0.69251 0.16400
C 	C 	0.21312 0.89468 0.68021 -0.20300
H 	H 	0.22380 0.88130 0.67080 0.08700
C 	C 	0.18376 0.89161 0.68151 0.10300
C 	C 	0.16837 0.91178 0.69613 -0.21200
H 	H 	0.14890 0.91010 0.69720 0.11700
C 	C 	0.18129 0.93416 0.70901 0.17600
C 	C 	0.18096 0.85374 0.64487 -0.07700
H 	H 	0.19700 0.86130 0.63660 0.05100
C 	C 	0.16971 0.86654 0.66874 -0.00500
N 	N 	0.25857 0.91506 0.68904 -0.11500
C 	C 	0.27140 0.92790 0.66650 0.34900
O 	O 	0.26050 0.93680 0.64560 -0.26100
O 	O 	0.29856 0.93125 0.67190 -0.29500
C 	C 	0.30500 0.92320 0.70170 0.26200
H 	H 	0.32100 0.91060 0.70250 -0.05700
H 	H 	0.30900 0.93980 0.71290 -0.02000
C 	C 	0.27898 0.90896 0.71168 -0.50400
H 	H 	0.27260 0.91790 0.72920 0.19200
C 	C 	0.28210 0.87885 0.71630 1.05700
H 	H 	0.26350 0.87200 0.72210 -0.30100
C 	C 	0.29020 0.86180 0.69130 -1.57100
H 	H 	0.27860 0.86690 0.67550 0.48600
H 	H 	0.28760 0.84220 0.69540 0.45300
H 	H 	0.30960 0.86520 0.68680 0.47800
C 	C 	0.30220 0.87210 0.74080 -1.53400
H 	H 	0.30290 0.85210 0.74360 0.45800
H 	H 	0.29550 0.88100 0.75760 0.49200
H 	H 	0.32070 0.87900 0.73640 0.48000
N 	N 	0.15922 0.95768 0.71880 -0.17700
C 	C 	0.14360 0.95290 0.74180 0.39100
O 	O 	0.14180 0.93210 0.75450 -0.29100
O 	O 	0.13180 0.97630 0.75170 -0.24400
C 	C 	0.14270 0.99800 0.73690 0.02600
H 	H 	0.15540 0.00860 0.74890 0.06400
H 	H 	0.12760 0.01050 0.73130 0.05500
C 	C 	0.15910 0.98800 0.71010 0.00400
H 	H 	0.17840 0.99500 0.71180 0.04900
O 	O 	0.29806 0.00268 0.69561 -0.43500
N 	N 	0.34152 0.00454 0.66666 -0.13100
C 	C 	0.32302 0.00454 0.69546 1.01500
H 	H 	0.29610 0.00170 0.67150 -0.54700
C 	C 	0.37123 0.00842 0.67604 -0.09500
H 	H 	0.38460 0.99420 0.67010 0.08300
H 	H 	0.37400 0.01480 0.69530 0.08300
C 	C 	0.22495 0.46136 0.22214 0.41700
O 	O 	0.24700 0.47050 0.21097 -0.45200
O 	O 	0.21412 0.46970 0.24444 -0.45600
C 	C 	0.21072 0.43743 0.20714 -0.20900
C 	C 	0.22619 0.41705 0.19251 0.16400
C 	C 	0.21312 0.39468 0.18021 -0.20300
H 	H 	0.22380 0.38130 0.17080 0.08700
C 	C 	0.18376 0.39161 0.18151 0.10300
C 	C 	0.16837 0.41178 0.19613 -0.21200
H 	H 	0.14890 0.41010 0.19720 0.11700
C 	C 	0.18129 0.43416 0.20901 0.17600
C 	C 	0.18096 0.35374 0.14487 -0.07700
H 	H 	0.19700 0.36130 0.13660 0.05100
C 	C 	0.16971 0.36654 0.16874 -0.00500
N 	N 	0.25857 0.41506 0.18904 -0.11500
C 	C 	0.27140 0.42790 0.16650 0.34900
O 	O 	0.26050 0.43680 0.14560 -0.26100
O 	O 	0.29856 0.43125 0.17190 -0.29500
C 	C 	0.30500 0.42320 0.20170 0.26200
H 	H 	0.32100 0.41060 0.20250 -0.05700
H 	H 	0.30900 0.43980 0.21290 -0.02000
C 	C 	0.27898 0.40896 0.21168 -0.50500
H 	H 	0.27260 0.41790 0.22920 0.19200
C 	C 	0.28210 0.37885 0.21630 1.05700
H 	H 	0.26350 0.37200 0.22210 -0.30200
C 	C 	0.29020 0.36180 0.19130 -1.57100
H 	H 	0.27860 0.36690 0.17550 0.48600
H 	H 	0.28760 0.34220 0.19540 0.45300
H 	H 	0.30960 0.36520 0.18680 0.47800
C 	C 	0.30220 0.37210 0.24080 -1.53400
H 	H 	0.30290 0.35210 0.24360 0.45800
H 	H 	0.29550 0.38100 0.25760 0.49200
H 	H 	0.32070 0.37900 0.23640 0.48000
N 	N 	0.15922 0.45768 0.21880 -0.17800
C 	C 	0.14360 0.45290 0.24180 0.39100
O 	O 	0.14180 0.43210 0.25450 -0.29100
O 	O 	0.13180 0.47630 0.25170 -0.24300
C 	C 	0.14270 0.49800 0.23690 0.01800
H 	H 	0.15540 0.50860 0.24890 0.06700
H 	H 	0.12760 0.51050 0.23130 0.05800
C 	C 	0.15910 0.48800 0.21010 0.00500
H 	H 	0.17840 0.49500 0.21180 0.04800
O 	O 	0.29806 0.50268 0.19561 -0.44700
N 	N 	0.34152 0.50454 0.16666 -0.12700
C 	C 	0.32302 0.50454 0.19546 1.00400
H 	H 	0.29610 0.50170 0.17150 -0.55200
C 	C 	0.37123 0.50842 0.17604 -0.09200
H 	H 	0.38460 0.49420 0.17010 0.08100
H 	H 	0.37400 0.51480 0.19530 0.08200
C 	C 	0.72495 0.96136 0.22214 0.41700
O 	O 	0.74700 0.97050 0.21097 -0.45200
O 	O 	0.71412 0.96970 0.24444 -0.45500
C 	C 	0.71072 0.93743 0.20714 -0.20800
C 	C 	0.72619 0.91705 0.19251 0.16400
C 	C 	0.71312 0.89468 0.18021 -0.20300
H 	H 	0.72380 0.88130 0.17080 0.08700
C 	C 	0.68376 0.89161 0.18151 0.10300
C 	C 	0.66837 0.91178 0.19613 -0.21200
H 	H 	0.64890 0.91010 0.19720 0.11700
C 	C 	0.68129 0.93416 0.20901 0.17600
C 	C 	0.68096 0.85374 0.14487 -0.07700
H 	H 	0.69700 0.86130 0.13660 0.05100
C 	C 	0.66971 0.86654 0.16874 -0.00500
N 	N 	0.75857 0.91506 0.18904 -0.11500
C 	C 	0.77140 0.92790 0.16650 0.34900
O 	O 	0.76050 0.93680 0.14560 -0.26100
O 	O 	0.79856 0.93125 0.17190 -0.29500
C 	C 	0.80500 0.92320 0.20170 0.26200
H 	H 	0.82100 0.91060 0.20250 -0.05700
H 	H 	0.80900 0.93980 0.21290 -0.02000
C 	C 	0.77898 0.90896 0.21168 -0.50400
H 	H 	0.77260 0.91790 0.22920 0.19200
C 	C 	0.78210 0.87885 0.21630 1.05700
H 	H 	0.76350 0.87200 0.22210 -0.30100
C 	C 	0.79020 0.86180 0.19130 -1.57100
H 	H 	0.77860 0.86690 0.17550 0.48600
H 	H 	0.78760 0.84220 0.19540 0.45300
H 	H 	0.80960 0.86520 0.18680 0.47800
C 	C 	0.80220 0.87210 0.24080 -1.53400
H 	H 	0.80290 0.85210 0.24360 0.45800
H 	H 	0.79550 0.88100 0.25760 0.49200
H 	H 	0.82070 0.87900 0.23640 0.48000
N 	N 	0.65922 0.95768 0.21880 -0.17700
C 	C 	0.64360 0.95290 0.24180 0.39100
O 	O 	0.64180 0.93210 0.25450 -0.29100
O 	O 	0.63180 0.97630 0.25170 -0.24400
C 	C 	0.64270 0.99800 0.23690 0.02600
H 	H 	0.65540 0.00860 0.24890 0.06400
H 	H 	0.62760 0.01050 0.23130 0.05500
C 	C 	0.65910 0.98800 0.21010 0.00400
H 	H 	0.67840 0.99500 0.21180 0.04900
O 	O 	0.79806 0.00268 0.19561 -0.43500
N 	N 	0.84152 0.00454 0.16666 -0.13100
C 	C 	0.82302 0.00454 0.19546 1.01500
H 	H 	0.79610 0.00170 0.17150 -0.54700
C 	C 	0.87123 0.00842 0.17604 -0.09500
H 	H 	0.88460 0.99420 0.17010 0.08300
H 	H 	0.87400 0.01480 0.19530 0.08300
C 	C 	0.72495 0.46136 0.72214 0.41700
O 	O 	0.74700 0.47050 0.71097 -0.45200
O 	O 	0.71412 0.46970 0.74444 -0.45600
C 	C 	0.71072 0.43743 0.70714 -0.20900
C 	C 	0.72619 0.41705 0.69251 0.16400
C 	C 	0.71312 0.39468 0.68021 -0.20300
H 	H 	0.72380 0.38130 0.67080 0.08700
C 	C 	0.68376 0.39161 0.68151 0.10300
C 	C 	0.66837 0.41178 0.69613 -0.21200
H 	H 	0.64890 0.41010 0.69720 0.11700
C 	C 	0.68129 0.43416 0.70901 0.17600
C 	C 	0.68096 0.35374 0.64487 -0.07700
H 	H 	0.69700 0.36130 0.63660 0.05100
C 	C 	0.66971 0.36654 0.66874 -0.00500
N 	N 	0.75857 0.41506 0.68904 -0.11500
C 	C 	0.77140 0.42790 0.66650 0.34900
O 	O 	0.76050 0.43680 0.64560 -0.26100
O 	O 	0.79856 0.43125 0.67190 -0.29500
C 	C 	0.80500 0.42320 0.70170 0.26200
H 	H 	0.82100 0.41060 0.70250 -0.05700
H 	H 	0.80900 0.43980 0.71290 -0.02000
C 	C 	0.77898 0.40896 0.71168 -0.50500
H 	H 	0.77260 0.41790 0.72920 0.19200
C 	C 	0.78210 0.37885 0.71630 1.05700
H 	H 	0.76350 0.37200 0.72210 -0.30200
C 	C 	0.79020 0.36180 0.69130 -1.57100
H 	H 	0.77860 0.36690 0.67550 0.48600
H 	H 	0.78760 0.34220 0.69540 0.45300
H 	H 	0.80960 0.36520 0.68680 0.47800
C 	C 	0.80220 0.37210 0.74080 -1.53400
H 	H 	0.80290 0.35210 0.74360 0.45800
H 	H 	0.79550 0.38100 0.75760 0.49200
H 	H 	0.82070 0.37900 0.73640 0.48000
N 	N 	0.65922 0.45768 0.71880 -0.17800
C 	C 	0.64360 0.45290 0.74180 0.39100
O 	O 	0.64180 0.43210 0.75450 -0.29100
O 	O 	0.63180 0.47630 0.75170 -0.24300
C 	C 	0.64270 0.49800 0.73690 0.01800
H 	H 	0.65540 0.50860 0.74890 0.06700
H 	H 	0.62760 0.51050 0.73130 0.05800
C 	C 	0.65910 0.48800 0.71010 0.00500
H 	H 	0.67840 0.49500 0.71180 0.04800
O 	O 	0.79806 0.50268 0.69561 -0.44700
N 	N 	0.84152 0.50454 0.66666 -0.12700
C 	C 	0.82302 0.50454 0.69546 1.00400
H 	H 	0.79610 0.50170 0.67150 -0.55200
C 	C 	0.87123 0.50842 0.67604 -0.09200
H 	H 	0.88460 0.49420 0.67010 0.08100
H 	H 	0.87400 0.51480 0.69530 0.08200
C 	C 	0.22495 0.03864 0.27786 0.41700
O 	O 	0.24700 0.02950 0.28903 -0.45300
O 	O 	0.21412 0.03030 0.25556 -0.45600
C 	C 	0.21072 0.06257 0.29286 -0.20900
C 	C 	0.22619 0.08295 0.30749 0.16400
C 	C 	0.21312 0.10532 0.31979 -0.20300
H 	H 	0.22380 0.11870 0.32920 0.08700
C 	C 	0.18376 0.10839 0.31849 0.10300
C 	C 	0.16837 0.08822 0.30387 -0.21200
H 	H 	0.14890 0.08990 0.30280 0.11700
C 	C 	0.18129 0.06584 0.29099 0.17600
C 	C 	0.18096 0.14626 0.35513 -0.07700
H 	H 	0.19700 0.13870 0.36340 0.05100
C 	C 	0.16971 0.13346 0.33126 -0.00500
N 	N 	0.25857 0.08494 0.31096 -0.11500
C 	C 	0.27140 0.07210 0.33350 0.34900
O 	O 	0.26050 0.06320 0.35440 -0.26100
O 	O 	0.29856 0.06875 0.32810 -0.29600
C 	C 	0.30500 0.07680 0.29830 0.26300
H 	H 	0.32100 0.08940 0.29750 -0.05800
H 	H 	0.30900 0.06020 0.28710 -0.02100
C 	C 	0.27898 0.09104 0.28832 -0.50500
H 	H 	0.27260 0.08210 0.27080 0.19200
C 	C 	0.28210 0.12115 0.28370 1.05700
H 	H 	0.26350 0.12800 0.27790 -0.30200
C 	C 	0.29020 0.13820 0.30870 -1.57100
H 	H 	0.27860 0.13310 0.32450 0.48600
H 	H 	0.28760 0.15780 0.30460 0.45300
H 	H 	0.30960 0.13480 0.31320 0.47800
C 	C 	0.30220 0.12790 0.25920 -1.53400
H 	H 	0.30290 0.14790 0.25640 0.45800
H 	H 	0.29550 0.11900 0.24240 0.49200
H 	H 	0.32070 0.12100 0.26360 0.48000
N 	N 	0.15922 0.04232 0.28120 -0.17800
C 	C 	0.14360 0.04710 0.25820 0.39100
O 	O 	0.14180 0.06790 0.24550 -0.29100
O 	O 	0.13180 0.02370 0.24830 -0.24200
C 	C 	0.14270 0.00200 0.26310 0.01000
H 	H 	0.15540 0.99140 0.25110 0.07000
H 	H 	0.12760 0.98950 0.26870 0.06200
C 	C 	0.15910 0.01200 0.28990 0.00700
H 	H 	0.17840 0.00500 0.28820 0.04700
O 	O 	0.29806 0.99732 0.30439 -0.45800
N 	N 	0.34152 0.99546 0.33334 -0.12300
C 	C 	0.32302 0.99546 0.30454 0.99200
H 	H 	0.29610 0.99830 0.32850 -0.55600
C 	C 	0.37123 0.99158 0.32396 -0.09000
H 	H 	0.38460 0.00580 0.32990 0.07900
H 	H 	0.37400 0.98520 0.30470 0.08200
C 	C 	0.22495 0.53864 0.77786 0.41700
O 	O 	0.24700 0.52950 0.78903 -0.45200
O 	O 	0.21412 0.53030 0.75556 -0.45600
C 	C 	0.21072 0.56257 0.79286 -0.20900
C 	C 	0.22619 0.58295 0.80749 0.16400
C 	C 	0.21312 0.60532 0.81979 -0.20300
H 	H 	0.22380 0.61870 0.82920 0.08700
C 	C 	0.18376 0.60839 0.81849 0.10300
C 	C 	0.16837 0.58822 0.80387 -0.21200
H 	H 	0.14890 0.58990 0.80280 0.11700
C 	C 	0.18129 0.56584 0.79099 0.17600
C 	C 	0.18096 0.64626 0.85513 -0.07700
H 	H 	0.19700 0.63870 0.86340 0.05100
C 	C 	0.16971 0.63346 0.83126 -0.00500
N 	N 	0.25857 0.58494 0.81096 -0.11500
C 	C 	0.27140 0.57210 0.83350 0.34900
O 	O 	0.26050 0.56320 0.85440 -0.26100
O 	O 	0.29856 0.56875 0.82810 -0.29500
C 	C 	0.30500 0.57680 0.79830 0.26200
H 	H 	0.32100 0.58940 0.79750 -0.05700
H 	H 	0.30900 0.56020 0.78710 -0.02000
C 	C 	0.27898 0.59104 0.78832 -0.50500
H 	H 	0.27260 0.58210 0.77080 0.19200
C 	C 	0.28210 0.62115 0.78370 1.05700
H 	H 	0.26350 0.62800 0.77790 -0.30200
C 	C 	0.29020 0.63820 0.80870 -1.57100
H 	H 	0.27860 0.63310 0.82450 0.48600
H 	H 	0.28760 0.65780 0.80460 0.45300
H 	H 	0.30960 0.63480 0.81320 0.47800
C 	C 	0.30220 0.62790 0.75920 -1.53400
H 	H 	0.30290 0.64790 0.75640 0.45800
H 	H 	0.29550 0.61900 0.74240 0.49200
H 	H 	0.32070 0.62100 0.76360 0.48000
N 	N 	0.15922 0.54232 0.78120 -0.17800
C 	C 	0.14360 0.54710 0.75820 0.39100
O 	O 	0.14180 0.56790 0.74550 -0.29100
O 	O 	0.13180 0.52370 0.74830 -0.24300
C 	C 	0.14270 0.50200 0.76310 0.01800
H 	H 	0.15540 0.49140 0.75110 0.06700
H 	H 	0.12760 0.48950 0.76870 0.05800
C 	C 	0.15910 0.51200 0.78990 0.00500
H 	H 	0.17840 0.50500 0.78820 0.04800
O 	O 	0.29806 0.49732 0.80439 -0.44700
N 	N 	0.34152 0.49546 0.83334 -0.12700
C 	C 	0.32302 0.49546 0.80454 1.00400
H 	H 	0.29610 0.49830 0.82850 -0.55200
C 	C 	0.37123 0.49158 0.82396 -0.09200
H 	H 	0.38460 0.50580 0.82990 0.08100
H 	H 	0.37400 0.48520 0.80470 0.08200
C 	C 	0.72495 0.03864 0.77786 0.41700
O 	O 	0.74700 0.02950 0.78903 -0.45300
O 	O 	0.71412 0.03030 0.75556 -0.45600
C 	C 	0.71072 0.06257 0.79286 -0.20900
C 	C 	0.72619 0.08295 0.80749 0.16400
C 	C 	0.71312 0.10532 0.81979 -0.20300
H 	H 	0.72380 0.11870 0.82920 0.08700
C 	C 	0.68376 0.10839 0.81849 0.10300
C 	C 	0.66837 0.08822 0.80387 -0.21200
H 	H 	0.64890 0.08990 0.80280 0.11700
C 	C 	0.68129 0.06584 0.79099 0.17600
C 	C 	0.68096 0.14626 0.85513 -0.07700
H 	H 	0.69700 0.13870 0.86340 0.05100
C 	C 	0.66971 0.13346 0.83126 -0.00500
N 	N 	0.75857 0.08494 0.81096 -0.11500
C 	C 	0.77140 0.07210 0.83350 0.34900
O 	O 	0.76050 0.06320 0.85440 -0.26100
O 	O 	0.79856 0.06875 0.82810 -0.29600
C 	C 	0.80500 0.07680 0.79830 0.26300
H 	H 	0.82100 0.08940 0.79750 -0.05700
H 	H 	0.80900 0.06020 0.78710 -0.02100
C 	C 	0.77898 0.09104 0.78832 -0.50500
H 	H 	0.77260 0.08210 0.77080 0.19200
C 	C 	0.78210 0.12115 0.78370 1.05700
H 	H 	0.76350 0.12800 0.77790 -0.30200
C 	C 	0.79020 0.13820 0.80870 -1.57100
H 	H 	0.77860 0.13310 0.82450 0.48600
H 	H 	0.78760 0.15780 0.80460 0.45300
H 	H 	0.80960 0.13480 0.81320 0.47800
C 	C 	0.80220 0.12790 0.75920 -1.53400
H 	H 	0.80290 0.14790 0.75640 0.45800
H 	H 	0.79550 0.11900 0.74240 0.49200
H 	H 	0.82070 0.12100 0.76360 0.48000
N 	N 	0.65922 0.04232 0.78120 -0.17800
C 	C 	0.64360 0.04710 0.75820 0.39100
O 	O 	0.64180 0.06790 0.74550 -0.29100
O 	O 	0.63180 0.02370 0.74830 -0.24200
C 	C 	0.64270 0.00200 0.76310 0.01000
H 	H 	0.65540 0.99140 0.75110 0.07000
H 	H 	0.62760 0.98950 0.76870 0.06200
C 	C 	0.65910 0.01200 0.78990 0.00700
H 	H 	0.67840 0.00500 0.78820 0.04700
O 	O 	0.79806 0.99732 0.80439 -0.45800
N 	N 	0.84152 0.99546 0.83334 -0.12300
C 	C 	0.82302 0.99546 0.80454 0.99200
H 	H 	0.79610 0.99830 0.82850 -0.55600
C 	C 	0.87123 0.99158 0.82396 -0.09000
H 	H 	0.88460 0.00580 0.82990 0.08000
H 	H 	0.87400 0.98520 0.80470 0.08200
C 	C 	0.72495 0.53864 0.27786 0.41700
O 	O 	0.74700 0.52950 0.28903 -0.45200
O 	O 	0.71412 0.53030 0.25556 -0.45600
C 	C 	0.71072 0.56257 0.29286 -0.20900
C 	C 	0.72619 0.58295 0.30749 0.16400
C 	C 	0.71312 0.60532 0.31979 -0.20300
H 	H 	0.72380 0.61870 0.32920 0.08700
C 	C 	0.68376 0.60839 0.31849 0.10300
C 	C 	0.66837 0.58822 0.30387 -0.21200
H 	H 	0.64890 0.58990 0.30280 0.11700
C 	C 	0.68129 0.56584 0.29099 0.17600
C 	C 	0.68096 0.64626 0.35513 -0.07700
H 	H 	0.69700 0.63870 0.36340 0.05100
C 	C 	0.66971 0.63346 0.33126 -0.00500
N 	N 	0.75857 0.58494 0.31096 -0.11500
C 	C 	0.77140 0.57210 0.33350 0.34900
O 	O 	0.76050 0.56320 0.35440 -0.26100
O 	O 	0.79856 0.56875 0.32810 -0.29500
C 	C 	0.80500 0.57680 0.29830 0.26200
H 	H 	0.82100 0.58940 0.29750 -0.05700
H 	H 	0.80900 0.56020 0.28710 -0.02000
C 	C 	0.77898 0.59104 0.28832 -0.50500
H 	H 	0.77260 0.58210 0.27080 0.19200
C 	C 	0.78210 0.62115 0.28370 1.05700
H 	H 	0.76350 0.62800 0.27790 -0.30200
C 	C 	0.79020 0.63820 0.30870 -1.57100
H 	H 	0.77860 0.63310 0.32450 0.48600
H 	H 	0.78760 0.65780 0.30460 0.45300
H 	H 	0.80960 0.63480 0.31320 0.47800
C 	C 	0.80220 0.62790 0.25920 -1.53400
H 	H 	0.80290 0.64790 0.25640 0.45800
H 	H 	0.79550 0.61900 0.24240 0.49200
H 	H 	0.82070 0.62100 0.26360 0.48000
N 	N 	0.65922 0.54232 0.28120 -0.17800
C 	C 	0.64360 0.54710 0.25820 0.39100
O 	O 	0.64180 0.56790 0.24550 -0.29100
O 	O 	0.63180 0.52370 0.24830 -0.24300
C 	C 	0.64270 0.50200 0.26310 0.01800
H 	H 	0.65540 0.49140 0.25110 0.06700
H 	H 	0.62760 0.48950 0.26870 0.05800
C 	C 	0.65910 0.51200 0.28990 0.00500
H 	H 	0.67840 0.50500 0.28820 0.04800
O 	O 	0.79806 0.49732 0.30439 -0.44700
N 	N 	0.84152 0.49546 0.33334 -0.12700
C 	C 	0.82302 0.49546 0.30454 1.00400
H 	H 	0.79610 0.49830 0.32850 -0.55200
C 	C 	0.87123 0.49158 0.32396 -0.09200
H 	H 	0.88460 0.50580 0.32990 0.08100
H 	H 	0.87400 0.48520 0.30470 0.08200
C 	C 	0.77505 0.03864 0.72214 0.41700
O 	O 	0.75300 0.02950 0.71097 -0.45300
O 	O 	0.78588 0.03030 0.74444 -0.45600
C 	C 	0.78928 0.06257 0.70714 -0.20900
C 	C 	0.77381 0.08295 0.69251 0.16400
C 	C 	0.78688 0.10532 0.68021 -0.20300
H 	H 	0.77620 0.11870 0.67080 0.08700
C 	C 	0.81624 0.10839 0.68151 0.10300
C 	C 	0.83163 0.08822 0.69613 -0.21200
H 	H 	0.85110 0.08990 0.69720 0.11700
C 	C 	0.81871 0.06584 0.70901 0.17600
C 	C 	0.81904 0.14626 0.64487 -0.07700
H 	H 	0.80300 0.13870 0.63660 0.05100
C 	C 	0.83029 0.13346 0.66874 -0.00500
N 	N 	0.74143 0.08494 0.68904 -0.11500
C 	C 	0.72860 0.07210 0.66650 0.34900
O 	O 	0.73950 0.06320 0.64560 -0.26100
O 	O 	0.70144 0.06875 0.67190 -0.29600
C 	C 	0.69500 0.07680 0.70170 0.26300
H 	H 	0.67900 0.08940 0.70250 -0.05800
H 	H 	0.69100 0.06020 0.71290 -0.02100
C 	C 	0.72102 0.09104 0.71168 -0.50500
H 	H 	0.72740 0.08210 0.72920 0.19200
C 	C 	0.71790 0.12115 0.71630 1.05700
H 	H 	0.73650 0.12800 0.72210 -0.30200
C 	C 	0.70980 0.13820 0.69130 -1.57100
H 	H 	0.72140 0.13310 0.67550 0.48600
H 	H 	0.71240 0.15780 0.69540 0.45300
H 	H 	0.69040 0.13480 0.68680 0.47800
C 	C 	0.69780 0.12790 0.74080 -1.53400
H 	H 	0.69710 0.14790 0.74360 0.45800
H 	H 	0.70450 0.11900 0.75760 0.49200
H 	H 	0.67930 0.12100 0.73640 0.48000
N 	N 	0.84078 0.04232 0.71880 -0.17800
C 	C 	0.85640 0.04710 0.74180 0.39100
O 	O 	0.85820 0.06790 0.75450 -0.29100
O 	O 	0.86820 0.02370 0.75170 -0.24200
C 	C 	0.85730 0.00200 0.73690 0.01000
H 	H 	0.84460 0.99140 0.74890 0.07100
H 	H 	0.87240 0.98950 0.73130 0.06200
C 	C 	0.84090 0.01200 0.71010 0.00700
H 	H 	0.82160 0.00500 0.71180 0.04700
O 	O 	0.70194 0.99732 0.69561 -0.45800
N 	N 	0.65848 0.99546 0.66666 -0.12300
C 	C 	0.67698 0.99546 0.69546 0.99200
H 	H 	0.70390 0.99830 0.67150 -0.55600
C 	C 	0.62877 0.99158 0.67604 -0.09000
H 	H 	0.61540 0.00580 0.67010 0.07900
H 	H 	0.62600 0.98520 0.69530 0.08200
C 	C 	0.77505 0.53864 0.22214 0.41700
O 	O 	0.75300 0.52950 0.21097 -0.45200
O 	O 	0.78588 0.53030 0.24444 -0.45600
C 	C 	0.78928 0.56257 0.20714 -0.20900
C 	C 	0.77381 0.58295 0.19251 0.16400
C 	C 	0.78688 0.60532 0.18021 -0.20300
H 	H 	0.77620 0.61870 0.17080 0.08700
C 	C 	0.81624 0.60839 0.18151 0.10300
C 	C 	0.83163 0.58822 0.19613 -0.21200
H 	H 	0.85110 0.58990 0.19720 0.11700
C 	C 	0.81871 0.56584 0.20901 0.17600
C 	C 	0.81904 0.64626 0.14487 -0.07700
H 	H 	0.80300 0.63870 0.13660 0.05100
C 	C 	0.83029 0.63346 0.16874 -0.00500
N 	N 	0.74143 0.58494 0.18904 -0.11500
C 	C 	0.72860 0.57210 0.16650 0.34900
O 	O 	0.73950 0.56320 0.14560 -0.26100
O 	O 	0.70144 0.56875 0.17190 -0.29500
C 	C 	0.69500 0.57680 0.20170 0.26200
H 	H 	0.67900 0.58940 0.20250 -0.05700
H 	H 	0.69100 0.56020 0.21290 -0.02000
C 	C 	0.72102 0.59104 0.21168 -0.50500
H 	H 	0.72740 0.58210 0.22920 0.19200
C 	C 	0.71790 0.62115 0.21630 1.05700
H 	H 	0.73650 0.62800 0.22210 -0.30200
C 	C 	0.70980 0.63820 0.19130 -1.57100
H 	H 	0.72140 0.63310 0.17550 0.48600
H 	H 	0.71240 0.65780 0.19540 0.45300
H 	H 	0.69040 0.63480 0.18680 0.47800
C 	C 	0.69780 0.62790 0.24080 -1.53400
H 	H 	0.69710 0.64790 0.24360 0.45800
H 	H 	0.70450 0.61900 0.25760 0.49200
H 	H 	0.67930 0.62100 0.23640 0.48000
N 	N 	0.84078 0.54232 0.21880 -0.17800
C 	C 	0.85640 0.54710 0.24180 0.39100
O 	O 	0.85820 0.56790 0.25450 -0.29100
O 	O 	0.86820 0.52370 0.25170 -0.24300
C 	C 	0.85730 0.50200 0.23690 0.01800
H 	H 	0.84460 0.49140 0.24890 0.06700
H 	H 	0.87240 0.48950 0.23130 0.05800
C 	C 	0.84090 0.51200 0.21010 0.00500
H 	H 	0.82160 0.50500 0.21180 0.04800
O 	O 	0.70194 0.49732 0.19561 -0.44700
N 	N 	0.65848 0.49546 0.16666 -0.12700
C 	C 	0.67698 0.49546 0.19546 1.00400
H 	H 	0.70390 0.49830 0.17150 -0.55200
C 	C 	0.62877 0.49158 0.17604 -0.09200
H 	H 	0.61540 0.50580 0.17010 0.08100
H 	H 	0.62600 0.48520 0.19530 0.08200
C 	C 	0.27505 0.03864 0.22214 0.41700
O 	O 	0.25300 0.02950 0.21097 -0.45300
O 	O 	0.28588 0.03030 0.24444 -0.45600
C 	C 	0.28928 0.06257 0.20714 -0.20900
C 	C 	0.27381 0.08295 0.19251 0.16400
C 	C 	0.28688 0.10532 0.18021 -0.20300
H 	H 	0.27620 0.11870 0.17080 0.08700
C 	C 	0.31624 0.10839 0.18151 0.10300
C 	C 	0.33163 0.08822 0.19613 -0.21200
H 	H 	0.35110 0.08990 0.19720 0.11700
C 	C 	0.31871 0.06584 0.20901 0.17600
C 	C 	0.31904 0.14626 0.14487 -0.07700
H 	H 	0.30300 0.13870 0.13660 0.05100
C 	C 	0.33029 0.13346 0.16874 -0.00500
N 	N 	0.24143 0.08494 0.18904 -0.11500
C 	C 	0.22860 0.07210 0.16650 0.34900
O 	O 	0.23950 0.06320 0.14560 -0.26100
O 	O 	0.20144 0.06875 0.17190 -0.29600
C 	C 	0.19500 0.07680 0.20170 0.26300
H 	H 	0.17900 0.08940 0.20250 -0.05800
H 	H 	0.19100 0.06020 0.21290 -0.02100
C 	C 	0.22102 0.09104 0.21168 -0.50500
H 	H 	0.22740 0.08210 0.22920 0.19200
C 	C 	0.21790 0.12115 0.21630 1.05700
H 	H 	0.23650 0.12800 0.22210 -0.30200
C 	C 	0.20980 0.13820 0.19130 -1.57100
H 	H 	0.22140 0.13310 0.17550 0.48600
H 	H 	0.21240 0.15780 0.19540 0.45300
H 	H 	0.19040 0.13480 0.18680 0.47800
C 	C 	0.19780 0.12790 0.24080 -1.53400
H 	H 	0.19710 0.14790 0.24360 0.45800
H 	H 	0.20450 0.11900 0.25760 0.49200
H 	H 	0.17930 0.12100 0.23640 0.48000
N 	N 	0.34078 0.04232 0.21880 -0.17800
C 	C 	0.35640 0.04710 0.24180 0.39100
O 	O 	0.35820 0.06790 0.25450 -0.29100
O 	O 	0.36820 0.02370 0.25170 -0.24200
C 	C 	0.35730 0.00200 0.23690 0.01000
H 	H 	0.34460 0.99140 0.24890 0.07000
H 	H 	0.37240 0.98950 0.23130 0.06200
C 	C 	0.34090 0.01200 0.21010 0.00700
H 	H 	0.32160 0.00500 0.21180 0.04700
O 	O 	0.20194 0.99732 0.19561 -0.45800
N 	N 	0.15848 0.99546 0.16666 -0.12300
C 	C 	0.17698 0.99546 0.19546 0.99200
H 	H 	0.20390 0.99830 0.17150 -0.55600
C 	C 	0.12877 0.99158 0.17604 -0.09000
H 	H 	0.11540 0.00580 0.17010 0.07900
H 	H 	0.12600 0.98520 0.19530 0.08200
C 	C 	0.27505 0.53864 0.72214 0.41700
O 	O 	0.25300 0.52950 0.71097 -0.45200
O 	O 	0.28588 0.53030 0.74444 -0.45600
C 	C 	0.28928 0.56257 0.70714 -0.20900
C 	C 	0.27381 0.58295 0.69251 0.16400
C 	C 	0.28688 0.60532 0.68021 -0.20300
H 	H 	0.27620 0.61870 0.67080 0.08700
C 	C 	0.31624 0.60839 0.68151 0.10300
C 	C 	0.33163 0.58822 0.69613 -0.21200
H 	H 	0.35110 0.58990 0.69720 0.11700
C 	C 	0.31871 0.56584 0.70901 0.17600
C 	C 	0.31904 0.64626 0.64487 -0.07700
H 	H 	0.30300 0.63870 0.63660 0.05100
C 	C 	0.33029 0.63346 0.66874 -0.00500
N 	N 	0.24143 0.58494 0.68904 -0.11500
C 	C 	0.22860 0.57210 0.66650 0.34900
O 	O 	0.23950 0.56320 0.64560 -0.26100
O 	O 	0.20144 0.56875 0.67190 -0.29500
C 	C 	0.19500 0.57680 0.70170 0.26200
H 	H 	0.17900 0.58940 0.70250 -0.05700
H 	H 	0.19100 0.56020 0.71290 -0.02000
C 	C 	0.22102 0.59104 0.71168 -0.50500
H 	H 	0.22740 0.58210 0.72920 0.19200
C 	C 	0.21790 0.62115 0.71630 1.05700
H 	H 	0.23650 0.62800 0.72210 -0.30200
C 	C 	0.20980 0.63820 0.69130 -1.57100
H 	H 	0.22140 0.63310 0.67550 0.48600
H 	H 	0.21240 0.65780 0.69540 0.45300
H 	H 	0.19040 0.63480 0.68680 0.47800
C 	C 	0.19780 0.62790 0.74080 -1.53400
H 	H 	0.19710 0.64790 0.74360 0.45800
H 	H 	0.20450 0.61900 0.75760 0.49200
H 	H 	0.17930 0.62100 0.73640 0.48000
N 	N 	0.34078 0.54232 0.71880 -0.17800
C 	C 	0.35640 0.54710 0.74180 0.39100
O 	O 	0.35820 0.56790 0.75450 -0.29100
O 	O 	0.36820 0.52370 0.75170 -0.24300
C 	C 	0.35730 0.50200 0.73690 0.01800
H 	H 	0.34460 0.49140 0.74890 0.06700
H 	H 	0.37240 0.48950 0.73130 0.05800
C 	C 	0.34090 0.51200 0.71010 0.00500
H 	H 	0.32160 0.50500 0.71180 0.04800
O 	O 	0.20194 0.49732 0.69561 -0.44700
N 	N 	0.15848 0.49546 0.66666 -0.12700
C 	C 	0.17698 0.49546 0.69546 1.00400
H 	H 	0.20390 0.49830 0.67150 -0.55200
C 	C 	0.12877 0.49158 0.67604 -0.09200
H 	H 	0.11540 0.50580 0.67010 0.08100
H 	H 	0.12600 0.48520 0.69530 0.08200
C 	C 	0.77505 0.96136 0.27786 0.41700
O 	O 	0.75300 0.97050 0.28903 -0.45200
O 	O 	0.78588 0.96970 0.25556 -0.45500
C 	C 	0.78928 0.93743 0.29286 -0.20800
C 	C 	0.77381 0.91705 0.30749 0.16400
C 	C 	0.78688 0.89468 0.31979 -0.20300
H 	H 	0.77620 0.88130 0.32920 0.08700
C 	C 	0.81624 0.89161 0.31849 0.10300
C 	C 	0.83163 0.91178 0.30387 -0.21200
H 	H 	0.85110 0.91010 0.30280 0.11700
C 	C 	0.81871 0.93416 0.29099 0.17600
C 	C 	0.81904 0.85374 0.35513 -0.07700
H 	H 	0.80300 0.86130 0.36340 0.05100
C 	C 	0.83029 0.86654 0.33126 -0.00500
N 	N 	0.74143 0.91506 0.31096 -0.11500
C 	C 	0.72860 0.92790 0.33350 0.34900
O 	O 	0.73950 0.93680 0.35440 -0.26100
O 	O 	0.70144 0.93125 0.32810 -0.29500
C 	C 	0.69500 0.92320 0.29830 0.26200
H 	H 	0.67900 0.91060 0.29750 -0.05700
H 	H 	0.69100 0.93980 0.28710 -0.02000
C 	C 	0.72102 0.90896 0.28832 -0.50400
H 	H 	0.72740 0.91790 0.27080 0.19200
C 	C 	0.71790 0.87885 0.28370 1.05700
H 	H 	0.73650 0.87200 0.27790 -0.30100
C 	C 	0.70980 0.86180 0.30870 -1.57100
H 	H 	0.72140 0.86690 0.32450 0.48600
H 	H 	0.71240 0.84220 0.30460 0.45300
H 	H 	0.69040 0.86520 0.31320 0.47800
C 	C 	0.69780 0.87210 0.25920 -1.53400
H 	H 	0.69710 0.85210 0.25640 0.45800
H 	H 	0.70450 0.88100 0.24240 0.49200
H 	H 	0.67930 0.87900 0.26360 0.48000
N 	N 	0.84078 0.95768 0.28120 -0.17700
C 	C 	0.85640 0.95290 0.25820 0.39100
O 	O 	0.85820 0.93210 0.24550 -0.29100
O 	O 	0.86820 0.97630 0.24830 -0.24400
C 	C 	0.85730 0.99800 0.26310 0.02600
H 	H 	0.84460 0.00860 0.25110 0.06400
H 	H 	0.87240 0.01050 0.26870 0.05500
C 	C 	0.84090 0.98800 0.28990 0.00400
H 	H 	0.82160 0.99500 0.28820 0.04900
O 	O 	0.70194 0.00268 0.30439 -0.43500
N 	N 	0.65848 0.00454 0.33334 -0.13100
C 	C 	0.67698 0.00454 0.30454 1.01500
H 	H 	0.70390 0.00170 0.32850 -0.54700
C 	C 	0.62877 0.00842 0.32396 -0.09500
H 	H 	0.61540 0.99420 0.32990 0.08300
H 	H 	0.62600 0.01480 0.30470 0.08300
C 	C 	0.77505 0.46136 0.77786 0.41700
O 	O 	0.75300 0.47050 0.78903 -0.45200
O 	O 	0.78588 0.46970 0.75556 -0.45600
C 	C 	0.78928 0.43743 0.79286 -0.20900
C 	C 	0.77381 0.41705 0.80749 0.16400
C 	C 	0.78688 0.39468 0.81979 -0.20300
H 	H 	0.77620 0.38130 0.82920 0.08700
C 	C 	0.81624 0.39161 0.81849 0.10300
C 	C 	0.83163 0.41178 0.80387 -0.21200
H 	H 	0.85110 0.41010 0.80280 0.11700
C 	C 	0.81871 0.43416 0.79099 0.17600
C 	C 	0.81904 0.35374 0.85513 -0.07700
H 	H 	0.80300 0.36130 0.86340 0.05100
C 	C 	0.83029 0.36654 0.83126 -0.00500
N 	N 	0.74143 0.41506 0.81096 -0.11500
C 	C 	0.72860 0.42790 0.83350 0.34900
O 	O 	0.73950 0.43680 0.85440 -0.26100
O 	O 	0.70144 0.43125 0.82810 -0.29500
C 	C 	0.69500 0.42320 0.79830 0.26200
H 	H 	0.67900 0.41060 0.79750 -0.05700
H 	H 	0.69100 0.43980 0.78710 -0.02000
C 	C 	0.72102 0.40896 0.78832 -0.50500
H 	H 	0.72740 0.41790 0.77080 0.19200
C 	C 	0.71790 0.37885 0.78370 1.05700
H 	H 	0.73650 0.37200 0.77790 -0.30200
C 	C 	0.70980 0.36180 0.80870 -1.57100
H 	H 	0.72140 0.36690 0.82450 0.48600
H 	H 	0.71240 0.34220 0.80460 0.45300
H 	H 	0.69040 0.36520 0.81320 0.47800
C 	C 	0.69780 0.37210 0.75920 -1.53400
H 	H 	0.69710 0.35210 0.75640 0.45800
H 	H 	0.70450 0.38100 0.74240 0.49200
H 	H 	0.67930 0.37900 0.76360 0.48000
N 	N 	0.84078 0.45768 0.78120 -0.17800
C 	C 	0.85640 0.45290 0.75820 0.39100
O 	O 	0.85820 0.43210 0.74550 -0.29100
O 	O 	0.86820 0.47630 0.74830 -0.24300
C 	C 	0.85730 0.49800 0.76310 0.01800
H 	H 	0.84460 0.50860 0.75110 0.06700
H 	H 	0.87240 0.51050 0.76870 0.05900
C 	C 	0.84090 0.48800 0.78990 0.00500
H 	H 	0.82160 0.49500 0.78820 0.04800
O 	O 	0.70194 0.50268 0.80439 -0.44700
N 	N 	0.65848 0.50454 0.83334 -0.12700
C 	C 	0.67698 0.50454 0.80454 1.00400
H 	H 	0.70390 0.50170 0.82850 -0.55200
C 	C 	0.62877 0.50842 0.82396 -0.09200
H 	H 	0.61540 0.49420 0.82990 0.08100
H 	H 	0.62600 0.51480 0.80470 0.08200
C 	C 	0.27505 0.96136 0.77786 0.41700
O 	O 	0.25300 0.97050 0.78903 -0.45200
O 	O 	0.28588 0.96970 0.75556 -0.45500
C 	C 	0.28928 0.93743 0.79286 -0.20800
C 	C 	0.27381 0.91705 0.80749 0.16400
C 	C 	0.28688 0.89468 0.81979 -0.20300
H 	H 	0.27620 0.88130 0.82920 0.08700
C 	C 	0.31624 0.89161 0.81849 0.10300
C 	C 	0.33163 0.91178 0.80387 -0.21200
H 	H 	0.35110 0.91010 0.80280 0.11700
C 	C 	0.31871 0.93416 0.79099 0.17600
C 	C 	0.31904 0.85374 0.85513 -0.07700
H 	H 	0.30300 0.86130 0.86340 0.05100
C 	C 	0.33029 0.86654 0.83126 -0.00500
N 	N 	0.24143 0.91506 0.81096 -0.11500
C 	C 	0.22860 0.92790 0.83350 0.34900
O 	O 	0.23950 0.93680 0.85440 -0.26000
O 	O 	0.20144 0.93125 0.82810 -0.29500
C 	C 	0.19500 0.92320 0.79830 0.26200
H 	H 	0.17900 0.91060 0.79750 -0.05700
H 	H 	0.19100 0.93980 0.78710 -0.02000
C 	C 	0.22102 0.90896 0.78832 -0.50500
H 	H 	0.22740 0.91790 0.77080 0.19200
C 	C 	0.21790 0.87885 0.78370 1.05700
H 	H 	0.23650 0.87200 0.77790 -0.30100
C 	C 	0.20980 0.86180 0.80870 -1.57100
H 	H 	0.22140 0.86690 0.82450 0.48600
H 	H 	0.21240 0.84220 0.80460 0.45300
H 	H 	0.19040 0.86520 0.81320 0.47800
C 	C 	0.19780 0.87210 0.75920 -1.53400
H 	H 	0.19710 0.85210 0.75640 0.45800
H 	H 	0.20450 0.88100 0.74240 0.49200
H 	H 	0.17930 0.87900 0.76360 0.48000
N 	N 	0.34078 0.95768 0.78120 -0.17700
C 	C 	0.35640 0.95290 0.75820 0.39100
O 	O 	0.35820 0.93210 0.74550 -0.29100
O 	O 	0.36820 0.97630 0.74830 -0.24400
C 	C 	0.35730 0.99800 0.76310 0.02600
H 	H 	0.34460 0.00860 0.75110 0.06400
H 	H 	0.37240 0.01050 0.76870 0.05500
C 	C 	0.34090 0.98800 0.78990 0.00400
H 	H 	0.32160 0.99500 0.78820 0.04900
O 	O 	0.20194 0.00268 0.80439 -0.43500
N 	N 	0.15848 0.00454 0.83334 -0.13100
C 	C 	0.17698 0.00454 0.80454 1.01500
H 	H 	0.20390 0.00170 0.82850 -0.54700
C 	C 	0.12877 0.00842 0.82396 -0.09500
H 	H 	0.11540 0.99420 0.82990 0.08300
H 	H 	0.12600 0.01480 0.80470 0.08300
C 	C 	0.27505 0.46136 0.27786 0.41700
O 	O 	0.25300 0.47050 0.28903 -0.45200
O 	O 	0.28588 0.46970 0.25556 -0.45600
C 	C 	0.28928 0.43743 0.29286 -0.20900
C 	C 	0.27381 0.41705 0.30749 0.16400
C 	C 	0.28688 0.39468 0.31979 -0.20300
H 	H 	0.27620 0.38130 0.32920 0.08700
C 	C 	0.31624 0.39161 0.31849 0.10300
C 	C 	0.33163 0.41178 0.30387 -0.21200
H 	H 	0.35110 0.41010 0.30280 0.11700
C 	C 	0.31871 0.43416 0.29099 0.17600
C 	C 	0.31904 0.35374 0.35513 -0.07700
H 	H 	0.30300 0.36130 0.36340 0.05100
C 	C 	0.33029 0.36654 0.33126 -0.00500
N 	N 	0.24143 0.41506 0.31096 -0.11500
C 	C 	0.22860 0.42790 0.33350 0.34900
O 	O 	0.23950 0.43680 0.35440 -0.26100
O 	O 	0.20144 0.43125 0.32810 -0.29500
C 	C 	0.19500 0.42320 0.29830 0.26200
H 	H 	0.17900 0.41060 0.29750 -0.05700
H 	H 	0.19100 0.43980 0.28710 -0.02000
C 	C 	0.22102 0.40896 0.28832 -0.50500
H 	H 	0.22740 0.41790 0.27080 0.19200
C 	C 	0.21790 0.37885 0.28370 1.05700
H 	H 	0.23650 0.37200 0.27790 -0.30200
C 	C 	0.20980 0.36180 0.30870 -1.57100
H 	H 	0.22140 0.36690 0.32450 0.48600
H 	H 	0.21240 0.34220 0.30460 0.45300
H 	H 	0.19040 0.36520 0.31320 0.47800
C 	C 	0.19780 0.37210 0.25920 -1.53400
H 	H 	0.19710 0.35210 0.25640 0.45800
H 	H 	0.20450 0.38100 0.24240 0.49200
H 	H 	0.17930 0.37900 0.26360 0.48000
N 	N 	0.34078 0.45768 0.28120 -0.17800
C 	C 	0.35640 0.45290 0.25820 0.39100
O 	O 	0.35820 0.43210 0.24550 -0.29100
O 	O 	0.36820 0.47630 0.24830 -0.24300
C 	C 	0.35730 0.49800 0.26310 0.01800
H 	H 	0.34460 0.50860 0.25110 0.06700
H 	H 	0.37240 0.51050 0.26870 0.05800
C 	C 	0.34090 0.48800 0.28990 0.00500
H 	H 	0.32160 0.49500 0.28820 0.04800
O 	O 	0.20194 0.50268 0.30439 -0.44700
N 	N 	0.15848 0.50454 0.33334 -0.12700
C 	C 	0.17698 0.50454 0.30454 1.00400
H 	H 	0.20390 0.50170 0.32850 -0.55200
C 	C 	0.12877 0.50842 0.32396 -0.09200
H 	H 	0.11540 0.49420 0.32990 0.08100
H 	H 	0.12600 0.51480 0.30470 0.08200
C 	C 	0.72214 0.22495 0.96136 0.41700
O 	O 	0.71097 0.24700 0.97050 -0.45200
O 	O 	0.74444 0.21412 0.96970 -0.45500
C 	C 	0.70714 0.21072 0.93743 -0.20800
C 	C 	0.69251 0.22619 0.91705 0.16400
C 	C 	0.68021 0.21312 0.89468 -0.20300
H 	H 	0.67080 0.22380 0.88130 0.08700
C 	C 	0.68151 0.18376 0.89161 0.10300
C 	C 	0.69613 0.16837 0.91178 -0.21200
H 	H 	0.69720 0.14890 0.91010 0.11700
C 	C 	0.70901 0.18129 0.93416 0.17600
C 	C 	0.64487 0.18096 0.85374 -0.07700
H 	H 	0.63660 0.19700 0.86130 0.05100
C 	C 	0.66874 0.16971 0.86654 -0.00500
N 	N 	0.68904 0.25857 0.91506 -0.11500
C 	C 	0.66650 0.27140 0.92790 0.34900
O 	O 	0.64560 0.26050 0.93680 -0.26100
O 	O 	0.67190 0.29856 0.93125 -0.29500
C 	C 	0.70170 0.30500 0.92320 0.26200
H 	H 	0.70250 0.32100 0.91060 -0.05700
H 	H 	0.71290 0.30900 0.93980 -0.02000
C 	C 	0.71168 0.27898 0.90896 -0.50400
H 	H 	0.72920 0.27260 0.91790 0.19200
C 	C 	0.71630 0.28210 0.87885 1.05700
H 	H 	0.72210 0.26350 0.87200 -0.30100
C 	C 	0.69130 0.29020 0.86180 -1.57100
H 	H 	0.67550 0.27860 0.86690 0.48600
H 	H 	0.69540 0.28760 0.84220 0.45300
H 	H 	0.68680 0.30960 0.86520 0.47800
C 	C 	0.74080 0.30220 0.87210 -1.53400
H 	H 	0.74360 0.30290 0.85210 0.45800
H 	H 	0.75760 0.29550 0.88100 0.49200
H 	H 	0.73640 0.32070 0.87900 0.48000
N 	N 	0.71880 0.15922 0.95768 -0.17700
C 	C 	0.74180 0.14360 0.95290 0.39100
O 	O 	0.75450 0.14180 0.93210 -0.29100
O 	O 	0.75170 0.13180 0.97630 -0.24400
C 	C 	0.73690 0.14270 0.99800 0.02600
H 	H 	0.74890 0.15540 0.00860 0.06400
H 	H 	0.73130 0.12760 0.01050 0.05500
C 	C 	0.71010 0.15910 0.98800 0.00400
H 	H 	0.71180 0.17840 0.99500 0.04900
O 	O 	0.69561 0.29806 0.00268 -0.43500
N 	N 	0.66666 0.34152 0.00454 -0.13100
C 	C 	0.69546 0.32302 0.00454 1.01500
H 	H 	0.67150 0.29610 0.00170 -0.54700
C 	C 	0.67604 0.37123 0.00842 -0.09500
H 	H 	0.67010 0.38460 0.99420 0.08300
H 	H 	0.69530 0.37400 0.01480 0.08300
C 	C 	0.72214 0.72495 0.46136 0.41700
O 	O 	0.71097 0.74700 0.47050 -0.45200
O 	O 	0.74444 0.71412 0.46970 -0.45600
C 	C 	0.70714 0.71072 0.43743 -0.20900
C 	C 	0.69251 0.72619 0.41705 0.16400
C 	C 	0.68021 0.71312 0.39468 -0.20300
H 	H 	0.67080 0.72380 0.38130 0.08700
C 	C 	0.68151 0.68376 0.39161 0.10300
C 	C 	0.69613 0.66837 0.41178 -0.21200
H 	H 	0.69720 0.64890 0.41010 0.11700
C 	C 	0.70901 0.68129 0.43416 0.17600
C 	C 	0.64487 0.68096 0.35374 -0.07700
H 	H 	0.63660 0.69700 0.36130 0.05100
C 	C 	0.66874 0.66971 0.36654 -0.00500
N 	N 	0.68904 0.75857 0.41506 -0.11500
C 	C 	0.66650 0.77140 0.42790 0.34900
O 	O 	0.64560 0.76050 0.43680 -0.26100
O 	O 	0.67190 0.79856 0.43125 -0.29500
C 	C 	0.70170 0.80500 0.42320 0.26200
H 	H 	0.70250 0.82100 0.41060 -0.05700
H 	H 	0.71290 0.80900 0.43980 -0.02000
C 	C 	0.71168 0.77898 0.40896 -0.50500
H 	H 	0.72920 0.77260 0.41790 0.19200
C 	C 	0.71630 0.78210 0.37885 1.05700
H 	H 	0.72210 0.76350 0.37200 -0.30200
C 	C 	0.69130 0.79020 0.36180 -1.57100
H 	H 	0.67550 0.77860 0.36690 0.48600
H 	H 	0.69540 0.78760 0.34220 0.45300
H 	H 	0.68680 0.80960 0.36520 0.47800
C 	C 	0.74080 0.80220 0.37210 -1.53400
H 	H 	0.74360 0.80290 0.35210 0.45800
H 	H 	0.75760 0.79550 0.38100 0.49200
H 	H 	0.73640 0.82070 0.37900 0.48000
N 	N 	0.71880 0.65922 0.45768 -0.17800
C 	C 	0.74180 0.64360 0.45290 0.39100
O 	O 	0.75450 0.64180 0.43210 -0.29100
O 	O 	0.75170 0.63180 0.47630 -0.24300
C 	C 	0.73690 0.64270 0.49800 0.01800
H 	H 	0.74890 0.65540 0.50860 0.06700
H 	H 	0.73130 0.62760 0.51050 0.05800
C 	C 	0.71010 0.65910 0.48800 0.00500
H 	H 	0.71180 0.67840 0.49500 0.04800
O 	O 	0.69561 0.79806 0.50268 -0.44700
N 	N 	0.66666 0.84152 0.50454 -0.12700
C 	C 	0.69546 0.82302 0.50454 1.00400
H 	H 	0.67150 0.79610 0.50170 -0.55200
C 	C 	0.67604 0.87123 0.50842 -0.09200
H 	H 	0.67010 0.88460 0.49420 0.08100
H 	H 	0.69530 0.87400 0.51480 0.08200
C 	C 	0.22214 0.22495 0.46136 0.41700
O 	O 	0.21097 0.24700 0.47050 -0.45200
O 	O 	0.24444 0.21412 0.46970 -0.45600
C 	C 	0.20714 0.21072 0.43743 -0.20900
C 	C 	0.19251 0.22619 0.41705 0.16400
C 	C 	0.18021 0.21312 0.39468 -0.20300
H 	H 	0.17080 0.22380 0.38130 0.08700
C 	C 	0.18151 0.18376 0.39161 0.10300
C 	C 	0.19613 0.16837 0.41178 -0.21200
H 	H 	0.19720 0.14890 0.41010 0.11700
C 	C 	0.20901 0.18129 0.43416 0.17600
C 	C 	0.14487 0.18096 0.35374 -0.07700
H 	H 	0.13660 0.19700 0.36130 0.05100
C 	C 	0.16874 0.16971 0.36654 -0.00500
N 	N 	0.18904 0.25857 0.41506 -0.11500
C 	C 	0.16650 0.27140 0.42790 0.34900
O 	O 	0.14560 0.26050 0.43680 -0.26100
O 	O 	0.17190 0.29856 0.43125 -0.29500
C 	C 	0.20170 0.30500 0.42320 0.26200
H 	H 	0.20250 0.32100 0.41060 -0.05700
H 	H 	0.21290 0.30900 0.43980 -0.02000
C 	C 	0.21168 0.27898 0.40896 -0.50500
H 	H 	0.22920 0.27260 0.41790 0.19200
C 	C 	0.21630 0.28210 0.37885 1.05700
H 	H 	0.22210 0.26350 0.37200 -0.30200
C 	C 	0.19130 0.29020 0.36180 -1.57100
H 	H 	0.17550 0.27860 0.36690 0.48600
H 	H 	0.19540 0.28760 0.34220 0.45300
H 	H 	0.18680 0.30960 0.36520 0.47800
C 	C 	0.24080 0.30220 0.37210 -1.53400
H 	H 	0.24360 0.30290 0.35210 0.45800
H 	H 	0.25760 0.29550 0.38100 0.49200
H 	H 	0.23640 0.32070 0.37900 0.48000
N 	N 	0.21880 0.15922 0.45768 -0.17800
C 	C 	0.24180 0.14360 0.45290 0.39100
O 	O 	0.25450 0.14180 0.43210 -0.29100
O 	O 	0.25170 0.13180 0.47630 -0.24300
C 	C 	0.23690 0.14270 0.49800 0.01800
H 	H 	0.24890 0.15540 0.50860 0.06700
H 	H 	0.23130 0.12760 0.51050 0.05800
C 	C 	0.21010 0.15910 0.48800 0.00500
H 	H 	0.21180 0.17840 0.49500 0.04800
O 	O 	0.19561 0.29806 0.50268 -0.44700
N 	N 	0.16666 0.34152 0.50454 -0.12700
C 	C 	0.19546 0.32302 0.50454 1.00400
H 	H 	0.17150 0.29610 0.50170 -0.55200
C 	C 	0.17604 0.37123 0.50842 -0.09200
H 	H 	0.17010 0.38460 0.49420 0.08100
H 	H 	0.19530 0.37400 0.51480 0.08200
C 	C 	0.22214 0.72495 0.96136 0.41700
O 	O 	0.21097 0.74700 0.97050 -0.45200
O 	O 	0.24444 0.71412 0.96970 -0.45500
C 	C 	0.20714 0.71072 0.93743 -0.20800
C 	C 	0.19251 0.72619 0.91705 0.16400
C 	C 	0.18021 0.71312 0.89468 -0.20300
H 	H 	0.17080 0.72380 0.88130 0.08700
C 	C 	0.18151 0.68376 0.89161 0.10300
C 	C 	0.19613 0.66837 0.91178 -0.21200
H 	H 	0.19720 0.64890 0.91010 0.11700
C 	C 	0.20901 0.68129 0.93416 0.17600
C 	C 	0.14487 0.68096 0.85374 -0.07700
H 	H 	0.13660 0.69700 0.86130 0.05100
C 	C 	0.16874 0.66971 0.86654 -0.00500
N 	N 	0.18904 0.75857 0.91506 -0.11500
C 	C 	0.16650 0.77140 0.92790 0.34900
O 	O 	0.14560 0.76050 0.93680 -0.26100
O 	O 	0.17190 0.79856 0.93125 -0.29500
C 	C 	0.20170 0.80500 0.92320 0.26200
H 	H 	0.20250 0.82100 0.91060 -0.05700
H 	H 	0.21290 0.80900 0.93980 -0.02000
C 	C 	0.21168 0.77898 0.90896 -0.50400
H 	H 	0.22920 0.77260 0.91790 0.19200
C 	C 	0.21630 0.78210 0.87885 1.05700
H 	H 	0.22210 0.76350 0.87200 -0.30100
C 	C 	0.19130 0.79020 0.86180 -1.57100
H 	H 	0.17550 0.77860 0.86690 0.48600
H 	H 	0.19540 0.78760 0.84220 0.45300
H 	H 	0.18680 0.80960 0.86520 0.47800
C 	C 	0.24080 0.80220 0.87210 -1.53400
H 	H 	0.24360 0.80290 0.85210 0.45800
H 	H 	0.25760 0.79550 0.88100 0.49200
H 	H 	0.23640 0.82070 0.87900 0.48000
N 	N 	0.21880 0.65922 0.95768 -0.17700
C 	C 	0.24180 0.64360 0.95290 0.39100
O 	O 	0.25450 0.64180 0.93210 -0.29100
O 	O 	0.25170 0.63180 0.97630 -0.24400
C 	C 	0.23690 0.64270 0.99800 0.02600
H 	H 	0.24890 0.65540 0.00860 0.06400
H 	H 	0.23130 0.62760 0.01050 0.05500
C 	C 	0.21010 0.65910 0.98800 0.00400
H 	H 	0.21180 0.67840 0.99500 0.04900
O 	O 	0.19561 0.79806 0.00268 -0.43500
N 	N 	0.16666 0.84152 0.00454 -0.13100
C 	C 	0.19546 0.82302 0.00454 1.01500
H 	H 	0.17150 0.79610 0.00170 -0.54700
C 	C 	0.17604 0.87123 0.00842 -0.09500
H 	H 	0.17010 0.88460 0.99420 0.08300
H 	H 	0.19530 0.87400 0.01480 0.08300
C 	C 	0.27786 0.22495 0.03864 0.41700
O 	O 	0.28903 0.24700 0.02950 -0.45300
O 	O 	0.25556 0.21412 0.03030 -0.45600
C 	C 	0.29286 0.21072 0.06257 -0.20900
C 	C 	0.30749 0.22619 0.08295 0.16400
C 	C 	0.31979 0.21312 0.10532 -0.20300
H 	H 	0.32920 0.22380 0.11870 0.08700
C 	C 	0.31849 0.18376 0.10839 0.10300
C 	C 	0.30387 0.16837 0.08822 -0.21200
H 	H 	0.30280 0.14890 0.08990 0.11700
C 	C 	0.29099 0.18129 0.06584 0.17600
C 	C 	0.35513 0.18096 0.14626 -0.07700
H 	H 	0.36340 0.19700 0.13870 0.05100
C 	C 	0.33126 0.16971 0.13346 -0.00500
N 	N 	0.31096 0.25857 0.08494 -0.11500
C 	C 	0.33350 0.27140 0.07210 0.34900
O 	O 	0.35440 0.26050 0.06320 -0.26100
O 	O 	0.32810 0.29856 0.06875 -0.29600
C 	C 	0.29830 0.30500 0.07680 0.26300
H 	H 	0.29750 0.32100 0.08940 -0.05800
H 	H 	0.28710 0.30900 0.06020 -0.02100
C 	C 	0.28832 0.27898 0.09104 -0.50500
H 	H 	0.27080 0.27260 0.08210 0.19200
C 	C 	0.28370 0.28210 0.12115 1.05700
H 	H 	0.27790 0.26350 0.12800 -0.30200
C 	C 	0.30870 0.29020 0.13820 -1.57100
H 	H 	0.32450 0.27860 0.13310 0.48600
H 	H 	0.30460 0.28760 0.15780 0.45300
H 	H 	0.31320 0.30960 0.13480 0.47800
C 	C 	0.25920 0.30220 0.12790 -1.53400
H 	H 	0.25640 0.30290 0.14790 0.45800
H 	H 	0.24240 0.29550 0.11900 0.49200
H 	H 	0.26360 0.32070 0.12100 0.48000
N 	N 	0.28120 0.15922 0.04232 -0.17800
C 	C 	0.25820 0.14360 0.04710 0.39100
O 	O 	0.24550 0.14180 0.06790 -0.29100
O 	O 	0.24830 0.13180 0.02370 -0.24200
C 	C 	0.26310 0.14270 0.00200 0.01000
H 	H 	0.25110 0.15540 0.99140 0.07000
H 	H 	0.26870 0.12760 0.98950 0.06200
C 	C 	0.28990 0.15910 0.01200 0.00700
H 	H 	0.28820 0.17840 0.00500 0.04700
O 	O 	0.30439 0.29806 0.99732 -0.45800
N 	N 	0.33334 0.34152 0.99546 -0.12300
C 	C 	0.30454 0.32302 0.99546 0.99200
H 	H 	0.32850 0.29610 0.99830 -0.55600
C 	C 	0.32396 0.37123 0.99158 -0.09000
H 	H 	0.32990 0.38460 0.00580 0.07900
H 	H 	0.30470 0.37400 0.98520 0.08200
C 	C 	0.27786 0.72495 0.53864 0.41700
O 	O 	0.28903 0.74700 0.52950 -0.45200
O 	O 	0.25556 0.71412 0.53030 -0.45600
C 	C 	0.29286 0.71072 0.56257 -0.20900
C 	C 	0.30749 0.72619 0.58295 0.16400
C 	C 	0.31979 0.71312 0.60532 -0.20300
H 	H 	0.32920 0.72380 0.61870 0.08700
C 	C 	0.31849 0.68376 0.60839 0.10300
C 	C 	0.30387 0.66837 0.58822 -0.21200
H 	H 	0.30280 0.64890 0.58990 0.11700
C 	C 	0.29099 0.68129 0.56584 0.17600
C 	C 	0.35513 0.68096 0.64626 -0.07700
H 	H 	0.36340 0.69700 0.63870 0.05100
C 	C 	0.33126 0.66971 0.63346 -0.00500
N 	N 	0.31096 0.75857 0.58494 -0.11500
C 	C 	0.33350 0.77140 0.57210 0.34900
O 	O 	0.35440 0.76050 0.56320 -0.26100
O 	O 	0.32810 0.79856 0.56875 -0.29500
C 	C 	0.29830 0.80500 0.57680 0.26200
H 	H 	0.29750 0.82100 0.58940 -0.05700
H 	H 	0.28710 0.80900 0.56020 -0.02000
C 	C 	0.28832 0.77898 0.59104 -0.50500
H 	H 	0.27080 0.77260 0.58210 0.19200
C 	C 	0.28370 0.78210 0.62115 1.05700
H 	H 	0.27790 0.76350 0.62800 -0.30200
C 	C 	0.30870 0.79020 0.63820 -1.57100
H 	H 	0.32450 0.77860 0.63310 0.48600
H 	H 	0.30460 0.78760 0.65780 0.45300
H 	H 	0.31320 0.80960 0.63480 0.47800
C 	C 	0.25920 0.80220 0.62790 -1.53400
H 	H 	0.25640 0.80290 0.64790 0.45800
H 	H 	0.24240 0.79550 0.61900 0.49200
H 	H 	0.26360 0.82070 0.62100 0.48000
N 	N 	0.28120 0.65922 0.54232 -0.17800
C 	C 	0.25820 0.64360 0.54710 0.39100
O 	O 	0.24550 0.64180 0.56790 -0.29100
O 	O 	0.24830 0.63180 0.52370 -0.24300
C 	C 	0.26310 0.64270 0.50200 0.01800
H 	H 	0.25110 0.65540 0.49140 0.06700
H 	H 	0.26870 0.62760 0.48950 0.05800
C 	C 	0.28990 0.65910 0.51200 0.00500
H 	H 	0.28820 0.67840 0.50500 0.04800
O 	O 	0.30439 0.79806 0.49732 -0.44700
N 	N 	0.33334 0.84152 0.49546 -0.12700
C 	C 	0.30454 0.82302 0.49546 1.00400
H 	H 	0.32850 0.79610 0.49830 -0.55200
C 	C 	0.32396 0.87123 0.49158 -0.09200
H 	H 	0.32990 0.88460 0.50580 0.08100
H 	H 	0.30470 0.87400 0.48520 0.08200
C 	C 	0.77786 0.22495 0.53864 0.41700
O 	O 	0.78903 0.24700 0.52950 -0.45200
O 	O 	0.75556 0.21412 0.53030 -0.45600
C 	C 	0.79286 0.21072 0.56257 -0.20900
C 	C 	0.80749 0.22619 0.58295 0.16400
C 	C 	0.81979 0.21312 0.60532 -0.20300
H 	H 	0.82920 0.22380 0.61870 0.08700
C 	C 	0.81849 0.18376 0.60839 0.10300
C 	C 	0.80387 0.16837 0.58822 -0.21200
H 	H 	0.80280 0.14890 0.58990 0.11700
C 	C 	0.79099 0.18129 0.56584 0.17600
C 	C 	0.85513 0.18096 0.64626 -0.07700
H 	H 	0.86340 0.19700 0.63870 0.05100
C 	C 	0.83126 0.16971 0.63346 -0.00500
N 	N 	0.81096 0.25857 0.58494 -0.11500
C 	C 	0.83350 0.27140 0.57210 0.34900
O 	O 	0.85440 0.26050 0.56320 -0.26100
O 	O 	0.82810 0.29856 0.56875 -0.29500
C 	C 	0.79830 0.30500 0.57680 0.26200
H 	H 	0.79750 0.32100 0.58940 -0.05700
H 	H 	0.78710 0.30900 0.56020 -0.02000
C 	C 	0.78832 0.27898 0.59104 -0.50500
H 	H 	0.77080 0.27260 0.58210 0.19200
C 	C 	0.78370 0.28210 0.62115 1.05700
H 	H 	0.77790 0.26350 0.62800 -0.30200
C 	C 	0.80870 0.29020 0.63820 -1.57100
H 	H 	0.82450 0.27860 0.63310 0.48600
H 	H 	0.80460 0.28760 0.65780 0.45300
H 	H 	0.81320 0.30960 0.63480 0.47800
C 	C 	0.75920 0.30220 0.62790 -1.53400
H 	H 	0.75640 0.30290 0.64790 0.45800
H 	H 	0.74240 0.29550 0.61900 0.49200
H 	H 	0.76360 0.32070 0.62100 0.48000
N 	N 	0.78120 0.15922 0.54232 -0.17800
C 	C 	0.75820 0.14360 0.54710 0.39100
O 	O 	0.74550 0.14180 0.56790 -0.29100
O 	O 	0.74830 0.13180 0.52370 -0.24300
C 	C 	0.76310 0.14270 0.50200 0.01800
H 	H 	0.75110 0.15540 0.49140 0.06700
H 	H 	0.76870 0.12760 0.48950 0.05800
C 	C 	0.78990 0.15910 0.51200 0.00500
H 	H 	0.78820 0.17840 0.50500 0.04800
O 	O 	0.80439 0.29806 0.49732 -0.44700
N 	N 	0.83334 0.34152 0.49546 -0.12700
C 	C 	0.80454 0.32302 0.49546 1.00400
H 	H 	0.82850 0.29610 0.49830 -0.55200
C 	C 	0.82396 0.37123 0.49158 -0.09200
H 	H 	0.82990 0.38460 0.50580 0.08100
H 	H 	0.80470 0.37400 0.48520 0.08200
C 	C 	0.77786 0.72495 0.03864 0.41700
O 	O 	0.78903 0.74700 0.02950 -0.45300
O 	O 	0.75556 0.71412 0.03030 -0.45600
C 	C 	0.79286 0.71072 0.06257 -0.20900
C 	C 	0.80749 0.72619 0.08295 0.16400
C 	C 	0.81979 0.71312 0.10532 -0.20300
H 	H 	0.82920 0.72380 0.11870 0.08700
C 	C 	0.81849 0.68376 0.10839 0.10300
C 	C 	0.80387 0.66837 0.08822 -0.21200
H 	H 	0.80280 0.64890 0.08990 0.11700
C 	C 	0.79099 0.68129 0.06584 0.17600
C 	C 	0.85513 0.68096 0.14626 -0.07700
H 	H 	0.86340 0.69700 0.13870 0.05100
C 	C 	0.83126 0.66971 0.13346 -0.00500
N 	N 	0.81096 0.75857 0.08494 -0.11500
C 	C 	0.83350 0.77140 0.07210 0.34900
O 	O 	0.85440 0.76050 0.06320 -0.26100
O 	O 	0.82810 0.79856 0.06875 -0.29600
C 	C 	0.79830 0.80500 0.07680 0.26300
H 	H 	0.79750 0.82100 0.08940 -0.05700
H 	H 	0.78710 0.80900 0.06020 -0.02100
C 	C 	0.78832 0.77898 0.09104 -0.50500
H 	H 	0.77080 0.77260 0.08210 0.19200
C 	C 	0.78370 0.78210 0.12115 1.05700
H 	H 	0.77790 0.76350 0.12800 -0.30200
C 	C 	0.80870 0.79020 0.13820 -1.57100
H 	H 	0.82450 0.77860 0.13310 0.48600
H 	H 	0.80460 0.78760 0.15780 0.45300
H 	H 	0.81320 0.80960 0.13480 0.47800
C 	C 	0.75920 0.80220 0.12790 -1.53400
H 	H 	0.75640 0.80290 0.14790 0.45800
H 	H 	0.74240 0.79550 0.11900 0.49200
H 	H 	0.76360 0.82070 0.12100 0.48000
N 	N 	0.78120 0.65922 0.04232 -0.17800
C 	C 	0.75820 0.64360 0.04710 0.39100
O 	O 	0.74550 0.64180 0.06790 -0.29100
O 	O 	0.74830 0.63180 0.02370 -0.24200
C 	C 	0.76310 0.64270 0.00200 0.01000
H 	H 	0.75110 0.65540 0.99140 0.07000
H 	H 	0.76870 0.62760 0.98950 0.06200
C 	C 	0.78990 0.65910 0.01200 0.00700
H 	H 	0.78820 0.67840 0.00500 0.04700
O 	O 	0.80439 0.79806 0.99732 -0.45800
N 	N 	0.83334 0.84152 0.99546 -0.12300
C 	C 	0.80454 0.82302 0.99546 0.99200
H 	H 	0.82850 0.79610 0.99830 -0.55600
C 	C 	0.82396 0.87123 0.99158 -0.09000
H 	H 	0.82990 0.88460 0.00580 0.08000
H 	H 	0.80470 0.87400 0.98520 0.08200
C 	C 	0.72214 0.77505 0.03864 0.41700
O 	O 	0.71097 0.75300 0.02950 -0.45300
O 	O 	0.74444 0.78588 0.03030 -0.45600
C 	C 	0.70714 0.78928 0.06257 -0.20900
C 	C 	0.69251 0.77381 0.08295 0.16400
C 	C 	0.68021 0.78688 0.10532 -0.20300
H 	H 	0.67080 0.77620 0.11870 0.08700
C 	C 	0.68151 0.81624 0.10839 0.10300
C 	C 	0.69613 0.83163 0.08822 -0.21200
H 	H 	0.69720 0.85110 0.08990 0.11700
C 	C 	0.70901 0.81871 0.06584 0.17600
C 	C 	0.64487 0.81904 0.14626 -0.07700
H 	H 	0.63660 0.80300 0.13870 0.05100
C 	C 	0.66874 0.83029 0.13346 -0.00500
N 	N 	0.68904 0.74143 0.08494 -0.11500
C 	C 	0.66650 0.72860 0.07210 0.34900
O 	O 	0.64560 0.73950 0.06320 -0.26100
O 	O 	0.67190 0.70144 0.06875 -0.29600
C 	C 	0.70170 0.69500 0.07680 0.26300
H 	H 	0.70250 0.67900 0.08940 -0.05800
H 	H 	0.71290 0.69100 0.06020 -0.02100
C 	C 	0.71168 0.72102 0.09104 -0.50500
H 	H 	0.72920 0.72740 0.08210 0.19200
C 	C 	0.71630 0.71790 0.12115 1.05700
H 	H 	0.72210 0.73650 0.12800 -0.30200
C 	C 	0.69130 0.70980 0.13820 -1.57100
H 	H 	0.67550 0.72140 0.13310 0.48600
H 	H 	0.69540 0.71240 0.15780 0.45300
H 	H 	0.68680 0.69040 0.13480 0.47800
C 	C 	0.74080 0.69780 0.12790 -1.53400
H 	H 	0.74360 0.69710 0.14790 0.45800
H 	H 	0.75760 0.70450 0.11900 0.49200
H 	H 	0.73640 0.67930 0.12100 0.48000
N 	N 	0.71880 0.84078 0.04232 -0.17800
C 	C 	0.74180 0.85640 0.04710 0.39100
O 	O 	0.75450 0.85820 0.06790 -0.29100
O 	O 	0.75170 0.86820 0.02370 -0.24200
C 	C 	0.73690 0.85730 0.00200 0.01000
H 	H 	0.74890 0.84460 0.99140 0.07100
H 	H 	0.73130 0.87240 0.98950 0.06200
C 	C 	0.71010 0.84090 0.01200 0.00700
H 	H 	0.71180 0.82160 0.00500 0.04700
O 	O 	0.69561 0.70194 0.99732 -0.45800
N 	N 	0.66666 0.65848 0.99546 -0.12300
C 	C 	0.69546 0.67698 0.99546 0.99200
H 	H 	0.67150 0.70390 0.99830 -0.55600
C 	C 	0.67604 0.62877 0.99158 -0.09000
H 	H 	0.67010 0.61540 0.00580 0.07900
H 	H 	0.69530 0.62600 0.98520 0.08200
C 	C 	0.72214 0.27505 0.53864 0.41700
O 	O 	0.71097 0.25300 0.52950 -0.45200
O 	O 	0.74444 0.28588 0.53030 -0.45600
C 	C 	0.70714 0.28928 0.56257 -0.20900
C 	C 	0.69251 0.27381 0.58295 0.16400
C 	C 	0.68021 0.28688 0.60532 -0.20300
H 	H 	0.67080 0.27620 0.61870 0.08700
C 	C 	0.68151 0.31624 0.60839 0.10300
C 	C 	0.69613 0.33163 0.58822 -0.21200
H 	H 	0.69720 0.35110 0.58990 0.11700
C 	C 	0.70901 0.31871 0.56584 0.17600
C 	C 	0.64487 0.31904 0.64626 -0.07700
H 	H 	0.63660 0.30300 0.63870 0.05100
C 	C 	0.66874 0.33029 0.63346 -0.00500
N 	N 	0.68904 0.24143 0.58494 -0.11500
C 	C 	0.66650 0.22860 0.57210 0.34900
O 	O 	0.64560 0.23950 0.56320 -0.26100
O 	O 	0.67190 0.20144 0.56875 -0.29500
C 	C 	0.70170 0.19500 0.57680 0.26200
H 	H 	0.70250 0.17900 0.58940 -0.05700
H 	H 	0.71290 0.19100 0.56020 -0.02000
C 	C 	0.71168 0.22102 0.59104 -0.50500
H 	H 	0.72920 0.22740 0.58210 0.19200
C 	C 	0.71630 0.21790 0.62115 1.05700
H 	H 	0.72210 0.23650 0.62800 -0.30200
C 	C 	0.69130 0.20980 0.63820 -1.57100
H 	H 	0.67550 0.22140 0.63310 0.48600
H 	H 	0.69540 0.21240 0.65780 0.45300
H 	H 	0.68680 0.19040 0.63480 0.47800
C 	C 	0.74080 0.19780 0.62790 -1.53400
H 	H 	0.74360 0.19710 0.64790 0.45800
H 	H 	0.75760 0.20450 0.61900 0.49200
H 	H 	0.73640 0.17930 0.62100 0.48000
N 	N 	0.71880 0.34078 0.54232 -0.17800
C 	C 	0.74180 0.35640 0.54710 0.39100
O 	O 	0.75450 0.35820 0.56790 -0.29100
O 	O 	0.75170 0.36820 0.52370 -0.24300
C 	C 	0.73690 0.35730 0.50200 0.01800
H 	H 	0.74890 0.34460 0.49140 0.06700
H 	H 	0.73130 0.37240 0.48950 0.05800
C 	C 	0.71010 0.34090 0.51200 0.00500
H 	H 	0.71180 0.32160 0.50500 0.04800
O 	O 	0.69561 0.20194 0.49732 -0.44700
N 	N 	0.66666 0.15848 0.49546 -0.12700
C 	C 	0.69546 0.17698 0.49546 1.00400
H 	H 	0.67150 0.20390 0.49830 -0.55200
C 	C 	0.67604 0.12877 0.49158 -0.09200
H 	H 	0.67010 0.11540 0.50580 0.08100
H 	H 	0.69530 0.12600 0.48520 0.08200
C 	C 	0.22214 0.77505 0.53864 0.41700
O 	O 	0.21097 0.75300 0.52950 -0.45200
O 	O 	0.24444 0.78588 0.53030 -0.45600
C 	C 	0.20714 0.78928 0.56257 -0.20900
C 	C 	0.19251 0.77381 0.58295 0.16400
C 	C 	0.18021 0.78688 0.60532 -0.20300
H 	H 	0.17080 0.77620 0.61870 0.08700
C 	C 	0.18151 0.81624 0.60839 0.10300
C 	C 	0.19613 0.83163 0.58822 -0.21200
H 	H 	0.19720 0.85110 0.58990 0.11700
C 	C 	0.20901 0.81871 0.56584 0.17600
C 	C 	0.14487 0.81904 0.64626 -0.07700
H 	H 	0.13660 0.80300 0.63870 0.05100
C 	C 	0.16874 0.83029 0.63346 -0.00500
N 	N 	0.18904 0.74143 0.58494 -0.11500
C 	C 	0.16650 0.72860 0.57210 0.34900
O 	O 	0.14560 0.73950 0.56320 -0.26100
O 	O 	0.17190 0.70144 0.56875 -0.29500
C 	C 	0.20170 0.69500 0.57680 0.26200
H 	H 	0.20250 0.67900 0.58940 -0.05700
H 	H 	0.21290 0.69100 0.56020 -0.02000
C 	C 	0.21168 0.72102 0.59104 -0.50500
H 	H 	0.22920 0.72740 0.58210 0.19200
C 	C 	0.21630 0.71790 0.62115 1.05700
H 	H 	0.22210 0.73650 0.62800 -0.30200
C 	C 	0.19130 0.70980 0.63820 -1.57100
H 	H 	0.17550 0.72140 0.63310 0.48600
H 	H 	0.19540 0.71240 0.65780 0.45300
H 	H 	0.18680 0.69040 0.63480 0.47800
C 	C 	0.24080 0.69780 0.62790 -1.53400
H 	H 	0.24360 0.69710 0.64790 0.45800
H 	H 	0.25760 0.70450 0.61900 0.49200
H 	H 	0.23640 0.67930 0.62100 0.48000
N 	N 	0.21880 0.84078 0.54232 -0.17800
C 	C 	0.24180 0.85640 0.54710 0.39100
O 	O 	0.25450 0.85820 0.56790 -0.29100
O 	O 	0.25170 0.86820 0.52370 -0.24300
C 	C 	0.23690 0.85730 0.50200 0.01800
H 	H 	0.24890 0.84460 0.49140 0.06700
H 	H 	0.23130 0.87240 0.48950 0.05800
C 	C 	0.21010 0.84090 0.51200 0.00500
H 	H 	0.21180 0.82160 0.50500 0.04800
O 	O 	0.19561 0.70194 0.49732 -0.44700
N 	N 	0.16666 0.65848 0.49546 -0.12700
C 	C 	0.19546 0.67698 0.49546 1.00400
H 	H 	0.17150 0.70390 0.49830 -0.55200
C 	C 	0.17604 0.62877 0.49158 -0.09200
H 	H 	0.17010 0.61540 0.50580 0.08100
H 	H 	0.19530 0.62600 0.48520 0.08200
C 	C 	0.22214 0.27505 0.03864 0.41700
O 	O 	0.21097 0.25300 0.02950 -0.45300
O 	O 	0.24444 0.28588 0.03030 -0.45600
C 	C 	0.20714 0.28928 0.06257 -0.20900
C 	C 	0.19251 0.27381 0.08295 0.16400
C 	C 	0.18021 0.28688 0.10532 -0.20300
H 	H 	0.17080 0.27620 0.11870 0.08700
C 	C 	0.18151 0.31624 0.10839 0.10300
C 	C 	0.19613 0.33163 0.08822 -0.21200
H 	H 	0.19720 0.35110 0.08990 0.11700
C 	C 	0.20901 0.31871 0.06584 0.17600
C 	C 	0.14487 0.31904 0.14626 -0.07700
H 	H 	0.13660 0.30300 0.13870 0.05100
C 	C 	0.16874 0.33029 0.13346 -0.00500
N 	N 	0.18904 0.24143 0.08494 -0.11500
C 	C 	0.16650 0.22860 0.07210 0.34900
O 	O 	0.14560 0.23950 0.06320 -0.26100
O 	O 	0.17190 0.20144 0.06875 -0.29600
C 	C 	0.20170 0.19500 0.07680 0.26300
H 	H 	0.20250 0.17900 0.08940 -0.05800
H 	H 	0.21290 0.19100 0.06020 -0.02100
C 	C 	0.21168 0.22102 0.09104 -0.50500
H 	H 	0.22920 0.22740 0.08210 0.19200
C 	C 	0.21630 0.21790 0.12115 1.05700
H 	H 	0.22210 0.23650 0.12800 -0.30200
C 	C 	0.19130 0.20980 0.13820 -1.57100
H 	H 	0.17550 0.22140 0.13310 0.48600
H 	H 	0.19540 0.21240 0.15780 0.45300
H 	H 	0.18680 0.19040 0.13480 0.47800
C 	C 	0.24080 0.19780 0.12790 -1.53400
H 	H 	0.24360 0.19710 0.14790 0.45800
H 	H 	0.25760 0.20450 0.11900 0.49200
H 	H 	0.23640 0.17930 0.12100 0.48000
N 	N 	0.21880 0.34078 0.04232 -0.17800
C 	C 	0.24180 0.35640 0.04710 0.39100
O 	O 	0.25450 0.35820 0.06790 -0.29100
O 	O 	0.25170 0.36820 0.02370 -0.24200
C 	C 	0.23690 0.35730 0.00200 0.01000
H 	H 	0.24890 0.34460 0.99140 0.07000
H 	H 	0.23130 0.37240 0.98950 0.06200
C 	C 	0.21010 0.34090 0.01200 0.00700
H 	H 	0.21180 0.32160 0.00500 0.04700
O 	O 	0.19561 0.20194 0.99732 -0.45800
N 	N 	0.16666 0.15848 0.99546 -0.12300
C 	C 	0.19546 0.17698 0.99546 0.99200
H 	H 	0.17150 0.20390 0.99830 -0.55600
C 	C 	0.17604 0.12877 0.99158 -0.09000
H 	H 	0.17010 0.11540 0.00580 0.07900
H 	H 	0.19530 0.12600 0.98520 0.08200
C 	C 	0.27786 0.77505 0.96136 0.41700
O 	O 	0.28903 0.75300 0.97050 -0.45200
O 	O 	0.25556 0.78588 0.96970 -0.45500
C 	C 	0.29286 0.78928 0.93743 -0.20800
C 	C 	0.30749 0.77381 0.91705 0.16400
C 	C 	0.31979 0.78688 0.89468 -0.20300
H 	H 	0.32920 0.77620 0.88130 0.08700
C 	C 	0.31849 0.81624 0.89161 0.10300
C 	C 	0.30387 0.83163 0.91178 -0.21200
H 	H 	0.30280 0.85110 0.91010 0.11700
C 	C 	0.29099 0.81871 0.93416 0.17600
C 	C 	0.35513 0.81904 0.85374 -0.07700
H 	H 	0.36340 0.80300 0.86130 0.05100
C 	C 	0.33126 0.83029 0.86654 -0.00500
N 	N 	0.31096 0.74143 0.91506 -0.11500
C 	C 	0.33350 0.72860 0.92790 0.34900
O 	O 	0.35440 0.73950 0.93680 -0.26100
O 	O 	0.32810 0.70144 0.93125 -0.29500
C 	C 	0.29830 0.69500 0.92320 0.26200
H 	H 	0.29750 0.67900 0.91060 -0.05700
H 	H 	0.28710 0.69100 0.93980 -0.02000
C 	C 	0.28832 0.72102 0.90896 -0.50400
H 	H 	0.27080 0.72740 0.91790 0.19200
C 	C 	0.28370 0.71790 0.87885 1.05700
H 	H 	0.27790 0.73650 0.87200 -0.30100
C 	C 	0.30870 0.70980 0.86180 -1.57100
H 	H 	0.32450 0.72140 0.86690 0.48600
H 	H 	0.30460 0.71240 0.84220 0.45300
H 	H 	0.31320 0.69040 0.86520 0.47800
C 	C 	0.25920 0.69780 0.87210 -1.53400
H 	H 	0.25640 0.69710 0.85210 0.45800
H 	H 	0.24240 0.70450 0.88100 0.49200
H 	H 	0.26360 0.67930 0.87900 0.48000
N 	N 	0.28120 0.84078 0.95768 -0.17700
C 	C 	0.25820 0.85640 0.95290 0.39100
O 	O 	0.24550 0.85820 0.93210 -0.29100
O 	O 	0.24830 0.86820 0.97630 -0.24400
C 	C 	0.26310 0.85730 0.99800 0.02600
H 	H 	0.25110 0.84460 0.00860 0.06400
H 	H 	0.26870 0.87240 0.01050 0.05500
C 	C 	0.28990 0.84090 0.98800 0.00400
H 	H 	0.28820 0.82160 0.99500 0.04900
O 	O 	0.30439 0.70194 0.00268 -0.43500
N 	N 	0.33334 0.65848 0.00454 -0.13100
C 	C 	0.30454 0.67698 0.00454 1.01500
H 	H 	0.32850 0.70390 0.00170 -0.54700
C 	C 	0.32396 0.62877 0.00842 -0.09500
H 	H 	0.32990 0.61540 0.99420 0.08300
H 	H 	0.30470 0.62600 0.01480 0.08300
C 	C 	0.27786 0.27505 0.46136 0.41700
O 	O 	0.28903 0.25300 0.47050 -0.45200
O 	O 	0.25556 0.28588 0.46970 -0.45600
C 	C 	0.29286 0.28928 0.43743 -0.20900
C 	C 	0.30749 0.27381 0.41705 0.16400
C 	C 	0.31979 0.28688 0.39468 -0.20300
H 	H 	0.32920 0.27620 0.38130 0.08700
C 	C 	0.31849 0.31624 0.39161 0.10300
C 	C 	0.30387 0.33163 0.41178 -0.21200
H 	H 	0.30280 0.35110 0.41010 0.11700
C 	C 	0.29099 0.31871 0.43416 0.17600
C 	C 	0.35513 0.31904 0.35374 -0.07700
H 	H 	0.36340 0.30300 0.36130 0.05100
C 	C 	0.33126 0.33029 0.36654 -0.00500
N 	N 	0.31096 0.24143 0.41506 -0.11500
C 	C 	0.33350 0.22860 0.42790 0.34900
O 	O 	0.35440 0.23950 0.43680 -0.26100
O 	O 	0.32810 0.20144 0.43125 -0.29500
C 	C 	0.29830 0.19500 0.42320 0.26200
H 	H 	0.29750 0.17900 0.41060 -0.05700
H 	H 	0.28710 0.19100 0.43980 -0.02000
C 	C 	0.28832 0.22102 0.40896 -0.50500
H 	H 	0.27080 0.22740 0.41790 0.19200
C 	C 	0.28370 0.21790 0.37885 1.05700
H 	H 	0.27790 0.23650 0.37200 -0.30200
C 	C 	0.30870 0.20980 0.36180 -1.57100
H 	H 	0.32450 0.22140 0.36690 0.48600
H 	H 	0.30460 0.21240 0.34220 0.45300
H 	H 	0.31320 0.19040 0.36520 0.47800
C 	C 	0.25920 0.19780 0.37210 -1.53400
H 	H 	0.25640 0.19710 0.35210 0.45800
H 	H 	0.24240 0.20450 0.38100 0.49200
H 	H 	0.26360 0.17930 0.37900 0.48000
N 	N 	0.28120 0.34078 0.45768 -0.17800
C 	C 	0.25820 0.35640 0.45290 0.39100
O 	O 	0.24550 0.35820 0.43210 -0.29100
O 	O 	0.24830 0.36820 0.47630 -0.24300
C 	C 	0.26310 0.35730 0.49800 0.01800
H 	H 	0.25110 0.34460 0.50860 0.06700
H 	H 	0.26870 0.37240 0.51050 0.05800
C 	C 	0.28990 0.34090 0.48800 0.00500
H 	H 	0.28820 0.32160 0.49500 0.04800
O 	O 	0.30439 0.20194 0.50268 -0.44700
N 	N 	0.33334 0.15848 0.50454 -0.12700
C 	C 	0.30454 0.17698 0.50454 1.00400
H 	H 	0.32850 0.20390 0.50170 -0.55200
C 	C 	0.32396 0.12877 0.50842 -0.09200
H 	H 	0.32990 0.11540 0.49420 0.08100
H 	H 	0.30470 0.12600 0.51480 0.08200
C 	C 	0.77786 0.77505 0.46136 0.41700
O 	O 	0.78903 0.75300 0.47050 -0.45200
O 	O 	0.75556 0.78588 0.46970 -0.45600
C 	C 	0.79286 0.78928 0.43743 -0.20900
C 	C 	0.80749 0.77381 0.41705 0.16400
C 	C 	0.81979 0.78688 0.39468 -0.20300
H 	H 	0.82920 0.77620 0.38130 0.08700
C 	C 	0.81849 0.81624 0.39161 0.10300
C 	C 	0.80387 0.83163 0.41178 -0.21200
H 	H 	0.80280 0.85110 0.41010 0.11700
C 	C 	0.79099 0.81871 0.43416 0.17600
C 	C 	0.85513 0.81904 0.35374 -0.07700
H 	H 	0.86340 0.80300 0.36130 0.05100
C 	C 	0.83126 0.83029 0.36654 -0.00500
N 	N 	0.81096 0.74143 0.41506 -0.11500
C 	C 	0.83350 0.72860 0.42790 0.34900
O 	O 	0.85440 0.73950 0.43680 -0.26100
O 	O 	0.82810 0.70144 0.43125 -0.29500
C 	C 	0.79830 0.69500 0.42320 0.26200
H 	H 	0.79750 0.67900 0.41060 -0.05700
H 	H 	0.78710 0.69100 0.43980 -0.02000
C 	C 	0.78832 0.72102 0.40896 -0.50500
H 	H 	0.77080 0.72740 0.41790 0.19200
C 	C 	0.78370 0.71790 0.37885 1.05700
H 	H 	0.77790 0.73650 0.37200 -0.30200
C 	C 	0.80870 0.70980 0.36180 -1.57100
H 	H 	0.82450 0.72140 0.36690 0.48600
H 	H 	0.80460 0.71240 0.34220 0.45300
H 	H 	0.81320 0.69040 0.36520 0.47800
C 	C 	0.75920 0.69780 0.37210 -1.53400
H 	H 	0.75640 0.69710 0.35210 0.45800
H 	H 	0.74240 0.70450 0.38100 0.49200
H 	H 	0.76360 0.67930 0.37900 0.48000
N 	N 	0.78120 0.84078 0.45768 -0.17800
C 	C 	0.75820 0.85640 0.45290 0.39100
O 	O 	0.74550 0.85820 0.43210 -0.29100
O 	O 	0.74830 0.86820 0.47630 -0.24300
C 	C 	0.76310 0.85730 0.49800 0.01800
H 	H 	0.75110 0.84460 0.50860 0.06700
H 	H 	0.76870 0.87240 0.51050 0.05900
C 	C 	0.78990 0.84090 0.48800 0.00500
H 	H 	0.78820 0.82160 0.49500 0.04800
O 	O 	0.80439 0.70194 0.50268 -0.44700
N 	N 	0.83334 0.65848 0.50454 -0.12700
C 	C 	0.80454 0.67698 0.50454 1.00400
H 	H 	0.82850 0.70390 0.50170 -0.55200
C 	C 	0.82396 0.62877 0.50842 -0.09200
H 	H 	0.82990 0.61540 0.49420 0.08100
H 	H 	0.80470 0.62600 0.51480 0.08200
C 	C 	0.77786 0.27505 0.96136 0.41700
O 	O 	0.78903 0.25300 0.97050 -0.45200
O 	O 	0.75556 0.28588 0.96970 -0.45500
C 	C 	0.79286 0.28928 0.93743 -0.20800
C 	C 	0.80749 0.27381 0.91705 0.16400
C 	C 	0.81979 0.28688 0.89468 -0.20300
H 	H 	0.82920 0.27620 0.88130 0.08700
C 	C 	0.81849 0.31624 0.89161 0.10300
C 	C 	0.80387 0.33163 0.91178 -0.21200
H 	H 	0.80280 0.35110 0.91010 0.11700
C 	C 	0.79099 0.31871 0.93416 0.17600
C 	C 	0.85513 0.31904 0.85374 -0.07700
H 	H 	0.86340 0.30300 0.86130 0.05100
C 	C 	0.83126 0.33029 0.86654 -0.00500
N 	N 	0.81096 0.24143 0.91506 -0.11500
C 	C 	0.83350 0.22860 0.92790 0.34900
O 	O 	0.85440 0.23950 0.93680 -0.26000
O 	O 	0.82810 0.20144 0.93125 -0.29500
C 	C 	0.79830 0.19500 0.92320 0.26200
H 	H 	0.79750 0.17900 0.91060 -0.05700
H 	H 	0.78710 0.19100 0.93980 -0.02000
C 	C 	0.78832 0.22102 0.90896 -0.50500
H 	H 	0.77080 0.22740 0.91790 0.19200
C 	C 	0.78370 0.21790 0.87885 1.05700
H 	H 	0.77790 0.23650 0.87200 -0.30100
C 	C 	0.80870 0.20980 0.86180 -1.57100
H 	H 	0.82450 0.22140 0.86690 0.48600
H 	H 	0.80460 0.21240 0.84220 0.45300
H 	H 	0.81320 0.19040 0.86520 0.47800
C 	C 	0.75920 0.19780 0.87210 -1.53400
H 	H 	0.75640 0.19710 0.85210 0.45800
H 	H 	0.74240 0.20450 0.88100 0.49200
H 	H 	0.76360 0.17930 0.87900 0.48000
N 	N 	0.78120 0.34078 0.95768 -0.17700
C 	C 	0.75820 0.35640 0.95290 0.39100
O 	O 	0.74550 0.35820 0.93210 -0.29100
O 	O 	0.74830 0.36820 0.97630 -0.24400
C 	C 	0.76310 0.35730 0.99800 0.02600
H 	H 	0.75110 0.34460 0.00860 0.06400
H 	H 	0.76870 0.37240 0.01050 0.05500
C 	C 	0.78990 0.34090 0.98800 0.00400
H 	H 	0.78820 0.32160 0.99500 0.04900
O 	O 	0.80439 0.20194 0.00268 -0.43500
N 	N 	0.83334 0.15848 0.00454 -0.13100
C 	C 	0.80454 0.17698 0.00454 1.01500
H 	H 	0.82850 0.20390 0.00170 -0.54700
C 	C 	0.82396 0.12877 0.00842 -0.09500
H 	H 	0.82990 0.11540 0.99420 0.08300
H 	H 	0.80470 0.12600 0.01480 0.08300
C 	C 	0.72214 0.96136 0.77505 0.41700
O 	O 	0.71097 0.97050 0.75300 -0.45200
O 	O 	0.74444 0.96970 0.78588 -0.45500
C 	C 	0.70714 0.93743 0.78928 -0.20800
C 	C 	0.69251 0.91705 0.77381 0.16400
C 	C 	0.68021 0.89468 0.78688 -0.20300
H 	H 	0.67080 0.88130 0.77620 0.08700
C 	C 	0.68151 0.89161 0.81624 0.10300
C 	C 	0.69613 0.91178 0.83163 -0.21200
H 	H 	0.69720 0.91010 0.85110 0.11700
C 	C 	0.70901 0.93416 0.81871 0.17600
C 	C 	0.64487 0.85374 0.81904 -0.07700
H 	H 	0.63660 0.86130 0.80300 0.05100
C 	C 	0.66874 0.86654 0.83029 -0.00500
N 	N 	0.68904 0.91506 0.74143 -0.11500
C 	C 	0.66650 0.92790 0.72860 0.34900
O 	O 	0.64560 0.93680 0.73950 -0.26100
O 	O 	0.67190 0.93125 0.70144 -0.29500
C 	C 	0.70170 0.92320 0.69500 0.26200
H 	H 	0.70250 0.91060 0.67900 -0.05700
H 	H 	0.71290 0.93980 0.69100 -0.02000
C 	C 	0.71168 0.90896 0.72102 -0.50400
H 	H 	0.72920 0.91790 0.72740 0.19200
C 	C 	0.71630 0.87885 0.71790 1.05700
H 	H 	0.72210 0.87200 0.73650 -0.30100
C 	C 	0.69130 0.86180 0.70980 -1.57100
H 	H 	0.67550 0.86690 0.72140 0.48600
H 	H 	0.69540 0.84220 0.71240 0.45300
H 	H 	0.68680 0.86520 0.69040 0.47800
C 	C 	0.74080 0.87210 0.69780 -1.53400
H 	H 	0.74360 0.85210 0.69710 0.45800
H 	H 	0.75760 0.88100 0.70450 0.49200
H 	H 	0.73640 0.87900 0.67930 0.48000
N 	N 	0.71880 0.95768 0.84078 -0.17700
C 	C 	0.74180 0.95290 0.85640 0.39100
O 	O 	0.75450 0.93210 0.85820 -0.29100
O 	O 	0.75170 0.97630 0.86820 -0.24400
C 	C 	0.73690 0.99800 0.85730 0.02600
H 	H 	0.74890 0.00860 0.84460 0.06400
H 	H 	0.73130 0.01050 0.87240 0.05500
C 	C 	0.71010 0.98800 0.84090 0.00400
H 	H 	0.71180 0.99500 0.82160 0.04900
O 	O 	0.69561 0.00268 0.70194 -0.43500
N 	N 	0.66666 0.00454 0.65848 -0.13100
C 	C 	0.69546 0.00454 0.67698 1.01500
H 	H 	0.67150 0.00170 0.70390 -0.54700
C 	C 	0.67604 0.00842 0.62877 -0.09500
H 	H 	0.67010 0.99420 0.61540 0.08300
H 	H 	0.69530 0.01480 0.62600 0.08300
C 	C 	0.72214 0.46136 0.27505 0.41700
O 	O 	0.71097 0.47050 0.25300 -0.45200
O 	O 	0.74444 0.46970 0.28588 -0.45600
C 	C 	0.70714 0.43743 0.28928 -0.20900
C 	C 	0.69251 0.41705 0.27381 0.16400
C 	C 	0.68021 0.39468 0.28688 -0.20300
H 	H 	0.67080 0.38130 0.27620 0.08700
C 	C 	0.68151 0.39161 0.31624 0.10300
C 	C 	0.69613 0.41178 0.33163 -0.21200
H 	H 	0.69720 0.41010 0.35110 0.11700
C 	C 	0.70901 0.43416 0.31871 0.17600
C 	C 	0.64487 0.35374 0.31904 -0.07700
H 	H 	0.63660 0.36130 0.30300 0.05100
C 	C 	0.66874 0.36654 0.33029 -0.00500
N 	N 	0.68904 0.41506 0.24143 -0.11500
C 	C 	0.66650 0.42790 0.22860 0.34900
O 	O 	0.64560 0.43680 0.23950 -0.26100
O 	O 	0.67190 0.43125 0.20144 -0.29500
C 	C 	0.70170 0.42320 0.19500 0.26200
H 	H 	0.70250 0.41060 0.17900 -0.05700
H 	H 	0.71290 0.43980 0.19100 -0.02000
C 	C 	0.71168 0.40896 0.22102 -0.50500
H 	H 	0.72920 0.41790 0.22740 0.19200
C 	C 	0.71630 0.37885 0.21790 1.05700
H 	H 	0.72210 0.37200 0.23650 -0.30200
C 	C 	0.69130 0.36180 0.20980 -1.57100
H 	H 	0.67550 0.36690 0.22140 0.48600
H 	H 	0.69540 0.34220 0.21240 0.45300
H 	H 	0.68680 0.36520 0.19040 0.47800
C 	C 	0.74080 0.37210 0.19780 -1.53400
H 	H 	0.74360 0.35210 0.19710 0.45800
H 	H 	0.75760 0.38100 0.20450 0.49200
H 	H 	0.73640 0.37900 0.17930 0.48000
N 	N 	0.71880 0.45768 0.34078 -0.17800
C 	C 	0.74180 0.45290 0.35640 0.39100
O 	O 	0.75450 0.43210 0.35820 -0.29100
O 	O 	0.75170 0.47630 0.36820 -0.24300
C 	C 	0.73690 0.49800 0.35730 0.01800
H 	H 	0.74890 0.50860 0.34460 0.06700
H 	H 	0.73130 0.51050 0.37240 0.05800
C 	C 	0.71010 0.48800 0.34090 0.00500
H 	H 	0.71180 0.49500 0.32160 0.04800
O 	O 	0.69561 0.50268 0.20194 -0.44700
N 	N 	0.66666 0.50454 0.15848 -0.12700
C 	C 	0.69546 0.50454 0.17698 1.00400
H 	H 	0.67150 0.50170 0.20390 -0.55200
C 	C 	0.67604 0.50842 0.12877 -0.09200
H 	H 	0.67010 0.49420 0.11540 0.08100
H 	H 	0.69530 0.51480 0.12600 0.08200
C 	C 	0.22214 0.96136 0.27505 0.41700
O 	O 	0.21097 0.97050 0.25300 -0.45200
O 	O 	0.24444 0.96970 0.28588 -0.45500
C 	C 	0.20714 0.93743 0.28928 -0.20800
C 	C 	0.19251 0.91705 0.27381 0.16400
C 	C 	0.18021 0.89468 0.28688 -0.20300
H 	H 	0.17080 0.88130 0.27620 0.08700
C 	C 	0.18151 0.89161 0.31624 0.10300
C 	C 	0.19613 0.91178 0.33163 -0.21200
H 	H 	0.19720 0.91010 0.35110 0.11700
C 	C 	0.20901 0.93416 0.31871 0.17600
C 	C 	0.14487 0.85374 0.31904 -0.07700
H 	H 	0.13660 0.86130 0.30300 0.05100
C 	C 	0.16874 0.86654 0.33029 -0.00500
N 	N 	0.18904 0.91506 0.24143 -0.11500
C 	C 	0.16650 0.92790 0.22860 0.34900
O 	O 	0.14560 0.93680 0.23950 -0.26100
O 	O 	0.17190 0.93125 0.20144 -0.29500
C 	C 	0.20170 0.92320 0.19500 0.26200
H 	H 	0.20250 0.91060 0.17900 -0.05700
H 	H 	0.21290 0.93980 0.19100 -0.02000
C 	C 	0.21168 0.90896 0.22102 -0.50400
H 	H 	0.22920 0.91790 0.22740 0.19200
C 	C 	0.21630 0.87885 0.21790 1.05700
H 	H 	0.22210 0.87200 0.23650 -0.30100
C 	C 	0.19130 0.86180 0.20980 -1.57000
H 	H 	0.17550 0.86690 0.22140 0.48600
H 	H 	0.19540 0.84220 0.21240 0.45300
H 	H 	0.18680 0.86520 0.19040 0.47800
C 	C 	0.24080 0.87210 0.19780 -1.53400
H 	H 	0.24360 0.85210 0.19710 0.45800
H 	H 	0.25760 0.88100 0.20450 0.49200
H 	H 	0.23640 0.87900 0.17930 0.48000
N 	N 	0.21880 0.95768 0.34078 -0.17700
C 	C 	0.24180 0.95290 0.35640 0.39100
O 	O 	0.25450 0.93210 0.35820 -0.29100
O 	O 	0.25170 0.97630 0.36820 -0.24400
C 	C 	0.23690 0.99800 0.35730 0.02600
H 	H 	0.24890 0.00860 0.34460 0.06400
H 	H 	0.23130 0.01050 0.37240 0.05500
C 	C 	0.21010 0.98800 0.34090 0.00400
H 	H 	0.21180 0.99500 0.32160 0.04900
O 	O 	0.19561 0.00268 0.20194 -0.43500
N 	N 	0.16666 0.00454 0.15848 -0.13100
C 	C 	0.19546 0.00454 0.17698 1.01500
H 	H 	0.17150 0.00170 0.20390 -0.54700
C 	C 	0.17604 0.00842 0.12877 -0.09500
H 	H 	0.17010 0.99420 0.11540 0.08300
H 	H 	0.19530 0.01480 0.12600 0.08300
C 	C 	0.22214 0.46136 0.77505 0.41700
O 	O 	0.21097 0.47050 0.75300 -0.45200
O 	O 	0.24444 0.46970 0.78588 -0.45600
C 	C 	0.20714 0.43743 0.78928 -0.20900
C 	C 	0.19251 0.41705 0.77381 0.16400
C 	C 	0.18021 0.39468 0.78688 -0.20300
H 	H 	0.17080 0.38130 0.77620 0.08700
C 	C 	0.18151 0.39161 0.81624 0.10300
C 	C 	0.19613 0.41178 0.83163 -0.21200
H 	H 	0.19720 0.41010 0.85110 0.11700
C 	C 	0.20901 0.43416 0.81871 0.17600
C 	C 	0.14487 0.35374 0.81904 -0.07700
H 	H 	0.13660 0.36130 0.80300 0.05100
C 	C 	0.16874 0.36654 0.83029 -0.00500
N 	N 	0.18904 0.41506 0.74143 -0.11500
C 	C 	0.16650 0.42790 0.72860 0.34900
O 	O 	0.14560 0.43680 0.73950 -0.26100
O 	O 	0.17190 0.43125 0.70144 -0.29500
C 	C 	0.20170 0.42320 0.69500 0.26200
H 	H 	0.20250 0.41060 0.67900 -0.05700
H 	H 	0.21290 0.43980 0.69100 -0.02000
C 	C 	0.21168 0.40896 0.72102 -0.50500
H 	H 	0.22920 0.41790 0.72740 0.19200
C 	C 	0.21630 0.37885 0.71790 1.05700
H 	H 	0.22210 0.37200 0.73650 -0.30200
C 	C 	0.19130 0.36180 0.70980 -1.57100
H 	H 	0.17550 0.36690 0.72140 0.48600
H 	H 	0.19540 0.34220 0.71240 0.45300
H 	H 	0.18680 0.36520 0.69040 0.47800
C 	C 	0.24080 0.37210 0.69780 -1.53400
H 	H 	0.24360 0.35210 0.69710 0.45800
H 	H 	0.25760 0.38100 0.70450 0.49200
H 	H 	0.23640 0.37900 0.67930 0.48000
N 	N 	0.21880 0.45768 0.84078 -0.17800
C 	C 	0.24180 0.45290 0.85640 0.39100
O 	O 	0.25450 0.43210 0.85820 -0.29100
O 	O 	0.25170 0.47630 0.86820 -0.24300
C 	C 	0.23690 0.49800 0.85730 0.01800
H 	H 	0.24890 0.50860 0.84460 0.06700
H 	H 	0.23130 0.51050 0.87240 0.05800
C 	C 	0.21010 0.48800 0.84090 0.00500
H 	H 	0.21180 0.49500 0.82160 0.04800
O 	O 	0.19561 0.50268 0.70194 -0.44700
N 	N 	0.16666 0.50454 0.65848 -0.12700
C 	C 	0.19546 0.50454 0.67698 1.00400
H 	H 	0.17150 0.50170 0.70390 -0.55200
C 	C 	0.17604 0.50842 0.62877 -0.09200
H 	H 	0.17010 0.49420 0.61540 0.08100
H 	H 	0.19530 0.51480 0.62600 0.08200
C 	C 	0.27786 0.03864 0.77505 0.41700
O 	O 	0.28903 0.02950 0.75300 -0.45300
O 	O 	0.25556 0.03030 0.78588 -0.45600
C 	C 	0.29286 0.06257 0.78928 -0.20900
C 	C 	0.30749 0.08295 0.77381 0.16400
C 	C 	0.31979 0.10532 0.78688 -0.20300
H 	H 	0.32920 0.11870 0.77620 0.08700
C 	C 	0.31849 0.10839 0.81624 0.10300
C 	C 	0.30387 0.08822 0.83163 -0.21200
H 	H 	0.30280 0.08990 0.85110 0.11700
C 	C 	0.29099 0.06584 0.81871 0.17600
C 	C 	0.35513 0.14626 0.81904 -0.07700
H 	H 	0.36340 0.13870 0.80300 0.05100
C 	C 	0.33126 0.13346 0.83029 -0.00500
N 	N 	0.31096 0.08494 0.74143 -0.11500
C 	C 	0.33350 0.07210 0.72860 0.34900
O 	O 	0.35440 0.06320 0.73950 -0.26100
O 	O 	0.32810 0.06875 0.70144 -0.29600
C 	C 	0.29830 0.07680 0.69500 0.26300
H 	H 	0.29750 0.08940 0.67900 -0.05800
H 	H 	0.28710 0.06020 0.69100 -0.02100
C 	C 	0.28832 0.09104 0.72102 -0.50500
H 	H 	0.27080 0.08210 0.72740 0.19200
C 	C 	0.28370 0.12115 0.71790 1.05700
H 	H 	0.27790 0.12800 0.73650 -0.30200
C 	C 	0.30870 0.13820 0.70980 -1.57100
H 	H 	0.32450 0.13310 0.72140 0.48600
H 	H 	0.30460 0.15780 0.71240 0.45300
H 	H 	0.31320 0.13480 0.69040 0.47800
C 	C 	0.25920 0.12790 0.69780 -1.53400
H 	H 	0.25640 0.14790 0.69710 0.45800
H 	H 	0.24240 0.11900 0.70450 0.49200
H 	H 	0.26360 0.12100 0.67930 0.48000
N 	N 	0.28120 0.04232 0.84078 -0.17800
C 	C 	0.25820 0.04710 0.85640 0.39100
O 	O 	0.24550 0.06790 0.85820 -0.29100
O 	O 	0.24830 0.02370 0.86820 -0.24200
C 	C 	0.26310 0.00200 0.85730 0.01000
H 	H 	0.25110 0.99140 0.84460 0.07100
H 	H 	0.26870 0.98950 0.87240 0.06200
C 	C 	0.28990 0.01200 0.84090 0.00700
H 	H 	0.28820 0.00500 0.82160 0.04700
O 	O 	0.30439 0.99732 0.70194 -0.45800
N 	N 	0.33334 0.99546 0.65848 -0.12300
C 	C 	0.30454 0.99546 0.67698 0.99200
H 	H 	0.32850 0.99830 0.70390 -0.55600
C 	C 	0.32396 0.99158 0.62877 -0.09000
H 	H 	0.32990 0.00580 0.61540 0.07900
H 	H 	0.30470 0.98520 0.62600 0.08200
C 	C 	0.27786 0.53864 0.27505 0.41700
O 	O 	0.28903 0.52950 0.25300 -0.45200
O 	O 	0.25556 0.53030 0.28588 -0.45600
C 	C 	0.29286 0.56257 0.28928 -0.20900
C 	C 	0.30749 0.58295 0.27381 0.16400
C 	C 	0.31979 0.60532 0.28688 -0.20300
H 	H 	0.32920 0.61870 0.27620 0.08700
C 	C 	0.31849 0.60839 0.31624 0.10300
C 	C 	0.30387 0.58822 0.33163 -0.21200
H 	H 	0.30280 0.58990 0.35110 0.11700
C 	C 	0.29099 0.56584 0.31871 0.17600
C 	C 	0.35513 0.64626 0.31904 -0.07700
H 	H 	0.36340 0.63870 0.30300 0.05100
C 	C 	0.33126 0.63346 0.33029 -0.00500
N 	N 	0.31096 0.58494 0.24143 -0.11500
C 	C 	0.33350 0.57210 0.22860 0.34900
O 	O 	0.35440 0.56320 0.23950 -0.26100
O 	O 	0.32810 0.56875 0.20144 -0.29500
C 	C 	0.29830 0.57680 0.19500 0.26200
H 	H 	0.29750 0.58940 0.17900 -0.05700
H 	H 	0.28710 0.56020 0.19100 -0.02000
C 	C 	0.28832 0.59104 0.22102 -0.50500
H 	H 	0.27080 0.58210 0.22740 0.19200
C 	C 	0.28370 0.62115 0.21790 1.05700
H 	H 	0.27790 0.62800 0.23650 -0.30200
C 	C 	0.30870 0.63820 0.20980 -1.57100
H 	H 	0.32450 0.63310 0.22140 0.48600
H 	H 	0.30460 0.65780 0.21240 0.45300
H 	H 	0.31320 0.63480 0.19040 0.47800
C 	C 	0.25920 0.62790 0.19780 -1.53400
H 	H 	0.25640 0.64790 0.19710 0.45800
H 	H 	0.24240 0.61900 0.20450 0.49200
H 	H 	0.26360 0.62100 0.17930 0.48000
N 	N 	0.28120 0.54232 0.34078 -0.17800
C 	C 	0.25820 0.54710 0.35640 0.39100
O 	O 	0.24550 0.56790 0.35820 -0.29100
O 	O 	0.24830 0.52370 0.36820 -0.24300
C 	C 	0.26310 0.50200 0.35730 0.01800
H 	H 	0.25110 0.49140 0.34460 0.06700
H 	H 	0.26870 0.48950 0.37240 0.05800
C 	C 	0.28990 0.51200 0.34090 0.00500
H 	H 	0.28820 0.50500 0.32160 0.04800
O 	O 	0.30439 0.49732 0.20194 -0.44700
N 	N 	0.33334 0.49546 0.15848 -0.12700
C 	C 	0.30454 0.49546 0.17698 1.00400
H 	H 	0.32850 0.49830 0.20390 -0.55200
C 	C 	0.32396 0.49158 0.12877 -0.09200
H 	H 	0.32990 0.50580 0.11540 0.08100
H 	H 	0.30470 0.48520 0.12600 0.08200
C 	C 	0.77786 0.03864 0.27505 0.41700
O 	O 	0.78903 0.02950 0.25300 -0.45300
O 	O 	0.75556 0.03030 0.28588 -0.45600
C 	C 	0.79286 0.06257 0.28928 -0.20900
C 	C 	0.80749 0.08295 0.27381 0.16400
C 	C 	0.81979 0.10532 0.28688 -0.20300
H 	H 	0.82920 0.11870 0.27620 0.08700
C 	C 	0.81849 0.10839 0.31624 0.10300
C 	C 	0.80387 0.08822 0.33163 -0.21200
H 	H 	0.80280 0.08990 0.35110 0.11700
C 	C 	0.79099 0.06584 0.31871 0.17600
C 	C 	0.85513 0.14626 0.31904 -0.07700
H 	H 	0.86340 0.13870 0.30300 0.05100
C 	C 	0.83126 0.13346 0.33029 -0.00500
N 	N 	0.81096 0.08494 0.24143 -0.11500
C 	C 	0.83350 0.07210 0.22860 0.34900
O 	O 	0.85440 0.06320 0.23950 -0.26100
O 	O 	0.82810 0.06875 0.20144 -0.29600
C 	C 	0.79830 0.07680 0.19500 0.26300
H 	H 	0.79750 0.08940 0.17900 -0.05800
H 	H 	0.78710 0.06020 0.19100 -0.02100
C 	C 	0.78832 0.09104 0.22102 -0.50500
H 	H 	0.77080 0.08210 0.22740 0.19200
C 	C 	0.78370 0.12115 0.21790 1.05700
H 	H 	0.77790 0.12800 0.23650 -0.30200
C 	C 	0.80870 0.13820 0.20980 -1.57100
H 	H 	0.82450 0.13310 0.22140 0.48600
H 	H 	0.80460 0.15780 0.21240 0.45300
H 	H 	0.81320 0.13480 0.19040 0.47800
C 	C 	0.75920 0.12790 0.19780 -1.53400
H 	H 	0.75640 0.14790 0.19710 0.45800
H 	H 	0.74240 0.11900 0.20450 0.49200
H 	H 	0.76360 0.12100 0.17930 0.48000
N 	N 	0.78120 0.04232 0.34078 -0.17800
C 	C 	0.75820 0.04710 0.35640 0.39100
O 	O 	0.74550 0.06790 0.35820 -0.29100
O 	O 	0.74830 0.02370 0.36820 -0.24200
C 	C 	0.76310 0.00200 0.35730 0.01000
H 	H 	0.75110 0.99140 0.34460 0.07000
H 	H 	0.76870 0.98950 0.37240 0.06200
C 	C 	0.78990 0.01200 0.34090 0.00700
H 	H 	0.78820 0.00500 0.32160 0.04700
O 	O 	0.80439 0.99732 0.20194 -0.45800
N 	N 	0.83334 0.99546 0.15848 -0.12300
C 	C 	0.80454 0.99546 0.17698 0.99200
H 	H 	0.82850 0.99830 0.20390 -0.55600
C 	C 	0.82396 0.99158 0.12877 -0.09000
H 	H 	0.82990 0.00580 0.11540 0.07900
H 	H 	0.80470 0.98520 0.12600 0.08200
C 	C 	0.77786 0.53864 0.77505 0.41700
O 	O 	0.78903 0.52950 0.75300 -0.45200
O 	O 	0.75556 0.53030 0.78588 -0.45600
C 	C 	0.79286 0.56257 0.78928 -0.20900
C 	C 	0.80749 0.58295 0.77381 0.16400
C 	C 	0.81979 0.60532 0.78688 -0.20300
H 	H 	0.82920 0.61870 0.77620 0.08700
C 	C 	0.81849 0.60839 0.81624 0.10300
C 	C 	0.80387 0.58822 0.83163 -0.21200
H 	H 	0.80280 0.58990 0.85110 0.11700
C 	C 	0.79099 0.56584 0.81871 0.17600
C 	C 	0.85513 0.64626 0.81904 -0.07700
H 	H 	0.86340 0.63870 0.80300 0.05100
C 	C 	0.83126 0.63346 0.83029 -0.00500
N 	N 	0.81096 0.58494 0.74143 -0.11500
C 	C 	0.83350 0.57210 0.72860 0.34900
O 	O 	0.85440 0.56320 0.73950 -0.26100
O 	O 	0.82810 0.56875 0.70144 -0.29500
C 	C 	0.79830 0.57680 0.69500 0.26200
H 	H 	0.79750 0.58940 0.67900 -0.05700
H 	H 	0.78710 0.56020 0.69100 -0.02000
C 	C 	0.78832 0.59104 0.72102 -0.50500
H 	H 	0.77080 0.58210 0.72740 0.19200
C 	C 	0.78370 0.62115 0.71790 1.05700
H 	H 	0.77790 0.62800 0.73650 -0.30200
C 	C 	0.80870 0.63820 0.70980 -1.57100
H 	H 	0.82450 0.63310 0.72140 0.48600
H 	H 	0.80460 0.65780 0.71240 0.45300
H 	H 	0.81320 0.63480 0.69040 0.47800
C 	C 	0.75920 0.62790 0.69780 -1.53400
H 	H 	0.75640 0.64790 0.69710 0.45800
H 	H 	0.74240 0.61900 0.70450 0.49200
H 	H 	0.76360 0.62100 0.67930 0.48000
N 	N 	0.78120 0.54232 0.84078 -0.17800
C 	C 	0.75820 0.54710 0.85640 0.39100
O 	O 	0.74550 0.56790 0.85820 -0.29100
O 	O 	0.74830 0.52370 0.86820 -0.24300
C 	C 	0.76310 0.50200 0.85730 0.01800
H 	H 	0.75110 0.49140 0.84460 0.06700
H 	H 	0.76870 0.48950 0.87240 0.05900
C 	C 	0.78990 0.51200 0.84090 0.00500
H 	H 	0.78820 0.50500 0.82160 0.04800
O 	O 	0.80439 0.49732 0.70194 -0.44700
N 	N 	0.83334 0.49546 0.65848 -0.12700
C 	C 	0.80454 0.49546 0.67698 1.00400
H 	H 	0.82850 0.49830 0.70390 -0.55200
C 	C 	0.82396 0.49158 0.62877 -0.09200
H 	H 	0.82990 0.50580 0.61540 0.08100
H 	H 	0.80470 0.48520 0.62600 0.08200
C 	C 	0.72214 0.03864 0.22495 0.41700
O 	O 	0.71097 0.02950 0.24700 -0.45300
O 	O 	0.74444 0.03030 0.21412 -0.45600
C 	C 	0.70714 0.06257 0.21072 -0.20900
C 	C 	0.69251 0.08295 0.22619 0.16400
C 	C 	0.68021 0.10532 0.21312 -0.20300
H 	H 	0.67080 0.11870 0.22380 0.08700
C 	C 	0.68151 0.10839 0.18376 0.10300
C 	C 	0.69613 0.08822 0.16837 -0.21200
H 	H 	0.69720 0.08990 0.14890 0.11700
C 	C 	0.70901 0.06584 0.18129 0.17600
C 	C 	0.64487 0.14626 0.18096 -0.07700
H 	H 	0.63660 0.13870 0.19700 0.05100
C 	C 	0.66874 0.13346 0.16971 -0.00500
N 	N 	0.68904 0.08494 0.25857 -0.11500
C 	C 	0.66650 0.07210 0.27140 0.34900
O 	O 	0.64560 0.06320 0.26050 -0.26100
O 	O 	0.67190 0.06875 0.29856 -0.29600
C 	C 	0.70170 0.07680 0.30500 0.26300
H 	H 	0.70250 0.08940 0.32100 -0.05800
H 	H 	0.71290 0.06020 0.30900 -0.02100
C 	C 	0.71168 0.09104 0.27898 -0.50500
H 	H 	0.72920 0.08210 0.27260 0.19200
C 	C 	0.71630 0.12115 0.28210 1.05700
H 	H 	0.72210 0.12800 0.26350 -0.30200
C 	C 	0.69130 0.13820 0.29020 -1.57100
H 	H 	0.67550 0.13310 0.27860 0.48600
H 	H 	0.69540 0.15780 0.28760 0.45300
H 	H 	0.68680 0.13480 0.30960 0.47800
C 	C 	0.74080 0.12790 0.30220 -1.53400
H 	H 	0.74360 0.14790 0.30290 0.45800
H 	H 	0.75760 0.11900 0.29550 0.49200
H 	H 	0.73640 0.12100 0.32070 0.48000
N 	N 	0.71880 0.04232 0.15922 -0.17800
C 	C 	0.74180 0.04710 0.14360 0.39100
O 	O 	0.75450 0.06790 0.14180 -0.29100
O 	O 	0.75170 0.02370 0.13180 -0.24200
C 	C 	0.73690 0.00200 0.14270 0.01000
H 	H 	0.74890 0.99140 0.15540 0.07000
H 	H 	0.73130 0.98950 0.12760 0.06200
C 	C 	0.71010 0.01200 0.15910 0.00700
H 	H 	0.71180 0.00500 0.17840 0.04700
O 	O 	0.69561 0.99732 0.29806 -0.45800
N 	N 	0.66666 0.99546 0.34152 -0.12300
C 	C 	0.69546 0.99546 0.32302 0.99200
H 	H 	0.67150 0.99830 0.29610 -0.55600
C 	C 	0.67604 0.99158 0.37123 -0.09000
H 	H 	0.67010 0.00580 0.38460 0.07900
H 	H 	0.69530 0.98520 0.37400 0.08200
C 	C 	0.72214 0.53864 0.72495 0.41700
O 	O 	0.71097 0.52950 0.74700 -0.45200
O 	O 	0.74444 0.53030 0.71412 -0.45600
C 	C 	0.70714 0.56257 0.71072 -0.20900
C 	C 	0.69251 0.58295 0.72619 0.16400
C 	C 	0.68021 0.60532 0.71312 -0.20300
H 	H 	0.67080 0.61870 0.72380 0.08700
C 	C 	0.68151 0.60839 0.68376 0.10300
C 	C 	0.69613 0.58822 0.66837 -0.21200
H 	H 	0.69720 0.58990 0.64890 0.11700
C 	C 	0.70901 0.56584 0.68129 0.17600
C 	C 	0.64487 0.64626 0.68096 -0.07700
H 	H 	0.63660 0.63870 0.69700 0.05100
C 	C 	0.66874 0.63346 0.66971 -0.00500
N 	N 	0.68904 0.58494 0.75857 -0.11500
C 	C 	0.66650 0.57210 0.77140 0.34900
O 	O 	0.64560 0.56320 0.76050 -0.26100
O 	O 	0.67190 0.56875 0.79856 -0.29500
C 	C 	0.70170 0.57680 0.80500 0.26200
H 	H 	0.70250 0.58940 0.82100 -0.05700
H 	H 	0.71290 0.56020 0.80900 -0.02000
C 	C 	0.71168 0.59104 0.77898 -0.50500
H 	H 	0.72920 0.58210 0.77260 0.19200
C 	C 	0.71630 0.62115 0.78210 1.05700
H 	H 	0.72210 0.62800 0.76350 -0.30200
C 	C 	0.69130 0.63820 0.79020 -1.57100
H 	H 	0.67550 0.63310 0.77860 0.48600
H 	H 	0.69540 0.65780 0.78760 0.45300
H 	H 	0.68680 0.63480 0.80960 0.47800
C 	C 	0.74080 0.62790 0.80220 -1.53400
H 	H 	0.74360 0.64790 0.80290 0.45800
H 	H 	0.75760 0.61900 0.79550 0.49200
H 	H 	0.73640 0.62100 0.82070 0.48000
N 	N 	0.71880 0.54232 0.65922 -0.17800
C 	C 	0.74180 0.54710 0.64360 0.39100
O 	O 	0.75450 0.56790 0.64180 -0.29100
O 	O 	0.75170 0.52370 0.63180 -0.24300
C 	C 	0.73690 0.50200 0.64270 0.01800
H 	H 	0.74890 0.49140 0.65540 0.06700
H 	H 	0.73130 0.48950 0.62760 0.05800
C 	C 	0.71010 0.51200 0.65910 0.00500
H 	H 	0.71180 0.50500 0.67840 0.04800
O 	O 	0.69561 0.49732 0.79806 -0.44700
N 	N 	0.66666 0.49546 0.84152 -0.12700
C 	C 	0.69546 0.49546 0.82302 1.00400
H 	H 	0.67150 0.49830 0.79610 -0.55200
C 	C 	0.67604 0.49158 0.87123 -0.09200
H 	H 	0.67010 0.50580 0.88460 0.08100
H 	H 	0.69530 0.48520 0.87400 0.08200
C 	C 	0.22214 0.03864 0.72495 0.41700
O 	O 	0.21097 0.02950 0.74700 -0.45300
O 	O 	0.24444 0.03030 0.71412 -0.45600
C 	C 	0.20714 0.06257 0.71072 -0.20900
C 	C 	0.19251 0.08295 0.72619 0.16400
C 	C 	0.18021 0.10532 0.71312 -0.20300
H 	H 	0.17080 0.11870 0.72380 0.08700
C 	C 	0.18151 0.10839 0.68376 0.10300
C 	C 	0.19613 0.08822 0.66837 -0.21200
H 	H 	0.19720 0.08990 0.64890 0.11700
C 	C 	0.20901 0.06584 0.68129 0.17600
C 	C 	0.14487 0.14626 0.68096 -0.07700
H 	H 	0.13660 0.13870 0.69700 0.05100
C 	C 	0.16874 0.13346 0.66971 -0.00500
N 	N 	0.18904 0.08494 0.75857 -0.11500
C 	C 	0.16650 0.07210 0.77140 0.34900
O 	O 	0.14560 0.06320 0.76050 -0.26100
O 	O 	0.17190 0.06875 0.79856 -0.29600
C 	C 	0.20170 0.07680 0.80500 0.26300
H 	H 	0.20250 0.08940 0.82100 -0.05700
H 	H 	0.21290 0.06020 0.80900 -0.02100
C 	C 	0.21168 0.09104 0.77898 -0.50500
H 	H 	0.22920 0.08210 0.77260 0.19200
C 	C 	0.21630 0.12115 0.78210 1.05700
H 	H 	0.22210 0.12800 0.76350 -0.30200
C 	C 	0.19130 0.13820 0.79020 -1.57100
H 	H 	0.17550 0.13310 0.77860 0.48600
H 	H 	0.19540 0.15780 0.78760 0.45300
H 	H 	0.18680 0.13480 0.80960 0.47800
C 	C 	0.24080 0.12790 0.80220 -1.53400
H 	H 	0.24360 0.14790 0.80290 0.45800
H 	H 	0.25760 0.11900 0.79550 0.49200
H 	H 	0.23640 0.12100 0.82070 0.48000
N 	N 	0.21880 0.04232 0.65922 -0.17800
C 	C 	0.24180 0.04710 0.64360 0.39100
O 	O 	0.25450 0.06790 0.64180 -0.29100
O 	O 	0.25170 0.02370 0.63180 -0.24200
C 	C 	0.23690 0.00200 0.64270 0.01000
H 	H 	0.24890 0.99140 0.65540 0.07000
H 	H 	0.23130 0.98950 0.62760 0.06200
C 	C 	0.21010 0.01200 0.65910 0.00700
H 	H 	0.21180 0.00500 0.67840 0.04700
O 	O 	0.19561 0.99732 0.79806 -0.45800
N 	N 	0.16666 0.99546 0.84152 -0.12300
C 	C 	0.19546 0.99546 0.82302 0.99200
H 	H 	0.17150 0.99830 0.79610 -0.55600
C 	C 	0.17604 0.99158 0.87123 -0.09000
H 	H 	0.17010 0.00580 0.88460 0.07900
H 	H 	0.19530 0.98520 0.87400 0.08200
C 	C 	0.22214 0.53864 0.22495 0.41700
O 	O 	0.21097 0.52950 0.24700 -0.45200
O 	O 	0.24444 0.53030 0.21412 -0.45600
C 	C 	0.20714 0.56257 0.21072 -0.20900
C 	C 	0.19251 0.58295 0.22619 0.16400
C 	C 	0.18021 0.60532 0.21312 -0.20300
H 	H 	0.17080 0.61870 0.22380 0.08700
C 	C 	0.18151 0.60839 0.18376 0.10300
C 	C 	0.19613 0.58822 0.16837 -0.21200
H 	H 	0.19720 0.58990 0.14890 0.11700
C 	C 	0.20901 0.56584 0.18129 0.17600
C 	C 	0.14487 0.64626 0.18096 -0.07700
H 	H 	0.13660 0.63870 0.19700 0.05100
C 	C 	0.16874 0.63346 0.16971 -0.00500
N 	N 	0.18904 0.58494 0.25857 -0.11500
C 	C 	0.16650 0.57210 0.27140 0.34900
O 	O 	0.14560 0.56320 0.26050 -0.26100
O 	O 	0.17190 0.56875 0.29856 -0.29500
C 	C 	0.20170 0.57680 0.30500 0.26200
H 	H 	0.20250 0.58940 0.32100 -0.05700
H 	H 	0.21290 0.56020 0.30900 -0.02000
C 	C 	0.21168 0.59104 0.27898 -0.50500
H 	H 	0.22920 0.58210 0.27260 0.19200
C 	C 	0.21630 0.62115 0.28210 1.05700
H 	H 	0.22210 0.62800 0.26350 -0.30200
C 	C 	0.19130 0.63820 0.29020 -1.57100
H 	H 	0.17550 0.63310 0.27860 0.48600
H 	H 	0.19540 0.65780 0.28760 0.45300
H 	H 	0.18680 0.63480 0.30960 0.47800
C 	C 	0.24080 0.62790 0.30220 -1.53400
H 	H 	0.24360 0.64790 0.30290 0.45800
H 	H 	0.25760 0.61900 0.29550 0.49200
H 	H 	0.23640 0.62100 0.32070 0.48000
N 	N 	0.21880 0.54232 0.15922 -0.17800
C 	C 	0.24180 0.54710 0.14360 0.39100
O 	O 	0.25450 0.56790 0.14180 -0.29100
O 	O 	0.25170 0.52370 0.13180 -0.24300
C 	C 	0.23690 0.50200 0.14270 0.01800
H 	H 	0.24890 0.49140 0.15540 0.06700
H 	H 	0.23130 0.48950 0.12760 0.05800
C 	C 	0.21010 0.51200 0.15910 0.00500
H 	H 	0.21180 0.50500 0.17840 0.04800
O 	O 	0.19561 0.49732 0.29806 -0.44700
N 	N 	0.16666 0.49546 0.34152 -0.12700
C 	C 	0.19546 0.49546 0.32302 1.00400
H 	H 	0.17150 0.49830 0.29610 -0.55200
C 	C 	0.17604 0.49158 0.37123 -0.09200
H 	H 	0.17010 0.50580 0.38460 0.08100
H 	H 	0.19530 0.48520 0.37400 0.08200
C 	C 	0.27786 0.96136 0.22495 0.41700
O 	O 	0.28903 0.97050 0.24700 -0.45200
O 	O 	0.25556 0.96970 0.21412 -0.45500
C 	C 	0.29286 0.93743 0.21072 -0.20800
C 	C 	0.30749 0.91705 0.22619 0.16400
C 	C 	0.31979 0.89468 0.21312 -0.20300
H 	H 	0.32920 0.88130 0.22380 0.08700
C 	C 	0.31849 0.89161 0.18376 0.10300
C 	C 	0.30387 0.91178 0.16837 -0.21200
H 	H 	0.30280 0.91010 0.14890 0.11700
C 	C 	0.29099 0.93416 0.18129 0.17600
C 	C 	0.35513 0.85374 0.18096 -0.07700
H 	H 	0.36340 0.86130 0.19700 0.05100
C 	C 	0.33126 0.86654 0.16971 -0.00500
N 	N 	0.31096 0.91506 0.25857 -0.11500
C 	C 	0.33350 0.92790 0.27140 0.34900
O 	O 	0.35440 0.93680 0.26050 -0.26100
O 	O 	0.32810 0.93125 0.29856 -0.29500
C 	C 	0.29830 0.92320 0.30500 0.26200
H 	H 	0.29750 0.91060 0.32100 -0.05700
H 	H 	0.28710 0.93980 0.30900 -0.02000
C 	C 	0.28832 0.90896 0.27898 -0.50500
H 	H 	0.27080 0.91790 0.27260 0.19200
C 	C 	0.28370 0.87885 0.28210 1.05700
H 	H 	0.27790 0.87200 0.26350 -0.30100
C 	C 	0.30870 0.86180 0.29020 -1.57100
H 	H 	0.32450 0.86690 0.27860 0.48600
H 	H 	0.30460 0.84220 0.28760 0.45300
H 	H 	0.31320 0.86520 0.30960 0.47800
C 	C 	0.25920 0.87210 0.30220 -1.53400
H 	H 	0.25640 0.85210 0.30290 0.45800
H 	H 	0.24240 0.88100 0.29550 0.49200
H 	H 	0.26360 0.87900 0.32070 0.48000
N 	N 	0.28120 0.95768 0.15922 -0.17700
C 	C 	0.25820 0.95290 0.14360 0.39100
O 	O 	0.24550 0.93210 0.14180 -0.29100
O 	O 	0.24830 0.97630 0.13180 -0.24400
C 	C 	0.26310 0.99800 0.14270 0.02600
H 	H 	0.25110 0.00860 0.15540 0.06400
H 	H 	0.26870 0.01050 0.12760 0.05500
C 	C 	0.28990 0.98800 0.15910 0.00400
H 	H 	0.28820 0.99500 0.17840 0.04900
O 	O 	0.30439 0.00268 0.29806 -0.43500
N 	N 	0.33334 0.00454 0.34152 -0.13100
C 	C 	0.30454 0.00454 0.32302 1.01500
H 	H 	0.32850 0.00170 0.29610 -0.54700
C 	C 	0.32396 0.00842 0.37123 -0.09500
H 	H 	0.32990 0.99420 0.38460 0.08300
H 	H 	0.30470 0.01480 0.37400 0.08300
C 	C 	0.27786 0.46136 0.72495 0.41700
O 	O 	0.28903 0.47050 0.74700 -0.45200
O 	O 	0.25556 0.46970 0.71412 -0.45600
C 	C 	0.29286 0.43743 0.71072 -0.20900
C 	C 	0.30749 0.41705 0.72619 0.16400
C 	C 	0.31979 0.39468 0.71312 -0.20300
H 	H 	0.32920 0.38130 0.72380 0.08700
C 	C 	0.31849 0.39161 0.68376 0.10300
C 	C 	0.30387 0.41178 0.66837 -0.21200
H 	H 	0.30280 0.41010 0.64890 0.11700
C 	C 	0.29099 0.43416 0.68129 0.17600
C 	C 	0.35513 0.35374 0.68096 -0.07700
H 	H 	0.36340 0.36130 0.69700 0.05100
C 	C 	0.33126 0.36654 0.66971 -0.00500
N 	N 	0.31096 0.41506 0.75857 -0.11500
C 	C 	0.33350 0.42790 0.77140 0.34900
O 	O 	0.35440 0.43680 0.76050 -0.26100
O 	O 	0.32810 0.43125 0.79856 -0.29500
C 	C 	0.29830 0.42320 0.80500 0.26200
H 	H 	0.29750 0.41060 0.82100 -0.05700
H 	H 	0.28710 0.43980 0.80900 -0.02000
C 	C 	0.28832 0.40896 0.77898 -0.50500
H 	H 	0.27080 0.41790 0.77260 0.19200
C 	C 	0.28370 0.37885 0.78210 1.05700
H 	H 	0.27790 0.37200 0.76350 -0.30200
C 	C 	0.30870 0.36180 0.79020 -1.57100
H 	H 	0.32450 0.36690 0.77860 0.48600
H 	H 	0.30460 0.34220 0.78760 0.45300
H 	H 	0.31320 0.36520 0.80960 0.47800
C 	C 	0.25920 0.37210 0.80220 -1.53400
H 	H 	0.25640 0.35210 0.80290 0.45800
H 	H 	0.24240 0.38100 0.79550 0.49200
H 	H 	0.26360 0.37900 0.82070 0.48000
N 	N 	0.28120 0.45768 0.65922 -0.17800
C 	C 	0.25820 0.45290 0.64360 0.39100
O 	O 	0.24550 0.43210 0.64180 -0.29100
O 	O 	0.24830 0.47630 0.63180 -0.24300
C 	C 	0.26310 0.49800 0.64270 0.01800
H 	H 	0.25110 0.50860 0.65540 0.06700
H 	H 	0.26870 0.51050 0.62760 0.05800
C 	C 	0.28990 0.48800 0.65910 0.00500
H 	H 	0.28820 0.49500 0.67840 0.04800
O 	O 	0.30439 0.50268 0.79806 -0.44700
N 	N 	0.33334 0.50454 0.84152 -0.12700
C 	C 	0.30454 0.50454 0.82302 1.00400
H 	H 	0.32850 0.50170 0.79610 -0.55200
C 	C 	0.32396 0.50842 0.87123 -0.09200
H 	H 	0.32990 0.49420 0.88460 0.08100
H 	H 	0.30470 0.51480 0.87400 0.08200
C 	C 	0.77786 0.96136 0.72495 0.41700
O 	O 	0.78903 0.97050 0.74700 -0.45200
O 	O 	0.75556 0.96970 0.71412 -0.45500
C 	C 	0.79286 0.93743 0.71072 -0.20800
C 	C 	0.80749 0.91705 0.72619 0.16400
C 	C 	0.81979 0.89468 0.71312 -0.20300
H 	H 	0.82920 0.88130 0.72380 0.08700
C 	C 	0.81849 0.89161 0.68376 0.10300
C 	C 	0.80387 0.91178 0.66837 -0.21200
H 	H 	0.80280 0.91010 0.64890 0.11700
C 	C 	0.79099 0.93416 0.68129 0.17600
C 	C 	0.85513 0.85374 0.68096 -0.07700
H 	H 	0.86340 0.86130 0.69700 0.05100
C 	C 	0.83126 0.86654 0.66971 -0.00500
N 	N 	0.81096 0.91506 0.75857 -0.11500
C 	C 	0.83350 0.92790 0.77140 0.34900
O 	O 	0.85440 0.93680 0.76050 -0.26000
O 	O 	0.82810 0.93125 0.79856 -0.29500
C 	C 	0.79830 0.92320 0.80500 0.26200
H 	H 	0.79750 0.91060 0.82100 -0.05700
H 	H 	0.78710 0.93980 0.80900 -0.02000
C 	C 	0.78832 0.90896 0.77898 -0.50500
H 	H 	0.77080 0.91790 0.77260 0.19200
C 	C 	0.78370 0.87885 0.78210 1.05700
H 	H 	0.77790 0.87200 0.76350 -0.30100
C 	C 	0.80870 0.86180 0.79020 -1.57100
H 	H 	0.82450 0.86690 0.77860 0.48600
H 	H 	0.80460 0.84220 0.78760 0.45300
H 	H 	0.81320 0.86520 0.80960 0.47800
C 	C 	0.75920 0.87210 0.80220 -1.53400
H 	H 	0.75640 0.85210 0.80290 0.45800
H 	H 	0.74240 0.88100 0.79550 0.49200
H 	H 	0.76360 0.87900 0.82070 0.48000
N 	N 	0.78120 0.95768 0.65922 -0.17700
C 	C 	0.75820 0.95290 0.64360 0.39100
O 	O 	0.74550 0.93210 0.64180 -0.29100
O 	O 	0.74830 0.97630 0.63180 -0.24400
C 	C 	0.76310 0.99800 0.64270 0.02600
H 	H 	0.75110 0.00860 0.65540 0.06400
H 	H 	0.76870 0.01050 0.62760 0.05500
C 	C 	0.78990 0.98800 0.65910 0.00400
H 	H 	0.78820 0.99500 0.67840 0.04900
O 	O 	0.80439 0.00268 0.79806 -0.43500
N 	N 	0.83334 0.00454 0.84152 -0.13100
C 	C 	0.80454 0.00454 0.82302 1.01500
H 	H 	0.82850 0.00170 0.79610 -0.54700
C 	C 	0.82396 0.00842 0.87123 -0.09500
H 	H 	0.82990 0.99420 0.88460 0.08300
H 	H 	0.80470 0.01480 0.87400 0.08300
C 	C 	0.77786 0.46136 0.22495 0.41700
O 	O 	0.78903 0.47050 0.24700 -0.45200
O 	O 	0.75556 0.46970 0.21412 -0.45600
C 	C 	0.79286 0.43743 0.21072 -0.20900
C 	C 	0.80749 0.41705 0.22619 0.16400
C 	C 	0.81979 0.39468 0.21312 -0.20300
H 	H 	0.82920 0.38130 0.22380 0.08700
C 	C 	0.81849 0.39161 0.18376 0.10300
C 	C 	0.80387 0.41178 0.16837 -0.21200
H 	H 	0.80280 0.41010 0.14890 0.11700
C 	C 	0.79099 0.43416 0.18129 0.17600
C 	C 	0.85513 0.35374 0.18096 -0.07700
H 	H 	0.86340 0.36130 0.19700 0.05100
C 	C 	0.83126 0.36654 0.16971 -0.00500
N 	N 	0.81096 0.41506 0.25857 -0.11500
C 	C 	0.83350 0.42790 0.27140 0.34900
O 	O 	0.85440 0.43680 0.26050 -0.26100
O 	O 	0.82810 0.43125 0.29856 -0.29500
C 	C 	0.79830 0.42320 0.30500 0.26200
H 	H 	0.79750 0.41060 0.32100 -0.05700
H 	H 	0.78710 0.43980 0.30900 -0.02000
C 	C 	0.78832 0.40896 0.27898 -0.50500
H 	H 	0.77080 0.41790 0.27260 0.19200
C 	C 	0.78370 0.37885 0.28210 1.05700
H 	H 	0.77790 0.37200 0.26350 -0.30200
C 	C 	0.80870 0.36180 0.29020 -1.57100
H 	H 	0.82450 0.36690 0.27860 0.48600
H 	H 	0.80460 0.34220 0.28760 0.45300
H 	H 	0.81320 0.36520 0.30960 0.47800
C 	C 	0.75920 0.37210 0.30220 -1.53400
H 	H 	0.75640 0.35210 0.30290 0.45800
H 	H 	0.74240 0.38100 0.29550 0.49200
H 	H 	0.76360 0.37900 0.32070 0.48000
N 	N 	0.78120 0.45768 0.15922 -0.17800
C 	C 	0.75820 0.45290 0.14360 0.39100
O 	O 	0.74550 0.43210 0.14180 -0.29100
O 	O 	0.74830 0.47630 0.13180 -0.24300
C 	C 	0.76310 0.49800 0.14270 0.01800
H 	H 	0.75110 0.50860 0.15540 0.06700
H 	H 	0.76870 0.51050 0.12760 0.05800
C 	C 	0.78990 0.48800 0.15910 0.00500
H 	H 	0.78820 0.49500 0.17840 0.04800
O 	O 	0.80439 0.50268 0.29806 -0.44700
N 	N 	0.83334 0.50454 0.34152 -0.12700
C 	C 	0.80454 0.50454 0.32302 1.00400
H 	H 	0.82850 0.50170 0.29610 -0.55200
C 	C 	0.82396 0.50842 0.37123 -0.09200
H 	H 	0.82990 0.49420 0.38460 0.08100
H 	H 	0.80470 0.51480 0.37400 0.08200
C 	C 	0.96136 0.22495 0.27786 0.41700
O 	O 	0.97050 0.24700 0.28903 -0.45200
O 	O 	0.96970 0.21412 0.25556 -0.45500
C 	C 	0.93743 0.21072 0.29286 -0.20800
C 	C 	0.91705 0.22619 0.30749 0.16400
C 	C 	0.89468 0.21312 0.31979 -0.20300
H 	H 	0.88130 0.22380 0.32920 0.08700
C 	C 	0.89161 0.18376 0.31849 0.10300
C 	C 	0.91178 0.16837 0.30387 -0.21200
H 	H 	0.91010 0.14890 0.30280 0.11700
C 	C 	0.93416 0.18129 0.29099 0.17600
C 	C 	0.85374 0.18096 0.35513 -0.07700
H 	H 	0.86130 0.19700 0.36340 0.05100
C 	C 	0.86654 0.16971 0.33126 -0.00500
N 	N 	0.91506 0.25857 0.31096 -0.11500
C 	C 	0.92790 0.27140 0.33350 0.34900
O 	O 	0.93680 0.26050 0.35440 -0.26100
O 	O 	0.93125 0.29856 0.32810 -0.29500
C 	C 	0.92320 0.30500 0.29830 0.26200
H 	H 	0.91060 0.32100 0.29750 -0.05700
H 	H 	0.93980 0.30900 0.28710 -0.02000
C 	C 	0.90896 0.27898 0.28832 -0.50500
H 	H 	0.91790 0.27260 0.27080 0.19200
C 	C 	0.87885 0.28210 0.28370 1.05700
H 	H 	0.87200 0.26350 0.27790 -0.30100
C 	C 	0.86180 0.29020 0.30870 -1.57100
H 	H 	0.86690 0.27860 0.32450 0.48600
H 	H 	0.84220 0.28760 0.30460 0.45300
H 	H 	0.86520 0.30960 0.31320 0.47800
C 	C 	0.87210 0.30220 0.25920 -1.53400
H 	H 	0.85210 0.30290 0.25640 0.45800
H 	H 	0.88100 0.29550 0.24240 0.49200
H 	H 	0.87900 0.32070 0.26360 0.48000
N 	N 	0.95768 0.15922 0.28120 -0.17700
C 	C 	0.95290 0.14360 0.25820 0.39100
O 	O 	0.93210 0.14180 0.24550 -0.29100
O 	O 	0.97630 0.13180 0.24830 -0.24400
C 	C 	0.99800 0.14270 0.26310 0.02600
H 	H 	0.00860 0.15540 0.25110 0.06400
H 	H 	0.01050 0.12760 0.26870 0.05500
C 	C 	0.98800 0.15910 0.28990 0.00400
H 	H 	0.99500 0.17840 0.28820 0.04900
O 	O 	0.00268 0.29806 0.30439 -0.43500
N 	N 	0.00454 0.34152 0.33334 -0.13100
C 	C 	0.00454 0.32302 0.30454 1.01500
H 	H 	0.00170 0.29610 0.32850 -0.54700
C 	C 	0.00842 0.37123 0.32396 -0.09500
H 	H 	0.99420 0.38460 0.32990 0.08300
H 	H 	0.01480 0.37400 0.30470 0.08300
C 	C 	0.96136 0.72495 0.77786 0.41700
O 	O 	0.97050 0.74700 0.78903 -0.45200
O 	O 	0.96970 0.71412 0.75556 -0.45500
C 	C 	0.93743 0.71072 0.79286 -0.20800
C 	C 	0.91705 0.72619 0.80749 0.16400
C 	C 	0.89468 0.71312 0.81979 -0.20300
H 	H 	0.88130 0.72380 0.82920 0.08700
C 	C 	0.89161 0.68376 0.81849 0.10300
C 	C 	0.91178 0.66837 0.80387 -0.21200
H 	H 	0.91010 0.64890 0.80280 0.11700
C 	C 	0.93416 0.68129 0.79099 0.17600
C 	C 	0.85374 0.68096 0.85513 -0.07700
H 	H 	0.86130 0.69700 0.86340 0.05100
C 	C 	0.86654 0.66971 0.83126 -0.00500
N 	N 	0.91506 0.75857 0.81096 -0.11500
C 	C 	0.92790 0.77140 0.83350 0.34900
O 	O 	0.93680 0.76050 0.85440 -0.26000
O 	O 	0.93125 0.79856 0.82810 -0.29500
C 	C 	0.92320 0.80500 0.79830 0.26200
H 	H 	0.91060 0.82100 0.79750 -0.05700
H 	H 	0.93980 0.80900 0.78710 -0.02000
C 	C 	0.90896 0.77898 0.78832 -0.50500
H 	H 	0.91790 0.77260 0.77080 0.19200
C 	C 	0.87885 0.78210 0.78370 1.05700
H 	H 	0.87200 0.76350 0.77790 -0.30100
C 	C 	0.86180 0.79020 0.80870 -1.57100
H 	H 	0.86690 0.77860 0.82450 0.48600
H 	H 	0.84220 0.78760 0.80460 0.45300
H 	H 	0.86520 0.80960 0.81320 0.47800
C 	C 	0.87210 0.80220 0.75920 -1.53400
H 	H 	0.85210 0.80290 0.75640 0.45800
H 	H 	0.88100 0.79550 0.74240 0.49200
H 	H 	0.87900 0.82070 0.76360 0.48000
N 	N 	0.95768 0.65922 0.78120 -0.17700
C 	C 	0.95290 0.64360 0.75820 0.39100
O 	O 	0.93210 0.64180 0.74550 -0.29100
O 	O 	0.97630 0.63180 0.74830 -0.24400
C 	C 	0.99800 0.64270 0.76310 0.02600
H 	H 	0.00860 0.65540 0.75110 0.06400
H 	H 	0.01050 0.62760 0.76870 0.05500
C 	C 	0.98800 0.65910 0.78990 0.00400
H 	H 	0.99500 0.67840 0.78820 0.04900
O 	O 	0.00268 0.79806 0.80439 -0.43500
N 	N 	0.00454 0.84152 0.83334 -0.13100
C 	C 	0.00454 0.82302 0.80454 1.01500
H 	H 	0.00170 0.79610 0.82850 -0.54700
C 	C 	0.00842 0.87123 0.82396 -0.09500
H 	H 	0.99420 0.88460 0.82990 0.08300
H 	H 	0.01480 0.87400 0.80470 0.08300
C 	C 	0.46136 0.22495 0.77786 0.41700
O 	O 	0.47050 0.24700 0.78903 -0.45200
O 	O 	0.46970 0.21412 0.75556 -0.45600
C 	C 	0.43743 0.21072 0.79286 -0.20900
C 	C 	0.41705 0.22619 0.80749 0.16400
C 	C 	0.39468 0.21312 0.81979 -0.20300
H 	H 	0.38130 0.22380 0.82920 0.08700
C 	C 	0.39161 0.18376 0.81849 0.10300
C 	C 	0.41178 0.16837 0.80387 -0.21200
H 	H 	0.41010 0.14890 0.80280 0.11700
C 	C 	0.43416 0.18129 0.79099 0.17600
C 	C 	0.35374 0.18096 0.85513 -0.07700
H 	H 	0.36130 0.19700 0.86340 0.05100
C 	C 	0.36654 0.16971 0.83126 -0.00500
N 	N 	0.41506 0.25857 0.81096 -0.11500
C 	C 	0.42790 0.27140 0.83350 0.34900
O 	O 	0.43680 0.26050 0.85440 -0.26100
O 	O 	0.43125 0.29856 0.82810 -0.29500
C 	C 	0.42320 0.30500 0.79830 0.26200
H 	H 	0.41060 0.32100 0.79750 -0.05700
H 	H 	0.43980 0.30900 0.78710 -0.02000
C 	C 	0.40896 0.27898 0.78832 -0.50500
H 	H 	0.41790 0.27260 0.77080 0.19200
C 	C 	0.37885 0.28210 0.78370 1.05700
H 	H 	0.37200 0.26350 0.77790 -0.30200
C 	C 	0.36180 0.29020 0.80870 -1.57100
H 	H 	0.36690 0.27860 0.82450 0.48600
H 	H 	0.34220 0.28760 0.80460 0.45300
H 	H 	0.36520 0.30960 0.81320 0.47800
C 	C 	0.37210 0.30220 0.75920 -1.53400
H 	H 	0.35210 0.30290 0.75640 0.45800
H 	H 	0.38100 0.29550 0.74240 0.49200
H 	H 	0.37900 0.32070 0.76360 0.48000
N 	N 	0.45768 0.15922 0.78120 -0.17800
C 	C 	0.45290 0.14360 0.75820 0.39100
O 	O 	0.43210 0.14180 0.74550 -0.29100
O 	O 	0.47630 0.13180 0.74830 -0.24300
C 	C 	0.49800 0.14270 0.76310 0.01800
H 	H 	0.50860 0.15540 0.75110 0.06700
H 	H 	0.51050 0.12760 0.76870 0.05800
C 	C 	0.48800 0.15910 0.78990 0.00500
H 	H 	0.49500 0.17840 0.78820 0.04800
O 	O 	0.50268 0.29806 0.80439 -0.44700
N 	N 	0.50454 0.34152 0.83334 -0.12700
C 	C 	0.50454 0.32302 0.80454 1.00400
H 	H 	0.50170 0.29610 0.82850 -0.55200
C 	C 	0.50842 0.37123 0.82396 -0.09200
H 	H 	0.49420 0.38460 0.82990 0.08100
H 	H 	0.51480 0.37400 0.80470 0.08200
C 	C 	0.46136 0.72495 0.27786 0.41700
O 	O 	0.47050 0.74700 0.28903 -0.45200
O 	O 	0.46970 0.71412 0.25556 -0.45600
C 	C 	0.43743 0.71072 0.29286 -0.20900
C 	C 	0.41705 0.72619 0.30749 0.16400
C 	C 	0.39468 0.71312 0.31979 -0.20300
H 	H 	0.38130 0.72380 0.32920 0.08700
C 	C 	0.39161 0.68376 0.31849 0.10300
C 	C 	0.41178 0.66837 0.30387 -0.21200
H 	H 	0.41010 0.64890 0.30280 0.11700
C 	C 	0.43416 0.68129 0.29099 0.17600
C 	C 	0.35374 0.68096 0.35513 -0.07700
H 	H 	0.36130 0.69700 0.36340 0.05100
C 	C 	0.36654 0.66971 0.33126 -0.00500
N 	N 	0.41506 0.75857 0.31096 -0.11500
C 	C 	0.42790 0.77140 0.33350 0.34900
O 	O 	0.43680 0.76050 0.35440 -0.26100
O 	O 	0.43125 0.79856 0.32810 -0.29500
C 	C 	0.42320 0.80500 0.29830 0.26200
H 	H 	0.41060 0.82100 0.29750 -0.05700
H 	H 	0.43980 0.80900 0.28710 -0.02000
C 	C 	0.40896 0.77898 0.28832 -0.50500
H 	H 	0.41790 0.77260 0.27080 0.19200
C 	C 	0.37885 0.78210 0.28370 1.05700
H 	H 	0.37200 0.76350 0.27790 -0.30200
C 	C 	0.36180 0.79020 0.30870 -1.57100
H 	H 	0.36690 0.77860 0.32450 0.48600
H 	H 	0.34220 0.78760 0.30460 0.45300
H 	H 	0.36520 0.80960 0.31320 0.47800
C 	C 	0.37210 0.80220 0.25920 -1.53400
H 	H 	0.35210 0.80290 0.25640 0.45800
H 	H 	0.38100 0.79550 0.24240 0.49200
H 	H 	0.37900 0.82070 0.26360 0.48000
N 	N 	0.45768 0.65922 0.28120 -0.17800
C 	C 	0.45290 0.64360 0.25820 0.39100
O 	O 	0.43210 0.64180 0.24550 -0.29100
O 	O 	0.47630 0.63180 0.24830 -0.24300
C 	C 	0.49800 0.64270 0.26310 0.01800
H 	H 	0.50860 0.65540 0.25110 0.06700
H 	H 	0.51050 0.62760 0.26870 0.05800
C 	C 	0.48800 0.65910 0.28990 0.00500
H 	H 	0.49500 0.67840 0.28820 0.04800
O 	O 	0.50268 0.79806 0.30439 -0.44700
N 	N 	0.50454 0.84152 0.33334 -0.12700
C 	C 	0.50454 0.82302 0.30454 1.00400
H 	H 	0.50170 0.79610 0.32850 -0.55200
C 	C 	0.50842 0.87123 0.32396 -0.09200
H 	H 	0.49420 0.88460 0.32990 0.08100
H 	H 	0.51480 0.87400 0.30470 0.08200
C 	C 	0.03864 0.22495 0.72214 0.41700
O 	O 	0.02950 0.24700 0.71097 -0.45300
O 	O 	0.03030 0.21412 0.74444 -0.45600
C 	C 	0.06257 0.21072 0.70714 -0.20900
C 	C 	0.08295 0.22619 0.69251 0.16400
C 	C 	0.10532 0.21312 0.68021 -0.20300
H 	H 	0.11870 0.22380 0.67080 0.08700
C 	C 	0.10839 0.18376 0.68151 0.10300
C 	C 	0.08822 0.16837 0.69613 -0.21200
H 	H 	0.08990 0.14890 0.69720 0.11700
C 	C 	0.06584 0.18129 0.70901 0.17600
C 	C 	0.14626 0.18096 0.64487 -0.07700
H 	H 	0.13870 0.19700 0.63660 0.05100
C 	C 	0.13346 0.16971 0.66874 -0.00500
N 	N 	0.08494 0.25857 0.68904 -0.11500
C 	C 	0.07210 0.27140 0.66650 0.34900
O 	O 	0.06320 0.26050 0.64560 -0.26100
O 	O 	0.06875 0.29856 0.67190 -0.29600
C 	C 	0.07680 0.30500 0.70170 0.26300
H 	H 	0.08940 0.32100 0.70250 -0.05800
H 	H 	0.06020 0.30900 0.71290 -0.02100
C 	C 	0.09104 0.27898 0.71168 -0.50500
H 	H 	0.08210 0.27260 0.72920 0.19200
C 	C 	0.12115 0.28210 0.71630 1.05700
H 	H 	0.12800 0.26350 0.72210 -0.30200
C 	C 	0.13820 0.29020 0.69130 -1.57100
H 	H 	0.13310 0.27860 0.67550 0.48600
H 	H 	0.15780 0.28760 0.69540 0.45300
H 	H 	0.13480 0.30960 0.68680 0.47800
C 	C 	0.12790 0.30220 0.74080 -1.53400
H 	H 	0.14790 0.30290 0.74360 0.45800
H 	H 	0.11900 0.29550 0.75760 0.49200
H 	H 	0.12100 0.32070 0.73640 0.48000
N 	N 	0.04232 0.15922 0.71880 -0.17800
C 	C 	0.04710 0.14360 0.74180 0.39100
O 	O 	0.06790 0.14180 0.75450 -0.29100
O 	O 	0.02370 0.13180 0.75170 -0.24200
C 	C 	0.00200 0.14270 0.73690 0.01000
H 	H 	0.99140 0.15540 0.74890 0.07000
H 	H 	0.98950 0.12760 0.73130 0.06200
C 	C 	0.01200 0.15910 0.71010 0.00700
H 	H 	0.00500 0.17840 0.71180 0.04700
O 	O 	0.99732 0.29806 0.69561 -0.45800
N 	N 	0.99546 0.34152 0.66666 -0.12300
C 	C 	0.99546 0.32302 0.69546 0.99200
H 	H 	0.99830 0.29610 0.67150 -0.55600
C 	C 	0.99158 0.37123 0.67604 -0.09000
H 	H 	0.00580 0.38460 0.67010 0.07900
H 	H 	0.98520 0.37400 0.69530 0.08200
C 	C 	0.03864 0.72495 0.22214 0.41700
O 	O 	0.02950 0.74700 0.21097 -0.45300
O 	O 	0.03030 0.71412 0.24444 -0.45600
C 	C 	0.06257 0.71072 0.20714 -0.20900
C 	C 	0.08295 0.72619 0.19251 0.16400
C 	C 	0.10532 0.71312 0.18021 -0.20300
H 	H 	0.11870 0.72380 0.17080 0.08700
C 	C 	0.10839 0.68376 0.18151 0.10300
C 	C 	0.08822 0.66837 0.19613 -0.21200
H 	H 	0.08990 0.64890 0.19720 0.11700
C 	C 	0.06584 0.68129 0.20901 0.17600
C 	C 	0.14626 0.68096 0.14487 -0.07700
H 	H 	0.13870 0.69700 0.13660 0.05100
C 	C 	0.13346 0.66971 0.16874 -0.00500
N 	N 	0.08494 0.75857 0.18904 -0.11500
C 	C 	0.07210 0.77140 0.16650 0.34900
O 	O 	0.06320 0.76050 0.14560 -0.26100
O 	O 	0.06875 0.79856 0.17190 -0.29600
C 	C 	0.07680 0.80500 0.20170 0.26300
H 	H 	0.08940 0.82100 0.20250 -0.05700
H 	H 	0.06020 0.80900 0.21290 -0.02100
C 	C 	0.09104 0.77898 0.21168 -0.50500
H 	H 	0.08210 0.77260 0.22920 0.19200
C 	C 	0.12115 0.78210 0.21630 1.05700
H 	H 	0.12800 0.76350 0.22210 -0.30200
C 	C 	0.13820 0.79020 0.19130 -1.57100
H 	H 	0.13310 0.77860 0.17550 0.48600
H 	H 	0.15780 0.78760 0.19540 0.45300
H 	H 	0.13480 0.80960 0.18680 0.47800
C 	C 	0.12790 0.80220 0.24080 -1.53400
H 	H 	0.14790 0.80290 0.24360 0.45800
H 	H 	0.11900 0.79550 0.25760 0.49200
H 	H 	0.12100 0.82070 0.23640 0.48000
N 	N 	0.04232 0.65922 0.21880 -0.17800
C 	C 	0.04710 0.64360 0.24180 0.39100
O 	O 	0.06790 0.64180 0.25450 -0.29100
O 	O 	0.02370 0.63180 0.25170 -0.24200
C 	C 	0.00200 0.64270 0.23690 0.01000
H 	H 	0.99140 0.65540 0.24890 0.07000
H 	H 	0.98950 0.62760 0.23130 0.06200
C 	C 	0.01200 0.65910 0.21010 0.00700
H 	H 	0.00500 0.67840 0.21180 0.04700
O 	O 	0.99732 0.79806 0.19561 -0.45800
N 	N 	0.99546 0.84152 0.16666 -0.12300
C 	C 	0.99546 0.82302 0.19546 0.99200
H 	H 	0.99830 0.79610 0.17150 -0.55600
C 	C 	0.99158 0.87123 0.17604 -0.09000
H 	H 	0.00580 0.88460 0.17010 0.07900
H 	H 	0.98520 0.87400 0.19530 0.08200
C 	C 	0.53864 0.22495 0.22214 0.41700
O 	O 	0.52950 0.24700 0.21097 -0.45200
O 	O 	0.53030 0.21412 0.24444 -0.45600
C 	C 	0.56257 0.21072 0.20714 -0.20900
C 	C 	0.58295 0.22619 0.19251 0.16400
C 	C 	0.60532 0.21312 0.18021 -0.20300
H 	H 	0.61870 0.22380 0.17080 0.08700
C 	C 	0.60839 0.18376 0.18151 0.10300
C 	C 	0.58822 0.16837 0.19613 -0.21200
H 	H 	0.58990 0.14890 0.19720 0.11700
C 	C 	0.56584 0.18129 0.20901 0.17600
C 	C 	0.64626 0.18096 0.14487 -0.07700
H 	H 	0.63870 0.19700 0.13660 0.05100
C 	C 	0.63346 0.16971 0.16874 -0.00500
N 	N 	0.58494 0.25857 0.18904 -0.11500
C 	C 	0.57210 0.27140 0.16650 0.34900
O 	O 	0.56320 0.26050 0.14560 -0.26100
O 	O 	0.56875 0.29856 0.17190 -0.29500
C 	C 	0.57680 0.30500 0.20170 0.26200
H 	H 	0.58940 0.32100 0.20250 -0.05700
H 	H 	0.56020 0.30900 0.21290 -0.02000
C 	C 	0.59104 0.27898 0.21168 -0.50500
H 	H 	0.58210 0.27260 0.22920 0.19200
C 	C 	0.62115 0.28210 0.21630 1.05700
H 	H 	0.62800 0.26350 0.22210 -0.30200
C 	C 	0.63820 0.29020 0.19130 -1.57100
H 	H 	0.63310 0.27860 0.17550 0.48600
H 	H 	0.65780 0.28760 0.19540 0.45300
H 	H 	0.63480 0.30960 0.18680 0.47800
C 	C 	0.62790 0.30220 0.24080 -1.53400
H 	H 	0.64790 0.30290 0.24360 0.45800
H 	H 	0.61900 0.29550 0.25760 0.49200
H 	H 	0.62100 0.32070 0.23640 0.48000
N 	N 	0.54232 0.15922 0.21880 -0.17800
C 	C 	0.54710 0.14360 0.24180 0.39100
O 	O 	0.56790 0.14180 0.25450 -0.29100
O 	O 	0.52370 0.13180 0.25170 -0.24300
C 	C 	0.50200 0.14270 0.23690 0.01800
H 	H 	0.49140 0.15540 0.24890 0.06700
H 	H 	0.48950 0.12760 0.23130 0.05800
C 	C 	0.51200 0.15910 0.21010 0.00500
H 	H 	0.50500 0.17840 0.21180 0.04800
O 	O 	0.49732 0.29806 0.19561 -0.44700
N 	N 	0.49546 0.34152 0.16666 -0.12700
C 	C 	0.49546 0.32302 0.19546 1.00400
H 	H 	0.49830 0.29610 0.17150 -0.55200
C 	C 	0.49158 0.37123 0.17604 -0.09200
H 	H 	0.50580 0.38460 0.17010 0.08100
H 	H 	0.48520 0.37400 0.19530 0.08200
C 	C 	0.53864 0.72495 0.72214 0.41700
O 	O 	0.52950 0.74700 0.71097 -0.45200
O 	O 	0.53030 0.71412 0.74444 -0.45600
C 	C 	0.56257 0.71072 0.70714 -0.20900
C 	C 	0.58295 0.72619 0.69251 0.16400
C 	C 	0.60532 0.71312 0.68021 -0.20300
H 	H 	0.61870 0.72380 0.67080 0.08700
C 	C 	0.60839 0.68376 0.68151 0.10300
C 	C 	0.58822 0.66837 0.69613 -0.21200
H 	H 	0.58990 0.64890 0.69720 0.11700
C 	C 	0.56584 0.68129 0.70901 0.17600
C 	C 	0.64626 0.68096 0.64487 -0.07700
H 	H 	0.63870 0.69700 0.63660 0.05100
C 	C 	0.63346 0.66971 0.66874 -0.00500
N 	N 	0.58494 0.75857 0.68904 -0.11500
C 	C 	0.57210 0.77140 0.66650 0.34900
O 	O 	0.56320 0.76050 0.64560 -0.26100
O 	O 	0.56875 0.79856 0.67190 -0.29500
C 	C 	0.57680 0.80500 0.70170 0.26200
H 	H 	0.58940 0.82100 0.70250 -0.05700
H 	H 	0.56020 0.80900 0.71290 -0.02000
C 	C 	0.59104 0.77898 0.71168 -0.50500
H 	H 	0.58210 0.77260 0.72920 0.19200
C 	C 	0.62115 0.78210 0.71630 1.05700
H 	H 	0.62800 0.76350 0.72210 -0.30200
C 	C 	0.63820 0.79020 0.69130 -1.57100
H 	H 	0.63310 0.77860 0.67550 0.48600
H 	H 	0.65780 0.78760 0.69540 0.45300
H 	H 	0.63480 0.80960 0.68680 0.47800
C 	C 	0.62790 0.80220 0.74080 -1.53400
H 	H 	0.64790 0.80290 0.74360 0.45800
H 	H 	0.61900 0.79550 0.75760 0.49200
H 	H 	0.62100 0.82070 0.73640 0.48000
N 	N 	0.54232 0.65922 0.71880 -0.17800
C 	C 	0.54710 0.64360 0.74180 0.39100
O 	O 	0.56790 0.64180 0.75450 -0.29100
O 	O 	0.52370 0.63180 0.75170 -0.24300
C 	C 	0.50200 0.64270 0.73690 0.01800
H 	H 	0.49140 0.65540 0.74890 0.06700
H 	H 	0.48950 0.62760 0.73130 0.05800
C 	C 	0.51200 0.65910 0.71010 0.00500
H 	H 	0.50500 0.67840 0.71180 0.04800
O 	O 	0.49732 0.79806 0.69561 -0.44700
N 	N 	0.49546 0.84152 0.66666 -0.12700
C 	C 	0.49546 0.82302 0.69546 1.00400
H 	H 	0.49830 0.79610 0.67150 -0.55200
C 	C 	0.49158 0.87123 0.67604 -0.09200
H 	H 	0.50580 0.88460 0.67010 0.08100
H 	H 	0.48520 0.87400 0.69530 0.08200
C 	C 	0.03864 0.77505 0.27786 0.41700
O 	O 	0.02950 0.75300 0.28903 -0.45300
O 	O 	0.03030 0.78588 0.25556 -0.45600
C 	C 	0.06257 0.78928 0.29286 -0.20900
C 	C 	0.08295 0.77381 0.30749 0.16400
C 	C 	0.10532 0.78688 0.31979 -0.20300
H 	H 	0.11870 0.77620 0.32920 0.08700
C 	C 	0.10839 0.81624 0.31849 0.10300
C 	C 	0.08822 0.83163 0.30387 -0.21200
H 	H 	0.08990 0.85110 0.30280 0.11700
C 	C 	0.06584 0.81871 0.29099 0.17600
C 	C 	0.14626 0.81904 0.35513 -0.07700
H 	H 	0.13870 0.80300 0.36340 0.05100
C 	C 	0.13346 0.83029 0.33126 -0.00500
N 	N 	0.08494 0.74143 0.31096 -0.11500
C 	C 	0.07210 0.72860 0.33350 0.34900
O 	O 	0.06320 0.73950 0.35440 -0.26100
O 	O 	0.06875 0.70144 0.32810 -0.29600
C 	C 	0.07680 0.69500 0.29830 0.26300
H 	H 	0.08940 0.67900 0.29750 -0.05800
H 	H 	0.06020 0.69100 0.28710 -0.02100
C 	C 	0.09104 0.72102 0.28832 -0.50500
H 	H 	0.08210 0.72740 0.27080 0.19200
C 	C 	0.12115 0.71790 0.28370 1.05700
H 	H 	0.12800 0.73650 0.27790 -0.30200
C 	C 	0.13820 0.70980 0.30870 -1.57100
H 	H 	0.13310 0.72140 0.32450 0.48600
H 	H 	0.15780 0.71240 0.30460 0.45300
H 	H 	0.13480 0.69040 0.31320 0.47800
C 	C 	0.12790 0.69780 0.25920 -1.53400
H 	H 	0.14790 0.69710 0.25640 0.45800
H 	H 	0.11900 0.70450 0.24240 0.49200
H 	H 	0.12100 0.67930 0.26360 0.48000
N 	N 	0.04232 0.84078 0.28120 -0.17800
C 	C 	0.04710 0.85640 0.25820 0.39100
O 	O 	0.06790 0.85820 0.24550 -0.29100
O 	O 	0.02370 0.86820 0.24830 -0.24200
C 	C 	0.00200 0.85730 0.26310 0.01000
H 	H 	0.99140 0.84460 0.25110 0.07100
H 	H 	0.98950 0.87240 0.26870 0.06200
C 	C 	0.01200 0.84090 0.28990 0.00700
H 	H 	0.00500 0.82160 0.28820 0.04700
O 	O 	0.99732 0.70194 0.30439 -0.45800
N 	N 	0.99546 0.65848 0.33334 -0.12300
C 	C 	0.99546 0.67698 0.30454 0.99200
H 	H 	0.99830 0.70390 0.32850 -0.55600
C 	C 	0.99158 0.62877 0.32396 -0.09000
H 	H 	0.00580 0.61540 0.32990 0.07900
H 	H 	0.98520 0.62600 0.30470 0.08200
C 	C 	0.03864 0.27505 0.77786 0.41700
O 	O 	0.02950 0.25300 0.78903 -0.45300
O 	O 	0.03030 0.28588 0.75556 -0.45600
C 	C 	0.06257 0.28928 0.79286 -0.20900
C 	C 	0.08295 0.27381 0.80749 0.16400
C 	C 	0.10532 0.28688 0.81979 -0.20300
H 	H 	0.11870 0.27620 0.82920 0.08700
C 	C 	0.10839 0.31624 0.81849 0.10300
C 	C 	0.08822 0.33163 0.80387 -0.21200
H 	H 	0.08990 0.35110 0.80280 0.11700
C 	C 	0.06584 0.31871 0.79099 0.17600
C 	C 	0.14626 0.31904 0.85513 -0.07700
H 	H 	0.13870 0.30300 0.86340 0.05100
C 	C 	0.13346 0.33029 0.83126 -0.00500
N 	N 	0.08494 0.24143 0.81096 -0.11500
C 	C 	0.07210 0.22860 0.83350 0.34900
O 	O 	0.06320 0.23950 0.85440 -0.26100
O 	O 	0.06875 0.20144 0.82810 -0.29600
C 	C 	0.07680 0.19500 0.79830 0.26300
H 	H 	0.08940 0.17900 0.79750 -0.05800
H 	H 	0.06020 0.19100 0.78710 -0.02100
C 	C 	0.09104 0.22102 0.78832 -0.50500
H 	H 	0.08210 0.22740 0.77080 0.19200
C 	C 	0.12115 0.21790 0.78370 1.05700
H 	H 	0.12800 0.23650 0.77790 -0.30200
C 	C 	0.13820 0.20980 0.80870 -1.57100
H 	H 	0.13310 0.22140 0.82450 0.48600
H 	H 	0.15780 0.21240 0.80460 0.45300
H 	H 	0.13480 0.19040 0.81320 0.47800
C 	C 	0.12790 0.19780 0.75920 -1.53400
H 	H 	0.14790 0.19710 0.75640 0.45800
H 	H 	0.11900 0.20450 0.74240 0.49200
H 	H 	0.12100 0.17930 0.76360 0.48000
N 	N 	0.04232 0.34078 0.78120 -0.17800
C 	C 	0.04710 0.35640 0.75820 0.39100
O 	O 	0.06790 0.35820 0.74550 -0.29100
O 	O 	0.02370 0.36820 0.74830 -0.24200
C 	C 	0.00200 0.35730 0.76310 0.01000
H 	H 	0.99140 0.34460 0.75110 0.07000
H 	H 	0.98950 0.37240 0.76870 0.06200
C 	C 	0.01200 0.34090 0.78990 0.00700
H 	H 	0.00500 0.32160 0.78820 0.04700
O 	O 	0.99732 0.20194 0.80439 -0.45800
N 	N 	0.99546 0.15848 0.83334 -0.12300
C 	C 	0.99546 0.17698 0.80454 0.99200
H 	H 	0.99830 0.20390 0.82850 -0.55600
C 	C 	0.99158 0.12877 0.82396 -0.09000
H 	H 	0.00580 0.11540 0.82990 0.07900
H 	H 	0.98520 0.12600 0.80470 0.08200
C 	C 	0.53864 0.77505 0.77786 0.41700
O 	O 	0.52950 0.75300 0.78903 -0.45200
O 	O 	0.53030 0.78588 0.75556 -0.45600
C 	C 	0.56257 0.78928 0.79286 -0.20900
C 	C 	0.58295 0.77381 0.80749 0.16400
C 	C 	0.60532 0.78688 0.81979 -0.20300
H 	H 	0.61870 0.77620 0.82920 0.08700
C 	C 	0.60839 0.81624 0.81849 0.10300
C 	C 	0.58822 0.83163 0.80387 -0.21200
H 	H 	0.58990 0.85110 0.80280 0.11700
C 	C 	0.56584 0.81871 0.79099 0.17600
C 	C 	0.64626 0.81904 0.85513 -0.07700
H 	H 	0.63870 0.80300 0.86340 0.05100
C 	C 	0.63346 0.83029 0.83126 -0.00500
N 	N 	0.58494 0.74143 0.81096 -0.11500
C 	C 	0.57210 0.72860 0.83350 0.34900
O 	O 	0.56320 0.73950 0.85440 -0.26100
O 	O 	0.56875 0.70144 0.82810 -0.29500
C 	C 	0.57680 0.69500 0.79830 0.26200
H 	H 	0.58940 0.67900 0.79750 -0.05700
H 	H 	0.56020 0.69100 0.78710 -0.02000
C 	C 	0.59104 0.72102 0.78832 -0.50500
H 	H 	0.58210 0.72740 0.77080 0.19200
C 	C 	0.62115 0.71790 0.78370 1.05700
H 	H 	0.62800 0.73650 0.77790 -0.30200
C 	C 	0.63820 0.70980 0.80870 -1.57100
H 	H 	0.63310 0.72140 0.82450 0.48600
H 	H 	0.65780 0.71240 0.80460 0.45300
H 	H 	0.63480 0.69040 0.81320 0.47800
C 	C 	0.62790 0.69780 0.75920 -1.53400
H 	H 	0.64790 0.69710 0.75640 0.45800
H 	H 	0.61900 0.70450 0.74240 0.49200
H 	H 	0.62100 0.67930 0.76360 0.48000
N 	N 	0.54232 0.84078 0.78120 -0.17800
C 	C 	0.54710 0.85640 0.75820 0.39100
O 	O 	0.56790 0.85820 0.74550 -0.29100
O 	O 	0.52370 0.86820 0.74830 -0.24300
C 	C 	0.50200 0.85730 0.76310 0.01800
H 	H 	0.49140 0.84460 0.75110 0.06700
H 	H 	0.48950 0.87240 0.76870 0.05900
C 	C 	0.51200 0.84090 0.78990 0.00500
H 	H 	0.50500 0.82160 0.78820 0.04800
O 	O 	0.49732 0.70194 0.80439 -0.44700
N 	N 	0.49546 0.65848 0.83334 -0.12700
C 	C 	0.49546 0.67698 0.80454 1.00400
H 	H 	0.49830 0.70390 0.82850 -0.55200
C 	C 	0.49158 0.62877 0.82396 -0.09200
H 	H 	0.50580 0.61540 0.82990 0.08100
H 	H 	0.48520 0.62600 0.80470 0.08200
C 	C 	0.53864 0.27505 0.27786 0.41700
O 	O 	0.52950 0.25300 0.28903 -0.45200
O 	O 	0.53030 0.28588 0.25556 -0.45600
C 	C 	0.56257 0.28928 0.29286 -0.20900
C 	C 	0.58295 0.27381 0.30749 0.16400
C 	C 	0.60532 0.28688 0.31979 -0.20300
H 	H 	0.61870 0.27620 0.32920 0.08700
C 	C 	0.60839 0.31624 0.31849 0.10300
C 	C 	0.58822 0.33163 0.30387 -0.21200
H 	H 	0.58990 0.35110 0.30280 0.11700
C 	C 	0.56584 0.31871 0.29099 0.17600
C 	C 	0.64626 0.31904 0.35513 -0.07700
H 	H 	0.63870 0.30300 0.36340 0.05100
C 	C 	0.63346 0.33029 0.33126 -0.00500
N 	N 	0.58494 0.24143 0.31096 -0.11500
C 	C 	0.57210 0.22860 0.33350 0.34900
O 	O 	0.56320 0.23950 0.35440 -0.26100
O 	O 	0.56875 0.20144 0.32810 -0.29500
C 	C 	0.57680 0.19500 0.29830 0.26200
H 	H 	0.58940 0.17900 0.29750 -0.05700
H 	H 	0.56020 0.19100 0.28710 -0.02000
C 	C 	0.59104 0.22102 0.28832 -0.50500
H 	H 	0.58210 0.22740 0.27080 0.19200
C 	C 	0.62115 0.21790 0.28370 1.05700
H 	H 	0.62800 0.23650 0.27790 -0.30200
C 	C 	0.63820 0.20980 0.30870 -1.57100
H 	H 	0.63310 0.22140 0.32450 0.48600
H 	H 	0.65780 0.21240 0.30460 0.45300
H 	H 	0.63480 0.19040 0.31320 0.47800
C 	C 	0.62790 0.19780 0.25920 -1.53400
H 	H 	0.64790 0.19710 0.25640 0.45800
H 	H 	0.61900 0.20450 0.24240 0.49200
H 	H 	0.62100 0.17930 0.26360 0.48000
N 	N 	0.54232 0.34078 0.28120 -0.17800
C 	C 	0.54710 0.35640 0.25820 0.39100
O 	O 	0.56790 0.35820 0.24550 -0.29100
O 	O 	0.52370 0.36820 0.24830 -0.24300
C 	C 	0.50200 0.35730 0.26310 0.01800
H 	H 	0.49140 0.34460 0.25110 0.06700
H 	H 	0.48950 0.37240 0.26870 0.05800
C 	C 	0.51200 0.34090 0.28990 0.00500
H 	H 	0.50500 0.32160 0.28820 0.04800
O 	O 	0.49732 0.20194 0.30439 -0.44700
N 	N 	0.49546 0.15848 0.33334 -0.12700
C 	C 	0.49546 0.17698 0.30454 1.00400
H 	H 	0.49830 0.20390 0.32850 -0.55200
C 	C 	0.49158 0.12877 0.32396 -0.09200
H 	H 	0.50580 0.11540 0.32990 0.08100
H 	H 	0.48520 0.12600 0.30470 0.08200
C 	C 	0.96136 0.77505 0.72214 0.41700
O 	O 	0.97050 0.75300 0.71097 -0.45200
O 	O 	0.96970 0.78588 0.74444 -0.45500
C 	C 	0.93743 0.78928 0.70714 -0.20800
C 	C 	0.91705 0.77381 0.69251 0.16400
C 	C 	0.89468 0.78688 0.68021 -0.20300
H 	H 	0.88130 0.77620 0.67080 0.08700
C 	C 	0.89161 0.81624 0.68151 0.10300
C 	C 	0.91178 0.83163 0.69613 -0.21200
H 	H 	0.91010 0.85110 0.69720 0.11700
C 	C 	0.93416 0.81871 0.70901 0.17600
C 	C 	0.85374 0.81904 0.64487 -0.07700
H 	H 	0.86130 0.80300 0.63660 0.05100
C 	C 	0.86654 0.83029 0.66874 -0.00500
N 	N 	0.91506 0.74143 0.68904 -0.11500
C 	C 	0.92790 0.72860 0.66650 0.34900
O 	O 	0.93680 0.73950 0.64560 -0.26100
O 	O 	0.93125 0.70144 0.67190 -0.29500
C 	C 	0.92320 0.69500 0.70170 0.26200
H 	H 	0.91060 0.67900 0.70250 -0.05700
H 	H 	0.93980 0.69100 0.71290 -0.02000
C 	C 	0.90896 0.72102 0.71168 -0.50400
H 	H 	0.91790 0.72740 0.72920 0.19200
C 	C 	0.87885 0.71790 0.71630 1.05700
H 	H 	0.87200 0.73650 0.72210 -0.30100
C 	C 	0.86180 0.70980 0.69130 -1.57100
H 	H 	0.86690 0.72140 0.67550 0.48600
H 	H 	0.84220 0.71240 0.69540 0.45300
H 	H 	0.86520 0.69040 0.68680 0.47800
C 	C 	0.87210 0.69780 0.74080 -1.53400
H 	H 	0.85210 0.69710 0.74360 0.45800
H 	H 	0.88100 0.70450 0.75760 0.49200
H 	H 	0.87900 0.67930 0.73640 0.48000
N 	N 	0.95768 0.84078 0.71880 -0.17700
C 	C 	0.95290 0.85640 0.74180 0.39100
O 	O 	0.93210 0.85820 0.75450 -0.29100
O 	O 	0.97630 0.86820 0.75170 -0.24400
C 	C 	0.99800 0.85730 0.73690 0.02600
H 	H 	0.00860 0.84460 0.74890 0.06400
H 	H 	0.01050 0.87240 0.73130 0.05500
C 	C 	0.98800 0.84090 0.71010 0.00400
H 	H 	0.99500 0.82160 0.71180 0.04900
O 	O 	0.00268 0.70194 0.69561 -0.43500
N 	N 	0.00454 0.65848 0.66666 -0.13100
C 	C 	0.00454 0.67698 0.69546 1.01500
H 	H 	0.00170 0.70390 0.67150 -0.54700
C 	C 	0.00842 0.62877 0.67604 -0.09500
H 	H 	0.99420 0.61540 0.67010 0.08300
H 	H 	0.01480 0.62600 0.69530 0.08300
C 	C 	0.96136 0.27505 0.22214 0.41700
O 	O 	0.97050 0.25300 0.21097 -0.45200
O 	O 	0.96970 0.28588 0.24444 -0.45500
C 	C 	0.93743 0.28928 0.20714 -0.20800
C 	C 	0.91705 0.27381 0.19251 0.16400
C 	C 	0.89468 0.28688 0.18021 -0.20300
H 	H 	0.88130 0.27620 0.17080 0.08700
C 	C 	0.89161 0.31624 0.18151 0.10300
C 	C 	0.91178 0.33163 0.19613 -0.21200
H 	H 	0.91010 0.35110 0.19720 0.11700
C 	C 	0.93416 0.31871 0.20901 0.17600
C 	C 	0.85374 0.31904 0.14487 -0.07700
H 	H 	0.86130 0.30300 0.13660 0.05100
C 	C 	0.86654 0.33029 0.16874 -0.00500
N 	N 	0.91506 0.24143 0.18904 -0.11500
C 	C 	0.92790 0.22860 0.16650 0.34900
O 	O 	0.93680 0.23950 0.14560 -0.26100
O 	O 	0.93125 0.20144 0.17190 -0.29500
C 	C 	0.92320 0.19500 0.20170 0.26200
H 	H 	0.91060 0.17900 0.20250 -0.05700
H 	H 	0.93980 0.19100 0.21290 -0.02000
C 	C 	0.90896 0.22102 0.21168 -0.50400
H 	H 	0.91790 0.22740 0.22920 0.19200
C 	C 	0.87885 0.21790 0.21630 1.05700
H 	H 	0.87200 0.23650 0.22210 -0.30100
C 	C 	0.86180 0.20980 0.19130 -1.57000
H 	H 	0.86690 0.22140 0.17550 0.48600
H 	H 	0.84220 0.21240 0.19540 0.45300
H 	H 	0.86520 0.19040 0.18680 0.47800
C 	C 	0.87210 0.19780 0.24080 -1.53400
H 	H 	0.85210 0.19710 0.24360 0.45800
H 	H 	0.88100 0.20450 0.25760 0.49200
H 	H 	0.87900 0.17930 0.23640 0.48000
N 	N 	0.95768 0.34078 0.21880 -0.17700
C 	C 	0.95290 0.35640 0.24180 0.39100
O 	O 	0.93210 0.35820 0.25450 -0.29100
O 	O 	0.97630 0.36820 0.25170 -0.24400
C 	C 	0.99800 0.35730 0.23690 0.02600
H 	H 	0.00860 0.34460 0.24890 0.06400
H 	H 	0.01050 0.37240 0.23130 0.05500
C 	C 	0.98800 0.34090 0.21010 0.00400
H 	H 	0.99500 0.32160 0.21180 0.04900
O 	O 	0.00268 0.20194 0.19561 -0.43500
N 	N 	0.00454 0.15848 0.16666 -0.13100
C 	C 	0.00454 0.17698 0.19546 1.01500
H 	H 	0.00170 0.20390 0.17150 -0.54700
C 	C 	0.00842 0.12877 0.17604 -0.09500
H 	H 	0.99420 0.11540 0.17010 0.08300
H 	H 	0.01480 0.12600 0.19530 0.08300
C 	C 	0.46136 0.77505 0.22214 0.41700
O 	O 	0.47050 0.75300 0.21097 -0.45200
O 	O 	0.46970 0.78588 0.24444 -0.45600
C 	C 	0.43743 0.78928 0.20714 -0.20900
C 	C 	0.41705 0.77381 0.19251 0.16400
C 	C 	0.39468 0.78688 0.18021 -0.20300
H 	H 	0.38130 0.77620 0.17080 0.08700
C 	C 	0.39161 0.81624 0.18151 0.10300
C 	C 	0.41178 0.83163 0.19613 -0.21200
H 	H 	0.41010 0.85110 0.19720 0.11700
C 	C 	0.43416 0.81871 0.20901 0.17600
C 	C 	0.35374 0.81904 0.14487 -0.07700
H 	H 	0.36130 0.80300 0.13660 0.05100
C 	C 	0.36654 0.83029 0.16874 -0.00500
N 	N 	0.41506 0.74143 0.18904 -0.11500
C 	C 	0.42790 0.72860 0.16650 0.34900
O 	O 	0.43680 0.73950 0.14560 -0.26100
O 	O 	0.43125 0.70144 0.17190 -0.29500
C 	C 	0.42320 0.69500 0.20170 0.26200
H 	H 	0.41060 0.67900 0.20250 -0.05700
H 	H 	0.43980 0.69100 0.21290 -0.02000
C 	C 	0.40896 0.72102 0.21168 -0.50500
H 	H 	0.41790 0.72740 0.22920 0.19200
C 	C 	0.37885 0.71790 0.21630 1.05700
H 	H 	0.37200 0.73650 0.22210 -0.30200
C 	C 	0.36180 0.70980 0.19130 -1.57100
H 	H 	0.36690 0.72140 0.17550 0.48600
H 	H 	0.34220 0.71240 0.19540 0.45300
H 	H 	0.36520 0.69040 0.18680 0.47800
C 	C 	0.37210 0.69780 0.24080 -1.53400
H 	H 	0.35210 0.69710 0.24360 0.45800
H 	H 	0.38100 0.70450 0.25760 0.49200
H 	H 	0.37900 0.67930 0.23640 0.48000
N 	N 	0.45768 0.84078 0.21880 -0.17800
C 	C 	0.45290 0.85640 0.24180 0.39100
O 	O 	0.43210 0.85820 0.25450 -0.29100
O 	O 	0.47630 0.86820 0.25170 -0.24300
C 	C 	0.49800 0.85730 0.23690 0.01800
H 	H 	0.50860 0.84460 0.24890 0.06700
H 	H 	0.51050 0.87240 0.23130 0.05800
C 	C 	0.48800 0.84090 0.21010 0.00500
H 	H 	0.49500 0.82160 0.21180 0.04800
O 	O 	0.50268 0.70194 0.19561 -0.44700
N 	N 	0.50454 0.65848 0.16666 -0.12700
C 	C 	0.50454 0.67698 0.19546 1.00400
H 	H 	0.50170 0.70390 0.17150 -0.55200
C 	C 	0.50842 0.62877 0.17604 -0.09200
H 	H 	0.49420 0.61540 0.17010 0.08100
H 	H 	0.51480 0.62600 0.19530 0.08200
C 	C 	0.46136 0.27505 0.72214 0.41700
O 	O 	0.47050 0.25300 0.71097 -0.45200
O 	O 	0.46970 0.28588 0.74444 -0.45600
C 	C 	0.43743 0.28928 0.70714 -0.20900
C 	C 	0.41705 0.27381 0.69251 0.16400
C 	C 	0.39468 0.28688 0.68021 -0.20300
H 	H 	0.38130 0.27620 0.67080 0.08700
C 	C 	0.39161 0.31624 0.68151 0.10300
C 	C 	0.41178 0.33163 0.69613 -0.21200
H 	H 	0.41010 0.35110 0.69720 0.11700
C 	C 	0.43416 0.31871 0.70901 0.17600
C 	C 	0.35374 0.31904 0.64487 -0.07700
H 	H 	0.36130 0.30300 0.63660 0.05100
C 	C 	0.36654 0.33029 0.66874 -0.00500
N 	N 	0.41506 0.24143 0.68904 -0.11500
C 	C 	0.42790 0.22860 0.66650 0.34900
O 	O 	0.43680 0.23950 0.64560 -0.26100
O 	O 	0.43125 0.20144 0.67190 -0.29500
C 	C 	0.42320 0.19500 0.70170 0.26200
H 	H 	0.41060 0.17900 0.70250 -0.05700
H 	H 	0.43980 0.19100 0.71290 -0.02000
C 	C 	0.40896 0.22102 0.71168 -0.50500
H 	H 	0.41790 0.22740 0.72920 0.19200
C 	C 	0.37885 0.21790 0.71630 1.05700
H 	H 	0.37200 0.23650 0.72210 -0.30200
C 	C 	0.36180 0.20980 0.69130 -1.57100
H 	H 	0.36690 0.22140 0.67550 0.48600
H 	H 	0.34220 0.21240 0.69540 0.45300
H 	H 	0.36520 0.19040 0.68680 0.47800
C 	C 	0.37210 0.19780 0.74080 -1.53400
H 	H 	0.35210 0.19710 0.74360 0.45800
H 	H 	0.38100 0.20450 0.75760 0.49200
H 	H 	0.37900 0.17930 0.73640 0.48000
N 	N 	0.45768 0.34078 0.71880 -0.17800
C 	C 	0.45290 0.35640 0.74180 0.39100
O 	O 	0.43210 0.35820 0.75450 -0.29100
O 	O 	0.47630 0.36820 0.75170 -0.24300
C 	C 	0.49800 0.35730 0.73690 0.01800
H 	H 	0.50860 0.34460 0.74890 0.06700
H 	H 	0.51050 0.37240 0.73130 0.05800
C 	C 	0.48800 0.34090 0.71010 0.00500
H 	H 	0.49500 0.32160 0.71180 0.04800
O 	O 	0.50268 0.20194 0.69561 -0.44700
N 	N 	0.50454 0.15848 0.66666 -0.12700
C 	C 	0.50454 0.17698 0.69546 1.00400
H 	H 	0.50170 0.20390 0.67150 -0.55200
C 	C 	0.50842 0.12877 0.67604 -0.09200
H 	H 	0.49420 0.11540 0.67010 0.08100
H 	H 	0.51480 0.12600 0.69530 0.08200
C 	C 	0.22495 0.72214 0.03864 0.41700
O 	O 	0.24700 0.71097 0.02950 -0.45300
O 	O 	0.21412 0.74444 0.03030 -0.45600
C 	C 	0.21072 0.70714 0.06257 -0.20900
C 	C 	0.22619 0.69251 0.08295 0.16400
C 	C 	0.21312 0.68021 0.10532 -0.20300
H 	H 	0.22380 0.67080 0.11870 0.08700
C 	C 	0.18376 0.68151 0.10839 0.10300
C 	C 	0.16837 0.69613 0.08822 -0.21200
H 	H 	0.14890 0.69720 0.08990 0.11700
C 	C 	0.18129 0.70901 0.06584 0.17600
C 	C 	0.18096 0.64487 0.14626 -0.07700
H 	H 	0.19700 0.63660 0.13870 0.05100
C 	C 	0.16971 0.66874 0.13346 -0.00500
N 	N 	0.25857 0.68904 0.08494 -0.11500
C 	C 	0.27140 0.66650 0.07210 0.34900
O 	O 	0.26050 0.64560 0.06320 -0.26100
O 	O 	0.29856 0.67190 0.06875 -0.29600
C 	C 	0.30500 0.70170 0.07680 0.26300
H 	H 	0.32100 0.70250 0.08940 -0.05800
H 	H 	0.30900 0.71290 0.06020 -0.02100
C 	C 	0.27898 0.71168 0.09104 -0.50500
H 	H 	0.27260 0.72920 0.08210 0.19200
C 	C 	0.28210 0.71630 0.12115 1.05700
H 	H 	0.26350 0.72210 0.12800 -0.30200
C 	C 	0.29020 0.69130 0.13820 -1.57100
H 	H 	0.27860 0.67550 0.13310 0.48600
H 	H 	0.28760 0.69540 0.15780 0.45300
H 	H 	0.30960 0.68680 0.13480 0.47800
C 	C 	0.30220 0.74080 0.12790 -1.53400
H 	H 	0.30290 0.74360 0.14790 0.45800
H 	H 	0.29550 0.75760 0.11900 0.49200
H 	H 	0.32070 0.73640 0.12100 0.48000
N 	N 	0.15922 0.71880 0.04232 -0.17800
C 	C 	0.14360 0.74180 0.04710 0.39100
O 	O 	0.14180 0.75450 0.06790 -0.29100
O 	O 	0.13180 0.75170 0.02370 -0.24200
C 	C 	0.14270 0.73690 0.00200 0.01000
H 	H 	0.15540 0.74890 0.99140 0.07000
H 	H 	0.12760 0.73130 0.98950 0.06200
C 	C 	0.15910 0.71010 0.01200 0.00700
H 	H 	0.17840 0.71180 0.00500 0.04700
O 	O 	0.29806 0.69561 0.99732 -0.45800
N 	N 	0.34152 0.66666 0.99546 -0.12300
C 	C 	0.32302 0.69546 0.99546 0.99200
H 	H 	0.29610 0.67150 0.99830 -0.55600
C 	C 	0.37123 0.67604 0.99158 -0.09000
H 	H 	0.38460 0.67010 0.00580 0.07900
H 	H 	0.37400 0.69530 0.98520 0.08200
C 	C 	0.22495 0.22214 0.53864 0.41700
O 	O 	0.24700 0.21097 0.52950 -0.45200
O 	O 	0.21412 0.24444 0.53030 -0.45600
C 	C 	0.21072 0.20714 0.56257 -0.20900
C 	C 	0.22619 0.19251 0.58295 0.16400
C 	C 	0.21312 0.18021 0.60532 -0.20300
H 	H 	0.22380 0.17080 0.61870 0.08700
C 	C 	0.18376 0.18151 0.60839 0.10300
C 	C 	0.16837 0.19613 0.58822 -0.21200
H 	H 	0.14890 0.19720 0.58990 0.11700
C 	C 	0.18129 0.20901 0.56584 0.17600
C 	C 	0.18096 0.14487 0.64626 -0.07700
H 	H 	0.19700 0.13660 0.63870 0.05100
C 	C 	0.16971 0.16874 0.63346 -0.00500
N 	N 	0.25857 0.18904 0.58494 -0.11500
C 	C 	0.27140 0.16650 0.57210 0.34900
O 	O 	0.26050 0.14560 0.56320 -0.26100
O 	O 	0.29856 0.17190 0.56875 -0.29500
C 	C 	0.30500 0.20170 0.57680 0.26200
H 	H 	0.32100 0.20250 0.58940 -0.05700
H 	H 	0.30900 0.21290 0.56020 -0.02000
C 	C 	0.27898 0.21168 0.59104 -0.50500
H 	H 	0.27260 0.22920 0.58210 0.19200
C 	C 	0.28210 0.21630 0.62115 1.05700
H 	H 	0.26350 0.22210 0.62800 -0.30200
C 	C 	0.29020 0.19130 0.63820 -1.57100
H 	H 	0.27860 0.17550 0.63310 0.48600
H 	H 	0.28760 0.19540 0.65780 0.45300
H 	H 	0.30960 0.18680 0.63480 0.47800
C 	C 	0.30220 0.24080 0.62790 -1.53400
H 	H 	0.30290 0.24360 0.64790 0.45800
H 	H 	0.29550 0.25760 0.61900 0.49200
H 	H 	0.32070 0.23640 0.62100 0.48000
N 	N 	0.15922 0.21880 0.54232 -0.17800
C 	C 	0.14360 0.24180 0.54710 0.39100
O 	O 	0.14180 0.25450 0.56790 -0.29100
O 	O 	0.13180 0.25170 0.52370 -0.24300
C 	C 	0.14270 0.23690 0.50200 0.01800
H 	H 	0.15540 0.24890 0.49140 0.06700
H 	H 	0.12760 0.23130 0.48950 0.05800
C 	C 	0.15910 0.21010 0.51200 0.00500
H 	H 	0.17840 0.21180 0.50500 0.04800
O 	O 	0.29806 0.19561 0.49732 -0.44700
N 	N 	0.34152 0.16666 0.49546 -0.12700
C 	C 	0.32302 0.19546 0.49546 1.00400
H 	H 	0.29610 0.17150 0.49830 -0.55200
C 	C 	0.37123 0.17604 0.49158 -0.09200
H 	H 	0.38460 0.17010 0.50580 0.08100
H 	H 	0.37400 0.19530 0.48520 0.08200
C 	C 	0.72495 0.72214 0.53864 0.41700
O 	O 	0.74700 0.71097 0.52950 -0.45200
O 	O 	0.71412 0.74444 0.53030 -0.45600
C 	C 	0.71072 0.70714 0.56257 -0.20900
C 	C 	0.72619 0.69251 0.58295 0.16400
C 	C 	0.71312 0.68021 0.60532 -0.20300
H 	H 	0.72380 0.67080 0.61870 0.08700
C 	C 	0.68376 0.68151 0.60839 0.10300
C 	C 	0.66837 0.69613 0.58822 -0.21200
H 	H 	0.64890 0.69720 0.58990 0.11700
C 	C 	0.68129 0.70901 0.56584 0.17600
C 	C 	0.68096 0.64487 0.64626 -0.07700
H 	H 	0.69700 0.63660 0.63870 0.05100
C 	C 	0.66971 0.66874 0.63346 -0.00500
N 	N 	0.75857 0.68904 0.58494 -0.11500
C 	C 	0.77140 0.66650 0.57210 0.34900
O 	O 	0.76050 0.64560 0.56320 -0.26100
O 	O 	0.79856 0.67190 0.56875 -0.29500
C 	C 	0.80500 0.70170 0.57680 0.26200
H 	H 	0.82100 0.70250 0.58940 -0.05700
H 	H 	0.80900 0.71290 0.56020 -0.02000
C 	C 	0.77898 0.71168 0.59104 -0.50500
H 	H 	0.77260 0.72920 0.58210 0.19200
C 	C 	0.78210 0.71630 0.62115 1.05700
H 	H 	0.76350 0.72210 0.62800 -0.30200
C 	C 	0.79020 0.69130 0.63820 -1.57100
H 	H 	0.77860 0.67550 0.63310 0.48600
H 	H 	0.78760 0.69540 0.65780 0.45300
H 	H 	0.80960 0.68680 0.63480 0.47800
C 	C 	0.80220 0.74080 0.62790 -1.53400
H 	H 	0.80290 0.74360 0.64790 0.45800
H 	H 	0.79550 0.75760 0.61900 0.49200
H 	H 	0.82070 0.73640 0.62100 0.48000
N 	N 	0.65922 0.71880 0.54232 -0.17800
C 	C 	0.64360 0.74180 0.54710 0.39100
O 	O 	0.64180 0.75450 0.56790 -0.29100
O 	O 	0.63180 0.75170 0.52370 -0.24300
C 	C 	0.64270 0.73690 0.50200 0.01800
H 	H 	0.65540 0.74890 0.49140 0.06700
H 	H 	0.62760 0.73130 0.48950 0.05800
C 	C 	0.65910 0.71010 0.51200 0.00500
H 	H 	0.67840 0.71180 0.50500 0.04800
O 	O 	0.79806 0.69561 0.49732 -0.44700
N 	N 	0.84152 0.66666 0.49546 -0.12700
C 	C 	0.82302 0.69546 0.49546 1.00400
H 	H 	0.79610 0.67150 0.49830 -0.55200
C 	C 	0.87123 0.67604 0.49158 -0.09200
H 	H 	0.88460 0.67010 0.50580 0.08100
H 	H 	0.87400 0.69530 0.48520 0.08200
C 	C 	0.72495 0.22214 0.03864 0.41700
O 	O 	0.74700 0.21097 0.02950 -0.45300
O 	O 	0.71412 0.24444 0.03030 -0.45600
C 	C 	0.71072 0.20714 0.06257 -0.20900
C 	C 	0.72619 0.19251 0.08295 0.16400
C 	C 	0.71312 0.18021 0.10532 -0.20300
H 	H 	0.72380 0.17080 0.11870 0.08700
C 	C 	0.68376 0.18151 0.10839 0.10300
C 	C 	0.66837 0.19613 0.08822 -0.21200
H 	H 	0.64890 0.19720 0.08990 0.11700
C 	C 	0.68129 0.20901 0.06584 0.17600
C 	C 	0.68096 0.14487 0.14626 -0.07700
H 	H 	0.69700 0.13660 0.13870 0.05100
C 	C 	0.66971 0.16874 0.13346 -0.00500
N 	N 	0.75857 0.18904 0.08494 -0.11500
C 	C 	0.77140 0.16650 0.07210 0.34900
O 	O 	0.76050 0.14560 0.06320 -0.26100
O 	O 	0.79856 0.17190 0.06875 -0.29600
C 	C 	0.80500 0.20170 0.07680 0.26300
H 	H 	0.82100 0.20250 0.08940 -0.05700
H 	H 	0.80900 0.21290 0.06020 -0.02100
C 	C 	0.77898 0.21168 0.09104 -0.50500
H 	H 	0.77260 0.22920 0.08210 0.19200
C 	C 	0.78210 0.21630 0.12115 1.05700
H 	H 	0.76350 0.22210 0.12800 -0.30200
C 	C 	0.79020 0.19130 0.13820 -1.57100
H 	H 	0.77860 0.17550 0.13310 0.48600
H 	H 	0.78760 0.19540 0.15780 0.45300
H 	H 	0.80960 0.18680 0.13480 0.47800
C 	C 	0.80220 0.24080 0.12790 -1.53400
H 	H 	0.80290 0.24360 0.14790 0.45800
H 	H 	0.79550 0.25760 0.11900 0.49200
H 	H 	0.82070 0.23640 0.12100 0.48000
N 	N 	0.65922 0.21880 0.04232 -0.17800
C 	C 	0.64360 0.24180 0.04710 0.39100
O 	O 	0.64180 0.25450 0.06790 -0.29100
O 	O 	0.63180 0.25170 0.02370 -0.24200
C 	C 	0.64270 0.23690 0.00200 0.01000
H 	H 	0.65540 0.24890 0.99140 0.07000
H 	H 	0.62760 0.23130 0.98950 0.06200
C 	C 	0.65910 0.21010 0.01200 0.00700
H 	H 	0.67840 0.21180 0.00500 0.04700
O 	O 	0.79806 0.19561 0.99732 -0.45800
N 	N 	0.84152 0.16666 0.99546 -0.12300
C 	C 	0.82302 0.19546 0.99546 0.99200
H 	H 	0.79610 0.17150 0.99830 -0.55600
C 	C 	0.87123 0.17604 0.99158 -0.09000
H 	H 	0.88460 0.17010 0.00580 0.07900
H 	H 	0.87400 0.19530 0.98520 0.08200
C 	C 	0.22495 0.27786 0.96136 0.41700
O 	O 	0.24700 0.28903 0.97050 -0.45200
O 	O 	0.21412 0.25556 0.96970 -0.45500
C 	C 	0.21072 0.29286 0.93743 -0.20800
C 	C 	0.22619 0.30749 0.91705 0.16400
C 	C 	0.21312 0.31979 0.89468 -0.20300
H 	H 	0.22380 0.32920 0.88130 0.08700
C 	C 	0.18376 0.31849 0.89161 0.10300
C 	C 	0.16837 0.30387 0.91178 -0.21200
H 	H 	0.14890 0.30280 0.91010 0.11700
C 	C 	0.18129 0.29099 0.93416 0.17600
C 	C 	0.18096 0.35513 0.85374 -0.07700
H 	H 	0.19700 0.36340 0.86130 0.05100
C 	C 	0.16971 0.33126 0.86654 -0.00500
N 	N 	0.25857 0.31096 0.91506 -0.11500
C 	C 	0.27140 0.33350 0.92790 0.34900
O 	O 	0.26050 0.35440 0.93680 -0.26100
O 	O 	0.29856 0.32810 0.93125 -0.29500
C 	C 	0.30500 0.29830 0.92320 0.26200
H 	H 	0.32100 0.29750 0.91060 -0.05700
H 	H 	0.30900 0.28710 0.93980 -0.02000
C 	C 	0.27898 0.28832 0.90896 -0.50500
H 	H 	0.27260 0.27080 0.91790 0.19200
C 	C 	0.28210 0.28370 0.87885 1.05700
H 	H 	0.26350 0.27790 0.87200 -0.30100
C 	C 	0.29020 0.30870 0.86180 -1.57100
H 	H 	0.27860 0.32450 0.86690 0.48600
H 	H 	0.28760 0.30460 0.84220 0.45300
H 	H 	0.30960 0.31320 0.86520 0.47800
C 	C 	0.30220 0.25920 0.87210 -1.53400
H 	H 	0.30290 0.25640 0.85210 0.45800
H 	H 	0.29550 0.24240 0.88100 0.49200
H 	H 	0.32070 0.26360 0.87900 0.48000
N 	N 	0.15922 0.28120 0.95768 -0.17700
C 	C 	0.14360 0.25820 0.95290 0.39100
O 	O 	0.14180 0.24550 0.93210 -0.29100
O 	O 	0.13180 0.24830 0.97630 -0.24400
C 	C 	0.14270 0.26310 0.99800 0.02600
H 	H 	0.15540 0.25110 0.00860 0.06400
H 	H 	0.12760 0.26870 0.01050 0.05500
C 	C 	0.15910 0.28990 0.98800 0.00400
H 	H 	0.17840 0.28820 0.99500 0.04900
O 	O 	0.29806 0.30439 0.00268 -0.43500
N 	N 	0.34152 0.33334 0.00454 -0.13100
C 	C 	0.32302 0.30454 0.00454 1.01500
H 	H 	0.29610 0.32850 0.00170 -0.54700
C 	C 	0.37123 0.32396 0.00842 -0.09500
H 	H 	0.38460 0.32990 0.99420 0.08300
H 	H 	0.37400 0.30470 0.01480 0.08300
C 	C 	0.22495 0.77786 0.46136 0.41700
O 	O 	0.24700 0.78903 0.47050 -0.45200
O 	O 	0.21412 0.75556 0.46970 -0.45600
C 	C 	0.21072 0.79286 0.43743 -0.20900
C 	C 	0.22619 0.80749 0.41705 0.16400
C 	C 	0.21312 0.81979 0.39468 -0.20300
H 	H 	0.22380 0.82920 0.38130 0.08700
C 	C 	0.18376 0.81849 0.39161 0.10300
C 	C 	0.16837 0.80387 0.41178 -0.21200
H 	H 	0.14890 0.80280 0.41010 0.11700
C 	C 	0.18129 0.79099 0.43416 0.17600
C 	C 	0.18096 0.85513 0.35374 -0.07700
H 	H 	0.19700 0.86340 0.36130 0.05100
C 	C 	0.16971 0.83126 0.36654 -0.00500
N 	N 	0.25857 0.81096 0.41506 -0.11500
C 	C 	0.27140 0.83350 0.42790 0.34900
O 	O 	0.26050 0.85440 0.43680 -0.26100
O 	O 	0.29856 0.82810 0.43125 -0.29500
C 	C 	0.30500 0.79830 0.42320 0.26200
H 	H 	0.32100 0.79750 0.41060 -0.05700
H 	H 	0.30900 0.78710 0.43980 -0.02000
C 	C 	0.27898 0.78832 0.40896 -0.50500
H 	H 	0.27260 0.77080 0.41790 0.19200
C 	C 	0.28210 0.78370 0.37885 1.05700
H 	H 	0.26350 0.77790 0.37200 -0.30200
C 	C 	0.29020 0.80870 0.36180 -1.57100
H 	H 	0.27860 0.82450 0.36690 0.48600
H 	H 	0.28760 0.80460 0.34220 0.45300
H 	H 	0.30960 0.81320 0.36520 0.47800
C 	C 	0.30220 0.75920 0.37210 -1.53400
H 	H 	0.30290 0.75640 0.35210 0.45800
H 	H 	0.29550 0.74240 0.38100 0.49200
H 	H 	0.32070 0.76360 0.37900 0.48000
N 	N 	0.15922 0.78120 0.45768 -0.17800
C 	C 	0.14360 0.75820 0.45290 0.39100
O 	O 	0.14180 0.74550 0.43210 -0.29100
O 	O 	0.13180 0.74830 0.47630 -0.24300
C 	C 	0.14270 0.76310 0.49800 0.01800
H 	H 	0.15540 0.75110 0.50860 0.06700
H 	H 	0.12760 0.76870 0.51050 0.05800
C 	C 	0.15910 0.78990 0.48800 0.00500
H 	H 	0.17840 0.78820 0.49500 0.04800
O 	O 	0.29806 0.80439 0.50268 -0.44700
N 	N 	0.34152 0.83334 0.50454 -0.12700
C 	C 	0.32302 0.80454 0.50454 1.00400
H 	H 	0.29610 0.82850 0.50170 -0.55200
C 	C 	0.37123 0.82396 0.50842 -0.09200
H 	H 	0.38460 0.82990 0.49420 0.08100
H 	H 	0.37400 0.80470 0.51480 0.08200
C 	C 	0.72495 0.27786 0.46136 0.41700
O 	O 	0.74700 0.28903 0.47050 -0.45200
O 	O 	0.71412 0.25556 0.46970 -0.45600
C 	C 	0.71072 0.29286 0.43743 -0.20900
C 	C 	0.72619 0.30749 0.41705 0.16400
C 	C 	0.71312 0.31979 0.39468 -0.20300
H 	H 	0.72380 0.32920 0.38130 0.08700
C 	C 	0.68376 0.31849 0.39161 0.10300
C 	C 	0.66837 0.30387 0.41178 -0.21200
H 	H 	0.64890 0.30280 0.41010 0.11700
C 	C 	0.68129 0.29099 0.43416 0.17600
C 	C 	0.68096 0.35513 0.35374 -0.07700
H 	H 	0.69700 0.36340 0.36130 0.05100
C 	C 	0.66971 0.33126 0.36654 -0.00500
N 	N 	0.75857 0.31096 0.41506 -0.11500
C 	C 	0.77140 0.33350 0.42790 0.34900
O 	O 	0.76050 0.35440 0.43680 -0.26100
O 	O 	0.79856 0.32810 0.43125 -0.29500
C 	C 	0.80500 0.29830 0.42320 0.26200
H 	H 	0.82100 0.29750 0.41060 -0.05700
H 	H 	0.80900 0.28710 0.43980 -0.02000
C 	C 	0.77898 0.28832 0.40896 -0.50500
H 	H 	0.77260 0.27080 0.41790 0.19200
C 	C 	0.78210 0.28370 0.37885 1.05700
H 	H 	0.76350 0.27790 0.37200 -0.30200
C 	C 	0.79020 0.30870 0.36180 -1.57100
H 	H 	0.77860 0.32450 0.36690 0.48600
H 	H 	0.78760 0.30460 0.34220 0.45300
H 	H 	0.80960 0.31320 0.36520 0.47800
C 	C 	0.80220 0.25920 0.37210 -1.53400
H 	H 	0.80290 0.25640 0.35210 0.45800
H 	H 	0.79550 0.24240 0.38100 0.49200
H 	H 	0.82070 0.26360 0.37900 0.48000
N 	N 	0.65922 0.28120 0.45768 -0.17800
C 	C 	0.64360 0.25820 0.45290 0.39100
O 	O 	0.64180 0.24550 0.43210 -0.29100
O 	O 	0.63180 0.24830 0.47630 -0.24300
C 	C 	0.64270 0.26310 0.49800 0.01800
H 	H 	0.65540 0.25110 0.50860 0.06700
H 	H 	0.62760 0.26870 0.51050 0.05800
C 	C 	0.65910 0.28990 0.48800 0.00500
H 	H 	0.67840 0.28820 0.49500 0.04800
O 	O 	0.79806 0.30439 0.50268 -0.44700
N 	N 	0.84152 0.33334 0.50454 -0.12700
C 	C 	0.82302 0.30454 0.50454 1.00400
H 	H 	0.79610 0.32850 0.50170 -0.55200
C 	C 	0.87123 0.32396 0.50842 -0.09200
H 	H 	0.88460 0.32990 0.49420 0.08100
H 	H 	0.87400 0.30470 0.51480 0.08200
C 	C 	0.72495 0.77786 0.96136 0.41700
O 	O 	0.74700 0.78903 0.97050 -0.45200
O 	O 	0.71412 0.75556 0.96970 -0.45500
C 	C 	0.71072 0.79286 0.93743 -0.20800
C 	C 	0.72619 0.80749 0.91705 0.16400
C 	C 	0.71312 0.81979 0.89468 -0.20300
H 	H 	0.72380 0.82920 0.88130 0.08700
C 	C 	0.68376 0.81849 0.89161 0.10300
C 	C 	0.66837 0.80387 0.91178 -0.21200
H 	H 	0.64890 0.80280 0.91010 0.11700
C 	C 	0.68129 0.79099 0.93416 0.17600
C 	C 	0.68096 0.85513 0.85374 -0.07700
H 	H 	0.69700 0.86340 0.86130 0.05100
C 	C 	0.66971 0.83126 0.86654 -0.00500
N 	N 	0.75857 0.81096 0.91506 -0.11500
C 	C 	0.77140 0.83350 0.92790 0.34900
O 	O 	0.76050 0.85440 0.93680 -0.26000
O 	O 	0.79856 0.82810 0.93125 -0.29500
C 	C 	0.80500 0.79830 0.92320 0.26200
H 	H 	0.82100 0.79750 0.91060 -0.05700
H 	H 	0.80900 0.78710 0.93980 -0.02000
C 	C 	0.77898 0.78832 0.90896 -0.50500
H 	H 	0.77260 0.77080 0.91790 0.19200
C 	C 	0.78210 0.78370 0.87885 1.05700
H 	H 	0.76350 0.77790 0.87200 -0.30100
C 	C 	0.79020 0.80870 0.86180 -1.57100
H 	H 	0.77860 0.82450 0.86690 0.48600
H 	H 	0.78760 0.80460 0.84220 0.45300
H 	H 	0.80960 0.81320 0.86520 0.47800
C 	C 	0.80220 0.75920 0.87210 -1.53400
H 	H 	0.80290 0.75640 0.85210 0.45800
H 	H 	0.79550 0.74240 0.88100 0.49200
H 	H 	0.82070 0.76360 0.87900 0.48000
N 	N 	0.65922 0.78120 0.95768 -0.17700
C 	C 	0.64360 0.75820 0.95290 0.39100
O 	O 	0.64180 0.74550 0.93210 -0.29100
O 	O 	0.63180 0.74830 0.97630 -0.24400
C 	C 	0.64270 0.76310 0.99800 0.02600
H 	H 	0.65540 0.75110 0.00860 0.06400
H 	H 	0.62760 0.76870 0.01050 0.05500
C 	C 	0.65910 0.78990 0.98800 0.00400
H 	H 	0.67840 0.78820 0.99500 0.04900
O 	O 	0.79806 0.80439 0.00268 -0.43500
N 	N 	0.84152 0.83334 0.00454 -0.13100
C 	C 	0.82302 0.80454 0.00454 1.01500
H 	H 	0.79610 0.82850 0.00170 -0.54700
C 	C 	0.87123 0.82396 0.00842 -0.09500
H 	H 	0.88460 0.82990 0.99420 0.08300
H 	H 	0.87400 0.80470 0.01480 0.08300
C 	C 	0.77505 0.72214 0.96136 0.41700
O 	O 	0.75300 0.71097 0.97050 -0.45200
O 	O 	0.78588 0.74444 0.96970 -0.45500
C 	C 	0.78928 0.70714 0.93743 -0.20800
C 	C 	0.77381 0.69251 0.91705 0.16400
C 	C 	0.78688 0.68021 0.89468 -0.20300
H 	H 	0.77620 0.67080 0.88130 0.08700
C 	C 	0.81624 0.68151 0.89161 0.10300
C 	C 	0.83163 0.69613 0.91178 -0.21200
H 	H 	0.85110 0.69720 0.91010 0.11700
C 	C 	0.81871 0.70901 0.93416 0.17600
C 	C 	0.81904 0.64487 0.85374 -0.07700
H 	H 	0.80300 0.63660 0.86130 0.05100
C 	C 	0.83029 0.66874 0.86654 -0.00500
N 	N 	0.74143 0.68904 0.91506 -0.11500
C 	C 	0.72860 0.66650 0.92790 0.34900
O 	O 	0.73950 0.64560 0.93680 -0.26100
O 	O 	0.70144 0.67190 0.93125 -0.29500
C 	C 	0.69500 0.70170 0.92320 0.26200
H 	H 	0.67900 0.70250 0.91060 -0.05700
H 	H 	0.69100 0.71290 0.93980 -0.02000
C 	C 	0.72102 0.71168 0.90896 -0.50400
H 	H 	0.72740 0.72920 0.91790 0.19200
C 	C 	0.71790 0.71630 0.87885 1.05700
H 	H 	0.73650 0.72210 0.87200 -0.30100
C 	C 	0.70980 0.69130 0.86180 -1.57100
H 	H 	0.72140 0.67550 0.86690 0.48600
H 	H 	0.71240 0.69540 0.84220 0.45300
H 	H 	0.69040 0.68680 0.86520 0.47800
C 	C 	0.69780 0.74080 0.87210 -1.53400
H 	H 	0.69710 0.74360 0.85210 0.45800
H 	H 	0.70450 0.75760 0.88100 0.49200
H 	H 	0.67930 0.73640 0.87900 0.48000
N 	N 	0.84078 0.71880 0.95768 -0.17700
C 	C 	0.85640 0.74180 0.95290 0.39100
O 	O 	0.85820 0.75450 0.93210 -0.29100
O 	O 	0.86820 0.75170 0.97630 -0.24400
C 	C 	0.85730 0.73690 0.99800 0.02600
H 	H 	0.84460 0.74890 0.00860 0.06400
H 	H 	0.87240 0.73130 0.01050 0.05500
C 	C 	0.84090 0.71010 0.98800 0.00400
H 	H 	0.82160 0.71180 0.99500 0.04900
O 	O 	0.70194 0.69561 0.00268 -0.43500
N 	N 	0.65848 0.66666 0.00454 -0.13100
C 	C 	0.67698 0.69546 0.00454 1.01500
H 	H 	0.70390 0.67150 0.00170 -0.54700
C 	C 	0.62877 0.67604 0.00842 -0.09500
H 	H 	0.61540 0.67010 0.99420 0.08300
H 	H 	0.62600 0.69530 0.01480 0.08300
C 	C 	0.77505 0.22214 0.46136 0.41700
O 	O 	0.75300 0.21097 0.47050 -0.45200
O 	O 	0.78588 0.24444 0.46970 -0.45600
C 	C 	0.78928 0.20714 0.43743 -0.20900
C 	C 	0.77381 0.19251 0.41705 0.16400
C 	C 	0.78688 0.18021 0.39468 -0.20300
H 	H 	0.77620 0.17080 0.38130 0.08700
C 	C 	0.81624 0.18151 0.39161 0.10300
C 	C 	0.83163 0.19613 0.41178 -0.21200
H 	H 	0.85110 0.19720 0.41010 0.11700
C 	C 	0.81871 0.20901 0.43416 0.17600
C 	C 	0.81904 0.14487 0.35374 -0.07700
H 	H 	0.80300 0.13660 0.36130 0.05100
C 	C 	0.83029 0.16874 0.36654 -0.00500
N 	N 	0.74143 0.18904 0.41506 -0.11500
C 	C 	0.72860 0.16650 0.42790 0.34900
O 	O 	0.73950 0.14560 0.43680 -0.26100
O 	O 	0.70144 0.17190 0.43125 -0.29500
C 	C 	0.69500 0.20170 0.42320 0.26200
H 	H 	0.67900 0.20250 0.41060 -0.05700
H 	H 	0.69100 0.21290 0.43980 -0.02000
C 	C 	0.72102 0.21168 0.40896 -0.50500
H 	H 	0.72740 0.22920 0.41790 0.19200
C 	C 	0.71790 0.21630 0.37885 1.05700
H 	H 	0.73650 0.22210 0.37200 -0.30200
C 	C 	0.70980 0.19130 0.36180 -1.57100
H 	H 	0.72140 0.17550 0.36690 0.48600
H 	H 	0.71240 0.19540 0.34220 0.45300
H 	H 	0.69040 0.18680 0.36520 0.47800
C 	C 	0.69780 0.24080 0.37210 -1.53400
H 	H 	0.69710 0.24360 0.35210 0.45800
H 	H 	0.70450 0.25760 0.38100 0.49200
H 	H 	0.67930 0.23640 0.37900 0.48000
N 	N 	0.84078 0.21880 0.45768 -0.17800
C 	C 	0.85640 0.24180 0.45290 0.39100
O 	O 	0.85820 0.25450 0.43210 -0.29100
O 	O 	0.86820 0.25170 0.47630 -0.24300
C 	C 	0.85730 0.23690 0.49800 0.01800
H 	H 	0.84460 0.24890 0.50860 0.06700
H 	H 	0.87240 0.23130 0.51050 0.05800
C 	C 	0.84090 0.21010 0.48800 0.00500
H 	H 	0.82160 0.21180 0.49500 0.04800
O 	O 	0.70194 0.19561 0.50268 -0.44700
N 	N 	0.65848 0.16666 0.50454 -0.12700
C 	C 	0.67698 0.19546 0.50454 1.00400
H 	H 	0.70390 0.17150 0.50170 -0.55200
C 	C 	0.62877 0.17604 0.50842 -0.09200
H 	H 	0.61540 0.17010 0.49420 0.08100
H 	H 	0.62600 0.19530 0.51480 0.08200
C 	C 	0.27505 0.72214 0.46136 0.41700
O 	O 	0.25300 0.71097 0.47050 -0.45200
O 	O 	0.28588 0.74444 0.46970 -0.45600
C 	C 	0.28928 0.70714 0.43743 -0.20900
C 	C 	0.27381 0.69251 0.41705 0.16400
C 	C 	0.28688 0.68021 0.39468 -0.20300
H 	H 	0.27620 0.67080 0.38130 0.08700
C 	C 	0.31624 0.68151 0.39161 0.10300
C 	C 	0.33163 0.69613 0.41178 -0.21200
H 	H 	0.35110 0.69720 0.41010 0.11700
C 	C 	0.31871 0.70901 0.43416 0.17600
C 	C 	0.31904 0.64487 0.35374 -0.07700
H 	H 	0.30300 0.63660 0.36130 0.05100
C 	C 	0.33029 0.66874 0.36654 -0.00500
N 	N 	0.24143 0.68904 0.41506 -0.11500
C 	C 	0.22860 0.66650 0.42790 0.34900
O 	O 	0.23950 0.64560 0.43680 -0.26100
O 	O 	0.20144 0.67190 0.43125 -0.29500
C 	C 	0.19500 0.70170 0.42320 0.26200
H 	H 	0.17900 0.70250 0.41060 -0.05700
H 	H 	0.19100 0.71290 0.43980 -0.02000
C 	C 	0.22102 0.71168 0.40896 -0.50500
H 	H 	0.22740 0.72920 0.41790 0.19200
C 	C 	0.21790 0.71630 0.37885 1.05700
H 	H 	0.23650 0.72210 0.37200 -0.30200
C 	C 	0.20980 0.69130 0.36180 -1.57100
H 	H 	0.22140 0.67550 0.36690 0.48600
H 	H 	0.21240 0.69540 0.34220 0.45300
H 	H 	0.19040 0.68680 0.36520 0.47800
C 	C 	0.19780 0.74080 0.37210 -1.53400
H 	H 	0.19710 0.74360 0.35210 0.45800
H 	H 	0.20450 0.75760 0.38100 0.49200
H 	H 	0.17930 0.73640 0.37900 0.48000
N 	N 	0.34078 0.71880 0.45768 -0.17800
C 	C 	0.35640 0.74180 0.45290 0.39100
O 	O 	0.35820 0.75450 0.43210 -0.29100
O 	O 	0.36820 0.75170 0.47630 -0.24300
C 	C 	0.35730 0.73690 0.49800 0.01800
H 	H 	0.34460 0.74890 0.50860 0.06700
H 	H 	0.37240 0.73130 0.51050 0.05800
C 	C 	0.34090 0.71010 0.48800 0.00500
H 	H 	0.32160 0.71180 0.49500 0.04800
O 	O 	0.20194 0.69561 0.50268 -0.44700
N 	N 	0.15848 0.66666 0.50454 -0.12700
C 	C 	0.17698 0.69546 0.50454 1.00400
H 	H 	0.20390 0.67150 0.50170 -0.55200
C 	C 	0.12877 0.67604 0.50842 -0.09200
H 	H 	0.11540 0.67010 0.49420 0.08100
H 	H 	0.12600 0.69530 0.51480 0.08200
C 	C 	0.27505 0.22214 0.96136 0.41700
O 	O 	0.25300 0.21097 0.97050 -0.45200
O 	O 	0.28588 0.24444 0.96970 -0.45500
C 	C 	0.28928 0.20714 0.93743 -0.20800
C 	C 	0.27381 0.19251 0.91705 0.16400
C 	C 	0.28688 0.18021 0.89468 -0.20300
H 	H 	0.27620 0.17080 0.88130 0.08700
C 	C 	0.31624 0.18151 0.89161 0.10300
C 	C 	0.33163 0.19613 0.91178 -0.21200
H 	H 	0.35110 0.19720 0.91010 0.11700
C 	C 	0.31871 0.20901 0.93416 0.17600
C 	C 	0.31904 0.14487 0.85374 -0.07700
H 	H 	0.30300 0.13660 0.86130 0.05100
C 	C 	0.33029 0.16874 0.86654 -0.00500
N 	N 	0.24143 0.18904 0.91506 -0.11500
C 	C 	0.22860 0.16650 0.92790 0.34900
O 	O 	0.23950 0.14560 0.93680 -0.26100
O 	O 	0.20144 0.17190 0.93125 -0.29500
C 	C 	0.19500 0.20170 0.92320 0.26200
H 	H 	0.17900 0.20250 0.91060 -0.05700
H 	H 	0.19100 0.21290 0.93980 -0.02000
C 	C 	0.22102 0.21168 0.90896 -0.50400
H 	H 	0.22740 0.22920 0.91790 0.19200
C 	C 	0.21790 0.21630 0.87885 1.05700
H 	H 	0.23650 0.22210 0.87200 -0.30100
C 	C 	0.20980 0.19130 0.86180 -1.57000
H 	H 	0.22140 0.17550 0.86690 0.48600
H 	H 	0.21240 0.19540 0.84220 0.45300
H 	H 	0.19040 0.18680 0.86520 0.47800
C 	C 	0.19780 0.24080 0.87210 -1.53400
H 	H 	0.19710 0.24360 0.85210 0.45800
H 	H 	0.20450 0.25760 0.88100 0.49200
H 	H 	0.17930 0.23640 0.87900 0.48000
N 	N 	0.34078 0.21880 0.95768 -0.17700
C 	C 	0.35640 0.24180 0.95290 0.39100
O 	O 	0.35820 0.25450 0.93210 -0.29100
O 	O 	0.36820 0.25170 0.97630 -0.24400
C 	C 	0.35730 0.23690 0.99800 0.02600
H 	H 	0.34460 0.24890 0.00860 0.06400
H 	H 	0.37240 0.23130 0.01050 0.05500
C 	C 	0.34090 0.21010 0.98800 0.00400
H 	H 	0.32160 0.21180 0.99500 0.04900
O 	O 	0.20194 0.19561 0.00268 -0.43500
N 	N 	0.15848 0.16666 0.00454 -0.13100
C 	C 	0.17698 0.19546 0.00454 1.01500
H 	H 	0.20390 0.17150 0.00170 -0.54700
C 	C 	0.12877 0.17604 0.00842 -0.09500
H 	H 	0.11540 0.17010 0.99420 0.08300
H 	H 	0.12600 0.19530 0.01480 0.08300
C 	C 	0.77505 0.27786 0.03864 0.41700
O 	O 	0.75300 0.28903 0.02950 -0.45300
O 	O 	0.78588 0.25556 0.03030 -0.45600
C 	C 	0.78928 0.29286 0.06257 -0.20900
C 	C 	0.77381 0.30749 0.08295 0.16400
C 	C 	0.78688 0.31979 0.10532 -0.20300
H 	H 	0.77620 0.32920 0.11870 0.08700
C 	C 	0.81624 0.31849 0.10839 0.10300
C 	C 	0.83163 0.30387 0.08822 -0.21200
H 	H 	0.85110 0.30280 0.08990 0.11700
C 	C 	0.81871 0.29099 0.06584 0.17600
C 	C 	0.81904 0.35513 0.14626 -0.07700
H 	H 	0.80300 0.36340 0.13870 0.05100
C 	C 	0.83029 0.33126 0.13346 -0.00500
N 	N 	0.74143 0.31096 0.08494 -0.11500
C 	C 	0.72860 0.33350 0.07210 0.34900
O 	O 	0.73950 0.35440 0.06320 -0.26100
O 	O 	0.70144 0.32810 0.06875 -0.29600
C 	C 	0.69500 0.29830 0.07680 0.26300
H 	H 	0.67900 0.29750 0.08940 -0.05800
H 	H 	0.69100 0.28710 0.06020 -0.02100
C 	C 	0.72102 0.28832 0.09104 -0.50500
H 	H 	0.72740 0.27080 0.08210 0.19200
C 	C 	0.71790 0.28370 0.12115 1.05700
H 	H 	0.73650 0.27790 0.12800 -0.30200
C 	C 	0.70980 0.30870 0.13820 -1.57100
H 	H 	0.72140 0.32450 0.13310 0.48600
H 	H 	0.71240 0.30460 0.15780 0.45300
H 	H 	0.69040 0.31320 0.13480 0.47800
C 	C 	0.69780 0.25920 0.12790 -1.53400
H 	H 	0.69710 0.25640 0.14790 0.45800
H 	H 	0.70450 0.24240 0.11900 0.49200
H 	H 	0.67930 0.26360 0.12100 0.48000
N 	N 	0.84078 0.28120 0.04232 -0.17800
C 	C 	0.85640 0.25820 0.04710 0.39100
O 	O 	0.85820 0.24550 0.06790 -0.29100
O 	O 	0.86820 0.24830 0.02370 -0.24200
C 	C 	0.85730 0.26310 0.00200 0.01000
H 	H 	0.84460 0.25110 0.99140 0.07100
H 	H 	0.87240 0.26870 0.98950 0.06200
C 	C 	0.84090 0.28990 0.01200 0.00700
H 	H 	0.82160 0.28820 0.00500 0.04700
O 	O 	0.70194 0.30439 0.99732 -0.45800
N 	N 	0.65848 0.33334 0.99546 -0.12300
C 	C 	0.67698 0.30454 0.99546 0.99200
H 	H 	0.70390 0.32850 0.99830 -0.55600
C 	C 	0.62877 0.32396 0.99158 -0.09000
H 	H 	0.61540 0.32990 0.00580 0.07900
H 	H 	0.62600 0.30470 0.98520 0.08200
C 	C 	0.77505 0.77786 0.53864 0.41700
O 	O 	0.75300 0.78903 0.52950 -0.45200
O 	O 	0.78588 0.75556 0.53030 -0.45600
C 	C 	0.78928 0.79286 0.56257 -0.20900
C 	C 	0.77381 0.80749 0.58295 0.16400
C 	C 	0.78688 0.81979 0.60532 -0.20300
H 	H 	0.77620 0.82920 0.61870 0.08700
C 	C 	0.81624 0.81849 0.60839 0.10300
C 	C 	0.83163 0.80387 0.58822 -0.21200
H 	H 	0.85110 0.80280 0.58990 0.11700
C 	C 	0.81871 0.79099 0.56584 0.17600
C 	C 	0.81904 0.85513 0.64626 -0.07700
H 	H 	0.80300 0.86340 0.63870 0.05100
C 	C 	0.83029 0.83126 0.63346 -0.00500
N 	N 	0.74143 0.81096 0.58494 -0.11500
C 	C 	0.72860 0.83350 0.57210 0.34900
O 	O 	0.73950 0.85440 0.56320 -0.26100
O 	O 	0.70144 0.82810 0.56875 -0.29500
C 	C 	0.69500 0.79830 0.57680 0.26200
H 	H 	0.67900 0.79750 0.58940 -0.05700
H 	H 	0.69100 0.78710 0.56020 -0.02000
C 	C 	0.72102 0.78832 0.59104 -0.50500
H 	H 	0.72740 0.77080 0.58210 0.19200
C 	C 	0.71790 0.78370 0.62115 1.05700
H 	H 	0.73650 0.77790 0.62800 -0.30200
C 	C 	0.70980 0.80870 0.63820 -1.57100
H 	H 	0.72140 0.82450 0.63310 0.48600
H 	H 	0.71240 0.80460 0.65780 0.45300
H 	H 	0.69040 0.81320 0.63480 0.47800
C 	C 	0.69780 0.75920 0.62790 -1.53400
H 	H 	0.69710 0.75640 0.64790 0.45800
H 	H 	0.70450 0.74240 0.61900 0.49200
H 	H 	0.67930 0.76360 0.62100 0.48000
N 	N 	0.84078 0.78120 0.54232 -0.17800
C 	C 	0.85640 0.75820 0.54710 0.39100
O 	O 	0.85820 0.74550 0.56790 -0.29100
O 	O 	0.86820 0.74830 0.52370 -0.24300
C 	C 	0.85730 0.76310 0.50200 0.01800
H 	H 	0.84460 0.75110 0.49140 0.06700
H 	H 	0.87240 0.76870 0.48950 0.05900
C 	C 	0.84090 0.78990 0.51200 0.00500
H 	H 	0.82160 0.78820 0.50500 0.04800
O 	O 	0.70194 0.80439 0.49732 -0.44700
N 	N 	0.65848 0.83334 0.49546 -0.12700
C 	C 	0.67698 0.80454 0.49546 1.00400
H 	H 	0.70390 0.82850 0.49830 -0.55200
C 	C 	0.62877 0.82396 0.49158 -0.09200
H 	H 	0.61540 0.82990 0.50580 0.08100
H 	H 	0.62600 0.80470 0.48520 0.08200
C 	C 	0.27505 0.27786 0.53864 0.41700
O 	O 	0.25300 0.28903 0.52950 -0.45200
O 	O 	0.28588 0.25556 0.53030 -0.45600
C 	C 	0.28928 0.29286 0.56257 -0.20900
C 	C 	0.27381 0.30749 0.58295 0.16400
C 	C 	0.28688 0.31979 0.60532 -0.20300
H 	H 	0.27620 0.32920 0.61870 0.08700
C 	C 	0.31624 0.31849 0.60839 0.10300
C 	C 	0.33163 0.30387 0.58822 -0.21200
H 	H 	0.35110 0.30280 0.58990 0.11700
C 	C 	0.31871 0.29099 0.56584 0.17600
C 	C 	0.31904 0.35513 0.64626 -0.07700
H 	H 	0.30300 0.36340 0.63870 0.05100
C 	C 	0.33029 0.33126 0.63346 -0.00500
N 	N 	0.24143 0.31096 0.58494 -0.11500
C 	C 	0.22860 0.33350 0.57210 0.34900
O 	O 	0.23950 0.35440 0.56320 -0.26100
O 	O 	0.20144 0.32810 0.56875 -0.29500
C 	C 	0.19500 0.29830 0.57680 0.26200
H 	H 	0.17900 0.29750 0.58940 -0.05700
H 	H 	0.19100 0.28710 0.56020 -0.02000
C 	C 	0.22102 0.28832 0.59104 -0.50500
H 	H 	0.22740 0.27080 0.58210 0.19200
C 	C 	0.21790 0.28370 0.62115 1.05700
H 	H 	0.23650 0.27790 0.62800 -0.30200
C 	C 	0.20980 0.30870 0.63820 -1.57100
H 	H 	0.22140 0.32450 0.63310 0.48600
H 	H 	0.21240 0.30460 0.65780 0.45300
H 	H 	0.19040 0.31320 0.63480 0.47800
C 	C 	0.19780 0.25920 0.62790 -1.53400
H 	H 	0.19710 0.25640 0.64790 0.45800
H 	H 	0.20450 0.24240 0.61900 0.49200
H 	H 	0.17930 0.26360 0.62100 0.48000
N 	N 	0.34078 0.28120 0.54232 -0.17800
C 	C 	0.35640 0.25820 0.54710 0.39100
O 	O 	0.35820 0.24550 0.56790 -0.29100
O 	O 	0.36820 0.24830 0.52370 -0.24300
C 	C 	0.35730 0.26310 0.50200 0.01800
H 	H 	0.34460 0.25110 0.49140 0.06700
H 	H 	0.37240 0.26870 0.48950 0.05800
C 	C 	0.34090 0.28990 0.51200 0.00500
H 	H 	0.32160 0.28820 0.50500 0.04800
O 	O 	0.20194 0.30439 0.49732 -0.44700
N 	N 	0.15848 0.33334 0.49546 -0.12700
C 	C 	0.17698 0.30454 0.49546 1.00400
H 	H 	0.20390 0.32850 0.49830 -0.55200
C 	C 	0.12877 0.32396 0.49158 -0.09200
H 	H 	0.11540 0.32990 0.50580 0.08100
H 	H 	0.12600 0.30470 0.48520 0.08200
C 	C 	0.27505 0.77786 0.03864 0.41700
O 	O 	0.25300 0.78903 0.02950 -0.45300
O 	O 	0.28588 0.75556 0.03030 -0.45600
C 	C 	0.28928 0.79286 0.06257 -0.20900
C 	C 	0.27381 0.80749 0.08295 0.16400
C 	C 	0.28688 0.81979 0.10532 -0.20300
H 	H 	0.27620 0.82920 0.11870 0.08700
C 	C 	0.31624 0.81849 0.10839 0.10300
C 	C 	0.33163 0.80387 0.08822 -0.21200
H 	H 	0.35110 0.80280 0.08990 0.11700
C 	C 	0.31871 0.79099 0.06584 0.17600
C 	C 	0.31904 0.85513 0.14626 -0.07700
H 	H 	0.30300 0.86340 0.13870 0.05100
C 	C 	0.33029 0.83126 0.13346 -0.00500
N 	N 	0.24143 0.81096 0.08494 -0.11500
C 	C 	0.22860 0.83350 0.07210 0.34900
O 	O 	0.23950 0.85440 0.06320 -0.26100
O 	O 	0.20144 0.82810 0.06875 -0.29600
C 	C 	0.19500 0.79830 0.07680 0.26300
H 	H 	0.17900 0.79750 0.08940 -0.05800
H 	H 	0.19100 0.78710 0.06020 -0.02100
C 	C 	0.22102 0.78832 0.09104 -0.50500
H 	H 	0.22740 0.77080 0.08210 0.19200
C 	C 	0.21790 0.78370 0.12115 1.05700
H 	H 	0.23650 0.77790 0.12800 -0.30200
C 	C 	0.20980 0.80870 0.13820 -1.57100
H 	H 	0.22140 0.82450 0.13310 0.48600
H 	H 	0.21240 0.80460 0.15780 0.45300
H 	H 	0.19040 0.81320 0.13480 0.47800
C 	C 	0.19780 0.75920 0.12790 -1.53400
H 	H 	0.19710 0.75640 0.14790 0.45800
H 	H 	0.20450 0.74240 0.11900 0.49200
H 	H 	0.17930 0.76360 0.12100 0.48000
N 	N 	0.34078 0.78120 0.04232 -0.17800
C 	C 	0.35640 0.75820 0.04710 0.39100
O 	O 	0.35820 0.74550 0.06790 -0.29100
O 	O 	0.36820 0.74830 0.02370 -0.24200
C 	C 	0.35730 0.76310 0.00200 0.01000
H 	H 	0.34460 0.75110 0.99140 0.07000
H 	H 	0.37240 0.76870 0.98950 0.06200
C 	C 	0.34090 0.78990 0.01200 0.00700
H 	H 	0.32160 0.78820 0.00500 0.04700
O 	O 	0.20194 0.80439 0.99732 -0.45800
N 	N 	0.15848 0.83334 0.99546 -0.12300
C 	C 	0.17698 0.80454 0.99546 0.99200
H 	H 	0.20390 0.82850 0.99830 -0.55600
C 	C 	0.12877 0.82396 0.99158 -0.09000
H 	H 	0.11540 0.82990 0.00580 0.07900
H 	H 	0.12600 0.80470 0.98520 0.08200
Zn	Zn	-0.00000 0.72780 0.27220 1.24800
Zn	Zn	-0.00000 0.22780 0.77220 1.24800
Zn	Zn	0.50000 0.72780 0.77220 1.24900
Zn	Zn	0.50000 0.22780 0.27220 1.24900
Zn	Zn	-0.00000 0.27220 0.27220 1.24800
Zn	Zn	0.00000 0.77220 0.77220 1.24800
Zn	Zn	0.50000 0.27220 0.77220 1.24900
Zn	Zn	0.50000 0.77220 0.27220 1.24900
Zn	Zn	0.00000 0.72780 0.72780 1.24800
Zn	Zn	0.00000 0.22780 0.22780 1.24800
Zn	Zn	0.50000 0.72780 0.22780 1.24900
Zn	Zn	0.50000 0.22780 0.72780 1.24900
Zn	Zn	-0.00000 0.27220 0.72780 1.24800
Zn	Zn	-0.00000 0.77220 0.22780 1.24800
Zn	Zn	0.50000 0.27220 0.22780 1.24900
Zn	Zn	0.50000 0.77220 0.72780 1.24900
Zn	Zn	0.27220 0.00000 0.72780 1.24800
Zn	Zn	0.27220 0.50000 0.22780 1.24900
Zn	Zn	0.77220 0.00000 0.22780 1.24800
Zn	Zn	0.77220 0.50000 0.72780 1.24900
Zn	Zn	0.27220 0.00000 0.27220 1.24800
Zn	Zn	0.27220 0.50000 0.77220 1.24900
Zn	Zn	0.77220 0.00000 0.77220 1.24800
Zn	Zn	0.77220 0.50000 0.27220 1.24900
Zn	Zn	0.72780 0.00000 0.72780 1.24800
Zn	Zn	0.72780 0.50000 0.22780 1.24900
Zn	Zn	0.22780 0.00000 0.22780 1.24800
Zn	Zn	0.22780 0.50000 0.72780 1.24900
Zn	Zn	0.72780 0.00000 0.27220 1.24800
Zn	Zn	0.72780 0.50000 0.77220 1.24900
Zn	Zn	0.22780 0.00000 0.77220 1.24800
Zn	Zn	0.22780 0.50000 0.27220 1.24900
Zn	Zn	0.72780 0.27220 -0.00000 1.24800
Zn	Zn	0.72780 0.77220 0.50000 1.24900
Zn	Zn	0.22780 0.27220 0.50000 1.24900
Zn	Zn	0.22780 0.77220 -0.00000 1.24800
Zn	Zn	0.27220 0.27220 -0.00000 1.24800
Zn	Zn	0.27220 0.77220 0.50000 1.24900
Zn	Zn	0.77220 0.27220 0.50000 1.24900
Zn	Zn	0.77220 0.77220 -0.00000 1.24800
Zn	Zn	0.72780 0.72780 -0.00000 1.24800
Zn	Zn	0.72780 0.22780 0.50000 1.24900
Zn	Zn	0.22780 0.72780 0.50000 1.24900
Zn	Zn	0.22780 0.22780 -0.00000 1.24800
Zn	Zn	0.27220 0.72780 -0.00000 1.24800
Zn	Zn	0.27220 0.22780 0.50000 1.24900
Zn	Zn	0.77220 0.72780 0.50000 1.24900
Zn	Zn	0.77220 0.22780 -0.00000 1.24800
