data_crystal

_cell_length_a 14.74100
_cell_length_b 14.74100
_cell_length_c 17.13500
_cell_angle_alpha 90.00000
_cell_angle_beta  90.00000
_cell_angle_gamma 120.00000

_symmetry_space_group_name_	'P 1'
_symmetry_space_group_name_H-M	'P 1'

loop_
_symmetry_equiv_pos_as_xyz
  x,y,z

loop_
_atom_site_label
_atom_site_type_symbol
_atom_site_fract_x
_atom_site_fract_y
_atom_site_fract_z
_atom_site_charge
O 	O 	0.50340 0.15720 0.16620 -0.47500
C 	C 	0.37400 0.92900 0.14300 -0.53800
H 	H 	0.37150 0.86650 0.16050 0.16300
H 	H 	0.30380 0.91560 0.13350 0.17100
H 	H 	0.40620 0.98270 0.18210 0.18400
C 	C 	0.59050 0.09700 0.99830 0.03700
C 	C 	0.43800 0.96700 0.06680 0.11200
H 	H 	0.70300 0.23700 0.04790 0.10100
H 	H 	0.75200 0.18970 0.99110 0.08500
H 	H 	0.69450 0.24630 0.95740 0.07800
C 	C 	0.69500 0.20300 0.99900 -0.26700
O 	O 	0.84280 0.34620 0.16620 -0.47500
C 	C 	0.07100 0.44500 0.14300 -0.53800
H 	H 	0.13350 0.50500 0.16050 0.16300
H 	H 	0.08440 0.38820 0.13350 0.17100
H 	H 	0.01730 0.42350 0.18210 0.18400
C 	C 	0.90300 0.49350 0.99830 0.03600
C 	C 	0.03300 0.47100 0.06680 0.11200
H 	H 	0.76300 0.46600 0.04790 0.10100
H 	H 	0.81030 0.56230 0.99110 0.08500
H 	H 	0.75370 0.44820 0.95740 0.07700
C 	C 	0.79700 0.49200 0.99900 -0.26800
O 	O 	0.65380 0.49660 0.16620 -0.47600
C 	C 	0.55500 0.62600 0.14300 -0.54000
H 	H 	0.49500 0.62850 0.16050 0.16200
H 	H 	0.61180 0.69620 0.13350 0.17000
H 	H 	0.57650 0.59380 0.18210 0.18300
C 	C 	0.50650 0.40950 0.99830 0.03600
C 	C 	0.52900 0.56200 0.06680 0.11100
H 	H 	0.53400 0.29700 0.04790 0.10000
H 	H 	0.43770 0.24800 0.99110 0.08400
H 	H 	0.55180 0.30550 0.95740 0.07700
C 	C 	0.50800 0.30500 0.99900 -0.26800
O 	O 	0.49660 0.84280 0.66620 -0.47600
C 	C 	0.62600 0.07100 0.64300 -0.54000
H 	H 	0.62850 0.13350 0.66050 0.16200
H 	H 	0.69620 0.08440 0.63350 0.17000
H 	H 	0.59380 0.01730 0.68210 0.18300
C 	C 	0.40950 0.90300 0.49830 0.03600
C 	C 	0.56200 0.03300 0.56680 0.11200
H 	H 	0.29700 0.76300 0.54790 0.09900
H 	H 	0.24800 0.81030 0.49110 0.08400
H 	H 	0.30550 0.75370 0.45740 0.07700
C 	C 	0.30500 0.79700 0.49900 -0.26700
O 	O 	0.15720 0.65380 0.66620 -0.47600
C 	C 	0.92900 0.55500 0.64300 -0.54000
H 	H 	0.86650 0.49500 0.66050 0.16200
H 	H 	0.91560 0.61180 0.63350 0.17000
H 	H 	0.98270 0.57650 0.68210 0.18300
C 	C 	0.09700 0.50650 0.49830 0.03600
C 	C 	0.96700 0.52900 0.56680 0.11100
H 	H 	0.23700 0.53400 0.54790 0.09900
H 	H 	0.18970 0.43770 0.49110 0.08400
H 	H 	0.24630 0.55180 0.45740 0.07700
C 	C 	0.20300 0.50800 0.49900 -0.26700
O 	O 	0.34620 0.50340 0.66620 -0.47600
C 	C 	0.44500 0.37400 0.64300 -0.54000
H 	H 	0.50500 0.37150 0.66050 0.16200
H 	H 	0.38820 0.30380 0.63350 0.17000
H 	H 	0.42350 0.40620 0.68210 0.18300
C 	C 	0.49350 0.59050 0.49830 0.03600
C 	C 	0.47100 0.43800 0.56680 0.11100
H 	H 	0.46600 0.70300 0.54790 0.09900
H 	H 	0.56230 0.75200 0.49110 0.08400
H 	H 	0.44820 0.69450 0.45740 0.07700
C 	C 	0.49200 0.69500 0.49900 -0.26700
O 	O 	0.15720 0.50340 0.83380 -0.47600
C 	C 	0.92900 0.37400 0.85700 -0.53900
H 	H 	0.86650 0.37150 0.83950 0.16200
H 	H 	0.91560 0.30380 0.86650 0.17000
H 	H 	0.98270 0.40620 0.81790 0.18300
C 	C 	0.09700 0.59050 0.00170 0.03600
C 	C 	0.96700 0.43800 0.93320 0.11100
H 	H 	0.23700 0.70300 0.95210 0.10000
H 	H 	0.18970 0.75200 0.00890 0.08400
H 	H 	0.24630 0.69450 0.04260 0.07700
C 	C 	0.20300 0.69500 0.00100 -0.26800
O 	O 	0.34620 0.84280 0.83380 -0.47600
C 	C 	0.44500 0.07100 0.85700 -0.53900
H 	H 	0.50500 0.13350 0.83950 0.16200
H 	H 	0.38820 0.08440 0.86650 0.17000
H 	H 	0.42350 0.01730 0.81790 0.18300
C 	C 	0.49350 0.90300 0.00170 0.03500
C 	C 	0.47100 0.03300 0.93320 0.11100
H 	H 	0.46600 0.76300 0.95210 0.10000
H 	H 	0.56230 0.81030 0.00890 0.08400
H 	H 	0.44820 0.75370 0.04260 0.07700
C 	C 	0.49200 0.79700 0.00100 -0.26800
O 	O 	0.49660 0.65380 0.83380 -0.47600
C 	C 	0.62600 0.55500 0.85700 -0.54000
H 	H 	0.62850 0.49500 0.83950 0.16200
H 	H 	0.69620 0.61180 0.86650 0.17000
H 	H 	0.59380 0.57650 0.81790 0.18300
C 	C 	0.40950 0.50650 0.00170 0.03600
C 	C 	0.56200 0.52900 0.93320 0.11100
H 	H 	0.29700 0.53400 0.95210 0.10000
H 	H 	0.24800 0.43770 0.00890 0.08400
H 	H 	0.30550 0.55180 0.04260 0.07700
C 	C 	0.30500 0.50800 0.00100 -0.26800
O 	O 	0.84280 0.49660 0.33380 -0.47600
C 	C 	0.07100 0.62600 0.35700 -0.54000
H 	H 	0.13350 0.62850 0.33950 0.16200
H 	H 	0.08440 0.69620 0.36650 0.17000
H 	H 	0.01730 0.59380 0.31790 0.18300
C 	C 	0.90300 0.40950 0.50170 0.03600
C 	C 	0.03300 0.56200 0.43320 0.11200
H 	H 	0.76300 0.29700 0.45210 0.09900
H 	H 	0.81030 0.24800 0.50890 0.08400
H 	H 	0.75370 0.30550 0.54260 0.07700
C 	C 	0.79700 0.30500 0.50100 -0.26700
O 	O 	0.65380 0.15720 0.33380 -0.47600
C 	C 	0.55500 0.92900 0.35700 -0.54000
H 	H 	0.49500 0.86650 0.33950 0.16200
H 	H 	0.61180 0.91560 0.36650 0.17000
H 	H 	0.57650 0.98270 0.31790 0.18300
C 	C 	0.50650 0.09700 0.50170 0.03600
C 	C 	0.52900 0.96700 0.43320 0.11100
H 	H 	0.53400 0.23700 0.45210 0.09900
H 	H 	0.43770 0.18970 0.50890 0.08400
H 	H 	0.55180 0.24630 0.54260 0.07700
C 	C 	0.50800 0.20300 0.50100 -0.26700
O 	O 	0.50340 0.34620 0.33380 -0.47600
C 	C 	0.37400 0.44500 0.35700 -0.54000
H 	H 	0.37150 0.50500 0.33950 0.16200
H 	H 	0.30380 0.38820 0.36650 0.17000
H 	H 	0.40620 0.42350 0.31790 0.18300
C 	C 	0.59050 0.49350 0.50170 0.03600
C 	C 	0.43800 0.47100 0.43320 0.11100
H 	H 	0.70300 0.46600 0.45210 0.09900
H 	H 	0.75200 0.56230 0.50890 0.08400
H 	H 	0.69450 0.44820 0.54260 0.07700
C 	C 	0.69500 0.49200 0.50100 -0.26700
O 	O 	0.49660 0.84280 0.83380 -0.47600
C 	C 	0.62600 0.07100 0.85700 -0.53900
H 	H 	0.62850 0.13350 0.83950 0.16200
H 	H 	0.69620 0.08440 0.86650 0.17000
H 	H 	0.59380 0.01730 0.81790 0.18300
C 	C 	0.40950 0.90300 0.00170 0.03600
C 	C 	0.56200 0.03300 0.93320 0.11100
H 	H 	0.29700 0.76300 0.95210 0.10000
H 	H 	0.24800 0.81030 0.00890 0.08400
H 	H 	0.30550 0.75370 0.04260 0.07700
C 	C 	0.30500 0.79700 0.00100 -0.26800
O 	O 	0.15720 0.65380 0.83380 -0.47600
C 	C 	0.92900 0.55500 0.85700 -0.53900
H 	H 	0.86650 0.49500 0.83950 0.16200
H 	H 	0.91560 0.61180 0.86650 0.17000
H 	H 	0.98270 0.57650 0.81790 0.18300
C 	C 	0.09700 0.50650 0.00170 0.03500
C 	C 	0.96700 0.52900 0.93320 0.11100
H 	H 	0.23700 0.53400 0.95210 0.10000
H 	H 	0.18970 0.43770 0.00890 0.08400
H 	H 	0.24630 0.55180 0.04260 0.07700
C 	C 	0.20300 0.50800 0.00100 -0.26800
O 	O 	0.34620 0.50340 0.83380 -0.47600
C 	C 	0.44500 0.37400 0.85700 -0.54000
H 	H 	0.50500 0.37150 0.83950 0.16200
H 	H 	0.38820 0.30380 0.86650 0.17000
H 	H 	0.42350 0.40620 0.81790 0.18300
C 	C 	0.49350 0.59050 0.00170 0.03600
C 	C 	0.47100 0.43800 0.93320 0.11100
H 	H 	0.46600 0.70300 0.95210 0.10000
H 	H 	0.56230 0.75200 0.00890 0.08400
H 	H 	0.44820 0.69450 0.04260 0.07700
C 	C 	0.49200 0.69500 0.00100 -0.26800
O 	O 	0.50340 0.15720 0.33380 -0.47600
C 	C 	0.37400 0.92900 0.35700 -0.54000
H 	H 	0.37150 0.86650 0.33950 0.16200
H 	H 	0.30380 0.91560 0.36650 0.17000
H 	H 	0.40620 0.98270 0.31790 0.18300
C 	C 	0.59050 0.09700 0.50170 0.03600
C 	C 	0.43800 0.96700 0.43320 0.11200
H 	H 	0.70300 0.23700 0.45210 0.09900
H 	H 	0.75200 0.18970 0.50890 0.08400
H 	H 	0.69450 0.24630 0.54260 0.07700
C 	C 	0.69500 0.20300 0.50100 -0.26700
O 	O 	0.84280 0.34620 0.33380 -0.47600
C 	C 	0.07100 0.44500 0.35700 -0.54000
H 	H 	0.13350 0.50500 0.33950 0.16200
H 	H 	0.08440 0.38820 0.36650 0.17000
H 	H 	0.01730 0.42350 0.31790 0.18300
C 	C 	0.90300 0.49350 0.50170 0.03600
C 	C 	0.03300 0.47100 0.43320 0.11100
H 	H 	0.76300 0.46600 0.45210 0.09900
H 	H 	0.81030 0.56230 0.50890 0.08400
H 	H 	0.75370 0.44820 0.54260 0.07700
C 	C 	0.79700 0.49200 0.50100 -0.26700
O 	O 	0.65380 0.49660 0.33380 -0.47600
C 	C 	0.55500 0.62600 0.35700 -0.54000
H 	H 	0.49500 0.62850 0.33950 0.16200
H 	H 	0.61180 0.69620 0.36650 0.17000
H 	H 	0.57650 0.59380 0.31790 0.18300
C 	C 	0.50650 0.40950 0.50170 0.03600
C 	C 	0.52900 0.56200 0.43320 0.11100
H 	H 	0.53400 0.29700 0.45210 0.09900
H 	H 	0.43770 0.24800 0.50890 0.08400
H 	H 	0.55180 0.30550 0.54260 0.07700
C 	C 	0.50800 0.30500 0.50100 -0.26700
O 	O 	0.84280 0.49660 0.16620 -0.47600
C 	C 	0.07100 0.62600 0.14300 -0.53900
H 	H 	0.13350 0.62850 0.16050 0.16200
H 	H 	0.08440 0.69620 0.13350 0.17000
H 	H 	0.01730 0.59380 0.18210 0.18300
C 	C 	0.90300 0.40950 0.99830 0.03600
C 	C 	0.03300 0.56200 0.06680 0.11100
H 	H 	0.76300 0.29700 0.04790 0.10000
H 	H 	0.81030 0.24800 0.99110 0.08400
H 	H 	0.75370 0.30550 0.95740 0.07700
C 	C 	0.79700 0.30500 0.99900 -0.26800
O 	O 	0.65380 0.15720 0.16620 -0.47600
C 	C 	0.55500 0.92900 0.14300 -0.53900
H 	H 	0.49500 0.86650 0.16050 0.16200
H 	H 	0.61180 0.91560 0.13350 0.17000
H 	H 	0.57650 0.98270 0.18210 0.18300
C 	C 	0.50650 0.09700 0.99830 0.03500
C 	C 	0.52900 0.96700 0.06680 0.11100
H 	H 	0.53400 0.23700 0.04790 0.10000
H 	H 	0.43770 0.18970 0.99110 0.08400
H 	H 	0.55180 0.24630 0.95740 0.07700
C 	C 	0.50800 0.20300 0.99900 -0.26800
O 	O 	0.50340 0.34620 0.16620 -0.47600
C 	C 	0.37400 0.44500 0.14300 -0.54000
H 	H 	0.37150 0.50500 0.16050 0.16200
H 	H 	0.30380 0.38820 0.13350 0.17000
H 	H 	0.40620 0.42350 0.18210 0.18300
C 	C 	0.59050 0.49350 0.99830 0.03600
C 	C 	0.43800 0.47100 0.06680 0.11100
H 	H 	0.70300 0.46600 0.04790 0.10000
H 	H 	0.75200 0.56230 0.99110 0.08400
H 	H 	0.69450 0.44820 0.95740 0.07700
C 	C 	0.69500 0.49200 0.99900 -0.26800
O 	O 	0.15720 0.50340 0.66620 -0.47600
C 	C 	0.92900 0.37400 0.64300 -0.54000
H 	H 	0.86650 0.37150 0.66050 0.16200
H 	H 	0.91560 0.30380 0.63350 0.17000
H 	H 	0.98270 0.40620 0.68210 0.18300
C 	C 	0.09700 0.59050 0.49830 0.03600
C 	C 	0.96700 0.43800 0.56680 0.11200
H 	H 	0.23700 0.70300 0.54790 0.09900
H 	H 	0.18970 0.75200 0.49110 0.08400
H 	H 	0.24630 0.69450 0.45740 0.07700
C 	C 	0.20300 0.69500 0.49900 -0.26700
O 	O 	0.34620 0.84280 0.66620 -0.47600
C 	C 	0.44500 0.07100 0.64300 -0.54000
H 	H 	0.50500 0.13350 0.66050 0.16200
H 	H 	0.38820 0.08440 0.63350 0.17000
H 	H 	0.42350 0.01730 0.68210 0.18300
C 	C 	0.49350 0.90300 0.49830 0.03600
C 	C 	0.47100 0.03300 0.56680 0.11100
H 	H 	0.46600 0.76300 0.54790 0.09900
H 	H 	0.56230 0.81030 0.49110 0.08400
H 	H 	0.44820 0.75370 0.45740 0.07700
C 	C 	0.49200 0.79700 0.49900 -0.26700
O 	O 	0.49660 0.65380 0.66620 -0.47600
C 	C 	0.62600 0.55500 0.64300 -0.54000
H 	H 	0.62850 0.49500 0.66050 0.16200
H 	H 	0.69620 0.61180 0.63350 0.17000
H 	H 	0.59380 0.57650 0.68210 0.18300
C 	C 	0.40950 0.50650 0.49830 0.03600
C 	C 	0.56200 0.52900 0.56680 0.11100
H 	H 	0.29700 0.53400 0.54790 0.09900
H 	H 	0.24800 0.43770 0.49110 0.08400
H 	H 	0.30550 0.55180 0.45740 0.07700
C 	C 	0.30500 0.50800 0.49900 -0.26700
Fe	Fe	0.51660 0.25830 0.25000 1.21900
Fe	Fe	0.74170 0.25830 0.25000 1.21900
Fe	Fe	0.74170 0.48340 0.25000 1.21900
Fe	Fe	0.48340 0.74170 0.75000 1.21900
Fe	Fe	0.25830 0.74170 0.75000 1.21900
Fe	Fe	0.25830 0.51660 0.75000 1.21900
O 	O 	0.66667 0.33333 0.25000 -0.65500
O 	O 	0.33333 0.66667 0.75000 -0.65500
C 	C 	0.56545 0.13090 0.13920 0.42300
C 	C 	0.53150 0.06300 0.06570 -0.20300
C 	C 	0.86910 0.43455 0.13920 0.42300
C 	C 	0.93700 0.46850 0.06570 -0.20300
C 	C 	0.56545 0.43455 0.13920 0.42300
C 	C 	0.53150 0.46850 0.06570 -0.20400
C 	C 	0.43455 0.86910 0.63920 0.42300
C 	C 	0.46850 0.93700 0.56570 -0.20400
C 	C 	0.13090 0.56545 0.63920 0.42300
C 	C 	0.06300 0.53150 0.56570 -0.20400
C 	C 	0.43455 0.56545 0.63920 0.42300
C 	C 	0.46850 0.53150 0.56570 -0.20400
C 	C 	0.13090 0.56545 0.86080 0.42300
C 	C 	0.06300 0.53150 0.93430 -0.20300
C 	C 	0.43455 0.86910 0.86080 0.42300
C 	C 	0.46850 0.93700 0.93430 -0.20300
C 	C 	0.43455 0.56545 0.86080 0.42300
C 	C 	0.46850 0.53150 0.93430 -0.20400
C 	C 	0.86910 0.43455 0.36080 0.42300
C 	C 	0.93700 0.46850 0.43430 -0.20400
C 	C 	0.56545 0.13090 0.36080 0.42300
C 	C 	0.53150 0.06300 0.43430 -0.20400
C 	C 	0.56545 0.43455 0.36080 0.42300
C 	C 	0.53150 0.46850 0.43430 -0.20400
