data_crystal

_cell_length_a 11.09100
_cell_length_b 11.09100
_cell_length_c 19.36400
_cell_angle_alpha 90.00000
_cell_angle_beta  90.00000
_cell_angle_gamma 120.00000

_symmetry_space_group_name_	'P 1'
_symmetry_space_group_name_H-M	'P 1'

loop_
_symmetry_equiv_pos_as_xyz
  x,y,z

loop_
_atom_site_label
_atom_site_type_symbol
_atom_site_fract_x
_atom_site_fract_y
_atom_site_fract_z
_atom_site_charge
O 	O 	0.65180 0.55040 0.17280 -0.45400
C 	C 	0.61400 0.59700 0.03550 0.17300
O 	O 	0.72300 0.71600 0.06920 -0.32500
H 	H 	0.71700 0.70290 0.11110 0.25300
O 	O 	0.44960 0.10140 0.17280 -0.45400
C 	C 	0.40300 0.01700 0.03550 0.17300
O 	O 	0.28400 0.00700 0.06920 -0.32500
H 	H 	0.29710 0.01410 0.11110 0.25300
O 	O 	0.89860 0.34820 0.17280 -0.45400
C 	C 	0.98300 0.38600 0.03550 0.17300
O 	O 	0.99300 0.27700 0.06920 -0.32500
H 	H 	0.98590 0.28300 0.11110 0.25300
O 	O 	0.34820 0.44960 0.67280 -0.45400
C 	C 	0.38600 0.40300 0.53550 0.17300
O 	O 	0.27700 0.28400 0.56920 -0.32500
H 	H 	0.28300 0.29710 0.61110 0.25300
O 	O 	0.55040 0.89860 0.67280 -0.45400
C 	C 	0.59700 0.98300 0.53550 0.17300
O 	O 	0.71600 0.99300 0.56920 -0.32500
H 	H 	0.70290 0.98590 0.61110 0.25300
O 	O 	0.10140 0.65180 0.67280 -0.45400
C 	C 	0.01700 0.61400 0.53550 0.17300
O 	O 	0.00700 0.72300 0.56920 -0.32500
H 	H 	0.01410 0.71700 0.61110 0.25200
O 	O 	0.55040 0.65180 0.82720 -0.45400
C 	C 	0.59700 0.61400 0.96450 0.17300
O 	O 	0.71600 0.72300 0.93080 -0.32500
H 	H 	0.70290 0.71700 0.88890 0.25300
O 	O 	0.10140 0.44960 0.82720 -0.45400
C 	C 	0.01700 0.40300 0.96450 0.17300
O 	O 	0.00700 0.28400 0.93080 -0.32500
H 	H 	0.01410 0.29710 0.88890 0.25300
O 	O 	0.34820 0.89860 0.82720 -0.45400
C 	C 	0.38600 0.98300 0.96450 0.17300
O 	O 	0.27700 0.99300 0.93080 -0.32500
H 	H 	0.28300 0.98590 0.88890 0.25300
O 	O 	0.44960 0.34820 0.32720 -0.45400
C 	C 	0.40300 0.38600 0.46450 0.17300
O 	O 	0.28400 0.27700 0.43080 -0.32500
H 	H 	0.29710 0.28300 0.38890 0.25300
O 	O 	0.89860 0.55040 0.32720 -0.45400
C 	C 	0.98300 0.59700 0.46450 0.17300
O 	O 	0.99300 0.71600 0.43080 -0.32500
H 	H 	0.98590 0.70290 0.38890 0.25300
O 	O 	0.65180 0.10140 0.32720 -0.45400
C 	C 	0.61400 0.01700 0.46450 0.17300
O 	O 	0.72300 0.00700 0.43080 -0.32500
H 	H 	0.71700 0.01410 0.38890 0.25200
O 	O 	0.34820 0.44960 0.82720 -0.45400
C 	C 	0.38600 0.40300 0.96450 0.17300
O 	O 	0.27700 0.28400 0.93080 -0.32500
H 	H 	0.28300 0.29710 0.88890 0.25300
O 	O 	0.55040 0.89860 0.82720 -0.45400
C 	C 	0.59700 0.98300 0.96450 0.17300
O 	O 	0.71600 0.99300 0.93080 -0.32500
H 	H 	0.70290 0.98590 0.88890 0.25300
O 	O 	0.10140 0.65180 0.82720 -0.45400
C 	C 	0.01700 0.61400 0.96450 0.17300
O 	O 	0.00700 0.72300 0.93080 -0.32500
H 	H 	0.01410 0.71700 0.88890 0.25300
O 	O 	0.65180 0.55040 0.32720 -0.45400
C 	C 	0.61400 0.59700 0.46450 0.17300
O 	O 	0.72300 0.71600 0.43080 -0.32500
H 	H 	0.71700 0.70290 0.38890 0.25300
O 	O 	0.44960 0.10140 0.32720 -0.45400
C 	C 	0.40300 0.01700 0.46450 0.17300
O 	O 	0.28400 0.00700 0.43080 -0.32500
H 	H 	0.29710 0.01410 0.38890 0.25300
O 	O 	0.89860 0.34820 0.32720 -0.45400
C 	C 	0.98300 0.38600 0.46450 0.17300
O 	O 	0.99300 0.27700 0.43080 -0.32500
H 	H 	0.98590 0.28300 0.38890 0.25200
O 	O 	0.44960 0.34820 0.17280 -0.45400
C 	C 	0.40300 0.38600 0.03550 0.17300
O 	O 	0.28400 0.27700 0.06920 -0.32500
H 	H 	0.29710 0.28300 0.11110 0.25300
O 	O 	0.89860 0.55040 0.17280 -0.45400
C 	C 	0.98300 0.59700 0.03550 0.17300
O 	O 	0.99300 0.71600 0.06920 -0.32500
H 	H 	0.98590 0.70290 0.11110 0.25300
O 	O 	0.65180 0.10140 0.17280 -0.45400
C 	C 	0.61400 0.01700 0.03550 0.17300
O 	O 	0.72300 0.00700 0.06920 -0.32500
H 	H 	0.71700 0.01410 0.11110 0.25300
O 	O 	0.55040 0.65180 0.67280 -0.45400
C 	C 	0.59700 0.61400 0.53550 0.17300
O 	O 	0.71600 0.72300 0.56920 -0.32500
H 	H 	0.70290 0.71700 0.61110 0.25300
O 	O 	0.10140 0.44960 0.67280 -0.45400
C 	C 	0.01700 0.40300 0.53550 0.17300
O 	O 	0.00700 0.28400 0.56920 -0.32500
H 	H 	0.01410 0.29710 0.61110 0.25300
O 	O 	0.34820 0.89860 0.67280 -0.45400
C 	C 	0.38600 0.98300 0.53550 0.17300
O 	O 	0.27700 0.99300 0.56920 -0.32500
H 	H 	0.28300 0.98590 0.61110 0.25200
Fe	Fe	0.76655 0.53310 0.25000 1.21700
Fe	Fe	0.46690 0.23345 0.25000 1.21700
Fe	Fe	0.76655 0.23345 0.25000 1.21700
Fe	Fe	0.23345 0.46690 0.75000 1.21700
Fe	Fe	0.53310 0.76655 0.75000 1.21700
Fe	Fe	0.23345 0.76655 0.75000 1.21700
O 	O 	0.66667 0.33333 0.25000 -0.65500
O 	O 	0.33333 0.66667 0.75000 -0.65500
C 	C 	0.54280 0.45720 0.14370 0.43000
C 	C 	0.52160 0.47840 0.06970 -0.22300
C 	C 	0.54280 0.08560 0.14370 0.43000
C 	C 	0.52160 0.04320 0.06970 -0.22300
C 	C 	0.91440 0.45720 0.14370 0.43000
C 	C 	0.95680 0.47840 0.06970 -0.22300
C 	C 	0.45720 0.54280 0.64370 0.43000
C 	C 	0.47840 0.52160 0.56970 -0.22300
C 	C 	0.45720 0.91440 0.64370 0.43000
C 	C 	0.47840 0.95680 0.56970 -0.22300
C 	C 	0.08560 0.54280 0.64370 0.43000
C 	C 	0.04320 0.52160 0.56970 -0.22300
C 	C 	0.45720 0.54280 0.85630 0.43000
C 	C 	0.47840 0.52160 0.93030 -0.22300
C 	C 	0.08560 0.54280 0.85630 0.43000
C 	C 	0.04320 0.52160 0.93030 -0.22300
C 	C 	0.45720 0.91440 0.85630 0.43000
C 	C 	0.47840 0.95680 0.93030 -0.22300
C 	C 	0.54280 0.45720 0.35630 0.43000
C 	C 	0.52160 0.47840 0.43030 -0.22300
C 	C 	0.91440 0.45720 0.35630 0.43000
C 	C 	0.95680 0.47840 0.43030 -0.22300
C 	C 	0.54280 0.08560 0.35630 0.43000
C 	C 	0.52160 0.04320 0.43030 -0.22300
