data_crystal

_cell_length_a 41.58700
_cell_length_b 17.46500
_cell_length_c 17.94990
_cell_angle_alpha 90.00000
_cell_angle_beta  90.00000
_cell_angle_gamma 90.00000

_symmetry_space_group_name_	'P 1'
_symmetry_space_group_name_H-M	'P 1'

loop_
_symmetry_equiv_pos_as_xyz
  x,y,z

loop_
_atom_site_label
_atom_site_type_symbol
_atom_site_fract_x
_atom_site_fract_y
_atom_site_fract_z
_atom_site_charge
C 	C 	0.19142 0.48490 0.11720 0.38900
C 	C 	0.16475 0.48380 0.17380 -0.15600
C 	C 	0.15540 0.41770 0.20850 0.07000
H 	H 	0.16620 0.37230 0.19810 0.01000
C 	C 	0.12995 0.41700 0.25920 -0.14600
H 	H 	0.12420 0.37190 0.28320 0.07800
C 	C 	0.11332 0.48400 0.27340 0.08000
C 	C 	0.12292 0.55040 0.23800 -0.15100
H 	H 	0.11220 0.59600 0.24820 0.07500
C 	C 	0.14784 0.55030 0.18820 0.07800
H 	H 	0.15340 0.59540 0.16390 0.01300
C 	C 	0.08476 0.48360 0.32450 -0.02000
C 	C 	0.03034 0.48940 0.41780 0.07700
C 	C 	0.08380 0.44220 0.39060 -0.01900
H 	H 	0.10170 0.41370 0.40510 0.02700
C 	C 	0.05632 0.44270 0.43580 -0.05800
H 	H 	0.05540 0.41180 0.47790 0.04400
C 	C 	0.03050 0.52970 0.35090 -0.05900
H 	H 	0.01250 0.55750 0.33640 0.03900
C 	C 	0.05762 0.52810 0.30610 -0.02600
H 	H 	0.05790 0.55710 0.26260 0.03400
C 	C 	0.33900 0.38540 0.94100 0.03000
H 	H 	0.33130 0.42350 0.90960 0.03200
C 	C 	0.36850 0.35160 0.92490 -0.07400
H 	H 	0.37980 0.36550 0.88230 0.04800
C 	C 	0.36480 0.27930 0.03800 -0.06500
H 	H 	0.37430 0.24530 0.07130 0.04400
C 	C 	0.33482 0.31140 0.05430 -0.01400
H 	H 	0.32420 0.29870 0.09810 0.03400
C 	C 	0.41590 0.23120 0.88150 -0.10800
H 	H 	0.39910 0.23130 0.84740 0.06100
C 	C 	0.44527 0.19690 0.86300 0.02600
H 	H 	0.44890 0.18110 0.81420 0.01700
C 	C 	0.46455 0.22110 0.98770 0.08900
H 	H 	0.48060 0.21790 0.02380 -0.01300
C 	C 	0.43623 0.26070 0.00470 -0.17500
H 	H 	0.43410 0.28620 0.05000 0.08100
C 	C 	0.53680 0.99280 0.79010 -0.23500
H 	H 	0.52140 0.99710 0.75270 0.09400
C 	C 	0.56460 0.95130 0.77380 0.16700
H 	H 	0.56800 0.93110 0.72650 -0.04400
C 	C 	0.58593 0.98510 0.89520 -0.02800
H 	H 	0.60350 0.98880 0.92720 0.03000
C 	C 	0.55683 0.02330 0.90920 -0.05900
H 	H 	0.55450 0.04720 0.95520 0.05100
C 	C 	0.64485 0.90530 0.85750 -0.05400
H 	H 	0.64500 0.94030 0.89650 0.04100
C 	C 	0.67284 0.86070 0.84250 -0.00500
H 	H 	0.69140 0.86590 0.87100 0.03300
C 	C 	0.64863 0.81590 0.72810 0.01300
H 	H 	0.65140 0.79220 0.68220 0.02300
C 	C 	0.62083 0.86070 0.74280 -0.06200
H 	H 	0.60520 0.86590 0.70600 0.04100
C 	C 	0.28808 0.39630 0.01840 0.34700
C 	C 	0.32066 0.36400 0.00270 -0.14300
C 	C 	0.38069 0.29820 0.97180 0.08200
C 	C 	0.41170 0.26150 0.95410 0.00500
C 	C 	0.46978 0.18570 0.91820 0.05100
C 	C 	0.53041 0.02810 0.85760 0.08400
C 	C 	0.58688 0.94100 0.82950 -0.02200
C 	C 	0.23950 0.47750 0.28060 0.15000
C 	C 	0.27590 0.54950 0.19850 -0.02800
C 	C 	0.23050 0.61340 0.27070 0.03400
Cd	Cd	0.24200 0.33341 0.14948 1.22600
O 	O 	0.27905 0.40230 0.08560 -0.45500
O 	O 	0.27145 0.41800 0.96540 -0.42000
O 	O 	0.20642 0.42360 0.10260 -0.50200
O 	O 	0.19724 0.54430 0.08340 -0.42000
C 	C 	0.61646 0.89750 0.81200 0.05400
C 	C 	0.67135 0.80850 0.78310 -0.14100
C 	C 	0.70040 0.75850 0.76710 0.44700
O 	O 	0.70378 0.73150 0.70660 -0.49200
O 	O 	0.71970 0.74910 0.81980 -0.47600
C 	C 	0.06310 0.42130 0.32820 -0.02100
H 	H 	0.06690 0.37750 0.30010 0.03100
C 	C 	0.03590 0.42520 0.37360 -0.06700
H 	H 	0.02150 0.38460 0.37440 0.04700
C 	C 	0.05350 0.54730 0.41820 -0.07000
H 	H 	0.05090 0.58850 0.45060 0.04800
C 	C 	0.08010 0.54540 0.37180 -0.01600
H 	H 	0.09490 0.58540 0.37240 0.02500
C 	C 	0.34590 0.37550 0.05060 0.04700
H 	H 	0.34330 0.40420 0.09390 0.01900
C 	C 	0.37540 0.34350 0.03310 -0.09800
H 	H 	0.39270 0.35330 0.06460 0.05200
C 	C 	0.35480 0.29080 0.92120 -0.07600
H 	H 	0.35770 0.26370 0.87710 0.05000
C 	C 	0.32532 0.32300 0.93630 0.02200
H 	H 	0.30850 0.31770 0.90260 0.03000
C 	C 	0.44889 0.15310 0.97040 -0.16900
H 	H 	0.45410 0.10730 0.99400 0.08700
C 	C 	0.41912 0.18800 0.98420 0.08900
H 	H 	0.40400 0.16280 0.01340 -0.02000
C 	C 	0.43541 0.29620 0.90990 0.04700
H 	H 	0.43290 0.34720 0.89600 0.00900
C 	C 	0.46286 0.25620 0.88600 -0.13600
H 	H 	0.47620 0.27660 0.84940 0.07000
C 	C 	0.56000 0.91170 0.87330 -0.04900
H 	H 	0.56180 0.86310 0.89410 0.04400
C 	C 	0.53160 0.95340 0.88570 -0.05300
H 	H 	0.51430 0.93230 0.91130 0.03800
C 	C 	0.55140 0.05140 0.80300 0.11200
H 	H 	0.54910 0.09860 0.77960 -0.01500
C 	C 	0.57697 -0.00000 0.78330 -0.17400
H 	H 	0.58730 0.00660 0.73780 0.08500
C 	C 	0.65312 0.80300 0.85090 0.03800
H 	H 	0.66050 0.76920 0.88710 0.01300
C 	C 	0.62622 0.84590 0.86750 -0.09600
H 	H 	0.61530 0.84090 0.91250 0.05100
C 	C 	0.62732 0.89180 0.73800 -0.04300
H 	H 	0.61650 0.91610 0.69940 0.02600
C 	C 	0.65402 0.84990 0.72470 0.00500
H 	H 	0.66170 0.84720 0.67620 0.01600
C 	C 	0.30858 0.51510 0.61720 0.38800
C 	C 	0.33525 0.51620 0.67380 -0.15400
C 	C 	0.34460 0.58230 0.70850 0.06900
H 	H 	0.33380 0.62770 0.69810 0.01100
C 	C 	0.37005 0.58300 0.75920 -0.14400
H 	H 	0.37580 0.62810 0.78320 0.07700
C 	C 	0.38668 0.51600 0.77340 0.07900
C 	C 	0.37708 0.44960 0.73800 -0.14800
H 	H 	0.38780 0.40400 0.74820 0.07600
C 	C 	0.35216 0.44970 0.68820 0.07700
H 	H 	0.34660 0.40460 0.66390 0.01600
C 	C 	0.41524 0.51640 0.82450 -0.01800
C 	C 	0.46966 0.51060 0.91780 0.07000
C 	C 	0.41620 0.55780 0.89060 -0.02000
H 	H 	0.39830 0.58630 0.90510 0.02900
C 	C 	0.44368 0.55730 0.93580 -0.05300
H 	H 	0.44460 0.58820 0.97790 0.04800
C 	C 	0.46950 0.47030 0.85090 -0.05500
H 	H 	0.48750 0.44250 0.83640 0.03700
C 	C 	0.44238 0.47190 0.80610 -0.02900
H 	H 	0.44210 0.44290 0.76260 0.03600
C 	C 	0.16100 0.61460 0.44100 0.01100
H 	H 	0.16870 0.57650 0.40960 0.03700
C 	C 	0.13150 0.64840 0.42490 -0.06100
H 	H 	0.12020 0.63450 0.38230 0.04300
C 	C 	0.13520 0.72070 0.53800 -0.05200
H 	H 	0.12570 0.75470 0.57130 0.04100
C 	C 	0.16518 0.68860 0.55430 -0.02300
H 	H 	0.17580 0.70130 0.59810 0.03700
C 	C 	0.08410 0.76880 0.38150 -0.03800
H 	H 	0.10090 0.76870 0.34740 0.03400
C 	C 	0.05473 0.80310 0.36300 -0.04700
H 	H 	0.05110 0.81890 0.31420 0.04300
C 	C 	0.03545 0.77890 0.48770 -0.04100
H 	H 	0.01940 0.78210 0.52380 0.03700
C 	C 	0.06377 0.73930 0.50470 -0.04400
H 	H 	0.06590 0.71380 0.55000 0.03700
C 	C 	0.96320 0.00720 0.29010 -0.26300
H 	H 	0.97860 0.00290 0.25270 0.11100
C 	C 	0.93540 0.04870 0.27380 0.30600
H 	H 	0.93200 0.06890 0.22650 -0.08600
C 	C 	0.91407 0.01490 0.39520 0.06700
H 	H 	0.89650 0.01120 0.42720 0.00500
C 	C 	0.94317 0.97670 0.40920 -0.14800
H 	H 	0.94550 0.95280 0.45520 0.07400
C 	C 	0.85515 0.09470 0.35750 -0.04800
H 	H 	0.85500 0.05970 0.39650 0.04500
C 	C 	0.82716 0.13930 0.34250 -0.00600
H 	H 	0.80860 0.13410 0.37100 0.03600
C 	C 	0.85137 0.18410 0.22810 0.02500
H 	H 	0.84860 0.20780 0.18220 0.01900
C 	C 	0.87917 0.13930 0.24280 -0.05400
H 	H 	0.89480 0.13410 0.20600 0.03900
C 	C 	0.21192 0.60370 0.51840 0.35400
C 	C 	0.17934 0.63600 0.50270 -0.11800
C 	C 	0.11931 0.70180 0.47180 0.05700
C 	C 	0.08830 0.73850 0.45410 -0.00400
C 	C 	0.03022 0.81430 0.41820 0.06100
C 	C 	0.96959 0.97190 0.35760 0.03100
C 	C 	0.91312 0.05900 0.32950 -0.03200
C 	C 	0.26050 0.52250 0.78060 0.15100
C 	C 	0.22410 0.45050 0.69850 -0.02800
C 	C 	0.26950 0.38660 0.77070 0.03800
Cd	Cd	0.25800 0.66659 0.64948 1.22600
O 	O 	0.22095 0.59770 0.58560 -0.45600
O 	O 	0.22855 0.58200 0.46540 -0.43200
O 	O 	0.29358 0.57640 0.60260 -0.50000
O 	O 	0.30276 0.45570 0.58340 -0.41600
C 	C 	0.88354 0.10250 0.31200 0.06400
C 	C 	0.82865 0.19150 0.28310 -0.14300
C 	C 	0.79960 0.24150 0.26710 0.44900
O 	O 	0.79622 0.26850 0.20660 -0.49200
O 	O 	0.78030 0.25090 0.31980 -0.47500
C 	C 	0.43690 0.57870 0.82820 -0.02200
H 	H 	0.43310 0.62250 0.80010 0.03300
C 	C 	0.46410 0.57480 0.87360 -0.06500
H 	H 	0.47850 0.61540 0.87440 0.04700
C 	C 	0.44650 0.45270 0.91820 -0.06700
H 	H 	0.44910 0.41150 0.95060 0.05200
C 	C 	0.41990 0.45460 0.87180 -0.01400
H 	H 	0.40510 0.41460 0.87240 0.02600
C 	C 	0.15410 0.62450 0.55060 0.03700
H 	H 	0.15670 0.59580 0.59390 0.02200
C 	C 	0.12460 0.65650 0.53310 -0.08000
H 	H 	0.10730 0.64670 0.56460 0.04800
C 	C 	0.14520 0.70920 0.42120 -0.07000
H 	H 	0.14230 0.73630 0.37710 0.04600
C 	C 	0.17468 0.67700 0.43630 0.00700
H 	H 	0.19150 0.68230 0.40260 0.03100
C 	C 	0.05111 0.84690 0.47040 -0.06700
H 	H 	0.04590 0.89270 0.49400 0.04100
C 	C 	0.08088 0.81200 0.48420 -0.02000
H 	H 	0.09600 0.83720 0.51340 0.02500
C 	C 	0.06459 0.70380 0.40990 -0.02400
H 	H 	0.06710 0.65280 0.39600 0.03400
C 	C 	0.03714 0.74380 0.38600 -0.06200
H 	H 	0.02380 0.72340 0.34940 0.04500
C 	C 	0.94000 0.08830 0.37330 -0.11600
H 	H 	0.93820 0.13690 0.39410 0.06500
C 	C 	0.96840 0.04660 0.38570 0.04600
H 	H 	0.98570 0.06770 0.41130 0.00800
C 	C 	0.94860 0.94860 0.30300 0.16800
H 	H 	0.95090 0.90140 0.27960 -0.04200
C 	C 	0.92303 0.00000 0.28330 -0.29100
H 	H 	0.91270 0.99340 0.23780 0.09700
C 	C 	0.84688 0.19700 0.35090 0.04400
H 	H 	0.83950 0.23080 0.38710 0.01100
C 	C 	0.87378 0.15410 0.36750 -0.10900
H 	H 	0.88470 0.15910 0.41250 0.05800
C 	C 	0.87268 0.10820 0.23800 -0.05400
H 	H 	0.88350 0.08390 0.19940 0.03600
C 	C 	0.84598 0.15010 0.22470 -0.00300
H 	H 	0.83830 0.15280 0.17620 0.02100
C 	C 	0.30858 0.48490 0.38280 0.38800
C 	C 	0.33525 0.48380 0.32620 -0.15500
C 	C 	0.34460 0.41770 0.29150 0.06900
H 	H 	0.33380 0.37230 0.30190 0.01100
C 	C 	0.37005 0.41700 0.24080 -0.14400
H 	H 	0.37580 0.37190 0.21680 0.07700
C 	C 	0.38668 0.48400 0.22660 0.07900
C 	C 	0.37708 0.55040 0.26200 -0.14900
H 	H 	0.38780 0.59600 0.25180 0.07600
C 	C 	0.35216 0.55030 0.31180 0.07700
H 	H 	0.34660 0.59540 0.33610 0.01500
C 	C 	0.41524 0.48360 0.17550 -0.01900
C 	C 	0.46966 0.48940 0.08220 0.08300
C 	C 	0.41620 0.44220 0.10940 -0.01900
H 	H 	0.39830 0.41370 0.09490 0.02600
C 	C 	0.44368 0.44270 0.06420 -0.06000
H 	H 	0.44460 0.41180 0.02210 0.04000
C 	C 	0.46950 0.52970 0.14910 -0.06100
H 	H 	0.48750 0.55750 0.16360 0.04000
C 	C 	0.44238 0.52810 0.19390 -0.02400
H 	H 	0.44210 0.55710 0.23740 0.03400
C 	C 	0.16100 0.38540 0.55900 0.01100
H 	H 	0.16870 0.42350 0.59040 0.03700
C 	C 	0.13150 0.35160 0.57510 -0.06200
H 	H 	0.12020 0.36550 0.61770 0.04300
C 	C 	0.13520 0.27930 0.46200 -0.05100
H 	H 	0.12570 0.24530 0.42870 0.04000
C 	C 	0.16518 0.31140 0.44570 -0.02200
H 	H 	0.17580 0.29870 0.40190 0.03700
C 	C 	0.08410 0.23120 0.61850 -0.04400
H 	H 	0.10090 0.23130 0.65260 0.03900
C 	C 	0.05473 0.19690 0.63700 -0.03900
H 	H 	0.05110 0.18110 0.68580 0.04100
C 	C 	0.03545 0.22110 0.51230 -0.03300
H 	H 	0.01940 0.21790 0.47620 0.03300
C 	C 	0.06377 0.26070 0.49530 -0.05200
H 	H 	0.06590 0.28620 0.45000 0.03900
C 	C 	0.96320 0.99280 0.70990 -0.23100
H 	H 	0.97860 0.99710 0.74730 0.09400
C 	C 	0.93540 0.95130 0.72620 0.16100
H 	H 	0.93200 0.93110 0.77350 -0.04100
C 	C 	0.91407 0.98510 0.60480 -0.02800
H 	H 	0.89650 0.98880 0.57280 0.02800
C 	C 	0.94317 0.02330 0.59080 -0.06400
H 	H 	0.94550 0.04720 0.54480 0.05200
C 	C 	0.85515 0.90530 0.64250 -0.05000
H 	H 	0.85500 0.94030 0.60350 0.03800
C 	C 	0.82716 0.86070 0.65750 -0.00900
H 	H 	0.80860 0.86590 0.62900 0.03300
C 	C 	0.85137 0.81590 0.77190 0.01400
H 	H 	0.84860 0.79220 0.81780 0.02300
C 	C 	0.87917 0.86070 0.75720 -0.06300
H 	H 	0.89480 0.86590 0.79400 0.04200
C 	C 	0.21192 0.39630 0.48160 0.35400
C 	C 	0.17934 0.36400 0.49730 -0.11800
C 	C 	0.11931 0.29820 0.52820 0.05700
C 	C 	0.08830 0.26150 0.54590 -0.00300
C 	C 	0.03022 0.18570 0.58180 0.05600
C 	C 	0.96959 0.02810 0.64240 0.08500
C 	C 	0.91312 0.94100 0.67050 -0.02300
C 	C 	0.26050 0.47750 0.21940 0.15000
C 	C 	0.22410 0.54950 0.30150 -0.02800
C 	C 	0.26950 0.61340 0.22930 0.03400
Cd	Cd	0.25800 0.33341 0.35052 1.22600
O 	O 	0.22095 0.40230 0.41440 -0.45500
O 	O 	0.22855 0.41800 0.53460 -0.43100
O 	O 	0.29358 0.42360 0.39740 -0.49900
O 	O 	0.30276 0.54430 0.41660 -0.41700
C 	C 	0.88354 0.89750 0.68800 0.05500
C 	C 	0.82865 0.80850 0.71690 -0.14100
C 	C 	0.79960 0.75850 0.73290 0.44700
O 	O 	0.79622 0.73150 0.79340 -0.49100
O 	O 	0.78030 0.74910 0.68020 -0.47600
C 	C 	0.43690 0.42130 0.17180 -0.02000
H 	H 	0.43310 0.37750 0.19990 0.03100
C 	C 	0.46410 0.42520 0.12640 -0.07000
H 	H 	0.47850 0.38460 0.12560 0.04700
C 	C 	0.44650 0.54730 0.08180 -0.07200
H 	H 	0.44910 0.58850 0.04940 0.04300
C 	C 	0.41990 0.54540 0.12820 -0.01800
H 	H 	0.40510 0.58540 0.12760 0.02500
C 	C 	0.15410 0.37550 0.44940 0.03600
H 	H 	0.15670 0.40420 0.40610 0.02300
C 	C 	0.12460 0.34350 0.46690 -0.08000
H 	H 	0.10730 0.35330 0.43540 0.04700
C 	C 	0.14520 0.29080 0.57880 -0.06900
H 	H 	0.14230 0.26370 0.62290 0.04800
C 	C 	0.17468 0.32300 0.56370 0.00700
H 	H 	0.19150 0.31770 0.59740 0.03300
C 	C 	0.05111 0.15310 0.52960 -0.07500
H 	H 	0.04590 0.10730 0.50600 0.04800
C 	C 	0.08088 0.18800 0.51580 -0.01400
H 	H 	0.09600 0.16280 0.48660 0.02400
C 	C 	0.06459 0.29620 0.59010 -0.02000
H 	H 	0.06710 0.34720 0.60400 0.03300
C 	C 	0.03714 0.25620 0.61400 -0.06700
H 	H 	0.02380 0.27660 0.65060 0.04700
C 	C 	0.94000 0.91170 0.62670 -0.04900
H 	H 	0.93820 0.86310 0.60590 0.04300
C 	C 	0.96840 0.95340 0.61430 -0.05500
H 	H 	0.98570 0.93230 0.58870 0.03600
C 	C 	0.94860 0.05140 0.69700 0.10900
H 	H 	0.95090 0.09860 0.72040 -0.01500
C 	C 	0.92303 0.00000 0.71670 -0.16900
H 	H 	0.91270 0.00660 0.76220 0.08400
C 	C 	0.84688 0.80300 0.64910 0.04300
H 	H 	0.83950 0.76920 0.61290 0.01100
C 	C 	0.87378 0.84590 0.63250 -0.10300
H 	H 	0.88470 0.84090 0.58750 0.05500
C 	C 	0.87268 0.89180 0.76200 -0.04300
H 	H 	0.88350 0.91610 0.80060 0.02700
C 	C 	0.84598 0.84990 0.77530 0.00500
H 	H 	0.83830 0.84720 0.82380 0.01700
C 	C 	0.19142 0.51510 0.88280 0.38700
C 	C 	0.16475 0.51620 0.82620 -0.15200
C 	C 	0.15540 0.58230 0.79150 0.06800
H 	H 	0.16620 0.62770 0.80190 0.01200
C 	C 	0.12995 0.58300 0.74080 -0.14300
H 	H 	0.12420 0.62810 0.71680 0.07700
C 	C 	0.11332 0.51600 0.72660 0.07800
C 	C 	0.12292 0.44960 0.76200 -0.14700
H 	H 	0.11220 0.40400 0.75180 0.07600
C 	C 	0.14784 0.44970 0.81180 0.07600
H 	H 	0.15340 0.40460 0.83610 0.01800
C 	C 	0.08476 0.51640 0.67550 -0.01800
C 	C 	0.03034 0.51060 0.58220 0.07500
C 	C 	0.08380 0.55780 0.60940 -0.02000
H 	H 	0.10170 0.58630 0.59490 0.02800
C 	C 	0.05632 0.55730 0.56420 -0.05600
H 	H 	0.05540 0.58820 0.52210 0.04400
C 	C 	0.03050 0.47030 0.64910 -0.05800
H 	H 	0.01250 0.44250 0.66360 0.03900
C 	C 	0.05762 0.47190 0.69390 -0.02700
H 	H 	0.05790 0.44290 0.73740 0.03600
C 	C 	0.33900 0.61460 0.05900 -0.00800
H 	H 	0.33130 0.57650 0.09040 0.04200
C 	C 	0.36850 0.64840 0.07510 -0.04900
H 	H 	0.37980 0.63450 0.11770 0.03800
C 	C 	0.36480 0.72070 0.96200 -0.03700
H 	H 	0.37430 0.75470 0.92870 0.03700
C 	C 	0.33482 0.68860 0.94570 -0.03100
H 	H 	0.32420 0.70130 0.90190 0.04000
C 	C 	0.41590 0.76880 0.11850 0.02700
H 	H 	0.39910 0.76870 0.15260 0.01200
C 	C 	0.44527 0.80310 0.13700 -0.11300
H 	H 	0.44890 0.81890 0.18580 0.06700
C 	C 	0.46455 0.77890 0.01230 -0.16500
H 	H 	0.48060 0.78210 0.97620 0.08400
C 	C 	0.43623 0.73930 0.99530 0.08100
H 	H 	0.43410 0.71380 0.95000 -0.00500
C 	C 	0.53680 0.00720 0.20990 -0.26000
H 	H 	0.52140 0.00290 0.24730 0.11100
C 	C 	0.56460 0.04870 0.22620 0.30000
H 	H 	0.56800 0.06890 0.27350 -0.08300
C 	C 	0.58593 0.01490 0.10480 0.06800
H 	H 	0.60350 0.01120 0.07280 0.00300
C 	C 	0.55683 0.97670 0.09080 -0.15300
H 	H 	0.55450 0.95280 0.04480 0.07600
C 	C 	0.64485 0.09470 0.14250 -0.04400
H 	H 	0.64500 0.05970 0.10350 0.04200
C 	C 	0.67284 0.13930 0.15750 -0.00900
H 	H 	0.69140 0.13410 0.12900 0.03600
C 	C 	0.64863 0.18410 0.27190 0.02500
H 	H 	0.65140 0.20780 0.31780 0.02000
C 	C 	0.62083 0.13930 0.25720 -0.05500
H 	H 	0.60520 0.13410 0.29400 0.04100
C 	C 	0.28808 0.60370 0.98160 0.36100
C 	C 	0.32066 0.63600 0.99730 -0.09300
C 	C 	0.38069 0.70180 0.02820 0.03200
C 	C 	0.41170 0.73850 0.04590 -0.01300
C 	C 	0.46978 0.81430 0.08180 0.06600
C 	C 	0.53041 0.97190 0.14240 0.03300
C 	C 	0.58688 0.05900 0.17050 -0.03300
C 	C 	0.23950 0.52250 0.71940 0.15000
C 	C 	0.27590 0.45050 0.80150 -0.02800
C 	C 	0.23050 0.38660 0.72930 0.03800
Cd	Cd	0.24200 0.66659 0.85052 1.22600
O 	O 	0.27905 0.59770 0.91440 -0.45600
O 	O 	0.27145 0.58200 0.03460 -0.44200
O 	O 	0.20642 0.57640 0.89740 -0.49600
O 	O 	0.19724 0.45570 0.91660 -0.41100
C 	C 	0.61646 0.10250 0.18800 0.06600
C 	C 	0.67135 0.19150 0.21690 -0.14300
C 	C 	0.70040 0.24150 0.23290 0.44900
O 	O 	0.70378 0.26850 0.29340 -0.49100
O 	O 	0.71970 0.25090 0.18020 -0.47600
C 	C 	0.06310 0.57870 0.67180 -0.02100
H 	H 	0.06690 0.62250 0.69990 0.03300
C 	C 	0.03590 0.57480 0.62640 -0.06700
H 	H 	0.02150 0.61540 0.62560 0.04700
C 	C 	0.05350 0.45270 0.58180 -0.06900
H 	H 	0.05090 0.41150 0.54940 0.04700
C 	C 	0.08010 0.45460 0.62820 -0.01600
H 	H 	0.09490 0.41460 0.62760 0.02600
C 	C 	0.34590 0.62450 0.94940 0.02600
H 	H 	0.34330 0.59580 0.90610 0.02700
C 	C 	0.37540 0.65650 0.96690 -0.06100
H 	H 	0.39270 0.64670 0.93540 0.04300
C 	C 	0.35480 0.70920 0.07880 -0.06300
H 	H 	0.35770 0.73630 0.12290 0.04400
C 	C 	0.32532 0.67700 0.06370 -0.00700
H 	H 	0.30850 0.68230 0.09740 0.03400
C 	C 	0.44889 0.84690 0.02960 0.02800
H 	H 	0.45410 0.89270 0.00600 0.00100
C 	C 	0.41912 0.81200 0.01580 -0.12500
H 	H 	0.40400 0.83720 0.98660 0.07100
C 	C 	0.43541 0.70380 0.09010 -0.09100
H 	H 	0.43290 0.65280 0.10400 0.05700
C 	C 	0.46286 0.74380 0.11400 0.00700
H 	H 	0.47620 0.72340 0.15060 0.02100
C 	C 	0.56000 0.08830 0.12670 -0.11400
H 	H 	0.56180 0.13690 0.10590 0.06300
C 	C 	0.53160 0.04660 0.11430 0.04300
H 	H 	0.51430 0.06770 0.08870 0.00800
C 	C 	0.55140 0.94860 0.19700 0.16400
H 	H 	0.54910 0.90140 0.22040 -0.04200
C 	C 	0.57697 0.00000 0.21670 -0.28400
H 	H 	0.58730 0.99340 0.26220 0.09500
C 	C 	0.65312 0.19700 0.14910 0.04800
H 	H 	0.66050 0.23080 0.11290 0.00900
C 	C 	0.62622 0.15410 0.13250 -0.11700
H 	H 	0.61530 0.15910 0.08750 0.06200
C 	C 	0.62732 0.10820 0.26200 -0.05400
H 	H 	0.61650 0.08390 0.30060 0.03700
C 	C 	0.65402 0.15010 0.27530 -0.00400
H 	H 	0.66170 0.15280 0.32380 0.02200
C 	C 	0.80858 0.51510 0.88280 0.38700
C 	C 	0.83525 0.51620 0.82620 -0.15200
C 	C 	0.84460 0.58230 0.79150 0.06800
H 	H 	0.83380 0.62770 0.80190 0.01200
C 	C 	0.87005 0.58300 0.74080 -0.14300
H 	H 	0.87580 0.62810 0.71680 0.07700
C 	C 	0.88668 0.51600 0.72660 0.07800
C 	C 	0.87708 0.44960 0.76200 -0.14700
H 	H 	0.88780 0.40400 0.75180 0.07600
C 	C 	0.85216 0.44970 0.81180 0.07600
H 	H 	0.84660 0.40460 0.83610 0.01800
C 	C 	0.91524 0.51640 0.67550 -0.01700
C 	C 	0.96966 0.51060 0.58220 0.07400
C 	C 	0.91620 0.55780 0.60940 -0.02100
H 	H 	0.89830 0.58630 0.59490 0.02800
C 	C 	0.94368 0.55730 0.56420 -0.05600
H 	H 	0.94460 0.58820 0.52210 0.04300
C 	C 	0.96950 0.47030 0.64910 -0.05600
H 	H 	0.98750 0.44250 0.66360 0.03800
C 	C 	0.94238 0.47190 0.69390 -0.02800
H 	H 	0.94210 0.44290 0.73740 0.03700
C 	C 	0.66100 0.61460 0.05900 -0.00800
H 	H 	0.66870 0.57650 0.09040 0.04200
C 	C 	0.63150 0.64840 0.07510 -0.04900
H 	H 	0.62020 0.63450 0.11770 0.03800
C 	C 	0.63520 0.72070 0.96200 -0.03700
H 	H 	0.62570 0.75470 0.92870 0.03700
C 	C 	0.66518 0.68860 0.94570 -0.03100
H 	H 	0.67580 0.70130 0.90190 0.04000
C 	C 	0.58410 0.76880 0.11850 0.02700
H 	H 	0.60090 0.76870 0.15260 0.01200
C 	C 	0.55473 0.80310 0.13700 -0.11300
H 	H 	0.55110 0.81890 0.18580 0.06700
C 	C 	0.53545 0.77890 0.01230 -0.16500
H 	H 	0.51940 0.78210 0.97620 0.08400
C 	C 	0.56377 0.73930 0.99530 0.08100
H 	H 	0.56590 0.71380 0.95000 -0.00500
C 	C 	0.46320 0.00720 0.20990 -0.26000
H 	H 	0.47860 0.00290 0.24730 0.11100
C 	C 	0.43540 0.04870 0.22620 0.30000
H 	H 	0.43200 0.06890 0.27350 -0.08300
C 	C 	0.41407 0.01490 0.10480 0.06800
H 	H 	0.39650 0.01120 0.07280 0.00300
C 	C 	0.44317 0.97670 0.09080 -0.15300
H 	H 	0.44550 0.95280 0.04480 0.07600
C 	C 	0.35515 0.09470 0.14250 -0.04400
H 	H 	0.35500 0.05970 0.10350 0.04200
C 	C 	0.32716 0.13930 0.15750 -0.00900
H 	H 	0.30860 0.13410 0.12900 0.03600
C 	C 	0.35137 0.18410 0.27190 0.02500
H 	H 	0.34860 0.20780 0.31780 0.02000
C 	C 	0.37917 0.13930 0.25720 -0.05500
H 	H 	0.39480 0.13410 0.29400 0.04100
C 	C 	0.71192 0.60370 0.98160 0.36100
C 	C 	0.67934 0.63600 0.99730 -0.09300
C 	C 	0.61931 0.70180 0.02820 0.03200
C 	C 	0.58830 0.73850 0.04590 -0.01300
C 	C 	0.53022 0.81430 0.08180 0.06600
C 	C 	0.46959 0.97190 0.14240 0.03300
C 	C 	0.41312 0.05900 0.17050 -0.03300
C 	C 	0.76050 0.52250 0.71940 0.15000
C 	C 	0.72410 0.45050 0.80150 -0.02800
C 	C 	0.76950 0.38660 0.72930 0.03800
Cd	Cd	0.75800 0.66659 0.85052 1.22600
O 	O 	0.72095 0.59770 0.91440 -0.45600
O 	O 	0.72855 0.58200 0.03460 -0.44200
O 	O 	0.79358 0.57640 0.89740 -0.49600
O 	O 	0.80276 0.45570 0.91660 -0.41100
C 	C 	0.38354 0.10250 0.18800 0.06600
C 	C 	0.32865 0.19150 0.21690 -0.14300
C 	C 	0.29960 0.24150 0.23290 0.44900
O 	O 	0.29622 0.26850 0.29340 -0.49100
O 	O 	0.28030 0.25090 0.18020 -0.47600
C 	C 	0.93690 0.57870 0.67180 -0.02100
H 	H 	0.93310 0.62250 0.69990 0.03300
C 	C 	0.96410 0.57480 0.62640 -0.06700
H 	H 	0.97850 0.61540 0.62560 0.04700
C 	C 	0.94650 0.45270 0.58180 -0.06900
H 	H 	0.94910 0.41150 0.54940 0.04700
C 	C 	0.91990 0.45460 0.62820 -0.01600
H 	H 	0.90510 0.41460 0.62760 0.02600
C 	C 	0.65410 0.62450 0.94940 0.02600
H 	H 	0.65670 0.59580 0.90610 0.02700
C 	C 	0.62460 0.65650 0.96690 -0.06100
H 	H 	0.60730 0.64670 0.93540 0.04300
C 	C 	0.64520 0.70920 0.07880 -0.06300
H 	H 	0.64230 0.73630 0.12290 0.04400
C 	C 	0.67468 0.67700 0.06370 -0.00700
H 	H 	0.69150 0.68230 0.09740 0.03400
C 	C 	0.55111 0.84690 0.02960 0.02800
H 	H 	0.54590 0.89270 0.00600 0.00100
C 	C 	0.58088 0.81200 0.01580 -0.12500
H 	H 	0.59600 0.83720 0.98660 0.07100
C 	C 	0.56459 0.70380 0.09010 -0.09100
H 	H 	0.56710 0.65280 0.10400 0.05700
C 	C 	0.53714 0.74380 0.11400 0.00700
H 	H 	0.52380 0.72340 0.15060 0.02100
C 	C 	0.44000 0.08830 0.12670 -0.11400
H 	H 	0.43820 0.13690 0.10590 0.06300
C 	C 	0.46840 0.04660 0.11430 0.04300
H 	H 	0.48570 0.06770 0.08870 0.00800
C 	C 	0.44860 0.94860 0.19700 0.16400
H 	H 	0.45090 0.90140 0.22040 -0.04200
C 	C 	0.42303 0.00000 0.21670 -0.28400
H 	H 	0.41270 0.99340 0.26220 0.09500
C 	C 	0.34688 0.19700 0.14910 0.04800
H 	H 	0.33950 0.23080 0.11290 0.00900
C 	C 	0.37378 0.15410 0.13250 -0.11700
H 	H 	0.38470 0.15910 0.08750 0.06200
C 	C 	0.37268 0.10820 0.26200 -0.05400
H 	H 	0.38350 0.08390 0.30060 0.03700
C 	C 	0.34598 0.15010 0.27530 -0.00400
H 	H 	0.33830 0.15280 0.32380 0.02200
C 	C 	0.69142 0.48490 0.38280 0.38800
C 	C 	0.66475 0.48380 0.32620 -0.15500
C 	C 	0.65540 0.41770 0.29150 0.06900
H 	H 	0.66620 0.37230 0.30190 0.01100
C 	C 	0.62995 0.41700 0.24080 -0.14400
H 	H 	0.62420 0.37190 0.21680 0.07700
C 	C 	0.61332 0.48400 0.22660 0.07900
C 	C 	0.62292 0.55040 0.26200 -0.14900
H 	H 	0.61220 0.59600 0.25180 0.07600
C 	C 	0.64784 0.55030 0.31180 0.07700
H 	H 	0.65340 0.59540 0.33610 0.01500
C 	C 	0.58476 0.48360 0.17550 -0.01900
C 	C 	0.53034 0.48940 0.08220 0.08300
C 	C 	0.58380 0.44220 0.10940 -0.01900
H 	H 	0.60170 0.41370 0.09490 0.02600
C 	C 	0.55632 0.44270 0.06420 -0.06000
H 	H 	0.55540 0.41180 0.02210 0.04000
C 	C 	0.53050 0.52970 0.14910 -0.06100
H 	H 	0.51250 0.55750 0.16360 0.04000
C 	C 	0.55762 0.52810 0.19390 -0.02400
H 	H 	0.55790 0.55710 0.23740 0.03400
C 	C 	0.83900 0.38540 0.55900 0.01100
H 	H 	0.83130 0.42350 0.59040 0.03700
C 	C 	0.86850 0.35160 0.57510 -0.06200
H 	H 	0.87980 0.36550 0.61770 0.04300
C 	C 	0.86480 0.27930 0.46200 -0.05100
H 	H 	0.87430 0.24530 0.42870 0.04000
C 	C 	0.83482 0.31140 0.44570 -0.02200
H 	H 	0.82420 0.29870 0.40190 0.03700
C 	C 	0.91590 0.23120 0.61850 -0.04400
H 	H 	0.89910 0.23130 0.65260 0.03900
C 	C 	0.94527 0.19690 0.63700 -0.03800
H 	H 	0.94890 0.18110 0.68580 0.04000
C 	C 	0.96455 0.22110 0.51230 -0.03300
H 	H 	0.98060 0.21790 0.47620 0.03300
C 	C 	0.93623 0.26070 0.49530 -0.05200
H 	H 	0.93410 0.28620 0.45000 0.03900
C 	C 	0.03680 0.99280 0.70990 -0.23100
H 	H 	0.02140 0.99710 0.74730 0.09400
C 	C 	0.06460 0.95130 0.72620 0.16200
H 	H 	0.06800 0.93110 0.77350 -0.04100
C 	C 	0.08593 0.98510 0.60480 -0.02800
H 	H 	0.10350 0.98880 0.57280 0.02800
C 	C 	0.05683 0.02330 0.59080 -0.06400
H 	H 	0.05450 0.04720 0.54480 0.05200
C 	C 	0.14485 0.90530 0.64250 -0.05000
H 	H 	0.14500 0.94030 0.60350 0.03800
C 	C 	0.17284 0.86070 0.65750 -0.00900
H 	H 	0.19140 0.86590 0.62900 0.03300
C 	C 	0.14863 0.81590 0.77190 0.01400
H 	H 	0.15140 0.79220 0.81780 0.02300
C 	C 	0.12083 0.86070 0.75720 -0.06300
H 	H 	0.10520 0.86590 0.79400 0.04200
C 	C 	0.78808 0.39630 0.48160 0.35400
C 	C 	0.82066 0.36400 0.49730 -0.11800
C 	C 	0.88069 0.29820 0.52820 0.05700
C 	C 	0.91170 0.26150 0.54590 -0.00200
C 	C 	0.96978 0.18570 0.58180 0.05600
C 	C 	0.03041 0.02810 0.64240 0.08600
C 	C 	0.08688 0.94100 0.67050 -0.02300
C 	C 	0.73950 0.47750 0.21940 0.15000
C 	C 	0.77590 0.54950 0.30150 -0.02800
C 	C 	0.73050 0.61340 0.22930 0.03400
Cd	Cd	0.74200 0.33341 0.35052 1.22600
O 	O 	0.77905 0.40230 0.41440 -0.45500
O 	O 	0.77145 0.41800 0.53460 -0.43100
O 	O 	0.70642 0.42360 0.39740 -0.49900
O 	O 	0.69724 0.54430 0.41660 -0.41700
C 	C 	0.11646 0.89750 0.68800 0.05600
C 	C 	0.17135 0.80850 0.71690 -0.14100
C 	C 	0.20040 0.75850 0.73290 0.44700
O 	O 	0.20378 0.73150 0.79340 -0.49100
O 	O 	0.21970 0.74910 0.68020 -0.47600
C 	C 	0.56310 0.42130 0.17180 -0.02000
H 	H 	0.56690 0.37750 0.19990 0.03100
C 	C 	0.53590 0.42520 0.12640 -0.07000
H 	H 	0.52150 0.38460 0.12560 0.04700
C 	C 	0.55350 0.54730 0.08180 -0.07200
H 	H 	0.55090 0.58850 0.04940 0.04300
C 	C 	0.58010 0.54540 0.12820 -0.01800
H 	H 	0.59490 0.58540 0.12760 0.02500
C 	C 	0.84590 0.37550 0.44940 0.03600
H 	H 	0.84330 0.40420 0.40610 0.02300
C 	C 	0.87540 0.34350 0.46690 -0.08000
H 	H 	0.89270 0.35330 0.43540 0.04700
C 	C 	0.85480 0.29080 0.57880 -0.06900
H 	H 	0.85770 0.26370 0.62290 0.04800
C 	C 	0.82532 0.32300 0.56370 0.00700
H 	H 	0.80850 0.31770 0.59740 0.03300
C 	C 	0.94889 0.15310 0.52960 -0.07500
H 	H 	0.95410 0.10730 0.50600 0.04800
C 	C 	0.91912 0.18800 0.51580 -0.01400
H 	H 	0.90400 0.16280 0.48660 0.02500
C 	C 	0.93541 0.29620 0.59010 -0.02000
H 	H 	0.93290 0.34720 0.60400 0.03300
C 	C 	0.96286 0.25620 0.61400 -0.06700
H 	H 	0.97620 0.27660 0.65060 0.04700
C 	C 	0.06000 0.91170 0.62670 -0.04800
H 	H 	0.06180 0.86310 0.60590 0.04300
C 	C 	0.03160 0.95340 0.61430 -0.05500
H 	H 	0.01430 0.93230 0.58870 0.03700
C 	C 	0.05140 0.05140 0.69700 0.10800
H 	H 	0.04910 0.09860 0.72040 -0.01400
C 	C 	0.07697 0.00000 0.71670 -0.16800
H 	H 	0.08730 0.00660 0.76220 0.08400
C 	C 	0.15312 0.80300 0.64910 0.04300
H 	H 	0.16050 0.76920 0.61290 0.01100
C 	C 	0.12622 0.84590 0.63250 -0.10300
H 	H 	0.11530 0.84090 0.58750 0.05500
C 	C 	0.12732 0.89180 0.76200 -0.04300
H 	H 	0.11650 0.91610 0.80060 0.02700
C 	C 	0.15402 0.84990 0.77530 0.00500
H 	H 	0.16170 0.84720 0.82380 0.01700
C 	C 	0.69142 0.51510 0.61720 0.38800
C 	C 	0.66475 0.51620 0.67380 -0.15400
C 	C 	0.65540 0.58230 0.70850 0.06900
H 	H 	0.66620 0.62770 0.69810 0.01100
C 	C 	0.62995 0.58300 0.75920 -0.14400
H 	H 	0.62420 0.62810 0.78320 0.07700
C 	C 	0.61332 0.51600 0.77340 0.07900
C 	C 	0.62292 0.44960 0.73800 -0.14800
H 	H 	0.61220 0.40400 0.74820 0.07600
C 	C 	0.64784 0.44970 0.68820 0.07700
H 	H 	0.65340 0.40460 0.66390 0.01600
C 	C 	0.58476 0.51640 0.82450 -0.01800
C 	C 	0.53034 0.51060 0.91780 0.07000
C 	C 	0.58380 0.55780 0.89060 -0.02000
H 	H 	0.60170 0.58630 0.90510 0.02900
C 	C 	0.55632 0.55730 0.93580 -0.05300
H 	H 	0.55540 0.58820 0.97790 0.04800
C 	C 	0.53050 0.47030 0.85090 -0.05500
H 	H 	0.51250 0.44250 0.83640 0.03700
C 	C 	0.55762 0.47190 0.80610 -0.02900
H 	H 	0.55790 0.44290 0.76260 0.03600
C 	C 	0.83900 0.61460 0.44100 0.01100
H 	H 	0.83130 0.57650 0.40960 0.03700
C 	C 	0.86850 0.64840 0.42490 -0.06100
H 	H 	0.87980 0.63450 0.38230 0.04300
C 	C 	0.86480 0.72070 0.53800 -0.05200
H 	H 	0.87430 0.75470 0.57130 0.04100
C 	C 	0.83482 0.68860 0.55430 -0.02300
H 	H 	0.82420 0.70130 0.59810 0.03700
C 	C 	0.91590 0.76880 0.38150 -0.03800
H 	H 	0.89910 0.76870 0.34740 0.03400
C 	C 	0.94527 0.80310 0.36300 -0.04700
H 	H 	0.94890 0.81890 0.31420 0.04300
C 	C 	0.96455 0.77890 0.48770 -0.04100
H 	H 	0.98060 0.78210 0.52380 0.03600
C 	C 	0.93623 0.73930 0.50470 -0.04400
H 	H 	0.93410 0.71380 0.55000 0.03700
C 	C 	0.03680 0.00720 0.29010 -0.26400
H 	H 	0.02140 0.00290 0.25270 0.11200
C 	C 	0.06460 0.04870 0.27380 0.30700
H 	H 	0.06800 0.06890 0.22650 -0.08600
C 	C 	0.08593 0.01490 0.39520 0.06700
H 	H 	0.10350 0.01120 0.42720 0.00500
C 	C 	0.05683 0.97670 0.40920 -0.14800
H 	H 	0.05450 0.95280 0.45520 0.07400
C 	C 	0.14485 0.09470 0.35750 -0.04800
H 	H 	0.14500 0.05970 0.39650 0.04500
C 	C 	0.17284 0.13930 0.34250 -0.00600
H 	H 	0.19140 0.13410 0.37100 0.03600
C 	C 	0.14863 0.18410 0.22810 0.02500
H 	H 	0.15140 0.20780 0.18220 0.01900
C 	C 	0.12083 0.13930 0.24280 -0.05400
H 	H 	0.10520 0.13410 0.20600 0.04000
C 	C 	0.78808 0.60370 0.51840 0.35400
C 	C 	0.82066 0.63600 0.50270 -0.11800
C 	C 	0.88069 0.70180 0.47180 0.05700
C 	C 	0.91170 0.73850 0.45410 -0.00400
C 	C 	0.96978 0.81430 0.41820 0.06000
C 	C 	0.03041 0.97190 0.35760 0.03200
C 	C 	0.08688 0.05900 0.32950 -0.03200
C 	C 	0.73950 0.52250 0.78060 0.15100
C 	C 	0.77590 0.45050 0.69850 -0.02800
C 	C 	0.73050 0.38660 0.77070 0.03800
Cd	Cd	0.74200 0.66659 0.64948 1.22600
O 	O 	0.77905 0.59770 0.58560 -0.45600
O 	O 	0.77145 0.58200 0.46540 -0.43200
O 	O 	0.70642 0.57640 0.60260 -0.50000
O 	O 	0.69724 0.45570 0.58340 -0.41600
C 	C 	0.11646 0.10250 0.31200 0.06500
C 	C 	0.17135 0.19150 0.28310 -0.14300
C 	C 	0.20040 0.24150 0.26710 0.44900
O 	O 	0.20378 0.26850 0.20660 -0.49200
O 	O 	0.21970 0.25090 0.31980 -0.47500
C 	C 	0.56310 0.57870 0.82820 -0.02200
H 	H 	0.56690 0.62250 0.80010 0.03300
C 	C 	0.53590 0.57480 0.87360 -0.06500
H 	H 	0.52150 0.61540 0.87440 0.04700
C 	C 	0.55350 0.45270 0.91820 -0.06700
H 	H 	0.55090 0.41150 0.95060 0.05200
C 	C 	0.58010 0.45460 0.87180 -0.01400
H 	H 	0.59490 0.41460 0.87240 0.02600
C 	C 	0.84590 0.62450 0.55060 0.03700
H 	H 	0.84330 0.59580 0.59390 0.02200
C 	C 	0.87540 0.65650 0.53310 -0.08000
H 	H 	0.89270 0.64670 0.56460 0.04800
C 	C 	0.85480 0.70920 0.42120 -0.07000
H 	H 	0.85770 0.73630 0.37710 0.04600
C 	C 	0.82532 0.67700 0.43630 0.00700
H 	H 	0.80850 0.68230 0.40260 0.03100
C 	C 	0.94889 0.84690 0.47040 -0.06700
H 	H 	0.95410 0.89270 0.49400 0.04000
C 	C 	0.91912 0.81200 0.48420 -0.02000
H 	H 	0.90400 0.83720 0.51340 0.02500
C 	C 	0.93541 0.70380 0.40990 -0.02400
H 	H 	0.93290 0.65280 0.39600 0.03400
C 	C 	0.96286 0.74380 0.38600 -0.06200
H 	H 	0.97620 0.72340 0.34940 0.04400
C 	C 	0.06000 0.08830 0.37330 -0.11500
H 	H 	0.06180 0.13690 0.39410 0.06500
C 	C 	0.03160 0.04660 0.38570 0.04500
H 	H 	0.01430 0.06770 0.41130 0.00900
C 	C 	0.05140 0.94860 0.30300 0.16800
H 	H 	0.04910 0.90140 0.27960 -0.04200
C 	C 	0.07697 0.00000 0.28330 -0.29100
H 	H 	0.08730 0.99340 0.23780 0.09700
C 	C 	0.15312 0.19700 0.35090 0.04400
H 	H 	0.16050 0.23080 0.38710 0.01100
C 	C 	0.12622 0.15410 0.36750 -0.10900
H 	H 	0.11530 0.15910 0.41250 0.05800
C 	C 	0.12732 0.10820 0.23800 -0.05400
H 	H 	0.11650 0.08390 0.19940 0.03600
C 	C 	0.15402 0.15010 0.22470 -0.00300
H 	H 	0.16170 0.15280 0.17620 0.02100
C 	C 	0.80858 0.48490 0.11720 0.38900
C 	C 	0.83525 0.48380 0.17380 -0.15600
C 	C 	0.84460 0.41770 0.20850 0.07000
H 	H 	0.83380 0.37230 0.19810 0.01000
C 	C 	0.87005 0.41700 0.25920 -0.14500
H 	H 	0.87580 0.37190 0.28320 0.07800
C 	C 	0.88668 0.48400 0.27340 0.08000
C 	C 	0.87708 0.55040 0.23800 -0.15000
H 	H 	0.88780 0.59600 0.24820 0.07500
C 	C 	0.85216 0.55030 0.18820 0.07800
H 	H 	0.84660 0.59540 0.16390 0.01300
C 	C 	0.91524 0.48360 0.32450 -0.01900
C 	C 	0.96966 0.48940 0.41780 0.07600
C 	C 	0.91620 0.44220 0.39060 -0.02000
H 	H 	0.89830 0.41370 0.40510 0.02700
C 	C 	0.94368 0.44270 0.43580 -0.05700
H 	H 	0.94460 0.41180 0.47790 0.04400
C 	C 	0.96950 0.52970 0.35090 -0.05800
H 	H 	0.98750 0.55750 0.33640 0.03800
C 	C 	0.94238 0.52810 0.30610 -0.02600
H 	H 	0.94210 0.55710 0.26260 0.03400
C 	C 	0.66100 0.38540 0.94100 0.03000
H 	H 	0.66870 0.42350 0.90960 0.03200
C 	C 	0.63150 0.35160 0.92490 -0.07400
H 	H 	0.62020 0.36550 0.88230 0.04800
C 	C 	0.63520 0.27930 0.03800 -0.06500
H 	H 	0.62570 0.24530 0.07130 0.04400
C 	C 	0.66518 0.31140 0.05430 -0.01400
H 	H 	0.67580 0.29870 0.09810 0.03400
C 	C 	0.58410 0.23120 0.88150 -0.10800
H 	H 	0.60090 0.23130 0.84740 0.06100
C 	C 	0.55473 0.19690 0.86300 0.02600
H 	H 	0.55110 0.18110 0.81420 0.01700
C 	C 	0.53545 0.22110 0.98770 0.08900
H 	H 	0.51940 0.21790 0.02380 -0.01300
C 	C 	0.56377 0.26070 0.00470 -0.17500
H 	H 	0.56590 0.28620 0.05000 0.08100
C 	C 	0.46320 0.99280 0.79010 -0.23500
H 	H 	0.47860 0.99710 0.75270 0.09400
C 	C 	0.43540 0.95130 0.77380 0.16700
H 	H 	0.43200 0.93110 0.72650 -0.04400
C 	C 	0.41407 0.98510 0.89520 -0.02800
H 	H 	0.39650 0.98880 0.92720 0.03000
C 	C 	0.44317 0.02330 0.90920 -0.05900
H 	H 	0.44550 0.04720 0.95520 0.05100
C 	C 	0.35515 0.90530 0.85750 -0.05400
H 	H 	0.35500 0.94030 0.89650 0.04100
C 	C 	0.32716 0.86070 0.84250 -0.00500
H 	H 	0.30860 0.86590 0.87100 0.03300
C 	C 	0.35137 0.81590 0.72810 0.01300
H 	H 	0.34860 0.79220 0.68220 0.02300
C 	C 	0.37917 0.86070 0.74280 -0.06200
H 	H 	0.39480 0.86590 0.70600 0.04100
C 	C 	0.71192 0.39630 0.01840 0.34700
C 	C 	0.67934 0.36400 0.00270 -0.14300
C 	C 	0.61931 0.29820 0.97180 0.08200
C 	C 	0.58830 0.26150 0.95410 0.00500
C 	C 	0.53022 0.18570 0.91820 0.05100
C 	C 	0.46959 0.02810 0.85760 0.08400
C 	C 	0.41312 0.94100 0.82950 -0.02200
C 	C 	0.76050 0.47750 0.28060 0.15000
C 	C 	0.72410 0.54950 0.19850 -0.02800
C 	C 	0.76950 0.61340 0.27070 0.03400
Cd	Cd	0.75800 0.33341 0.14948 1.22600
O 	O 	0.72095 0.40230 0.08560 -0.45500
O 	O 	0.72855 0.41800 0.96540 -0.42000
O 	O 	0.79358 0.42360 0.10260 -0.50200
O 	O 	0.80276 0.54430 0.08340 -0.42000
C 	C 	0.38354 0.89750 0.81200 0.05400
C 	C 	0.32865 0.80850 0.78310 -0.14100
C 	C 	0.29960 0.75850 0.76710 0.44700
O 	O 	0.29622 0.73150 0.70660 -0.49200
O 	O 	0.28030 0.74910 0.81980 -0.47600
C 	C 	0.93690 0.42130 0.32820 -0.02100
H 	H 	0.93310 0.37750 0.30010 0.03100
C 	C 	0.96410 0.42520 0.37360 -0.06700
H 	H 	0.97850 0.38460 0.37440 0.04600
C 	C 	0.94650 0.54730 0.41820 -0.07000
H 	H 	0.94910 0.58850 0.45060 0.04800
C 	C 	0.91990 0.54540 0.37180 -0.01600
H 	H 	0.90510 0.58540 0.37240 0.02500
C 	C 	0.65410 0.37550 0.05060 0.04700
H 	H 	0.65670 0.40420 0.09390 0.01900
C 	C 	0.62460 0.34350 0.03310 -0.09800
H 	H 	0.60730 0.35330 0.06460 0.05200
C 	C 	0.64520 0.29080 0.92120 -0.07600
H 	H 	0.64230 0.26370 0.87710 0.05000
C 	C 	0.67468 0.32300 0.93630 0.02200
H 	H 	0.69150 0.31770 0.90260 0.03000
C 	C 	0.55111 0.15310 0.97040 -0.16900
H 	H 	0.54590 0.10730 0.99400 0.08700
C 	C 	0.58088 0.18800 0.98420 0.08900
H 	H 	0.59600 0.16280 0.01340 -0.02000
C 	C 	0.56459 0.29620 0.90990 0.04700
H 	H 	0.56710 0.34720 0.89600 0.00900
C 	C 	0.53714 0.25620 0.88600 -0.13600
H 	H 	0.52380 0.27660 0.84940 0.07000
C 	C 	0.44000 0.91170 0.87330 -0.04900
H 	H 	0.43820 0.86310 0.89410 0.04400
C 	C 	0.46840 0.95340 0.88570 -0.05300
H 	H 	0.48570 0.93230 0.91130 0.03800
C 	C 	0.44860 0.05140 0.80300 0.11200
H 	H 	0.45090 0.09860 0.77960 -0.01500
C 	C 	0.42303 -0.00000 0.78330 -0.17400
H 	H 	0.41270 0.00660 0.73780 0.08500
C 	C 	0.34688 0.80300 0.85090 0.03800
H 	H 	0.33950 0.76920 0.88710 0.01300
C 	C 	0.37378 0.84590 0.86750 -0.09600
H 	H 	0.38470 0.84090 0.91250 0.05100
C 	C 	0.37268 0.89180 0.73800 -0.04300
H 	H 	0.38350 0.91610 0.69940 0.02600
C 	C 	0.34598 0.84990 0.72470 0.00500
H 	H 	0.33830 0.84720 0.67620 0.01600
C 	C 	0.00000 0.49420 0.46290 -0.05200
C 	C 	0.50000 0.50580 0.96290 -0.03300
C 	C 	0.50000 0.49420 0.03710 -0.07100
C 	C 	0.00000 0.50580 0.53710 -0.05100
C 	C 	0.50000 0.14260 0.90040 -0.03600
C 	C 	0.50000 0.07200 0.87370 -0.05800
C 	C 	0.00000 0.85740 0.40040 -0.05200
C 	C 	-0.00000 0.92800 0.37370 -0.03800
C 	C 	0.00000 0.14260 0.59960 -0.04100
C 	C 	0.00000 0.07200 0.62630 -0.05700
C 	C 	0.50000 0.85740 0.09960 -0.05800
C 	C 	0.50000 0.92800 0.12630 -0.03800
N 	N 	0.25000 0.54660 0.25000 -0.15700
O 	O 	0.25000 0.41760 0.25000 -0.50600
N 	N 	0.25000 0.45340 0.75000 -0.15800
O 	O 	0.25000 0.58240 0.75000 -0.50600
N 	N 	0.75000 0.45340 0.75000 -0.15800
O 	O 	0.75000 0.58240 0.75000 -0.50600
N 	N 	0.75000 0.54660 0.25000 -0.15700
O 	O 	0.75000 0.41760 0.25000 -0.50600
Cd	Cd	0.23401 0.50000 -0.00000 1.23300
Cd	Cd	0.26599 0.50000 0.50000 1.23700
Cd	Cd	0.76599 0.50000 -0.00000 1.23300
Cd	Cd	0.73401 0.50000 0.50000 1.23700
