data_crystal

_cell_length_a 41.00510
_cell_length_b 41.00510
_cell_length_c 41.00510
_cell_angle_alpha 90.00000
_cell_angle_beta  90.00000
_cell_angle_gamma 90.00000

_symmetry_space_group_name_	'P 1'
_symmetry_space_group_name_H-M	'P 1'

loop_
_symmetry_equiv_pos_as_xyz
  x,y,z

loop_
_atom_site_label
_atom_site_type_symbol
_atom_site_fract_x
_atom_site_fract_y
_atom_site_fract_z
_atom_site_charge
O 	O 	0.65253 0.74707 0.94990 -0.40700
O 	O 	0.69521 0.71654 0.96213 -0.55600
C 	C 	0.67077 0.72306 0.94486 0.37000
C 	C 	0.66351 0.70127 0.91716 -0.10500
S 	S 	0.63026 0.70964 0.89261 0.03600
C 	C 	0.68150 0.67387 0.90758 -0.03200
C 	C 	0.63920 0.67679 0.86800 -0.02600
H 	H 	0.69990 0.66590 0.91810 0.04300
C 	C 	0.66690 0.65990 0.87880 0.02000
O 	O 	0.65253 0.24707 0.44990 -0.41200
O 	O 	0.69521 0.21654 0.46213 -0.56300
C 	C 	0.67077 0.22306 0.44486 0.37100
C 	C 	0.66351 0.20127 0.41716 -0.10700
S 	S 	0.63026 0.20964 0.39261 0.03400
C 	C 	0.68150 0.17387 0.40758 -0.03200
C 	C 	0.63920 0.17679 0.36800 -0.02600
H 	H 	0.69990 0.16590 0.41810 0.04200
C 	C 	0.66690 0.15990 0.37880 0.01800
O 	O 	0.15253 0.74707 0.44990 -0.41300
O 	O 	0.19521 0.71654 0.46213 -0.56300
C 	C 	0.17077 0.72306 0.44486 0.37100
C 	C 	0.16351 0.70127 0.41716 -0.10700
S 	S 	0.13026 0.70964 0.39261 0.03300
C 	C 	0.18150 0.67387 0.40758 -0.03200
C 	C 	0.13920 0.67679 0.36800 -0.02500
H 	H 	0.19990 0.66590 0.41810 0.04200
C 	C 	0.16690 0.65990 0.37880 0.01900
O 	O 	0.15253 0.24707 0.94990 -0.40800
O 	O 	0.19521 0.21654 0.96213 -0.55700
C 	C 	0.17077 0.22306 0.94486 0.37000
C 	C 	0.16351 0.20127 0.91716 -0.10500
S 	S 	0.13026 0.20964 0.89261 0.03400
C 	C 	0.18150 0.17387 0.90758 -0.03200
C 	C 	0.13920 0.17679 0.86800 -0.02600
H 	H 	0.19990 0.16590 0.91810 0.04300
C 	C 	0.16690 0.15990 0.87880 0.01900
O 	O 	0.34747 0.25293 0.94990 -0.40800
O 	O 	0.30479 0.28346 0.96213 -0.55600
C 	C 	0.32923 0.27694 0.94486 0.37000
C 	C 	0.33649 0.29873 0.91716 -0.10500
S 	S 	0.36974 0.29036 0.89261 0.03600
C 	C 	0.31850 0.32613 0.90758 -0.03200
C 	C 	0.36080 0.32321 0.86800 -0.02600
H 	H 	0.30010 0.33410 0.91810 0.04300
C 	C 	0.33310 0.34010 0.87880 0.02000
O 	O 	0.34747 0.75293 0.44990 -0.41200
O 	O 	0.30479 0.78346 0.46213 -0.56200
C 	C 	0.32923 0.77694 0.44486 0.37100
C 	C 	0.33649 0.79873 0.41716 -0.10600
S 	S 	0.36974 0.79036 0.39261 0.03500
C 	C 	0.31850 0.82613 0.40758 -0.03200
C 	C 	0.36080 0.82321 0.36800 -0.02500
H 	H 	0.30010 0.83410 0.41810 0.04200
C 	C 	0.33310 0.84010 0.37880 0.01900
O 	O 	0.84747 0.25293 0.44990 -0.41100
O 	O 	0.80479 0.28346 0.46213 -0.56200
C 	C 	0.82923 0.27694 0.44486 0.37100
C 	C 	0.83649 0.29873 0.41716 -0.10600
S 	S 	0.86974 0.29036 0.39261 0.03600
C 	C 	0.81850 0.32613 0.40758 -0.03200
C 	C 	0.86080 0.32321 0.36800 -0.02600
H 	H 	0.80010 0.33410 0.41810 0.04200
C 	C 	0.83310 0.34010 0.37880 0.01900
O 	O 	0.84747 0.75293 0.94990 -0.40700
O 	O 	0.80479 0.78346 0.96213 -0.55600
C 	C 	0.82923 0.77694 0.94486 0.37000
C 	C 	0.83649 0.79873 0.91716 -0.10500
S 	S 	0.86974 0.79036 0.89261 0.03800
C 	C 	0.81850 0.82613 0.90758 -0.03200
C 	C 	0.86080 0.82321 0.86800 -0.02600
H 	H 	0.80010 0.83410 0.91810 0.04300
C 	C 	0.83310 0.84010 0.87880 0.02000
O 	O 	0.34747 0.74707 0.05010 -0.41500
O 	O 	0.30479 0.71654 0.03787 -0.56600
C 	C 	0.32923 0.72306 0.05514 0.37100
C 	C 	0.33649 0.70127 0.08284 -0.10700
S 	S 	0.36974 0.70964 0.10739 0.03300
C 	C 	0.31850 0.67387 0.09242 -0.03200
C 	C 	0.36080 0.67679 0.13200 -0.02500
H 	H 	0.30010 0.66590 0.08190 0.04100
C 	C 	0.33310 0.65990 0.12120 0.01800
O 	O 	0.34747 0.24707 0.55010 -0.41200
O 	O 	0.30479 0.21654 0.53787 -0.56300
C 	C 	0.32923 0.22306 0.55514 0.37100
C 	C 	0.33649 0.20127 0.58284 -0.10700
S 	S 	0.36974 0.20964 0.60739 0.03400
C 	C 	0.31850 0.17387 0.59242 -0.03200
C 	C 	0.36080 0.17679 0.63200 -0.02700
H 	H 	0.30010 0.16590 0.58190 0.04100
C 	C 	0.33310 0.15990 0.62120 0.01700
O 	O 	0.84747 0.74707 0.55010 -0.41200
O 	O 	0.80479 0.71654 0.53787 -0.56300
C 	C 	0.82923 0.72306 0.55514 0.37000
C 	C 	0.83649 0.70127 0.58284 -0.10800
S 	S 	0.86974 0.70964 0.60739 0.03500
C 	C 	0.81850 0.67387 0.59242 -0.03300
C 	C 	0.86080 0.67679 0.63200 -0.02700
H 	H 	0.80010 0.66590 0.58190 0.04100
C 	C 	0.83310 0.65990 0.62120 0.01800
O 	O 	0.84747 0.24707 0.05010 -0.41500
O 	O 	0.80479 0.21654 0.03787 -0.56600
C 	C 	0.82923 0.22306 0.05514 0.37000
C 	C 	0.83649 0.20127 0.08284 -0.10900
S 	S 	0.86974 0.20964 0.10739 0.03300
C 	C 	0.81850 0.17387 0.09242 -0.03300
C 	C 	0.86080 0.17679 0.13200 -0.02600
H 	H 	0.80010 0.16590 0.08190 0.04000
C 	C 	0.83310 0.15990 0.12120 0.01700
O 	O 	0.65253 0.25293 0.05010 -0.41600
O 	O 	0.69521 0.28346 0.03787 -0.56700
C 	C 	0.67077 0.27694 0.05514 0.37000
C 	C 	0.66351 0.29873 0.08284 -0.10800
S 	S 	0.63026 0.29036 0.10739 0.03200
C 	C 	0.68150 0.32613 0.09242 -0.03300
C 	C 	0.63920 0.32321 0.13200 -0.02600
H 	H 	0.69990 0.33410 0.08190 0.04000
C 	C 	0.66690 0.34010 0.12120 0.01700
O 	O 	0.65253 0.75293 0.55010 -0.41300
O 	O 	0.69521 0.78346 0.53787 -0.56300
C 	C 	0.67077 0.77694 0.55514 0.37000
C 	C 	0.66351 0.79873 0.58284 -0.10700
S 	S 	0.63026 0.79036 0.60739 0.03400
C 	C 	0.68150 0.82613 0.59242 -0.03300
C 	C 	0.63920 0.82321 0.63200 -0.02700
H 	H 	0.69990 0.83410 0.58190 0.04100
C 	C 	0.66690 0.84010 0.62120 0.01800
O 	O 	0.15253 0.25293 0.55010 -0.41400
O 	O 	0.19521 0.28346 0.53787 -0.56400
C 	C 	0.17077 0.27694 0.55514 0.37000
C 	C 	0.16351 0.29873 0.58284 -0.10800
S 	S 	0.13026 0.29036 0.60739 0.03200
C 	C 	0.18150 0.32613 0.59242 -0.03300
C 	C 	0.13920 0.32321 0.63200 -0.02600
H 	H 	0.19990 0.33410 0.58190 0.04100
C 	C 	0.16690 0.34010 0.62120 0.01800
O 	O 	0.15253 0.75293 0.05010 -0.41700
O 	O 	0.19521 0.78346 0.03787 -0.56700
C 	C 	0.17077 0.77694 0.05514 0.37000
C 	C 	0.16351 0.79873 0.08284 -0.10800
S 	S 	0.13026 0.79036 0.10739 0.03100
C 	C 	0.18150 0.82613 0.09242 -0.03300
C 	C 	0.13920 0.82321 0.13200 -0.02600
H 	H 	0.19990 0.83410 0.08190 0.04000
C 	C 	0.16690 0.84010 0.12120 0.01700
O 	O 	0.94990 0.65253 0.74707 -0.40800
O 	O 	0.96213 0.69521 0.71654 -0.55700
C 	C 	0.94486 0.67077 0.72306 0.36900
C 	C 	0.91716 0.66351 0.70127 -0.10600
S 	S 	0.89261 0.63026 0.70964 0.03500
C 	C 	0.90758 0.68150 0.67387 -0.03300
C 	C 	0.86800 0.63920 0.67679 -0.02700
H 	H 	0.91810 0.69990 0.66590 0.04200
C 	C 	0.87880 0.66690 0.65990 0.01900
O 	O 	0.94990 0.15253 0.24707 -0.40900
O 	O 	0.96213 0.19521 0.21654 -0.55800
C 	C 	0.94486 0.17077 0.22306 0.36900
C 	C 	0.91716 0.16351 0.20127 -0.10600
S 	S 	0.89261 0.13026 0.20964 0.03300
C 	C 	0.90758 0.18150 0.17387 -0.03300
C 	C 	0.86800 0.13920 0.17679 -0.02700
H 	H 	0.91810 0.19990 0.16590 0.04200
C 	C 	0.87880 0.16690 0.15990 0.01800
O 	O 	0.44990 0.65253 0.24707 -0.41300
O 	O 	0.46213 0.69521 0.21654 -0.56400
C 	C 	0.44486 0.67077 0.22306 0.37000
C 	C 	0.41716 0.66351 0.20127 -0.10800
S 	S 	0.39261 0.63026 0.20964 0.03300
C 	C 	0.40758 0.68150 0.17387 -0.03300
C 	C 	0.36800 0.63920 0.17679 -0.02700
H 	H 	0.41810 0.69990 0.16590 0.04100
C 	C 	0.37880 0.66690 0.15990 0.01700
O 	O 	0.44990 0.15253 0.74707 -0.41400
O 	O 	0.46213 0.19521 0.71654 -0.56400
C 	C 	0.44486 0.17077 0.72306 0.37000
C 	C 	0.41716 0.16351 0.70127 -0.10800
S 	S 	0.39261 0.13026 0.70964 0.03200
C 	C 	0.40758 0.18150 0.67387 -0.03300
C 	C 	0.36800 0.13920 0.67679 -0.02600
H 	H 	0.41810 0.19990 0.66590 0.04100
C 	C 	0.37880 0.16690 0.65990 0.01800
O 	O 	0.94990 0.34747 0.25293 -0.40900
O 	O 	0.96213 0.30479 0.28346 -0.55700
C 	C 	0.94486 0.32923 0.27694 0.36900
C 	C 	0.91716 0.33649 0.29873 -0.10600
S 	S 	0.89261 0.36974 0.29036 0.03500
C 	C 	0.90758 0.31850 0.32613 -0.03300
C 	C 	0.86800 0.36080 0.32321 -0.02700
H 	H 	0.91810 0.30010 0.33410 0.04200
C 	C 	0.87880 0.33310 0.34010 0.01900
O 	O 	0.94990 0.84747 0.75293 -0.40800
O 	O 	0.96213 0.80479 0.78346 -0.55700
C 	C 	0.94486 0.82923 0.77694 0.36900
C 	C 	0.91716 0.83649 0.79873 -0.10600
S 	S 	0.89261 0.86974 0.79036 0.03700
C 	C 	0.90758 0.81850 0.82613 -0.03300
C 	C 	0.86800 0.86080 0.82321 -0.02700
H 	H 	0.91810 0.80010 0.83410 0.04200
C 	C 	0.87880 0.83310 0.84010 0.01900
O 	O 	0.44990 0.34747 0.75293 -0.41300
O 	O 	0.46213 0.30479 0.78346 -0.56300
C 	C 	0.44486 0.32923 0.77694 0.37000
C 	C 	0.41716 0.33649 0.79873 -0.10700
S 	S 	0.39261 0.36974 0.79036 0.03400
C 	C 	0.40758 0.31850 0.82613 -0.03300
C 	C 	0.36800 0.36080 0.82321 -0.02600
H 	H 	0.41810 0.30010 0.83410 0.04100
C 	C 	0.37880 0.33310 0.84010 0.01800
O 	O 	0.44990 0.84747 0.25293 -0.41200
O 	O 	0.46213 0.80479 0.28346 -0.56300
C 	C 	0.44486 0.82923 0.27694 0.37000
C 	C 	0.41716 0.83649 0.29873 -0.10700
S 	S 	0.39261 0.86974 0.29036 0.03500
C 	C 	0.40758 0.81850 0.32613 -0.03300
C 	C 	0.36800 0.86080 0.32321 -0.02700
H 	H 	0.41810 0.80010 0.33410 0.04100
C 	C 	0.37880 0.83310 0.34010 0.01800
O 	O 	0.05010 0.34747 0.74707 -0.41600
O 	O 	0.03787 0.30479 0.71654 -0.56700
C 	C 	0.05514 0.32923 0.72306 0.37000
C 	C 	0.08284 0.33649 0.70127 -0.10800
S 	S 	0.10739 0.36974 0.70964 0.03200
C 	C 	0.09242 0.31850 0.67387 -0.03300
C 	C 	0.13200 0.36080 0.67679 -0.02600
H 	H 	0.08190 0.30010 0.66590 0.04000
C 	C 	0.12120 0.33310 0.65990 0.01700
O 	O 	0.05010 0.84747 0.24707 -0.41500
O 	O 	0.03787 0.80479 0.21654 -0.56600
C 	C 	0.05514 0.82923 0.22306 0.37000
C 	C 	0.08284 0.83649 0.20127 -0.10900
S 	S 	0.10739 0.86974 0.20964 0.03300
C 	C 	0.09242 0.81850 0.17387 -0.03300
C 	C 	0.13200 0.86080 0.17679 -0.02600
H 	H 	0.08190 0.80010 0.16590 0.04000
C 	C 	0.12120 0.83310 0.15990 0.01700
O 	O 	0.55010 0.34747 0.24707 -0.41300
O 	O 	0.53787 0.30479 0.21654 -0.56400
C 	C 	0.55514 0.32923 0.22306 0.37000
C 	C 	0.58284 0.33649 0.20127 -0.10800
S 	S 	0.60739 0.36974 0.20964 0.03300
C 	C 	0.59242 0.31850 0.17387 -0.03300
C 	C 	0.63200 0.36080 0.17679 -0.02700
H 	H 	0.58190 0.30010 0.16590 0.04100
C 	C 	0.62120 0.33310 0.15990 0.01700
O 	O 	0.55010 0.84747 0.74707 -0.41200
O 	O 	0.53787 0.80479 0.71654 -0.56300
C 	C 	0.55514 0.82923 0.72306 0.37000
C 	C 	0.58284 0.83649 0.70127 -0.10800
S 	S 	0.60739 0.86974 0.70964 0.03500
C 	C 	0.59242 0.81850 0.67387 -0.03300
C 	C 	0.63200 0.86080 0.67679 -0.02700
H 	H 	0.58190 0.80010 0.66590 0.04100
C 	C 	0.62120 0.83310 0.65990 0.01800
O 	O 	0.05010 0.65253 0.25293 -0.41600
O 	O 	0.03787 0.69521 0.28346 -0.56700
C 	C 	0.05514 0.67077 0.27694 0.37000
C 	C 	0.08284 0.66351 0.29873 -0.10800
S 	S 	0.10739 0.63026 0.29036 0.03200
C 	C 	0.09242 0.68150 0.32613 -0.03300
C 	C 	0.13200 0.63920 0.32321 -0.02600
H 	H 	0.08190 0.69990 0.33410 0.04000
C 	C 	0.12120 0.66690 0.34010 0.01700
O 	O 	0.05010 0.15253 0.75293 -0.41700
O 	O 	0.03787 0.19521 0.78346 -0.56700
C 	C 	0.05514 0.17077 0.77694 0.37000
C 	C 	0.08284 0.16351 0.79873 -0.10800
S 	S 	0.10739 0.13026 0.79036 0.03100
C 	C 	0.09242 0.18150 0.82613 -0.03300
C 	C 	0.13200 0.13920 0.82321 -0.02600
H 	H 	0.08190 0.19990 0.83410 0.04000
C 	C 	0.12120 0.16690 0.84010 0.01700
O 	O 	0.55010 0.65253 0.75293 -0.41300
O 	O 	0.53787 0.69521 0.78346 -0.56300
C 	C 	0.55514 0.67077 0.77694 0.37000
C 	C 	0.58284 0.66351 0.79873 -0.10700
S 	S 	0.60739 0.63026 0.79036 0.03400
C 	C 	0.59242 0.68150 0.82613 -0.03300
C 	C 	0.63200 0.63920 0.82321 -0.02700
H 	H 	0.58190 0.69990 0.83410 0.04100
C 	C 	0.62120 0.66690 0.84010 0.01800
O 	O 	0.55010 0.15253 0.25293 -0.41400
O 	O 	0.53787 0.19521 0.28346 -0.56400
C 	C 	0.55514 0.17077 0.27694 0.37000
C 	C 	0.58284 0.16351 0.29873 -0.10800
S 	S 	0.60739 0.13026 0.29036 0.03200
C 	C 	0.59242 0.18150 0.32613 -0.03300
C 	C 	0.63200 0.13920 0.32321 -0.02600
H 	H 	0.58190 0.19990 0.33410 0.04100
C 	C 	0.62120 0.16690 0.34010 0.01800
O 	O 	0.74707 0.94990 0.65253 -0.40800
O 	O 	0.71654 0.96213 0.69521 -0.55700
C 	C 	0.72306 0.94486 0.67077 0.36900
C 	C 	0.70127 0.91716 0.66351 -0.10600
S 	S 	0.70964 0.89261 0.63026 0.03500
C 	C 	0.67387 0.90758 0.68150 -0.03300
C 	C 	0.67679 0.86800 0.63920 -0.02700
H 	H 	0.66590 0.91810 0.69990 0.04200
C 	C 	0.65990 0.87880 0.66690 0.01900
O 	O 	0.74707 0.44990 0.15253 -0.41400
O 	O 	0.71654 0.46213 0.19521 -0.56400
C 	C 	0.72306 0.44486 0.17077 0.37000
C 	C 	0.70127 0.41716 0.16351 -0.10800
S 	S 	0.70964 0.39261 0.13026 0.03200
C 	C 	0.67387 0.40758 0.18150 -0.03300
C 	C 	0.67679 0.36800 0.13920 -0.02600
H 	H 	0.66590 0.41810 0.19990 0.04100
C 	C 	0.65990 0.37880 0.16690 0.01800
O 	O 	0.24707 0.94990 0.15253 -0.40900
O 	O 	0.21654 0.96213 0.19521 -0.55800
C 	C 	0.22306 0.94486 0.17077 0.36900
C 	C 	0.20127 0.91716 0.16351 -0.10600
S 	S 	0.20964 0.89261 0.13026 0.03300
C 	C 	0.17387 0.90758 0.18150 -0.03300
C 	C 	0.17679 0.86800 0.13920 -0.02700
H 	H 	0.16590 0.91810 0.19990 0.04200
C 	C 	0.15990 0.87880 0.16690 0.01800
O 	O 	0.24707 0.44990 0.65253 -0.41300
O 	O 	0.21654 0.46213 0.69521 -0.56400
C 	C 	0.22306 0.44486 0.67077 0.37000
C 	C 	0.20127 0.41716 0.66351 -0.10800
S 	S 	0.20964 0.39261 0.63026 0.03300
C 	C 	0.17387 0.40758 0.68150 -0.03300
C 	C 	0.17679 0.36800 0.63920 -0.02700
H 	H 	0.16590 0.41810 0.69990 0.04100
C 	C 	0.15990 0.37880 0.66690 0.01700
O 	O 	0.25293 0.94990 0.34747 -0.40900
O 	O 	0.28346 0.96213 0.30479 -0.55700
C 	C 	0.27694 0.94486 0.32923 0.36900
C 	C 	0.29873 0.91716 0.33649 -0.10600
S 	S 	0.29036 0.89261 0.36974 0.03500
C 	C 	0.32613 0.90758 0.31850 -0.03300
C 	C 	0.32321 0.86800 0.36080 -0.02700
H 	H 	0.33410 0.91810 0.30010 0.04200
C 	C 	0.34010 0.87880 0.33310 0.01900
O 	O 	0.25293 0.44990 0.84747 -0.41200
O 	O 	0.28346 0.46213 0.80479 -0.56300
C 	C 	0.27694 0.44486 0.82923 0.37000
C 	C 	0.29873 0.41716 0.83649 -0.10700
S 	S 	0.29036 0.39261 0.86974 0.03500
C 	C 	0.32613 0.40758 0.81850 -0.03300
C 	C 	0.32321 0.36800 0.86080 -0.02700
H 	H 	0.33410 0.41810 0.80010 0.04100
C 	C 	0.34010 0.37880 0.83310 0.01800
O 	O 	0.75293 0.94990 0.84747 -0.40800
O 	O 	0.78346 0.96213 0.80479 -0.55700
C 	C 	0.77694 0.94486 0.82923 0.36900
C 	C 	0.79873 0.91716 0.83649 -0.10600
S 	S 	0.79036 0.89261 0.86974 0.03700
C 	C 	0.82613 0.90758 0.81850 -0.03300
C 	C 	0.82321 0.86800 0.86080 -0.02700
H 	H 	0.83410 0.91810 0.80010 0.04200
C 	C 	0.84010 0.87880 0.83310 0.01900
O 	O 	0.75293 0.44990 0.34747 -0.41300
O 	O 	0.78346 0.46213 0.30479 -0.56300
C 	C 	0.77694 0.44486 0.32923 0.37000
C 	C 	0.79873 0.41716 0.33649 -0.10700
S 	S 	0.79036 0.39261 0.36974 0.03400
C 	C 	0.82613 0.40758 0.31850 -0.03300
C 	C 	0.82321 0.36800 0.36080 -0.02600
H 	H 	0.83410 0.41810 0.30010 0.04100
C 	C 	0.84010 0.37880 0.33310 0.01800
O 	O 	0.74707 0.05010 0.34747 -0.41600
O 	O 	0.71654 0.03787 0.30479 -0.56700
C 	C 	0.72306 0.05514 0.32923 0.37000
C 	C 	0.70127 0.08284 0.33649 -0.10800
S 	S 	0.70964 0.10739 0.36974 0.03200
C 	C 	0.67387 0.09242 0.31850 -0.03300
C 	C 	0.67679 0.13200 0.36080 -0.02600
H 	H 	0.66590 0.08190 0.30010 0.04000
C 	C 	0.65990 0.12120 0.33310 0.01700
O 	O 	0.74707 0.55010 0.84747 -0.41200
O 	O 	0.71654 0.53787 0.80479 -0.56300
C 	C 	0.72306 0.55514 0.82923 0.37000
C 	C 	0.70127 0.58284 0.83649 -0.10800
S 	S 	0.70964 0.60739 0.86974 0.03500
C 	C 	0.67387 0.59242 0.81850 -0.03300
C 	C 	0.67679 0.63200 0.86080 -0.02700
H 	H 	0.66590 0.58190 0.80010 0.04100
C 	C 	0.65990 0.62120 0.83310 0.01800
O 	O 	0.24707 0.05010 0.84747 -0.41500
O 	O 	0.21654 0.03787 0.80479 -0.56600
C 	C 	0.22306 0.05514 0.82923 0.37000
C 	C 	0.20127 0.08284 0.83649 -0.10900
S 	S 	0.20964 0.10739 0.86974 0.03300
C 	C 	0.17387 0.09242 0.81850 -0.03300
C 	C 	0.17679 0.13200 0.86080 -0.02600
H 	H 	0.16590 0.08190 0.80010 0.04000
C 	C 	0.15990 0.12120 0.83310 0.01700
O 	O 	0.24707 0.55010 0.34747 -0.41300
O 	O 	0.21654 0.53787 0.30479 -0.56400
C 	C 	0.22306 0.55514 0.32923 0.37000
C 	C 	0.20127 0.58284 0.33649 -0.10800
S 	S 	0.20964 0.60739 0.36974 0.03300
C 	C 	0.17387 0.59242 0.31850 -0.03300
C 	C 	0.17679 0.63200 0.36080 -0.02700
H 	H 	0.16590 0.58190 0.30010 0.04100
C 	C 	0.15990 0.62120 0.33310 0.01700
O 	O 	0.25293 0.05010 0.65253 -0.41600
O 	O 	0.28346 0.03787 0.69521 -0.56700
C 	C 	0.27694 0.05514 0.67077 0.37000
C 	C 	0.29873 0.08284 0.66351 -0.10800
S 	S 	0.29036 0.10739 0.63026 0.03200
C 	C 	0.32613 0.09242 0.68150 -0.03300
C 	C 	0.32321 0.13200 0.63920 -0.02600
H 	H 	0.33410 0.08190 0.69990 0.04000
C 	C 	0.34010 0.12120 0.66690 0.01700
O 	O 	0.25293 0.55010 0.15253 -0.41400
O 	O 	0.28346 0.53787 0.19521 -0.56400
C 	C 	0.27694 0.55514 0.17077 0.37000
C 	C 	0.29873 0.58284 0.16351 -0.10800
S 	S 	0.29036 0.60739 0.13026 0.03200
C 	C 	0.32613 0.59242 0.18150 -0.03300
C 	C 	0.32321 0.63200 0.13920 -0.02600
H 	H 	0.33410 0.58190 0.19990 0.04100
C 	C 	0.34010 0.62120 0.16690 0.01800
O 	O 	0.75293 0.05010 0.15253 -0.41700
O 	O 	0.78346 0.03787 0.19521 -0.56700
C 	C 	0.77694 0.05514 0.17077 0.37000
C 	C 	0.79873 0.08284 0.16351 -0.10800
S 	S 	0.79036 0.10739 0.13026 0.03100
C 	C 	0.82613 0.09242 0.18150 -0.03300
C 	C 	0.82321 0.13200 0.13920 -0.02600
H 	H 	0.83410 0.08190 0.19990 0.04000
C 	C 	0.84010 0.12120 0.16690 0.01700
O 	O 	0.75293 0.55010 0.65253 -0.41300
O 	O 	0.78346 0.53787 0.69521 -0.56300
C 	C 	0.77694 0.55514 0.67077 0.37000
C 	C 	0.79873 0.58284 0.66351 -0.10700
S 	S 	0.79036 0.60739 0.63026 0.03400
C 	C 	0.82613 0.59242 0.68150 -0.03300
C 	C 	0.82321 0.63200 0.63920 -0.02700
H 	H 	0.83410 0.58190 0.69990 0.04100
C 	C 	0.84010 0.62120 0.66690 0.01800
O 	O 	0.24707 0.15253 0.55010 -0.41400
O 	O 	0.21654 0.19521 0.53787 -0.56400
C 	C 	0.22306 0.17077 0.55514 0.37000
C 	C 	0.20127 0.16351 0.58284 -0.10800
S 	S 	0.20964 0.13026 0.60739 0.03200
C 	C 	0.17387 0.18150 0.59242 -0.03300
C 	C 	0.17679 0.13920 0.63200 -0.02600
H 	H 	0.16590 0.19990 0.58190 0.04100
C 	C 	0.15990 0.16690 0.62120 0.01700
O 	O 	0.24707 0.65253 0.05010 -0.41600
O 	O 	0.21654 0.69521 0.03787 -0.56700
C 	C 	0.22306 0.67077 0.05514 0.37000
C 	C 	0.20127 0.66351 0.08284 -0.10900
S 	S 	0.20964 0.63026 0.10739 0.03200
C 	C 	0.17387 0.68150 0.09242 -0.03300
C 	C 	0.17679 0.63920 0.13200 -0.02600
H 	H 	0.16590 0.69990 0.08190 0.04000
C 	C 	0.15990 0.66690 0.12120 0.01700
O 	O 	0.74707 0.15253 0.05010 -0.41700
O 	O 	0.71654 0.19521 0.03787 -0.56700
C 	C 	0.72306 0.17077 0.05514 0.37000
C 	C 	0.70127 0.16351 0.08284 -0.10900
S 	S 	0.70964 0.13026 0.10739 0.03100
C 	C 	0.67387 0.18150 0.09242 -0.03300
C 	C 	0.67679 0.13920 0.13200 -0.02600
H 	H 	0.66590 0.19990 0.08190 0.04000
C 	C 	0.65990 0.16690 0.12120 0.01700
O 	O 	0.74707 0.65253 0.55010 -0.41300
O 	O 	0.71654 0.69521 0.53787 -0.56400
C 	C 	0.72306 0.67077 0.55514 0.37000
C 	C 	0.70127 0.66351 0.58284 -0.10800
S 	S 	0.70964 0.63026 0.60739 0.03300
C 	C 	0.67387 0.68150 0.59242 -0.03300
C 	C 	0.67679 0.63920 0.63200 -0.02700
H 	H 	0.66590 0.69990 0.58190 0.04100
C 	C 	0.65990 0.66690 0.62120 0.01800
O 	O 	0.75293 0.84747 0.55010 -0.41200
O 	O 	0.78346 0.80479 0.53787 -0.56300
C 	C 	0.77694 0.82923 0.55514 0.37000
C 	C 	0.79873 0.83649 0.58284 -0.10700
S 	S 	0.79036 0.86974 0.60739 0.03500
C 	C 	0.82613 0.81850 0.59242 -0.03300
C 	C 	0.82321 0.86080 0.63200 -0.02700
H 	H 	0.83410 0.80010 0.58190 0.04100
C 	C 	0.84010 0.83310 0.62120 0.01900
O 	O 	0.75293 0.34747 0.05010 -0.41600
O 	O 	0.78346 0.30479 0.03787 -0.56600
C 	C 	0.77694 0.32923 0.05514 0.37000
C 	C 	0.79873 0.33649 0.08284 -0.10800
S 	S 	0.79036 0.36974 0.10739 0.03200
C 	C 	0.82613 0.31850 0.09242 -0.03300
C 	C 	0.82321 0.36080 0.13200 -0.02600
H 	H 	0.83410 0.30010 0.08190 0.04100
C 	C 	0.84010 0.33310 0.12120 0.01800
O 	O 	0.25293 0.84747 0.05010 -0.41500
O 	O 	0.28346 0.80479 0.03787 -0.56600
C 	C 	0.27694 0.82923 0.05514 0.37000
C 	C 	0.29873 0.83649 0.08284 -0.10800
S 	S 	0.29036 0.86974 0.10739 0.03400
C 	C 	0.32613 0.81850 0.09242 -0.03300
C 	C 	0.32321 0.86080 0.13200 -0.02600
H 	H 	0.33410 0.80010 0.08190 0.04000
C 	C 	0.34010 0.83310 0.12120 0.01800
O 	O 	0.25293 0.34747 0.55010 -0.41300
O 	O 	0.28346 0.30479 0.53787 -0.56300
C 	C 	0.27694 0.32923 0.55514 0.37000
C 	C 	0.29873 0.33649 0.58284 -0.10800
S 	S 	0.29036 0.36974 0.60739 0.03300
C 	C 	0.32613 0.31850 0.59242 -0.03300
C 	C 	0.32321 0.36080 0.63200 -0.02600
H 	H 	0.33410 0.30010 0.58190 0.04100
C 	C 	0.34010 0.33310 0.62120 0.01800
O 	O 	0.24707 0.84747 0.44990 -0.41200
O 	O 	0.21654 0.80479 0.46213 -0.56300
C 	C 	0.22306 0.82923 0.44486 0.37000
C 	C 	0.20127 0.83649 0.41716 -0.10800
S 	S 	0.20964 0.86974 0.39261 0.03500
C 	C 	0.17387 0.81850 0.40758 -0.03300
C 	C 	0.17679 0.86080 0.36800 -0.02700
H 	H 	0.16590 0.80010 0.41810 0.04100
C 	C 	0.15990 0.83310 0.37880 0.01800
O 	O 	0.24707 0.34747 0.94990 -0.40900
O 	O 	0.21654 0.30479 0.96213 -0.55700
C 	C 	0.22306 0.32923 0.94486 0.36900
C 	C 	0.20127 0.33649 0.91716 -0.10600
S 	S 	0.20964 0.36974 0.89261 0.03500
C 	C 	0.17387 0.31850 0.90758 -0.03300
C 	C 	0.17679 0.36080 0.86800 -0.02700
H 	H 	0.16590 0.30010 0.91810 0.04200
C 	C 	0.15990 0.33310 0.87880 0.01800
O 	O 	0.74707 0.84747 0.94990 -0.40800
O 	O 	0.71654 0.80479 0.96213 -0.55700
C 	C 	0.72306 0.82923 0.94486 0.36900
C 	C 	0.70127 0.83649 0.91716 -0.10600
S 	S 	0.70964 0.86974 0.89261 0.03700
C 	C 	0.67387 0.81850 0.90758 -0.03300
C 	C 	0.67679 0.86080 0.86800 -0.02700
H 	H 	0.66590 0.80010 0.91810 0.04200
C 	C 	0.65990 0.83310 0.87880 0.01900
O 	O 	0.74707 0.34747 0.44990 -0.41300
O 	O 	0.71654 0.30479 0.46213 -0.56300
C 	C 	0.72306 0.32923 0.44486 0.37000
C 	C 	0.70127 0.33649 0.41716 -0.10800
S 	S 	0.70964 0.36974 0.39261 0.03400
C 	C 	0.67387 0.31850 0.40758 -0.03300
C 	C 	0.67679 0.36080 0.36800 -0.02700
H 	H 	0.66590 0.30010 0.41810 0.04100
C 	C 	0.65990 0.33310 0.37880 0.01800
O 	O 	0.75293 0.15253 0.44990 -0.41400
O 	O 	0.78346 0.19521 0.46213 -0.56400
C 	C 	0.77694 0.17077 0.44486 0.37000
C 	C 	0.79873 0.16351 0.41716 -0.10800
S 	S 	0.79036 0.13026 0.39261 0.03300
C 	C 	0.82613 0.18150 0.40758 -0.03300
C 	C 	0.82321 0.13920 0.36800 -0.02600
H 	H 	0.83410 0.19990 0.41810 0.04100
C 	C 	0.84010 0.16690 0.37880 0.01800
O 	O 	0.75293 0.65253 0.94990 -0.40900
O 	O 	0.78346 0.69521 0.96213 -0.55700
C 	C 	0.77694 0.67077 0.94486 0.36900
C 	C 	0.79873 0.66351 0.91716 -0.10600
S 	S 	0.79036 0.63026 0.89261 0.03500
C 	C 	0.82613 0.68150 0.90758 -0.03300
C 	C 	0.82321 0.63920 0.86800 -0.02700
H 	H 	0.83410 0.69990 0.91810 0.04200
C 	C 	0.84010 0.66690 0.87880 0.01900
O 	O 	0.25293 0.15253 0.94990 -0.41000
O 	O 	0.28346 0.19521 0.96213 -0.55700
C 	C 	0.27694 0.17077 0.94486 0.36900
C 	C 	0.29873 0.16351 0.91716 -0.10600
S 	S 	0.29036 0.13026 0.89261 0.03400
C 	C 	0.32613 0.18150 0.90758 -0.03300
C 	C 	0.32321 0.13920 0.86800 -0.02700
H 	H 	0.33410 0.19990 0.91810 0.04200
C 	C 	0.34010 0.16690 0.87880 0.01800
O 	O 	0.25293 0.65253 0.44990 -0.41300
O 	O 	0.28346 0.69521 0.46213 -0.56400
C 	C 	0.27694 0.67077 0.44486 0.37000
C 	C 	0.29873 0.66351 0.41716 -0.10800
S 	S 	0.29036 0.63026 0.39261 0.03300
C 	C 	0.32613 0.68150 0.40758 -0.03300
C 	C 	0.32321 0.63920 0.36800 -0.02600
H 	H 	0.33410 0.69990 0.41810 0.04100
C 	C 	0.34010 0.66690 0.37880 0.01800
O 	O 	0.15253 0.44990 0.75293 -0.41400
O 	O 	0.19521 0.46213 0.78346 -0.56400
C 	C 	0.17077 0.44486 0.77694 0.37000
C 	C 	0.16351 0.41716 0.79873 -0.10800
S 	S 	0.13026 0.39261 0.79036 0.03300
C 	C 	0.18150 0.40758 0.82613 -0.03300
C 	C 	0.13920 0.36800 0.82321 -0.02600
H 	H 	0.19990 0.41810 0.83410 0.04100
C 	C 	0.16690 0.37880 0.84010 0.01800
O 	O 	0.15253 0.94990 0.25293 -0.41000
O 	O 	0.19521 0.96213 0.28346 -0.55700
C 	C 	0.17077 0.94486 0.27694 0.36900
C 	C 	0.16351 0.91716 0.29873 -0.10600
S 	S 	0.13026 0.89261 0.29036 0.03400
C 	C 	0.18150 0.90758 0.32613 -0.03300
C 	C 	0.13920 0.86800 0.32321 -0.02700
H 	H 	0.19990 0.91810 0.33410 0.04200
C 	C 	0.16690 0.87880 0.34010 0.01800
O 	O 	0.65253 0.44990 0.25293 -0.41300
O 	O 	0.69521 0.46213 0.28346 -0.56400
C 	C 	0.67077 0.44486 0.27694 0.37000
C 	C 	0.66351 0.41716 0.29873 -0.10800
S 	S 	0.63026 0.39261 0.29036 0.03300
C 	C 	0.68150 0.40758 0.32613 -0.03300
C 	C 	0.63920 0.36800 0.32321 -0.02600
H 	H 	0.69990 0.41810 0.33410 0.04100
C 	C 	0.66690 0.37880 0.34010 0.01800
O 	O 	0.65253 0.94990 0.75293 -0.40900
O 	O 	0.69521 0.96213 0.78346 -0.55700
C 	C 	0.67077 0.94486 0.77694 0.36900
C 	C 	0.66351 0.91716 0.79873 -0.10600
S 	S 	0.63026 0.89261 0.79036 0.03500
C 	C 	0.68150 0.90758 0.82613 -0.03300
C 	C 	0.63920 0.86800 0.82321 -0.02700
H 	H 	0.69990 0.91810 0.83410 0.04200
C 	C 	0.66690 0.87880 0.84010 0.01900
O 	O 	0.84747 0.44990 0.24707 -0.41200
O 	O 	0.80479 0.46213 0.21654 -0.56300
C 	C 	0.82923 0.44486 0.22306 0.37000
C 	C 	0.83649 0.41716 0.20127 -0.10800
S 	S 	0.86974 0.39261 0.20964 0.03500
C 	C 	0.81850 0.40758 0.17387 -0.03300
C 	C 	0.86080 0.36800 0.17679 -0.02700
H 	H 	0.80010 0.41810 0.16590 0.04100
C 	C 	0.83310 0.37880 0.15990 0.01800
O 	O 	0.84747 0.94990 0.74707 -0.40800
O 	O 	0.80479 0.96213 0.71654 -0.55700
C 	C 	0.82923 0.94486 0.72306 0.36900
C 	C 	0.83649 0.91716 0.70127 -0.10600
S 	S 	0.86974 0.89261 0.70964 0.03700
C 	C 	0.81850 0.90758 0.67387 -0.03300
C 	C 	0.86080 0.86800 0.67679 -0.02700
H 	H 	0.80010 0.91810 0.66590 0.04200
C 	C 	0.83310 0.87880 0.65990 0.01900
O 	O 	0.34747 0.44990 0.74707 -0.41300
O 	O 	0.30479 0.46213 0.71654 -0.56300
C 	C 	0.32923 0.44486 0.72306 0.37000
C 	C 	0.33649 0.41716 0.70127 -0.10800
S 	S 	0.36974 0.39261 0.70964 0.03400
C 	C 	0.31850 0.40758 0.67387 -0.03300
C 	C 	0.36080 0.36800 0.67679 -0.02700
H 	H 	0.30010 0.41810 0.66590 0.04100
C 	C 	0.33310 0.37880 0.65990 0.01800
O 	O 	0.34747 0.94990 0.24707 -0.40900
O 	O 	0.30479 0.96213 0.21654 -0.55700
C 	C 	0.32923 0.94486 0.22306 0.36900
C 	C 	0.33649 0.91716 0.20127 -0.10600
S 	S 	0.36974 0.89261 0.20964 0.03500
C 	C 	0.31850 0.90758 0.17387 -0.03300
C 	C 	0.36080 0.86800 0.17679 -0.02700
H 	H 	0.30010 0.91810 0.16590 0.04200
C 	C 	0.33310 0.87880 0.15990 0.01800
O 	O 	0.84747 0.55010 0.75293 -0.41200
O 	O 	0.80479 0.53787 0.78346 -0.56300
C 	C 	0.82923 0.55514 0.77694 0.37000
C 	C 	0.83649 0.58284 0.79873 -0.10700
S 	S 	0.86974 0.60739 0.79036 0.03500
C 	C 	0.81850 0.59242 0.82613 -0.03300
C 	C 	0.86080 0.63200 0.82321 -0.02700
H 	H 	0.80010 0.58190 0.83410 0.04100
C 	C 	0.83310 0.62120 0.84010 0.01900
O 	O 	0.84747 0.05010 0.25293 -0.41500
O 	O 	0.80479 0.03787 0.28346 -0.56600
C 	C 	0.82923 0.05514 0.27694 0.37000
C 	C 	0.83649 0.08284 0.29873 -0.10800
S 	S 	0.86974 0.10739 0.29036 0.03400
C 	C 	0.81850 0.09242 0.32613 -0.03300
C 	C 	0.86080 0.13200 0.32321 -0.02600
H 	H 	0.80010 0.08190 0.33410 0.04000
C 	C 	0.83310 0.12120 0.34010 0.01800
O 	O 	0.34747 0.55010 0.25293 -0.41300
O 	O 	0.30479 0.53787 0.28346 -0.56300
C 	C 	0.32923 0.55514 0.27694 0.37000
C 	C 	0.33649 0.58284 0.29873 -0.10800
S 	S 	0.36974 0.60739 0.29036 0.03300
C 	C 	0.31850 0.59242 0.32613 -0.03300
C 	C 	0.36080 0.63200 0.32321 -0.02600
H 	H 	0.30010 0.58190 0.33410 0.04100
C 	C 	0.33310 0.62120 0.34010 0.01800
O 	O 	0.34747 0.05010 0.75293 -0.41600
O 	O 	0.30479 0.03787 0.78346 -0.56600
C 	C 	0.32923 0.05514 0.77694 0.37000
C 	C 	0.33649 0.08284 0.79873 -0.10800
S 	S 	0.36974 0.10739 0.79036 0.03200
C 	C 	0.31850 0.09242 0.82613 -0.03300
C 	C 	0.36080 0.13200 0.82321 -0.02600
H 	H 	0.30010 0.08190 0.83410 0.04100
C 	C 	0.33310 0.12120 0.84010 0.01800
O 	O 	0.15253 0.55010 0.24707 -0.41400
O 	O 	0.19521 0.53787 0.21654 -0.56400
C 	C 	0.17077 0.55514 0.22306 0.37000
C 	C 	0.16351 0.58284 0.20127 -0.10800
S 	S 	0.13026 0.60739 0.20964 0.03200
C 	C 	0.18150 0.59242 0.17387 -0.03300
C 	C 	0.13920 0.63200 0.17679 -0.02600
H 	H 	0.19990 0.58190 0.16590 0.04100
C 	C 	0.16690 0.62120 0.15990 0.01700
O 	O 	0.15253 0.05010 0.74707 -0.41700
O 	O 	0.19521 0.03787 0.71654 -0.56700
C 	C 	0.17077 0.05514 0.72306 0.37000
C 	C 	0.16351 0.08284 0.70127 -0.10900
S 	S 	0.13026 0.10739 0.70964 0.03100
C 	C 	0.18150 0.09242 0.67387 -0.03300
C 	C 	0.13920 0.13200 0.67679 -0.02600
H 	H 	0.19990 0.08190 0.66590 0.04000
C 	C 	0.16690 0.12120 0.65990 0.01700
O 	O 	0.65253 0.55010 0.74707 -0.41300
O 	O 	0.69521 0.53787 0.71654 -0.56400
C 	C 	0.67077 0.55514 0.72306 0.37000
C 	C 	0.66351 0.58284 0.70127 -0.10800
S 	S 	0.63026 0.60739 0.70964 0.03300
C 	C 	0.68150 0.59242 0.67387 -0.03300
C 	C 	0.63920 0.63200 0.67679 -0.02700
H 	H 	0.69990 0.58190 0.66590 0.04100
C 	C 	0.66690 0.62120 0.65990 0.01800
O 	O 	0.65253 0.05010 0.24707 -0.41600
O 	O 	0.69521 0.03787 0.21654 -0.56700
C 	C 	0.67077 0.05514 0.22306 0.37000
C 	C 	0.66351 0.08284 0.20127 -0.10900
S 	S 	0.63026 0.10739 0.20964 0.03200
C 	C 	0.68150 0.09242 0.17387 -0.03300
C 	C 	0.63920 0.13200 0.17679 -0.02600
H 	H 	0.69990 0.08190 0.16590 0.04000
C 	C 	0.66690 0.12120 0.15990 0.01700
O 	O 	0.44990 0.24707 0.84747 -0.41200
O 	O 	0.46213 0.21654 0.80479 -0.56300
C 	C 	0.44486 0.22306 0.82923 0.37000
C 	C 	0.41716 0.20127 0.83649 -0.10800
S 	S 	0.39261 0.20964 0.86974 0.03500
C 	C 	0.40758 0.17387 0.81850 -0.03300
C 	C 	0.36800 0.17679 0.86080 -0.02700
H 	H 	0.41810 0.16590 0.80010 0.04100
C 	C 	0.37880 0.15990 0.83310 0.01800
O 	O 	0.44990 0.74707 0.34747 -0.41300
O 	O 	0.46213 0.71654 0.30479 -0.56300
C 	C 	0.44486 0.72306 0.32923 0.37000
C 	C 	0.41716 0.70127 0.33649 -0.10800
S 	S 	0.39261 0.70964 0.36974 0.03400
C 	C 	0.40758 0.67387 0.31850 -0.03300
C 	C 	0.36800 0.67679 0.36080 -0.02700
H 	H 	0.41810 0.66590 0.30010 0.04100
C 	C 	0.37880 0.65990 0.33310 0.01800
O 	O 	0.94990 0.24707 0.34747 -0.40900
O 	O 	0.96213 0.21654 0.30479 -0.55700
C 	C 	0.94486 0.22306 0.32923 0.36900
C 	C 	0.91716 0.20127 0.33649 -0.10600
S 	S 	0.89261 0.20964 0.36974 0.03500
C 	C 	0.90758 0.17387 0.31850 -0.03300
C 	C 	0.86800 0.17679 0.36080 -0.02700
H 	H 	0.91810 0.16590 0.30010 0.04200
C 	C 	0.87880 0.15990 0.33310 0.01800
O 	O 	0.94990 0.74707 0.84747 -0.40800
O 	O 	0.96213 0.71654 0.80479 -0.55700
C 	C 	0.94486 0.72306 0.82923 0.36900
C 	C 	0.91716 0.70127 0.83649 -0.10600
S 	S 	0.89261 0.70964 0.86974 0.03700
C 	C 	0.90758 0.67387 0.81850 -0.03300
C 	C 	0.86800 0.67679 0.86080 -0.02700
H 	H 	0.91810 0.66590 0.80010 0.04200
C 	C 	0.87880 0.65990 0.83310 0.01900
O 	O 	0.44990 0.75293 0.15253 -0.41400
O 	O 	0.46213 0.78346 0.19521 -0.56400
C 	C 	0.44486 0.77694 0.17077 0.37000
C 	C 	0.41716 0.79873 0.16351 -0.10800
S 	S 	0.39261 0.79036 0.13026 0.03300
C 	C 	0.40758 0.82613 0.18150 -0.03300
C 	C 	0.36800 0.82321 0.13920 -0.02600
H 	H 	0.41810 0.83410 0.19990 0.04100
C 	C 	0.37880 0.84010 0.16690 0.01800
O 	O 	0.44990 0.25293 0.65253 -0.41300
O 	O 	0.46213 0.28346 0.69521 -0.56400
C 	C 	0.44486 0.27694 0.67077 0.37000
C 	C 	0.41716 0.29873 0.66351 -0.10800
S 	S 	0.39261 0.29036 0.63026 0.03300
C 	C 	0.40758 0.32613 0.68150 -0.03300
C 	C 	0.36800 0.32321 0.63920 -0.02600
H 	H 	0.41810 0.33410 0.69990 0.04100
C 	C 	0.37880 0.34010 0.66690 0.01800
O 	O 	0.94990 0.75293 0.65253 -0.40900
O 	O 	0.96213 0.78346 0.69521 -0.55700
C 	C 	0.94486 0.77694 0.67077 0.36900
C 	C 	0.91716 0.79873 0.66351 -0.10600
S 	S 	0.89261 0.79036 0.63026 0.03500
C 	C 	0.90758 0.82613 0.68150 -0.03300
C 	C 	0.86800 0.82321 0.63920 -0.02700
H 	H 	0.91810 0.83410 0.69990 0.04200
C 	C 	0.87880 0.84010 0.66690 0.01900
O 	O 	0.94990 0.25293 0.15253 -0.41000
O 	O 	0.96213 0.28346 0.19521 -0.55700
C 	C 	0.94486 0.27694 0.17077 0.36900
C 	C 	0.91716 0.29873 0.16351 -0.10600
S 	S 	0.89261 0.29036 0.13026 0.03400
C 	C 	0.90758 0.32613 0.18150 -0.03300
C 	C 	0.86800 0.32321 0.13920 -0.02700
H 	H 	0.91810 0.33410 0.19990 0.04200
C 	C 	0.87880 0.34010 0.16690 0.01800
O 	O 	0.55010 0.24707 0.15253 -0.41400
O 	O 	0.53787 0.21654 0.19521 -0.56400
C 	C 	0.55514 0.22306 0.17077 0.37000
C 	C 	0.58284 0.20127 0.16351 -0.10800
S 	S 	0.60739 0.20964 0.13026 0.03200
C 	C 	0.59242 0.17387 0.18150 -0.03300
C 	C 	0.63200 0.17679 0.13920 -0.02600
H 	H 	0.58190 0.16590 0.19990 0.04100
C 	C 	0.62120 0.15990 0.16690 0.01700
O 	O 	0.55010 0.74707 0.65253 -0.41300
O 	O 	0.53787 0.71654 0.69521 -0.56400
C 	C 	0.55514 0.72306 0.67077 0.37000
C 	C 	0.58284 0.70127 0.66351 -0.10800
S 	S 	0.60739 0.70964 0.63026 0.03300
C 	C 	0.59242 0.67387 0.68150 -0.03300
C 	C 	0.63200 0.67679 0.63920 -0.02700
H 	H 	0.58190 0.66590 0.69990 0.04100
C 	C 	0.62120 0.65990 0.66690 0.01800
O 	O 	0.05010 0.24707 0.65253 -0.41600
O 	O 	0.03787 0.21654 0.69521 -0.56700
C 	C 	0.05514 0.22306 0.67077 0.37000
C 	C 	0.08284 0.20127 0.66351 -0.10900
S 	S 	0.10739 0.20964 0.63026 0.03200
C 	C 	0.09242 0.17387 0.68150 -0.03300
C 	C 	0.13200 0.17679 0.63920 -0.02600
H 	H 	0.08190 0.16590 0.69990 0.04000
C 	C 	0.12120 0.15990 0.66690 0.01700
O 	O 	0.05010 0.74707 0.15253 -0.41700
O 	O 	0.03787 0.71654 0.19521 -0.56700
C 	C 	0.05514 0.72306 0.17077 0.37000
C 	C 	0.08284 0.70127 0.16351 -0.10900
S 	S 	0.10739 0.70964 0.13026 0.03100
C 	C 	0.09242 0.67387 0.18150 -0.03300
C 	C 	0.13200 0.67679 0.13920 -0.02600
H 	H 	0.08190 0.66590 0.19990 0.04000
C 	C 	0.12120 0.65990 0.16690 0.01700
O 	O 	0.55010 0.75293 0.84747 -0.41200
O 	O 	0.53787 0.78346 0.80479 -0.56300
C 	C 	0.55514 0.77694 0.82923 0.37000
C 	C 	0.58284 0.79873 0.83649 -0.10700
S 	S 	0.60739 0.79036 0.86974 0.03500
C 	C 	0.59242 0.82613 0.81850 -0.03300
C 	C 	0.63200 0.82321 0.86080 -0.02700
H 	H 	0.58190 0.83410 0.80010 0.04100
C 	C 	0.62120 0.84010 0.83310 0.01900
O 	O 	0.55010 0.25293 0.34747 -0.41300
O 	O 	0.53787 0.28346 0.30479 -0.56300
C 	C 	0.55514 0.27694 0.32923 0.37000
C 	C 	0.58284 0.29873 0.33649 -0.10800
S 	S 	0.60739 0.29036 0.36974 0.03300
C 	C 	0.59242 0.32613 0.31850 -0.03300
C 	C 	0.63200 0.32321 0.36080 -0.02600
H 	H 	0.58190 0.33410 0.30010 0.04100
C 	C 	0.62120 0.34010 0.33310 0.01800
O 	O 	0.05010 0.75293 0.34747 -0.41600
O 	O 	0.03787 0.78346 0.30479 -0.56600
C 	C 	0.05514 0.77694 0.32923 0.37000
C 	C 	0.08284 0.79873 0.33649 -0.10800
S 	S 	0.10739 0.79036 0.36974 0.03200
C 	C 	0.09242 0.82613 0.31850 -0.03300
C 	C 	0.13200 0.82321 0.36080 -0.02600
H 	H 	0.08190 0.83410 0.30010 0.04100
C 	C 	0.12120 0.84010 0.33310 0.01800
O 	O 	0.05010 0.25293 0.84747 -0.41500
O 	O 	0.03787 0.28346 0.80479 -0.56600
C 	C 	0.05514 0.27694 0.82923 0.37000
C 	C 	0.08284 0.29873 0.83649 -0.10800
S 	S 	0.10739 0.29036 0.86974 0.03400
C 	C 	0.09242 0.32613 0.81850 -0.03300
C 	C 	0.13200 0.32321 0.86080 -0.02600
H 	H 	0.08190 0.33410 0.80010 0.04000
C 	C 	0.12120 0.34010 0.83310 0.01800
O 	O 	0.34747 0.25293 0.05010 -0.41600
O 	O 	0.30479 0.28346 0.03787 -0.56700
C 	C 	0.32923 0.27694 0.05514 0.37000
C 	C 	0.33649 0.29873 0.08284 -0.10800
S 	S 	0.36974 0.29036 0.10739 0.03200
C 	C 	0.31850 0.32613 0.09242 -0.03300
C 	C 	0.36080 0.32321 0.13200 -0.02600
H 	H 	0.30010 0.33410 0.08190 0.04000
C 	C 	0.33310 0.34010 0.12120 0.01700
O 	O 	0.34747 0.75293 0.55010 -0.41300
O 	O 	0.30479 0.78346 0.53787 -0.56300
C 	C 	0.32923 0.77694 0.55514 0.37000
C 	C 	0.33649 0.79873 0.58284 -0.10700
S 	S 	0.36974 0.79036 0.60739 0.03400
C 	C 	0.31850 0.82613 0.59242 -0.03300
C 	C 	0.36080 0.82321 0.63200 -0.02700
H 	H 	0.30010 0.83410 0.58190 0.04100
C 	C 	0.33310 0.84010 0.62120 0.01800
O 	O 	0.84747 0.25293 0.55010 -0.41200
O 	O 	0.80479 0.28346 0.53787 -0.56300
C 	C 	0.82923 0.27694 0.55514 0.37000
C 	C 	0.83649 0.29873 0.58284 -0.10700
S 	S 	0.86974 0.29036 0.60739 0.03500
C 	C 	0.81850 0.32613 0.59242 -0.03300
C 	C 	0.86080 0.32321 0.63200 -0.02700
H 	H 	0.80010 0.33410 0.58190 0.04100
C 	C 	0.83310 0.34010 0.62120 0.01800
O 	O 	0.84747 0.75293 0.05010 -0.41500
O 	O 	0.80479 0.78346 0.03787 -0.56600
C 	C 	0.82923 0.77694 0.05514 0.37000
C 	C 	0.83649 0.79873 0.08284 -0.10800
S 	S 	0.86974 0.79036 0.10739 0.03400
C 	C 	0.81850 0.82613 0.09242 -0.03300
C 	C 	0.86080 0.82321 0.13200 -0.02600
H 	H 	0.80010 0.83410 0.08190 0.04100
C 	C 	0.83310 0.84010 0.12120 0.01800
O 	O 	0.65253 0.74707 0.05010 -0.41600
O 	O 	0.69521 0.71654 0.03787 -0.56700
C 	C 	0.67077 0.72306 0.05514 0.37000
C 	C 	0.66351 0.70127 0.08284 -0.10900
S 	S 	0.63026 0.70964 0.10739 0.03200
C 	C 	0.68150 0.67387 0.09242 -0.03300
C 	C 	0.63920 0.67679 0.13200 -0.02600
H 	H 	0.69990 0.66590 0.08190 0.04000
C 	C 	0.66690 0.65990 0.12120 0.01700
O 	O 	0.65253 0.24707 0.55010 -0.41300
O 	O 	0.69521 0.21654 0.53787 -0.56400
C 	C 	0.67077 0.22306 0.55514 0.37000
C 	C 	0.66351 0.20127 0.58284 -0.10800
S 	S 	0.63026 0.20964 0.60739 0.03300
C 	C 	0.68150 0.17387 0.59242 -0.03300
C 	C 	0.63920 0.17679 0.63200 -0.02700
H 	H 	0.69990 0.16590 0.58190 0.04100
C 	C 	0.66690 0.15990 0.62120 0.01700
O 	O 	0.15253 0.74707 0.55010 -0.41400
O 	O 	0.19521 0.71654 0.53787 -0.56400
C 	C 	0.17077 0.72306 0.55514 0.37000
C 	C 	0.16351 0.70127 0.58284 -0.10800
S 	S 	0.13026 0.70964 0.60739 0.03200
C 	C 	0.18150 0.67387 0.59242 -0.03300
C 	C 	0.13920 0.67679 0.63200 -0.02600
H 	H 	0.19990 0.66590 0.58190 0.04100
C 	C 	0.16690 0.65990 0.62120 0.01800
O 	O 	0.15253 0.24707 0.05010 -0.41700
O 	O 	0.19521 0.21654 0.03787 -0.56700
C 	C 	0.17077 0.22306 0.05514 0.37000
C 	C 	0.16351 0.20127 0.08284 -0.10900
S 	S 	0.13026 0.20964 0.10739 0.03000
C 	C 	0.18150 0.17387 0.09242 -0.03300
C 	C 	0.13920 0.17679 0.13200 -0.02600
H 	H 	0.19990 0.16590 0.08190 0.04000
C 	C 	0.16690 0.15990 0.12120 0.01700
O 	O 	0.65253 0.25293 0.94990 -0.40900
O 	O 	0.69521 0.28346 0.96213 -0.55700
C 	C 	0.67077 0.27694 0.94486 0.36900
C 	C 	0.66351 0.29873 0.91716 -0.10600
S 	S 	0.63026 0.29036 0.89261 0.03500
C 	C 	0.68150 0.32613 0.90758 -0.03300
C 	C 	0.63920 0.32321 0.86800 -0.02700
H 	H 	0.69990 0.33410 0.91810 0.04200
C 	C 	0.66690 0.34010 0.87880 0.01900
O 	O 	0.65253 0.75293 0.44990 -0.41300
O 	O 	0.69521 0.78346 0.46213 -0.56300
C 	C 	0.67077 0.77694 0.44486 0.37000
C 	C 	0.66351 0.79873 0.41716 -0.10700
S 	S 	0.63026 0.79036 0.39261 0.03400
C 	C 	0.68150 0.82613 0.40758 -0.03300
C 	C 	0.63920 0.82321 0.36800 -0.02700
H 	H 	0.69990 0.83410 0.41810 0.04100
C 	C 	0.66690 0.84010 0.37880 0.01800
O 	O 	0.15253 0.25293 0.44990 -0.41400
O 	O 	0.19521 0.28346 0.46213 -0.56400
C 	C 	0.17077 0.27694 0.44486 0.37000
C 	C 	0.16351 0.29873 0.41716 -0.10800
S 	S 	0.13026 0.29036 0.39261 0.03200
C 	C 	0.18150 0.32613 0.40758 -0.03300
C 	C 	0.13920 0.32321 0.36800 -0.02600
H 	H 	0.19990 0.33410 0.41810 0.04100
C 	C 	0.16690 0.34010 0.37880 0.01800
O 	O 	0.15253 0.75293 0.94990 -0.40900
O 	O 	0.19521 0.78346 0.96213 -0.55700
C 	C 	0.17077 0.77694 0.94486 0.36900
C 	C 	0.16351 0.79873 0.91716 -0.10600
S 	S 	0.13026 0.79036 0.89261 0.03400
C 	C 	0.18150 0.82613 0.90758 -0.03300
C 	C 	0.13920 0.82321 0.86800 -0.02700
H 	H 	0.19990 0.83410 0.91810 0.04200
C 	C 	0.16690 0.84010 0.87880 0.01900
O 	O 	0.34747 0.74707 0.94990 -0.40800
O 	O 	0.30479 0.71654 0.96213 -0.55700
C 	C 	0.32923 0.72306 0.94486 0.36900
C 	C 	0.33649 0.70127 0.91716 -0.10600
S 	S 	0.36974 0.70964 0.89261 0.03500
C 	C 	0.31850 0.67387 0.90758 -0.03300
C 	C 	0.36080 0.67679 0.86800 -0.02700
H 	H 	0.30010 0.66590 0.91810 0.04200
C 	C 	0.33310 0.65990 0.87880 0.01900
O 	O 	0.34747 0.24707 0.44990 -0.41300
O 	O 	0.30479 0.21654 0.46213 -0.56400
C 	C 	0.32923 0.22306 0.44486 0.37000
C 	C 	0.33649 0.20127 0.41716 -0.10800
S 	S 	0.36974 0.20964 0.39261 0.03300
C 	C 	0.31850 0.17387 0.40758 -0.03300
C 	C 	0.36080 0.17679 0.36800 -0.02600
H 	H 	0.30010 0.16590 0.41810 0.04100
C 	C 	0.33310 0.15990 0.37880 0.01800
O 	O 	0.84747 0.74707 0.44990 -0.41200
O 	O 	0.80479 0.71654 0.46213 -0.56300
C 	C 	0.82923 0.72306 0.44486 0.37000
C 	C 	0.83649 0.70127 0.41716 -0.10700
S 	S 	0.86974 0.70964 0.39261 0.03500
C 	C 	0.81850 0.67387 0.40758 -0.03300
C 	C 	0.86080 0.67679 0.36800 -0.02700
H 	H 	0.80010 0.66590 0.41810 0.04100
C 	C 	0.83310 0.65990 0.37880 0.01800
O 	O 	0.84747 0.24707 0.94990 -0.40800
O 	O 	0.80479 0.21654 0.96213 -0.55700
C 	C 	0.82923 0.22306 0.94486 0.36900
C 	C 	0.83649 0.20127 0.91716 -0.10600
S 	S 	0.86974 0.20964 0.89261 0.03600
C 	C 	0.81850 0.17387 0.90758 -0.03300
C 	C 	0.86080 0.17679 0.86800 -0.02700
H 	H 	0.80010 0.16590 0.91810 0.04200
C 	C 	0.83310 0.15990 0.87880 0.01900
O 	O 	0.05010 0.34747 0.25293 -0.41600
O 	O 	0.03787 0.30479 0.28346 -0.56700
C 	C 	0.05514 0.32923 0.27694 0.37000
C 	C 	0.08284 0.33649 0.29873 -0.10800
S 	S 	0.10739 0.36974 0.29036 0.03200
C 	C 	0.09242 0.31850 0.32613 -0.03300
C 	C 	0.13200 0.36080 0.32321 -0.02600
H 	H 	0.08190 0.30010 0.33410 0.04000
C 	C 	0.12120 0.33310 0.34010 0.01700
O 	O 	0.05010 0.84747 0.75293 -0.41500
O 	O 	0.03787 0.80479 0.78346 -0.56600
C 	C 	0.05514 0.82923 0.77694 0.37000
C 	C 	0.08284 0.83649 0.79873 -0.10800
S 	S 	0.10739 0.86974 0.79036 0.03400
C 	C 	0.09242 0.81850 0.82613 -0.03300
C 	C 	0.13200 0.86080 0.82321 -0.02600
H 	H 	0.08190 0.80010 0.83410 0.04100
C 	C 	0.12120 0.83310 0.84010 0.01800
O 	O 	0.55010 0.34747 0.75293 -0.41300
O 	O 	0.53787 0.30479 0.78346 -0.56300
C 	C 	0.55514 0.32923 0.77694 0.37000
C 	C 	0.58284 0.33649 0.79873 -0.10700
S 	S 	0.60739 0.36974 0.79036 0.03400
C 	C 	0.59242 0.31850 0.82613 -0.03300
C 	C 	0.63200 0.36080 0.82321 -0.02700
H 	H 	0.58190 0.30010 0.83410 0.04100
C 	C 	0.62120 0.33310 0.84010 0.01800
O 	O 	0.55010 0.84747 0.25293 -0.41200
O 	O 	0.53787 0.80479 0.28346 -0.56300
C 	C 	0.55514 0.82923 0.27694 0.37000
C 	C 	0.58284 0.83649 0.29873 -0.10700
S 	S 	0.60739 0.86974 0.29036 0.03500
C 	C 	0.59242 0.81850 0.32613 -0.03300
C 	C 	0.63200 0.86080 0.32321 -0.02700
H 	H 	0.58190 0.80010 0.33410 0.04100
C 	C 	0.62120 0.83310 0.34010 0.01800
O 	O 	0.05010 0.65253 0.74707 -0.41600
O 	O 	0.03787 0.69521 0.71654 -0.56700
C 	C 	0.05514 0.67077 0.72306 0.37000
C 	C 	0.08284 0.66351 0.70127 -0.10900
S 	S 	0.10739 0.63026 0.70964 0.03200
C 	C 	0.09242 0.68150 0.67387 -0.03300
C 	C 	0.13200 0.63920 0.67679 -0.02600
H 	H 	0.08190 0.69990 0.66590 0.04000
C 	C 	0.12120 0.66690 0.65990 0.01700
O 	O 	0.05010 0.15253 0.24707 -0.41700
O 	O 	0.03787 0.19521 0.21654 -0.56700
C 	C 	0.05514 0.17077 0.22306 0.37000
C 	C 	0.08284 0.16351 0.20127 -0.10900
S 	S 	0.10739 0.13026 0.20964 0.03000
C 	C 	0.09242 0.18150 0.17387 -0.03300
C 	C 	0.13200 0.13920 0.17679 -0.02600
H 	H 	0.08190 0.19990 0.16590 0.04000
C 	C 	0.12120 0.16690 0.15990 0.01700
O 	O 	0.55010 0.65253 0.24707 -0.41300
O 	O 	0.53787 0.69521 0.21654 -0.56400
C 	C 	0.55514 0.67077 0.22306 0.37000
C 	C 	0.58284 0.66351 0.20127 -0.10800
S 	S 	0.60739 0.63026 0.20964 0.03300
C 	C 	0.59242 0.68150 0.17387 -0.03300
C 	C 	0.63200 0.63920 0.17679 -0.02700
H 	H 	0.58190 0.69990 0.16590 0.04100
C 	C 	0.62120 0.66690 0.15990 0.01700
O 	O 	0.55010 0.15253 0.74707 -0.41400
O 	O 	0.53787 0.19521 0.71654 -0.56400
C 	C 	0.55514 0.17077 0.72306 0.37000
C 	C 	0.58284 0.16351 0.70127 -0.10800
S 	S 	0.60739 0.13026 0.70964 0.03200
C 	C 	0.59242 0.18150 0.67387 -0.03300
C 	C 	0.63200 0.13920 0.67679 -0.02600
H 	H 	0.58190 0.19990 0.66590 0.04100
C 	C 	0.62120 0.16690 0.65990 0.01800
O 	O 	0.94990 0.65253 0.25293 -0.40900
O 	O 	0.96213 0.69521 0.28346 -0.55700
C 	C 	0.94486 0.67077 0.27694 0.36900
C 	C 	0.91716 0.66351 0.29873 -0.10600
S 	S 	0.89261 0.63026 0.29036 0.03500
C 	C 	0.90758 0.68150 0.32613 -0.03300
C 	C 	0.86800 0.63920 0.32321 -0.02700
H 	H 	0.91810 0.69990 0.33410 0.04200
C 	C 	0.87880 0.66690 0.34010 0.01900
O 	O 	0.94990 0.15253 0.75293 -0.40900
O 	O 	0.96213 0.19521 0.78346 -0.55700
C 	C 	0.94486 0.17077 0.77694 0.36900
C 	C 	0.91716 0.16351 0.79873 -0.10600
S 	S 	0.89261 0.13026 0.79036 0.03400
C 	C 	0.90758 0.18150 0.82613 -0.03300
C 	C 	0.86800 0.13920 0.82321 -0.02700
H 	H 	0.91810 0.19990 0.83410 0.04200
C 	C 	0.87880 0.16690 0.84010 0.01900
O 	O 	0.44990 0.65253 0.75293 -0.41300
O 	O 	0.46213 0.69521 0.78346 -0.56300
C 	C 	0.44486 0.67077 0.77694 0.37000
C 	C 	0.41716 0.66351 0.79873 -0.10700
S 	S 	0.39261 0.63026 0.79036 0.03400
C 	C 	0.40758 0.68150 0.82613 -0.03300
C 	C 	0.36800 0.63920 0.82321 -0.02700
H 	H 	0.41810 0.69990 0.83410 0.04100
C 	C 	0.37880 0.66690 0.84010 0.01800
O 	O 	0.44990 0.15253 0.25293 -0.41400
O 	O 	0.46213 0.19521 0.28346 -0.56400
C 	C 	0.44486 0.17077 0.27694 0.37000
C 	C 	0.41716 0.16351 0.29873 -0.10800
S 	S 	0.39261 0.13026 0.29036 0.03200
C 	C 	0.40758 0.18150 0.32613 -0.03300
C 	C 	0.36800 0.13920 0.32321 -0.02600
H 	H 	0.41810 0.19990 0.33410 0.04100
C 	C 	0.37880 0.16690 0.34010 0.01800
O 	O 	0.94990 0.34747 0.74707 -0.40800
O 	O 	0.96213 0.30479 0.71654 -0.55700
C 	C 	0.94486 0.32923 0.72306 0.36900
C 	C 	0.91716 0.33649 0.70127 -0.10600
S 	S 	0.89261 0.36974 0.70964 0.03500
C 	C 	0.90758 0.31850 0.67387 -0.03300
C 	C 	0.86800 0.36080 0.67679 -0.02700
H 	H 	0.91810 0.30010 0.66590 0.04200
C 	C 	0.87880 0.33310 0.65990 0.01900
O 	O 	0.94990 0.84747 0.24707 -0.40800
O 	O 	0.96213 0.80479 0.21654 -0.55700
C 	C 	0.94486 0.82923 0.22306 0.36900
C 	C 	0.91716 0.83649 0.20127 -0.10600
S 	S 	0.89261 0.86974 0.20964 0.03600
C 	C 	0.90758 0.81850 0.17387 -0.03300
C 	C 	0.86800 0.86080 0.17679 -0.02700
H 	H 	0.91810 0.80010 0.16590 0.04200
C 	C 	0.87880 0.83310 0.15990 0.01900
O 	O 	0.44990 0.34747 0.24707 -0.41300
O 	O 	0.46213 0.30479 0.21654 -0.56400
C 	C 	0.44486 0.32923 0.22306 0.37000
C 	C 	0.41716 0.33649 0.20127 -0.10800
S 	S 	0.39261 0.36974 0.20964 0.03300
C 	C 	0.40758 0.31850 0.17387 -0.03300
C 	C 	0.36800 0.36080 0.17679 -0.02600
H 	H 	0.41810 0.30010 0.16590 0.04100
C 	C 	0.37880 0.33310 0.15990 0.01800
O 	O 	0.44990 0.84747 0.74707 -0.41200
O 	O 	0.46213 0.80479 0.71654 -0.56300
C 	C 	0.44486 0.82923 0.72306 0.37000
C 	C 	0.41716 0.83649 0.70127 -0.10700
S 	S 	0.39261 0.86974 0.70964 0.03500
C 	C 	0.40758 0.81850 0.67387 -0.03300
C 	C 	0.36800 0.86080 0.67679 -0.02700
H 	H 	0.41810 0.80010 0.66590 0.04100
C 	C 	0.37880 0.83310 0.65990 0.01800
O 	O 	0.25293 0.05010 0.34747 -0.41600
O 	O 	0.28346 0.03787 0.30479 -0.56700
C 	C 	0.27694 0.05514 0.32923 0.37000
C 	C 	0.29873 0.08284 0.33649 -0.10800
S 	S 	0.29036 0.10739 0.36974 0.03200
C 	C 	0.32613 0.09242 0.31850 -0.03300
C 	C 	0.32321 0.13200 0.36080 -0.02600
H 	H 	0.33410 0.08190 0.30010 0.04000
C 	C 	0.34010 0.12120 0.33310 0.01700
O 	O 	0.25293 0.55010 0.84747 -0.41200
O 	O 	0.28346 0.53787 0.80479 -0.56300
C 	C 	0.27694 0.55514 0.82923 0.37000
C 	C 	0.29873 0.58284 0.83649 -0.10700
S 	S 	0.29036 0.60739 0.86974 0.03500
C 	C 	0.32613 0.59242 0.81850 -0.03300
C 	C 	0.32321 0.63200 0.86080 -0.02700
H 	H 	0.33410 0.58190 0.80010 0.04100
C 	C 	0.34010 0.62120 0.83310 0.01800
O 	O 	0.75293 0.05010 0.84747 -0.41500
O 	O 	0.78346 0.03787 0.80479 -0.56600
C 	C 	0.77694 0.05514 0.82923 0.37000
C 	C 	0.79873 0.08284 0.83649 -0.10800
S 	S 	0.79036 0.10739 0.86974 0.03400
C 	C 	0.82613 0.09242 0.81850 -0.03300
C 	C 	0.82321 0.13200 0.86080 -0.02600
H 	H 	0.83410 0.08190 0.80010 0.04100
C 	C 	0.84010 0.12120 0.83310 0.01800
O 	O 	0.75293 0.55010 0.34747 -0.41300
O 	O 	0.78346 0.53787 0.30479 -0.56300
C 	C 	0.77694 0.55514 0.32923 0.37000
C 	C 	0.79873 0.58284 0.33649 -0.10700
S 	S 	0.79036 0.60739 0.36974 0.03400
C 	C 	0.82613 0.59242 0.31850 -0.03300
C 	C 	0.82321 0.63200 0.36080 -0.02700
H 	H 	0.83410 0.58190 0.30010 0.04100
C 	C 	0.84010 0.62120 0.33310 0.01800
O 	O 	0.74707 0.05010 0.65253 -0.41600
O 	O 	0.71654 0.03787 0.69521 -0.56700
C 	C 	0.72306 0.05514 0.67077 0.37000
C 	C 	0.70127 0.08284 0.66351 -0.10900
S 	S 	0.70964 0.10739 0.63026 0.03200
C 	C 	0.67387 0.09242 0.68150 -0.03300
C 	C 	0.67679 0.13200 0.63920 -0.02600
H 	H 	0.66590 0.08190 0.69990 0.04000
C 	C 	0.65990 0.12120 0.66690 0.01700
O 	O 	0.74707 0.55010 0.15253 -0.41400
O 	O 	0.71654 0.53787 0.19521 -0.56400
C 	C 	0.72306 0.55514 0.17077 0.37000
C 	C 	0.70127 0.58284 0.16351 -0.10800
S 	S 	0.70964 0.60739 0.13026 0.03200
C 	C 	0.67387 0.59242 0.18150 -0.03300
C 	C 	0.67679 0.63200 0.13920 -0.02600
H 	H 	0.66590 0.58190 0.19990 0.04100
C 	C 	0.65990 0.62120 0.16690 0.01800
O 	O 	0.24707 0.05010 0.15253 -0.41700
O 	O 	0.21654 0.03787 0.19521 -0.56700
C 	C 	0.22306 0.05514 0.17077 0.37000
C 	C 	0.20127 0.08284 0.16351 -0.10900
S 	S 	0.20964 0.10739 0.13026 0.03000
C 	C 	0.17387 0.09242 0.18150 -0.03300
C 	C 	0.17679 0.13200 0.13920 -0.02600
H 	H 	0.16590 0.08190 0.19990 0.04000
C 	C 	0.15990 0.12120 0.16690 0.01700
O 	O 	0.24707 0.55010 0.65253 -0.41300
O 	O 	0.21654 0.53787 0.69521 -0.56400
C 	C 	0.22306 0.55514 0.67077 0.37000
C 	C 	0.20127 0.58284 0.66351 -0.10800
S 	S 	0.20964 0.60739 0.63026 0.03300
C 	C 	0.17387 0.59242 0.68150 -0.03300
C 	C 	0.17679 0.63200 0.63920 -0.02700
H 	H 	0.16590 0.58190 0.69990 0.04100
C 	C 	0.15990 0.62120 0.66690 0.01700
O 	O 	0.25293 0.94990 0.65253 -0.40900
O 	O 	0.28346 0.96213 0.69521 -0.55700
C 	C 	0.27694 0.94486 0.67077 0.36900
C 	C 	0.29873 0.91716 0.66351 -0.10600
S 	S 	0.29036 0.89261 0.63026 0.03500
C 	C 	0.32613 0.90758 0.68150 -0.03300
C 	C 	0.32321 0.86800 0.63920 -0.02700
H 	H 	0.33410 0.91810 0.69990 0.04200
C 	C 	0.34010 0.87880 0.66690 0.01900
O 	O 	0.25293 0.44990 0.15253 -0.41400
O 	O 	0.28346 0.46213 0.19521 -0.56400
C 	C 	0.27694 0.44486 0.17077 0.37000
C 	C 	0.29873 0.41716 0.16351 -0.10800
S 	S 	0.29036 0.39261 0.13026 0.03200
C 	C 	0.32613 0.40758 0.18150 -0.03300
C 	C 	0.32321 0.36800 0.13920 -0.02600
H 	H 	0.33410 0.41810 0.19990 0.04100
C 	C 	0.34010 0.37880 0.16690 0.01800
O 	O 	0.75293 0.94990 0.15253 -0.40900
O 	O 	0.78346 0.96213 0.19521 -0.55700
C 	C 	0.77694 0.94486 0.17077 0.36900
C 	C 	0.79873 0.91716 0.16351 -0.10600
S 	S 	0.79036 0.89261 0.13026 0.03400
C 	C 	0.82613 0.90758 0.18150 -0.03300
C 	C 	0.82321 0.86800 0.13920 -0.02700
H 	H 	0.83410 0.91810 0.19990 0.04200
C 	C 	0.84010 0.87880 0.16690 0.01900
O 	O 	0.75293 0.44990 0.65253 -0.41300
O 	O 	0.78346 0.46213 0.69521 -0.56300
C 	C 	0.77694 0.44486 0.67077 0.37000
C 	C 	0.79873 0.41716 0.66351 -0.10700
S 	S 	0.79036 0.39261 0.63026 0.03400
C 	C 	0.82613 0.40758 0.68150 -0.03300
C 	C 	0.82321 0.36800 0.63920 -0.02700
H 	H 	0.83410 0.41810 0.69990 0.04100
C 	C 	0.84010 0.37880 0.66690 0.01800
O 	O 	0.74707 0.94990 0.34747 -0.40800
O 	O 	0.71654 0.96213 0.30479 -0.55700
C 	C 	0.72306 0.94486 0.32923 0.36900
C 	C 	0.70127 0.91716 0.33649 -0.10600
S 	S 	0.70964 0.89261 0.36974 0.03500
C 	C 	0.67387 0.90758 0.31850 -0.03300
C 	C 	0.67679 0.86800 0.36080 -0.02700
H 	H 	0.66590 0.91810 0.30010 0.04200
C 	C 	0.65990 0.87880 0.33310 0.01900
O 	O 	0.74707 0.44990 0.84747 -0.41200
O 	O 	0.71654 0.46213 0.80479 -0.56300
C 	C 	0.72306 0.44486 0.82923 0.37000
C 	C 	0.70127 0.41716 0.83649 -0.10700
S 	S 	0.70964 0.39261 0.86974 0.03500
C 	C 	0.67387 0.40758 0.81850 -0.03300
C 	C 	0.67679 0.36800 0.86080 -0.02700
H 	H 	0.66590 0.41810 0.80010 0.04100
C 	C 	0.65990 0.37880 0.83310 0.01800
O 	O 	0.24707 0.94990 0.84747 -0.40800
O 	O 	0.21654 0.96213 0.80479 -0.55700
C 	C 	0.22306 0.94486 0.82923 0.36900
C 	C 	0.20127 0.91716 0.83649 -0.10600
S 	S 	0.20964 0.89261 0.86974 0.03600
C 	C 	0.17387 0.90758 0.81850 -0.03300
C 	C 	0.17679 0.86800 0.86080 -0.02700
H 	H 	0.16590 0.91810 0.80010 0.04200
C 	C 	0.15990 0.87880 0.83310 0.01900
O 	O 	0.24707 0.44990 0.34747 -0.41300
O 	O 	0.21654 0.46213 0.30479 -0.56400
C 	C 	0.22306 0.44486 0.32923 0.37000
C 	C 	0.20127 0.41716 0.33649 -0.10800
S 	S 	0.20964 0.39261 0.36974 0.03300
C 	C 	0.17387 0.40758 0.31850 -0.03300
C 	C 	0.17679 0.36800 0.36080 -0.02600
H 	H 	0.16590 0.41810 0.30010 0.04100
C 	C 	0.15990 0.37880 0.33310 0.01800
O 	O 	0.75293 0.84747 0.44990 -0.41200
O 	O 	0.78346 0.80479 0.46213 -0.56300
C 	C 	0.77694 0.82923 0.44486 0.37000
C 	C 	0.79873 0.83649 0.41716 -0.10700
S 	S 	0.79036 0.86974 0.39261 0.03500
C 	C 	0.82613 0.81850 0.40758 -0.03300
C 	C 	0.82321 0.86080 0.36800 -0.02700
H 	H 	0.83410 0.80010 0.41810 0.04100
C 	C 	0.84010 0.83310 0.37880 0.01900
O 	O 	0.75293 0.34747 0.94990 -0.40800
O 	O 	0.78346 0.30479 0.96213 -0.55700
C 	C 	0.77694 0.32923 0.94486 0.36900
C 	C 	0.79873 0.33649 0.91716 -0.10600
S 	S 	0.79036 0.36974 0.89261 0.03500
C 	C 	0.82613 0.31850 0.90758 -0.03300
C 	C 	0.82321 0.36080 0.86800 -0.02700
H 	H 	0.83410 0.30010 0.91810 0.04200
C 	C 	0.84010 0.33310 0.87880 0.01900
O 	O 	0.25293 0.84747 0.94990 -0.40800
O 	O 	0.28346 0.80479 0.96213 -0.55700
C 	C 	0.27694 0.82923 0.94486 0.36900
C 	C 	0.29873 0.83649 0.91716 -0.10600
S 	S 	0.29036 0.86974 0.89261 0.03700
C 	C 	0.32613 0.81850 0.90758 -0.03300
C 	C 	0.32321 0.86080 0.86800 -0.02700
H 	H 	0.33410 0.80010 0.91810 0.04200
C 	C 	0.34010 0.83310 0.87880 0.01900
O 	O 	0.25293 0.34747 0.44990 -0.41300
O 	O 	0.28346 0.30479 0.46213 -0.56300
C 	C 	0.27694 0.32923 0.44486 0.37000
C 	C 	0.29873 0.33649 0.41716 -0.10800
S 	S 	0.29036 0.36974 0.39261 0.03400
C 	C 	0.32613 0.31850 0.40758 -0.03300
C 	C 	0.32321 0.36080 0.36800 -0.02600
H 	H 	0.33410 0.30010 0.41810 0.04100
C 	C 	0.34010 0.33310 0.37880 0.01800
O 	O 	0.24707 0.15253 0.44990 -0.41400
O 	O 	0.21654 0.19521 0.46213 -0.56400
C 	C 	0.22306 0.17077 0.44486 0.37000
C 	C 	0.20127 0.16351 0.41716 -0.10800
S 	S 	0.20964 0.13026 0.39261 0.03200
C 	C 	0.17387 0.18150 0.40758 -0.03300
C 	C 	0.17679 0.13920 0.36800 -0.02600
H 	H 	0.16590 0.19990 0.41810 0.04100
C 	C 	0.15990 0.16690 0.37880 0.01700
O 	O 	0.24707 0.65253 0.94990 -0.40900
O 	O 	0.21654 0.69521 0.96213 -0.55700
C 	C 	0.22306 0.67077 0.94486 0.36900
C 	C 	0.20127 0.66351 0.91716 -0.10600
S 	S 	0.20964 0.63026 0.89261 0.03500
C 	C 	0.17387 0.68150 0.90758 -0.03300
C 	C 	0.17679 0.63920 0.86800 -0.02700
H 	H 	0.16590 0.69990 0.91810 0.04200
C 	C 	0.15990 0.66690 0.87880 0.01800
O 	O 	0.74707 0.15253 0.94990 -0.40900
O 	O 	0.71654 0.19521 0.96213 -0.55700
C 	C 	0.72306 0.17077 0.94486 0.36900
C 	C 	0.70127 0.16351 0.91716 -0.10600
S 	S 	0.70964 0.13026 0.89261 0.03400
C 	C 	0.67387 0.18150 0.90758 -0.03300
C 	C 	0.67679 0.13920 0.86800 -0.02700
H 	H 	0.66590 0.19990 0.91810 0.04200
C 	C 	0.65990 0.16690 0.87880 0.01800
O 	O 	0.74707 0.65253 0.44990 -0.41300
O 	O 	0.71654 0.69521 0.46213 -0.56400
C 	C 	0.72306 0.67077 0.44486 0.37000
C 	C 	0.70127 0.66351 0.41716 -0.10800
S 	S 	0.70964 0.63026 0.39261 0.03300
C 	C 	0.67387 0.68150 0.40758 -0.03300
C 	C 	0.67679 0.63920 0.36800 -0.02700
H 	H 	0.66590 0.69990 0.41810 0.04100
C 	C 	0.65990 0.66690 0.37880 0.01800
O 	O 	0.75293 0.15253 0.55010 -0.41400
O 	O 	0.78346 0.19521 0.53787 -0.56400
C 	C 	0.77694 0.17077 0.55514 0.37000
C 	C 	0.79873 0.16351 0.58284 -0.10800
S 	S 	0.79036 0.13026 0.60739 0.03200
C 	C 	0.82613 0.18150 0.59242 -0.03300
C 	C 	0.82321 0.13920 0.63200 -0.02600
H 	H 	0.83410 0.19990 0.58190 0.04100
C 	C 	0.84010 0.16690 0.62120 0.01800
O 	O 	0.75293 0.65253 0.05010 -0.41600
O 	O 	0.78346 0.69521 0.03787 -0.56600
C 	C 	0.77694 0.67077 0.05514 0.37000
C 	C 	0.79873 0.66351 0.08284 -0.10800
S 	S 	0.79036 0.63026 0.10739 0.03200
C 	C 	0.82613 0.68150 0.09242 -0.03300
C 	C 	0.82321 0.63920 0.13200 -0.02600
H 	H 	0.83410 0.69990 0.08190 0.04000
C 	C 	0.84010 0.66690 0.12120 0.01800
O 	O 	0.25293 0.15253 0.05010 -0.41700
O 	O 	0.28346 0.19521 0.03787 -0.56700
C 	C 	0.27694 0.17077 0.05514 0.37000
C 	C 	0.29873 0.16351 0.08284 -0.10900
S 	S 	0.29036 0.13026 0.10739 0.03100
C 	C 	0.32613 0.18150 0.09242 -0.03300
C 	C 	0.32321 0.13920 0.13200 -0.02600
H 	H 	0.33410 0.19990 0.08190 0.04000
C 	C 	0.34010 0.16690 0.12120 0.01700
O 	O 	0.25293 0.65253 0.55010 -0.41300
O 	O 	0.28346 0.69521 0.53787 -0.56400
C 	C 	0.27694 0.67077 0.55514 0.37000
C 	C 	0.29873 0.66351 0.58284 -0.10800
S 	S 	0.29036 0.63026 0.60739 0.03300
C 	C 	0.32613 0.68150 0.59242 -0.03300
C 	C 	0.32321 0.63920 0.63200 -0.02700
H 	H 	0.33410 0.69990 0.58190 0.04100
C 	C 	0.34010 0.66690 0.62120 0.01800
O 	O 	0.24707 0.84747 0.55010 -0.41200
O 	O 	0.21654 0.80479 0.53787 -0.56300
C 	C 	0.22306 0.82923 0.55514 0.37000
C 	C 	0.20127 0.83649 0.58284 -0.10800
S 	S 	0.20964 0.86974 0.60739 0.03500
C 	C 	0.17387 0.81850 0.59242 -0.03300
C 	C 	0.17679 0.86080 0.63200 -0.02700
H 	H 	0.16590 0.80010 0.58190 0.04100
C 	C 	0.15990 0.83310 0.62120 0.01800
O 	O 	0.24707 0.34747 0.05010 -0.41600
O 	O 	0.21654 0.30479 0.03787 -0.56700
C 	C 	0.22306 0.32923 0.05514 0.37000
C 	C 	0.20127 0.33649 0.08284 -0.10900
S 	S 	0.20964 0.36974 0.10739 0.03200
C 	C 	0.17387 0.31850 0.09242 -0.03300
C 	C 	0.17679 0.36080 0.13200 -0.02600
H 	H 	0.16590 0.30010 0.08190 0.04000
C 	C 	0.15990 0.33310 0.12120 0.01700
O 	O 	0.74707 0.84747 0.05010 -0.41500
O 	O 	0.71654 0.80479 0.03787 -0.56600
C 	C 	0.72306 0.82923 0.05514 0.37000
C 	C 	0.70127 0.83649 0.08284 -0.10800
S 	S 	0.70964 0.86974 0.10739 0.03400
C 	C 	0.67387 0.81850 0.09242 -0.03300
C 	C 	0.67679 0.86080 0.13200 -0.02700
H 	H 	0.66590 0.80010 0.08190 0.04000
C 	C 	0.65990 0.83310 0.12120 0.01800
O 	O 	0.74707 0.34747 0.55010 -0.41300
O 	O 	0.71654 0.30479 0.53787 -0.56300
C 	C 	0.72306 0.32923 0.55514 0.37000
C 	C 	0.70127 0.33649 0.58284 -0.10800
S 	S 	0.70964 0.36974 0.60739 0.03300
C 	C 	0.67387 0.31850 0.59242 -0.03300
C 	C 	0.67679 0.36080 0.63200 -0.02700
H 	H 	0.66590 0.30010 0.58190 0.04100
C 	C 	0.65990 0.33310 0.62120 0.01800
O 	O 	0.84747 0.55010 0.24707 -0.41200
O 	O 	0.80479 0.53787 0.21654 -0.56300
C 	C 	0.82923 0.55514 0.22306 0.37000
C 	C 	0.83649 0.58284 0.20127 -0.10800
S 	S 	0.86974 0.60739 0.20964 0.03500
C 	C 	0.81850 0.59242 0.17387 -0.03300
C 	C 	0.86080 0.63200 0.17679 -0.02700
H 	H 	0.80010 0.58190 0.16590 0.04100
C 	C 	0.83310 0.62120 0.15990 0.01800
O 	O 	0.84747 0.05010 0.74707 -0.41500
O 	O 	0.80479 0.03787 0.71654 -0.56600
C 	C 	0.82923 0.05514 0.72306 0.37000
C 	C 	0.83649 0.08284 0.70127 -0.10800
S 	S 	0.86974 0.10739 0.70964 0.03400
C 	C 	0.81850 0.09242 0.67387 -0.03300
C 	C 	0.86080 0.13200 0.67679 -0.02700
H 	H 	0.80010 0.08190 0.66590 0.04000
C 	C 	0.83310 0.12120 0.65990 0.01800
O 	O 	0.34747 0.55010 0.74707 -0.41300
O 	O 	0.30479 0.53787 0.71654 -0.56300
C 	C 	0.32923 0.55514 0.72306 0.37000
C 	C 	0.33649 0.58284 0.70127 -0.10800
S 	S 	0.36974 0.60739 0.70964 0.03300
C 	C 	0.31850 0.59242 0.67387 -0.03300
C 	C 	0.36080 0.63200 0.67679 -0.02700
H 	H 	0.30010 0.58190 0.66590 0.04100
C 	C 	0.33310 0.62120 0.65990 0.01800
O 	O 	0.34747 0.05010 0.24707 -0.41600
O 	O 	0.30479 0.03787 0.21654 -0.56700
C 	C 	0.32923 0.05514 0.22306 0.37000
C 	C 	0.33649 0.08284 0.20127 -0.10900
S 	S 	0.36974 0.10739 0.20964 0.03200
C 	C 	0.31850 0.09242 0.17387 -0.03300
C 	C 	0.36080 0.13200 0.17679 -0.02600
H 	H 	0.30010 0.08190 0.16590 0.04000
C 	C 	0.33310 0.12120 0.15990 0.01700
O 	O 	0.15253 0.55010 0.75293 -0.41400
O 	O 	0.19521 0.53787 0.78346 -0.56400
C 	C 	0.17077 0.55514 0.77694 0.37000
C 	C 	0.16351 0.58284 0.79873 -0.10800
S 	S 	0.13026 0.60739 0.79036 0.03200
C 	C 	0.18150 0.59242 0.82613 -0.03300
C 	C 	0.13920 0.63200 0.82321 -0.02600
H 	H 	0.19990 0.58190 0.83410 0.04100
C 	C 	0.16690 0.62120 0.84010 0.01800
O 	O 	0.15253 0.05010 0.25293 -0.41700
O 	O 	0.19521 0.03787 0.28346 -0.56700
C 	C 	0.17077 0.05514 0.27694 0.37000
C 	C 	0.16351 0.08284 0.29873 -0.10900
S 	S 	0.13026 0.10739 0.29036 0.03100
C 	C 	0.18150 0.09242 0.32613 -0.03300
C 	C 	0.13920 0.13200 0.32321 -0.02600
H 	H 	0.19990 0.08190 0.33410 0.04000
C 	C 	0.16690 0.12120 0.34010 0.01700
O 	O 	0.65253 0.55010 0.25293 -0.41300
O 	O 	0.69521 0.53787 0.28346 -0.56400
C 	C 	0.67077 0.55514 0.27694 0.37000
C 	C 	0.66351 0.58284 0.29873 -0.10800
S 	S 	0.63026 0.60739 0.29036 0.03300
C 	C 	0.68150 0.59242 0.32613 -0.03300
C 	C 	0.63920 0.63200 0.32321 -0.02700
H 	H 	0.69990 0.58190 0.33410 0.04100
C 	C 	0.66690 0.62120 0.34010 0.01800
O 	O 	0.65253 0.05010 0.75293 -0.41600
O 	O 	0.69521 0.03787 0.78346 -0.56600
C 	C 	0.67077 0.05514 0.77694 0.37000
C 	C 	0.66351 0.08284 0.79873 -0.10800
S 	S 	0.63026 0.10739 0.79036 0.03200
C 	C 	0.68150 0.09242 0.82613 -0.03300
C 	C 	0.63920 0.13200 0.82321 -0.02600
H 	H 	0.69990 0.08190 0.83410 0.04000
C 	C 	0.66690 0.12120 0.84010 0.01800
O 	O 	0.15253 0.44990 0.24707 -0.41400
O 	O 	0.19521 0.46213 0.21654 -0.56400
C 	C 	0.17077 0.44486 0.22306 0.37000
C 	C 	0.16351 0.41716 0.20127 -0.10800
S 	S 	0.13026 0.39261 0.20964 0.03200
C 	C 	0.18150 0.40758 0.17387 -0.03300
C 	C 	0.13920 0.36800 0.17679 -0.02600
H 	H 	0.19990 0.41810 0.16590 0.04100
C 	C 	0.16690 0.37880 0.15990 0.01700
O 	O 	0.15253 0.94990 0.74707 -0.40900
O 	O 	0.19521 0.96213 0.71654 -0.55700
C 	C 	0.17077 0.94486 0.72306 0.36900
C 	C 	0.16351 0.91716 0.70127 -0.10600
S 	S 	0.13026 0.89261 0.70964 0.03400
C 	C 	0.18150 0.90758 0.67387 -0.03300
C 	C 	0.13920 0.86800 0.67679 -0.02700
H 	H 	0.19990 0.91810 0.66590 0.04200
C 	C 	0.16690 0.87880 0.65990 0.01800
O 	O 	0.65253 0.44990 0.74707 -0.41300
O 	O 	0.69521 0.46213 0.71654 -0.56400
C 	C 	0.67077 0.44486 0.72306 0.37000
C 	C 	0.66351 0.41716 0.70127 -0.10800
S 	S 	0.63026 0.39261 0.70964 0.03300
C 	C 	0.68150 0.40758 0.67387 -0.03300
C 	C 	0.63920 0.36800 0.67679 -0.02700
H 	H 	0.69990 0.41810 0.66590 0.04100
C 	C 	0.66690 0.37880 0.65990 0.01800
O 	O 	0.65253 0.94990 0.24707 -0.40900
O 	O 	0.69521 0.96213 0.21654 -0.55700
C 	C 	0.67077 0.94486 0.22306 0.36900
C 	C 	0.66351 0.91716 0.20127 -0.10600
S 	S 	0.63026 0.89261 0.20964 0.03500
C 	C 	0.68150 0.90758 0.17387 -0.03300
C 	C 	0.63920 0.86800 0.17679 -0.02700
H 	H 	0.69990 0.91810 0.16590 0.04200
C 	C 	0.66690 0.87880 0.15990 0.01800
O 	O 	0.84747 0.44990 0.75293 -0.41200
O 	O 	0.80479 0.46213 0.78346 -0.56300
C 	C 	0.82923 0.44486 0.77694 0.37000
C 	C 	0.83649 0.41716 0.79873 -0.10700
S 	S 	0.86974 0.39261 0.79036 0.03500
C 	C 	0.81850 0.40758 0.82613 -0.03300
C 	C 	0.86080 0.36800 0.82321 -0.02700
H 	H 	0.80010 0.41810 0.83410 0.04100
C 	C 	0.83310 0.37880 0.84010 0.01900
O 	O 	0.84747 0.94990 0.25293 -0.40800
O 	O 	0.80479 0.96213 0.28346 -0.55700
C 	C 	0.82923 0.94486 0.27694 0.36900
C 	C 	0.83649 0.91716 0.29873 -0.10600
S 	S 	0.86974 0.89261 0.29036 0.03700
C 	C 	0.81850 0.90758 0.32613 -0.03300
C 	C 	0.86080 0.86800 0.32321 -0.02700
H 	H 	0.80010 0.91810 0.33410 0.04200
C 	C 	0.83310 0.87880 0.34010 0.01900
O 	O 	0.34747 0.44990 0.25293 -0.41300
O 	O 	0.30479 0.46213 0.28346 -0.56300
C 	C 	0.32923 0.44486 0.27694 0.37000
C 	C 	0.33649 0.41716 0.29873 -0.10800
S 	S 	0.36974 0.39261 0.29036 0.03400
C 	C 	0.31850 0.40758 0.32613 -0.03300
C 	C 	0.36080 0.36800 0.32321 -0.02600
H 	H 	0.30010 0.41810 0.33410 0.04100
C 	C 	0.33310 0.37880 0.34010 0.01800
O 	O 	0.34747 0.94990 0.75293 -0.40800
O 	O 	0.30479 0.96213 0.78346 -0.55700
C 	C 	0.32923 0.94486 0.77694 0.36900
C 	C 	0.33649 0.91716 0.79873 -0.10600
S 	S 	0.36974 0.89261 0.79036 0.03500
C 	C 	0.31850 0.90758 0.82613 -0.03300
C 	C 	0.36080 0.86800 0.82321 -0.02700
H 	H 	0.30010 0.91810 0.83410 0.04200
C 	C 	0.33310 0.87880 0.84010 0.01900
O 	O 	0.55010 0.75293 0.15253 -0.41400
O 	O 	0.53787 0.78346 0.19521 -0.56400
C 	C 	0.55514 0.77694 0.17077 0.37000
C 	C 	0.58284 0.79873 0.16351 -0.10800
S 	S 	0.60739 0.79036 0.13026 0.03200
C 	C 	0.59242 0.82613 0.18150 -0.03300
C 	C 	0.63200 0.82321 0.13920 -0.02600
H 	H 	0.58190 0.83410 0.19990 0.04100
C 	C 	0.62120 0.84010 0.16690 0.01800
O 	O 	0.55010 0.25293 0.65253 -0.41300
O 	O 	0.53787 0.28346 0.69521 -0.56400
C 	C 	0.55514 0.27694 0.67077 0.37000
C 	C 	0.58284 0.29873 0.66351 -0.10800
S 	S 	0.60739 0.29036 0.63026 0.03300
C 	C 	0.59242 0.32613 0.68150 -0.03300
C 	C 	0.63200 0.32321 0.63920 -0.02700
H 	H 	0.58190 0.33410 0.69990 0.04100
C 	C 	0.62120 0.34010 0.66690 0.01800
O 	O 	0.05010 0.75293 0.65253 -0.41600
O 	O 	0.03787 0.78346 0.69521 -0.56600
C 	C 	0.05514 0.77694 0.67077 0.37000
C 	C 	0.08284 0.79873 0.66351 -0.10800
S 	S 	0.10739 0.79036 0.63026 0.03200
C 	C 	0.09242 0.82613 0.68150 -0.03300
C 	C 	0.13200 0.82321 0.63920 -0.02600
H 	H 	0.08190 0.83410 0.69990 0.04000
C 	C 	0.12120 0.84010 0.66690 0.01800
O 	O 	0.05010 0.25293 0.15253 -0.41700
O 	O 	0.03787 0.28346 0.19521 -0.56700
C 	C 	0.05514 0.27694 0.17077 0.37000
C 	C 	0.08284 0.29873 0.16351 -0.10900
S 	S 	0.10739 0.29036 0.13026 0.03100
C 	C 	0.09242 0.32613 0.18150 -0.03300
C 	C 	0.13200 0.32321 0.13920 -0.02600
H 	H 	0.08190 0.33410 0.19990 0.04000
C 	C 	0.12120 0.34010 0.16690 0.01700
O 	O 	0.55010 0.24707 0.84747 -0.41200
O 	O 	0.53787 0.21654 0.80479 -0.56300
C 	C 	0.55514 0.22306 0.82923 0.37000
C 	C 	0.58284 0.20127 0.83649 -0.10800
S 	S 	0.60739 0.20964 0.86974 0.03500
C 	C 	0.59242 0.17387 0.81850 -0.03300
C 	C 	0.63200 0.17679 0.86080 -0.02700
H 	H 	0.58190 0.16590 0.80010 0.04100
C 	C 	0.62120 0.15990 0.83310 0.01800
O 	O 	0.55010 0.74707 0.34747 -0.41300
O 	O 	0.53787 0.71654 0.30479 -0.56300
C 	C 	0.55514 0.72306 0.32923 0.37000
C 	C 	0.58284 0.70127 0.33649 -0.10800
S 	S 	0.60739 0.70964 0.36974 0.03300
C 	C 	0.59242 0.67387 0.31850 -0.03300
C 	C 	0.63200 0.67679 0.36080 -0.02700
H 	H 	0.58190 0.66590 0.30010 0.04100
C 	C 	0.62120 0.65990 0.33310 0.01800
O 	O 	0.05010 0.24707 0.34747 -0.41600
O 	O 	0.03787 0.21654 0.30479 -0.56700
C 	C 	0.05514 0.22306 0.32923 0.37000
C 	C 	0.08284 0.20127 0.33649 -0.10900
S 	S 	0.10739 0.20964 0.36974 0.03200
C 	C 	0.09242 0.17387 0.31850 -0.03300
C 	C 	0.13200 0.17679 0.36080 -0.02600
H 	H 	0.08190 0.16590 0.30010 0.04000
C 	C 	0.12120 0.15990 0.33310 0.01700
O 	O 	0.05010 0.74707 0.84747 -0.41500
O 	O 	0.03787 0.71654 0.80479 -0.56600
C 	C 	0.05514 0.72306 0.82923 0.37000
C 	C 	0.08284 0.70127 0.83649 -0.10800
S 	S 	0.10739 0.70964 0.86974 0.03400
C 	C 	0.09242 0.67387 0.81850 -0.03300
C 	C 	0.13200 0.67679 0.86080 -0.02700
H 	H 	0.08190 0.66590 0.80010 0.04000
C 	C 	0.12120 0.65990 0.83310 0.01800
O 	O 	0.44990 0.75293 0.84747 -0.41200
O 	O 	0.46213 0.78346 0.80479 -0.56300
C 	C 	0.44486 0.77694 0.82923 0.37000
C 	C 	0.41716 0.79873 0.83649 -0.10700
S 	S 	0.39261 0.79036 0.86974 0.03500
C 	C 	0.40758 0.82613 0.81850 -0.03300
C 	C 	0.36800 0.82321 0.86080 -0.02700
H 	H 	0.41810 0.83410 0.80010 0.04100
C 	C 	0.37880 0.84010 0.83310 0.01900
O 	O 	0.44990 0.25293 0.34747 -0.41300
O 	O 	0.46213 0.28346 0.30479 -0.56300
C 	C 	0.44486 0.27694 0.32923 0.37000
C 	C 	0.41716 0.29873 0.33649 -0.10800
S 	S 	0.39261 0.29036 0.36974 0.03400
C 	C 	0.40758 0.32613 0.31850 -0.03300
C 	C 	0.36800 0.32321 0.36080 -0.02600
H 	H 	0.41810 0.33410 0.30010 0.04100
C 	C 	0.37880 0.34010 0.33310 0.01800
O 	O 	0.94990 0.75293 0.34747 -0.40800
O 	O 	0.96213 0.78346 0.30479 -0.55700
C 	C 	0.94486 0.77694 0.32923 0.36900
C 	C 	0.91716 0.79873 0.33649 -0.10600
S 	S 	0.89261 0.79036 0.36974 0.03500
C 	C 	0.90758 0.82613 0.31850 -0.03300
C 	C 	0.86800 0.82321 0.36080 -0.02700
H 	H 	0.91810 0.83410 0.30010 0.04200
C 	C 	0.87880 0.84010 0.33310 0.01900
O 	O 	0.94990 0.25293 0.84747 -0.40800
O 	O 	0.96213 0.28346 0.80479 -0.55700
C 	C 	0.94486 0.27694 0.82923 0.36900
C 	C 	0.91716 0.29873 0.83649 -0.10600
S 	S 	0.89261 0.29036 0.86974 0.03700
C 	C 	0.90758 0.32613 0.81850 -0.03300
C 	C 	0.86800 0.32321 0.86080 -0.02700
H 	H 	0.91810 0.33410 0.80010 0.04200
C 	C 	0.87880 0.34010 0.83310 0.01900
O 	O 	0.44990 0.24707 0.15253 -0.41400
O 	O 	0.46213 0.21654 0.19521 -0.56400
C 	C 	0.44486 0.22306 0.17077 0.37000
C 	C 	0.41716 0.20127 0.16351 -0.10800
S 	S 	0.39261 0.20964 0.13026 0.03200
C 	C 	0.40758 0.17387 0.18150 -0.03300
C 	C 	0.36800 0.17679 0.13920 -0.02600
H 	H 	0.41810 0.16590 0.19990 0.04100
C 	C 	0.37880 0.15990 0.16690 0.01700
O 	O 	0.44990 0.74707 0.65253 -0.41300
O 	O 	0.46213 0.71654 0.69521 -0.56400
C 	C 	0.44486 0.72306 0.67077 0.37000
C 	C 	0.41716 0.70127 0.66351 -0.10800
S 	S 	0.39261 0.70964 0.63026 0.03300
C 	C 	0.40758 0.67387 0.68150 -0.03300
C 	C 	0.36800 0.67679 0.63920 -0.02700
H 	H 	0.41810 0.66590 0.69990 0.04100
C 	C 	0.37880 0.65990 0.66690 0.01800
O 	O 	0.94990 0.24707 0.65253 -0.40900
O 	O 	0.96213 0.21654 0.69521 -0.55700
C 	C 	0.94486 0.22306 0.67077 0.36900
C 	C 	0.91716 0.20127 0.66351 -0.10600
S 	S 	0.89261 0.20964 0.63026 0.03500
C 	C 	0.90758 0.17387 0.68150 -0.03300
C 	C 	0.86800 0.17679 0.63920 -0.02700
H 	H 	0.91810 0.16590 0.69990 0.04200
C 	C 	0.87880 0.15990 0.66690 0.01800
O 	O 	0.94990 0.74707 0.15253 -0.40900
O 	O 	0.96213 0.71654 0.19521 -0.55700
C 	C 	0.94486 0.72306 0.17077 0.36900
C 	C 	0.91716 0.70127 0.16351 -0.10600
S 	S 	0.89261 0.70964 0.13026 0.03400
C 	C 	0.90758 0.67387 0.18150 -0.03300
C 	C 	0.86800 0.67679 0.13920 -0.02700
H 	H 	0.91810 0.66590 0.19990 0.04200
C 	C 	0.87880 0.65990 0.16690 0.01800
Sr	Sr	0.68796 0.76812 -0.00000 1.51200
Sr	Sr	0.68796 0.26812 0.50000 1.51400
Sr	Sr	0.18796 0.76812 0.50000 1.51400
Sr	Sr	0.18796 0.26812 -0.00000 1.51200
Sr	Sr	0.31204 0.23188 -0.00000 1.51200
Sr	Sr	0.31204 0.73188 0.50000 1.51400
Sr	Sr	0.81204 0.23188 0.50000 1.51400
Sr	Sr	0.81204 0.73188 -0.00000 1.51200
Sr	Sr	0.31204 0.76812 -0.00000 1.51200
Sr	Sr	0.31204 0.26812 0.50000 1.51400
Sr	Sr	0.81204 0.76812 0.50000 1.51400
Sr	Sr	0.81204 0.26812 -0.00000 1.51200
Sr	Sr	0.68796 0.23188 -0.00000 1.51200
Sr	Sr	0.68796 0.73188 0.50000 1.51400
Sr	Sr	0.18796 0.23188 0.50000 1.51400
Sr	Sr	0.18796 0.73188 -0.00000 1.51200
Sr	Sr	0.00000 0.68796 0.76812 1.51200
Sr	Sr	-0.00000 0.18796 0.26812 1.51200
Sr	Sr	0.50000 0.68796 0.26812 1.51400
Sr	Sr	0.50000 0.18796 0.76812 1.51400
Sr	Sr	0.00000 0.31204 0.23188 1.51200
Sr	Sr	0.00000 0.81204 0.73188 1.51200
Sr	Sr	0.50000 0.31204 0.73188 1.51400
Sr	Sr	0.50000 0.81204 0.23188 1.51400
Sr	Sr	0.00000 0.31204 0.76812 1.51200
Sr	Sr	0.00000 0.81204 0.26812 1.51200
Sr	Sr	0.50000 0.31204 0.26812 1.51400
Sr	Sr	0.50000 0.81204 0.76812 1.51400
Sr	Sr	0.00000 0.68796 0.23188 1.51200
Sr	Sr	-0.00000 0.18796 0.73188 1.51200
Sr	Sr	0.50000 0.68796 0.73188 1.51400
Sr	Sr	0.50000 0.18796 0.23188 1.51400
Sr	Sr	0.76812 0.00000 0.68796 1.51200
Sr	Sr	0.76812 0.50000 0.18796 1.51400
Sr	Sr	0.26812 0.00000 0.18796 1.51200
Sr	Sr	0.26812 0.50000 0.68796 1.51400
Sr	Sr	0.23188 0.00000 0.31204 1.51200
Sr	Sr	0.23188 0.50000 0.81204 1.51400
Sr	Sr	0.73188 0.00000 0.81204 1.51200
Sr	Sr	0.73188 0.50000 0.31204 1.51400
Sr	Sr	0.76812 0.00000 0.31204 1.51200
Sr	Sr	0.76812 0.50000 0.81204 1.51400
Sr	Sr	0.26812 0.00000 0.81204 1.51200
Sr	Sr	0.26812 0.50000 0.31204 1.51400
Sr	Sr	0.23188 0.00000 0.68796 1.51200
Sr	Sr	0.23188 0.50000 0.18796 1.51400
Sr	Sr	0.73188 0.00000 0.18796 1.51200
Sr	Sr	0.73188 0.50000 0.68796 1.51400
Sr	Sr	0.26812 0.18796 0.50000 1.51400
Sr	Sr	0.26812 0.68796 -0.00000 1.51200
Sr	Sr	0.76812 0.18796 -0.00000 1.51200
Sr	Sr	0.76812 0.68796 0.50000 1.51400
Sr	Sr	0.73188 0.81204 0.50000 1.51400
Sr	Sr	0.73188 0.31204 -0.00000 1.51200
Sr	Sr	0.23188 0.81204 -0.00000 1.51200
Sr	Sr	0.23188 0.31204 0.50000 1.51400
Sr	Sr	0.26812 0.81204 0.50000 1.51400
Sr	Sr	0.26812 0.31204 -0.00000 1.51200
Sr	Sr	0.76812 0.81204 -0.00000 1.51200
Sr	Sr	0.76812 0.31204 0.50000 1.51400
Sr	Sr	0.73188 0.18796 0.50000 1.51400
Sr	Sr	0.73188 0.68796 -0.00000 1.51200
Sr	Sr	0.23188 0.18796 -0.00000 1.51200
Sr	Sr	0.23188 0.68796 0.50000 1.51400
Sr	Sr	0.18796 0.50000 0.73188 1.51400
Sr	Sr	0.18796 0.00000 0.23188 1.51200
Sr	Sr	0.68796 0.50000 0.23188 1.51400
Sr	Sr	0.68796 0.00000 0.73188 1.51200
Sr	Sr	0.81204 0.50000 0.26812 1.51400
Sr	Sr	0.81204 0.00000 0.76812 1.51200
Sr	Sr	0.31204 0.50000 0.76812 1.51400
Sr	Sr	0.31204 0.00000 0.26812 1.51200
Sr	Sr	0.81204 0.50000 0.73188 1.51400
Sr	Sr	0.81204 0.00000 0.23188 1.51200
Sr	Sr	0.31204 0.50000 0.23188 1.51400
Sr	Sr	0.31204 0.00000 0.73188 1.51200
Sr	Sr	0.18796 0.50000 0.26812 1.51400
Sr	Sr	0.18796 0.00000 0.76812 1.51200
Sr	Sr	0.68796 0.50000 0.76812 1.51400
Sr	Sr	0.68796 0.00000 0.26812 1.51200
Sr	Sr	0.50000 0.26812 0.81204 1.51400
Sr	Sr	0.50000 0.76812 0.31204 1.51400
Sr	Sr	0.00000 0.26812 0.31204 1.51200
Sr	Sr	-0.00000 0.76812 0.81204 1.51200
Sr	Sr	0.50000 0.73188 0.18796 1.51400
Sr	Sr	0.50000 0.23188 0.68796 1.51400
Sr	Sr	0.00000 0.73188 0.68796 1.51200
Sr	Sr	0.00000 0.23188 0.18796 1.51200
Sr	Sr	0.50000 0.26812 0.18796 1.51400
Sr	Sr	0.50000 0.76812 0.68796 1.51400
Sr	Sr	0.00000 0.26812 0.68796 1.51200
Sr	Sr	-0.00000 0.76812 0.18796 1.51200
Sr	Sr	0.50000 0.73188 0.81204 1.51400
Sr	Sr	0.50000 0.23188 0.31204 1.51400
Sr	Sr	0.00000 0.73188 0.31204 1.51200
Sr	Sr	0.00000 0.23188 0.81204 1.51200
O 	O 	0.75000 0.75000 -0.00000 -0.61900
O 	O 	0.25000 0.25000 -0.00000 -0.61900
O 	O 	0.25000 0.75000 -0.00000 -0.61900
O 	O 	0.75000 0.25000 -0.00000 -0.61900
O 	O 	-0.00000 0.75000 0.75000 -0.61900
O 	O 	0.00000 0.25000 0.25000 -0.61900
O 	O 	0.00000 0.25000 0.75000 -0.61900
O 	O 	0.00000 0.75000 0.25000 -0.61900
O 	O 	0.75000 0.00000 0.75000 -0.61900
O 	O 	0.25000 0.00000 0.25000 -0.61900
O 	O 	0.75000 0.00000 0.25000 -0.61900
O 	O 	0.25000 0.00000 0.75000 -0.61900
O 	O 	0.25000 0.25000 0.50000 -0.61100
O 	O 	0.75000 0.75000 0.50000 -0.61100
O 	O 	0.25000 0.75000 0.50000 -0.61100
O 	O 	0.75000 0.25000 0.50000 -0.61100
O 	O 	0.25000 0.50000 0.75000 -0.61100
O 	O 	0.75000 0.50000 0.25000 -0.61100
O 	O 	0.75000 0.50000 0.75000 -0.61100
O 	O 	0.25000 0.50000 0.25000 -0.61100
O 	O 	0.50000 0.25000 0.75000 -0.61100
O 	O 	0.50000 0.75000 0.25000 -0.61100
O 	O 	0.50000 0.25000 0.25000 -0.61100
O 	O 	0.50000 0.75000 0.75000 -0.61100
