data_crystal

_cell_length_a 18.99000
_cell_length_b 34.41800
_cell_length_c 38.39300
_cell_angle_alpha 90.00000
_cell_angle_beta  90.00000
_cell_angle_gamma 90.00000

_symmetry_space_group_name_	'P 1'
_symmetry_space_group_name_H-M	'P 1'

loop_
_symmetry_equiv_pos_as_xyz
  x,y,z

loop_
_atom_site_label
_atom_site_type_symbol
_atom_site_fract_x
_atom_site_fract_y
_atom_site_fract_z
_atom_site_charge
H 	H 	0.29500 0.27720 0.87130 0.15800
C 	C 	0.35450 0.16071 0.83473 0.37400
C 	C 	0.25940 0.07820 0.83661 0.38600
C 	C 	0.37770 0.11908 0.83006 -0.16600
C 	C 	0.33590 0.08385 0.83073 -0.17800
C 	C 	0.38200 0.05381 0.82458 0.31200
C 	C 	0.44590 0.10936 0.82335 0.32400
C 	C 	0.51200 0.13280 0.81898 -0.88200
H 	H 	0.50170 0.15980 0.82260 0.31600
H 	H 	0.53020 0.12920 0.79590 0.29300
H 	H 	0.54640 0.12450 0.83570 0.30400
C 	C 	0.37140 0.01080 0.82340 -0.82800
H 	H 	0.41520 0.99830 0.81800 0.27700
H 	H 	0.33720 0.00450 0.80590 0.28200
H 	H 	0.35490 0.00190 0.84570 0.27100
C 	C 	0.50850 0.04821 0.80688 0.10900
C 	C 	0.51020 0.03591 0.77279 -0.10700
H 	H 	0.47090 0.03920 0.75870 0.07300
C 	C 	0.57040 0.01870 0.75945 -0.04800
C 	C 	0.63070 0.01429 0.78003 -0.02800
H 	H 	0.67190 0.00420 0.77060 0.06600
C 	C 	0.62780 0.02540 0.81516 -0.04600
C 	C 	0.56750 0.04269 0.82844 -0.11400
H 	H 	0.56610 0.05060 0.85160 0.09800
C 	C 	0.69160 0.01925 0.83818 0.33900
C 	C 	0.57370 0.00681 0.72166 0.35000
Cu	Cu	0.40952 0.24751 0.84067 0.92700
Cu	Cu	0.23940 0.22641 0.83817 0.91300
N 	N 	0.44800 0.06920 0.81952 -0.23100
O 	O 	0.31390 0.25644 0.86008 -0.64300
O 	O 	0.40100 0.18622 0.83500 -0.40000
O 	O 	0.28820 0.16779 0.83662 -0.38800
O 	O 	0.21910 0.10771 0.84132 -0.44000
O 	O 	0.23360 0.04533 0.83725 -0.28600
O 	O 	0.68510 0.03046 0.86884 -0.41900
O 	O 	0.74380 0.00299 0.82434 -0.40600
O 	O 	0.63220 0.00924 0.70733 -0.39900
O 	O 	0.51610 0.99563 0.70846 -0.41500
H 	H 	0.24700 0.12720 0.84580 0.26900
H 	H 	0.29500 0.77720 0.37130 0.15700
C 	C 	0.35450 0.66071 0.33473 0.37300
C 	C 	0.25940 0.57820 0.33661 0.38500
C 	C 	0.37770 0.61908 0.33006 -0.16700
C 	C 	0.33590 0.58385 0.33073 -0.17900
C 	C 	0.38200 0.55381 0.32458 0.31100
C 	C 	0.44590 0.60936 0.32335 0.32300
C 	C 	0.51200 0.63280 0.31898 -0.88300
H 	H 	0.50170 0.65980 0.32260 0.31500
H 	H 	0.53020 0.62920 0.29590 0.29200
H 	H 	0.54640 0.62450 0.33570 0.30300
C 	C 	0.37140 0.51080 0.32340 -0.82900
H 	H 	0.41520 0.49830 0.31800 0.27600
H 	H 	0.33720 0.50450 0.30590 0.28100
H 	H 	0.35490 0.50190 0.34570 0.27000
C 	C 	0.50850 0.54821 0.30688 0.10800
C 	C 	0.51020 0.53591 0.27279 -0.10800
H 	H 	0.47090 0.53920 0.25870 0.07200
C 	C 	0.57040 0.51870 0.25945 -0.04800
C 	C 	0.63070 0.51429 0.28003 -0.02800
H 	H 	0.67190 0.50420 0.27060 0.06600
C 	C 	0.62780 0.52540 0.31516 -0.04600
C 	C 	0.56750 0.54269 0.32844 -0.11400
H 	H 	0.56610 0.55060 0.35160 0.09800
C 	C 	0.69160 0.51925 0.33818 0.33900
C 	C 	0.57370 0.50681 0.22166 0.35000
Cu	Cu	0.40952 0.74751 0.34067 0.92700
Cu	Cu	0.23940 0.72641 0.33817 0.91300
N 	N 	0.44800 0.56920 0.31952 -0.23100
O 	O 	0.31390 0.75644 0.36008 -0.64300
O 	O 	0.40100 0.68622 0.33500 -0.40000
O 	O 	0.28820 0.66779 0.33662 -0.38800
O 	O 	0.21910 0.60771 0.34132 -0.44000
O 	O 	0.23360 0.54533 0.33725 -0.28600
O 	O 	0.68510 0.53046 0.36884 -0.41900
O 	O 	0.74380 0.50299 0.32434 -0.40600
O 	O 	0.63220 0.50924 0.20733 -0.39900
O 	O 	0.51610 0.49563 0.20846 -0.41500
H 	H 	0.24700 0.62720 0.34580 0.26900
H 	H 	0.79500 0.27720 0.37130 0.15700
C 	C 	0.85450 0.16071 0.33473 0.37300
C 	C 	0.75940 0.07820 0.33661 0.38500
C 	C 	0.87770 0.11908 0.33006 -0.16700
C 	C 	0.83590 0.08385 0.33073 -0.17900
C 	C 	0.88200 0.05381 0.32458 0.31200
C 	C 	0.94590 0.10936 0.32335 0.32300
C 	C 	0.01200 0.13280 0.31898 -0.88200
H 	H 	0.00170 0.15980 0.32260 0.31500
H 	H 	0.03020 0.12920 0.29590 0.29200
H 	H 	0.04640 0.12450 0.33570 0.30300
C 	C 	0.87140 0.01080 0.32340 -0.83000
H 	H 	0.91520 0.99830 0.31800 0.27600
H 	H 	0.83720 0.00450 0.30590 0.28100
H 	H 	0.85490 0.00190 0.34570 0.27000
C 	C 	0.00850 0.04821 0.30688 0.10800
C 	C 	0.01020 0.03591 0.27279 -0.10700
H 	H 	0.97090 0.03920 0.25870 0.07200
C 	C 	0.07040 0.01870 0.25945 -0.04800
C 	C 	0.13070 0.01429 0.28003 -0.02800
H 	H 	0.17190 0.00420 0.27060 0.06600
C 	C 	0.12780 0.02540 0.31516 -0.04600
C 	C 	0.06750 0.04269 0.32844 -0.11400
H 	H 	0.06610 0.05060 0.35160 0.09800
C 	C 	0.19160 0.01925 0.33818 0.33900
C 	C 	0.07370 0.00681 0.22166 0.35000
Cu	Cu	0.90952 0.24751 0.34067 0.92700
Cu	Cu	0.73940 0.22641 0.33817 0.91300
N 	N 	0.94800 0.06920 0.31952 -0.23100
O 	O 	0.81390 0.25644 0.36008 -0.64300
O 	O 	0.90100 0.18622 0.33500 -0.40000
O 	O 	0.78820 0.16779 0.33662 -0.38800
O 	O 	0.71910 0.10771 0.34132 -0.44000
O 	O 	0.73360 0.04533 0.33725 -0.28600
O 	O 	0.18510 0.03046 0.36884 -0.41900
O 	O 	0.24380 0.00299 0.32434 -0.40600
O 	O 	0.13220 0.00924 0.20733 -0.39900
O 	O 	0.01610 0.99563 0.20846 -0.41500
H 	H 	0.74700 0.12720 0.34580 0.26900
H 	H 	0.79500 0.77720 0.87130 0.15700
C 	C 	0.85450 0.66071 0.83473 0.37300
C 	C 	0.75940 0.57820 0.83661 0.38500
C 	C 	0.87770 0.61908 0.83006 -0.16700
C 	C 	0.83590 0.58385 0.83073 -0.17900
C 	C 	0.88200 0.55381 0.82458 0.31100
C 	C 	0.94590 0.60936 0.82335 0.32300
C 	C 	0.01200 0.63280 0.81898 -0.88300
H 	H 	0.00170 0.65980 0.82260 0.31500
H 	H 	0.03020 0.62920 0.79590 0.29200
H 	H 	0.04640 0.62450 0.83570 0.30300
C 	C 	0.87140 0.51080 0.82340 -0.82900
H 	H 	0.91520 0.49830 0.81800 0.27600
H 	H 	0.83720 0.50450 0.80590 0.28100
H 	H 	0.85490 0.50190 0.84570 0.27000
C 	C 	0.00850 0.54821 0.80688 0.10800
C 	C 	0.01020 0.53591 0.77279 -0.10800
H 	H 	0.97090 0.53920 0.75870 0.07200
C 	C 	0.07040 0.51870 0.75945 -0.04800
C 	C 	0.13070 0.51429 0.78003 -0.02800
H 	H 	0.17190 0.50420 0.77060 0.06600
C 	C 	0.12780 0.52540 0.81516 -0.04600
C 	C 	0.06750 0.54269 0.82844 -0.11400
H 	H 	0.06610 0.55060 0.85160 0.09800
C 	C 	0.19160 0.51925 0.83818 0.33900
C 	C 	0.07370 0.50681 0.72166 0.35000
Cu	Cu	0.90952 0.74751 0.84067 0.92700
Cu	Cu	0.73940 0.72641 0.83817 0.91300
N 	N 	0.94800 0.56920 0.81952 -0.23100
O 	O 	0.81390 0.75644 0.86008 -0.64300
O 	O 	0.90100 0.68622 0.83500 -0.40000
O 	O 	0.78820 0.66779 0.83662 -0.38800
O 	O 	0.71910 0.60771 0.84132 -0.44000
O 	O 	0.73360 0.54533 0.83725 -0.28600
O 	O 	0.18510 0.53046 0.86884 -0.41900
O 	O 	0.24380 0.50299 0.82434 -0.40600
O 	O 	0.13220 0.50924 0.70733 -0.39900
O 	O 	0.01610 0.49563 0.70846 -0.41500
H 	H 	0.74700 0.62720 0.84580 0.26900
H 	H 	0.45500 0.47280 0.87130 0.15700
C 	C 	0.39550 0.58929 0.83473 0.37300
C 	C 	0.49060 0.67180 0.83661 0.38500
C 	C 	0.37230 0.63092 0.83006 -0.16700
C 	C 	0.41410 0.66615 0.83073 -0.17900
C 	C 	0.36800 0.69619 0.82458 0.31100
C 	C 	0.30410 0.64064 0.82335 0.32300
C 	C 	0.23800 0.61720 0.81898 -0.88300
H 	H 	0.24830 0.59020 0.82260 0.31500
H 	H 	0.21980 0.62080 0.79590 0.29200
H 	H 	0.20360 0.62550 0.83570 0.30300
C 	C 	0.37860 0.73920 0.82340 -0.82900
H 	H 	0.33480 0.75170 0.81800 0.27600
H 	H 	0.41280 0.74550 0.80590 0.28100
H 	H 	0.39510 0.74810 0.84570 0.27000
C 	C 	0.24150 0.70179 0.80688 0.10800
C 	C 	0.23980 0.71409 0.77279 -0.10800
H 	H 	0.27910 0.71080 0.75870 0.07200
C 	C 	0.17960 0.73130 0.75945 -0.04800
C 	C 	0.11930 0.73571 0.78003 -0.02800
H 	H 	0.07810 0.74580 0.77060 0.06600
C 	C 	0.12220 0.72460 0.81516 -0.04600
C 	C 	0.18250 0.70731 0.82844 -0.11400
H 	H 	0.18390 0.69940 0.85160 0.09800
C 	C 	0.05840 0.73075 0.83818 0.33900
C 	C 	0.17630 0.74319 0.72166 0.35000
Cu	Cu	0.34048 0.50249 0.84067 0.92700
Cu	Cu	0.51060 0.52359 0.83817 0.91300
N 	N 	0.30200 0.68080 0.81952 -0.23100
O 	O 	0.43610 0.49356 0.86008 -0.64300
O 	O 	0.34900 0.56378 0.83500 -0.40000
O 	O 	0.46180 0.58221 0.83662 -0.38800
O 	O 	0.53090 0.64229 0.84132 -0.44000
O 	O 	0.51640 0.70467 0.83725 -0.28600
O 	O 	0.06490 0.71954 0.86884 -0.41900
O 	O 	0.00620 0.74701 0.82434 -0.40600
O 	O 	0.11780 0.74076 0.70733 -0.39900
O 	O 	0.23390 0.75437 0.70846 -0.41500
H 	H 	0.50300 0.62280 0.84580 0.26900
H 	H 	0.45500 0.97280 0.37130 0.15700
C 	C 	0.39550 0.08929 0.33473 0.37300
C 	C 	0.49060 0.17180 0.33661 0.38500
C 	C 	0.37230 0.13092 0.33006 -0.16700
C 	C 	0.41410 0.16615 0.33073 -0.17900
C 	C 	0.36800 0.19619 0.32458 0.31100
C 	C 	0.30410 0.14064 0.32335 0.32300
C 	C 	0.23800 0.11720 0.31898 -0.88300
H 	H 	0.24830 0.09020 0.32260 0.31500
H 	H 	0.21980 0.12080 0.29590 0.29200
H 	H 	0.20360 0.12550 0.33570 0.30300
C 	C 	0.37860 0.23920 0.32340 -0.82900
H 	H 	0.33480 0.25170 0.31800 0.27600
H 	H 	0.41280 0.24550 0.30590 0.28100
H 	H 	0.39510 0.24810 0.34570 0.27000
C 	C 	0.24150 0.20179 0.30688 0.10800
C 	C 	0.23980 0.21409 0.27279 -0.10800
H 	H 	0.27910 0.21080 0.25870 0.07200
C 	C 	0.17960 0.23130 0.25945 -0.04800
C 	C 	0.11930 0.23571 0.28003 -0.02800
H 	H 	0.07810 0.24580 0.27060 0.06600
C 	C 	0.12220 0.22460 0.31516 -0.04600
C 	C 	0.18250 0.20731 0.32844 -0.11400
H 	H 	0.18390 0.19940 0.35160 0.09800
C 	C 	0.05840 0.23075 0.33818 0.33900
C 	C 	0.17630 0.24319 0.22166 0.35000
Cu	Cu	0.34048 0.00249 0.34067 0.92700
Cu	Cu	0.51060 0.02359 0.33817 0.91300
N 	N 	0.30200 0.18080 0.31952 -0.23100
O 	O 	0.43610 0.99356 0.36008 -0.64300
O 	O 	0.34900 0.06378 0.33500 -0.40000
O 	O 	0.46180 0.08221 0.33662 -0.38800
O 	O 	0.53090 0.14229 0.34132 -0.44000
O 	O 	0.51640 0.20467 0.33725 -0.28600
O 	O 	0.06490 0.21954 0.36884 -0.41900
O 	O 	0.00620 0.24701 0.32434 -0.40600
O 	O 	0.11780 0.24076 0.20733 -0.39900
O 	O 	0.23390 0.25437 0.20846 -0.41500
H 	H 	0.50300 0.12280 0.34580 0.26900
H 	H 	0.95500 0.47280 0.37130 0.15700
C 	C 	0.89550 0.58929 0.33473 0.37300
C 	C 	0.99060 0.67180 0.33661 0.38500
C 	C 	0.87230 0.63092 0.33006 -0.16700
C 	C 	0.91410 0.66615 0.33073 -0.17900
C 	C 	0.86800 0.69619 0.32458 0.31200
C 	C 	0.80410 0.64064 0.32335 0.32300
C 	C 	0.73800 0.61720 0.31898 -0.88300
H 	H 	0.74830 0.59020 0.32260 0.31500
H 	H 	0.71980 0.62080 0.29590 0.29200
H 	H 	0.70360 0.62550 0.33570 0.30300
C 	C 	0.87860 0.73920 0.32340 -0.82900
H 	H 	0.83480 0.75170 0.31800 0.27600
H 	H 	0.91280 0.74550 0.30590 0.28100
H 	H 	0.89510 0.74810 0.34570 0.27000
C 	C 	0.74150 0.70179 0.30688 0.10800
C 	C 	0.73980 0.71409 0.27279 -0.10800
H 	H 	0.77910 0.71080 0.25870 0.07200
C 	C 	0.67960 0.73130 0.25945 -0.04800
C 	C 	0.61930 0.73571 0.28003 -0.02800
H 	H 	0.57810 0.74580 0.27060 0.06600
C 	C 	0.62220 0.72460 0.31516 -0.04600
C 	C 	0.68250 0.70731 0.32844 -0.11400
H 	H 	0.68390 0.69940 0.35160 0.09800
C 	C 	0.55840 0.73075 0.33818 0.33900
C 	C 	0.67630 0.74319 0.22166 0.35000
Cu	Cu	0.84048 0.50249 0.34067 0.92700
Cu	Cu	0.01060 0.52359 0.33817 0.91300
N 	N 	0.80200 0.68080 0.31952 -0.23100
O 	O 	0.93610 0.49356 0.36008 -0.64300
O 	O 	0.84900 0.56378 0.33500 -0.40000
O 	O 	0.96180 0.58221 0.33662 -0.38800
O 	O 	0.03090 0.64229 0.34132 -0.44000
O 	O 	0.01640 0.70467 0.33725 -0.28600
O 	O 	0.56490 0.71954 0.36884 -0.41900
O 	O 	0.50620 0.74701 0.32434 -0.40600
O 	O 	0.61780 0.74076 0.20733 -0.39900
O 	O 	0.73390 0.75437 0.20846 -0.41500
H 	H 	0.00300 0.62280 0.34580 0.26900
H 	H 	0.95500 0.97280 0.87130 0.15700
C 	C 	0.89550 0.08929 0.83473 0.37300
C 	C 	0.99060 0.17180 0.83661 0.38500
C 	C 	0.87230 0.13092 0.83006 -0.16700
C 	C 	0.91410 0.16615 0.83073 -0.17900
C 	C 	0.86800 0.19619 0.82458 0.31100
C 	C 	0.80410 0.14064 0.82335 0.32300
C 	C 	0.73800 0.11720 0.81898 -0.88300
H 	H 	0.74830 0.09020 0.82260 0.31500
H 	H 	0.71980 0.12080 0.79590 0.29200
H 	H 	0.70360 0.12550 0.83570 0.30300
C 	C 	0.87860 0.23920 0.82340 -0.82900
H 	H 	0.83480 0.25170 0.81800 0.27600
H 	H 	0.91280 0.24550 0.80590 0.28100
H 	H 	0.89510 0.24810 0.84570 0.27000
C 	C 	0.74150 0.20179 0.80688 0.10800
C 	C 	0.73980 0.21409 0.77279 -0.10800
H 	H 	0.77910 0.21080 0.75870 0.07200
C 	C 	0.67960 0.23130 0.75945 -0.04800
C 	C 	0.61930 0.23571 0.78003 -0.02800
H 	H 	0.57810 0.24580 0.77060 0.06600
C 	C 	0.62220 0.22460 0.81516 -0.04600
C 	C 	0.68250 0.20731 0.82844 -0.11400
H 	H 	0.68390 0.19940 0.85160 0.09800
C 	C 	0.55840 0.23075 0.83818 0.33900
C 	C 	0.67630 0.24319 0.72166 0.35000
Cu	Cu	0.84048 0.00249 0.84067 0.92700
Cu	Cu	0.01060 0.02359 0.83817 0.91300
N 	N 	0.80200 0.18080 0.81952 -0.23100
O 	O 	0.93610 0.99356 0.86008 -0.64300
O 	O 	0.84900 0.06378 0.83500 -0.40000
O 	O 	0.96180 0.08221 0.83662 -0.38800
O 	O 	0.03090 0.14229 0.84132 -0.43900
O 	O 	0.01640 0.20467 0.83725 -0.28600
O 	O 	0.56490 0.21954 0.86884 -0.41900
O 	O 	0.50620 0.24701 0.82434 -0.40600
O 	O 	0.61780 0.24076 0.70733 -0.39900
O 	O 	0.73390 0.25437 0.70846 -0.41500
H 	H 	0.00300 0.12280 0.84580 0.27000
H 	H 	0.45500 0.27720 0.87870 0.15700
C 	C 	0.39550 0.16071 0.91527 0.37300
C 	C 	0.49060 0.07820 0.91339 0.38500
C 	C 	0.37230 0.11908 0.91994 -0.16700
C 	C 	0.41410 0.08385 0.91927 -0.17900
C 	C 	0.36800 0.05381 0.92542 0.31100
C 	C 	0.30410 0.10936 0.92665 0.32300
C 	C 	0.23800 0.13280 0.93102 -0.88300
H 	H 	0.24830 0.15980 0.92740 0.31500
H 	H 	0.21980 0.12920 0.95410 0.29200
H 	H 	0.20360 0.12450 0.91430 0.30300
C 	C 	0.37860 0.01080 0.92660 -0.82900
H 	H 	0.33480 0.99830 0.93200 0.27600
H 	H 	0.41280 0.00450 0.94410 0.28100
H 	H 	0.39510 0.00190 0.90430 0.27000
C 	C 	0.24150 0.04821 0.94312 0.10800
C 	C 	0.23980 0.03591 0.97721 -0.10800
H 	H 	0.27910 0.03920 0.99130 0.07200
C 	C 	0.17960 0.01870 0.99055 -0.04800
C 	C 	0.11930 0.01429 0.96997 -0.02800
H 	H 	0.07810 0.00420 0.97940 0.06600
C 	C 	0.12220 0.02540 0.93484 -0.04600
C 	C 	0.18250 0.04269 0.92156 -0.11400
H 	H 	0.18390 0.05060 0.89840 0.09800
C 	C 	0.05840 0.01925 0.91182 0.33900
C 	C 	0.17630 0.00681 0.02834 0.35000
Cu	Cu	0.34048 0.24751 0.90933 0.92700
Cu	Cu	0.51060 0.22641 0.91183 0.91300
N 	N 	0.30200 0.06920 0.93048 -0.23100
O 	O 	0.43610 0.25644 0.88992 -0.64300
O 	O 	0.34900 0.18622 0.91500 -0.40000
O 	O 	0.46180 0.16779 0.91338 -0.38800
O 	O 	0.53090 0.10771 0.90868 -0.44000
O 	O 	0.51640 0.04533 0.91275 -0.28600
O 	O 	0.06490 0.03046 0.88116 -0.41900
O 	O 	0.00620 0.00299 0.92566 -0.40600
O 	O 	0.11780 0.00924 0.04267 -0.39900
O 	O 	0.23390 0.99563 0.04154 -0.41500
H 	H 	0.50300 0.12720 0.90420 0.26900
H 	H 	0.45500 0.77720 0.37870 0.15700
C 	C 	0.39550 0.66071 0.41527 0.37300
C 	C 	0.49060 0.57820 0.41339 0.38500
C 	C 	0.37230 0.61908 0.41994 -0.16700
C 	C 	0.41410 0.58385 0.41927 -0.17900
C 	C 	0.36800 0.55381 0.42542 0.31100
C 	C 	0.30410 0.60936 0.42665 0.32300
C 	C 	0.23800 0.63280 0.43102 -0.88300
H 	H 	0.24830 0.65980 0.42740 0.31500
H 	H 	0.21980 0.62920 0.45410 0.29200
H 	H 	0.20360 0.62450 0.41430 0.30300
C 	C 	0.37860 0.51080 0.42660 -0.82900
H 	H 	0.33480 0.49830 0.43200 0.27600
H 	H 	0.41280 0.50450 0.44410 0.28100
H 	H 	0.39510 0.50190 0.40430 0.27000
C 	C 	0.24150 0.54821 0.44312 0.10800
C 	C 	0.23980 0.53591 0.47721 -0.10800
H 	H 	0.27910 0.53920 0.49130 0.07200
C 	C 	0.17960 0.51870 0.49055 -0.04800
C 	C 	0.11930 0.51429 0.46997 -0.02800
H 	H 	0.07810 0.50420 0.47940 0.06600
C 	C 	0.12220 0.52540 0.43484 -0.04600
C 	C 	0.18250 0.54269 0.42156 -0.11400
H 	H 	0.18390 0.55060 0.39840 0.09800
C 	C 	0.05840 0.51925 0.41182 0.33900
C 	C 	0.17630 0.50681 0.52834 0.35000
Cu	Cu	0.34048 0.74751 0.40933 0.92700
Cu	Cu	0.51060 0.72641 0.41183 0.91300
N 	N 	0.30200 0.56920 0.43048 -0.23100
O 	O 	0.43610 0.75644 0.38992 -0.64300
O 	O 	0.34900 0.68622 0.41500 -0.40000
O 	O 	0.46180 0.66779 0.41338 -0.38800
O 	O 	0.53090 0.60771 0.40868 -0.44000
O 	O 	0.51640 0.54533 0.41275 -0.28600
O 	O 	0.06490 0.53046 0.38116 -0.41900
O 	O 	0.00620 0.50299 0.42566 -0.40600
O 	O 	0.11780 0.50924 0.54267 -0.39900
O 	O 	0.23390 0.49563 0.54154 -0.41500
H 	H 	0.50300 0.62720 0.40420 0.26900
H 	H 	0.95500 0.27720 0.37870 0.15700
C 	C 	0.89550 0.16071 0.41527 0.37300
C 	C 	0.99060 0.07820 0.41339 0.38500
C 	C 	0.87230 0.11908 0.41994 -0.16700
C 	C 	0.91410 0.08385 0.41927 -0.17900
C 	C 	0.86800 0.05381 0.42542 0.31200
C 	C 	0.80410 0.10936 0.42665 0.32300
C 	C 	0.73800 0.13280 0.43102 -0.88300
H 	H 	0.74830 0.15980 0.42740 0.31500
H 	H 	0.71980 0.12920 0.45410 0.29200
H 	H 	0.70360 0.12450 0.41430 0.30300
C 	C 	0.87860 0.01080 0.42660 -0.83000
H 	H 	0.83480 0.99830 0.43200 0.27600
H 	H 	0.91280 0.00450 0.44410 0.28100
H 	H 	0.89510 0.00190 0.40430 0.27000
C 	C 	0.74150 0.04821 0.44312 0.10800
C 	C 	0.73980 0.03591 0.47721 -0.10800
H 	H 	0.77910 0.03920 0.49130 0.07200
C 	C 	0.67960 0.01870 0.49055 -0.04700
C 	C 	0.61930 0.01429 0.46997 -0.02800
H 	H 	0.57810 0.00420 0.47940 0.06600
C 	C 	0.62220 0.02540 0.43484 -0.04600
C 	C 	0.68250 0.04269 0.42156 -0.11400
H 	H 	0.68390 0.05060 0.39840 0.09800
C 	C 	0.55840 0.01925 0.41182 0.33900
C 	C 	0.67630 0.00681 0.52834 0.34900
Cu	Cu	0.84048 0.24751 0.40933 0.92700
Cu	Cu	0.01060 0.22641 0.41183 0.91300
N 	N 	0.80200 0.06920 0.43048 -0.23100
O 	O 	0.93610 0.25644 0.38992 -0.64300
O 	O 	0.84900 0.18622 0.41500 -0.40000
O 	O 	0.96180 0.16779 0.41338 -0.38800
O 	O 	0.03090 0.10771 0.40868 -0.43900
O 	O 	0.01640 0.04533 0.41275 -0.28600
O 	O 	0.56490 0.03046 0.38116 -0.41900
O 	O 	0.50620 0.00299 0.42566 -0.40600
O 	O 	0.61780 0.00924 0.54267 -0.39900
O 	O 	0.73390 0.99563 0.54154 -0.41500
H 	H 	0.00300 0.12720 0.40420 0.26900
H 	H 	0.95500 0.77720 0.87870 0.15700
C 	C 	0.89550 0.66071 0.91527 0.37300
C 	C 	0.99060 0.57820 0.91339 0.38500
C 	C 	0.87230 0.61908 0.91994 -0.16700
C 	C 	0.91410 0.58385 0.91927 -0.17900
C 	C 	0.86800 0.55381 0.92542 0.31100
C 	C 	0.80410 0.60936 0.92665 0.32300
C 	C 	0.73800 0.63280 0.93102 -0.88300
H 	H 	0.74830 0.65980 0.92740 0.31500
H 	H 	0.71980 0.62920 0.95410 0.29200
H 	H 	0.70360 0.62450 0.91430 0.30300
C 	C 	0.87860 0.51080 0.92660 -0.82900
H 	H 	0.83480 0.49830 0.93200 0.27600
H 	H 	0.91280 0.50450 0.94410 0.28100
H 	H 	0.89510 0.50190 0.90430 0.27000
C 	C 	0.74150 0.54821 0.94312 0.10800
C 	C 	0.73980 0.53591 0.97721 -0.10800
H 	H 	0.77910 0.53920 0.99130 0.07200
C 	C 	0.67960 0.51870 0.99055 -0.04800
C 	C 	0.61930 0.51429 0.96997 -0.02800
H 	H 	0.57810 0.50420 0.97940 0.06600
C 	C 	0.62220 0.52540 0.93484 -0.04600
C 	C 	0.68250 0.54269 0.92156 -0.11400
H 	H 	0.68390 0.55060 0.89840 0.09800
C 	C 	0.55840 0.51925 0.91182 0.33900
C 	C 	0.67630 0.50681 0.02834 0.35000
Cu	Cu	0.84048 0.74751 0.90933 0.92700
Cu	Cu	0.01060 0.72641 0.91183 0.91300
N 	N 	0.80200 0.56920 0.93048 -0.23100
O 	O 	0.93610 0.75644 0.88992 -0.64300
O 	O 	0.84900 0.68622 0.91500 -0.40000
O 	O 	0.96180 0.66779 0.91338 -0.38800
O 	O 	0.03090 0.60771 0.90868 -0.44000
O 	O 	0.01640 0.54533 0.91275 -0.28600
O 	O 	0.56490 0.53046 0.88116 -0.41900
O 	O 	0.50620 0.50299 0.92566 -0.40600
O 	O 	0.61780 0.50924 0.04267 -0.39900
O 	O 	0.73390 0.49563 0.04154 -0.41500
H 	H 	0.00300 0.62720 0.90420 0.26900
H 	H 	0.29500 0.47280 0.87870 0.15700
C 	C 	0.35450 0.58929 0.91527 0.37300
C 	C 	0.25940 0.67180 0.91339 0.38500
C 	C 	0.37770 0.63092 0.91994 -0.16700
C 	C 	0.33590 0.66615 0.91927 -0.17900
C 	C 	0.38200 0.69619 0.92542 0.31100
C 	C 	0.44590 0.64064 0.92665 0.32300
C 	C 	0.51200 0.61720 0.93102 -0.88300
H 	H 	0.50170 0.59020 0.92740 0.31500
H 	H 	0.53020 0.62080 0.95410 0.29200
H 	H 	0.54640 0.62550 0.91430 0.30300
C 	C 	0.37140 0.73920 0.92660 -0.82900
H 	H 	0.41520 0.75170 0.93200 0.27600
H 	H 	0.33720 0.74550 0.94410 0.28100
H 	H 	0.35490 0.74810 0.90430 0.27000
C 	C 	0.50850 0.70179 0.94312 0.10800
C 	C 	0.51020 0.71409 0.97721 -0.10800
H 	H 	0.47090 0.71080 0.99130 0.07200
C 	C 	0.57040 0.73130 0.99055 -0.04800
C 	C 	0.63070 0.73571 0.96997 -0.02800
H 	H 	0.67190 0.74580 0.97940 0.06600
C 	C 	0.62780 0.72460 0.93484 -0.04600
C 	C 	0.56750 0.70731 0.92156 -0.11400
H 	H 	0.56610 0.69940 0.89840 0.09800
C 	C 	0.69160 0.73075 0.91182 0.33900
C 	C 	0.57370 0.74319 0.02834 0.35000
Cu	Cu	0.40952 0.50249 0.90933 0.92700
Cu	Cu	0.23940 0.52359 0.91183 0.91300
N 	N 	0.44800 0.68080 0.93048 -0.23100
O 	O 	0.31390 0.49356 0.88992 -0.64300
O 	O 	0.40100 0.56378 0.91500 -0.40000
O 	O 	0.28820 0.58221 0.91338 -0.38800
O 	O 	0.21910 0.64229 0.90868 -0.44000
O 	O 	0.23360 0.70467 0.91275 -0.28600
O 	O 	0.68510 0.71954 0.88116 -0.41900
O 	O 	0.74380 0.74701 0.92566 -0.40600
O 	O 	0.63220 0.74076 0.04267 -0.39900
O 	O 	0.51610 0.75437 0.04154 -0.41500
H 	H 	0.24700 0.62280 0.90420 0.26900
H 	H 	0.29500 0.97280 0.37870 0.15700
C 	C 	0.35450 0.08929 0.41527 0.37300
C 	C 	0.25940 0.17180 0.41339 0.38500
C 	C 	0.37770 0.13092 0.41994 -0.16700
C 	C 	0.33590 0.16615 0.41927 -0.17900
C 	C 	0.38200 0.19619 0.42542 0.31100
C 	C 	0.44590 0.14064 0.42665 0.32300
C 	C 	0.51200 0.11720 0.43102 -0.88300
H 	H 	0.50170 0.09020 0.42740 0.31500
H 	H 	0.53020 0.12080 0.45410 0.29200
H 	H 	0.54640 0.12550 0.41430 0.30300
C 	C 	0.37140 0.23920 0.42660 -0.82900
H 	H 	0.41520 0.25170 0.43200 0.27600
H 	H 	0.33720 0.24550 0.44410 0.28100
H 	H 	0.35490 0.24810 0.40430 0.27000
C 	C 	0.50850 0.20179 0.44312 0.10800
C 	C 	0.51020 0.21409 0.47721 -0.10800
H 	H 	0.47090 0.21080 0.49130 0.07200
C 	C 	0.57040 0.23130 0.49055 -0.04800
C 	C 	0.63070 0.23571 0.46997 -0.02800
H 	H 	0.67190 0.24580 0.47940 0.06600
C 	C 	0.62780 0.22460 0.43484 -0.04600
C 	C 	0.56750 0.20731 0.42156 -0.11400
H 	H 	0.56610 0.19940 0.39840 0.09800
C 	C 	0.69160 0.23075 0.41182 0.33900
C 	C 	0.57370 0.24319 0.52834 0.35000
Cu	Cu	0.40952 0.00249 0.40933 0.92700
Cu	Cu	0.23940 0.02359 0.41183 0.91300
N 	N 	0.44800 0.18080 0.43048 -0.23100
O 	O 	0.31390 0.99356 0.38992 -0.64300
O 	O 	0.40100 0.06378 0.41500 -0.40000
O 	O 	0.28820 0.08221 0.41338 -0.38800
O 	O 	0.21910 0.14229 0.40868 -0.44000
O 	O 	0.23360 0.20467 0.41275 -0.28600
O 	O 	0.68510 0.21954 0.38116 -0.41900
O 	O 	0.74380 0.24701 0.42566 -0.40600
O 	O 	0.63220 0.24076 0.54267 -0.39900
O 	O 	0.51610 0.25437 0.54154 -0.41500
H 	H 	0.24700 0.12280 0.40420 0.26900
H 	H 	0.79500 0.47280 0.37870 0.15700
C 	C 	0.85450 0.58929 0.41527 0.37300
C 	C 	0.75940 0.67180 0.41339 0.38500
C 	C 	0.87770 0.63092 0.41994 -0.16700
C 	C 	0.83590 0.66615 0.41927 -0.17900
C 	C 	0.88200 0.69619 0.42542 0.31100
C 	C 	0.94590 0.64064 0.42665 0.32300
C 	C 	0.01200 0.61720 0.43102 -0.88300
H 	H 	0.00170 0.59020 0.42740 0.31500
H 	H 	0.03020 0.62080 0.45410 0.29200
H 	H 	0.04640 0.62550 0.41430 0.30300
C 	C 	0.87140 0.73920 0.42660 -0.82900
H 	H 	0.91520 0.75170 0.43200 0.27600
H 	H 	0.83720 0.74550 0.44410 0.28100
H 	H 	0.85490 0.74810 0.40430 0.27000
C 	C 	0.00850 0.70179 0.44312 0.10800
C 	C 	0.01020 0.71409 0.47721 -0.10800
H 	H 	0.97090 0.71080 0.49130 0.07200
C 	C 	0.07040 0.73130 0.49055 -0.04800
C 	C 	0.13070 0.73571 0.46997 -0.02800
H 	H 	0.17190 0.74580 0.47940 0.06600
C 	C 	0.12780 0.72460 0.43484 -0.04600
C 	C 	0.06750 0.70731 0.42156 -0.11400
H 	H 	0.06610 0.69940 0.39840 0.09800
C 	C 	0.19160 0.73075 0.41182 0.33900
C 	C 	0.07370 0.74319 0.52834 0.35000
Cu	Cu	0.90952 0.50249 0.40933 0.92700
Cu	Cu	0.73940 0.52359 0.41183 0.91300
N 	N 	0.94800 0.68080 0.43048 -0.23100
O 	O 	0.81390 0.49356 0.38992 -0.64300
O 	O 	0.90100 0.56378 0.41500 -0.40000
O 	O 	0.78820 0.58221 0.41338 -0.38800
O 	O 	0.71910 0.64229 0.40868 -0.44000
O 	O 	0.73360 0.70467 0.41275 -0.28600
O 	O 	0.18510 0.71954 0.38116 -0.41900
O 	O 	0.24380 0.74701 0.42566 -0.40600
O 	O 	0.13220 0.74076 0.54267 -0.39900
O 	O 	0.01610 0.75437 0.54154 -0.41500
H 	H 	0.74700 0.62280 0.40420 0.26900
H 	H 	0.79500 0.97280 0.87870 0.15700
C 	C 	0.85450 0.08929 0.91527 0.37300
C 	C 	0.75940 0.17180 0.91339 0.38500
C 	C 	0.87770 0.13092 0.91994 -0.16700
C 	C 	0.83590 0.16615 0.91927 -0.17900
C 	C 	0.88200 0.19619 0.92542 0.31100
C 	C 	0.94590 0.14064 0.92665 0.32300
C 	C 	0.01200 0.11720 0.93102 -0.88200
H 	H 	0.00170 0.09020 0.92740 0.31500
H 	H 	0.03020 0.12080 0.95410 0.29200
H 	H 	0.04640 0.12550 0.91430 0.30300
C 	C 	0.87140 0.23920 0.92660 -0.82900
H 	H 	0.91520 0.25170 0.93200 0.27600
H 	H 	0.83720 0.24550 0.94410 0.28100
H 	H 	0.85490 0.24810 0.90430 0.27000
C 	C 	0.00850 0.20179 0.94312 0.10800
C 	C 	0.01020 0.21409 0.97721 -0.10800
H 	H 	0.97090 0.21080 0.99130 0.07200
C 	C 	0.07040 0.23130 0.99055 -0.04800
C 	C 	0.13070 0.23571 0.96997 -0.02800
H 	H 	0.17190 0.24580 0.97940 0.06600
C 	C 	0.12780 0.22460 0.93484 -0.04600
C 	C 	0.06750 0.20731 0.92156 -0.11400
H 	H 	0.06610 0.19940 0.89840 0.09800
C 	C 	0.19160 0.23075 0.91182 0.33900
C 	C 	0.07370 0.24319 0.02834 0.35000
Cu	Cu	0.90952 0.00249 0.90933 0.92700
Cu	Cu	0.73940 0.02359 0.91183 0.91300
N 	N 	0.94800 0.18080 0.93048 -0.23100
O 	O 	0.81390 0.99356 0.88992 -0.64300
O 	O 	0.90100 0.06378 0.91500 -0.40000
O 	O 	0.78820 0.08221 0.91338 -0.38800
O 	O 	0.71910 0.14229 0.90868 -0.44000
O 	O 	0.73360 0.20467 0.91275 -0.28600
O 	O 	0.18510 0.21954 0.88116 -0.41900
O 	O 	0.24380 0.24701 0.92566 -0.40600
O 	O 	0.13220 0.24076 0.04267 -0.39900
O 	O 	0.01610 0.25437 0.04154 -0.41500
H 	H 	0.74700 0.12280 0.90420 0.26900
H 	H 	0.70500 0.72280 0.12870 0.15700
C 	C 	0.64550 0.83929 0.16527 0.37300
C 	C 	0.74060 0.92180 0.16339 0.38500
C 	C 	0.62230 0.88092 0.16994 -0.16700
C 	C 	0.66410 0.91615 0.16927 -0.17900
C 	C 	0.61800 0.94619 0.17542 0.31100
C 	C 	0.55410 0.89064 0.17665 0.32300
C 	C 	0.48800 0.86720 0.18102 -0.88300
H 	H 	0.49830 0.84020 0.17740 0.31500
H 	H 	0.46980 0.87080 0.20410 0.29200
H 	H 	0.45360 0.87550 0.16430 0.30300
C 	C 	0.62860 0.98920 0.17660 -0.82900
H 	H 	0.58480 0.00170 0.18200 0.27600
H 	H 	0.66280 0.99550 0.19410 0.28100
H 	H 	0.64510 0.99810 0.15430 0.27000
C 	C 	0.49150 0.95179 0.19312 0.10800
C 	C 	0.48980 0.96409 0.22721 -0.10800
H 	H 	0.52910 0.96080 0.24130 0.07200
C 	C 	0.42960 0.98130 0.24055 -0.04800
C 	C 	0.36930 0.98571 0.21997 -0.02800
H 	H 	0.32810 0.99580 0.22940 0.06600
C 	C 	0.37220 0.97460 0.18484 -0.04600
C 	C 	0.43250 0.95731 0.17156 -0.11400
H 	H 	0.43390 0.94940 0.14840 0.09800
C 	C 	0.30840 0.98075 0.16182 0.33900
C 	C 	0.42630 0.99319 0.27834 0.35000
Cu	Cu	0.59048 0.75249 0.15933 0.92700
Cu	Cu	0.76060 0.77359 0.16183 0.91300
N 	N 	0.55200 0.93080 0.18048 -0.23100
O 	O 	0.68610 0.74356 0.13992 -0.64300
O 	O 	0.59900 0.81378 0.16500 -0.40000
O 	O 	0.71180 0.83221 0.16338 -0.38800
O 	O 	0.78090 0.89229 0.15868 -0.44000
O 	O 	0.76640 0.95467 0.16275 -0.28600
O 	O 	0.31490 0.96954 0.13116 -0.41900
O 	O 	0.25620 0.99701 0.17566 -0.40600
O 	O 	0.36780 0.99076 0.29267 -0.39900
O 	O 	0.48390 0.00437 0.29154 -0.41500
H 	H 	0.75300 0.87280 0.15420 0.26900
H 	H 	0.70500 0.22280 0.62870 0.15700
C 	C 	0.64550 0.33929 0.66527 0.37300
C 	C 	0.74060 0.42180 0.66339 0.38500
C 	C 	0.62230 0.38092 0.66994 -0.16700
C 	C 	0.66410 0.41615 0.66927 -0.17900
C 	C 	0.61800 0.44619 0.67542 0.31100
C 	C 	0.55410 0.39064 0.67665 0.32300
C 	C 	0.48800 0.36720 0.68102 -0.88300
H 	H 	0.49830 0.34020 0.67740 0.31500
H 	H 	0.46980 0.37080 0.70410 0.29200
H 	H 	0.45360 0.37550 0.66430 0.30300
C 	C 	0.62860 0.48920 0.67660 -0.82900
H 	H 	0.58480 0.50170 0.68200 0.27600
H 	H 	0.66280 0.49550 0.69410 0.28100
H 	H 	0.64510 0.49810 0.65430 0.27000
C 	C 	0.49150 0.45179 0.69312 0.10800
C 	C 	0.48980 0.46409 0.72721 -0.10800
H 	H 	0.52910 0.46080 0.74130 0.07200
C 	C 	0.42960 0.48130 0.74055 -0.04800
C 	C 	0.36930 0.48571 0.71997 -0.02800
H 	H 	0.32810 0.49580 0.72940 0.06600
C 	C 	0.37220 0.47460 0.68484 -0.04600
C 	C 	0.43250 0.45731 0.67156 -0.11400
H 	H 	0.43390 0.44940 0.64840 0.09800
C 	C 	0.30840 0.48075 0.66182 0.33900
C 	C 	0.42630 0.49319 0.77834 0.35000
Cu	Cu	0.59048 0.25249 0.65933 0.92700
Cu	Cu	0.76060 0.27359 0.66183 0.91300
N 	N 	0.55200 0.43080 0.68048 -0.23100
O 	O 	0.68610 0.24356 0.63992 -0.64300
O 	O 	0.59900 0.31378 0.66500 -0.40000
O 	O 	0.71180 0.33221 0.66338 -0.38800
O 	O 	0.78090 0.39229 0.65868 -0.44000
O 	O 	0.76640 0.45467 0.66275 -0.28600
O 	O 	0.31490 0.46954 0.63116 -0.41900
O 	O 	0.25620 0.49701 0.67566 -0.40600
O 	O 	0.36780 0.49076 0.79267 -0.39900
O 	O 	0.48390 0.50437 0.79154 -0.41500
H 	H 	0.75300 0.37280 0.65420 0.26900
H 	H 	0.20500 0.72280 0.62870 0.15700
C 	C 	0.14550 0.83929 0.66527 0.37300
C 	C 	0.24060 0.92180 0.66339 0.38500
C 	C 	0.12230 0.88092 0.66994 -0.16700
C 	C 	0.16410 0.91615 0.66927 -0.17900
C 	C 	0.11800 0.94619 0.67542 0.31200
C 	C 	0.05410 0.89064 0.67665 0.32300
C 	C 	0.98800 0.86720 0.68102 -0.88200
H 	H 	0.99830 0.84020 0.67740 0.31500
H 	H 	0.96980 0.87080 0.70410 0.29200
H 	H 	0.95360 0.87550 0.66430 0.30300
C 	C 	0.12860 0.98920 0.67660 -0.83000
H 	H 	0.08480 0.00170 0.68200 0.27600
H 	H 	0.16280 0.99550 0.69410 0.28100
H 	H 	0.14510 0.99810 0.65430 0.27000
C 	C 	0.99150 0.95179 0.69312 0.10800
C 	C 	0.98980 0.96409 0.72721 -0.10700
H 	H 	0.02910 0.96080 0.74130 0.07200
C 	C 	0.92960 0.98130 0.74055 -0.04800
C 	C 	0.86930 0.98571 0.71997 -0.02800
H 	H 	0.82810 0.99580 0.72940 0.06600
C 	C 	0.87220 0.97460 0.68484 -0.04600
C 	C 	0.93250 0.95731 0.67156 -0.11400
H 	H 	0.93390 0.94940 0.64840 0.09800
C 	C 	0.80840 0.98075 0.66182 0.33900
C 	C 	0.92630 0.99319 0.77834 0.35000
Cu	Cu	0.09048 0.75249 0.65933 0.92700
Cu	Cu	0.26060 0.77359 0.66183 0.91300
N 	N 	0.05200 0.93080 0.68048 -0.23100
O 	O 	0.18610 0.74356 0.63992 -0.64300
O 	O 	0.09900 0.81378 0.66500 -0.40000
O 	O 	0.21180 0.83221 0.66338 -0.38800
O 	O 	0.28090 0.89229 0.65868 -0.44000
O 	O 	0.26640 0.95467 0.66275 -0.28600
O 	O 	0.81490 0.96954 0.63116 -0.41900
O 	O 	0.75620 0.99701 0.67566 -0.40600
O 	O 	0.86780 0.99076 0.79267 -0.39900
O 	O 	0.98390 0.00437 0.79154 -0.41500
H 	H 	0.25300 0.87280 0.65420 0.26900
H 	H 	0.20500 0.22280 0.12870 0.15700
C 	C 	0.14550 0.33929 0.16527 0.37300
C 	C 	0.24060 0.42180 0.16339 0.38500
C 	C 	0.12230 0.38092 0.16994 -0.16700
C 	C 	0.16410 0.41615 0.16927 -0.17900
C 	C 	0.11800 0.44619 0.17542 0.31100
C 	C 	0.05410 0.39064 0.17665 0.32300
C 	C 	0.98800 0.36720 0.18102 -0.88300
H 	H 	0.99830 0.34020 0.17740 0.31500
H 	H 	0.96980 0.37080 0.20410 0.29200
H 	H 	0.95360 0.37550 0.16430 0.30300
C 	C 	0.12860 0.48920 0.17660 -0.82900
H 	H 	0.08480 0.50170 0.18200 0.27600
H 	H 	0.16280 0.49550 0.19410 0.28100
H 	H 	0.14510 0.49810 0.15430 0.27000
C 	C 	0.99150 0.45179 0.19312 0.10800
C 	C 	0.98980 0.46409 0.22721 -0.10800
H 	H 	0.02910 0.46080 0.24130 0.07200
C 	C 	0.92960 0.48130 0.24055 -0.04800
C 	C 	0.86930 0.48571 0.21997 -0.02800
H 	H 	0.82810 0.49580 0.22940 0.06600
C 	C 	0.87220 0.47460 0.18484 -0.04600
C 	C 	0.93250 0.45731 0.17156 -0.11400
H 	H 	0.93390 0.44940 0.14840 0.09800
C 	C 	0.80840 0.48075 0.16182 0.33900
C 	C 	0.92630 0.49319 0.27834 0.35000
Cu	Cu	0.09048 0.25249 0.15933 0.92700
Cu	Cu	0.26060 0.27359 0.16183 0.91300
N 	N 	0.05200 0.43080 0.18048 -0.23100
O 	O 	0.18610 0.24356 0.13992 -0.64300
O 	O 	0.09900 0.31378 0.16500 -0.40000
O 	O 	0.21180 0.33221 0.16338 -0.38800
O 	O 	0.28090 0.39229 0.15868 -0.44000
O 	O 	0.26640 0.45467 0.16275 -0.28600
O 	O 	0.81490 0.46954 0.13116 -0.41900
O 	O 	0.75620 0.49701 0.17566 -0.40600
O 	O 	0.86780 0.49076 0.29267 -0.39900
O 	O 	0.98390 0.50437 0.29154 -0.41500
H 	H 	0.25300 0.37280 0.15420 0.26900
H 	H 	0.54500 0.52720 0.12870 0.15700
C 	C 	0.60450 0.41071 0.16527 0.37300
C 	C 	0.50940 0.32820 0.16339 0.38500
C 	C 	0.62770 0.36908 0.16994 -0.16700
C 	C 	0.58590 0.33385 0.16927 -0.17900
C 	C 	0.63200 0.30381 0.17542 0.31100
C 	C 	0.69590 0.35936 0.17665 0.32300
C 	C 	0.76200 0.38280 0.18102 -0.88300
H 	H 	0.75170 0.40980 0.17740 0.31500
H 	H 	0.78020 0.37920 0.20410 0.29200
H 	H 	0.79640 0.37450 0.16430 0.30300
C 	C 	0.62140 0.26080 0.17660 -0.82900
H 	H 	0.66520 0.24830 0.18200 0.27600
H 	H 	0.58720 0.25450 0.19410 0.28100
H 	H 	0.60490 0.25190 0.15430 0.27000
C 	C 	0.75850 0.29821 0.19312 0.10800
C 	C 	0.76020 0.28591 0.22721 -0.10800
H 	H 	0.72090 0.28920 0.24130 0.07200
C 	C 	0.82040 0.26870 0.24055 -0.04800
C 	C 	0.88070 0.26429 0.21997 -0.02800
H 	H 	0.92190 0.25420 0.22940 0.06600
C 	C 	0.87780 0.27540 0.18484 -0.04600
C 	C 	0.81750 0.29269 0.17156 -0.11400
H 	H 	0.81610 0.30060 0.14840 0.09800
C 	C 	0.94160 0.26925 0.16182 0.33900
C 	C 	0.82370 0.25681 0.27834 0.35000
Cu	Cu	0.65952 0.49751 0.15933 0.92700
Cu	Cu	0.48940 0.47641 0.16183 0.91300
N 	N 	0.69800 0.31920 0.18048 -0.23100
O 	O 	0.56390 0.50644 0.13992 -0.64300
O 	O 	0.65100 0.43622 0.16500 -0.40000
O 	O 	0.53820 0.41779 0.16338 -0.38800
O 	O 	0.46910 0.35771 0.15868 -0.44000
O 	O 	0.48360 0.29533 0.16275 -0.28600
O 	O 	0.93510 0.28046 0.13116 -0.41900
O 	O 	0.99380 0.25299 0.17566 -0.40600
O 	O 	0.88220 0.25924 0.29267 -0.39900
O 	O 	0.76610 0.24563 0.29154 -0.41500
H 	H 	0.49700 0.37720 0.15420 0.26900
H 	H 	0.54500 0.02720 0.62870 0.15700
C 	C 	0.60450 0.91071 0.66527 0.37300
C 	C 	0.50940 0.82820 0.66339 0.38500
C 	C 	0.62770 0.86908 0.66994 -0.16700
C 	C 	0.58590 0.83385 0.66927 -0.17900
C 	C 	0.63200 0.80381 0.67542 0.31100
C 	C 	0.69590 0.85936 0.67665 0.32300
C 	C 	0.76200 0.88280 0.68102 -0.88300
H 	H 	0.75170 0.90980 0.67740 0.31500
H 	H 	0.78020 0.87920 0.70410 0.29200
H 	H 	0.79640 0.87450 0.66430 0.30300
C 	C 	0.62140 0.76080 0.67660 -0.82900
H 	H 	0.66520 0.74830 0.68200 0.27600
H 	H 	0.58720 0.75450 0.69410 0.28100
H 	H 	0.60490 0.75190 0.65430 0.27000
C 	C 	0.75850 0.79821 0.69312 0.10800
C 	C 	0.76020 0.78591 0.72721 -0.10800
H 	H 	0.72090 0.78920 0.74130 0.07200
C 	C 	0.82040 0.76870 0.74055 -0.04800
C 	C 	0.88070 0.76429 0.71997 -0.02800
H 	H 	0.92190 0.75420 0.72940 0.06600
C 	C 	0.87780 0.77540 0.68484 -0.04600
C 	C 	0.81750 0.79269 0.67156 -0.11400
H 	H 	0.81610 0.80060 0.64840 0.09800
C 	C 	0.94160 0.76925 0.66182 0.33900
C 	C 	0.82370 0.75681 0.77834 0.35000
Cu	Cu	0.65952 0.99751 0.65933 0.92700
Cu	Cu	0.48940 0.97641 0.66183 0.91300
N 	N 	0.69800 0.81920 0.68048 -0.23100
O 	O 	0.56390 0.00644 0.63992 -0.64300
O 	O 	0.65100 0.93622 0.66500 -0.40000
O 	O 	0.53820 0.91779 0.66338 -0.38800
O 	O 	0.46910 0.85771 0.65868 -0.44000
O 	O 	0.48360 0.79533 0.66275 -0.28600
O 	O 	0.93510 0.78046 0.63116 -0.41900
O 	O 	0.99380 0.75299 0.67566 -0.40600
O 	O 	0.88220 0.75924 0.79267 -0.39900
O 	O 	0.76610 0.74563 0.79154 -0.41500
H 	H 	0.49700 0.87720 0.65420 0.26900
H 	H 	0.04500 0.52720 0.62870 0.15700
C 	C 	0.10450 0.41071 0.66527 0.37300
C 	C 	0.00940 0.32820 0.66339 0.38500
C 	C 	0.12770 0.36908 0.66994 -0.16700
C 	C 	0.08590 0.33385 0.66927 -0.17900
C 	C 	0.13200 0.30381 0.67542 0.31200
C 	C 	0.19590 0.35936 0.67665 0.32300
C 	C 	0.26200 0.38280 0.68102 -0.88300
H 	H 	0.25170 0.40980 0.67740 0.31500
H 	H 	0.28020 0.37920 0.70410 0.29200
H 	H 	0.29640 0.37450 0.66430 0.30300
C 	C 	0.12140 0.26080 0.67660 -0.82900
H 	H 	0.16520 0.24830 0.68200 0.27600
H 	H 	0.08720 0.25450 0.69410 0.28100
H 	H 	0.10490 0.25190 0.65430 0.27000
C 	C 	0.25850 0.29821 0.69312 0.10800
C 	C 	0.26020 0.28591 0.72721 -0.10800
H 	H 	0.22090 0.28920 0.74130 0.07200
C 	C 	0.32040 0.26870 0.74055 -0.04800
C 	C 	0.38070 0.26429 0.71997 -0.02800
H 	H 	0.42190 0.25420 0.72940 0.06600
C 	C 	0.37780 0.27540 0.68484 -0.04600
C 	C 	0.31750 0.29269 0.67156 -0.11400
H 	H 	0.31610 0.30060 0.64840 0.09800
C 	C 	0.44160 0.26925 0.66182 0.33900
C 	C 	0.32370 0.25681 0.77834 0.35000
Cu	Cu	0.15952 0.49751 0.65933 0.92700
Cu	Cu	0.98940 0.47641 0.66183 0.91300
N 	N 	0.19800 0.31920 0.68048 -0.23100
O 	O 	0.06390 0.50644 0.63992 -0.64300
O 	O 	0.15100 0.43622 0.66500 -0.40000
O 	O 	0.03820 0.41779 0.66338 -0.38800
O 	O 	0.96910 0.35771 0.65868 -0.44000
O 	O 	0.98360 0.29533 0.66275 -0.28600
O 	O 	0.43510 0.28046 0.63116 -0.41900
O 	O 	0.49380 0.25299 0.67566 -0.40600
O 	O 	0.38220 0.25924 0.79267 -0.39900
O 	O 	0.26610 0.24563 0.79154 -0.41500
H 	H 	0.99700 0.37720 0.65420 0.26900
H 	H 	0.04500 0.02720 0.12870 0.15700
C 	C 	0.10450 0.91071 0.16527 0.37300
C 	C 	0.00940 0.82820 0.16339 0.38500
C 	C 	0.12770 0.86908 0.16994 -0.16700
C 	C 	0.08590 0.83385 0.16927 -0.17900
C 	C 	0.13200 0.80381 0.17542 0.31100
C 	C 	0.19590 0.85936 0.17665 0.32300
C 	C 	0.26200 0.88280 0.18102 -0.88300
H 	H 	0.25170 0.90980 0.17740 0.31500
H 	H 	0.28020 0.87920 0.20410 0.29200
H 	H 	0.29640 0.87450 0.16430 0.30300
C 	C 	0.12140 0.76080 0.17660 -0.82900
H 	H 	0.16520 0.74830 0.18200 0.27600
H 	H 	0.08720 0.75450 0.19410 0.28100
H 	H 	0.10490 0.75190 0.15430 0.27000
C 	C 	0.25850 0.79821 0.19312 0.10800
C 	C 	0.26020 0.78591 0.22721 -0.10800
H 	H 	0.22090 0.78920 0.24130 0.07200
C 	C 	0.32040 0.76870 0.24055 -0.04800
C 	C 	0.38070 0.76429 0.21997 -0.02800
H 	H 	0.42190 0.75420 0.22940 0.06600
C 	C 	0.37780 0.77540 0.18484 -0.04600
C 	C 	0.31750 0.79269 0.17156 -0.11400
H 	H 	0.31610 0.80060 0.14840 0.09800
C 	C 	0.44160 0.76925 0.16182 0.33900
C 	C 	0.32370 0.75681 0.27834 0.35000
Cu	Cu	0.15952 0.99751 0.15933 0.92700
Cu	Cu	0.98940 0.97641 0.16183 0.91300
N 	N 	0.19800 0.81920 0.18048 -0.23100
O 	O 	0.06390 0.00644 0.13992 -0.64300
O 	O 	0.15100 0.93622 0.16500 -0.40000
O 	O 	0.03820 0.91779 0.16338 -0.38800
O 	O 	0.96910 0.85771 0.15868 -0.43900
O 	O 	0.98360 0.79533 0.16275 -0.28600
O 	O 	0.43510 0.78046 0.13116 -0.41900
O 	O 	0.49380 0.75299 0.17566 -0.40600
O 	O 	0.38220 0.75924 0.29267 -0.39900
O 	O 	0.26610 0.74563 0.29154 -0.41500
H 	H 	0.99700 0.87720 0.15420 0.27000
H 	H 	0.54500 0.72280 0.12130 0.15700
C 	C 	0.60450 0.83929 0.08473 0.37300
C 	C 	0.50940 0.92180 0.08661 0.38500
C 	C 	0.62770 0.88092 0.08006 -0.16700
C 	C 	0.58590 0.91615 0.08073 -0.17900
C 	C 	0.63200 0.94619 0.07458 0.31100
C 	C 	0.69590 0.89064 0.07335 0.32300
C 	C 	0.76200 0.86720 0.06898 -0.88300
H 	H 	0.75170 0.84020 0.07260 0.31500
H 	H 	0.78020 0.87080 0.04590 0.29200
H 	H 	0.79640 0.87550 0.08570 0.30300
C 	C 	0.62140 0.98920 0.07340 -0.82900
H 	H 	0.66520 0.00170 0.06800 0.27600
H 	H 	0.58720 0.99550 0.05590 0.28100
H 	H 	0.60490 0.99810 0.09570 0.27000
C 	C 	0.75850 0.95179 0.05688 0.10800
C 	C 	0.76020 0.96409 0.02279 -0.10800
H 	H 	0.72090 0.96080 0.00870 0.07200
C 	C 	0.82040 0.98130 0.00945 -0.04800
C 	C 	0.88070 0.98571 0.03003 -0.02800
H 	H 	0.92190 0.99580 0.02060 0.06600
C 	C 	0.87780 0.97460 0.06516 -0.04600
C 	C 	0.81750 0.95731 0.07844 -0.11400
H 	H 	0.81610 0.94940 0.10160 0.09800
C 	C 	0.94160 0.98075 0.08818 0.33900
C 	C 	0.82370 0.99319 0.97166 0.35000
Cu	Cu	0.65952 0.75249 0.09067 0.92700
Cu	Cu	0.48940 0.77359 0.08817 0.91300
N 	N 	0.69800 0.93080 0.06952 -0.23100
O 	O 	0.56390 0.74356 0.11008 -0.64300
O 	O 	0.65100 0.81378 0.08500 -0.40000
O 	O 	0.53820 0.83221 0.08662 -0.38800
O 	O 	0.46910 0.89229 0.09132 -0.44000
O 	O 	0.48360 0.95467 0.08725 -0.28600
O 	O 	0.93510 0.96954 0.11884 -0.41900
O 	O 	0.99380 0.99701 0.07434 -0.40600
O 	O 	0.88220 0.99076 0.95733 -0.39900
O 	O 	0.76610 0.00437 0.95846 -0.41500
H 	H 	0.49700 0.87280 0.09580 0.26900
H 	H 	0.54500 0.22280 0.62130 0.15700
C 	C 	0.60450 0.33929 0.58473 0.37300
C 	C 	0.50940 0.42180 0.58661 0.38500
C 	C 	0.62770 0.38092 0.58006 -0.16700
C 	C 	0.58590 0.41615 0.58073 -0.17900
C 	C 	0.63200 0.44619 0.57458 0.31100
C 	C 	0.69590 0.39064 0.57335 0.32300
C 	C 	0.76200 0.36720 0.56898 -0.88300
H 	H 	0.75170 0.34020 0.57260 0.31500
H 	H 	0.78020 0.37080 0.54590 0.29200
H 	H 	0.79640 0.37550 0.58570 0.30300
C 	C 	0.62140 0.48920 0.57340 -0.82900
H 	H 	0.66520 0.50170 0.56800 0.27600
H 	H 	0.58720 0.49550 0.55590 0.28100
H 	H 	0.60490 0.49810 0.59570 0.27000
C 	C 	0.75850 0.45179 0.55688 0.10800
C 	C 	0.76020 0.46409 0.52279 -0.10800
H 	H 	0.72090 0.46080 0.50870 0.07200
C 	C 	0.82040 0.48130 0.50945 -0.04800
C 	C 	0.88070 0.48571 0.53003 -0.02800
H 	H 	0.92190 0.49580 0.52060 0.06600
C 	C 	0.87780 0.47460 0.56516 -0.04600
C 	C 	0.81750 0.45731 0.57844 -0.11400
H 	H 	0.81610 0.44940 0.60160 0.09800
C 	C 	0.94160 0.48075 0.58818 0.33900
C 	C 	0.82370 0.49319 0.47166 0.35000
Cu	Cu	0.65952 0.25249 0.59067 0.92700
Cu	Cu	0.48940 0.27359 0.58817 0.91300
N 	N 	0.69800 0.43080 0.56952 -0.23100
O 	O 	0.56390 0.24356 0.61008 -0.64300
O 	O 	0.65100 0.31378 0.58500 -0.40000
O 	O 	0.53820 0.33221 0.58662 -0.38800
O 	O 	0.46910 0.39229 0.59132 -0.44000
O 	O 	0.48360 0.45467 0.58725 -0.28600
O 	O 	0.93510 0.46954 0.61884 -0.41900
O 	O 	0.99380 0.49701 0.57434 -0.40600
O 	O 	0.88220 0.49076 0.45733 -0.39900
O 	O 	0.76610 0.50437 0.45846 -0.41500
H 	H 	0.49700 0.37280 0.59580 0.26900
H 	H 	0.04500 0.72280 0.62130 0.15700
C 	C 	0.10450 0.83929 0.58473 0.37300
C 	C 	0.00940 0.92180 0.58661 0.38500
C 	C 	0.12770 0.88092 0.58006 -0.16700
C 	C 	0.08590 0.91615 0.58073 -0.17900
C 	C 	0.13200 0.94619 0.57458 0.31200
C 	C 	0.19590 0.89064 0.57335 0.32300
C 	C 	0.26200 0.86720 0.56898 -0.88300
H 	H 	0.25170 0.84020 0.57260 0.31500
H 	H 	0.28020 0.87080 0.54590 0.29200
H 	H 	0.29640 0.87550 0.58570 0.30300
C 	C 	0.12140 0.98920 0.57340 -0.83000
H 	H 	0.16520 0.00170 0.56800 0.27600
H 	H 	0.08720 0.99550 0.55590 0.28100
H 	H 	0.10490 0.99810 0.59570 0.27000
C 	C 	0.25850 0.95179 0.55688 0.10800
C 	C 	0.26020 0.96409 0.52279 -0.10800
H 	H 	0.22090 0.96080 0.50870 0.07200
C 	C 	0.32040 0.98130 0.50945 -0.04700
C 	C 	0.38070 0.98571 0.53003 -0.02800
H 	H 	0.42190 0.99580 0.52060 0.06600
C 	C 	0.37780 0.97460 0.56516 -0.04600
C 	C 	0.31750 0.95731 0.57844 -0.11400
H 	H 	0.31610 0.94940 0.60160 0.09800
C 	C 	0.44160 0.98075 0.58818 0.33900
C 	C 	0.32370 0.99319 0.47166 0.34900
Cu	Cu	0.15952 0.75249 0.59067 0.92700
Cu	Cu	0.98940 0.77359 0.58817 0.91300
N 	N 	0.19800 0.93080 0.56952 -0.23100
O 	O 	0.06390 0.74356 0.61008 -0.64300
O 	O 	0.15100 0.81378 0.58500 -0.40000
O 	O 	0.03820 0.83221 0.58662 -0.38800
O 	O 	0.96910 0.89229 0.59132 -0.43900
O 	O 	0.98360 0.95467 0.58725 -0.28600
O 	O 	0.43510 0.96954 0.61884 -0.41900
O 	O 	0.49380 0.99701 0.57434 -0.40600
O 	O 	0.38220 0.99076 0.45733 -0.39900
O 	O 	0.26610 0.00437 0.45846 -0.41500
H 	H 	0.99700 0.87280 0.59580 0.26900
H 	H 	0.04500 0.22280 0.12130 0.15700
C 	C 	0.10450 0.33929 0.08473 0.37300
C 	C 	0.00940 0.42180 0.08661 0.38500
C 	C 	0.12770 0.38092 0.08006 -0.16700
C 	C 	0.08590 0.41615 0.08073 -0.17900
C 	C 	0.13200 0.44619 0.07458 0.31100
C 	C 	0.19590 0.39064 0.07335 0.32300
C 	C 	0.26200 0.36720 0.06898 -0.88300
H 	H 	0.25170 0.34020 0.07260 0.31500
H 	H 	0.28020 0.37080 0.04590 0.29200
H 	H 	0.29640 0.37550 0.08570 0.30300
C 	C 	0.12140 0.48920 0.07340 -0.82900
H 	H 	0.16520 0.50170 0.06800 0.27600
H 	H 	0.08720 0.49550 0.05590 0.28100
H 	H 	0.10490 0.49810 0.09570 0.27000
C 	C 	0.25850 0.45179 0.05688 0.10800
C 	C 	0.26020 0.46409 0.02279 -0.10800
H 	H 	0.22090 0.46080 0.00870 0.07200
C 	C 	0.32040 0.48130 0.00945 -0.04800
C 	C 	0.38070 0.48571 0.03003 -0.02800
H 	H 	0.42190 0.49580 0.02060 0.06600
C 	C 	0.37780 0.47460 0.06516 -0.04600
C 	C 	0.31750 0.45731 0.07844 -0.11400
H 	H 	0.31610 0.44940 0.10160 0.09800
C 	C 	0.44160 0.48075 0.08818 0.33900
C 	C 	0.32370 0.49319 0.97166 0.35000
Cu	Cu	0.15952 0.25249 0.09067 0.92700
Cu	Cu	0.98940 0.27359 0.08817 0.91300
N 	N 	0.19800 0.43080 0.06952 -0.23100
O 	O 	0.06390 0.24356 0.11008 -0.64300
O 	O 	0.15100 0.31378 0.08500 -0.40000
O 	O 	0.03820 0.33221 0.08662 -0.38800
O 	O 	0.96910 0.39229 0.09132 -0.44000
O 	O 	0.98360 0.45467 0.08725 -0.28600
O 	O 	0.43510 0.46954 0.11884 -0.41900
O 	O 	0.49380 0.49701 0.07434 -0.40600
O 	O 	0.38220 0.49076 0.95733 -0.39900
O 	O 	0.26610 0.50437 0.95846 -0.41500
H 	H 	0.99700 0.37280 0.09580 0.26900
H 	H 	0.70500 0.52720 0.12130 0.15700
C 	C 	0.64550 0.41071 0.08473 0.37300
C 	C 	0.74060 0.32820 0.08661 0.38500
C 	C 	0.62230 0.36908 0.08006 -0.16700
C 	C 	0.66410 0.33385 0.08073 -0.17900
C 	C 	0.61800 0.30381 0.07458 0.31100
C 	C 	0.55410 0.35936 0.07335 0.32300
C 	C 	0.48800 0.38280 0.06898 -0.88300
H 	H 	0.49830 0.40980 0.07260 0.31500
H 	H 	0.46980 0.37920 0.04590 0.29200
H 	H 	0.45360 0.37450 0.08570 0.30300
C 	C 	0.62860 0.26080 0.07340 -0.82900
H 	H 	0.58480 0.24830 0.06800 0.27600
H 	H 	0.66280 0.25450 0.05590 0.28100
H 	H 	0.64510 0.25190 0.09570 0.27000
C 	C 	0.49150 0.29821 0.05688 0.10800
C 	C 	0.48980 0.28591 0.02279 -0.10800
H 	H 	0.52910 0.28920 0.00870 0.07200
C 	C 	0.42960 0.26870 0.00945 -0.04800
C 	C 	0.36930 0.26429 0.03003 -0.02800
H 	H 	0.32810 0.25420 0.02060 0.06600
C 	C 	0.37220 0.27540 0.06516 -0.04600
C 	C 	0.43250 0.29269 0.07844 -0.11400
H 	H 	0.43390 0.30060 0.10160 0.09800
C 	C 	0.30840 0.26925 0.08818 0.33900
C 	C 	0.42630 0.25681 0.97166 0.35000
Cu	Cu	0.59048 0.49751 0.09067 0.92700
Cu	Cu	0.76060 0.47641 0.08817 0.91300
N 	N 	0.55200 0.31920 0.06952 -0.23100
O 	O 	0.68610 0.50644 0.11008 -0.64300
O 	O 	0.59900 0.43622 0.08500 -0.40000
O 	O 	0.71180 0.41779 0.08662 -0.38800
O 	O 	0.78090 0.35771 0.09132 -0.44000
O 	O 	0.76640 0.29533 0.08725 -0.28600
O 	O 	0.31490 0.28046 0.11884 -0.41900
O 	O 	0.25620 0.25299 0.07434 -0.40600
O 	O 	0.36780 0.25924 0.95733 -0.39900
O 	O 	0.48390 0.24563 0.95846 -0.41500
H 	H 	0.75300 0.37720 0.09580 0.26900
H 	H 	0.70500 0.02720 0.62130 0.15700
C 	C 	0.64550 0.91071 0.58473 0.37300
C 	C 	0.74060 0.82820 0.58661 0.38500
C 	C 	0.62230 0.86908 0.58006 -0.16700
C 	C 	0.66410 0.83385 0.58073 -0.17900
C 	C 	0.61800 0.80381 0.57458 0.31100
C 	C 	0.55410 0.85936 0.57335 0.32300
C 	C 	0.48800 0.88280 0.56898 -0.88300
H 	H 	0.49830 0.90980 0.57260 0.31500
H 	H 	0.46980 0.87920 0.54590 0.29200
H 	H 	0.45360 0.87450 0.58570 0.30300
C 	C 	0.62860 0.76080 0.57340 -0.82900
H 	H 	0.58480 0.74830 0.56800 0.27600
H 	H 	0.66280 0.75450 0.55590 0.28100
H 	H 	0.64510 0.75190 0.59570 0.27000
C 	C 	0.49150 0.79821 0.55688 0.10800
C 	C 	0.48980 0.78591 0.52279 -0.10800
H 	H 	0.52910 0.78920 0.50870 0.07200
C 	C 	0.42960 0.76870 0.50945 -0.04800
C 	C 	0.36930 0.76429 0.53003 -0.02800
H 	H 	0.32810 0.75420 0.52060 0.06600
C 	C 	0.37220 0.77540 0.56516 -0.04600
C 	C 	0.43250 0.79269 0.57844 -0.11400
H 	H 	0.43390 0.80060 0.60160 0.09800
C 	C 	0.30840 0.76925 0.58818 0.33900
C 	C 	0.42630 0.75681 0.47166 0.35000
Cu	Cu	0.59048 0.99751 0.59067 0.92700
Cu	Cu	0.76060 0.97641 0.58817 0.91300
N 	N 	0.55200 0.81920 0.56952 -0.23100
O 	O 	0.68610 0.00644 0.61008 -0.64300
O 	O 	0.59900 0.93622 0.58500 -0.40000
O 	O 	0.71180 0.91779 0.58662 -0.38800
O 	O 	0.78090 0.85771 0.59132 -0.44000
O 	O 	0.76640 0.79533 0.58725 -0.28600
O 	O 	0.31490 0.78046 0.61884 -0.41900
O 	O 	0.25620 0.75299 0.57434 -0.40600
O 	O 	0.36780 0.75924 0.45733 -0.39900
O 	O 	0.48390 0.74563 0.45846 -0.41500
H 	H 	0.75300 0.87720 0.59580 0.26900
H 	H 	0.20500 0.52720 0.62130 0.15700
C 	C 	0.14550 0.41071 0.58473 0.37300
C 	C 	0.24060 0.32820 0.58661 0.38500
C 	C 	0.12230 0.36908 0.58006 -0.16700
C 	C 	0.16410 0.33385 0.58073 -0.17900
C 	C 	0.11800 0.30381 0.57458 0.31100
C 	C 	0.05410 0.35936 0.57335 0.32300
C 	C 	0.98800 0.38280 0.56898 -0.88300
H 	H 	0.99830 0.40980 0.57260 0.31500
H 	H 	0.96980 0.37920 0.54590 0.29200
H 	H 	0.95360 0.37450 0.58570 0.30300
C 	C 	0.12860 0.26080 0.57340 -0.82900
H 	H 	0.08480 0.24830 0.56800 0.27600
H 	H 	0.16280 0.25450 0.55590 0.28100
H 	H 	0.14510 0.25190 0.59570 0.27000
C 	C 	0.99150 0.29821 0.55688 0.10800
C 	C 	0.98980 0.28591 0.52279 -0.10800
H 	H 	0.02910 0.28920 0.50870 0.07200
C 	C 	0.92960 0.26870 0.50945 -0.04800
C 	C 	0.86930 0.26429 0.53003 -0.02800
H 	H 	0.82810 0.25420 0.52060 0.06600
C 	C 	0.87220 0.27540 0.56516 -0.04600
C 	C 	0.93250 0.29269 0.57844 -0.11400
H 	H 	0.93390 0.30060 0.60160 0.09800
C 	C 	0.80840 0.26925 0.58818 0.33900
C 	C 	0.92630 0.25681 0.47166 0.35000
Cu	Cu	0.09048 0.49751 0.59067 0.92700
Cu	Cu	0.26060 0.47641 0.58817 0.91300
N 	N 	0.05200 0.31920 0.56952 -0.23100
O 	O 	0.18610 0.50644 0.61008 -0.64300
O 	O 	0.09900 0.43622 0.58500 -0.40000
O 	O 	0.21180 0.41779 0.58662 -0.38800
O 	O 	0.28090 0.35771 0.59132 -0.44000
O 	O 	0.26640 0.29533 0.58725 -0.28600
O 	O 	0.81490 0.28046 0.61884 -0.41900
O 	O 	0.75620 0.25299 0.57434 -0.40600
O 	O 	0.86780 0.25924 0.45733 -0.39900
O 	O 	0.98390 0.24563 0.45846 -0.41500
H 	H 	0.25300 0.37720 0.59580 0.26900
H 	H 	0.20500 0.02720 0.12130 0.15700
C 	C 	0.14550 0.91071 0.08473 0.37300
C 	C 	0.24060 0.82820 0.08661 0.38500
C 	C 	0.12230 0.86908 0.08006 -0.16700
C 	C 	0.16410 0.83385 0.08073 -0.17900
C 	C 	0.11800 0.80381 0.07458 0.31100
C 	C 	0.05410 0.85936 0.07335 0.32300
C 	C 	0.98800 0.88280 0.06898 -0.88200
H 	H 	0.99830 0.90980 0.07260 0.31500
H 	H 	0.96980 0.87920 0.04590 0.29200
H 	H 	0.95360 0.87450 0.08570 0.30300
C 	C 	0.12860 0.76080 0.07340 -0.82900
H 	H 	0.08480 0.74830 0.06800 0.27600
H 	H 	0.16280 0.75450 0.05590 0.28100
H 	H 	0.14510 0.75190 0.09570 0.27000
C 	C 	0.99150 0.79821 0.05688 0.10800
C 	C 	0.98980 0.78591 0.02279 -0.10800
H 	H 	0.02910 0.78920 0.00870 0.07200
C 	C 	0.92960 0.76870 0.00945 -0.04800
C 	C 	0.86930 0.76429 0.03003 -0.02800
H 	H 	0.82810 0.75420 0.02060 0.06600
C 	C 	0.87220 0.77540 0.06516 -0.04600
C 	C 	0.93250 0.79269 0.07844 -0.11400
H 	H 	0.93390 0.80060 0.10160 0.09800
C 	C 	0.80840 0.76925 0.08818 0.33900
C 	C 	0.92630 0.75681 0.97166 0.35000
Cu	Cu	0.09048 0.99751 0.09067 0.92700
Cu	Cu	0.26060 0.97641 0.08817 0.91300
N 	N 	0.05200 0.81920 0.06952 -0.23100
O 	O 	0.18610 0.00644 0.11008 -0.64300
O 	O 	0.09900 0.93622 0.08500 -0.40000
O 	O 	0.21180 0.91779 0.08662 -0.38800
O 	O 	0.28090 0.85771 0.09132 -0.44000
O 	O 	0.26640 0.79533 0.08725 -0.28600
O 	O 	0.81490 0.78046 0.11884 -0.41900
O 	O 	0.75620 0.75299 0.07434 -0.40600
O 	O 	0.86780 0.75924 0.95733 -0.39900
O 	O 	0.98390 0.74563 0.95846 -0.41500
H 	H 	0.25300 0.87720 0.09580 0.26900
