data_crystal

_cell_length_a 11.66080
_cell_length_b 39.39810
_cell_length_c 24.46170
_cell_angle_alpha 90.00000
_cell_angle_beta  101.29700
_cell_angle_gamma 90.00000

_symmetry_space_group_name_	'P 1'
_symmetry_space_group_name_H-M	'P 1'

loop_
_symmetry_equiv_pos_as_xyz
  x,y,z

loop_
_atom_site_label
_atom_site_type_symbol
_atom_site_fract_x
_atom_site_fract_y
_atom_site_fract_z
_atom_site_charge
Mn	Mn	0.69405 0.38032 0.61951 1.29900
Mn	Mn	0.88221 0.04169 0.36714 1.25500
Mn	Mn	0.72126 0.19883 0.37166 1.26300
O 	O 	0.60330 0.23530 0.38061 -0.53600
O 	O 	0.47280 0.24986 0.30544 -0.47700
O 	O 	0.69490 0.30458 0.54476 -0.51600
O 	O 	0.60610 0.35382 0.54961 -0.50900
O 	O 	0.57300 0.46191 0.54371 -0.49600
O 	O 	0.70970 0.42376 0.56804 -0.54700
O 	O 	0.48520 0.50269 0.34502 -0.57800
O 	O 	0.61200 0.49065 0.29322 -0.46100
O 	O 	0.72510 0.08861 0.31203 -0.52200
O 	O 	0.81220 0.04608 0.27750 -0.54600
O 	O 	0.48910 0.17008 0.18741 -0.51400
O 	O 	0.36020 0.14776 0.11880 -0.57900
O 	O 	0.03280 0.09313 0.13117 -0.62000
O 	O 	0.94030 0.07162 0.19403 -0.50500
O 	O 	0.69780 0.20151 0.27462 -0.55400
O 	O 	0.81640 0.16264 0.31899 -0.54800
C 	C 	0.52920 0.25542 0.35356 0.43600
C 	C 	0.62600 0.32756 0.52427 0.43500
C 	C 	0.64330 0.44136 0.53116 0.41300
C 	C 	0.57040 0.48577 0.33633 0.43700
C 	C 	0.74020 0.07051 0.27158 0.46000
C 	C 	0.45530 0.14625 0.15482 0.47300
C 	C 	0.96130 0.09543 0.16444 0.51600
C 	C 	0.76850 0.17714 0.27402 0.45000
C 	C 	0.51050 0.28764 0.38368 -0.31900
C 	C 	0.43320 0.31254 0.35849 0.27900
H 	H 	0.39070 0.30900 0.32260 -0.10700
C 	C 	0.41840 0.34283 0.38620 -0.53400
C 	C 	0.48260 0.34712 0.43977 0.28300
H 	H 	0.47410 0.36710 0.45880 -0.09700
C 	C 	0.55910 0.32244 0.46569 -0.32400
C 	C 	0.57300 0.29266 0.43752 0.18400
H 	H 	0.62420 0.27600 0.45470 -0.03500
C 	C 	0.33390 0.37021 0.35690 1.12000
C 	C 	0.30430 0.39590 0.39770 -1.60200
H 	H 	0.26520 0.38470 0.42380 0.44300
H 	H 	0.37490 0.40620 0.41740 0.48900
H 	H 	0.25400 0.41300 0.37790 0.44800
C 	C 	0.39680 0.38830 0.31410 -1.49900
H 	H 	0.34690 0.40570 0.29490 0.43500
H 	H 	0.46840 0.39830 0.33340 0.45900
H 	H 	0.41360 0.37200 0.28760 0.43000
C 	C 	0.22230 0.35500 0.32430 -1.56300
H 	H 	0.18100 0.34380 0.34940 0.43100
H 	H 	0.17420 0.37260 0.30480 0.42700
H 	H 	0.24090 0.33880 0.29800 0.45200
C 	C 	0.65810 0.43804 0.47152 -0.32800
C 	C 	0.72760 0.41240 0.45603 0.32800
H 	H 	0.76250 0.39680 0.48260 -0.11100
C 	C 	0.74590 0.40966 0.40170 -0.60300
C 	C 	0.69310 0.43400 0.36338 0.32700
H 	H 	0.70480 0.43300 0.32690 -0.13400
C 	C 	0.62350 0.45960 0.37834 -0.35300
C 	C 	0.60360 0.46134 0.43232 0.20300
H 	H 	0.55440 0.47790 0.44210 -0.05400
C 	C 	0.81910 0.38126 0.38317 1.28700
C 	C 	0.90970 0.39616 0.35410 -1.78500
H 	H 	0.87180 0.40930 0.32270 0.52100
H 	H 	0.95390 0.37820 0.34160 0.50500
H 	H 	0.96130 0.41050 0.37960 0.51100
C 	C 	0.73680 0.35753 0.34420 -1.77100
H 	H 	0.69700 0.37010 0.31250 0.51500
H 	H 	0.68050 0.34810 0.36370 0.54700
H 	H 	0.78130 0.33960 0.33190 0.51300
C 	C 	0.88240 0.36014 0.43300 -1.71400
H 	H 	0.93510 0.37450 0.45800 0.49800
H 	H 	0.92570 0.34220 0.41990 0.49700
H 	H 	0.82590 0.35060 0.45240 0.53100
C 	C 	0.66890 0.07849 0.21540 -0.32600
C 	C 	0.67660 0.05923 0.16823 0.35900
H 	H 	0.72520 0.04030 0.17190 -0.11700
C 	C 	0.61270 0.06797 0.11572 -0.61700
C 	C 	0.53690 0.09551 0.11198 0.36900
H 	H 	0.48970 0.10080 0.07780 -0.13500
C 	C 	0.53020 0.11546 0.15849 -0.34600
C 	C 	0.59820 0.10718 0.21002 0.25900
H 	H 	0.59640 0.12080 0.24090 -0.04600
C 	C 	0.63440 0.04838 0.06416 1.35300
C 	C 	0.61320 0.01051 0.07140 -1.80100
H 	H 	0.62680 0.99840 0.03920 0.52300
H 	H 	0.53390 0.00700 0.07560 0.51500
H 	H 	0.66570 0.00230 0.10400 0.55300
C 	C 	0.55510 0.06052 0.01110 -1.80800
H 	H 	0.56830 0.08430 0.00590 0.51500
H 	H 	0.47500 0.05700 0.01380 0.53600
H 	H 	0.57190 0.04800 0.97990 0.50300
C 	C 	0.76160 0.05281 0.05940 -1.90900
H 	H 	0.77720 0.07640 0.05450 0.58300
H 	H 	0.77640 0.04020 0.02800 0.57500
H 	H 	0.81140 0.04470 0.09280 0.59800
C 	C 	0.89580 0.12792 0.16718 -0.34500
C 	C 	0.86090 0.14794 0.11992 0.37100
H 	H 	0.88490 0.14220 0.08700 -0.12700
C 	C 	0.79030 0.17648 0.12118 -0.61400
C 	C 	0.76050 0.18544 0.17181 0.36100
H 	H 	0.71380 0.20440 0.17340 -0.10800
C 	C 	0.79970 0.16645 0.22028 -0.33000
C 	C 	0.86410 0.13718 0.21741 0.26900
H 	H 	0.88630 0.12370 0.24890 -0.04800
C 	C 	0.74310 0.19689 0.06777 1.40200
C 	C 	0.75400 0.23550 0.08310 -0.72600
H 	H 	0.68730 0.24240 0.09800 0.33300
H 	H 	0.75690 0.24850 0.05020 0.17900
H 	H 	0.82400 0.23920 0.11040 0.20200
C 	C 	0.71100 0.17360 0.02050 -0.97800
H 	H 	0.64030 0.16180 0.02350 0.25300
H 	H 	0.77270 0.15740 0.02080 0.11000
H 	H 	0.69870 0.18620 0.98630 0.10300
C 	C 	0.60840 0.19020 0.05320 -0.82200
H 	H 	0.58560 0.17710 0.08230 0.22800
H 	H 	0.58950 0.17800 0.01860 0.22000
H 	H 	0.56750 0.21150 0.04950 0.21700
C 	C 	0.86400 0.21310 0.05320 -0.26600
H 	H 	0.92860 0.20790 0.08270 0.04700
H 	H 	0.85570 0.23730 0.04940 0.03900
H 	H 	0.87740 0.20360 0.01890 0.15900
C 	C 	0.80000 0.18990 0.02210 -1.46500
H 	H 	0.75570 0.17310 0.99830 0.75200
H 	H 	0.87720 0.18150 0.03600 0.42700
H 	H 	0.80400 0.21030 0.00120 0.38100
C 	C 	0.66000 0.22210 0.07230 -0.90600
H 	H 	0.59120 0.21160 0.08070 0.33000
H 	H 	0.64030 0.23420 0.03780 0.26000
H 	H 	0.69230 0.23750 0.10170 0.10600
Mn	Mn	0.19405 0.88032 0.61951 1.29900
Mn	Mn	0.38221 0.54169 0.36714 1.25400
Mn	Mn	0.22126 0.69883 0.37166 1.26100
O 	O 	0.10330 0.73530 0.38061 -0.53900
O 	O 	0.97280 0.74986 0.30544 -0.44200
O 	O 	0.19490 0.80458 0.54476 -0.52800
O 	O 	0.10610 0.85382 0.54961 -0.52700
O 	O 	0.07300 0.96191 0.54371 -0.50600
O 	O 	0.20970 0.92376 0.56804 -0.54800
O 	O 	0.98520 0.00269 0.34502 -0.53500
O 	O 	0.11200 0.99065 0.29322 -0.45500
O 	O 	0.22510 0.58861 0.31203 -0.52700
O 	O 	0.31220 0.54608 0.27750 -0.55400
O 	O 	0.98910 0.67008 0.18741 -0.50000
O 	O 	0.86020 0.64776 0.11880 -0.58000
O 	O 	0.53280 0.59313 0.13117 -0.58600
O 	O 	0.44030 0.57162 0.19403 -0.50900
O 	O 	0.19780 0.70151 0.27462 -0.55800
O 	O 	0.31640 0.66264 0.31899 -0.55300
C 	C 	0.02920 0.75542 0.35356 0.42000
C 	C 	0.12600 0.82756 0.52427 0.46400
C 	C 	0.14330 0.94136 0.53116 0.40800
C 	C 	0.07040 0.98577 0.33633 0.38600
C 	C 	0.24020 0.57051 0.27158 0.46100
C 	C 	0.95530 0.64625 0.15482 0.49800
C 	C 	0.46130 0.59543 0.16444 0.47100
C 	C 	0.26850 0.67714 0.27402 0.44600
C 	C 	0.01050 0.78764 0.38368 -0.40700
C 	C 	0.93320 0.81254 0.35849 0.39700
H 	H 	0.89070 0.80900 0.32260 -0.14400
C 	C 	0.91840 0.84283 0.38620 -0.63800
C 	C 	0.98260 0.84712 0.43977 0.41000
H 	H 	0.97410 0.86710 0.45880 -0.13200
C 	C 	0.05910 0.82244 0.46569 -0.42400
C 	C 	0.07300 0.79266 0.43752 0.25600
H 	H 	0.12420 0.77600 0.45470 -0.06300
C 	C 	0.83390 0.87021 0.35690 1.25800
C 	C 	0.80430 0.89590 0.39770 -1.77000
H 	H 	0.76520 0.88470 0.42380 0.49700
H 	H 	0.87490 0.90620 0.41740 0.54700
H 	H 	0.75400 0.91300 0.37790 0.50300
C 	C 	0.89680 0.88830 0.31410 -1.65200
H 	H 	0.84690 0.90570 0.29490 0.48400
H 	H 	0.96840 0.89830 0.33340 0.51800
H 	H 	0.91360 0.87200 0.28760 0.48300
C 	C 	0.72230 0.85500 0.32430 -1.72800
H 	H 	0.68100 0.84380 0.34940 0.48600
H 	H 	0.67420 0.87260 0.30480 0.48100
H 	H 	0.74090 0.83880 0.29800 0.50500
C 	C 	0.15810 0.93804 0.47152 -0.32100
C 	C 	0.22760 0.91240 0.45603 0.30400
H 	H 	0.26250 0.89680 0.48260 -0.10300
C 	C 	0.24590 0.90966 0.40170 -0.57000
C 	C 	0.19310 0.93400 0.36338 0.29400
H 	H 	0.20480 0.93300 0.32690 -0.12400
C 	C 	0.12350 0.95960 0.37834 -0.33400
C 	C 	0.10360 0.96134 0.43232 0.18200
H 	H 	0.05440 0.97790 0.44210 -0.05800
C 	C 	0.31910 0.88126 0.38317 1.21000
C 	C 	0.40970 0.89616 0.35410 -1.68000
H 	H 	0.37180 0.90930 0.32270 0.48600
H 	H 	0.45390 0.87820 0.34160 0.46400
H 	H 	0.46130 0.91050 0.37960 0.47200
C 	C 	0.23680 0.85753 0.34420 -1.67900
H 	H 	0.19700 0.87010 0.31250 0.48300
H 	H 	0.18050 0.84810 0.36370 0.51300
H 	H 	0.28130 0.83960 0.33190 0.48300
C 	C 	0.38240 0.86014 0.43300 -1.62000
H 	H 	0.43510 0.87450 0.45800 0.46300
H 	H 	0.42570 0.84220 0.41990 0.46100
H 	H 	0.32590 0.85060 0.45240 0.50000
C 	C 	0.16890 0.57849 0.21540 -0.33300
C 	C 	0.17660 0.55923 0.16823 0.36400
H 	H 	0.22520 0.54030 0.17190 -0.12200
C 	C 	0.11270 0.56797 0.11572 -0.62500
C 	C 	0.03690 0.59551 0.11198 0.32800
H 	H 	0.98970 0.60080 0.07780 -0.10100
C 	C 	0.03020 0.61546 0.15849 -0.36600
C 	C 	0.09820 0.60718 0.21002 0.26500
H 	H 	0.09640 0.62080 0.24090 -0.05600
C 	C 	0.13440 0.54838 0.06416 1.40100
C 	C 	0.11320 0.51051 0.07140 -1.84500
H 	H 	0.12680 0.49840 0.03920 0.53400
H 	H 	0.03390 0.50700 0.07560 0.52000
H 	H 	0.16570 0.50230 0.10400 0.56500
C 	C 	0.05510 0.56052 0.01110 -1.95100
H 	H 	0.06830 0.58430 0.00590 0.54600
H 	H 	0.97500 0.55700 0.01380 0.59700
H 	H 	0.07190 0.54800 0.97990 0.53600
C 	C 	0.26160 0.55281 0.05940 -1.95100
H 	H 	0.27720 0.57640 0.05450 0.59200
H 	H 	0.27640 0.54020 0.02800 0.58300
H 	H 	0.31140 0.54470 0.09280 0.60500
C 	C 	0.39580 0.62792 0.16718 -0.33300
C 	C 	0.36090 0.64794 0.11992 0.34900
H 	H 	0.38490 0.64220 0.08700 -0.12600
C 	C 	0.29030 0.67648 0.12118 -0.59000
C 	C 	0.26050 0.68544 0.17181 0.34400
H 	H 	0.21380 0.70440 0.17340 -0.10500
C 	C 	0.29970 0.66645 0.22028 -0.32600
C 	C 	0.36410 0.63718 0.21741 0.25500
H 	H 	0.38630 0.62370 0.24890 -0.05000
C 	C 	0.24310 0.69689 0.06777 1.34400
C 	C 	0.25400 0.73550 0.08310 -0.70700
H 	H 	0.18730 0.74240 0.09800 0.32100
H 	H 	0.25690 0.74850 0.05020 0.17400
H 	H 	0.32400 0.73920 0.11040 0.19400
C 	C 	0.21100 0.67360 0.02050 -0.94200
H 	H 	0.14030 0.66180 0.02350 0.24100
H 	H 	0.27270 0.65740 0.02080 0.10400
H 	H 	0.19870 0.68620 0.98630 0.09600
C 	C 	0.10840 0.69020 0.05320 -0.77800
H 	H 	0.08560 0.67710 0.08230 0.20900
H 	H 	0.08950 0.67800 0.01860 0.20100
H 	H 	0.06750 0.71150 0.04950 0.19900
C 	C 	0.36400 0.71310 0.05320 -0.24300
H 	H 	0.42860 0.70790 0.08270 0.03300
H 	H 	0.35570 0.73730 0.04940 0.03000
H 	H 	0.37740 0.70360 0.01890 0.14600
C 	C 	0.30000 0.68990 0.02210 -1.41500
H 	H 	0.25570 0.67310 0.99830 0.72600
H 	H 	0.37720 0.68150 0.03600 0.40900
H 	H 	0.30400 0.71030 0.00120 0.36800
C 	C 	0.16000 0.72210 0.07230 -0.86800
H 	H 	0.09120 0.71160 0.08070 0.31300
H 	H 	0.14030 0.73420 0.03780 0.24700
H 	H 	0.19230 0.73750 0.10170 0.10000
Mn	Mn	0.30595 0.38032 0.88049 1.29900
Mn	Mn	0.11779 0.04169 0.13286 1.25300
Mn	Mn	0.27874 0.19883 0.12834 1.26100
O 	O 	0.39670 0.23530 0.11939 -0.53700
O 	O 	0.52720 0.24986 0.19456 -0.47600
O 	O 	0.30510 0.30458 0.95524 -0.52000
O 	O 	0.39390 0.35382 0.95039 -0.50900
O 	O 	0.42700 0.46191 0.95629 -0.49400
O 	O 	0.29030 0.42376 0.93196 -0.54900
O 	O 	0.51480 0.50269 0.15498 -0.57500
O 	O 	0.38800 0.49065 0.20678 -0.46000
O 	O 	0.27490 0.08861 0.18797 -0.52300
O 	O 	0.18780 0.04608 0.22250 -0.55400
O 	O 	0.51090 0.17008 0.31259 -0.51300
O 	O 	0.63980 0.14776 0.38120 -0.57900
O 	O 	0.96720 0.09313 0.36883 -0.55100
O 	O 	0.05970 0.07162 0.30597 -0.51000
O 	O 	0.30220 0.20151 0.22538 -0.55700
O 	O 	0.18360 0.16264 0.18101 -0.55900
C 	C 	0.47080 0.25542 0.14644 0.43800
C 	C 	0.37400 0.32756 0.97573 0.43700
C 	C 	0.35670 0.44136 0.96884 0.40600
C 	C 	0.42960 0.48577 0.16367 0.43000
C 	C 	0.25980 0.07051 0.22842 0.45900
C 	C 	0.54470 0.14625 0.34518 0.47300
C 	C 	0.03870 0.09543 0.33556 0.42900
C 	C 	0.23150 0.17714 0.22598 0.44600
C 	C 	0.48950 0.28764 0.11632 -0.32700
C 	C 	0.56680 0.31254 0.14151 0.29700
H 	H 	0.60930 0.30900 0.17740 -0.11300
C 	C 	0.58160 0.34283 0.11380 -0.56200
C 	C 	0.51740 0.34712 0.06023 0.30100
H 	H 	0.52590 0.36710 0.04120 -0.10400
C 	C 	0.44090 0.32244 0.03431 -0.33200
C 	C 	0.42700 0.29266 0.06248 0.19300
H 	H 	0.37580 0.27600 0.04530 -0.03900
C 	C 	0.66610 0.37021 0.14310 1.18600
C 	C 	0.69570 0.39590 0.10230 -1.69200
H 	H 	0.73480 0.38470 0.07620 0.47700
H 	H 	0.62510 0.40620 0.08260 0.51800
H 	H 	0.74600 0.41300 0.12210 0.48400
C 	C 	0.60320 0.38830 0.18590 -1.56500
H 	H 	0.65310 0.40570 0.20510 0.45600
H 	H 	0.53160 0.39830 0.16660 0.48000
H 	H 	0.58640 0.37200 0.21240 0.44900
C 	C 	0.77770 0.35500 0.17570 -1.66300
H 	H 	0.81900 0.34380 0.15060 0.47300
H 	H 	0.82580 0.37260 0.19520 0.46800
H 	H 	0.75910 0.33880 0.20200 0.48600
C 	C 	0.34190 0.43804 0.02848 -0.31200
C 	C 	0.27240 0.41240 0.04397 0.29900
H 	H 	0.23750 0.39680 0.01740 -0.10000
C 	C 	0.25410 0.40966 0.09830 -0.55700
C 	C 	0.30690 0.43400 0.13662 0.29700
H 	H 	0.29520 0.43300 0.17310 -0.12300
C 	C 	0.37650 0.45960 0.12166 -0.33800
C 	C 	0.39640 0.46134 0.06768 0.18600
H 	H 	0.44560 0.47790 0.05790 -0.04800
C 	C 	0.18090 0.38126 0.11683 1.17900
C 	C 	0.09030 0.39616 0.14590 -1.62800
H 	H 	0.12820 0.40930 0.17730 0.46700
H 	H 	0.04610 0.37820 0.15840 0.44200
H 	H 	0.03870 0.41050 0.12040 0.45000
C 	C 	0.26320 0.35753 0.15580 -1.65300
H 	H 	0.30300 0.37010 0.18750 0.47900
H 	H 	0.31950 0.34810 0.13630 0.51100
H 	H 	0.21870 0.33960 0.16810 0.47400
C 	C 	0.11760 0.36014 0.06700 -1.57500
H 	H 	0.06490 0.37450 0.04200 0.44500
H 	H 	0.07430 0.34220 0.08010 0.44000
H 	H 	0.17410 0.35060 0.04760 0.48500
C 	C 	0.33110 0.07849 0.28460 -0.32400
C 	C 	0.32340 0.05923 0.33177 0.35500
H 	H 	0.27480 0.04030 0.32810 -0.11700
C 	C 	0.38730 0.06797 0.38428 -0.60900
C 	C 	0.46310 0.09551 0.38802 0.36400
H 	H 	0.51030 0.10080 0.42220 -0.13300
C 	C 	0.46980 0.11546 0.34151 -0.34400
C 	C 	0.40180 0.10718 0.28998 0.25700
H 	H 	0.40360 0.12080 0.25910 -0.04600
C 	C 	0.36560 0.04838 0.43584 1.33300
C 	C 	0.38680 0.01051 0.42860 -1.78200
H 	H 	0.37320 0.99840 0.46080 0.51700
H 	H 	0.46610 0.00700 0.42440 0.50900
H 	H 	0.33430 0.00230 0.39600 0.54800
C 	C 	0.44490 0.06052 0.48890 -1.78900
H 	H 	0.43170 0.08430 0.49410 0.50900
H 	H 	0.52500 0.05700 0.48620 0.52900
H 	H 	0.42810 0.04800 0.52010 0.49800
C 	C 	0.23840 0.05281 0.44060 -1.86800
H 	H 	0.22280 0.07640 0.44550 0.56500
H 	H 	0.22360 0.04020 0.47200 0.55600
H 	H 	0.18860 0.04470 0.40720 0.57700
C 	C 	0.10420 0.12792 0.33282 -0.33000
C 	C 	0.13910 0.14794 0.38008 0.34800
H 	H 	0.11510 0.14220 0.41300 -0.13200
C 	C 	0.20970 0.17648 0.37882 -0.59900
C 	C 	0.23950 0.18544 0.32819 0.34800
H 	H 	0.28620 0.20440 0.32660 -0.10500
C 	C 	0.20030 0.16645 0.27972 -0.32900
C 	C 	0.13590 0.13718 0.28259 0.25100
H 	H 	0.11370 0.12370 0.25110 -0.05600
C 	C 	0.25690 0.19689 0.43223 1.37100
C 	C 	0.24600 0.23550 0.41690 -0.72300
H 	H 	0.31270 0.24240 0.40200 0.32800
H 	H 	0.24310 0.24850 0.44980 0.17900
H 	H 	0.17600 0.23920 0.38960 0.19500
C 	C 	0.28900 0.17360 0.47950 -0.98200
H 	H 	0.35970 0.16180 0.47650 0.25700
H 	H 	0.22730 0.15740 0.47920 0.11200
H 	H 	0.30130 0.18620 0.51370 0.10700
C 	C 	0.39160 0.19020 0.44680 -0.80100
H 	H 	0.41440 0.17710 0.41770 0.22200
H 	H 	0.41050 0.17800 0.48140 0.21200
H 	H 	0.43250 0.21150 0.45050 0.21100
C 	C 	0.13600 0.21310 0.44680 -0.22700
H 	H 	0.07140 0.20790 0.41730 0.02000
H 	H 	0.14430 0.23730 0.45060 0.02100
H 	H 	0.12260 0.20360 0.48110 0.13800
C 	C 	0.20000 0.18990 0.47790 -1.43200
H 	H 	0.24430 0.17310 0.50170 0.74200
H 	H 	0.12280 0.18150 0.46400 0.40900
H 	H 	0.19600 0.21030 0.49880 0.37200
C 	C 	0.34000 0.22210 0.42770 -0.88500
H 	H 	0.40880 0.21160 0.41930 0.32200
H 	H 	0.35970 0.23420 0.46220 0.25500
H 	H 	0.30770 0.23750 0.39830 0.10400
Mn	Mn	0.80595 0.88032 0.88049 1.30000
Mn	Mn	0.61779 0.54169 0.13286 1.25500
Mn	Mn	0.77874 0.69883 0.12834 1.26400
O 	O 	0.89670 0.73530 0.11939 -0.53300
O 	O 	0.02720 0.74986 0.19456 -0.50500
O 	O 	0.80510 0.80458 0.95524 -0.50700
O 	O 	0.89390 0.85382 0.95039 -0.49000
O 	O 	0.92700 0.96191 0.95629 -0.48300
O 	O 	0.79030 0.92376 0.93196 -0.54700
O 	O 	0.01480 0.00269 0.15498 -0.61400
O 	O 	0.88800 0.99065 0.20678 -0.46100
O 	O 	0.77490 0.58861 0.18797 -0.51800
O 	O 	0.68780 0.54608 0.22250 -0.54900
O 	O 	0.01090 0.67008 0.31259 -0.52300
O 	O 	0.13980 0.64776 0.38120 -0.57700
O 	O 	0.46720 0.59313 0.36883 -0.58600
O 	O 	0.55970 0.57162 0.30597 -0.51000
O 	O 	0.80220 0.70151 0.22538 -0.54900
O 	O 	0.68360 0.66264 0.18101 -0.55300
C 	C 	0.97080 0.75542 0.14644 0.45300
C 	C 	0.87400 0.82756 0.97573 0.41100
C 	C 	0.85670 0.94136 0.96884 0.41200
C 	C 	0.92960 0.98577 0.16367 0.47900
C 	C 	0.75980 0.57051 0.22842 0.45900
C 	C 	0.04470 0.64625 0.34518 0.44500
C 	C 	0.53870 0.59543 0.33556 0.47600
C 	C 	0.73150 0.67714 0.22598 0.44800
C 	C 	0.98950 0.78764 0.11632 -0.24200
C 	C 	0.06680 0.81254 0.14151 0.18200
H 	H 	0.10930 0.80900 0.17740 -0.07700
C 	C 	0.08160 0.84283 0.11380 -0.46200
C 	C 	0.01740 0.84712 0.06023 0.17900
H 	H 	0.02590 0.86710 0.04120 -0.07100
C 	C 	0.94090 0.82244 0.03431 -0.23700
C 	C 	0.92700 0.79266 0.06248 0.12400
H 	H 	0.87580 0.77600 0.04530 -0.01200
C 	C 	0.16610 0.87021 0.14310 1.05100
C 	C 	0.19570 0.89590 0.10230 -1.52900
H 	H 	0.23480 0.88470 0.07620 0.42400
H 	H 	0.12510 0.90620 0.08260 0.46100
H 	H 	0.24600 0.91300 0.12210 0.43000
C 	C 	0.10320 0.88830 0.18590 -1.41400
H 	H 	0.15310 0.90570 0.20510 0.40800
H 	H 	0.03160 0.89830 0.16660 0.42300
H 	H 	0.08640 0.87200 0.21240 0.39700
C 	C 	0.27770 0.85500 0.17570 -1.50200
H 	H 	0.31900 0.84380 0.15060 0.41900
H 	H 	0.32580 0.87260 0.19520 0.41500
H 	H 	0.25910 0.83880 0.20200 0.43500
C 	C 	0.84190 0.93804 0.02848 -0.32200
C 	C 	0.77240 0.91240 0.04397 0.32500
H 	H 	0.73750 0.89680 0.01740 -0.10900
C 	C 	0.75410 0.90966 0.09830 -0.59000
C 	C 	0.80690 0.93400 0.13662 0.32900
H 	H 	0.79520 0.93300 0.17310 -0.13300
C 	C 	0.87650 0.95960 0.12166 -0.35600
C 	C 	0.89640 0.96134 0.06768 0.20800
H 	H 	0.94560 0.97790 0.05790 -0.04400
C 	C 	0.68090 0.88126 0.11683 1.25200
C 	C 	0.59030 0.89616 0.14590 -1.72900
H 	H 	0.62820 0.90930 0.17730 0.50000
H 	H 	0.54610 0.87820 0.15840 0.48100
H 	H 	0.53870 0.91050 0.12040 0.48800
C 	C 	0.76320 0.85753 0.15580 -1.74100
H 	H 	0.80300 0.87010 0.18750 0.50900
H 	H 	0.81950 0.84810 0.13630 0.54400
H 	H 	0.71870 0.83960 0.16810 0.50300
C 	C 	0.61760 0.86014 0.06700 -1.66500
H 	H 	0.56490 0.87450 0.04200 0.47700
H 	H 	0.57430 0.84220 0.08010 0.47500
H 	H 	0.67410 0.85060 0.04760 0.51500
C 	C 	0.83110 0.57849 0.28460 -0.31700
C 	C 	0.82340 0.55923 0.33177 0.35000
H 	H 	0.77480 0.54030 0.32810 -0.11200
C 	C 	0.88730 0.56797 0.38428 -0.60000
C 	C 	0.96310 0.59551 0.38802 0.40600
H 	H 	0.01030 0.60080 0.42220 -0.16800
C 	C 	0.96980 0.61546 0.34151 -0.32300
C 	C 	0.90180 0.60718 0.28998 0.25100
H 	H 	0.90360 0.62080 0.25910 -0.03600
C 	C 	0.86560 0.54838 0.43584 1.28000
C 	C 	0.88680 0.51051 0.42860 -1.73400
H 	H 	0.87320 0.49840 0.46080 0.50600
H 	H 	0.96610 0.50700 0.42440 0.50400
H 	H 	0.83430 0.50230 0.39600 0.53500
C 	C 	0.94490 0.56052 0.48890 -1.63300
H 	H 	0.93170 0.58430 0.49410 0.47300
H 	H 	0.02500 0.55700 0.48620 0.46300
H 	H 	0.92810 0.54800 0.52010 0.46100
C 	C 	0.73840 0.55281 0.44060 -1.82100
H 	H 	0.72280 0.57640 0.44550 0.55400
H 	H 	0.72360 0.54020 0.47200 0.54600
H 	H 	0.68860 0.54470 0.40720 0.56700
C 	C 	0.60420 0.62792 0.33282 -0.34200
C 	C 	0.63910 0.64794 0.38008 0.36900
H 	H 	0.61510 0.64220 0.41300 -0.13300
C 	C 	0.70970 0.67648 0.37882 -0.62100
C 	C 	0.73950 0.68544 0.32819 0.36300
H 	H 	0.78620 0.70440 0.32660 -0.10700
C 	C 	0.70030 0.66645 0.27972 -0.33200
C 	C 	0.63590 0.63718 0.28259 0.26300
H 	H 	0.61370 0.62370 0.25110 -0.05300
C 	C 	0.75690 0.69689 0.43223 1.42400
C 	C 	0.74600 0.73550 0.41690 -0.73600
H 	H 	0.81270 0.74240 0.40200 0.33800
H 	H 	0.74310 0.74850 0.44980 0.18200
H 	H 	0.67600 0.73920 0.38960 0.20100
C 	C 	0.78900 0.67360 0.47950 -1.01100
H 	H 	0.85970 0.66180 0.47650 0.26600
H 	H 	0.72730 0.65740 0.47920 0.11700
H 	H 	0.80130 0.68620 0.51370 0.11300
C 	C 	0.89160 0.69020 0.44680 -0.84500
H 	H 	0.91440 0.67710 0.41770 0.24200
H 	H 	0.91050 0.67800 0.48140 0.23300
H 	H 	0.93250 0.71150 0.45050 0.23000
C 	C 	0.63600 0.71310 0.44680 -0.25500
H 	H 	0.57140 0.70790 0.41730 0.03500
H 	H 	0.64430 0.73730 0.45060 0.03200
H 	H 	0.62260 0.70360 0.48110 0.15200
C 	C 	0.70000 0.68990 0.47790 -1.47400
H 	H 	0.74430 0.67310 0.50170 0.76300
H 	H 	0.62280 0.68150 0.46400 0.42500
H 	H 	0.69600 0.71030 0.49880 0.38300
C 	C 	0.84000 0.72210 0.42770 -0.92200
H 	H 	0.90880 0.71160 0.41930 0.34000
H 	H 	0.85970 0.73420 0.46220 0.26800
H 	H 	0.80770 0.73750 0.39830 0.11000
Mn	Mn	0.30595 0.61968 0.38049 1.29900
Mn	Mn	0.11779 0.95831 0.63286 1.25300
Mn	Mn	0.27874 0.80117 0.62834 1.26100
O 	O 	0.39670 0.76470 0.61939 -0.53800
O 	O 	0.52720 0.75014 0.69456 -0.47600
O 	O 	0.30510 0.69542 0.45524 -0.51900
O 	O 	0.39390 0.64618 0.45039 -0.50900
O 	O 	0.42700 0.53809 0.45629 -0.49400
O 	O 	0.29030 0.57624 0.43196 -0.54900
O 	O 	0.51480 0.49731 0.65498 -0.57500
O 	O 	0.38800 0.50935 0.70678 -0.46000
O 	O 	0.27490 0.91139 0.68797 -0.52300
O 	O 	0.18780 0.95392 0.72250 -0.55400
O 	O 	0.51090 0.82992 0.81259 -0.51300
O 	O 	0.63980 0.85224 0.88120 -0.57900
O 	O 	0.96720 0.90687 0.86883 -0.55000
O 	O 	0.05970 0.92838 0.80597 -0.51000
O 	O 	0.30220 0.79849 0.72538 -0.55700
O 	O 	0.18360 0.83736 0.68101 -0.56000
C 	C 	0.47080 0.74458 0.64644 0.43800
C 	C 	0.37400 0.67244 0.47573 0.43900
C 	C 	0.35670 0.55864 0.46884 0.40700
C 	C 	0.42960 0.51423 0.66367 0.43000
C 	C 	0.25980 0.92949 0.72842 0.45900
C 	C 	0.54470 0.85375 0.84518 0.47300
C 	C 	0.03870 0.90457 0.83556 0.42800
C 	C 	0.23150 0.82286 0.72598 0.44600
C 	C 	0.48950 0.71236 0.61632 -0.32800
C 	C 	0.56680 0.68746 0.64151 0.29800
H 	H 	0.60930 0.69100 0.67740 -0.11400
C 	C 	0.58160 0.65717 0.61380 -0.56300
C 	C 	0.51740 0.65288 0.56023 0.30200
H 	H 	0.52590 0.63290 0.54120 -0.10500
C 	C 	0.44090 0.67756 0.53431 -0.33400
C 	C 	0.42700 0.70734 0.56248 0.19400
H 	H 	0.37580 0.72400 0.54530 -0.03900
C 	C 	0.66610 0.62979 0.64310 1.18800
C 	C 	0.69570 0.60410 0.60230 -1.69400
H 	H 	0.73480 0.61530 0.57620 0.47800
H 	H 	0.62510 0.59380 0.58260 0.51900
H 	H 	0.74600 0.58700 0.62210 0.48500
C 	C 	0.60320 0.61170 0.68590 -1.56600
H 	H 	0.65310 0.59430 0.70510 0.45600
H 	H 	0.53160 0.60170 0.66660 0.48100
H 	H 	0.58640 0.62800 0.71240 0.45000
C 	C 	0.77770 0.64500 0.67570 -1.66600
H 	H 	0.81900 0.65620 0.65060 0.47400
H 	H 	0.82580 0.62740 0.69520 0.46900
H 	H 	0.75910 0.66120 0.70200 0.48700
C 	C 	0.34190 0.56196 0.52848 -0.31400
C 	C 	0.27240 0.58760 0.54397 0.30000
H 	H 	0.23750 0.60320 0.51740 -0.10000
C 	C 	0.25410 0.59034 0.59830 -0.55700
C 	C 	0.30690 0.56600 0.63662 0.29600
H 	H 	0.29520 0.56700 0.67310 -0.12300
C 	C 	0.37650 0.54040 0.62166 -0.33800
C 	C 	0.39640 0.53866 0.56768 0.18700
H 	H 	0.44560 0.52210 0.55790 -0.04900
C 	C 	0.18090 0.61874 0.61683 1.17500
C 	C 	0.09030 0.60384 0.64590 -1.62400
H 	H 	0.12820 0.59070 0.67730 0.46500
H 	H 	0.04610 0.62180 0.65840 0.44000
H 	H 	0.03870 0.58950 0.62040 0.44900
C 	C 	0.26320 0.64247 0.65580 -1.64900
H 	H 	0.30300 0.62990 0.68750 0.47800
H 	H 	0.31950 0.65190 0.63630 0.51000
H 	H 	0.21870 0.66040 0.66810 0.47300
C 	C 	0.11760 0.63986 0.56700 -1.57100
H 	H 	0.06490 0.62550 0.54200 0.44300
H 	H 	0.07430 0.65780 0.58010 0.43900
H 	H 	0.17410 0.64940 0.54760 0.48300
C 	C 	0.33110 0.92151 0.78460 -0.32400
C 	C 	0.32340 0.94077 0.83177 0.35500
H 	H 	0.27480 0.95970 0.82810 -0.11700
C 	C 	0.38730 0.93203 0.88428 -0.60900
C 	C 	0.46310 0.90449 0.88802 0.36400
H 	H 	0.51030 0.89920 0.92220 -0.13300
C 	C 	0.46980 0.88454 0.84151 -0.34400
C 	C 	0.40180 0.89282 0.78998 0.25700
H 	H 	0.40360 0.87920 0.75910 -0.04600
C 	C 	0.36560 0.95162 0.93584 1.33400
C 	C 	0.38680 0.98949 0.92860 -1.78100
H 	H 	0.37320 0.00160 0.96080 0.51600
H 	H 	0.46610 0.99300 0.92440 0.50900
H 	H 	0.33430 0.99770 0.89600 0.54800
C 	C 	0.44490 0.93948 0.98890 -1.79200
H 	H 	0.43170 0.91570 0.99410 0.50900
H 	H 	0.52500 0.94300 0.98620 0.53000
H 	H 	0.42810 0.95200 0.02010 0.50000
C 	C 	0.23840 0.94719 0.94060 -1.86700
H 	H 	0.22280 0.92360 0.94550 0.56500
H 	H 	0.22360 0.95980 0.97200 0.55500
H 	H 	0.18860 0.95530 0.90720 0.57600
C 	C 	0.10420 0.87208 0.83282 -0.33200
C 	C 	0.13910 0.85206 0.88008 0.35000
H 	H 	0.11510 0.85780 0.91300 -0.13300
C 	C 	0.20970 0.82352 0.87882 -0.60400
C 	C 	0.23950 0.81456 0.82819 0.35000
H 	H 	0.28620 0.79560 0.82660 -0.10600
C 	C 	0.20030 0.83355 0.77972 -0.33000
C 	C 	0.13590 0.86282 0.78259 0.25200
H 	H 	0.11370 0.87630 0.75110 -0.05600
C 	C 	0.25690 0.80311 0.93223 1.38200
C 	C 	0.24600 0.76450 0.91690 -0.73000
H 	H 	0.31270 0.75760 0.90200 0.33000
H 	H 	0.24310 0.75150 0.94980 0.18100
H 	H 	0.17600 0.76080 0.88960 0.19600
C 	C 	0.28900 0.82640 0.97950 -0.99300
H 	H 	0.35970 0.83820 0.97650 0.26000
H 	H 	0.22730 0.84260 0.97920 0.11200
H 	H 	0.30130 0.81380 0.01370 0.10800
C 	C 	0.39160 0.80980 0.94680 -0.80200
H 	H 	0.41440 0.82290 0.91770 0.22200
H 	H 	0.41050 0.82200 0.98140 0.21200
H 	H 	0.43250 0.78850 0.95050 0.21100
C 	C 	0.13600 0.78690 0.94680 -0.21900
H 	H 	0.07140 0.79210 0.91730 0.01700
H 	H 	0.14430 0.76270 0.95060 0.01800
H 	H 	0.12260 0.79640 0.98110 0.13600
C 	C 	0.20000 0.81010 0.97790 -1.44900
H 	H 	0.24430 0.82690 0.00170 0.75300
H 	H 	0.12280 0.81850 0.96400 0.41400
H 	H 	0.19600 0.78970 0.99880 0.37600
C 	C 	0.34000 0.77790 0.92770 -0.89100
H 	H 	0.40880 0.78840 0.91930 0.32400
H 	H 	0.35970 0.76580 0.96220 0.25600
H 	H 	0.30770 0.76250 0.89830 0.10500
Mn	Mn	0.80595 0.11968 0.38049 1.30000
Mn	Mn	0.61779 0.45831 0.63286 1.25500
Mn	Mn	0.77874 0.30117 0.62834 1.26400
O 	O 	0.89670 0.26470 0.61939 -0.53300
O 	O 	0.02720 0.25014 0.69456 -0.50600
O 	O 	0.80510 0.19542 0.45524 -0.50700
O 	O 	0.89390 0.14618 0.45039 -0.49000
O 	O 	0.92700 0.03809 0.45629 -0.48300
O 	O 	0.79030 0.07624 0.43196 -0.54700
O 	O 	0.01480 0.99731 0.65498 -0.61500
O 	O 	0.88800 0.00935 0.70678 -0.46200
O 	O 	0.77490 0.41139 0.68797 -0.51800
O 	O 	0.68780 0.45392 0.72250 -0.54900
O 	O 	0.01090 0.32992 0.81259 -0.52300
O 	O 	0.13980 0.35224 0.88120 -0.57700
O 	O 	0.46720 0.40687 0.86883 -0.58600
O 	O 	0.55970 0.42838 0.80597 -0.51000
O 	O 	0.80220 0.29849 0.72538 -0.54900
O 	O 	0.68360 0.33736 0.68101 -0.55300
C 	C 	0.97080 0.24458 0.64644 0.45400
C 	C 	0.87400 0.17244 0.47573 0.41000
C 	C 	0.85670 0.05864 0.46884 0.41200
C 	C 	0.92960 0.01423 0.66367 0.48100
C 	C 	0.75980 0.42949 0.72842 0.45900
C 	C 	0.04470 0.35375 0.84518 0.44400
C 	C 	0.53870 0.40457 0.83556 0.47600
C 	C 	0.73150 0.32286 0.72598 0.44900
C 	C 	0.98950 0.21236 0.61632 -0.23900
C 	C 	0.06680 0.18746 0.64151 0.17800
H 	H 	0.10930 0.19100 0.67740 -0.07600
C 	C 	0.08160 0.15717 0.61380 -0.45800
C 	C 	0.01740 0.15288 0.56023 0.17400
H 	H 	0.02590 0.13290 0.54120 -0.07000
C 	C 	0.94090 0.17756 0.53431 -0.23300
C 	C 	0.92700 0.20734 0.56248 0.12100
H 	H 	0.87580 0.22400 0.54530 -0.01100
C 	C 	0.16610 0.12979 0.64310 1.04700
C 	C 	0.19570 0.10410 0.60230 -1.52400
H 	H 	0.23480 0.11530 0.57620 0.42300
H 	H 	0.12510 0.09380 0.58260 0.46000
H 	H 	0.24600 0.08700 0.62210 0.42900
C 	C 	0.10320 0.11170 0.68590 -1.41000
H 	H 	0.15310 0.09430 0.70510 0.40700
H 	H 	0.03160 0.10170 0.66660 0.42100
H 	H 	0.08640 0.12800 0.71240 0.39500
C 	C 	0.27770 0.14500 0.67570 -1.49800
H 	H 	0.31900 0.15620 0.65060 0.41700
H 	H 	0.32580 0.12740 0.69520 0.41400
H 	H 	0.25910 0.16120 0.70200 0.43300
C 	C 	0.84190 0.06196 0.52848 -0.32200
C 	C 	0.77240 0.08760 0.54397 0.32500
H 	H 	0.73750 0.10320 0.51740 -0.10900
C 	C 	0.75410 0.09034 0.59830 -0.59000
C 	C 	0.80690 0.06600 0.63662 0.32900
H 	H 	0.79520 0.06700 0.67310 -0.13300
C 	C 	0.87650 0.04040 0.62166 -0.35600
C 	C 	0.89640 0.03866 0.56768 0.20800
H 	H 	0.94560 0.02210 0.55790 -0.04400
C 	C 	0.68090 0.11874 0.61683 1.25300
C 	C 	0.59030 0.10384 0.64590 -1.72900
H 	H 	0.62820 0.09070 0.67730 0.50000
H 	H 	0.54610 0.12180 0.65840 0.48100
H 	H 	0.53870 0.08950 0.62040 0.48800
C 	C 	0.76320 0.14247 0.65580 -1.74200
H 	H 	0.80300 0.12990 0.68750 0.50900
H 	H 	0.81950 0.15190 0.63630 0.54400
H 	H 	0.71870 0.16040 0.66810 0.50300
C 	C 	0.61760 0.13986 0.56700 -1.66500
H 	H 	0.56490 0.12550 0.54200 0.47700
H 	H 	0.57430 0.15780 0.58010 0.47500
H 	H 	0.67410 0.14940 0.54760 0.51500
C 	C 	0.83110 0.42151 0.78460 -0.31600
C 	C 	0.82340 0.44077 0.83177 0.34900
H 	H 	0.77480 0.45970 0.82810 -0.11200
C 	C 	0.88730 0.43203 0.88428 -0.59900
C 	C 	0.96310 0.40449 0.88802 0.40700
H 	H 	0.01030 0.39920 0.92220 -0.16900
C 	C 	0.96980 0.38454 0.84151 -0.32200
C 	C 	0.90180 0.39282 0.78998 0.25000
H 	H 	0.90360 0.37920 0.75910 -0.03600
C 	C 	0.86560 0.45162 0.93584 1.27600
C 	C 	0.88680 0.48949 0.92860 -1.73100
H 	H 	0.87320 0.50160 0.96080 0.50500
H 	H 	0.96610 0.49300 0.92440 0.50300
H 	H 	0.83430 0.49770 0.89600 0.53400
C 	C 	0.94490 0.43948 0.98890 -1.62500
H 	H 	0.93170 0.41570 0.99410 0.47100
H 	H 	0.02500 0.44300 0.98620 0.46000
H 	H 	0.92810 0.45200 0.02010 0.45900
C 	C 	0.73840 0.44719 0.94060 -1.81700
H 	H 	0.72280 0.42360 0.94550 0.55300
H 	H 	0.72360 0.45980 0.97200 0.54500
H 	H 	0.68860 0.45530 0.90720 0.56600
C 	C 	0.60420 0.37208 0.83282 -0.34300
C 	C 	0.63910 0.35206 0.88008 0.37000
H 	H 	0.61510 0.35780 0.91300 -0.13300
C 	C 	0.70970 0.32352 0.87882 -0.62300
C 	C 	0.73950 0.31456 0.82819 0.36400
H 	H 	0.78620 0.29560 0.82660 -0.10700
C 	C 	0.70030 0.33355 0.77972 -0.33200
C 	C 	0.63590 0.36282 0.78259 0.26400
H 	H 	0.61370 0.37630 0.75110 -0.05300
C 	C 	0.75690 0.30311 0.93223 1.42800
C 	C 	0.74600 0.26450 0.91690 -0.73700
H 	H 	0.81270 0.25760 0.90200 0.33900
H 	H 	0.74310 0.25150 0.94980 0.18200
H 	H 	0.67600 0.26080 0.88960 0.20100
C 	C 	0.78900 0.32640 0.97950 -1.01400
H 	H 	0.85970 0.33820 0.97650 0.26700
H 	H 	0.72730 0.34260 0.97920 0.11700
H 	H 	0.80130 0.31380 0.01370 0.11300
C 	C 	0.89160 0.30980 0.94680 -0.84600
H 	H 	0.91440 0.32290 0.91770 0.24200
H 	H 	0.91050 0.32200 0.98140 0.23200
H 	H 	0.93250 0.28850 0.95050 0.22900
C 	C 	0.63600 0.28690 0.94680 -0.25200
H 	H 	0.57140 0.29210 0.91730 0.03400
H 	H 	0.64430 0.26270 0.95060 0.03100
H 	H 	0.62260 0.29640 0.98110 0.15200
C 	C 	0.70000 0.31010 0.97790 -1.48100
H 	H 	0.74430 0.32690 0.00170 0.76600
H 	H 	0.62280 0.31850 0.96400 0.42700
H 	H 	0.69600 0.28970 0.99880 0.38500
C 	C 	0.84000 0.27790 0.92770 -0.92700
H 	H 	0.90880 0.28840 0.91930 0.34200
H 	H 	0.85970 0.26580 0.96220 0.27000
H 	H 	0.80770 0.26250 0.89830 0.11000
Mn	Mn	0.69405 0.61968 0.11951 1.30000
Mn	Mn	0.88221 0.95831 0.86714 1.25700
Mn	Mn	0.72126 0.80117 0.87166 1.26400
O 	O 	0.60330 0.76470 0.88061 -0.53500
O 	O 	0.47280 0.75014 0.80544 -0.47600
O 	O 	0.69490 0.69542 0.04476 -0.51600
O 	O 	0.60610 0.64618 0.04961 -0.50700
O 	O 	0.57300 0.53809 0.04371 -0.49500
O 	O 	0.70970 0.57624 0.06804 -0.54600
O 	O 	0.48520 0.49731 0.84502 -0.57700
O 	O 	0.61200 0.50935 0.79322 -0.46000
O 	O 	0.72510 0.91139 0.81203 -0.52200
O 	O 	0.81220 0.95392 0.77750 -0.54600
O 	O 	0.48910 0.82992 0.68741 -0.51400
O 	O 	0.36020 0.85224 0.61880 -0.57900
O 	O 	0.03280 0.90687 0.63117 -0.62100
O 	O 	0.94030 0.92838 0.69403 -0.50400
O 	O 	0.69780 0.79849 0.77462 -0.55400
O 	O 	0.81640 0.83736 0.81899 -0.54700
C 	C 	0.52920 0.74458 0.85356 0.43600
C 	C 	0.62600 0.67244 0.02427 0.43600
C 	C 	0.64330 0.55864 0.03116 0.41400
C 	C 	0.57040 0.51423 0.83633 0.43700
C 	C 	0.74020 0.92949 0.77158 0.46000
C 	C 	0.45530 0.85375 0.65482 0.47400
C 	C 	0.96130 0.90457 0.66444 0.51800
C 	C 	0.76850 0.82286 0.77402 0.45000
C 	C 	0.51050 0.71236 0.88368 -0.31900
C 	C 	0.43320 0.68746 0.85849 0.27900
H 	H 	0.39070 0.69100 0.82260 -0.10700
C 	C 	0.41840 0.65717 0.88620 -0.53400
C 	C 	0.48260 0.65288 0.93977 0.28400
H 	H 	0.47410 0.63290 0.95880 -0.09800
C 	C 	0.55910 0.67756 0.96569 -0.32500
C 	C 	0.57300 0.70734 0.93752 0.18500
H 	H 	0.62420 0.72400 0.95470 -0.03500
C 	C 	0.33390 0.62979 0.85690 1.11900
C 	C 	0.30430 0.60410 0.89770 -1.60100
H 	H 	0.26520 0.61530 0.92380 0.44300
H 	H 	0.37490 0.59380 0.91740 0.48900
H 	H 	0.25400 0.58700 0.87790 0.44800
C 	C 	0.39680 0.61170 0.81410 -1.49800
H 	H 	0.34690 0.59430 0.79490 0.43500
H 	H 	0.46840 0.60170 0.83340 0.45900
H 	H 	0.41360 0.62800 0.78760 0.42900
C 	C 	0.22230 0.64500 0.82430 -1.56200
H 	H 	0.18100 0.65620 0.84940 0.43000
H 	H 	0.17420 0.62740 0.80480 0.42700
H 	H 	0.24090 0.66120 0.79800 0.45200
C 	C 	0.65810 0.56196 0.97152 -0.32900
C 	C 	0.72760 0.58760 0.95603 0.33000
H 	H 	0.76250 0.60320 0.98260 -0.11200
C 	C 	0.74590 0.59034 0.90170 -0.60500
C 	C 	0.69310 0.56600 0.86338 0.32800
H 	H 	0.70480 0.56700 0.82690 -0.13500
C 	C 	0.62350 0.54040 0.87834 -0.35300
C 	C 	0.60360 0.53866 0.93232 0.20400
H 	H 	0.55440 0.52210 0.94210 -0.05400
C 	C 	0.81910 0.61874 0.88317 1.28900
C 	C 	0.90970 0.60384 0.85410 -1.78800
H 	H 	0.87180 0.59070 0.82270 0.52200
H 	H 	0.95390 0.62180 0.84160 0.50600
H 	H 	0.96130 0.58950 0.87960 0.51300
C 	C 	0.73680 0.64247 0.84420 -1.77400
H 	H 	0.69700 0.62990 0.81250 0.51500
H 	H 	0.68050 0.65190 0.86370 0.54800
H 	H 	0.78130 0.66040 0.83190 0.51400
C 	C 	0.88240 0.63986 0.93300 -1.71700
H 	H 	0.93510 0.62550 0.95800 0.49900
H 	H 	0.92570 0.65780 0.91990 0.49800
H 	H 	0.82590 0.64940 0.95240 0.53200
C 	C 	0.66890 0.92151 0.71540 -0.32600
C 	C 	0.67660 0.94077 0.66823 0.36100
H 	H 	0.72520 0.95970 0.67190 -0.11800
C 	C 	0.61270 0.93203 0.61572 -0.61900
C 	C 	0.53690 0.90449 0.61198 0.37000
H 	H 	0.48970 0.89920 0.57780 -0.13500
C 	C 	0.53020 0.88454 0.65849 -0.34700
C 	C 	0.59820 0.89282 0.71002 0.25900
H 	H 	0.59640 0.87920 0.74090 -0.04700
C 	C 	0.63440 0.95162 0.56416 1.35800
C 	C 	0.61320 0.98949 0.57140 -1.80600
H 	H 	0.62680 0.00160 0.53920 0.52400
H 	H 	0.53390 0.99300 0.57560 0.51600
H 	H 	0.66570 0.99770 0.60400 0.55500
C 	C 	0.55510 0.93948 0.51110 -1.81700
H 	H 	0.56830 0.91570 0.50590 0.51700
H 	H 	0.47500 0.94300 0.51380 0.53800
H 	H 	0.57190 0.95200 0.47990 0.50700
C 	C 	0.76160 0.94719 0.55940 -1.91400
H 	H 	0.77720 0.92360 0.55450 0.58500
H 	H 	0.77640 0.95980 0.52800 0.57600
H 	H 	0.81140 0.95530 0.59280 0.59900
C 	C 	0.89580 0.87208 0.66718 -0.34600
C 	C 	0.86090 0.85206 0.61992 0.37200
H 	H 	0.88490 0.85780 0.58700 -0.12700
C 	C 	0.79030 0.82352 0.62118 -0.61600
C 	C 	0.76050 0.81456 0.67181 0.36200
H 	H 	0.71380 0.79560 0.67340 -0.10800
C 	C 	0.79970 0.83355 0.72028 -0.33000
C 	C 	0.86410 0.86282 0.71741 0.26900
H 	H 	0.88630 0.87630 0.74890 -0.04800
C 	C 	0.74310 0.80311 0.56777 1.40600
C 	C 	0.75400 0.76450 0.58310 -0.73300
H 	H 	0.68730 0.75760 0.59800 0.33400
H 	H 	0.75690 0.75150 0.55020 0.18100
H 	H 	0.82400 0.76080 0.61040 0.20400
C 	C 	0.71100 0.82640 0.52050 -0.98400
H 	H 	0.64030 0.83820 0.52350 0.25500
H 	H 	0.77270 0.84260 0.52080 0.11100
H 	H 	0.69870 0.81380 0.48630 0.10400
C 	C 	0.60840 0.80980 0.55320 -0.82400
H 	H 	0.58560 0.82290 0.58230 0.22800
H 	H 	0.58950 0.82200 0.51860 0.22000
H 	H 	0.56750 0.78850 0.54950 0.21700
C 	C 	0.86400 0.78690 0.55320 -0.26300
H 	H 	0.92860 0.79210 0.58270 0.04600
H 	H 	0.85570 0.76270 0.54940 0.03800
H 	H 	0.87740 0.79640 0.51890 0.15900
C 	C 	0.80000 0.81010 0.52210 -1.47100
H 	H 	0.75570 0.82690 0.49830 0.75600
H 	H 	0.87720 0.81850 0.53600 0.42900
H 	H 	0.80400 0.78970 0.50120 0.38300
C 	C 	0.66000 0.77790 0.57230 -0.90500
H 	H 	0.59120 0.78840 0.58070 0.33000
H 	H 	0.64030 0.76580 0.53780 0.26000
H 	H 	0.69230 0.76250 0.60170 0.10700
Mn	Mn	0.19405 0.11968 0.11951 1.29900
Mn	Mn	0.38221 0.45831 0.86714 1.25400
Mn	Mn	0.22126 0.30117 0.87166 1.26100
O 	O 	0.10330 0.26470 0.88061 -0.53900
O 	O 	0.97280 0.25014 0.80544 -0.44100
O 	O 	0.19490 0.19542 0.04476 -0.52800
O 	O 	0.10610 0.14618 0.04961 -0.52700
O 	O 	0.07300 0.03809 0.04371 -0.50600
O 	O 	0.20970 0.07624 0.06804 -0.54800
O 	O 	0.98520 0.99731 0.84502 -0.53400
O 	O 	0.11200 0.00935 0.79322 -0.45500
O 	O 	0.22510 0.41139 0.81203 -0.52700
O 	O 	0.31220 0.45392 0.77750 -0.55400
O 	O 	0.98910 0.32992 0.68741 -0.49900
O 	O 	0.86020 0.35224 0.61880 -0.58000
O 	O 	0.53280 0.40687 0.63117 -0.58600
O 	O 	0.44030 0.42838 0.69403 -0.51000
O 	O 	0.19780 0.29849 0.77462 -0.55800
O 	O 	0.31640 0.33736 0.81899 -0.55300
C 	C 	0.02920 0.24458 0.85356 0.42000
C 	C 	0.12600 0.17244 0.02427 0.46800
C 	C 	0.14330 0.05864 0.03116 0.41100
C 	C 	0.07040 0.01423 0.83633 0.38400
C 	C 	0.24020 0.42949 0.77158 0.46100
C 	C 	0.95530 0.35375 0.65482 0.50000
C 	C 	0.46130 0.40457 0.66444 0.47200
C 	C 	0.26850 0.32286 0.77402 0.44700
C 	C 	0.01050 0.21236 0.88368 -0.41000
C 	C 	0.93320 0.18746 0.85849 0.40100
H 	H 	0.89070 0.19100 0.82260 -0.14500
C 	C 	0.91840 0.15717 0.88620 -0.64200
C 	C 	0.98260 0.15288 0.93977 0.41500
H 	H 	0.97410 0.13290 0.95880 -0.13400
C 	C 	0.05910 0.17756 0.96569 -0.42900
C 	C 	0.07300 0.20734 0.93752 0.25900
H 	H 	0.12420 0.22400 0.95470 -0.06400
C 	C 	0.83390 0.12979 0.85690 1.26200
C 	C 	0.80430 0.10410 0.89770 -1.77400
H 	H 	0.76520 0.11530 0.92380 0.49900
H 	H 	0.87490 0.09380 0.91740 0.54800
H 	H 	0.75400 0.08700 0.87790 0.50400
C 	C 	0.89680 0.11170 0.81410 -1.65700
H 	H 	0.84690 0.09430 0.79490 0.48500
H 	H 	0.96840 0.10170 0.83340 0.51900
H 	H 	0.91360 0.12800 0.78760 0.48500
C 	C 	0.72230 0.14500 0.82430 -1.73300
H 	H 	0.68100 0.15620 0.84940 0.48700
H 	H 	0.67420 0.12740 0.80480 0.48300
H 	H 	0.74090 0.16120 0.79800 0.50600
C 	C 	0.15810 0.06196 0.97152 -0.32300
C 	C 	0.22760 0.08760 0.95603 0.30500
H 	H 	0.26250 0.10320 0.98260 -0.10400
C 	C 	0.24590 0.09034 0.90170 -0.57100
C 	C 	0.19310 0.06600 0.86338 0.29500
H 	H 	0.20480 0.06700 0.82690 -0.12400
C 	C 	0.12350 0.04040 0.87834 -0.33500
C 	C 	0.10360 0.03866 0.93232 0.18300
H 	H 	0.05440 0.02210 0.94210 -0.05900
C 	C 	0.31910 0.11874 0.88317 1.20900
C 	C 	0.40970 0.10384 0.85410 -1.67900
H 	H 	0.37180 0.09070 0.82270 0.48600
H 	H 	0.45390 0.12180 0.84160 0.46400
H 	H 	0.46130 0.08950 0.87960 0.47200
C 	C 	0.23680 0.14247 0.84420 -1.67900
H 	H 	0.19700 0.12990 0.81250 0.48300
H 	H 	0.18050 0.15190 0.86370 0.51200
H 	H 	0.28130 0.16040 0.83190 0.48300
C 	C 	0.38240 0.13986 0.93300 -1.61900
H 	H 	0.43510 0.12550 0.95800 0.46300
H 	H 	0.42570 0.15780 0.91990 0.46000
H 	H 	0.32590 0.14940 0.95240 0.50000
C 	C 	0.16890 0.42151 0.71540 -0.33500
C 	C 	0.17660 0.44077 0.66823 0.36600
H 	H 	0.22520 0.45970 0.67190 -0.12300
C 	C 	0.11270 0.43203 0.61572 -0.62800
C 	C 	0.03690 0.40449 0.61198 0.32800
H 	H 	0.98970 0.39920 0.57780 -0.10000
C 	C 	0.03020 0.38454 0.65849 -0.36800
C 	C 	0.09820 0.39282 0.71002 0.26600
H 	H 	0.09640 0.37920 0.74090 -0.05600
C 	C 	0.13440 0.45162 0.56416 1.41100
C 	C 	0.11320 0.48949 0.57140 -1.85500
H 	H 	0.12680 0.50160 0.53920 0.53600
H 	H 	0.03390 0.49300 0.57560 0.52200
H 	H 	0.16570 0.49770 0.60400 0.56800
C 	C 	0.05510 0.43948 0.51110 -1.97300
H 	H 	0.06830 0.41570 0.50590 0.55200
H 	H 	0.97500 0.44300 0.51380 0.60400
H 	H 	0.07190 0.45200 0.47990 0.54400
C 	C 	0.26160 0.44719 0.55940 -1.96100
H 	H 	0.27720 0.42360 0.55450 0.59500
H 	H 	0.27640 0.45980 0.52800 0.58600
H 	H 	0.31140 0.45530 0.59280 0.60800
C 	C 	0.39580 0.37208 0.66718 -0.33400
C 	C 	0.36090 0.35206 0.61992 0.35100
H 	H 	0.38490 0.35780 0.58700 -0.12700
C 	C 	0.29030 0.32352 0.62118 -0.59400
C 	C 	0.26050 0.31456 0.67181 0.34700
H 	H 	0.21380 0.29560 0.67340 -0.10600
C 	C 	0.29970 0.33355 0.72028 -0.32700
C 	C 	0.36410 0.36282 0.71741 0.25700
H 	H 	0.38630 0.37630 0.74890 -0.05100
C 	C 	0.24310 0.30311 0.56777 1.35400
C 	C 	0.25400 0.26450 0.58310 -0.71900
H 	H 	0.18730 0.25760 0.59800 0.32300
H 	H 	0.25690 0.25150 0.55020 0.17800
H 	H 	0.32400 0.26080 0.61040 0.19700
C 	C 	0.21100 0.32640 0.52050 -0.95600
H 	H 	0.14030 0.33820 0.52350 0.24500
H 	H 	0.27270 0.34260 0.52080 0.10500
H 	H 	0.19870 0.31380 0.48630 0.09800
C 	C 	0.10840 0.30980 0.55320 -0.77900
H 	H 	0.08560 0.32290 0.58230 0.20800
H 	H 	0.08950 0.32200 0.51860 0.20000
H 	H 	0.06750 0.28850 0.54950 0.19900
C 	C 	0.36400 0.28690 0.55320 -0.23500
H 	H 	0.42860 0.29210 0.58270 0.03000
H 	H 	0.35570 0.26270 0.54940 0.02700
H 	H 	0.37740 0.29640 0.51890 0.14400
C 	C 	0.30000 0.31010 0.52210 -1.43000
H 	H 	0.25570 0.32690 0.49830 0.73600
H 	H 	0.37720 0.31850 0.53600 0.41300
H 	H 	0.30400 0.28970 0.50120 0.37200
C 	C 	0.16000 0.27790 0.57230 -0.86800
H 	H 	0.09120 0.28840 0.58070 0.31200
H 	H 	0.14030 0.26580 0.53780 0.24600
H 	H 	0.19230 0.26250 0.60170 0.10100
Mn	Mn	0.50000 0.20913 0.25000 1.30800
Mn	Mn	0.00000 0.70913 0.25000 1.29500
Mn	Mn	0.50000 0.79087 0.75000 1.30800
Mn	Mn	0.00000 0.29087 0.75000 1.29500
Mn	Mn	0.00000 0.03130 0.25000 1.28900
Mn	Mn	0.50000 0.53130 0.25000 1.30300
Mn	Mn	-0.00000 0.96871 0.75000 1.28900
Mn	Mn	0.50000 0.46870 0.75000 1.30300
