data_crystal

_cell_length_a 8.77130
_cell_length_b 15.89940
_cell_length_c 18.16470
_cell_angle_alpha 90.00000
_cell_angle_beta  90.00000
_cell_angle_gamma 90.00410

_symmetry_space_group_name_	'P 1'
_symmetry_space_group_name_H-M	'P 1'

loop_
_symmetry_equiv_pos_as_xyz
  x,y,z

loop_
_atom_site_label
_atom_site_type_symbol
_atom_site_fract_x
_atom_site_fract_y
_atom_site_fract_z
_atom_site_charge
Zn	Zn	0.61324 0.56708 0.48077 1.21600
Zn	Zn	0.38676 0.93292 0.98077 1.21500
Zn	Zn	0.38676 0.43292 0.51923 1.21600
Zn	Zn	0.61324 0.06708 0.01923 1.21500
H 	H 	0.09830 0.58050 0.66620 0.00900
H 	H 	0.45490 0.74030 0.64450 0.01400
H 	H 	0.33400 0.83660 0.72170 0.06800
H 	H 	0.15160 0.92740 0.80840 0.07600
H 	H 	0.95420 0.98250 0.87930 0.01600
H 	H 	0.69380 0.77610 0.84060 0.00800
H 	H 	0.98690 0.62230 0.84620 0.24200
H 	H 	0.91820 0.56190 0.78410 0.23400
H 	H 	0.80630 0.61630 0.83480 0.23300
H 	H 	0.79340 0.72630 0.66160 0.23800
H 	H 	0.68650 0.68060 0.72080 0.23300
H 	H 	0.79810 0.62610 0.66990 0.23600
H 	H 	0.94610 0.61470 0.51390 -0.00500
H 	H 	0.09200 0.73610 0.52630 0.08700
H 	H 	0.72630 0.87040 0.46030 0.08500
H 	H 	0.59270 0.74640 0.44860 -0.00400
H 	H 	0.11490 0.89240 0.52080 0.05400
H 	H 	0.90170 0.91950 0.16620 0.01200
H 	H 	0.54510 0.75970 0.14450 0.01500
H 	H 	0.66600 0.66340 0.22170 0.06900
H 	H 	0.84840 0.57260 0.30840 0.07700
H 	H 	0.04580 0.51750 0.37930 0.01900
H 	H 	0.30620 0.72390 0.34060 0.00900
H 	H 	0.01310 0.87770 0.34620 0.24200
H 	H 	0.08180 0.93810 0.28410 0.23400
H 	H 	0.19370 0.88370 0.33480 0.23300
H 	H 	0.20660 0.77370 0.16160 0.23800
H 	H 	0.31350 0.81940 0.22080 0.23300
H 	H 	0.20190 0.87390 0.16990 0.23600
H 	H 	0.05390 0.88530 0.01390 -0.00500
H 	H 	0.90800 0.76390 0.02630 0.08900
H 	H 	0.27370 0.62960 0.96030 0.08400
H 	H 	0.40730 0.75360 0.94860 -0.00400
H 	H 	0.88510 0.60760 0.02080 0.05200
H 	H 	0.90170 0.41950 0.33380 0.01000
H 	H 	0.54510 0.25970 0.35550 0.01500
H 	H 	0.66600 0.16340 0.27830 0.06900
H 	H 	0.84840 0.07260 0.19160 0.07700
H 	H 	0.04580 0.01750 0.12070 0.01700
H 	H 	0.30620 0.22390 0.15940 0.00900
H 	H 	0.01310 0.37770 0.15380 0.24300
H 	H 	0.08180 0.43810 0.21590 0.23500
H 	H 	0.19370 0.38370 0.16520 0.23300
H 	H 	0.20660 0.27370 0.33840 0.23800
H 	H 	0.31350 0.31940 0.27920 0.23300
H 	H 	0.20190 0.37390 0.33010 0.23600
H 	H 	0.05390 0.38530 0.48610 -0.00500
H 	H 	0.90800 0.26390 0.47370 0.08700
H 	H 	0.27370 0.12960 0.53970 0.08500
H 	H 	0.40730 0.25360 0.55140 -0.00400
H 	H 	0.88510 0.10760 0.47920 0.05400
H 	H 	0.09830 0.08050 0.83380 0.01200
H 	H 	0.45490 0.24030 0.85550 0.01500
H 	H 	0.33400 0.33660 0.77830 0.06900
H 	H 	0.15160 0.42740 0.69160 0.07700
H 	H 	0.95420 0.48250 0.62070 0.01900
H 	H 	0.69380 0.27610 0.65940 0.00900
H 	H 	0.98690 0.12230 0.65380 0.24200
H 	H 	0.91820 0.06190 0.71590 0.23400
H 	H 	0.80630 0.11630 0.66520 0.23300
H 	H 	0.79340 0.22630 0.83840 0.23800
H 	H 	0.68650 0.18060 0.77920 0.23300
H 	H 	0.79810 0.12610 0.83010 0.23600
H 	H 	0.94610 0.11470 0.98610 -0.00500
H 	H 	0.09200 0.23610 0.97370 0.08900
H 	H 	0.72630 0.37040 0.03970 0.08400
H 	H 	0.59270 0.24640 0.05140 -0.00400
H 	H 	0.11490 0.39240 0.97920 0.05200
C 	C 	0.14500 0.63320 0.67640 0.07600
C 	C 	0.28830 0.65110 0.64820 -0.14800
C 	C 	0.35740 0.72760 0.66440 0.05600
C 	C 	0.28490 0.78520 0.70930 -0.12500
C 	C 	0.05930 0.89700 0.81480 -0.13400
C 	C 	0.94150 0.92930 0.85610 0.06200
C 	C 	0.80460 0.88660 0.86500 -0.15000
C 	C 	0.78590 0.80650 0.83380 0.07700
C 	C 	0.91230 0.68750 0.75440 0.37500
C 	C 	0.06950 0.69200 0.71970 -0.15600
C 	C 	0.14140 0.76810 0.73600 0.05700
C 	C 	0.03850 0.81760 0.78260 0.05600
C 	C 	0.90340 0.77280 0.79310 -0.15300
C 	C 	0.90530 0.61560 0.80980 -0.71400
C 	C 	0.78620 0.67940 0.69650 -0.71000
C 	C 	0.36690 0.58940 0.59950 0.39400
C 	C 	0.68160 0.92620 0.90970 0.40100
C 	C 	0.90090 0.66750 0.50280 0.08800
C 	C 	0.98880 0.73980 0.51070 -0.16000
C 	C 	0.92360 0.81700 0.49570 0.10200
C 	C 	0.77420 0.81840 0.47190 -0.15800
C 	C 	0.69540 0.74430 0.46500 0.08200
C 	C 	0.01140 0.89520 0.50560 -0.05500
C 	C 	0.85500 0.86680 0.17640 0.07400
C 	C 	0.71170 0.84890 0.14820 -0.14700
C 	C 	0.64260 0.77240 0.16440 0.05500
C 	C 	0.71510 0.71480 0.20930 -0.12400
C 	C 	0.94070 0.60300 0.31480 -0.13100
C 	C 	0.05850 0.57070 0.35610 0.05900
C 	C 	0.19540 0.61340 0.36500 -0.14900
C 	C 	0.21410 0.69350 0.33380 0.07600
C 	C 	0.08770 0.81250 0.25440 0.37200
C 	C 	0.93050 0.80800 0.21970 -0.15300
C 	C 	0.85860 0.73190 0.23600 0.05600
C 	C 	0.96150 0.68240 0.28260 0.05800
C 	C 	0.09660 0.72720 0.29310 -0.15400
C 	C 	0.09470 0.88440 0.30980 -0.71200
C 	C 	0.21380 0.82060 0.19650 -0.70800
C 	C 	0.63310 0.91060 0.09950 0.39300
C 	C 	0.31840 0.57380 0.40970 0.40100
C 	C 	0.09910 0.83250 0.00280 0.09100
C 	C 	0.01120 0.76020 0.01070 -0.15900
C 	C 	0.07640 0.68300 0.99570 0.09600
C 	C 	0.22580 0.68160 0.97190 -0.15500
C 	C 	0.30460 0.75570 0.96500 0.08000
C 	C 	0.98860 0.60480 0.00560 -0.04700
C 	C 	0.85500 0.36680 0.32360 0.07600
C 	C 	0.71170 0.34890 0.35180 -0.14800
C 	C 	0.64260 0.27240 0.33560 0.05600
C 	C 	0.71510 0.21480 0.29070 -0.12500
C 	C 	0.94070 0.10300 0.18520 -0.13400
C 	C 	0.05850 0.07070 0.14390 0.06200
C 	C 	0.19540 0.11340 0.13500 -0.15000
C 	C 	0.21410 0.19350 0.16620 0.07700
C 	C 	0.08770 0.31250 0.24560 0.37500
C 	C 	0.93050 0.30800 0.28030 -0.15600
C 	C 	0.85860 0.23190 0.26400 0.05700
C 	C 	0.96150 0.18240 0.21740 0.05600
C 	C 	0.09660 0.22720 0.20690 -0.15300
C 	C 	0.09470 0.38440 0.19020 -0.71400
C 	C 	0.21380 0.32060 0.30350 -0.71000
C 	C 	0.63310 0.41060 0.40050 0.39400
C 	C 	0.31840 0.07380 0.09030 0.40100
C 	C 	0.09910 0.33250 0.49720 0.08800
C 	C 	0.01120 0.26020 0.48930 -0.16000
C 	C 	0.07640 0.18300 0.50430 0.10200
C 	C 	0.22580 0.18160 0.52810 -0.15800
C 	C 	0.30460 0.25570 0.53500 0.08200
C 	C 	0.98860 0.10480 0.49440 -0.05500
C 	C 	0.14500 0.13320 0.82360 0.07400
C 	C 	0.28830 0.15110 0.85180 -0.14700
C 	C 	0.35740 0.22760 0.83560 0.05500
C 	C 	0.28490 0.28520 0.79070 -0.12400
C 	C 	0.05930 0.39700 0.68520 -0.13100
C 	C 	0.94150 0.42930 0.64390 0.05900
C 	C 	0.80460 0.38660 0.63500 -0.14900
C 	C 	0.78590 0.30650 0.66620 0.07600
C 	C 	0.91230 0.18750 0.74560 0.37200
C 	C 	0.06950 0.19200 0.78030 -0.15300
C 	C 	0.14140 0.26810 0.76400 0.05600
C 	C 	0.03850 0.31760 0.71740 0.05800
C 	C 	0.90340 0.27280 0.70690 -0.15400
C 	C 	0.90530 0.11560 0.69020 -0.71200
C 	C 	0.78620 0.17940 0.80350 -0.70800
C 	C 	0.36690 0.08940 0.90050 0.39300
C 	C 	0.68160 0.42620 0.59030 0.40100
C 	C 	0.90090 0.16750 0.99720 0.09100
C 	C 	0.98880 0.23980 0.98930 -0.15900
C 	C 	0.92360 0.31700 0.00430 0.09600
C 	C 	0.77420 0.31840 0.02810 -0.15500
C 	C 	0.69540 0.24430 0.03500 0.08000
C 	C 	0.01140 0.39520 0.99440 -0.04700
N 	N 	0.75650 0.66893 0.48046 -0.25500
N 	N 	0.94980 0.96620 0.49400 -0.08100
N 	N 	0.24350 0.83107 0.98046 -0.25700
N 	N 	0.05020 0.53380 0.99400 -0.08300
N 	N 	0.24350 0.33107 0.51954 -0.25500
N 	N 	0.05020 0.03380 0.50600 -0.08100
N 	N 	0.75650 0.16893 0.01954 -0.25700
N 	N 	0.94980 0.46620 0.00600 -0.08300
O 	O 	0.31190 0.51599 0.59555 -0.46300
O 	O 	0.48110 0.61525 0.56422 -0.47000
O 	O 	0.71700 0.99287 0.94334 -0.48300
O 	O 	0.55330 0.89144 0.91183 -0.46300
O 	O 	0.68810 0.98401 0.09555 -0.46000
O 	O 	0.51890 0.88475 0.06422 -0.46900
O 	O 	0.28300 0.50713 0.44334 -0.48100
O 	O 	0.44670 0.60856 0.41183 -0.46200
O 	O 	0.68810 0.48401 0.40445 -0.46300
O 	O 	0.51890 0.38475 0.43578 -0.47000
O 	O 	0.28300 0.00713 0.05666 -0.48300
O 	O 	0.44670 0.10856 0.08817 -0.46300
O 	O 	0.31190 0.01599 0.90445 -0.46000
O 	O 	0.48110 0.11525 0.93578 -0.46900
O 	O 	0.71700 0.49287 0.55666 -0.48100
O 	O 	0.55330 0.39144 0.58817 -0.46200
