data_crystal

_cell_length_a 15.93880
_cell_length_b 16.18370
_cell_length_c 28.52000
_cell_angle_alpha 90.00000
_cell_angle_beta  90.00000
_cell_angle_gamma 105.71400

_symmetry_space_group_name_	'P 1'
_symmetry_space_group_name_H-M	'P 1'

loop_
_symmetry_equiv_pos_as_xyz
  x,y,z

loop_
_atom_site_label
_atom_site_type_symbol
_atom_site_fract_x
_atom_site_fract_y
_atom_site_fract_z
_atom_site_charge
Cd	Cd	0.61999 0.13608 0.96619 1.22300
Cd	Cd	0.66201 0.35016 0.03398 1.22500
Cd	Cd	0.61999 0.63608 0.53381 1.22300
Cd	Cd	0.66201 0.85016 0.46602 1.22500
H 	H 	0.68960 0.50620 0.88700 0.02100
H 	H 	0.66720 0.25330 0.87020 0.02600
H 	H 	0.65500 0.26430 0.78960 0.05300
H 	H 	0.63500 0.30900 0.70130 0.04900
H 	H 	0.61770 0.37660 0.63130 0.03100
H 	H 	0.65790 0.60650 0.69850 0.01100
H 	H 	0.54770 0.53900 0.80280 0.23800
H 	H 	0.60300 0.63090 0.78430 0.22100
H 	H 	0.61350 0.60330 0.83740 0.22900
H 	H 	0.81020 0.58880 0.78490 0.22800
H 	H 	0.77130 0.63350 0.82650 0.22800
H 	H 	0.76190 0.66120 0.77330 0.22200
H 	H 	0.61190 0.98640 0.11310 0.01800
H 	H 	0.58860 0.22950 0.13190 0.03300
H 	H 	0.59040 0.21310 0.21330 0.05300
H 	H 	0.61000 0.16590 0.30150 0.05300
H 	H 	0.63360 0.10060 0.37140 0.02900
H 	H 	0.65190 0.88930 0.30010 0.02100
H 	H 	0.49600 0.88510 0.21270 0.21500
H 	H 	0.55810 0.82490 0.22440 0.20800
H 	H 	0.54610 0.85150 0.17130 0.21800
H 	H 	0.76090 0.97770 0.19890 0.22100
H 	H 	0.70580 0.90780 0.16300 0.21900
H 	H 	0.71830 0.88130 0.21610 0.21700
H 	H 	0.86220 0.42760 0.99620 -0.01400
H 	H 	0.99950 0.41780 0.00670 0.10200
H 	H 	0.91420 0.24200 0.10490 0.08700
H 	H 	0.77410 0.26060 0.09520 -0.01200
H 	H 	0.06940 0.28310 0.08980 0.05200
H 	H 	0.24570 0.40830 0.99900 0.06900
H 	H 	0.33430 0.29150 0.08680 0.08000
H 	H 	0.47570 0.27690 0.08630 -0.00700
H 	H 	0.52790 0.41250 0.97030 -0.00600
H 	H 	0.39030 0.43050 0.96850 0.10500
H 	H 	0.43620 0.09220 0.01550 0.00500
H 	H 	0.29450 0.10690 0.00990 0.10000
H 	H 	0.36660 0.24180 0.89150 0.07500
H 	H 	0.50520 0.22370 0.89990 -0.01500
H 	H 	0.21730 0.22130 0.91940 0.05500
H 	H 	0.03710 0.08870 0.01440 0.05900
H 	H 	0.88780 0.04640 0.03510 0.08500
H 	H 	0.74350 0.05380 0.02480 -0.00000
H 	H 	0.81530 0.23930 0.93480 -0.00700
H 	H 	0.96020 0.23110 0.93650 0.09000
H 	H 	0.68960 0.00620 0.61300 0.02200
H 	H 	0.66720 0.75330 0.62980 0.02700
H 	H 	0.65500 0.76430 0.71040 0.05400
H 	H 	0.63500 0.80900 0.79870 0.05000
H 	H 	0.61770 0.87660 0.86870 0.03200
H 	H 	0.65790 0.10650 0.80150 0.01200
H 	H 	0.54770 0.03900 0.69720 0.23700
H 	H 	0.60300 0.13090 0.71570 0.22000
H 	H 	0.61350 0.10330 0.66260 0.22800
H 	H 	0.81020 0.08880 0.71510 0.22700
H 	H 	0.77130 0.13350 0.67350 0.22800
H 	H 	0.76190 0.16120 0.72670 0.22100
H 	H 	0.61190 0.48640 0.38690 0.01900
H 	H 	0.58860 0.72950 0.36810 0.03300
H 	H 	0.59040 0.71310 0.28670 0.05300
H 	H 	0.61000 0.66590 0.19850 0.05300
H 	H 	0.63360 0.60060 0.12860 0.02900
H 	H 	0.65190 0.38930 0.19990 0.02100
H 	H 	0.49600 0.38510 0.28730 0.21500
H 	H 	0.55810 0.32490 0.27560 0.20800
H 	H 	0.54610 0.35150 0.32870 0.21800
H 	H 	0.76090 0.47770 0.30110 0.22200
H 	H 	0.70580 0.40780 0.33700 0.21900
H 	H 	0.71830 0.38130 0.28390 0.21700
H 	H 	0.86220 0.92760 0.50380 -0.01300
H 	H 	0.99950 0.91780 0.49330 0.10200
H 	H 	0.91420 0.74200 0.39510 0.08700
H 	H 	0.77410 0.76060 0.40480 -0.01200
H 	H 	0.06940 0.78310 0.41020 0.05200
H 	H 	0.24570 0.90830 0.50100 0.06900
H 	H 	0.33430 0.79150 0.41320 0.08000
H 	H 	0.47570 0.77690 0.41370 -0.00700
H 	H 	0.52790 0.91250 0.52970 -0.00600
H 	H 	0.39030 0.93050 0.53150 0.10500
H 	H 	0.43620 0.59220 0.48450 0.00400
H 	H 	0.29450 0.60690 0.49010 0.09900
H 	H 	0.36660 0.74180 0.60850 0.07500
H 	H 	0.50520 0.72370 0.60010 -0.01500
H 	H 	0.21730 0.72130 0.58060 0.05500
H 	H 	0.03710 0.58870 0.48560 0.05800
H 	H 	0.88780 0.54640 0.46490 0.08600
H 	H 	0.74350 0.55380 0.47520 -0.00000
H 	H 	0.81530 0.73930 0.56520 -0.00700
H 	H 	0.96020 0.73110 0.56350 0.09100
C 	C 	0.68230 0.45770 0.86710 0.06100
C 	C 	0.67780 0.37610 0.88610 -0.13000
C 	C 	0.66850 0.30750 0.85690 0.04200
C 	C 	0.66090 0.31310 0.80910 -0.11400
C 	C 	0.63870 0.36860 0.70080 -0.10300
C 	C 	0.62980 0.40950 0.65930 0.03200
C 	C 	0.63790 0.49820 0.65700 -0.10700
C 	C 	0.65320 0.54670 0.69910 0.04800
C 	C 	0.66150 0.50600 0.74110 -0.14400
C 	C 	0.65340 0.41710 0.74180 0.04300
C 	C 	0.66210 0.39190 0.79050 0.04800
C 	C 	0.67600 0.46580 0.81910 -0.14700
C 	C 	0.67630 0.54450 0.79010 0.37200
C 	C 	0.60370 0.58280 0.80490 -0.70700
C 	C 	0.76250 0.61310 0.79410 -0.69800
C 	C 	0.68070 0.36560 0.93870 0.36500
C 	C 	0.62780 0.54080 0.61180 0.33200
C 	C 	0.60970 0.03260 0.13320 0.05600
C 	C 	0.60120 0.11100 0.11480 -0.12000
C 	C 	0.59450 0.17730 0.14490 0.03200
C 	C 	0.59620 0.16840 0.19300 -0.09800
C 	C 	0.61870 0.11010 0.30130 -0.10700
C 	C 	0.63230 0.07120 0.34250 0.02100
C 	C 	0.64400 0.98940 0.34200 -0.10000
C 	C 	0.64350 0.94520 0.30030 0.03800
C 	C 	0.63050 0.98480 0.25860 -0.14400
C 	C 	0.61800 0.06590 0.25950 0.04300
C 	C 	0.60680 0.09090 0.21080 0.04500
C 	C 	0.61450 0.02550 0.18130 -0.13700
C 	C 	0.62830 0.95130 0.20960 0.34400
C 	C 	0.54990 0.87080 0.20400 -0.65400
C 	C 	0.71060 0.92740 0.19570 -0.67500
C 	C 	0.60090 0.12460 0.06240 0.36200
C 	C 	0.65900 0.94700 0.38810 0.30500
C 	C 	0.87230 0.38980 0.01960 0.11200
C 	C 	0.95370 0.38460 0.02570 -0.19200
C 	C 	0.97060 0.33250 0.05850 0.13700
C 	C 	0.90450 0.28300 0.08320 -0.17900
C 	C 	0.82050 0.29290 0.07620 0.09900
C 	C 	0.06030 0.32140 0.06640 -0.04400
C 	C 	0.25960 0.37530 0.02400 -0.03300
C 	C 	0.34580 0.36410 0.02680 0.11900
C 	C 	0.37340 0.31730 0.06250 -0.15300
C 	C 	0.45800 0.30880 0.06210 0.08700
C 	C 	0.48820 0.38790 0.99460 0.09200
C 	C 	0.40580 0.39840 0.99330 -0.17100
C 	C 	0.42160 0.12290 0.98970 0.09300
C 	C 	0.33670 0.13140 0.98670 -0.15600
C 	C 	0.31590 0.17560 0.94980 0.11400
C 	C 	0.37940 0.21040 0.91740 -0.16900
C 	C 	0.46170 0.19950 0.92250 0.08500
C 	C 	0.22890 0.18690 0.94430 -0.04700
C 	C 	0.02550 0.12590 0.99110 -0.04900
C 	C 	0.93890 0.13630 0.98580 0.11200
C 	C 	0.87480 0.08510 0.01300 -0.15600
C 	C 	0.78840 0.09140 0.00700 0.08400
C 	C 	0.82930 0.19750 0.95440 0.08900
C 	C 	0.91720 0.19430 0.95580 -0.15200
C 	C 	0.68230 0.95770 0.63290 0.06200
C 	C 	0.67780 0.87610 0.61390 -0.13100
C 	C 	0.66850 0.80750 0.64310 0.04200
C 	C 	0.66090 0.81310 0.69090 -0.11400
C 	C 	0.63870 0.86860 0.79920 -0.10200
C 	C 	0.62980 0.90950 0.84070 0.03100
C 	C 	0.63790 0.99820 0.84300 -0.10400
C 	C 	0.65320 0.04670 0.80090 0.04600
C 	C 	0.66150 0.00600 0.75890 -0.14400
C 	C 	0.65340 0.91710 0.75820 0.04300
C 	C 	0.66210 0.89190 0.70950 0.04800
C 	C 	0.67600 0.96580 0.68090 -0.14600
C 	C 	0.67630 0.04450 0.70990 0.37100
C 	C 	0.60370 0.08280 0.69510 -0.70500
C 	C 	0.76250 0.11310 0.70590 -0.69700
C 	C 	0.68070 0.86560 0.56130 0.36500
C 	C 	0.62780 0.04080 0.88820 0.32800
C 	C 	0.60970 0.53260 0.36680 0.05400
C 	C 	0.60120 0.61100 0.38520 -0.12000
C 	C 	0.59450 0.67730 0.35510 0.03200
C 	C 	0.59620 0.66840 0.30700 -0.09800
C 	C 	0.61870 0.61010 0.19870 -0.10600
C 	C 	0.63230 0.57120 0.15750 0.02000
C 	C 	0.64400 0.48940 0.15800 -0.09900
C 	C 	0.64350 0.44520 0.19970 0.03800
C 	C 	0.63050 0.48480 0.24140 -0.14300
C 	C 	0.61800 0.56590 0.24050 0.04300
C 	C 	0.60680 0.59090 0.28920 0.04500
C 	C 	0.61450 0.52550 0.31870 -0.13700
C 	C 	0.62830 0.45130 0.29040 0.34500
C 	C 	0.54990 0.37080 0.29600 -0.65500
C 	C 	0.71060 0.42740 0.30430 -0.67600
C 	C 	0.60090 0.62460 0.43760 0.36200
C 	C 	0.65900 0.44700 0.11190 0.30500
C 	C 	0.87230 0.88980 0.48040 0.11200
C 	C 	0.95370 0.88460 0.47430 -0.19200
C 	C 	0.97060 0.83250 0.44150 0.13800
C 	C 	0.90450 0.78300 0.41680 -0.18000
C 	C 	0.82050 0.79290 0.42380 0.10000
C 	C 	0.06030 0.82140 0.43360 -0.04500
C 	C 	0.25960 0.87530 0.47600 -0.03300
C 	C 	0.34580 0.86410 0.47320 0.11800
C 	C 	0.37340 0.81730 0.43750 -0.15300
C 	C 	0.45800 0.80880 0.43790 0.08700
C 	C 	0.48820 0.88790 0.50540 0.09200
C 	C 	0.40580 0.89840 0.50670 -0.17100
C 	C 	0.42160 0.62290 0.51030 0.09400
C 	C 	0.33670 0.63140 0.51330 -0.15500
C 	C 	0.31590 0.67560 0.55020 0.11400
C 	C 	0.37940 0.71040 0.58260 -0.16900
C 	C 	0.46170 0.69950 0.57750 0.08400
C 	C 	0.22890 0.68690 0.55570 -0.04600
C 	C 	0.02550 0.62590 0.50890 -0.05000
C 	C 	0.93890 0.63630 0.51420 0.11500
C 	C 	0.87480 0.58510 0.48700 -0.15900
C 	C 	0.78840 0.59140 0.49300 0.08400
C 	C 	0.82930 0.69750 0.54560 0.09000
C 	C 	0.91720 0.69430 0.54420 -0.15300
N 	N 	0.80370 0.34480 0.04460 -0.24500
N 	N 	0.12280 0.36270 0.04200 -0.07300
N 	N 	0.20300 0.34290 0.05340 -0.07800
N 	N 	0.51480 0.34390 0.02880 -0.23200
N 	N 	0.48180 0.15550 0.95860 -0.23600
N 	N 	0.16800 0.15070 0.97280 -0.07400
N 	N 	0.08870 0.16860 0.96310 -0.07200
N 	N 	0.76620 0.14620 0.97840 -0.23600
N 	N 	0.80370 0.84480 0.45540 -0.24500
N 	N 	0.12280 0.86270 0.45800 -0.07300
N 	N 	0.20300 0.84290 0.44660 -0.07800
N 	N 	0.51480 0.84390 0.47120 -0.23200
N 	N 	0.48180 0.65550 0.54140 -0.23600
N 	N 	0.16800 0.65070 0.52720 -0.07400
N 	N 	0.08870 0.66860 0.53690 -0.07200
N 	N 	0.76620 0.64620 0.52160 -0.23500
O 	O 	0.69020 0.42940 0.96420 -0.39800
O 	O 	0.66930 0.29120 0.95490 -0.49200
O 	O 	0.62580 0.61640 0.61300 -0.40800
O 	O 	0.62520 0.49860 0.57490 -0.35500
O 	O 	0.59280 0.06130 0.03640 -0.41100
O 	O 	0.61260 0.20020 0.04690 -0.48600
O 	O 	0.67290 0.98930 0.42520 -0.36100
O 	O 	0.65460 0.86810 0.38610 -0.38600
O 	O 	0.69020 0.92940 0.53580 -0.39800
O 	O 	0.66930 0.79120 0.54510 -0.49200
O 	O 	0.62580 0.11640 0.88700 -0.40800
O 	O 	0.62520 0.99860 0.92510 -0.35300
O 	O 	0.59280 0.56130 0.46360 -0.41200
O 	O 	0.61260 0.70020 0.45310 -0.48600
O 	O 	0.67290 0.48930 0.07480 -0.36100
O 	O 	0.65460 0.36810 0.11390 -0.38600
Cd	Cd	0.38001 0.36392 0.46619 1.22400
Cd	Cd	0.33799 0.14984 0.53398 1.22600
Cd	Cd	0.38001 0.86392 0.03381 1.22400
Cd	Cd	0.33799 0.64984 0.96602 1.22600
H 	H 	0.31040 0.99380 0.38700 0.02200
H 	H 	0.33280 0.24670 0.37020 0.02700
H 	H 	0.34500 0.23570 0.28960 0.05400
H 	H 	0.36500 0.19100 0.20130 0.05000
H 	H 	0.38230 0.12340 0.13130 0.03200
H 	H 	0.34210 0.89350 0.19850 0.01200
H 	H 	0.45230 0.96100 0.30280 0.23700
H 	H 	0.39700 0.86910 0.28430 0.22000
H 	H 	0.38650 0.89670 0.33740 0.22800
H 	H 	0.18980 0.91120 0.28490 0.22700
H 	H 	0.22870 0.86650 0.32650 0.22800
H 	H 	0.23810 0.83880 0.27330 0.22100
H 	H 	0.38810 0.51360 0.61310 0.01900
H 	H 	0.41140 0.27050 0.63190 0.03300
H 	H 	0.40960 0.28690 0.71330 0.05300
H 	H 	0.39000 0.33410 0.80150 0.05300
H 	H 	0.36640 0.39940 0.87140 0.02900
H 	H 	0.34810 0.61070 0.80010 0.02100
H 	H 	0.50400 0.61490 0.71270 0.21500
H 	H 	0.44190 0.67510 0.72440 0.20800
H 	H 	0.45390 0.64850 0.67130 0.21800
H 	H 	0.23910 0.52230 0.69890 0.22200
H 	H 	0.29420 0.59220 0.66300 0.21900
H 	H 	0.28170 0.61870 0.71610 0.21700
H 	H 	0.13780 0.07240 0.49620 -0.01300
H 	H 	0.00050 0.08220 0.50670 0.10200
H 	H 	0.08580 0.25800 0.60490 0.08700
H 	H 	0.22590 0.23940 0.59520 -0.01200
H 	H 	0.93060 0.21690 0.58980 0.05200
H 	H 	0.75430 0.09170 0.49900 0.06900
H 	H 	0.66570 0.20850 0.58680 0.08000
H 	H 	0.52430 0.22310 0.58630 -0.00700
H 	H 	0.47210 0.08750 0.47030 -0.00600
H 	H 	0.60970 0.06950 0.46850 0.10500
H 	H 	0.56380 0.40780 0.51550 0.00400
H 	H 	0.70550 0.39310 0.50990 0.09900
H 	H 	0.63340 0.25820 0.39150 0.07500
H 	H 	0.49480 0.27630 0.39990 -0.01500
H 	H 	0.78270 0.27870 0.41940 0.05500
H 	H 	0.96290 0.41130 0.51440 0.05800
H 	H 	0.11220 0.45360 0.53510 0.08600
H 	H 	0.25650 0.44620 0.52480 -0.00000
H 	H 	0.18470 0.26070 0.43480 -0.00700
H 	H 	0.03980 0.26890 0.43650 0.09100
H 	H 	0.31040 0.49380 0.11300 0.02200
H 	H 	0.33280 0.74670 0.12980 0.02700
H 	H 	0.34500 0.73570 0.21040 0.05400
H 	H 	0.36500 0.69100 0.29870 0.05000
H 	H 	0.38230 0.62340 0.36870 0.03100
H 	H 	0.34210 0.39350 0.30150 0.01100
H 	H 	0.45230 0.46100 0.19720 0.23800
H 	H 	0.39700 0.36910 0.21570 0.22100
H 	H 	0.38650 0.39670 0.16260 0.22900
H 	H 	0.18980 0.41120 0.21510 0.22800
H 	H 	0.22870 0.36650 0.17350 0.22800
H 	H 	0.23810 0.33880 0.22670 0.22200
H 	H 	0.38810 0.01360 0.88690 0.01800
H 	H 	0.41140 0.77050 0.86810 0.03300
H 	H 	0.40960 0.78690 0.78670 0.05300
H 	H 	0.39000 0.83410 0.69850 0.05300
H 	H 	0.36640 0.89940 0.62860 0.02900
H 	H 	0.34810 0.11070 0.69990 0.02100
H 	H 	0.50400 0.11490 0.78730 0.21500
H 	H 	0.44190 0.17510 0.77560 0.20800
H 	H 	0.45390 0.14850 0.82870 0.21800
H 	H 	0.23910 0.02230 0.80110 0.22100
H 	H 	0.29420 0.09220 0.83700 0.21900
H 	H 	0.28170 0.11870 0.78390 0.21700
H 	H 	0.13780 0.57240 0.00380 -0.01400
H 	H 	0.00050 0.58220 0.99330 0.10200
H 	H 	0.08580 0.75800 0.89510 0.08700
H 	H 	0.22590 0.73940 0.90480 -0.01200
H 	H 	0.93060 0.71690 0.91020 0.05200
H 	H 	0.75430 0.59170 0.00100 0.06900
H 	H 	0.66570 0.70850 0.91320 0.08000
H 	H 	0.52430 0.72310 0.91370 -0.00700
H 	H 	0.47210 0.58750 0.02970 -0.00600
H 	H 	0.60970 0.56950 0.03150 0.10500
H 	H 	0.56380 0.90780 0.98450 0.00500
H 	H 	0.70550 0.89310 0.99010 0.10000
H 	H 	0.63340 0.75820 0.10850 0.07500
H 	H 	0.49480 0.77630 0.10010 -0.01500
H 	H 	0.78270 0.77870 0.08060 0.05500
H 	H 	0.96290 0.91130 0.98560 0.05900
H 	H 	0.11220 0.95360 0.96490 0.08500
H 	H 	0.25650 0.94620 0.97520 -0.00000
H 	H 	0.18470 0.76070 0.06520 -0.00700
H 	H 	0.03980 0.76890 0.06350 0.09000
C 	C 	0.31770 0.04230 0.36710 0.06200
C 	C 	0.32220 0.12390 0.38610 -0.13100
C 	C 	0.33150 0.19250 0.35690 0.04200
C 	C 	0.33910 0.18690 0.30910 -0.11400
C 	C 	0.36130 0.13140 0.20080 -0.10200
C 	C 	0.37020 0.09050 0.15930 0.03100
C 	C 	0.36210 0.00180 0.15700 -0.10400
C 	C 	0.34680 0.95330 0.19910 0.04600
C 	C 	0.33850 0.99400 0.24110 -0.14400
C 	C 	0.34660 0.08290 0.24180 0.04300
C 	C 	0.33790 0.10810 0.29050 0.04800
C 	C 	0.32400 0.03420 0.31910 -0.14600
C 	C 	0.32370 0.95550 0.29010 0.37100
C 	C 	0.39630 0.91720 0.30490 -0.70500
C 	C 	0.23750 0.88690 0.29410 -0.69700
C 	C 	0.31930 0.13440 0.43870 0.36500
C 	C 	0.37220 0.95920 0.11180 0.32800
C 	C 	0.39030 0.46740 0.63320 0.05400
C 	C 	0.39880 0.38900 0.61480 -0.12000
C 	C 	0.40550 0.32270 0.64490 0.03200
C 	C 	0.40380 0.33160 0.69300 -0.09800
C 	C 	0.38130 0.38990 0.80130 -0.10600
C 	C 	0.36770 0.42880 0.84250 0.02000
C 	C 	0.35600 0.51060 0.84200 -0.09900
C 	C 	0.35650 0.55480 0.80030 0.03800
C 	C 	0.36950 0.51520 0.75860 -0.14300
C 	C 	0.38200 0.43410 0.75950 0.04300
C 	C 	0.39320 0.40910 0.71080 0.04500
C 	C 	0.38550 0.47450 0.68130 -0.13700
C 	C 	0.37170 0.54870 0.70960 0.34500
C 	C 	0.45010 0.62920 0.70400 -0.65500
C 	C 	0.28940 0.57260 0.69570 -0.67600
C 	C 	0.39910 0.37540 0.56240 0.36200
C 	C 	0.34100 0.55300 0.88810 0.30500
C 	C 	0.12770 0.11020 0.51960 0.11200
C 	C 	0.04630 0.11540 0.52570 -0.19200
C 	C 	0.02940 0.16750 0.55850 0.13800
C 	C 	0.09550 0.21700 0.58320 -0.18000
C 	C 	0.17950 0.20710 0.57620 0.10000
C 	C 	0.93970 0.17860 0.56640 -0.04500
C 	C 	0.74040 0.12470 0.52400 -0.03300
C 	C 	0.65420 0.13590 0.52680 0.11800
C 	C 	0.62660 0.18270 0.56250 -0.15300
C 	C 	0.54200 0.19120 0.56210 0.08700
C 	C 	0.51180 0.11210 0.49460 0.09200
C 	C 	0.59420 0.10160 0.49330 -0.17100
C 	C 	0.57840 0.37710 0.48970 0.09400
C 	C 	0.66330 0.36860 0.48670 -0.15500
C 	C 	0.68410 0.32440 0.44980 0.11400
C 	C 	0.62060 0.28960 0.41740 -0.16900
C 	C 	0.53830 0.30050 0.42250 0.08400
C 	C 	0.77110 0.31310 0.44430 -0.04600
C 	C 	0.97450 0.37410 0.49110 -0.05000
C 	C 	0.06110 0.36370 0.48580 0.11500
C 	C 	0.12520 0.41490 0.51300 -0.15900
C 	C 	0.21160 0.40860 0.50700 0.08400
C 	C 	0.17070 0.30250 0.45440 0.09000
C 	C 	0.08280 0.30570 0.45580 -0.15300
C 	C 	0.31770 0.54230 0.13290 0.06100
C 	C 	0.32220 0.62390 0.11390 -0.13000
C 	C 	0.33150 0.69250 0.14310 0.04200
C 	C 	0.33910 0.68690 0.19090 -0.11400
C 	C 	0.36130 0.63140 0.29920 -0.10300
C 	C 	0.37020 0.59050 0.34070 0.03200
C 	C 	0.36210 0.50180 0.34300 -0.10700
C 	C 	0.34680 0.45330 0.30090 0.04800
C 	C 	0.33850 0.49400 0.25890 -0.14400
C 	C 	0.34660 0.58290 0.25820 0.04300
C 	C 	0.33790 0.60810 0.20950 0.04800
C 	C 	0.32400 0.53420 0.18090 -0.14700
C 	C 	0.32370 0.45550 0.20990 0.37200
C 	C 	0.39630 0.41720 0.19510 -0.70700
C 	C 	0.23750 0.38690 0.20590 -0.69800
C 	C 	0.31930 0.63440 0.06130 0.36500
C 	C 	0.37220 0.45920 0.38820 0.33200
C 	C 	0.39030 0.96740 0.86680 0.05600
C 	C 	0.39880 0.88900 0.88520 -0.12000
C 	C 	0.40550 0.82270 0.85510 0.03200
C 	C 	0.40380 0.83160 0.80700 -0.09800
C 	C 	0.38130 0.88990 0.69870 -0.10700
C 	C 	0.36770 0.92880 0.65750 0.02100
C 	C 	0.35600 0.01060 0.65800 -0.10000
C 	C 	0.35650 0.05480 0.69970 0.03800
C 	C 	0.36950 0.01520 0.74140 -0.14400
C 	C 	0.38200 0.93410 0.74050 0.04300
C 	C 	0.39320 0.90910 0.78920 0.04500
C 	C 	0.38550 0.97450 0.81870 -0.13700
C 	C 	0.37170 0.04870 0.79040 0.34400
C 	C 	0.45010 0.12920 0.79600 -0.65400
C 	C 	0.28940 0.07260 0.80430 -0.67500
C 	C 	0.39910 0.87540 0.93760 0.36200
C 	C 	0.34100 0.05300 0.61190 0.30500
C 	C 	0.12770 0.61020 0.98040 0.11200
C 	C 	0.04630 0.61540 0.97430 -0.19200
C 	C 	0.02940 0.66750 0.94150 0.13700
C 	C 	0.09550 0.71700 0.91680 -0.17900
C 	C 	0.17950 0.70710 0.92380 0.09900
C 	C 	0.93970 0.67860 0.93360 -0.04400
C 	C 	0.74040 0.62470 0.97600 -0.03300
C 	C 	0.65420 0.63590 0.97320 0.11900
C 	C 	0.62660 0.68270 0.93750 -0.15300
C 	C 	0.54200 0.69120 0.93790 0.08700
C 	C 	0.51180 0.61210 0.00540 0.09200
C 	C 	0.59420 0.60160 0.00670 -0.17100
C 	C 	0.57840 0.87710 0.01030 0.09300
C 	C 	0.66330 0.86860 0.01330 -0.15600
C 	C 	0.68410 0.82440 0.05020 0.11400
C 	C 	0.62060 0.78960 0.08260 -0.16900
C 	C 	0.53830 0.80050 0.07750 0.08500
C 	C 	0.77110 0.81310 0.05570 -0.04700
C 	C 	0.97450 0.87410 0.00890 -0.04900
C 	C 	0.06110 0.86370 0.01420 0.11200
C 	C 	0.12520 0.91490 0.98700 -0.15600
C 	C 	0.21160 0.90860 0.99300 0.08400
C 	C 	0.17070 0.80250 0.04560 0.08900
C 	C 	0.08280 0.80570 0.04420 -0.15200
N 	N 	0.19630 0.15520 0.54460 -0.24500
N 	N 	0.87720 0.13730 0.54200 -0.07300
N 	N 	0.79700 0.15710 0.55340 -0.07800
N 	N 	0.48520 0.15610 0.52880 -0.23200
N 	N 	0.51820 0.34450 0.45860 -0.23600
N 	N 	0.83200 0.34930 0.47280 -0.07400
N 	N 	0.91130 0.33140 0.46310 -0.07200
N 	N 	0.23380 0.35380 0.47840 -0.23500
N 	N 	0.19630 0.65520 0.95540 -0.24500
N 	N 	0.87720 0.63730 0.95800 -0.07300
N 	N 	0.79700 0.65710 0.94660 -0.07800
N 	N 	0.48520 0.65610 0.97120 -0.23200
N 	N 	0.51820 0.84450 0.04140 -0.23600
N 	N 	0.83200 0.84930 0.02720 -0.07400
N 	N 	0.91130 0.83140 0.03690 -0.07200
N 	N 	0.23380 0.85380 0.02160 -0.23600
O 	O 	0.30980 0.07060 0.46420 -0.39800
O 	O 	0.33070 0.20880 0.45490 -0.49200
O 	O 	0.37420 0.88360 0.11300 -0.40800
O 	O 	0.37480 0.00140 0.07490 -0.35300
O 	O 	0.40720 0.43870 0.53640 -0.41200
O 	O 	0.38740 0.29980 0.54690 -0.48600
O 	O 	0.32710 0.51070 0.92520 -0.36100
O 	O 	0.34540 0.63190 0.88610 -0.38600
O 	O 	0.30980 0.57060 0.03580 -0.39800
O 	O 	0.33070 0.70880 0.04510 -0.49200
O 	O 	0.37420 0.38360 0.38700 -0.40800
O 	O 	0.37480 0.50140 0.42510 -0.35500
O 	O 	0.40720 0.93870 0.96360 -0.41100
O 	O 	0.38740 0.79980 0.95310 -0.48600
O 	O 	0.32710 0.01070 0.57480 -0.36100
O 	O 	0.34540 0.13190 0.61390 -0.38600
