data_crystal

_cell_length_a 4.88000
_cell_length_b 13.11000
_cell_length_c 13.28990
_cell_angle_alpha 90.00000
_cell_angle_beta  100.57900
_cell_angle_gamma 90.00000

_symmetry_space_group_name_	'P 1'
_symmetry_space_group_name_H-M	'P 1'

loop_
_symmetry_equiv_pos_as_xyz
  x,y,z

loop_
_atom_site_label
_atom_site_type_symbol
_atom_site_fract_x
_atom_site_fract_y
_atom_site_fract_z
_atom_site_charge
Ce	Ce	0.97778 0.75880 0.21230 2.12800
Ce	Ce	0.02222 0.25880 0.78770 2.12900
H 	H 	0.93870 0.49630 0.66060 0.31500
H 	H 	0.09950 0.79430 0.86970 0.07500
H 	H 	0.69260 0.57880 0.94940 0.04700
H 	H 	0.47430 0.66130 0.65510 0.08900
H 	H 	0.96900 0.84340 0.69130 0.13400
H 	H 	0.00280 0.75320 0.61630 0.14900
H 	H 	0.40550 0.97240 0.72820 0.09500
H 	H 	0.27800 0.78530 0.48640 0.09600
H 	H 	0.82240 0.01780 0.49760 0.09500
H 	H 	0.06130 0.99630 0.33940 0.31000
H 	H 	0.90050 0.29430 0.13030 0.07500
H 	H 	0.30740 0.07880 0.05060 0.04700
H 	H 	0.52570 0.16130 0.34490 0.08900
H 	H 	0.03100 0.34340 0.30870 0.13500
H 	H 	0.99720 0.25320 0.38370 0.14800
H 	H 	0.59450 0.47240 0.27180 0.08600
H 	H 	0.72200 0.28530 0.51360 0.08800
H 	H 	0.17760 0.51780 0.50240 0.07200
C 	C 	0.23560 0.74870 0.85080 -0.10500
C 	C 	0.39740 0.68680 0.92630 -0.04300
C 	C 	0.58450 0.61850 0.89930 -0.01100
C 	C 	0.61350 0.60840 0.79790 -0.07600
C 	C 	0.45800 0.67000 0.72320 -0.08800
C 	C 	0.27390 0.74630 0.74890 0.13900
C 	C 	0.10320 0.80070 0.66560 -0.32900
C 	C 	0.30990 0.86930 0.61330 0.15300
C 	C 	0.44430 0.95320 0.66490 -0.15600
C 	C 	0.63270 0.00700 0.62220 0.01800
C 	C 	0.36430 0.84190 0.52060 -0.14300
C 	C 	0.55520 0.90110 0.47650 -0.00800
C 	C 	0.69260 0.98110 0.52610 -0.08300
C 	C 	0.61190 0.86440 0.37740 0.29800
C 	C 	0.78210 0.09480 0.68320 0.28800
C 	C 	0.80200 0.53550 0.76660 0.38200
C 	C 	0.38090 0.69940 0.03530 0.26300
C 	C 	0.76440 0.24870 0.14920 -0.10300
C 	C 	0.60260 0.18680 0.07370 -0.04300
C 	C 	0.41550 0.11850 0.10070 -0.00900
C 	C 	0.38650 0.10840 0.20210 -0.07700
C 	C 	0.54200 0.17000 0.27680 -0.08600
C 	C 	0.72610 0.24630 0.25110 0.13700
C 	C 	0.89680 0.30070 0.33440 -0.32400
C 	C 	0.69010 0.36930 0.38670 0.13500
C 	C 	0.55570 0.45320 0.33510 -0.12300
C 	C 	0.36730 0.50700 0.37780 -0.02000
C 	C 	0.63570 0.34190 0.47940 -0.12200
C 	C 	0.44480 0.40110 0.52350 -0.03300
C 	C 	0.30740 0.48110 0.47390 -0.03100
C 	C 	0.38810 0.36440 0.62260 0.30800
C 	C 	0.21790 0.59480 0.31680 0.30000
C 	C 	0.19800 0.03550 0.23340 0.38600
C 	C 	0.61910 0.19940 0.96470 0.26300
O 	O 	0.60270 0.66870 0.10840 -0.47400
O 	O 	0.16090 0.75390 0.05470 -0.45800
O 	O 	0.84790 0.54520 0.67470 -0.51100
O 	O 	0.91300 0.46060 0.82400 -0.43100
O 	O 	0.73970 0.11480 0.77030 -0.47500
O 	O 	0.94440 0.14850 0.64220 -0.44600
O 	O 	0.44340 0.80810 0.32050 -0.50100
O 	O 	0.86950 0.88700 0.35330 -0.42900
O 	O 	0.39730 0.16870 0.89160 -0.47400
O 	O 	0.83910 0.25390 0.94530 -0.45700
O 	O 	0.15210 0.04520 0.32530 -0.50700
O 	O 	0.08700 0.96060 0.17600 -0.43500
O 	O 	0.26030 0.61480 0.22970 -0.47900
O 	O 	0.05560 0.64850 0.35780 -0.45000
O 	O 	0.55660 0.30810 0.67950 -0.50400
O 	O 	0.13050 0.38700 0.64670 -0.42800
