data_crystal

_cell_length_a 7.71130
_cell_length_b 23.18960
_cell_length_c 23.18960
_cell_angle_alpha 61.21200
_cell_angle_beta  83.63600
_cell_angle_gamma 96.36400

_symmetry_space_group_name_	'P 1'
_symmetry_space_group_name_H-M	'P 1'

loop_
_symmetry_equiv_pos_as_xyz
  x,y,z

loop_
_atom_site_label
_atom_site_type_symbol
_atom_site_fract_x
_atom_site_fract_y
_atom_site_fract_z
_atom_site_charge
Cd	Cd	0.25386 0.47577 0.56294 1.24200
Cd	Cd	0.81692 0.52212 0.59915 1.21500
Cd	Cd	0.81680 0.56294 0.96129 1.24000
Cd	Cd	0.41607 0.59915 0.87873 1.21400
Cd	Cd	0.77809 0.96129 0.47577 1.24100
Cd	Cd	0.29480 0.87873 0.52212 1.21400
Cd	Cd	0.74614 0.52423 0.43706 1.24100
Cd	Cd	0.18308 0.47788 0.40085 1.21400
Cd	Cd	0.18320 0.43706 0.03871 1.24000
Cd	Cd	0.58393 0.40085 0.12127 1.21400
Cd	Cd	0.22191 0.03871 0.52423 1.24100
Cd	Cd	0.70520 0.12127 0.47788 1.21400
H 	H 	0.02990 0.29930 0.60970 0.12300
H 	H 	0.60340 0.20730 0.75800 0.27500
H 	H 	0.46380 0.29570 0.70180 0.07000
H 	H 	0.88640 0.17050 0.62370 0.17000
H 	H 	0.47380 0.16770 0.64040 0.03500
H 	H 	0.28550 0.18060 0.71570 0.24200
H 	H 	0.63960 0.60970 0.09100 0.12700
H 	H 	0.36140 0.75800 0.03470 0.27500
H 	H 	0.16560 0.70180 0.00250 0.06900
H 	H 	0.51010 0.62370 0.20580 0.16500
H 	H 	0.11420 0.64040 0.19190 0.03600
H 	H 	0.00120 0.71570 0.10370 0.24100
H 	H 	0.73060 0.09100 0.29930 0.12700
H 	H 	0.39610 0.03470 0.20730 0.27500
H 	H 	0.16810 0.00250 0.29570 0.06900
H 	H 	0.71590 0.20580 0.17050 0.16600
H 	H 	0.30610 0.19190 0.16770 0.03400
H 	H 	0.10490 0.10370 0.18060 0.24300
H 	H 	0.97010 0.70070 0.39030 0.12300
H 	H 	0.39660 0.79270 0.24200 0.27500
H 	H 	0.53620 0.70430 0.29820 0.07000
H 	H 	0.11360 0.82950 0.37630 0.17000
H 	H 	0.52620 0.83230 0.35960 0.03500
H 	H 	0.71450 0.81940 0.28430 0.24200
H 	H 	0.36040 0.39030 0.90900 0.12700
H 	H 	0.63860 0.24200 0.96530 0.27500
H 	H 	0.83440 0.29820 0.99750 0.06900
H 	H 	0.48990 0.37630 0.79420 0.16500
H 	H 	0.88580 0.35960 0.80810 0.03600
H 	H 	0.99880 0.28430 0.89630 0.24100
H 	H 	0.26940 0.90900 0.70070 0.12700
H 	H 	0.60390 0.96530 0.79270 0.27500
H 	H 	0.83190 0.99750 0.70430 0.06900
H 	H 	0.28410 0.79420 0.82950 0.16600
H 	H 	0.69390 0.80810 0.83230 0.03400
H 	H 	0.89510 0.89630 0.81940 0.24300
C 	C 	0.55554 0.40485 0.58643 0.37800
C 	C 	0.65658 0.34921 0.62007 -0.15200
C 	C 	0.82799 0.35012 0.59275 0.04100
C 	C 	0.91407 0.29762 0.62761 -0.20500
C 	C 	0.82865 0.24226 0.68931 0.33900
C 	C 	0.66065 0.24292 0.71637 -0.25400
C 	C 	0.57636 0.29594 0.68236 0.15900
C 	C 	0.91789 0.40319 0.52372 0.28200
C 	C 	0.92748 0.18468 0.72674 -0.48100
C 	C 	0.06378 0.17651 0.67867 0.35900
C 	C 	0.00411 0.16829 0.62836 -0.22900
C 	C 	0.11426 0.15695 0.58447 0.06500
C 	C 	0.29296 0.15736 0.58818 -0.13500
C 	C 	0.35434 0.16698 0.63746 0.18200
C 	C 	0.24122 0.17550 0.68234 -0.25300
C 	C 	0.03315 0.14635 0.53310 0.30200
C 	C 	0.42842 0.14828 0.54232 0.35100
C 	C 	0.79465 0.11645 0.76840 0.96400
C 	C 	0.01350 0.19944 0.77624 0.97300
C 	C 	0.14197 0.58643 0.00872 0.37400
C 	C 	0.27665 0.62007 0.03072 -0.15200
C 	C 	0.42074 0.59275 0.05713 0.04400
C 	C 	0.54168 0.62761 0.07477 -0.21300
C 	C 	0.51796 0.68931 0.06843 0.34200
C 	C 	0.37702 0.71637 0.04071 -0.25600
C 	C 	0.25872 0.68236 0.02170 0.16100
C 	C 	0.44161 0.52372 0.07309 0.28000
C 	C 	0.65422 0.72674 0.08858 -0.48600
C 	C 	0.74245 0.67867 0.14482 0.35900
C 	C 	0.63247 0.62836 0.20335 -0.22100
C 	C 	0.69873 0.58447 0.25858 0.06200
C 	C 	0.88114 0.58818 0.25446 -0.13400
C 	C 	0.99180 0.63746 0.19556 0.18000
C 	C 	0.92356 0.68234 0.14216 -0.25100
C 	C 	0.56625 0.53310 0.32055 0.30700
C 	C 	0.97074 0.54232 0.30940 0.35100
C 	C 	0.56305 0.76840 0.11515 0.96500
C 	C 	0.78974 0.77624 0.02432 0.97800
C 	C 	0.15069 0.00872 0.40485 0.37700
C 	C 	0.30737 0.03072 0.34921 -0.15400
C 	C 	0.47787 0.05713 0.35012 0.04400
C 	C 	0.61645 0.07477 0.29762 -0.21300
C 	C 	0.58639 0.06843 0.24226 0.34300
C 	C 	0.41773 0.04071 0.24292 -0.25700
C 	C 	0.28042 0.02170 0.29594 0.16100
C 	C 	0.51470 0.07309 0.40319 0.27900
C 	C 	0.74280 0.08858 0.18468 -0.48700
C 	C 	0.88727 0.14482 0.17651 0.36200
C 	C 	0.83582 0.20335 0.16829 -0.22400
C 	C 	0.95731 0.25858 0.15695 0.06600
C 	C 	0.13560 0.25446 0.15736 -0.13700
C 	C 	0.18736 0.19556 0.16698 0.18400
C 	C 	0.06572 0.14216 0.17550 -0.25600
C 	C 	0.88680 0.32055 0.14635 0.30600
C 	C 	0.28014 0.30940 0.14828 0.35100
C 	C 	0.67820 0.11515 0.11645 0.96500
C 	C 	0.81406 0.02432 0.19944 0.97700
C 	C 	0.44446 0.59515 0.41357 0.37800
C 	C 	0.34342 0.65079 0.37993 -0.15200
C 	C 	0.17201 0.64988 0.40725 0.04100
C 	C 	0.08593 0.70238 0.37239 -0.20500
C 	C 	0.17135 0.75774 0.31069 0.33900
C 	C 	0.33935 0.75708 0.28363 -0.25400
C 	C 	0.42364 0.70406 0.31764 0.15900
C 	C 	0.08211 0.59681 0.47628 0.28200
C 	C 	0.07252 0.81532 0.27326 -0.48100
C 	C 	0.93622 0.82349 0.32133 0.35900
C 	C 	0.99589 0.83171 0.37164 -0.22900
C 	C 	0.88574 0.84305 0.41553 0.06500
C 	C 	0.70704 0.84264 0.41182 -0.13500
C 	C 	0.64566 0.83302 0.36254 0.18200
C 	C 	0.75878 0.82450 0.31766 -0.25300
C 	C 	0.96685 0.85365 0.46690 0.30200
C 	C 	0.57158 0.85172 0.45768 0.35100
C 	C 	0.20535 0.88355 0.23160 0.96400
C 	C 	0.98650 0.80056 0.22376 0.97300
C 	C 	0.85803 0.41357 0.99128 0.37400
C 	C 	0.72335 0.37993 0.96928 -0.15200
C 	C 	0.57926 0.40725 0.94287 0.04400
C 	C 	0.45832 0.37239 0.92523 -0.21300
C 	C 	0.48204 0.31069 0.93157 0.34200
C 	C 	0.62298 0.28363 0.95929 -0.25600
C 	C 	0.74128 0.31764 0.97830 0.16100
C 	C 	0.55839 0.47628 0.92691 0.28000
C 	C 	0.34578 0.27326 0.91142 -0.48600
C 	C 	0.25755 0.32133 0.85518 0.35900
C 	C 	0.36753 0.37164 0.79665 -0.22100
C 	C 	0.30127 0.41553 0.74142 0.06200
C 	C 	0.11886 0.41182 0.74554 -0.13400
C 	C 	0.00820 0.36254 0.80444 0.18000
C 	C 	0.07644 0.31766 0.85784 -0.25100
C 	C 	0.43375 0.46690 0.67945 0.30700
C 	C 	0.02926 0.45768 0.69060 0.35100
C 	C 	0.43695 0.23160 0.88485 0.96500
C 	C 	0.21026 0.22376 0.97568 0.97800
C 	C 	0.84931 0.99128 0.59515 0.37700
C 	C 	0.69263 0.96928 0.65079 -0.15400
C 	C 	0.52213 0.94287 0.64988 0.04400
C 	C 	0.38355 0.92523 0.70238 -0.21300
C 	C 	0.41361 0.93157 0.75774 0.34300
C 	C 	0.58227 0.95929 0.75708 -0.25700
C 	C 	0.71958 0.97830 0.70406 0.16100
C 	C 	0.48530 0.92691 0.59681 0.27900
C 	C 	0.25720 0.91142 0.81532 -0.48700
C 	C 	0.11273 0.85518 0.82349 0.36200
C 	C 	0.16418 0.79665 0.83171 -0.22400
C 	C 	0.04269 0.74142 0.84305 0.06600
C 	C 	0.86440 0.74554 0.84264 -0.13700
C 	C 	0.81264 0.80444 0.83302 0.18400
C 	C 	0.93428 0.85784 0.82450 -0.25600
C 	C 	0.11320 0.67945 0.85365 0.30600
C 	C 	0.71986 0.69060 0.85172 0.35100
C 	C 	0.32180 0.88485 0.88355 0.96500
C 	C 	0.18594 0.97568 0.80056 0.97700
O 	O 	0.64104 0.46490 0.55078 -0.54400
O 	O 	0.39008 0.38920 0.59766 -0.40900
O 	O 	0.83559 0.41884 0.47577 -0.42100
O 	O 	0.07971 0.42935 0.51412 -0.52500
O 	O 	0.86977 0.14730 0.53579 -0.40100
O 	O 	0.12807 0.13656 0.49265 -0.42200
O 	O 	0.53606 0.19669 0.49761 -0.37000
O 	O 	0.43769 0.08798 0.55561 -0.47700
O 	O 	0.19182 0.55078 0.98432 -0.54200
O 	O 	0.98774 0.59766 0.01314 -0.40700
O 	O 	0.31136 0.47577 0.10539 -0.42100
O 	O 	0.59383 0.51412 0.05653 -0.52400
O 	O 	0.40556 0.53579 0.31691 -0.40400
O 	O 	0.62072 0.49265 0.37079 -0.42300
O 	O 	0.03367 0.49761 0.30570 -0.37000
O 	O 	0.99330 0.55561 0.35641 -0.47800
O 	O 	0.17614 0.98432 0.46490 -0.54300
O 	O 	0.00088 0.01314 0.38920 -0.41000
O 	O 	0.41675 0.10539 0.41884 -0.42100
O 	O 	0.65036 0.05653 0.42935 -0.52400
O 	O 	0.72247 0.31691 0.14730 -0.40400
O 	O 	0.99151 0.37079 0.13656 -0.42200
O 	O 	0.33937 0.30570 0.19669 -0.37000
O 	O 	0.34971 0.35641 0.08798 -0.47800
O 	O 	0.35896 0.53510 0.44922 -0.54400
O 	O 	0.60992 0.61080 0.40234 -0.40900
O 	O 	0.16441 0.58116 0.52423 -0.42100
O 	O 	0.92029 0.57065 0.48588 -0.52500
O 	O 	0.13023 0.85270 0.46421 -0.40100
O 	O 	0.87193 0.86344 0.50735 -0.42200
O 	O 	0.46394 0.80331 0.50239 -0.37000
O 	O 	0.56231 0.91202 0.44439 -0.47700
O 	O 	0.80818 0.44922 0.01568 -0.54200
O 	O 	0.01226 0.40234 0.98686 -0.40700
O 	O 	0.68864 0.52423 0.89461 -0.42100
O 	O 	0.40617 0.48588 0.94347 -0.52400
O 	O 	0.59444 0.46421 0.68309 -0.40400
O 	O 	0.37928 0.50735 0.62921 -0.42300
O 	O 	0.96633 0.50239 0.69430 -0.37000
O 	O 	0.00670 0.44439 0.64359 -0.47800
O 	O 	0.82386 0.01568 0.53510 -0.54300
O 	O 	0.99912 0.98686 0.61080 -0.41000
O 	O 	0.58325 0.89461 0.58116 -0.42100
O 	O 	0.34964 0.94347 0.57065 -0.52400
O 	O 	0.27753 0.68309 0.85270 -0.40400
O 	O 	0.00849 0.62921 0.86344 -0.42200
O 	O 	0.66063 0.69430 0.80331 -0.37000
O 	O 	0.65029 0.64359 0.91202 -0.47800
F 	F 	0.87721 0.06497 0.78784 -0.39200
F 	F 	0.69766 0.10918 0.82380 -0.35500
F 	F 	0.67864 0.10984 0.73212 -0.47900
F 	F 	0.08752 0.14920 0.81654 -0.36100
F 	F 	0.89801 0.21067 0.81504 -0.40000
F 	F 	0.14034 0.25437 0.74285 -0.49600
F 	F 	0.66505 0.78784 0.14719 -0.39400
F 	F 	0.52146 0.82380 0.06702 -0.35600
F 	F 	0.41076 0.73212 0.15804 -0.47900
F 	F 	0.90406 0.81654 0.03426 -0.36100
F 	F 	0.71305 0.81504 0.97429 -0.40300
F 	F 	0.88319 0.74285 0.00278 -0.49600
F 	F 	0.81224 0.14719 0.06497 -0.39300
F 	F 	0.58848 0.06702 0.10918 -0.35600
F 	F 	0.56880 0.15804 0.10984 -0.47900
F 	F 	0.93832 0.03426 0.14920 -0.36100
F 	F 	0.68734 0.97429 0.21067 -0.40200
F 	F 	0.88597 0.00278 0.25437 -0.49700
F 	F 	0.12279 0.93503 0.21216 -0.39200
F 	F 	0.30234 0.89082 0.17620 -0.35500
F 	F 	0.32136 0.89016 0.26788 -0.47900
F 	F 	0.91248 0.85080 0.18346 -0.36100
F 	F 	0.10199 0.78933 0.18496 -0.40000
F 	F 	0.85966 0.74563 0.25715 -0.49600
F 	F 	0.33495 0.21216 0.85281 -0.39400
F 	F 	0.47854 0.17620 0.93298 -0.35600
F 	F 	0.58924 0.26788 0.84196 -0.47900
F 	F 	0.09594 0.18346 0.96574 -0.36100
F 	F 	0.28695 0.18496 0.02571 -0.40300
F 	F 	0.11681 0.25715 0.99722 -0.49600
F 	F 	0.18776 0.85281 0.93503 -0.39300
F 	F 	0.41152 0.93298 0.89082 -0.35600
F 	F 	0.43120 0.84196 0.89016 -0.47900
F 	F 	0.06168 0.96574 0.85080 -0.36100
F 	F 	0.31266 0.02571 0.78933 -0.40200
F 	F 	0.11403 0.99722 0.74563 -0.49700
