data_crystal

_cell_length_a 14.33300
_cell_length_b 14.64200
_cell_length_c 14.64200
_cell_angle_alpha 90.00000
_cell_angle_beta  90.00000
_cell_angle_gamma 90.00000

_symmetry_space_group_name_	'P 1'
_symmetry_space_group_name_H-M	'P 1'

loop_
_symmetry_equiv_pos_as_xyz
  x,y,z

loop_
_atom_site_label
_atom_site_type_symbol
_atom_site_fract_x
_atom_site_fract_y
_atom_site_fract_z
_atom_site_charge
Yb	Yb	0.51506 0.36654 0.58641 1.55100
Yb	Yb	0.01506 0.63346 0.41359 1.52700
Yb	Yb	0.76506 0.41359 0.36654 1.55500
Yb	Yb	0.26506 0.58641 0.63346 1.55100
H 	H 	0.89570 0.48140 0.55540 -0.00000
H 	H 	0.00810 0.51500 0.80340 -0.05300
H 	H 	0.75840 0.39020 0.77470 0.01500
H 	H 	0.82530 0.31100 0.90530 0.10800
H 	H 	0.79880 0.30240 0.05980 0.01800
H 	H 	0.88140 0.56180 0.09250 0.01900
H 	H 	0.91580 0.56760 0.93530 0.11100
H 	H 	0.39570 0.51860 0.44460 -0.00600
H 	H 	0.50810 0.48500 0.19660 0.02500
H 	H 	0.25840 0.60980 0.22530 0.01800
H 	H 	0.32530 0.68900 0.09470 0.09400
H 	H 	0.29880 0.69760 0.94020 0.01500
H 	H 	0.38140 0.43820 0.90750 0.01400
H 	H 	0.41580 0.43240 0.06470 0.09200
H 	H 	0.14570 0.44460 0.48140 -0.02800
H 	H 	0.25810 0.19660 0.51500 0.01600
H 	H 	0.00840 0.22530 0.39020 -0.00800
H 	H 	0.07530 0.09470 0.31100 0.09200
H 	H 	0.04880 0.94020 0.30240 0.00800
H 	H 	0.13140 0.90750 0.56180 0.00900
H 	H 	0.16580 0.06470 0.56760 0.09200
H 	H 	0.64570 0.55540 0.51860 -0.00400
H 	H 	0.75810 0.80340 0.48500 0.03400
H 	H 	0.50840 0.77470 0.60980 0.02400
H 	H 	0.57530 0.90530 0.68900 0.09500
H 	H 	0.54880 0.05980 0.69760 0.02000
H 	H 	0.63140 0.09250 0.43820 0.02000
H 	H 	0.66580 0.93530 0.43240 0.09500
C 	C 	0.81620 0.42880 0.65530 -0.19400
C 	C 	0.89260 0.47190 0.61810 0.12600
C 	C 	0.96500 0.50110 0.67360 -0.15300
C 	C 	0.96030 0.49250 0.76690 0.17000
C 	C 	0.88270 0.44950 0.80700 -0.12800
C 	C 	0.81050 0.41830 0.74940 0.09000
C 	C 	0.73750 0.39920 0.59910 0.46000
C 	C 	0.05040 0.54370 0.63030 0.39800
C 	C 	0.87280 0.44070 0.90650 0.16200
C 	C 	0.83770 0.36090 0.94270 -0.18900
C 	C 	0.82140 0.35640 0.03470 0.10000
C 	C 	0.83780 0.43060 0.09110 -0.14400
C 	C 	0.87160 0.51120 0.05540 0.09400
C 	C 	0.89080 0.51480 0.96070 -0.18100
C 	C 	0.81210 0.42390 0.18910 0.35100
C 	C 	0.31620 0.57120 0.34470 -0.18700
C 	C 	0.39260 0.52810 0.38190 0.11600
C 	C 	0.46500 0.49890 0.32640 -0.16500
C 	C 	0.46030 0.50750 0.23310 0.05700
C 	C 	0.38270 0.55050 0.19300 -0.08600
C 	C 	0.31050 0.58170 0.25060 0.06400
C 	C 	0.23750 0.60080 0.40090 0.45600
C 	C 	0.55040 0.45630 0.36970 0.43500
C 	C 	0.37280 0.55930 0.09350 0.12700
C 	C 	0.33770 0.63910 0.05730 -0.17600
C 	C 	0.32140 0.64360 0.96530 0.08600
C 	C 	0.33780 0.56940 0.90890 -0.14400
C 	C 	0.37160 0.48880 0.94460 0.07900
C 	C 	0.39080 0.48520 0.03930 -0.16900
C 	C 	0.31210 0.57610 0.81090 0.34800
C 	C 	0.06620 0.34470 0.42880 -0.26900
C 	C 	0.14260 0.38190 0.47190 0.15700
C 	C 	0.21500 0.32640 0.50110 -0.19200
C 	C 	0.21030 0.23310 0.49250 0.07900
C 	C 	0.13270 0.19300 0.44950 -0.11300
C 	C 	0.06050 0.25060 0.41830 0.10400
C 	C 	0.98750 0.40090 0.39920 0.52200
C 	C 	0.30040 0.36970 0.54370 0.44300
C 	C 	0.12280 0.09350 0.44070 0.13600
C 	C 	0.08770 0.05730 0.36090 -0.18300
C 	C 	0.07140 0.96530 0.35640 0.08800
C 	C 	0.08780 0.90890 0.43060 -0.15100
C 	C 	0.12160 0.94460 0.51120 0.08100
C 	C 	0.14080 0.03930 0.51480 -0.17600
C 	C 	0.06210 0.81090 0.42390 0.34900
C 	C 	0.56620 0.65530 0.57120 -0.18000
C 	C 	0.64260 0.61810 0.52810 0.11000
C 	C 	0.71500 0.67360 0.49890 -0.15500
C 	C 	0.71030 0.76690 0.50750 0.05100
C 	C 	0.63270 0.80700 0.55050 -0.07700
C 	C 	0.56050 0.74940 0.58170 0.05900
C 	C 	0.48750 0.59910 0.60080 0.45300
C 	C 	0.80040 0.63030 0.45630 0.42900
C 	C 	0.62280 0.90650 0.55930 0.12400
C 	C 	0.58770 0.94270 0.63910 -0.16600
C 	C 	0.57140 0.03470 0.64360 0.08200
C 	C 	0.58780 0.09110 0.56940 -0.13600
C 	C 	0.62160 0.05540 0.48880 0.07700
C 	C 	0.64080 0.96070 0.48520 -0.15900
C 	C 	0.56210 0.18910 0.57610 0.34700
O 	O 	0.66160 0.38580 0.63770 -0.45700
O 	O 	0.74860 0.39170 0.51430 -0.47800
O 	O 	0.12400 0.54090 0.67270 -0.46700
O 	O 	0.04010 0.57860 0.55180 -0.47600
O 	O 	0.78170 0.35080 0.22030 -0.39800
O 	O 	0.82590 0.49170 0.23930 -0.38600
O 	O 	0.16160 0.61420 0.36230 -0.46500
O 	O 	0.24860 0.60830 0.48570 -0.48100
O 	O 	0.62400 0.45910 0.32730 -0.46700
O 	O 	0.54010 0.42140 0.44820 -0.46500
O 	O 	0.28170 0.64920 0.77970 -0.40800
O 	O 	0.32590 0.50830 0.76070 -0.39500
O 	O 	0.91160 0.36230 0.38580 -0.45800
O 	O 	0.99860 0.48570 0.39170 -0.46400
O 	O 	0.37400 0.32730 0.54090 -0.47100
O 	O 	0.29010 0.44820 0.57860 -0.46900
O 	O 	0.03170 0.77970 0.35080 -0.42000
O 	O 	0.07590 0.76070 0.49170 -0.40200
O 	O 	0.41160 0.63770 0.61420 -0.45700
O 	O 	0.49860 0.51430 0.60830 -0.47900
O 	O 	0.87400 0.67270 0.45910 -0.44100
O 	O 	0.79010 0.55180 0.42140 -0.45900
O 	O 	0.53170 0.22030 0.64920 -0.40300
O 	O 	0.57590 0.23930 0.50830 -0.39000
