data_crystal

_cell_length_a 26.44600
_cell_length_b 26.44600
_cell_length_c 26.44600
_cell_angle_alpha 90.00000
_cell_angle_beta  90.00000
_cell_angle_gamma 90.00000

_symmetry_space_group_name_	'P 1'
_symmetry_space_group_name_H-M	'P 1'

loop_
_symmetry_equiv_pos_as_xyz
  x,y,z

loop_
_atom_site_label
_atom_site_type_symbol
_atom_site_fract_x
_atom_site_fract_y
_atom_site_fract_z
_atom_site_charge
O 	O 	0.18333 0.05268 0.25679 -0.42600
O 	O 	0.18333 0.55268 0.75679 -0.40600
O 	O 	0.68333 0.05268 0.75679 -0.41700
O 	O 	0.68333 0.55268 0.25679 -0.40400
O 	O 	0.81667 0.94732 0.25679 -0.36800
O 	O 	0.81667 0.44732 0.75679 -0.39600
O 	O 	0.31667 0.94732 0.75679 -0.37000
O 	O 	0.31667 0.44732 0.25679 -0.40500
O 	O 	0.81667 0.05268 0.74321 -0.41100
O 	O 	0.81667 0.55268 0.24321 -0.39800
O 	O 	0.31667 0.05268 0.24321 -0.42100
O 	O 	0.31667 0.55268 0.74321 -0.40000
O 	O 	0.18333 0.94732 0.74321 -0.37400
O 	O 	0.18333 0.44732 0.24321 -0.40900
O 	O 	0.68333 0.94732 0.24321 -0.37200
O 	O 	0.68333 0.44732 0.74321 -0.40000
O 	O 	0.25679 0.18333 0.05268 -0.42600
O 	O 	0.25679 0.68333 0.55268 -0.40400
O 	O 	0.75679 0.18333 0.55268 -0.40700
O 	O 	0.75679 0.68333 0.05268 -0.41800
O 	O 	0.25679 0.81667 0.94732 -0.36900
O 	O 	0.25679 0.31667 0.44732 -0.40600
O 	O 	0.75679 0.81667 0.44732 -0.39700
O 	O 	0.75679 0.31667 0.94732 -0.37100
O 	O 	0.74321 0.81667 0.05268 -0.41200
O 	O 	0.74321 0.31667 0.55268 -0.40100
O 	O 	0.24321 0.81667 0.55268 -0.39900
O 	O 	0.24321 0.31667 0.05268 -0.42200
O 	O 	0.74321 0.18333 0.94732 -0.37500
O 	O 	0.74321 0.68333 0.44732 -0.40100
O 	O 	0.24321 0.18333 0.44732 -0.41000
O 	O 	0.24321 0.68333 0.94732 -0.37300
O 	O 	0.05268 0.25679 0.18333 -0.42700
O 	O 	0.05268 0.75679 0.68333 -0.41800
O 	O 	0.55268 0.25679 0.68333 -0.40500
O 	O 	0.55268 0.75679 0.18333 -0.40700
O 	O 	0.94732 0.25679 0.81667 -0.36900
O 	O 	0.94732 0.75679 0.31667 -0.37100
O 	O 	0.44732 0.25679 0.31667 -0.40600
O 	O 	0.44732 0.75679 0.81667 -0.39700
O 	O 	0.05268 0.74321 0.81667 -0.41200
O 	O 	0.05268 0.24321 0.31667 -0.42200
O 	O 	0.55268 0.74321 0.31667 -0.40100
O 	O 	0.55268 0.24321 0.81667 -0.39900
O 	O 	0.94732 0.74321 0.18333 -0.37500
O 	O 	0.94732 0.24321 0.68333 -0.37300
O 	O 	0.44732 0.74321 0.68333 -0.40100
O 	O 	0.44732 0.24321 0.18333 -0.41000
O 	O 	0.05268 0.18333 0.74321 -0.42300
O 	O 	0.05268 0.68333 0.24321 -0.42100
O 	O 	0.55268 0.18333 0.24321 -0.41000
O 	O 	0.55268 0.68333 0.74321 -0.40100
O 	O 	0.94732 0.81667 0.74321 -0.36500
O 	O 	0.94732 0.31667 0.24321 -0.37400
O 	O 	0.44732 0.81667 0.24321 -0.40000
O 	O 	0.44732 0.31667 0.74321 -0.40200
O 	O 	0.05268 0.81667 0.25679 -0.41700
O 	O 	0.05268 0.31667 0.75679 -0.41900
O 	O 	0.55268 0.81667 0.75679 -0.39600
O 	O 	0.55268 0.31667 0.25679 -0.40600
O 	O 	0.94732 0.18333 0.25679 -0.37900
O 	O 	0.94732 0.68333 0.75679 -0.37000
O 	O 	0.44732 0.18333 0.75679 -0.40700
O 	O 	0.44732 0.68333 0.25679 -0.40500
O 	O 	0.18333 0.25679 0.94732 -0.37900
O 	O 	0.18333 0.75679 0.44732 -0.40700
O 	O 	0.68333 0.25679 0.44732 -0.40500
O 	O 	0.68333 0.75679 0.94732 -0.37000
O 	O 	0.81667 0.25679 0.05268 -0.41700
O 	O 	0.81667 0.75679 0.55268 -0.39600
O 	O 	0.31667 0.25679 0.55268 -0.40600
O 	O 	0.31667 0.75679 0.05268 -0.41900
O 	O 	0.81667 0.74321 0.94732 -0.36500
O 	O 	0.81667 0.24321 0.44732 -0.40000
O 	O 	0.31667 0.74321 0.44732 -0.40200
O 	O 	0.31667 0.24321 0.94732 -0.37400
O 	O 	0.18333 0.74321 0.05268 -0.42300
O 	O 	0.18333 0.24321 0.55268 -0.41000
O 	O 	0.68333 0.74321 0.55268 -0.40100
O 	O 	0.68333 0.24321 0.05268 -0.42100
O 	O 	0.25679 0.05268 0.81667 -0.41700
O 	O 	0.25679 0.55268 0.31667 -0.40600
O 	O 	0.75679 0.05268 0.31667 -0.41900
O 	O 	0.75679 0.55268 0.81667 -0.39600
O 	O 	0.25679 0.94732 0.18333 -0.37900
O 	O 	0.25679 0.44732 0.68333 -0.40500
O 	O 	0.75679 0.94732 0.68333 -0.37000
O 	O 	0.75679 0.44732 0.18333 -0.40700
O 	O 	0.74321 0.05268 0.18333 -0.42300
O 	O 	0.74321 0.55268 0.68333 -0.40100
O 	O 	0.24321 0.05268 0.68333 -0.42100
O 	O 	0.24321 0.55268 0.18333 -0.41000
O 	O 	0.74321 0.94732 0.81667 -0.36500
O 	O 	0.74321 0.44732 0.31667 -0.40200
O 	O 	0.24321 0.94732 0.31667 -0.37400
O 	O 	0.24321 0.44732 0.81667 -0.40000
O 	O 	0.81667 0.94732 0.74321 -0.36500
O 	O 	0.81667 0.44732 0.24321 -0.40000
O 	O 	0.31667 0.94732 0.24321 -0.37400
O 	O 	0.31667 0.44732 0.74321 -0.40200
O 	O 	0.18333 0.05268 0.74321 -0.42300
O 	O 	0.18333 0.55268 0.24321 -0.41000
O 	O 	0.68333 0.05268 0.24321 -0.42100
O 	O 	0.68333 0.55268 0.74321 -0.40100
O 	O 	0.18333 0.94732 0.25679 -0.37900
O 	O 	0.18333 0.44732 0.75679 -0.40700
O 	O 	0.68333 0.94732 0.75679 -0.37000
O 	O 	0.68333 0.44732 0.25679 -0.40500
O 	O 	0.81667 0.05268 0.25679 -0.41700
O 	O 	0.81667 0.55268 0.75679 -0.39600
O 	O 	0.31667 0.05268 0.75679 -0.41900
O 	O 	0.31667 0.55268 0.25679 -0.40600
O 	O 	0.74321 0.81667 0.94732 -0.36500
O 	O 	0.74321 0.31667 0.44732 -0.40200
O 	O 	0.24321 0.81667 0.44732 -0.40000
O 	O 	0.24321 0.31667 0.94732 -0.37400
O 	O 	0.74321 0.18333 0.05268 -0.42300
O 	O 	0.74321 0.68333 0.55268 -0.40100
O 	O 	0.24321 0.18333 0.55268 -0.41000
O 	O 	0.24321 0.68333 0.05268 -0.42100
O 	O 	0.25679 0.18333 0.94732 -0.37900
O 	O 	0.25679 0.68333 0.44732 -0.40500
O 	O 	0.75679 0.18333 0.44732 -0.40700
O 	O 	0.75679 0.68333 0.94732 -0.37000
O 	O 	0.25679 0.81667 0.05268 -0.41700
O 	O 	0.25679 0.31667 0.55268 -0.40600
O 	O 	0.75679 0.81667 0.55268 -0.39600
O 	O 	0.75679 0.31667 0.05268 -0.41900
O 	O 	0.94732 0.74321 0.81667 -0.36500
O 	O 	0.94732 0.24321 0.31667 -0.37400
O 	O 	0.44732 0.74321 0.31667 -0.40200
O 	O 	0.44732 0.24321 0.81667 -0.40000
O 	O 	0.05268 0.74321 0.18333 -0.42300
O 	O 	0.05268 0.24321 0.68333 -0.42100
O 	O 	0.55268 0.74321 0.68333 -0.40100
O 	O 	0.55268 0.24321 0.18333 -0.41000
O 	O 	0.94732 0.25679 0.18333 -0.37900
O 	O 	0.94732 0.75679 0.68333 -0.37000
O 	O 	0.44732 0.25679 0.68333 -0.40500
O 	O 	0.44732 0.75679 0.18333 -0.40700
O 	O 	0.05268 0.25679 0.81667 -0.41700
O 	O 	0.05268 0.75679 0.31667 -0.41900
O 	O 	0.55268 0.25679 0.31667 -0.40600
O 	O 	0.55268 0.75679 0.81667 -0.39600
O 	O 	0.94732 0.81667 0.25679 -0.36900
O 	O 	0.94732 0.31667 0.75679 -0.37100
O 	O 	0.44732 0.81667 0.75679 -0.39700
O 	O 	0.44732 0.31667 0.25679 -0.40600
O 	O 	0.05268 0.18333 0.25679 -0.42700
O 	O 	0.05268 0.68333 0.75679 -0.41800
O 	O 	0.55268 0.18333 0.75679 -0.40700
O 	O 	0.55268 0.68333 0.25679 -0.40500
O 	O 	0.94732 0.18333 0.74321 -0.37500
O 	O 	0.94732 0.68333 0.24321 -0.37300
O 	O 	0.44732 0.18333 0.24321 -0.41000
O 	O 	0.44732 0.68333 0.74321 -0.40100
O 	O 	0.05268 0.81667 0.74321 -0.41200
O 	O 	0.05268 0.31667 0.24321 -0.42200
O 	O 	0.55268 0.81667 0.24321 -0.39900
O 	O 	0.55268 0.31667 0.74321 -0.40100
O 	O 	0.81667 0.74321 0.05268 -0.41200
O 	O 	0.81667 0.24321 0.55268 -0.39900
O 	O 	0.31667 0.74321 0.55268 -0.40100
O 	O 	0.31667 0.24321 0.05268 -0.42200
O 	O 	0.18333 0.74321 0.94732 -0.37500
O 	O 	0.18333 0.24321 0.44732 -0.41000
O 	O 	0.68333 0.74321 0.44732 -0.40100
O 	O 	0.68333 0.24321 0.94732 -0.37300
O 	O 	0.18333 0.25679 0.05268 -0.42700
O 	O 	0.18333 0.75679 0.55268 -0.40700
O 	O 	0.68333 0.25679 0.55268 -0.40500
O 	O 	0.68333 0.75679 0.05268 -0.41800
O 	O 	0.81667 0.25679 0.94732 -0.36900
O 	O 	0.81667 0.75679 0.44732 -0.39700
O 	O 	0.31667 0.25679 0.44732 -0.40600
O 	O 	0.31667 0.75679 0.94732 -0.37100
O 	O 	0.74321 0.94732 0.18333 -0.37500
O 	O 	0.74321 0.44732 0.68333 -0.40100
O 	O 	0.24321 0.94732 0.68333 -0.37300
O 	O 	0.24321 0.44732 0.18333 -0.41000
O 	O 	0.74321 0.05268 0.81667 -0.41200
O 	O 	0.74321 0.55268 0.31667 -0.40100
O 	O 	0.24321 0.05268 0.31667 -0.42200
O 	O 	0.24321 0.55268 0.81667 -0.39900
O 	O 	0.25679 0.94732 0.81667 -0.36900
O 	O 	0.25679 0.44732 0.31667 -0.40600
O 	O 	0.75679 0.94732 0.31667 -0.37100
O 	O 	0.75679 0.44732 0.81667 -0.39700
O 	O 	0.25679 0.05268 0.18333 -0.42700
O 	O 	0.25679 0.55268 0.68333 -0.40500
O 	O 	0.75679 0.05268 0.68333 -0.41800
O 	O 	0.75679 0.55268 0.18333 -0.40700
Cu	Cu	0.21426 -0.00000 0.21426 0.87200
Cu	Cu	0.21426 0.50000 0.71426 0.90200
Cu	Cu	0.71426 0.00000 0.71426 0.87500
Cu	Cu	0.71426 0.50000 0.21426 0.90200
Cu	Cu	0.78574 -0.00000 0.21426 0.87600
Cu	Cu	0.78574 0.50000 0.71426 0.90600
Cu	Cu	0.28574 0.00000 0.71426 0.87500
Cu	Cu	0.28574 0.50000 0.21426 0.90200
Cu	Cu	0.78574 -0.00000 0.78574 0.87900
Cu	Cu	0.78574 0.50000 0.28574 0.90600
Cu	Cu	0.28574 -0.00000 0.28574 0.87500
Cu	Cu	0.28574 0.50000 0.78574 0.90600
Cu	Cu	0.21426 -0.00000 0.78574 0.87600
Cu	Cu	0.21426 0.50000 0.28574 0.90200
Cu	Cu	0.71426 -0.00000 0.28574 0.87500
Cu	Cu	0.71426 0.50000 0.78574 0.90600
Cu	Cu	0.21426 0.21426 -0.00000 0.87200
Cu	Cu	0.21426 0.71426 0.50000 0.90200
Cu	Cu	0.71426 0.21426 0.50000 0.90200
Cu	Cu	0.71426 0.71426 -0.00000 0.87500
Cu	Cu	0.21426 0.78574 -0.00000 0.87600
Cu	Cu	0.21426 0.28574 0.50000 0.90200
Cu	Cu	0.71426 0.78574 0.50000 0.90600
Cu	Cu	0.71426 0.28574 -0.00000 0.87500
Cu	Cu	0.78574 0.78574 -0.00000 0.87900
Cu	Cu	0.78574 0.28574 0.50000 0.90600
Cu	Cu	0.28574 0.78574 0.50000 0.90600
Cu	Cu	0.28574 0.28574 -0.00000 0.87500
Cu	Cu	0.78574 0.21426 -0.00000 0.87600
Cu	Cu	0.78574 0.71426 0.50000 0.90600
Cu	Cu	0.28574 0.21426 0.50000 0.90200
Cu	Cu	0.28574 0.71426 -0.00000 0.87500
Cu	Cu	-0.00000 0.21426 0.21426 0.87200
Cu	Cu	0.00000 0.71426 0.71426 0.87500
Cu	Cu	0.50000 0.21426 0.71426 0.90200
Cu	Cu	0.50000 0.71426 0.21426 0.90200
Cu	Cu	-0.00000 0.21426 0.78574 0.87600
Cu	Cu	0.00000 0.71426 0.28574 0.87500
Cu	Cu	0.50000 0.21426 0.28574 0.90200
Cu	Cu	0.50000 0.71426 0.78574 0.90600
Cu	Cu	-0.00000 0.78574 0.78574 0.87900
Cu	Cu	-0.00000 0.28574 0.28574 0.87500
Cu	Cu	0.50000 0.78574 0.28574 0.90600
Cu	Cu	0.50000 0.28574 0.78574 0.90600
Cu	Cu	-0.00000 0.78574 0.21426 0.87600
Cu	Cu	0.00000 0.28574 0.71426 0.87500
Cu	Cu	0.50000 0.78574 0.71426 0.90600
Cu	Cu	0.50000 0.28574 0.21426 0.90200
C 	C 	0.20338 0.06947 0.29662 0.37100
C 	C 	0.17822 0.11374 0.32178 -0.13400
C 	C 	0.20338 0.56947 0.79662 0.36600
C 	C 	0.17822 0.61374 0.82178 -0.11300
C 	C 	0.79662 0.93053 0.29662 0.35900
C 	C 	0.82178 0.88626 0.32178 -0.09500
C 	C 	0.79662 0.43053 0.79662 0.36400
C 	C 	0.82178 0.38626 0.82178 -0.10000
C 	C 	0.29662 0.43053 0.29662 0.36900
C 	C 	0.32178 0.38626 0.32178 -0.11900
C 	C 	0.79662 0.06947 0.70338 0.36600
C 	C 	0.82178 0.11374 0.67822 -0.11700
C 	C 	0.79662 0.56947 0.20338 0.36600
C 	C 	0.82178 0.61374 0.17822 -0.11300
C 	C 	0.29662 0.06947 0.20338 0.37100
C 	C 	0.32178 0.11374 0.17822 -0.13400
C 	C 	0.20338 0.93053 0.70338 0.36100
C 	C 	0.17822 0.88626 0.67822 -0.10700
C 	C 	0.20338 0.43053 0.20338 0.37000
C 	C 	0.17822 0.38626 0.17822 -0.12900
C 	C 	0.29662 0.20338 0.06947 0.37100
C 	C 	0.32178 0.17822 0.11374 -0.13400
C 	C 	0.29662 0.70338 0.56947 0.36700
C 	C 	0.32178 0.67822 0.61374 -0.11500
C 	C 	0.29662 0.79662 0.93053 0.35900
C 	C 	0.32178 0.82178 0.88626 -0.09500
C 	C 	0.29662 0.29662 0.43053 0.36900
C 	C 	0.32178 0.32178 0.38626 -0.11900
C 	C 	0.70338 0.79662 0.06947 0.36600
C 	C 	0.67822 0.82178 0.11374 -0.11700
C 	C 	0.70338 0.29662 0.56947 0.36700
C 	C 	0.67822 0.32178 0.61374 -0.11500
C 	C 	0.20338 0.29662 0.06947 0.37100
C 	C 	0.17822 0.32178 0.11374 -0.13400
C 	C 	0.70338 0.20338 0.93053 0.36100
C 	C 	0.67822 0.17822 0.88626 -0.10700
C 	C 	0.70338 0.70338 0.43053 0.36600
C 	C 	0.67822 0.67822 0.38626 -0.11300
C 	C 	0.20338 0.20338 0.43053 0.37000
C 	C 	0.17822 0.17822 0.38626 -0.12900
C 	C 	0.06947 0.29662 0.20338 0.37100
C 	C 	0.11374 0.32178 0.17822 -0.13400
C 	C 	0.56947 0.29662 0.70338 0.36700
C 	C 	0.61374 0.32178 0.67822 -0.11500
C 	C 	0.93053 0.29662 0.79662 0.35900
C 	C 	0.88626 0.32178 0.82178 -0.09500
C 	C 	0.43053 0.29662 0.29662 0.36900
C 	C 	0.38626 0.32178 0.32178 -0.11900
C 	C 	0.06947 0.70338 0.79662 0.36600
C 	C 	0.11374 0.67822 0.82178 -0.11700
C 	C 	0.06947 0.20338 0.29662 0.37100
C 	C 	0.11374 0.17822 0.32178 -0.13400
C 	C 	0.56947 0.70338 0.29662 0.36700
C 	C 	0.61374 0.67822 0.32178 -0.11500
C 	C 	0.93053 0.70338 0.20338 0.36100
C 	C 	0.88626 0.67822 0.17822 -0.10700
C 	C 	0.43053 0.70338 0.70338 0.36600
C 	C 	0.38626 0.67822 0.67822 -0.11300
C 	C 	0.43053 0.20338 0.20338 0.37000
C 	C 	0.38626 0.17822 0.17822 -0.12900
C 	C 	0.06947 0.20338 0.70338 0.36900
C 	C 	0.11374 0.17822 0.67822 -0.13100
C 	C 	0.56947 0.20338 0.20338 0.36900
C 	C 	0.61374 0.17822 0.17822 -0.12800
C 	C 	0.93053 0.79662 0.70338 0.35800
C 	C 	0.88626 0.82178 0.67822 -0.09200
C 	C 	0.93053 0.29662 0.20338 0.36200
C 	C 	0.88626 0.32178 0.17822 -0.10900
C 	C 	0.43053 0.79662 0.20338 0.36700
C 	C 	0.38626 0.82178 0.17822 -0.11500
C 	C 	0.06947 0.79662 0.29662 0.36800
C 	C 	0.11374 0.82178 0.32178 -0.11900
C 	C 	0.56947 0.79662 0.79662 0.36300
C 	C 	0.61374 0.82178 0.82178 -0.09900
C 	C 	0.56947 0.29662 0.29662 0.36800
C 	C 	0.61374 0.32178 0.32178 -0.11700
C 	C 	0.93053 0.20338 0.29662 0.36200
C 	C 	0.88626 0.17822 0.32178 -0.10900
C 	C 	0.43053 0.20338 0.79662 0.36700
C 	C 	0.38626 0.17822 0.82178 -0.11500
C 	C 	0.20338 0.29662 0.93053 0.36200
C 	C 	0.17822 0.32178 0.88626 -0.10900
C 	C 	0.20338 0.79662 0.43053 0.36700
C 	C 	0.17822 0.82178 0.38626 -0.11500
C 	C 	0.79662 0.29662 0.06947 0.36800
C 	C 	0.82178 0.32178 0.11374 -0.11900
C 	C 	0.79662 0.79662 0.56947 0.36300
C 	C 	0.82178 0.82178 0.61374 -0.09900
C 	C 	0.29662 0.29662 0.56947 0.36800
C 	C 	0.32178 0.32178 0.61374 -0.11700
C 	C 	0.79662 0.70338 0.93053 0.35800
C 	C 	0.82178 0.67822 0.88626 -0.09200
C 	C 	0.79662 0.20338 0.43053 0.36700
C 	C 	0.82178 0.17822 0.38626 -0.11500
C 	C 	0.29662 0.20338 0.93053 0.36200
C 	C 	0.32178 0.17822 0.88626 -0.10900
C 	C 	0.20338 0.70338 0.06947 0.36900
C 	C 	0.17822 0.67822 0.11374 -0.13100
C 	C 	0.20338 0.20338 0.56947 0.36900
C 	C 	0.17822 0.17822 0.61374 -0.12800
C 	C 	0.29662 0.06947 0.79662 0.36800
C 	C 	0.32178 0.11374 0.82178 -0.11900
C 	C 	0.29662 0.56947 0.29662 0.36800
C 	C 	0.32178 0.61374 0.32178 -0.11700
C 	C 	0.29662 0.93053 0.20338 0.36200
C 	C 	0.32178 0.88626 0.17822 -0.10900
C 	C 	0.29662 0.43053 0.70338 0.36700
C 	C 	0.32178 0.38626 0.67822 -0.11600
C 	C 	0.70338 0.06947 0.20338 0.36900
C 	C 	0.67822 0.11374 0.17822 -0.13100
C 	C 	0.70338 0.56947 0.70338 0.36500
C 	C 	0.67822 0.61374 0.67822 -0.11200
C 	C 	0.20338 0.56947 0.20338 0.36900
C 	C 	0.17822 0.61374 0.17822 -0.12800
C 	C 	0.70338 0.93053 0.79662 0.35800
C 	C 	0.67822 0.88626 0.82178 -0.09200
C 	C 	0.70338 0.43053 0.29662 0.36700
C 	C 	0.67822 0.38626 0.32178 -0.11600
C 	C 	0.20338 0.93053 0.29662 0.36200
C 	C 	0.17822 0.88626 0.32178 -0.10900
C 	C 	0.79662 0.93053 0.70338 0.35800
C 	C 	0.82178 0.88626 0.67822 -0.09200
C 	C 	0.79662 0.43053 0.20338 0.36700
C 	C 	0.82178 0.38626 0.17822 -0.11500
C 	C 	0.20338 0.06947 0.70338 0.36900
C 	C 	0.17822 0.11374 0.67822 -0.13100
C 	C 	0.20338 0.43053 0.79662 0.36700
C 	C 	0.17822 0.38626 0.82178 -0.11500
C 	C 	0.79662 0.06947 0.29662 0.36800
C 	C 	0.82178 0.11374 0.32178 -0.11900
C 	C 	0.79662 0.56947 0.79662 0.36300
C 	C 	0.82178 0.61374 0.82178 -0.09900
C 	C 	0.70338 0.79662 0.93053 0.35800
C 	C 	0.67822 0.82178 0.88626 -0.09200
C 	C 	0.70338 0.29662 0.43053 0.36700
C 	C 	0.67822 0.32178 0.38626 -0.11600
C 	C 	0.70338 0.20338 0.06947 0.36900
C 	C 	0.67822 0.17822 0.11374 -0.13100
C 	C 	0.70338 0.70338 0.56947 0.36500
C 	C 	0.67822 0.67822 0.61374 -0.11200
C 	C 	0.29662 0.70338 0.43053 0.36700
C 	C 	0.32178 0.67822 0.38626 -0.11600
C 	C 	0.29662 0.79662 0.06947 0.36800
C 	C 	0.32178 0.82178 0.11374 -0.11900
C 	C 	0.93053 0.70338 0.79662 0.35800
C 	C 	0.88626 0.67822 0.82178 -0.09200
C 	C 	0.43053 0.70338 0.29662 0.36700
C 	C 	0.38626 0.67822 0.32178 -0.11600
C 	C 	0.06947 0.70338 0.20338 0.36900
C 	C 	0.11374 0.67822 0.17822 -0.13100
C 	C 	0.56947 0.70338 0.70338 0.36500
C 	C 	0.61374 0.67822 0.67822 -0.11200
C 	C 	0.43053 0.29662 0.70338 0.36700
C 	C 	0.38626 0.32178 0.67822 -0.11600
C 	C 	0.06947 0.29662 0.79662 0.36800
C 	C 	0.11374 0.32178 0.82178 -0.11900
C 	C 	0.93053 0.79662 0.29662 0.35900
C 	C 	0.88626 0.82178 0.32178 -0.09500
C 	C 	0.43053 0.79662 0.79662 0.36400
C 	C 	0.38626 0.82178 0.82178 -0.10000
C 	C 	0.56947 0.20338 0.79662 0.36600
C 	C 	0.61374 0.17822 0.82178 -0.11300
C 	C 	0.93053 0.20338 0.70338 0.36100
C 	C 	0.88626 0.17822 0.67822 -0.10700
C 	C 	0.06947 0.79662 0.70338 0.36600
C 	C 	0.11374 0.82178 0.67822 -0.11700
C 	C 	0.56947 0.79662 0.20338 0.36600
C 	C 	0.61374 0.82178 0.17822 -0.11300
C 	C 	0.79662 0.70338 0.06947 0.36600
C 	C 	0.82178 0.67822 0.11374 -0.11700
C 	C 	0.79662 0.20338 0.56947 0.36600
C 	C 	0.82178 0.17822 0.61374 -0.11300
C 	C 	0.20338 0.70338 0.93053 0.36100
C 	C 	0.17822 0.67822 0.88626 -0.10700
C 	C 	0.20338 0.79662 0.56947 0.36600
C 	C 	0.17822 0.82178 0.61374 -0.11300
C 	C 	0.79662 0.29662 0.93053 0.35900
C 	C 	0.82178 0.32178 0.88626 -0.09500
C 	C 	0.79662 0.79662 0.43053 0.36400
C 	C 	0.82178 0.82178 0.38626 -0.10000
C 	C 	0.70338 0.93053 0.20338 0.36100
C 	C 	0.67822 0.88626 0.17822 -0.10700
C 	C 	0.70338 0.43053 0.70338 0.36600
C 	C 	0.67822 0.38626 0.67822 -0.11300
C 	C 	0.70338 0.06947 0.79662 0.36600
C 	C 	0.67822 0.11374 0.82178 -0.11700
C 	C 	0.70338 0.56947 0.29662 0.36700
C 	C 	0.67822 0.61374 0.32178 -0.11500
C 	C 	0.29662 0.93053 0.79662 0.35900
C 	C 	0.32178 0.88626 0.82178 -0.09500
C 	C 	0.29662 0.56947 0.70338 0.36700
C 	C 	0.32178 0.61374 0.67822 -0.11500
C 	C 	0.19939 0.13517 0.36483 0.06800
H 	H 	0.22790 0.12060 0.37940 0.03300
C 	C 	0.69939 0.13517 0.86483 0.05700
H 	H 	0.72790 0.12060 0.87940 0.04600
C 	C 	0.80061 0.86483 0.36483 0.05100
H 	H 	0.77210 0.87940 0.37940 0.05400
C 	C 	0.30061 0.86483 0.86483 0.04900
H 	H 	0.27210 0.87940 0.87940 0.05800
C 	C 	0.30061 0.36483 0.36483 0.06300
H 	H 	0.27210 0.37940 0.37940 0.04000
C 	C 	0.80061 0.13517 0.63517 0.05900
H 	H 	0.77210 0.12060 0.62060 0.03900
C 	C 	0.30061 0.13517 0.13517 0.07000
H 	H 	0.27210 0.12060 0.12060 0.02700
C 	C 	0.19939 0.86483 0.63517 0.05600
H 	H 	0.22790 0.87940 0.62060 0.04900
C 	C 	0.19939 0.36483 0.13517 0.06800
H 	H 	0.22790 0.37940 0.12060 0.03300
C 	C 	0.69939 0.86483 0.13517 0.05700
H 	H 	0.72790 0.87940 0.12060 0.04600
C 	C 	0.36483 0.19939 0.13517 0.06800
H 	H 	0.37940 0.22790 0.12060 0.03300
C 	C 	0.36483 0.69939 0.63517 0.05900
H 	H 	0.37940 0.72790 0.62060 0.04500
C 	C 	0.36483 0.80061 0.86483 0.05100
H 	H 	0.37940 0.77210 0.87940 0.05400
C 	C 	0.36483 0.30061 0.36483 0.06300
H 	H 	0.37940 0.27210 0.37940 0.04000
C 	C 	0.63517 0.80061 0.13517 0.05900
H 	H 	0.62060 0.77210 0.12060 0.03900
C 	C 	0.63517 0.30061 0.63517 0.06000
H 	H 	0.62060 0.27210 0.62060 0.04200
C 	C 	0.13517 0.30061 0.13517 0.07000
H 	H 	0.12060 0.27210 0.12060 0.02700
C 	C 	0.63517 0.19939 0.86483 0.05600
H 	H 	0.62060 0.22790 0.87940 0.04900
C 	C 	0.63517 0.69939 0.36483 0.05900
H 	H 	0.62060 0.72790 0.37940 0.04500
C 	C 	0.13517 0.19939 0.36483 0.06800
H 	H 	0.12060 0.22790 0.37940 0.03300
C 	C 	0.13517 0.36483 0.19939 0.06800
H 	H 	0.12060 0.37940 0.22790 0.03300
C 	C 	0.13517 0.86483 0.69939 0.05700
H 	H 	0.12060 0.87940 0.72790 0.04600
C 	C 	0.86483 0.36483 0.80061 0.05100
H 	H 	0.87940 0.37940 0.77210 0.05400
C 	C 	0.86483 0.86483 0.30061 0.04900
H 	H 	0.87940 0.87940 0.27210 0.05800
C 	C 	0.36483 0.36483 0.30061 0.06300
H 	H 	0.37940 0.37940 0.27210 0.04000
C 	C 	0.13517 0.63517 0.80061 0.05900
H 	H 	0.12060 0.62060 0.77210 0.03900
C 	C 	0.13517 0.13517 0.30061 0.07000
H 	H 	0.12060 0.12060 0.27210 0.02700
C 	C 	0.86483 0.63517 0.19939 0.05600
H 	H 	0.87940 0.62060 0.22790 0.04900
C 	C 	0.86483 0.13517 0.69939 0.05700
H 	H 	0.87940 0.12060 0.72790 0.04600
C 	C 	0.36483 0.13517 0.19939 0.06800
H 	H 	0.37940 0.12060 0.22790 0.03300
C 	C 	0.13517 0.19939 0.63517 0.06700
H 	H 	0.12060 0.22790 0.62060 0.03400
C 	C 	0.13517 0.69939 0.13517 0.06700
H 	H 	0.12060 0.72790 0.12060 0.03100
C 	C 	0.86483 0.80061 0.63517 0.04900
H 	H 	0.87940 0.77210 0.62060 0.05400
C 	C 	0.86483 0.30061 0.13517 0.05900
H 	H 	0.87940 0.27210 0.12060 0.04200
C 	C 	0.36483 0.80061 0.13517 0.06100
H 	H 	0.37940 0.77210 0.12060 0.03800
C 	C 	0.13517 0.80061 0.36483 0.06100
H 	H 	0.12060 0.77210 0.37940 0.03800
C 	C 	0.13517 0.30061 0.86483 0.05900
H 	H 	0.12060 0.27210 0.87940 0.04200
C 	C 	0.86483 0.19939 0.36483 0.05800
H 	H 	0.87940 0.22790 0.37940 0.04900
C 	C 	0.86483 0.69939 0.86483 0.04700
H 	H 	0.87940 0.72790 0.87940 0.06200
C 	C 	0.36483 0.69939 0.36483 0.06100
H 	H 	0.37940 0.72790 0.37940 0.04400
C 	C 	0.19939 0.36483 0.86483 0.05800
H 	H 	0.22790 0.37940 0.87940 0.04900
C 	C 	0.69939 0.36483 0.36483 0.06100
H 	H 	0.72790 0.37940 0.37940 0.04400
C 	C 	0.80061 0.36483 0.13517 0.06100
H 	H 	0.77210 0.37940 0.12060 0.03800
C 	C 	0.30061 0.36483 0.63517 0.06100
H 	H 	0.27210 0.37940 0.62060 0.04100
C 	C 	0.80061 0.63517 0.86483 0.04900
H 	H 	0.77210 0.62060 0.87940 0.05400
C 	C 	0.80061 0.13517 0.36483 0.06100
H 	H 	0.77210 0.12060 0.37940 0.03800
C 	C 	0.30061 0.63517 0.36483 0.06100
H 	H 	0.27210 0.62060 0.37940 0.04100
C 	C 	0.19939 0.63517 0.13517 0.06700
H 	H 	0.22790 0.62060 0.12060 0.03400
C 	C 	0.69939 0.63517 0.63517 0.05700
H 	H 	0.72790 0.62060 0.62060 0.04600
C 	C 	0.69939 0.13517 0.13517 0.06700
H 	H 	0.72790 0.12060 0.12060 0.03100
C 	C 	0.36483 0.13517 0.80061 0.06100
H 	H 	0.37940 0.12060 0.77210 0.03800
C 	C 	0.36483 0.63517 0.30061 0.06100
H 	H 	0.37940 0.62060 0.27210 0.04100
C 	C 	0.36483 0.86483 0.19939 0.05800
H 	H 	0.37940 0.87940 0.22790 0.04900
C 	C 	0.36483 0.36483 0.69939 0.06100
H 	H 	0.37940 0.37940 0.72790 0.04400
C 	C 	0.63517 0.13517 0.19939 0.06700
H 	H 	0.62060 0.12060 0.22790 0.03400
C 	C 	0.63517 0.63517 0.69939 0.05700
H 	H 	0.62060 0.62060 0.72790 0.04600
C 	C 	0.13517 0.13517 0.69939 0.06700
H 	H 	0.12060 0.12060 0.72790 0.03100
C 	C 	0.63517 0.86483 0.80061 0.04900
H 	H 	0.62060 0.87940 0.77210 0.05400
C 	C 	0.63517 0.36483 0.30061 0.06100
H 	H 	0.62060 0.37940 0.27210 0.04100
C 	C 	0.13517 0.36483 0.80061 0.06100
H 	H 	0.12060 0.37940 0.77210 0.03800
C 	C 	0.80061 0.86483 0.63517 0.04900
H 	H 	0.77210 0.87940 0.62060 0.05400
C 	C 	0.30061 0.86483 0.13517 0.05900
H 	H 	0.27210 0.87940 0.12060 0.04200
C 	C 	0.19939 0.13517 0.63517 0.06700
H 	H 	0.22790 0.12060 0.62060 0.03400
C 	C 	0.19939 0.86483 0.36483 0.05800
H 	H 	0.22790 0.87940 0.37940 0.04900
C 	C 	0.69939 0.86483 0.86483 0.04700
H 	H 	0.72790 0.87940 0.87940 0.06200
C 	C 	0.30061 0.13517 0.86483 0.05900
H 	H 	0.27210 0.12060 0.87940 0.04200
C 	C 	0.63517 0.80061 0.86483 0.04900
H 	H 	0.62060 0.77210 0.87940 0.05400
C 	C 	0.63517 0.30061 0.36483 0.06100
H 	H 	0.62060 0.27210 0.37940 0.04100
C 	C 	0.63517 0.19939 0.13517 0.06700
H 	H 	0.62060 0.22790 0.12060 0.03400
C 	C 	0.63517 0.69939 0.63517 0.05700
H 	H 	0.62060 0.72790 0.62060 0.04600
C 	C 	0.36483 0.19939 0.86483 0.05800
H 	H 	0.37940 0.22790 0.87940 0.04900
C 	C 	0.36483 0.30061 0.63517 0.06100
H 	H 	0.37940 0.27210 0.62060 0.04100
C 	C 	0.86483 0.63517 0.80061 0.04900
H 	H 	0.87940 0.62060 0.77210 0.05400
C 	C 	0.86483 0.13517 0.30061 0.05900
H 	H 	0.87940 0.12060 0.27210 0.04200
C 	C 	0.13517 0.63517 0.19939 0.06700
H 	H 	0.12060 0.62060 0.22790 0.03400
C 	C 	0.86483 0.36483 0.19939 0.05800
H 	H 	0.87940 0.37940 0.22790 0.04900
C 	C 	0.86483 0.86483 0.69939 0.04700
H 	H 	0.87940 0.87940 0.72790 0.06200
C 	C 	0.13517 0.86483 0.30061 0.05900
H 	H 	0.12060 0.87940 0.27210 0.04200
C 	C 	0.86483 0.80061 0.36483 0.05100
H 	H 	0.87940 0.77210 0.37940 0.05400
C 	C 	0.86483 0.30061 0.86483 0.04900
H 	H 	0.87940 0.27210 0.87940 0.05800
C 	C 	0.13517 0.69939 0.86483 0.05700
H 	H 	0.12060 0.72790 0.87940 0.04600
C 	C 	0.86483 0.19939 0.63517 0.05600
H 	H 	0.87940 0.22790 0.62060 0.04900
C 	C 	0.86483 0.69939 0.13517 0.05700
H 	H 	0.87940 0.72790 0.12060 0.04600
C 	C 	0.13517 0.80061 0.63517 0.05900
H 	H 	0.12060 0.77210 0.62060 0.03900
C 	C 	0.80061 0.63517 0.13517 0.05900
H 	H 	0.77210 0.62060 0.12060 0.03900
C 	C 	0.30061 0.63517 0.63517 0.06000
H 	H 	0.27210 0.62060 0.62060 0.04200
C 	C 	0.19939 0.63517 0.86483 0.05600
H 	H 	0.22790 0.62060 0.87940 0.04900
C 	C 	0.69939 0.63517 0.36483 0.05900
H 	H 	0.72790 0.62060 0.37940 0.04500
C 	C 	0.69939 0.36483 0.63517 0.05900
H 	H 	0.72790 0.37940 0.62060 0.04500
C 	C 	0.80061 0.36483 0.86483 0.05100
H 	H 	0.77210 0.37940 0.87940 0.05400
C 	C 	0.63517 0.86483 0.19939 0.05600
H 	H 	0.62060 0.87940 0.22790 0.04900
C 	C 	0.63517 0.36483 0.69939 0.05900
H 	H 	0.62060 0.37940 0.72790 0.04500
C 	C 	0.63517 0.13517 0.80061 0.05900
H 	H 	0.62060 0.12060 0.77210 0.03900
C 	C 	0.63517 0.63517 0.30061 0.06000
H 	H 	0.62060 0.62060 0.27210 0.04200
C 	C 	0.36483 0.86483 0.80061 0.05100
H 	H 	0.37940 0.87940 0.77210 0.05400
C 	C 	0.36483 0.63517 0.69939 0.05900
H 	H 	0.37940 0.62060 0.72790 0.04500
