data_crystal

_cell_length_a 25.64330
_cell_length_b 13.39040
_cell_length_c 15.12090
_cell_angle_alpha 90.00000
_cell_angle_beta  92.75300
_cell_angle_gamma 90.00000

_symmetry_space_group_name_	'P 1'
_symmetry_space_group_name_H-M	'P 1'

loop_
_symmetry_equiv_pos_as_xyz
  x,y,z

loop_
_atom_site_label
_atom_site_type_symbol
_atom_site_fract_x
_atom_site_fract_y
_atom_site_fract_z
_atom_site_charge
Cd	Cd	0.76136 0.04973 0.99770 1.22900
O 	O 	0.68630 0.00100 0.11570 -0.31500
O 	O 	0.81730 0.01870 0.11310 -0.36100
O 	O 	0.59550 0.41040 0.09300 -0.19100
O 	O 	0.56190 0.98640 0.37030 -0.29100
C 	C 	0.68390 0.09310 0.12210 0.28800
C 	C 	0.56520 0.07720 0.37640 0.24700
C 	C 	0.82690 0.00430 0.19390 0.23700
C 	C 	0.59830 0.23910 0.31780 -0.16800
H 	H 	0.58000 0.27180 0.36100 0.13000
C 	C 	0.62460 0.08740 0.24980 -0.07500
H 	H 	0.62370 0.01810 0.24630 0.07800
O 	O 	0.76910 0.38020 0.06030 -0.32200
O 	O 	0.70760 0.14870 0.06930 -0.38500
C 	C 	0.63560 0.45540 0.11720 0.26000
C 	C 	0.79190 0.42890 0.12240 0.26300
O 	O 	0.95150 0.37690 0.42860 -0.35900
O 	O 	0.92900 0.52030 0.37120 -0.28800
C 	C 	0.65460 0.24600 0.19560 -0.16000
H 	H 	0.67450 0.28240 0.15710 0.11600
C 	C 	0.65300 0.14140 0.19090 0.01200
C 	C 	0.83610 0.22360 0.28070 0.21600
C 	C 	0.82120 0.37470 0.19560 0.02300
C 	C 	0.62580 0.29460 0.25880 0.23100
O 	O 	0.62330 0.39650 0.26950 -0.24800
O 	O 	0.82740 0.12840 0.30960 -0.25800
C 	C 	0.65330 0.45890 0.21390 0.18000
H 	H 	0.69000 0.43900 0.22010 -0.01500
C 	C 	0.88440 0.37360 0.31780 0.02300
C 	C 	0.81030 0.27340 0.20980 -0.16500
H 	H 	0.78630 0.23970 0.17260 0.10200
O 	O 	0.54170 0.12700 0.43430 -0.32900
C 	C 	0.87460 0.27640 0.33450 -0.15300
H 	H 	0.89270 0.24390 0.38070 0.12200
C 	C 	0.92420 0.42710 0.37670 0.28500
C 	C 	0.85620 0.42520 0.24880 -0.07500
H 	H 	0.86170 0.49310 0.24010 0.09500
O 	O 	0.86200 0.94790 0.22090 -0.17400
C 	C 	0.76990 0.99130 0.32080 -0.61000
H 	H 	0.74750 0.94650 0.28700 0.22600
H 	H 	0.79660 0.95380 0.35270 0.24200
H 	H 	0.74970 0.02770 0.36180 0.21300
C 	C 	0.59720 0.13600 0.31420 0.03100
O 	O 	0.79020 0.52350 0.12600 -0.36900
C 	C 	0.79460 0.06260 0.25980 0.18800
H 	H 	0.76730 0.10100 0.22730 -0.02600
C 	C 	0.64760 0.56490 0.24980 -0.66300
H 	H 	0.66700 0.61040 0.21500 0.22600
H 	H 	0.61140 0.58350 0.24670 0.25100
H 	H 	0.66080 0.56730 0.31030 0.24300
O 	O 	0.66380 0.49910 0.06430 -0.36100
Cd	Cd	0.26136 0.54973 0.99770 1.23200
O 	O 	0.18630 0.50100 0.11570 -0.31200
O 	O 	0.31730 0.51870 0.11310 -0.35600
O 	O 	0.09550 0.91040 0.09300 -0.19200
O 	O 	0.06190 0.48640 0.37030 -0.32500
C 	C 	0.18390 0.59310 0.12210 0.28900
C 	C 	0.06520 0.57720 0.37640 0.27600
C 	C 	0.32690 0.50430 0.19390 0.24200
C 	C 	0.09830 0.73910 0.31780 -0.16200
H 	H 	0.08000 0.77180 0.36100 0.12600
C 	C 	0.12460 0.58740 0.24980 -0.06900
H 	H 	0.12370 0.51810 0.24630 0.07800
O 	O 	0.26910 0.88020 0.06030 -0.32200
O 	O 	0.20760 0.64870 0.06930 -0.38400
C 	C 	0.13560 0.95540 0.11720 0.25500
C 	C 	0.29190 0.92890 0.12240 0.28900
O 	O 	0.45150 0.87690 0.42860 -0.37500
O 	O 	0.42900 0.02030 0.37120 -0.32300
C 	C 	0.15460 0.74600 0.19560 -0.15700
H 	H 	0.17450 0.78240 0.15710 0.11600
C 	C 	0.15300 0.64140 0.19090 0.00900
C 	C 	0.33610 0.72360 0.28070 0.21700
C 	C 	0.32120 0.87470 0.19560 0.01300
C 	C 	0.12580 0.79460 0.25880 0.22700
O 	O 	0.12330 0.89650 0.26950 -0.24800
O 	O 	0.32740 0.62840 0.30960 -0.26900
C 	C 	0.15330 0.95890 0.21390 0.20300
H 	H 	0.19000 0.93900 0.22010 -0.01800
C 	C 	0.38440 0.87360 0.31780 0.01100
C 	C 	0.31030 0.77340 0.20980 -0.16000
H 	H 	0.28630 0.73970 0.17260 0.10100
O 	O 	0.04170 0.62700 0.43430 -0.34100
C 	C 	0.37460 0.77640 0.33450 -0.14600
H 	H 	0.39270 0.74390 0.38070 0.12000
C 	C 	0.42420 0.92710 0.37670 0.31400
C 	C 	0.35620 0.92520 0.24880 -0.06300
H 	H 	0.36170 0.99310 0.24010 0.09600
O 	O 	0.36200 0.44790 0.22090 -0.19800
C 	C 	0.26990 0.49130 0.32080 -0.77800
H 	H 	0.24750 0.44650 0.28700 0.26700
H 	H 	0.29660 0.45380 0.35270 0.28300
H 	H 	0.24970 0.52770 0.36180 0.27600
C 	C 	0.09720 0.63600 0.31420 0.01900
O 	O 	0.29020 0.02350 0.12600 -0.39400
C 	C 	0.29460 0.56260 0.25980 0.25700
H 	H 	0.26730 0.60100 0.22730 -0.04500
C 	C 	0.14760 0.06490 0.24980 -0.69400
H 	H 	0.16700 0.11040 0.21500 0.22700
H 	H 	0.11140 0.08350 0.24670 0.24900
H 	H 	0.16080 0.06730 0.31030 0.24400
O 	O 	0.16380 0.99910 0.06430 -0.35000
Cd	Cd	0.23864 0.04973 0.00230 1.22900
O 	O 	0.31370 0.00100 0.88430 -0.31700
O 	O 	0.18270 0.01870 0.88690 -0.36700
O 	O 	0.40450 0.41040 0.90700 -0.19200
O 	O 	0.43810 0.98640 0.62970 -0.29200
C 	C 	0.31610 0.09310 0.87790 0.28800
C 	C 	0.43480 0.07720 0.62360 0.24700
C 	C 	0.17310 0.00430 0.80610 0.24000
C 	C 	0.40170 0.23910 0.68220 -0.16800
H 	H 	0.42000 0.27180 0.63900 0.13000
C 	C 	0.37540 0.08740 0.75020 -0.07500
H 	H 	0.37630 0.01810 0.75370 0.07800
O 	O 	0.23090 0.38020 0.93970 -0.32400
O 	O 	0.29240 0.14870 0.93070 -0.38600
C 	C 	0.36440 0.45540 0.88280 0.26100
C 	C 	0.20810 0.42890 0.87760 0.26300
O 	O 	0.04850 0.37690 0.57140 -0.38300
O 	O 	0.07100 0.52030 0.62880 -0.30700
C 	C 	0.34540 0.24600 0.80440 -0.16000
H 	H 	0.32550 0.28240 0.84290 0.11600
C 	C 	0.34700 0.14140 0.80910 0.01100
C 	C 	0.16390 0.22360 0.71930 0.21000
C 	C 	0.17880 0.37470 0.80440 0.01600
C 	C 	0.37420 0.29460 0.74120 0.23000
O 	O 	0.37670 0.39650 0.73050 -0.24700
O 	O 	0.17260 0.12840 0.69040 -0.26000
C 	C 	0.34670 0.45890 0.78610 0.17900
H 	H 	0.31000 0.43900 0.77990 -0.01500
C 	C 	0.11560 0.37360 0.68220 0.01100
C 	C 	0.18970 0.27340 0.79020 -0.16200
H 	H 	0.21370 0.23970 0.82740 0.10000
O 	O 	0.45830 0.12700 0.56570 -0.32900
C 	C 	0.12540 0.27640 0.66550 -0.14900
H 	H 	0.10730 0.24390 0.61930 0.11400
C 	C 	0.07580 0.42710 0.62330 0.29000
C 	C 	0.14380 0.42520 0.75120 -0.07100
H 	H 	0.13830 0.49310 0.75990 0.08900
O 	O 	0.13800 0.94790 0.77910 -0.18600
C 	C 	0.23010 0.99130 0.67920 -0.60000
H 	H 	0.25250 0.94650 0.71300 0.22300
H 	H 	0.20340 0.95380 0.64730 0.23600
H 	H 	0.25030 0.02770 0.63820 0.21000
C 	C 	0.40280 0.13600 0.68580 0.03100
O 	O 	0.20980 0.52350 0.87400 -0.37300
C 	C 	0.20540 0.06260 0.74020 0.18200
H 	H 	0.23270 0.10100 0.77270 -0.02400
C 	C 	0.35240 0.56490 0.75020 -0.66200
H 	H 	0.33300 0.61040 0.78500 0.22500
H 	H 	0.38860 0.58350 0.75330 0.25100
H 	H 	0.33920 0.56730 0.68970 0.24200
O 	O 	0.33620 0.49910 0.93570 -0.36100
Cd	Cd	0.73864 0.54973 0.00230 1.23300
O 	O 	0.81370 0.50100 0.88430 -0.30900
O 	O 	0.68270 0.51870 0.88690 -0.35700
O 	O 	0.90450 0.91040 0.90700 -0.17700
O 	O 	0.93810 0.48640 0.62970 -0.30700
C 	C 	0.81610 0.59310 0.87790 0.28800
C 	C 	0.93480 0.57720 0.62360 0.27200
C 	C 	0.67310 0.50430 0.80610 0.24200
C 	C 	0.90170 0.73910 0.68220 -0.16600
H 	H 	0.92000 0.77180 0.63900 0.13600
C 	C 	0.87540 0.58740 0.75020 -0.07300
H 	H 	0.87630 0.51810 0.75370 0.08400
O 	O 	0.73090 0.88020 0.93970 -0.32200
O 	O 	0.79240 0.64870 0.93070 -0.38200
C 	C 	0.86440 0.95540 0.88280 0.25000
C 	C 	0.70810 0.92890 0.87760 0.28800
O 	O 	0.54850 0.87690 0.57140 -0.37500
O 	O 	0.57100 0.02030 0.62880 -0.32300
C 	C 	0.84540 0.74600 0.80440 -0.16000
H 	H 	0.82550 0.78240 0.84290 0.11700
C 	C 	0.84700 0.64140 0.80910 0.01600
C 	C 	0.66390 0.72360 0.71930 0.21700
C 	C 	0.67880 0.87470 0.80440 0.01300
C 	C 	0.87420 0.79460 0.74120 0.23400
O 	O 	0.87670 0.89650 0.73050 -0.24600
O 	O 	0.67260 0.62840 0.69040 -0.27000
C 	C 	0.84670 0.95890 0.78610 0.21400
H 	H 	0.81000 0.93900 0.77990 -0.02200
C 	C 	0.61560 0.87360 0.68220 0.01100
C 	C 	0.68970 0.77340 0.79020 -0.16000
H 	H 	0.71370 0.73970 0.82740 0.10100
O 	O 	0.95830 0.62700 0.56570 -0.31600
C 	C 	0.62540 0.77640 0.66550 -0.14600
H 	H 	0.60730 0.74390 0.61930 0.12000
C 	C 	0.57580 0.92710 0.62330 0.31400
C 	C 	0.64380 0.92520 0.75120 -0.06300
H 	H 	0.63830 0.99310 0.75990 0.09600
O 	O 	0.63800 0.44790 0.77910 -0.19800
C 	C 	0.73010 0.49130 0.67920 -0.78100
H 	H 	0.75250 0.44650 0.71300 0.26800
H 	H 	0.70340 0.45380 0.64730 0.28400
H 	H 	0.75030 0.52770 0.63820 0.27700
C 	C 	0.90280 0.63600 0.68580 0.03100
O 	O 	0.70980 0.02350 0.87400 -0.39400
C 	C 	0.70540 0.56260 0.74020 0.25800
H 	H 	0.73270 0.60100 0.77270 -0.04600
C 	C 	0.85240 0.06490 0.75020 -0.71700
H 	H 	0.83300 0.11040 0.78500 0.23700
H 	H 	0.88860 0.08350 0.75330 0.26400
H 	H 	0.83920 0.06730 0.68970 0.25300
O 	O 	0.83620 0.99910 0.93570 -0.34600
Cd	Cd	0.50000 0.99342 0.50000 1.25600
Cd	Cd	-0.00000 0.49342 0.50000 1.23900
