data_crystal

_cell_length_a 34.91950
_cell_length_b 34.91950
_cell_length_c 12.05920
_cell_angle_alpha 90.00000
_cell_angle_beta  90.00000
_cell_angle_gamma 90.00000

_symmetry_space_group_name_	'P 1'
_symmetry_space_group_name_H-M	'P 1'

loop_
_symmetry_equiv_pos_as_xyz
  x,y,z

loop_
_atom_site_label
_atom_site_type_symbol
_atom_site_fract_x
_atom_site_fract_y
_atom_site_fract_z
_atom_site_charge
F 	F 	0.16700 0.48030 0.05340 -0.27800
F 	F 	0.21040 0.45180 0.96380 -0.07700
F 	F 	0.22340 0.50270 0.04770 -0.19100
F 	F 	0.22857 0.58670 0.96670 -0.06600
F 	F 	0.25200 0.60970 0.82150 -0.12000
F 	F 	0.28390 0.61120 0.96940 -0.06900
O 	O 	0.09056 0.55377 0.63870 -0.65600
O 	O 	0.07422 0.50720 0.76050 -0.71800
O 	O 	0.39438 0.53976 0.92760 -0.61900
O 	O 	0.39471 0.47850 0.86960 -0.69600
O 	O 	0.98953 0.55850 0.45620 -1.32000
O 	O 	0.03463 0.51349 0.35900 -1.33000
C 	C 	0.09780 0.53160 0.71610 0.68100
C 	C 	0.13880 0.53000 0.75630 -0.56500
C 	C 	0.14880 0.51150 0.85200 0.68100
H 	H 	0.12920 0.50070 0.89690 -0.09600
C 	C 	0.18700 0.50800 0.88570 -0.75900
C 	C 	0.21500 0.52370 0.81870 0.57600
C 	C 	0.20440 0.54230 0.72230 -0.84400
H 	H 	0.22360 0.55340 0.67650 1.04000
C 	C 	0.16650 0.54480 0.69180 0.73300
H 	H 	0.15980 0.55720 0.62430 -0.11600
C 	C 	0.19630 0.48750 0.98530 -0.54200
C 	C 	0.25670 0.52020 0.84050 0.48300
C 	C 	0.27860 0.55080 0.87950 -0.56500
C 	C 	0.31770 0.54560 0.89210 0.62900
H 	H 	0.33230 0.56670 0.91820 -0.02900
C 	C 	0.33670 0.51300 0.87040 -0.51100
C 	C 	0.31610 0.48190 0.83180 0.68200
H 	H 	0.32860 0.45830 0.81750 -0.08700
C 	C 	0.27610 0.48570 0.81360 -0.79500
H 	H 	0.26220 0.46480 0.78300 1.33200
C 	C 	0.26160 0.58710 0.90890 -0.43200
C 	C 	0.37800 0.50980 0.88900 0.69900
F 	F 	0.22890 0.44080 0.87400 0.04100
F 	F 	0.27550 0.41840 0.78300 -0.03600
F 	F 	0.23260 0.44990 0.70100 -0.10400
H 	H 	0.19350 0.49520 0.95260 0.99900
H 	H 	0.26700 0.57460 0.89700 0.82000
C 	C 	0.25440 0.45110 0.79400 -1.13200
F 	F 	0.26400 0.53000 0.64300 -0.10400
C 	C 	0.23450 0.55400 0.64400 -0.67800
F 	F 	0.24900 0.58800 0.66500 -0.10500
F 	F 	0.22300 0.55500 0.53900 -0.14400
F 	F 	0.33300 0.01970 0.05340 -0.27800
F 	F 	0.28960 0.04820 0.96380 -0.07800
F 	F 	0.27660 0.99730 0.04770 -0.19200
F 	F 	0.27143 0.91330 0.96670 -0.06700
F 	F 	0.24800 0.89030 0.82150 -0.12100
F 	F 	0.21610 0.88880 0.96940 -0.07000
O 	O 	0.40944 0.94623 0.63870 -0.65700
O 	O 	0.42578 0.99280 0.76050 -0.71800
O 	O 	0.10562 0.96024 0.92760 -0.62100
O 	O 	0.10529 0.02150 0.86960 -0.69900
O 	O 	0.51047 0.94150 0.45620 -1.32100
O 	O 	0.46537 0.98651 0.35900 -1.33100
C 	C 	0.40220 0.96840 0.71610 0.67900
C 	C 	0.36120 0.97000 0.75630 -0.56500
C 	C 	0.35120 0.98850 0.85200 0.67800
H 	H 	0.37080 0.99930 0.89690 -0.09500
C 	C 	0.31300 0.99200 0.88570 -0.75500
C 	C 	0.28500 0.97630 0.81870 0.57500
C 	C 	0.29560 0.95770 0.72230 -0.84400
H 	H 	0.27640 0.94660 0.67650 1.04000
C 	C 	0.33350 0.95520 0.69180 0.73300
H 	H 	0.34020 0.94280 0.62430 -0.11600
C 	C 	0.30370 0.01250 0.98530 -0.54400
C 	C 	0.24330 0.97980 0.84050 0.48400
C 	C 	0.22140 0.94920 0.87950 -0.56500
C 	C 	0.18230 0.95440 0.89210 0.62900
H 	H 	0.16770 0.93330 0.91820 -0.02900
C 	C 	0.16330 0.98700 0.87040 -0.50900
C 	C 	0.18390 0.01810 0.83180 0.68100
H 	H 	0.17140 0.04170 0.81750 -0.08700
C 	C 	0.22390 0.01430 0.81360 -0.79600
H 	H 	0.23780 0.03520 0.78300 1.33100
C 	C 	0.23840 0.91290 0.90890 -0.43200
C 	C 	0.12200 0.99020 0.88900 0.70100
F 	F 	0.27110 0.05920 0.87400 0.04100
F 	F 	0.22450 0.08160 0.78300 -0.03600
F 	F 	0.26740 0.05010 0.70100 -0.10500
H 	H 	0.30650 0.00480 0.95260 0.99800
H 	H 	0.23300 0.92540 0.89700 0.82000
C 	C 	0.24560 0.04890 0.79400 -1.13000
F 	F 	0.23600 0.97000 0.64300 -0.10300
C 	C 	0.26550 0.94600 0.64400 -0.67900
F 	F 	0.25100 0.91200 0.66500 -0.10500
F 	F 	0.27700 0.94500 0.53900 -0.14400
F 	F 	0.01970 0.16700 0.55340 -0.23100
F 	F 	0.04820 0.21040 0.46380 -0.14900
F 	F 	0.99730 0.22340 0.54770 -0.14800
F 	F 	0.91330 0.22857 0.46670 -0.12100
F 	F 	0.89030 0.25200 0.32150 -0.14300
F 	F 	0.88880 0.28390 0.46940 -0.12500
O 	O 	0.94623 0.09056 0.13870 -0.69000
O 	O 	0.99280 0.07422 0.26050 -0.73900
O 	O 	0.96024 0.39438 0.42760 -0.67700
O 	O 	0.02150 0.39471 0.36960 -0.73900
O 	O 	0.94150 0.98953 0.95620 -1.24900
O 	O 	0.98651 0.03463 0.85900 -1.29300
C 	C 	0.96840 0.09780 0.21610 0.66800
C 	C 	0.97000 0.13880 0.25630 -0.55200
C 	C 	0.98850 0.14880 0.35200 0.59600
H 	H 	0.99930 0.12920 0.39690 -0.10000
C 	C 	0.99200 0.18700 0.38570 -0.63700
C 	C 	0.97630 0.21500 0.31870 0.51100
C 	C 	0.95770 0.20440 0.22230 -0.83600
H 	H 	0.94660 0.22360 0.17650 1.05900
C 	C 	0.95520 0.16650 0.19180 0.70800
H 	H 	0.94280 0.15980 0.12430 -0.14100
C 	C 	0.01250 0.19630 0.48530 -0.38300
C 	C 	0.97980 0.25670 0.34050 0.50200
C 	C 	0.94920 0.27860 0.37950 -0.61700
C 	C 	0.95440 0.31770 0.39210 0.63800
H 	H 	0.93330 0.33230 0.41820 -0.06100
C 	C 	0.98700 0.33670 0.37040 -0.54900
C 	C 	0.01810 0.31610 0.33180 0.68700
H 	H 	0.04170 0.32860 0.31750 -0.10600
C 	C 	0.01430 0.27610 0.31360 -0.81800
H 	H 	0.03520 0.26220 0.28300 1.31300
C 	C 	0.91290 0.26160 0.40890 -0.41400
C 	C 	0.99020 0.37800 0.38900 0.70400
F 	F 	0.05920 0.22890 0.37400 0.02100
F 	F 	0.08160 0.27550 0.28300 -0.07000
F 	F 	0.05010 0.23260 0.20100 -0.13500
H 	H 	0.00480 0.19350 0.45260 0.78400
H 	H 	0.92540 0.26700 0.39700 0.81100
C 	C 	0.04890 0.25440 0.29400 -1.09900
F 	F 	0.97000 0.26400 0.14300 -0.11100
C 	C 	0.94600 0.23450 0.14400 -0.71400
F 	F 	0.91200 0.24900 0.16500 -0.13100
F 	F 	0.94500 0.22300 0.03900 -0.21000
F 	F 	0.48030 0.33300 0.55340 -0.23100
F 	F 	0.45180 0.28960 0.46380 -0.14900
F 	F 	0.50270 0.27660 0.54770 -0.14900
F 	F 	0.58670 0.27143 0.46670 -0.12100
F 	F 	0.60970 0.24800 0.32150 -0.14300
F 	F 	0.61120 0.21610 0.46940 -0.12500
O 	O 	0.55377 0.40944 0.13870 -0.69000
O 	O 	0.50720 0.42578 0.26050 -0.74000
O 	O 	0.53976 0.10562 0.42760 -0.67700
O 	O 	0.47850 0.10529 0.36960 -0.73800
O 	O 	0.55850 0.51047 0.95620 -1.24900
O 	O 	0.51349 0.46537 0.85900 -1.29400
C 	C 	0.53160 0.40220 0.21610 0.66800
C 	C 	0.53000 0.36120 0.25630 -0.55300
C 	C 	0.51150 0.35120 0.35200 0.59700
H 	H 	0.50070 0.37080 0.39690 -0.10100
C 	C 	0.50800 0.31300 0.38570 -0.63900
C 	C 	0.52370 0.28500 0.31870 0.51200
C 	C 	0.54230 0.29560 0.22230 -0.83700
H 	H 	0.55340 0.27640 0.17650 1.05900
C 	C 	0.54480 0.33350 0.19180 0.70800
H 	H 	0.55720 0.34020 0.12430 -0.14100
C 	C 	0.48750 0.30370 0.48530 -0.38200
C 	C 	0.52020 0.24330 0.34050 0.50100
C 	C 	0.55080 0.22140 0.37950 -0.61700
C 	C 	0.54560 0.18230 0.39210 0.63800
H 	H 	0.56670 0.16770 0.41820 -0.06100
C 	C 	0.51300 0.16330 0.37040 -0.55000
C 	C 	0.48190 0.18390 0.33180 0.68800
H 	H 	0.45830 0.17140 0.31750 -0.10700
C 	C 	0.48570 0.22390 0.31360 -0.81700
H 	H 	0.46480 0.23780 0.28300 1.31300
C 	C 	0.58710 0.23840 0.40890 -0.41500
C 	C 	0.50980 0.12200 0.38900 0.70300
F 	F 	0.44080 0.27110 0.37400 0.02100
F 	F 	0.41840 0.22450 0.28300 -0.07000
F 	F 	0.44990 0.26740 0.20100 -0.13500
H 	H 	0.49520 0.30650 0.45260 0.78400
H 	H 	0.57460 0.23300 0.39700 0.81100
C 	C 	0.45110 0.24560 0.29400 -1.09900
F 	F 	0.53000 0.23600 0.14300 -0.11100
C 	C 	0.55400 0.26550 0.14400 -0.71300
F 	F 	0.58800 0.25100 0.16500 -0.13100
F 	F 	0.55500 0.27700 0.03900 -0.21000
F 	F 	0.83300 0.98030 0.44660 -0.22700
F 	F 	0.78960 0.95180 0.53620 -0.14300
F 	F 	0.77660 0.00270 0.45230 -0.14700
F 	F 	0.77143 0.08670 0.53330 -0.12100
F 	F 	0.74800 0.10970 0.67850 -0.12500
F 	F 	0.71610 0.11120 0.53060 -0.12300
O 	O 	0.90944 0.05377 0.86130 -0.62200
O 	O 	0.92578 0.00720 0.73950 -0.72500
O 	O 	0.60562 0.03976 0.57240 -0.66900
O 	O 	0.60529 0.97850 0.63040 -0.71900
O 	O 	0.01047 0.05850 0.04380 -1.38500
O 	O 	0.96537 0.01349 0.14100 -1.34700
C 	C 	0.90220 0.03160 0.78390 0.65300
C 	C 	0.86120 0.03000 0.74370 -0.50600
C 	C 	0.85120 0.01150 0.64800 0.57900
H 	H 	0.87080 0.00070 0.60310 -0.09100
C 	C 	0.81300 0.00800 0.61430 -0.62100
C 	C 	0.78500 0.02370 0.68130 0.49600
C 	C 	0.79560 0.04230 0.77770 -0.78800
H 	H 	0.77640 0.05340 0.82350 1.05000
C 	C 	0.83350 0.04480 0.80820 0.67600
H 	H 	0.84020 0.05720 0.87570 -0.06900
C 	C 	0.80370 0.98750 0.51470 -0.39500
C 	C 	0.74330 0.02020 0.65950 0.49900
C 	C 	0.72140 0.05080 0.62050 -0.60900
C 	C 	0.68230 0.04560 0.60790 0.63500
H 	H 	0.66770 0.06670 0.58180 -0.05500
C 	C 	0.66330 0.01300 0.62960 -0.53400
C 	C 	0.68390 0.98190 0.66820 0.67900
H 	H 	0.67140 0.95830 0.68250 -0.08900
C 	C 	0.72390 0.98570 0.68640 -0.79600
H 	H 	0.73780 0.96480 0.71700 1.29600
C 	C 	0.73840 0.08710 0.59110 -0.41500
C 	C 	0.62200 0.00980 0.61100 0.70300
F 	F 	0.77110 0.94080 0.62600 0.02600
F 	F 	0.72450 0.91840 0.71700 -0.04100
F 	F 	0.76740 0.94990 0.79900 -0.08800
H 	H 	0.80650 0.99520 0.54740 0.78900
H 	H 	0.73300 0.07460 0.60300 0.81000
C 	C 	0.74560 0.95110 0.70600 -1.08000
F 	F 	0.73600 0.03000 0.85700 -0.08000
C 	C 	0.76550 0.05400 0.85600 -0.71700
F 	F 	0.75100 0.08800 0.83500 -0.07100
F 	F 	0.77700 0.05500 0.96100 -0.06500
F 	F 	0.66700 0.51970 0.44660 -0.22700
F 	F 	0.71040 0.54820 0.53620 -0.14300
F 	F 	0.72340 0.49730 0.45230 -0.14700
F 	F 	0.72857 0.41330 0.53330 -0.12100
F 	F 	0.75200 0.39030 0.67850 -0.12500
F 	F 	0.78390 0.38880 0.53060 -0.12300
O 	O 	0.59056 0.44623 0.86130 -0.62100
O 	O 	0.57422 0.49280 0.73950 -0.72600
O 	O 	0.89438 0.46024 0.57240 -0.66900
O 	O 	0.89471 0.52150 0.63040 -0.72000
O 	O 	0.48953 0.44150 0.04380 -1.38600
O 	O 	0.53463 0.48651 0.14100 -1.34800
C 	C 	0.59780 0.46840 0.78390 0.65300
C 	C 	0.63880 0.47000 0.74370 -0.50600
C 	C 	0.64880 0.48850 0.64800 0.57800
H 	H 	0.62920 0.49930 0.60310 -0.09100
C 	C 	0.68700 0.49200 0.61430 -0.62100
C 	C 	0.71500 0.47630 0.68130 0.49600
C 	C 	0.70440 0.45770 0.77770 -0.78700
H 	H 	0.72360 0.44660 0.82350 1.05000
C 	C 	0.66650 0.45520 0.80820 0.67600
H 	H 	0.65980 0.44280 0.87570 -0.06900
C 	C 	0.69630 0.51250 0.51470 -0.39500
C 	C 	0.75670 0.47980 0.65950 0.49900
C 	C 	0.77860 0.44920 0.62050 -0.60900
C 	C 	0.81770 0.45440 0.60790 0.63500
H 	H 	0.83230 0.43330 0.58180 -0.05500
C 	C 	0.83670 0.48700 0.62960 -0.53300
C 	C 	0.81610 0.51810 0.66820 0.67800
H 	H 	0.82860 0.54170 0.68250 -0.08900
C 	C 	0.77610 0.51430 0.68640 -0.79700
H 	H 	0.76220 0.53520 0.71700 1.29600
C 	C 	0.76160 0.41290 0.59110 -0.41500
C 	C 	0.87800 0.49020 0.61100 0.70300
F 	F 	0.72890 0.55920 0.62600 0.02600
F 	F 	0.77550 0.58160 0.71700 -0.04100
F 	F 	0.73260 0.55010 0.79900 -0.08800
H 	H 	0.69350 0.50480 0.54740 0.78900
H 	H 	0.76700 0.42540 0.60300 0.81000
C 	C 	0.75440 0.54890 0.70600 -1.07900
F 	F 	0.76400 0.47000 0.85700 -0.07900
C 	C 	0.73450 0.44600 0.85600 -0.71700
F 	F 	0.74900 0.41200 0.83500 -0.07100
F 	F 	0.72300 0.44500 0.96100 -0.06500
F 	F 	0.98030 0.66700 0.94660 -0.17700
F 	F 	0.95180 0.71040 0.03620 -0.21800
F 	F 	0.00270 0.72340 0.95230 -0.10200
F 	F 	0.08670 0.72857 0.03330 -0.17600
F 	F 	0.10970 0.75200 0.17850 -0.14700
F 	F 	0.11120 0.78390 0.03060 -0.17700
O 	O 	0.05377 0.59056 0.36130 -0.65900
O 	O 	0.00720 0.57422 0.23950 -0.74700
O 	O 	0.03976 0.89438 0.07240 -0.72100
O 	O 	0.97850 0.89471 0.13040 -0.76200
O 	O 	0.05850 0.48953 0.54380 -1.31900
O 	O 	0.01349 0.53463 0.64100 -1.31400
C 	C 	0.03160 0.59780 0.28390 0.64200
C 	C 	0.03000 0.63880 0.24370 -0.49200
C 	C 	0.01150 0.64880 0.14800 0.49300
H 	H 	0.00070 0.62920 0.10310 -0.09500
C 	C 	0.00800 0.68700 0.11430 -0.49600
C 	C 	0.02370 0.71500 0.18130 0.42900
C 	C 	0.04230 0.70440 0.27770 -0.77900
H 	H 	0.05340 0.72360 0.32350 1.07000
C 	C 	0.04480 0.66650 0.30820 0.64900
H 	H 	0.05720 0.65980 0.37570 -0.09400
C 	C 	0.98750 0.69630 0.01470 -0.23000
C 	C 	0.02020 0.75670 0.15950 0.51900
C 	C 	0.05080 0.77860 0.12050 -0.66200
C 	C 	0.04560 0.81770 0.10790 0.64300
H 	H 	0.06670 0.83230 0.08180 -0.08700
C 	C 	0.01300 0.83670 0.12960 -0.57200
C 	C 	0.98190 0.81610 0.16820 0.68400
H 	H 	0.95830 0.82860 0.18250 -0.10900
C 	C 	0.98570 0.77610 0.18640 -0.82000
H 	H 	0.96480 0.76220 0.21700 1.27700
C 	C 	0.08710 0.76160 0.09110 -0.39700
C 	C 	0.00980 0.87800 0.11100 0.70600
F 	F 	0.94080 0.72890 0.12600 0.00500
F 	F 	0.91840 0.77550 0.21700 -0.07800
F 	F 	0.94990 0.73260 0.29900 -0.12000
H 	H 	0.99520 0.69350 0.04740 0.56700
H 	H 	0.07460 0.76700 0.10300 0.80100
C 	C 	0.95110 0.75440 0.20600 -1.04700
F 	F 	0.03000 0.76400 0.35700 -0.08600
C 	C 	0.05400 0.73450 0.35600 -0.75300
F 	F 	0.08800 0.74900 0.33500 -0.09700
F 	F 	0.05500 0.72300 0.46100 -0.13300
F 	F 	0.51970 0.83300 0.94660 -0.17800
F 	F 	0.54820 0.78960 0.03620 -0.21800
F 	F 	0.49730 0.77660 0.95230 -0.10200
F 	F 	0.41330 0.77143 0.03330 -0.17600
F 	F 	0.39030 0.74800 0.17850 -0.14700
F 	F 	0.38880 0.71610 0.03060 -0.17800
O 	O 	0.44623 0.90944 0.36130 -0.65900
O 	O 	0.49280 0.92578 0.23950 -0.74800
O 	O 	0.46024 0.60562 0.07240 -0.72100
O 	O 	0.52150 0.60529 0.13040 -0.76100
O 	O 	0.44150 0.01047 0.54380 -1.31900
O 	O 	0.48651 0.96537 0.64100 -1.31400
C 	C 	0.46840 0.90220 0.28390 0.64200
C 	C 	0.47000 0.86120 0.24370 -0.49200
C 	C 	0.48850 0.85120 0.14800 0.49300
H 	H 	0.49930 0.87080 0.10310 -0.09500
C 	C 	0.49200 0.81300 0.11430 -0.49700
C 	C 	0.47630 0.78500 0.18130 0.42900
C 	C 	0.45770 0.79560 0.27770 -0.77900
H 	H 	0.44660 0.77640 0.32350 1.07000
C 	C 	0.45520 0.83350 0.30820 0.64900
H 	H 	0.44280 0.84020 0.37570 -0.09400
C 	C 	0.51250 0.80370 0.01470 -0.22900
C 	C 	0.47980 0.74330 0.15950 0.51800
C 	C 	0.44920 0.72140 0.12050 -0.66200
C 	C 	0.45440 0.68230 0.10790 0.64300
H 	H 	0.43330 0.66770 0.08180 -0.08700
C 	C 	0.48700 0.66330 0.12960 -0.57200
C 	C 	0.51810 0.68390 0.16820 0.68400
H 	H 	0.54170 0.67140 0.18250 -0.10900
C 	C 	0.51430 0.72390 0.18640 -0.82000
H 	H 	0.53520 0.73780 0.21700 1.27700
C 	C 	0.41290 0.73840 0.09110 -0.39700
C 	C 	0.49020 0.62200 0.11100 0.70600
F 	F 	0.55920 0.77110 0.12600 0.00500
F 	F 	0.58160 0.72450 0.21700 -0.07800
F 	F 	0.55010 0.76740 0.29900 -0.12000
H 	H 	0.50480 0.80650 0.04740 0.56700
H 	H 	0.42540 0.73300 0.10300 0.80100
C 	C 	0.54890 0.74560 0.20600 -1.04600
F 	F 	0.47000 0.73600 0.35700 -0.08600
C 	C 	0.44600 0.76550 0.35600 -0.75300
F 	F 	0.41200 0.75100 0.33500 -0.09700
F 	F 	0.44500 0.77700 0.46100 -0.13300
F 	F 	0.83300 0.51970 0.94660 -0.17800
F 	F 	0.78960 0.54820 0.03620 -0.21800
F 	F 	0.77660 0.49730 0.95230 -0.10200
F 	F 	0.77143 0.41330 0.03330 -0.17600
F 	F 	0.74800 0.39030 0.17850 -0.14700
F 	F 	0.71610 0.38880 0.03060 -0.17800
O 	O 	0.90944 0.44623 0.36130 -0.65900
O 	O 	0.92578 0.49280 0.23950 -0.74800
O 	O 	0.60562 0.46024 0.07240 -0.72100
O 	O 	0.60529 0.52150 0.13040 -0.76100
O 	O 	0.01047 0.44150 0.54380 -1.31900
O 	O 	0.96537 0.48651 0.64100 -1.31400
C 	C 	0.90220 0.46840 0.28390 0.64200
C 	C 	0.86120 0.47000 0.24370 -0.49200
C 	C 	0.85120 0.48850 0.14800 0.49300
H 	H 	0.87080 0.49930 0.10310 -0.09500
C 	C 	0.81300 0.49200 0.11430 -0.49700
C 	C 	0.78500 0.47630 0.18130 0.42900
C 	C 	0.79560 0.45770 0.27770 -0.77900
H 	H 	0.77640 0.44660 0.32350 1.07000
C 	C 	0.83350 0.45520 0.30820 0.64900
H 	H 	0.84020 0.44280 0.37570 -0.09400
C 	C 	0.80370 0.51250 0.01470 -0.22900
C 	C 	0.74330 0.47980 0.15950 0.51800
C 	C 	0.72140 0.44920 0.12050 -0.66200
C 	C 	0.68230 0.45440 0.10790 0.64300
H 	H 	0.66770 0.43330 0.08180 -0.08700
C 	C 	0.66330 0.48700 0.12960 -0.57200
C 	C 	0.68390 0.51810 0.16820 0.68400
H 	H 	0.67140 0.54170 0.18250 -0.10900
C 	C 	0.72390 0.51430 0.18640 -0.82000
H 	H 	0.73780 0.53520 0.21700 1.27700
C 	C 	0.73840 0.41290 0.09110 -0.39700
C 	C 	0.62200 0.49020 0.11100 0.70600
F 	F 	0.77110 0.55920 0.12600 0.00500
F 	F 	0.72450 0.58160 0.21700 -0.07800
F 	F 	0.76740 0.55010 0.29900 -0.12000
H 	H 	0.80650 0.50480 0.04740 0.56700
H 	H 	0.73300 0.42540 0.10300 0.80100
C 	C 	0.74560 0.54890 0.20600 -1.04600
F 	F 	0.73600 0.47000 0.35700 -0.08600
C 	C 	0.76550 0.44600 0.35600 -0.75300
F 	F 	0.75100 0.41200 0.33500 -0.09700
F 	F 	0.77700 0.44500 0.46100 -0.13300
F 	F 	0.66700 0.98030 0.94660 -0.17700
F 	F 	0.71040 0.95180 0.03620 -0.21800
F 	F 	0.72340 0.00270 0.95230 -0.10200
F 	F 	0.72857 0.08670 0.03330 -0.17600
F 	F 	0.75200 0.10970 0.17850 -0.14700
F 	F 	0.78390 0.11120 0.03060 -0.17700
O 	O 	0.59056 0.05377 0.36130 -0.65900
O 	O 	0.57422 0.00720 0.23950 -0.74700
O 	O 	0.89438 0.03976 0.07240 -0.72100
O 	O 	0.89471 0.97850 0.13040 -0.76200
O 	O 	0.48953 0.05850 0.54380 -1.31900
O 	O 	0.53463 0.01349 0.64100 -1.31400
C 	C 	0.59780 0.03160 0.28390 0.64200
C 	C 	0.63880 0.03000 0.24370 -0.49200
C 	C 	0.64880 0.01150 0.14800 0.49300
H 	H 	0.62920 0.00070 0.10310 -0.09500
C 	C 	0.68700 0.00800 0.11430 -0.49600
C 	C 	0.71500 0.02370 0.18130 0.42900
C 	C 	0.70440 0.04230 0.27770 -0.77900
H 	H 	0.72360 0.05340 0.32350 1.07000
C 	C 	0.66650 0.04480 0.30820 0.64900
H 	H 	0.65980 0.05720 0.37570 -0.09400
C 	C 	0.69630 0.98750 0.01470 -0.23000
C 	C 	0.75670 0.02020 0.15950 0.51900
C 	C 	0.77860 0.05080 0.12050 -0.66200
C 	C 	0.81770 0.04560 0.10790 0.64300
H 	H 	0.83230 0.06670 0.08180 -0.08700
C 	C 	0.83670 0.01300 0.12960 -0.57200
C 	C 	0.81610 0.98190 0.16820 0.68400
H 	H 	0.82860 0.95830 0.18250 -0.10900
C 	C 	0.77610 0.98570 0.18640 -0.82000
H 	H 	0.76220 0.96480 0.21700 1.27700
C 	C 	0.76160 0.08710 0.09110 -0.39700
C 	C 	0.87800 0.00980 0.11100 0.70600
F 	F 	0.72890 0.94080 0.12600 0.00500
F 	F 	0.77550 0.91840 0.21700 -0.07800
F 	F 	0.73260 0.94990 0.29900 -0.12000
H 	H 	0.69350 0.99520 0.04740 0.56700
H 	H 	0.76700 0.07460 0.10300 0.80100
C 	C 	0.75440 0.95110 0.20600 -1.04700
F 	F 	0.76400 0.03000 0.35700 -0.08600
C 	C 	0.73450 0.05400 0.35600 -0.75300
F 	F 	0.74900 0.08800 0.33500 -0.09700
F 	F 	0.72300 0.05500 0.46100 -0.13300
F 	F 	0.98030 0.83300 0.44660 -0.22700
F 	F 	0.95180 0.78960 0.53620 -0.14300
F 	F 	0.00270 0.77660 0.45230 -0.14700
F 	F 	0.08670 0.77143 0.53330 -0.12100
F 	F 	0.10970 0.74800 0.67850 -0.12500
F 	F 	0.11120 0.71610 0.53060 -0.12300
O 	O 	0.05377 0.90944 0.86130 -0.62200
O 	O 	0.00720 0.92578 0.73950 -0.72500
O 	O 	0.03976 0.60562 0.57240 -0.66900
O 	O 	0.97850 0.60529 0.63040 -0.71900
O 	O 	0.05850 0.01047 0.04380 -1.38500
O 	O 	0.01349 0.96537 0.14100 -1.34700
C 	C 	0.03160 0.90220 0.78390 0.65300
C 	C 	0.03000 0.86120 0.74370 -0.50600
C 	C 	0.01150 0.85120 0.64800 0.57900
H 	H 	0.00070 0.87080 0.60310 -0.09100
C 	C 	0.00800 0.81300 0.61430 -0.62100
C 	C 	0.02370 0.78500 0.68130 0.49600
C 	C 	0.04230 0.79560 0.77770 -0.78800
H 	H 	0.05340 0.77640 0.82350 1.05000
C 	C 	0.04480 0.83350 0.80820 0.67600
H 	H 	0.05720 0.84020 0.87570 -0.06900
C 	C 	0.98750 0.80370 0.51470 -0.39500
C 	C 	0.02020 0.74330 0.65950 0.49900
C 	C 	0.05080 0.72140 0.62050 -0.60900
C 	C 	0.04560 0.68230 0.60790 0.63500
H 	H 	0.06670 0.66770 0.58180 -0.05500
C 	C 	0.01300 0.66330 0.62960 -0.53400
C 	C 	0.98190 0.68390 0.66820 0.67900
H 	H 	0.95830 0.67140 0.68250 -0.08900
C 	C 	0.98570 0.72390 0.68640 -0.79600
H 	H 	0.96480 0.73780 0.71700 1.29600
C 	C 	0.08710 0.73840 0.59110 -0.41500
C 	C 	0.00980 0.62200 0.61100 0.70300
F 	F 	0.94080 0.77110 0.62600 0.02600
F 	F 	0.91840 0.72450 0.71700 -0.04100
F 	F 	0.94990 0.76740 0.79900 -0.08800
H 	H 	0.99520 0.80650 0.54740 0.78900
H 	H 	0.07460 0.73300 0.60300 0.81000
C 	C 	0.95110 0.74560 0.70600 -1.08000
F 	F 	0.03000 0.73600 0.85700 -0.08000
C 	C 	0.05400 0.76550 0.85600 -0.71700
F 	F 	0.08800 0.75100 0.83500 -0.07100
F 	F 	0.05500 0.77700 0.96100 -0.06500
F 	F 	0.51970 0.66700 0.44660 -0.22700
F 	F 	0.54820 0.71040 0.53620 -0.14300
F 	F 	0.49730 0.72340 0.45230 -0.14700
F 	F 	0.41330 0.72857 0.53330 -0.12100
F 	F 	0.39030 0.75200 0.67850 -0.12500
F 	F 	0.38880 0.78390 0.53060 -0.12300
O 	O 	0.44623 0.59056 0.86130 -0.62100
O 	O 	0.49280 0.57422 0.73950 -0.72600
O 	O 	0.46024 0.89438 0.57240 -0.66900
O 	O 	0.52150 0.89471 0.63040 -0.72000
O 	O 	0.44150 0.48953 0.04380 -1.38600
O 	O 	0.48651 0.53463 0.14100 -1.34800
C 	C 	0.46840 0.59780 0.78390 0.65300
C 	C 	0.47000 0.63880 0.74370 -0.50600
C 	C 	0.48850 0.64880 0.64800 0.57800
H 	H 	0.49930 0.62920 0.60310 -0.09100
C 	C 	0.49200 0.68700 0.61430 -0.62100
C 	C 	0.47630 0.71500 0.68130 0.49600
C 	C 	0.45770 0.70440 0.77770 -0.78700
H 	H 	0.44660 0.72360 0.82350 1.05000
C 	C 	0.45520 0.66650 0.80820 0.67600
H 	H 	0.44280 0.65980 0.87570 -0.06900
C 	C 	0.51250 0.69630 0.51470 -0.39500
C 	C 	0.47980 0.75670 0.65950 0.49900
C 	C 	0.44920 0.77860 0.62050 -0.60900
C 	C 	0.45440 0.81770 0.60790 0.63500
H 	H 	0.43330 0.83230 0.58180 -0.05500
C 	C 	0.48700 0.83670 0.62960 -0.53300
C 	C 	0.51810 0.81610 0.66820 0.67800
H 	H 	0.54170 0.82860 0.68250 -0.08900
C 	C 	0.51430 0.77610 0.68640 -0.79700
H 	H 	0.53520 0.76220 0.71700 1.29600
C 	C 	0.41290 0.76160 0.59110 -0.41500
C 	C 	0.49020 0.87800 0.61100 0.70300
F 	F 	0.55920 0.72890 0.62600 0.02600
F 	F 	0.58160 0.77550 0.71700 -0.04100
F 	F 	0.55010 0.73260 0.79900 -0.08800
H 	H 	0.50480 0.69350 0.54740 0.78900
H 	H 	0.42540 0.76700 0.60300 0.81000
C 	C 	0.54890 0.75440 0.70600 -1.07900
F 	F 	0.47000 0.76400 0.85700 -0.07900
C 	C 	0.44600 0.73450 0.85600 -0.71700
F 	F 	0.41200 0.74900 0.83500 -0.07100
F 	F 	0.44500 0.72300 0.96100 -0.06500
F 	F 	0.16700 0.01970 0.55340 -0.23100
F 	F 	0.21040 0.04820 0.46380 -0.14900
F 	F 	0.22340 0.99730 0.54770 -0.14800
F 	F 	0.22857 0.91330 0.46670 -0.12100
F 	F 	0.25200 0.89030 0.32150 -0.14300
F 	F 	0.28390 0.88880 0.46940 -0.12500
O 	O 	0.09056 0.94623 0.13870 -0.69000
O 	O 	0.07422 0.99280 0.26050 -0.73900
O 	O 	0.39438 0.96024 0.42760 -0.67700
O 	O 	0.39471 0.02150 0.36960 -0.73900
O 	O 	0.98953 0.94150 0.95620 -1.24900
O 	O 	0.03463 0.98651 0.85900 -1.29300
C 	C 	0.09780 0.96840 0.21610 0.66800
C 	C 	0.13880 0.97000 0.25630 -0.55200
C 	C 	0.14880 0.98850 0.35200 0.59600
H 	H 	0.12920 0.99930 0.39690 -0.10000
C 	C 	0.18700 0.99200 0.38570 -0.63700
C 	C 	0.21500 0.97630 0.31870 0.51100
C 	C 	0.20440 0.95770 0.22230 -0.83600
H 	H 	0.22360 0.94660 0.17650 1.05900
C 	C 	0.16650 0.95520 0.19180 0.70800
H 	H 	0.15980 0.94280 0.12430 -0.14100
C 	C 	0.19630 0.01250 0.48530 -0.38300
C 	C 	0.25670 0.97980 0.34050 0.50200
C 	C 	0.27860 0.94920 0.37950 -0.61700
C 	C 	0.31770 0.95440 0.39210 0.63800
H 	H 	0.33230 0.93330 0.41820 -0.06100
C 	C 	0.33670 0.98700 0.37040 -0.54900
C 	C 	0.31610 0.01810 0.33180 0.68700
H 	H 	0.32860 0.04170 0.31750 -0.10600
C 	C 	0.27610 0.01430 0.31360 -0.81800
H 	H 	0.26220 0.03520 0.28300 1.31300
C 	C 	0.26160 0.91290 0.40890 -0.41400
C 	C 	0.37800 0.99020 0.38900 0.70400
F 	F 	0.22890 0.05920 0.37400 0.02100
F 	F 	0.27550 0.08160 0.28300 -0.07000
F 	F 	0.23260 0.05010 0.20100 -0.13500
H 	H 	0.19350 0.00480 0.45260 0.78400
H 	H 	0.26700 0.92540 0.39700 0.81100
C 	C 	0.25440 0.04890 0.29400 -1.09900
F 	F 	0.26400 0.97000 0.14300 -0.11100
C 	C 	0.23450 0.94600 0.14400 -0.71400
F 	F 	0.24900 0.91200 0.16500 -0.13100
F 	F 	0.22300 0.94500 0.03900 -0.21000
F 	F 	0.33300 0.48030 0.55340 -0.23100
F 	F 	0.28960 0.45180 0.46380 -0.14900
F 	F 	0.27660 0.50270 0.54770 -0.14900
F 	F 	0.27143 0.58670 0.46670 -0.12100
F 	F 	0.24800 0.60970 0.32150 -0.14300
F 	F 	0.21610 0.61120 0.46940 -0.12500
O 	O 	0.40944 0.55377 0.13870 -0.69000
O 	O 	0.42578 0.50720 0.26050 -0.74000
O 	O 	0.10562 0.53976 0.42760 -0.67700
O 	O 	0.10529 0.47850 0.36960 -0.73800
O 	O 	0.51047 0.55850 0.95620 -1.24900
O 	O 	0.46537 0.51349 0.85900 -1.29400
C 	C 	0.40220 0.53160 0.21610 0.66800
C 	C 	0.36120 0.53000 0.25630 -0.55300
C 	C 	0.35120 0.51150 0.35200 0.59700
H 	H 	0.37080 0.50070 0.39690 -0.10100
C 	C 	0.31300 0.50800 0.38570 -0.63900
C 	C 	0.28500 0.52370 0.31870 0.51200
C 	C 	0.29560 0.54230 0.22230 -0.83700
H 	H 	0.27640 0.55340 0.17650 1.05900
C 	C 	0.33350 0.54480 0.19180 0.70800
H 	H 	0.34020 0.55720 0.12430 -0.14100
C 	C 	0.30370 0.48750 0.48530 -0.38200
C 	C 	0.24330 0.52020 0.34050 0.50100
C 	C 	0.22140 0.55080 0.37950 -0.61700
C 	C 	0.18230 0.54560 0.39210 0.63800
H 	H 	0.16770 0.56670 0.41820 -0.06100
C 	C 	0.16330 0.51300 0.37040 -0.55000
C 	C 	0.18390 0.48190 0.33180 0.68800
H 	H 	0.17140 0.45830 0.31750 -0.10700
C 	C 	0.22390 0.48570 0.31360 -0.81700
H 	H 	0.23780 0.46480 0.28300 1.31300
C 	C 	0.23840 0.58710 0.40890 -0.41500
C 	C 	0.12200 0.50980 0.38900 0.70300
F 	F 	0.27110 0.44080 0.37400 0.02100
F 	F 	0.22450 0.41840 0.28300 -0.07000
F 	F 	0.26740 0.44990 0.20100 -0.13500
H 	H 	0.30650 0.49520 0.45260 0.78400
H 	H 	0.23300 0.57460 0.39700 0.81100
C 	C 	0.24560 0.45110 0.29400 -1.09900
F 	F 	0.23600 0.53000 0.14300 -0.11100
C 	C 	0.26550 0.55400 0.14400 -0.71300
F 	F 	0.25100 0.58800 0.16500 -0.13100
F 	F 	0.27700 0.55500 0.03900 -0.21000
F 	F 	0.01970 0.33300 0.05340 -0.27800
F 	F 	0.04820 0.28960 0.96380 -0.07800
F 	F 	0.99730 0.27660 0.04770 -0.19200
F 	F 	0.91330 0.27143 0.96670 -0.06700
F 	F 	0.89030 0.24800 0.82150 -0.12100
F 	F 	0.88880 0.21610 0.96940 -0.07000
O 	O 	0.94623 0.40944 0.63870 -0.65700
O 	O 	0.99280 0.42578 0.76050 -0.71800
O 	O 	0.96024 0.10562 0.92760 -0.62100
O 	O 	0.02150 0.10529 0.86960 -0.69900
O 	O 	0.94150 0.51047 0.45620 -1.32100
O 	O 	0.98651 0.46537 0.35900 -1.33100
C 	C 	0.96840 0.40220 0.71610 0.67900
C 	C 	0.97000 0.36120 0.75630 -0.56500
C 	C 	0.98850 0.35120 0.85200 0.67800
H 	H 	0.99930 0.37080 0.89690 -0.09500
C 	C 	0.99200 0.31300 0.88570 -0.75500
C 	C 	0.97630 0.28500 0.81870 0.57500
C 	C 	0.95770 0.29560 0.72230 -0.84400
H 	H 	0.94660 0.27640 0.67650 1.04000
C 	C 	0.95520 0.33350 0.69180 0.73300
H 	H 	0.94280 0.34020 0.62430 -0.11600
C 	C 	0.01250 0.30370 0.98530 -0.54400
C 	C 	0.97980 0.24330 0.84050 0.48400
C 	C 	0.94920 0.22140 0.87950 -0.56500
C 	C 	0.95440 0.18230 0.89210 0.62900
H 	H 	0.93330 0.16770 0.91820 -0.02900
C 	C 	0.98700 0.16330 0.87040 -0.50900
C 	C 	0.01810 0.18390 0.83180 0.68100
H 	H 	0.04170 0.17140 0.81750 -0.08700
C 	C 	0.01430 0.22390 0.81360 -0.79600
H 	H 	0.03520 0.23780 0.78300 1.33100
C 	C 	0.91290 0.23840 0.90890 -0.43200
C 	C 	0.99020 0.12200 0.88900 0.70100
F 	F 	0.05920 0.27110 0.87400 0.04100
F 	F 	0.08160 0.22450 0.78300 -0.03600
F 	F 	0.05010 0.26740 0.70100 -0.10500
H 	H 	0.00480 0.30650 0.95260 0.99800
H 	H 	0.92540 0.23300 0.89700 0.82000
C 	C 	0.04890 0.24560 0.79400 -1.13000
F 	F 	0.97000 0.23600 0.64300 -0.10300
C 	C 	0.94600 0.26550 0.64400 -0.67900
F 	F 	0.91200 0.25100 0.66500 -0.10500
F 	F 	0.94500 0.27700 0.53900 -0.14400
F 	F 	0.48030 0.16700 0.05340 -0.27900
F 	F 	0.45180 0.21040 0.96380 -0.07800
F 	F 	0.50270 0.22340 0.04770 -0.19200
F 	F 	0.58670 0.22857 0.96670 -0.06700
F 	F 	0.60970 0.25200 0.82150 -0.12100
F 	F 	0.61120 0.28390 0.96940 -0.07000
O 	O 	0.55377 0.09056 0.63870 -0.65700
O 	O 	0.50720 0.07422 0.76050 -0.71900
O 	O 	0.53976 0.39438 0.92760 -0.62000
O 	O 	0.47850 0.39471 0.86960 -0.69700
O 	O 	0.55850 0.98953 0.45620 -1.32100
O 	O 	0.51349 0.03463 0.35900 -1.33100
C 	C 	0.53160 0.09780 0.71610 0.68000
C 	C 	0.53000 0.13880 0.75630 -0.56600
C 	C 	0.51150 0.14880 0.85200 0.68000
H 	H 	0.50070 0.12920 0.89690 -0.09700
C 	C 	0.50800 0.18700 0.88570 -0.75900
C 	C 	0.52370 0.21500 0.81870 0.57600
C 	C 	0.54230 0.20440 0.72230 -0.84400
H 	H 	0.55340 0.22360 0.67650 1.04000
C 	C 	0.54480 0.16650 0.69180 0.73300
H 	H 	0.55720 0.15980 0.62430 -0.11600
C 	C 	0.48750 0.19630 0.98530 -0.54200
C 	C 	0.52020 0.25670 0.84050 0.48300
C 	C 	0.55080 0.27860 0.87950 -0.56500
C 	C 	0.54560 0.31770 0.89210 0.62900
H 	H 	0.56670 0.33230 0.91820 -0.02900
C 	C 	0.51300 0.33670 0.87040 -0.51100
C 	C 	0.48190 0.31610 0.83180 0.68200
H 	H 	0.45830 0.32860 0.81750 -0.08700
C 	C 	0.48570 0.27610 0.81360 -0.79500
H 	H 	0.46480 0.26220 0.78300 1.33200
C 	C 	0.58710 0.26160 0.90890 -0.43200
C 	C 	0.50980 0.37800 0.88900 0.69900
F 	F 	0.44080 0.22890 0.87400 0.04100
F 	F 	0.41840 0.27550 0.78300 -0.03600
F 	F 	0.44990 0.23260 0.70100 -0.10400
H 	H 	0.49520 0.19350 0.95260 0.99900
H 	H 	0.57460 0.26700 0.89700 0.82000
C 	C 	0.45110 0.25440 0.79400 -1.13200
F 	F 	0.53000 0.26400 0.64300 -0.10400
C 	C 	0.55400 0.23450 0.64400 -0.67800
F 	F 	0.58800 0.24900 0.66500 -0.10500
F 	F 	0.55500 0.22300 0.53900 -0.14400
Zr	Zr	0.04973 0.54973 0.50000 3.21400
Zr	Zr	0.45027 0.95027 0.50000 3.21400
Zr	Zr	0.95027 0.04973 -0.00000 3.19700
Zr	Zr	0.54973 0.45027 -0.00000 3.19700
Zr	Zr	0.95027 0.45027 0.50000 3.21400
Zr	Zr	0.54973 0.04973 0.50000 3.21400
Zr	Zr	0.04973 0.95027 -0.00000 3.19700
Zr	Zr	0.45027 0.54973 -0.00000 3.19700
Zr	Zr	0.04510 0.45490 0.40498 3.18200
Zr	Zr	0.02315 0.47685 0.68417 3.18500
Zr	Zr	0.45490 0.04510 0.40498 3.18200
Zr	Zr	0.47685 0.02315 0.68417 3.18500
Zr	Zr	0.04510 0.04510 0.90498 3.19300
Zr	Zr	0.02315 0.02315 0.18417 3.18300
Zr	Zr	0.45490 0.45490 0.90498 3.19300
Zr	Zr	0.47685 0.47685 0.18417 3.18300
Zr	Zr	0.95490 0.95490 0.09502 3.17200
Zr	Zr	0.97685 0.97685 0.81583 3.18300
Zr	Zr	0.54510 0.54510 0.09502 3.17200
Zr	Zr	0.52315 0.52315 0.81583 3.18300
Zr	Zr	0.95490 0.54510 0.59502 3.18400
Zr	Zr	0.97685 0.52315 0.31583 3.18200
Zr	Zr	0.54510 0.95490 0.59502 3.18400
Zr	Zr	0.52315 0.97685 0.31583 3.18200
