data_crystal

_cell_length_a 34.35620
_cell_length_b 34.35620
_cell_length_c 15.00940
_cell_angle_alpha 90.00000
_cell_angle_beta  90.00000
_cell_angle_gamma 90.00000

_symmetry_space_group_name_	'P 1'
_symmetry_space_group_name_H-M	'P 1'

loop_
_symmetry_equiv_pos_as_xyz
  x,y,z

loop_
_atom_site_label
_atom_site_type_symbol
_atom_site_fract_x
_atom_site_fract_y
_atom_site_fract_z
_atom_site_charge
F 	F 	0.60380 0.22480 0.09200 -0.08100
F 	F 	0.59770 0.26480 0.20200 -0.06900
F 	F 	0.55670 0.26610 0.09200 -0.08100
F 	F 	0.60480 0.27360 0.45940 -0.12400
F 	F 	0.57740 0.22220 0.42930 -0.13700
F 	F 	0.61200 0.24800 0.33530 -0.12400
F 	F 	0.43410 0.96990 0.43080 -0.34100
O 	O 	0.49770 0.08530 0.18550 -0.67900
O 	O 	0.55030 0.09790 0.10270 -0.71200
O 	O 	0.48420 0.40020 0.36040 -0.72000
O 	O 	0.54260 0.39510 0.41940 -0.67500
O 	O 	0.53020 0.02010 0.11750 -1.27600
O 	O 	0.43930 0.01150 0.01680 -1.38900
C 	C 	0.52630 0.10660 0.15630 0.75000
C 	C 	0.52830 0.14600 0.19890 -0.63200
C 	C 	0.55090 0.17470 0.15870 0.84000
H 	H 	0.56590 0.16860 0.10750 -0.16600
C 	C 	0.55130 0.21220 0.19350 -1.06600
C 	C 	0.52930 0.22100 0.26840 0.77500
C 	C 	0.50670 0.19240 0.30860 -1.05300
H 	H 	0.49160 0.19840 0.35980 1.22100
C 	C 	0.50620 0.15490 0.27380 0.83800
H 	H 	0.49080 0.13530 0.30120 -0.13800
C 	C 	0.57690 0.24230 0.14600 -0.89900
C 	C 	0.52520 0.26260 0.30100 0.27500
C 	C 	0.55150 0.27900 0.36050 -0.43900
C 	C 	0.54780 0.31780 0.38510 0.43800
H 	H 	0.56580 0.32900 0.42570 -0.00300
C 	C 	0.51780 0.34020 0.35010 -0.38400
C 	C 	0.49150 0.32380 0.29060 0.49300
H 	H 	0.47100 0.33920 0.26670 -0.05100
C 	C 	0.49520 0.28500 0.26600 -0.55600
H 	H 	0.47720 0.27380 0.22530 0.91500
C 	C 	0.58330 0.25770 0.39350 -0.37700
C 	C 	0.51540 0.38150 0.38260 0.68500
C 	C 	0.46730 0.98600 0.46490 0.28700
F 	F 	0.50050 0.21890 0.45680 -0.06800
F 	F 	0.46770 0.16750 0.42910 -0.08400
F 	F 	0.44980 0.22180 0.37240 -0.09800
F 	F 	0.44530 0.29460 0.15800 -0.15500
F 	F 	0.45190 0.23890 0.20100 -0.18800
F 	F 	0.49100 0.26300 0.11600 -0.11100
H 	H 	0.56680 0.23170 0.16610 1.24400
C 	C 	0.48170 0.20060 0.39100 -0.87400
H 	H 	0.57200 0.26360 0.38440 0.71300
C 	C 	0.47340 0.27140 0.19300 -0.62700
F 	F 	0.89620 0.27520 0.09200 -0.08200
F 	F 	0.90230 0.23520 0.20200 -0.07000
F 	F 	0.94330 0.23390 0.09200 -0.08300
F 	F 	0.89520 0.22640 0.45940 -0.12400
F 	F 	0.92260 0.27780 0.42930 -0.13700
F 	F 	0.88800 0.25200 0.33530 -0.12400
F 	F 	0.06590 0.53010 0.43080 -0.34100
O 	O 	0.00230 0.41470 0.18550 -0.67700
O 	O 	0.94970 0.40210 0.10270 -0.71200
O 	O 	0.01580 0.09980 0.36040 -0.71800
O 	O 	0.95740 0.10490 0.41940 -0.67400
O 	O 	0.96980 0.47990 0.11750 -1.27800
O 	O 	0.06070 0.48850 0.01680 -1.39000
C 	C 	0.97370 0.39340 0.15630 0.74700
C 	C 	0.97170 0.35400 0.19890 -0.63100
C 	C 	0.94910 0.32530 0.15870 0.83900
H 	H 	0.93410 0.33140 0.10750 -0.16600
C 	C 	0.94870 0.28780 0.19350 -1.06600
C 	C 	0.97070 0.27900 0.26840 0.77600
C 	C 	0.99330 0.30760 0.30860 -1.05400
H 	H 	0.00840 0.30160 0.35980 1.22200
C 	C 	0.99380 0.34510 0.27380 0.83400
H 	H 	0.00920 0.36470 0.30120 -0.13600
C 	C 	0.92310 0.25770 0.14600 -0.89900
C 	C 	0.97480 0.23740 0.30100 0.27200
C 	C 	0.94850 0.22100 0.36050 -0.43800
C 	C 	0.95220 0.18220 0.38510 0.43800
H 	H 	0.93420 0.17100 0.42570 -0.00300
C 	C 	0.98220 0.15980 0.35010 -0.38500
C 	C 	0.00850 0.17620 0.29060 0.49500
H 	H 	0.02900 0.16080 0.26670 -0.05100
C 	C 	0.00480 0.21500 0.26600 -0.55400
H 	H 	0.02280 0.22620 0.22530 0.91500
C 	C 	0.91670 0.24230 0.39350 -0.37800
C 	C 	0.98460 0.11850 0.38260 0.68300
C 	C 	0.03270 0.51400 0.46490 0.28900
F 	F 	0.99950 0.28110 0.45680 -0.06900
F 	F 	0.03230 0.33250 0.42910 -0.08400
F 	F 	0.05020 0.27820 0.37240 -0.09800
F 	F 	0.05470 0.20540 0.15800 -0.15400
F 	F 	0.04810 0.26110 0.20100 -0.18700
F 	F 	0.00900 0.23700 0.11600 -0.11000
H 	H 	0.93320 0.26830 0.16610 1.24400
C 	C 	0.01830 0.29940 0.39100 -0.87200
H 	H 	0.92800 0.23640 0.38440 0.71300
C 	C 	0.02660 0.22860 0.19300 -0.62900
F 	F 	0.27520 0.60380 0.59200 -0.03700
F 	F 	0.23520 0.59770 0.70200 -0.05500
F 	F 	0.23390 0.55670 0.59200 -0.04100
F 	F 	0.22640 0.60480 0.95940 -0.07500
F 	F 	0.27780 0.57740 0.92930 -0.10400
F 	F 	0.25200 0.61200 0.83530 -0.10900
F 	F 	0.53010 0.43410 0.93080 -0.34100
O 	O 	0.41470 0.49770 0.68550 -0.66800
O 	O 	0.40210 0.55030 0.60270 -0.67800
O 	O 	0.09980 0.48420 0.86040 -0.68300
O 	O 	0.10490 0.54260 0.91940 -0.62600
O 	O 	0.47990 0.53020 0.61750 -1.24900
O 	O 	0.48850 0.43930 0.51680 -1.32600
C 	C 	0.39340 0.52630 0.65630 0.74500
C 	C 	0.35400 0.52830 0.69890 -0.60900
C 	C 	0.32530 0.55090 0.65870 0.83100
H 	H 	0.33140 0.56590 0.60750 -0.13600
C 	C 	0.28780 0.55130 0.69350 -1.04700
C 	C 	0.27900 0.52930 0.76840 0.77100
C 	C 	0.30760 0.50670 0.80860 -1.03600
H 	H 	0.30160 0.49160 0.85980 1.21700
C 	C 	0.34510 0.50620 0.77380 0.83000
H 	H 	0.36470 0.49080 0.80120 -0.12700
C 	C 	0.25770 0.57690 0.64600 -0.90200
C 	C 	0.23740 0.52520 0.80100 0.26500
C 	C 	0.22100 0.55150 0.86050 -0.40900
C 	C 	0.18220 0.54780 0.88510 0.42500
H 	H 	0.17100 0.56580 0.92570 0.02800
C 	C 	0.15980 0.51780 0.85010 -0.35100
C 	C 	0.17620 0.49150 0.79060 0.48100
H 	H 	0.16080 0.47100 0.76670 -0.03000
C 	C 	0.21500 0.49520 0.76600 -0.53100
H 	H 	0.22620 0.47720 0.72530 0.90700
C 	C 	0.24230 0.58330 0.89350 -0.37800
C 	C 	0.11850 0.51540 0.88260 0.68000
C 	C 	0.51400 0.46730 0.96490 0.49100
F 	F 	0.28110 0.50050 0.95680 -0.02800
F 	F 	0.33250 0.46770 0.92910 -0.05400
F 	F 	0.27820 0.44980 0.87240 -0.07600
F 	F 	0.20540 0.44530 0.65800 -0.12300
F 	F 	0.26110 0.45190 0.70100 -0.16900
F 	F 	0.23700 0.49100 0.61600 -0.07900
H 	H 	0.26830 0.56680 0.66610 1.24200
C 	C 	0.29940 0.48170 0.89100 -0.87300
H 	H 	0.23640 0.57200 0.88440 0.70700
C 	C 	0.22860 0.47340 0.69300 -0.62500
F 	F 	0.22480 0.89620 0.59200 -0.03700
F 	F 	0.26480 0.90230 0.70200 -0.05500
F 	F 	0.26610 0.94330 0.59200 -0.04100
F 	F 	0.27360 0.89520 0.95940 -0.07500
F 	F 	0.22220 0.92260 0.92930 -0.10400
F 	F 	0.24800 0.88800 0.83530 -0.10900
F 	F 	0.96990 0.06590 0.93080 -0.34100
O 	O 	0.08530 0.00230 0.68550 -0.66700
O 	O 	0.09790 0.94970 0.60270 -0.67800
O 	O 	0.40020 0.01580 0.86040 -0.68200
O 	O 	0.39510 0.95740 0.91940 -0.62600
O 	O 	0.02010 0.96980 0.61750 -1.24900
O 	O 	0.01150 0.06070 0.51680 -1.32500
C 	C 	0.10660 0.97370 0.65630 0.74300
C 	C 	0.14600 0.97170 0.69890 -0.60800
C 	C 	0.17470 0.94910 0.65870 0.83100
H 	H 	0.16860 0.93410 0.60750 -0.13600
C 	C 	0.21220 0.94870 0.69350 -1.04700
C 	C 	0.22100 0.97070 0.76840 0.77200
C 	C 	0.19240 0.99330 0.80860 -1.03600
H 	H 	0.19840 0.00840 0.85980 1.21700
C 	C 	0.15490 0.99380 0.77380 0.82800
H 	H 	0.13530 0.00920 0.80120 -0.12600
C 	C 	0.24230 0.92310 0.64600 -0.90200
C 	C 	0.26260 0.97480 0.80100 0.26300
C 	C 	0.27900 0.94850 0.86050 -0.40900
C 	C 	0.31780 0.95220 0.88510 0.42500
H 	H 	0.32900 0.93420 0.92570 0.02800
C 	C 	0.34020 0.98220 0.85010 -0.35100
C 	C 	0.32380 0.00850 0.79060 0.48200
H 	H 	0.33920 0.02900 0.76670 -0.03000
C 	C 	0.28500 0.00480 0.76600 -0.52900
H 	H 	0.27380 0.02280 0.72530 0.90700
C 	C 	0.25770 0.91670 0.89350 -0.37800
C 	C 	0.38150 0.98460 0.88260 0.67900
C 	C 	0.98600 0.03270 0.96490 0.48700
F 	F 	0.21890 0.99950 0.95680 -0.02800
F 	F 	0.16750 0.03230 0.92910 -0.05400
F 	F 	0.22180 0.05020 0.87240 -0.07600
F 	F 	0.29460 0.05470 0.65800 -0.12200
F 	F 	0.23890 0.04810 0.70100 -0.16900
F 	F 	0.26300 0.00900 0.61600 -0.07800
H 	H 	0.23170 0.93320 0.66610 1.24200
C 	C 	0.20060 0.01830 0.89100 -0.87200
H 	H 	0.26360 0.92800 0.88440 0.70700
C 	C 	0.27140 0.02660 0.69300 -0.62600
F 	F 	0.39620 0.72480 0.40800 -0.04100
F 	F 	0.40230 0.76480 0.29800 -0.06100
F 	F 	0.44330 0.76610 0.40800 -0.04200
F 	F 	0.39520 0.77360 0.04060 -0.17100
F 	F 	0.42260 0.72220 0.07070 -0.16900
F 	F 	0.38800 0.74800 0.16470 -0.13100
F 	F 	0.56590 0.46990 0.06920 -0.34200
O 	O 	0.50230 0.58530 0.31450 -0.67300
O 	O 	0.44970 0.59790 0.39730 -0.68300
O 	O 	0.51580 0.90020 0.13960 -0.74100
O 	O 	0.45740 0.89510 0.08060 -0.71300
O 	O 	0.46980 0.52010 0.38250 -1.25600
O 	O 	0.56070 0.51150 0.48320 -1.32600
C 	C 	0.47370 0.60660 0.34370 0.74400
C 	C 	0.47170 0.64600 0.30110 -0.61900
C 	C 	0.44910 0.67470 0.34130 0.83100
H 	H 	0.43410 0.66860 0.39250 -0.13900
C 	C 	0.44870 0.71220 0.30650 -1.05000
C 	C 	0.47070 0.72100 0.23160 0.77100
C 	C 	0.49330 0.69240 0.19140 -1.06000
H 	H 	0.50840 0.69840 0.14020 1.23300
C 	C 	0.49380 0.65490 0.22620 0.83600
H 	H 	0.50920 0.63530 0.19880 -0.14100
C 	C 	0.42310 0.74230 0.35400 -0.89800
C 	C 	0.47480 0.76260 0.19900 0.27900
C 	C 	0.44850 0.77900 0.13950 -0.46000
C 	C 	0.45220 0.81780 0.11490 0.44500
H 	H 	0.43420 0.82900 0.07430 -0.03100
C 	C 	0.48220 0.84020 0.14990 -0.39900
C 	C 	0.50850 0.82380 0.20940 0.49500
H 	H 	0.52900 0.83920 0.23330 -0.04700
C 	C 	0.50480 0.78500 0.23400 -0.55500
H 	H 	0.52280 0.77380 0.27470 0.90500
C 	C 	0.41670 0.75770 0.10650 -0.38100
C 	C 	0.48460 0.88150 0.11740 0.68600
C 	C 	0.53270 0.48600 0.03510 0.08800
F 	F 	0.49950 0.71890 0.04320 -0.10600
F 	F 	0.53230 0.66750 0.07090 -0.10900
F 	F 	0.55020 0.72180 0.12760 -0.11100
F 	F 	0.55470 0.79460 0.34200 -0.13200
F 	F 	0.54810 0.73890 0.29900 -0.17800
F 	F 	0.50900 0.76300 0.38400 -0.08000
H 	H 	0.43320 0.73170 0.33390 1.24000
C 	C 	0.51830 0.70060 0.10900 -0.89000
H 	H 	0.42800 0.76360 0.11560 0.71900
C 	C 	0.52660 0.77140 0.30700 -0.61600
F 	F 	0.10380 0.77520 0.40800 -0.04100
F 	F 	0.09770 0.73520 0.29800 -0.06100
F 	F 	0.05670 0.73390 0.40800 -0.04100
F 	F 	0.10480 0.72640 0.04060 -0.17100
F 	F 	0.07740 0.77780 0.07070 -0.16800
F 	F 	0.11200 0.75200 0.16470 -0.13100
F 	F 	0.93410 0.03010 0.06920 -0.34200
O 	O 	0.99770 0.91470 0.31450 -0.67500
O 	O 	0.05030 0.90210 0.39730 -0.68300
O 	O 	0.98420 0.59980 0.13960 -0.74300
O 	O 	0.04260 0.60490 0.08060 -0.71300
O 	O 	0.03020 0.97990 0.38250 -1.25600
O 	O 	0.93930 0.98850 0.48320 -1.32700
C 	C 	0.02630 0.89340 0.34370 0.74700
C 	C 	0.02830 0.85400 0.30110 -0.62100
C 	C 	0.05090 0.82530 0.34130 0.83200
H 	H 	0.06590 0.83140 0.39250 -0.13900
C 	C 	0.05130 0.78780 0.30650 -1.05000
C 	C 	0.02930 0.77900 0.23160 0.77000
C 	C 	0.00670 0.80760 0.19140 -1.05800
H 	H 	0.99160 0.80160 0.14020 1.23200
C 	C 	0.00620 0.84510 0.22620 0.83900
H 	H 	0.99080 0.86470 0.19880 -0.14300
C 	C 	0.07690 0.75770 0.35400 -0.89800
C 	C 	0.02520 0.73740 0.19900 0.28100
C 	C 	0.05150 0.72100 0.13950 -0.46000
C 	C 	0.04780 0.68220 0.11490 0.44500
H 	H 	0.06580 0.67100 0.07430 -0.03100
C 	C 	0.01780 0.65980 0.14990 -0.39700
C 	C 	0.99150 0.67620 0.20940 0.49300
H 	H 	0.97100 0.66080 0.23330 -0.04600
C 	C 	0.99520 0.71500 0.23400 -0.55600
H 	H 	0.97720 0.72620 0.27470 0.90500
C 	C 	0.08330 0.74230 0.10650 -0.38100
C 	C 	0.01540 0.61850 0.11740 0.68800
C 	C 	0.96730 0.01400 0.03510 0.09400
F 	F 	0.00050 0.78110 0.04320 -0.10400
F 	F 	0.96770 0.83250 0.07090 -0.10900
F 	F 	0.94980 0.77820 0.12760 -0.11200
F 	F 	0.94530 0.70540 0.34200 -0.13200
F 	F 	0.95190 0.76110 0.29900 -0.17900
F 	F 	0.99100 0.73700 0.38400 -0.08100
H 	H 	0.06680 0.76830 0.33390 1.24000
C 	C 	0.98170 0.79940 0.10900 -0.89100
H 	H 	0.07200 0.73640 0.11560 0.71900
C 	C 	0.97340 0.72860 0.30700 -0.61500
F 	F 	0.72480 0.10380 0.90800 0.00400
F 	F 	0.76480 0.09770 0.79800 -0.04600
F 	F 	0.76610 0.05670 0.90800 0.00000
F 	F 	0.77360 0.10480 0.54060 -0.12200
F 	F 	0.72220 0.07740 0.57070 -0.13600
F 	F 	0.74800 0.11200 0.66470 -0.11500
F 	F 	0.46990 0.93410 0.56920 -0.34200
O 	O 	0.58530 0.99770 0.81450 -0.66300
O 	O 	0.59790 0.05030 0.89730 -0.64400
O 	O 	0.90020 0.98420 0.63960 -0.70500
O 	O 	0.89510 0.04260 0.58060 -0.66900
O 	O 	0.52010 0.03020 0.88250 -1.22400
O 	O 	0.51150 0.93930 0.98320 -1.25600
C 	C 	0.60660 0.02630 0.84370 0.73900
C 	C 	0.64600 0.02830 0.80110 -0.59600
C 	C 	0.67470 0.05090 0.84130 0.82300
H 	H 	0.66860 0.06590 0.89250 -0.10800
C 	C 	0.71220 0.05130 0.80650 -1.03100
C 	C 	0.72100 0.02930 0.73160 0.76600
C 	C 	0.69240 0.00670 0.69140 -1.04100
H 	H 	0.69840 0.99160 0.64020 1.22800
C 	C 	0.65490 0.00620 0.72620 0.83000
H 	H 	0.63530 0.99080 0.69880 -0.13100
C 	C 	0.74230 0.07690 0.85400 -0.90200
C 	C 	0.76260 0.02520 0.69900 0.27000
C 	C 	0.77900 0.05150 0.63950 -0.43000
C 	C 	0.81780 0.04780 0.61490 0.43300
H 	H 	0.82900 0.06580 0.57430 0.00100
C 	C 	0.84020 0.01780 0.64990 -0.36500
C 	C 	0.82380 0.99150 0.70940 0.48200
H 	H 	0.83920 0.97100 0.73330 -0.02600
C 	C 	0.78500 0.99520 0.73400 -0.53000
H 	H 	0.77380 0.97720 0.77470 0.89700
C 	C 	0.75770 0.08330 0.60650 -0.38100
C 	C 	0.88150 0.01540 0.61740 0.68400
C 	C 	0.48600 0.96730 0.53510 0.29100
F 	F 	0.71890 0.00050 0.54320 -0.06400
F 	F 	0.66750 0.96770 0.57090 -0.07900
F 	F 	0.72180 0.94980 0.62760 -0.08800
F 	F 	0.79460 0.94530 0.84200 -0.10000
F 	F 	0.73890 0.95190 0.79900 -0.16000
F 	F 	0.76300 0.99100 0.88400 -0.04800
H 	H 	0.73170 0.06680 0.83390 1.23900
C 	C 	0.70060 0.98170 0.60900 -0.89000
H 	H 	0.76360 0.07200 0.61560 0.71300
C 	C 	0.77140 0.97340 0.80700 -0.61300
F 	F 	0.77520 0.39620 0.90800 0.00400
F 	F 	0.73520 0.40230 0.79800 -0.04600
F 	F 	0.73390 0.44330 0.90800 0.00000
F 	F 	0.72640 0.39520 0.54060 -0.12200
F 	F 	0.77780 0.42260 0.57070 -0.13600
F 	F 	0.75200 0.38800 0.66470 -0.11500
F 	F 	0.03010 0.56590 0.56920 -0.34100
O 	O 	0.91470 0.50230 0.81450 -0.66200
O 	O 	0.90210 0.44970 0.89730 -0.64400
O 	O 	0.59980 0.51580 0.63960 -0.70400
O 	O 	0.60490 0.45740 0.58060 -0.66900
O 	O 	0.97990 0.46980 0.88250 -1.22500
O 	O 	0.98850 0.56070 0.98320 -1.25700
C 	C 	0.89340 0.47370 0.84370 0.73800
C 	C 	0.85400 0.47170 0.80110 -0.59500
C 	C 	0.82530 0.44910 0.84130 0.82200
H 	H 	0.83140 0.43410 0.89250 -0.10800
C 	C 	0.78780 0.44870 0.80650 -1.03100
C 	C 	0.77900 0.47070 0.73160 0.76700
C 	C 	0.80760 0.49330 0.69140 -1.04300
H 	H 	0.80160 0.50840 0.64020 1.22900
C 	C 	0.84510 0.49380 0.72620 0.82800
H 	H 	0.86470 0.50920 0.69880 -0.13000
C 	C 	0.75770 0.42310 0.85400 -0.90200
C 	C 	0.73740 0.47480 0.69900 0.26900
C 	C 	0.72100 0.44850 0.63950 -0.43000
C 	C 	0.68220 0.45220 0.61490 0.43300
H 	H 	0.67100 0.43420 0.57430 0.00100
C 	C 	0.65980 0.48220 0.64990 -0.36600
C 	C 	0.67620 0.50850 0.70940 0.48300
H 	H 	0.66080 0.52900 0.73330 -0.02600
C 	C 	0.71500 0.50480 0.73400 -0.52900
H 	H 	0.72620 0.52280 0.77470 0.89700
C 	C 	0.74230 0.41670 0.60650 -0.38100
C 	C 	0.61850 0.48460 0.61740 0.68300
C 	C 	0.01400 0.53270 0.53510 0.29200
F 	F 	0.78110 0.49950 0.54320 -0.06500
F 	F 	0.83250 0.53230 0.57090 -0.07900
F 	F 	0.77820 0.55020 0.62760 -0.08800
F 	F 	0.70540 0.55470 0.84200 -0.10000
F 	F 	0.76110 0.54810 0.79900 -0.15900
F 	F 	0.73700 0.50900 0.88400 -0.04700
H 	H 	0.76830 0.43320 0.83390 1.23900
C 	C 	0.79940 0.51830 0.60900 -0.88900
H 	H 	0.73640 0.42800 0.61560 0.71300
C 	C 	0.72860 0.52660 0.80700 -0.61400
F 	F 	0.39620 0.77520 0.90800 0.00400
F 	F 	0.40230 0.73520 0.79800 -0.04600
F 	F 	0.44330 0.73390 0.90800 0.00000
F 	F 	0.39520 0.72640 0.54060 -0.12200
F 	F 	0.42260 0.77780 0.57070 -0.13600
F 	F 	0.38800 0.75200 0.66470 -0.11500
F 	F 	0.56590 0.03010 0.56920 -0.34100
O 	O 	0.50230 0.91470 0.81450 -0.66200
O 	O 	0.44970 0.90210 0.89730 -0.64400
O 	O 	0.51580 0.59980 0.63960 -0.70400
O 	O 	0.45740 0.60490 0.58060 -0.66900
O 	O 	0.46980 0.97990 0.88250 -1.22500
O 	O 	0.56070 0.98850 0.98320 -1.25700
C 	C 	0.47370 0.89340 0.84370 0.73800
C 	C 	0.47170 0.85400 0.80110 -0.59500
C 	C 	0.44910 0.82530 0.84130 0.82200
H 	H 	0.43410 0.83140 0.89250 -0.10800
C 	C 	0.44870 0.78780 0.80650 -1.03100
C 	C 	0.47070 0.77900 0.73160 0.76700
C 	C 	0.49330 0.80760 0.69140 -1.04300
H 	H 	0.50840 0.80160 0.64020 1.22900
C 	C 	0.49380 0.84510 0.72620 0.82800
H 	H 	0.50920 0.86470 0.69880 -0.13000
C 	C 	0.42310 0.75770 0.85400 -0.90200
C 	C 	0.47480 0.73740 0.69900 0.26900
C 	C 	0.44850 0.72100 0.63950 -0.43000
C 	C 	0.45220 0.68220 0.61490 0.43300
H 	H 	0.43420 0.67100 0.57430 0.00100
C 	C 	0.48220 0.65980 0.64990 -0.36600
C 	C 	0.50850 0.67620 0.70940 0.48300
H 	H 	0.52900 0.66080 0.73330 -0.02600
C 	C 	0.50480 0.71500 0.73400 -0.52900
H 	H 	0.52280 0.72620 0.77470 0.89700
C 	C 	0.41670 0.74230 0.60650 -0.38100
C 	C 	0.48460 0.61850 0.61740 0.68300
C 	C 	0.53270 0.01400 0.53510 0.29200
F 	F 	0.49950 0.78110 0.54320 -0.06500
F 	F 	0.53230 0.83250 0.57090 -0.07900
F 	F 	0.55020 0.77820 0.62760 -0.08800
F 	F 	0.55470 0.70540 0.84200 -0.10000
F 	F 	0.54810 0.76110 0.79900 -0.15900
F 	F 	0.50900 0.73700 0.88400 -0.04700
H 	H 	0.43320 0.76830 0.83390 1.23900
C 	C 	0.51830 0.79940 0.60900 -0.88900
H 	H 	0.42800 0.73640 0.61560 0.71300
C 	C 	0.52660 0.72860 0.80700 -0.61400
F 	F 	0.10380 0.72480 0.90800 0.00400
F 	F 	0.09770 0.76480 0.79800 -0.04600
F 	F 	0.05670 0.76610 0.90800 0.00000
F 	F 	0.10480 0.77360 0.54060 -0.12200
F 	F 	0.07740 0.72220 0.57070 -0.13600
F 	F 	0.11200 0.74800 0.66470 -0.11500
F 	F 	0.93410 0.46990 0.56920 -0.34200
O 	O 	0.99770 0.58530 0.81450 -0.66300
O 	O 	0.05030 0.59790 0.89730 -0.64400
O 	O 	0.98420 0.90020 0.63960 -0.70500
O 	O 	0.04260 0.89510 0.58060 -0.66900
O 	O 	0.03020 0.52010 0.88250 -1.22400
O 	O 	0.93930 0.51150 0.98320 -1.25600
C 	C 	0.02630 0.60660 0.84370 0.73900
C 	C 	0.02830 0.64600 0.80110 -0.59600
C 	C 	0.05090 0.67470 0.84130 0.82300
H 	H 	0.06590 0.66860 0.89250 -0.10800
C 	C 	0.05130 0.71220 0.80650 -1.03100
C 	C 	0.02930 0.72100 0.73160 0.76600
C 	C 	0.00670 0.69240 0.69140 -1.04100
H 	H 	0.99160 0.69840 0.64020 1.22800
C 	C 	0.00620 0.65490 0.72620 0.83000
H 	H 	0.99080 0.63530 0.69880 -0.13100
C 	C 	0.07690 0.74230 0.85400 -0.90200
C 	C 	0.02520 0.76260 0.69900 0.27000
C 	C 	0.05150 0.77900 0.63950 -0.43000
C 	C 	0.04780 0.81780 0.61490 0.43300
H 	H 	0.06580 0.82900 0.57430 0.00100
C 	C 	0.01780 0.84020 0.64990 -0.36500
C 	C 	0.99150 0.82380 0.70940 0.48200
H 	H 	0.97100 0.83920 0.73330 -0.02600
C 	C 	0.99520 0.78500 0.73400 -0.53000
H 	H 	0.97720 0.77380 0.77470 0.89700
C 	C 	0.08330 0.75770 0.60650 -0.38100
C 	C 	0.01540 0.88150 0.61740 0.68400
C 	C 	0.96730 0.48600 0.53510 0.29100
F 	F 	0.00050 0.71890 0.54320 -0.06400
F 	F 	0.96770 0.66750 0.57090 -0.07900
F 	F 	0.94980 0.72180 0.62760 -0.08800
F 	F 	0.94530 0.79460 0.84200 -0.10000
F 	F 	0.95190 0.73890 0.79900 -0.16000
F 	F 	0.99100 0.76300 0.88400 -0.04800
H 	H 	0.06680 0.73170 0.83390 1.23900
C 	C 	0.98170 0.70060 0.60900 -0.89000
H 	H 	0.07200 0.76360 0.61560 0.71300
C 	C 	0.97340 0.77140 0.80700 -0.61300
F 	F 	0.72480 0.39620 0.40800 -0.04100
F 	F 	0.76480 0.40230 0.29800 -0.06100
F 	F 	0.76610 0.44330 0.40800 -0.04200
F 	F 	0.77360 0.39520 0.04060 -0.17100
F 	F 	0.72220 0.42260 0.07070 -0.16900
F 	F 	0.74800 0.38800 0.16470 -0.13100
F 	F 	0.46990 0.56590 0.06920 -0.34200
O 	O 	0.58530 0.50230 0.31450 -0.67300
O 	O 	0.59790 0.44970 0.39730 -0.68300
O 	O 	0.90020 0.51580 0.13960 -0.74100
O 	O 	0.89510 0.45740 0.08060 -0.71300
O 	O 	0.52010 0.46980 0.38250 -1.25600
O 	O 	0.51150 0.56070 0.48320 -1.32600
C 	C 	0.60660 0.47370 0.34370 0.74400
C 	C 	0.64600 0.47170 0.30110 -0.61900
C 	C 	0.67470 0.44910 0.34130 0.83100
H 	H 	0.66860 0.43410 0.39250 -0.13900
C 	C 	0.71220 0.44870 0.30650 -1.05000
C 	C 	0.72100 0.47070 0.23160 0.77100
C 	C 	0.69240 0.49330 0.19140 -1.06000
H 	H 	0.69840 0.50840 0.14020 1.23300
C 	C 	0.65490 0.49380 0.22620 0.83600
H 	H 	0.63530 0.50920 0.19880 -0.14100
C 	C 	0.74230 0.42310 0.35400 -0.89800
C 	C 	0.76260 0.47480 0.19900 0.27900
C 	C 	0.77900 0.44850 0.13950 -0.46000
C 	C 	0.81780 0.45220 0.11490 0.44500
H 	H 	0.82900 0.43420 0.07430 -0.03100
C 	C 	0.84020 0.48220 0.14990 -0.39900
C 	C 	0.82380 0.50850 0.20940 0.49500
H 	H 	0.83920 0.52900 0.23330 -0.04700
C 	C 	0.78500 0.50480 0.23400 -0.55500
H 	H 	0.77380 0.52280 0.27470 0.90500
C 	C 	0.75770 0.41670 0.10650 -0.38100
C 	C 	0.88150 0.48460 0.11740 0.68600
C 	C 	0.48600 0.53270 0.03510 0.08800
F 	F 	0.71890 0.49950 0.04320 -0.10600
F 	F 	0.66750 0.53230 0.07090 -0.10900
F 	F 	0.72180 0.55020 0.12760 -0.11100
F 	F 	0.79460 0.55470 0.34200 -0.13200
F 	F 	0.73890 0.54810 0.29900 -0.17800
F 	F 	0.76300 0.50900 0.38400 -0.08000
H 	H 	0.73170 0.43320 0.33390 1.24000
C 	C 	0.70060 0.51830 0.10900 -0.89000
H 	H 	0.76360 0.42800 0.11560 0.71900
C 	C 	0.77140 0.52660 0.30700 -0.61600
F 	F 	0.77520 0.10380 0.40800 -0.04100
F 	F 	0.73520 0.09770 0.29800 -0.06100
F 	F 	0.73390 0.05670 0.40800 -0.04100
F 	F 	0.72640 0.10480 0.04060 -0.17100
F 	F 	0.77780 0.07740 0.07070 -0.16800
F 	F 	0.75200 0.11200 0.16470 -0.13100
F 	F 	0.03010 0.93410 0.06920 -0.34200
O 	O 	0.91470 0.99770 0.31450 -0.67500
O 	O 	0.90210 0.05030 0.39730 -0.68300
O 	O 	0.59980 0.98420 0.13960 -0.74300
O 	O 	0.60490 0.04260 0.08060 -0.71300
O 	O 	0.97990 0.03020 0.38250 -1.25600
O 	O 	0.98850 0.93930 0.48320 -1.32700
C 	C 	0.89340 0.02630 0.34370 0.74700
C 	C 	0.85400 0.02830 0.30110 -0.62100
C 	C 	0.82530 0.05090 0.34130 0.83200
H 	H 	0.83140 0.06590 0.39250 -0.13900
C 	C 	0.78780 0.05130 0.30650 -1.05000
C 	C 	0.77900 0.02930 0.23160 0.77000
C 	C 	0.80760 0.00670 0.19140 -1.05800
H 	H 	0.80160 0.99160 0.14020 1.23200
C 	C 	0.84510 0.00620 0.22620 0.83900
H 	H 	0.86470 0.99080 0.19880 -0.14300
C 	C 	0.75770 0.07690 0.35400 -0.89800
C 	C 	0.73740 0.02520 0.19900 0.28100
C 	C 	0.72100 0.05150 0.13950 -0.46000
C 	C 	0.68220 0.04780 0.11490 0.44500
H 	H 	0.67100 0.06580 0.07430 -0.03100
C 	C 	0.65980 0.01780 0.14990 -0.39700
C 	C 	0.67620 0.99150 0.20940 0.49300
H 	H 	0.66080 0.97100 0.23330 -0.04600
C 	C 	0.71500 0.99520 0.23400 -0.55600
H 	H 	0.72620 0.97720 0.27470 0.90500
C 	C 	0.74230 0.08330 0.10650 -0.38100
C 	C 	0.61850 0.01540 0.11740 0.68800
C 	C 	0.01400 0.96730 0.03510 0.09400
F 	F 	0.78110 0.00050 0.04320 -0.10400
F 	F 	0.83250 0.96770 0.07090 -0.10900
F 	F 	0.77820 0.94980 0.12760 -0.11200
F 	F 	0.70540 0.94530 0.34200 -0.13200
F 	F 	0.76110 0.95190 0.29900 -0.17900
F 	F 	0.73700 0.99100 0.38400 -0.08100
H 	H 	0.76830 0.06680 0.33390 1.24000
C 	C 	0.79940 0.98170 0.10900 -0.89100
H 	H 	0.73640 0.07200 0.11560 0.71900
C 	C 	0.72860 0.97340 0.30700 -0.61500
F 	F 	0.60380 0.27520 0.59200 -0.03700
F 	F 	0.59770 0.23520 0.70200 -0.05500
F 	F 	0.55670 0.23390 0.59200 -0.04100
F 	F 	0.60480 0.22640 0.95940 -0.07500
F 	F 	0.57740 0.27780 0.92930 -0.10400
F 	F 	0.61200 0.25200 0.83530 -0.10900
F 	F 	0.43410 0.53010 0.93080 -0.34100
O 	O 	0.49770 0.41470 0.68550 -0.66800
O 	O 	0.55030 0.40210 0.60270 -0.67800
O 	O 	0.48420 0.09980 0.86040 -0.68300
O 	O 	0.54260 0.10490 0.91940 -0.62600
O 	O 	0.53020 0.47990 0.61750 -1.24900
O 	O 	0.43930 0.48850 0.51680 -1.32600
C 	C 	0.52630 0.39340 0.65630 0.74500
C 	C 	0.52830 0.35400 0.69890 -0.60900
C 	C 	0.55090 0.32530 0.65870 0.83100
H 	H 	0.56590 0.33140 0.60750 -0.13600
C 	C 	0.55130 0.28780 0.69350 -1.04700
C 	C 	0.52930 0.27900 0.76840 0.77100
C 	C 	0.50670 0.30760 0.80860 -1.03600
H 	H 	0.49160 0.30160 0.85980 1.21700
C 	C 	0.50620 0.34510 0.77380 0.83000
H 	H 	0.49080 0.36470 0.80120 -0.12700
C 	C 	0.57690 0.25770 0.64600 -0.90200
C 	C 	0.52520 0.23740 0.80100 0.26500
C 	C 	0.55150 0.22100 0.86050 -0.40900
C 	C 	0.54780 0.18220 0.88510 0.42500
H 	H 	0.56580 0.17100 0.92570 0.02800
C 	C 	0.51780 0.15980 0.85010 -0.35100
C 	C 	0.49150 0.17620 0.79060 0.48100
H 	H 	0.47100 0.16080 0.76670 -0.03000
C 	C 	0.49520 0.21500 0.76600 -0.53100
H 	H 	0.47720 0.22620 0.72530 0.90700
C 	C 	0.58330 0.24230 0.89350 -0.37800
C 	C 	0.51540 0.11850 0.88260 0.68000
C 	C 	0.46730 0.51400 0.96490 0.49100
F 	F 	0.50050 0.28110 0.95680 -0.02800
F 	F 	0.46770 0.33250 0.92910 -0.05400
F 	F 	0.44980 0.27820 0.87240 -0.07600
F 	F 	0.44530 0.20540 0.65800 -0.12300
F 	F 	0.45190 0.26110 0.70100 -0.16900
F 	F 	0.49100 0.23700 0.61600 -0.07900
H 	H 	0.56680 0.26830 0.66610 1.24200
C 	C 	0.48170 0.29940 0.89100 -0.87300
H 	H 	0.57200 0.23640 0.88440 0.70700
C 	C 	0.47340 0.22860 0.69300 -0.62500
F 	F 	0.89620 0.22480 0.59200 -0.03700
F 	F 	0.90230 0.26480 0.70200 -0.05500
F 	F 	0.94330 0.26610 0.59200 -0.04100
F 	F 	0.89520 0.27360 0.95940 -0.07500
F 	F 	0.92260 0.22220 0.92930 -0.10400
F 	F 	0.88800 0.24800 0.83530 -0.10900
F 	F 	0.06590 0.96990 0.93080 -0.34100
O 	O 	0.00230 0.08530 0.68550 -0.66700
O 	O 	0.94970 0.09790 0.60270 -0.67800
O 	O 	0.01580 0.40020 0.86040 -0.68200
O 	O 	0.95740 0.39510 0.91940 -0.62600
O 	O 	0.96980 0.02010 0.61750 -1.24900
O 	O 	0.06070 0.01150 0.51680 -1.32500
C 	C 	0.97370 0.10660 0.65630 0.74300
C 	C 	0.97170 0.14600 0.69890 -0.60800
C 	C 	0.94910 0.17470 0.65870 0.83100
H 	H 	0.93410 0.16860 0.60750 -0.13600
C 	C 	0.94870 0.21220 0.69350 -1.04700
C 	C 	0.97070 0.22100 0.76840 0.77200
C 	C 	0.99330 0.19240 0.80860 -1.03600
H 	H 	0.00840 0.19840 0.85980 1.21700
C 	C 	0.99380 0.15490 0.77380 0.82800
H 	H 	0.00920 0.13530 0.80120 -0.12600
C 	C 	0.92310 0.24230 0.64600 -0.90200
C 	C 	0.97480 0.26260 0.80100 0.26300
C 	C 	0.94850 0.27900 0.86050 -0.40900
C 	C 	0.95220 0.31780 0.88510 0.42500
H 	H 	0.93420 0.32900 0.92570 0.02800
C 	C 	0.98220 0.34020 0.85010 -0.35100
C 	C 	0.00850 0.32380 0.79060 0.48200
H 	H 	0.02900 0.33920 0.76670 -0.03000
C 	C 	0.00480 0.28500 0.76600 -0.52900
H 	H 	0.02280 0.27380 0.72530 0.90700
C 	C 	0.91670 0.25770 0.89350 -0.37800
C 	C 	0.98460 0.38150 0.88260 0.67900
C 	C 	0.03270 0.98600 0.96490 0.48700
F 	F 	0.99950 0.21890 0.95680 -0.02800
F 	F 	0.03230 0.16750 0.92910 -0.05400
F 	F 	0.05020 0.22180 0.87240 -0.07600
F 	F 	0.05470 0.29460 0.65800 -0.12200
F 	F 	0.04810 0.23890 0.70100 -0.16900
F 	F 	0.00900 0.26300 0.61600 -0.07800
H 	H 	0.93320 0.23170 0.66610 1.24200
C 	C 	0.01830 0.20060 0.89100 -0.87200
H 	H 	0.92800 0.26360 0.88440 0.70700
C 	C 	0.02660 0.27140 0.69300 -0.62600
F 	F 	0.27520 0.89620 0.09200 -0.08200
F 	F 	0.23520 0.90230 0.20200 -0.07000
F 	F 	0.23390 0.94330 0.09200 -0.08300
F 	F 	0.22640 0.89520 0.45940 -0.12400
F 	F 	0.27780 0.92260 0.42930 -0.13700
F 	F 	0.25200 0.88800 0.33530 -0.12400
F 	F 	0.53010 0.06590 0.43080 -0.34100
O 	O 	0.41470 0.00230 0.18550 -0.67700
O 	O 	0.40210 0.94970 0.10270 -0.71200
O 	O 	0.09980 0.01580 0.36040 -0.71800
O 	O 	0.10490 0.95740 0.41940 -0.67400
O 	O 	0.47990 0.96980 0.11750 -1.27800
O 	O 	0.48850 0.06070 0.01680 -1.39000
C 	C 	0.39340 0.97370 0.15630 0.74700
C 	C 	0.35400 0.97170 0.19890 -0.63100
C 	C 	0.32530 0.94910 0.15870 0.83900
H 	H 	0.33140 0.93410 0.10750 -0.16600
C 	C 	0.28780 0.94870 0.19350 -1.06600
C 	C 	0.27900 0.97070 0.26840 0.77600
C 	C 	0.30760 0.99330 0.30860 -1.05400
H 	H 	0.30160 0.00840 0.35980 1.22200
C 	C 	0.34510 0.99380 0.27380 0.83400
H 	H 	0.36470 0.00920 0.30120 -0.13600
C 	C 	0.25770 0.92310 0.14600 -0.89900
C 	C 	0.23740 0.97480 0.30100 0.27200
C 	C 	0.22100 0.94850 0.36050 -0.43800
C 	C 	0.18220 0.95220 0.38510 0.43800
H 	H 	0.17100 0.93420 0.42570 -0.00300
C 	C 	0.15980 0.98220 0.35010 -0.38500
C 	C 	0.17620 0.00850 0.29060 0.49500
H 	H 	0.16080 0.02900 0.26670 -0.05100
C 	C 	0.21500 0.00480 0.26600 -0.55400
H 	H 	0.22620 0.02280 0.22530 0.91500
C 	C 	0.24230 0.91670 0.39350 -0.37800
C 	C 	0.11850 0.98460 0.38260 0.68300
C 	C 	0.51400 0.03270 0.46490 0.28900
F 	F 	0.28110 0.99950 0.45680 -0.06900
F 	F 	0.33250 0.03230 0.42910 -0.08400
F 	F 	0.27820 0.05020 0.37240 -0.09800
F 	F 	0.20540 0.05470 0.15800 -0.15400
F 	F 	0.26110 0.04810 0.20100 -0.18700
F 	F 	0.23700 0.00900 0.11600 -0.11000
H 	H 	0.26830 0.93320 0.16610 1.24400
C 	C 	0.29940 0.01830 0.39100 -0.87200
H 	H 	0.23640 0.92800 0.38440 0.71300
C 	C 	0.22860 0.02660 0.19300 -0.62900
F 	F 	0.22480 0.60380 0.09200 -0.08200
F 	F 	0.26480 0.59770 0.20200 -0.07000
F 	F 	0.26610 0.55670 0.09200 -0.08200
F 	F 	0.27360 0.60480 0.45940 -0.12400
F 	F 	0.22220 0.57740 0.42930 -0.13700
F 	F 	0.24800 0.61200 0.33530 -0.12400
F 	F 	0.96990 0.43410 0.43080 -0.34100
O 	O 	0.08530 0.49770 0.18550 -0.67900
O 	O 	0.09790 0.55030 0.10270 -0.71200
O 	O 	0.40020 0.48420 0.36040 -0.72000
O 	O 	0.39510 0.54260 0.41940 -0.67500
O 	O 	0.02010 0.53020 0.11750 -1.27600
O 	O 	0.01150 0.43930 0.01680 -1.38900
C 	C 	0.10660 0.52630 0.15630 0.75000
C 	C 	0.14600 0.52830 0.19890 -0.63200
C 	C 	0.17470 0.55090 0.15870 0.84000
H 	H 	0.16860 0.56590 0.10750 -0.16600
C 	C 	0.21220 0.55130 0.19350 -1.06600
C 	C 	0.22100 0.52930 0.26840 0.77500
C 	C 	0.19240 0.50670 0.30860 -1.05300
H 	H 	0.19840 0.49160 0.35980 1.22100
C 	C 	0.15490 0.50620 0.27380 0.83800
H 	H 	0.13530 0.49080 0.30120 -0.13800
C 	C 	0.24230 0.57690 0.14600 -0.89900
C 	C 	0.26260 0.52520 0.30100 0.27500
C 	C 	0.27900 0.55150 0.36050 -0.43900
C 	C 	0.31780 0.54780 0.38510 0.43800
H 	H 	0.32900 0.56580 0.42570 -0.00300
C 	C 	0.34020 0.51780 0.35010 -0.38400
C 	C 	0.32380 0.49150 0.29060 0.49300
H 	H 	0.33920 0.47100 0.26670 -0.05100
C 	C 	0.28500 0.49520 0.26600 -0.55600
H 	H 	0.27380 0.47720 0.22530 0.91500
C 	C 	0.25770 0.58330 0.39350 -0.37700
C 	C 	0.38150 0.51540 0.38260 0.68500
C 	C 	0.98600 0.46730 0.46490 0.28700
F 	F 	0.21890 0.50050 0.45680 -0.06800
F 	F 	0.16750 0.46770 0.42910 -0.08400
F 	F 	0.22180 0.44980 0.37240 -0.09800
F 	F 	0.29460 0.44530 0.15800 -0.15500
F 	F 	0.23890 0.45190 0.20100 -0.18800
F 	F 	0.26300 0.49100 0.11600 -0.11100
H 	H 	0.23170 0.56680 0.16610 1.24400
C 	C 	0.20060 0.48170 0.39100 -0.87400
H 	H 	0.26360 0.57200 0.38440 0.71300
C 	C 	0.27140 0.47340 0.19300 -0.62700
Zr	Zr	0.55045 0.05045 -0.00000 3.19500
Zr	Zr	0.94955 0.44955 -0.00000 3.19500
Zr	Zr	0.44955 0.55045 0.50000 3.21100
Zr	Zr	0.05045 0.94955 0.50000 3.21100
Zr	Zr	0.44955 0.94955 -0.00000 3.19500
Zr	Zr	0.05045 0.55045 -0.00000 3.19500
Zr	Zr	0.55045 0.44955 0.50000 3.21100
Zr	Zr	0.94955 0.05045 0.50000 3.21100
Zr	Zr	0.46921 0.03079 0.13409 3.20300
Zr	Zr	0.54146 0.95854 0.09876 3.17300
O 	O 	0.47670 0.02330 0.27190 -0.76500
O 	O 	0.43810 0.06190 0.35500 -0.22100
C 	C 	0.46470 0.03530 0.33760 0.64000
C 	C 	0.47970 0.02030 0.42500 -0.22400
Zr	Zr	0.03079 0.46921 0.13409 3.20300
Zr	Zr	0.95854 0.54146 0.09876 3.17300
O 	O 	0.02330 0.47670 0.27190 -0.76500
O 	O 	0.06190 0.43810 0.35500 -0.22100
C 	C 	0.03530 0.46470 0.33760 0.64000
C 	C 	0.02030 0.47970 0.42500 -0.22400
Zr	Zr	0.46921 0.46921 0.63409 3.20400
Zr	Zr	0.54146 0.54146 0.59876 3.18400
O 	O 	0.47670 0.47670 0.77190 -0.77500
O 	O 	0.43810 0.43810 0.85500 -0.21100
C 	C 	0.46470 0.46470 0.83760 0.68300
C 	C 	0.47970 0.47970 0.92500 -0.33300
Zr	Zr	0.03079 0.03079 0.63409 3.20400
Zr	Zr	0.95854 0.95854 0.59876 3.18400
O 	O 	0.02330 0.02330 0.77190 -0.77400
O 	O 	0.06190 0.06190 0.85500 -0.21100
C 	C 	0.03530 0.03530 0.83760 0.68200
C 	C 	0.02030 0.02030 0.92500 -0.32900
Zr	Zr	0.53079 0.53079 0.36591 3.20300
Zr	Zr	0.45854 0.45854 0.40124 3.18300
O 	O 	0.52330 0.52330 0.22810 -0.75600
O 	O 	0.56190 0.56190 0.14500 -0.22500
C 	C 	0.53530 0.53530 0.16240 0.59800
C 	C 	0.52030 0.52030 0.07500 -0.12000
Zr	Zr	0.96921 0.96921 0.36591 3.20300
Zr	Zr	0.04146 0.04146 0.40124 3.18300
O 	O 	0.97670 0.97670 0.22810 -0.75800
O 	O 	0.93810 0.93810 0.14500 -0.22600
C 	C 	0.96470 0.96470 0.16240 0.60100
C 	C 	0.97970 0.97970 0.07500 -0.12700
Zr	Zr	0.53079 0.96921 0.86591 3.20400
Zr	Zr	0.45854 0.04146 0.90124 3.19400
O 	O 	0.52330 0.97670 0.72810 -0.76600
O 	O 	0.56190 0.93810 0.64500 -0.21500
C 	C 	0.53530 0.96470 0.66240 0.64100
C 	C 	0.52030 0.97970 0.57500 -0.22900
Zr	Zr	0.96921 0.53079 0.86591 3.20400
Zr	Zr	0.04146 0.45854 0.90124 3.19400
O 	O 	0.97670 0.52330 0.72810 -0.76600
O 	O 	0.93810 0.56190 0.64500 -0.21500
C 	C 	0.96470 0.53530 0.66240 0.64100
C 	C 	0.97970 0.52030 0.57500 -0.22900
