data_crystal

_cell_length_a 22.87270
_cell_length_b 22.87270
_cell_length_c 19.05900
_cell_angle_alpha 90.00000
_cell_angle_beta  90.00000
_cell_angle_gamma 90.00000

_symmetry_space_group_name_	'P 1'
_symmetry_space_group_name_H-M	'P 1'

loop_
_symmetry_equiv_pos_as_xyz
  x,y,z

loop_
_atom_site_label
_atom_site_type_symbol
_atom_site_fract_x
_atom_site_fract_y
_atom_site_fract_z
_atom_site_charge
F 	F 	0.36890 0.29630 0.13200 -0.12200
F 	F 	0.38250 0.36110 0.20900 -0.08600
F 	F 	0.35800 0.38520 0.10670 -0.10100
O 	O 	0.15810 0.44120 0.06970 -0.64500
O 	O 	0.08800 0.39360 0.12750 -0.69600
N 	N 	0.04400 0.28420 0.47080 0.62000
H 	H 	0.03850 0.24810 0.45320 -0.06700
H 	H 	0.05020 0.28900 0.51710 -0.51000
C 	C 	0.26610 0.30850 0.23330 0.52400
C 	C 	0.28410 0.34270 0.17670 -0.76300
C 	C 	0.24310 0.37410 0.13810 0.65900
H 	H 	0.25560 0.39720 0.09940 -0.07200
C 	C 	0.18490 0.37220 0.15520 -0.52500
C 	C 	0.16570 0.33840 0.21100 0.65800
H 	H 	0.12530 0.33690 0.22270 -0.10200
C 	C 	0.20670 0.30670 0.24990 -0.79900
H 	H 	0.19390 0.28350 0.28830 1.04900
C 	C 	0.34720 0.34590 0.15700 -0.65400
C 	C 	0.14070 0.40480 0.11440 0.71000
C 	C 	0.03580 0.39990 0.52840 0.00300
C 	C 	0.02740 0.38750 0.45200 0.00000
C 	C 	0.03460 0.33180 0.42540 -0.00600
C 	C 	0.02540 0.32140 0.35420 -0.42100
H 	H 	0.02720 0.28300 0.33410 0.19300
C 	C 	0.00910 0.36670 0.31010 1.26100
H 	H 	0.99460 0.45520 0.30800 -0.25100
C 	C 	0.01160 0.43320 0.40750 -0.06100
H 	H 	0.00990 0.47170 0.42750 -0.56000
F 	F 	0.21210 0.28300 0.37050 -0.13800
F 	F 	0.12840 0.27810 0.32270 -0.18400
F 	F 	0.19230 0.21330 0.30050 -0.14200
O 	O 	0.08970 0.47880 0.76350 -0.14500
H 	H 	0.11440 0.45200 0.45470 0.19100
H 	H 	0.14380 0.48710 0.51290 0.07000
H 	H 	0.32440 0.34450 0.16450 0.99600
C 	C 	0.18570 0.27050 0.31030 -0.71700
C 	C 	0.07800 0.43960 0.54990 0.01700
C 	C 	0.08180 0.45600 0.61980 0.06800
H 	H 	0.11000 0.48480 0.63380 0.02800
C 	C 	0.04350 0.43240 0.66890 -0.06900
H 	H 	0.97190 0.37980 0.67970 -0.83700
H 	H 	0.97180 0.34590 0.56390 0.05200
C 	C 	0.04460 0.45240 0.74430 0.26300
F 	F 	0.63110 0.70370 0.13200 -0.12300
F 	F 	0.61750 0.63890 0.20900 -0.08700
F 	F 	0.64200 0.61480 0.10670 -0.10200
O 	O 	0.84190 0.55880 0.06970 -0.64300
O 	O 	0.91200 0.60640 0.12750 -0.66200
N 	N 	0.95600 0.71580 0.47080 0.62900
H 	H 	0.96150 0.75190 0.45320 -0.01500
H 	H 	0.94980 0.71100 0.51710 -0.51600
C 	C 	0.73390 0.69150 0.23330 0.52200
C 	C 	0.71590 0.65730 0.17670 -0.76000
C 	C 	0.75690 0.62590 0.13810 0.65600
H 	H 	0.74440 0.60280 0.09940 -0.07000
C 	C 	0.81510 0.62780 0.15520 -0.51400
C 	C 	0.83430 0.66160 0.21100 0.65400
H 	H 	0.87470 0.66310 0.22270 -0.09100
C 	C 	0.79330 0.69330 0.24990 -0.79300
H 	H 	0.80610 0.71650 0.28830 1.05000
C 	C 	0.65280 0.65410 0.15700 -0.65700
C 	C 	0.85930 0.59520 0.11440 0.70200
C 	C 	0.96420 0.60010 0.52840 0.10500
C 	C 	0.97260 0.61250 0.45200 -0.01900
C 	C 	0.96540 0.66820 0.42540 0.08500
C 	C 	0.97460 0.67860 0.35420 -0.15700
H 	H 	0.97280 0.71700 0.33410 0.17900
C 	C 	0.99090 0.63330 0.31010 0.97700
H 	H 	0.00540 0.54480 0.30800 0.09300
C 	C 	0.98840 0.56680 0.40750 0.08200
H 	H 	0.99010 0.52830 0.42750 0.58800
F 	F 	0.78790 0.71700 0.37050 -0.13300
F 	F 	0.87160 0.72190 0.32270 -0.17400
F 	F 	0.80770 0.78670 0.30050 -0.11900
O 	O 	0.91030 0.52120 0.76350 -0.16600
H 	H 	0.88560 0.54800 0.45470 0.29100
H 	H 	0.85620 0.51290 0.51290 0.06700
H 	H 	0.67560 0.65550 0.16450 0.99800
C 	C 	0.81430 0.72950 0.31030 -0.71900
C 	C 	0.92200 0.56040 0.54990 -0.20800
C 	C 	0.91820 0.54400 0.61980 -0.03000
H 	H 	0.89000 0.51520 0.63380 0.04100
C 	C 	0.95650 0.56760 0.66890 0.02000
H 	H 	0.02810 0.62020 0.67970 -0.94000
H 	H 	0.02820 0.65410 0.56390 0.09800
C 	C 	0.95540 0.54760 0.74430 0.37700
F 	F 	0.70370 0.36890 0.63200 -0.12400
F 	F 	0.63890 0.38250 0.70900 -0.08700
F 	F 	0.61480 0.35800 0.60670 -0.10300
O 	O 	0.55880 0.15810 0.56970 -0.64600
O 	O 	0.60640 0.08800 0.62750 -0.69600
N 	N 	0.71580 0.04400 0.97080 0.62300
H 	H 	0.75190 0.03850 0.95320 -0.06000
H 	H 	0.71100 0.05020 0.01710 -0.51300
C 	C 	0.69150 0.26610 0.73330 0.52400
C 	C 	0.65730 0.28410 0.67670 -0.76300
C 	C 	0.62590 0.24310 0.63810 0.65900
H 	H 	0.60280 0.25560 0.59940 -0.07200
C 	C 	0.62780 0.18490 0.65520 -0.52400
C 	C 	0.66160 0.16570 0.71100 0.65800
H 	H 	0.66310 0.12530 0.72270 -0.10100
C 	C 	0.69330 0.20670 0.74990 -0.79700
H 	H 	0.71650 0.19390 0.78830 1.04800
C 	C 	0.65410 0.34720 0.65700 -0.65500
C 	C 	0.59520 0.14070 0.61440 0.71100
C 	C 	0.60010 0.03580 0.02840 0.00400
C 	C 	0.61250 0.02740 0.95200 -0.00100
C 	C 	0.66820 0.03460 0.92540 -0.00800
C 	C 	0.67860 0.02540 0.85420 -0.42300
H 	H 	0.71700 0.02720 0.83410 0.19800
C 	C 	0.63330 0.00910 0.81010 1.26000
H 	H 	0.54480 0.99460 0.80800 -0.25500
C 	C 	0.56680 0.01160 0.90750 -0.06000
H 	H 	0.52830 0.00990 0.92750 -0.56900
F 	F 	0.71700 0.21210 0.87050 -0.13500
F 	F 	0.72190 0.12840 0.82270 -0.17900
F 	F 	0.78670 0.19230 0.80050 -0.13000
O 	O 	0.52120 0.08970 0.26350 -0.14500
H 	H 	0.54800 0.11440 0.95470 0.19000
H 	H 	0.51290 0.14380 0.01290 0.07100
H 	H 	0.65550 0.32440 0.66450 0.99700
C 	C 	0.72950 0.18570 0.81030 -0.71500
C 	C 	0.56040 0.07800 0.04990 0.01700
C 	C 	0.54400 0.08180 0.11980 0.06900
H 	H 	0.51520 0.11000 0.13380 0.02700
C 	C 	0.56760 0.04350 0.16890 -0.07000
H 	H 	0.62020 0.97190 0.17970 -0.83000
H 	H 	0.65410 0.97180 0.06390 0.05300
C 	C 	0.54760 0.04460 0.24430 0.26300
F 	F 	0.29630 0.63110 0.63200 -0.12200
F 	F 	0.36110 0.61750 0.70900 -0.08600
F 	F 	0.38520 0.64200 0.60670 -0.10200
O 	O 	0.44120 0.84190 0.56970 -0.64300
O 	O 	0.39360 0.91200 0.62750 -0.66300
N 	N 	0.28420 0.95600 0.97080 0.62500
H 	H 	0.24810 0.96150 0.95320 -0.02200
H 	H 	0.28900 0.94980 0.01710 -0.51300
C 	C 	0.30850 0.73390 0.73330 0.52200
C 	C 	0.34270 0.71590 0.67670 -0.76000
C 	C 	0.37410 0.75690 0.63810 0.65500
H 	H 	0.39720 0.74440 0.59940 -0.07000
C 	C 	0.37220 0.81510 0.65520 -0.51500
C 	C 	0.33840 0.83430 0.71100 0.65400
H 	H 	0.33690 0.87470 0.72270 -0.09200
C 	C 	0.30670 0.79330 0.74990 -0.79500
H 	H 	0.28350 0.80610 0.78830 1.05200
C 	C 	0.34590 0.65280 0.65700 -0.65700
C 	C 	0.40480 0.85930 0.61440 0.70100
C 	C 	0.39990 0.96420 0.02840 0.10600
C 	C 	0.38750 0.97260 0.95200 -0.02100
C 	C 	0.33180 0.96540 0.92540 0.08600
C 	C 	0.32140 0.97460 0.85420 -0.15500
H 	H 	0.28300 0.97280 0.83410 0.17400
C 	C 	0.36670 0.99090 0.81010 0.97900
H 	H 	0.45520 0.00540 0.80800 0.09600
C 	C 	0.43320 0.98840 0.90750 0.08300
H 	H 	0.47170 0.99010 0.92750 0.59600
F 	F 	0.28300 0.78790 0.87050 -0.13700
F 	F 	0.27810 0.87160 0.82270 -0.17900
F 	F 	0.21330 0.80770 0.80050 -0.13000
O 	O 	0.47880 0.91030 0.26350 -0.16700
H 	H 	0.45200 0.88560 0.95470 0.29100
H 	H 	0.48710 0.85620 0.01290 0.06800
H 	H 	0.34450 0.67560 0.66450 0.99700
C 	C 	0.27050 0.81430 0.81030 -0.72100
C 	C 	0.43960 0.92200 0.04990 -0.20900
C 	C 	0.45600 0.91820 0.11980 -0.03200
H 	H 	0.48480 0.89000 0.13380 0.04200
C 	C 	0.43240 0.95650 0.16890 0.02300
H 	H 	0.37980 0.02810 0.17970 -0.94400
H 	H 	0.34590 0.02820 0.06390 0.09800
C 	C 	0.45240 0.95540 0.24430 0.37900
F 	F 	0.63110 0.29630 0.86800 -0.12200
F 	F 	0.61750 0.36110 0.79100 -0.08600
F 	F 	0.64200 0.38520 0.89330 -0.10200
O 	O 	0.84190 0.44120 0.93030 -0.64400
O 	O 	0.91200 0.39360 0.87250 -0.66400
N 	N 	0.95600 0.28420 0.52920 0.62500
H 	H 	0.96150 0.24810 0.54680 -0.02200
H 	H 	0.94980 0.28900 0.48290 -0.51300
C 	C 	0.73390 0.30850 0.76670 0.52200
C 	C 	0.71590 0.34270 0.82330 -0.76100
C 	C 	0.75690 0.37410 0.86190 0.65600
H 	H 	0.74440 0.39720 0.90060 -0.07000
C 	C 	0.81510 0.37220 0.84480 -0.51500
C 	C 	0.83430 0.33840 0.78900 0.65400
H 	H 	0.87470 0.33690 0.77730 -0.09300
C 	C 	0.79330 0.30670 0.75010 -0.79500
H 	H 	0.80610 0.28350 0.71170 1.05200
C 	C 	0.65280 0.34590 0.84300 -0.65700
C 	C 	0.85930 0.40480 0.88560 0.70200
C 	C 	0.96420 0.39990 0.47160 0.10400
C 	C 	0.97260 0.38750 0.54800 -0.01900
C 	C 	0.96540 0.33180 0.57460 0.08600
C 	C 	0.97460 0.32140 0.64580 -0.15700
H 	H 	0.97280 0.28300 0.66590 0.17400
C 	C 	0.99090 0.36670 0.68990 0.98100
H 	H 	0.00540 0.45520 0.69200 0.09200
C 	C 	0.98840 0.43320 0.59250 0.08200
H 	H 	0.99010 0.47170 0.57250 0.58800
F 	F 	0.78790 0.28300 0.62950 -0.13700
F 	F 	0.87160 0.27810 0.67730 -0.17900
F 	F 	0.80770 0.21330 0.69950 -0.13000
O 	O 	0.91030 0.47880 0.23650 -0.16600
H 	H 	0.88560 0.45200 0.54530 0.29100
H 	H 	0.85620 0.48710 0.48710 0.06700
H 	H 	0.67560 0.34450 0.83550 0.99700
C 	C 	0.81430 0.27050 0.68970 -0.72100
C 	C 	0.92200 0.43960 0.45010 -0.20700
C 	C 	0.91820 0.45600 0.38020 -0.03100
H 	H 	0.89000 0.48480 0.36620 0.04100
C 	C 	0.95650 0.43240 0.33110 0.02100
H 	H 	0.02810 0.37980 0.32030 -0.94400
H 	H 	0.02820 0.34590 0.43610 0.09700
C 	C 	0.95540 0.45240 0.25570 0.37700
F 	F 	0.36890 0.70370 0.86800 -0.12400
F 	F 	0.38250 0.63890 0.79100 -0.08700
F 	F 	0.35800 0.61480 0.89330 -0.10300
O 	O 	0.15810 0.55880 0.93030 -0.64600
O 	O 	0.08800 0.60640 0.87250 -0.69600
N 	N 	0.04400 0.71580 0.52920 0.62300
H 	H 	0.03850 0.75190 0.54680 -0.05900
H 	H 	0.05020 0.71100 0.48290 -0.51300
C 	C 	0.26610 0.69150 0.76670 0.52400
C 	C 	0.28410 0.65730 0.82330 -0.76300
C 	C 	0.24310 0.62590 0.86190 0.65900
H 	H 	0.25560 0.60280 0.90060 -0.07200
C 	C 	0.18490 0.62780 0.84480 -0.52400
C 	C 	0.16570 0.66160 0.78900 0.65800
H 	H 	0.12530 0.66310 0.77730 -0.10100
C 	C 	0.20670 0.69330 0.75010 -0.79700
H 	H 	0.19390 0.71650 0.71170 1.04800
C 	C 	0.34720 0.65410 0.84300 -0.65500
C 	C 	0.14070 0.59520 0.88560 0.71000
C 	C 	0.03580 0.60010 0.47160 0.00400
C 	C 	0.02740 0.61250 0.54800 -0.00000
C 	C 	0.03460 0.66820 0.57460 -0.00600
C 	C 	0.02540 0.67860 0.64580 -0.42100
H 	H 	0.02720 0.71700 0.66590 0.19800
C 	C 	0.00910 0.63330 0.68990 1.25600
H 	H 	0.99460 0.54480 0.69200 -0.25100
C 	C 	0.01160 0.56680 0.59250 -0.06100
H 	H 	0.00990 0.52830 0.57250 -0.56100
F 	F 	0.21210 0.71700 0.62950 -0.13400
F 	F 	0.12840 0.72190 0.67730 -0.17800
F 	F 	0.19230 0.78670 0.69950 -0.13000
O 	O 	0.08970 0.52120 0.23650 -0.14500
H 	H 	0.11440 0.54800 0.54530 0.19100
H 	H 	0.14380 0.51290 0.48710 0.07000
H 	H 	0.32440 0.65550 0.83550 0.99700
C 	C 	0.18570 0.72950 0.68970 -0.71500
C 	C 	0.07800 0.56040 0.45010 0.01600
C 	C 	0.08180 0.54400 0.38020 0.06900
H 	H 	0.11000 0.51520 0.36620 0.02700
C 	C 	0.04350 0.56760 0.33110 -0.07000
H 	H 	0.97190 0.62020 0.32030 -0.83300
H 	H 	0.97180 0.65410 0.43610 0.05300
C 	C 	0.04460 0.54760 0.25570 0.26400
F 	F 	0.29630 0.36890 0.36800 -0.12300
F 	F 	0.36110 0.38250 0.29100 -0.08700
F 	F 	0.38520 0.35800 0.39330 -0.10200
O 	O 	0.44120 0.15810 0.43030 -0.64700
O 	O 	0.39360 0.08800 0.37250 -0.69700
N 	N 	0.28420 0.04400 0.02920 0.61900
H 	H 	0.24810 0.03850 0.04680 -0.06700
H 	H 	0.28900 0.05020 0.98290 -0.51000
C 	C 	0.30850 0.26610 0.26670 0.52400
C 	C 	0.34270 0.28410 0.32330 -0.76300
C 	C 	0.37410 0.24310 0.36190 0.65900
H 	H 	0.39720 0.25560 0.40060 -0.07200
C 	C 	0.37220 0.18490 0.34480 -0.52500
C 	C 	0.33840 0.16570 0.28900 0.65800
H 	H 	0.33690 0.12530 0.27730 -0.10200
C 	C 	0.30670 0.20670 0.25010 -0.79900
H 	H 	0.28350 0.19390 0.21170 1.04900
C 	C 	0.34590 0.34720 0.34300 -0.65400
C 	C 	0.40480 0.14070 0.38560 0.71000
C 	C 	0.39990 0.03580 0.97160 0.00200
C 	C 	0.38750 0.02740 0.04800 0.00100
C 	C 	0.33180 0.03460 0.07460 -0.00600
C 	C 	0.32140 0.02540 0.14580 -0.42300
H 	H 	0.28300 0.02720 0.16590 0.19400
C 	C 	0.36670 0.00910 0.18990 1.26400
H 	H 	0.45520 0.99460 0.19200 -0.25500
C 	C 	0.43320 0.01160 0.09250 -0.06100
H 	H 	0.47170 0.00990 0.07250 -0.56900
F 	F 	0.28300 0.21210 0.12950 -0.13800
F 	F 	0.27810 0.12840 0.17730 -0.18300
F 	F 	0.21330 0.19230 0.19950 -0.14200
O 	O 	0.47880 0.08970 0.73650 -0.14400
H 	H 	0.45200 0.11440 0.04530 0.19000
H 	H 	0.48710 0.14380 0.98710 0.06900
H 	H 	0.34450 0.32440 0.33550 0.99600
C 	C 	0.27050 0.18570 0.18970 -0.71700
C 	C 	0.43960 0.07800 0.95010 0.01900
C 	C 	0.45600 0.08180 0.88020 0.06700
H 	H 	0.48480 0.11000 0.86620 0.02800
C 	C 	0.43240 0.04350 0.83110 -0.06700
H 	H 	0.37980 0.97190 0.82030 -0.83500
H 	H 	0.34590 0.97180 0.93610 0.05200
C 	C 	0.45240 0.04460 0.75570 0.26200
F 	F 	0.70370 0.63110 0.36800 -0.12300
F 	F 	0.63890 0.61750 0.29100 -0.08700
F 	F 	0.61480 0.64200 0.39330 -0.10200
O 	O 	0.55880 0.84190 0.43030 -0.64300
O 	O 	0.60640 0.91200 0.37250 -0.66100
N 	N 	0.71580 0.95600 0.02920 0.62900
H 	H 	0.75190 0.96150 0.04680 -0.01500
H 	H 	0.71100 0.94980 0.98290 -0.51600
C 	C 	0.69150 0.73390 0.26670 0.52200
C 	C 	0.65730 0.71590 0.32330 -0.76000
C 	C 	0.62590 0.75690 0.36190 0.65500
H 	H 	0.60280 0.74440 0.40060 -0.07000
C 	C 	0.62780 0.81510 0.34480 -0.51400
C 	C 	0.66160 0.83430 0.28900 0.65400
H 	H 	0.66310 0.87470 0.27730 -0.09100
C 	C 	0.69330 0.79330 0.25010 -0.79300
H 	H 	0.71650 0.80610 0.21170 1.05000
C 	C 	0.65410 0.65280 0.34300 -0.65700
C 	C 	0.59520 0.85930 0.38560 0.70200
C 	C 	0.60010 0.96420 0.97160 0.10500
C 	C 	0.61250 0.97260 0.04800 -0.02000
C 	C 	0.66820 0.96540 0.07460 0.08700
C 	C 	0.67860 0.97460 0.14580 -0.15400
H 	H 	0.71700 0.97280 0.16590 0.17800
C 	C 	0.63330 0.99090 0.18990 0.97400
H 	H 	0.54480 0.00540 0.19200 0.09600
C 	C 	0.56680 0.98840 0.09250 0.08400
H 	H 	0.52830 0.99010 0.07250 0.59600
F 	F 	0.71700 0.78790 0.12950 -0.13400
F 	F 	0.72190 0.87160 0.17730 -0.17400
F 	F 	0.78670 0.80770 0.19950 -0.11900
O 	O 	0.52120 0.91030 0.73650 -0.16700
H 	H 	0.54800 0.88560 0.04530 0.29200
H 	H 	0.51290 0.85620 0.98710 0.06600
H 	H 	0.65550 0.67560 0.33550 0.99800
C 	C 	0.72950 0.81430 0.18970 -0.71900
C 	C 	0.56040 0.92200 0.95010 -0.20900
C 	C 	0.54400 0.91820 0.88020 -0.03200
H 	H 	0.51520 0.89000 0.86620 0.04200
C 	C 	0.56760 0.95650 0.83110 0.02400
H 	H 	0.62020 0.02810 0.82030 -0.93900
H 	H 	0.65410 0.02820 0.93610 0.09900
C 	C 	0.54760 0.95540 0.75570 0.37900
F 	F 	0.63110 0.70370 0.86800 -0.12300
F 	F 	0.61750 0.63890 0.79100 -0.08700
F 	F 	0.64200 0.61480 0.89330 -0.10200
O 	O 	0.84190 0.55880 0.93030 -0.64300
O 	O 	0.91200 0.60640 0.87250 -0.66200
N 	N 	0.95600 0.71580 0.52920 0.62900
H 	H 	0.96150 0.75190 0.54680 -0.01500
H 	H 	0.94980 0.71100 0.48290 -0.51600
C 	C 	0.73390 0.69150 0.76670 0.52200
C 	C 	0.71590 0.65730 0.82330 -0.76000
C 	C 	0.75690 0.62590 0.86190 0.65600
H 	H 	0.74440 0.60280 0.90060 -0.07000
C 	C 	0.81510 0.62780 0.84480 -0.51400
C 	C 	0.83430 0.66160 0.78900 0.65400
H 	H 	0.87470 0.66310 0.77730 -0.09100
C 	C 	0.79330 0.69330 0.75010 -0.79300
H 	H 	0.80610 0.71650 0.71170 1.05000
C 	C 	0.65280 0.65410 0.84300 -0.65700
C 	C 	0.85930 0.59520 0.88560 0.70200
C 	C 	0.96420 0.60010 0.47160 0.10500
C 	C 	0.97260 0.61250 0.54800 -0.01900
C 	C 	0.96540 0.66820 0.57460 0.08500
C 	C 	0.97460 0.67860 0.64580 -0.15700
H 	H 	0.97280 0.71700 0.66590 0.17900
C 	C 	0.99090 0.63330 0.68990 0.97700
H 	H 	0.00540 0.54480 0.69200 0.09300
C 	C 	0.98840 0.56680 0.59250 0.08200
H 	H 	0.99010 0.52830 0.57250 0.58800
F 	F 	0.78790 0.71700 0.62950 -0.13300
F 	F 	0.87160 0.72190 0.67730 -0.17400
F 	F 	0.80770 0.78670 0.69950 -0.11900
O 	O 	0.91030 0.52120 0.23650 -0.16600
H 	H 	0.88560 0.54800 0.54530 0.29100
H 	H 	0.85620 0.51290 0.48710 0.06700
H 	H 	0.67560 0.65550 0.83550 0.99800
C 	C 	0.81430 0.72950 0.68970 -0.71900
C 	C 	0.92200 0.56040 0.45010 -0.20800
C 	C 	0.91820 0.54400 0.38020 -0.03000
H 	H 	0.89000 0.51520 0.36620 0.04100
C 	C 	0.95650 0.56760 0.33110 0.02000
H 	H 	0.02810 0.62020 0.32030 -0.94000
H 	H 	0.02820 0.65410 0.43610 0.09800
C 	C 	0.95540 0.54760 0.25570 0.37700
F 	F 	0.36890 0.29630 0.86800 -0.12300
F 	F 	0.38250 0.36110 0.79100 -0.08700
F 	F 	0.35800 0.38520 0.89330 -0.10300
O 	O 	0.15810 0.44120 0.93030 -0.64700
O 	O 	0.08800 0.39360 0.87250 -0.69700
N 	N 	0.04400 0.28420 0.52920 0.61900
H 	H 	0.03850 0.24810 0.54680 -0.06700
H 	H 	0.05020 0.28900 0.48290 -0.51000
C 	C 	0.26610 0.30850 0.76670 0.52400
C 	C 	0.28410 0.34270 0.82330 -0.76300
C 	C 	0.24310 0.37410 0.86190 0.65900
H 	H 	0.25560 0.39720 0.90060 -0.07200
C 	C 	0.18490 0.37220 0.84480 -0.52500
C 	C 	0.16570 0.33840 0.78900 0.65800
H 	H 	0.12530 0.33690 0.77730 -0.10200
C 	C 	0.20670 0.30670 0.75010 -0.79900
H 	H 	0.19390 0.28350 0.71170 1.04900
C 	C 	0.34720 0.34590 0.84300 -0.65400
C 	C 	0.14070 0.40480 0.88560 0.71000
C 	C 	0.03580 0.39990 0.47160 0.00300
C 	C 	0.02740 0.38750 0.54800 0.00000
C 	C 	0.03460 0.33180 0.57460 -0.00600
C 	C 	0.02540 0.32140 0.64580 -0.42100
H 	H 	0.02720 0.28300 0.66590 0.19300
C 	C 	0.00910 0.36670 0.68990 1.26100
H 	H 	0.99460 0.45520 0.69200 -0.25100
C 	C 	0.01160 0.43320 0.59250 -0.06100
H 	H 	0.00990 0.47170 0.57250 -0.56100
F 	F 	0.21210 0.28300 0.62950 -0.13800
F 	F 	0.12840 0.27810 0.67730 -0.18400
F 	F 	0.19230 0.21330 0.69950 -0.14200
O 	O 	0.08970 0.47880 0.23650 -0.14500
H 	H 	0.11440 0.45200 0.54530 0.19100
H 	H 	0.14380 0.48710 0.48710 0.07000
H 	H 	0.32440 0.34450 0.83550 0.99600
C 	C 	0.18570 0.27050 0.68970 -0.71700
C 	C 	0.07800 0.43960 0.45010 0.01700
C 	C 	0.08180 0.45600 0.38020 0.06800
H 	H 	0.11000 0.48480 0.36620 0.02800
C 	C 	0.04350 0.43240 0.33110 -0.06900
H 	H 	0.97190 0.37980 0.32030 -0.83800
H 	H 	0.97180 0.34590 0.43610 0.05200
C 	C 	0.04460 0.45240 0.25570 0.26300
F 	F 	0.29630 0.63110 0.36800 -0.12200
F 	F 	0.36110 0.61750 0.29100 -0.08600
F 	F 	0.38520 0.64200 0.39330 -0.10200
O 	O 	0.44120 0.84190 0.43030 -0.64300
O 	O 	0.39360 0.91200 0.37250 -0.66300
N 	N 	0.28420 0.95600 0.02920 0.62500
H 	H 	0.24810 0.96150 0.04680 -0.02200
H 	H 	0.28900 0.94980 0.98290 -0.51300
C 	C 	0.30850 0.73390 0.26670 0.52200
C 	C 	0.34270 0.71590 0.32330 -0.76000
C 	C 	0.37410 0.75690 0.36190 0.65500
H 	H 	0.39720 0.74440 0.40060 -0.07000
C 	C 	0.37220 0.81510 0.34480 -0.51500
C 	C 	0.33840 0.83430 0.28900 0.65400
H 	H 	0.33690 0.87470 0.27730 -0.09200
C 	C 	0.30670 0.79330 0.25010 -0.79500
H 	H 	0.28350 0.80610 0.21170 1.05200
C 	C 	0.34590 0.65280 0.34300 -0.65700
C 	C 	0.40480 0.85930 0.38560 0.70100
C 	C 	0.39990 0.96420 0.97160 0.10500
C 	C 	0.38750 0.97260 0.04800 -0.01900
C 	C 	0.33180 0.96540 0.07460 0.08700
C 	C 	0.32140 0.97460 0.14580 -0.15500
H 	H 	0.28300 0.97280 0.16590 0.17400
C 	C 	0.36670 0.99090 0.18990 0.97800
H 	H 	0.45520 0.00540 0.19200 0.09600
C 	C 	0.43320 0.98840 0.09250 0.08400
H 	H 	0.47170 0.99010 0.07250 0.59600
F 	F 	0.28300 0.78790 0.12950 -0.13700
F 	F 	0.27810 0.87160 0.17730 -0.17900
F 	F 	0.21330 0.80770 0.19950 -0.13000
O 	O 	0.47880 0.91030 0.73650 -0.16700
H 	H 	0.45200 0.88560 0.04530 0.29200
H 	H 	0.48710 0.85620 0.98710 0.06600
H 	H 	0.34450 0.67560 0.33550 0.99700
C 	C 	0.27050 0.81430 0.18970 -0.72100
C 	C 	0.43960 0.92200 0.95010 -0.20800
C 	C 	0.45600 0.91820 0.88020 -0.03300
H 	H 	0.48480 0.89000 0.86620 0.04200
C 	C 	0.43240 0.95650 0.83110 0.02400
H 	H 	0.37980 0.02810 0.82030 -0.94400
H 	H 	0.34590 0.02820 0.93610 0.09800
C 	C 	0.45240 0.95540 0.75570 0.37900
F 	F 	0.70370 0.36890 0.36800 -0.12400
F 	F 	0.63890 0.38250 0.29100 -0.08700
F 	F 	0.61480 0.35800 0.39330 -0.10300
O 	O 	0.55880 0.15810 0.43030 -0.64600
O 	O 	0.60640 0.08800 0.37250 -0.69600
N 	N 	0.71580 0.04400 0.02920 0.62300
H 	H 	0.75190 0.03850 0.04680 -0.06000
H 	H 	0.71100 0.05020 0.98290 -0.51300
C 	C 	0.69150 0.26610 0.26670 0.52400
C 	C 	0.65730 0.28410 0.32330 -0.76300
C 	C 	0.62590 0.24310 0.36190 0.65900
H 	H 	0.60280 0.25560 0.40060 -0.07200
C 	C 	0.62780 0.18490 0.34480 -0.52400
C 	C 	0.66160 0.16570 0.28900 0.65800
H 	H 	0.66310 0.12530 0.27730 -0.10100
C 	C 	0.69330 0.20670 0.25010 -0.79700
H 	H 	0.71650 0.19390 0.21170 1.04800
C 	C 	0.65410 0.34720 0.34300 -0.65500
C 	C 	0.59520 0.14070 0.38560 0.71100
C 	C 	0.60010 0.03580 0.97160 0.00300
C 	C 	0.61250 0.02740 0.04800 0.00000
C 	C 	0.66820 0.03460 0.07460 -0.00700
C 	C 	0.67860 0.02540 0.14580 -0.42300
H 	H 	0.71700 0.02720 0.16590 0.19800
C 	C 	0.63330 0.00910 0.18990 1.26000
H 	H 	0.54480 0.99460 0.19200 -0.25500
C 	C 	0.56680 0.01160 0.09250 -0.06000
H 	H 	0.52830 0.00990 0.07250 -0.56900
F 	F 	0.71700 0.21210 0.12950 -0.13400
F 	F 	0.72190 0.12840 0.17730 -0.17900
F 	F 	0.78670 0.19230 0.19950 -0.13000
O 	O 	0.52120 0.08970 0.73650 -0.14500
H 	H 	0.54800 0.11440 0.04530 0.19100
H 	H 	0.51290 0.14380 0.98710 0.06900
H 	H 	0.65550 0.32440 0.33550 0.99700
C 	C 	0.72950 0.18570 0.18970 -0.71500
C 	C 	0.56040 0.07800 0.95010 0.01800
C 	C 	0.54400 0.08180 0.88020 0.06800
H 	H 	0.51520 0.11000 0.86620 0.02700
C 	C 	0.56760 0.04350 0.83110 -0.06800
H 	H 	0.62020 0.97190 0.82030 -0.83000
H 	H 	0.65410 0.97180 0.93610 0.05300
C 	C 	0.54760 0.04460 0.75570 0.26300
F 	F 	0.36890 0.70370 0.13200 -0.12400
F 	F 	0.38250 0.63890 0.20900 -0.08700
F 	F 	0.35800 0.61480 0.10670 -0.10200
O 	O 	0.15810 0.55880 0.06970 -0.64600
O 	O 	0.08800 0.60640 0.12750 -0.69500
N 	N 	0.04400 0.71580 0.47080 0.62300
H 	H 	0.03850 0.75190 0.45320 -0.05900
H 	H 	0.05020 0.71100 0.51710 -0.51300
C 	C 	0.26610 0.69150 0.23330 0.52400
C 	C 	0.28410 0.65730 0.17670 -0.76300
C 	C 	0.24310 0.62590 0.13810 0.65900
H 	H 	0.25560 0.60280 0.09940 -0.07100
C 	C 	0.18490 0.62780 0.15520 -0.52400
C 	C 	0.16570 0.66160 0.21100 0.65800
H 	H 	0.12530 0.66310 0.22270 -0.10100
C 	C 	0.20670 0.69330 0.24990 -0.79700
H 	H 	0.19390 0.71650 0.28830 1.04800
C 	C 	0.34720 0.65410 0.15700 -0.65500
C 	C 	0.14070 0.59520 0.11440 0.71000
C 	C 	0.03580 0.60010 0.52840 0.00400
C 	C 	0.02740 0.61250 0.45200 0.00000
C 	C 	0.03460 0.66820 0.42540 -0.00600
C 	C 	0.02540 0.67860 0.35420 -0.42000
H 	H 	0.02720 0.71700 0.33410 0.19800
C 	C 	0.00910 0.63330 0.31010 1.25600
H 	H 	0.99460 0.54480 0.30800 -0.25100
C 	C 	0.01160 0.56680 0.40750 -0.06100
H 	H 	0.00990 0.52830 0.42750 -0.56100
F 	F 	0.21210 0.71700 0.37050 -0.13400
F 	F 	0.12840 0.72190 0.32270 -0.17800
F 	F 	0.19230 0.78670 0.30050 -0.13000
O 	O 	0.08970 0.52120 0.76350 -0.14500
H 	H 	0.11440 0.54800 0.45470 0.19100
H 	H 	0.14380 0.51290 0.51290 0.07000
H 	H 	0.32440 0.65550 0.16450 0.99700
C 	C 	0.18570 0.72950 0.31030 -0.71500
C 	C 	0.07800 0.56040 0.54990 0.01600
C 	C 	0.08180 0.54400 0.61980 0.06900
H 	H 	0.11000 0.51520 0.63380 0.02700
C 	C 	0.04350 0.56760 0.66890 -0.07000
H 	H 	0.97190 0.62020 0.67970 -0.83300
H 	H 	0.97180 0.65410 0.56390 0.05300
C 	C 	0.04460 0.54760 0.74430 0.26400
F 	F 	0.63110 0.29630 0.13200 -0.12200
F 	F 	0.61750 0.36110 0.20900 -0.08600
F 	F 	0.64200 0.38520 0.10670 -0.10200
O 	O 	0.84190 0.44120 0.06970 -0.64400
O 	O 	0.91200 0.39360 0.12750 -0.66400
N 	N 	0.95600 0.28420 0.47080 0.62500
H 	H 	0.96150 0.24810 0.45320 -0.02200
H 	H 	0.94980 0.28900 0.51710 -0.51300
C 	C 	0.73390 0.30850 0.23330 0.52200
C 	C 	0.71590 0.34270 0.17670 -0.76000
C 	C 	0.75690 0.37410 0.13810 0.65600
H 	H 	0.74440 0.39720 0.09940 -0.07000
C 	C 	0.81510 0.37220 0.15520 -0.51500
C 	C 	0.83430 0.33840 0.21100 0.65400
H 	H 	0.87470 0.33690 0.22270 -0.09300
C 	C 	0.79330 0.30670 0.24990 -0.79500
H 	H 	0.80610 0.28350 0.28830 1.05200
C 	C 	0.65280 0.34590 0.15700 -0.65700
C 	C 	0.85930 0.40480 0.11440 0.70200
C 	C 	0.96420 0.39990 0.52840 0.10400
C 	C 	0.97260 0.38750 0.45200 -0.01900
C 	C 	0.96540 0.33180 0.42540 0.08600
C 	C 	0.97460 0.32140 0.35420 -0.15800
H 	H 	0.97280 0.28300 0.33410 0.17400
C 	C 	0.99090 0.36670 0.31010 0.98100
H 	H 	0.00540 0.45520 0.30800 0.09200
C 	C 	0.98840 0.43320 0.40750 0.08200
H 	H 	0.99010 0.47170 0.42750 0.58800
F 	F 	0.78790 0.28300 0.37050 -0.13700
F 	F 	0.87160 0.27810 0.32270 -0.17900
F 	F 	0.80770 0.21330 0.30050 -0.13000
O 	O 	0.91030 0.47880 0.76350 -0.16600
H 	H 	0.88560 0.45200 0.45470 0.29100
H 	H 	0.85620 0.48710 0.51290 0.06700
H 	H 	0.67560 0.34450 0.16450 0.99700
C 	C 	0.81430 0.27050 0.31030 -0.72100
C 	C 	0.92200 0.43960 0.54990 -0.20700
C 	C 	0.91820 0.45600 0.61980 -0.03100
H 	H 	0.89000 0.48480 0.63380 0.04200
C 	C 	0.95650 0.43240 0.66890 0.02100
H 	H 	0.02810 0.37980 0.67970 -0.94400
H 	H 	0.02820 0.34590 0.56390 0.09700
C 	C 	0.95540 0.45240 0.74430 0.37700
F 	F 	0.70370 0.63110 0.63200 -0.12300
F 	F 	0.63890 0.61750 0.70900 -0.08700
F 	F 	0.61480 0.64200 0.60670 -0.10200
O 	O 	0.55880 0.84190 0.56970 -0.64300
O 	O 	0.60640 0.91200 0.62750 -0.66100
N 	N 	0.71580 0.95600 0.97080 0.62800
H 	H 	0.75190 0.96150 0.95320 -0.01500
H 	H 	0.71100 0.94980 0.01710 -0.51600
C 	C 	0.69150 0.73390 0.73330 0.52200
C 	C 	0.65730 0.71590 0.67670 -0.76000
C 	C 	0.62590 0.75690 0.63810 0.65500
H 	H 	0.60280 0.74440 0.59940 -0.07000
C 	C 	0.62780 0.81510 0.65520 -0.51400
C 	C 	0.66160 0.83430 0.71100 0.65400
H 	H 	0.66310 0.87470 0.72270 -0.09100
C 	C 	0.69330 0.79330 0.74990 -0.79300
H 	H 	0.71650 0.80610 0.78830 1.05000
C 	C 	0.65410 0.65280 0.65700 -0.65700
C 	C 	0.59520 0.85930 0.61440 0.70200
C 	C 	0.60010 0.96420 0.02840 0.10700
C 	C 	0.61250 0.97260 0.95200 -0.02100
C 	C 	0.66820 0.96540 0.92540 0.08600
C 	C 	0.67860 0.97460 0.85420 -0.15500
H 	H 	0.71700 0.97280 0.83410 0.17800
C 	C 	0.63330 0.99090 0.81010 0.97400
H 	H 	0.54480 0.00540 0.80800 0.09600
C 	C 	0.56680 0.98840 0.90750 0.08400
H 	H 	0.52830 0.99010 0.92750 0.59500
F 	F 	0.71700 0.78790 0.87050 -0.13400
F 	F 	0.72190 0.87160 0.82270 -0.17400
F 	F 	0.78670 0.80770 0.80050 -0.11900
O 	O 	0.52120 0.91030 0.26350 -0.16700
H 	H 	0.54800 0.88560 0.95470 0.29200
H 	H 	0.51290 0.85620 0.01290 0.06800
H 	H 	0.65550 0.67560 0.66450 0.99800
C 	C 	0.72950 0.81430 0.81030 -0.71900
C 	C 	0.56040 0.92200 0.04990 -0.21000
C 	C 	0.54400 0.91820 0.11980 -0.03100
H 	H 	0.51520 0.89000 0.13380 0.04100
C 	C 	0.56760 0.95650 0.16890 0.02200
H 	H 	0.62020 0.02810 0.17970 -0.93900
H 	H 	0.65410 0.02820 0.06390 0.09900
C 	C 	0.54760 0.95540 0.24430 0.38000
F 	F 	0.29630 0.36890 0.63200 -0.12300
F 	F 	0.36110 0.38250 0.70900 -0.08700
F 	F 	0.38520 0.35800 0.60670 -0.10200
O 	O 	0.44120 0.15810 0.56970 -0.64700
O 	O 	0.39360 0.08800 0.62750 -0.69700
N 	N 	0.28420 0.04400 0.97080 0.61900
H 	H 	0.24810 0.03850 0.95320 -0.06700
H 	H 	0.28900 0.05020 0.01710 -0.51000
C 	C 	0.30850 0.26610 0.73330 0.52400
C 	C 	0.34270 0.28410 0.67670 -0.76300
C 	C 	0.37410 0.24310 0.63810 0.65900
H 	H 	0.39720 0.25560 0.59940 -0.07200
C 	C 	0.37220 0.18490 0.65520 -0.52500
C 	C 	0.33840 0.16570 0.71100 0.65800
H 	H 	0.33690 0.12530 0.72270 -0.10200
C 	C 	0.30670 0.20670 0.74990 -0.79900
H 	H 	0.28350 0.19390 0.78830 1.04900
C 	C 	0.34590 0.34720 0.65700 -0.65400
C 	C 	0.40480 0.14070 0.61440 0.71000
C 	C 	0.39990 0.03580 0.02840 0.00400
C 	C 	0.38750 0.02740 0.95200 -0.00000
C 	C 	0.33180 0.03460 0.92540 -0.00700
C 	C 	0.32140 0.02540 0.85420 -0.42300
H 	H 	0.28300 0.02720 0.83410 0.19400
C 	C 	0.36670 0.00910 0.81010 1.26400
H 	H 	0.45520 0.99460 0.80800 -0.25500
C 	C 	0.43320 0.01160 0.90750 -0.06000
H 	H 	0.47170 0.00990 0.92750 -0.56900
F 	F 	0.28300 0.21210 0.87050 -0.13800
F 	F 	0.27810 0.12840 0.82270 -0.18400
F 	F 	0.21330 0.19230 0.80050 -0.14200
O 	O 	0.47880 0.08970 0.26350 -0.14400
H 	H 	0.45200 0.11440 0.95470 0.19000
H 	H 	0.48710 0.14380 0.01290 0.07000
H 	H 	0.34450 0.32440 0.66450 0.99600
C 	C 	0.27050 0.18570 0.81030 -0.71700
C 	C 	0.43960 0.07800 0.04990 0.01800
C 	C 	0.45600 0.08180 0.11980 0.06800
H 	H 	0.48480 0.11000 0.13380 0.02800
C 	C 	0.43240 0.04350 0.16890 -0.06900
H 	H 	0.37980 0.97190 0.17970 -0.83500
H 	H 	0.34590 0.97180 0.06390 0.05200
C 	C 	0.45240 0.04460 0.24430 0.26300
Zr	Zr	0.10741 0.50000 -0.00000 3.21000
Zr	Zr	0.89259 0.50000 -0.00000 3.21000
Zr	Zr	0.50000 0.10741 0.50000 3.21000
Zr	Zr	0.50000 0.89259 0.50000 3.21000
Zr	Zr	0.00000 0.42335 0.09233 3.19300
O 	O 	0.00000 0.40200 0.19690 -0.30400
O 	O 	-0.00000 0.30580 0.20710 -0.09200
C 	C 	0.00000 0.42230 0.33760 0.56100
C 	C 	-0.00000 0.35600 0.23280 -0.34300
C 	C 	0.00000 0.39410 0.64650 -0.41000
C 	C 	0.00000 0.37470 0.57790 -0.06900
O 	O 	0.00000 0.44100 0.78180 -0.44200
Zr	Zr	-0.00000 0.57665 0.09233 3.19300
O 	O 	0.00000 0.59800 0.19690 -0.30400
O 	O 	0.00000 0.69420 0.20710 -0.08500
C 	C 	0.00000 0.57770 0.33760 0.55900
C 	C 	0.00000 0.64400 0.23280 -0.34200
C 	C 	0.00000 0.60590 0.64650 -0.40900
C 	C 	0.00000 0.62530 0.57790 -0.07100
O 	O 	-0.00000 0.55900 0.78180 -0.44300
Zr	Zr	0.57665 0.00000 0.59233 3.19200
O 	O 	0.59800 -0.00000 0.69690 -0.30300
O 	O 	0.69420 0.00000 0.70710 -0.08500
C 	C 	0.57770 0.00000 0.83760 0.55700
C 	C 	0.64400 0.00000 0.73280 -0.34400
C 	C 	0.60590 0.00000 0.14650 -0.41400
C 	C 	0.62530 -0.00000 0.07790 -0.07300
O 	O 	0.55900 0.00000 0.28180 -0.44500
Zr	Zr	0.42335 0.00000 0.59233 3.19200
O 	O 	0.40200 -0.00000 0.69690 -0.30400
O 	O 	0.30580 0.00000 0.70710 -0.09300
C 	C 	0.42230 0.00000 0.83760 0.55900
C 	C 	0.35600 0.00000 0.73280 -0.34500
C 	C 	0.39410 0.00000 0.14650 -0.41500
C 	C 	0.37470 -0.00000 0.07790 -0.07100
O 	O 	0.44100 0.00000 0.28180 -0.44500
Zr	Zr	0.00000 0.42335 0.90767 3.19300
O 	O 	0.00000 0.40200 0.80310 -0.30400
O 	O 	0.00000 0.30580 0.79290 -0.09200
C 	C 	0.00000 0.42230 0.66240 0.56100
C 	C 	0.00000 0.35600 0.76720 -0.34300
C 	C 	0.00000 0.39410 0.35350 -0.41000
C 	C 	0.00000 0.37470 0.42210 -0.06900
O 	O 	0.00000 0.44100 0.21820 -0.44200
Zr	Zr	-0.00000 0.57665 0.90767 3.19300
O 	O 	0.00000 0.59800 0.80310 -0.30400
O 	O 	-0.00000 0.69420 0.79290 -0.08500
C 	C 	0.00000 0.57770 0.66240 0.55900
C 	C 	-0.00000 0.64400 0.76720 -0.34200
C 	C 	0.00000 0.60590 0.35350 -0.40900
C 	C 	0.00000 0.62530 0.42210 -0.07100
O 	O 	0.00000 0.55900 0.21820 -0.44300
Zr	Zr	0.42335 0.00000 0.40767 3.19200
O 	O 	0.40200 0.00000 0.30310 -0.30400
O 	O 	0.30580 0.00000 0.29290 -0.09300
C 	C 	0.42230 0.00000 0.16240 0.56100
C 	C 	0.35600 0.00000 0.26720 -0.34500
C 	C 	0.39410 -0.00000 0.85350 -0.41600
C 	C 	0.37470 0.00000 0.92210 -0.06700
O 	O 	0.44100 0.00000 0.71820 -0.44400
Zr	Zr	0.57665 0.00000 0.40767 3.19200
O 	O 	0.59800 0.00000 0.30310 -0.30300
O 	O 	0.69420 0.00000 0.29290 -0.08500
C 	C 	0.57770 0.00000 0.16240 0.55900
C 	C 	0.64400 0.00000 0.26720 -0.34400
C 	C 	0.60590 -0.00000 0.85350 -0.41500
C 	C 	0.62530 0.00000 0.92210 -0.06900
O 	O 	0.55900 0.00000 0.71820 -0.44500
O 	O 	0.05430 0.58080 -0.00000 -1.28400
O 	O 	0.94570 0.41920 -0.00000 -1.22900
O 	O 	0.41920 0.05430 0.50000 -1.28700
O 	O 	0.58080 0.94570 0.50000 -1.22600
O 	O 	0.94570 0.58080 -0.00000 -1.22800
O 	O 	0.05430 0.41920 -0.00000 -1.28500
O 	O 	0.58080 0.05430 0.50000 -1.28500
O 	O 	0.41920 0.94570 0.50000 -1.22800
O 	O 	0.05290 0.50000 0.09130 -1.30800
O 	O 	0.94710 0.50000 0.09130 -1.25500
O 	O 	0.50000 0.05290 0.59130 -1.30900
O 	O 	0.50000 0.94710 0.59130 -1.25400
O 	O 	0.94710 0.50000 0.90870 -1.25500
O 	O 	0.05290 0.50000 0.90870 -1.30800
O 	O 	0.50000 0.05290 0.40870 -1.30900
O 	O 	0.50000 0.94710 0.40870 -1.25400
N 	N 	0.11700 0.46300 0.50000 -0.33800
N 	N 	0.88300 0.53700 0.50000 -0.38200
N 	N 	0.53700 0.11700 -0.00000 -0.33700
N 	N 	0.46300 0.88300 -0.00000 -0.38200
N 	N 	0.88300 0.46300 0.50000 -0.38200
N 	N 	0.11700 0.53700 0.50000 -0.33800
N 	N 	0.46300 0.11700 -0.00000 -0.33700
N 	N 	0.53700 0.88300 -0.00000 -0.38200
