data_crystal

_cell_length_a 27.24900
_cell_length_b 27.42000
_cell_length_c 25.18900
_cell_angle_alpha 90.00000
_cell_angle_beta  90.00000
_cell_angle_gamma 90.00000

_symmetry_space_group_name_	'P 1'
_symmetry_space_group_name_H-M	'P 1'

loop_
_symmetry_equiv_pos_as_xyz
  x,y,z

loop_
_atom_site_label
_atom_site_type_symbol
_atom_site_fract_x
_atom_site_fract_y
_atom_site_fract_z
_atom_site_charge
W 	W 	0.19158 0.81996 0.62329 1.33500
W 	W 	0.03685 0.88659 0.46567 1.30600
W 	W 	0.20742 0.76221 0.39150 1.34200
W 	W 	0.14602 0.93021 0.41937 1.03100
W 	W 	0.25612 0.75590 0.51486 1.01900
W 	W 	0.08919 0.71518 0.43969 1.02300
W 	W 	0.13756 0.70927 0.56367 1.00900
W 	W 	0.03234 0.77242 0.54265 1.00300
W 	W 	0.26024 0.86309 0.44661 1.01700
W 	W 	0.08614 0.88282 0.60168 1.02400
W 	W 	0.19633 0.92645 0.55583 1.00700
W 	W 	0.09440 0.82986 0.36378 1.03700
Co	Co	0.90150 0.91062 0.47069 1.09100
Co	Co	0.25113 0.71621 0.25760 1.15900
P 	P 	0.14452 0.82089 0.49435 0.58400
O 	O 	0.15270 0.84850 0.54650 -0.40700
O 	O 	0.98040 0.91390 0.46400 -0.54400
O 	O 	0.22590 0.73260 0.33530 -0.54900
O 	O 	0.19460 0.80650 0.47090 -0.40500
O 	O 	0.12420 0.89340 0.36080 -0.44600
O 	O 	0.15610 0.72260 0.41540 -0.47800
O 	O 	0.24240 0.89610 0.51040 -0.45700
O 	O 	0.05920 0.90200 0.53510 -0.47800
O 	O 	0.13540 0.93240 0.59390 -0.44800
O 	O 	0.11700 0.85370 0.45480 -0.40400
O 	O 	0.05580 0.82150 0.58920 -0.45800
O 	O 	0.06960 0.72450 0.57930 -0.45500
O 	O 	0.11510 0.68010 0.49970 -0.45100
O 	O 	0.25230 0.81650 0.39090 -0.46900
O 	O 	0.16170 0.94340 0.49290 -0.45600
O 	O 	0.15580 0.76190 0.60950 -0.47700
O 	O 	0.23880 0.79510 0.57480 -0.47400
O 	O 	0.24990 0.73380 0.44350 -0.47100
O 	O 	0.02190 0.82440 0.49280 -0.48900
O 	O 	0.21720 0.88390 0.61240 -0.46100
O 	O 	0.03870 0.85960 0.39580 -0.47500
O 	O 	0.15870 0.80360 0.36360 -0.48700
O 	O 	0.28950 0.81240 0.48700 -0.45300
O 	O 	0.20110 0.71720 0.53320 -0.45600
O 	O 	0.03270 0.72910 0.48150 -0.45000
O 	O 	0.07790 0.93810 0.43910 -0.46000
O 	O 	0.07640 0.77010 0.39690 -0.46300
O 	O 	0.11410 0.77490 0.50530 -0.39000
O 	O 	0.21890 0.80610 0.68230 -0.54200
O 	O 	0.13260 0.84970 0.64720 -0.46400
O 	O 	0.20760 0.89980 0.41580 -0.45900
N 	N 	0.54990 0.99610 0.71840 -0.29200
N 	N 	0.75190 0.92450 0.51530 -0.14600
N 	N 	0.32280 0.73300 0.28460 -0.22700
N 	N 	0.61220 0.96090 0.67650 -0.14900
N 	N 	0.40330 0.73750 0.28610 -0.14400
N 	N 	0.91200 0.05720 0.80620 -0.14000
N 	N 	0.82420 0.91540 0.47830 -0.26500
N 	N 	0.22570 0.06490 0.28190 -0.14100
N 	N 	0.24470 0.78890 0.22860 -0.23400
N 	N 	0.23980 0.86820 0.22170 -0.14200
N 	N 	0.18030 0.70280 0.22800 -0.24000
N 	N 	0.92850 0.92610 0.63650 -0.14300
N 	N 	0.09930 0.69950 0.22250 -0.15600
N 	N 	0.90150 0.08580 0.88690 -0.25000
N 	N 	0.23710 0.14430 0.28280 -0.22700
N 	N 	0.91640 0.90530 0.55220 -0.25500
C 	C 	0.58050 0.99630 0.68090 0.12400
H 	H 	0.58050 0.02160 0.65640 -0.06000
C 	C 	0.60600 0.93100 0.71600 -0.00000
H 	H 	0.62060 0.90110 0.72410 0.02900
C 	C 	0.56640 0.95920 0.74700 -0.00500
H 	H 	0.55550 0.95140 0.78050 -0.00700
C 	C 	0.16930 0.70170 0.17790 0.01700
H 	H 	0.19180 0.70230 0.15010 0.01500
C 	C 	0.11740 0.69920 0.17190 -0.01200
H 	H 	0.09960 0.69770 0.14040 0.01900
C 	C 	0.03400 0.71050 0.28470 -0.16100
H 	H 	0.05670 0.72260 0.30900 0.06500
C 	C 	0.01490 0.70320 0.19960 -0.17600
H 	H 	0.02320 0.70070 0.16390 0.07600
C 	C 	0.26480 0.80400 0.18190 0.00100
H 	H 	0.27860 0.78310 0.15700 0.00900
C 	C 	0.64710 0.95150 0.63190 0.06100
C 	C 	0.65700 0.90560 0.61750 -0.05800
H 	H 	0.64030 0.87990 0.63350 0.04100
C 	C 	0.69290 0.89590 0.57750 -0.10000
H 	H 	0.70100 0.86420 0.56810 0.08200
C 	C 	0.26230 0.85320 0.17600 -0.01500
H 	H 	0.27320 0.87210 0.14770 0.01300
C 	C 	0.74520 0.89700 0.46900 -0.01000
H 	H 	0.71590 0.88530 0.45510 0.01600
C 	C 	0.38760 0.75970 0.33030 -0.00400
H 	H 	0.40680 0.77400 0.35660 0.00600
C 	C 	0.89570 0.12330 0.85090 -0.00700
H 	H 	0.88800 0.15540 0.85930 0.00500
C 	C 	0.67140 0.99100 0.60880 -0.06300
H 	H 	0.66540 0.02270 0.62020 0.03200
C 	C 	0.46190 0.73220 0.21370 -0.10000
H 	H 	0.43640 0.73180 0.18920 0.07100
C 	C 	0.22610 0.95400 0.19770 -0.07100
H 	H 	0.22310 0.94550 0.16210 0.04600
C 	C 	0.70400 0.98190 0.56890 -0.09600
H 	H 	0.71910 0.00780 0.55160 0.04000
C 	C 	0.92460 0.87660 0.63440 -0.00500
H 	H 	0.92660 0.85570 0.66340 0.03200
C 	C 	0.91760 0.86280 0.58420 -0.00900
H 	H 	0.91400 0.83090 0.57230 -0.00700
C 	C 	0.23300 0.97990 0.30320 -0.08200
H 	H 	0.23380 0.98890 0.33880 0.04900
C 	C 	0.33810 0.75730 0.32880 -0.00100
H 	H 	0.31740 0.77030 0.35450 0.02900
C 	C 	0.94340 0.03740 0.71850 -0.05900
H 	H 	0.95670 0.06850 0.71560 0.05300
C 	C 	0.79180 0.89100 0.44840 -0.01000
H 	H 	0.79950 0.87280 0.41840 -0.00300
C 	C 	0.20640 0.08160 0.32860 0.01000
H 	H 	0.19140 0.06300 0.35490 0.02100
C 	C 	0.92000 0.02340 0.76430 0.07700
C 	C 	0.45260 0.73310 0.26660 0.07600
C 	C 	0.13900 0.70380 0.25360 0.10800
H 	H 	0.13710 0.70720 0.29030 -0.02600
C 	C 	0.80010 0.93510 0.51770 0.09400
H 	H 	0.81450 0.95410 0.54400 -0.03900
C 	C 	0.48920 0.73210 0.30270 -0.07500
H 	H 	0.48180 0.73120 0.33870 0.03700
C 	C 	0.24310 0.10400 0.25610 0.11000
H 	H 	0.25780 0.10260 0.22280 -0.00900
C 	C 	0.22280 0.00220 0.21360 -0.09000
H 	H 	0.21680 0.02640 0.18860 0.05800
C 	C 	0.90210 0.97520 0.76990 -0.06400
H 	H 	0.88760 0.96520 0.80140 0.05100
C 	C 	0.23650 0.93100 0.28890 -0.08100
H 	H 	0.24050 0.90720 0.31480 0.06000
C 	C 	0.92850 0.95830 0.68080 0.08800
C 	C 	0.92340 0.94100 0.58450 0.09300
H 	H 	0.92490 0.97340 0.57380 -0.02200
C 	C 	0.90340 0.10520 0.80070 0.01700
H 	H 	0.90270 0.12280 0.76920 0.01300
C 	C 	0.23130 0.82930 0.25150 0.10400
H 	H 	0.21730 0.83070 0.28520 -0.00500
C 	C 	0.22830 0.01410 0.26490 0.09200
C 	C 	0.36290 0.72120 0.26040 0.09500
H 	H 	0.36390 0.70360 0.22890 -0.00100
C 	C 	0.23410 0.91810 0.23670 0.07900
C 	C 	0.04800 0.70020 0.23570 0.14700
C 	C 	0.21350 0.13050 0.32900 0.00200
H 	H 	0.20400 0.15150 0.35610 0.02800
C 	C 	0.94730 0.00430 0.67610 -0.09400
H 	H 	0.96270 0.01370 0.64480 0.07100
C 	C 	0.90990 0.04690 0.85890 0.10500
H 	H 	0.91400 0.01590 0.87320 -0.02600
C 	C 	0.71470 0.93480 0.55390 0.09100
C 	C 	0.90650 0.94330 0.72770 -0.08900
H 	H 	0.89480 0.91160 0.73080 0.06600
W 	W 	0.30842 0.68004 0.12329 1.33400
W 	W 	0.46315 0.61341 0.96567 1.31900
W 	W 	0.29258 0.73779 0.89150 1.34100
W 	W 	0.35398 0.56979 0.91937 1.03100
W 	W 	0.24388 0.74410 0.01486 1.01500
W 	W 	0.41081 0.78482 0.93969 1.02500
W 	W 	0.36244 0.79073 0.06367 1.00900
W 	W 	0.46766 0.72758 0.04265 1.00700
W 	W 	0.23976 0.63691 0.94661 1.01600
W 	W 	0.41386 0.61718 0.10168 1.02700
W 	W 	0.30367 0.57355 0.05583 1.00600
W 	W 	0.40560 0.67014 0.86378 1.04000
Co	Co	0.59850 0.58938 0.97069 1.09100
Co	Co	0.24887 0.78379 0.75760 1.15900
P 	P 	0.35548 0.67911 0.99435 0.58500
O 	O 	0.34730 0.65150 0.04650 -0.40800
O 	O 	0.51960 0.58610 0.96400 -0.55500
O 	O 	0.27410 0.76740 0.83530 -0.54900
O 	O 	0.30540 0.69350 0.97090 -0.40400
O 	O 	0.37580 0.60660 0.86080 -0.44700
O 	O 	0.34390 0.77740 0.91540 -0.47800
O 	O 	0.25760 0.60390 0.01040 -0.45800
O 	O 	0.44080 0.59800 0.03510 -0.47800
O 	O 	0.36460 0.56760 0.09390 -0.44800
O 	O 	0.38300 0.64630 0.95480 -0.40500
O 	O 	0.44420 0.67850 0.08920 -0.45700
O 	O 	0.43040 0.77550 0.07930 -0.45400
O 	O 	0.38490 0.81990 0.99970 -0.45000
O 	O 	0.24770 0.68350 0.89090 -0.46900
O 	O 	0.33830 0.55660 0.99290 -0.45500
O 	O 	0.34420 0.73810 0.10950 -0.47600
O 	O 	0.26120 0.70490 0.07480 -0.47400
O 	O 	0.25010 0.76620 0.94350 -0.47100
O 	O 	0.47810 0.67560 0.99280 -0.48800
O 	O 	0.28280 0.61610 0.11240 -0.46200
O 	O 	0.46130 0.64040 0.89580 -0.47300
O 	O 	0.34130 0.69640 0.86360 -0.48700
O 	O 	0.21050 0.68760 0.98700 -0.45300
O 	O 	0.29890 0.78280 0.03320 -0.45600
O 	O 	0.46730 0.77090 0.98150 -0.44800
O 	O 	0.42210 0.56190 0.93910 -0.46000
O 	O 	0.42360 0.72990 0.89690 -0.46200
O 	O 	0.38590 0.72510 0.00530 -0.39100
O 	O 	0.28110 0.69390 0.18230 -0.54200
O 	O 	0.36740 0.65030 0.14720 -0.46400
O 	O 	0.29240 0.60020 0.91580 -0.45900
N 	N 	0.95010 0.50390 0.21840 -0.28800
N 	N 	0.74810 0.57550 0.01530 -0.14500
N 	N 	0.17720 0.76700 0.78460 -0.22700
N 	N 	0.88780 0.53910 0.17650 -0.14900
N 	N 	0.09670 0.76250 0.78610 -0.15000
N 	N 	0.58800 0.44280 0.30620 -0.14000
N 	N 	0.67580 0.58460 0.97830 -0.26500
N 	N 	0.27430 0.43510 0.78190 -0.14100
N 	N 	0.25530 0.71110 0.72860 -0.23400
N 	N 	0.26020 0.63180 0.72170 -0.14200
N 	N 	0.31970 0.79720 0.72800 -0.23900
N 	N 	0.57150 0.57390 0.13650 -0.14300
N 	N 	0.40070 0.80050 0.72250 -0.14500
N 	N 	0.59850 0.41420 0.38690 -0.25000
N 	N 	0.26290 0.35570 0.78280 -0.22700
N 	N 	0.58360 0.59470 0.05220 -0.25600
C 	C 	0.91950 0.50370 0.18090 0.12400
H 	H 	0.91950 0.47840 0.15640 -0.05700
C 	C 	0.89400 0.56900 0.21600 0.00100
H 	H 	0.87940 0.59890 0.22410 0.02900
C 	C 	0.93360 0.54080 0.24700 -0.00400
H 	H 	0.94450 0.54860 0.28050 -0.00400
C 	C 	0.33070 0.79830 0.67790 0.01900
H 	H 	0.30820 0.79770 0.65010 0.01400
C 	C 	0.38260 0.80080 0.67190 -0.01500
H 	H 	0.40040 0.80230 0.64040 0.02300
C 	C 	0.46600 0.78950 0.78470 -0.08400
H 	H 	0.44330 0.77740 0.80900 0.04000
C 	C 	0.48510 0.79680 0.69960 -0.09600
H 	H 	0.47680 0.79930 0.66390 0.05300
C 	C 	0.23520 0.69600 0.68190 0.00100
H 	H 	0.22140 0.71690 0.65700 0.00900
C 	C 	0.85290 0.54850 0.13190 0.06200
C 	C 	0.84300 0.59440 0.11750 -0.05800
H 	H 	0.85970 0.62010 0.13350 0.04200
C 	C 	0.80710 0.60410 0.07750 -0.09900
H 	H 	0.79900 0.63580 0.06810 0.08100
C 	C 	0.23770 0.64680 0.67600 -0.01500
H 	H 	0.22680 0.62790 0.64770 0.01200
C 	C 	0.75480 0.60300 0.96900 -0.01000
H 	H 	0.78410 0.61470 0.95510 0.01600
C 	C 	0.11240 0.74030 0.83030 -0.00200
H 	H 	0.09320 0.72600 0.85660 0.00300
C 	C 	0.60430 0.37670 0.35090 -0.00800
H 	H 	0.61200 0.34460 0.35930 0.00400
C 	C 	0.82860 0.50900 0.10880 -0.06300
H 	H 	0.83460 0.47730 0.12020 0.03300
C 	C 	0.03810 0.76780 0.71370 -0.15300
H 	H 	0.06360 0.76820 0.68920 0.08800
C 	C 	0.27390 0.54600 0.69770 -0.07000
H 	H 	0.27690 0.55450 0.66210 0.04500
C 	C 	0.79600 0.51810 0.06890 -0.09600
H 	H 	0.78090 0.49220 0.05160 0.04100
C 	C 	0.57540 0.62340 0.13440 -0.00700
H 	H 	0.57340 0.64430 0.16340 0.03100
C 	C 	0.58240 0.63720 0.08420 -0.01000
H 	H 	0.58600 0.66910 0.07230 -0.00900
C 	C 	0.26700 0.52010 0.80320 -0.08100
H 	H 	0.26620 0.51110 0.83880 0.04900
C 	C 	0.16190 0.74270 0.82880 -0.00300
H 	H 	0.18260 0.72970 0.85450 0.02900
C 	C 	0.55660 0.46260 0.21850 -0.06100
H 	H 	0.54330 0.43150 0.21560 0.05100
C 	C 	0.70820 0.60900 0.94840 -0.01000
H 	H 	0.70050 0.62720 0.91840 -0.00300
C 	C 	0.29360 0.41840 0.82860 0.01000
H 	H 	0.30860 0.43700 0.85490 0.02100
C 	C 	0.58000 0.47660 0.26430 0.07700
C 	C 	0.04740 0.76690 0.76660 0.10900
C 	C 	0.36100 0.79620 0.75360 0.10500
H 	H 	0.36290 0.79280 0.79030 -0.02400
C 	C 	0.69990 0.56490 0.01770 0.09400
H 	H 	0.68550 0.54590 0.04400 -0.03900
C 	C 	0.01080 0.76790 0.80270 -0.12800
H 	H 	0.01820 0.76880 0.83870 0.05100
C 	C 	0.25690 0.39600 0.75610 0.11000
H 	H 	0.24220 0.39740 0.72280 -0.00900
C 	C 	0.27720 0.49780 0.71360 -0.09100
H 	H 	0.28320 0.47360 0.68860 0.05800
C 	C 	0.59790 0.52480 0.26990 -0.06600
H 	H 	0.61240 0.53480 0.30140 0.05100
C 	C 	0.26350 0.56900 0.78890 -0.08100
H 	H 	0.25950 0.59280 0.81480 0.06000
C 	C 	0.57150 0.54170 0.18080 0.08500
C 	C 	0.57660 0.55900 0.08450 0.09200
H 	H 	0.57510 0.52660 0.07380 -0.02200
C 	C 	0.59660 0.39480 0.30070 0.01600
H 	H 	0.59730 0.37720 0.26920 0.01300
C 	C 	0.26870 0.67070 0.75150 0.10400
H 	H 	0.28270 0.66930 0.78520 -0.00500
C 	C 	0.27170 0.48590 0.76490 0.09200
C 	C 	0.13710 0.77880 0.76040 0.09700
H 	H 	0.13610 0.79640 0.72890 -0.00200
C 	C 	0.26590 0.58190 0.73670 0.07900
C 	C 	0.45200 0.79980 0.73570 0.09100
C 	C 	0.28650 0.36950 0.82900 0.00200
H 	H 	0.29600 0.34850 0.85610 0.02800
C 	C 	0.55270 0.49570 0.17610 -0.09300
H 	H 	0.53730 0.48630 0.14480 0.06800
C 	C 	0.59010 0.45310 0.35890 0.10300
H 	H 	0.58600 0.48410 0.37320 -0.02700
C 	C 	0.78530 0.56520 0.05390 0.09100
C 	C 	0.59350 0.55670 0.22770 -0.08800
H 	H 	0.60520 0.58840 0.23080 0.06500
W 	W 	0.80842 0.81996 0.87671 1.33400
W 	W 	0.96315 0.88659 0.03433 1.33300
W 	W 	0.79258 0.76221 0.10850 1.34100
W 	W 	0.85398 0.93021 0.08063 1.03000
W 	W 	0.74388 0.75590 0.98514 1.01800
W 	W 	0.91081 0.71518 0.06031 1.02700
W 	W 	0.86244 0.70927 0.93633 1.01000
W 	W 	0.96766 0.77242 0.95735 1.01400
W 	W 	0.73976 0.86309 0.05339 1.01500
W 	W 	0.91386 0.88282 0.89832 1.03100
W 	W 	0.80367 0.92645 0.94417 1.00700
W 	W 	0.90560 0.82986 0.13622 1.04300
Co	Co	0.09850 0.91062 0.02931 1.08900
Co	Co	0.74887 0.71621 0.24240 1.15900
P 	P 	0.85548 0.82089 0.00565 0.58500
O 	O 	0.84730 0.84850 0.95350 -0.40800
O 	O 	0.01960 0.91390 0.03600 -0.56700
O 	O 	0.77410 0.73260 0.16470 -0.54900
O 	O 	0.80540 0.80650 0.02910 -0.40500
O 	O 	0.87580 0.89340 0.13920 -0.44700
O 	O 	0.84390 0.72260 0.08460 -0.47800
O 	O 	0.75760 0.89610 0.98960 -0.45700
O 	O 	0.94080 0.90200 0.96490 -0.47700
O 	O 	0.86460 0.93240 0.90610 -0.44800
O 	O 	0.88300 0.85370 0.04520 -0.40700
O 	O 	0.94420 0.82150 0.91080 -0.45500
O 	O 	0.93040 0.72450 0.92070 -0.45200
O 	O 	0.88490 0.68010 0.00030 -0.45000
O 	O 	0.74770 0.81650 0.10910 -0.46900
O 	O 	0.83830 0.94340 0.00710 -0.45600
O 	O 	0.84420 0.76190 0.89050 -0.47600
O 	O 	0.76120 0.79510 0.92520 -0.47400
O 	O 	0.75010 0.73380 0.05650 -0.47100
O 	O 	0.97810 0.82440 0.00720 -0.48700
O 	O 	0.78280 0.88390 0.88760 -0.46200
O 	O 	0.96130 0.85960 0.10420 -0.47200
O 	O 	0.84130 0.80360 0.13640 -0.48700
O 	O 	0.71050 0.81240 0.01300 -0.45300
O 	O 	0.79890 0.71720 0.96680 -0.45600
O 	O 	0.96730 0.72910 0.01850 -0.44600
O 	O 	0.92210 0.93810 0.06090 -0.46000
O 	O 	0.92360 0.77010 0.10310 -0.46000
O 	O 	0.88590 0.77490 0.99470 -0.39200
O 	O 	0.78110 0.80610 0.81770 -0.54200
O 	O 	0.86740 0.84970 0.85280 -0.46400
O 	O 	0.79240 0.89980 0.08420 -0.45900
N 	N 	0.45010 0.99610 0.78160 -0.29300
N 	N 	0.24810 0.92450 0.98470 -0.14500
N 	N 	0.67720 0.73300 0.21540 -0.22700
N 	N 	0.38780 0.96090 0.82350 -0.14900
N 	N 	0.59670 0.73750 0.21390 -0.14400
N 	N 	0.08800 0.05720 0.69380 -0.14000
N 	N 	0.17580 0.91540 0.02170 -0.26600
N 	N 	0.77430 0.06490 0.21810 -0.14100
N 	N 	0.75530 0.78890 0.27140 -0.23300
N 	N 	0.76020 0.86820 0.27830 -0.14100
N 	N 	0.81970 0.70280 0.27200 -0.23900
N 	N 	0.07150 0.92610 0.86350 -0.14400
N 	N 	0.90070 0.69950 0.27750 -0.13500
N 	N 	0.09850 0.08580 0.61310 -0.25100
N 	N 	0.76290 0.14430 0.21720 -0.22700
N 	N 	0.08360 0.90530 0.94780 -0.25600
C 	C 	0.41950 0.99630 0.81910 0.12500
H 	H 	0.41950 0.02160 0.84360 -0.06000
C 	C 	0.39400 0.93100 0.78400 -0.00000
H 	H 	0.37940 0.90110 0.77590 0.02900
C 	C 	0.43360 0.95920 0.75300 -0.00500
H 	H 	0.44450 0.95140 0.71950 -0.00700
C 	C 	0.83070 0.70170 0.32210 0.02100
H 	H 	0.80820 0.70230 0.34990 0.01400
C 	C 	0.88260 0.69920 0.32810 -0.01800
H 	H 	0.90040 0.69770 0.35960 0.02600
C 	C 	0.96600 0.71050 0.21530 -0.00600
H 	H 	0.94330 0.72260 0.19100 0.01600
C 	C 	0.98510 0.70320 0.30040 -0.01700
H 	H 	0.97680 0.70070 0.33610 0.03000
C 	C 	0.73520 0.80400 0.31810 0.00100
H 	H 	0.72140 0.78310 0.34300 0.00900
C 	C 	0.35290 0.95150 0.86810 0.06100
C 	C 	0.34300 0.90560 0.88250 -0.05800
H 	H 	0.35970 0.87990 0.86650 0.04100
C 	C 	0.30710 0.89590 0.92250 -0.09900
H 	H 	0.29900 0.86420 0.93190 0.08200
C 	C 	0.73770 0.85320 0.32400 -0.01500
H 	H 	0.72680 0.87210 0.35230 0.01300
C 	C 	0.25480 0.89700 0.03100 -0.01100
H 	H 	0.28410 0.88530 0.04490 0.01600
C 	C 	0.61240 0.75970 0.16970 -0.00400
H 	H 	0.59320 0.77400 0.14340 0.00600
C 	C 	0.10430 0.12330 0.64910 -0.00900
H 	H 	0.11200 0.15540 0.64070 0.00300
C 	C 	0.32860 0.99100 0.89120 -0.06200
H 	H 	0.33460 0.02270 0.87980 0.03200
C 	C 	0.53810 0.73220 0.28630 -0.10000
H 	H 	0.56360 0.73180 0.31080 0.07100
C 	C 	0.77390 0.95400 0.30230 -0.07000
H 	H 	0.77690 0.94550 0.33790 0.04500
C 	C 	0.29600 0.98190 0.93110 -0.09500
H 	H 	0.28090 0.00780 0.94840 0.03900
C 	C 	0.07540 0.87660 0.86560 -0.00800
H 	H 	0.07340 0.85570 0.83660 0.03000
C 	C 	0.08240 0.86280 0.91580 -0.01100
H 	H 	0.08600 0.83090 0.92770 -0.01000
C 	C 	0.76700 0.97990 0.19680 -0.08200
H 	H 	0.76620 0.98890 0.16120 0.04900
C 	C 	0.66190 0.75730 0.17120 -0.00100
H 	H 	0.68260 0.77030 0.14550 0.02900
C 	C 	0.05660 0.03740 0.78150 -0.06100
H 	H 	0.04330 0.06850 0.78440 0.04900
C 	C 	0.20820 0.89100 0.05160 -0.01000
H 	H 	0.20050 0.87280 0.08160 -0.00400
C 	C 	0.79360 0.08160 0.17140 0.01000
H 	H 	0.80860 0.06300 0.14510 0.02100
C 	C 	0.08000 0.02340 0.73570 0.07400
C 	C 	0.54740 0.73310 0.23340 0.07600
C 	C 	0.86100 0.70380 0.24640 0.10200
H 	H 	0.86290 0.70720 0.20970 -0.02100
C 	C 	0.19990 0.93510 0.98230 0.09600
H 	H 	0.18550 0.95410 0.95600 -0.03900
C 	C 	0.51080 0.73210 0.19730 -0.07500
H 	H 	0.51820 0.73120 0.16130 0.03700
C 	C 	0.75690 0.10400 0.24390 0.11000
H 	H 	0.74220 0.10260 0.27720 -0.00900
C 	C 	0.77720 0.00220 0.28640 -0.09100
H 	H 	0.78320 0.02640 0.31140 0.05800
C 	C 	0.09790 0.97520 0.73010 -0.06600
H 	H 	0.11240 0.96520 0.69860 0.05000
C 	C 	0.76350 0.93100 0.21110 -0.08100
H 	H 	0.75950 0.90720 0.18520 0.06000
C 	C 	0.07150 0.95830 0.81920 0.08500
C 	C 	0.07660 0.94100 0.91550 0.09100
H 	H 	0.07510 0.97340 0.92620 -0.02300
C 	C 	0.09660 0.10520 0.69930 0.01500
H 	H 	0.09730 0.12280 0.73080 0.01200
C 	C 	0.76870 0.82930 0.24850 0.10400
H 	H 	0.78270 0.83070 0.21480 -0.00500
C 	C 	0.77170 0.01410 0.23510 0.09300
C 	C 	0.63710 0.72120 0.23960 0.09500
H 	H 	0.63610 0.70360 0.27110 -0.00100
C 	C 	0.76590 0.91810 0.26330 0.07900
C 	C 	0.95200 0.70020 0.26430 0.03500
C 	C 	0.78650 0.13050 0.17100 0.00200
H 	H 	0.79600 0.15150 0.14390 0.02800
C 	C 	0.05270 0.00430 0.82390 -0.09600
H 	H 	0.03730 0.01370 0.85520 0.06600
C 	C 	0.09010 0.04690 0.64110 0.10200
H 	H 	0.08600 0.01590 0.62680 -0.02800
C 	C 	0.28530 0.93480 0.94610 0.09100
C 	C 	0.09350 0.94330 0.77230 -0.09000
H 	H 	0.10520 0.91160 0.76920 0.06500
W 	W 	0.69158 0.68004 0.37671 1.33400
W 	W 	0.53685 0.61341 0.53433 1.31900
W 	W 	0.70742 0.73779 0.60850 1.34100
W 	W 	0.64602 0.56979 0.58063 1.03100
W 	W 	0.75612 0.74410 0.48514 1.01800
W 	W 	0.58919 0.78482 0.56031 1.02500
W 	W 	0.63756 0.79073 0.43633 1.00900
W 	W 	0.53234 0.72758 0.45735 1.00800
W 	W 	0.76024 0.63691 0.55339 1.01700
W 	W 	0.58614 0.61718 0.39832 1.02700
W 	W 	0.69633 0.57355 0.44417 1.00700
W 	W 	0.59440 0.67014 0.63622 1.04000
Co	Co	0.40150 0.58938 0.52931 1.09100
Co	Co	0.75113 0.78379 0.74240 1.15900
P 	P 	0.64452 0.67911 0.50565 0.58400
O 	O 	0.65270 0.65150 0.45350 -0.40800
O 	O 	0.48040 0.58610 0.53600 -0.55500
O 	O 	0.72590 0.76740 0.66470 -0.54900
O 	O 	0.69460 0.69350 0.52910 -0.40500
O 	O 	0.62420 0.60660 0.63920 -0.44700
O 	O 	0.65610 0.77740 0.58460 -0.47800
O 	O 	0.74240 0.60390 0.48960 -0.45700
O 	O 	0.55920 0.59800 0.46490 -0.47800
O 	O 	0.63540 0.56760 0.40610 -0.44800
O 	O 	0.61700 0.64630 0.54520 -0.40500
O 	O 	0.55580 0.67850 0.41080 -0.45700
O 	O 	0.56960 0.77550 0.42070 -0.45400
O 	O 	0.61510 0.81990 0.50030 -0.45000
O 	O 	0.75230 0.68350 0.60910 -0.46800
O 	O 	0.66170 0.55660 0.50710 -0.45600
O 	O 	0.65580 0.73810 0.39050 -0.47600
O 	O 	0.73880 0.70490 0.42520 -0.47400
O 	O 	0.74990 0.76620 0.55650 -0.47100
O 	O 	0.52190 0.67560 0.50720 -0.48800
O 	O 	0.71720 0.61610 0.38760 -0.46100
O 	O 	0.53870 0.64040 0.60420 -0.47300
O 	O 	0.65870 0.69640 0.63640 -0.48700
O 	O 	0.78950 0.68760 0.51300 -0.45200
O 	O 	0.70110 0.78280 0.46680 -0.45600
O 	O 	0.53270 0.77090 0.51850 -0.44800
O 	O 	0.57790 0.56190 0.56090 -0.46000
O 	O 	0.57640 0.72990 0.60310 -0.46200
O 	O 	0.61410 0.72510 0.49470 -0.39100
O 	O 	0.71890 0.69390 0.31770 -0.54200
O 	O 	0.63260 0.65030 0.35280 -0.46400
O 	O 	0.70760 0.60020 0.58420 -0.45900
N 	N 	0.04990 0.50390 0.28160 -0.29500
N 	N 	0.25190 0.57550 0.48470 -0.14600
N 	N 	0.82280 0.76700 0.71540 -0.22700
N 	N 	0.11220 0.53910 0.32350 -0.14900
N 	N 	0.90330 0.76250 0.71390 -0.13800
N 	N 	0.41200 0.44280 0.19380 -0.14000
N 	N 	0.32420 0.58460 0.52170 -0.26500
N 	N 	0.72570 0.43510 0.71810 -0.14100
N 	N 	0.74470 0.71110 0.77140 -0.23300
N 	N 	0.73980 0.63180 0.77830 -0.14100
N 	N 	0.68030 0.79720 0.77200 -0.23900
N 	N 	0.42850 0.57390 0.36350 -0.14300
N 	N 	0.59930 0.80050 0.77750 -0.14500
N 	N 	0.40150 0.41420 0.11310 -0.25000
N 	N 	0.73710 0.35570 0.71720 -0.22700
N 	N 	0.41640 0.59470 0.44780 -0.25600
C 	C 	0.08050 0.50370 0.31910 0.12300
H 	H 	0.08050 0.47840 0.34360 -0.06100
C 	C 	0.10600 0.56900 0.28400 -0.00200
H 	H 	0.12060 0.59890 0.27590 0.02900
C 	C 	0.06640 0.54080 0.25300 -0.00600
H 	H 	0.05550 0.54860 0.21950 -0.01000
C 	C 	0.66930 0.79830 0.82210 0.01900
H 	H 	0.69180 0.79770 0.84990 0.01400
C 	C 	0.61740 0.80080 0.82810 -0.01500
H 	H 	0.59960 0.80230 0.85960 0.02300
C 	C 	0.53400 0.78950 0.71530 -0.08400
H 	H 	0.55670 0.77740 0.69100 0.04000
C 	C 	0.51490 0.79680 0.80040 -0.09600
H 	H 	0.52320 0.79930 0.83610 0.05300
C 	C 	0.76480 0.69600 0.81810 0.00200
H 	H 	0.77860 0.71690 0.84300 0.00900
C 	C 	0.14710 0.54850 0.36810 0.06000
C 	C 	0.15700 0.59440 0.38250 -0.05700
H 	H 	0.14030 0.62010 0.36650 0.04000
C 	C 	0.19290 0.60410 0.42250 -0.10000
H 	H 	0.20100 0.63580 0.43190 0.08200
C 	C 	0.76230 0.64680 0.82400 -0.01500
H 	H 	0.77320 0.62790 0.85230 0.01300
C 	C 	0.24520 0.60300 0.53100 -0.01000
H 	H 	0.21590 0.61470 0.54490 0.01600
C 	C 	0.88760 0.74030 0.66970 -0.00600
H 	H 	0.90680 0.72600 0.64340 0.00900
C 	C 	0.39570 0.37670 0.14910 -0.00800
H 	H 	0.38800 0.34460 0.14070 0.00400
C 	C 	0.17140 0.50900 0.39120 -0.06300
H 	H 	0.16540 0.47730 0.37980 0.03200
C 	C 	0.96190 0.76780 0.78630 -0.04700
H 	H 	0.93640 0.76820 0.81080 0.05400
C 	C 	0.72610 0.54600 0.80230 -0.07000
H 	H 	0.72310 0.55450 0.83790 0.04600
C 	C 	0.20400 0.51810 0.43110 -0.09700
H 	H 	0.21910 0.49220 0.44840 0.04000
C 	C 	0.42460 0.62340 0.36560 -0.00700
H 	H 	0.42660 0.64430 0.33660 0.03100
C 	C 	0.41760 0.63720 0.41580 -0.01000
H 	H 	0.41400 0.66910 0.42770 -0.00900
C 	C 	0.73300 0.52010 0.69680 -0.08100
H 	H 	0.73380 0.51110 0.66120 0.04900
C 	C 	0.83810 0.74270 0.67120 0.00000
H 	H 	0.81740 0.72970 0.64550 0.02900
C 	C 	0.44340 0.46260 0.28150 -0.06100
H 	H 	0.45670 0.43150 0.28440 0.05100
C 	C 	0.29180 0.60900 0.55160 -0.01000
H 	H 	0.29950 0.62720 0.58160 -0.00300
C 	C 	0.70640 0.41840 0.67140 0.01000
H 	H 	0.69140 0.43700 0.64510 0.02100
C 	C 	0.42000 0.47660 0.23570 0.07700
C 	C 	0.95260 0.76690 0.73340 0.04300
C 	C 	0.63900 0.79620 0.74640 0.10500
H 	H 	0.63710 0.79280 0.70970 -0.02400
C 	C 	0.30010 0.56490 0.48230 0.09400
H 	H 	0.31450 0.54590 0.45600 -0.03900
C 	C 	0.98920 0.76790 0.69730 -0.02100
H 	H 	0.98180 0.76880 0.66130 0.02200
C 	C 	0.74310 0.39600 0.74390 0.11000
H 	H 	0.75780 0.39740 0.77720 -0.00900
C 	C 	0.72280 0.49780 0.78640 -0.09100
H 	H 	0.71680 0.47360 0.81140 0.05800
C 	C 	0.40210 0.52480 0.23010 -0.06600
H 	H 	0.38760 0.53480 0.19860 0.05100
C 	C 	0.73650 0.56900 0.71110 -0.08100
H 	H 	0.74050 0.59280 0.68520 0.06000
C 	C 	0.42850 0.54170 0.31920 0.08500
C 	C 	0.42340 0.55900 0.41550 0.09200
H 	H 	0.42490 0.52660 0.42620 -0.02200
C 	C 	0.40340 0.39480 0.19930 0.01600
H 	H 	0.40270 0.37720 0.23080 0.01300
C 	C 	0.73130 0.67070 0.74850 0.10400
H 	H 	0.71730 0.66930 0.71480 -0.00500
C 	C 	0.72830 0.48590 0.73510 0.09200
C 	C 	0.86290 0.77880 0.73960 0.09400
H 	H 	0.86390 0.79640 0.77110 0.00100
C 	C 	0.73410 0.58190 0.76330 0.07900
C 	C 	0.54800 0.79980 0.76430 0.09100
C 	C 	0.71350 0.36950 0.67100 0.00200
H 	H 	0.70400 0.34850 0.64390 0.02800
C 	C 	0.44730 0.49570 0.32390 -0.09300
H 	H 	0.46270 0.48630 0.35520 0.06800
C 	C 	0.40990 0.45310 0.14110 0.10300
H 	H 	0.41400 0.48410 0.12680 -0.02700
C 	C 	0.21470 0.56520 0.44610 0.09100
C 	C 	0.40650 0.55670 0.27230 -0.08800
H 	H 	0.39480 0.58840 0.26920 0.06500
W 	W 	0.80842 0.18004 0.37671 1.33400
W 	W 	0.96315 0.11341 0.53433 1.33200
W 	W 	0.79258 0.23779 0.60850 1.34100
W 	W 	0.85398 0.06979 0.58063 1.03000
W 	W 	0.74388 0.24410 0.48514 1.01800
W 	W 	0.91081 0.28482 0.56031 1.02700
W 	W 	0.86244 0.29073 0.43633 1.01100
W 	W 	0.96766 0.22758 0.45735 1.01500
W 	W 	0.73976 0.13691 0.55339 1.01600
W 	W 	0.91386 0.11718 0.39832 1.03100
W 	W 	0.80367 0.07355 0.44417 1.00700
W 	W 	0.90560 0.17014 0.63622 1.04200
Co	Co	0.09850 0.08938 0.52931 1.09000
Co	Co	0.74887 0.28379 0.74240 1.15900
P 	P 	0.85548 0.17911 0.50565 0.58500
O 	O 	0.84730 0.15150 0.45350 -0.40800
O 	O 	0.01960 0.08610 0.53600 -0.56600
O 	O 	0.77410 0.26740 0.66470 -0.54900
O 	O 	0.80540 0.19350 0.52910 -0.40500
O 	O 	0.87580 0.10660 0.63920 -0.44700
O 	O 	0.84390 0.27740 0.58460 -0.47800
O 	O 	0.75760 0.10390 0.48960 -0.45700
O 	O 	0.94080 0.09800 0.46490 -0.47700
O 	O 	0.86460 0.06760 0.40610 -0.44800
O 	O 	0.88300 0.14630 0.54520 -0.40700
O 	O 	0.94420 0.17850 0.41080 -0.45500
O 	O 	0.93040 0.27550 0.42070 -0.45200
O 	O 	0.88490 0.31990 0.50030 -0.45000
O 	O 	0.74770 0.18350 0.60910 -0.46900
O 	O 	0.83830 0.05660 0.50710 -0.45600
O 	O 	0.84420 0.23810 0.39050 -0.47600
O 	O 	0.76120 0.20490 0.42520 -0.47400
O 	O 	0.75010 0.26620 0.55650 -0.47100
O 	O 	0.97810 0.17560 0.50720 -0.48700
O 	O 	0.78280 0.11610 0.38760 -0.46200
O 	O 	0.96130 0.14040 0.60420 -0.47200
O 	O 	0.84130 0.19640 0.63640 -0.48700
O 	O 	0.71050 0.18760 0.51300 -0.45300
O 	O 	0.79890 0.28280 0.46680 -0.45600
O 	O 	0.96730 0.27090 0.51850 -0.44600
O 	O 	0.92210 0.06190 0.56090 -0.46000
O 	O 	0.92360 0.22990 0.60310 -0.46100
O 	O 	0.88590 0.22510 0.49470 -0.39200
O 	O 	0.78110 0.19390 0.31770 -0.54200
O 	O 	0.86740 0.15030 0.35280 -0.46300
O 	O 	0.79240 0.10020 0.58420 -0.45900
N 	N 	0.45010 0.00390 0.28160 -0.29200
N 	N 	0.24810 0.07550 0.48470 -0.14600
N 	N 	0.67720 0.26700 0.71540 -0.22700
N 	N 	0.38780 0.03910 0.32350 -0.14900
N 	N 	0.59670 0.26250 0.71390 -0.14400
N 	N 	0.08800 0.94280 0.19380 -0.14000
N 	N 	0.17580 0.08460 0.52170 -0.26500
N 	N 	0.77430 0.93510 0.71810 -0.14100
N 	N 	0.75530 0.21110 0.77140 -0.23300
N 	N 	0.76020 0.13180 0.77830 -0.14200
N 	N 	0.81970 0.29720 0.77200 -0.23900
N 	N 	0.07150 0.07390 0.36350 -0.14400
N 	N 	0.90070 0.30050 0.77750 -0.13500
N 	N 	0.09850 0.91420 0.11310 -0.25100
N 	N 	0.76290 0.85570 0.71720 -0.22700
N 	N 	0.08360 0.09470 0.44780 -0.25600
C 	C 	0.41950 0.00370 0.31910 0.12400
H 	H 	0.41950 0.97840 0.34360 -0.06000
C 	C 	0.39400 0.06900 0.28400 -0.00000
H 	H 	0.37940 0.09890 0.27590 0.02900
C 	C 	0.43360 0.04080 0.25300 -0.00500
H 	H 	0.44450 0.04860 0.21950 -0.00700
C 	C 	0.83070 0.29830 0.82210 0.02100
H 	H 	0.80820 0.29770 0.84990 0.01400
C 	C 	0.88260 0.30080 0.82810 -0.01700
H 	H 	0.90040 0.30230 0.85960 0.02600
C 	C 	0.96600 0.28950 0.71530 -0.01100
H 	H 	0.94330 0.27740 0.69100 0.01700
C 	C 	0.98510 0.29680 0.80040 -0.02300
H 	H 	0.97680 0.29930 0.83610 0.03200
C 	C 	0.73520 0.19600 0.81810 0.00100
H 	H 	0.72140 0.21690 0.84300 0.00900
C 	C 	0.35290 0.04850 0.36810 0.06100
C 	C 	0.34300 0.09440 0.38250 -0.05800
H 	H 	0.35970 0.12010 0.36650 0.04100
C 	C 	0.30710 0.10410 0.42250 -0.10000
H 	H 	0.29900 0.13580 0.43190 0.08200
C 	C 	0.73770 0.14680 0.82400 -0.01500
H 	H 	0.72680 0.12790 0.85230 0.01300
C 	C 	0.25480 0.10300 0.53100 -0.01000
H 	H 	0.28410 0.11470 0.54490 0.01600
C 	C 	0.61240 0.24030 0.66970 -0.00400
H 	H 	0.59320 0.22600 0.64340 0.00600
C 	C 	0.10430 0.87670 0.14910 -0.00900
H 	H 	0.11200 0.84460 0.14070 0.00300
C 	C 	0.32860 0.00900 0.39120 -0.06300
H 	H 	0.33460 0.97730 0.37980 0.03200
C 	C 	0.53810 0.26780 0.78630 -0.10000
H 	H 	0.56360 0.26820 0.81080 0.07100
C 	C 	0.77390 0.04600 0.80230 -0.07100
H 	H 	0.77690 0.05450 0.83790 0.04600
C 	C 	0.29600 0.01810 0.43110 -0.09600
H 	H 	0.28090 0.99220 0.44840 0.04000
C 	C 	0.07540 0.12340 0.36560 -0.00800
H 	H 	0.07340 0.14430 0.33660 0.03000
C 	C 	0.08240 0.13720 0.41580 -0.01100
H 	H 	0.08600 0.16910 0.42770 -0.01000
C 	C 	0.76700 0.02010 0.69680 -0.08200
H 	H 	0.76620 0.01110 0.66120 0.04900
C 	C 	0.66190 0.24270 0.67120 -0.00100
H 	H 	0.68260 0.22970 0.64550 0.02900
C 	C 	0.05660 0.96260 0.28150 -0.06100
H 	H 	0.04330 0.93150 0.28440 0.04900
C 	C 	0.20820 0.10900 0.55160 -0.01000
H 	H 	0.20050 0.12720 0.58160 -0.00300
C 	C 	0.79360 0.91840 0.67140 0.01000
H 	H 	0.80860 0.93700 0.64510 0.02100
C 	C 	0.08000 0.97660 0.23570 0.07400
C 	C 	0.54740 0.26690 0.73340 0.07600
C 	C 	0.86100 0.29620 0.74640 0.10200
H 	H 	0.86290 0.29280 0.70970 -0.02200
C 	C 	0.19990 0.06490 0.48230 0.09400
H 	H 	0.18550 0.04590 0.45600 -0.03900
C 	C 	0.51080 0.26790 0.69730 -0.07500
H 	H 	0.51820 0.26880 0.66130 0.03700
C 	C 	0.75690 0.89600 0.74390 0.11000
H 	H 	0.74220 0.89740 0.77720 -0.00900
C 	C 	0.77720 0.99780 0.78640 -0.09000
H 	H 	0.78320 0.97360 0.81140 0.05800
C 	C 	0.09790 0.02480 0.23010 -0.06600
H 	H 	0.11240 0.03480 0.19860 0.05000
C 	C 	0.76350 0.06900 0.71110 -0.08100
H 	H 	0.75950 0.09280 0.68520 0.06000
C 	C 	0.07150 0.04170 0.31920 0.08500
C 	C 	0.07660 0.05900 0.41550 0.09000
H 	H 	0.07510 0.02660 0.42620 -0.02300
C 	C 	0.09660 0.89480 0.19930 0.01500
H 	H 	0.09730 0.87720 0.23080 0.01200
C 	C 	0.76870 0.17070 0.74850 0.10400
H 	H 	0.78270 0.16930 0.71480 -0.00500
C 	C 	0.77170 0.98590 0.73510 0.09200
C 	C 	0.63710 0.27880 0.73960 0.09500
H 	H 	0.63610 0.29640 0.77110 -0.00100
C 	C 	0.76590 0.08190 0.76330 0.07900
C 	C 	0.95200 0.29980 0.76430 0.03900
C 	C 	0.78650 0.86950 0.67100 0.00200
H 	H 	0.79600 0.84850 0.64390 0.02800
C 	C 	0.05270 0.99570 0.32390 -0.09500
H 	H 	0.03730 0.98630 0.35520 0.06600
C 	C 	0.09010 0.95310 0.14110 0.10200
H 	H 	0.08600 0.98410 0.12680 -0.02800
C 	C 	0.28530 0.06520 0.44610 0.09100
C 	C 	0.09350 0.05670 0.27230 -0.09000
H 	H 	0.10520 0.08840 0.26920 0.06500
W 	W 	0.69158 0.31996 0.87671 1.33400
W 	W 	0.53685 0.38659 0.03433 1.31900
W 	W 	0.70742 0.26221 0.10850 1.34100
W 	W 	0.64602 0.43021 0.08063 1.03100
W 	W 	0.75612 0.25590 0.98514 1.01700
W 	W 	0.58919 0.21518 0.06031 1.02500
W 	W 	0.63756 0.20927 0.93633 1.00900
W 	W 	0.53234 0.27242 0.95735 1.00700
W 	W 	0.76024 0.36309 0.05339 1.01700
W 	W 	0.58614 0.38282 0.89832 1.02700
W 	W 	0.69633 0.42645 0.94417 1.00700
W 	W 	0.59440 0.32986 0.13622 1.04000
Co	Co	0.40150 0.41062 0.02931 1.09100
Co	Co	0.75113 0.21621 0.24240 1.15900
P 	P 	0.64452 0.32089 0.00565 0.58500
O 	O 	0.65270 0.34850 0.95350 -0.40800
O 	O 	0.48040 0.41390 0.03600 -0.55500
O 	O 	0.72590 0.23260 0.16470 -0.54900
O 	O 	0.69460 0.30650 0.02910 -0.40500
O 	O 	0.62420 0.39340 0.13920 -0.44700
O 	O 	0.65610 0.22260 0.08460 -0.47800
O 	O 	0.74240 0.39610 0.98960 -0.45700
O 	O 	0.55920 0.40200 0.96490 -0.47800
O 	O 	0.63540 0.43240 0.90610 -0.44800
O 	O 	0.61700 0.35370 0.04520 -0.40500
O 	O 	0.55580 0.32150 0.91080 -0.45700
O 	O 	0.56960 0.22450 0.92070 -0.45400
O 	O 	0.61510 0.18010 0.00030 -0.45000
O 	O 	0.75230 0.31650 0.10910 -0.46800
O 	O 	0.66170 0.44340 0.00710 -0.45500
O 	O 	0.65580 0.26190 0.89050 -0.47600
O 	O 	0.73880 0.29510 0.92520 -0.47400
O 	O 	0.74990 0.23380 0.05650 -0.47100
O 	O 	0.52190 0.32440 0.00720 -0.48800
O 	O 	0.71720 0.38390 0.88760 -0.46100
O 	O 	0.53870 0.35960 0.10420 -0.47300
O 	O 	0.65870 0.30360 0.13640 -0.48700
O 	O 	0.78950 0.31240 0.01300 -0.45100
O 	O 	0.70110 0.21720 0.96680 -0.45600
O 	O 	0.53270 0.22910 0.01850 -0.44800
O 	O 	0.57790 0.43810 0.06090 -0.46000
O 	O 	0.57640 0.27010 0.10310 -0.46200
O 	O 	0.61410 0.27490 0.99470 -0.39100
O 	O 	0.71890 0.30610 0.81770 -0.54200
O 	O 	0.63260 0.34970 0.85280 -0.46400
O 	O 	0.70760 0.39980 0.08420 -0.45900
N 	N 	0.04990 0.49610 0.78160 -0.29400
N 	N 	0.25190 0.42450 0.98470 -0.14500
N 	N 	0.82280 0.23300 0.21540 -0.22700
N 	N 	0.11220 0.46090 0.82350 -0.14900
N 	N 	0.90330 0.23750 0.21390 -0.13700
N 	N 	0.41200 0.55720 0.69380 -0.14000
N 	N 	0.32420 0.41540 0.02170 -0.26500
N 	N 	0.72570 0.56490 0.21810 -0.14100
N 	N 	0.74470 0.28890 0.27140 -0.23300
N 	N 	0.73980 0.36820 0.27830 -0.14100
N 	N 	0.68030 0.20280 0.27200 -0.23900
N 	N 	0.42850 0.42610 0.86350 -0.14300
N 	N 	0.59930 0.19950 0.27750 -0.14500
N 	N 	0.40150 0.58580 0.61310 -0.25000
N 	N 	0.73710 0.64430 0.21720 -0.22700
N 	N 	0.41640 0.40530 0.94780 -0.25600
C 	C 	0.08050 0.49630 0.81910 0.12300
H 	H 	0.08050 0.52160 0.84360 -0.06100
C 	C 	0.10600 0.43100 0.78400 -0.00200
H 	H 	0.12060 0.40110 0.77590 0.02900
C 	C 	0.06640 0.45920 0.75300 -0.00600
H 	H 	0.05550 0.45140 0.71950 -0.00900
C 	C 	0.66930 0.20170 0.32210 0.01900
H 	H 	0.69180 0.20230 0.34990 0.01400
C 	C 	0.61740 0.19920 0.32810 -0.01500
H 	H 	0.59960 0.19770 0.35960 0.02300
C 	C 	0.53400 0.21050 0.21530 -0.08400
H 	H 	0.55670 0.22260 0.19100 0.04000
C 	C 	0.51490 0.20320 0.30040 -0.09600
H 	H 	0.52320 0.20070 0.33610 0.05300
C 	C 	0.76480 0.30400 0.31810 0.00200
H 	H 	0.77860 0.28310 0.34300 0.00900
C 	C 	0.14710 0.45150 0.86810 0.06000
C 	C 	0.15700 0.40560 0.88250 -0.05700
H 	H 	0.14030 0.37990 0.86650 0.04000
C 	C 	0.19290 0.39590 0.92250 -0.10000
H 	H 	0.20100 0.36420 0.93190 0.08200
C 	C 	0.76230 0.35320 0.32400 -0.01500
H 	H 	0.77320 0.37210 0.35230 0.01300
C 	C 	0.24520 0.39700 0.03100 -0.01000
H 	H 	0.21590 0.38530 0.04490 0.01600
C 	C 	0.88760 0.25970 0.16970 -0.00600
H 	H 	0.90680 0.27400 0.14340 0.00900
C 	C 	0.39570 0.62330 0.64910 -0.00800
H 	H 	0.38800 0.65540 0.64070 0.00400
C 	C 	0.17140 0.49100 0.89120 -0.06300
H 	H 	0.16540 0.52270 0.87980 0.03200
C 	C 	0.96190 0.23220 0.28630 -0.04300
H 	H 	0.93640 0.23180 0.31080 0.05300
C 	C 	0.72610 0.45400 0.30230 -0.07000
H 	H 	0.72310 0.44550 0.33790 0.04600
C 	C 	0.20400 0.48190 0.93110 -0.09700
H 	H 	0.21910 0.50780 0.94840 0.04000
C 	C 	0.42460 0.37660 0.86560 -0.00700
H 	H 	0.42660 0.35570 0.83660 0.03100
C 	C 	0.41760 0.36280 0.91580 -0.01000
H 	H 	0.41400 0.33090 0.92770 -0.00900
C 	C 	0.73300 0.47990 0.19680 -0.08100
H 	H 	0.73380 0.48890 0.16120 0.04900
C 	C 	0.83810 0.25730 0.17120 0.00000
H 	H 	0.81740 0.27030 0.14550 0.02900
C 	C 	0.44340 0.53740 0.78150 -0.06100
H 	H 	0.45670 0.56850 0.78440 0.05100
C 	C 	0.29180 0.39100 0.05160 -0.01000
H 	H 	0.29950 0.37280 0.08160 -0.00300
C 	C 	0.70640 0.58160 0.17140 0.01000
H 	H 	0.69140 0.56300 0.14510 0.02100
C 	C 	0.42000 0.52340 0.73570 0.07700
C 	C 	0.95260 0.23310 0.23340 0.04000
C 	C 	0.63900 0.20380 0.24640 0.10500
H 	H 	0.63710 0.20720 0.20970 -0.02400
C 	C 	0.30010 0.43510 0.98230 0.09400
H 	H 	0.31450 0.45410 0.95600 -0.03900
C 	C 	0.98920 0.23210 0.19730 -0.01700
H 	H 	0.98180 0.23120 0.16130 0.02100
C 	C 	0.74310 0.60400 0.24390 0.11000
H 	H 	0.75780 0.60260 0.27720 -0.00900
C 	C 	0.72280 0.50220 0.28640 -0.09100
H 	H 	0.71680 0.52640 0.31140 0.05800
C 	C 	0.40210 0.47520 0.73010 -0.06600
H 	H 	0.38760 0.46520 0.69860 0.05100
C 	C 	0.73650 0.43100 0.21110 -0.08100
H 	H 	0.74050 0.40720 0.18520 0.06000
C 	C 	0.42850 0.45830 0.81920 0.08500
C 	C 	0.42340 0.44100 0.91550 0.09200
H 	H 	0.42490 0.47340 0.92620 -0.02200
C 	C 	0.40340 0.60520 0.69930 0.01600
H 	H 	0.40270 0.62280 0.73080 0.01300
C 	C 	0.73130 0.32930 0.24850 0.10400
H 	H 	0.71730 0.33070 0.21480 -0.00500
C 	C 	0.72830 0.51410 0.23510 0.09200
C 	C 	0.86290 0.22120 0.23960 0.09400
H 	H 	0.86390 0.20360 0.27110 0.00100
C 	C 	0.73410 0.41810 0.26330 0.07900
C 	C 	0.54800 0.20020 0.26430 0.09100
C 	C 	0.71350 0.63050 0.17100 0.00200
H 	H 	0.70400 0.65150 0.14390 0.02800
C 	C 	0.44730 0.50430 0.82390 -0.09300
H 	H 	0.46270 0.51370 0.85520 0.06800
C 	C 	0.40990 0.54690 0.64110 0.10300
H 	H 	0.41400 0.51590 0.62680 -0.02700
C 	C 	0.21470 0.43480 0.94610 0.09200
C 	C 	0.40650 0.44330 0.77230 -0.08800
H 	H 	0.39480 0.41160 0.76920 0.06500
W 	W 	0.19158 0.18004 0.12329 1.33400
W 	W 	0.03685 0.11341 0.96567 1.30600
W 	W 	0.20742 0.23779 0.89150 1.34100
W 	W 	0.14602 0.06979 0.91937 1.03000
W 	W 	0.25612 0.24410 0.01486 1.01800
W 	W 	0.08919 0.28482 0.93969 1.02200
W 	W 	0.13756 0.29073 0.06367 1.00800
W 	W 	0.03234 0.22758 0.04265 1.00100
W 	W 	0.26024 0.13691 0.94661 1.01600
W 	W 	0.08614 0.11718 0.10168 1.02300
W 	W 	0.19633 0.07355 0.05583 1.00700
W 	W 	0.09440 0.17014 0.86378 1.03700
Co	Co	0.90150 0.08938 0.97069 1.09100
Co	Co	0.25113 0.28379 0.75760 1.15900
P 	P 	0.14452 0.17911 0.99435 0.58500
O 	O 	0.15270 0.15150 0.04650 -0.40700
O 	O 	0.98040 0.08610 0.96400 -0.54500
O 	O 	0.22590 0.26740 0.83530 -0.54900
O 	O 	0.19460 0.19350 0.97090 -0.40500
O 	O 	0.12420 0.10660 0.86080 -0.44600
O 	O 	0.15610 0.27740 0.91540 -0.47800
O 	O 	0.24240 0.10390 0.01040 -0.45700
O 	O 	0.05920 0.09800 0.03510 -0.47800
O 	O 	0.13540 0.06760 0.09390 -0.44800
O 	O 	0.11700 0.14630 0.95480 -0.40400
O 	O 	0.05580 0.17850 0.08920 -0.45800
O 	O 	0.06960 0.27550 0.07930 -0.45500
O 	O 	0.11510 0.31990 0.99970 -0.45000
O 	O 	0.25230 0.18350 0.89090 -0.46800
O 	O 	0.16170 0.05660 0.99290 -0.45600
O 	O 	0.15580 0.23810 0.10950 -0.47700
O 	O 	0.23880 0.20490 0.07480 -0.47400
O 	O 	0.24990 0.26620 0.94350 -0.47100
O 	O 	0.02190 0.17560 0.99280 -0.48900
O 	O 	0.21720 0.11610 0.11240 -0.46100
O 	O 	0.03870 0.14040 0.89580 -0.47500
O 	O 	0.15870 0.19640 0.86360 -0.48700
O 	O 	0.28950 0.18760 0.98700 -0.45300
O 	O 	0.20110 0.28280 0.03320 -0.45600
O 	O 	0.03270 0.27090 0.98150 -0.45000
O 	O 	0.07790 0.06190 0.93910 -0.46000
O 	O 	0.07640 0.22990 0.89690 -0.46300
O 	O 	0.11410 0.22510 0.00530 -0.39000
O 	O 	0.21890 0.19390 0.18230 -0.54200
O 	O 	0.13260 0.15030 0.14720 -0.46400
O 	O 	0.20760 0.10020 0.91580 -0.45900
N 	N 	0.54990 0.00390 0.21840 -0.29300
N 	N 	0.75190 0.07550 0.01530 -0.14500
N 	N 	0.32280 0.26700 0.78460 -0.22700
N 	N 	0.61220 0.03910 0.17650 -0.14900
N 	N 	0.40330 0.26250 0.78610 -0.14400
N 	N 	0.91200 0.94280 0.30620 -0.14000
N 	N 	0.82420 0.08460 0.97830 -0.26600
N 	N 	0.22570 0.93510 0.78190 -0.14100
N 	N 	0.24470 0.21110 0.72860 -0.23400
N 	N 	0.23980 0.13180 0.72170 -0.14100
N 	N 	0.18030 0.29720 0.72800 -0.24000
N 	N 	0.92850 0.07390 0.13650 -0.14300
N 	N 	0.09930 0.30050 0.72250 -0.15500
N 	N 	0.90150 0.91420 0.38690 -0.25000
N 	N 	0.23710 0.85570 0.78280 -0.22700
N 	N 	0.91640 0.09470 0.05220 -0.25400
C 	C 	0.58050 0.00370 0.18090 0.12500
H 	H 	0.58050 0.97840 0.15640 -0.06000
C 	C 	0.60600 0.06900 0.21600 -0.00000
H 	H 	0.62060 0.09890 0.22410 0.02900
C 	C 	0.56640 0.04080 0.24700 -0.00500
H 	H 	0.55550 0.04860 0.28050 -0.00700
C 	C 	0.16930 0.29830 0.67790 0.01700
H 	H 	0.19180 0.29770 0.65010 0.01500
C 	C 	0.11740 0.30080 0.67190 -0.01200
H 	H 	0.09960 0.30230 0.64040 0.01900
C 	C 	0.03400 0.28950 0.78470 -0.15600
H 	H 	0.05670 0.27740 0.80900 0.06300
C 	C 	0.01490 0.29680 0.69960 -0.17000
H 	H 	0.02320 0.29930 0.66390 0.07500
C 	C 	0.26480 0.19600 0.68190 0.00100
H 	H 	0.27860 0.21690 0.65700 0.00900
C 	C 	0.64710 0.04850 0.13190 0.06100
C 	C 	0.65700 0.09440 0.11750 -0.05800
H 	H 	0.64030 0.12010 0.13350 0.04100
C 	C 	0.69290 0.10410 0.07750 -0.09900
H 	H 	0.70100 0.13580 0.06810 0.08200
C 	C 	0.26230 0.14680 0.67600 -0.01500
H 	H 	0.27320 0.12790 0.64770 0.01300
C 	C 	0.74520 0.10300 0.96900 -0.01100
H 	H 	0.71590 0.11470 0.95510 0.01600
C 	C 	0.38760 0.24030 0.83030 -0.00400
H 	H 	0.40680 0.22600 0.85660 0.00600
C 	C 	0.89570 0.87670 0.35090 -0.00700
H 	H 	0.88800 0.84460 0.35930 0.00500
C 	C 	0.67140 0.00900 0.10880 -0.06200
H 	H 	0.66540 0.97730 0.12020 0.03200
C 	C 	0.46190 0.26780 0.71370 -0.10000
H 	H 	0.43640 0.26820 0.68920 0.07100
C 	C 	0.22610 0.04600 0.69770 -0.07000
H 	H 	0.22310 0.05450 0.66210 0.04600
C 	C 	0.70400 0.01810 0.06890 -0.09500
H 	H 	0.71910 0.99220 0.05160 0.03900
C 	C 	0.92460 0.12340 0.13440 -0.00500
H 	H 	0.92660 0.14430 0.16340 0.03200
C 	C 	0.91760 0.13720 0.08420 -0.00900
H 	H 	0.91400 0.16910 0.07230 -0.00600
C 	C 	0.23300 0.02010 0.80320 -0.08200
H 	H 	0.23380 0.01110 0.83880 0.04900
C 	C 	0.33810 0.24270 0.82880 -0.00100
H 	H 	0.31740 0.22970 0.85450 0.02900
C 	C 	0.94340 0.96260 0.21850 -0.05800
H 	H 	0.95670 0.93150 0.21560 0.05300
C 	C 	0.79180 0.10900 0.94840 -0.01000
H 	H 	0.79950 0.12720 0.91840 -0.00300
C 	C 	0.20640 0.91840 0.82860 0.01000
H 	H 	0.19140 0.93700 0.85490 0.02100
C 	C 	0.92000 0.97660 0.26430 0.07700
C 	C 	0.45260 0.26690 0.76660 0.07600
C 	C 	0.13900 0.29620 0.75360 0.10800
H 	H 	0.13710 0.29280 0.79030 -0.02600
C 	C 	0.80010 0.06490 0.01770 0.09600
H 	H 	0.81450 0.04590 0.04400 -0.03900
C 	C 	0.48920 0.26790 0.80270 -0.07500
H 	H 	0.48180 0.26880 0.83870 0.03700
C 	C 	0.24310 0.89600 0.75610 0.11000
H 	H 	0.25780 0.89740 0.72280 -0.00900
C 	C 	0.22280 0.99780 0.71360 -0.09100
H 	H 	0.21680 0.97360 0.68860 0.05800
C 	C 	0.90210 0.02480 0.26990 -0.06400
H 	H 	0.88760 0.03480 0.30140 0.05100
C 	C 	0.23650 0.06900 0.78890 -0.08100
H 	H 	0.24050 0.09280 0.81480 0.06000
C 	C 	0.92850 0.04170 0.18080 0.08900
C 	C 	0.92340 0.05900 0.08450 0.09400
H 	H 	0.92490 0.02660 0.07380 -0.02100
C 	C 	0.90340 0.89480 0.30070 0.01700
H 	H 	0.90270 0.87720 0.26920 0.01300
C 	C 	0.23130 0.17070 0.75150 0.10400
H 	H 	0.21730 0.16930 0.78520 -0.00500
C 	C 	0.22830 0.98590 0.76490 0.09300
C 	C 	0.36290 0.27880 0.76040 0.09500
H 	H 	0.36390 0.29640 0.72890 -0.00100
C 	C 	0.23410 0.08190 0.73670 0.07900
C 	C 	0.04800 0.29980 0.73570 0.14300
C 	C 	0.21350 0.86950 0.82900 0.00200
H 	H 	0.20400 0.84850 0.85610 0.02800
C 	C 	0.94730 0.99570 0.17610 -0.09500
H 	H 	0.96270 0.98630 0.14480 0.07100
C 	C 	0.90990 0.95310 0.35890 0.10500
H 	H 	0.91400 0.98410 0.37320 -0.02600
C 	C 	0.71470 0.06520 0.05390 0.09100
C 	C 	0.90650 0.05670 0.22770 -0.08900
H 	H 	0.89480 0.08840 0.23080 0.06600
W 	W 	0.30842 0.31996 0.62329 1.33400
W 	W 	0.46315 0.38659 0.46567 1.31900
W 	W 	0.29258 0.26221 0.39150 1.34100
W 	W 	0.35398 0.43021 0.41937 1.03000
W 	W 	0.24388 0.25590 0.51486 1.01700
W 	W 	0.41081 0.21518 0.43969 1.02500
W 	W 	0.36244 0.20927 0.56367 1.00900
W 	W 	0.46766 0.27242 0.54265 1.00800
W 	W 	0.23976 0.36309 0.44661 1.01500
W 	W 	0.41386 0.38282 0.60168 1.02700
W 	W 	0.30367 0.42645 0.55583 1.00700
W 	W 	0.40560 0.32986 0.36378 1.04000
Co	Co	0.59850 0.41062 0.47069 1.09100
Co	Co	0.24887 0.21621 0.25760 1.15900
P 	P 	0.35548 0.32089 0.49435 0.58400
O 	O 	0.34730 0.34850 0.54650 -0.40800
O 	O 	0.51960 0.41390 0.46400 -0.55500
O 	O 	0.27410 0.23260 0.33530 -0.54900
O 	O 	0.30540 0.30650 0.47090 -0.40500
O 	O 	0.37580 0.39340 0.36080 -0.44700
O 	O 	0.34390 0.22260 0.41540 -0.47800
O 	O 	0.25760 0.39610 0.51040 -0.45700
O 	O 	0.44080 0.40200 0.53510 -0.47800
O 	O 	0.36460 0.43240 0.59390 -0.44800
O 	O 	0.38300 0.35370 0.45480 -0.40500
O 	O 	0.44420 0.32150 0.58920 -0.45700
O 	O 	0.43040 0.22450 0.57930 -0.45400
O 	O 	0.38490 0.18010 0.49970 -0.45000
O 	O 	0.24770 0.31650 0.39090 -0.46900
O 	O 	0.33830 0.44340 0.49290 -0.45600
O 	O 	0.34420 0.26190 0.60950 -0.47600
O 	O 	0.26120 0.29510 0.57480 -0.47500
O 	O 	0.25010 0.23380 0.44350 -0.47100
O 	O 	0.47810 0.32440 0.49280 -0.48800
O 	O 	0.28280 0.38390 0.61240 -0.46200
O 	O 	0.46130 0.35960 0.39580 -0.47300
O 	O 	0.34130 0.30360 0.36360 -0.48700
O 	O 	0.21050 0.31240 0.48700 -0.45300
O 	O 	0.29890 0.21720 0.53320 -0.45600
O 	O 	0.46730 0.22910 0.48150 -0.44800
O 	O 	0.42210 0.43810 0.43910 -0.46000
O 	O 	0.42360 0.27010 0.39690 -0.46200
O 	O 	0.38590 0.27490 0.50530 -0.39100
O 	O 	0.28110 0.30610 0.68230 -0.54200
O 	O 	0.36740 0.34970 0.64720 -0.46400
O 	O 	0.29240 0.39980 0.41580 -0.45900
N 	N 	0.95010 0.49610 0.71840 -0.28900
N 	N 	0.74810 0.42450 0.51530 -0.14500
N 	N 	0.17720 0.23300 0.28460 -0.22700
N 	N 	0.88780 0.46090 0.67650 -0.14900
N 	N 	0.09670 0.23750 0.28610 -0.15100
N 	N 	0.58800 0.55720 0.80620 -0.14000
N 	N 	0.67580 0.41540 0.47830 -0.26500
N 	N 	0.27430 0.56490 0.28190 -0.14100
N 	N 	0.25530 0.28890 0.22860 -0.23400
N 	N 	0.26020 0.36820 0.22170 -0.14200
N 	N 	0.31970 0.20280 0.22800 -0.23900
N 	N 	0.57150 0.42610 0.63650 -0.14300
N 	N 	0.40070 0.19950 0.22250 -0.14500
N 	N 	0.59850 0.58580 0.88690 -0.25000
N 	N 	0.26290 0.64430 0.28280 -0.22700
N 	N 	0.58360 0.40530 0.55220 -0.25600
C 	C 	0.91950 0.49630 0.68090 0.12400
H 	H 	0.91950 0.52160 0.65640 -0.05700
C 	C 	0.89400 0.43100 0.71600 0.00100
H 	H 	0.87940 0.40110 0.72410 0.02900
C 	C 	0.93360 0.45920 0.74700 -0.00400
H 	H 	0.94450 0.45140 0.78050 -0.00400
C 	C 	0.33070 0.20170 0.17790 0.01900
H 	H 	0.30820 0.20230 0.15010 0.01400
C 	C 	0.38260 0.19920 0.17190 -0.01500
H 	H 	0.40040 0.19770 0.14040 0.02300
C 	C 	0.46600 0.21050 0.28470 -0.08400
H 	H 	0.44330 0.22260 0.30900 0.04000
C 	C 	0.48510 0.20320 0.19960 -0.09600
H 	H 	0.47680 0.20070 0.16390 0.05300
C 	C 	0.23520 0.30400 0.18190 0.00100
H 	H 	0.22140 0.28310 0.15700 0.00900
C 	C 	0.85290 0.45150 0.63190 0.06200
C 	C 	0.84300 0.40560 0.61750 -0.05800
H 	H 	0.85970 0.37990 0.63350 0.04100
C 	C 	0.80710 0.39590 0.57750 -0.09900
H 	H 	0.79900 0.36420 0.56810 0.08100
C 	C 	0.23770 0.35320 0.17600 -0.01500
H 	H 	0.22680 0.37210 0.14770 0.01200
C 	C 	0.75480 0.39700 0.46900 -0.00900
H 	H 	0.78410 0.38530 0.45510 0.01600
C 	C 	0.11240 0.25970 0.33030 -0.00200
H 	H 	0.09320 0.27400 0.35660 0.00300
C 	C 	0.60430 0.62330 0.85090 -0.00800
H 	H 	0.61200 0.65540 0.85930 0.00400
C 	C 	0.82860 0.49100 0.60880 -0.06300
H 	H 	0.83460 0.52270 0.62020 0.03300
C 	C 	0.03810 0.23220 0.21370 -0.15700
H 	H 	0.06360 0.23180 0.18920 0.08900
C 	C 	0.27390 0.45400 0.19770 -0.07000
H 	H 	0.27690 0.44550 0.16210 0.04500
C 	C 	0.79600 0.48190 0.56890 -0.09600
H 	H 	0.78090 0.50780 0.55160 0.04000
C 	C 	0.57540 0.37660 0.63440 -0.00700
H 	H 	0.57340 0.35570 0.66340 0.03100
C 	C 	0.58240 0.36280 0.58420 -0.01000
H 	H 	0.58600 0.33090 0.57230 -0.00900
C 	C 	0.26700 0.47990 0.30320 -0.08100
H 	H 	0.26620 0.48890 0.33880 0.04900
C 	C 	0.16190 0.25730 0.32880 -0.00300
H 	H 	0.18260 0.27030 0.35450 0.02900
C 	C 	0.55660 0.53740 0.71850 -0.06100
H 	H 	0.54330 0.56850 0.71560 0.05100
C 	C 	0.70820 0.39100 0.44840 -0.01000
H 	H 	0.70050 0.37280 0.41840 -0.00300
C 	C 	0.29360 0.58160 0.32860 0.01000
H 	H 	0.30860 0.56300 0.35490 0.02100
C 	C 	0.58000 0.52340 0.76430 0.07700
C 	C 	0.04740 0.23310 0.26660 0.11200
C 	C 	0.36100 0.20380 0.25360 0.10500
H 	H 	0.36290 0.20720 0.29030 -0.02400
C 	C 	0.69990 0.43510 0.51770 0.09400
H 	H 	0.68550 0.45410 0.54400 -0.03900
C 	C 	0.01080 0.23210 0.30270 -0.13200
H 	H 	0.01820 0.23120 0.33870 0.05200
C 	C 	0.25690 0.60400 0.25610 0.11000
H 	H 	0.24220 0.60260 0.22280 -0.00900
C 	C 	0.27720 0.50220 0.21360 -0.09100
H 	H 	0.28320 0.52640 0.18860 0.05800
C 	C 	0.59790 0.47520 0.76990 -0.06600
H 	H 	0.61240 0.46520 0.80140 0.05100
C 	C 	0.26350 0.43100 0.28890 -0.08100
H 	H 	0.25950 0.40720 0.31480 0.06000
C 	C 	0.57150 0.45830 0.68080 0.08500
C 	C 	0.57660 0.44100 0.58450 0.09200
H 	H 	0.57510 0.47340 0.57380 -0.02200
C 	C 	0.59660 0.60520 0.80070 0.01600
H 	H 	0.59730 0.62280 0.76920 0.01300
C 	C 	0.26870 0.32930 0.25150 0.10400
H 	H 	0.28270 0.33070 0.28520 -0.00500
C 	C 	0.27170 0.51410 0.26490 0.09200
C 	C 	0.13710 0.22120 0.26040 0.09700
H 	H 	0.13610 0.20360 0.22890 -0.00200
C 	C 	0.26590 0.41810 0.23670 0.07900
C 	C 	0.45200 0.20020 0.23570 0.09100
C 	C 	0.28650 0.63050 0.32900 0.00200
H 	H 	0.29600 0.65150 0.35610 0.02800
C 	C 	0.55270 0.50430 0.67610 -0.09300
H 	H 	0.53730 0.51370 0.64480 0.06800
C 	C 	0.59010 0.54690 0.85890 0.10300
H 	H 	0.58600 0.51590 0.87320 -0.02700
C 	C 	0.78530 0.43480 0.55390 0.09100
C 	C 	0.59350 0.44330 0.72770 -0.08800
H 	H 	0.60520 0.41160 0.73080 0.06500
Co	Co	0.50000 0.04720 0.75000 0.99400
Co	Co	0.00000 0.45280 0.25000 0.98900
Co	Co	0.50000 0.95280 0.25000 0.99400
Co	Co	0.00000 0.54720 0.75000 0.99000
