data_crystal

_cell_length_a 26.78000
_cell_length_b 19.96300
_cell_length_c 12.98000
_cell_angle_alpha 90.00000
_cell_angle_beta  90.00000
_cell_angle_gamma 90.00000

_symmetry_space_group_name_	'P 1'
_symmetry_space_group_name_H-M	'P 1'

loop_
_symmetry_equiv_pos_as_xyz
  x,y,z

loop_
_atom_site_label
_atom_site_type_symbol
_atom_site_fract_x
_atom_site_fract_y
_atom_site_fract_z
_atom_site_charge
W 	W 	0.15436 0.16726 0.47766 1.08200
W 	W 	0.26523 0.07694 0.39263 1.36600
W 	W 	0.26661 0.16761 0.63458 1.40100
W 	W 	0.26503 0.15932 0.17322 1.39400
W 	W 	0.36667 0.15871 0.31769 1.06700
Co	Co	0.24085 0.89105 0.39910 1.16600
O 	O 	0.19880 0.10620 0.41150 -0.49100
O 	O 	0.37590 0.18240 0.45590 -0.48000
O 	O 	0.23890 0.88410 0.23740 -0.55600
O 	O 	0.24250 0.87190 0.55300 -0.57300
O 	O 	0.20060 0.16950 0.58830 -0.51200
O 	O 	0.33650 0.18430 0.64430 -0.48600
O 	O 	0.33630 0.07790 0.36500 -0.45900
O 	O 	0.19920 0.18480 0.20300 -0.50000
O 	O 	0.12620 0.18230 0.34380 -0.45200
O 	O 	0.33550 0.14520 0.18800 -0.48000
O 	O 	0.27820 0.10570 0.52970 -0.51800
O 	O 	0.25430 0.07800 0.24800 -0.48400
O 	O 	0.28140 0.18680 0.34500 -0.76300
O 	O 	0.25800 0.99220 0.41080 -0.52000
C 	C 	0.03410 0.91730 0.31430 0.07700
C 	C 	0.02640 0.85650 0.26240 -0.06200
H 	H 	0.05010 0.82240 0.26470 0.04200
C 	C 	0.99830 0.96710 0.31470 -0.07300
H 	H 	0.00350 0.00690 0.35040 0.05100
C 	C 	0.08730 0.96590 0.44400 0.01000
H 	H 	0.06300 0.99080 0.47730 0.01800
C 	C 	0.13780 0.96200 0.47100 0.01000
H 	H 	0.15250 0.98560 0.52490 0.02100
C 	C 	0.12470 0.90110 0.33340 0.06100
H 	H 	0.12920 0.87520 0.27460 0.01900
C 	C 	0.98120 0.84900 0.20600 -0.10400
H 	H 	0.97630 0.81070 0.16670 0.05900
C 	C 	0.95240 0.95580 0.25780 -0.09800
H 	H 	0.92790 0.98880 0.25450 0.06000
C 	C 	0.94580 0.89540 0.20910 0.10400
C 	C 	0.85330 0.90150 0.18000 0.09500
H 	H 	0.84470 0.92580 0.23850 0.00200
C 	C 	0.89810 0.84470 0.06510 -0.01700
H 	H 	0.92390 0.82400 0.02930 0.02400
N 	N 	0.81900 0.87810 0.10790 -0.22100
N 	N 	0.90090 0.88440 0.15450 -0.13700
C 	C 	0.84720 0.84390 0.04350 0.03100
H 	H 	0.83400 0.82090 0.98740 0.00300
N 	N 	0.16310 0.91810 0.40630 -0.20900
N 	N 	0.08050 0.92880 0.36400 -0.13200
W 	W 	0.34564 0.83274 0.97766 1.07600
W 	W 	0.23477 0.92306 0.89263 1.36000
W 	W 	0.23339 0.83239 0.13458 1.40100
W 	W 	0.23497 0.84068 0.67322 1.39500
W 	W 	0.13333 0.84129 0.81769 1.06800
Co	Co	0.25915 0.10895 0.89910 1.16800
O 	O 	0.30120 0.89380 0.91150 -0.49100
O 	O 	0.12410 0.81760 0.95590 -0.48300
O 	O 	0.26110 0.11590 0.73740 -0.55600
O 	O 	0.25750 0.12810 0.05300 -0.57300
O 	O 	0.29940 0.83050 0.08830 -0.51000
O 	O 	0.16350 0.81570 0.14430 -0.48600
O 	O 	0.16370 0.92210 0.86500 -0.45900
O 	O 	0.30080 0.81520 0.70300 -0.50000
O 	O 	0.37380 0.81770 0.84380 -0.45200
O 	O 	0.16450 0.85480 0.68800 -0.48000
O 	O 	0.22180 0.89430 0.02970 -0.51500
O 	O 	0.24570 0.92200 0.74800 -0.48300
O 	O 	0.21860 0.81320 0.84500 -0.76200
O 	O 	0.24200 0.00780 0.91080 -0.51800
C 	C 	0.46590 0.08270 0.81430 0.07500
C 	C 	0.47360 0.14350 0.76240 -0.06100
H 	H 	0.44990 0.17760 0.76470 0.04200
C 	C 	0.50170 0.03290 0.81470 -0.06700
H 	H 	0.49650 0.99310 0.85040 0.04700
C 	C 	0.41270 0.03410 0.94400 0.00800
H 	H 	0.43700 0.00920 0.97730 0.02000
C 	C 	0.36220 0.03800 0.97100 0.01500
H 	H 	0.34750 0.01440 0.02490 0.01900
C 	C 	0.37530 0.09890 0.83340 0.06000
H 	H 	0.37080 0.12480 0.77460 0.01900
C 	C 	0.51880 0.15100 0.70600 -0.10400
H 	H 	0.52370 0.18930 0.66670 0.06000
C 	C 	0.54760 0.04420 0.75780 -0.10100
H 	H 	0.57210 0.01120 0.75450 0.06100
C 	C 	0.55420 0.10460 0.70910 0.10600
C 	C 	0.64670 0.09850 0.68000 0.09500
H 	H 	0.65530 0.07420 0.73850 0.00200
C 	C 	0.60190 0.15530 0.56510 -0.01700
H 	H 	0.57610 0.17600 0.52930 0.02400
N 	N 	0.68100 0.12190 0.60790 -0.22100
N 	N 	0.59910 0.11560 0.65450 -0.13700
C 	C 	0.65280 0.15610 0.54350 0.03100
H 	H 	0.66600 0.17910 0.48740 0.00300
N 	N 	0.33690 0.08190 0.90630 -0.20900
N 	N 	0.41950 0.07120 0.86400 -0.13100
W 	W 	0.84564 0.66726 0.52234 1.08300
W 	W 	0.73477 0.57694 0.60737 1.36700
W 	W 	0.73339 0.66761 0.36542 1.40200
W 	W 	0.73497 0.65932 0.82678 1.39500
W 	W 	0.63333 0.65871 0.68231 1.06900
Co	Co	0.75915 0.39105 0.60090 1.16700
O 	O 	0.80120 0.60620 0.58850 -0.49100
O 	O 	0.62410 0.68240 0.54410 -0.48000
O 	O 	0.76110 0.38410 0.76260 -0.55600
O 	O 	0.75750 0.37190 0.44700 -0.57300
O 	O 	0.79940 0.66950 0.41170 -0.51200
O 	O 	0.66350 0.68430 0.35570 -0.48600
O 	O 	0.66370 0.57790 0.63500 -0.45800
O 	O 	0.80080 0.68480 0.79700 -0.50000
O 	O 	0.87380 0.68230 0.65620 -0.45200
O 	O 	0.66450 0.64520 0.81200 -0.48000
O 	O 	0.72180 0.60570 0.47030 -0.51800
O 	O 	0.74570 0.57800 0.75200 -0.48300
O 	O 	0.71860 0.68680 0.65500 -0.76300
O 	O 	0.74200 0.49220 0.58920 -0.52000
C 	C 	0.96590 0.41730 0.68570 0.07900
C 	C 	0.97360 0.35650 0.73760 -0.06300
H 	H 	0.94990 0.32240 0.73530 0.04200
C 	C 	0.00170 0.46710 0.68530 -0.07600
H 	H 	0.99650 0.50690 0.64960 0.05300
C 	C 	0.91270 0.46590 0.55600 0.01000
H 	H 	0.93700 0.49080 0.52270 0.01800
C 	C 	0.86220 0.46200 0.52900 0.01000
H 	H 	0.84750 0.48560 0.47510 0.02200
C 	C 	0.87530 0.40110 0.66660 0.06100
H 	H 	0.87080 0.37520 0.72540 0.01800
C 	C 	0.01880 0.34900 0.79400 -0.10300
H 	H 	0.02370 0.31070 0.83330 0.05900
C 	C 	0.04760 0.45580 0.74220 -0.09600
H 	H 	0.07210 0.48880 0.74550 0.05900
C 	C 	0.05420 0.39540 0.79090 0.10300
C 	C 	0.14670 0.40150 0.82000 0.09500
H 	H 	0.15530 0.42580 0.76150 0.00200
C 	C 	0.10190 0.34470 0.93490 -0.01700
H 	H 	0.07610 0.32400 0.97070 0.02400
N 	N 	0.18100 0.37810 0.89210 -0.22000
N 	N 	0.09910 0.38440 0.84550 -0.13700
C 	C 	0.15280 0.34390 0.95650 0.02900
H 	H 	0.16600 0.32090 0.01260 0.00400
N 	N 	0.83690 0.41810 0.59370 -0.20900
N 	N 	0.91950 0.42880 0.63600 -0.13200
W 	W 	0.65436 0.33274 0.02234 1.07800
W 	W 	0.76523 0.42306 0.10737 1.36500
W 	W 	0.76661 0.33239 0.86542 1.40200
W 	W 	0.76503 0.34068 0.32678 1.39500
W 	W 	0.86667 0.34129 0.18231 1.06800
Co	Co	0.74085 0.60895 0.10090 1.16700
O 	O 	0.69880 0.39380 0.08850 -0.49100
O 	O 	0.87590 0.31760 0.04410 -0.48200
O 	O 	0.73890 0.61590 0.26260 -0.55600
O 	O 	0.74250 0.62810 0.94700 -0.57200
O 	O 	0.70060 0.33050 0.91170 -0.51000
O 	O 	0.83650 0.31570 0.85570 -0.48700
O 	O 	0.83630 0.42210 0.13500 -0.45900
O 	O 	0.69920 0.31520 0.29700 -0.50000
O 	O 	0.62620 0.31770 0.15620 -0.45200
O 	O 	0.83550 0.35480 0.31200 -0.48000
O 	O 	0.77820 0.39430 0.97030 -0.51600
O 	O 	0.75430 0.42200 0.25200 -0.48300
O 	O 	0.78140 0.31320 0.15500 -0.76200
O 	O 	0.75800 0.50780 0.08920 -0.52100
C 	C 	0.53410 0.58270 0.18570 0.07800
C 	C 	0.52640 0.64350 0.23760 -0.06400
H 	H 	0.55010 0.67760 0.23530 0.04300
C 	C 	0.49830 0.53290 0.18530 -0.07400
H 	H 	0.50350 0.49310 0.14960 0.05200
C 	C 	0.58730 0.53410 0.05600 0.01100
H 	H 	0.56300 0.50920 0.02270 0.01700
C 	C 	0.63780 0.53800 0.02900 0.00700
H 	H 	0.65250 0.51440 0.97510 0.02400
C 	C 	0.62470 0.59890 0.16660 0.06100
H 	H 	0.62920 0.62480 0.22540 0.01800
C 	C 	0.48120 0.65100 0.29400 -0.10200
H 	H 	0.47630 0.68930 0.33330 0.05900
C 	C 	0.45240 0.54420 0.24220 -0.09700
H 	H 	0.42790 0.51120 0.24550 0.06000
C 	C 	0.44580 0.60460 0.29090 0.10300
C 	C 	0.35330 0.59850 0.32000 0.09500
H 	H 	0.34470 0.57420 0.26150 0.00200
C 	C 	0.39810 0.65530 0.43490 -0.01700
H 	H 	0.42390 0.67600 0.47070 0.02400
N 	N 	0.31900 0.62190 0.39210 -0.22100
N 	N 	0.40090 0.61560 0.34550 -0.13600
C 	C 	0.34720 0.65610 0.45650 0.03100
H 	H 	0.33400 0.67910 0.51260 0.00300
N 	N 	0.66310 0.58190 0.09370 -0.20800
N 	N 	0.58050 0.57120 0.13600 -0.13200
W 	W 	0.84564 0.83274 0.52234 1.08300
W 	W 	0.73477 0.92306 0.60737 1.36700
W 	W 	0.73339 0.83239 0.36542 1.40200
W 	W 	0.73497 0.84068 0.82678 1.39500
W 	W 	0.63333 0.84129 0.68231 1.06800
Co	Co	0.75915 0.10895 0.60090 1.16700
O 	O 	0.80120 0.89380 0.58850 -0.49100
O 	O 	0.62410 0.81760 0.54410 -0.48000
O 	O 	0.76110 0.11590 0.76260 -0.55600
O 	O 	0.75750 0.12810 0.44700 -0.57300
O 	O 	0.79940 0.83050 0.41170 -0.51200
O 	O 	0.66350 0.81570 0.35570 -0.48600
O 	O 	0.66370 0.92210 0.63500 -0.45900
O 	O 	0.80080 0.81520 0.79700 -0.50000
O 	O 	0.87380 0.81770 0.65620 -0.45200
O 	O 	0.66450 0.85480 0.81200 -0.48000
O 	O 	0.72180 0.89430 0.47030 -0.51800
O 	O 	0.74570 0.92200 0.75200 -0.48400
O 	O 	0.71860 0.81320 0.65500 -0.76300
O 	O 	0.74200 0.00780 0.58920 -0.52000
C 	C 	0.96590 0.08270 0.68570 0.07700
C 	C 	0.97360 0.14350 0.73760 -0.06200
H 	H 	0.94990 0.17760 0.73530 0.04200
C 	C 	0.00170 0.03290 0.68530 -0.07300
H 	H 	0.99650 0.99310 0.64960 0.05100
C 	C 	0.91270 0.03410 0.55600 0.01000
H 	H 	0.93700 0.00920 0.52270 0.01800
C 	C 	0.86220 0.03800 0.52900 0.01000
H 	H 	0.84750 0.01440 0.47510 0.02100
C 	C 	0.87530 0.09890 0.66660 0.06100
H 	H 	0.87080 0.12480 0.72540 0.01900
C 	C 	0.01880 0.15100 0.79400 -0.10400
H 	H 	0.02370 0.18930 0.83330 0.05900
C 	C 	0.04760 0.04420 0.74220 -0.09800
H 	H 	0.07210 0.01120 0.74550 0.06000
C 	C 	0.05420 0.10460 0.79090 0.10400
C 	C 	0.14670 0.09850 0.82000 0.09500
H 	H 	0.15530 0.07420 0.76150 0.00200
C 	C 	0.10190 0.15530 0.93490 -0.01700
H 	H 	0.07610 0.17600 0.97070 0.02400
N 	N 	0.18100 0.12190 0.89210 -0.22100
N 	N 	0.09910 0.11560 0.84550 -0.13700
C 	C 	0.15280 0.15610 0.95650 0.03100
H 	H 	0.16600 0.17910 0.01260 0.00300
N 	N 	0.83690 0.08190 0.59370 -0.20900
N 	N 	0.91950 0.07120 0.63600 -0.13200
W 	W 	0.65436 0.16726 0.02234 1.07600
W 	W 	0.76523 0.07694 0.10737 1.36000
W 	W 	0.76661 0.16761 0.86542 1.40100
W 	W 	0.76503 0.15932 0.32678 1.39500
W 	W 	0.86667 0.15871 0.18231 1.06800
Co	Co	0.74085 0.89105 0.10090 1.16800
O 	O 	0.69880 0.10620 0.08850 -0.49100
O 	O 	0.87590 0.18240 0.04410 -0.48300
O 	O 	0.73890 0.88410 0.26260 -0.55600
O 	O 	0.74250 0.87190 0.94700 -0.57300
O 	O 	0.70060 0.16950 0.91170 -0.51000
O 	O 	0.83650 0.18430 0.85570 -0.48600
O 	O 	0.83630 0.07790 0.13500 -0.45900
O 	O 	0.69920 0.18480 0.29700 -0.50000
O 	O 	0.62620 0.18230 0.15620 -0.45200
O 	O 	0.83550 0.14520 0.31200 -0.48000
O 	O 	0.77820 0.10570 0.97030 -0.51500
O 	O 	0.75430 0.07800 0.25200 -0.48300
O 	O 	0.78140 0.18680 0.15500 -0.76200
O 	O 	0.75800 0.99220 0.08920 -0.51800
C 	C 	0.53410 0.91730 0.18570 0.07500
C 	C 	0.52640 0.85650 0.23760 -0.06100
H 	H 	0.55010 0.82240 0.23530 0.04200
C 	C 	0.49830 0.96710 0.18530 -0.06700
H 	H 	0.50350 0.00690 0.14960 0.04700
C 	C 	0.58730 0.96590 0.05600 0.00800
H 	H 	0.56300 0.99080 0.02270 0.02000
C 	C 	0.63780 0.96200 0.02900 0.01500
H 	H 	0.65250 0.98560 0.97510 0.01900
C 	C 	0.62470 0.90110 0.16660 0.06000
H 	H 	0.62920 0.87520 0.22540 0.01900
C 	C 	0.48120 0.84900 0.29400 -0.10400
H 	H 	0.47630 0.81070 0.33330 0.06000
C 	C 	0.45240 0.95580 0.24220 -0.10100
H 	H 	0.42790 0.98880 0.24550 0.06100
C 	C 	0.44580 0.89540 0.29090 0.10600
C 	C 	0.35330 0.90150 0.32000 0.09500
H 	H 	0.34470 0.92580 0.26150 0.00200
C 	C 	0.39810 0.84470 0.43490 -0.01700
H 	H 	0.42390 0.82400 0.47070 0.02400
N 	N 	0.31900 0.87810 0.39210 -0.22100
N 	N 	0.40090 0.88440 0.34550 -0.13700
C 	C 	0.34720 0.84390 0.45650 0.03100
H 	H 	0.33400 0.82090 0.51260 0.00300
N 	N 	0.66310 0.91810 0.09370 -0.20900
N 	N 	0.58050 0.92880 0.13600 -0.13100
W 	W 	0.15436 0.33274 0.47766 1.08300
W 	W 	0.26523 0.42306 0.39263 1.36700
W 	W 	0.26661 0.33239 0.63458 1.40200
W 	W 	0.26503 0.34068 0.17322 1.39500
W 	W 	0.36667 0.34129 0.31769 1.06900
Co	Co	0.24085 0.60895 0.39910 1.16700
O 	O 	0.19880 0.39380 0.41150 -0.49100
O 	O 	0.37590 0.31760 0.45590 -0.48000
O 	O 	0.23890 0.61590 0.23740 -0.55600
O 	O 	0.24250 0.62810 0.55300 -0.57300
O 	O 	0.20060 0.33050 0.58830 -0.51200
O 	O 	0.33650 0.31570 0.64430 -0.48600
O 	O 	0.33630 0.42210 0.36500 -0.45800
O 	O 	0.19920 0.31520 0.20300 -0.50000
O 	O 	0.12620 0.31770 0.34380 -0.45200
O 	O 	0.33550 0.35480 0.18800 -0.48000
O 	O 	0.27820 0.39430 0.52970 -0.51800
O 	O 	0.25430 0.42200 0.24800 -0.48300
O 	O 	0.28140 0.31320 0.34500 -0.76300
O 	O 	0.25800 0.50780 0.41080 -0.52000
C 	C 	0.03410 0.58270 0.31430 0.07900
C 	C 	0.02640 0.64350 0.26240 -0.06300
H 	H 	0.05010 0.67760 0.26470 0.04200
C 	C 	0.99830 0.53290 0.31470 -0.07600
H 	H 	0.00350 0.49310 0.35040 0.05300
C 	C 	0.08730 0.53410 0.44400 0.01000
H 	H 	0.06300 0.50920 0.47730 0.01800
C 	C 	0.13780 0.53800 0.47100 0.01000
H 	H 	0.15250 0.51440 0.52490 0.02200
C 	C 	0.12470 0.59890 0.33340 0.06100
H 	H 	0.12920 0.62480 0.27460 0.01800
C 	C 	0.98120 0.65100 0.20600 -0.10300
H 	H 	0.97630 0.68930 0.16670 0.05900
C 	C 	0.95240 0.54420 0.25780 -0.09600
H 	H 	0.92790 0.51120 0.25450 0.05900
C 	C 	0.94580 0.60460 0.20910 0.10300
C 	C 	0.85330 0.59850 0.18000 0.09500
H 	H 	0.84470 0.57420 0.23850 0.00200
C 	C 	0.89810 0.65530 0.06510 -0.01700
H 	H 	0.92390 0.67600 0.02930 0.02400
N 	N 	0.81900 0.62190 0.10790 -0.22000
N 	N 	0.90090 0.61560 0.15450 -0.13700
C 	C 	0.84720 0.65610 0.04350 0.02900
H 	H 	0.83400 0.67910 0.98740 0.00400
N 	N 	0.16310 0.58190 0.40630 -0.20900
N 	N 	0.08050 0.57120 0.36400 -0.13200
W 	W 	0.34564 0.66726 0.97766 1.07800
W 	W 	0.23477 0.57694 0.89263 1.36500
W 	W 	0.23339 0.66761 0.13458 1.40200
W 	W 	0.23497 0.65932 0.67322 1.39500
W 	W 	0.13333 0.65871 0.81769 1.06800
Co	Co	0.25915 0.39105 0.89910 1.16700
O 	O 	0.30120 0.60620 0.91150 -0.49100
O 	O 	0.12410 0.68240 0.95590 -0.48200
O 	O 	0.26110 0.38410 0.73740 -0.55600
O 	O 	0.25750 0.37190 0.05300 -0.57200
O 	O 	0.29940 0.66950 0.08830 -0.51000
O 	O 	0.16350 0.68430 0.14430 -0.48700
O 	O 	0.16370 0.57790 0.86500 -0.45900
O 	O 	0.30080 0.68480 0.70300 -0.50000
O 	O 	0.37380 0.68230 0.84380 -0.45200
O 	O 	0.16450 0.64520 0.68800 -0.48000
O 	O 	0.22180 0.60570 0.02970 -0.51600
O 	O 	0.24570 0.57800 0.74800 -0.48300
O 	O 	0.21860 0.68680 0.84500 -0.76200
O 	O 	0.24200 0.49220 0.91080 -0.52100
C 	C 	0.46590 0.41730 0.81430 0.07800
C 	C 	0.47360 0.35650 0.76240 -0.06400
H 	H 	0.44990 0.32240 0.76470 0.04300
C 	C 	0.50170 0.46710 0.81470 -0.07400
H 	H 	0.49650 0.50690 0.85040 0.05200
C 	C 	0.41270 0.46590 0.94400 0.01100
H 	H 	0.43700 0.49080 0.97730 0.01700
C 	C 	0.36220 0.46200 0.97100 0.00700
H 	H 	0.34750 0.48560 0.02490 0.02400
C 	C 	0.37530 0.40110 0.83340 0.06100
H 	H 	0.37080 0.37520 0.77460 0.01800
C 	C 	0.51880 0.34900 0.70600 -0.10200
H 	H 	0.52370 0.31070 0.66670 0.05900
C 	C 	0.54760 0.45580 0.75780 -0.09700
H 	H 	0.57210 0.48880 0.75450 0.06000
C 	C 	0.55420 0.39540 0.70910 0.10300
C 	C 	0.64670 0.40150 0.68000 0.09500
H 	H 	0.65530 0.42580 0.73850 0.00200
C 	C 	0.60190 0.34470 0.56510 -0.01700
H 	H 	0.57610 0.32400 0.52930 0.02400
N 	N 	0.68100 0.37810 0.60790 -0.22100
N 	N 	0.59910 0.38440 0.65450 -0.13600
C 	C 	0.65280 0.34390 0.54350 0.03100
H 	H 	0.66600 0.32090 0.48740 0.00300
N 	N 	0.33690 0.41810 0.90630 -0.20800
N 	N 	0.41950 0.42880 0.86400 -0.13200
W 	W 	0.15367 0.25000 0.25651 1.06700
W 	W 	0.36756 0.25000 0.56014 1.05400
B 	B 	0.26280 0.25000 0.40100 1.72000
O 	O 	0.12580 0.25000 0.52060 -0.46200
O 	O 	0.25520 0.25000 0.70710 -0.53300
O 	O 	0.28250 0.25000 0.51330 -0.76000
O 	O 	0.20630 0.25000 0.40280 -0.73700
O 	O 	0.37580 0.25000 0.28200 -0.48600
O 	O 	0.27770 0.25000 0.14280 -0.55000
W 	W 	0.34633 0.75000 0.75651 1.06700
W 	W 	0.13244 0.75000 0.06014 1.06000
B 	B 	0.23720 0.75000 0.90100 1.71500
O 	O 	0.37420 0.75000 0.02060 -0.45800
O 	O 	0.24480 0.75000 0.20710 -0.53300
O 	O 	0.21750 0.75000 0.01330 -0.75700
O 	O 	0.29370 0.75000 0.90280 -0.73600
O 	O 	0.12420 0.75000 0.78200 -0.48600
O 	O 	0.22230 0.75000 0.64280 -0.55000
W 	W 	0.84633 0.75000 0.74349 1.06700
W 	W 	0.63244 0.75000 0.43986 1.05400
B 	B 	0.73720 0.75000 0.59900 1.72000
O 	O 	0.87420 0.75000 0.47940 -0.46200
O 	O 	0.74480 0.75000 0.29290 -0.53300
O 	O 	0.71750 0.75000 0.48670 -0.76000
O 	O 	0.79370 0.75000 0.59720 -0.73700
O 	O 	0.62420 0.75000 0.71800 -0.48600
O 	O 	0.72230 0.75000 0.85720 -0.55000
W 	W 	0.65367 0.25000 0.24349 1.06700
W 	W 	0.86756 0.25000 0.93986 1.06000
B 	B 	0.76280 0.25000 0.09900 1.71500
O 	O 	0.62580 0.25000 0.97940 -0.45800
O 	O 	0.75520 0.25000 0.79290 -0.53300
O 	O 	0.78250 0.25000 0.98670 -0.75700
O 	O 	0.70630 0.25000 0.09720 -0.73600
O 	O 	0.87580 0.25000 0.21800 -0.48600
O 	O 	0.77770 0.25000 0.35720 -0.55000
