data_crystal

_cell_length_a 26.54800
_cell_length_b 20.07600
_cell_length_c 12.96400
_cell_angle_alpha 90.00000
_cell_angle_beta  90.00000
_cell_angle_gamma 90.00000

_symmetry_space_group_name_	'P 1'
_symmetry_space_group_name_H-M	'P 1'

loop_
_symmetry_equiv_pos_as_xyz
  x,y,z

loop_
_atom_site_label
_atom_site_type_symbol
_atom_site_fract_x
_atom_site_fract_y
_atom_site_fract_z
_atom_site_charge
Co	Co	0.74075 0.10694 0.59660 1.17000
W 	W 	0.84708 0.16718 0.01567 1.01900
W 	W 	0.73305 0.07704 0.10493 1.32400
W 	W 	0.73107 0.16945 0.85936 1.28600
W 	W 	0.63182 0.15782 0.18144 1.01200
W 	W 	0.73380 0.15814 0.32371 1.31600
N 	N 	0.66160 0.08110 0.58760 -0.21600
O 	O 	0.74570 0.07490 0.24830 -0.46200
O 	O 	0.80020 0.10750 0.08420 -0.45100
O 	O 	0.80050 0.31530 0.28900 -0.45800
O 	O 	0.66240 0.14150 0.31450 -0.45600
O 	O 	0.87610 0.18260 0.15110 -0.43100
O 	O 	0.65920 0.18210 0.84590 -0.45600
O 	O 	0.66170 0.07520 0.13290 -0.44500
O 	O 	0.71420 0.17830 0.16100 -0.37000
O 	O 	0.79890 0.17220 0.90740 -0.46000
O 	O 	0.74320 0.12780 0.44540 -0.56100
O 	O 	0.71960 0.10850 0.96930 -0.47000
O 	O 	0.62390 0.18480 0.04090 -0.44200
O 	O 	0.74150 0.99290 0.08450 -0.51400
C 	C 	0.63850 0.03550 0.52310 0.02100
H 	H 	0.65460 0.01200 0.47070 0.01700
N 	N 	0.58030 0.07240 0.62860 -0.13200
C 	C 	0.53420 0.08340 0.68190 0.08400
C 	C 	0.45280 0.04440 0.73830 -0.09400
H 	H 	0.42790 0.01190 0.74030 0.05900
C 	C 	0.49800 0.03310 0.68540 -0.07300
H 	H 	0.50380 0.99250 0.65300 0.05200
C 	C 	0.44590 0.10410 0.78710 0.09700
C 	C 	0.62590 0.09990 0.65300 0.08600
H 	H 	0.63130 0.12830 0.70860 0.00800
C 	C 	0.48050 0.15220 0.78400 -0.09400
H 	H 	0.47410 0.19290 0.81520 0.05800
C 	C 	0.52730 0.14170 0.73100 -0.07500
H 	H 	0.55220 0.17420 0.73180 0.04900
C 	C 	0.58990 0.03010 0.54700 -0.01000
H 	H 	0.56650 0.00260 0.51450 0.02500
N 	N 	0.40110 0.11860 0.84450 -0.13700
C 	C 	0.34820 0.15680 0.96220 0.01700
H 	H 	0.33550 0.17860 0.01990 0.00800
C 	C 	0.39820 0.15720 0.93440 -0.00900
H 	H 	0.42450 0.17860 0.96810 0.02200
N 	N 	0.31980 0.12080 0.89570 -0.21800
C 	C 	0.35300 0.09890 0.82360 0.10100
H 	H 	0.34390 0.07340 0.76670 -0.00200
O 	O 	0.73720 0.11480 0.75580 -0.52500
Co	Co	0.75925 0.89306 0.09660 1.16900
W 	W 	0.65292 0.83282 0.51567 1.02500
W 	W 	0.76695 0.92296 0.60493 1.32800
W 	W 	0.76893 0.83055 0.35936 1.28600
W 	W 	0.86818 0.84218 0.68144 1.01200
W 	W 	0.76620 0.84186 0.82371 1.31500
N 	N 	0.83840 0.91890 0.08760 -0.21600
O 	O 	0.75430 0.92510 0.74830 -0.46200
O 	O 	0.69980 0.89250 0.58420 -0.45100
O 	O 	0.69950 0.68470 0.78900 -0.45800
O 	O 	0.83760 0.85850 0.81450 -0.45600
O 	O 	0.62390 0.81740 0.65110 -0.43100
O 	O 	0.84080 0.81790 0.34590 -0.45600
O 	O 	0.83830 0.92480 0.63290 -0.44400
O 	O 	0.78580 0.82170 0.66100 -0.37000
O 	O 	0.70110 0.82780 0.40740 -0.46300
O 	O 	0.75680 0.87220 0.94540 -0.56000
O 	O 	0.78040 0.89150 0.46930 -0.47300
O 	O 	0.87610 0.81520 0.54090 -0.44000
O 	O 	0.75850 0.00710 0.58450 -0.51500
C 	C 	0.86150 0.96450 0.02310 0.02100
H 	H 	0.84540 0.98800 0.97070 0.01800
N 	N 	0.91970 0.92760 0.12860 -0.13100
C 	C 	0.96580 0.91660 0.18190 0.07800
C 	C 	0.04720 0.95560 0.23830 -0.10000
H 	H 	0.07210 0.98810 0.24030 0.06200
C 	C 	0.00200 0.96690 0.18540 -0.06000
H 	H 	0.99620 0.00750 0.15300 0.04600
C 	C 	0.05410 0.89590 0.28710 0.10000
C 	C 	0.87410 0.90010 0.15300 0.08500
H 	H 	0.86870 0.87170 0.20860 0.00800
C 	C 	0.01950 0.84780 0.28400 -0.09600
H 	H 	0.02590 0.80710 0.31520 0.05800
C 	C 	0.97270 0.85830 0.23100 -0.07300
H 	H 	0.94780 0.82580 0.23180 0.04800
C 	C 	0.91010 0.96990 0.04700 -0.01000
H 	H 	0.93350 0.99740 0.01450 0.02500
N 	N 	0.09890 0.88140 0.34450 -0.13700
C 	C 	0.15180 0.84320 0.46220 0.01700
H 	H 	0.16450 0.82140 0.51990 0.00800
C 	C 	0.10180 0.84280 0.43440 -0.00900
H 	H 	0.07550 0.82140 0.46810 0.02200
N 	N 	0.18020 0.87920 0.39570 -0.21800
C 	C 	0.14700 0.90110 0.32360 0.10100
H 	H 	0.15610 0.92660 0.26670 -0.00100
O 	O 	0.76280 0.88520 0.25580 -0.52500
Co	Co	0.25925 0.60694 0.40340 1.16900
W 	W 	0.15292 0.66718 0.98433 1.01900
W 	W 	0.26695 0.57704 0.89507 1.32600
W 	W 	0.26893 0.66945 0.14064 1.28500
W 	W 	0.36818 0.65782 0.81856 1.01200
W 	W 	0.26620 0.65814 0.67629 1.31500
N 	N 	0.33840 0.58110 0.41240 -0.21600
O 	O 	0.25430 0.57490 0.75170 -0.46200
O 	O 	0.19980 0.60750 0.91580 -0.45100
O 	O 	0.19950 0.81530 0.71100 -0.45800
O 	O 	0.33760 0.64150 0.68550 -0.45600
O 	O 	0.12390 0.68260 0.84890 -0.43100
O 	O 	0.34080 0.68210 0.15410 -0.45700
O 	O 	0.33830 0.57520 0.86710 -0.44400
O 	O 	0.28580 0.67830 0.83900 -0.37000
O 	O 	0.20110 0.67220 0.09260 -0.46100
O 	O 	0.25680 0.62780 0.55460 -0.56100
O 	O 	0.28040 0.60850 0.03070 -0.47100
O 	O 	0.37610 0.68480 0.95910 -0.44200
O 	O 	0.25850 0.49290 0.91550 -0.51600
C 	C 	0.36150 0.53550 0.47690 0.02100
H 	H 	0.34540 0.51200 0.52930 0.01800
N 	N 	0.41970 0.57240 0.37140 -0.13200
C 	C 	0.46580 0.58340 0.31810 0.08500
C 	C 	0.54720 0.54440 0.26170 -0.09300
H 	H 	0.57210 0.51190 0.25970 0.05800
C 	C 	0.50200 0.53310 0.31460 -0.07500
H 	H 	0.49620 0.49250 0.34700 0.05300
C 	C 	0.55410 0.60410 0.21290 0.09600
C 	C 	0.37410 0.59990 0.34700 0.08600
H 	H 	0.36870 0.62830 0.29140 0.00800
C 	C 	0.51950 0.65220 0.21600 -0.09400
H 	H 	0.52590 0.69290 0.18480 0.05700
C 	C 	0.47270 0.64170 0.26900 -0.07600
H 	H 	0.44780 0.67420 0.26820 0.04900
C 	C 	0.41010 0.53010 0.45300 -0.01000
H 	H 	0.43350 0.50260 0.48550 0.02500
N 	N 	0.59890 0.61860 0.15550 -0.13700
C 	C 	0.65180 0.65680 0.03780 0.01500
H 	H 	0.66450 0.67860 0.98010 0.01000
C 	C 	0.60180 0.65720 0.06560 -0.00800
H 	H 	0.57550 0.67860 0.03190 0.02200
N 	N 	0.68020 0.62080 0.10430 -0.21800
C 	C 	0.64700 0.59890 0.17640 0.10100
H 	H 	0.65610 0.57340 0.23330 -0.00200
O 	O 	0.26280 0.61480 0.24420 -0.52500
Co	Co	0.24075 0.39306 0.90340 1.16900
W 	W 	0.34708 0.33282 0.48433 1.02500
W 	W 	0.23305 0.42296 0.39507 1.32800
W 	W 	0.23107 0.33055 0.64064 1.28600
W 	W 	0.13182 0.34218 0.31856 1.01200
W 	W 	0.23380 0.34186 0.17629 1.31500
N 	N 	0.16160 0.41890 0.91240 -0.21600
O 	O 	0.24570 0.42510 0.25170 -0.46200
O 	O 	0.30020 0.39250 0.41580 -0.45100
O 	O 	0.30050 0.18470 0.21100 -0.45800
O 	O 	0.16240 0.35850 0.18550 -0.45600
O 	O 	0.37610 0.31740 0.34890 -0.43100
O 	O 	0.15920 0.31790 0.65410 -0.45600
O 	O 	0.16170 0.42480 0.36710 -0.44400
O 	O 	0.21420 0.32170 0.33900 -0.37000
O 	O 	0.29890 0.32780 0.59260 -0.46300
O 	O 	0.24320 0.37220 0.05460 -0.56000
O 	O 	0.21960 0.39150 0.53070 -0.47300
O 	O 	0.12390 0.31520 0.45910 -0.44000
O 	O 	0.24150 0.50710 0.41550 -0.51500
C 	C 	0.13850 0.46450 0.97690 0.01500
H 	H 	0.15460 0.48800 0.02930 0.02200
N 	N 	0.08030 0.42760 0.87140 -0.13200
C 	C 	0.03420 0.41660 0.81810 0.08100
C 	C 	0.95280 0.45560 0.76170 -0.09700
H 	H 	0.92790 0.48810 0.75970 0.06000
C 	C 	0.99800 0.46690 0.81460 -0.06600
H 	H 	0.00380 0.50750 0.84700 0.04900
C 	C 	0.94590 0.39590 0.71290 0.09800
C 	C 	0.12590 0.40010 0.84700 0.08500
H 	H 	0.13130 0.37170 0.79140 0.00800
C 	C 	0.98050 0.34780 0.71600 -0.09400
H 	H 	0.97410 0.30710 0.68480 0.05800
C 	C 	0.02730 0.35830 0.76900 -0.07500
H 	H 	0.05220 0.32580 0.76820 0.04900
C 	C 	0.08990 0.46990 0.95300 -0.00700
H 	H 	0.06650 0.49740 0.98550 0.02300
N 	N 	0.90110 0.38140 0.65550 -0.13700
C 	C 	0.84820 0.34320 0.53780 0.01700
H 	H 	0.83550 0.32140 0.48010 0.00800
C 	C 	0.89820 0.34280 0.56560 -0.00900
H 	H 	0.92450 0.32140 0.53190 0.02200
N 	N 	0.81980 0.37920 0.60430 -0.21800
C 	C 	0.85300 0.40110 0.67640 0.10100
H 	H 	0.84390 0.42660 0.73330 -0.00100
O 	O 	0.23720 0.38520 0.74420 -0.52500
Co	Co	0.25925 0.89306 0.40340 1.16900
W 	W 	0.15292 0.83282 0.98433 1.01800
W 	W 	0.26695 0.92296 0.89507 1.32300
W 	W 	0.26893 0.83055 0.14064 1.28500
W 	W 	0.36818 0.84218 0.81856 1.01100
W 	W 	0.26620 0.84186 0.67629 1.31500
N 	N 	0.33840 0.91890 0.41240 -0.21600
O 	O 	0.25430 0.92510 0.75170 -0.46200
O 	O 	0.19980 0.89250 0.91580 -0.45100
O 	O 	0.19950 0.68470 0.71100 -0.45800
O 	O 	0.33760 0.85850 0.68550 -0.45600
O 	O 	0.12390 0.81740 0.84890 -0.43100
O 	O 	0.34080 0.81790 0.15410 -0.45600
O 	O 	0.33830 0.92480 0.86710 -0.44500
O 	O 	0.28580 0.82170 0.83900 -0.37000
O 	O 	0.20110 0.82780 0.09260 -0.46000
O 	O 	0.25680 0.87220 0.55460 -0.56100
O 	O 	0.28040 0.89150 0.03070 -0.47000
O 	O 	0.37610 0.81520 0.95910 -0.44200
O 	O 	0.25850 0.00710 0.91550 -0.51400
C 	C 	0.36150 0.96450 0.47690 0.02100
H 	H 	0.34540 0.98800 0.52930 0.01700
N 	N 	0.41970 0.92760 0.37140 -0.13200
C 	C 	0.46580 0.91660 0.31810 0.08400
C 	C 	0.54720 0.95560 0.26170 -0.09400
H 	H 	0.57210 0.98810 0.25970 0.05900
C 	C 	0.50200 0.96690 0.31460 -0.07300
H 	H 	0.49620 0.00750 0.34700 0.05200
C 	C 	0.55410 0.89590 0.21290 0.09700
C 	C 	0.37410 0.90010 0.34700 0.08600
H 	H 	0.36870 0.87170 0.29140 0.00800
C 	C 	0.51950 0.84780 0.21600 -0.09400
H 	H 	0.52590 0.80710 0.18480 0.05800
C 	C 	0.47270 0.85830 0.26900 -0.07500
H 	H 	0.44780 0.82580 0.26820 0.04900
C 	C 	0.41010 0.96990 0.45300 -0.01000
H 	H 	0.43350 0.99740 0.48550 0.02500
N 	N 	0.59890 0.88140 0.15550 -0.13700
C 	C 	0.65180 0.84320 0.03780 0.01700
H 	H 	0.66450 0.82140 0.98010 0.00800
C 	C 	0.60180 0.84280 0.06560 -0.00900
H 	H 	0.57550 0.82140 0.03190 0.02200
N 	N 	0.68020 0.87920 0.10430 -0.21800
C 	C 	0.64700 0.90110 0.17640 0.10100
H 	H 	0.65610 0.92660 0.23330 -0.00200
O 	O 	0.26280 0.88520 0.24420 -0.52500
Co	Co	0.24075 0.10694 0.90340 1.16900
W 	W 	0.34708 0.16718 0.48433 1.02500
W 	W 	0.23305 0.07704 0.39507 1.32800
W 	W 	0.23107 0.16945 0.64064 1.28600
W 	W 	0.13182 0.15782 0.31856 1.01200
W 	W 	0.23380 0.15814 0.17629 1.31500
N 	N 	0.16160 0.08110 0.91240 -0.21600
O 	O 	0.24570 0.07490 0.25170 -0.46200
O 	O 	0.30020 0.10750 0.41580 -0.45100
O 	O 	0.30050 0.31530 0.21100 -0.45800
O 	O 	0.16240 0.14150 0.18550 -0.45600
O 	O 	0.37610 0.18260 0.34890 -0.43100
O 	O 	0.15920 0.18210 0.65410 -0.45600
O 	O 	0.16170 0.07520 0.36710 -0.44400
O 	O 	0.21420 0.17830 0.33900 -0.37000
O 	O 	0.29890 0.17220 0.59260 -0.46300
O 	O 	0.24320 0.12780 0.05460 -0.56000
O 	O 	0.21960 0.10850 0.53070 -0.47300
O 	O 	0.12390 0.18480 0.45910 -0.44000
O 	O 	0.24150 0.99290 0.41550 -0.51500
C 	C 	0.13850 0.03550 0.97690 0.02100
H 	H 	0.15460 0.01200 0.02930 0.01800
N 	N 	0.08030 0.07240 0.87140 -0.13100
C 	C 	0.03420 0.08340 0.81810 0.07800
C 	C 	0.95280 0.04440 0.76170 -0.10000
H 	H 	0.92790 0.01190 0.75970 0.06200
C 	C 	0.99800 0.03310 0.81460 -0.06000
H 	H 	0.00380 0.99250 0.84700 0.04600
C 	C 	0.94590 0.10410 0.71290 0.10000
C 	C 	0.12590 0.09990 0.84700 0.08500
H 	H 	0.13130 0.12830 0.79140 0.00800
C 	C 	0.98050 0.15220 0.71600 -0.09600
H 	H 	0.97410 0.19290 0.68480 0.05800
C 	C 	0.02730 0.14170 0.76900 -0.07300
H 	H 	0.05220 0.17420 0.76820 0.04800
C 	C 	0.08990 0.03010 0.95300 -0.01000
H 	H 	0.06650 0.00260 0.98550 0.02500
N 	N 	0.90110 0.11860 0.65550 -0.13700
C 	C 	0.84820 0.15680 0.53780 0.01700
H 	H 	0.83550 0.17860 0.48010 0.00800
C 	C 	0.89820 0.15720 0.56560 -0.00900
H 	H 	0.92450 0.17860 0.53190 0.02200
N 	N 	0.81980 0.12080 0.60430 -0.21800
C 	C 	0.85300 0.09890 0.67640 0.10100
H 	H 	0.84390 0.07340 0.73330 -0.00100
O 	O 	0.23720 0.11480 0.74420 -0.52500
Co	Co	0.74075 0.39306 0.59660 1.16900
W 	W 	0.84708 0.33282 0.01567 1.01900
W 	W 	0.73305 0.42296 0.10493 1.32600
W 	W 	0.73107 0.33055 0.85936 1.28500
W 	W 	0.63182 0.34218 0.18144 1.01200
W 	W 	0.73380 0.34186 0.32371 1.31500
N 	N 	0.66160 0.41890 0.58760 -0.21600
O 	O 	0.74570 0.42510 0.24830 -0.46200
O 	O 	0.80020 0.39250 0.08420 -0.45100
O 	O 	0.80050 0.18470 0.28900 -0.45800
O 	O 	0.66240 0.35850 0.31450 -0.45600
O 	O 	0.87610 0.31740 0.15110 -0.43100
O 	O 	0.65920 0.31790 0.84590 -0.45700
O 	O 	0.66170 0.42480 0.13290 -0.44400
O 	O 	0.71420 0.32170 0.16100 -0.37000
O 	O 	0.79890 0.32780 0.90740 -0.46100
O 	O 	0.74320 0.37220 0.44540 -0.56100
O 	O 	0.71960 0.39150 0.96930 -0.47100
O 	O 	0.62390 0.31520 0.04090 -0.44200
O 	O 	0.74150 0.50710 0.08450 -0.51600
C 	C 	0.63850 0.46450 0.52310 0.02100
H 	H 	0.65460 0.48800 0.47070 0.01800
N 	N 	0.58030 0.42760 0.62860 -0.13200
C 	C 	0.53420 0.41660 0.68190 0.08500
C 	C 	0.45280 0.45560 0.73830 -0.09300
H 	H 	0.42790 0.48810 0.74030 0.05800
C 	C 	0.49800 0.46690 0.68540 -0.07500
H 	H 	0.50380 0.50750 0.65300 0.05300
C 	C 	0.44590 0.39590 0.78710 0.09600
C 	C 	0.62590 0.40010 0.65300 0.08600
H 	H 	0.63130 0.37170 0.70860 0.00800
C 	C 	0.48050 0.34780 0.78400 -0.09400
H 	H 	0.47410 0.30710 0.81520 0.05700
C 	C 	0.52730 0.35830 0.73100 -0.07600
H 	H 	0.55220 0.32580 0.73180 0.04900
C 	C 	0.58990 0.46990 0.54700 -0.01000
H 	H 	0.56650 0.49740 0.51450 0.02500
N 	N 	0.40110 0.38140 0.84450 -0.13700
C 	C 	0.34820 0.34320 0.96220 0.01500
H 	H 	0.33550 0.32140 0.01990 0.01000
C 	C 	0.39820 0.34280 0.93440 -0.00800
H 	H 	0.42450 0.32140 0.96810 0.02200
N 	N 	0.31980 0.37920 0.89570 -0.21800
C 	C 	0.35300 0.40110 0.82360 0.10100
H 	H 	0.34390 0.42660 0.76670 -0.00200
O 	O 	0.73720 0.38520 0.75580 -0.52500
Co	Co	0.75925 0.60694 0.09660 1.16900
W 	W 	0.65292 0.66718 0.51567 1.02500
W 	W 	0.76695 0.57704 0.60493 1.32800
W 	W 	0.76893 0.66945 0.35936 1.28600
W 	W 	0.86818 0.65782 0.68144 1.01200
W 	W 	0.76620 0.65814 0.82371 1.31500
N 	N 	0.83840 0.58110 0.08760 -0.21600
O 	O 	0.75430 0.57490 0.74830 -0.46200
O 	O 	0.69980 0.60750 0.58420 -0.45100
O 	O 	0.69950 0.81530 0.78900 -0.45800
O 	O 	0.83760 0.64150 0.81450 -0.45600
O 	O 	0.62390 0.68260 0.65110 -0.43100
O 	O 	0.84080 0.68210 0.34590 -0.45600
O 	O 	0.83830 0.57520 0.63290 -0.44400
O 	O 	0.78580 0.67830 0.66100 -0.37000
O 	O 	0.70110 0.67220 0.40740 -0.46300
O 	O 	0.75680 0.62780 0.94540 -0.56000
O 	O 	0.78040 0.60850 0.46930 -0.47300
O 	O 	0.87610 0.68480 0.54090 -0.44000
O 	O 	0.75850 0.49290 0.58450 -0.51500
C 	C 	0.86150 0.53550 0.02310 0.01500
H 	H 	0.84540 0.51200 0.97070 0.02200
N 	N 	0.91970 0.57240 0.12860 -0.13200
C 	C 	0.96580 0.58340 0.18190 0.08100
C 	C 	0.04720 0.54440 0.23830 -0.09700
H 	H 	0.07210 0.51190 0.24030 0.06000
C 	C 	0.00200 0.53310 0.18540 -0.06600
H 	H 	0.99620 0.49250 0.15300 0.04900
C 	C 	0.05410 0.60410 0.28710 0.09800
C 	C 	0.87410 0.59990 0.15300 0.08500
H 	H 	0.86870 0.62830 0.20860 0.00800
C 	C 	0.01950 0.65220 0.28400 -0.09400
H 	H 	0.02590 0.69290 0.31520 0.05800
C 	C 	0.97270 0.64170 0.23100 -0.07500
H 	H 	0.94780 0.67420 0.23180 0.04900
C 	C 	0.91010 0.53010 0.04700 -0.00700
H 	H 	0.93350 0.50260 0.01450 0.02300
N 	N 	0.09890 0.61860 0.34450 -0.13700
C 	C 	0.15180 0.65680 0.46220 0.01700
H 	H 	0.16450 0.67860 0.51990 0.00800
C 	C 	0.10180 0.65720 0.43440 -0.00900
H 	H 	0.07550 0.67860 0.46810 0.02200
N 	N 	0.18020 0.62080 0.39570 -0.21800
C 	C 	0.14700 0.59890 0.32360 0.10100
H 	H 	0.15610 0.57340 0.26670 -0.00100
O 	O 	0.76280 0.61480 0.25580 -0.52500
W 	W 	0.84766 0.25000 0.23956 1.01700
W 	W 	0.63104 0.25000 0.93449 1.01700
O 	O 	0.87730 0.25000 0.97310 -0.43200
O 	O 	0.72140 0.25000 0.34930 -0.50400
O 	O 	0.80170 0.25000 0.08910 -0.30500
O 	O 	0.71380 0.25000 0.96480 -0.38600
O 	O 	0.74370 0.25000 0.77910 -0.49600
O 	O 	0.62510 0.25000 0.21390 -0.44800
W 	W 	0.65234 0.75000 0.73956 1.01800
W 	W 	0.86896 0.75000 0.43449 1.01300
O 	O 	0.62270 0.75000 0.47310 -0.43700
O 	O 	0.77860 0.75000 0.84930 -0.50300
O 	O 	0.69830 0.75000 0.58910 -0.30400
O 	O 	0.78620 0.75000 0.46480 -0.38800
O 	O 	0.75630 0.75000 0.27910 -0.49700
O 	O 	0.87490 0.75000 0.71390 -0.44800
W 	W 	0.15234 0.75000 0.76044 1.01700
W 	W 	0.36896 0.75000 0.06551 1.01700
O 	O 	0.12270 0.75000 0.02690 -0.43200
O 	O 	0.27860 0.75000 0.65070 -0.50400
O 	O 	0.19830 0.75000 0.91090 -0.30500
O 	O 	0.28620 0.75000 0.03520 -0.38600
O 	O 	0.25630 0.75000 0.22090 -0.49600
O 	O 	0.37490 0.75000 0.78610 -0.44800
W 	W 	0.34766 0.25000 0.26044 1.01800
W 	W 	0.13104 0.25000 0.56551 1.01300
O 	O 	0.37730 0.25000 0.52690 -0.43700
O 	O 	0.22140 0.25000 0.15070 -0.50300
O 	O 	0.30170 0.25000 0.41090 -0.30400
O 	O 	0.21380 0.25000 0.53520 -0.38800
O 	O 	0.24370 0.25000 0.72090 -0.49700
O 	O 	0.12510 0.25000 0.28610 -0.44800
