data_crystal

_cell_length_a 26.86350
_cell_length_b 20.06270
_cell_length_c 13.11070
_cell_angle_alpha 90.00000
_cell_angle_beta  90.00000
_cell_angle_gamma 90.00000

_symmetry_space_group_name_	'P 1'
_symmetry_space_group_name_H-M	'P 1'

loop_
_symmetry_equiv_pos_as_xyz
  x,y,z

loop_
_atom_site_label
_atom_site_type_symbol
_atom_site_fract_x
_atom_site_fract_y
_atom_site_fract_z
_atom_site_charge
W 	W 	0.26675 0.16699 0.87631 1.32100
W 	W 	0.26703 0.07466 0.12006 1.36800
W 	W 	0.26819 0.15799 0.33997 1.35300
W 	W 	0.36929 0.15759 0.19155 1.02700
W 	W 	0.15442 0.16649 0.03839 1.04500
Co	Co	0.25868 0.10972 0.61350 1.16100
O 	O 	0.37530 0.18450 0.05360 -0.47600
O 	O 	0.20120 0.10740 0.10310 -0.49100
O 	O 	0.27910 0.10830 0.98630 -0.50700
O 	O 	0.33690 0.07590 0.14570 -0.45500
O 	O 	0.25920 0.99190 0.10250 -0.53500
O 	O 	0.26010 0.12720 0.46010 -0.56900
O 	O 	0.33860 0.14420 0.32430 -0.45600
O 	O 	0.25970 0.11390 0.77430 -0.54000
O 	O 	0.33760 0.18290 0.86450 -0.46300
O 	O 	0.25750 0.07620 0.26420 -0.47000
O 	O 	0.20310 0.18570 0.30660 -0.49700
O 	O 	0.28600 0.18010 0.17410 -0.73300
O 	O 	0.20130 0.17160 0.93170 -0.49700
O 	O 	0.12710 0.18200 0.17310 -0.43800
N 	N 	0.33630 0.08200 0.61060 -0.21800
N 	N 	0.68040 0.12400 0.88450 -0.21900
N 	N 	0.41820 0.07090 0.64840 -0.13200
N 	N 	0.59960 0.11880 0.84530 -0.13900
C 	C 	0.37270 0.09840 0.67400 0.08400
H 	H 	0.36800 0.12560 0.73110 0.00600
C 	C 	0.46570 0.08250 0.70000 0.08600
C 	C 	0.47190 0.13780 0.74900 -0.07900
H 	H 	0.44670 0.16960 0.75070 0.04800
C 	C 	0.40810 0.03130 0.56400 -0.00900
H 	H 	0.43120 0.00620 0.52800 0.02200
C 	C 	0.35940 0.03570 0.54400 0.01100
H 	H 	0.34300 0.01170 0.49380 0.01900
C 	C 	0.50240 0.03650 0.69400 -0.07600
H 	H 	0.49700 0.99640 0.66010 0.05000
C 	C 	0.64530 0.10160 0.81700 0.10500
H 	H 	0.65260 0.07750 0.75810 -0.00500
C 	C 	0.65350 0.15620 0.96200 0.00400
H 	H 	0.66750 0.17510 0.02020 0.00900
C 	C 	0.54790 0.04930 0.73900 -0.09200
H 	H 	0.57420 0.01970 0.73050 0.05700
C 	C 	0.55400 0.10540 0.79500 0.09600
C 	C 	0.51630 0.14920 0.79900 -0.08800
H 	H 	0.52030 0.18810 0.83640 0.05300
C 	C 	0.60470 0.15550 0.94030 -0.00900
H 	H 	0.57930 0.17470 0.97830 0.02000
W 	W 	0.23325 0.83301 0.37631 1.32300
W 	W 	0.23297 0.92534 0.62006 1.37600
W 	W 	0.23181 0.84201 0.83997 1.35400
W 	W 	0.13071 0.84241 0.69155 1.02900
W 	W 	0.34558 0.83351 0.53839 1.05600
Co	Co	0.24132 0.89028 0.11350 1.16200
O 	O 	0.12470 0.81550 0.55360 -0.47200
O 	O 	0.29880 0.89260 0.60310 -0.49100
O 	O 	0.22090 0.89170 0.48630 -0.51100
O 	O 	0.16310 0.92410 0.64570 -0.45400
O 	O 	0.24080 0.00810 0.60250 -0.53700
O 	O 	0.23990 0.87280 0.96010 -0.56900
O 	O 	0.16140 0.85580 0.82430 -0.45600
O 	O 	0.24030 0.88610 0.27430 -0.54000
O 	O 	0.16240 0.81710 0.36450 -0.46300
O 	O 	0.24250 0.92380 0.76420 -0.47100
O 	O 	0.29690 0.81430 0.80660 -0.49800
O 	O 	0.21400 0.81990 0.67410 -0.73400
O 	O 	0.29870 0.82840 0.43170 -0.50100
O 	O 	0.37290 0.81800 0.67310 -0.43800
N 	N 	0.16370 0.91800 0.11060 -0.21800
N 	N 	0.81960 0.87600 0.38450 -0.21900
N 	N 	0.08180 0.92910 0.14840 -0.13000
N 	N 	0.90040 0.88120 0.34530 -0.14100
C 	C 	0.12730 0.90160 0.17400 0.08400
H 	H 	0.13200 0.87440 0.23110 0.00600
C 	C 	0.03430 0.91750 0.20000 0.07600
C 	C 	0.02810 0.86220 0.24900 -0.07300
H 	H 	0.05330 0.83040 0.25070 0.04600
C 	C 	0.09190 0.96870 0.06400 -0.01000
H 	H 	0.06880 0.99380 0.02800 0.02300
C 	C 	0.14060 0.96430 0.04400 0.01200
H 	H 	0.15700 0.98830 0.99380 0.01800
C 	C 	0.99760 0.96350 0.19400 -0.05800
H 	H 	0.00300 0.00360 0.16010 0.04100
C 	C 	0.85470 0.89840 0.31700 0.10500
H 	H 	0.84740 0.92250 0.25810 -0.00400
C 	C 	0.84650 0.84380 0.46200 0.00300
H 	H 	0.83250 0.82490 0.52020 0.01000
C 	C 	0.95210 0.95070 0.23900 -0.10300
H 	H 	0.92580 0.98030 0.23050 0.06100
C 	C 	0.94600 0.89460 0.29500 0.10200
C 	C 	0.98370 0.85080 0.29900 -0.09200
H 	H 	0.97970 0.81190 0.33640 0.05400
C 	C 	0.89530 0.84450 0.44030 -0.00900
H 	H 	0.92070 0.82530 0.47830 0.01900
W 	W 	0.73325 0.66699 0.12369 1.32300
W 	W 	0.73297 0.57466 0.87994 1.37400
W 	W 	0.73181 0.65799 0.66003 1.35400
W 	W 	0.63071 0.65759 0.80845 1.02900
W 	W 	0.84558 0.66649 0.96161 1.04800
Co	Co	0.74132 0.60972 0.38650 1.16200
O 	O 	0.62470 0.68450 0.94640 -0.47400
O 	O 	0.79880 0.60740 0.89690 -0.49000
O 	O 	0.72090 0.60830 0.01370 -0.50900
O 	O 	0.66310 0.57590 0.85430 -0.45400
O 	O 	0.74080 0.49190 0.89750 -0.53700
O 	O 	0.73990 0.62720 0.53990 -0.56900
O 	O 	0.66140 0.64420 0.67570 -0.45600
O 	O 	0.74030 0.61390 0.22570 -0.54000
O 	O 	0.66240 0.68290 0.13550 -0.46400
O 	O 	0.74250 0.57620 0.73580 -0.47000
O 	O 	0.79690 0.68570 0.69340 -0.49700
O 	O 	0.71400 0.68010 0.82590 -0.73300
O 	O 	0.79870 0.67160 0.06830 -0.49800
O 	O 	0.87290 0.68200 0.82690 -0.43800
N 	N 	0.66370 0.58200 0.38940 -0.21800
N 	N 	0.31960 0.62400 0.11550 -0.21900
N 	N 	0.58180 0.57090 0.35160 -0.13200
N 	N 	0.40040 0.61880 0.15470 -0.13900
C 	C 	0.62730 0.59840 0.32600 0.08400
H 	H 	0.63200 0.62560 0.26890 0.00500
C 	C 	0.53430 0.58250 0.30000 0.08900
C 	C 	0.52810 0.63780 0.25100 -0.08200
H 	H 	0.55330 0.66960 0.24930 0.04900
C 	C 	0.59190 0.53130 0.43600 -0.00900
H 	H 	0.56880 0.50620 0.47200 0.02300
C 	C 	0.64060 0.53570 0.45600 0.01100
H 	H 	0.65700 0.51170 0.50620 0.01900
C 	C 	0.49760 0.53650 0.30600 -0.08100
H 	H 	0.50300 0.49640 0.33990 0.05300
C 	C 	0.35470 0.60160 0.18300 0.10500
H 	H 	0.34740 0.57750 0.24190 -0.00500
C 	C 	0.34650 0.65620 0.03800 0.00100
H 	H 	0.33250 0.67510 0.97980 0.01100
C 	C 	0.45210 0.54930 0.26100 -0.08900
H 	H 	0.42580 0.51970 0.26950 0.05600
C 	C 	0.44600 0.60540 0.20500 0.09400
C 	C 	0.48370 0.64920 0.20100 -0.08600
H 	H 	0.47970 0.68810 0.16360 0.05200
C 	C 	0.39530 0.65550 0.05970 -0.00800
H 	H 	0.42070 0.67470 0.02170 0.01900
W 	W 	0.76675 0.33301 0.62369 1.32300
W 	W 	0.76703 0.42534 0.37994 1.37700
W 	W 	0.76819 0.34201 0.16003 1.35400
W 	W 	0.86929 0.34241 0.30845 1.02900
W 	W 	0.65442 0.33351 0.46161 1.05600
Co	Co	0.75868 0.39028 0.88650 1.16100
O 	O 	0.87530 0.31550 0.44640 -0.47200
O 	O 	0.70120 0.39260 0.39690 -0.49100
O 	O 	0.77910 0.39170 0.51370 -0.51100
O 	O 	0.83690 0.42410 0.35430 -0.45400
O 	O 	0.75920 0.50810 0.39750 -0.53700
O 	O 	0.76010 0.37280 0.03990 -0.56800
O 	O 	0.83860 0.35580 0.17570 -0.45600
O 	O 	0.75970 0.38610 0.72570 -0.54000
O 	O 	0.83760 0.31710 0.63550 -0.46300
O 	O 	0.75750 0.42380 0.23580 -0.47000
O 	O 	0.70310 0.31430 0.19340 -0.49800
O 	O 	0.78600 0.31990 0.32590 -0.73400
O 	O 	0.70130 0.32840 0.56830 -0.50100
O 	O 	0.62710 0.31800 0.32690 -0.43800
N 	N 	0.83630 0.41800 0.88940 -0.21700
N 	N 	0.18040 0.37600 0.61550 -0.21900
N 	N 	0.91820 0.42910 0.85160 -0.13200
N 	N 	0.09960 0.38120 0.65470 -0.14000
C 	C 	0.87270 0.40160 0.82600 0.08400
H 	H 	0.86800 0.37440 0.76890 0.00500
C 	C 	0.96570 0.41750 0.80000 0.08200
C 	C 	0.97190 0.36220 0.75100 -0.07900
H 	H 	0.94670 0.33040 0.74930 0.04700
C 	C 	0.90810 0.46870 0.93600 -0.00600
H 	H 	0.93120 0.49380 0.97200 0.02100
C 	C 	0.85940 0.46430 0.95600 0.00300
H 	H 	0.84300 0.48830 0.00620 0.02400
C 	C 	0.00240 0.46350 0.80600 -0.06800
H 	H 	0.99700 0.50360 0.83990 0.04700
C 	C 	0.14530 0.39840 0.68300 0.10500
H 	H 	0.15260 0.42250 0.74190 -0.00500
C 	C 	0.15350 0.34380 0.53800 0.00300
H 	H 	0.16750 0.32490 0.47980 0.01000
C 	C 	0.04790 0.45070 0.76100 -0.09600
H 	H 	0.07420 0.48030 0.76950 0.05800
C 	C 	0.05400 0.39460 0.70500 0.09800
C 	C 	0.01630 0.35080 0.70100 -0.08800
H 	H 	0.02030 0.31190 0.66360 0.05300
C 	C 	0.10470 0.34450 0.55970 -0.00900
H 	H 	0.07930 0.32530 0.52170 0.01900
W 	W 	0.73325 0.83301 0.12369 1.32200
W 	W 	0.73297 0.92534 0.87994 1.36900
W 	W 	0.73181 0.84201 0.66003 1.35400
W 	W 	0.63071 0.84241 0.80845 1.02800
W 	W 	0.84558 0.83351 0.96161 1.04600
Co	Co	0.74132 0.89028 0.38650 1.16200
O 	O 	0.62470 0.81550 0.94640 -0.47500
O 	O 	0.79880 0.89260 0.89690 -0.49000
O 	O 	0.72090 0.89170 0.01370 -0.50700
O 	O 	0.66310 0.92410 0.85430 -0.45500
O 	O 	0.74080 0.00810 0.89750 -0.53500
O 	O 	0.73990 0.87280 0.53990 -0.56900
O 	O 	0.66140 0.85580 0.67570 -0.45600
O 	O 	0.74030 0.88610 0.22570 -0.54000
O 	O 	0.66240 0.81710 0.13550 -0.46300
O 	O 	0.74250 0.92380 0.73580 -0.47000
O 	O 	0.79690 0.81430 0.69340 -0.49700
O 	O 	0.71400 0.81990 0.82590 -0.73300
O 	O 	0.79870 0.82840 0.06830 -0.49700
O 	O 	0.87290 0.81800 0.82690 -0.43800
N 	N 	0.66370 0.91800 0.38940 -0.21800
N 	N 	0.31960 0.87600 0.11550 -0.21900
N 	N 	0.58180 0.92910 0.35160 -0.13200
N 	N 	0.40040 0.88120 0.15470 -0.13900
C 	C 	0.62730 0.90160 0.32600 0.08400
H 	H 	0.63200 0.87440 0.26890 0.00600
C 	C 	0.53430 0.91750 0.30000 0.08600
C 	C 	0.52810 0.86220 0.25100 -0.07900
H 	H 	0.55330 0.83040 0.24930 0.04800
C 	C 	0.59190 0.96870 0.43600 -0.00900
H 	H 	0.56880 0.99380 0.47200 0.02200
C 	C 	0.64060 0.96430 0.45600 0.01100
H 	H 	0.65700 0.98830 0.50620 0.01900
C 	C 	0.49760 0.96350 0.30600 -0.07600
H 	H 	0.50300 0.00360 0.33990 0.05000
C 	C 	0.35470 0.89840 0.18300 0.10500
H 	H 	0.34740 0.92250 0.24190 -0.00500
C 	C 	0.34650 0.84380 0.03800 0.00400
H 	H 	0.33250 0.82490 0.97980 0.00900
C 	C 	0.45210 0.95070 0.26100 -0.09200
H 	H 	0.42580 0.98030 0.26950 0.05700
C 	C 	0.44600 0.89460 0.20500 0.09600
C 	C 	0.48370 0.85080 0.20100 -0.08800
H 	H 	0.47970 0.81190 0.16360 0.05300
C 	C 	0.39530 0.84450 0.05970 -0.00900
H 	H 	0.42070 0.82530 0.02170 0.02000
W 	W 	0.76675 0.16699 0.62369 1.32300
W 	W 	0.76703 0.07466 0.37994 1.37600
W 	W 	0.76819 0.15799 0.16003 1.35400
W 	W 	0.86929 0.15759 0.30845 1.02900
W 	W 	0.65442 0.16649 0.46161 1.05600
Co	Co	0.75868 0.10972 0.88650 1.16200
O 	O 	0.87530 0.18450 0.44640 -0.47200
O 	O 	0.70120 0.10740 0.39690 -0.49100
O 	O 	0.77910 0.10830 0.51370 -0.51100
O 	O 	0.83690 0.07590 0.35430 -0.45400
O 	O 	0.75920 0.99190 0.39750 -0.53700
O 	O 	0.76010 0.12720 0.03990 -0.56900
O 	O 	0.83860 0.14420 0.17570 -0.45600
O 	O 	0.75970 0.11390 0.72570 -0.54000
O 	O 	0.83760 0.18290 0.63550 -0.46300
O 	O 	0.75750 0.07620 0.23580 -0.47100
O 	O 	0.70310 0.18570 0.19340 -0.49800
O 	O 	0.78600 0.18010 0.32590 -0.73400
O 	O 	0.70130 0.17160 0.56830 -0.50100
O 	O 	0.62710 0.18200 0.32690 -0.43800
N 	N 	0.83630 0.08200 0.88940 -0.21800
N 	N 	0.18040 0.12400 0.61550 -0.21900
N 	N 	0.91820 0.07090 0.85160 -0.13000
N 	N 	0.09960 0.11880 0.65470 -0.14100
C 	C 	0.87270 0.09840 0.82600 0.08400
H 	H 	0.86800 0.12560 0.76890 0.00600
C 	C 	0.96570 0.08250 0.80000 0.07600
C 	C 	0.97190 0.13780 0.75100 -0.07300
H 	H 	0.94670 0.16960 0.74930 0.04600
C 	C 	0.90810 0.03130 0.93600 -0.01000
H 	H 	0.93120 0.00620 0.97200 0.02300
C 	C 	0.85940 0.03570 0.95600 0.01200
H 	H 	0.84300 0.01170 0.00620 0.01800
C 	C 	0.00240 0.03650 0.80600 -0.05800
H 	H 	0.99700 0.99640 0.83990 0.04100
C 	C 	0.14530 0.10160 0.68300 0.10500
H 	H 	0.15260 0.07750 0.74190 -0.00400
C 	C 	0.15350 0.15620 0.53800 0.00300
H 	H 	0.16750 0.17510 0.47980 0.01000
C 	C 	0.04790 0.04930 0.76100 -0.10300
H 	H 	0.07420 0.01970 0.76950 0.06100
C 	C 	0.05400 0.10540 0.70500 0.10200
C 	C 	0.01630 0.14920 0.70100 -0.09200
H 	H 	0.02030 0.18810 0.66360 0.05400
C 	C 	0.10470 0.15550 0.55970 -0.00900
H 	H 	0.07930 0.17470 0.52170 0.01900
W 	W 	0.26675 0.33301 0.87631 1.32300
W 	W 	0.26703 0.42534 0.12006 1.37400
W 	W 	0.26819 0.34201 0.33997 1.35400
W 	W 	0.36929 0.34241 0.19155 1.02900
W 	W 	0.15442 0.33351 0.03839 1.04800
Co	Co	0.25868 0.39028 0.61350 1.16200
O 	O 	0.37530 0.31550 0.05360 -0.47400
O 	O 	0.20120 0.39260 0.10310 -0.49000
O 	O 	0.27910 0.39170 0.98630 -0.50900
O 	O 	0.33690 0.42410 0.14570 -0.45400
O 	O 	0.25920 0.50810 0.10250 -0.53700
O 	O 	0.26010 0.37280 0.46010 -0.56900
O 	O 	0.33860 0.35580 0.32430 -0.45600
O 	O 	0.25970 0.38610 0.77430 -0.54000
O 	O 	0.33760 0.31710 0.86450 -0.46400
O 	O 	0.25750 0.42380 0.26420 -0.47000
O 	O 	0.20310 0.31430 0.30660 -0.49700
O 	O 	0.28600 0.31990 0.17410 -0.73300
O 	O 	0.20130 0.32840 0.93170 -0.49800
O 	O 	0.12710 0.31800 0.17310 -0.43800
N 	N 	0.33630 0.41800 0.61060 -0.21800
N 	N 	0.68040 0.37600 0.88450 -0.21900
N 	N 	0.41820 0.42910 0.64840 -0.13200
N 	N 	0.59960 0.38120 0.84530 -0.13900
C 	C 	0.37270 0.40160 0.67400 0.08400
H 	H 	0.36800 0.37440 0.73110 0.00500
C 	C 	0.46570 0.41750 0.70000 0.08900
C 	C 	0.47190 0.36220 0.74900 -0.08200
H 	H 	0.44670 0.33040 0.75070 0.04900
C 	C 	0.40810 0.46870 0.56400 -0.00900
H 	H 	0.43120 0.49380 0.52800 0.02300
C 	C 	0.35940 0.46430 0.54400 0.01100
H 	H 	0.34300 0.48830 0.49380 0.01900
C 	C 	0.50240 0.46350 0.69400 -0.08100
H 	H 	0.49700 0.50360 0.66010 0.05300
C 	C 	0.64530 0.39840 0.81700 0.10500
H 	H 	0.65260 0.42250 0.75810 -0.00500
C 	C 	0.65350 0.34380 0.96200 0.00100
H 	H 	0.66750 0.32490 0.02020 0.01100
C 	C 	0.54790 0.45070 0.73900 -0.08900
H 	H 	0.57420 0.48030 0.73050 0.05600
C 	C 	0.55400 0.39460 0.79500 0.09400
C 	C 	0.51630 0.35080 0.79900 -0.08600
H 	H 	0.52030 0.31190 0.83640 0.05200
C 	C 	0.60470 0.34450 0.94030 -0.00800
H 	H 	0.57930 0.32530 0.97830 0.01900
W 	W 	0.23325 0.66699 0.37631 1.32300
W 	W 	0.23297 0.57466 0.62006 1.37700
W 	W 	0.23181 0.65799 0.83997 1.35400
W 	W 	0.13071 0.65759 0.69155 1.02900
W 	W 	0.34558 0.66649 0.53839 1.05600
Co	Co	0.24132 0.60972 0.11350 1.16100
O 	O 	0.12470 0.68450 0.55360 -0.47200
O 	O 	0.29880 0.60740 0.60310 -0.49100
O 	O 	0.22090 0.60830 0.48630 -0.51100
O 	O 	0.16310 0.57590 0.64570 -0.45400
O 	O 	0.24080 0.49190 0.60250 -0.53700
O 	O 	0.23990 0.62720 0.96010 -0.56800
O 	O 	0.16140 0.64420 0.82430 -0.45600
O 	O 	0.24030 0.61390 0.27430 -0.54000
O 	O 	0.16240 0.68290 0.36450 -0.46300
O 	O 	0.24250 0.57620 0.76420 -0.47000
O 	O 	0.29690 0.68570 0.80660 -0.49800
O 	O 	0.21400 0.68010 0.67410 -0.73400
O 	O 	0.29870 0.67160 0.43170 -0.50100
O 	O 	0.37290 0.68200 0.67310 -0.43800
N 	N 	0.16370 0.58200 0.11060 -0.21700
N 	N 	0.81960 0.62400 0.38450 -0.21900
N 	N 	0.08180 0.57090 0.14840 -0.13200
N 	N 	0.90040 0.61880 0.34530 -0.14000
C 	C 	0.12730 0.59840 0.17400 0.08400
H 	H 	0.13200 0.62560 0.23110 0.00500
C 	C 	0.03430 0.58250 0.20000 0.08200
C 	C 	0.02810 0.63780 0.24900 -0.07900
H 	H 	0.05330 0.66960 0.25070 0.04700
C 	C 	0.09190 0.53130 0.06400 -0.00600
H 	H 	0.06880 0.50620 0.02800 0.02100
C 	C 	0.14060 0.53570 0.04400 0.00300
H 	H 	0.15700 0.51170 0.99380 0.02400
C 	C 	0.99760 0.53650 0.19400 -0.06800
H 	H 	0.00300 0.49640 0.16010 0.04700
C 	C 	0.85470 0.60160 0.31700 0.10500
H 	H 	0.84740 0.57750 0.25810 -0.00500
C 	C 	0.84650 0.65620 0.46200 0.00300
H 	H 	0.83250 0.67510 0.52020 0.01000
C 	C 	0.95210 0.54930 0.23900 -0.09600
H 	H 	0.92580 0.51970 0.23050 0.05800
C 	C 	0.94600 0.60540 0.29500 0.09800
C 	C 	0.98370 0.64920 0.29900 -0.08800
H 	H 	0.97970 0.68810 0.33640 0.05300
C 	C 	0.89530 0.65550 0.44030 -0.00900
H 	H 	0.92070 0.67470 0.47830 0.01900
W 	W 	0.15514 0.25000 0.25969 1.03800
W 	W 	0.36851 0.25000 0.94782 1.03300
Ge	Ge	0.26413 0.25000 0.11195 1.78500
O 	O 	0.12490 0.25000 0.99650 -0.43500
O 	O 	0.25510 0.25000 0.80320 -0.50800
O 	O 	0.28220 0.25000 0.36210 -0.53200
O 	O 	0.37550 0.25000 0.22410 -0.47200
O 	O 	0.20030 0.25000 0.11160 -0.69900
O 	O 	0.28510 0.25000 0.98830 -0.73400
W 	W 	0.34486 0.75000 0.75969 1.03900
W 	W 	0.13149 0.75000 0.44782 1.02800
Ge	Ge	0.23587 0.75000 0.61195 1.79200
O 	O 	0.37510 0.75000 0.49650 -0.44100
O 	O 	0.24490 0.75000 0.30320 -0.50800
O 	O 	0.21780 0.75000 0.86210 -0.53200
O 	O 	0.12450 0.75000 0.72410 -0.47200
O 	O 	0.29970 0.75000 0.61160 -0.70000
O 	O 	0.21490 0.75000 0.48830 -0.73700
W 	W 	0.84486 0.75000 0.74031 1.03800
W 	W 	0.63149 0.75000 0.05218 1.03300
Ge	Ge	0.73587 0.75000 0.88805 1.78500
O 	O 	0.87510 0.75000 0.00350 -0.43500
O 	O 	0.74490 0.75000 0.19680 -0.50800
O 	O 	0.71780 0.75000 0.63790 -0.53200
O 	O 	0.62450 0.75000 0.77590 -0.47200
O 	O 	0.79970 0.75000 0.88840 -0.69900
O 	O 	0.71490 0.75000 0.01170 -0.73400
W 	W 	0.65514 0.25000 0.24031 1.03900
W 	W 	0.86851 0.25000 0.55218 1.02800
Ge	Ge	0.76413 0.25000 0.38805 1.79200
O 	O 	0.62490 0.25000 0.50350 -0.44100
O 	O 	0.75510 0.25000 0.69680 -0.50800
O 	O 	0.78220 0.25000 0.13790 -0.53200
O 	O 	0.87550 0.25000 0.27590 -0.47200
O 	O 	0.70030 0.25000 0.38840 -0.70000
O 	O 	0.78510 0.25000 0.51170 -0.73700
