data_crystal

_cell_length_a 26.66400
_cell_length_b 20.02200
_cell_length_c 12.93700
_cell_angle_alpha 90.00000
_cell_angle_beta  90.00000
_cell_angle_gamma 90.00000

_symmetry_space_group_name_	'P 1'
_symmetry_space_group_name_H-M	'P 1'

loop_
_symmetry_equiv_pos_as_xyz
  x,y,z

loop_
_atom_site_label
_atom_site_type_symbol
_atom_site_fract_x
_atom_site_fract_y
_atom_site_fract_z
_atom_site_charge
W 	W 	0.15487 0.16719 0.96933 1.10300
W 	W 	0.26672 0.16822 0.12835 1.35400
W 	W 	0.26635 0.07766 0.88591 1.35200
W 	W 	0.36799 0.15892 0.81162 1.06500
W 	W 	0.26645 0.15955 0.66603 1.37600
Ag	Ag	0.25710 0.10590 0.39080 0.66500
O 	O 	0.28180 0.18840 0.84110 -0.81400
O 	O 	0.25640 0.07810 0.74370 -0.48100
O 	O 	0.37820 0.18380 0.95320 -0.48400
O 	O 	0.33750 0.18450 0.14000 -0.47200
O 	O 	0.20000 0.17140 0.07850 -0.51000
O 	O 	0.12600 0.18480 0.83530 -0.45700
O 	O 	0.20060 0.31450 0.69670 -0.50400
O 	O 	0.33770 0.14600 0.68110 -0.46800
O 	O 	0.33720 0.07870 0.85590 -0.46200
O 	O 	0.27980 0.10570 0.02310 -0.50600
O 	O 	0.26080 0.11620 0.23400 -0.45300
O 	O 	0.19890 0.10720 0.90260 -0.49300
O 	O 	0.25890 0.12610 0.54750 -0.47300
N 	N 	0.33540 0.07830 0.39400 -0.15800
N 	N 	0.68410 0.12080 0.11500 -0.15700
N 	N 	0.41540 0.07050 0.36070 -0.13200
N 	N 	0.59850 0.11870 0.15600 -0.13700
C 	C 	0.37030 0.09870 0.33200 0.09500
H 	H 	0.36560 0.12790 0.27740 0.01800
C 	C 	0.64620 0.09950 0.18200 0.09700
H 	H 	0.65300 0.07400 0.24020 0.00900
C 	C 	0.65240 0.15670 0.03800 0.00300
H 	H 	0.66560 0.17750 0.97970 0.02600
C 	C 	0.50110 0.03400 0.31100 -0.05900
H 	H 	0.49570 0.99320 0.34390 0.04500
C 	C 	0.46320 0.08140 0.30500 0.06900
C 	C 	0.40610 0.03550 0.44200 0.00500
H 	H 	0.42960 0.01120 0.47930 0.01900
C 	C 	0.35810 0.03960 0.46300 0.02200
H 	H 	0.34240 0.01850 0.51870 0.02600
C 	C 	0.47050 0.13980 0.25000 -0.05800
H 	H 	0.44500 0.17120 0.24370 0.04200
C 	C 	0.51510 0.14900 0.20800 -0.08700
H 	H 	0.52000 0.18910 0.17210 0.05400
C 	C 	0.60360 0.15640 0.06000 -0.00500
H 	H 	0.57800 0.17610 0.02180 0.02100
C 	C 	0.55540 0.10540 0.21300 0.09700
C 	C 	0.54600 0.04840 0.26700 -0.09700
H 	H 	0.57200 0.01780 0.27500 0.06000
O 	O 	0.25990 0.99210 0.90480 -0.43000
W 	W 	0.34513 0.83281 0.46933 1.11500
W 	W 	0.23328 0.83178 0.62835 1.35500
W 	W 	0.23365 0.92234 0.38591 1.36100
W 	W 	0.13201 0.84108 0.31162 1.06600
W 	W 	0.23355 0.84045 0.16603 1.37700
Ag	Ag	0.24290 0.89410 0.89080 0.66600
O 	O 	0.21820 0.81160 0.34110 -0.81400
O 	O 	0.24360 0.92190 0.24370 -0.48100
O 	O 	0.12180 0.81620 0.45320 -0.48000
O 	O 	0.16250 0.81550 0.64000 -0.47100
O 	O 	0.30000 0.82860 0.57850 -0.51500
O 	O 	0.37400 0.81520 0.33530 -0.45700
O 	O 	0.29940 0.68550 0.19670 -0.50400
O 	O 	0.16230 0.85400 0.18110 -0.46800
O 	O 	0.16280 0.92130 0.35590 -0.46100
O 	O 	0.22020 0.89430 0.52310 -0.51100
O 	O 	0.23920 0.88380 0.73400 -0.45400
O 	O 	0.30110 0.89280 0.40260 -0.49400
O 	O 	0.24110 0.87390 0.04750 -0.47300
N 	N 	0.16460 0.92170 0.89400 -0.15800
N 	N 	0.81590 0.87920 0.61500 -0.15700
N 	N 	0.08460 0.92950 0.86070 -0.13000
N 	N 	0.90150 0.88130 0.65600 -0.13800
C 	C 	0.12970 0.90130 0.83200 0.09400
H 	H 	0.13440 0.87210 0.77740 0.01800
C 	C 	0.85380 0.90050 0.68200 0.09700
H 	H 	0.84700 0.92600 0.74020 0.00900
C 	C 	0.84760 0.84330 0.53800 0.00100
H 	H 	0.83440 0.82250 0.47970 0.02700
C 	C 	0.99890 0.96600 0.81100 -0.04200
H 	H 	0.00430 0.00680 0.84390 0.03700
C 	C 	0.03680 0.91860 0.80500 0.06100
C 	C 	0.09390 0.96450 0.94200 0.00300
H 	H 	0.07040 0.98880 0.97930 0.02100
C 	C 	0.14190 0.96040 0.96300 0.02600
H 	H 	0.15760 0.98150 0.01870 0.02400
C 	C 	0.02950 0.86020 0.75000 -0.05500
H 	H 	0.05500 0.82880 0.74370 0.04100
C 	C 	0.98490 0.85100 0.70800 -0.09000
H 	H 	0.98000 0.81090 0.67210 0.05500
C 	C 	0.89640 0.84360 0.56000 -0.00400
H 	H 	0.92200 0.82390 0.52180 0.02000
C 	C 	0.94460 0.89460 0.71300 0.10100
C 	C 	0.95400 0.95160 0.76700 -0.10700
H 	H 	0.92800 0.98220 0.77500 0.06400
O 	O 	0.24010 0.00790 0.40480 -0.43200
W 	W 	0.84513 0.66719 0.03067 1.10600
W 	W 	0.73328 0.66822 0.87165 1.35500
W 	W 	0.73365 0.57766 0.11409 1.35900
W 	W 	0.63201 0.65892 0.18838 1.06600
W 	W 	0.73355 0.65955 0.33397 1.37700
Ag	Ag	0.74290 0.60590 0.60920 0.66600
O 	O 	0.71820 0.68840 0.15890 -0.81300
O 	O 	0.74360 0.57810 0.25630 -0.48000
O 	O 	0.62180 0.68380 0.04680 -0.48200
O 	O 	0.66250 0.68450 0.86000 -0.47100
O 	O 	0.80000 0.67140 0.92150 -0.51200
O 	O 	0.87400 0.68480 0.16470 -0.45600
O 	O 	0.79940 0.81450 0.30330 -0.50400
O 	O 	0.66230 0.64600 0.31890 -0.46800
O 	O 	0.66280 0.57870 0.14410 -0.46100
O 	O 	0.72020 0.60570 0.97690 -0.50800
O 	O 	0.73920 0.61620 0.76600 -0.45400
O 	O 	0.80110 0.60720 0.09740 -0.49300
O 	O 	0.74110 0.62610 0.45250 -0.47300
N 	N 	0.66460 0.57830 0.60600 -0.15800
N 	N 	0.31590 0.62080 0.88500 -0.15700
N 	N 	0.58460 0.57050 0.63930 -0.13200
N 	N 	0.40150 0.61870 0.84400 -0.13700
C 	C 	0.62970 0.59870 0.66800 0.09500
H 	H 	0.63440 0.62790 0.72260 0.01800
C 	C 	0.35380 0.59950 0.81800 0.09600
H 	H 	0.34700 0.57400 0.75980 0.00900
C 	C 	0.34760 0.65670 0.96200 -0.00000
H 	H 	0.33440 0.67750 0.02030 0.02800
C 	C 	0.49890 0.53400 0.68900 -0.06400
H 	H 	0.50430 0.49320 0.65610 0.04800
C 	C 	0.53680 0.58140 0.69500 0.07100
C 	C 	0.59390 0.53550 0.55800 0.00500
H 	H 	0.57040 0.51120 0.52070 0.01900
C 	C 	0.64190 0.53960 0.53700 0.02200
H 	H 	0.65760 0.51850 0.48130 0.02700
C 	C 	0.52950 0.63980 0.75000 -0.06100
H 	H 	0.55500 0.67120 0.75630 0.04300
C 	C 	0.48490 0.64900 0.79200 -0.08500
H 	H 	0.48000 0.68910 0.82790 0.05300
C 	C 	0.39640 0.65640 0.94000 -0.00400
H 	H 	0.42200 0.67610 0.97820 0.02000
C 	C 	0.44460 0.60540 0.78700 0.09400
C 	C 	0.45400 0.54840 0.73300 -0.09400
H 	H 	0.42800 0.51780 0.72500 0.05800
O 	O 	0.74010 0.49210 0.09520 -0.43300
W 	W 	0.65487 0.33281 0.53067 1.11500
W 	W 	0.76672 0.33178 0.37165 1.35500
W 	W 	0.76635 0.42234 0.61409 1.36200
W 	W 	0.86799 0.34108 0.68838 1.06700
W 	W 	0.76645 0.34045 0.83397 1.37700
Ag	Ag	0.75710 0.39410 0.10920 0.66500
O 	O 	0.78180 0.31160 0.65890 -0.81400
O 	O 	0.75640 0.42190 0.75630 -0.48000
O 	O 	0.87820 0.31620 0.54680 -0.48000
O 	O 	0.83750 0.31550 0.36000 -0.47100
O 	O 	0.70000 0.32860 0.42150 -0.51500
O 	O 	0.62600 0.31520 0.66470 -0.45700
O 	O 	0.70060 0.18550 0.80330 -0.50500
O 	O 	0.83770 0.35400 0.81890 -0.46700
O 	O 	0.83720 0.42130 0.64410 -0.46100
O 	O 	0.77980 0.39430 0.47690 -0.51100
O 	O 	0.76080 0.38380 0.26600 -0.45400
O 	O 	0.69890 0.39280 0.59740 -0.49400
O 	O 	0.75890 0.37390 0.95250 -0.47200
N 	N 	0.83540 0.42170 0.10600 -0.15700
N 	N 	0.18410 0.37920 0.38500 -0.15700
N 	N 	0.91540 0.42950 0.13930 -0.13200
N 	N 	0.09850 0.38130 0.34400 -0.13700
C 	C 	0.87030 0.40130 0.16800 0.09400
H 	H 	0.86560 0.37210 0.22260 0.01800
C 	C 	0.14620 0.40050 0.31800 0.09700
H 	H 	0.15300 0.42600 0.25980 0.00900
C 	C 	0.15240 0.34330 0.46200 0.00100
H 	H 	0.16560 0.32250 0.52030 0.02700
C 	C 	0.00110 0.46600 0.18900 -0.05300
H 	H 	0.99570 0.50680 0.15610 0.04300
C 	C 	0.96320 0.41860 0.19500 0.06600
C 	C 	0.90610 0.46450 0.05800 0.00900
H 	H 	0.92960 0.48880 0.02070 0.01700
C 	C 	0.85810 0.46040 0.03700 0.01500
H 	H 	0.84240 0.48150 0.98130 0.03100
C 	C 	0.97050 0.36020 0.25000 -0.06000
H 	H 	0.94500 0.32880 0.25630 0.04300
C 	C 	0.01510 0.35100 0.29200 -0.08500
H 	H 	0.02000 0.31090 0.32790 0.05300
C 	C 	0.10360 0.34360 0.44000 -0.00400
H 	H 	0.07800 0.32390 0.47820 0.02000
C 	C 	0.05540 0.39460 0.28700 0.09700
C 	C 	0.04600 0.45160 0.23300 -0.10000
H 	H 	0.07200 0.48220 0.22500 0.06100
O 	O 	0.75990 0.50790 0.59520 -0.43300
W 	W 	0.84513 0.83281 0.03067 1.10400
W 	W 	0.73328 0.83178 0.87165 1.35500
W 	W 	0.73365 0.92234 0.11409 1.35300
W 	W 	0.63201 0.84108 0.18838 1.06600
W 	W 	0.73355 0.84045 0.33397 1.37700
Ag	Ag	0.74290 0.89410 0.60920 0.66600
O 	O 	0.71820 0.81160 0.15890 -0.81300
O 	O 	0.74360 0.92190 0.25630 -0.48000
O 	O 	0.62180 0.81620 0.04680 -0.48300
O 	O 	0.66250 0.81550 0.86000 -0.47100
O 	O 	0.80000 0.82860 0.92150 -0.51000
O 	O 	0.87400 0.81520 0.16470 -0.45700
O 	O 	0.79940 0.68550 0.30330 -0.50400
O 	O 	0.66230 0.85400 0.31890 -0.46800
O 	O 	0.66280 0.92130 0.14410 -0.46200
O 	O 	0.72020 0.89430 0.97690 -0.50600
O 	O 	0.73920 0.88380 0.76600 -0.45300
O 	O 	0.80110 0.89280 0.09740 -0.49300
O 	O 	0.74110 0.87390 0.45250 -0.47300
N 	N 	0.66460 0.92170 0.60600 -0.15800
N 	N 	0.31590 0.87920 0.88500 -0.15700
N 	N 	0.58460 0.92950 0.63930 -0.13200
N 	N 	0.40150 0.88130 0.84400 -0.13700
C 	C 	0.62970 0.90130 0.66800 0.09500
H 	H 	0.63440 0.87210 0.72260 0.01800
C 	C 	0.35380 0.90050 0.81800 0.09700
H 	H 	0.34700 0.92600 0.75980 0.00900
C 	C 	0.34760 0.84330 0.96200 0.00300
H 	H 	0.33440 0.82250 0.02030 0.02600
C 	C 	0.49890 0.96600 0.68900 -0.05900
H 	H 	0.50430 0.00680 0.65610 0.04500
C 	C 	0.53680 0.91860 0.69500 0.06900
C 	C 	0.59390 0.96450 0.55800 0.00500
H 	H 	0.57040 0.98880 0.52070 0.01900
C 	C 	0.64190 0.96040 0.53700 0.02200
H 	H 	0.65760 0.98150 0.48130 0.02600
C 	C 	0.52950 0.86020 0.75000 -0.05800
H 	H 	0.55500 0.82880 0.75630 0.04200
C 	C 	0.48490 0.85100 0.79200 -0.08700
H 	H 	0.48000 0.81090 0.82790 0.05400
C 	C 	0.39640 0.84360 0.94000 -0.00500
H 	H 	0.42200 0.82390 0.97820 0.02100
C 	C 	0.44460 0.89460 0.78700 0.09700
C 	C 	0.45400 0.95160 0.73300 -0.09700
H 	H 	0.42800 0.98220 0.72500 0.06000
O 	O 	0.74010 0.00790 0.09520 -0.43000
W 	W 	0.65487 0.16719 0.53067 1.11500
W 	W 	0.76672 0.16822 0.37165 1.35500
W 	W 	0.76635 0.07766 0.61409 1.36100
W 	W 	0.86799 0.15892 0.68838 1.06600
W 	W 	0.76645 0.15955 0.83397 1.37700
Ag	Ag	0.75710 0.10590 0.10920 0.66600
O 	O 	0.78180 0.18840 0.65890 -0.81400
O 	O 	0.75640 0.07810 0.75630 -0.48100
O 	O 	0.87820 0.18380 0.54680 -0.48000
O 	O 	0.83750 0.18450 0.36000 -0.47100
O 	O 	0.70000 0.17140 0.42150 -0.51500
O 	O 	0.62600 0.18480 0.66470 -0.45700
O 	O 	0.70060 0.31450 0.80330 -0.50400
O 	O 	0.83770 0.14600 0.81890 -0.46800
O 	O 	0.83720 0.07870 0.64410 -0.46100
O 	O 	0.77980 0.10570 0.47690 -0.51100
O 	O 	0.76080 0.11620 0.26600 -0.45400
O 	O 	0.69890 0.10720 0.59740 -0.49400
O 	O 	0.75890 0.12610 0.95250 -0.47300
N 	N 	0.83540 0.07830 0.10600 -0.15800
N 	N 	0.18410 0.12080 0.38500 -0.15700
N 	N 	0.91540 0.07050 0.13930 -0.13000
N 	N 	0.09850 0.11870 0.34400 -0.13800
C 	C 	0.87030 0.09870 0.16800 0.09400
H 	H 	0.86560 0.12790 0.22260 0.01800
C 	C 	0.14620 0.09950 0.31800 0.09700
H 	H 	0.15300 0.07400 0.25980 0.00900
C 	C 	0.15240 0.15670 0.46200 0.00100
H 	H 	0.16560 0.17750 0.52030 0.02700
C 	C 	0.00110 0.03400 0.18900 -0.04200
H 	H 	0.99570 0.99320 0.15610 0.03700
C 	C 	0.96320 0.08140 0.19500 0.06100
C 	C 	0.90610 0.03550 0.05800 0.00300
H 	H 	0.92960 0.01120 0.02070 0.02100
C 	C 	0.85810 0.03960 0.03700 0.02600
H 	H 	0.84240 0.01850 0.98130 0.02400
C 	C 	0.97050 0.13980 0.25000 -0.05500
H 	H 	0.94500 0.17120 0.25630 0.04100
C 	C 	0.01510 0.14900 0.29200 -0.09000
H 	H 	0.02000 0.18910 0.32790 0.05500
C 	C 	0.10360 0.15640 0.44000 -0.00400
H 	H 	0.07800 0.17610 0.47820 0.02000
C 	C 	0.05540 0.10540 0.28700 0.10100
C 	C 	0.04600 0.04840 0.23300 -0.10700
H 	H 	0.07200 0.01780 0.22500 0.06400
O 	O 	0.75990 0.99210 0.59520 -0.43200
W 	W 	0.15487 0.33281 0.96933 1.10600
W 	W 	0.26672 0.33178 0.12835 1.35500
W 	W 	0.26635 0.42234 0.88591 1.35900
W 	W 	0.36799 0.34108 0.81162 1.06600
W 	W 	0.26645 0.34045 0.66603 1.37700
Ag	Ag	0.25710 0.39410 0.39080 0.66600
O 	O 	0.28180 0.31160 0.84110 -0.81300
O 	O 	0.25640 0.42190 0.74370 -0.48000
O 	O 	0.37820 0.31620 0.95320 -0.48200
O 	O 	0.33750 0.31550 0.14000 -0.47100
O 	O 	0.20000 0.32860 0.07850 -0.51200
O 	O 	0.12600 0.31520 0.83530 -0.45600
O 	O 	0.20060 0.18550 0.69670 -0.50400
O 	O 	0.33770 0.35400 0.68110 -0.46800
O 	O 	0.33720 0.42130 0.85590 -0.46100
O 	O 	0.27980 0.39430 0.02310 -0.50800
O 	O 	0.26080 0.38380 0.23400 -0.45400
O 	O 	0.19890 0.39280 0.90260 -0.49300
O 	O 	0.25890 0.37390 0.54750 -0.47300
N 	N 	0.33540 0.42170 0.39400 -0.15800
N 	N 	0.68410 0.37920 0.11500 -0.15700
N 	N 	0.41540 0.42950 0.36070 -0.13200
N 	N 	0.59850 0.38130 0.15600 -0.13700
C 	C 	0.37030 0.40130 0.33200 0.09500
H 	H 	0.36560 0.37210 0.27740 0.01800
C 	C 	0.64620 0.40050 0.18200 0.09600
H 	H 	0.65300 0.42600 0.24020 0.00900
C 	C 	0.65240 0.34330 0.03800 -0.00000
H 	H 	0.66560 0.32250 0.97970 0.02800
C 	C 	0.50110 0.46600 0.31100 -0.06400
H 	H 	0.49570 0.50680 0.34390 0.04800
C 	C 	0.46320 0.41860 0.30500 0.07100
C 	C 	0.40610 0.46450 0.44200 0.00500
H 	H 	0.42960 0.48880 0.47930 0.01900
C 	C 	0.35810 0.46040 0.46300 0.02200
H 	H 	0.34240 0.48150 0.51870 0.02700
C 	C 	0.47050 0.36020 0.25000 -0.06100
H 	H 	0.44500 0.32880 0.24370 0.04300
C 	C 	0.51510 0.35100 0.20800 -0.08500
H 	H 	0.52000 0.31090 0.17210 0.05300
C 	C 	0.60360 0.34360 0.06000 -0.00400
H 	H 	0.57800 0.32390 0.02180 0.02000
C 	C 	0.55540 0.39460 0.21300 0.09400
C 	C 	0.54600 0.45160 0.26700 -0.09400
H 	H 	0.57200 0.48220 0.27500 0.05800
O 	O 	0.25990 0.50790 0.90480 -0.43300
W 	W 	0.34513 0.66719 0.46933 1.11500
W 	W 	0.23328 0.66822 0.62835 1.35500
W 	W 	0.23365 0.57766 0.38591 1.36200
W 	W 	0.13201 0.65892 0.31162 1.06700
W 	W 	0.23355 0.65955 0.16603 1.37700
Ag	Ag	0.24290 0.60590 0.89080 0.66500
O 	O 	0.21820 0.68840 0.34110 -0.81400
O 	O 	0.24360 0.57810 0.24370 -0.48000
O 	O 	0.12180 0.68380 0.45320 -0.48000
O 	O 	0.16250 0.68450 0.64000 -0.47100
O 	O 	0.30000 0.67140 0.57850 -0.51500
O 	O 	0.37400 0.68480 0.33530 -0.45700
O 	O 	0.29940 0.81450 0.19670 -0.50500
O 	O 	0.16230 0.64600 0.18110 -0.46700
O 	O 	0.16280 0.57870 0.35590 -0.46100
O 	O 	0.22020 0.60570 0.52310 -0.51100
O 	O 	0.23920 0.61620 0.73400 -0.45400
O 	O 	0.30110 0.60720 0.40260 -0.49400
O 	O 	0.24110 0.62610 0.04750 -0.47200
N 	N 	0.16460 0.57830 0.89400 -0.15700
N 	N 	0.81590 0.62080 0.61500 -0.15700
N 	N 	0.08460 0.57050 0.86070 -0.13200
N 	N 	0.90150 0.61870 0.65600 -0.13700
C 	C 	0.12970 0.59870 0.83200 0.09400
H 	H 	0.13440 0.62790 0.77740 0.01800
C 	C 	0.85380 0.59950 0.68200 0.09700
H 	H 	0.84700 0.57400 0.74020 0.00900
C 	C 	0.84760 0.65670 0.53800 0.00100
H 	H 	0.83440 0.67750 0.47970 0.02700
C 	C 	0.99890 0.53400 0.81100 -0.05300
H 	H 	0.00430 0.49320 0.84390 0.04300
C 	C 	0.03680 0.58140 0.80500 0.06600
C 	C 	0.09390 0.53550 0.94200 0.00900
H 	H 	0.07040 0.51120 0.97930 0.01700
C 	C 	0.14190 0.53960 0.96300 0.01500
H 	H 	0.15760 0.51850 0.01870 0.03100
C 	C 	0.02950 0.63980 0.75000 -0.06000
H 	H 	0.05500 0.67120 0.74370 0.04300
C 	C 	0.98490 0.64900 0.70800 -0.08500
H 	H 	0.98000 0.68910 0.67210 0.05300
C 	C 	0.89640 0.65640 0.56000 -0.00400
H 	H 	0.92200 0.67610 0.52180 0.02000
C 	C 	0.94460 0.60540 0.71300 0.09700
C 	C 	0.95400 0.54840 0.76700 -0.10000
H 	H 	0.92800 0.51780 0.77500 0.06100
O 	O 	0.24010 0.49210 0.40480 -0.43300
W 	W 	0.15469 0.25000 0.74765 1.10300
W 	W 	0.36799 0.25000 0.05493 1.09500
O 	O 	0.20750 0.25000 0.89460 -0.78100
O 	O 	0.37630 0.25000 0.77560 -0.48200
O 	O 	0.12710 0.25000 0.00760 -0.46600
O 	O 	0.27970 0.25000 0.63600 -0.52900
O 	O 	0.25670 0.25000 0.20100 -0.49900
O 	O 	0.28420 0.25000 0.00400 -0.82500
B 	B 	0.26370 0.25000 0.89600 1.91300
W 	W 	0.34531 0.75000 0.24765 1.10300
W 	W 	0.13201 0.75000 0.55493 1.09000
O 	O 	0.29250 0.75000 0.39460 -0.78300
O 	O 	0.12370 0.75000 0.27560 -0.48100
O 	O 	0.37290 0.75000 0.50760 -0.47300
O 	O 	0.22030 0.75000 0.13600 -0.52900
O 	O 	0.24330 0.75000 0.70100 -0.49900
O 	O 	0.21580 0.75000 0.50400 -0.82900
B 	B 	0.23630 0.75000 0.39600 1.92000
W 	W 	0.84531 0.75000 0.25235 1.10300
W 	W 	0.63201 0.75000 0.94507 1.09500
O 	O 	0.79250 0.75000 0.10540 -0.78100
O 	O 	0.62370 0.75000 0.22440 -0.48200
O 	O 	0.87290 0.75000 0.99240 -0.46600
O 	O 	0.72030 0.75000 0.36400 -0.52900
O 	O 	0.74330 0.75000 0.79900 -0.49900
O 	O 	0.71580 0.75000 0.99600 -0.82500
B 	B 	0.73630 0.75000 0.10400 1.91300
W 	W 	0.65469 0.25000 0.75235 1.10300
W 	W 	0.86799 0.25000 0.44507 1.09000
O 	O 	0.70750 0.25000 0.60540 -0.78300
O 	O 	0.87630 0.25000 0.72440 -0.48100
O 	O 	0.62710 0.25000 0.49240 -0.47300
O 	O 	0.77970 0.25000 0.86400 -0.52900
O 	O 	0.75670 0.25000 0.29900 -0.49900
O 	O 	0.78420 0.25000 0.49600 -0.82900
B 	B 	0.76370 0.25000 0.60400 1.92000
