data_crystal

_cell_length_a 15.61150
_cell_length_b 15.61150
_cell_length_c 15.18420
_cell_angle_alpha 90.00000
_cell_angle_beta  90.00000
_cell_angle_gamma 120.00000

_symmetry_space_group_name_	'P 1'
_symmetry_space_group_name_H-M	'P 1'

loop_
_symmetry_equiv_pos_as_xyz
  x,y,z

loop_
_atom_site_label
_atom_site_type_symbol
_atom_site_fract_x
_atom_site_fract_y
_atom_site_fract_z
_atom_site_charge
O 	O 	0.80442 0.38449 0.85858 -0.43400
O 	O 	0.94169 0.38839 0.90578 -0.37400
C 	C 	0.86535 0.35303 0.86078 0.36900
C 	C 	0.84068 0.26490 0.80310 -0.02700
C 	C 	0.89300 0.21530 0.80570 -0.00900
H 	H 	0.94610 0.23520 0.84410 0.09000
O 	O 	0.61551 0.41993 0.85858 -0.44700
O 	O 	0.61161 0.55330 0.90578 -0.41200
C 	C 	0.64697 0.51232 0.86078 0.37400
C 	C 	0.73510 0.57578 0.80310 -0.03000
C 	C 	0.78470 0.67770 0.80570 -0.00300
H 	H 	0.76480 0.71090 0.84410 0.08000
O 	O 	0.58007 0.19558 0.85858 -0.46200
O 	O 	0.44670 0.05831 0.90578 -0.45800
C 	C 	0.48768 0.13465 0.86078 0.37500
C 	C 	0.42422 0.15932 0.80310 -0.05400
C 	C 	0.32230 0.10700 0.80570 -0.01600
H 	H 	0.28910 0.05390 0.84410 0.04000
O 	O 	0.19558 0.61551 0.85858 -0.46100
O 	O 	0.05831 0.61161 0.90578 -0.45500
C 	C 	0.13465 0.64697 0.86078 0.37600
C 	C 	0.15932 0.73510 0.80310 -0.04700
C 	C 	0.10700 0.78470 0.80570 -0.01000
H 	H 	0.05390 0.76480 0.84410 0.04900
O 	O 	0.38449 0.58007 0.85858 -0.44900
O 	O 	0.38839 0.44670 0.90578 -0.41900
C 	C 	0.35303 0.48768 0.86078 0.37100
C 	C 	0.26490 0.42422 0.80310 -0.04400
C 	C 	0.21530 0.32230 0.80570 -0.01600
H 	H 	0.23520 0.28910 0.84410 0.06000
O 	O 	0.41993 0.80442 0.85858 -0.43400
O 	O 	0.55330 0.94169 0.90578 -0.37100
C 	C 	0.51232 0.86535 0.86078 0.36900
C 	C 	0.57578 0.84068 0.80310 -0.02000
C 	C 	0.67770 0.89300 0.80570 -0.00200
H 	H 	0.71090 0.94610 0.84410 0.10000
O 	O 	0.38449 0.80442 0.64142 -0.47400
O 	O 	0.38839 0.94169 0.59422 -0.44400
C 	C 	0.35303 0.86535 0.63922 0.37200
C 	C 	0.26490 0.84068 0.69690 -0.04500
C 	C 	0.21530 0.89300 0.69430 -0.00800
H 	H 	0.23520 0.94610 0.65590 0.06400
O 	O 	0.41993 0.61551 0.64142 -0.48600
O 	O 	0.55330 0.61161 0.59422 -0.48300
C 	C 	0.51232 0.64697 0.63922 0.37900
C 	C 	0.57578 0.73510 0.69690 -0.04800
C 	C 	0.67770 0.78470 0.69430 -0.00100
H 	H 	0.71090 0.76480 0.65590 0.05400
O 	O 	0.19558 0.58007 0.64142 -0.50200
O 	O 	0.05831 0.44670 0.59422 -0.53000
C 	C 	0.13465 0.48768 0.63922 0.38000
C 	C 	0.15932 0.42422 0.69690 -0.07200
C 	C 	0.10700 0.32230 0.69430 -0.01400
H 	H 	0.05390 0.28910 0.65590 0.01200
O 	O 	0.61551 0.19558 0.64142 -0.50000
O 	O 	0.61161 0.05831 0.59422 -0.52700
C 	C 	0.64697 0.13465 0.63922 0.38200
C 	C 	0.73510 0.15932 0.69690 -0.06500
C 	C 	0.78470 0.10700 0.69430 -0.00800
H 	H 	0.76480 0.05390 0.65590 0.02200
O 	O 	0.58007 0.38449 0.64142 -0.48900
O 	O 	0.44670 0.38839 0.59422 -0.49100
C 	C 	0.48768 0.35303 0.63922 0.37600
C 	C 	0.42422 0.26490 0.69690 -0.06200
C 	C 	0.32230 0.21530 0.69430 -0.01400
H 	H 	0.28910 0.23520 0.65590 0.03300
O 	O 	0.80442 0.41993 0.64142 -0.47300
O 	O 	0.94169 0.55330 0.59422 -0.44000
C 	C 	0.86535 0.51232 0.63922 0.37400
C 	C 	0.84068 0.57578 0.69690 -0.03800
C 	C 	0.89300 0.67770 0.69430 -0.00100
H 	H 	0.94610 0.71090 0.65590 0.07500
O 	O 	0.19558 0.61551 0.14142 -0.53700
O 	O 	0.05831 0.61161 0.09422 -0.59000
C 	C 	0.13465 0.64697 0.13922 0.38600
C 	C 	0.15932 0.73510 0.19690 -0.09300
C 	C 	0.10700 0.78470 0.19430 0.00300
H 	H 	0.05390 0.76480 0.15590 -0.00700
O 	O 	0.38449 0.58007 0.14142 -0.52600
O 	O 	0.38839 0.44670 0.09422 -0.55500
C 	C 	0.35303 0.48768 0.13922 0.38100
C 	C 	0.26490 0.42422 0.19690 -0.09100
C 	C 	0.21530 0.32230 0.19430 -0.00300
H 	H 	0.23520 0.28910 0.15590 0.00200
O 	O 	0.41993 0.80442 0.14142 -0.50900
O 	O 	0.55330 0.94169 0.09422 -0.50200
C 	C 	0.51232 0.86535 0.13922 0.37800
C 	C 	0.57578 0.84068 0.19690 -0.06500
C 	C 	0.67770 0.89300 0.19430 0.01000
H 	H 	0.71090 0.94610 0.15590 0.04500
O 	O 	0.80442 0.38449 0.14142 -0.51100
O 	O 	0.94169 0.38839 0.09422 -0.50500
C 	C 	0.86535 0.35303 0.13922 0.37700
C 	C 	0.84068 0.26490 0.19690 -0.07200
C 	C 	0.89300 0.21530 0.19430 0.00400
H 	H 	0.94610 0.23520 0.15590 0.03500
O 	O 	0.61551 0.41993 0.14142 -0.52400
O 	O 	0.61161 0.55330 0.09422 -0.54700
C 	C 	0.64697 0.51232 0.13922 0.38400
C 	C 	0.73510 0.57578 0.19690 -0.07600
C 	C 	0.78470 0.67770 0.19430 0.01100
H 	H 	0.76480 0.71090 0.15590 0.02400
O 	O 	0.58007 0.19558 0.14142 -0.53900
O 	O 	0.44670 0.05831 0.09422 -0.59400
C 	C 	0.48768 0.13465 0.13922 0.38500
C 	C 	0.42422 0.15932 0.19690 -0.10000
C 	C 	0.32230 0.10700 0.19430 -0.00300
H 	H 	0.28910 0.05390 0.15590 -0.01800
O 	O 	0.61551 0.19558 0.35858 -0.50100
O 	O 	0.61161 0.05831 0.40578 -0.52800
C 	C 	0.64697 0.13465 0.36078 0.38300
C 	C 	0.73510 0.15932 0.30310 -0.07600
C 	C 	0.78470 0.10700 0.30570 0.00200
H 	H 	0.76480 0.05390 0.34410 0.01800
O 	O 	0.58007 0.38449 0.35858 -0.48900
O 	O 	0.44670 0.38839 0.40578 -0.49200
C 	C 	0.48768 0.35303 0.36078 0.37800
C 	C 	0.42422 0.26490 0.30310 -0.07300
C 	C 	0.32230 0.21530 0.30570 -0.00400
H 	H 	0.28910 0.23520 0.34410 0.02900
O 	O 	0.80442 0.41993 0.35858 -0.47300
O 	O 	0.94169 0.55330 0.40578 -0.44000
C 	C 	0.86535 0.51232 0.36078 0.37600
C 	C 	0.84068 0.57578 0.30310 -0.04800
C 	C 	0.89300 0.67770 0.30570 0.01000
H 	H 	0.94610 0.71090 0.34410 0.07100
O 	O 	0.38449 0.80442 0.35858 -0.47400
O 	O 	0.38839 0.94169 0.40578 -0.44400
C 	C 	0.35303 0.86535 0.36078 0.37400
C 	C 	0.26490 0.84068 0.30310 -0.05500
C 	C 	0.21530 0.89300 0.30570 0.00300
H 	H 	0.23520 0.94610 0.34410 0.06100
O 	O 	0.41993 0.61551 0.35858 -0.48700
O 	O 	0.55330 0.61161 0.40578 -0.48400
C 	C 	0.51232 0.64697 0.36078 0.38100
C 	C 	0.57578 0.73510 0.30310 -0.05900
C 	C 	0.67770 0.78470 0.30570 0.00900
H 	H 	0.71090 0.76480 0.34410 0.05000
O 	O 	0.19558 0.58007 0.35858 -0.50200
O 	O 	0.05831 0.44670 0.40578 -0.53100
C 	C 	0.13465 0.48768 0.36078 0.38200
C 	C 	0.15932 0.42422 0.30310 -0.08300
C 	C 	0.10700 0.32230 0.30570 -0.00400
H 	H 	0.05390 0.28910 0.34410 0.00800
Ce	Ce	0.66667 0.33333 0.75000 2.14900
Ce	Ce	0.33333 0.66667 0.75000 2.14900
Ce	Ce	0.33333 0.66667 0.25000 2.14500
Ce	Ce	0.66667 0.33333 0.25000 2.14500
Mg	Mg	-0.00000 0.50000 -0.00000 1.43700
Mg	Mg	0.50000 0.50000 -0.00000 1.44700
Mg	Mg	0.50000 0.00000 -0.00000 1.43700
Mg	Mg	0.50000 0.00000 0.50000 1.45500
Mg	Mg	0.50000 0.50000 0.50000 1.46500
Mg	Mg	-0.00000 0.50000 0.50000 1.45500
N 	N 	0.76299 0.23701 0.75000 -0.19600
C 	C 	0.86493 0.13507 0.75000 -0.04900
H 	H 	0.89930 0.10070 0.75000 0.05100
N 	N 	0.76299 0.52598 0.75000 -0.19600
C 	C 	0.86493 0.72986 0.75000 -0.03500
H 	H 	0.89930 0.79860 0.75000 0.08400
N 	N 	0.47402 0.23701 0.75000 -0.19600
C 	C 	0.27014 0.13507 0.75000 -0.06300
H 	H 	0.20140 0.10070 0.75000 0.01800
N 	N 	0.23701 0.76299 0.75000 -0.19600
C 	C 	0.13507 0.86493 0.75000 -0.04900
H 	H 	0.10070 0.89930 0.75000 0.05100
N 	N 	0.23701 0.47402 0.75000 -0.19600
C 	C 	0.13507 0.27014 0.75000 -0.06300
H 	H 	0.10070 0.20140 0.75000 0.01800
N 	N 	0.52598 0.76299 0.75000 -0.19500
C 	C 	0.72986 0.86493 0.75000 -0.03500
H 	H 	0.79860 0.89930 0.75000 0.08400
N 	N 	0.23701 0.76299 0.25000 -0.19300
C 	C 	0.13507 0.86493 0.25000 -0.07800
H 	H 	0.10070 0.89930 0.25000 0.04200
N 	N 	0.23701 0.47402 0.25000 -0.19300
C 	C 	0.13507 0.27014 0.25000 -0.09300
H 	H 	0.10070 0.20140 0.25000 0.00800
N 	N 	0.52598 0.76299 0.25000 -0.19200
C 	C 	0.72986 0.86493 0.25000 -0.06400
H 	H 	0.79860 0.89930 0.25000 0.07600
N 	N 	0.76299 0.23701 0.25000 -0.19300
C 	C 	0.86493 0.13507 0.25000 -0.07800
H 	H 	0.89930 0.10070 0.25000 0.04200
N 	N 	0.76299 0.52598 0.25000 -0.19200
C 	C 	0.86493 0.72986 0.25000 -0.06400
H 	H 	0.89930 0.79860 0.25000 0.07600
N 	N 	0.47402 0.23701 0.25000 -0.19300
C 	C 	0.27014 0.13507 0.25000 -0.09300
H 	H 	0.20140 0.10070 0.25000 0.00800
