data_crystal

_cell_length_a 17.68250
_cell_length_b 22.32870
_cell_length_c 28.92290
_cell_angle_alpha 90.00000
_cell_angle_beta  107.42900
_cell_angle_gamma 90.00000

_symmetry_space_group_name_	'P 1'
_symmetry_space_group_name_H-M	'P 1'

loop_
_symmetry_equiv_pos_as_xyz
  x,y,z

loop_
_atom_site_label
_atom_site_type_symbol
_atom_site_fract_x
_atom_site_fract_y
_atom_site_fract_z
_atom_site_charge
Zn	Zn	0.94857 0.60735 0.15501 1.24500
Zn	Zn	0.84824 0.39724 0.24699 1.26200
Zn	Zn	0.84924 0.54366 0.22122 1.18500
Zn	Zn	0.94570 0.45673 0.17762 1.33000
Zn	Zn	0.44857 0.89265 0.65501 1.25500
Zn	Zn	0.34824 0.10276 0.74699 1.27300
Zn	Zn	0.34924 0.95634 0.72122 1.18400
Zn	Zn	0.44570 0.04327 0.67762 1.37000
B 	B 	0.82290 0.75210 0.02340 -1.18900
B 	B 	0.87330 0.72330 0.98420 1.52100
B 	B 	0.83260 0.65390 0.96300 0.91300
B 	B 	0.75530 0.63990 0.98740 -0.75800
B 	B 	0.74770 0.69990 0.02480 1.16200
B 	B 	0.68140 0.69330 0.96690 0.12900
B 	B 	0.73290 0.66430 0.92790 0.64300
B 	B 	0.80820 0.71660 0.92650 -1.33900
B 	B 	0.80230 0.77910 0.96350 1.06800
B 	B 	0.72240 0.76570 0.98840 -0.02600
B 	B 	0.69680 0.81490 0.84980 1.50000
B 	B 	0.65470 0.74550 0.82940 -0.90700
B 	B 	0.57580 0.73240 0.85530 -0.05100
B 	B 	0.56920 0.79500 0.89130 -0.11300
B 	B 	0.64500 0.84650 0.88870 -0.22900
B 	B 	0.62480 0.86960 0.82810 -0.24000
B 	B 	0.54640 0.85800 0.85300 0.71000
B 	B 	0.50400 0.78850 0.83340 0.45100
B 	B 	0.55710 0.75730 0.79490 1.36100
B 	B 	0.63030 0.80760 0.79240 0.18500
B 	B 	0.75050 0.35690 0.04780 -34.44700
B 	B 	0.79050 0.28680 0.07280 52.98100
B 	B 	0.73350 0.25920 0.10810 4.06200
B 	B 	0.65930 0.31170 0.10600 89.74400
B 	B 	0.66860 0.37150 0.06940 26.07200
B 	B 	0.59640 0.31660 0.04690 -64.23900
B 	B 	0.63600 0.24690 0.07140 34.30400
B 	B 	0.71860 0.23120 0.05050 -139.82900
B 	B 	0.72720 0.29060 0.01280 101.87600
B 	B 	0.65160 0.34350 0.01000 -21.05700
B 	B 	0.58380 0.25670 0.91380 1.97800
B 	B 	0.62000 0.18620 0.93930 1.93400
B 	B 	0.56240 0.16240 0.97600 3.20300
B 	B 	0.48820 0.21420 0.97310 2.19600
B 	B 	0.50100 0.27430 0.93400 2.75900
B 	B 	0.42630 0.21760 0.91380 -0.05600
B 	B 	0.46470 0.15170 0.93950 -2.00000
B 	B 	0.54560 0.13190 0.91780 -1.85600
B 	B 	0.55850 0.18990 0.87930 0.48100
B 	B 	0.48480 0.24400 0.87630 -2.75200
B 	B 	0.24300 0.52980 0.24620 -0.14200
B 	B 	0.22060 0.46120 0.21440 0.95000
B 	B 	0.20100 0.47720 0.15220 -0.01700
B 	B 	0.21090 0.55520 0.14570 0.48600
B 	B 	0.23760 0.58820 0.20400 0.42700
B 	B 	0.29380 0.44750 0.18560 0.01500
B 	B 	0.32060 0.48160 0.24510 0.01600
B 	B 	0.32950 0.55790 0.23880 0.62500
B 	B 	0.30950 0.57540 0.17490 -0.11600
B 	B 	0.28790 0.50670 0.14260 0.45800
B 	B 	0.48650 0.43350 0.22880 -0.86800
B 	B 	0.51260 0.50120 0.26130 0.25000
B 	B 	0.50660 0.55920 0.21840 -0.81400
B 	B 	0.47980 0.52750 0.15950 -0.21900
B 	B 	0.46740 0.44960 0.16600 0.24400
B 	B 	0.58580 0.45210 0.25850 0.63100
B 	B 	0.55910 0.42000 0.20010 0.87800
B 	B 	0.55570 0.47740 0.15840 0.56600
B 	B 	0.57960 0.54470 0.18980 1.47000
B 	B 	0.59890 0.52810 0.25280 1.25600
B 	B 	0.32290 0.74790 0.52340 -1.15100
B 	B 	0.37330 0.77670 0.48420 1.69300
B 	B 	0.33260 0.84610 0.46300 0.61400
B 	B 	0.25530 0.86010 0.48740 -0.51600
B 	B 	0.24770 0.80010 0.52480 1.06000
B 	B 	0.18140 0.80670 0.46690 0.03900
B 	B 	0.23290 0.83570 0.42790 0.63900
B 	B 	0.30820 0.78340 0.42650 -1.14800
B 	B 	0.30230 0.72090 0.46350 0.83600
B 	B 	0.22240 0.73430 0.48840 0.09600
B 	B 	0.19680 0.68510 0.34980 1.75300
B 	B 	0.15470 0.75450 0.32940 -0.98400
B 	B 	0.07580 0.76760 0.35530 -0.10500
B 	B 	0.06920 0.70500 0.39130 -0.12100
B 	B 	0.14500 0.65350 0.38870 -0.32100
B 	B 	0.12480 0.63040 0.32810 -0.30200
B 	B 	0.04640 0.64200 0.35300 0.73400
B 	B 	0.00400 0.71150 0.33340 0.53700
B 	B 	0.05710 0.74270 0.29490 1.48900
B 	B 	0.13030 0.69240 0.29240 0.01300
B 	B 	0.25050 0.14310 0.54780 -41.44800
B 	B 	0.29050 0.21320 0.57280 63.38100
B 	B 	0.23350 0.24080 0.60810 5.04800
B 	B 	0.15930 0.18830 0.60600 108.86200
B 	B 	0.16860 0.12850 0.56940 31.17000
B 	B 	0.09640 0.18340 0.54690 -77.39800
B 	B 	0.13600 0.25310 0.57140 40.91100
B 	B 	0.21860 0.26880 0.55050 -168.67400
B 	B 	0.22720 0.20940 0.51280 123.46600
B 	B 	0.15160 0.15650 0.51000 -25.71800
B 	B 	0.08380 0.24330 0.41380 2.45200
B 	B 	0.12000 0.31380 0.43930 2.19500
B 	B 	0.06240 0.33760 0.47600 3.67000
B 	B 	0.98820 0.28580 0.47310 2.61600
B 	B 	0.00100 0.22570 0.43400 3.25100
B 	B 	0.92630 0.28240 0.41380 -0.03500
B 	B 	0.96470 0.34830 0.43950 -2.56000
B 	B 	0.04560 0.36810 0.41780 -2.12600
B 	B 	0.05850 0.31010 0.37930 0.49600
B 	B 	0.98480 0.25600 0.37630 -3.47100
B 	B 	0.74300 0.97020 0.74620 -0.06400
B 	B 	0.72060 0.03880 0.71440 1.00500
B 	B 	0.70100 0.02280 0.65220 -0.12500
B 	B 	0.71090 0.94480 0.64570 0.63300
B 	B 	0.73760 0.91180 0.70400 0.26400
B 	B 	0.79380 0.05250 0.68560 0.16500
B 	B 	0.82060 0.01840 0.74510 -0.17300
B 	B 	0.82950 0.94210 0.73880 0.76600
B 	B 	0.80950 0.92460 0.67490 -0.09900
B 	B 	0.78790 0.99330 0.64260 0.39600
B 	B 	0.98650 0.06650 0.72880 -1.01800
B 	B 	0.01260 0.99880 0.76130 0.26200
B 	B 	0.00660 0.94080 0.71840 -1.09800
B 	B 	0.97980 0.97250 0.65950 -0.16100
B 	B 	0.96740 0.05040 0.66600 0.25300
B 	B 	0.08580 0.04790 0.75850 0.58200
B 	B 	0.05910 0.08000 0.70010 1.06200
B 	B 	0.05570 0.02260 0.65840 0.41700
B 	B 	0.07960 0.95530 0.68980 1.69800
B 	B 	0.09890 0.97190 0.75280 1.35600
H 	H 	0.83900 0.77400 0.05100 0.44800
H 	H 	0.92400 0.73800 0.99100 -0.46100
H 	H 	0.86300 0.61700 0.95900 -0.18400
H 	H 	0.74600 0.60600 0.00200 0.45500
H 	H 	0.72800 0.70300 0.06300 -0.28700
H 	H 	0.61890 0.68170 0.96490 -0.49100
H 	H 	0.82400 0.72200 0.89600 0.48400
H 	H 	0.81900 0.82000 0.95200 -0.34600
H 	H 	0.68250 0.80100 0.99950 -0.08400
H 	H 	0.74890 0.82800 0.85990 -0.61200
H 	H 	0.68400 0.71000 0.82200 0.26300
H 	H 	0.56700 0.67000 0.86200 -0.12300
H 	H 	0.65200 0.87800 0.91300 -0.00400
H 	H 	0.62700 0.90100 0.82100 0.05400
H 	H 	0.50500 0.89600 0.85900 -0.22300
H 	H 	0.44530 0.78800 0.83130 -0.49500
H 	H 	0.54400 0.73900 0.76500 -0.55500
H 	H 	0.64000 0.81000 0.76400 -0.09000
H 	H 	0.84840 0.27850 0.08240 -17.33000
H 	H 	0.75720 0.24400 0.13220 -1.91400
H 	H 	0.64870 0.31900 0.12770 -48.22900
H 	H 	0.65500 0.42100 0.07600 -5.62300
H 	H 	0.53420 0.32400 0.03820 20.02500
H 	H 	0.59650 0.21000 0.07350 -10.03300
H 	H 	0.72270 0.19300 0.04270 57.89400
H 	H 	0.74760 0.28200 0.99060 -44.52900
H 	H 	0.62690 0.36200 0.97790 7.54400
H 	H 	0.61210 0.29400 0.90610 -1.04100
H 	H 	0.67180 0.17600 0.95180 -1.17200
H 	H 	0.58400 0.15000 0.00800 -1.29100
H 	H 	0.47600 0.21700 0.00200 -0.73300
H 	H 	0.48680 0.31500 0.94580 -0.65200
H 	H 	0.34600 0.22800 0.90900 -0.03000
H 	H 	0.42900 0.12300 0.94400 0.72100
H 	H 	0.55390 0.08600 0.90990 0.47600
H 	H 	0.57050 0.18400 0.84750 -0.14300
H 	H 	0.46200 0.26800 0.84800 0.97900
H 	H 	0.23100 0.54400 0.27100 -0.00200
H 	H 	0.19000 0.43200 0.22700 -0.34600
H 	H 	0.16170 0.45200 0.12870 0.05600
H 	H 	0.17900 0.58000 0.11300 0.06200
H 	H 	0.22020 0.63200 0.20820 -0.12200
H 	H 	0.31250 0.40200 0.17950 -0.07100
H 	H 	0.35280 0.45900 0.27080 -0.04700
H 	H 	0.36900 0.58700 0.25900 -0.21400
H 	H 	0.34480 0.60000 0.16080 0.04600
H 	H 	0.31310 0.49460 0.11010 -0.01600
H 	H 	0.45720 0.40900 0.23820 0.31800
H 	H 	0.49370 0.51000 0.28970 -0.10100
H 	H 	0.48710 0.60400 0.22410 0.24400
H 	H 	0.44750 0.55100 0.13050 0.08700
H 	H 	0.41560 0.44100 0.14060 -0.12400
H 	H 	0.61400 0.43400 0.28600 -0.29200
H 	H 	0.58270 0.37500 0.19370 0.21700
H 	H 	0.56200 0.46700 0.12900 -0.12600
H 	H 	0.59870 0.56700 0.17270 -0.66000
H 	H 	0.63900 0.54000 0.27000 -0.65700
H 	H 	0.33900 0.72600 0.55100 0.43800
H 	H 	0.42400 0.76200 0.49100 -0.50000
H 	H 	0.36300 0.88300 0.45900 -0.05600
H 	H 	0.24600 0.89400 0.50200 0.41200
H 	H 	0.22800 0.79700 0.56300 -0.26000
H 	H 	0.11890 0.81830 0.46490 -0.54300
H 	H 	0.32400 0.77800 0.39600 0.43800
H 	H 	0.31900 0.68000 0.45200 -0.26400
H 	H 	0.18250 0.69900 0.49950 -0.12100
H 	H 	0.24890 0.67200 0.35990 -0.70400
H 	H 	0.18400 0.79000 0.32200 0.29300
H 	H 	0.06700 0.83000 0.36200 -0.12200
H 	H 	0.15200 0.62200 0.41300 0.03100
H 	H 	0.12700 0.59900 0.32100 0.09200
H 	H 	0.00500 0.60400 0.35900 -0.22000
H 	H 	0.94530 0.71200 0.33130 -0.58400
H 	H 	0.04400 0.76100 0.26500 -0.59800
H 	H 	0.14000 0.69000 0.26400 -0.01700
H 	H 	0.34840 0.22150 0.58240 -20.69400
H 	H 	0.25720 0.25600 0.63220 -2.35800
H 	H 	0.14870 0.18100 0.62770 -58.48300
H 	H 	0.15500 0.07900 0.57600 -6.69600
H 	H 	0.03420 0.17600 0.53820 24.14400
H 	H 	0.09650 0.29000 0.57350 -11.94700
H 	H 	0.22270 0.30700 0.54270 69.86600
H 	H 	0.24760 0.21800 0.49060 -53.99000
H 	H 	0.12690 0.13800 0.47790 9.20300
H 	H 	0.11210 0.20600 0.40610 -1.27200
H 	H 	0.17180 0.32400 0.45180 -1.36200
H 	H 	0.08400 0.35000 0.50800 -1.44600
H 	H 	0.97600 0.28300 0.50200 -0.84300
H 	H 	0.98680 0.18500 0.44580 -0.75400
H 	H 	0.84600 0.27200 0.40900 -0.03900
H 	H 	0.92900 0.37700 0.44400 0.92800
H 	H 	0.05390 0.41400 0.40990 0.54200
H 	H 	0.07050 0.31600 0.34750 -0.14200
H 	H 	0.96200 0.23200 0.34800 1.23400
H 	H 	0.73100 0.95600 0.77100 -0.04100
H 	H 	0.69000 0.06800 0.72700 -0.35900
H 	H 	0.66170 0.04800 0.62870 0.11700
H 	H 	0.67900 0.92000 0.61300 0.06200
H 	H 	0.72020 0.86800 0.70820 -0.06200
H 	H 	0.81250 0.09800 0.67950 -0.11400
H 	H 	0.85280 0.04100 0.77080 0.02800
H 	H 	0.86900 0.91300 0.75900 -0.26900
H 	H 	0.84480 0.90000 0.66080 0.04900
H 	H 	0.81310 0.00540 0.61010 0.03300
H 	H 	0.95720 0.09100 0.73820 0.38700
H 	H 	0.99370 0.99000 0.78970 -0.10600
H 	H 	0.98710 0.89600 0.72410 0.32700
H 	H 	0.94750 0.94900 0.63050 0.08100
H 	H 	0.91560 0.05900 0.64060 -0.12300
H 	H 	0.11400 0.06600 0.78600 -0.27000
H 	H 	0.08270 0.12500 0.69370 0.27400
H 	H 	0.06200 0.03300 0.62900 -0.03400
H 	H 	0.09870 0.93300 0.67270 -0.75400
H 	H 	0.13900 0.96000 0.77000 -0.72500
C 	C 	0.89510 0.64430 0.06190 0.50400
C 	C 	0.83741 0.67760 0.01941 -0.60500
C 	C 	0.71922 0.74050 0.93082 -0.29200
C 	C 	0.65976 0.77150 0.88676 -0.27100
C 	C 	0.54270 0.83170 0.79690 -0.90800
C 	C 	0.80410 0.36760 0.14790 11.71300
C 	C 	0.74873 0.33410 0.10413 -32.09400
C 	C 	0.63755 0.26830 0.01475 17.38500
C 	C 	0.58122 0.23640 0.97072 -6.92300
C 	C 	0.46660 0.16990 0.88210 1.19500
C 	C 	0.41110 0.13480 0.83990 -0.10700
C 	C 	0.08810 0.53510 0.18490 0.57000
C 	C 	0.17686 0.52580 0.19016 -0.66500
C 	C 	0.35579 0.50950 0.19979 -0.47100
C 	C 	0.44415 0.49990 0.20455 0.16400
C 	C 	0.62107 0.47880 0.21427 -1.37000
C 	C 	0.48690 0.86260 0.75310 0.61300
C 	C 	0.70910 0.46730 0.21900 0.77900
C 	C 	0.39510 0.85570 0.56190 0.51100
C 	C 	0.33741 0.82240 0.51941 -0.59000
C 	C 	0.21922 0.75950 0.43082 -0.29300
C 	C 	0.15976 0.72850 0.38676 -0.28200
C 	C 	0.04270 0.66830 0.29690 -0.89900
C 	C 	0.30410 0.13240 0.64790 14.04800
C 	C 	0.24873 0.16590 0.60413 -38.65700
C 	C 	0.13755 0.23170 0.51475 21.02900
C 	C 	0.08122 0.26360 0.47072 -8.26400
C 	C 	0.96660 0.33010 0.38210 1.54500
C 	C 	0.91110 0.36520 0.33990 -0.21900
C 	C 	0.58810 0.96490 0.68490 0.56100
C 	C 	0.67686 0.97420 0.69016 -0.66900
C 	C 	0.85579 0.99050 0.69979 -0.52400
C 	C 	0.94415 0.00010 0.70455 0.27600
C 	C 	0.12107 0.02120 0.71427 -1.42700
C 	C 	0.98690 0.63740 0.25310 0.59900
C 	C 	0.20910 0.03270 0.71900 0.82000
O 	O 	0.88640 0.53690 0.15907 -0.35800
O 	O 	0.91187 0.46528 0.23975 -0.69700
O 	O 	0.89369 0.66282 0.10359 -0.42300
O 	O 	0.93504 0.60454 0.05304 -0.08000
O 	O 	0.83665 0.41226 0.13915 -2.58700
O 	O 	0.80758 0.34576 0.18848 -3.60200
O 	O 	0.40605 0.15623 0.79845 -0.23700
O 	O 	0.37682 0.09140 0.84832 -0.18900
O 	O 	0.05764 0.49746 0.20554 -0.47000
O 	O 	0.05656 0.57856 0.15996 -0.42200
O 	O 	0.48274 0.84041 0.71284 -0.52600
O 	O 	0.45264 0.90886 0.76114 -0.58400
O 	O 	0.73881 0.50095 0.19381 -0.51800
O 	O 	0.74137 0.42556 0.24567 -0.50600
O 	O 	0.38640 0.96310 0.65907 -0.28900
O 	O 	0.41187 0.03472 0.73975 -0.68500
O 	O 	0.39369 0.83718 0.60359 -0.40200
O 	O 	0.43504 0.89546 0.55304 -0.00300
O 	O 	0.33665 0.08774 0.63915 -3.00500
O 	O 	0.30758 0.15424 0.68848 -4.23700
O 	O 	0.90605 0.34377 0.29845 -0.22800
O 	O 	0.87682 0.40860 0.34832 -0.16600
O 	O 	0.55764 0.00254 0.70554 -0.45200
O 	O 	0.55656 0.92144 0.65996 -0.41300
O 	O 	0.98274 0.65959 0.21284 -0.53500
O 	O 	0.95264 0.59114 0.26114 -0.58300
O 	O 	0.23881 0.99905 0.69381 -0.52300
O 	O 	0.24137 0.07444 0.74567 -0.49400
Zn	Zn	0.55143 0.10735 0.34499 1.25400
Zn	Zn	0.65176 0.89724 0.25301 1.27200
Zn	Zn	0.65076 0.04366 0.27878 1.18300
Zn	Zn	0.55430 0.95673 0.32238 1.36900
Zn	Zn	0.05143 0.39265 0.84499 1.24400
Zn	Zn	0.15176 0.60276 0.75301 1.26100
Zn	Zn	0.15076 0.45634 0.77878 1.18400
Zn	Zn	0.05430 0.54327 0.82238 1.32900
B 	B 	0.67710 0.25210 0.47660 -1.15100
B 	B 	0.62670 0.22330 0.51580 1.69300
B 	B 	0.66740 0.15390 0.53700 0.61400
B 	B 	0.74470 0.13990 0.51260 -0.51600
B 	B 	0.75230 0.19990 0.47520 1.06000
B 	B 	0.81860 0.19330 0.53310 0.03900
B 	B 	0.76710 0.16430 0.57210 0.63900
B 	B 	0.69180 0.21660 0.57350 -1.14800
B 	B 	0.69770 0.27910 0.53650 0.83600
B 	B 	0.77760 0.26570 0.51160 0.09600
B 	B 	0.80320 0.31490 0.65020 1.75300
B 	B 	0.84530 0.24550 0.67060 -0.98400
B 	B 	0.92420 0.23240 0.64470 -0.10500
B 	B 	0.93080 0.29500 0.60870 -0.12100
B 	B 	0.85500 0.34650 0.61130 -0.32100
B 	B 	0.87520 0.36960 0.67190 -0.30200
B 	B 	0.95360 0.35800 0.64700 0.73400
B 	B 	0.99600 0.28850 0.66660 0.53700
B 	B 	0.94290 0.25730 0.70510 1.48900
B 	B 	0.86970 0.30760 0.70760 0.01300
B 	B 	0.74950 0.85690 0.45220 -41.44800
B 	B 	0.70950 0.78680 0.42720 63.38100
B 	B 	0.76650 0.75920 0.39190 5.04800
B 	B 	0.84070 0.81170 0.39400 108.86200
B 	B 	0.83140 0.87150 0.43060 31.17000
B 	B 	0.90360 0.81660 0.45310 -77.39800
B 	B 	0.86400 0.74690 0.42860 40.91100
B 	B 	0.78140 0.73120 0.44950 -168.67400
B 	B 	0.77280 0.79060 0.48720 123.46600
B 	B 	0.84840 0.84350 0.49000 -25.71800
B 	B 	0.91620 0.75670 0.58620 2.45200
B 	B 	0.88000 0.68620 0.56070 2.19500
B 	B 	0.93760 0.66240 0.52400 3.67000
B 	B 	0.01180 0.71420 0.52690 2.61600
B 	B 	0.99900 0.77430 0.56600 3.25100
B 	B 	0.07370 0.71760 0.58620 -0.03500
B 	B 	0.03530 0.65170 0.56050 -2.56000
B 	B 	0.95440 0.63190 0.58220 -2.12600
B 	B 	0.94150 0.68990 0.62070 0.49600
B 	B 	0.01520 0.74400 0.62370 -3.47100
B 	B 	0.25700 0.02980 0.25380 -0.06400
B 	B 	0.27940 0.96120 0.28560 1.00500
B 	B 	0.29900 0.97720 0.34780 -0.12500
B 	B 	0.28910 0.05520 0.35430 0.63300
B 	B 	0.26240 0.08820 0.29600 0.26400
B 	B 	0.20620 0.94750 0.31440 0.16500
B 	B 	0.17940 0.98160 0.25490 -0.17300
B 	B 	0.17050 0.05790 0.26120 0.76600
B 	B 	0.19050 0.07540 0.32510 -0.09900
B 	B 	0.21210 0.00670 0.35740 0.39600
B 	B 	0.01350 0.93350 0.27120 -1.01800
B 	B 	0.98740 0.00120 0.23870 0.26200
B 	B 	0.99340 0.05920 0.28160 -1.09800
B 	B 	0.02020 0.02750 0.34050 -0.16100
B 	B 	0.03260 0.94960 0.33400 0.25300
B 	B 	0.91420 0.95210 0.24150 0.58200
B 	B 	0.94090 0.92000 0.29990 1.06200
B 	B 	0.94430 0.97740 0.34160 0.41700
B 	B 	0.92040 0.04470 0.31020 1.69800
B 	B 	0.90110 0.02810 0.24720 1.35600
B 	B 	0.17710 0.24790 0.97660 -1.18900
B 	B 	0.12670 0.27670 0.01580 1.52100
B 	B 	0.16740 0.34610 0.03700 0.91300
B 	B 	0.24470 0.36010 0.01260 -0.75800
B 	B 	0.25230 0.30010 0.97520 1.16200
B 	B 	0.31860 0.30670 0.03310 0.12900
B 	B 	0.26710 0.33570 0.07210 0.64300
B 	B 	0.19180 0.28340 0.07350 -1.33900
B 	B 	0.19770 0.22090 0.03650 1.06800
B 	B 	0.27760 0.23430 0.01160 -0.02600
B 	B 	0.30320 0.18510 0.15020 1.50000
B 	B 	0.34530 0.25450 0.17060 -0.90700
B 	B 	0.42420 0.26760 0.14470 -0.05100
B 	B 	0.43080 0.20500 0.10870 -0.11300
B 	B 	0.35500 0.15350 0.11130 -0.22900
B 	B 	0.37520 0.13040 0.17190 -0.24000
B 	B 	0.45360 0.14200 0.14700 0.71000
B 	B 	0.49600 0.21150 0.16660 0.45100
B 	B 	0.44290 0.24270 0.20510 1.36100
B 	B 	0.36970 0.19240 0.20760 0.18500
B 	B 	0.24950 0.64310 0.95220 -34.44700
B 	B 	0.20950 0.71320 0.92720 52.98100
B 	B 	0.26650 0.74080 0.89190 4.06200
B 	B 	0.34070 0.68830 0.89400 89.74400
B 	B 	0.33140 0.62850 0.93060 26.07200
B 	B 	0.40360 0.68340 0.95310 -64.23900
B 	B 	0.36400 0.75310 0.92860 34.30400
B 	B 	0.28140 0.76880 0.94950 -139.82900
B 	B 	0.27280 0.70940 0.98720 101.87600
B 	B 	0.34840 0.65650 0.99000 -21.05700
B 	B 	0.41620 0.74330 0.08620 1.97800
B 	B 	0.38000 0.81380 0.06070 1.93400
B 	B 	0.43760 0.83760 0.02400 3.20300
B 	B 	0.51180 0.78580 0.02690 2.19600
B 	B 	0.49900 0.72570 0.06600 2.75900
B 	B 	0.57370 0.78240 0.08620 -0.05600
B 	B 	0.53530 0.84830 0.06050 -2.00000
B 	B 	0.45440 0.86810 0.08220 -1.85600
B 	B 	0.44150 0.81010 0.12070 0.48100
B 	B 	0.51520 0.75600 0.12370 -2.75200
B 	B 	0.75700 0.47020 0.75380 -0.14200
B 	B 	0.77940 0.53880 0.78560 0.95000
B 	B 	0.79900 0.52280 0.84780 -0.01700
B 	B 	0.78910 0.44480 0.85430 0.48600
B 	B 	0.76240 0.41180 0.79600 0.42700
B 	B 	0.70620 0.55250 0.81440 0.01500
B 	B 	0.67940 0.51840 0.75490 0.01600
B 	B 	0.67050 0.44210 0.76120 0.62500
B 	B 	0.69050 0.42460 0.82510 -0.11600
B 	B 	0.71210 0.49330 0.85740 0.45800
B 	B 	0.51350 0.56650 0.77120 -0.86800
B 	B 	0.48740 0.49880 0.73870 0.25000
B 	B 	0.49340 0.44080 0.78160 -0.81400
B 	B 	0.52020 0.47250 0.84050 -0.21900
B 	B 	0.53260 0.55040 0.83400 0.24400
B 	B 	0.41420 0.54790 0.74150 0.63100
B 	B 	0.44090 0.58000 0.79990 0.87800
B 	B 	0.44430 0.52260 0.84160 0.56600
B 	B 	0.42040 0.45530 0.81020 1.47000
B 	B 	0.40110 0.47190 0.74720 1.25600
H 	H 	0.66100 0.27400 0.44900 0.43800
H 	H 	0.57600 0.23800 0.50900 -0.50000
H 	H 	0.63700 0.11700 0.54100 -0.05600
H 	H 	0.75400 0.10600 0.49800 0.41200
H 	H 	0.77200 0.20300 0.43700 -0.26000
H 	H 	0.88110 0.18170 0.53510 -0.54300
H 	H 	0.67600 0.22200 0.60400 0.43800
H 	H 	0.68100 0.32000 0.54800 -0.26400
H 	H 	0.81750 0.30100 0.50050 -0.12100
H 	H 	0.75110 0.32800 0.64010 -0.70400
H 	H 	0.81600 0.21000 0.67800 0.29300
H 	H 	0.93300 0.17000 0.63800 -0.12200
H 	H 	0.84800 0.37800 0.58700 0.03100
H 	H 	0.87300 0.40100 0.67900 0.09200
H 	H 	0.99500 0.39600 0.64100 -0.22000
H 	H 	0.05470 0.28800 0.66870 -0.58400
H 	H 	0.95600 0.23900 0.73500 -0.59800
H 	H 	0.86000 0.31000 0.73600 -0.01700
H 	H 	0.65160 0.77850 0.41760 -20.69400
H 	H 	0.74280 0.74400 0.36780 -2.35800
H 	H 	0.85130 0.81900 0.37230 -58.48300
H 	H 	0.84500 0.92100 0.42400 -6.69600
H 	H 	0.96580 0.82400 0.46180 24.14400
H 	H 	0.90350 0.71000 0.42650 -11.94700
H 	H 	0.77730 0.69300 0.45730 69.86600
H 	H 	0.75240 0.78200 0.50940 -53.99000
H 	H 	0.87310 0.86200 0.52210 9.20300
H 	H 	0.88790 0.79400 0.59390 -1.27200
H 	H 	0.82820 0.67600 0.54820 -1.36200
H 	H 	0.91600 0.65000 0.49200 -1.44600
H 	H 	0.02400 0.71700 0.49800 -0.84300
H 	H 	0.01320 0.81500 0.55420 -0.75400
H 	H 	0.15400 0.72800 0.59100 -0.03900
H 	H 	0.07100 0.62300 0.55600 0.92800
H 	H 	0.94610 0.58600 0.59010 0.54200
H 	H 	0.92950 0.68400 0.65250 -0.14200
H 	H 	0.03800 0.76800 0.65200 1.23400
H 	H 	0.26900 0.04400 0.22900 -0.04100
H 	H 	0.31000 0.93200 0.27300 -0.35900
H 	H 	0.33830 0.95200 0.37130 0.11700
H 	H 	0.32100 0.08000 0.38700 0.06200
H 	H 	0.27980 0.13200 0.29180 -0.06200
H 	H 	0.18750 0.90200 0.32050 -0.11400
H 	H 	0.14720 0.95900 0.22920 0.02800
H 	H 	0.13100 0.08700 0.24100 -0.26900
H 	H 	0.15520 0.10000 0.33920 0.04900
H 	H 	0.18690 0.99460 0.38990 0.03300
H 	H 	0.04280 0.90900 0.26180 0.38700
H 	H 	0.00630 0.01000 0.21030 -0.10600
H 	H 	0.01290 0.10400 0.27590 0.32700
H 	H 	0.05250 0.05100 0.36950 0.08100
H 	H 	0.08440 0.94100 0.35940 -0.12300
H 	H 	0.88600 0.93400 0.21400 -0.27000
H 	H 	0.91730 0.87500 0.30630 0.27400
H 	H 	0.93800 0.96700 0.37100 -0.03400
H 	H 	0.90130 0.06700 0.32730 -0.75400
H 	H 	0.86100 0.04000 0.23000 -0.72500
H 	H 	0.16100 0.22600 0.94900 0.44800
H 	H 	0.07600 0.26200 0.00900 -0.46100
H 	H 	0.13700 0.38300 0.04100 -0.18400
H 	H 	0.25400 0.39400 0.99800 0.45500
H 	H 	0.27200 0.29700 0.93700 -0.28700
H 	H 	0.38110 0.31830 0.03510 -0.49100
H 	H 	0.17600 0.27800 0.10400 0.48400
H 	H 	0.18100 0.18000 0.04800 -0.34600
H 	H 	0.31750 0.19900 0.00050 -0.08400
H 	H 	0.25110 0.17200 0.14010 -0.61200
H 	H 	0.31600 0.29000 0.17800 0.26300
H 	H 	0.43300 0.33000 0.13800 -0.12300
H 	H 	0.34800 0.12200 0.08700 -0.00400
H 	H 	0.37300 0.09900 0.17900 0.05400
H 	H 	0.49500 0.10400 0.14100 -0.22300
H 	H 	0.55470 0.21200 0.16870 -0.49500
H 	H 	0.45600 0.26100 0.23500 -0.55500
H 	H 	0.36000 0.19000 0.23600 -0.09000
H 	H 	0.15160 0.72150 0.91760 -17.33000
H 	H 	0.24280 0.75600 0.86780 -1.91400
H 	H 	0.35130 0.68100 0.87230 -48.22900
H 	H 	0.34500 0.57900 0.92400 -5.62300
H 	H 	0.46580 0.67600 0.96180 20.02500
H 	H 	0.40350 0.79000 0.92650 -10.03300
H 	H 	0.27730 0.80700 0.95730 57.89400
H 	H 	0.25240 0.71800 0.00940 -44.52900
H 	H 	0.37310 0.63800 0.02210 7.54400
H 	H 	0.38790 0.70600 0.09390 -1.04100
H 	H 	0.32820 0.82400 0.04820 -1.17200
H 	H 	0.41600 0.85000 0.99200 -1.29100
H 	H 	0.52400 0.78300 0.99800 -0.73300
H 	H 	0.51320 0.68500 0.05420 -0.65200
H 	H 	0.65400 0.77200 0.09100 -0.03000
H 	H 	0.57100 0.87700 0.05600 0.72100
H 	H 	0.44610 0.91400 0.09010 0.47600
H 	H 	0.42950 0.81600 0.15250 -0.14300
H 	H 	0.53800 0.73200 0.15200 0.97900
H 	H 	0.76900 0.45600 0.72900 -0.00200
H 	H 	0.81000 0.56800 0.77300 -0.34600
H 	H 	0.83830 0.54800 0.87130 0.05600
H 	H 	0.82100 0.42000 0.88700 0.06200
H 	H 	0.77980 0.36800 0.79180 -0.12200
H 	H 	0.68750 0.59800 0.82050 -0.07100
H 	H 	0.64720 0.54100 0.72920 -0.04700
H 	H 	0.63100 0.41300 0.74100 -0.21400
H 	H 	0.65520 0.40000 0.83920 0.04600
H 	H 	0.68690 0.50540 0.88990 -0.01600
H 	H 	0.54280 0.59100 0.76180 0.31800
H 	H 	0.50630 0.49000 0.71030 -0.10100
H 	H 	0.51290 0.39600 0.77590 0.24400
H 	H 	0.55250 0.44900 0.86950 0.08700
H 	H 	0.58440 0.55900 0.85940 -0.12400
H 	H 	0.38600 0.56600 0.71400 -0.29200
H 	H 	0.41730 0.62500 0.80630 0.21700
H 	H 	0.43800 0.53300 0.87100 -0.12600
H 	H 	0.40130 0.43300 0.82730 -0.66000
H 	H 	0.36100 0.46000 0.73000 -0.65700
C 	C 	0.60490 0.14430 0.43810 0.51100
C 	C 	0.66259 0.17760 0.48059 -0.59000
C 	C 	0.78078 0.24050 0.56918 -0.29300
C 	C 	0.84024 0.27150 0.61324 -0.28200
C 	C 	0.95730 0.33170 0.70310 -0.89900
C 	C 	0.69590 0.86760 0.35210 14.04800
C 	C 	0.75127 0.83410 0.39587 -38.65700
C 	C 	0.86245 0.76830 0.48525 21.02900
C 	C 	0.91878 0.73640 0.52928 -8.26400
C 	C 	0.03340 0.66990 0.61790 1.54500
C 	C 	0.08890 0.63480 0.66010 -0.21900
C 	C 	0.41190 0.03510 0.31510 0.56100
C 	C 	0.32314 0.02580 0.30984 -0.66900
C 	C 	0.14421 0.00950 0.30021 -0.52400
C 	C 	0.05585 0.99990 0.29545 0.27600
C 	C 	0.87893 0.97880 0.28573 -1.42700
C 	C 	0.01310 0.36260 0.74690 0.59900
C 	C 	0.79090 0.96730 0.28100 0.82000
C 	C 	0.10490 0.35570 0.93810 0.50400
C 	C 	0.16259 0.32240 0.98059 -0.60500
C 	C 	0.28078 0.25950 0.06918 -0.29200
C 	C 	0.34024 0.22850 0.11324 -0.27100
C 	C 	0.45730 0.16830 0.20310 -0.90800
C 	C 	0.19590 0.63240 0.85210 11.71300
C 	C 	0.25127 0.66590 0.89587 -32.09400
C 	C 	0.36245 0.73170 0.98525 17.38500
C 	C 	0.41878 0.76360 0.02928 -6.92300
C 	C 	0.53340 0.83010 0.11790 1.19500
C 	C 	0.58890 0.86520 0.16010 -0.10700
C 	C 	0.91190 0.46490 0.81510 0.57000
C 	C 	0.82314 0.47420 0.80984 -0.66500
C 	C 	0.64421 0.49050 0.80021 -0.47100
C 	C 	0.55585 0.50010 0.79545 0.16400
C 	C 	0.37893 0.52120 0.78573 -1.37000
C 	C 	0.51310 0.13740 0.24690 0.61300
C 	C 	0.29090 0.53270 0.78100 0.77900
O 	O 	0.61360 0.03690 0.34093 -0.28900
O 	O 	0.58813 0.96528 0.26025 -0.68500
O 	O 	0.60631 0.16282 0.39641 -0.40200
O 	O 	0.56496 0.10454 0.44696 -0.00300
O 	O 	0.66335 0.91226 0.36085 -3.00500
O 	O 	0.69242 0.84576 0.31152 -4.23700
O 	O 	0.09395 0.65623 0.70155 -0.22800
O 	O 	0.12318 0.59140 0.65168 -0.16600
O 	O 	0.44236 0.99746 0.29446 -0.45200
O 	O 	0.44344 0.07856 0.34004 -0.41300
O 	O 	0.01726 0.34041 0.78716 -0.53500
O 	O 	0.04736 0.40886 0.73886 -0.58300
O 	O 	0.76119 0.00095 0.30619 -0.52300
O 	O 	0.75863 0.92556 0.25433 -0.49400
O 	O 	0.11360 0.46310 0.84093 -0.35800
O 	O 	0.08813 0.53472 0.76025 -0.69700
O 	O 	0.10631 0.33718 0.89641 -0.42300
O 	O 	0.06496 0.39546 0.94696 -0.08000
O 	O 	0.16335 0.58774 0.86085 -2.58700
O 	O 	0.19242 0.65424 0.81152 -3.60200
O 	O 	0.59395 0.84377 0.20155 -0.23700
O 	O 	0.62318 0.90860 0.15168 -0.18900
O 	O 	0.94236 0.50254 0.79446 -0.47000
O 	O 	0.94344 0.42144 0.84004 -0.42200
O 	O 	0.51726 0.15959 0.28716 -0.52600
O 	O 	0.54736 0.09114 0.23886 -0.58400
O 	O 	0.26119 0.49905 0.80619 -0.51800
O 	O 	0.25863 0.57444 0.75433 -0.50600
