data_crystal

_cell_length_a 36.24000
_cell_length_b 36.24000
_cell_length_c 36.24000
_cell_angle_alpha 90.00000
_cell_angle_beta  90.00000
_cell_angle_gamma 90.00000

_symmetry_space_group_name_	'P 1'
_symmetry_space_group_name_H-M	'P 1'

loop_
_symmetry_equiv_pos_as_xyz
  x,y,z

loop_
_atom_site_label
_atom_site_type_symbol
_atom_site_fract_x
_atom_site_fract_y
_atom_site_fract_z
_atom_site_charge
C 	C 	0.21446 0.95047 0.14741 0.40500
C 	C 	0.23505 0.92005 0.12678 -0.18200
C 	C 	0.26920 0.90938 0.13740 0.15700
H 	H 	0.28030 0.92120 0.15800 -0.02000
O 	O 	0.22986 0.96180 0.17591 -0.43900
O 	O 	0.18576 0.96223 0.13268 -0.42100
H 	H 	0.24100 0.98500 0.26600 0.29900
C 	C 	0.21446 0.45047 0.64741 0.40600
C 	C 	0.23505 0.42005 0.62678 -0.18200
C 	C 	0.26920 0.40938 0.63740 0.15700
H 	H 	0.28030 0.42120 0.65800 -0.02000
O 	O 	0.22986 0.46180 0.67591 -0.44200
O 	O 	0.18576 0.46223 0.63268 -0.42500
H 	H 	0.24100 0.48500 0.76600 0.28700
C 	C 	0.71446 0.95047 0.64741 0.40500
C 	C 	0.73505 0.92005 0.62678 -0.18100
C 	C 	0.76920 0.90938 0.63740 0.15700
H 	H 	0.78030 0.92120 0.65800 -0.02000
O 	O 	0.72986 0.96180 0.67591 -0.43800
O 	O 	0.68576 0.96223 0.63268 -0.41900
H 	H 	0.74100 0.98500 0.76600 0.30000
C 	C 	0.71446 0.45047 0.14741 0.40700
C 	C 	0.73505 0.42005 0.12678 -0.18200
C 	C 	0.76920 0.40938 0.13740 0.15800
H 	H 	0.78030 0.42120 0.15800 -0.01900
O 	O 	0.72986 0.46180 0.17591 -0.44200
O 	O 	0.68576 0.46223 0.13268 -0.42500
H 	H 	0.74100 0.48500 0.26600 0.28800
C 	C 	0.78554 0.04953 0.14741 0.40700
C 	C 	0.76495 0.07995 0.12678 -0.18300
C 	C 	0.73080 0.09062 0.13740 0.15900
H 	H 	0.71970 0.07880 0.15800 -0.02100
O 	O 	0.77014 0.03820 0.17591 -0.44400
O 	O 	0.81424 0.03777 0.13268 -0.42700
H 	H 	0.75900 0.01500 0.26600 0.29500
C 	C 	0.78554 0.54953 0.64741 0.40600
C 	C 	0.76495 0.57995 0.62678 -0.18100
C 	C 	0.73080 0.59062 0.63740 0.15800
H 	H 	0.71970 0.57880 0.65800 -0.01900
O 	O 	0.77014 0.53820 0.67591 -0.44100
O 	O 	0.81424 0.53777 0.63268 -0.42400
H 	H 	0.75900 0.51500 0.76600 0.28800
C 	C 	0.28554 0.04953 0.64741 0.40700
C 	C 	0.26495 0.07995 0.62678 -0.18300
C 	C 	0.23080 0.09062 0.63740 0.15800
H 	H 	0.21970 0.07880 0.65800 -0.02000
O 	O 	0.27014 0.03820 0.67591 -0.44400
O 	O 	0.31424 0.03777 0.63268 -0.42700
H 	H 	0.25900 0.01500 0.76600 0.29500
C 	C 	0.28554 0.54953 0.14741 0.40700
C 	C 	0.26495 0.57995 0.12678 -0.18200
C 	C 	0.23080 0.59062 0.13740 0.15800
H 	H 	0.21970 0.57880 0.15800 -0.02000
O 	O 	0.27014 0.53820 0.17591 -0.44200
O 	O 	0.31424 0.53777 0.13268 -0.42500
H 	H 	0.25900 0.51500 0.26600 0.28800
C 	C 	0.78554 0.95047 0.85259 0.40600
C 	C 	0.76495 0.92005 0.87322 -0.17900
C 	C 	0.73080 0.90938 0.86260 0.15700
H 	H 	0.71970 0.92120 0.84200 -0.01900
O 	O 	0.77014 0.96180 0.82409 -0.43800
O 	O 	0.81424 0.96223 0.86732 -0.41800
H 	H 	0.75900 0.98500 0.73400 0.29900
C 	C 	0.78554 0.45047 0.35259 0.40600
C 	C 	0.76495 0.42005 0.37322 -0.18100
C 	C 	0.73080 0.40938 0.36260 0.15800
H 	H 	0.71970 0.42120 0.34200 -0.01900
O 	O 	0.77014 0.46180 0.32409 -0.44100
O 	O 	0.81424 0.46223 0.36732 -0.42400
H 	H 	0.75900 0.48500 0.23400 0.28800
C 	C 	0.28554 0.95047 0.35259 0.40600
C 	C 	0.26495 0.92005 0.37322 -0.18000
C 	C 	0.23080 0.90938 0.36260 0.15800
H 	H 	0.21970 0.92120 0.34200 -0.01900
O 	O 	0.27014 0.96180 0.32409 -0.43800
O 	O 	0.31424 0.96223 0.36732 -0.41900
H 	H 	0.25900 0.98500 0.23400 0.29900
C 	C 	0.28554 0.45047 0.85259 0.40600
C 	C 	0.26495 0.42005 0.87322 -0.18000
C 	C 	0.23080 0.40938 0.86260 0.15800
H 	H 	0.21970 0.42120 0.84200 -0.01900
O 	O 	0.27014 0.46180 0.82409 -0.44100
O 	O 	0.31424 0.46223 0.86732 -0.42300
H 	H 	0.25900 0.48500 0.73400 0.28800
C 	C 	0.21446 0.04953 0.85259 0.40700
C 	C 	0.23505 0.07995 0.87322 -0.18200
C 	C 	0.26920 0.09062 0.86260 0.15800
H 	H 	0.28030 0.07880 0.84200 -0.02000
O 	O 	0.22986 0.03820 0.82409 -0.44400
O 	O 	0.18576 0.03777 0.86732 -0.42600
H 	H 	0.24100 0.01500 0.73400 0.29500
C 	C 	0.21446 0.54953 0.35259 0.40700
C 	C 	0.23505 0.57995 0.37322 -0.18100
C 	C 	0.26920 0.59062 0.36260 0.15800
H 	H 	0.28030 0.57880 0.34200 -0.01900
O 	O 	0.22986 0.53820 0.32409 -0.44100
O 	O 	0.18576 0.53777 0.36732 -0.42400
H 	H 	0.24100 0.51500 0.23400 0.28800
C 	C 	0.71446 0.04953 0.35259 0.40700
C 	C 	0.73505 0.07995 0.37322 -0.18300
C 	C 	0.76920 0.09062 0.36260 0.15900
H 	H 	0.78030 0.07880 0.34200 -0.02000
O 	O 	0.72986 0.03820 0.32409 -0.44400
O 	O 	0.68576 0.03777 0.36732 -0.42600
H 	H 	0.74100 0.01500 0.23400 0.29500
C 	C 	0.71446 0.54953 0.85259 0.40600
C 	C 	0.73505 0.57995 0.87322 -0.18000
C 	C 	0.76920 0.59062 0.86260 0.15800
H 	H 	0.78030 0.57880 0.84200 -0.01900
O 	O 	0.72986 0.53820 0.82409 -0.44100
O 	O 	0.68576 0.53777 0.86732 -0.42300
H 	H 	0.74100 0.51500 0.73400 0.28800
C 	C 	0.14741 0.21446 0.95047 0.40600
C 	C 	0.12678 0.23505 0.92005 -0.18100
C 	C 	0.13740 0.26920 0.90938 0.15800
H 	H 	0.15800 0.28030 0.92120 -0.01900
O 	O 	0.17591 0.22986 0.96180 -0.43800
O 	O 	0.13268 0.18576 0.96223 -0.42000
H 	H 	0.26600 0.24100 0.98500 0.30000
C 	C 	0.14741 0.71446 0.45047 0.40700
C 	C 	0.12678 0.73505 0.42005 -0.18200
C 	C 	0.13740 0.76920 0.40938 0.15800
H 	H 	0.15800 0.78030 0.42120 -0.01900
O 	O 	0.17591 0.72986 0.46180 -0.44200
O 	O 	0.13268 0.68576 0.46223 -0.42500
H 	H 	0.26600 0.74100 0.48500 0.28800
C 	C 	0.64741 0.21446 0.45047 0.40700
C 	C 	0.62678 0.23505 0.42005 -0.18100
C 	C 	0.63740 0.26920 0.40938 0.15800
H 	H 	0.65800 0.28030 0.42120 -0.01900
O 	O 	0.67591 0.22986 0.46180 -0.44100
O 	O 	0.63268 0.18576 0.46223 -0.42400
H 	H 	0.76600 0.24100 0.48500 0.28800
C 	C 	0.64741 0.71446 0.95047 0.40600
C 	C 	0.62678 0.73505 0.92005 -0.18000
C 	C 	0.63740 0.76920 0.90938 0.15800
H 	H 	0.65800 0.78030 0.92120 -0.01900
O 	O 	0.67591 0.72986 0.96180 -0.43800
O 	O 	0.63268 0.68576 0.96223 -0.41900
H 	H 	0.76600 0.74100 0.98500 0.30000
C 	C 	0.14741 0.78554 0.04953 0.40700
C 	C 	0.12678 0.76495 0.07995 -0.18300
C 	C 	0.13740 0.73080 0.09062 0.15900
H 	H 	0.15800 0.71970 0.07880 -0.02100
O 	O 	0.17591 0.77014 0.03820 -0.44400
O 	O 	0.13268 0.81424 0.03777 -0.42700
H 	H 	0.26600 0.75900 0.01500 0.29500
C 	C 	0.14741 0.28554 0.54953 0.40700
C 	C 	0.12678 0.26495 0.57995 -0.18200
C 	C 	0.13740 0.23080 0.59062 0.15800
H 	H 	0.15800 0.21970 0.57880 -0.02000
O 	O 	0.17591 0.27014 0.53820 -0.44200
O 	O 	0.13268 0.31424 0.53777 -0.42500
H 	H 	0.26600 0.25900 0.51500 0.28800
C 	C 	0.64741 0.78554 0.54953 0.40600
C 	C 	0.62678 0.76495 0.57995 -0.18100
C 	C 	0.63740 0.73080 0.59062 0.15800
H 	H 	0.65800 0.71970 0.57880 -0.01900
O 	O 	0.67591 0.77014 0.53820 -0.44100
O 	O 	0.63268 0.81424 0.53777 -0.42400
H 	H 	0.76600 0.75900 0.51500 0.28800
C 	C 	0.64741 0.28554 0.04953 0.40700
C 	C 	0.62678 0.26495 0.07995 -0.18300
C 	C 	0.63740 0.23080 0.09062 0.15800
H 	H 	0.65800 0.21970 0.07880 -0.02000
O 	O 	0.67591 0.27014 0.03820 -0.44400
O 	O 	0.63268 0.31424 0.03777 -0.42700
H 	H 	0.76600 0.25900 0.01500 0.29500
C 	C 	0.85259 0.78554 0.95047 0.40600
C 	C 	0.87322 0.76495 0.92005 -0.17900
C 	C 	0.86260 0.73080 0.90938 0.15700
H 	H 	0.84200 0.71970 0.92120 -0.01900
O 	O 	0.82409 0.77014 0.96180 -0.43800
O 	O 	0.86732 0.81424 0.96223 -0.41800
H 	H 	0.73400 0.75900 0.98500 0.29900
C 	C 	0.85259 0.28554 0.45047 0.40600
C 	C 	0.87322 0.26495 0.42005 -0.18000
C 	C 	0.86260 0.23080 0.40938 0.15800
H 	H 	0.84200 0.21970 0.42120 -0.01900
O 	O 	0.82409 0.27014 0.46180 -0.44100
O 	O 	0.86732 0.31424 0.46223 -0.42300
H 	H 	0.73400 0.25900 0.48500 0.28800
C 	C 	0.35259 0.78554 0.45047 0.40600
C 	C 	0.37322 0.76495 0.42005 -0.18100
C 	C 	0.36260 0.73080 0.40938 0.15800
H 	H 	0.34200 0.71970 0.42120 -0.01900
O 	O 	0.32409 0.77014 0.46180 -0.44100
O 	O 	0.36732 0.81424 0.46223 -0.42400
H 	H 	0.23400 0.75900 0.48500 0.28800
C 	C 	0.35259 0.28554 0.95047 0.40600
C 	C 	0.37322 0.26495 0.92005 -0.18000
C 	C 	0.36260 0.23080 0.90938 0.15800
H 	H 	0.34200 0.21970 0.92120 -0.01900
O 	O 	0.32409 0.27014 0.96180 -0.43800
O 	O 	0.36732 0.31424 0.96223 -0.41900
H 	H 	0.23400 0.25900 0.98500 0.29900
C 	C 	0.85259 0.21446 0.04953 0.40700
C 	C 	0.87322 0.23505 0.07995 -0.18200
C 	C 	0.86260 0.26920 0.09062 0.15800
H 	H 	0.84200 0.28030 0.07880 -0.02000
O 	O 	0.82409 0.22986 0.03820 -0.44400
O 	O 	0.86732 0.18576 0.03777 -0.42600
H 	H 	0.73400 0.24100 0.01500 0.29500
C 	C 	0.85259 0.71446 0.54953 0.40600
C 	C 	0.87322 0.73505 0.57995 -0.18000
C 	C 	0.86260 0.76920 0.59062 0.15800
H 	H 	0.84200 0.78030 0.57880 -0.01900
O 	O 	0.82409 0.72986 0.53820 -0.44100
O 	O 	0.86732 0.68576 0.53777 -0.42300
H 	H 	0.73400 0.74100 0.51500 0.28800
C 	C 	0.35259 0.21446 0.54953 0.40700
C 	C 	0.37322 0.23505 0.57995 -0.18100
C 	C 	0.36260 0.26920 0.59062 0.15800
H 	H 	0.34200 0.28030 0.57880 -0.01900
O 	O 	0.32409 0.22986 0.53820 -0.44100
O 	O 	0.36732 0.18576 0.53777 -0.42400
H 	H 	0.23400 0.24100 0.51500 0.28800
C 	C 	0.35259 0.71446 0.04953 0.40700
C 	C 	0.37322 0.73505 0.07995 -0.18300
C 	C 	0.36260 0.76920 0.09062 0.15900
H 	H 	0.34200 0.78030 0.07880 -0.02000
O 	O 	0.32409 0.72986 0.03820 -0.44400
O 	O 	0.36732 0.68576 0.03777 -0.42600
H 	H 	0.23400 0.74100 0.01500 0.29500
C 	C 	0.95047 0.14741 0.21446 0.40600
C 	C 	0.92005 0.12678 0.23505 -0.18100
C 	C 	0.90938 0.13740 0.26920 0.15800
H 	H 	0.92120 0.15800 0.28030 -0.01900
O 	O 	0.96180 0.17591 0.22986 -0.43800
O 	O 	0.96223 0.13268 0.18576 -0.42000
H 	H 	0.98500 0.26600 0.24100 0.30000
C 	C 	0.95047 0.64741 0.71446 0.40600
C 	C 	0.92005 0.62678 0.73505 -0.18000
C 	C 	0.90938 0.63740 0.76920 0.15800
H 	H 	0.92120 0.65800 0.78030 -0.01900
O 	O 	0.96180 0.67591 0.72986 -0.43800
O 	O 	0.96223 0.63268 0.68576 -0.41900
H 	H 	0.98500 0.76600 0.74100 0.30000
C 	C 	0.45047 0.14741 0.71446 0.40700
C 	C 	0.42005 0.12678 0.73505 -0.18200
C 	C 	0.40938 0.13740 0.76920 0.15800
H 	H 	0.42120 0.15800 0.78030 -0.01900
O 	O 	0.46180 0.17591 0.72986 -0.44200
O 	O 	0.46223 0.13268 0.68576 -0.42500
H 	H 	0.48500 0.26600 0.74100 0.28800
C 	C 	0.45047 0.64741 0.21446 0.40700
C 	C 	0.42005 0.62678 0.23505 -0.18100
C 	C 	0.40938 0.63740 0.26920 0.15800
H 	H 	0.42120 0.65800 0.28030 -0.01900
O 	O 	0.46180 0.67591 0.22986 -0.44100
O 	O 	0.46223 0.63268 0.18576 -0.42400
H 	H 	0.48500 0.76600 0.24100 0.28800
C 	C 	0.04953 0.14741 0.78554 0.40700
C 	C 	0.07995 0.12678 0.76495 -0.18300
C 	C 	0.09062 0.13740 0.73080 0.15900
H 	H 	0.07880 0.15800 0.71970 -0.02100
O 	O 	0.03820 0.17591 0.77014 -0.44400
O 	O 	0.03777 0.13268 0.81424 -0.42700
H 	H 	0.01500 0.26600 0.75900 0.29500
C 	C 	0.04953 0.64741 0.28554 0.40700
C 	C 	0.07995 0.62678 0.26495 -0.18300
C 	C 	0.09062 0.63740 0.23080 0.15800
H 	H 	0.07880 0.65800 0.21970 -0.02000
O 	O 	0.03820 0.67591 0.27014 -0.44400
O 	O 	0.03777 0.63268 0.31424 -0.42700
H 	H 	0.01500 0.76600 0.25900 0.29500
C 	C 	0.54953 0.14741 0.28554 0.40700
C 	C 	0.57995 0.12678 0.26495 -0.18200
C 	C 	0.59062 0.13740 0.23080 0.15800
H 	H 	0.57880 0.15800 0.21970 -0.02000
O 	O 	0.53820 0.17591 0.27014 -0.44200
O 	O 	0.53777 0.13268 0.31424 -0.42500
H 	H 	0.51500 0.26600 0.25900 0.28800
C 	C 	0.54953 0.64741 0.78554 0.40600
C 	C 	0.57995 0.62678 0.76495 -0.18100
C 	C 	0.59062 0.63740 0.73080 0.15800
H 	H 	0.57880 0.65800 0.71970 -0.01900
O 	O 	0.53820 0.67591 0.77014 -0.44100
O 	O 	0.53777 0.63268 0.81424 -0.42400
H 	H 	0.51500 0.76600 0.75900 0.28800
C 	C 	0.95047 0.85259 0.78554 0.40600
C 	C 	0.92005 0.87322 0.76495 -0.17900
C 	C 	0.90938 0.86260 0.73080 0.15700
H 	H 	0.92120 0.84200 0.71970 -0.01900
O 	O 	0.96180 0.82409 0.77014 -0.43800
O 	O 	0.96223 0.86732 0.81424 -0.41800
H 	H 	0.98500 0.73400 0.75900 0.29900
C 	C 	0.95047 0.35259 0.28554 0.40600
C 	C 	0.92005 0.37322 0.26495 -0.18000
C 	C 	0.90938 0.36260 0.23080 0.15800
H 	H 	0.92120 0.34200 0.21970 -0.01900
O 	O 	0.96180 0.32409 0.27014 -0.43800
O 	O 	0.96223 0.36732 0.31424 -0.41900
H 	H 	0.98500 0.23400 0.25900 0.29900
C 	C 	0.45047 0.85259 0.28554 0.40600
C 	C 	0.42005 0.87322 0.26495 -0.18000
C 	C 	0.40938 0.86260 0.23080 0.15800
H 	H 	0.42120 0.84200 0.21970 -0.01900
O 	O 	0.46180 0.82409 0.27014 -0.44100
O 	O 	0.46223 0.86732 0.31424 -0.42300
H 	H 	0.48500 0.73400 0.25900 0.28800
C 	C 	0.45047 0.35259 0.78554 0.40600
C 	C 	0.42005 0.37322 0.76495 -0.18100
C 	C 	0.40938 0.36260 0.73080 0.15800
H 	H 	0.42120 0.34200 0.71970 -0.01900
O 	O 	0.46180 0.32409 0.77014 -0.44100
O 	O 	0.46223 0.36732 0.81424 -0.42400
H 	H 	0.48500 0.23400 0.75900 0.28800
C 	C 	0.04953 0.85259 0.21446 0.40700
C 	C 	0.07995 0.87322 0.23505 -0.18200
C 	C 	0.09062 0.86260 0.26920 0.15800
H 	H 	0.07880 0.84200 0.28030 -0.02000
O 	O 	0.03820 0.82409 0.22986 -0.44400
O 	O 	0.03777 0.86732 0.18576 -0.42600
H 	H 	0.01500 0.73400 0.24100 0.29500
C 	C 	0.04953 0.35259 0.71446 0.40700
C 	C 	0.07995 0.37322 0.73505 -0.18300
C 	C 	0.09062 0.36260 0.76920 0.15900
H 	H 	0.07880 0.34200 0.78030 -0.02000
O 	O 	0.03820 0.32409 0.72986 -0.44400
O 	O 	0.03777 0.36732 0.68576 -0.42600
H 	H 	0.01500 0.23400 0.74100 0.29500
C 	C 	0.54953 0.85259 0.71446 0.40600
C 	C 	0.57995 0.87322 0.73505 -0.18000
C 	C 	0.59062 0.86260 0.76920 0.15800
H 	H 	0.57880 0.84200 0.78030 -0.01900
O 	O 	0.53820 0.82409 0.72986 -0.44100
O 	O 	0.53777 0.86732 0.68576 -0.42300
H 	H 	0.51500 0.73400 0.74100 0.28800
C 	C 	0.54953 0.35259 0.21446 0.40700
C 	C 	0.57995 0.37322 0.23505 -0.18100
C 	C 	0.59062 0.36260 0.26920 0.15800
H 	H 	0.57880 0.34200 0.28030 -0.01900
O 	O 	0.53820 0.32409 0.22986 -0.44100
O 	O 	0.53777 0.36732 0.18576 -0.42400
H 	H 	0.51500 0.23400 0.24100 0.28800
C 	C 	0.95047 0.21446 0.85259 0.40600
C 	C 	0.92005 0.23505 0.87322 -0.17900
C 	C 	0.90938 0.26920 0.86260 0.15800
H 	H 	0.92120 0.28030 0.84200 -0.01900
O 	O 	0.96180 0.22986 0.82409 -0.43800
O 	O 	0.96223 0.18576 0.86732 -0.41900
H 	H 	0.98500 0.24100 0.73400 0.29900
C 	C 	0.95047 0.71446 0.35259 0.40600
C 	C 	0.92005 0.73505 0.37322 -0.18000
C 	C 	0.90938 0.76920 0.36260 0.15800
H 	H 	0.92120 0.78030 0.34200 -0.01900
O 	O 	0.96180 0.72986 0.32409 -0.43800
O 	O 	0.96223 0.68576 0.36732 -0.41900
H 	H 	0.98500 0.74100 0.23400 0.29900
C 	C 	0.45047 0.21446 0.35259 0.40700
C 	C 	0.42005 0.23505 0.37322 -0.18100
C 	C 	0.40938 0.26920 0.36260 0.15800
H 	H 	0.42120 0.28030 0.34200 -0.01900
O 	O 	0.46180 0.22986 0.32409 -0.44100
O 	O 	0.46223 0.18576 0.36732 -0.42400
H 	H 	0.48500 0.24100 0.23400 0.28800
C 	C 	0.45047 0.71446 0.85259 0.40600
C 	C 	0.42005 0.73505 0.87322 -0.18000
C 	C 	0.40938 0.76920 0.86260 0.15800
H 	H 	0.42120 0.78030 0.84200 -0.01900
O 	O 	0.46180 0.72986 0.82409 -0.44100
O 	O 	0.46223 0.68576 0.86732 -0.42300
H 	H 	0.48500 0.74100 0.73400 0.28800
C 	C 	0.04953 0.78554 0.85259 0.40700
C 	C 	0.07995 0.76495 0.87322 -0.18200
C 	C 	0.09062 0.73080 0.86260 0.15800
H 	H 	0.07880 0.71970 0.84200 -0.02000
O 	O 	0.03820 0.77014 0.82409 -0.44400
O 	O 	0.03777 0.81424 0.86732 -0.42500
H 	H 	0.01500 0.75900 0.73400 0.29500
C 	C 	0.04953 0.28554 0.35259 0.40700
C 	C 	0.07995 0.26495 0.37322 -0.18300
C 	C 	0.09062 0.23080 0.36260 0.15800
H 	H 	0.07880 0.21970 0.34200 -0.02000
O 	O 	0.03820 0.27014 0.32409 -0.44400
O 	O 	0.03777 0.31424 0.36732 -0.42700
H 	H 	0.01500 0.25900 0.23400 0.29500
C 	C 	0.54953 0.78554 0.35259 0.40600
C 	C 	0.57995 0.76495 0.37322 -0.18100
C 	C 	0.59062 0.73080 0.36260 0.15800
H 	H 	0.57880 0.71970 0.34200 -0.01900
O 	O 	0.53820 0.77014 0.32409 -0.44100
O 	O 	0.53777 0.81424 0.36732 -0.42400
H 	H 	0.51500 0.75900 0.23400 0.28800
C 	C 	0.54953 0.28554 0.85259 0.40600
C 	C 	0.57995 0.26495 0.87322 -0.18000
C 	C 	0.59062 0.23080 0.86260 0.15800
H 	H 	0.57880 0.21970 0.84200 -0.01900
O 	O 	0.53820 0.27014 0.82409 -0.44100
O 	O 	0.53777 0.31424 0.86732 -0.42300
H 	H 	0.51500 0.25900 0.73400 0.28800
C 	C 	0.95047 0.78554 0.14741 0.40600
C 	C 	0.92005 0.76495 0.12678 -0.18000
C 	C 	0.90938 0.73080 0.13740 0.15800
H 	H 	0.92120 0.71970 0.15800 -0.01900
O 	O 	0.96180 0.77014 0.17591 -0.43800
O 	O 	0.96223 0.81424 0.13268 -0.42000
H 	H 	0.98500 0.75900 0.26600 0.29900
C 	C 	0.95047 0.28554 0.64741 0.40600
C 	C 	0.92005 0.26495 0.62678 -0.18000
C 	C 	0.90938 0.23080 0.63740 0.15800
H 	H 	0.92120 0.21970 0.65800 -0.01900
O 	O 	0.96180 0.27014 0.67591 -0.43800
O 	O 	0.96223 0.31424 0.63268 -0.41900
H 	H 	0.98500 0.25900 0.76600 0.30000
C 	C 	0.45047 0.78554 0.64741 0.40600
C 	C 	0.42005 0.76495 0.62678 -0.18100
C 	C 	0.40938 0.73080 0.63740 0.15800
H 	H 	0.42120 0.71970 0.65800 -0.01900
O 	O 	0.46180 0.77014 0.67591 -0.44100
O 	O 	0.46223 0.81424 0.63268 -0.42400
H 	H 	0.48500 0.75900 0.76600 0.28800
C 	C 	0.45047 0.28554 0.14741 0.40700
C 	C 	0.42005 0.26495 0.12678 -0.18200
C 	C 	0.40938 0.23080 0.13740 0.15800
H 	H 	0.42120 0.21970 0.15800 -0.02000
O 	O 	0.46180 0.27014 0.17591 -0.44200
O 	O 	0.46223 0.31424 0.13268 -0.42500
H 	H 	0.48500 0.25900 0.26600 0.28800
C 	C 	0.04953 0.21446 0.14741 0.40700
C 	C 	0.07995 0.23505 0.12678 -0.18400
C 	C 	0.09062 0.26920 0.13740 0.15900
H 	H 	0.07880 0.28030 0.15800 -0.02100
O 	O 	0.03820 0.22986 0.17591 -0.44400
O 	O 	0.03777 0.18576 0.13268 -0.42700
H 	H 	0.01500 0.24100 0.26600 0.29500
C 	C 	0.04953 0.71446 0.64741 0.40700
C 	C 	0.07995 0.73505 0.62678 -0.18300
C 	C 	0.09062 0.76920 0.63740 0.15900
H 	H 	0.07880 0.78030 0.65800 -0.02000
O 	O 	0.03820 0.72986 0.67591 -0.44400
O 	O 	0.03777 0.68576 0.63268 -0.42700
H 	H 	0.01500 0.74100 0.76600 0.29500
C 	C 	0.54953 0.21446 0.64741 0.40700
C 	C 	0.57995 0.23505 0.62678 -0.18100
C 	C 	0.59062 0.26920 0.63740 0.15800
H 	H 	0.57880 0.28030 0.65800 -0.01900
O 	O 	0.53820 0.22986 0.67591 -0.44100
O 	O 	0.53777 0.18576 0.63268 -0.42400
H 	H 	0.51500 0.24100 0.76600 0.28800
C 	C 	0.54953 0.71446 0.14741 0.40700
C 	C 	0.57995 0.73505 0.12678 -0.18200
C 	C 	0.59062 0.76920 0.13740 0.15800
H 	H 	0.57880 0.78030 0.15800 -0.01900
O 	O 	0.53820 0.72986 0.17591 -0.44200
O 	O 	0.53777 0.68576 0.13268 -0.42500
H 	H 	0.51500 0.74100 0.26600 0.28800
C 	C 	0.21446 0.14741 0.04953 0.40700
C 	C 	0.23505 0.12678 0.07995 -0.18400
C 	C 	0.26920 0.13740 0.09062 0.15900
H 	H 	0.28030 0.15800 0.07880 -0.02100
O 	O 	0.22986 0.17591 0.03820 -0.44400
O 	O 	0.18576 0.13268 0.03777 -0.42700
H 	H 	0.24100 0.26600 0.01500 0.29500
C 	C 	0.21446 0.64741 0.54953 0.40700
C 	C 	0.23505 0.62678 0.57995 -0.18100
C 	C 	0.26920 0.63740 0.59062 0.15800
H 	H 	0.28030 0.65800 0.57880 -0.01900
O 	O 	0.22986 0.67591 0.53820 -0.44100
O 	O 	0.18576 0.63268 0.53777 -0.42400
H 	H 	0.24100 0.76600 0.51500 0.28800
C 	C 	0.71446 0.14741 0.54953 0.40700
C 	C 	0.73505 0.12678 0.57995 -0.18200
C 	C 	0.76920 0.13740 0.59062 0.15800
H 	H 	0.78030 0.15800 0.57880 -0.01900
O 	O 	0.72986 0.17591 0.53820 -0.44200
O 	O 	0.68576 0.13268 0.53777 -0.42500
H 	H 	0.74100 0.26600 0.51500 0.28800
C 	C 	0.71446 0.64741 0.04953 0.40700
C 	C 	0.73505 0.62678 0.07995 -0.18300
C 	C 	0.76920 0.63740 0.09062 0.15900
H 	H 	0.78030 0.65800 0.07880 -0.02000
O 	O 	0.72986 0.67591 0.03820 -0.44400
O 	O 	0.68576 0.63268 0.03777 -0.42700
H 	H 	0.74100 0.76600 0.01500 0.29500
C 	C 	0.78554 0.14741 0.95047 0.40600
C 	C 	0.76495 0.12678 0.92005 -0.18000
C 	C 	0.73080 0.13740 0.90938 0.15800
H 	H 	0.71970 0.15800 0.92120 -0.01900
O 	O 	0.77014 0.17591 0.96180 -0.43800
O 	O 	0.81424 0.13268 0.96223 -0.42000
H 	H 	0.75900 0.26600 0.98500 0.29900
C 	C 	0.78554 0.64741 0.45047 0.40600
C 	C 	0.76495 0.62678 0.42005 -0.18100
C 	C 	0.73080 0.63740 0.40938 0.15800
H 	H 	0.71970 0.65800 0.42120 -0.01900
O 	O 	0.77014 0.67591 0.46180 -0.44100
O 	O 	0.81424 0.63268 0.46223 -0.42400
H 	H 	0.75900 0.76600 0.48500 0.28800
C 	C 	0.28554 0.14741 0.45047 0.40700
C 	C 	0.26495 0.12678 0.42005 -0.18200
C 	C 	0.23080 0.13740 0.40938 0.15800
H 	H 	0.21970 0.15800 0.42120 -0.02000
O 	O 	0.27014 0.17591 0.46180 -0.44200
O 	O 	0.31424 0.13268 0.46223 -0.42500
H 	H 	0.25900 0.26600 0.48500 0.28800
C 	C 	0.28554 0.64741 0.95047 0.40600
C 	C 	0.26495 0.62678 0.92005 -0.18000
C 	C 	0.23080 0.63740 0.90938 0.15800
H 	H 	0.21970 0.65800 0.92120 -0.01900
O 	O 	0.27014 0.67591 0.96180 -0.43800
O 	O 	0.31424 0.63268 0.96223 -0.41900
H 	H 	0.25900 0.76600 0.98500 0.30000
C 	C 	0.78554 0.85259 0.04953 0.40700
C 	C 	0.76495 0.87322 0.07995 -0.18200
C 	C 	0.73080 0.86260 0.09062 0.15800
H 	H 	0.71970 0.84200 0.07880 -0.02000
O 	O 	0.77014 0.82409 0.03820 -0.44400
O 	O 	0.81424 0.86732 0.03777 -0.42500
H 	H 	0.75900 0.73400 0.01500 0.29500
C 	C 	0.78554 0.35259 0.54953 0.40600
C 	C 	0.76495 0.37322 0.57995 -0.18100
C 	C 	0.73080 0.36260 0.59062 0.15800
H 	H 	0.71970 0.34200 0.57880 -0.01900
O 	O 	0.77014 0.32409 0.53820 -0.44100
O 	O 	0.81424 0.36732 0.53777 -0.42400
H 	H 	0.75900 0.23400 0.51500 0.28800
C 	C 	0.28554 0.85259 0.54953 0.40600
C 	C 	0.26495 0.87322 0.57995 -0.18000
C 	C 	0.23080 0.86260 0.59062 0.15800
H 	H 	0.21970 0.84200 0.57880 -0.01900
O 	O 	0.27014 0.82409 0.53820 -0.44100
O 	O 	0.31424 0.86732 0.53777 -0.42300
H 	H 	0.25900 0.73400 0.51500 0.28800
C 	C 	0.28554 0.35259 0.04953 0.40700
C 	C 	0.26495 0.37322 0.07995 -0.18300
C 	C 	0.23080 0.36260 0.09062 0.15800
H 	H 	0.21970 0.34200 0.07880 -0.02000
O 	O 	0.27014 0.32409 0.03820 -0.44400
O 	O 	0.31424 0.36732 0.03777 -0.42700
H 	H 	0.25900 0.23400 0.01500 0.29500
C 	C 	0.21446 0.85259 0.95047 0.40600
C 	C 	0.23505 0.87322 0.92005 -0.17900
C 	C 	0.26920 0.86260 0.90938 0.15800
H 	H 	0.28030 0.84200 0.92120 -0.01900
O 	O 	0.22986 0.82409 0.96180 -0.43800
O 	O 	0.18576 0.86732 0.96223 -0.41900
H 	H 	0.24100 0.73400 0.98500 0.29900
C 	C 	0.21446 0.35259 0.45047 0.40700
C 	C 	0.23505 0.37322 0.42005 -0.18100
C 	C 	0.26920 0.36260 0.40938 0.15800
H 	H 	0.28030 0.34200 0.42120 -0.01900
O 	O 	0.22986 0.32409 0.46180 -0.44100
O 	O 	0.18576 0.36732 0.46223 -0.42400
H 	H 	0.24100 0.23400 0.48500 0.28800
C 	C 	0.71446 0.85259 0.45047 0.40600
C 	C 	0.73505 0.87322 0.42005 -0.18000
C 	C 	0.76920 0.86260 0.40938 0.15800
H 	H 	0.78030 0.84200 0.42120 -0.01900
O 	O 	0.72986 0.82409 0.46180 -0.44100
O 	O 	0.68576 0.86732 0.46223 -0.42300
H 	H 	0.74100 0.73400 0.48500 0.28800
C 	C 	0.71446 0.35259 0.95047 0.40600
C 	C 	0.73505 0.37322 0.92005 -0.18000
C 	C 	0.76920 0.36260 0.90938 0.15800
H 	H 	0.78030 0.34200 0.92120 -0.01900
O 	O 	0.72986 0.32409 0.96180 -0.43800
O 	O 	0.68576 0.36732 0.96223 -0.41900
H 	H 	0.74100 0.23400 0.98500 0.29900
C 	C 	0.14741 0.95047 0.78554 0.40600
C 	C 	0.12678 0.92005 0.76495 -0.18000
C 	C 	0.13740 0.90938 0.73080 0.15800
H 	H 	0.15800 0.92120 0.71970 -0.01900
O 	O 	0.17591 0.96180 0.77014 -0.43800
O 	O 	0.13268 0.96223 0.81424 -0.42000
H 	H 	0.26600 0.98500 0.75900 0.29900
C 	C 	0.14741 0.45047 0.28554 0.40700
C 	C 	0.12678 0.42005 0.26495 -0.18200
C 	C 	0.13740 0.40938 0.23080 0.15800
H 	H 	0.15800 0.42120 0.21970 -0.02000
O 	O 	0.17591 0.46180 0.27014 -0.44200
O 	O 	0.13268 0.46223 0.31424 -0.42500
H 	H 	0.26600 0.48500 0.25900 0.28800
C 	C 	0.64741 0.95047 0.28554 0.40600
C 	C 	0.62678 0.92005 0.26495 -0.18000
C 	C 	0.63740 0.90938 0.23080 0.15800
H 	H 	0.65800 0.92120 0.21970 -0.01900
O 	O 	0.67591 0.96180 0.27014 -0.43800
O 	O 	0.63268 0.96223 0.31424 -0.41900
H 	H 	0.76600 0.98500 0.25900 0.30000
C 	C 	0.64741 0.45047 0.78554 0.40600
C 	C 	0.62678 0.42005 0.76495 -0.18100
C 	C 	0.63740 0.40938 0.73080 0.15800
H 	H 	0.65800 0.42120 0.71970 -0.01900
O 	O 	0.67591 0.46180 0.77014 -0.44100
O 	O 	0.63268 0.46223 0.81424 -0.42400
H 	H 	0.76600 0.48500 0.75900 0.28800
C 	C 	0.14741 0.04953 0.21446 0.40700
C 	C 	0.12678 0.07995 0.23505 -0.18400
C 	C 	0.13740 0.09062 0.26920 0.15900
H 	H 	0.15800 0.07880 0.28030 -0.02100
O 	O 	0.17591 0.03820 0.22986 -0.44400
O 	O 	0.13268 0.03777 0.18576 -0.42700
H 	H 	0.26600 0.01500 0.24100 0.29500
C 	C 	0.14741 0.54953 0.71446 0.40700
C 	C 	0.12678 0.57995 0.73505 -0.18200
C 	C 	0.13740 0.59062 0.76920 0.15800
H 	H 	0.15800 0.57880 0.78030 -0.01900
O 	O 	0.17591 0.53820 0.72986 -0.44200
O 	O 	0.13268 0.53777 0.68576 -0.42500
H 	H 	0.26600 0.51500 0.74100 0.28800
C 	C 	0.64741 0.04953 0.71446 0.40700
C 	C 	0.62678 0.07995 0.73505 -0.18300
C 	C 	0.63740 0.09062 0.76920 0.15900
H 	H 	0.65800 0.07880 0.78030 -0.02000
O 	O 	0.67591 0.03820 0.72986 -0.44400
O 	O 	0.63268 0.03777 0.68576 -0.42700
H 	H 	0.76600 0.01500 0.74100 0.29500
C 	C 	0.64741 0.54953 0.21446 0.40700
C 	C 	0.62678 0.57995 0.23505 -0.18100
C 	C 	0.63740 0.59062 0.26920 0.15800
H 	H 	0.65800 0.57880 0.28030 -0.01900
O 	O 	0.67591 0.53820 0.22986 -0.44100
O 	O 	0.63268 0.53777 0.18576 -0.42400
H 	H 	0.76600 0.51500 0.24100 0.28800
C 	C 	0.85259 0.95047 0.21446 0.40600
C 	C 	0.87322 0.92005 0.23505 -0.17900
C 	C 	0.86260 0.90938 0.26920 0.15800
H 	H 	0.84200 0.92120 0.28030 -0.01900
O 	O 	0.82409 0.96180 0.22986 -0.43800
O 	O 	0.86732 0.96223 0.18576 -0.41900
H 	H 	0.73400 0.98500 0.24100 0.29900
C 	C 	0.85259 0.45047 0.71446 0.40600
C 	C 	0.87322 0.42005 0.73505 -0.18000
C 	C 	0.86260 0.40938 0.76920 0.15800
H 	H 	0.84200 0.42120 0.78030 -0.01900
O 	O 	0.82409 0.46180 0.72986 -0.44100
O 	O 	0.86732 0.46223 0.68576 -0.42300
H 	H 	0.73400 0.48500 0.74100 0.28800
C 	C 	0.35259 0.95047 0.71446 0.40600
C 	C 	0.37322 0.92005 0.73505 -0.18000
C 	C 	0.36260 0.90938 0.76920 0.15800
H 	H 	0.34200 0.92120 0.78030 -0.01900
O 	O 	0.32409 0.96180 0.72986 -0.43800
O 	O 	0.36732 0.96223 0.68576 -0.41900
H 	H 	0.23400 0.98500 0.74100 0.29900
C 	C 	0.35259 0.45047 0.21446 0.40700
C 	C 	0.37322 0.42005 0.23505 -0.18100
C 	C 	0.36260 0.40938 0.26920 0.15800
H 	H 	0.34200 0.42120 0.28030 -0.01900
O 	O 	0.32409 0.46180 0.22986 -0.44100
O 	O 	0.36732 0.46223 0.18576 -0.42400
H 	H 	0.23400 0.48500 0.24100 0.28800
C 	C 	0.85259 0.04953 0.78554 0.40700
C 	C 	0.87322 0.07995 0.76495 -0.18200
C 	C 	0.86260 0.09062 0.73080 0.15800
H 	H 	0.84200 0.07880 0.71970 -0.02000
O 	O 	0.82409 0.03820 0.77014 -0.44400
O 	O 	0.86732 0.03777 0.81424 -0.42500
H 	H 	0.73400 0.01500 0.75900 0.29500
C 	C 	0.85259 0.54953 0.28554 0.40600
C 	C 	0.87322 0.57995 0.26495 -0.18000
C 	C 	0.86260 0.59062 0.23080 0.15800
H 	H 	0.84200 0.57880 0.21970 -0.01900
O 	O 	0.82409 0.53820 0.27014 -0.44100
O 	O 	0.86732 0.53777 0.31424 -0.42300
H 	H 	0.73400 0.51500 0.25900 0.28800
C 	C 	0.35259 0.04953 0.28554 0.40700
C 	C 	0.37322 0.07995 0.26495 -0.18300
C 	C 	0.36260 0.09062 0.23080 0.15800
H 	H 	0.34200 0.07880 0.21970 -0.02000
O 	O 	0.32409 0.03820 0.27014 -0.44400
O 	O 	0.36732 0.03777 0.31424 -0.42700
H 	H 	0.23400 0.01500 0.25900 0.29500
C 	C 	0.35259 0.54953 0.78554 0.40600
C 	C 	0.37322 0.57995 0.76495 -0.18100
C 	C 	0.36260 0.59062 0.73080 0.15800
H 	H 	0.34200 0.57880 0.71970 -0.01900
O 	O 	0.32409 0.53820 0.77014 -0.44100
O 	O 	0.36732 0.53777 0.81424 -0.42400
H 	H 	0.23400 0.51500 0.75900 0.28800
C 	C 	0.78554 0.04953 0.85259 0.40700
C 	C 	0.76495 0.07995 0.87322 -0.18200
C 	C 	0.73080 0.09062 0.86260 0.15800
H 	H 	0.71970 0.07880 0.84200 -0.02000
O 	O 	0.77014 0.03820 0.82409 -0.44400
O 	O 	0.81424 0.03777 0.86732 -0.42500
H 	H 	0.75900 0.01500 0.73400 0.29500
C 	C 	0.78554 0.54953 0.35259 0.40600
C 	C 	0.76495 0.57995 0.37322 -0.18100
C 	C 	0.73080 0.59062 0.36260 0.15800
H 	H 	0.71970 0.57880 0.34200 -0.01900
O 	O 	0.77014 0.53820 0.32409 -0.44100
O 	O 	0.81424 0.53777 0.36732 -0.42400
H 	H 	0.75900 0.51500 0.23400 0.28800
C 	C 	0.28554 0.04953 0.35259 0.40700
C 	C 	0.26495 0.07995 0.37322 -0.18300
C 	C 	0.23080 0.09062 0.36260 0.15800
H 	H 	0.21970 0.07880 0.34200 -0.02000
O 	O 	0.27014 0.03820 0.32409 -0.44400
O 	O 	0.31424 0.03777 0.36732 -0.42700
H 	H 	0.25900 0.01500 0.23400 0.29500
C 	C 	0.28554 0.54953 0.85259 0.40600
C 	C 	0.26495 0.57995 0.87322 -0.18000
C 	C 	0.23080 0.59062 0.86260 0.15800
H 	H 	0.21970 0.57880 0.84200 -0.01900
O 	O 	0.27014 0.53820 0.82409 -0.44100
O 	O 	0.31424 0.53777 0.86732 -0.42300
H 	H 	0.25900 0.51500 0.73400 0.28800
C 	C 	0.21446 0.95047 0.85259 0.40600
C 	C 	0.23505 0.92005 0.87322 -0.17900
C 	C 	0.26920 0.90938 0.86260 0.15800
H 	H 	0.28030 0.92120 0.84200 -0.01900
O 	O 	0.22986 0.96180 0.82409 -0.43800
O 	O 	0.18576 0.96223 0.86732 -0.41900
H 	H 	0.24100 0.98500 0.73400 0.29900
C 	C 	0.21446 0.45047 0.35259 0.40700
C 	C 	0.23505 0.42005 0.37322 -0.18100
C 	C 	0.26920 0.40938 0.36260 0.15800
H 	H 	0.28030 0.42120 0.34200 -0.01900
O 	O 	0.22986 0.46180 0.32409 -0.44100
O 	O 	0.18576 0.46223 0.36732 -0.42400
H 	H 	0.24100 0.48500 0.23400 0.28800
C 	C 	0.71446 0.95047 0.35259 0.40600
C 	C 	0.73505 0.92005 0.37322 -0.18000
C 	C 	0.76920 0.90938 0.36260 0.15800
H 	H 	0.78030 0.92120 0.34200 -0.01900
O 	O 	0.72986 0.96180 0.32409 -0.43800
O 	O 	0.68576 0.96223 0.36732 -0.41900
H 	H 	0.74100 0.98500 0.23400 0.29900
C 	C 	0.71446 0.45047 0.85259 0.40600
C 	C 	0.73505 0.42005 0.87322 -0.18000
C 	C 	0.76920 0.40938 0.86260 0.15800
H 	H 	0.78030 0.42120 0.84200 -0.01900
O 	O 	0.72986 0.46180 0.82409 -0.44100
O 	O 	0.68576 0.46223 0.86732 -0.42300
H 	H 	0.74100 0.48500 0.73400 0.28800
C 	C 	0.21446 0.04953 0.14741 0.40700
C 	C 	0.23505 0.07995 0.12678 -0.18400
C 	C 	0.26920 0.09062 0.13740 0.15900
H 	H 	0.28030 0.07880 0.15800 -0.02100
O 	O 	0.22986 0.03820 0.17591 -0.44400
O 	O 	0.18576 0.03777 0.13268 -0.42700
H 	H 	0.24100 0.01500 0.26600 0.29500
C 	C 	0.21446 0.54953 0.64741 0.40700
C 	C 	0.23505 0.57995 0.62678 -0.18100
C 	C 	0.26920 0.59062 0.63740 0.15800
H 	H 	0.28030 0.57880 0.65800 -0.01900
O 	O 	0.22986 0.53820 0.67591 -0.44100
O 	O 	0.18576 0.53777 0.63268 -0.42400
H 	H 	0.24100 0.51500 0.76600 0.28800
C 	C 	0.71446 0.04953 0.64741 0.40700
C 	C 	0.73505 0.07995 0.62678 -0.18300
C 	C 	0.76920 0.09062 0.63740 0.15900
H 	H 	0.78030 0.07880 0.65800 -0.02000
O 	O 	0.72986 0.03820 0.67591 -0.44400
O 	O 	0.68576 0.03777 0.63268 -0.42700
H 	H 	0.74100 0.01500 0.76600 0.29500
C 	C 	0.71446 0.54953 0.14741 0.40700
C 	C 	0.73505 0.57995 0.12678 -0.18200
C 	C 	0.76920 0.59062 0.13740 0.15800
H 	H 	0.78030 0.57880 0.15800 -0.01900
O 	O 	0.72986 0.53820 0.17591 -0.44200
O 	O 	0.68576 0.53777 0.13268 -0.42500
H 	H 	0.74100 0.51500 0.26600 0.28800
C 	C 	0.78554 0.95047 0.14741 0.40600
C 	C 	0.76495 0.92005 0.12678 -0.18000
C 	C 	0.73080 0.90938 0.13740 0.15800
H 	H 	0.71970 0.92120 0.15800 -0.01900
O 	O 	0.77014 0.96180 0.17591 -0.43800
O 	O 	0.81424 0.96223 0.13268 -0.42000
H 	H 	0.75900 0.98500 0.26600 0.29900
C 	C 	0.78554 0.45047 0.64741 0.40600
C 	C 	0.76495 0.42005 0.62678 -0.18100
C 	C 	0.73080 0.40938 0.63740 0.15800
H 	H 	0.71970 0.42120 0.65800 -0.01900
O 	O 	0.77014 0.46180 0.67591 -0.44100
O 	O 	0.81424 0.46223 0.63268 -0.42400
H 	H 	0.75900 0.48500 0.76600 0.28800
C 	C 	0.28554 0.95047 0.64741 0.40600
C 	C 	0.26495 0.92005 0.62678 -0.18000
C 	C 	0.23080 0.90938 0.63740 0.15800
H 	H 	0.21970 0.92120 0.65800 -0.01900
O 	O 	0.27014 0.96180 0.67591 -0.43800
O 	O 	0.31424 0.96223 0.63268 -0.41900
H 	H 	0.25900 0.98500 0.76600 0.30000
C 	C 	0.28554 0.45047 0.14741 0.40700
C 	C 	0.26495 0.42005 0.12678 -0.18200
C 	C 	0.23080 0.40938 0.13740 0.15800
H 	H 	0.21970 0.42120 0.15800 -0.02000
O 	O 	0.27014 0.46180 0.17591 -0.44200
O 	O 	0.31424 0.46223 0.13268 -0.42500
H 	H 	0.25900 0.48500 0.26600 0.28800
C 	C 	0.85259 0.78554 0.04953 0.40700
C 	C 	0.87322 0.76495 0.07995 -0.18200
C 	C 	0.86260 0.73080 0.09062 0.15800
H 	H 	0.84200 0.71970 0.07880 -0.02000
O 	O 	0.82409 0.77014 0.03820 -0.44400
O 	O 	0.86732 0.81424 0.03777 -0.42500
H 	H 	0.73400 0.75900 0.01500 0.29500
C 	C 	0.85259 0.28554 0.54953 0.40600
C 	C 	0.87322 0.26495 0.57995 -0.18000
C 	C 	0.86260 0.23080 0.59062 0.15800
H 	H 	0.84200 0.21970 0.57880 -0.01900
O 	O 	0.82409 0.27014 0.53820 -0.44100
O 	O 	0.86732 0.31424 0.53777 -0.42300
H 	H 	0.73400 0.25900 0.51500 0.28800
C 	C 	0.35259 0.78554 0.54953 0.40600
C 	C 	0.37322 0.76495 0.57995 -0.18100
C 	C 	0.36260 0.73080 0.59062 0.15800
H 	H 	0.34200 0.71970 0.57880 -0.01900
O 	O 	0.32409 0.77014 0.53820 -0.44100
O 	O 	0.36732 0.81424 0.53777 -0.42400
H 	H 	0.23400 0.75900 0.51500 0.28800
C 	C 	0.35259 0.28554 0.04953 0.40700
C 	C 	0.37322 0.26495 0.07995 -0.18300
C 	C 	0.36260 0.23080 0.09062 0.15800
H 	H 	0.34200 0.21970 0.07880 -0.02000
O 	O 	0.32409 0.27014 0.03820 -0.44400
O 	O 	0.36732 0.31424 0.03777 -0.42700
H 	H 	0.23400 0.25900 0.01500 0.29500
C 	C 	0.85259 0.21446 0.95047 0.40600
C 	C 	0.87322 0.23505 0.92005 -0.17900
C 	C 	0.86260 0.26920 0.90938 0.15800
H 	H 	0.84200 0.28030 0.92120 -0.01900
O 	O 	0.82409 0.22986 0.96180 -0.43800
O 	O 	0.86732 0.18576 0.96223 -0.41900
H 	H 	0.73400 0.24100 0.98500 0.29900
C 	C 	0.85259 0.71446 0.45047 0.40600
C 	C 	0.87322 0.73505 0.42005 -0.18000
C 	C 	0.86260 0.76920 0.40938 0.15800
H 	H 	0.84200 0.78030 0.42120 -0.01900
O 	O 	0.82409 0.72986 0.46180 -0.44100
O 	O 	0.86732 0.68576 0.46223 -0.42300
H 	H 	0.73400 0.74100 0.48500 0.28800
C 	C 	0.35259 0.21446 0.45047 0.40700
C 	C 	0.37322 0.23505 0.42005 -0.18100
C 	C 	0.36260 0.26920 0.40938 0.15800
H 	H 	0.34200 0.28030 0.42120 -0.01900
O 	O 	0.32409 0.22986 0.46180 -0.44100
O 	O 	0.36732 0.18576 0.46223 -0.42400
H 	H 	0.23400 0.24100 0.48500 0.28800
C 	C 	0.35259 0.71446 0.95047 0.40600
C 	C 	0.37322 0.73505 0.92005 -0.18000
C 	C 	0.36260 0.76920 0.90938 0.15800
H 	H 	0.34200 0.78030 0.92120 -0.01900
O 	O 	0.32409 0.72986 0.96180 -0.43800
O 	O 	0.36732 0.68576 0.96223 -0.41900
H 	H 	0.23400 0.74100 0.98500 0.29900
C 	C 	0.14741 0.21446 0.04953 0.40700
C 	C 	0.12678 0.23505 0.07995 -0.18400
C 	C 	0.13740 0.26920 0.09062 0.15900
H 	H 	0.15800 0.28030 0.07880 -0.02100
O 	O 	0.17591 0.22986 0.03820 -0.44400
O 	O 	0.13268 0.18576 0.03777 -0.42700
H 	H 	0.26600 0.24100 0.01500 0.29500
C 	C 	0.14741 0.71446 0.54953 0.40700
C 	C 	0.12678 0.73505 0.57995 -0.18200
C 	C 	0.13740 0.76920 0.59062 0.15800
H 	H 	0.15800 0.78030 0.57880 -0.01900
O 	O 	0.17591 0.72986 0.53820 -0.44200
O 	O 	0.13268 0.68576 0.53777 -0.42500
H 	H 	0.26600 0.74100 0.51500 0.28800
C 	C 	0.64741 0.21446 0.54953 0.40700
C 	C 	0.62678 0.23505 0.57995 -0.18100
C 	C 	0.63740 0.26920 0.59062 0.15800
H 	H 	0.65800 0.28030 0.57880 -0.01900
O 	O 	0.67591 0.22986 0.53820 -0.44100
O 	O 	0.63268 0.18576 0.53777 -0.42400
H 	H 	0.76600 0.24100 0.51500 0.28800
C 	C 	0.64741 0.71446 0.04953 0.40700
C 	C 	0.62678 0.73505 0.07995 -0.18300
C 	C 	0.63740 0.76920 0.09062 0.15900
H 	H 	0.65800 0.78030 0.07880 -0.02000
O 	O 	0.67591 0.72986 0.03820 -0.44400
O 	O 	0.63268 0.68576 0.03777 -0.42700
H 	H 	0.76600 0.74100 0.01500 0.29500
C 	C 	0.14741 0.78554 0.95047 0.40600
C 	C 	0.12678 0.76495 0.92005 -0.18000
C 	C 	0.13740 0.73080 0.90938 0.15800
H 	H 	0.15800 0.71970 0.92120 -0.01900
O 	O 	0.17591 0.77014 0.96180 -0.43800
O 	O 	0.13268 0.81424 0.96223 -0.42000
H 	H 	0.26600 0.75900 0.98500 0.29900
C 	C 	0.14741 0.28554 0.45047 0.40700
C 	C 	0.12678 0.26495 0.42005 -0.18200
C 	C 	0.13740 0.23080 0.40938 0.15800
H 	H 	0.15800 0.21970 0.42120 -0.02000
O 	O 	0.17591 0.27014 0.46180 -0.44200
O 	O 	0.13268 0.31424 0.46223 -0.42500
H 	H 	0.26600 0.25900 0.48500 0.28800
C 	C 	0.64741 0.78554 0.45047 0.40600
C 	C 	0.62678 0.76495 0.42005 -0.18100
C 	C 	0.63740 0.73080 0.40938 0.15800
H 	H 	0.65800 0.71970 0.42120 -0.01900
O 	O 	0.67591 0.77014 0.46180 -0.44100
O 	O 	0.63268 0.81424 0.46223 -0.42400
H 	H 	0.76600 0.75900 0.48500 0.28800
C 	C 	0.64741 0.28554 0.95047 0.40600
C 	C 	0.62678 0.26495 0.92005 -0.18000
C 	C 	0.63740 0.23080 0.90938 0.15800
H 	H 	0.65800 0.21970 0.92120 -0.01900
O 	O 	0.67591 0.27014 0.96180 -0.43800
O 	O 	0.63268 0.31424 0.96223 -0.41900
H 	H 	0.76600 0.25900 0.98500 0.30000
C 	C 	0.04953 0.85259 0.78554 0.40700
C 	C 	0.07995 0.87322 0.76495 -0.18200
C 	C 	0.09062 0.86260 0.73080 0.15800
H 	H 	0.07880 0.84200 0.71970 -0.02000
O 	O 	0.03820 0.82409 0.77014 -0.44400
O 	O 	0.03777 0.86732 0.81424 -0.42500
H 	H 	0.01500 0.73400 0.75900 0.29500
C 	C 	0.04953 0.35259 0.28554 0.40700
C 	C 	0.07995 0.37322 0.26495 -0.18300
C 	C 	0.09062 0.36260 0.23080 0.15800
H 	H 	0.07880 0.34200 0.21970 -0.02000
O 	O 	0.03820 0.32409 0.27014 -0.44400
O 	O 	0.03777 0.36732 0.31424 -0.42700
H 	H 	0.01500 0.23400 0.25900 0.29500
C 	C 	0.54953 0.85259 0.28554 0.40600
C 	C 	0.57995 0.87322 0.26495 -0.18000
C 	C 	0.59062 0.86260 0.23080 0.15800
H 	H 	0.57880 0.84200 0.21970 -0.01900
O 	O 	0.53820 0.82409 0.27014 -0.44100
O 	O 	0.53777 0.86732 0.31424 -0.42300
H 	H 	0.51500 0.73400 0.25900 0.28800
C 	C 	0.54953 0.35259 0.78554 0.40600
C 	C 	0.57995 0.37322 0.76495 -0.18100
C 	C 	0.59062 0.36260 0.73080 0.15800
H 	H 	0.57880 0.34200 0.71970 -0.01900
O 	O 	0.53820 0.32409 0.77014 -0.44100
O 	O 	0.53777 0.36732 0.81424 -0.42400
H 	H 	0.51500 0.23400 0.75900 0.28800
C 	C 	0.95047 0.85259 0.21446 0.40600
C 	C 	0.92005 0.87322 0.23505 -0.17900
C 	C 	0.90938 0.86260 0.26920 0.15800
H 	H 	0.92120 0.84200 0.28030 -0.01900
O 	O 	0.96180 0.82409 0.22986 -0.43800
O 	O 	0.96223 0.86732 0.18576 -0.41900
H 	H 	0.98500 0.73400 0.24100 0.29900
C 	C 	0.95047 0.35259 0.71446 0.40600
C 	C 	0.92005 0.37322 0.73505 -0.18000
C 	C 	0.90938 0.36260 0.76920 0.15800
H 	H 	0.92120 0.34200 0.78030 -0.01900
O 	O 	0.96180 0.32409 0.72986 -0.43800
O 	O 	0.96223 0.36732 0.68576 -0.41900
H 	H 	0.98500 0.23400 0.74100 0.29900
C 	C 	0.45047 0.85259 0.71446 0.40600
C 	C 	0.42005 0.87322 0.73505 -0.18000
C 	C 	0.40938 0.86260 0.76920 0.15800
H 	H 	0.42120 0.84200 0.78030 -0.01900
O 	O 	0.46180 0.82409 0.72986 -0.44100
O 	O 	0.46223 0.86732 0.68576 -0.42300
H 	H 	0.48500 0.73400 0.74100 0.28800
C 	C 	0.45047 0.35259 0.21446 0.40700
C 	C 	0.42005 0.37322 0.23505 -0.18100
C 	C 	0.40938 0.36260 0.26920 0.15800
H 	H 	0.42120 0.34200 0.28030 -0.01900
O 	O 	0.46180 0.32409 0.22986 -0.44100
O 	O 	0.46223 0.36732 0.18576 -0.42400
H 	H 	0.48500 0.23400 0.24100 0.28800
C 	C 	0.04953 0.14741 0.21446 0.40700
C 	C 	0.07995 0.12678 0.23505 -0.18400
C 	C 	0.09062 0.13740 0.26920 0.15900
H 	H 	0.07880 0.15800 0.28030 -0.02100
O 	O 	0.03820 0.17591 0.22986 -0.44400
O 	O 	0.03777 0.13268 0.18576 -0.42700
H 	H 	0.01500 0.26600 0.24100 0.29500
C 	C 	0.04953 0.64741 0.71446 0.40700
C 	C 	0.07995 0.62678 0.73505 -0.18300
C 	C 	0.09062 0.63740 0.76920 0.15900
H 	H 	0.07880 0.65800 0.78030 -0.02000
O 	O 	0.03820 0.67591 0.72986 -0.44400
O 	O 	0.03777 0.63268 0.68576 -0.42700
H 	H 	0.01500 0.76600 0.74100 0.29500
C 	C 	0.54953 0.14741 0.71446 0.40700
C 	C 	0.57995 0.12678 0.73505 -0.18200
C 	C 	0.59062 0.13740 0.76920 0.15800
H 	H 	0.57880 0.15800 0.78030 -0.01900
O 	O 	0.53820 0.17591 0.72986 -0.44200
O 	O 	0.53777 0.13268 0.68576 -0.42500
H 	H 	0.51500 0.26600 0.74100 0.28800
C 	C 	0.54953 0.64741 0.21446 0.40700
C 	C 	0.57995 0.62678 0.23505 -0.18100
C 	C 	0.59062 0.63740 0.26920 0.15800
H 	H 	0.57880 0.65800 0.28030 -0.01900
O 	O 	0.53820 0.67591 0.22986 -0.44100
O 	O 	0.53777 0.63268 0.18576 -0.42400
H 	H 	0.51500 0.76600 0.24100 0.28800
C 	C 	0.95047 0.14741 0.78554 0.40600
C 	C 	0.92005 0.12678 0.76495 -0.18000
C 	C 	0.90938 0.13740 0.73080 0.15800
H 	H 	0.92120 0.15800 0.71970 -0.01900
O 	O 	0.96180 0.17591 0.77014 -0.43800
O 	O 	0.96223 0.13268 0.81424 -0.42000
H 	H 	0.98500 0.26600 0.75900 0.29900
C 	C 	0.95047 0.64741 0.28554 0.40600
C 	C 	0.92005 0.62678 0.26495 -0.18000
C 	C 	0.90938 0.63740 0.23080 0.15800
H 	H 	0.92120 0.65800 0.21970 -0.01900
O 	O 	0.96180 0.67591 0.27014 -0.43800
O 	O 	0.96223 0.63268 0.31424 -0.41900
H 	H 	0.98500 0.76600 0.25900 0.30000
C 	C 	0.45047 0.14741 0.28554 0.40700
C 	C 	0.42005 0.12678 0.26495 -0.18200
C 	C 	0.40938 0.13740 0.23080 0.15800
H 	H 	0.42120 0.15800 0.21970 -0.02000
O 	O 	0.46180 0.17591 0.27014 -0.44200
O 	O 	0.46223 0.13268 0.31424 -0.42500
H 	H 	0.48500 0.26600 0.25900 0.28800
C 	C 	0.45047 0.64741 0.78554 0.40600
C 	C 	0.42005 0.62678 0.76495 -0.18100
C 	C 	0.40938 0.63740 0.73080 0.15800
H 	H 	0.42120 0.65800 0.71970 -0.01900
O 	O 	0.46180 0.67591 0.77014 -0.44100
O 	O 	0.46223 0.63268 0.81424 -0.42400
H 	H 	0.48500 0.76600 0.75900 0.28800
C 	C 	0.04953 0.78554 0.14741 0.40700
C 	C 	0.07995 0.76495 0.12678 -0.18300
C 	C 	0.09062 0.73080 0.13740 0.15900
H 	H 	0.07880 0.71970 0.15800 -0.02100
O 	O 	0.03820 0.77014 0.17591 -0.44400
O 	O 	0.03777 0.81424 0.13268 -0.42700
H 	H 	0.01500 0.75900 0.26600 0.29500
C 	C 	0.04953 0.28554 0.64741 0.40700
C 	C 	0.07995 0.26495 0.62678 -0.18300
C 	C 	0.09062 0.23080 0.63740 0.15800
H 	H 	0.07880 0.21970 0.65800 -0.02000
O 	O 	0.03820 0.27014 0.67591 -0.44400
O 	O 	0.03777 0.31424 0.63268 -0.42700
H 	H 	0.01500 0.25900 0.76600 0.29500
C 	C 	0.54953 0.78554 0.64741 0.40600
C 	C 	0.57995 0.76495 0.62678 -0.18100
C 	C 	0.59062 0.73080 0.63740 0.15800
H 	H 	0.57880 0.71970 0.65800 -0.01900
O 	O 	0.53820 0.77014 0.67591 -0.44100
O 	O 	0.53777 0.81424 0.63268 -0.42400
H 	H 	0.51500 0.75900 0.76600 0.28800
C 	C 	0.54953 0.28554 0.14741 0.40700
C 	C 	0.57995 0.26495 0.12678 -0.18200
C 	C 	0.59062 0.23080 0.13740 0.15800
H 	H 	0.57880 0.21970 0.15800 -0.02000
O 	O 	0.53820 0.27014 0.17591 -0.44200
O 	O 	0.53777 0.31424 0.13268 -0.42500
H 	H 	0.51500 0.25900 0.26600 0.28800
C 	C 	0.95047 0.21446 0.14741 0.40600
C 	C 	0.92005 0.23505 0.12678 -0.18100
C 	C 	0.90938 0.26920 0.13740 0.15800
H 	H 	0.92120 0.28030 0.15800 -0.01900
O 	O 	0.96180 0.22986 0.17591 -0.43800
O 	O 	0.96223 0.18576 0.13268 -0.42000
H 	H 	0.98500 0.24100 0.26600 0.30000
C 	C 	0.95047 0.71446 0.64741 0.40600
C 	C 	0.92005 0.73505 0.62678 -0.18000
C 	C 	0.90938 0.76920 0.63740 0.15800
H 	H 	0.92120 0.78030 0.65800 -0.01900
O 	O 	0.96180 0.72986 0.67591 -0.43800
O 	O 	0.96223 0.68576 0.63268 -0.41900
H 	H 	0.98500 0.74100 0.76600 0.30000
C 	C 	0.45047 0.21446 0.64741 0.40700
C 	C 	0.42005 0.23505 0.62678 -0.18100
C 	C 	0.40938 0.26920 0.63740 0.15800
H 	H 	0.42120 0.28030 0.65800 -0.01900
O 	O 	0.46180 0.22986 0.67591 -0.44100
O 	O 	0.46223 0.18576 0.63268 -0.42400
H 	H 	0.48500 0.24100 0.76600 0.28800
C 	C 	0.45047 0.71446 0.14741 0.40700
C 	C 	0.42005 0.73505 0.12678 -0.18200
C 	C 	0.40938 0.76920 0.13740 0.15800
H 	H 	0.42120 0.78030 0.15800 -0.01900
O 	O 	0.46180 0.72986 0.17591 -0.44200
O 	O 	0.46223 0.68576 0.13268 -0.42500
H 	H 	0.48500 0.74100 0.26600 0.28800
C 	C 	0.04953 0.21446 0.85259 0.40700
C 	C 	0.07995 0.23505 0.87322 -0.18200
C 	C 	0.09062 0.26920 0.86260 0.15800
H 	H 	0.07880 0.28030 0.84200 -0.02000
O 	O 	0.03820 0.22986 0.82409 -0.44400
O 	O 	0.03777 0.18576 0.86732 -0.42600
H 	H 	0.01500 0.24100 0.73400 0.29500
C 	C 	0.04953 0.71446 0.35259 0.40700
C 	C 	0.07995 0.73505 0.37322 -0.18300
C 	C 	0.09062 0.76920 0.36260 0.15900
H 	H 	0.07880 0.78030 0.34200 -0.02000
O 	O 	0.03820 0.72986 0.32409 -0.44400
O 	O 	0.03777 0.68576 0.36732 -0.42600
H 	H 	0.01500 0.74100 0.23400 0.29500
C 	C 	0.54953 0.21446 0.35259 0.40700
C 	C 	0.57995 0.23505 0.37322 -0.18100
C 	C 	0.59062 0.26920 0.36260 0.15800
H 	H 	0.57880 0.28030 0.34200 -0.01900
O 	O 	0.53820 0.22986 0.32409 -0.44100
O 	O 	0.53777 0.18576 0.36732 -0.42400
H 	H 	0.51500 0.24100 0.23400 0.28800
C 	C 	0.54953 0.71446 0.85259 0.40600
C 	C 	0.57995 0.73505 0.87322 -0.18000
C 	C 	0.59062 0.76920 0.86260 0.15800
H 	H 	0.57880 0.78030 0.84200 -0.01900
O 	O 	0.53820 0.72986 0.82409 -0.44100
O 	O 	0.53777 0.68576 0.86732 -0.42300
H 	H 	0.51500 0.74100 0.73400 0.28800
C 	C 	0.95047 0.78554 0.85259 0.40600
C 	C 	0.92005 0.76495 0.87322 -0.17900
C 	C 	0.90938 0.73080 0.86260 0.15700
H 	H 	0.92120 0.71970 0.84200 -0.01900
O 	O 	0.96180 0.77014 0.82409 -0.43800
O 	O 	0.96223 0.81424 0.86732 -0.41800
H 	H 	0.98500 0.75900 0.73400 0.29900
C 	C 	0.95047 0.28554 0.35259 0.40600
C 	C 	0.92005 0.26495 0.37322 -0.18000
C 	C 	0.90938 0.23080 0.36260 0.15800
H 	H 	0.92120 0.21970 0.34200 -0.01900
O 	O 	0.96180 0.27014 0.32409 -0.43800
O 	O 	0.96223 0.31424 0.36732 -0.41900
H 	H 	0.98500 0.25900 0.23400 0.29900
C 	C 	0.45047 0.78554 0.35259 0.40600
C 	C 	0.42005 0.76495 0.37322 -0.18100
C 	C 	0.40938 0.73080 0.36260 0.15800
H 	H 	0.42120 0.71970 0.34200 -0.01900
O 	O 	0.46180 0.77014 0.32409 -0.44100
O 	O 	0.46223 0.81424 0.36732 -0.42400
H 	H 	0.48500 0.75900 0.23400 0.28800
C 	C 	0.45047 0.28554 0.85259 0.40600
C 	C 	0.42005 0.26495 0.87322 -0.18000
C 	C 	0.40938 0.23080 0.86260 0.15800
H 	H 	0.42120 0.21970 0.84200 -0.01900
O 	O 	0.46180 0.27014 0.82409 -0.44100
O 	O 	0.46223 0.31424 0.86732 -0.42300
H 	H 	0.48500 0.25900 0.73400 0.28800
C 	C 	0.78554 0.85259 0.95047 0.40600
C 	C 	0.76495 0.87322 0.92005 -0.17900
C 	C 	0.73080 0.86260 0.90938 0.15700
H 	H 	0.71970 0.84200 0.92120 -0.01900
O 	O 	0.77014 0.82409 0.96180 -0.43800
O 	O 	0.81424 0.86732 0.96223 -0.41800
H 	H 	0.75900 0.73400 0.98500 0.29900
C 	C 	0.78554 0.35259 0.45047 0.40600
C 	C 	0.76495 0.37322 0.42005 -0.18100
C 	C 	0.73080 0.36260 0.40938 0.15800
H 	H 	0.71970 0.34200 0.42120 -0.01900
O 	O 	0.77014 0.32409 0.46180 -0.44100
O 	O 	0.81424 0.36732 0.46223 -0.42400
H 	H 	0.75900 0.23400 0.48500 0.28800
C 	C 	0.28554 0.85259 0.45047 0.40600
C 	C 	0.26495 0.87322 0.42005 -0.18000
C 	C 	0.23080 0.86260 0.40938 0.15800
H 	H 	0.21970 0.84200 0.42120 -0.01900
O 	O 	0.27014 0.82409 0.46180 -0.44100
O 	O 	0.31424 0.86732 0.46223 -0.42300
H 	H 	0.25900 0.73400 0.48500 0.28800
C 	C 	0.28554 0.35259 0.95047 0.40600
C 	C 	0.26495 0.37322 0.92005 -0.18000
C 	C 	0.23080 0.36260 0.90938 0.15800
H 	H 	0.21970 0.34200 0.92120 -0.01900
O 	O 	0.27014 0.32409 0.96180 -0.43800
O 	O 	0.31424 0.36732 0.96223 -0.41900
H 	H 	0.25900 0.23400 0.98500 0.29900
C 	C 	0.21446 0.85259 0.04953 0.40700
C 	C 	0.23505 0.87322 0.07995 -0.18200
C 	C 	0.26920 0.86260 0.09062 0.15800
H 	H 	0.28030 0.84200 0.07880 -0.02000
O 	O 	0.22986 0.82409 0.03820 -0.44400
O 	O 	0.18576 0.86732 0.03777 -0.42600
H 	H 	0.24100 0.73400 0.01500 0.29500
C 	C 	0.21446 0.35259 0.54953 0.40700
C 	C 	0.23505 0.37322 0.57995 -0.18100
C 	C 	0.26920 0.36260 0.59062 0.15800
H 	H 	0.28030 0.34200 0.57880 -0.01900
O 	O 	0.22986 0.32409 0.53820 -0.44100
O 	O 	0.18576 0.36732 0.53777 -0.42400
H 	H 	0.24100 0.23400 0.51500 0.28800
C 	C 	0.71446 0.85259 0.54953 0.40600
C 	C 	0.73505 0.87322 0.57995 -0.18000
C 	C 	0.76920 0.86260 0.59062 0.15800
H 	H 	0.78030 0.84200 0.57880 -0.01900
O 	O 	0.72986 0.82409 0.53820 -0.44100
O 	O 	0.68576 0.86732 0.53777 -0.42300
H 	H 	0.74100 0.73400 0.51500 0.28800
C 	C 	0.71446 0.35259 0.04953 0.40700
C 	C 	0.73505 0.37322 0.07995 -0.18300
C 	C 	0.76920 0.36260 0.09062 0.15900
H 	H 	0.78030 0.34200 0.07880 -0.02000
O 	O 	0.72986 0.32409 0.03820 -0.44400
O 	O 	0.68576 0.36732 0.03777 -0.42600
H 	H 	0.74100 0.23400 0.01500 0.29500
C 	C 	0.21446 0.14741 0.95047 0.40600
C 	C 	0.23505 0.12678 0.92005 -0.18100
C 	C 	0.26920 0.13740 0.90938 0.15800
H 	H 	0.28030 0.15800 0.92120 -0.01900
O 	O 	0.22986 0.17591 0.96180 -0.43800
O 	O 	0.18576 0.13268 0.96223 -0.42000
H 	H 	0.24100 0.26600 0.98500 0.30000
C 	C 	0.21446 0.64741 0.45047 0.40700
C 	C 	0.23505 0.62678 0.42005 -0.18100
C 	C 	0.26920 0.63740 0.40938 0.15800
H 	H 	0.28030 0.65800 0.42120 -0.01900
O 	O 	0.22986 0.67591 0.46180 -0.44100
O 	O 	0.18576 0.63268 0.46223 -0.42400
H 	H 	0.24100 0.76600 0.48500 0.28800
C 	C 	0.71446 0.14741 0.45047 0.40700
C 	C 	0.73505 0.12678 0.42005 -0.18200
C 	C 	0.76920 0.13740 0.40938 0.15800
H 	H 	0.78030 0.15800 0.42120 -0.01900
O 	O 	0.72986 0.17591 0.46180 -0.44200
O 	O 	0.68576 0.13268 0.46223 -0.42500
H 	H 	0.74100 0.26600 0.48500 0.28800
C 	C 	0.71446 0.64741 0.95047 0.40600
C 	C 	0.73505 0.62678 0.92005 -0.18000
C 	C 	0.76920 0.63740 0.90938 0.15800
H 	H 	0.78030 0.65800 0.92120 -0.01900
O 	O 	0.72986 0.67591 0.96180 -0.43800
O 	O 	0.68576 0.63268 0.96223 -0.41900
H 	H 	0.74100 0.76600 0.98500 0.30000
C 	C 	0.78554 0.14741 0.04953 0.40700
C 	C 	0.76495 0.12678 0.07995 -0.18300
C 	C 	0.73080 0.13740 0.09062 0.15900
H 	H 	0.71970 0.15800 0.07880 -0.02100
O 	O 	0.77014 0.17591 0.03820 -0.44400
O 	O 	0.81424 0.13268 0.03777 -0.42700
H 	H 	0.75900 0.26600 0.01500 0.29500
C 	C 	0.78554 0.64741 0.54953 0.40600
C 	C 	0.76495 0.62678 0.57995 -0.18100
C 	C 	0.73080 0.63740 0.59062 0.15800
H 	H 	0.71970 0.65800 0.57880 -0.01900
O 	O 	0.77014 0.67591 0.53820 -0.44100
O 	O 	0.81424 0.63268 0.53777 -0.42400
H 	H 	0.75900 0.76600 0.51500 0.28800
C 	C 	0.28554 0.14741 0.54953 0.40700
C 	C 	0.26495 0.12678 0.57995 -0.18200
C 	C 	0.23080 0.13740 0.59062 0.15800
H 	H 	0.21970 0.15800 0.57880 -0.02000
O 	O 	0.27014 0.17591 0.53820 -0.44200
O 	O 	0.31424 0.13268 0.53777 -0.42500
H 	H 	0.25900 0.26600 0.51500 0.28800
C 	C 	0.28554 0.64741 0.04953 0.40700
C 	C 	0.26495 0.62678 0.07995 -0.18300
C 	C 	0.23080 0.63740 0.09062 0.15800
H 	H 	0.21970 0.65800 0.07880 -0.02000
O 	O 	0.27014 0.67591 0.03820 -0.44400
O 	O 	0.31424 0.63268 0.03777 -0.42700
H 	H 	0.25900 0.76600 0.01500 0.29500
C 	C 	0.85259 0.04953 0.21446 0.40700
C 	C 	0.87322 0.07995 0.23505 -0.18200
C 	C 	0.86260 0.09062 0.26920 0.15800
H 	H 	0.84200 0.07880 0.28030 -0.02000
O 	O 	0.82409 0.03820 0.22986 -0.44400
O 	O 	0.86732 0.03777 0.18576 -0.42600
H 	H 	0.73400 0.01500 0.24100 0.29500
C 	C 	0.85259 0.54953 0.71446 0.40600
C 	C 	0.87322 0.57995 0.73505 -0.18000
C 	C 	0.86260 0.59062 0.76920 0.15800
H 	H 	0.84200 0.57880 0.78030 -0.01900
O 	O 	0.82409 0.53820 0.72986 -0.44100
O 	O 	0.86732 0.53777 0.68576 -0.42300
H 	H 	0.73400 0.51500 0.74100 0.28800
C 	C 	0.35259 0.04953 0.71446 0.40700
C 	C 	0.37322 0.07995 0.73505 -0.18300
C 	C 	0.36260 0.09062 0.76920 0.15900
H 	H 	0.34200 0.07880 0.78030 -0.02000
O 	O 	0.32409 0.03820 0.72986 -0.44400
O 	O 	0.36732 0.03777 0.68576 -0.42600
H 	H 	0.23400 0.01500 0.74100 0.29500
C 	C 	0.35259 0.54953 0.21446 0.40700
C 	C 	0.37322 0.57995 0.23505 -0.18100
C 	C 	0.36260 0.59062 0.26920 0.15800
H 	H 	0.34200 0.57880 0.28030 -0.01900
O 	O 	0.32409 0.53820 0.22986 -0.44100
O 	O 	0.36732 0.53777 0.18576 -0.42400
H 	H 	0.23400 0.51500 0.24100 0.28800
C 	C 	0.85259 0.95047 0.78554 0.40600
C 	C 	0.87322 0.92005 0.76495 -0.17900
C 	C 	0.86260 0.90938 0.73080 0.15700
H 	H 	0.84200 0.92120 0.71970 -0.01900
O 	O 	0.82409 0.96180 0.77014 -0.43800
O 	O 	0.86732 0.96223 0.81424 -0.41800
H 	H 	0.73400 0.98500 0.75900 0.29900
C 	C 	0.85259 0.45047 0.28554 0.40600
C 	C 	0.87322 0.42005 0.26495 -0.18000
C 	C 	0.86260 0.40938 0.23080 0.15800
H 	H 	0.84200 0.42120 0.21970 -0.01900
O 	O 	0.82409 0.46180 0.27014 -0.44100
O 	O 	0.86732 0.46223 0.31424 -0.42300
H 	H 	0.73400 0.48500 0.25900 0.28800
C 	C 	0.35259 0.95047 0.28554 0.40600
C 	C 	0.37322 0.92005 0.26495 -0.18000
C 	C 	0.36260 0.90938 0.23080 0.15800
H 	H 	0.34200 0.92120 0.21970 -0.01900
O 	O 	0.32409 0.96180 0.27014 -0.43800
O 	O 	0.36732 0.96223 0.31424 -0.41900
H 	H 	0.23400 0.98500 0.25900 0.29900
C 	C 	0.35259 0.45047 0.78554 0.40600
C 	C 	0.37322 0.42005 0.76495 -0.18100
C 	C 	0.36260 0.40938 0.73080 0.15800
H 	H 	0.34200 0.42120 0.71970 -0.01900
O 	O 	0.32409 0.46180 0.77014 -0.44100
O 	O 	0.36732 0.46223 0.81424 -0.42400
H 	H 	0.23400 0.48500 0.75900 0.28800
C 	C 	0.14741 0.04953 0.78554 0.40700
C 	C 	0.12678 0.07995 0.76495 -0.18300
C 	C 	0.13740 0.09062 0.73080 0.15900
H 	H 	0.15800 0.07880 0.71970 -0.02100
O 	O 	0.17591 0.03820 0.77014 -0.44400
O 	O 	0.13268 0.03777 0.81424 -0.42700
H 	H 	0.26600 0.01500 0.75900 0.29500
C 	C 	0.14741 0.54953 0.28554 0.40700
C 	C 	0.12678 0.57995 0.26495 -0.18200
C 	C 	0.13740 0.59062 0.23080 0.15800
H 	H 	0.15800 0.57880 0.21970 -0.02000
O 	O 	0.17591 0.53820 0.27014 -0.44200
O 	O 	0.13268 0.53777 0.31424 -0.42500
H 	H 	0.26600 0.51500 0.25900 0.28800
C 	C 	0.64741 0.04953 0.28554 0.40700
C 	C 	0.62678 0.07995 0.26495 -0.18300
C 	C 	0.63740 0.09062 0.23080 0.15800
H 	H 	0.65800 0.07880 0.21970 -0.02000
O 	O 	0.67591 0.03820 0.27014 -0.44400
O 	O 	0.63268 0.03777 0.31424 -0.42700
H 	H 	0.76600 0.01500 0.25900 0.29500
C 	C 	0.64741 0.54953 0.78554 0.40600
C 	C 	0.62678 0.57995 0.76495 -0.18100
C 	C 	0.63740 0.59062 0.73080 0.15800
H 	H 	0.65800 0.57880 0.71970 -0.01900
O 	O 	0.67591 0.53820 0.77014 -0.44100
O 	O 	0.63268 0.53777 0.81424 -0.42400
H 	H 	0.76600 0.51500 0.75900 0.28800
C 	C 	0.14741 0.95047 0.21446 0.40600
C 	C 	0.12678 0.92005 0.23505 -0.18100
C 	C 	0.13740 0.90938 0.26920 0.15800
H 	H 	0.15800 0.92120 0.28030 -0.01900
O 	O 	0.17591 0.96180 0.22986 -0.43800
O 	O 	0.13268 0.96223 0.18576 -0.42000
H 	H 	0.26600 0.98500 0.24100 0.30000
C 	C 	0.14741 0.45047 0.71446 0.40700
C 	C 	0.12678 0.42005 0.73505 -0.18200
C 	C 	0.13740 0.40938 0.76920 0.15800
H 	H 	0.15800 0.42120 0.78030 -0.01900
O 	O 	0.17591 0.46180 0.72986 -0.44200
O 	O 	0.13268 0.46223 0.68576 -0.42500
H 	H 	0.26600 0.48500 0.74100 0.28800
C 	C 	0.64741 0.95047 0.71446 0.40600
C 	C 	0.62678 0.92005 0.73505 -0.18000
C 	C 	0.63740 0.90938 0.76920 0.15800
H 	H 	0.65800 0.92120 0.78030 -0.01900
O 	O 	0.67591 0.96180 0.72986 -0.43800
O 	O 	0.63268 0.96223 0.68576 -0.41900
H 	H 	0.76600 0.98500 0.74100 0.30000
C 	C 	0.64741 0.45047 0.21446 0.40700
C 	C 	0.62678 0.42005 0.23505 -0.18100
C 	C 	0.63740 0.40938 0.26920 0.15800
H 	H 	0.65800 0.42120 0.28030 -0.01900
O 	O 	0.67591 0.46180 0.22986 -0.44100
O 	O 	0.63268 0.46223 0.18576 -0.42400
H 	H 	0.76600 0.48500 0.24100 0.28800
Cu	Cu	0.20628 0.00000 0.20628 0.90000
Cu	Cu	0.15505 0.00000 0.15505 0.90600
Cu	Cu	0.20628 0.50000 0.70628 0.90500
Cu	Cu	0.15505 0.50000 0.65505 0.91000
Cu	Cu	0.70628 0.00000 0.70628 0.90000
Cu	Cu	0.65505 0.00000 0.65505 0.90600
Cu	Cu	0.70628 0.50000 0.20628 0.90500
Cu	Cu	0.65505 0.50000 0.15505 0.91000
Cu	Cu	0.79372 0.00000 0.20628 0.90000
Cu	Cu	0.84495 0.00000 0.15505 0.90600
Cu	Cu	0.79372 0.50000 0.70628 0.90500
Cu	Cu	0.84495 0.50000 0.65505 0.91100
Cu	Cu	0.29372 0.00000 0.70628 0.90000
Cu	Cu	0.34495 0.00000 0.65505 0.90600
Cu	Cu	0.29372 0.50000 0.20628 0.90500
Cu	Cu	0.34495 0.50000 0.15505 0.91000
Cu	Cu	0.79372 -0.00000 0.79372 0.90000
Cu	Cu	0.84495 0.00000 0.84495 0.90700
Cu	Cu	0.79372 0.50000 0.29372 0.90500
Cu	Cu	0.84495 0.50000 0.34495 0.91100
Cu	Cu	0.29372 0.00000 0.29372 0.90000
Cu	Cu	0.34495 0.00000 0.34495 0.90600
Cu	Cu	0.29372 0.50000 0.79372 0.90500
Cu	Cu	0.34495 0.50000 0.84495 0.91100
Cu	Cu	0.20628 -0.00000 0.79372 0.90000
Cu	Cu	0.15505 0.00000 0.84495 0.90600
Cu	Cu	0.20628 0.50000 0.29372 0.90500
Cu	Cu	0.15505 0.50000 0.34495 0.91000
Cu	Cu	0.70628 0.00000 0.29372 0.90000
Cu	Cu	0.65505 0.00000 0.34495 0.90600
Cu	Cu	0.70628 0.50000 0.79372 0.90500
Cu	Cu	0.65505 0.50000 0.84495 0.91100
Cu	Cu	0.20628 0.20628 -0.00000 0.90000
Cu	Cu	0.15505 0.15505 -0.00000 0.90600
Cu	Cu	0.20628 0.70628 0.50000 0.90500
Cu	Cu	0.15505 0.65505 0.50000 0.91000
Cu	Cu	0.70628 0.20628 0.50000 0.90500
Cu	Cu	0.65505 0.15505 0.50000 0.91000
Cu	Cu	0.70628 0.70628 -0.00000 0.90000
Cu	Cu	0.65505 0.65505 -0.00000 0.90600
Cu	Cu	0.20628 0.79372 -0.00000 0.90000
Cu	Cu	0.15505 0.84495 -0.00000 0.90600
Cu	Cu	0.20628 0.29372 0.50000 0.90500
Cu	Cu	0.15505 0.34495 0.50000 0.91000
Cu	Cu	0.70628 0.79372 0.50000 0.90500
Cu	Cu	0.65505 0.84495 0.50000 0.91100
Cu	Cu	0.70628 0.29372 -0.00000 0.90000
Cu	Cu	0.65505 0.34495 -0.00000 0.90600
Cu	Cu	0.79372 0.79372 -0.00000 0.90000
Cu	Cu	0.84495 0.84495 -0.00000 0.90700
Cu	Cu	0.79372 0.29372 0.50000 0.90500
Cu	Cu	0.84495 0.34495 0.50000 0.91100
Cu	Cu	0.29372 0.79372 0.50000 0.90500
Cu	Cu	0.34495 0.84495 0.50000 0.91100
Cu	Cu	0.29372 0.29372 -0.00000 0.90000
Cu	Cu	0.34495 0.34495 -0.00000 0.90600
Cu	Cu	0.79372 0.20628 -0.00000 0.90000
Cu	Cu	0.84495 0.15505 -0.00000 0.90600
Cu	Cu	0.79372 0.70628 0.50000 0.90500
Cu	Cu	0.84495 0.65505 0.50000 0.91100
Cu	Cu	0.29372 0.20628 0.50000 0.90500
Cu	Cu	0.34495 0.15505 0.50000 0.91000
Cu	Cu	0.29372 0.70628 -0.00000 0.90000
Cu	Cu	0.34495 0.65505 -0.00000 0.90600
Cu	Cu	-0.00000 0.20628 0.20628 0.90000
Cu	Cu	0.00000 0.15505 0.15505 0.90600
Cu	Cu	0.00000 0.70628 0.70628 0.90000
Cu	Cu	0.00000 0.65505 0.65505 0.90600
Cu	Cu	0.50000 0.20628 0.70628 0.90500
Cu	Cu	0.50000 0.15505 0.65505 0.91000
Cu	Cu	0.50000 0.70628 0.20628 0.90500
Cu	Cu	0.50000 0.65505 0.15505 0.91000
Cu	Cu	-0.00000 0.20628 0.79372 0.90000
Cu	Cu	0.00000 0.15505 0.84495 0.90600
Cu	Cu	-0.00000 0.70628 0.29372 0.90000
Cu	Cu	-0.00000 0.65505 0.34495 0.90600
Cu	Cu	0.50000 0.20628 0.29372 0.90500
Cu	Cu	0.50000 0.15505 0.34495 0.91000
Cu	Cu	0.50000 0.70628 0.79372 0.90500
Cu	Cu	0.50000 0.65505 0.84495 0.91100
Cu	Cu	0.00000 0.79372 0.79372 0.90000
Cu	Cu	0.00000 0.84495 0.84495 0.90700
Cu	Cu	0.00000 0.29372 0.29372 0.90000
Cu	Cu	0.00000 0.34495 0.34495 0.90600
Cu	Cu	0.50000 0.79372 0.29372 0.90500
Cu	Cu	0.50000 0.84495 0.34495 0.91100
Cu	Cu	0.50000 0.29372 0.79372 0.90500
Cu	Cu	0.50000 0.34495 0.84495 0.91100
Cu	Cu	-0.00000 0.79372 0.20628 0.90000
Cu	Cu	-0.00000 0.84495 0.15505 0.90600
Cu	Cu	-0.00000 0.29372 0.70628 0.90000
Cu	Cu	-0.00000 0.34495 0.65505 0.90600
Cu	Cu	0.50000 0.79372 0.70628 0.90500
Cu	Cu	0.50000 0.84495 0.65505 0.91100
Cu	Cu	0.50000 0.29372 0.20628 0.90500
Cu	Cu	0.50000 0.34495 0.15505 0.91000
C 	C 	0.21850 0.90317 0.09683 0.11900
H 	H 	0.19560 0.91220 0.08780 0.02500
C 	C 	0.28940 0.88113 0.11887 -0.28300
C 	C 	0.32550 0.86990 0.13010 0.57400
C 	C 	0.21850 0.40317 0.59683 0.11900
H 	H 	0.19560 0.41220 0.58780 0.02500
C 	C 	0.28940 0.38113 0.61887 -0.28300
C 	C 	0.32550 0.36990 0.63010 0.57400
C 	C 	0.71850 0.90317 0.59683 0.11800
H 	H 	0.69560 0.91220 0.58780 0.02600
C 	C 	0.78940 0.88113 0.61887 -0.28200
C 	C 	0.82550 0.86990 0.63010 0.57400
C 	C 	0.71850 0.40317 0.09683 0.11900
H 	H 	0.69560 0.41220 0.08780 0.02400
C 	C 	0.78940 0.38113 0.11887 -0.28400
C 	C 	0.82550 0.36990 0.13010 0.57400
C 	C 	0.78150 0.09683 0.09683 0.11900
H 	H 	0.80440 0.08780 0.08780 0.02300
C 	C 	0.71060 0.11887 0.11887 -0.28400
C 	C 	0.67450 0.13010 0.13010 0.57300
C 	C 	0.78150 0.59683 0.59683 0.11800
H 	H 	0.80440 0.58780 0.58780 0.02500
C 	C 	0.71060 0.61887 0.61887 -0.28300
C 	C 	0.67450 0.63010 0.63010 0.57300
C 	C 	0.28150 0.09683 0.59683 0.11900
H 	H 	0.30440 0.08780 0.58780 0.02400
C 	C 	0.21060 0.11887 0.61887 -0.28400
C 	C 	0.17450 0.13010 0.63010 0.57300
C 	C 	0.28150 0.59683 0.09683 0.11900
H 	H 	0.30440 0.58780 0.08780 0.02400
C 	C 	0.21060 0.61887 0.11887 -0.28400
C 	C 	0.17450 0.63010 0.13010 0.57300
C 	C 	0.78150 0.90317 0.90317 0.11700
H 	H 	0.80440 0.91220 0.91220 0.02700
C 	C 	0.71060 0.88113 0.88113 -0.28200
C 	C 	0.67450 0.86990 0.86990 0.57400
C 	C 	0.78150 0.40317 0.40317 0.11800
H 	H 	0.80440 0.41220 0.41220 0.02500
C 	C 	0.71060 0.38113 0.38113 -0.28300
C 	C 	0.67450 0.36990 0.36990 0.57400
C 	C 	0.28150 0.90317 0.40317 0.11800
H 	H 	0.30440 0.91220 0.41220 0.02600
C 	C 	0.21060 0.88113 0.38113 -0.28200
C 	C 	0.17450 0.86990 0.36990 0.57400
C 	C 	0.28150 0.40317 0.90317 0.11800
H 	H 	0.30440 0.41220 0.91220 0.02600
C 	C 	0.21060 0.38113 0.88113 -0.28200
C 	C 	0.17450 0.36990 0.86990 0.57400
C 	C 	0.21850 0.09683 0.90317 0.11900
H 	H 	0.19560 0.08780 0.91220 0.02500
C 	C 	0.28940 0.11887 0.88113 -0.28300
C 	C 	0.32550 0.13010 0.86990 0.57400
C 	C 	0.21850 0.59683 0.40317 0.11900
H 	H 	0.19560 0.58780 0.41220 0.02500
C 	C 	0.28940 0.61887 0.38113 -0.28300
C 	C 	0.32550 0.63010 0.36990 0.57400
C 	C 	0.71850 0.09683 0.40317 0.11900
H 	H 	0.69560 0.08780 0.41220 0.02400
C 	C 	0.78940 0.11887 0.38113 -0.28400
C 	C 	0.82550 0.13010 0.36990 0.57400
C 	C 	0.71850 0.59683 0.90317 0.11800
H 	H 	0.69560 0.58780 0.91220 0.02600
C 	C 	0.78940 0.61887 0.88113 -0.28200
C 	C 	0.82550 0.63010 0.86990 0.57400
C 	C 	0.09683 0.21850 0.90317 0.11900
H 	H 	0.08780 0.19560 0.91220 0.02500
C 	C 	0.11887 0.28940 0.88113 -0.28300
C 	C 	0.13010 0.32550 0.86990 0.57400
C 	C 	0.09683 0.71850 0.40317 0.11900
H 	H 	0.08780 0.69560 0.41220 0.02400
C 	C 	0.11887 0.78940 0.38113 -0.28400
C 	C 	0.13010 0.82550 0.36990 0.57400
C 	C 	0.59683 0.21850 0.40317 0.11900
H 	H 	0.58780 0.19560 0.41220 0.02500
C 	C 	0.61887 0.28940 0.38113 -0.28300
C 	C 	0.63010 0.32550 0.36990 0.57400
C 	C 	0.59683 0.71850 0.90317 0.11800
H 	H 	0.58780 0.69560 0.91220 0.02600
C 	C 	0.61887 0.78940 0.88113 -0.28200
C 	C 	0.63010 0.82550 0.86990 0.57400
C 	C 	0.09683 0.78150 0.09683 0.11900
H 	H 	0.08780 0.80440 0.08780 0.02300
C 	C 	0.11887 0.71060 0.11887 -0.28400
C 	C 	0.13010 0.67450 0.13010 0.57300
C 	C 	0.09683 0.28150 0.59683 0.11900
H 	H 	0.08780 0.30440 0.58780 0.02400
C 	C 	0.11887 0.21060 0.61887 -0.28400
C 	C 	0.13010 0.17450 0.63010 0.57300
C 	C 	0.59683 0.78150 0.59683 0.11800
H 	H 	0.58780 0.80440 0.58780 0.02500
C 	C 	0.61887 0.71060 0.61887 -0.28300
C 	C 	0.63010 0.67450 0.63010 0.57300
C 	C 	0.59683 0.28150 0.09683 0.11900
H 	H 	0.58780 0.30440 0.08780 0.02400
C 	C 	0.61887 0.21060 0.11887 -0.28400
C 	C 	0.63010 0.17450 0.13010 0.57300
C 	C 	0.90317 0.78150 0.90317 0.11700
H 	H 	0.91220 0.80440 0.91220 0.02700
C 	C 	0.88113 0.71060 0.88113 -0.28200
C 	C 	0.86990 0.67450 0.86990 0.57400
C 	C 	0.90317 0.28150 0.40317 0.11800
H 	H 	0.91220 0.30440 0.41220 0.02600
C 	C 	0.88113 0.21060 0.38113 -0.28200
C 	C 	0.86990 0.17450 0.36990 0.57400
C 	C 	0.40317 0.78150 0.40317 0.11800
H 	H 	0.41220 0.80440 0.41220 0.02500
C 	C 	0.38113 0.71060 0.38113 -0.28300
C 	C 	0.36990 0.67450 0.36990 0.57400
C 	C 	0.40317 0.28150 0.90317 0.11800
H 	H 	0.41220 0.30440 0.91220 0.02600
C 	C 	0.38113 0.21060 0.88113 -0.28200
C 	C 	0.36990 0.17450 0.86990 0.57400
C 	C 	0.90317 0.21850 0.09683 0.11900
H 	H 	0.91220 0.19560 0.08780 0.02500
C 	C 	0.88113 0.28940 0.11887 -0.28300
C 	C 	0.86990 0.32550 0.13010 0.57400
C 	C 	0.90317 0.71850 0.59683 0.11800
H 	H 	0.91220 0.69560 0.58780 0.02600
C 	C 	0.88113 0.78940 0.61887 -0.28200
C 	C 	0.86990 0.82550 0.63010 0.57400
C 	C 	0.40317 0.21850 0.59683 0.11900
H 	H 	0.41220 0.19560 0.58780 0.02500
C 	C 	0.38113 0.28940 0.61887 -0.28300
C 	C 	0.36990 0.32550 0.63010 0.57400
C 	C 	0.40317 0.71850 0.09683 0.11900
H 	H 	0.41220 0.69560 0.08780 0.02400
C 	C 	0.38113 0.78940 0.11887 -0.28400
C 	C 	0.36990 0.82550 0.13010 0.57400
C 	C 	0.90317 0.09683 0.21850 0.11900
H 	H 	0.91220 0.08780 0.19560 0.02500
C 	C 	0.88113 0.11887 0.28940 -0.28300
C 	C 	0.86990 0.13010 0.32550 0.57400
C 	C 	0.90317 0.59683 0.71850 0.11800
H 	H 	0.91220 0.58780 0.69560 0.02600
C 	C 	0.88113 0.61887 0.78940 -0.28200
C 	C 	0.86990 0.63010 0.82550 0.57400
C 	C 	0.40317 0.09683 0.71850 0.11900
H 	H 	0.41220 0.08780 0.69560 0.02400
C 	C 	0.38113 0.11887 0.78940 -0.28400
C 	C 	0.36990 0.13010 0.82550 0.57400
C 	C 	0.40317 0.59683 0.21850 0.11900
H 	H 	0.41220 0.58780 0.19560 0.02500
C 	C 	0.38113 0.61887 0.28940 -0.28300
C 	C 	0.36990 0.63010 0.32550 0.57400
C 	C 	0.09683 0.09683 0.78150 0.11900
H 	H 	0.08780 0.08780 0.80440 0.02300
C 	C 	0.11887 0.11887 0.71060 -0.28400
C 	C 	0.13010 0.13010 0.67450 0.57300
C 	C 	0.09683 0.59683 0.28150 0.11900
H 	H 	0.08780 0.58780 0.30440 0.02400
C 	C 	0.11887 0.61887 0.21060 -0.28400
C 	C 	0.13010 0.63010 0.17450 0.57300
C 	C 	0.59683 0.09683 0.28150 0.11900
H 	H 	0.58780 0.08780 0.30440 0.02400
C 	C 	0.61887 0.11887 0.21060 -0.28400
C 	C 	0.63010 0.13010 0.17450 0.57300
C 	C 	0.59683 0.59683 0.78150 0.11800
H 	H 	0.58780 0.58780 0.80440 0.02500
C 	C 	0.61887 0.61887 0.71060 -0.28300
C 	C 	0.63010 0.63010 0.67450 0.57300
C 	C 	0.90317 0.90317 0.78150 0.11700
H 	H 	0.91220 0.91220 0.80440 0.02700
C 	C 	0.88113 0.88113 0.71060 -0.28200
C 	C 	0.86990 0.86990 0.67450 0.57400
C 	C 	0.90317 0.40317 0.28150 0.11800
H 	H 	0.91220 0.41220 0.30440 0.02600
C 	C 	0.88113 0.38113 0.21060 -0.28200
C 	C 	0.86990 0.36990 0.17450 0.57400
C 	C 	0.40317 0.90317 0.28150 0.11800
H 	H 	0.41220 0.91220 0.30440 0.02600
C 	C 	0.38113 0.88113 0.21060 -0.28200
C 	C 	0.36990 0.86990 0.17450 0.57400
C 	C 	0.40317 0.40317 0.78150 0.11800
H 	H 	0.41220 0.41220 0.80440 0.02500
C 	C 	0.38113 0.38113 0.71060 -0.28300
C 	C 	0.36990 0.36990 0.67450 0.57400
C 	C 	0.09683 0.90317 0.21850 0.11900
H 	H 	0.08780 0.91220 0.19560 0.02500
C 	C 	0.11887 0.88113 0.28940 -0.28300
C 	C 	0.13010 0.86990 0.32550 0.57400
C 	C 	0.09683 0.40317 0.71850 0.11900
H 	H 	0.08780 0.41220 0.69560 0.02400
C 	C 	0.11887 0.38113 0.78940 -0.28400
C 	C 	0.13010 0.36990 0.82550 0.57400
C 	C 	0.59683 0.90317 0.71850 0.11800
H 	H 	0.58780 0.91220 0.69560 0.02600
C 	C 	0.61887 0.88113 0.78940 -0.28200
C 	C 	0.63010 0.86990 0.82550 0.57400
C 	C 	0.59683 0.40317 0.21850 0.11900
H 	H 	0.58780 0.41220 0.19560 0.02500
C 	C 	0.61887 0.38113 0.28940 -0.28300
C 	C 	0.63010 0.36990 0.32550 0.57400
C 	C 	0.90317 0.21850 0.90317 0.11800
H 	H 	0.91220 0.19560 0.91220 0.02700
C 	C 	0.88113 0.28940 0.88113 -0.28200
C 	C 	0.86990 0.32550 0.86990 0.57500
C 	C 	0.90317 0.71850 0.40317 0.11800
H 	H 	0.91220 0.69560 0.41220 0.02600
C 	C 	0.88113 0.78940 0.38113 -0.28200
C 	C 	0.86990 0.82550 0.36990 0.57400
C 	C 	0.40317 0.21850 0.40317 0.11900
H 	H 	0.41220 0.19560 0.41220 0.02500
C 	C 	0.38113 0.28940 0.38113 -0.28300
C 	C 	0.36990 0.32550 0.36990 0.57400
C 	C 	0.40317 0.71850 0.90317 0.11800
H 	H 	0.41220 0.69560 0.91220 0.02600
C 	C 	0.38113 0.78940 0.88113 -0.28200
C 	C 	0.36990 0.82550 0.86990 0.57400
C 	C 	0.09683 0.78150 0.90317 0.11800
H 	H 	0.08780 0.80440 0.91220 0.02500
C 	C 	0.11887 0.71060 0.88113 -0.28300
C 	C 	0.13010 0.67450 0.86990 0.57400
C 	C 	0.09683 0.28150 0.40317 0.11900
H 	H 	0.08780 0.30440 0.41220 0.02400
C 	C 	0.11887 0.21060 0.38113 -0.28400
C 	C 	0.13010 0.17450 0.36990 0.57300
C 	C 	0.59683 0.78150 0.40317 0.11800
H 	H 	0.58780 0.80440 0.41220 0.02500
C 	C 	0.61887 0.71060 0.38113 -0.28300
C 	C 	0.63010 0.67450 0.36990 0.57400
C 	C 	0.59683 0.28150 0.90317 0.11800
H 	H 	0.58780 0.30440 0.91220 0.02600
C 	C 	0.61887 0.21060 0.88113 -0.28200
C 	C 	0.63010 0.17450 0.86990 0.57400
C 	C 	0.90317 0.78150 0.09683 0.11800
H 	H 	0.91220 0.80440 0.08780 0.02500
C 	C 	0.88113 0.71060 0.11887 -0.28300
C 	C 	0.86990 0.67450 0.13010 0.57400
C 	C 	0.90317 0.28150 0.59683 0.11800
H 	H 	0.91220 0.30440 0.58780 0.02600
C 	C 	0.88113 0.21060 0.61887 -0.28200
C 	C 	0.86990 0.17450 0.63010 0.57400
C 	C 	0.40317 0.78150 0.59683 0.11800
H 	H 	0.41220 0.80440 0.58780 0.02500
C 	C 	0.38113 0.71060 0.61887 -0.28300
C 	C 	0.36990 0.67450 0.63010 0.57400
C 	C 	0.40317 0.28150 0.09683 0.11900
H 	H 	0.41220 0.30440 0.08780 0.02400
C 	C 	0.38113 0.21060 0.11887 -0.28400
C 	C 	0.36990 0.17450 0.13010 0.57300
C 	C 	0.09683 0.21850 0.09683 0.12000
H 	H 	0.08780 0.19560 0.08780 0.02300
C 	C 	0.11887 0.28940 0.11887 -0.28500
C 	C 	0.13010 0.32550 0.13010 0.57300
C 	C 	0.09683 0.71850 0.59683 0.11900
H 	H 	0.08780 0.69560 0.58780 0.02400
C 	C 	0.11887 0.78940 0.61887 -0.28400
C 	C 	0.13010 0.82550 0.63010 0.57400
C 	C 	0.59683 0.21850 0.59683 0.11900
H 	H 	0.58780 0.19560 0.58780 0.02500
C 	C 	0.61887 0.28940 0.61887 -0.28300
C 	C 	0.63010 0.32550 0.63010 0.57400
C 	C 	0.59683 0.71850 0.09683 0.11900
H 	H 	0.58780 0.69560 0.08780 0.02400
C 	C 	0.61887 0.78940 0.11887 -0.28400
C 	C 	0.63010 0.82550 0.13010 0.57400
C 	C 	0.21850 0.09683 0.09683 0.12000
H 	H 	0.19560 0.08780 0.08780 0.02300
C 	C 	0.28940 0.11887 0.11887 -0.28500
C 	C 	0.32550 0.13010 0.13010 0.57300
C 	C 	0.21850 0.59683 0.59683 0.11900
H 	H 	0.19560 0.58780 0.58780 0.02500
C 	C 	0.28940 0.61887 0.61887 -0.28300
C 	C 	0.32550 0.63010 0.63010 0.57400
C 	C 	0.71850 0.09683 0.59683 0.11900
H 	H 	0.69560 0.08780 0.58780 0.02400
C 	C 	0.78940 0.11887 0.61887 -0.28400
C 	C 	0.82550 0.13010 0.63010 0.57400
C 	C 	0.71850 0.59683 0.09683 0.11900
H 	H 	0.69560 0.58780 0.08780 0.02400
C 	C 	0.78940 0.61887 0.11887 -0.28400
C 	C 	0.82550 0.63010 0.13010 0.57400
C 	C 	0.78150 0.09683 0.90317 0.11800
H 	H 	0.80440 0.08780 0.91220 0.02500
C 	C 	0.71060 0.11887 0.88113 -0.28300
C 	C 	0.67450 0.13010 0.86990 0.57400
C 	C 	0.78150 0.59683 0.40317 0.11800
H 	H 	0.80440 0.58780 0.41220 0.02500
C 	C 	0.71060 0.61887 0.38113 -0.28300
C 	C 	0.67450 0.63010 0.36990 0.57400
C 	C 	0.28150 0.09683 0.40317 0.11900
H 	H 	0.30440 0.08780 0.41220 0.02400
C 	C 	0.21060 0.11887 0.38113 -0.28400
C 	C 	0.17450 0.13010 0.36990 0.57300
C 	C 	0.28150 0.59683 0.90317 0.11800
H 	H 	0.30440 0.58780 0.91220 0.02600
C 	C 	0.21060 0.61887 0.88113 -0.28200
C 	C 	0.17450 0.63010 0.86990 0.57400
C 	C 	0.78150 0.90317 0.09683 0.11800
H 	H 	0.80440 0.91220 0.08780 0.02500
C 	C 	0.71060 0.88113 0.11887 -0.28300
C 	C 	0.67450 0.86990 0.13010 0.57400
C 	C 	0.78150 0.40317 0.59683 0.11800
H 	H 	0.80440 0.41220 0.58780 0.02500
C 	C 	0.71060 0.38113 0.61887 -0.28300
C 	C 	0.67450 0.36990 0.63010 0.57400
C 	C 	0.28150 0.90317 0.59683 0.11800
H 	H 	0.30440 0.91220 0.58780 0.02600
C 	C 	0.21060 0.88113 0.61887 -0.28200
C 	C 	0.17450 0.86990 0.63010 0.57400
C 	C 	0.28150 0.40317 0.09683 0.11900
H 	H 	0.30440 0.41220 0.08780 0.02400
C 	C 	0.21060 0.38113 0.11887 -0.28400
C 	C 	0.17450 0.36990 0.13010 0.57300
C 	C 	0.21850 0.90317 0.90317 0.11800
H 	H 	0.19560 0.91220 0.91220 0.02700
C 	C 	0.28940 0.88113 0.88113 -0.28200
C 	C 	0.32550 0.86990 0.86990 0.57500
C 	C 	0.21850 0.40317 0.40317 0.11900
H 	H 	0.19560 0.41220 0.41220 0.02500
C 	C 	0.28940 0.38113 0.38113 -0.28300
C 	C 	0.32550 0.36990 0.36990 0.57400
C 	C 	0.71850 0.90317 0.40317 0.11800
H 	H 	0.69560 0.91220 0.41220 0.02600
C 	C 	0.78940 0.88113 0.38113 -0.28200
C 	C 	0.82550 0.86990 0.36990 0.57400
C 	C 	0.71850 0.40317 0.90317 0.11800
H 	H 	0.69560 0.41220 0.91220 0.02600
C 	C 	0.78940 0.38113 0.88113 -0.28200
C 	C 	0.82550 0.36990 0.86990 0.57400
C 	C 	0.09683 0.90317 0.78150 0.11800
H 	H 	0.08780 0.91220 0.80440 0.02500
C 	C 	0.11887 0.88113 0.71060 -0.28300
C 	C 	0.13010 0.86990 0.67450 0.57400
C 	C 	0.09683 0.40317 0.28150 0.11900
H 	H 	0.08780 0.41220 0.30440 0.02400
C 	C 	0.11887 0.38113 0.21060 -0.28400
C 	C 	0.13010 0.36990 0.17450 0.57300
C 	C 	0.59683 0.90317 0.28150 0.11800
H 	H 	0.58780 0.91220 0.30440 0.02600
C 	C 	0.61887 0.88113 0.21060 -0.28200
C 	C 	0.63010 0.86990 0.17450 0.57400
C 	C 	0.59683 0.40317 0.78150 0.11800
H 	H 	0.58780 0.41220 0.80440 0.02500
C 	C 	0.61887 0.38113 0.71060 -0.28300
C 	C 	0.63010 0.36990 0.67450 0.57400
C 	C 	0.09683 0.09683 0.21850 0.12000
H 	H 	0.08780 0.08780 0.19560 0.02300
C 	C 	0.11887 0.11887 0.28940 -0.28500
C 	C 	0.13010 0.13010 0.32550 0.57300
C 	C 	0.09683 0.59683 0.71850 0.11900
H 	H 	0.08780 0.58780 0.69560 0.02400
C 	C 	0.11887 0.61887 0.78940 -0.28400
C 	C 	0.13010 0.63010 0.82550 0.57400
C 	C 	0.59683 0.09683 0.71850 0.11900
H 	H 	0.58780 0.08780 0.69560 0.02400
C 	C 	0.61887 0.11887 0.78940 -0.28400
C 	C 	0.63010 0.13010 0.82550 0.57400
C 	C 	0.59683 0.59683 0.21850 0.11900
H 	H 	0.58780 0.58780 0.19560 0.02500
C 	C 	0.61887 0.61887 0.28940 -0.28300
C 	C 	0.63010 0.63010 0.32550 0.57400
C 	C 	0.90317 0.90317 0.21850 0.11800
H 	H 	0.91220 0.91220 0.19560 0.02700
C 	C 	0.88113 0.88113 0.28940 -0.28200
C 	C 	0.86990 0.86990 0.32550 0.57500
C 	C 	0.90317 0.40317 0.71850 0.11800
H 	H 	0.91220 0.41220 0.69560 0.02600
C 	C 	0.88113 0.38113 0.78940 -0.28200
C 	C 	0.86990 0.36990 0.82550 0.57400
C 	C 	0.40317 0.90317 0.71850 0.11800
H 	H 	0.41220 0.91220 0.69560 0.02600
C 	C 	0.38113 0.88113 0.78940 -0.28200
C 	C 	0.36990 0.86990 0.82550 0.57400
C 	C 	0.40317 0.40317 0.21850 0.11900
H 	H 	0.41220 0.41220 0.19560 0.02500
C 	C 	0.38113 0.38113 0.28940 -0.28300
C 	C 	0.36990 0.36990 0.32550 0.57400
C 	C 	0.90317 0.09683 0.78150 0.11800
H 	H 	0.91220 0.08780 0.80440 0.02500
C 	C 	0.88113 0.11887 0.71060 -0.28300
C 	C 	0.86990 0.13010 0.67450 0.57400
C 	C 	0.90317 0.59683 0.28150 0.11800
H 	H 	0.91220 0.58780 0.30440 0.02600
C 	C 	0.88113 0.61887 0.21060 -0.28200
C 	C 	0.86990 0.63010 0.17450 0.57400
C 	C 	0.40317 0.09683 0.28150 0.11900
H 	H 	0.41220 0.08780 0.30440 0.02400
C 	C 	0.38113 0.11887 0.21060 -0.28400
C 	C 	0.36990 0.13010 0.17450 0.57300
C 	C 	0.40317 0.59683 0.78150 0.11800
H 	H 	0.41220 0.58780 0.80440 0.02500
C 	C 	0.38113 0.61887 0.71060 -0.28300
C 	C 	0.36990 0.63010 0.67450 0.57400
C 	C 	0.34160 0.88560 0.15840 -0.65800
H 	H 	0.33260 0.90860 0.16740 0.25100
C 	C 	0.34160 0.38560 0.65840 -0.65800
H 	H 	0.33260 0.40860 0.66740 0.25100
C 	C 	0.65840 0.11440 0.15840 -0.65800
H 	H 	0.66740 0.09140 0.16740 0.25000
C 	C 	0.65840 0.61440 0.65840 -0.65800
H 	H 	0.66740 0.59140 0.66740 0.25100
C 	C 	0.15840 0.61440 0.15840 -0.65800
H 	H 	0.16740 0.59140 0.16740 0.25000
C 	C 	0.65840 0.88560 0.84160 -0.65800
H 	H 	0.66740 0.90860 0.83260 0.25200
C 	C 	0.65840 0.38560 0.34160 -0.65800
H 	H 	0.66740 0.40860 0.33260 0.25100
C 	C 	0.15840 0.88560 0.34160 -0.65800
H 	H 	0.16740 0.90860 0.33260 0.25100
C 	C 	0.34160 0.11440 0.84160 -0.65800
H 	H 	0.33260 0.09140 0.83260 0.25000
C 	C 	0.34160 0.61440 0.34160 -0.65800
H 	H 	0.33260 0.59140 0.33260 0.25100
C 	C 	0.15840 0.34160 0.88560 -0.65800
H 	H 	0.16740 0.33260 0.90860 0.25100
C 	C 	0.15840 0.84160 0.38560 -0.65800
H 	H 	0.16740 0.83260 0.40860 0.25100
C 	C 	0.15840 0.65840 0.11440 -0.65800
H 	H 	0.16740 0.66740 0.09140 0.25000
C 	C 	0.15840 0.15840 0.61440 -0.65800
H 	H 	0.16740 0.16740 0.59140 0.25000
C 	C 	0.84160 0.65840 0.88560 -0.65800
H 	H 	0.83260 0.66740 0.90860 0.25200
C 	C 	0.84160 0.15840 0.38560 -0.65800
H 	H 	0.83260 0.16740 0.40860 0.25100
C 	C 	0.34160 0.15840 0.88560 -0.65800
H 	H 	0.33260 0.16740 0.90860 0.25100
C 	C 	0.84160 0.34160 0.11440 -0.65800
H 	H 	0.83260 0.33260 0.09140 0.25000
C 	C 	0.84160 0.84160 0.61440 -0.65800
H 	H 	0.83260 0.83260 0.59140 0.25100
C 	C 	0.34160 0.34160 0.61440 -0.65800
H 	H 	0.33260 0.33260 0.59140 0.25100
C 	C 	0.88560 0.15840 0.34160 -0.65800
H 	H 	0.90860 0.16740 0.33260 0.25100
C 	C 	0.38560 0.15840 0.84160 -0.65800
H 	H 	0.40860 0.16740 0.83260 0.25100
C 	C 	0.11440 0.15840 0.65840 -0.65800
H 	H 	0.09140 0.16740 0.66740 0.25000
C 	C 	0.61440 0.15840 0.15840 -0.65800
H 	H 	0.59140 0.16740 0.16740 0.25000
C 	C 	0.88560 0.84160 0.65840 -0.65800
H 	H 	0.90860 0.83260 0.66740 0.25200
C 	C 	0.88560 0.34160 0.15840 -0.65800
H 	H 	0.90860 0.33260 0.16740 0.25100
C 	C 	0.38560 0.84160 0.15840 -0.65800
H 	H 	0.40860 0.83260 0.16740 0.25100
C 	C 	0.11440 0.84160 0.34160 -0.65800
H 	H 	0.09140 0.83260 0.33260 0.25000
C 	C 	0.61440 0.84160 0.84160 -0.65800
H 	H 	0.59140 0.83260 0.83260 0.25100
C 	C 	0.61440 0.34160 0.34160 -0.65800
H 	H 	0.59140 0.33260 0.33260 0.25100
C 	C 	0.88560 0.34160 0.84160 -0.65800
H 	H 	0.90860 0.33260 0.83260 0.25200
C 	C 	0.38560 0.34160 0.34160 -0.65800
H 	H 	0.40860 0.33260 0.33260 0.25100
C 	C 	0.11440 0.65840 0.84160 -0.65800
H 	H 	0.09140 0.66740 0.83260 0.25000
C 	C 	0.11440 0.15840 0.34160 -0.65800
H 	H 	0.09140 0.16740 0.33260 0.25000
C 	C 	0.61440 0.65840 0.34160 -0.65800
H 	H 	0.59140 0.66740 0.33260 0.25100
C 	C 	0.88560 0.65840 0.15840 -0.65800
H 	H 	0.90860 0.66740 0.16740 0.25100
C 	C 	0.38560 0.65840 0.65840 -0.65800
H 	H 	0.40860 0.66740 0.66740 0.25100
C 	C 	0.38560 0.15840 0.15840 -0.65800
H 	H 	0.40860 0.16740 0.16740 0.25000
C 	C 	0.11440 0.34160 0.15840 -0.65800
H 	H 	0.09140 0.33260 0.16740 0.25000
C 	C 	0.61440 0.34160 0.65840 -0.65800
H 	H 	0.59140 0.33260 0.66740 0.25100
C 	C 	0.34160 0.15840 0.11440 -0.65800
H 	H 	0.33260 0.16740 0.09140 0.25000
C 	C 	0.34160 0.65840 0.61440 -0.65800
H 	H 	0.33260 0.66740 0.59140 0.25100
C 	C 	0.65840 0.15840 0.88560 -0.65800
H 	H 	0.66740 0.16740 0.90860 0.25100
C 	C 	0.65840 0.65840 0.38560 -0.65800
H 	H 	0.66740 0.66740 0.40860 0.25100
C 	C 	0.15840 0.15840 0.38560 -0.65800
H 	H 	0.16740 0.16740 0.40860 0.25000
C 	C 	0.65840 0.84160 0.11440 -0.65800
H 	H 	0.66740 0.83260 0.09140 0.25000
C 	C 	0.65840 0.34160 0.61440 -0.65800
H 	H 	0.66740 0.33260 0.59140 0.25100
C 	C 	0.15840 0.34160 0.11440 -0.65800
H 	H 	0.16740 0.33260 0.09140 0.25000
C 	C 	0.34160 0.84160 0.88560 -0.65800
H 	H 	0.33260 0.83260 0.90860 0.25200
C 	C 	0.34160 0.34160 0.38560 -0.65800
H 	H 	0.33260 0.33260 0.40860 0.25100
C 	C 	0.15840 0.88560 0.65840 -0.65800
H 	H 	0.16740 0.90860 0.66740 0.25100
C 	C 	0.15840 0.38560 0.15840 -0.65800
H 	H 	0.16740 0.40860 0.16740 0.25000
C 	C 	0.15840 0.11440 0.34160 -0.65800
H 	H 	0.16740 0.09140 0.33260 0.25000
C 	C 	0.15840 0.61440 0.84160 -0.65800
H 	H 	0.16740 0.59140 0.83260 0.25100
C 	C 	0.84160 0.88560 0.34160 -0.65800
H 	H 	0.83260 0.90860 0.33260 0.25200
C 	C 	0.84160 0.38560 0.84160 -0.65800
H 	H 	0.83260 0.40860 0.83260 0.25100
C 	C 	0.34160 0.38560 0.34160 -0.65800
H 	H 	0.33260 0.40860 0.33260 0.25100
C 	C 	0.84160 0.11440 0.65840 -0.65800
H 	H 	0.83260 0.09140 0.66740 0.25000
C 	C 	0.84160 0.61440 0.15840 -0.65800
H 	H 	0.83260 0.59140 0.16740 0.25100
C 	C 	0.34160 0.11440 0.15840 -0.65800
H 	H 	0.33260 0.09140 0.16740 0.25000
C 	C 	0.65840 0.11440 0.84160 -0.65800
H 	H 	0.66740 0.09140 0.83260 0.25000
C 	C 	0.65840 0.61440 0.34160 -0.65800
H 	H 	0.66740 0.59140 0.33260 0.25100
C 	C 	0.34160 0.88560 0.84160 -0.65800
H 	H 	0.33260 0.90860 0.83260 0.25200
C 	C 	0.34160 0.61440 0.65840 -0.65800
H 	H 	0.33260 0.59140 0.66740 0.25100
C 	C 	0.65840 0.88560 0.15840 -0.65800
H 	H 	0.66740 0.90860 0.16740 0.25100
C 	C 	0.65840 0.38560 0.65840 -0.65800
H 	H 	0.66740 0.40860 0.66740 0.25100
C 	C 	0.84160 0.65840 0.11440 -0.65800
H 	H 	0.83260 0.66740 0.09140 0.25000
C 	C 	0.84160 0.15840 0.61440 -0.65800
H 	H 	0.83260 0.16740 0.59140 0.25100
C 	C 	0.84160 0.34160 0.88560 -0.65800
H 	H 	0.83260 0.33260 0.90860 0.25200
C 	C 	0.84160 0.84160 0.38560 -0.65800
H 	H 	0.83260 0.83260 0.40860 0.25100
C 	C 	0.15840 0.84160 0.61440 -0.65800
H 	H 	0.16740 0.83260 0.59140 0.25100
C 	C 	0.15840 0.65840 0.88560 -0.65800
H 	H 	0.16740 0.66740 0.90860 0.25100
C 	C 	0.11440 0.84160 0.65840 -0.65800
H 	H 	0.09140 0.83260 0.66740 0.25000
C 	C 	0.61440 0.84160 0.15840 -0.65800
H 	H 	0.59140 0.83260 0.16740 0.25100
C 	C 	0.88560 0.84160 0.34160 -0.65800
H 	H 	0.90860 0.83260 0.33260 0.25200
C 	C 	0.38560 0.84160 0.84160 -0.65800
H 	H 	0.40860 0.83260 0.83260 0.25100
C 	C 	0.61440 0.15840 0.84160 -0.65800
H 	H 	0.59140 0.16740 0.83260 0.25100
C 	C 	0.88560 0.15840 0.65840 -0.65800
H 	H 	0.90860 0.16740 0.66740 0.25100
C 	C 	0.11440 0.65840 0.15840 -0.65800
H 	H 	0.09140 0.66740 0.16740 0.25000
C 	C 	0.61440 0.65840 0.65840 -0.65800
H 	H 	0.59140 0.66740 0.66740 0.25100
C 	C 	0.38560 0.34160 0.65840 -0.65800
H 	H 	0.40860 0.33260 0.66740 0.25100
C 	C 	0.11440 0.34160 0.84160 -0.65800
H 	H 	0.09140 0.33260 0.83260 0.25000
C 	C 	0.88560 0.65840 0.84160 -0.65800
H 	H 	0.90860 0.66740 0.83260 0.25200
C 	C 	0.38560 0.65840 0.34160 -0.65800
H 	H 	0.40860 0.66740 0.33260 0.25100
C 	C 	0.65840 0.84160 0.88560 -0.65800
H 	H 	0.66740 0.83260 0.90860 0.25200
C 	C 	0.65840 0.34160 0.38560 -0.65800
H 	H 	0.66740 0.33260 0.40860 0.25100
C 	C 	0.34160 0.84160 0.11440 -0.65800
H 	H 	0.33260 0.83260 0.09140 0.25000
C 	C 	0.34160 0.65840 0.38560 -0.65800
H 	H 	0.33260 0.66740 0.40860 0.25100
C 	C 	0.65840 0.15840 0.11440 -0.65800
H 	H 	0.66740 0.16740 0.09140 0.25000
C 	C 	0.65840 0.65840 0.61440 -0.65800
H 	H 	0.66740 0.66740 0.59140 0.25100
C 	C 	0.84160 0.11440 0.34160 -0.65800
H 	H 	0.83260 0.09140 0.33260 0.25000
C 	C 	0.84160 0.61440 0.84160 -0.65800
H 	H 	0.83260 0.59140 0.83260 0.25100
C 	C 	0.84160 0.88560 0.65840 -0.65800
H 	H 	0.83260 0.90860 0.66740 0.25200
C 	C 	0.84160 0.38560 0.15840 -0.65800
H 	H 	0.83260 0.40860 0.16740 0.25100
C 	C 	0.15840 0.11440 0.65840 -0.65800
H 	H 	0.16740 0.09140 0.66740 0.25000
C 	C 	0.15840 0.38560 0.84160 -0.65800
H 	H 	0.16740 0.40860 0.83260 0.25100
O 	O 	0.25000 0.00000 0.25000 -2.09700
O 	O 	0.25000 0.50000 0.75000 -2.03500
O 	O 	0.75000 0.00000 0.25000 -2.09700
O 	O 	0.75000 0.50000 0.75000 -2.03500
O 	O 	0.25000 0.50000 0.25000 -2.03500
O 	O 	0.75000 0.00000 0.75000 -2.09700
O 	O 	0.75000 0.50000 0.25000 -2.03500
O 	O 	0.25000 0.00000 0.75000 -2.09700
O 	O 	0.25000 0.25000 -0.00000 -2.09700
O 	O 	0.25000 0.75000 0.50000 -2.03500
O 	O 	0.25000 0.75000 -0.00000 -2.09700
O 	O 	0.25000 0.25000 0.50000 -2.03500
O 	O 	0.75000 0.75000 -0.00000 -2.09700
O 	O 	0.75000 0.25000 0.50000 -2.03500
O 	O 	0.75000 0.25000 -0.00000 -2.09700
O 	O 	0.75000 0.75000 0.50000 -2.03500
O 	O 	-0.00000 0.25000 0.25000 -2.09700
O 	O 	0.50000 0.25000 0.75000 -2.03500
O 	O 	0.00000 0.25000 0.75000 -2.09700
O 	O 	0.50000 0.25000 0.25000 -2.03500
O 	O 	0.00000 0.75000 0.75000 -2.09700
O 	O 	0.50000 0.75000 0.25000 -2.03500
O 	O 	-0.00000 0.75000 0.25000 -2.09700
O 	O 	0.50000 0.75000 0.75000 -2.03500
