data_crystal

_cell_length_a 19.30640
_cell_length_b 17.45200
_cell_length_c 24.00430
_cell_angle_alpha 90.00000
_cell_angle_beta  90.00000
_cell_angle_gamma 90.00000

_symmetry_space_group_name_	'P 1'
_symmetry_space_group_name_H-M	'P 1'

loop_
_symmetry_equiv_pos_as_xyz
  x,y,z

loop_
_atom_site_label
_atom_site_type_symbol
_atom_site_fract_x
_atom_site_fract_y
_atom_site_fract_z
_atom_site_charge
C 	C 	0.52090 0.66270 0.32860 -0.03100
H 	H 	0.53300 0.64640 0.36610 0.02500
C 	C 	0.53760 0.61350 0.28510 -0.02900
H 	H 	0.55400 0.56200 0.29180 0.03300
C 	C 	0.53520 0.63940 0.23040 -0.03000
H 	H 	0.54140 0.60460 0.19950 0.03700
C 	C 	0.51590 0.71460 0.21910 -0.01400
H 	H 	0.50560 0.73100 0.18160 0.02100
C 	C 	0.63740 0.72220 0.57090 0.41700
C 	C 	0.69120 0.78220 0.57050 -0.12100
C 	C 	0.75930 0.75860 0.56820 -0.01500
H 	H 	0.76860 0.70630 0.56790 0.04800
C 	C 	0.67890 0.86160 0.56980 0.06200
C 	C 	0.60680 0.89660 0.55460 -0.01600
H 	H 	0.56930 0.86570 0.54530 0.04500
C 	C 	0.60120 0.97710 0.55550 0.00300
H 	H 	0.55730 0.99850 0.55900 0.03200
C 	C 	0.81500 0.80970 0.56630 0.01400
H 	H 	0.86020 0.79160 0.56410 0.00800
C 	C 	0.73520 0.91520 0.56970 0.04100
C 	C 	0.71920 0.99980 0.55450 -0.03100
H 	H 	0.75570 0.03320 0.54750 0.02400
C 	C 	0.65610 0.02480 0.55140 -0.06400
H 	H 	0.64840 0.07700 0.54630 0.05100
C 	C 	0.80220 0.88670 0.56770 -0.14900
C 	C 	0.86470 0.93940 0.56840 0.48600
O 	O 	0.65400 0.65860 0.59080 -0.48200
O 	O 	0.57910 0.73790 0.55290 -0.51600
O 	O 	0.91070 0.93040 0.53360 -0.77500
O 	O 	0.86550 0.98880 0.60650 -0.54700
O 	O 	0.44460 0.89570 0.17920 -0.52000
Zn	Zn	0.58104 0.58078 0.60036 1.20900
C 	C 	0.61330 0.89180 0.58350 -0.08000
H 	H 	0.57470 0.85990 0.58290 0.05800
C 	C 	0.60560 0.96350 0.59710 -0.01200
H 	H 	0.56360 0.97920 0.61220 0.02600
C 	C 	0.72100 0.99330 0.58160 0.00200
H 	H 	0.75760 0.02790 0.58340 0.03200
C 	C 	0.65780 0.01790 0.59010 -0.02200
H 	H 	0.64800 0.07000 0.59130 0.03600
C 	C 	0.02090 0.16270 0.32860 -0.87400
H 	H 	0.03300 0.14640 0.36610 0.29600
C 	C 	0.03760 0.11350 0.28510 0.23900
H 	H 	0.05400 0.06200 0.29180 -0.03900
C 	C 	0.03520 0.13940 0.23040 0.43100
H 	H 	0.04140 0.10460 0.19950 -0.07700
C 	C 	0.01590 0.21460 0.21910 -1.05900
H 	H 	0.00560 0.23100 0.18160 -0.39700
C 	C 	0.13740 0.22220 0.57090 0.41800
C 	C 	0.19120 0.28220 0.57050 -0.11300
C 	C 	0.25930 0.25860 0.56820 -0.01100
H 	H 	0.26860 0.20630 0.56790 0.05200
C 	C 	0.17890 0.36160 0.56980 0.05700
C 	C 	0.10680 0.39660 0.55460 -0.01300
H 	H 	0.06930 0.36570 0.54530 0.05100
C 	C 	0.10120 0.47710 0.55550 -0.03700
H 	H 	0.05730 0.49850 0.55900 0.05600
C 	C 	0.31500 0.30970 0.56630 0.01300
H 	H 	0.36020 0.29160 0.56410 0.02600
C 	C 	0.23520 0.41520 0.56970 0.05500
C 	C 	0.21920 0.49980 0.55450 -0.04400
H 	H 	0.25570 0.53320 0.54750 0.02900
C 	C 	0.15610 0.52480 0.55140 -0.03800
H 	H 	0.14840 0.57700 0.54630 0.04400
C 	C 	0.30220 0.38670 0.56770 -0.14500
C 	C 	0.36470 0.43940 0.56840 0.47700
O 	O 	0.15400 0.15860 0.59080 -0.47100
O 	O 	0.07910 0.23790 0.55290 -0.49900
O 	O 	0.41070 0.43040 0.53360 -0.73800
O 	O 	0.36550 0.48880 0.60650 -0.53600
O 	O 	0.94460 0.39570 0.17920 -0.65000
Zn	Zn	0.08104 0.08078 0.60036 1.21300
C 	C 	0.11330 0.39180 0.58350 -0.07100
H 	H 	0.07470 0.35990 0.58290 0.07300
C 	C 	0.10560 0.46350 0.59710 -0.00500
H 	H 	0.06360 0.47920 0.61220 0.03700
C 	C 	0.22100 0.49330 0.58160 -0.03100
H 	H 	0.25760 0.52790 0.58340 0.05100
C 	C 	0.15780 0.51790 0.59010 0.00500
H 	H 	0.14800 0.57000 0.59130 0.03000
C 	C 	0.47910 0.83730 0.82860 -0.04300
H 	H 	0.46700 0.85360 0.86610 0.02800
C 	C 	0.46240 0.88650 0.78510 -0.02600
H 	H 	0.44600 0.93800 0.79180 0.03500
C 	C 	0.46480 0.86060 0.73040 -0.02200
H 	H 	0.45860 0.89540 0.69950 0.03600
C 	C 	0.48410 0.78540 0.71910 -0.02700
H 	H 	0.49440 0.76900 0.68160 0.01600
C 	C 	0.36260 0.77780 0.07090 0.41400
C 	C 	0.30880 0.71780 0.07050 -0.12100
C 	C 	0.24070 0.74140 0.06820 -0.01100
H 	H 	0.23140 0.79370 0.06790 0.05000
C 	C 	0.32110 0.63840 0.06980 0.05300
C 	C 	0.39320 0.60340 0.05460 -0.00800
H 	H 	0.43070 0.63430 0.04530 0.03600
C 	C 	0.39880 0.52290 0.05550 -0.02600
H 	H 	0.44270 0.50150 0.05900 0.03500
C 	C 	0.18500 0.69030 0.06630 0.01100
H 	H 	0.13980 0.70840 0.06410 0.02500
C 	C 	0.26480 0.58480 0.06970 0.05000
C 	C 	0.28080 0.50020 0.05450 -0.05700
H 	H 	0.24430 0.46680 0.04750 0.02800
C 	C 	0.34390 0.47520 0.05140 -0.06200
H 	H 	0.35160 0.42300 0.04630 0.04700
C 	C 	0.19780 0.61330 0.06770 -0.14500
C 	C 	0.13530 0.56060 0.06840 0.47400
O 	O 	0.34600 0.84140 0.09080 -0.48000
O 	O 	0.42090 0.76210 0.05290 -0.52100
O 	O 	0.08930 0.56960 0.03360 -0.74400
O 	O 	0.13450 0.51120 0.10650 -0.52900
O 	O 	0.55540 0.60430 0.67920 -0.52600
Zn	Zn	0.41896 0.91922 0.10036 1.21000
C 	C 	0.38670 0.60820 0.08350 -0.08000
H 	H 	0.42530 0.64010 0.08290 0.05900
C 	C 	0.39440 0.53650 0.09710 -0.01700
H 	H 	0.43640 0.52080 0.11220 0.02600
C 	C 	0.27900 0.50670 0.08160 -0.01900
H 	H 	0.24240 0.47210 0.08340 0.04800
C 	C 	0.34220 0.48210 0.09010 0.02300
H 	H 	0.35200 0.43000 0.09130 0.02300
C 	C 	0.97910 0.33730 0.82860 0.78100
H 	H 	0.96700 0.35360 0.86610 -0.25600
C 	C 	0.96240 0.38650 0.78510 -0.30500
H 	H 	0.94600 0.43800 0.79180 0.09800
C 	C 	0.96480 0.36060 0.73040 -0.47100
H 	H 	0.95860 0.39540 0.69950 0.13700
C 	C 	0.98410 0.28540 0.71910 0.96300
H 	H 	0.99440 0.26900 0.68160 0.44900
C 	C 	0.86260 0.27780 0.07090 0.41500
C 	C 	0.80880 0.21780 0.07050 -0.12600
C 	C 	0.74070 0.24140 0.06820 -0.01500
H 	H 	0.73140 0.29370 0.06790 0.04800
C 	C 	0.82110 0.13840 0.06980 0.03900
C 	C 	0.89320 0.10340 0.05460 -0.01800
H 	H 	0.93070 0.13430 0.04530 0.02200
C 	C 	0.89880 0.02290 0.05550 -0.02900
H 	H 	0.94270 0.00150 0.05900 0.00800
C 	C 	0.68500 0.19030 0.06630 0.01200
H 	H 	0.63980 0.20840 0.06410 0.02300
C 	C 	0.76480 0.08480 0.06970 0.06000
C 	C 	0.78080 0.00020 0.05450 -0.07500
H 	H 	0.74430 0.96680 0.04750 0.03700
C 	C 	0.84390 0.97520 0.05140 -0.04000
H 	H 	0.85160 0.92300 0.04630 0.03300
C 	C 	0.69780 0.11330 0.06770 -0.15500
C 	C 	0.63530 0.06060 0.06840 0.47900
O 	O 	0.84600 0.34140 0.09080 -0.49500
O 	O 	0.92090 0.26210 0.05290 -0.56300
O 	O 	0.58930 0.06960 0.03360 -0.74800
O 	O 	0.63450 0.01120 0.10650 -0.54500
O 	O 	0.05540 0.10430 0.67920 -0.54400
Zn	Zn	0.91896 0.41922 0.10036 1.19500
C 	C 	0.88670 0.10820 0.08350 -0.06300
H 	H 	0.92530 0.14010 0.08290 0.03700
C 	C 	0.89440 0.03650 0.09710 -0.03500
H 	H 	0.93640 0.02080 0.11220 0.00300
C 	C 	0.77900 0.00670 0.08160 -0.03500
H 	H 	0.74240 0.97210 0.08340 0.05500
C 	C 	0.84220 0.98210 0.09010 0.03100
H 	H 	0.85200 0.93000 0.09130 0.00600
C 	C 	0.47910 0.16270 0.17140 -0.04400
H 	H 	0.46700 0.14640 0.13390 0.02800
C 	C 	0.46240 0.11350 0.21490 -0.02500
H 	H 	0.44600 0.06200 0.20820 0.03000
C 	C 	0.46480 0.13940 0.26960 -0.02300
H 	H 	0.45860 0.10460 0.30050 0.03400
C 	C 	0.48410 0.21460 0.28090 -0.02700
H 	H 	0.49440 0.23100 0.31840 0.01600
C 	C 	0.36260 0.22220 0.92910 0.41700
C 	C 	0.30880 0.28220 0.92950 -0.11600
C 	C 	0.24070 0.25860 0.93180 -0.00500
H 	H 	0.23140 0.20630 0.93210 0.05300
C 	C 	0.32110 0.36160 0.93020 0.05800
C 	C 	0.39320 0.39660 0.94540 -0.01000
H 	H 	0.43070 0.36570 0.95470 0.04600
C 	C 	0.39880 0.47710 0.94450 -0.00800
H 	H 	0.44270 0.49850 0.94100 0.03500
C 	C 	0.18500 0.30970 0.93370 0.01300
H 	H 	0.13980 0.29160 0.93590 0.03100
C 	C 	0.26480 0.41520 0.93030 0.05400
C 	C 	0.28080 0.49980 0.94550 -0.05300
H 	H 	0.24430 0.53320 0.95250 0.03800
C 	C 	0.34390 0.52480 0.94860 -0.04400
H 	H 	0.35160 0.57700 0.95370 0.05100
C 	C 	0.19780 0.38670 0.93230 -0.13800
C 	C 	0.13530 0.43940 0.93160 0.47300
O 	O 	0.34600 0.15860 0.90920 -0.47700
O 	O 	0.42090 0.23790 0.94710 -0.51100
O 	O 	0.08930 0.43040 0.96640 -0.72600
O 	O 	0.13450 0.48880 0.89350 -0.52700
O 	O 	0.55540 0.39570 0.32080 -0.52600
Zn	Zn	0.41896 0.08078 0.89964 1.20800
C 	C 	0.38670 0.39180 0.91650 -0.07300
H 	H 	0.42530 0.35990 0.91710 0.05500
C 	C 	0.39440 0.46350 0.90290 -0.02800
H 	H 	0.43640 0.47920 0.88780 0.03000
C 	C 	0.27900 0.49330 0.91840 -0.01600
H 	H 	0.24240 0.52790 0.91660 0.04600
C 	C 	0.34220 0.51790 0.90990 0.00600
H 	H 	0.35200 0.57000 0.90870 0.02800
C 	C 	0.97910 0.66270 0.17140 0.78000
H 	H 	0.96700 0.64640 0.13390 -0.25500
C 	C 	0.96240 0.61350 0.21490 -0.30400
H 	H 	0.94600 0.56200 0.20820 0.09700
C 	C 	0.96480 0.63940 0.26960 -0.47300
H 	H 	0.95860 0.60460 0.30050 0.13800
C 	C 	0.98410 0.71460 0.28090 0.96600
H 	H 	0.99440 0.73100 0.31840 0.45000
C 	C 	0.86260 0.72220 0.92910 0.42300
C 	C 	0.80880 0.78220 0.92950 -0.13400
C 	C 	0.74070 0.75860 0.93180 0.00400
H 	H 	0.73140 0.70630 0.93210 0.04800
C 	C 	0.82110 0.86160 0.93020 0.06600
C 	C 	0.89320 0.89660 0.94540 -0.02600
H 	H 	0.93070 0.86570 0.95470 0.03400
C 	C 	0.89880 0.97710 0.94450 0.03000
H 	H 	0.94270 0.99850 0.94100 -0.00100
C 	C 	0.68500 0.80970 0.93370 -0.00100
H 	H 	0.63980 0.79160 0.93590 0.03400
C 	C 	0.76480 0.91520 0.93030 0.03200
C 	C 	0.78080 0.99980 0.94550 -0.03100
H 	H 	0.74430 0.03320 0.95250 0.02800
C 	C 	0.84390 0.02480 0.94860 -0.06600
H 	H 	0.85160 0.07700 0.95370 0.04900
C 	C 	0.69780 0.88670 0.93230 -0.12800
C 	C 	0.63530 0.93940 0.93160 0.47200
O 	O 	0.84600 0.65860 0.90920 -0.49200
O 	O 	0.92090 0.73790 0.94710 -0.55500
O 	O 	0.58930 0.93040 0.96640 -0.72400
O 	O 	0.63450 0.98880 0.89350 -0.53000
O 	O 	0.05540 0.89570 0.32080 -0.53800
Zn	Zn	0.91896 0.58078 0.89964 1.19600
C 	C 	0.88670 0.89180 0.91650 -0.07600
H 	H 	0.92530 0.85990 0.91710 0.04000
C 	C 	0.89440 0.96350 0.90290 -0.02800
H 	H 	0.93640 0.97920 0.88780 0.00500
C 	C 	0.77900 0.99330 0.91840 0.01400
H 	H 	0.74240 0.02790 0.91660 0.02500
C 	C 	0.84220 0.01790 0.90990 -0.03400
H 	H 	0.85200 0.07000 0.90870 0.02800
C 	C 	0.52090 0.33730 0.67140 -0.03100
H 	H 	0.53300 0.35360 0.63390 0.02400
C 	C 	0.53760 0.38650 0.71490 -0.03000
H 	H 	0.55400 0.43800 0.70820 0.03200
C 	C 	0.53520 0.36060 0.76960 -0.03100
H 	H 	0.54140 0.39540 0.80050 0.03600
C 	C 	0.51590 0.28540 0.78090 -0.01500
H 	H 	0.50560 0.26900 0.81840 0.02000
C 	C 	0.63740 0.27780 0.42910 0.41100
C 	C 	0.69120 0.21780 0.42950 -0.10900
C 	C 	0.75930 0.24140 0.43180 -0.03000
H 	H 	0.76860 0.29370 0.43210 0.05200
C 	C 	0.67890 0.13840 0.43020 0.03800
C 	C 	0.60680 0.10340 0.44540 -0.01100
H 	H 	0.56930 0.13430 0.45470 0.04200
C 	C 	0.60120 0.02290 0.44450 -0.04200
H 	H 	0.55730 0.00150 0.44100 0.04100
C 	C 	0.81500 0.19030 0.43370 0.02900
H 	H 	0.86020 0.20840 0.43590 0.00200
C 	C 	0.73520 0.08480 0.43030 0.07300
C 	C 	0.71920 0.00020 0.44550 -0.07500
H 	H 	0.75570 0.96680 0.45250 0.04200
C 	C 	0.65610 0.97520 0.44860 -0.02000
H 	H 	0.64840 0.92300 0.45370 0.03900
C 	C 	0.80220 0.11330 0.43230 -0.16900
C 	C 	0.86470 0.06060 0.43160 0.49200
O 	O 	0.65400 0.34140 0.40920 -0.48100
O 	O 	0.57910 0.26210 0.44710 -0.51500
O 	O 	0.91070 0.06960 0.46640 -0.78100
O 	O 	0.86550 0.01120 0.39350 -0.55900
O 	O 	0.44460 0.10430 0.82080 -0.52600
Zn	Zn	0.58104 0.41922 0.39964 1.20900
C 	C 	0.61330 0.10820 0.41650 -0.06000
H 	H 	0.57470 0.14010 0.41710 0.05100
C 	C 	0.60560 0.03650 0.40290 -0.03000
H 	H 	0.56360 0.02080 0.38780 0.02800
C 	C 	0.72100 0.00670 0.41840 -0.04600
H 	H 	0.75760 0.97210 0.41660 0.06000
C 	C 	0.65780 0.98210 0.40990 0.02900
H 	H 	0.64800 0.93000 0.40870 0.01800
C 	C 	0.02090 0.83730 0.67140 -0.89000
H 	H 	0.03300 0.85360 0.63390 0.30100
C 	C 	0.03760 0.88650 0.71490 0.24400
H 	H 	0.05400 0.93800 0.70820 -0.03600
C 	C 	0.03520 0.86060 0.76960 0.44100
H 	H 	0.04140 0.89540 0.80050 -0.07700
C 	C 	0.01590 0.78540 0.78090 -1.07900
H 	H 	0.00560 0.76900 0.81840 -0.40600
C 	C 	0.13740 0.77780 0.42910 0.41700
C 	C 	0.19120 0.71780 0.42950 -0.11200
C 	C 	0.25930 0.74140 0.43180 -0.01200
H 	H 	0.26860 0.79370 0.43210 0.05200
C 	C 	0.17890 0.63840 0.43020 0.05700
C 	C 	0.10680 0.60340 0.44540 -0.01400
H 	H 	0.06930 0.63430 0.45470 0.05100
C 	C 	0.10120 0.52290 0.44450 -0.03700
H 	H 	0.05730 0.50150 0.44100 0.05700
C 	C 	0.31500 0.69030 0.43370 0.01400
H 	H 	0.36020 0.70840 0.43590 0.02600
C 	C 	0.23520 0.58480 0.43030 0.05500
C 	C 	0.21920 0.50020 0.44550 -0.04300
H 	H 	0.25570 0.46680 0.45250 0.02900
C 	C 	0.15610 0.47520 0.44860 -0.03700
H 	H 	0.14840 0.42300 0.45370 0.04400
C 	C 	0.30220 0.61330 0.43230 -0.14500
C 	C 	0.36470 0.56060 0.43160 0.47700
O 	O 	0.15400 0.84140 0.40920 -0.47000
O 	O 	0.07910 0.76210 0.44710 -0.49900
O 	O 	0.41070 0.56960 0.46640 -0.73800
O 	O 	0.36550 0.51120 0.39350 -0.53600
O 	O 	0.94460 0.60430 0.82080 -0.65200
Zn	Zn	0.08104 0.91922 0.39964 1.21700
C 	C 	0.11330 0.60820 0.41650 -0.07100
H 	H 	0.07470 0.64010 0.41710 0.07300
C 	C 	0.10560 0.53650 0.40290 -0.00400
H 	H 	0.06360 0.52080 0.38780 0.03700
C 	C 	0.22100 0.50670 0.41840 -0.03100
H 	H 	0.25760 0.47210 0.41660 0.05100
C 	C 	0.15780 0.48210 0.40990 0.00400
H 	H 	0.14800 0.43000 0.40870 0.03000
C 	C 	0.47910 0.33730 0.67140 -0.04300
H 	H 	0.46700 0.35360 0.63390 0.02800
C 	C 	0.46240 0.38650 0.71490 -0.02500
H 	H 	0.44600 0.43800 0.70820 0.03200
C 	C 	0.46480 0.36060 0.76960 -0.02300
H 	H 	0.45860 0.39540 0.80050 0.03500
C 	C 	0.48410 0.28540 0.78090 -0.02700
H 	H 	0.49440 0.26900 0.81840 0.01600
C 	C 	0.36260 0.27780 0.42910 0.41300
C 	C 	0.30880 0.21780 0.42950 -0.11100
C 	C 	0.24070 0.24140 0.43180 -0.01600
H 	H 	0.23140 0.29370 0.43210 0.05400
C 	C 	0.32110 0.13840 0.43020 0.04300
C 	C 	0.39320 0.10340 0.44540 -0.00600
H 	H 	0.43070 0.13430 0.45470 0.04000
C 	C 	0.39880 0.02290 0.44450 -0.04000
H 	H 	0.44270 0.00150 0.44100 0.04000
C 	C 	0.18500 0.19030 0.43370 0.02100
H 	H 	0.13980 0.20840 0.43590 0.02500
C 	C 	0.26480 0.08480 0.43030 0.06900
C 	C 	0.28080 0.00020 0.44550 -0.07700
H 	H 	0.24430 0.96680 0.45250 0.04300
C 	C 	0.34390 0.97520 0.44860 -0.02900
H 	H 	0.35160 0.92300 0.45370 0.04300
C 	C 	0.19780 0.11330 0.43230 -0.15200
C 	C 	0.13530 0.06060 0.43160 0.47700
O 	O 	0.34600 0.34140 0.40920 -0.47700
O 	O 	0.42090 0.26210 0.44710 -0.51500
O 	O 	0.08930 0.06960 0.46640 -0.73900
O 	O 	0.13450 0.01120 0.39350 -0.53500
O 	O 	0.55540 0.10430 0.82080 -0.52900
Zn	Zn	0.41896 0.41922 0.39964 1.21000
C 	C 	0.38670 0.10820 0.41650 -0.06500
H 	H 	0.42530 0.14010 0.41710 0.05300
C 	C 	0.39440 0.03650 0.40290 -0.03200
H 	H 	0.43640 0.02080 0.38780 0.02900
C 	C 	0.27900 0.00670 0.41840 -0.04300
H 	H 	0.24240 0.97210 0.41660 0.06200
C 	C 	0.34220 0.98210 0.40990 0.04100
H 	H 	0.35200 0.93000 0.40870 0.01600
C 	C 	0.97910 0.83730 0.67140 0.78600
H 	H 	0.96700 0.85360 0.63390 -0.25800
C 	C 	0.96240 0.88650 0.71490 -0.30700
H 	H 	0.94600 0.93800 0.70820 0.10000
C 	C 	0.96480 0.86060 0.76960 -0.47500
H 	H 	0.95860 0.89540 0.80050 0.14000
C 	C 	0.98410 0.78540 0.78090 0.97100
H 	H 	0.99440 0.76900 0.81840 0.45200
C 	C 	0.86260 0.77780 0.42910 0.41800
C 	C 	0.80880 0.71780 0.42950 -0.12900
C 	C 	0.74070 0.74140 0.43180 -0.00700
H 	H 	0.73140 0.79370 0.43210 0.04900
C 	C 	0.82110 0.63840 0.43020 0.04900
C 	C 	0.89320 0.60340 0.44540 -0.02100
H 	H 	0.93070 0.63430 0.45470 0.02700
C 	C 	0.89880 0.52290 0.44450 -0.00500
H 	H 	0.94270 0.50150 0.44100 0.00400
C 	C 	0.68500 0.69030 0.43370 0.00700
H 	H 	0.63980 0.70840 0.43590 0.02800
C 	C 	0.76480 0.58480 0.43030 0.05000
C 	C 	0.78080 0.50020 0.44550 -0.05600
H 	H 	0.74430 0.46680 0.45250 0.03400
C 	C 	0.84390 0.47520 0.44860 -0.04800
H 	H 	0.85160 0.42300 0.45370 0.04000
C 	C 	0.69780 0.61330 0.43230 -0.14400
C 	C 	0.63530 0.56060 0.43160 0.47700
O 	O 	0.84600 0.84140 0.40920 -0.49300
O 	O 	0.92090 0.76210 0.44710 -0.56000
O 	O 	0.58930 0.56960 0.46640 -0.73700
O 	O 	0.63450 0.51120 0.39350 -0.53900
O 	O 	0.05540 0.60430 0.82080 -0.54100
Zn	Zn	0.91896 0.91922 0.39964 1.19700
C 	C 	0.88670 0.60820 0.41650 -0.06700
H 	H 	0.92530 0.64010 0.41710 0.03700
C 	C 	0.89440 0.53650 0.40290 -0.03300
H 	H 	0.93640 0.52080 0.38780 0.00300
C 	C 	0.77900 0.50670 0.41840 -0.01700
H 	H 	0.74240 0.47210 0.41660 0.04300
C 	C 	0.84220 0.48210 0.40990 0.00400
H 	H 	0.85200 0.43000 0.40870 0.01500
C 	C 	0.52090 0.16270 0.17140 -0.03200
H 	H 	0.53300 0.14640 0.13390 0.02400
C 	C 	0.53760 0.11350 0.21490 -0.03000
H 	H 	0.55400 0.06200 0.20820 0.03000
C 	C 	0.53520 0.13940 0.26960 -0.03200
H 	H 	0.54140 0.10460 0.30050 0.03500
C 	C 	0.51590 0.21460 0.28090 -0.01500
H 	H 	0.50560 0.23100 0.31840 0.01900
C 	C 	0.63740 0.22220 0.92910 0.41500
C 	C 	0.69120 0.28220 0.92950 -0.11300
C 	C 	0.75930 0.25860 0.93180 -0.02000
H 	H 	0.76860 0.20630 0.93210 0.05100
C 	C 	0.67890 0.36160 0.93020 0.05100
C 	C 	0.60680 0.39660 0.94540 -0.01500
H 	H 	0.56930 0.36570 0.95470 0.04800
C 	C 	0.60120 0.47710 0.94450 -0.01100
H 	H 	0.55730 0.49850 0.94100 0.03600
C 	C 	0.81500 0.30970 0.93370 0.02200
H 	H 	0.86020 0.29160 0.93590 0.00700
C 	C 	0.73520 0.41520 0.93030 0.05900
C 	C 	0.71920 0.49980 0.94550 -0.05300
H 	H 	0.75570 0.53320 0.95250 0.03800
C 	C 	0.65610 0.52480 0.94860 -0.03300
H 	H 	0.64840 0.57700 0.95370 0.04700
C 	C 	0.80220 0.38670 0.93230 -0.15600
C 	C 	0.86470 0.43940 0.93160 0.48900
O 	O 	0.65400 0.15860 0.90920 -0.48000
O 	O 	0.57910 0.23790 0.94710 -0.51100
O 	O 	0.91070 0.43040 0.96640 -0.76900
O 	O 	0.86550 0.48880 0.89350 -0.55300
O 	O 	0.44460 0.39570 0.32080 -0.52300
Zn	Zn	0.58104 0.08078 0.89964 1.20800
C 	C 	0.61330 0.39180 0.91650 -0.06700
H 	H 	0.57470 0.35990 0.91710 0.05300
C 	C 	0.60560 0.46350 0.90290 -0.02700
H 	H 	0.56360 0.47920 0.88780 0.02900
C 	C 	0.72100 0.49330 0.91840 -0.02000
H 	H 	0.75760 0.52790 0.91660 0.04500
C 	C 	0.65780 0.51790 0.90990 -0.00300
H 	H 	0.64800 0.57000 0.90870 0.02900
C 	C 	0.02090 0.66270 0.17140 -0.88500
H 	H 	0.03300 0.64640 0.13390 0.29900
C 	C 	0.03760 0.61350 0.21490 0.24200
H 	H 	0.05400 0.56200 0.20820 -0.03800
C 	C 	0.03520 0.63940 0.26960 0.43800
H 	H 	0.04140 0.60460 0.30050 -0.07700
C 	C 	0.01590 0.71460 0.28090 -1.07300
H 	H 	0.00560 0.73100 0.31840 -0.40400
C 	C 	0.13740 0.72220 0.92910 0.42300
C 	C 	0.19120 0.78220 0.92950 -0.11800
C 	C 	0.25930 0.75860 0.93180 0.00100
H 	H 	0.26860 0.70630 0.93210 0.05100
C 	C 	0.17890 0.86160 0.93020 0.07400
C 	C 	0.10680 0.89660 0.94540 -0.01900
H 	H 	0.06930 0.86570 0.95470 0.05700
C 	C 	0.10120 0.97710 0.94450 0.00000
H 	H 	0.05730 0.99850 0.94100 0.05000
C 	C 	0.31500 0.80970 0.93370 0.00400
H 	H 	0.36020 0.79160 0.93590 0.03300
C 	C 	0.23520 0.91520 0.93030 0.03600
C 	C 	0.21920 0.99980 0.94550 -0.01500
H 	H 	0.25570 0.03320 0.95250 0.02100
C 	C 	0.15610 0.02480 0.94860 -0.05700
H 	H 	0.14840 0.07700 0.95370 0.05300
C 	C 	0.30220 0.88670 0.93230 -0.12800
C 	C 	0.36470 0.93940 0.93160 0.47200
O 	O 	0.15400 0.65860 0.90920 -0.46900
O 	O 	0.07910 0.73790 0.94710 -0.49500
O 	O 	0.41070 0.93040 0.96640 -0.72400
O 	O 	0.36550 0.98880 0.89350 -0.52700
O 	O 	0.94460 0.89570 0.32080 -0.64800
Zn	Zn	0.08104 0.58078 0.89964 1.21600
C 	C 	0.11330 0.89180 0.91650 -0.08100
H 	H 	0.07470 0.85990 0.91710 0.07600
C 	C 	0.10560 0.96350 0.90290 0.00200
H 	H 	0.06360 0.97920 0.88780 0.03800
C 	C 	0.22100 0.99330 0.91840 0.00200
H 	H 	0.25760 0.02790 0.91660 0.03200
C 	C 	0.15780 0.01790 0.90990 -0.03700
H 	H 	0.14800 0.07000 0.90870 0.04400
C 	C 	0.52090 0.83730 0.82860 -0.03100
H 	H 	0.53300 0.85360 0.86610 0.02400
C 	C 	0.53760 0.88650 0.78510 -0.03100
H 	H 	0.55400 0.93800 0.79180 0.03400
C 	C 	0.53520 0.86060 0.73040 -0.03100
H 	H 	0.54140 0.89540 0.69950 0.03700
C 	C 	0.51590 0.78540 0.71910 -0.01500
H 	H 	0.50560 0.76900 0.68160 0.02000
C 	C 	0.63740 0.77780 0.07090 0.41200
C 	C 	0.69120 0.71780 0.07050 -0.11700
C 	C 	0.75930 0.74140 0.06820 -0.02600
H 	H 	0.76860 0.79370 0.06790 0.04800
C 	C 	0.67890 0.63840 0.06980 0.04700
C 	C 	0.60680 0.60340 0.05460 -0.01300
H 	H 	0.56930 0.63430 0.04530 0.03800
C 	C 	0.60120 0.52290 0.05550 -0.02900
H 	H 	0.55730 0.50150 0.05900 0.03600
C 	C 	0.81500 0.69030 0.06630 0.02000
H 	H 	0.86020 0.70840 0.06410 0.00200
C 	C 	0.73520 0.58480 0.06970 0.05500
C 	C 	0.71920 0.50020 0.05450 -0.05600
H 	H 	0.75570 0.46680 0.04750 0.02900
C 	C 	0.65610 0.47520 0.05140 -0.05100
H 	H 	0.64840 0.42300 0.04630 0.04300
C 	C 	0.80220 0.61330 0.06770 -0.16300
C 	C 	0.86470 0.56060 0.06840 0.49000
O 	O 	0.65400 0.84140 0.09080 -0.48300
O 	O 	0.57910 0.76210 0.05290 -0.52100
O 	O 	0.91070 0.56960 0.03360 -0.78700
O 	O 	0.86550 0.51120 0.10650 -0.55500
O 	O 	0.44460 0.60430 0.67920 -0.52300
Zn	Zn	0.58104 0.91922 0.10036 1.21000
C 	C 	0.61330 0.60820 0.08350 -0.07300
H 	H 	0.57470 0.64010 0.08290 0.05600
C 	C 	0.60560 0.53650 0.09710 -0.01700
H 	H 	0.56360 0.52080 0.11220 0.02500
C 	C 	0.72100 0.50670 0.08160 -0.02400
H 	H 	0.75760 0.47210 0.08340 0.04700
C 	C 	0.65780 0.48210 0.09010 0.01300
H 	H 	0.64800 0.43000 0.09130 0.02400
C 	C 	0.02090 0.33730 0.82860 -0.88300
H 	H 	0.03300 0.35360 0.86610 0.29900
C 	C 	0.03760 0.38650 0.78510 0.24200
H 	H 	0.05400 0.43800 0.79180 -0.03800
C 	C 	0.03520 0.36060 0.73040 0.43700
H 	H 	0.04140 0.39540 0.69950 -0.07700
C 	C 	0.01590 0.28540 0.71910 -1.07200
H 	H 	0.00560 0.26900 0.68160 -0.40200
C 	C 	0.13740 0.27780 0.07090 0.41400
C 	C 	0.19120 0.21780 0.07050 -0.10900
C 	C 	0.25930 0.24140 0.06820 -0.02000
H 	H 	0.26860 0.29370 0.06790 0.05200
C 	C 	0.17890 0.13840 0.06980 0.04400
C 	C 	0.10680 0.10340 0.05460 -0.01000
H 	H 	0.06930 0.13430 0.04530 0.04500
C 	C 	0.10120 0.02290 0.05550 -0.06500
H 	H 	0.05730 0.00150 0.05900 0.05900
C 	C 	0.31500 0.19030 0.06630 0.01900
H 	H 	0.36020 0.20840 0.06410 0.02100
C 	C 	0.23520 0.08480 0.06970 0.06700
C 	C 	0.21920 0.00020 0.05450 -0.06500
H 	H 	0.25570 0.96680 0.04750 0.03200
C 	C 	0.15610 0.97520 0.05140 -0.02700
H 	H 	0.14840 0.92300 0.04630 0.03700
C 	C 	0.30220 0.11330 0.06770 -0.15700
C 	C 	0.36470 0.06060 0.06840 0.48000
O 	O 	0.15400 0.34140 0.09080 -0.47200
O 	O 	0.07910 0.26210 0.05290 -0.50400
O 	O 	0.41070 0.06960 0.03360 -0.74800
O 	O 	0.36550 0.01120 0.10650 -0.54300
O 	O 	0.94460 0.10430 0.67920 -0.65300
Zn	Zn	0.08104 0.41922 0.10036 1.21500
C 	C 	0.11330 0.10820 0.08350 -0.06500
H 	H 	0.07470 0.14010 0.08290 0.07100
C 	C 	0.10560 0.03650 0.09710 -0.00800
H 	H 	0.06360 0.02080 0.11220 0.03600
C 	C 	0.22100 0.00670 0.08160 -0.05300
H 	H 	0.25760 0.97210 0.08340 0.06500
C 	C 	0.15780 0.98210 0.09010 0.03500
H 	H 	0.14800 0.93000 0.09130 0.02000
C 	C 	0.47910 0.66270 0.32860 -0.04300
H 	H 	0.46700 0.64640 0.36610 0.02800
C 	C 	0.46240 0.61350 0.28510 -0.02500
H 	H 	0.44600 0.56200 0.29180 0.03200
C 	C 	0.46480 0.63940 0.23040 -0.02300
H 	H 	0.45860 0.60460 0.19950 0.03500
C 	C 	0.48410 0.71460 0.21910 -0.02700
H 	H 	0.49440 0.73100 0.18160 0.01600
C 	C 	0.36260 0.72220 0.57090 0.41900
C 	C 	0.30880 0.78220 0.57050 -0.12600
C 	C 	0.24070 0.75860 0.56820 -0.00000
H 	H 	0.23140 0.70630 0.56790 0.04900
C 	C 	0.32110 0.86160 0.56980 0.06900
C 	C 	0.39320 0.89660 0.55460 -0.01300
H 	H 	0.43070 0.86570 0.54530 0.04200
C 	C 	0.39880 0.97710 0.55550 0.00700
H 	H 	0.44270 0.99850 0.55900 0.03000
C 	C 	0.18500 0.80970 0.56630 0.00300
H 	H 	0.13980 0.79160 0.56410 0.03100
C 	C 	0.26480 0.91520 0.56970 0.03400
C 	C 	0.28080 0.99980 0.55450 -0.03000
H 	H 	0.24430 0.03320 0.54750 0.02300
C 	C 	0.34390 0.02480 0.55140 -0.07800
H 	H 	0.35160 0.07700 0.54630 0.05500
C 	C 	0.19780 0.88670 0.56770 -0.13000
C 	C 	0.13530 0.93940 0.56840 0.47000
O 	O 	0.34600 0.65860 0.59080 -0.47900
O 	O 	0.42090 0.73790 0.55290 -0.51700
O 	O 	0.08930 0.93040 0.53360 -0.73200
O 	O 	0.13450 0.98880 0.60650 -0.52100
O 	O 	0.55540 0.89570 0.17920 -0.52400
Zn	Zn	0.41896 0.58078 0.60036 1.21000
C 	C 	0.38670 0.89180 0.58350 -0.08700
H 	H 	0.42530 0.85990 0.58290 0.06100
C 	C 	0.39440 0.96350 0.59710 -0.01200
H 	H 	0.43640 0.97920 0.61220 0.02700
C 	C 	0.27900 0.99330 0.58160 0.00800
H 	H 	0.24240 0.02790 0.58340 0.03200
C 	C 	0.34220 0.01790 0.59010 -0.01400
H 	H 	0.35200 0.07000 0.59130 0.03600
C 	C 	0.97910 0.16270 0.32860 0.77100
H 	H 	0.96700 0.14640 0.36610 -0.25300
C 	C 	0.96240 0.11350 0.28510 -0.30100
H 	H 	0.94600 0.06200 0.29180 0.09500
C 	C 	0.96480 0.13940 0.23040 -0.46600
H 	H 	0.95860 0.10460 0.19950 0.13500
C 	C 	0.98410 0.21460 0.21910 0.95200
H 	H 	0.99440 0.23100 0.18160 0.44400
C 	C 	0.86260 0.22220 0.57090 0.41800
C 	C 	0.80880 0.28220 0.57050 -0.12900
C 	C 	0.74070 0.25860 0.56820 -0.00700
H 	H 	0.73140 0.20630 0.56790 0.04800
C 	C 	0.82110 0.36160 0.56980 0.05000
C 	C 	0.89320 0.39660 0.55460 -0.02200
H 	H 	0.93070 0.36570 0.54530 0.02700
C 	C 	0.89880 0.47710 0.55550 -0.00400
H 	H 	0.94270 0.49850 0.55900 0.00400
C 	C 	0.68500 0.30970 0.56630 0.00700
H 	H 	0.63980 0.29160 0.56410 0.02700
C 	C 	0.76480 0.41520 0.56970 0.04900
C 	C 	0.78080 0.49980 0.55450 -0.05600
H 	H 	0.74430 0.53320 0.54750 0.03400
C 	C 	0.84390 0.52480 0.55140 -0.04800
H 	H 	0.85160 0.57700 0.54630 0.04000
C 	C 	0.69780 0.38670 0.56770 -0.14400
C 	C 	0.63530 0.43940 0.56840 0.47600
O 	O 	0.84600 0.15860 0.59080 -0.49400
O 	O 	0.92090 0.23790 0.55290 -0.55900
O 	O 	0.58930 0.43040 0.53360 -0.73700
O 	O 	0.63450 0.48880 0.60650 -0.53900
O 	O 	0.05540 0.39570 0.17920 -0.54000
Zn	Zn	0.91896 0.08078 0.60036 1.19400
C 	C 	0.88670 0.39180 0.58350 -0.06700
H 	H 	0.92530 0.35990 0.58290 0.03800
C 	C 	0.89440 0.46350 0.59710 -0.03300
H 	H 	0.93640 0.47920 0.61220 0.00300
C 	C 	0.77900 0.49330 0.58160 -0.01700
H 	H 	0.74240 0.52790 0.58340 0.04300
C 	C 	0.84220 0.51790 0.59010 0.00300
H 	H 	0.85200 0.57000 0.59130 0.01500
Zn	Zn	0.50000 0.50000 0.50000 0.70800
Zn	Zn	0.00000 0.00000 0.50000 0.71300
Zn	Zn	0.50000 0.00000 -0.00000 0.69700
Zn	Zn	-0.00000 0.50000 -0.00000 0.70900
C 	C 	0.50000 0.76380 0.26260 0.03400
C 	C 	0.50000 0.73790 0.31730 0.06300
C 	C 	0.50000 0.77570 0.42100 0.46600
C 	C 	0.50000 0.79990 0.36490 -0.18800
C 	C 	0.50000 0.86520 0.35330 0.05900
H 	H 	0.50000 0.90090 0.38200 0.02400
C 	C 	0.50000 0.89160 0.29900 -0.00000
H 	H 	0.50000 0.94450 0.29410 0.03400
C 	C 	0.50000 0.85200 0.25620 -0.13200
C 	C 	0.50000 0.88350 0.20050 0.48400
O 	O 	0.50000 0.58280 0.55430 -1.09300
O 	O 	0.50000 0.71380 0.44000 -0.56300
O 	O 	0.50000 0.83320 0.45440 -0.31800
Zn	Zn	0.50000 0.68402 0.51706 1.20600
Zn	Zn	0.50000 0.54320 0.47210 0.95500
C 	C 	-0.00000 0.26380 0.26260 0.11800
C 	C 	-0.00000 0.23790 0.31730 0.07400
C 	C 	-0.00000 0.27570 0.42100 0.44400
C 	C 	-0.00000 0.29990 0.36490 -0.12300
C 	C 	-0.00000 0.36520 0.35330 -0.02500
H 	H 	-0.00000 0.40090 0.38200 0.06900
C 	C 	-0.00000 0.39160 0.29900 0.10900
H 	H 	-0.00000 0.44450 0.29410 0.01400
C 	C 	-0.00000 0.35200 0.25620 -0.21600
C 	C 	-0.00000 0.38350 0.20050 0.64400
O 	O 	-0.00000 0.08280 0.55430 -1.05400
O 	O 	-0.00000 0.21380 0.44000 -0.52400
O 	O 	-0.00000 0.33320 0.45440 -0.28200
Zn	Zn	-0.00000 0.18402 0.51706 1.22200
Zn	Zn	0.00000 0.04320 0.47210 0.96900
C 	C 	0.50000 0.73620 0.76260 0.03600
C 	C 	0.50000 0.76210 0.81730 0.06100
C 	C 	0.50000 0.72430 0.92100 0.46100
C 	C 	0.50000 0.70010 0.86490 -0.18300
C 	C 	0.50000 0.63480 0.85330 0.05200
H 	H 	0.50000 0.59910 0.88200 0.02500
C 	C 	0.50000 0.60840 0.79900 0.00600
H 	H 	0.50000 0.55550 0.79410 0.02900
C 	C 	0.50000 0.64800 0.75620 -0.13600
C 	C 	0.50000 0.61650 0.70050 0.48600
O 	O 	0.50000 0.91720 0.05430 -1.09700
O 	O 	0.50000 0.78620 0.94000 -0.55500
O 	O 	0.50000 0.66680 0.95440 -0.30800
Zn	Zn	0.50000 0.81598 0.01706 1.20100
Zn	Zn	0.50000 0.95680 0.97210 0.96300
C 	C 	-0.00000 0.23620 0.76260 0.12100
C 	C 	0.00000 0.26210 0.81730 0.07200
C 	C 	-0.00000 0.22430 0.92100 0.44000
C 	C 	0.00000 0.20010 0.86490 -0.11800
C 	C 	0.00000 0.13480 0.85330 -0.03200
H 	H 	-0.00000 0.09910 0.88200 0.07000
C 	C 	-0.00000 0.10840 0.79900 0.11400
H 	H 	-0.00000 0.05550 0.79410 0.00900
C 	C 	-0.00000 0.14800 0.75620 -0.22100
C 	C 	-0.00000 0.11650 0.70050 0.64500
O 	O 	0.00000 0.41720 0.05430 -1.05700
O 	O 	-0.00000 0.28620 0.94000 -0.51700
O 	O 	0.00000 0.16680 0.95440 -0.27400
Zn	Zn	-0.00000 0.31598 0.01706 1.21700
Zn	Zn	0.00000 0.45680 0.97210 0.97600
C 	C 	0.50000 0.26380 0.23740 0.03300
C 	C 	0.50000 0.23790 0.18270 0.06400
C 	C 	0.50000 0.27570 0.07900 0.47000
C 	C 	0.50000 0.29990 0.13510 -0.19200
C 	C 	0.50000 0.36520 0.14670 0.06200
H 	H 	0.50000 0.40090 0.11800 0.02000
C 	C 	0.50000 0.39160 0.20100 -0.00200
H 	H 	0.50000 0.44450 0.20590 0.03200
C 	C 	0.50000 0.35200 0.24380 -0.13200
C 	C 	0.50000 0.38350 0.29950 0.48400
O 	O 	0.50000 0.08280 0.94570 -1.08800
O 	O 	0.50000 0.21380 0.06000 -0.57000
O 	O 	0.50000 0.33320 0.04560 -0.32800
Zn	Zn	0.50000 0.18402 0.98294 1.21200
Zn	Zn	0.50000 0.04320 0.02790 0.95200
C 	C 	-0.00000 0.76380 0.23740 0.11700
C 	C 	-0.00000 0.73790 0.18270 0.07700
C 	C 	-0.00000 0.77570 0.07900 0.45000
C 	C 	-0.00000 0.79990 0.13510 -0.12800
C 	C 	-0.00000 0.86520 0.14670 -0.01800
H 	H 	-0.00000 0.90090 0.11800 0.06800
C 	C 	0.00000 0.89160 0.20100 0.10400
H 	H 	-0.00000 0.94450 0.20590 0.01800
C 	C 	-0.00000 0.85200 0.24380 -0.21200
C 	C 	-0.00000 0.88350 0.29950 0.64300
O 	O 	-0.00000 0.58280 0.94570 -1.04300
O 	O 	-0.00000 0.71380 0.06000 -0.53200
O 	O 	-0.00000 0.83320 0.04560 -0.29200
Zn	Zn	-0.00000 0.68402 0.98294 1.22800
Zn	Zn	-0.00000 0.54320 0.02790 0.96800
C 	C 	0.50000 0.23620 0.73740 0.03500
C 	C 	0.50000 0.26210 0.68270 0.06200
C 	C 	0.50000 0.22430 0.57900 0.46500
C 	C 	0.50000 0.20010 0.63510 -0.18700
C 	C 	0.50000 0.13480 0.64670 0.05400
H 	H 	0.50000 0.09910 0.61800 0.02100
C 	C 	0.50000 0.10840 0.70100 0.00400
H 	H 	0.50000 0.05550 0.70590 0.02600
C 	C 	0.50000 0.14800 0.74380 -0.13700
C 	C 	0.50000 0.11650 0.79950 0.48600
O 	O 	0.50000 0.41720 0.44570 -1.09300
O 	O 	0.50000 0.28620 0.56000 -0.56300
O 	O 	0.50000 0.16680 0.54560 -0.31900
Zn	Zn	0.50000 0.31598 0.48294 1.20600
Zn	Zn	0.50000 0.45680 0.52790 0.95500
C 	C 	-0.00000 0.73620 0.73740 0.12000
C 	C 	-0.00000 0.76210 0.68270 0.07400
C 	C 	0.00000 0.72430 0.57900 0.44400
C 	C 	-0.00000 0.70010 0.63510 -0.12200
C 	C 	-0.00000 0.63480 0.64670 -0.02700
H 	H 	-0.00000 0.59910 0.61800 0.07000
C 	C 	-0.00000 0.60840 0.70100 0.11100
H 	H 	-0.00000 0.55550 0.70590 0.01400
C 	C 	0.00000 0.64800 0.74380 -0.21800
C 	C 	-0.00000 0.61650 0.79950 0.64600
O 	O 	-0.00000 0.91720 0.44570 -1.04800
O 	O 	-0.00000 0.78620 0.56000 -0.52400
O 	O 	-0.00000 0.66680 0.54560 -0.28200
Zn	Zn	0.00000 0.81598 0.48294 1.22200
Zn	Zn	-0.00000 0.95680 0.52790 0.97200
