data_crystal

_cell_length_a 13.68880
_cell_length_b 27.46900
_cell_length_c 45.99610
_cell_angle_alpha 90.00000
_cell_angle_beta  90.00000
_cell_angle_gamma 90.00000

_symmetry_space_group_name_	'P 1'
_symmetry_space_group_name_H-M	'P 1'

loop_
_symmetry_equiv_pos_as_xyz
  x,y,z

loop_
_atom_site_label
_atom_site_type_symbol
_atom_site_fract_x
_atom_site_fract_y
_atom_site_fract_z
_atom_site_charge
Zn	Zn	0.14630 0.46958 0.90997 1.16400
Zn	Zn	0.35010 0.25407 0.81182 1.16400
Zn	Zn	0.65263 0.05421 0.57196 1.16300
Zn	Zn	0.85370 0.03042 0.40997 1.16400
Zn	Zn	0.64990 0.24593 0.31182 1.16300
Zn	Zn	0.34737 0.44579 0.07196 1.16200
Zn	Zn	0.64630 0.53042 0.59003 1.16300
Zn	Zn	0.85010 0.74593 0.68818 1.16300
Zn	Zn	0.15263 0.94579 0.92804 1.16200
Zn	Zn	0.35370 0.96958 0.09003 1.16300
Zn	Zn	0.14990 0.75407 0.18818 1.16300
Zn	Zn	0.84737 0.55421 0.42804 1.16200
H 	H 	0.99120 0.41410 0.87840 -0.00600
H 	H 	0.83570 0.38300 0.88540 0.09100
H 	H 	0.84600 0.43200 0.96850 0.08400
H 	H 	0.00290 0.45960 0.95940 -0.00500
H 	H 	0.63480 0.44330 0.00390 0.08500
H 	H 	0.54360 0.46600 0.04450 -0.00400
H 	H 	0.31250 0.39720 0.01440 -0.00600
H 	H 	0.39670 0.37280 0.97280 0.07600
H 	H 	0.39390 0.34370 0.90470 0.08200
H 	H 	0.31280 0.30720 0.86620 -0.01100
H 	H 	0.56130 0.27370 0.82860 -0.01600
H 	H 	0.64940 0.31170 0.86540 0.07800
H 	H 	0.49090 0.34690 0.72870 0.07900
H 	H 	0.42560 0.33470 0.77510 -0.00900
H 	H 	0.46460 0.19310 0.76900 0.00200
H 	H 	0.52800 0.20050 0.72230 0.08000
H 	H 	0.59200 0.35100 0.59460 0.08000
H 	H 	0.61360 0.42650 0.57340 -0.00700
H 	H 	0.59770 0.49100 0.64990 -0.00400
H 	H 	0.57310 0.41610 0.67310 0.07900
H 	H 	0.55410 0.15080 0.65980 0.07800
H 	H 	0.57600 0.08250 0.63100 -0.00600
H 	H 	0.64850 0.16370 0.56360 -0.01400
H 	H 	0.62080 0.23440 0.58950 0.07800
H 	H 	0.00880 0.08590 0.37840 -0.00600
H 	H 	0.16430 0.11700 0.38540 0.09100
H 	H 	0.15400 0.06800 0.46850 0.08400
H 	H 	0.99710 0.04040 0.45940 -0.00600
H 	H 	0.36520 0.05670 0.50390 0.08500
H 	H 	0.45640 0.03400 0.54450 -0.00400
H 	H 	0.68750 0.10280 0.51440 -0.00600
H 	H 	0.60330 0.12720 0.47280 0.07600
H 	H 	0.60610 0.15630 0.40470 0.08200
H 	H 	0.68720 0.19280 0.36620 -0.01100
H 	H 	0.43870 0.22630 0.32860 -0.01600
H 	H 	0.35060 0.18830 0.36540 0.07800
H 	H 	0.50910 0.15310 0.22870 0.07900
H 	H 	0.57440 0.16530 0.27510 -0.00900
H 	H 	0.53540 0.30690 0.26900 0.00200
H 	H 	0.47200 0.29950 0.22230 0.08000
H 	H 	0.40800 0.14900 0.09460 0.08000
H 	H 	0.38640 0.07350 0.07340 -0.00700
H 	H 	0.40230 0.00900 0.14990 -0.00400
H 	H 	0.42690 0.08390 0.17310 0.07900
H 	H 	0.44590 0.34920 0.15980 0.07800
H 	H 	0.42400 0.41750 0.13100 -0.00600
H 	H 	0.35150 0.33630 0.06360 -0.01400
H 	H 	0.37920 0.26560 0.08950 0.07800
H 	H 	0.49120 0.58590 0.62160 -0.00600
H 	H 	0.33570 0.61700 0.61460 0.09100
H 	H 	0.34600 0.56800 0.53150 0.08400
H 	H 	0.50290 0.54040 0.54060 -0.00600
H 	H 	0.13480 0.55670 0.49610 0.08500
H 	H 	0.04360 0.53400 0.45550 -0.00400
H 	H 	0.81250 0.60280 0.48560 -0.00600
H 	H 	0.89670 0.62720 0.52720 0.07600
H 	H 	0.89390 0.65630 0.59530 0.08200
H 	H 	0.81280 0.69280 0.63380 -0.01100
H 	H 	0.06130 0.72630 0.67140 -0.01600
H 	H 	0.14940 0.68830 0.63460 0.07800
H 	H 	0.99090 0.65310 0.77130 0.07900
H 	H 	0.92560 0.66530 0.72490 -0.00900
H 	H 	0.96460 0.80690 0.73100 0.00200
H 	H 	0.02800 0.79950 0.77770 0.07900
H 	H 	0.09200 0.64900 0.90540 0.08000
H 	H 	0.11360 0.57350 0.92660 -0.00700
H 	H 	0.09770 0.50900 0.85010 -0.00400
H 	H 	0.07310 0.58390 0.82690 0.07900
H 	H 	0.05410 0.84920 0.84020 0.07800
H 	H 	0.07600 0.91750 0.86900 -0.00600
H 	H 	0.14850 0.83630 0.93640 -0.01400
H 	H 	0.12080 0.76560 0.91050 0.07800
H 	H 	0.50880 0.91410 0.12160 -0.00600
H 	H 	0.66430 0.88300 0.11460 0.09100
H 	H 	0.65400 0.93200 0.03150 0.08400
H 	H 	0.49710 0.95960 0.04060 -0.00600
H 	H 	0.86520 0.94330 0.99610 0.08500
H 	H 	0.95640 0.96600 0.95550 -0.00500
H 	H 	0.18750 0.89720 0.98560 -0.00600
H 	H 	0.10330 0.87280 0.02720 0.07600
H 	H 	0.10610 0.84370 0.09530 0.08200
H 	H 	0.18720 0.80720 0.13380 -0.01100
H 	H 	0.93870 0.77370 0.17140 -0.01600
H 	H 	0.85060 0.81170 0.13460 0.07800
H 	H 	0.00910 0.84690 0.27130 0.07900
H 	H 	0.07440 0.83470 0.22490 -0.00900
H 	H 	0.03540 0.69310 0.23100 0.00200
H 	H 	0.97200 0.70050 0.27770 0.07900
H 	H 	0.90800 0.85100 0.40540 0.08000
H 	H 	0.88640 0.92650 0.42660 -0.00700
H 	H 	0.90230 0.99100 0.35010 -0.00300
H 	H 	0.92690 0.91610 0.32690 0.07900
H 	H 	0.94590 0.65080 0.34020 0.07800
H 	H 	0.92400 0.58250 0.36900 -0.00500
H 	H 	0.85150 0.66370 0.43640 -0.01400
H 	H 	0.87920 0.73440 0.41050 0.07800
C 	C 	0.96110 0.41745 0.89689 0.06200
C 	C 	0.86820 0.39910 0.90085 -0.11900
C 	C 	0.82250 0.40441 0.92774 0.04800
C 	C 	0.87440 0.42766 0.94984 -0.12200
C 	C 	0.96760 0.44431 0.94413 0.07300
C 	C 	0.56880 0.43300 0.00566 -0.11400
C 	C 	0.51390 0.44653 0.02990 0.06200
C 	C 	0.37900 0.40637 0.01225 0.06300
C 	C 	0.42870 0.39143 0.98736 -0.10800
C 	C 	0.52670 0.40456 0.98426 0.04600
C 	C 	0.72060 0.38855 0.93173 0.09700
C 	C 	0.58220 0.38907 0.95814 0.10300
C 	C 	0.58360 0.35469 0.91378 0.10800
C 	C 	0.53100 0.33075 0.88932 0.06000
C 	C 	0.42990 0.32958 0.88920 -0.11300
C 	C 	0.38220 0.30759 0.86628 0.07000
C 	C 	0.52700 0.28841 0.84429 0.07500
C 	C 	0.58010 0.31053 0.86626 -0.12200
C 	C 	0.48360 0.31489 0.73624 -0.11000
C 	C 	0.44570 0.30726 0.76399 0.06100
C 	C 	0.46820 0.22440 0.76036 0.05900
C 	C 	0.50570 0.22840 0.73256 -0.10800
C 	C 	0.51020 0.27460 0.71984 0.04500
C 	C 	0.59310 0.37934 0.60644 -0.11100
C 	C 	0.60640 0.42442 0.59389 0.06500
C 	C 	0.59670 0.46202 0.63866 0.05900
C 	C 	0.58230 0.41749 0.65265 -0.11000
C 	C 	0.58160 0.37528 0.63612 0.05000
C 	C 	0.57160 0.32675 0.64994 0.10100
C 	C 	0.54060 0.27983 0.68893 0.10500
C 	C 	0.57380 0.24481 0.64582 0.10400
C 	C 	0.58650 0.20052 0.62793 0.04600
C 	C 	0.57280 0.15422 0.64006 -0.10800
C 	C 	0.58690 0.11377 0.62278 0.05400
C 	C 	0.62810 0.16125 0.58333 0.06800
C 	C 	0.61320 0.20361 0.59863 -0.11500
C 	C 	0.03890 0.08255 0.39689 0.06300
C 	C 	0.13180 0.10090 0.40085 -0.11900
C 	C 	0.17750 0.09559 0.42774 0.04900
C 	C 	0.12560 0.07234 0.44984 -0.12300
C 	C 	0.03240 0.05569 0.44413 0.07500
C 	C 	0.43120 0.06700 0.50566 -0.11400
C 	C 	0.48610 0.05347 0.52990 0.06200
C 	C 	0.62100 0.09363 0.51225 0.06300
C 	C 	0.57130 0.10857 0.48736 -0.10800
C 	C 	0.47330 0.09544 0.48426 0.04600
C 	C 	0.27940 0.11145 0.43173 0.09700
C 	C 	0.41780 0.11093 0.45814 0.10300
C 	C 	0.41640 0.14531 0.41378 0.10800
C 	C 	0.46900 0.16925 0.38932 0.06000
C 	C 	0.57010 0.17042 0.38920 -0.11300
C 	C 	0.61780 0.19241 0.36628 0.07000
C 	C 	0.47300 0.21159 0.34429 0.07500
C 	C 	0.41990 0.18947 0.36626 -0.12200
C 	C 	0.51640 0.18511 0.23624 -0.11000
C 	C 	0.55430 0.19274 0.26399 0.06100
C 	C 	0.53180 0.27560 0.26036 0.05900
C 	C 	0.49430 0.27160 0.23256 -0.10800
C 	C 	0.48980 0.22540 0.21984 0.04500
C 	C 	0.40690 0.12066 0.10644 -0.11100
C 	C 	0.39360 0.07558 0.09389 0.06500
C 	C 	0.40330 0.03798 0.13866 0.05900
C 	C 	0.41770 0.08251 0.15265 -0.11000
C 	C 	0.41840 0.12472 0.13612 0.05000
C 	C 	0.42840 0.17325 0.14994 0.10100
C 	C 	0.45940 0.22017 0.18893 0.10500
C 	C 	0.42620 0.25519 0.14582 0.10400
C 	C 	0.41350 0.29948 0.12793 0.04600
C 	C 	0.42720 0.34578 0.14006 -0.10800
C 	C 	0.41310 0.38623 0.12278 0.05400
C 	C 	0.37190 0.33875 0.08333 0.06800
C 	C 	0.38680 0.29639 0.09863 -0.11500
C 	C 	0.46110 0.58255 0.60311 0.06300
C 	C 	0.36820 0.60090 0.59915 -0.11900
C 	C 	0.32250 0.59559 0.57226 0.04800
C 	C 	0.37440 0.57234 0.55016 -0.12200
C 	C 	0.46760 0.55569 0.55587 0.07400
C 	C 	0.06880 0.56700 0.49434 -0.11400
C 	C 	0.01390 0.55347 0.47010 0.06200
C 	C 	0.87900 0.59363 0.48775 0.06300
C 	C 	0.92870 0.60857 0.51264 -0.10700
C 	C 	0.02670 0.59544 0.51574 0.04600
C 	C 	0.22060 0.61145 0.56827 0.09700
C 	C 	0.08220 0.61093 0.54186 0.10300
C 	C 	0.08360 0.64531 0.58622 0.10800
C 	C 	0.03100 0.66925 0.61068 0.06000
C 	C 	0.92990 0.67042 0.61080 -0.11300
C 	C 	0.88220 0.69241 0.63372 0.07000
C 	C 	0.02700 0.71159 0.65571 0.07500
C 	C 	0.08010 0.68947 0.63374 -0.12200
C 	C 	0.98360 0.68511 0.76376 -0.11100
C 	C 	0.94570 0.69274 0.73601 0.06100
C 	C 	0.96820 0.77560 0.73964 0.05800
C 	C 	0.00570 0.77160 0.76744 -0.10700
C 	C 	0.01020 0.72540 0.78016 0.04600
C 	C 	0.09310 0.62066 0.89356 -0.11100
C 	C 	0.10640 0.57558 0.90611 0.06500
C 	C 	0.09670 0.53798 0.86134 0.05900
C 	C 	0.08230 0.58251 0.84735 -0.11000
C 	C 	0.08160 0.62472 0.86388 0.05000
C 	C 	0.07160 0.67325 0.85006 0.10100
C 	C 	0.04060 0.72017 0.81107 0.10500
C 	C 	0.07380 0.75519 0.85418 0.10400
C 	C 	0.08650 0.79948 0.87207 0.04600
C 	C 	0.07280 0.84578 0.85994 -0.10800
C 	C 	0.08690 0.88623 0.87722 0.05400
C 	C 	0.12810 0.83875 0.91667 0.06800
C 	C 	0.11320 0.79639 0.90137 -0.11500
C 	C 	0.53890 0.91745 0.10311 0.06300
C 	C 	0.63180 0.89910 0.09915 -0.11900
C 	C 	0.67750 0.90441 0.07226 0.04800
C 	C 	0.62560 0.92766 0.05016 -0.12200
C 	C 	0.53240 0.94431 0.05587 0.07400
C 	C 	0.93120 0.93300 0.99434 -0.11500
C 	C 	0.98610 0.94653 0.97010 0.06300
C 	C 	0.12100 0.90637 0.98775 0.06400
C 	C 	0.07130 0.89143 0.01264 -0.10900
C 	C 	0.97330 0.90456 0.01574 0.04700
C 	C 	0.77940 0.88855 0.06827 0.09700
C 	C 	0.91780 0.88907 0.04186 0.10300
C 	C 	0.91640 0.85469 0.08622 0.10800
C 	C 	0.96900 0.83075 0.11068 0.06200
C 	C 	0.07010 0.82958 0.11080 -0.11400
C 	C 	0.11780 0.80759 0.13372 0.07100
C 	C 	0.97300 0.78841 0.15571 0.07600
C 	C 	0.91990 0.81053 0.13374 -0.12300
C 	C 	0.01640 0.81489 0.26376 -0.11200
C 	C 	0.05430 0.80726 0.23601 0.06100
C 	C 	0.03180 0.72440 0.23964 0.05700
C 	C 	0.99430 0.72840 0.26744 -0.10700
C 	C 	0.98980 0.77460 0.28016 0.04600
C 	C 	0.90690 0.87934 0.39356 -0.11100
C 	C 	0.89360 0.92442 0.40611 0.06600
C 	C 	0.90330 0.96202 0.36134 0.05900
C 	C 	0.91770 0.91749 0.34735 -0.11000
C 	C 	0.91840 0.87528 0.36388 0.05000
C 	C 	0.92840 0.82675 0.35006 0.10100
C 	C 	0.95940 0.77983 0.31107 0.10500
C 	C 	0.92620 0.74481 0.35418 0.10400
C 	C 	0.91350 0.70052 0.37207 0.04600
C 	C 	0.92720 0.65422 0.35994 -0.10800
C 	C 	0.91310 0.61377 0.37722 0.05400
C 	C 	0.87190 0.66125 0.41667 0.06800
C 	C 	0.88680 0.70361 0.40137 -0.11500
I 	I 	0.19809 0.30707 0.80372 -0.36600
I 	I 	0.56690 0.98514 0.59842 -0.36500
I 	I 	0.22674 0.48709 0.95896 -0.38700
I 	I 	0.83523 0.06327 0.56213 -0.37900
I 	I 	0.32880 0.16324 0.82170 -0.37500
I 	I 	0.23019 0.41981 0.87076 -0.36700
I 	I 	0.80191 0.19293 0.30372 -0.36600
I 	I 	0.43310 0.51486 0.09842 -0.36500
I 	I 	0.77326 0.01291 0.45896 -0.38700
I 	I 	0.16477 0.43673 0.06213 -0.37900
I 	I 	0.67120 0.33676 0.32170 -0.37500
I 	I 	0.76981 0.08019 0.37076 -0.36700
I 	I 	0.69809 0.69293 0.69628 -0.36600
I 	I 	0.06690 0.01486 0.90158 -0.36500
I 	I 	0.72674 0.51291 0.54104 -0.38700
I 	I 	0.33523 0.93673 0.93787 -0.37900
I 	I 	0.82880 0.83676 0.67830 -0.37500
I 	I 	0.73019 0.58019 0.62924 -0.36700
I 	I 	0.30191 0.80707 0.19628 -0.36600
I 	I 	0.93310 0.48514 0.40158 -0.36500
I 	I 	0.27326 0.98709 0.04104 -0.38700
I 	I 	0.66477 0.56327 0.43787 -0.37900
I 	I 	0.17120 0.66324 0.17830 -0.37500
I 	I 	0.26981 0.91981 0.12924 -0.36700
N 	N 	0.01060 0.43995 0.91835 -0.27200
N 	N 	0.67610 0.40124 0.95683 -0.14300
N 	N 	0.67860 0.36417 0.91002 -0.13500
N 	N 	0.53200 0.36557 0.93743 -0.13700
N 	N 	0.42990 0.28695 0.84429 -0.27500
N 	N 	0.43670 0.26297 0.77557 -0.27000
N 	N 	0.54990 0.32475 0.67832 -0.14000
N 	N 	0.55190 0.23872 0.67389 -0.14000
N 	N 	0.58430 0.28781 0.63254 -0.13900
N 	N 	0.61540 0.11661 0.59466 -0.26900
N 	N 	0.42040 0.43288 0.03327 -0.26900
N 	N 	0.60940 0.46529 0.60964 -0.26900
N 	N 	0.98940 0.06005 0.41835 -0.27300
N 	N 	0.32390 0.09876 0.45683 -0.14300
N 	N 	0.32140 0.13583 0.41002 -0.13500
N 	N 	0.46800 0.13443 0.43743 -0.13700
N 	N 	0.57010 0.21305 0.34429 -0.27500
N 	N 	0.56330 0.23703 0.27557 -0.27000
N 	N 	0.45010 0.17525 0.17832 -0.14000
N 	N 	0.44810 0.26128 0.17389 -0.14000
N 	N 	0.41570 0.21219 0.13254 -0.13900
N 	N 	0.38460 0.38339 0.09466 -0.26900
N 	N 	0.57960 0.06712 0.53327 -0.26900
N 	N 	0.39060 0.03471 0.10964 -0.26800
N 	N 	0.51060 0.56005 0.58165 -0.27300
N 	N 	0.17610 0.59876 0.54317 -0.14300
N 	N 	0.17860 0.63583 0.58998 -0.13500
N 	N 	0.03200 0.63443 0.56257 -0.13800
N 	N 	0.92990 0.71305 0.65571 -0.27500
N 	N 	0.93670 0.73703 0.72443 -0.27000
N 	N 	0.04990 0.67525 0.82168 -0.14000
N 	N 	0.05190 0.76128 0.82611 -0.14000
N 	N 	0.08430 0.71219 0.86746 -0.13900
N 	N 	0.11540 0.88339 0.90534 -0.27000
N 	N 	0.92040 0.56712 0.46673 -0.26900
N 	N 	0.10940 0.53471 0.89036 -0.26900
N 	N 	0.48940 0.93995 0.08165 -0.27300
N 	N 	0.82390 0.90124 0.04317 -0.14300
N 	N 	0.82140 0.86417 0.08998 -0.13500
N 	N 	0.96800 0.86557 0.06257 -0.13700
N 	N 	0.07010 0.78695 0.15571 -0.27600
N 	N 	0.06330 0.76297 0.22443 -0.27000
N 	N 	0.95010 0.82475 0.32168 -0.13900
N 	N 	0.94810 0.73872 0.32611 -0.14000
N 	N 	0.91570 0.78781 0.36746 -0.13900
N 	N 	0.88460 0.61661 0.40534 -0.26900
N 	N 	0.07960 0.93288 0.96673 -0.27000
N 	N 	0.89060 0.96529 0.39036 -0.26800
Zn	Zn	0.85370 0.53042 0.09003 1.16300
Zn	Zn	0.64990 0.74593 0.18818 1.16300
Zn	Zn	0.34737 0.94579 0.42804 1.16200
Zn	Zn	0.14630 0.96958 0.59003 1.16300
Zn	Zn	0.35010 0.75407 0.68818 1.16300
Zn	Zn	0.65263 0.55421 0.92804 1.16200
Zn	Zn	0.35370 0.46958 0.40997 1.16300
Zn	Zn	0.14990 0.25407 0.31182 1.16300
Zn	Zn	0.84737 0.05421 0.07196 1.16200
Zn	Zn	0.64630 0.03042 0.90997 1.16300
Zn	Zn	0.85010 0.24593 0.81182 1.16300
Zn	Zn	0.15263 0.44579 0.57196 1.16200
H 	H 	0.00880 0.58590 0.12160 -0.00600
H 	H 	0.16430 0.61700 0.11460 0.09100
H 	H 	0.15400 0.56800 0.03150 0.08400
H 	H 	0.99710 0.54040 0.04060 -0.00500
H 	H 	0.36520 0.55670 0.99610 0.08500
H 	H 	0.45640 0.53400 0.95550 -0.00400
H 	H 	0.68750 0.60280 0.98560 -0.00600
H 	H 	0.60330 0.62720 0.02720 0.07600
H 	H 	0.60610 0.65630 0.09530 0.08200
H 	H 	0.68720 0.69280 0.13380 -0.01100
H 	H 	0.43870 0.72630 0.17140 -0.01600
H 	H 	0.35060 0.68830 0.13460 0.07800
H 	H 	0.50910 0.65310 0.27130 0.07900
H 	H 	0.57440 0.66530 0.22490 -0.00900
H 	H 	0.53540 0.80690 0.23100 0.00200
H 	H 	0.47200 0.79950 0.27770 0.08000
H 	H 	0.40800 0.64900 0.40540 0.08000
H 	H 	0.38640 0.57350 0.42660 -0.00700
H 	H 	0.40230 0.50900 0.35010 -0.00400
H 	H 	0.42690 0.58390 0.32690 0.07900
H 	H 	0.44590 0.84920 0.34020 0.07800
H 	H 	0.42400 0.91750 0.36900 -0.00600
H 	H 	0.35150 0.83630 0.43640 -0.01400
H 	H 	0.37920 0.76560 0.41050 0.07800
H 	H 	0.99120 0.91410 0.62160 -0.00600
H 	H 	0.83570 0.88300 0.61460 0.09100
H 	H 	0.84600 0.93200 0.53150 0.08400
H 	H 	0.00290 0.95960 0.54060 -0.00600
H 	H 	0.63480 0.94330 0.49610 0.08500
H 	H 	0.54360 0.96600 0.45550 -0.00400
H 	H 	0.31250 0.89720 0.48560 -0.00600
H 	H 	0.39670 0.87280 0.52720 0.07600
H 	H 	0.39390 0.84370 0.59530 0.08200
H 	H 	0.31280 0.80720 0.63380 -0.01100
H 	H 	0.56130 0.77370 0.67140 -0.01600
H 	H 	0.64940 0.81170 0.63460 0.07800
H 	H 	0.49090 0.84690 0.77130 0.07900
H 	H 	0.42560 0.83470 0.72490 -0.00900
H 	H 	0.46460 0.69310 0.73100 0.00200
H 	H 	0.52800 0.70050 0.77770 0.08000
H 	H 	0.59200 0.85100 0.90540 0.08000
H 	H 	0.61360 0.92650 0.92660 -0.00700
H 	H 	0.59770 0.99100 0.85010 -0.00400
H 	H 	0.57310 0.91610 0.82690 0.07900
H 	H 	0.55410 0.65080 0.84020 0.07800
H 	H 	0.57600 0.58250 0.86900 -0.00600
H 	H 	0.64850 0.66370 0.93640 -0.01400
H 	H 	0.62080 0.73440 0.91050 0.07800
H 	H 	0.50880 0.41410 0.37840 -0.00600
H 	H 	0.66430 0.38300 0.38540 0.09100
H 	H 	0.65400 0.43200 0.46850 0.08400
H 	H 	0.49710 0.45960 0.45940 -0.00600
H 	H 	0.86520 0.44330 0.50390 0.08500
H 	H 	0.95640 0.46600 0.54450 -0.00400
H 	H 	0.18750 0.39720 0.51440 -0.00600
H 	H 	0.10330 0.37280 0.47280 0.07600
H 	H 	0.10610 0.34370 0.40470 0.08200
H 	H 	0.18720 0.30720 0.36620 -0.01100
H 	H 	0.93870 0.27370 0.32860 -0.01600
H 	H 	0.85060 0.31170 0.36540 0.07800
H 	H 	0.00910 0.34690 0.22870 0.07900
H 	H 	0.07440 0.33470 0.27510 -0.00900
H 	H 	0.03540 0.19310 0.26900 0.00200
H 	H 	0.97200 0.20050 0.22230 0.07900
H 	H 	0.90800 0.35100 0.09460 0.08000
H 	H 	0.88640 0.42650 0.07340 -0.00700
H 	H 	0.90230 0.49100 0.14990 -0.00400
H 	H 	0.92690 0.41610 0.17310 0.07900
H 	H 	0.94590 0.15080 0.15980 0.07800
H 	H 	0.92400 0.08250 0.13100 -0.00600
H 	H 	0.85150 0.16370 0.06360 -0.01400
H 	H 	0.87920 0.23440 0.08950 0.07800
H 	H 	0.49120 0.08590 0.87840 -0.00600
H 	H 	0.33570 0.11700 0.88540 0.09100
H 	H 	0.34600 0.06800 0.96850 0.08400
H 	H 	0.50290 0.04040 0.95940 -0.00600
H 	H 	0.13480 0.05670 0.00390 0.08500
H 	H 	0.04360 0.03400 0.04450 -0.00500
H 	H 	0.81250 0.10280 0.01440 -0.00600
H 	H 	0.89670 0.12720 0.97280 0.07600
H 	H 	0.89390 0.15630 0.90470 0.08200
H 	H 	0.81280 0.19280 0.86620 -0.01100
H 	H 	0.06130 0.22630 0.82860 -0.01600
H 	H 	0.14940 0.18830 0.86540 0.07800
H 	H 	0.99090 0.15310 0.72870 0.07900
H 	H 	0.92560 0.16530 0.77510 -0.00900
H 	H 	0.96460 0.30690 0.76900 0.00200
H 	H 	0.02800 0.29950 0.72230 0.07900
H 	H 	0.09200 0.14900 0.59460 0.08000
H 	H 	0.11360 0.07350 0.57340 -0.00700
H 	H 	0.09770 0.00900 0.64990 -0.00300
H 	H 	0.07310 0.08390 0.67310 0.07900
H 	H 	0.05410 0.34920 0.65980 0.07800
H 	H 	0.07600 0.41750 0.63100 -0.00500
H 	H 	0.14850 0.33630 0.56360 -0.01400
H 	H 	0.12080 0.26560 0.58950 0.07800
C 	C 	0.03890 0.58255 0.10311 0.06200
C 	C 	0.13180 0.60090 0.09915 -0.11900
C 	C 	0.17750 0.59559 0.07226 0.04800
C 	C 	0.12560 0.57234 0.05016 -0.12200
C 	C 	0.03240 0.55569 0.05587 0.07300
C 	C 	0.43120 0.56700 0.99434 -0.11400
C 	C 	0.48610 0.55347 0.97010 0.06200
C 	C 	0.62100 0.59363 0.98775 0.06300
C 	C 	0.57130 0.60857 0.01264 -0.10800
C 	C 	0.47330 0.59544 0.01574 0.04600
C 	C 	0.27940 0.61145 0.06827 0.09700
C 	C 	0.41780 0.61093 0.04186 0.10300
C 	C 	0.41640 0.64531 0.08622 0.10800
C 	C 	0.46900 0.66925 0.11068 0.06000
C 	C 	0.57010 0.67042 0.11080 -0.11300
C 	C 	0.61780 0.69241 0.13372 0.07000
C 	C 	0.47300 0.71159 0.15571 0.07500
C 	C 	0.41990 0.68947 0.13374 -0.12200
C 	C 	0.51640 0.68511 0.26376 -0.11000
C 	C 	0.55430 0.69274 0.23601 0.06100
C 	C 	0.53180 0.77560 0.23964 0.05900
C 	C 	0.49430 0.77160 0.26744 -0.10800
C 	C 	0.48980 0.72540 0.28016 0.04500
C 	C 	0.40690 0.62066 0.39356 -0.11100
C 	C 	0.39360 0.57558 0.40611 0.06500
C 	C 	0.40330 0.53798 0.36134 0.05900
C 	C 	0.41770 0.58251 0.34735 -0.11000
C 	C 	0.41840 0.62472 0.36388 0.05000
C 	C 	0.42840 0.67325 0.35006 0.10100
C 	C 	0.45940 0.72017 0.31107 0.10500
C 	C 	0.42620 0.75519 0.35418 0.10400
C 	C 	0.41350 0.79948 0.37207 0.04600
C 	C 	0.42720 0.84578 0.35994 -0.10800
C 	C 	0.41310 0.88623 0.37722 0.05400
C 	C 	0.37190 0.83875 0.41667 0.06800
C 	C 	0.38680 0.79639 0.40137 -0.11500
C 	C 	0.96110 0.91745 0.60311 0.06300
C 	C 	0.86820 0.89910 0.59915 -0.11900
C 	C 	0.82250 0.90441 0.57226 0.04900
C 	C 	0.87440 0.92766 0.55016 -0.12300
C 	C 	0.96760 0.94431 0.55587 0.07500
C 	C 	0.56880 0.93300 0.49434 -0.11400
C 	C 	0.51390 0.94653 0.47010 0.06200
C 	C 	0.37900 0.90637 0.48775 0.06300
C 	C 	0.42870 0.89143 0.51264 -0.10800
C 	C 	0.52670 0.90456 0.51574 0.04600
C 	C 	0.72060 0.88855 0.56827 0.09700
C 	C 	0.58220 0.88907 0.54186 0.10300
C 	C 	0.58360 0.85469 0.58622 0.10800
C 	C 	0.53100 0.83075 0.61068 0.06000
C 	C 	0.42990 0.82958 0.61080 -0.11300
C 	C 	0.38220 0.80759 0.63372 0.07000
C 	C 	0.52700 0.78841 0.65571 0.07500
C 	C 	0.58010 0.81053 0.63374 -0.12200
C 	C 	0.48360 0.81489 0.76376 -0.11000
C 	C 	0.44570 0.80726 0.73601 0.06100
C 	C 	0.46820 0.72440 0.73964 0.05900
C 	C 	0.50570 0.72840 0.76744 -0.10800
C 	C 	0.51020 0.77460 0.78016 0.04500
C 	C 	0.59310 0.87934 0.89356 -0.11100
C 	C 	0.60640 0.92442 0.90611 0.06500
C 	C 	0.59670 0.96202 0.86134 0.05900
C 	C 	0.58230 0.91749 0.84735 -0.11000
C 	C 	0.58160 0.87528 0.86388 0.05000
C 	C 	0.57160 0.82675 0.85006 0.10100
C 	C 	0.54060 0.77983 0.81107 0.10500
C 	C 	0.57380 0.74481 0.85418 0.10400
C 	C 	0.58650 0.70052 0.87207 0.04600
C 	C 	0.57280 0.65422 0.85994 -0.10800
C 	C 	0.58690 0.61377 0.87722 0.05400
C 	C 	0.62810 0.66125 0.91667 0.06800
C 	C 	0.61320 0.70361 0.90137 -0.11500
C 	C 	0.53890 0.41745 0.39689 0.06300
C 	C 	0.63180 0.39910 0.40085 -0.11900
C 	C 	0.67750 0.40441 0.42774 0.04800
C 	C 	0.62560 0.42766 0.44984 -0.12200
C 	C 	0.53240 0.44431 0.44413 0.07400
C 	C 	0.93120 0.43300 0.50566 -0.11400
C 	C 	0.98610 0.44653 0.52990 0.06200
C 	C 	0.12100 0.40637 0.51225 0.06300
C 	C 	0.07130 0.39143 0.48736 -0.10700
C 	C 	0.97330 0.40456 0.48426 0.04600
C 	C 	0.77940 0.38855 0.43173 0.09700
C 	C 	0.91780 0.38907 0.45814 0.10300
C 	C 	0.91640 0.35469 0.41378 0.10800
C 	C 	0.96900 0.33075 0.38932 0.06000
C 	C 	0.07010 0.32958 0.38920 -0.11300
C 	C 	0.11780 0.30759 0.36628 0.07000
C 	C 	0.97300 0.28841 0.34429 0.07500
C 	C 	0.91990 0.31053 0.36626 -0.12200
C 	C 	0.01640 0.31489 0.23624 -0.11100
C 	C 	0.05430 0.30726 0.26399 0.06100
C 	C 	0.03180 0.22440 0.26036 0.05800
C 	C 	0.99430 0.22840 0.23256 -0.10700
C 	C 	0.98980 0.27460 0.21984 0.04600
C 	C 	0.90690 0.37934 0.10644 -0.11100
C 	C 	0.89360 0.42442 0.09389 0.06500
C 	C 	0.90330 0.46202 0.13866 0.05900
C 	C 	0.91770 0.41749 0.15265 -0.11000
C 	C 	0.91840 0.37528 0.13612 0.05000
C 	C 	0.92840 0.32675 0.14994 0.10100
C 	C 	0.95940 0.27983 0.18893 0.10500
C 	C 	0.92620 0.24481 0.14582 0.10400
C 	C 	0.91350 0.20052 0.12793 0.04600
C 	C 	0.92720 0.15422 0.14006 -0.10800
C 	C 	0.91310 0.11377 0.12278 0.05400
C 	C 	0.87190 0.16125 0.08333 0.06800
C 	C 	0.88680 0.20361 0.09863 -0.11500
C 	C 	0.46110 0.08255 0.89689 0.06300
C 	C 	0.36820 0.10090 0.90085 -0.11900
C 	C 	0.32250 0.09559 0.92774 0.04800
C 	C 	0.37440 0.07234 0.94984 -0.12200
C 	C 	0.46760 0.05569 0.94413 0.07400
C 	C 	0.06880 0.06700 0.00566 -0.11500
C 	C 	0.01390 0.05347 0.02990 0.06300
C 	C 	0.87900 0.09363 0.01225 0.06400
C 	C 	0.92870 0.10857 0.98736 -0.10900
C 	C 	0.02670 0.09544 0.98426 0.04700
C 	C 	0.22060 0.11145 0.93173 0.09700
C 	C 	0.08220 0.11093 0.95814 0.10300
C 	C 	0.08360 0.14531 0.91378 0.10800
C 	C 	0.03100 0.16925 0.88932 0.06200
C 	C 	0.92990 0.17042 0.88920 -0.11400
C 	C 	0.88220 0.19241 0.86628 0.07100
C 	C 	0.02700 0.21159 0.84429 0.07600
C 	C 	0.08010 0.18947 0.86626 -0.12300
C 	C 	0.98360 0.18511 0.73624 -0.11200
C 	C 	0.94570 0.19274 0.76399 0.06100
C 	C 	0.96820 0.27560 0.76036 0.05700
C 	C 	0.00570 0.27160 0.73256 -0.10700
C 	C 	0.01020 0.22540 0.71984 0.04600
C 	C 	0.09310 0.12066 0.60644 -0.11100
C 	C 	0.10640 0.07558 0.59389 0.06600
C 	C 	0.09670 0.03798 0.63866 0.05900
C 	C 	0.08230 0.08251 0.65265 -0.11000
C 	C 	0.08160 0.12472 0.63612 0.05000
C 	C 	0.07160 0.17325 0.64994 0.10100
C 	C 	0.04060 0.22017 0.68893 0.10500
C 	C 	0.07380 0.25519 0.64582 0.10400
C 	C 	0.08650 0.29948 0.62793 0.04600
C 	C 	0.07280 0.34578 0.64006 -0.10800
C 	C 	0.08690 0.38623 0.62278 0.05400
C 	C 	0.12810 0.33875 0.58333 0.06800
C 	C 	0.11320 0.29639 0.59863 -0.11500
I 	I 	0.80191 0.69293 0.19628 -0.36600
I 	I 	0.43310 0.01486 0.40158 -0.36500
I 	I 	0.77326 0.51291 0.04104 -0.38700
I 	I 	0.16477 0.93673 0.43787 -0.37900
I 	I 	0.67120 0.83676 0.17830 -0.37500
I 	I 	0.76981 0.58019 0.12924 -0.36700
I 	I 	0.19809 0.80707 0.69628 -0.36600
I 	I 	0.56690 0.48514 0.90158 -0.36500
I 	I 	0.22674 0.98709 0.54104 -0.38700
I 	I 	0.83523 0.56327 0.93787 -0.37900
I 	I 	0.32880 0.66324 0.67830 -0.37500
I 	I 	0.23019 0.91981 0.62924 -0.36700
I 	I 	0.30191 0.30707 0.30372 -0.36600
I 	I 	0.93310 0.98514 0.09842 -0.36500
I 	I 	0.27326 0.48709 0.45896 -0.38700
I 	I 	0.66477 0.06327 0.06213 -0.37900
I 	I 	0.17120 0.16324 0.32170 -0.37500
I 	I 	0.26981 0.41981 0.37076 -0.36700
I 	I 	0.69809 0.19293 0.80372 -0.36600
I 	I 	0.06690 0.51486 0.59842 -0.36500
I 	I 	0.72674 0.01291 0.95896 -0.38700
I 	I 	0.33523 0.43673 0.56213 -0.37900
I 	I 	0.82880 0.33676 0.82170 -0.37500
I 	I 	0.73019 0.08019 0.87076 -0.36700
N 	N 	0.98940 0.56005 0.08165 -0.27200
N 	N 	0.32390 0.59876 0.04317 -0.14300
N 	N 	0.32140 0.63583 0.08998 -0.13500
N 	N 	0.46800 0.63443 0.06257 -0.13700
N 	N 	0.57010 0.71305 0.15571 -0.27500
N 	N 	0.56330 0.73703 0.22443 -0.27000
N 	N 	0.45010 0.67525 0.32168 -0.14000
N 	N 	0.44810 0.76128 0.32611 -0.14000
N 	N 	0.41570 0.71219 0.36746 -0.13900
N 	N 	0.38460 0.88339 0.40534 -0.26900
N 	N 	0.57960 0.56712 0.96673 -0.26900
N 	N 	0.39060 0.53471 0.39036 -0.26900
N 	N 	0.01060 0.93995 0.58165 -0.27300
N 	N 	0.67610 0.90124 0.54317 -0.14300
N 	N 	0.67860 0.86417 0.58998 -0.13500
N 	N 	0.53200 0.86557 0.56257 -0.13700
N 	N 	0.42990 0.78695 0.65571 -0.27500
N 	N 	0.43670 0.76297 0.72443 -0.27000
N 	N 	0.54990 0.82475 0.82168 -0.14000
N 	N 	0.55190 0.73872 0.82611 -0.14000
N 	N 	0.58430 0.78781 0.86746 -0.13900
N 	N 	0.61540 0.61661 0.90534 -0.26900
N 	N 	0.42040 0.93288 0.46673 -0.26900
N 	N 	0.60940 0.96529 0.89036 -0.26800
N 	N 	0.48940 0.43995 0.41835 -0.27300
N 	N 	0.82390 0.40124 0.45683 -0.14300
N 	N 	0.82140 0.36417 0.41002 -0.13500
N 	N 	0.96800 0.36557 0.43743 -0.13800
N 	N 	0.07010 0.28695 0.34429 -0.27500
N 	N 	0.06330 0.26297 0.27557 -0.27000
N 	N 	0.95010 0.32475 0.17832 -0.14000
N 	N 	0.94810 0.23872 0.17389 -0.14000
N 	N 	0.91570 0.28781 0.13254 -0.13900
N 	N 	0.88460 0.11661 0.09466 -0.27000
N 	N 	0.07960 0.43288 0.53327 -0.26900
N 	N 	0.89060 0.46529 0.10964 -0.26900
N 	N 	0.51060 0.06005 0.91835 -0.27300
N 	N 	0.17610 0.09876 0.95683 -0.14300
N 	N 	0.17860 0.13583 0.91002 -0.13500
N 	N 	0.03200 0.13443 0.93743 -0.13700
N 	N 	0.92990 0.21305 0.84429 -0.27600
N 	N 	0.93670 0.23703 0.77557 -0.27000
N 	N 	0.04990 0.17525 0.67832 -0.13900
N 	N 	0.05190 0.26128 0.67389 -0.14000
N 	N 	0.08430 0.21219 0.63254 -0.13900
N 	N 	0.11540 0.38339 0.59466 -0.26900
N 	N 	0.92040 0.06712 0.03327 -0.27000
N 	N 	0.10940 0.03471 0.60964 -0.26800
