data_crystal

_cell_length_a 30.96970
_cell_length_b 30.96970
_cell_length_c 21.30200
_cell_angle_alpha 90.00000
_cell_angle_beta  90.00000
_cell_angle_gamma 90.00000

_symmetry_space_group_name_	'P 1'
_symmetry_space_group_name_H-M	'P 1'

loop_
_symmetry_equiv_pos_as_xyz
  x,y,z

loop_
_atom_site_label
_atom_site_type_symbol
_atom_site_fract_x
_atom_site_fract_y
_atom_site_fract_z
_atom_site_charge
Mo	Mo	0.67712 0.39568 0.02465 0.98500
Mo	Mo	0.53247 0.22168 0.19642 0.98400
Mo	Mo	0.72505 0.36149 0.11683 0.99800
Cu	Cu	0.61611 0.43414 0.21116 0.78300
Cu	Cu	0.58474 0.35526 0.17465 0.77300
I 	I 	0.54248 0.42932 0.14965 -0.59100
I 	I 	0.61855 0.36554 0.28763 -0.53800
P 	P 	0.66813 0.41695 0.13707 -0.68500
P 	P 	0.54132 0.29771 0.17525 -0.36200
P 	P 	0.64554 0.35257 0.11079 -0.08800
P 	P 	0.75247 0.37388 0.01110 -0.35800
P 	P 	0.48250 0.23000 0.28380 0.04200
P 	P 	0.52810 0.28280 0.28060 -0.25000
P 	P 	0.70832 0.32074 0.01690 1.65500
P 	P 	0.74300 0.43310 0.06750 -2.46300
S 	S 	0.50802 0.26181 0.10030 -0.23000
S 	S 	0.68750 0.32020 0.04130 -2.24600
S 	S 	0.72550 0.43696 0.08850 2.44500
C 	C 	0.60420 0.21590 0.04230 -0.88100
H 	H 	0.58010 0.23640 0.04320 0.25700
H 	H 	0.61270 0.21050 0.99870 0.25400
H 	H 	0.62870 0.22800 0.06540 0.28600
C 	C 	0.56450 0.16150 0.24540 -0.00700
C 	C 	0.60470 0.20710 0.18280 -0.15900
H 	H 	0.62670 0.22870 0.16910 0.03600
C 	C 	0.79340 0.34430 0.15490 -0.12300
H 	H 	0.82140 0.35240 0.13460 0.04100
C 	C 	0.66420 0.40790 0.91960 -0.08500
H 	H 	0.68030 0.39580 0.88290 -0.01600
C 	C 	0.56390 0.36910 0.87940 -1.01500
H 	H 	0.54310 0.38890 0.89870 0.29800
H 	H 	0.54860 0.34420 0.86190 0.27500
H 	H 	0.57950 0.38410 0.84580 0.29400
C 	C 	0.77080 0.30460 0.14570 -0.04600
C 	C 	0.78520 0.26870 0.10190 -0.36200
H 	H 	0.79770 0.24510 0.12650 0.12200
H 	H 	0.80690 0.27990 0.07260 0.08800
H 	H 	0.76030 0.25800 0.07820 0.09400
C 	C 	0.59470 0.19750 0.24660 -0.01700
C 	C 	0.55730 0.15180 0.18180 -0.16300
H 	H 	0.53900 0.12740 0.16670 0.04600
C 	C 	0.58340 0.17800 0.14220 -0.19800
C 	C 	0.77270 0.36780 0.20390 -0.25400
C 	C 	0.54960 0.15460 0.03960 -0.79400
H 	H 	0.52560 0.17510 0.04300 0.22500
H 	H 	0.54170 0.12740 0.05980 0.24100
H 	H 	0.55610 0.14940 0.99520 0.21700
C 	C 	0.81920 0.43350 0.19680 -0.98900
H 	H 	0.84320 0.41560 0.18210 0.30800
H 	H 	0.83040 0.45810 0.22050 0.28500
H 	H 	0.80260 0.44400 0.16070 0.28500
C 	C 	0.62530 0.13920 0.06430 -0.78500
H 	H 	0.65230 0.14920 0.08330 0.23300
H 	H 	0.62990 0.13380 0.01940 0.22200
H 	H 	0.61610 0.11240 0.08470 0.23600
C 	C 	0.54650 0.13860 0.30040 -0.41900
H 	H 	0.56390 0.11290 0.30920 0.13900
H 	H 	0.51670 0.13000 0.29150 0.11800
H 	H 	0.54700 0.15780 0.33700 0.13300
C 	C 	0.61260 0.42480 0.99050 -0.07600
H 	H 	0.58630 0.42620 0.01760 0.00300
C 	C 	0.62190 0.38950 0.95130 -0.34000
C 	C 	0.66900 0.44860 0.94650 -0.15100
C 	C 	0.73470 0.30450 0.18680 0.02500
C 	C 	0.59030 0.17380 0.07260 0.53800
C 	C 	0.61370 0.21760 0.30430 -0.43800
H 	H 	0.64290 0.20640 0.31080 0.15600
H 	H 	0.59570 0.21050 0.34070 0.13900
H 	H 	0.61480 0.24900 0.29900 0.13000
C 	C 	0.75370 0.43430 0.26390 -0.93100
H 	H 	0.73600 0.41690 0.29250 0.29000
H 	H 	0.73570 0.44450 0.22890 0.24000
H 	H 	0.76550 0.45920 0.28650 0.28000
C 	C 	0.81740 0.38940 0.29120 -0.97000
H 	H 	0.84190 0.37340 0.27390 0.31100
H 	H 	0.79980 0.37000 0.31710 0.29100
H 	H 	0.82800 0.41330 0.31710 0.28200
C 	C 	0.79030 0.40700 0.23850 0.67400
C 	C 	0.73590 0.34330 0.22150 -0.15300
H 	H 	0.71580 0.35070 0.25670 0.04000
C 	C 	0.70320 0.26720 0.19420 -0.45600
H 	H 	0.71580 0.24520 0.22170 0.15800
H 	H 	0.69720 0.25450 0.15290 0.16100
H 	H 	0.67620 0.27780 0.21260 0.14100
C 	C 	0.57320 0.33910 0.98060 -1.33700
H 	H 	0.56490 0.36370 0.00690 0.38900
H 	H 	0.59140 0.31940 0.00500 0.40800
H 	H 	0.54720 0.32390 0.96650 0.38000
C 	C 	0.59600 0.35380 0.92900 0.82900
C 	C 	0.63860 0.50380 0.02400 -0.33100
H 	H 	0.62130 0.52450 0.99990 0.09900
H 	H 	0.66800 0.51510 0.02920 0.05900
H 	H 	0.62550 0.49950 0.06540 0.05900
C 	C 	0.64050 0.45710 0.98610 -0.03000
C 	C 	0.62980 0.32290 0.88790 -0.88900
H 	H 	0.63340 0.29510 0.90930 0.25400
H 	H 	0.65780 0.33730 0.88450 0.24800
H 	H 	0.61800 0.31800 0.84580 0.24400
Mo	Mo	0.17712 0.89568 0.52465 0.98600
Mo	Mo	0.03247 0.72168 0.69642 0.98500
Mo	Mo	0.22505 0.86149 0.61683 0.99800
Cu	Cu	0.11611 0.93414 0.71116 0.78300
Cu	Cu	0.08474 0.85526 0.67465 0.77300
I 	I 	0.04248 0.92932 0.64965 -0.59100
I 	I 	0.11855 0.86554 0.78763 -0.53800
P 	P 	0.16813 0.91695 0.63707 -0.68500
P 	P 	0.04132 0.79771 0.67525 -0.36200
P 	P 	0.14554 0.85257 0.61079 -0.08800
P 	P 	0.25247 0.87388 0.51110 -0.35800
P 	P 	0.98250 0.73000 0.78380 0.04200
P 	P 	0.02810 0.78280 0.78060 -0.25000
P 	P 	0.20832 0.82074 0.51690 1.65500
P 	P 	0.24300 0.93310 0.56750 -2.46300
S 	S 	0.00802 0.76181 0.60030 -0.22700
S 	S 	0.18750 0.82020 0.54130 -2.24600
S 	S 	0.22550 0.93696 0.58850 2.44500
C 	C 	0.10420 0.71590 0.54230 -0.88000
H 	H 	0.08010 0.73640 0.54320 0.25600
H 	H 	0.11270 0.71050 0.49870 0.25400
H 	H 	0.12870 0.72800 0.56540 0.28500
C 	C 	0.06450 0.66150 0.74540 -0.00700
C 	C 	0.10470 0.70710 0.68280 -0.15900
H 	H 	0.12670 0.72870 0.66910 0.03600
C 	C 	0.29340 0.84430 0.65490 -0.12300
H 	H 	0.32140 0.85240 0.63460 0.04100
C 	C 	0.16420 0.90790 0.41960 -0.08500
H 	H 	0.18030 0.89580 0.38290 -0.01600
C 	C 	0.06390 0.86910 0.37940 -1.01600
H 	H 	0.04310 0.88890 0.39870 0.29800
H 	H 	0.04860 0.84420 0.36190 0.27600
H 	H 	0.07950 0.88410 0.34580 0.29400
C 	C 	0.27080 0.80460 0.64570 -0.04600
C 	C 	0.28520 0.76870 0.60190 -0.36200
H 	H 	0.29770 0.74510 0.62650 0.12200
H 	H 	0.30690 0.77990 0.57260 0.08800
H 	H 	0.26030 0.75800 0.57820 0.09400
C 	C 	0.09470 0.69750 0.74660 -0.01700
C 	C 	0.05730 0.65180 0.68180 -0.16400
H 	H 	0.03900 0.62740 0.66670 0.04600
C 	C 	0.08340 0.67800 0.64220 -0.19800
C 	C 	0.27270 0.86780 0.70390 -0.25400
C 	C 	0.04960 0.65460 0.53960 -0.79300
H 	H 	0.02560 0.67510 0.54300 0.22500
H 	H 	0.04170 0.62740 0.55980 0.24100
H 	H 	0.05610 0.64940 0.49520 0.21600
C 	C 	0.31920 0.93350 0.69680 -0.98900
H 	H 	0.34320 0.91560 0.68210 0.30800
H 	H 	0.33040 0.95810 0.72050 0.28500
H 	H 	0.30260 0.94400 0.66070 0.28500
C 	C 	0.12530 0.63920 0.56430 -0.78500
H 	H 	0.15230 0.64920 0.58330 0.23300
H 	H 	0.12990 0.63380 0.51940 0.22200
H 	H 	0.11610 0.61240 0.58470 0.23600
C 	C 	0.04650 0.63860 0.80040 -0.42000
H 	H 	0.06390 0.61290 0.80920 0.13900
H 	H 	0.01670 0.63000 0.79150 0.11800
H 	H 	0.04700 0.65780 0.83700 0.13300
C 	C 	0.11260 0.92480 0.49050 -0.07600
H 	H 	0.08630 0.92620 0.51760 0.00300
C 	C 	0.12190 0.88950 0.45130 -0.34100
C 	C 	0.16900 0.94860 0.44650 -0.15100
C 	C 	0.23470 0.80450 0.68680 0.02600
C 	C 	0.09030 0.67380 0.57260 0.53800
C 	C 	0.11370 0.71760 0.80430 -0.43800
H 	H 	0.14290 0.70640 0.81080 0.15600
H 	H 	0.09570 0.71050 0.84070 0.13900
H 	H 	0.11480 0.74900 0.79900 0.13000
C 	C 	0.25370 0.93430 0.76390 -0.93000
H 	H 	0.23600 0.91690 0.79250 0.29000
H 	H 	0.23570 0.94450 0.72890 0.24000
H 	H 	0.26550 0.95920 0.78650 0.28000
C 	C 	0.31740 0.88940 0.79120 -0.97000
H 	H 	0.34190 0.87340 0.77390 0.31100
H 	H 	0.29980 0.87000 0.81710 0.29100
H 	H 	0.32800 0.91330 0.81710 0.28200
C 	C 	0.29030 0.90700 0.73850 0.67400
C 	C 	0.23590 0.84330 0.72150 -0.15300
H 	H 	0.21580 0.85070 0.75670 0.04000
C 	C 	0.20320 0.76720 0.69420 -0.45600
H 	H 	0.21580 0.74520 0.72170 0.15800
H 	H 	0.19720 0.75450 0.65290 0.16100
H 	H 	0.17620 0.77780 0.71260 0.14100
C 	C 	0.07320 0.83910 0.48060 -1.33700
H 	H 	0.06490 0.86370 0.50690 0.38900
H 	H 	0.09140 0.81940 0.50500 0.40800
H 	H 	0.04720 0.82390 0.46650 0.38100
C 	C 	0.09600 0.85380 0.42900 0.83000
C 	C 	0.13860 0.00380 0.52400 -0.33200
H 	H 	0.12130 0.02450 0.49990 0.09900
H 	H 	0.16800 0.01510 0.52920 0.05900
H 	H 	0.12550 0.99950 0.56540 0.05900
C 	C 	0.14050 0.95710 0.48610 -0.03000
C 	C 	0.12980 0.82290 0.38790 -0.88900
H 	H 	0.13340 0.79510 0.40930 0.25400
H 	H 	0.15780 0.83730 0.38450 0.24800
H 	H 	0.11800 0.81800 0.34580 0.24400
Mo	Mo	0.82288 0.60432 0.52465 0.98600
Mo	Mo	0.96753 0.77832 0.69642 0.98500
Mo	Mo	0.77495 0.63851 0.61683 0.99800
Cu	Cu	0.88389 0.56586 0.71116 0.78300
Cu	Cu	0.91526 0.64474 0.67465 0.77300
I 	I 	0.95752 0.57068 0.64965 -0.59100
I 	I 	0.88145 0.63446 0.78763 -0.53800
P 	P 	0.83187 0.58305 0.63707 -0.68500
P 	P 	0.95868 0.70229 0.67525 -0.36100
P 	P 	0.85446 0.64743 0.61079 -0.08800
P 	P 	0.74753 0.62612 0.51110 -0.35800
P 	P 	0.01750 0.77000 0.78380 0.04200
P 	P 	0.97190 0.71720 0.78060 -0.25100
P 	P 	0.79168 0.67926 0.51690 1.65500
P 	P 	0.75700 0.56690 0.56750 -2.46300
S 	S 	0.99198 0.73819 0.60030 -0.23200
S 	S 	0.81250 0.67980 0.54130 -2.24600
S 	S 	0.77450 0.56304 0.58850 2.44500
C 	C 	0.89580 0.78410 0.54230 -0.88000
H 	H 	0.91990 0.76360 0.54320 0.25600
H 	H 	0.88730 0.78950 0.49870 0.25400
H 	H 	0.87130 0.77200 0.56540 0.28500
C 	C 	0.93550 0.83850 0.74540 -0.00700
C 	C 	0.89530 0.79290 0.68280 -0.15900
H 	H 	0.87330 0.77130 0.66910 0.03600
C 	C 	0.70660 0.65570 0.65490 -0.12300
H 	H 	0.67860 0.64760 0.63460 0.04100
C 	C 	0.83580 0.59210 0.41960 -0.08500
H 	H 	0.81970 0.60420 0.38290 -0.01600
C 	C 	0.93610 0.63090 0.37940 -1.01600
H 	H 	0.95690 0.61110 0.39870 0.29800
H 	H 	0.95140 0.65580 0.36190 0.27500
H 	H 	0.92050 0.61590 0.34580 0.29400
C 	C 	0.72920 0.69540 0.64570 -0.04600
C 	C 	0.71480 0.73130 0.60190 -0.36200
H 	H 	0.70230 0.75490 0.62650 0.12200
H 	H 	0.69310 0.72010 0.57260 0.08800
H 	H 	0.73970 0.74200 0.57820 0.09400
C 	C 	0.90530 0.80250 0.74660 -0.01700
C 	C 	0.94270 0.84820 0.68180 -0.16400
H 	H 	0.96100 0.87260 0.66670 0.04600
C 	C 	0.91660 0.82200 0.64220 -0.19800
C 	C 	0.72730 0.63220 0.70390 -0.25400
C 	C 	0.95040 0.84540 0.53960 -0.79300
H 	H 	0.97440 0.82490 0.54300 0.22400
H 	H 	0.95830 0.87260 0.55980 0.24000
H 	H 	0.94390 0.85060 0.49520 0.21600
C 	C 	0.68080 0.56650 0.69680 -0.98900
H 	H 	0.65680 0.58440 0.68210 0.30800
H 	H 	0.66960 0.54190 0.72050 0.28500
H 	H 	0.69740 0.55600 0.66070 0.28500
C 	C 	0.87470 0.86080 0.56430 -0.78500
H 	H 	0.84770 0.85080 0.58330 0.23300
H 	H 	0.87010 0.86620 0.51940 0.22200
H 	H 	0.88390 0.88760 0.58470 0.23600
C 	C 	0.95350 0.86140 0.80040 -0.41900
H 	H 	0.93610 0.88710 0.80920 0.13900
H 	H 	0.98330 0.87000 0.79150 0.11800
H 	H 	0.95300 0.84220 0.83700 0.13200
C 	C 	0.88740 0.57520 0.49050 -0.07600
H 	H 	0.91370 0.57380 0.51760 0.00300
C 	C 	0.87810 0.61050 0.45130 -0.34100
C 	C 	0.83100 0.55140 0.44650 -0.15100
C 	C 	0.76530 0.69550 0.68680 0.02500
C 	C 	0.90970 0.82620 0.57260 0.53700
C 	C 	0.88630 0.78240 0.80430 -0.43800
H 	H 	0.85710 0.79360 0.81080 0.15600
H 	H 	0.90430 0.78950 0.84070 0.13900
H 	H 	0.88520 0.75100 0.79900 0.13000
C 	C 	0.74630 0.56570 0.76390 -0.93100
H 	H 	0.76400 0.58310 0.79250 0.29000
H 	H 	0.76430 0.55550 0.72890 0.24000
H 	H 	0.73450 0.54080 0.78650 0.28000
C 	C 	0.68260 0.61060 0.79120 -0.97000
H 	H 	0.65810 0.62660 0.77390 0.31100
H 	H 	0.70020 0.63000 0.81710 0.29100
H 	H 	0.67200 0.58670 0.81710 0.28200
C 	C 	0.70970 0.59300 0.73850 0.67400
C 	C 	0.76410 0.65670 0.72150 -0.15300
H 	H 	0.78420 0.64930 0.75670 0.04000
C 	C 	0.79680 0.73280 0.69420 -0.45600
H 	H 	0.78420 0.75480 0.72170 0.15800
H 	H 	0.80280 0.74550 0.65290 0.16100
H 	H 	0.82380 0.72220 0.71260 0.14100
C 	C 	0.92680 0.66090 0.48060 -1.33700
H 	H 	0.93510 0.63630 0.50690 0.38900
H 	H 	0.90860 0.68060 0.50500 0.40900
H 	H 	0.95280 0.67610 0.46650 0.38100
C 	C 	0.90400 0.64620 0.42900 0.83000
C 	C 	0.86140 0.49620 0.52400 -0.33100
H 	H 	0.87870 0.47550 0.49990 0.09900
H 	H 	0.83200 0.48490 0.52920 0.05800
H 	H 	0.87450 0.50050 0.56540 0.05900
C 	C 	0.85950 0.54290 0.48610 -0.03000
C 	C 	0.87020 0.67710 0.38790 -0.88900
H 	H 	0.86660 0.70490 0.40930 0.25400
H 	H 	0.84220 0.66270 0.38450 0.24800
H 	H 	0.88200 0.68200 0.34580 0.24400
Mo	Mo	0.32288 0.10432 0.02465 0.98600
Mo	Mo	0.46753 0.27832 0.19642 0.98500
Mo	Mo	0.27495 0.13851 0.11683 0.99800
Cu	Cu	0.38389 0.06586 0.21116 0.78300
Cu	Cu	0.41526 0.14474 0.17465 0.77300
I 	I 	0.45752 0.07068 0.14965 -0.59100
I 	I 	0.38145 0.13446 0.28763 -0.53800
P 	P 	0.33187 0.08305 0.13707 -0.68500
P 	P 	0.45868 0.20229 0.17525 -0.36200
P 	P 	0.35446 0.14743 0.11079 -0.08800
P 	P 	0.24753 0.12612 0.01110 -0.35800
P 	P 	0.51750 0.27000 0.28380 0.04200
P 	P 	0.47190 0.21720 0.28060 -0.25000
P 	P 	0.29168 0.17926 0.01690 1.65500
P 	P 	0.25700 0.06690 0.06750 -2.46300
S 	S 	0.49198 0.23819 0.10030 -0.23000
S 	S 	0.31250 0.17980 0.04130 -2.24600
S 	S 	0.27450 0.06304 0.08850 2.44500
C 	C 	0.39580 0.28410 0.04230 -0.88000
H 	H 	0.41990 0.26360 0.04320 0.25700
H 	H 	0.38730 0.28950 0.99870 0.25400
H 	H 	0.37130 0.27200 0.06540 0.28500
C 	C 	0.43550 0.33850 0.24540 -0.00700
C 	C 	0.39530 0.29290 0.18280 -0.15900
H 	H 	0.37330 0.27130 0.16910 0.03600
C 	C 	0.20660 0.15570 0.15490 -0.12300
H 	H 	0.17860 0.14760 0.13460 0.04100
C 	C 	0.33580 0.09210 0.91960 -0.08500
H 	H 	0.31970 0.10420 0.88290 -0.01500
C 	C 	0.43610 0.13090 0.87940 -1.01500
H 	H 	0.45690 0.11110 0.89870 0.29800
H 	H 	0.45140 0.15580 0.86190 0.27500
H 	H 	0.42050 0.11590 0.84580 0.29400
C 	C 	0.22920 0.19540 0.14570 -0.04600
C 	C 	0.21480 0.23130 0.10190 -0.36200
H 	H 	0.20230 0.25490 0.12650 0.12200
H 	H 	0.19310 0.22010 0.07260 0.08800
H 	H 	0.23970 0.24200 0.07820 0.09400
C 	C 	0.40530 0.30250 0.24660 -0.01700
C 	C 	0.44270 0.34820 0.18180 -0.16400
H 	H 	0.46100 0.37260 0.16670 0.04600
C 	C 	0.41660 0.32200 0.14220 -0.19800
C 	C 	0.22730 0.13220 0.20390 -0.25400
C 	C 	0.45040 0.34540 0.03960 -0.79300
H 	H 	0.47440 0.32490 0.04300 0.22500
H 	H 	0.45830 0.37260 0.05980 0.24100
H 	H 	0.44390 0.35060 0.99520 0.21600
C 	C 	0.18080 0.06650 0.19680 -0.98900
H 	H 	0.15680 0.08440 0.18210 0.30800
H 	H 	0.16960 0.04190 0.22050 0.28500
H 	H 	0.19740 0.05600 0.16070 0.28500
C 	C 	0.37470 0.36080 0.06430 -0.78500
H 	H 	0.34770 0.35080 0.08330 0.23300
H 	H 	0.37010 0.36620 0.01940 0.22200
H 	H 	0.38390 0.38760 0.08470 0.23600
C 	C 	0.45350 0.36140 0.30040 -0.41900
H 	H 	0.43610 0.38710 0.30920 0.13900
H 	H 	0.48330 0.37000 0.29150 0.11800
H 	H 	0.45300 0.34220 0.33700 0.13300
C 	C 	0.38740 0.07520 0.99050 -0.07500
H 	H 	0.41370 0.07380 0.01760 0.00300
C 	C 	0.37810 0.11050 0.95130 -0.34000
C 	C 	0.33100 0.05140 0.94650 -0.15000
C 	C 	0.26530 0.19550 0.18680 0.02600
C 	C 	0.40970 0.32620 0.07260 0.53800
C 	C 	0.38630 0.28240 0.30430 -0.43800
H 	H 	0.35710 0.29360 0.31080 0.15600
H 	H 	0.40430 0.28950 0.34070 0.13900
H 	H 	0.38520 0.25100 0.29900 0.13000
C 	C 	0.24630 0.06570 0.26390 -0.93000
H 	H 	0.26400 0.08310 0.29250 0.29000
H 	H 	0.26430 0.05550 0.22890 0.24000
H 	H 	0.23450 0.04080 0.28650 0.28000
C 	C 	0.18260 0.11060 0.29120 -0.96900
H 	H 	0.15810 0.12660 0.27390 0.31100
H 	H 	0.20020 0.13000 0.31710 0.29100
H 	H 	0.17200 0.08670 0.31710 0.28200
C 	C 	0.20970 0.09300 0.23850 0.67300
C 	C 	0.26410 0.15670 0.22150 -0.15300
H 	H 	0.28420 0.14930 0.25670 0.04000
C 	C 	0.29680 0.23280 0.19420 -0.45600
H 	H 	0.28420 0.25480 0.22170 0.15800
H 	H 	0.30280 0.24550 0.15290 0.16100
H 	H 	0.32380 0.22220 0.21260 0.14100
C 	C 	0.42680 0.16090 0.98060 -1.33600
H 	H 	0.43510 0.13630 0.00690 0.38900
H 	H 	0.40860 0.18060 0.00500 0.40800
H 	H 	0.45280 0.17610 0.96650 0.38000
C 	C 	0.40400 0.14620 0.92900 0.82900
C 	C 	0.36140 0.99620 0.02400 -0.32900
H 	H 	0.37870 0.97550 0.99990 0.09800
H 	H 	0.33200 0.98490 0.02920 0.05800
H 	H 	0.37450 0.00050 0.06540 0.05800
C 	C 	0.35950 0.04290 0.98610 -0.03100
C 	C 	0.37020 0.17710 0.88790 -0.88900
H 	H 	0.36660 0.20490 0.90930 0.25400
H 	H 	0.34220 0.16270 0.88450 0.24800
H 	H 	0.38200 0.18200 0.84580 0.24400
Mo	Mo	0.35432 0.92712 0.27465 0.98600
Mo	Mo	0.52832 0.78247 0.44642 0.98500
Mo	Mo	0.38851 0.97505 0.36683 0.99800
Cu	Cu	0.31586 0.86611 0.46116 0.78300
Cu	Cu	0.39474 0.83474 0.42465 0.77300
I 	I 	0.32068 0.79248 0.39965 -0.59100
I 	I 	0.38446 0.86855 0.53763 -0.53800
P 	P 	0.33305 0.91813 0.38707 -0.68500
P 	P 	0.45229 0.79132 0.42525 -0.36200
P 	P 	0.39743 0.89554 0.36079 -0.08800
P 	P 	0.37612 0.00247 0.26110 -0.35900
P 	P 	0.52000 0.73250 0.53380 0.04200
P 	P 	0.46720 0.77810 0.53060 -0.25000
P 	P 	0.42926 0.95832 0.26690 1.65500
P 	P 	0.31690 0.99300 0.31750 -2.46300
S 	S 	0.48819 0.75802 0.35030 -0.23000
S 	S 	0.42980 0.93750 0.29130 -2.24600
S 	S 	0.31304 0.97550 0.33850 2.44500
C 	C 	0.53410 0.85420 0.29230 -0.88000
H 	H 	0.51360 0.83010 0.29320 0.25600
H 	H 	0.53950 0.86270 0.24870 0.25400
H 	H 	0.52200 0.87870 0.31540 0.28500
C 	C 	0.58850 0.81450 0.49540 -0.00700
C 	C 	0.54290 0.85470 0.43280 -0.15900
H 	H 	0.52130 0.87670 0.41910 0.03600
C 	C 	0.40570 0.04340 0.40490 -0.12300
H 	H 	0.39760 0.07140 0.38460 0.04100
C 	C 	0.34210 0.91420 0.16960 -0.08500
H 	H 	0.35420 0.93030 0.13290 -0.01500
C 	C 	0.38090 0.81390 0.12940 -1.01600
H 	H 	0.36110 0.79310 0.14870 0.29800
H 	H 	0.40580 0.79860 0.11190 0.27600
H 	H 	0.36590 0.82950 0.09580 0.29400
C 	C 	0.44540 0.02080 0.39570 -0.04600
C 	C 	0.48130 0.03520 0.35190 -0.36200
H 	H 	0.50490 0.04770 0.37650 0.12200
H 	H 	0.47010 0.05690 0.32260 0.08800
H 	H 	0.49200 0.01030 0.32820 0.09400
C 	C 	0.55250 0.84470 0.49660 -0.01700
C 	C 	0.59820 0.80730 0.43180 -0.16400
H 	H 	0.62260 0.78900 0.41670 0.04600
C 	C 	0.57200 0.83340 0.39220 -0.19800
C 	C 	0.38220 0.02270 0.45390 -0.25500
C 	C 	0.59540 0.79960 0.28960 -0.79300
H 	H 	0.57490 0.77560 0.29300 0.22500
H 	H 	0.62260 0.79170 0.30980 0.24000
H 	H 	0.60060 0.80610 0.24520 0.21600
C 	C 	0.31650 0.06920 0.44680 -0.98900
H 	H 	0.33440 0.09320 0.43210 0.30800
H 	H 	0.29190 0.08040 0.47050 0.28500
H 	H 	0.30600 0.05260 0.41070 0.28500
C 	C 	0.61080 0.87530 0.31430 -0.78500
H 	H 	0.60080 0.90230 0.33330 0.23300
H 	H 	0.61620 0.87990 0.26940 0.22200
H 	H 	0.63760 0.86610 0.33470 0.23600
C 	C 	0.61140 0.79650 0.55040 -0.42000
H 	H 	0.63710 0.81390 0.55920 0.13900
H 	H 	0.62000 0.76670 0.54150 0.11800
H 	H 	0.59220 0.79700 0.58700 0.13300
C 	C 	0.32520 0.86260 0.24050 -0.07600
H 	H 	0.32380 0.83630 0.26760 0.00300
C 	C 	0.36050 0.87190 0.20130 -0.34100
C 	C 	0.30140 0.91900 0.19650 -0.15000
C 	C 	0.44550 0.98470 0.43680 0.02600
C 	C 	0.57620 0.84030 0.32260 0.53800
C 	C 	0.53240 0.86370 0.55430 -0.43800
H 	H 	0.54360 0.89290 0.56080 0.15600
H 	H 	0.53950 0.84570 0.59070 0.13900
H 	H 	0.50100 0.86480 0.54900 0.13000
C 	C 	0.31570 0.00370 0.51390 -0.93100
H 	H 	0.33310 0.98600 0.54250 0.29000
H 	H 	0.30550 0.98570 0.47890 0.24000
H 	H 	0.29080 0.01550 0.53650 0.28000
C 	C 	0.36060 0.06740 0.54120 -0.97000
H 	H 	0.37660 0.09190 0.52390 0.31100
H 	H 	0.38000 0.04980 0.56710 0.29100
H 	H 	0.33670 0.07800 0.56710 0.28200
C 	C 	0.34300 0.04030 0.48850 0.67400
C 	C 	0.40670 0.98590 0.47150 -0.15300
H 	H 	0.39930 0.96580 0.50670 0.04000
C 	C 	0.48280 0.95320 0.44420 -0.45600
H 	H 	0.50480 0.96580 0.47170 0.15800
H 	H 	0.49550 0.94720 0.40290 0.16100
H 	H 	0.47220 0.92620 0.46260 0.14100
C 	C 	0.41090 0.82320 0.23060 -1.33700
H 	H 	0.38630 0.81490 0.25690 0.38900
H 	H 	0.43060 0.84140 0.25500 0.40900
H 	H 	0.42610 0.79720 0.21650 0.38100
C 	C 	0.39620 0.84600 0.17900 0.83000
C 	C 	0.24620 0.88860 0.27400 -0.33100
H 	H 	0.22550 0.87130 0.24990 0.09900
H 	H 	0.23490 0.91800 0.27920 0.05800
H 	H 	0.25050 0.87550 0.31540 0.05900
C 	C 	0.29290 0.89050 0.23610 -0.03000
C 	C 	0.42710 0.87980 0.13790 -0.88900
H 	H 	0.45490 0.88340 0.15930 0.25400
H 	H 	0.41270 0.90780 0.13450 0.24900
H 	H 	0.43200 0.86800 0.09580 0.24400
Mo	Mo	0.85432 0.42712 0.77465 0.98600
Mo	Mo	0.02832 0.28247 0.94642 0.98500
Mo	Mo	0.88851 0.47505 0.86683 0.99800
Cu	Cu	0.81586 0.36611 0.96116 0.78300
Cu	Cu	0.89474 0.33474 0.92465 0.77300
I 	I 	0.82068 0.29248 0.89965 -0.59100
I 	I 	0.88446 0.36855 0.03763 -0.53700
P 	P 	0.83305 0.41813 0.88707 -0.68500
P 	P 	0.95229 0.29132 0.92525 -0.36200
P 	P 	0.89743 0.39554 0.86079 -0.08800
P 	P 	0.87612 0.50247 0.76110 -0.35800
P 	P 	0.02000 0.23250 0.03380 0.04200
P 	P 	0.96720 0.27810 0.03060 -0.25000
P 	P 	0.92926 0.45832 0.76690 1.65500
P 	P 	0.81690 0.49300 0.81750 -2.46300
S 	S 	0.98819 0.25802 0.85030 -0.22800
S 	S 	0.92980 0.43750 0.79130 -2.24600
S 	S 	0.81304 0.47550 0.83850 2.44500
C 	C 	0.03410 0.35420 0.79230 -0.88000
H 	H 	0.01360 0.33010 0.79320 0.25600
H 	H 	0.03950 0.36270 0.74870 0.25400
H 	H 	0.02200 0.37870 0.81540 0.28500
C 	C 	0.08850 0.31450 0.99540 -0.00600
C 	C 	0.04290 0.35470 0.93280 -0.15900
H 	H 	0.02130 0.37670 0.91910 0.03600
C 	C 	0.90570 0.54340 0.90490 -0.12300
H 	H 	0.89760 0.57140 0.88460 0.04100
C 	C 	0.84210 0.41420 0.66960 -0.08500
H 	H 	0.85420 0.43030 0.63290 -0.01600
C 	C 	0.88090 0.31390 0.62940 -1.01600
H 	H 	0.86110 0.29310 0.64870 0.29800
H 	H 	0.90580 0.29860 0.61190 0.27500
H 	H 	0.86590 0.32950 0.59580 0.29400
C 	C 	0.94540 0.52080 0.89570 -0.04600
C 	C 	0.98130 0.53520 0.85190 -0.36200
H 	H 	0.00490 0.54770 0.87650 0.12200
H 	H 	0.97010 0.55690 0.82260 0.08800
H 	H 	0.99200 0.51030 0.82820 0.09400
C 	C 	0.05250 0.34470 0.99660 -0.01700
C 	C 	0.09820 0.30730 0.93180 -0.16400
H 	H 	0.12260 0.28900 0.91670 0.04600
C 	C 	0.07200 0.33340 0.89220 -0.19800
C 	C 	0.88220 0.52270 0.95390 -0.25400
C 	C 	0.09540 0.29960 0.78960 -0.79300
H 	H 	0.07490 0.27560 0.79300 0.22500
H 	H 	0.12260 0.29170 0.80980 0.24100
H 	H 	0.10060 0.30610 0.74520 0.21600
C 	C 	0.81650 0.56920 0.94680 -0.98900
H 	H 	0.83440 0.59320 0.93210 0.30800
H 	H 	0.79190 0.58040 0.97050 0.28500
H 	H 	0.80600 0.55260 0.91070 0.28500
C 	C 	0.11080 0.37530 0.81430 -0.78500
H 	H 	0.10080 0.40230 0.83330 0.23300
H 	H 	0.11620 0.37990 0.76940 0.22200
H 	H 	0.13760 0.36610 0.83470 0.23600
C 	C 	0.11140 0.29650 0.05040 -0.42000
H 	H 	0.13710 0.31390 0.05920 0.13900
H 	H 	0.12000 0.26670 0.04150 0.11800
H 	H 	0.09220 0.29700 0.08700 0.13300
C 	C 	0.82520 0.36260 0.74050 -0.07600
H 	H 	0.82380 0.33630 0.76760 0.00300
C 	C 	0.86050 0.37190 0.70130 -0.34100
C 	C 	0.80140 0.41900 0.69650 -0.15100
C 	C 	0.94550 0.48470 0.93680 0.02600
C 	C 	0.07620 0.34030 0.82260 0.53800
C 	C 	0.03240 0.36370 0.05430 -0.43800
H 	H 	0.04360 0.39290 0.06080 0.15600
H 	H 	0.03950 0.34570 0.09070 0.13900
H 	H 	0.00100 0.36480 0.04900 0.13000
C 	C 	0.81570 0.50370 0.01390 -0.93100
H 	H 	0.83310 0.48600 0.04250 0.29000
H 	H 	0.80550 0.48570 0.97890 0.24000
H 	H 	0.79080 0.51550 0.03650 0.28000
C 	C 	0.86060 0.56740 0.04120 -0.97000
H 	H 	0.87660 0.59190 0.02390 0.31100
H 	H 	0.88000 0.54980 0.06710 0.29100
H 	H 	0.83670 0.57800 0.06710 0.28200
C 	C 	0.84300 0.54030 0.98850 0.67400
C 	C 	0.90670 0.48590 0.97150 -0.15300
H 	H 	0.89930 0.46580 0.00670 0.04000
C 	C 	0.98280 0.45320 0.94420 -0.45600
H 	H 	0.00480 0.46580 0.97170 0.15800
H 	H 	0.99550 0.44720 0.90290 0.16100
H 	H 	0.97220 0.42620 0.96260 0.14200
C 	C 	0.91090 0.32320 0.73060 -1.33700
H 	H 	0.88630 0.31490 0.75690 0.38900
H 	H 	0.93060 0.34140 0.75500 0.40800
H 	H 	0.92610 0.29720 0.71650 0.38100
C 	C 	0.89620 0.34600 0.67900 0.83000
C 	C 	0.74620 0.38860 0.77400 -0.33100
H 	H 	0.72550 0.37130 0.74990 0.09900
H 	H 	0.73490 0.41800 0.77920 0.05800
H 	H 	0.75050 0.37550 0.81540 0.05900
C 	C 	0.79290 0.39050 0.73610 -0.03000
C 	C 	0.92710 0.37980 0.63790 -0.88900
H 	H 	0.95490 0.38340 0.65930 0.25400
H 	H 	0.91270 0.40780 0.63450 0.24800
H 	H 	0.93200 0.36800 0.59580 0.24400
Mo	Mo	0.14568 0.07288 0.77465 0.98600
Mo	Mo	0.97168 0.21753 0.94642 0.98500
Mo	Mo	0.11149 0.02495 0.86683 0.99800
Cu	Cu	0.18414 0.13389 0.96116 0.78300
Cu	Cu	0.10526 0.16526 0.92465 0.77300
I 	I 	0.17932 0.20752 0.89965 -0.59100
I 	I 	0.11554 0.13145 0.03763 -0.53800
P 	P 	0.16695 0.08187 0.88707 -0.68500
P 	P 	0.04771 0.20868 0.92525 -0.36100
P 	P 	0.10257 0.10446 0.86079 -0.08800
P 	P 	0.12388 0.99753 0.76110 -0.35900
P 	P 	0.98000 0.26750 0.03380 0.04200
P 	P 	0.03280 0.22190 0.03060 -0.25100
P 	P 	0.07074 0.04168 0.76690 1.65400
P 	P 	0.18310 0.00700 0.81750 -2.46200
S 	S 	0.01181 0.24198 0.85030 -0.23200
S 	S 	0.07020 0.06250 0.79130 -2.24600
S 	S 	0.18696 0.02450 0.83850 2.44400
C 	C 	0.96590 0.14580 0.79230 -0.88000
H 	H 	0.98640 0.16990 0.79320 0.25700
H 	H 	0.96050 0.13730 0.74870 0.25400
H 	H 	0.97800 0.12130 0.81540 0.28500
C 	C 	0.91150 0.18550 0.99540 -0.00600
C 	C 	0.95710 0.14530 0.93280 -0.15900
H 	H 	0.97870 0.12330 0.91910 0.03600
C 	C 	0.09430 0.95660 0.90490 -0.12300
H 	H 	0.10240 0.92860 0.88460 0.04100
C 	C 	0.15790 0.08580 0.66960 -0.08500
H 	H 	0.14580 0.06970 0.63290 -0.01600
C 	C 	0.11910 0.18610 0.62940 -1.01600
H 	H 	0.13890 0.20690 0.64870 0.29800
H 	H 	0.09420 0.20140 0.61190 0.27500
H 	H 	0.13410 0.17050 0.59580 0.29400
C 	C 	0.05460 0.97920 0.89570 -0.04600
C 	C 	0.01870 0.96480 0.85190 -0.36100
H 	H 	0.99510 0.95230 0.87650 0.12100
H 	H 	0.02990 0.94310 0.82260 0.08800
H 	H 	0.00800 0.98970 0.82820 0.09400
C 	C 	0.94750 0.15530 0.99660 -0.01700
C 	C 	0.90180 0.19270 0.93180 -0.16400
H 	H 	0.87740 0.21100 0.91670 0.04600
C 	C 	0.92800 0.16660 0.89220 -0.19800
C 	C 	0.11780 0.97730 0.95390 -0.25400
C 	C 	0.90460 0.20040 0.78960 -0.79300
H 	H 	0.92510 0.22440 0.79300 0.22500
H 	H 	0.87740 0.20830 0.80980 0.24000
H 	H 	0.89940 0.19390 0.74520 0.21600
C 	C 	0.18350 0.93080 0.94680 -0.98800
H 	H 	0.16560 0.90680 0.93210 0.30700
H 	H 	0.20810 0.91960 0.97050 0.28500
H 	H 	0.19400 0.94740 0.91070 0.28500
C 	C 	0.88920 0.12470 0.81430 -0.78500
H 	H 	0.89920 0.09770 0.83330 0.23300
H 	H 	0.88380 0.12010 0.76940 0.22200
H 	H 	0.86240 0.13390 0.83470 0.23600
C 	C 	0.88860 0.20350 0.05040 -0.42000
H 	H 	0.86290 0.18610 0.05920 0.13900
H 	H 	0.88000 0.23330 0.04150 0.11800
H 	H 	0.90780 0.20300 0.08700 0.13300
C 	C 	0.17480 0.13740 0.74050 -0.07600
H 	H 	0.17620 0.16370 0.76760 0.00300
C 	C 	0.13950 0.12810 0.70130 -0.34100
C 	C 	0.19860 0.08100 0.69650 -0.15100
C 	C 	0.05450 0.01530 0.93680 0.02600
C 	C 	0.92380 0.15970 0.82260 0.53800
C 	C 	0.96760 0.13630 0.05430 -0.43800
H 	H 	0.95640 0.10710 0.06080 0.15600
H 	H 	0.96050 0.15430 0.09070 0.13900
H 	H 	0.99900 0.13520 0.04900 0.13100
C 	C 	0.18430 0.99630 0.01390 -0.92800
H 	H 	0.16690 0.01400 0.04250 0.28900
H 	H 	0.19450 0.01430 0.97890 0.23900
H 	H 	0.20920 0.98450 0.03650 0.27900
C 	C 	0.13940 0.93260 0.04120 -0.96800
H 	H 	0.12340 0.90810 0.02390 0.31000
H 	H 	0.12000 0.95020 0.06710 0.29000
H 	H 	0.16330 0.92200 0.06710 0.28100
C 	C 	0.15700 0.95970 0.98850 0.67200
C 	C 	0.09330 0.01410 0.97150 -0.15300
H 	H 	0.10070 0.03420 0.00670 0.03900
C 	C 	0.01720 0.04680 0.94420 -0.45700
H 	H 	0.99520 0.03420 0.97170 0.15900
H 	H 	0.00450 0.05280 0.90290 0.16100
H 	H 	0.02780 0.07380 0.96260 0.14200
C 	C 	0.08910 0.17680 0.73060 -1.33700
H 	H 	0.11370 0.18510 0.75690 0.38900
H 	H 	0.06940 0.15860 0.75500 0.40800
H 	H 	0.07390 0.20280 0.71650 0.38100
C 	C 	0.10380 0.15400 0.67900 0.83000
C 	C 	0.25380 0.11140 0.77400 -0.33100
H 	H 	0.27450 0.12870 0.74990 0.09900
H 	H 	0.26510 0.08200 0.77920 0.05800
H 	H 	0.24950 0.12450 0.81540 0.05900
C 	C 	0.20710 0.10950 0.73610 -0.03000
C 	C 	0.07290 0.12020 0.63790 -0.88900
H 	H 	0.04510 0.11660 0.65930 0.25400
H 	H 	0.08730 0.09220 0.63450 0.24800
H 	H 	0.06800 0.13200 0.59580 0.24400
Mo	Mo	0.64568 0.57288 0.27465 0.98600
Mo	Mo	0.47168 0.71753 0.44642 0.98500
Mo	Mo	0.61149 0.52495 0.36683 0.99800
Cu	Cu	0.68414 0.63389 0.46116 0.78300
Cu	Cu	0.60526 0.66526 0.42465 0.77300
I 	I 	0.67932 0.70752 0.39965 -0.59100
I 	I 	0.61554 0.63145 0.53763 -0.53800
P 	P 	0.66695 0.58187 0.38707 -0.68500
P 	P 	0.54771 0.70868 0.42525 -0.36200
P 	P 	0.60257 0.60446 0.36079 -0.08800
P 	P 	0.62388 0.49753 0.26110 -0.35800
P 	P 	0.48000 0.76750 0.53380 0.04200
P 	P 	0.53280 0.72190 0.53060 -0.25000
P 	P 	0.57074 0.54168 0.26690 1.65500
P 	P 	0.68310 0.50700 0.31750 -2.46300
S 	S 	0.51181 0.74198 0.35030 -0.23000
S 	S 	0.57020 0.56250 0.29130 -2.24600
S 	S 	0.68696 0.52450 0.33850 2.44500
C 	C 	0.46590 0.64580 0.29230 -0.88000
H 	H 	0.48640 0.66990 0.29320 0.25600
H 	H 	0.46050 0.63730 0.24870 0.25400
H 	H 	0.47800 0.62130 0.31540 0.28500
C 	C 	0.41150 0.68550 0.49540 -0.00700
C 	C 	0.45710 0.64530 0.43280 -0.15900
H 	H 	0.47870 0.62330 0.41910 0.03600
C 	C 	0.59430 0.45660 0.40490 -0.12300
H 	H 	0.60240 0.42860 0.38460 0.04100
C 	C 	0.65790 0.58580 0.16960 -0.08500
H 	H 	0.64580 0.56970 0.13290 -0.01600
C 	C 	0.61910 0.68610 0.12940 -1.01600
H 	H 	0.63890 0.70690 0.14870 0.29800
H 	H 	0.59420 0.70140 0.11190 0.27500
H 	H 	0.63410 0.67050 0.09580 0.29400
C 	C 	0.55460 0.47920 0.39570 -0.04600
C 	C 	0.51870 0.46480 0.35190 -0.36200
H 	H 	0.49510 0.45230 0.37650 0.12200
H 	H 	0.52990 0.44310 0.32260 0.08800
H 	H 	0.50800 0.48970 0.32820 0.09400
C 	C 	0.44750 0.65530 0.49660 -0.01700
C 	C 	0.40180 0.69270 0.43180 -0.16400
H 	H 	0.37740 0.71100 0.41670 0.04600
C 	C 	0.42800 0.66660 0.39220 -0.19800
C 	C 	0.61780 0.47730 0.45390 -0.25400
C 	C 	0.40460 0.70040 0.28960 -0.79300
H 	H 	0.42510 0.72440 0.29300 0.22500
H 	H 	0.37740 0.70830 0.30980 0.24000
H 	H 	0.39940 0.69390 0.24520 0.21600
C 	C 	0.68350 0.43080 0.44680 -0.98900
H 	H 	0.66560 0.40680 0.43210 0.30800
H 	H 	0.70810 0.41960 0.47050 0.28500
H 	H 	0.69400 0.44740 0.41070 0.28500
C 	C 	0.38920 0.62470 0.31430 -0.78500
H 	H 	0.39920 0.59770 0.33330 0.23300
H 	H 	0.38380 0.62010 0.26940 0.22200
H 	H 	0.36240 0.63390 0.33470 0.23600
C 	C 	0.38860 0.70350 0.55040 -0.42000
H 	H 	0.36290 0.68610 0.55920 0.13900
H 	H 	0.38000 0.73330 0.54150 0.11800
H 	H 	0.40780 0.70300 0.58700 0.13300
C 	C 	0.67480 0.63740 0.24050 -0.07600
H 	H 	0.67620 0.66370 0.26760 0.00300
C 	C 	0.63950 0.62810 0.20130 -0.34100
C 	C 	0.69860 0.58100 0.19650 -0.15100
C 	C 	0.55450 0.51530 0.43680 0.02500
C 	C 	0.42380 0.65970 0.32260 0.53800
C 	C 	0.46760 0.63630 0.55430 -0.43800
H 	H 	0.45640 0.60710 0.56080 0.15600
H 	H 	0.46050 0.65430 0.59070 0.13900
H 	H 	0.49900 0.63520 0.54900 0.13000
C 	C 	0.68430 0.49630 0.51390 -0.93100
H 	H 	0.66690 0.51400 0.54250 0.29000
H 	H 	0.69450 0.51430 0.47890 0.24000
H 	H 	0.70920 0.48450 0.53650 0.28000
C 	C 	0.63940 0.43260 0.54120 -0.97000
H 	H 	0.62340 0.40810 0.52390 0.31100
H 	H 	0.62000 0.45020 0.56710 0.29100
H 	H 	0.66330 0.42200 0.56710 0.28200
C 	C 	0.65700 0.45970 0.48850 0.67400
C 	C 	0.59330 0.51410 0.47150 -0.15300
H 	H 	0.60070 0.53420 0.50670 0.04000
C 	C 	0.51720 0.54680 0.44420 -0.45600
H 	H 	0.49520 0.53420 0.47170 0.15800
H 	H 	0.50450 0.55280 0.40290 0.16100
H 	H 	0.52780 0.57380 0.46260 0.14100
C 	C 	0.58910 0.67680 0.23060 -1.33700
H 	H 	0.61370 0.68510 0.25690 0.38900
H 	H 	0.56940 0.65860 0.25500 0.40800
H 	H 	0.57390 0.70280 0.21650 0.38100
C 	C 	0.60380 0.65400 0.17900 0.83000
C 	C 	0.75380 0.61140 0.27400 -0.33100
H 	H 	0.77450 0.62870 0.24990 0.09900
H 	H 	0.76510 0.58200 0.27920 0.05800
H 	H 	0.74950 0.62450 0.31540 0.05900
C 	C 	0.70710 0.60950 0.23610 -0.03000
C 	C 	0.57290 0.62020 0.13790 -0.88900
H 	H 	0.54510 0.61660 0.15930 0.25400
H 	H 	0.58730 0.59220 0.13450 0.24800
H 	H 	0.56800 0.63200 0.09580 0.24400
Mo	Mo	0.32288 0.60432 0.97535 0.98600
Mo	Mo	0.46753 0.77832 0.80358 0.98500
Mo	Mo	0.27495 0.63851 0.88317 0.99800
Cu	Cu	0.38389 0.56586 0.78884 0.78300
Cu	Cu	0.41526 0.64474 0.82535 0.77300
I 	I 	0.45752 0.57068 0.85035 -0.59100
I 	I 	0.38145 0.63446 0.71237 -0.53800
P 	P 	0.33187 0.58305 0.86293 -0.68500
P 	P 	0.45868 0.70229 0.82475 -0.36200
P 	P 	0.35446 0.64743 0.88921 -0.08800
P 	P 	0.24753 0.62612 0.98890 -0.35800
P 	P 	0.51750 0.77000 0.71620 0.04200
P 	P 	0.47190 0.71720 0.71940 -0.25000
P 	P 	0.29168 0.67926 0.98310 1.65500
P 	P 	0.25700 0.56690 0.93250 -2.46300
S 	S 	0.49198 0.73819 0.89970 -0.23000
S 	S 	0.31250 0.67980 0.95870 -2.24600
S 	S 	0.27450 0.56304 0.91150 2.44500
C 	C 	0.39580 0.78410 0.95770 -0.88100
H 	H 	0.41990 0.76360 0.95680 0.25700
H 	H 	0.38730 0.78950 0.00130 0.25400
H 	H 	0.37130 0.77200 0.93460 0.28600
C 	C 	0.43550 0.83850 0.75460 -0.00700
C 	C 	0.39530 0.79290 0.81720 -0.15900
H 	H 	0.37330 0.77130 0.83090 0.03600
C 	C 	0.20660 0.65570 0.84510 -0.12300
H 	H 	0.17860 0.64760 0.86540 0.04100
C 	C 	0.33580 0.59210 0.08040 -0.08500
H 	H 	0.31970 0.60420 0.11710 -0.01600
C 	C 	0.43610 0.63090 0.12060 -1.01500
H 	H 	0.45690 0.61110 0.10130 0.29800
H 	H 	0.45140 0.65580 0.13810 0.27500
H 	H 	0.42050 0.61590 0.15420 0.29400
C 	C 	0.22920 0.69540 0.85430 -0.04600
C 	C 	0.21480 0.73130 0.89810 -0.36200
H 	H 	0.20230 0.75490 0.87350 0.12200
H 	H 	0.19310 0.72010 0.92740 0.08800
H 	H 	0.23970 0.74200 0.92180 0.09400
C 	C 	0.40530 0.80250 0.75340 -0.01700
C 	C 	0.44270 0.84820 0.81820 -0.16300
H 	H 	0.46100 0.87260 0.83330 0.04600
C 	C 	0.41660 0.82200 0.85780 -0.19800
C 	C 	0.22730 0.63220 0.79610 -0.25400
C 	C 	0.45040 0.84540 0.96040 -0.79400
H 	H 	0.47440 0.82490 0.95700 0.22500
H 	H 	0.45830 0.87260 0.94020 0.24100
H 	H 	0.44390 0.85060 0.00480 0.21700
C 	C 	0.18080 0.56650 0.80320 -0.98900
H 	H 	0.15680 0.58440 0.81790 0.30800
H 	H 	0.16960 0.54190 0.77950 0.28500
H 	H 	0.19740 0.55600 0.83930 0.28500
C 	C 	0.37470 0.86080 0.93570 -0.78500
H 	H 	0.34770 0.85080 0.91670 0.23300
H 	H 	0.37010 0.86620 0.98060 0.22200
H 	H 	0.38390 0.88760 0.91530 0.23600
C 	C 	0.45350 0.86140 0.69960 -0.41900
H 	H 	0.43610 0.88710 0.69080 0.13900
H 	H 	0.48330 0.87000 0.70850 0.11800
H 	H 	0.45300 0.84220 0.66300 0.13300
C 	C 	0.38740 0.57520 0.00950 -0.07600
H 	H 	0.41370 0.57380 0.98240 0.00300
C 	C 	0.37810 0.61050 0.04870 -0.34000
C 	C 	0.33100 0.55140 0.05350 -0.15100
C 	C 	0.26530 0.69550 0.81320 0.02500
C 	C 	0.40970 0.82620 0.92740 0.53800
C 	C 	0.38630 0.78240 0.69570 -0.43800
H 	H 	0.35710 0.79360 0.68920 0.15600
H 	H 	0.40430 0.78950 0.65930 0.13900
H 	H 	0.38520 0.75100 0.70100 0.13000
C 	C 	0.24630 0.56570 0.73610 -0.93100
H 	H 	0.26400 0.58310 0.70750 0.29000
H 	H 	0.26430 0.55550 0.77110 0.24000
H 	H 	0.23450 0.54080 0.71350 0.28000
C 	C 	0.18260 0.61060 0.70880 -0.97000
H 	H 	0.15810 0.62660 0.72610 0.31100
H 	H 	0.20020 0.63000 0.68290 0.29100
H 	H 	0.17200 0.58670 0.68290 0.28200
C 	C 	0.20970 0.59300 0.76150 0.67400
C 	C 	0.26410 0.65670 0.77850 -0.15300
H 	H 	0.28420 0.64930 0.74330 0.04000
C 	C 	0.29680 0.73280 0.80580 -0.45600
H 	H 	0.28420 0.75480 0.77830 0.15800
H 	H 	0.30280 0.74550 0.84710 0.16100
H 	H 	0.32380 0.72220 0.78740 0.14100
C 	C 	0.42680 0.66090 0.01940 -1.33700
H 	H 	0.43510 0.63630 0.99310 0.38900
H 	H 	0.40860 0.68060 0.99500 0.40800
H 	H 	0.45280 0.67610 0.03350 0.38000
C 	C 	0.40400 0.64620 0.07100 0.82900
C 	C 	0.36140 0.49620 0.97600 -0.33100
H 	H 	0.37870 0.47550 0.00010 0.09900
H 	H 	0.33200 0.48490 0.97080 0.05900
H 	H 	0.37450 0.50050 0.93460 0.05900
C 	C 	0.35950 0.54290 0.01390 -0.03000
C 	C 	0.37020 0.67710 0.11210 -0.88900
H 	H 	0.36660 0.70490 0.09070 0.25400
H 	H 	0.34220 0.66270 0.11550 0.24800
H 	H 	0.38200 0.68200 0.15420 0.24400
Mo	Mo	0.82288 0.10432 0.47535 0.98600
Mo	Mo	0.96753 0.27832 0.30358 0.98500
Mo	Mo	0.77495 0.13851 0.38317 0.99800
Cu	Cu	0.88389 0.06586 0.28884 0.78300
Cu	Cu	0.91526 0.14474 0.32535 0.77300
I 	I 	0.95752 0.07068 0.35035 -0.59100
I 	I 	0.88145 0.13446 0.21237 -0.53800
P 	P 	0.83187 0.08305 0.36293 -0.68500
P 	P 	0.95868 0.20229 0.32475 -0.36200
P 	P 	0.85446 0.14743 0.38921 -0.08800
P 	P 	0.74753 0.12612 0.48890 -0.35800
P 	P 	0.01750 0.27000 0.21620 0.04200
P 	P 	0.97190 0.21720 0.21940 -0.25000
P 	P 	0.79168 0.17926 0.48310 1.65500
P 	P 	0.75700 0.06690 0.43250 -2.46300
S 	S 	0.99198 0.23819 0.39970 -0.22700
S 	S 	0.81250 0.17980 0.45870 -2.24600
S 	S 	0.77450 0.06304 0.41150 2.44500
C 	C 	0.89580 0.28410 0.45770 -0.88000
H 	H 	0.91990 0.26360 0.45680 0.25600
H 	H 	0.88730 0.28950 0.50130 0.25400
H 	H 	0.87130 0.27200 0.43460 0.28500
C 	C 	0.93550 0.33850 0.25460 -0.00700
C 	C 	0.89530 0.29290 0.31720 -0.15900
H 	H 	0.87330 0.27130 0.33090 0.03600
C 	C 	0.70660 0.15570 0.34510 -0.12300
H 	H 	0.67860 0.14760 0.36540 0.04100
C 	C 	0.83580 0.09210 0.58040 -0.08500
H 	H 	0.81970 0.10420 0.61710 -0.01600
C 	C 	0.93610 0.13090 0.62060 -1.01600
H 	H 	0.95690 0.11110 0.60130 0.29800
H 	H 	0.95140 0.15580 0.63810 0.27600
H 	H 	0.92050 0.11590 0.65420 0.29400
C 	C 	0.72920 0.19540 0.35430 -0.04600
C 	C 	0.71480 0.23130 0.39810 -0.36200
H 	H 	0.70230 0.25490 0.37350 0.12200
H 	H 	0.69310 0.22010 0.42740 0.08800
H 	H 	0.73970 0.24200 0.42180 0.09400
C 	C 	0.90530 0.30250 0.25340 -0.01700
C 	C 	0.94270 0.34820 0.31820 -0.16400
H 	H 	0.96100 0.37260 0.33330 0.04600
C 	C 	0.91660 0.32200 0.35780 -0.19800
C 	C 	0.72730 0.13220 0.29610 -0.25400
C 	C 	0.95040 0.34540 0.46040 -0.79300
H 	H 	0.97440 0.32490 0.45700 0.22500
H 	H 	0.95830 0.37260 0.44020 0.24100
H 	H 	0.94390 0.35060 0.50480 0.21600
C 	C 	0.68080 0.06650 0.30320 -0.98900
H 	H 	0.65680 0.08440 0.31790 0.30800
H 	H 	0.66960 0.04190 0.27950 0.28500
H 	H 	0.69740 0.05600 0.33930 0.28500
C 	C 	0.87470 0.36080 0.43570 -0.78500
H 	H 	0.84770 0.35080 0.41670 0.23300
H 	H 	0.87010 0.36620 0.48060 0.22200
H 	H 	0.88390 0.38760 0.41530 0.23600
C 	C 	0.95350 0.36140 0.19960 -0.42000
H 	H 	0.93610 0.38710 0.19080 0.13900
H 	H 	0.98330 0.37000 0.20850 0.11800
H 	H 	0.95300 0.34220 0.16300 0.13300
C 	C 	0.88740 0.07520 0.50950 -0.07600
H 	H 	0.91370 0.07380 0.48240 0.00300
C 	C 	0.87810 0.11050 0.54870 -0.34100
C 	C 	0.83100 0.05140 0.55350 -0.15100
C 	C 	0.76530 0.19550 0.31320 0.02600
C 	C 	0.90970 0.32620 0.42740 0.53800
C 	C 	0.88630 0.28240 0.19570 -0.43800
H 	H 	0.85710 0.29360 0.18920 0.15600
H 	H 	0.90430 0.28950 0.15930 0.13900
H 	H 	0.88520 0.25100 0.20100 0.13000
C 	C 	0.74630 0.06570 0.23610 -0.93000
H 	H 	0.76400 0.08310 0.20750 0.29000
H 	H 	0.76430 0.05550 0.27110 0.24000
H 	H 	0.73450 0.04080 0.21350 0.28000
C 	C 	0.68260 0.11060 0.20880 -0.97000
H 	H 	0.65810 0.12660 0.22610 0.31100
H 	H 	0.70020 0.13000 0.18290 0.29100
H 	H 	0.67200 0.08670 0.18290 0.28200
C 	C 	0.70970 0.09300 0.26150 0.67400
C 	C 	0.76410 0.15670 0.27850 -0.15300
H 	H 	0.78420 0.14930 0.24330 0.04000
C 	C 	0.79680 0.23280 0.30580 -0.45600
H 	H 	0.78420 0.25480 0.27830 0.15800
H 	H 	0.80280 0.24550 0.34710 0.16100
H 	H 	0.82380 0.22220 0.28740 0.14100
C 	C 	0.92680 0.16090 0.51940 -1.33700
H 	H 	0.93510 0.13630 0.49310 0.38900
H 	H 	0.90860 0.18060 0.49500 0.40800
H 	H 	0.95280 0.17610 0.53350 0.38100
C 	C 	0.90400 0.14620 0.57100 0.83000
C 	C 	0.86140 0.99620 0.47600 -0.33200
H 	H 	0.87870 0.97550 0.50010 0.09900
H 	H 	0.83200 0.98490 0.47080 0.05900
H 	H 	0.87450 0.00050 0.43460 0.05900
C 	C 	0.85950 0.04290 0.51390 -0.03000
C 	C 	0.87020 0.17710 0.61210 -0.88900
H 	H 	0.86660 0.20490 0.59070 0.25400
H 	H 	0.84220 0.16270 0.61550 0.24800
H 	H 	0.88200 0.18200 0.65420 0.24400
Mo	Mo	0.17712 0.39568 0.47535 0.98600
Mo	Mo	0.03247 0.22168 0.30358 0.98500
Mo	Mo	0.22505 0.36149 0.38317 0.99800
Cu	Cu	0.11611 0.43414 0.28884 0.78300
Cu	Cu	0.08474 0.35526 0.32535 0.77300
I 	I 	0.04248 0.42932 0.35035 -0.59100
I 	I 	0.11855 0.36554 0.21237 -0.53800
P 	P 	0.16813 0.41695 0.36293 -0.68500
P 	P 	0.04132 0.29771 0.32475 -0.36100
P 	P 	0.14554 0.35257 0.38921 -0.08800
P 	P 	0.25247 0.37388 0.48890 -0.35800
P 	P 	0.98250 0.23000 0.21620 0.04200
P 	P 	0.02810 0.28280 0.21940 -0.25100
P 	P 	0.20832 0.32074 0.48310 1.65500
P 	P 	0.24300 0.43310 0.43250 -2.46300
S 	S 	0.00802 0.26181 0.39970 -0.23200
S 	S 	0.18750 0.32020 0.45870 -2.24600
S 	S 	0.22550 0.43696 0.41150 2.44500
C 	C 	0.10420 0.21590 0.45770 -0.88000
H 	H 	0.08010 0.23640 0.45680 0.25600
H 	H 	0.11270 0.21050 0.50130 0.25400
H 	H 	0.12870 0.22800 0.43460 0.28500
C 	C 	0.06450 0.16150 0.25460 -0.00700
C 	C 	0.10470 0.20710 0.31720 -0.15900
H 	H 	0.12670 0.22870 0.33090 0.03600
C 	C 	0.29340 0.34430 0.34510 -0.12300
H 	H 	0.32140 0.35240 0.36540 0.04100
C 	C 	0.16420 0.40790 0.58040 -0.08500
H 	H 	0.18030 0.39580 0.61710 -0.01600
C 	C 	0.06390 0.36910 0.62060 -1.01600
H 	H 	0.04310 0.38890 0.60130 0.29800
H 	H 	0.04860 0.34420 0.63810 0.27500
H 	H 	0.07950 0.38410 0.65420 0.29400
C 	C 	0.27080 0.30460 0.35430 -0.04600
C 	C 	0.28520 0.26870 0.39810 -0.36200
H 	H 	0.29770 0.24510 0.37350 0.12200
H 	H 	0.30690 0.27990 0.42740 0.08800
H 	H 	0.26030 0.25800 0.42180 0.09400
C 	C 	0.09470 0.19750 0.25340 -0.01700
C 	C 	0.05730 0.15180 0.31820 -0.16400
H 	H 	0.03900 0.12740 0.33330 0.04600
C 	C 	0.08340 0.17800 0.35780 -0.19800
C 	C 	0.27270 0.36780 0.29610 -0.25400
C 	C 	0.04960 0.15460 0.46040 -0.79300
H 	H 	0.02560 0.17510 0.45700 0.22400
H 	H 	0.04170 0.12740 0.44020 0.24000
H 	H 	0.05610 0.14940 0.50480 0.21600
C 	C 	0.31920 0.43350 0.30320 -0.98900
H 	H 	0.34320 0.41560 0.31790 0.30800
H 	H 	0.33040 0.45810 0.27950 0.28500
H 	H 	0.30260 0.44400 0.33930 0.28500
C 	C 	0.12530 0.13920 0.43570 -0.78500
H 	H 	0.15230 0.14920 0.41670 0.23300
H 	H 	0.12990 0.13380 0.48060 0.22200
H 	H 	0.11610 0.11240 0.41530 0.23600
C 	C 	0.04650 0.13860 0.19960 -0.41900
H 	H 	0.06390 0.11290 0.19080 0.13900
H 	H 	0.01670 0.13000 0.20850 0.11800
H 	H 	0.04700 0.15780 0.16300 0.13200
C 	C 	0.11260 0.42480 0.50950 -0.07600
H 	H 	0.08630 0.42620 0.48240 0.00300
C 	C 	0.12190 0.38950 0.54870 -0.34100
C 	C 	0.16900 0.44860 0.55350 -0.15100
C 	C 	0.23470 0.30450 0.31320 0.02500
C 	C 	0.09030 0.17380 0.42740 0.53700
C 	C 	0.11370 0.21760 0.19570 -0.43800
H 	H 	0.14290 0.20640 0.18920 0.15600
H 	H 	0.09570 0.21050 0.15930 0.13900
H 	H 	0.11480 0.24900 0.20100 0.13000
C 	C 	0.25370 0.43430 0.23610 -0.93100
H 	H 	0.23600 0.41690 0.20750 0.29000
H 	H 	0.23570 0.44450 0.27110 0.24000
H 	H 	0.26550 0.45920 0.21350 0.28000
C 	C 	0.31740 0.38940 0.20880 -0.97000
H 	H 	0.34190 0.37340 0.22610 0.31100
H 	H 	0.29980 0.37000 0.18290 0.29100
H 	H 	0.32800 0.41330 0.18290 0.28200
C 	C 	0.29030 0.40700 0.26150 0.67400
C 	C 	0.23590 0.34330 0.27850 -0.15300
H 	H 	0.21580 0.35070 0.24330 0.04000
C 	C 	0.20320 0.26720 0.30580 -0.45600
H 	H 	0.21580 0.24520 0.27830 0.15800
H 	H 	0.19720 0.25450 0.34710 0.16100
H 	H 	0.17620 0.27780 0.28740 0.14100
C 	C 	0.07320 0.33910 0.51940 -1.33700
H 	H 	0.06490 0.36370 0.49310 0.38900
H 	H 	0.09140 0.31940 0.49500 0.40900
H 	H 	0.04720 0.32390 0.53350 0.38100
C 	C 	0.09600 0.35380 0.57100 0.83000
C 	C 	0.13860 0.50380 0.47600 -0.33100
H 	H 	0.12130 0.52450 0.50010 0.09900
H 	H 	0.16800 0.51510 0.47080 0.05800
H 	H 	0.12550 0.49950 0.43460 0.05900
C 	C 	0.14050 0.45710 0.51390 -0.03000
C 	C 	0.12980 0.32290 0.61210 -0.88900
H 	H 	0.13340 0.29510 0.59070 0.25400
H 	H 	0.15780 0.33730 0.61550 0.24800
H 	H 	0.11800 0.31800 0.65420 0.24400
Mo	Mo	0.67712 0.89568 0.97535 0.98600
Mo	Mo	0.53247 0.72168 0.80358 0.98500
Mo	Mo	0.72505 0.86149 0.88317 0.99800
Cu	Cu	0.61611 0.93414 0.78884 0.78300
Cu	Cu	0.58474 0.85526 0.82535 0.77300
I 	I 	0.54248 0.92932 0.85035 -0.59100
I 	I 	0.61855 0.86554 0.71237 -0.53800
P 	P 	0.66813 0.91695 0.86293 -0.68500
P 	P 	0.54132 0.79771 0.82475 -0.36200
P 	P 	0.64554 0.85257 0.88921 -0.08800
P 	P 	0.75247 0.87388 0.98890 -0.35800
P 	P 	0.48250 0.73000 0.71620 0.04200
P 	P 	0.52810 0.78280 0.71940 -0.25000
P 	P 	0.70832 0.82074 0.98310 1.65500
P 	P 	0.74300 0.93310 0.93250 -2.46300
S 	S 	0.50802 0.76181 0.89970 -0.23000
S 	S 	0.68750 0.82020 0.95870 -2.24600
S 	S 	0.72550 0.93696 0.91150 2.44500
C 	C 	0.60420 0.71590 0.95770 -0.88000
H 	H 	0.58010 0.73640 0.95680 0.25700
H 	H 	0.61270 0.71050 0.00130 0.25400
H 	H 	0.62870 0.72800 0.93460 0.28500
C 	C 	0.56450 0.66150 0.75460 -0.00700
C 	C 	0.60470 0.70710 0.81720 -0.15900
H 	H 	0.62670 0.72870 0.83090 0.03600
C 	C 	0.79340 0.84430 0.84510 -0.12300
H 	H 	0.82140 0.85240 0.86540 0.04100
C 	C 	0.66420 0.90790 0.08040 -0.08500
H 	H 	0.68030 0.89580 0.11710 -0.01500
C 	C 	0.56390 0.86910 0.12060 -1.01500
H 	H 	0.54310 0.88890 0.10130 0.29800
H 	H 	0.54860 0.84420 0.13810 0.27500
H 	H 	0.57950 0.88410 0.15420 0.29400
C 	C 	0.77080 0.80460 0.85430 -0.04600
C 	C 	0.78520 0.76870 0.89810 -0.36200
H 	H 	0.79770 0.74510 0.87350 0.12200
H 	H 	0.80690 0.77990 0.92740 0.08800
H 	H 	0.76030 0.75800 0.92180 0.09400
C 	C 	0.59470 0.69750 0.75340 -0.01700
C 	C 	0.55730 0.65180 0.81820 -0.16400
H 	H 	0.53900 0.62740 0.83330 0.04600
C 	C 	0.58340 0.67800 0.85780 -0.19800
C 	C 	0.77270 0.86780 0.79610 -0.25400
C 	C 	0.54960 0.65460 0.96040 -0.79300
H 	H 	0.52560 0.67510 0.95700 0.22500
H 	H 	0.54170 0.62740 0.94020 0.24100
H 	H 	0.55610 0.64940 0.00480 0.21600
C 	C 	0.81920 0.93350 0.80320 -0.98900
H 	H 	0.84320 0.91560 0.81790 0.30800
H 	H 	0.83040 0.95810 0.77950 0.28500
H 	H 	0.80260 0.94400 0.83930 0.28500
C 	C 	0.62530 0.63920 0.93570 -0.78500
H 	H 	0.65230 0.64920 0.91670 0.23300
H 	H 	0.62990 0.63380 0.98060 0.22200
H 	H 	0.61610 0.61240 0.91530 0.23600
C 	C 	0.54650 0.63860 0.69960 -0.41900
H 	H 	0.56390 0.61290 0.69080 0.13900
H 	H 	0.51670 0.63000 0.70850 0.11800
H 	H 	0.54700 0.65780 0.66300 0.13300
C 	C 	0.61260 0.92480 0.00950 -0.07500
H 	H 	0.58630 0.92620 0.98240 0.00300
C 	C 	0.62190 0.88950 0.04870 -0.34000
C 	C 	0.66900 0.94860 0.05350 -0.15000
C 	C 	0.73470 0.80450 0.81320 0.02600
C 	C 	0.59030 0.67380 0.92740 0.53800
C 	C 	0.61370 0.71760 0.69570 -0.43800
H 	H 	0.64290 0.70640 0.68920 0.15600
H 	H 	0.59570 0.71050 0.65930 0.13900
H 	H 	0.61480 0.74900 0.70100 0.13000
C 	C 	0.75370 0.93430 0.73610 -0.93000
H 	H 	0.73600 0.91690 0.70750 0.29000
H 	H 	0.73570 0.94450 0.77110 0.24000
H 	H 	0.76550 0.95920 0.71350 0.28000
C 	C 	0.81740 0.88940 0.70880 -0.96900
H 	H 	0.84190 0.87340 0.72610 0.31100
H 	H 	0.79980 0.87000 0.68290 0.29100
H 	H 	0.82800 0.91330 0.68290 0.28200
C 	C 	0.79030 0.90700 0.76150 0.67300
C 	C 	0.73590 0.84330 0.77850 -0.15300
H 	H 	0.71580 0.85070 0.74330 0.04000
C 	C 	0.70320 0.76720 0.80580 -0.45600
H 	H 	0.71580 0.74520 0.77830 0.15800
H 	H 	0.69720 0.75450 0.84710 0.16100
H 	H 	0.67620 0.77780 0.78740 0.14100
C 	C 	0.57320 0.83910 0.01940 -1.33600
H 	H 	0.56490 0.86370 0.99310 0.38900
H 	H 	0.59140 0.81940 0.99500 0.40800
H 	H 	0.54720 0.82390 0.03350 0.38000
C 	C 	0.59600 0.85380 0.07100 0.82900
C 	C 	0.63860 0.00380 0.97600 -0.32900
H 	H 	0.62130 0.02450 0.00010 0.09800
H 	H 	0.66800 0.01510 0.97080 0.05800
H 	H 	0.62550 0.99950 0.93460 0.05800
C 	C 	0.64050 0.95710 0.01390 -0.03100
C 	C 	0.62980 0.82290 0.11210 -0.88900
H 	H 	0.63340 0.79510 0.09070 0.25400
H 	H 	0.65780 0.83730 0.11550 0.24800
H 	H 	0.61800 0.81800 0.15420 0.24400
Mo	Mo	0.64568 0.07288 0.72535 0.98600
Mo	Mo	0.47168 0.21753 0.55358 0.98500
Mo	Mo	0.61149 0.02495 0.63317 0.99800
Cu	Cu	0.68414 0.13389 0.53884 0.78300
Cu	Cu	0.60526 0.16526 0.57535 0.77300
I 	I 	0.67932 0.20752 0.60035 -0.59100
I 	I 	0.61554 0.13145 0.46237 -0.53800
P 	P 	0.66695 0.08187 0.61293 -0.68500
P 	P 	0.54771 0.20868 0.57475 -0.36200
P 	P 	0.60257 0.10446 0.63921 -0.08800
P 	P 	0.62388 0.99753 0.73890 -0.35900
P 	P 	0.48000 0.26750 0.46620 0.04200
P 	P 	0.53280 0.22190 0.46940 -0.25000
P 	P 	0.57074 0.04168 0.73310 1.65500
P 	P 	0.68310 0.00700 0.68250 -2.46300
S 	S 	0.51181 0.24198 0.64970 -0.23000
S 	S 	0.57020 0.06250 0.70870 -2.24600
S 	S 	0.68696 0.02450 0.66150 2.44500
C 	C 	0.46590 0.14580 0.70770 -0.88000
H 	H 	0.48640 0.16990 0.70680 0.25600
H 	H 	0.46050 0.13730 0.75130 0.25400
H 	H 	0.47800 0.12130 0.68460 0.28500
C 	C 	0.41150 0.18550 0.50460 -0.00700
C 	C 	0.45710 0.14530 0.56720 -0.15900
H 	H 	0.47870 0.12330 0.58090 0.03600
C 	C 	0.59430 0.95660 0.59510 -0.12300
H 	H 	0.60240 0.92860 0.61540 0.04100
C 	C 	0.65790 0.08580 0.83040 -0.08500
H 	H 	0.64580 0.06970 0.86710 -0.01500
C 	C 	0.61910 0.18610 0.87060 -1.01600
H 	H 	0.63890 0.20690 0.85130 0.29800
H 	H 	0.59420 0.20140 0.88810 0.27600
H 	H 	0.63410 0.17050 0.90420 0.29400
C 	C 	0.55460 0.97920 0.60430 -0.04600
C 	C 	0.51870 0.96480 0.64810 -0.36200
H 	H 	0.49510 0.95230 0.62350 0.12200
H 	H 	0.52990 0.94310 0.67740 0.08800
H 	H 	0.50800 0.98970 0.67180 0.09400
C 	C 	0.44750 0.15530 0.50340 -0.01700
C 	C 	0.40180 0.19270 0.56820 -0.16400
H 	H 	0.37740 0.21100 0.58330 0.04600
C 	C 	0.42800 0.16660 0.60780 -0.19800
C 	C 	0.61780 0.97730 0.54610 -0.25500
C 	C 	0.40460 0.20040 0.71040 -0.79300
H 	H 	0.42510 0.22440 0.70700 0.22500
H 	H 	0.37740 0.20830 0.69020 0.24000
H 	H 	0.39940 0.19390 0.75480 0.21600
C 	C 	0.68350 0.93080 0.55320 -0.98900
H 	H 	0.66560 0.90680 0.56790 0.30800
H 	H 	0.70810 0.91960 0.52950 0.28500
H 	H 	0.69400 0.94740 0.58930 0.28500
C 	C 	0.38920 0.12470 0.68570 -0.78500
H 	H 	0.39920 0.09770 0.66670 0.23300
H 	H 	0.38380 0.12010 0.73060 0.22200
H 	H 	0.36240 0.13390 0.66530 0.23600
C 	C 	0.38860 0.20350 0.44960 -0.42000
H 	H 	0.36290 0.18610 0.44080 0.13900
H 	H 	0.38000 0.23330 0.45850 0.11800
H 	H 	0.40780 0.20300 0.41300 0.13300
C 	C 	0.67480 0.13740 0.75950 -0.07600
H 	H 	0.67620 0.16370 0.73240 0.00300
C 	C 	0.63950 0.12810 0.79870 -0.34100
C 	C 	0.69860 0.08100 0.80350 -0.15000
C 	C 	0.55450 0.01530 0.56320 0.02600
C 	C 	0.42380 0.15970 0.67740 0.53800
C 	C 	0.46760 0.13630 0.44570 -0.43800
H 	H 	0.45640 0.10710 0.43920 0.15600
H 	H 	0.46050 0.15430 0.40930 0.13900
H 	H 	0.49900 0.13520 0.45100 0.13000
C 	C 	0.68430 0.99630 0.48610 -0.93100
H 	H 	0.66690 0.01400 0.45750 0.29000
H 	H 	0.69450 0.01430 0.52110 0.24000
H 	H 	0.70920 0.98450 0.46350 0.28000
C 	C 	0.63940 0.93260 0.45880 -0.97000
H 	H 	0.62340 0.90810 0.47610 0.31100
H 	H 	0.62000 0.95020 0.43290 0.29100
H 	H 	0.66330 0.92200 0.43290 0.28200
C 	C 	0.65700 0.95970 0.51150 0.67400
C 	C 	0.59330 0.01410 0.52850 -0.15300
H 	H 	0.60070 0.03420 0.49330 0.04000
C 	C 	0.51720 0.04680 0.55580 -0.45600
H 	H 	0.49520 0.03420 0.52830 0.15800
H 	H 	0.50450 0.05280 0.59710 0.16100
H 	H 	0.52780 0.07380 0.53740 0.14100
C 	C 	0.58910 0.17680 0.76940 -1.33700
H 	H 	0.61370 0.18510 0.74310 0.38900
H 	H 	0.56940 0.15860 0.74500 0.40900
H 	H 	0.57390 0.20280 0.78350 0.38100
C 	C 	0.60380 0.15400 0.82100 0.83000
C 	C 	0.75380 0.11140 0.72600 -0.33100
H 	H 	0.77450 0.12870 0.75010 0.09900
H 	H 	0.76510 0.08200 0.72080 0.05800
H 	H 	0.74950 0.12450 0.68460 0.05900
C 	C 	0.70710 0.10950 0.76390 -0.03000
C 	C 	0.57290 0.12020 0.86210 -0.88900
H 	H 	0.54510 0.11660 0.84070 0.25400
H 	H 	0.58730 0.09220 0.86550 0.24900
H 	H 	0.56800 0.13200 0.90420 0.24400
Mo	Mo	0.14568 0.57288 0.22535 0.98600
Mo	Mo	0.97168 0.71753 0.05358 0.98500
Mo	Mo	0.11149 0.52495 0.13317 0.99800
Cu	Cu	0.18414 0.63389 0.03884 0.78300
Cu	Cu	0.10526 0.66526 0.07535 0.77300
I 	I 	0.17932 0.70752 0.10035 -0.59100
I 	I 	0.11554 0.63145 0.96237 -0.53700
P 	P 	0.16695 0.58187 0.11293 -0.68500
P 	P 	0.04771 0.70868 0.07475 -0.36200
P 	P 	0.10257 0.60446 0.13921 -0.08800
P 	P 	0.12388 0.49753 0.23890 -0.35800
P 	P 	0.98000 0.76750 0.96620 0.04200
P 	P 	0.03280 0.72190 0.96940 -0.25000
P 	P 	0.07074 0.54168 0.23310 1.65500
P 	P 	0.18310 0.50700 0.18250 -2.46300
S 	S 	0.01181 0.74198 0.14970 -0.22800
S 	S 	0.07020 0.56250 0.20870 -2.24600
S 	S 	0.18696 0.52450 0.16150 2.44500
C 	C 	0.96590 0.64580 0.20770 -0.88000
H 	H 	0.98640 0.66990 0.20680 0.25600
H 	H 	0.96050 0.63730 0.25130 0.25400
H 	H 	0.97800 0.62130 0.18460 0.28500
C 	C 	0.91150 0.68550 0.00460 -0.00600
C 	C 	0.95710 0.64530 0.06720 -0.15900
H 	H 	0.97870 0.62330 0.08090 0.03600
C 	C 	0.09430 0.45660 0.09510 -0.12300
H 	H 	0.10240 0.42860 0.11540 0.04100
C 	C 	0.15790 0.58580 0.33040 -0.08500
H 	H 	0.14580 0.56970 0.36710 -0.01600
C 	C 	0.11910 0.68610 0.37060 -1.01600
H 	H 	0.13890 0.70690 0.35130 0.29800
H 	H 	0.09420 0.70140 0.38810 0.27500
H 	H 	0.13410 0.67050 0.40420 0.29400
C 	C 	0.05460 0.47920 0.10430 -0.04600
C 	C 	0.01870 0.46480 0.14810 -0.36200
H 	H 	0.99510 0.45230 0.12350 0.12200
H 	H 	0.02990 0.44310 0.17740 0.08800
H 	H 	0.00800 0.48970 0.17180 0.09400
C 	C 	0.94750 0.65530 0.00340 -0.01700
C 	C 	0.90180 0.69270 0.06820 -0.16400
H 	H 	0.87740 0.71100 0.08330 0.04600
C 	C 	0.92800 0.66660 0.10780 -0.19800
C 	C 	0.11780 0.47730 0.04610 -0.25400
C 	C 	0.90460 0.70040 0.21040 -0.79300
H 	H 	0.92510 0.72440 0.20700 0.22500
H 	H 	0.87740 0.70830 0.19020 0.24100
H 	H 	0.89940 0.69390 0.25480 0.21600
C 	C 	0.18350 0.43080 0.05320 -0.98900
H 	H 	0.16560 0.40680 0.06790 0.30800
H 	H 	0.20810 0.41960 0.02950 0.28500
H 	H 	0.19400 0.44740 0.08930 0.28500
C 	C 	0.88920 0.62470 0.18570 -0.78500
H 	H 	0.89920 0.59770 0.16670 0.23300
H 	H 	0.88380 0.62010 0.23060 0.22200
H 	H 	0.86240 0.63390 0.16530 0.23600
C 	C 	0.88860 0.70350 0.94960 -0.42000
H 	H 	0.86290 0.68610 0.94080 0.13900
H 	H 	0.88000 0.73330 0.95850 0.11800
H 	H 	0.90780 0.70300 0.91300 0.13300
C 	C 	0.17480 0.63740 0.25950 -0.07600
H 	H 	0.17620 0.66370 0.23240 0.00300
C 	C 	0.13950 0.62810 0.29870 -0.34100
C 	C 	0.19860 0.58100 0.30350 -0.15100
C 	C 	0.05450 0.51530 0.06320 0.02600
C 	C 	0.92380 0.65970 0.17740 0.53800
C 	C 	0.96760 0.63630 0.94570 -0.43800
H 	H 	0.95640 0.60710 0.93920 0.15600
H 	H 	0.96050 0.65430 0.90930 0.13900
H 	H 	0.99900 0.63520 0.95100 0.13000
C 	C 	0.18430 0.49630 0.98610 -0.93100
H 	H 	0.16690 0.51400 0.95750 0.29000
H 	H 	0.19450 0.51430 0.02110 0.24000
H 	H 	0.20920 0.48450 0.96350 0.28000
C 	C 	0.13940 0.43260 0.95880 -0.97000
H 	H 	0.12340 0.40810 0.97610 0.31100
H 	H 	0.12000 0.45020 0.93290 0.29100
H 	H 	0.16330 0.42200 0.93290 0.28200
C 	C 	0.15700 0.45970 0.01150 0.67400
C 	C 	0.09330 0.51410 0.02850 -0.15300
H 	H 	0.10070 0.53420 0.99330 0.04000
C 	C 	0.01720 0.54680 0.05580 -0.45600
H 	H 	0.99520 0.53420 0.02830 0.15800
H 	H 	0.00450 0.55280 0.09710 0.16100
H 	H 	0.02780 0.57380 0.03740 0.14200
C 	C 	0.08910 0.67680 0.26940 -1.33700
H 	H 	0.11370 0.68510 0.24310 0.38900
H 	H 	0.06940 0.65860 0.24500 0.40800
H 	H 	0.07390 0.70280 0.28350 0.38100
C 	C 	0.10380 0.65400 0.32100 0.83000
C 	C 	0.25380 0.61140 0.22600 -0.33100
H 	H 	0.27450 0.62870 0.25010 0.09900
H 	H 	0.26510 0.58200 0.22080 0.05800
H 	H 	0.24950 0.62450 0.18460 0.05900
C 	C 	0.20710 0.60950 0.26390 -0.03000
C 	C 	0.07290 0.62020 0.36210 -0.88900
H 	H 	0.04510 0.61660 0.34070 0.25400
H 	H 	0.08730 0.59220 0.36550 0.24800
H 	H 	0.06800 0.63200 0.40420 0.24400
Mo	Mo	0.85432 0.92712 0.22535 0.98600
Mo	Mo	0.02832 0.78247 0.05358 0.98500
Mo	Mo	0.88851 0.97505 0.13317 0.99800
Cu	Cu	0.81586 0.86611 0.03884 0.78300
Cu	Cu	0.89474 0.83474 0.07535 0.77300
I 	I 	0.82068 0.79248 0.10035 -0.59100
I 	I 	0.88446 0.86855 0.96237 -0.53800
P 	P 	0.83305 0.91813 0.11293 -0.68500
P 	P 	0.95229 0.79132 0.07475 -0.36100
P 	P 	0.89743 0.89554 0.13921 -0.08800
P 	P 	0.87612 0.00247 0.23890 -0.35900
P 	P 	0.02000 0.73250 0.96620 0.04200
P 	P 	0.96720 0.77810 0.96940 -0.25100
P 	P 	0.92926 0.95832 0.23310 1.65400
P 	P 	0.81690 0.99300 0.18250 -2.46200
S 	S 	0.98819 0.75802 0.14970 -0.23200
S 	S 	0.92980 0.93750 0.20870 -2.24600
S 	S 	0.81304 0.97550 0.16150 2.44400
C 	C 	0.03410 0.85420 0.20770 -0.88000
H 	H 	0.01360 0.83010 0.20680 0.25700
H 	H 	0.03950 0.86270 0.25130 0.25400
H 	H 	0.02200 0.87870 0.18460 0.28500
C 	C 	0.08850 0.81450 0.00460 -0.00600
C 	C 	0.04290 0.85470 0.06720 -0.15900
H 	H 	0.02130 0.87670 0.08090 0.03600
C 	C 	0.90570 0.04340 0.09510 -0.12300
H 	H 	0.89760 0.07140 0.11540 0.04100
C 	C 	0.84210 0.91420 0.33040 -0.08500
H 	H 	0.85420 0.93030 0.36710 -0.01600
C 	C 	0.88090 0.81390 0.37060 -1.01600
H 	H 	0.86110 0.79310 0.35130 0.29800
H 	H 	0.90580 0.79860 0.38810 0.27500
H 	H 	0.86590 0.82950 0.40420 0.29400
C 	C 	0.94540 0.02080 0.10430 -0.04600
C 	C 	0.98130 0.03520 0.14810 -0.36100
H 	H 	0.00490 0.04770 0.12350 0.12100
H 	H 	0.97010 0.05690 0.17740 0.08800
H 	H 	0.99200 0.01030 0.17180 0.09400
C 	C 	0.05250 0.84470 0.00340 -0.01700
C 	C 	0.09820 0.80730 0.06820 -0.16400
H 	H 	0.12260 0.78900 0.08330 0.04600
C 	C 	0.07200 0.83340 0.10780 -0.19800
C 	C 	0.88220 0.02270 0.04610 -0.25400
C 	C 	0.09540 0.79960 0.21040 -0.79300
H 	H 	0.07490 0.77560 0.20700 0.22500
H 	H 	0.12260 0.79170 0.19020 0.24000
H 	H 	0.10060 0.80610 0.25480 0.21600
C 	C 	0.81650 0.06920 0.05320 -0.98800
H 	H 	0.83440 0.09320 0.06790 0.30700
H 	H 	0.79190 0.08040 0.02950 0.28500
H 	H 	0.80600 0.05260 0.08930 0.28500
C 	C 	0.11080 0.87530 0.18570 -0.78500
H 	H 	0.10080 0.90230 0.16670 0.23300
H 	H 	0.11620 0.87990 0.23060 0.22200
H 	H 	0.13760 0.86610 0.16530 0.23600
C 	C 	0.11140 0.79650 0.94960 -0.42000
H 	H 	0.13710 0.81390 0.94080 0.13900
H 	H 	0.12000 0.76670 0.95850 0.11800
H 	H 	0.09220 0.79700 0.91300 0.13300
C 	C 	0.82520 0.86260 0.25950 -0.07600
H 	H 	0.82380 0.83630 0.23240 0.00300
C 	C 	0.86050 0.87190 0.29870 -0.34100
C 	C 	0.80140 0.91900 0.30350 -0.15100
C 	C 	0.94550 0.98470 0.06320 0.02600
C 	C 	0.07620 0.84030 0.17740 0.53800
C 	C 	0.03240 0.86370 0.94570 -0.43800
H 	H 	0.04360 0.89290 0.93920 0.15600
H 	H 	0.03950 0.84570 0.90930 0.13900
H 	H 	0.00100 0.86480 0.95100 0.13100
C 	C 	0.81570 0.00370 0.98610 -0.92800
H 	H 	0.83310 0.98600 0.95750 0.28900
H 	H 	0.80550 0.98570 0.02110 0.23900
H 	H 	0.79080 0.01550 0.96350 0.27900
C 	C 	0.86060 0.06740 0.95880 -0.96800
H 	H 	0.87660 0.09190 0.97610 0.31000
H 	H 	0.88000 0.04980 0.93290 0.29000
H 	H 	0.83670 0.07800 0.93290 0.28100
C 	C 	0.84300 0.04030 0.01150 0.67200
C 	C 	0.90670 0.98590 0.02850 -0.15300
H 	H 	0.89930 0.96580 0.99330 0.03900
C 	C 	0.98280 0.95320 0.05580 -0.45700
H 	H 	0.00480 0.96580 0.02830 0.15900
H 	H 	0.99550 0.94720 0.09710 0.16100
H 	H 	0.97220 0.92620 0.03740 0.14200
C 	C 	0.91090 0.82320 0.26940 -1.33700
H 	H 	0.88630 0.81490 0.24310 0.38900
H 	H 	0.93060 0.84140 0.24500 0.40800
H 	H 	0.92610 0.79720 0.28350 0.38100
C 	C 	0.89620 0.84600 0.32100 0.83000
C 	C 	0.74620 0.88860 0.22600 -0.33100
H 	H 	0.72550 0.87130 0.25010 0.09900
H 	H 	0.73490 0.91800 0.22080 0.05800
H 	H 	0.75050 0.87550 0.18460 0.05900
C 	C 	0.79290 0.89050 0.26390 -0.03000
C 	C 	0.92710 0.87980 0.36210 -0.88900
H 	H 	0.95490 0.88340 0.34070 0.25400
H 	H 	0.91270 0.90780 0.36550 0.24800
H 	H 	0.93200 0.86800 0.40420 0.24400
Mo	Mo	0.35432 0.42712 0.72535 0.98600
Mo	Mo	0.52832 0.28247 0.55358 0.98500
Mo	Mo	0.38851 0.47505 0.63317 0.99800
Cu	Cu	0.31586 0.36611 0.53884 0.78300
Cu	Cu	0.39474 0.33474 0.57535 0.77300
I 	I 	0.32068 0.29248 0.60035 -0.59100
I 	I 	0.38446 0.36855 0.46237 -0.53800
P 	P 	0.33305 0.41813 0.61293 -0.68500
P 	P 	0.45229 0.29132 0.57475 -0.36200
P 	P 	0.39743 0.39554 0.63921 -0.08800
P 	P 	0.37612 0.50247 0.73890 -0.35800
P 	P 	0.52000 0.23250 0.46620 0.04200
P 	P 	0.46720 0.27810 0.46940 -0.25000
P 	P 	0.42926 0.45832 0.73310 1.65500
P 	P 	0.31690 0.49300 0.68250 -2.46300
S 	S 	0.48819 0.25802 0.64970 -0.23000
S 	S 	0.42980 0.43750 0.70870 -2.24600
S 	S 	0.31304 0.47550 0.66150 2.44500
C 	C 	0.53410 0.35420 0.70770 -0.88000
H 	H 	0.51360 0.33010 0.70680 0.25600
H 	H 	0.53950 0.36270 0.75130 0.25400
H 	H 	0.52200 0.37870 0.68460 0.28500
C 	C 	0.58850 0.31450 0.50460 -0.00700
C 	C 	0.54290 0.35470 0.56720 -0.15900
H 	H 	0.52130 0.37670 0.58090 0.03600
C 	C 	0.40570 0.54340 0.59510 -0.12300
H 	H 	0.39760 0.57140 0.61540 0.04100
C 	C 	0.34210 0.41420 0.83040 -0.08500
H 	H 	0.35420 0.43030 0.86710 -0.01600
C 	C 	0.38090 0.31390 0.87060 -1.01600
H 	H 	0.36110 0.29310 0.85130 0.29800
H 	H 	0.40580 0.29860 0.88810 0.27500
H 	H 	0.36590 0.32950 0.90420 0.29400
C 	C 	0.44540 0.52080 0.60430 -0.04600
C 	C 	0.48130 0.53520 0.64810 -0.36200
H 	H 	0.50490 0.54770 0.62350 0.12200
H 	H 	0.47010 0.55690 0.67740 0.08800
H 	H 	0.49200 0.51030 0.67180 0.09400
C 	C 	0.55250 0.34470 0.50340 -0.01700
C 	C 	0.59820 0.30730 0.56820 -0.16400
H 	H 	0.62260 0.28900 0.58330 0.04600
C 	C 	0.57200 0.33340 0.60780 -0.19800
C 	C 	0.38220 0.52270 0.54610 -0.25400
C 	C 	0.59540 0.29960 0.71040 -0.79300
H 	H 	0.57490 0.27560 0.70700 0.22500
H 	H 	0.62260 0.29170 0.69020 0.24000
H 	H 	0.60060 0.30610 0.75480 0.21600
C 	C 	0.31650 0.56920 0.55320 -0.98900
H 	H 	0.33440 0.59320 0.56790 0.30800
H 	H 	0.29190 0.58040 0.52950 0.28500
H 	H 	0.30600 0.55260 0.58930 0.28500
C 	C 	0.61080 0.37530 0.68570 -0.78500
H 	H 	0.60080 0.40230 0.66670 0.23300
H 	H 	0.61620 0.37990 0.73060 0.22200
H 	H 	0.63760 0.36610 0.66530 0.23600
C 	C 	0.61140 0.29650 0.44960 -0.42000
H 	H 	0.63710 0.31390 0.44080 0.13900
H 	H 	0.62000 0.26670 0.45850 0.11800
H 	H 	0.59220 0.29700 0.41300 0.13300
C 	C 	0.32520 0.36260 0.75950 -0.07600
H 	H 	0.32380 0.33630 0.73240 0.00300
C 	C 	0.36050 0.37190 0.79870 -0.34100
C 	C 	0.30140 0.41900 0.80350 -0.15100
C 	C 	0.44550 0.48470 0.56320 0.02500
C 	C 	0.57620 0.34030 0.67740 0.53800
C 	C 	0.53240 0.36370 0.44570 -0.43800
H 	H 	0.54360 0.39290 0.43920 0.15600
H 	H 	0.53950 0.34570 0.40930 0.13900
H 	H 	0.50100 0.36480 0.45100 0.13000
C 	C 	0.31570 0.50370 0.48610 -0.93100
H 	H 	0.33310 0.48600 0.45750 0.29000
H 	H 	0.30550 0.48570 0.52110 0.24000
H 	H 	0.29080 0.51550 0.46350 0.28000
C 	C 	0.36060 0.56740 0.45880 -0.97000
H 	H 	0.37660 0.59190 0.47610 0.31100
H 	H 	0.38000 0.54980 0.43290 0.29100
H 	H 	0.33670 0.57800 0.43290 0.28200
C 	C 	0.34300 0.54030 0.51150 0.67400
C 	C 	0.40670 0.48590 0.52850 -0.15300
H 	H 	0.39930 0.46580 0.49330 0.04000
C 	C 	0.48280 0.45320 0.55580 -0.45600
H 	H 	0.50480 0.46580 0.52830 0.15800
H 	H 	0.49550 0.44720 0.59710 0.16100
H 	H 	0.47220 0.42620 0.53740 0.14100
C 	C 	0.41090 0.32320 0.76940 -1.33700
H 	H 	0.38630 0.31490 0.74310 0.38900
H 	H 	0.43060 0.34140 0.74500 0.40800
H 	H 	0.42610 0.29720 0.78350 0.38100
C 	C 	0.39620 0.34600 0.82100 0.83000
C 	C 	0.24620 0.38860 0.72600 -0.33100
H 	H 	0.22550 0.37130 0.75010 0.09900
H 	H 	0.23490 0.41800 0.72080 0.05800
H 	H 	0.25050 0.37550 0.68460 0.05900
C 	C 	0.29290 0.39050 0.76390 -0.03000
C 	C 	0.42710 0.37980 0.86210 -0.88900
H 	H 	0.45490 0.38340 0.84070 0.25400
H 	H 	0.41270 0.40780 0.86550 0.24800
H 	H 	0.43200 0.36800 0.90420 0.24400
