data_crystal

_cell_length_a 11.70340
_cell_length_b 11.98090
_cell_length_c 12.53160
_cell_angle_alpha 107.48900
_cell_angle_beta  106.57400
_cell_angle_gamma 112.34100

_symmetry_space_group_name_	'P 1'
_symmetry_space_group_name_H-M	'P 1'

loop_
_symmetry_equiv_pos_as_xyz
  x,y,z

loop_
_atom_site_label
_atom_site_type_symbol
_atom_site_fract_x
_atom_site_fract_y
_atom_site_fract_z
_atom_site_charge
Ag	Ag	0.59303 0.77539 0.39710 0.48700
Ag	Ag	0.26869 0.71138 0.12556 0.50500
Ag	Ag	0.30407 0.62171 0.39710 0.48600
Ag	Ag	0.35687 0.41418 0.12556 0.50500
Ag	Ag	0.40697 0.22461 0.60290 0.48600
Ag	Ag	0.73131 0.28862 0.87444 0.50400
Ag	Ag	0.69593 0.37829 0.60290 0.48600
Ag	Ag	0.64313 0.58582 0.87444 0.50500
H 	H 	0.40350 0.65350 0.92060 -0.02800
H 	H 	0.74200 0.65160 0.26240 0.00300
H 	H 	0.77930 0.64530 0.15100 0.00100
H 	H 	0.95790 0.82950 0.33360 0.14200
H 	H 	0.85970 0.88490 0.35260 0.12400
H 	H 	0.89700 0.87880 0.24120 0.13900
H 	H 	0.51630 0.30170 0.30580 -0.03500
H 	H 	0.77050 0.67730 0.69960 -0.01700
H 	H 	0.73230 0.77110 0.65160 -0.01500
H 	H 	0.96610 0.85850 0.73080 0.14600
H 	H 	0.94340 0.72140 0.63860 0.14700
H 	H 	0.90370 0.81180 0.58620 0.14200
H 	H 	0.01710 0.26710 0.92060 -0.02800
H 	H 	0.02040 0.61080 0.26240 -0.00400
H 	H 	0.87170 0.50570 0.15100 -0.00400
H 	H 	0.87570 0.50410 0.33360 0.14700
H 	H 	0.99290 0.46770 0.35260 0.13000
H 	H 	0.84420 0.36240 0.24120 0.14500
H 	H 	0.28950 0.00410 0.30580 -0.03400
H 	H 	0.42910 0.02230 0.69960 -0.01800
H 	H 	0.41930 0.88050 0.65160 -0.01600
H 	H 	0.26470 0.87230 0.73080 0.14800
H 	H 	0.19520 0.91720 0.63860 0.14800
H 	H 	0.18250 0.77440 0.58620 0.14300
H 	H 	0.59650 0.34650 0.07940 -0.02800
H 	H 	0.25800 0.34840 0.73760 0.00300
H 	H 	0.22070 0.35470 0.84900 0.00100
H 	H 	0.04210 0.17050 0.66640 0.14200
H 	H 	0.14030 0.11510 0.64740 0.12400
H 	H 	0.10300 0.12120 0.75880 0.13900
H 	H 	0.48370 0.69830 0.69420 -0.03500
H 	H 	0.22950 0.32270 0.30040 -0.01700
H 	H 	0.26770 0.22890 0.34840 -0.01500
H 	H 	0.03390 0.14150 0.26920 0.14600
H 	H 	0.05660 0.27860 0.36140 0.14700
H 	H 	0.09630 0.18820 0.41380 0.14200
H 	H 	0.98290 0.73290 0.07940 -0.02800
H 	H 	0.97960 0.38920 0.73760 -0.00400
H 	H 	0.12830 0.49430 0.84900 -0.00400
H 	H 	0.12430 0.49590 0.66640 0.14700
H 	H 	0.00710 0.53230 0.64740 0.13000
H 	H 	0.15580 0.63760 0.75880 0.14500
H 	H 	0.71050 0.99590 0.69420 -0.03400
H 	H 	0.57090 0.97770 0.30040 -0.01800
H 	H 	0.58070 0.11950 0.34840 -0.01600
H 	H 	0.73530 0.12770 0.26920 0.14800
H 	H 	0.80480 0.08280 0.36140 0.14800
H 	H 	0.81750 0.22560 0.41380 0.14300
C 	C 	0.62763 0.69113 0.13986 0.06300
C 	C 	0.46260 0.66910 0.99800 0.07900
C 	C 	0.75810 0.69630 0.21080 0.00300
C 	C 	0.87860 0.83430 0.29140 -0.44900
C 	C 	0.66740 0.58920 0.50900 0.06000
C 	C 	0.55300 0.39400 0.35500 0.08200
C 	C 	0.76640 0.70860 0.63640 0.03000
C 	C 	0.90720 0.78140 0.64900 -0.48200
C 	C 	0.01223 0.44873 0.13986 0.05500
C 	C 	0.03540 0.32890 0.99800 0.08200
C 	C 	0.95270 0.51450 0.21080 0.02100
C 	C 	0.91280 0.45710 0.29140 -0.46800
C 	C 	0.34160 0.91980 0.50900 0.06000
C 	C 	0.30200 0.96100 0.35500 0.08100
C 	C 	0.37000 0.92780 0.63640 0.03200
C 	C 	0.24180 0.86760 0.64900 -0.48600
C 	C 	0.37237 0.30887 0.86014 0.06300
C 	C 	0.53740 0.33090 0.00200 0.07900
C 	C 	0.24190 0.30370 0.78920 0.00300
C 	C 	0.12140 0.16570 0.70860 -0.44900
C 	C 	0.33260 0.41080 0.49100 0.06000
C 	C 	0.44700 0.60600 0.64500 0.08200
C 	C 	0.23360 0.29140 0.36360 0.03000
C 	C 	0.09280 0.21860 0.35100 -0.48200
C 	C 	0.98777 0.55127 0.86014 0.05500
C 	C 	0.96460 0.67110 0.00200 0.08200
C 	C 	0.04730 0.48550 0.78920 0.02100
C 	C 	0.08720 0.54290 0.70860 -0.46800
C 	C 	0.65840 0.08020 0.49100 0.06000
C 	C 	0.69800 0.03900 0.64500 0.08100
C 	C 	0.63000 0.07220 0.36360 0.03200
C 	C 	0.75820 0.13240 0.35100 -0.48600
N 	N 	0.54756 0.71076 0.19032 -0.18100
N 	N 	0.43866 0.69656 0.09632 -0.18700
N 	N 	0.57949 0.66569 0.01938 -0.19900
N 	N 	0.59550 0.59740 0.41160 -0.17700
N 	N 	0.52143 0.47013 0.31186 -0.17500
N 	N 	0.64415 0.46225 0.47830 -0.20800
N 	N 	0.14276 0.47956 0.19032 -0.18000
N 	N 	0.15766 0.39976 0.09632 -0.18800
N 	N 	0.93989 0.35369 0.01938 -0.19700
N 	N 	0.31610 0.81420 0.41160 -0.17700
N 	N 	0.29043 0.84173 0.31186 -0.17500
N 	N 	0.33415 0.01605 0.47830 -0.20700
N 	N 	0.45244 0.28924 0.80968 -0.18100
N 	N 	0.56134 0.30344 0.90368 -0.18700
N 	N 	0.42051 0.33431 0.98062 -0.19900
N 	N 	0.40450 0.40260 0.58840 -0.17700
N 	N 	0.47857 0.52987 0.68814 -0.17500
N 	N 	0.35585 0.53775 0.52170 -0.20800
N 	N 	0.85724 0.52044 0.80968 -0.18000
N 	N 	0.84234 0.60024 0.90368 -0.18800
N 	N 	0.06011 0.64631 0.98062 -0.19700
N 	N 	0.68390 0.18580 0.58840 -0.17700
N 	N 	0.70957 0.15827 0.68814 -0.17500
N 	N 	0.66585 0.98395 0.52170 -0.20700
