data_crystal

_cell_length_a 11.65630
_cell_length_b 11.93180
_cell_length_c 21.38660
_cell_angle_alpha 90.00000
_cell_angle_beta  90.00000
_cell_angle_gamma 113.84400

_symmetry_space_group_name_	'P 1'
_symmetry_space_group_name_H-M	'P 1'

loop_
_symmetry_equiv_pos_as_xyz
  x,y,z

loop_
_atom_site_label
_atom_site_type_symbol
_atom_site_fract_x
_atom_site_fract_y
_atom_site_fract_z
_atom_site_charge
Ag	Ag	0.46573 0.41206 0.81382 0.50500
Ag	Ag	0.65085 0.32355 0.94710 0.48300
Ag	Ag	0.55504 0.09894 0.81368 0.50600
Ag	Ag	0.35897 0.18155 0.94771 0.48500
Ag	Ag	0.03427 0.58794 0.31382 0.50500
Ag	Ag	0.84915 0.67645 0.44710 0.48300
Ag	Ag	0.94496 0.90106 0.31368 0.50600
Ag	Ag	0.14103 0.81845 0.44771 0.48500
Ag	Ag	0.53427 0.58794 0.18618 0.50500
Ag	Ag	0.34915 0.67645 0.05290 0.48300
Ag	Ag	0.44496 0.90106 0.18632 0.50600
Ag	Ag	0.64103 0.81845 0.05229 0.48500
Ag	Ag	0.96573 0.41206 0.68618 0.50500
Ag	Ag	0.15085 0.32355 0.55290 0.48300
Ag	Ag	0.05504 0.09894 0.68632 0.50600
Ag	Ag	0.85897 0.18155 0.55229 0.48500
H 	H 	0.70460 0.46130 0.71290 -0.02700
H 	H 	0.86460 0.26730 0.87680 0.01000
H 	H 	0.95930 0.32090 0.82160 0.00900
H 	H 	0.05260 0.41180 0.91310 0.13500
H 	H 	0.94450 0.45510 0.92600 0.11600
H 	H 	0.03720 0.51130 0.87020 0.13000
H 	H 	0.63330 0.89710 0.90370 -0.03300
H 	H 	0.64710 0.19080 0.07330 -0.01200
H 	H 	0.64480 0.06740 0.09980 -0.01700
H 	H 	0.83050 0.22610 0.12670 0.14500
H 	H 	0.86060 0.26050 0.05610 0.14000
H 	H 	0.85880 0.13670 0.08170 0.14500
H 	H 	0.31200 0.03970 0.71330 -0.02700
H 	H 	0.15560 0.24060 0.87640 0.01200
H 	H 	0.06210 0.18980 0.82040 0.01100
H 	H 	0.96450 0.09720 0.91120 0.13200
H 	H 	0.97920 0.99760 0.86800 0.12700
H 	H 	0.07050 0.05130 0.92460 0.11300
H 	H 	0.39690 0.61580 0.90480 -0.03500
H 	H 	0.31740 0.42170 0.09740 -0.03200
H 	H 	0.32930 0.30350 0.07250 -0.02800
H 	H 	0.13390 0.25520 0.10990 0.16300
H 	H 	0.11500 0.34890 0.06400 0.16200
H 	H 	0.12660 0.23130 0.03760 0.15900
H 	H 	0.79540 0.53870 0.21290 -0.02700
H 	H 	0.63540 0.73270 0.37680 0.01000
H 	H 	0.54070 0.67910 0.32160 0.00800
H 	H 	0.44740 0.58820 0.41310 0.13500
H 	H 	0.55550 0.54490 0.42600 0.11600
H 	H 	0.46280 0.48870 0.37020 0.13000
H 	H 	0.86670 0.10290 0.40370 -0.03300
H 	H 	0.85290 0.80920 0.57330 -0.01200
H 	H 	0.85520 0.93260 0.59980 -0.01700
H 	H 	0.66950 0.77390 0.62670 0.14500
H 	H 	0.63940 0.73950 0.55610 0.13900
H 	H 	0.64120 0.86330 0.58170 0.14400
H 	H 	0.18800 0.96030 0.21330 -0.02700
H 	H 	0.34440 0.75940 0.37640 0.01200
H 	H 	0.43790 0.81020 0.32040 0.01100
H 	H 	0.53550 0.90280 0.41120 0.13200
H 	H 	0.52080 0.00240 0.36800 0.12700
H 	H 	0.42950 0.94870 0.42460 0.11300
H 	H 	0.10310 0.38420 0.40480 -0.03500
H 	H 	0.18260 0.57830 0.59740 -0.03200
H 	H 	0.17070 0.69650 0.57250 -0.02800
H 	H 	0.36610 0.74480 0.60990 0.16300
H 	H 	0.38500 0.65110 0.56400 0.16100
H 	H 	0.37340 0.76870 0.53760 0.15900
H 	H 	0.29540 0.53870 0.28710 -0.02700
H 	H 	0.13540 0.73270 0.12320 0.01000
H 	H 	0.04070 0.67910 0.17840 0.00900
H 	H 	0.94740 0.58820 0.08690 0.13500
H 	H 	0.05550 0.54490 0.07400 0.11600
H 	H 	0.96280 0.48870 0.12980 0.13000
H 	H 	0.36670 0.10290 0.09630 -0.03300
H 	H 	0.35290 0.80920 0.92670 -0.01200
H 	H 	0.35520 0.93260 0.90020 -0.01700
H 	H 	0.16950 0.77390 0.87330 0.14500
H 	H 	0.13940 0.73950 0.94390 0.14000
H 	H 	0.14120 0.86330 0.91830 0.14500
H 	H 	0.68800 0.96030 0.28670 -0.02700
H 	H 	0.84440 0.75940 0.12360 0.01200
H 	H 	0.93790 0.81020 0.17960 0.01100
H 	H 	0.03550 0.90280 0.08880 0.13200
H 	H 	0.02080 0.00240 0.13200 0.12700
H 	H 	0.92950 0.94870 0.07540 0.11300
H 	H 	0.60310 0.38420 0.09520 -0.03500
H 	H 	0.68260 0.57830 0.90260 -0.03200
H 	H 	0.67070 0.69650 0.92750 -0.02800
H 	H 	0.86610 0.74480 0.89010 0.16300
H 	H 	0.88500 0.65110 0.93600 0.16200
H 	H 	0.87340 0.76870 0.96240 0.15900
H 	H 	0.20460 0.46130 0.78710 -0.02700
H 	H 	0.36460 0.26730 0.62320 0.01000
H 	H 	0.45930 0.32090 0.67840 0.00800
H 	H 	0.55260 0.41180 0.58690 0.13500
H 	H 	0.44450 0.45510 0.57400 0.11600
H 	H 	0.53720 0.51130 0.62980 0.13000
H 	H 	0.13330 0.89710 0.59630 -0.03300
H 	H 	0.14710 0.19080 0.42670 -0.01200
H 	H 	0.14480 0.06740 0.40020 -0.01700
H 	H 	0.33050 0.22610 0.37330 0.14500
H 	H 	0.36060 0.26050 0.44390 0.13900
H 	H 	0.35880 0.13670 0.41830 0.14400
H 	H 	0.81200 0.03970 0.78670 -0.02700
H 	H 	0.65560 0.24060 0.62360 0.01200
H 	H 	0.56210 0.18980 0.67960 0.01100
H 	H 	0.46450 0.09720 0.58880 0.13200
H 	H 	0.47920 0.99760 0.63200 0.12700
H 	H 	0.57050 0.05130 0.57540 0.11300
H 	H 	0.89690 0.61580 0.59520 -0.03500
H 	H 	0.81740 0.42170 0.40260 -0.03200
H 	H 	0.82930 0.30350 0.42750 -0.02800
H 	H 	0.63390 0.25520 0.39010 0.16300
H 	H 	0.61500 0.34890 0.43600 0.16100
H 	H 	0.62660 0.23130 0.46240 0.15900
C 	C 	0.81470 0.37430 0.81855 0.06800
C 	C 	0.72320 0.43250 0.75034 0.07600
C 	C 	0.90880 0.34040 0.85220 -0.02200
C 	C 	0.99320 0.43830 0.89410 -0.42100
C 	C 	0.66220 0.07880 0.00518 0.06500
C 	C 	0.63950 0.96360 0.92830 0.08300
C 	C 	0.68510 0.13230 0.06967 0.02200
C 	C 	0.82070 0.19440 0.08490 -0.47300
C 	C 	0.20390 0.13300 0.81814 0.06800
C 	C 	0.29430 0.07030 0.75038 0.07700
C 	C 	0.11090 0.16830 0.85123 -0.03000
C 	C 	0.02340 0.06980 0.89240 -0.41200
C 	C 	0.33390 0.42090 0.00318 0.04800
C 	C 	0.38090 0.54550 0.92832 0.08300
C 	C 	0.28990 0.35990 0.06490 0.07500
C 	C 	0.15490 0.29320 0.06950 -0.53500
C 	C 	0.68530 0.62570 0.31855 0.06800
C 	C 	0.77680 0.56750 0.25034 0.07600
C 	C 	0.59120 0.65960 0.35220 -0.02100
C 	C 	0.50680 0.56170 0.39410 -0.42200
C 	C 	0.83780 0.92120 0.50518 0.06500
C 	C 	0.86050 0.03640 0.42830 0.08300
C 	C 	0.81490 0.86770 0.56967 0.02200
C 	C 	0.67930 0.80560 0.58490 -0.47200
C 	C 	0.29610 0.86700 0.31814 0.06800
C 	C 	0.20570 0.92970 0.25038 0.07700
C 	C 	0.38910 0.83170 0.35123 -0.03000
C 	C 	0.47660 0.93020 0.39240 -0.41200
C 	C 	0.16610 0.57910 0.50318 0.04800
C 	C 	0.11910 0.45450 0.42832 0.08300
C 	C 	0.21010 0.64010 0.56490 0.07500
C 	C 	0.34510 0.70680 0.56950 -0.53400
C 	C 	0.18530 0.62570 0.18145 0.06800
C 	C 	0.27680 0.56750 0.24966 0.07600
C 	C 	0.09120 0.65960 0.14780 -0.02200
C 	C 	0.00680 0.56170 0.10590 -0.42100
C 	C 	0.33780 0.92120 0.99482 0.06500
C 	C 	0.36050 0.03640 0.07170 0.08300
C 	C 	0.31490 0.86770 0.93033 0.02200
C 	C 	0.17930 0.80560 0.91510 -0.47300
C 	C 	0.79610 0.86700 0.18186 0.06800
C 	C 	0.70570 0.92970 0.24962 0.07700
C 	C 	0.88910 0.83170 0.14877 -0.03000
C 	C 	0.97660 0.93020 0.10760 -0.41200
C 	C 	0.66610 0.57910 0.99682 0.04800
C 	C 	0.61910 0.45450 0.07168 0.08300
C 	C 	0.71010 0.64010 0.93510 0.07500
C 	C 	0.84510 0.70680 0.93050 -0.53500
C 	C 	0.31470 0.37430 0.68145 0.06800
C 	C 	0.22320 0.43250 0.74966 0.07600
C 	C 	0.40880 0.34040 0.64780 -0.02100
C 	C 	0.49320 0.43830 0.60590 -0.42200
C 	C 	0.16220 0.07880 0.49482 0.06500
C 	C 	0.13950 0.96360 0.57170 0.08300
C 	C 	0.18510 0.13230 0.43033 0.02200
C 	C 	0.32070 0.19440 0.41510 -0.47200
C 	C 	0.70390 0.13300 0.68186 0.06800
C 	C 	0.79430 0.07030 0.74962 0.07700
C 	C 	0.61090 0.16830 0.64877 -0.03000
C 	C 	0.52340 0.06980 0.60760 -0.41200
C 	C 	0.83390 0.42090 0.49682 0.04800
C 	C 	0.88090 0.54550 0.57168 0.08300
C 	C 	0.78990 0.35990 0.43510 0.07500
C 	C 	0.65490 0.29320 0.43050 -0.53400
N 	N 	0.70850 0.36660 0.84431 -0.18300
N 	N 	0.64860 0.40550 0.79928 -0.18400
N 	N 	0.82880 0.41480 0.75936 -0.20000
N 	N 	0.64600 0.13790 0.95628 -0.17800
N 	N 	0.63040 0.06170 0.90557 -0.17300
N 	N 	0.65860 0.96800 0.99025 -0.21000
N 	N 	0.31040 0.14040 0.84373 -0.18300
N 	N 	0.36940 0.09880 0.79892 -0.18400
N 	N 	0.18910 0.08970 0.75909 -0.19900
N 	N 	0.36060 0.36590 0.95502 -0.17300
N 	N 	0.39160 0.44800 0.90615 -0.17400
N 	N 	0.34430 0.53410 0.98867 -0.20700
N 	N 	0.79150 0.63340 0.34431 -0.18300
N 	N 	0.85140 0.59450 0.29928 -0.18400
N 	N 	0.67120 0.58520 0.25936 -0.20000
N 	N 	0.85400 0.86210 0.45628 -0.17800
N 	N 	0.86960 0.93830 0.40557 -0.17300
N 	N 	0.84140 0.03200 0.49025 -0.21000
N 	N 	0.18960 0.85960 0.34373 -0.18300
N 	N 	0.13060 0.90120 0.29892 -0.18400
N 	N 	0.31090 0.91030 0.25909 -0.19900
N 	N 	0.13940 0.63410 0.45502 -0.17300
N 	N 	0.10840 0.55200 0.40615 -0.17400
N 	N 	0.15570 0.46590 0.48867 -0.20700
N 	N 	0.29150 0.63340 0.15569 -0.18300
N 	N 	0.35140 0.59450 0.20072 -0.18400
N 	N 	0.17120 0.58520 0.24064 -0.20000
N 	N 	0.35400 0.86210 0.04372 -0.17800
N 	N 	0.36960 0.93830 0.09443 -0.17300
N 	N 	0.34140 0.03200 0.00975 -0.21000
N 	N 	0.68960 0.85960 0.15627 -0.18300
N 	N 	0.63060 0.90120 0.20108 -0.18400
N 	N 	0.81090 0.91030 0.24091 -0.19900
N 	N 	0.63940 0.63410 0.04498 -0.17300
N 	N 	0.60840 0.55200 0.09385 -0.17400
N 	N 	0.65570 0.46590 0.01133 -0.20700
N 	N 	0.20850 0.36660 0.65569 -0.18300
N 	N 	0.14860 0.40550 0.70072 -0.18400
N 	N 	0.32880 0.41480 0.74064 -0.20000
N 	N 	0.14600 0.13790 0.54372 -0.17800
N 	N 	0.13040 0.06170 0.59443 -0.17300
N 	N 	0.15860 0.96800 0.50975 -0.21000
N 	N 	0.81040 0.14040 0.65627 -0.18300
N 	N 	0.86940 0.09880 0.70108 -0.18400
N 	N 	0.68910 0.08970 0.74091 -0.19900
N 	N 	0.86060 0.36590 0.54498 -0.17300
N 	N 	0.89160 0.44800 0.59385 -0.17400
N 	N 	0.84430 0.53410 0.51133 -0.20700
