data_crystal

_cell_length_a 34.70500
_cell_length_b 34.70500
_cell_length_c 37.90230
_cell_angle_alpha 90.00000
_cell_angle_beta  90.00000
_cell_angle_gamma 120.00000

_symmetry_space_group_name_	'P 1'
_symmetry_space_group_name_H-M	'P 1'

loop_
_symmetry_equiv_pos_as_xyz
  x,y,z

loop_
_atom_site_label
_atom_site_type_symbol
_atom_site_fract_x
_atom_site_fract_y
_atom_site_fract_z
_atom_site_charge
Zn	Zn	0.27186 0.63558 0.52838 1.20800
O 	O 	0.26100 0.67530 0.49798 -0.50800
O 	O 	0.32490 0.74040 0.49929 -0.53600
O 	O 	0.22980 0.62250 0.56749 -0.51800
C 	C 	0.28650 0.71600 0.49010 0.42900
C 	C 	0.23820 0.63160 0.60030 0.44000
O 	O 	0.27610 0.64770 0.61431 -0.52600
C 	C 	0.26360 0.73260 0.46500 -0.18400
C 	C 	0.20180 0.62190 0.62440 -0.27300
C 	C 	0.28860 0.77640 0.45300 0.10100
C 	C 	0.22080 0.70730 0.45390 0.12800
C 	C 	0.15930 0.60800 0.61260 0.20300
C 	C 	0.20720 0.62540 0.65880 0.20800
H 	H 	0.31810 0.79390 0.46010 0.00300
C 	C 	0.26920 0.79410 0.42980 -0.21000
C 	C 	0.20420 0.72620 0.43140 -0.22200
H 	H 	0.20340 0.67800 0.46130 -0.00500
H 	H 	0.15380 0.60760 0.58850 -0.03500
C 	C 	0.12460 0.59450 0.63620 -0.31600
C 	C 	0.17200 0.61380 0.68210 -0.29300
H 	H 	0.23560 0.63610 0.66800 -0.02300
H 	H 	0.28580 0.82350 0.42230 0.09500
C 	C 	0.22710 0.76880 0.41880 0.17100
H 	H 	0.17490 0.70860 0.42400 0.09800
H 	H 	0.09600 0.58270 0.62720 0.13200
C 	C 	0.12930 0.59720 0.67030 0.25200
H 	H 	0.17760 0.61730 0.70620 0.12400
C 	C 	0.20980 0.78900 0.39260 -0.17900
C 	C 	0.09080 0.57980 0.69320 -0.19700
C 	C 	0.18050 0.80200 0.40530 0.09000
C 	C 	0.22310 0.79320 0.35820 0.12700
C 	C 	0.07420 0.60560 0.70570 0.10600
C 	C 	0.07410 0.53590 0.70410 0.07600
N 	N 	0.15950 0.81980 0.38480 -0.30900
C 	C 	0.16420 0.79750 0.44230 -0.07200
N 	N 	0.21050 0.81040 0.33220 -0.30300
C 	C 	0.25180 0.77950 0.34570 -0.09600
C 	C 	0.09520 0.65450 0.69680 -0.07900
N 	N 	0.03960 0.59470 0.72790 -0.29900
N 	N 	0.03650 0.51000 0.72650 -0.30700
C 	C 	0.08840 0.50270 0.69400 -0.04100
C 	C 	0.13220 0.82470 0.40650 0.14100
C 	C 	0.13510 0.81310 0.44330 -0.12100
H 	H 	0.17240 0.78610 0.46120 0.04500
C 	C 	0.23150 0.80780 0.30100 0.14500
H 	H 	0.26450 0.76600 0.35870 0.07000
C 	C 	0.25780 0.78930 0.31090 -0.10900
C 	C 	0.06860 0.66780 0.70970 -0.10400
H 	H 	0.12170 0.67170 0.68470 0.05400
C 	C 	0.03390 0.63050 0.73210 0.13100
C 	C 	0.03400 0.46980 0.72960 0.17400
C 	C 	0.06430 0.46410 0.70930 -0.15600
H 	H 	0.11180 0.50910 0.67870 0.04300
C 	C 	0.10590 0.84410 0.39710 -0.27900
H 	H 	0.12040 0.81580 0.46290 0.06500
H 	H 	0.27640 0.78470 0.29600 0.06800
H 	H 	0.07080 0.69530 0.70580 0.05700
H 	H 	0.06690 0.43880 0.70710 0.07600
H 	H 	0.08930 0.84670 0.41520 0.12200
Zn	Zn	0.93853 0.96891 0.86171 1.21400
O 	O 	0.92767 0.00863 0.83131 -0.51200
O 	O 	0.99157 0.07373 0.83262 -0.53200
O 	O 	0.89647 0.95583 0.90082 -0.51300
C 	C 	0.95317 0.04933 0.82343 0.43000
C 	C 	0.90487 0.96493 0.93363 0.44400
O 	O 	0.94277 0.98103 0.94764 -0.51600
C 	C 	0.93027 0.06593 0.79833 -0.18300
C 	C 	0.86847 0.95523 0.95773 -0.27800
C 	C 	0.95527 0.10973 0.78633 0.10200
C 	C 	0.88747 0.04063 0.78723 0.12800
C 	C 	0.82597 0.94133 0.94593 0.20600
C 	C 	0.87387 0.95873 0.99213 0.23200
H 	H 	0.98477 0.12723 0.79343 0.00600
C 	C 	0.93587 0.12743 0.76313 -0.20800
C 	C 	0.87087 0.05953 0.76473 -0.22200
H 	H 	0.87007 0.01133 0.79463 -0.00800
H 	H 	0.82047 0.94093 0.92183 -0.03300
C 	C 	0.79127 0.92783 0.96953 -0.30700
C 	C 	0.83867 0.94713 0.01543 -0.30300
H 	H 	0.90227 0.96943 0.00133 -0.03000
H 	H 	0.95247 0.15683 0.75563 0.09700
C 	C 	0.89377 0.10213 0.75213 0.17100
H 	H 	0.84157 0.04193 0.75733 0.09600
H 	H 	0.76267 0.91603 0.96053 0.13300
C 	C 	0.79597 0.93053 0.00363 0.24900
H 	H 	0.84427 0.95063 0.03953 0.13100
C 	C 	0.87647 0.12233 0.72593 -0.17800
C 	C 	0.75747 0.91313 0.02653 -0.18700
C 	C 	0.84717 0.13533 0.73863 0.09000
C 	C 	0.88977 0.12653 0.69153 0.12600
C 	C 	0.74087 0.93893 0.03903 0.08700
C 	C 	0.74077 0.86923 0.03743 0.07300
N 	N 	0.82617 0.15313 0.71813 -0.30900
C 	C 	0.83087 0.13083 0.77563 -0.07200
N 	N 	0.87717 0.14373 0.66553 -0.30300
C 	C 	0.91847 0.11283 0.67903 -0.09600
C 	C 	0.76187 0.98783 0.03013 -0.00200
N 	N 	0.70627 0.92803 0.06123 -0.29800
N 	N 	0.70317 0.84333 0.05983 -0.30300
C 	C 	0.75507 0.83603 0.02733 -0.04100
C 	C 	0.79887 0.15803 0.73983 0.14100
C 	C 	0.80177 0.14643 0.77663 -0.12100
H 	H 	0.83907 0.11943 0.79453 0.04500
C 	C 	0.89817 0.14113 0.63433 0.14500
H 	H 	0.93117 0.09933 0.69203 0.07000
C 	C 	0.92447 0.12263 0.64423 -0.10900
C 	C 	0.73527 0.00113 0.04303 -0.17500
H 	H 	0.78837 0.00503 0.01803 0.01700
C 	C 	0.70057 0.96383 0.06543 0.16000
C 	C 	0.70067 0.80313 0.06293 0.16900
C 	C 	0.73097 0.79743 0.04263 -0.15300
H 	H 	0.77847 0.84243 0.01203 0.04200
C 	C 	0.77257 0.17743 0.73043 -0.27900
H 	H 	0.78707 0.14913 0.79623 0.06500
H 	H 	0.94307 0.11803 0.62933 0.07000
H 	H 	0.73747 0.02863 0.03913 0.07900
H 	H 	0.73357 0.77213 0.04043 0.07400
H 	H 	0.75597 0.18003 0.74853 0.12300
Zn	Zn	0.60519 0.30225 0.19505 1.20900
O 	O 	0.59433 0.34197 0.16465 -0.50700
O 	O 	0.65823 0.40707 0.16596 -0.53500
O 	O 	0.56313 0.28917 0.23416 -0.51700
C 	C 	0.61983 0.38267 0.15677 0.43000
C 	C 	0.57153 0.29827 0.26697 0.44100
O 	O 	0.60943 0.31437 0.28098 -0.52500
C 	C 	0.59693 0.39927 0.13167 -0.18200
C 	C 	0.53513 0.28857 0.29107 -0.27300
C 	C 	0.62193 0.44307 0.11967 0.10100
C 	C 	0.55413 0.37397 0.12057 0.12900
C 	C 	0.49263 0.27467 0.27927 0.20500
C 	C 	0.54053 0.29207 0.32547 0.21000
H 	H 	0.65143 0.46057 0.12677 0.00400
C 	C 	0.60253 0.46077 0.09647 -0.20900
C 	C 	0.53753 0.39287 0.09807 -0.22100
H 	H 	0.53673 0.34467 0.12797 -0.00400
H 	H 	0.48713 0.27427 0.25517 -0.03400
C 	C 	0.45793 0.26117 0.30287 -0.31500
C 	C 	0.50533 0.28047 0.34877 -0.29300
H 	H 	0.56893 0.30277 0.33467 -0.02200
H 	H 	0.61913 0.49017 0.08897 0.09500
C 	C 	0.56043 0.43547 0.08547 0.17200
H 	H 	0.50823 0.37527 0.09067 0.09900
H 	H 	0.42933 0.24937 0.29387 0.13400
C 	C 	0.46263 0.26387 0.33697 0.25400
H 	H 	0.51093 0.28397 0.37287 0.12500
C 	C 	0.54313 0.45567 0.05927 -0.17800
C 	C 	0.42413 0.24647 0.35987 -0.19700
C 	C 	0.51383 0.46867 0.07197 0.08900
C 	C 	0.55643 0.45987 0.02487 0.12500
C 	C 	0.40753 0.27227 0.37237 0.10800
C 	C 	0.40743 0.20257 0.37077 0.07700
N 	N 	0.49283 0.48647 0.05147 -0.31000
C 	C 	0.49753 0.46417 0.10897 -0.07100
N 	N 	0.54383 0.47707 0.99887 -0.29900
C 	C 	0.58513 0.44617 0.01237 -0.10700
C 	C 	0.42853 0.32117 0.36347 -0.08000
N 	N 	0.37293 0.26137 0.39457 -0.29700
N 	N 	0.36983 0.17667 0.39317 -0.30400
C 	C 	0.42173 0.16937 0.36067 -0.04300
C 	C 	0.46553 0.49137 0.07317 0.14200
C 	C 	0.46843 0.47977 0.10997 -0.12200
H 	H 	0.50573 0.45277 0.12787 0.04500
C 	C 	0.56483 0.47447 0.96767 0.14100
H 	H 	0.59783 0.43267 0.02537 0.07300
C 	C 	0.59113 0.45597 0.97757 -0.09700
C 	C 	0.40193 0.33447 0.37637 -0.10000
H 	H 	0.45503 0.33837 0.35137 0.05500
C 	C 	0.36723 0.29717 0.39877 0.12700
C 	C 	0.36733 0.13647 0.39627 0.16800
C 	C 	0.39763 0.13077 0.37597 -0.15100
H 	H 	0.44513 0.17577 0.34537 0.04400
C 	C 	0.43923 0.51077 0.06377 -0.28200
H 	H 	0.45373 0.48247 0.12957 0.06500
H 	H 	0.60973 0.45137 0.96267 0.06500
H 	H 	0.40413 0.36197 0.37247 0.05600
H 	H 	0.40023 0.10547 0.37377 0.07300
H 	H 	0.42263 0.51337 0.08187 0.12400
Zn	Zn	0.36442 0.63628 0.52838 1.20900
O 	O 	0.32470 0.58570 0.49798 -0.50700
O 	O 	0.25960 0.58450 0.49929 -0.53500
O 	O 	0.37750 0.60730 0.56749 -0.51700
C 	C 	0.28400 0.57050 0.49010 0.43000
C 	C 	0.36840 0.60660 0.60030 0.44100
O 	O 	0.35230 0.62840 0.61431 -0.52500
C 	C 	0.26740 0.53100 0.46500 -0.18200
C 	C 	0.37810 0.57990 0.62440 -0.27300
C 	C 	0.22360 0.51220 0.45300 0.10100
C 	C 	0.29270 0.51350 0.45390 0.12900
C 	C 	0.39200 0.55130 0.61260 0.20500
C 	C 	0.37460 0.58180 0.65880 0.21000
H 	H 	0.20610 0.52420 0.46010 0.00400
C 	C 	0.20590 0.47510 0.42980 -0.20900
C 	C 	0.27380 0.47800 0.43140 -0.22100
H 	H 	0.32200 0.52540 0.46130 -0.00400
H 	H 	0.39240 0.54620 0.58850 -0.03400
C 	C 	0.40550 0.53010 0.63620 -0.31500
C 	C 	0.38620 0.55820 0.68210 -0.29300
H 	H 	0.36390 0.59950 0.66800 -0.02200
H 	H 	0.17650 0.46230 0.42230 0.09500
C 	C 	0.23120 0.45830 0.41880 0.17200
H 	H 	0.29140 0.46630 0.42400 0.09900
H 	H 	0.41730 0.51330 0.62720 0.13400
C 	C 	0.40280 0.53210 0.67030 0.25400
H 	H 	0.38270 0.56030 0.70620 0.12500
C 	C 	0.21100 0.42080 0.39260 -0.17800
C 	C 	0.42020 0.51100 0.69320 -0.19700
C 	C 	0.19800 0.37850 0.40530 0.09000
C 	C 	0.20680 0.42990 0.35820 0.12600
C 	C 	0.39440 0.46860 0.70570 0.10800
C 	C 	0.46410 0.53820 0.70410 0.07700
N 	N 	0.18020 0.33970 0.38480 -0.30900
C 	C 	0.20250 0.36670 0.44230 -0.07200
N 	N 	0.18960 0.40010 0.33220 -0.30300
C 	C 	0.22050 0.47230 0.34570 -0.09600
C 	C 	0.34550 0.44070 0.69680 -0.08000
N 	N 	0.40530 0.44490 0.72790 -0.29700
N 	N 	0.49000 0.52650 0.72650 -0.30400
C 	C 	0.49730 0.58570 0.69400 -0.04300
C 	C 	0.17530 0.30750 0.40650 0.14100
C 	C 	0.18690 0.32200 0.44330 -0.12100
H 	H 	0.21390 0.38630 0.46120 0.04500
C 	C 	0.19220 0.42370 0.30100 0.14500
H 	H 	0.23400 0.49850 0.35870 0.07000
C 	C 	0.21070 0.46850 0.31090 -0.10900
C 	C 	0.33220 0.40080 0.70970 -0.10000
H 	H 	0.32830 0.45000 0.68470 0.05500
C 	C 	0.36950 0.40340 0.73210 0.12700
C 	C 	0.53020 0.56420 0.72960 0.16900
C 	C 	0.53590 0.60020 0.70930 -0.15200
H 	H 	0.49090 0.60270 0.67870 0.04400
C 	C 	0.15590 0.26180 0.39710 -0.27900
H 	H 	0.18420 0.30460 0.46290 0.06500
H 	H 	0.21530 0.49170 0.29600 0.06800
H 	H 	0.30470 0.37550 0.70580 0.05600
H 	H 	0.56120 0.62810 0.70710 0.07500
H 	H 	0.15330 0.24260 0.41520 0.12300
Zn	Zn	0.03109 0.96961 0.86171 1.21200
O 	O 	0.99137 0.91903 0.83131 -0.50000
O 	O 	0.92627 0.91783 0.83262 -0.53100
O 	O 	0.04417 0.94063 0.90082 -0.51700
C 	C 	0.95067 0.90383 0.82343 0.43000
C 	C 	0.03507 0.93993 0.93363 0.44800
O 	O 	0.01897 0.96173 0.94764 -0.52200
C 	C 	0.93407 0.86433 0.79833 -0.18000
C 	C 	0.04477 0.91323 0.95773 -0.29000
C 	C 	0.89027 0.84553 0.78633 0.10100
C 	C 	0.95937 0.84683 0.78723 0.12800
C 	C 	0.05867 0.88463 0.94593 0.21700
C 	C 	0.04127 0.91513 0.99213 0.24400
H 	H 	0.87277 0.85753 0.79343 0.00400
C 	C 	0.87257 0.80843 0.76313 -0.20800
C 	C 	0.94047 0.81133 0.76473 -0.22000
H 	H 	0.98867 0.85873 0.79463 -0.00100
H 	H 	0.05907 0.87953 0.92183 -0.03900
C 	C 	0.07217 0.86343 0.96953 -0.32200
C 	C 	0.05287 0.89153 0.01543 -0.31900
H 	H 	0.03057 0.93283 0.00133 -0.03700
H 	H 	0.84317 0.79563 0.75563 0.09500
C 	C 	0.89787 0.79163 0.75213 0.17200
H 	H 	0.95807 0.79963 0.75733 0.10100
H 	H 	0.08397 0.84663 0.96053 0.13700
C 	C 	0.06947 0.86543 0.00363 0.26300
H 	H 	0.04937 0.89363 0.03953 0.13400
C 	C 	0.87767 0.75413 0.72593 -0.17700
C 	C 	0.08687 0.84433 0.02653 -0.20800
C 	C 	0.86467 0.71183 0.73863 0.09000
C 	C 	0.87347 0.76323 0.69153 0.12700
C 	C 	0.06107 0.80193 0.03903 0.12100
C 	C 	0.13077 0.87153 0.03743 0.08000
N 	N 	0.84687 0.67303 0.71813 -0.30900
C 	C 	0.86917 0.70003 0.77563 -0.07100
N 	N 	0.85627 0.73343 0.66553 -0.30300
C 	C 	0.88717 0.80563 0.67903 -0.09600
C 	C 	0.01217 0.77403 0.03013 -0.12900
N 	N 	0.07197 0.77823 0.06123 -0.29600
N 	N 	0.15667 0.85983 0.05983 -0.30500
C 	C 	0.16397 0.91903 0.02733 -0.04400
C 	C 	0.84197 0.64083 0.73983 0.14100
C 	C 	0.85357 0.65533 0.77663 -0.12100
H 	H 	0.88057 0.71963 0.79453 0.04600
C 	C 	0.85887 0.75703 0.63433 0.14500
H 	H 	0.90067 0.83183 0.69203 0.07100
C 	C 	0.87737 0.80183 0.64423 -0.10800
C 	C 	0.99887 0.73413 0.04303 -0.05400
H 	H 	0.99497 0.78333 0.01803 0.07600
C 	C 	0.03617 0.73673 0.06543 0.10600
C 	C 	0.19687 0.89753 0.06293 0.17000
C 	C 	0.20257 0.93353 0.04263 -0.15200
H 	H 	0.15757 0.93603 0.01203 0.04300
C 	C 	0.82257 0.59513 0.73043 -0.27900
H 	H 	0.85087 0.63793 0.79623 0.06500
H 	H 	0.88197 0.82503 0.62933 0.06800
H 	H 	0.97137 0.70883 0.03913 0.04100
H 	H 	0.22787 0.96143 0.04043 0.07700
H 	H 	0.81997 0.57593 0.74853 0.12300
Zn	Zn	0.69775 0.30295 0.19505 1.20900
O 	O 	0.65803 0.25237 0.16465 -0.50700
O 	O 	0.59293 0.25117 0.16596 -0.53500
O 	O 	0.71083 0.27397 0.23416 -0.51700
C 	C 	0.61733 0.23717 0.15677 0.43000
C 	C 	0.70173 0.27327 0.26697 0.44100
O 	O 	0.68563 0.29507 0.28098 -0.52500
C 	C 	0.60073 0.19767 0.13167 -0.18300
C 	C 	0.71143 0.24657 0.29107 -0.27300
C 	C 	0.55693 0.17887 0.11967 0.10100
C 	C 	0.62603 0.18017 0.12057 0.12900
C 	C 	0.72533 0.21797 0.27927 0.20500
C 	C 	0.70793 0.24847 0.32547 0.21000
H 	H 	0.53943 0.19087 0.12677 0.00300
C 	C 	0.53923 0.14177 0.09647 -0.21000
C 	C 	0.60713 0.14467 0.09807 -0.22200
H 	H 	0.65533 0.19207 0.12797 -0.00400
H 	H 	0.72573 0.21287 0.25517 -0.03500
C 	C 	0.73883 0.19677 0.30287 -0.31600
C 	C 	0.71953 0.22487 0.34877 -0.29300
H 	H 	0.69723 0.26617 0.33467 -0.02200
H 	H 	0.50983 0.12897 0.08897 0.09400
C 	C 	0.56453 0.12497 0.08547 0.17300
H 	H 	0.62473 0.13297 0.09067 0.09900
H 	H 	0.75063 0.17997 0.29387 0.13300
C 	C 	0.73613 0.19877 0.33697 0.25400
H 	H 	0.71603 0.22697 0.37287 0.12500
C 	C 	0.54433 0.08747 0.05927 -0.18100
C 	C 	0.75353 0.17767 0.35987 -0.19800
C 	C 	0.53133 0.04517 0.07197 0.09400
C 	C 	0.54013 0.09657 0.02487 0.12600
C 	C 	0.72773 0.13527 0.37237 0.10800
C 	C 	0.79743 0.20487 0.37077 0.07700
N 	N 	0.51353 0.00637 0.05147 -0.31800
C 	C 	0.53583 0.03337 0.10897 -0.09700
N 	N 	0.52293 0.06677 0.99887 -0.30100
C 	C 	0.55383 0.13897 0.01237 -0.10800
C 	C 	0.67883 0.10737 0.36347 -0.08300
N 	N 	0.73863 0.11157 0.39457 -0.29500
N 	N 	0.82333 0.19317 0.39317 -0.30400
C 	C 	0.83063 0.25237 0.36067 -0.04300
C 	C 	0.50863 0.97417 0.07317 0.14800
C 	C 	0.52023 0.98867 0.10997 -0.09900
H 	H 	0.54723 0.05297 0.12787 0.05100
C 	C 	0.52553 0.09037 0.96767 0.13900
H 	H 	0.56733 0.16517 0.02537 0.07300
C 	C 	0.54403 0.13517 0.97757 -0.09600
C 	C 	0.66553 0.06747 0.37637 -0.09600
H 	H 	0.66163 0.11667 0.35137 0.05600
C 	C 	0.70283 0.07007 0.39877 0.11800
C 	C 	0.86353 0.23087 0.39627 0.17000
C 	C 	0.86923 0.26687 0.37597 -0.15200
H 	H 	0.82423 0.26937 0.34537 0.04400
C 	C 	0.48923 0.92847 0.06377 -0.28300
H 	H 	0.51753 0.97127 0.12957 0.05900
H 	H 	0.54863 0.15837 0.96267 0.06500
H 	H 	0.63803 0.04217 0.37247 0.05300
H 	H 	0.89453 0.29477 0.37377 0.07600
H 	H 	0.48663 0.90927 0.08187 0.12400
Zn	Zn	0.36372 0.72814 0.52838 1.20900
O 	O 	0.41430 0.73900 0.49798 -0.50700
O 	O 	0.41550 0.67510 0.49929 -0.53500
O 	O 	0.39270 0.77020 0.56749 -0.51700
C 	C 	0.42950 0.71350 0.49010 0.43000
C 	C 	0.39340 0.76180 0.60030 0.44100
O 	O 	0.37160 0.72390 0.61431 -0.52500
C 	C 	0.46900 0.73640 0.46500 -0.18300
C 	C 	0.42010 0.79820 0.62440 -0.27200
C 	C 	0.48780 0.71140 0.45300 0.10200
C 	C 	0.48650 0.77920 0.45390 0.12900
C 	C 	0.44870 0.84070 0.61260 0.20400
C 	C 	0.41820 0.79280 0.65880 0.20900
H 	H 	0.47580 0.68190 0.46010 0.00300
C 	C 	0.52490 0.73080 0.42980 -0.20900
C 	C 	0.52200 0.79580 0.43140 -0.22200
H 	H 	0.47460 0.79660 0.46130 -0.00400
H 	H 	0.45380 0.84620 0.58850 -0.03400
C 	C 	0.46990 0.87540 0.63620 -0.31400
C 	C 	0.44180 0.82800 0.68210 -0.29200
H 	H 	0.40050 0.76440 0.66800 -0.02200
H 	H 	0.53770 0.71420 0.42230 0.09500
C 	C 	0.54170 0.77290 0.41880 0.17200
H 	H 	0.53370 0.82510 0.42400 0.10000
H 	H 	0.48670 0.90400 0.62720 0.13400
C 	C 	0.46790 0.87070 0.67030 0.25300
H 	H 	0.43970 0.82240 0.70620 0.12500
C 	C 	0.57920 0.79020 0.39260 -0.17800
C 	C 	0.48900 0.90920 0.69320 -0.19500
C 	C 	0.62150 0.81950 0.40530 0.09000
C 	C 	0.57010 0.77690 0.35820 0.12700
C 	C 	0.53140 0.92580 0.70570 0.10700
C 	C 	0.46180 0.92590 0.70410 0.07600
N 	N 	0.66030 0.84050 0.38480 -0.30900
C 	C 	0.63330 0.83580 0.44230 -0.07100
N 	N 	0.59990 0.78950 0.33220 -0.30300
C 	C 	0.52770 0.74820 0.34570 -0.09600
C 	C 	0.55930 0.90480 0.69680 -0.07400
N 	N 	0.55510 0.96040 0.72790 -0.29600
N 	N 	0.47350 0.96350 0.72650 -0.30300
C 	C 	0.41430 0.91160 0.69400 -0.03600
C 	C 	0.69250 0.86780 0.40650 0.14200
C 	C 	0.67800 0.86490 0.44330 -0.12000
H 	H 	0.61370 0.82760 0.46120 0.04600
C 	C 	0.57630 0.76850 0.30100 0.14500
H 	H 	0.50150 0.73550 0.35870 0.07000
C 	C 	0.53150 0.74220 0.31090 -0.10900
C 	C 	0.59920 0.93140 0.70970 -0.10900
H 	H 	0.55000 0.87830 0.68470 0.05300
C 	C 	0.59660 0.96610 0.73210 0.14900
C 	C 	0.43580 0.96600 0.72960 0.19200
C 	C 	0.39980 0.93570 0.70930 -0.16400
H 	H 	0.39730 0.88820 0.67870 0.04200
C 	C 	0.73820 0.89410 0.39710 -0.27900
H 	H 	0.69540 0.87960 0.46290 0.06600
H 	H 	0.50830 0.72360 0.29600 0.06800
H 	H 	0.62450 0.92920 0.70580 0.06200
H 	H 	0.37190 0.93310 0.70710 0.08100
H 	H 	0.75740 0.91070 0.41520 0.12400
Zn	Zn	0.03039 0.06147 0.86171 1.20700
O 	O 	0.08097 0.07233 0.83131 -0.51000
O 	O 	0.08217 0.00843 0.83262 -0.54300
O 	O 	0.05937 0.10353 0.90082 -0.52100
C 	C 	0.09617 0.04683 0.82343 0.43200
C 	C 	0.06007 0.09513 0.93363 0.44800
O 	O 	0.03827 0.05723 0.94764 -0.53100
C 	C 	0.13567 0.06973 0.79833 -0.18600
C 	C 	0.08677 0.13153 0.95773 -0.29000
C 	C 	0.15447 0.04473 0.78633 0.10200
C 	C 	0.15317 0.11253 0.78723 0.13000
C 	C 	0.11537 0.17403 0.94593 0.21600
C 	C 	0.08487 0.12613 0.99213 0.24300
H 	H 	0.14247 0.01523 0.79343 -0.00100
C 	C 	0.19157 0.06413 0.76313 -0.21100
C 	C 	0.18867 0.12913 0.76473 -0.22300
H 	H 	0.14127 0.12993 0.79463 -0.00500
H 	H 	0.12047 0.17953 0.92183 -0.03800
C 	C 	0.13657 0.20873 0.96953 -0.32000
C 	C 	0.10847 0.16133 0.01543 -0.31700
H 	H 	0.06717 0.09773 0.00133 -0.03900
H 	H 	0.20437 0.04753 0.75563 0.09300
C 	C 	0.20837 0.10623 0.75213 0.17300
H 	H 	0.20037 0.15843 0.75733 0.10000
H 	H 	0.15337 0.23733 0.96053 0.13600
C 	C 	0.13457 0.20403 0.00363 0.26000
H 	H 	0.10637 0.15573 0.03953 0.13300
C 	C 	0.24587 0.12353 0.72593 -0.17800
C 	C 	0.15567 0.24253 0.02653 -0.20100
C 	C 	0.28817 0.15283 0.73863 0.09000
C 	C 	0.23677 0.11023 0.69153 0.12600
C 	C 	0.19807 0.25913 0.03903 0.10800
C 	C 	0.12847 0.25923 0.03743 0.07800
N 	N 	0.32697 0.17383 0.71813 -0.30900
C 	C 	0.29997 0.16913 0.77563 -0.07200
N 	N 	0.26657 0.12283 0.66553 -0.30300
C 	C 	0.19437 0.08153 0.67903 -0.09700
C 	C 	0.22597 0.23813 0.03013 -0.08100
N 	N 	0.22177 0.29373 0.06123 -0.29700
N 	N 	0.14017 0.29683 0.05983 -0.30400
C 	C 	0.08097 0.24493 0.02733 -0.04500
C 	C 	0.35917 0.20113 0.73983 0.14100
C 	C 	0.34467 0.19823 0.77663 -0.12100
H 	H 	0.28037 0.16093 0.79453 0.04500
C 	C 	0.24297 0.10183 0.63433 0.14400
H 	H 	0.16817 0.06883 0.69203 0.06700
C 	C 	0.19817 0.07553 0.64423 -0.11000
C 	C 	0.26587 0.26473 0.04303 -0.10000
H 	H 	0.21667 0.21163 0.01803 0.05300
C 	C 	0.26327 0.29943 0.06543 0.12700
C 	C 	0.10247 0.29933 0.06293 0.16700
C 	C 	0.06647 0.26903 0.04263 -0.15100
H 	H 	0.06397 0.22153 0.01203 0.04300
C 	C 	0.40487 0.22743 0.73043 -0.27900
H 	H 	0.36207 0.21293 0.79623 0.06500
H 	H 	0.17497 0.05693 0.62933 0.06600
H 	H 	0.29117 0.26253 0.03913 0.05600
H 	H 	0.03857 0.26643 0.04043 0.07200
H 	H 	0.42407 0.24403 0.74853 0.12300
Zn	Zn	0.69705 0.39481 0.19505 1.20900
O 	O 	0.74763 0.40567 0.16465 -0.50700
O 	O 	0.74883 0.34177 0.16596 -0.53500
O 	O 	0.72603 0.43687 0.23416 -0.51700
C 	C 	0.76283 0.38017 0.15677 0.43000
C 	C 	0.72673 0.42847 0.26697 0.44100
O 	O 	0.70493 0.39057 0.28098 -0.52500
C 	C 	0.80233 0.40307 0.13167 -0.18200
C 	C 	0.75343 0.46487 0.29107 -0.27300
C 	C 	0.82113 0.37807 0.11967 0.10100
C 	C 	0.81983 0.44587 0.12057 0.12800
C 	C 	0.78203 0.50737 0.27927 0.20500
C 	C 	0.75153 0.45947 0.32547 0.21000
H 	H 	0.80913 0.34857 0.12677 0.00400
C 	C 	0.85823 0.39747 0.09647 -0.20800
C 	C 	0.85533 0.46247 0.09807 -0.22100
H 	H 	0.80793 0.46327 0.12797 -0.00400
H 	H 	0.78713 0.51287 0.25517 -0.03400
C 	C 	0.80323 0.54207 0.30287 -0.31500
C 	C 	0.77513 0.49467 0.34877 -0.29300
H 	H 	0.73383 0.43107 0.33467 -0.02200
H 	H 	0.87103 0.38087 0.08897 0.09500
C 	C 	0.87503 0.43957 0.08547 0.17100
H 	H 	0.86703 0.49177 0.09067 0.09900
H 	H 	0.82003 0.57067 0.29387 0.13400
C 	C 	0.80123 0.53737 0.33697 0.25400
H 	H 	0.77303 0.48907 0.37287 0.12500
C 	C 	0.91253 0.45687 0.05927 -0.17500
C 	C 	0.82233 0.57587 0.35987 -0.19700
C 	C 	0.95483 0.48617 0.07197 0.08700
C 	C 	0.90343 0.44357 0.02487 0.12500
C 	C 	0.86473 0.59247 0.37237 0.10700
C 	C 	0.79513 0.59257 0.37077 0.07700
N 	N 	0.99363 0.50717 0.05147 -0.30300
C 	C 	0.96663 0.50247 0.10897 -0.05500
N 	N 	0.93323 0.45617 0.99887 -0.29800
C 	C 	0.86103 0.41487 0.01237 -0.10500
C 	C 	0.89263 0.57147 0.36347 -0.07800
N 	N 	0.88843 0.62707 0.39457 -0.29700
N 	N 	0.80683 0.63017 0.39317 -0.30400
C 	C 	0.74763 0.57827 0.36067 -0.04300
C 	C 	0.02583 0.53447 0.07317 0.13800
C 	C 	0.01133 0.53157 0.10997 -0.13500
H 	H 	0.94703 0.49427 0.12787 0.04200
C 	C 	0.90963 0.43517 0.96767 0.14300
H 	H 	0.83483 0.40217 0.02537 0.07200
C 	C 	0.86483 0.40887 0.97757 -0.09800
C 	C 	0.93253 0.59807 0.37637 -0.10300
H 	H 	0.88333 0.54497 0.35137 0.05400
C 	C 	0.92993 0.63277 0.39877 0.13300
C 	C 	0.76913 0.63267 0.39627 0.16900
C 	C 	0.73313 0.60237 0.37597 -0.15200
H 	H 	0.73063 0.55487 0.34537 0.04400
C 	C 	0.07153 0.56077 0.06377 -0.28100
H 	H 	0.02873 0.54627 0.12957 0.06900
H 	H 	0.84163 0.39027 0.96267 0.06600
H 	H 	0.95783 0.59587 0.37247 0.05900
H 	H 	0.70523 0.59977 0.37377 0.07500
H 	H 	0.09073 0.57737 0.08187 0.12300
Zn	Zn	0.63558 0.27186 0.97162 1.21000
O 	O 	0.67530 0.26100 0.00202 -0.50900
O 	O 	0.74040 0.32490 0.00071 -0.53800
O 	O 	0.62250 0.22980 0.93251 -0.51600
C 	C 	0.71600 0.28650 0.00990 0.43100
C 	C 	0.63160 0.23820 0.89970 0.44100
O 	O 	0.64770 0.27610 0.88569 -0.52500
C 	C 	0.73260 0.26360 0.03500 -0.18300
C 	C 	0.62190 0.20180 0.87560 -0.27100
C 	C 	0.77640 0.28860 0.04700 0.10200
C 	C 	0.70730 0.22080 0.04610 0.12900
C 	C 	0.60800 0.15930 0.88740 0.20400
C 	C 	0.62540 0.20720 0.84120 0.20900
H 	H 	0.79390 0.31810 0.03990 0.00300
C 	C 	0.79410 0.26920 0.07020 -0.21000
C 	C 	0.72620 0.20420 0.06860 -0.22200
H 	H 	0.67800 0.20340 0.03870 -0.00500
H 	H 	0.60760 0.15380 0.91150 -0.03400
C 	C 	0.59450 0.12460 0.86380 -0.31400
C 	C 	0.61380 0.17200 0.81790 -0.29100
H 	H 	0.63610 0.23560 0.83200 -0.02200
H 	H 	0.82350 0.28580 0.07770 0.09500
C 	C 	0.76880 0.22710 0.08120 0.17200
H 	H 	0.70860 0.17490 0.07600 0.09800
H 	H 	0.58270 0.09600 0.87280 0.13200
C 	C 	0.59720 0.12930 0.82970 0.25200
H 	H 	0.61730 0.17760 0.79380 0.12500
C 	C 	0.78900 0.20980 0.10740 -0.17800
C 	C 	0.57980 0.09080 0.80680 -0.19700
C 	C 	0.80200 0.18050 0.09470 0.09000
C 	C 	0.79320 0.22310 0.14180 0.12700
C 	C 	0.60560 0.07420 0.79430 0.10600
C 	C 	0.53590 0.07410 0.79590 0.07500
N 	N 	0.81980 0.15950 0.11520 -0.30900
C 	C 	0.79750 0.16420 0.05770 -0.07200
N 	N 	0.81040 0.21050 0.16780 -0.30300
C 	C 	0.77950 0.25180 0.15430 -0.09600
C 	C 	0.65450 0.09520 0.80320 -0.07800
N 	N 	0.59470 0.03960 0.77210 -0.30000
N 	N 	0.51000 0.03650 0.77350 -0.30700
C 	C 	0.50270 0.08840 0.80600 -0.04000
C 	C 	0.82470 0.13220 0.09350 0.14000
C 	C 	0.81310 0.13510 0.05670 -0.12100
H 	H 	0.78610 0.17240 0.03880 0.04400
C 	C 	0.80780 0.23150 0.19900 0.14500
H 	H 	0.76600 0.26450 0.14130 0.07000
C 	C 	0.78930 0.25780 0.18910 -0.10900
C 	C 	0.66780 0.06860 0.79030 -0.10600
H 	H 	0.67170 0.12170 0.81530 0.05400
C 	C 	0.63050 0.03390 0.76790 0.13400
C 	C 	0.46980 0.03400 0.77040 0.17700
C 	C 	0.46410 0.06430 0.79070 -0.15900
H 	H 	0.50910 0.11180 0.82130 0.04300
C 	C 	0.84410 0.10590 0.10290 -0.27900
H 	H 	0.81580 0.12040 0.03710 0.06300
H 	H 	0.78470 0.27640 0.20400 0.06800
H 	H 	0.69530 0.07080 0.79420 0.05700
H 	H 	0.43880 0.06690 0.79290 0.07600
H 	H 	0.84670 0.08930 0.08480 0.12100
Zn	Zn	0.30225 0.60519 0.30495 1.20900
O 	O 	0.34197 0.59433 0.33535 -0.50700
O 	O 	0.40707 0.65823 0.33404 -0.53500
O 	O 	0.28917 0.56313 0.26584 -0.51700
C 	C 	0.38267 0.61983 0.34323 0.43000
C 	C 	0.29827 0.57153 0.23303 0.44100
O 	O 	0.31437 0.60943 0.21902 -0.52500
C 	C 	0.39927 0.59693 0.36833 -0.18300
C 	C 	0.28857 0.53513 0.20893 -0.27300
C 	C 	0.44307 0.62193 0.38033 0.10100
C 	C 	0.37397 0.55413 0.37943 0.12900
C 	C 	0.27467 0.49263 0.22073 0.20500
C 	C 	0.29207 0.54053 0.17453 0.21000
H 	H 	0.46057 0.65143 0.37323 0.00400
C 	C 	0.46077 0.60253 0.40353 -0.20900
C 	C 	0.39287 0.53753 0.40193 -0.22100
H 	H 	0.34467 0.53673 0.37203 -0.00400
H 	H 	0.27427 0.48713 0.24483 -0.03400
C 	C 	0.26117 0.45793 0.19713 -0.31500
C 	C 	0.28047 0.50533 0.15123 -0.29200
H 	H 	0.30277 0.56893 0.16533 -0.02200
H 	H 	0.49017 0.61913 0.41103 0.09500
C 	C 	0.43547 0.56043 0.41453 0.17200
H 	H 	0.37527 0.50823 0.40933 0.09900
H 	H 	0.24937 0.42933 0.20613 0.13400
C 	C 	0.26387 0.46263 0.16303 0.25400
H 	H 	0.28397 0.51093 0.12713 0.12500
C 	C 	0.45567 0.54313 0.44073 -0.17800
C 	C 	0.24647 0.42413 0.14013 -0.19700
C 	C 	0.46867 0.51383 0.42803 0.09000
C 	C 	0.45987 0.55643 0.47513 0.12700
C 	C 	0.27227 0.40753 0.12763 0.10700
C 	C 	0.20257 0.40743 0.12923 0.07700
N 	N 	0.48647 0.49283 0.44853 -0.30900
C 	C 	0.46417 0.49753 0.39103 -0.07200
N 	N 	0.47707 0.54383 0.50113 -0.30300
C 	C 	0.44617 0.58513 0.48763 -0.09600
C 	C 	0.32117 0.42853 0.13653 -0.08000
N 	N 	0.26137 0.37293 0.10543 -0.29700
N 	N 	0.17667 0.36983 0.10683 -0.30400
C 	C 	0.16937 0.42173 0.13933 -0.04300
C 	C 	0.49137 0.46553 0.42683 0.14100
C 	C 	0.47977 0.46843 0.39003 -0.12100
H 	H 	0.45277 0.50573 0.37213 0.04600
C 	C 	0.47447 0.56483 0.53233 0.14500
H 	H 	0.43267 0.59783 0.47463 0.07000
C 	C 	0.45597 0.59113 0.52243 -0.10900
C 	C 	0.33447 0.40193 0.12363 -0.10000
H 	H 	0.33837 0.45503 0.14863 0.05500
C 	C 	0.29717 0.36723 0.10123 0.12700
C 	C 	0.13647 0.36733 0.10373 0.16800
C 	C 	0.13077 0.39763 0.12403 -0.15100
H 	H 	0.17577 0.44513 0.15463 0.04400
C 	C 	0.51077 0.43923 0.43623 -0.27900
H 	H 	0.48247 0.45373 0.37043 0.06500
H 	H 	0.45137 0.60973 0.53733 0.06800
H 	H 	0.36197 0.40413 0.12753 0.05600
H 	H 	0.10547 0.40023 0.12623 0.07400
H 	H 	0.51337 0.42263 0.41813 0.12300
Zn	Zn	0.96891 0.93853 0.63829 1.21300
O 	O 	0.00863 0.92767 0.66869 -0.50800
O 	O 	0.07373 0.99157 0.66738 -0.52800
O 	O 	0.95583 0.89647 0.59918 -0.51300
C 	C 	0.04933 0.95317 0.67657 0.43000
C 	C 	0.96493 0.90487 0.56637 0.43800
O 	O 	0.98103 0.94277 0.55236 -0.51500
C 	C 	0.06593 0.93027 0.70167 -0.18100
C 	C 	0.95523 0.86847 0.54227 -0.26600
C 	C 	0.10973 0.95527 0.71367 0.10100
C 	C 	0.04063 0.88747 0.71277 0.12800
C 	C 	0.94133 0.82597 0.55407 0.20000
C 	C 	0.95873 0.87387 0.50787 0.20400
H 	H 	0.12723 0.98477 0.70657 0.00800
C 	C 	0.12743 0.93587 0.73687 -0.20700
C 	C 	0.05953 0.87087 0.73527 -0.22100
H 	H 	0.01133 0.87007 0.70537 -0.00600
H 	H 	0.94093 0.82047 0.57817 -0.03100
C 	C 	0.92783 0.79127 0.53047 -0.30800
C 	C 	0.94713 0.83867 0.48457 -0.28500
H 	H 	0.96943 0.90227 0.49867 -0.01800
H 	H 	0.15683 0.95247 0.74437 0.09800
C 	C 	0.10213 0.89377 0.74787 0.17100
H 	H 	0.04193 0.84157 0.74267 0.09700
H 	H 	0.91603 0.76267 0.53947 0.13200
C 	C 	0.93053 0.79597 0.49637 0.24700
H 	H 	0.95063 0.84427 0.46047 0.12400
C 	C 	0.12233 0.87647 0.77407 -0.17700
C 	C 	0.91313 0.75747 0.47347 -0.18900
C 	C 	0.13533 0.84717 0.76137 0.09000
C 	C 	0.12653 0.88977 0.80847 0.12700
C 	C 	0.93893 0.74087 0.46097 0.09500
C 	C 	0.86923 0.74077 0.46257 0.07400
N 	N 	0.15313 0.82617 0.78187 -0.30900
C 	C 	0.13083 0.83087 0.72437 -0.07200
N 	N 	0.14373 0.87717 0.83447 -0.30300
C 	C 	0.11283 0.91847 0.82097 -0.09500
C 	C 	0.98783 0.76187 0.46987 -0.03200
N 	N 	0.92803 0.70627 0.43877 -0.29700
N 	N 	0.84333 0.70317 0.44017 -0.30400
C 	C 	0.83603 0.75507 0.47267 -0.04100
C 	C 	0.15803 0.79887 0.76017 0.14100
C 	C 	0.14643 0.80177 0.72337 -0.12100
H 	H 	0.11943 0.83907 0.70547 0.04500
C 	C 	0.14113 0.89817 0.86567 0.14600
H 	H 	0.09933 0.93117 0.80797 0.07100
C 	C 	0.12263 0.92447 0.85577 -0.10900
C 	C 	0.00113 0.73527 0.45697 -0.14600
H 	H 	0.00503 0.78837 0.48197 0.03200
C 	C 	0.96383 0.70057 0.43457 0.14700
C 	C 	0.80313 0.70067 0.43707 0.16900
C 	C 	0.79743 0.73097 0.45737 -0.15300
H 	H 	0.84243 0.77847 0.48797 0.04300
C 	C 	0.17743 0.77257 0.76957 -0.27900
H 	H 	0.14913 0.78707 0.70377 0.06500
H 	H 	0.11803 0.94307 0.87067 0.07100
H 	H 	0.02863 0.73747 0.46087 0.07000
H 	H 	0.77213 0.73357 0.45957 0.07500
H 	H 	0.18003 0.75597 0.75147 0.12300
Zn	Zn	0.63628 0.36442 0.97162 1.21000
O 	O 	0.58570 0.32470 0.00202 -0.50900
O 	O 	0.58450 0.25960 0.00071 -0.53800
O 	O 	0.60730 0.37750 0.93251 -0.51600
C 	C 	0.57050 0.28400 0.00990 0.43100
C 	C 	0.60660 0.36840 0.89970 0.44100
O 	O 	0.62840 0.35230 0.88569 -0.52500
C 	C 	0.53100 0.26740 0.03500 -0.18300
C 	C 	0.57990 0.37810 0.87560 -0.27200
C 	C 	0.51220 0.22360 0.04700 0.10100
C 	C 	0.51350 0.29270 0.04610 0.12900
C 	C 	0.55130 0.39200 0.88740 0.20500
C 	C 	0.58180 0.37460 0.84120 0.20900
H 	H 	0.52420 0.20610 0.03990 0.00300
C 	C 	0.47510 0.20590 0.07020 -0.20900
C 	C 	0.47800 0.27380 0.06860 -0.22200
H 	H 	0.52540 0.32200 0.03870 -0.00500
H 	H 	0.54620 0.39240 0.91150 -0.03400
C 	C 	0.53010 0.40550 0.86380 -0.31500
C 	C 	0.55820 0.38620 0.81790 -0.29200
H 	H 	0.59950 0.36390 0.83200 -0.02200
H 	H 	0.46230 0.17650 0.07770 0.09400
C 	C 	0.45830 0.23120 0.08120 0.17200
H 	H 	0.46630 0.29140 0.07600 0.09900
H 	H 	0.51330 0.41730 0.87280 0.13400
C 	C 	0.53210 0.40280 0.82970 0.25400
H 	H 	0.56030 0.38270 0.79380 0.12500
C 	C 	0.42080 0.21100 0.10740 -0.17800
C 	C 	0.51100 0.42020 0.80680 -0.19700
C 	C 	0.37850 0.19800 0.09470 0.08900
C 	C 	0.42990 0.20680 0.14180 0.12600
C 	C 	0.46860 0.39440 0.79430 0.10700
C 	C 	0.53820 0.46410 0.79590 0.07700
N 	N 	0.33970 0.18020 0.11520 -0.30900
C 	C 	0.36670 0.20250 0.05770 -0.07200
N 	N 	0.40010 0.18960 0.16780 -0.30300
C 	C 	0.47230 0.22050 0.15430 -0.09600
C 	C 	0.44070 0.34550 0.80320 -0.08000
N 	N 	0.44490 0.40530 0.77210 -0.29700
N 	N 	0.52650 0.49000 0.77350 -0.30400
C 	C 	0.58570 0.49730 0.80600 -0.04300
C 	C 	0.30750 0.17530 0.09350 0.14000
C 	C 	0.32200 0.18690 0.05670 -0.12100
H 	H 	0.38630 0.21390 0.03880 0.04500
C 	C 	0.42370 0.19220 0.19900 0.14500
H 	H 	0.49850 0.23400 0.14130 0.07000
C 	C 	0.46850 0.21070 0.18910 -0.10900
C 	C 	0.40080 0.33220 0.79030 -0.10000
H 	H 	0.45000 0.32830 0.81530 0.05500
C 	C 	0.40340 0.36950 0.76790 0.12700
C 	C 	0.56420 0.53020 0.77040 0.16900
C 	C 	0.60020 0.53590 0.79070 -0.15200
H 	H 	0.60270 0.49090 0.82130 0.04400
C 	C 	0.26180 0.15590 0.10290 -0.27900
H 	H 	0.30460 0.18420 0.03710 0.06400
H 	H 	0.49170 0.21530 0.20400 0.06800
H 	H 	0.37550 0.30470 0.79420 0.05600
H 	H 	0.62810 0.56120 0.79290 0.07500
H 	H 	0.24260 0.15330 0.08480 0.12200
Zn	Zn	0.30295 0.69775 0.30495 1.20900
O 	O 	0.25237 0.65803 0.33535 -0.50700
O 	O 	0.25117 0.59293 0.33404 -0.53500
O 	O 	0.27397 0.71083 0.26584 -0.51700
C 	C 	0.23717 0.61733 0.34323 0.43000
C 	C 	0.27327 0.70173 0.23303 0.44100
O 	O 	0.29507 0.68563 0.21902 -0.52500
C 	C 	0.19767 0.60073 0.36833 -0.18300
C 	C 	0.24657 0.71143 0.20893 -0.27300
C 	C 	0.17887 0.55693 0.38033 0.10100
C 	C 	0.18017 0.62603 0.37943 0.12900
C 	C 	0.21797 0.72533 0.22073 0.20500
C 	C 	0.24847 0.70793 0.17453 0.21000
H 	H 	0.19087 0.53943 0.37323 0.00300
C 	C 	0.14177 0.53923 0.40353 -0.21000
C 	C 	0.14467 0.60713 0.40193 -0.22200
H 	H 	0.19207 0.65533 0.37203 -0.00400
H 	H 	0.21287 0.72573 0.24483 -0.03400
C 	C 	0.19677 0.73883 0.19713 -0.31500
C 	C 	0.22487 0.71953 0.15123 -0.29200
H 	H 	0.26617 0.69723 0.16533 -0.02200
H 	H 	0.12897 0.50983 0.41103 0.09500
C 	C 	0.12497 0.56453 0.41453 0.17200
H 	H 	0.13297 0.62473 0.40933 0.09900
H 	H 	0.17997 0.75063 0.20613 0.13300
C 	C 	0.19877 0.73613 0.16303 0.25400
H 	H 	0.22697 0.71603 0.12713 0.12500
C 	C 	0.08747 0.54433 0.44073 -0.18000
C 	C 	0.17767 0.75353 0.14013 -0.19800
C 	C 	0.04517 0.53133 0.42803 0.09300
C 	C 	0.09657 0.54013 0.47513 0.12700
C 	C 	0.13527 0.72773 0.12763 0.10800
C 	C 	0.20487 0.79743 0.12923 0.07700
N 	N 	0.00637 0.51353 0.44853 -0.31400
C 	C 	0.03337 0.53583 0.39103 -0.08700
N 	N 	0.06677 0.52293 0.50113 -0.30400
C 	C 	0.13897 0.55383 0.48763 -0.09700
C 	C 	0.10737 0.67883 0.13653 -0.08200
N 	N 	0.11157 0.73863 0.10543 -0.29600
N 	N 	0.19317 0.82333 0.10683 -0.30400
C 	C 	0.25237 0.83063 0.13933 -0.04200
C 	C 	0.97417 0.50863 0.42683 0.14500
C 	C 	0.98867 0.52023 0.39003 -0.10700
H 	H 	0.05297 0.54723 0.37213 0.04900
C 	C 	0.09037 0.52553 0.53233 0.14300
H 	H 	0.16517 0.56733 0.47463 0.07000
C 	C 	0.13517 0.54403 0.52243 -0.10800
C 	C 	0.06747 0.66553 0.12363 -0.09700
H 	H 	0.11667 0.66163 0.14863 0.05500
C 	C 	0.07007 0.70283 0.10123 0.12100
C 	C 	0.23087 0.86353 0.10373 0.17000
C 	C 	0.26687 0.86923 0.12403 -0.15200
H 	H 	0.26937 0.82423 0.15463 0.04400
C 	C 	0.92847 0.48923 0.43623 -0.27900
H 	H 	0.97127 0.51753 0.37043 0.06100
H 	H 	0.15837 0.54863 0.53733 0.06800
H 	H 	0.04217 0.63803 0.12753 0.05400
H 	H 	0.29477 0.89453 0.12623 0.07600
H 	H 	0.90927 0.48663 0.41813 0.12300
Zn	Zn	0.96961 0.03109 0.63829 1.20900
O 	O 	0.91903 0.99137 0.66869 -0.49800
O 	O 	0.91783 0.92627 0.66738 -0.53100
O 	O 	0.94063 0.04417 0.59918 -0.51800
C 	C 	0.90383 0.95067 0.67657 0.42900
C 	C 	0.93993 0.03507 0.56637 0.44300
O 	O 	0.96173 0.01897 0.55236 -0.52500
C 	C 	0.86433 0.93407 0.70167 -0.18000
C 	C 	0.91323 0.04477 0.54227 -0.27900
C 	C 	0.84553 0.89027 0.71367 0.10100
C 	C 	0.84683 0.95937 0.71277 0.12800
C 	C 	0.88463 0.05867 0.55407 0.21100
C 	C 	0.91513 0.04127 0.50787 0.21600
H 	H 	0.85753 0.87277 0.70657 0.00400
C 	C 	0.80843 0.87257 0.73687 -0.20800
C 	C 	0.81133 0.94047 0.73527 -0.21900
H 	H 	0.85873 0.98867 0.70537 0.00000
H 	H 	0.87953 0.05907 0.57817 -0.03800
C 	C 	0.86343 0.07217 0.53047 -0.32500
C 	C 	0.89153 0.05287 0.48457 -0.30100
H 	H 	0.93283 0.03057 0.49867 -0.02500
H 	H 	0.79563 0.84317 0.74437 0.09500
C 	C 	0.79163 0.89787 0.74787 0.17200
H 	H 	0.79963 0.95807 0.74267 0.10200
H 	H 	0.84663 0.08397 0.53947 0.13600
C 	C 	0.86543 0.06947 0.49637 0.26200
H 	H 	0.89363 0.04937 0.46047 0.12700
C 	C 	0.75413 0.87767 0.77407 -0.17700
C 	C 	0.84433 0.08687 0.47347 -0.21000
C 	C 	0.71183 0.86467 0.76137 0.09000
C 	C 	0.76323 0.87347 0.80847 0.12700
C 	C 	0.80193 0.06107 0.46097 0.12900
C 	C 	0.87153 0.13077 0.46257 0.08200
N 	N 	0.67303 0.84687 0.78187 -0.30900
C 	C 	0.70003 0.86917 0.72437 -0.07100
N 	N 	0.73343 0.85627 0.83447 -0.30300
C 	C 	0.80563 0.88717 0.82097 -0.09600
C 	C 	0.77403 0.01217 0.46987 -0.16000
N 	N 	0.77823 0.07197 0.43877 -0.29600
N 	N 	0.85983 0.15667 0.44017 -0.30500
C 	C 	0.91903 0.16397 0.47267 -0.04500
C 	C 	0.64083 0.84197 0.76017 0.14200
C 	C 	0.65533 0.85357 0.72337 -0.12000
H 	H 	0.71963 0.88057 0.70547 0.04600
C 	C 	0.75703 0.85887 0.86567 0.14500
H 	H 	0.83183 0.90067 0.80797 0.07100
C 	C 	0.80183 0.87737 0.85577 -0.10800
C 	C 	0.73413 0.99887 0.45697 -0.02500
H 	H 	0.78333 0.99497 0.48197 0.09100
C 	C 	0.73673 0.03617 0.43457 0.09400
C 	C 	0.89753 0.19687 0.43707 0.17000
C 	C 	0.93353 0.20257 0.45737 -0.15100
H 	H 	0.93603 0.15757 0.48797 0.04500
C 	C 	0.59513 0.82257 0.76957 -0.27900
H 	H 	0.63793 0.85087 0.70377 0.06500
H 	H 	0.82503 0.88197 0.87067 0.06900
H 	H 	0.70883 0.97137 0.46087 0.03300
H 	H 	0.96143 0.22787 0.45957 0.07600
H 	H 	0.57593 0.81997 0.75147 0.12300
Zn	Zn	0.72814 0.36372 0.97162 1.21000
O 	O 	0.73900 0.41430 0.00202 -0.50900
O 	O 	0.67510 0.41550 0.00071 -0.53800
O 	O 	0.77020 0.39270 0.93251 -0.51600
C 	C 	0.71350 0.42950 0.00990 0.43100
C 	C 	0.76180 0.39340 0.89970 0.44100
O 	O 	0.72390 0.37160 0.88569 -0.52500
C 	C 	0.73640 0.46900 0.03500 -0.18400
C 	C 	0.79820 0.42010 0.87560 -0.27200
C 	C 	0.71140 0.48780 0.04700 0.10200
C 	C 	0.77920 0.48650 0.04610 0.12900
C 	C 	0.84070 0.44870 0.88740 0.20400
C 	C 	0.79280 0.41820 0.84120 0.20900
H 	H 	0.68190 0.47580 0.03990 0.00300
C 	C 	0.73080 0.52490 0.07020 -0.21000
C 	C 	0.79580 0.52200 0.06860 -0.22200
H 	H 	0.79660 0.47460 0.03870 -0.00500
H 	H 	0.84620 0.45380 0.91150 -0.03300
C 	C 	0.87540 0.46990 0.86380 -0.31400
C 	C 	0.82800 0.44180 0.81790 -0.29200
H 	H 	0.76440 0.40050 0.83200 -0.02200
H 	H 	0.71420 0.53770 0.07770 0.09500
C 	C 	0.77290 0.54170 0.08120 0.17200
H 	H 	0.82510 0.53370 0.07600 0.10000
H 	H 	0.90400 0.48670 0.87280 0.13400
C 	C 	0.87070 0.46790 0.82970 0.25300
H 	H 	0.82240 0.43970 0.79380 0.12500
C 	C 	0.79020 0.57920 0.10740 -0.17800
C 	C 	0.90920 0.48900 0.80680 -0.19600
C 	C 	0.81950 0.62150 0.09470 0.09000
C 	C 	0.77690 0.57010 0.14180 0.12700
C 	C 	0.92580 0.53140 0.79430 0.10700
C 	C 	0.92590 0.46180 0.79590 0.07600
N 	N 	0.84050 0.66030 0.11520 -0.30900
C 	C 	0.83580 0.63330 0.05770 -0.07200
N 	N 	0.78950 0.59990 0.16780 -0.30300
C 	C 	0.74820 0.52770 0.15430 -0.09600
C 	C 	0.90480 0.55930 0.80320 -0.07700
N 	N 	0.96040 0.55510 0.77210 -0.29700
N 	N 	0.96350 0.47350 0.77350 -0.30400
C 	C 	0.91160 0.41430 0.80600 -0.03800
C 	C 	0.86780 0.69250 0.09350 0.14100
C 	C 	0.86490 0.67800 0.05670 -0.12100
H 	H 	0.82760 0.61370 0.03880 0.04500
C 	C 	0.76850 0.57630 0.19900 0.14500
H 	H 	0.73550 0.50150 0.14130 0.07000
C 	C 	0.74220 0.53150 0.18910 -0.10900
C 	C 	0.93140 0.59920 0.79030 -0.10500
H 	H 	0.87830 0.55000 0.81530 0.05400
C 	C 	0.96610 0.59660 0.76790 0.14000
C 	C 	0.96600 0.43580 0.77040 0.18300
C 	C 	0.93570 0.39980 0.79070 -0.15900
H 	H 	0.88820 0.39730 0.82130 0.04300
C 	C 	0.89410 0.73820 0.10290 -0.27900
H 	H 	0.87960 0.69540 0.03710 0.06400
H 	H 	0.72360 0.50830 0.20400 0.06800
H 	H 	0.92920 0.62450 0.79420 0.06000
H 	H 	0.93310 0.37190 0.79290 0.07900
H 	H 	0.91070 0.75740 0.08480 0.12300
Zn	Zn	0.39481 0.69705 0.30495 1.20900
O 	O 	0.40567 0.74763 0.33535 -0.50700
O 	O 	0.34177 0.74883 0.33404 -0.53500
O 	O 	0.43687 0.72603 0.26584 -0.51700
C 	C 	0.38017 0.76283 0.34323 0.43000
C 	C 	0.42847 0.72673 0.23303 0.44100
O 	O 	0.39057 0.70493 0.21902 -0.52500
C 	C 	0.40307 0.80233 0.36833 -0.18200
C 	C 	0.46487 0.75343 0.20893 -0.27200
C 	C 	0.37807 0.82113 0.38033 0.10100
C 	C 	0.44587 0.81983 0.37943 0.12900
C 	C 	0.50737 0.78203 0.22073 0.20500
C 	C 	0.45947 0.75153 0.17453 0.21000
H 	H 	0.34857 0.80913 0.37323 0.00400
C 	C 	0.39747 0.85823 0.40353 -0.20800
C 	C 	0.46247 0.85533 0.40193 -0.22000
H 	H 	0.46327 0.80793 0.37203 -0.00400
H 	H 	0.51287 0.78713 0.24483 -0.03400
C 	C 	0.54207 0.80323 0.19713 -0.31500
C 	C 	0.49467 0.77513 0.15123 -0.29200
H 	H 	0.43107 0.73383 0.16533 -0.02200
H 	H 	0.38087 0.87103 0.41103 0.09600
C 	C 	0.43957 0.87503 0.41453 0.17100
H 	H 	0.49177 0.86703 0.40933 0.10000
H 	H 	0.57067 0.82003 0.20613 0.13400
C 	C 	0.53737 0.80123 0.16303 0.25300
H 	H 	0.48907 0.77303 0.12713 0.12500
C 	C 	0.45687 0.91253 0.44073 -0.17400
C 	C 	0.57587 0.82233 0.14013 -0.19700
C 	C 	0.48617 0.95483 0.42803 0.08600
C 	C 	0.44357 0.90343 0.47513 0.12600
C 	C 	0.59247 0.86473 0.12763 0.10700
C 	C 	0.59257 0.79513 0.12923 0.07700
N 	N 	0.50717 0.99363 0.44853 -0.29900
C 	C 	0.50247 0.96663 0.39103 -0.04600
N 	N 	0.45617 0.93323 0.50113 -0.30000
C 	C 	0.41487 0.86103 0.48763 -0.09500
C 	C 	0.57147 0.89263 0.13653 -0.07700
N 	N 	0.62707 0.88843 0.10543 -0.29800
N 	N 	0.63017 0.80683 0.10683 -0.30400
C 	C 	0.57827 0.74763 0.13933 -0.04300
C 	C 	0.53447 0.02583 0.42683 0.13400
C 	C 	0.53157 0.01133 0.39003 -0.14300
H 	H 	0.49427 0.94703 0.37213 0.04000
C 	C 	0.43517 0.90963 0.53233 0.14700
H 	H 	0.40217 0.83483 0.47463 0.06900
C 	C 	0.40887 0.86483 0.52243 -0.11000
C 	C 	0.59807 0.93253 0.12363 -0.10500
H 	H 	0.54497 0.88333 0.14863 0.05400
C 	C 	0.63277 0.92993 0.10123 0.13600
C 	C 	0.63267 0.76913 0.10373 0.16900
C 	C 	0.60237 0.73313 0.12403 -0.15200
H 	H 	0.55487 0.73063 0.15463 0.04400
C 	C 	0.56077 0.07153 0.43623 -0.27800
H 	H 	0.54627 0.02873 0.37043 0.07100
H 	H 	0.39027 0.84163 0.53733 0.06900
H 	H 	0.59587 0.95783 0.12753 0.06000
H 	H 	0.59977 0.70523 0.12623 0.07500
H 	H 	0.57737 0.09073 0.41813 0.12200
Zn	Zn	0.06147 0.03039 0.63829 1.20600
O 	O 	0.07233 0.08097 0.66869 -0.51000
O 	O 	0.00843 0.08217 0.66738 -0.54100
O 	O 	0.10353 0.05937 0.59918 -0.52000
C 	C 	0.04683 0.09617 0.67657 0.43100
C 	C 	0.09513 0.06007 0.56637 0.44200
O 	O 	0.05723 0.03827 0.55236 -0.53000
C 	C 	0.06973 0.13567 0.70167 -0.18500
C 	C 	0.13153 0.08677 0.54227 -0.27600
C 	C 	0.04473 0.15447 0.71367 0.10200
C 	C 	0.11253 0.15317 0.71277 0.13000
C 	C 	0.17403 0.11537 0.55407 0.20700
C 	C 	0.12613 0.08487 0.50787 0.21200
H 	H 	0.01523 0.14247 0.70657 0.00100
C 	C 	0.06413 0.19157 0.73687 -0.21100
C 	C 	0.12913 0.18867 0.73527 -0.22300
H 	H 	0.12993 0.14127 0.70537 -0.00500
H 	H 	0.17953 0.12047 0.57817 -0.03500
C 	C 	0.20873 0.13657 0.53047 -0.31700
C 	C 	0.16133 0.10847 0.48457 -0.29500
H 	H 	0.09773 0.06717 0.49867 -0.02500
H 	H 	0.04753 0.20437 0.74437 0.09400
C 	C 	0.10623 0.20837 0.74787 0.17300
H 	H 	0.15843 0.20037 0.74267 0.10000
H 	H 	0.23733 0.15337 0.53947 0.13400
C 	C 	0.20403 0.13457 0.49637 0.25500
H 	H 	0.15573 0.10637 0.46047 0.12500
C 	C 	0.12353 0.24587 0.77407 -0.17800
C 	C 	0.24253 0.15567 0.47347 -0.19800
C 	C 	0.15283 0.28817 0.76137 0.09000
C 	C 	0.11023 0.23677 0.80847 0.12600
C 	C 	0.25913 0.19807 0.46097 0.10800
C 	C 	0.25923 0.12847 0.46257 0.07700
N 	N 	0.17383 0.32697 0.78187 -0.30900
C 	C 	0.16913 0.29997 0.72437 -0.07200
N 	N 	0.12283 0.26657 0.83447 -0.30300
C 	C 	0.08153 0.19437 0.82097 -0.09700
C 	C 	0.23813 0.22597 0.46987 -0.08000
N 	N 	0.29373 0.22177 0.43877 -0.29700
N 	N 	0.29683 0.14017 0.44017 -0.30400
C 	C 	0.24493 0.08097 0.47267 -0.04500
C 	C 	0.20113 0.35917 0.76017 0.14100
C 	C 	0.19823 0.34467 0.72337 -0.12100
H 	H 	0.16093 0.28037 0.70547 0.04500
C 	C 	0.10183 0.24297 0.86567 0.14400
H 	H 	0.06883 0.16817 0.80797 0.06800
C 	C 	0.07553 0.19817 0.85577 -0.10900
C 	C 	0.26473 0.26587 0.45697 -0.10000
H 	H 	0.21163 0.21667 0.48197 0.05500
C 	C 	0.29943 0.26327 0.43457 0.12700
C 	C 	0.29933 0.10247 0.43707 0.16700
C 	C 	0.26903 0.06647 0.45737 -0.15000
H 	H 	0.22153 0.06397 0.48797 0.04400
C 	C 	0.22743 0.40487 0.76957 -0.27900
H 	H 	0.21293 0.36207 0.70377 0.06500
H 	H 	0.05693 0.17497 0.87067 0.06700
H 	H 	0.26253 0.29117 0.46087 0.05600
H 	H 	0.26643 0.03857 0.45957 0.07100
H 	H 	0.24403 0.42407 0.75147 0.12300
Zn	Zn	0.72814 0.36442 0.47162 1.20900
O 	O 	0.73900 0.32470 0.50202 -0.50700
O 	O 	0.67510 0.25960 0.50071 -0.53500
O 	O 	0.77020 0.37750 0.43251 -0.51700
C 	C 	0.71350 0.28400 0.50990 0.43000
C 	C 	0.76180 0.36840 0.39970 0.44100
O 	O 	0.72390 0.35230 0.38569 -0.52500
C 	C 	0.73640 0.26740 0.53500 -0.18200
C 	C 	0.79820 0.37810 0.37560 -0.27300
C 	C 	0.71140 0.22360 0.54700 0.10100
C 	C 	0.77920 0.29270 0.54610 0.12900
C 	C 	0.84070 0.39200 0.38740 0.20600
C 	C 	0.79280 0.37460 0.34120 0.21000
H 	H 	0.68190 0.20610 0.53990 0.00400
C 	C 	0.73080 0.20590 0.57020 -0.20900
C 	C 	0.79580 0.27380 0.56860 -0.22100
H 	H 	0.79660 0.32200 0.53870 -0.00400
H 	H 	0.84620 0.39240 0.41150 -0.03400
C 	C 	0.87540 0.40550 0.36380 -0.31600
C 	C 	0.82800 0.38620 0.31790 -0.29300
H 	H 	0.76440 0.36390 0.33200 -0.02200
H 	H 	0.71420 0.17650 0.57770 0.09400
C 	C 	0.77290 0.23120 0.58120 0.17200
H 	H 	0.82510 0.29140 0.57600 0.10000
H 	H 	0.90400 0.41730 0.37280 0.13500
C 	C 	0.87070 0.40280 0.32970 0.25500
H 	H 	0.82240 0.38270 0.29380 0.12600
C 	C 	0.79020 0.21100 0.60740 -0.17800
C 	C 	0.90920 0.42020 0.30680 -0.19800
C 	C 	0.81950 0.19800 0.59470 0.09000
C 	C 	0.77690 0.20680 0.64180 0.12700
C 	C 	0.92580 0.39440 0.29430 0.10800
C 	C 	0.92590 0.46410 0.29590 0.08000
N 	N 	0.84050 0.18020 0.61520 -0.30900
C 	C 	0.83580 0.20250 0.55770 -0.07100
N 	N 	0.78950 0.18960 0.66780 -0.30300
C 	C 	0.74820 0.22050 0.65430 -0.09600
C 	C 	0.90480 0.34550 0.30320 -0.07700
N 	N 	0.96040 0.40530 0.27210 -0.29600
N 	N 	0.96350 0.49000 0.27350 -0.30000
C 	C 	0.91160 0.49730 0.30600 -0.04800
C 	C 	0.86780 0.17530 0.59350 0.14100
C 	C 	0.86490 0.18690 0.55670 -0.12100
H 	H 	0.82760 0.21390 0.53880 0.04600
C 	C 	0.76850 0.19220 0.69900 0.14500
H 	H 	0.73550 0.23400 0.64130 0.07000
C 	C 	0.74220 0.21070 0.68910 -0.10900
C 	C 	0.93140 0.33220 0.29030 -0.10500
H 	H 	0.87830 0.32830 0.31530 0.05400
C 	C 	0.96610 0.36950 0.26790 0.14000
C 	C 	0.96600 0.53020 0.27040 0.15600
C 	C 	0.93570 0.53590 0.29070 -0.14100
H 	H 	0.88820 0.49090 0.32130 0.04600
C 	C 	0.89410 0.15590 0.60290 -0.28000
H 	H 	0.87960 0.18420 0.53710 0.06500
H 	H 	0.72360 0.21530 0.70400 0.06800
H 	H 	0.92920 0.30470 0.29420 0.06000
H 	H 	0.93310 0.56120 0.29290 0.07200
H 	H 	0.91070 0.15330 0.58480 0.12400
Zn	Zn	0.39481 0.69775 0.80495 1.20900
O 	O 	0.40567 0.65803 0.83535 -0.50700
O 	O 	0.34177 0.59293 0.83404 -0.53500
O 	O 	0.43687 0.71083 0.76584 -0.51700
C 	C 	0.38017 0.61733 0.84323 0.43000
C 	C 	0.42847 0.70173 0.73303 0.44100
O 	O 	0.39057 0.68563 0.71902 -0.52500
C 	C 	0.40307 0.60073 0.86833 -0.18300
C 	C 	0.46487 0.71143 0.70893 -0.27300
C 	C 	0.37807 0.55693 0.88033 0.10200
C 	C 	0.44587 0.62603 0.87943 0.12900
C 	C 	0.50737 0.72533 0.72073 0.20500
C 	C 	0.45947 0.70793 0.67453 0.21000
H 	H 	0.34857 0.53943 0.87323 0.00400
C 	C 	0.39747 0.53923 0.90353 -0.20900
C 	C 	0.46247 0.60713 0.90193 -0.22200
H 	H 	0.46327 0.65533 0.87203 -0.00400
H 	H 	0.51287 0.72573 0.74483 -0.03400
C 	C 	0.54207 0.73883 0.69713 -0.31500
C 	C 	0.49467 0.71953 0.65123 -0.29300
H 	H 	0.43107 0.69723 0.66533 -0.02200
H 	H 	0.38087 0.50983 0.91103 0.09500
C 	C 	0.43957 0.56453 0.91453 0.17200
H 	H 	0.49177 0.62473 0.90933 0.09900
H 	H 	0.57067 0.75063 0.70613 0.13400
C 	C 	0.53737 0.73613 0.66303 0.25400
H 	H 	0.48907 0.71603 0.62713 0.12500
C 	C 	0.45687 0.54433 0.94073 -0.17800
C 	C 	0.57587 0.75353 0.64013 -0.19700
C 	C 	0.48617 0.53133 0.92803 0.09100
C 	C 	0.44357 0.54013 0.97513 0.12800
C 	C 	0.59247 0.72773 0.62763 0.10700
C 	C 	0.59257 0.79743 0.62923 0.07700
N 	N 	0.50717 0.51353 0.94853 -0.30800
C 	C 	0.50247 0.53583 0.89103 -0.07200
N 	N 	0.45617 0.52293 0.00113 -0.30600
C 	C 	0.41487 0.55383 0.98763 -0.08600
C 	C 	0.57147 0.67883 0.63653 -0.08000
N 	N 	0.62707 0.73863 0.60543 -0.29700
N 	N 	0.63017 0.82333 0.60683 -0.30400
C 	C 	0.57827 0.83063 0.63933 -0.04200
C 	C 	0.53447 0.50863 0.92683 0.14000
C 	C 	0.53157 0.52023 0.89003 -0.12000
H 	H 	0.49427 0.54723 0.87213 0.04600
C 	C 	0.43517 0.52553 0.03233 0.14800
H 	H 	0.40217 0.56733 0.97463 0.06700
C 	C 	0.40887 0.54403 0.02243 -0.12100
C 	C 	0.59807 0.66553 0.62363 -0.10000
H 	H 	0.54497 0.66163 0.64863 0.05500
C 	C 	0.63277 0.70283 0.60123 0.12700
C 	C 	0.63267 0.86353 0.60373 0.17000
C 	C 	0.60237 0.86923 0.62403 -0.15200
H 	H 	0.55487 0.82423 0.65463 0.04400
C 	C 	0.56077 0.48923 0.93623 -0.27600
H 	H 	0.54627 0.51753 0.87043 0.06500
H 	H 	0.39027 0.54863 0.03733 0.07100
H 	H 	0.59587 0.63803 0.62753 0.05600
H 	H 	0.59977 0.89453 0.62623 0.07600
H 	H 	0.57737 0.48663 0.91813 0.12200
Zn	Zn	0.06147 0.03109 0.13829 1.20600
O 	O 	0.07233 0.99137 0.16869 -0.50000
O 	O 	0.00843 0.92627 0.16738 -0.53700
O 	O 	0.10353 0.04417 0.09918 -0.52000
C 	C 	0.04683 0.95067 0.17657 0.43000
C 	C 	0.09513 0.03507 0.06637 0.43800
O 	O 	0.05723 0.01897 0.05236 -0.53000
C 	C 	0.06973 0.93407 0.20167 -0.18200
C 	C 	0.13153 0.04477 0.04227 -0.26700
C 	C 	0.04473 0.89027 0.21367 0.10100
C 	C 	0.11253 0.95937 0.21277 0.12900
C 	C 	0.17403 0.05867 0.05407 0.20300
C 	C 	0.12613 0.04127 0.00787 0.18700
H 	H 	0.01523 0.87277 0.20657 0.00100
C 	C 	0.06413 0.87257 0.23687 -0.21000
C 	C 	0.12913 0.94047 0.23527 -0.22100
H 	H 	0.12993 0.98867 0.20537 -0.00000
H 	H 	0.17953 0.05907 0.07817 -0.03600
C 	C 	0.20873 0.07217 0.03047 -0.32400
C 	C 	0.16133 0.05287 0.98457 -0.28200
H 	H 	0.09773 0.03057 0.99867 -0.01300
H 	H 	0.04753 0.84317 0.24437 0.09400
C 	C 	0.10623 0.89787 0.24787 0.17200
H 	H 	0.15843 0.95807 0.24267 0.10200
H 	H 	0.23733 0.08397 0.03947 0.13400
C 	C 	0.20403 0.06947 0.99637 0.25900
H 	H 	0.15573 0.04937 0.96047 0.12000
C 	C 	0.12353 0.87767 0.27407 -0.17700
C 	C 	0.24253 0.08687 0.97347 -0.20800
C 	C 	0.15283 0.86467 0.26137 0.09000
C 	C 	0.11023 0.87347 0.30847 0.12700
C 	C 	0.25913 0.06107 0.96097 0.12900
C 	C 	0.25923 0.13077 0.96257 0.08200
N 	N 	0.17383 0.84687 0.28187 -0.30900
C 	C 	0.16913 0.86917 0.22437 -0.07100
N 	N 	0.12283 0.85627 0.33447 -0.30300
C 	C 	0.08153 0.88717 0.32097 -0.09700
C 	C 	0.23813 0.01217 0.96987 -0.16000
N 	N 	0.29373 0.07197 0.93877 -0.29500
N 	N 	0.29683 0.15667 0.94017 -0.30500
C 	C 	0.24493 0.16397 0.97267 -0.04500
C 	C 	0.20113 0.84197 0.26017 0.14100
C 	C 	0.19823 0.85357 0.22337 -0.12000
H 	H 	0.16093 0.88057 0.20547 0.04600
C 	C 	0.10183 0.85887 0.36567 0.14400
H 	H 	0.06883 0.90067 0.30797 0.07000
C 	C 	0.07553 0.87737 0.35577 -0.10800
C 	C 	0.26473 0.99887 0.95697 -0.02300
H 	H 	0.21163 0.99497 0.98197 0.09400
C 	C 	0.29943 0.03617 0.93457 0.09400
C 	C 	0.29933 0.19687 0.93707 0.16900
C 	C 	0.26903 0.20257 0.95737 -0.15000
H 	H 	0.22153 0.15757 0.98797 0.04600
C 	C 	0.22743 0.82257 0.26957 -0.27900
H 	H 	0.21293 0.85087 0.20377 0.06500
H 	H 	0.05693 0.88197 0.37067 0.06700
H 	H 	0.26253 0.97137 0.96087 0.03300
H 	H 	0.26643 0.22787 0.95957 0.07500
H 	H 	0.24403 0.81997 0.25147 0.12300
Zn	Zn	0.63558 0.36372 0.47162 1.20900
O 	O 	0.67530 0.41430 0.50202 -0.50700
O 	O 	0.74040 0.41550 0.50071 -0.53500
O 	O 	0.62250 0.39270 0.43251 -0.51700
C 	C 	0.71600 0.42950 0.50990 0.43000
C 	C 	0.63160 0.39340 0.39970 0.44100
O 	O 	0.64770 0.37160 0.38569 -0.52500
C 	C 	0.73260 0.46900 0.53500 -0.18300
C 	C 	0.62190 0.42010 0.37560 -0.27300
C 	C 	0.77640 0.48780 0.54700 0.10200
C 	C 	0.70730 0.48650 0.54610 0.12900
C 	C 	0.60800 0.44870 0.38740 0.20500
C 	C 	0.62540 0.41820 0.34120 0.21000
H 	H 	0.79390 0.47580 0.53990 0.00400
C 	C 	0.79410 0.52490 0.57020 -0.20900
C 	C 	0.72620 0.52200 0.56860 -0.22200
H 	H 	0.67800 0.47460 0.53870 -0.00400
H 	H 	0.60760 0.45380 0.41150 -0.03400
C 	C 	0.59450 0.46990 0.36380 -0.31500
C 	C 	0.61380 0.44180 0.31790 -0.29300
H 	H 	0.63610 0.40050 0.33200 -0.02200
H 	H 	0.82350 0.53770 0.57770 0.09600
C 	C 	0.76880 0.54170 0.58120 0.17200
H 	H 	0.70860 0.53370 0.57600 0.09900
H 	H 	0.58270 0.48670 0.37280 0.13400
C 	C 	0.59720 0.46790 0.32970 0.25400
H 	H 	0.61730 0.43970 0.29380 0.12500
C 	C 	0.78900 0.57920 0.60740 -0.17800
C 	C 	0.57980 0.48900 0.30680 -0.19700
C 	C 	0.80200 0.62150 0.59470 0.09000
C 	C 	0.79320 0.57010 0.64180 0.12700
C 	C 	0.60560 0.53140 0.29430 0.10700
C 	C 	0.53590 0.46180 0.29590 0.07700
N 	N 	0.81980 0.66030 0.61520 -0.30900
C 	C 	0.79750 0.63330 0.55770 -0.07100
N 	N 	0.81040 0.59990 0.66780 -0.30300
C 	C 	0.77950 0.52770 0.65430 -0.09600
C 	C 	0.65450 0.55930 0.30320 -0.08000
N 	N 	0.59470 0.55510 0.27210 -0.29700
N 	N 	0.51000 0.47350 0.27350 -0.30400
C 	C 	0.50270 0.41430 0.30600 -0.04300
C 	C 	0.82470 0.69250 0.59350 0.14100
C 	C 	0.81310 0.67800 0.55670 -0.12100
H 	H 	0.78610 0.61370 0.53880 0.04600
C 	C 	0.80780 0.57630 0.69900 0.14500
H 	H 	0.76600 0.50150 0.64130 0.07000
C 	C 	0.78930 0.53150 0.68910 -0.10900
C 	C 	0.66780 0.59920 0.29030 -0.10000
H 	H 	0.67170 0.55000 0.31530 0.05500
C 	C 	0.63050 0.59660 0.26790 0.12700
C 	C 	0.46980 0.43580 0.27040 0.16900
C 	C 	0.46410 0.39980 0.29070 -0.15200
H 	H 	0.50910 0.39730 0.32130 0.04400
C 	C 	0.84410 0.73820 0.60290 -0.27900
H 	H 	0.81580 0.69540 0.53710 0.06500
H 	H 	0.78470 0.50830 0.70400 0.06800
H 	H 	0.69530 0.62450 0.29420 0.05600
H 	H 	0.43880 0.37190 0.29290 0.07500
H 	H 	0.84670 0.75740 0.58480 0.12300
Zn	Zn	0.30225 0.69705 0.80495 1.20900
O 	O 	0.34197 0.74763 0.83535 -0.50700
O 	O 	0.40707 0.74883 0.83404 -0.53500
O 	O 	0.28917 0.72603 0.76584 -0.51700
C 	C 	0.38267 0.76283 0.84323 0.43000
C 	C 	0.29827 0.72673 0.73303 0.44100
O 	O 	0.31437 0.70493 0.71902 -0.52500
C 	C 	0.39927 0.80233 0.86833 -0.18200
C 	C 	0.28857 0.75343 0.70893 -0.27300
C 	C 	0.44307 0.82113 0.88033 0.10100
C 	C 	0.37397 0.81983 0.87943 0.12900
C 	C 	0.27467 0.78203 0.72073 0.20500
C 	C 	0.29207 0.75153 0.67453 0.21000
H 	H 	0.46057 0.80913 0.87323 0.00400
C 	C 	0.46077 0.85823 0.90353 -0.20800
C 	C 	0.39287 0.85533 0.90193 -0.22000
H 	H 	0.34467 0.80793 0.87203 -0.00400
H 	H 	0.27427 0.78713 0.74483 -0.03400
C 	C 	0.26117 0.80323 0.69713 -0.31500
C 	C 	0.28047 0.77513 0.65123 -0.29300
H 	H 	0.30277 0.73383 0.66533 -0.02200
H 	H 	0.49017 0.87103 0.91103 0.09600
C 	C 	0.43547 0.87503 0.91453 0.17100
H 	H 	0.37527 0.86703 0.90933 0.10000
H 	H 	0.24937 0.82003 0.70613 0.13400
C 	C 	0.26387 0.80123 0.66303 0.25400
H 	H 	0.28397 0.77303 0.62713 0.12500
C 	C 	0.45567 0.91253 0.94073 -0.17400
C 	C 	0.24647 0.82233 0.64013 -0.19700
C 	C 	0.46867 0.95483 0.92803 0.08700
C 	C 	0.45987 0.90343 0.97513 0.12700
C 	C 	0.27227 0.86473 0.62763 0.10700
C 	C 	0.20257 0.79513 0.62923 0.07700
N 	N 	0.48647 0.99363 0.94853 -0.29800
C 	C 	0.46417 0.96663 0.89103 -0.04600
N 	N 	0.47707 0.93323 0.00113 -0.30400
C 	C 	0.44617 0.86103 0.98763 -0.08400
C 	C 	0.32117 0.89263 0.63653 -0.07700
N 	N 	0.26137 0.88843 0.60543 -0.29800
N 	N 	0.17667 0.80683 0.60683 -0.30400
C 	C 	0.16937 0.74763 0.63933 -0.04300
C 	C 	0.49137 0.02583 0.92683 0.13400
C 	C 	0.47977 0.01133 0.89003 -0.14200
H 	H 	0.45277 0.94703 0.87213 0.04000
C 	C 	0.47447 0.90963 0.03233 0.15100
H 	H 	0.43267 0.83483 0.97463 0.06600
C 	C 	0.45597 0.86483 0.02243 -0.12200
C 	C 	0.33447 0.93253 0.62363 -0.10500
H 	H 	0.33837 0.88333 0.64863 0.05400
C 	C 	0.29717 0.92993 0.60123 0.13700
C 	C 	0.13647 0.76913 0.60373 0.16800
C 	C 	0.13077 0.73313 0.62403 -0.15100
H 	H 	0.17577 0.73063 0.65463 0.04400
C 	C 	0.51077 0.07153 0.93623 -0.27400
H 	H 	0.48247 0.02873 0.87043 0.07100
H 	H 	0.45137 0.84163 0.03733 0.07200
H 	H 	0.36197 0.95783 0.62753 0.06000
H 	H 	0.10547 0.70523 0.62623 0.07400
H 	H 	0.51337 0.09073 0.91813 0.12100
Zn	Zn	0.96891 0.03039 0.13829 1.20900
O 	O 	0.00863 0.08097 0.16869 -0.51300
O 	O 	0.07373 0.08217 0.16738 -0.53800
O 	O 	0.95583 0.05937 0.09918 -0.51500
C 	C 	0.04933 0.09617 0.17657 0.43100
C 	C 	0.96493 0.06007 0.06637 0.43400
O 	O 	0.98103 0.03827 0.05236 -0.52300
C 	C 	0.06593 0.13567 0.20167 -0.18500
C 	C 	0.95523 0.08677 0.04227 -0.25600
C 	C 	0.10973 0.15447 0.21367 0.10200
C 	C 	0.04063 0.15317 0.21277 0.12900
C 	C 	0.94133 0.11537 0.05407 0.19300
C 	C 	0.95873 0.08487 0.00787 0.17800
H 	H 	0.12723 0.14247 0.20657 0.00300
C 	C 	0.12743 0.19157 0.23687 -0.21000
C 	C 	0.05953 0.18867 0.23527 -0.22300
H 	H 	0.01133 0.14127 0.20537 -0.00700
H 	H 	0.94093 0.12047 0.07817 -0.02900
C 	C 	0.92783 0.13657 0.03047 -0.30800
C 	C 	0.94713 0.10847 0.98457 -0.26800
H 	H 	0.96943 0.06717 0.99867 -0.00800
H 	H 	0.15683 0.20437 0.24437 0.09500
C 	C 	0.10213 0.20837 0.24787 0.17200
H 	H 	0.04193 0.20037 0.24267 0.09800
H 	H 	0.91603 0.15337 0.03947 0.13100
C 	C 	0.93053 0.13457 0.99637 0.24500
H 	H 	0.95063 0.10637 0.96047 0.11700
C 	C 	0.12233 0.24587 0.27407 -0.17800
C 	C 	0.91313 0.15567 0.97347 -0.18700
C 	C 	0.13533 0.28817 0.26137 0.09000
C 	C 	0.12653 0.23677 0.30847 0.12600
C 	C 	0.93893 0.19807 0.96097 0.09500
C 	C 	0.86923 0.12847 0.96257 0.07500
N 	N 	0.15313 0.32697 0.28187 -0.30900
C 	C 	0.13083 0.29997 0.22437 -0.07200
N 	N 	0.14373 0.26657 0.33447 -0.30300
C 	C 	0.11283 0.19437 0.32097 -0.09600
C 	C 	0.98783 0.22597 0.96987 -0.03100
N 	N 	0.92803 0.22177 0.93877 -0.29700
N 	N 	0.84333 0.14017 0.94017 -0.30300
C 	C 	0.83603 0.08097 0.97267 -0.04200
C 	C 	0.15803 0.35917 0.26017 0.14100
C 	C 	0.14643 0.34467 0.22337 -0.12100
H 	H 	0.11943 0.28037 0.20547 0.04500
C 	C 	0.14113 0.24297 0.36567 0.14500
H 	H 	0.09933 0.16817 0.30797 0.06900
C 	C 	0.12263 0.19817 0.35577 -0.10900
C 	C 	0.00113 0.26587 0.95697 -0.14500
H 	H 	0.00503 0.21667 0.98197 0.03400
C 	C 	0.96383 0.26327 0.93457 0.14800
C 	C 	0.80313 0.10247 0.93707 0.16800
C 	C 	0.79743 0.06647 0.95737 -0.15100
H 	H 	0.84243 0.06397 0.98797 0.04400
C 	C 	0.17743 0.40487 0.26957 -0.27900
H 	H 	0.14913 0.36207 0.20377 0.06500
H 	H 	0.11803 0.17497 0.37067 0.06800
H 	H 	0.02863 0.29117 0.96087 0.07100
H 	H 	0.77213 0.03857 0.95957 0.07300
H 	H 	0.18003 0.42407 0.25147 0.12300
Zn	Zn	0.63628 0.27186 0.47162 1.20900
O 	O 	0.58570 0.26100 0.50202 -0.50700
O 	O 	0.58450 0.32490 0.50071 -0.53500
O 	O 	0.60730 0.22980 0.43251 -0.51700
C 	C 	0.57050 0.28650 0.50990 0.43000
C 	C 	0.60660 0.23820 0.39970 0.44100
O 	O 	0.62840 0.27610 0.38569 -0.52500
C 	C 	0.53100 0.26360 0.53500 -0.18200
C 	C 	0.57990 0.20180 0.37560 -0.27200
C 	C 	0.51220 0.28860 0.54700 0.10100
C 	C 	0.51350 0.22080 0.54610 0.12800
C 	C 	0.55130 0.15930 0.38740 0.20400
C 	C 	0.58180 0.20720 0.34120 0.20900
H 	H 	0.52420 0.31810 0.53990 0.00400
C 	C 	0.47510 0.26920 0.57020 -0.20900
C 	C 	0.47800 0.20420 0.56860 -0.22100
H 	H 	0.52540 0.20340 0.53870 -0.00400
H 	H 	0.54620 0.15380 0.41150 -0.03400
C 	C 	0.53010 0.12460 0.36380 -0.31400
C 	C 	0.55820 0.17200 0.31790 -0.29200
H 	H 	0.59950 0.23560 0.33200 -0.02200
H 	H 	0.46230 0.28580 0.57770 0.09500
C 	C 	0.45830 0.22710 0.58120 0.17100
H 	H 	0.46630 0.17490 0.57600 0.09800
H 	H 	0.51330 0.09600 0.37280 0.13300
C 	C 	0.53210 0.12930 0.32970 0.25300
H 	H 	0.56030 0.17760 0.29380 0.12500
C 	C 	0.42080 0.20980 0.60740 -0.17800
C 	C 	0.51100 0.09080 0.30680 -0.19700
C 	C 	0.37850 0.18050 0.59470 0.08900
C 	C 	0.42990 0.22310 0.64180 0.12600
C 	C 	0.46860 0.07420 0.29430 0.10600
C 	C 	0.53820 0.07410 0.29590 0.07500
N 	N 	0.33970 0.15950 0.61520 -0.30900
C 	C 	0.36670 0.16420 0.55770 -0.07200
N 	N 	0.40010 0.21050 0.66780 -0.30300
C 	C 	0.47230 0.25180 0.65430 -0.09600
C 	C 	0.44070 0.09520 0.30320 -0.07800
N 	N 	0.44490 0.03960 0.27210 -0.30000
N 	N 	0.52650 0.03650 0.27350 -0.30700
C 	C 	0.58570 0.08840 0.30600 -0.04000
C 	C 	0.30750 0.13220 0.59350 0.14000
C 	C 	0.32200 0.13510 0.55670 -0.12100
H 	H 	0.38630 0.17240 0.53880 0.04500
C 	C 	0.42370 0.23150 0.69900 0.14500
H 	H 	0.49850 0.26450 0.64130 0.07000
C 	C 	0.46850 0.25780 0.68910 -0.10900
C 	C 	0.40080 0.06860 0.29030 -0.10600
H 	H 	0.45000 0.12170 0.31530 0.05400
C 	C 	0.40340 0.03390 0.26790 0.13400
C 	C 	0.56420 0.03400 0.27040 0.17700
C 	C 	0.60020 0.06430 0.29070 -0.15900
H 	H 	0.60270 0.11180 0.32130 0.04300
C 	C 	0.26180 0.10590 0.60290 -0.27900
H 	H 	0.30460 0.12040 0.53710 0.06400
H 	H 	0.49170 0.27640 0.70400 0.06800
H 	H 	0.37550 0.07080 0.29420 0.05700
H 	H 	0.62810 0.06690 0.29290 0.07600
H 	H 	0.24260 0.08930 0.58480 0.12100
Zn	Zn	0.30295 0.60519 0.80495 1.20900
O 	O 	0.25237 0.59433 0.83535 -0.50700
O 	O 	0.25117 0.65823 0.83404 -0.53500
O 	O 	0.27397 0.56313 0.76584 -0.51700
C 	C 	0.23717 0.61983 0.84323 0.43000
C 	C 	0.27327 0.57153 0.73303 0.44100
O 	O 	0.29507 0.60943 0.71902 -0.52500
C 	C 	0.19767 0.59693 0.86833 -0.18300
C 	C 	0.24657 0.53513 0.70893 -0.27300
C 	C 	0.17887 0.62193 0.88033 0.10200
C 	C 	0.18017 0.55413 0.87943 0.12900
C 	C 	0.21797 0.49263 0.72073 0.20500
C 	C 	0.24847 0.54053 0.67453 0.21000
H 	H 	0.19087 0.65143 0.87323 0.00300
C 	C 	0.14177 0.60253 0.90353 -0.21000
C 	C 	0.14467 0.53753 0.90193 -0.22200
H 	H 	0.19207 0.53673 0.87203 -0.00400
H 	H 	0.21287 0.48713 0.74483 -0.03500
C 	C 	0.19677 0.45793 0.69713 -0.31600
C 	C 	0.22487 0.50533 0.65123 -0.29300
H 	H 	0.26617 0.56893 0.66533 -0.02200
H 	H 	0.12897 0.61913 0.91103 0.09500
C 	C 	0.12497 0.56043 0.91453 0.17300
H 	H 	0.13297 0.50823 0.90933 0.09900
H 	H 	0.17997 0.42933 0.70613 0.13400
C 	C 	0.19877 0.46263 0.66303 0.25400
H 	H 	0.22697 0.51093 0.62713 0.12500
C 	C 	0.08747 0.54313 0.94073 -0.18000
C 	C 	0.17767 0.42413 0.64013 -0.19800
C 	C 	0.04517 0.51383 0.92803 0.09300
C 	C 	0.09657 0.55643 0.97513 0.12900
C 	C 	0.13527 0.40753 0.62763 0.10800
C 	C 	0.20487 0.40743 0.62923 0.07700
N 	N 	0.00637 0.49283 0.94853 -0.31300
C 	C 	0.03337 0.49753 0.89103 -0.08700
N 	N 	0.06677 0.54383 0.00113 -0.30700
C 	C 	0.13897 0.58513 0.98763 -0.08700
C 	C 	0.10737 0.42853 0.63653 -0.08200
N 	N 	0.11157 0.37293 0.60543 -0.29600
N 	N 	0.19317 0.36983 0.60683 -0.30400
C 	C 	0.25237 0.42173 0.63933 -0.04300
C 	C 	0.97417 0.46553 0.92683 0.14400
C 	C 	0.98867 0.46843 0.89003 -0.10600
H 	H 	0.05297 0.50573 0.87213 0.04900
C 	C 	0.09037 0.56483 0.03233 0.14700
H 	H 	0.16517 0.59783 0.97463 0.06700
C 	C 	0.13517 0.59113 0.02243 -0.12000
C 	C 	0.06747 0.40193 0.62363 -0.09700
H 	H 	0.11667 0.45503 0.64863 0.05500
C 	C 	0.07007 0.36723 0.60123 0.12100
C 	C 	0.23087 0.36733 0.60373 0.16900
C 	C 	0.26687 0.39763 0.62403 -0.15200
H 	H 	0.26937 0.44513 0.65463 0.04400
C 	C 	0.92847 0.43923 0.93623 -0.27600
H 	H 	0.97127 0.45373 0.87043 0.06100
H 	H 	0.15837 0.60973 0.03733 0.07100
H 	H 	0.04217 0.40413 0.62753 0.05400
H 	H 	0.29477 0.40023 0.62623 0.07500
H 	H 	0.90927 0.42263 0.91813 0.12200
Zn	Zn	0.96961 0.93853 0.13829 1.21300
O 	O 	0.91903 0.92767 0.16869 -0.50300
O 	O 	0.91783 0.99157 0.16738 -0.52600
O 	O 	0.94063 0.89647 0.09918 -0.51200
C 	C 	0.90383 0.95317 0.17657 0.42900
C 	C 	0.93993 0.90487 0.06637 0.43400
O 	O 	0.96173 0.94277 0.05236 -0.51500
C 	C 	0.86433 0.93027 0.20167 -0.17900
C 	C 	0.91323 0.86847 0.04227 -0.25600
C 	C 	0.84553 0.95527 0.21367 0.10100
C 	C 	0.84683 0.88747 0.21277 0.12700
C 	C 	0.88463 0.82597 0.05407 0.19400
C 	C 	0.91513 0.87387 0.00787 0.17800
H 	H 	0.85753 0.98477 0.20657 0.00800
C 	C 	0.80843 0.93587 0.23687 -0.20700
C 	C 	0.81133 0.87087 0.23527 -0.22000
H 	H 	0.85873 0.87007 0.20537 -0.00300
H 	H 	0.87953 0.82047 0.07817 -0.03100
C 	C 	0.86343 0.79127 0.03047 -0.31100
C 	C 	0.89153 0.83867 0.98457 -0.26900
H 	H 	0.93283 0.90227 0.99867 -0.00600
H 	H 	0.79563 0.95247 0.24437 0.09700
C 	C 	0.79163 0.89377 0.24787 0.17100
H 	H 	0.79963 0.84157 0.24267 0.09900
H 	H 	0.84663 0.76267 0.03947 0.13100
C 	C 	0.86543 0.79597 0.99637 0.24800
H 	H 	0.89363 0.84427 0.96047 0.11800
C 	C 	0.75413 0.87647 0.27407 -0.17700
C 	C 	0.84433 0.75747 0.97347 -0.19400
C 	C 	0.71183 0.84717 0.26137 0.09000
C 	C 	0.76323 0.88977 0.30847 0.12700
C 	C 	0.80193 0.74087 0.96097 0.10700
C 	C 	0.87153 0.74077 0.96257 0.07700
N 	N 	0.67303 0.82617 0.28187 -0.30900
C 	C 	0.70003 0.83087 0.22437 -0.07100
N 	N 	0.73343 0.87717 0.33447 -0.30300
C 	C 	0.80563 0.91847 0.32097 -0.09500
C 	C 	0.77403 0.76187 0.96987 -0.07900
N 	N 	0.77823 0.70627 0.93877 -0.29600
N 	N 	0.85983 0.70317 0.94017 -0.30400
C 	C 	0.91903 0.75507 0.97267 -0.04100
C 	C 	0.64083 0.79887 0.26017 0.14100
C 	C 	0.65533 0.80177 0.22337 -0.12100
H 	H 	0.71963 0.83907 0.20547 0.04600
C 	C 	0.75703 0.89817 0.36567 0.14600
H 	H 	0.83183 0.93117 0.30797 0.07200
C 	C 	0.80183 0.92447 0.35577 -0.10800
C 	C 	0.73413 0.73527 0.95697 -0.10000
H 	H 	0.78333 0.78837 0.98197 0.05600
C 	C 	0.73673 0.70057 0.93457 0.12700
C 	C 	0.89753 0.70067 0.93707 0.17100
C 	C 	0.93353 0.73097 0.95737 -0.15200
H 	H 	0.93603 0.77847 0.98797 0.04500
C 	C 	0.59513 0.77257 0.26957 -0.27900
H 	H 	0.63793 0.78707 0.20377 0.06500
H 	H 	0.82503 0.94307 0.37067 0.07100
H 	H 	0.70883 0.73747 0.96087 0.05700
H 	H 	0.96143 0.73357 0.95957 0.07800
H 	H 	0.57593 0.75597 0.25147 0.12300
Zn	Zn	0.36442 0.72814 0.02838 1.20700
O 	O 	0.32470 0.73900 0.99798 -0.50500
O 	O 	0.25960 0.67510 0.99929 -0.53300
O 	O 	0.37750 0.77020 0.06749 -0.51800
C 	C 	0.28400 0.71350 0.99010 0.43000
C 	C 	0.36840 0.76180 0.10030 0.44100
O 	O 	0.35230 0.72390 0.11431 -0.52500
C 	C 	0.26740 0.73640 0.96500 -0.18200
C 	C 	0.37810 0.79820 0.12440 -0.27300
C 	C 	0.22360 0.71140 0.95300 0.10100
C 	C 	0.29270 0.77920 0.95390 0.12900
C 	C 	0.39200 0.84070 0.11260 0.20500
C 	C 	0.37460 0.79280 0.15880 0.21000
H 	H 	0.20610 0.68190 0.96010 0.00400
C 	C 	0.20590 0.73080 0.92980 -0.20900
C 	C 	0.27380 0.79580 0.93140 -0.22100
H 	H 	0.32200 0.79660 0.96130 -0.00300
H 	H 	0.39240 0.84620 0.08850 -0.03400
C 	C 	0.40550 0.87540 0.13620 -0.31500
C 	C 	0.38620 0.82800 0.18210 -0.29200
H 	H 	0.36390 0.76440 0.16800 -0.02200
H 	H 	0.17650 0.71420 0.92230 0.09500
C 	C 	0.23120 0.77290 0.91880 0.17200
H 	H 	0.29140 0.82510 0.92400 0.10000
H 	H 	0.41730 0.90400 0.12720 0.13400
C 	C 	0.40280 0.87070 0.17030 0.25300
H 	H 	0.38270 0.82240 0.20620 0.12500
C 	C 	0.21100 0.79020 0.89260 -0.17700
C 	C 	0.42020 0.90920 0.19320 -0.19500
C 	C 	0.19800 0.81950 0.90530 0.09000
C 	C 	0.20680 0.77690 0.85820 0.12700
C 	C 	0.39440 0.92580 0.20570 0.10700
C 	C 	0.46410 0.92590 0.20410 0.07600
N 	N 	0.18020 0.84050 0.88480 -0.30900
C 	C 	0.20250 0.83580 0.94230 -0.07100
N 	N 	0.18960 0.78950 0.83220 -0.30300
C 	C 	0.22050 0.74820 0.84570 -0.09600
C 	C 	0.34550 0.90480 0.19680 -0.07400
N 	N 	0.40530 0.96040 0.22790 -0.29600
N 	N 	0.49000 0.96350 0.22650 -0.30300
C 	C 	0.49730 0.91160 0.19400 -0.03600
C 	C 	0.17530 0.86780 0.90650 0.14200
C 	C 	0.18690 0.86490 0.94330 -0.12000
H 	H 	0.21390 0.82760 0.96120 0.04700
C 	C 	0.19220 0.76850 0.80100 0.14500
H 	H 	0.23400 0.73550 0.85870 0.07000
C 	C 	0.21070 0.74220 0.81090 -0.10900
C 	C 	0.33220 0.93140 0.20970 -0.10900
H 	H 	0.32830 0.87830 0.18470 0.05300
C 	C 	0.36950 0.96610 0.23210 0.14900
C 	C 	0.53020 0.96600 0.22960 0.19100
C 	C 	0.53590 0.93570 0.20930 -0.16400
H 	H 	0.49090 0.88820 0.17870 0.04200
C 	C 	0.15590 0.89410 0.89710 -0.28000
H 	H 	0.18420 0.87960 0.96290 0.06700
H 	H 	0.21530 0.72360 0.79600 0.06800
H 	H 	0.30470 0.92920 0.20580 0.06200
H 	H 	0.56120 0.93310 0.20710 0.08100
H 	H 	0.15330 0.91070 0.91520 0.12400
Zn	Zn	0.03109 0.06147 0.36171 1.20700
O 	O 	0.99137 0.07233 0.33131 -0.50400
O 	O 	0.92627 0.00843 0.33262 -0.54100
O 	O 	0.04417 0.10353 0.40082 -0.52000
C 	C 	0.95067 0.04683 0.32343 0.43100
C 	C 	0.03507 0.09513 0.43363 0.44300
O 	O 	0.01897 0.05723 0.44764 -0.53100
C 	C 	0.93407 0.06973 0.29833 -0.18400
C 	C 	0.04477 0.13153 0.45773 -0.27900
C 	C 	0.89027 0.04473 0.28633 0.10200
C 	C 	0.95937 0.11253 0.28723 0.13000
C 	C 	0.05867 0.17403 0.44593 0.21000
C 	C 	0.04127 0.12613 0.49213 0.21500
H 	H 	0.87277 0.01523 0.29343 -0.00000
C 	C 	0.87257 0.06413 0.26313 -0.21100
C 	C 	0.94047 0.12913 0.26473 -0.22200
H 	H 	0.98867 0.12993 0.29463 -0.00200
H 	H 	0.05907 0.17953 0.42183 -0.03700
C 	C 	0.07217 0.20873 0.46953 -0.32300
C 	C 	0.05287 0.16133 0.51543 -0.30000
H 	H 	0.03057 0.09773 0.50133 -0.02600
H 	H 	0.84317 0.04753 0.25563 0.09300
C 	C 	0.89787 0.10623 0.25213 0.17300
H 	H 	0.95807 0.15843 0.25733 0.10200
H 	H 	0.08397 0.23733 0.46053 0.13600
C 	C 	0.06947 0.20403 0.50363 0.26000
H 	H 	0.04937 0.15573 0.53953 0.12700
C 	C 	0.87767 0.12353 0.22593 -0.17800
C 	C 	0.08687 0.24253 0.52653 -0.20600
C 	C 	0.86467 0.15283 0.23863 0.09000
C 	C 	0.87347 0.11023 0.19153 0.12700
C 	C 	0.06107 0.25913 0.53903 0.12100
C 	C 	0.13077 0.25923 0.53743 0.08000
N 	N 	0.84687 0.17383 0.21813 -0.30900
C 	C 	0.86917 0.16913 0.27563 -0.07200
N 	N 	0.85627 0.12283 0.16553 -0.30300
C 	C 	0.88717 0.08153 0.17903 -0.09700
C 	C 	0.01217 0.23813 0.53013 -0.13000
N 	N 	0.07197 0.29373 0.56123 -0.29600
N 	N 	0.15667 0.29683 0.55983 -0.30500
C 	C 	0.16397 0.24493 0.52733 -0.04500
C 	C 	0.84197 0.20113 0.23983 0.14100
C 	C 	0.85357 0.19823 0.27663 -0.12100
H 	H 	0.88057 0.16093 0.29453 0.04600
C 	C 	0.85887 0.10183 0.13433 0.14400
H 	H 	0.90067 0.06883 0.19203 0.06800
C 	C 	0.87737 0.07553 0.14423 -0.10900
C 	C 	0.99887 0.26473 0.54303 -0.05300
H 	H 	0.99497 0.21163 0.51803 0.07800
C 	C 	0.03617 0.29943 0.56543 0.10600
C 	C 	0.19687 0.29933 0.56293 0.16800
C 	C 	0.20257 0.26903 0.54263 -0.15000
H 	H 	0.15757 0.22153 0.51203 0.04500
C 	C 	0.82257 0.22743 0.23043 -0.27900
H 	H 	0.85087 0.21293 0.29623 0.06500
H 	H 	0.88197 0.05693 0.12933 0.06600
H 	H 	0.97137 0.26253 0.53913 0.04200
H 	H 	0.22787 0.26643 0.54043 0.07400
H 	H 	0.81997 0.24403 0.24853 0.12300
Zn	Zn	0.69775 0.39481 0.69505 1.20900
O 	O 	0.65803 0.40567 0.66465 -0.50700
O 	O 	0.59293 0.34177 0.66596 -0.53500
O 	O 	0.71083 0.43687 0.73416 -0.51700
C 	C 	0.61733 0.38017 0.65677 0.43000
C 	C 	0.70173 0.42847 0.76697 0.44100
O 	O 	0.68563 0.39057 0.78098 -0.52500
C 	C 	0.60073 0.40307 0.63167 -0.18300
C 	C 	0.71143 0.46487 0.79107 -0.27300
C 	C 	0.55693 0.37807 0.61967 0.10100
C 	C 	0.62603 0.44587 0.62057 0.12900
C 	C 	0.72533 0.50737 0.77927 0.20500
C 	C 	0.70793 0.45947 0.82547 0.21000
H 	H 	0.53943 0.34857 0.62677 0.00400
C 	C 	0.53923 0.39747 0.59647 -0.20900
C 	C 	0.60713 0.46247 0.59807 -0.22100
H 	H 	0.65533 0.46327 0.62797 -0.00400
H 	H 	0.72573 0.51287 0.75517 -0.03400
C 	C 	0.73883 0.54207 0.80287 -0.31600
C 	C 	0.71953 0.49467 0.84877 -0.29300
H 	H 	0.69723 0.43107 0.83467 -0.02200
H 	H 	0.50983 0.38087 0.58897 0.09500
C 	C 	0.56453 0.43957 0.58547 0.17200
H 	H 	0.62473 0.49177 0.59067 0.09900
H 	H 	0.75063 0.57067 0.79387 0.13400
C 	C 	0.73613 0.53737 0.83697 0.25400
H 	H 	0.71603 0.48907 0.87287 0.12600
C 	C 	0.54433 0.45687 0.55927 -0.17800
C 	C 	0.75353 0.57587 0.85987 -0.19700
C 	C 	0.53133 0.48617 0.57197 0.09000
C 	C 	0.54013 0.44357 0.52487 0.12700
C 	C 	0.72773 0.59247 0.87237 0.10800
C 	C 	0.79743 0.59257 0.87077 0.07700
N 	N 	0.51353 0.50717 0.55147 -0.30900
C 	C 	0.53583 0.50247 0.60897 -0.07200
N 	N 	0.52293 0.45617 0.49887 -0.30300
C 	C 	0.55383 0.41487 0.51237 -0.09600
C 	C 	0.67883 0.57147 0.86347 -0.08000
N 	N 	0.73863 0.62707 0.89457 -0.29600
N 	N 	0.82333 0.63017 0.89317 -0.30400
C 	C 	0.83063 0.57827 0.86067 -0.04200
C 	C 	0.50863 0.53447 0.57317 0.14100
C 	C 	0.52023 0.53157 0.60997 -0.12100
H 	H 	0.54723 0.49427 0.62787 0.04600
C 	C 	0.52553 0.43517 0.46767 0.14500
H 	H 	0.56733 0.40217 0.52537 0.07000
C 	C 	0.54403 0.40887 0.47757 -0.10900
C 	C 	0.66553 0.59807 0.87637 -0.10000
H 	H 	0.66163 0.54497 0.85137 0.05500
C 	C 	0.70283 0.63277 0.89877 0.12700
C 	C 	0.86353 0.63267 0.89627 0.17000
C 	C 	0.86923 0.60237 0.87597 -0.15200
H 	H 	0.82423 0.55487 0.84537 0.04400
C 	C 	0.48923 0.56077 0.56377 -0.27900
H 	H 	0.51753 0.54627 0.62957 0.06500
H 	H 	0.54863 0.39027 0.46267 0.06800
H 	H 	0.63803 0.59587 0.87247 0.05600
H 	H 	0.89453 0.59977 0.87377 0.07600
H 	H 	0.48663 0.57737 0.58187 0.12300
Zn	Zn	0.36372 0.63558 0.02838 1.20700
O 	O 	0.41430 0.67530 0.99798 -0.50500
O 	O 	0.41550 0.74040 0.99929 -0.53300
O 	O 	0.39270 0.62250 0.06749 -0.51900
C 	C 	0.42950 0.71600 0.99010 0.43000
C 	C 	0.39340 0.63160 0.10030 0.44100
O 	O 	0.37160 0.64770 0.11431 -0.52500
C 	C 	0.46900 0.73260 0.96500 -0.18200
C 	C 	0.42010 0.62190 0.12440 -0.27300
C 	C 	0.48780 0.77640 0.95300 0.10200
C 	C 	0.48650 0.70730 0.95390 0.12900
C 	C 	0.44870 0.60800 0.11260 0.20500
C 	C 	0.41820 0.62540 0.15880 0.21000
H 	H 	0.47580 0.79390 0.96010 0.00400
C 	C 	0.52490 0.79410 0.92980 -0.20900
C 	C 	0.52200 0.72620 0.93140 -0.22100
H 	H 	0.47460 0.67800 0.96130 -0.00300
H 	H 	0.45380 0.60760 0.08850 -0.03500
C 	C 	0.46990 0.59450 0.13620 -0.31600
C 	C 	0.44180 0.61380 0.18210 -0.29300
H 	H 	0.40050 0.63610 0.16800 -0.02200
H 	H 	0.53770 0.82350 0.92230 0.09600
C 	C 	0.54170 0.76880 0.91880 0.17200
H 	H 	0.53370 0.70860 0.92400 0.09900
H 	H 	0.48670 0.58270 0.12720 0.13400
C 	C 	0.46790 0.59720 0.17030 0.25400
H 	H 	0.43970 0.61730 0.20620 0.12500
C 	C 	0.57920 0.78900 0.89260 -0.17700
C 	C 	0.48900 0.57980 0.19320 -0.19800
C 	C 	0.62150 0.80200 0.90530 0.09000
C 	C 	0.57010 0.79320 0.85820 0.12700
C 	C 	0.53140 0.60560 0.20570 0.10800
C 	C 	0.46180 0.53590 0.20410 0.07700
N 	N 	0.66030 0.81980 0.88480 -0.30900
C 	C 	0.63330 0.79750 0.94230 -0.07100
N 	N 	0.59990 0.81040 0.83220 -0.30300
C 	C 	0.52770 0.77950 0.84570 -0.09600
C 	C 	0.55930 0.65450 0.19680 -0.08000
N 	N 	0.55510 0.59470 0.22790 -0.29700
N 	N 	0.47350 0.51000 0.22650 -0.30400
C 	C 	0.41430 0.50270 0.19400 -0.04300
C 	C 	0.69250 0.82470 0.90650 0.14200
C 	C 	0.67800 0.81310 0.94330 -0.12100
H 	H 	0.61370 0.78610 0.96120 0.04600
C 	C 	0.57630 0.80780 0.80100 0.14500
H 	H 	0.50150 0.76600 0.85870 0.07000
C 	C 	0.53150 0.78930 0.81090 -0.10900
C 	C 	0.59920 0.66780 0.20970 -0.10000
H 	H 	0.55000 0.67170 0.18470 0.05500
C 	C 	0.59660 0.63050 0.23210 0.12700
C 	C 	0.43580 0.46980 0.22960 0.16900
C 	C 	0.39980 0.46410 0.20930 -0.15200
H 	H 	0.39730 0.50910 0.17870 0.04400
C 	C 	0.73820 0.84410 0.89710 -0.27900
H 	H 	0.69540 0.81580 0.96290 0.06600
H 	H 	0.50830 0.78470 0.79600 0.06800
H 	H 	0.62450 0.69530 0.20580 0.05600
H 	H 	0.37190 0.43880 0.20710 0.07500
H 	H 	0.75740 0.84670 0.91520 0.12300
Zn	Zn	0.03039 0.96891 0.36171 1.21100
O 	O 	0.08097 0.00863 0.33131 -0.51500
O 	O 	0.08217 0.07373 0.33262 -0.53800
O 	O 	0.05937 0.95583 0.40082 -0.51400
C 	C 	0.09617 0.04933 0.32343 0.43100
C 	C 	0.06007 0.96493 0.43363 0.43900
O 	O 	0.03827 0.98103 0.44764 -0.52000
C 	C 	0.13567 0.06593 0.29833 -0.18600
C 	C 	0.08677 0.95523 0.45773 -0.26600
C 	C 	0.15447 0.10973 0.28633 0.10200
C 	C 	0.15317 0.04063 0.28723 0.12900
C 	C 	0.11537 0.94133 0.44593 0.19900
C 	C 	0.08487 0.95873 0.49213 0.20300
H 	H 	0.14247 0.12723 0.29343 0.00300
C 	C 	0.19157 0.12743 0.26313 -0.21000
C 	C 	0.18867 0.05953 0.26473 -0.22300
H 	H 	0.14127 0.01133 0.29463 -0.00800
H 	H 	0.12047 0.94093 0.42183 -0.03000
C 	C 	0.13657 0.92783 0.46953 -0.30600
C 	C 	0.10847 0.94713 0.51543 -0.28300
H 	H 	0.06717 0.96943 0.50133 -0.01800
H 	H 	0.20437 0.15683 0.25563 0.09600
C 	C 	0.20837 0.10213 0.25213 0.17200
H 	H 	0.20037 0.04193 0.25733 0.09700
H 	H 	0.15337 0.91603 0.46053 0.13200
C 	C 	0.13457 0.93053 0.50363 0.24500
H 	H 	0.10637 0.95063 0.53953 0.12400
C 	C 	0.24587 0.12233 0.22593 -0.17800
C 	C 	0.15567 0.91313 0.52653 -0.18400
C 	C 	0.28817 0.13533 0.23863 0.08900
C 	C 	0.23677 0.12653 0.19153 0.12600
C 	C 	0.19807 0.93893 0.53903 0.08600
C 	C 	0.12847 0.86923 0.53743 0.07300
N 	N 	0.32697 0.15313 0.21813 -0.30900
C 	C 	0.29997 0.13083 0.27563 -0.07200
N 	N 	0.26657 0.14373 0.16553 -0.30300
C 	C 	0.19437 0.11283 0.17903 -0.09700
C 	C 	0.22597 0.98783 0.53013 0.00100
N 	N 	0.22177 0.92803 0.56123 -0.29700
N 	N 	0.14017 0.84333 0.55983 -0.30300
C 	C 	0.08097 0.83603 0.52733 -0.04100
C 	C 	0.35917 0.15803 0.23983 0.14100
C 	C 	0.34467 0.14643 0.27663 -0.12100
H 	H 	0.28037 0.11943 0.29453 0.04500
C 	C 	0.24297 0.14113 0.13433 0.14400
H 	H 	0.16817 0.09933 0.19203 0.06800
C 	C 	0.19817 0.12263 0.14423 -0.11000
C 	C 	0.26587 0.00113 0.54303 -0.17700
H 	H 	0.21667 0.00503 0.51803 0.01700
C 	C 	0.26327 0.96383 0.56543 0.16100
C 	C 	0.10247 0.80313 0.56293 0.16800
C 	C 	0.06647 0.79743 0.54263 -0.15300
H 	H 	0.06397 0.84243 0.51203 0.04300
C 	C 	0.40487 0.17743 0.23043 -0.27900
H 	H 	0.36207 0.14913 0.29623 0.06500
H 	H 	0.17497 0.11803 0.12933 0.06800
H 	H 	0.29117 0.02863 0.53913 0.08000
H 	H 	0.03857 0.77213 0.54043 0.07300
H 	H 	0.42407 0.18003 0.24853 0.12300
Zn	Zn	0.69705 0.30225 0.69505 1.20900
O 	O 	0.74763 0.34197 0.66465 -0.50700
O 	O 	0.74883 0.40707 0.66596 -0.53500
O 	O 	0.72603 0.28917 0.73416 -0.51700
C 	C 	0.76283 0.38267 0.65677 0.43000
C 	C 	0.72673 0.29827 0.76697 0.44100
O 	O 	0.70493 0.31437 0.78098 -0.52500
C 	C 	0.80233 0.39927 0.63167 -0.18200
C 	C 	0.75343 0.28857 0.79107 -0.27300
C 	C 	0.82113 0.44307 0.61967 0.10100
C 	C 	0.81983 0.37397 0.62057 0.12900
C 	C 	0.78203 0.27467 0.77927 0.20500
C 	C 	0.75153 0.29207 0.82547 0.21000
H 	H 	0.80913 0.46057 0.62677 0.00400
C 	C 	0.85823 0.46077 0.59647 -0.20800
C 	C 	0.85533 0.39287 0.59807 -0.22100
H 	H 	0.80793 0.34467 0.62797 -0.00400
H 	H 	0.78713 0.27427 0.75517 -0.03400
C 	C 	0.80323 0.26117 0.80287 -0.31600
C 	C 	0.77513 0.28047 0.84877 -0.29300
H 	H 	0.73383 0.30277 0.83467 -0.02200
H 	H 	0.87103 0.49017 0.58897 0.09600
C 	C 	0.87503 0.43547 0.58547 0.17100
H 	H 	0.86703 0.37527 0.59067 0.10000
H 	H 	0.82003 0.24937 0.79387 0.13400
C 	C 	0.80123 0.26387 0.83697 0.25400
H 	H 	0.77303 0.28397 0.87287 0.12600
C 	C 	0.91253 0.45567 0.55927 -0.17500
C 	C 	0.82233 0.24647 0.85987 -0.19700
C 	C 	0.95483 0.46867 0.57197 0.08700
C 	C 	0.90343 0.45987 0.52487 0.12600
C 	C 	0.86473 0.27227 0.87237 0.10800
C 	C 	0.79513 0.20257 0.87077 0.07800
N 	N 	0.99363 0.48647 0.55147 -0.30300
C 	C 	0.96663 0.46417 0.60897 -0.05600
N 	N 	0.93323 0.47707 0.49887 -0.30100
C 	C 	0.86103 0.44617 0.51237 -0.09500
C 	C 	0.89263 0.32117 0.86347 -0.07800
N 	N 	0.88843 0.26137 0.89457 -0.29700
N 	N 	0.80683 0.17667 0.89317 -0.30400
C 	C 	0.74763 0.16937 0.86067 -0.04300
C 	C 	0.02583 0.49137 0.57317 0.13700
C 	C 	0.01133 0.47977 0.60997 -0.13400
H 	H 	0.94703 0.45277 0.62787 0.04200
C 	C 	0.90963 0.47447 0.46767 0.14600
H 	H 	0.83483 0.43267 0.52537 0.06900
C 	C 	0.86483 0.45597 0.47757 -0.11000
C 	C 	0.93253 0.33447 0.87637 -0.10300
H 	H 	0.88333 0.33837 0.85137 0.05400
C 	C 	0.92993 0.29717 0.89877 0.13300
C 	C 	0.76913 0.13647 0.89627 0.16800
C 	C 	0.73313 0.13077 0.87597 -0.15100
H 	H 	0.73063 0.17577 0.84537 0.04400
C 	C 	0.07153 0.51077 0.56377 -0.27800
H 	H 	0.02873 0.48247 0.62957 0.06900
H 	H 	0.84163 0.45137 0.46267 0.06900
H 	H 	0.95783 0.36197 0.87247 0.05900
H 	H 	0.70523 0.10547 0.87377 0.07400
H 	H 	0.09073 0.51337 0.58187 0.12200
Zn	Zn	0.27186 0.63628 0.02838 1.20700
O 	O 	0.26100 0.58570 0.99798 -0.50500
O 	O 	0.32490 0.58450 0.99929 -0.53300
O 	O 	0.22980 0.60730 0.06749 -0.51900
C 	C 	0.28650 0.57050 0.99010 0.43000
C 	C 	0.23820 0.60660 0.10030 0.44100
O 	O 	0.27610 0.62840 0.11431 -0.52500
C 	C 	0.26360 0.53100 0.96500 -0.18100
C 	C 	0.20180 0.57990 0.12440 -0.27400
C 	C 	0.28860 0.51220 0.95300 0.10100
C 	C 	0.22080 0.51350 0.95390 0.12800
C 	C 	0.15930 0.55130 0.11260 0.20600
C 	C 	0.20720 0.58180 0.15880 0.21100
H 	H 	0.31810 0.52420 0.96010 0.00400
C 	C 	0.26920 0.47510 0.92980 -0.20800
C 	C 	0.20420 0.47800 0.93140 -0.22000
H 	H 	0.20340 0.52540 0.96130 -0.00300
H 	H 	0.15380 0.54620 0.08850 -0.03500
C 	C 	0.12460 0.53010 0.13620 -0.31600
C 	C 	0.17200 0.55820 0.18210 -0.29400
H 	H 	0.23560 0.59950 0.16800 -0.02200
H 	H 	0.28580 0.46230 0.92230 0.09500
C 	C 	0.22710 0.45830 0.91880 0.17100
H 	H 	0.17490 0.46630 0.92400 0.09900
H 	H 	0.09600 0.51330 0.12720 0.13300
C 	C 	0.12930 0.53210 0.17030 0.25500
H 	H 	0.17760 0.56030 0.20620 0.12600
C 	C 	0.20980 0.42080 0.89260 -0.17700
C 	C 	0.09080 0.51100 0.19320 -0.19900
C 	C 	0.18050 0.37850 0.90530 0.09000
C 	C 	0.22310 0.42990 0.85820 0.12600
C 	C 	0.07420 0.46860 0.20570 0.10700
C 	C 	0.07410 0.53820 0.20410 0.07900
N 	N 	0.15950 0.33970 0.88480 -0.30900
C 	C 	0.16420 0.36670 0.94230 -0.07100
N 	N 	0.21050 0.40010 0.83220 -0.30300
C 	C 	0.25180 0.47230 0.84570 -0.09600
C 	C 	0.09520 0.44070 0.19680 -0.07900
N 	N 	0.03960 0.44490 0.22790 -0.29900
N 	N 	0.03650 0.52650 0.22650 -0.30300
C 	C 	0.08840 0.58570 0.19400 -0.05100
C 	C 	0.13220 0.30750 0.90650 0.14100
C 	C 	0.13510 0.32200 0.94330 -0.12100
H 	H 	0.17240 0.38630 0.96120 0.04600
C 	C 	0.23150 0.42370 0.80100 0.14500
H 	H 	0.26450 0.49850 0.85870 0.07000
C 	C 	0.25780 0.46850 0.81090 -0.10900
C 	C 	0.06860 0.40080 0.20970 -0.10300
H 	H 	0.12170 0.45000 0.18470 0.05400
C 	C 	0.03390 0.40340 0.23210 0.13100
C 	C 	0.03400 0.56420 0.22960 0.14700
C 	C 	0.06430 0.60020 0.20930 -0.13700
H 	H 	0.11180 0.60270 0.17870 0.04600
C 	C 	0.10590 0.26180 0.89710 -0.27900
H 	H 	0.12040 0.30460 0.96290 0.06600
H 	H 	0.27640 0.49170 0.79600 0.06800
H 	H 	0.07080 0.37550 0.20580 0.05700
H 	H 	0.06690 0.62810 0.20710 0.06900
H 	H 	0.08930 0.24260 0.91520 0.12200
Zn	Zn	0.93853 0.96961 0.36171 1.21400
O 	O 	0.92767 0.91903 0.33131 -0.50300
O 	O 	0.99157 0.91783 0.33262 -0.52800
O 	O 	0.89647 0.94063 0.40082 -0.51300
C 	C 	0.95317 0.90383 0.32343 0.42900
C 	C 	0.90487 0.93993 0.43363 0.44000
O 	O 	0.94277 0.96173 0.44764 -0.51600
C 	C 	0.93027 0.86433 0.29833 -0.18000
C 	C 	0.86847 0.91323 0.45773 -0.26900
C 	C 	0.95527 0.84553 0.28633 0.10100
C 	C 	0.88747 0.84683 0.28723 0.12800
C 	C 	0.82597 0.88463 0.44593 0.20300
C 	C 	0.87387 0.91513 0.49213 0.20800
H 	H 	0.98477 0.85753 0.29343 0.00700
C 	C 	0.93587 0.80843 0.26313 -0.20700
C 	C 	0.87087 0.81133 0.26473 -0.22000
H 	H 	0.87007 0.85873 0.29463 -0.00300
H 	H 	0.82047 0.87953 0.42183 -0.03300
C 	C 	0.79127 0.86343 0.46953 -0.31300
C 	C 	0.83867 0.89153 0.51543 -0.29000
H 	H 	0.90227 0.93283 0.50133 -0.01900
H 	H 	0.95247 0.79563 0.25563 0.09600
C 	C 	0.89377 0.79163 0.25213 0.17100
H 	H 	0.84157 0.79963 0.25733 0.09900
H 	H 	0.76267 0.84663 0.46053 0.13300
C 	C 	0.79597 0.86543 0.50363 0.25200
H 	H 	0.84427 0.89363 0.53953 0.12600
C 	C 	0.87647 0.75413 0.22593 -0.17700
C 	C 	0.75747 0.84433 0.52653 -0.19600
C 	C 	0.84717 0.71183 0.23863 0.09000
C 	C 	0.88977 0.76323 0.19153 0.12700
C 	C 	0.74087 0.80193 0.53903 0.10700
C 	C 	0.74077 0.87153 0.53743 0.07700
N 	N 	0.82617 0.67303 0.21813 -0.30900
C 	C 	0.83087 0.70003 0.27563 -0.07100
N 	N 	0.87717 0.73343 0.16553 -0.30300
C 	C 	0.91847 0.80563 0.17903 -0.09600
C 	C 	0.76187 0.77403 0.53013 -0.08000
N 	N 	0.70627 0.77823 0.56123 -0.29600
N 	N 	0.70317 0.85983 0.55983 -0.30400
C 	C 	0.75507 0.91903 0.52733 -0.04100
C 	C 	0.79887 0.64083 0.23983 0.14100
C 	C 	0.80177 0.65533 0.27663 -0.12100
H 	H 	0.83907 0.71963 0.29453 0.04600
C 	C 	0.89817 0.75703 0.13433 0.14600
H 	H 	0.93117 0.83183 0.19203 0.07100
C 	C 	0.92447 0.80183 0.14423 -0.10900
C 	C 	0.73527 0.73413 0.54303 -0.10000
H 	H 	0.78837 0.78333 0.51803 0.05500
C 	C 	0.70057 0.73673 0.56543 0.12700
C 	C 	0.70067 0.89753 0.56293 0.17100
C 	C 	0.73097 0.93353 0.54263 -0.15300
H 	H 	0.77847 0.93603 0.51203 0.04400
C 	C 	0.77257 0.59513 0.23043 -0.27900
H 	H 	0.78707 0.63793 0.29623 0.06500
H 	H 	0.94307 0.82503 0.12933 0.07000
H 	H 	0.73747 0.70883 0.53913 0.05600
H 	H 	0.73357 0.96143 0.54043 0.07800
H 	H 	0.75597 0.57593 0.24853 0.12300
Zn	Zn	0.60519 0.30295 0.69505 1.20900
O 	O 	0.59433 0.25237 0.66465 -0.50700
O 	O 	0.65823 0.25117 0.66596 -0.53500
O 	O 	0.56313 0.27397 0.73416 -0.51700
C 	C 	0.61983 0.23717 0.65677 0.43000
C 	C 	0.57153 0.27327 0.76697 0.44100
O 	O 	0.60943 0.29507 0.78098 -0.52500
C 	C 	0.59693 0.19767 0.63167 -0.18300
C 	C 	0.53513 0.24657 0.79107 -0.27300
C 	C 	0.62193 0.17887 0.61967 0.10200
C 	C 	0.55413 0.18017 0.62057 0.12900
C 	C 	0.49263 0.21797 0.77927 0.20500
C 	C 	0.54053 0.24847 0.82547 0.21000
H 	H 	0.65143 0.19087 0.62677 0.00300
C 	C 	0.60253 0.14177 0.59647 -0.21000
C 	C 	0.53753 0.14467 0.59807 -0.22200
H 	H 	0.53673 0.19207 0.62797 -0.00400
H 	H 	0.48713 0.21287 0.75517 -0.03500
C 	C 	0.45793 0.19677 0.80287 -0.31600
C 	C 	0.50533 0.22487 0.84877 -0.29300
H 	H 	0.56893 0.26617 0.83467 -0.02200
H 	H 	0.61913 0.12897 0.58897 0.09500
C 	C 	0.56043 0.12497 0.58547 0.17300
H 	H 	0.50823 0.13297 0.59067 0.09900
H 	H 	0.42933 0.17997 0.79387 0.13400
C 	C 	0.46263 0.19877 0.83697 0.25400
H 	H 	0.51093 0.22697 0.87287 0.12600
C 	C 	0.54313 0.08747 0.55927 -0.18100
C 	C 	0.42413 0.17767 0.85987 -0.19800
C 	C 	0.51383 0.04517 0.57197 0.09400
C 	C 	0.55643 0.09657 0.52487 0.12800
C 	C 	0.40753 0.13527 0.87237 0.10800
C 	C 	0.40743 0.20487 0.87077 0.07800
N 	N 	0.49283 0.00637 0.55147 -0.31700
C 	C 	0.49753 0.03337 0.60897 -0.09700
N 	N 	0.54383 0.06677 0.49887 -0.30400
C 	C 	0.58513 0.13897 0.51237 -0.09800
C 	C 	0.42853 0.10737 0.86347 -0.08300
N 	N 	0.37293 0.11157 0.89457 -0.29500
N 	N 	0.36983 0.19317 0.89317 -0.30400
C 	C 	0.42173 0.25237 0.86067 -0.04300
C 	C 	0.46553 0.97417 0.57317 0.14700
C 	C 	0.46843 0.98867 0.60997 -0.09800
H 	H 	0.50573 0.05297 0.62787 0.05200
C 	C 	0.56483 0.09037 0.46767 0.14200
H 	H 	0.59783 0.16517 0.52537 0.07000
C 	C 	0.59113 0.13517 0.47757 -0.10700
C 	C 	0.40193 0.06747 0.87637 -0.09500
H 	H 	0.45503 0.11667 0.85137 0.05600
C 	C 	0.36723 0.07007 0.89877 0.11800
C 	C 	0.36733 0.23087 0.89627 0.16900
C 	C 	0.39763 0.26687 0.87597 -0.15100
H 	H 	0.44513 0.26937 0.84537 0.04400
C 	C 	0.43923 0.92847 0.56377 -0.28000
H 	H 	0.45373 0.97127 0.62957 0.05900
H 	H 	0.60973 0.15837 0.46267 0.06800
H 	H 	0.40413 0.04217 0.87247 0.05300
H 	H 	0.40023 0.29477 0.87377 0.07500
H 	H 	0.42263 0.90927 0.58187 0.12300
O 	O 	0.33333 0.66667 0.54390 -0.97200
Zn	Zn	0.33333 0.66667 0.59474 1.21700
O 	O 	0.00000 0.00000 0.87723 -0.98400
Zn	Zn	0.00000 0.00000 0.92807 1.21100
O 	O 	0.66667 0.33333 0.21057 -0.97200
Zn	Zn	0.66667 0.33333 0.26141 1.21700
O 	O 	0.66667 0.33333 0.95610 -0.97000
Zn	Zn	0.66667 0.33333 0.90526 1.21700
O 	O 	0.33333 0.66667 0.28943 -0.97200
Zn	Zn	0.33333 0.66667 0.23859 1.21700
O 	O 	0.00000 0.00000 0.62277 -0.98400
Zn	Zn	-0.00000 0.00000 0.57193 1.21200
O 	O 	0.66667 0.33333 0.45610 -0.97200
Zn	Zn	0.66667 0.33333 0.40526 1.21700
O 	O 	0.33333 0.66667 0.78943 -0.97200
Zn	Zn	0.33333 0.66667 0.73859 1.21700
O 	O 	0.00000 0.00000 0.12277 -0.98400
Zn	Zn	0.00000 0.00000 0.07193 1.21100
O 	O 	0.33333 0.66667 0.04390 -0.97400
Zn	Zn	0.33333 0.66667 0.09474 1.21600
O 	O 	-0.00000 0.00000 0.37723 -0.98400
Zn	Zn	0.00000 0.00000 0.42807 1.21100
O 	O 	0.66667 0.33333 0.71057 -0.97200
Zn	Zn	0.66667 0.33333 0.76141 1.21700
Zn	Zn	0.16667 0.83333 0.33333 1.16800
Zn	Zn	0.16667 0.33333 0.33333 1.16800
Zn	Zn	0.66667 0.83333 0.33333 1.16800
Zn	Zn	0.83333 0.16667 0.16667 1.16800
Zn	Zn	0.50000 0.50000 0.50000 1.16800
Zn	Zn	0.33333 0.16667 0.16667 1.16800
Zn	Zn	0.00000 0.50000 0.50000 1.16500
Zn	Zn	0.83333 0.66667 0.16667 1.16800
Zn	Zn	0.50000 0.00000 0.50000 1.16400
Zn	Zn	0.83333 0.16667 0.66667 1.16800
Zn	Zn	0.50000 0.50000 -0.00000 1.16600
Zn	Zn	0.83333 0.66667 0.66667 1.16800
Zn	Zn	0.50000 0.00000 -0.00000 1.16200
Zn	Zn	0.33333 0.16667 0.66667 1.16800
Zn	Zn	-0.00000 0.50000 -0.00000 1.16400
Zn	Zn	0.16667 0.83333 0.83333 1.16800
Zn	Zn	0.66667 0.83333 0.83333 1.16800
Zn	Zn	0.16667 0.33333 0.83333 1.16800
Zn	Zn	1.00000 0.53267 0.75000 1.16900
C 	C 	-0.00000 0.63140 0.75000 -0.27700
C 	C 	-0.00000 0.43720 0.75000 -0.30900
H 	H 	-0.00000 0.65820 0.75000 0.11100
H 	H 	0.00000 0.41040 0.75000 0.12200
Zn	Zn	0.66667 0.86600 0.08333 1.16600
C 	C 	0.66667 0.96473 0.08333 -0.28000
C 	C 	0.66667 0.77053 0.08333 -0.29300
H 	H 	0.66667 0.99153 0.08333 0.11900
H 	H 	0.66667 0.74373 0.08333 0.11900
Zn	Zn	0.33333 0.19934 0.41667 1.16600
C 	C 	0.33333 0.29807 0.41667 -0.26100
C 	C 	0.33333 0.10387 0.41667 -0.29200
H 	H 	0.33333 0.32487 0.41667 0.10800
H 	H 	0.33333 0.07707 0.41667 0.11700
Zn	Zn	0.46733 0.46733 0.75000 1.16600
C 	C 	0.36860 0.36860 0.75000 -0.26100
C 	C 	0.56280 0.56280 0.75000 -0.29300
H 	H 	0.34180 0.34180 0.75000 0.10800
H 	H 	0.58960 0.58960 0.75000 0.11900
Zn	Zn	0.13400 0.80066 0.08333 1.16600
C 	C 	0.03527 0.70193 0.08333 -0.24900
C 	C 	0.22947 0.89613 0.08333 -0.29400
H 	H 	0.00847 0.67513 0.08333 0.10100
H 	H 	0.25627 0.92293 0.08333 0.12100
Zn	Zn	0.80066 0.13400 0.41667 1.16600
C 	C 	0.70193 0.03527 0.41667 -0.24100
C 	C 	0.89613 0.22947 0.41667 -0.29300
H 	H 	0.67513 0.00847 0.41667 0.09800
H 	H 	0.92293 0.25627 0.41667 0.12000
Zn	Zn	0.53267 0.00000 0.75000 1.16200
C 	C 	0.63140 0.00000 0.75000 -0.28700
C 	C 	0.43720 0.00000 0.75000 -0.31900
H 	H 	0.65820 0.00000 0.75000 0.11300
H 	H 	0.41040 0.00000 0.75000 0.12300
Zn	Zn	0.19934 0.33333 0.08333 1.16600
C 	C 	0.29807 0.33333 0.08333 -0.26100
C 	C 	0.10387 0.33333 0.08333 -0.29200
H 	H 	0.32487 0.33333 0.08333 0.10800
H 	H 	0.07707 0.33333 0.08333 0.11700
Zn	Zn	0.86600 0.66667 0.41667 1.16600
C 	C 	0.96473 0.66667 0.41667 -0.27300
C 	C 	0.77053 0.66667 0.41667 -0.29300
H 	H 	0.99153 0.66667 0.41667 0.11500
H 	H 	0.74373 0.66667 0.41667 0.11900
Zn	Zn	0.00000 0.46733 0.25000 1.16300
C 	C 	0.00000 0.36860 0.25000 -0.27700
C 	C 	1.00000 0.56280 0.25000 -0.25500
H 	H 	0.00000 0.34180 0.25000 0.11100
H 	H 	-0.00000 0.58960 0.25000 0.10100
Zn	Zn	0.66667 0.80066 0.58333 1.16600
C 	C 	0.66667 0.70193 0.58333 -0.26100
C 	C 	0.66667 0.89613 0.58333 -0.29400
H 	H 	0.66667 0.67513 0.58333 0.10800
H 	H 	0.66667 0.92293 0.58333 0.12100
Zn	Zn	0.33333 0.13400 0.91667 1.16600
C 	C 	0.33333 0.03527 0.91667 -0.24100
C 	C 	0.33333 0.22947 0.91667 -0.29200
H 	H 	0.33333 0.00847 0.91667 0.09800
H 	H 	0.33333 0.25627 0.91667 0.11900
Zn	Zn	0.53267 0.53267 0.25000 1.16600
C 	C 	0.63140 0.63140 0.25000 -0.26100
C 	C 	0.43720 0.43720 0.25000 -0.29300
H 	H 	0.65820 0.65820 0.25000 0.10800
H 	H 	0.41040 0.41040 0.25000 0.11900
Zn	Zn	0.19934 0.86600 0.58333 1.16600
C 	C 	0.29807 0.96473 0.58333 -0.28100
C 	C 	0.10387 0.77053 0.58333 -0.29300
H 	H 	0.32487 0.99153 0.58333 0.12000
H 	H 	0.07707 0.74373 0.58333 0.11800
Zn	Zn	0.86600 0.19934 0.91667 1.16600
C 	C 	0.96473 0.29807 0.91667 -0.27300
C 	C 	0.77053 0.10387 0.91667 -0.29200
H 	H 	0.99153 0.32487 0.91667 0.11500
H 	H 	0.74373 0.07707 0.91667 0.11800
Zn	Zn	0.46733 0.00000 0.25000 1.16200
C 	C 	0.36860 0.00000 0.25000 -0.28700
C 	C 	0.56280 0.00000 0.25000 -0.31900
H 	H 	0.34180 0.00000 0.25000 0.11300
H 	H 	0.58960 0.00000 0.25000 0.12300
Zn	Zn	0.13400 0.33333 0.58333 1.16600
C 	C 	0.03527 0.33333 0.58333 -0.24900
C 	C 	0.22947 0.33333 0.58333 -0.29300
H 	H 	0.00847 0.33333 0.58333 0.10200
H 	H 	0.25627 0.33333 0.58333 0.11900
Zn	Zn	0.80066 0.66667 0.91667 1.16600
C 	C 	0.70193 0.66667 0.91667 -0.26100
C 	C 	0.89613 0.66667 0.91667 -0.29300
H 	H 	0.67513 0.66667 0.91667 0.10900
H 	H 	0.92293 0.66667 0.91667 0.12100
