data_crystal

_cell_length_a 13.16030
_cell_length_b 33.40720
_cell_length_c 42.25300
_cell_angle_alpha 90.00000
_cell_angle_beta  98.11100
_cell_angle_gamma 90.00000

_symmetry_space_group_name_	'P 1'
_symmetry_space_group_name_H-M	'P 1'

loop_
_symmetry_equiv_pos_as_xyz
  x,y,z

loop_
_atom_site_label
_atom_site_type_symbol
_atom_site_fract_x
_atom_site_fract_y
_atom_site_fract_z
_atom_site_charge
Er	Er	0.60319 0.68083 0.11831 2.04900
Er	Er	0.76954 0.56346 0.13381 1.88900
Er	Er	0.84722 0.43120 0.10492 1.93500
Er	Er	0.97964 0.30415 0.13397 2.09300
O 	O 	0.71100 0.59455 0.17828 -0.48000
O 	O 	0.70990 0.65666 0.15914 -0.55900
O 	O 	0.50700 0.69526 0.34791 -0.56700
O 	O 	0.54190 0.75628 0.33072 -0.55800
O 	O 	0.77780 0.61107 0.09709 -0.57400
O 	O 	0.70080 0.66726 0.08073 -0.58200
O 	O 	0.05280 0.60818 0.92202 -0.59200
O 	O 	0.97130 0.66355 0.90708 -0.61000
O 	O 	0.91820 0.54131 0.11830 -0.56900
O 	O 	0.95400 0.48200 0.10079 -0.60000
O 	O 	0.59250 0.55933 0.12524 -0.52000
O 	O 	0.53610 0.62104 0.11265 -0.58100
O 	O 	0.78260 0.51369 0.16922 -0.54800
O 	O 	0.79590 0.45261 0.15095 -0.54400
O 	O 	0.01840 0.41671 0.35535 -0.52100
O 	O 	0.99030 0.35590 0.33464 -0.57700
O 	O 	0.71500 0.52510 0.08930 -0.50600
O 	O 	0.69140 0.45940 0.08908 -0.53900
O 	O 	0.43700 0.75873 0.09644 -0.60500
O 	O 	0.49100 0.70377 0.07659 -0.54800
O 	O 	0.75210 0.37784 0.11388 -0.56800
O 	O 	0.81550 0.31893 0.13065 -0.59200
O 	O 	0.14930 0.29607 0.14530 -0.58900
O 	O 	0.19100 0.23713 0.12708 -0.59500
S 	S 	0.65650 0.61046 0.24060 0.04300
S 	S 	0.58670 0.64723 0.30205 0.04600
S 	S 	0.87840 0.59321 0.04296 0.05400
S 	S 	0.97340 0.59172 0.97924 0.02900
S 	S 	0.09916 0.58215 0.11019 0.04200
S 	S 	0.32579 0.61043 0.11186 0.05000
S 	S 	0.85030 0.49940 0.23583 0.01700
S 	S 	0.92870 0.46500 0.30351 0.01100
S 	S 	0.54800 0.45130 0.03410 0.02000
S 	S 	0.36310 0.70190 0.01620 0.03400
S 	S 	0.63183 0.27670 0.13305 0.05500
S 	S 	0.40838 0.24656 0.13604 0.04100
C 	C 	0.70580 0.63160 0.18170 0.46500
C 	C 	0.54440 0.71880 0.32925 0.53900
C 	C 	0.68840 0.64740 0.21322 -0.19100
C 	C 	0.69010 0.68720 0.22340 0.18100
C 	C 	0.65430 0.68650 0.25542 -0.09700
C 	C 	0.63460 0.64890 0.26610 0.00600
C 	C 	0.59060 0.69970 0.30278 -0.20300
C 	C 	0.62820 0.71980 0.27720 0.19200
C 	C 	0.71510 0.71660 0.21011 -0.19200
H 	H 	0.73450 0.73930 0.19980 0.10500
C 	C 	0.63560 0.75470 0.27300 -0.19200
H 	H 	0.64140 0.78210 0.26960 0.11300
C 	C 	0.75700 0.63820 0.07686 0.58300
C 	C 	0.98990 0.63410 0.92560 0.61200
C 	C 	0.79990 0.63440 0.04658 -0.30000
C 	C 	0.78890 0.65900 0.02020 0.37200
C 	C 	0.84760 0.64400 0.99610 -0.27000
C 	C 	0.89920 0.60920 0.00592 0.04600
C 	C 	0.93780 0.63250 0.95406 -0.32600
C 	C 	0.87000 0.65720 0.96560 0.37800
C 	C 	0.71860 0.69430 0.01570 -0.87800
H 	H 	0.65300 0.68710 0.02140 0.29700
H 	H 	0.71040 0.70260 0.99370 0.26500
H 	H 	0.74730 0.71590 0.02900 0.27600
C 	C 	0.82870 0.69480 0.94920 -0.86300
H 	H 	0.84470 0.69510 0.92770 0.28500
H 	H 	0.85930 0.71770 0.96060 0.26700
H 	H 	0.75560 0.69580 0.94870 0.26000
C 	C 	0.97670 0.51650 0.10904 0.61600
C 	C 	0.52180 0.58400 0.11723 0.56000
C 	C 	0.08340 0.53070 0.10810 -0.30400
C 	C 	0.17420 0.50990 0.10850 0.37600
C 	C 	0.25980 0.53690 0.11037 -0.26700
C 	C 	0.22800 0.57640 0.11020 0.04700
C 	C 	0.41470 0.57100 0.11380 -0.29200
C 	C 	0.36940 0.53380 0.11208 0.36900
C 	C 	0.18290 0.46510 0.10830 -0.89000
H 	H 	0.11650 0.45350 0.10880 0.30500
H 	H 	0.22890 0.45660 0.12680 0.27300
H 	H 	0.20900 0.45670 0.08930 0.27800
C 	C 	0.42740 0.49490 0.11230 -0.87500
H 	H 	0.40270 0.47990 0.09340 0.27400
H 	H 	0.41710 0.47960 0.13090 0.26700
H 	H 	0.49920 0.50030 0.11280 0.30200
C 	C 	0.79470 0.47670 0.17284 0.55100
C 	C 	0.98190 0.39330 0.33350 0.52700
C 	C 	0.81290 0.46120 0.20654 -0.21400
C 	C 	0.80970 0.42380 0.21860 0.10600
C 	C 	0.85580 0.41620 0.24920 -0.06000
C 	C 	0.87210 0.45650 0.26200 -0.05700
C 	C 	0.92750 0.41090 0.30300 -0.20600
C 	C 	0.87350 0.39320 0.27660 0.09600
C 	C 	0.78500 0.38880 0.19970 -0.04500
C 	C 	0.87100 0.35010 0.27160 -0.03300
C 	C 	0.67270 0.49390 0.07880 0.48700
C 	C 	0.60140 0.49590 0.04770 -0.18400
C 	C 	0.57200 0.52940 0.02890 0.05900
C 	C 	0.49020 0.47820 0.00120 -0.04400
C 	C 	0.59700 0.57310 0.03230 -0.04200
C 	C 	0.43380 0.73420 0.07470 0.55400
C 	C 	0.36290 0.73900 0.04470 -0.21200
C 	C 	0.29400 0.77060 0.03680 0.06700
C 	C 	0.26930 0.73120 0.99390 -0.04600
C 	C 	0.26600 0.80840 0.05400 -0.05800
C 	C 	0.74310 0.34290 0.12470 0.59700
C 	C 	0.21230 0.27250 0.13630 0.57500
C 	C 	0.64010 0.32890 0.12930 -0.31400
C 	C 	0.55000 0.34790 0.13060 0.39200
C 	C 	0.47010 0.32000 0.13370 -0.27100
C 	C 	0.50400 0.28090 0.13500 0.04600
C 	C 	0.31880 0.28430 0.13680 -0.29900
C 	C 	0.36090 0.32290 0.13590 0.35600
C 	C 	0.53680 0.39260 0.12950 -0.91200
H 	H 	0.60160 0.40520 0.13650 0.31300
H 	H 	0.48840 0.40030 0.14340 0.27800
H 	H 	0.51190 0.40070 0.10800 0.29100
C 	C 	0.30010 0.36070 0.13590 -0.87500
H 	H 	0.22830 0.35470 0.13080 0.29000
H 	H 	0.32000 0.37870 0.12020 0.26200
H 	H 	0.31300 0.37290 0.15660 0.27600
S 	S 	0.29180 0.78600 0.04680 0.02100
C 	C 	0.34400 0.71650 0.01740 0.06400
C 	C 	0.39300 0.67810 0.01070 -0.05800
S 	S 	0.59090 0.54570 0.03260 0.01700
C 	C 	0.54600 0.46650 0.03000 0.05400
C 	C 	0.54600 0.42250 0.03760 -0.06500
S 	S 	0.81530 0.40710 0.20621 -0.00500
S 	S 	0.89560 0.37240 0.27319 -0.00400
C 	C 	0.83200 0.47890 0.23560 0.09000
C 	C 	0.90700 0.44920 0.29350 0.09000
C 	C 	0.85000 0.52090 0.23900 -0.04500
C 	C 	0.93100 0.48550 0.31150 -0.05600
Er	Er	0.10319 0.18083 0.11831 2.04800
Er	Er	0.26954 0.06346 0.13381 1.88800
Er	Er	0.34722 0.93120 0.10492 1.93400
Er	Er	0.47964 0.80415 0.13397 2.09200
O 	O 	0.21100 0.09455 0.17828 -0.48100
O 	O 	0.20990 0.15666 0.15914 -0.56000
O 	O 	0.00700 0.19526 0.34791 -0.56800
O 	O 	0.04190 0.25628 0.33072 -0.55900
O 	O 	0.27780 0.11107 0.09709 -0.57400
O 	O 	0.20080 0.16726 0.08073 -0.58200
O 	O 	0.55280 0.10818 0.92202 -0.59200
O 	O 	0.47130 0.16355 0.90708 -0.61000
O 	O 	0.41820 0.04131 0.11830 -0.56900
O 	O 	0.45400 0.98200 0.10079 -0.60000
O 	O 	0.09250 0.05933 0.12524 -0.52000
O 	O 	0.03610 0.12104 0.11265 -0.58100
O 	O 	0.28260 0.01369 0.16922 -0.54800
O 	O 	0.29590 0.95261 0.15095 -0.54400
O 	O 	0.51840 0.91671 0.35535 -0.52100
O 	O 	0.49030 0.85590 0.33464 -0.57700
O 	O 	0.21500 0.02510 0.08930 -0.50600
O 	O 	0.19140 0.95940 0.08908 -0.53900
O 	O 	0.93700 0.25873 0.09644 -0.60500
O 	O 	0.99100 0.20377 0.07659 -0.54800
O 	O 	0.25210 0.87784 0.11388 -0.56800
O 	O 	0.31550 0.81893 0.13065 -0.59200
O 	O 	0.64930 0.79607 0.14530 -0.58900
O 	O 	0.69100 0.73713 0.12708 -0.59500
S 	S 	0.15650 0.11046 0.24060 0.04300
S 	S 	0.08670 0.14723 0.30205 0.04600
S 	S 	0.37840 0.09321 0.04296 0.05400
S 	S 	0.47340 0.09172 0.97924 0.02900
S 	S 	0.59916 0.08215 0.11019 0.04200
S 	S 	0.82579 0.11043 0.11186 0.05000
S 	S 	0.35030 0.99940 0.23583 0.01700
S 	S 	0.42870 0.96500 0.30351 0.01100
S 	S 	0.04800 0.95130 0.03410 0.02000
S 	S 	0.86310 0.20190 0.01620 0.03400
S 	S 	0.13183 0.77670 0.13305 0.05500
S 	S 	0.90838 0.74656 0.13604 0.04100
C 	C 	0.20580 0.13160 0.18170 0.46500
C 	C 	0.04440 0.21880 0.32925 0.53900
C 	C 	0.18840 0.14740 0.21322 -0.19100
C 	C 	0.19010 0.18720 0.22340 0.18100
C 	C 	0.15430 0.18650 0.25542 -0.09700
C 	C 	0.13460 0.14890 0.26610 0.00600
C 	C 	0.09060 0.19970 0.30278 -0.20300
C 	C 	0.12820 0.21980 0.27720 0.19200
C 	C 	0.21510 0.21660 0.21011 -0.19200
H 	H 	0.23450 0.23930 0.19980 0.10500
C 	C 	0.13560 0.25470 0.27300 -0.19200
H 	H 	0.14140 0.28210 0.26960 0.11300
C 	C 	0.25700 0.13820 0.07686 0.58300
C 	C 	0.48990 0.13410 0.92560 0.61200
C 	C 	0.29990 0.13440 0.04658 -0.30000
C 	C 	0.28890 0.15900 0.02020 0.37200
C 	C 	0.34760 0.14400 0.99610 -0.27000
C 	C 	0.39920 0.10920 0.00592 0.04600
C 	C 	0.43780 0.13250 0.95406 -0.32600
C 	C 	0.37000 0.15720 0.96560 0.37800
C 	C 	0.21860 0.19430 0.01570 -0.87800
H 	H 	0.15300 0.18710 0.02140 0.29700
H 	H 	0.21040 0.20260 0.99370 0.26500
H 	H 	0.24730 0.21590 0.02900 0.27600
C 	C 	0.32870 0.19480 0.94920 -0.86300
H 	H 	0.34470 0.19510 0.92770 0.28500
H 	H 	0.35930 0.21770 0.96060 0.26700
H 	H 	0.25560 0.19580 0.94870 0.26000
C 	C 	0.47670 0.01650 0.10904 0.61500
C 	C 	0.02180 0.08400 0.11723 0.56000
C 	C 	0.58340 0.03070 0.10810 -0.30400
C 	C 	0.67420 0.00990 0.10850 0.37600
C 	C 	0.75980 0.03690 0.11037 -0.26700
C 	C 	0.72800 0.07640 0.11020 0.04700
C 	C 	0.91470 0.07100 0.11380 -0.29200
C 	C 	0.86940 0.03380 0.11208 0.36900
C 	C 	0.68290 0.96510 0.10830 -0.89000
H 	H 	0.61650 0.95350 0.10880 0.30500
H 	H 	0.72890 0.95660 0.12680 0.27300
H 	H 	0.70900 0.95670 0.08930 0.27800
C 	C 	0.92740 0.99490 0.11230 -0.87400
H 	H 	0.90270 0.97990 0.09340 0.27400
H 	H 	0.91710 0.97960 0.13090 0.26700
H 	H 	0.99920 0.00030 0.11280 0.30200
C 	C 	0.29470 0.97670 0.17284 0.55100
C 	C 	0.48190 0.89330 0.33350 0.52700
C 	C 	0.31290 0.96120 0.20654 -0.21400
C 	C 	0.30970 0.92380 0.21860 0.10600
C 	C 	0.35580 0.91620 0.24920 -0.06000
C 	C 	0.37210 0.95650 0.26200 -0.05700
C 	C 	0.42750 0.91090 0.30300 -0.20600
C 	C 	0.37350 0.89320 0.27660 0.09600
C 	C 	0.28500 0.88880 0.19970 -0.04500
C 	C 	0.37100 0.85010 0.27160 -0.03400
C 	C 	0.17270 0.99390 0.07880 0.48700
C 	C 	0.10140 0.99590 0.04770 -0.18400
C 	C 	0.07200 0.02940 0.02890 0.05900
C 	C 	0.99020 0.97820 0.00120 -0.04400
C 	C 	0.09700 0.07310 0.03230 -0.04200
C 	C 	0.93380 0.23420 0.07470 0.55400
C 	C 	0.86290 0.23900 0.04470 -0.21200
C 	C 	0.79400 0.27060 0.03680 0.06700
C 	C 	0.76930 0.23120 0.99390 -0.04600
C 	C 	0.76600 0.30840 0.05400 -0.05800
C 	C 	0.24310 0.84290 0.12470 0.59700
C 	C 	0.71230 0.77250 0.13630 0.57500
C 	C 	0.14010 0.82890 0.12930 -0.31400
C 	C 	0.05000 0.84790 0.13060 0.39300
C 	C 	0.97010 0.82000 0.13370 -0.27200
C 	C 	0.00400 0.78090 0.13500 0.04600
C 	C 	0.81880 0.78430 0.13680 -0.29900
C 	C 	0.86090 0.82290 0.13590 0.35700
C 	C 	0.03680 0.89260 0.12950 -0.91100
H 	H 	0.10160 0.90520 0.13650 0.31300
H 	H 	0.98840 0.90030 0.14340 0.27800
H 	H 	0.01190 0.90070 0.10800 0.29100
C 	C 	0.80010 0.86070 0.13590 -0.87500
H 	H 	0.72830 0.85470 0.13080 0.29000
H 	H 	0.82000 0.87870 0.12020 0.26200
H 	H 	0.81300 0.87290 0.15660 0.27600
S 	S 	0.79180 0.28600 0.04680 0.02100
C 	C 	0.84400 0.21650 0.01740 0.06400
C 	C 	0.89300 0.17810 0.01070 -0.05800
S 	S 	0.09090 0.04570 0.03260 0.01700
C 	C 	0.04600 0.96650 0.03000 0.05400
C 	C 	0.04600 0.92250 0.03760 -0.06500
S 	S 	0.31530 0.90710 0.20621 -0.00500
S 	S 	0.39560 0.87240 0.27319 -0.00400
C 	C 	0.33200 0.97890 0.23560 0.09000
C 	C 	0.40700 0.94920 0.29350 0.09000
C 	C 	0.35000 0.02090 0.23900 -0.04500
C 	C 	0.43100 0.98550 0.31150 -0.05600
Er	Er	0.39681 0.68083 0.38169 2.04800
Er	Er	0.23046 0.56346 0.36619 1.88800
Er	Er	0.15278 0.43120 0.39508 1.93400
Er	Er	0.02036 0.30415 0.36603 2.09200
O 	O 	0.28900 0.59455 0.32172 -0.48100
O 	O 	0.29010 0.65666 0.34086 -0.56000
O 	O 	0.49300 0.69526 0.15209 -0.56800
O 	O 	0.45810 0.75628 0.16928 -0.55900
O 	O 	0.22220 0.61107 0.40291 -0.57400
O 	O 	0.29920 0.66726 0.41927 -0.58200
O 	O 	0.94720 0.60818 0.57798 -0.59200
O 	O 	0.02870 0.66355 0.59292 -0.61000
O 	O 	0.08180 0.54131 0.38170 -0.56900
O 	O 	0.04600 0.48200 0.39921 -0.60000
O 	O 	0.40750 0.55933 0.37476 -0.52000
O 	O 	0.46390 0.62104 0.38735 -0.58100
O 	O 	0.21740 0.51369 0.33078 -0.54800
O 	O 	0.20410 0.45261 0.34905 -0.54400
O 	O 	0.98160 0.41671 0.14465 -0.52100
O 	O 	0.00970 0.35590 0.16536 -0.57700
O 	O 	0.28500 0.52510 0.41070 -0.50600
O 	O 	0.30860 0.45940 0.41092 -0.53900
O 	O 	0.56300 0.75873 0.40356 -0.60500
O 	O 	0.50900 0.70377 0.42341 -0.54800
O 	O 	0.24790 0.37784 0.38612 -0.56800
O 	O 	0.18450 0.31893 0.36935 -0.59200
O 	O 	0.85070 0.29607 0.35470 -0.58900
O 	O 	0.80900 0.23713 0.37292 -0.59500
S 	S 	0.34350 0.61046 0.25940 0.04300
S 	S 	0.41330 0.64723 0.19795 0.04600
S 	S 	0.12160 0.59321 0.45704 0.05400
S 	S 	0.02660 0.59172 0.52076 0.02900
S 	S 	0.90084 0.58215 0.38981 0.04200
S 	S 	0.67421 0.61043 0.38814 0.05000
S 	S 	0.14970 0.49940 0.26417 0.01700
S 	S 	0.07130 0.46500 0.19649 0.01100
S 	S 	0.45200 0.45130 0.46590 0.02000
S 	S 	0.63690 0.70190 0.48380 0.03400
S 	S 	0.36817 0.27670 0.36695 0.05500
S 	S 	0.59162 0.24656 0.36396 0.04100
C 	C 	0.29420 0.63160 0.31830 0.46500
C 	C 	0.45560 0.71880 0.17075 0.53900
C 	C 	0.31160 0.64740 0.28678 -0.19100
C 	C 	0.30990 0.68720 0.27660 0.18100
C 	C 	0.34570 0.68650 0.24458 -0.09700
C 	C 	0.36540 0.64890 0.23390 0.00600
C 	C 	0.40940 0.69970 0.19722 -0.20300
C 	C 	0.37180 0.71980 0.22280 0.19200
C 	C 	0.28490 0.71660 0.28989 -0.19200
H 	H 	0.26550 0.73930 0.30020 0.10500
C 	C 	0.36440 0.75470 0.22700 -0.19200
H 	H 	0.35860 0.78210 0.23040 0.11300
C 	C 	0.24300 0.63820 0.42314 0.58300
C 	C 	0.01010 0.63410 0.57440 0.61200
C 	C 	0.20010 0.63440 0.45342 -0.30000
C 	C 	0.21110 0.65900 0.47980 0.37200
C 	C 	0.15240 0.64400 0.50390 -0.27000
C 	C 	0.10080 0.60920 0.49408 0.04600
C 	C 	0.06220 0.63250 0.54594 -0.32600
C 	C 	0.13000 0.65720 0.53440 0.37800
C 	C 	0.28140 0.69430 0.48430 -0.87800
H 	H 	0.34700 0.68710 0.47860 0.29700
H 	H 	0.28960 0.70260 0.50630 0.26500
H 	H 	0.25270 0.71590 0.47100 0.27600
C 	C 	0.17130 0.69480 0.55080 -0.86300
H 	H 	0.15530 0.69510 0.57230 0.28500
H 	H 	0.14070 0.71770 0.53940 0.26700
H 	H 	0.24440 0.69580 0.55130 0.26000
C 	C 	0.02330 0.51650 0.39096 0.61600
C 	C 	0.47820 0.58400 0.38277 0.56000
C 	C 	0.91660 0.53070 0.39190 -0.30400
C 	C 	0.82580 0.50990 0.39150 0.37600
C 	C 	0.74020 0.53690 0.38963 -0.26700
C 	C 	0.77200 0.57640 0.38980 0.04700
C 	C 	0.58530 0.57100 0.38620 -0.29200
C 	C 	0.63060 0.53380 0.38792 0.36900
C 	C 	0.81710 0.46510 0.39170 -0.89000
H 	H 	0.88350 0.45350 0.39120 0.30500
H 	H 	0.77110 0.45660 0.37320 0.27300
H 	H 	0.79100 0.45670 0.41070 0.27800
C 	C 	0.57260 0.49490 0.38770 -0.87500
H 	H 	0.59730 0.47990 0.40660 0.27400
H 	H 	0.58290 0.47960 0.36910 0.26700
H 	H 	0.50080 0.50030 0.38720 0.30200
C 	C 	0.20530 0.47670 0.32716 0.55100
C 	C 	0.01810 0.39330 0.16650 0.52700
C 	C 	0.18710 0.46120 0.29346 -0.21400
C 	C 	0.19030 0.42380 0.28140 0.10600
C 	C 	0.14420 0.41620 0.25080 -0.06000
C 	C 	0.12790 0.45650 0.23800 -0.05700
C 	C 	0.07250 0.41090 0.19700 -0.20600
C 	C 	0.12650 0.39320 0.22340 0.09600
C 	C 	0.21500 0.38880 0.30030 -0.04500
C 	C 	0.12900 0.35010 0.22840 -0.03300
C 	C 	0.32730 0.49390 0.42120 0.48700
C 	C 	0.39860 0.49590 0.45230 -0.18400
C 	C 	0.42800 0.52940 0.47110 0.05900
C 	C 	0.50980 0.47820 0.49880 -0.04400
C 	C 	0.40300 0.57310 0.46770 -0.04200
C 	C 	0.56620 0.73420 0.42530 0.55400
C 	C 	0.63710 0.73900 0.45530 -0.21200
C 	C 	0.70600 0.77060 0.46320 0.06700
C 	C 	0.73070 0.73120 0.50610 -0.04600
C 	C 	0.73400 0.80840 0.44600 -0.05800
C 	C 	0.25690 0.34290 0.37530 0.59700
C 	C 	0.78770 0.27250 0.36370 0.57500
C 	C 	0.35990 0.32890 0.37070 -0.31400
C 	C 	0.45000 0.34790 0.36940 0.39200
C 	C 	0.52990 0.32000 0.36630 -0.27100
C 	C 	0.49600 0.28090 0.36500 0.04600
C 	C 	0.68120 0.28430 0.36320 -0.29900
C 	C 	0.63910 0.32290 0.36410 0.35600
C 	C 	0.46320 0.39260 0.37050 -0.91200
H 	H 	0.39840 0.40520 0.36350 0.31300
H 	H 	0.51160 0.40030 0.35660 0.27800
H 	H 	0.48810 0.40070 0.39200 0.29100
C 	C 	0.69990 0.36070 0.36410 -0.87500
H 	H 	0.77170 0.35470 0.36920 0.29000
H 	H 	0.68000 0.37870 0.37980 0.26200
H 	H 	0.68700 0.37290 0.34340 0.27600
S 	S 	0.70820 0.78600 0.45320 0.02100
C 	C 	0.65600 0.71650 0.48260 0.06400
C 	C 	0.60700 0.67810 0.48930 -0.05800
S 	S 	0.40910 0.54570 0.46740 0.01700
C 	C 	0.45400 0.46650 0.47000 0.05400
C 	C 	0.45400 0.42250 0.46240 -0.06500
S 	S 	0.18470 0.40710 0.29379 -0.00500
S 	S 	0.10440 0.37240 0.22681 -0.00400
C 	C 	0.16800 0.47890 0.26440 0.09000
C 	C 	0.09300 0.44920 0.20650 0.09000
C 	C 	0.15000 0.52090 0.26100 -0.04500
C 	C 	0.06900 0.48550 0.18850 -0.05600
Er	Er	0.89681 0.18083 0.38169 2.04800
Er	Er	0.73046 0.06346 0.36619 1.88800
Er	Er	0.65278 0.93120 0.39508 1.93400
Er	Er	0.52036 0.80415 0.36603 2.09200
O 	O 	0.78900 0.09455 0.32172 -0.48100
O 	O 	0.79010 0.15666 0.34086 -0.56000
O 	O 	0.99300 0.19526 0.15209 -0.56800
O 	O 	0.95810 0.25628 0.16928 -0.55900
O 	O 	0.72220 0.11107 0.40291 -0.57400
O 	O 	0.79920 0.16726 0.41927 -0.58200
O 	O 	0.44720 0.10818 0.57798 -0.59200
O 	O 	0.52870 0.16355 0.59292 -0.61000
O 	O 	0.58180 0.04131 0.38170 -0.56900
O 	O 	0.54600 0.98200 0.39921 -0.60000
O 	O 	0.90750 0.05933 0.37476 -0.52000
O 	O 	0.96390 0.12104 0.38735 -0.58100
O 	O 	0.71740 0.01369 0.33078 -0.54800
O 	O 	0.70410 0.95261 0.34905 -0.54400
O 	O 	0.48160 0.91671 0.14465 -0.52100
O 	O 	0.50970 0.85590 0.16536 -0.57700
O 	O 	0.78500 0.02510 0.41070 -0.50600
O 	O 	0.80860 0.95940 0.41092 -0.53900
O 	O 	0.06300 0.25873 0.40356 -0.60500
O 	O 	0.00900 0.20377 0.42341 -0.54800
O 	O 	0.74790 0.87784 0.38612 -0.56800
O 	O 	0.68450 0.81893 0.36935 -0.59200
O 	O 	0.35070 0.79607 0.35470 -0.58900
O 	O 	0.30900 0.73713 0.37292 -0.59500
S 	S 	0.84350 0.11046 0.25940 0.04300
S 	S 	0.91330 0.14723 0.19795 0.04600
S 	S 	0.62160 0.09321 0.45704 0.05400
S 	S 	0.52660 0.09172 0.52076 0.02900
S 	S 	0.40084 0.08215 0.38981 0.04200
S 	S 	0.17421 0.11043 0.38814 0.05000
S 	S 	0.64970 0.99940 0.26417 0.01700
S 	S 	0.57130 0.96500 0.19649 0.01100
S 	S 	0.95200 0.95130 0.46590 0.02000
S 	S 	0.13690 0.20190 0.48380 0.03400
S 	S 	0.86817 0.77670 0.36695 0.05500
S 	S 	0.09162 0.74656 0.36396 0.04100
C 	C 	0.79420 0.13160 0.31830 0.46500
C 	C 	0.95560 0.21880 0.17075 0.53900
C 	C 	0.81160 0.14740 0.28678 -0.19100
C 	C 	0.80990 0.18720 0.27660 0.18100
C 	C 	0.84570 0.18650 0.24458 -0.09700
C 	C 	0.86540 0.14890 0.23390 0.00600
C 	C 	0.90940 0.19970 0.19722 -0.20300
C 	C 	0.87180 0.21980 0.22280 0.19200
C 	C 	0.78490 0.21660 0.28989 -0.19200
H 	H 	0.76550 0.23930 0.30020 0.10500
C 	C 	0.86440 0.25470 0.22700 -0.19200
H 	H 	0.85860 0.28210 0.23040 0.11300
C 	C 	0.74300 0.13820 0.42314 0.58300
C 	C 	0.51010 0.13410 0.57440 0.61200
C 	C 	0.70010 0.13440 0.45342 -0.30000
C 	C 	0.71110 0.15900 0.47980 0.37200
C 	C 	0.65240 0.14400 0.50390 -0.27000
C 	C 	0.60080 0.10920 0.49408 0.04600
C 	C 	0.56220 0.13250 0.54594 -0.32600
C 	C 	0.63000 0.15720 0.53440 0.37800
C 	C 	0.78140 0.19430 0.48430 -0.87800
H 	H 	0.84700 0.18710 0.47860 0.29700
H 	H 	0.78960 0.20260 0.50630 0.26500
H 	H 	0.75270 0.21590 0.47100 0.27600
C 	C 	0.67130 0.19480 0.55080 -0.86300
H 	H 	0.65530 0.19510 0.57230 0.28500
H 	H 	0.64070 0.21770 0.53940 0.26700
H 	H 	0.74440 0.19580 0.55130 0.26000
C 	C 	0.52330 0.01650 0.39096 0.61600
C 	C 	0.97820 0.08400 0.38277 0.56000
C 	C 	0.41660 0.03070 0.39190 -0.30400
C 	C 	0.32580 0.00990 0.39150 0.37600
C 	C 	0.24020 0.03690 0.38963 -0.26700
C 	C 	0.27200 0.07640 0.38980 0.04700
C 	C 	0.08530 0.07100 0.38620 -0.29200
C 	C 	0.13060 0.03380 0.38792 0.36900
C 	C 	0.31710 0.96510 0.39170 -0.89000
H 	H 	0.38350 0.95350 0.39120 0.30500
H 	H 	0.27110 0.95660 0.37320 0.27300
H 	H 	0.29100 0.95670 0.41070 0.27800
C 	C 	0.07260 0.99490 0.38770 -0.87500
H 	H 	0.09730 0.97990 0.40660 0.27400
H 	H 	0.08290 0.97960 0.36910 0.26700
H 	H 	0.00080 0.00030 0.38720 0.30200
C 	C 	0.70530 0.97670 0.32716 0.55100
C 	C 	0.51810 0.89330 0.16650 0.52700
C 	C 	0.68710 0.96120 0.29346 -0.21400
C 	C 	0.69030 0.92380 0.28140 0.10600
C 	C 	0.64420 0.91620 0.25080 -0.06000
C 	C 	0.62790 0.95650 0.23800 -0.05700
C 	C 	0.57250 0.91090 0.19700 -0.20600
C 	C 	0.62650 0.89320 0.22340 0.09600
C 	C 	0.71500 0.88880 0.30030 -0.04500
C 	C 	0.62900 0.85010 0.22840 -0.03400
C 	C 	0.82730 0.99390 0.42120 0.48600
C 	C 	0.89860 0.99590 0.45230 -0.18400
C 	C 	0.92800 0.02940 0.47110 0.05900
C 	C 	0.00980 0.97820 0.49880 -0.04400
C 	C 	0.90300 0.07310 0.46770 -0.04200
C 	C 	0.06620 0.23420 0.42530 0.55400
C 	C 	0.13710 0.23900 0.45530 -0.21200
C 	C 	0.20600 0.27060 0.46320 0.06700
C 	C 	0.23070 0.23120 0.50610 -0.04600
C 	C 	0.23400 0.30840 0.44600 -0.05800
C 	C 	0.75690 0.84290 0.37530 0.59700
C 	C 	0.28770 0.77250 0.36370 0.57500
C 	C 	0.85990 0.82890 0.37070 -0.31400
C 	C 	0.95000 0.84790 0.36940 0.39300
C 	C 	0.02990 0.82000 0.36630 -0.27200
C 	C 	0.99600 0.78090 0.36500 0.04600
C 	C 	0.18120 0.78430 0.36320 -0.29900
C 	C 	0.13910 0.82290 0.36410 0.35600
C 	C 	0.96320 0.89260 0.37050 -0.91100
H 	H 	0.89840 0.90520 0.36350 0.31300
H 	H 	0.01160 0.90030 0.35660 0.27800
H 	H 	0.98810 0.90070 0.39200 0.29100
C 	C 	0.19990 0.86070 0.36410 -0.87500
H 	H 	0.27170 0.85470 0.36920 0.29000
H 	H 	0.18000 0.87870 0.37980 0.26200
H 	H 	0.18700 0.87290 0.34340 0.27600
S 	S 	0.20820 0.28600 0.45320 0.02100
C 	C 	0.15600 0.21650 0.48260 0.06400
C 	C 	0.10700 0.17810 0.48930 -0.05800
S 	S 	0.90910 0.04570 0.46740 0.01700
C 	C 	0.95400 0.96650 0.47000 0.05400
C 	C 	0.95400 0.92250 0.46240 -0.06500
S 	S 	0.68470 0.90710 0.29379 -0.00500
S 	S 	0.60440 0.87240 0.22681 -0.00400
C 	C 	0.66800 0.97890 0.26440 0.09000
C 	C 	0.59300 0.94920 0.20650 0.09000
C 	C 	0.65000 0.02090 0.26100 -0.04500
C 	C 	0.56900 0.98550 0.18850 -0.05600
Er	Er	0.39681 0.31917 0.88169 2.04800
Er	Er	0.23046 0.43654 0.86619 1.88800
Er	Er	0.15278 0.56880 0.89508 1.93400
Er	Er	0.02036 0.69585 0.86603 2.09200
O 	O 	0.28900 0.40545 0.82172 -0.48100
O 	O 	0.29010 0.34334 0.84086 -0.56000
O 	O 	0.49300 0.30474 0.65209 -0.56800
O 	O 	0.45810 0.24372 0.66928 -0.55900
O 	O 	0.22220 0.38893 0.90291 -0.57400
O 	O 	0.29920 0.33274 0.91927 -0.58200
O 	O 	0.94720 0.39182 0.07798 -0.59200
O 	O 	0.02870 0.33645 0.09292 -0.61000
O 	O 	0.08180 0.45869 0.88170 -0.56900
O 	O 	0.04600 0.51800 0.89921 -0.60000
O 	O 	0.40750 0.44067 0.87476 -0.52000
O 	O 	0.46390 0.37896 0.88735 -0.58100
O 	O 	0.21740 0.48631 0.83078 -0.54800
O 	O 	0.20410 0.54739 0.84905 -0.54400
O 	O 	0.98160 0.58329 0.64465 -0.52100
O 	O 	0.00970 0.64410 0.66536 -0.57700
O 	O 	0.28500 0.47490 0.91070 -0.50600
O 	O 	0.30860 0.54060 0.91092 -0.53900
O 	O 	0.56300 0.24127 0.90356 -0.60500
O 	O 	0.50900 0.29623 0.92341 -0.54800
O 	O 	0.24790 0.62216 0.88612 -0.56800
O 	O 	0.18450 0.68107 0.86935 -0.59200
O 	O 	0.85070 0.70393 0.85470 -0.58900
O 	O 	0.80900 0.76287 0.87292 -0.59500
S 	S 	0.34350 0.38954 0.75940 0.04300
S 	S 	0.41330 0.35277 0.69795 0.04600
S 	S 	0.12160 0.40679 0.95704 0.05400
S 	S 	0.02660 0.40828 0.02076 0.02900
S 	S 	0.90084 0.41785 0.88981 0.04200
S 	S 	0.67421 0.38957 0.88814 0.05000
S 	S 	0.14970 0.50060 0.76417 0.01700
S 	S 	0.07130 0.53500 0.69649 0.01100
S 	S 	0.45200 0.54870 0.96590 0.02000
S 	S 	0.63690 0.29810 0.98380 0.03400
S 	S 	0.36817 0.72330 0.86695 0.05500
S 	S 	0.59162 0.75344 0.86396 0.04100
C 	C 	0.29420 0.36840 0.81830 0.46500
C 	C 	0.45560 0.28120 0.67075 0.53900
C 	C 	0.31160 0.35260 0.78678 -0.19100
C 	C 	0.30990 0.31280 0.77660 0.18100
C 	C 	0.34570 0.31350 0.74458 -0.09700
C 	C 	0.36540 0.35110 0.73390 0.00600
C 	C 	0.40940 0.30030 0.69722 -0.20300
C 	C 	0.37180 0.28020 0.72280 0.19200
C 	C 	0.28490 0.28340 0.78989 -0.19200
H 	H 	0.26550 0.26070 0.80020 0.10500
C 	C 	0.36440 0.24530 0.72700 -0.19200
H 	H 	0.35860 0.21790 0.73040 0.11300
C 	C 	0.24300 0.36180 0.92314 0.58300
C 	C 	0.01010 0.36590 0.07440 0.61200
C 	C 	0.20010 0.36560 0.95342 -0.30000
C 	C 	0.21110 0.34100 0.97980 0.37200
C 	C 	0.15240 0.35600 0.00390 -0.27000
C 	C 	0.10080 0.39080 0.99408 0.04600
C 	C 	0.06220 0.36750 0.04594 -0.32600
C 	C 	0.13000 0.34280 0.03440 0.37800
C 	C 	0.28140 0.30570 0.98430 -0.87800
H 	H 	0.34700 0.31290 0.97860 0.29700
H 	H 	0.28960 0.29740 0.00630 0.26500
H 	H 	0.25270 0.28410 0.97100 0.27600
C 	C 	0.17130 0.30520 0.05080 -0.86300
H 	H 	0.15530 0.30490 0.07230 0.28500
H 	H 	0.14070 0.28230 0.03940 0.26700
H 	H 	0.24440 0.30420 0.05130 0.26000
C 	C 	0.02330 0.48350 0.89096 0.61600
C 	C 	0.47820 0.41600 0.88277 0.56000
C 	C 	0.91660 0.46930 0.89190 -0.30400
C 	C 	0.82580 0.49010 0.89150 0.37600
C 	C 	0.74020 0.46310 0.88963 -0.26700
C 	C 	0.77200 0.42360 0.88980 0.04700
C 	C 	0.58530 0.42900 0.88620 -0.29200
C 	C 	0.63060 0.46620 0.88792 0.36900
C 	C 	0.81710 0.53490 0.89170 -0.89000
H 	H 	0.88350 0.54650 0.89120 0.30500
H 	H 	0.77110 0.54340 0.87320 0.27300
H 	H 	0.79100 0.54330 0.91070 0.27800
C 	C 	0.57260 0.50510 0.88770 -0.87500
H 	H 	0.59730 0.52010 0.90660 0.27400
H 	H 	0.58290 0.52040 0.86910 0.26700
H 	H 	0.50080 0.49970 0.88720 0.30200
C 	C 	0.20530 0.52330 0.82716 0.55100
C 	C 	0.01810 0.60670 0.66650 0.52700
C 	C 	0.18710 0.53880 0.79346 -0.21400
C 	C 	0.19030 0.57620 0.78140 0.10600
C 	C 	0.14420 0.58380 0.75080 -0.06000
C 	C 	0.12790 0.54350 0.73800 -0.05700
C 	C 	0.07250 0.58910 0.69700 -0.20600
C 	C 	0.12650 0.60680 0.72340 0.09600
C 	C 	0.21500 0.61120 0.80030 -0.04500
C 	C 	0.12900 0.64990 0.72840 -0.03300
C 	C 	0.32730 0.50610 0.92120 0.48700
C 	C 	0.39860 0.50410 0.95230 -0.18400
C 	C 	0.42800 0.47060 0.97110 0.05900
C 	C 	0.50980 0.52180 0.99880 -0.04400
C 	C 	0.40300 0.42690 0.96770 -0.04200
C 	C 	0.56620 0.26580 0.92530 0.55400
C 	C 	0.63710 0.26100 0.95530 -0.21200
C 	C 	0.70600 0.22940 0.96320 0.06700
C 	C 	0.73070 0.26880 0.00610 -0.04600
C 	C 	0.73400 0.19160 0.94600 -0.05800
C 	C 	0.25690 0.65710 0.87530 0.59700
C 	C 	0.78770 0.72750 0.86370 0.57500
C 	C 	0.35990 0.67110 0.87070 -0.31400
C 	C 	0.45000 0.65210 0.86940 0.39200
C 	C 	0.52990 0.68000 0.86630 -0.27100
C 	C 	0.49600 0.71910 0.86500 0.04600
C 	C 	0.68120 0.71570 0.86320 -0.29900
C 	C 	0.63910 0.67710 0.86410 0.35600
C 	C 	0.46320 0.60740 0.87050 -0.91200
H 	H 	0.39840 0.59480 0.86350 0.31300
H 	H 	0.51160 0.59970 0.85660 0.27800
H 	H 	0.48810 0.59930 0.89200 0.29100
C 	C 	0.69990 0.63930 0.86410 -0.87500
H 	H 	0.77170 0.64530 0.86920 0.29000
H 	H 	0.68000 0.62130 0.87980 0.26200
H 	H 	0.68700 0.62710 0.84340 0.27600
S 	S 	0.70820 0.21400 0.95320 0.02100
C 	C 	0.65600 0.28350 0.98260 0.06400
C 	C 	0.60700 0.32190 0.98930 -0.05800
S 	S 	0.40910 0.45430 0.96740 0.01700
C 	C 	0.45400 0.53350 0.97000 0.05400
C 	C 	0.45400 0.57750 0.96240 -0.06500
S 	S 	0.18470 0.59290 0.79379 -0.00500
S 	S 	0.10440 0.62760 0.72681 -0.00400
C 	C 	0.16800 0.52110 0.76440 0.09000
C 	C 	0.09300 0.55080 0.70650 0.09000
C 	C 	0.15000 0.47910 0.76100 -0.04500
C 	C 	0.06900 0.51450 0.68850 -0.05600
Er	Er	0.89681 0.81917 0.88169 2.04800
Er	Er	0.73046 0.93654 0.86619 1.88800
Er	Er	0.65278 0.06880 0.89508 1.93400
Er	Er	0.52036 0.19585 0.86603 2.09200
O 	O 	0.78900 0.90545 0.82172 -0.48100
O 	O 	0.79010 0.84334 0.84086 -0.56000
O 	O 	0.99300 0.80474 0.65209 -0.56800
O 	O 	0.95810 0.74372 0.66928 -0.55900
O 	O 	0.72220 0.88893 0.90291 -0.57400
O 	O 	0.79920 0.83274 0.91927 -0.58200
O 	O 	0.44720 0.89182 0.07798 -0.59200
O 	O 	0.52870 0.83645 0.09292 -0.61000
O 	O 	0.58180 0.95869 0.88170 -0.56900
O 	O 	0.54600 0.01800 0.89921 -0.60000
O 	O 	0.90750 0.94067 0.87476 -0.52000
O 	O 	0.96390 0.87896 0.88735 -0.58100
O 	O 	0.71740 0.98631 0.83078 -0.54800
O 	O 	0.70410 0.04739 0.84905 -0.54400
O 	O 	0.48160 0.08329 0.64465 -0.52100
O 	O 	0.50970 0.14410 0.66536 -0.57700
O 	O 	0.78500 0.97490 0.91070 -0.50600
O 	O 	0.80860 0.04060 0.91092 -0.53900
O 	O 	0.06300 0.74127 0.90356 -0.60500
O 	O 	0.00900 0.79623 0.92341 -0.54800
O 	O 	0.74790 0.12216 0.88612 -0.56800
O 	O 	0.68450 0.18107 0.86935 -0.59200
O 	O 	0.35070 0.20393 0.85470 -0.58900
O 	O 	0.30900 0.26287 0.87292 -0.59500
S 	S 	0.84350 0.88954 0.75940 0.04300
S 	S 	0.91330 0.85277 0.69795 0.04600
S 	S 	0.62160 0.90679 0.95704 0.05400
S 	S 	0.52660 0.90828 0.02076 0.02900
S 	S 	0.40084 0.91785 0.88981 0.04200
S 	S 	0.17421 0.88957 0.88814 0.05000
S 	S 	0.64970 0.00060 0.76417 0.01700
S 	S 	0.57130 0.03500 0.69649 0.01100
S 	S 	0.95200 0.04870 0.96590 0.02000
S 	S 	0.13690 0.79810 0.98380 0.03400
S 	S 	0.86817 0.22330 0.86695 0.05500
S 	S 	0.09162 0.25344 0.86396 0.04100
C 	C 	0.79420 0.86840 0.81830 0.46500
C 	C 	0.95560 0.78120 0.67075 0.53900
C 	C 	0.81160 0.85260 0.78678 -0.19100
C 	C 	0.80990 0.81280 0.77660 0.18100
C 	C 	0.84570 0.81350 0.74458 -0.09700
C 	C 	0.86540 0.85110 0.73390 0.00600
C 	C 	0.90940 0.80030 0.69722 -0.20300
C 	C 	0.87180 0.78020 0.72280 0.19200
C 	C 	0.78490 0.78340 0.78989 -0.19200
H 	H 	0.76550 0.76070 0.80020 0.10500
C 	C 	0.86440 0.74530 0.72700 -0.19200
H 	H 	0.85860 0.71790 0.73040 0.11300
C 	C 	0.74300 0.86180 0.92314 0.58300
C 	C 	0.51010 0.86590 0.07440 0.61200
C 	C 	0.70010 0.86560 0.95342 -0.30000
C 	C 	0.71110 0.84100 0.97980 0.37200
C 	C 	0.65240 0.85600 0.00390 -0.27000
C 	C 	0.60080 0.89080 0.99408 0.04600
C 	C 	0.56220 0.86750 0.04594 -0.32600
C 	C 	0.63000 0.84280 0.03440 0.37800
C 	C 	0.78140 0.80570 0.98430 -0.87800
H 	H 	0.84700 0.81290 0.97860 0.29700
H 	H 	0.78960 0.79740 0.00630 0.26500
H 	H 	0.75270 0.78410 0.97100 0.27600
C 	C 	0.67130 0.80520 0.05080 -0.86300
H 	H 	0.65530 0.80490 0.07230 0.28500
H 	H 	0.64070 0.78230 0.03940 0.26700
H 	H 	0.74440 0.80420 0.05130 0.26000
C 	C 	0.52330 0.98350 0.89096 0.61500
C 	C 	0.97820 0.91600 0.88277 0.56000
C 	C 	0.41660 0.96930 0.89190 -0.30400
C 	C 	0.32580 0.99010 0.89150 0.37600
C 	C 	0.24020 0.96310 0.88963 -0.26700
C 	C 	0.27200 0.92360 0.88980 0.04700
C 	C 	0.08530 0.92900 0.88620 -0.29200
C 	C 	0.13060 0.96620 0.88792 0.36900
C 	C 	0.31710 0.03490 0.89170 -0.89000
H 	H 	0.38350 0.04650 0.89120 0.30500
H 	H 	0.27110 0.04340 0.87320 0.27300
H 	H 	0.29100 0.04330 0.91070 0.27800
C 	C 	0.07260 0.00510 0.88770 -0.87400
H 	H 	0.09730 0.02010 0.90660 0.27400
H 	H 	0.08290 0.02040 0.86910 0.26700
H 	H 	0.00080 0.99970 0.88720 0.30200
C 	C 	0.70530 0.02330 0.82716 0.55100
C 	C 	0.51810 0.10670 0.66650 0.52700
C 	C 	0.68710 0.03880 0.79346 -0.21400
C 	C 	0.69030 0.07620 0.78140 0.10600
C 	C 	0.64420 0.08380 0.75080 -0.06000
C 	C 	0.62790 0.04350 0.73800 -0.05700
C 	C 	0.57250 0.08910 0.69700 -0.20600
C 	C 	0.62650 0.10680 0.72340 0.09600
C 	C 	0.71500 0.11120 0.80030 -0.04500
C 	C 	0.62900 0.14990 0.72840 -0.03400
C 	C 	0.82730 0.00610 0.92120 0.48700
C 	C 	0.89860 0.00410 0.95230 -0.18400
C 	C 	0.92800 0.97060 0.97110 0.05900
C 	C 	0.00980 0.02180 0.99880 -0.04400
C 	C 	0.90300 0.92690 0.96770 -0.04200
C 	C 	0.06620 0.76580 0.92530 0.55400
C 	C 	0.13710 0.76100 0.95530 -0.21200
C 	C 	0.20600 0.72940 0.96320 0.06700
C 	C 	0.23070 0.76880 0.00610 -0.04600
C 	C 	0.23400 0.69160 0.94600 -0.05800
C 	C 	0.75690 0.15710 0.87530 0.59700
C 	C 	0.28770 0.22750 0.86370 0.57500
C 	C 	0.85990 0.17110 0.87070 -0.31400
C 	C 	0.95000 0.15210 0.86940 0.39300
C 	C 	0.02990 0.18000 0.86630 -0.27200
C 	C 	0.99600 0.21910 0.86500 0.04600
C 	C 	0.18120 0.21570 0.86320 -0.29900
C 	C 	0.13910 0.17710 0.86410 0.35700
C 	C 	0.96320 0.10740 0.87050 -0.91100
H 	H 	0.89840 0.09480 0.86350 0.31300
H 	H 	0.01160 0.09970 0.85660 0.27800
H 	H 	0.98810 0.09930 0.89200 0.29100
C 	C 	0.19990 0.13930 0.86410 -0.87500
H 	H 	0.27170 0.14530 0.86920 0.29000
H 	H 	0.18000 0.12130 0.87980 0.26200
H 	H 	0.18700 0.12710 0.84340 0.27600
S 	S 	0.20820 0.71400 0.95320 0.02100
C 	C 	0.15600 0.78350 0.98260 0.06400
C 	C 	0.10700 0.82190 0.98930 -0.05800
S 	S 	0.90910 0.95430 0.96740 0.01700
C 	C 	0.95400 0.03350 0.97000 0.05400
C 	C 	0.95400 0.07750 0.96240 -0.06500
S 	S 	0.68470 0.09290 0.79379 -0.00500
S 	S 	0.60440 0.12760 0.72681 -0.00400
C 	C 	0.66800 0.02110 0.76440 0.09000
C 	C 	0.59300 0.05080 0.70650 0.09000
C 	C 	0.65000 0.97910 0.76100 -0.04500
C 	C 	0.56900 0.01450 0.68850 -0.05600
Er	Er	0.60319 0.31917 0.61831 2.04800
Er	Er	0.76954 0.43654 0.63381 1.88800
Er	Er	0.84722 0.56880 0.60492 1.93400
Er	Er	0.97964 0.69585 0.63397 2.09200
O 	O 	0.71100 0.40545 0.67828 -0.48100
O 	O 	0.70990 0.34334 0.65914 -0.56000
O 	O 	0.50700 0.30474 0.84791 -0.56800
O 	O 	0.54190 0.24372 0.83072 -0.55900
O 	O 	0.77780 0.38893 0.59709 -0.57400
O 	O 	0.70080 0.33274 0.58073 -0.58200
O 	O 	0.05280 0.39182 0.42202 -0.59200
O 	O 	0.97130 0.33645 0.40708 -0.61000
O 	O 	0.91820 0.45869 0.61830 -0.56900
O 	O 	0.95400 0.51800 0.60079 -0.60000
O 	O 	0.59250 0.44067 0.62524 -0.52000
O 	O 	0.53610 0.37896 0.61265 -0.58100
O 	O 	0.78260 0.48631 0.66922 -0.54800
O 	O 	0.79590 0.54739 0.65095 -0.54400
O 	O 	0.01840 0.58329 0.85535 -0.52100
O 	O 	0.99030 0.64410 0.83464 -0.57700
O 	O 	0.71500 0.47490 0.58930 -0.50600
O 	O 	0.69140 0.54060 0.58908 -0.53900
O 	O 	0.43700 0.24127 0.59644 -0.60500
O 	O 	0.49100 0.29623 0.57659 -0.54800
O 	O 	0.75210 0.62216 0.61388 -0.56800
O 	O 	0.81550 0.68107 0.63065 -0.59200
O 	O 	0.14930 0.70393 0.64530 -0.58900
O 	O 	0.19100 0.76287 0.62708 -0.59500
S 	S 	0.65650 0.38954 0.74060 0.04300
S 	S 	0.58670 0.35277 0.80205 0.04600
S 	S 	0.87840 0.40679 0.54296 0.05400
S 	S 	0.97340 0.40828 0.47924 0.02900
S 	S 	0.09916 0.41785 0.61019 0.04200
S 	S 	0.32579 0.38957 0.61186 0.05000
S 	S 	0.85030 0.50060 0.73583 0.01700
S 	S 	0.92870 0.53500 0.80351 0.01100
S 	S 	0.54800 0.54870 0.53410 0.02000
S 	S 	0.36310 0.29810 0.51620 0.03400
S 	S 	0.63183 0.72330 0.63305 0.05500
S 	S 	0.40838 0.75344 0.63604 0.04100
C 	C 	0.70580 0.36840 0.68170 0.46500
C 	C 	0.54440 0.28120 0.82925 0.53900
C 	C 	0.68840 0.35260 0.71322 -0.19100
C 	C 	0.69010 0.31280 0.72340 0.18100
C 	C 	0.65430 0.31350 0.75542 -0.09700
C 	C 	0.63460 0.35110 0.76610 0.00600
C 	C 	0.59060 0.30030 0.80278 -0.20300
C 	C 	0.62820 0.28020 0.77720 0.19200
C 	C 	0.71510 0.28340 0.71011 -0.19200
H 	H 	0.73450 0.26070 0.69980 0.10500
C 	C 	0.63560 0.24530 0.77300 -0.19200
H 	H 	0.64140 0.21790 0.76960 0.11300
C 	C 	0.75700 0.36180 0.57686 0.58300
C 	C 	0.98990 0.36590 0.42560 0.61200
C 	C 	0.79990 0.36560 0.54658 -0.30000
C 	C 	0.78890 0.34100 0.52020 0.37200
C 	C 	0.84760 0.35600 0.49610 -0.27000
C 	C 	0.89920 0.39080 0.50592 0.04600
C 	C 	0.93780 0.36750 0.45406 -0.32600
C 	C 	0.87000 0.34280 0.46560 0.37800
C 	C 	0.71860 0.30570 0.51570 -0.87800
H 	H 	0.65300 0.31290 0.52140 0.29700
H 	H 	0.71040 0.29740 0.49370 0.26500
H 	H 	0.74730 0.28410 0.52900 0.27600
C 	C 	0.82870 0.30520 0.44920 -0.86300
H 	H 	0.84470 0.30490 0.42770 0.28500
H 	H 	0.85930 0.28230 0.46060 0.26700
H 	H 	0.75560 0.30420 0.44870 0.26000
C 	C 	0.97670 0.48350 0.60904 0.61600
C 	C 	0.52180 0.41600 0.61723 0.56000
C 	C 	0.08340 0.46930 0.60810 -0.30400
C 	C 	0.17420 0.49010 0.60850 0.37600
C 	C 	0.25980 0.46310 0.61037 -0.26700
C 	C 	0.22800 0.42360 0.61020 0.04700
C 	C 	0.41470 0.42900 0.61380 -0.29200
C 	C 	0.36940 0.46620 0.61208 0.36900
C 	C 	0.18290 0.53490 0.60830 -0.89000
H 	H 	0.11650 0.54650 0.60880 0.30500
H 	H 	0.22890 0.54340 0.62680 0.27300
H 	H 	0.20900 0.54330 0.58930 0.27800
C 	C 	0.42740 0.50510 0.61230 -0.87500
H 	H 	0.40270 0.52010 0.59340 0.27400
H 	H 	0.41710 0.52040 0.63090 0.26700
H 	H 	0.49920 0.49970 0.61280 0.30200
C 	C 	0.79470 0.52330 0.67284 0.55100
C 	C 	0.98190 0.60670 0.83350 0.52700
C 	C 	0.81290 0.53880 0.70654 -0.21400
C 	C 	0.80970 0.57620 0.71860 0.10600
C 	C 	0.85580 0.58380 0.74920 -0.06000
C 	C 	0.87210 0.54350 0.76200 -0.05700
C 	C 	0.92750 0.58910 0.80300 -0.20600
C 	C 	0.87350 0.60680 0.77660 0.09600
C 	C 	0.78500 0.61120 0.69970 -0.04500
C 	C 	0.87100 0.64990 0.77160 -0.03300
C 	C 	0.67270 0.50610 0.57880 0.48700
C 	C 	0.60140 0.50410 0.54770 -0.18400
C 	C 	0.57200 0.47060 0.52890 0.05900
C 	C 	0.49020 0.52180 0.50120 -0.04400
C 	C 	0.59700 0.42690 0.53230 -0.04200
C 	C 	0.43380 0.26580 0.57470 0.55400
C 	C 	0.36290 0.26100 0.54470 -0.21200
C 	C 	0.29400 0.22940 0.53680 0.06700
C 	C 	0.26930 0.26880 0.49390 -0.04600
C 	C 	0.26600 0.19160 0.55400 -0.05800
C 	C 	0.74310 0.65710 0.62470 0.59700
C 	C 	0.21230 0.72750 0.63630 0.57500
C 	C 	0.64010 0.67110 0.62930 -0.31400
C 	C 	0.55000 0.65210 0.63060 0.39200
C 	C 	0.47010 0.68000 0.63370 -0.27100
C 	C 	0.50400 0.71910 0.63500 0.04600
C 	C 	0.31880 0.71570 0.63680 -0.29900
C 	C 	0.36090 0.67710 0.63590 0.35600
C 	C 	0.53680 0.60740 0.62950 -0.91200
H 	H 	0.60160 0.59480 0.63650 0.31300
H 	H 	0.48840 0.59970 0.64340 0.27800
H 	H 	0.51190 0.59930 0.60800 0.29100
C 	C 	0.30010 0.63930 0.63590 -0.87500
H 	H 	0.22830 0.64530 0.63080 0.29000
H 	H 	0.32000 0.62130 0.62020 0.26200
H 	H 	0.31300 0.62710 0.65660 0.27600
S 	S 	0.29180 0.21400 0.54680 0.02100
C 	C 	0.34400 0.28350 0.51740 0.06400
C 	C 	0.39300 0.32190 0.51070 -0.05800
S 	S 	0.59090 0.45430 0.53260 0.01700
C 	C 	0.54600 0.53350 0.53000 0.05400
C 	C 	0.54600 0.57750 0.53760 -0.06500
S 	S 	0.81530 0.59290 0.70621 -0.00500
S 	S 	0.89560 0.62760 0.77319 -0.00400
C 	C 	0.83200 0.52110 0.73560 0.09000
C 	C 	0.90700 0.55080 0.79350 0.09000
C 	C 	0.85000 0.47910 0.73900 -0.04500
C 	C 	0.93100 0.51450 0.81150 -0.05600
Er	Er	0.10319 0.81917 0.61831 2.04800
Er	Er	0.26954 0.93654 0.63381 1.88800
Er	Er	0.34722 0.06880 0.60492 1.93400
Er	Er	0.47964 0.19585 0.63397 2.09200
O 	O 	0.21100 0.90545 0.67828 -0.48100
O 	O 	0.20990 0.84334 0.65914 -0.56000
O 	O 	0.00700 0.80474 0.84791 -0.56800
O 	O 	0.04190 0.74372 0.83072 -0.55900
O 	O 	0.27780 0.88893 0.59709 -0.57400
O 	O 	0.20080 0.83274 0.58073 -0.58200
O 	O 	0.55280 0.89182 0.42202 -0.59200
O 	O 	0.47130 0.83645 0.40708 -0.61000
O 	O 	0.41820 0.95869 0.61830 -0.56900
O 	O 	0.45400 0.01800 0.60079 -0.60000
O 	O 	0.09250 0.94067 0.62524 -0.52000
O 	O 	0.03610 0.87896 0.61265 -0.58100
O 	O 	0.28260 0.98631 0.66922 -0.54800
O 	O 	0.29590 0.04739 0.65095 -0.54400
O 	O 	0.51840 0.08329 0.85535 -0.52100
O 	O 	0.49030 0.14410 0.83464 -0.57700
O 	O 	0.21500 0.97490 0.58930 -0.50600
O 	O 	0.19140 0.04060 0.58908 -0.53900
O 	O 	0.93700 0.74127 0.59644 -0.60500
O 	O 	0.99100 0.79623 0.57659 -0.54800
O 	O 	0.25210 0.12216 0.61388 -0.56800
O 	O 	0.31550 0.18107 0.63065 -0.59200
O 	O 	0.64930 0.20393 0.64530 -0.58900
O 	O 	0.69100 0.26287 0.62708 -0.59500
S 	S 	0.15650 0.88954 0.74060 0.04300
S 	S 	0.08670 0.85277 0.80205 0.04600
S 	S 	0.37840 0.90679 0.54296 0.05400
S 	S 	0.47340 0.90828 0.47924 0.02900
S 	S 	0.59916 0.91785 0.61019 0.04200
S 	S 	0.82579 0.88957 0.61186 0.05000
S 	S 	0.35030 0.00060 0.73583 0.01700
S 	S 	0.42870 0.03500 0.80351 0.01100
S 	S 	0.04800 0.04870 0.53410 0.02000
S 	S 	0.86310 0.79810 0.51620 0.03400
S 	S 	0.13183 0.22330 0.63305 0.05500
S 	S 	0.90838 0.25344 0.63604 0.04100
C 	C 	0.20580 0.86840 0.68170 0.46500
C 	C 	0.04440 0.78120 0.82925 0.53900
C 	C 	0.18840 0.85260 0.71322 -0.19100
C 	C 	0.19010 0.81280 0.72340 0.18100
C 	C 	0.15430 0.81350 0.75542 -0.09700
C 	C 	0.13460 0.85110 0.76610 0.00600
C 	C 	0.09060 0.80030 0.80278 -0.20300
C 	C 	0.12820 0.78020 0.77720 0.19200
C 	C 	0.21510 0.78340 0.71011 -0.19200
H 	H 	0.23450 0.76070 0.69980 0.10500
C 	C 	0.13560 0.74530 0.77300 -0.19200
H 	H 	0.14140 0.71790 0.76960 0.11300
C 	C 	0.25700 0.86180 0.57686 0.58300
C 	C 	0.48990 0.86590 0.42560 0.61200
C 	C 	0.29990 0.86560 0.54658 -0.30000
C 	C 	0.28890 0.84100 0.52020 0.37200
C 	C 	0.34760 0.85600 0.49610 -0.27000
C 	C 	0.39920 0.89080 0.50592 0.04600
C 	C 	0.43780 0.86750 0.45406 -0.32600
C 	C 	0.37000 0.84280 0.46560 0.37800
C 	C 	0.21860 0.80570 0.51570 -0.87800
H 	H 	0.15300 0.81290 0.52140 0.29700
H 	H 	0.21040 0.79740 0.49370 0.26500
H 	H 	0.24730 0.78410 0.52900 0.27600
C 	C 	0.32870 0.80520 0.44920 -0.86300
H 	H 	0.34470 0.80490 0.42770 0.28500
H 	H 	0.35930 0.78230 0.46060 0.26700
H 	H 	0.25560 0.80420 0.44870 0.26000
C 	C 	0.47670 0.98350 0.60904 0.61600
C 	C 	0.02180 0.91600 0.61723 0.56000
C 	C 	0.58340 0.96930 0.60810 -0.30400
C 	C 	0.67420 0.99010 0.60850 0.37600
C 	C 	0.75980 0.96310 0.61037 -0.26700
C 	C 	0.72800 0.92360 0.61020 0.04700
C 	C 	0.91470 0.92900 0.61380 -0.29200
C 	C 	0.86940 0.96620 0.61208 0.36900
C 	C 	0.68290 0.03490 0.60830 -0.89000
H 	H 	0.61650 0.04650 0.60880 0.30500
H 	H 	0.72890 0.04340 0.62680 0.27300
H 	H 	0.70900 0.04330 0.58930 0.27800
C 	C 	0.92740 0.00510 0.61230 -0.87500
H 	H 	0.90270 0.02010 0.59340 0.27400
H 	H 	0.91710 0.02040 0.63090 0.26700
H 	H 	0.99920 0.99970 0.61280 0.30200
C 	C 	0.29470 0.02330 0.67284 0.55100
C 	C 	0.48190 0.10670 0.83350 0.52700
C 	C 	0.31290 0.03880 0.70654 -0.21400
C 	C 	0.30970 0.07620 0.71860 0.10600
C 	C 	0.35580 0.08380 0.74920 -0.06000
C 	C 	0.37210 0.04350 0.76200 -0.05700
C 	C 	0.42750 0.08910 0.80300 -0.20600
C 	C 	0.37350 0.10680 0.77660 0.09600
C 	C 	0.28500 0.11120 0.69970 -0.04500
C 	C 	0.37100 0.14990 0.77160 -0.03400
C 	C 	0.17270 0.00610 0.57880 0.48600
C 	C 	0.10140 0.00410 0.54770 -0.18400
C 	C 	0.07200 0.97060 0.52890 0.05900
C 	C 	0.99020 0.02180 0.50120 -0.04400
C 	C 	0.09700 0.92690 0.53230 -0.04200
C 	C 	0.93380 0.76580 0.57470 0.55400
C 	C 	0.86290 0.76100 0.54470 -0.21200
C 	C 	0.79400 0.72940 0.53680 0.06700
C 	C 	0.76930 0.76880 0.49390 -0.04600
C 	C 	0.76600 0.69160 0.55400 -0.05800
C 	C 	0.24310 0.15710 0.62470 0.59700
C 	C 	0.71230 0.22750 0.63630 0.57500
C 	C 	0.14010 0.17110 0.62930 -0.31400
C 	C 	0.05000 0.15210 0.63060 0.39300
C 	C 	0.97010 0.18000 0.63370 -0.27200
C 	C 	0.00400 0.21910 0.63500 0.04600
C 	C 	0.81880 0.21570 0.63680 -0.29900
C 	C 	0.86090 0.17710 0.63590 0.35600
C 	C 	0.03680 0.10740 0.62950 -0.91100
H 	H 	0.10160 0.09480 0.63650 0.31300
H 	H 	0.98840 0.09970 0.64340 0.27800
H 	H 	0.01190 0.09930 0.60800 0.29100
C 	C 	0.80010 0.13930 0.63590 -0.87500
H 	H 	0.72830 0.14530 0.63080 0.29000
H 	H 	0.82000 0.12130 0.62020 0.26200
H 	H 	0.81300 0.12710 0.65660 0.27600
S 	S 	0.79180 0.71400 0.54680 0.02100
C 	C 	0.84400 0.78350 0.51740 0.06400
C 	C 	0.89300 0.82190 0.51070 -0.05800
S 	S 	0.09090 0.95430 0.53260 0.01700
C 	C 	0.04600 0.03350 0.53000 0.05400
C 	C 	0.04600 0.07750 0.53760 -0.06500
S 	S 	0.31530 0.09290 0.70621 -0.00500
S 	S 	0.39560 0.12760 0.77319 -0.00400
C 	C 	0.33200 0.02110 0.73560 0.09000
C 	C 	0.40700 0.05080 0.79350 0.09000
C 	C 	0.35000 0.97910 0.73900 -0.04500
C 	C 	0.43100 0.01450 0.81150 -0.05600
