data_crystal

_cell_length_a 10.42370
_cell_length_b 14.72810
_cell_length_c 25.59900
_cell_angle_alpha 81.66500
_cell_angle_beta  82.26000
_cell_angle_gamma 71.66700

_symmetry_space_group_name_	'P 1'
_symmetry_space_group_name_H-M	'P 1'

loop_
_symmetry_equiv_pos_as_xyz
  x,y,z

loop_
_atom_site_label
_atom_site_type_symbol
_atom_site_fract_x
_atom_site_fract_y
_atom_site_fract_z
_atom_site_charge
U 	U 	0.03588 0.57406 0.32523 0.00500
U 	U 	0.52521 0.09864 0.82611 0.00700
Si	Si	0.72190 0.11017 0.47236 0.83500
Si	Si	0.15720 0.63700 0.96918 0.88800
O 	O 	0.47800 0.94710 0.82920 -0.17300
O 	O 	0.55160 0.03970 0.73950 -0.17600
O 	O 	0.61000 0.17160 0.73890 -0.16200
O 	O 	0.48510 0.17640 0.90800 -0.18500
O 	O 	0.54140 0.25730 0.83410 -0.16800
O 	O 	0.46900 0.99650 0.90600 -0.17400
O 	O 	0.84840 0.72070 0.33700 -0.17000
O 	O 	0.94270 0.64230 0.40910 -0.17300
O 	O 	0.13490 0.47040 0.40530 -0.17900
O 	O 	0.23220 0.42720 0.32670 -0.17300
O 	O 	0.13650 0.52430 0.23850 -0.17200
O 	O 	0.95710 0.65330 0.23800 -0.16200
C 	C 	0.74450 0.16210 0.57460 0.13700
H 	H 	0.79640 0.20140 0.55600 -0.01900
C 	C 	0.70400 0.10430 0.54680 -0.30900
C 	C 	0.71180 0.16460 0.62900 -0.13900
H 	H 	0.73650 0.20780 0.64690 0.10700
C 	C 	0.64250 0.10310 0.65670 0.04200
C 	C 	0.74840 0.98810 0.45140 -0.30400
C 	C 	0.83440 0.90610 0.47670 0.12200
H 	H 	0.86830 0.91050 0.50860 -0.02100
C 	C 	0.87170 0.81820 0.45670 -0.13800
H 	H 	0.93190 0.76300 0.47410 0.09200
C 	C 	0.81920 0.81160 0.40980 0.04000
C 	C 	0.87060 0.72050 0.38400 0.22800
C 	C 	0.59800 0.10440 0.71440 0.23100
C 	C 	0.05370 0.59530 0.21270 0.22500
C 	C 	0.56550 0.19930 0.44760 -0.30100
C 	C 	0.44480 0.23730 0.47770 0.12600
H 	H 	0.43590 0.21460 0.51430 -0.01200
C 	C 	0.33550 0.30830 0.45580 -0.13000
H 	H 	0.25480 0.33400 0.47780 0.09600
C 	C 	0.34350 0.34160 0.40210 0.03100
C 	C 	0.46210 0.30120 0.36990 -0.12000
H 	H 	0.46750 0.31960 0.33270 0.09300
C 	C 	0.57150 0.23410 0.39290 0.10800
H 	H 	0.65360 0.21050 0.37120 -0.01000
C 	C 	0.69320 0.97840 0.40590 0.11700
H 	H 	0.63070 0.03280 0.38890 -0.01800
C 	C 	0.72980 0.88960 0.38560 -0.13400
H 	H 	0.69210 0.88370 0.35490 0.10200
C 	C 	0.86900 0.24710 0.44040 0.16200
H 	H 	0.79770 0.28900 0.46060 -0.02500
C 	C 	0.86600 0.15200 0.43900 -0.33300
C 	C 	0.97330 0.09450 0.40770 0.16000
H 	H 	0.97690 0.02980 0.40580 -0.02700
C 	C 	0.60400 0.04160 0.63000 -0.13800
H 	H 	0.55800 0.99880 0.64910 0.09100
C 	C 	0.63300 0.04300 0.57530 0.11800
H 	H 	0.60450 0.00210 0.55700 -0.02300
C 	C 	0.48870 0.25410 0.88280 0.23100
C 	C 	0.42280 0.34840 0.90640 0.04700
C 	C 	0.35940 0.34580 0.95720 -0.15000
H 	H 	0.36580 0.28620 0.97820 0.09400
C 	C 	0.23030 0.41650 0.37800 0.22800
C 	C 	0.07680 0.60720 0.15460 0.04400
C 	C 	0.20620 0.58310 0.12900 -0.14600
H 	H 	0.28160 0.55940 0.14960 0.09700
C 	C 	0.96690 0.64380 0.12260 -0.13500
H 	H 	0.87680 0.66380 0.13910 0.10200
C 	C 	0.97110 0.28090 0.41360 -0.20000
H 	H 	0.97040 0.34500 0.41570 0.12300
C 	C 	0.07480 0.22110 0.38350 0.12100
H 	H 	0.14670 0.24360 0.36560 0.00600
C 	C 	0.07400 0.12930 0.37960 -0.19900
H 	H 	0.14300 0.08960 0.35750 0.10900
C 	C 	0.98800 0.65100 0.06830 0.13300
H 	H 	0.91280 0.67340 0.04760 -0.01900
C 	C 	0.22900 0.59220 0.07530 0.14300
H 	H 	0.31980 0.57580 0.05930 -0.02700
C 	C 	0.41320 0.43570 0.87480 -0.15300
H 	H 	0.45570 0.43710 0.83960 0.10400
C 	C 	0.34060 0.51950 0.89630 0.14500
H 	H 	0.33540 0.57890 0.87520 -0.02600
C 	C 	0.28480 0.43330 0.97720 0.13700
H 	H 	0.24050 0.43190 0.01210 -0.02600
C 	C 	0.23470 0.73450 0.94580 -0.34800
C 	C 	0.31110 0.76650 0.97600 0.16300
H 	H 	0.31500 0.74240 0.01240 -0.02400
C 	C 	0.38070 0.83110 0.95560 -0.17000
H 	H 	0.42710 0.85280 0.97840 0.11000
C 	C 	0.12210 0.62510 0.04310 -0.32400
C 	C 	0.27390 0.52160 0.94740 -0.33500
C 	C 	0.00060 0.67180 0.93430 -0.36700
C 	C 	0.96740 0.61350 0.90410 0.19900
H 	H 	0.02680 0.54990 0.90230 -0.04100
C 	C 	0.85390 0.64110 0.87650 -0.23000
H 	H 	0.83640 0.59750 0.85650 0.12200
C 	C 	0.32250 0.82880 0.87150 -0.16200
H 	H 	0.33390 0.84400 0.83420 0.10700
C 	C 	0.38370 0.86390 0.90360 0.06700
C 	C 	0.90800 0.76120 0.93750 0.17500
H 	H 	0.92450 0.80400 0.95830 -0.02800
C 	C 	0.76690 0.73240 0.87840 0.14300
H 	H 	0.69290 0.75390 0.85710 -0.00100
C 	C 	0.24090 0.76900 0.89390 0.16200
H 	H 	0.18830 0.75250 0.87130 -0.02600
C 	C 	0.78400 0.79300 0.91020 -0.20700
H 	H 	0.71880 0.85370 0.91450 0.12400
C 	C 	0.45040 0.93660 0.87900 0.21700
U 	U 	0.96412 0.42594 0.67477 0.00400
U 	U 	0.47479 0.90136 0.17389 0.00600
Si	Si	0.27810 0.88983 0.52764 0.83400
Si	Si	0.84280 0.36300 0.03082 0.88700
O 	O 	0.52200 0.05290 0.17080 -0.17400
O 	O 	0.44840 0.96030 0.26050 -0.17700
O 	O 	0.39000 0.82840 0.26110 -0.16300
O 	O 	0.51490 0.82360 0.09200 -0.18600
O 	O 	0.45860 0.74270 0.16590 -0.16800
O 	O 	0.53100 0.00350 0.09400 -0.17400
O 	O 	0.15160 0.27930 0.66300 -0.17000
O 	O 	0.05730 0.35770 0.59090 -0.17300
O 	O 	0.86510 0.52960 0.59470 -0.17900
O 	O 	0.76780 0.57280 0.67330 -0.17300
O 	O 	0.86350 0.47570 0.76150 -0.17200
O 	O 	0.04290 0.34670 0.76200 -0.16200
C 	C 	0.25550 0.83790 0.42540 0.13700
H 	H 	0.20360 0.79860 0.44400 -0.01900
C 	C 	0.29600 0.89570 0.45320 -0.30900
C 	C 	0.28820 0.83540 0.37100 -0.13900
H 	H 	0.26350 0.79220 0.35310 0.10700
C 	C 	0.35750 0.89690 0.34330 0.04200
C 	C 	0.25160 0.01190 0.54860 -0.30400
C 	C 	0.16560 0.09390 0.52330 0.12200
H 	H 	0.13170 0.08950 0.49140 -0.02100
C 	C 	0.12830 0.18180 0.54330 -0.13800
H 	H 	0.06810 0.23700 0.52590 0.09200
C 	C 	0.18080 0.18840 0.59020 0.04000
C 	C 	0.12940 0.27950 0.61600 0.22800
C 	C 	0.40200 0.89560 0.28560 0.23100
C 	C 	0.94630 0.40470 0.78730 0.22500
C 	C 	0.43450 0.80070 0.55240 -0.30100
C 	C 	0.55520 0.76270 0.52230 0.12600
H 	H 	0.56410 0.78540 0.48570 -0.01200
C 	C 	0.66450 0.69170 0.54420 -0.13000
H 	H 	0.74520 0.66600 0.52220 0.09600
C 	C 	0.65650 0.65840 0.59790 0.03100
C 	C 	0.53790 0.69880 0.63010 -0.12000
H 	H 	0.53250 0.68040 0.66730 0.09300
C 	C 	0.42850 0.76590 0.60710 0.10800
H 	H 	0.34640 0.78950 0.62880 -0.01000
C 	C 	0.30680 0.02160 0.59410 0.11700
H 	H 	0.36930 0.96720 0.61110 -0.01800
C 	C 	0.27020 0.11040 0.61440 -0.13400
H 	H 	0.30790 0.11630 0.64510 0.10200
C 	C 	0.13100 0.75290 0.55960 0.16200
H 	H 	0.20230 0.71100 0.53940 -0.02500
C 	C 	0.13400 0.84800 0.56100 -0.33300
C 	C 	0.02670 0.90550 0.59230 0.16000
H 	H 	0.02310 0.97020 0.59420 -0.02700
C 	C 	0.39600 0.95840 0.37000 -0.13800
H 	H 	0.44200 0.00120 0.35090 0.09100
C 	C 	0.36700 0.95700 0.42470 0.11800
H 	H 	0.39550 0.99790 0.44300 -0.02300
C 	C 	0.51130 0.74590 0.11720 0.23100
C 	C 	0.57720 0.65160 0.09360 0.04700
C 	C 	0.64060 0.65420 0.04280 -0.15000
H 	H 	0.63420 0.71380 0.02180 0.09400
C 	C 	0.76970 0.58350 0.62200 0.22800
C 	C 	0.92320 0.39280 0.84540 0.04400
C 	C 	0.79380 0.41690 0.87100 -0.14600
H 	H 	0.71840 0.44060 0.85040 0.09700
C 	C 	0.03310 0.35620 0.87740 -0.13500
H 	H 	0.12320 0.33620 0.86090 0.10200
C 	C 	0.02890 0.71910 0.58640 -0.20000
H 	H 	0.02960 0.65500 0.58430 0.12300
C 	C 	0.92520 0.77890 0.61650 0.12100
H 	H 	0.85330 0.75640 0.63440 0.00600
C 	C 	0.92600 0.87070 0.62040 -0.19900
H 	H 	0.85700 0.91040 0.64250 0.10900
C 	C 	0.01200 0.34900 0.93170 0.13300
H 	H 	0.08720 0.32660 0.95240 -0.01900
C 	C 	0.77100 0.40780 0.92470 0.14300
H 	H 	0.68020 0.42420 0.94070 -0.02700
C 	C 	0.58680 0.56430 0.12520 -0.15300
H 	H 	0.54430 0.56290 0.16040 0.10400
C 	C 	0.65940 0.48050 0.10370 0.14500
H 	H 	0.66460 0.42110 0.12480 -0.02600
C 	C 	0.71520 0.56670 0.02280 0.13700
H 	H 	0.75950 0.56810 0.98790 -0.02600
C 	C 	0.76530 0.26550 0.05420 -0.34800
C 	C 	0.68890 0.23350 0.02400 0.16300
H 	H 	0.68500 0.25760 0.98760 -0.02400
C 	C 	0.61930 0.16890 0.04440 -0.17000
H 	H 	0.57290 0.14720 0.02160 0.11000
C 	C 	0.87790 0.37490 0.95690 -0.32400
C 	C 	0.72610 0.47840 0.05260 -0.33500
C 	C 	0.99940 0.32820 0.06570 -0.36700
C 	C 	0.03260 0.38650 0.09590 0.19900
H 	H 	0.97320 0.45010 0.09770 -0.04100
C 	C 	0.14610 0.35890 0.12350 -0.23000
H 	H 	0.16360 0.40250 0.14350 0.12200
C 	C 	0.67750 0.17120 0.12850 -0.16200
H 	H 	0.66610 0.15600 0.16580 0.10700
C 	C 	0.61630 0.13610 0.09640 0.06700
C 	C 	0.09200 0.23880 0.06250 0.17500
H 	H 	0.07550 0.19600 0.04170 -0.02800
C 	C 	0.23310 0.26760 0.12160 0.14300
H 	H 	0.30710 0.24610 0.14290 -0.00100
C 	C 	0.75910 0.23100 0.10610 0.16200
H 	H 	0.81170 0.24750 0.12870 -0.02600
C 	C 	0.21600 0.20700 0.08980 -0.20700
H 	H 	0.28120 0.14630 0.08550 0.12400
C 	C 	0.54960 0.06340 0.12100 0.21700
