data_crystal

_cell_length_a 7.26300
_cell_length_b 24.54000
_cell_length_c 17.71800
_cell_angle_alpha 90.00000
_cell_angle_beta  90.72600
_cell_angle_gamma 90.00000

_symmetry_space_group_name_	'P 1'
_symmetry_space_group_name_H-M	'P 1'

loop_
_symmetry_equiv_pos_as_xyz
  x,y,z

loop_
_atom_site_label
_atom_site_type_symbol
_atom_site_fract_x
_atom_site_fract_y
_atom_site_fract_z
_atom_site_charge
U 	U 	0.41315 0.54457 0.13593 -0.00900
Si	Si	0.66630 0.80003 0.33482 0.78400
O 	O 	0.27740 0.97370 0.52040 -0.16800
O 	O 	0.13930 0.60210 0.13610 -0.19100
O 	O 	0.30570 0.60300 0.24110 -0.18800
O 	O 	0.36470 0.98190 0.40070 -0.18000
O 	O 	0.27130 0.97940 0.07760 -0.17600
O 	O 	0.07050 0.91330 0.06350 -0.19200
C 	C 	0.50230 0.91590 0.17380 -0.10700
H 	H 	0.55060 0.94920 0.15510 0.10300
C 	C 	0.60060 0.88620 0.22720 0.10100
H 	H 	0.71590 0.89980 0.24480 0.00400
C 	C 	0.53510 0.83690 0.25610 -0.26400
C 	C 	0.33070 0.89660 0.14730 0.02100
C 	C 	0.26530 0.84700 0.17250 -0.11300
H 	H 	0.15290 0.83280 0.15280 0.07900
C 	C 	0.36520 0.81790 0.22700 0.09000
H 	H 	0.31730 0.78430 0.24500 -0.00700
C 	C 	0.21960 0.93110 0.09390 0.23700
C 	C 	0.80390 0.74230 0.29270 -0.28100
C 	C 	0.77440 0.72040 0.22230 0.11700
H 	H 	0.67340 0.73330 0.19270 -0.01100
C 	C 	0.88730 0.68020 0.19280 -0.11900
H 	H 	0.86300 0.66600 0.14380 0.08700
C 	C 	0.03750 0.66060 0.23560 0.02500
C 	C 	0.06700 0.68140 0.30820 -0.11200
H 	H 	0.16570 0.66800 0.33860 0.08800
C 	C 	0.95210 0.72140 0.33530 0.10100
H 	H 	0.97410 0.73530 0.38460 -0.01000
C 	C 	0.16630 0.62020 0.20430 0.23600
C 	C 	0.83710 0.85030 0.37540 -0.27100
C 	C 	0.98660 0.86470 0.32900 0.09600
H 	H 	0.99770 0.84810 0.28080 -0.01100
C 	C 	0.11710 0.90240 0.35250 -0.11300
H 	H 	0.21350 0.91250 0.31970 0.09100
C 	C 	0.10750 0.92570 0.42480 0.03400
C 	C 	0.96270 0.91100 0.47190 -0.11600
H 	H 	0.95620 0.92600 0.52120 0.10900
C 	C 	0.82830 0.87460 0.44740 0.11200
H 	H 	0.72880 0.86590 0.47960 -0.00200
C 	C 	0.25740 0.96240 0.45010 0.23100
C 	C 	0.50220 0.77510 0.40720 -0.30000
C 	C 	0.47820 0.71840 0.42210 0.12200
H 	H 	0.55030 0.69220 0.39650 -0.00600
C 	C 	0.34670 0.70160 0.47520 -0.16800
H 	H 	0.32830 0.66380 0.48400 0.10500
C 	C 	0.24480 0.73920 0.51440 0.09900
H 	H 	0.15860 0.72740 0.55080 0.00100
C 	C 	0.26780 0.79340 0.50090 -0.18100
H 	H 	0.19620 0.81920 0.52760 0.10800
C 	C 	0.39470 0.81140 0.44840 0.14100
H 	H 	0.40880 0.84940 0.44040 -0.01500
U 	U 	0.58685 0.04457 0.36407 -0.01000
Si	Si	0.33370 0.30003 0.16518 0.78300
O 	O 	0.72260 0.47370 0.97960 -0.16900
O 	O 	0.86070 0.10210 0.36390 -0.19200
O 	O 	0.69430 0.10300 0.25890 -0.18900
O 	O 	0.63530 0.48190 0.09930 -0.18000
O 	O 	0.72870 0.47940 0.42240 -0.17700
O 	O 	0.92950 0.41330 0.43650 -0.19400
C 	C 	0.49770 0.41590 0.32620 -0.10800
H 	H 	0.44940 0.44920 0.34490 0.10300
C 	C 	0.39940 0.38620 0.27280 0.10100
H 	H 	0.28410 0.39980 0.25520 0.00500
C 	C 	0.46490 0.33690 0.24390 -0.26400
C 	C 	0.66930 0.39660 0.35270 0.02100
C 	C 	0.73470 0.34700 0.32750 -0.11300
H 	H 	0.84710 0.33280 0.34720 0.07800
C 	C 	0.63480 0.31790 0.27300 0.09000
H 	H 	0.68270 0.28430 0.25500 -0.00700
C 	C 	0.78040 0.43110 0.40610 0.23700
C 	C 	0.19610 0.24230 0.20730 -0.28100
C 	C 	0.22560 0.22040 0.27770 0.11700
H 	H 	0.32660 0.23330 0.30730 -0.01100
C 	C 	0.11270 0.18020 0.30720 -0.11800
H 	H 	0.13700 0.16600 0.35620 0.08700
C 	C 	0.96250 0.16060 0.26440 0.02400
C 	C 	0.93300 0.18140 0.19180 -0.11400
H 	H 	0.83430 0.16800 0.16140 0.08900
C 	C 	0.04790 0.22140 0.16470 0.10300
H 	H 	0.02590 0.23530 0.11540 -0.01100
C 	C 	0.83370 0.12020 0.29570 0.23600
C 	C 	0.16290 0.35030 0.12460 -0.27000
C 	C 	0.01340 0.36470 0.17100 0.09800
H 	H 	0.00230 0.34810 0.21920 -0.01100
C 	C 	0.88290 0.40240 0.14750 -0.11400
H 	H 	0.78650 0.41250 0.18030 0.09200
C 	C 	0.89250 0.42570 0.07520 0.03200
C 	C 	0.03730 0.41100 0.02810 -0.11100
H 	H 	0.04380 0.42600 0.97880 0.10800
C 	C 	0.17170 0.37460 0.05260 0.11100
H 	H 	0.27120 0.36590 0.02040 -0.00100
C 	C 	0.74260 0.46240 0.04990 0.23200
C 	C 	0.49780 0.27510 0.09280 -0.30000
C 	C 	0.52180 0.21840 0.07790 0.12200
H 	H 	0.44970 0.19220 0.10350 -0.00600
C 	C 	0.65330 0.20160 0.02480 -0.16900
H 	H 	0.67170 0.16380 0.01600 0.10500
C 	C 	0.75520 0.23920 0.98560 0.10000
H 	H 	0.84140 0.22740 0.94920 0.00100
C 	C 	0.73220 0.29340 0.99910 -0.18100
H 	H 	0.80380 0.31920 0.97240 0.10800
C 	C 	0.60530 0.31140 0.05160 0.14000
H 	H 	0.59120 0.34940 0.05960 -0.01500
U 	U 	0.58685 0.45543 0.86407 -0.01000
Si	Si	0.33370 0.19997 0.66518 0.78300
O 	O 	0.72260 0.02630 0.47960 -0.16800
O 	O 	0.86070 0.39790 0.86390 -0.19200
O 	O 	0.69430 0.39700 0.75890 -0.18900
O 	O 	0.63530 0.01810 0.59930 -0.18000
O 	O 	0.72870 0.02060 0.92240 -0.17700
O 	O 	0.92950 0.08670 0.93650 -0.19300
C 	C 	0.49770 0.08410 0.82620 -0.10800
H 	H 	0.44940 0.05080 0.84490 0.10300
C 	C 	0.39940 0.11380 0.77280 0.10100
H 	H 	0.28410 0.10020 0.75520 0.00400
C 	C 	0.46490 0.16310 0.74390 -0.26400
C 	C 	0.66930 0.10340 0.85270 0.02100
C 	C 	0.73470 0.15300 0.82750 -0.11300
H 	H 	0.84710 0.16720 0.84720 0.07800
C 	C 	0.63480 0.18210 0.77300 0.09000
H 	H 	0.68270 0.21570 0.75500 -0.00700
C 	C 	0.78040 0.06890 0.90610 0.23700
C 	C 	0.19610 0.25770 0.70730 -0.28100
C 	C 	0.22560 0.27960 0.77770 0.11700
H 	H 	0.32660 0.26670 0.80730 -0.01100
C 	C 	0.11270 0.31980 0.80720 -0.11800
H 	H 	0.13700 0.33400 0.85620 0.08700
C 	C 	0.96250 0.33940 0.76440 0.02400
C 	C 	0.93300 0.31860 0.69180 -0.11400
H 	H 	0.83430 0.33200 0.66140 0.08900
C 	C 	0.04790 0.27860 0.66470 0.10200
H 	H 	0.02590 0.26470 0.61540 -0.01100
C 	C 	0.83370 0.37980 0.79570 0.23600
C 	C 	0.16290 0.14970 0.62460 -0.27100
C 	C 	0.01340 0.13530 0.67100 0.09700
H 	H 	0.00230 0.15190 0.71920 -0.01100
C 	C 	0.88290 0.09760 0.64750 -0.11400
H 	H 	0.78650 0.08750 0.68030 0.09200
C 	C 	0.89250 0.07430 0.57520 0.03400
C 	C 	0.03730 0.08900 0.52810 -0.11500
H 	H 	0.04380 0.07400 0.47880 0.10900
C 	C 	0.17170 0.12540 0.55260 0.11200
H 	H 	0.27120 0.13410 0.52040 -0.00200
C 	C 	0.74260 0.03760 0.54990 0.23200
C 	C 	0.49780 0.22490 0.59280 -0.30000
C 	C 	0.52180 0.28160 0.57790 0.12200
H 	H 	0.44970 0.30780 0.60350 -0.00600
C 	C 	0.65330 0.29840 0.52480 -0.16800
H 	H 	0.67170 0.33620 0.51600 0.10500
C 	C 	0.75520 0.26080 0.48560 0.09900
H 	H 	0.84140 0.27260 0.44920 0.00100
C 	C 	0.73220 0.20660 0.49910 -0.18100
H 	H 	0.80380 0.18080 0.47240 0.10800
C 	C 	0.60530 0.18860 0.55160 0.14000
H 	H 	0.59120 0.15060 0.55960 -0.01500
U 	U 	0.41315 0.95543 0.63593 -0.01100
Si	Si	0.66630 0.69997 0.83482 0.78300
O 	O 	0.27740 0.52630 0.02040 -0.16800
O 	O 	0.13930 0.89790 0.63610 -0.19200
O 	O 	0.30570 0.89700 0.74110 -0.18900
O 	O 	0.36470 0.51810 0.90070 -0.18000
O 	O 	0.27130 0.52060 0.57760 -0.17700
O 	O 	0.07050 0.58670 0.56350 -0.19300
C 	C 	0.50230 0.58410 0.67380 -0.10800
H 	H 	0.55060 0.55080 0.65510 0.10300
C 	C 	0.60060 0.61380 0.72720 0.10100
H 	H 	0.71590 0.60020 0.74480 0.00400
C 	C 	0.53510 0.66310 0.75610 -0.26400
C 	C 	0.33070 0.60340 0.64730 0.02100
C 	C 	0.26530 0.65300 0.67250 -0.11300
H 	H 	0.15290 0.66720 0.65280 0.07800
C 	C 	0.36520 0.68210 0.72700 0.09000
H 	H 	0.31730 0.71570 0.74500 -0.00700
C 	C 	0.21960 0.56890 0.59390 0.23700
C 	C 	0.80390 0.75770 0.79270 -0.28100
C 	C 	0.77440 0.77960 0.72230 0.11700
H 	H 	0.67340 0.76670 0.69270 -0.01100
C 	C 	0.88730 0.81980 0.69280 -0.11900
H 	H 	0.86300 0.83400 0.64380 0.08700
C 	C 	0.03750 0.83940 0.73560 0.02400
C 	C 	0.06700 0.81860 0.80820 -0.11300
H 	H 	0.16570 0.83200 0.83860 0.08900
C 	C 	0.95210 0.77860 0.83530 0.10200
H 	H 	0.97410 0.76470 0.88460 -0.01100
C 	C 	0.16630 0.87980 0.70430 0.23600
C 	C 	0.83710 0.64970 0.87540 -0.27100
C 	C 	0.98660 0.63530 0.82900 0.09700
H 	H 	0.99770 0.65190 0.78080 -0.01100
C 	C 	0.11710 0.59760 0.85250 -0.11300
H 	H 	0.21350 0.58750 0.81970 0.09100
C 	C 	0.10750 0.57430 0.92480 0.03300
C 	C 	0.96270 0.58900 0.97190 -0.11400
H 	H 	0.95620 0.57400 0.02120 0.10900
C 	C 	0.82830 0.62540 0.94740 0.11100
H 	H 	0.72880 0.63410 0.97960 -0.00200
C 	C 	0.25740 0.53760 0.95010 0.23100
C 	C 	0.50220 0.72490 0.90720 -0.30000
C 	C 	0.47820 0.78160 0.92210 0.12200
H 	H 	0.55030 0.80780 0.89650 -0.00600
C 	C 	0.34670 0.79840 0.97520 -0.16900
H 	H 	0.32830 0.83620 0.98400 0.10500
C 	C 	0.24480 0.76080 0.01440 0.10000
H 	H 	0.15860 0.77260 0.05080 0.00100
C 	C 	0.26780 0.70660 0.00090 -0.18000
H 	H 	0.19620 0.68080 0.02760 0.10800
C 	C 	0.39470 0.68860 0.94840 0.14000
H 	H 	0.40880 0.65060 0.94040 -0.01500
U 	U 	-0.00000 0.00000 -0.00000 -0.01200
U 	U 	0.00000 0.50000 0.50000 -0.01200
