data_crystal

_cell_length_a 27.58100
_cell_length_b 27.58100
_cell_length_c 43.46800
_cell_angle_alpha 90.00000
_cell_angle_beta  90.00000
_cell_angle_gamma 90.00000

_symmetry_space_group_name_	'P 1'
_symmetry_space_group_name_H-M	'P 1'

loop_
_symmetry_equiv_pos_as_xyz
  x,y,z

loop_
_atom_site_label
_atom_site_type_symbol
_atom_site_fract_x
_atom_site_fract_y
_atom_site_fract_z
_atom_site_charge
C 	C 	0.22140 0.23970 0.27654 0.26400
C 	C 	0.20020 0.25890 0.25041 -0.24200
C 	C 	0.16150 0.23540 0.23670 0.11800
H 	H 	0.14690 0.24860 0.21880 -0.03700
C 	C 	0.14400 0.19260 0.24910 -0.17500
H 	H 	0.11750 0.17640 0.23970 0.07600
C 	C 	0.16530 0.17330 0.27520 0.09300
H 	H 	0.15330 0.14400 0.28370 -0.01500
C 	C 	0.20400 0.19690 0.28900 -0.18800
C 	C 	0.22730 0.16810 0.31750 0.33100
H 	H 	0.25620 0.18830 0.32290 -0.04700
C 	C 	0.20460 0.15660 0.34920 -0.63200
H 	H 	0.22880 0.14040 0.36220 0.18300
H 	H 	0.17660 0.13520 0.34640 0.20200
H 	H 	0.19420 0.18680 0.35900 0.21100
C 	C 	0.24990 0.12360 0.30200 -0.63400
H 	H 	0.26820 0.10490 0.31730 0.19600
H 	H 	0.27180 0.13420 0.28550 0.20900
H 	H 	0.22420 0.10330 0.29330 0.20100
C 	C 	0.22100 0.30490 0.23680 0.42900
H 	H 	0.25430 0.31310 0.24430 -0.08400
C 	C 	0.18400 0.34390 0.24230 -0.71800
H 	H 	0.17780 0.34680 0.26440 0.22900
H 	H 	0.15380 0.33550 0.23170 0.22100
H 	H 	0.19620 0.37480 0.23440 0.22200
C 	C 	0.21750 0.29920 0.20170 -0.68500
H 	H 	0.24120 0.27510 0.19470 0.21400
H 	H 	0.22420 0.33040 0.19180 0.21100
H 	H 	0.18480 0.28840 0.19620 0.21300
C 	C 	0.38570 0.49377 0.40065 0.32100
C 	C 	0.37180 0.53740 0.38898 -0.27400
C 	C 	0.37240 0.57750 0.40712 0.17500
H 	H 	0.36270 0.60790 0.39900 -0.05400
C 	C 	0.38690 0.57410 0.43694 -0.26300
H 	H 	0.38740 0.60210 0.44960 0.09100
C 	C 	0.40090 0.53050 0.44862 0.18600
H 	H 	0.41100 0.52810 0.46940 -0.06200
C 	C 	0.40030 0.49035 0.43047 -0.29900
C 	C 	0.41580 0.44140 0.44270 0.42200
H 	H 	0.40830 0.41540 0.42740 -0.07600
C 	C 	0.39430 0.42880 0.47410 -0.65400
H 	H 	0.35890 0.42850 0.47260 0.20500
H 	H 	0.40450 0.45310 0.48920 0.20100
H 	H 	0.40590 0.39670 0.48050 0.19800
C 	C 	0.46700 0.43630 0.45420 -0.67900
H 	H 	0.47230 0.40300 0.46120 0.21100
H 	H 	0.47230 0.45880 0.47130 0.20100
H 	H 	0.48970 0.44380 0.43750 0.21900
C 	C 	0.43160 0.22090 0.41250 0.04600
H 	H 	0.43240 0.19630 0.39730 0.02100
C 	C 	0.46100 0.21690 0.43770 -0.10200
H 	H 	0.48360 0.19100 0.43940 0.05400
C 	C 	0.45710 0.25240 0.46139 0.02600
C 	C 	0.48900 0.24770 0.48963 0.05500
C 	C 	0.42510 0.28870 0.45782 -0.09400
H 	H 	0.42130 0.31220 0.47360 0.04100
C 	C 	0.39770 0.29160 0.43120 0.03900
H 	H 	0.37550 0.31770 0.42860 0.00500
C 	C 	0.50640 0.26860 0.54157 0.06000
H 	H 	0.49700 0.28550 0.55970 -0.00300
C 	C 	0.47570 0.26850 0.51670 -0.13500
H 	H 	0.44470 0.28330 0.51840 0.06100
C 	C 	0.53170 0.22340 0.48880 -0.13000
H 	H 	0.54140 0.20640 0.47080 0.06300
C 	C 	0.56160 0.22370 0.51506 0.05200
H 	H 	0.59200 0.20760 0.51420 0.00500
N 	N 	0.40220 0.25840 0.40904 -0.06500
N 	N 	0.54860 0.24590 0.54115 -0.24100
O 	O 	0.38500 0.45330 0.38200 -0.27700
O 	O 	0.35572 0.36703 0.38072 -0.48100
O 	O 	0.31630 0.42930 0.34766 -0.50300
O 	O 	0.30470 0.43270 0.40489 -0.52300
O 	O 	0.26290 0.26010 0.28883 -0.26600
O 	O 	0.30130 0.28113 0.33846 -0.49200
O 	O 	0.26320 0.34626 0.30674 -0.50200
O 	O 	0.21050 0.28500 0.33312 -0.50500
O 	O 	0.37640 0.26350 0.38316 -0.28300
P 	P 	0.33592 0.41791 0.37871 0.51100
P 	P 	0.25889 0.29618 0.31924 0.50500
Zn	Zn	0.31648 0.30863 0.37807 1.18800
Zn	Zn	0.25624 0.40563 0.33049 1.18300
C 	C 	0.35650 0.54280 0.35550 0.38700
H 	H 	0.35910 0.51070 0.34500 -0.06100
C 	C 	0.30310 0.55880 0.35600 -0.67500
H 	H 	0.29150 0.56280 0.33480 0.20900
H 	H 	0.30020 0.58970 0.36690 0.20800
H 	H 	0.28360 0.53410 0.36640 0.20900
C 	C 	0.39310 0.57910 0.34040 -0.67500
H 	H 	0.42620 0.56680 0.34300 0.22300
H 	H 	0.39030 0.61080 0.35050 0.21300
H 	H 	0.38570 0.58240 0.31850 0.21400
C 	C 	0.72140 0.73970 0.77654 0.26400
C 	C 	0.70020 0.75890 0.75041 -0.24200
C 	C 	0.66150 0.73540 0.73670 0.11800
H 	H 	0.64690 0.74860 0.71880 -0.03700
C 	C 	0.64400 0.69260 0.74910 -0.17500
H 	H 	0.61750 0.67640 0.73970 0.07600
C 	C 	0.66530 0.67330 0.77520 0.09300
H 	H 	0.65330 0.64400 0.78370 -0.01500
C 	C 	0.70400 0.69690 0.78900 -0.18800
C 	C 	0.72730 0.66810 0.81750 0.33100
H 	H 	0.75620 0.68830 0.82290 -0.04700
C 	C 	0.70460 0.65660 0.84920 -0.63200
H 	H 	0.72880 0.64040 0.86220 0.18300
H 	H 	0.67660 0.63520 0.84640 0.20200
H 	H 	0.69420 0.68680 0.85900 0.21100
C 	C 	0.74990 0.62360 0.80200 -0.63400
H 	H 	0.76820 0.60490 0.81730 0.19600
H 	H 	0.77180 0.63420 0.78550 0.20900
H 	H 	0.72420 0.60330 0.79330 0.20100
C 	C 	0.72100 0.80490 0.73680 0.42900
H 	H 	0.75430 0.81310 0.74430 -0.08400
C 	C 	0.68400 0.84390 0.74230 -0.71800
H 	H 	0.67780 0.84680 0.76440 0.22900
H 	H 	0.65380 0.83550 0.73170 0.22100
H 	H 	0.69620 0.87480 0.73440 0.22200
C 	C 	0.71750 0.79920 0.70170 -0.68500
H 	H 	0.74120 0.77510 0.69470 0.21400
H 	H 	0.72420 0.83040 0.69180 0.21100
H 	H 	0.68480 0.78840 0.69620 0.21300
C 	C 	0.88570 0.99377 0.90065 0.32100
C 	C 	0.87180 0.03740 0.88898 -0.27400
C 	C 	0.87240 0.07750 0.90712 0.17500
H 	H 	0.86270 0.10790 0.89900 -0.05400
C 	C 	0.88690 0.07410 0.93694 -0.26300
H 	H 	0.88740 0.10210 0.94960 0.09100
C 	C 	0.90090 0.03050 0.94862 0.18600
H 	H 	0.91100 0.02810 0.96940 -0.06200
C 	C 	0.90030 0.99035 0.93047 -0.29900
C 	C 	0.91580 0.94140 0.94270 0.42200
H 	H 	0.90830 0.91540 0.92740 -0.07600
C 	C 	0.89430 0.92880 0.97410 -0.65400
H 	H 	0.85890 0.92850 0.97260 0.20500
H 	H 	0.90450 0.95310 0.98920 0.20100
H 	H 	0.90590 0.89670 0.98050 0.19800
C 	C 	0.96700 0.93630 0.95420 -0.67900
H 	H 	0.97230 0.90300 0.96120 0.21100
H 	H 	0.97230 0.95880 0.97130 0.20100
H 	H 	0.98970 0.94380 0.93750 0.21900
C 	C 	0.93160 0.72090 0.91250 0.04600
H 	H 	0.93240 0.69630 0.89730 0.02100
C 	C 	0.96100 0.71690 0.93770 -0.10200
H 	H 	0.98360 0.69100 0.93940 0.05400
C 	C 	0.95710 0.75240 0.96139 0.02600
C 	C 	0.98900 0.74770 0.98963 0.05500
C 	C 	0.92510 0.78870 0.95782 -0.09400
H 	H 	0.92130 0.81220 0.97360 0.04100
C 	C 	0.89770 0.79160 0.93120 0.03900
H 	H 	0.87550 0.81770 0.92860 0.00500
C 	C 	0.00640 0.76860 0.04157 0.06000
H 	H 	0.99700 0.78550 0.05970 -0.00300
C 	C 	0.97570 0.76850 0.01670 -0.13500
H 	H 	0.94470 0.78330 0.01840 0.06100
C 	C 	0.03170 0.72340 0.98880 -0.13000
H 	H 	0.04140 0.70640 0.97080 0.06300
C 	C 	0.06160 0.72370 0.01506 0.05200
H 	H 	0.09200 0.70760 0.01420 0.00500
N 	N 	0.90220 0.75840 0.90904 -0.06500
N 	N 	0.04860 0.74590 0.04115 -0.24100
O 	O 	0.88500 0.95330 0.88200 -0.27700
O 	O 	0.85572 0.86703 0.88072 -0.48100
O 	O 	0.81630 0.92930 0.84766 -0.50300
O 	O 	0.80470 0.93270 0.90489 -0.52300
O 	O 	0.76290 0.76010 0.78883 -0.26600
O 	O 	0.80130 0.78113 0.83846 -0.49200
O 	O 	0.76320 0.84626 0.80674 -0.50200
O 	O 	0.71050 0.78500 0.83312 -0.50500
O 	O 	0.87640 0.76350 0.88316 -0.28300
P 	P 	0.83592 0.91791 0.87871 0.51100
P 	P 	0.75889 0.79618 0.81924 0.50500
Zn	Zn	0.81648 0.80863 0.87807 1.18800
Zn	Zn	0.75624 0.90563 0.83049 1.18300
C 	C 	0.85650 0.04280 0.85550 0.38700
H 	H 	0.85910 0.01070 0.84500 -0.06100
C 	C 	0.80310 0.05880 0.85600 -0.67500
H 	H 	0.79150 0.06280 0.83480 0.20900
H 	H 	0.80020 0.08970 0.86690 0.20800
H 	H 	0.78360 0.03410 0.86640 0.20900
C 	C 	0.89310 0.07910 0.84040 -0.67500
H 	H 	0.92620 0.06680 0.84300 0.22300
H 	H 	0.89030 0.11080 0.85050 0.21300
H 	H 	0.88570 0.08240 0.81850 0.21400
C 	C 	0.77860 0.76030 0.27654 0.26400
C 	C 	0.79980 0.74110 0.25041 -0.24200
C 	C 	0.83850 0.76460 0.23670 0.11800
H 	H 	0.85310 0.75140 0.21880 -0.03700
C 	C 	0.85600 0.80740 0.24910 -0.17500
H 	H 	0.88250 0.82360 0.23970 0.07600
C 	C 	0.83470 0.82670 0.27520 0.09300
H 	H 	0.84670 0.85600 0.28370 -0.01500
C 	C 	0.79600 0.80310 0.28900 -0.18800
C 	C 	0.77270 0.83190 0.31750 0.33100
H 	H 	0.74380 0.81170 0.32290 -0.04700
C 	C 	0.79540 0.84340 0.34920 -0.63200
H 	H 	0.77120 0.85960 0.36220 0.18300
H 	H 	0.82340 0.86480 0.34640 0.20200
H 	H 	0.80580 0.81320 0.35900 0.21100
C 	C 	0.75010 0.87640 0.30200 -0.63400
H 	H 	0.73180 0.89510 0.31730 0.19600
H 	H 	0.72820 0.86580 0.28550 0.20900
H 	H 	0.77580 0.89670 0.29330 0.20100
C 	C 	0.77900 0.69510 0.23680 0.42900
H 	H 	0.74570 0.68690 0.24430 -0.08400
C 	C 	0.81600 0.65610 0.24230 -0.71800
H 	H 	0.82220 0.65320 0.26440 0.22900
H 	H 	0.84620 0.66450 0.23170 0.22100
H 	H 	0.80380 0.62520 0.23440 0.22200
C 	C 	0.78250 0.70080 0.20170 -0.68500
H 	H 	0.75880 0.72490 0.19470 0.21400
H 	H 	0.77580 0.66960 0.19180 0.21100
H 	H 	0.81520 0.71160 0.19620 0.21300
C 	C 	0.61430 0.50623 0.40065 0.32100
C 	C 	0.62820 0.46260 0.38898 -0.27400
C 	C 	0.62760 0.42250 0.40712 0.17500
H 	H 	0.63730 0.39210 0.39900 -0.05400
C 	C 	0.61310 0.42590 0.43694 -0.26300
H 	H 	0.61260 0.39790 0.44960 0.09100
C 	C 	0.59910 0.46950 0.44862 0.18600
H 	H 	0.58900 0.47190 0.46940 -0.06200
C 	C 	0.59970 0.50965 0.43047 -0.29900
C 	C 	0.58420 0.55860 0.44270 0.42200
H 	H 	0.59170 0.58460 0.42740 -0.07600
C 	C 	0.60570 0.57120 0.47410 -0.65400
H 	H 	0.64110 0.57150 0.47260 0.20500
H 	H 	0.59550 0.54690 0.48920 0.20100
H 	H 	0.59410 0.60330 0.48050 0.19800
C 	C 	0.53300 0.56370 0.45420 -0.67900
H 	H 	0.52770 0.59700 0.46120 0.21100
H 	H 	0.52770 0.54120 0.47130 0.20100
H 	H 	0.51030 0.55620 0.43750 0.21900
C 	C 	0.56840 0.77910 0.41250 0.04600
H 	H 	0.56760 0.80370 0.39730 0.02100
C 	C 	0.53900 0.78310 0.43770 -0.10200
H 	H 	0.51640 0.80900 0.43940 0.05400
C 	C 	0.54290 0.74760 0.46139 0.02600
C 	C 	0.51100 0.75230 0.48963 0.05500
C 	C 	0.57490 0.71130 0.45782 -0.09400
H 	H 	0.57870 0.68780 0.47360 0.04100
C 	C 	0.60230 0.70840 0.43120 0.03900
H 	H 	0.62450 0.68230 0.42860 0.00500
C 	C 	0.49360 0.73140 0.54157 0.06000
H 	H 	0.50300 0.71450 0.55970 -0.00300
C 	C 	0.52430 0.73150 0.51670 -0.13500
H 	H 	0.55530 0.71670 0.51840 0.06100
C 	C 	0.46830 0.77660 0.48880 -0.13000
H 	H 	0.45860 0.79360 0.47080 0.06300
C 	C 	0.43840 0.77630 0.51506 0.05200
H 	H 	0.40800 0.79240 0.51420 0.00500
N 	N 	0.59780 0.74160 0.40904 -0.06500
N 	N 	0.45140 0.75410 0.54115 -0.24100
O 	O 	0.61500 0.54670 0.38200 -0.27700
O 	O 	0.64428 0.63297 0.38072 -0.48100
O 	O 	0.68370 0.57070 0.34766 -0.50300
O 	O 	0.69530 0.56730 0.40489 -0.52300
O 	O 	0.73710 0.73990 0.28883 -0.26600
O 	O 	0.69870 0.71887 0.33846 -0.49200
O 	O 	0.73680 0.65374 0.30674 -0.50200
O 	O 	0.78950 0.71500 0.33312 -0.50500
O 	O 	0.62360 0.73650 0.38316 -0.28300
P 	P 	0.66408 0.58209 0.37871 0.51100
P 	P 	0.74111 0.70382 0.31924 0.50500
Zn	Zn	0.68352 0.69137 0.37807 1.18800
Zn	Zn	0.74376 0.59437 0.33049 1.18300
C 	C 	0.64350 0.45720 0.35550 0.38700
H 	H 	0.64090 0.48930 0.34500 -0.06100
C 	C 	0.69690 0.44120 0.35600 -0.67500
H 	H 	0.70850 0.43720 0.33480 0.20900
H 	H 	0.69980 0.41030 0.36690 0.20800
H 	H 	0.71640 0.46590 0.36640 0.20900
C 	C 	0.60690 0.42090 0.34040 -0.67500
H 	H 	0.57380 0.43320 0.34300 0.22300
H 	H 	0.60970 0.38920 0.35050 0.21300
H 	H 	0.61430 0.41760 0.31850 0.21400
C 	C 	0.27860 0.26030 0.77654 0.26400
C 	C 	0.29980 0.24110 0.75041 -0.24200
C 	C 	0.33850 0.26460 0.73670 0.11800
H 	H 	0.35310 0.25140 0.71880 -0.03700
C 	C 	0.35600 0.30740 0.74910 -0.17500
H 	H 	0.38250 0.32360 0.73970 0.07600
C 	C 	0.33470 0.32670 0.77520 0.09300
H 	H 	0.34670 0.35600 0.78370 -0.01500
C 	C 	0.29600 0.30310 0.78900 -0.18800
C 	C 	0.27270 0.33190 0.81750 0.33100
H 	H 	0.24380 0.31170 0.82290 -0.04700
C 	C 	0.29540 0.34340 0.84920 -0.63200
H 	H 	0.27120 0.35960 0.86220 0.18300
H 	H 	0.32340 0.36480 0.84640 0.20200
H 	H 	0.30580 0.31320 0.85900 0.21100
C 	C 	0.25010 0.37640 0.80200 -0.63400
H 	H 	0.23180 0.39510 0.81730 0.19600
H 	H 	0.22820 0.36580 0.78550 0.20900
H 	H 	0.27580 0.39670 0.79330 0.20100
C 	C 	0.27900 0.19510 0.73680 0.42900
H 	H 	0.24570 0.18690 0.74430 -0.08400
C 	C 	0.31600 0.15610 0.74230 -0.71800
H 	H 	0.32220 0.15320 0.76440 0.22900
H 	H 	0.34620 0.16450 0.73170 0.22100
H 	H 	0.30380 0.12520 0.73440 0.22200
C 	C 	0.28250 0.20080 0.70170 -0.68500
H 	H 	0.25880 0.22490 0.69470 0.21400
H 	H 	0.27580 0.16960 0.69180 0.21100
H 	H 	0.31520 0.21160 0.69620 0.21300
C 	C 	0.11430 0.00623 0.90065 0.32100
C 	C 	0.12820 0.96260 0.88898 -0.27400
C 	C 	0.12760 0.92250 0.90712 0.17500
H 	H 	0.13730 0.89210 0.89900 -0.05400
C 	C 	0.11310 0.92590 0.93694 -0.26300
H 	H 	0.11260 0.89790 0.94960 0.09100
C 	C 	0.09910 0.96950 0.94862 0.18600
H 	H 	0.08900 0.97190 0.96940 -0.06200
C 	C 	0.09970 0.00965 0.93047 -0.29900
C 	C 	0.08420 0.05860 0.94270 0.42200
H 	H 	0.09170 0.08460 0.92740 -0.07600
C 	C 	0.10570 0.07120 0.97410 -0.65400
H 	H 	0.14110 0.07150 0.97260 0.20500
H 	H 	0.09550 0.04690 0.98920 0.20100
H 	H 	0.09410 0.10330 0.98050 0.19800
C 	C 	0.03300 0.06370 0.95420 -0.67900
H 	H 	0.02770 0.09700 0.96120 0.21100
H 	H 	0.02770 0.04120 0.97130 0.20100
H 	H 	0.01030 0.05620 0.93750 0.21900
C 	C 	0.06840 0.27910 0.91250 0.04600
H 	H 	0.06760 0.30370 0.89730 0.02100
C 	C 	0.03900 0.28310 0.93770 -0.10200
H 	H 	0.01640 0.30900 0.93940 0.05400
C 	C 	0.04290 0.24760 0.96139 0.02600
C 	C 	0.01100 0.25230 0.98963 0.05500
C 	C 	0.07490 0.21130 0.95782 -0.09400
H 	H 	0.07870 0.18780 0.97360 0.04100
C 	C 	0.10230 0.20840 0.93120 0.03900
H 	H 	0.12450 0.18230 0.92860 0.00500
C 	C 	0.99360 0.23140 0.04157 0.06000
H 	H 	0.00300 0.21450 0.05970 -0.00300
C 	C 	0.02430 0.23150 0.01670 -0.13500
H 	H 	0.05530 0.21670 0.01840 0.06100
C 	C 	0.96830 0.27660 0.98880 -0.13000
H 	H 	0.95860 0.29360 0.97080 0.06300
C 	C 	0.93840 0.27630 0.01506 0.05200
H 	H 	0.90800 0.29240 0.01420 0.00500
N 	N 	0.09780 0.24160 0.90904 -0.06500
N 	N 	0.95140 0.25410 0.04115 -0.24100
O 	O 	0.11500 0.04670 0.88200 -0.27700
O 	O 	0.14428 0.13297 0.88072 -0.48100
O 	O 	0.18370 0.07070 0.84766 -0.50300
O 	O 	0.19530 0.06730 0.90489 -0.52300
O 	O 	0.23710 0.23990 0.78883 -0.26600
O 	O 	0.19870 0.21887 0.83846 -0.49200
O 	O 	0.23680 0.15374 0.80674 -0.50200
O 	O 	0.28950 0.21500 0.83312 -0.50500
O 	O 	0.12360 0.23650 0.88316 -0.28300
P 	P 	0.16408 0.08209 0.87871 0.51100
P 	P 	0.24111 0.20382 0.81924 0.50500
Zn	Zn	0.18352 0.19137 0.87807 1.18800
Zn	Zn	0.24376 0.09437 0.83049 1.18300
C 	C 	0.14350 0.95720 0.85550 0.38700
H 	H 	0.14090 0.98930 0.84500 -0.06100
C 	C 	0.19690 0.94120 0.85600 -0.67500
H 	H 	0.20850 0.93720 0.83480 0.20900
H 	H 	0.19980 0.91030 0.86690 0.20800
H 	H 	0.21640 0.96590 0.86640 0.20900
C 	C 	0.10690 0.92090 0.84040 -0.67500
H 	H 	0.07380 0.93320 0.84300 0.22300
H 	H 	0.10970 0.88920 0.85050 0.21300
H 	H 	0.11430 0.91760 0.81850 0.21400
C 	C 	0.23970 0.77860 0.72346 0.26400
C 	C 	0.25890 0.79980 0.74959 -0.24200
C 	C 	0.23540 0.83850 0.76330 0.11800
H 	H 	0.24860 0.85310 0.78120 -0.03700
C 	C 	0.19260 0.85600 0.75090 -0.17500
H 	H 	0.17640 0.88250 0.76030 0.07600
C 	C 	0.17330 0.83470 0.72480 0.09300
H 	H 	0.14400 0.84670 0.71630 -0.01500
C 	C 	0.19690 0.79600 0.71100 -0.18800
C 	C 	0.16810 0.77270 0.68250 0.33100
H 	H 	0.18830 0.74380 0.67710 -0.04700
C 	C 	0.15660 0.79540 0.65080 -0.63200
H 	H 	0.14040 0.77120 0.63780 0.18300
H 	H 	0.13520 0.82340 0.65360 0.20200
H 	H 	0.18680 0.80580 0.64100 0.21100
C 	C 	0.12360 0.75010 0.69800 -0.63400
H 	H 	0.10490 0.73180 0.68270 0.19600
H 	H 	0.13420 0.72820 0.71450 0.20900
H 	H 	0.10330 0.77580 0.70670 0.20100
C 	C 	0.30490 0.77900 0.76320 0.42900
H 	H 	0.31310 0.74570 0.75570 -0.08400
C 	C 	0.34390 0.81600 0.75770 -0.71800
H 	H 	0.34680 0.82220 0.73560 0.22900
H 	H 	0.33550 0.84620 0.76830 0.22100
H 	H 	0.37480 0.80380 0.76560 0.22200
C 	C 	0.29920 0.78250 0.79830 -0.68500
H 	H 	0.27510 0.75880 0.80530 0.21400
H 	H 	0.33040 0.77580 0.80820 0.21100
H 	H 	0.28840 0.81520 0.80380 0.21300
C 	C 	0.49377 0.61430 0.59935 0.32100
C 	C 	0.53740 0.62820 0.61102 -0.27400
C 	C 	0.57750 0.62760 0.59288 0.17500
H 	H 	0.60790 0.63730 0.60100 -0.05400
C 	C 	0.57410 0.61310 0.56306 -0.26300
H 	H 	0.60210 0.61260 0.55040 0.09100
C 	C 	0.53050 0.59910 0.55138 0.18600
H 	H 	0.52810 0.58900 0.53060 -0.06200
C 	C 	0.49035 0.59970 0.56953 -0.29900
C 	C 	0.44140 0.58420 0.55730 0.42200
H 	H 	0.41540 0.59170 0.57260 -0.07600
C 	C 	0.42880 0.60570 0.52590 -0.65400
H 	H 	0.42850 0.64110 0.52740 0.20500
H 	H 	0.45310 0.59550 0.51080 0.20100
H 	H 	0.39670 0.59410 0.51950 0.19800
C 	C 	0.43630 0.53300 0.54580 -0.67900
H 	H 	0.40300 0.52770 0.53880 0.21100
H 	H 	0.45880 0.52770 0.52870 0.20100
H 	H 	0.44380 0.51030 0.56250 0.21900
C 	C 	0.22090 0.56840 0.58750 0.04600
H 	H 	0.19630 0.56760 0.60270 0.02100
C 	C 	0.21690 0.53900 0.56230 -0.10200
H 	H 	0.19100 0.51640 0.56060 0.05400
C 	C 	0.25240 0.54290 0.53861 0.02600
C 	C 	0.24770 0.51100 0.51037 0.05500
C 	C 	0.28870 0.57490 0.54218 -0.09400
H 	H 	0.31220 0.57870 0.52640 0.04100
C 	C 	0.29160 0.60230 0.56880 0.03900
H 	H 	0.31770 0.62450 0.57140 0.00500
C 	C 	0.26860 0.49360 0.45843 0.06000
H 	H 	0.28550 0.50300 0.44030 -0.00300
C 	C 	0.26850 0.52430 0.48330 -0.13500
H 	H 	0.28330 0.55530 0.48160 0.06100
C 	C 	0.22340 0.46830 0.51120 -0.13000
H 	H 	0.20640 0.45860 0.52920 0.06300
C 	C 	0.22370 0.43840 0.48494 0.05200
H 	H 	0.20760 0.40800 0.48580 0.00500
N 	N 	0.25840 0.59780 0.59096 -0.06500
N 	N 	0.24590 0.45140 0.45885 -0.24100
O 	O 	0.45330 0.61500 0.61800 -0.27700
O 	O 	0.36703 0.64428 0.61928 -0.48100
O 	O 	0.42930 0.68370 0.65234 -0.50300
O 	O 	0.43270 0.69530 0.59511 -0.52300
O 	O 	0.26010 0.73710 0.71117 -0.26600
O 	O 	0.28113 0.69870 0.66154 -0.49200
O 	O 	0.34626 0.73680 0.69326 -0.50200
O 	O 	0.28500 0.78950 0.66688 -0.50500
O 	O 	0.26350 0.62360 0.61684 -0.28300
P 	P 	0.41791 0.66408 0.62129 0.51100
P 	P 	0.29618 0.74111 0.68076 0.50500
Zn	Zn	0.30863 0.68352 0.62193 1.18800
Zn	Zn	0.40563 0.74376 0.66951 1.18300
C 	C 	0.54280 0.64350 0.64450 0.38700
H 	H 	0.51070 0.64090 0.65500 -0.06100
C 	C 	0.55880 0.69690 0.64400 -0.67500
H 	H 	0.56280 0.70850 0.66520 0.20900
H 	H 	0.58970 0.69980 0.63310 0.20800
H 	H 	0.53410 0.71640 0.63360 0.20900
C 	C 	0.57910 0.60690 0.65960 -0.67500
H 	H 	0.56680 0.57380 0.65700 0.22300
H 	H 	0.61080 0.60970 0.64950 0.21300
H 	H 	0.58240 0.61430 0.68150 0.21400
C 	C 	0.73970 0.27860 0.22346 0.26400
C 	C 	0.75890 0.29980 0.24959 -0.24200
C 	C 	0.73540 0.33850 0.26330 0.11800
H 	H 	0.74860 0.35310 0.28120 -0.03700
C 	C 	0.69260 0.35600 0.25090 -0.17500
H 	H 	0.67640 0.38250 0.26030 0.07600
C 	C 	0.67330 0.33470 0.22480 0.09300
H 	H 	0.64400 0.34670 0.21630 -0.01500
C 	C 	0.69690 0.29600 0.21100 -0.18800
C 	C 	0.66810 0.27270 0.18250 0.33100
H 	H 	0.68830 0.24380 0.17710 -0.04700
C 	C 	0.65660 0.29540 0.15080 -0.63200
H 	H 	0.64040 0.27120 0.13780 0.18300
H 	H 	0.63520 0.32340 0.15360 0.20200
H 	H 	0.68680 0.30580 0.14100 0.21100
C 	C 	0.62360 0.25010 0.19800 -0.63400
H 	H 	0.60490 0.23180 0.18270 0.19600
H 	H 	0.63420 0.22820 0.21450 0.20900
H 	H 	0.60330 0.27580 0.20670 0.20100
C 	C 	0.80490 0.27900 0.26320 0.42900
H 	H 	0.81310 0.24570 0.25570 -0.08400
C 	C 	0.84390 0.31600 0.25770 -0.71800
H 	H 	0.84680 0.32220 0.23560 0.22900
H 	H 	0.83550 0.34620 0.26830 0.22100
H 	H 	0.87480 0.30380 0.26560 0.22200
C 	C 	0.79920 0.28250 0.29830 -0.68500
H 	H 	0.77510 0.25880 0.30530 0.21400
H 	H 	0.83040 0.27580 0.30820 0.21100
H 	H 	0.78840 0.31520 0.30380 0.21300
C 	C 	0.99377 0.11430 0.09935 0.32100
C 	C 	0.03740 0.12820 0.11102 -0.27400
C 	C 	0.07750 0.12760 0.09288 0.17500
H 	H 	0.10790 0.13730 0.10100 -0.05400
C 	C 	0.07410 0.11310 0.06306 -0.26300
H 	H 	0.10210 0.11260 0.05040 0.09100
C 	C 	0.03050 0.09910 0.05138 0.18600
H 	H 	0.02810 0.08900 0.03060 -0.06200
C 	C 	0.99035 0.09970 0.06953 -0.29900
C 	C 	0.94140 0.08420 0.05730 0.42200
H 	H 	0.91540 0.09170 0.07260 -0.07600
C 	C 	0.92880 0.10570 0.02590 -0.65400
H 	H 	0.92850 0.14110 0.02740 0.20500
H 	H 	0.95310 0.09550 0.01080 0.20100
H 	H 	0.89670 0.09410 0.01950 0.19800
C 	C 	0.93630 0.03300 0.04580 -0.67900
H 	H 	0.90300 0.02770 0.03880 0.21100
H 	H 	0.95880 0.02770 0.02870 0.20100
H 	H 	0.94380 0.01030 0.06250 0.21900
C 	C 	0.72090 0.06840 0.08750 0.04600
H 	H 	0.69630 0.06760 0.10270 0.02100
C 	C 	0.71690 0.03900 0.06230 -0.10200
H 	H 	0.69100 0.01640 0.06060 0.05400
C 	C 	0.75240 0.04290 0.03861 0.02600
C 	C 	0.74770 0.01100 0.01037 0.05500
C 	C 	0.78870 0.07490 0.04218 -0.09400
H 	H 	0.81220 0.07870 0.02640 0.04100
C 	C 	0.79160 0.10230 0.06880 0.03900
H 	H 	0.81770 0.12450 0.07140 0.00500
C 	C 	0.76860 0.99360 0.95843 0.06000
H 	H 	0.78550 0.00300 0.94030 -0.00300
C 	C 	0.76850 0.02430 0.98330 -0.13500
H 	H 	0.78330 0.05530 0.98160 0.06100
C 	C 	0.72340 0.96830 0.01120 -0.13000
H 	H 	0.70640 0.95860 0.02920 0.06300
C 	C 	0.72370 0.93840 0.98494 0.05200
H 	H 	0.70760 0.90800 0.98580 0.00500
N 	N 	0.75840 0.09780 0.09096 -0.06500
N 	N 	0.74590 0.95140 0.95885 -0.24100
O 	O 	0.95330 0.11500 0.11800 -0.27700
O 	O 	0.86703 0.14428 0.11928 -0.48100
O 	O 	0.92930 0.18370 0.15234 -0.50300
O 	O 	0.93270 0.19530 0.09511 -0.52300
O 	O 	0.76010 0.23710 0.21117 -0.26600
O 	O 	0.78113 0.19870 0.16154 -0.49200
O 	O 	0.84626 0.23680 0.19326 -0.50200
O 	O 	0.78500 0.28950 0.16688 -0.50500
O 	O 	0.76350 0.12360 0.11684 -0.28300
P 	P 	0.91791 0.16408 0.12129 0.51100
P 	P 	0.79618 0.24111 0.18076 0.50500
Zn	Zn	0.80863 0.18352 0.12193 1.18800
Zn	Zn	0.90563 0.24376 0.16951 1.18300
C 	C 	0.04280 0.14350 0.14450 0.38700
H 	H 	0.01070 0.14090 0.15500 -0.06100
C 	C 	0.05880 0.19690 0.14400 -0.67500
H 	H 	0.06280 0.20850 0.16520 0.20900
H 	H 	0.08970 0.19980 0.13310 0.20800
H 	H 	0.03410 0.21640 0.13360 0.20900
C 	C 	0.07910 0.10690 0.15960 -0.67500
H 	H 	0.06680 0.07380 0.15700 0.22300
H 	H 	0.11080 0.10970 0.14950 0.21300
H 	H 	0.08240 0.11430 0.18150 0.21400
C 	C 	0.76030 0.22140 0.72346 0.26400
C 	C 	0.74110 0.20020 0.74959 -0.24200
C 	C 	0.76460 0.16150 0.76330 0.11800
H 	H 	0.75140 0.14690 0.78120 -0.03700
C 	C 	0.80740 0.14400 0.75090 -0.17500
H 	H 	0.82360 0.11750 0.76030 0.07600
C 	C 	0.82670 0.16530 0.72480 0.09300
H 	H 	0.85600 0.15330 0.71630 -0.01500
C 	C 	0.80310 0.20400 0.71100 -0.18800
C 	C 	0.83190 0.22730 0.68250 0.33100
H 	H 	0.81170 0.25620 0.67710 -0.04700
C 	C 	0.84340 0.20460 0.65080 -0.63200
H 	H 	0.85960 0.22880 0.63780 0.18300
H 	H 	0.86480 0.17660 0.65360 0.20200
H 	H 	0.81320 0.19420 0.64100 0.21100
C 	C 	0.87640 0.24990 0.69800 -0.63400
H 	H 	0.89510 0.26820 0.68270 0.19600
H 	H 	0.86580 0.27180 0.71450 0.20900
H 	H 	0.89670 0.22420 0.70670 0.20100
C 	C 	0.69510 0.22100 0.76320 0.42900
H 	H 	0.68690 0.25430 0.75570 -0.08400
C 	C 	0.65610 0.18400 0.75770 -0.71800
H 	H 	0.65320 0.17780 0.73560 0.22900
H 	H 	0.66450 0.15380 0.76830 0.22100
H 	H 	0.62520 0.19620 0.76560 0.22200
C 	C 	0.70080 0.21750 0.79830 -0.68500
H 	H 	0.72490 0.24120 0.80530 0.21400
H 	H 	0.66960 0.22420 0.80820 0.21100
H 	H 	0.71160 0.18480 0.80380 0.21300
C 	C 	0.50623 0.38570 0.59935 0.32100
C 	C 	0.46260 0.37180 0.61102 -0.27400
C 	C 	0.42250 0.37240 0.59288 0.17500
H 	H 	0.39210 0.36270 0.60100 -0.05400
C 	C 	0.42590 0.38690 0.56306 -0.26300
H 	H 	0.39790 0.38740 0.55040 0.09100
C 	C 	0.46950 0.40090 0.55138 0.18600
H 	H 	0.47190 0.41100 0.53060 -0.06200
C 	C 	0.50965 0.40030 0.56953 -0.29900
C 	C 	0.55860 0.41580 0.55730 0.42200
H 	H 	0.58460 0.40830 0.57260 -0.07600
C 	C 	0.57120 0.39430 0.52590 -0.65400
H 	H 	0.57150 0.35890 0.52740 0.20500
H 	H 	0.54690 0.40450 0.51080 0.20100
H 	H 	0.60330 0.40590 0.51950 0.19800
C 	C 	0.56370 0.46700 0.54580 -0.67900
H 	H 	0.59700 0.47230 0.53880 0.21100
H 	H 	0.54120 0.47230 0.52870 0.20100
H 	H 	0.55620 0.48970 0.56250 0.21900
C 	C 	0.77910 0.43160 0.58750 0.04600
H 	H 	0.80370 0.43240 0.60270 0.02100
C 	C 	0.78310 0.46100 0.56230 -0.10200
H 	H 	0.80900 0.48360 0.56060 0.05400
C 	C 	0.74760 0.45710 0.53861 0.02600
C 	C 	0.75230 0.48900 0.51037 0.05500
C 	C 	0.71130 0.42510 0.54218 -0.09400
H 	H 	0.68780 0.42130 0.52640 0.04100
C 	C 	0.70840 0.39770 0.56880 0.03900
H 	H 	0.68230 0.37550 0.57140 0.00500
C 	C 	0.73140 0.50640 0.45843 0.06000
H 	H 	0.71450 0.49700 0.44030 -0.00300
C 	C 	0.73150 0.47570 0.48330 -0.13500
H 	H 	0.71670 0.44470 0.48160 0.06100
C 	C 	0.77660 0.53170 0.51120 -0.13000
H 	H 	0.79360 0.54140 0.52920 0.06300
C 	C 	0.77630 0.56160 0.48494 0.05200
H 	H 	0.79240 0.59200 0.48580 0.00500
N 	N 	0.74160 0.40220 0.59096 -0.06500
N 	N 	0.75410 0.54860 0.45885 -0.24100
O 	O 	0.54670 0.38500 0.61800 -0.27700
O 	O 	0.63297 0.35572 0.61928 -0.48100
O 	O 	0.57070 0.31630 0.65234 -0.50300
O 	O 	0.56730 0.30470 0.59511 -0.52300
O 	O 	0.73990 0.26290 0.71117 -0.26600
O 	O 	0.71887 0.30130 0.66154 -0.49200
O 	O 	0.65374 0.26320 0.69326 -0.50200
O 	O 	0.71500 0.21050 0.66688 -0.50500
O 	O 	0.73650 0.37640 0.61684 -0.28300
P 	P 	0.58209 0.33592 0.62129 0.51100
P 	P 	0.70382 0.25889 0.68076 0.50500
Zn	Zn	0.69137 0.31648 0.62193 1.18800
Zn	Zn	0.59437 0.25624 0.66951 1.18300
C 	C 	0.45720 0.35650 0.64450 0.38700
H 	H 	0.48930 0.35910 0.65500 -0.06100
C 	C 	0.44120 0.30310 0.64400 -0.67500
H 	H 	0.43720 0.29150 0.66520 0.20900
H 	H 	0.41030 0.30020 0.63310 0.20800
H 	H 	0.46590 0.28360 0.63360 0.20900
C 	C 	0.42090 0.39310 0.65960 -0.67500
H 	H 	0.43320 0.42620 0.65700 0.22300
H 	H 	0.38920 0.39030 0.64950 0.21300
H 	H 	0.41760 0.38570 0.68150 0.21400
C 	C 	0.26030 0.72140 0.22346 0.26400
C 	C 	0.24110 0.70020 0.24959 -0.24200
C 	C 	0.26460 0.66150 0.26330 0.11800
H 	H 	0.25140 0.64690 0.28120 -0.03700
C 	C 	0.30740 0.64400 0.25090 -0.17500
H 	H 	0.32360 0.61750 0.26030 0.07600
C 	C 	0.32670 0.66530 0.22480 0.09300
H 	H 	0.35600 0.65330 0.21630 -0.01500
C 	C 	0.30310 0.70400 0.21100 -0.18800
C 	C 	0.33190 0.72730 0.18250 0.33100
H 	H 	0.31170 0.75620 0.17710 -0.04700
C 	C 	0.34340 0.70460 0.15080 -0.63200
H 	H 	0.35960 0.72880 0.13780 0.18300
H 	H 	0.36480 0.67660 0.15360 0.20200
H 	H 	0.31320 0.69420 0.14100 0.21100
C 	C 	0.37640 0.74990 0.19800 -0.63400
H 	H 	0.39510 0.76820 0.18270 0.19600
H 	H 	0.36580 0.77180 0.21450 0.20900
H 	H 	0.39670 0.72420 0.20670 0.20100
C 	C 	0.19510 0.72100 0.26320 0.42900
H 	H 	0.18690 0.75430 0.25570 -0.08400
C 	C 	0.15610 0.68400 0.25770 -0.71800
H 	H 	0.15320 0.67780 0.23560 0.22900
H 	H 	0.16450 0.65380 0.26830 0.22100
H 	H 	0.12520 0.69620 0.26560 0.22200
C 	C 	0.20080 0.71750 0.29830 -0.68500
H 	H 	0.22490 0.74120 0.30530 0.21400
H 	H 	0.16960 0.72420 0.30820 0.21100
H 	H 	0.21160 0.68480 0.30380 0.21300
C 	C 	0.00623 0.88570 0.09935 0.32100
C 	C 	0.96260 0.87180 0.11102 -0.27400
C 	C 	0.92250 0.87240 0.09288 0.17500
H 	H 	0.89210 0.86270 0.10100 -0.05400
C 	C 	0.92590 0.88690 0.06306 -0.26300
H 	H 	0.89790 0.88740 0.05040 0.09100
C 	C 	0.96950 0.90090 0.05138 0.18600
H 	H 	0.97190 0.91100 0.03060 -0.06200
C 	C 	0.00965 0.90030 0.06953 -0.29900
C 	C 	0.05860 0.91580 0.05730 0.42200
H 	H 	0.08460 0.90830 0.07260 -0.07600
C 	C 	0.07120 0.89430 0.02590 -0.65400
H 	H 	0.07150 0.85890 0.02740 0.20500
H 	H 	0.04690 0.90450 0.01080 0.20100
H 	H 	0.10330 0.90590 0.01950 0.19800
C 	C 	0.06370 0.96700 0.04580 -0.67900
H 	H 	0.09700 0.97230 0.03880 0.21100
H 	H 	0.04120 0.97230 0.02870 0.20100
H 	H 	0.05620 0.98970 0.06250 0.21900
C 	C 	0.27910 0.93160 0.08750 0.04600
H 	H 	0.30370 0.93240 0.10270 0.02100
C 	C 	0.28310 0.96100 0.06230 -0.10200
H 	H 	0.30900 0.98360 0.06060 0.05400
C 	C 	0.24760 0.95710 0.03861 0.02600
C 	C 	0.25230 0.98900 0.01037 0.05500
C 	C 	0.21130 0.92510 0.04218 -0.09400
H 	H 	0.18780 0.92130 0.02640 0.04100
C 	C 	0.20840 0.89770 0.06880 0.03900
H 	H 	0.18230 0.87550 0.07140 0.00500
C 	C 	0.23140 0.00640 0.95843 0.06000
H 	H 	0.21450 0.99700 0.94030 -0.00300
C 	C 	0.23150 0.97570 0.98330 -0.13500
H 	H 	0.21670 0.94470 0.98160 0.06100
C 	C 	0.27660 0.03170 0.01120 -0.13000
H 	H 	0.29360 0.04140 0.02920 0.06300
C 	C 	0.27630 0.06160 0.98494 0.05200
H 	H 	0.29240 0.09200 0.98580 0.00500
N 	N 	0.24160 0.90220 0.09096 -0.06500
N 	N 	0.25410 0.04860 0.95885 -0.24100
O 	O 	0.04670 0.88500 0.11800 -0.27700
O 	O 	0.13297 0.85572 0.11928 -0.48100
O 	O 	0.07070 0.81630 0.15234 -0.50300
O 	O 	0.06730 0.80470 0.09511 -0.52300
O 	O 	0.23990 0.76290 0.21117 -0.26600
O 	O 	0.21887 0.80130 0.16154 -0.49200
O 	O 	0.15374 0.76320 0.19326 -0.50200
O 	O 	0.21500 0.71050 0.16688 -0.50500
O 	O 	0.23650 0.87640 0.11684 -0.28300
P 	P 	0.08209 0.83592 0.12129 0.51100
P 	P 	0.20382 0.75889 0.18076 0.50500
Zn	Zn	0.19137 0.81648 0.12193 1.18800
Zn	Zn	0.09437 0.75624 0.16951 1.18300
C 	C 	0.95720 0.85650 0.14450 0.38700
H 	H 	0.98930 0.85910 0.15500 -0.06100
C 	C 	0.94120 0.80310 0.14400 -0.67500
H 	H 	0.93720 0.79150 0.16520 0.20900
H 	H 	0.91030 0.80020 0.13310 0.20800
H 	H 	0.96590 0.78360 0.13360 0.20900
C 	C 	0.92090 0.89310 0.15960 -0.67500
H 	H 	0.93320 0.92620 0.15700 0.22300
H 	H 	0.88920 0.89030 0.14950 0.21300
H 	H 	0.91760 0.88570 0.18150 0.21400
C 	C 	0.27860 0.23970 0.47346 0.26400
C 	C 	0.29980 0.25890 0.49959 -0.24200
C 	C 	0.33850 0.23540 0.51330 0.11800
H 	H 	0.35310 0.24860 0.53120 -0.03700
C 	C 	0.35600 0.19260 0.50090 -0.17500
H 	H 	0.38250 0.17640 0.51030 0.07600
C 	C 	0.33470 0.17330 0.47480 0.09300
H 	H 	0.34670 0.14400 0.46630 -0.01500
C 	C 	0.29600 0.19690 0.46100 -0.18800
C 	C 	0.27270 0.16810 0.43250 0.33100
H 	H 	0.24380 0.18830 0.42710 -0.04700
C 	C 	0.29540 0.15660 0.40080 -0.63200
H 	H 	0.27120 0.14040 0.38780 0.18300
H 	H 	0.32340 0.13520 0.40360 0.20200
H 	H 	0.30580 0.18680 0.39100 0.21100
C 	C 	0.25010 0.12360 0.44800 -0.63400
H 	H 	0.23180 0.10490 0.43270 0.19600
H 	H 	0.22820 0.13420 0.46450 0.20900
H 	H 	0.27580 0.10330 0.45670 0.20100
C 	C 	0.27900 0.30490 0.51320 0.42900
H 	H 	0.24570 0.31310 0.50570 -0.08400
C 	C 	0.31600 0.34390 0.50770 -0.71800
H 	H 	0.32220 0.34680 0.48560 0.22900
H 	H 	0.34620 0.33550 0.51830 0.22100
H 	H 	0.30380 0.37480 0.51560 0.22200
C 	C 	0.28250 0.29920 0.54830 -0.68500
H 	H 	0.25880 0.27510 0.55530 0.21400
H 	H 	0.27580 0.33040 0.55820 0.21100
H 	H 	0.31520 0.28840 0.55380 0.21300
C 	C 	0.11430 0.49377 0.34935 0.32100
C 	C 	0.12820 0.53740 0.36102 -0.27400
C 	C 	0.12760 0.57750 0.34288 0.17500
H 	H 	0.13730 0.60790 0.35100 -0.05400
C 	C 	0.11310 0.57410 0.31306 -0.26300
H 	H 	0.11260 0.60210 0.30040 0.09100
C 	C 	0.09910 0.53050 0.30138 0.18600
H 	H 	0.08900 0.52810 0.28060 -0.06200
C 	C 	0.09970 0.49035 0.31953 -0.29900
C 	C 	0.08420 0.44140 0.30730 0.42200
H 	H 	0.09170 0.41540 0.32260 -0.07600
C 	C 	0.10570 0.42880 0.27590 -0.65400
H 	H 	0.14110 0.42850 0.27740 0.20500
H 	H 	0.09550 0.45310 0.26080 0.20100
H 	H 	0.09410 0.39670 0.26950 0.19800
C 	C 	0.03300 0.43630 0.29580 -0.67900
H 	H 	0.02770 0.40300 0.28880 0.21100
H 	H 	0.02770 0.45880 0.27870 0.20100
H 	H 	0.01030 0.44380 0.31250 0.21900
C 	C 	0.06840 0.22090 0.33750 0.04600
H 	H 	0.06760 0.19630 0.35270 0.02100
C 	C 	0.03900 0.21690 0.31230 -0.10200
H 	H 	0.01640 0.19100 0.31060 0.05400
C 	C 	0.04290 0.25240 0.28861 0.02600
C 	C 	0.01100 0.24770 0.26037 0.05500
C 	C 	0.07490 0.28870 0.29218 -0.09400
H 	H 	0.07870 0.31220 0.27640 0.04100
C 	C 	0.10230 0.29160 0.31880 0.03900
H 	H 	0.12450 0.31770 0.32140 0.00500
C 	C 	0.99360 0.26860 0.20843 0.06000
H 	H 	0.00300 0.28550 0.19030 -0.00300
C 	C 	0.02430 0.26850 0.23330 -0.13500
H 	H 	0.05530 0.28330 0.23160 0.06100
C 	C 	0.96830 0.22340 0.26120 -0.13000
H 	H 	0.95860 0.20640 0.27920 0.06300
C 	C 	0.93840 0.22370 0.23494 0.05200
H 	H 	0.90800 0.20760 0.23580 0.00500
N 	N 	0.09780 0.25840 0.34096 -0.06500
N 	N 	0.95140 0.24590 0.20885 -0.24100
O 	O 	0.11500 0.45330 0.36800 -0.27700
O 	O 	0.14428 0.36703 0.36928 -0.48100
O 	O 	0.18370 0.42930 0.40234 -0.50300
O 	O 	0.19530 0.43270 0.34511 -0.52300
O 	O 	0.23710 0.26010 0.46117 -0.26600
O 	O 	0.19870 0.28113 0.41154 -0.49200
O 	O 	0.23680 0.34626 0.44326 -0.50200
O 	O 	0.28950 0.28500 0.41688 -0.50500
O 	O 	0.12360 0.26350 0.36684 -0.28300
P 	P 	0.16408 0.41791 0.37129 0.51100
P 	P 	0.24111 0.29618 0.43076 0.50500
Zn	Zn	0.18352 0.30863 0.37193 1.18800
Zn	Zn	0.24376 0.40563 0.41951 1.18300
C 	C 	0.14350 0.54280 0.39450 0.38700
H 	H 	0.14090 0.51070 0.40500 -0.06100
C 	C 	0.19690 0.55880 0.39400 -0.67500
H 	H 	0.20850 0.56280 0.41520 0.20900
H 	H 	0.19980 0.58970 0.38310 0.20800
H 	H 	0.21640 0.53410 0.38360 0.20900
C 	C 	0.10690 0.57910 0.40960 -0.67500
H 	H 	0.07380 0.56680 0.40700 0.22300
H 	H 	0.10970 0.61080 0.39950 0.21300
H 	H 	0.11430 0.58240 0.43150 0.21400
C 	C 	0.77860 0.73970 0.97346 0.26400
C 	C 	0.79980 0.75890 0.99959 -0.24200
C 	C 	0.83850 0.73540 0.01330 0.11800
H 	H 	0.85310 0.74860 0.03120 -0.03700
C 	C 	0.85600 0.69260 0.00090 -0.17500
H 	H 	0.88250 0.67640 0.01030 0.07600
C 	C 	0.83470 0.67330 0.97480 0.09300
H 	H 	0.84670 0.64400 0.96630 -0.01500
C 	C 	0.79600 0.69690 0.96100 -0.18800
C 	C 	0.77270 0.66810 0.93250 0.33100
H 	H 	0.74380 0.68830 0.92710 -0.04700
C 	C 	0.79540 0.65660 0.90080 -0.63200
H 	H 	0.77120 0.64040 0.88780 0.18300
H 	H 	0.82340 0.63520 0.90360 0.20200
H 	H 	0.80580 0.68680 0.89100 0.21100
C 	C 	0.75010 0.62360 0.94800 -0.63400
H 	H 	0.73180 0.60490 0.93270 0.19600
H 	H 	0.72820 0.63420 0.96450 0.20900
H 	H 	0.77580 0.60330 0.95670 0.20100
C 	C 	0.77900 0.80490 0.01320 0.42900
H 	H 	0.74570 0.81310 0.00570 -0.08400
C 	C 	0.81600 0.84390 0.00770 -0.71800
H 	H 	0.82220 0.84680 0.98560 0.22900
H 	H 	0.84620 0.83550 0.01830 0.22100
H 	H 	0.80380 0.87480 0.01560 0.22200
C 	C 	0.78250 0.79920 0.04830 -0.68500
H 	H 	0.75880 0.77510 0.05530 0.21400
H 	H 	0.77580 0.83040 0.05820 0.21100
H 	H 	0.81520 0.78840 0.05380 0.21300
C 	C 	0.61430 0.99377 0.84935 0.32100
C 	C 	0.62820 0.03740 0.86102 -0.27400
C 	C 	0.62760 0.07750 0.84288 0.17500
H 	H 	0.63730 0.10790 0.85100 -0.05400
C 	C 	0.61310 0.07410 0.81306 -0.26300
H 	H 	0.61260 0.10210 0.80040 0.09100
C 	C 	0.59910 0.03050 0.80138 0.18600
H 	H 	0.58900 0.02810 0.78060 -0.06200
C 	C 	0.59970 0.99035 0.81953 -0.29900
C 	C 	0.58420 0.94140 0.80730 0.42200
H 	H 	0.59170 0.91540 0.82260 -0.07600
C 	C 	0.60570 0.92880 0.77590 -0.65400
H 	H 	0.64110 0.92850 0.77740 0.20500
H 	H 	0.59550 0.95310 0.76080 0.20100
H 	H 	0.59410 0.89670 0.76950 0.19800
C 	C 	0.53300 0.93630 0.79580 -0.67900
H 	H 	0.52770 0.90300 0.78880 0.21100
H 	H 	0.52770 0.95880 0.77870 0.20100
H 	H 	0.51030 0.94380 0.81250 0.21900
C 	C 	0.56840 0.72090 0.83750 0.04600
H 	H 	0.56760 0.69630 0.85270 0.02100
C 	C 	0.53900 0.71690 0.81230 -0.10200
H 	H 	0.51640 0.69100 0.81060 0.05400
C 	C 	0.54290 0.75240 0.78861 0.02600
C 	C 	0.51100 0.74770 0.76037 0.05500
C 	C 	0.57490 0.78870 0.79218 -0.09400
H 	H 	0.57870 0.81220 0.77640 0.04100
C 	C 	0.60230 0.79160 0.81880 0.03900
H 	H 	0.62450 0.81770 0.82140 0.00500
C 	C 	0.49360 0.76860 0.70843 0.06000
H 	H 	0.50300 0.78550 0.69030 -0.00300
C 	C 	0.52430 0.76850 0.73330 -0.13500
H 	H 	0.55530 0.78330 0.73160 0.06100
C 	C 	0.46830 0.72340 0.76120 -0.13000
H 	H 	0.45860 0.70640 0.77920 0.06300
C 	C 	0.43840 0.72370 0.73494 0.05200
H 	H 	0.40800 0.70760 0.73580 0.00500
N 	N 	0.59780 0.75840 0.84096 -0.06500
N 	N 	0.45140 0.74590 0.70885 -0.24100
O 	O 	0.61500 0.95330 0.86800 -0.27700
O 	O 	0.64428 0.86703 0.86928 -0.48100
O 	O 	0.68370 0.92930 0.90234 -0.50300
O 	O 	0.69530 0.93270 0.84511 -0.52300
O 	O 	0.73710 0.76010 0.96117 -0.26600
O 	O 	0.69870 0.78113 0.91154 -0.49200
O 	O 	0.73680 0.84626 0.94326 -0.50200
O 	O 	0.78950 0.78500 0.91688 -0.50500
O 	O 	0.62360 0.76350 0.86684 -0.28300
P 	P 	0.66408 0.91791 0.87129 0.51100
P 	P 	0.74111 0.79618 0.93076 0.50500
Zn	Zn	0.68352 0.80863 0.87193 1.18800
Zn	Zn	0.74376 0.90563 0.91951 1.18300
C 	C 	0.64350 0.04280 0.89450 0.38700
H 	H 	0.64090 0.01070 0.90500 -0.06100
C 	C 	0.69690 0.05880 0.89400 -0.67500
H 	H 	0.70850 0.06280 0.91520 0.20900
H 	H 	0.69980 0.08970 0.88310 0.20800
H 	H 	0.71640 0.03410 0.88360 0.20900
C 	C 	0.60690 0.07910 0.90960 -0.67500
H 	H 	0.57380 0.06680 0.90700 0.22300
H 	H 	0.60970 0.11080 0.89950 0.21300
H 	H 	0.61430 0.08240 0.93150 0.21400
C 	C 	0.72140 0.76030 0.47346 0.26400
C 	C 	0.70020 0.74110 0.49959 -0.24200
C 	C 	0.66150 0.76460 0.51330 0.11800
H 	H 	0.64690 0.75140 0.53120 -0.03700
C 	C 	0.64400 0.80740 0.50090 -0.17500
H 	H 	0.61750 0.82360 0.51030 0.07600
C 	C 	0.66530 0.82670 0.47480 0.09300
H 	H 	0.65330 0.85600 0.46630 -0.01500
C 	C 	0.70400 0.80310 0.46100 -0.18800
C 	C 	0.72730 0.83190 0.43250 0.33100
H 	H 	0.75620 0.81170 0.42710 -0.04700
C 	C 	0.70460 0.84340 0.40080 -0.63200
H 	H 	0.72880 0.85960 0.38780 0.18300
H 	H 	0.67660 0.86480 0.40360 0.20200
H 	H 	0.69420 0.81320 0.39100 0.21100
C 	C 	0.74990 0.87640 0.44800 -0.63400
H 	H 	0.76820 0.89510 0.43270 0.19600
H 	H 	0.77180 0.86580 0.46450 0.20900
H 	H 	0.72420 0.89670 0.45670 0.20100
C 	C 	0.72100 0.69510 0.51320 0.42900
H 	H 	0.75430 0.68690 0.50570 -0.08400
C 	C 	0.68400 0.65610 0.50770 -0.71800
H 	H 	0.67780 0.65320 0.48560 0.22900
H 	H 	0.65380 0.66450 0.51830 0.22100
H 	H 	0.69620 0.62520 0.51560 0.22200
C 	C 	0.71750 0.70080 0.54830 -0.68500
H 	H 	0.74120 0.72490 0.55530 0.21400
H 	H 	0.72420 0.66960 0.55820 0.21100
H 	H 	0.68480 0.71160 0.55380 0.21300
C 	C 	0.88570 0.50623 0.34935 0.32100
C 	C 	0.87180 0.46260 0.36102 -0.27400
C 	C 	0.87240 0.42250 0.34288 0.17500
H 	H 	0.86270 0.39210 0.35100 -0.05400
C 	C 	0.88690 0.42590 0.31306 -0.26300
H 	H 	0.88740 0.39790 0.30040 0.09100
C 	C 	0.90090 0.46950 0.30138 0.18600
H 	H 	0.91100 0.47190 0.28060 -0.06200
C 	C 	0.90030 0.50965 0.31953 -0.29900
C 	C 	0.91580 0.55860 0.30730 0.42200
H 	H 	0.90830 0.58460 0.32260 -0.07600
C 	C 	0.89430 0.57120 0.27590 -0.65400
H 	H 	0.85890 0.57150 0.27740 0.20500
H 	H 	0.90450 0.54690 0.26080 0.20100
H 	H 	0.90590 0.60330 0.26950 0.19800
C 	C 	0.96700 0.56370 0.29580 -0.67900
H 	H 	0.97230 0.59700 0.28880 0.21100
H 	H 	0.97230 0.54120 0.27870 0.20100
H 	H 	0.98970 0.55620 0.31250 0.21900
C 	C 	0.93160 0.77910 0.33750 0.04600
H 	H 	0.93240 0.80370 0.35270 0.02100
C 	C 	0.96100 0.78310 0.31230 -0.10200
H 	H 	0.98360 0.80900 0.31060 0.05400
C 	C 	0.95710 0.74760 0.28861 0.02600
C 	C 	0.98900 0.75230 0.26037 0.05500
C 	C 	0.92510 0.71130 0.29218 -0.09400
H 	H 	0.92130 0.68780 0.27640 0.04100
C 	C 	0.89770 0.70840 0.31880 0.03900
H 	H 	0.87550 0.68230 0.32140 0.00500
C 	C 	0.00640 0.73140 0.20843 0.06000
H 	H 	0.99700 0.71450 0.19030 -0.00300
C 	C 	0.97570 0.73150 0.23330 -0.13500
H 	H 	0.94470 0.71670 0.23160 0.06100
C 	C 	0.03170 0.77660 0.26120 -0.13000
H 	H 	0.04140 0.79360 0.27920 0.06300
C 	C 	0.06160 0.77630 0.23494 0.05200
H 	H 	0.09200 0.79240 0.23580 0.00500
N 	N 	0.90220 0.74160 0.34096 -0.06500
N 	N 	0.04860 0.75410 0.20885 -0.24100
O 	O 	0.88500 0.54670 0.36800 -0.27700
O 	O 	0.85572 0.63297 0.36928 -0.48100
O 	O 	0.81630 0.57070 0.40234 -0.50300
O 	O 	0.80470 0.56730 0.34511 -0.52300
O 	O 	0.76290 0.73990 0.46117 -0.26600
O 	O 	0.80130 0.71887 0.41154 -0.49200
O 	O 	0.76320 0.65374 0.44326 -0.50200
O 	O 	0.71050 0.71500 0.41688 -0.50500
O 	O 	0.87640 0.73650 0.36684 -0.28300
P 	P 	0.83592 0.58209 0.37129 0.51100
P 	P 	0.75889 0.70382 0.43076 0.50500
Zn	Zn	0.81648 0.69137 0.37193 1.18800
Zn	Zn	0.75624 0.59437 0.41951 1.18300
C 	C 	0.85650 0.45720 0.39450 0.38700
H 	H 	0.85910 0.48930 0.40500 -0.06100
C 	C 	0.80310 0.44120 0.39400 -0.67500
H 	H 	0.79150 0.43720 0.41520 0.20900
H 	H 	0.80020 0.41030 0.38310 0.20800
H 	H 	0.78360 0.46590 0.38360 0.20900
C 	C 	0.89310 0.42090 0.40960 -0.67500
H 	H 	0.92620 0.43320 0.40700 0.22300
H 	H 	0.89030 0.38920 0.39950 0.21300
H 	H 	0.88570 0.41760 0.43150 0.21400
C 	C 	0.22140 0.26030 0.97346 0.26400
C 	C 	0.20020 0.24110 0.99959 -0.24200
C 	C 	0.16150 0.26460 0.01330 0.11800
H 	H 	0.14690 0.25140 0.03120 -0.03700
C 	C 	0.14400 0.30740 0.00090 -0.17500
H 	H 	0.11750 0.32360 0.01030 0.07600
C 	C 	0.16530 0.32670 0.97480 0.09300
H 	H 	0.15330 0.35600 0.96630 -0.01500
C 	C 	0.20400 0.30310 0.96100 -0.18800
C 	C 	0.22730 0.33190 0.93250 0.33100
H 	H 	0.25620 0.31170 0.92710 -0.04700
C 	C 	0.20460 0.34340 0.90080 -0.63200
H 	H 	0.22880 0.35960 0.88780 0.18300
H 	H 	0.17660 0.36480 0.90360 0.20200
H 	H 	0.19420 0.31320 0.89100 0.21100
C 	C 	0.24990 0.37640 0.94800 -0.63400
H 	H 	0.26820 0.39510 0.93270 0.19600
H 	H 	0.27180 0.36580 0.96450 0.20900
H 	H 	0.22420 0.39670 0.95670 0.20100
C 	C 	0.22100 0.19510 0.01320 0.42900
H 	H 	0.25430 0.18690 0.00570 -0.08400
C 	C 	0.18400 0.15610 0.00770 -0.71800
H 	H 	0.17780 0.15320 0.98560 0.22900
H 	H 	0.15380 0.16450 0.01830 0.22100
H 	H 	0.19620 0.12520 0.01560 0.22200
C 	C 	0.21750 0.20080 0.04830 -0.68500
H 	H 	0.24120 0.22490 0.05530 0.21400
H 	H 	0.22420 0.16960 0.05820 0.21100
H 	H 	0.18480 0.21160 0.05380 0.21300
C 	C 	0.38570 0.00623 0.84935 0.32100
C 	C 	0.37180 0.96260 0.86102 -0.27400
C 	C 	0.37240 0.92250 0.84288 0.17500
H 	H 	0.36270 0.89210 0.85100 -0.05400
C 	C 	0.38690 0.92590 0.81306 -0.26300
H 	H 	0.38740 0.89790 0.80040 0.09100
C 	C 	0.40090 0.96950 0.80138 0.18600
H 	H 	0.41100 0.97190 0.78060 -0.06200
C 	C 	0.40030 0.00965 0.81953 -0.29900
C 	C 	0.41580 0.05860 0.80730 0.42200
H 	H 	0.40830 0.08460 0.82260 -0.07600
C 	C 	0.39430 0.07120 0.77590 -0.65400
H 	H 	0.35890 0.07150 0.77740 0.20500
H 	H 	0.40450 0.04690 0.76080 0.20100
H 	H 	0.40590 0.10330 0.76950 0.19800
C 	C 	0.46700 0.06370 0.79580 -0.67900
H 	H 	0.47230 0.09700 0.78880 0.21100
H 	H 	0.47230 0.04120 0.77870 0.20100
H 	H 	0.48970 0.05620 0.81250 0.21900
C 	C 	0.43160 0.27910 0.83750 0.04600
H 	H 	0.43240 0.30370 0.85270 0.02100
C 	C 	0.46100 0.28310 0.81230 -0.10200
H 	H 	0.48360 0.30900 0.81060 0.05400
C 	C 	0.45710 0.24760 0.78861 0.02600
C 	C 	0.48900 0.25230 0.76037 0.05500
C 	C 	0.42510 0.21130 0.79218 -0.09400
H 	H 	0.42130 0.18780 0.77640 0.04100
C 	C 	0.39770 0.20840 0.81880 0.03900
H 	H 	0.37550 0.18230 0.82140 0.00500
C 	C 	0.50640 0.23140 0.70843 0.06000
H 	H 	0.49700 0.21450 0.69030 -0.00300
C 	C 	0.47570 0.23150 0.73330 -0.13500
H 	H 	0.44470 0.21670 0.73160 0.06100
C 	C 	0.53170 0.27660 0.76120 -0.13000
H 	H 	0.54140 0.29360 0.77920 0.06300
C 	C 	0.56160 0.27630 0.73494 0.05200
H 	H 	0.59200 0.29240 0.73580 0.00500
N 	N 	0.40220 0.24160 0.84096 -0.06500
N 	N 	0.54860 0.25410 0.70885 -0.24100
O 	O 	0.38500 0.04670 0.86800 -0.27700
O 	O 	0.35572 0.13297 0.86928 -0.48100
O 	O 	0.31630 0.07070 0.90234 -0.50300
O 	O 	0.30470 0.06730 0.84511 -0.52300
O 	O 	0.26290 0.23990 0.96117 -0.26600
O 	O 	0.30130 0.21887 0.91154 -0.49200
O 	O 	0.26320 0.15374 0.94326 -0.50200
O 	O 	0.21050 0.21500 0.91688 -0.50500
O 	O 	0.37640 0.23650 0.86684 -0.28300
P 	P 	0.33592 0.08209 0.87129 0.51100
P 	P 	0.25889 0.20382 0.93076 0.50500
Zn	Zn	0.31648 0.19137 0.87193 1.18800
Zn	Zn	0.25624 0.09437 0.91951 1.18300
C 	C 	0.35650 0.95720 0.89450 0.38700
H 	H 	0.35910 0.98930 0.90500 -0.06100
C 	C 	0.30310 0.94120 0.89400 -0.67500
H 	H 	0.29150 0.93720 0.91520 0.20900
H 	H 	0.30020 0.91030 0.88310 0.20800
H 	H 	0.28360 0.96590 0.88360 0.20900
C 	C 	0.39310 0.92090 0.90960 -0.67500
H 	H 	0.42620 0.93320 0.90700 0.22300
H 	H 	0.39030 0.88920 0.89950 0.21300
H 	H 	0.38570 0.91760 0.93150 0.21400
C 	C 	0.26030 0.77860 0.02654 0.26400
C 	C 	0.24110 0.79980 0.00041 -0.24200
C 	C 	0.26460 0.83850 0.98670 0.11800
H 	H 	0.25140 0.85310 0.96880 -0.03700
C 	C 	0.30740 0.85600 0.99910 -0.17500
H 	H 	0.32360 0.88250 0.98970 0.07600
C 	C 	0.32670 0.83470 0.02520 0.09300
H 	H 	0.35600 0.84670 0.03370 -0.01500
C 	C 	0.30310 0.79600 0.03900 -0.18800
C 	C 	0.33190 0.77270 0.06750 0.33100
H 	H 	0.31170 0.74380 0.07290 -0.04700
C 	C 	0.34340 0.79540 0.09920 -0.63200
H 	H 	0.35960 0.77120 0.11220 0.18300
H 	H 	0.36480 0.82340 0.09640 0.20200
H 	H 	0.31320 0.80580 0.10900 0.21100
C 	C 	0.37640 0.75010 0.05200 -0.63400
H 	H 	0.39510 0.73180 0.06730 0.19600
H 	H 	0.36580 0.72820 0.03550 0.20900
H 	H 	0.39670 0.77580 0.04330 0.20100
C 	C 	0.19510 0.77900 0.98680 0.42900
H 	H 	0.18690 0.74570 0.99430 -0.08400
C 	C 	0.15610 0.81600 0.99230 -0.71800
H 	H 	0.15320 0.82220 0.01440 0.22900
H 	H 	0.16450 0.84620 0.98170 0.22100
H 	H 	0.12520 0.80380 0.98440 0.22200
C 	C 	0.20080 0.78250 0.95170 -0.68500
H 	H 	0.22490 0.75880 0.94470 0.21400
H 	H 	0.16960 0.77580 0.94180 0.21100
H 	H 	0.21160 0.81520 0.94620 0.21300
C 	C 	0.00623 0.61430 0.15065 0.32100
C 	C 	0.96260 0.62820 0.13898 -0.27400
C 	C 	0.92250 0.62760 0.15712 0.17500
H 	H 	0.89210 0.63730 0.14900 -0.05400
C 	C 	0.92590 0.61310 0.18694 -0.26300
H 	H 	0.89790 0.61260 0.19960 0.09100
C 	C 	0.96950 0.59910 0.19862 0.18600
H 	H 	0.97190 0.58900 0.21940 -0.06200
C 	C 	0.00965 0.59970 0.18047 -0.29900
C 	C 	0.05860 0.58420 0.19270 0.42200
H 	H 	0.08460 0.59170 0.17740 -0.07600
C 	C 	0.07120 0.60570 0.22410 -0.65400
H 	H 	0.07150 0.64110 0.22260 0.20500
H 	H 	0.04690 0.59550 0.23920 0.20100
H 	H 	0.10330 0.59410 0.23050 0.19800
C 	C 	0.06370 0.53300 0.20420 -0.67900
H 	H 	0.09700 0.52770 0.21120 0.21100
H 	H 	0.04120 0.52770 0.22130 0.20100
H 	H 	0.05620 0.51030 0.18750 0.21900
C 	C 	0.27910 0.56840 0.16250 0.04600
H 	H 	0.30370 0.56760 0.14730 0.02100
C 	C 	0.28310 0.53900 0.18770 -0.10200
H 	H 	0.30900 0.51640 0.18940 0.05400
C 	C 	0.24760 0.54290 0.21139 0.02600
C 	C 	0.25230 0.51100 0.23963 0.05500
C 	C 	0.21130 0.57490 0.20782 -0.09400
H 	H 	0.18780 0.57870 0.22360 0.04100
C 	C 	0.20840 0.60230 0.18120 0.03900
H 	H 	0.18230 0.62450 0.17860 0.00500
C 	C 	0.23140 0.49360 0.29157 0.06000
H 	H 	0.21450 0.50300 0.30970 -0.00300
C 	C 	0.23150 0.52430 0.26670 -0.13500
H 	H 	0.21670 0.55530 0.26840 0.06100
C 	C 	0.27660 0.46830 0.23880 -0.13000
H 	H 	0.29360 0.45860 0.22080 0.06300
C 	C 	0.27630 0.43840 0.26506 0.05200
H 	H 	0.29240 0.40800 0.26420 0.00500
N 	N 	0.24160 0.59780 0.15904 -0.06500
N 	N 	0.25410 0.45140 0.29115 -0.24100
O 	O 	0.04670 0.61500 0.13200 -0.27700
O 	O 	0.13297 0.64428 0.13072 -0.48100
O 	O 	0.07070 0.68370 0.09766 -0.50300
O 	O 	0.06730 0.69530 0.15489 -0.52300
O 	O 	0.23990 0.73710 0.03883 -0.26600
O 	O 	0.21887 0.69870 0.08846 -0.49200
O 	O 	0.15374 0.73680 0.05674 -0.50200
O 	O 	0.21500 0.78950 0.08312 -0.50500
O 	O 	0.23650 0.62360 0.13316 -0.28300
P 	P 	0.08209 0.66408 0.12871 0.51100
P 	P 	0.20382 0.74111 0.06924 0.50500
Zn	Zn	0.19137 0.68352 0.12807 1.18800
Zn	Zn	0.09437 0.74376 0.08049 1.18300
C 	C 	0.95720 0.64350 0.10550 0.38700
H 	H 	0.98930 0.64090 0.09500 -0.06100
C 	C 	0.94120 0.69690 0.10600 -0.67500
H 	H 	0.93720 0.70850 0.08480 0.20900
H 	H 	0.91030 0.69980 0.11690 0.20800
H 	H 	0.96590 0.71640 0.11640 0.20900
C 	C 	0.92090 0.60690 0.09040 -0.67500
H 	H 	0.93320 0.57380 0.09300 0.22300
H 	H 	0.88920 0.60970 0.10050 0.21300
H 	H 	0.91760 0.61430 0.06850 0.21400
C 	C 	0.76030 0.27860 0.52654 0.26400
C 	C 	0.74110 0.29980 0.50041 -0.24200
C 	C 	0.76460 0.33850 0.48670 0.11800
H 	H 	0.75140 0.35310 0.46880 -0.03700
C 	C 	0.80740 0.35600 0.49910 -0.17500
H 	H 	0.82360 0.38250 0.48970 0.07600
C 	C 	0.82670 0.33470 0.52520 0.09300
H 	H 	0.85600 0.34670 0.53370 -0.01500
C 	C 	0.80310 0.29600 0.53900 -0.18800
C 	C 	0.83190 0.27270 0.56750 0.33100
H 	H 	0.81170 0.24380 0.57290 -0.04700
C 	C 	0.84340 0.29540 0.59920 -0.63200
H 	H 	0.85960 0.27120 0.61220 0.18300
H 	H 	0.86480 0.32340 0.59640 0.20200
H 	H 	0.81320 0.30580 0.60900 0.21100
C 	C 	0.87640 0.25010 0.55200 -0.63400
H 	H 	0.89510 0.23180 0.56730 0.19600
H 	H 	0.86580 0.22820 0.53550 0.20900
H 	H 	0.89670 0.27580 0.54330 0.20100
C 	C 	0.69510 0.27900 0.48680 0.42900
H 	H 	0.68690 0.24570 0.49430 -0.08400
C 	C 	0.65610 0.31600 0.49230 -0.71800
H 	H 	0.65320 0.32220 0.51440 0.22900
H 	H 	0.66450 0.34620 0.48170 0.22100
H 	H 	0.62520 0.30380 0.48440 0.22200
C 	C 	0.70080 0.28250 0.45170 -0.68500
H 	H 	0.72490 0.25880 0.44470 0.21400
H 	H 	0.66960 0.27580 0.44180 0.21100
H 	H 	0.71160 0.31520 0.44620 0.21300
C 	C 	0.50623 0.11430 0.65065 0.32100
C 	C 	0.46260 0.12820 0.63898 -0.27400
C 	C 	0.42250 0.12760 0.65712 0.17500
H 	H 	0.39210 0.13730 0.64900 -0.05400
C 	C 	0.42590 0.11310 0.68694 -0.26300
H 	H 	0.39790 0.11260 0.69960 0.09100
C 	C 	0.46950 0.09910 0.69862 0.18600
H 	H 	0.47190 0.08900 0.71940 -0.06200
C 	C 	0.50965 0.09970 0.68047 -0.29900
C 	C 	0.55860 0.08420 0.69270 0.42200
H 	H 	0.58460 0.09170 0.67740 -0.07600
C 	C 	0.57120 0.10570 0.72410 -0.65400
H 	H 	0.57150 0.14110 0.72260 0.20500
H 	H 	0.54690 0.09550 0.73920 0.20100
H 	H 	0.60330 0.09410 0.73050 0.19800
C 	C 	0.56370 0.03300 0.70420 -0.67900
H 	H 	0.59700 0.02770 0.71120 0.21100
H 	H 	0.54120 0.02770 0.72130 0.20100
H 	H 	0.55620 0.01030 0.68750 0.21900
C 	C 	0.77910 0.06840 0.66250 0.04600
H 	H 	0.80370 0.06760 0.64730 0.02100
C 	C 	0.78310 0.03900 0.68770 -0.10200
H 	H 	0.80900 0.01640 0.68940 0.05400
C 	C 	0.74760 0.04290 0.71139 0.02600
C 	C 	0.75230 0.01100 0.73963 0.05500
C 	C 	0.71130 0.07490 0.70782 -0.09400
H 	H 	0.68780 0.07870 0.72360 0.04100
C 	C 	0.70840 0.10230 0.68120 0.03900
H 	H 	0.68230 0.12450 0.67860 0.00500
C 	C 	0.73140 0.99360 0.79157 0.06000
H 	H 	0.71450 0.00300 0.80970 -0.00300
C 	C 	0.73150 0.02430 0.76670 -0.13500
H 	H 	0.71670 0.05530 0.76840 0.06100
C 	C 	0.77660 0.96830 0.73880 -0.13000
H 	H 	0.79360 0.95860 0.72080 0.06300
C 	C 	0.77630 0.93840 0.76506 0.05200
H 	H 	0.79240 0.90800 0.76420 0.00500
N 	N 	0.74160 0.09780 0.65904 -0.06500
N 	N 	0.75410 0.95140 0.79115 -0.24100
O 	O 	0.54670 0.11500 0.63200 -0.27700
O 	O 	0.63297 0.14428 0.63072 -0.48100
O 	O 	0.57070 0.18370 0.59766 -0.50300
O 	O 	0.56730 0.19530 0.65489 -0.52300
O 	O 	0.73990 0.23710 0.53883 -0.26600
O 	O 	0.71887 0.19870 0.58846 -0.49200
O 	O 	0.65374 0.23680 0.55674 -0.50200
O 	O 	0.71500 0.28950 0.58312 -0.50500
O 	O 	0.73650 0.12360 0.63316 -0.28300
P 	P 	0.58209 0.16408 0.62871 0.51100
P 	P 	0.70382 0.24111 0.56924 0.50500
Zn	Zn	0.69137 0.18352 0.62807 1.18800
Zn	Zn	0.59437 0.24376 0.58049 1.18300
C 	C 	0.45720 0.14350 0.60550 0.38700
H 	H 	0.48930 0.14090 0.59500 -0.06100
C 	C 	0.44120 0.19690 0.60600 -0.67500
H 	H 	0.43720 0.20850 0.58480 0.20900
H 	H 	0.41030 0.19980 0.61690 0.20800
H 	H 	0.46590 0.21640 0.61640 0.20900
C 	C 	0.42090 0.10690 0.59040 -0.67500
H 	H 	0.43320 0.07380 0.59300 0.22300
H 	H 	0.38920 0.10970 0.60050 0.21300
H 	H 	0.41760 0.11430 0.56850 0.21400
C 	C 	0.73970 0.22140 0.02654 0.26400
C 	C 	0.75890 0.20020 0.00041 -0.24200
C 	C 	0.73540 0.16150 0.98670 0.11800
H 	H 	0.74860 0.14690 0.96880 -0.03700
C 	C 	0.69260 0.14400 0.99910 -0.17500
H 	H 	0.67640 0.11750 0.98970 0.07600
C 	C 	0.67330 0.16530 0.02520 0.09300
H 	H 	0.64400 0.15330 0.03370 -0.01500
C 	C 	0.69690 0.20400 0.03900 -0.18800
C 	C 	0.66810 0.22730 0.06750 0.33100
H 	H 	0.68830 0.25620 0.07290 -0.04700
C 	C 	0.65660 0.20460 0.09920 -0.63200
H 	H 	0.64040 0.22880 0.11220 0.18300
H 	H 	0.63520 0.17660 0.09640 0.20200
H 	H 	0.68680 0.19420 0.10900 0.21100
C 	C 	0.62360 0.24990 0.05200 -0.63400
H 	H 	0.60490 0.26820 0.06730 0.19600
H 	H 	0.63420 0.27180 0.03550 0.20900
H 	H 	0.60330 0.22420 0.04330 0.20100
C 	C 	0.80490 0.22100 0.98680 0.42900
H 	H 	0.81310 0.25430 0.99430 -0.08400
C 	C 	0.84390 0.18400 0.99230 -0.71800
H 	H 	0.84680 0.17780 0.01440 0.22900
H 	H 	0.83550 0.15380 0.98170 0.22100
H 	H 	0.87480 0.19620 0.98440 0.22200
C 	C 	0.79920 0.21750 0.95170 -0.68500
H 	H 	0.77510 0.24120 0.94470 0.21400
H 	H 	0.83040 0.22420 0.94180 0.21100
H 	H 	0.78840 0.18480 0.94620 0.21300
C 	C 	0.99377 0.38570 0.15065 0.32100
C 	C 	0.03740 0.37180 0.13898 -0.27400
C 	C 	0.07750 0.37240 0.15712 0.17500
H 	H 	0.10790 0.36270 0.14900 -0.05400
C 	C 	0.07410 0.38690 0.18694 -0.26300
H 	H 	0.10210 0.38740 0.19960 0.09100
C 	C 	0.03050 0.40090 0.19862 0.18600
H 	H 	0.02810 0.41100 0.21940 -0.06200
C 	C 	0.99035 0.40030 0.18047 -0.29900
C 	C 	0.94140 0.41580 0.19270 0.42200
H 	H 	0.91540 0.40830 0.17740 -0.07600
C 	C 	0.92880 0.39430 0.22410 -0.65400
H 	H 	0.92850 0.35890 0.22260 0.20500
H 	H 	0.95310 0.40450 0.23920 0.20100
H 	H 	0.89670 0.40590 0.23050 0.19800
C 	C 	0.93630 0.46700 0.20420 -0.67900
H 	H 	0.90300 0.47230 0.21120 0.21100
H 	H 	0.95880 0.47230 0.22130 0.20100
H 	H 	0.94380 0.48970 0.18750 0.21900
C 	C 	0.72090 0.43160 0.16250 0.04600
H 	H 	0.69630 0.43240 0.14730 0.02100
C 	C 	0.71690 0.46100 0.18770 -0.10200
H 	H 	0.69100 0.48360 0.18940 0.05400
C 	C 	0.75240 0.45710 0.21139 0.02600
C 	C 	0.74770 0.48900 0.23963 0.05500
C 	C 	0.78870 0.42510 0.20782 -0.09400
H 	H 	0.81220 0.42130 0.22360 0.04100
C 	C 	0.79160 0.39770 0.18120 0.03900
H 	H 	0.81770 0.37550 0.17860 0.00500
C 	C 	0.76860 0.50640 0.29157 0.06000
H 	H 	0.78550 0.49700 0.30970 -0.00300
C 	C 	0.76850 0.47570 0.26670 -0.13500
H 	H 	0.78330 0.44470 0.26840 0.06100
C 	C 	0.72340 0.53170 0.23880 -0.13000
H 	H 	0.70640 0.54140 0.22080 0.06300
C 	C 	0.72370 0.56160 0.26506 0.05200
H 	H 	0.70760 0.59200 0.26420 0.00500
N 	N 	0.75840 0.40220 0.15904 -0.06500
N 	N 	0.74590 0.54860 0.29115 -0.24100
O 	O 	0.95330 0.38500 0.13200 -0.27700
O 	O 	0.86703 0.35572 0.13072 -0.48100
O 	O 	0.92930 0.31630 0.09766 -0.50300
O 	O 	0.93270 0.30470 0.15489 -0.52300
O 	O 	0.76010 0.26290 0.03883 -0.26600
O 	O 	0.78113 0.30130 0.08846 -0.49200
O 	O 	0.84626 0.26320 0.05674 -0.50200
O 	O 	0.78500 0.21050 0.08312 -0.50500
O 	O 	0.76350 0.37640 0.13316 -0.28300
P 	P 	0.91791 0.33592 0.12871 0.51100
P 	P 	0.79618 0.25889 0.06924 0.50500
Zn	Zn	0.80863 0.31648 0.12807 1.18800
Zn	Zn	0.90563 0.25624 0.08049 1.18300
C 	C 	0.04280 0.35650 0.10550 0.38700
H 	H 	0.01070 0.35910 0.09500 -0.06100
C 	C 	0.05880 0.30310 0.10600 -0.67500
H 	H 	0.06280 0.29150 0.08480 0.20900
H 	H 	0.08970 0.30020 0.11690 0.20800
H 	H 	0.03410 0.28360 0.11640 0.20900
C 	C 	0.07910 0.39310 0.09040 -0.67500
H 	H 	0.06680 0.42620 0.09300 0.22300
H 	H 	0.11080 0.39030 0.10050 0.21300
H 	H 	0.08240 0.38570 0.06850 0.21400
C 	C 	0.23970 0.72140 0.52654 0.26400
C 	C 	0.25890 0.70020 0.50041 -0.24200
C 	C 	0.23540 0.66150 0.48670 0.11800
H 	H 	0.24860 0.64690 0.46880 -0.03700
C 	C 	0.19260 0.64400 0.49910 -0.17500
H 	H 	0.17640 0.61750 0.48970 0.07600
C 	C 	0.17330 0.66530 0.52520 0.09300
H 	H 	0.14400 0.65330 0.53370 -0.01500
C 	C 	0.19690 0.70400 0.53900 -0.18800
C 	C 	0.16810 0.72730 0.56750 0.33100
H 	H 	0.18830 0.75620 0.57290 -0.04700
C 	C 	0.15660 0.70460 0.59920 -0.63200
H 	H 	0.14040 0.72880 0.61220 0.18300
H 	H 	0.13520 0.67660 0.59640 0.20200
H 	H 	0.18680 0.69420 0.60900 0.21100
C 	C 	0.12360 0.74990 0.55200 -0.63400
H 	H 	0.10490 0.76820 0.56730 0.19600
H 	H 	0.13420 0.77180 0.53550 0.20900
H 	H 	0.10330 0.72420 0.54330 0.20100
C 	C 	0.30490 0.72100 0.48680 0.42900
H 	H 	0.31310 0.75430 0.49430 -0.08400
C 	C 	0.34390 0.68400 0.49230 -0.71800
H 	H 	0.34680 0.67780 0.51440 0.22900
H 	H 	0.33550 0.65380 0.48170 0.22100
H 	H 	0.37480 0.69620 0.48440 0.22200
C 	C 	0.29920 0.71750 0.45170 -0.68500
H 	H 	0.27510 0.74120 0.44470 0.21400
H 	H 	0.33040 0.72420 0.44180 0.21100
H 	H 	0.28840 0.68480 0.44620 0.21300
C 	C 	0.49377 0.88570 0.65065 0.32100
C 	C 	0.53740 0.87180 0.63898 -0.27400
C 	C 	0.57750 0.87240 0.65712 0.17500
H 	H 	0.60790 0.86270 0.64900 -0.05400
C 	C 	0.57410 0.88690 0.68694 -0.26300
H 	H 	0.60210 0.88740 0.69960 0.09100
C 	C 	0.53050 0.90090 0.69862 0.18600
H 	H 	0.52810 0.91100 0.71940 -0.06200
C 	C 	0.49035 0.90030 0.68047 -0.29900
C 	C 	0.44140 0.91580 0.69270 0.42200
H 	H 	0.41540 0.90830 0.67740 -0.07600
C 	C 	0.42880 0.89430 0.72410 -0.65400
H 	H 	0.42850 0.85890 0.72260 0.20500
H 	H 	0.45310 0.90450 0.73920 0.20100
H 	H 	0.39670 0.90590 0.73050 0.19800
C 	C 	0.43630 0.96700 0.70420 -0.67900
H 	H 	0.40300 0.97230 0.71120 0.21100
H 	H 	0.45880 0.97230 0.72130 0.20100
H 	H 	0.44380 0.98970 0.68750 0.21900
C 	C 	0.22090 0.93160 0.66250 0.04600
H 	H 	0.19630 0.93240 0.64730 0.02100
C 	C 	0.21690 0.96100 0.68770 -0.10200
H 	H 	0.19100 0.98360 0.68940 0.05400
C 	C 	0.25240 0.95710 0.71139 0.02600
C 	C 	0.24770 0.98900 0.73963 0.05500
C 	C 	0.28870 0.92510 0.70782 -0.09400
H 	H 	0.31220 0.92130 0.72360 0.04100
C 	C 	0.29160 0.89770 0.68120 0.03900
H 	H 	0.31770 0.87550 0.67860 0.00500
C 	C 	0.26860 0.00640 0.79157 0.06000
H 	H 	0.28550 0.99700 0.80970 -0.00300
C 	C 	0.26850 0.97570 0.76670 -0.13500
H 	H 	0.28330 0.94470 0.76840 0.06100
C 	C 	0.22340 0.03170 0.73880 -0.13000
H 	H 	0.20640 0.04140 0.72080 0.06300
C 	C 	0.22370 0.06160 0.76506 0.05200
H 	H 	0.20760 0.09200 0.76420 0.00500
N 	N 	0.25840 0.90220 0.65904 -0.06500
N 	N 	0.24590 0.04860 0.79115 -0.24100
O 	O 	0.45330 0.88500 0.63200 -0.27700
O 	O 	0.36703 0.85572 0.63072 -0.48100
O 	O 	0.42930 0.81630 0.59766 -0.50300
O 	O 	0.43270 0.80470 0.65489 -0.52300
O 	O 	0.26010 0.76290 0.53883 -0.26600
O 	O 	0.28113 0.80130 0.58846 -0.49200
O 	O 	0.34626 0.76320 0.55674 -0.50200
O 	O 	0.28500 0.71050 0.58312 -0.50500
O 	O 	0.26350 0.87640 0.63316 -0.28300
P 	P 	0.41791 0.83592 0.62871 0.51100
P 	P 	0.29618 0.75889 0.56924 0.50500
Zn	Zn	0.30863 0.81648 0.62807 1.18800
Zn	Zn	0.40563 0.75624 0.58049 1.18300
C 	C 	0.54280 0.85650 0.60550 0.38700
H 	H 	0.51070 0.85910 0.59500 -0.06100
C 	C 	0.55880 0.80310 0.60600 -0.67500
H 	H 	0.56280 0.79150 0.58480 0.20900
H 	H 	0.58970 0.80020 0.61690 0.20800
H 	H 	0.53410 0.78360 0.61640 0.20900
C 	C 	0.57910 0.89310 0.59040 -0.67500
H 	H 	0.56680 0.92620 0.59300 0.22300
H 	H 	0.61080 0.89030 0.60050 0.21300
H 	H 	0.58240 0.88570 0.56850 0.21400
