data_crystal

_cell_length_a 32.95090
_cell_length_b 6.69900
_cell_length_c 16.55550
_cell_angle_alpha 90.00000
_cell_angle_beta  90.00000
_cell_angle_gamma 90.00000

_symmetry_space_group_name_	'P 1'
_symmetry_space_group_name_H-M	'P 1'

loop_
_symmetry_equiv_pos_as_xyz
  x,y,z

loop_
_atom_site_label
_atom_site_type_symbol
_atom_site_fract_x
_atom_site_fract_y
_atom_site_fract_z
_atom_site_charge
O 	O 	0.79064 0.18810 0.91350 -0.43400
C 	C 	0.88308 0.17530 0.75100 -0.00600
C 	C 	0.85132 0.17070 0.80770 0.07300
O 	O 	0.29064 0.68810 0.91350 -0.43700
C 	C 	0.38308 0.67530 0.75100 -0.00900
C 	C 	0.35132 0.67070 0.80770 0.07000
O 	O 	0.20936 0.81190 0.91350 -0.44400
C 	C 	0.11692 0.82470 0.75100 -0.01500
C 	C 	0.14868 0.82930 0.80770 0.06400
O 	O 	0.70936 0.31190 0.91350 -0.43200
C 	C 	0.61692 0.32470 0.75100 -0.00100
C 	C 	0.64868 0.32930 0.80770 0.07600
O 	O 	0.20936 0.18810 0.08650 -0.52000
C 	C 	0.11692 0.17530 0.24900 -0.02200
C 	C 	0.14868 0.17070 0.19230 0.04000
O 	O 	0.70936 0.68810 0.08650 -0.52200
C 	C 	0.61692 0.67530 0.24900 -0.02500
C 	C 	0.64868 0.67070 0.19230 0.03600
O 	O 	0.79064 0.81190 0.08650 -0.53100
C 	C 	0.88308 0.82470 0.24900 -0.03200
C 	C 	0.85132 0.82930 0.19230 0.02900
O 	O 	0.29064 0.31190 0.08650 -0.51600
C 	C 	0.38308 0.32470 0.24900 -0.01600
C 	C 	0.35132 0.32930 0.19230 0.04300
O 	O 	0.20936 0.81190 0.08650 -0.53100
C 	C 	0.11692 0.82470 0.24900 -0.03200
C 	C 	0.14868 0.82930 0.19230 0.02900
O 	O 	0.70936 0.31190 0.08650 -0.51600
C 	C 	0.61692 0.32470 0.24900 -0.01600
C 	C 	0.64868 0.32930 0.19230 0.04300
O 	O 	0.79064 0.18810 0.08650 -0.52000
C 	C 	0.88308 0.17530 0.24900 -0.02200
C 	C 	0.85132 0.17070 0.19230 0.04000
O 	O 	0.29064 0.68810 0.08650 -0.52200
C 	C 	0.38308 0.67530 0.24900 -0.02500
C 	C 	0.35132 0.67070 0.19230 0.03600
O 	O 	0.79064 0.81190 0.91350 -0.44400
C 	C 	0.88308 0.82470 0.75100 -0.01500
C 	C 	0.85132 0.82930 0.80770 0.06400
O 	O 	0.29064 0.31190 0.91350 -0.43200
C 	C 	0.38308 0.32470 0.75100 -0.00100
C 	C 	0.35132 0.32930 0.80770 0.07600
O 	O 	0.20936 0.18810 0.91350 -0.43500
C 	C 	0.11692 0.17530 0.75100 -0.00600
C 	C 	0.14868 0.17070 0.80770 0.07300
O 	O 	0.70936 0.68810 0.91350 -0.43700
C 	C 	0.61692 0.67530 0.75100 -0.00900
C 	C 	0.64868 0.67070 0.80770 0.07000
C 	C 	0.96847 0.00000 0.66980 0.08000
C 	C 	0.97954 0.00000 0.75330 0.00800
C 	C 	0.91475 0.00000 0.56700 0.08900
C 	C 	0.87680 0.00000 0.53980 -0.00900
C 	C 	0.92947 0.00000 0.64470 -0.04400
C 	C 	0.90040 0.00000 0.71550 0.03600
C 	C 	0.83349 0.00000 0.84110 -0.02600
C 	C 	0.79910 0.00000 0.90690 0.32600
C 	C 	0.46847 0.50000 0.66980 0.08100
C 	C 	0.47954 0.50000 0.75330 0.00900
C 	C 	0.41475 0.50000 0.56700 0.08800
C 	C 	0.37680 0.50000 0.53980 -0.01100
C 	C 	0.42947 0.50000 0.64470 -0.04300
C 	C 	0.40040 0.50000 0.71550 0.02600
C 	C 	0.33349 0.50000 0.84110 -0.03500
C 	C 	0.29910 0.50000 0.90690 0.31600
C 	C 	0.03153 0.00000 0.66980 0.08100
C 	C 	0.02046 0.00000 0.75330 0.01300
C 	C 	0.08525 0.00000 0.56700 0.08900
C 	C 	0.12320 0.00000 0.53980 -0.00900
C 	C 	0.07053 0.00000 0.64470 -0.04400
C 	C 	0.09960 0.00000 0.71550 0.03600
C 	C 	0.16651 0.00000 0.84110 -0.02600
C 	C 	0.20090 0.00000 0.90690 0.32600
C 	C 	0.53153 0.50000 0.66980 0.08100
C 	C 	0.52046 0.50000 0.75330 0.00900
C 	C 	0.58525 0.50000 0.56700 0.08800
C 	C 	0.62320 0.50000 0.53980 -0.01100
C 	C 	0.57053 0.50000 0.64470 -0.04300
C 	C 	0.59960 0.50000 0.71550 0.02600
C 	C 	0.66651 0.50000 0.84110 -0.03500
C 	C 	0.70090 0.50000 0.90690 0.31600
C 	C 	0.03153 0.00000 0.33020 0.08700
C 	C 	0.02046 -0.00000 0.24670 -0.02500
C 	C 	0.08525 0.00000 0.43300 0.09200
C 	C 	0.12320 -0.00000 0.46020 -0.01000
C 	C 	0.07053 -0.00000 0.35530 -0.05300
C 	C 	0.09960 0.00000 0.28450 0.03600
C 	C 	0.16651 -0.00000 0.15890 -0.03000
C 	C 	0.20090 0.00000 0.09310 0.27900
C 	C 	0.53153 0.50000 0.33020 0.08600
C 	C 	0.52046 0.50000 0.24670 -0.03000
C 	C 	0.58525 0.50000 0.43300 0.09000
C 	C 	0.62320 0.50000 0.46020 -0.01200
C 	C 	0.57053 0.50000 0.35530 -0.05200
C 	C 	0.59960 0.50000 0.28450 0.02400
C 	C 	0.66651 0.50000 0.15890 -0.04200
C 	C 	0.70090 0.50000 0.09310 0.26500
C 	C 	0.96847 0.00000 0.33020 0.08600
C 	C 	0.97954 -0.00000 0.24670 -0.03100
C 	C 	0.91475 0.00000 0.43300 0.09100
C 	C 	0.87680 -0.00000 0.46020 -0.01000
C 	C 	0.92947 -0.00000 0.35530 -0.05300
C 	C 	0.90040 0.00000 0.28450 0.03600
C 	C 	0.83349 -0.00000 0.15890 -0.03000
C 	C 	0.79910 0.00000 0.09310 0.27900
C 	C 	0.46847 0.50000 0.33020 0.08600
C 	C 	0.47954 0.50000 0.24670 -0.03000
C 	C 	0.41475 0.50000 0.43300 0.09000
C 	C 	0.37680 0.50000 0.46020 -0.01200
C 	C 	0.42947 0.50000 0.35530 -0.05200
C 	C 	0.40040 0.50000 0.28450 0.02400
C 	C 	0.33349 0.50000 0.15890 -0.04200
C 	C 	0.29910 0.50000 0.09310 0.26500
N 	N 	0.00000 0.00000 0.61720 -0.10300
N 	N 	0.50000 0.50000 0.61720 -0.10400
N 	N 	-0.00000 -0.00000 0.38280 -0.10600
N 	N 	0.50000 0.50000 0.38280 -0.10800
N 	N 	0.93850 0.00000 0.50000 -0.10900
N 	N 	0.43850 0.50000 0.50000 -0.10800
N 	N 	0.06150 0.00000 0.50000 -0.10800
N 	N 	0.56150 0.50000 0.50000 -0.10800
Ga	Ga	0.75000 0.25000 -0.00000 2.06600
Ga	Ga	0.25000 0.75000 -0.00000 2.06400
Ga	Ga	0.25000 0.25000 -0.00000 2.06500
Ga	Ga	0.75000 0.75000 -0.00000 2.06400
O 	O 	0.72650 0.00000 -0.00000 -0.87800
O 	O 	0.22650 0.50000 -0.00000 -0.88800
O 	O 	0.27350 0.00000 -0.00000 -0.87800
O 	O 	0.77350 0.50000 -0.00000 -0.88800
