data_crystal

_cell_length_a 10.03890
_cell_length_b 17.74230
_cell_length_c 19.74570
_cell_angle_alpha 90.00000
_cell_angle_beta  90.00000
_cell_angle_gamma 90.00000

_symmetry_space_group_name_	'P 1'
_symmetry_space_group_name_H-M	'P 1'

loop_
_symmetry_equiv_pos_as_xyz
  x,y,z

loop_
_atom_site_label
_atom_site_type_symbol
_atom_site_fract_x
_atom_site_fract_y
_atom_site_fract_z
_atom_site_charge
Tb	Tb	0.03138 0.75000 0.25000 1.84900
Tb	Tb	0.46862 0.25000 0.75000 1.85300
Tb	Tb	0.96862 0.25000 0.75000 1.84900
Tb	Tb	0.53138 0.75000 0.25000 1.85300
H 	H 	0.12420 0.86320 0.45870 -0.01100
H 	H 	0.17080 0.88540 0.57190 0.09100
H 	H 	0.47220 0.75390 0.44160 -0.01000
H 	H 	0.51320 0.77410 0.55510 0.09600
H 	H 	0.36370 0.84030 0.61970 -0.01000
H 	H 	0.94840 0.56230 0.31450 0.00000
H 	H 	0.19430 0.56160 0.50940 0.06800
H 	H 	0.26260 0.62950 0.41730 0.01400
H 	H 	0.87400 0.49540 0.40670 0.06800
H 	H 	0.12420 0.63680 0.04130 -0.01000
H 	H 	0.17080 0.61460 0.92810 0.09100
H 	H 	0.47220 0.74610 0.05840 -0.01000
H 	H 	0.51320 0.72590 0.94490 0.09500
H 	H 	0.36370 0.65970 0.88030 -0.01000
H 	H 	0.94840 0.93770 0.18550 0.00200
H 	H 	0.19430 0.93840 0.99060 0.06800
H 	H 	0.26260 0.87050 0.08270 0.01400
H 	H 	0.87400 0.00460 0.09330 0.06300
H 	H 	0.37580 0.13680 0.95870 -0.01100
H 	H 	0.32920 0.11460 0.07190 0.09200
H 	H 	0.02780 0.24610 0.94160 -0.01000
H 	H 	0.98680 0.22590 0.05510 0.09600
H 	H 	0.13630 0.15970 0.11970 -0.01100
H 	H 	0.55160 0.43770 0.81450 0.00000
H 	H 	0.30570 0.43840 0.00940 0.06700
H 	H 	0.23740 0.37050 0.91730 0.01400
H 	H 	0.62600 0.50460 0.90670 0.06800
H 	H 	0.37580 0.36320 0.54130 -0.00900
H 	H 	0.32920 0.38540 0.42810 0.09000
H 	H 	0.02780 0.25390 0.55840 -0.00800
H 	H 	0.98680 0.27410 0.44490 0.09300
H 	H 	0.13630 0.34030 0.38030 -0.00800
H 	H 	0.55160 0.06230 0.68550 -0.00000
H 	H 	0.30570 0.06160 0.49060 0.06800
H 	H 	0.23740 0.12950 0.58270 0.01400
H 	H 	0.62600 0.99540 0.59330 0.06900
H 	H 	0.87580 0.13680 0.54130 -0.01100
H 	H 	0.82920 0.11460 0.42810 0.09100
H 	H 	0.52780 0.24610 0.55840 -0.01000
H 	H 	0.48680 0.22590 0.44490 0.09600
H 	H 	0.63630 0.15970 0.38030 -0.01000
H 	H 	0.05160 0.43770 0.68550 0.00000
H 	H 	0.80570 0.43840 0.49060 0.06800
H 	H 	0.73740 0.37050 0.58270 0.01400
H 	H 	0.12600 0.50460 0.59330 0.06800
H 	H 	0.87580 0.36320 0.95870 -0.01000
H 	H 	0.82920 0.38540 0.07190 0.09100
H 	H 	0.52780 0.25390 0.94160 -0.01000
H 	H 	0.48680 0.27410 0.05510 0.09500
H 	H 	0.63630 0.34030 0.11970 -0.01000
H 	H 	0.05160 0.06230 0.81450 0.00200
H 	H 	0.80570 0.06160 0.00940 0.06800
H 	H 	0.73740 0.12950 0.91730 0.01400
H 	H 	0.12600 0.99540 0.90670 0.06300
H 	H 	0.62420 0.86320 0.04130 -0.01100
H 	H 	0.67080 0.88540 0.92810 0.09200
H 	H 	0.97220 0.75390 0.05840 -0.01000
H 	H 	0.01320 0.77410 0.94490 0.09600
H 	H 	0.86370 0.84030 0.88030 -0.01100
H 	H 	0.44840 0.56230 0.18550 0.00000
H 	H 	0.69430 0.56160 0.99060 0.06700
H 	H 	0.76260 0.62950 0.08270 0.01400
H 	H 	0.37400 0.49540 0.09330 0.06800
H 	H 	0.62420 0.63680 0.45870 -0.00900
H 	H 	0.67080 0.61460 0.57190 0.09000
H 	H 	0.97220 0.74610 0.44160 -0.00800
H 	H 	0.01320 0.72590 0.55510 0.09300
H 	H 	0.86370 0.65970 0.61970 -0.00800
H 	H 	0.44840 0.93770 0.31450 -0.00000
H 	H 	0.69430 0.93840 0.50940 0.06800
H 	H 	0.76260 0.87050 0.41730 0.01400
H 	H 	0.37400 0.00460 0.40670 0.06900
C 	C 	0.27200 0.79550 0.36341 0.51600
C 	C 	0.29520 0.80712 0.43804 -0.22000
C 	C 	0.20340 0.84591 0.47759 0.12100
C 	C 	0.23100 0.85855 0.54547 -0.18600
C 	C 	0.41080 0.78033 0.46765 0.13200
C 	C 	0.43560 0.79257 0.53558 -0.19200
C 	C 	0.34630 0.83176 0.57407 0.10700
C 	C 	0.99670 0.56318 0.35472 0.06300
C 	C 	0.14180 0.56198 0.47062 -0.12100
C 	C 	0.02420 0.52136 0.47010 0.05100
C 	C 	0.18300 0.60273 0.41548 0.05800
C 	C 	0.95290 0.52255 0.40990 -0.12100
C 	C 	0.27200 0.70450 0.13659 0.51600
C 	C 	0.29520 0.69288 0.06196 -0.21900
C 	C 	0.20340 0.65409 0.02241 0.11800
C 	C 	0.23100 0.64145 0.95453 -0.18400
C 	C 	0.41080 0.71967 0.03235 0.13000
C 	C 	0.43560 0.70743 0.96442 -0.19000
C 	C 	0.34630 0.66824 0.92593 0.10500
C 	C 	0.99670 0.93682 0.14528 0.06100
C 	C 	0.14180 0.93802 0.02938 -0.12000
C 	C 	0.02420 0.97864 0.02990 0.04600
C 	C 	0.18300 0.89727 0.08452 0.05600
C 	C 	0.95290 0.97745 0.09010 -0.10900
C 	C 	0.22800 0.20450 0.86341 0.51700
C 	C 	0.20480 0.19288 0.93804 -0.22100
C 	C 	0.29660 0.15409 0.97759 0.12300
C 	C 	0.26900 0.14145 0.04547 -0.18900
C 	C 	0.08920 0.21967 0.96765 0.13400
C 	C 	0.06440 0.20743 0.03558 -0.19300
C 	C 	0.15370 0.16824 0.07407 0.10900
C 	C 	0.50330 0.43682 0.85472 0.06200
C 	C 	0.35820 0.43802 0.97062 -0.11900
C 	C 	0.47580 0.47864 0.97010 0.05100
C 	C 	0.31700 0.39727 0.91548 0.05700
C 	C 	0.54710 0.47745 0.90990 -0.12000
C 	C 	0.22800 0.29550 0.63659 0.51500
C 	C 	0.20480 0.30712 0.56196 -0.21700
C 	C 	0.29660 0.34591 0.52241 0.11700
C 	C 	0.26900 0.35855 0.45453 -0.18100
C 	C 	0.08920 0.28033 0.53235 0.12700
C 	C 	0.06440 0.29257 0.46442 -0.18400
C 	C 	0.15370 0.33176 0.42593 0.10100
C 	C 	0.50330 0.06318 0.64528 0.06300
C 	C 	0.35820 0.06198 0.52938 -0.12100
C 	C 	0.47580 0.02136 0.52990 0.05100
C 	C 	0.31700 0.10273 0.58452 0.05800
C 	C 	0.54710 0.02255 0.59010 -0.12200
C 	C 	0.72800 0.20450 0.63659 0.51600
C 	C 	0.70480 0.19288 0.56196 -0.22000
C 	C 	0.79660 0.15409 0.52241 0.12100
C 	C 	0.76900 0.14145 0.45453 -0.18600
C 	C 	0.58920 0.21967 0.53235 0.13200
C 	C 	0.56440 0.20743 0.46442 -0.19200
C 	C 	0.65370 0.16824 0.42593 0.10700
C 	C 	0.00330 0.43682 0.64528 0.06300
C 	C 	0.85820 0.43802 0.52938 -0.12100
C 	C 	0.97580 0.47864 0.52990 0.05100
C 	C 	0.81700 0.39727 0.58452 0.05800
C 	C 	0.04710 0.47745 0.59010 -0.12100
C 	C 	0.72800 0.29550 0.86341 0.51600
C 	C 	0.70480 0.30712 0.93804 -0.21900
C 	C 	0.79660 0.34591 0.97759 0.11800
C 	C 	0.76900 0.35855 0.04547 -0.18400
C 	C 	0.58920 0.28033 0.96765 0.13000
C 	C 	0.56440 0.29257 0.03558 -0.19000
C 	C 	0.65370 0.33176 0.07407 0.10500
C 	C 	0.00330 0.06318 0.85472 0.06100
C 	C 	0.85820 0.06198 0.97062 -0.12000
C 	C 	0.97580 0.02136 0.97010 0.04600
C 	C 	0.81700 0.10273 0.91548 0.05600
C 	C 	0.04710 0.02255 0.90990 -0.10900
C 	C 	0.77200 0.79550 0.13659 0.51700
C 	C 	0.79520 0.80712 0.06196 -0.22100
C 	C 	0.70340 0.84591 0.02241 0.12300
C 	C 	0.73100 0.85855 0.95453 -0.18900
C 	C 	0.91080 0.78033 0.03235 0.13400
C 	C 	0.93560 0.79257 0.96442 -0.19300
C 	C 	0.84630 0.83176 0.92593 0.10900
C 	C 	0.49670 0.56318 0.14528 0.06200
C 	C 	0.64180 0.56198 0.02938 -0.11900
C 	C 	0.52420 0.52136 0.02990 0.05100
C 	C 	0.68300 0.60273 0.08452 0.05700
C 	C 	0.45290 0.52255 0.09010 -0.12000
C 	C 	0.77200 0.70450 0.36341 0.51500
C 	C 	0.79520 0.69288 0.43804 -0.21700
C 	C 	0.70340 0.65409 0.47759 0.11700
C 	C 	0.73100 0.64145 0.54547 -0.18100
C 	C 	0.91080 0.71967 0.46765 0.12700
C 	C 	0.93560 0.70743 0.53558 -0.18400
C 	C 	0.84630 0.66824 0.57407 0.10100
C 	C 	0.49670 0.93682 0.35472 0.06300
C 	C 	0.64180 0.93802 0.47062 -0.12100
C 	C 	0.52420 0.97864 0.47010 0.05100
C 	C 	0.68300 0.89727 0.41548 0.05800
C 	C 	0.45290 0.97745 0.40990 -0.12200
N 	N 	0.10885 0.60402 0.35889 -0.07600
N 	N 	0.10885 0.89598 0.14111 -0.07600
N 	N 	0.39115 0.39598 0.85889 -0.07500
N 	N 	0.39115 0.10402 0.64111 -0.07600
N 	N 	0.89115 0.39598 0.64111 -0.07600
N 	N 	0.89115 0.10402 0.85889 -0.07600
N 	N 	0.60885 0.60402 0.14111 -0.07500
N 	N 	0.60885 0.89598 0.35889 -0.07600
O 	O 	0.37315 0.78027 0.32859 -0.55000
O 	O 	0.15641 0.80171 0.34010 -0.51300
O 	O 	0.14915 0.64460 0.30523 -0.30300
O 	O 	0.37315 0.71973 0.17141 -0.55000
O 	O 	0.15641 0.69829 0.15990 -0.51200
O 	O 	0.14915 0.85540 0.19477 -0.30400
O 	O 	0.12685 0.21973 0.82859 -0.54800
O 	O 	0.34359 0.19829 0.84010 -0.51200
O 	O 	0.35085 0.35540 0.80523 -0.30300
O 	O 	0.12685 0.28027 0.67141 -0.54800
O 	O 	0.34359 0.30171 0.65990 -0.51200
O 	O 	0.35085 0.14460 0.69477 -0.30300
O 	O 	0.62685 0.21973 0.67141 -0.55000
O 	O 	0.84359 0.19829 0.65990 -0.51300
O 	O 	0.85085 0.35540 0.69477 -0.30300
O 	O 	0.62685 0.28027 0.82859 -0.55000
O 	O 	0.84359 0.30171 0.84010 -0.51200
O 	O 	0.85085 0.14460 0.80523 -0.30400
O 	O 	0.87315 0.78027 0.17141 -0.54800
O 	O 	0.65641 0.80171 0.15990 -0.51200
O 	O 	0.64915 0.64460 0.19477 -0.30300
O 	O 	0.87315 0.71973 0.32859 -0.54800
O 	O 	0.65641 0.69829 0.34010 -0.51200
O 	O 	0.64915 0.85540 0.30523 -0.30300
