data_crystal

_cell_length_a 9.96380
_cell_length_b 18.08200
_cell_length_c 18.45000
_cell_angle_alpha 90.00000
_cell_angle_beta  90.00000
_cell_angle_gamma 90.00000

_symmetry_space_group_name_	'P 1'
_symmetry_space_group_name_H-M	'P 1'

loop_
_symmetry_equiv_pos_as_xyz
  x,y,z

loop_
_atom_site_label
_atom_site_type_symbol
_atom_site_fract_x
_atom_site_fract_y
_atom_site_fract_z
_atom_site_charge
Mg	Mg	0.42491 0.94144 0.82153 1.48000
Mg	Mg	0.61579 0.03518 0.71717 1.47900
Mg	Mg	0.07509 0.44144 0.67847 1.46100
Mg	Mg	0.88421 0.53518 0.78283 1.48700
Mg	Mg	0.57509 0.55856 0.82153 1.47800
Mg	Mg	0.38421 0.46482 0.71717 1.48100
Mg	Mg	0.92491 0.05856 0.67847 1.49200
Mg	Mg	0.11579 0.96482 0.78283 1.47800
Mg	Mg	0.57509 0.05856 0.17847 1.47600
Mg	Mg	0.38421 0.96482 0.28283 1.48400
Mg	Mg	0.92491 0.55856 0.32153 1.49400
Mg	Mg	0.11579 0.46482 0.21717 1.47500
Mg	Mg	0.42491 0.44144 0.17847 1.47800
Mg	Mg	0.61579 0.53518 0.28283 1.48100
Mg	Mg	0.07509 0.94144 0.32153 1.46400
Mg	Mg	0.88421 0.03518 0.21717 1.48400
Mg	Mg	0.50000 0.00000 -0.00000 1.46600
Mg	Mg	0.00000 0.50000 0.50000 1.46700
Mg	Mg	0.50000 0.50000 -0.00000 1.47300
Mg	Mg	0.00000 0.00000 0.50000 1.46000
Mg	Mg	0.50000 0.75000 0.81559 1.48300
Mg	Mg	-0.00000 0.25000 0.68441 1.46700
Mg	Mg	0.50000 0.25000 0.18441 1.48300
Mg	Mg	0.00000 0.75000 0.31559 1.46700
H 	H 	0.26730 0.00440 0.63830 -0.13500
H 	H 	0.12830 0.99300 0.94770 -0.15000
H 	H 	0.20960 0.76460 0.81740 -0.16900
H 	H 	0.69680 0.87420 0.68520 -0.12300
H 	H 	0.53850 0.14400 0.84860 -0.13000
H 	H 	0.65370 0.86520 0.97030 -0.07100
H 	H 	0.23270 0.50440 0.86170 -0.15100
H 	H 	0.37170 0.49300 0.55230 -0.15800
H 	H 	0.29040 0.26460 0.68260 -0.15300
H 	H 	0.80320 0.37420 0.81480 -0.13800
H 	H 	0.96150 0.64400 0.65140 -0.09200
H 	H 	0.84630 0.36520 0.52970 -0.10300
H 	H 	0.73270 0.49560 0.63830 -0.14700
H 	H 	0.87170 0.50700 0.94770 -0.06600
H 	H 	0.79040 0.73540 0.81740 -0.10200
H 	H 	0.30320 0.62580 0.68520 -0.19200
H 	H 	0.46150 0.35600 0.84860 -0.13200
H 	H 	0.34630 0.63480 0.97030 -0.11000
H 	H 	0.76730 0.99560 0.86170 -0.12700
H 	H 	0.62830 0.00700 0.55230 -0.18000
H 	H 	0.70960 0.23540 0.68260 -0.12900
H 	H 	0.19680 0.12580 0.81480 -0.19500
H 	H 	0.03850 0.85600 0.65140 -0.19300
H 	H 	0.15370 0.13480 0.52970 -0.18500
H 	H 	0.73270 0.99560 0.36170 -0.16200
H 	H 	0.87170 0.00700 0.05230 -0.16200
H 	H 	0.79040 0.23540 0.18260 -0.11300
H 	H 	0.30320 0.12580 0.31480 -0.21100
H 	H 	0.46150 0.85600 0.15140 -0.16100
H 	H 	0.34630 0.13480 0.02970 -0.20500
H 	H 	0.76730 0.49560 0.13830 -0.14600
H 	H 	0.62830 0.50700 0.44770 -0.15300
H 	H 	0.70960 0.73540 0.31740 -0.12700
H 	H 	0.19680 0.62580 0.18520 -0.19500
H 	H 	0.03850 0.35600 0.34860 -0.20000
H 	H 	0.15370 0.63480 0.47030 -0.17100
H 	H 	0.26730 0.50440 0.36170 -0.14900
H 	H 	0.12830 0.49300 0.05230 -0.24500
H 	H 	0.20960 0.26460 0.18260 -0.18000
H 	H 	0.69680 0.37420 0.31480 -0.14300
H 	H 	0.53850 0.64400 0.15140 -0.16000
H 	H 	0.65370 0.36520 0.02970 -0.16600
H 	H 	0.23270 0.00440 0.13830 -0.16900
H 	H 	0.37170 0.99300 0.44770 -0.13000
H 	H 	0.29040 0.76460 0.31740 -0.15200
H 	H 	0.80320 0.87420 0.18520 -0.13700
H 	H 	0.96150 0.14400 0.34860 -0.09900
H 	H 	0.84630 0.86520 0.47030 -0.08800
C 	C 	0.33430 0.00110 0.67330 0.46400
C 	C 	0.21910 0.98830 0.93680 0.63400
C 	C 	0.22810 0.81470 0.81160 0.63000
C 	C 	0.63200 0.86700 0.72080 0.61500
C 	C 	0.51940 0.09590 0.86310 0.60700
C 	C 	0.59980 0.86390 0.92920 0.57100
C 	C 	0.16570 0.50110 0.82670 0.60500
C 	C 	0.28090 0.48830 0.56320 0.65500
C 	C 	0.27190 0.31470 0.68840 0.63000
C 	C 	0.86800 0.36700 0.77920 0.61600
C 	C 	0.98060 0.59590 0.63690 0.58200
C 	C 	0.90020 0.36390 0.57080 0.57800
C 	C 	0.66570 0.49890 0.67330 0.59000
C 	C 	0.78090 0.51170 0.93680 0.61000
C 	C 	0.77190 0.68530 0.81160 0.58600
C 	C 	0.36800 0.63300 0.72080 0.64200
C 	C 	0.48060 0.40410 0.86310 0.60100
C 	C 	0.40020 0.63610 0.92920 0.59000
C 	C 	0.83430 0.99890 0.82670 0.69500
C 	C 	0.71910 0.01170 0.56320 0.66200
C 	C 	0.72810 0.18530 0.68840 0.58600
C 	C 	0.13200 0.13300 0.77920 0.66100
C 	C 	0.01940 0.90410 0.63690 0.64300
C 	C 	0.09980 0.13610 0.57080 0.61900
C 	C 	0.66570 0.99890 0.32670 0.72300
C 	C 	0.78090 0.01170 0.06320 0.67100
C 	C 	0.77190 0.18530 0.18840 0.58500
C 	C 	0.36800 0.13300 0.27920 0.65400
C 	C 	0.48060 0.90410 0.13690 0.62500
C 	C 	0.40020 0.13610 0.07080 0.61900
C 	C 	0.83430 0.49890 0.17330 0.57600
C 	C 	0.71910 0.51170 0.43680 0.65000
C 	C 	0.72810 0.68530 0.31160 0.58200
C 	C 	0.13200 0.63300 0.22080 0.65100
C 	C 	0.01940 0.40410 0.36310 0.65200
C 	C 	0.09980 0.63610 0.42920 0.60900
C 	C 	0.33430 0.50110 0.32670 0.59100
C 	C 	0.21910 0.48830 0.06320 0.69500
C 	C 	0.22810 0.31470 0.18840 0.62800
C 	C 	0.63200 0.36700 0.27920 0.62800
C 	C 	0.51940 0.59590 0.13690 0.63400
C 	C 	0.59980 0.36390 0.07080 0.60100
C 	C 	0.16570 0.00110 0.17330 0.48300
C 	C 	0.28090 0.98830 0.43680 0.64200
C 	C 	0.27190 0.81470 0.31160 0.62600
C 	C 	0.86800 0.86700 0.22080 0.60500
C 	C 	0.98060 0.09590 0.36310 0.59000
C 	C 	0.90020 0.86390 0.42920 0.56700
O 	O 	0.30360 0.97043 0.73273 -0.59200
O 	O 	0.44560 0.02720 0.65762 -0.50500
O 	O 	0.34950 0.83369 0.81657 -0.68000
O 	O 	0.13220 0.85510 0.80000 -0.58100
O 	O 	0.51380 0.04688 0.81404 -0.70800
O 	O 	0.58240 0.92415 0.74863 -0.64800
O 	O 	0.52860 0.92084 0.91618 -0.61200
O 	O 	0.24820 0.97962 0.87154 -0.67300
O 	O 	0.60420 0.80270 0.73542 -0.51100
O 	O 	0.60380 0.80730 0.89227 -0.49500
O 	O 	0.29610 0.99110 0.98753 -0.44900
O 	O 	0.50150 0.08510 0.92807 -0.50100
O 	O 	0.19640 0.47043 0.76727 -0.72100
O 	O 	0.05440 0.52720 0.84238 -0.61200
O 	O 	0.15050 0.33369 0.68343 -0.74200
O 	O 	0.36780 0.35510 0.70000 -0.54000
O 	O 	0.98620 0.54688 0.68596 -0.60000
O 	O 	0.91760 0.42415 0.75137 -0.62400
O 	O 	0.97140 0.42084 0.58382 -0.58000
O 	O 	0.25180 0.47962 0.62846 -0.73000
O 	O 	0.89580 0.30270 0.76458 -0.45200
O 	O 	0.89620 0.30730 0.60773 -0.46400
O 	O 	0.20390 0.49110 0.51247 -0.57600
O 	O 	0.99850 0.58510 0.57193 -0.42800
O 	O 	0.69640 0.52957 0.73273 -0.67400
O 	O 	0.55440 0.47280 0.65762 -0.51400
O 	O 	0.65050 0.66631 0.81657 -0.65800
O 	O 	0.86780 0.64490 0.80000 -0.46600
O 	O 	0.48620 0.45312 0.81404 -0.67100
O 	O 	0.41760 0.57585 0.74863 -0.69700
O 	O 	0.47140 0.57916 0.91618 -0.64100
O 	O 	0.75180 0.52038 0.87154 -0.65100
O 	O 	0.39580 0.69730 0.73542 -0.53800
O 	O 	0.39620 0.69270 0.89227 -0.52100
O 	O 	0.70390 0.50890 0.98753 -0.44900
O 	O 	0.49850 0.41490 0.92807 -0.48100
O 	O 	0.80360 0.02957 0.76727 -0.71100
O 	O 	0.94560 0.97280 0.84238 -0.39900
O 	O 	0.84950 0.16631 0.68343 -0.59800
O 	O 	0.63220 0.14490 0.70000 -0.52000
O 	O 	0.01380 0.95312 0.68596 -0.71700
O 	O 	0.08240 0.07585 0.75137 -0.78600
O 	O 	0.02860 0.07916 0.58382 -0.77300
O 	O 	0.74820 0.02038 0.62846 -0.67900
O 	O 	0.10420 0.19730 0.76458 -0.59000
O 	O 	0.10380 0.19270 0.60773 -0.58900
O 	O 	0.79610 0.00890 0.51247 -0.53300
O 	O 	0.00150 0.91490 0.57193 -0.59900
O 	O 	0.69640 0.02957 0.26727 -0.76500
O 	O 	0.55440 0.97280 0.34238 -0.52400
O 	O 	0.65050 0.16631 0.18343 -0.66600
O 	O 	0.86780 0.14490 0.20000 -0.47900
O 	O 	0.48620 0.95312 0.18596 -0.64600
O 	O 	0.41760 0.07585 0.25137 -0.73400
O 	O 	0.47140 0.07916 0.08382 -0.72000
O 	O 	0.75180 0.02038 0.12846 -0.70800
O 	O 	0.39580 0.19730 0.26458 -0.54700
O 	O 	0.39620 0.19270 0.10773 -0.55900
O 	O 	0.70390 0.00890 0.01247 -0.62000
O 	O 	0.49850 0.91490 0.07193 -0.55100
O 	O 	0.80360 0.52957 0.23273 -0.63200
O 	O 	0.94560 0.47280 0.15762 -0.41700
O 	O 	0.84950 0.66631 0.31657 -0.59800
O 	O 	0.63220 0.64490 0.30000 -0.51900
O 	O 	0.01380 0.45312 0.31404 -0.75700
O 	O 	0.08240 0.57585 0.24863 -0.75700
O 	O 	0.02860 0.57916 0.41618 -0.75000
O 	O 	0.74820 0.52038 0.37154 -0.65000
O 	O 	0.10420 0.69730 0.23542 -0.60000
O 	O 	0.10380 0.69270 0.39227 -0.58400
O 	O 	0.79610 0.50890 0.48753 -0.49100
O 	O 	0.00150 0.41490 0.42807 -0.62800
O 	O 	0.30360 0.47043 0.26727 -0.67900
O 	O 	0.44560 0.52720 0.34238 -0.51500
O 	O 	0.34950 0.33369 0.18343 -0.68800
O 	O 	0.13220 0.35510 0.20000 -0.59500
O 	O 	0.51380 0.54688 0.18596 -0.68600
O 	O 	0.58240 0.42415 0.25137 -0.68500
O 	O 	0.52860 0.42084 0.08382 -0.69200
O 	O 	0.24820 0.47962 0.12846 -0.73000
O 	O 	0.60420 0.30270 0.26458 -0.51900
O 	O 	0.60380 0.30730 0.10773 -0.53400
O 	O 	0.29610 0.49110 0.01247 -0.62000
O 	O 	0.50150 0.58510 0.07193 -0.57800
O 	O 	0.19640 0.97043 0.23273 -0.63900
O 	O 	0.05440 0.02720 0.15762 -0.62800
O 	O 	0.15050 0.83369 0.31657 -0.74300
O 	O 	0.36780 0.85510 0.30000 -0.53900
O 	O 	0.98620 0.04688 0.31404 -0.64100
O 	O 	0.91760 0.92415 0.24863 -0.59200
O 	O 	0.97140 0.92084 0.41618 -0.55300
O 	O 	0.25180 0.97962 0.37154 -0.70000
O 	O 	0.89580 0.80270 0.23542 -0.46000
O 	O 	0.89620 0.80730 0.39227 -0.45800
O 	O 	0.20390 0.99110 0.48753 -0.53100
O 	O 	0.99850 0.08510 0.42807 -0.45600
