data_crystal

_cell_length_a 18.91750
_cell_length_b 18.91750
_cell_length_c 71.90800
_cell_angle_alpha 90.00000
_cell_angle_beta  90.00000
_cell_angle_gamma 90.00000

_symmetry_space_group_name_	'P 1'
_symmetry_space_group_name_H-M	'P 1'

loop_
_symmetry_equiv_pos_as_xyz
  x,y,z

loop_
_atom_site_label
_atom_site_type_symbol
_atom_site_fract_x
_atom_site_fract_y
_atom_site_fract_z
_atom_site_charge
Al	Al	0.39683 0.64706 0.53690 2.39800
Al	Al	0.34168 0.67141 0.49945 2.39200
Al	Al	0.50432 0.52994 0.55566 2.40100
O 	O 	0.46706 0.57874 0.53577 -1.09700
H 	H 	0.48550 0.56790 0.52380 0.29500
O 	O 	0.40867 0.62303 0.48410 -0.93300
O 	O 	0.44993 0.69850 0.55399 -0.64900
C 	C 	0.69570 0.85290 0.70337 -0.18300
O 	O 	0.53797 0.48138 0.57733 -0.65700
C 	C 	0.56440 0.38960 0.59915 -0.15400
C 	C 	0.42000 0.25850 0.69031 0.07200
O 	O 	0.49065 0.60678 0.57197 -0.62700
C 	C 	0.55770 0.29140 0.65245 0.02900
C 	C 	0.20620 0.00310 0.67913 -0.26000
C 	C 	0.47370 0.67390 0.56947 0.47500
C 	C 	0.33260 0.94040 0.66495 0.10800
C 	C 	0.46620 0.83750 0.63709 0.02500
C 	C 	0.60060 0.32580 0.60214 0.05600
H 	H 	0.62660 0.30410 0.59240 0.02900
C 	C 	0.40360 0.87320 0.64207 -0.07900
H 	H 	0.36530 0.87460 0.63350 0.05900
C 	C 	0.56330 0.42080 0.57954 0.53000
C 	C 	0.70720 0.86310 0.68381 0.07900
H 	H 	0.75380 0.86430 0.67890 0.02800
C 	C 	0.29370 0.25180 0.69014 0.08600
H 	H 	0.25070 0.24960 0.68330 0.02700
C 	C 	0.54780 0.21970 0.68643 -0.09600
H 	H 	0.54490 0.19510 0.69790 0.06200
C 	C 	0.49870 0.29680 0.66312 -0.09000
H 	H 	0.46140 0.32670 0.65910 0.06000
C 	C 	0.39710 0.90580 0.65906 0.00600
C 	C 	0.27300 0.03710 0.68035 0.12900
H 	H 	0.27490 0.08270 0.68590 0.00600
C 	C 	0.52020 0.87400 0.66548 0.01700
C 	C 	0.47710 0.71830 0.58595 -0.15400
C 	C 	0.41740 0.25860 0.70986 -0.15400
H 	H 	0.46010 0.26240 0.71670 0.08300
C 	C 	0.20680 0.93860 0.67023 0.15500
H 	H 	0.16300 0.91490 0.66870 -0.00100
C 	C 	0.29240 0.24860 0.70953 -0.18900
C 	C 	0.58000 0.86840 0.67954 0.07400
C 	C 	0.61560 0.24940 0.65908 -0.09600
H 	H 	0.65780 0.24450 0.65200 0.06200
C 	C 	0.52390 0.83840 0.64835 -0.08500
H 	H 	0.56630 0.81520 0.64470 0.06000
C 	C 	0.62830 0.85530 0.71020 0.09400
H 	H 	0.62030 0.85240 0.72320 0.02400
C 	C 	0.49060 0.25880 0.68031 0.02100
C 	C 	0.33580 0.00780 0.67396 -0.18900
H 	H 	0.37960 0.03170 0.67550 0.08900
C 	C 	0.35820 0.25850 0.68059 -0.13800
H 	H 	0.35870 0.26300 0.66740 0.07700
C 	C 	0.50710 0.73520 0.61801 -0.12000
H 	H 	0.53010 0.71940 0.62900 0.07200
C 	C 	0.51130 0.69410 0.60206 0.06900
H 	H 	0.53660 0.65070 0.60200 0.03200
C 	C 	0.47020 0.79850 0.61843 0.05900
C 	C 	0.57040 0.86210 0.69783 -0.13900
H 	H 	0.52360 0.86220 0.70270 0.08000
C 	C 	0.64900 0.87130 0.67208 -0.12700
H 	H 	0.65570 0.87870 0.65910 0.07700
C 	C 	0.52870 0.39220 0.63166 -0.10700
H 	H 	0.50480 0.41510 0.64160 0.06800
C 	C 	0.56290 0.32770 0.63461 0.04700
C 	C 	0.59750 0.29460 0.61989 -0.11200
H 	H 	0.61940 0.25010 0.62190 0.06700
C 	C 	0.44120 0.78380 0.58620 0.06900
H 	H 	0.41880 0.80070 0.57520 0.03400
C 	C 	0.14480 0.03340 0.68729 0.55800
C 	C 	0.35690 0.25360 0.71893 0.10500
H 	H 	0.35720 0.25330 0.73210 0.01400
O 	O 	0.14854 0.09511 0.69402 -0.67900
O 	O 	0.08800 0.99726 0.68760 -0.64400
C 	C 	0.26790 0.90540 0.66332 -0.18100
H 	H 	0.26520 0.86010 0.65770 0.09300
O 	O 	0.58917 0.38122 0.56707 -0.71000
C 	C 	0.43850 0.82300 0.60211 -0.12200
H 	H 	0.41480 0.86730 0.60210 0.07500
C 	C 	0.45610 0.90800 0.67070 -0.07500
H 	H 	0.45340 0.93250 0.68220 0.05900
C 	C 	0.65390 0.09990 0.69006 -0.12700
H 	H 	0.60680 0.08280 0.69120 0.07000
C 	C 	0.73850 0.19570 0.68182 -0.13400
H 	H 	0.74740 0.24290 0.67800 0.07700
C 	C 	0.67040 0.16880 0.68279 0.05700
O 	O 	0.75178 0.84253 0.73277 -0.66100
O 	O 	0.52277 0.45239 0.54091 -1.15600
H 	H 	0.48730 0.43970 0.53220 0.28000
C 	C 	0.71470 0.05900 0.69541 0.08100
H 	H 	0.70710 0.01320 0.70040 0.01500
C 	C 	0.79430 0.14940 0.68683 0.08900
H 	H 	0.84160 0.16550 0.68540 0.02200
C 	C 	0.53020 0.42430 0.61305 0.05500
H 	H 	0.50780 0.46840 0.61080 0.03500
C 	C 	0.60770 0.21610 0.67635 0.03400
C 	C 	0.78340 0.08260 0.69365 -0.19700
C 	C 	0.84200 0.03760 0.69796 0.49400
O 	O 	0.83435 0.97379 0.70245 -0.64400
O 	O 	0.90469 0.06832 0.69803 -0.66000
O 	O 	0.22271 0.22997 0.73627 -0.63700
C 	C 	0.22550 0.23490 0.71871 0.49800
O 	O 	0.17180 0.21664 0.70843 -0.64600
C 	C 	0.75870 0.84320 0.71479 0.52500
O 	O 	0.81699 0.83680 0.70689 -0.70700
O 	O 	0.33932 0.60407 0.51879 -0.91700
O 	O 	0.42160 0.69861 0.51467 -0.79700
O 	O 	0.26325 0.62375 0.48941 -0.54500
C 	C 	0.47730 0.62160 0.49312 0.12100
H 	H 	0.51480 0.61940 0.48350 -0.02600
H 	H 	0.48100 0.57860 0.50090 -0.05700
C 	C 	0.48790 0.68460 0.50480 -0.02400
H 	H 	0.52660 0.67610 0.51380 0.03000
H 	H 	0.50090 0.72560 0.49700 0.05400
C 	C 	0.22770 0.58000 0.50354 -0.11100
H 	H 	0.20510 0.53870 0.49750 0.06500
H 	H 	0.19050 0.60800 0.50980 0.07000
C 	C 	0.28130 0.55520 0.51757 0.20800
H 	H 	0.25850 0.55080 0.52990 -0.03000
H 	H 	0.29920 0.50810 0.51390 -0.04300
Al	Al	0.60192 0.39767 0.54131 2.39000
Al	Al	0.60317 0.35294 0.03690 2.39900
Al	Al	0.65832 0.32859 0.99945 2.39300
Al	Al	0.49568 0.47006 0.05566 2.40200
O 	O 	0.53294 0.42126 0.03577 -1.09600
H 	H 	0.51450 0.43210 0.02380 0.29600
O 	O 	0.59133 0.37697 0.98410 -0.93200
O 	O 	0.55007 0.30150 0.05399 -0.64800
C 	C 	0.30430 0.14710 0.20337 -0.18200
O 	O 	0.46203 0.51862 0.07733 -0.65600
C 	C 	0.43560 0.61040 0.09915 -0.15300
C 	C 	0.58000 0.74150 0.19031 0.07300
O 	O 	0.50935 0.39322 0.07197 -0.62600
C 	C 	0.44230 0.70860 0.15245 0.03000
C 	C 	0.79380 0.99690 0.17913 -0.25900
C 	C 	0.52630 0.32610 0.06947 0.47600
C 	C 	0.66740 0.05960 0.16495 0.10900
C 	C 	0.53380 0.16250 0.13709 0.02500
C 	C 	0.39940 0.67420 0.10214 0.05600
H 	H 	0.37340 0.69590 0.09240 0.02900
C 	C 	0.59640 0.12680 0.14207 -0.07900
H 	H 	0.63470 0.12540 0.13350 0.05900
C 	C 	0.43670 0.57920 0.07954 0.53000
C 	C 	0.29280 0.13690 0.18381 0.07900
H 	H 	0.24620 0.13570 0.17890 0.02800
C 	C 	0.70630 0.74820 0.19014 0.08600
H 	H 	0.74930 0.75040 0.18330 0.02700
C 	C 	0.45220 0.78030 0.18643 -0.09600
H 	H 	0.45510 0.80490 0.19790 0.06200
C 	C 	0.50130 0.70320 0.16312 -0.09000
H 	H 	0.53860 0.67330 0.15910 0.06000
C 	C 	0.60290 0.09420 0.15906 0.00600
C 	C 	0.72700 0.96290 0.18035 0.12900
H 	H 	0.72510 0.91730 0.18590 0.00600
C 	C 	0.47980 0.12600 0.16548 0.01700
C 	C 	0.52290 0.28170 0.08595 -0.15400
C 	C 	0.58260 0.74140 0.20986 -0.15400
H 	H 	0.53990 0.73760 0.21670 0.08300
C 	C 	0.79320 0.06140 0.17023 0.15500
H 	H 	0.83700 0.08510 0.16870 -0.00100
C 	C 	0.70760 0.75140 0.20953 -0.18900
C 	C 	0.42000 0.13160 0.17954 0.07400
C 	C 	0.38440 0.75060 0.15908 -0.09600
H 	H 	0.34220 0.75550 0.15200 0.06200
C 	C 	0.47610 0.16160 0.14835 -0.08500
H 	H 	0.43370 0.18480 0.14470 0.06000
C 	C 	0.37170 0.14470 0.21020 0.09400
H 	H 	0.37970 0.14760 0.22320 0.02400
C 	C 	0.50940 0.74120 0.18031 0.02100
C 	C 	0.66420 0.99220 0.17396 -0.18900
H 	H 	0.62040 0.96830 0.17550 0.08900
C 	C 	0.64180 0.74150 0.18059 -0.13800
H 	H 	0.64130 0.73700 0.16740 0.07700
C 	C 	0.49290 0.26480 0.11801 -0.12000
H 	H 	0.46990 0.28060 0.12900 0.07200
C 	C 	0.48870 0.30590 0.10206 0.06900
H 	H 	0.46340 0.34930 0.10200 0.03200
C 	C 	0.52980 0.20150 0.11843 0.05900
C 	C 	0.42960 0.13790 0.19783 -0.13900
H 	H 	0.47640 0.13780 0.20270 0.08000
C 	C 	0.35100 0.12870 0.17208 -0.12700
H 	H 	0.34430 0.12130 0.15910 0.07700
C 	C 	0.47130 0.60780 0.13166 -0.10700
H 	H 	0.49520 0.58490 0.14160 0.06800
C 	C 	0.43710 0.67230 0.13461 0.04700
C 	C 	0.40250 0.70540 0.11989 -0.11200
H 	H 	0.38060 0.74990 0.12190 0.06700
C 	C 	0.55880 0.21620 0.08620 0.06900
H 	H 	0.58120 0.19930 0.07520 0.03400
C 	C 	0.85520 0.96660 0.18729 0.55800
C 	C 	0.64310 0.74640 0.21893 0.10500
H 	H 	0.64280 0.74670 0.23210 0.01400
O 	O 	0.85146 0.90489 0.19402 -0.67900
O 	O 	0.91200 0.00274 0.18760 -0.64400
C 	C 	0.73210 0.09460 0.16332 -0.18100
H 	H 	0.73480 0.13990 0.15770 0.09300
O 	O 	0.41083 0.61878 0.06707 -0.71000
C 	C 	0.56150 0.17700 0.10211 -0.12200
H 	H 	0.58520 0.13270 0.10210 0.07500
C 	C 	0.54390 0.09200 0.17070 -0.07500
H 	H 	0.54660 0.06750 0.18220 0.05900
C 	C 	0.34610 0.90010 0.19006 -0.12700
H 	H 	0.39320 0.91720 0.19120 0.07000
C 	C 	0.26150 0.80430 0.18182 -0.13400
H 	H 	0.25260 0.75710 0.17800 0.07700
C 	C 	0.32960 0.83120 0.18279 0.05700
O 	O 	0.24822 0.15747 0.23277 -0.66100
O 	O 	0.47723 0.54761 0.04091 -1.15600
H 	H 	0.51270 0.56030 0.03220 0.28000
C 	C 	0.28530 0.94100 0.19541 0.08100
H 	H 	0.29290 0.98680 0.20040 0.01500
C 	C 	0.20570 0.85060 0.18683 0.08900
H 	H 	0.15840 0.83450 0.18540 0.02200
C 	C 	0.46980 0.57570 0.11305 0.05500
H 	H 	0.49220 0.53160 0.11080 0.03500
C 	C 	0.39230 0.78390 0.17635 0.03400
C 	C 	0.21660 0.91740 0.19365 -0.19700
C 	C 	0.15800 0.96240 0.19796 0.49400
O 	O 	0.16565 0.02621 0.20245 -0.64400
O 	O 	0.09531 0.93168 0.19803 -0.66000
O 	O 	0.77729 0.77003 0.23627 -0.63700
C 	C 	0.77450 0.76510 0.21871 0.49800
O 	O 	0.82820 0.78336 0.20843 -0.64600
C 	C 	0.24130 0.15680 0.21479 0.52500
O 	O 	0.18301 0.16320 0.20689 -0.70700
O 	O 	0.66068 0.39593 0.01879 -0.91700
O 	O 	0.57840 0.30139 0.01467 -0.79700
O 	O 	0.73675 0.37625 0.98941 -0.54500
C 	C 	0.52270 0.37840 0.99312 0.12100
H 	H 	0.48520 0.38060 0.98350 -0.02600
H 	H 	0.51900 0.42140 0.00090 -0.05700
C 	C 	0.51210 0.31540 0.00480 -0.02400
H 	H 	0.47340 0.32390 0.01380 0.03000
H 	H 	0.49910 0.27440 0.99700 0.05400
C 	C 	0.77230 0.42000 0.00354 -0.11100
H 	H 	0.79490 0.46130 0.99750 0.06500
H 	H 	0.80950 0.39200 0.00980 0.07000
C 	C 	0.71870 0.44480 0.01757 0.20800
H 	H 	0.74150 0.44920 0.02990 -0.03000
H 	H 	0.70080 0.49190 0.01390 -0.04300
Al	Al	0.39808 0.60233 0.04131 2.39000
Al	Al	0.85294 0.89683 0.78690 2.39900
Al	Al	0.82859 0.84168 0.74945 2.39300
Al	Al	0.97006 0.00432 0.80566 2.39900
O 	O 	0.92126 0.96706 0.78577 -1.09400
H 	H 	0.93210 0.98550 0.77380 0.29900
O 	O 	0.87697 0.90867 0.73410 -0.93200
O 	O 	0.80150 0.94993 0.80399 -0.64200
C 	C 	0.64710 0.19570 0.95337 -0.18300
O 	O 	0.01862 0.03797 0.82733 -0.65100
C 	C 	0.11040 0.06440 0.84915 -0.15300
C 	C 	0.24150 0.92000 0.94031 0.07400
O 	O 	0.89322 0.99065 0.82197 -0.61900
C 	C 	0.20860 0.05770 0.90245 0.02200
C 	C 	0.49690 0.70620 0.92913 -0.22700
C 	C 	0.82610 0.97370 0.81947 0.47100
C 	C 	0.55960 0.83260 0.91495 0.07200
C 	C 	0.66250 0.96620 0.88709 0.04300
C 	C 	0.17420 0.10060 0.85214 0.05700
H 	H 	0.19590 0.12660 0.84240 0.02900
C 	C 	0.62680 0.90360 0.89207 -0.09200
H 	H 	0.62540 0.86530 0.88350 0.06200
C 	C 	0.07920 0.06330 0.82954 0.53000
C 	C 	0.63690 0.20720 0.93381 0.07600
H 	H 	0.63570 0.25380 0.92890 0.02700
C 	C 	0.24820 0.79370 0.94014 0.08700
H 	H 	0.25040 0.75070 0.93330 0.02800
C 	C 	0.28030 0.04780 0.93643 -0.09900
H 	H 	0.30490 0.04490 0.94790 0.06400
C 	C 	0.20320 0.99870 0.91312 -0.08000
H 	H 	0.17330 0.96140 0.90910 0.06000
C 	C 	0.59420 0.89710 0.90906 0.01900
C 	C 	0.46290 0.77300 0.93035 0.10400
H 	H 	0.41730 0.77490 0.93590 0.01500
C 	C 	0.62600 0.02020 0.91548 0.01400
C 	C 	0.78170 0.97710 0.83595 -0.12900
C 	C 	0.24140 0.91740 0.95986 -0.15400
H 	H 	0.23760 0.96010 0.96670 0.08300
C 	C 	0.56140 0.70680 0.92023 0.11400
H 	H 	0.58510 0.66300 0.91870 0.00800
C 	C 	0.25140 0.79240 0.95953 -0.19000
C 	C 	0.63160 0.08000 0.92954 0.07000
C 	C 	0.25060 0.11560 0.90908 -0.09300
H 	H 	0.25550 0.15780 0.90200 0.06300
C 	C 	0.66160 0.02390 0.89835 -0.10700
H 	H 	0.68480 0.06630 0.89470 0.06300
C 	C 	0.64470 0.12830 0.96020 0.09100
H 	H 	0.64760 0.12030 0.97320 0.02200
C 	C 	0.24120 0.99060 0.93031 0.02400
C 	C 	0.49220 0.83580 0.92396 -0.14600
H 	H 	0.46830 0.87960 0.92550 0.08100
C 	C 	0.24150 0.85820 0.93059 -0.13800
H 	H 	0.23700 0.85870 0.91740 0.07900
C 	C 	0.76480 0.00710 0.86801 -0.13000
H 	H 	0.78060 0.03010 0.87900 0.07100
C 	C 	0.80590 0.01130 0.85206 0.04200
H 	H 	0.84930 0.03660 0.85200 0.03300
C 	C 	0.70150 0.97020 0.86843 0.06700
C 	C 	0.63790 0.07040 0.94783 -0.14000
H 	H 	0.63780 0.02360 0.95270 0.07500
C 	C 	0.62870 0.14900 0.92208 -0.12800
H 	H 	0.62130 0.15570 0.90910 0.07400
C 	C 	0.10780 0.02870 0.88166 -0.10900
H 	H 	0.08490 0.00480 0.89160 0.06900
C 	C 	0.17230 0.06290 0.88461 0.05100
C 	C 	0.20540 0.09750 0.86989 -0.11400
H 	H 	0.24990 0.11940 0.87190 0.06900
C 	C 	0.71620 0.94120 0.83620 0.06100
H 	H 	0.69930 0.91880 0.82520 0.03800
C 	C 	0.46660 0.64480 0.93729 0.56400
C 	C 	0.24640 0.85690 0.96893 0.10500
H 	H 	0.24670 0.85720 0.98210 0.01300
O 	O 	0.40489 0.64854 0.94402 -0.67900
O 	O 	0.50274 0.58800 0.93760 -0.66200
C 	C 	0.59460 0.76790 0.91332 -0.15200
H 	H 	0.63990 0.76520 0.90770 0.08200
O 	O 	0.11878 0.08917 0.81707 -0.71000
C 	C 	0.67700 0.93850 0.85211 -0.11600
H 	H 	0.63270 0.91480 0.85210 0.07300
C 	C 	0.59200 0.95610 0.92070 -0.07400
H 	H 	0.56750 0.95340 0.93220 0.05600
C 	C 	0.40010 0.15390 0.94006 -0.12800
H 	H 	0.41720 0.10680 0.94120 0.07400
C 	C 	0.30430 0.23850 0.93182 -0.13600
H 	H 	0.25710 0.24740 0.92800 0.08000
C 	C 	0.33120 0.17040 0.93279 0.06000
O 	O 	0.65747 0.25178 0.98277 -0.66400
O 	O 	0.04761 0.02277 0.79091 -1.16600
H 	H 	0.06030 0.98730 0.78220 0.29600
C 	C 	0.44100 0.21470 0.94541 0.08800
H 	H 	0.48680 0.20710 0.95040 0.02000
C 	C 	0.35060 0.29430 0.93683 0.09600
H 	H 	0.33450 0.34160 0.93540 0.02400
C 	C 	0.07570 0.03020 0.86305 0.05600
H 	H 	0.03160 0.00780 0.86080 0.03700
C 	C 	0.28390 0.10770 0.92635 0.03400
C 	C 	0.41740 0.28340 0.94365 -0.20400
C 	C 	0.46240 0.34200 0.94796 0.52300
O 	O 	0.52621 0.33435 0.95245 -0.66900
O 	O 	0.43168 0.40469 0.94803 -0.65300
O 	O 	0.27003 0.72271 0.98627 -0.63800
C 	C 	0.26510 0.72550 0.96871 0.49800
O 	O 	0.28336 0.67180 0.95843 -0.64700
C 	C 	0.65680 0.25870 0.96479 0.52400
O 	O 	0.66320 0.31699 0.95689 -0.70700
O 	O 	0.89593 0.83932 0.76879 -0.91900
O 	O 	0.80139 0.92160 0.76467 -0.80700
O 	O 	0.87625 0.76325 0.73941 -0.54600
C 	C 	0.87840 0.97730 0.74312 0.12400
H 	H 	0.88060 0.01480 0.73350 -0.04400
H 	H 	0.92140 0.98100 0.75090 -0.05500
C 	C 	0.81540 0.98790 0.75480 0.06100
H 	H 	0.82390 0.02660 0.76380 -0.01000
H 	H 	0.77440 0.00090 0.74700 0.01400
C 	C 	0.92000 0.72770 0.75354 -0.11100
H 	H 	0.96130 0.70510 0.74750 0.06200
H 	H 	0.89200 0.69050 0.75980 0.06900
C 	C 	0.94480 0.78130 0.76757 0.20900
H 	H 	0.94920 0.75850 0.77990 -0.03200
H 	H 	0.99190 0.79920 0.76390 -0.04700
Al	Al	0.10233 0.10192 0.79131 2.39000
Al	Al	0.14706 0.10317 0.28690 2.39900
Al	Al	0.17141 0.15832 0.24945 2.39300
Al	Al	0.02994 0.99568 0.30566 2.39900
O 	O 	0.07874 0.03294 0.28577 -1.09400
H 	H 	0.06790 0.01450 0.27380 0.29900
O 	O 	0.12303 0.09133 0.23410 -0.93200
O 	O 	0.19850 0.05007 0.30399 -0.64200
C 	C 	0.35290 0.80430 0.45337 -0.18300
O 	O 	0.98138 0.96203 0.32733 -0.65100
C 	C 	0.88960 0.93560 0.34915 -0.15300
C 	C 	0.75850 0.08000 0.44031 0.07400
O 	O 	0.10678 0.00935 0.32197 -0.61900
C 	C 	0.79140 0.94230 0.40245 0.02200
C 	C 	0.50310 0.29380 0.42913 -0.22700
C 	C 	0.17390 0.02630 0.31947 0.47100
C 	C 	0.44040 0.16740 0.41495 0.07200
C 	C 	0.33750 0.03380 0.38709 0.04300
C 	C 	0.82580 0.89940 0.35214 0.05700
H 	H 	0.80410 0.87340 0.34240 0.02900
C 	C 	0.37320 0.09640 0.39207 -0.09200
H 	H 	0.37460 0.13470 0.38350 0.06200
C 	C 	0.92080 0.93670 0.32954 0.53000
C 	C 	0.36310 0.79280 0.43381 0.07600
H 	H 	0.36430 0.74620 0.42890 0.02700
C 	C 	0.75180 0.20630 0.44014 0.08700
H 	H 	0.74960 0.24930 0.43330 0.02800
C 	C 	0.71970 0.95220 0.43643 -0.09900
H 	H 	0.69510 0.95510 0.44790 0.06400
C 	C 	0.79680 0.00130 0.41312 -0.08000
H 	H 	0.82670 0.03860 0.40910 0.06000
C 	C 	0.40580 0.10290 0.40906 0.01900
C 	C 	0.53710 0.22700 0.43035 0.10400
H 	H 	0.58270 0.22510 0.43590 0.01500
C 	C 	0.37400 0.97980 0.41548 0.01400
C 	C 	0.21830 0.02290 0.33595 -0.12900
C 	C 	0.75860 0.08260 0.45986 -0.15400
H 	H 	0.76240 0.03990 0.46670 0.08300
C 	C 	0.43860 0.29320 0.42023 0.11400
H 	H 	0.41490 0.33700 0.41870 0.00800
C 	C 	0.74860 0.20760 0.45953 -0.19000
C 	C 	0.36840 0.92000 0.42954 0.07000
C 	C 	0.74940 0.88440 0.40908 -0.09300
H 	H 	0.74450 0.84220 0.40200 0.06300
C 	C 	0.33840 0.97610 0.39835 -0.10700
H 	H 	0.31520 0.93370 0.39470 0.06300
C 	C 	0.35530 0.87170 0.46020 0.09100
H 	H 	0.35240 0.87970 0.47320 0.02200
C 	C 	0.75880 0.00940 0.43031 0.02400
C 	C 	0.50780 0.16420 0.42396 -0.14600
H 	H 	0.53170 0.12040 0.42550 0.08100
C 	C 	0.75850 0.14180 0.43059 -0.13800
H 	H 	0.76300 0.14130 0.41740 0.07900
C 	C 	0.23520 0.99290 0.36801 -0.13000
H 	H 	0.21940 0.96990 0.37900 0.07100
C 	C 	0.19410 0.98870 0.35206 0.04200
H 	H 	0.15070 0.96340 0.35200 0.03300
C 	C 	0.29850 0.02980 0.36843 0.06700
C 	C 	0.36210 0.92960 0.44783 -0.14000
H 	H 	0.36220 0.97640 0.45270 0.07500
C 	C 	0.37130 0.85100 0.42208 -0.12800
H 	H 	0.37870 0.84430 0.40910 0.07400
C 	C 	0.89220 0.97130 0.38166 -0.10900
H 	H 	0.91510 0.99520 0.39160 0.06900
C 	C 	0.82770 0.93710 0.38461 0.05100
C 	C 	0.79460 0.90250 0.36989 -0.11400
H 	H 	0.75010 0.88060 0.37190 0.06900
C 	C 	0.28380 0.05880 0.33620 0.06100
H 	H 	0.30070 0.08120 0.32520 0.03800
C 	C 	0.53340 0.35520 0.43729 0.56400
C 	C 	0.75360 0.14310 0.46893 0.10500
H 	H 	0.75330 0.14280 0.48210 0.01300
O 	O 	0.59511 0.35146 0.44402 -0.67900
O 	O 	0.49726 0.41200 0.43760 -0.66200
C 	C 	0.40540 0.23210 0.41332 -0.15200
H 	H 	0.36010 0.23480 0.40770 0.08200
O 	O 	0.88122 0.91083 0.31707 -0.71000
C 	C 	0.32300 0.06150 0.35211 -0.11600
H 	H 	0.36730 0.08520 0.35210 0.07300
C 	C 	0.40800 0.04390 0.42070 -0.07400
H 	H 	0.43250 0.04660 0.43220 0.05600
C 	C 	0.59990 0.84610 0.44006 -0.12800
H 	H 	0.58280 0.89320 0.44120 0.07400
C 	C 	0.69570 0.76150 0.43182 -0.13600
H 	H 	0.74290 0.75260 0.42800 0.08000
C 	C 	0.66880 0.82960 0.43279 0.06000
O 	O 	0.34253 0.74822 0.48277 -0.66400
O 	O 	0.95239 0.97723 0.29091 -1.16600
H 	H 	0.93970 0.01270 0.28220 0.29600
C 	C 	0.55900 0.78530 0.44541 0.08800
H 	H 	0.51320 0.79290 0.45040 0.02000
C 	C 	0.64940 0.70570 0.43683 0.09600
H 	H 	0.66550 0.65840 0.43540 0.02400
C 	C 	0.92430 0.96980 0.36305 0.05600
H 	H 	0.96840 0.99220 0.36080 0.03700
C 	C 	0.71610 0.89230 0.42635 0.03400
C 	C 	0.58260 0.71660 0.44365 -0.20400
C 	C 	0.53760 0.65800 0.44796 0.52300
O 	O 	0.47379 0.66565 0.45245 -0.66900
O 	O 	0.56832 0.59531 0.44803 -0.65300
O 	O 	0.72997 0.27729 0.48627 -0.63800
C 	C 	0.73490 0.27450 0.46871 0.49800
O 	O 	0.71664 0.32820 0.45843 -0.64700
C 	C 	0.34320 0.74130 0.46479 0.52400
O 	O 	0.33680 0.68301 0.45689 -0.70700
O 	O 	0.10407 0.16068 0.26879 -0.91900
O 	O 	0.19861 0.07840 0.26467 -0.80700
O 	O 	0.12375 0.23675 0.23941 -0.54600
C 	C 	0.12160 0.02270 0.24312 0.12400
H 	H 	0.11940 0.98520 0.23350 -0.04400
H 	H 	0.07860 0.01900 0.25090 -0.05500
C 	C 	0.18460 0.01210 0.25480 0.06100
H 	H 	0.17610 0.97340 0.26380 -0.01000
H 	H 	0.22560 0.99910 0.24700 0.01400
C 	C 	0.08000 0.27230 0.25354 -0.11100
H 	H 	0.03870 0.29490 0.24750 0.06200
H 	H 	0.10800 0.30950 0.25980 0.06900
C 	C 	0.05520 0.21870 0.26757 0.20900
H 	H 	0.05080 0.24150 0.27990 -0.03200
H 	H 	0.00810 0.20080 0.26390 -0.04700
Al	Al	0.89767 0.89808 0.29131 2.39000
Al	Al	0.10317 0.14706 0.71310 2.39900
Al	Al	0.15832 0.17141 0.75055 2.39300
Al	Al	0.99568 0.02994 0.69434 2.39900
O 	O 	0.03294 0.07874 0.71423 -1.09400
H 	H 	0.01450 0.06790 0.72620 0.29900
O 	O 	0.09133 0.12303 0.76590 -0.93200
O 	O 	0.05007 0.19850 0.69601 -0.64200
C 	C 	0.80430 0.35290 0.54663 -0.18300
O 	O 	0.96203 0.98138 0.67267 -0.65100
C 	C 	0.93560 0.88960 0.65085 -0.15300
C 	C 	0.08000 0.75850 0.55969 0.07400
O 	O 	0.00935 0.10678 0.67803 -0.61900
C 	C 	0.94230 0.79140 0.59755 0.02200
C 	C 	0.29380 0.50310 0.57087 -0.22700
C 	C 	0.02630 0.17390 0.68053 0.47100
C 	C 	0.16740 0.44040 0.58505 0.07200
C 	C 	0.03380 0.33750 0.61291 0.04300
C 	C 	0.89940 0.82580 0.64786 0.05700
H 	H 	0.87340 0.80410 0.65760 0.02900
C 	C 	0.09640 0.37320 0.60793 -0.09200
H 	H 	0.13470 0.37460 0.61650 0.06200
C 	C 	0.93670 0.92080 0.67046 0.53000
C 	C 	0.79280 0.36310 0.56619 0.07600
H 	H 	0.74620 0.36430 0.57110 0.02700
C 	C 	0.20630 0.75180 0.55986 0.08700
H 	H 	0.24930 0.74960 0.56670 0.02800
C 	C 	0.95220 0.71970 0.56357 -0.09900
H 	H 	0.95510 0.69510 0.55210 0.06400
C 	C 	0.00130 0.79680 0.58688 -0.08000
H 	H 	0.03860 0.82670 0.59090 0.06000
C 	C 	0.10290 0.40580 0.59094 0.01900
C 	C 	0.22700 0.53710 0.56965 0.10400
H 	H 	0.22510 0.58270 0.56410 0.01500
C 	C 	0.97980 0.37400 0.58452 0.01400
C 	C 	0.02290 0.21830 0.66405 -0.12900
C 	C 	0.08260 0.75860 0.54014 -0.15400
H 	H 	0.03990 0.76240 0.53330 0.08300
C 	C 	0.29320 0.43860 0.57977 0.11400
H 	H 	0.33700 0.41490 0.58130 0.00800
C 	C 	0.20760 0.74860 0.54047 -0.19000
C 	C 	0.92000 0.36840 0.57046 0.07000
C 	C 	0.88440 0.74940 0.59092 -0.09300
H 	H 	0.84220 0.74450 0.59800 0.06300
C 	C 	0.97610 0.33840 0.60165 -0.10700
H 	H 	0.93370 0.31520 0.60530 0.06300
C 	C 	0.87170 0.35530 0.53980 0.09100
H 	H 	0.87970 0.35240 0.52680 0.02200
C 	C 	0.00940 0.75880 0.56969 0.02400
C 	C 	0.16420 0.50780 0.57604 -0.14600
H 	H 	0.12040 0.53170 0.57450 0.08100
C 	C 	0.14180 0.75850 0.56941 -0.13800
H 	H 	0.14130 0.76300 0.58260 0.07900
C 	C 	0.99290 0.23520 0.63199 -0.13000
H 	H 	0.96990 0.21940 0.62100 0.07100
C 	C 	0.98870 0.19410 0.64794 0.04200
H 	H 	0.96340 0.15070 0.64800 0.03300
C 	C 	0.02980 0.29850 0.63157 0.06700
C 	C 	0.92960 0.36210 0.55217 -0.14000
H 	H 	0.97640 0.36220 0.54730 0.07500
C 	C 	0.85100 0.37130 0.57792 -0.12800
H 	H 	0.84430 0.37870 0.59090 0.07400
C 	C 	0.97130 0.89220 0.61834 -0.10900
H 	H 	0.99520 0.91510 0.60840 0.06900
C 	C 	0.93710 0.82770 0.61539 0.05100
C 	C 	0.90250 0.79460 0.63011 -0.11400
H 	H 	0.88060 0.75010 0.62810 0.06900
C 	C 	0.05880 0.28380 0.66380 0.06100
H 	H 	0.08120 0.30070 0.67480 0.03800
C 	C 	0.35520 0.53340 0.56271 0.56400
C 	C 	0.14310 0.75360 0.53107 0.10500
H 	H 	0.14280 0.75330 0.51790 0.01300
O 	O 	0.35146 0.59511 0.55598 -0.67900
O 	O 	0.41200 0.49726 0.56240 -0.66200
C 	C 	0.23210 0.40540 0.58668 -0.15200
H 	H 	0.23480 0.36010 0.59230 0.08200
O 	O 	0.91083 0.88122 0.68293 -0.71000
C 	C 	0.06150 0.32300 0.64789 -0.11600
H 	H 	0.08520 0.36730 0.64790 0.07300
C 	C 	0.04390 0.40800 0.57930 -0.07400
H 	H 	0.04660 0.43250 0.56780 0.05600
C 	C 	0.84610 0.59990 0.55994 -0.12800
H 	H 	0.89320 0.58280 0.55880 0.07400
C 	C 	0.76150 0.69570 0.56818 -0.13600
H 	H 	0.75260 0.74290 0.57200 0.08000
C 	C 	0.82960 0.66880 0.56721 0.06000
O 	O 	0.74822 0.34253 0.51723 -0.66400
O 	O 	0.97723 0.95239 0.70909 -1.16600
H 	H 	0.01270 0.93970 0.71780 0.29600
C 	C 	0.78530 0.55900 0.55459 0.08800
H 	H 	0.79290 0.51320 0.54960 0.02000
C 	C 	0.70570 0.64940 0.56317 0.09600
H 	H 	0.65840 0.66550 0.56460 0.02400
C 	C 	0.96980 0.92430 0.63695 0.05600
H 	H 	0.99220 0.96840 0.63920 0.03700
C 	C 	0.89230 0.71610 0.57365 0.03400
C 	C 	0.71660 0.58260 0.55635 -0.20400
C 	C 	0.65800 0.53760 0.55204 0.52300
O 	O 	0.66565 0.47379 0.54755 -0.66900
O 	O 	0.59531 0.56832 0.55197 -0.65300
O 	O 	0.27729 0.72997 0.51373 -0.63800
C 	C 	0.27450 0.73490 0.53129 0.49800
O 	O 	0.32820 0.71664 0.54157 -0.64700
C 	C 	0.74130 0.34320 0.53521 0.52400
O 	O 	0.68301 0.33680 0.54311 -0.70700
O 	O 	0.16068 0.10407 0.73121 -0.91900
O 	O 	0.07840 0.19861 0.73533 -0.80700
O 	O 	0.23675 0.12375 0.76059 -0.54600
C 	C 	0.02270 0.12160 0.75688 0.12400
H 	H 	0.98520 0.11940 0.76650 -0.04400
H 	H 	0.01900 0.07860 0.74910 -0.05500
C 	C 	0.01210 0.18460 0.74520 0.06100
H 	H 	0.97340 0.17610 0.73620 -0.01000
H 	H 	0.99910 0.22560 0.75300 0.01400
C 	C 	0.27230 0.08000 0.74646 -0.11100
H 	H 	0.29490 0.03870 0.75250 0.06200
H 	H 	0.30950 0.10800 0.74020 0.06900
C 	C 	0.21870 0.05520 0.73243 0.20900
H 	H 	0.24150 0.05080 0.72010 -0.03200
H 	H 	0.20080 0.00810 0.73610 -0.04700
Al	Al	0.89808 0.89767 0.70869 2.39000
Al	Al	0.89683 0.85294 0.21310 2.39900
Al	Al	0.84168 0.82859 0.25055 2.39300
Al	Al	0.00432 0.97006 0.19434 2.39900
O 	O 	0.96706 0.92126 0.21423 -1.09400
H 	H 	0.98550 0.93210 0.22620 0.29900
O 	O 	0.90867 0.87697 0.26590 -0.93200
O 	O 	0.94993 0.80150 0.19601 -0.64200
C 	C 	0.19570 0.64710 0.04663 -0.18300
O 	O 	0.03797 0.01862 0.17267 -0.65100
C 	C 	0.06440 0.11040 0.15085 -0.15300
C 	C 	0.92000 0.24150 0.05969 0.07400
O 	O 	0.99065 0.89322 0.17803 -0.61900
C 	C 	0.05770 0.20860 0.09755 0.02200
C 	C 	0.70620 0.49690 0.07087 -0.22700
C 	C 	0.97370 0.82610 0.18053 0.47100
C 	C 	0.83260 0.55960 0.08505 0.07200
C 	C 	0.96620 0.66250 0.11291 0.04300
C 	C 	0.10060 0.17420 0.14786 0.05700
H 	H 	0.12660 0.19590 0.15760 0.02900
C 	C 	0.90360 0.62680 0.10793 -0.09200
H 	H 	0.86530 0.62540 0.11650 0.06200
C 	C 	0.06330 0.07920 0.17046 0.53000
C 	C 	0.20720 0.63690 0.06619 0.07600
H 	H 	0.25380 0.63570 0.07110 0.02700
C 	C 	0.79370 0.24820 0.05986 0.08700
H 	H 	0.75070 0.25040 0.06670 0.02800
C 	C 	0.04780 0.28030 0.06357 -0.09900
H 	H 	0.04490 0.30490 0.05210 0.06400
C 	C 	0.99870 0.20320 0.08688 -0.08000
H 	H 	0.96140 0.17330 0.09090 0.06000
C 	C 	0.89710 0.59420 0.09094 0.01900
C 	C 	0.77300 0.46290 0.06965 0.10400
H 	H 	0.77490 0.41730 0.06410 0.01500
C 	C 	0.02020 0.62600 0.08452 0.01400
C 	C 	0.97710 0.78170 0.16405 -0.12900
C 	C 	0.91740 0.24140 0.04014 -0.15400
H 	H 	0.96010 0.23760 0.03330 0.08300
C 	C 	0.70680 0.56140 0.07977 0.11400
H 	H 	0.66300 0.58510 0.08130 0.00800
C 	C 	0.79240 0.25140 0.04047 -0.19000
C 	C 	0.08000 0.63160 0.07046 0.07000
C 	C 	0.11560 0.25060 0.09092 -0.09300
H 	H 	0.15780 0.25550 0.09800 0.06300
C 	C 	0.02390 0.66160 0.10165 -0.10700
H 	H 	0.06630 0.68480 0.10530 0.06300
C 	C 	0.12830 0.64470 0.03980 0.09100
H 	H 	0.12030 0.64760 0.02680 0.02200
C 	C 	0.99060 0.24120 0.06969 0.02400
C 	C 	0.83580 0.49220 0.07604 -0.14600
H 	H 	0.87960 0.46830 0.07450 0.08100
C 	C 	0.85820 0.24150 0.06941 -0.13800
H 	H 	0.85870 0.23700 0.08260 0.07900
C 	C 	0.00710 0.76480 0.13199 -0.13000
H 	H 	0.03010 0.78060 0.12100 0.07100
C 	C 	0.01130 0.80590 0.14794 0.04200
H 	H 	0.03660 0.84930 0.14800 0.03300
C 	C 	0.97020 0.70150 0.13157 0.06700
C 	C 	0.07040 0.63790 0.05217 -0.14000
H 	H 	0.02360 0.63780 0.04730 0.07500
C 	C 	0.14900 0.62870 0.07792 -0.12800
H 	H 	0.15570 0.62130 0.09090 0.07400
C 	C 	0.02870 0.10780 0.11834 -0.10900
H 	H 	0.00480 0.08490 0.10840 0.06900
C 	C 	0.06290 0.17230 0.11539 0.05100
C 	C 	0.09750 0.20540 0.13011 -0.11400
H 	H 	0.11940 0.24990 0.12810 0.06900
C 	C 	0.94120 0.71620 0.16380 0.06100
H 	H 	0.91880 0.69930 0.17480 0.03800
C 	C 	0.64480 0.46660 0.06271 0.56400
C 	C 	0.85690 0.24640 0.03107 0.10500
H 	H 	0.85720 0.24670 0.01790 0.01300
O 	O 	0.64854 0.40489 0.05598 -0.67900
O 	O 	0.58800 0.50274 0.06240 -0.66200
C 	C 	0.76790 0.59460 0.08668 -0.15200
H 	H 	0.76520 0.63990 0.09230 0.08200
O 	O 	0.08917 0.11878 0.18293 -0.71000
C 	C 	0.93850 0.67700 0.14789 -0.11600
H 	H 	0.91480 0.63270 0.14790 0.07300
C 	C 	0.95610 0.59200 0.07930 -0.07400
H 	H 	0.95340 0.56750 0.06780 0.05600
C 	C 	0.15390 0.40010 0.05994 -0.12800
H 	H 	0.10680 0.41720 0.05880 0.07400
C 	C 	0.23850 0.30430 0.06818 -0.13600
H 	H 	0.24740 0.25710 0.07200 0.08000
C 	C 	0.17040 0.33120 0.06721 0.06000
O 	O 	0.25178 0.65747 0.01723 -0.66400
O 	O 	0.02277 0.04761 0.20909 -1.16600
H 	H 	0.98730 0.06030 0.21780 0.29600
C 	C 	0.21470 0.44100 0.05459 0.08800
H 	H 	0.20710 0.48680 0.04960 0.02000
C 	C 	0.29430 0.35060 0.06317 0.09600
H 	H 	0.34160 0.33450 0.06460 0.02400
C 	C 	0.03020 0.07570 0.13695 0.05600
H 	H 	0.00780 0.03160 0.13920 0.03700
C 	C 	0.10770 0.28390 0.07365 0.03400
C 	C 	0.28340 0.41740 0.05635 -0.20400
C 	C 	0.34200 0.46240 0.05204 0.52300
O 	O 	0.33435 0.52621 0.04755 -0.66900
O 	O 	0.40469 0.43168 0.05197 -0.65300
O 	O 	0.72271 0.27003 0.01373 -0.63800
C 	C 	0.72550 0.26510 0.03129 0.49800
O 	O 	0.67180 0.28336 0.04157 -0.64700
C 	C 	0.25870 0.65680 0.03521 0.52400
O 	O 	0.31699 0.66320 0.04311 -0.70700
O 	O 	0.83932 0.89593 0.23121 -0.91900
O 	O 	0.92160 0.80139 0.23533 -0.80700
O 	O 	0.76325 0.87625 0.26059 -0.54600
C 	C 	0.97730 0.87840 0.25688 0.12400
H 	H 	0.01480 0.88060 0.26650 -0.04400
H 	H 	0.98100 0.92140 0.24910 -0.05500
C 	C 	0.98790 0.81540 0.24520 0.06100
H 	H 	0.02660 0.82390 0.23620 -0.01000
H 	H 	0.00090 0.77440 0.25300 0.01400
C 	C 	0.72770 0.92000 0.24646 -0.11100
H 	H 	0.70510 0.96130 0.25250 0.06200
H 	H 	0.69050 0.89200 0.24020 0.06900
C 	C 	0.78130 0.94480 0.23243 0.20900
H 	H 	0.75850 0.94920 0.22010 -0.03200
H 	H 	0.79920 0.99190 0.23610 -0.04700
Al	Al	0.10192 0.10233 0.20869 2.39000
Al	Al	0.64706 0.39683 0.46310 2.39900
Al	Al	0.67141 0.34168 0.50055 2.39300
Al	Al	0.52994 0.50432 0.44434 2.40200
O 	O 	0.57874 0.46706 0.46423 -1.09600
H 	H 	0.56790 0.48550 0.47620 0.29600
O 	O 	0.62303 0.40867 0.51590 -0.93200
O 	O 	0.69850 0.44993 0.44601 -0.64800
C 	C 	0.85290 0.69570 0.29663 -0.18200
O 	O 	0.48138 0.53797 0.42267 -0.65600
C 	C 	0.38960 0.56440 0.40085 -0.15300
C 	C 	0.25850 0.42000 0.30969 0.07300
O 	O 	0.60678 0.49065 0.42803 -0.62600
C 	C 	0.29140 0.55770 0.34755 0.03000
C 	C 	0.00310 0.20620 0.32087 -0.25900
C 	C 	0.67390 0.47370 0.43053 0.47600
C 	C 	0.94040 0.33260 0.33505 0.10900
C 	C 	0.83750 0.46620 0.36291 0.02500
C 	C 	0.32580 0.60060 0.39786 0.05600
H 	H 	0.30410 0.62660 0.40760 0.02900
C 	C 	0.87320 0.40360 0.35793 -0.07900
H 	H 	0.87460 0.36530 0.36650 0.05900
C 	C 	0.42080 0.56330 0.42046 0.53000
C 	C 	0.86310 0.70720 0.31619 0.07900
H 	H 	0.86430 0.75380 0.32110 0.02800
C 	C 	0.25180 0.29370 0.30986 0.08600
H 	H 	0.24960 0.25070 0.31670 0.02700
C 	C 	0.21970 0.54780 0.31357 -0.09600
H 	H 	0.19510 0.54490 0.30210 0.06200
C 	C 	0.29680 0.49870 0.33688 -0.09000
H 	H 	0.32670 0.46140 0.34090 0.06000
C 	C 	0.90580 0.39710 0.34094 0.00600
C 	C 	0.03710 0.27300 0.31965 0.12900
H 	H 	0.08270 0.27490 0.31410 0.00600
C 	C 	0.87400 0.52020 0.33452 0.01700
C 	C 	0.71830 0.47710 0.41405 -0.15400
C 	C 	0.25860 0.41740 0.29014 -0.15400
H 	H 	0.26240 0.46010 0.28330 0.08300
C 	C 	0.93860 0.20680 0.32977 0.15500
H 	H 	0.91490 0.16300 0.33130 -0.00100
C 	C 	0.24860 0.29240 0.29047 -0.18900
C 	C 	0.86840 0.58000 0.32046 0.07400
C 	C 	0.24940 0.61560 0.34092 -0.09600
H 	H 	0.24450 0.65780 0.34800 0.06200
C 	C 	0.83840 0.52390 0.35165 -0.08500
H 	H 	0.81520 0.56630 0.35530 0.06000
C 	C 	0.85530 0.62830 0.28980 0.09400
H 	H 	0.85240 0.62030 0.27680 0.02400
C 	C 	0.25880 0.49060 0.31969 0.02100
C 	C 	0.00780 0.33580 0.32604 -0.18900
H 	H 	0.03170 0.37960 0.32450 0.08900
C 	C 	0.25850 0.35820 0.31941 -0.13800
H 	H 	0.26300 0.35870 0.33260 0.07700
C 	C 	0.73520 0.50710 0.38199 -0.12000
H 	H 	0.71940 0.53010 0.37100 0.07200
C 	C 	0.69410 0.51130 0.39794 0.06900
H 	H 	0.65070 0.53660 0.39800 0.03200
C 	C 	0.79850 0.47020 0.38157 0.05900
C 	C 	0.86210 0.57040 0.30217 -0.13900
H 	H 	0.86220 0.52360 0.29730 0.08000
C 	C 	0.87130 0.64900 0.32792 -0.12700
H 	H 	0.87870 0.65570 0.34090 0.07700
C 	C 	0.39220 0.52870 0.36834 -0.10700
H 	H 	0.41510 0.50480 0.35840 0.06800
C 	C 	0.32770 0.56290 0.36539 0.04700
C 	C 	0.29460 0.59750 0.38011 -0.11200
H 	H 	0.25010 0.61940 0.37810 0.06700
C 	C 	0.78380 0.44120 0.41380 0.06900
H 	H 	0.80070 0.41880 0.42480 0.03400
C 	C 	0.03340 0.14480 0.31271 0.55800
C 	C 	0.25360 0.35690 0.28107 0.10500
H 	H 	0.25330 0.35720 0.26790 0.01400
O 	O 	0.09511 0.14854 0.30598 -0.67900
O 	O 	0.99726 0.08800 0.31240 -0.64400
C 	C 	0.90540 0.26790 0.33668 -0.18100
H 	H 	0.86010 0.26520 0.34230 0.09300
O 	O 	0.38122 0.58917 0.43293 -0.71000
C 	C 	0.82300 0.43850 0.39789 -0.12200
H 	H 	0.86730 0.41480 0.39790 0.07500
C 	C 	0.90800 0.45610 0.32930 -0.07500
H 	H 	0.93250 0.45340 0.31780 0.05900
C 	C 	0.09990 0.65390 0.30994 -0.12700
H 	H 	0.08280 0.60680 0.30880 0.07000
C 	C 	0.19570 0.73850 0.31818 -0.13400
H 	H 	0.24290 0.74740 0.32200 0.07700
C 	C 	0.16880 0.67040 0.31721 0.05700
O 	O 	0.84253 0.75178 0.26723 -0.66100
O 	O 	0.45239 0.52277 0.45909 -1.15600
H 	H 	0.43970 0.48730 0.46780 0.28000
C 	C 	0.05900 0.71470 0.30459 0.08100
H 	H 	0.01320 0.70710 0.29960 0.01500
C 	C 	0.14940 0.79430 0.31317 0.08900
H 	H 	0.16550 0.84160 0.31460 0.02200
C 	C 	0.42430 0.53020 0.38695 0.05500
H 	H 	0.46840 0.50780 0.38920 0.03500
C 	C 	0.21610 0.60770 0.32365 0.03400
C 	C 	0.08260 0.78340 0.30635 -0.19700
C 	C 	0.03760 0.84200 0.30204 0.49400
O 	O 	0.97379 0.83435 0.29755 -0.64400
O 	O 	0.06832 0.90469 0.30197 -0.66000
O 	O 	0.22997 0.22271 0.26373 -0.63700
C 	C 	0.23490 0.22550 0.28129 0.49800
O 	O 	0.21664 0.17180 0.29157 -0.64600
C 	C 	0.84320 0.75870 0.28521 0.52500
O 	O 	0.83680 0.81699 0.29311 -0.70700
O 	O 	0.60407 0.33932 0.48121 -0.91700
O 	O 	0.69861 0.42160 0.48533 -0.79700
O 	O 	0.62375 0.26325 0.51059 -0.54500
C 	C 	0.62160 0.47730 0.50688 0.12100
H 	H 	0.61940 0.51480 0.51650 -0.02600
H 	H 	0.57860 0.48100 0.49910 -0.05700
C 	C 	0.68460 0.48790 0.49520 -0.02400
H 	H 	0.67610 0.52660 0.48620 0.03000
H 	H 	0.72560 0.50090 0.50300 0.05400
C 	C 	0.58000 0.22770 0.49646 -0.11100
H 	H 	0.53870 0.20510 0.50250 0.06500
H 	H 	0.60800 0.19050 0.49020 0.07000
C 	C 	0.55520 0.28130 0.48243 0.20800
H 	H 	0.55080 0.25850 0.47010 -0.03000
H 	H 	0.50810 0.29920 0.48610 -0.04300
Al	Al	0.39767 0.60192 0.45869 2.39000
Al	Al	0.35294 0.60317 0.96310 2.39900
Al	Al	0.32859 0.65832 0.00055 2.39300
Al	Al	0.47006 0.49568 0.94434 2.40200
O 	O 	0.42126 0.53294 0.96423 -1.09600
H 	H 	0.43210 0.51450 0.97620 0.29600
O 	O 	0.37697 0.59133 0.01590 -0.93200
O 	O 	0.30150 0.55007 0.94601 -0.64800
C 	C 	0.14710 0.30430 0.79663 -0.18200
O 	O 	0.51862 0.46203 0.92267 -0.65600
C 	C 	0.61040 0.43560 0.90085 -0.15300
C 	C 	0.74150 0.58000 0.80969 0.07300
O 	O 	0.39322 0.50935 0.92803 -0.62600
C 	C 	0.70860 0.44230 0.84755 0.03000
C 	C 	0.99690 0.79380 0.82087 -0.25900
C 	C 	0.32610 0.52630 0.93053 0.47600
C 	C 	0.05960 0.66740 0.83505 0.10900
C 	C 	0.16250 0.53380 0.86291 0.02500
C 	C 	0.67420 0.39940 0.89786 0.05600
H 	H 	0.69590 0.37340 0.90760 0.02900
C 	C 	0.12680 0.59640 0.85793 -0.07900
H 	H 	0.12540 0.63470 0.86650 0.05900
C 	C 	0.57920 0.43670 0.92046 0.53000
C 	C 	0.13690 0.29280 0.81619 0.07900
H 	H 	0.13570 0.24620 0.82110 0.02800
C 	C 	0.74820 0.70630 0.80986 0.08600
H 	H 	0.75040 0.74930 0.81670 0.02700
C 	C 	0.78030 0.45220 0.81357 -0.09600
H 	H 	0.80490 0.45510 0.80210 0.06200
C 	C 	0.70320 0.50130 0.83688 -0.09000
H 	H 	0.67330 0.53860 0.84090 0.06000
C 	C 	0.09420 0.60290 0.84094 0.00600
C 	C 	0.96290 0.72700 0.81965 0.12900
H 	H 	0.91730 0.72510 0.81410 0.00600
C 	C 	0.12600 0.47980 0.83452 0.01700
C 	C 	0.28170 0.52290 0.91405 -0.15400
C 	C 	0.74140 0.58260 0.79014 -0.15400
H 	H 	0.73760 0.53990 0.78330 0.08300
C 	C 	0.06140 0.79320 0.82977 0.15500
H 	H 	0.08510 0.83700 0.83130 -0.00100
C 	C 	0.75140 0.70760 0.79047 -0.18900
C 	C 	0.13160 0.42000 0.82046 0.07400
C 	C 	0.75060 0.38440 0.84092 -0.09600
H 	H 	0.75550 0.34220 0.84800 0.06200
C 	C 	0.16160 0.47610 0.85165 -0.08500
H 	H 	0.18480 0.43370 0.85530 0.06000
C 	C 	0.14470 0.37170 0.78980 0.09400
H 	H 	0.14760 0.37970 0.77680 0.02400
C 	C 	0.74120 0.50940 0.81969 0.02100
C 	C 	0.99220 0.66420 0.82604 -0.18900
H 	H 	0.96830 0.62040 0.82450 0.08900
C 	C 	0.74150 0.64180 0.81941 -0.13800
H 	H 	0.73700 0.64130 0.83260 0.07700
C 	C 	0.26480 0.49290 0.88199 -0.12000
H 	H 	0.28060 0.46990 0.87100 0.07200
C 	C 	0.30590 0.48870 0.89794 0.06900
H 	H 	0.34930 0.46340 0.89800 0.03200
C 	C 	0.20150 0.52980 0.88157 0.05900
C 	C 	0.13790 0.42960 0.80217 -0.13900
H 	H 	0.13780 0.47640 0.79730 0.08000
C 	C 	0.12870 0.35100 0.82792 -0.12700
H 	H 	0.12130 0.34430 0.84090 0.07700
C 	C 	0.60780 0.47130 0.86834 -0.10700
H 	H 	0.58490 0.49520 0.85840 0.06800
C 	C 	0.67230 0.43710 0.86539 0.04700
C 	C 	0.70540 0.40250 0.88011 -0.11200
H 	H 	0.74990 0.38060 0.87810 0.06700
C 	C 	0.21620 0.55880 0.91380 0.06900
H 	H 	0.19930 0.58120 0.92480 0.03400
C 	C 	0.96660 0.85520 0.81271 0.55800
C 	C 	0.74640 0.64310 0.78107 0.10500
H 	H 	0.74670 0.64280 0.76790 0.01400
O 	O 	0.90489 0.85146 0.80598 -0.67900
O 	O 	0.00274 0.91200 0.81240 -0.64400
C 	C 	0.09460 0.73210 0.83668 -0.18100
H 	H 	0.13990 0.73480 0.84230 0.09300
O 	O 	0.61878 0.41083 0.93293 -0.71000
C 	C 	0.17700 0.56150 0.89789 -0.12200
H 	H 	0.13270 0.58520 0.89790 0.07500
C 	C 	0.09200 0.54390 0.82930 -0.07500
H 	H 	0.06750 0.54660 0.81780 0.05900
C 	C 	0.90010 0.34610 0.80994 -0.12700
H 	H 	0.91720 0.39320 0.80880 0.07000
C 	C 	0.80430 0.26150 0.81818 -0.13400
H 	H 	0.75710 0.25260 0.82200 0.07700
C 	C 	0.83120 0.32960 0.81721 0.05700
O 	O 	0.15747 0.24822 0.76723 -0.66100
O 	O 	0.54761 0.47723 0.95909 -1.15600
H 	H 	0.56030 0.51270 0.96780 0.28000
C 	C 	0.94100 0.28530 0.80459 0.08100
H 	H 	0.98680 0.29290 0.79960 0.01500
C 	C 	0.85060 0.20570 0.81317 0.08900
H 	H 	0.83450 0.15840 0.81460 0.02200
C 	C 	0.57570 0.46980 0.88695 0.05500
H 	H 	0.53160 0.49220 0.88920 0.03500
C 	C 	0.78390 0.39230 0.82365 0.03400
C 	C 	0.91740 0.21660 0.80635 -0.19700
C 	C 	0.96240 0.15800 0.80204 0.49400
O 	O 	0.02621 0.16565 0.79755 -0.64400
O 	O 	0.93168 0.09531 0.80197 -0.66000
O 	O 	0.77003 0.77729 0.76373 -0.63700
C 	C 	0.76510 0.77450 0.78129 0.49800
O 	O 	0.78336 0.82820 0.79157 -0.64600
C 	C 	0.15680 0.24130 0.78521 0.52500
O 	O 	0.16320 0.18301 0.79311 -0.70700
O 	O 	0.39593 0.66068 0.98121 -0.91700
O 	O 	0.30139 0.57840 0.98533 -0.79700
O 	O 	0.37625 0.73675 0.01059 -0.54500
C 	C 	0.37840 0.52270 0.00688 0.12100
H 	H 	0.38060 0.48520 0.01650 -0.02600
H 	H 	0.42140 0.51900 0.99910 -0.05700
C 	C 	0.31540 0.51210 0.99520 -0.02400
H 	H 	0.32390 0.47340 0.98620 0.03000
H 	H 	0.27440 0.49910 0.00300 0.05400
C 	C 	0.42000 0.77230 0.99646 -0.11100
H 	H 	0.46130 0.79490 0.00250 0.06500
H 	H 	0.39200 0.80950 0.99020 0.07000
C 	C 	0.44480 0.71870 0.98243 0.20800
H 	H 	0.44920 0.74150 0.97010 -0.03000
H 	H 	0.49190 0.70080 0.98610 -0.04300
Al	Al	0.60233 0.39808 0.95869 2.39000
