data_crystal

_cell_length_a 12.97500
_cell_length_b 23.05000
_cell_length_c 13.15500
_cell_angle_alpha 90.00000
_cell_angle_beta  91.81900
_cell_angle_gamma 90.00000

_symmetry_space_group_name_	'P 1'
_symmetry_space_group_name_H-M	'P 1'

loop_
_symmetry_equiv_pos_as_xyz
  x,y,z

loop_
_atom_site_label
_atom_site_type_symbol
_atom_site_fract_x
_atom_site_fract_y
_atom_site_fract_z
_atom_site_charge
N 	N 	0.91010 0.26440 0.48110 -0.22800
C 	C 	0.96530 0.30410 0.53620 0.13100
H 	H 	0.93190 0.32400 0.58920 -0.03700
C 	C 	0.06510 0.31680 0.51990 -0.23500
H 	H 	0.09970 0.34520 0.56080 0.09400
C 	C 	0.11780 0.28850 0.44270 0.15300
C 	C 	0.06270 0.24550 0.38920 -0.22500
H 	H 	0.09580 0.22350 0.33860 0.08700
C 	C 	0.96080 0.23470 0.40920 0.12000
H 	H 	0.92500 0.20550 0.37130 -0.03700
C 	C 	0.22530 0.30400 0.41600 -0.17700
H 	H 	0.26400 0.31520 0.47900 0.07500
H 	H 	0.25900 0.26920 0.38820 0.07300
N 	N 	0.23290 0.35166 0.34160 -0.08300
C 	C 	0.17480 0.34020 0.24810 -0.04600
H 	H 	0.10040 0.33840 0.26220 0.02100
H 	H 	0.19560 0.30220 0.22030 0.01900
C 	C 	0.19340 0.38750 0.16990 -0.07600
H 	H 	0.26710 0.38790 0.15260 0.03700
H 	H 	0.15200 0.37950 0.10700 0.02300
N 	N 	0.16420 0.44502 0.21160 -0.13500
C 	C 	0.23010 0.45530 0.30530 -0.07600
H 	H 	0.21480 0.49400 0.33390 0.03000
H 	H 	0.30380 0.45430 0.28820 0.04900
C 	C 	0.20790 0.40850 0.38280 -0.05200
H 	H 	0.24960 0.41550 0.44590 0.03700
H 	H 	0.13420 0.40970 0.39980 0.02300
C 	C 	0.18130 0.49200 0.13540 -0.12000
H 	H 	0.24370 0.48320 0.09680 0.05100
H 	H 	0.19230 0.52940 0.17100 0.04500
C 	C 	0.08930 0.49662 0.06340 0.00200
C 	C 	0.00770 0.53338 0.08710 -0.10800
H 	H 	0.01280 0.55650 0.14680 0.02800
C 	C 	0.91990 0.53674 0.02530 -0.07500
H 	H 	0.86530 0.56190 0.04320 0.03300
N 	N 	0.41010 0.76440 0.48110 -0.21400
C 	C 	0.46530 0.80410 0.53620 0.08400
H 	H 	0.43190 0.82400 0.58920 -0.02600
C 	C 	0.56510 0.81680 0.51990 -0.18000
H 	H 	0.59970 0.84520 0.56080 0.07900
C 	C 	0.61780 0.78850 0.44270 0.12100
C 	C 	0.56270 0.74550 0.38920 -0.17300
H 	H 	0.59580 0.72350 0.33860 0.07400
C 	C 	0.46080 0.73470 0.40920 0.07700
H 	H 	0.42500 0.70550 0.37130 -0.02700
C 	C 	0.72530 0.80400 0.41600 -0.15900
H 	H 	0.76400 0.81520 0.47900 0.07200
H 	H 	0.75900 0.76920 0.38820 0.07000
N 	N 	0.73290 0.85166 0.34160 -0.08400
C 	C 	0.67480 0.84020 0.24810 -0.04700
H 	H 	0.60040 0.83840 0.26220 0.02400
H 	H 	0.69560 0.80220 0.22030 0.02100
C 	C 	0.69340 0.88750 0.16990 -0.07500
H 	H 	0.76710 0.88790 0.15260 0.03900
H 	H 	0.65200 0.87950 0.10700 0.02400
N 	N 	0.66420 0.94502 0.21160 -0.13600
C 	C 	0.73010 0.95530 0.30530 -0.07600
H 	H 	0.71480 0.99400 0.33390 0.03300
H 	H 	0.80380 0.95430 0.28820 0.05200
C 	C 	0.70790 0.90850 0.38280 -0.05100
H 	H 	0.74960 0.91550 0.44590 0.03900
H 	H 	0.63420 0.90970 0.39980 0.02600
C 	C 	0.68130 0.99200 0.13540 -0.09800
H 	H 	0.74370 0.98320 0.09680 0.04700
H 	H 	0.69230 0.02940 0.17100 0.04000
C 	C 	0.58930 0.99662 0.06340 -0.03700
C 	C 	0.50770 0.03338 0.08710 -0.04900
H 	H 	0.51280 0.05650 0.14680 0.01400
C 	C 	0.41990 0.03674 0.02530 -0.13400
H 	H 	0.36530 0.06190 0.04320 0.04900
N 	N 	0.08990 0.26440 0.01890 -0.20900
C 	C 	0.03470 0.30410 0.96380 0.04200
H 	H 	0.06810 0.32400 0.91080 -0.01300
C 	C 	0.93490 0.31680 0.98010 -0.08900
H 	H 	0.90030 0.34520 0.93920 0.05700
C 	C 	0.88220 0.28850 0.05730 0.05100
C 	C 	0.93730 0.24550 0.11080 -0.10800
H 	H 	0.90420 0.22350 0.16140 0.05400
C 	C 	0.03920 0.23470 0.09080 0.02200
H 	H 	0.07500 0.20550 0.12870 -0.01500
C 	C 	0.77470 0.30400 0.08400 -0.12100
H 	H 	0.73600 0.31520 0.02100 0.05200
H 	H 	0.74100 0.26920 0.11180 0.05500
N 	N 	0.76710 0.35166 0.15840 -0.09100
C 	C 	0.82520 0.34020 0.25190 -0.04500
H 	H 	0.89960 0.33840 0.23780 0.02800
H 	H 	0.80440 0.30220 0.27970 0.02100
C 	C 	0.80660 0.38750 0.33010 -0.07700
H 	H 	0.73290 0.38790 0.34740 0.04000
H 	H 	0.84800 0.37950 0.39300 0.03100
N 	N 	0.83580 0.44502 0.28840 -0.13200
C 	C 	0.76990 0.45530 0.19470 -0.07700
H 	H 	0.78520 0.49400 0.16610 0.03200
H 	H 	0.69620 0.45430 0.21180 0.04800
C 	C 	0.79210 0.40850 0.11720 -0.04700
H 	H 	0.75040 0.41550 0.05410 0.03100
H 	H 	0.86580 0.40970 0.10020 0.02300
C 	C 	0.81870 0.49200 0.36460 -0.10400
H 	H 	0.75630 0.48320 0.40320 0.05100
H 	H 	0.80770 0.52940 0.32900 0.04500
C 	C 	0.91070 0.49662 0.43660 -0.02200
C 	C 	0.99230 0.53338 0.41290 -0.02600
H 	H 	0.98720 0.55650 0.35320 0.01500
C 	C 	0.08010 0.53674 0.47470 -0.13500
H 	H 	0.13470 0.56190 0.45680 0.05300
N 	N 	0.58990 0.76440 0.01890 -0.22200
C 	C 	0.53470 0.80410 0.96380 0.09200
H 	H 	0.56810 0.82400 0.91080 -0.02500
C 	C 	0.43490 0.81680 0.98010 -0.14700
H 	H 	0.40030 0.84520 0.93920 0.07200
C 	C 	0.38220 0.78850 0.05730 0.08500
C 	C 	0.43730 0.74550 0.11080 -0.15900
H 	H 	0.40420 0.72350 0.16140 0.06700
C 	C 	0.53920 0.73470 0.09080 0.06500
H 	H 	0.57500 0.70550 0.12870 -0.02400
C 	C 	0.27470 0.80400 0.08400 -0.13900
H 	H 	0.23600 0.81520 0.02100 0.05600
H 	H 	0.24100 0.76920 0.11180 0.05800
N 	N 	0.26710 0.85166 0.15840 -0.09000
C 	C 	0.32520 0.84020 0.25190 -0.04400
H 	H 	0.39960 0.83840 0.23780 0.02300
H 	H 	0.30440 0.80220 0.27970 0.01900
C 	C 	0.30660 0.88750 0.33010 -0.07800
H 	H 	0.23290 0.88790 0.34740 0.03900
H 	H 	0.34800 0.87950 0.39300 0.02900
N 	N 	0.33580 0.94502 0.28840 -0.13300
C 	C 	0.26990 0.95530 0.19470 -0.07700
H 	H 	0.28520 0.99400 0.16610 0.03000
H 	H 	0.19620 0.95430 0.21180 0.04600
C 	C 	0.29210 0.90850 0.11720 -0.04700
H 	H 	0.25040 0.91550 0.05410 0.02900
H 	H 	0.36580 0.90970 0.10020 0.02000
C 	C 	0.31870 0.99200 0.36460 -0.12400
H 	H 	0.25630 0.98320 0.40320 0.05600
H 	H 	0.30770 0.02940 0.32900 0.04700
C 	C 	0.41070 0.99662 0.43660 0.02000
C 	C 	0.49230 0.03338 0.41290 -0.09600
H 	H 	0.48720 0.05650 0.35320 0.03100
C 	C 	0.58010 0.03674 0.47470 -0.06800
H 	H 	0.63470 0.06190 0.45680 0.03400
N 	N 	0.08990 0.73560 0.51890 -0.20100
C 	C 	0.03470 0.69590 0.46380 0.03600
H 	H 	0.06810 0.67600 0.41080 -0.01500
C 	C 	0.93490 0.68320 0.48010 -0.12400
H 	H 	0.90030 0.65480 0.43920 0.06300
C 	C 	0.88220 0.71150 0.55730 0.08600
C 	C 	0.93730 0.75450 0.61080 -0.11900
H 	H 	0.90420 0.77650 0.66140 0.06100
C 	C 	0.03920 0.76530 0.59080 0.03100
H 	H 	0.07500 0.79450 0.62870 -0.01500
C 	C 	0.77470 0.69600 0.58400 -0.14000
H 	H 	0.73600 0.68480 0.52100 0.06500
H 	H 	0.74100 0.73080 0.61180 0.06400
N 	N 	0.76710 0.64834 0.65840 -0.08700
C 	C 	0.82520 0.65980 0.75190 -0.04400
H 	H 	0.89960 0.66160 0.73780 0.02900
H 	H 	0.80440 0.69780 0.77970 0.02300
C 	C 	0.80660 0.61250 0.83010 -0.08100
H 	H 	0.73290 0.61210 0.84740 0.04500
H 	H 	0.84800 0.62050 0.89300 0.03800
N 	N 	0.83580 0.55498 0.78840 -0.12800
C 	C 	0.76990 0.54470 0.69470 -0.07600
H 	H 	0.78520 0.50600 0.66610 0.03400
H 	H 	0.69620 0.54570 0.71180 0.05100
C 	C 	0.79210 0.59150 0.61720 -0.05100
H 	H 	0.75040 0.58450 0.55410 0.03800
H 	H 	0.86580 0.59030 0.60020 0.02900
C 	C 	0.81870 0.50800 0.86460 -0.13500
H 	H 	0.75630 0.51680 0.90320 0.06600
H 	H 	0.80770 0.47060 0.82900 0.05600
C 	C 	0.91070 0.50338 0.93660 0.04000
C 	C 	0.99230 0.46662 0.91290 -0.07600
H 	H 	0.98720 0.44350 0.85320 0.03200
C 	C 	0.08010 0.46326 0.97470 -0.06700
H 	H 	0.13470 0.43810 0.95680 0.03700
N 	N 	0.58990 0.23560 0.51890 -0.21400
C 	C 	0.53470 0.19590 0.46380 0.08300
H 	H 	0.56810 0.17600 0.41080 -0.02600
C 	C 	0.43490 0.18320 0.48010 -0.17900
H 	H 	0.40030 0.15480 0.43920 0.07800
C 	C 	0.38220 0.21150 0.55730 0.11800
C 	C 	0.43730 0.25450 0.61080 -0.17200
H 	H 	0.40420 0.27650 0.66140 0.07400
C 	C 	0.53920 0.26530 0.59080 0.07600
H 	H 	0.57500 0.29450 0.62870 -0.02500
C 	C 	0.27470 0.19600 0.58400 -0.15700
H 	H 	0.23600 0.18480 0.52100 0.06800
H 	H 	0.24100 0.23080 0.61180 0.06700
N 	N 	0.26710 0.14834 0.65840 -0.08600
C 	C 	0.32520 0.15980 0.75190 -0.04300
H 	H 	0.39960 0.16160 0.73780 0.02400
H 	H 	0.30440 0.19780 0.77970 0.02100
C 	C 	0.30660 0.11250 0.83010 -0.08200
H 	H 	0.23290 0.11210 0.84740 0.04300
H 	H 	0.34800 0.12050 0.89300 0.03500
N 	N 	0.33580 0.05498 0.78840 -0.12900
C 	C 	0.26990 0.04470 0.69470 -0.07700
H 	H 	0.28520 0.00600 0.66610 0.03100
H 	H 	0.19620 0.04570 0.71180 0.04800
C 	C 	0.29210 0.09150 0.61720 -0.05100
H 	H 	0.25040 0.08450 0.55410 0.03600
H 	H 	0.36580 0.09030 0.60020 0.02500
C 	C 	0.31870 0.00800 0.86460 -0.15700
H 	H 	0.25630 0.01680 0.90320 0.06900
H 	H 	0.30770 0.97060 0.82900 0.06000
C 	C 	0.41070 0.00338 0.93660 0.07500
C 	C 	0.49230 0.96662 0.91290 -0.14000
H 	H 	0.48720 0.94350 0.85320 0.04600
C 	C 	0.58010 0.96326 0.97470 -0.00300
H 	H 	0.63470 0.93810 0.95680 0.01900
N 	N 	0.91010 0.73560 0.98110 -0.21400
C 	C 	0.96530 0.69590 0.03620 0.11900
H 	H 	0.93190 0.67600 0.08920 -0.03600
C 	C 	0.06510 0.68320 0.01990 -0.26200
H 	H 	0.09970 0.65480 0.06080 0.09800
C 	C 	0.11780 0.71150 0.94270 0.18400
C 	C 	0.06270 0.75450 0.88920 -0.23700
H 	H 	0.09580 0.77650 0.83860 0.09300
C 	C 	0.96080 0.76530 0.90920 0.13200
H 	H 	0.92500 0.79450 0.87130 -0.03700
C 	C 	0.22530 0.69600 0.91600 -0.19300
H 	H 	0.26400 0.68480 0.97900 0.08800
H 	H 	0.25900 0.73080 0.88820 0.08100
N 	N 	0.23290 0.64834 0.84160 -0.08000
C 	C 	0.17480 0.65980 0.74810 -0.04500
H 	H 	0.10040 0.66160 0.76220 0.02100
H 	H 	0.19560 0.69780 0.72030 0.02000
C 	C 	0.19340 0.61250 0.66990 -0.08000
H 	H 	0.26710 0.61210 0.65260 0.04100
H 	H 	0.15200 0.62050 0.60700 0.02800
N 	N 	0.16420 0.55498 0.71160 -0.13100
C 	C 	0.23010 0.54470 0.80530 -0.07600
H 	H 	0.21480 0.50600 0.83390 0.03300
H 	H 	0.30380 0.54570 0.78820 0.05100
C 	C 	0.20790 0.59150 0.88280 -0.05500
H 	H 	0.24960 0.58450 0.94590 0.04400
H 	H 	0.13420 0.59030 0.89980 0.02800
C 	C 	0.18130 0.50800 0.63540 -0.15100
H 	H 	0.24370 0.51680 0.59680 0.06500
H 	H 	0.19230 0.47060 0.67100 0.05600
C 	C 	0.08930 0.50338 0.56340 0.06200
C 	C 	0.00770 0.46662 0.58710 -0.16100
H 	H 	0.01280 0.44350 0.64680 0.04600
C 	C 	0.91990 0.46326 0.52530 -0.00200
H 	H 	0.86530 0.43810 0.54320 0.01500
N 	N 	0.41010 0.23560 0.98110 -0.20300
C 	C 	0.46530 0.19590 0.03620 0.07600
H 	H 	0.43190 0.17600 0.08920 -0.02700
C 	C 	0.56510 0.18320 0.01990 -0.21300
H 	H 	0.59970 0.15480 0.06080 0.08500
C 	C 	0.61780 0.21150 0.94270 0.15400
C 	C 	0.56270 0.25450 0.88920 -0.18500
H 	H 	0.59580 0.27650 0.83860 0.08000
C 	C 	0.46080 0.26530 0.90920 0.08800
H 	H 	0.42500 0.29450 0.87130 -0.02700
C 	C 	0.72530 0.19600 0.91600 -0.17800
H 	H 	0.76400 0.18480 0.97900 0.08500
H 	H 	0.75900 0.23080 0.88820 0.07900
N 	N 	0.73290 0.14834 0.84160 -0.08000
C 	C 	0.67480 0.15980 0.74810 -0.04500
H 	H 	0.60040 0.16160 0.76220 0.02400
H 	H 	0.69560 0.19780 0.72030 0.02200
C 	C 	0.69340 0.11250 0.66990 -0.07900
H 	H 	0.76710 0.11210 0.65260 0.04300
H 	H 	0.65200 0.12050 0.60700 0.03000
N 	N 	0.66420 0.05498 0.71160 -0.13200
C 	C 	0.73010 0.04470 0.80530 -0.07600
H 	H 	0.71480 0.00600 0.83390 0.03400
H 	H 	0.80380 0.04570 0.78820 0.05400
C 	C 	0.70790 0.09150 0.88280 -0.05500
H 	H 	0.74960 0.08450 0.94590 0.04600
H 	H 	0.63420 0.09030 0.89980 0.03100
C 	C 	0.68130 0.00800 0.63540 -0.13100
H 	H 	0.74370 0.01680 0.59680 0.06100
H 	H 	0.69230 0.97060 0.67100 0.05400
C 	C 	0.58930 0.00338 0.56340 0.01800
C 	C 	0.50770 0.96662 0.58710 -0.09200
H 	H 	0.51280 0.94350 0.64680 0.03000
C 	C 	0.41990 0.96326 0.52530 -0.06900
H 	H 	0.36530 0.93810 0.54320 0.03400
Ag	Ag	0.75000 0.25000 0.50000 0.50400
Ag	Ag	0.25000 0.25000 -0.00000 0.49100
Ag	Ag	0.25000 0.75000 0.50000 0.50100
Ag	Ag	0.75000 0.75000 -0.00000 0.49300
Ag	Ag	-0.00000 0.44523 0.25000 0.51600
Ag	Ag	0.50000 0.94523 0.25000 0.52600
Ag	Ag	0.00000 0.55477 0.75000 0.51700
Ag	Ag	0.50000 0.05477 0.75000 0.52600
