data_crystal

_cell_length_a 20.47510
_cell_length_b 20.47510
_cell_length_c 10.40750
_cell_angle_alpha 90.00000
_cell_angle_beta  90.00000
_cell_angle_gamma 120.00000

_symmetry_space_group_name_	'P 1'
_symmetry_space_group_name_H-M	'P 1'

loop_
_symmetry_equiv_pos_as_xyz
  x,y,z

loop_
_atom_site_label
_atom_site_type_symbol
_atom_site_fract_x
_atom_site_fract_y
_atom_site_fract_z
_atom_site_charge
Mn	Mn	0.37972 0.83466 0.71282 1.30500
O 	O 	0.42351 0.75904 0.69959 -0.49300
C 	C 	0.49204 0.78096 0.69100 0.25300
O 	O 	0.51925 0.73846 0.68630 -0.42000
O 	O 	0.51498 0.90452 0.73422 -0.38600
C 	C 	0.61539 0.15371 0.92760 0.32800
C 	C 	0.60076 0.10543 0.80900 -0.01000
O 	O 	0.63338 0.19156 0.43195 -0.43000
C 	C 	0.56827 0.02725 0.82250 -0.16900
H 	H 	0.55700 0.00570 0.90400 0.11200
C 	C 	0.57070 0.01362 0.59290 -0.17900
H 	H 	0.56100 0.98310 0.52100 0.11500
C 	C 	0.55295 0.98215 0.71580 0.22400
C 	C 	0.60310 0.09121 0.57970 -0.00500
C 	C 	0.61721 0.13651 0.68750 -0.05600
H 	H 	0.63800 0.18830 0.67750 0.05600
O 	O 	0.59971 0.11777 0.03277 -0.43300
C 	C 	0.61775 0.12455 0.44780 0.28600
O 	O 	0.61117 0.08281 0.35269 -0.38900
O 	O 	0.64057 0.22188 0.91580 -0.35200
C 	C 	0.54854 0.86457 0.67840 0.27600
H 	H 	0.54760 0.87380 0.58630 -0.04900
C 	C 	0.62620 0.88760 0.70130 -0.81500
H 	H 	0.65660 0.94120 0.68950 0.27100
H 	H 	0.64200 0.86230 0.64210 0.27500
H 	H 	0.63200 0.87490 0.78770 0.27200
Mn	Mn	0.16534 0.54506 0.71282 1.30400
O 	O 	0.24096 0.66447 0.69959 -0.49400
C 	C 	0.21904 0.71108 0.69100 0.25300
O 	O 	0.26154 0.78079 0.68630 -0.42000
O 	O 	0.09548 0.61046 0.73422 -0.38600
C 	C 	0.84629 0.46168 0.92760 0.32700
C 	C 	0.89457 0.49533 0.80900 -0.01000
O 	O 	0.80844 0.44182 0.43195 -0.43000
C 	C 	0.97275 0.54102 0.82250 -0.16900
H 	H 	0.99430 0.55130 0.90400 0.11200
C 	C 	0.98638 0.55708 0.59290 -0.17900
H 	H 	0.01690 0.57790 0.52100 0.11500
C 	C 	0.01785 0.57080 0.71580 0.22400
C 	C 	0.90879 0.51189 0.57970 -0.00500
C 	C 	0.86349 0.48070 0.68750 -0.05600
H 	H 	0.81170 0.44970 0.67750 0.05600
O 	O 	0.88223 0.48194 0.03277 -0.43300
C 	C 	0.87545 0.49320 0.44780 0.28600
O 	O 	0.91719 0.52836 0.35269 -0.38900
O 	O 	0.77812 0.41869 0.91580 -0.35200
C 	C 	0.13543 0.68397 0.67840 0.27600
H 	H 	0.12620 0.67380 0.58630 -0.04900
C 	C 	0.11240 0.73860 0.70130 -0.81400
H 	H 	0.05880 0.71540 0.68950 0.27100
H 	H 	0.13770 0.77970 0.64210 0.27400
H 	H 	0.12510 0.75710 0.78770 0.27100
Mn	Mn	0.45494 0.62028 0.71282 1.30400
O 	O 	0.33553 0.57649 0.69959 -0.49400
C 	C 	0.28892 0.50796 0.69100 0.25300
O 	O 	0.21921 0.48075 0.68630 -0.42000
O 	O 	0.38954 0.48502 0.73422 -0.38700
C 	C 	0.53832 0.38461 0.92760 0.32600
C 	C 	0.50467 0.39924 0.80900 -0.00900
O 	O 	0.55818 0.36662 0.43195 -0.43000
C 	C 	0.45898 0.43173 0.82250 -0.17000
H 	H 	0.44870 0.44300 0.90400 0.11200
C 	C 	0.44292 0.42930 0.59290 -0.18000
H 	H 	0.42210 0.43900 0.52100 0.11500
C 	C 	0.42920 0.44705 0.71580 0.22500
C 	C 	0.48811 0.39690 0.57970 -0.00400
C 	C 	0.51930 0.38279 0.68750 -0.05600
H 	H 	0.55030 0.36200 0.67750 0.05600
O 	O 	0.51806 0.40029 0.03277 -0.43200
C 	C 	0.50680 0.38225 0.44780 0.28600
O 	O 	0.47164 0.38883 0.35269 -0.38900
O 	O 	0.58131 0.35943 0.91580 -0.35200
C 	C 	0.31603 0.45146 0.67840 0.27600
H 	H 	0.32620 0.45240 0.58630 -0.04900
C 	C 	0.26140 0.37380 0.70130 -0.81500
H 	H 	0.28460 0.34340 0.68950 0.27100
H 	H 	0.22030 0.35800 0.64210 0.27500
H 	H 	0.24290 0.36800 0.78770 0.27200
Mn	Mn	0.62028 0.16534 0.21282 1.30400
O 	O 	0.57649 0.24096 0.19959 -0.49300
C 	C 	0.50796 0.21904 0.19100 0.25200
O 	O 	0.48075 0.26154 0.18630 -0.41900
O 	O 	0.48502 0.09548 0.23422 -0.38700
C 	C 	0.38461 0.84629 0.42760 0.33300
C 	C 	0.39924 0.89457 0.30900 -0.00900
O 	O 	0.36662 0.80844 0.93195 -0.43000
C 	C 	0.43173 0.97275 0.32250 -0.16900
H 	H 	0.44300 0.99430 0.40400 0.11300
C 	C 	0.42930 0.98638 0.09290 -0.18000
H 	H 	0.43900 0.01690 0.02100 0.11600
C 	C 	0.44705 0.01785 0.21580 0.22400
C 	C 	0.39690 0.90879 0.07970 0.00400
C 	C 	0.38279 0.86349 0.18750 -0.05900
H 	H 	0.36200 0.81170 0.17750 0.05900
O 	O 	0.40029 0.88223 0.53277 -0.43800
C 	C 	0.38225 0.87545 0.94780 0.27900
O 	O 	0.38883 0.91719 0.85269 -0.39000
O 	O 	0.35943 0.77812 0.41580 -0.35100
C 	C 	0.45146 0.13543 0.17840 0.27900
H 	H 	0.45240 0.12620 0.08630 -0.04900
C 	C 	0.37380 0.11240 0.20130 -0.82100
H 	H 	0.34340 0.05880 0.18950 0.27400
H 	H 	0.35800 0.13770 0.14210 0.27700
H 	H 	0.36800 0.12510 0.28770 0.27400
Mn	Mn	0.83466 0.45494 0.21282 1.30400
O 	O 	0.75904 0.33553 0.19959 -0.49300
C 	C 	0.78096 0.28892 0.19100 0.25300
O 	O 	0.73846 0.21921 0.18630 -0.41900
O 	O 	0.90452 0.38954 0.23422 -0.38700
C 	C 	0.15371 0.53832 0.42760 0.33300
C 	C 	0.10543 0.50467 0.30900 -0.00900
O 	O 	0.19156 0.55818 0.93195 -0.43000
C 	C 	0.02725 0.45898 0.32250 -0.16900
H 	H 	0.00570 0.44870 0.40400 0.11300
C 	C 	0.01362 0.44292 0.09290 -0.18000
H 	H 	0.98310 0.42210 0.02100 0.11600
C 	C 	0.98215 0.42920 0.21580 0.22400
C 	C 	0.09121 0.48811 0.07970 0.00400
C 	C 	0.13651 0.51930 0.18750 -0.05800
H 	H 	0.18830 0.55030 0.17750 0.05900
O 	O 	0.11777 0.51806 0.53277 -0.43800
C 	C 	0.12455 0.50680 0.94780 0.27900
O 	O 	0.08281 0.47164 0.85269 -0.38900
O 	O 	0.22188 0.58131 0.41580 -0.35100
C 	C 	0.86457 0.31603 0.17840 0.27800
H 	H 	0.87380 0.32620 0.08630 -0.04900
C 	C 	0.88760 0.26140 0.20130 -0.82000
H 	H 	0.94120 0.28460 0.18950 0.27300
H 	H 	0.86230 0.22030 0.14210 0.27700
H 	H 	0.87490 0.24290 0.28770 0.27400
Mn	Mn	0.54506 0.37972 0.21282 1.30400
O 	O 	0.66447 0.42351 0.19959 -0.49300
C 	C 	0.71108 0.49204 0.19100 0.25200
O 	O 	0.78079 0.51925 0.18630 -0.41900
O 	O 	0.61046 0.51498 0.23422 -0.38700
C 	C 	0.46168 0.61539 0.42760 0.33300
C 	C 	0.49533 0.60076 0.30900 -0.00700
O 	O 	0.44182 0.63338 0.93195 -0.43000
C 	C 	0.54102 0.56827 0.32250 -0.17100
H 	H 	0.55130 0.55700 0.40400 0.11400
C 	C 	0.55708 0.57070 0.09290 -0.18400
H 	H 	0.57790 0.56100 0.02100 0.11800
C 	C 	0.57080 0.55295 0.21580 0.22800
C 	C 	0.51189 0.60310 0.07970 0.00500
C 	C 	0.48070 0.61721 0.18750 -0.06000
H 	H 	0.44970 0.63800 0.17750 0.05900
O 	O 	0.48194 0.59971 0.53277 -0.43800
C 	C 	0.49320 0.61775 0.94780 0.27900
O 	O 	0.52836 0.61117 0.85269 -0.38900
O 	O 	0.41869 0.64057 0.41580 -0.35100
C 	C 	0.68397 0.54854 0.17840 0.27900
H 	H 	0.67380 0.54760 0.08630 -0.04900
C 	C 	0.73860 0.62620 0.20130 -0.82200
H 	H 	0.71540 0.65660 0.18950 0.27400
H 	H 	0.77970 0.64200 0.14210 0.27800
H 	H 	0.75710 0.63200 0.28770 0.27500
Na	Na	0.66667 0.33333 0.02826 0.58500
Na	Na	0.33333 0.66667 0.52826 0.58400
K 	K 	0.33333 0.66667 0.93620 0.64500
K 	K 	0.66667 0.33333 0.43620 0.64600
