data_crystal

_cell_length_a 20.44890
_cell_length_b 20.44890
_cell_length_c 10.39280
_cell_angle_alpha 90.00000
_cell_angle_beta  90.00000
_cell_angle_gamma 120.00000

_symmetry_space_group_name_	'P 1'
_symmetry_space_group_name_H-M	'P 1'

loop_
_symmetry_equiv_pos_as_xyz
  x,y,z

loop_
_atom_site_label
_atom_site_type_symbol
_atom_site_fract_x
_atom_site_fract_y
_atom_site_fract_z
_atom_site_charge
Mn	Mn	0.61951 0.16515 0.49100 1.30300
O 	O 	0.42414 0.75874 0.00266 -0.45000
O 	O 	0.51577 0.90422 0.96983 -0.39900
C 	C 	0.61570 0.15359 0.77570 0.40400
C 	C 	0.55401 0.98188 0.98810 0.01100
C 	C 	0.49281 0.78042 0.01160 0.29300
C 	C 	0.56942 0.02681 0.88030 -0.01100
H 	H 	0.55870 0.00510 0.79880 0.05100
O 	O 	0.63410 0.19155 0.27162 -0.43300
O 	O 	0.51966 0.73742 0.01760 -0.37700
C 	C 	0.57133 0.01291 0.11020 0.04800
H 	H 	0.56160 0.98230 0.18210 0.05900
C 	C 	0.61766 0.12377 0.25650 0.34600
C 	C 	0.61814 0.13620 0.01570 0.24000
H 	H 	0.63960 0.18810 0.02560 -0.00800
C 	C 	0.60130 0.10543 0.89390 -0.26000
O 	O 	0.59863 0.11666 0.67057 -0.45800
C 	C 	0.60371 0.09113 0.12380 -0.15700
O 	O 	0.61036 0.08228 0.35168 -0.40700
O 	O 	0.64123 0.22165 0.78750 -0.40100
C 	C 	0.54985 0.86399 0.02270 0.20700
H 	H 	0.54880 0.87290 0.11520 -0.01500
C 	C 	0.62600 0.88700 0.00260 -0.33600
H 	H 	0.65600 0.94060 0.01400 0.17200
H 	H 	0.63260 0.87390 0.91680 0.05500
H 	H 	0.64160 0.86210 0.06330 0.15300
Mn	Mn	0.83485 0.45435 0.49100 1.30400
O 	O 	0.24126 0.66540 0.00266 -0.44900
O 	O 	0.09578 0.61155 0.96983 -0.39900
C 	C 	0.84641 0.46211 0.77570 0.40600
C 	C 	0.01812 0.57213 0.98810 0.01000
C 	C 	0.21958 0.71239 0.01160 0.29200
C 	C 	0.97319 0.54261 0.88030 -0.01100
H 	H 	0.99490 0.55360 0.79880 0.05100
O 	O 	0.80845 0.44255 0.27162 -0.43300
O 	O 	0.26258 0.78224 0.01760 -0.37500
C 	C 	0.98709 0.55842 0.11020 0.04900
H 	H 	0.01770 0.57930 0.18210 0.05900
C 	C 	0.87623 0.49389 0.25650 0.34700
C 	C 	0.86380 0.48194 0.01570 0.24100
H 	H 	0.81190 0.45150 0.02560 -0.00800
C 	C 	0.89457 0.49587 0.89390 -0.26100
O 	O 	0.88334 0.48197 0.67057 -0.45800
C 	C 	0.90887 0.51258 0.12380 -0.15700
O 	O 	0.91772 0.52808 0.35168 -0.40600
O 	O 	0.77835 0.41958 0.78750 -0.40100
C 	C 	0.13601 0.68586 0.02270 0.21200
H 	H 	0.12710 0.67590 0.11520 -0.01600
C 	C 	0.11300 0.73900 0.00260 -0.34300
H 	H 	0.05940 0.71540 0.01400 0.17600
H 	H 	0.12610 0.75870 0.91680 0.05800
H 	H 	0.13790 0.77950 0.06330 0.15800
Mn	Mn	0.54565 0.38049 0.49100 1.30500
O 	O 	0.33460 0.57586 0.00266 -0.45200
O 	O 	0.38845 0.48423 0.96983 -0.38100
C 	C 	0.53789 0.38430 0.77570 0.41700
C 	C 	0.42787 0.44599 0.98810 -0.06100
C 	C 	0.28761 0.50719 0.01160 0.29800
C 	C 	0.45739 0.43058 0.88030 0.04500
H 	H 	0.44640 0.44130 0.79880 0.03700
O 	O 	0.55745 0.36590 0.27162 -0.43600
O 	O 	0.21776 0.48034 0.01760 -0.37700
C 	C 	0.44158 0.42867 0.11020 0.14200
H 	H 	0.42070 0.43840 0.18210 0.01700
C 	C 	0.50611 0.38234 0.25650 0.36300
C 	C 	0.51806 0.38186 0.01570 0.28100
H 	H 	0.54850 0.36040 0.02560 -0.02100
C 	C 	0.50413 0.39870 0.89390 -0.29400
O 	O 	0.51803 0.40137 0.67057 -0.45800
C 	C 	0.48742 0.39629 0.12380 -0.19900
O 	O 	0.47192 0.38964 0.35168 -0.40500
O 	O 	0.58042 0.35877 0.78750 -0.40400
C 	C 	0.31414 0.45015 0.02270 0.19000
H 	H 	0.32410 0.45120 0.11520 -0.01000
C 	C 	0.26100 0.37400 0.00260 -0.31100
H 	H 	0.28460 0.34400 0.01400 0.16200
H 	H 	0.24130 0.36740 0.91680 0.04700
H 	H 	0.22050 0.35840 0.06330 0.14600
Mn	Mn	0.38049 0.83485 0.99100 1.25100
O 	O 	0.57586 0.24126 0.50266 -0.48200
O 	O 	0.48423 0.09578 0.46983 -0.39400
C 	C 	0.38430 0.84641 0.27570 0.33400
C 	C 	0.44599 0.01812 0.48810 0.16900
C 	C 	0.50719 0.21958 0.51160 0.21700
C 	C 	0.43058 0.97319 0.38030 -0.11900
H 	H 	0.44130 0.99490 0.29880 0.11200
O 	O 	0.36590 0.80845 0.77162 -0.46000
O 	O 	0.48034 0.26258 0.51760 -0.41200
C 	C 	0.42867 0.98709 0.61020 -0.10200
H 	H 	0.43840 0.01770 0.68210 0.07600
C 	C 	0.38234 0.87623 0.75650 0.30800
C 	C 	0.38186 0.86380 0.51570 -0.02300
H 	H 	0.36040 0.81190 0.52560 0.04500
C 	C 	0.39870 0.89457 0.39390 -0.03100
O 	O 	0.40137 0.88334 0.17057 -0.39500
C 	C 	0.39629 0.90887 0.62380 -0.04600
O 	O 	0.38964 0.91772 0.85168 -0.42000
O 	O 	0.35877 0.77835 0.28750 -0.35000
C 	C 	0.45015 0.13601 0.52270 0.37000
H 	H 	0.45120 0.12710 0.61520 -0.08100
C 	C 	0.37400 0.11300 0.50260 -0.97300
H 	H 	0.34400 0.05940 0.51400 0.31600
H 	H 	0.36740 0.12610 0.41680 0.32400
H 	H 	0.35840 0.13790 0.56330 0.31500
Mn	Mn	0.16515 0.54565 0.99100 1.25200
O 	O 	0.75874 0.33460 0.50266 -0.48300
O 	O 	0.90422 0.38845 0.46983 -0.39200
C 	C 	0.15359 0.53789 0.27570 0.33500
C 	C 	0.98188 0.42787 0.48810 0.16800
C 	C 	0.78042 0.28761 0.51160 0.21900
C 	C 	0.02681 0.45739 0.38030 -0.11800
H 	H 	0.00510 0.44640 0.29880 0.11100
O 	O 	0.19155 0.55745 0.77162 -0.46000
O 	O 	0.73742 0.21776 0.51760 -0.41400
C 	C 	0.01291 0.44158 0.61020 -0.10100
H 	H 	0.98230 0.42070 0.68210 0.07500
C 	C 	0.12377 0.50611 0.75650 0.30900
C 	C 	0.13620 0.51806 0.51570 -0.02200
H 	H 	0.18810 0.54850 0.52560 0.04400
C 	C 	0.10543 0.50413 0.39390 -0.03200
O 	O 	0.11666 0.51803 0.17057 -0.39600
C 	C 	0.09113 0.48742 0.62380 -0.04700
O 	O 	0.08228 0.47192 0.85168 -0.42100
O 	O 	0.22165 0.58042 0.28750 -0.35000
C 	C 	0.86399 0.31414 0.52270 0.36200
H 	H 	0.87290 0.32410 0.61520 -0.07900
C 	C 	0.88700 0.26100 0.50260 -0.95600
H 	H 	0.94060 0.28460 0.51400 0.30900
H 	H 	0.87390 0.24130 0.41680 0.31700
H 	H 	0.86210 0.22050 0.56330 0.30800
Mn	Mn	0.45435 0.61951 0.99100 1.25100
O 	O 	0.66540 0.42414 0.50266 -0.48000
O 	O 	0.61155 0.51577 0.46983 -0.41000
C 	C 	0.46211 0.61570 0.27570 0.32400
C 	C 	0.57213 0.55401 0.48810 0.23800
C 	C 	0.71239 0.49281 0.51160 0.21200
C 	C 	0.54261 0.56942 0.38030 -0.17600
H 	H 	0.55360 0.55870 0.29880 0.12500
O 	O 	0.44255 0.63410 0.77162 -0.45700
O 	O 	0.78224 0.51966 0.51760 -0.41200
C 	C 	0.55842 0.57133 0.61020 -0.18600
H 	H 	0.57930 0.56160 0.68210 0.11300
C 	C 	0.49389 0.61766 0.75650 0.29400
C 	C 	0.48194 0.61814 0.51570 -0.05700
H 	H 	0.45150 0.63960 0.52560 0.05500
C 	C 	0.49587 0.60130 0.39390 -0.00200
O 	O 	0.48197 0.59863 0.17057 -0.39500
C 	C 	0.51258 0.60371 0.62380 -0.00800
O 	O 	0.52808 0.61036 0.85168 -0.42200
O 	O 	0.41958 0.64123 0.28750 -0.34700
C 	C 	0.68586 0.54985 0.52270 0.38600
H 	H 	0.67590 0.54880 0.61520 -0.08600
C 	C 	0.73900 0.62600 0.50260 -0.99800
H 	H 	0.71540 0.65600 0.51400 0.32600
H 	H 	0.75870 0.63260 0.41680 0.33200
H 	H 	0.77950 0.64160 0.56330 0.32200
Na	Na	0.33333 0.66667 0.17752 0.58500
Na	Na	0.66667 0.33333 0.67752 0.58300
K 	K 	0.66667 0.33333 0.26643 0.65300
K 	K 	0.33333 0.66667 0.76643 0.63300
