data_crystal

_cell_length_a 20.38560
_cell_length_b 13.82930
_cell_length_c 13.15630
_cell_angle_alpha 90.00000
_cell_angle_beta  103.63200
_cell_angle_gamma 90.00000

_symmetry_space_group_name_	'P 1'
_symmetry_space_group_name_H-M	'P 1'

loop_
_symmetry_equiv_pos_as_xyz
  x,y,z

loop_
_atom_site_label
_atom_site_type_symbol
_atom_site_fract_x
_atom_site_fract_y
_atom_site_fract_z
_atom_site_charge
O 	O 	0.23280 0.84130 0.84960 -0.39700
O 	O 	0.14890 0.80170 0.71420 -0.29100
C 	C 	0.19720 0.85320 0.75850 0.33200
N 	N 	0.24480 0.10160 0.59090 -0.21400
C 	C 	0.21530 0.93880 0.69860 -0.03000
C 	C 	0.27950 0.08140 0.68850 0.04400
H 	H 	0.31370 0.12330 0.72080 0.01400
C 	C 	0.18000 0.95970 0.59850 -0.06900
H 	H 	0.14500 0.91960 0.56490 0.06800
N 	N 	0.13400 0.26130 0.49650 -0.25000
C 	C 	0.26670 0.00180 0.74280 -0.07000
H 	H 	0.29280 0.99010 0.80980 0.07100
C 	C 	0.78370 0.20470 0.59070 -0.03000
H 	H 	0.80620 0.17470 0.65230 0.05300
C 	C 	0.08570 0.25040 0.40820 0.12900
H 	H 	0.09890 0.24460 0.34540 -0.01400
C 	C 	0.78520 0.30300 0.44260 -0.02600
H 	H 	0.80890 0.33970 0.40390 0.04500
N 	N 	0.92770 0.25330 0.49040 -0.27200
H 	H 	0.90250 0.24500 0.42870 0.16400
O 	O 	0.92300 0.26830 0.66050 -0.24200
C 	C 	0.11260 0.27050 0.58490 0.13900
H 	H 	0.14500 0.27940 0.64710 -0.01500
C 	C 	0.99690 0.25700 0.49750 0.23600
C 	C 	0.04540 0.26740 0.58950 -0.24700
H 	H 	0.03330 0.27230 0.65320 0.16100
C 	C 	0.81970 0.25720 0.53240 -0.04600
C 	C 	0.01860 0.24750 0.40550 -0.23800
H 	H 	0.98720 0.23920 0.34210 0.12100
C 	C 	0.89490 0.26120 0.56950 0.23500
C 	C 	0.19670 0.04070 0.54780 0.04900
H 	H 	0.17250 0.05260 0.47970 0.00500
O 	O 	0.26720 0.34130 0.65040 -0.40800
O 	O 	0.35110 0.30170 0.78580 -0.28900
C 	C 	0.30280 0.35320 0.74150 0.32400
N 	N 	0.25520 0.60160 0.90910 -0.22600
C 	C 	0.28470 0.43880 0.80140 -0.00300
C 	C 	0.22050 0.58140 0.81150 0.05900
H 	H 	0.18630 0.62330 0.77920 0.01000
C 	C 	0.32000 0.45970 0.90150 -0.12500
H 	H 	0.35500 0.41960 0.93510 0.09900
N 	N 	0.36600 0.76130 0.00350 -0.27300
C 	C 	0.23330 0.50180 0.75720 -0.08800
H 	H 	0.20720 0.49010 0.69020 0.07200
C 	C 	0.71630 0.70470 0.90930 -0.14200
H 	H 	0.69380 0.67470 0.84770 0.09400
C 	C 	0.41430 0.75040 0.09180 0.11800
H 	H 	0.40110 0.74460 0.15460 -0.01200
C 	C 	0.71480 0.80300 0.05740 -0.17700
H 	H 	0.69110 0.83970 0.09610 0.09000
N 	N 	0.57230 0.75330 0.00960 -0.28000
H 	H 	0.59750 0.74500 0.07130 0.16100
O 	O 	0.57700 0.76830 0.83950 -0.23500
C 	C 	0.38740 0.77050 0.91510 0.16500
H 	H 	0.35500 0.77940 0.85290 -0.01900
C 	C 	0.50310 0.75700 0.00250 0.19100
C 	C 	0.45460 0.76740 0.91050 -0.20100
H 	H 	0.46670 0.77230 0.84680 0.14800
C 	C 	0.68030 0.75720 0.96760 0.07700
C 	C 	0.48140 0.74750 0.09450 -0.23400
H 	H 	0.51280 0.73920 0.15790 0.12100
C 	C 	0.60510 0.76120 0.93050 0.23100
C 	C 	0.30330 0.54070 0.95220 0.15500
H 	H 	0.32750 0.55260 0.02030 -0.05800
O 	O 	0.26720 0.65870 0.15040 -0.41800
O 	O 	0.35110 0.69830 0.28580 -0.29600
C 	C 	0.30280 0.64680 0.24150 0.33800
N 	N 	0.25520 0.39840 0.40910 -0.21300
C 	C 	0.28470 0.56120 0.30140 -0.03800
C 	C 	0.22050 0.41860 0.31150 0.04000
H 	H 	0.18630 0.37670 0.27920 0.01200
C 	C 	0.32000 0.54030 0.40150 -0.06500
H 	H 	0.35500 0.58040 0.43510 0.06600
N 	N 	0.36600 0.23870 0.50350 -0.25300
C 	C 	0.23330 0.49820 0.25720 -0.06200
H 	H 	0.20720 0.50990 0.19020 0.05800
C 	C 	0.71630 0.29530 0.40930 -0.02800
H 	H 	0.69380 0.32530 0.34770 0.05200
C 	C 	0.41430 0.24960 0.59180 0.14000
H 	H 	0.40110 0.25540 0.65460 -0.01700
C 	C 	0.71480 0.19700 0.55740 -0.02500
H 	H 	0.69110 0.16030 0.59610 0.04400
N 	N 	0.57230 0.24670 0.50960 -0.27500
H 	H 	0.59750 0.25500 0.57130 0.16600
O 	O 	0.57700 0.23170 0.33950 -0.24600
C 	C 	0.38740 0.22950 0.41510 0.14500
H 	H 	0.35500 0.22060 0.35290 -0.01700
C 	C 	0.50310 0.24300 0.50250 0.25200
C 	C 	0.45460 0.23260 0.41050 -0.26100
H 	H 	0.46670 0.22770 0.34680 0.16300
C 	C 	0.68030 0.24280 0.46760 -0.04800
C 	C 	0.48140 0.25250 0.59450 -0.25800
H 	H 	0.51280 0.26080 0.65790 0.13200
C 	C 	0.60510 0.23880 0.43050 0.23700
C 	C 	0.30330 0.45930 0.45220 0.04600
H 	H 	0.32750 0.44740 0.52030 0.00600
O 	O 	0.23280 0.15870 0.34960 -0.41300
O 	O 	0.14890 0.19830 0.21420 -0.29900
C 	C 	0.19720 0.14680 0.25850 0.34600
N 	N 	0.24480 0.89840 0.09090 -0.20000
C 	C 	0.21530 0.06120 0.19860 -0.06600
C 	C 	0.27950 0.91860 0.18850 0.02400
H 	H 	0.31370 0.87670 0.22080 0.01800
C 	C 	0.18000 0.04030 0.09850 -0.00900
H 	H 	0.14500 0.08040 0.06490 0.03500
N 	N 	0.13400 0.73870 0.99650 -0.22600
C 	C 	0.26670 0.99820 0.24280 -0.04100
H 	H 	0.29280 0.00990 0.30980 0.05500
C 	C 	0.78370 0.79530 0.09070 0.08400
H 	H 	0.80620 0.82530 0.15230 0.01200
C 	C 	0.08570 0.74960 0.90820 0.14900
H 	H 	0.09890 0.75540 0.84540 -0.01700
C 	C 	0.78520 0.69700 0.94260 0.12500
H 	H 	0.80890 0.66030 0.90390 -0.00100
N 	N 	0.92770 0.74670 0.99040 -0.26700
H 	H 	0.90250 0.75500 0.92870 0.16900
O 	O 	0.92300 0.73170 0.16050 -0.25300
C 	C 	0.11260 0.72950 0.08490 0.11800
H 	H 	0.14500 0.72060 0.14710 -0.01100
C 	C 	0.99690 0.74300 0.99750 0.29400
C 	C 	0.04540 0.73260 0.08950 -0.30500
H 	H 	0.03330 0.72770 0.15320 0.17500
C 	C 	0.81970 0.74280 0.03240 -0.17000
C 	C 	0.01860 0.75250 0.90550 -0.25700
H 	H 	0.98720 0.76080 0.84210 0.12900
C 	C 	0.89490 0.73880 0.06950 0.24200
C 	C 	0.19670 0.95930 0.04780 -0.05700
H 	H 	0.17250 0.94740 0.97970 0.06800
Cd	Cd	0.25000 0.25000 0.50000 1.21300
Cd	Cd	0.25000 0.75000 -0.00000 1.20000
O 	O 	0.73280 0.34130 0.84960 -0.39800
O 	O 	0.64890 0.30170 0.71420 -0.29100
C 	C 	0.69720 0.35320 0.75850 0.33100
N 	N 	0.74480 0.60160 0.59090 -0.21500
C 	C 	0.71530 0.43880 0.69860 -0.03000
C 	C 	0.77950 0.58140 0.68850 0.04400
H 	H 	0.81370 0.62330 0.72080 0.01400
C 	C 	0.68000 0.45970 0.59850 -0.06900
H 	H 	0.64500 0.41960 0.56490 0.06800
N 	N 	0.63400 0.76130 0.49650 -0.25300
C 	C 	0.76670 0.50180 0.74280 -0.06900
H 	H 	0.79280 0.49010 0.80980 0.07000
C 	C 	0.28370 0.70470 0.59070 -0.03000
H 	H 	0.30620 0.67470 0.65230 0.05300
C 	C 	0.58570 0.75040 0.40820 0.13900
H 	H 	0.59890 0.74460 0.34540 -0.01700
C 	C 	0.28520 0.80300 0.44260 -0.02600
H 	H 	0.30890 0.83970 0.40390 0.04500
N 	N 	0.42770 0.75330 0.49040 -0.27500
H 	H 	0.40250 0.74500 0.42870 0.16500
O 	O 	0.42300 0.76830 0.66050 -0.24100
C 	C 	0.61260 0.77050 0.58490 0.14500
H 	H 	0.64500 0.77940 0.64710 -0.01800
C 	C 	0.49690 0.75700 0.49750 0.25200
C 	C 	0.54540 0.76740 0.58950 -0.26100
H 	H 	0.53330 0.77230 0.65320 0.16500
C 	C 	0.31970 0.75720 0.53240 -0.04600
C 	C 	0.51860 0.74750 0.40550 -0.25800
H 	H 	0.48720 0.73920 0.34210 0.13100
C 	C 	0.39490 0.76120 0.56950 0.23600
C 	C 	0.69670 0.54070 0.54780 0.04900
H 	H 	0.67250 0.55260 0.47970 0.00400
O 	O 	0.76720 0.84130 0.65040 -0.40800
O 	O 	0.85110 0.80170 0.78580 -0.28900
C 	C 	0.80280 0.85320 0.74150 0.32400
N 	N 	0.75520 0.10160 0.90910 -0.22600
C 	C 	0.78470 0.93880 0.80140 -0.00300
C 	C 	0.72050 0.08140 0.81150 0.05900
H 	H 	0.68630 0.12330 0.77920 0.01000
C 	C 	0.82000 0.95970 0.90150 -0.12400
H 	H 	0.85500 0.91960 0.93510 0.09800
N 	N 	0.86600 0.26130 0.00350 -0.27500
C 	C 	0.73330 0.00180 0.75720 -0.08800
H 	H 	0.70720 0.99010 0.69020 0.07200
C 	C 	0.21630 0.20470 0.90930 -0.14600
H 	H 	0.19380 0.17470 0.84770 0.09500
C 	C 	0.91430 0.25040 0.09180 0.12700
H 	H 	0.90110 0.24460 0.15460 -0.01500
C 	C 	0.21480 0.30300 0.05740 -0.18100
H 	H 	0.19110 0.33970 0.09610 0.09100
N 	N 	0.07230 0.25330 0.00960 -0.28300
H 	H 	0.09750 0.24500 0.07130 0.16100
O 	O 	0.07700 0.26830 0.83950 -0.23400
C 	C 	0.88740 0.27050 0.91510 0.16900
H 	H 	0.85500 0.27940 0.85290 -0.02100
C 	C 	0.00310 0.25700 0.00250 0.20500
C 	C 	0.95460 0.26740 0.91050 -0.21300
H 	H 	0.96670 0.27230 0.84680 0.15100
C 	C 	0.18030 0.25720 0.96760 0.08000
C 	C 	0.98140 0.24750 0.09450 -0.25100
H 	H 	0.01280 0.23920 0.15790 0.12900
C 	C 	0.10510 0.26120 0.93050 0.23100
C 	C 	0.80330 0.04070 0.95220 0.15100
H 	H 	0.82750 0.05260 0.02030 -0.05600
O 	O 	0.76720 0.15870 0.15040 -0.41800
O 	O 	0.85110 0.19830 0.28580 -0.29600
C 	C 	0.80280 0.14680 0.24150 0.33800
N 	N 	0.75520 0.89840 0.40910 -0.21300
C 	C 	0.78470 0.06120 0.30140 -0.03800
C 	C 	0.72050 0.91860 0.31150 0.03900
H 	H 	0.68630 0.87670 0.27920 0.01200
C 	C 	0.82000 0.04030 0.40150 -0.06500
H 	H 	0.85500 0.08040 0.43510 0.06600
N 	N 	0.86600 0.73870 0.50350 -0.25600
C 	C 	0.73330 0.99820 0.25720 -0.06000
H 	H 	0.70720 0.00990 0.19020 0.05700
C 	C 	0.21630 0.79530 0.40930 -0.02800
H 	H 	0.19380 0.82530 0.34770 0.05200
C 	C 	0.91430 0.74960 0.59180 0.15100
H 	H 	0.90110 0.75540 0.65460 -0.02100
C 	C 	0.21480 0.69700 0.55740 -0.02500
H 	H 	0.19110 0.66030 0.59610 0.04400
N 	N 	0.07230 0.74670 0.50960 -0.27800
H 	H 	0.09750 0.75500 0.57130 0.16700
O 	O 	0.07700 0.73170 0.33950 -0.24500
C 	C 	0.88740 0.72950 0.41510 0.15200
H 	H 	0.85500 0.72060 0.35290 -0.01900
C 	C 	0.00310 0.74300 0.50250 0.26900
C 	C 	0.95460 0.73260 0.41050 -0.27500
H 	H 	0.96670 0.72770 0.34680 0.16700
C 	C 	0.18030 0.74280 0.46760 -0.04800
C 	C 	0.98140 0.75250 0.59450 -0.28100
H 	H 	0.01280 0.76080 0.65790 0.14200
C 	C 	0.10510 0.73880 0.43050 0.23800
C 	C 	0.80330 0.95930 0.45220 0.04600
H 	H 	0.82750 0.94740 0.52030 0.00500
O 	O 	0.73280 0.65870 0.34960 -0.41300
O 	O 	0.64890 0.69830 0.21420 -0.29900
C 	C 	0.69720 0.64680 0.25850 0.34500
N 	N 	0.74480 0.39840 0.09090 -0.20000
C 	C 	0.71530 0.56120 0.19860 -0.06500
C 	C 	0.77950 0.41860 0.18850 0.02500
H 	H 	0.81370 0.37670 0.22080 0.01700
C 	C 	0.68000 0.54030 0.09850 -0.00900
H 	H 	0.64500 0.58040 0.06490 0.03500
N 	N 	0.63400 0.23870 0.99650 -0.23100
C 	C 	0.76670 0.49820 0.24280 -0.04300
H 	H 	0.79280 0.50990 0.30980 0.05600
C 	C 	0.28370 0.29530 0.09070 0.08800
H 	H 	0.30620 0.32530 0.15230 0.01000
C 	C 	0.58570 0.24960 0.90820 0.16200
H 	H 	0.59890 0.25540 0.84540 -0.02200
C 	C 	0.28520 0.19700 0.94260 0.13000
H 	H 	0.30890 0.16030 0.90390 -0.00200
N 	N 	0.42770 0.24670 0.99040 -0.27000
H 	H 	0.40250 0.25500 0.92870 0.17100
O 	O 	0.42300 0.23170 0.16050 -0.25300
C 	C 	0.61260 0.22950 0.08490 0.12700
H 	H 	0.64500 0.22060 0.14710 -0.01500
C 	C 	0.49690 0.24300 0.99750 0.31500
C 	C 	0.54540 0.23260 0.08950 -0.32200
H 	H 	0.53330 0.22770 0.15320 0.18000
C 	C 	0.31970 0.24280 0.03240 -0.17500
C 	C 	0.51860 0.25250 0.90550 -0.28300
H 	H 	0.48720 0.26080 0.84210 0.14100
C 	C 	0.39490 0.23880 0.06950 0.24300
C 	C 	0.69670 0.45930 0.04780 -0.05800
H 	H 	0.67250 0.44740 0.97970 0.06800
Cd	Cd	0.75000 0.25000 -0.00000 1.20000
Cd	Cd	0.75000 0.75000 0.50000 1.21300
