data_crystal

_cell_length_a 34.91150
_cell_length_b 41.31310
_cell_length_c 28.97100
_cell_angle_alpha 90.00000
_cell_angle_beta  90.00000
_cell_angle_gamma 90.00000

_symmetry_space_group_name_	'P 1'
_symmetry_space_group_name_H-M	'P 1'

loop_
_symmetry_equiv_pos_as_xyz
  x,y,z

loop_
_atom_site_label
_atom_site_type_symbol
_atom_site_fract_x
_atom_site_fract_y
_atom_site_fract_z
_atom_site_charge
H 	H 	0.11760 0.99480 0.47290 0.06600
C 	C 	0.14630 0.06210 0.45330 0.51700
H 	H 	0.16120 0.05150 0.42940 -0.09600
H 	H 	0.14600 0.08520 0.44680 -0.06100
C 	C 	0.10540 0.04900 0.45320 0.36900
H 	H 	0.08790 0.06630 0.44500 -0.01900
H 	H 	0.10320 0.03220 0.43000 -0.06300
H 	H 	0.17630 0.01250 0.52710 0.07300
C 	C 	0.45124 0.98850 0.93860 0.36600
C 	C 	0.42103 0.98112 0.90310 -0.12400
C 	C 	0.40100 0.00584 0.88160 0.06700
H 	H 	0.40670 0.02720 0.88890 0.02800
C 	C 	0.37280 0.99932 0.84980 -0.14300
H 	H 	0.36010 0.01620 0.83530 0.08600
C 	C 	0.36326 0.96726 0.83930 0.09300
C 	C 	0.38330 0.94274 0.86040 -0.14300
H 	H 	0.37760 0.92120 0.85380 0.09000
C 	C 	0.41240 0.95043 0.89190 0.07000
H 	H 	0.42610 0.93370 0.90560 0.03100
C 	C 	0.33191 0.95918 0.80593 -0.03900
C 	C 	0.30690 0.93441 0.81520 0.02800
H 	H 	0.31010 0.92290 0.84250 0.00800
C 	C 	0.27392 0.94215 0.74880 0.03600
H 	H 	0.25420 0.93580 0.72910 0.00400
C 	C 	0.29631 0.96775 0.73579 -0.04500
C 	C 	0.32613 0.97592 0.76540 -0.02700
H 	H 	0.34240 0.99290 0.75770 0.04200
C 	C 	0.29060 0.98515 0.69007 0.10500
C 	C 	0.25439 0.98912 0.67150 -0.16400
H 	H 	0.23310 0.98070 0.68670 0.08900
C 	C 	0.24989 0.00551 0.63055 0.09800
H 	H 	0.22550 0.00780 0.61820 0.01200
C 	C 	0.28017 0.01837 0.60787 -0.16400
C 	C 	0.31604 0.01361 0.62440 0.10100
H 	H 	0.33700 0.02120 0.60790 0.01300
C 	C 	0.32153 0.99776 0.66500 -0.16500
H 	H 	0.34630 0.99520 0.67640 0.09100
C 	C 	0.27420 0.03812 0.56631 0.38300
C 	C 	0.25330 0.12143 0.44094 0.35700
C 	C 	0.24740 0.14960 0.40827 -0.13900
C 	C 	0.21320 0.15481 0.38640 0.08800
H 	H 	0.19260 0.14120 0.39230 0.01300
C 	C 	0.20900 0.17967 0.35610 -0.16700
H 	H 	0.18560 0.18290 0.34160 0.09100
C 	C 	0.23900 0.20001 0.34680 0.10700
C 	C 	0.27330 0.19538 0.37020 -0.16400
H 	H 	0.29380 0.20930 0.36510 0.09400
C 	C 	0.27680 0.17045 0.40050 0.08600
H 	H 	0.29970 0.16760 0.41630 0.01800
C 	C 	0.23685 0.22658 0.31134 -0.04300
C 	C 	0.25049 0.25723 0.32012 0.03200
H 	H 	0.26130 0.26130 0.34890 0.00400
C 	C 	0.23285 0.27521 0.24843 0.01500
H 	H 	0.23180 0.29190 0.22690 0.01400
C 	C 	0.21776 0.24554 0.23670 -0.03200
C 	C 	0.21965 0.22116 0.26940 -0.03300
H 	H 	0.20920 0.20100 0.26300 0.04400
C 	C 	0.20070 0.24012 0.19070 0.07900
C 	C 	0.17700 0.26254 0.16950 -0.12900
H 	H 	0.17300 0.28240 0.18380 0.07700
C 	C 	0.15900 0.25628 0.12720 0.05400
H 	H 	0.14330 0.27170 0.11340 0.02600
C 	C 	0.16506 0.22686 0.10690 -0.11500
C 	C 	0.18890 0.20365 0.12680 0.05000
H 	H 	0.19300 0.18390 0.11230 0.02700
C 	C 	0.20620 0.21069 0.16830 -0.13000
H 	H 	0.22210 0.19530 0.18180 0.07700
C 	C 	0.14330 0.21670 0.06379 0.36600
C 	C 	0.97834 0.03718 0.43605 0.37200
C 	C 	0.96584 0.05583 0.39457 -0.14300
C 	C 	0.93093 0.04997 0.37415 0.08300
H 	H 	0.91440 0.03490 0.38730 0.01600
C 	C 	0.92004 0.06587 0.33490 -0.16000
H 	H 	0.89660 0.06090 0.32150 0.08700
C 	C 	0.94276 0.08893 0.31487 0.10300
C 	C 	0.97760 0.09577 0.33570 -0.15500
H 	H 	0.99360 0.11160 0.32340 0.08600
C 	C 	0.98858 0.07897 0.37509 0.08000
H 	H 	0.01210 0.08360 0.38860 0.01700
C 	C 	0.93209 0.10568 0.27094 -0.04500
C 	C 	0.89439 0.11113 0.25905 0.03000
H 	H 	0.87530 0.10460 0.27950 0.00700
C 	C 	0.96022 0.11535 0.23850 -0.02700
H 	H 	0.98590 0.11170 0.24500 0.04000
C 	C 	0.95026 0.12994 0.19820 -0.04300
C 	C 	0.91137 0.13418 0.18950 0.02000
H 	H 	0.90410 0.14360 0.16170 0.00500
C 	C 	0.97825 0.14139 0.16450 0.10400
C 	C 	0.00880 0.12345 0.15140 -0.15800
H 	H 	0.01290 0.10340 0.16500 0.08700
C 	C 	0.03389 0.13430 0.11840 0.07000
H 	H 	0.05450 0.12140 0.10960 0.02000
C 	C 	0.02870 0.16452 0.09800 -0.12700
C 	C 	0.99790 0.18310 0.11140 0.07500
H 	H 	0.99400 0.20340 0.09860 0.01800
C 	C 	0.97343 0.17140 0.14360 -0.15800
H 	H 	0.95250 0.18400 0.15200 0.09100
C 	C 	0.05650 0.17647 0.06020 0.36700
C 	C 	0.82726 0.13403 0.02670 -0.11400
H 	H 	0.83680 0.11340 0.03790 0.04900
H 	H 	0.84420 0.15090 0.03790 0.04900
C 	C 	0.77520 0.17142 0.02671 -0.12300
H 	H 	0.79180 0.18850 0.03800 0.05100
H 	H 	0.74950 0.17550 0.03800 0.05100
C 	C 	0.76480 0.11320 0.02737 -0.11400
H 	H 	0.73880 0.11600 0.03870 0.04700
H 	H 	0.77430 0.09260 0.03870 0.04800
Cu	Cu	0.82860 0.13266 0.19857 0.72300
Cu	Cu	0.75748 0.11063 0.19252 0.72000
Cu	Cu	0.78785 0.13938 0.11713 0.72700
Cu	Cu	0.77007 0.17406 0.19302 0.72100
I 	I 	0.83336 0.18769 0.14358 -0.58400
I 	I 	0.78260 0.13984 0.27006 -0.59000
I 	I 	0.81372 0.08180 0.14346 -0.59400
I 	I 	0.71401 0.14942 0.13907 -0.58700
N 	N 	0.27860 0.92597 0.78752 -0.22300
N 	N 	0.24917 0.28125 0.29005 -0.21900
N 	N 	0.88390 0.12535 0.21947 -0.22000
N 	N 	0.78896 0.13944 0.04437 -0.15600
O 	O 	0.47017 0.96497 0.95248 -0.39600
O 	O 	0.45361 0.01779 0.95186 -0.39000
O 	O 	0.30336 0.05085 0.54839 -0.40800
O 	O 	0.24077 0.04073 0.54970 -0.40200
O 	O 	0.28705 0.11545 0.45354 -0.41000
O 	O 	0.22309 0.10607 0.45283 -0.38900
O 	O 	0.01090 0.04318 0.45165 -0.40200
O 	O 	0.95475 0.01656 0.45149 -0.40500
O 	O 	0.08172 0.15675 0.04675 -0.41600
O 	O 	0.05178 0.20497 0.04691 -0.42200
O 	O 	0.14969 0.18905 0.04806 -0.42200
O 	O 	0.12024 0.23752 0.04868 -0.41300
C 	C 	0.14100 0.08030 0.47350 -0.17300
H 	H 	0.15930 0.06530 0.46010 -0.22900
H 	H 	0.14390 0.10170 0.46010 0.11200
C 	C 	0.09860 0.06750 0.47290 -0.15900
H 	H 	0.08040 0.08260 0.45940 0.08700
H 	H 	0.09580 0.04610 0.45940 -0.18700
H 	H 	0.88240 0.00520 0.47290 0.06500
C 	C 	0.85370 0.93790 0.45330 0.51600
H 	H 	0.83880 0.94850 0.42940 -0.09700
H 	H 	0.85400 0.91480 0.44680 -0.06200
C 	C 	0.89460 0.95100 0.45320 0.36800
H 	H 	0.91210 0.93370 0.44500 -0.02000
H 	H 	0.89680 0.96780 0.43000 -0.06400
H 	H 	0.82370 0.98750 0.52710 0.07200
C 	C 	0.54876 0.01150 0.93860 0.36600
C 	C 	0.57897 0.01888 0.90310 -0.12400
C 	C 	0.59900 0.99416 0.88160 0.06700
H 	H 	0.59330 0.97280 0.88890 0.02800
C 	C 	0.62720 0.00068 0.84980 -0.14300
H 	H 	0.63990 0.98380 0.83530 0.08600
C 	C 	0.63674 0.03274 0.83930 0.09300
C 	C 	0.61670 0.05726 0.86040 -0.14300
H 	H 	0.62240 0.07880 0.85380 0.09000
C 	C 	0.58760 0.04957 0.89190 0.07000
H 	H 	0.57390 0.06630 0.90560 0.03100
C 	C 	0.66809 0.04082 0.80593 -0.03900
C 	C 	0.69310 0.06559 0.81520 0.02800
H 	H 	0.68990 0.07710 0.84250 0.00800
C 	C 	0.72608 0.05785 0.74880 0.03600
H 	H 	0.74580 0.06420 0.72910 0.00400
C 	C 	0.70369 0.03225 0.73579 -0.04500
C 	C 	0.67387 0.02408 0.76540 -0.02700
H 	H 	0.65760 0.00710 0.75770 0.04200
C 	C 	0.70940 0.01485 0.69007 0.10500
C 	C 	0.74561 0.01088 0.67150 -0.16400
H 	H 	0.76690 0.01930 0.68670 0.08900
C 	C 	0.75011 0.99449 0.63055 0.09800
H 	H 	0.77450 0.99220 0.61820 0.01200
C 	C 	0.71983 0.98163 0.60787 -0.16400
C 	C 	0.68396 0.98639 0.62440 0.10100
H 	H 	0.66300 0.97880 0.60790 0.01300
C 	C 	0.67847 0.00224 0.66500 -0.16500
H 	H 	0.65370 0.00480 0.67640 0.09100
C 	C 	0.72580 0.96188 0.56631 0.38300
C 	C 	0.74670 0.87857 0.44094 0.35700
C 	C 	0.75260 0.85040 0.40827 -0.13900
C 	C 	0.78680 0.84519 0.38640 0.08800
H 	H 	0.80740 0.85880 0.39230 0.01300
C 	C 	0.79100 0.82033 0.35610 -0.16700
H 	H 	0.81440 0.81710 0.34160 0.09100
C 	C 	0.76100 0.79999 0.34680 0.10700
C 	C 	0.72670 0.80462 0.37020 -0.16400
H 	H 	0.70620 0.79070 0.36510 0.09400
C 	C 	0.72320 0.82955 0.40050 0.08600
H 	H 	0.70030 0.83240 0.41630 0.01800
C 	C 	0.76315 0.77342 0.31134 -0.04300
C 	C 	0.74951 0.74277 0.32012 0.03200
H 	H 	0.73870 0.73870 0.34890 0.00400
C 	C 	0.76715 0.72479 0.24843 0.01500
H 	H 	0.76820 0.70810 0.22690 0.01400
C 	C 	0.78224 0.75446 0.23670 -0.03200
C 	C 	0.78035 0.77884 0.26940 -0.03300
H 	H 	0.79080 0.79900 0.26300 0.04400
C 	C 	0.79930 0.75988 0.19070 0.07900
C 	C 	0.82300 0.73746 0.16950 -0.12900
H 	H 	0.82700 0.71760 0.18380 0.07700
C 	C 	0.84100 0.74372 0.12720 0.05400
H 	H 	0.85670 0.72830 0.11340 0.02600
C 	C 	0.83494 0.77314 0.10690 -0.11500
C 	C 	0.81110 0.79635 0.12680 0.05000
H 	H 	0.80700 0.81610 0.11230 0.02700
C 	C 	0.79380 0.78931 0.16830 -0.13000
H 	H 	0.77790 0.80470 0.18180 0.07700
C 	C 	0.85670 0.78330 0.06379 0.36600
C 	C 	0.02166 0.96282 0.43605 0.37200
C 	C 	0.03416 0.94417 0.39457 -0.14300
C 	C 	0.06907 0.95003 0.37415 0.08300
H 	H 	0.08560 0.96510 0.38730 0.01600
C 	C 	0.07996 0.93413 0.33490 -0.16000
H 	H 	0.10340 0.93910 0.32150 0.08700
C 	C 	0.05724 0.91107 0.31487 0.10300
C 	C 	0.02240 0.90423 0.33570 -0.15500
H 	H 	0.00640 0.88840 0.32340 0.08600
C 	C 	0.01142 0.92103 0.37509 0.08000
H 	H 	0.98790 0.91640 0.38860 0.01700
C 	C 	0.06791 0.89432 0.27094 -0.04500
C 	C 	0.10561 0.88887 0.25905 0.03000
H 	H 	0.12470 0.89540 0.27950 0.00700
C 	C 	0.03978 0.88465 0.23850 -0.02700
H 	H 	0.01410 0.88830 0.24500 0.04000
C 	C 	0.04974 0.87006 0.19820 -0.04300
C 	C 	0.08863 0.86582 0.18950 0.02000
H 	H 	0.09590 0.85640 0.16170 0.00500
C 	C 	0.02175 0.85861 0.16450 0.10400
C 	C 	0.99120 0.87655 0.15140 -0.15800
H 	H 	0.98710 0.89660 0.16500 0.08700
C 	C 	0.96611 0.86570 0.11840 0.07000
H 	H 	0.94550 0.87860 0.10960 0.02000
C 	C 	0.97130 0.83548 0.09800 -0.12700
C 	C 	0.00210 0.81690 0.11140 0.07500
H 	H 	0.00600 0.79660 0.09860 0.01800
C 	C 	0.02657 0.82860 0.14360 -0.15800
H 	H 	0.04750 0.81600 0.15200 0.09100
C 	C 	0.94350 0.82353 0.06020 0.36700
C 	C 	0.17274 0.86597 0.02670 -0.11400
H 	H 	0.16320 0.88660 0.03790 0.04900
H 	H 	0.15580 0.84910 0.03790 0.04900
C 	C 	0.22480 0.82858 0.02671 -0.12300
H 	H 	0.20820 0.81150 0.03800 0.05100
H 	H 	0.25050 0.82450 0.03800 0.05100
C 	C 	0.23520 0.88680 0.02737 -0.11400
H 	H 	0.26120 0.88400 0.03870 0.04700
H 	H 	0.22570 0.90740 0.03870 0.04800
Cu	Cu	0.17140 0.86734 0.19857 0.72300
Cu	Cu	0.24252 0.88937 0.19252 0.72000
Cu	Cu	0.21215 0.86062 0.11713 0.72700
Cu	Cu	0.22993 0.82594 0.19302 0.72100
I 	I 	0.16664 0.81231 0.14358 -0.58400
I 	I 	0.21740 0.86016 0.27006 -0.59000
I 	I 	0.18628 0.91820 0.14346 -0.59400
I 	I 	0.28599 0.85058 0.13907 -0.58700
N 	N 	0.72140 0.07403 0.78752 -0.22300
N 	N 	0.75083 0.71875 0.29005 -0.21900
N 	N 	0.11610 0.87465 0.21947 -0.22000
N 	N 	0.21104 0.86056 0.04437 -0.15600
O 	O 	0.52983 0.03503 0.95248 -0.39600
O 	O 	0.54639 0.98221 0.95186 -0.39000
O 	O 	0.69664 0.94915 0.54839 -0.40800
O 	O 	0.75923 0.95927 0.54970 -0.40200
O 	O 	0.71295 0.88455 0.45354 -0.41000
O 	O 	0.77691 0.89393 0.45283 -0.38900
O 	O 	0.98910 0.95682 0.45165 -0.40200
O 	O 	0.04525 0.98344 0.45149 -0.40500
O 	O 	0.91828 0.84325 0.04675 -0.41600
O 	O 	0.94822 0.79503 0.04691 -0.42200
O 	O 	0.85031 0.81095 0.04806 -0.42200
O 	O 	0.87976 0.76248 0.04868 -0.41300
C 	C 	0.85900 0.91970 0.47350 -0.17300
H 	H 	0.84070 0.93470 0.46010 -0.22900
H 	H 	0.85610 0.89830 0.46010 0.11200
C 	C 	0.90140 0.93250 0.47290 -0.15900
H 	H 	0.91960 0.91740 0.45940 0.08700
H 	H 	0.90420 0.95390 0.45940 -0.18700
H 	H 	0.38240 0.49480 0.02710 0.07500
C 	C 	0.35370 0.56210 0.04670 0.48700
H 	H 	0.33880 0.55150 0.07060 -0.08700
H 	H 	0.35400 0.58520 0.05320 -0.06500
C 	C 	0.39460 0.54900 0.04680 0.35500
H 	H 	0.41210 0.56630 0.05500 0.00000
H 	H 	0.39680 0.53220 0.07000 -0.06700
H 	H 	0.32370 0.51250 0.97290 0.10700
C 	C 	0.04876 0.48850 0.56140 0.37000
C 	C 	0.07897 0.48112 0.59690 -0.13200
C 	C 	0.09900 0.50584 0.61840 0.07100
H 	H 	0.09330 0.52720 0.61110 0.02400
C 	C 	0.12720 0.49932 0.65020 -0.14800
H 	H 	0.13990 0.51620 0.66470 0.08600
C 	C 	0.13674 0.46726 0.66070 0.09500
C 	C 	0.11670 0.44274 0.63960 -0.14800
H 	H 	0.12240 0.42120 0.64620 0.09000
C 	C 	0.08760 0.45043 0.60810 0.07300
H 	H 	0.07390 0.43370 0.59440 0.02500
C 	C 	0.16809 0.45918 0.69407 -0.04100
C 	C 	0.19310 0.43441 0.68480 0.02800
H 	H 	0.18990 0.42290 0.65750 0.00600
C 	C 	0.22608 0.44215 0.75120 0.03500
H 	H 	0.24580 0.43580 0.77090 0.00500
C 	C 	0.20369 0.46775 0.76421 -0.04400
C 	C 	0.17387 0.47592 0.73460 -0.02700
H 	H 	0.15760 0.49290 0.74230 0.04200
C 	C 	0.20940 0.48515 0.80993 0.10300
C 	C 	0.24561 0.48912 0.82850 -0.16000
H 	H 	0.26690 0.48070 0.81330 0.08800
C 	C 	0.25011 0.50551 0.86945 0.09500
H 	H 	0.27450 0.50780 0.88180 0.01400
C 	C 	0.21983 0.51837 0.89213 -0.15700
C 	C 	0.18396 0.51361 0.87560 0.09700
H 	H 	0.16300 0.52120 0.89210 0.01900
C 	C 	0.17847 0.49776 0.83500 -0.16000
H 	H 	0.15370 0.49520 0.82360 0.09100
C 	C 	0.22580 0.53812 0.93369 0.37800
C 	C 	0.24670 0.62143 0.05906 0.35600
C 	C 	0.25260 0.64960 0.09173 -0.14400
C 	C 	0.28680 0.65481 0.11360 0.08900
H 	H 	0.30740 0.64120 0.10770 0.01100
C 	C 	0.29100 0.67967 0.14390 -0.17000
H 	H 	0.31440 0.68290 0.15840 0.09000
C 	C 	0.26100 0.70001 0.15320 0.10700
C 	C 	0.22670 0.69538 0.12980 -0.16700
H 	H 	0.20620 0.70930 0.13490 0.09300
C 	C 	0.22320 0.67045 0.09950 0.08800
H 	H 	0.20030 0.66760 0.08370 0.01300
C 	C 	0.26315 0.72658 0.18866 -0.04400
C 	C 	0.24951 0.75723 0.17988 0.03200
H 	H 	0.23870 0.76130 0.15110 0.00200
C 	C 	0.26715 0.77521 0.25157 0.01400
H 	H 	0.26820 0.79190 0.27310 0.01500
C 	C 	0.28224 0.74554 0.26330 -0.03100
C 	C 	0.28035 0.72116 0.23060 -0.03300
H 	H 	0.29080 0.70100 0.23700 0.04400
C 	C 	0.29930 0.74012 0.30930 0.07800
C 	C 	0.32300 0.76254 0.33050 -0.12600
H 	H 	0.32700 0.78240 0.31620 0.07700
C 	C 	0.34100 0.75628 0.37280 0.05100
H 	H 	0.35670 0.77170 0.38660 0.03100
C 	C 	0.33494 0.72686 0.39310 -0.11000
C 	C 	0.31110 0.70365 0.37320 0.04800
H 	H 	0.30700 0.68390 0.38770 0.03100
C 	C 	0.29380 0.71069 0.33170 -0.12700
H 	H 	0.27790 0.69530 0.31820 0.07800
C 	C 	0.35670 0.71670 0.43621 0.36500
C 	C 	0.52166 0.53718 0.06395 0.37300
C 	C 	0.53416 0.55583 0.10543 -0.14700
C 	C 	0.56907 0.54997 0.12585 0.08500
H 	H 	0.58560 0.53490 0.11270 0.01400
C 	C 	0.57996 0.56587 0.16510 -0.16200
H 	H 	0.60340 0.56090 0.17850 0.08700
C 	C 	0.55724 0.58893 0.18513 0.10400
C 	C 	0.52240 0.59577 0.16430 -0.15700
H 	H 	0.50640 0.61160 0.17660 0.08500
C 	C 	0.51142 0.57897 0.12491 0.08100
H 	H 	0.48790 0.58360 0.11140 0.01300
C 	C 	0.56791 0.60568 0.22906 -0.04500
C 	C 	0.60561 0.61113 0.24095 0.03000
H 	H 	0.62470 0.60460 0.22050 0.00600
C 	C 	0.53978 0.61535 0.26150 -0.02700
H 	H 	0.51410 0.61170 0.25500 0.04000
C 	C 	0.54974 0.62994 0.30180 -0.04200
C 	C 	0.58863 0.63418 0.31050 0.02000
H 	H 	0.59590 0.64360 0.33830 0.00700
C 	C 	0.52175 0.64139 0.33550 0.10200
C 	C 	0.49120 0.62345 0.34860 -0.15400
H 	H 	0.48710 0.60340 0.33500 0.08700
C 	C 	0.46611 0.63430 0.38160 0.06800
H 	H 	0.44550 0.62140 0.39040 0.02400
C 	C 	0.47130 0.66452 0.40200 -0.12100
C 	C 	0.50210 0.68310 0.38860 0.07300
H 	H 	0.50600 0.70340 0.40140 0.02300
C 	C 	0.52657 0.67140 0.35640 -0.15300
H 	H 	0.54750 0.68400 0.34800 0.09100
C 	C 	0.44350 0.67647 0.43980 0.36600
C 	C 	0.67274 0.63403 0.47330 -0.06000
H 	H 	0.66320 0.61340 0.46210 0.04100
H 	H 	0.65580 0.65090 0.46210 0.04000
C 	C 	0.72480 0.67142 0.47329 -0.06900
H 	H 	0.70820 0.68850 0.46200 0.04200
H 	H 	0.75050 0.67550 0.46200 0.04300
C 	C 	0.73520 0.61320 0.47263 -0.06500
H 	H 	0.76120 0.61600 0.46130 0.04000
H 	H 	0.72570 0.59260 0.46130 0.04100
Cu	Cu	0.67140 0.63266 0.30143 0.72300
Cu	Cu	0.74252 0.61063 0.30748 0.71900
Cu	Cu	0.71215 0.63938 0.38287 0.72600
Cu	Cu	0.72993 0.67406 0.30698 0.72100
I 	I 	0.66664 0.68769 0.35642 -0.57900
I 	I 	0.71740 0.63984 0.22994 -0.59500
I 	I 	0.68628 0.58180 0.35654 -0.58600
I 	I 	0.78599 0.64942 0.36093 -0.58000
N 	N 	0.22140 0.42597 0.71248 -0.22300
N 	N 	0.25083 0.78125 0.20995 -0.21900
N 	N 	0.61610 0.62535 0.28053 -0.22000
N 	N 	0.71104 0.63944 0.45563 -0.17000
O 	O 	0.02983 0.46497 0.54752 -0.41200
O 	O 	0.04639 0.51779 0.54814 -0.40600
O 	O 	0.19664 0.55085 0.95161 -0.39200
O 	O 	0.25923 0.54073 0.95030 -0.38700
O 	O 	0.21295 0.61545 0.04646 -0.41800
O 	O 	0.27691 0.60607 0.04717 -0.39500
O 	O 	0.48910 0.54318 0.04835 -0.41000
O 	O 	0.54525 0.51656 0.04851 -0.41200
O 	O 	0.41828 0.65675 0.45325 -0.40800
O 	O 	0.44822 0.70497 0.45309 -0.41400
O 	O 	0.35031 0.68905 0.45194 -0.41400
O 	O 	0.37976 0.73752 0.45132 -0.40500
C 	C 	0.35900 0.58030 0.02650 -0.12900
H 	H 	0.34070 0.56530 0.03990 -0.22300
H 	H 	0.35610 0.60170 0.03990 0.09300
C 	C 	0.40140 0.56750 0.02710 -0.24900
H 	H 	0.41960 0.58260 0.04060 0.09800
H 	H 	0.40420 0.54610 0.04060 -0.15100
H 	H 	0.61760 0.50520 0.02710 0.07500
C 	C 	0.64630 0.43790 0.04670 0.48700
H 	H 	0.66120 0.44850 0.07060 -0.08700
H 	H 	0.64600 0.41480 0.05320 -0.06500
C 	C 	0.60540 0.45100 0.04680 0.35500
H 	H 	0.58790 0.43370 0.05500 0.00000
H 	H 	0.60320 0.46780 0.07000 -0.06700
H 	H 	0.67630 0.48750 0.97290 0.10700
C 	C 	0.95124 0.51150 0.56140 0.37000
C 	C 	0.92103 0.51888 0.59690 -0.13200
C 	C 	0.90100 0.49416 0.61840 0.07100
H 	H 	0.90670 0.47280 0.61110 0.02400
C 	C 	0.87280 0.50068 0.65020 -0.14800
H 	H 	0.86010 0.48380 0.66470 0.08600
C 	C 	0.86326 0.53274 0.66070 0.09500
C 	C 	0.88330 0.55726 0.63960 -0.14800
H 	H 	0.87760 0.57880 0.64620 0.09000
C 	C 	0.91240 0.54957 0.60810 0.07300
H 	H 	0.92610 0.56630 0.59440 0.02500
C 	C 	0.83191 0.54082 0.69407 -0.04100
C 	C 	0.80690 0.56559 0.68480 0.02800
H 	H 	0.81010 0.57710 0.65750 0.00600
C 	C 	0.77392 0.55785 0.75120 0.03500
H 	H 	0.75420 0.56420 0.77090 0.00500
C 	C 	0.79631 0.53225 0.76421 -0.04400
C 	C 	0.82613 0.52408 0.73460 -0.02700
H 	H 	0.84240 0.50710 0.74230 0.04200
C 	C 	0.79060 0.51485 0.80993 0.10300
C 	C 	0.75439 0.51088 0.82850 -0.16000
H 	H 	0.73310 0.51930 0.81330 0.08800
C 	C 	0.74989 0.49449 0.86945 0.09500
H 	H 	0.72550 0.49220 0.88180 0.01400
C 	C 	0.78017 0.48163 0.89213 -0.15700
C 	C 	0.81604 0.48639 0.87560 0.09700
H 	H 	0.83700 0.47880 0.89210 0.01900
C 	C 	0.82153 0.50224 0.83500 -0.16000
H 	H 	0.84630 0.50480 0.82360 0.09100
C 	C 	0.77420 0.46188 0.93369 0.37800
C 	C 	0.75330 0.37857 0.05906 0.35600
C 	C 	0.74740 0.35040 0.09173 -0.14400
C 	C 	0.71320 0.34519 0.11360 0.08900
H 	H 	0.69260 0.35880 0.10770 0.01100
C 	C 	0.70900 0.32033 0.14390 -0.17000
H 	H 	0.68560 0.31710 0.15840 0.09000
C 	C 	0.73900 0.29999 0.15320 0.10700
C 	C 	0.77330 0.30462 0.12980 -0.16700
H 	H 	0.79380 0.29070 0.13490 0.09300
C 	C 	0.77680 0.32955 0.09950 0.08800
H 	H 	0.79970 0.33240 0.08370 0.01300
C 	C 	0.73685 0.27342 0.18866 -0.04400
C 	C 	0.75049 0.24277 0.17988 0.03200
H 	H 	0.76130 0.23870 0.15110 0.00200
C 	C 	0.73285 0.22479 0.25157 0.01400
H 	H 	0.73180 0.20810 0.27310 0.01500
C 	C 	0.71776 0.25446 0.26330 -0.03100
C 	C 	0.71965 0.27884 0.23060 -0.03300
H 	H 	0.70920 0.29900 0.23700 0.04400
C 	C 	0.70070 0.25988 0.30930 0.07800
C 	C 	0.67700 0.23746 0.33050 -0.12600
H 	H 	0.67300 0.21760 0.31620 0.07700
C 	C 	0.65900 0.24372 0.37280 0.05100
H 	H 	0.64330 0.22830 0.38660 0.03100
C 	C 	0.66506 0.27314 0.39310 -0.11000
C 	C 	0.68890 0.29635 0.37320 0.04800
H 	H 	0.69300 0.31610 0.38770 0.03100
C 	C 	0.70620 0.28931 0.33170 -0.12700
H 	H 	0.72210 0.30470 0.31820 0.07800
C 	C 	0.64330 0.28330 0.43621 0.36500
C 	C 	0.47834 0.46282 0.06395 0.37300
C 	C 	0.46584 0.44417 0.10543 -0.14700
C 	C 	0.43093 0.45003 0.12585 0.08500
H 	H 	0.41440 0.46510 0.11270 0.01400
C 	C 	0.42004 0.43413 0.16510 -0.16200
H 	H 	0.39660 0.43910 0.17850 0.08700
C 	C 	0.44276 0.41107 0.18513 0.10400
C 	C 	0.47760 0.40423 0.16430 -0.15700
H 	H 	0.49360 0.38840 0.17660 0.08500
C 	C 	0.48858 0.42103 0.12491 0.08100
H 	H 	0.51210 0.41640 0.11140 0.01300
C 	C 	0.43209 0.39432 0.22906 -0.04500
C 	C 	0.39439 0.38887 0.24095 0.03000
H 	H 	0.37530 0.39540 0.22050 0.00600
C 	C 	0.46022 0.38465 0.26150 -0.02700
H 	H 	0.48590 0.38830 0.25500 0.04000
C 	C 	0.45026 0.37006 0.30180 -0.04200
C 	C 	0.41137 0.36582 0.31050 0.02000
H 	H 	0.40410 0.35640 0.33830 0.00700
C 	C 	0.47825 0.35861 0.33550 0.10200
C 	C 	0.50880 0.37655 0.34860 -0.15400
H 	H 	0.51290 0.39660 0.33500 0.08700
C 	C 	0.53389 0.36570 0.38160 0.06800
H 	H 	0.55450 0.37860 0.39040 0.02400
C 	C 	0.52870 0.33548 0.40200 -0.12100
C 	C 	0.49790 0.31690 0.38860 0.07300
H 	H 	0.49400 0.29660 0.40140 0.02300
C 	C 	0.47343 0.32860 0.35640 -0.15300
H 	H 	0.45250 0.31600 0.34800 0.09100
C 	C 	0.55650 0.32353 0.43980 0.36600
C 	C 	0.32726 0.36597 0.47330 -0.06000
H 	H 	0.33680 0.38660 0.46210 0.04100
H 	H 	0.34420 0.34910 0.46210 0.04000
C 	C 	0.27520 0.32858 0.47329 -0.06900
H 	H 	0.29180 0.31150 0.46200 0.04200
H 	H 	0.24950 0.32450 0.46200 0.04300
C 	C 	0.26480 0.38680 0.47263 -0.06500
H 	H 	0.23880 0.38400 0.46130 0.04000
H 	H 	0.27430 0.40740 0.46130 0.04100
Cu	Cu	0.32860 0.36734 0.30143 0.72300
Cu	Cu	0.25748 0.38937 0.30748 0.71900
Cu	Cu	0.28785 0.36062 0.38287 0.72600
Cu	Cu	0.27007 0.32594 0.30698 0.72100
I 	I 	0.33336 0.31231 0.35642 -0.57900
I 	I 	0.28260 0.36016 0.22994 -0.59500
I 	I 	0.31372 0.41820 0.35654 -0.58600
I 	I 	0.21401 0.35058 0.36093 -0.58000
N 	N 	0.77860 0.57403 0.71248 -0.22300
N 	N 	0.74917 0.21875 0.20995 -0.21900
N 	N 	0.38390 0.37465 0.28053 -0.22000
N 	N 	0.28896 0.36056 0.45563 -0.17000
O 	O 	0.97017 0.53503 0.54752 -0.41200
O 	O 	0.95361 0.48221 0.54814 -0.40600
O 	O 	0.80336 0.44915 0.95161 -0.39200
O 	O 	0.74077 0.45927 0.95030 -0.38700
O 	O 	0.78705 0.38455 0.04646 -0.41800
O 	O 	0.72309 0.39393 0.04717 -0.39500
O 	O 	0.51090 0.45682 0.04835 -0.41000
O 	O 	0.45475 0.48344 0.04851 -0.41200
O 	O 	0.58172 0.34325 0.45325 -0.40800
O 	O 	0.55178 0.29503 0.45309 -0.41400
O 	O 	0.64969 0.31095 0.45194 -0.41400
O 	O 	0.62024 0.26248 0.45132 -0.40500
C 	C 	0.64100 0.41970 0.02650 -0.12900
H 	H 	0.65930 0.43470 0.03990 -0.22300
H 	H 	0.64390 0.39830 0.03990 0.09300
C 	C 	0.59860 0.43250 0.02710 -0.24900
H 	H 	0.58040 0.41740 0.04060 0.09800
H 	H 	0.59580 0.45390 0.04060 -0.15100
H 	H 	0.88240 0.00520 0.52710 0.06500
C 	C 	0.85370 0.93790 0.54670 0.51600
H 	H 	0.83880 0.94850 0.57060 -0.09600
H 	H 	0.85400 0.91480 0.55320 -0.06100
C 	C 	0.89460 0.95100 0.54680 0.36800
H 	H 	0.91210 0.93370 0.55500 -0.02000
H 	H 	0.89680 0.96780 0.57000 -0.06400
H 	H 	0.82370 0.98750 0.47290 0.07200
C 	C 	0.54876 0.01150 0.06140 0.37100
C 	C 	0.57897 0.01888 0.09690 -0.13800
C 	C 	0.59900 0.99416 0.11840 0.07300
H 	H 	0.59330 0.97280 0.11110 0.01900
C 	C 	0.62720 0.00068 0.15020 -0.15200
H 	H 	0.63990 0.98380 0.16470 0.08500
C 	C 	0.63674 0.03274 0.16070 0.09600
C 	C 	0.61670 0.05726 0.13960 -0.15300
H 	H 	0.62240 0.07880 0.14620 0.08900
C 	C 	0.58760 0.04957 0.10810 0.07500
H 	H 	0.57390 0.06630 0.09440 0.02000
C 	C 	0.66809 0.04082 0.19407 -0.04400
C 	C 	0.69310 0.06559 0.18480 0.02900
H 	H 	0.68990 0.07710 0.15750 0.00400
C 	C 	0.72608 0.05785 0.25120 0.03600
H 	H 	0.74580 0.06420 0.27090 0.00300
C 	C 	0.70369 0.03225 0.26421 -0.04700
C 	C 	0.67387 0.02408 0.23460 -0.02600
H 	H 	0.65760 0.00710 0.24230 0.04000
C 	C 	0.70940 0.01485 0.30993 0.10500
C 	C 	0.74561 0.01088 0.32850 -0.16400
H 	H 	0.76690 0.01930 0.31330 0.08800
C 	C 	0.75011 0.99449 0.36945 0.09800
H 	H 	0.77450 0.99220 0.38180 0.01100
C 	C 	0.71983 0.98163 0.39213 -0.16500
C 	C 	0.68396 0.98639 0.37560 0.10100
H 	H 	0.66300 0.97880 0.39210 0.01300
C 	C 	0.67847 0.00224 0.33500 -0.16500
H 	H 	0.65370 0.00480 0.32360 0.09000
C 	C 	0.72580 0.96188 0.43369 0.38300
C 	C 	0.74670 0.87857 0.55906 0.35700
C 	C 	0.75260 0.85040 0.59173 -0.13900
C 	C 	0.78680 0.84519 0.61360 0.08800
H 	H 	0.80740 0.85880 0.60770 0.01300
C 	C 	0.79100 0.82033 0.64390 -0.16700
H 	H 	0.81440 0.81710 0.65840 0.09100
C 	C 	0.76100 0.79999 0.65320 0.10700
C 	C 	0.72670 0.80462 0.62980 -0.16300
H 	H 	0.70620 0.79070 0.63490 0.09400
C 	C 	0.72320 0.82955 0.59950 0.08600
H 	H 	0.70030 0.83240 0.58370 0.01800
C 	C 	0.76315 0.77342 0.68866 -0.04100
C 	C 	0.74951 0.74277 0.67988 0.03200
H 	H 	0.73870 0.73870 0.65110 0.00400
C 	C 	0.76715 0.72479 0.75157 0.01400
H 	H 	0.76820 0.70810 0.77310 0.01700
C 	C 	0.78224 0.75446 0.76330 -0.02800
C 	C 	0.78035 0.77884 0.73060 -0.03500
H 	H 	0.79080 0.79900 0.73700 0.04500
C 	C 	0.79930 0.75988 0.80930 0.07700
C 	C 	0.82300 0.73746 0.83050 -0.12100
H 	H 	0.82700 0.71760 0.81620 0.07800
C 	C 	0.84100 0.74372 0.87280 0.04800
H 	H 	0.85670 0.72830 0.88660 0.03600
C 	C 	0.83494 0.77314 0.89310 -0.10300
C 	C 	0.81110 0.79635 0.87320 0.04500
H 	H 	0.80700 0.81610 0.88770 0.03600
C 	C 	0.79380 0.78931 0.83170 -0.12200
H 	H 	0.77790 0.80470 0.81820 0.07800
C 	C 	0.85670 0.78330 0.93621 0.36200
C 	C 	0.02166 0.96282 0.56395 0.37200
C 	C 	0.03416 0.94417 0.60543 -0.14200
C 	C 	0.06907 0.95003 0.62585 0.08300
H 	H 	0.08560 0.96510 0.61270 0.01600
C 	C 	0.07996 0.93413 0.66510 -0.15900
H 	H 	0.10340 0.93910 0.67850 0.08700
C 	C 	0.05724 0.91107 0.68513 0.10300
C 	C 	0.02240 0.90423 0.66430 -0.15400
H 	H 	0.00640 0.88840 0.67660 0.08600
C 	C 	0.01142 0.92103 0.62491 0.08000
H 	H 	0.98790 0.91640 0.61140 0.01700
C 	C 	0.06791 0.89432 0.72906 -0.04300
C 	C 	0.10561 0.88887 0.74095 0.03000
H 	H 	0.12470 0.89540 0.72050 0.00700
C 	C 	0.03978 0.88465 0.76150 -0.02800
H 	H 	0.01410 0.88830 0.75500 0.04200
C 	C 	0.04974 0.87006 0.80180 -0.03800
C 	C 	0.08863 0.86582 0.81050 0.01900
H 	H 	0.09590 0.85640 0.83830 0.00900
C 	C 	0.02175 0.85861 0.83550 0.10000
C 	C 	0.99120 0.87655 0.84860 -0.14800
H 	H 	0.98710 0.89660 0.83500 0.08800
C 	C 	0.96611 0.86570 0.88160 0.06400
H 	H 	0.94550 0.87860 0.89040 0.02900
C 	C 	0.97130 0.83548 0.90200 -0.11300
C 	C 	0.00210 0.81690 0.88860 0.06900
H 	H 	0.00600 0.79660 0.90140 0.02800
C 	C 	0.02657 0.82860 0.85640 -0.14800
H 	H 	0.04750 0.81600 0.84800 0.09200
C 	C 	0.94350 0.82353 0.93980 0.36300
C 	C 	0.17274 0.86597 0.97330 -0.00600
H 	H 	0.16320 0.88660 0.96210 0.03200
H 	H 	0.15580 0.84910 0.96210 0.03200
C 	C 	0.22480 0.82858 0.97329 -0.01500
H 	H 	0.20820 0.81150 0.96200 0.03400
H 	H 	0.25050 0.82450 0.96200 0.03400
C 	C 	0.23520 0.88680 0.97263 -0.01600
H 	H 	0.26120 0.88400 0.96130 0.03300
H 	H 	0.22570 0.90740 0.96130 0.03400
Cu	Cu	0.17140 0.86734 0.80143 0.72300
Cu	Cu	0.24252 0.88937 0.80748 0.71900
Cu	Cu	0.21215 0.86062 0.88287 0.72600
Cu	Cu	0.22993 0.82594 0.80698 0.72100
I 	I 	0.16664 0.81231 0.85642 -0.57200
I 	I 	0.21740 0.86016 0.72994 -0.59000
I 	I 	0.18628 0.91820 0.85654 -0.57800
I 	I 	0.28599 0.85058 0.86093 -0.57100
N 	N 	0.72140 0.07403 0.21248 -0.22400
N 	N 	0.75083 0.71875 0.70995 -0.21800
N 	N 	0.11610 0.87465 0.78053 -0.21900
N 	N 	0.21104 0.86056 0.95563 -0.18400
O 	O 	0.52983 0.03503 0.04752 -0.42100
O 	O 	0.54639 0.98221 0.04814 -0.41500
O 	O 	0.69664 0.94915 0.45161 -0.40900
O 	O 	0.75923 0.95927 0.45030 -0.40200
O 	O 	0.71295 0.88455 0.54646 -0.41000
O 	O 	0.77691 0.89393 0.54717 -0.38800
O 	O 	0.98910 0.95682 0.54835 -0.40200
O 	O 	0.04525 0.98344 0.54851 -0.40500
O 	O 	0.91828 0.84325 0.95325 -0.39100
O 	O 	0.94822 0.79503 0.95309 -0.39800
O 	O 	0.85031 0.81095 0.95194 -0.39700
O 	O 	0.87976 0.76248 0.95132 -0.38800
C 	C 	0.85900 0.91970 0.52650 -0.17200
H 	H 	0.84070 0.93470 0.53990 -0.22900
H 	H 	0.85610 0.89830 0.53990 0.11200
C 	C 	0.90140 0.93250 0.52710 -0.15900
H 	H 	0.91960 0.91740 0.54060 0.08700
H 	H 	0.90420 0.95390 0.54060 -0.18600
H 	H 	0.11760 0.99480 0.52710 0.06500
C 	C 	0.14630 0.06210 0.54670 0.51600
H 	H 	0.16120 0.05150 0.57060 -0.09600
H 	H 	0.14600 0.08520 0.55320 -0.06100
C 	C 	0.10540 0.04900 0.54680 0.36800
H 	H 	0.08790 0.06630 0.55500 -0.02000
H 	H 	0.10320 0.03220 0.57000 -0.06400
H 	H 	0.17630 0.01250 0.47290 0.07200
C 	C 	0.45124 0.98850 0.06140 0.37100
C 	C 	0.42103 0.98112 0.09690 -0.13800
C 	C 	0.40100 0.00584 0.11840 0.07300
H 	H 	0.40670 0.02720 0.11110 0.01900
C 	C 	0.37280 0.99932 0.15020 -0.15200
H 	H 	0.36010 0.01620 0.16470 0.08500
C 	C 	0.36326 0.96726 0.16070 0.09600
C 	C 	0.38330 0.94274 0.13960 -0.15300
H 	H 	0.37760 0.92120 0.14620 0.08900
C 	C 	0.41240 0.95043 0.10810 0.07500
H 	H 	0.42610 0.93370 0.09440 0.02000
C 	C 	0.33191 0.95918 0.19407 -0.04400
C 	C 	0.30690 0.93441 0.18480 0.02900
H 	H 	0.31010 0.92290 0.15750 0.00400
C 	C 	0.27392 0.94215 0.25120 0.03600
H 	H 	0.25420 0.93580 0.27090 0.00300
C 	C 	0.29631 0.96775 0.26421 -0.04700
C 	C 	0.32613 0.97592 0.23460 -0.02600
H 	H 	0.34240 0.99290 0.24230 0.04000
C 	C 	0.29060 0.98515 0.30993 0.10500
C 	C 	0.25439 0.98912 0.32850 -0.16400
H 	H 	0.23310 0.98070 0.31330 0.08800
C 	C 	0.24989 0.00551 0.36945 0.09800
H 	H 	0.22550 0.00780 0.38180 0.01100
C 	C 	0.28017 0.01837 0.39213 -0.16500
C 	C 	0.31604 0.01361 0.37560 0.10100
H 	H 	0.33700 0.02120 0.39210 0.01300
C 	C 	0.32153 0.99776 0.33500 -0.16500
H 	H 	0.34630 0.99520 0.32360 0.09000
C 	C 	0.27420 0.03812 0.43369 0.38300
C 	C 	0.25330 0.12143 0.55906 0.35700
C 	C 	0.24740 0.14960 0.59173 -0.13900
C 	C 	0.21320 0.15481 0.61360 0.08800
H 	H 	0.19260 0.14120 0.60770 0.01300
C 	C 	0.20900 0.17967 0.64390 -0.16700
H 	H 	0.18560 0.18290 0.65840 0.09100
C 	C 	0.23900 0.20001 0.65320 0.10700
C 	C 	0.27330 0.19538 0.62980 -0.16300
H 	H 	0.29380 0.20930 0.63490 0.09400
C 	C 	0.27680 0.17045 0.59950 0.08600
H 	H 	0.29970 0.16760 0.58370 0.01800
C 	C 	0.23685 0.22658 0.68866 -0.04100
C 	C 	0.25049 0.25723 0.67988 0.03200
H 	H 	0.26130 0.26130 0.65110 0.00400
C 	C 	0.23285 0.27521 0.75157 0.01400
H 	H 	0.23180 0.29190 0.77310 0.01700
C 	C 	0.21776 0.24554 0.76330 -0.02800
C 	C 	0.21965 0.22116 0.73060 -0.03500
H 	H 	0.20920 0.20100 0.73700 0.04500
C 	C 	0.20070 0.24012 0.80930 0.07700
C 	C 	0.17700 0.26254 0.83050 -0.12100
H 	H 	0.17300 0.28240 0.81620 0.07800
C 	C 	0.15900 0.25628 0.87280 0.04800
H 	H 	0.14330 0.27170 0.88660 0.03600
C 	C 	0.16506 0.22686 0.89310 -0.10300
C 	C 	0.18890 0.20365 0.87320 0.04500
H 	H 	0.19300 0.18390 0.88770 0.03600
C 	C 	0.20620 0.21069 0.83170 -0.12200
H 	H 	0.22210 0.19530 0.81820 0.07800
C 	C 	0.14330 0.21670 0.93621 0.36200
C 	C 	0.97834 0.03718 0.56395 0.37200
C 	C 	0.96584 0.05583 0.60543 -0.14200
C 	C 	0.93093 0.04997 0.62585 0.08300
H 	H 	0.91440 0.03490 0.61270 0.01600
C 	C 	0.92004 0.06587 0.66510 -0.15900
H 	H 	0.89660 0.06090 0.67850 0.08700
C 	C 	0.94276 0.08893 0.68513 0.10300
C 	C 	0.97760 0.09577 0.66430 -0.15400
H 	H 	0.99360 0.11160 0.67660 0.08600
C 	C 	0.98858 0.07897 0.62491 0.08000
H 	H 	0.01210 0.08360 0.61140 0.01700
C 	C 	0.93209 0.10568 0.72906 -0.04300
C 	C 	0.89439 0.11113 0.74095 0.03000
H 	H 	0.87530 0.10460 0.72050 0.00700
C 	C 	0.96022 0.11535 0.76150 -0.02800
H 	H 	0.98590 0.11170 0.75500 0.04200
C 	C 	0.95026 0.12994 0.80180 -0.03800
C 	C 	0.91137 0.13418 0.81050 0.01900
H 	H 	0.90410 0.14360 0.83830 0.00900
C 	C 	0.97825 0.14139 0.83550 0.10000
C 	C 	0.00880 0.12345 0.84860 -0.14800
H 	H 	0.01290 0.10340 0.83500 0.08800
C 	C 	0.03389 0.13430 0.88160 0.06400
H 	H 	0.05450 0.12140 0.89040 0.02900
C 	C 	0.02870 0.16452 0.90200 -0.11300
C 	C 	0.99790 0.18310 0.88860 0.06900
H 	H 	0.99400 0.20340 0.90140 0.02800
C 	C 	0.97343 0.17140 0.85640 -0.14800
H 	H 	0.95250 0.18400 0.84800 0.09200
C 	C 	0.05650 0.17647 0.93980 0.36300
C 	C 	0.82726 0.13403 0.97330 -0.00600
H 	H 	0.83680 0.11340 0.96210 0.03200
H 	H 	0.84420 0.15090 0.96210 0.03200
C 	C 	0.77520 0.17142 0.97329 -0.01500
H 	H 	0.79180 0.18850 0.96200 0.03400
H 	H 	0.74950 0.17550 0.96200 0.03400
C 	C 	0.76480 0.11320 0.97263 -0.01600
H 	H 	0.73880 0.11600 0.96130 0.03300
H 	H 	0.77430 0.09260 0.96130 0.03400
Cu	Cu	0.82860 0.13266 0.80143 0.72300
Cu	Cu	0.75748 0.11063 0.80748 0.71900
Cu	Cu	0.78785 0.13938 0.88287 0.72600
Cu	Cu	0.77007 0.17406 0.80698 0.72100
I 	I 	0.83336 0.18769 0.85642 -0.57200
I 	I 	0.78260 0.13984 0.72994 -0.59000
I 	I 	0.81372 0.08180 0.85654 -0.57800
I 	I 	0.71401 0.14942 0.86093 -0.57100
N 	N 	0.27860 0.92597 0.21248 -0.22400
N 	N 	0.24917 0.28125 0.70995 -0.21800
N 	N 	0.88390 0.12535 0.78053 -0.21900
N 	N 	0.78896 0.13944 0.95563 -0.18400
O 	O 	0.47017 0.96497 0.04752 -0.42100
O 	O 	0.45361 0.01779 0.04814 -0.41500
O 	O 	0.30336 0.05085 0.45161 -0.40900
O 	O 	0.24077 0.04073 0.45030 -0.40200
O 	O 	0.28705 0.11545 0.54646 -0.41000
O 	O 	0.22309 0.10607 0.54717 -0.38800
O 	O 	0.01090 0.04318 0.54835 -0.40200
O 	O 	0.95475 0.01656 0.54851 -0.40500
O 	O 	0.08172 0.15675 0.95325 -0.39100
O 	O 	0.05178 0.20497 0.95309 -0.39800
O 	O 	0.14969 0.18905 0.95194 -0.39700
O 	O 	0.12024 0.23752 0.95132 -0.38800
C 	C 	0.14100 0.08030 0.52650 -0.17200
H 	H 	0.15930 0.06530 0.53990 -0.22900
H 	H 	0.14390 0.10170 0.53990 0.11200
C 	C 	0.09860 0.06750 0.52710 -0.15900
H 	H 	0.08040 0.08260 0.54060 0.08700
H 	H 	0.09580 0.04610 0.54060 -0.18600
H 	H 	0.61760 0.50520 0.97290 0.10100
C 	C 	0.64630 0.43790 0.95330 0.54700
H 	H 	0.66120 0.44850 0.92940 -0.10400
H 	H 	0.64600 0.41480 0.94680 -0.06400
C 	C 	0.60540 0.45100 0.95320 0.38500
H 	H 	0.58790 0.43370 0.94500 -0.04600
H 	H 	0.60320 0.46780 0.93000 -0.05900
H 	H 	0.67630 0.48750 0.02710 0.08100
C 	C 	0.95124 0.51150 0.43860 0.37000
C 	C 	0.92103 0.51888 0.40310 -0.13200
C 	C 	0.90100 0.49416 0.38160 0.07100
H 	H 	0.90670 0.47280 0.38890 0.02300
C 	C 	0.87280 0.50068 0.34980 -0.14800
H 	H 	0.86010 0.48380 0.33530 0.08500
C 	C 	0.86326 0.53274 0.33930 0.09500
C 	C 	0.88330 0.55726 0.36040 -0.14900
H 	H 	0.87760 0.57880 0.35380 0.08900
C 	C 	0.91240 0.54957 0.39190 0.07300
H 	H 	0.92610 0.56630 0.40560 0.02500
C 	C 	0.83191 0.54082 0.30593 -0.04200
C 	C 	0.80690 0.56559 0.31520 0.02900
H 	H 	0.81010 0.57710 0.34250 0.00600
C 	C 	0.77392 0.55785 0.24880 0.03600
H 	H 	0.75420 0.56420 0.22910 0.00200
C 	C 	0.79631 0.53225 0.23579 -0.04800
C 	C 	0.82613 0.52408 0.26540 -0.02600
H 	H 	0.84240 0.50710 0.25770 0.04000
C 	C 	0.79060 0.51485 0.19007 0.10600
C 	C 	0.75439 0.51088 0.17150 -0.16700
H 	H 	0.73310 0.51930 0.18670 0.08900
C 	C 	0.74989 0.49449 0.13055 0.10100
H 	H 	0.72550 0.49220 0.11820 0.00900
C 	C 	0.78017 0.48163 0.10787 -0.17000
C 	C 	0.81604 0.48639 0.12440 0.10400
H 	H 	0.83700 0.47880 0.10790 0.00900
C 	C 	0.82153 0.50224 0.16500 -0.16900
H 	H 	0.84630 0.50480 0.17640 0.09000
C 	C 	0.77420 0.46188 0.06631 0.38400
C 	C 	0.75330 0.37857 0.94094 0.35500
C 	C 	0.74740 0.35040 0.90827 -0.13200
C 	C 	0.71320 0.34519 0.88640 0.08500
H 	H 	0.69260 0.35880 0.89230 0.01600
C 	C 	0.70900 0.32033 0.85610 -0.16200
H 	H 	0.68560 0.31710 0.84160 0.09100
C 	C 	0.73900 0.29999 0.84680 0.10500
C 	C 	0.77330 0.30462 0.87020 -0.15800
H 	H 	0.79380 0.29070 0.86510 0.09500
C 	C 	0.77680 0.32955 0.90050 0.08300
H 	H 	0.79970 0.33240 0.91630 0.02400
C 	C 	0.73685 0.27342 0.81134 -0.04000
C 	C 	0.75049 0.24277 0.82012 0.03100
H 	H 	0.76130 0.23870 0.84890 0.00600
C 	C 	0.73285 0.22479 0.74843 0.01500
H 	H 	0.73180 0.20810 0.72690 0.01500
C 	C 	0.71776 0.25446 0.73670 -0.02900
C 	C 	0.71965 0.27884 0.76940 -0.03500
H 	H 	0.70920 0.29900 0.76300 0.04500
C 	C 	0.70070 0.25988 0.69070 0.07800
C 	C 	0.67700 0.23746 0.66950 -0.12600
H 	H 	0.67300 0.21760 0.68380 0.07800
C 	C 	0.65900 0.24372 0.62720 0.05200
H 	H 	0.64330 0.22830 0.61340 0.03100
C 	C 	0.66506 0.27314 0.60690 -0.11000
C 	C 	0.68890 0.29635 0.62680 0.04800
H 	H 	0.69300 0.31610 0.61230 0.03200
C 	C 	0.70620 0.28931 0.66830 -0.12600
H 	H 	0.72210 0.30470 0.68180 0.07800
C 	C 	0.64330 0.28330 0.56379 0.36500
C 	C 	0.47834 0.46282 0.93605 0.36900
C 	C 	0.46584 0.44417 0.89457 -0.13600
C 	C 	0.43093 0.45003 0.87415 0.08100
H 	H 	0.41440 0.46510 0.88730 0.01800
C 	C 	0.42004 0.43413 0.83490 -0.15600
H 	H 	0.39660 0.43910 0.82150 0.08600
C 	C 	0.44276 0.41107 0.81487 0.10200
C 	C 	0.47760 0.40423 0.83570 -0.15100
H 	H 	0.49360 0.38840 0.82340 0.08600
C 	C 	0.48858 0.42103 0.87509 0.07700
H 	H 	0.51210 0.41640 0.88860 0.02100
C 	C 	0.43209 0.39432 0.77094 -0.04200
C 	C 	0.39439 0.38887 0.75905 0.03000
H 	H 	0.37530 0.39540 0.77950 0.00800
C 	C 	0.46022 0.38465 0.73850 -0.02800
H 	H 	0.48590 0.38830 0.74500 0.04100
C 	C 	0.45026 0.37006 0.69820 -0.04000
C 	C 	0.41137 0.36582 0.68950 0.02000
H 	H 	0.40410 0.35640 0.66170 0.00700
C 	C 	0.47825 0.35861 0.66450 0.10200
C 	C 	0.50880 0.37655 0.65140 -0.15300
H 	H 	0.51290 0.39660 0.66500 0.08800
C 	C 	0.53389 0.36570 0.61840 0.06800
H 	H 	0.55450 0.37860 0.60960 0.02400
C 	C 	0.52870 0.33548 0.59800 -0.12100
C 	C 	0.49790 0.31690 0.61140 0.07300
H 	H 	0.49400 0.29660 0.59860 0.02300
C 	C 	0.47343 0.32860 0.64360 -0.15300
H 	H 	0.45250 0.31600 0.65200 0.09200
C 	C 	0.55650 0.32353 0.56020 0.36600
C 	C 	0.32726 0.36597 0.52670 -0.06000
H 	H 	0.33680 0.38660 0.53790 0.04100
H 	H 	0.34420 0.34910 0.53790 0.04000
C 	C 	0.27520 0.32858 0.52671 -0.06900
H 	H 	0.29180 0.31150 0.53800 0.04200
H 	H 	0.24950 0.32450 0.53800 0.04300
C 	C 	0.26480 0.38680 0.52737 -0.06500
H 	H 	0.23880 0.38400 0.53870 0.04000
H 	H 	0.27430 0.40740 0.53870 0.04100
Cu	Cu	0.32860 0.36734 0.69857 0.72300
Cu	Cu	0.25748 0.38937 0.69252 0.71900
Cu	Cu	0.28785 0.36062 0.61713 0.72600
Cu	Cu	0.27007 0.32594 0.69302 0.72100
I 	I 	0.33336 0.31231 0.64358 -0.57700
I 	I 	0.28260 0.36016 0.77006 -0.58400
I 	I 	0.31372 0.41820 0.64346 -0.58600
I 	I 	0.21401 0.35058 0.63907 -0.57900
N 	N 	0.77860 0.57403 0.28752 -0.22300
N 	N 	0.74917 0.21875 0.79005 -0.21800
N 	N 	0.38390 0.37465 0.71947 -0.21900
N 	N 	0.28896 0.36056 0.54437 -0.17000
O 	O 	0.97017 0.53503 0.45248 -0.41200
O 	O 	0.95361 0.48221 0.45186 -0.40600
O 	O 	0.80336 0.44915 0.04839 -0.41700
O 	O 	0.74077 0.45927 0.04970 -0.40900
O 	O 	0.78705 0.38455 0.95354 -0.39400
O 	O 	0.72309 0.39393 0.95283 -0.37400
O 	O 	0.51090 0.45682 0.95165 -0.38500
O 	O 	0.45475 0.48344 0.95149 -0.39000
O 	O 	0.58172 0.34325 0.54675 -0.40800
O 	O 	0.55178 0.29503 0.54691 -0.41400
O 	O 	0.64969 0.31095 0.54806 -0.41300
O 	O 	0.62024 0.26248 0.54868 -0.40500
C 	C 	0.64100 0.41970 0.97350 -0.20800
H 	H 	0.65930 0.43470 0.96010 -0.22500
H 	H 	0.64390 0.39830 0.96010 0.13200
C 	C 	0.59860 0.43250 0.97290 -0.06300
H 	H 	0.58040 0.41740 0.95940 0.07700
H 	H 	0.59580 0.45390 0.95940 -0.21200
H 	H 	0.38240 0.49480 0.97290 0.10100
C 	C 	0.35370 0.56210 0.95330 0.54700
H 	H 	0.33880 0.55150 0.92940 -0.10400
H 	H 	0.35400 0.58520 0.94680 -0.06400
C 	C 	0.39460 0.54900 0.95320 0.38500
H 	H 	0.41210 0.56630 0.94500 -0.04600
H 	H 	0.39680 0.53220 0.93000 -0.05900
H 	H 	0.32370 0.51250 0.02710 0.08100
C 	C 	0.04876 0.48850 0.43860 0.37000
C 	C 	0.07897 0.48112 0.40310 -0.13200
C 	C 	0.09900 0.50584 0.38160 0.07100
H 	H 	0.09330 0.52720 0.38890 0.02300
C 	C 	0.12720 0.49932 0.34980 -0.14800
H 	H 	0.13990 0.51620 0.33530 0.08500
C 	C 	0.13674 0.46726 0.33930 0.09500
C 	C 	0.11670 0.44274 0.36040 -0.14900
H 	H 	0.12240 0.42120 0.35380 0.08900
C 	C 	0.08760 0.45043 0.39190 0.07300
H 	H 	0.07390 0.43370 0.40560 0.02500
C 	C 	0.16809 0.45918 0.30593 -0.04200
C 	C 	0.19310 0.43441 0.31520 0.02900
H 	H 	0.18990 0.42290 0.34250 0.00600
C 	C 	0.22608 0.44215 0.24880 0.03600
H 	H 	0.24580 0.43580 0.22910 0.00200
C 	C 	0.20369 0.46775 0.23579 -0.04800
C 	C 	0.17387 0.47592 0.26540 -0.02600
H 	H 	0.15760 0.49290 0.25770 0.04000
C 	C 	0.20940 0.48515 0.19007 0.10600
C 	C 	0.24561 0.48912 0.17150 -0.16700
H 	H 	0.26690 0.48070 0.18670 0.08900
C 	C 	0.25011 0.50551 0.13055 0.10100
H 	H 	0.27450 0.50780 0.11820 0.00900
C 	C 	0.21983 0.51837 0.10787 -0.17000
C 	C 	0.18396 0.51361 0.12440 0.10400
H 	H 	0.16300 0.52120 0.10790 0.00900
C 	C 	0.17847 0.49776 0.16500 -0.16900
H 	H 	0.15370 0.49520 0.17640 0.09000
C 	C 	0.22580 0.53812 0.06631 0.38400
C 	C 	0.24670 0.62143 0.94094 0.35500
C 	C 	0.25260 0.64960 0.90827 -0.13200
C 	C 	0.28680 0.65481 0.88640 0.08500
H 	H 	0.30740 0.64120 0.89230 0.01600
C 	C 	0.29100 0.67967 0.85610 -0.16200
H 	H 	0.31440 0.68290 0.84160 0.09100
C 	C 	0.26100 0.70001 0.84680 0.10500
C 	C 	0.22670 0.69538 0.87020 -0.15800
H 	H 	0.20620 0.70930 0.86510 0.09500
C 	C 	0.22320 0.67045 0.90050 0.08300
H 	H 	0.20030 0.66760 0.91630 0.02400
C 	C 	0.26315 0.72658 0.81134 -0.04000
C 	C 	0.24951 0.75723 0.82012 0.03100
H 	H 	0.23870 0.76130 0.84890 0.00600
C 	C 	0.26715 0.77521 0.74843 0.01500
H 	H 	0.26820 0.79190 0.72690 0.01500
C 	C 	0.28224 0.74554 0.73670 -0.02900
C 	C 	0.28035 0.72116 0.76940 -0.03500
H 	H 	0.29080 0.70100 0.76300 0.04500
C 	C 	0.29930 0.74012 0.69070 0.07800
C 	C 	0.32300 0.76254 0.66950 -0.12600
H 	H 	0.32700 0.78240 0.68380 0.07800
C 	C 	0.34100 0.75628 0.62720 0.05200
H 	H 	0.35670 0.77170 0.61340 0.03100
C 	C 	0.33494 0.72686 0.60690 -0.11000
C 	C 	0.31110 0.70365 0.62680 0.04800
H 	H 	0.30700 0.68390 0.61230 0.03200
C 	C 	0.29380 0.71069 0.66830 -0.12600
H 	H 	0.27790 0.69530 0.68180 0.07800
C 	C 	0.35670 0.71670 0.56379 0.36500
C 	C 	0.52166 0.53718 0.93605 0.36900
C 	C 	0.53416 0.55583 0.89457 -0.13600
C 	C 	0.56907 0.54997 0.87415 0.08100
H 	H 	0.58560 0.53490 0.88730 0.01800
C 	C 	0.57996 0.56587 0.83490 -0.15600
H 	H 	0.60340 0.56090 0.82150 0.08600
C 	C 	0.55724 0.58893 0.81487 0.10200
C 	C 	0.52240 0.59577 0.83570 -0.15100
H 	H 	0.50640 0.61160 0.82340 0.08600
C 	C 	0.51142 0.57897 0.87509 0.07700
H 	H 	0.48790 0.58360 0.88860 0.02100
C 	C 	0.56791 0.60568 0.77094 -0.04200
C 	C 	0.60561 0.61113 0.75905 0.03000
H 	H 	0.62470 0.60460 0.77950 0.00800
C 	C 	0.53978 0.61535 0.73850 -0.02800
H 	H 	0.51410 0.61170 0.74500 0.04100
C 	C 	0.54974 0.62994 0.69820 -0.04000
C 	C 	0.58863 0.63418 0.68950 0.02000
H 	H 	0.59590 0.64360 0.66170 0.00700
C 	C 	0.52175 0.64139 0.66450 0.10200
C 	C 	0.49120 0.62345 0.65140 -0.15300
H 	H 	0.48710 0.60340 0.66500 0.08800
C 	C 	0.46611 0.63430 0.61840 0.06800
H 	H 	0.44550 0.62140 0.60960 0.02400
C 	C 	0.47130 0.66452 0.59800 -0.12100
C 	C 	0.50210 0.68310 0.61140 0.07300
H 	H 	0.50600 0.70340 0.59860 0.02300
C 	C 	0.52657 0.67140 0.64360 -0.15300
H 	H 	0.54750 0.68400 0.65200 0.09200
C 	C 	0.44350 0.67647 0.56020 0.36600
C 	C 	0.67274 0.63403 0.52670 -0.06000
H 	H 	0.66320 0.61340 0.53790 0.04100
H 	H 	0.65580 0.65090 0.53790 0.04000
C 	C 	0.72480 0.67142 0.52671 -0.06900
H 	H 	0.70820 0.68850 0.53800 0.04200
H 	H 	0.75050 0.67550 0.53800 0.04300
C 	C 	0.73520 0.61320 0.52737 -0.06500
H 	H 	0.76120 0.61600 0.53870 0.04000
H 	H 	0.72570 0.59260 0.53870 0.04100
Cu	Cu	0.67140 0.63266 0.69857 0.72300
Cu	Cu	0.74252 0.61063 0.69252 0.71900
Cu	Cu	0.71215 0.63938 0.61713 0.72600
Cu	Cu	0.72993 0.67406 0.69302 0.72100
I 	I 	0.66664 0.68769 0.64358 -0.57700
I 	I 	0.71740 0.63984 0.77006 -0.58400
I 	I 	0.68628 0.58180 0.64346 -0.58600
I 	I 	0.78599 0.64942 0.63907 -0.57900
N 	N 	0.22140 0.42597 0.28752 -0.22300
N 	N 	0.25083 0.78125 0.79005 -0.21800
N 	N 	0.61610 0.62535 0.71947 -0.21900
N 	N 	0.71104 0.63944 0.54437 -0.17000
O 	O 	0.02983 0.46497 0.45248 -0.41200
O 	O 	0.04639 0.51779 0.45186 -0.40600
O 	O 	0.19664 0.55085 0.04839 -0.41700
O 	O 	0.25923 0.54073 0.04970 -0.40900
O 	O 	0.21295 0.61545 0.95354 -0.39400
O 	O 	0.27691 0.60607 0.95283 -0.37400
O 	O 	0.48910 0.54318 0.95165 -0.38500
O 	O 	0.54525 0.51656 0.95149 -0.39000
O 	O 	0.41828 0.65675 0.54675 -0.40800
O 	O 	0.44822 0.70497 0.54691 -0.41400
O 	O 	0.35031 0.68905 0.54806 -0.41300
O 	O 	0.37976 0.73752 0.54868 -0.40500
C 	C 	0.35900 0.58030 0.97350 -0.20800
H 	H 	0.34070 0.56530 0.96010 -0.22500
H 	H 	0.35610 0.60170 0.96010 0.13200
C 	C 	0.40140 0.56750 0.97290 -0.06300
H 	H 	0.41960 0.58260 0.95940 0.07700
H 	H 	0.40420 0.54610 0.95940 -0.21200
C 	C 	0.12180 0.00809 0.50000 -0.10200
C 	C 	0.16310 0.02063 0.50000 -0.12400
Cu	Cu	0.30037 0.08384 0.50000 0.91000
Cu	Cu	0.22510 0.07135 0.50000 0.91800
Cu	Cu	0.03411 0.01564 0.50000 0.91700
N 	N 	0.16450 0.05616 0.50000 -0.12900
N 	N 	0.09424 0.03526 0.50000 -0.13100
C 	C 	0.87820 0.99191 0.50000 -0.10200
C 	C 	0.83690 0.97937 0.50000 -0.12400
Cu	Cu	0.69963 0.91616 0.50000 0.91000
Cu	Cu	0.77490 0.92865 0.50000 0.91800
Cu	Cu	0.96589 0.98436 0.50000 0.91700
N 	N 	0.83550 0.94384 0.50000 -0.12900
N 	N 	0.90576 0.96474 0.50000 -0.13100
C 	C 	0.37820 0.50809 -0.00000 -0.15200
C 	C 	0.33690 0.52063 -0.00000 -0.17300
Cu	Cu	0.19963 0.58384 -0.00000 0.89500
Cu	Cu	0.27490 0.57135 -0.00000 0.90400
Cu	Cu	0.46589 0.51564 -0.00000 0.90300
N 	N 	0.33550 0.55616 -0.00000 -0.14100
N 	N 	0.40576 0.53526 -0.00000 -0.14200
C 	C 	0.62180 0.49191 -0.00000 -0.15200
C 	C 	0.66310 0.47937 -0.00000 -0.17300
Cu	Cu	0.80037 0.41616 -0.00000 0.89500
Cu	Cu	0.72510 0.42865 -0.00000 0.90400
Cu	Cu	0.53411 0.48436 -0.00000 0.90300
N 	N 	0.66450 0.44384 -0.00000 -0.14100
N 	N 	0.59424 0.46474 -0.00000 -0.14200
Cu	Cu	0.50997 0.96920 -0.00000 0.88800
Cu	Cu	0.49003 0.03080 -0.00000 0.88800
Cu	Cu	0.99003 0.46920 0.50000 0.90300
Cu	Cu	0.00997 0.53080 0.50000 0.90300
Cu	Cu	0.11861 0.16926 -0.00000 0.89400
Cu	Cu	0.08325 0.22577 -0.00000 0.88900
Cu	Cu	0.88139 0.83074 -0.00000 0.89400
Cu	Cu	0.91675 0.77423 -0.00000 0.88900
Cu	Cu	0.38139 0.66926 0.50000 0.90900
Cu	Cu	0.41675 0.72577 0.50000 0.90400
Cu	Cu	0.61861 0.33074 0.50000 0.90900
Cu	Cu	0.58325 0.27423 0.50000 0.90400
