data_crystal

_cell_length_a 17.47900
_cell_length_b 25.11700
_cell_length_c 26.60700
_cell_angle_alpha 90.00000
_cell_angle_beta  90.00000
_cell_angle_gamma 90.00000

_symmetry_space_group_name_	'P 1'
_symmetry_space_group_name_H-M	'P 1'

loop_
_symmetry_equiv_pos_as_xyz
  x,y,z

loop_
_atom_site_label
_atom_site_type_symbol
_atom_site_fract_x
_atom_site_fract_y
_atom_site_fract_z
_atom_site_charge
Zn	Zn	0.73911 0.92099 0.82898 1.17100
Zn	Zn	0.28033 0.27965 0.80042 1.21200
Zn	Zn	0.43485 0.21029 0.83719 1.21200
Zn	Zn	0.93414 0.27862 0.96167 1.20800
Zn	Zn	0.90131 0.95437 0.90562 1.19700
Zn	Zn	0.77920 0.34888 0.92537 1.21500
Zn	Zn	0.31820 0.60356 0.85337 1.16200
Zn	Zn	0.23911 0.07901 0.17102 1.17300
Zn	Zn	0.78033 0.72035 0.19958 1.21100
Zn	Zn	0.93485 0.78971 0.16281 1.20700
Zn	Zn	0.43414 0.72138 0.03833 1.21400
Zn	Zn	0.40131 0.04563 0.09438 1.20000
Zn	Zn	0.27920 0.65112 0.07463 1.21600
Zn	Zn	0.81820 0.39644 0.14663 1.16200
Zn	Zn	0.73911 0.42099 0.67102 1.17200
Zn	Zn	0.28033 0.77965 0.69958 1.21300
Zn	Zn	0.43485 0.71029 0.66281 1.21300
Zn	Zn	0.93414 0.77862 0.53833 1.20900
Zn	Zn	0.90131 0.45437 0.59438 1.19800
Zn	Zn	0.77920 0.84888 0.57463 1.21600
Zn	Zn	0.31820 0.10356 0.64663 1.16300
Zn	Zn	0.23911 0.57901 0.32898 1.17400
Zn	Zn	0.78033 0.22035 0.30042 1.21200
Zn	Zn	0.93485 0.28971 0.33719 1.20800
Zn	Zn	0.43414 0.22138 0.46167 1.21400
Zn	Zn	0.40131 0.54563 0.40562 1.20000
Zn	Zn	0.27920 0.15112 0.42537 1.21600
Zn	Zn	0.81820 0.89644 0.35337 1.16200
H 	H 	0.37820 0.43720 0.83610 0.01400
H 	H 	0.56860 0.49760 0.89200 0.01800
H 	H 	0.55570 0.34090 0.87120 0.02800
H 	H 	0.16140 0.23940 0.92460 0.03500
H 	H 	0.14500 0.16390 0.05820 0.00900
H 	H 	0.33810 0.15470 0.97580 0.01800
H 	H 	0.05530 0.32470 0.83970 -0.01900
H 	H 	0.87140 0.39800 0.78210 -0.04600
H 	H 	0.06190 0.38060 0.70070 -0.03500
H 	H 	0.84310 0.12120 0.91340 0.00900
H 	H 	0.64660 0.06230 0.86250 -0.00200
H 	H 	0.66490 0.21810 0.88960 0.02500
H 	H 	0.24890 0.25660 0.66940 0.24300
H 	H 	0.22740 0.19860 0.65300 0.19700
H 	H 	0.18840 0.22410 0.70030 0.23800
H 	H 	0.47600 0.11370 0.77440 0.31200
H 	H 	0.42380 0.07650 0.74170 0.30500
H 	H 	0.48430 0.11340 0.71570 0.31300
H 	H 	0.68030 0.40160 0.02750 0.25200
H 	H 	0.72360 0.43790 0.06600 0.22100
H 	H 	0.73700 0.44530 0.00820 0.26700
H 	H 	0.98000 0.29060 0.07320 0.26900
H 	H 	0.95810 0.32930 0.11720 0.26600
H 	H 	0.91530 0.27480 0.11110 0.26500
H 	H 	0.87820 0.56280 0.16390 -0.00700
H 	H 	0.06860 0.50240 0.10800 -0.00300
H 	H 	0.05570 0.65910 0.12880 0.00800
H 	H 	0.66140 0.76060 0.07540 0.03000
H 	H 	0.64500 0.83610 0.94180 0.00300
H 	H 	0.83810 0.84530 0.02420 0.01300
H 	H 	0.55530 0.67530 0.16030 0.00700
H 	H 	0.37140 0.60200 0.21790 -0.02200
H 	H 	0.56190 0.61940 0.29930 -0.01000
H 	H 	0.34310 0.87880 0.08660 0.01400
H 	H 	0.14660 0.93770 0.13750 0.00400
H 	H 	0.16490 0.78190 0.11040 0.03000
H 	H 	0.74890 0.74340 0.33060 0.23700
H 	H 	0.72740 0.80140 0.34700 0.19100
H 	H 	0.68840 0.77590 0.29970 0.23100
H 	H 	0.97600 0.88630 0.22560 0.29200
H 	H 	0.92380 0.92350 0.25830 0.29100
H 	H 	0.98430 0.88660 0.28430 0.29800
H 	H 	0.18030 0.59840 0.97250 0.26000
H 	H 	0.22360 0.56210 0.93400 0.22900
H 	H 	0.23700 0.55470 0.99180 0.27500
H 	H 	0.48000 0.70940 0.92680 0.28600
H 	H 	0.45810 0.67070 0.88280 0.27700
H 	H 	0.41530 0.72520 0.88890 0.27700
H 	H 	0.37820 0.93720 0.66390 0.01400
H 	H 	0.56860 0.99760 0.60800 0.01900
H 	H 	0.55570 0.84090 0.62880 0.02800
H 	H 	0.16140 0.73940 0.57540 0.03500
H 	H 	0.14500 0.66390 0.44180 0.00900
H 	H 	0.33810 0.65470 0.52420 0.01900
H 	H 	0.05530 0.82470 0.66030 -0.01900
H 	H 	0.87140 0.89800 0.71790 -0.04600
H 	H 	0.06190 0.88060 0.79930 -0.03500
H 	H 	0.84310 0.62120 0.58660 0.00900
H 	H 	0.64660 0.56230 0.63750 -0.00200
H 	H 	0.66490 0.71810 0.61040 0.02500
H 	H 	0.24890 0.75660 0.83060 0.24300
H 	H 	0.22740 0.69860 0.84700 0.19800
H 	H 	0.18840 0.72410 0.79970 0.23800
H 	H 	0.47600 0.61370 0.72560 0.31200
H 	H 	0.42380 0.57650 0.75830 0.30500
H 	H 	0.48430 0.61340 0.78430 0.31300
H 	H 	0.68030 0.90160 0.47250 0.25200
H 	H 	0.72360 0.93790 0.43400 0.22200
H 	H 	0.73700 0.94530 0.49180 0.26800
H 	H 	0.98000 0.79060 0.42680 0.26900
H 	H 	0.95810 0.82930 0.38280 0.26500
H 	H 	0.91530 0.77480 0.38890 0.26500
H 	H 	0.87820 0.06280 0.33610 -0.00700
H 	H 	0.06860 0.00240 0.39200 -0.00200
H 	H 	0.05570 0.15910 0.37120 0.00800
H 	H 	0.66140 0.26060 0.42460 0.03000
H 	H 	0.64500 0.33610 0.55820 0.00300
H 	H 	0.83810 0.34530 0.47580 0.01300
H 	H 	0.55530 0.17530 0.33970 0.00700
H 	H 	0.37140 0.10200 0.28210 -0.02200
H 	H 	0.56190 0.11940 0.20070 -0.01000
H 	H 	0.34310 0.37880 0.41340 0.01500
H 	H 	0.14660 0.43770 0.36250 0.00400
H 	H 	0.16490 0.28190 0.38960 0.03000
H 	H 	0.74890 0.24340 0.16940 0.23700
H 	H 	0.72740 0.30140 0.15300 0.19100
H 	H 	0.68840 0.27590 0.20030 0.23100
H 	H 	0.97600 0.38630 0.27440 0.29200
H 	H 	0.92380 0.42350 0.24170 0.29200
H 	H 	0.98430 0.38660 0.21570 0.29800
H 	H 	0.18030 0.09840 0.52750 0.26000
H 	H 	0.22360 0.06210 0.56600 0.22900
H 	H 	0.23700 0.05470 0.50820 0.27500
H 	H 	0.48000 0.20940 0.57320 0.28500
H 	H 	0.45810 0.17070 0.61720 0.27600
H 	H 	0.41530 0.22520 0.61110 0.27700
C 	C 	0.41560 0.33440 0.83380 0.41000
C 	C 	0.45720 0.38060 0.84820 -0.18600
C 	C 	0.42770 0.43230 0.84810 0.10500
C 	C 	0.46680 0.47620 0.86440 -0.17800
C 	C 	0.43240 0.52950 0.86390 0.37600
C 	C 	0.54020 0.46830 0.88160 0.08000
C 	C 	0.57360 0.41770 0.88390 -0.14800
C 	C 	0.65630 0.41130 0.90280 0.35800
C 	C 	0.53390 0.37460 0.86860 0.07900
C 	C 	0.30160 0.21390 0.89800 0.42300
C 	C 	0.25750 0.19900 0.94450 -0.16600
C 	C 	0.18300 0.21800 0.94940 0.08200
C 	C 	0.14130 0.20440 0.99230 -0.14300
C 	C 	0.05840 0.22300 0.99620 0.38300
C 	C 	0.17340 0.17300 0.03000 0.08900
C 	C 	0.24810 0.15560 0.02480 -0.17200
C 	C 	0.28240 0.11920 0.06500 0.44700
C 	C 	0.28900 0.16810 0.98030 0.10000
C 	C 	0.15110 0.33100 0.76570 0.44800
C 	C 	0.06990 0.35020 0.76850 -0.28600
C 	C 	0.03080 0.34180 0.81310 0.24600
C 	C 	0.95700 0.35830 0.81850 -0.30600
C 	C 	0.91390 0.35000 0.86670 0.48200
C 	C 	0.92080 0.38500 0.77830 0.22200
C 	C 	0.95880 0.39170 0.73320 -0.34400
C 	C 	0.91960 0.41560 0.68990 0.53600
C 	C 	0.03480 0.37470 0.73020 0.26800
C 	C 	0.80580 0.22570 0.92330 0.42400
C 	C 	0.76190 0.17800 0.90500 -0.17600
C 	C 	0.79290 0.12660 0.90300 0.11400
C 	C 	0.75080 0.08360 0.88580 -0.20500
C 	C 	0.78460 0.02900 0.88300 0.46200
C 	C 	0.67580 0.09120 0.87280 0.10600
C 	C 	0.64260 0.14160 0.87490 -0.15600
C 	C 	0.55800 0.15030 0.86210 0.35900
C 	C 	0.68630 0.18430 0.88970 0.09000
C 	C 	0.23490 0.22180 0.68120 -0.78000
C 	C 	0.29830 0.20000 0.71420 0.25500
C 	C 	0.39290 0.15210 0.73960 0.35800
C 	C 	0.44890 0.11050 0.74310 -1.01500
C 	C 	0.72740 0.41990 0.03430 -0.84200
C 	C 	0.79140 0.38060 0.03620 0.28400
C 	C 	0.88140 0.32970 0.06090 0.32100
C 	C 	0.93870 0.30380 0.09340 -0.89300
C 	C 	0.91560 0.66560 0.16620 0.43500
C 	C 	0.95720 0.61940 0.15180 -0.26000
C 	C 	0.92770 0.56770 0.15190 0.16300
C 	C 	0.96680 0.52380 0.13560 -0.25900
C 	C 	0.93240 0.47050 0.13610 0.40300
C 	C 	0.04020 0.53170 0.11840 0.17100
C 	C 	0.07360 0.58230 0.11610 -0.20000
C 	C 	0.15630 0.58870 0.09720 0.37700
C 	C 	0.03390 0.62540 0.13140 0.16300
C 	C 	0.80160 0.78610 0.10200 0.42500
C 	C 	0.75750 0.80100 0.05550 -0.17300
C 	C 	0.68300 0.78200 0.05060 0.08600
C 	C 	0.64130 0.79560 0.00770 -0.15200
C 	C 	0.55840 0.77700 0.00380 0.38700
C 	C 	0.67340 0.82700 0.97000 0.09400
C 	C 	0.74810 0.84440 0.97520 -0.17900
C 	C 	0.78240 0.88080 0.93500 0.44800
C 	C 	0.78900 0.83190 0.01970 0.10400
C 	C 	0.65110 0.66900 0.23430 0.42200
C 	C 	0.56990 0.64980 0.23150 -0.22200
C 	C 	0.53080 0.65820 0.18690 0.14600
C 	C 	0.45700 0.64170 0.18150 -0.22200
C 	C 	0.41390 0.65000 0.13330 0.45600
C 	C 	0.42080 0.61500 0.22170 0.15700
C 	C 	0.45880 0.60830 0.26680 -0.26000
C 	C 	0.41960 0.58440 0.31010 0.50700
C 	C 	0.53480 0.62530 0.26980 0.16900
C 	C 	0.30580 0.77430 0.07670 0.42200
C 	C 	0.26190 0.82200 0.09500 -0.16900
C 	C 	0.29290 0.87340 0.09700 0.11000
C 	C 	0.25080 0.91640 0.11420 -0.19700
C 	C 	0.28460 0.97100 0.11700 0.46200
C 	C 	0.17580 0.90880 0.12720 0.10200
C 	C 	0.14260 0.85840 0.12510 -0.14600
C 	C 	0.05800 0.84970 0.13790 0.35600
C 	C 	0.18630 0.81570 0.11030 0.08500
C 	C 	0.73490 0.77820 0.31880 -0.76700
C 	C 	0.79830 0.80000 0.28580 0.25000
C 	C 	0.89290 0.84790 0.26040 0.34500
C 	C 	0.94890 0.88950 0.25690 -0.98100
C 	C 	0.22740 0.58010 0.96570 -0.85800
C 	C 	0.29140 0.61940 0.96380 0.29100
C 	C 	0.38140 0.67030 0.93910 0.33100
C 	C 	0.43870 0.69620 0.90660 -0.91800
C 	C 	0.41560 0.83440 0.66620 0.41000
C 	C 	0.45720 0.88060 0.65180 -0.18600
C 	C 	0.42770 0.93230 0.65190 0.10400
C 	C 	0.46680 0.97620 0.63560 -0.17700
C 	C 	0.43240 0.02950 0.63610 0.37500
C 	C 	0.54020 0.96830 0.61840 0.08000
C 	C 	0.57360 0.91770 0.61610 -0.14800
C 	C 	0.65630 0.91130 0.59720 0.35800
C 	C 	0.53390 0.87460 0.63140 0.07900
C 	C 	0.30160 0.71390 0.60200 0.42300
C 	C 	0.25750 0.69900 0.55550 -0.16600
C 	C 	0.18300 0.71800 0.55060 0.08200
C 	C 	0.14130 0.70440 0.50770 -0.14200
C 	C 	0.05840 0.72300 0.50380 0.38300
C 	C 	0.17340 0.67300 0.47000 0.08900
C 	C 	0.24810 0.65560 0.47520 -0.17200
C 	C 	0.28240 0.61920 0.43500 0.44700
C 	C 	0.28900 0.66810 0.51970 0.10000
C 	C 	0.15110 0.83100 0.73430 0.44800
C 	C 	0.06990 0.85020 0.73150 -0.28700
C 	C 	0.03080 0.84180 0.68690 0.24800
C 	C 	0.95700 0.85830 0.68150 -0.30800
C 	C 	0.91390 0.85000 0.63330 0.48300
C 	C 	0.92080 0.88500 0.72170 0.22300
C 	C 	0.95880 0.89170 0.76680 -0.34600
C 	C 	0.91960 0.91560 0.81010 0.53700
C 	C 	0.03480 0.87470 0.76980 0.27000
C 	C 	0.80580 0.72570 0.57670 0.42400
C 	C 	0.76190 0.67800 0.59500 -0.17600
C 	C 	0.79290 0.62660 0.59700 0.11400
C 	C 	0.75080 0.58360 0.61420 -0.20500
C 	C 	0.78460 0.52900 0.61700 0.46200
C 	C 	0.67580 0.59120 0.62720 0.10600
C 	C 	0.64260 0.64160 0.62510 -0.15600
C 	C 	0.55800 0.65030 0.63790 0.35900
C 	C 	0.68630 0.68430 0.61030 0.09000
C 	C 	0.23490 0.72180 0.81880 -0.78000
C 	C 	0.29830 0.70000 0.78580 0.25500
C 	C 	0.39290 0.65210 0.76040 0.35900
C 	C 	0.44890 0.61050 0.75690 -1.01500
C 	C 	0.72740 0.91990 0.46570 -0.84300
C 	C 	0.79140 0.88060 0.46380 0.28500
C 	C 	0.88140 0.82970 0.43910 0.32100
C 	C 	0.93870 0.80380 0.40660 -0.89200
C 	C 	0.91560 0.16560 0.33380 0.43400
C 	C 	0.95720 0.11940 0.34820 -0.25800
C 	C 	0.92770 0.06770 0.34810 0.16100
C 	C 	0.96680 0.02380 0.36440 -0.25600
C 	C 	0.93240 0.97050 0.36390 0.40200
C 	C 	0.04020 0.03170 0.38160 0.16800
C 	C 	0.07360 0.08230 0.38390 -0.19800
C 	C 	0.15630 0.08870 0.40280 0.37700
C 	C 	0.03390 0.12540 0.36860 0.16000
C 	C 	0.80160 0.28610 0.39800 0.42500
C 	C 	0.75750 0.30100 0.44450 -0.17400
C 	C 	0.68300 0.28200 0.44940 0.08700
C 	C 	0.64130 0.29560 0.49230 -0.15200
C 	C 	0.55840 0.27700 0.49620 0.38700
C 	C 	0.67340 0.32700 0.53000 0.09400
C 	C 	0.74810 0.34440 0.52480 -0.18000
C 	C 	0.78240 0.38080 0.56500 0.44800
C 	C 	0.78900 0.33190 0.48030 0.10500
C 	C 	0.65110 0.16900 0.26570 0.42200
C 	C 	0.56990 0.14980 0.26850 -0.22200
C 	C 	0.53080 0.15820 0.31310 0.14600
C 	C 	0.45700 0.14170 0.31850 -0.22200
C 	C 	0.41390 0.15000 0.36670 0.45600
C 	C 	0.42080 0.11500 0.27830 0.15700
C 	C 	0.45880 0.10830 0.23320 -0.26000
C 	C 	0.41960 0.08440 0.18990 0.50700
C 	C 	0.53480 0.12530 0.23020 0.16900
C 	C 	0.30580 0.27430 0.42330 0.42200
C 	C 	0.26190 0.32200 0.40500 -0.16900
C 	C 	0.29290 0.37340 0.40300 0.11000
C 	C 	0.25080 0.41640 0.38580 -0.19700
C 	C 	0.28460 0.47100 0.38300 0.46100
C 	C 	0.17580 0.40880 0.37280 0.10200
C 	C 	0.14260 0.35840 0.37490 -0.14600
C 	C 	0.05800 0.34970 0.36210 0.35600
C 	C 	0.18630 0.31570 0.38970 0.08500
C 	C 	0.73490 0.27820 0.18120 -0.76700
C 	C 	0.79830 0.30000 0.21420 0.25000
C 	C 	0.89290 0.34790 0.23960 0.34500
C 	C 	0.94890 0.38950 0.24310 -0.98100
C 	C 	0.22740 0.08010 0.53430 -0.85700
C 	C 	0.29140 0.11940 0.53620 0.29100
C 	C 	0.38140 0.17030 0.56090 0.33100
C 	C 	0.43870 0.19620 0.59340 -0.91800
N 	N 	0.32090 0.22120 0.75630 -0.29700
N 	N 	0.38230 0.19040 0.77320 -0.31800
N 	N 	0.34060 0.15680 0.70210 -0.38400
N 	N 	0.81760 0.35580 0.99560 -0.29900
N 	N 	0.87690 0.32320 0.01210 -0.30900
N 	N 	0.82800 0.36440 0.07740 -0.38000
N 	N 	0.82090 0.77880 0.24370 -0.29800
N 	N 	0.88230 0.80960 0.22680 -0.31800
N 	N 	0.84060 0.84320 0.29790 -0.38100
N 	N 	0.31760 0.64420 0.00440 -0.30000
N 	N 	0.37690 0.67680 0.98790 -0.30700
N 	N 	0.32800 0.63560 0.92260 -0.38200
N 	N 	0.32090 0.72120 0.74370 -0.29700
N 	N 	0.38230 0.69040 0.72680 -0.31800
N 	N 	0.34060 0.65680 0.79790 -0.38400
N 	N 	0.81760 0.85580 0.50440 -0.30000
N 	N 	0.87690 0.82320 0.48790 -0.30800
N 	N 	0.82800 0.86440 0.42260 -0.38000
N 	N 	0.82090 0.27880 0.25630 -0.29800
N 	N 	0.88230 0.30960 0.27320 -0.31800
N 	N 	0.84060 0.34320 0.20210 -0.38100
N 	N 	0.31760 0.14420 0.49560 -0.29900
N 	N 	0.37690 0.17680 0.51210 -0.30700
N 	N 	0.32800 0.13560 0.57740 -0.38200
O 	O 	0.34720 0.34000 0.81560 -0.48500
O 	O 	0.44750 0.28930 0.83450 -0.50400
O 	O 	0.36270 0.53290 0.85010 -0.51600
O 	O 	0.46890 0.56940 0.87560 -0.36800
O 	O 	0.67460 0.36270 0.91020 -0.47500
O 	O 	0.69760 0.44880 0.90950 -0.34700
O 	O 	0.26840 0.24030 0.86640 -0.50600
O 	O 	0.37010 0.19600 0.89590 -0.49100
O 	O 	0.03920 0.25880 0.96660 -0.46900
O 	O 	0.01940 0.20340 0.02890 -0.33400
O 	O 	0.34580 0.09660 0.05330 -0.51800
O 	O 	0.25080 0.11790 0.10580 -0.54400
O 	O 	0.17500 0.30060 0.79770 -0.50400
O 	O 	0.19070 0.34490 0.72960 -0.35400
O 	O 	0.94700 0.32520 0.90160 -0.53000
O 	O 	0.84820 0.36760 0.87100 -0.52800
O 	O 	0.95600 0.42330 0.65110 -0.56200
O 	O 	0.85120 0.42670 0.69300 -0.57900
O 	O 	0.87310 0.21780 0.93800 -0.50100
O 	O 	0.77360 0.26950 0.91800 -0.51100
O 	O 	0.85210 0.02350 0.89930 -0.52900
O 	O 	0.74530 0.99320 0.86540 -0.53500
O 	O 	0.51540 0.11050 0.85950 -0.34200
O 	O 	0.53930 0.19660 0.85070 -0.48500
O 	O 	0.84720 0.66000 0.18440 -0.49300
O 	O 	0.94750 0.71070 0.16550 -0.52200
O 	O 	0.86270 0.46710 0.14990 -0.52400
O 	O 	0.96890 0.43060 0.12440 -0.38300
O 	O 	0.17460 0.63730 0.08980 -0.47700
O 	O 	0.19760 0.55120 0.09050 -0.34800
O 	O 	0.76840 0.75970 0.13360 -0.51000
O 	O 	0.87010 0.80400 0.10410 -0.49900
O 	O 	0.53920 0.74120 0.03340 -0.48700
O 	O 	0.51940 0.79660 0.97110 -0.35100
O 	O 	0.84580 0.90340 0.94670 -0.52300
O 	O 	0.75080 0.88210 0.89420 -0.54800
O 	O 	0.67500 0.69940 0.20230 -0.50000
O 	O 	0.69070 0.65510 0.27040 -0.35100
O 	O 	0.44700 0.67480 0.09840 -0.51300
O 	O 	0.34820 0.63240 0.12900 -0.51800
O 	O 	0.45600 0.57670 0.34890 -0.54400
O 	O 	0.35120 0.57330 0.30700 -0.56700
O 	O 	0.37310 0.78220 0.06200 -0.49200
O 	O 	0.27360 0.73050 0.08200 -0.50800
O 	O 	0.35210 0.97650 0.10070 -0.52300
O 	O 	0.24530 0.00680 0.13460 -0.53200
O 	O 	0.01540 0.88950 0.14050 -0.32400
O 	O 	0.03930 0.80340 0.14930 -0.46700
O 	O 	0.34720 0.84000 0.68440 -0.48400
O 	O 	0.44750 0.78930 0.66550 -0.50400
O 	O 	0.36270 0.03290 0.64990 -0.51600
O 	O 	0.46890 0.06940 0.62440 -0.36800
O 	O 	0.67460 0.86270 0.58980 -0.47600
O 	O 	0.69760 0.94880 0.59050 -0.34700
O 	O 	0.26840 0.74030 0.63360 -0.50600
O 	O 	0.37010 0.69600 0.60410 -0.49100
O 	O 	0.03920 0.75880 0.53340 -0.46900
O 	O 	0.01940 0.70340 0.47110 -0.33400
O 	O 	0.34580 0.59660 0.44670 -0.51700
O 	O 	0.25080 0.61790 0.39420 -0.54400
O 	O 	0.17500 0.80060 0.70230 -0.50400
O 	O 	0.19070 0.84490 0.77040 -0.35400
O 	O 	0.94700 0.82520 0.59840 -0.53100
O 	O 	0.84820 0.86760 0.62900 -0.52800
O 	O 	0.95600 0.92330 0.84890 -0.56300
O 	O 	0.85120 0.92670 0.80700 -0.57900
O 	O 	0.87310 0.71780 0.56200 -0.50100
O 	O 	0.77360 0.76950 0.58200 -0.51200
O 	O 	0.85210 0.52350 0.60070 -0.52900
O 	O 	0.74530 0.49320 0.63460 -0.53500
O 	O 	0.51540 0.61050 0.64050 -0.34200
O 	O 	0.53930 0.69660 0.64930 -0.48500
O 	O 	0.84720 0.16000 0.31560 -0.49300
O 	O 	0.94750 0.21070 0.33450 -0.52200
O 	O 	0.86270 0.96710 0.35010 -0.52400
O 	O 	0.96890 0.93060 0.37560 -0.38300
O 	O 	0.17460 0.13730 0.41020 -0.47700
O 	O 	0.19760 0.05120 0.40950 -0.34800
O 	O 	0.76840 0.25970 0.36640 -0.51000
O 	O 	0.87010 0.30400 0.39590 -0.49900
O 	O 	0.53920 0.24120 0.46660 -0.48700
O 	O 	0.51940 0.29660 0.52890 -0.35100
O 	O 	0.84580 0.40340 0.55330 -0.52300
O 	O 	0.75080 0.38210 0.60580 -0.54900
O 	O 	0.67500 0.19940 0.29770 -0.50000
O 	O 	0.69070 0.15510 0.22960 -0.35100
O 	O 	0.44700 0.17480 0.40160 -0.51300
O 	O 	0.34820 0.13240 0.37100 -0.51800
O 	O 	0.45600 0.07670 0.15110 -0.54400
O 	O 	0.35120 0.07330 0.19300 -0.56800
O 	O 	0.37310 0.28220 0.43800 -0.49200
O 	O 	0.27360 0.23050 0.41800 -0.50800
O 	O 	0.35210 0.47650 0.39930 -0.52300
O 	O 	0.24530 0.50680 0.36540 -0.53100
O 	O 	0.01540 0.38950 0.35950 -0.32500
O 	O 	0.03930 0.30340 0.35070 -0.46800
