data_crystal

_cell_length_a 15.61600
_cell_length_b 17.36500
_cell_length_c 19.96200
_cell_angle_alpha 75.81300
_cell_angle_beta  89.46800
_cell_angle_gamma 76.03600

_symmetry_space_group_name_	'P 1'
_symmetry_space_group_name_H-M	'P 1'

loop_
_symmetry_equiv_pos_as_xyz
  x,y,z

loop_
_atom_site_label
_atom_site_type_symbol
_atom_site_fract_x
_atom_site_fract_y
_atom_site_fract_z
_atom_site_charge
Ag	Ag	0.27200 0.94895 0.08682 0.44300
Ag	Ag	0.96592 0.57187 0.53632 0.47700
Ag	Ag	0.40365 0.06047 0.03256 0.42800
Ag	Ag	0.72800 0.05105 0.91318 0.44600
Ag	Ag	0.03408 0.42813 0.46368 0.45900
Ag	Ag	0.59635 0.93953 0.96744 0.46000
Ag	Ag	-0.00000 0.50000 -0.00000 0.45600
Ag	Ag	0.50000 0.50000 -0.00000 0.49000
Ag	Ag	-0.00000 0.00000 -0.00000 0.43100
P 	P 	0.78210 0.85860 0.25087 0.57700
P 	P 	0.66670 0.68470 0.23069 0.56600
P 	P 	0.21790 0.14140 0.74913 0.57500
P 	P 	0.33330 0.31530 0.76931 0.56600
H 	H 	0.14970 0.88200 0.93280 -0.01900
H 	H 	0.32500 0.68470 0.92650 0.05700
H 	H 	0.24070 0.75540 0.90370 0.06400
H 	H 	0.34110 0.81190 0.94240 -0.00400
H 	H 	0.36430 0.74160 0.01120 -0.02000
H 	H 	0.21350 0.24080 0.21790 0.03500
H 	H 	0.15180 0.24630 0.15460 0.04100
H 	H 	0.41260 0.99520 0.20200 0.01600
H 	H 	0.13320 0.85790 0.13100 0.00300
H 	H 	0.49910 0.58890 0.83410 -0.02000
H 	H 	0.20100 0.13910 0.09140 -0.04500
H 	H 	0.52850 0.68600 0.98180 0.03100
H 	H 	0.65980 0.67630 0.69840 0.05000
H 	H 	0.63800 0.60060 0.74990 0.05700
H 	H 	0.76100 0.62840 0.55260 -0.03400
H 	H 	0.05570 0.31480 0.96990 0.03400
H 	H 	0.34240 0.58570 0.02810 0.03400
H 	H 	0.28980 0.63980 0.07610 0.06300
H 	H 	0.93370 0.23250 0.20830 0.03600
H 	H 	0.93420 0.16860 0.16470 0.04100
H 	H 	0.34330 0.09760 0.26180 0.00400
H 	H 	0.09220 0.11410 0.18920 0.04000
H 	H 	0.04320 0.10460 0.25810 0.03700
H 	H 	0.07960 0.22740 0.26070 0.02300
H 	H 	0.14640 0.14200 0.28730 0.02300
H 	H 	0.59980 0.55420 0.66100 0.03400
H 	H 	0.61280 0.63250 0.60760 0.01500
H 	H 	0.52800 0.78180 0.86980 0.00400
H 	H 	0.16440 0.69170 0.99400 0.02700
H 	H 	0.20620 0.62870 0.94980 0.00300
H 	H 	0.51220 0.72730 0.66310 0.04500
H 	H 	0.48970 0.65120 0.71240 0.05400
H 	H 	0.44050 0.76070 0.74730 -0.00100
H 	H 	0.53500 0.77540 0.74960 0.01000
H 	H 	0.78390 0.46660 0.73530 0.02300
H 	H 	0.96190 0.37390 0.13750 -0.03400
H 	H 	0.03000 0.19060 0.04760 -0.02200
H 	H 	0.91580 0.44510 0.67860 0.02600
H 	H 	0.26600 0.76920 0.11440 -0.00200
H 	H 	0.85030 0.11800 0.06720 0.01700
H 	H 	0.67500 0.31530 0.07350 0.01100
H 	H 	0.75930 0.24460 0.09630 0.02600
H 	H 	0.65890 0.18810 0.05760 0.04700
H 	H 	0.63570 0.25840 0.98880 0.07200
H 	H 	0.78650 0.75920 0.78210 0.03000
H 	H 	0.84820 0.75370 0.84540 0.04100
H 	H 	0.58740 0.00480 0.79800 -0.01400
H 	H 	0.86680 0.14210 0.86900 0.01300
H 	H 	0.50090 0.41110 0.16590 -0.02200
H 	H 	0.79900 0.86090 0.90860 -0.03500
H 	H 	0.47150 0.31400 0.01820 0.00900
H 	H 	0.34020 0.32370 0.30160 0.04500
H 	H 	0.36200 0.39940 0.25010 0.05200
H 	H 	0.23900 0.37160 0.44740 -0.03500
H 	H 	0.94430 0.68520 0.03010 -0.02900
H 	H 	0.65760 0.41430 0.97190 0.01900
H 	H 	0.71020 0.36020 0.92390 0.04000
H 	H 	0.06630 0.76750 0.79170 0.04800
H 	H 	0.06580 0.83140 0.83530 0.05600
H 	H 	0.65670 0.90240 0.73820 0.01700
H 	H 	0.90780 0.88590 0.81080 0.02700
H 	H 	0.95680 0.89540 0.74190 0.02800
H 	H 	0.92040 0.77260 0.73930 0.05500
H 	H 	0.85360 0.85800 0.71270 0.05000
H 	H 	0.40020 0.44580 0.33900 0.03600
H 	H 	0.38720 0.36750 0.39240 0.01600
H 	H 	0.47200 0.21820 0.13020 -0.00100
H 	H 	0.83560 0.30830 0.00600 0.06700
H 	H 	0.79380 0.37130 0.05020 0.04300
H 	H 	0.48780 0.27270 0.33690 0.04700
H 	H 	0.51030 0.34880 0.28760 0.05600
H 	H 	0.55950 0.23930 0.25270 -0.00300
H 	H 	0.46500 0.22460 0.25040 0.00600
H 	H 	0.21610 0.53340 0.26470 0.01800
H 	H 	0.03810 0.62610 0.86250 -0.02400
H 	H 	0.97000 0.80940 0.95240 0.00500
H 	H 	0.08420 0.55490 0.32140 0.01600
H 	H 	0.73400 0.23080 0.88560 0.00700
W 	W 	0.61713 0.49710 0.31305 1.00200
W 	W 	0.90180 0.92986 0.36195 1.00300
W 	W 	0.61863 0.65661 0.40576 1.03500
W 	W 	0.81739 0.89535 0.07357 0.98600
W 	W 	0.75627 0.06831 0.24075 1.01400
W 	W 	0.82741 0.54478 0.35126 1.01100
W 	W 	0.70966 0.73009 0.05310 1.01600
W 	W 	0.62668 0.99710 0.12464 0.96400
W 	W 	0.72954 0.81940 0.42547 1.03000
W 	W 	0.58412 0.96060 0.30934 1.04300
W 	W 	0.65483 0.53599 0.14235 0.97900
W 	W 	0.93679 0.70985 0.36856 1.33600
W 	W 	0.51892 0.83042 0.10510 0.94300
W 	W 	0.86771 0.57639 0.18231 1.02600
W 	W 	0.94709 0.96057 0.19339 0.98200
W 	W 	0.47567 0.79714 0.28863 1.03200
W 	W 	0.46634 0.63641 0.19691 0.99400
W 	W 	0.97924 0.74036 0.19971 1.03600
W 	W 	0.38287 0.50290 0.68695 1.00100
W 	W 	0.09820 0.07014 0.63805 0.97000
W 	W 	0.38137 0.34339 0.59424 1.03400
W 	W 	0.18261 0.10465 0.92643 0.99700
W 	W 	0.24373 0.93169 0.75925 1.01700
W 	W 	0.17259 0.45522 0.64874 1.00100
W 	W 	0.29034 0.26991 0.94690 1.03900
W 	W 	0.37332 0.00290 0.87536 0.95100
W 	W 	0.27046 0.18060 0.57453 1.02200
W 	W 	0.41588 0.03940 0.69066 1.02000
W 	W 	0.34517 0.46401 0.85765 0.98800
W 	W 	0.06321 0.29015 0.63144 1.27100
W 	W 	0.48108 0.16958 0.89490 0.94900
W 	W 	0.13229 0.42361 0.81769 1.02200
W 	W 	0.05291 0.03943 0.80661 0.94800
W 	W 	0.52433 0.20286 0.71137 1.03100
W 	W 	0.53366 0.36359 0.80309 0.99700
W 	W 	0.02076 0.25964 0.80029 0.99800
C 	C 	0.16560 0.87130 0.97950 0.12800
C 	C 	0.27590 0.71900 0.94410 -0.15900
C 	C 	0.31720 0.77450 0.97740 0.05000
C 	C 	0.18280 0.20980 0.19670 -0.07300
C 	C 	0.36210 0.03700 0.18590 -0.05800
C 	C 	0.16490 0.87200 0.08890 -0.10500
C 	C 	0.50920 0.62630 0.85740 0.11200
C 	C 	0.24560 0.11680 0.12620 0.05000
C 	C 	0.52430 0.67470 0.93900 -0.00900
C 	C 	0.62090 0.63940 0.70540 -0.10100
C 	C 	0.78020 0.58310 0.58980 0.06800
C 	C 	0.03110 0.31180 0.01280 -0.07000
C 	C 	0.28440 0.60940 0.04220 -0.20000
C 	C 	0.96850 0.20250 0.17820 -0.04200
C 	C 	0.32400 0.09260 0.21950 -0.01500
C 	C 	0.05930 0.14440 0.22010 -0.12200
C 	C 	0.11480 0.18060 0.24630 -0.05200
C 	C 	0.63480 0.59440 0.65170 -0.03200
C 	C 	0.52320 0.72800 0.87670 -0.00300
C 	C 	0.21900 0.66190 0.97920 0.00100
C 	C 	0.52740 0.68900 0.70810 -0.13000
C 	C 	0.50260 0.73310 0.75670 0.01900
C 	C 	0.79100 0.49450 0.69040 -0.02500
C 	C 	0.97990 0.34430 0.10460 0.08900
C 	C 	0.01890 0.24230 0.05620 0.00100
C 	C 	0.86450 0.48480 0.66020 0.01000
C 	C 	0.24120 0.82000 0.07910 -0.05000
C 	C 	0.83440 0.12870 0.02050 0.01900
C 	C 	0.72410 0.28100 0.05590 -0.02800
C 	C 	0.68280 0.22550 0.02260 -0.15200
C 	C 	0.81720 0.79020 0.80330 -0.04100
C 	C 	0.63790 0.96300 0.81410 -0.00500
C 	C 	0.83510 0.12800 0.91110 -0.09800
C 	C 	0.49080 0.37370 0.14260 0.11200
C 	C 	0.75440 0.88320 0.87380 0.05800
C 	C 	0.47570 0.32530 0.06100 -0.01000
C 	C 	0.37910 0.36060 0.29460 -0.09200
C 	C 	0.21980 0.41690 0.41020 0.06600
C 	C 	0.96890 0.68820 0.98720 0.03700
C 	C 	0.71560 0.39060 0.95780 -0.09700
C 	C 	0.03150 0.79750 0.82180 -0.10700
C 	C 	0.67600 0.90740 0.78050 -0.03500
C 	C 	0.94070 0.85560 0.77990 -0.03500
C 	C 	0.88520 0.81940 0.75370 -0.12100
C 	C 	0.36520 0.40560 0.34830 -0.03800
C 	C 	0.47680 0.27200 0.12330 -0.00900
C 	C 	0.78100 0.33810 0.02080 -0.14600
C 	C 	0.47260 0.31100 0.29190 -0.13800
C 	C 	0.49740 0.26690 0.24330 0.02500
C 	C 	0.20900 0.50550 0.30960 -0.02800
C 	C 	0.02010 0.65570 0.89540 0.04500
C 	C 	0.98110 0.75770 0.94380 -0.00800
C 	C 	0.13550 0.51520 0.33980 0.00800
C 	C 	0.75880 0.18000 0.92090 -0.05800
N 	N 	0.11840 0.90100 0.02450 -0.22800
N 	N 	0.24840 0.14260 0.17840 -0.12600
N 	N 	0.72320 0.55390 0.64580 -0.12100
N 	N 	0.51430 0.69110 0.82700 -0.15400
N 	N 	0.98750 0.26250 0.11440 -0.11700
N 	N 	0.51850 0.60570 0.92880 -0.20200
N 	N 	0.24350 0.82130 0.01180 -0.16200
N 	N 	0.00210 0.37560 0.04110 -0.21700
N 	N 	0.85750 0.53850 0.59950 -0.20100
N 	N 	0.31710 0.04990 0.12520 -0.24300
N 	N 	0.88160 0.09900 0.97550 -0.17900
N 	N 	0.75160 0.85740 0.82160 -0.12600
N 	N 	0.27680 0.44610 0.35420 -0.12000
N 	N 	0.48570 0.30890 0.17300 -0.15500
N 	N 	0.01250 0.73750 0.88560 -0.11800
N 	N 	0.48150 0.39430 0.07120 -0.21100
N 	N 	0.75650 0.17870 0.98820 -0.08900
N 	N 	0.99790 0.62440 0.95890 -0.19500
N 	N 	0.14250 0.46150 0.40050 -0.20400
N 	N 	0.68290 0.95010 0.87480 -0.24200
O 	O 	0.49680 0.54210 0.27160 -0.44100
O 	O 	0.52840 0.57090 0.13790 -0.46100
O 	O 	0.86130 0.06360 0.19230 -0.44600
O 	O 	0.49350 0.84400 0.19470 -0.46300
O 	O 	0.58860 0.57240 0.36840 -0.45400
O 	O 	0.66750 0.02650 0.29400 -0.46100
O 	O 	0.82800 0.73800 0.41050 -0.49100
O 	O 	0.62830 0.91220 0.40180 -0.45100
O 	O 	0.69610 0.05410 0.16370 -0.45200
O 	O 	0.88960 0.51170 0.27510 -0.45100
O 	O 	0.71580 0.98430 0.05620 -0.51500
O 	O 	0.73830 0.60510 0.39610 -0.46200
O 	O 	0.48230 0.73200 0.12780 -0.45600
O 	O 	0.64690 0.46160 0.23040 -0.44100
O 	O 	0.01570 0.69920 0.29580 -0.48100
O 	O 	0.89740 0.61750 0.35380 -0.48300
O 	O 	0.50200 0.72620 0.37830 -0.45300
O 	O 	0.93560 0.64620 0.20200 -0.44900
O 	O 	0.58020 0.91660 0.09880 -0.50400
O 	O 	0.81030 0.66530 0.10600 -0.46300
O 	O 	0.80550 0.89230 0.40610 -0.45700
O 	O 	0.77490 0.52810 0.17120 -0.45600
O 	O 	0.52870 0.87240 0.31510 -0.44600
O 	O 	0.74770 0.82430 0.05480 -0.47300
O 	O 	0.87460 0.95440 0.11760 -0.47100
O 	O 	0.97660 0.95390 0.28610 -0.44800
O 	O 	0.66160 0.63450 0.07990 -0.46300
O 	O 	0.82680 0.03690 0.32550 -0.45300
O 	O 	0.45290 0.70680 0.25750 -0.45700
O 	O 	0.00880 0.65560 0.43850 -0.51300
O 	O 	0.61830 0.61570 0.22370 -0.37500
O 	O 	0.65500 0.74780 0.41570 -0.44500
O 	O 	0.57640 0.97400 0.21130 -0.44800
O 	O 	0.85190 0.77740 0.26590 -0.35000
O 	O 	0.62320 0.72260 0.28700 -0.33100
O 	O 	0.71170 0.85670 0.30390 -0.33400
O 	O 	0.65440 0.74820 0.16060 -0.32000
O 	O 	0.74320 0.88200 0.17710 -0.32400
O 	O 	0.89940 0.79930 0.12180 -0.45500
O 	O 	0.76190 0.64280 0.24920 -0.33600
O 	O 	0.73630 0.49360 0.33090 -0.45300
O 	O 	0.94980 0.81440 0.36630 -0.47400
O 	O 	0.82660 0.92710 0.25790 -0.37800
O 	O 	0.98990 0.84620 0.20650 -0.45800
O 	O 	0.59040 0.79830 0.03450 -0.50900
O 	O 	0.50320 0.45790 0.72840 -0.44000
O 	O 	0.47160 0.42910 0.86210 -0.45700
O 	O 	0.13870 0.93640 0.80770 -0.43500
O 	O 	0.50650 0.15600 0.80530 -0.46400
O 	O 	0.41140 0.42760 0.63160 -0.45400
O 	O 	0.33250 0.97350 0.70600 -0.44500
O 	O 	0.17200 0.26200 0.58950 -0.48500
O 	O 	0.37170 0.08780 0.59820 -0.45300
O 	O 	0.30390 0.94590 0.83630 -0.43600
O 	O 	0.11040 0.48830 0.72490 -0.45800
O 	O 	0.28420 0.01570 0.94380 -0.50800
O 	O 	0.26170 0.39490 0.60390 -0.46100
O 	O 	0.51770 0.26800 0.87220 -0.45400
O 	O 	0.35310 0.53840 0.76960 -0.44300
O 	O 	0.98430 0.30080 0.70420 -0.43600
O 	O 	0.10260 0.38250 0.64620 -0.48500
O 	O 	0.49800 0.27380 0.62170 -0.45200
O 	O 	0.06440 0.35380 0.79800 -0.45100
O 	O 	0.41980 0.08340 0.90120 -0.49800
O 	O 	0.18970 0.33470 0.89400 -0.46300
O 	O 	0.19450 0.10770 0.59390 -0.45900
O 	O 	0.22510 0.47190 0.82880 -0.45600
O 	O 	0.47130 0.12760 0.68490 -0.44400
O 	O 	0.25230 0.17570 0.94520 -0.46600
O 	O 	0.12540 0.04560 0.88240 -0.47400
O 	O 	0.02340 0.04610 0.71390 -0.45900
O 	O 	0.33840 0.36550 0.92010 -0.45600
O 	O 	0.17320 0.96310 0.67450 -0.44100
O 	O 	0.54710 0.29320 0.74250 -0.45700
O 	O 	0.99120 0.34440 0.56150 -0.47400
O 	O 	0.38170 0.38430 0.77630 -0.37600
O 	O 	0.34500 0.25220 0.58430 -0.44400
O 	O 	0.42360 0.02600 0.78870 -0.45000
O 	O 	0.14810 0.22260 0.73410 -0.34500
O 	O 	0.37680 0.27740 0.71300 -0.33100
O 	O 	0.28830 0.14330 0.69610 -0.33300
O 	O 	0.34560 0.25180 0.83940 -0.32200
O 	O 	0.25680 0.11800 0.82290 -0.32500
O 	O 	0.10060 0.20070 0.87820 -0.45000
O 	O 	0.23810 0.35720 0.75080 -0.33500
O 	O 	0.26370 0.50640 0.66910 -0.45400
O 	O 	0.05020 0.18560 0.63370 -0.47400
O 	O 	0.17340 0.07290 0.74210 -0.38100
O 	O 	0.01010 0.15380 0.79350 -0.46000
O 	O 	0.40960 0.20170 0.96550 -0.49500
