data_crystal

_cell_length_a 18.33080
_cell_length_b 22.56750
_cell_length_c 31.74350
_cell_angle_alpha 90.00000
_cell_angle_beta  90.00000
_cell_angle_gamma 90.00000

_symmetry_space_group_name_	'P 1'
_symmetry_space_group_name_H-M	'P 1'

loop_
_symmetry_equiv_pos_as_xyz
  x,y,z

loop_
_atom_site_label
_atom_site_type_symbol
_atom_site_fract_x
_atom_site_fract_y
_atom_site_fract_z
_atom_site_charge
N 	N 	0.37271 0.94306 0.32653 -0.26200
O 	O 	0.52045 0.09091 0.21425 -0.21200
O 	O 	0.31438 0.18017 0.26254 -0.22400
N 	N 	0.40740 0.12337 0.23591 -0.13700
C 	C 	0.31710 0.02668 0.29403 -0.23200
H 	H 	0.28070 0.05540 0.29470 0.12500
C 	C 	0.32140 0.98539 0.32550 0.13600
H 	H 	0.28730 0.98680 0.34710 -0.02500
C 	C 	0.49940 0.19186 0.23831 -0.02500
C 	C 	0.36640 0.02589 0.26130 0.20200
C 	C 	0.48160 0.12970 0.22738 0.20200
C 	C 	0.36490 0.07040 0.22606 -0.17400
H 	H 	0.31470 0.08170 0.22050 0.09400
H 	H 	0.38420 0.05220 0.20070 0.09900
C 	C 	0.43640 0.21969 0.25243 -0.02500
C 	C 	0.41990 0.94257 0.29503 0.15000
H 	H 	0.45580 0.91350 0.29490 -0.02500
C 	C 	0.41880 0.98250 0.26245 -0.24200
H 	H 	0.45360 0.98020 0.24120 0.14800
C 	C 	0.56570 0.22182 0.23532 -0.02900
H 	H 	0.60820 0.20370 0.22580 0.08000
C 	C 	0.37740 0.17482 0.25144 0.20200
S 	S 	0.11668 0.84690 0.36694 -0.01700
N 	N 	0.37271 0.44306 0.82653 -0.26300
O 	O 	0.52045 0.59091 0.71425 -0.21300
O 	O 	0.31438 0.68017 0.76254 -0.22500
N 	N 	0.40740 0.62337 0.73591 -0.13800
C 	C 	0.31710 0.52668 0.79403 -0.23400
H 	H 	0.28070 0.55540 0.79470 0.12400
C 	C 	0.32140 0.48539 0.82550 0.13500
H 	H 	0.28730 0.48680 0.84710 -0.02600
C 	C 	0.49940 0.69186 0.73831 -0.02600
C 	C 	0.36640 0.52589 0.76130 0.20100
C 	C 	0.48160 0.62970 0.72738 0.20200
C 	C 	0.36490 0.57040 0.72606 -0.17400
H 	H 	0.31470 0.58170 0.72050 0.09400
H 	H 	0.38420 0.55220 0.70070 0.09900
C 	C 	0.43640 0.71969 0.75243 -0.02500
C 	C 	0.41990 0.44257 0.79503 0.14900
H 	H 	0.45580 0.41350 0.79490 -0.02500
C 	C 	0.41880 0.48250 0.76245 -0.24200
H 	H 	0.45360 0.48020 0.74120 0.14800
C 	C 	0.56570 0.72182 0.73532 -0.02900
H 	H 	0.60820 0.70370 0.72580 0.08000
C 	C 	0.37740 0.67482 0.75144 0.20200
S 	S 	0.11668 0.34690 0.86694 -0.01700
N 	N 	0.87271 0.94306 0.82653 -0.26300
O 	O 	0.02045 0.09091 0.71425 -0.21300
O 	O 	0.81438 0.18017 0.76254 -0.22500
N 	N 	0.90740 0.12337 0.73591 -0.13800
C 	C 	0.81710 0.02668 0.79403 -0.23400
H 	H 	0.78070 0.05540 0.79470 0.12400
C 	C 	0.82140 0.98539 0.82550 0.13600
H 	H 	0.78730 0.98680 0.84710 -0.02600
C 	C 	0.99940 0.19186 0.73831 -0.02600
C 	C 	0.86640 0.02589 0.76130 0.20000
C 	C 	0.98160 0.12970 0.72738 0.20200
C 	C 	0.86490 0.07040 0.72606 -0.17400
H 	H 	0.81470 0.08170 0.72050 0.09400
H 	H 	0.88420 0.05220 0.70070 0.09900
C 	C 	0.93640 0.21969 0.75243 -0.02500
C 	C 	0.91990 0.94257 0.79503 0.14900
H 	H 	0.95580 0.91350 0.79490 -0.02500
C 	C 	0.91880 0.98250 0.76245 -0.24100
H 	H 	0.95360 0.98020 0.74120 0.14800
C 	C 	0.06570 0.22182 0.73532 -0.02900
H 	H 	0.10820 0.20370 0.72580 0.07900
C 	C 	0.87740 0.17482 0.75144 0.20200
S 	S 	0.61668 0.84690 0.86694 -0.01700
N 	N 	0.87271 0.44306 0.32653 -0.26300
O 	O 	0.02045 0.59091 0.21425 -0.21300
O 	O 	0.81438 0.68017 0.26254 -0.22500
N 	N 	0.90740 0.62337 0.23591 -0.13800
C 	C 	0.81710 0.52668 0.29403 -0.23400
H 	H 	0.78070 0.55540 0.29470 0.12400
C 	C 	0.82140 0.48539 0.32550 0.13500
H 	H 	0.78730 0.48680 0.34710 -0.02600
C 	C 	0.99940 0.69186 0.23831 -0.02600
C 	C 	0.86640 0.52589 0.26130 0.20100
C 	C 	0.98160 0.62970 0.22738 0.20200
C 	C 	0.86490 0.57040 0.22606 -0.17400
H 	H 	0.81470 0.58170 0.22050 0.09400
H 	H 	0.88420 0.55220 0.20070 0.09900
C 	C 	0.93640 0.71969 0.25243 -0.02500
C 	C 	0.91990 0.44257 0.29503 0.14900
H 	H 	0.95580 0.41350 0.29490 -0.02500
C 	C 	0.91880 0.48250 0.26245 -0.24200
H 	H 	0.95360 0.48020 0.24120 0.14800
C 	C 	0.06570 0.72182 0.23532 -0.02900
H 	H 	0.10820 0.70370 0.22580 0.08000
C 	C 	0.87740 0.67482 0.25144 0.20200
S 	S 	0.61668 0.34690 0.36694 -0.01700
N 	N 	0.37729 0.80694 0.32653 -0.26300
O 	O 	0.22955 0.65909 0.21425 -0.21300
O 	O 	0.43562 0.56983 0.26254 -0.22500
N 	N 	0.34260 0.62663 0.23591 -0.13800
C 	C 	0.43290 0.72332 0.29403 -0.23400
H 	H 	0.46930 0.69460 0.29470 0.12400
C 	C 	0.42860 0.76461 0.32550 0.13500
H 	H 	0.46270 0.76320 0.34710 -0.02600
C 	C 	0.25060 0.55814 0.23831 -0.02600
C 	C 	0.38360 0.72411 0.26130 0.20100
C 	C 	0.26840 0.62030 0.22738 0.20200
C 	C 	0.38510 0.67960 0.22606 -0.17400
H 	H 	0.43530 0.66830 0.22050 0.09400
H 	H 	0.36580 0.69780 0.20070 0.09900
C 	C 	0.31360 0.53031 0.25243 -0.02500
C 	C 	0.33010 0.80743 0.29503 0.14900
H 	H 	0.29420 0.83650 0.29490 -0.02500
C 	C 	0.33120 0.76750 0.26245 -0.24200
H 	H 	0.29640 0.76980 0.24120 0.14800
C 	C 	0.18430 0.52818 0.23532 -0.02900
H 	H 	0.14180 0.54630 0.22580 0.08000
C 	C 	0.37260 0.57518 0.25144 0.20200
S 	S 	0.63332 0.90310 0.36694 -0.01700
N 	N 	0.37729 0.30694 0.82653 -0.26300
O 	O 	0.22955 0.15909 0.71425 -0.21300
O 	O 	0.43562 0.06983 0.76254 -0.22500
N 	N 	0.34260 0.12663 0.73591 -0.13800
C 	C 	0.43290 0.22332 0.79403 -0.23400
H 	H 	0.46930 0.19460 0.79470 0.12400
C 	C 	0.42860 0.26461 0.82550 0.13500
H 	H 	0.46270 0.26320 0.84710 -0.02600
C 	C 	0.25060 0.05814 0.73831 -0.02600
C 	C 	0.38360 0.22411 0.76130 0.20100
C 	C 	0.26840 0.12030 0.72738 0.20200
C 	C 	0.38510 0.17960 0.72606 -0.17400
H 	H 	0.43530 0.16830 0.72050 0.09400
H 	H 	0.36580 0.19780 0.70070 0.09900
C 	C 	0.31360 0.03031 0.75243 -0.02500
C 	C 	0.33010 0.30743 0.79503 0.14900
H 	H 	0.29420 0.33650 0.79490 -0.02500
C 	C 	0.33120 0.26750 0.76245 -0.24200
H 	H 	0.29640 0.26980 0.74120 0.14800
C 	C 	0.18430 0.02818 0.73532 -0.02800
H 	H 	0.14180 0.04630 0.72580 0.07900
C 	C 	0.37260 0.07518 0.75144 0.20200
S 	S 	0.63332 0.40310 0.86694 -0.01700
N 	N 	0.87729 0.80694 0.82653 -0.26300
O 	O 	0.72955 0.65909 0.71425 -0.21300
O 	O 	0.93562 0.56983 0.76254 -0.22500
N 	N 	0.84260 0.62663 0.73591 -0.13800
C 	C 	0.93290 0.72332 0.79403 -0.23400
H 	H 	0.96930 0.69460 0.79470 0.12400
C 	C 	0.92860 0.76461 0.82550 0.13500
H 	H 	0.96270 0.76320 0.84710 -0.02600
C 	C 	0.75060 0.55814 0.73831 -0.02600
C 	C 	0.88360 0.72411 0.76130 0.20100
C 	C 	0.76840 0.62030 0.72738 0.20200
C 	C 	0.88510 0.67960 0.72606 -0.17400
H 	H 	0.93530 0.66830 0.72050 0.09400
H 	H 	0.86580 0.69780 0.70070 0.09900
C 	C 	0.81360 0.53031 0.75243 -0.02500
C 	C 	0.83010 0.80743 0.79503 0.14900
H 	H 	0.79420 0.83650 0.79490 -0.02500
C 	C 	0.83120 0.76750 0.76245 -0.24200
H 	H 	0.79640 0.76980 0.74120 0.14800
C 	C 	0.68430 0.52818 0.73532 -0.02900
H 	H 	0.64180 0.54630 0.72580 0.08000
C 	C 	0.87260 0.57518 0.75144 0.20200
S 	S 	0.13332 0.90310 0.86694 -0.01700
N 	N 	0.87729 0.30694 0.32653 -0.26300
O 	O 	0.72955 0.15909 0.21425 -0.21300
O 	O 	0.93562 0.06983 0.26254 -0.22500
N 	N 	0.84260 0.12663 0.23591 -0.13800
C 	C 	0.93290 0.22332 0.29403 -0.23400
H 	H 	0.96930 0.19460 0.29470 0.12400
C 	C 	0.92860 0.26461 0.32550 0.13500
H 	H 	0.96270 0.26320 0.34710 -0.02600
C 	C 	0.75060 0.05814 0.23831 -0.02600
C 	C 	0.88360 0.22411 0.26130 0.20100
C 	C 	0.76840 0.12030 0.22738 0.20200
C 	C 	0.88510 0.17960 0.22606 -0.17400
H 	H 	0.93530 0.16830 0.22050 0.09400
H 	H 	0.86580 0.19780 0.20070 0.09900
C 	C 	0.81360 0.03031 0.25243 -0.02600
C 	C 	0.83010 0.30743 0.29503 0.14900
H 	H 	0.79420 0.33650 0.29490 -0.02500
C 	C 	0.83120 0.26750 0.26245 -0.24200
H 	H 	0.79640 0.26980 0.24120 0.14800
C 	C 	0.68430 0.02818 0.23532 -0.02900
H 	H 	0.64180 0.04630 0.22580 0.08000
C 	C 	0.87260 0.07518 0.25144 0.20200
S 	S 	0.13332 0.40310 0.36694 -0.01700
N 	N 	0.37729 0.94306 0.42347 -0.26300
O 	O 	0.22955 0.09091 0.53575 -0.21300
O 	O 	0.43562 0.18017 0.48746 -0.22500
N 	N 	0.34260 0.12337 0.51409 -0.13800
C 	C 	0.43290 0.02668 0.45597 -0.23400
H 	H 	0.46930 0.05540 0.45530 0.12400
C 	C 	0.42860 0.98539 0.42450 0.13500
H 	H 	0.46270 0.98680 0.40290 -0.02600
C 	C 	0.25060 0.19186 0.51169 -0.02600
C 	C 	0.38360 0.02589 0.48870 0.20100
C 	C 	0.26840 0.12970 0.52262 0.20200
C 	C 	0.38510 0.07040 0.52394 -0.17400
H 	H 	0.43530 0.08170 0.52950 0.09400
H 	H 	0.36580 0.05220 0.54930 0.09900
C 	C 	0.31360 0.21969 0.49757 -0.02500
C 	C 	0.33010 0.94257 0.45497 0.14900
H 	H 	0.29420 0.91350 0.45510 -0.02500
C 	C 	0.33120 0.98250 0.48755 -0.24200
H 	H 	0.29640 0.98020 0.50880 0.14800
C 	C 	0.18430 0.22182 0.51468 -0.02900
H 	H 	0.14180 0.20370 0.52420 0.08000
C 	C 	0.37260 0.17482 0.49856 0.20200
S 	S 	0.63332 0.84690 0.38306 -0.01700
N 	N 	0.37729 0.44306 0.92347 -0.26300
O 	O 	0.22955 0.59091 0.03575 -0.21300
O 	O 	0.43562 0.68017 0.98746 -0.22500
N 	N 	0.34260 0.62337 0.01409 -0.13800
C 	C 	0.43290 0.52668 0.95597 -0.23400
H 	H 	0.46930 0.55540 0.95530 0.12400
C 	C 	0.42860 0.48539 0.92450 0.13500
H 	H 	0.46270 0.48680 0.90290 -0.02600
C 	C 	0.25060 0.69186 0.01169 -0.02600
C 	C 	0.38360 0.52589 0.98870 0.20100
C 	C 	0.26840 0.62970 0.02262 0.20200
C 	C 	0.38510 0.57040 0.02394 -0.17400
H 	H 	0.43530 0.58170 0.02950 0.09400
H 	H 	0.36580 0.55220 0.04930 0.09900
C 	C 	0.31360 0.71969 0.99757 -0.02600
C 	C 	0.33010 0.44257 0.95497 0.15000
H 	H 	0.29420 0.41350 0.95510 -0.02500
C 	C 	0.33120 0.48250 0.98755 -0.24300
H 	H 	0.29640 0.48020 0.00880 0.14800
C 	C 	0.18430 0.72182 0.01468 -0.02900
H 	H 	0.14180 0.70370 0.02420 0.08000
C 	C 	0.37260 0.67482 0.99856 0.20200
S 	S 	0.63332 0.34690 0.88306 -0.01700
N 	N 	0.87729 0.94306 0.92347 -0.26300
O 	O 	0.72955 0.09091 0.03575 -0.21300
O 	O 	0.93562 0.18017 0.98746 -0.22500
N 	N 	0.84260 0.12337 0.01409 -0.13900
C 	C 	0.93290 0.02668 0.95597 -0.23400
H 	H 	0.96930 0.05540 0.95530 0.12400
C 	C 	0.92860 0.98539 0.92450 0.13600
H 	H 	0.96270 0.98680 0.90290 -0.02600
C 	C 	0.75060 0.19186 0.01169 -0.02600
C 	C 	0.88360 0.02589 0.98870 0.20000
C 	C 	0.76840 0.12970 0.02262 0.20200
C 	C 	0.88510 0.07040 0.02394 -0.17400
H 	H 	0.93530 0.08170 0.02950 0.09400
H 	H 	0.86580 0.05220 0.04930 0.09900
C 	C 	0.81360 0.21969 0.99757 -0.02500
C 	C 	0.83010 0.94257 0.95497 0.14800
H 	H 	0.79420 0.91350 0.95510 -0.02500
C 	C 	0.83120 0.98250 0.98755 -0.24000
H 	H 	0.79640 0.98020 0.00880 0.14700
C 	C 	0.68430 0.22182 0.01468 -0.02900
H 	H 	0.64180 0.20370 0.02420 0.07900
C 	C 	0.87260 0.17482 0.99856 0.20200
S 	S 	0.13332 0.84690 0.88306 -0.01700
N 	N 	0.87729 0.44306 0.42347 -0.26300
O 	O 	0.72955 0.59091 0.53575 -0.21300
O 	O 	0.93562 0.68017 0.48746 -0.22500
N 	N 	0.84260 0.62337 0.51409 -0.13800
C 	C 	0.93290 0.52668 0.45597 -0.23400
H 	H 	0.96930 0.55540 0.45530 0.12400
C 	C 	0.92860 0.48539 0.42450 0.13500
H 	H 	0.96270 0.48680 0.40290 -0.02600
C 	C 	0.75060 0.69186 0.51169 -0.02600
C 	C 	0.88360 0.52589 0.48870 0.20100
C 	C 	0.76840 0.62970 0.52262 0.20200
C 	C 	0.88510 0.57040 0.52394 -0.17400
H 	H 	0.93530 0.58170 0.52950 0.09400
H 	H 	0.86580 0.55220 0.54930 0.09900
C 	C 	0.81360 0.71969 0.49757 -0.02500
C 	C 	0.83010 0.44257 0.45497 0.14900
H 	H 	0.79420 0.41350 0.45510 -0.02500
C 	C 	0.83120 0.48250 0.48755 -0.24200
H 	H 	0.79640 0.48020 0.50880 0.14800
C 	C 	0.68430 0.72182 0.51468 -0.02900
H 	H 	0.64180 0.70370 0.52420 0.08000
C 	C 	0.87260 0.67482 0.49856 0.20200
S 	S 	0.13332 0.34690 0.38306 -0.01700
N 	N 	0.37271 0.80694 0.42347 -0.26300
O 	O 	0.52045 0.65909 0.53575 -0.21300
O 	O 	0.31438 0.56983 0.48746 -0.22500
N 	N 	0.40740 0.62663 0.51409 -0.13800
C 	C 	0.31710 0.72332 0.45597 -0.23400
H 	H 	0.28070 0.69460 0.45530 0.12400
C 	C 	0.32140 0.76461 0.42450 0.13500
H 	H 	0.28730 0.76320 0.40290 -0.02600
C 	C 	0.49940 0.55814 0.51169 -0.02600
C 	C 	0.36640 0.72411 0.48870 0.20100
C 	C 	0.48160 0.62030 0.52262 0.20200
C 	C 	0.36490 0.67960 0.52394 -0.17400
H 	H 	0.31470 0.66830 0.52950 0.09400
H 	H 	0.38420 0.69780 0.54930 0.09900
C 	C 	0.43640 0.53031 0.49757 -0.02500
C 	C 	0.41990 0.80743 0.45497 0.14900
H 	H 	0.45580 0.83650 0.45510 -0.02500
C 	C 	0.41880 0.76750 0.48755 -0.24200
H 	H 	0.45360 0.76980 0.50880 0.14800
C 	C 	0.56570 0.52818 0.51468 -0.02900
H 	H 	0.60820 0.54630 0.52420 0.08000
C 	C 	0.37740 0.57518 0.49856 0.20200
S 	S 	0.11668 0.90310 0.38306 -0.01700
N 	N 	0.37271 0.30694 0.92347 -0.26300
O 	O 	0.52045 0.15909 0.03575 -0.21300
O 	O 	0.31438 0.06983 0.98746 -0.22500
N 	N 	0.40740 0.12663 0.01409 -0.13800
C 	C 	0.31710 0.22332 0.95597 -0.23400
H 	H 	0.28070 0.19460 0.95530 0.12400
C 	C 	0.32140 0.26461 0.92450 0.13500
H 	H 	0.28730 0.26320 0.90290 -0.02600
C 	C 	0.49940 0.05814 0.01169 -0.02600
C 	C 	0.36640 0.22411 0.98870 0.20100
C 	C 	0.48160 0.12030 0.02262 0.20200
C 	C 	0.36490 0.17960 0.02394 -0.17400
H 	H 	0.31470 0.16830 0.02950 0.09400
H 	H 	0.38420 0.19780 0.04930 0.09900
C 	C 	0.43640 0.03031 0.99757 -0.02600
C 	C 	0.41990 0.30743 0.95497 0.14900
H 	H 	0.45580 0.33650 0.95510 -0.02500
C 	C 	0.41880 0.26750 0.98755 -0.24200
H 	H 	0.45360 0.26980 0.00880 0.14800
C 	C 	0.56570 0.02818 0.01468 -0.02800
H 	H 	0.60820 0.04630 0.02420 0.07900
C 	C 	0.37740 0.07518 0.99856 0.20200
S 	S 	0.11668 0.40310 0.88306 -0.01700
N 	N 	0.87271 0.80694 0.92347 -0.26300
O 	O 	0.02045 0.65909 0.03575 -0.21300
O 	O 	0.81438 0.56983 0.98746 -0.22500
N 	N 	0.90740 0.62663 0.01409 -0.13900
C 	C 	0.81710 0.72332 0.95597 -0.23400
H 	H 	0.78070 0.69460 0.95530 0.12400
C 	C 	0.82140 0.76461 0.92450 0.13500
H 	H 	0.78730 0.76320 0.90290 -0.02600
C 	C 	0.99940 0.55814 0.01169 -0.02700
C 	C 	0.86640 0.72411 0.98870 0.20100
C 	C 	0.98160 0.62030 0.02262 0.20200
C 	C 	0.86490 0.67960 0.02394 -0.17500
H 	H 	0.81470 0.66830 0.02950 0.09400
H 	H 	0.88420 0.69780 0.04930 0.09900
C 	C 	0.93640 0.53031 0.99757 -0.02500
C 	C 	0.91990 0.80743 0.95497 0.14900
H 	H 	0.95580 0.83650 0.95510 -0.02500
C 	C 	0.91880 0.76750 0.98755 -0.24100
H 	H 	0.95360 0.76980 0.00880 0.14800
C 	C 	0.06570 0.52818 0.01468 -0.02800
H 	H 	0.10820 0.54630 0.02420 0.07900
C 	C 	0.87740 0.57518 0.99856 0.20200
S 	S 	0.61668 0.90310 0.88306 -0.01700
N 	N 	0.87271 0.30694 0.42347 -0.26300
O 	O 	0.02045 0.15909 0.53575 -0.21300
O 	O 	0.81438 0.06983 0.48746 -0.22500
N 	N 	0.90740 0.12663 0.51409 -0.13800
C 	C 	0.81710 0.22332 0.45597 -0.23400
H 	H 	0.78070 0.19460 0.45530 0.12400
C 	C 	0.82140 0.26461 0.42450 0.13500
H 	H 	0.78730 0.26320 0.40290 -0.02600
C 	C 	0.99940 0.05814 0.51169 -0.02700
C 	C 	0.86640 0.22411 0.48870 0.20100
C 	C 	0.98160 0.12030 0.52262 0.20200
C 	C 	0.86490 0.17960 0.52394 -0.17400
H 	H 	0.81470 0.16830 0.52950 0.09400
H 	H 	0.88420 0.19780 0.54930 0.09900
C 	C 	0.93640 0.03031 0.49757 -0.02600
C 	C 	0.91990 0.30743 0.45497 0.14900
H 	H 	0.95580 0.33650 0.45510 -0.02500
C 	C 	0.91880 0.26750 0.48755 -0.24200
H 	H 	0.95360 0.26980 0.50880 0.14800
C 	C 	0.06570 0.02818 0.51468 -0.02800
H 	H 	0.10820 0.04630 0.52420 0.07900
C 	C 	0.87740 0.07518 0.49856 0.20200
S 	S 	0.61668 0.40310 0.38306 -0.01700
N 	N 	0.62729 0.05694 0.67347 -0.26300
O 	O 	0.47955 0.90909 0.78575 -0.21300
O 	O 	0.68562 0.81983 0.73746 -0.22500
N 	N 	0.59260 0.87663 0.76409 -0.13800
C 	C 	0.68290 0.97332 0.70597 -0.23300
H 	H 	0.71930 0.94460 0.70530 0.12400
C 	C 	0.67860 0.01461 0.67450 0.13500
H 	H 	0.71270 0.01320 0.65290 -0.02600
C 	C 	0.50060 0.80814 0.76169 -0.02600
C 	C 	0.63360 0.97411 0.73870 0.20100
C 	C 	0.51840 0.87030 0.77262 0.20200
C 	C 	0.63510 0.92960 0.77394 -0.17400
H 	H 	0.68530 0.91830 0.77950 0.09400
H 	H 	0.61580 0.94780 0.79930 0.09900
C 	C 	0.56360 0.78031 0.74757 -0.02500
C 	C 	0.58010 0.05743 0.70497 0.15000
H 	H 	0.54420 0.08650 0.70510 -0.02500
C 	C 	0.58120 0.01750 0.73755 -0.24200
H 	H 	0.54640 0.01980 0.75880 0.14800
C 	C 	0.43430 0.77818 0.76468 -0.02900
H 	H 	0.39180 0.79630 0.77420 0.08000
C 	C 	0.62260 0.82518 0.74856 0.20200
S 	S 	0.88332 0.15310 0.63306 -0.01700
N 	N 	0.62729 0.55694 0.17347 -0.26300
O 	O 	0.47955 0.40909 0.28575 -0.21300
O 	O 	0.68562 0.31983 0.23746 -0.22500
N 	N 	0.59260 0.37663 0.26409 -0.13800
C 	C 	0.68290 0.47332 0.20597 -0.23400
H 	H 	0.71930 0.44460 0.20530 0.12400
C 	C 	0.67860 0.51461 0.17450 0.13500
H 	H 	0.71270 0.51320 0.15290 -0.02600
C 	C 	0.50060 0.30814 0.26169 -0.02600
C 	C 	0.63360 0.47411 0.23870 0.20100
C 	C 	0.51840 0.37030 0.27262 0.20200
C 	C 	0.63510 0.42960 0.27394 -0.17400
H 	H 	0.68530 0.41830 0.27950 0.09400
H 	H 	0.61580 0.44780 0.29930 0.09900
C 	C 	0.56360 0.28031 0.24757 -0.02500
C 	C 	0.58010 0.55743 0.20497 0.14900
H 	H 	0.54420 0.58650 0.20510 -0.02500
C 	C 	0.58120 0.51750 0.23755 -0.24200
H 	H 	0.54640 0.51980 0.25880 0.14800
C 	C 	0.43430 0.27818 0.26468 -0.02900
H 	H 	0.39180 0.29630 0.27420 0.08000
C 	C 	0.62260 0.32518 0.24856 0.20200
S 	S 	0.88332 0.65310 0.13306 -0.01700
N 	N 	0.12729 0.05694 0.17347 -0.26300
O 	O 	0.97955 0.90909 0.28575 -0.21300
O 	O 	0.18562 0.81983 0.23746 -0.22500
N 	N 	0.09260 0.87663 0.26409 -0.13800
C 	C 	0.18290 0.97332 0.20597 -0.23400
H 	H 	0.21930 0.94460 0.20530 0.12400
C 	C 	0.17860 0.01461 0.17450 0.13600
H 	H 	0.21270 0.01320 0.15290 -0.02600
C 	C 	0.00060 0.80814 0.26169 -0.02600
C 	C 	0.13360 0.97411 0.23870 0.20000
C 	C 	0.01840 0.87030 0.27262 0.20200
C 	C 	0.13510 0.92960 0.27394 -0.17400
H 	H 	0.18530 0.91830 0.27950 0.09400
H 	H 	0.11580 0.94780 0.29930 0.09900
C 	C 	0.06360 0.78031 0.24757 -0.02500
C 	C 	0.08010 0.05743 0.20497 0.14900
H 	H 	0.04420 0.08650 0.20510 -0.02500
C 	C 	0.08120 0.01750 0.23755 -0.24100
H 	H 	0.04640 0.01980 0.25880 0.14800
C 	C 	0.93430 0.77818 0.26468 -0.02900
H 	H 	0.89180 0.79630 0.27420 0.07900
C 	C 	0.12260 0.82518 0.24856 0.20200
S 	S 	0.38332 0.15310 0.13306 -0.01700
N 	N 	0.12729 0.55694 0.67347 -0.26300
O 	O 	0.97955 0.40909 0.78575 -0.21300
O 	O 	0.18562 0.31983 0.73746 -0.22500
N 	N 	0.09260 0.37663 0.76409 -0.13800
C 	C 	0.18290 0.47332 0.70597 -0.23400
H 	H 	0.21930 0.44460 0.70530 0.12400
C 	C 	0.17860 0.51461 0.67450 0.13500
H 	H 	0.21270 0.51320 0.65290 -0.02600
C 	C 	0.00060 0.30814 0.76169 -0.02600
C 	C 	0.13360 0.47411 0.73870 0.20100
C 	C 	0.01840 0.37030 0.77262 0.20200
C 	C 	0.13510 0.42960 0.77394 -0.17400
H 	H 	0.18530 0.41830 0.77950 0.09400
H 	H 	0.11580 0.44780 0.79930 0.09900
C 	C 	0.06360 0.28031 0.74757 -0.02500
C 	C 	0.08010 0.55743 0.70497 0.14900
H 	H 	0.04420 0.58650 0.70510 -0.02500
C 	C 	0.08120 0.51750 0.73755 -0.24200
H 	H 	0.04640 0.51980 0.75880 0.14800
C 	C 	0.93430 0.27818 0.76468 -0.02900
H 	H 	0.89180 0.29630 0.77420 0.08000
C 	C 	0.12260 0.32518 0.74856 0.20200
S 	S 	0.38332 0.65310 0.63306 -0.01700
N 	N 	0.62271 0.19306 0.67347 -0.26300
O 	O 	0.77045 0.34091 0.78575 -0.21300
O 	O 	0.56438 0.43017 0.73746 -0.22500
N 	N 	0.65740 0.37337 0.76409 -0.13800
C 	C 	0.56710 0.27668 0.70597 -0.23400
H 	H 	0.53070 0.30540 0.70530 0.12400
C 	C 	0.57140 0.23539 0.67450 0.13500
H 	H 	0.53730 0.23680 0.65290 -0.02600
C 	C 	0.74940 0.44186 0.76169 -0.02600
C 	C 	0.61640 0.27589 0.73870 0.20100
C 	C 	0.73160 0.37970 0.77262 0.20200
C 	C 	0.61490 0.32040 0.77394 -0.17400
H 	H 	0.56470 0.33170 0.77950 0.09400
H 	H 	0.63420 0.30220 0.79930 0.09900
C 	C 	0.68640 0.46969 0.74757 -0.02500
C 	C 	0.66990 0.19257 0.70497 0.14900
H 	H 	0.70580 0.16350 0.70510 -0.02500
C 	C 	0.66880 0.23250 0.73755 -0.24200
H 	H 	0.70360 0.23020 0.75880 0.14800
C 	C 	0.81570 0.47182 0.76468 -0.02900
H 	H 	0.85820 0.45370 0.77420 0.08000
C 	C 	0.62740 0.42482 0.74856 0.20200
S 	S 	0.36668 0.09690 0.63306 -0.01700
N 	N 	0.62271 0.69306 0.17347 -0.26300
O 	O 	0.77045 0.84091 0.28575 -0.21300
O 	O 	0.56438 0.93017 0.23746 -0.22500
N 	N 	0.65740 0.87337 0.26409 -0.13800
C 	C 	0.56710 0.77668 0.20597 -0.23400
H 	H 	0.53070 0.80540 0.20530 0.12400
C 	C 	0.57140 0.73539 0.17450 0.13500
H 	H 	0.53730 0.73680 0.15290 -0.02600
C 	C 	0.74940 0.94186 0.26169 -0.02600
C 	C 	0.61640 0.77589 0.23870 0.20100
C 	C 	0.73160 0.87970 0.27262 0.20200
C 	C 	0.61490 0.82040 0.27394 -0.17400
H 	H 	0.56470 0.83170 0.27950 0.09400
H 	H 	0.63420 0.80220 0.29930 0.09900
C 	C 	0.68640 0.96969 0.24757 -0.02500
C 	C 	0.66990 0.69257 0.20497 0.14900
H 	H 	0.70580 0.66350 0.20510 -0.02500
C 	C 	0.66880 0.73250 0.23755 -0.24200
H 	H 	0.70360 0.73020 0.25880 0.14800
C 	C 	0.81570 0.97182 0.26468 -0.02800
H 	H 	0.85820 0.95370 0.27420 0.07900
C 	C 	0.62740 0.92482 0.24856 0.20200
S 	S 	0.36668 0.59690 0.13306 -0.01700
N 	N 	0.12271 0.19306 0.17347 -0.26300
O 	O 	0.27045 0.34091 0.28575 -0.21300
O 	O 	0.06438 0.43017 0.23746 -0.22500
N 	N 	0.15740 0.37337 0.26409 -0.13800
C 	C 	0.06710 0.27668 0.20597 -0.23400
H 	H 	0.03070 0.30540 0.20530 0.12400
C 	C 	0.07140 0.23539 0.17450 0.13500
H 	H 	0.03730 0.23680 0.15290 -0.02600
C 	C 	0.24940 0.44186 0.26169 -0.02600
C 	C 	0.11640 0.27589 0.23870 0.20100
C 	C 	0.23160 0.37970 0.27262 0.20200
C 	C 	0.11490 0.32040 0.27394 -0.17400
H 	H 	0.06470 0.33170 0.27950 0.09400
H 	H 	0.13420 0.30220 0.29930 0.09900
C 	C 	0.18640 0.46969 0.24757 -0.02500
C 	C 	0.16990 0.19257 0.20497 0.14900
H 	H 	0.20580 0.16350 0.20510 -0.02500
C 	C 	0.16880 0.23250 0.23755 -0.24200
H 	H 	0.20360 0.23020 0.25880 0.14800
C 	C 	0.31570 0.47182 0.26468 -0.02900
H 	H 	0.35820 0.45370 0.27420 0.08000
C 	C 	0.12740 0.42482 0.24856 0.20200
S 	S 	0.86668 0.09690 0.13306 -0.01700
N 	N 	0.12271 0.69306 0.67347 -0.26300
O 	O 	0.27045 0.84091 0.78575 -0.21300
O 	O 	0.06438 0.93017 0.73746 -0.22500
N 	N 	0.15740 0.87337 0.76409 -0.13800
C 	C 	0.06710 0.77668 0.70597 -0.23400
H 	H 	0.03070 0.80540 0.70530 0.12400
C 	C 	0.07140 0.73539 0.67450 0.13500
H 	H 	0.03730 0.73680 0.65290 -0.02600
C 	C 	0.24940 0.94186 0.76169 -0.02600
C 	C 	0.11640 0.77589 0.73870 0.20100
C 	C 	0.23160 0.87970 0.77262 0.20200
C 	C 	0.11490 0.82040 0.77394 -0.17400
H 	H 	0.06470 0.83170 0.77950 0.09400
H 	H 	0.13420 0.80220 0.79930 0.09900
C 	C 	0.18640 0.96969 0.74757 -0.02600
C 	C 	0.16990 0.69257 0.70497 0.14900
H 	H 	0.20580 0.66350 0.70510 -0.02500
C 	C 	0.16880 0.73250 0.73755 -0.24200
H 	H 	0.20360 0.73020 0.75880 0.14800
C 	C 	0.31570 0.97182 0.76468 -0.02900
H 	H 	0.35820 0.95370 0.77420 0.08000
C 	C 	0.12740 0.92482 0.74856 0.20200
S 	S 	0.86668 0.59690 0.63306 -0.01700
N 	N 	0.62271 0.05694 0.57653 -0.26300
O 	O 	0.77045 0.90909 0.46425 -0.21300
O 	O 	0.56438 0.81983 0.51254 -0.22500
N 	N 	0.65740 0.87663 0.48591 -0.13800
C 	C 	0.56710 0.97332 0.54403 -0.23400
H 	H 	0.53070 0.94460 0.54470 0.12400
C 	C 	0.57140 0.01461 0.57550 0.13500
H 	H 	0.53730 0.01320 0.59710 -0.02600
C 	C 	0.74940 0.80814 0.48831 -0.02600
C 	C 	0.61640 0.97411 0.51130 0.20100
C 	C 	0.73160 0.87030 0.47738 0.20200
C 	C 	0.61490 0.92960 0.47606 -0.17400
H 	H 	0.56470 0.91830 0.47050 0.09400
H 	H 	0.63420 0.94780 0.45070 0.09900
C 	C 	0.68640 0.78031 0.50243 -0.02500
C 	C 	0.66990 0.05743 0.54503 0.14900
H 	H 	0.70580 0.08650 0.54490 -0.02500
C 	C 	0.66880 0.01750 0.51245 -0.24200
H 	H 	0.70360 0.01980 0.49120 0.14800
C 	C 	0.81570 0.77818 0.48532 -0.02900
H 	H 	0.85820 0.79630 0.47580 0.08000
C 	C 	0.62740 0.82518 0.50144 0.20200
S 	S 	0.36668 0.15310 0.61694 -0.01700
N 	N 	0.62271 0.55694 0.07653 -0.26300
O 	O 	0.77045 0.40909 0.96425 -0.21300
O 	O 	0.56438 0.31983 0.01254 -0.22500
N 	N 	0.65740 0.37663 0.98591 -0.13800
C 	C 	0.56710 0.47332 0.04403 -0.23400
H 	H 	0.53070 0.44460 0.04470 0.12400
C 	C 	0.57140 0.51461 0.07550 0.13500
H 	H 	0.53730 0.51320 0.09710 -0.02600
C 	C 	0.74940 0.30814 0.98831 -0.02600
C 	C 	0.61640 0.47411 0.01130 0.20100
C 	C 	0.73160 0.37030 0.97738 0.20200
C 	C 	0.61490 0.42960 0.97606 -0.17400
H 	H 	0.56470 0.41830 0.97050 0.09400
H 	H 	0.63420 0.44780 0.95070 0.09900
C 	C 	0.68640 0.28031 0.00243 -0.02600
C 	C 	0.66990 0.55743 0.04503 0.15000
H 	H 	0.70580 0.58650 0.04490 -0.02500
C 	C 	0.66880 0.51750 0.01245 -0.24300
H 	H 	0.70360 0.51980 0.99120 0.14800
C 	C 	0.81570 0.27818 0.98532 -0.02900
H 	H 	0.85820 0.29630 0.97580 0.08000
C 	C 	0.62740 0.32518 0.00144 0.20200
S 	S 	0.36668 0.65310 0.11694 -0.01700
N 	N 	0.12271 0.05694 0.07653 -0.26300
O 	O 	0.27045 0.90909 0.96425 -0.21300
O 	O 	0.06438 0.81983 0.01254 -0.22500
N 	N 	0.15740 0.87663 0.98591 -0.13900
C 	C 	0.06710 0.97332 0.04403 -0.23400
H 	H 	0.03070 0.94460 0.04470 0.12400
C 	C 	0.07140 0.01461 0.07550 0.13600
H 	H 	0.03730 0.01320 0.09710 -0.02600
C 	C 	0.24940 0.80814 0.98831 -0.02600
C 	C 	0.11640 0.97411 0.01130 0.20000
C 	C 	0.23160 0.87030 0.97738 0.20200
C 	C 	0.11490 0.92960 0.97606 -0.17400
H 	H 	0.06470 0.91830 0.97050 0.09400
H 	H 	0.13420 0.94780 0.95070 0.09900
C 	C 	0.18640 0.78031 0.00243 -0.02500
C 	C 	0.16990 0.05743 0.04503 0.14800
H 	H 	0.20580 0.08650 0.04490 -0.02500
C 	C 	0.16880 0.01750 0.01245 -0.24000
H 	H 	0.20360 0.01980 0.99120 0.14700
C 	C 	0.31570 0.77818 0.98532 -0.02900
H 	H 	0.35820 0.79630 0.97580 0.07900
C 	C 	0.12740 0.82518 0.00144 0.20200
S 	S 	0.86668 0.15310 0.11694 -0.01700
N 	N 	0.12271 0.55694 0.57653 -0.26300
O 	O 	0.27045 0.40909 0.46425 -0.21300
O 	O 	0.06438 0.31983 0.51254 -0.22500
N 	N 	0.15740 0.37663 0.48591 -0.13800
C 	C 	0.06710 0.47332 0.54403 -0.23400
H 	H 	0.03070 0.44460 0.54470 0.12400
C 	C 	0.07140 0.51461 0.57550 0.13500
H 	H 	0.03730 0.51320 0.59710 -0.02600
C 	C 	0.24940 0.30814 0.48831 -0.02600
C 	C 	0.11640 0.47411 0.51130 0.20100
C 	C 	0.23160 0.37030 0.47738 0.20200
C 	C 	0.11490 0.42960 0.47606 -0.17400
H 	H 	0.06470 0.41830 0.47050 0.09400
H 	H 	0.13420 0.44780 0.45070 0.09900
C 	C 	0.18640 0.28031 0.50243 -0.02500
C 	C 	0.16990 0.55743 0.54503 0.14900
H 	H 	0.20580 0.58650 0.54490 -0.02500
C 	C 	0.16880 0.51750 0.51245 -0.24200
H 	H 	0.20360 0.51980 0.49120 0.14800
C 	C 	0.31570 0.27818 0.48532 -0.02900
H 	H 	0.35820 0.29630 0.47580 0.08000
C 	C 	0.12740 0.32518 0.50144 0.20200
S 	S 	0.86668 0.65310 0.61694 -0.01700
N 	N 	0.62729 0.19306 0.57653 -0.26300
O 	O 	0.47955 0.34091 0.46425 -0.21300
O 	O 	0.68562 0.43017 0.51254 -0.22500
N 	N 	0.59260 0.37337 0.48591 -0.13800
C 	C 	0.68290 0.27668 0.54403 -0.23400
H 	H 	0.71930 0.30540 0.54470 0.12400
C 	C 	0.67860 0.23539 0.57550 0.13500
H 	H 	0.71270 0.23680 0.59710 -0.02600
C 	C 	0.50060 0.44186 0.48831 -0.02600
C 	C 	0.63360 0.27589 0.51130 0.20100
C 	C 	0.51840 0.37970 0.47738 0.20200
C 	C 	0.63510 0.32040 0.47606 -0.17400
H 	H 	0.68530 0.33170 0.47050 0.09400
H 	H 	0.61580 0.30220 0.45070 0.09900
C 	C 	0.56360 0.46969 0.50243 -0.02500
C 	C 	0.58010 0.19257 0.54503 0.14900
H 	H 	0.54420 0.16350 0.54490 -0.02500
C 	C 	0.58120 0.23250 0.51245 -0.24200
H 	H 	0.54640 0.23020 0.49120 0.14800
C 	C 	0.43430 0.47182 0.48532 -0.02900
H 	H 	0.39180 0.45370 0.47580 0.08000
C 	C 	0.62260 0.42482 0.50144 0.20200
S 	S 	0.88332 0.09690 0.61694 -0.01700
N 	N 	0.62729 0.69306 0.07653 -0.26300
O 	O 	0.47955 0.84091 0.96425 -0.21300
O 	O 	0.68562 0.93017 0.01254 -0.22500
N 	N 	0.59260 0.87337 0.98591 -0.13800
C 	C 	0.68290 0.77668 0.04403 -0.23400
H 	H 	0.71930 0.80540 0.04470 0.12400
C 	C 	0.67860 0.73539 0.07550 0.13500
H 	H 	0.71270 0.73680 0.09710 -0.02600
C 	C 	0.50060 0.94186 0.98831 -0.02600
C 	C 	0.63360 0.77589 0.01130 0.20100
C 	C 	0.51840 0.87970 0.97738 0.20200
C 	C 	0.63510 0.82040 0.97606 -0.17400
H 	H 	0.68530 0.83170 0.97050 0.09400
H 	H 	0.61580 0.80220 0.95070 0.09900
C 	C 	0.56360 0.96969 0.00243 -0.02600
C 	C 	0.58010 0.69257 0.04503 0.14900
H 	H 	0.54420 0.66350 0.04490 -0.02500
C 	C 	0.58120 0.73250 0.01245 -0.24200
H 	H 	0.54640 0.73020 0.99120 0.14800
C 	C 	0.43430 0.97182 0.98532 -0.02800
H 	H 	0.39180 0.95370 0.97580 0.07900
C 	C 	0.62260 0.92482 0.00144 0.20200
S 	S 	0.88332 0.59690 0.11694 -0.01700
N 	N 	0.12729 0.19306 0.07653 -0.26300
O 	O 	0.97955 0.34091 0.96425 -0.21300
O 	O 	0.18562 0.43017 0.01254 -0.22500
N 	N 	0.09260 0.37337 0.98591 -0.13900
C 	C 	0.18290 0.27668 0.04403 -0.23400
H 	H 	0.21930 0.30540 0.04470 0.12400
C 	C 	0.17860 0.23539 0.07550 0.13500
H 	H 	0.21270 0.23680 0.09710 -0.02600
C 	C 	0.00060 0.44186 0.98831 -0.02700
C 	C 	0.13360 0.27589 0.01130 0.20100
C 	C 	0.01840 0.37970 0.97738 0.20200
C 	C 	0.13510 0.32040 0.97606 -0.17500
H 	H 	0.18530 0.33170 0.97050 0.09400
H 	H 	0.11580 0.30220 0.95070 0.09900
C 	C 	0.06360 0.46969 0.00243 -0.02500
C 	C 	0.08010 0.19257 0.04503 0.14900
H 	H 	0.04420 0.16350 0.04490 -0.02500
C 	C 	0.08120 0.23250 0.01245 -0.24100
H 	H 	0.04640 0.23020 0.99120 0.14800
C 	C 	0.93430 0.47182 0.98532 -0.02800
H 	H 	0.89180 0.45370 0.97580 0.07900
C 	C 	0.12260 0.42482 0.00144 0.20200
S 	S 	0.38332 0.09690 0.11694 -0.01700
N 	N 	0.12729 0.69306 0.57653 -0.26300
O 	O 	0.97955 0.84091 0.46425 -0.21300
O 	O 	0.18562 0.93017 0.51254 -0.22500
N 	N 	0.09260 0.87337 0.48591 -0.13800
C 	C 	0.18290 0.77668 0.54403 -0.23400
H 	H 	0.21930 0.80540 0.54470 0.12400
C 	C 	0.17860 0.73539 0.57550 0.13500
H 	H 	0.21270 0.73680 0.59710 -0.02600
C 	C 	0.00060 0.94186 0.48831 -0.02700
C 	C 	0.13360 0.77589 0.51130 0.20100
C 	C 	0.01840 0.87970 0.47738 0.20200
C 	C 	0.13510 0.82040 0.47606 -0.17400
H 	H 	0.18530 0.83170 0.47050 0.09400
H 	H 	0.11580 0.80220 0.45070 0.09900
C 	C 	0.06360 0.96969 0.50243 -0.02600
C 	C 	0.08010 0.69257 0.54503 0.14900
H 	H 	0.04420 0.66350 0.54490 -0.02500
C 	C 	0.08120 0.73250 0.51245 -0.24200
H 	H 	0.04640 0.73020 0.49120 0.14800
C 	C 	0.93430 0.97182 0.48532 -0.02800
H 	H 	0.89180 0.95370 0.47580 0.07900
C 	C 	0.12260 0.92482 0.50144 0.20200
S 	S 	0.38332 0.59690 0.61694 -0.01700
Co	Co	0.37500 0.87500 0.37500 1.12400
Co	Co	0.37500 0.37500 0.87500 1.12400
Co	Co	0.87500 0.87500 0.87500 1.12400
Co	Co	0.87500 0.37500 0.37500 1.12400
Co	Co	0.62500 0.12500 0.62500 1.12400
Co	Co	0.62500 0.62500 0.12500 1.12400
Co	Co	0.12500 0.12500 0.12500 1.12400
Co	Co	0.12500 0.62500 0.62500 1.12400
N 	N 	0.26130 0.87500 0.37500 -0.26600
C 	C 	0.20060 0.87500 0.37500 0.11000
N 	N 	0.26130 0.37500 0.87500 -0.26600
C 	C 	0.20060 0.37500 0.87500 0.11000
N 	N 	0.76130 0.87500 0.87500 -0.26600
C 	C 	0.70060 0.87500 0.87500 0.11000
N 	N 	0.76130 0.37500 0.37500 -0.26600
C 	C 	0.70060 0.37500 0.37500 0.11000
N 	N 	0.48870 0.87500 0.37500 -0.26600
C 	C 	0.54940 0.87500 0.37500 0.11000
N 	N 	0.48870 0.37500 0.87500 -0.26600
C 	C 	0.54940 0.37500 0.87500 0.11000
N 	N 	0.98870 0.87500 0.87500 -0.26500
C 	C 	0.04940 0.87500 0.87500 0.11000
N 	N 	0.98870 0.37500 0.37500 -0.26600
C 	C 	0.04940 0.37500 0.37500 0.11100
N 	N 	0.73870 0.12500 0.62500 -0.26600
C 	C 	0.79940 0.12500 0.62500 0.11000
N 	N 	0.73870 0.62500 0.12500 -0.26600
C 	C 	0.79940 0.62500 0.12500 0.11000
N 	N 	0.23870 0.12500 0.12500 -0.26600
C 	C 	0.29940 0.12500 0.12500 0.11000
N 	N 	0.23870 0.62500 0.62500 -0.26600
C 	C 	0.29940 0.62500 0.62500 0.11000
N 	N 	0.51130 0.12500 0.62500 -0.26600
C 	C 	0.45060 0.12500 0.62500 0.11000
N 	N 	0.51130 0.62500 0.12500 -0.26600
C 	C 	0.45060 0.62500 0.12500 0.11000
N 	N 	0.01130 0.12500 0.12500 -0.26500
C 	C 	0.95060 0.12500 0.12500 0.11000
N 	N 	0.01130 0.62500 0.62500 -0.26600
C 	C 	0.95060 0.62500 0.62500 0.11100
