data_crystal

_cell_length_a 15.49390
_cell_length_b 15.49390
_cell_length_c 12.31210
_cell_angle_alpha 90.00000
_cell_angle_beta  90.00000
_cell_angle_gamma 90.00000

_symmetry_space_group_name_	'P 1'
_symmetry_space_group_name_H-M	'P 1'

loop_
_symmetry_equiv_pos_as_xyz
  x,y,z

loop_
_atom_site_label
_atom_site_type_symbol
_atom_site_fract_x
_atom_site_fract_y
_atom_site_fract_z
_atom_site_charge
O 	O 	0.61190 0.38120 0.61650 -0.56900
O 	O 	0.59380 0.29240 0.75340 -0.56200
C 	C 	0.58400 0.36380 0.70870 0.48700
C 	C 	0.53713 0.43092 0.76779 -0.15200
C 	C 	0.53713 0.43092 0.88175 0.00500
H 	H 	0.56490 0.37920 0.92440 0.05000
O 	O 	0.11190 0.88120 0.11650 -0.58700
O 	O 	0.09380 0.79240 0.25340 -0.57700
C 	C 	0.08400 0.86380 0.20870 0.49300
C 	C 	0.03713 0.93092 0.26779 -0.16400
C 	C 	0.03713 0.93092 0.38175 0.06100
H 	H 	0.06490 0.87920 0.42440 0.01400
O 	O 	0.88810 0.11880 0.11650 -0.59100
O 	O 	0.90620 0.20760 0.25340 -0.57700
C 	C 	0.91600 0.13620 0.20870 0.49400
C 	C 	0.96287 0.06908 0.26779 -0.17300
C 	C 	0.96287 0.06908 0.38175 0.05200
H 	H 	0.93510 0.12080 0.42440 0.01600
O 	O 	0.38810 0.61880 0.61650 -0.56800
O 	O 	0.40620 0.70760 0.75340 -0.56000
C 	C 	0.41600 0.63620 0.70870 0.48700
C 	C 	0.46287 0.56908 0.76779 -0.15100
C 	C 	0.46287 0.56908 0.88175 0.00500
H 	H 	0.43510 0.62080 0.92440 0.05100
O 	O 	0.61880 0.11190 0.86650 -0.62200
O 	O 	0.70760 0.09380 0.00340 -0.68700
C 	C 	0.63620 0.08400 0.95870 0.73200
C 	C 	0.56908 0.03713 0.01779 -0.46600
C 	C 	0.56908 0.03713 0.13175 0.18200
H 	H 	0.62080 0.06490 0.17440 -0.02600
O 	O 	0.11880 0.61190 0.36650 -0.57900
O 	O 	0.20760 0.59380 0.50340 -0.57300
C 	C 	0.13620 0.58400 0.45870 0.49900
C 	C 	0.06908 0.53713 0.51779 -0.18700
C 	C 	0.06908 0.53713 0.63175 0.06200
H 	H 	0.12080 0.56490 0.67440 0.01300
O 	O 	0.88120 0.38810 0.36650 -0.57500
O 	O 	0.79240 0.40620 0.50340 -0.57100
C 	C 	0.86380 0.41600 0.45870 0.49800
C 	C 	0.93092 0.46287 0.51779 -0.17900
C 	C 	0.93092 0.46287 0.63175 0.07000
H 	H 	0.87920 0.43510 0.67440 0.01300
O 	O 	0.38120 0.88810 0.86650 -0.61500
O 	O 	0.29240 0.90620 0.00340 -0.68500
C 	C 	0.36380 0.91600 0.95870 0.73500
C 	C 	0.43092 0.96287 0.01779 -0.45200
C 	C 	0.43092 0.96287 0.13175 0.20100
H 	H 	0.37920 0.93510 0.17440 -0.02600
O 	O 	0.88810 0.38120 0.13350 -0.51800
O 	O 	0.90620 0.29240 0.99660 -0.44700
C 	C 	0.91600 0.36380 0.04130 0.24900
C 	C 	0.96287 0.43092 0.98221 0.12900
C 	C 	0.96287 0.43092 0.86825 -0.09600
H 	H 	0.93510 0.37920 0.82560 0.06100
O 	O 	0.38810 0.88120 0.63350 -0.55900
O 	O 	0.40620 0.79240 0.49660 -0.56700
C 	C 	0.41600 0.86380 0.54130 0.48500
C 	C 	0.46287 0.93092 0.48221 -0.14400
C 	C 	0.46287 0.93092 0.36825 0.03600
H 	H 	0.43510 0.87920 0.32560 0.02100
O 	O 	0.61190 0.11880 0.63350 -0.56700
O 	O 	0.59380 0.20760 0.49660 -0.57000
C 	C 	0.58400 0.13620 0.54130 0.48800
C 	C 	0.53713 0.06908 0.48221 -0.16200
C 	C 	0.53713 0.06908 0.36825 0.01800
H 	H 	0.56490 0.12080 0.32560 0.02200
O 	O 	0.11190 0.61880 0.13350 -0.52200
O 	O 	0.09380 0.70760 0.99660 -0.44700
C 	C 	0.08400 0.63620 0.04130 0.25000
C 	C 	0.03713 0.56908 0.98221 0.12100
C 	C 	0.03713 0.56908 0.86825 -0.10400
H 	H 	0.06490 0.62080 0.82560 0.06200
O 	O 	0.88120 0.11190 0.88350 -0.54300
O 	O 	0.79240 0.09380 0.74660 -0.56300
C 	C 	0.86380 0.08400 0.79130 0.48400
C 	C 	0.93092 0.03713 0.73221 -0.15400
C 	C 	0.93092 0.03713 0.61825 0.04300
H 	H 	0.87920 0.06490 0.57560 0.01800
O 	O 	0.38120 0.61190 0.38350 -0.57500
O 	O 	0.29240 0.59380 0.24660 -0.58100
C 	C 	0.36380 0.58400 0.29130 0.50300
C 	C 	0.43092 0.53713 0.23221 -0.20300
C 	C 	0.43092 0.53713 0.11825 0.07600
H 	H 	0.37920 0.56490 0.07560 -0.01400
O 	O 	0.61880 0.38810 0.38350 -0.57600
O 	O 	0.70760 0.40620 0.24660 -0.58000
C 	C 	0.63620 0.41600 0.29130 0.50300
C 	C 	0.56908 0.46287 0.23221 -0.20200
C 	C 	0.56908 0.46287 0.11825 0.07600
H 	H 	0.62080 0.43510 0.07560 -0.01300
O 	O 	0.11880 0.88810 0.88350 -0.53800
O 	O 	0.20760 0.90620 0.74660 -0.55800
C 	C 	0.13620 0.91600 0.79130 0.48300
C 	C 	0.06908 0.96287 0.73221 -0.14300
C 	C 	0.06908 0.96287 0.61825 0.05400
H 	H 	0.12080 0.93510 0.57560 0.01800
In	In	0.68670 0.31330 0.50000 2.01300
In	In	0.18670 0.81330 -0.00000 1.99500
In	In	0.81330 0.18670 -0.00000 1.99500
In	In	0.31330 0.68670 0.50000 2.01300
In	In	0.68670 0.18670 0.75000 2.01500
In	In	0.18670 0.68670 0.25000 2.01100
In	In	0.81330 0.31330 0.25000 2.01100
In	In	0.31330 0.81330 0.75000 2.01600
O 	O 	0.75760 0.25000 0.62500 -0.86800
H 	H 	0.81570 0.25000 0.62500 0.27900
O 	O 	0.25760 0.75000 0.12500 -0.88100
H 	H 	0.31570 0.75000 0.12500 0.27300
O 	O 	0.74240 0.25000 0.12500 -0.88100
H 	H 	0.68430 0.25000 0.12500 0.27200
O 	O 	0.24240 0.75000 0.62500 -0.86800
H 	H 	0.18430 0.75000 0.62500 0.27900
O 	O 	0.75000 0.25760 0.87500 -0.85100
H 	H 	0.75000 0.31570 0.87500 0.28600
O 	O 	0.25000 0.75760 0.37500 -0.86900
H 	H 	0.25000 0.81570 0.37500 0.28100
O 	O 	0.75000 0.24240 0.37500 -0.86900
H 	H 	0.75000 0.18430 0.37500 0.27900
O 	O 	0.25000 0.74240 0.87500 -0.85000
H 	H 	0.25000 0.68430 0.87500 0.28500
C 	C 	0.50000 0.50000 0.71080 0.09300
C 	C 	0.50000 0.50000 0.93874 0.07600
H 	H 	0.50000 0.50000 0.62550 0.03700
C 	C 	0.00000 0.00000 0.21080 0.07400
C 	C 	0.00000 0.00000 0.43874 -0.05900
H 	H 	-0.00000 -0.00000 0.12550 0.01700
C 	C 	0.50000 0.00000 0.96080 0.40700
C 	C 	0.50000 0.00000 0.18874 -0.15700
H 	H 	0.50000 0.00000 0.87550 -0.04600
C 	C 	0.00000 0.50000 0.46080 0.10600
C 	C 	-0.00000 0.50000 0.68874 -0.07800
H 	H 	-0.00000 0.50000 0.37550 0.02500
C 	C 	0.00000 0.50000 0.03920 -0.22900
C 	C 	-0.00000 0.50000 0.81126 0.07500
H 	H 	0.00000 0.50000 0.12450 0.11000
C 	C 	0.50000 0.00000 0.53920 0.07200
C 	C 	0.50000 0.00000 0.31126 -0.00700
H 	H 	0.50000 -0.00000 0.62450 0.03900
C 	C 	-0.00000 0.00000 0.78920 0.06400
C 	C 	-0.00000 -0.00000 0.56126 -0.05100
H 	H 	0.00000 0.00000 0.87450 0.04900
C 	C 	0.50000 0.50000 0.28920 0.12500
C 	C 	0.50000 0.50000 0.06126 -0.13400
H 	H 	0.50000 0.50000 0.37450 0.02600
