data_crystal

_cell_length_a 15.43750
_cell_length_b 15.43750
_cell_length_c 12.28480
_cell_angle_alpha 90.00000
_cell_angle_beta  90.00000
_cell_angle_gamma 90.00000

_symmetry_space_group_name_	'P 1'
_symmetry_space_group_name_H-M	'P 1'

loop_
_symmetry_equiv_pos_as_xyz
  x,y,z

loop_
_atom_site_label
_atom_site_type_symbol
_atom_site_fract_x
_atom_site_fract_y
_atom_site_fract_z
_atom_site_charge
O 	O 	0.61400 0.38060 0.61730 -0.59500
O 	O 	0.59100 0.29090 0.75080 -0.56100
C 	C 	0.58330 0.36370 0.70850 0.50900
C 	C 	0.53734 0.43096 0.76730 -0.17000
C 	C 	0.53734 0.43096 0.88120 0.01700
H 	H 	0.56540 0.37920 0.92390 0.04700
O 	O 	0.11400 0.88060 0.11730 -0.61400
O 	O 	0.09100 0.79090 0.25080 -0.57700
C 	C 	0.08330 0.86370 0.20850 0.51300
C 	C 	0.03734 0.93096 0.26730 -0.18300
C 	C 	0.03734 0.93096 0.38120 0.07300
H 	H 	0.06540 0.87920 0.42390 0.01100
O 	O 	0.88600 0.11940 0.11730 -0.61800
O 	O 	0.90900 0.20910 0.25080 -0.57700
C 	C 	0.91670 0.13630 0.20850 0.51500
C 	C 	0.96266 0.06904 0.26730 -0.19100
C 	C 	0.96266 0.06904 0.38120 0.06300
H 	H 	0.93460 0.12080 0.42390 0.01200
O 	O 	0.38600 0.61940 0.61730 -0.59700
O 	O 	0.40900 0.70910 0.75080 -0.55900
C 	C 	0.41670 0.63630 0.70850 0.50800
C 	C 	0.46266 0.56904 0.76730 -0.17100
C 	C 	0.46266 0.56904 0.88120 0.01600
H 	H 	0.43460 0.62080 0.92390 0.04700
O 	O 	0.61940 0.11400 0.86730 -0.65100
O 	O 	0.70910 0.09100 0.00080 -0.68800
C 	C 	0.63630 0.08330 0.95850 0.75700
C 	C 	0.56904 0.03734 0.01730 -0.49200
C 	C 	0.56904 0.03734 0.13120 0.19900
H 	H 	0.62080 0.06540 0.17390 -0.03100
O 	O 	0.11940 0.61400 0.36730 -0.60700
O 	O 	0.20910 0.59100 0.50080 -0.57300
C 	C 	0.13630 0.58330 0.45850 0.52000
C 	C 	0.06904 0.53734 0.51730 -0.20800
C 	C 	0.06904 0.53734 0.63120 0.07400
H 	H 	0.12080 0.56540 0.67390 0.00900
O 	O 	0.88060 0.38600 0.36730 -0.60300
O 	O 	0.79090 0.40900 0.50080 -0.57100
C 	C 	0.86370 0.41670 0.45850 0.51900
C 	C 	0.93096 0.46266 0.51730 -0.19900
C 	C 	0.93096 0.46266 0.63120 0.08300
H 	H 	0.87920 0.43460 0.67390 0.00900
O 	O 	0.38060 0.88600 0.86730 -0.64500
O 	O 	0.29090 0.90900 0.00080 -0.68600
C 	C 	0.36370 0.91670 0.95850 0.76000
C 	C 	0.43096 0.96266 0.01730 -0.47800
C 	C 	0.43096 0.96266 0.13120 0.21800
H 	H 	0.37920 0.93460 0.17390 -0.03100
O 	O 	0.88600 0.38060 0.13270 -0.54500
O 	O 	0.90900 0.29090 0.99920 -0.44600
C 	C 	0.91670 0.36370 0.04150 0.26700
C 	C 	0.96266 0.43096 0.98270 0.11700
C 	C 	0.96266 0.43096 0.86880 -0.09100
H 	H 	0.93460 0.37920 0.82610 0.05900
O 	O 	0.38600 0.88060 0.63270 -0.58700
O 	O 	0.40900 0.79090 0.49920 -0.56700
C 	C 	0.41670 0.86370 0.54150 0.50600
C 	C 	0.46266 0.93096 0.48270 -0.16200
C 	C 	0.46266 0.93096 0.36880 0.04600
H 	H 	0.43460 0.87920 0.32610 0.01800
O 	O 	0.61400 0.11940 0.63270 -0.59500
O 	O 	0.59100 0.20910 0.49920 -0.57000
C 	C 	0.58330 0.13630 0.54150 0.50900
C 	C 	0.53734 0.06904 0.48270 -0.18100
C 	C 	0.53734 0.06904 0.36880 0.02800
H 	H 	0.56540 0.12080 0.32610 0.01900
O 	O 	0.11400 0.61940 0.13270 -0.54900
O 	O 	0.09100 0.70910 0.99920 -0.44600
C 	C 	0.08330 0.63630 0.04150 0.26700
C 	C 	0.03734 0.56904 0.98270 0.10900
C 	C 	0.03734 0.56904 0.86880 -0.10000
H 	H 	0.06540 0.62080 0.82610 0.06000
O 	O 	0.88060 0.11400 0.88270 -0.57100
O 	O 	0.79090 0.09100 0.74920 -0.56200
C 	C 	0.86370 0.08330 0.79150 0.50600
C 	C 	0.93096 0.03734 0.73270 -0.17300
C 	C 	0.93096 0.03734 0.61880 0.05500
H 	H 	0.87920 0.06540 0.57610 0.01400
O 	O 	0.38060 0.61400 0.38270 -0.60300
O 	O 	0.29090 0.59100 0.24920 -0.58100
C 	C 	0.36370 0.58330 0.29150 0.52500
C 	C 	0.43096 0.53734 0.23270 -0.22300
C 	C 	0.43096 0.53734 0.11880 0.08700
H 	H 	0.37920 0.56540 0.07610 -0.01700
O 	O 	0.61940 0.38600 0.38270 -0.60400
O 	O 	0.70910 0.40900 0.24920 -0.58000
C 	C 	0.63630 0.41670 0.29150 0.52500
C 	C 	0.56904 0.46266 0.23270 -0.22300
C 	C 	0.56904 0.46266 0.11880 0.08700
H 	H 	0.62080 0.43460 0.07610 -0.01600
O 	O 	0.11940 0.88600 0.88270 -0.56700
O 	O 	0.20910 0.90900 0.74920 -0.55800
C 	C 	0.13630 0.91670 0.79150 0.50400
C 	C 	0.06904 0.96266 0.73270 -0.16100
C 	C 	0.06904 0.96266 0.61880 0.06500
H 	H 	0.12080 0.93460 0.57610 0.01500
In	In	0.68370 0.31630 0.50000 2.01700
In	In	0.18370 0.81630 -0.00000 1.99900
In	In	0.81630 0.18370 -0.00000 1.99900
In	In	0.31630 0.68370 0.50000 2.01700
In	In	0.68370 0.18370 0.75000 2.01900
In	In	0.18370 0.68370 0.25000 2.01400
In	In	0.81630 0.31630 0.25000 2.01400
In	In	0.31630 0.81630 0.75000 2.01900
O 	O 	0.75800 0.25000 0.62500 -0.83400
H 	H 	0.81630 0.25000 0.62500 0.27400
O 	O 	0.25800 0.75000 0.12500 -0.84700
H 	H 	0.31630 0.75000 0.12500 0.26700
O 	O 	0.74200 0.25000 0.12500 -0.84700
H 	H 	0.68370 0.25000 0.12500 0.26600
O 	O 	0.24200 0.75000 0.62500 -0.83400
H 	H 	0.18370 0.75000 0.62500 0.27400
O 	O 	0.75000 0.25800 0.87500 -0.81700
H 	H 	0.75000 0.31630 0.87500 0.28100
O 	O 	0.25000 0.75800 0.37500 -0.83500
H 	H 	0.25000 0.81630 0.37500 0.27500
O 	O 	0.75000 0.24200 0.37500 -0.83500
H 	H 	0.75000 0.18370 0.37500 0.27400
O 	O 	0.25000 0.74200 0.87500 -0.81600
H 	H 	0.25000 0.68370 0.87500 0.28000
C 	C 	0.50000 0.50000 0.71040 0.10900
C 	C 	0.50000 0.50000 0.93810 0.06800
H 	H 	0.50000 0.50000 0.62490 0.03000
C 	C 	0.00000 0.00000 0.21040 0.08900
C 	C 	0.00000 0.00000 0.43810 -0.06600
H 	H 	-0.00000 -0.00000 0.12490 0.01100
C 	C 	0.50000 -0.00000 0.96040 0.42800
C 	C 	0.50000 -0.00000 0.18810 -0.16700
H 	H 	0.50000 0.00000 0.87490 -0.05500
C 	C 	-0.00000 0.50000 0.46040 0.12300
C 	C 	-0.00000 0.50000 0.68810 -0.08500
H 	H 	-0.00000 0.50000 0.37490 0.01800
C 	C 	-0.00000 0.50000 0.03960 -0.21800
C 	C 	-0.00000 0.50000 0.81190 0.07400
H 	H 	-0.00000 0.50000 0.12510 0.10500
C 	C 	0.50000 0.00000 0.53960 0.08800
C 	C 	0.50000 0.00000 0.31190 -0.01100
H 	H 	0.50000 0.00000 0.62510 0.03300
C 	C 	-0.00000 -0.00000 0.78960 0.07900
C 	C 	0.00000 0.00000 0.56190 -0.05800
H 	H 	0.00000 0.00000 0.87510 0.04200
C 	C 	0.50000 0.50000 0.28960 0.14300
C 	C 	0.50000 0.50000 0.06190 -0.13600
H 	H 	0.50000 0.50000 0.37510 0.01900
