data_crystal

_cell_length_a 15.48280
_cell_length_b 15.48280
_cell_length_c 12.30090
_cell_angle_alpha 90.00000
_cell_angle_beta  90.00000
_cell_angle_gamma 90.00000

_symmetry_space_group_name_	'P 1'
_symmetry_space_group_name_H-M	'P 1'

loop_
_symmetry_equiv_pos_as_xyz
  x,y,z

loop_
_atom_site_label
_atom_site_type_symbol
_atom_site_fract_x
_atom_site_fract_y
_atom_site_fract_z
_atom_site_charge
O 	O 	0.61150 0.37930 0.61530 -0.59100
O 	O 	0.59330 0.29220 0.75500 -0.55400
C 	C 	0.58480 0.36370 0.70920 0.49000
C 	C 	0.54161 0.43240 0.76810 -0.15000
C 	C 	0.54161 0.43240 0.88350 -0.00400
H 	H 	0.57160 0.38370 0.92500 0.05400
O 	O 	0.11150 0.87930 0.11530 -0.61100
O 	O 	0.09330 0.79220 0.25500 -0.56900
C 	C 	0.08480 0.86370 0.20920 0.49700
C 	C 	0.04161 0.93240 0.26810 -0.16400
C 	C 	0.04161 0.93240 0.38350 0.05800
H 	H 	0.07160 0.88370 0.42500 0.01500
O 	O 	0.88850 0.12070 0.11530 -0.61500
O 	O 	0.90670 0.20780 0.25500 -0.56900
C 	C 	0.91520 0.13630 0.20920 0.49800
C 	C 	0.95839 0.06760 0.26810 -0.17300
C 	C 	0.95839 0.06760 0.38350 0.04800
H 	H 	0.92840 0.11630 0.42500 0.01600
O 	O 	0.38850 0.62070 0.61530 -0.59100
O 	O 	0.40670 0.70780 0.75500 -0.55200
C 	C 	0.41520 0.63630 0.70920 0.49000
C 	C 	0.45839 0.56760 0.76810 -0.14900
C 	C 	0.45839 0.56760 0.88350 -0.00300
H 	H 	0.42840 0.61630 0.92500 0.05400
O 	O 	0.62070 0.11150 0.86530 -0.64500
O 	O 	0.70780 0.09330 0.00500 -0.68000
C 	C 	0.63630 0.08480 0.95920 0.73700
C 	C 	0.56760 0.04161 0.01810 -0.46300
C 	C 	0.56760 0.04161 0.13350 0.17700
H 	H 	0.61630 0.07160 0.17500 -0.02700
O 	O 	0.12070 0.61150 0.36530 -0.60200
O 	O 	0.20780 0.59330 0.50500 -0.56600
C 	C 	0.13630 0.58480 0.45920 0.50300
C 	C 	0.06760 0.54161 0.51810 -0.18800
C 	C 	0.06760 0.54161 0.63350 0.06100
H 	H 	0.11630 0.57160 0.67500 0.01200
O 	O 	0.87930 0.38850 0.36530 -0.59900
O 	O 	0.79220 0.40670 0.50500 -0.56400
C 	C 	0.86370 0.41520 0.45920 0.50200
C 	C 	0.93240 0.45839 0.51810 -0.18000
C 	C 	0.93240 0.45839 0.63350 0.07000
H 	H 	0.88370 0.42840 0.67500 0.01200
O 	O 	0.37930 0.88850 0.86530 -0.63800
O 	O 	0.29220 0.90670 0.00500 -0.67800
C 	C 	0.36370 0.91520 0.95920 0.74000
C 	C 	0.43240 0.95839 0.01810 -0.44900
C 	C 	0.43240 0.95839 0.13350 0.19600
H 	H 	0.38370 0.92840 0.17500 -0.02800
O 	O 	0.88850 0.37930 0.13470 -0.54200
O 	O 	0.90670 0.29220 0.99500 -0.44000
C 	C 	0.91520 0.36370 0.04080 0.25200
C 	C 	0.95839 0.43240 0.98190 0.12500
C 	C 	0.95839 0.43240 0.86650 -0.09700
H 	H 	0.92840 0.38370 0.82500 0.06300
O 	O 	0.38850 0.87930 0.63470 -0.58200
O 	O 	0.40670 0.79220 0.49500 -0.56000
C 	C 	0.41520 0.86370 0.54080 0.48900
C 	C 	0.45839 0.93240 0.48190 -0.14400
C 	C 	0.45839 0.93240 0.36650 0.03100
H 	H 	0.42840 0.88370 0.32500 0.02300
O 	O 	0.61150 0.12070 0.63470 -0.59000
O 	O 	0.59330 0.20780 0.49500 -0.56300
C 	C 	0.58480 0.13630 0.54080 0.49100
C 	C 	0.54161 0.06760 0.48190 -0.16100
C 	C 	0.54161 0.06760 0.36650 0.01300
H 	H 	0.57160 0.11630 0.32500 0.02400
O 	O 	0.11150 0.62070 0.13470 -0.54600
O 	O 	0.09330 0.70780 0.99500 -0.44000
C 	C 	0.08480 0.63630 0.04080 0.25300
C 	C 	0.04161 0.56760 0.98190 0.11800
C 	C 	0.04161 0.56760 0.86650 -0.10500
H 	H 	0.07160 0.61630 0.82500 0.06400
O 	O 	0.87930 0.11150 0.88470 -0.56500
O 	O 	0.79220 0.09330 0.74500 -0.55600
C 	C 	0.86370 0.08480 0.79080 0.48800
C 	C 	0.93240 0.04161 0.73190 -0.15400
C 	C 	0.93240 0.04161 0.61650 0.04000
H 	H 	0.88370 0.07160 0.57500 0.01800
O 	O 	0.37930 0.61150 0.38470 -0.59900
O 	O 	0.29220 0.59330 0.24500 -0.57500
C 	C 	0.36370 0.58480 0.29080 0.50800
C 	C 	0.43240 0.54161 0.23190 -0.20500
C 	C 	0.43240 0.54161 0.11650 0.07900
H 	H 	0.38370 0.57160 0.07500 -0.01600
O 	O 	0.62070 0.38850 0.38470 -0.59900
O 	O 	0.70780 0.40670 0.24500 -0.57300
C 	C 	0.63630 0.41520 0.29080 0.50800
C 	C 	0.56760 0.45839 0.23190 -0.20500
C 	C 	0.56760 0.45839 0.11650 0.07900
H 	H 	0.61630 0.42840 0.07500 -0.01600
O 	O 	0.12070 0.88850 0.88470 -0.56100
O 	O 	0.20780 0.90670 0.74500 -0.55100
C 	C 	0.13630 0.91520 0.79080 0.48700
C 	C 	0.06760 0.95839 0.73190 -0.14300
C 	C 	0.06760 0.95839 0.61650 0.05100
H 	H 	0.11630 0.92840 0.57500 0.01800
In	In	0.68330 0.31670 0.50000 2.01900
In	In	0.18330 0.81670 -0.00000 2.00000
In	In	0.81670 0.18330 -0.00000 2.00100
In	In	0.31670 0.68330 0.50000 2.01900
In	In	0.68330 0.18330 0.75000 2.02100
In	In	0.18330 0.68330 0.25000 2.01600
In	In	0.81670 0.31670 0.25000 2.01600
In	In	0.31670 0.81670 0.75000 2.02100
O 	O 	0.75490 0.25000 0.62500 -0.84000
H 	H 	0.81300 0.25000 0.62500 0.27500
O 	O 	0.25490 0.75000 0.12500 -0.85300
H 	H 	0.31300 0.75000 0.12500 0.26900
O 	O 	0.74510 0.25000 0.12500 -0.85300
H 	H 	0.68700 0.25000 0.12500 0.26800
O 	O 	0.24510 0.75000 0.62500 -0.84000
H 	H 	0.18700 0.75000 0.62500 0.27500
O 	O 	0.75000 0.25490 0.87500 -0.82300
H 	H 	0.75000 0.31300 0.87500 0.28200
O 	O 	0.25000 0.75490 0.37500 -0.84100
H 	H 	0.25000 0.81300 0.37500 0.27600
O 	O 	0.75000 0.24510 0.37500 -0.84100
H 	H 	0.75000 0.18700 0.37500 0.27500
O 	O 	0.25000 0.74510 0.87500 -0.82200
H 	H 	0.25000 0.68700 0.87500 0.28100
C 	C 	0.50000 0.50000 0.71040 0.08800
C 	C 	0.50000 0.50000 0.94120 0.09100
H 	H 	0.50000 0.50000 0.62730 0.03600
C 	C 	0.00000 0.00000 0.21040 0.07100
C 	C 	0.00000 0.00000 0.44120 -0.05500
H 	H 	0.00000 0.00000 0.12730 0.01700
C 	C 	0.50000 -0.00000 0.96040 0.40200
C 	C 	0.50000 0.00000 0.19120 -0.15200
H 	H 	0.50000 0.00000 0.87730 -0.05100
C 	C 	0.00000 0.50000 0.46040 0.10400
C 	C 	-0.00000 0.50000 0.69120 -0.07800
H 	H 	0.00000 0.50000 0.37730 0.02300
C 	C 	0.00000 0.50000 0.03960 -0.23000
C 	C 	0.00000 0.50000 0.80880 0.07800
H 	H 	0.00000 0.50000 0.12270 0.11400
C 	C 	0.50000 0.00000 0.53960 0.06900
C 	C 	0.50000 0.00000 0.30880 0.00200
H 	H 	0.50000 0.00000 0.62270 0.03900
C 	C 	0.00000 0.00000 0.78960 0.06100
C 	C 	0.00000 0.00000 0.55880 -0.04700
H 	H 	0.00000 0.00000 0.87270 0.04800
C 	C 	0.50000 0.50000 0.28960 0.12400
C 	C 	0.50000 0.50000 0.05880 -0.14100
H 	H 	0.50000 0.50000 0.37270 0.02400
