data_crystal

_cell_length_a 15.49790
_cell_length_b 15.49790
_cell_length_c 12.30520
_cell_angle_alpha 90.00000
_cell_angle_beta  90.00000
_cell_angle_gamma 90.00000

_symmetry_space_group_name_	'P 1'
_symmetry_space_group_name_H-M	'P 1'

loop_
_symmetry_equiv_pos_as_xyz
  x,y,z

loop_
_atom_site_label
_atom_site_type_symbol
_atom_site_fract_x
_atom_site_fract_y
_atom_site_fract_z
_atom_site_charge
O 	O 	0.60820 0.37730 0.61670 -0.62100
O 	O 	0.59180 0.29240 0.75530 -0.56700
C 	C 	0.58280 0.36260 0.70980 0.53100
C 	C 	0.54000 0.43149 0.76870 -0.16800
C 	C 	0.54000 0.43149 0.88410 0.00000
H 	H 	0.56810 0.38330 0.92460 0.05200
O 	O 	0.10820 0.87730 0.11670 -0.63900
O 	O 	0.09180 0.79240 0.25530 -0.58200
C 	C 	0.08280 0.86260 0.20980 0.54000
C 	C 	0.04000 0.93149 0.26870 -0.18500
C 	C 	0.04000 0.93149 0.38410 0.06800
H 	H 	0.06810 0.88330 0.42460 0.01200
O 	O 	0.89180 0.12270 0.11670 -0.64300
O 	O 	0.90820 0.20760 0.25530 -0.58200
C 	C 	0.91720 0.13740 0.20980 0.54100
C 	C 	0.96000 0.06851 0.26870 -0.19400
C 	C 	0.96000 0.06851 0.38410 0.05800
H 	H 	0.93190 0.11670 0.42460 0.01300
O 	O 	0.39180 0.62270 0.61670 -0.62000
O 	O 	0.40820 0.70760 0.75530 -0.56500
C 	C 	0.41720 0.63740 0.70980 0.53100
C 	C 	0.46000 0.56851 0.76870 -0.16800
C 	C 	0.46000 0.56851 0.88410 0.00100
H 	H 	0.43190 0.61670 0.92460 0.05300
O 	O 	0.62270 0.10820 0.86670 -0.67700
O 	O 	0.70760 0.09180 0.00530 -0.69500
C 	C 	0.63740 0.08280 0.95980 0.78500
C 	C 	0.56851 0.04000 0.01870 -0.48700
C 	C 	0.56851 0.04000 0.13410 0.19400
H 	H 	0.61670 0.06810 0.17460 -0.03400
O 	O 	0.12270 0.60820 0.36670 -0.63100
O 	O 	0.20760 0.59180 0.50530 -0.57900
C 	C 	0.13740 0.58280 0.45980 0.54700
C 	C 	0.06851 0.54000 0.51870 -0.21100
C 	C 	0.06851 0.54000 0.63410 0.07300
H 	H 	0.11670 0.56810 0.67460 0.00800
O 	O 	0.87730 0.39180 0.36670 -0.62800
O 	O 	0.79240 0.40820 0.50530 -0.57700
C 	C 	0.86260 0.41720 0.45980 0.54600
C 	C 	0.93149 0.46000 0.51870 -0.20200
C 	C 	0.93149 0.46000 0.63410 0.08200
H 	H 	0.88330 0.43190 0.67460 0.00800
O 	O 	0.37730 0.89180 0.86670 -0.67000
O 	O 	0.29240 0.90820 0.00530 -0.69300
C 	C 	0.36260 0.91720 0.95980 0.78800
C 	C 	0.43149 0.96000 0.01870 -0.47300
C 	C 	0.43149 0.96000 0.13410 0.21400
H 	H 	0.38330 0.93190 0.17460 -0.03500
O 	O 	0.89180 0.37730 0.13330 -0.56700
O 	O 	0.90820 0.29240 0.99470 -0.45100
C 	C 	0.91720 0.36260 0.04020 0.29000
C 	C 	0.96000 0.43149 0.98130 0.10900
C 	C 	0.96000 0.43149 0.86590 -0.09700
H 	H 	0.93190 0.38330 0.82540 0.06500
O 	O 	0.39180 0.87730 0.63330 -0.61000
O 	O 	0.40820 0.79240 0.49470 -0.57200
C 	C 	0.41720 0.86260 0.54020 0.53100
C 	C 	0.46000 0.93149 0.48130 -0.16200
C 	C 	0.46000 0.93149 0.36590 0.03600
H 	H 	0.43190 0.88330 0.32540 0.02200
O 	O 	0.60820 0.12270 0.63330 -0.61900
O 	O 	0.59180 0.20760 0.49470 -0.57600
C 	C 	0.58280 0.13740 0.54020 0.53300
C 	C 	0.54000 0.06851 0.48130 -0.18000
C 	C 	0.54000 0.06851 0.36590 0.01800
H 	H 	0.56810 0.11670 0.32540 0.02300
O 	O 	0.10820 0.62270 0.13330 -0.57100
O 	O 	0.09180 0.70760 0.99470 -0.45100
C 	C 	0.08280 0.63740 0.04020 0.29100
C 	C 	0.04000 0.56851 0.98130 0.10100
C 	C 	0.04000 0.56851 0.86590 -0.10600
H 	H 	0.06810 0.61670 0.82540 0.06600
O 	O 	0.87730 0.10820 0.88330 -0.59400
O 	O 	0.79240 0.09180 0.74470 -0.56800
C 	C 	0.86260 0.08280 0.79020 0.52900
C 	C 	0.93149 0.04000 0.73130 -0.17300
C 	C 	0.93149 0.04000 0.61590 0.04900
H 	H 	0.88330 0.06810 0.57540 0.01600
O 	O 	0.37730 0.60820 0.38330 -0.62800
O 	O 	0.29240 0.59180 0.24470 -0.58800
C 	C 	0.36260 0.58280 0.29020 0.55300
C 	C 	0.43149 0.54000 0.23130 -0.22900
C 	C 	0.43149 0.54000 0.11590 0.09100
H 	H 	0.38330 0.56810 0.07540 -0.02000
O 	O 	0.62270 0.39180 0.38330 -0.62800
O 	O 	0.70760 0.40820 0.24470 -0.58600
C 	C 	0.63740 0.41720 0.29020 0.55300
C 	C 	0.56851 0.46000 0.23130 -0.22800
C 	C 	0.56851 0.46000 0.11590 0.09200
H 	H 	0.61670 0.43190 0.07540 -0.01900
O 	O 	0.12270 0.89180 0.88330 -0.58900
O 	O 	0.20760 0.90820 0.74470 -0.56400
C 	C 	0.13740 0.91720 0.79020 0.52800
C 	C 	0.06851 0.96000 0.73130 -0.16300
C 	C 	0.06851 0.96000 0.61590 0.05900
H 	H 	0.11670 0.93190 0.57540 0.01600
In	In	0.68050 0.31950 0.50000 2.01500
In	In	0.18050 0.81950 -0.00000 1.99800
In	In	0.81950 0.18050 -0.00000 1.99800
In	In	0.31950 0.68050 0.50000 2.01500
In	In	0.68050 0.18050 0.75000 2.01800
In	In	0.18050 0.68050 0.25000 2.01300
In	In	0.81950 0.31950 0.25000 2.01300
In	In	0.31950 0.81950 0.75000 2.01800
O 	O 	0.75570 0.25000 0.62500 -0.80800
H 	H 	0.81380 0.25000 0.62500 0.27000
O 	O 	0.25570 0.75000 0.12500 -0.82000
H 	H 	0.31380 0.75000 0.12500 0.26300
O 	O 	0.74430 0.25000 0.12500 -0.82000
H 	H 	0.68620 0.25000 0.12500 0.26300
O 	O 	0.24430 0.75000 0.62500 -0.80800
H 	H 	0.18620 0.75000 0.62500 0.27000
O 	O 	0.75000 0.25570 0.87500 -0.79100
H 	H 	0.75000 0.31380 0.87500 0.27600
O 	O 	0.25000 0.75570 0.37500 -0.80900
H 	H 	0.25000 0.81380 0.37500 0.27100
O 	O 	0.75000 0.24430 0.37500 -0.80900
H 	H 	0.75000 0.18620 0.37500 0.26900
O 	O 	0.25000 0.74430 0.87500 -0.79100
H 	H 	0.25000 0.68620 0.87500 0.27500
C 	C 	0.50000 0.50000 0.71100 0.10200
C 	C 	0.50000 0.50000 0.94180 0.09100
H 	H 	0.50000 0.50000 0.62990 0.02900
C 	C 	-0.00000 -0.00000 0.21100 0.08600
C 	C 	-0.00000 -0.00000 0.44180 -0.06000
H 	H 	0.00000 0.00000 0.12990 0.01000
C 	C 	0.50000 -0.00000 0.96100 0.42600
C 	C 	0.50000 -0.00000 0.19180 -0.16400
H 	H 	0.50000 -0.00000 0.87990 -0.06600
C 	C 	0.00000 0.50000 0.46100 0.12100
C 	C 	-0.00000 0.50000 0.69180 -0.08800
H 	H 	-0.00000 0.50000 0.37990 0.01500
C 	C 	-0.00000 0.50000 0.03900 -0.22400
C 	C 	-0.00000 0.50000 0.80820 0.08100
H 	H 	-0.00000 0.50000 0.12010 0.11300
C 	C 	0.50000 0.00000 0.53900 0.08200
C 	C 	0.50000 -0.00000 0.30820 0.00200
H 	H 	0.50000 0.00000 0.62010 0.03200
C 	C 	-0.00000 0.00000 0.78900 0.07300
C 	C 	-0.00000 0.00000 0.55820 -0.05100
H 	H 	0.00000 0.00000 0.87010 0.04100
C 	C 	0.50000 0.50000 0.28900 0.14300
C 	C 	0.50000 0.50000 0.05820 -0.15000
H 	H 	0.50000 0.50000 0.37010 0.01600
