data_crystal

_cell_length_a 13.83250
_cell_length_b 40.43500
_cell_length_c 60.96200
_cell_angle_alpha 90.00000
_cell_angle_beta  90.00000
_cell_angle_gamma 90.00000

_symmetry_space_group_name_	'P 1'
_symmetry_space_group_name_H-M	'P 1'

loop_
_symmetry_equiv_pos_as_xyz
  x,y,z

loop_
_atom_site_label
_atom_site_type_symbol
_atom_site_fract_x
_atom_site_fract_y
_atom_site_fract_z
_atom_site_charge
O 	O 	0.04400 0.53620 0.52760 -0.39800
O 	O 	0.06650 0.54600 0.48430 -0.45900
C 	C 	0.78860 0.70142 0.37632 0.06500
C 	C 	0.77620 0.71990 0.39533 -0.09600
H 	H 	0.81070 0.71460 0.40790 0.06600
C 	C 	0.71200 0.74640 0.39551 -0.02300
H 	H 	0.70370 0.75880 0.40820 0.04200
C 	C 	0.66040 0.75430 0.37670 -0.01500
C 	C 	0.67280 0.73580 0.35767 -0.02100
H 	H 	0.63830 0.74120 0.34510 0.04800
C 	C 	0.73700 0.70940 0.35749 -0.09800
H 	H 	0.74530 0.69700 0.34480 0.06700
Cu	Cu	0.08789 0.50930 0.50401 0.90100
C 	C 	0.78170 0.56990 0.57602 0.01300
C 	C 	0.69470 0.55794 0.58418 -0.04000
H 	H 	0.66880 0.53840 0.57870 0.04600
C 	C 	0.64640 0.57510 0.60061 -0.08000
H 	H 	0.58820 0.56710 0.60610 0.06300
C 	C 	0.68520 0.60430 0.60888 0.05400
C 	C 	0.77220 0.61627 0.60071 -0.07600
H 	H 	0.79820 0.63580 0.60620 0.07000
C 	C 	0.82050 0.59910 0.58428 -0.04000
H 	H 	0.87880 0.60710 0.57880 0.07000
C 	C 	0.88370 0.65261 0.39461 0.06500
C 	C 	0.97110 0.63650 0.39816 -0.09800
H 	H 	0.02400 0.64100 0.38930 0.06500
C 	C 	0.97930 0.61350 0.41502 -0.02100
H 	H 	0.03770 0.60270 0.41740 0.03600
C 	C 	0.90020 0.60670 0.42834 -0.01600
C 	C 	0.81280 0.62280 0.42479 -0.02200
H 	H 	0.75990 0.61830 0.43370 0.03800
C 	C 	0.80460 0.64580 0.40793 -0.09900
H 	H 	0.74620 0.65660 0.40560 0.06600
C 	C 	0.91230 0.55390 0.55160 -0.16400
H 	H 	0.95420 0.56690 0.55980 0.12000
C 	C 	0.91040 0.58220 0.44640 0.04700
H 	H 	0.85350 0.57190 0.45080 0.03600
C 	C 	0.82280 0.55290 0.55710 0.01400
H 	H 	0.78110 0.54040 0.54840 0.04700
C 	C 	0.60200 0.78410 0.37740 0.06800
C 	C 	0.98970 0.57300 0.45710 -0.22800
H 	H 	0.04700 0.58360 0.45340 0.12600
C 	C 	0.95490 0.53370 0.53120 0.32600
C 	C 	0.99500 0.54690 0.47480 0.42300
O 	O 	0.88320 0.51910 0.52094 -0.39400
O 	O 	0.91250 0.53000 0.47612 -0.40100
C 	C 	0.49400 0.82940 0.37200 0.45400
O 	O 	0.49160 0.84330 0.39130 -0.37200
O 	O 	0.45600 0.83790 0.35720 -0.46900
C 	C 	0.28600 0.87610 0.48070 0.05800
O 	O 	0.32690 0.87550 0.43050 -0.37300
C 	C 	0.55100 0.79930 0.36650 -0.12500
C 	C 	0.68200 0.44270 0.38960 -0.00600
O 	O 	0.04400 0.03620 0.02760 -0.39700
O 	O 	0.06650 0.04600 0.98430 -0.45800
C 	C 	0.78860 0.20142 0.87632 0.06600
C 	C 	0.77620 0.21990 0.89533 -0.09500
H 	H 	0.81070 0.21460 0.90790 0.06700
C 	C 	0.71200 0.24640 0.89551 -0.02200
H 	H 	0.70370 0.25880 0.90820 0.04300
C 	C 	0.66040 0.25430 0.87670 -0.01400
C 	C 	0.67280 0.23580 0.85767 -0.02000
H 	H 	0.63830 0.24120 0.84510 0.04900
C 	C 	0.73700 0.20940 0.85749 -0.09700
H 	H 	0.74530 0.19700 0.84480 0.06800
Cu	Cu	0.08789 0.00930 0.00401 0.90200
C 	C 	0.78170 0.06990 0.07602 0.01400
C 	C 	0.69470 0.05794 0.08418 -0.03900
H 	H 	0.66880 0.03840 0.07870 0.04700
C 	C 	0.64640 0.07510 0.10061 -0.07900
H 	H 	0.58820 0.06710 0.10610 0.06400
C 	C 	0.68520 0.10430 0.10888 0.05500
C 	C 	0.77220 0.11627 0.10071 -0.07500
H 	H 	0.79820 0.13580 0.10620 0.07100
C 	C 	0.82050 0.09910 0.08428 -0.03900
H 	H 	0.87880 0.10710 0.07880 0.07100
C 	C 	0.88370 0.15261 0.89461 0.06600
C 	C 	0.97110 0.13650 0.89816 -0.09700
H 	H 	0.02400 0.14100 0.88930 0.06600
C 	C 	0.97930 0.11350 0.91502 -0.02000
H 	H 	0.03770 0.10270 0.91740 0.03700
C 	C 	0.90020 0.10670 0.92834 -0.01500
C 	C 	0.81280 0.12280 0.92479 -0.02100
H 	H 	0.75990 0.11830 0.93370 0.03900
C 	C 	0.80460 0.14580 0.90793 -0.09800
H 	H 	0.74620 0.15660 0.90560 0.06700
C 	C 	0.91230 0.05390 0.05160 -0.16300
H 	H 	0.95420 0.06690 0.05980 0.12000
C 	C 	0.91040 0.08220 0.94640 0.04700
H 	H 	0.85350 0.07190 0.95080 0.03600
C 	C 	0.82280 0.05290 0.05710 0.01400
H 	H 	0.78110 0.04040 0.04840 0.04700
C 	C 	0.60200 0.28410 0.87740 0.06800
C 	C 	0.98970 0.07300 0.95710 -0.22800
H 	H 	0.04700 0.08360 0.95340 0.12600
C 	C 	0.95490 0.03370 0.03120 0.32600
C 	C 	0.99500 0.04690 0.97480 0.42300
O 	O 	0.88320 0.01910 0.02094 -0.39400
O 	O 	0.91250 0.03000 0.97612 -0.40100
C 	C 	0.49400 0.32940 0.87200 0.45400
O 	O 	0.49160 0.34330 0.89130 -0.37200
O 	O 	0.45600 0.33790 0.85720 -0.46900
C 	C 	0.28600 0.37610 0.98070 0.05800
O 	O 	0.32690 0.37550 0.93050 -0.37300
C 	C 	0.55100 0.29930 0.86650 -0.12500
C 	C 	0.68200 0.94270 0.88960 -0.00600
O 	O 	0.54400 0.53620 0.02760 -0.39700
O 	O 	0.56650 0.54600 0.98430 -0.45800
C 	C 	0.28860 0.70142 0.87632 0.06600
C 	C 	0.27620 0.71990 0.89533 -0.09500
H 	H 	0.31070 0.71460 0.90790 0.06700
C 	C 	0.21200 0.74640 0.89551 -0.02200
H 	H 	0.20370 0.75880 0.90820 0.04200
C 	C 	0.16040 0.75430 0.87670 -0.01400
C 	C 	0.17280 0.73580 0.85767 -0.01900
H 	H 	0.13830 0.74120 0.84510 0.04900
C 	C 	0.23700 0.70940 0.85749 -0.09800
H 	H 	0.24530 0.69700 0.84480 0.06800
Cu	Cu	0.58789 0.50930 0.00401 0.90200
C 	C 	0.28170 0.56990 0.07602 0.01400
C 	C 	0.19470 0.55794 0.08418 -0.03900
H 	H 	0.16880 0.53840 0.07870 0.04700
C 	C 	0.14640 0.57510 0.10061 -0.07900
H 	H 	0.08820 0.56710 0.10610 0.06400
C 	C 	0.18520 0.60430 0.10888 0.05500
C 	C 	0.27220 0.61627 0.10071 -0.07500
H 	H 	0.29820 0.63580 0.10620 0.07100
C 	C 	0.32050 0.59910 0.08428 -0.03900
H 	H 	0.37880 0.60710 0.07880 0.07100
C 	C 	0.38370 0.65261 0.89461 0.06600
C 	C 	0.47110 0.63650 0.89816 -0.09800
H 	H 	0.52400 0.64100 0.88930 0.06600
C 	C 	0.47930 0.61350 0.91502 -0.02000
H 	H 	0.53770 0.60270 0.91740 0.03800
C 	C 	0.40020 0.60670 0.92834 -0.01500
C 	C 	0.31280 0.62280 0.92479 -0.02100
H 	H 	0.25990 0.61830 0.93370 0.03900
C 	C 	0.30460 0.64580 0.90793 -0.09800
H 	H 	0.24620 0.65660 0.90560 0.06700
C 	C 	0.41230 0.55390 0.05160 -0.16400
H 	H 	0.45420 0.56690 0.05980 0.12000
C 	C 	0.41040 0.58220 0.94640 0.04700
H 	H 	0.35350 0.57190 0.95080 0.03600
C 	C 	0.32280 0.55290 0.05710 0.01400
H 	H 	0.28110 0.54040 0.04840 0.04700
C 	C 	0.10200 0.78410 0.87740 0.06800
C 	C 	0.48970 0.57300 0.95710 -0.22800
H 	H 	0.54700 0.58360 0.95340 0.12600
C 	C 	0.45490 0.53370 0.03120 0.32600
C 	C 	0.49500 0.54690 0.97480 0.42300
O 	O 	0.38320 0.51910 0.02094 -0.39400
O 	O 	0.41250 0.53000 0.97612 -0.40100
C 	C 	0.99400 0.82940 0.87200 0.45500
O 	O 	0.99160 0.84330 0.89130 -0.37200
O 	O 	0.95600 0.83790 0.85720 -0.46900
C 	C 	0.78600 0.87610 0.98070 0.05800
O 	O 	0.82690 0.87550 0.93050 -0.37300
C 	C 	0.05100 0.79930 0.86650 -0.12600
C 	C 	0.18200 0.44270 0.88960 -0.00600
O 	O 	0.54400 0.03620 0.52760 -0.39700
O 	O 	0.56650 0.04600 0.48430 -0.45800
C 	C 	0.28860 0.20142 0.37632 0.06600
C 	C 	0.27620 0.21990 0.39533 -0.09500
H 	H 	0.31070 0.21460 0.40790 0.06700
C 	C 	0.21200 0.24640 0.39551 -0.02200
H 	H 	0.20370 0.25880 0.40820 0.04200
C 	C 	0.16040 0.25430 0.37670 -0.01400
C 	C 	0.17280 0.23580 0.35767 -0.01900
H 	H 	0.13830 0.24120 0.34510 0.04900
C 	C 	0.23700 0.20940 0.35749 -0.09800
H 	H 	0.24530 0.19700 0.34480 0.06800
Cu	Cu	0.58789 0.00930 0.50401 0.90200
C 	C 	0.28170 0.06990 0.57602 0.01400
C 	C 	0.19470 0.05794 0.58418 -0.03900
H 	H 	0.16880 0.03840 0.57870 0.04700
C 	C 	0.14640 0.07510 0.60061 -0.07900
H 	H 	0.08820 0.06710 0.60610 0.06400
C 	C 	0.18520 0.10430 0.60888 0.05500
C 	C 	0.27220 0.11627 0.60071 -0.07500
H 	H 	0.29820 0.13580 0.60620 0.07100
C 	C 	0.32050 0.09910 0.58428 -0.03900
H 	H 	0.37880 0.10710 0.57880 0.07100
C 	C 	0.38370 0.15261 0.39461 0.06600
C 	C 	0.47110 0.13650 0.39816 -0.09800
H 	H 	0.52400 0.14100 0.38930 0.06600
C 	C 	0.47930 0.11350 0.41502 -0.02000
H 	H 	0.53770 0.10270 0.41740 0.03800
C 	C 	0.40020 0.10670 0.42834 -0.01500
C 	C 	0.31280 0.12280 0.42479 -0.02100
H 	H 	0.25990 0.11830 0.43370 0.03900
C 	C 	0.30460 0.14580 0.40793 -0.09800
H 	H 	0.24620 0.15660 0.40560 0.06700
C 	C 	0.41230 0.05390 0.55160 -0.16400
H 	H 	0.45420 0.06690 0.55980 0.12000
C 	C 	0.41040 0.08220 0.44640 0.04700
H 	H 	0.35350 0.07190 0.45080 0.03600
C 	C 	0.32280 0.05290 0.55710 0.01400
H 	H 	0.28110 0.04040 0.54840 0.04700
C 	C 	0.10200 0.28410 0.37740 0.06800
C 	C 	0.48970 0.07300 0.45710 -0.22800
H 	H 	0.54700 0.08360 0.45340 0.12600
C 	C 	0.45490 0.03370 0.53120 0.32600
C 	C 	0.49500 0.04690 0.47480 0.42300
O 	O 	0.38320 0.01910 0.52094 -0.39400
O 	O 	0.41250 0.03000 0.47612 -0.40100
C 	C 	0.99400 0.32940 0.37200 0.45500
O 	O 	0.99160 0.34330 0.39130 -0.37200
O 	O 	0.95600 0.33790 0.35720 -0.46900
C 	C 	0.78600 0.37610 0.48070 0.05800
O 	O 	0.82690 0.37550 0.43050 -0.37300
C 	C 	0.05100 0.29930 0.36650 -0.12600
C 	C 	0.18200 0.94270 0.38960 -0.00600
O 	O 	0.70600 0.21380 0.52760 -0.39700
O 	O 	0.68350 0.20400 0.48430 -0.45800
C 	C 	0.96140 0.04858 0.37632 0.06600
C 	C 	0.97380 0.03010 0.39533 -0.09500
H 	H 	0.93930 0.03540 0.40790 0.06700
C 	C 	0.03800 0.00360 0.39551 -0.02300
H 	H 	0.04630 0.99120 0.40820 0.04300
C 	C 	0.08960 0.99570 0.37670 -0.01300
C 	C 	0.07720 0.01420 0.35767 -0.02000
H 	H 	0.11170 0.00880 0.34510 0.04900
C 	C 	0.01300 0.04060 0.35749 -0.09700
H 	H 	0.00470 0.05300 0.34480 0.06800
Cu	Cu	0.66211 0.24070 0.50401 0.90200
C 	C 	0.96830 0.18010 0.57602 0.01400
C 	C 	0.05530 0.19206 0.58418 -0.03900
H 	H 	0.08120 0.21160 0.57870 0.04700
C 	C 	0.10360 0.17490 0.60061 -0.07900
H 	H 	0.16180 0.18290 0.60610 0.06400
C 	C 	0.06480 0.14570 0.60888 0.05500
C 	C 	0.97780 0.13373 0.60071 -0.07500
H 	H 	0.95180 0.11420 0.60620 0.07100
C 	C 	0.92950 0.15090 0.58428 -0.03900
H 	H 	0.87120 0.14290 0.57880 0.07100
C 	C 	0.86630 0.09739 0.39461 0.06600
C 	C 	0.77890 0.11350 0.39816 -0.09700
H 	H 	0.72600 0.10900 0.38930 0.06600
C 	C 	0.77070 0.13650 0.41502 -0.02000
H 	H 	0.71230 0.14730 0.41740 0.03800
C 	C 	0.84980 0.14330 0.42834 -0.01400
C 	C 	0.93720 0.12720 0.42479 -0.02100
H 	H 	0.99010 0.13170 0.43370 0.04000
C 	C 	0.94540 0.10420 0.40793 -0.09700
H 	H 	0.00380 0.09340 0.40560 0.06600
C 	C 	0.83770 0.19610 0.55160 -0.16300
H 	H 	0.79580 0.18310 0.55980 0.12000
C 	C 	0.83960 0.16780 0.44640 0.04700
H 	H 	0.89650 0.17810 0.45080 0.03600
C 	C 	0.92720 0.19710 0.55710 0.01400
H 	H 	0.96890 0.20960 0.54840 0.04700
C 	C 	0.14800 0.96590 0.37740 0.06700
C 	C 	0.76030 0.17700 0.45710 -0.22800
H 	H 	0.70300 0.16640 0.45340 0.12600
C 	C 	0.79510 0.21630 0.53120 0.32600
C 	C 	0.75500 0.20310 0.47480 0.42300
O 	O 	0.86680 0.23090 0.52094 -0.39400
O 	O 	0.83750 0.22000 0.47612 -0.40100
C 	C 	0.25600 0.92060 0.37200 0.45400
O 	O 	0.25840 0.90670 0.39130 -0.37200
O 	O 	0.29400 0.91210 0.35720 -0.46900
C 	C 	0.46400 0.87390 0.48070 0.05800
O 	O 	0.42310 0.87450 0.43050 -0.37300
C 	C 	0.19900 0.95070 0.36650 -0.12500
C 	C 	0.06800 0.30730 0.38960 -0.00600
O 	O 	0.70600 0.71380 0.02760 -0.39700
O 	O 	0.68350 0.70400 0.98430 -0.45800
C 	C 	0.96140 0.54858 0.87632 0.06600
C 	C 	0.97380 0.53010 0.89533 -0.09500
H 	H 	0.93930 0.53540 0.90790 0.06700
C 	C 	0.03800 0.50360 0.89551 -0.02200
H 	H 	0.04630 0.49120 0.90820 0.04300
C 	C 	0.08960 0.49570 0.87670 -0.01400
C 	C 	0.07720 0.51420 0.85767 -0.02000
H 	H 	0.11170 0.50880 0.84510 0.04900
C 	C 	0.01300 0.54060 0.85749 -0.09700
H 	H 	0.00470 0.55300 0.84480 0.06800
Cu	Cu	0.66211 0.74070 0.00401 0.90200
C 	C 	0.96830 0.68010 0.07602 0.01400
C 	C 	0.05530 0.69206 0.08418 -0.03900
H 	H 	0.08120 0.71160 0.07870 0.04700
C 	C 	0.10360 0.67490 0.10061 -0.07900
H 	H 	0.16180 0.68290 0.10610 0.06400
C 	C 	0.06480 0.64570 0.10888 0.05500
C 	C 	0.97780 0.63373 0.10071 -0.07500
H 	H 	0.95180 0.61420 0.10620 0.07100
C 	C 	0.92950 0.65090 0.08428 -0.03900
H 	H 	0.87120 0.64290 0.07880 0.07100
C 	C 	0.86630 0.59739 0.89461 0.06600
C 	C 	0.77890 0.61350 0.89816 -0.09700
H 	H 	0.72600 0.60900 0.88930 0.06600
C 	C 	0.77070 0.63650 0.91502 -0.02000
H 	H 	0.71230 0.64730 0.91740 0.03800
C 	C 	0.84980 0.64330 0.92834 -0.01400
C 	C 	0.93720 0.62720 0.92479 -0.02100
H 	H 	0.99010 0.63170 0.93370 0.04000
C 	C 	0.94540 0.60420 0.90793 -0.09700
H 	H 	0.00380 0.59340 0.90560 0.06600
C 	C 	0.83770 0.69610 0.05160 -0.16300
H 	H 	0.79580 0.68310 0.05980 0.12000
C 	C 	0.83960 0.66780 0.94640 0.04700
H 	H 	0.89650 0.67810 0.95080 0.03600
C 	C 	0.92720 0.69710 0.05710 0.01400
H 	H 	0.96890 0.70960 0.04840 0.04700
C 	C 	0.14800 0.46590 0.87740 0.06700
C 	C 	0.76030 0.67700 0.95710 -0.22800
H 	H 	0.70300 0.66640 0.95340 0.12600
C 	C 	0.79510 0.71630 0.03120 0.32600
C 	C 	0.75500 0.70310 0.97480 0.42300
O 	O 	0.86680 0.73090 0.02094 -0.39400
O 	O 	0.83750 0.72000 0.97612 -0.40100
C 	C 	0.25600 0.42060 0.87200 0.45400
O 	O 	0.25840 0.40670 0.89130 -0.37200
O 	O 	0.29400 0.41210 0.85720 -0.46900
C 	C 	0.46400 0.37390 0.98070 0.05800
O 	O 	0.42310 0.37450 0.93050 -0.37300
C 	C 	0.19900 0.45070 0.86650 -0.12500
C 	C 	0.06800 0.80730 0.88960 -0.00600
O 	O 	0.20600 0.21380 0.02760 -0.39700
O 	O 	0.18350 0.20400 0.98430 -0.45800
C 	C 	0.46140 0.04858 0.87632 0.06600
C 	C 	0.47380 0.03010 0.89533 -0.09500
H 	H 	0.43930 0.03540 0.90790 0.06700
C 	C 	0.53800 0.00360 0.89551 -0.02200
H 	H 	0.54630 0.99120 0.90820 0.04300
C 	C 	0.58960 0.99570 0.87670 -0.01400
C 	C 	0.57720 0.01420 0.85767 -0.02000
H 	H 	0.61170 0.00880 0.84510 0.04900
C 	C 	0.51300 0.04060 0.85749 -0.09700
H 	H 	0.50470 0.05300 0.84480 0.06800
Cu	Cu	0.16211 0.24070 0.00401 0.90200
C 	C 	0.46830 0.18010 0.07602 0.01400
C 	C 	0.55530 0.19206 0.08418 -0.03900
H 	H 	0.58120 0.21160 0.07870 0.04700
C 	C 	0.60360 0.17490 0.10061 -0.07900
H 	H 	0.66180 0.18290 0.10610 0.06400
C 	C 	0.56480 0.14570 0.10888 0.05500
C 	C 	0.47780 0.13373 0.10071 -0.07500
H 	H 	0.45180 0.11420 0.10620 0.07100
C 	C 	0.42950 0.15090 0.08428 -0.03900
H 	H 	0.37120 0.14290 0.07880 0.07100
C 	C 	0.36630 0.09739 0.89461 0.06600
C 	C 	0.27890 0.11350 0.89816 -0.09800
H 	H 	0.22600 0.10900 0.88930 0.06600
C 	C 	0.27070 0.13650 0.91502 -0.02000
H 	H 	0.21230 0.14730 0.91740 0.03700
C 	C 	0.34980 0.14330 0.92834 -0.01500
C 	C 	0.43720 0.12720 0.92479 -0.02100
H 	H 	0.49010 0.13170 0.93370 0.03900
C 	C 	0.44540 0.10420 0.90793 -0.09800
H 	H 	0.50380 0.09340 0.90560 0.06700
C 	C 	0.33770 0.19610 0.05160 -0.16400
H 	H 	0.29580 0.18310 0.05980 0.12000
C 	C 	0.33960 0.16780 0.94640 0.04700
H 	H 	0.39650 0.17810 0.95080 0.03600
C 	C 	0.42720 0.19710 0.05710 0.01400
H 	H 	0.46890 0.20960 0.04840 0.04700
C 	C 	0.64800 0.96590 0.87740 0.06800
C 	C 	0.26030 0.17700 0.95710 -0.22800
H 	H 	0.20300 0.16640 0.95340 0.12600
C 	C 	0.29510 0.21630 0.03120 0.32600
C 	C 	0.25500 0.20310 0.97480 0.42300
O 	O 	0.36680 0.23090 0.02094 -0.39400
O 	O 	0.33750 0.22000 0.97612 -0.40100
C 	C 	0.75600 0.92060 0.87200 0.45400
O 	O 	0.75840 0.90670 0.89130 -0.37200
O 	O 	0.79400 0.91210 0.85720 -0.46900
C 	C 	0.96400 0.87390 0.98070 0.05800
O 	O 	0.92310 0.87450 0.93050 -0.37300
C 	C 	0.69900 0.95070 0.86650 -0.12500
C 	C 	0.56800 0.30730 0.88960 -0.00600
O 	O 	0.20600 0.71380 0.52760 -0.39700
O 	O 	0.18350 0.70400 0.48430 -0.45800
C 	C 	0.46140 0.54858 0.37632 0.06600
C 	C 	0.47380 0.53010 0.39533 -0.09500
H 	H 	0.43930 0.53540 0.40790 0.06700
C 	C 	0.53800 0.50360 0.39551 -0.02200
H 	H 	0.54630 0.49120 0.40820 0.04300
C 	C 	0.58960 0.49570 0.37670 -0.01400
C 	C 	0.57720 0.51420 0.35767 -0.02000
H 	H 	0.61170 0.50880 0.34510 0.04900
C 	C 	0.51300 0.54060 0.35749 -0.09700
H 	H 	0.50470 0.55300 0.34480 0.06800
Cu	Cu	0.16211 0.74070 0.50401 0.90200
C 	C 	0.46830 0.68010 0.57602 0.01400
C 	C 	0.55530 0.69206 0.58418 -0.03900
H 	H 	0.58120 0.71160 0.57870 0.04700
C 	C 	0.60360 0.67490 0.60061 -0.07900
H 	H 	0.66180 0.68290 0.60610 0.06400
C 	C 	0.56480 0.64570 0.60888 0.05500
C 	C 	0.47780 0.63373 0.60071 -0.07500
H 	H 	0.45180 0.61420 0.60620 0.07100
C 	C 	0.42950 0.65090 0.58428 -0.03900
H 	H 	0.37120 0.64290 0.57880 0.07100
C 	C 	0.36630 0.59739 0.39461 0.06600
C 	C 	0.27890 0.61350 0.39816 -0.09800
H 	H 	0.22600 0.60900 0.38930 0.06600
C 	C 	0.27070 0.63650 0.41502 -0.02000
H 	H 	0.21230 0.64730 0.41740 0.03700
C 	C 	0.34980 0.64330 0.42834 -0.01500
C 	C 	0.43720 0.62720 0.42479 -0.02100
H 	H 	0.49010 0.63170 0.43370 0.03900
C 	C 	0.44540 0.60420 0.40793 -0.09800
H 	H 	0.50380 0.59340 0.40560 0.06700
C 	C 	0.33770 0.69610 0.55160 -0.16400
H 	H 	0.29580 0.68310 0.55980 0.12000
C 	C 	0.33960 0.66780 0.44640 0.04700
H 	H 	0.39650 0.67810 0.45080 0.03600
C 	C 	0.42720 0.69710 0.55710 0.01400
H 	H 	0.46890 0.70960 0.54840 0.04700
C 	C 	0.64800 0.46590 0.37740 0.06800
C 	C 	0.26030 0.67700 0.45710 -0.22800
H 	H 	0.20300 0.66640 0.45340 0.12600
C 	C 	0.29510 0.71630 0.53120 0.32600
C 	C 	0.25500 0.70310 0.47480 0.42300
O 	O 	0.36680 0.73090 0.52094 -0.39400
O 	O 	0.33750 0.72000 0.47612 -0.40100
C 	C 	0.75600 0.42060 0.37200 0.45400
O 	O 	0.75840 0.40670 0.39130 -0.37200
O 	O 	0.79400 0.41210 0.35720 -0.46900
C 	C 	0.96400 0.37390 0.48070 0.05800
O 	O 	0.92310 0.37450 0.43050 -0.37300
C 	C 	0.69900 0.45070 0.36650 -0.12500
C 	C 	0.56800 0.80730 0.38960 -0.00600
O 	O 	0.70600 0.53620 0.22240 -0.39700
O 	O 	0.68350 0.54600 0.26570 -0.45800
C 	C 	0.96140 0.70142 0.37368 0.06600
C 	C 	0.97380 0.71990 0.35467 -0.09500
H 	H 	0.93930 0.71460 0.34210 0.06700
C 	C 	0.03800 0.74640 0.35449 -0.02200
H 	H 	0.04630 0.75880 0.34180 0.04300
C 	C 	0.08960 0.75430 0.37330 -0.01400
C 	C 	0.07720 0.73580 0.39233 -0.02000
H 	H 	0.11170 0.74120 0.40490 0.04900
C 	C 	0.01300 0.70940 0.39251 -0.09700
H 	H 	0.00470 0.69700 0.40520 0.06800
Cu	Cu	0.66211 0.50930 0.24599 0.90200
C 	C 	0.96830 0.56990 0.17398 0.01400
C 	C 	0.05530 0.55794 0.16582 -0.03900
H 	H 	0.08120 0.53840 0.17130 0.04700
C 	C 	0.10360 0.57510 0.14939 -0.07900
H 	H 	0.16180 0.56710 0.14390 0.06400
C 	C 	0.06480 0.60430 0.14112 0.05500
C 	C 	0.97780 0.61627 0.14929 -0.07500
H 	H 	0.95180 0.63580 0.14380 0.07100
C 	C 	0.92950 0.59910 0.16572 -0.03900
H 	H 	0.87120 0.60710 0.17120 0.07100
C 	C 	0.86630 0.65261 0.35539 0.06600
C 	C 	0.77890 0.63650 0.35184 -0.09700
H 	H 	0.72600 0.64100 0.36070 0.06600
C 	C 	0.77070 0.61350 0.33498 -0.02000
H 	H 	0.71230 0.60270 0.33260 0.03800
C 	C 	0.84980 0.60670 0.32166 -0.01400
C 	C 	0.93720 0.62280 0.32521 -0.02100
H 	H 	0.99010 0.61830 0.31630 0.04000
C 	C 	0.94540 0.64580 0.34207 -0.09700
H 	H 	0.00380 0.65660 0.34440 0.06600
C 	C 	0.83770 0.55390 0.19840 -0.16300
H 	H 	0.79580 0.56690 0.19020 0.12000
C 	C 	0.83960 0.58220 0.30360 0.04700
H 	H 	0.89650 0.57190 0.29920 0.03600
C 	C 	0.92720 0.55290 0.19290 0.01400
H 	H 	0.96890 0.54040 0.20160 0.04700
C 	C 	0.14800 0.78410 0.37260 0.06700
C 	C 	0.76030 0.57300 0.29290 -0.22800
H 	H 	0.70300 0.58360 0.29660 0.12600
C 	C 	0.79510 0.53370 0.21880 0.32600
C 	C 	0.75500 0.54690 0.27520 0.42300
O 	O 	0.86680 0.51910 0.22906 -0.39400
O 	O 	0.83750 0.53000 0.27388 -0.40100
C 	C 	0.25600 0.82940 0.37800 0.45400
O 	O 	0.25840 0.84330 0.35870 -0.37200
O 	O 	0.29400 0.83790 0.39280 -0.46900
C 	C 	0.46400 0.87610 0.26930 0.05800
O 	O 	0.42310 0.87550 0.31950 -0.37300
C 	C 	0.19900 0.79930 0.38350 -0.12500
C 	C 	0.06800 0.44270 0.36040 -0.00600
O 	O 	0.70600 0.03620 0.72240 -0.39700
O 	O 	0.68350 0.04600 0.76570 -0.45800
C 	C 	0.96140 0.20142 0.87368 0.06600
C 	C 	0.97380 0.21990 0.85467 -0.09500
H 	H 	0.93930 0.21460 0.84210 0.06700
C 	C 	0.03800 0.24640 0.85449 -0.02200
H 	H 	0.04630 0.25880 0.84180 0.04300
C 	C 	0.08960 0.25430 0.87330 -0.01400
C 	C 	0.07720 0.23580 0.89233 -0.02000
H 	H 	0.11170 0.24120 0.90490 0.04900
C 	C 	0.01300 0.20940 0.89251 -0.09700
H 	H 	0.00470 0.19700 0.90520 0.06800
Cu	Cu	0.66211 0.00930 0.74599 0.90200
C 	C 	0.96830 0.06990 0.67398 0.01400
C 	C 	0.05530 0.05794 0.66582 -0.03900
H 	H 	0.08120 0.03840 0.67130 0.04700
C 	C 	0.10360 0.07510 0.64939 -0.07900
H 	H 	0.16180 0.06710 0.64390 0.06400
C 	C 	0.06480 0.10430 0.64112 0.05500
C 	C 	0.97780 0.11627 0.64929 -0.07500
H 	H 	0.95180 0.13580 0.64380 0.07100
C 	C 	0.92950 0.09910 0.66572 -0.03900
H 	H 	0.87120 0.10710 0.67120 0.07100
C 	C 	0.86630 0.15261 0.85539 0.06600
C 	C 	0.77890 0.13650 0.85184 -0.09700
H 	H 	0.72600 0.14100 0.86070 0.06600
C 	C 	0.77070 0.11350 0.83498 -0.02000
H 	H 	0.71230 0.10270 0.83260 0.03800
C 	C 	0.84980 0.10670 0.82166 -0.01400
C 	C 	0.93720 0.12280 0.82521 -0.02100
H 	H 	0.99010 0.11830 0.81630 0.04000
C 	C 	0.94540 0.14580 0.84207 -0.09700
H 	H 	0.00380 0.15660 0.84440 0.06600
C 	C 	0.83770 0.05390 0.69840 -0.16300
H 	H 	0.79580 0.06690 0.69020 0.12000
C 	C 	0.83960 0.08220 0.80360 0.04700
H 	H 	0.89650 0.07190 0.79920 0.03600
C 	C 	0.92720 0.05290 0.69290 0.01400
H 	H 	0.96890 0.04040 0.70160 0.04700
C 	C 	0.14800 0.28410 0.87260 0.06700
C 	C 	0.76030 0.07300 0.79290 -0.22800
H 	H 	0.70300 0.08360 0.79660 0.12600
C 	C 	0.79510 0.03370 0.71880 0.32600
C 	C 	0.75500 0.04690 0.77520 0.42300
O 	O 	0.86680 0.01910 0.72906 -0.39400
O 	O 	0.83750 0.03000 0.77388 -0.40100
C 	C 	0.25600 0.32940 0.87800 0.45400
O 	O 	0.25840 0.34330 0.85870 -0.37200
O 	O 	0.29400 0.33790 0.89280 -0.46900
C 	C 	0.46400 0.37610 0.76930 0.05800
O 	O 	0.42310 0.37550 0.81950 -0.37300
C 	C 	0.19900 0.29930 0.88350 -0.12500
C 	C 	0.06800 0.94270 0.86040 -0.00600
O 	O 	0.20600 0.53620 0.72240 -0.39700
O 	O 	0.18350 0.54600 0.76570 -0.45800
C 	C 	0.46140 0.70142 0.87368 0.06600
C 	C 	0.47380 0.71990 0.85467 -0.09500
H 	H 	0.43930 0.71460 0.84210 0.06700
C 	C 	0.53800 0.74640 0.85449 -0.02200
H 	H 	0.54630 0.75880 0.84180 0.04300
C 	C 	0.58960 0.75430 0.87330 -0.01400
C 	C 	0.57720 0.73580 0.89233 -0.02000
H 	H 	0.61170 0.74120 0.90490 0.04900
C 	C 	0.51300 0.70940 0.89251 -0.09700
H 	H 	0.50470 0.69700 0.90520 0.06800
Cu	Cu	0.16211 0.50930 0.74599 0.90200
C 	C 	0.46830 0.56990 0.67398 0.01400
C 	C 	0.55530 0.55794 0.66582 -0.03900
H 	H 	0.58120 0.53840 0.67130 0.04700
C 	C 	0.60360 0.57510 0.64939 -0.07900
H 	H 	0.66180 0.56710 0.64390 0.06400
C 	C 	0.56480 0.60430 0.64112 0.05500
C 	C 	0.47780 0.61627 0.64929 -0.07500
H 	H 	0.45180 0.63580 0.64380 0.07100
C 	C 	0.42950 0.59910 0.66572 -0.03900
H 	H 	0.37120 0.60710 0.67120 0.07100
C 	C 	0.36630 0.65261 0.85539 0.06600
C 	C 	0.27890 0.63650 0.85184 -0.09800
H 	H 	0.22600 0.64100 0.86070 0.06600
C 	C 	0.27070 0.61350 0.83498 -0.02000
H 	H 	0.21230 0.60270 0.83260 0.03700
C 	C 	0.34980 0.60670 0.82166 -0.01500
C 	C 	0.43720 0.62280 0.82521 -0.02100
H 	H 	0.49010 0.61830 0.81630 0.03900
C 	C 	0.44540 0.64580 0.84207 -0.09800
H 	H 	0.50380 0.65660 0.84440 0.06700
C 	C 	0.33770 0.55390 0.69840 -0.16400
H 	H 	0.29580 0.56690 0.69020 0.12000
C 	C 	0.33960 0.58220 0.80360 0.04700
H 	H 	0.39650 0.57190 0.79920 0.03600
C 	C 	0.42720 0.55290 0.69290 0.01400
H 	H 	0.46890 0.54040 0.70160 0.04700
C 	C 	0.64800 0.78410 0.87260 0.06800
C 	C 	0.26030 0.57300 0.79290 -0.22800
H 	H 	0.20300 0.58360 0.79660 0.12600
C 	C 	0.29510 0.53370 0.71880 0.32600
C 	C 	0.25500 0.54690 0.77520 0.42300
O 	O 	0.36680 0.51910 0.72906 -0.39400
O 	O 	0.33750 0.53000 0.77388 -0.40100
C 	C 	0.75600 0.82940 0.87800 0.45400
O 	O 	0.75840 0.84330 0.85870 -0.37200
O 	O 	0.79400 0.83790 0.89280 -0.46900
C 	C 	0.96400 0.87610 0.76930 0.05800
O 	O 	0.92310 0.87550 0.81950 -0.37300
C 	C 	0.69900 0.79930 0.88350 -0.12500
C 	C 	0.56800 0.44270 0.86040 -0.00600
O 	O 	0.20600 0.03620 0.22240 -0.39700
O 	O 	0.18350 0.04600 0.26570 -0.45800
C 	C 	0.46140 0.20142 0.37368 0.06600
C 	C 	0.47380 0.21990 0.35467 -0.09500
H 	H 	0.43930 0.21460 0.34210 0.06700
C 	C 	0.53800 0.24640 0.35449 -0.02200
H 	H 	0.54630 0.25880 0.34180 0.04300
C 	C 	0.58960 0.25430 0.37330 -0.01400
C 	C 	0.57720 0.23580 0.39233 -0.02000
H 	H 	0.61170 0.24120 0.40490 0.04900
C 	C 	0.51300 0.20940 0.39251 -0.09700
H 	H 	0.50470 0.19700 0.40520 0.06800
Cu	Cu	0.16211 0.00930 0.24599 0.90200
C 	C 	0.46830 0.06990 0.17398 0.01400
C 	C 	0.55530 0.05794 0.16582 -0.03900
H 	H 	0.58120 0.03840 0.17130 0.04700
C 	C 	0.60360 0.07510 0.14939 -0.07900
H 	H 	0.66180 0.06710 0.14390 0.06400
C 	C 	0.56480 0.10430 0.14112 0.05500
C 	C 	0.47780 0.11627 0.14929 -0.07500
H 	H 	0.45180 0.13580 0.14380 0.07100
C 	C 	0.42950 0.09910 0.16572 -0.03900
H 	H 	0.37120 0.10710 0.17120 0.07100
C 	C 	0.36630 0.15261 0.35539 0.06600
C 	C 	0.27890 0.13650 0.35184 -0.09800
H 	H 	0.22600 0.14100 0.36070 0.06600
C 	C 	0.27070 0.11350 0.33498 -0.02000
H 	H 	0.21230 0.10270 0.33260 0.03700
C 	C 	0.34980 0.10670 0.32166 -0.01500
C 	C 	0.43720 0.12280 0.32521 -0.02100
H 	H 	0.49010 0.11830 0.31630 0.03900
C 	C 	0.44540 0.14580 0.34207 -0.09800
H 	H 	0.50380 0.15660 0.34440 0.06700
C 	C 	0.33770 0.05390 0.19840 -0.16400
H 	H 	0.29580 0.06690 0.19020 0.12000
C 	C 	0.33960 0.08220 0.30360 0.04700
H 	H 	0.39650 0.07190 0.29920 0.03600
C 	C 	0.42720 0.05290 0.19290 0.01400
H 	H 	0.46890 0.04040 0.20160 0.04700
C 	C 	0.64800 0.28410 0.37260 0.06800
C 	C 	0.26030 0.07300 0.29290 -0.22800
H 	H 	0.20300 0.08360 0.29660 0.12600
C 	C 	0.29510 0.03370 0.21880 0.32600
C 	C 	0.25500 0.04690 0.27520 0.42300
O 	O 	0.36680 0.01910 0.22906 -0.39400
O 	O 	0.33750 0.03000 0.27388 -0.40100
C 	C 	0.75600 0.32940 0.37800 0.45400
O 	O 	0.75840 0.34330 0.35870 -0.37200
O 	O 	0.79400 0.33790 0.39280 -0.46900
C 	C 	0.96400 0.37610 0.26930 0.05800
O 	O 	0.92310 0.37550 0.31950 -0.37300
C 	C 	0.69900 0.29930 0.38350 -0.12500
C 	C 	0.56800 0.94270 0.36040 -0.00600
O 	O 	0.04400 0.21380 0.22240 -0.39700
O 	O 	0.06650 0.20400 0.26570 -0.45800
C 	C 	0.78860 0.04858 0.37368 0.06600
C 	C 	0.77620 0.03010 0.35467 -0.09500
H 	H 	0.81070 0.03540 0.34210 0.06700
C 	C 	0.71200 0.00360 0.35449 -0.02200
H 	H 	0.70370 0.99120 0.34180 0.04300
C 	C 	0.66040 0.99570 0.37330 -0.01400
C 	C 	0.67280 0.01420 0.39233 -0.02000
H 	H 	0.63830 0.00880 0.40490 0.04900
C 	C 	0.73700 0.04060 0.39251 -0.09700
H 	H 	0.74530 0.05300 0.40520 0.06800
Cu	Cu	0.08789 0.24070 0.24599 0.90200
C 	C 	0.78170 0.18010 0.17398 0.01400
C 	C 	0.69470 0.19206 0.16582 -0.03900
H 	H 	0.66880 0.21160 0.17130 0.04700
C 	C 	0.64640 0.17490 0.14939 -0.07900
H 	H 	0.58820 0.18290 0.14390 0.06400
C 	C 	0.68520 0.14570 0.14112 0.05500
C 	C 	0.77220 0.13373 0.14929 -0.07500
H 	H 	0.79820 0.11420 0.14380 0.07100
C 	C 	0.82050 0.15090 0.16572 -0.03900
H 	H 	0.87880 0.14290 0.17120 0.07100
C 	C 	0.88370 0.09739 0.35539 0.06600
C 	C 	0.97110 0.11350 0.35184 -0.09700
H 	H 	0.02400 0.10900 0.36070 0.06600
C 	C 	0.97930 0.13650 0.33498 -0.02000
H 	H 	0.03770 0.14730 0.33260 0.03700
C 	C 	0.90020 0.14330 0.32166 -0.01500
C 	C 	0.81280 0.12720 0.32521 -0.02100
H 	H 	0.75990 0.13170 0.31630 0.03900
C 	C 	0.80460 0.10420 0.34207 -0.09800
H 	H 	0.74620 0.09340 0.34440 0.06700
C 	C 	0.91230 0.19610 0.19840 -0.16300
H 	H 	0.95420 0.18310 0.19020 0.12000
C 	C 	0.91040 0.16780 0.30360 0.04700
H 	H 	0.85350 0.17810 0.29920 0.03600
C 	C 	0.82280 0.19710 0.19290 0.01400
H 	H 	0.78110 0.20960 0.20160 0.04700
C 	C 	0.60200 0.96590 0.37260 0.06800
C 	C 	0.98970 0.17700 0.29290 -0.22800
H 	H 	0.04700 0.16640 0.29660 0.12600
C 	C 	0.95490 0.21630 0.21880 0.32600
C 	C 	0.99500 0.20310 0.27520 0.42300
O 	O 	0.88320 0.23090 0.22906 -0.39400
O 	O 	0.91250 0.22000 0.27388 -0.40100
C 	C 	0.49400 0.92060 0.37800 0.45400
O 	O 	0.49160 0.90670 0.35870 -0.37200
O 	O 	0.45600 0.91210 0.39280 -0.46900
C 	C 	0.28600 0.87390 0.26930 0.05800
O 	O 	0.32690 0.87450 0.31950 -0.37300
C 	C 	0.55100 0.95070 0.38350 -0.12500
C 	C 	0.68200 0.30730 0.36040 -0.00600
O 	O 	0.04400 0.71380 0.72240 -0.39700
O 	O 	0.06650 0.70400 0.76570 -0.45800
C 	C 	0.78860 0.54858 0.87368 0.06600
C 	C 	0.77620 0.53010 0.85467 -0.09500
H 	H 	0.81070 0.53540 0.84210 0.06700
C 	C 	0.71200 0.50360 0.85449 -0.02200
H 	H 	0.70370 0.49120 0.84180 0.04300
C 	C 	0.66040 0.49570 0.87330 -0.01400
C 	C 	0.67280 0.51420 0.89233 -0.02000
H 	H 	0.63830 0.50880 0.90490 0.04900
C 	C 	0.73700 0.54060 0.89251 -0.09700
H 	H 	0.74530 0.55300 0.90520 0.06800
Cu	Cu	0.08789 0.74070 0.74599 0.90200
C 	C 	0.78170 0.68010 0.67398 0.01400
C 	C 	0.69470 0.69206 0.66582 -0.03900
H 	H 	0.66880 0.71160 0.67130 0.04700
C 	C 	0.64640 0.67490 0.64939 -0.07900
H 	H 	0.58820 0.68290 0.64390 0.06400
C 	C 	0.68520 0.64570 0.64112 0.05500
C 	C 	0.77220 0.63373 0.64929 -0.07500
H 	H 	0.79820 0.61420 0.64380 0.07100
C 	C 	0.82050 0.65090 0.66572 -0.03900
H 	H 	0.87880 0.64290 0.67120 0.07100
C 	C 	0.88370 0.59739 0.85539 0.06600
C 	C 	0.97110 0.61350 0.85184 -0.09700
H 	H 	0.02400 0.60900 0.86070 0.06600
C 	C 	0.97930 0.63650 0.83498 -0.02000
H 	H 	0.03770 0.64730 0.83260 0.03700
C 	C 	0.90020 0.64330 0.82166 -0.01500
C 	C 	0.81280 0.62720 0.82521 -0.02100
H 	H 	0.75990 0.63170 0.81630 0.03900
C 	C 	0.80460 0.60420 0.84207 -0.09800
H 	H 	0.74620 0.59340 0.84440 0.06700
C 	C 	0.91230 0.69610 0.69840 -0.16300
H 	H 	0.95420 0.68310 0.69020 0.12000
C 	C 	0.91040 0.66780 0.80360 0.04700
H 	H 	0.85350 0.67810 0.79920 0.03600
C 	C 	0.82280 0.69710 0.69290 0.01400
H 	H 	0.78110 0.70960 0.70160 0.04700
C 	C 	0.60200 0.46590 0.87260 0.06800
C 	C 	0.98970 0.67700 0.79290 -0.22800
H 	H 	0.04700 0.66640 0.79660 0.12600
C 	C 	0.95490 0.71630 0.71880 0.32600
C 	C 	0.99500 0.70310 0.77520 0.42300
O 	O 	0.88320 0.73090 0.72906 -0.39400
O 	O 	0.91250 0.72000 0.77388 -0.40100
C 	C 	0.49400 0.42060 0.87800 0.45400
O 	O 	0.49160 0.40670 0.85870 -0.37200
O 	O 	0.45600 0.41210 0.89280 -0.46900
C 	C 	0.28600 0.37390 0.76930 0.05800
O 	O 	0.32690 0.37450 0.81950 -0.37300
C 	C 	0.55100 0.45070 0.88350 -0.12500
C 	C 	0.68200 0.80730 0.86040 -0.00600
O 	O 	0.54400 0.21380 0.72240 -0.39700
O 	O 	0.56650 0.20400 0.76570 -0.45800
C 	C 	0.28860 0.04858 0.87368 0.06600
C 	C 	0.27620 0.03010 0.85467 -0.09500
H 	H 	0.31070 0.03540 0.84210 0.06700
C 	C 	0.21200 0.00360 0.85449 -0.02200
H 	H 	0.20370 0.99120 0.84180 0.04300
C 	C 	0.16040 0.99570 0.87330 -0.01400
C 	C 	0.17280 0.01420 0.89233 -0.02000
H 	H 	0.13830 0.00880 0.90490 0.04900
C 	C 	0.23700 0.04060 0.89251 -0.09700
H 	H 	0.24530 0.05300 0.90520 0.06800
Cu	Cu	0.58789 0.24070 0.74599 0.90200
C 	C 	0.28170 0.18010 0.67398 0.01400
C 	C 	0.19470 0.19206 0.66582 -0.03900
H 	H 	0.16880 0.21160 0.67130 0.04700
C 	C 	0.14640 0.17490 0.64939 -0.07900
H 	H 	0.08820 0.18290 0.64390 0.06400
C 	C 	0.18520 0.14570 0.64112 0.05500
C 	C 	0.27220 0.13373 0.64929 -0.07500
H 	H 	0.29820 0.11420 0.64380 0.07100
C 	C 	0.32050 0.15090 0.66572 -0.03900
H 	H 	0.37880 0.14290 0.67120 0.07100
C 	C 	0.38370 0.09739 0.85539 0.06600
C 	C 	0.47110 0.11350 0.85184 -0.09800
H 	H 	0.52400 0.10900 0.86070 0.06600
C 	C 	0.47930 0.13650 0.83498 -0.02000
H 	H 	0.53770 0.14730 0.83260 0.03800
C 	C 	0.40020 0.14330 0.82166 -0.01500
C 	C 	0.31280 0.12720 0.82521 -0.02100
H 	H 	0.25990 0.13170 0.81630 0.03900
C 	C 	0.30460 0.10420 0.84207 -0.09800
H 	H 	0.24620 0.09340 0.84440 0.06700
C 	C 	0.41230 0.19610 0.69840 -0.16400
H 	H 	0.45420 0.18310 0.69020 0.12000
C 	C 	0.41040 0.16780 0.80360 0.04700
H 	H 	0.35350 0.17810 0.79920 0.03600
C 	C 	0.32280 0.19710 0.69290 0.01400
H 	H 	0.28110 0.20960 0.70160 0.04700
C 	C 	0.10200 0.96590 0.87260 0.06800
C 	C 	0.48970 0.17700 0.79290 -0.22800
H 	H 	0.54700 0.16640 0.79660 0.12600
C 	C 	0.45490 0.21630 0.71880 0.32600
C 	C 	0.49500 0.20310 0.77520 0.42300
O 	O 	0.38320 0.23090 0.72906 -0.39400
O 	O 	0.41250 0.22000 0.77388 -0.40100
C 	C 	0.99400 0.92060 0.87800 0.45500
O 	O 	0.99160 0.90670 0.85870 -0.37200
O 	O 	0.95600 0.91210 0.89280 -0.46900
C 	C 	0.78600 0.87390 0.76930 0.05800
O 	O 	0.82690 0.87450 0.81950 -0.37300
C 	C 	0.05100 0.95070 0.88350 -0.12600
C 	C 	0.18200 0.30730 0.86040 -0.00600
O 	O 	0.54400 0.71380 0.22240 -0.39700
O 	O 	0.56650 0.70400 0.26570 -0.45800
C 	C 	0.28860 0.54858 0.37368 0.06600
C 	C 	0.27620 0.53010 0.35467 -0.09500
H 	H 	0.31070 0.53540 0.34210 0.06700
C 	C 	0.21200 0.50360 0.35449 -0.02200
H 	H 	0.20370 0.49120 0.34180 0.04200
C 	C 	0.16040 0.49570 0.37330 -0.01400
C 	C 	0.17280 0.51420 0.39233 -0.01900
H 	H 	0.13830 0.50880 0.40490 0.04900
C 	C 	0.23700 0.54060 0.39251 -0.09800
H 	H 	0.24530 0.55300 0.40520 0.06800
Cu	Cu	0.58789 0.74070 0.24599 0.90200
C 	C 	0.28170 0.68010 0.17398 0.01400
C 	C 	0.19470 0.69206 0.16582 -0.03900
H 	H 	0.16880 0.71160 0.17130 0.04700
C 	C 	0.14640 0.67490 0.14939 -0.07900
H 	H 	0.08820 0.68290 0.14390 0.06400
C 	C 	0.18520 0.64570 0.14112 0.05500
C 	C 	0.27220 0.63373 0.14929 -0.07500
H 	H 	0.29820 0.61420 0.14380 0.07100
C 	C 	0.32050 0.65090 0.16572 -0.03900
H 	H 	0.37880 0.64290 0.17120 0.07100
C 	C 	0.38370 0.59739 0.35539 0.06600
C 	C 	0.47110 0.61350 0.35184 -0.09800
H 	H 	0.52400 0.60900 0.36070 0.06600
C 	C 	0.47930 0.63650 0.33498 -0.02000
H 	H 	0.53770 0.64730 0.33260 0.03800
C 	C 	0.40020 0.64330 0.32166 -0.01500
C 	C 	0.31280 0.62720 0.32521 -0.02100
H 	H 	0.25990 0.63170 0.31630 0.03900
C 	C 	0.30460 0.60420 0.34207 -0.09800
H 	H 	0.24620 0.59340 0.34440 0.06700
C 	C 	0.41230 0.69610 0.19840 -0.16400
H 	H 	0.45420 0.68310 0.19020 0.12000
C 	C 	0.41040 0.66780 0.30360 0.04700
H 	H 	0.35350 0.67810 0.29920 0.03600
C 	C 	0.32280 0.69710 0.19290 0.01400
H 	H 	0.28110 0.70960 0.20160 0.04700
C 	C 	0.10200 0.46590 0.37260 0.06800
C 	C 	0.48970 0.67700 0.29290 -0.22800
H 	H 	0.54700 0.66640 0.29660 0.12600
C 	C 	0.45490 0.71630 0.21880 0.32600
C 	C 	0.49500 0.70310 0.27520 0.42300
O 	O 	0.38320 0.73090 0.22906 -0.39400
O 	O 	0.41250 0.72000 0.27388 -0.40100
C 	C 	0.99400 0.42060 0.37800 0.45500
O 	O 	0.99160 0.40670 0.35870 -0.37200
O 	O 	0.95600 0.41210 0.39280 -0.46900
C 	C 	0.78600 0.37390 0.26930 0.05800
O 	O 	0.82690 0.37450 0.31950 -0.37300
C 	C 	0.05100 0.45070 0.38350 -0.12600
C 	C 	0.18200 0.80730 0.36040 -0.00600
O 	O 	0.95600 0.46380 0.47240 -0.39700
O 	O 	0.93350 0.45400 0.51570 -0.45800
C 	C 	0.21140 0.29858 0.62368 0.06600
C 	C 	0.22380 0.28010 0.60467 -0.09500
H 	H 	0.18930 0.28540 0.59210 0.06700
C 	C 	0.28800 0.25360 0.60449 -0.02200
H 	H 	0.29630 0.24120 0.59180 0.04300
C 	C 	0.33960 0.24570 0.62330 -0.01400
C 	C 	0.32720 0.26420 0.64233 -0.02000
H 	H 	0.36170 0.25880 0.65490 0.04900
C 	C 	0.26300 0.29060 0.64251 -0.09700
H 	H 	0.25470 0.30300 0.65520 0.06800
Cu	Cu	0.91211 0.49070 0.49599 0.90200
C 	C 	0.21830 0.43010 0.42398 0.01400
C 	C 	0.30530 0.44206 0.41582 -0.03900
H 	H 	0.33120 0.46160 0.42130 0.04700
C 	C 	0.35360 0.42490 0.39939 -0.07900
H 	H 	0.41180 0.43290 0.39390 0.06400
C 	C 	0.31480 0.39570 0.39112 0.05500
C 	C 	0.22780 0.38373 0.39929 -0.07500
H 	H 	0.20180 0.36420 0.39380 0.07100
C 	C 	0.17950 0.40090 0.41572 -0.03900
H 	H 	0.12120 0.39290 0.42120 0.07100
C 	C 	0.11630 0.34739 0.60539 0.06600
C 	C 	0.02890 0.36350 0.60184 -0.09700
H 	H 	0.97600 0.35900 0.61070 0.06600
C 	C 	0.02070 0.38650 0.58498 -0.02000
H 	H 	0.96230 0.39730 0.58260 0.03700
C 	C 	0.09980 0.39330 0.57166 -0.01500
C 	C 	0.18720 0.37720 0.57521 -0.02100
H 	H 	0.24010 0.38170 0.56630 0.03900
C 	C 	0.19540 0.35420 0.59207 -0.09800
H 	H 	0.25380 0.34340 0.59440 0.06700
C 	C 	0.08770 0.44610 0.44840 -0.16300
H 	H 	0.04580 0.43310 0.44020 0.12000
C 	C 	0.08960 0.41780 0.55360 0.04700
H 	H 	0.14650 0.42810 0.54920 0.03600
C 	C 	0.17720 0.44710 0.44290 0.01400
H 	H 	0.21890 0.45960 0.45160 0.04700
C 	C 	0.39800 0.21590 0.62260 0.06800
C 	C 	0.01030 0.42700 0.54290 -0.22800
H 	H 	0.95300 0.41640 0.54660 0.12600
C 	C 	0.04510 0.46630 0.46880 0.32600
C 	C 	0.00500 0.45310 0.52520 0.42300
O 	O 	0.11680 0.48090 0.47906 -0.39400
O 	O 	0.08750 0.47000 0.52388 -0.40100
C 	C 	0.50600 0.17060 0.62800 0.45400
O 	O 	0.50840 0.15670 0.60870 -0.37200
O 	O 	0.54400 0.16210 0.64280 -0.46900
C 	C 	0.71400 0.12390 0.51930 0.05800
O 	O 	0.67310 0.12450 0.56950 -0.37300
C 	C 	0.44900 0.20070 0.63350 -0.12500
C 	C 	0.31800 0.55730 0.61040 -0.00600
O 	O 	0.95600 0.96380 0.97240 -0.39700
O 	O 	0.93350 0.95400 0.01570 -0.45800
C 	C 	0.21140 0.79858 0.12368 0.06600
C 	C 	0.22380 0.78010 0.10467 -0.09500
H 	H 	0.18930 0.78540 0.09210 0.06700
C 	C 	0.28800 0.75360 0.10449 -0.02200
H 	H 	0.29630 0.74120 0.09180 0.04300
C 	C 	0.33960 0.74570 0.12330 -0.01400
C 	C 	0.32720 0.76420 0.14233 -0.02000
H 	H 	0.36170 0.75880 0.15490 0.04900
C 	C 	0.26300 0.79060 0.14251 -0.09700
H 	H 	0.25470 0.80300 0.15520 0.06800
Cu	Cu	0.91211 0.99070 0.99599 0.90200
C 	C 	0.21830 0.93010 0.92398 0.01400
C 	C 	0.30530 0.94206 0.91582 -0.03900
H 	H 	0.33120 0.96160 0.92130 0.04700
C 	C 	0.35360 0.92490 0.89939 -0.07900
H 	H 	0.41180 0.93290 0.89390 0.06400
C 	C 	0.31480 0.89570 0.89112 0.05500
C 	C 	0.22780 0.88373 0.89929 -0.07500
H 	H 	0.20180 0.86420 0.89380 0.07100
C 	C 	0.17950 0.90090 0.91572 -0.03900
H 	H 	0.12120 0.89290 0.92120 0.07100
C 	C 	0.11630 0.84739 0.10539 0.06600
C 	C 	0.02890 0.86350 0.10184 -0.09700
H 	H 	0.97600 0.85900 0.11070 0.06600
C 	C 	0.02070 0.88650 0.08498 -0.02000
H 	H 	0.96230 0.89730 0.08260 0.03700
C 	C 	0.09980 0.89330 0.07166 -0.01500
C 	C 	0.18720 0.87720 0.07521 -0.02100
H 	H 	0.24010 0.88170 0.06630 0.03900
C 	C 	0.19540 0.85420 0.09207 -0.09800
H 	H 	0.25380 0.84340 0.09440 0.06700
C 	C 	0.08770 0.94610 0.94840 -0.16300
H 	H 	0.04580 0.93310 0.94020 0.12000
C 	C 	0.08960 0.91780 0.05360 0.04700
H 	H 	0.14650 0.92810 0.04920 0.03600
C 	C 	0.17720 0.94710 0.94290 0.01400
H 	H 	0.21890 0.95960 0.95160 0.04700
C 	C 	0.39800 0.71590 0.12260 0.06800
C 	C 	0.01030 0.92700 0.04290 -0.22800
H 	H 	0.95300 0.91640 0.04660 0.12600
C 	C 	0.04510 0.96630 0.96880 0.32600
C 	C 	0.00500 0.95310 0.02520 0.42300
O 	O 	0.11680 0.98090 0.97906 -0.39400
O 	O 	0.08750 0.97000 0.02388 -0.40100
C 	C 	0.50600 0.67060 0.12800 0.45400
O 	O 	0.50840 0.65670 0.10870 -0.37200
O 	O 	0.54400 0.66210 0.14280 -0.46900
C 	C 	0.71400 0.62390 0.01930 0.05800
O 	O 	0.67310 0.62450 0.06950 -0.37300
C 	C 	0.44900 0.70070 0.13350 -0.12500
C 	C 	0.31800 0.05730 0.11040 -0.00600
O 	O 	0.45600 0.46380 0.97240 -0.39700
O 	O 	0.43350 0.45400 0.01570 -0.45800
C 	C 	0.71140 0.29858 0.12368 0.06600
C 	C 	0.72380 0.28010 0.10467 -0.09500
H 	H 	0.68930 0.28540 0.09210 0.06700
C 	C 	0.78800 0.25360 0.10449 -0.02200
H 	H 	0.79630 0.24120 0.09180 0.04200
C 	C 	0.83960 0.24570 0.12330 -0.01400
C 	C 	0.82720 0.26420 0.14233 -0.01900
H 	H 	0.86170 0.25880 0.15490 0.04900
C 	C 	0.76300 0.29060 0.14251 -0.09800
H 	H 	0.75470 0.30300 0.15520 0.06800
Cu	Cu	0.41211 0.49070 0.99599 0.90200
C 	C 	0.71830 0.43010 0.92398 0.01400
C 	C 	0.80530 0.44206 0.91582 -0.03900
H 	H 	0.83120 0.46160 0.92130 0.04700
C 	C 	0.85360 0.42490 0.89939 -0.07900
H 	H 	0.91180 0.43290 0.89390 0.06400
C 	C 	0.81480 0.39570 0.89112 0.05500
C 	C 	0.72780 0.38373 0.89929 -0.07500
H 	H 	0.70180 0.36420 0.89380 0.07100
C 	C 	0.67950 0.40090 0.91572 -0.03900
H 	H 	0.62120 0.39290 0.92120 0.07100
C 	C 	0.61630 0.34739 0.10539 0.06600
C 	C 	0.52890 0.36350 0.10184 -0.09800
H 	H 	0.47600 0.35900 0.11070 0.06600
C 	C 	0.52070 0.38650 0.08498 -0.02000
H 	H 	0.46230 0.39730 0.08260 0.03800
C 	C 	0.59980 0.39330 0.07166 -0.01500
C 	C 	0.68720 0.37720 0.07521 -0.02100
H 	H 	0.74010 0.38170 0.06630 0.03900
C 	C 	0.69540 0.35420 0.09207 -0.09800
H 	H 	0.75380 0.34340 0.09440 0.06700
C 	C 	0.58770 0.44610 0.94840 -0.16400
H 	H 	0.54580 0.43310 0.94020 0.12000
C 	C 	0.58960 0.41780 0.05360 0.04700
H 	H 	0.64650 0.42810 0.04920 0.03600
C 	C 	0.67720 0.44710 0.94290 0.01400
H 	H 	0.71890 0.45960 0.95160 0.04700
C 	C 	0.89800 0.21590 0.12260 0.06800
C 	C 	0.51030 0.42700 0.04290 -0.22800
H 	H 	0.45300 0.41640 0.04660 0.12600
C 	C 	0.54510 0.46630 0.96880 0.32600
C 	C 	0.50500 0.45310 0.02520 0.42300
O 	O 	0.61680 0.48090 0.97906 -0.39400
O 	O 	0.58750 0.47000 0.02388 -0.40100
C 	C 	0.00600 0.17060 0.12800 0.45500
O 	O 	0.00840 0.15670 0.10870 -0.37200
O 	O 	0.04400 0.16210 0.14280 -0.46900
C 	C 	0.21400 0.12390 0.01930 0.05800
O 	O 	0.17310 0.12450 0.06950 -0.37300
C 	C 	0.94900 0.20070 0.13350 -0.12600
C 	C 	0.81800 0.55730 0.11040 -0.00600
O 	O 	0.45600 0.96380 0.47240 -0.39700
O 	O 	0.43350 0.95400 0.51570 -0.45800
C 	C 	0.71140 0.79858 0.62368 0.06600
C 	C 	0.72380 0.78010 0.60467 -0.09500
H 	H 	0.68930 0.78540 0.59210 0.06700
C 	C 	0.78800 0.75360 0.60449 -0.02200
H 	H 	0.79630 0.74120 0.59180 0.04200
C 	C 	0.83960 0.74570 0.62330 -0.01400
C 	C 	0.82720 0.76420 0.64233 -0.01900
H 	H 	0.86170 0.75880 0.65490 0.04900
C 	C 	0.76300 0.79060 0.64251 -0.09800
H 	H 	0.75470 0.80300 0.65520 0.06800
Cu	Cu	0.41211 0.99070 0.49599 0.90200
C 	C 	0.71830 0.93010 0.42398 0.01400
C 	C 	0.80530 0.94206 0.41582 -0.03900
H 	H 	0.83120 0.96160 0.42130 0.04700
C 	C 	0.85360 0.92490 0.39939 -0.07900
H 	H 	0.91180 0.93290 0.39390 0.06400
C 	C 	0.81480 0.89570 0.39112 0.05500
C 	C 	0.72780 0.88373 0.39929 -0.07500
H 	H 	0.70180 0.86420 0.39380 0.07100
C 	C 	0.67950 0.90090 0.41572 -0.03900
H 	H 	0.62120 0.89290 0.42120 0.07100
C 	C 	0.61630 0.84739 0.60539 0.06600
C 	C 	0.52890 0.86350 0.60184 -0.09800
H 	H 	0.47600 0.85900 0.61070 0.06600
C 	C 	0.52070 0.88650 0.58498 -0.02000
H 	H 	0.46230 0.89730 0.58260 0.03800
C 	C 	0.59980 0.89330 0.57166 -0.01500
C 	C 	0.68720 0.87720 0.57521 -0.02100
H 	H 	0.74010 0.88170 0.56630 0.03900
C 	C 	0.69540 0.85420 0.59207 -0.09800
H 	H 	0.75380 0.84340 0.59440 0.06700
C 	C 	0.58770 0.94610 0.44840 -0.16400
H 	H 	0.54580 0.93310 0.44020 0.12000
C 	C 	0.58960 0.91780 0.55360 0.04700
H 	H 	0.64650 0.92810 0.54920 0.03600
C 	C 	0.67720 0.94710 0.44290 0.01400
H 	H 	0.71890 0.95960 0.45160 0.04700
C 	C 	0.89800 0.71590 0.62260 0.06800
C 	C 	0.51030 0.92700 0.54290 -0.22800
H 	H 	0.45300 0.91640 0.54660 0.12600
C 	C 	0.54510 0.96630 0.46880 0.32600
C 	C 	0.50500 0.95310 0.52520 0.42300
O 	O 	0.61680 0.98090 0.47906 -0.39400
O 	O 	0.58750 0.97000 0.52388 -0.40100
C 	C 	0.00600 0.67060 0.62800 0.45500
O 	O 	0.00840 0.65670 0.60870 -0.37200
O 	O 	0.04400 0.66210 0.64280 -0.46900
C 	C 	0.21400 0.62390 0.51930 0.05800
O 	O 	0.17310 0.62450 0.56950 -0.37300
C 	C 	0.94900 0.70070 0.63350 -0.12600
C 	C 	0.81800 0.05730 0.61040 -0.00600
O 	O 	0.29400 0.78620 0.47240 -0.39700
O 	O 	0.31650 0.79600 0.51570 -0.45800
C 	C 	0.03860 0.95142 0.62368 0.06600
C 	C 	0.02620 0.96990 0.60467 -0.09500
H 	H 	0.06070 0.96460 0.59210 0.06700
C 	C 	0.96200 0.99640 0.60449 -0.02300
H 	H 	0.95370 0.00880 0.59180 0.04300
C 	C 	0.91040 0.00430 0.62330 -0.01300
C 	C 	0.92280 0.98580 0.64233 -0.02000
H 	H 	0.88830 0.99120 0.65490 0.04900
C 	C 	0.98700 0.95940 0.64251 -0.09700
H 	H 	0.99530 0.94700 0.65520 0.06800
Cu	Cu	0.33789 0.75930 0.49599 0.90200
C 	C 	0.03170 0.81990 0.42398 0.01400
C 	C 	0.94470 0.80794 0.41582 -0.03900
H 	H 	0.91880 0.78840 0.42130 0.04700
C 	C 	0.89640 0.82510 0.39939 -0.07900
H 	H 	0.83820 0.81710 0.39390 0.06400
C 	C 	0.93520 0.85430 0.39112 0.05500
C 	C 	0.02220 0.86627 0.39929 -0.07500
H 	H 	0.04820 0.88580 0.39380 0.07100
C 	C 	0.07050 0.84910 0.41572 -0.03900
H 	H 	0.12880 0.85710 0.42120 0.07100
C 	C 	0.13370 0.90261 0.60539 0.06600
C 	C 	0.22110 0.88650 0.60184 -0.09700
H 	H 	0.27400 0.89100 0.61070 0.06600
C 	C 	0.22930 0.86350 0.58498 -0.02000
H 	H 	0.28770 0.85270 0.58260 0.03800
C 	C 	0.15020 0.85670 0.57166 -0.01400
C 	C 	0.06280 0.87280 0.57521 -0.02100
H 	H 	0.00990 0.86830 0.56630 0.04000
C 	C 	0.05460 0.89580 0.59207 -0.09700
H 	H 	0.99620 0.90660 0.59440 0.06600
C 	C 	0.16230 0.80390 0.44840 -0.16300
H 	H 	0.20420 0.81690 0.44020 0.12000
C 	C 	0.16040 0.83220 0.55360 0.04700
H 	H 	0.10350 0.82190 0.54920 0.03600
C 	C 	0.07280 0.80290 0.44290 0.01400
H 	H 	0.03110 0.79040 0.45160 0.04700
C 	C 	0.85200 0.03410 0.62260 0.06700
C 	C 	0.23970 0.82300 0.54290 -0.22800
H 	H 	0.29700 0.83360 0.54660 0.12600
C 	C 	0.20490 0.78370 0.46880 0.32600
C 	C 	0.24500 0.79690 0.52520 0.42300
O 	O 	0.13320 0.76910 0.47906 -0.39400
O 	O 	0.16250 0.78000 0.52388 -0.40100
C 	C 	0.74400 0.07940 0.62800 0.45400
O 	O 	0.74160 0.09330 0.60870 -0.37200
O 	O 	0.70600 0.08790 0.64280 -0.46900
C 	C 	0.53600 0.12610 0.51930 0.05800
O 	O 	0.57690 0.12550 0.56950 -0.37300
C 	C 	0.80100 0.04930 0.63350 -0.12500
C 	C 	0.93200 0.69270 0.61040 -0.00600
O 	O 	0.29400 0.28620 0.97240 -0.39700
O 	O 	0.31650 0.29600 0.01570 -0.45800
C 	C 	0.03860 0.45142 0.12368 0.06600
C 	C 	0.02620 0.46990 0.10467 -0.09500
H 	H 	0.06070 0.46460 0.09210 0.06700
C 	C 	0.96200 0.49640 0.10449 -0.02200
H 	H 	0.95370 0.50880 0.09180 0.04300
C 	C 	0.91040 0.50430 0.12330 -0.01400
C 	C 	0.92280 0.48580 0.14233 -0.02000
H 	H 	0.88830 0.49120 0.15490 0.04900
C 	C 	0.98700 0.45940 0.14251 -0.09700
H 	H 	0.99530 0.44700 0.15520 0.06800
Cu	Cu	0.33789 0.25930 0.99599 0.90200
C 	C 	0.03170 0.31990 0.92398 0.01400
C 	C 	0.94470 0.30794 0.91582 -0.03900
H 	H 	0.91880 0.28840 0.92130 0.04700
C 	C 	0.89640 0.32510 0.89939 -0.07900
H 	H 	0.83820 0.31710 0.89390 0.06400
C 	C 	0.93520 0.35430 0.89112 0.05500
C 	C 	0.02220 0.36627 0.89929 -0.07500
H 	H 	0.04820 0.38580 0.89380 0.07100
C 	C 	0.07050 0.34910 0.91572 -0.03900
H 	H 	0.12880 0.35710 0.92120 0.07100
C 	C 	0.13370 0.40261 0.10539 0.06600
C 	C 	0.22110 0.38650 0.10184 -0.09700
H 	H 	0.27400 0.39100 0.11070 0.06600
C 	C 	0.22930 0.36350 0.08498 -0.02000
H 	H 	0.28770 0.35270 0.08260 0.03800
C 	C 	0.15020 0.35670 0.07166 -0.01400
C 	C 	0.06280 0.37280 0.07521 -0.02100
H 	H 	0.00990 0.36830 0.06630 0.04000
C 	C 	0.05460 0.39580 0.09207 -0.09700
H 	H 	0.99620 0.40660 0.09440 0.06600
C 	C 	0.16230 0.30390 0.94840 -0.16300
H 	H 	0.20420 0.31690 0.94020 0.12000
C 	C 	0.16040 0.33220 0.05360 0.04700
H 	H 	0.10350 0.32190 0.04920 0.03600
C 	C 	0.07280 0.30290 0.94290 0.01400
H 	H 	0.03110 0.29040 0.95160 0.04700
C 	C 	0.85200 0.53410 0.12260 0.06700
C 	C 	0.23970 0.32300 0.04290 -0.22800
H 	H 	0.29700 0.33360 0.04660 0.12600
C 	C 	0.20490 0.28370 0.96880 0.32600
C 	C 	0.24500 0.29690 0.02520 0.42300
O 	O 	0.13320 0.26910 0.97906 -0.39400
O 	O 	0.16250 0.28000 0.02388 -0.40100
C 	C 	0.74400 0.57940 0.12800 0.45400
O 	O 	0.74160 0.59330 0.10870 -0.37200
O 	O 	0.70600 0.58790 0.14280 -0.46900
C 	C 	0.53600 0.62610 0.01930 0.05800
O 	O 	0.57690 0.62550 0.06950 -0.37300
C 	C 	0.80100 0.54930 0.13350 -0.12500
C 	C 	0.93200 0.19270 0.11040 -0.00600
O 	O 	0.79400 0.78620 0.97240 -0.39700
O 	O 	0.81650 0.79600 0.01570 -0.45800
C 	C 	0.53860 0.95142 0.12368 0.06600
C 	C 	0.52620 0.96990 0.10467 -0.09500
H 	H 	0.56070 0.96460 0.09210 0.06700
C 	C 	0.46200 0.99640 0.10449 -0.02200
H 	H 	0.45370 0.00880 0.09180 0.04300
C 	C 	0.41040 0.00430 0.12330 -0.01400
C 	C 	0.42280 0.98580 0.14233 -0.02000
H 	H 	0.38830 0.99120 0.15490 0.04900
C 	C 	0.48700 0.95940 0.14251 -0.09700
H 	H 	0.49530 0.94700 0.15520 0.06800
Cu	Cu	0.83789 0.75930 0.99599 0.90200
C 	C 	0.53170 0.81990 0.92398 0.01400
C 	C 	0.44470 0.80794 0.91582 -0.03900
H 	H 	0.41880 0.78840 0.92130 0.04700
C 	C 	0.39640 0.82510 0.89939 -0.07900
H 	H 	0.33820 0.81710 0.89390 0.06400
C 	C 	0.43520 0.85430 0.89112 0.05500
C 	C 	0.52220 0.86627 0.89929 -0.07500
H 	H 	0.54820 0.88580 0.89380 0.07100
C 	C 	0.57050 0.84910 0.91572 -0.03900
H 	H 	0.62880 0.85710 0.92120 0.07100
C 	C 	0.63370 0.90261 0.10539 0.06600
C 	C 	0.72110 0.88650 0.10184 -0.09800
H 	H 	0.77400 0.89100 0.11070 0.06600
C 	C 	0.72930 0.86350 0.08498 -0.02000
H 	H 	0.78770 0.85270 0.08260 0.03700
C 	C 	0.65020 0.85670 0.07166 -0.01500
C 	C 	0.56280 0.87280 0.07521 -0.02100
H 	H 	0.50990 0.86830 0.06630 0.03900
C 	C 	0.55460 0.89580 0.09207 -0.09800
H 	H 	0.49620 0.90660 0.09440 0.06700
C 	C 	0.66230 0.80390 0.94840 -0.16400
H 	H 	0.70420 0.81690 0.94020 0.12000
C 	C 	0.66040 0.83220 0.05360 0.04700
H 	H 	0.60350 0.82190 0.04920 0.03600
C 	C 	0.57280 0.80290 0.94290 0.01400
H 	H 	0.53110 0.79040 0.95160 0.04700
C 	C 	0.35200 0.03410 0.12260 0.06800
C 	C 	0.73970 0.82300 0.04290 -0.22800
H 	H 	0.79700 0.83360 0.04660 0.12600
C 	C 	0.70490 0.78370 0.96880 0.32600
C 	C 	0.74500 0.79690 0.02520 0.42300
O 	O 	0.63320 0.76910 0.97906 -0.39400
O 	O 	0.66250 0.78000 0.02388 -0.40100
C 	C 	0.24400 0.07940 0.12800 0.45400
O 	O 	0.24160 0.09330 0.10870 -0.37200
O 	O 	0.20600 0.08790 0.14280 -0.46900
C 	C 	0.03600 0.12610 0.01930 0.05800
O 	O 	0.07690 0.12550 0.06950 -0.37300
C 	C 	0.30100 0.04930 0.13350 -0.12500
C 	C 	0.43200 0.69270 0.11040 -0.00600
O 	O 	0.79400 0.28620 0.47240 -0.39700
O 	O 	0.81650 0.29600 0.51570 -0.45800
C 	C 	0.53860 0.45142 0.62368 0.06600
C 	C 	0.52620 0.46990 0.60467 -0.09500
H 	H 	0.56070 0.46460 0.59210 0.06700
C 	C 	0.46200 0.49640 0.60449 -0.02200
H 	H 	0.45370 0.50880 0.59180 0.04300
C 	C 	0.41040 0.50430 0.62330 -0.01400
C 	C 	0.42280 0.48580 0.64233 -0.02000
H 	H 	0.38830 0.49120 0.65490 0.04900
C 	C 	0.48700 0.45940 0.64251 -0.09700
H 	H 	0.49530 0.44700 0.65520 0.06800
Cu	Cu	0.83789 0.25930 0.49599 0.90200
C 	C 	0.53170 0.31990 0.42398 0.01400
C 	C 	0.44470 0.30794 0.41582 -0.03900
H 	H 	0.41880 0.28840 0.42130 0.04700
C 	C 	0.39640 0.32510 0.39939 -0.07900
H 	H 	0.33820 0.31710 0.39390 0.06400
C 	C 	0.43520 0.35430 0.39112 0.05500
C 	C 	0.52220 0.36627 0.39929 -0.07500
H 	H 	0.54820 0.38580 0.39380 0.07100
C 	C 	0.57050 0.34910 0.41572 -0.03900
H 	H 	0.62880 0.35710 0.42120 0.07100
C 	C 	0.63370 0.40261 0.60539 0.06600
C 	C 	0.72110 0.38650 0.60184 -0.09800
H 	H 	0.77400 0.39100 0.61070 0.06600
C 	C 	0.72930 0.36350 0.58498 -0.02000
H 	H 	0.78770 0.35270 0.58260 0.03700
C 	C 	0.65020 0.35670 0.57166 -0.01500
C 	C 	0.56280 0.37280 0.57521 -0.02100
H 	H 	0.50990 0.36830 0.56630 0.03900
C 	C 	0.55460 0.39580 0.59207 -0.09800
H 	H 	0.49620 0.40660 0.59440 0.06700
C 	C 	0.66230 0.30390 0.44840 -0.16400
H 	H 	0.70420 0.31690 0.44020 0.12000
C 	C 	0.66040 0.33220 0.55360 0.04700
H 	H 	0.60350 0.32190 0.54920 0.03600
C 	C 	0.57280 0.30290 0.44290 0.01400
H 	H 	0.53110 0.29040 0.45160 0.04700
C 	C 	0.35200 0.53410 0.62260 0.06800
C 	C 	0.73970 0.32300 0.54290 -0.22800
H 	H 	0.79700 0.33360 0.54660 0.12600
C 	C 	0.70490 0.28370 0.46880 0.32600
C 	C 	0.74500 0.29690 0.52520 0.42300
O 	O 	0.63320 0.26910 0.47906 -0.39400
O 	O 	0.66250 0.28000 0.52388 -0.40100
C 	C 	0.24400 0.57940 0.62800 0.45400
O 	O 	0.24160 0.59330 0.60870 -0.37200
O 	O 	0.20600 0.58790 0.64280 -0.46900
C 	C 	0.03600 0.62610 0.51930 0.05800
O 	O 	0.07690 0.62550 0.56950 -0.37300
C 	C 	0.30100 0.54930 0.63350 -0.12500
C 	C 	0.43200 0.19270 0.61040 -0.00600
O 	O 	0.29400 0.46380 0.77760 -0.39700
O 	O 	0.31650 0.45400 0.73430 -0.45800
C 	C 	0.03860 0.29858 0.62632 0.06600
C 	C 	0.02620 0.28010 0.64533 -0.09500
H 	H 	0.06070 0.28540 0.65790 0.06700
C 	C 	0.96200 0.25360 0.64551 -0.02200
H 	H 	0.95370 0.24120 0.65820 0.04300
C 	C 	0.91040 0.24570 0.62670 -0.01400
C 	C 	0.92280 0.26420 0.60767 -0.02000
H 	H 	0.88830 0.25880 0.59510 0.04900
C 	C 	0.98700 0.29060 0.60749 -0.09700
H 	H 	0.99530 0.30300 0.59480 0.06800
Cu	Cu	0.33789 0.49070 0.75401 0.90200
C 	C 	0.03170 0.43010 0.82602 0.01400
C 	C 	0.94470 0.44206 0.83418 -0.03900
H 	H 	0.91880 0.46160 0.82870 0.04700
C 	C 	0.89640 0.42490 0.85061 -0.07900
H 	H 	0.83820 0.43290 0.85610 0.06400
C 	C 	0.93520 0.39570 0.85888 0.05500
C 	C 	0.02220 0.38373 0.85071 -0.07500
H 	H 	0.04820 0.36420 0.85620 0.07100
C 	C 	0.07050 0.40090 0.83428 -0.03900
H 	H 	0.12880 0.39290 0.82880 0.07100
C 	C 	0.13370 0.34739 0.64461 0.06600
C 	C 	0.22110 0.36350 0.64816 -0.09700
H 	H 	0.27400 0.35900 0.63930 0.06600
C 	C 	0.22930 0.38650 0.66502 -0.02000
H 	H 	0.28770 0.39730 0.66740 0.03800
C 	C 	0.15020 0.39330 0.67834 -0.01400
C 	C 	0.06280 0.37720 0.67479 -0.02100
H 	H 	0.00990 0.38170 0.68370 0.04000
C 	C 	0.05460 0.35420 0.65793 -0.09700
H 	H 	0.99620 0.34340 0.65560 0.06600
C 	C 	0.16230 0.44610 0.80160 -0.16300
H 	H 	0.20420 0.43310 0.80980 0.12000
C 	C 	0.16040 0.41780 0.69640 0.04700
H 	H 	0.10350 0.42810 0.70080 0.03600
C 	C 	0.07280 0.44710 0.80710 0.01400
H 	H 	0.03110 0.45960 0.79840 0.04700
C 	C 	0.85200 0.21590 0.62740 0.06700
C 	C 	0.23970 0.42700 0.70710 -0.22800
H 	H 	0.29700 0.41640 0.70340 0.12600
C 	C 	0.20490 0.46630 0.78120 0.32600
C 	C 	0.24500 0.45310 0.72480 0.42300
O 	O 	0.13320 0.48090 0.77094 -0.39400
O 	O 	0.16250 0.47000 0.72612 -0.40100
C 	C 	0.74400 0.17060 0.62200 0.45400
O 	O 	0.74160 0.15670 0.64130 -0.37200
O 	O 	0.70600 0.16210 0.60720 -0.46900
C 	C 	0.53600 0.12390 0.73070 0.05800
O 	O 	0.57690 0.12450 0.68050 -0.37300
C 	C 	0.80100 0.20070 0.61650 -0.12500
C 	C 	0.93200 0.55730 0.63960 -0.00600
O 	O 	0.29400 0.96380 0.27760 -0.39700
O 	O 	0.31650 0.95400 0.23430 -0.45800
C 	C 	0.03860 0.79858 0.12632 0.06600
C 	C 	0.02620 0.78010 0.14533 -0.09500
H 	H 	0.06070 0.78540 0.15790 0.06700
C 	C 	0.96200 0.75360 0.14551 -0.02200
H 	H 	0.95370 0.74120 0.15820 0.04300
C 	C 	0.91040 0.74570 0.12670 -0.01400
C 	C 	0.92280 0.76420 0.10767 -0.02000
H 	H 	0.88830 0.75880 0.09510 0.04900
C 	C 	0.98700 0.79060 0.10749 -0.09700
H 	H 	0.99530 0.80300 0.09480 0.06800
Cu	Cu	0.33789 0.99070 0.25401 0.90200
C 	C 	0.03170 0.93010 0.32602 0.01400
C 	C 	0.94470 0.94206 0.33418 -0.03900
H 	H 	0.91880 0.96160 0.32870 0.04700
C 	C 	0.89640 0.92490 0.35061 -0.07900
H 	H 	0.83820 0.93290 0.35610 0.06400
C 	C 	0.93520 0.89570 0.35888 0.05500
C 	C 	0.02220 0.88373 0.35071 -0.07500
H 	H 	0.04820 0.86420 0.35620 0.07100
C 	C 	0.07050 0.90090 0.33428 -0.03900
H 	H 	0.12880 0.89290 0.32880 0.07100
C 	C 	0.13370 0.84739 0.14461 0.06600
C 	C 	0.22110 0.86350 0.14816 -0.09700
H 	H 	0.27400 0.85900 0.13930 0.06600
C 	C 	0.22930 0.88650 0.16502 -0.02000
H 	H 	0.28770 0.89730 0.16740 0.03800
C 	C 	0.15020 0.89330 0.17834 -0.01400
C 	C 	0.06280 0.87720 0.17479 -0.02100
H 	H 	0.00990 0.88170 0.18370 0.04000
C 	C 	0.05460 0.85420 0.15793 -0.09700
H 	H 	0.99620 0.84340 0.15560 0.06600
C 	C 	0.16230 0.94610 0.30160 -0.16300
H 	H 	0.20420 0.93310 0.30980 0.12000
C 	C 	0.16040 0.91780 0.19640 0.04700
H 	H 	0.10350 0.92810 0.20080 0.03600
C 	C 	0.07280 0.94710 0.30710 0.01400
H 	H 	0.03110 0.95960 0.29840 0.04700
C 	C 	0.85200 0.71590 0.12740 0.06700
C 	C 	0.23970 0.92700 0.20710 -0.22800
H 	H 	0.29700 0.91640 0.20340 0.12600
C 	C 	0.20490 0.96630 0.28120 0.32600
C 	C 	0.24500 0.95310 0.22480 0.42300
O 	O 	0.13320 0.98090 0.27094 -0.39400
O 	O 	0.16250 0.97000 0.22612 -0.40100
C 	C 	0.74400 0.67060 0.12200 0.45400
O 	O 	0.74160 0.65670 0.14130 -0.37200
O 	O 	0.70600 0.66210 0.10720 -0.46900
C 	C 	0.53600 0.62390 0.23070 0.05800
O 	O 	0.57690 0.62450 0.18050 -0.37300
C 	C 	0.80100 0.70070 0.11650 -0.12500
C 	C 	0.93200 0.05730 0.13960 -0.00600
O 	O 	0.79400 0.46380 0.27760 -0.39700
O 	O 	0.81650 0.45400 0.23430 -0.45800
C 	C 	0.53860 0.29858 0.12632 0.06600
C 	C 	0.52620 0.28010 0.14533 -0.09500
H 	H 	0.56070 0.28540 0.15790 0.06700
C 	C 	0.46200 0.25360 0.14551 -0.02200
H 	H 	0.45370 0.24120 0.15820 0.04300
C 	C 	0.41040 0.24570 0.12670 -0.01400
C 	C 	0.42280 0.26420 0.10767 -0.02000
H 	H 	0.38830 0.25880 0.09510 0.04900
C 	C 	0.48700 0.29060 0.10749 -0.09700
H 	H 	0.49530 0.30300 0.09480 0.06800
Cu	Cu	0.83789 0.49070 0.25401 0.90200
C 	C 	0.53170 0.43010 0.32602 0.01400
C 	C 	0.44470 0.44206 0.33418 -0.03900
H 	H 	0.41880 0.46160 0.32870 0.04700
C 	C 	0.39640 0.42490 0.35061 -0.07900
H 	H 	0.33820 0.43290 0.35610 0.06400
C 	C 	0.43520 0.39570 0.35888 0.05500
C 	C 	0.52220 0.38373 0.35071 -0.07500
H 	H 	0.54820 0.36420 0.35620 0.07100
C 	C 	0.57050 0.40090 0.33428 -0.03900
H 	H 	0.62880 0.39290 0.32880 0.07100
C 	C 	0.63370 0.34739 0.14461 0.06600
C 	C 	0.72110 0.36350 0.14816 -0.09800
H 	H 	0.77400 0.35900 0.13930 0.06600
C 	C 	0.72930 0.38650 0.16502 -0.02000
H 	H 	0.78770 0.39730 0.16740 0.03700
C 	C 	0.65020 0.39330 0.17834 -0.01500
C 	C 	0.56280 0.37720 0.17479 -0.02100
H 	H 	0.50990 0.38170 0.18370 0.03900
C 	C 	0.55460 0.35420 0.15793 -0.09800
H 	H 	0.49620 0.34340 0.15560 0.06700
C 	C 	0.66230 0.44610 0.30160 -0.16400
H 	H 	0.70420 0.43310 0.30980 0.12000
C 	C 	0.66040 0.41780 0.19640 0.04700
H 	H 	0.60350 0.42810 0.20080 0.03600
C 	C 	0.57280 0.44710 0.30710 0.01400
H 	H 	0.53110 0.45960 0.29840 0.04700
C 	C 	0.35200 0.21590 0.12740 0.06800
C 	C 	0.73970 0.42700 0.20710 -0.22800
H 	H 	0.79700 0.41640 0.20340 0.12600
C 	C 	0.70490 0.46630 0.28120 0.32600
C 	C 	0.74500 0.45310 0.22480 0.42300
O 	O 	0.63320 0.48090 0.27094 -0.39400
O 	O 	0.66250 0.47000 0.22612 -0.40100
C 	C 	0.24400 0.17060 0.12200 0.45400
O 	O 	0.24160 0.15670 0.14130 -0.37200
O 	O 	0.20600 0.16210 0.10720 -0.46900
C 	C 	0.03600 0.12390 0.23070 0.05800
O 	O 	0.07690 0.12450 0.18050 -0.37300
C 	C 	0.30100 0.20070 0.11650 -0.12500
C 	C 	0.43200 0.55730 0.13960 -0.00600
O 	O 	0.79400 0.96380 0.77760 -0.39700
O 	O 	0.81650 0.95400 0.73430 -0.45800
C 	C 	0.53860 0.79858 0.62632 0.06600
C 	C 	0.52620 0.78010 0.64533 -0.09500
H 	H 	0.56070 0.78540 0.65790 0.06700
C 	C 	0.46200 0.75360 0.64551 -0.02200
H 	H 	0.45370 0.74120 0.65820 0.04300
C 	C 	0.41040 0.74570 0.62670 -0.01400
C 	C 	0.42280 0.76420 0.60767 -0.02000
H 	H 	0.38830 0.75880 0.59510 0.04900
C 	C 	0.48700 0.79060 0.60749 -0.09700
H 	H 	0.49530 0.80300 0.59480 0.06800
Cu	Cu	0.83789 0.99070 0.75401 0.90200
C 	C 	0.53170 0.93010 0.82602 0.01400
C 	C 	0.44470 0.94206 0.83418 -0.03900
H 	H 	0.41880 0.96160 0.82870 0.04700
C 	C 	0.39640 0.92490 0.85061 -0.07900
H 	H 	0.33820 0.93290 0.85610 0.06400
C 	C 	0.43520 0.89570 0.85888 0.05500
C 	C 	0.52220 0.88373 0.85071 -0.07500
H 	H 	0.54820 0.86420 0.85620 0.07100
C 	C 	0.57050 0.90090 0.83428 -0.03900
H 	H 	0.62880 0.89290 0.82880 0.07100
C 	C 	0.63370 0.84739 0.64461 0.06600
C 	C 	0.72110 0.86350 0.64816 -0.09800
H 	H 	0.77400 0.85900 0.63930 0.06600
C 	C 	0.72930 0.88650 0.66502 -0.02000
H 	H 	0.78770 0.89730 0.66740 0.03700
C 	C 	0.65020 0.89330 0.67834 -0.01500
C 	C 	0.56280 0.87720 0.67479 -0.02100
H 	H 	0.50990 0.88170 0.68370 0.03900
C 	C 	0.55460 0.85420 0.65793 -0.09800
H 	H 	0.49620 0.84340 0.65560 0.06700
C 	C 	0.66230 0.94610 0.80160 -0.16400
H 	H 	0.70420 0.93310 0.80980 0.12000
C 	C 	0.66040 0.91780 0.69640 0.04700
H 	H 	0.60350 0.92810 0.70080 0.03600
C 	C 	0.57280 0.94710 0.80710 0.01400
H 	H 	0.53110 0.95960 0.79840 0.04700
C 	C 	0.35200 0.71590 0.62740 0.06800
C 	C 	0.73970 0.92700 0.70710 -0.22800
H 	H 	0.79700 0.91640 0.70340 0.12600
C 	C 	0.70490 0.96630 0.78120 0.32600
C 	C 	0.74500 0.95310 0.72480 0.42300
O 	O 	0.63320 0.98090 0.77094 -0.39400
O 	O 	0.66250 0.97000 0.72612 -0.40100
C 	C 	0.24400 0.67060 0.62200 0.45400
O 	O 	0.24160 0.65670 0.64130 -0.37200
O 	O 	0.20600 0.66210 0.60720 -0.46900
C 	C 	0.03600 0.62390 0.73070 0.05800
O 	O 	0.07690 0.62450 0.68050 -0.37300
C 	C 	0.30100 0.70070 0.61650 -0.12500
C 	C 	0.43200 0.05730 0.63960 -0.00600
O 	O 	0.95600 0.78620 0.77760 -0.39700
O 	O 	0.93350 0.79600 0.73430 -0.45800
C 	C 	0.21140 0.95142 0.62632 0.06600
C 	C 	0.22380 0.96990 0.64533 -0.09500
H 	H 	0.18930 0.96460 0.65790 0.06700
C 	C 	0.28800 0.99640 0.64551 -0.02200
H 	H 	0.29630 0.00880 0.65820 0.04300
C 	C 	0.33960 0.00430 0.62670 -0.01400
C 	C 	0.32720 0.98580 0.60767 -0.02000
H 	H 	0.36170 0.99120 0.59510 0.04900
C 	C 	0.26300 0.95940 0.60749 -0.09700
H 	H 	0.25470 0.94700 0.59480 0.06800
Cu	Cu	0.91211 0.75930 0.75401 0.90200
C 	C 	0.21830 0.81990 0.82602 0.01400
C 	C 	0.30530 0.80794 0.83418 -0.03900
H 	H 	0.33120 0.78840 0.82870 0.04700
C 	C 	0.35360 0.82510 0.85061 -0.07900
H 	H 	0.41180 0.81710 0.85610 0.06400
C 	C 	0.31480 0.85430 0.85888 0.05500
C 	C 	0.22780 0.86627 0.85071 -0.07500
H 	H 	0.20180 0.88580 0.85620 0.07100
C 	C 	0.17950 0.84910 0.83428 -0.03900
H 	H 	0.12120 0.85710 0.82880 0.07100
C 	C 	0.11630 0.90261 0.64461 0.06600
C 	C 	0.02890 0.88650 0.64816 -0.09700
H 	H 	0.97600 0.89100 0.63930 0.06600
C 	C 	0.02070 0.86350 0.66502 -0.02000
H 	H 	0.96230 0.85270 0.66740 0.03700
C 	C 	0.09980 0.85670 0.67834 -0.01500
C 	C 	0.18720 0.87280 0.67479 -0.02100
H 	H 	0.24010 0.86830 0.68370 0.03900
C 	C 	0.19540 0.89580 0.65793 -0.09800
H 	H 	0.25380 0.90660 0.65560 0.06700
C 	C 	0.08770 0.80390 0.80160 -0.16300
H 	H 	0.04580 0.81690 0.80980 0.12000
C 	C 	0.08960 0.83220 0.69640 0.04700
H 	H 	0.14650 0.82190 0.70080 0.03600
C 	C 	0.17720 0.80290 0.80710 0.01400
H 	H 	0.21890 0.79040 0.79840 0.04700
C 	C 	0.39800 0.03410 0.62740 0.06800
C 	C 	0.01030 0.82300 0.70710 -0.22800
H 	H 	0.95300 0.83360 0.70340 0.12600
C 	C 	0.04510 0.78370 0.78120 0.32600
C 	C 	0.00500 0.79690 0.72480 0.42300
O 	O 	0.11680 0.76910 0.77094 -0.39400
O 	O 	0.08750 0.78000 0.72612 -0.40100
C 	C 	0.50600 0.07940 0.62200 0.45400
O 	O 	0.50840 0.09330 0.64130 -0.37200
O 	O 	0.54400 0.08790 0.60720 -0.46900
C 	C 	0.71400 0.12610 0.73070 0.05800
O 	O 	0.67310 0.12550 0.68050 -0.37300
C 	C 	0.44900 0.04930 0.61650 -0.12500
C 	C 	0.31800 0.69270 0.63960 -0.00600
O 	O 	0.95600 0.28620 0.27760 -0.39700
O 	O 	0.93350 0.29600 0.23430 -0.45800
C 	C 	0.21140 0.45142 0.12632 0.06600
C 	C 	0.22380 0.46990 0.14533 -0.09500
H 	H 	0.18930 0.46460 0.15790 0.06700
C 	C 	0.28800 0.49640 0.14551 -0.02200
H 	H 	0.29630 0.50880 0.15820 0.04300
C 	C 	0.33960 0.50430 0.12670 -0.01400
C 	C 	0.32720 0.48580 0.10767 -0.02000
H 	H 	0.36170 0.49120 0.09510 0.04900
C 	C 	0.26300 0.45940 0.10749 -0.09700
H 	H 	0.25470 0.44700 0.09480 0.06800
Cu	Cu	0.91211 0.25930 0.25401 0.90200
C 	C 	0.21830 0.31990 0.32602 0.01400
C 	C 	0.30530 0.30794 0.33418 -0.03900
H 	H 	0.33120 0.28840 0.32870 0.04700
C 	C 	0.35360 0.32510 0.35061 -0.07900
H 	H 	0.41180 0.31710 0.35610 0.06400
C 	C 	0.31480 0.35430 0.35888 0.05500
C 	C 	0.22780 0.36627 0.35071 -0.07500
H 	H 	0.20180 0.38580 0.35620 0.07100
C 	C 	0.17950 0.34910 0.33428 -0.03900
H 	H 	0.12120 0.35710 0.32880 0.07100
C 	C 	0.11630 0.40261 0.14461 0.06600
C 	C 	0.02890 0.38650 0.14816 -0.09700
H 	H 	0.97600 0.39100 0.13930 0.06600
C 	C 	0.02070 0.36350 0.16502 -0.02000
H 	H 	0.96230 0.35270 0.16740 0.03700
C 	C 	0.09980 0.35670 0.17834 -0.01500
C 	C 	0.18720 0.37280 0.17479 -0.02100
H 	H 	0.24010 0.36830 0.18370 0.03900
C 	C 	0.19540 0.39580 0.15793 -0.09800
H 	H 	0.25380 0.40660 0.15560 0.06700
C 	C 	0.08770 0.30390 0.30160 -0.16300
H 	H 	0.04580 0.31690 0.30980 0.12000
C 	C 	0.08960 0.33220 0.19640 0.04700
H 	H 	0.14650 0.32190 0.20080 0.03600
C 	C 	0.17720 0.30290 0.30710 0.01400
H 	H 	0.21890 0.29040 0.29840 0.04700
C 	C 	0.39800 0.53410 0.12740 0.06800
C 	C 	0.01030 0.32300 0.20710 -0.22800
H 	H 	0.95300 0.33360 0.20340 0.12600
C 	C 	0.04510 0.28370 0.28120 0.32600
C 	C 	0.00500 0.29690 0.22480 0.42300
O 	O 	0.11680 0.26910 0.27094 -0.39400
O 	O 	0.08750 0.28000 0.22612 -0.40100
C 	C 	0.50600 0.57940 0.12200 0.45400
O 	O 	0.50840 0.59330 0.14130 -0.37200
O 	O 	0.54400 0.58790 0.10720 -0.46900
C 	C 	0.71400 0.62610 0.23070 0.05800
O 	O 	0.67310 0.62550 0.18050 -0.37300
C 	C 	0.44900 0.54930 0.11650 -0.12500
C 	C 	0.31800 0.19270 0.13960 -0.00600
O 	O 	0.45600 0.78620 0.27760 -0.39700
O 	O 	0.43350 0.79600 0.23430 -0.45800
C 	C 	0.71140 0.95142 0.12632 0.06600
C 	C 	0.72380 0.96990 0.14533 -0.09500
H 	H 	0.68930 0.96460 0.15790 0.06700
C 	C 	0.78800 0.99640 0.14551 -0.02200
H 	H 	0.79630 0.00880 0.15820 0.04300
C 	C 	0.83960 0.00430 0.12670 -0.01400
C 	C 	0.82720 0.98580 0.10767 -0.02000
H 	H 	0.86170 0.99120 0.09510 0.04900
C 	C 	0.76300 0.95940 0.10749 -0.09700
H 	H 	0.75470 0.94700 0.09480 0.06800
Cu	Cu	0.41211 0.75930 0.25401 0.90200
C 	C 	0.71830 0.81990 0.32602 0.01400
C 	C 	0.80530 0.80794 0.33418 -0.03900
H 	H 	0.83120 0.78840 0.32870 0.04700
C 	C 	0.85360 0.82510 0.35061 -0.07900
H 	H 	0.91180 0.81710 0.35610 0.06400
C 	C 	0.81480 0.85430 0.35888 0.05500
C 	C 	0.72780 0.86627 0.35071 -0.07500
H 	H 	0.70180 0.88580 0.35620 0.07100
C 	C 	0.67950 0.84910 0.33428 -0.03900
H 	H 	0.62120 0.85710 0.32880 0.07100
C 	C 	0.61630 0.90261 0.14461 0.06600
C 	C 	0.52890 0.88650 0.14816 -0.09800
H 	H 	0.47600 0.89100 0.13930 0.06600
C 	C 	0.52070 0.86350 0.16502 -0.02000
H 	H 	0.46230 0.85270 0.16740 0.03800
C 	C 	0.59980 0.85670 0.17834 -0.01500
C 	C 	0.68720 0.87280 0.17479 -0.02100
H 	H 	0.74010 0.86830 0.18370 0.03900
C 	C 	0.69540 0.89580 0.15793 -0.09800
H 	H 	0.75380 0.90660 0.15560 0.06700
C 	C 	0.58770 0.80390 0.30160 -0.16400
H 	H 	0.54580 0.81690 0.30980 0.12000
C 	C 	0.58960 0.83220 0.19640 0.04700
H 	H 	0.64650 0.82190 0.20080 0.03600
C 	C 	0.67720 0.80290 0.30710 0.01400
H 	H 	0.71890 0.79040 0.29840 0.04700
C 	C 	0.89800 0.03410 0.12740 0.06800
C 	C 	0.51030 0.82300 0.20710 -0.22800
H 	H 	0.45300 0.83360 0.20340 0.12600
C 	C 	0.54510 0.78370 0.28120 0.32600
C 	C 	0.50500 0.79690 0.22480 0.42300
O 	O 	0.61680 0.76910 0.27094 -0.39400
O 	O 	0.58750 0.78000 0.22612 -0.40100
C 	C 	0.00600 0.07940 0.12200 0.45500
O 	O 	0.00840 0.09330 0.14130 -0.37200
O 	O 	0.04400 0.08790 0.10720 -0.46900
C 	C 	0.21400 0.12610 0.23070 0.05800
O 	O 	0.17310 0.12550 0.18050 -0.37300
C 	C 	0.94900 0.04930 0.11650 -0.12600
C 	C 	0.81800 0.69270 0.13960 -0.00600
O 	O 	0.45600 0.28620 0.77760 -0.39700
O 	O 	0.43350 0.29600 0.73430 -0.45800
C 	C 	0.71140 0.45142 0.62632 0.06600
C 	C 	0.72380 0.46990 0.64533 -0.09500
H 	H 	0.68930 0.46460 0.65790 0.06700
C 	C 	0.78800 0.49640 0.64551 -0.02200
H 	H 	0.79630 0.50880 0.65820 0.04200
C 	C 	0.83960 0.50430 0.62670 -0.01400
C 	C 	0.82720 0.48580 0.60767 -0.01900
H 	H 	0.86170 0.49120 0.59510 0.04900
C 	C 	0.76300 0.45940 0.60749 -0.09800
H 	H 	0.75470 0.44700 0.59480 0.06800
Cu	Cu	0.41211 0.25930 0.75401 0.90200
C 	C 	0.71830 0.31990 0.82602 0.01400
C 	C 	0.80530 0.30794 0.83418 -0.03900
H 	H 	0.83120 0.28840 0.82870 0.04700
C 	C 	0.85360 0.32510 0.85061 -0.07900
H 	H 	0.91180 0.31710 0.85610 0.06400
C 	C 	0.81480 0.35430 0.85888 0.05500
C 	C 	0.72780 0.36627 0.85071 -0.07500
H 	H 	0.70180 0.38580 0.85620 0.07100
C 	C 	0.67950 0.34910 0.83428 -0.03900
H 	H 	0.62120 0.35710 0.82880 0.07100
C 	C 	0.61630 0.40261 0.64461 0.06600
C 	C 	0.52890 0.38650 0.64816 -0.09800
H 	H 	0.47600 0.39100 0.63930 0.06600
C 	C 	0.52070 0.36350 0.66502 -0.02000
H 	H 	0.46230 0.35270 0.66740 0.03800
C 	C 	0.59980 0.35670 0.67834 -0.01500
C 	C 	0.68720 0.37280 0.67479 -0.02100
H 	H 	0.74010 0.36830 0.68370 0.03900
C 	C 	0.69540 0.39580 0.65793 -0.09800
H 	H 	0.75380 0.40660 0.65560 0.06700
C 	C 	0.58770 0.30390 0.80160 -0.16400
H 	H 	0.54580 0.31690 0.80980 0.12000
C 	C 	0.58960 0.33220 0.69640 0.04700
H 	H 	0.64650 0.32190 0.70080 0.03600
C 	C 	0.67720 0.30290 0.80710 0.01400
H 	H 	0.71890 0.29040 0.79840 0.04700
C 	C 	0.89800 0.53410 0.62740 0.06800
C 	C 	0.51030 0.32300 0.70710 -0.22800
H 	H 	0.45300 0.33360 0.70340 0.12600
C 	C 	0.54510 0.28370 0.78120 0.32600
C 	C 	0.50500 0.29690 0.72480 0.42300
O 	O 	0.61680 0.26910 0.77094 -0.39400
O 	O 	0.58750 0.28000 0.72612 -0.40100
C 	C 	0.00600 0.57940 0.62200 0.45500
O 	O 	0.00840 0.59330 0.64130 -0.37200
O 	O 	0.04400 0.58790 0.60720 -0.46900
C 	C 	0.21400 0.62610 0.73070 0.05800
O 	O 	0.17310 0.62550 0.68050 -0.37300
C 	C 	0.94900 0.54930 0.61650 -0.12600
C 	C 	0.81800 0.19270 0.63960 -0.00600
Cu	Cu	0.37500 0.87500 0.39606 0.95300
C 	C 	0.37500 0.87500 0.44410 0.60300
N 	N 	0.37500 0.87500 0.46640 -0.21600
Cu	Cu	0.37500 0.37500 0.89606 0.95300
C 	C 	0.37500 0.37500 0.94410 0.60300
N 	N 	0.37500 0.37500 0.96640 -0.21600
Cu	Cu	0.87500 0.87500 0.89606 0.95300
C 	C 	0.87500 0.87500 0.94410 0.60300
N 	N 	0.87500 0.87500 0.96640 -0.21600
Cu	Cu	0.87500 0.37500 0.39606 0.95300
C 	C 	0.87500 0.37500 0.44410 0.60300
N 	N 	0.87500 0.37500 0.46640 -0.21600
Cu	Cu	0.37500 0.87500 0.35394 0.95300
C 	C 	0.37500 0.87500 0.30590 0.60300
N 	N 	0.37500 0.87500 0.28360 -0.21600
Cu	Cu	0.37500 0.37500 0.85394 0.95300
C 	C 	0.37500 0.37500 0.80590 0.60300
N 	N 	0.37500 0.37500 0.78360 -0.21600
Cu	Cu	0.87500 0.87500 0.85394 0.95300
C 	C 	0.87500 0.87500 0.80590 0.60300
N 	N 	0.87500 0.87500 0.78360 -0.21600
Cu	Cu	0.87500 0.37500 0.35394 0.95300
C 	C 	0.87500 0.37500 0.30590 0.60300
N 	N 	0.87500 0.37500 0.28360 -0.21600
Cu	Cu	0.62500 0.12500 0.60394 0.95300
C 	C 	0.62500 0.12500 0.55590 0.60300
N 	N 	0.62500 0.12500 0.53360 -0.21600
Cu	Cu	0.62500 0.62500 0.10394 0.95300
C 	C 	0.62500 0.62500 0.05590 0.60300
N 	N 	0.62500 0.62500 0.03360 -0.21600
Cu	Cu	0.12500 0.12500 0.10394 0.95300
C 	C 	0.12500 0.12500 0.05590 0.60300
N 	N 	0.12500 0.12500 0.03360 -0.21600
Cu	Cu	0.12500 0.62500 0.60394 0.95300
C 	C 	0.12500 0.62500 0.55590 0.60300
N 	N 	0.12500 0.62500 0.53360 -0.21600
Cu	Cu	0.62500 0.12500 0.64606 0.95300
C 	C 	0.62500 0.12500 0.69410 0.60300
N 	N 	0.62500 0.12500 0.71640 -0.21600
Cu	Cu	0.62500 0.62500 0.14606 0.95300
C 	C 	0.62500 0.62500 0.19410 0.60300
N 	N 	0.62500 0.62500 0.21640 -0.21600
Cu	Cu	0.12500 0.12500 0.14606 0.95300
C 	C 	0.12500 0.12500 0.19410 0.60300
N 	N 	0.12500 0.12500 0.21640 -0.21600
Cu	Cu	0.12500 0.62500 0.64606 0.95300
C 	C 	0.12500 0.62500 0.69410 0.60300
N 	N 	0.12500 0.62500 0.71640 -0.21600
C 	C 	0.87500 0.67700 0.37500 -0.08700
C 	C 	0.87500 0.17700 0.87500 -0.08700
C 	C 	0.37500 0.67700 0.87500 -0.08700
C 	C 	0.37500 0.17700 0.37500 -0.08700
C 	C 	0.87500 0.07300 0.37500 -0.08700
C 	C 	0.87500 0.57300 0.87500 -0.08700
C 	C 	0.37500 0.07300 0.87500 -0.08700
C 	C 	0.37500 0.57300 0.37500 -0.08700
C 	C 	0.12500 0.32300 0.62500 -0.08700
C 	C 	0.12500 0.82300 0.12500 -0.08700
C 	C 	0.62500 0.32300 0.12500 -0.08700
C 	C 	0.62500 0.82300 0.62500 -0.08700
C 	C 	0.12500 0.92700 0.62500 -0.08700
C 	C 	0.12500 0.42700 0.12500 -0.08700
C 	C 	0.62500 0.92700 0.12500 -0.08700
C 	C 	0.62500 0.42700 0.62500 -0.08700
C 	C 	0.62500 0.62500 0.62500 -0.07600
C 	C 	0.12500 0.12500 0.62500 -0.07600
C 	C 	0.12500 0.62500 0.12500 -0.07600
C 	C 	0.62500 0.12500 0.12500 -0.07600
C 	C 	0.37500 0.37500 0.37500 -0.07600
C 	C 	0.87500 0.87500 0.37500 -0.07600
C 	C 	0.87500 0.37500 0.87500 -0.07600
C 	C 	0.37500 0.87500 0.87500 -0.07600
