data_crystal

_cell_length_a 10.93100
_cell_length_b 16.20990
_cell_length_c 43.60200
_cell_angle_alpha 90.00000
_cell_angle_beta  92.75400
_cell_angle_gamma 90.00000

_symmetry_space_group_name_	'P 1'
_symmetry_space_group_name_H-M	'P 1'

loop_
_symmetry_equiv_pos_as_xyz
  x,y,z

loop_
_atom_site_label
_atom_site_type_symbol
_atom_site_fract_x
_atom_site_fract_y
_atom_site_fract_z
_atom_site_charge
C 	C 	0.32360 0.76520 0.25763 0.37700
C 	C 	0.31080 0.76680 0.29178 -0.10000
C 	C 	0.35650 0.70130 0.30867 -0.01200
H 	H 	0.38970 0.65640 0.29870 0.04800
C 	C 	0.35380 0.70110 0.34093 -0.01600
H 	H 	0.38480 0.65600 0.35200 0.04900
C 	C 	0.30620 0.76640 0.35622 -0.09400
C 	C 	0.19520 0.90160 0.35423 -0.07900
H 	H 	0.19330 0.90230 0.37550 0.06800
C 	C 	0.14230 0.96470 0.33766 -0.02700
H 	H 	0.10650 0.00850 0.34770 0.03600
C 	C 	0.14190 0.96370 0.30515 -0.02800
H 	H 	0.10480 0.00650 0.29390 0.03800
C 	C 	0.19590 0.90020 0.29027 -0.07700
H 	H 	0.19400 0.89960 0.26890 0.06600
C 	C 	0.25490 0.83490 0.30704 0.04100
C 	C 	0.25350 0.83440 0.33951 0.04300
C 	C 	0.31210 0.76240 0.39066 0.36400
C 	C 	0.54800 0.76620 0.19886 0.37700
C 	C 	0.68590 0.77050 0.20251 -0.09700
C 	C 	0.75130 0.70380 0.19323 -0.01700
H 	H 	0.71010 0.65660 0.18640 0.04600
C 	C 	0.87900 0.70560 0.19381 -0.00900
H 	H 	0.92130 0.65920 0.18760 0.04700
C 	C 	0.94380 0.77440 0.20336 -0.10800
C 	C 	0.93750 0.91990 0.22434 -0.09100
H 	H 	0.02250 0.92320 0.22460 0.08100
C 	C 	0.87220 0.98600 0.23405 -0.01300
H 	H 	0.91290 0.03390 0.24040 0.03900
C 	C 	0.74450 0.98200 0.23457 -0.03000
H 	H 	0.70090 0.02700 0.24150 0.04500
C 	C 	0.68350 0.91250 0.22497 -0.06800
H 	H 	0.59870 0.91010 0.22590 0.06500
C 	C 	0.74860 0.84310 0.21348 0.03800
C 	C 	0.87910 0.84620 0.21384 0.05500
C 	C 	0.08160 0.76910 0.20208 0.39700
C 	C 	0.28920 0.78160 0.14003 0.39100
C 	C 	0.27850 0.77730 0.10544 -0.10700
C 	C 	0.32150 0.70680 0.09256 -0.00700
H 	H 	0.35000 0.66410 0.10520 0.04600
C 	C 	0.32360 0.69740 0.06062 -0.02300
H 	H 	0.35020 0.64800 0.05240 0.05000
C 	C 	0.28680 0.76050 0.04140 -0.09300
C 	C 	0.18340 0.89690 0.03409 -0.07100
H 	H 	0.18560 0.89150 0.01290 0.06400
C 	C 	0.13200 0.96440 0.04622 -0.03300
H 	H 	0.10090 0.00560 0.03320 0.04100
C 	C 	0.12450 0.97380 0.07802 -0.01700
H 	H 	0.08910 0.02090 0.08590 0.04000
C 	C 	0.16930 0.91330 0.09742 -0.09100
H 	H 	0.16100 0.91900 0.11840 0.08500
C 	C 	0.22820 0.84220 0.08614 0.05600
C 	C 	0.23480 0.83350 0.05376 0.03700
C 	C 	0.30760 0.75060 0.00769 0.36700
C 	C 	0.55100 0.75510 0.94792 0.36700
C 	C 	0.68710 0.75100 0.94427 -0.09600
C 	C 	0.75850 0.81280 0.95702 -0.01700
H 	H 	0.72170 0.85840 0.96570 0.04600
C 	C 	0.88670 0.80780 0.95711 -0.01300
H 	H 	0.93360 0.84880 0.96680 0.04600
C 	C 	0.94410 0.74380 0.94317 -0.10100
C 	C 	0.92330 0.61490 0.91110 -0.09000
H 	H 	0.00790 0.61100 0.91020 0.08000
C 	C 	0.85100 0.55720 0.89628 -0.01700
H 	H 	0.88700 0.51490 0.88550 0.03700
C 	C 	0.72330 0.56110 0.89709 -0.03200
H 	H 	0.67500 0.52180 0.88680 0.04400
C 	C 	0.66990 0.62260 0.91303 -0.07500
H 	H 	0.58500 0.62460 0.91360 0.06900
C 	C 	0.74210 0.68410 0.92882 0.03900
C 	C 	0.87270 0.68030 0.92788 0.05200
C 	C 	0.08310 0.74360 0.94591 0.38100
C 	C 	0.42230 0.51540 0.19169 0.11700
H 	H 	0.49470 0.54490 0.19470 -0.01300
C 	C 	0.42830 0.43180 0.18659 -0.21300
H 	H 	0.50400 0.40580 0.18620 0.11400
C 	C 	0.32240 0.38630 0.18205 0.16900
C 	C 	0.21250 0.42790 0.18311 -0.21000
H 	H 	0.13890 0.39940 0.18030 0.10600
C 	C 	0.21190 0.51230 0.18838 0.11700
H 	H 	0.13720 0.53950 0.18910 -0.01700
C 	C 	0.32600 0.29510 0.17683 -0.18500
H 	H 	0.39380 0.28150 0.16420 0.08800
H 	H 	0.25080 0.27750 0.16600 0.08500
C 	C 	0.34100 0.24970 0.20774 -0.18300
H 	H 	0.41830 0.26610 0.21780 0.09300
H 	H 	0.27620 0.26730 0.22070 0.09100
C 	C 	0.33830 0.15700 0.20546 0.15800
C 	C 	0.31590 0.11590 0.17752 -0.19600
H 	H 	0.30470 0.14550 0.15930 0.10100
C 	C 	0.31070 0.03110 0.17737 0.10600
H 	H 	0.29360 0.00460 0.15880 -0.00900
C 	C 	0.35490 0.02400 0.22897 0.11700
H 	H 	0.36970 0.99280 0.24670 -0.01400
C 	C 	0.36080 0.10870 0.23138 -0.21200
H 	H 	0.37980 0.13330 0.25030 0.11700
C 	C 	0.34490 0.49470 0.98119 0.13000
H 	H 	0.33890 0.52670 0.99870 -0.01700
C 	C 	0.36120 0.41130 0.98458 -0.22800
H 	H 	0.36820 0.38810 0.00410 0.12500
C 	C 	0.36730 0.36200 0.95910 0.17600
C 	C 	0.35850 0.40090 0.93061 -0.22000
H 	H 	0.36230 0.37000 0.91270 0.10700
C 	C 	0.34420 0.48490 0.92899 0.12600
H 	H 	0.33940 0.50990 0.90980 -0.02100
C 	C 	0.38700 0.27020 0.96230 -0.19200
H 	H 	0.43780 0.25110 0.94610 0.09200
H 	H 	0.42980 0.25870 0.98180 0.09600
C 	C 	0.26940 0.22500 0.96055 -0.17200
H 	H 	0.22110 0.24410 0.94270 0.08300
H 	H 	0.22450 0.23810 0.97860 0.08400
C 	C 	0.28340 0.13240 0.95852 0.16600
C 	C 	0.18840 0.08530 0.94809 -0.22800
H 	H 	0.11350 0.11020 0.94300 0.11200
C 	C 	0.19980 0.00180 0.94487 0.13800
H 	H 	0.13100 0.97150 0.93840 -0.02400
C 	C 	0.39980 0.00590 0.96142 0.12100
H 	H 	0.47300 0.97870 0.96640 -0.01500
C 	C 	0.39390 0.09060 0.96563 -0.20700
H 	H 	0.46250 0.11960 0.97310 0.11500
N 	N 	0.32920 0.98450 0.20272 -0.26700
N 	N 	0.31510 0.55570 0.19239 -0.27000
N 	N 	0.33700 0.53210 0.95391 -0.27600
N 	N 	0.30380 0.96210 0.95049 -0.27400
O 	O 	0.49230 0.83070 0.19073 -0.46600
O 	O 	0.49850 0.69730 0.20357 -0.45500
O 	O 	0.35590 0.83080 0.24461 -0.45800
O 	O 	0.30540 0.69710 0.24470 -0.45600
O 	O 	0.12610 0.69930 0.19716 -0.45600
O 	O 	0.14400 0.83340 0.20604 -0.48600
O 	O 	0.28020 0.85120 0.15295 -0.45100
O 	O 	0.30960 0.71550 0.15401 -0.47700
O 	O 	0.49910 0.69130 0.95729 -0.46800
O 	O 	0.49840 0.82350 0.94180 -0.44400
O 	O 	0.29080 0.67970 0.99639 -0.45200
O 	O 	0.34470 0.81280 0.99341 -0.46700
O 	O 	0.13970 0.67750 0.94185 -0.46600
O 	O 	0.13430 0.81190 0.95265 -0.45800
O 	O 	0.34330 0.82630 0.40544 -0.45200
O 	O 	0.28580 0.69280 0.40251 -0.44300
Zn	Zn	0.31886 0.86031 0.19890 1.21700
Zn	Zn	0.31172 0.67943 0.19850 1.21500
Zn	Zn	0.32004 0.65574 0.95168 1.21500
Zn	Zn	0.31540 0.83730 0.94787 1.21400
C 	C 	0.32360 0.73480 0.75763 0.37600
C 	C 	0.31080 0.73320 0.79178 -0.10100
C 	C 	0.35650 0.79870 0.80867 -0.01200
H 	H 	0.38970 0.84360 0.79870 0.04700
C 	C 	0.35380 0.79890 0.84093 -0.01600
H 	H 	0.38480 0.84400 0.85200 0.04900
C 	C 	0.30620 0.73360 0.85622 -0.09400
C 	C 	0.19520 0.59840 0.85423 -0.07900
H 	H 	0.19330 0.59770 0.87550 0.06800
C 	C 	0.14230 0.53530 0.83766 -0.02800
H 	H 	0.10650 0.49150 0.84770 0.03800
C 	C 	0.14190 0.53630 0.80515 -0.03100
H 	H 	0.10480 0.49350 0.79390 0.04000
C 	C 	0.19590 0.59980 0.79027 -0.07600
H 	H 	0.19400 0.60040 0.76890 0.06500
C 	C 	0.25490 0.66510 0.80704 0.04100
C 	C 	0.25350 0.66560 0.83951 0.04200
C 	C 	0.31210 0.73760 0.89066 0.36400
C 	C 	0.54800 0.73380 0.69886 0.37700
C 	C 	0.68590 0.72950 0.70251 -0.09700
C 	C 	0.75130 0.79620 0.69323 -0.01700
H 	H 	0.71010 0.84340 0.68640 0.04600
C 	C 	0.87900 0.79440 0.69381 -0.00900
H 	H 	0.92130 0.84080 0.68760 0.04700
C 	C 	0.94380 0.72560 0.70336 -0.10700
C 	C 	0.93750 0.58010 0.72434 -0.09000
H 	H 	0.02250 0.57680 0.72460 0.08000
C 	C 	0.87220 0.51400 0.73405 -0.01500
H 	H 	0.91290 0.46610 0.74040 0.04000
C 	C 	0.74450 0.51800 0.73457 -0.03200
H 	H 	0.70090 0.47300 0.74150 0.04700
C 	C 	0.68350 0.58750 0.72497 -0.06700
H 	H 	0.59870 0.58990 0.72590 0.06500
C 	C 	0.74860 0.65690 0.71348 0.03800
C 	C 	0.87910 0.65380 0.71384 0.05400
C 	C 	0.08160 0.73090 0.70208 0.39700
C 	C 	0.28920 0.71840 0.64003 0.39100
C 	C 	0.27850 0.72270 0.60544 -0.10700
C 	C 	0.32150 0.79320 0.59256 -0.00700
H 	H 	0.35000 0.83590 0.60520 0.04600
C 	C 	0.32360 0.80260 0.56062 -0.02300
H 	H 	0.35020 0.85200 0.55240 0.05000
C 	C 	0.28680 0.73950 0.54140 -0.09400
C 	C 	0.18340 0.60310 0.53409 -0.07200
H 	H 	0.18560 0.60850 0.51290 0.06400
C 	C 	0.13200 0.53560 0.54622 -0.03200
H 	H 	0.10090 0.49440 0.53320 0.04100
C 	C 	0.12450 0.52620 0.57802 -0.02000
H 	H 	0.08910 0.47910 0.58590 0.04200
C 	C 	0.16930 0.58670 0.59742 -0.09000
H 	H 	0.16100 0.58100 0.61840 0.08400
C 	C 	0.22820 0.65780 0.58614 0.05500
C 	C 	0.23480 0.66650 0.55376 0.03700
C 	C 	0.30760 0.74940 0.50769 0.36800
C 	C 	0.55100 0.74490 0.44792 0.36700
C 	C 	0.68710 0.74900 0.44427 -0.09600
C 	C 	0.75850 0.68720 0.45702 -0.01700
H 	H 	0.72170 0.64160 0.46570 0.04600
C 	C 	0.88670 0.69220 0.45711 -0.01300
H 	H 	0.93360 0.65120 0.46680 0.04600
C 	C 	0.94410 0.75620 0.44317 -0.10100
C 	C 	0.92330 0.88510 0.41110 -0.09000
H 	H 	0.00790 0.88900 0.41020 0.08000
C 	C 	0.85100 0.94280 0.39628 -0.01700
H 	H 	0.88700 0.98510 0.38550 0.03700
C 	C 	0.72330 0.93890 0.39709 -0.03200
H 	H 	0.67500 0.97820 0.38680 0.04500
C 	C 	0.66990 0.87740 0.41303 -0.07500
H 	H 	0.58500 0.87540 0.41360 0.06900
C 	C 	0.74210 0.81590 0.42882 0.03900
C 	C 	0.87270 0.81970 0.42788 0.05200
C 	C 	0.08310 0.75640 0.44591 0.38100
C 	C 	0.42230 0.98460 0.69169 0.11300
H 	H 	0.49470 0.95510 0.69470 -0.01200
C 	C 	0.42830 0.06820 0.68659 -0.20800
H 	H 	0.50400 0.09420 0.68620 0.11300
C 	C 	0.32240 0.11370 0.68205 0.16600
C 	C 	0.21250 0.07210 0.68311 -0.20600
H 	H 	0.13890 0.10060 0.68030 0.10500
C 	C 	0.21190 0.98770 0.68838 0.11300
H 	H 	0.13720 0.96050 0.68910 -0.01600
C 	C 	0.32600 0.20490 0.67683 -0.18200
H 	H 	0.39380 0.21850 0.66420 0.08700
H 	H 	0.25080 0.22250 0.66600 0.08400
C 	C 	0.34100 0.25030 0.70774 -0.18700
H 	H 	0.41830 0.23390 0.71780 0.09400
H 	H 	0.27620 0.23270 0.72070 0.09200
C 	C 	0.33830 0.34300 0.70546 0.16100
C 	C 	0.31590 0.38410 0.67752 -0.19900
H 	H 	0.30470 0.35450 0.65930 0.10200
C 	C 	0.31070 0.46890 0.67737 0.10900
H 	H 	0.29360 0.49540 0.65880 -0.01000
C 	C 	0.35490 0.47600 0.72897 0.12300
H 	H 	0.36970 0.50720 0.74670 -0.01700
C 	C 	0.36080 0.39130 0.73138 -0.21700
H 	H 	0.37980 0.36670 0.75030 0.11800
C 	C 	0.34490 0.00530 0.48119 0.12900
H 	H 	0.33890 0.97330 0.49870 -0.01600
C 	C 	0.36120 0.08870 0.48458 -0.22600
H 	H 	0.36820 0.11190 0.50410 0.12400
C 	C 	0.36730 0.13800 0.45910 0.17500
C 	C 	0.35850 0.09910 0.43061 -0.21800
H 	H 	0.36230 0.13000 0.41270 0.10700
C 	C 	0.34420 0.01510 0.42899 0.12300
H 	H 	0.33940 0.99010 0.40980 -0.01900
C 	C 	0.38700 0.22980 0.46230 -0.19200
H 	H 	0.43780 0.24890 0.44610 0.09200
H 	H 	0.42980 0.24130 0.48180 0.09600
C 	C 	0.26940 0.27500 0.46055 -0.17200
H 	H 	0.22110 0.25590 0.44270 0.08300
H 	H 	0.22450 0.26190 0.47860 0.08500
C 	C 	0.28340 0.36760 0.45852 0.16600
C 	C 	0.18840 0.41470 0.44809 -0.22700
H 	H 	0.11350 0.38980 0.44300 0.11200
C 	C 	0.19980 0.49820 0.44487 0.13700
H 	H 	0.13100 0.52850 0.43840 -0.02300
C 	C 	0.39980 0.49410 0.46142 0.12000
H 	H 	0.47300 0.52130 0.46640 -0.01500
C 	C 	0.39390 0.40940 0.46563 -0.20600
H 	H 	0.46250 0.38040 0.47310 0.11500
N 	N 	0.32920 0.51550 0.70272 -0.27000
N 	N 	0.31510 0.94430 0.69239 -0.26800
N 	N 	0.33700 0.96790 0.45391 -0.27500
N 	N 	0.30380 0.53790 0.45049 -0.27300
O 	O 	0.49230 0.66930 0.69073 -0.46600
O 	O 	0.49850 0.80270 0.70357 -0.45500
O 	O 	0.35590 0.66920 0.74461 -0.45800
O 	O 	0.30540 0.80290 0.74470 -0.45600
O 	O 	0.12610 0.80070 0.69716 -0.45600
O 	O 	0.14400 0.66660 0.70604 -0.48600
O 	O 	0.28020 0.64880 0.65295 -0.45100
O 	O 	0.30960 0.78450 0.65401 -0.47700
O 	O 	0.49910 0.80870 0.45729 -0.46800
O 	O 	0.49840 0.67650 0.44180 -0.44400
O 	O 	0.29080 0.82030 0.49639 -0.45300
O 	O 	0.34470 0.68720 0.49341 -0.46700
O 	O 	0.13970 0.82250 0.44185 -0.46600
O 	O 	0.13430 0.68810 0.45265 -0.45800
O 	O 	0.34330 0.67370 0.90544 -0.45200
O 	O 	0.28580 0.80720 0.90251 -0.44300
Zn	Zn	0.31886 0.63969 0.69890 1.21700
Zn	Zn	0.31172 0.82057 0.69850 1.21500
Zn	Zn	0.32004 0.84426 0.45168 1.21500
Zn	Zn	0.31540 0.66270 0.44787 1.21400
C 	C 	0.67640 0.26520 0.24237 0.37600
C 	C 	0.68920 0.26680 0.20822 -0.10100
C 	C 	0.64350 0.20130 0.19133 -0.01200
H 	H 	0.61030 0.15640 0.20130 0.04700
C 	C 	0.64620 0.20110 0.15907 -0.01600
H 	H 	0.61520 0.15600 0.14800 0.04900
C 	C 	0.69380 0.26640 0.14378 -0.09400
C 	C 	0.80480 0.40160 0.14577 -0.07900
H 	H 	0.80670 0.40230 0.12450 0.06800
C 	C 	0.85770 0.46470 0.16234 -0.02800
H 	H 	0.89350 0.50850 0.15230 0.03800
C 	C 	0.85810 0.46370 0.19485 -0.03100
H 	H 	0.89520 0.50650 0.20610 0.04000
C 	C 	0.80410 0.40020 0.20973 -0.07600
H 	H 	0.80600 0.39960 0.23110 0.06500
C 	C 	0.74510 0.33490 0.19296 0.04100
C 	C 	0.74650 0.33440 0.16049 0.04200
C 	C 	0.68790 0.26240 0.10934 0.36400
C 	C 	0.45200 0.26620 0.30114 0.37700
C 	C 	0.31410 0.27050 0.29749 -0.09700
C 	C 	0.24870 0.20380 0.30677 -0.01700
H 	H 	0.28990 0.15660 0.31360 0.04600
C 	C 	0.12100 0.20560 0.30619 -0.00900
H 	H 	0.07870 0.15920 0.31240 0.04700
C 	C 	0.05620 0.27440 0.29664 -0.10700
C 	C 	0.06250 0.41990 0.27566 -0.09000
H 	H 	0.97750 0.42320 0.27540 0.08000
C 	C 	0.12780 0.48600 0.26595 -0.01500
H 	H 	0.08710 0.53390 0.25960 0.04000
C 	C 	0.25550 0.48200 0.26543 -0.03200
H 	H 	0.29910 0.52700 0.25850 0.04700
C 	C 	0.31650 0.41250 0.27503 -0.06700
H 	H 	0.40130 0.41010 0.27410 0.06500
C 	C 	0.25140 0.34310 0.28652 0.03800
C 	C 	0.12090 0.34620 0.28616 0.05400
C 	C 	0.91840 0.26910 0.29792 0.39700
C 	C 	0.71080 0.28160 0.35997 0.39100
C 	C 	0.72150 0.27730 0.39456 -0.10700
C 	C 	0.67850 0.20680 0.40744 -0.00700
H 	H 	0.65000 0.16410 0.39480 0.04600
C 	C 	0.67640 0.19740 0.43938 -0.02300
H 	H 	0.64980 0.14800 0.44760 0.05000
C 	C 	0.71320 0.26050 0.45860 -0.09400
C 	C 	0.81660 0.39690 0.46591 -0.07200
H 	H 	0.81440 0.39150 0.48710 0.06400
C 	C 	0.86800 0.46440 0.45378 -0.03200
H 	H 	0.89910 0.50560 0.46680 0.04100
C 	C 	0.87550 0.47380 0.42198 -0.02000
H 	H 	0.91090 0.52090 0.41410 0.04200
C 	C 	0.83070 0.41330 0.40258 -0.09000
H 	H 	0.83900 0.41900 0.38160 0.08400
C 	C 	0.77180 0.34220 0.41386 0.05500
C 	C 	0.76520 0.33350 0.44624 0.03700
C 	C 	0.69240 0.25060 0.49231 0.36800
C 	C 	0.44900 0.25510 0.55208 0.36700
C 	C 	0.31290 0.25100 0.55573 -0.09600
C 	C 	0.24150 0.31280 0.54298 -0.01700
H 	H 	0.27830 0.35840 0.53430 0.04600
C 	C 	0.11330 0.30780 0.54289 -0.01300
H 	H 	0.06640 0.34880 0.53320 0.04600
C 	C 	0.05590 0.24380 0.55683 -0.10100
C 	C 	0.07670 0.11490 0.58890 -0.09000
H 	H 	0.99210 0.11100 0.58980 0.08000
C 	C 	0.14900 0.05720 0.60372 -0.01700
H 	H 	0.11300 0.01490 0.61450 0.03700
C 	C 	0.27670 0.06110 0.60291 -0.03200
H 	H 	0.32500 0.02180 0.61320 0.04500
C 	C 	0.33010 0.12260 0.58697 -0.07500
H 	H 	0.41500 0.12460 0.58640 0.06900
C 	C 	0.25790 0.18410 0.57118 0.03900
C 	C 	0.12730 0.18030 0.57212 0.05200
C 	C 	0.91690 0.24360 0.55409 0.38100
C 	C 	0.57770 0.01540 0.30831 0.11300
H 	H 	0.50530 0.04490 0.30530 -0.01200
C 	C 	0.57170 0.93180 0.31341 -0.20800
H 	H 	0.49600 0.90580 0.31380 0.11300
C 	C 	0.67760 0.88630 0.31795 0.16600
C 	C 	0.78750 0.92790 0.31689 -0.20600
H 	H 	0.86110 0.89940 0.31970 0.10500
C 	C 	0.78810 0.01230 0.31162 0.11300
H 	H 	0.86280 0.03950 0.31090 -0.01600
C 	C 	0.67400 0.79510 0.32317 -0.18200
H 	H 	0.60620 0.78150 0.33580 0.08700
H 	H 	0.74920 0.77750 0.33400 0.08400
C 	C 	0.65900 0.74970 0.29226 -0.18700
H 	H 	0.58170 0.76610 0.28220 0.09400
H 	H 	0.72380 0.76730 0.27930 0.09200
C 	C 	0.66170 0.65700 0.29454 0.16100
C 	C 	0.68410 0.61590 0.32248 -0.19900
H 	H 	0.69530 0.64550 0.34070 0.10200
C 	C 	0.68930 0.53110 0.32263 0.10900
H 	H 	0.70640 0.50460 0.34120 -0.01000
C 	C 	0.64510 0.52400 0.27103 0.12300
H 	H 	0.63030 0.49280 0.25330 -0.01700
C 	C 	0.63920 0.60870 0.26862 -0.21700
H 	H 	0.62020 0.63330 0.24970 0.11800
C 	C 	0.65510 0.99470 0.51881 0.12900
H 	H 	0.66110 0.02670 0.50130 -0.01600
C 	C 	0.63880 0.91130 0.51542 -0.22600
H 	H 	0.63180 0.88810 0.49590 0.12400
C 	C 	0.63270 0.86200 0.54090 0.17500
C 	C 	0.64150 0.90090 0.56939 -0.21800
H 	H 	0.63770 0.87000 0.58730 0.10700
C 	C 	0.65580 0.98490 0.57101 0.12300
H 	H 	0.66060 0.00990 0.59020 -0.01900
C 	C 	0.61300 0.77020 0.53770 -0.19200
H 	H 	0.56220 0.75110 0.55390 0.09200
H 	H 	0.57020 0.75870 0.51820 0.09600
C 	C 	0.73060 0.72500 0.53945 -0.17200
H 	H 	0.77890 0.74410 0.55730 0.08300
H 	H 	0.77550 0.73810 0.52140 0.08500
C 	C 	0.71660 0.63240 0.54148 0.16600
C 	C 	0.81160 0.58530 0.55191 -0.22700
H 	H 	0.88650 0.61020 0.55700 0.11200
C 	C 	0.80020 0.50180 0.55513 0.13700
H 	H 	0.86900 0.47150 0.56160 -0.02300
C 	C 	0.60020 0.50590 0.53858 0.12000
H 	H 	0.52700 0.47870 0.53360 -0.01500
C 	C 	0.60610 0.59060 0.53437 -0.20600
H 	H 	0.53750 0.61960 0.52690 0.11500
N 	N 	0.67080 0.48450 0.29728 -0.27000
N 	N 	0.68490 0.05570 0.30761 -0.26800
N 	N 	0.66300 0.03210 0.54609 -0.27500
N 	N 	0.69620 0.46210 0.54951 -0.27300
O 	O 	0.50770 0.33070 0.30927 -0.46600
O 	O 	0.50150 0.19730 0.29643 -0.45500
O 	O 	0.64410 0.33080 0.25539 -0.45800
O 	O 	0.69460 0.19710 0.25530 -0.45600
O 	O 	0.87390 0.19930 0.30284 -0.45600
O 	O 	0.85600 0.33340 0.29396 -0.48600
O 	O 	0.71980 0.35120 0.34705 -0.45100
O 	O 	0.69040 0.21550 0.34599 -0.47700
O 	O 	0.50090 0.19130 0.54271 -0.46800
O 	O 	0.50160 0.32350 0.55820 -0.44400
O 	O 	0.70920 0.17970 0.50361 -0.45300
O 	O 	0.65530 0.31280 0.50659 -0.46700
O 	O 	0.86030 0.17750 0.55815 -0.46600
O 	O 	0.86570 0.31190 0.54735 -0.45800
O 	O 	0.65670 0.32630 0.09456 -0.45200
O 	O 	0.71420 0.19280 0.09749 -0.44300
Zn	Zn	0.68114 0.36031 0.30110 1.21700
Zn	Zn	0.68828 0.17943 0.30150 1.21500
Zn	Zn	0.67996 0.15574 0.54832 1.21500
Zn	Zn	0.68460 0.33730 0.55213 1.21400
C 	C 	0.67640 0.23480 0.74237 0.37600
C 	C 	0.68920 0.23320 0.70822 -0.10100
C 	C 	0.64350 0.29870 0.69133 -0.01200
H 	H 	0.61030 0.34360 0.70130 0.04800
C 	C 	0.64620 0.29890 0.65907 -0.01600
H 	H 	0.61520 0.34400 0.64800 0.04900
C 	C 	0.69380 0.23360 0.64378 -0.09400
C 	C 	0.80480 0.09840 0.64577 -0.07900
H 	H 	0.80670 0.09770 0.62450 0.06800
C 	C 	0.85770 0.03530 0.66234 -0.02700
H 	H 	0.89350 0.99150 0.65230 0.03600
C 	C 	0.85810 0.03630 0.69485 -0.02800
H 	H 	0.89520 0.99350 0.70610 0.03800
C 	C 	0.80410 0.09980 0.70973 -0.07700
H 	H 	0.80600 0.10040 0.73110 0.06600
C 	C 	0.74510 0.16510 0.69296 0.04100
C 	C 	0.74650 0.16560 0.66049 0.04300
C 	C 	0.68790 0.23760 0.60934 0.36400
C 	C 	0.45200 0.23380 0.80114 0.37700
C 	C 	0.31410 0.22950 0.79749 -0.09700
C 	C 	0.24870 0.29620 0.80677 -0.01700
H 	H 	0.28990 0.34340 0.81360 0.04600
C 	C 	0.12100 0.29440 0.80619 -0.00900
H 	H 	0.07870 0.34080 0.81240 0.04700
C 	C 	0.05620 0.22560 0.79664 -0.10800
C 	C 	0.06250 0.08010 0.77566 -0.09100
H 	H 	0.97750 0.07680 0.77540 0.08100
C 	C 	0.12780 0.01400 0.76595 -0.01300
H 	H 	0.08710 0.96610 0.75960 0.03900
C 	C 	0.25550 0.01800 0.76543 -0.03000
H 	H 	0.29910 0.97300 0.75850 0.04500
C 	C 	0.31650 0.08750 0.77503 -0.06800
H 	H 	0.40130 0.08990 0.77410 0.06500
C 	C 	0.25140 0.15690 0.78652 0.03800
C 	C 	0.12090 0.15380 0.78616 0.05500
C 	C 	0.91840 0.23090 0.79792 0.39700
C 	C 	0.71080 0.21840 0.85997 0.39100
C 	C 	0.72150 0.22270 0.89456 -0.10700
C 	C 	0.67850 0.29320 0.90744 -0.00700
H 	H 	0.65000 0.33590 0.89480 0.04600
C 	C 	0.67640 0.30260 0.93938 -0.02300
H 	H 	0.64980 0.35200 0.94760 0.05000
C 	C 	0.71320 0.23950 0.95860 -0.09300
C 	C 	0.81660 0.10310 0.96591 -0.07100
H 	H 	0.81440 0.10850 0.98710 0.06400
C 	C 	0.86800 0.03560 0.95378 -0.03300
H 	H 	0.89910 0.99440 0.96680 0.04100
C 	C 	0.87550 0.02620 0.92198 -0.01700
H 	H 	0.91090 0.97910 0.91410 0.04000
C 	C 	0.83070 0.08670 0.90258 -0.09100
H 	H 	0.83900 0.08100 0.88160 0.08500
C 	C 	0.77180 0.15780 0.91386 0.05600
C 	C 	0.76520 0.16650 0.94624 0.03700
C 	C 	0.69240 0.24940 0.99231 0.36700
C 	C 	0.44900 0.24490 0.05208 0.36700
C 	C 	0.31290 0.24900 0.05573 -0.09600
C 	C 	0.24150 0.18720 0.04298 -0.01700
H 	H 	0.27830 0.14160 0.03430 0.04600
C 	C 	0.11330 0.19220 0.04289 -0.01300
H 	H 	0.06640 0.15120 0.03320 0.04600
C 	C 	0.05590 0.25620 0.05683 -0.10100
C 	C 	0.07670 0.38510 0.08890 -0.09000
H 	H 	0.99210 0.38900 0.08980 0.08000
C 	C 	0.14900 0.44280 0.10372 -0.01700
H 	H 	0.11300 0.48510 0.11450 0.03700
C 	C 	0.27670 0.43890 0.10291 -0.03200
H 	H 	0.32500 0.47820 0.11320 0.04400
C 	C 	0.33010 0.37740 0.08697 -0.07500
H 	H 	0.41500 0.37540 0.08640 0.06900
C 	C 	0.25790 0.31590 0.07118 0.03900
C 	C 	0.12730 0.31970 0.07212 0.05200
C 	C 	0.91690 0.25640 0.05409 0.38100
C 	C 	0.57770 0.48460 0.80831 0.11700
H 	H 	0.50530 0.45510 0.80530 -0.01300
C 	C 	0.57170 0.56820 0.81341 -0.21300
H 	H 	0.49600 0.59420 0.81380 0.11400
C 	C 	0.67760 0.61370 0.81795 0.16900
C 	C 	0.78750 0.57210 0.81689 -0.21000
H 	H 	0.86110 0.60060 0.81970 0.10600
C 	C 	0.78810 0.48770 0.81162 0.11700
H 	H 	0.86280 0.46050 0.81090 -0.01700
C 	C 	0.67400 0.70490 0.82317 -0.18500
H 	H 	0.60620 0.71850 0.83580 0.08800
H 	H 	0.74920 0.72250 0.83400 0.08500
C 	C 	0.65900 0.75030 0.79226 -0.18300
H 	H 	0.58170 0.73390 0.78220 0.09300
H 	H 	0.72380 0.73270 0.77930 0.09100
C 	C 	0.66170 0.84300 0.79454 0.15800
C 	C 	0.68410 0.88410 0.82248 -0.19600
H 	H 	0.69530 0.85450 0.84070 0.10100
C 	C 	0.68930 0.96890 0.82263 0.10600
H 	H 	0.70640 0.99540 0.84120 -0.00900
C 	C 	0.64510 0.97600 0.77103 0.11700
H 	H 	0.63030 0.00720 0.75330 -0.01400
C 	C 	0.63920 0.89130 0.76862 -0.21200
H 	H 	0.62020 0.86670 0.74970 0.11700
C 	C 	0.65510 0.50530 0.01881 0.13000
H 	H 	0.66110 0.47330 0.00130 -0.01700
C 	C 	0.63880 0.58870 0.01542 -0.22800
H 	H 	0.63180 0.61190 0.99590 0.12500
C 	C 	0.63270 0.63800 0.04090 0.17600
C 	C 	0.64150 0.59910 0.06939 -0.22000
H 	H 	0.63770 0.63000 0.08730 0.10700
C 	C 	0.65580 0.51510 0.07101 0.12600
H 	H 	0.66060 0.49010 0.09020 -0.02100
C 	C 	0.61300 0.72980 0.03770 -0.19200
H 	H 	0.56220 0.74890 0.05390 0.09200
H 	H 	0.57020 0.74130 0.01820 0.09600
C 	C 	0.73060 0.77500 0.03945 -0.17200
H 	H 	0.77890 0.75590 0.05730 0.08300
H 	H 	0.77550 0.76190 0.02140 0.08400
C 	C 	0.71660 0.86760 0.04148 0.16600
C 	C 	0.81160 0.91470 0.05191 -0.22800
H 	H 	0.88650 0.88980 0.05700 0.11200
C 	C 	0.80020 0.99820 0.05513 0.13800
H 	H 	0.86900 0.02850 0.06160 -0.02400
C 	C 	0.60020 0.99410 0.03858 0.12100
H 	H 	0.52700 0.02130 0.03360 -0.01500
C 	C 	0.60610 0.90940 0.03437 -0.20700
H 	H 	0.53750 0.88040 0.02690 0.11500
N 	N 	0.67080 0.01550 0.79728 -0.26700
N 	N 	0.68490 0.44430 0.80761 -0.27000
N 	N 	0.66300 0.46790 0.04609 -0.27600
N 	N 	0.69620 0.03790 0.04951 -0.27400
O 	O 	0.50770 0.16930 0.80927 -0.46600
O 	O 	0.50150 0.30270 0.79643 -0.45500
O 	O 	0.64410 0.16920 0.75539 -0.45800
O 	O 	0.69460 0.30290 0.75530 -0.45600
O 	O 	0.87390 0.30070 0.80284 -0.45600
O 	O 	0.85600 0.16660 0.79396 -0.48600
O 	O 	0.71980 0.14880 0.84705 -0.45100
O 	O 	0.69040 0.28450 0.84599 -0.47700
O 	O 	0.50090 0.30870 0.04271 -0.46800
O 	O 	0.50160 0.17650 0.05820 -0.44400
O 	O 	0.70920 0.32030 0.00361 -0.45200
O 	O 	0.65530 0.18720 0.00659 -0.46700
O 	O 	0.86030 0.32250 0.05815 -0.46600
O 	O 	0.86570 0.18810 0.04735 -0.45800
O 	O 	0.65670 0.17370 0.59456 -0.45200
O 	O 	0.71420 0.30720 0.59749 -0.44300
Zn	Zn	0.68114 0.13969 0.80110 1.21700
Zn	Zn	0.68828 0.32057 0.80150 1.21500
Zn	Zn	0.67996 0.34426 0.04832 1.21500
Zn	Zn	0.68460 0.16270 0.05213 1.21400
