data_crystal

_cell_length_a 24.05000
_cell_length_b 12.45800
_cell_length_c 18.14000
_cell_angle_alpha 90.00000
_cell_angle_beta  104.46600
_cell_angle_gamma 90.00000

_symmetry_space_group_name_	'P 1'
_symmetry_space_group_name_H-M	'P 1'

loop_
_symmetry_equiv_pos_as_xyz
  x,y,z

loop_
_atom_site_label
_atom_site_type_symbol
_atom_site_fract_x
_atom_site_fract_y
_atom_site_fract_z
_atom_site_charge
Na	Na	0.08198 0.02470 0.10670 0.58700
Fe	Fe	0.64219 0.23009 0.58440 1.21100
Zn	Zn	0.14402 0.16886 0.23442 1.19600
C 	C 	0.20660 0.06820 0.13780 0.41500
C 	C 	0.26300 0.02260 0.13630 -0.15400
C 	C 	0.26920 0.95540 0.07730 0.04500
H 	H 	0.23760 0.93980 0.03740 0.02700
C 	C 	0.32200 0.91250 0.07830 -0.11300
C 	C 	0.36870 0.93120 0.14080 -0.02200
H 	H 	0.40400 0.89950 0.14210 0.01600
C 	C 	0.36340 0.99620 0.20070 -0.05700
C 	C 	0.30990 0.04310 0.19540 0.01400
H 	H 	0.30580 0.09020 0.23340 0.02400
C 	C 	0.33220 0.84430 0.01490 0.29700
C 	C 	0.41370 0.01050 0.26600 0.04100
H 	H 	0.42500 0.94180 0.29030 0.00500
H 	H 	0.44570 0.03870 0.24850 -0.02400
C 	C 	0.44420 0.10570 0.38380 0.03500
C 	C 	0.49820 0.06790 0.39540 -0.02300
H 	H 	0.50800 0.02140 0.36060 0.00900
C 	C 	0.53950 0.10020 0.46130 -0.15100
C 	C 	0.52490 0.17110 0.51560 0.32500
C 	C 	0.46760 0.20600 0.50270 -0.44400
C 	C 	0.42820 0.17320 0.43650 0.10600
H 	H 	0.39040 0.19690 0.42710 -0.04300
C 	C 	0.44880 0.28350 0.55760 1.07200
C 	C 	0.47760 0.39230 0.55520 -1.54800
H 	H 	0.51850 0.38310 0.56780 0.46500
H 	H 	0.46740 0.43990 0.59130 0.46400
H 	H 	0.46500 0.42220 0.50500 0.45800
C 	C 	0.38490 0.30250 0.53840 -1.59200
H 	H 	0.36540 0.23540 0.53930 0.47900
H 	H 	0.37280 0.33370 0.48860 0.47600
H 	H 	0.37580 0.35040 0.57520 0.48800
C 	C 	0.46610 0.23650 0.64200 -1.43300
H 	H 	0.44790 0.16810 0.64300 0.43100
H 	H 	0.45380 0.28520 0.67580 0.42600
H 	H 	0.50700 0.22790 0.65800 0.45500
C 	C 	0.59700 0.05590 0.47160 0.07800
H 	H 	0.60110 0.99530 0.44360 -0.03200
C 	C 	0.69610 0.03850 0.53060 -0.04800
H 	H 	0.72390 0.07940 0.51150 0.04700
H 	H 	0.69140 0.96860 0.50630 0.01300
C 	C 	0.71560 0.02710 0.61670 -0.08800
H 	H 	0.69370 0.97120 0.63380 0.05300
H 	H 	0.75590 0.00770 0.63180 0.05500
C 	C 	0.74030 0.15660 0.71580 0.07800
H 	H 	0.76960 0.10850 0.73670 0.00900
C 	C 	0.73730 0.25130 0.75790 -0.14700
C 	C 	0.77970 0.26140 0.82970 -0.03100
H 	H 	0.80570 0.20630 0.84730 0.04600
C 	C 	0.78100 0.35270 0.87090 0.05600
C 	C 	0.74250 0.43460 0.84500 0.10700
H 	H 	0.74450 0.49630 0.87440 -0.02800
C 	C 	0.70040 0.42860 0.77620 -0.45100
C 	C 	0.69720 0.33280 0.73320 0.33100
C 	C 	0.65730 0.52180 0.74980 1.15400
C 	C 	0.65950 0.55660 0.66920 -1.60600
H 	H 	0.69770 0.58020 0.67000 0.48000
H 	H 	0.63300 0.61430 0.65240 0.47200
H 	H 	0.64940 0.49690 0.63500 0.49500
C 	C 	0.59700 0.48300 0.74800 -1.66000
H 	H 	0.57010 0.54050 0.73150 0.48500
H 	H 	0.59550 0.46020 0.79800 0.50900
H 	H 	0.58720 0.42390 0.71320 0.51000
C 	C 	0.67130 0.62140 0.80140 -1.62000
H 	H 	0.70940 0.64590 0.80260 0.49200
H 	H 	0.66920 0.60300 0.85200 0.48600
H 	H 	0.64420 0.67730 0.78180 0.48400
C 	C 	0.85200 0.28240 0.97310 0.02300
H 	H 	0.87500 0.25690 0.93970 0.02200
H 	H 	0.82680 0.22460 0.98010 0.03700
C 	C 	0.89080 0.31340 0.04900 -0.03500
C 	C 	0.94470 0.26460 0.07020 0.03900
H 	H 	0.95570 0.21870 0.03590 0.01700
C 	C 	0.98160 0.28150 0.13890 -0.17600
C 	C 	0.96520 0.34960 0.18750 0.11400
H 	H 	0.98990 0.36150 0.23510 0.01300
C 	C 	0.91480 0.40030 0.16920 -0.16300
C 	C 	0.87620 0.38180 0.10070 0.03600
H 	H 	0.84050 0.41520 0.08930 0.03800
C 	C 	0.89670 0.47560 0.22440 0.44500
C 	C 	0.04190 0.23010 0.15750 0.50500
N 	N 	0.70660 0.13060 0.65140 -0.20700
N 	N 	0.64210 0.09440 0.51650 -0.21900
O 	O 	0.20350 0.13680 0.18590 -0.55900
O 	O 	0.16370 0.02640 0.09310 -0.41500
O 	O 	0.28980 0.80150 0.96790 -0.35900
O 	O 	0.38200 0.83190 0.00790 -0.43600
O 	O 	0.05230 0.17250 0.10550 -0.47400
O 	O 	0.06920 0.23470 0.21710 -0.58500
O 	O 	0.92850 0.47560 0.28910 -0.43300
O 	O 	0.86080 0.54160 0.19910 -0.51400
O 	O 	0.39964 0.08290 0.31960 -0.23000
O 	O 	0.81930 0.37010 0.93980 -0.20300
O 	O 	0.56406 0.19680 0.57830 -0.47300
O 	O 	0.65612 0.32130 0.66880 -0.49800
Na	Na	0.91802 0.52470 0.39330 0.58700
Fe	Fe	0.35781 0.73009 0.91560 1.21100
Zn	Zn	0.85598 0.66886 0.26558 1.19600
C 	C 	0.79340 0.56820 0.36220 0.41500
C 	C 	0.73700 0.52260 0.36370 -0.15400
C 	C 	0.73080 0.45540 0.42270 0.04600
H 	H 	0.76240 0.43980 0.46260 0.02700
C 	C 	0.67800 0.41250 0.42170 -0.11300
C 	C 	0.63130 0.43120 0.35920 -0.02300
H 	H 	0.59600 0.39950 0.35790 0.01600
C 	C 	0.63660 0.49620 0.29930 -0.05500
C 	C 	0.69010 0.54310 0.30460 0.01200
H 	H 	0.69420 0.59020 0.26660 0.02400
C 	C 	0.66780 0.34430 0.48510 0.29900
C 	C 	0.58630 0.51050 0.23400 0.03700
H 	H 	0.57500 0.44180 0.20970 0.00700
H 	H 	0.55430 0.53870 0.25150 -0.02300
C 	C 	0.55580 0.60570 0.11620 0.03600
C 	C 	0.50180 0.56790 0.10460 -0.02400
H 	H 	0.49200 0.52140 0.13940 0.00900
C 	C 	0.46050 0.60020 0.03870 -0.15100
C 	C 	0.47510 0.67110 0.98440 0.32400
C 	C 	0.53240 0.70600 0.99730 -0.44100
C 	C 	0.57180 0.67320 0.06350 0.10400
H 	H 	0.60960 0.69690 0.07290 -0.04300
C 	C 	0.55120 0.78350 0.94240 1.06800
C 	C 	0.52240 0.89230 0.94480 -1.54400
H 	H 	0.48150 0.88310 0.93220 0.46500
H 	H 	0.53260 0.93990 0.90870 0.46300
H 	H 	0.53500 0.92220 0.99500 0.45800
C 	C 	0.61510 0.80250 0.96160 -1.58200
H 	H 	0.63460 0.73540 0.96070 0.47600
H 	H 	0.62720 0.83370 0.01140 0.47200
H 	H 	0.62420 0.85040 0.92480 0.48500
C 	C 	0.53390 0.73650 0.85800 -1.43000
H 	H 	0.55210 0.66810 0.85700 0.43000
H 	H 	0.54620 0.78520 0.82420 0.42500
H 	H 	0.49300 0.72790 0.84200 0.45400
C 	C 	0.40300 0.55590 0.02840 0.07600
H 	H 	0.39890 0.49530 0.05640 -0.03100
C 	C 	0.30390 0.53850 0.96940 -0.05000
H 	H 	0.27610 0.57940 0.98850 0.04800
H 	H 	0.30860 0.46860 0.99370 0.01400
C 	C 	0.28440 0.52710 0.88330 -0.08800
H 	H 	0.30630 0.47120 0.86620 0.05300
H 	H 	0.24410 0.50770 0.86820 0.05500
C 	C 	0.25970 0.65660 0.78420 0.07800
H 	H 	0.23040 0.60850 0.76330 0.00900
C 	C 	0.26270 0.75130 0.74210 -0.14600
C 	C 	0.22030 0.76140 0.67030 -0.03200
H 	H 	0.19430 0.70630 0.65270 0.04600
C 	C 	0.21900 0.85270 0.62910 0.05700
C 	C 	0.25750 0.93460 0.65500 0.10500
H 	H 	0.25550 0.99630 0.62560 -0.02600
C 	C 	0.29960 0.92860 0.72380 -0.44700
C 	C 	0.30280 0.83280 0.76680 0.33000
C 	C 	0.34270 0.02180 0.75020 1.14600
C 	C 	0.34050 0.05660 0.83080 -1.60600
H 	H 	0.30230 0.08020 0.83000 0.47900
H 	H 	0.36700 0.11430 0.84760 0.47200
H 	H 	0.35060 0.99690 0.86500 0.49600
C 	C 	0.40300 0.98300 0.75200 -1.64400
H 	H 	0.42990 0.04050 0.76850 0.48000
H 	H 	0.40450 0.96020 0.70200 0.50400
H 	H 	0.41280 0.92390 0.78680 0.50600
C 	C 	0.32870 0.12140 0.69860 -1.61100
H 	H 	0.29060 0.14590 0.69740 0.48900
H 	H 	0.33080 0.10300 0.64800 0.48300
H 	H 	0.35580 0.17730 0.71820 0.48100
C 	C 	0.14800 0.78240 0.52690 0.02400
H 	H 	0.12500 0.75690 0.56030 0.02200
H 	H 	0.17320 0.72460 0.51990 0.03700
C 	C 	0.10920 0.81340 0.45100 -0.03600
C 	C 	0.05530 0.76460 0.42980 0.03900
H 	H 	0.04430 0.71870 0.46410 0.01600
C 	C 	0.01840 0.78150 0.36110 -0.17600
C 	C 	0.03480 0.84960 0.31250 0.11400
H 	H 	0.01010 0.86150 0.26490 0.01300
C 	C 	0.08520 0.90030 0.33080 -0.16300
C 	C 	0.12380 0.88180 0.39930 0.03600
H 	H 	0.15950 0.91520 0.41070 0.03700
C 	C 	0.10330 0.97560 0.27560 0.44500
C 	C 	0.95810 0.73010 0.34250 0.50500
N 	N 	0.29340 0.63060 0.84860 -0.20700
N 	N 	0.35790 0.59440 0.98350 -0.21900
O 	O 	0.79650 0.63680 0.31410 -0.55900
O 	O 	0.83630 0.52640 0.40690 -0.41500
O 	O 	0.71020 0.30150 0.53210 -0.36000
O 	O 	0.61800 0.33190 0.49210 -0.43500
O 	O 	0.94770 0.67250 0.39450 -0.47400
O 	O 	0.93080 0.73470 0.28290 -0.58600
O 	O 	0.07150 0.97560 0.21090 -0.43300
O 	O 	0.13920 0.04160 0.30090 -0.51500
O 	O 	0.60036 0.58290 0.18040 -0.22900
O 	O 	0.18070 0.87010 0.56020 -0.20300
O 	O 	0.43594 0.69680 0.92170 -0.47200
O 	O 	0.34388 0.82130 0.83120 -0.49700
Na	Na	0.91802 0.97530 0.89330 0.58700
Fe	Fe	0.35781 0.76991 0.41560 1.21100
Zn	Zn	0.85598 0.83114 0.76558 1.19600
C 	C 	0.79340 0.93180 0.86220 0.41500
C 	C 	0.73700 0.97740 0.86370 -0.15400
C 	C 	0.73080 0.04460 0.92270 0.04500
H 	H 	0.76240 0.06020 0.96260 0.02700
C 	C 	0.67800 0.08750 0.92170 -0.11300
C 	C 	0.63130 0.06880 0.85920 -0.02200
H 	H 	0.59600 0.10050 0.85790 0.01600
C 	C 	0.63660 0.00380 0.79930 -0.05700
C 	C 	0.69010 0.95690 0.80460 0.01400
H 	H 	0.69420 0.90980 0.76660 0.02400
C 	C 	0.66780 0.15570 0.98510 0.29700
C 	C 	0.58630 0.98950 0.73400 0.04100
H 	H 	0.57500 0.05820 0.70970 0.00500
H 	H 	0.55430 0.96130 0.75150 -0.02400
C 	C 	0.55580 0.89430 0.61620 0.03500
C 	C 	0.50180 0.93210 0.60460 -0.02300
H 	H 	0.49200 0.97860 0.63940 0.00900
C 	C 	0.46050 0.89980 0.53870 -0.15100
C 	C 	0.47510 0.82890 0.48440 0.32500
C 	C 	0.53240 0.79400 0.49730 -0.44400
C 	C 	0.57180 0.82680 0.56350 0.10600
H 	H 	0.60960 0.80310 0.57290 -0.04300
C 	C 	0.55120 0.71650 0.44240 1.07200
C 	C 	0.52240 0.60770 0.44480 -1.54800
H 	H 	0.48150 0.61690 0.43220 0.46500
H 	H 	0.53260 0.56010 0.40870 0.46400
H 	H 	0.53500 0.57780 0.49500 0.45800
C 	C 	0.61510 0.69750 0.46160 -1.59200
H 	H 	0.63460 0.76460 0.46070 0.47900
H 	H 	0.62720 0.66630 0.51140 0.47600
H 	H 	0.62420 0.64960 0.42480 0.48800
C 	C 	0.53390 0.76350 0.35800 -1.43300
H 	H 	0.55210 0.83190 0.35700 0.43100
H 	H 	0.54620 0.71480 0.32420 0.42600
H 	H 	0.49300 0.77210 0.34200 0.45500
C 	C 	0.40300 0.94410 0.52840 0.07800
H 	H 	0.39890 0.00470 0.55640 -0.03200
C 	C 	0.30390 0.96150 0.46940 -0.04800
H 	H 	0.27610 0.92060 0.48850 0.04700
H 	H 	0.30860 0.03140 0.49370 0.01300
C 	C 	0.28440 0.97290 0.38330 -0.08800
H 	H 	0.30630 0.02880 0.36620 0.05300
H 	H 	0.24410 0.99230 0.36820 0.05500
C 	C 	0.25970 0.84340 0.28420 0.07800
H 	H 	0.23040 0.89150 0.26330 0.00900
C 	C 	0.26270 0.74870 0.24210 -0.14700
C 	C 	0.22030 0.73860 0.17030 -0.03100
H 	H 	0.19430 0.79370 0.15270 0.04600
C 	C 	0.21900 0.64730 0.12910 0.05600
C 	C 	0.25750 0.56540 0.15500 0.10700
H 	H 	0.25550 0.50370 0.12560 -0.02800
C 	C 	0.29960 0.57140 0.22380 -0.45100
C 	C 	0.30280 0.66720 0.26680 0.33100
C 	C 	0.34270 0.47820 0.25020 1.15400
C 	C 	0.34050 0.44340 0.33080 -1.60600
H 	H 	0.30230 0.41980 0.33000 0.48000
H 	H 	0.36700 0.38570 0.34760 0.47200
H 	H 	0.35060 0.50310 0.36500 0.49500
C 	C 	0.40300 0.51700 0.25200 -1.66000
H 	H 	0.42990 0.45950 0.26850 0.48500
H 	H 	0.40450 0.53980 0.20200 0.50900
H 	H 	0.41280 0.57610 0.28680 0.51000
C 	C 	0.32870 0.37860 0.19860 -1.62000
H 	H 	0.29060 0.35410 0.19740 0.49200
H 	H 	0.33080 0.39700 0.14800 0.48600
H 	H 	0.35580 0.32270 0.21820 0.48400
C 	C 	0.14800 0.71760 0.02690 0.02300
H 	H 	0.12500 0.74310 0.06030 0.02200
H 	H 	0.17320 0.77540 0.01990 0.03700
C 	C 	0.10920 0.68660 0.95100 -0.03500
C 	C 	0.05530 0.73540 0.92980 0.03900
H 	H 	0.04430 0.78130 0.96410 0.01700
C 	C 	0.01840 0.71850 0.86110 -0.17600
C 	C 	0.03480 0.65040 0.81250 0.11400
H 	H 	0.01010 0.63850 0.76490 0.01300
C 	C 	0.08520 0.59970 0.83080 -0.16300
C 	C 	0.12380 0.61820 0.89930 0.03600
H 	H 	0.15950 0.58480 0.91070 0.03800
C 	C 	0.10330 0.52440 0.77560 0.44500
C 	C 	0.95810 0.76990 0.84250 0.50500
N 	N 	0.29340 0.86940 0.34860 -0.20700
N 	N 	0.35790 0.90560 0.48350 -0.21900
O 	O 	0.79650 0.86320 0.81410 -0.55900
O 	O 	0.83630 0.97360 0.90690 -0.41500
O 	O 	0.71020 0.19850 0.03210 -0.35900
O 	O 	0.61800 0.16810 0.99210 -0.43600
O 	O 	0.94770 0.82750 0.89450 -0.47400
O 	O 	0.93080 0.76530 0.78290 -0.58500
O 	O 	0.07150 0.52440 0.71090 -0.43300
O 	O 	0.13920 0.45840 0.80090 -0.51400
O 	O 	0.60036 0.91710 0.68040 -0.23000
O 	O 	0.18070 0.62990 0.06020 -0.20300
O 	O 	0.43594 0.80320 0.42170 -0.47300
O 	O 	0.34388 0.67870 0.33120 -0.49800
Na	Na	0.08198 0.47530 0.60670 0.58700
Fe	Fe	0.64219 0.26991 0.08440 1.21100
Zn	Zn	0.14402 0.33114 0.73442 1.19600
C 	C 	0.20660 0.43180 0.63780 0.41500
C 	C 	0.26300 0.47740 0.63630 -0.15400
C 	C 	0.26920 0.54460 0.57730 0.04600
H 	H 	0.23760 0.56020 0.53740 0.02700
C 	C 	0.32200 0.58750 0.57830 -0.11300
C 	C 	0.36870 0.56880 0.64080 -0.02300
H 	H 	0.40400 0.60050 0.64210 0.01600
C 	C 	0.36340 0.50380 0.70070 -0.05500
C 	C 	0.30990 0.45690 0.69540 0.01200
H 	H 	0.30580 0.40980 0.73340 0.02400
C 	C 	0.33220 0.65570 0.51490 0.29900
C 	C 	0.41370 0.48950 0.76600 0.03700
H 	H 	0.42500 0.55820 0.79030 0.00700
H 	H 	0.44570 0.46130 0.74850 -0.02300
C 	C 	0.44420 0.39430 0.88380 0.03600
C 	C 	0.49820 0.43210 0.89540 -0.02400
H 	H 	0.50800 0.47860 0.86060 0.00900
C 	C 	0.53950 0.39980 0.96130 -0.15100
C 	C 	0.52490 0.32890 0.01560 0.32400
C 	C 	0.46760 0.29400 0.00270 -0.44100
C 	C 	0.42820 0.32680 0.93650 0.10400
H 	H 	0.39040 0.30310 0.92710 -0.04300
C 	C 	0.44880 0.21650 0.05760 1.06800
C 	C 	0.47760 0.10770 0.05520 -1.54400
H 	H 	0.51850 0.11690 0.06780 0.46500
H 	H 	0.46740 0.06010 0.09130 0.46300
H 	H 	0.46500 0.07780 0.00500 0.45800
C 	C 	0.38490 0.19750 0.03840 -1.58200
H 	H 	0.36540 0.26460 0.03930 0.47600
H 	H 	0.37280 0.16630 0.98860 0.47200
H 	H 	0.37580 0.14960 0.07520 0.48500
C 	C 	0.46610 0.26350 0.14200 -1.43000
H 	H 	0.44790 0.33190 0.14300 0.43000
H 	H 	0.45380 0.21480 0.17580 0.42500
H 	H 	0.50700 0.27210 0.15800 0.45400
C 	C 	0.59700 0.44410 0.97160 0.07600
H 	H 	0.60110 0.50470 0.94360 -0.03100
C 	C 	0.69610 0.46150 0.03060 -0.05000
H 	H 	0.72390 0.42060 0.01150 0.04800
H 	H 	0.69140 0.53140 0.00630 0.01400
C 	C 	0.71560 0.47290 0.11670 -0.08800
H 	H 	0.69370 0.52880 0.13380 0.05300
H 	H 	0.75590 0.49230 0.13180 0.05500
C 	C 	0.74030 0.34340 0.21580 0.07800
H 	H 	0.76960 0.39150 0.23670 0.00900
C 	C 	0.73730 0.24870 0.25790 -0.14600
C 	C 	0.77970 0.23860 0.32970 -0.03200
H 	H 	0.80570 0.29370 0.34730 0.04600
C 	C 	0.78100 0.14730 0.37090 0.05700
C 	C 	0.74250 0.06540 0.34500 0.10500
H 	H 	0.74450 0.00370 0.37440 -0.02600
C 	C 	0.70040 0.07140 0.27620 -0.44700
C 	C 	0.69720 0.16720 0.23320 0.33000
C 	C 	0.65730 0.97820 0.24980 1.14600
C 	C 	0.65950 0.94340 0.16920 -1.60600
H 	H 	0.69770 0.91980 0.17000 0.47900
H 	H 	0.63300 0.88570 0.15240 0.47200
H 	H 	0.64940 0.00310 0.13500 0.49600
C 	C 	0.59700 0.01700 0.24800 -1.64400
H 	H 	0.57010 0.95950 0.23150 0.48000
H 	H 	0.59550 0.03980 0.29800 0.50400
H 	H 	0.58720 0.07610 0.21320 0.50600
C 	C 	0.67130 0.87860 0.30140 -1.61100
H 	H 	0.70940 0.85410 0.30260 0.48900
H 	H 	0.66920 0.89700 0.35200 0.48300
H 	H 	0.64420 0.82270 0.28180 0.48100
C 	C 	0.85200 0.21760 0.47310 0.02400
H 	H 	0.87500 0.24310 0.43970 0.02200
H 	H 	0.82680 0.27540 0.48010 0.03700
C 	C 	0.89080 0.18660 0.54900 -0.03600
C 	C 	0.94470 0.23540 0.57020 0.03900
H 	H 	0.95570 0.28130 0.53590 0.01600
C 	C 	0.98160 0.21850 0.63890 -0.17600
C 	C 	0.96520 0.15040 0.68750 0.11400
H 	H 	0.98990 0.13850 0.73510 0.01300
C 	C 	0.91480 0.09970 0.66920 -0.16300
C 	C 	0.87620 0.11820 0.60070 0.03600
H 	H 	0.84050 0.08480 0.58930 0.03700
C 	C 	0.89670 0.02440 0.72440 0.44500
C 	C 	0.04190 0.26990 0.65750 0.50500
N 	N 	0.70660 0.36940 0.15140 -0.20700
N 	N 	0.64210 0.40560 0.01650 -0.21900
O 	O 	0.20350 0.36320 0.68590 -0.55900
O 	O 	0.16370 0.47360 0.59310 -0.41500
O 	O 	0.28980 0.69850 0.46790 -0.36000
O 	O 	0.38200 0.66810 0.50790 -0.43500
O 	O 	0.05230 0.32750 0.60550 -0.47400
O 	O 	0.06920 0.26530 0.71710 -0.58600
O 	O 	0.92850 0.02440 0.78910 -0.43300
O 	O 	0.86080 0.95840 0.69910 -0.51500
O 	O 	0.39964 0.41710 0.81960 -0.22900
O 	O 	0.81930 0.12990 0.43980 -0.20300
O 	O 	0.56406 0.30320 0.07830 -0.47200
O 	O 	0.65612 0.17870 0.16880 -0.49700
