data_crystal

_cell_length_a 10.67620
_cell_length_b 28.24200
_cell_length_c 34.07900
_cell_angle_alpha 90.00000
_cell_angle_beta  90.00000
_cell_angle_gamma 90.00000

_symmetry_space_group_name_	'P 1'
_symmetry_space_group_name_H-M	'P 1'

loop_
_symmetry_equiv_pos_as_xyz
  x,y,z

loop_
_atom_site_label
_atom_site_type_symbol
_atom_site_fract_x
_atom_site_fract_y
_atom_site_fract_z
_atom_site_charge
O 	O 	0.65640 0.35741 0.05666 -0.23900
C 	C 	0.52860 0.35850 0.99892 -0.00700
O 	O 	0.85610 0.24089 0.20445 -0.60300
C 	C 	0.58660 0.32768 0.03081 0.03300
H 	H 	0.52010 0.31100 0.04550 0.02800
H 	H 	0.64250 0.30370 0.01880 0.03400
O 	O 	0.96610 0.30789 0.20935 -0.60600
C 	C 	0.62490 0.38927 0.97789 0.03300
H 	H 	0.58350 0.40820 0.95720 0.03300
H 	H 	0.66450 0.41130 0.99680 0.03800
O 	O 	0.71790 0.35930 0.96082 -0.24600
C 	C 	0.46730 0.32415 0.96987 0.03400
H 	H 	0.53200 0.30380 0.95760 0.02800
H 	H 	0.40680 0.30350 0.98370 0.03400
O 	O 	0.96420 0.36847 0.79382 -0.62700
C 	C 	0.43610 0.39332 0.01704 0.03500
H 	H 	0.48020 0.41430 0.03580 0.02900
H 	H 	0.39870 0.41330 0.99630 0.03800
O 	O 	0.89500 0.44203 0.79740 -0.64500
C 	C 	0.70780 0.33658 0.08959 0.26700
O 	O 	0.40410 0.35121 0.94038 -0.24300
C 	C 	0.69040 0.28978 0.10037 -0.26400
H 	H 	0.64030 0.26940 0.08470 0.11900
O 	O 	0.10920 0.28770 0.78952 -0.61800
C 	C 	0.74660 0.27319 0.13414 0.16700
H 	H 	0.73260 0.24130 0.14200 -0.01500
O 	O 	0.22320 0.22283 0.79629 -0.60300
C 	C 	0.82270 0.30178 0.15683 -0.23900
O 	O 	0.34000 0.36759 0.03691 -0.24700
C 	C 	0.84050 0.34845 0.14564 0.16300
H 	H 	0.89350 0.36830 0.16090 -0.01100
O 	O 	0.20080 0.45826 0.20172 -0.62400
C 	C 	0.78250 0.36663 0.11272 -0.25000
H 	H 	0.79290 0.39900 0.10580 0.12700
O 	O 	0.11670 0.38687 0.20677 -0.64200
C 	C 	0.88600 0.28153 0.19295 0.51700
C 	C 	0.76930 0.37329 0.92597 0.29600
C 	C 	0.82770 0.33752 0.90498 -0.28100
H 	H 	0.83300 0.30640 0.91550 0.13900
C 	C 	0.87860 0.34773 0.86826 0.20100
H 	H 	0.91980 0.32350 0.85390 -0.03500
O 	O 	0.61110 0.48920 0.72950 -0.21900
C 	C 	0.86980 0.39243 0.85261 -0.29400
O 	O 	0.66270 0.44530 0.77420 -0.29200
C 	C 	0.81770 0.42827 0.87478 0.20800
H 	H 	0.81610 0.45960 0.86470 -0.02500
C 	C 	0.76740 0.41931 0.91176 -0.28800
H 	H 	0.73240 0.44420 0.92690 0.13200
C 	C 	0.91140 0.40173 0.81125 0.57700
C 	C 	0.35670 0.32735 0.90879 0.27900
C 	C 	0.37660 0.27977 0.90094 -0.27000
H 	H 	0.42520 0.26100 0.91840 0.12100
C 	C 	0.32490 0.25978 0.86737 0.17800
H 	H 	0.34140 0.22750 0.86160 -0.01900
C 	C 	0.25050 0.28554 0.84227 -0.25200
C 	C 	0.22810 0.33312 0.85121 0.17500
H 	H 	0.17510 0.35130 0.83460 -0.00700
C 	C 	0.28160 0.35401 0.88353 -0.26000
H 	H 	0.26750 0.38660 0.88870 0.13500
C 	C 	0.19030 0.26338 0.80697 0.53600
C 	C 	0.30160 0.38338 0.07275 0.29100
C 	C 	0.22680 0.35187 0.09324 -0.27600
H 	H 	0.20460 0.32240 0.08170 0.13800
C 	C 	0.18430 0.36295 0.13034 0.18500
H 	H 	0.13250 0.34130 0.14410 -0.02800
C 	C 	0.21730 0.40588 0.14763 -0.27300
C 	C 	0.28950 0.43768 0.12647 0.18500
H 	H 	0.31050 0.46740 0.13780 -0.01200
C 	C 	0.33190 0.42690 0.08880 -0.27800
H 	H 	0.38070 0.44900 0.07440 0.12700
C 	C 	0.17460 0.41779 0.18841 0.53900
O 	O 	0.34360 0.64259 0.55666 -0.23900
C 	C 	0.47140 0.64150 0.49892 -0.00700
O 	O 	0.14390 0.75911 0.70445 -0.60300
C 	C 	0.41340 0.67232 0.53081 0.03300
H 	H 	0.47990 0.68900 0.54550 0.02800
H 	H 	0.35750 0.69630 0.51880 0.03400
O 	O 	0.03390 0.69211 0.70935 -0.60600
C 	C 	0.37510 0.61073 0.47789 0.03300
H 	H 	0.41650 0.59180 0.45720 0.03300
H 	H 	0.33550 0.58870 0.49680 0.03800
O 	O 	0.28210 0.64070 0.46082 -0.24600
C 	C 	0.53270 0.67585 0.46987 0.03400
H 	H 	0.46800 0.69620 0.45760 0.02800
H 	H 	0.59320 0.69650 0.48370 0.03400
O 	O 	0.03580 0.63153 0.29382 -0.62700
C 	C 	0.56390 0.60668 0.51704 0.03500
H 	H 	0.51980 0.58570 0.53580 0.02900
H 	H 	0.60130 0.58670 0.49630 0.03800
O 	O 	0.10500 0.55797 0.29740 -0.64500
C 	C 	0.29220 0.66342 0.58959 0.26700
O 	O 	0.59590 0.64879 0.44038 -0.24300
C 	C 	0.30960 0.71022 0.60037 -0.26400
H 	H 	0.35970 0.73060 0.58470 0.11900
O 	O 	0.89080 0.71230 0.28952 -0.61800
C 	C 	0.25340 0.72681 0.63414 0.16700
H 	H 	0.26740 0.75870 0.64200 -0.01500
O 	O 	0.77680 0.77717 0.29629 -0.60300
C 	C 	0.17730 0.69822 0.65683 -0.23900
O 	O 	0.66000 0.63241 0.53691 -0.24700
C 	C 	0.15950 0.65155 0.64564 0.16300
H 	H 	0.10650 0.63170 0.66090 -0.01100
O 	O 	0.79920 0.54174 0.70172 -0.62400
C 	C 	0.21750 0.63337 0.61272 -0.25000
H 	H 	0.20710 0.60100 0.60580 0.12800
O 	O 	0.88330 0.61313 0.70677 -0.64200
C 	C 	0.11400 0.71847 0.69295 0.51700
C 	C 	0.23070 0.62671 0.42597 0.29600
C 	C 	0.17230 0.66248 0.40498 -0.28100
H 	H 	0.16700 0.69360 0.41550 0.13900
C 	C 	0.12140 0.65227 0.36826 0.20100
H 	H 	0.08020 0.67650 0.35390 -0.03500
O 	O 	0.38890 0.51080 0.22950 -0.21900
C 	C 	0.13020 0.60757 0.35261 -0.29400
O 	O 	0.33730 0.55470 0.27420 -0.29200
C 	C 	0.18230 0.57173 0.37478 0.20800
H 	H 	0.18390 0.54040 0.36470 -0.02500
C 	C 	0.23260 0.58069 0.41176 -0.28800
H 	H 	0.26760 0.55580 0.42690 0.13200
C 	C 	0.08860 0.59827 0.31125 0.57700
C 	C 	0.64330 0.67265 0.40879 0.27900
C 	C 	0.62340 0.72023 0.40094 -0.27000
H 	H 	0.57480 0.73900 0.41840 0.12100
C 	C 	0.67510 0.74022 0.36737 0.17800
H 	H 	0.65860 0.77250 0.36160 -0.01900
C 	C 	0.74950 0.71446 0.34227 -0.25200
C 	C 	0.77190 0.66688 0.35121 0.17500
H 	H 	0.82490 0.64870 0.33460 -0.00700
C 	C 	0.71840 0.64599 0.38353 -0.26000
H 	H 	0.73250 0.61340 0.38870 0.13500
C 	C 	0.80970 0.73662 0.30697 0.53600
C 	C 	0.69840 0.61662 0.57275 0.29100
C 	C 	0.77320 0.64813 0.59324 -0.27600
H 	H 	0.79540 0.67760 0.58170 0.13800
C 	C 	0.81570 0.63705 0.63034 0.18500
H 	H 	0.86750 0.65870 0.64410 -0.02800
C 	C 	0.78270 0.59412 0.64763 -0.27300
C 	C 	0.71050 0.56232 0.62647 0.18500
H 	H 	0.68950 0.53260 0.63780 -0.01200
C 	C 	0.66810 0.57310 0.58880 -0.27800
H 	H 	0.61930 0.55100 0.57440 0.12700
C 	C 	0.82540 0.58221 0.68841 0.53900
O 	O 	0.34360 0.85741 0.44334 -0.23900
C 	C 	0.47140 0.85850 0.50108 -0.00700
O 	O 	0.14390 0.74089 0.29555 -0.60300
C 	C 	0.41340 0.82768 0.46919 0.03300
H 	H 	0.47990 0.81100 0.45450 0.02800
H 	H 	0.35750 0.80370 0.48120 0.03400
O 	O 	0.03390 0.80789 0.29065 -0.60600
C 	C 	0.37510 0.88927 0.52211 0.03300
H 	H 	0.41650 0.90820 0.54280 0.03300
H 	H 	0.33550 0.91130 0.50320 0.03800
O 	O 	0.28210 0.85930 0.53918 -0.24600
C 	C 	0.53270 0.82415 0.53013 0.03400
H 	H 	0.46800 0.80380 0.54240 0.02800
H 	H 	0.59320 0.80350 0.51630 0.03400
O 	O 	0.03580 0.86847 0.70618 -0.62700
C 	C 	0.56390 0.89332 0.48296 0.03500
H 	H 	0.51980 0.91430 0.46420 0.02900
H 	H 	0.60130 0.91330 0.50370 0.03900
O 	O 	0.10500 0.94203 0.70260 -0.64500
C 	C 	0.29220 0.83658 0.41041 0.26700
O 	O 	0.59590 0.85121 0.55962 -0.24300
C 	C 	0.30960 0.78978 0.39963 -0.26400
H 	H 	0.35970 0.76940 0.41530 0.11900
O 	O 	0.89080 0.78770 0.71048 -0.61800
C 	C 	0.25340 0.77319 0.36586 0.16700
H 	H 	0.26740 0.74130 0.35800 -0.01500
O 	O 	0.77680 0.72283 0.70371 -0.60300
C 	C 	0.17730 0.80178 0.34317 -0.23900
O 	O 	0.66000 0.86759 0.46309 -0.24700
C 	C 	0.15950 0.84845 0.35436 0.16300
H 	H 	0.10650 0.86830 0.33910 -0.01100
O 	O 	0.79920 0.95826 0.29828 -0.62400
C 	C 	0.21750 0.86663 0.38728 -0.25000
H 	H 	0.20710 0.89900 0.39420 0.12700
O 	O 	0.88330 0.88687 0.29323 -0.64200
C 	C 	0.11400 0.78153 0.30705 0.51700
C 	C 	0.23070 0.87329 0.57403 0.29600
C 	C 	0.17230 0.83752 0.59502 -0.28100
H 	H 	0.16700 0.80640 0.58450 0.13900
C 	C 	0.12140 0.84773 0.63174 0.20100
H 	H 	0.08020 0.82350 0.64610 -0.03500
O 	O 	0.38890 0.98920 0.77050 -0.21900
C 	C 	0.13020 0.89243 0.64739 -0.29400
O 	O 	0.33730 0.94530 0.72580 -0.29200
C 	C 	0.18230 0.92827 0.62522 0.20800
H 	H 	0.18390 0.95960 0.63530 -0.02500
C 	C 	0.23260 0.91931 0.58824 -0.28800
H 	H 	0.26760 0.94420 0.57310 0.13200
C 	C 	0.08860 0.90173 0.68875 0.57700
C 	C 	0.64330 0.82735 0.59121 0.27900
C 	C 	0.62340 0.77977 0.59906 -0.27000
H 	H 	0.57480 0.76100 0.58160 0.12100
C 	C 	0.67510 0.75978 0.63263 0.17800
H 	H 	0.65860 0.72750 0.63840 -0.01900
C 	C 	0.74950 0.78554 0.65773 -0.25200
C 	C 	0.77190 0.83312 0.64879 0.17500
H 	H 	0.82490 0.85130 0.66540 -0.00700
C 	C 	0.71840 0.85401 0.61647 -0.26000
H 	H 	0.73250 0.88660 0.61130 0.13500
C 	C 	0.80970 0.76338 0.69303 0.53600
C 	C 	0.69840 0.88338 0.42725 0.29100
C 	C 	0.77320 0.85187 0.40676 -0.27600
H 	H 	0.79540 0.82240 0.41830 0.13800
C 	C 	0.81570 0.86295 0.36966 0.18500
H 	H 	0.86750 0.84130 0.35590 -0.02800
C 	C 	0.78270 0.90588 0.35237 -0.27300
C 	C 	0.71050 0.93768 0.37353 0.18500
H 	H 	0.68950 0.96740 0.36220 -0.01200
C 	C 	0.66810 0.92690 0.41120 -0.27800
H 	H 	0.61930 0.94900 0.42560 0.12700
C 	C 	0.82540 0.91779 0.31159 0.53900
O 	O 	0.65640 0.14259 0.94334 -0.23900
C 	C 	0.52860 0.14150 0.00108 -0.00800
O 	O 	0.85610 0.25911 0.79555 -0.60300
C 	C 	0.58660 0.17232 0.96919 0.03400
H 	H 	0.52010 0.18900 0.95450 0.02800
H 	H 	0.64250 0.19630 0.98120 0.03400
O 	O 	0.96610 0.19211 0.79065 -0.60600
C 	C 	0.62490 0.11073 0.02211 0.03300
H 	H 	0.58350 0.09180 0.04280 0.03200
H 	H 	0.66450 0.08870 0.00320 0.03800
O 	O 	0.71790 0.14070 0.03918 -0.24700
C 	C 	0.46730 0.17585 0.03013 0.03500
H 	H 	0.53200 0.19620 0.04240 0.02800
H 	H 	0.40680 0.19650 0.01630 0.03400
O 	O 	0.96420 0.13153 0.20618 -0.62700
C 	C 	0.43610 0.10668 0.98296 0.03600
H 	H 	0.48020 0.08570 0.96420 0.02900
H 	H 	0.39870 0.08670 0.00370 0.03800
O 	O 	0.89500 0.05797 0.20260 -0.64500
C 	C 	0.70780 0.16342 0.91041 0.26700
O 	O 	0.40410 0.14879 0.05962 -0.24300
C 	C 	0.69040 0.21022 0.89963 -0.26400
H 	H 	0.64030 0.23060 0.91530 0.11900
O 	O 	0.10920 0.21230 0.21048 -0.61800
C 	C 	0.74660 0.22681 0.86586 0.16700
H 	H 	0.73260 0.25870 0.85800 -0.01500
O 	O 	0.22320 0.27717 0.20371 -0.60300
C 	C 	0.82270 0.19822 0.84317 -0.23900
O 	O 	0.34000 0.13241 0.96309 -0.24700
C 	C 	0.84050 0.15155 0.85436 0.16300
H 	H 	0.89350 0.13170 0.83910 -0.01100
O 	O 	0.20080 0.04174 0.79828 -0.62300
C 	C 	0.78250 0.13337 0.88728 -0.25000
H 	H 	0.79290 0.10100 0.89420 0.12800
O 	O 	0.11670 0.11313 0.79323 -0.64200
C 	C 	0.88600 0.21847 0.80705 0.51700
C 	C 	0.76930 0.12671 0.07403 0.29600
C 	C 	0.82770 0.16248 0.09502 -0.28100
H 	H 	0.83300 0.19360 0.08450 0.13900
C 	C 	0.87860 0.15227 0.13174 0.20100
H 	H 	0.91980 0.17650 0.14610 -0.03500
O 	O 	0.61110 0.01080 0.27050 -0.21900
C 	C 	0.86980 0.10757 0.14739 -0.29400
O 	O 	0.66270 0.05470 0.22580 -0.29200
C 	C 	0.81770 0.07173 0.12522 0.20800
H 	H 	0.81610 0.04040 0.13530 -0.02500
C 	C 	0.76740 0.08069 0.08824 -0.28800
H 	H 	0.73240 0.05580 0.07310 0.13200
C 	C 	0.91140 0.09827 0.18875 0.57700
C 	C 	0.35670 0.17265 0.09121 0.27900
C 	C 	0.37660 0.22023 0.09906 -0.27000
H 	H 	0.42520 0.23900 0.08160 0.12100
C 	C 	0.32490 0.24022 0.13263 0.17800
H 	H 	0.34140 0.27250 0.13840 -0.01900
C 	C 	0.25050 0.21446 0.15773 -0.25200
C 	C 	0.22810 0.16688 0.14879 0.17500
H 	H 	0.17510 0.14870 0.16540 -0.00700
C 	C 	0.28160 0.14599 0.11647 -0.26000
H 	H 	0.26750 0.11340 0.11130 0.13500
C 	C 	0.19030 0.23662 0.19303 0.53600
C 	C 	0.30160 0.11662 0.92725 0.29100
C 	C 	0.22680 0.14813 0.90676 -0.27600
H 	H 	0.20460 0.17760 0.91830 0.13800
C 	C 	0.18430 0.13705 0.86966 0.18500
H 	H 	0.13250 0.15870 0.85590 -0.02800
C 	C 	0.21730 0.09412 0.85237 -0.27300
C 	C 	0.28950 0.06232 0.87353 0.18500
H 	H 	0.31050 0.03260 0.86220 -0.01200
C 	C 	0.33190 0.07310 0.91120 -0.27800
H 	H 	0.38070 0.05100 0.92560 0.12700
C 	C 	0.17460 0.08221 0.81159 0.53900
O 	O 	0.34360 0.64259 0.94334 -0.23900
C 	C 	0.47140 0.64150 0.00108 -0.00700
O 	O 	0.14390 0.75911 0.79555 -0.60300
C 	C 	0.41340 0.67232 0.96919 0.03300
H 	H 	0.47990 0.68900 0.95450 0.02800
H 	H 	0.35750 0.69630 0.98120 0.03400
O 	O 	0.03390 0.69211 0.79065 -0.60600
C 	C 	0.37510 0.61073 0.02211 0.03300
H 	H 	0.41650 0.59180 0.04280 0.03300
H 	H 	0.33550 0.58870 0.00320 0.03800
O 	O 	0.28210 0.64070 0.03918 -0.24600
C 	C 	0.53270 0.67585 0.03013 0.03400
H 	H 	0.46800 0.69620 0.04240 0.02800
H 	H 	0.59320 0.69650 0.01630 0.03400
O 	O 	0.03580 0.63153 0.20618 -0.62700
C 	C 	0.56390 0.60668 0.98296 0.03500
H 	H 	0.51980 0.58570 0.96420 0.02900
H 	H 	0.60130 0.58670 0.00370 0.03800
O 	O 	0.10500 0.55797 0.20260 -0.64500
C 	C 	0.29220 0.66342 0.91041 0.26700
O 	O 	0.59590 0.64879 0.05962 -0.24300
C 	C 	0.30960 0.71022 0.89963 -0.26400
H 	H 	0.35970 0.73060 0.91530 0.11900
O 	O 	0.89080 0.71230 0.21048 -0.61800
C 	C 	0.25340 0.72681 0.86586 0.16700
H 	H 	0.26740 0.75870 0.85800 -0.01500
O 	O 	0.77680 0.77717 0.20371 -0.60300
C 	C 	0.17730 0.69822 0.84317 -0.23900
O 	O 	0.66000 0.63241 0.96309 -0.24700
C 	C 	0.15950 0.65155 0.85436 0.16300
H 	H 	0.10650 0.63170 0.83910 -0.01100
O 	O 	0.79920 0.54174 0.79828 -0.62400
C 	C 	0.21750 0.63337 0.88728 -0.25000
H 	H 	0.20710 0.60100 0.89420 0.12700
O 	O 	0.88330 0.61313 0.79323 -0.64200
C 	C 	0.11400 0.71847 0.80705 0.51700
C 	C 	0.23070 0.62671 0.07403 0.29600
C 	C 	0.17230 0.66248 0.09502 -0.28100
H 	H 	0.16700 0.69360 0.08450 0.13900
C 	C 	0.12140 0.65227 0.13174 0.20100
H 	H 	0.08020 0.67650 0.14610 -0.03500
O 	O 	0.38890 0.51080 0.27050 -0.21900
C 	C 	0.13020 0.60757 0.14739 -0.29400
O 	O 	0.33730 0.55470 0.22580 -0.29200
C 	C 	0.18230 0.57173 0.12522 0.20800
H 	H 	0.18390 0.54040 0.13530 -0.02500
C 	C 	0.23260 0.58069 0.08824 -0.28800
H 	H 	0.26760 0.55580 0.07310 0.13200
C 	C 	0.08860 0.59827 0.18875 0.57700
C 	C 	0.64330 0.67265 0.09121 0.27900
C 	C 	0.62340 0.72023 0.09906 -0.27000
H 	H 	0.57480 0.73900 0.08160 0.12100
C 	C 	0.67510 0.74022 0.13263 0.17800
H 	H 	0.65860 0.77250 0.13840 -0.01900
C 	C 	0.74950 0.71446 0.15773 -0.25200
C 	C 	0.77190 0.66688 0.14879 0.17500
H 	H 	0.82490 0.64870 0.16540 -0.00700
C 	C 	0.71840 0.64599 0.11647 -0.26000
H 	H 	0.73250 0.61340 0.11130 0.13500
C 	C 	0.80970 0.73662 0.19303 0.53600
C 	C 	0.69840 0.61662 0.92725 0.29100
C 	C 	0.77320 0.64813 0.90676 -0.27600
H 	H 	0.79540 0.67760 0.91830 0.13800
C 	C 	0.81570 0.63705 0.86966 0.18500
H 	H 	0.86750 0.65870 0.85590 -0.02800
C 	C 	0.78270 0.59412 0.85237 -0.27300
C 	C 	0.71050 0.56232 0.87353 0.18500
H 	H 	0.68950 0.53260 0.86220 -0.01200
C 	C 	0.66810 0.57310 0.91120 -0.27800
H 	H 	0.61930 0.55100 0.92560 0.12700
C 	C 	0.82540 0.58221 0.81159 0.53900
O 	O 	0.65640 0.35741 0.44334 -0.23900
C 	C 	0.52860 0.35850 0.50108 -0.00700
O 	O 	0.85610 0.24089 0.29555 -0.60300
C 	C 	0.58660 0.32768 0.46919 0.03300
H 	H 	0.52010 0.31100 0.45450 0.02800
H 	H 	0.64250 0.30370 0.48120 0.03400
O 	O 	0.96610 0.30789 0.29065 -0.60600
C 	C 	0.62490 0.38927 0.52211 0.03300
H 	H 	0.58350 0.40820 0.54280 0.03300
H 	H 	0.66450 0.41130 0.50320 0.03800
O 	O 	0.71790 0.35930 0.53918 -0.24600
C 	C 	0.46730 0.32415 0.53013 0.03400
H 	H 	0.53200 0.30380 0.54240 0.02800
H 	H 	0.40680 0.30350 0.51630 0.03400
O 	O 	0.96420 0.36847 0.70618 -0.62700
C 	C 	0.43610 0.39332 0.48296 0.03500
H 	H 	0.48020 0.41430 0.46420 0.02900
H 	H 	0.39870 0.41330 0.50370 0.03800
O 	O 	0.89500 0.44203 0.70260 -0.64500
C 	C 	0.70780 0.33658 0.41041 0.26700
O 	O 	0.40410 0.35121 0.55962 -0.24300
C 	C 	0.69040 0.28978 0.39963 -0.26400
H 	H 	0.64030 0.26940 0.41530 0.11900
O 	O 	0.10920 0.28770 0.71048 -0.61800
C 	C 	0.74660 0.27319 0.36586 0.16700
H 	H 	0.73260 0.24130 0.35800 -0.01500
O 	O 	0.22320 0.22283 0.70371 -0.60300
C 	C 	0.82270 0.30178 0.34317 -0.23900
O 	O 	0.34000 0.36759 0.46309 -0.24700
C 	C 	0.84050 0.34845 0.35436 0.16300
H 	H 	0.89350 0.36830 0.33910 -0.01100
O 	O 	0.20080 0.45826 0.29828 -0.62400
C 	C 	0.78250 0.36663 0.38728 -0.25000
H 	H 	0.79290 0.39900 0.39420 0.12800
O 	O 	0.11670 0.38687 0.29323 -0.64200
C 	C 	0.88600 0.28153 0.30705 0.51700
C 	C 	0.76930 0.37329 0.57403 0.29600
C 	C 	0.82770 0.33752 0.59502 -0.28100
H 	H 	0.83300 0.30640 0.58450 0.13900
C 	C 	0.87860 0.34773 0.63174 0.20100
H 	H 	0.91980 0.32350 0.64610 -0.03500
O 	O 	0.61110 0.48920 0.77050 -0.21900
C 	C 	0.86980 0.39243 0.64739 -0.29400
O 	O 	0.66270 0.44530 0.72580 -0.29200
C 	C 	0.81770 0.42827 0.62522 0.20800
H 	H 	0.81610 0.45960 0.63530 -0.02500
C 	C 	0.76740 0.41931 0.58824 -0.28800
H 	H 	0.73240 0.44420 0.57310 0.13200
C 	C 	0.91140 0.40173 0.68875 0.57700
C 	C 	0.35670 0.32735 0.59121 0.27900
C 	C 	0.37660 0.27977 0.59906 -0.27000
H 	H 	0.42520 0.26100 0.58160 0.12100
C 	C 	0.32490 0.25978 0.63263 0.17800
H 	H 	0.34140 0.22750 0.63840 -0.01900
C 	C 	0.25050 0.28554 0.65773 -0.25200
C 	C 	0.22810 0.33312 0.64879 0.17500
H 	H 	0.17510 0.35130 0.66540 -0.00700
C 	C 	0.28160 0.35401 0.61647 -0.26000
H 	H 	0.26750 0.38660 0.61130 0.13500
C 	C 	0.19030 0.26338 0.69303 0.53600
C 	C 	0.30160 0.38338 0.42725 0.29100
C 	C 	0.22680 0.35187 0.40676 -0.27600
H 	H 	0.20460 0.32240 0.41830 0.13800
C 	C 	0.18430 0.36295 0.36966 0.18500
H 	H 	0.13250 0.34130 0.35590 -0.02800
C 	C 	0.21730 0.40588 0.35237 -0.27300
C 	C 	0.28950 0.43768 0.37353 0.18500
H 	H 	0.31050 0.46740 0.36220 -0.01200
C 	C 	0.33190 0.42690 0.41120 -0.27800
H 	H 	0.38070 0.44900 0.42560 0.12700
C 	C 	0.17460 0.41779 0.31159 0.53900
O 	O 	0.65640 0.14259 0.55666 -0.23900
C 	C 	0.52860 0.14150 0.49892 -0.00700
O 	O 	0.85610 0.25911 0.70445 -0.60300
C 	C 	0.58660 0.17232 0.53081 0.03300
H 	H 	0.52010 0.18900 0.54550 0.02800
H 	H 	0.64250 0.19630 0.51880 0.03400
O 	O 	0.96610 0.19211 0.70935 -0.60600
C 	C 	0.62490 0.11073 0.47789 0.03300
H 	H 	0.58350 0.09180 0.45720 0.03300
H 	H 	0.66450 0.08870 0.49680 0.03800
O 	O 	0.71790 0.14070 0.46082 -0.24600
C 	C 	0.46730 0.17585 0.46987 0.03400
H 	H 	0.53200 0.19620 0.45760 0.02800
H 	H 	0.40680 0.19650 0.48370 0.03400
O 	O 	0.96420 0.13153 0.29382 -0.62700
C 	C 	0.43610 0.10668 0.51704 0.03500
H 	H 	0.48020 0.08570 0.53580 0.02900
H 	H 	0.39870 0.08670 0.49630 0.03900
O 	O 	0.89500 0.05797 0.29740 -0.64500
C 	C 	0.70780 0.16342 0.58959 0.26700
O 	O 	0.40410 0.14879 0.44038 -0.24300
C 	C 	0.69040 0.21022 0.60037 -0.26400
H 	H 	0.64030 0.23060 0.58470 0.11900
O 	O 	0.10920 0.21230 0.28952 -0.61800
C 	C 	0.74660 0.22681 0.63414 0.16700
H 	H 	0.73260 0.25870 0.64200 -0.01500
O 	O 	0.22320 0.27717 0.29629 -0.60300
C 	C 	0.82270 0.19822 0.65683 -0.23900
O 	O 	0.34000 0.13241 0.53691 -0.24700
C 	C 	0.84050 0.15155 0.64564 0.16300
H 	H 	0.89350 0.13170 0.66090 -0.01100
O 	O 	0.20080 0.04174 0.70172 -0.62400
C 	C 	0.78250 0.13337 0.61272 -0.25000
H 	H 	0.79290 0.10100 0.60580 0.12700
O 	O 	0.11670 0.11313 0.70677 -0.64200
C 	C 	0.88600 0.21847 0.69295 0.51700
C 	C 	0.76930 0.12671 0.42597 0.29600
C 	C 	0.82770 0.16248 0.40498 -0.28100
H 	H 	0.83300 0.19360 0.41550 0.13900
C 	C 	0.87860 0.15227 0.36826 0.20100
H 	H 	0.91980 0.17650 0.35390 -0.03500
O 	O 	0.61110 0.01080 0.22950 -0.21900
C 	C 	0.86980 0.10757 0.35261 -0.29400
O 	O 	0.66270 0.05470 0.27420 -0.29200
C 	C 	0.81770 0.07173 0.37478 0.20800
H 	H 	0.81610 0.04040 0.36470 -0.02500
C 	C 	0.76740 0.08069 0.41176 -0.28800
H 	H 	0.73240 0.05580 0.42690 0.13200
C 	C 	0.91140 0.09827 0.31125 0.57700
C 	C 	0.35670 0.17265 0.40879 0.27900
C 	C 	0.37660 0.22023 0.40094 -0.27000
H 	H 	0.42520 0.23900 0.41840 0.12100
C 	C 	0.32490 0.24022 0.36737 0.17800
H 	H 	0.34140 0.27250 0.36160 -0.01900
C 	C 	0.25050 0.21446 0.34227 -0.25200
C 	C 	0.22810 0.16688 0.35121 0.17500
H 	H 	0.17510 0.14870 0.33460 -0.00700
C 	C 	0.28160 0.14599 0.38353 -0.26000
H 	H 	0.26750 0.11340 0.38870 0.13500
C 	C 	0.19030 0.23662 0.30697 0.53600
C 	C 	0.30160 0.11662 0.57275 0.29100
C 	C 	0.22680 0.14813 0.59324 -0.27600
H 	H 	0.20460 0.17760 0.58170 0.13800
C 	C 	0.18430 0.13705 0.63034 0.18500
H 	H 	0.13250 0.15870 0.64410 -0.02800
C 	C 	0.21730 0.09412 0.64763 -0.27300
C 	C 	0.28950 0.06232 0.62647 0.18500
H 	H 	0.31050 0.03260 0.63780 -0.01200
C 	C 	0.33190 0.07310 0.58880 -0.27800
H 	H 	0.38070 0.05100 0.57440 0.12700
C 	C 	0.17460 0.08221 0.68841 0.53900
O 	O 	0.34360 0.85741 0.05666 -0.23900
C 	C 	0.47140 0.85850 0.99892 -0.00800
O 	O 	0.14390 0.74089 0.20445 -0.60300
C 	C 	0.41340 0.82768 0.03081 0.03400
H 	H 	0.47990 0.81100 0.04550 0.02800
H 	H 	0.35750 0.80370 0.01880 0.03400
O 	O 	0.03390 0.80789 0.20935 -0.60600
C 	C 	0.37510 0.88927 0.97789 0.03300
H 	H 	0.41650 0.90820 0.95720 0.03200
H 	H 	0.33550 0.91130 0.99680 0.03800
O 	O 	0.28210 0.85930 0.96082 -0.24700
C 	C 	0.53270 0.82415 0.96987 0.03500
H 	H 	0.46800 0.80380 0.95760 0.02800
H 	H 	0.59320 0.80350 0.98370 0.03400
O 	O 	0.03580 0.86847 0.79382 -0.62700
C 	C 	0.56390 0.89332 0.01704 0.03600
H 	H 	0.51980 0.91430 0.03580 0.02900
H 	H 	0.60130 0.91330 0.99630 0.03800
O 	O 	0.10500 0.94203 0.79740 -0.64500
C 	C 	0.29220 0.83658 0.08959 0.26700
O 	O 	0.59590 0.85121 0.94038 -0.24300
C 	C 	0.30960 0.78978 0.10037 -0.26400
H 	H 	0.35970 0.76940 0.08470 0.11900
O 	O 	0.89080 0.78770 0.78952 -0.61800
C 	C 	0.25340 0.77319 0.13414 0.16700
H 	H 	0.26740 0.74130 0.14200 -0.01500
O 	O 	0.77680 0.72283 0.79629 -0.60300
C 	C 	0.17730 0.80178 0.15683 -0.23900
O 	O 	0.66000 0.86759 0.03691 -0.24700
C 	C 	0.15950 0.84845 0.14564 0.16300
H 	H 	0.10650 0.86830 0.16090 -0.01100
O 	O 	0.79920 0.95826 0.20172 -0.62300
C 	C 	0.21750 0.86663 0.11272 -0.25000
H 	H 	0.20710 0.89900 0.10580 0.12800
O 	O 	0.88330 0.88687 0.20677 -0.64200
C 	C 	0.11400 0.78153 0.19295 0.51700
C 	C 	0.23070 0.87329 0.92597 0.29600
C 	C 	0.17230 0.83752 0.90498 -0.28100
H 	H 	0.16700 0.80640 0.91550 0.13900
C 	C 	0.12140 0.84773 0.86826 0.20100
H 	H 	0.08020 0.82350 0.85390 -0.03500
O 	O 	0.38890 0.98920 0.72950 -0.21900
C 	C 	0.13020 0.89243 0.85261 -0.29400
O 	O 	0.33730 0.94530 0.77420 -0.29200
C 	C 	0.18230 0.92827 0.87478 0.20800
H 	H 	0.18390 0.95960 0.86470 -0.02500
C 	C 	0.23260 0.91931 0.91176 -0.28800
H 	H 	0.26760 0.94420 0.92690 0.13200
C 	C 	0.08860 0.90173 0.81125 0.57700
C 	C 	0.64330 0.82735 0.90879 0.27900
C 	C 	0.62340 0.77977 0.90094 -0.27000
H 	H 	0.57480 0.76100 0.91840 0.12100
C 	C 	0.67510 0.75978 0.86737 0.17800
H 	H 	0.65860 0.72750 0.86160 -0.01900
C 	C 	0.74950 0.78554 0.84227 -0.25200
C 	C 	0.77190 0.83312 0.85121 0.17500
H 	H 	0.82490 0.85130 0.83460 -0.00700
C 	C 	0.71840 0.85401 0.88353 -0.26000
H 	H 	0.73250 0.88660 0.88870 0.13500
C 	C 	0.80970 0.76338 0.80697 0.53600
C 	C 	0.69840 0.88338 0.07275 0.29100
C 	C 	0.77320 0.85187 0.09324 -0.27600
H 	H 	0.79540 0.82240 0.08170 0.13800
C 	C 	0.81570 0.86295 0.13034 0.18500
H 	H 	0.86750 0.84130 0.14410 -0.02800
C 	C 	0.78270 0.90588 0.14763 -0.27300
C 	C 	0.71050 0.93768 0.12647 0.18500
H 	H 	0.68950 0.96740 0.13780 -0.01200
C 	C 	0.66810 0.92690 0.08880 -0.27800
H 	H 	0.61930 0.94900 0.07440 0.12700
C 	C 	0.82540 0.91779 0.18841 0.53900
Y 	Y 	0.94871 0.19161 0.25000 2.39100
Y 	Y 	0.12830 0.32601 0.25000 2.38800
Y 	Y 	0.05129 0.80839 0.75000 2.39100
Y 	Y 	0.87170 0.67399 0.75000 2.38800
Y 	Y 	0.05129 0.69161 0.25000 2.39100
Y 	Y 	0.87170 0.82601 0.25000 2.38800
Y 	Y 	0.94871 0.30839 0.75000 2.39100
Y 	Y 	0.12830 0.17399 0.75000 2.38800
Y 	Y 	0.83207 0.49018 0.75000 2.39500
N 	N 	0.59260 0.45950 0.75000 0.21800
O 	O 	0.47530 0.44730 0.75000 -0.11600
Y 	Y 	0.16793 0.50982 0.25000 2.39500
N 	N 	0.40740 0.54050 0.25000 0.21800
O 	O 	0.52470 0.55270 0.25000 -0.11600
Y 	Y 	0.16793 0.99018 0.75000 2.39500
N 	N 	0.40740 0.95950 0.75000 0.21800
O 	O 	0.52470 0.94730 0.75000 -0.11600
Y 	Y 	0.83207 0.00982 0.25000 2.39500
N 	N 	0.59260 0.04050 0.25000 0.21800
O 	O 	0.47530 0.05270 0.25000 -0.11600
