data_crystal

_cell_length_a 11.77500
_cell_length_b 16.11300
_cell_length_c 16.34600
_cell_angle_alpha 108.24400
_cell_angle_beta  101.66300
_cell_angle_gamma 102.55900

_symmetry_space_group_name_	'P 1'
_symmetry_space_group_name_H-M	'P 1'

loop_
_symmetry_equiv_pos_as_xyz
  x,y,z

loop_
_atom_site_label
_atom_site_type_symbol
_atom_site_fract_x
_atom_site_fract_y
_atom_site_fract_z
_atom_site_charge
Mn	Mn	0.18914 0.89525 0.39036 1.32700
O 	O 	0.48500 0.48812 0.16180 -0.24900
C 	C 	0.45640 0.33966 0.05618 -0.01500
O 	O 	0.47283 0.86937 0.41177 -0.44900
C 	C 	0.39800 0.41305 0.09817 0.06000
H 	H 	0.35440 0.43030 0.05070 0.01000
H 	H 	0.33820 0.38790 0.12570 0.03200
O 	O 	0.27732 0.81304 0.32933 -0.47100
C 	C 	0.45130 0.56513 0.19880 0.27000
O 	O 	0.67441 0.40528 0.12362 -0.24600
C 	C 	0.54660 0.63890 0.25840 -0.25100
H 	H 	0.62740 0.63520 0.26830 0.13500
O 	O 	0.02853 0.81445 0.28002 -0.38000
O 	O 	0.06102 0.77904 0.39942 -0.36800
C 	C 	0.40730 0.72468 0.29357 -0.19500
O 	O 	0.41267 0.20664 0.92573 -0.24800
C 	C 	0.31180 0.65030 0.23233 0.14700
H 	H 	0.23100 0.65380 0.22330 0.00300
O 	O 	0.31788 0.95770 0.51864 -0.53600
C 	C 	0.33320 0.57033 0.18380 -0.25100
H 	H 	0.26760 0.51980 0.14080 0.11800
O 	O 	0.14208 0.98341 0.50798 -0.36200
C 	C 	0.38490 0.81021 0.34962 0.43500
O 	O 	0.35888 0.23414 0.11532 -0.24400
C 	C 	0.57830 0.38177 0.04456 0.04700
H 	H 	0.59270 0.33750 0.99310 0.03800
H 	H 	0.57640 0.43730 0.03110 0.02900
O 	O 	0.22539 0.99839 0.34592 -0.40500
C 	C 	0.75110 0.49254 0.16713 0.27900
O 	O 	0.42798 0.04001 0.39641 -0.46900
C 	C 	0.78570 0.55092 0.12457 -0.25200
H 	H 	0.75380 0.53180 0.06120 0.11800
C 	C 	0.86660 0.63703 0.17378 0.12800
H 	H 	0.88930 0.67720 0.14400 0.00000
C 	C 	0.91520 0.66578 0.26591 -0.16700
C 	C 	0.88260 0.60589 0.30788 0.12500
H 	H 	0.91670 0.62400 0.37100 0.01000
C 	C 	0.80060 0.51951 0.25840 -0.24200
H 	H 	0.77850 0.47870 0.28780 0.12800
C 	C 	0.00590 0.75844 0.31817 0.33100
C 	C 	0.36730 0.28085 0.96340 0.02800
H 	H 	0.28520 0.25730 0.96860 0.03700
H 	H 	0.36220 0.31730 0.92480 0.02500
C 	C 	0.36410 0.15509 0.83597 0.28500
C 	C 	0.43250 0.10170 0.79851 -0.27200
H 	H 	0.50570 0.10130 0.83540 0.13000
C 	C 	0.39380 0.04945 0.70768 0.17600
H 	H 	0.44120 0.01380 0.68180 -0.03300
C 	C 	0.28590 0.04870 0.65383 -0.26000
C 	C 	0.21600 0.09967 0.69262 0.18000
H 	H 	0.14040 0.09730 0.65630 -0.01300
C 	C 	0.25500 0.15402 0.78368 -0.27800
H 	H 	0.20780 0.18980 0.80970 0.13800
C 	C 	0.24680 0.99451 0.55544 0.43800
C 	C 	0.47450 0.28245 0.11355 0.03900
H 	H 	0.51690 0.23840 0.08800 0.04500
H 	H 	0.52510 0.32280 0.17560 0.04400
C 	C 	0.35860 0.18661 0.17142 0.26900
C 	C 	0.24580 0.14092 0.17276 -0.25000
H 	H 	0.17440 0.14290 0.13510 0.12600
C 	C 	0.23630 0.09262 0.22814 0.13800
H 	H 	0.15800 0.06070 0.22770 -0.00800
C 	C 	0.33950 0.08960 0.28500 -0.18900
C 	C 	0.45100 0.13523 0.28256 0.13800
H 	H 	0.52240 0.13340 0.32040 -0.00400
C 	C 	0.46280 0.18390 0.22667 -0.25200
H 	H 	0.54100 0.21490 0.22620 0.11900
C 	C 	0.33110 0.03895 0.34763 0.36300
C 	C 	0.52400 0.71879 0.30390 0.15000
H 	H 	0.59050 0.77080 0.34330 0.00400
Mn	Mn	0.81086 0.10475 0.60964 1.32500
O 	O 	0.51500 0.51188 0.83820 -0.24900
C 	C 	0.54360 0.66034 0.94382 -0.01100
O 	O 	0.52717 0.13063 0.58823 -0.47400
C 	C 	0.60200 0.58695 0.90183 0.05800
H 	H 	0.64560 0.56970 0.94930 0.00900
H 	H 	0.66180 0.61210 0.87430 0.03300
O 	O 	0.72268 0.18696 0.67067 -0.48200
C 	C 	0.54870 0.43487 0.80120 0.27200
O 	O 	0.32559 0.59472 0.87638 -0.24000
C 	C 	0.45340 0.36110 0.74160 -0.25500
H 	H 	0.37260 0.36480 0.73170 0.13500
O 	O 	0.97147 0.18555 0.71998 -0.39000
O 	O 	0.93898 0.22096 0.60058 -0.37600
C 	C 	0.59270 0.27532 0.70643 -0.20300
O 	O 	0.58733 0.79336 0.07427 -0.22800
C 	C 	0.68820 0.34970 0.76767 0.15000
H 	H 	0.76900 0.34620 0.77670 -0.00200
O 	O 	0.68212 0.04230 0.48136 -0.54100
C 	C 	0.66680 0.42967 0.81620 -0.25500
H 	H 	0.73240 0.48020 0.85920 0.11900
O 	O 	0.85792 0.01659 0.49202 -0.37300
C 	C 	0.61510 0.18979 0.65038 0.43900
O 	O 	0.64112 0.76586 0.88468 -0.24200
C 	C 	0.42170 0.61823 0.95544 0.03200
H 	H 	0.40730 0.66250 0.00690 0.04900
H 	H 	0.42360 0.56270 0.96890 0.03200
O 	O 	0.77461 0.00161 0.65408 -0.51500
C 	C 	0.24890 0.50746 0.83287 0.27600
O 	O 	0.57202 0.95999 0.60359 -0.45300
C 	C 	0.21430 0.44908 0.87543 -0.24800
H 	H 	0.24620 0.46820 0.93880 0.11600
C 	C 	0.13340 0.36297 0.82622 0.12400
H 	H 	0.11070 0.32280 0.85600 -0.00000
C 	C 	0.08480 0.33422 0.73409 -0.15900
C 	C 	0.11740 0.39411 0.69212 0.12100
H 	H 	0.08330 0.37600 0.62900 0.01100
C 	C 	0.19940 0.48049 0.74160 -0.23800
H 	H 	0.22150 0.52130 0.71220 0.12900
C 	C 	0.99410 0.24156 0.68183 0.32400
C 	C 	0.63270 0.71915 0.03660 0.02200
H 	H 	0.71480 0.74270 0.03140 0.04500
H 	H 	0.63780 0.68270 0.07520 0.02800
C 	C 	0.63590 0.84491 0.16403 0.24400
C 	C 	0.56750 0.89830 0.20149 -0.19900
H 	H 	0.49430 0.89870 0.16460 0.12500
C 	C 	0.60620 0.95055 0.29232 0.08900
H 	H 	0.55880 0.98620 0.31820 0.03700
C 	C 	0.71410 0.95130 0.34617 -0.10200
C 	C 	0.78400 0.90033 0.30738 0.09700
H 	H 	0.85960 0.90270 0.34370 0.03200
C 	C 	0.74500 0.84598 0.21632 -0.21000
H 	H 	0.79220 0.81020 0.19030 0.11900
C 	C 	0.75320 0.00549 0.44456 0.30900
C 	C 	0.52550 0.71755 0.88645 0.03400
H 	H 	0.48310 0.76160 0.91200 0.05200
H 	H 	0.47490 0.67720 0.82440 0.04600
C 	C 	0.64140 0.81339 0.82858 0.28600
C 	C 	0.75420 0.85908 0.82724 -0.26000
H 	H 	0.82560 0.85710 0.86490 0.14100
C 	C 	0.76370 0.90738 0.77186 0.17100
H 	H 	0.84200 0.93930 0.77230 0.00900
C 	C 	0.66050 0.91040 0.71500 -0.21400
C 	C 	0.54900 0.86477 0.71744 0.16800
H 	H 	0.47760 0.86660 0.67960 0.00100
C 	C 	0.53720 0.81610 0.77333 -0.26100
H 	H 	0.45900 0.78510 0.77380 0.13000
C 	C 	0.66890 0.96105 0.65237 0.49100
C 	C 	0.47600 0.28121 0.69610 0.15600
H 	H 	0.40950 0.22920 0.65670 -0.00300
Mn	Mn	0.50000 0.00000 0.50000 1.31400
