data_crystal

_cell_length_a 10.70290
_cell_length_b 28.17600
_cell_length_c 34.01400
_cell_angle_alpha 90.00000
_cell_angle_beta  90.00000
_cell_angle_gamma 90.00000

_symmetry_space_group_name_	'P 1'
_symmetry_space_group_name_H-M	'P 1'

loop_
_symmetry_equiv_pos_as_xyz
  x,y,z

loop_
_atom_site_label
_atom_site_type_symbol
_atom_site_fract_x
_atom_site_fract_y
_atom_site_fract_z
_atom_site_charge
O 	O 	0.32370 0.35770 0.55644 -0.24100
O 	O 	0.12780 0.24060 0.70413 -0.54200
O 	O 	0.01600 0.30660 0.70909 -0.53600
O 	O 	0.26760 0.36090 0.46040 -0.24800
O 	O 	0.01690 0.13030 0.70644 -0.53500
O 	O 	0.07720 0.05560 0.70250 -0.50600
O 	O 	0.57870 0.35200 0.44060 -0.24100
O 	O 	0.87440 0.21240 0.71000 -0.54000
O 	O 	0.75670 0.27720 0.70341 -0.52600
O 	O 	0.64370 0.36690 0.53748 -0.24300
O 	O 	0.20240 0.96070 0.79960 -0.50000
O 	O 	0.87110 0.38820 0.70735 -0.52100
C 	C 	0.45430 0.35980 0.49920 -0.00200
C 	C 	0.39530 0.32850 0.53070 0.03100
H 	H 	0.34070 0.30450 0.51820 0.03400
H 	H 	0.46120 0.31180 0.54570 0.03000
C 	C 	0.35820 0.39130 0.47800 0.03200
H 	H 	0.31740 0.41300 0.49700 0.04000
H 	H 	0.40000 0.41070 0.45760 0.03300
C 	C 	0.51470 0.32500 0.46990 0.03200
H 	H 	0.57430 0.30390 0.48370 0.03500
H 	H 	0.44960 0.30500 0.45740 0.02900
C 	C 	0.54710 0.39440 0.51770 0.02000
H 	H 	0.58500 0.41460 0.49710 0.04300
H 	H 	0.50380 0.41510 0.53680 0.03500
C 	C 	0.27240 0.33680 0.58920 0.27500
C 	C 	0.29020 0.28980 0.59970 -0.26100
H 	H 	0.33930 0.26950 0.58360 0.11800
C 	C 	0.23580 0.27240 0.63400 0.16100
H 	H 	0.25160 0.24070 0.64200 -0.01400
C 	C 	0.15830 0.30130 0.65660 -0.23700
C 	C 	0.14220 0.34850 0.64600 0.16800
H 	H 	0.09170 0.36880 0.66170 -0.00200
C 	C 	0.19950 0.36610 0.61260 -0.25600
H 	H 	0.18880 0.39850 0.60560 0.13600
C 	C 	0.09590 0.28110 0.69320 0.53300
C 	C 	0.21480 0.37520 0.42550 0.30200
C 	C 	0.15420 0.33940 0.40460 -0.29500
H 	H 	0.14790 0.30840 0.41550 0.14300
C 	C 	0.10390 0.34900 0.36850 0.21600
H 	H 	0.06190 0.32470 0.35440 -0.03900
C 	C 	0.11380 0.39400 0.35240 -0.29300
C 	C 	0.16590 0.43000 0.37430 0.21500
H 	H 	0.16740 0.46140 0.36410 -0.02800
C 	C 	0.21620 0.42080 0.41110 -0.29800
H 	H 	0.25130 0.44580 0.42630 0.13500
C 	C 	0.06760 0.09690 0.68850 0.55700
C 	C 	0.62580 0.32790 0.40870 0.27800
C 	C 	0.60200 0.28040 0.40060 -0.26500
H 	H 	0.55170 0.26200 0.41790 0.11900
C 	C 	0.65290 0.26030 0.36700 0.17000
H 	H 	0.63400 0.22830 0.36060 -0.01600
C 	C 	0.73070 0.28630 0.34280 -0.24400
C 	C 	0.75360 0.33330 0.35140 0.18300
H 	H 	0.80640 0.35140 0.33470 -0.00400
C 	C 	0.70140 0.35420 0.38360 -0.26600
H 	H 	0.71670 0.38680 0.38890 0.14100
C 	C 	0.79110 0.23620 0.69310 0.51600
C 	C 	0.68510 0.38280 0.57270 0.28100
C 	C 	0.75700 0.35070 0.59380 -0.26900
H 	H 	0.77680 0.32050 0.58290 0.13500
C 	C 	0.79950 0.36300 0.63100 0.18300
H 	H 	0.84710 0.34080 0.64570 -0.02700
C 	C 	0.77380 0.40710 0.64700 -0.25900
C 	C 	0.70530 0.43960 0.62530 0.17300
H 	H 	0.68860 0.47010 0.63600 -0.01000
C 	C 	0.66020 0.42810 0.58780 -0.26100
H 	H 	0.61370 0.45060 0.57290 0.12100
C 	C 	0.81690 0.41980 0.68780 0.53100
O 	O 	0.67630 0.64230 0.05644 -0.24000
O 	O 	0.87220 0.75940 0.20413 -0.54100
O 	O 	0.98400 0.69340 0.20909 -0.53500
O 	O 	0.73240 0.63910 0.96040 -0.24600
O 	O 	0.98310 0.86970 0.20644 -0.53400
O 	O 	0.92280 0.94440 0.20250 -0.50500
O 	O 	0.42130 0.64800 0.94060 -0.24000
O 	O 	0.12560 0.78760 0.21000 -0.53900
O 	O 	0.24330 0.72280 0.20341 -0.52500
O 	O 	0.35630 0.63310 0.03748 -0.24200
O 	O 	0.79760 0.03930 0.29960 -0.49900
O 	O 	0.12890 0.61180 0.20735 -0.52000
C 	C 	0.54570 0.64020 0.99920 -0.00000
C 	C 	0.60470 0.67150 0.03070 0.03200
H 	H 	0.65930 0.69550 0.01820 0.03400
H 	H 	0.53880 0.68820 0.04570 0.03000
C 	C 	0.64180 0.60870 0.97800 0.03100
H 	H 	0.68260 0.58700 0.99700 0.04000
H 	H 	0.60000 0.58930 0.95760 0.03300
C 	C 	0.48530 0.67500 0.96990 0.03100
H 	H 	0.42570 0.69610 0.98370 0.03500
H 	H 	0.55040 0.69500 0.95740 0.02900
C 	C 	0.45290 0.60560 0.01770 0.02000
H 	H 	0.41500 0.58540 0.99710 0.04300
H 	H 	0.49620 0.58490 0.03680 0.03500
C 	C 	0.72760 0.66320 0.08920 0.27500
C 	C 	0.70980 0.71020 0.09970 -0.26100
H 	H 	0.66070 0.73050 0.08360 0.11800
C 	C 	0.76420 0.72760 0.13400 0.16100
H 	H 	0.74840 0.75930 0.14200 -0.01400
C 	C 	0.84170 0.69870 0.15660 -0.23700
C 	C 	0.85780 0.65150 0.14600 0.16800
H 	H 	0.90830 0.63120 0.16170 -0.00200
C 	C 	0.80050 0.63390 0.11260 -0.25600
H 	H 	0.81120 0.60150 0.10560 0.13600
C 	C 	0.90410 0.71890 0.19320 0.53300
C 	C 	0.78520 0.62480 0.92550 0.30200
C 	C 	0.84580 0.66060 0.90460 -0.29500
H 	H 	0.85210 0.69160 0.91550 0.14300
C 	C 	0.89610 0.65100 0.86850 0.21600
H 	H 	0.93810 0.67530 0.85440 -0.03900
C 	C 	0.88620 0.60600 0.85240 -0.29300
C 	C 	0.83410 0.57000 0.87430 0.21500
H 	H 	0.83260 0.53860 0.86410 -0.02800
C 	C 	0.78380 0.57920 0.91110 -0.29800
H 	H 	0.74870 0.55420 0.92630 0.13500
C 	C 	0.93240 0.90310 0.18850 0.55700
C 	C 	0.37420 0.67210 0.90870 0.27800
C 	C 	0.39800 0.71960 0.90060 -0.26500
H 	H 	0.44830 0.73800 0.91790 0.11900
C 	C 	0.34710 0.73970 0.86700 0.17000
H 	H 	0.36600 0.77170 0.86060 -0.01600
C 	C 	0.26930 0.71370 0.84280 -0.24400
C 	C 	0.24640 0.66670 0.85140 0.18300
H 	H 	0.19360 0.64860 0.83470 -0.00400
C 	C 	0.29860 0.64580 0.88360 -0.26600
H 	H 	0.28330 0.61320 0.88890 0.14100
C 	C 	0.20890 0.76380 0.19310 0.51600
C 	C 	0.31490 0.61720 0.07270 0.28100
C 	C 	0.24300 0.64930 0.09380 -0.26900
H 	H 	0.22320 0.67950 0.08290 0.13500
C 	C 	0.20050 0.63700 0.13100 0.18300
H 	H 	0.15290 0.65920 0.14570 -0.02700
C 	C 	0.22620 0.59290 0.14700 -0.25900
C 	C 	0.29470 0.56040 0.12530 0.17300
H 	H 	0.31140 0.52990 0.13600 -0.01000
C 	C 	0.33980 0.57190 0.08780 -0.26100
H 	H 	0.38630 0.54940 0.07290 0.12100
C 	C 	0.18310 0.58020 0.18780 0.53100
O 	O 	0.67630 0.85770 0.94356 -0.24100
O 	O 	0.87220 0.74060 0.79587 -0.54100
O 	O 	0.98400 0.80660 0.79091 -0.53500
O 	O 	0.73240 0.86090 0.03960 -0.24700
O 	O 	0.98310 0.63030 0.79356 -0.53400
O 	O 	0.92280 0.55560 0.79750 -0.50500
O 	O 	0.42130 0.85200 0.05940 -0.24000
O 	O 	0.12560 0.71240 0.79000 -0.53900
O 	O 	0.24330 0.77720 0.79659 -0.52500
O 	O 	0.35630 0.86690 0.96252 -0.24200
O 	O 	0.79760 0.46070 0.70040 -0.49900
O 	O 	0.12890 0.88820 0.79265 -0.51900
C 	C 	0.54570 0.85980 0.00080 -0.00100
C 	C 	0.60470 0.82850 0.96930 0.03300
H 	H 	0.65930 0.80450 0.98180 0.03400
H 	H 	0.53880 0.81180 0.95430 0.02900
C 	C 	0.64180 0.89130 0.02200 0.03200
H 	H 	0.68260 0.91300 0.00300 0.03900
H 	H 	0.60000 0.91070 0.04240 0.03200
C 	C 	0.48530 0.82500 0.03010 0.03200
H 	H 	0.42570 0.80390 0.01630 0.03500
H 	H 	0.55040 0.80500 0.04260 0.02900
C 	C 	0.45290 0.89440 0.98230 0.02100
H 	H 	0.41500 0.91460 0.00290 0.04200
H 	H 	0.49620 0.91510 0.96320 0.03400
C 	C 	0.72760 0.83680 0.91080 0.27500
C 	C 	0.70980 0.78980 0.90030 -0.26100
H 	H 	0.66070 0.76950 0.91640 0.11800
C 	C 	0.76420 0.77240 0.86600 0.16100
H 	H 	0.74840 0.74070 0.85800 -0.01400
C 	C 	0.84170 0.80130 0.84340 -0.23700
C 	C 	0.85780 0.84850 0.85400 0.16800
H 	H 	0.90830 0.86880 0.83830 -0.00300
C 	C 	0.80050 0.86610 0.88740 -0.25600
H 	H 	0.81120 0.89850 0.89440 0.13600
C 	C 	0.90410 0.78110 0.80680 0.53400
C 	C 	0.78520 0.87520 0.07450 0.30200
C 	C 	0.84580 0.83940 0.09540 -0.29500
H 	H 	0.85210 0.80840 0.08450 0.14300
C 	C 	0.89610 0.84900 0.13150 0.21600
H 	H 	0.93810 0.82470 0.14560 -0.03900
C 	C 	0.88620 0.89400 0.14760 -0.29300
C 	C 	0.83410 0.93000 0.12570 0.21500
H 	H 	0.83260 0.96140 0.13590 -0.02800
C 	C 	0.78380 0.92080 0.08890 -0.29900
H 	H 	0.74870 0.94580 0.07370 0.13500
C 	C 	0.93240 0.59690 0.81150 0.55700
C 	C 	0.37420 0.82790 0.09130 0.27800
C 	C 	0.39800 0.78040 0.09940 -0.26500
H 	H 	0.44830 0.76200 0.08210 0.11900
C 	C 	0.34710 0.76030 0.13300 0.17000
H 	H 	0.36600 0.72830 0.13940 -0.01600
C 	C 	0.26930 0.78630 0.15720 -0.24400
C 	C 	0.24640 0.83330 0.14860 0.18300
H 	H 	0.19360 0.85140 0.16530 -0.00400
C 	C 	0.29860 0.85420 0.11640 -0.26600
H 	H 	0.28330 0.88680 0.11110 0.14200
C 	C 	0.20890 0.73620 0.80690 0.51600
C 	C 	0.31490 0.88280 0.92730 0.28100
C 	C 	0.24300 0.85070 0.90620 -0.26900
H 	H 	0.22320 0.82050 0.91710 0.13500
C 	C 	0.20050 0.86300 0.86900 0.18300
H 	H 	0.15290 0.84080 0.85430 -0.02700
C 	C 	0.22620 0.90710 0.85300 -0.25900
C 	C 	0.29470 0.93960 0.87470 0.17300
H 	H 	0.31140 0.97010 0.86400 -0.01000
C 	C 	0.33980 0.92810 0.91220 -0.26100
H 	H 	0.38630 0.95060 0.92710 0.12200
C 	C 	0.18310 0.91980 0.81220 0.53100
O 	O 	0.32370 0.14230 0.44356 -0.24000
O 	O 	0.12780 0.25940 0.29587 -0.54100
O 	O 	0.01600 0.19340 0.29091 -0.53500
O 	O 	0.26760 0.13910 0.53960 -0.24700
O 	O 	0.01690 0.36970 0.29356 -0.53400
O 	O 	0.07720 0.44440 0.29750 -0.50500
O 	O 	0.57870 0.14800 0.55940 -0.24000
O 	O 	0.87440 0.28760 0.29000 -0.53900
O 	O 	0.75670 0.22280 0.29659 -0.52500
O 	O 	0.64370 0.13310 0.46252 -0.24200
O 	O 	0.20240 0.53930 0.20040 -0.49900
O 	O 	0.87110 0.11180 0.29265 -0.51900
C 	C 	0.45430 0.14020 0.50080 -0.00100
C 	C 	0.39530 0.17150 0.46930 0.03200
H 	H 	0.34070 0.19550 0.48180 0.03400
H 	H 	0.46120 0.18820 0.45430 0.03000
C 	C 	0.35820 0.10870 0.52200 0.03200
H 	H 	0.31740 0.08700 0.50300 0.04000
H 	H 	0.40000 0.08930 0.54240 0.03300
C 	C 	0.51470 0.17500 0.53010 0.03200
H 	H 	0.57430 0.19610 0.51630 0.03500
H 	H 	0.44960 0.19500 0.54260 0.02900
C 	C 	0.54710 0.10560 0.48230 0.02000
H 	H 	0.58500 0.08540 0.50290 0.04300
H 	H 	0.50380 0.08490 0.46320 0.03500
C 	C 	0.27240 0.16320 0.41080 0.27500
C 	C 	0.29020 0.21020 0.40030 -0.26100
H 	H 	0.33930 0.23050 0.41640 0.11800
C 	C 	0.23580 0.22760 0.36600 0.16100
H 	H 	0.25160 0.25930 0.35800 -0.01400
C 	C 	0.15830 0.19870 0.34340 -0.23700
C 	C 	0.14220 0.15150 0.35400 0.16800
H 	H 	0.09170 0.13120 0.33830 -0.00300
C 	C 	0.19950 0.13390 0.38740 -0.25600
H 	H 	0.18880 0.10150 0.39440 0.13600
C 	C 	0.09590 0.21890 0.30680 0.53400
C 	C 	0.21480 0.12480 0.57450 0.30200
C 	C 	0.15420 0.16060 0.59540 -0.29500
H 	H 	0.14790 0.19160 0.58450 0.14300
C 	C 	0.10390 0.15100 0.63150 0.21600
H 	H 	0.06190 0.17530 0.64560 -0.03900
C 	C 	0.11380 0.10600 0.64760 -0.29300
C 	C 	0.16590 0.07000 0.62570 0.21500
H 	H 	0.16740 0.03860 0.63590 -0.02800
C 	C 	0.21620 0.07920 0.58890 -0.29800
H 	H 	0.25130 0.05420 0.57370 0.13500
C 	C 	0.06760 0.40310 0.31150 0.55700
C 	C 	0.62580 0.17210 0.59130 0.27800
C 	C 	0.60200 0.21960 0.59940 -0.26500
H 	H 	0.55170 0.23800 0.58210 0.11900
C 	C 	0.65290 0.23970 0.63300 0.17000
H 	H 	0.63400 0.27170 0.63940 -0.01600
C 	C 	0.73070 0.21370 0.65720 -0.24400
C 	C 	0.75360 0.16670 0.64860 0.18300
H 	H 	0.80640 0.14860 0.66530 -0.00400
C 	C 	0.70140 0.14580 0.61640 -0.26600
H 	H 	0.71670 0.11320 0.61110 0.14200
C 	C 	0.79110 0.26380 0.30690 0.51600
C 	C 	0.68510 0.11720 0.42730 0.28100
C 	C 	0.75700 0.14930 0.40620 -0.26900
H 	H 	0.77680 0.17950 0.41710 0.13500
C 	C 	0.79950 0.13700 0.36900 0.18300
H 	H 	0.84710 0.15920 0.35430 -0.02700
C 	C 	0.77380 0.09290 0.35300 -0.25900
C 	C 	0.70530 0.06040 0.37470 0.17300
H 	H 	0.68860 0.02990 0.36400 -0.01000
C 	C 	0.66020 0.07190 0.41220 -0.26100
H 	H 	0.61370 0.04940 0.42710 0.12100
C 	C 	0.81690 0.08020 0.31220 0.53100
O 	O 	0.67630 0.64230 0.44356 -0.24000
O 	O 	0.87220 0.75940 0.29587 -0.54100
O 	O 	0.98400 0.69340 0.29091 -0.53500
O 	O 	0.73240 0.63910 0.53960 -0.24700
O 	O 	0.98310 0.86970 0.29356 -0.53400
O 	O 	0.92280 0.94440 0.29750 -0.50500
O 	O 	0.42130 0.64800 0.55940 -0.24000
O 	O 	0.12560 0.78760 0.29000 -0.53900
O 	O 	0.24330 0.72280 0.29659 -0.52500
O 	O 	0.35630 0.63310 0.46252 -0.24200
O 	O 	0.79760 0.03930 0.20040 -0.49900
O 	O 	0.12890 0.61180 0.29265 -0.52000
C 	C 	0.54570 0.64020 0.50080 -0.00100
C 	C 	0.60470 0.67150 0.46930 0.03200
H 	H 	0.65930 0.69550 0.48180 0.03400
H 	H 	0.53880 0.68820 0.45430 0.03000
C 	C 	0.64180 0.60870 0.52200 0.03200
H 	H 	0.68260 0.58700 0.50300 0.04000
H 	H 	0.60000 0.58930 0.54240 0.03300
C 	C 	0.48530 0.67500 0.53010 0.03200
H 	H 	0.42570 0.69610 0.51630 0.03500
H 	H 	0.55040 0.69500 0.54260 0.02900
C 	C 	0.45290 0.60560 0.48230 0.02000
H 	H 	0.41500 0.58540 0.50290 0.04300
H 	H 	0.49620 0.58490 0.46320 0.03500
C 	C 	0.72760 0.66320 0.41080 0.27500
C 	C 	0.70980 0.71020 0.40030 -0.26100
H 	H 	0.66070 0.73050 0.41640 0.11800
C 	C 	0.76420 0.72760 0.36600 0.16100
H 	H 	0.74840 0.75930 0.35800 -0.01400
C 	C 	0.84170 0.69870 0.34340 -0.23700
C 	C 	0.85780 0.65150 0.35400 0.16800
H 	H 	0.90830 0.63120 0.33830 -0.00200
C 	C 	0.80050 0.63390 0.38740 -0.25600
H 	H 	0.81120 0.60150 0.39440 0.13600
C 	C 	0.90410 0.71890 0.30680 0.53300
C 	C 	0.78520 0.62480 0.57450 0.30200
C 	C 	0.84580 0.66060 0.59540 -0.29500
H 	H 	0.85210 0.69160 0.58450 0.14300
C 	C 	0.89610 0.65100 0.63150 0.21600
H 	H 	0.93810 0.67530 0.64560 -0.03900
C 	C 	0.88620 0.60600 0.64760 -0.29300
C 	C 	0.83410 0.57000 0.62570 0.21500
H 	H 	0.83260 0.53860 0.63590 -0.02800
C 	C 	0.78380 0.57920 0.58890 -0.29800
H 	H 	0.74870 0.55420 0.57370 0.13500
C 	C 	0.93240 0.90310 0.31150 0.55700
C 	C 	0.37420 0.67210 0.59130 0.27800
C 	C 	0.39800 0.71960 0.59940 -0.26500
H 	H 	0.44830 0.73800 0.58210 0.11900
C 	C 	0.34710 0.73970 0.63300 0.17000
H 	H 	0.36600 0.77170 0.63940 -0.01600
C 	C 	0.26930 0.71370 0.65720 -0.24400
C 	C 	0.24640 0.66670 0.64860 0.18300
H 	H 	0.19360 0.64860 0.66530 -0.00400
C 	C 	0.29860 0.64580 0.61640 -0.26600
H 	H 	0.28330 0.61320 0.61110 0.14100
C 	C 	0.20890 0.76380 0.30690 0.51600
C 	C 	0.31490 0.61720 0.42730 0.28100
C 	C 	0.24300 0.64930 0.40620 -0.26900
H 	H 	0.22320 0.67950 0.41710 0.13500
C 	C 	0.20050 0.63700 0.36900 0.18300
H 	H 	0.15290 0.65920 0.35430 -0.02700
C 	C 	0.22620 0.59290 0.35300 -0.25900
C 	C 	0.29470 0.56040 0.37470 0.17300
H 	H 	0.31140 0.52990 0.36400 -0.01000
C 	C 	0.33980 0.57190 0.41220 -0.26100
H 	H 	0.38630 0.54940 0.42710 0.12100
C 	C 	0.18310 0.58020 0.31220 0.53100
O 	O 	0.32370 0.35770 0.94356 -0.24000
O 	O 	0.12780 0.24060 0.79587 -0.54100
O 	O 	0.01600 0.30660 0.79091 -0.53500
O 	O 	0.26760 0.36090 0.03960 -0.24600
O 	O 	0.01690 0.13030 0.79356 -0.53400
O 	O 	0.07720 0.05560 0.79750 -0.50500
O 	O 	0.57870 0.35200 0.05940 -0.24000
O 	O 	0.87440 0.21240 0.79000 -0.53900
O 	O 	0.75670 0.27720 0.79659 -0.52500
O 	O 	0.64370 0.36690 0.96252 -0.24200
O 	O 	0.20240 0.96070 0.70040 -0.49900
O 	O 	0.87110 0.38820 0.79265 -0.52000
C 	C 	0.45430 0.35980 0.00080 -0.00000
C 	C 	0.39530 0.32850 0.96930 0.03200
H 	H 	0.34070 0.30450 0.98180 0.03400
H 	H 	0.46120 0.31180 0.95430 0.03000
C 	C 	0.35820 0.39130 0.02200 0.03100
H 	H 	0.31740 0.41300 0.00300 0.04000
H 	H 	0.40000 0.41070 0.04240 0.03300
C 	C 	0.51470 0.32500 0.03010 0.03100
H 	H 	0.57430 0.30390 0.01630 0.03500
H 	H 	0.44960 0.30500 0.04260 0.02900
C 	C 	0.54710 0.39440 0.98230 0.02000
H 	H 	0.58500 0.41460 0.00290 0.04300
H 	H 	0.50380 0.41510 0.96320 0.03500
C 	C 	0.27240 0.33680 0.91080 0.27500
C 	C 	0.29020 0.28980 0.90030 -0.26100
H 	H 	0.33930 0.26950 0.91640 0.11800
C 	C 	0.23580 0.27240 0.86600 0.16100
H 	H 	0.25160 0.24070 0.85800 -0.01400
C 	C 	0.15830 0.30130 0.84340 -0.23700
C 	C 	0.14220 0.34850 0.85400 0.16800
H 	H 	0.09170 0.36880 0.83830 -0.00200
C 	C 	0.19950 0.36610 0.88740 -0.25600
H 	H 	0.18880 0.39850 0.89440 0.13600
C 	C 	0.09590 0.28110 0.80680 0.53300
C 	C 	0.21480 0.37520 0.07450 0.30200
C 	C 	0.15420 0.33940 0.09540 -0.29500
H 	H 	0.14790 0.30840 0.08450 0.14300
C 	C 	0.10390 0.34900 0.13150 0.21600
H 	H 	0.06190 0.32470 0.14560 -0.03900
C 	C 	0.11380 0.39400 0.14760 -0.29300
C 	C 	0.16590 0.43000 0.12570 0.21500
H 	H 	0.16740 0.46140 0.13590 -0.02800
C 	C 	0.21620 0.42080 0.08890 -0.29800
H 	H 	0.25130 0.44580 0.07370 0.13500
C 	C 	0.06760 0.09690 0.81150 0.55700
C 	C 	0.62580 0.32790 0.09130 0.27800
C 	C 	0.60200 0.28040 0.09940 -0.26500
H 	H 	0.55170 0.26200 0.08210 0.11900
C 	C 	0.65290 0.26030 0.13300 0.17000
H 	H 	0.63400 0.22830 0.13940 -0.01600
C 	C 	0.73070 0.28630 0.15720 -0.24400
C 	C 	0.75360 0.33330 0.14860 0.18300
H 	H 	0.80640 0.35140 0.16530 -0.00400
C 	C 	0.70140 0.35420 0.11640 -0.26600
H 	H 	0.71670 0.38680 0.11110 0.14100
C 	C 	0.79110 0.23620 0.80690 0.51600
C 	C 	0.68510 0.38280 0.92730 0.28100
C 	C 	0.75700 0.35070 0.90620 -0.26900
H 	H 	0.77680 0.32050 0.91710 0.13500
C 	C 	0.79950 0.36300 0.86900 0.18300
H 	H 	0.84710 0.34080 0.85430 -0.02700
C 	C 	0.77380 0.40710 0.85300 -0.25900
C 	C 	0.70530 0.43960 0.87470 0.17300
H 	H 	0.68860 0.47010 0.86400 -0.01000
C 	C 	0.66020 0.42810 0.91220 -0.26100
H 	H 	0.61370 0.45060 0.92710 0.12100
C 	C 	0.81690 0.41980 0.81220 0.53100
O 	O 	0.32370 0.14230 0.05644 -0.24100
O 	O 	0.12780 0.25940 0.20413 -0.54100
O 	O 	0.01600 0.19340 0.20909 -0.53500
O 	O 	0.26760 0.13910 0.96040 -0.24700
O 	O 	0.01690 0.36970 0.20644 -0.53400
O 	O 	0.07720 0.44440 0.20250 -0.50500
O 	O 	0.57870 0.14800 0.94060 -0.24000
O 	O 	0.87440 0.28760 0.21000 -0.53900
O 	O 	0.75670 0.22280 0.20341 -0.52500
O 	O 	0.64370 0.13310 0.03748 -0.24200
O 	O 	0.20240 0.53930 0.29960 -0.49900
O 	O 	0.87110 0.11180 0.20735 -0.51900
C 	C 	0.45430 0.14020 0.99920 -0.00100
C 	C 	0.39530 0.17150 0.03070 0.03300
H 	H 	0.34070 0.19550 0.01820 0.03400
H 	H 	0.46120 0.18820 0.04570 0.02900
C 	C 	0.35820 0.10870 0.97800 0.03200
H 	H 	0.31740 0.08700 0.99700 0.03900
H 	H 	0.40000 0.08930 0.95760 0.03200
C 	C 	0.51470 0.17500 0.96990 0.03200
H 	H 	0.57430 0.19610 0.98370 0.03500
H 	H 	0.44960 0.19500 0.95740 0.02900
C 	C 	0.54710 0.10560 0.01770 0.02100
H 	H 	0.58500 0.08540 0.99710 0.04200
H 	H 	0.50380 0.08490 0.03680 0.03400
C 	C 	0.27240 0.16320 0.08920 0.27500
C 	C 	0.29020 0.21020 0.09970 -0.26100
H 	H 	0.33930 0.23050 0.08360 0.11800
C 	C 	0.23580 0.22760 0.13400 0.16100
H 	H 	0.25160 0.25930 0.14200 -0.01400
C 	C 	0.15830 0.19870 0.15660 -0.23700
C 	C 	0.14220 0.15150 0.14600 0.16800
H 	H 	0.09170 0.13120 0.16170 -0.00300
C 	C 	0.19950 0.13390 0.11260 -0.25600
H 	H 	0.18880 0.10150 0.10560 0.13600
C 	C 	0.09590 0.21890 0.19320 0.53400
C 	C 	0.21480 0.12480 0.92550 0.30200
C 	C 	0.15420 0.16060 0.90460 -0.29500
H 	H 	0.14790 0.19160 0.91550 0.14300
C 	C 	0.10390 0.15100 0.86850 0.21600
H 	H 	0.06190 0.17530 0.85440 -0.03900
C 	C 	0.11380 0.10600 0.85240 -0.29300
C 	C 	0.16590 0.07000 0.87430 0.21500
H 	H 	0.16740 0.03860 0.86410 -0.02800
C 	C 	0.21620 0.07920 0.91110 -0.29900
H 	H 	0.25130 0.05420 0.92630 0.13500
C 	C 	0.06760 0.40310 0.18850 0.55700
C 	C 	0.62580 0.17210 0.90870 0.27800
C 	C 	0.60200 0.21960 0.90060 -0.26500
H 	H 	0.55170 0.23800 0.91790 0.11900
C 	C 	0.65290 0.23970 0.86700 0.17000
H 	H 	0.63400 0.27170 0.86060 -0.01600
C 	C 	0.73070 0.21370 0.84280 -0.24400
C 	C 	0.75360 0.16670 0.85140 0.18300
H 	H 	0.80640 0.14860 0.83470 -0.00400
C 	C 	0.70140 0.14580 0.88360 -0.26600
H 	H 	0.71670 0.11320 0.88890 0.14200
C 	C 	0.79110 0.26380 0.19310 0.51600
C 	C 	0.68510 0.11720 0.07270 0.28100
C 	C 	0.75700 0.14930 0.09380 -0.26900
H 	H 	0.77680 0.17950 0.08290 0.13500
C 	C 	0.79950 0.13700 0.13100 0.18300
H 	H 	0.84710 0.15920 0.14570 -0.02700
C 	C 	0.77380 0.09290 0.14700 -0.25900
C 	C 	0.70530 0.06040 0.12530 0.17300
H 	H 	0.68860 0.02990 0.13600 -0.01000
C 	C 	0.66020 0.07190 0.08780 -0.26100
H 	H 	0.61370 0.04940 0.07290 0.12200
C 	C 	0.81690 0.08020 0.18780 0.53100
O 	O 	0.67630 0.85770 0.55644 -0.24000
O 	O 	0.87220 0.74060 0.70413 -0.54100
O 	O 	0.98400 0.80660 0.70909 -0.53500
O 	O 	0.73240 0.86090 0.46040 -0.24700
O 	O 	0.98310 0.63030 0.70644 -0.53400
O 	O 	0.92280 0.55560 0.70250 -0.50500
O 	O 	0.42130 0.85200 0.44060 -0.24000
O 	O 	0.12560 0.71240 0.71000 -0.53900
O 	O 	0.24330 0.77720 0.70341 -0.52500
O 	O 	0.35630 0.86690 0.53748 -0.24200
O 	O 	0.79760 0.46070 0.79960 -0.49900
O 	O 	0.12890 0.88820 0.70735 -0.51900
C 	C 	0.54570 0.85980 0.49920 -0.00100
C 	C 	0.60470 0.82850 0.53070 0.03200
H 	H 	0.65930 0.80450 0.51820 0.03400
H 	H 	0.53880 0.81180 0.54570 0.03000
C 	C 	0.64180 0.89130 0.47800 0.03200
H 	H 	0.68260 0.91300 0.49700 0.04000
H 	H 	0.60000 0.91070 0.45760 0.03300
C 	C 	0.48530 0.82500 0.46990 0.03200
H 	H 	0.42570 0.80390 0.48370 0.03500
H 	H 	0.55040 0.80500 0.45740 0.02900
C 	C 	0.45290 0.89440 0.51770 0.02000
H 	H 	0.41500 0.91460 0.49710 0.04300
H 	H 	0.49620 0.91510 0.53680 0.03500
C 	C 	0.72760 0.83680 0.58920 0.27500
C 	C 	0.70980 0.78980 0.59970 -0.26100
H 	H 	0.66070 0.76950 0.58360 0.11800
C 	C 	0.76420 0.77240 0.63400 0.16100
H 	H 	0.74840 0.74070 0.64200 -0.01400
C 	C 	0.84170 0.80130 0.65660 -0.23700
C 	C 	0.85780 0.84850 0.64600 0.16800
H 	H 	0.90830 0.86880 0.66170 -0.00300
C 	C 	0.80050 0.86610 0.61260 -0.25600
H 	H 	0.81120 0.89850 0.60560 0.13600
C 	C 	0.90410 0.78110 0.69320 0.53400
C 	C 	0.78520 0.87520 0.42550 0.30200
C 	C 	0.84580 0.83940 0.40460 -0.29500
H 	H 	0.85210 0.80840 0.41550 0.14300
C 	C 	0.89610 0.84900 0.36850 0.21600
H 	H 	0.93810 0.82470 0.35440 -0.03900
C 	C 	0.88620 0.89400 0.35240 -0.29300
C 	C 	0.83410 0.93000 0.37430 0.21500
H 	H 	0.83260 0.96140 0.36410 -0.02800
C 	C 	0.78380 0.92080 0.41110 -0.29800
H 	H 	0.74870 0.94580 0.42630 0.13500
C 	C 	0.93240 0.59690 0.68850 0.55700
C 	C 	0.37420 0.82790 0.40870 0.27800
C 	C 	0.39800 0.78040 0.40060 -0.26500
H 	H 	0.44830 0.76200 0.41790 0.11900
C 	C 	0.34710 0.76030 0.36700 0.17000
H 	H 	0.36600 0.72830 0.36060 -0.01600
C 	C 	0.26930 0.78630 0.34280 -0.24400
C 	C 	0.24640 0.83330 0.35140 0.18300
H 	H 	0.19360 0.85140 0.33470 -0.00400
C 	C 	0.29860 0.85420 0.38360 -0.26600
H 	H 	0.28330 0.88680 0.38890 0.14200
C 	C 	0.20890 0.73620 0.69310 0.51600
C 	C 	0.31490 0.88280 0.57270 0.28100
C 	C 	0.24300 0.85070 0.59380 -0.26900
H 	H 	0.22320 0.82050 0.58290 0.13500
C 	C 	0.20050 0.86300 0.63100 0.18300
H 	H 	0.15290 0.84080 0.64570 -0.02700
C 	C 	0.22620 0.90710 0.64700 -0.25900
C 	C 	0.29470 0.93960 0.62530 0.17300
H 	H 	0.31140 0.97010 0.63600 -0.01000
C 	C 	0.33980 0.92810 0.58780 -0.26100
H 	H 	0.38630 0.95060 0.57290 0.12100
C 	C 	0.18310 0.91980 0.68780 0.53100
Dy	Dy	0.03356 0.19094 0.75000 2.00700
Dy	Dy	0.85371 0.32561 0.75000 1.95800
Dy	Dy	0.17890 0.01253 0.75000 1.11200
N 	N 	0.91660 0.99600 0.75000 0.08600
O 	O 	0.95400 0.03590 0.75000 -0.29300
O 	O 	0.98630 0.96360 0.75000 -0.38200
O 	O 	0.80580 0.98890 0.75000 -0.07900
O 	O 	0.40000 0.56980 0.75000 -0.07100
Dy	Dy	0.88610 0.50574 0.75000 1.05500
N 	N 	0.62400 0.53020 0.75000 0.09400
O 	O 	0.65630 0.48940 0.75000 -0.35300
O 	O 	0.70250 0.56030 0.75000 -0.41000
O 	O 	0.51700 0.54010 0.75000 -0.06800
Dy	Dy	0.96644 0.80906 0.25000 2.00700
Dy	Dy	0.14629 0.67439 0.25000 1.95800
Dy	Dy	0.82110 0.98747 0.25000 1.11200
N 	N 	0.08340 0.00400 0.25000 0.08600
O 	O 	0.04600 0.96410 0.25000 -0.29300
O 	O 	0.01370 0.03640 0.25000 -0.38200
O 	O 	0.19420 0.01110 0.25000 -0.07900
O 	O 	0.60000 0.43020 0.25000 -0.07100
Dy	Dy	0.11390 0.49426 0.25000 1.05500
N 	N 	0.37600 0.46980 0.25000 0.09400
O 	O 	0.34370 0.51060 0.25000 -0.35300
O 	O 	0.29750 0.43970 0.25000 -0.41000
O 	O 	0.48300 0.45990 0.25000 -0.06800
Dy	Dy	0.96644 0.69094 0.75000 2.00700
Dy	Dy	0.14629 0.82561 0.75000 1.95800
Dy	Dy	0.82110 0.51253 0.75000 1.11300
N 	N 	0.08340 0.49600 0.75000 0.08700
O 	O 	0.04600 0.53590 0.75000 -0.29400
O 	O 	0.01370 0.46360 0.75000 -0.38200
O 	O 	0.19420 0.48890 0.75000 -0.07900
O 	O 	0.60000 0.06980 0.75000 -0.07100
Dy	Dy	0.11390 0.00574 0.75000 1.05500
N 	N 	0.37600 0.03020 0.75000 0.09400
O 	O 	0.34370 0.98940 0.75000 -0.35200
O 	O 	0.29750 0.06030 0.75000 -0.40900
O 	O 	0.48300 0.04010 0.75000 -0.06800
Dy	Dy	0.03356 0.30906 0.25000 2.00700
Dy	Dy	0.85371 0.17439 0.25000 1.95800
Dy	Dy	0.17890 0.48747 0.25000 1.11300
N 	N 	0.91660 0.50400 0.25000 0.08700
O 	O 	0.95400 0.46410 0.25000 -0.29400
O 	O 	0.98630 0.53640 0.25000 -0.38200
O 	O 	0.80580 0.51110 0.25000 -0.07900
O 	O 	0.40000 0.93020 0.25000 -0.07100
Dy	Dy	0.88610 0.99426 0.25000 1.05500
N 	N 	0.62400 0.96980 0.25000 0.09400
O 	O 	0.65630 0.01060 0.25000 -0.35200
O 	O 	0.70250 0.93970 0.25000 -0.40900
O 	O 	0.51700 0.95990 0.25000 -0.06800
