data_crystal

_cell_length_a 5.06960
_cell_length_b 9.60810
_cell_length_c 12.53280
_cell_angle_alpha 89.12000
_cell_angle_beta  85.50800
_cell_angle_gamma 76.86200

_symmetry_space_group_name_	'P 1'
_symmetry_space_group_name_H-M	'P 1'

loop_
_symmetry_equiv_pos_as_xyz
  x,y,z

loop_
_atom_site_label
_atom_site_type_symbol
_atom_site_fract_x
_atom_site_fract_y
_atom_site_fract_z
_atom_site_charge
Co	Co	0.83382 0.10633 0.59655 1.15300
Co	Co	0.16618 0.89367 0.40345 1.19100
Co	Co	0.50000 0.00000 -0.00000 0.98200
P 	P 	0.68380 0.78652 0.55723 0.45600
P 	P 	0.37740 0.96745 0.74681 0.48600
P 	P 	0.31620 0.21348 0.44277 0.45200
P 	P 	0.62260 0.03255 0.25319 0.38100
H 	H 	0.94580 0.62410 0.47960 0.26600
H 	H 	0.92590 0.84960 0.73300 0.24600
H 	H 	0.48100 0.43410 0.62460 0.01700
H 	H 	0.15880 0.27970 0.75750 0.01500
H 	H 	0.98170 0.52230 0.82690 0.05400
H 	H 	0.32010 0.67190 0.71090 0.07800
H 	H 	0.43570 0.68440 0.82160 0.07100
H 	H 	0.05420 0.37590 0.52040 0.26000
H 	H 	0.07410 0.15040 0.26700 0.22900
H 	H 	0.51900 0.56590 0.37540 0.01900
H 	H 	0.84120 0.72030 0.24250 0.03800
H 	H 	0.01830 0.47770 0.17310 0.01000
H 	H 	0.67990 0.32810 0.28910 0.07500
H 	H 	0.56430 0.31560 0.17840 0.03400
C 	C 	0.62910 0.42520 0.66560 0.09600
C 	C 	0.99970 0.34140 0.73890 0.00700
C 	C 	0.90380 0.47540 0.77780 0.00400
C 	C 	0.48520 0.66990 0.74560 -0.06500
C 	C 	0.60580 0.79430 0.70280 0.00100
C 	C 	0.37090 0.57480 0.33440 0.08800
C 	C 	0.00030 0.65860 0.26110 -0.03700
C 	C 	0.09620 0.52460 0.22220 0.01300
C 	C 	0.51480 0.33010 0.25440 -0.05200
C 	C 	0.39420 0.20570 0.29720 -0.00600
N 	N 	0.66710 0.52780 0.72950 -0.09600
N 	N 	0.82850 0.30930 0.66780 -0.22200
N 	N 	0.33290 0.47220 0.27050 -0.10600
N 	N 	0.17150 0.69070 0.33220 -0.21400
O 	O 	0.82770 0.90330 0.52360 -0.45800
O 	O 	0.43140 0.78010 0.50590 -0.39500
O 	O 	0.89670 0.63810 0.54320 -0.42500
O 	O 	0.53810 0.07890 0.71670 -0.46900
O 	O 	0.11430 0.98490 0.69370 -0.38500
O 	O 	0.32420 0.95620 0.86750 -0.38700
O 	O 	0.85380 0.78530 0.75490 -0.35300
O 	O 	0.17230 0.09670 0.47640 -0.52900
O 	O 	0.56860 0.21990 0.49410 -0.40700
O 	O 	0.10330 0.36190 0.45680 -0.42500
O 	O 	0.46190 0.92110 0.28330 -0.36200
O 	O 	0.88570 0.01510 0.30630 -0.44500
O 	O 	0.67580 0.04380 0.13250 -0.50400
O 	O 	0.14620 0.21470 0.24510 -0.38000
