data_crystal

_cell_length_a 28.17470
_cell_length_b 28.17470
_cell_length_c 28.17470
_cell_angle_alpha 60.00000
_cell_angle_beta  60.00000
_cell_angle_gamma 60.00000

_symmetry_space_group_name_	'P 1'
_symmetry_space_group_name_H-M	'P 1'

loop_
_symmetry_equiv_pos_as_xyz
  x,y,z

loop_
_atom_site_label
_atom_site_type_symbol
_atom_site_fract_x
_atom_site_fract_y
_atom_site_fract_z
_atom_site_charge
H 	H 	0.18202 0.02714 0.33552 0.03000
H 	H 	0.19083 0.92891 0.34461 0.04900
C 	C 	0.21903 0.00505 0.30251 0.06500
C 	C 	0.22408 0.95074 0.30772 -0.09100
C 	C 	0.32280 0.74260 0.24440 -0.04200
O 	O 	0.21009 0.11141 0.29115 -0.65200
H 	H 	0.36067 0.75973 0.21274 0.03700
H 	H 	0.72286 0.56798 0.41448 0.03000
H 	H 	0.82109 0.55917 0.40539 0.04800
C 	C 	0.74495 0.53097 0.44749 0.06100
C 	C 	0.79926 0.52592 0.44228 -0.08700
C 	C 	0.00740 0.42720 0.50560 -0.03200
O 	O 	0.63859 0.53991 0.45885 -0.65400
H 	H 	0.99027 0.38933 0.53726 0.03500
H 	H 	0.02714 0.18202 0.45532 0.03100
H 	H 	0.92891 0.19083 0.53565 0.05000
C 	C 	0.00505 0.21903 0.47341 0.06600
C 	C 	0.95074 0.22408 0.51746 -0.09000
C 	C 	0.74260 0.32280 0.69020 -0.04100
O 	O 	0.11141 0.21009 0.38735 -0.65100
H 	H 	0.75973 0.36067 0.66687 0.03800
H 	H 	0.56798 0.72286 0.29468 0.03100
H 	H 	0.55917 0.82109 0.21435 0.04900
C 	C 	0.53097 0.74495 0.27659 0.06200
C 	C 	0.52592 0.79926 0.23254 -0.08600
C 	C 	0.42720 0.00740 0.05980 -0.03600
O 	O 	0.53991 0.63859 0.36265 -0.65300
H 	H 	0.38933 0.99027 0.08313 0.03600
H 	H 	0.33552 0.45532 0.18202 0.03100
H 	H 	0.34461 0.53565 0.19083 0.04900
C 	C 	0.30251 0.47341 0.21903 0.06200
C 	C 	0.30772 0.51746 0.22408 -0.08600
C 	C 	0.24440 0.69020 0.32280 -0.04100
O 	O 	0.29115 0.38735 0.21009 -0.65100
H 	H 	0.21274 0.66687 0.36067 0.03800
H 	H 	0.41448 0.29468 0.72286 0.03100
H 	H 	0.40539 0.21435 0.82109 0.04900
C 	C 	0.44749 0.27659 0.74495 0.06200
C 	C 	0.44228 0.23254 0.79926 -0.08600
C 	C 	0.50560 0.05980 0.00740 -0.03600
O 	O 	0.45885 0.36265 0.63859 -0.65300
H 	H 	0.53726 0.08313 0.99027 0.03600
H 	H 	0.45532 0.33552 0.02714 0.03100
H 	H 	0.53565 0.34461 0.92891 0.05000
C 	C 	0.47341 0.30251 0.00505 0.06600
C 	C 	0.51746 0.30772 0.95074 -0.09000
C 	C 	0.69020 0.24440 0.74260 -0.04100
O 	O 	0.38735 0.29115 0.11141 -0.65100
H 	H 	0.66687 0.21274 0.75973 0.03800
H 	H 	0.29468 0.41448 0.56798 0.03100
H 	H 	0.21435 0.40539 0.55917 0.04900
C 	C 	0.27659 0.44749 0.53097 0.06100
C 	C 	0.23254 0.44228 0.52592 -0.08500
C 	C 	0.05980 0.50560 0.42720 -0.04600
O 	O 	0.36265 0.45885 0.53991 -0.65300
H 	H 	0.08313 0.53726 0.38933 0.03900
H 	H 	0.33552 0.18202 0.02714 0.03100
H 	H 	0.34461 0.19083 0.92891 0.05000
C 	C 	0.30251 0.21903 0.00505 0.06600
C 	C 	0.30772 0.22408 0.95074 -0.09000
C 	C 	0.24440 0.32280 0.74260 -0.04100
O 	O 	0.29115 0.21009 0.11141 -0.65100
H 	H 	0.21274 0.36067 0.75973 0.03800
H 	H 	0.41448 0.72286 0.56798 0.03100
H 	H 	0.40539 0.82109 0.55917 0.04900
C 	C 	0.44749 0.74495 0.53097 0.06200
C 	C 	0.44228 0.79926 0.52592 -0.08600
C 	C 	0.50560 0.00740 0.42720 -0.03100
O 	O 	0.45885 0.63859 0.53991 -0.65300
H 	H 	0.53726 0.99027 0.38933 0.03500
H 	H 	0.45532 0.02714 0.18202 0.03100
H 	H 	0.53565 0.92891 0.19083 0.05000
C 	C 	0.47341 0.00505 0.21903 0.06600
C 	C 	0.51746 0.95074 0.22408 -0.09000
C 	C 	0.69020 0.74260 0.32280 -0.04100
O 	O 	0.38735 0.11141 0.21009 -0.65100
H 	H 	0.66687 0.75973 0.36067 0.03800
H 	H 	0.29468 0.56798 0.72286 0.03100
H 	H 	0.21435 0.55917 0.82109 0.04900
C 	C 	0.27659 0.53097 0.74495 0.06200
C 	C 	0.23254 0.52592 0.79926 -0.08600
C 	C 	0.05980 0.42720 0.00740 -0.03600
O 	O 	0.36265 0.53991 0.63859 -0.65300
H 	H 	0.08313 0.38933 0.99027 0.03600
H 	H 	0.18202 0.33552 0.45532 0.03100
H 	H 	0.19083 0.34461 0.53565 0.04900
C 	C 	0.21903 0.30251 0.47341 0.06200
C 	C 	0.22408 0.30772 0.51746 -0.08600
C 	C 	0.32280 0.24440 0.69020 -0.04100
O 	O 	0.21009 0.29115 0.38735 -0.65100
H 	H 	0.36067 0.21274 0.66687 0.03800
H 	H 	0.72286 0.41448 0.29468 0.03100
H 	H 	0.82109 0.40539 0.21435 0.04900
C 	C 	0.74495 0.44749 0.27659 0.06200
C 	C 	0.79926 0.44228 0.23254 -0.08600
C 	C 	0.00740 0.50560 0.05980 -0.03600
O 	O 	0.63859 0.45885 0.36265 -0.65300
H 	H 	0.99027 0.53726 0.08313 0.03600
H 	H 	0.02714 0.45532 0.33552 0.03100
H 	H 	0.92891 0.53565 0.34461 0.05000
C 	C 	0.00505 0.47341 0.30251 0.06600
C 	C 	0.95074 0.51746 0.30772 -0.09000
C 	C 	0.74260 0.69020 0.24440 -0.04100
O 	O 	0.11141 0.38735 0.29115 -0.65100
H 	H 	0.75973 0.66687 0.21274 0.03800
H 	H 	0.56798 0.29468 0.41448 0.03100
H 	H 	0.55917 0.21435 0.40539 0.04900
C 	C 	0.53097 0.27659 0.44749 0.06100
C 	C 	0.52592 0.23254 0.44228 -0.08500
C 	C 	0.42720 0.05980 0.50560 -0.04600
O 	O 	0.53991 0.36265 0.45885 -0.65300
H 	H 	0.38933 0.08313 0.53726 0.03900
H 	H 	0.02714 0.33552 0.18202 0.03100
H 	H 	0.92891 0.34461 0.19083 0.05000
C 	C 	0.00505 0.30251 0.21903 0.06600
C 	C 	0.95074 0.30772 0.22408 -0.09000
C 	C 	0.74260 0.24440 0.32280 -0.04100
O 	O 	0.11141 0.29115 0.21009 -0.65100
H 	H 	0.75973 0.21274 0.36067 0.03800
H 	H 	0.56798 0.41448 0.72286 0.03100
H 	H 	0.55917 0.40539 0.82109 0.04900
C 	C 	0.53097 0.44749 0.74495 0.06200
C 	C 	0.52592 0.44228 0.79926 -0.08600
C 	C 	0.42720 0.50560 0.00740 -0.03100
O 	O 	0.53991 0.45885 0.63859 -0.65300
H 	H 	0.38933 0.53726 0.99027 0.03500
H 	H 	0.18202 0.45532 0.02714 0.03100
H 	H 	0.19083 0.53565 0.92891 0.05000
C 	C 	0.21903 0.47341 0.00505 0.06600
C 	C 	0.22408 0.51746 0.95074 -0.09000
C 	C 	0.32280 0.69020 0.74260 -0.04100
O 	O 	0.21009 0.38735 0.11141 -0.65100
H 	H 	0.36067 0.66687 0.75973 0.03800
H 	H 	0.72286 0.29468 0.56798 0.03100
H 	H 	0.82109 0.21435 0.55917 0.04900
C 	C 	0.74495 0.27659 0.53097 0.06200
C 	C 	0.79926 0.23254 0.52592 -0.08600
C 	C 	0.00740 0.05980 0.42720 -0.03600
O 	O 	0.63859 0.36265 0.53991 -0.65300
H 	H 	0.99027 0.08313 0.38933 0.03600
H 	H 	0.45532 0.18202 0.33552 0.03100
H 	H 	0.53565 0.19083 0.34461 0.04900
C 	C 	0.47341 0.21903 0.30251 0.06200
C 	C 	0.51746 0.22408 0.30772 -0.08600
C 	C 	0.69020 0.32280 0.24440 -0.04100
O 	O 	0.38735 0.21009 0.29115 -0.65100
H 	H 	0.66687 0.36067 0.21274 0.03800
H 	H 	0.29468 0.72286 0.41448 0.03100
H 	H 	0.21435 0.82109 0.40539 0.04900
C 	C 	0.27659 0.74495 0.44749 0.06200
C 	C 	0.23254 0.79926 0.44228 -0.08600
C 	C 	0.05980 0.00740 0.50560 -0.03600
O 	O 	0.36265 0.63859 0.45885 -0.65300
H 	H 	0.08313 0.99027 0.53726 0.03600
H 	H 	0.33552 0.02714 0.45532 0.03100
H 	H 	0.34461 0.92891 0.53565 0.05000
C 	C 	0.30251 0.00505 0.47341 0.06600
C 	C 	0.30772 0.95074 0.51746 -0.09000
C 	C 	0.24440 0.74260 0.69020 -0.04100
O 	O 	0.29115 0.11141 0.38735 -0.65100
H 	H 	0.21274 0.75973 0.66687 0.03800
H 	H 	0.41448 0.56798 0.29468 0.03100
H 	H 	0.40539 0.55917 0.21435 0.04900
C 	C 	0.44749 0.53097 0.27659 0.06100
C 	C 	0.44228 0.52592 0.23254 -0.08500
C 	C 	0.50560 0.42720 0.05980 -0.04600
O 	O 	0.45885 0.53991 0.36265 -0.65300
H 	H 	0.53726 0.38933 0.08313 0.03900
H 	H 	0.02714 0.18202 0.33552 0.03100
H 	H 	0.92891 0.19083 0.34461 0.05000
C 	C 	0.00505 0.21903 0.30251 0.06600
C 	C 	0.95074 0.22408 0.30772 -0.09000
C 	C 	0.74260 0.32280 0.24440 -0.04100
O 	O 	0.11141 0.21009 0.29115 -0.65100
H 	H 	0.75973 0.36067 0.21274 0.03800
H 	H 	0.56798 0.72286 0.41448 0.03100
H 	H 	0.55917 0.82109 0.40539 0.04900
C 	C 	0.53097 0.74495 0.44749 0.06200
C 	C 	0.52592 0.79926 0.44228 -0.08600
C 	C 	0.42720 0.00740 0.50560 -0.03100
O 	O 	0.53991 0.63859 0.45885 -0.65300
H 	H 	0.38933 0.99027 0.53726 0.03500
H 	H 	0.18202 0.02714 0.45532 0.03100
H 	H 	0.19083 0.92891 0.53565 0.05000
C 	C 	0.21903 0.00505 0.47341 0.06600
C 	C 	0.22408 0.95074 0.51746 -0.09000
C 	C 	0.32280 0.74260 0.69020 -0.04100
O 	O 	0.21009 0.11141 0.38735 -0.65100
H 	H 	0.36067 0.75973 0.66687 0.03800
H 	H 	0.72286 0.56798 0.29468 0.03100
H 	H 	0.82109 0.55917 0.21435 0.04900
C 	C 	0.74495 0.53097 0.27659 0.06200
C 	C 	0.79926 0.52592 0.23254 -0.08600
C 	C 	0.00740 0.42720 0.05980 -0.03600
O 	O 	0.63859 0.53991 0.36265 -0.65300
H 	H 	0.99027 0.38933 0.08313 0.03600
H 	H 	0.45532 0.33552 0.18202 0.03100
H 	H 	0.53565 0.34461 0.19083 0.04900
C 	C 	0.47341 0.30251 0.21903 0.06200
C 	C 	0.51746 0.30772 0.22408 -0.08600
C 	C 	0.69020 0.24440 0.32280 -0.04100
O 	O 	0.38735 0.29115 0.21009 -0.65100
H 	H 	0.66687 0.21274 0.36067 0.03800
H 	H 	0.29468 0.41448 0.72286 0.03100
H 	H 	0.21435 0.40539 0.82109 0.04900
C 	C 	0.27659 0.44749 0.74495 0.06200
C 	C 	0.23254 0.44228 0.79926 -0.08600
C 	C 	0.05980 0.50560 0.00740 -0.03600
O 	O 	0.36265 0.45885 0.63859 -0.65300
H 	H 	0.08313 0.53726 0.99027 0.03600
H 	H 	0.33552 0.45532 0.02714 0.03100
H 	H 	0.34461 0.53565 0.92891 0.05000
C 	C 	0.30251 0.47341 0.00505 0.06600
C 	C 	0.30772 0.51746 0.95074 -0.09000
C 	C 	0.24440 0.69020 0.74260 -0.04100
O 	O 	0.29115 0.38735 0.11141 -0.65100
H 	H 	0.21274 0.66687 0.75973 0.03800
H 	H 	0.41448 0.29468 0.56798 0.03100
H 	H 	0.40539 0.21435 0.55917 0.04900
C 	C 	0.44749 0.27659 0.53097 0.06100
C 	C 	0.44228 0.23254 0.52592 -0.08500
C 	C 	0.50560 0.05980 0.42720 -0.04600
O 	O 	0.45885 0.36265 0.53991 -0.65300
H 	H 	0.53726 0.08313 0.38933 0.03900
H 	H 	0.18202 0.33552 0.02714 0.03100
H 	H 	0.19083 0.34461 0.92891 0.05000
C 	C 	0.21903 0.30251 0.00505 0.06600
C 	C 	0.22408 0.30772 0.95074 -0.09000
C 	C 	0.32280 0.24440 0.74260 -0.04100
O 	O 	0.21009 0.29115 0.11141 -0.65100
H 	H 	0.36067 0.21274 0.75973 0.03800
H 	H 	0.72286 0.41448 0.56798 0.03100
H 	H 	0.82109 0.40539 0.55917 0.04900
C 	C 	0.74495 0.44749 0.53097 0.06200
C 	C 	0.79926 0.44228 0.52592 -0.08600
C 	C 	0.00740 0.50560 0.42720 -0.03100
O 	O 	0.63859 0.45885 0.53991 -0.65300
H 	H 	0.99027 0.53726 0.38933 0.03500
H 	H 	0.02714 0.45532 0.18202 0.03100
H 	H 	0.92891 0.53565 0.19083 0.05000
C 	C 	0.00505 0.47341 0.21903 0.06600
C 	C 	0.95074 0.51746 0.22408 -0.09000
C 	C 	0.74260 0.69020 0.32280 -0.04100
O 	O 	0.11141 0.38735 0.21009 -0.65100
H 	H 	0.75973 0.66687 0.36067 0.03800
H 	H 	0.56798 0.29468 0.72286 0.03100
H 	H 	0.55917 0.21435 0.82109 0.04900
C 	C 	0.53097 0.27659 0.74495 0.06200
C 	C 	0.52592 0.23254 0.79926 -0.08600
C 	C 	0.42720 0.05980 0.00740 -0.03600
O 	O 	0.53991 0.36265 0.63859 -0.65300
H 	H 	0.38933 0.08313 0.99027 0.03600
H 	H 	0.33552 0.18202 0.45532 0.03100
H 	H 	0.34461 0.19083 0.53565 0.04900
C 	C 	0.30251 0.21903 0.47341 0.06200
C 	C 	0.30772 0.22408 0.51746 -0.08600
C 	C 	0.24440 0.32280 0.69020 -0.04100
O 	O 	0.29115 0.21009 0.38735 -0.65100
H 	H 	0.21274 0.36067 0.66687 0.03800
H 	H 	0.41448 0.72286 0.29468 0.03100
H 	H 	0.40539 0.82109 0.21435 0.04900
C 	C 	0.44749 0.74495 0.27659 0.06200
C 	C 	0.44228 0.79926 0.23254 -0.08600
C 	C 	0.50560 0.00740 0.05980 -0.03600
O 	O 	0.45885 0.63859 0.36265 -0.65300
H 	H 	0.53726 0.99027 0.08313 0.03600
H 	H 	0.45532 0.02714 0.33552 0.03100
H 	H 	0.53565 0.92891 0.34461 0.05000
C 	C 	0.47341 0.00505 0.30251 0.06600
C 	C 	0.51746 0.95074 0.30772 -0.09000
C 	C 	0.69020 0.74260 0.24440 -0.04100
O 	O 	0.38735 0.11141 0.29115 -0.65100
H 	H 	0.66687 0.75973 0.21274 0.03800
H 	H 	0.29468 0.56798 0.41448 0.03100
H 	H 	0.21435 0.55917 0.40539 0.04900
C 	C 	0.27659 0.53097 0.44749 0.06100
C 	C 	0.23254 0.52592 0.44228 -0.08500
C 	C 	0.05980 0.42720 0.50560 -0.04600
O 	O 	0.36265 0.53991 0.45885 -0.65300
H 	H 	0.08313 0.38933 0.53726 0.03900
H 	H 	0.33552 0.02714 0.18202 0.03100
H 	H 	0.34461 0.92891 0.19083 0.05000
C 	C 	0.30251 0.00505 0.21903 0.06600
C 	C 	0.30772 0.95074 0.22408 -0.09000
C 	C 	0.24440 0.74260 0.32280 -0.04100
O 	O 	0.29115 0.11141 0.21009 -0.65100
H 	H 	0.21274 0.75973 0.36067 0.03800
H 	H 	0.41448 0.56798 0.72286 0.03100
H 	H 	0.40539 0.55917 0.82109 0.04900
C 	C 	0.44749 0.53097 0.74495 0.06200
C 	C 	0.44228 0.52592 0.79926 -0.08600
C 	C 	0.50560 0.42720 0.00740 -0.03100
O 	O 	0.45885 0.53991 0.63859 -0.65300
H 	H 	0.53726 0.38933 0.99027 0.03500
H 	H 	0.45532 0.18202 0.02714 0.03100
H 	H 	0.53565 0.19083 0.92891 0.05000
C 	C 	0.47341 0.21903 0.00505 0.06600
C 	C 	0.51746 0.22408 0.95074 -0.09000
C 	C 	0.69020 0.32280 0.74260 -0.04100
O 	O 	0.38735 0.21009 0.11141 -0.65100
H 	H 	0.66687 0.36067 0.75973 0.03800
H 	H 	0.29468 0.72286 0.56798 0.03100
H 	H 	0.21435 0.82109 0.55917 0.04900
C 	C 	0.27659 0.74495 0.53097 0.06200
C 	C 	0.23254 0.79926 0.52592 -0.08600
C 	C 	0.05980 0.00740 0.42720 -0.03600
O 	O 	0.36265 0.63859 0.53991 -0.65300
H 	H 	0.08313 0.99027 0.38933 0.03600
H 	H 	0.18202 0.45532 0.33552 0.03100
H 	H 	0.19083 0.53565 0.34461 0.04900
C 	C 	0.21903 0.47341 0.30251 0.06200
C 	C 	0.22408 0.51746 0.30772 -0.08600
C 	C 	0.32280 0.69020 0.24440 -0.04100
O 	O 	0.21009 0.38735 0.29115 -0.65100
H 	H 	0.36067 0.66687 0.21274 0.03800
H 	H 	0.72286 0.29468 0.41448 0.03100
H 	H 	0.82109 0.21435 0.40539 0.04900
C 	C 	0.74495 0.27659 0.44749 0.06200
C 	C 	0.79926 0.23254 0.44228 -0.08600
C 	C 	0.00740 0.05980 0.50560 -0.03600
O 	O 	0.63859 0.36265 0.45885 -0.65300
H 	H 	0.99027 0.08313 0.53726 0.03600
H 	H 	0.02714 0.33552 0.45532 0.03100
H 	H 	0.92891 0.34461 0.53565 0.05000
C 	C 	0.00505 0.30251 0.47341 0.06600
C 	C 	0.95074 0.30772 0.51746 -0.09000
C 	C 	0.74260 0.24440 0.69020 -0.04100
O 	O 	0.11141 0.29115 0.38735 -0.65100
H 	H 	0.75973 0.21274 0.66687 0.03800
H 	H 	0.56798 0.41448 0.29468 0.03100
H 	H 	0.55917 0.40539 0.21435 0.04900
C 	C 	0.53097 0.44749 0.27659 0.06100
C 	C 	0.52592 0.44228 0.23254 -0.08500
C 	C 	0.42720 0.50560 0.05980 -0.04600
O 	O 	0.53991 0.45885 0.36265 -0.65300
H 	H 	0.38933 0.53726 0.08313 0.03900
Zr	Zr	0.18779 0.18779 0.31221 3.21600
Zr	Zr	0.31221 0.31221 0.18779 3.21600
Zr	Zr	0.31221 0.18779 0.18779 3.21600
Zr	Zr	0.18779 0.31221 0.31221 3.21600
Zr	Zr	0.18779 0.31221 0.18779 3.21600
Zr	Zr	0.31221 0.18779 0.31221 3.21600
Zr	Zr	0.56221 0.56221 0.43779 3.22000
Zr	Zr	0.43779 0.43779 0.56221 3.22000
Zr	Zr	0.43779 0.56221 0.56221 3.22000
Zr	Zr	0.56221 0.43779 0.43779 3.22000
Zr	Zr	0.56221 0.43779 0.56221 3.22000
Zr	Zr	0.43779 0.56221 0.43779 3.22000
C 	C 	0.25339 0.08893 0.25339 0.49900
C 	C 	0.25816 0.03158 0.25816 -0.16400
C 	C 	0.08893 0.25339 0.40429 0.49900
C 	C 	0.03158 0.25816 0.45210 -0.16400
C 	C 	0.25339 0.40429 0.25339 0.49800
C 	C 	0.25816 0.45210 0.25816 -0.16100
C 	C 	0.40429 0.25339 0.08893 0.49900
C 	C 	0.45210 0.25816 0.03158 -0.16400
C 	C 	0.25339 0.25339 0.08893 0.49900
C 	C 	0.25816 0.25816 0.03158 -0.16400
C 	C 	0.40429 0.08893 0.25339 0.49900
C 	C 	0.45210 0.03158 0.25816 -0.16400
C 	C 	0.25339 0.25339 0.40429 0.49800
C 	C 	0.25816 0.25816 0.45210 -0.16100
C 	C 	0.08893 0.40429 0.25339 0.49900
C 	C 	0.03158 0.45210 0.25816 -0.16400
C 	C 	0.08893 0.25339 0.25339 0.49900
C 	C 	0.03158 0.25816 0.25816 -0.16400
C 	C 	0.25339 0.40429 0.08893 0.49900
C 	C 	0.25816 0.45210 0.03158 -0.16400
C 	C 	0.40429 0.25339 0.25339 0.49800
C 	C 	0.45210 0.25816 0.25816 -0.16100
C 	C 	0.25339 0.08893 0.40429 0.49900
C 	C 	0.25816 0.03158 0.45210 -0.16400
C 	C 	0.26880 0.92312 0.26880 0.06000
C 	C 	0.27400 0.86792 0.27400 -0.03400
C 	C 	0.27810 0.82192 0.27810 -0.01400
C 	C 	0.28010 0.76968 0.28010 0.02000
C 	C 	0.92312 0.26880 0.53928 0.06000
C 	C 	0.86792 0.27400 0.58408 -0.03400
C 	C 	0.82192 0.27810 0.62188 -0.01400
C 	C 	0.76968 0.28010 0.67012 0.02000
C 	C 	0.26880 0.53928 0.26880 0.05800
C 	C 	0.27400 0.58408 0.27400 -0.03300
C 	C 	0.27810 0.62188 0.27810 -0.01400
C 	C 	0.28010 0.67012 0.28010 0.02000
C 	C 	0.53928 0.26880 0.92312 0.06000
C 	C 	0.58408 0.27400 0.86792 -0.03400
C 	C 	0.62188 0.27810 0.82192 -0.01400
C 	C 	0.67012 0.28010 0.76968 0.02000
C 	C 	0.26880 0.26880 0.92312 0.06000
C 	C 	0.27400 0.27400 0.86792 -0.03400
C 	C 	0.27810 0.27810 0.82192 -0.01400
C 	C 	0.28010 0.28010 0.76968 0.02000
C 	C 	0.53928 0.92312 0.26880 0.06000
C 	C 	0.58408 0.86792 0.27400 -0.03400
C 	C 	0.62188 0.82192 0.27810 -0.01400
C 	C 	0.67012 0.76968 0.28010 0.02000
C 	C 	0.26880 0.26880 0.53928 0.05800
C 	C 	0.27400 0.27400 0.58408 -0.03300
C 	C 	0.27810 0.27810 0.62188 -0.01400
C 	C 	0.28010 0.28010 0.67012 0.02000
C 	C 	0.92312 0.53928 0.26880 0.06000
C 	C 	0.86792 0.58408 0.27400 -0.03400
C 	C 	0.82192 0.62188 0.27810 -0.01400
C 	C 	0.76968 0.67012 0.28010 0.02000
C 	C 	0.92312 0.26880 0.26880 0.06000
C 	C 	0.86792 0.27400 0.27400 -0.03400
C 	C 	0.82192 0.27810 0.27810 -0.01400
C 	C 	0.76968 0.28010 0.28010 0.02000
C 	C 	0.26880 0.53928 0.92312 0.06000
C 	C 	0.27400 0.58408 0.86792 -0.03400
C 	C 	0.27810 0.62188 0.82192 -0.01400
C 	C 	0.28010 0.67012 0.76968 0.02000
C 	C 	0.53928 0.26880 0.26880 0.05800
C 	C 	0.58408 0.27400 0.27400 -0.03300
C 	C 	0.62188 0.27810 0.27810 -0.01400
C 	C 	0.67012 0.28010 0.28010 0.02000
C 	C 	0.26880 0.92312 0.53928 0.06000
C 	C 	0.27400 0.86792 0.58408 -0.03400
C 	C 	0.27810 0.82192 0.62188 -0.01400
C 	C 	0.28010 0.76968 0.67012 0.02000
C 	C 	0.66107 0.49661 0.49661 0.49400
C 	C 	0.71842 0.49184 0.49184 -0.16100
C 	C 	0.82688 0.48120 0.48120 0.05900
C 	C 	0.88208 0.47600 0.47600 -0.03600
C 	C 	0.92808 0.47190 0.47190 -0.01000
C 	C 	0.98032 0.46990 0.46990 0.00800
C 	C 	0.49661 0.66107 0.34571 0.49400
C 	C 	0.49184 0.71842 0.29790 -0.16100
C 	C 	0.48120 0.82688 0.21072 0.05800
C 	C 	0.47600 0.88208 0.16592 -0.03500
C 	C 	0.47190 0.92808 0.12812 -0.01200
C 	C 	0.46990 0.98032 0.07988 0.01300
C 	C 	0.49661 0.34571 0.66107 0.49400
C 	C 	0.49184 0.29790 0.71842 -0.16100
C 	C 	0.48120 0.21072 0.82688 0.05800
C 	C 	0.47600 0.16592 0.88208 -0.03500
C 	C 	0.47190 0.12812 0.92808 -0.01200
C 	C 	0.46990 0.07988 0.98032 0.01300
C 	C 	0.34571 0.49661 0.49661 0.49400
C 	C 	0.29790 0.49184 0.49184 -0.16100
C 	C 	0.21072 0.48120 0.48120 0.05700
C 	C 	0.16592 0.47600 0.47600 -0.03200
C 	C 	0.12812 0.47190 0.47190 -0.01600
C 	C 	0.07988 0.46990 0.46990 0.02400
C 	C 	0.49661 0.66107 0.49661 0.49400
C 	C 	0.49184 0.71842 0.49184 -0.16100
C 	C 	0.48120 0.82688 0.48120 0.05900
C 	C 	0.47600 0.88208 0.47600 -0.03600
C 	C 	0.47190 0.92808 0.47190 -0.01000
C 	C 	0.46990 0.98032 0.46990 0.00800
C 	C 	0.34571 0.49661 0.66107 0.49400
C 	C 	0.29790 0.49184 0.71842 -0.16100
C 	C 	0.21072 0.48120 0.82688 0.05800
C 	C 	0.16592 0.47600 0.88208 -0.03500
C 	C 	0.12812 0.47190 0.92808 -0.01200
C 	C 	0.07988 0.46990 0.98032 0.01300
C 	C 	0.66107 0.49661 0.34571 0.49400
C 	C 	0.71842 0.49184 0.29790 -0.16100
C 	C 	0.82688 0.48120 0.21072 0.05800
C 	C 	0.88208 0.47600 0.16592 -0.03500
C 	C 	0.92808 0.47190 0.12812 -0.01200
C 	C 	0.98032 0.46990 0.07988 0.01300
C 	C 	0.49661 0.34571 0.49661 0.49400
C 	C 	0.49184 0.29790 0.49184 -0.16100
C 	C 	0.48120 0.21072 0.48120 0.05700
C 	C 	0.47600 0.16592 0.47600 -0.03200
C 	C 	0.47190 0.12812 0.47190 -0.01600
C 	C 	0.46990 0.07988 0.46990 0.02400
C 	C 	0.49661 0.49661 0.66107 0.49400
C 	C 	0.49184 0.49184 0.71842 -0.16100
C 	C 	0.48120 0.48120 0.82688 0.05900
C 	C 	0.47600 0.47600 0.88208 -0.03600
C 	C 	0.47190 0.47190 0.92808 -0.01000
C 	C 	0.46990 0.46990 0.98032 0.00800
C 	C 	0.66107 0.34571 0.49661 0.49400
C 	C 	0.71842 0.29790 0.49184 -0.16100
C 	C 	0.82688 0.21072 0.48120 0.05800
C 	C 	0.88208 0.16592 0.47600 -0.03500
C 	C 	0.92808 0.12812 0.47190 -0.01200
C 	C 	0.98032 0.07988 0.46990 0.01300
C 	C 	0.34571 0.66107 0.49661 0.49400
C 	C 	0.29790 0.71842 0.49184 -0.16100
C 	C 	0.21072 0.82688 0.48120 0.05800
C 	C 	0.16592 0.88208 0.47600 -0.03500
C 	C 	0.12812 0.92808 0.47190 -0.01200
C 	C 	0.07988 0.98032 0.46990 0.01300
C 	C 	0.49661 0.49661 0.34571 0.49400
C 	C 	0.49184 0.49184 0.29790 -0.16100
C 	C 	0.48120 0.48120 0.21072 0.05700
C 	C 	0.47600 0.47600 0.16592 -0.03200
C 	C 	0.47190 0.47190 0.12812 -0.01600
C 	C 	0.46990 0.46990 0.07988 0.02400
O 	O 	0.16267 0.27911 0.27911 -1.30900
O 	O 	0.27911 0.16267 0.27911 -1.30900
O 	O 	0.27911 0.27911 0.16267 -1.30900
O 	O 	0.27911 0.27911 0.27911 -1.30900
O 	O 	0.47089 0.58733 0.47089 -1.27800
O 	O 	0.58733 0.47089 0.47089 -1.27800
O 	O 	0.47089 0.47089 0.47089 -1.27800
O 	O 	0.47089 0.47089 0.58733 -1.27800
O 	O 	0.21741 0.21741 0.34777 -1.35900
H 	H 	0.20353 0.20353 0.38941 0.32400
O 	O 	0.21741 0.21741 0.21741 -1.35900
H 	H 	0.20353 0.20353 0.20353 0.32400
O 	O 	0.34777 0.21741 0.21741 -1.35900
H 	H 	0.38941 0.20353 0.20353 0.32400
O 	O 	0.21741 0.34777 0.21741 -1.35900
H 	H 	0.20353 0.38941 0.20353 0.32400
O 	O 	0.53259 0.53259 0.40223 -1.61300
O 	O 	0.53259 0.53259 0.53259 -1.61300
O 	O 	0.40223 0.53259 0.53259 -1.61300
O 	O 	0.53259 0.40223 0.53259 -1.61300
H 	H 	0.54422 0.54422 0.54422 0.57700
H 	H 	0.54422 0.54422 0.36734 0.57700
H 	H 	0.54422 0.36734 0.54422 0.57700
H 	H 	0.36734 0.54422 0.54422 0.57700
