data_crystal

_cell_length_a 12.00140
_cell_length_b 14.68600
_cell_length_c 21.17600
_cell_angle_alpha 81.09300
_cell_angle_beta  83.08000
_cell_angle_gamma 76.57100

_symmetry_space_group_name_	'P 1'
_symmetry_space_group_name_H-M	'P 1'

loop_
_symmetry_equiv_pos_as_xyz
  x,y,z

loop_
_atom_site_label
_atom_site_type_symbol
_atom_site_fract_x
_atom_site_fract_y
_atom_site_fract_z
_atom_site_charge
Cd	Cd	0.00986 0.37902 0.12832 1.21900
Mo	Mo	0.05147 0.01909 0.17163 1.22500
Mo	Mo	0.80525 0.85104 0.95142 1.09800
Mo	Mo	0.91929 0.75503 0.04553 1.11000
Mo	Mo	0.20848 0.76408 0.05561 1.09400
Mo	Mo	0.31281 0.86159 0.96360 1.10400
Mo	Mo	0.83656 0.01124 0.16885 1.24400
Mo	Mo	0.80225 0.47974 0.41187 1.09800
Mo	Mo	0.56770 0.52111 0.31719 1.10000
Mo	Mo	0.38269 0.64771 0.34343 1.10000
Mo	Mo	0.36503 0.77069 0.47367 1.09100
Mo	Mo	0.53904 0.73857 0.54229 1.09500
Mo	Mo	0.78999 0.56863 0.51033 1.09300
Mg	Mg	0.26170 0.07630 0.34020 1.45100
Cl	Cl	0.83400 0.90490 0.21080 -0.62200
Cl	Cl	0.10250 0.91420 0.21340 -0.64600
N 	N 	0.41480 0.03800 0.37860 -0.38500
H 	H 	0.40930 0.98470 0.40500 0.13400
H 	H 	0.40960 0.08200 0.40470 0.08800
N 	N 	0.71140 0.92520 0.39830 -0.45000
H 	H 	0.76470 0.94710 0.37130 0.20200
H 	H 	0.73940 0.90270 0.43610 0.20300
H 	H 	0.69140 0.87910 0.38250 0.22000
O 	O 	0.02210 0.15460 0.10790 -0.50100
O 	O 	0.91220 0.24990 0.01810 -0.44600
O 	O 	0.81460 0.15240 0.10450 -0.42300
O 	O 	0.87010 0.29720 0.13050 -0.35500
O 	O 	0.13290 0.09450 0.22040 -0.38500
O 	O 	0.24560 0.17730 0.13060 -0.40000
O 	O 	0.10150 0.27340 0.20340 -0.39100
O 	O 	0.28260 0.17230 0.24460 -0.42900
O 	O 	0.00270 0.61730 0.06680 -0.43700
O 	O 	0.20650 0.62210 0.07940 -0.36300
O 	O 	0.13890 0.47100 0.10840 -0.39000
O 	O 	0.06730 0.60250 0.17820 -0.29100
O 	O 	0.42260 0.82790 0.88590 -0.37300
O 	O 	0.31460 0.91800 0.79070 -0.32800
O 	O 	0.45450 0.76290 0.78100 -0.25400
O 	O 	0.52250 0.91030 0.79160 -0.43000
H 	H 	0.58620 0.87520 0.78000 0.27600
O 	O 	0.19590 0.01600 0.10230 -0.60900
H 	H 	0.19560 0.97630 0.07710 0.22900
O 	O 	0.87120 0.71580 0.97030 -0.52700
O 	O 	0.03870 0.78680 0.09860 -0.59000
H 	H 	0.01730 0.84440 0.10460 0.24600
O 	O 	0.32820 0.72670 0.98890 -0.44600
O 	O 	0.26270 0.99450 0.90550 -0.53700
H 	H 	0.22430 0.03460 0.92920 0.18800
O 	O 	0.91130 0.07460 0.22020 -0.39300
O 	O 	0.89070 0.88990 0.01180 -0.64100
O 	O 	0.16890 0.89740 0.01710 -0.65900
O 	O 	0.97190 0.98090 0.10690 -0.54400
O 	O 	0.67000 0.60090 0.36430 -0.40000
O 	O 	0.49200 0.71910 0.39060 -0.41800
O 	O 	0.65800 0.69040 0.45780 -0.41300
O 	O 	0.67300 0.77480 0.34470 -0.20600
O 	O 	0.87630 0.49630 0.31830 -0.36700
O 	O 	0.70840 0.51720 0.25140 -0.37500
O 	O 	0.90700 0.43570 0.21400 -0.38200
O 	O 	0.85460 0.61160 0.21730 -0.42000
H 	H 	0.92510 0.60850 0.20440 0.29100
O 	O 	0.32070 0.78600 0.30600 -0.33200
O 	O 	0.31440 0.87520 0.40030 -0.45600
O 	O 	0.27920 0.96040 0.29420 -0.40700
O 	O 	0.13030 0.87230 0.35490 -0.40100
H 	H 	0.10580 0.90630 0.38490 0.18800
O 	O 	0.66840 0.80880 0.54720 -0.41800
O 	O 	0.84670 0.68160 0.52640 -0.39400
O 	O 	0.85130 0.85010 0.49470 -0.28600
O 	O 	0.16350 0.21390 0.38840 -0.43500
O 	O 	0.46490 0.53520 0.39570 -0.65300
O 	O 	0.44950 0.65330 0.52020 -0.64800
O 	O 	0.68370 0.42030 0.37250 -0.59600
H 	H 	0.64600 0.39240 0.40300 0.19100
O 	O 	0.50390 0.64530 0.27310 -0.45700
O 	O 	0.29120 0.68670 0.42790 -0.61200
H 	H 	0.28520 0.63700 0.45340 0.18600
O 	O 	0.47480 0.84570 0.48170 -0.48900
O 	O 	0.65490 0.61630 0.57830 -0.60700
H 	H 	0.61850 0.57270 0.59110 0.19400
O 	O 	0.87530 0.57780 0.42740 -0.65000
H 	H 	0.94780 0.56110 0.42820 0.21200
O 	O 	0.68880 0.49380 0.48620 -0.65200
P 	P 	0.90224 0.21631 0.09088 0.52600
P 	P 	0.18840 0.18099 0.19937 0.52300
P 	P 	0.42756 0.85262 0.81240 0.54700
P 	P 	0.10445 0.57700 0.11082 0.49200
P 	P 	0.62495 0.69923 0.38813 0.50400
P 	P 	0.83717 0.51234 0.25012 0.58200
P 	P 	0.25533 0.87075 0.33985 0.52600
P 	P 	0.80208 0.78197 0.54565 0.50400
C 	C 	0.53550 0.02070 0.35440 -0.24800
H 	H 	0.55140 0.96910 0.32870 0.14900
H 	H 	0.55000 0.07650 0.32650 0.09900
C 	C 	0.61650 0.99690 0.40630 0.21300
H 	H 	0.57370 0.98010 0.44660 -0.01900
H 	H 	0.64280 0.05330 0.41000 -0.08400
Cd	Cd	0.99014 0.62098 0.87168 1.24100
Mo	Mo	0.94853 0.98091 0.82837 1.26600
Mo	Mo	0.19475 0.14896 0.04858 1.07200
Mo	Mo	0.08071 0.24497 0.95447 1.10600
Mo	Mo	0.79152 0.23592 0.94439 1.12100
Mo	Mo	0.68719 0.13841 0.03640 1.07700
Mo	Mo	0.16344 0.98876 0.83115 1.26100
Mo	Mo	0.19775 0.52026 0.58813 1.09100
Mo	Mo	0.43230 0.47889 0.68281 1.10100
Mo	Mo	0.61731 0.35229 0.65657 1.10300
Mo	Mo	0.63497 0.22931 0.52633 1.09300
Mo	Mo	0.46096 0.26143 0.45771 1.09500
Mo	Mo	0.21001 0.43137 0.48967 1.08600
Mg	Mg	0.73830 0.92370 0.65980 1.45400
Cl	Cl	0.16600 0.09510 0.78920 -0.67300
Cl	Cl	0.89750 0.08580 0.78660 -0.64300
N 	N 	0.58520 0.96200 0.62140 -0.38300
H 	H 	0.59070 0.01530 0.59500 0.10700
H 	H 	0.59040 0.91800 0.59530 0.09200
N 	N 	0.28860 0.07480 0.60170 -0.39100
H 	H 	0.23530 0.05290 0.62870 0.17200
H 	H 	0.26060 0.09730 0.56390 0.18200
H 	H 	0.30860 0.12090 0.61750 0.20700
O 	O 	0.97790 0.84540 0.89210 -0.44200
O 	O 	0.08780 0.75010 0.98190 -0.41500
O 	O 	0.18540 0.84760 0.89550 -0.41200
O 	O 	0.12990 0.70280 0.86950 -0.36500
O 	O 	0.86710 0.90550 0.77960 -0.36300
O 	O 	0.75440 0.82270 0.86940 -0.39200
O 	O 	0.89850 0.72660 0.79660 -0.36800
O 	O 	0.71740 0.82770 0.75540 -0.41900
O 	O 	0.99730 0.38270 0.93320 -0.37100
O 	O 	0.79350 0.37790 0.92060 -0.33600
O 	O 	0.86110 0.52900 0.89160 -0.36500
O 	O 	0.93270 0.39750 0.82180 -0.25700
O 	O 	0.57740 0.17210 0.11410 -0.38200
O 	O 	0.68540 0.08200 0.20930 -0.33800
O 	O 	0.54550 0.23710 0.21900 -0.25800
O 	O 	0.47750 0.08970 0.20840 -0.44700
H 	H 	0.41380 0.12480 0.22000 0.27800
O 	O 	0.80410 0.98400 0.89770 -0.54600
H 	H 	0.80440 0.02370 0.92290 0.19600
O 	O 	0.12880 0.28420 0.02970 -0.58200
O 	O 	0.96130 0.21320 0.90140 -0.56300
H 	H 	0.98270 0.15560 0.89540 0.26700
O 	O 	0.67180 0.27330 0.01110 -0.48900
O 	O 	0.73730 0.00550 0.09450 -0.60000
H 	H 	0.77570 0.96540 0.07080 0.22700
O 	O 	0.08870 0.92540 0.77980 -0.41700
O 	O 	0.10930 0.11010 0.98820 -0.62200
O 	O 	0.83110 0.10260 0.98290 -0.60800
O 	O 	0.02810 0.01910 0.89310 -0.61000
O 	O 	0.33000 0.39910 0.63570 -0.40100
O 	O 	0.50800 0.28090 0.60940 -0.41800
O 	O 	0.34200 0.30960 0.54220 -0.41300
O 	O 	0.32700 0.22520 0.65530 -0.20700
O 	O 	0.12370 0.50370 0.68170 -0.38300
O 	O 	0.29160 0.48280 0.74860 -0.37300
O 	O 	0.09300 0.56430 0.78600 -0.41000
O 	O 	0.14540 0.38840 0.78270 -0.41800
H 	H 	0.07490 0.39150 0.79560 0.26200
O 	O 	0.67930 0.21400 0.69400 -0.32900
O 	O 	0.68560 0.12480 0.59970 -0.45700
O 	O 	0.72080 0.03960 0.70580 -0.42300
O 	O 	0.86970 0.12770 0.64510 -0.39000
H 	H 	0.89420 0.09370 0.61510 0.19300
O 	O 	0.33160 0.19120 0.45280 -0.42000
O 	O 	0.15330 0.31840 0.47360 -0.40900
O 	O 	0.14870 0.14990 0.50530 -0.30900
O 	O 	0.83650 0.78610 0.61160 -0.41400
O 	O 	0.53510 0.46480 0.60430 -0.65200
O 	O 	0.55050 0.34670 0.47980 -0.64700
O 	O 	0.31630 0.57970 0.62750 -0.59900
H 	H 	0.35400 0.60760 0.59700 0.19000
O 	O 	0.49610 0.35470 0.72690 -0.45400
O 	O 	0.70880 0.31330 0.57210 -0.60600
H 	H 	0.71480 0.36300 0.54660 0.18900
O 	O 	0.52520 0.15430 0.51830 -0.49100
O 	O 	0.34510 0.38370 0.42170 -0.61000
H 	H 	0.38150 0.42730 0.40890 0.19300
O 	O 	0.12470 0.42220 0.57260 -0.65300
H 	H 	0.05220 0.43890 0.57180 0.19200
O 	O 	0.31120 0.50620 0.51380 -0.65500
P 	P 	0.09776 0.78369 0.90912 0.48100
P 	P 	0.81160 0.81901 0.80063 0.52200
P 	P 	0.57244 0.14738 0.18760 0.54800
P 	P 	0.89555 0.42300 0.88918 0.49000
P 	P 	0.37505 0.30077 0.61187 0.50300
P 	P 	0.16283 0.48766 0.74988 0.57900
P 	P 	0.74467 0.12925 0.66015 0.52700
P 	P 	0.19792 0.21803 0.45435 0.50300
C 	C 	0.46450 0.97930 0.64560 -0.03000
H 	H 	0.44860 0.03090 0.67130 0.06400
H 	H 	0.45000 0.92350 0.67350 0.03900
C 	C 	0.38350 0.00310 0.59370 -0.01100
H 	H 	0.42630 0.01990 0.55340 0.03500
H 	H 	0.35720 0.94670 0.59000 0.00400
Cd	Cd	-0.00000 0.00000 -0.00000 1.21400
Cd	Cd	0.50000 0.50000 0.50000 1.25100
