data_crystal

_cell_length_a 22.73740
_cell_length_b 22.73740
_cell_length_c 17.82380
_cell_angle_alpha 90.00000
_cell_angle_beta  90.00000
_cell_angle_gamma 120.00000

_symmetry_space_group_name_	'P 1'
_symmetry_space_group_name_H-M	'P 1'

loop_
_symmetry_equiv_pos_as_xyz
  x,y,z

loop_
_atom_site_label
_atom_site_type_symbol
_atom_site_fract_x
_atom_site_fract_y
_atom_site_fract_z
_atom_site_charge
O 	O 	0.05050 0.24130 0.08650 -0.50900
C 	C 	0.94090 0.26920 0.20210 0.08100
H 	H 	0.90210 0.24510 0.17000 0.00200
C 	C 	0.94110 0.31130 0.25830 -0.11900
H 	H 	0.90230 0.31660 0.26590 0.06500
O 	O 	0.04200 0.20210 0.13910 -0.46500
C 	C 	0.05530 0.34090 0.28970 -0.07000
H 	H 	0.09430 0.36510 0.32140 0.05000
C 	C 	0.05610 0.29910 0.23430 0.06300
H 	H 	0.09480 0.29310 0.22830 0.01000
H 	H 	0.01870 0.10350 0.24610 0.13100
O 	O 	0.75870 0.80920 0.08650 -0.50900
C 	C 	0.73080 0.67170 0.20210 0.08100
H 	H 	0.75490 0.65700 0.17000 0.00100
C 	C 	0.68870 0.62980 0.25830 -0.11800
H 	H 	0.68340 0.58570 0.26590 0.06400
O 	O 	0.79790 0.83990 0.13910 -0.46400
C 	C 	0.65910 0.71440 0.28970 -0.07000
H 	H 	0.63490 0.72920 0.32140 0.05000
C 	C 	0.70090 0.75700 0.23430 0.06300
H 	H 	0.70690 0.80170 0.22830 0.01000
H 	H 	0.89650 0.91520 0.24610 0.12600
O 	O 	0.19080 0.94950 0.08650 -0.51300
C 	C 	0.32830 0.05910 0.20210 0.08100
H 	H 	0.34300 0.09790 0.17000 0.00100
C 	C 	0.37020 0.05890 0.25830 -0.11900
H 	H 	0.41430 0.09770 0.26590 0.06500
O 	O 	0.16010 0.95800 0.13910 -0.46800
C 	C 	0.28560 0.94470 0.28970 -0.07200
H 	H 	0.27080 0.90570 0.32140 0.05000
C 	C 	0.24300 0.94390 0.23430 0.06100
H 	H 	0.19830 0.90520 0.22830 0.01100
H 	H 	0.08480 0.98130 0.24610 0.12000
O 	O 	0.94950 0.75870 0.08650 -0.51100
C 	C 	0.05910 0.73080 0.20210 0.08100
H 	H 	0.09790 0.75490 0.17000 0.00100
C 	C 	0.05890 0.68870 0.25830 -0.11800
H 	H 	0.09770 0.68340 0.26590 0.06400
O 	O 	0.95800 0.79790 0.13910 -0.46600
C 	C 	0.94470 0.65910 0.28970 -0.07100
H 	H 	0.90570 0.63490 0.32140 0.05000
C 	C 	0.94390 0.70090 0.23430 0.06200
H 	H 	0.90520 0.70690 0.22830 0.01100
H 	H 	0.98130 0.89650 0.24610 0.12400
O 	O 	0.24130 0.19080 0.08650 -0.51000
C 	C 	0.26920 0.32830 0.20210 0.08100
H 	H 	0.24510 0.34300 0.17000 0.00100
C 	C 	0.31130 0.37020 0.25830 -0.11800
H 	H 	0.31660 0.41430 0.26590 0.06400
O 	O 	0.20210 0.16010 0.13910 -0.46500
C 	C 	0.34090 0.28560 0.28970 -0.06900
H 	H 	0.36510 0.27080 0.32140 0.05000
C 	C 	0.29910 0.24300 0.23430 0.06300
H 	H 	0.29310 0.19830 0.22830 0.01000
H 	H 	0.10350 0.08480 0.24610 0.12600
O 	O 	0.80920 0.05050 0.08650 -0.51000
C 	C 	0.67170 0.94090 0.20210 0.07900
H 	H 	0.65700 0.90210 0.17000 0.00100
C 	C 	0.62980 0.94110 0.25830 -0.12000
H 	H 	0.58570 0.90230 0.26590 0.06400
O 	O 	0.83990 0.04200 0.13910 -0.46400
C 	C 	0.71440 0.05530 0.28970 -0.07000
H 	H 	0.72920 0.09430 0.32140 0.05000
C 	C 	0.75700 0.05610 0.23430 0.06300
H 	H 	0.80170 0.09480 0.22830 0.01000
H 	H 	0.91520 0.01870 0.24610 0.12800
O 	O 	0.24130 0.05050 0.91350 -0.52700
C 	C 	0.26920 0.94090 0.79790 0.07900
H 	H 	0.24510 0.90210 0.83000 -0.00300
C 	C 	0.31130 0.94110 0.74170 -0.12500
H 	H 	0.31660 0.90230 0.73410 0.06300
O 	O 	0.20210 0.04200 0.86090 -0.46300
C 	C 	0.34090 0.05530 0.71030 -0.06500
H 	H 	0.36510 0.09430 0.67860 0.04800
C 	C 	0.29910 0.05610 0.76570 0.06800
H 	H 	0.29310 0.09480 0.77170 0.00900
H 	H 	0.10350 0.01870 0.75390 0.12900
O 	O 	0.80920 0.75870 0.91350 -0.52400
C 	C 	0.67170 0.73080 0.79790 0.07800
H 	H 	0.65700 0.75490 0.83000 -0.00200
C 	C 	0.62980 0.68870 0.74170 -0.12400
H 	H 	0.58570 0.68340 0.73410 0.06300
O 	O 	0.83990 0.79790 0.86090 -0.46300
C 	C 	0.71440 0.65910 0.71030 -0.06500
H 	H 	0.72920 0.63490 0.67860 0.04800
C 	C 	0.75700 0.70090 0.76570 0.06700
H 	H 	0.80170 0.70690 0.77170 0.00900
H 	H 	0.91520 0.89650 0.75390 0.12600
O 	O 	0.94950 0.19080 0.91350 -0.52700
C 	C 	0.05910 0.32830 0.79790 0.07800
H 	H 	0.09790 0.34300 0.83000 -0.00200
C 	C 	0.05890 0.37020 0.74170 -0.12500
H 	H 	0.09770 0.41430 0.73410 0.06400
O 	O 	0.95800 0.16010 0.86090 -0.46400
C 	C 	0.94470 0.28560 0.71030 -0.06700
H 	H 	0.90570 0.27080 0.67860 0.04900
C 	C 	0.94390 0.24300 0.76570 0.06500
H 	H 	0.90520 0.19830 0.77170 0.00900
H 	H 	0.98130 0.08480 0.75390 0.12200
O 	O 	0.75870 0.94950 0.91350 -0.52400
C 	C 	0.73080 0.05910 0.79790 0.07800
H 	H 	0.75490 0.09790 0.83000 -0.00200
C 	C 	0.68870 0.05890 0.74170 -0.12400
H 	H 	0.68340 0.09770 0.73410 0.06400
O 	O 	0.79790 0.95800 0.86090 -0.46300
C 	C 	0.65910 0.94470 0.71030 -0.06600
H 	H 	0.63490 0.90570 0.67860 0.04800
C 	C 	0.70090 0.94390 0.76570 0.06600
H 	H 	0.70690 0.90520 0.77170 0.00900
H 	H 	0.89650 0.98130 0.75390 0.12600
O 	O 	0.19080 0.24130 0.91350 -0.52700
C 	C 	0.32830 0.26920 0.79790 0.07800
H 	H 	0.34300 0.24510 0.83000 -0.00200
C 	C 	0.37020 0.31130 0.74170 -0.12400
H 	H 	0.41430 0.31660 0.73410 0.06400
O 	O 	0.16010 0.20210 0.86090 -0.46300
C 	C 	0.28560 0.34090 0.71030 -0.06500
H 	H 	0.27080 0.36510 0.67860 0.04800
C 	C 	0.24300 0.29910 0.76570 0.06700
H 	H 	0.19830 0.29310 0.77170 0.00900
H 	H 	0.08480 0.10350 0.75390 0.12600
O 	O 	0.05050 0.80920 0.91350 -0.52600
C 	C 	0.94090 0.67170 0.79790 0.07800
H 	H 	0.90210 0.65700 0.83000 -0.00200
C 	C 	0.94110 0.62980 0.74170 -0.12400
H 	H 	0.90230 0.58570 0.73410 0.06300
O 	O 	0.04200 0.83990 0.86090 -0.46200
C 	C 	0.05530 0.71440 0.71030 -0.06500
H 	H 	0.09430 0.72920 0.67860 0.04800
C 	C 	0.05610 0.75700 0.76570 0.06700
H 	H 	0.09480 0.80170 0.77170 0.00900
H 	H 	0.01870 0.91520 0.75390 0.12500
O 	O 	0.94950 0.75870 0.91350 -0.52400
C 	C 	0.05910 0.73080 0.79790 0.07800
H 	H 	0.09790 0.75490 0.83000 -0.00200
C 	C 	0.05890 0.68870 0.74170 -0.12400
H 	H 	0.09770 0.68340 0.73410 0.06400
O 	O 	0.95800 0.79790 0.86090 -0.46300
C 	C 	0.94470 0.65910 0.71030 -0.06600
H 	H 	0.90570 0.63490 0.67860 0.04800
C 	C 	0.94390 0.70090 0.76570 0.06600
H 	H 	0.90520 0.70690 0.77170 0.00900
H 	H 	0.98130 0.89650 0.75390 0.12600
O 	O 	0.24130 0.19080 0.91350 -0.52700
C 	C 	0.26920 0.32830 0.79790 0.07800
H 	H 	0.24510 0.34300 0.83000 -0.00200
C 	C 	0.31130 0.37020 0.74170 -0.12400
H 	H 	0.31660 0.41430 0.73410 0.06400
O 	O 	0.20210 0.16010 0.86090 -0.46300
C 	C 	0.34090 0.28560 0.71030 -0.06500
H 	H 	0.36510 0.27080 0.67860 0.04800
C 	C 	0.29910 0.24300 0.76570 0.06700
H 	H 	0.29310 0.19830 0.77170 0.00900
H 	H 	0.10350 0.08480 0.75390 0.12600
O 	O 	0.80920 0.05050 0.91350 -0.52600
C 	C 	0.67170 0.94090 0.79790 0.07800
H 	H 	0.65700 0.90210 0.83000 -0.00200
C 	C 	0.62980 0.94110 0.74170 -0.12400
H 	H 	0.58570 0.90230 0.73410 0.06300
O 	O 	0.83990 0.04200 0.86090 -0.46200
C 	C 	0.71440 0.05530 0.71030 -0.06500
H 	H 	0.72920 0.09430 0.67860 0.04800
C 	C 	0.75700 0.05610 0.76570 0.06700
H 	H 	0.80170 0.09480 0.77170 0.00900
H 	H 	0.91520 0.01870 0.75390 0.12500
O 	O 	0.05050 0.24130 0.91350 -0.52700
C 	C 	0.94090 0.26920 0.79790 0.07900
H 	H 	0.90210 0.24510 0.83000 -0.00300
C 	C 	0.94110 0.31130 0.74170 -0.12500
H 	H 	0.90230 0.31660 0.73410 0.06300
O 	O 	0.04200 0.20210 0.86090 -0.46300
C 	C 	0.05530 0.34090 0.71030 -0.06500
H 	H 	0.09430 0.36510 0.67860 0.04800
C 	C 	0.05610 0.29910 0.76570 0.06800
H 	H 	0.09480 0.29310 0.77170 0.00900
H 	H 	0.01870 0.10350 0.75390 0.12900
O 	O 	0.75870 0.80920 0.91350 -0.52400
C 	C 	0.73080 0.67170 0.79790 0.07800
H 	H 	0.75490 0.65700 0.83000 -0.00200
C 	C 	0.68870 0.62980 0.74170 -0.12400
H 	H 	0.68340 0.58570 0.73410 0.06300
O 	O 	0.79790 0.83990 0.86090 -0.46300
C 	C 	0.65910 0.71440 0.71030 -0.06500
H 	H 	0.63490 0.72920 0.67860 0.04800
C 	C 	0.70090 0.75700 0.76570 0.06700
H 	H 	0.70690 0.80170 0.77170 0.00900
H 	H 	0.89650 0.91520 0.75390 0.12600
O 	O 	0.19080 0.94950 0.91350 -0.52700
C 	C 	0.32830 0.05910 0.79790 0.07800
H 	H 	0.34300 0.09790 0.83000 -0.00200
C 	C 	0.37020 0.05890 0.74170 -0.12500
H 	H 	0.41430 0.09770 0.73410 0.06400
O 	O 	0.16010 0.95800 0.86090 -0.46400
C 	C 	0.28560 0.94470 0.71030 -0.06700
H 	H 	0.27080 0.90570 0.67860 0.04900
C 	C 	0.24300 0.94390 0.76570 0.06500
H 	H 	0.19830 0.90520 0.77170 0.00900
H 	H 	0.08480 0.98130 0.75390 0.12200
O 	O 	0.75870 0.94950 0.08650 -0.51100
C 	C 	0.73080 0.05910 0.20210 0.08100
H 	H 	0.75490 0.09790 0.17000 0.00100
C 	C 	0.68870 0.05890 0.25830 -0.11800
H 	H 	0.68340 0.09770 0.26590 0.06400
O 	O 	0.79790 0.95800 0.13910 -0.46600
C 	C 	0.65910 0.94470 0.28970 -0.07100
H 	H 	0.63490 0.90570 0.32140 0.05000
C 	C 	0.70090 0.94390 0.23430 0.06200
H 	H 	0.70690 0.90520 0.22830 0.01100
H 	H 	0.89650 0.98130 0.24610 0.12400
O 	O 	0.19080 0.24130 0.08650 -0.51000
C 	C 	0.32830 0.26920 0.20210 0.08100
H 	H 	0.34300 0.24510 0.17000 0.00100
C 	C 	0.37020 0.31130 0.25830 -0.11800
H 	H 	0.41430 0.31660 0.26590 0.06400
O 	O 	0.16010 0.20210 0.13910 -0.46500
C 	C 	0.28560 0.34090 0.28970 -0.06900
H 	H 	0.27080 0.36510 0.32140 0.05000
C 	C 	0.24300 0.29910 0.23430 0.06300
H 	H 	0.19830 0.29310 0.22830 0.01000
H 	H 	0.08480 0.10350 0.24610 0.12600
O 	O 	0.05050 0.80920 0.08650 -0.51000
C 	C 	0.94090 0.67170 0.20210 0.07900
H 	H 	0.90210 0.65700 0.17000 0.00100
C 	C 	0.94110 0.62980 0.25830 -0.12000
H 	H 	0.90230 0.58570 0.26590 0.06400
O 	O 	0.04200 0.83990 0.13910 -0.46400
C 	C 	0.05530 0.71440 0.28970 -0.07000
H 	H 	0.09430 0.72920 0.32140 0.05000
C 	C 	0.05610 0.75700 0.23430 0.06300
H 	H 	0.09480 0.80170 0.22830 0.01000
H 	H 	0.01870 0.91520 0.24610 0.12800
O 	O 	0.24130 0.05050 0.08650 -0.51000
C 	C 	0.26920 0.94090 0.20210 0.08000
H 	H 	0.24510 0.90210 0.17000 0.00100
C 	C 	0.31130 0.94110 0.25830 -0.12000
H 	H 	0.31660 0.90230 0.26590 0.06400
O 	O 	0.20210 0.04200 0.13910 -0.46500
C 	C 	0.34090 0.05530 0.28970 -0.07000
H 	H 	0.36510 0.09430 0.32140 0.05000
C 	C 	0.29910 0.05610 0.23430 0.06300
H 	H 	0.29310 0.09480 0.22830 0.01000
H 	H 	0.10350 0.01870 0.24610 0.13100
O 	O 	0.80920 0.75870 0.08650 -0.50900
C 	C 	0.67170 0.73080 0.20210 0.08100
H 	H 	0.65700 0.75490 0.17000 0.00100
C 	C 	0.62980 0.68870 0.25830 -0.11800
H 	H 	0.58570 0.68340 0.26590 0.06400
O 	O 	0.83990 0.79790 0.13910 -0.46400
C 	C 	0.71440 0.65910 0.28970 -0.07000
H 	H 	0.72920 0.63490 0.32140 0.05000
C 	C 	0.75700 0.70090 0.23430 0.06300
H 	H 	0.80170 0.70690 0.22830 0.01000
H 	H 	0.91520 0.89650 0.24610 0.12600
O 	O 	0.94950 0.19080 0.08650 -0.51300
C 	C 	0.05910 0.32830 0.20210 0.08100
H 	H 	0.09790 0.34300 0.17000 0.00100
C 	C 	0.05890 0.37020 0.25830 -0.11900
H 	H 	0.09770 0.41430 0.26590 0.06500
O 	O 	0.95800 0.16010 0.13910 -0.46800
C 	C 	0.94470 0.28560 0.28970 -0.07200
H 	H 	0.90570 0.27080 0.32140 0.05000
C 	C 	0.94390 0.24300 0.23430 0.06100
H 	H 	0.90520 0.19830 0.22830 0.01100
H 	H 	0.98130 0.08480 0.24610 0.12000
Dy	Dy	0.05632 0.11264 0.10739 0.80700
O 	O 	0.04095 0.08190 0.22550 -0.39800
H 	H 	0.16535 0.33070 0.96040 0.59400
Dy	Dy	0.88736 0.94368 0.10739 0.80000
O 	O 	0.91810 0.95905 0.22550 -0.39800
H 	H 	0.66930 0.83465 0.96040 0.60100
Dy	Dy	0.05632 0.94368 0.10739 0.79400
O 	O 	0.04095 0.95905 0.22550 -0.39700
H 	H 	0.16535 0.83465 0.96040 0.59800
Dy	Dy	0.94368 0.88736 0.10739 0.80000
O 	O 	0.95905 0.91810 0.22550 -0.39800
H 	H 	0.83465 0.66930 0.96040 0.60100
Dy	Dy	0.11264 0.05632 0.10739 0.80700
O 	O 	0.08190 0.04095 0.22550 -0.39800
H 	H 	0.33070 0.16535 0.96040 0.59400
Dy	Dy	0.94368 0.05632 0.10739 0.79400
O 	O 	0.95905 0.04095 0.22550 -0.39700
H 	H 	0.83465 0.16535 0.96040 0.59800
Dy	Dy	0.11264 0.05632 0.89261 0.77900
O 	O 	0.08190 0.04095 0.77450 -0.39500
H 	H 	0.33070 0.16535 0.03960 0.62100
Dy	Dy	0.94368 0.88736 0.89261 0.78200
O 	O 	0.95905 0.91810 0.77450 -0.39500
H 	H 	0.83465 0.66930 0.03960 0.62500
Dy	Dy	0.94368 0.05632 0.89261 0.77200
O 	O 	0.95905 0.04095 0.77450 -0.39400
H 	H 	0.83465 0.16535 0.03960 0.62300
Dy	Dy	0.88736 0.94368 0.89261 0.78200
O 	O 	0.91810 0.95905 0.77450 -0.39500
H 	H 	0.66930 0.83465 0.03960 0.62500
Dy	Dy	0.05632 0.11264 0.89261 0.77900
O 	O 	0.04095 0.08190 0.77450 -0.39500
H 	H 	0.16535 0.33070 0.03960 0.62100
Dy	Dy	0.05632 0.94368 0.89261 0.77200
O 	O 	0.04095 0.95905 0.77450 -0.39400
H 	H 	0.16535 0.83465 0.03960 0.62300
Dy	Dy	0.10285 0.20570 -0.00000 2.18900
Dy	Dy	0.79430 0.89715 -0.00000 2.18000
Dy	Dy	0.10285 0.89715 -0.00000 2.18600
Dy	Dy	0.89715 0.79430 -0.00000 2.18000
Dy	Dy	0.20570 0.10285 -0.00000 2.18900
Dy	Dy	0.89715 0.10285 -0.00000 2.18600
N 	N 	0.00000 0.40710 0.50000 -0.15200
N 	N 	0.59290 0.59290 0.50000 -0.15200
N 	N 	0.40710 -0.00000 0.50000 -0.15200
N 	N 	0.00000 0.59290 0.50000 -0.15200
N 	N 	0.40710 0.40710 0.50000 -0.15200
N 	N 	0.59290 -0.00000 0.50000 -0.15200
N 	N 	-0.00000 0.50000 0.38650 -0.23700
H 	H 	0.00000 0.50000 0.43470 0.14900
N 	N 	0.50000 0.50000 0.38650 -0.23700
H 	H 	0.50000 0.50000 0.43470 0.14900
N 	N 	0.50000 -0.00000 0.38650 -0.23700
H 	H 	0.50000 -0.00000 0.43470 0.14900
N 	N 	0.50000 0.00000 0.61350 -0.23700
H 	H 	0.50000 0.00000 0.56530 0.14900
N 	N 	0.50000 0.50000 0.61350 -0.23700
H 	H 	0.50000 0.50000 0.56530 0.14900
N 	N 	0.00000 0.50000 0.61350 -0.23700
H 	H 	0.00000 0.50000 0.56530 0.14900
O 	O 	-0.00000 0.12150 -0.00000 -0.97000
O 	O 	0.87850 0.87850 -0.00000 -0.97500
O 	O 	0.12150 0.00000 -0.00000 -0.97000
O 	O 	0.00000 0.87850 -0.00000 -0.97200
O 	O 	0.12150 0.12150 -0.00000 -0.97400
O 	O 	0.87850 0.00000 -0.00000 -0.97200
O 	O 	-0.00000 -0.00000 0.07430 -0.89000
H 	H 	-0.00000 0.00000 0.02670 0.21000
O 	O 	-0.00000 0.00000 0.92570 -0.86200
H 	H 	-0.00000 -0.00000 0.97330 0.14800
O 	O 	0.14230 0.32150 -0.00000 -0.71000
O 	O 	0.67850 0.82080 -0.00000 -0.71600
O 	O 	0.17920 0.85770 -0.00000 -0.71500
O 	O 	0.85770 0.67850 -0.00000 -0.71600
O 	O 	0.32150 0.17920 -0.00000 -0.71100
O 	O 	0.82080 0.14230 -0.00000 -0.71300
O 	O 	0.32150 0.14230 -0.00000 -0.71000
O 	O 	0.82080 0.67850 -0.00000 -0.71600
O 	O 	0.85770 0.17920 -0.00000 -0.71500
O 	O 	0.67850 0.85770 -0.00000 -0.71600
O 	O 	0.17920 0.32150 -0.00000 -0.71100
O 	O 	0.14230 0.82080 -0.00000 -0.71300
C 	C 	-0.00000 0.21850 0.12840 1.03400
C 	C 	-0.00000 0.26530 0.19180 -0.31800
C 	C 	0.00000 0.34740 0.30330 0.13100
C 	C 	-0.00000 0.39330 0.36460 -0.13900
C 	C 	0.00000 0.37250 0.43980 0.11700
C 	C 	-0.00000 0.31350 0.46460 -0.08700
H 	H 	-0.00000 0.28030 0.43410 0.06000
C 	C 	-0.00000 0.45200 0.34210 0.13900
C 	C 	-0.00000 0.47210 0.26640 -0.09000
H 	H 	0.00000 0.44820 0.22400 0.06700
C 	C 	0.78150 0.78150 0.12840 1.02500
C 	C 	0.73470 0.73470 0.19180 -0.32000
C 	C 	0.65260 0.65260 0.30330 0.12700
C 	C 	0.60670 0.60670 0.36460 -0.13800
C 	C 	0.62750 0.62750 0.43980 0.11600
C 	C 	0.68650 0.68650 0.46460 -0.08700
H 	H 	0.71970 0.71970 0.43410 0.05800
C 	C 	0.54800 0.54800 0.34210 0.13800
C 	C 	0.52790 0.52790 0.26640 -0.09000
H 	H 	0.55180 0.55180 0.22400 0.06700
C 	C 	0.21850 0.00000 0.12840 1.03400
C 	C 	0.26530 0.00000 0.19180 -0.31800
C 	C 	0.34740 0.00000 0.30330 0.13100
C 	C 	0.39330 0.00000 0.36460 -0.13900
C 	C 	0.37250 -0.00000 0.43980 0.11700
C 	C 	0.31350 -0.00000 0.46460 -0.08700
H 	H 	0.28030 0.00000 0.43410 0.06000
C 	C 	0.45200 0.00000 0.34210 0.13900
C 	C 	0.47210 0.00000 0.26640 -0.09000
H 	H 	0.44820 0.00000 0.22400 0.06700
C 	C 	-0.00000 0.78150 0.12840 1.03000
C 	C 	-0.00000 0.73470 0.19180 -0.31800
C 	C 	0.00000 0.65260 0.30330 0.13000
C 	C 	0.00000 0.60670 0.36460 -0.13900
C 	C 	0.00000 0.62750 0.43980 0.11700
C 	C 	0.00000 0.68650 0.46460 -0.08700
H 	H 	-0.00000 0.71970 0.43410 0.05900
C 	C 	0.00000 0.54800 0.34210 0.13900
C 	C 	-0.00000 0.52790 0.26640 -0.09000
H 	H 	0.00000 0.55180 0.22400 0.06700
C 	C 	0.21850 0.21850 0.12840 1.02700
C 	C 	0.26530 0.26530 0.19180 -0.32100
C 	C 	0.34740 0.34740 0.30330 0.12700
C 	C 	0.39330 0.39330 0.36460 -0.13800
C 	C 	0.37250 0.37250 0.43980 0.11600
C 	C 	0.31350 0.31350 0.46460 -0.08700
H 	H 	0.28030 0.28030 0.43410 0.05900
C 	C 	0.45200 0.45200 0.34210 0.13800
C 	C 	0.47210 0.47210 0.26640 -0.09000
H 	H 	0.44820 0.44820 0.22400 0.06700
C 	C 	0.78150 0.00000 0.12840 1.03000
C 	C 	0.73470 0.00000 0.19180 -0.31800
C 	C 	0.65260 0.00000 0.30330 0.13000
C 	C 	0.60670 0.00000 0.36460 -0.13900
C 	C 	0.62750 -0.00000 0.43980 0.11700
C 	C 	0.68650 -0.00000 0.46460 -0.08700
H 	H 	0.71970 0.00000 0.43410 0.05900
C 	C 	0.54800 0.00000 0.34210 0.13900
C 	C 	0.52790 0.00000 0.26640 -0.09000
H 	H 	0.55180 0.00000 0.22400 0.06700
C 	C 	0.21850 -0.00000 0.87160 1.03600
C 	C 	0.26530 -0.00000 0.80820 -0.32500
C 	C 	0.34740 0.00000 0.69670 0.12900
C 	C 	0.39330 0.00000 0.63540 -0.13900
C 	C 	0.37250 -0.00000 0.56020 0.11600
C 	C 	0.31350 0.00000 0.53540 -0.08600
H 	H 	0.28030 -0.00000 0.56590 0.05900
C 	C 	0.45200 -0.00000 0.65790 0.13800
C 	C 	0.47210 -0.00000 0.73360 -0.09200
H 	H 	0.44820 0.00000 0.77600 0.06200
C 	C 	0.78150 0.78150 0.87160 1.03200
C 	C 	0.73470 0.73470 0.80820 -0.32600
C 	C 	0.65260 0.65260 0.69670 0.12600
C 	C 	0.60670 0.60670 0.63540 -0.13800
C 	C 	0.62750 0.62750 0.56020 0.11600
C 	C 	0.68650 0.68650 0.53540 -0.08600
H 	H 	0.71970 0.71970 0.56590 0.05800
C 	C 	0.54800 0.54800 0.65790 0.13700
C 	C 	0.52790 0.52790 0.73360 -0.09200
H 	H 	0.55180 0.55180 0.77600 0.06200
C 	C 	0.00000 0.21850 0.87160 1.03600
C 	C 	-0.00000 0.26530 0.80820 -0.32500
C 	C 	0.00000 0.34740 0.69670 0.12900
C 	C 	-0.00000 0.39330 0.63540 -0.13900
C 	C 	0.00000 0.37250 0.56020 0.11600
C 	C 	-0.00000 0.31350 0.53540 -0.08600
H 	H 	-0.00000 0.28030 0.56590 0.05900
C 	C 	0.00000 0.45200 0.65790 0.13800
C 	C 	0.00000 0.47210 0.73360 -0.09200
H 	H 	0.00000 0.44820 0.77600 0.06200
C 	C 	0.78150 -0.00000 0.87160 1.03200
C 	C 	0.73470 -0.00000 0.80820 -0.32500
C 	C 	0.65260 0.00000 0.69670 0.12800
C 	C 	0.60670 0.00000 0.63540 -0.13800
C 	C 	0.62750 -0.00000 0.56020 0.11600
C 	C 	0.68650 0.00000 0.53540 -0.08600
H 	H 	0.71970 -0.00000 0.56590 0.05800
C 	C 	0.54800 -0.00000 0.65790 0.13700
C 	C 	0.52790 -0.00000 0.73360 -0.09100
H 	H 	0.55180 0.00000 0.77600 0.06200
C 	C 	0.21850 0.21850 0.87160 1.03400
C 	C 	0.26530 0.26530 0.80820 -0.32700
C 	C 	0.34740 0.34740 0.69670 0.12600
C 	C 	0.39330 0.39330 0.63540 -0.13800
C 	C 	0.37250 0.37250 0.56020 0.11600
C 	C 	0.31350 0.31350 0.53540 -0.08600
H 	H 	0.28030 0.28030 0.56590 0.05800
C 	C 	0.45200 0.45200 0.65790 0.13700
C 	C 	0.47210 0.47210 0.73360 -0.09100
H 	H 	0.44820 0.44820 0.77600 0.06200
C 	C 	0.00000 0.78150 0.87160 1.03200
C 	C 	-0.00000 0.73470 0.80820 -0.32500
C 	C 	0.00000 0.65260 0.69670 0.12800
C 	C 	0.00000 0.60670 0.63540 -0.13800
C 	C 	0.00000 0.62750 0.56020 0.11600
C 	C 	0.00000 0.68650 0.53540 -0.08600
H 	H 	-0.00000 0.71970 0.56590 0.05800
C 	C 	0.00000 0.54800 0.65790 0.13700
C 	C 	0.00000 0.52790 0.73360 -0.09100
H 	H 	0.00000 0.55180 0.77600 0.06200
