data_crystal

_cell_length_a 22.04500
_cell_length_b 22.04500
_cell_length_c 21.76800
_cell_angle_alpha 90.00000
_cell_angle_beta  90.00000
_cell_angle_gamma 120.00000

_symmetry_space_group_name_	'P 1'
_symmetry_space_group_name_H-M	'P 1'

loop_
_symmetry_equiv_pos_as_xyz
  x,y,z

loop_
_atom_site_label
_atom_site_type_symbol
_atom_site_fract_x
_atom_site_fract_y
_atom_site_fract_z
_atom_site_charge
O 	O 	0.59406 0.20389 0.18512 -0.51600
O 	O 	0.53641 0.26370 0.18580 -0.51700
C 	C 	0.54860 0.21710 0.16620 0.44200
C 	C 	0.50360 0.17360 0.11390 -0.13600
C 	C 	0.51720 0.12600 0.08570 0.07400
H 	H 	0.55570 0.12190 0.09990 0.02400
N 	N 	0.47830 0.08460 0.03870 -0.21700
C 	C 	0.42290 0.09070 0.02120 -0.03700
H 	H 	0.39390 0.06110 0.98920 0.07800
C 	C 	0.40580 0.13710 0.04670 -0.06800
H 	H 	0.36670 0.13990 0.03190 0.03700
C 	C 	0.44650 0.17990 0.09450 0.03200
H 	H 	0.43580 0.21230 0.11340 0.03400
O 	O 	0.79611 0.39017 0.18512 -0.51500
O 	O 	0.73630 0.27271 0.18580 -0.51700
C 	C 	0.78290 0.33150 0.16620 0.44100
C 	C 	0.82640 0.33000 0.11390 -0.13500
C 	C 	0.87400 0.39120 0.08570 0.07600
H 	H 	0.87810 0.43380 0.09990 0.02700
N 	N 	0.91540 0.39370 0.03870 -0.21300
C 	C 	0.90930 0.33220 0.02120 -0.03100
H 	H 	0.93890 0.33280 0.98920 0.08100
C 	C 	0.86290 0.26870 0.04670 -0.06800
H 	H 	0.86010 0.22680 0.03190 0.04000
C 	C 	0.82010 0.26660 0.09450 0.03400
H 	H 	0.78770 0.22350 0.11340 0.03400
O 	O 	0.60983 0.40594 0.18512 -0.51600
O 	O 	0.72729 0.46359 0.18580 -0.51600
C 	C 	0.66850 0.45140 0.16620 0.44100
C 	C 	0.67000 0.49640 0.11390 -0.13500
C 	C 	0.60880 0.48280 0.08570 0.07500
H 	H 	0.56620 0.44430 0.09990 0.02400
N 	N 	0.60630 0.52170 0.03870 -0.21600
C 	C 	0.66780 0.57710 0.02120 -0.03300
H 	H 	0.66720 0.60610 0.98920 0.07900
C 	C 	0.73130 0.59420 0.04670 -0.06800
H 	H 	0.77320 0.63330 0.03190 0.04100
C 	C 	0.73340 0.55350 0.09450 0.03400
H 	H 	0.77650 0.56420 0.11340 0.03600
O 	O 	0.40594 0.79611 0.68512 -0.51500
O 	O 	0.46359 0.73630 0.68580 -0.51600
C 	C 	0.45140 0.78290 0.66620 0.44800
C 	C 	0.49640 0.82640 0.61390 -0.15000
C 	C 	0.48280 0.87400 0.58570 0.09000
H 	H 	0.44430 0.87810 0.59990 0.02700
N 	N 	0.52170 0.91540 0.53870 -0.22400
C 	C 	0.57710 0.90930 0.52120 0.07300
H 	H 	0.60610 0.93890 0.48920 0.01700
C 	C 	0.59420 0.86290 0.54670 -0.12400
H 	H 	0.63330 0.86010 0.53190 0.07600
C 	C 	0.55350 0.82010 0.59450 0.07200
H 	H 	0.56420 0.78770 0.61340 0.02800
O 	O 	0.20389 0.60983 0.68512 -0.51600
O 	O 	0.26370 0.72729 0.68580 -0.51600
C 	C 	0.21710 0.66850 0.66620 0.44800
C 	C 	0.17360 0.67000 0.61390 -0.15100
C 	C 	0.12600 0.60880 0.58570 0.08900
H 	H 	0.12190 0.56620 0.59990 0.02400
N 	N 	0.08460 0.60630 0.53870 -0.22800
C 	C 	0.09070 0.66780 0.52120 0.07200
H 	H 	0.06110 0.66720 0.48920 0.01100
C 	C 	0.13710 0.73130 0.54670 -0.12600
H 	H 	0.13990 0.77320 0.53190 0.07400
C 	C 	0.17990 0.73340 0.59450 0.07200
H 	H 	0.21230 0.77650 0.61340 0.02700
O 	O 	0.39017 0.59406 0.68512 -0.51600
O 	O 	0.27271 0.53641 0.68580 -0.51700
C 	C 	0.33150 0.54860 0.66620 0.44800
C 	C 	0.33000 0.50360 0.61390 -0.15100
C 	C 	0.39120 0.51720 0.58570 0.08900
H 	H 	0.43380 0.55570 0.59990 0.02400
N 	N 	0.39370 0.47830 0.53870 -0.22800
C 	C 	0.33220 0.42290 0.52120 0.07200
H 	H 	0.33280 0.39390 0.48920 0.01300
C 	C 	0.26870 0.40580 0.54670 -0.12600
H 	H 	0.22680 0.36670 0.53190 0.07300
C 	C 	0.26660 0.44650 0.59450 0.07200
H 	H 	0.22350 0.43580 0.61340 0.02600
O 	O 	0.20389 0.59406 0.31488 -0.51700
O 	O 	0.26370 0.53641 0.31420 -0.51800
C 	C 	0.21710 0.54860 0.33380 0.44800
C 	C 	0.17360 0.50360 0.38610 -0.15200
C 	C 	0.12600 0.51720 0.41430 0.08900
H 	H 	0.12190 0.55570 0.40010 0.02400
N 	N 	0.08460 0.47830 0.46130 -0.22800
C 	C 	0.09070 0.42290 0.47880 0.07100
H 	H 	0.06110 0.39390 0.51080 0.01100
C 	C 	0.13710 0.40580 0.45330 -0.12700
H 	H 	0.13990 0.36670 0.46810 0.07300
C 	C 	0.17990 0.44650 0.40550 0.07200
H 	H 	0.21230 0.43580 0.38660 0.02500
O 	O 	0.39017 0.79611 0.31488 -0.51500
O 	O 	0.27271 0.73630 0.31420 -0.51700
C 	C 	0.33150 0.78290 0.33380 0.44800
C 	C 	0.33000 0.82640 0.38610 -0.15000
C 	C 	0.39120 0.87400 0.41430 0.09000
H 	H 	0.43380 0.87810 0.40010 0.02600
N 	N 	0.39370 0.91540 0.46130 -0.22400
C 	C 	0.33220 0.90930 0.47880 0.07300
H 	H 	0.33280 0.93890 0.51080 0.01700
C 	C 	0.26870 0.86290 0.45330 -0.12500
H 	H 	0.22680 0.86010 0.46810 0.07500
C 	C 	0.26660 0.82010 0.40550 0.07200
H 	H 	0.22350 0.78770 0.38660 0.02600
O 	O 	0.40594 0.60983 0.31488 -0.51600
O 	O 	0.46359 0.72729 0.31420 -0.51600
C 	C 	0.45140 0.66850 0.33380 0.44800
C 	C 	0.49640 0.67000 0.38610 -0.15100
C 	C 	0.48280 0.60880 0.41430 0.09000
H 	H 	0.44430 0.56620 0.40010 0.02400
N 	N 	0.52170 0.60630 0.46130 -0.22800
C 	C 	0.57710 0.66780 0.47880 0.07300
H 	H 	0.60610 0.66720 0.51080 0.01400
C 	C 	0.59420 0.73130 0.45330 -0.12500
H 	H 	0.63330 0.77320 0.46810 0.07600
C 	C 	0.55350 0.73340 0.40550 0.07200
H 	H 	0.56420 0.77650 0.38660 0.02700
O 	O 	0.79611 0.40594 0.81488 -0.51400
O 	O 	0.73630 0.46359 0.81420 -0.51600
C 	C 	0.78290 0.45140 0.83380 0.45600
C 	C 	0.82640 0.49640 0.88610 -0.16500
C 	C 	0.87400 0.48280 0.91430 0.10500
H 	H 	0.87810 0.44430 0.90010 0.02700
N 	N 	0.91540 0.52170 0.96130 -0.23200
C 	C 	0.90930 0.57710 0.97880 0.17700
H 	H 	0.93890 0.60610 0.01080 -0.04500
C 	C 	0.86290 0.59420 0.95330 -0.18000
H 	H 	0.86010 0.63330 0.96810 0.11100
C 	C 	0.82010 0.55350 0.90550 0.11000
H 	H 	0.78770 0.56420 0.88660 0.01900
O 	O 	0.60983 0.20389 0.81488 -0.51600
O 	O 	0.72729 0.26370 0.81420 -0.51600
C 	C 	0.66850 0.21710 0.83380 0.45500
C 	C 	0.67000 0.17360 0.88610 -0.16700
C 	C 	0.60880 0.12600 0.91430 0.10400
H 	H 	0.56620 0.12190 0.90010 0.02500
N 	N 	0.60630 0.08460 0.96130 -0.23600
C 	C 	0.66780 0.09070 0.97880 0.17900
H 	H 	0.66720 0.06110 0.01080 -0.05300
C 	C 	0.73130 0.13710 0.95330 -0.18400
H 	H 	0.77320 0.13990 0.96810 0.11000
C 	C 	0.73340 0.17990 0.90550 0.11000
H 	H 	0.77650 0.21230 0.88660 0.01900
O 	O 	0.59406 0.39017 0.81488 -0.51600
O 	O 	0.53641 0.27271 0.81420 -0.51700
C 	C 	0.54860 0.33150 0.83380 0.45600
C 	C 	0.50360 0.33000 0.88610 -0.16700
C 	C 	0.51720 0.39120 0.91430 0.10500
H 	H 	0.55570 0.43380 0.90010 0.02500
N 	N 	0.47830 0.39370 0.96130 -0.23600
C 	C 	0.42290 0.33220 0.97880 0.18100
H 	H 	0.39390 0.33280 0.01080 -0.05300
C 	C 	0.40580 0.26870 0.95330 -0.18400
H 	H 	0.36670 0.22680 0.96810 0.11000
C 	C 	0.44650 0.26660 0.90550 0.11100
H 	H 	0.43580 0.22350 0.88660 0.01700
O 	O 	0.40594 0.79611 0.81488 -0.51400
O 	O 	0.46359 0.73630 0.81420 -0.51600
C 	C 	0.45140 0.78290 0.83380 0.45600
C 	C 	0.49640 0.82640 0.88610 -0.16500
C 	C 	0.48280 0.87400 0.91430 0.10500
H 	H 	0.44430 0.87810 0.90010 0.02700
N 	N 	0.52170 0.91540 0.96130 -0.23200
C 	C 	0.57710 0.90930 0.97880 0.17700
H 	H 	0.60610 0.93890 0.01080 -0.04500
C 	C 	0.59420 0.86290 0.95330 -0.18000
H 	H 	0.63330 0.86010 0.96810 0.11100
C 	C 	0.55350 0.82010 0.90550 0.11000
H 	H 	0.56420 0.78770 0.88660 0.01900
O 	O 	0.20389 0.60983 0.81488 -0.51600
O 	O 	0.26370 0.72729 0.81420 -0.51600
C 	C 	0.21710 0.66850 0.83380 0.45500
C 	C 	0.17360 0.67000 0.88610 -0.16700
C 	C 	0.12600 0.60880 0.91430 0.10400
H 	H 	0.12190 0.56620 0.90010 0.02500
N 	N 	0.08460 0.60630 0.96130 -0.23600
C 	C 	0.09070 0.66780 0.97880 0.17900
H 	H 	0.06110 0.66720 0.01080 -0.05300
C 	C 	0.13710 0.73130 0.95330 -0.18400
H 	H 	0.13990 0.77320 0.96810 0.11000
C 	C 	0.17990 0.73340 0.90550 0.11000
H 	H 	0.21230 0.77650 0.88660 0.01900
O 	O 	0.39017 0.59406 0.81488 -0.51600
O 	O 	0.27271 0.53641 0.81420 -0.51700
C 	C 	0.33150 0.54860 0.83380 0.45600
C 	C 	0.33000 0.50360 0.88610 -0.16700
C 	C 	0.39120 0.51720 0.91430 0.10500
H 	H 	0.43380 0.55570 0.90010 0.02500
N 	N 	0.39370 0.47830 0.96130 -0.23600
C 	C 	0.33220 0.42290 0.97880 0.18100
H 	H 	0.33280 0.39390 0.01080 -0.05300
C 	C 	0.26870 0.40580 0.95330 -0.18400
H 	H 	0.22680 0.36670 0.96810 0.11000
C 	C 	0.26660 0.44650 0.90550 0.11100
H 	H 	0.22350 0.43580 0.88660 0.01700
O 	O 	0.59406 0.20389 0.31488 -0.51700
O 	O 	0.53641 0.26370 0.31420 -0.51800
C 	C 	0.54860 0.21710 0.33380 0.44800
C 	C 	0.50360 0.17360 0.38610 -0.15200
C 	C 	0.51720 0.12600 0.41430 0.08900
H 	H 	0.55570 0.12190 0.40010 0.02400
N 	N 	0.47830 0.08460 0.46130 -0.22800
C 	C 	0.42290 0.09070 0.47880 0.07100
H 	H 	0.39390 0.06110 0.51080 0.01100
C 	C 	0.40580 0.13710 0.45330 -0.12700
H 	H 	0.36670 0.13990 0.46810 0.07300
C 	C 	0.44650 0.17990 0.40550 0.07200
H 	H 	0.43580 0.21230 0.38660 0.02500
O 	O 	0.79611 0.39017 0.31488 -0.51500
O 	O 	0.73630 0.27271 0.31420 -0.51700
C 	C 	0.78290 0.33150 0.33380 0.44800
C 	C 	0.82640 0.33000 0.38610 -0.15000
C 	C 	0.87400 0.39120 0.41430 0.09000
H 	H 	0.87810 0.43380 0.40010 0.02600
N 	N 	0.91540 0.39370 0.46130 -0.22400
C 	C 	0.90930 0.33220 0.47880 0.07300
H 	H 	0.93890 0.33280 0.51080 0.01700
C 	C 	0.86290 0.26870 0.45330 -0.12500
H 	H 	0.86010 0.22680 0.46810 0.07500
C 	C 	0.82010 0.26660 0.40550 0.07200
H 	H 	0.78770 0.22350 0.38660 0.02600
O 	O 	0.60983 0.40594 0.31488 -0.51600
O 	O 	0.72729 0.46359 0.31420 -0.51600
C 	C 	0.66850 0.45140 0.33380 0.44800
C 	C 	0.67000 0.49640 0.38610 -0.15100
C 	C 	0.60880 0.48280 0.41430 0.09000
H 	H 	0.56620 0.44430 0.40010 0.02400
N 	N 	0.60630 0.52170 0.46130 -0.22800
C 	C 	0.66780 0.57710 0.47880 0.07300
H 	H 	0.66720 0.60610 0.51080 0.01400
C 	C 	0.73130 0.59420 0.45330 -0.12500
H 	H 	0.77320 0.63330 0.46810 0.07600
C 	C 	0.73340 0.55350 0.40550 0.07200
H 	H 	0.77650 0.56420 0.38660 0.02700
O 	O 	0.79611 0.40594 0.68512 -0.51500
O 	O 	0.73630 0.46359 0.68580 -0.51600
C 	C 	0.78290 0.45140 0.66620 0.44800
C 	C 	0.82640 0.49640 0.61390 -0.15000
C 	C 	0.87400 0.48280 0.58570 0.09000
H 	H 	0.87810 0.44430 0.59990 0.02700
N 	N 	0.91540 0.52170 0.53870 -0.22400
C 	C 	0.90930 0.57710 0.52120 0.07300
H 	H 	0.93890 0.60610 0.48920 0.01700
C 	C 	0.86290 0.59420 0.54670 -0.12400
H 	H 	0.86010 0.63330 0.53190 0.07600
C 	C 	0.82010 0.55350 0.59450 0.07200
H 	H 	0.78770 0.56420 0.61340 0.02800
O 	O 	0.60983 0.20389 0.68512 -0.51600
O 	O 	0.72729 0.26370 0.68580 -0.51600
C 	C 	0.66850 0.21710 0.66620 0.44800
C 	C 	0.67000 0.17360 0.61390 -0.15100
C 	C 	0.60880 0.12600 0.58570 0.08900
H 	H 	0.56620 0.12190 0.59990 0.02400
N 	N 	0.60630 0.08460 0.53870 -0.22800
C 	C 	0.66780 0.09070 0.52120 0.07200
H 	H 	0.66720 0.06110 0.48920 0.01100
C 	C 	0.73130 0.13710 0.54670 -0.12600
H 	H 	0.77320 0.13990 0.53190 0.07400
C 	C 	0.73340 0.17990 0.59450 0.07200
H 	H 	0.77650 0.21230 0.61340 0.02700
O 	O 	0.59406 0.39017 0.68512 -0.51600
O 	O 	0.53641 0.27271 0.68580 -0.51700
C 	C 	0.54860 0.33150 0.66620 0.44800
C 	C 	0.50360 0.33000 0.61390 -0.15100
C 	C 	0.51720 0.39120 0.58570 0.08900
H 	H 	0.55570 0.43380 0.59990 0.02400
N 	N 	0.47830 0.39370 0.53870 -0.22800
C 	C 	0.42290 0.33220 0.52120 0.07200
H 	H 	0.39390 0.33280 0.48920 0.01300
C 	C 	0.40580 0.26870 0.54670 -0.12600
H 	H 	0.36670 0.22680 0.53190 0.07300
C 	C 	0.44650 0.26660 0.59450 0.07200
H 	H 	0.43580 0.22350 0.61340 0.02600
O 	O 	0.20389 0.59406 0.18512 -0.51700
O 	O 	0.26370 0.53641 0.18580 -0.51800
C 	C 	0.21710 0.54860 0.16620 0.44100
C 	C 	0.17360 0.50360 0.11390 -0.13600
C 	C 	0.12600 0.51720 0.08570 0.07400
H 	H 	0.12190 0.55570 0.09990 0.02400
N 	N 	0.08460 0.47830 0.03870 -0.21700
C 	C 	0.09070 0.42290 0.02120 -0.03700
H 	H 	0.06110 0.39390 0.98920 0.07800
C 	C 	0.13710 0.40580 0.04670 -0.06800
H 	H 	0.13990 0.36670 0.03190 0.03700
C 	C 	0.17990 0.44650 0.09450 0.03200
H 	H 	0.21230 0.43580 0.11340 0.03400
O 	O 	0.39017 0.79611 0.18512 -0.51500
O 	O 	0.27271 0.73630 0.18580 -0.51700
C 	C 	0.33150 0.78290 0.16620 0.44100
C 	C 	0.33000 0.82640 0.11390 -0.13500
C 	C 	0.39120 0.87400 0.08570 0.07600
H 	H 	0.43380 0.87810 0.09990 0.02700
N 	N 	0.39370 0.91540 0.03870 -0.21300
C 	C 	0.33220 0.90930 0.02120 -0.03100
H 	H 	0.33280 0.93890 0.98920 0.08100
C 	C 	0.26870 0.86290 0.04670 -0.06800
H 	H 	0.22680 0.86010 0.03190 0.04000
C 	C 	0.26660 0.82010 0.09450 0.03400
H 	H 	0.22350 0.78770 0.11340 0.03400
O 	O 	0.40594 0.60983 0.18512 -0.51600
O 	O 	0.46359 0.72729 0.18580 -0.51600
C 	C 	0.45140 0.66850 0.16620 0.44100
C 	C 	0.49640 0.67000 0.11390 -0.13500
C 	C 	0.48280 0.60880 0.08570 0.07500
H 	H 	0.44430 0.56620 0.09990 0.02400
N 	N 	0.52170 0.60630 0.03870 -0.21600
C 	C 	0.57710 0.66780 0.02120 -0.03300
H 	H 	0.60610 0.66720 0.98920 0.07900
C 	C 	0.59420 0.73130 0.04670 -0.06800
H 	H 	0.63330 0.77320 0.03190 0.04100
C 	C 	0.55350 0.73340 0.09450 0.03400
H 	H 	0.56420 0.77650 0.11340 0.03600
Mn	Mn	0.50000 0.00000 -0.00000 1.24800
Mn	Mn	-0.00000 0.50000 -0.00000 1.24800
Mn	Mn	0.50000 0.50000 -0.00000 1.25100
Mn	Mn	0.50000 0.00000 0.50000 1.26500
Mn	Mn	0.00000 0.50000 0.50000 1.26500
Mn	Mn	0.50000 0.50000 0.50000 1.26800
Cl	Cl	0.55939 0.00000 0.09714 -0.50600
Cl	Cl	0.00000 0.55939 0.09714 -0.50600
Cl	Cl	0.44061 0.44061 0.09714 -0.49900
Cl	Cl	0.44061 0.00000 0.59714 -0.49600
Cl	Cl	0.00000 0.44061 0.59714 -0.49600
Cl	Cl	0.55939 0.55939 0.59714 -0.48700
Cl	Cl	0.00000 0.55939 0.40286 -0.49700
Cl	Cl	0.55939 0.00000 0.40286 -0.49700
Cl	Cl	0.44061 0.44061 0.40286 -0.48900
Cl	Cl	0.00000 0.44061 0.90286 -0.48000
Cl	Cl	0.44061 0.00000 0.90286 -0.48000
Cl	Cl	0.55939 0.55939 0.90286 -0.47100
Cr	Cr	0.66517 0.24606 0.25000 1.55800
Cr	Cr	0.75394 0.41911 0.25000 1.55900
Cr	Cr	0.58089 0.33483 0.25000 1.55800
Cr	Cr	0.33483 0.75394 0.75000 1.56000
Cr	Cr	0.24606 0.58089 0.75000 1.55900
Cr	Cr	0.41911 0.66517 0.75000 1.55900
Cr	Cr	0.24606 0.66517 0.25000 1.55800
Cr	Cr	0.41911 0.75394 0.25000 1.55900
Cr	Cr	0.33483 0.58089 0.25000 1.55800
Cr	Cr	0.75394 0.33483 0.75000 1.56000
Cr	Cr	0.58089 0.24606 0.75000 1.55900
Cr	Cr	0.66517 0.41911 0.75000 1.55900
O 	O 	0.66667 0.33333 0.25000 -0.81700
O 	O 	0.33333 0.66667 0.75000 -0.81600
O 	O 	0.33333 0.66667 0.25000 -0.81700
O 	O 	0.66667 0.33333 0.75000 -0.81600
