data_crystal

_cell_length_a 23.75100
_cell_length_b 30.60700
_cell_length_c 23.76400
_cell_angle_alpha 90.00000
_cell_angle_beta  90.00000
_cell_angle_gamma 90.00000

_symmetry_space_group_name_	'P 1'
_symmetry_space_group_name_H-M	'P 1'

loop_
_symmetry_equiv_pos_as_xyz
  x,y,z

loop_
_atom_site_label
_atom_site_type_symbol
_atom_site_fract_x
_atom_site_fract_y
_atom_site_fract_z
_atom_site_charge
N 	N 	0.62950 0.30930 0.69310 -0.18000
Cl	Cl	0.73140 0.23450 0.71370 -0.29100
Cl	Cl	0.55430 0.21740 0.69910 -0.30300
C 	C 	0.59590 0.31350 0.64550 0.07800
C 	C 	0.66860 0.34150 0.70630 0.09400
C 	C 	0.60150 0.35000 0.61110 -0.09600
H 	H 	0.56920 0.29150 0.63650 0.06400
C 	C 	0.67410 0.37800 0.67190 -0.14700
H 	H 	0.69150 0.33860 0.73880 0.04800
C 	C 	0.64060 0.38220 0.62430 0.07600
H 	H 	0.57850 0.35290 0.57850 0.09600
C 	C 	0.71440 0.41060 0.68840 0.44200
H 	H 	0.64430 0.40710 0.60070 0.05600
O 	O 	0.71780 0.44330 0.65590 -0.51900
O 	O 	0.74100 0.40810 0.73500 -0.48900
Cr	Cr	0.78246 0.45221 0.78013 1.55900
O 	O 	0.67500 0.52350 0.65310 -0.52400
O 	O 	0.71910 0.44740 0.83380 -0.50300
C 	C 	0.63920 0.54230 0.68410 0.47000
C 	C 	0.67850 0.47280 0.84310 0.45000
O 	O 	0.67190 0.51110 0.83140 -0.51800
O 	O 	0.64950 0.55390 0.73350 -0.51800
C 	C 	0.58500 0.55340 0.65900 -0.18300
C 	C 	0.63350 0.45010 0.87870 -0.11500
C 	C 	0.55020 0.58370 0.68300 0.10100
C 	C 	0.57130 0.53370 0.60870 0.10800
C 	C 	0.62840 0.40190 0.87950 0.07200
C 	C 	0.59890 0.47710 0.91240 0.07400
H 	H 	0.56050 0.59740 0.71740 0.01700
C 	C 	0.49900 0.59450 0.65670 -0.13600
N 	N 	0.52340 0.54260 0.58270 -0.21900
H 	H 	0.59670 0.51340 0.59240 0.01800
H 	H 	0.65260 0.38410 0.85750 0.06000
C 	C 	0.58770 0.38380 0.91310 -0.12000
N 	N 	0.55840 0.45700 0.94500 -0.21000
H 	H 	0.60350 0.50790 0.91270 0.03500
H 	H 	0.47350 0.61540 0.67180 0.09000
C 	C 	0.48860 0.57250 0.60740 0.07800
H 	H 	0.58120 0.35320 0.91450 0.12700
C 	C 	0.55740 0.41250 0.94410 0.09100
H 	H 	0.45410 0.57860 0.58880 0.02200
H 	H 	0.53120 0.39960 0.96940 0.01900
Cl	Cl	0.62460 0.20600 0.66740 -0.34100
Cl	Cl	0.58392 0.44940 0.51642 -0.48000
N 	N 	0.12950 0.80930 0.69310 -0.18200
Cl	Cl	0.23140 0.73450 0.71370 -0.29600
Cl	Cl	0.05430 0.71740 0.69910 -0.32500
C 	C 	0.09590 0.81350 0.64550 0.07300
C 	C 	0.16860 0.84150 0.70630 0.09000
C 	C 	0.10150 0.85000 0.61110 -0.09600
H 	H 	0.06920 0.79150 0.63650 0.05600
C 	C 	0.17410 0.87800 0.67190 -0.14400
H 	H 	0.19150 0.83860 0.73880 0.04800
C 	C 	0.14060 0.88220 0.62430 0.07100
H 	H 	0.07850 0.85290 0.57850 0.08800
C 	C 	0.21440 0.91060 0.68840 0.43900
H 	H 	0.14430 0.90710 0.60070 0.06000
O 	O 	0.21780 0.94330 0.65590 -0.50100
O 	O 	0.24100 0.90810 0.73500 -0.48500
Cr	Cr	0.28246 0.95221 0.78013 1.56500
O 	O 	0.17500 0.02350 0.65310 -0.53300
O 	O 	0.21910 0.94740 0.83380 -0.51400
C 	C 	0.13920 0.04230 0.68410 0.45800
C 	C 	0.17850 0.97280 0.84310 0.52300
O 	O 	0.17190 0.01110 0.83140 -0.56700
O 	O 	0.14950 0.05390 0.73350 -0.52000
C 	C 	0.08500 0.05340 0.65900 -0.16500
C 	C 	0.13350 0.95010 0.87870 -0.15800
C 	C 	0.05020 0.08370 0.68300 0.02600
C 	C 	0.07130 0.03370 0.60870 0.08700
C 	C 	0.12840 0.90190 0.87950 0.09800
C 	C 	0.09890 0.97710 0.91240 0.16400
H 	H 	0.06050 0.09740 0.71740 0.03200
C 	C 	0.99900 0.09450 0.65670 -0.07300
N 	N 	0.02340 0.04260 0.58270 -0.24300
H 	H 	0.09670 0.01340 0.59240 0.01100
H 	H 	0.15260 0.88410 0.85750 0.05000
C 	C 	0.08770 0.88380 0.91310 -0.14200
N 	N 	0.05840 0.95700 0.94500 -0.22200
H 	H 	0.10350 0.00790 0.91270 -0.02200
H 	H 	0.97350 0.11540 0.67180 0.07900
C 	C 	0.98860 0.07250 0.60740 0.09600
H 	H 	0.08120 0.85320 0.91450 0.12900
C 	C 	0.05740 0.91250 0.94410 0.10200
H 	H 	0.95410 0.07860 0.58880 0.02200
H 	H 	0.03120 0.89960 0.96940 0.00600
Cl	Cl	0.12460 0.70600 0.66740 -0.34300
Cl	Cl	0.08392 0.94940 0.51642 -0.46900
N 	N 	0.87050 0.69070 0.69310 -0.18100
Cl	Cl	0.76860 0.76550 0.71370 -0.29500
Cl	Cl	0.94570 0.78260 0.69910 -0.28100
C 	C 	0.90410 0.68650 0.64550 0.08000
C 	C 	0.83140 0.65850 0.70630 0.09500
C 	C 	0.89850 0.65000 0.61110 -0.09600
H 	H 	0.93080 0.70850 0.63650 0.06900
C 	C 	0.82590 0.62200 0.67190 -0.14800
H 	H 	0.80850 0.66140 0.73880 0.04700
C 	C 	0.85940 0.61780 0.62430 0.07900
H 	H 	0.92150 0.64710 0.57850 0.10300
C 	C 	0.78560 0.58940 0.68840 0.44300
H 	H 	0.85570 0.59290 0.60070 0.05600
O 	O 	0.78220 0.55670 0.65590 -0.51900
O 	O 	0.75900 0.59190 0.73500 -0.49000
Cr	Cr	0.71754 0.54779 0.78013 1.55800
O 	O 	0.82500 0.47650 0.65310 -0.52500
O 	O 	0.78090 0.55260 0.83380 -0.50300
C 	C 	0.86080 0.45770 0.68410 0.48200
C 	C 	0.82150 0.52720 0.84310 0.45000
O 	O 	0.82810 0.48890 0.83140 -0.51600
O 	O 	0.85050 0.44610 0.73350 -0.51800
C 	C 	0.91500 0.44660 0.65900 -0.20700
C 	C 	0.86650 0.54990 0.87870 -0.11300
C 	C 	0.94980 0.41630 0.68300 0.17600
C 	C 	0.92870 0.46630 0.60870 0.12900
C 	C 	0.87160 0.59810 0.87950 0.07400
C 	C 	0.90110 0.52290 0.91240 0.07700
H 	H 	0.93950 0.40260 0.71740 0.00200
C 	C 	0.00100 0.40550 0.65670 -0.20100
N 	N 	0.97660 0.45740 0.58270 -0.19700
H 	H 	0.90330 0.48660 0.59240 0.01500
H 	H 	0.84740 0.61590 0.85750 0.06000
C 	C 	0.91230 0.61620 0.91310 -0.11700
N 	N 	0.94160 0.54300 0.94500 -0.20200
H 	H 	0.89650 0.49210 0.91270 0.03700
H 	H 	0.02650 0.38460 0.67180 0.10200
C 	C 	0.01140 0.42750 0.60740 0.05900
H 	H 	0.91880 0.64680 0.91450 0.13100
C 	C 	0.94260 0.58750 0.94410 0.09400
H 	H 	0.04590 0.42140 0.58880 0.02200
H 	H 	0.96880 0.60040 0.96940 0.03100
Cl	Cl	0.87540 0.79400 0.66740 -0.33900
Cl	Cl	0.91608 0.55060 0.51642 -0.46200
N 	N 	0.37050 0.19070 0.69310 -0.18200
Cl	Cl	0.26860 0.26550 0.71370 -0.29800
Cl	Cl	0.44570 0.28260 0.69910 -0.30300
C 	C 	0.40410 0.18650 0.64550 0.07700
C 	C 	0.33140 0.15850 0.70630 0.09300
C 	C 	0.39850 0.15000 0.61110 -0.10000
H 	H 	0.43080 0.20850 0.63650 0.06200
C 	C 	0.32590 0.12200 0.67190 -0.15300
H 	H 	0.30850 0.16140 0.73880 0.04600
C 	C 	0.35940 0.11780 0.62430 0.07700
H 	H 	0.42150 0.14710 0.57850 0.09600
C 	C 	0.28560 0.08940 0.68840 0.44400
H 	H 	0.35570 0.09290 0.60070 0.05100
O 	O 	0.28220 0.05670 0.65590 -0.52900
O 	O 	0.25900 0.09190 0.73500 -0.49300
Cr	Cr	0.21754 0.04779 0.78013 1.55700
O 	O 	0.32500 0.97650 0.65310 -0.50300
O 	O 	0.28090 0.05260 0.83380 -0.49100
C 	C 	0.36080 0.95770 0.68410 0.46900
C 	C 	0.32150 0.02720 0.84310 0.37800
O 	O 	0.32810 0.98890 0.83140 -0.46700
O 	O 	0.35050 0.94610 0.73350 -0.51100
C 	C 	0.41500 0.94660 0.65900 -0.17600
C 	C 	0.36650 0.04990 0.87870 -0.07400
C 	C 	0.44980 0.91630 0.68300 0.10000
C 	C 	0.42870 0.96630 0.60870 0.10900
C 	C 	0.37160 0.09810 0.87950 0.04500
C 	C 	0.40110 0.02290 0.91240 -0.01800
H 	H 	0.43950 0.90260 0.71740 0.01900
C 	C 	0.50100 0.90550 0.65670 -0.13400
N 	N 	0.47660 0.95740 0.58270 -0.21000
H 	H 	0.40330 0.98660 0.59240 0.03100
H 	H 	0.34740 0.11590 0.85750 0.06700
C 	C 	0.41230 0.11620 0.91310 -0.10200
N 	N 	0.44160 0.04300 0.94500 -0.20100
H 	H 	0.39650 0.99210 0.91270 0.09100
H 	H 	0.52650 0.88460 0.67180 0.09000
C 	C 	0.51140 0.92750 0.60740 0.08000
H 	H 	0.41880 0.14680 0.91450 0.12000
C 	C 	0.44260 0.08750 0.94410 0.07800
H 	H 	0.54590 0.92140 0.58880 0.02200
H 	H 	0.46880 0.10040 0.96940 0.02300
Cl	Cl	0.37540 0.29400 0.66740 -0.34100
Cl	Cl	0.41608 0.05060 0.51642 -0.49900
N 	N 	0.37050 0.30930 0.80690 -0.18100
Cl	Cl	0.26860 0.23450 0.78630 -0.29300
Cl	Cl	0.44570 0.21740 0.80090 -0.30300
C 	C 	0.40410 0.31350 0.85450 0.07900
C 	C 	0.33140 0.34150 0.79370 0.09400
C 	C 	0.39850 0.35000 0.88890 -0.09700
H 	H 	0.43080 0.29150 0.86350 0.06500
C 	C 	0.32590 0.37800 0.82810 -0.14800
H 	H 	0.30850 0.33860 0.76120 0.04600
C 	C 	0.35940 0.38220 0.87570 0.07900
H 	H 	0.42150 0.35290 0.92150 0.10100
C 	C 	0.28560 0.41060 0.81160 0.44300
H 	H 	0.35570 0.40710 0.89930 0.05800
O 	O 	0.28220 0.44330 0.84410 -0.51600
O 	O 	0.25900 0.40810 0.76500 -0.49100
Cr	Cr	0.21754 0.45221 0.71987 1.55700
O 	O 	0.32500 0.52350 0.84690 -0.52000
O 	O 	0.28090 0.44740 0.66620 -0.50800
C 	C 	0.36080 0.54230 0.81590 0.47000
C 	C 	0.32150 0.47280 0.65690 0.45000
O 	O 	0.32810 0.51110 0.66860 -0.52100
O 	O 	0.35050 0.55390 0.76650 -0.51800
C 	C 	0.41500 0.55340 0.84100 -0.18100
C 	C 	0.36650 0.45010 0.62130 -0.11900
C 	C 	0.44980 0.58370 0.81700 0.10200
C 	C 	0.42870 0.53370 0.89130 0.11100
C 	C 	0.37160 0.40190 0.62050 0.07000
C 	C 	0.40110 0.47710 0.58760 0.07000
H 	H 	0.43950 0.59740 0.78260 0.01800
C 	C 	0.50100 0.59450 0.84330 -0.13300
N 	N 	0.47660 0.54260 0.91730 -0.20800
H 	H 	0.40330 0.51340 0.90760 0.02300
H 	H 	0.34740 0.38410 0.64250 0.05700
C 	C 	0.41230 0.38380 0.58690 -0.12500
N 	N 	0.44160 0.45700 0.55500 -0.22200
H 	H 	0.39650 0.50790 0.58730 0.02600
H 	H 	0.52650 0.61540 0.82820 0.09200
C 	C 	0.51140 0.57250 0.89260 0.08100
H 	H 	0.41880 0.35320 0.58550 0.12200
C 	C 	0.44260 0.41250 0.55590 0.08800
H 	H 	0.54590 0.57860 0.91120 0.03400
H 	H 	0.46880 0.39960 0.53060 0.00800
Cl	Cl	0.37540 0.20600 0.83260 -0.33600
Cl	Cl	0.41608 0.44940 0.98358 -0.44200
N 	N 	0.87050 0.80930 0.80690 -0.18000
Cl	Cl	0.76860 0.73450 0.78630 -0.29000
Cl	Cl	0.94570 0.71740 0.80090 -0.28100
C 	C 	0.90410 0.81350 0.85450 0.08300
C 	C 	0.83140 0.84150 0.79370 0.09500
C 	C 	0.89850 0.85000 0.88890 -0.09200
H 	H 	0.93080 0.79150 0.86350 0.07200
C 	C 	0.82590 0.87800 0.82810 -0.14200
H 	H 	0.80850 0.83860 0.76120 0.04700
C 	C 	0.85940 0.88220 0.87570 0.08000
H 	H 	0.92150 0.85290 0.92150 0.10800
C 	C 	0.78560 0.91060 0.81160 0.44100
H 	H 	0.85570 0.90710 0.89930 0.06400
O 	O 	0.78220 0.94330 0.84410 -0.49700
O 	O 	0.75900 0.90810 0.76500 -0.48500
Cr	Cr	0.71754 0.95221 0.71987 1.56500
O 	O 	0.82500 0.02350 0.84690 -0.53200
O 	O 	0.78090 0.94740 0.66620 -0.51700
C 	C 	0.86080 0.04230 0.81590 0.48100
C 	C 	0.82150 0.97280 0.65690 0.52300
O 	O 	0.82810 0.01110 0.66860 -0.56700
O 	O 	0.85050 0.05390 0.76650 -0.52100
C 	C 	0.91500 0.05340 0.84100 -0.21000
C 	C 	0.86650 0.95010 0.62130 -0.15800
C 	C 	0.94980 0.08370 0.81700 0.17600
C 	C 	0.92870 0.03370 0.89130 0.13000
C 	C 	0.87160 0.90190 0.62050 0.09900
C 	C 	0.90110 0.97710 0.58760 0.16600
H 	H 	0.93950 0.09740 0.78260 0.00100
C 	C 	0.00100 0.09450 0.84330 -0.19900
N 	N 	0.97660 0.04260 0.91730 -0.19200
H 	H 	0.90330 0.01340 0.90760 0.00800
H 	H 	0.84740 0.88410 0.64250 0.05000
C 	C 	0.91230 0.88380 0.58690 -0.13900
N 	N 	0.94160 0.95700 0.55500 -0.21900
H 	H 	0.89650 0.00790 0.58730 -0.02600
H 	H 	0.02650 0.11540 0.82820 0.10400
C 	C 	0.01140 0.07250 0.89260 0.06000
H 	H 	0.91880 0.85320 0.58550 0.13400
C 	C 	0.94260 0.91250 0.55590 0.10400
H 	H 	0.04590 0.07860 0.91120 0.03400
H 	H 	0.96880 0.89960 0.53060 0.01800
Cl	Cl	0.87540 0.70600 0.83260 -0.33400
Cl	Cl	0.91608 0.94940 0.98358 -0.40300
N 	N 	0.12950 0.69070 0.80690 -0.18200
Cl	Cl	0.23140 0.76550 0.78630 -0.29000
Cl	Cl	0.05430 0.78260 0.80090 -0.32300
C 	C 	0.09590 0.68650 0.85450 0.07600
C 	C 	0.16860 0.65850 0.79370 0.09300
C 	C 	0.10150 0.65000 0.88890 -0.09800
H 	H 	0.06920 0.70850 0.86350 0.05800
C 	C 	0.17410 0.62200 0.82810 -0.14800
H 	H 	0.19150 0.66140 0.76120 0.04700
C 	C 	0.14060 0.61780 0.87570 0.07500
H 	H 	0.07850 0.64710 0.92150 0.09400
C 	C 	0.21440 0.58940 0.81160 0.44200
H 	H 	0.14430 0.59290 0.89930 0.05800
O 	O 	0.21780 0.55670 0.84410 -0.51600
O 	O 	0.24100 0.59190 0.76500 -0.49100
Cr	Cr	0.28246 0.54779 0.71987 1.55800
O 	O 	0.17500 0.47650 0.84690 -0.51800
O 	O 	0.21910 0.55260 0.66620 -0.50800
C 	C 	0.13920 0.45770 0.81590 0.45800
C 	C 	0.17850 0.52720 0.65690 0.44900
O 	O 	0.17190 0.48890 0.66860 -0.52300
O 	O 	0.14950 0.44610 0.76650 -0.51700
C 	C 	0.08500 0.44660 0.84100 -0.15700
C 	C 	0.13350 0.54990 0.62130 -0.12100
C 	C 	0.05020 0.41630 0.81700 0.02800
C 	C 	0.07130 0.46630 0.89130 0.09100
C 	C 	0.12840 0.59810 0.62050 0.06800
C 	C 	0.09890 0.52290 0.58760 0.06700
H 	H 	0.06050 0.40260 0.78260 0.03300
C 	C 	0.99900 0.40550 0.84330 -0.06800
N 	N 	0.02340 0.45740 0.91730 -0.22600
H 	H 	0.09670 0.48660 0.90760 0.02700
H 	H 	0.15260 0.61590 0.64250 0.05600
C 	C 	0.08770 0.61620 0.58690 -0.12900
N 	N 	0.05840 0.54300 0.55500 -0.22700
H 	H 	0.10350 0.49210 0.58730 0.02500
H 	H 	0.97350 0.38460 0.82820 0.08100
C 	C 	0.98860 0.42750 0.89260 0.09900
H 	H 	0.08120 0.64680 0.58550 0.11800
C 	C 	0.05740 0.58750 0.55590 0.08600
H 	H 	0.95410 0.42140 0.91120 0.03500
H 	H 	0.03120 0.60040 0.53060 -0.00300
Cl	Cl	0.12460 0.79400 0.83260 -0.33600
Cl	Cl	0.08392 0.55060 0.98358 -0.45500
N 	N 	0.62950 0.19070 0.80690 -0.18200
Cl	Cl	0.73140 0.26550 0.78630 -0.28700
Cl	Cl	0.55430 0.28260 0.80090 -0.30300
C 	C 	0.59590 0.18650 0.85450 0.08000
C 	C 	0.66860 0.15850 0.79370 0.09500
C 	C 	0.60150 0.15000 0.88890 -0.09900
H 	H 	0.56920 0.20850 0.86350 0.06500
C 	C 	0.67410 0.12200 0.82810 -0.15100
H 	H 	0.69150 0.16140 0.76120 0.04600
C 	C 	0.64060 0.11780 0.87570 0.08000
H 	H 	0.57850 0.14710 0.92150 0.10200
C 	C 	0.71440 0.08940 0.81160 0.44500
H 	H 	0.64430 0.09290 0.89930 0.05400
O 	O 	0.71780 0.05670 0.84410 -0.52400
O 	O 	0.74100 0.09190 0.76500 -0.49100
Cr	Cr	0.78246 0.04779 0.71987 1.55700
O 	O 	0.67500 0.97650 0.84690 -0.50000
O 	O 	0.71910 0.05260 0.66620 -0.49400
C 	C 	0.63920 0.95770 0.81590 0.46900
C 	C 	0.67850 0.02720 0.65690 0.37700
O 	O 	0.67190 0.98890 0.66860 -0.47000
O 	O 	0.64950 0.94610 0.76650 -0.51100
C 	C 	0.58500 0.94660 0.84100 -0.17400
C 	C 	0.63350 0.04990 0.62130 -0.07700
C 	C 	0.55020 0.91630 0.81700 0.10100
C 	C 	0.57130 0.96630 0.89130 0.11200
C 	C 	0.62840 0.09810 0.62050 0.04300
C 	C 	0.59890 0.02290 0.58760 -0.02300
H 	H 	0.56050 0.90260 0.78260 0.01900
C 	C 	0.49900 0.90550 0.84330 -0.13000
N 	N 	0.52340 0.95740 0.91730 -0.20000
H 	H 	0.59670 0.98660 0.90760 0.03500
H 	H 	0.65260 0.11590 0.64250 0.06600
C 	C 	0.58770 0.11620 0.58690 -0.10600
N 	N 	0.55840 0.04300 0.55500 -0.21200
H 	H 	0.60350 0.99210 0.58730 0.08300
H 	H 	0.47350 0.88460 0.82820 0.09200
C 	C 	0.48860 0.92750 0.89260 0.08300
H 	H 	0.58120 0.14680 0.58550 0.11600
C 	C 	0.55740 0.08750 0.55590 0.07500
H 	H 	0.45410 0.92140 0.91120 0.03500
H 	H 	0.53120 0.10040 0.53060 0.01200
Cl	Cl	0.62460 0.29400 0.83260 -0.33500
Cl	Cl	0.58392 0.05060 0.98358 -0.46000
N 	N 	0.37050 0.69070 0.30690 -0.18200
Cl	Cl	0.26860 0.76550 0.28630 -0.30100
Cl	Cl	0.44570 0.78260 0.30090 -0.30200
C 	C 	0.40410 0.68650 0.35450 0.07700
C 	C 	0.33140 0.65850 0.29370 0.09300
C 	C 	0.39850 0.65000 0.38890 -0.09800
H 	H 	0.43080 0.70850 0.36350 0.06200
C 	C 	0.32590 0.62200 0.32810 -0.15000
H 	H 	0.30850 0.66140 0.26120 0.04500
C 	C 	0.35940 0.61780 0.37570 0.07600
H 	H 	0.42150 0.64710 0.42150 0.09600
C 	C 	0.28560 0.58940 0.31160 0.44300
H 	H 	0.35570 0.59290 0.39930 0.05500
O 	O 	0.28220 0.55670 0.34410 -0.52000
O 	O 	0.25900 0.59190 0.26500 -0.49400
Cr	Cr	0.21754 0.54779 0.21987 1.55600
O 	O 	0.32500 0.47650 0.34690 -0.52400
O 	O 	0.28090 0.55260 0.16620 -0.51200
C 	C 	0.36080 0.45770 0.31590 0.47100
C 	C 	0.32150 0.52720 0.15690 0.44900
O 	O 	0.32810 0.48890 0.16860 -0.52400
O 	O 	0.35050 0.44610 0.26650 -0.52000
C 	C 	0.41500 0.44660 0.34100 -0.18400
C 	C 	0.36650 0.54990 0.12130 -0.12300
C 	C 	0.44980 0.41630 0.31700 0.10200
C 	C 	0.42870 0.46630 0.39130 0.10900
C 	C 	0.37160 0.59810 0.12050 0.06800
C 	C 	0.40110 0.52290 0.08760 0.06600
H 	H 	0.43950 0.40260 0.28260 0.01500
C 	C 	0.50100 0.40550 0.34330 -0.13700
N 	N 	0.47660 0.45740 0.41730 -0.21900
H 	H 	0.40330 0.48660 0.40760 0.01800
H 	H 	0.34740 0.61590 0.14250 0.05500
C 	C 	0.41230 0.61620 0.08690 -0.12900
N 	N 	0.44160 0.54300 0.05500 -0.22900
H 	H 	0.39650 0.49210 0.08730 0.01800
H 	H 	0.52650 0.38460 0.32820 0.08900
C 	C 	0.51140 0.42750 0.39260 0.07800
H 	H 	0.41880 0.64680 0.08550 0.11800
C 	C 	0.44260 0.58750 0.05590 0.08600
H 	H 	0.54590 0.42140 0.41120 0.02100
H 	H 	0.46880 0.60040 0.03060 -0.00100
Cl	Cl	0.37540 0.79400 0.33260 -0.34100
Cl	Cl	0.41608 0.55060 0.48358 -0.48000
N 	N 	0.87050 0.19070 0.30690 -0.18100
Cl	Cl	0.76860 0.26550 0.28630 -0.29700
Cl	Cl	0.94570 0.28260 0.30090 -0.28100
C 	C 	0.90410 0.18650 0.35450 0.08100
C 	C 	0.83140 0.15850 0.29370 0.09600
C 	C 	0.89850 0.15000 0.38890 -0.09900
H 	H 	0.93080 0.20850 0.36350 0.06900
C 	C 	0.82590 0.12200 0.32810 -0.15300
H 	H 	0.80850 0.16140 0.26120 0.04500
C 	C 	0.85940 0.11780 0.37570 0.08100
H 	H 	0.92150 0.14710 0.42150 0.10400
C 	C 	0.78560 0.08940 0.31160 0.44500
H 	H 	0.85570 0.09290 0.39930 0.05100
O 	O 	0.78220 0.05670 0.34410 -0.52800
O 	O 	0.75900 0.09190 0.26500 -0.49400
Cr	Cr	0.71754 0.04779 0.21987 1.55600
O 	O 	0.82500 0.97650 0.34690 -0.50500
O 	O 	0.78090 0.05260 0.16620 -0.49900
C 	C 	0.86080 0.95770 0.31590 0.48100
C 	C 	0.82150 0.02720 0.15690 0.37800
O 	O 	0.82810 0.98890 0.16860 -0.47100
O 	O 	0.85050 0.94610 0.26650 -0.51300
C 	C 	0.91500 0.94660 0.34100 -0.20100
C 	C 	0.86650 0.04990 0.12130 -0.08000
C 	C 	0.94980 0.91630 0.31700 0.17500
C 	C 	0.92870 0.96630 0.39130 0.13000
C 	C 	0.87160 0.09810 0.12050 0.04300
C 	C 	0.90110 0.02290 0.08760 -0.02200
H 	H 	0.93950 0.90260 0.28260 0.00100
C 	C 	0.00100 0.90550 0.34330 -0.20000
N 	N 	0.97660 0.95740 0.41730 -0.18900
H 	H 	0.90330 0.98660 0.40760 0.02700
H 	H 	0.84740 0.11590 0.14250 0.06400
C 	C 	0.91230 0.11620 0.08690 -0.10700
N 	N 	0.94160 0.04300 0.05500 -0.21000
H 	H 	0.89650 0.99210 0.08730 0.07700
H 	H 	0.02650 0.88460 0.32820 0.10000
C 	C 	0.01140 0.92750 0.39260 0.06200
H 	H 	0.91880 0.14680 0.08550 0.11700
C 	C 	0.94260 0.08750 0.05590 0.07500
H 	H 	0.04590 0.92140 0.41120 0.02200
H 	H 	0.96880 0.10040 0.03060 0.01500
Cl	Cl	0.87540 0.29400 0.33260 -0.33900
Cl	Cl	0.91608 0.05060 0.48358 -0.48000
N 	N 	0.12950 0.30930 0.30690 -0.18200
Cl	Cl	0.23140 0.23450 0.28630 -0.29800
Cl	Cl	0.05430 0.21740 0.30090 -0.32600
C 	C 	0.09590 0.31350 0.35450 0.07300
C 	C 	0.16860 0.34150 0.29370 0.09200
C 	C 	0.10150 0.35000 0.38890 -0.10000
H 	H 	0.06920 0.29150 0.36350 0.05600
C 	C 	0.17410 0.37800 0.32810 -0.15000
H 	H 	0.19150 0.33860 0.26120 0.04600
C 	C 	0.14060 0.38220 0.37570 0.07300
H 	H 	0.07850 0.35290 0.42150 0.08800
C 	C 	0.21440 0.41060 0.31160 0.44200
H 	H 	0.14430 0.40710 0.39930 0.05500
O 	O 	0.21780 0.44330 0.34410 -0.52000
O 	O 	0.24100 0.40810 0.26500 -0.49300
Cr	Cr	0.28246 0.45221 0.21987 1.55700
O 	O 	0.17500 0.52350 0.34690 -0.52200
O 	O 	0.21910 0.44740 0.16620 -0.51200
C 	C 	0.13920 0.54230 0.31590 0.45900
C 	C 	0.17850 0.47280 0.15690 0.44900
O 	O 	0.17190 0.51110 0.16860 -0.52600
O 	O 	0.14950 0.55390 0.26650 -0.51900
C 	C 	0.08500 0.55340 0.34100 -0.16000
C 	C 	0.13350 0.45010 0.12130 -0.12500
C 	C 	0.05020 0.58370 0.31700 0.02600
C 	C 	0.07130 0.53370 0.39130 0.08800
C 	C 	0.12840 0.40190 0.12050 0.06600
C 	C 	0.09890 0.47710 0.08760 0.06300
H 	H 	0.06050 0.59740 0.28260 0.03100
C 	C 	0.99900 0.59450 0.34330 -0.07000
N 	N 	0.02340 0.54260 0.41730 -0.23800
H 	H 	0.09670 0.51340 0.40760 0.02200
H 	H 	0.15260 0.38410 0.14250 0.05400
C 	C 	0.08770 0.38380 0.08690 -0.13300
N 	N 	0.05840 0.45700 0.05500 -0.23500
H 	H 	0.10350 0.50790 0.08730 0.01700
H 	H 	0.97350 0.61540 0.32820 0.07700
C 	C 	0.98860 0.57250 0.39260 0.09800
H 	H 	0.08120 0.35320 0.08550 0.11400
C 	C 	0.05740 0.41250 0.05590 0.08300
H 	H 	0.95410 0.57860 0.41120 0.02200
H 	H 	0.03120 0.39960 0.03060 -0.01300
Cl	Cl	0.12460 0.20600 0.33260 -0.34300
Cl	Cl	0.08392 0.44940 0.48358 -0.49300
N 	N 	0.62950 0.80930 0.30690 -0.18100
Cl	Cl	0.73140 0.73450 0.28630 -0.29500
Cl	Cl	0.55430 0.71740 0.30090 -0.30300
C 	C 	0.59590 0.81350 0.35450 0.07700
C 	C 	0.66860 0.84150 0.29370 0.09300
C 	C 	0.60150 0.85000 0.38890 -0.09500
H 	H 	0.56920 0.79150 0.36350 0.06300
C 	C 	0.67410 0.87800 0.32810 -0.14400
H 	H 	0.69150 0.83860 0.26120 0.04700
C 	C 	0.64060 0.88220 0.37570 0.07500
H 	H 	0.57850 0.85290 0.42150 0.09600
C 	C 	0.71440 0.91060 0.31160 0.44000
H 	H 	0.64430 0.90710 0.39930 0.06000
O 	O 	0.71780 0.94330 0.34410 -0.50000
O 	O 	0.74100 0.90810 0.26500 -0.48600
Cr	Cr	0.78246 0.95221 0.21987 1.56400
O 	O 	0.67500 0.02350 0.34690 -0.53400
O 	O 	0.71910 0.94740 0.16620 -0.52100
C 	C 	0.63920 0.04230 0.31590 0.47000
C 	C 	0.67850 0.97280 0.15690 0.52300
O 	O 	0.67190 0.01110 0.16860 -0.57300
O 	O 	0.64950 0.05390 0.26650 -0.52300
C 	C 	0.58500 0.05340 0.34100 -0.19000
C 	C 	0.63350 0.95010 0.12130 -0.16400
C 	C 	0.55020 0.08370 0.31700 0.10200
C 	C 	0.57130 0.03370 0.39130 0.10800
C 	C 	0.62840 0.90190 0.12050 0.09600
C 	C 	0.59890 0.97710 0.08760 0.16100
H 	H 	0.56050 0.09740 0.28260 0.01400
C 	C 	0.49900 0.09450 0.34330 -0.13900
N 	N 	0.52340 0.04260 0.41730 -0.22400
H 	H 	0.59670 0.01340 0.40760 0.00600
H 	H 	0.65260 0.88410 0.14250 0.04700
C 	C 	0.58770 0.88380 0.08690 -0.14700
N 	N 	0.55840 0.95700 0.05500 -0.23500
H 	H 	0.60350 0.00790 0.08730 -0.03800
H 	H 	0.47350 0.11540 0.32820 0.08900
C 	C 	0.48860 0.07250 0.39260 0.07600
H 	H 	0.58120 0.85320 0.08550 0.12500
C 	C 	0.55740 0.91250 0.05590 0.09900
H 	H 	0.45410 0.07860 0.41120 0.02100
H 	H 	0.53120 0.89960 0.03060 -0.00400
Cl	Cl	0.62460 0.70600 0.33260 -0.34000
Cl	Cl	0.58392 0.94940 0.48358 -0.45600
N 	N 	0.62950 0.69070 0.19310 -0.18200
Cl	Cl	0.73140 0.76550 0.21370 -0.30000
Cl	Cl	0.55430 0.78260 0.19910 -0.30300
C 	C 	0.59590 0.68650 0.14550 0.07500
C 	C 	0.66860 0.65850 0.20630 0.09200
C 	C 	0.60150 0.65000 0.11110 -0.09900
H 	H 	0.56920 0.70850 0.13650 0.06000
C 	C 	0.67410 0.62200 0.17190 -0.15000
H 	H 	0.69150 0.66140 0.23880 0.04600
C 	C 	0.64060 0.61780 0.12430 0.07400
H 	H 	0.57850 0.64710 0.07850 0.09000
C 	C 	0.71440 0.58940 0.18840 0.44200
H 	H 	0.64430 0.59290 0.10070 0.05300
O 	O 	0.71780 0.55670 0.15590 -0.52200
O 	O 	0.74100 0.59190 0.23500 -0.49200
Cr	Cr	0.78246 0.54779 0.28013 1.55800
O 	O 	0.67500 0.47650 0.15310 -0.52800
O 	O 	0.71910 0.55260 0.33380 -0.50700
C 	C 	0.63920 0.45770 0.18410 0.47000
C 	C 	0.67850 0.52720 0.34310 0.44900
O 	O 	0.67190 0.48890 0.33140 -0.52100
O 	O 	0.64950 0.44610 0.23350 -0.52000
C 	C 	0.58500 0.44660 0.15900 -0.18600
C 	C 	0.63350 0.54990 0.37870 -0.11900
C 	C 	0.55020 0.41630 0.18300 0.10100
C 	C 	0.57130 0.46630 0.10870 0.10600
C 	C 	0.62840 0.59810 0.37950 0.07000
C 	C 	0.59890 0.52290 0.41240 0.07000
H 	H 	0.56050 0.40260 0.21740 0.01500
C 	C 	0.49900 0.40550 0.15670 -0.14100
N 	N 	0.52340 0.45740 0.08270 -0.22600
H 	H 	0.59670 0.48660 0.09240 0.01400
H 	H 	0.65260 0.61590 0.35750 0.05700
C 	C 	0.58770 0.61620 0.41310 -0.12500
N 	N 	0.55840 0.54300 0.44500 -0.22100
H 	H 	0.60350 0.49210 0.41270 0.02600
H 	H 	0.47350 0.38460 0.17180 0.08600
C 	C 	0.48860 0.42750 0.10740 0.07600
H 	H 	0.58120 0.64680 0.41450 0.12300
C 	C 	0.55740 0.58750 0.44410 0.08800
H 	H 	0.45410 0.42140 0.08880 0.00900
H 	H 	0.53120 0.60040 0.46940 0.00900
Cl	Cl	0.62460 0.79400 0.16740 -0.34500
Cl	Cl	0.58392 0.55060 0.01642 -0.51200
N 	N 	0.12950 0.19070 0.19310 -0.18300
Cl	Cl	0.23140 0.26550 0.21370 -0.30300
Cl	Cl	0.05430 0.28260 0.19910 -0.32600
C 	C 	0.09590 0.18650 0.14550 0.07100
C 	C 	0.16860 0.15850 0.20630 0.09100
C 	C 	0.10150 0.15000 0.11110 -0.10300
H 	H 	0.06920 0.20850 0.13650 0.05300
C 	C 	0.17410 0.12200 0.17190 -0.15500
H 	H 	0.19150 0.16140 0.23880 0.04500
C 	C 	0.14060 0.11780 0.12430 0.07200
H 	H 	0.07850 0.14710 0.07850 0.08300
C 	C 	0.21440 0.08940 0.18840 0.44300
H 	H 	0.14430 0.09290 0.10070 0.04700
O 	O 	0.21780 0.05670 0.15590 -0.53300
O 	O 	0.24100 0.09190 0.23500 -0.49500
Cr	Cr	0.28246 0.04779 0.28013 1.55700
O 	O 	0.17500 0.97650 0.15310 -0.50600
O 	O 	0.21910 0.05260 0.33380 -0.49500
C 	C 	0.13920 0.95770 0.18410 0.45800
C 	C 	0.17850 0.02720 0.34310 0.37600
O 	O 	0.17190 0.98890 0.33140 -0.47100
O 	O 	0.14950 0.94610 0.23350 -0.51200
C 	C 	0.08500 0.94660 0.15900 -0.15500
C 	C 	0.13350 0.04990 0.37870 -0.07900
C 	C 	0.05020 0.91630 0.18300 0.02500
C 	C 	0.07130 0.96630 0.10870 0.08600
C 	C 	0.12840 0.09810 0.37950 0.04100
C 	C 	0.09890 0.02290 0.41240 -0.02700
H 	H 	0.06050 0.90260 0.21740 0.03200
C 	C 	0.99900 0.90550 0.15670 -0.07200
N 	N 	0.02340 0.95740 0.08270 -0.23700
H 	H 	0.09670 0.98660 0.09240 0.03200
H 	H 	0.15260 0.11590 0.35750 0.06500
C 	C 	0.08770 0.11620 0.41310 -0.11000
N 	N 	0.05840 0.04300 0.44500 -0.21800
H 	H 	0.10350 0.99210 0.41270 0.08200
H 	H 	0.97350 0.88460 0.17180 0.07400
C 	C 	0.98860 0.92750 0.10740 0.09700
H 	H 	0.08120 0.14680 0.41450 0.11100
C 	C 	0.05740 0.08750 0.44410 0.07200
H 	H 	0.95410 0.92140 0.08880 0.01100
H 	H 	0.03120 0.10040 0.46940 0.00000
Cl	Cl	0.12460 0.29400 0.16740 -0.34800
Cl	Cl	0.08392 0.05060 0.01642 -0.54500
N 	N 	0.87050 0.30930 0.19310 -0.18100
Cl	Cl	0.76860 0.23450 0.21370 -0.30300
Cl	Cl	0.94570 0.21740 0.19910 -0.28200
C 	C 	0.90410 0.31350 0.14550 0.07800
C 	C 	0.83140 0.34150 0.20630 0.09400
C 	C 	0.89850 0.35000 0.11110 -0.09700
H 	H 	0.93080 0.29150 0.13650 0.06700
C 	C 	0.82590 0.37800 0.17190 -0.15000
H 	H 	0.80850 0.33860 0.23880 0.04600
C 	C 	0.85940 0.38220 0.12430 0.07700
H 	H 	0.92150 0.35290 0.07850 0.09800
C 	C 	0.78560 0.41060 0.18840 0.44300
H 	H 	0.85570 0.40710 0.10070 0.05300
O 	O 	0.78220 0.44330 0.15590 -0.52200
O 	O 	0.75900 0.40810 0.23500 -0.49200
Cr	Cr	0.71754 0.45221 0.28013 1.55800
O 	O 	0.82500 0.52350 0.15310 -0.52900
O 	O 	0.78090 0.44740 0.33380 -0.50700
C 	C 	0.86080 0.54230 0.18410 0.48300
C 	C 	0.82150 0.47280 0.34310 0.45000
O 	O 	0.82810 0.51110 0.33140 -0.51900
O 	O 	0.85050 0.55390 0.23350 -0.52000
C 	C 	0.91500 0.55340 0.15900 -0.21100
C 	C 	0.86650 0.45010 0.37870 -0.11700
C 	C 	0.94980 0.58370 0.18300 0.17600
C 	C 	0.92870 0.53370 0.10870 0.12700
C 	C 	0.87160 0.40190 0.37950 0.07200
C 	C 	0.90110 0.47710 0.41240 0.07400
H 	H 	0.93950 0.59740 0.21740 -0.00100
C 	C 	0.00100 0.59450 0.15670 -0.20700
N 	N 	0.97660 0.54260 0.08270 -0.20500
H 	H 	0.90330 0.51340 0.09240 0.01100
H 	H 	0.84740 0.38410 0.35750 0.05800
C 	C 	0.91230 0.38380 0.41310 -0.12100
N 	N 	0.94160 0.45700 0.44500 -0.21300
H 	H 	0.89650 0.50790 0.41270 0.02800
H 	H 	0.02650 0.61540 0.17180 0.09800
C 	C 	0.01140 0.57250 0.10740 0.05700
H 	H 	0.91880 0.35320 0.41450 0.12800
C 	C 	0.94260 0.41250 0.44410 0.09100
H 	H 	0.04590 0.57860 0.08880 0.00900
H 	H 	0.96880 0.39960 0.46940 0.02100
Cl	Cl	0.87540 0.20600 0.16740 -0.34500
Cl	Cl	0.91608 0.44940 0.01642 -0.49400
N 	N 	0.37050 0.80930 0.19310 -0.18100
Cl	Cl	0.26860 0.73450 0.21370 -0.30600
Cl	Cl	0.44570 0.71740 0.19910 -0.30400
C 	C 	0.40410 0.81350 0.14550 0.07400
C 	C 	0.33140 0.84150 0.20630 0.09100
C 	C 	0.39850 0.85000 0.11110 -0.09600
H 	H 	0.43080 0.79150 0.13650 0.06100
C 	C 	0.32590 0.87800 0.17190 -0.14600
H 	H 	0.30850 0.83860 0.23880 0.04600
C 	C 	0.35940 0.88220 0.12430 0.07200
H 	H 	0.42150 0.85290 0.07850 0.09000
C 	C 	0.28560 0.91060 0.18840 0.43900
H 	H 	0.35570 0.90710 0.10070 0.05700
O 	O 	0.28220 0.94330 0.15590 -0.50400
O 	O 	0.25900 0.90810 0.23500 -0.48800
Cr	Cr	0.21754 0.95221 0.28013 1.56400
O 	O 	0.32500 0.02350 0.15310 -0.53900
O 	O 	0.28090 0.94740 0.33380 -0.51800
C 	C 	0.36080 0.04230 0.18410 0.47000
C 	C 	0.32150 0.97280 0.34310 0.52500
O 	O 	0.32810 0.01110 0.33140 -0.57000
O 	O 	0.35050 0.05390 0.23350 -0.52200
C 	C 	0.41500 0.05340 0.15900 -0.19200
C 	C 	0.36650 0.95010 0.37870 -0.16100
C 	C 	0.44980 0.08370 0.18300 0.10100
C 	C 	0.42870 0.03370 0.10870 0.10500
C 	C 	0.37160 0.90190 0.37950 0.09800
C 	C 	0.40110 0.97710 0.41240 0.16500
H 	H 	0.43950 0.09740 0.21740 0.01400
C 	C 	0.50100 0.09450 0.15670 -0.14300
N 	N 	0.47660 0.04260 0.08270 -0.23200
H 	H 	0.40330 0.01340 0.09240 0.00200
H 	H 	0.34740 0.88410 0.35750 0.04800
C 	C 	0.41230 0.88380 0.41310 -0.14300
N 	N 	0.44160 0.95700 0.44500 -0.22800
H 	H 	0.39650 0.00790 0.41270 -0.03000
H 	H 	0.52650 0.11540 0.17180 0.08600
C 	C 	0.51140 0.07250 0.10740 0.07400
H 	H 	0.41880 0.85320 0.41450 0.12900
C 	C 	0.44260 0.91250 0.44410 0.10200
H 	H 	0.54590 0.07860 0.08880 0.00900
H 	H 	0.46880 0.89960 0.46940 0.00600
Cl	Cl	0.37540 0.70600 0.16740 -0.34700
Cl	Cl	0.41608 0.94940 0.01642 -0.48800
Cd	Cd	0.63050 0.25000 0.75000 1.29100
Cd	Cd	0.86950 0.75000 0.75000 1.29100
Cd	Cd	0.36950 0.25000 0.75000 1.29100
Cd	Cd	0.13050 0.75000 0.75000 1.29100
Cd	Cd	0.36950 0.75000 0.25000 1.29100
Cd	Cd	0.13050 0.25000 0.25000 1.29200
Cd	Cd	0.63050 0.75000 0.25000 1.29100
Cd	Cd	0.86950 0.25000 0.25000 1.29100
Cr	Cr	0.75000 0.50000 0.66102 1.57100
O 	O 	0.75000 0.50000 0.74260 -0.82200
Cr	Cr	0.25000 0.00000 0.66102 1.55600
O 	O 	0.25000 0.00000 0.74260 -0.84700
Cr	Cr	0.25000 0.50000 0.83898 1.57200
O 	O 	0.25000 0.50000 0.75740 -0.82200
Cr	Cr	0.75000 0.00000 0.83898 1.55800
O 	O 	0.75000 0.00000 0.75740 -0.84600
Cr	Cr	0.25000 0.50000 0.33898 1.57000
O 	O 	0.25000 0.50000 0.25740 -0.82200
Cr	Cr	0.75000 -0.00000 0.33898 1.55700
O 	O 	0.75000 -0.00000 0.25740 -0.84600
Cr	Cr	0.75000 0.50000 0.16102 1.57000
O 	O 	0.75000 0.50000 0.24260 -0.82100
Cr	Cr	0.25000 0.00000 0.16102 1.55500
O 	O 	0.25000 0.00000 0.24260 -0.84600
Cd	Cd	0.50000 0.50000 0.50000 1.22100
Cd	Cd	0.00000 0.00000 0.50000 1.19400
Cd	Cd	0.00000 0.50000 0.50000 1.20700
Cd	Cd	0.50000 0.00000 0.50000 1.20700
Cd	Cd	0.50000 0.50000 -0.00000 1.20400
Cd	Cd	-0.00000 0.00000 -0.00000 1.17700
Cd	Cd	0.00000 0.50000 -0.00000 1.19000
Cd	Cd	0.50000 0.00000 -0.00000 1.19000
