data_crystal

_cell_length_a 30.32490
_cell_length_b 15.78640
_cell_length_c 40.45550
_cell_angle_alpha 90.00000
_cell_angle_beta  90.00000
_cell_angle_gamma 90.00000

_symmetry_space_group_name_	'P 1'
_symmetry_space_group_name_H-M	'P 1'

loop_
_symmetry_equiv_pos_as_xyz
  x,y,z

loop_
_atom_site_label
_atom_site_type_symbol
_atom_site_fract_x
_atom_site_fract_y
_atom_site_fract_z
_atom_site_charge
Al	Al	0.44962 0.54022 0.58550 2.39200
Al	Al	0.47754 0.46924 0.65596 2.39100
Al	Al	0.53361 0.61432 0.62151 2.39300
Al	Al	0.28628 0.89095 0.38001 2.39300
Al	Al	0.22900 0.03070 0.34332 2.39100
Al	Al	0.20218 0.96789 0.41528 2.39300
C 	C 	0.53487 0.55981 0.55363 0.61500
C 	C 	0.56371 0.54660 0.52364 -0.29600
C 	C 	0.54572 0.55560 0.49295 0.21500
H 	H 	0.51580 0.56650 0.49050 -0.03600
C 	C 	0.57286 0.54820 0.46534 -0.28800
H 	H 	0.56080 0.55500 0.44440 0.13300
C 	C 	0.61621 0.53136 0.46829 0.22800
C 	C 	0.63315 0.51590 0.50047 -0.28700
H 	H 	0.66200 0.49690 0.50300 0.13100
C 	C 	0.60766 0.52840 0.52738 0.22200
H 	H 	0.61990 0.52470 0.54840 -0.03300
C 	C 	0.69896 0.85394 0.39460 0.65100
C 	C 	0.68667 0.77053 0.40550 -0.35600
C 	C 	0.68558 0.70103 0.38482 0.26300
H 	H 	0.69440 0.70730 0.36290 -0.05300
C 	C 	0.67192 0.62313 0.39557 -0.32700
H 	H 	0.67100 0.57810 0.38080 0.14500
C 	C 	0.65936 0.61000 0.42816 0.26100
C 	C 	0.66219 0.67880 0.44972 -0.31700
H 	H 	0.65570 0.67140 0.47200 0.14300
C 	C 	0.67448 0.75719 0.43830 0.25400
H 	H 	0.67470 0.80270 0.45290 -0.04500
C 	C 	0.72009 0.21081 0.41180 0.64400
C 	C 	0.70194 0.29426 0.41862 -0.32900
C 	C 	0.72513 0.36968 0.41207 0.23300
H 	H 	0.75290 0.36610 0.40240 -0.03900
C 	C 	0.70890 0.44625 0.41919 -0.28800
H 	H 	0.72600 0.49440 0.41580 0.13100
C 	C 	0.66452 0.45390 0.43218 0.21700
C 	C 	0.64123 0.37870 0.43816 -0.28500
H 	H 	0.61210 0.38080 0.44540 0.13300
C 	C 	0.66167 0.30200 0.43328 0.23300
H 	H 	0.64740 0.25310 0.44030 -0.03800
C 	C 	0.32186 0.04084 0.34794 0.64500
C 	C 	0.36526 0.08066 0.33874 -0.22800
C 	C 	0.40507 0.03890 0.34545 0.13200
H 	H 	0.40500 0.98810 0.35700 -0.00500
C 	C 	0.44512 0.07430 0.33456 -0.20900
H 	H 	0.47150 0.04580 0.33830 0.10700
C 	C 	0.44534 0.14960 0.31869 0.14300
C 	C 	0.40583 0.19520 0.31380 -0.08300
C 	C 	0.36675 0.15950 0.32316 0.08100
H 	H 	0.34060 0.18830 0.31910 0.01600
C 	C 	0.64435 0.04399 0.36002 0.61200
C 	C 	0.60217 0.08136 0.34600 -0.27000
C 	C 	0.59541 0.08280 0.31288 0.19200
H 	H 	0.61670 0.06140 0.29860 -0.02400
C 	C 	0.55597 0.11690 0.30005 -0.27600
H 	H 	0.55030 0.11470 0.27750 0.12900
C 	C 	0.52660 0.15270 0.32067 0.22200
C 	C 	0.53438 0.15850 0.35400 -0.26100
H 	H 	0.51400 0.18450 0.36780 0.12400
C 	C 	0.57388 0.12420 0.36717 0.17500
H 	H 	0.58070 0.13040 0.38950 -0.01800
C 	C 	0.49258 0.37663 0.18878 0.59500
C 	C 	0.49191 0.32740 0.21972 -0.28000
C 	C 	0.51373 0.35550 0.24773 0.18800
H 	H 	0.52850 0.40710 0.24770 -0.02500
C 	C 	0.51324 0.30400 0.27659 -0.26600
H 	H 	0.53090 0.31900 0.29450 0.12600
C 	C 	0.48779 0.23380 0.27866 0.23000
C 	C 	0.46488 0.20750 0.25027 -0.28000
H 	H 	0.44770 0.15880 0.25100 0.13000
C 	C 	0.46778 0.25280 0.22188 0.20800
H 	H 	0.45310 0.23320 0.20320 -0.02900
C 	C 	0.44947 0.36458 0.60095 0.61600
C 	C 	0.43699 0.28061 0.58889 -0.28000
C 	C 	0.42426 0.26715 0.55651 0.18100
H 	H 	0.42530 0.31210 0.54170 -0.02100
C 	C 	0.40985 0.18793 0.54531 -0.24600
H 	H 	0.39940 0.18210 0.52380 0.11900
C 	C 	0.41112 0.11647 0.56658 0.20300
C 	C 	0.42294 0.13010 0.59977 -0.25100
H 	H 	0.42170 0.08560 0.61480 0.11800
C 	C 	0.43665 0.21049 0.61017 0.17800
H 	H 	0.44580 0.21760 0.63190 -0.02100
C 	C 	0.28659 0.96623 0.44554 0.57800
C 	C 	0.31667 0.99340 0.47396 -0.24100
C 	C 	0.35896 0.96520 0.47294 0.14400
H 	H 	0.36910 0.93570 0.45460 -0.00600
C 	C 	0.38847 0.98140 0.50075 -0.22700
H 	H 	0.41710 0.96060 0.50130 0.11300
C 	C 	0.37136 0.02946 0.52625 0.19500
C 	C 	0.32853 0.06260 0.52554 -0.24100
H 	H 	0.31840 0.09680 0.54260 0.11500
C 	C 	0.30111 0.04330 0.49845 0.16100
H 	H 	0.27260 0.06460 0.49740 -0.01200
C 	C 	0.46709 0.71691 0.59135 0.60400
C 	C 	0.44880 0.80524 0.58495 -0.26000
C 	C 	0.47606 0.87490 0.58634 0.18000
H 	H 	0.50540 0.87000 0.59280 -0.02200
C 	C 	0.45770 0.95484 0.57751 -0.27300
H 	H 	0.47500 0.00330 0.57890 0.12600
C 	C 	0.41565 0.96130 0.56711 0.23600
C 	C 	0.38862 0.89236 0.56817 -0.27500
H 	H 	0.35910 0.89840 0.56250 0.13000
C 	C 	0.40433 0.81340 0.57758 0.18700
H 	H 	0.38550 0.76710 0.57890 -0.02000
C 	C 	0.39152 0.53728 0.64175 0.59100
C 	C 	0.35101 0.57760 0.65592 -0.25700
C 	C 	0.31987 0.61220 0.63436 0.17000
H 	H 	0.32490 0.61220 0.61170 -0.01800
C 	C 	0.28126 0.64660 0.64724 -0.25200
H 	H 	0.26000 0.66840 0.63300 0.12000
C 	C 	0.27439 0.64850 0.68082 0.20300
C 	C 	0.30493 0.61240 0.70258 -0.24300
H 	H 	0.29960 0.61210 0.72520 0.11800
C 	C 	0.34377 0.57670 0.68982 0.16500
H 	H 	0.36450 0.55270 0.70390 -0.01400
C 	C 	0.07193 0.53686 0.65202 0.58600
C 	C 	0.11346 0.57699 0.66178 -0.29600
C 	C 	0.15350 0.53220 0.65857 0.22900
H 	H 	0.15280 0.47850 0.64920 -0.03800
C 	C 	0.19153 0.56250 0.66814 -0.29400
H 	H 	0.21690 0.52970 0.66620 0.13500
C 	C 	0.19411 0.64720 0.68182 0.22500
C 	C 	0.15435 0.69090 0.68539 -0.28400
H 	H 	0.15470 0.74460 0.69480 0.13100
C 	C 	0.11501 0.65750 0.67546 0.21300
H 	H 	0.08920 0.68870 0.67790 -0.03300
C 	C 	0.24090 0.87758 0.81194 0.66900
C 	C 	0.23913 0.82357 0.78088 -0.29200
C 	C 	0.21191 0.75350 0.77970 0.19600
H 	H 	0.19530 0.73800 0.79800 -0.02800
C 	C 	0.20971 0.70610 0.75045 -0.26500
H 	H 	0.19130 0.65900 0.74930 0.12400
C 	C 	0.23505 0.72930 0.72295 0.22000
C 	C 	0.26204 0.79930 0.72510 -0.27800
H 	H 	0.27880 0.81520 0.70690 0.12900
C 	C 	0.26463 0.84600 0.75369 0.20500
H 	H 	0.28340 0.89250 0.75480 -0.03100
N 	N 	0.64375 0.53269 0.43903 -0.22300
N 	N 	0.48575 0.18720 0.30809 -0.20200
N 	N 	0.39852 0.03790 0.55423 -0.21500
N 	N 	0.23337 0.68010 0.69361 -0.21500
O 	O 	0.49465 0.54938 0.55216 -0.74800
O 	O 	0.55590 0.57976 0.57945 -0.73500
O 	O 	0.71401 0.86894 0.36633 -0.76000
O 	O 	0.69272 0.91568 0.41489 -0.76000
O 	O 	0.75575 0.20448 0.39467 -0.75400
O 	O 	0.70293 0.14994 0.42538 -0.76800
O 	O 	0.28809 0.07132 0.33969 -0.78700
O 	O 	0.32697 0.97210 0.36410 -0.75600
O 	O 	0.65074 0.05153 0.39012 -0.75400
O 	O 	0.66758 0.00211 0.34060 -0.72900
O 	O 	0.47890 0.33755 0.16306 -0.72900
O 	O 	0.50588 0.45126 0.18958 -0.73800
O 	O 	0.44974 0.42457 0.57964 -0.77200
O 	O 	0.45895 0.37220 0.63052 -0.74500
O 	O 	0.30395 0.91995 0.42348 -0.73700
O 	O 	0.24784 0.99173 0.44614 -0.72800
O 	O 	0.44020 0.65839 0.58525 -0.75200
O 	O 	0.50465 0.71001 0.60280 -0.75300
O 	O 	0.39707 0.53613 0.61205 -0.74400
O 	O 	0.41971 0.50587 0.66290 -0.73800
O 	O 	0.26031 0.94400 0.81097 -0.78000
O 	O 	0.22190 0.84762 0.83659 -0.76200
O 	O 	0.07387 0.46045 0.64103 -0.74300
O 	O 	0.03605 0.57640 0.65644 -0.72100
O 	O 	0.48750 0.54109 0.62130 -1.36400
O 	O 	0.23888 0.96251 0.37954 -1.35800
Al	Al	0.55038 0.45978 0.08550 2.39100
Al	Al	0.52246 0.53076 0.15596 2.39000
Al	Al	0.46639 0.38568 0.12151 2.39200
Al	Al	0.71372 0.10905 0.88001 2.39200
Al	Al	0.77100 0.96930 0.84332 2.39000
Al	Al	0.79782 0.03211 0.91528 2.39200
C 	C 	0.46513 0.44019 0.05363 0.61100
C 	C 	0.43629 0.45340 0.02364 -0.29000
C 	C 	0.45428 0.44440 0.99295 0.20600
H 	H 	0.48420 0.43350 0.99050 -0.03500
C 	C 	0.42714 0.45180 0.96534 -0.28300
H 	H 	0.43920 0.44500 0.94440 0.12900
C 	C 	0.38379 0.46864 0.96829 0.22000
C 	C 	0.36685 0.48410 0.00047 -0.28000
H 	H 	0.33800 0.50310 0.00300 0.12800
C 	C 	0.39234 0.47160 0.02738 0.21600
H 	H 	0.38010 0.47530 0.04840 -0.03000
C 	C 	0.30104 0.14606 0.89460 0.65100
C 	C 	0.31333 0.22947 0.90550 -0.35600
C 	C 	0.31442 0.29897 0.88482 0.26300
H 	H 	0.30560 0.29270 0.86290 -0.05300
C 	C 	0.32808 0.37687 0.89557 -0.32700
H 	H 	0.32900 0.42190 0.88080 0.14500
C 	C 	0.34064 0.39000 0.92816 0.26000
C 	C 	0.33781 0.32120 0.94972 -0.31700
H 	H 	0.34430 0.32860 0.97200 0.14300
C 	C 	0.32552 0.24281 0.93830 0.25300
H 	H 	0.32530 0.19730 0.95290 -0.04500
C 	C 	0.27991 0.78919 0.91180 0.64400
C 	C 	0.29806 0.70574 0.91862 -0.32900
C 	C 	0.27487 0.63032 0.91207 0.23200
H 	H 	0.24710 0.63390 0.90240 -0.03900
C 	C 	0.29110 0.55375 0.91919 -0.28800
H 	H 	0.27400 0.50560 0.91580 0.13100
C 	C 	0.33548 0.54610 0.93218 0.21600
C 	C 	0.35877 0.62130 0.93816 -0.28500
H 	H 	0.38790 0.61920 0.94540 0.13200
C 	C 	0.33833 0.69800 0.93328 0.23300
H 	H 	0.35260 0.74690 0.94030 -0.03900
C 	C 	0.67814 0.95916 0.84794 0.64500
C 	C 	0.63474 0.91934 0.83874 -0.22800
C 	C 	0.59493 0.96110 0.84545 0.13200
H 	H 	0.59500 0.01190 0.85700 -0.00500
C 	C 	0.55488 0.92570 0.83456 -0.20900
H 	H 	0.52850 0.95420 0.83830 0.10700
C 	C 	0.55466 0.85040 0.81869 0.14300
C 	C 	0.59417 0.80480 0.81380 -0.08300
C 	C 	0.63325 0.84050 0.82316 0.08100
H 	H 	0.65940 0.81170 0.81910 0.01600
C 	C 	0.35565 0.95601 0.86002 0.61200
C 	C 	0.39783 0.91864 0.84600 -0.27000
C 	C 	0.40459 0.91720 0.81288 0.19200
H 	H 	0.38330 0.93860 0.79860 -0.02400
C 	C 	0.44403 0.88310 0.80005 -0.27600
H 	H 	0.44970 0.88530 0.77750 0.12900
C 	C 	0.47340 0.84730 0.82067 0.22200
C 	C 	0.46562 0.84150 0.85400 -0.26100
H 	H 	0.48600 0.81550 0.86780 0.12400
C 	C 	0.42612 0.87580 0.86717 0.17500
H 	H 	0.41930 0.86960 0.88950 -0.01800
C 	C 	0.50742 0.62337 0.68878 0.59500
C 	C 	0.50809 0.67260 0.71972 -0.28000
C 	C 	0.48627 0.64450 0.74773 0.18800
H 	H 	0.47150 0.59290 0.74770 -0.02500
C 	C 	0.48676 0.69600 0.77659 -0.26600
H 	H 	0.46910 0.68100 0.79450 0.12600
C 	C 	0.51221 0.76620 0.77866 0.23000
C 	C 	0.53512 0.79250 0.75027 -0.28000
H 	H 	0.55230 0.84120 0.75100 0.13000
C 	C 	0.53222 0.74720 0.72188 0.20800
H 	H 	0.54690 0.76680 0.70320 -0.02900
C 	C 	0.55053 0.63542 0.10095 0.61600
C 	C 	0.56301 0.71939 0.08889 -0.28000
C 	C 	0.57574 0.73285 0.05651 0.18100
H 	H 	0.57470 0.68790 0.04170 -0.02000
C 	C 	0.59015 0.81207 0.04531 -0.24600
H 	H 	0.60060 0.81790 0.02380 0.11900
C 	C 	0.58888 0.88353 0.06658 0.20300
C 	C 	0.57706 0.86990 0.09977 -0.25100
H 	H 	0.57830 0.91440 0.11480 0.11800
C 	C 	0.56335 0.78951 0.11017 0.17800
H 	H 	0.55420 0.78240 0.13190 -0.02100
C 	C 	0.71341 0.03377 0.94554 0.57600
C 	C 	0.68333 0.00660 0.97396 -0.23600
C 	C 	0.64104 0.03480 0.97294 0.13700
H 	H 	0.63090 0.06430 0.95460 -0.00500
C 	C 	0.61153 0.01860 0.00075 -0.22000
H 	H 	0.58290 0.03940 0.00130 0.11200
C 	C 	0.62864 0.97054 0.02625 0.19200
C 	C 	0.67147 0.93740 0.02554 -0.23400
H 	H 	0.68160 0.90320 0.04260 0.11300
C 	C 	0.69889 0.95670 0.99845 0.15300
H 	H 	0.72740 0.93540 0.99740 -0.01000
C 	C 	0.53291 0.28309 0.09135 0.60400
C 	C 	0.55120 0.19476 0.08495 -0.26000
C 	C 	0.52394 0.12510 0.08634 0.18000
H 	H 	0.49460 0.13000 0.09280 -0.02200
C 	C 	0.54230 0.04516 0.07751 -0.27300
H 	H 	0.52500 0.99670 0.07890 0.12700
C 	C 	0.58435 0.03870 0.06711 0.23600
C 	C 	0.61138 0.10764 0.06817 -0.27500
H 	H 	0.64090 0.10160 0.06250 0.13100
C 	C 	0.59567 0.18660 0.07758 0.18700
H 	H 	0.61450 0.23290 0.07890 -0.01900
C 	C 	0.60848 0.46272 0.14175 0.59100
C 	C 	0.64899 0.42240 0.15592 -0.25700
C 	C 	0.68013 0.38780 0.13436 0.17000
H 	H 	0.67510 0.38780 0.11170 -0.01800
C 	C 	0.71874 0.35340 0.14724 -0.25200
H 	H 	0.74000 0.33160 0.13300 0.12000
C 	C 	0.72561 0.35150 0.18082 0.20300
C 	C 	0.69507 0.38760 0.20258 -0.24300
H 	H 	0.70040 0.38790 0.22520 0.11800
C 	C 	0.65623 0.42330 0.18982 0.16500
H 	H 	0.63550 0.44730 0.20390 -0.01400
C 	C 	0.92807 0.46314 0.15202 0.58600
C 	C 	0.88654 0.42301 0.16178 -0.29600
C 	C 	0.84650 0.46780 0.15857 0.22900
H 	H 	0.84720 0.52150 0.14920 -0.03800
C 	C 	0.80847 0.43750 0.16814 -0.29400
H 	H 	0.78310 0.47030 0.16620 0.13500
C 	C 	0.80589 0.35280 0.18182 0.22500
C 	C 	0.84565 0.30910 0.18539 -0.28400
H 	H 	0.84530 0.25540 0.19480 0.13100
C 	C 	0.88499 0.34250 0.17546 0.21300
H 	H 	0.91080 0.31130 0.17790 -0.03300
C 	C 	0.75910 0.12242 0.31194 0.66900
C 	C 	0.76087 0.17643 0.28088 -0.29200
C 	C 	0.78809 0.24650 0.27970 0.19600
H 	H 	0.80470 0.26200 0.29800 -0.02800
C 	C 	0.79029 0.29390 0.25045 -0.26500
H 	H 	0.80870 0.34100 0.24930 0.12400
C 	C 	0.76495 0.27070 0.22295 0.22000
C 	C 	0.73796 0.20070 0.22510 -0.27800
H 	H 	0.72120 0.18480 0.20690 0.12900
C 	C 	0.73537 0.15400 0.25369 0.20500
H 	H 	0.71660 0.10750 0.25480 -0.03100
N 	N 	0.35625 0.46731 0.93903 -0.22300
N 	N 	0.51425 0.81280 0.80809 -0.20200
N 	N 	0.60148 0.96210 0.05423 -0.21400
N 	N 	0.76663 0.31990 0.19361 -0.21500
O 	O 	0.50535 0.45062 0.05216 -0.74700
O 	O 	0.44410 0.42024 0.07945 -0.73400
O 	O 	0.28599 0.13106 0.86633 -0.76000
O 	O 	0.30728 0.08432 0.91489 -0.76000
O 	O 	0.24425 0.79552 0.89467 -0.75400
O 	O 	0.29707 0.85006 0.92538 -0.76800
O 	O 	0.71191 0.92868 0.83969 -0.78700
O 	O 	0.67303 0.02790 0.86410 -0.75600
O 	O 	0.34926 0.94847 0.89012 -0.75400
O 	O 	0.33242 0.99789 0.84060 -0.72900
O 	O 	0.52110 0.66245 0.66306 -0.72900
O 	O 	0.49412 0.54874 0.68958 -0.73800
O 	O 	0.55026 0.57543 0.07964 -0.77200
O 	O 	0.54105 0.62780 0.13052 -0.74500
O 	O 	0.69605 0.08005 0.92348 -0.73700
O 	O 	0.75216 0.00827 0.94614 -0.72800
O 	O 	0.55980 0.34161 0.08525 -0.75200
O 	O 	0.49535 0.28999 0.10280 -0.75300
O 	O 	0.60293 0.46387 0.11205 -0.74400
O 	O 	0.58029 0.49413 0.16290 -0.73800
O 	O 	0.73969 0.05600 0.31097 -0.78000
O 	O 	0.77810 0.15238 0.33659 -0.76200
O 	O 	0.92613 0.53955 0.14103 -0.74300
O 	O 	0.96395 0.42360 0.15644 -0.72100
O 	O 	0.51250 0.45891 0.12130 -1.36400
O 	O 	0.76112 0.03749 0.87954 -1.35800
Al	Al	0.94962 0.45978 0.58550 2.39100
Al	Al	0.97754 0.53076 0.65596 2.39000
Al	Al	0.03361 0.38568 0.62151 2.39200
Al	Al	0.78628 0.10905 0.38001 2.39200
Al	Al	0.72900 0.96930 0.34332 2.39000
Al	Al	0.70218 0.03211 0.41528 2.39200
C 	C 	0.03487 0.44019 0.55363 0.61400
C 	C 	0.06371 0.45340 0.52364 -0.29700
C 	C 	0.04572 0.44440 0.49295 0.21400
H 	H 	0.01580 0.43350 0.49050 -0.03800
C 	C 	0.07286 0.45180 0.46534 -0.28900
H 	H 	0.06080 0.44500 0.44440 0.13200
C 	C 	0.11621 0.46864 0.46829 0.22700
C 	C 	0.13315 0.48410 0.50047 -0.28800
H 	H 	0.16200 0.50310 0.50300 0.13100
C 	C 	0.10766 0.47160 0.52738 0.22200
H 	H 	0.11990 0.47530 0.54840 -0.03300
C 	C 	0.19896 0.14606 0.39460 0.65100
C 	C 	0.18667 0.22947 0.40550 -0.35600
C 	C 	0.18558 0.29897 0.38482 0.26400
H 	H 	0.19440 0.29270 0.36290 -0.05300
C 	C 	0.17192 0.37687 0.39557 -0.32700
H 	H 	0.17100 0.42190 0.38080 0.14500
C 	C 	0.15936 0.39000 0.42816 0.26100
C 	C 	0.16219 0.32120 0.44972 -0.31700
H 	H 	0.15570 0.32860 0.47200 0.14300
C 	C 	0.17448 0.24281 0.43830 0.25400
H 	H 	0.17470 0.19730 0.45290 -0.04500
C 	C 	0.22009 0.78919 0.41180 0.64400
C 	C 	0.20194 0.70574 0.41862 -0.32900
C 	C 	0.22513 0.63032 0.41207 0.23300
H 	H 	0.25290 0.63390 0.40240 -0.03900
C 	C 	0.20890 0.55375 0.41919 -0.28800
H 	H 	0.22600 0.50560 0.41580 0.13100
C 	C 	0.16452 0.54610 0.43218 0.21700
C 	C 	0.14123 0.62130 0.43816 -0.28500
H 	H 	0.11210 0.61920 0.44540 0.13300
C 	C 	0.16167 0.69800 0.43328 0.23300
H 	H 	0.14740 0.74690 0.44030 -0.03800
C 	C 	0.82186 0.95916 0.34794 0.64400
C 	C 	0.86526 0.91934 0.33874 -0.22600
C 	C 	0.90507 0.96110 0.34545 0.13000
H 	H 	0.90500 0.01190 0.35700 -0.00400
C 	C 	0.94512 0.92570 0.33456 -0.20800
H 	H 	0.97150 0.95420 0.33830 0.10600
C 	C 	0.94534 0.85040 0.31869 0.14200
C 	C 	0.90583 0.80480 0.31380 -0.08300
C 	C 	0.86675 0.84050 0.32316 0.08000
H 	H 	0.84060 0.81170 0.31910 0.01700
C 	C 	0.14435 0.95601 0.36002 0.61200
C 	C 	0.10217 0.91864 0.34600 -0.27000
C 	C 	0.09541 0.91720 0.31288 0.19300
H 	H 	0.11670 0.93860 0.29860 -0.02400
C 	C 	0.05597 0.88310 0.30005 -0.27600
H 	H 	0.05030 0.88530 0.27750 0.13000
C 	C 	0.02660 0.84730 0.32067 0.22300
C 	C 	0.03438 0.84150 0.35400 -0.26100
H 	H 	0.01400 0.81550 0.36780 0.12500
C 	C 	0.07388 0.87580 0.36717 0.17500
H 	H 	0.08070 0.86960 0.38950 -0.01800
C 	C 	0.99258 0.62337 0.18878 0.59400
C 	C 	0.99191 0.67260 0.21972 -0.28000
C 	C 	0.01373 0.64450 0.24773 0.18800
H 	H 	0.02850 0.59290 0.24770 -0.02500
C 	C 	0.01324 0.69600 0.27659 -0.26500
H 	H 	0.03090 0.68100 0.29450 0.12500
C 	C 	0.98779 0.76620 0.27866 0.22900
C 	C 	0.96488 0.79250 0.25027 -0.27900
H 	H 	0.94770 0.84120 0.25100 0.12900
C 	C 	0.96778 0.74720 0.22188 0.20800
H 	H 	0.95310 0.76680 0.20320 -0.02900
C 	C 	0.94947 0.63542 0.60095 0.61600
C 	C 	0.93699 0.71939 0.58889 -0.28000
C 	C 	0.92426 0.73285 0.55651 0.18100
H 	H 	0.92530 0.68790 0.54170 -0.02100
C 	C 	0.90985 0.81207 0.54531 -0.24600
H 	H 	0.89940 0.81790 0.52380 0.11900
C 	C 	0.91112 0.88353 0.56658 0.20300
C 	C 	0.92294 0.86990 0.59977 -0.25100
H 	H 	0.92170 0.91440 0.61480 0.11800
C 	C 	0.93665 0.78951 0.61017 0.17800
H 	H 	0.94580 0.78240 0.63190 -0.02100
C 	C 	0.78659 0.03377 0.44554 0.57700
C 	C 	0.81667 0.00660 0.47396 -0.24000
C 	C 	0.85896 0.03480 0.47294 0.14300
H 	H 	0.86910 0.06430 0.45460 -0.00600
C 	C 	0.88847 0.01860 0.50075 -0.22500
H 	H 	0.91710 0.03940 0.50130 0.11300
C 	C 	0.87136 0.97054 0.52625 0.19400
C 	C 	0.82853 0.93740 0.52554 -0.24000
H 	H 	0.81840 0.90320 0.54260 0.11500
C 	C 	0.80111 0.95670 0.49845 0.16000
H 	H 	0.77260 0.93540 0.49740 -0.01200
C 	C 	0.96709 0.28309 0.59135 0.60500
C 	C 	0.94880 0.19476 0.58495 -0.26100
C 	C 	0.97606 0.12510 0.58634 0.18200
H 	H 	0.00540 0.13000 0.59280 -0.02400
C 	C 	0.95770 0.04516 0.57751 -0.27200
H 	H 	0.97500 0.99670 0.57890 0.12500
C 	C 	0.91565 0.03870 0.56711 0.23600
C 	C 	0.88862 0.10764 0.56817 -0.27600
H 	H 	0.85910 0.10160 0.56250 0.13100
C 	C 	0.90433 0.18660 0.57758 0.18800
H 	H 	0.88550 0.23290 0.57890 -0.02000
C 	C 	0.89152 0.46272 0.64175 0.59100
C 	C 	0.85101 0.42240 0.65592 -0.25700
C 	C 	0.81987 0.38780 0.63436 0.17000
H 	H 	0.82490 0.38780 0.61170 -0.01800
C 	C 	0.78126 0.35340 0.64724 -0.25200
H 	H 	0.76000 0.33160 0.63300 0.12000
C 	C 	0.77439 0.35150 0.68082 0.20300
C 	C 	0.80493 0.38760 0.70258 -0.24300
H 	H 	0.79960 0.38790 0.72520 0.11800
C 	C 	0.84377 0.42330 0.68982 0.16500
H 	H 	0.86450 0.44730 0.70390 -0.01400
C 	C 	0.57193 0.46314 0.65202 0.58600
C 	C 	0.61346 0.42301 0.66178 -0.29700
C 	C 	0.65350 0.46780 0.65857 0.22900
H 	H 	0.65280 0.52150 0.64920 -0.03800
C 	C 	0.69153 0.43750 0.66814 -0.29400
H 	H 	0.71690 0.47030 0.66620 0.13500
C 	C 	0.69411 0.35280 0.68182 0.22500
C 	C 	0.65435 0.30910 0.68539 -0.28400
H 	H 	0.65470 0.25540 0.69480 0.13000
C 	C 	0.61501 0.34250 0.67546 0.21300
H 	H 	0.58920 0.31130 0.67790 -0.03300
C 	C 	0.74090 0.12242 0.81194 0.66900
C 	C 	0.73913 0.17643 0.78088 -0.29200
C 	C 	0.71191 0.24650 0.77970 0.19600
H 	H 	0.69530 0.26200 0.79800 -0.02800
C 	C 	0.70971 0.29390 0.75045 -0.26500
H 	H 	0.69130 0.34100 0.74930 0.12400
C 	C 	0.73505 0.27070 0.72295 0.22000
C 	C 	0.76204 0.20070 0.72510 -0.27800
H 	H 	0.77880 0.18480 0.70690 0.12900
C 	C 	0.76463 0.15400 0.75369 0.20500
H 	H 	0.78340 0.10750 0.75480 -0.03100
N 	N 	0.14375 0.46731 0.43903 -0.22300
N 	N 	0.98575 0.81280 0.30809 -0.20200
N 	N 	0.89852 0.96210 0.55423 -0.21500
N 	N 	0.73337 0.31990 0.69361 -0.21500
O 	O 	0.99465 0.45062 0.55216 -0.74800
O 	O 	0.05590 0.42024 0.57945 -0.73500
O 	O 	0.21401 0.13106 0.36633 -0.76000
O 	O 	0.19272 0.08432 0.41489 -0.76000
O 	O 	0.25575 0.79552 0.39467 -0.75400
O 	O 	0.20293 0.85006 0.42538 -0.76800
O 	O 	0.78809 0.92868 0.33969 -0.78700
O 	O 	0.82697 0.02790 0.36410 -0.75600
O 	O 	0.15074 0.94847 0.39012 -0.75300
O 	O 	0.16758 0.99789 0.34060 -0.72900
O 	O 	0.97890 0.66245 0.16306 -0.72900
O 	O 	0.00588 0.54874 0.18958 -0.73800
O 	O 	0.94974 0.57543 0.57964 -0.77200
O 	O 	0.95895 0.62780 0.63052 -0.74500
O 	O 	0.80395 0.08005 0.42348 -0.73700
O 	O 	0.74784 0.00827 0.44614 -0.72800
O 	O 	0.94020 0.34161 0.58525 -0.75200
O 	O 	0.00465 0.28999 0.60280 -0.75400
O 	O 	0.89707 0.46387 0.61205 -0.74400
O 	O 	0.91971 0.49413 0.66290 -0.73800
O 	O 	0.76031 0.05600 0.81097 -0.78000
O 	O 	0.72190 0.15238 0.83659 -0.76200
O 	O 	0.57387 0.53955 0.64103 -0.74300
O 	O 	0.53605 0.42360 0.65644 -0.72100
O 	O 	0.98750 0.45891 0.62130 -1.36400
O 	O 	0.73888 0.03749 0.37954 -1.35800
Al	Al	0.05038 0.54022 0.08550 2.39100
Al	Al	0.02246 0.46924 0.15596 2.39000
Al	Al	0.96639 0.61432 0.12151 2.39200
Al	Al	0.21372 0.89095 0.88001 2.39200
Al	Al	0.27100 0.03070 0.84332 2.39000
Al	Al	0.29782 0.96789 0.91528 2.39200
C 	C 	0.96513 0.55981 0.05363 0.61100
C 	C 	0.93629 0.54660 0.02364 -0.29000
C 	C 	0.95428 0.55560 0.99295 0.20600
H 	H 	0.98420 0.56650 0.99050 -0.03500
C 	C 	0.92714 0.54820 0.96534 -0.28300
H 	H 	0.93920 0.55500 0.94440 0.12900
C 	C 	0.88379 0.53136 0.96829 0.22000
C 	C 	0.86685 0.51590 0.00047 -0.28000
H 	H 	0.83800 0.49690 0.00300 0.12800
C 	C 	0.89234 0.52840 0.02738 0.21600
H 	H 	0.88010 0.52470 0.04840 -0.03000
C 	C 	0.80104 0.85394 0.89460 0.65100
C 	C 	0.81333 0.77053 0.90550 -0.35600
C 	C 	0.81442 0.70103 0.88482 0.26300
H 	H 	0.80560 0.70730 0.86290 -0.05300
C 	C 	0.82808 0.62313 0.89557 -0.32700
H 	H 	0.82900 0.57810 0.88080 0.14500
C 	C 	0.84064 0.61000 0.92816 0.26000
C 	C 	0.83781 0.67880 0.94972 -0.31700
H 	H 	0.84430 0.67140 0.97200 0.14300
C 	C 	0.82552 0.75719 0.93830 0.25300
H 	H 	0.82530 0.80270 0.95290 -0.04500
C 	C 	0.77991 0.21081 0.91180 0.64400
C 	C 	0.79806 0.29426 0.91862 -0.32900
C 	C 	0.77487 0.36968 0.91207 0.23200
H 	H 	0.74710 0.36610 0.90240 -0.03900
C 	C 	0.79110 0.44625 0.91919 -0.28800
H 	H 	0.77400 0.49440 0.91580 0.13100
C 	C 	0.83548 0.45390 0.93218 0.21600
C 	C 	0.85877 0.37870 0.93816 -0.28500
H 	H 	0.88790 0.38080 0.94540 0.13200
C 	C 	0.83833 0.30200 0.93328 0.23300
H 	H 	0.85260 0.25310 0.94030 -0.03800
C 	C 	0.17814 0.04084 0.84794 0.64400
C 	C 	0.13474 0.08066 0.83874 -0.22700
C 	C 	0.09493 0.03890 0.84545 0.13000
H 	H 	0.09500 0.98810 0.85700 -0.00400
C 	C 	0.05488 0.07430 0.83456 -0.20800
H 	H 	0.02850 0.04580 0.83830 0.10600
C 	C 	0.05466 0.14960 0.81869 0.14200
C 	C 	0.09417 0.19520 0.81380 -0.08300
C 	C 	0.13325 0.15950 0.82316 0.08000
H 	H 	0.15940 0.18830 0.81910 0.01700
C 	C 	0.85565 0.04399 0.86002 0.61200
C 	C 	0.89783 0.08136 0.84600 -0.27000
C 	C 	0.90459 0.08280 0.81288 0.19300
H 	H 	0.88330 0.06140 0.79860 -0.02400
C 	C 	0.94403 0.11690 0.80005 -0.27600
H 	H 	0.94970 0.11470 0.77750 0.13000
C 	C 	0.97340 0.15270 0.82067 0.22400
C 	C 	0.96562 0.15850 0.85400 -0.26100
H 	H 	0.98600 0.18450 0.86780 0.12500
C 	C 	0.92612 0.12420 0.86717 0.17500
H 	H 	0.91930 0.13040 0.88950 -0.01800
C 	C 	0.00742 0.37663 0.68878 0.59400
C 	C 	0.00809 0.32740 0.71972 -0.28000
C 	C 	0.98627 0.35550 0.74773 0.18800
H 	H 	0.97150 0.40710 0.74770 -0.02500
C 	C 	0.98676 0.30400 0.77659 -0.26500
H 	H 	0.96910 0.31900 0.79450 0.12500
C 	C 	0.01221 0.23380 0.77866 0.22900
C 	C 	0.03512 0.20750 0.75027 -0.27900
H 	H 	0.05230 0.15880 0.75100 0.12900
C 	C 	0.03222 0.25280 0.72188 0.20800
H 	H 	0.04690 0.23320 0.70320 -0.02900
C 	C 	0.05053 0.36458 0.10095 0.61600
C 	C 	0.06301 0.28061 0.08889 -0.28000
C 	C 	0.07574 0.26715 0.05651 0.18100
H 	H 	0.07470 0.31210 0.04170 -0.02000
C 	C 	0.09015 0.18793 0.04531 -0.24600
H 	H 	0.10060 0.18210 0.02380 0.11900
C 	C 	0.08888 0.11647 0.06658 0.20300
C 	C 	0.07706 0.13010 0.09977 -0.25100
H 	H 	0.07830 0.08560 0.11480 0.11800
C 	C 	0.06335 0.21049 0.11017 0.17800
H 	H 	0.05420 0.21760 0.13190 -0.02100
C 	C 	0.21341 0.96623 0.94554 0.57600
C 	C 	0.18333 0.99340 0.97396 -0.23500
C 	C 	0.14104 0.96520 0.97294 0.13600
H 	H 	0.13090 0.93570 0.95460 -0.00400
C 	C 	0.11153 0.98140 0.00075 -0.21900
H 	H 	0.08290 0.96060 0.00130 0.11100
C 	C 	0.12864 0.02946 0.02625 0.19000
C 	C 	0.17147 0.06260 0.02554 -0.23300
H 	H 	0.18160 0.09680 0.04260 0.11300
C 	C 	0.19889 0.04330 0.99845 0.15200
H 	H 	0.22740 0.06460 0.99740 -0.01000
C 	C 	0.03291 0.71691 0.09135 0.60500
C 	C 	0.05120 0.80524 0.08495 -0.26000
C 	C 	0.02394 0.87490 0.08634 0.18100
H 	H 	0.99460 0.87000 0.09280 -0.02300
C 	C 	0.04230 0.95484 0.07751 -0.27200
H 	H 	0.02500 0.00330 0.07890 0.12500
C 	C 	0.08435 0.96130 0.06711 0.23600
C 	C 	0.11138 0.89236 0.06817 -0.27600
H 	H 	0.14090 0.89840 0.06250 0.13100
C 	C 	0.09567 0.81340 0.07758 0.18800
H 	H 	0.11450 0.76710 0.07890 -0.02000
C 	C 	0.10848 0.53728 0.14175 0.59100
C 	C 	0.14899 0.57760 0.15592 -0.25700
C 	C 	0.18013 0.61220 0.13436 0.17000
H 	H 	0.17510 0.61220 0.11170 -0.01800
C 	C 	0.21874 0.64660 0.14724 -0.25200
H 	H 	0.24000 0.66840 0.13300 0.12000
C 	C 	0.22561 0.64850 0.18082 0.20300
C 	C 	0.19507 0.61240 0.20258 -0.24300
H 	H 	0.20040 0.61210 0.22520 0.11800
C 	C 	0.15623 0.57670 0.18982 0.16500
H 	H 	0.13550 0.55270 0.20390 -0.01400
C 	C 	0.42807 0.53686 0.15202 0.58600
C 	C 	0.38654 0.57699 0.16178 -0.29600
C 	C 	0.34650 0.53220 0.15857 0.22900
H 	H 	0.34720 0.47850 0.14920 -0.03800
C 	C 	0.30847 0.56250 0.16814 -0.29400
H 	H 	0.28310 0.52970 0.16620 0.13500
C 	C 	0.30589 0.64720 0.18182 0.22500
C 	C 	0.34565 0.69090 0.18539 -0.28400
H 	H 	0.34530 0.74460 0.19480 0.13000
C 	C 	0.38499 0.65750 0.17546 0.21300
H 	H 	0.41080 0.68870 0.17790 -0.03300
C 	C 	0.25910 0.87758 0.31194 0.66900
C 	C 	0.26087 0.82357 0.28088 -0.29200
C 	C 	0.28809 0.75350 0.27970 0.19600
H 	H 	0.30470 0.73800 0.29800 -0.02800
C 	C 	0.29029 0.70610 0.25045 -0.26500
H 	H 	0.30870 0.65900 0.24930 0.12400
C 	C 	0.26495 0.72930 0.22295 0.22000
C 	C 	0.23796 0.79930 0.22510 -0.27800
H 	H 	0.22120 0.81520 0.20690 0.12900
C 	C 	0.23537 0.84600 0.25369 0.20500
H 	H 	0.21660 0.89250 0.25480 -0.03100
N 	N 	0.85625 0.53269 0.93903 -0.22300
N 	N 	0.01425 0.18720 0.80809 -0.20200
N 	N 	0.10148 0.03790 0.05423 -0.21400
N 	N 	0.26663 0.68010 0.19361 -0.21500
O 	O 	0.00535 0.54938 0.05216 -0.74700
O 	O 	0.94410 0.57976 0.07945 -0.73400
O 	O 	0.78599 0.86894 0.86633 -0.76000
O 	O 	0.80728 0.91568 0.91489 -0.76000
O 	O 	0.74425 0.20448 0.89467 -0.75400
O 	O 	0.79707 0.14994 0.92538 -0.76800
O 	O 	0.21191 0.07132 0.83969 -0.78700
O 	O 	0.17303 0.97210 0.86410 -0.75600
O 	O 	0.84926 0.05153 0.89012 -0.75400
O 	O 	0.83242 0.00211 0.84060 -0.72900
O 	O 	0.02110 0.33755 0.66306 -0.72900
O 	O 	0.99412 0.45126 0.68958 -0.73800
O 	O 	0.05026 0.42457 0.07964 -0.77200
O 	O 	0.04105 0.37220 0.13052 -0.74500
O 	O 	0.19605 0.91995 0.92348 -0.73700
O 	O 	0.25216 0.99173 0.94614 -0.72800
O 	O 	0.05980 0.65839 0.08525 -0.75200
O 	O 	0.99535 0.71001 0.10280 -0.75400
O 	O 	0.10293 0.53613 0.11205 -0.74400
O 	O 	0.08029 0.50587 0.16290 -0.73800
O 	O 	0.23969 0.94400 0.31097 -0.78000
O 	O 	0.27810 0.84762 0.33659 -0.76200
O 	O 	0.42613 0.46045 0.14103 -0.74300
O 	O 	0.46395 0.57640 0.15644 -0.72100
O 	O 	0.01250 0.54109 0.12130 -1.36400
O 	O 	0.26112 0.96251 0.87954 -1.35800
