data_crystal

_cell_length_a 7.18500
_cell_length_b 9.18540
_cell_length_c 21.54400
_cell_angle_alpha 90.00000
_cell_angle_beta  90.00000
_cell_angle_gamma 90.00000

_symmetry_space_group_name_	'P 1'
_symmetry_space_group_name_H-M	'P 1'

loop_
_symmetry_equiv_pos_as_xyz
  x,y,z

loop_
_atom_site_label
_atom_site_type_symbol
_atom_site_fract_x
_atom_site_fract_y
_atom_site_fract_z
_atom_site_charge
C 	C 	0.91060 0.21040 0.09510 0.56000
C 	C 	0.91360 0.25700 0.15320 -0.31100
H 	H 	0.02750 0.27970 0.17120 0.14100
N 	N 	0.64940 0.40080 0.33800 -0.15400
N 	N 	0.59290 0.35150 0.28550 -0.07900
O 	O 	0.60590 0.11790 0.97100 -0.49700
F 	F 	0.09500 0.21000 0.07050 -0.44500
C 	C 	0.41060 0.71040 0.59510 0.64100
C 	C 	0.41360 0.75700 0.65320 -0.51800
H 	H 	0.52750 0.77970 0.67120 0.28300
N 	N 	0.14940 0.90080 0.83800 -0.12900
N 	N 	0.09290 0.85150 0.78550 -0.06300
O 	O 	0.10590 0.61790 0.47100 -0.49700
F 	F 	0.59500 0.71000 0.57050 -0.40300
C 	C 	0.08940 0.78960 0.09510 0.60100
C 	C 	0.08640 0.74300 0.15320 -0.60100
H 	H 	0.97250 0.72030 0.17120 0.34800
N 	N 	0.35060 0.59920 0.33800 -0.15000
N 	N 	0.40710 0.64850 0.28550 -0.05400
O 	O 	0.39410 0.88210 0.97100 -0.41600
F 	F 	0.90500 0.79000 0.07050 -0.34700
C 	C 	0.58940 0.28960 0.59510 0.57300
C 	C 	0.58640 0.24300 0.65320 -0.44500
H 	H 	0.47250 0.22030 0.67120 0.22200
N 	N 	0.85060 0.09920 0.83800 -0.15300
N 	N 	0.90710 0.14850 0.78550 -0.06700
O 	O 	0.89410 0.38210 0.47100 -0.44400
F 	F 	0.40500 0.29000 0.57050 -0.42800
C 	C 	0.41060 0.78960 0.09510 0.61500
C 	C 	0.41360 0.74300 0.15320 -0.48900
H 	H 	0.52750 0.72030 0.17120 0.26900
N 	N 	0.14940 0.59920 0.33800 -0.15900
N 	N 	0.09290 0.64850 0.28550 -0.07500
O 	O 	0.10590 0.88210 0.97100 -0.44100
F 	F 	0.59500 0.79000 0.07050 -0.37800
C 	C 	0.91060 0.28960 0.59510 0.58700
C 	C 	0.91360 0.24300 0.65320 -0.32800
H 	H 	0.02750 0.22030 0.67120 0.13800
N 	N 	0.64940 0.09920 0.83800 -0.16900
N 	N 	0.59290 0.14850 0.78550 -0.09000
O 	O 	0.60590 0.38210 0.47100 -0.47900
F 	F 	0.09500 0.29000 0.57050 -0.46000
C 	C 	0.58940 0.21040 0.09510 0.54700
C 	C 	0.58640 0.25700 0.15320 -0.42600
H 	H 	0.47250 0.27970 0.17120 0.22300
N 	N 	0.85060 0.40080 0.33800 -0.13800
N 	N 	0.90710 0.35150 0.28550 -0.05700
O 	O 	0.89410 0.11790 0.97100 -0.46000
F 	F 	0.40500 0.21000 0.07050 -0.41300
C 	C 	0.08940 0.71040 0.59510 0.62600
C 	C 	0.08640 0.75700 0.65320 -0.63000
H 	H 	0.97250 0.77970 0.67120 0.36300
N 	N 	0.35060 0.90080 0.83800 -0.12000
N 	N 	0.40710 0.85150 0.78550 -0.04200
O 	O 	0.39410 0.61790 0.47100 -0.47100
F 	F 	0.90500 0.71000 0.57050 -0.37100
C 	C 	0.75000 0.18240 0.06040 -0.40400
C 	C 	0.75000 0.31400 0.25160 0.02500
C 	C 	0.75000 0.13880 0.99560 0.63700
C 	C 	0.75000 0.27330 0.18870 0.24100
C 	C 	0.25000 0.68240 0.56040 -0.51300
C 	C 	0.25000 0.81400 0.75160 -0.02300
C 	C 	0.25000 0.63880 0.49560 0.74400
C 	C 	0.25000 0.77330 0.68870 0.39800
C 	C 	0.25000 0.81760 0.06040 -0.41200
C 	C 	0.25000 0.68600 0.25160 -0.01600
C 	C 	0.25000 0.86120 0.99560 0.63700
C 	C 	0.25000 0.72670 0.18870 0.37500
C 	C 	0.75000 0.31760 0.56040 -0.47400
C 	C 	0.75000 0.18600 0.75160 0.01900
C 	C 	0.75000 0.36120 0.49560 0.71500
C 	C 	0.75000 0.22670 0.68870 0.25000
Cu	Cu	0.50000 0.50000 0.40360 0.90800
Cu	Cu	-0.00000 -0.00000 0.90360 0.82200
Cu	Cu	-0.00000 0.50000 0.40360 0.87900
Cu	Cu	0.50000 -0.00000 0.90360 0.85200
