data_crystal

_cell_length_a 7.11900
_cell_length_b 21.58000
_cell_length_c 9.10000
_cell_angle_alpha 90.00000
_cell_angle_beta  90.00000
_cell_angle_gamma 90.00000

_symmetry_space_group_name_	'P 1'
_symmetry_space_group_name_H-M	'P 1'

loop_
_symmetry_equiv_pos_as_xyz
  x,y,z

loop_
_atom_site_label
_atom_site_type_symbol
_atom_site_fract_x
_atom_site_fract_y
_atom_site_fract_z
_atom_site_charge
C 	C 	0.33300 0.75080 0.77900 -0.17600
H 	H 	0.21860 0.77070 0.79270 0.10700
C 	C 	0.33220 0.69260 0.73610 0.14700
H 	H 	0.21680 0.67350 0.72040 -0.00200
N 	N 	0.60350 0.93480 0.93220 -0.10500
N 	N 	0.65680 0.88180 0.88450 -0.05900
O 	O 	0.64580 0.56820 0.65230 -0.48400
C 	C 	0.83300 0.25080 0.27900 -0.15800
H 	H 	0.71860 0.27070 0.29270 0.08600
C 	C 	0.83220 0.19260 0.23610 0.16700
H 	H 	0.71680 0.17350 0.22040 -0.02500
N 	N 	0.10350 0.43480 0.43220 -0.18000
N 	N 	0.15680 0.38180 0.38450 -0.09000
O 	O 	0.14580 0.06820 0.15230 -0.53300
C 	C 	0.66700 0.24920 0.77900 -0.17400
H 	H 	0.78140 0.22930 0.79270 0.11700
C 	C 	0.66780 0.30740 0.73610 0.14500
H 	H 	0.78320 0.32650 0.72040 0.01200
N 	N 	0.39650 0.06520 0.93220 -0.14500
N 	N 	0.34320 0.11820 0.88450 -0.07500
O 	O 	0.35420 0.43180 0.65230 -0.49200
C 	C 	0.16700 0.74920 0.27900 -0.17100
H 	H 	0.28140 0.72930 0.29270 0.08700
C 	C 	0.16780 0.80740 0.23610 0.11700
H 	H 	0.28320 0.82650 0.22040 -0.00500
N 	N 	0.89650 0.56520 0.43220 -0.15300
N 	N 	0.84320 0.61820 0.38450 -0.07400
O 	O 	0.85420 0.93180 0.15230 -0.43400
C 	C 	0.33300 0.24920 0.77900 -0.17500
H 	H 	0.21860 0.22930 0.79270 0.10300
C 	C 	0.33220 0.30740 0.73610 0.14400
H 	H 	0.21680 0.32650 0.72040 -0.00200
N 	N 	0.60350 0.06520 0.93220 -0.14200
N 	N 	0.65680 0.11820 0.88450 -0.06700
O 	O 	0.64580 0.43180 0.65230 -0.48400
C 	C 	0.83300 0.74920 0.27900 -0.13900
H 	H 	0.71860 0.72930 0.29270 0.08100
C 	C 	0.83220 0.80740 0.23610 0.14900
H 	H 	0.71680 0.82650 0.22040 -0.01100
N 	N 	0.10350 0.56520 0.43220 -0.18000
N 	N 	0.15680 0.61820 0.38450 -0.09100
O 	O 	0.14580 0.93180 0.15230 -0.46600
C 	C 	0.66700 0.75080 0.77900 -0.17500
H 	H 	0.78140 0.77070 0.79270 0.12200
C 	C 	0.66780 0.69260 0.73610 0.14800
H 	H 	0.78320 0.67350 0.72040 0.01200
N 	N 	0.39650 0.93480 0.93220 -0.10800
N 	N 	0.34320 0.88180 0.88450 -0.06700
O 	O 	0.35420 0.56820 0.65230 -0.49200
C 	C 	0.16700 0.25080 0.27900 -0.18900
H 	H 	0.28140 0.27070 0.29270 0.09100
C 	C 	0.16780 0.19260 0.23610 0.13500
H 	H 	0.28320 0.17350 0.22040 -0.01800
N 	N 	0.89650 0.43480 0.43220 -0.15300
N 	N 	0.84320 0.38180 0.38450 -0.07400
O 	O 	0.85420 0.06820 0.15230 -0.50100
C 	C 	0.50000 0.78440 0.80380 0.10700
C 	C 	0.50000 0.65670 0.71250 -0.23400
C 	C 	0.50000 0.59290 0.66920 0.57400
C 	C 	0.50000 0.84620 0.85350 0.08400
C 	C 	0.00000 0.28440 0.30380 0.05300
C 	C 	-0.00000 0.15670 0.21250 -0.29200
C 	C 	0.00000 0.09290 0.16920 0.53600
C 	C 	0.00000 0.34620 0.35350 0.03500
C 	C 	0.50000 0.21560 0.80380 0.10100
C 	C 	0.50000 0.34330 0.71250 -0.23200
C 	C 	0.50000 0.40710 0.66920 0.57300
C 	C 	0.50000 0.15380 0.85350 0.07600
C 	C 	0.00000 0.71560 0.30380 0.04200
C 	C 	0.00000 0.84330 0.21250 -0.25900
C 	C 	-0.00000 0.90710 0.16920 0.50600
C 	C 	-0.00000 0.65380 0.35350 0.04000
Cu	Cu	0.74826 0.00000 0.03300 0.81200
Cu	Cu	0.24826 0.50000 0.53300 0.88300
Cu	Cu	0.25174 0.00000 0.03300 0.80500
Cu	Cu	0.75174 0.50000 0.53300 0.88900
