data_crystal

_cell_length_a 31.65400
_cell_length_b 9.77280
_cell_length_c 37.31000
_cell_angle_alpha 90.00000
_cell_angle_beta  90.00000
_cell_angle_gamma 90.00000

_symmetry_space_group_name_	'P 1'
_symmetry_space_group_name_H-M	'P 1'

loop_
_symmetry_equiv_pos_as_xyz
  x,y,z

loop_
_atom_site_label
_atom_site_type_symbol
_atom_site_fract_x
_atom_site_fract_y
_atom_site_fract_z
_atom_site_charge
C 	C 	0.70070 0.13180 0.56620 -0.19400
H 	H 	0.71710 0.04930 0.57280 0.08200
H 	H 	0.67420 0.10020 0.55470 0.08300
Zn	Zn	0.93133 0.85330 0.82180 1.18800
O 	O 	0.70210 0.46070 0.46590 -0.21900
C 	C 	0.79800 0.12860 0.56130 -0.19600
H 	H 	0.78200 0.04790 0.56990 0.08300
H 	H 	0.82280 0.09480 0.54770 0.08300
Zn	Zn	0.89185 0.55560 0.85674 1.21300
O 	O 	0.86070 0.78340 0.37410 -0.54400
C 	C 	0.75400 0.11790 0.63470 -0.19200
H 	H 	0.75590 0.07720 0.65890 0.08200
H 	H 	0.75240 0.04150 0.61730 0.08100
O 	O 	0.89130 0.58740 0.35910 -0.52300
O 	O 	0.90170 0.44170 0.61540 -0.19900
O 	O 	0.90920 0.75640 0.77960 -0.55900
O 	O 	0.91240 0.55740 0.80720 -0.52900
O 	O 	0.65220 0.42610 0.69220 -0.21100
O 	O 	0.48070 0.76130 0.65780 -0.50400
O 	O 	0.44770 0.60640 0.62370 -0.54500
C 	C 	0.72560 0.21090 0.53890 0.07900
C 	C 	0.77020 0.20930 0.53620 0.01400
C 	C 	0.78880 0.28800 0.51020 -0.04100
H 	H 	0.81880 0.28540 0.50880 0.03900
C 	C 	0.76810 0.37060 0.48590 -0.09000
C 	C 	0.72410 0.37890 0.48980 0.16700
C 	C 	0.70450 0.30280 0.51650 -0.18400
H 	H 	0.67490 0.31390 0.51970 0.09100
C 	C 	0.65610 0.46400 0.46680 -0.10400
H 	H 	0.64570 0.52650 0.44830 0.03600
H 	H 	0.64510 0.37180 0.46230 0.05400
H 	H 	0.64660 0.49560 0.49040 0.05200
C 	C 	0.79050 0.44500 0.45590 0.12300
C 	C 	0.82320 0.38000 0.43730 -0.18900
H 	H 	0.83020 0.28810 0.44270 0.08000
C 	C 	0.84570 0.44900 0.41080 0.10200
H 	H 	0.86620 0.40110 0.39720 -0.01100
C 	C 	0.83880 0.58400 0.40420 -0.19700
C 	C 	0.80780 0.65200 0.42290 0.08600
H 	H 	0.80340 0.74670 0.41900 0.00000
C 	C 	0.78210 0.58100 0.44830 -0.17500
H 	H 	0.75950 0.62660 0.45990 0.10100
C 	C 	0.86620 0.66300 0.37850 0.44900
C 	C 	0.81330 0.20840 0.59330 0.08200
C 	C 	0.79410 0.19670 0.62760 0.01100
C 	C 	0.81060 0.27830 0.65580 -0.04000
H 	H 	0.79560 0.28060 0.67780 0.03800
C 	C 	0.84610 0.35270 0.65300 -0.08300
C 	C 	0.86460 0.36690 0.61730 0.16300
C 	C 	0.84900 0.29040 0.58930 -0.18400
H 	H 	0.86290 0.29360 0.56680 0.09000
C 	C 	0.92500 0.43700 0.58120 -0.13800
H 	H 	0.95050 0.49290 0.58300 0.06800
H 	H 	0.93300 0.34180 0.57590 0.07000
H 	H 	0.90700 0.47170 0.56190 0.06400
C 	C 	0.86420 0.42900 0.68420 0.13300
C 	C 	0.86580 0.36000 0.71550 -0.18800
H 	H 	0.85650 0.26740 0.71700 0.08600
C 	C 	0.88210 0.43000 0.74650 0.10500
H 	H 	0.88460 0.38000 0.76820 -0.00400
C 	C 	0.89390 0.56100 0.74700 -0.20100
C 	C 	0.89210 0.62800 0.71390 0.10700
H 	H 	0.90050 0.72120 0.71270 0.01000
C 	C 	0.87890 0.56600 0.68360 -0.18100
H 	H 	0.87950 0.61440 0.66160 0.10600
C 	C 	0.90590 0.63600 0.78080 0.47800
C 	C 	0.71340 0.19860 0.63240 0.07500
C 	C 	0.68900 0.20720 0.60060 0.01000
C 	C 	0.65290 0.28900 0.60290 -0.03700
H 	H 	0.63560 0.29350 0.58220 0.03900
C 	C 	0.64060 0.36100 0.63070 -0.08600
C 	C 	0.66620 0.35300 0.66250 0.17500
C 	C 	0.70120 0.28050 0.66330 -0.19300
H 	H 	0.71850 0.28140 0.68410 0.09100
C 	C 	0.67880 0.40600 0.72230 -0.09800
H 	H 	0.66790 0.45920 0.74260 0.05000
H 	H 	0.67940 0.30900 0.72850 0.05700
H 	H 	0.70740 0.43730 0.71650 0.04700
C 	C 	0.60010 0.44200 0.63070 0.12100
C 	C 	0.56400 0.39300 0.61410 -0.16600
H 	H 	0.56520 0.30750 0.60180 0.07900
C 	C 	0.52640 0.46400 0.61480 0.07900
H 	H 	0.50270 0.42910 0.60210 -0.00500
C 	C 	0.52230 0.59100 0.63470 -0.18500
C 	C 	0.55770 0.63700 0.64940 0.11300
H 	H 	0.55690 0.72310 0.66120 0.00900
C 	C 	0.59580 0.56800 0.64880 -0.17000
H 	H 	0.61950 0.60540 0.66080 0.10400
C 	C 	0.47900 0.65300 0.63680 0.44000
O 	O 	0.83780 0.48500 0.83110 -0.47000
C 	C 	0.79920 0.47700 0.83420 0.26200
C 	C 	0.78500 0.44700 0.87190 -0.43900
H 	H 	0.75440 0.44160 0.87270 0.12900
H 	H 	0.79740 0.35980 0.87970 0.20800
H 	H 	0.79500 0.52040 0.88780 0.20200
N 	N 	0.77090 0.49100 0.80910 -0.10900
C 	C 	0.78400 0.51600 0.77190 -0.25400
H 	H 	0.75820 0.52370 0.75690 0.09300
H 	H 	0.79960 0.60160 0.77060 0.10900
H 	H 	0.80100 0.44020 0.76340 0.11000
C 	C 	0.72560 0.47600 0.81580 -0.20100
H 	H 	0.71000 0.49020 0.79340 0.07400
H 	H 	0.71980 0.38380 0.82490 0.07900
H 	H 	0.71650 0.54380 0.83360 0.04300
C 	C 	0.81660 0.39700 0.84620 0.18600
C 	C 	0.79700 0.45000 0.88000 -0.36200
H 	H 	0.78000 0.37710 0.89120 0.09000
H 	H 	0.81870 0.48050 0.89660 0.04000
H 	H 	0.77810 0.52730 0.87420 0.15400
N 	N 	0.80950 0.26900 0.83840 -0.10300
C 	C 	0.82800 0.19900 0.80800 -0.21400
H 	H 	0.81860 0.10370 0.80720 0.08200
H 	H 	0.81990 0.24510 0.78550 0.08800
H 	H 	0.85920 0.20070 0.80990 0.06900
C 	C 	0.77600 0.19100 0.85700 -0.30400
H 	H 	0.77580 0.09740 0.84710 0.10900
H 	H 	0.78190 0.18870 0.88230 0.09800
H 	H 	0.74880 0.23470 0.85220 0.10800
C 	C 	0.79930 0.86820 0.06620 -0.19300
H 	H 	0.78290 0.95070 0.07280 0.08300
H 	H 	0.82580 0.89980 0.05470 0.08400
Zn	Zn	0.56867 0.14670 0.32180 1.18900
O 	O 	0.79790 0.53930 0.96590 -0.21800
C 	C 	0.70200 0.87140 0.06130 -0.19500
H 	H 	0.71800 0.95210 0.06990 0.08400
H 	H 	0.67720 0.90520 0.04770 0.08400
Zn	Zn	0.60815 0.44440 0.35674 1.21400
O 	O 	0.63930 0.21660 0.87410 -0.54300
C 	C 	0.74600 0.88210 0.13470 -0.19100
H 	H 	0.74410 0.92280 0.15890 0.08300
H 	H 	0.74760 0.95850 0.11730 0.08200
O 	O 	0.60870 0.41260 0.85910 -0.52200
O 	O 	0.59830 0.55830 0.11540 -0.19800
O 	O 	0.59080 0.24360 0.27960 -0.55800
O 	O 	0.58760 0.44260 0.30720 -0.52800
O 	O 	0.84780 0.57390 0.19220 -0.21000
O 	O 	0.01930 0.23870 0.15780 -0.50400
O 	O 	0.05230 0.39360 0.12370 -0.54400
C 	C 	0.77440 0.78910 0.03890 0.08000
C 	C 	0.72980 0.79070 0.03620 0.01500
C 	C 	0.71120 0.71200 0.01020 -0.04000
H 	H 	0.68120 0.71460 0.00880 0.04000
C 	C 	0.73190 0.62940 0.98590 -0.09000
C 	C 	0.77590 0.62110 0.98980 0.16700
C 	C 	0.79550 0.69720 0.01650 -0.18400
H 	H 	0.82510 0.68610 0.01970 0.09100
C 	C 	0.84390 0.53600 0.96680 -0.10400
H 	H 	0.85430 0.47350 0.94830 0.03600
H 	H 	0.85490 0.62820 0.96230 0.05400
H 	H 	0.85340 0.50440 0.99040 0.05200
C 	C 	0.70950 0.55500 0.95590 0.12300
C 	C 	0.67680 0.62000 0.93730 -0.18900
H 	H 	0.66980 0.71190 0.94270 0.08000
C 	C 	0.65430 0.55100 0.91080 0.10200
H 	H 	0.63380 0.59890 0.89720 -0.01100
C 	C 	0.66120 0.41600 0.90420 -0.19700
C 	C 	0.69220 0.34800 0.92290 0.08600
H 	H 	0.69660 0.25330 0.91900 0.00000
C 	C 	0.71790 0.41900 0.94830 -0.17500
H 	H 	0.74050 0.37340 0.95990 0.10100
C 	C 	0.63380 0.33700 0.87850 0.44900
C 	C 	0.68670 0.79160 0.09330 0.08200
C 	C 	0.70590 0.80330 0.12760 0.01100
C 	C 	0.68940 0.72170 0.15580 -0.04000
H 	H 	0.70440 0.71940 0.17780 0.03800
C 	C 	0.65390 0.64730 0.15300 -0.08300
C 	C 	0.63540 0.63310 0.11730 0.16300
C 	C 	0.65100 0.70960 0.08930 -0.18400
H 	H 	0.63710 0.70640 0.06680 0.09000
C 	C 	0.57500 0.56300 0.08120 -0.13800
H 	H 	0.54950 0.50710 0.08300 0.06800
H 	H 	0.56700 0.65820 0.07590 0.07000
H 	H 	0.59300 0.52830 0.06190 0.06400
C 	C 	0.63580 0.57100 0.18420 0.13300
C 	C 	0.63420 0.64000 0.21550 -0.18800
H 	H 	0.64350 0.73260 0.21700 0.08600
C 	C 	0.61790 0.57000 0.24650 0.10500
H 	H 	0.61540 0.62000 0.26820 -0.00400
C 	C 	0.60610 0.43900 0.24700 -0.20100
C 	C 	0.60790 0.37200 0.21390 0.10700
H 	H 	0.59950 0.27880 0.21270 0.01000
C 	C 	0.62110 0.43400 0.18360 -0.18100
H 	H 	0.62050 0.38560 0.16160 0.10600
C 	C 	0.59410 0.36400 0.28080 0.47800
C 	C 	0.78660 0.80140 0.13240 0.07500
C 	C 	0.81100 0.79280 0.10060 0.01000
C 	C 	0.84710 0.71100 0.10290 -0.03700
H 	H 	0.86440 0.70650 0.08220 0.03900
C 	C 	0.85940 0.63900 0.13070 -0.08600
C 	C 	0.83380 0.64700 0.16250 0.17500
C 	C 	0.79880 0.71950 0.16330 -0.19300
H 	H 	0.78150 0.71860 0.18410 0.09100
C 	C 	0.82120 0.59400 0.22230 -0.09800
H 	H 	0.83210 0.54080 0.24260 0.05000
H 	H 	0.82060 0.69100 0.22850 0.05600
H 	H 	0.79260 0.56270 0.21650 0.04700
C 	C 	0.89990 0.55800 0.13070 0.12100
C 	C 	0.93600 0.60700 0.11410 -0.16600
H 	H 	0.93480 0.69250 0.10180 0.07900
C 	C 	0.97360 0.53600 0.11480 0.07900
H 	H 	0.99730 0.57090 0.10210 -0.00500
C 	C 	0.97770 0.40900 0.13470 -0.18500
C 	C 	0.94230 0.36300 0.14940 0.11200
H 	H 	0.94310 0.27690 0.16120 0.01000
C 	C 	0.90420 0.43200 0.14880 -0.17000
H 	H 	0.88050 0.39460 0.16080 0.10400
C 	C 	0.02100 0.34700 0.13680 0.44000
O 	O 	0.66220 0.51500 0.33110 -0.47000
C 	C 	0.70080 0.52300 0.33420 0.26200
C 	C 	0.71500 0.55300 0.37190 -0.43900
H 	H 	0.74560 0.55840 0.37270 0.12900
H 	H 	0.70260 0.64020 0.37970 0.20800
H 	H 	0.70500 0.47960 0.38780 0.20200
N 	N 	0.72910 0.50900 0.30910 -0.10900
C 	C 	0.71600 0.48400 0.27190 -0.25400
H 	H 	0.74180 0.47630 0.25690 0.09300
H 	H 	0.70040 0.39840 0.27060 0.10900
H 	H 	0.69900 0.55980 0.26340 0.11000
C 	C 	0.77440 0.52400 0.31580 -0.20100
H 	H 	0.79000 0.50980 0.29340 0.07400
H 	H 	0.78020 0.61620 0.32490 0.07900
H 	H 	0.78350 0.45620 0.33360 0.04300
C 	C 	0.68340 0.60300 0.34620 0.18600
C 	C 	0.70300 0.55000 0.38000 -0.36200
H 	H 	0.72000 0.62290 0.39120 0.09000
H 	H 	0.68130 0.51950 0.39660 0.04000
H 	H 	0.72190 0.47270 0.37420 0.15400
N 	N 	0.69050 0.73100 0.33840 -0.10300
C 	C 	0.67200 0.80100 0.30800 -0.21400
H 	H 	0.68140 0.89630 0.30720 0.08200
H 	H 	0.68010 0.75490 0.28550 0.08800
H 	H 	0.64080 0.79930 0.30990 0.06900
C 	C 	0.72400 0.80900 0.35700 -0.30400
H 	H 	0.72420 0.90260 0.34710 0.10900
H 	H 	0.71810 0.81130 0.38230 0.09800
H 	H 	0.75120 0.76530 0.35220 0.10800
C 	C 	0.29930 0.63180 0.93380 -0.19200
H 	H 	0.28290 0.54930 0.92720 0.08300
H 	H 	0.32580 0.60020 0.94530 0.08400
Zn	Zn	0.06867 0.35330 0.67820 1.18900
O 	O 	0.29790 0.96070 0.03410 -0.21700
C 	C 	0.20200 0.62860 0.93870 -0.19600
H 	H 	0.21800 0.54790 0.93010 0.08500
H 	H 	0.17720 0.59480 0.95230 0.08400
Zn	Zn	0.10815 0.05560 0.64326 1.21300
O 	O 	0.13930 0.28340 0.12590 -0.54100
C 	C 	0.24600 0.61790 0.86530 -0.19100
H 	H 	0.24410 0.57720 0.84110 0.08400
H 	H 	0.24760 0.54150 0.88270 0.08300
O 	O 	0.10870 0.08740 0.14090 -0.52000
O 	O 	0.09830 0.94170 0.88460 -0.19800
O 	O 	0.09080 0.25640 0.72040 -0.56000
O 	O 	0.08760 0.05740 0.69280 -0.53000
O 	O 	0.34780 0.92610 0.80780 -0.20800
O 	O 	0.51930 0.26130 0.84220 -0.50400
O 	O 	0.55230 0.10640 0.87630 -0.54500
C 	C 	0.27440 0.71090 0.96110 0.07900
C 	C 	0.22980 0.70930 0.96380 0.01600
C 	C 	0.21120 0.78800 0.98980 -0.04100
H 	H 	0.18120 0.78540 0.99120 0.04100
C 	C 	0.23190 0.87060 0.01410 -0.08800
C 	C 	0.27590 0.87890 0.01020 0.16500
C 	C 	0.29550 0.80280 0.98350 -0.18300
H 	H 	0.32510 0.81390 0.98030 0.09000
C 	C 	0.34390 0.96400 0.03320 -0.11000
H 	H 	0.35430 0.02650 0.05170 0.03900
H 	H 	0.35490 0.87180 0.03770 0.05600
H 	H 	0.35340 0.99560 0.00960 0.05300
C 	C 	0.20950 0.94500 0.04410 0.11700
C 	C 	0.17680 0.88000 0.06270 -0.18400
H 	H 	0.16980 0.78810 0.05730 0.07800
C 	C 	0.15430 0.94900 0.08920 0.09400
H 	H 	0.13380 0.90110 0.10280 -0.00900
C 	C 	0.16120 0.08400 0.09580 -0.19000
C 	C 	0.19220 0.15200 0.07710 0.08100
H 	H 	0.19660 0.24670 0.08100 0.00200
C 	C 	0.21790 0.08100 0.05170 -0.16900
H 	H 	0.24050 0.12660 0.04010 0.09900
C 	C 	0.13380 0.16300 0.12150 0.44700
C 	C 	0.18670 0.70840 0.90670 0.08300
C 	C 	0.20590 0.69670 0.87240 0.01000
C 	C 	0.18940 0.77830 0.84420 -0.03800
H 	H 	0.20440 0.78060 0.82220 0.03700
C 	C 	0.15390 0.85270 0.84700 -0.08700
C 	C 	0.13540 0.86690 0.88270 0.16400
C 	C 	0.15100 0.79040 0.91070 -0.18500
H 	H 	0.13710 0.79360 0.93320 0.09100
C 	C 	0.07500 0.93700 0.91880 -0.13800
H 	H 	0.04950 0.99290 0.91700 0.06800
H 	H 	0.06700 0.84180 0.92410 0.07000
H 	H 	0.09300 0.97170 0.93810 0.06400
C 	C 	0.13580 0.92900 0.81580 0.14300
C 	C 	0.13420 0.86000 0.78450 -0.19700
H 	H 	0.14350 0.76740 0.78300 0.08900
C 	C 	0.11790 0.93000 0.75350 0.11700
H 	H 	0.11540 0.88000 0.73180 -0.00700
C 	C 	0.10610 0.06100 0.75300 -0.21300
C 	C 	0.10790 0.12800 0.78610 0.11600
H 	H 	0.09950 0.22120 0.78730 0.00700
C 	C 	0.12110 0.06600 0.81640 -0.19200
H 	H 	0.12050 0.11440 0.83840 0.10900
C 	C 	0.09410 0.13600 0.71920 0.48100
C 	C 	0.28660 0.69860 0.86760 0.07600
C 	C 	0.31100 0.70720 0.89940 0.01000
C 	C 	0.34710 0.78900 0.89710 -0.03500
H 	H 	0.36440 0.79350 0.91780 0.03800
C 	C 	0.35940 0.86100 0.86930 -0.08900
C 	C 	0.33380 0.85300 0.83750 0.17600
C 	C 	0.29880 0.78050 0.83670 -0.19400
H 	H 	0.28150 0.78140 0.81590 0.09100
C 	C 	0.32120 0.90600 0.77770 -0.10000
H 	H 	0.33210 0.95920 0.75740 0.05200
H 	H 	0.32060 0.80900 0.77150 0.05800
H 	H 	0.29260 0.93730 0.78350 0.04800
C 	C 	0.39990 0.94200 0.86930 0.12700
C 	C 	0.43600 0.89300 0.88590 -0.17100
H 	H 	0.43480 0.80750 0.89820 0.08200
C 	C 	0.47360 0.96400 0.88520 0.08600
H 	H 	0.49730 0.92910 0.89790 -0.00600
C 	C 	0.47770 0.09100 0.86530 -0.19200
C 	C 	0.44230 0.13700 0.85060 0.11800
H 	H 	0.44310 0.22310 0.83880 0.00700
C 	C 	0.40420 0.06800 0.85120 -0.17800
H 	H 	0.38050 0.10540 0.83920 0.10600
C 	C 	0.52100 0.15300 0.86320 0.44200
O 	O 	0.16220 0.98500 0.66890 -0.46700
C 	C 	0.20080 0.97700 0.66580 0.26200
C 	C 	0.21500 0.94700 0.62810 -0.42900
H 	H 	0.24560 0.94160 0.62730 0.12800
H 	H 	0.20260 0.85980 0.62030 0.20300
H 	H 	0.20500 0.02040 0.61220 0.19600
N 	N 	0.22910 0.99100 0.69090 -0.10800
C 	C 	0.21600 0.01600 0.72810 -0.27000
H 	H 	0.24180 0.02370 0.74310 0.09600
H 	H 	0.20040 0.10160 0.72940 0.11200
H 	H 	0.19900 0.94020 0.73660 0.11600
C 	C 	0.27440 0.97600 0.68420 -0.18700
H 	H 	0.29000 0.99020 0.70660 0.07200
H 	H 	0.28020 0.88380 0.67510 0.07500
H 	H 	0.28350 0.04380 0.66640 0.03400
C 	C 	0.18340 0.89700 0.65380 0.18200
C 	C 	0.20300 0.95000 0.62000 -0.35500
H 	H 	0.22000 0.87710 0.60880 0.08900
H 	H 	0.18130 0.98050 0.60340 0.04100
H 	H 	0.22190 0.02730 0.62580 0.14900
N 	N 	0.19050 0.76900 0.66160 -0.10300
C 	C 	0.17200 0.69900 0.69200 -0.21500
H 	H 	0.18140 0.60370 0.69280 0.08300
H 	H 	0.18010 0.74510 0.71450 0.08900
H 	H 	0.14080 0.70070 0.69010 0.07100
C 	C 	0.22400 0.69100 0.64300 -0.29800
H 	H 	0.22420 0.59740 0.65290 0.10400
H 	H 	0.21810 0.68870 0.61770 0.09600
H 	H 	0.25120 0.73470 0.64780 0.10600
C 	C 	0.20070 0.36820 0.43380 -0.19200
H 	H 	0.21710 0.45070 0.42720 0.08300
H 	H 	0.17420 0.39980 0.44530 0.08400
Zn	Zn	0.43133 0.64670 0.17820 1.18900
O 	O 	0.20210 0.03930 0.53410 -0.21700
C 	C 	0.29800 0.37140 0.43870 -0.19600
H 	H 	0.28200 0.45210 0.43010 0.08500
H 	H 	0.32280 0.40520 0.45230 0.08400
Zn	Zn	0.39185 0.94440 0.14326 1.21300
O 	O 	0.36070 0.71660 0.62590 -0.54100
C 	C 	0.25400 0.38210 0.36530 -0.19100
H 	H 	0.25590 0.42280 0.34110 0.08400
H 	H 	0.25240 0.45850 0.38270 0.08300
O 	O 	0.39130 0.91260 0.64090 -0.52000
O 	O 	0.40170 0.05830 0.38460 -0.19800
O 	O 	0.40920 0.74360 0.22040 -0.56000
O 	O 	0.41240 0.94260 0.19280 -0.53000
O 	O 	0.15220 0.07390 0.30780 -0.20900
O 	O 	0.98070 0.73870 0.34220 -0.50400
O 	O 	0.94770 0.89360 0.37630 -0.54500
C 	C 	0.22560 0.28910 0.46110 0.07900
C 	C 	0.27020 0.29070 0.46380 0.01600
C 	C 	0.28880 0.21200 0.48980 -0.04200
H 	H 	0.31880 0.21460 0.49120 0.04100
C 	C 	0.26810 0.12940 0.51410 -0.08700
C 	C 	0.22410 0.12110 0.51020 0.16500
C 	C 	0.20450 0.19720 0.48350 -0.18300
H 	H 	0.17490 0.18610 0.48030 0.09000
C 	C 	0.15610 0.03600 0.53320 -0.11000
H 	H 	0.14570 0.97350 0.55170 0.03900
H 	H 	0.14510 0.12820 0.53770 0.05600
H 	H 	0.14660 0.00440 0.50960 0.05300
C 	C 	0.29050 0.05500 0.54410 0.11700
C 	C 	0.32320 0.12000 0.56270 -0.18400
H 	H 	0.33020 0.21190 0.55730 0.07800
C 	C 	0.34570 0.05100 0.58920 0.09400
H 	H 	0.36620 0.09890 0.60280 -0.00900
C 	C 	0.33880 0.91600 0.59580 -0.19000
C 	C 	0.30780 0.84800 0.57710 0.08100
H 	H 	0.30340 0.75330 0.58100 0.00200
C 	C 	0.28210 0.91900 0.55170 -0.16800
H 	H 	0.25950 0.87340 0.54010 0.09900
C 	C 	0.36620 0.83700 0.62150 0.44700
C 	C 	0.31330 0.29160 0.40670 0.08200
C 	C 	0.29410 0.30330 0.37240 0.01000
C 	C 	0.31060 0.22170 0.34420 -0.03800
H 	H 	0.29560 0.21940 0.32220 0.03700
C 	C 	0.34610 0.14730 0.34700 -0.08600
C 	C 	0.36460 0.13310 0.38270 0.16400
C 	C 	0.34900 0.20960 0.41070 -0.18500
H 	H 	0.36290 0.20640 0.43320 0.09100
C 	C 	0.42500 0.06300 0.41880 -0.13800
H 	H 	0.45050 0.00710 0.41700 0.06800
H 	H 	0.43300 0.15820 0.42410 0.07000
H 	H 	0.40700 0.02830 0.43810 0.06400
C 	C 	0.36420 0.07100 0.31580 0.14200
C 	C 	0.36580 0.14000 0.28450 -0.19700
H 	H 	0.35650 0.23260 0.28300 0.08900
C 	C 	0.38210 0.07000 0.25350 0.11700
H 	H 	0.38460 0.12000 0.23180 -0.00700
C 	C 	0.39390 0.93900 0.25300 -0.21200
C 	C 	0.39210 0.87200 0.28610 0.11600
H 	H 	0.40050 0.77880 0.28730 0.00700
C 	C 	0.37890 0.93400 0.31640 -0.19200
H 	H 	0.37950 0.88560 0.33840 0.10900
C 	C 	0.40590 0.86400 0.21920 0.48100
C 	C 	0.21340 0.30140 0.36760 0.07600
C 	C 	0.18900 0.29280 0.39940 0.01000
C 	C 	0.15290 0.21100 0.39710 -0.03500
H 	H 	0.13560 0.20650 0.41780 0.03800
C 	C 	0.14060 0.13900 0.36930 -0.08800
C 	C 	0.16620 0.14700 0.33750 0.17600
C 	C 	0.20120 0.21950 0.33670 -0.19400
H 	H 	0.21850 0.21860 0.31590 0.09100
C 	C 	0.17880 0.09400 0.27770 -0.10000
H 	H 	0.16790 0.04080 0.25740 0.05200
H 	H 	0.17940 0.19100 0.27150 0.05700
H 	H 	0.20740 0.06270 0.28350 0.04800
C 	C 	0.10010 0.05800 0.36930 0.12700
C 	C 	0.06400 0.10700 0.38590 -0.17000
H 	H 	0.06520 0.19250 0.39820 0.08100
C 	C 	0.02640 0.03600 0.38520 0.08500
H 	H 	0.00270 0.07090 0.39790 -0.00600
C 	C 	0.02230 0.90900 0.36530 -0.19100
C 	C 	0.05770 0.86300 0.35060 0.11800
H 	H 	0.05690 0.77690 0.33880 0.00700
C 	C 	0.09580 0.93200 0.35120 -0.17700
H 	H 	0.11950 0.89460 0.33920 0.10600
C 	C 	0.97900 0.84700 0.36320 0.44200
O 	O 	0.33780 0.01500 0.16890 -0.46700
C 	C 	0.29920 0.02300 0.16580 0.26200
C 	C 	0.28500 0.05300 0.12810 -0.42900
H 	H 	0.25440 0.05840 0.12730 0.12800
H 	H 	0.29740 0.14020 0.12030 0.20300
H 	H 	0.29500 0.97960 0.11220 0.19600
N 	N 	0.27090 0.00900 0.19090 -0.10800
C 	C 	0.28400 0.98400 0.22810 -0.26900
H 	H 	0.25820 0.97630 0.24310 0.09600
H 	H 	0.29960 0.89840 0.22940 0.11200
H 	H 	0.30100 0.05980 0.23660 0.11600
C 	C 	0.22560 0.02400 0.18420 -0.18700
H 	H 	0.21000 0.00980 0.20660 0.07200
H 	H 	0.21980 0.11620 0.17510 0.07500
H 	H 	0.21650 0.95620 0.16640 0.03400
C 	C 	0.31660 0.10300 0.15380 0.18200
C 	C 	0.29700 0.05000 0.12000 -0.35500
H 	H 	0.28000 0.12290 0.10880 0.08900
H 	H 	0.31870 0.01950 0.10340 0.04100
H 	H 	0.27810 0.97270 0.12580 0.14900
N 	N 	0.30950 0.23100 0.16160 -0.10300
C 	C 	0.32800 0.30100 0.19200 -0.21500
H 	H 	0.31860 0.39630 0.19280 0.08300
H 	H 	0.31990 0.25490 0.21450 0.08900
H 	H 	0.35920 0.29930 0.19010 0.07100
C 	C 	0.27600 0.30900 0.14300 -0.29800
H 	H 	0.27580 0.40260 0.15290 0.10400
H 	H 	0.28190 0.31130 0.11770 0.09600
H 	H 	0.24880 0.26530 0.14780 0.10600
C 	C 	0.29930 0.86820 0.43380 -0.19300
H 	H 	0.28290 0.95070 0.42720 0.08300
H 	H 	0.32580 0.89980 0.44530 0.08400
Zn	Zn	0.06867 0.14670 0.17820 1.18900
O 	O 	0.29790 0.53930 0.53410 -0.21800
C 	C 	0.20200 0.87140 0.43870 -0.19500
H 	H 	0.21800 0.95210 0.43010 0.08400
H 	H 	0.17720 0.90520 0.45230 0.08400
Zn	Zn	0.10815 0.44440 0.14326 1.21400
O 	O 	0.13930 0.21660 0.62590 -0.54300
C 	C 	0.24600 0.88210 0.36530 -0.19100
H 	H 	0.24410 0.92280 0.34110 0.08300
H 	H 	0.24760 0.95850 0.38270 0.08200
O 	O 	0.10870 0.41260 0.64090 -0.52200
O 	O 	0.09830 0.55830 0.38460 -0.19800
O 	O 	0.09080 0.24360 0.22040 -0.55800
O 	O 	0.08760 0.44260 0.19280 -0.52800
O 	O 	0.34780 0.57390 0.30780 -0.21000
O 	O 	0.51930 0.23870 0.34220 -0.50300
O 	O 	0.55230 0.39360 0.37630 -0.54400
C 	C 	0.27440 0.78910 0.46110 0.08000
C 	C 	0.22980 0.79070 0.46380 0.01500
C 	C 	0.21120 0.71200 0.48980 -0.04000
H 	H 	0.18120 0.71460 0.49120 0.04000
C 	C 	0.23190 0.62940 0.51410 -0.09000
C 	C 	0.27590 0.62110 0.51020 0.16700
C 	C 	0.29550 0.69720 0.48350 -0.18400
H 	H 	0.32510 0.68610 0.48030 0.09100
C 	C 	0.34390 0.53600 0.53320 -0.10400
H 	H 	0.35430 0.47350 0.55170 0.03600
H 	H 	0.35490 0.62820 0.53770 0.05400
H 	H 	0.35340 0.50440 0.50960 0.05200
C 	C 	0.20950 0.55500 0.54410 0.12300
C 	C 	0.17680 0.62000 0.56270 -0.18900
H 	H 	0.16980 0.71190 0.55730 0.08000
C 	C 	0.15430 0.55100 0.58920 0.10200
H 	H 	0.13380 0.59890 0.60280 -0.01100
C 	C 	0.16120 0.41600 0.59580 -0.19700
C 	C 	0.19220 0.34800 0.57710 0.08600
H 	H 	0.19660 0.25330 0.58100 0.00000
C 	C 	0.21790 0.41900 0.55170 -0.17500
H 	H 	0.24050 0.37340 0.54010 0.10100
C 	C 	0.13380 0.33700 0.62150 0.44900
C 	C 	0.18670 0.79160 0.40670 0.08200
C 	C 	0.20590 0.80330 0.37240 0.01100
C 	C 	0.18940 0.72170 0.34420 -0.04000
H 	H 	0.20440 0.71940 0.32220 0.03800
C 	C 	0.15390 0.64730 0.34700 -0.08300
C 	C 	0.13540 0.63310 0.38270 0.16300
C 	C 	0.15100 0.70960 0.41070 -0.18400
H 	H 	0.13710 0.70640 0.43320 0.09000
C 	C 	0.07500 0.56300 0.41880 -0.13800
H 	H 	0.04950 0.50710 0.41700 0.06800
H 	H 	0.06700 0.65820 0.42410 0.07000
H 	H 	0.09300 0.52830 0.43810 0.06400
C 	C 	0.13580 0.57100 0.31580 0.13300
C 	C 	0.13420 0.64000 0.28450 -0.18800
H 	H 	0.14350 0.73260 0.28300 0.08600
C 	C 	0.11790 0.57000 0.25350 0.10500
H 	H 	0.11540 0.62000 0.23180 -0.00400
C 	C 	0.10610 0.43900 0.25300 -0.20100
C 	C 	0.10790 0.37200 0.28610 0.10700
H 	H 	0.09950 0.27880 0.28730 0.01000
C 	C 	0.12110 0.43400 0.31640 -0.18100
H 	H 	0.12050 0.38560 0.33840 0.10600
C 	C 	0.09410 0.36400 0.21920 0.47800
C 	C 	0.28660 0.80140 0.36760 0.07500
C 	C 	0.31100 0.79280 0.39940 0.01000
C 	C 	0.34710 0.71100 0.39710 -0.03700
H 	H 	0.36440 0.70650 0.41780 0.03900
C 	C 	0.35940 0.63900 0.36930 -0.08600
C 	C 	0.33380 0.64700 0.33750 0.17500
C 	C 	0.29880 0.71950 0.33670 -0.19300
H 	H 	0.28150 0.71860 0.31590 0.09100
C 	C 	0.32120 0.59400 0.27770 -0.09800
H 	H 	0.33210 0.54080 0.25740 0.05000
H 	H 	0.32060 0.69100 0.27150 0.05700
H 	H 	0.29260 0.56270 0.28350 0.04700
C 	C 	0.39990 0.55800 0.36930 0.12100
C 	C 	0.43600 0.60700 0.38590 -0.16600
H 	H 	0.43480 0.69250 0.39820 0.07900
C 	C 	0.47360 0.53600 0.38520 0.07900
H 	H 	0.49730 0.57090 0.39790 -0.00500
C 	C 	0.47770 0.40900 0.36530 -0.18500
C 	C 	0.44230 0.36300 0.35060 0.11300
H 	H 	0.44310 0.27690 0.33880 0.00900
C 	C 	0.40420 0.43200 0.35120 -0.17000
H 	H 	0.38050 0.39460 0.33920 0.10400
C 	C 	0.52100 0.34700 0.36320 0.44000
O 	O 	0.16220 0.51500 0.16890 -0.47000
C 	C 	0.20080 0.52300 0.16580 0.26200
C 	C 	0.21500 0.55300 0.12810 -0.43900
H 	H 	0.24560 0.55840 0.12730 0.12900
H 	H 	0.20260 0.64020 0.12030 0.20800
H 	H 	0.20500 0.47960 0.11220 0.20200
N 	N 	0.22910 0.50900 0.19090 -0.10900
C 	C 	0.21600 0.48400 0.22810 -0.25400
H 	H 	0.24180 0.47630 0.24310 0.09300
H 	H 	0.20040 0.39840 0.22940 0.10900
H 	H 	0.19900 0.55980 0.23660 0.11000
C 	C 	0.27440 0.52400 0.18420 -0.20100
H 	H 	0.29000 0.50980 0.20660 0.07400
H 	H 	0.28020 0.61620 0.17510 0.07900
H 	H 	0.28350 0.45620 0.16640 0.04300
C 	C 	0.18340 0.60300 0.15380 0.18600
C 	C 	0.20300 0.55000 0.12000 -0.36200
H 	H 	0.22000 0.62290 0.10880 0.09000
H 	H 	0.18130 0.51950 0.10340 0.04000
H 	H 	0.22190 0.47270 0.12580 0.15400
N 	N 	0.19050 0.73100 0.16160 -0.10300
C 	C 	0.17200 0.80100 0.19200 -0.21400
H 	H 	0.18140 0.89630 0.19280 0.08200
H 	H 	0.18010 0.75490 0.21450 0.08800
H 	H 	0.14080 0.79930 0.19010 0.06900
C 	C 	0.22400 0.80900 0.14300 -0.30400
H 	H 	0.22420 0.90260 0.15290 0.10900
H 	H 	0.21810 0.81130 0.11770 0.09800
H 	H 	0.25120 0.76530 0.14780 0.10800
C 	C 	0.20070 0.13180 0.93380 -0.19300
H 	H 	0.21710 0.04930 0.92720 0.08300
H 	H 	0.17420 0.10020 0.94530 0.08400
Zn	Zn	0.43133 0.85330 0.67820 1.18900
O 	O 	0.20210 0.46070 0.03410 -0.21800
C 	C 	0.29800 0.12860 0.93870 -0.19500
H 	H 	0.28200 0.04790 0.93010 0.08400
H 	H 	0.32280 0.09480 0.95230 0.08400
Zn	Zn	0.39185 0.55560 0.64326 1.21400
O 	O 	0.36070 0.78340 0.12590 -0.54300
C 	C 	0.25400 0.11790 0.86530 -0.19100
H 	H 	0.25590 0.07720 0.84110 0.08300
H 	H 	0.25240 0.04150 0.88270 0.08200
O 	O 	0.39130 0.58740 0.14090 -0.52200
O 	O 	0.40170 0.44170 0.88460 -0.19800
O 	O 	0.40920 0.75640 0.72040 -0.55800
O 	O 	0.41240 0.55740 0.69280 -0.52800
O 	O 	0.15220 0.42610 0.80780 -0.21000
O 	O 	0.98070 0.76130 0.84220 -0.50400
O 	O 	0.94770 0.60640 0.87630 -0.54400
C 	C 	0.22560 0.21090 0.96110 0.08000
C 	C 	0.27020 0.20930 0.96380 0.01500
C 	C 	0.28880 0.28800 0.98980 -0.04000
H 	H 	0.31880 0.28540 0.99120 0.04000
C 	C 	0.26810 0.37060 0.01410 -0.09000
C 	C 	0.22410 0.37890 0.01020 0.16700
C 	C 	0.20450 0.30280 0.98350 -0.18400
H 	H 	0.17490 0.31390 0.98030 0.09100
C 	C 	0.15610 0.46400 0.03320 -0.10400
H 	H 	0.14570 0.52650 0.05170 0.03600
H 	H 	0.14510 0.37180 0.03770 0.05400
H 	H 	0.14660 0.49560 0.00960 0.05200
C 	C 	0.29050 0.44500 0.04410 0.12300
C 	C 	0.32320 0.38000 0.06270 -0.18900
H 	H 	0.33020 0.28810 0.05730 0.08000
C 	C 	0.34570 0.44900 0.08920 0.10200
H 	H 	0.36620 0.40110 0.10280 -0.01100
C 	C 	0.33880 0.58400 0.09580 -0.19700
C 	C 	0.30780 0.65200 0.07710 0.08600
H 	H 	0.30340 0.74670 0.08100 0.00000
C 	C 	0.28210 0.58100 0.05170 -0.17500
H 	H 	0.25950 0.62660 0.04010 0.10100
C 	C 	0.36620 0.66300 0.12150 0.44900
C 	C 	0.31330 0.20840 0.90670 0.08200
C 	C 	0.29410 0.19670 0.87240 0.01100
C 	C 	0.31060 0.27830 0.84420 -0.04000
H 	H 	0.29560 0.28060 0.82220 0.03800
C 	C 	0.34610 0.35270 0.84700 -0.08300
C 	C 	0.36460 0.36690 0.88270 0.16300
C 	C 	0.34900 0.29040 0.91070 -0.18400
H 	H 	0.36290 0.29360 0.93320 0.09000
C 	C 	0.42500 0.43700 0.91880 -0.13800
H 	H 	0.45050 0.49290 0.91700 0.06800
H 	H 	0.43300 0.34180 0.92410 0.07000
H 	H 	0.40700 0.47170 0.93810 0.06400
C 	C 	0.36420 0.42900 0.81580 0.13300
C 	C 	0.36580 0.36000 0.78450 -0.18800
H 	H 	0.35650 0.26740 0.78300 0.08600
C 	C 	0.38210 0.43000 0.75350 0.10500
H 	H 	0.38460 0.38000 0.73180 -0.00400
C 	C 	0.39390 0.56100 0.75300 -0.20100
C 	C 	0.39210 0.62800 0.78610 0.10700
H 	H 	0.40050 0.72120 0.78730 0.01000
C 	C 	0.37890 0.56600 0.81640 -0.18100
H 	H 	0.37950 0.61440 0.83840 0.10600
C 	C 	0.40590 0.63600 0.71920 0.47800
C 	C 	0.21340 0.19860 0.86760 0.07500
C 	C 	0.18900 0.20720 0.89940 0.01000
C 	C 	0.15290 0.28900 0.89710 -0.03700
H 	H 	0.13560 0.29350 0.91780 0.03900
C 	C 	0.14060 0.36100 0.86930 -0.08600
C 	C 	0.16620 0.35300 0.83750 0.17500
C 	C 	0.20120 0.28050 0.83670 -0.19300
H 	H 	0.21850 0.28140 0.81590 0.09100
C 	C 	0.17880 0.40600 0.77770 -0.09800
H 	H 	0.16790 0.45920 0.75740 0.05000
H 	H 	0.17940 0.30900 0.77150 0.05600
H 	H 	0.20740 0.43730 0.78350 0.04700
C 	C 	0.10010 0.44200 0.86930 0.12100
C 	C 	0.06400 0.39300 0.88590 -0.16600
H 	H 	0.06520 0.30750 0.89820 0.07900
C 	C 	0.02640 0.46400 0.88520 0.07900
H 	H 	0.00270 0.42910 0.89790 -0.00500
C 	C 	0.02230 0.59100 0.86530 -0.18500
C 	C 	0.05770 0.63700 0.85060 0.11200
H 	H 	0.05690 0.72310 0.83880 0.01000
C 	C 	0.09580 0.56800 0.85120 -0.17000
H 	H 	0.11950 0.60540 0.83920 0.10400
C 	C 	0.97900 0.65300 0.86320 0.44000
O 	O 	0.33780 0.48500 0.66890 -0.47000
C 	C 	0.29920 0.47700 0.66580 0.26200
C 	C 	0.28500 0.44700 0.62810 -0.43900
H 	H 	0.25440 0.44160 0.62730 0.12900
H 	H 	0.29740 0.35980 0.62030 0.20800
H 	H 	0.29500 0.52040 0.61220 0.20200
N 	N 	0.27090 0.49100 0.69090 -0.10900
C 	C 	0.28400 0.51600 0.72810 -0.25400
H 	H 	0.25820 0.52370 0.74310 0.09300
H 	H 	0.29960 0.60160 0.72940 0.10900
H 	H 	0.30100 0.44020 0.73660 0.11000
C 	C 	0.22560 0.47600 0.68420 -0.20100
H 	H 	0.21000 0.49020 0.70660 0.07400
H 	H 	0.21980 0.38380 0.67510 0.07900
H 	H 	0.21650 0.54380 0.66640 0.04300
C 	C 	0.31660 0.39700 0.65380 0.18600
C 	C 	0.29700 0.45000 0.62000 -0.36200
H 	H 	0.28000 0.37710 0.60880 0.09000
H 	H 	0.31870 0.48050 0.60340 0.04000
H 	H 	0.27810 0.52730 0.62580 0.15400
N 	N 	0.30950 0.26900 0.66160 -0.10300
C 	C 	0.32800 0.19900 0.69200 -0.21400
H 	H 	0.31860 0.10370 0.69280 0.08200
H 	H 	0.31990 0.24510 0.71450 0.08800
H 	H 	0.35920 0.20070 0.69010 0.06900
C 	C 	0.27600 0.19100 0.64300 -0.30400
H 	H 	0.27580 0.09740 0.65290 0.10900
H 	H 	0.28190 0.18870 0.61770 0.09800
H 	H 	0.24880 0.23470 0.64780 0.10800
C 	C 	0.70070 0.36820 0.06620 -0.19200
H 	H 	0.71710 0.45070 0.07280 0.08300
H 	H 	0.67420 0.39980 0.05470 0.08400
Zn	Zn	0.93133 0.64670 0.32180 1.18900
O 	O 	0.70210 0.03930 0.96590 -0.21700
C 	C 	0.79800 0.37140 0.06130 -0.19600
H 	H 	0.78200 0.45210 0.06990 0.08500
H 	H 	0.82280 0.40520 0.04770 0.08400
Zn	Zn	0.89185 0.94440 0.35674 1.21300
O 	O 	0.86070 0.71660 0.87410 -0.54100
C 	C 	0.75400 0.38210 0.13470 -0.19100
H 	H 	0.75590 0.42280 0.15890 0.08400
H 	H 	0.75240 0.45850 0.11730 0.08300
O 	O 	0.89130 0.91260 0.85910 -0.52000
O 	O 	0.90170 0.05830 0.11540 -0.19800
O 	O 	0.90920 0.74360 0.27960 -0.56000
O 	O 	0.91240 0.94260 0.30720 -0.53000
O 	O 	0.65220 0.07390 0.19220 -0.20800
O 	O 	0.48070 0.73870 0.15780 -0.50400
O 	O 	0.44770 0.89360 0.12370 -0.54500
C 	C 	0.72560 0.28910 0.03890 0.07900
C 	C 	0.77020 0.29070 0.03620 0.01600
C 	C 	0.78880 0.21200 0.01020 -0.04100
H 	H 	0.81880 0.21460 0.00880 0.04100
C 	C 	0.76810 0.12940 0.98590 -0.08800
C 	C 	0.72410 0.12110 0.98980 0.16500
C 	C 	0.70450 0.19720 0.01650 -0.18300
H 	H 	0.67490 0.18610 0.01970 0.09000
C 	C 	0.65610 0.03600 0.96680 -0.11000
H 	H 	0.64570 0.97350 0.94830 0.03900
H 	H 	0.64510 0.12820 0.96230 0.05600
H 	H 	0.64660 0.00440 0.99040 0.05300
C 	C 	0.79050 0.05500 0.95590 0.11700
C 	C 	0.82320 0.12000 0.93730 -0.18400
H 	H 	0.83020 0.21190 0.94270 0.07800
C 	C 	0.84570 0.05100 0.91080 0.09400
H 	H 	0.86620 0.09890 0.89720 -0.00900
C 	C 	0.83880 0.91600 0.90420 -0.19000
C 	C 	0.80780 0.84800 0.92290 0.08100
H 	H 	0.80340 0.75330 0.91900 0.00200
C 	C 	0.78210 0.91900 0.94830 -0.16900
H 	H 	0.75950 0.87340 0.95990 0.09900
C 	C 	0.86620 0.83700 0.87850 0.44700
C 	C 	0.81330 0.29160 0.09330 0.08300
C 	C 	0.79410 0.30330 0.12760 0.01000
C 	C 	0.81060 0.22170 0.15580 -0.03800
H 	H 	0.79560 0.21940 0.17780 0.03700
C 	C 	0.84610 0.14730 0.15300 -0.08700
C 	C 	0.86460 0.13310 0.11730 0.16400
C 	C 	0.84900 0.20960 0.08930 -0.18500
H 	H 	0.86290 0.20640 0.06680 0.09100
C 	C 	0.92500 0.06300 0.08120 -0.13800
H 	H 	0.95050 0.00710 0.08300 0.06800
H 	H 	0.93300 0.15820 0.07590 0.07000
H 	H 	0.90700 0.02830 0.06190 0.06400
C 	C 	0.86420 0.07100 0.18420 0.14300
C 	C 	0.86580 0.14000 0.21550 -0.19700
H 	H 	0.85650 0.23260 0.21700 0.08900
C 	C 	0.88210 0.07000 0.24650 0.11700
H 	H 	0.88460 0.12000 0.26820 -0.00700
C 	C 	0.89390 0.93900 0.24700 -0.21300
C 	C 	0.89210 0.87200 0.21390 0.11600
H 	H 	0.90050 0.77880 0.21270 0.00700
C 	C 	0.87890 0.93400 0.18360 -0.19200
H 	H 	0.87950 0.88560 0.16160 0.10900
C 	C 	0.90590 0.86400 0.28080 0.48100
C 	C 	0.71340 0.30140 0.13240 0.07600
C 	C 	0.68900 0.29280 0.10060 0.01000
C 	C 	0.65290 0.21100 0.10290 -0.03500
H 	H 	0.63560 0.20650 0.08220 0.03800
C 	C 	0.64060 0.13900 0.13070 -0.08900
C 	C 	0.66620 0.14700 0.16250 0.17600
C 	C 	0.70120 0.21950 0.16330 -0.19400
H 	H 	0.71850 0.21860 0.18410 0.09100
C 	C 	0.67880 0.09400 0.22230 -0.10000
H 	H 	0.66790 0.04080 0.24260 0.05200
H 	H 	0.67940 0.19100 0.22850 0.05800
H 	H 	0.70740 0.06270 0.21650 0.04800
C 	C 	0.60010 0.05800 0.13070 0.12700
C 	C 	0.56400 0.10700 0.11410 -0.17100
H 	H 	0.56520 0.19250 0.10180 0.08200
C 	C 	0.52640 0.03600 0.11480 0.08600
H 	H 	0.50270 0.07090 0.10210 -0.00600
C 	C 	0.52230 0.90900 0.13470 -0.19200
C 	C 	0.55770 0.86300 0.14940 0.11800
H 	H 	0.55690 0.77690 0.16120 0.00700
C 	C 	0.59580 0.93200 0.14880 -0.17800
H 	H 	0.61950 0.89460 0.16080 0.10600
C 	C 	0.47900 0.84700 0.13680 0.44200
O 	O 	0.83780 0.01500 0.33110 -0.46700
C 	C 	0.79920 0.02300 0.33420 0.26200
C 	C 	0.78500 0.05300 0.37190 -0.42900
H 	H 	0.75440 0.05840 0.37270 0.12800
H 	H 	0.79740 0.14020 0.37970 0.20300
H 	H 	0.79500 0.97960 0.38780 0.19600
N 	N 	0.77090 0.00900 0.30910 -0.10800
C 	C 	0.78400 0.98400 0.27190 -0.27000
H 	H 	0.75820 0.97630 0.25690 0.09600
H 	H 	0.79960 0.89840 0.27060 0.11200
H 	H 	0.80100 0.05980 0.26340 0.11600
C 	C 	0.72560 0.02400 0.31580 -0.18700
H 	H 	0.71000 0.00980 0.29340 0.07200
H 	H 	0.71980 0.11620 0.32490 0.07500
H 	H 	0.71650 0.95620 0.33360 0.03400
C 	C 	0.81660 0.10300 0.34620 0.18200
C 	C 	0.79700 0.05000 0.38000 -0.35500
H 	H 	0.78000 0.12290 0.39120 0.08900
H 	H 	0.81870 0.01950 0.39660 0.04100
H 	H 	0.77810 0.97270 0.37420 0.14900
N 	N 	0.80950 0.23100 0.33840 -0.10300
C 	C 	0.82800 0.30100 0.30800 -0.21500
H 	H 	0.81860 0.39630 0.30720 0.08300
H 	H 	0.81990 0.25490 0.28550 0.08900
H 	H 	0.85920 0.29930 0.30990 0.07100
C 	C 	0.77600 0.30900 0.35700 -0.29800
H 	H 	0.77580 0.40260 0.34710 0.10400
H 	H 	0.78190 0.31130 0.38230 0.09600
H 	H 	0.74880 0.26530 0.35220 0.10600
C 	C 	0.79930 0.63180 0.56620 -0.19200
H 	H 	0.78290 0.54930 0.57280 0.08300
H 	H 	0.82580 0.60020 0.55470 0.08400
Zn	Zn	0.56867 0.35330 0.82180 1.18900
O 	O 	0.79790 0.96070 0.46590 -0.21700
C 	C 	0.70200 0.62860 0.56130 -0.19600
H 	H 	0.71800 0.54790 0.56990 0.08500
H 	H 	0.67720 0.59480 0.54770 0.08400
Zn	Zn	0.60815 0.05560 0.85674 1.21300
O 	O 	0.63930 0.28340 0.37410 -0.54100
C 	C 	0.74600 0.61790 0.63470 -0.19100
H 	H 	0.74410 0.57720 0.65890 0.08400
H 	H 	0.74760 0.54150 0.61730 0.08300
O 	O 	0.60870 0.08740 0.35910 -0.52000
O 	O 	0.59830 0.94170 0.61540 -0.19800
O 	O 	0.59080 0.25640 0.77960 -0.56000
O 	O 	0.58760 0.05740 0.80720 -0.53000
O 	O 	0.84780 0.92610 0.69220 -0.20900
O 	O 	0.01930 0.26130 0.65780 -0.50400
O 	O 	0.05230 0.10640 0.62370 -0.54500
C 	C 	0.77440 0.71090 0.53890 0.07900
C 	C 	0.72980 0.70930 0.53620 0.01600
C 	C 	0.71120 0.78800 0.51020 -0.04200
H 	H 	0.68120 0.78540 0.50880 0.04100
C 	C 	0.73190 0.87060 0.48590 -0.08700
C 	C 	0.77590 0.87890 0.48980 0.16500
C 	C 	0.79550 0.80280 0.51650 -0.18300
H 	H 	0.82510 0.81390 0.51970 0.09000
C 	C 	0.84390 0.96400 0.46680 -0.11000
H 	H 	0.85430 0.02650 0.44830 0.03900
H 	H 	0.85490 0.87180 0.46230 0.05600
H 	H 	0.85340 0.99560 0.49040 0.05300
C 	C 	0.70950 0.94500 0.45590 0.11700
C 	C 	0.67680 0.88000 0.43730 -0.18400
H 	H 	0.66980 0.78810 0.44270 0.07800
C 	C 	0.65430 0.94900 0.41080 0.09400
H 	H 	0.63380 0.90110 0.39720 -0.00900
C 	C 	0.66120 0.08400 0.40420 -0.19000
C 	C 	0.69220 0.15200 0.42290 0.08100
H 	H 	0.69660 0.24670 0.41900 0.00200
C 	C 	0.71790 0.08100 0.44830 -0.16800
H 	H 	0.74050 0.12660 0.45990 0.09900
C 	C 	0.63380 0.16300 0.37850 0.44700
C 	C 	0.68670 0.70840 0.59330 0.08200
C 	C 	0.70590 0.69670 0.62760 0.01000
C 	C 	0.68940 0.77830 0.65580 -0.03800
H 	H 	0.70440 0.78060 0.67780 0.03700
C 	C 	0.65390 0.85270 0.65300 -0.08600
C 	C 	0.63540 0.86690 0.61730 0.16400
C 	C 	0.65100 0.79040 0.58930 -0.18500
H 	H 	0.63710 0.79360 0.56680 0.09100
C 	C 	0.57500 0.93700 0.58120 -0.13800
H 	H 	0.54950 0.99290 0.58300 0.06800
H 	H 	0.56700 0.84180 0.57590 0.07000
H 	H 	0.59300 0.97170 0.56190 0.06400
C 	C 	0.63580 0.92900 0.68420 0.14200
C 	C 	0.63420 0.86000 0.71550 -0.19700
H 	H 	0.64350 0.76740 0.71700 0.08900
C 	C 	0.61790 0.93000 0.74650 0.11700
H 	H 	0.61540 0.88000 0.76820 -0.00700
C 	C 	0.60610 0.06100 0.74700 -0.21200
C 	C 	0.60790 0.12800 0.71390 0.11600
H 	H 	0.59950 0.22120 0.71270 0.00700
C 	C 	0.62110 0.06600 0.68360 -0.19200
H 	H 	0.62050 0.11440 0.66160 0.10900
C 	C 	0.59410 0.13600 0.78080 0.48100
C 	C 	0.78660 0.69860 0.63240 0.07600
C 	C 	0.81100 0.70720 0.60060 0.01000
C 	C 	0.84710 0.78900 0.60290 -0.03500
H 	H 	0.86440 0.79350 0.58220 0.03800
C 	C 	0.85940 0.86100 0.63070 -0.08800
C 	C 	0.83380 0.85300 0.66250 0.17600
C 	C 	0.79880 0.78050 0.66330 -0.19400
H 	H 	0.78150 0.78140 0.68410 0.09100
C 	C 	0.82120 0.90600 0.72230 -0.10000
H 	H 	0.83210 0.95920 0.74260 0.05200
H 	H 	0.82060 0.80900 0.72850 0.05700
H 	H 	0.79260 0.93730 0.71650 0.04800
C 	C 	0.89990 0.94200 0.63070 0.12700
C 	C 	0.93600 0.89300 0.61410 -0.17000
H 	H 	0.93480 0.80750 0.60180 0.08100
C 	C 	0.97360 0.96400 0.61480 0.08500
H 	H 	0.99730 0.92910 0.60210 -0.00600
C 	C 	0.97770 0.09100 0.63470 -0.19100
C 	C 	0.94230 0.13700 0.64940 0.11800
H 	H 	0.94310 0.22310 0.66120 0.00700
C 	C 	0.90420 0.06800 0.64880 -0.17700
H 	H 	0.88050 0.10540 0.66080 0.10600
C 	C 	0.02100 0.15300 0.63680 0.44200
O 	O 	0.66220 0.98500 0.83110 -0.46700
C 	C 	0.70080 0.97700 0.83420 0.26200
C 	C 	0.71500 0.94700 0.87190 -0.42900
H 	H 	0.74560 0.94160 0.87270 0.12800
H 	H 	0.70260 0.85980 0.87970 0.20300
H 	H 	0.70500 0.02040 0.88780 0.19600
N 	N 	0.72910 0.99100 0.80910 -0.10800
C 	C 	0.71600 0.01600 0.77190 -0.26900
H 	H 	0.74180 0.02370 0.75690 0.09600
H 	H 	0.70040 0.10160 0.77060 0.11200
H 	H 	0.69900 0.94020 0.76340 0.11600
C 	C 	0.77440 0.97600 0.81580 -0.18700
H 	H 	0.79000 0.99020 0.79340 0.07200
H 	H 	0.78020 0.88380 0.82490 0.07500
H 	H 	0.78350 0.04380 0.83360 0.03400
C 	C 	0.68340 0.89700 0.84620 0.18200
C 	C 	0.70300 0.95000 0.88000 -0.35500
H 	H 	0.72000 0.87710 0.89120 0.08900
H 	H 	0.68130 0.98050 0.89660 0.04100
H 	H 	0.72190 0.02730 0.87420 0.14900
N 	N 	0.69050 0.76900 0.83840 -0.10300
C 	C 	0.67200 0.69900 0.80800 -0.21500
H 	H 	0.68140 0.60370 0.80720 0.08300
H 	H 	0.68010 0.74510 0.78550 0.08900
H 	H 	0.64080 0.70070 0.80990 0.07100
C 	C 	0.72400 0.69100 0.85700 -0.29800
H 	H 	0.72420 0.59740 0.84710 0.10400
H 	H 	0.71810 0.68870 0.88230 0.09600
H 	H 	0.75120 0.73470 0.85220 0.10600
