data_crystal

_cell_length_a 27.29250
_cell_length_b 27.89880
_cell_length_c 16.28860
_cell_angle_alpha 90.00000
_cell_angle_beta  100.10000
_cell_angle_gamma 90.00000

_symmetry_space_group_name_	'P 1'
_symmetry_space_group_name_H-M	'P 1'

loop_
_symmetry_equiv_pos_as_xyz
  x,y,z

loop_
_atom_site_label
_atom_site_type_symbol
_atom_site_fract_x
_atom_site_fract_y
_atom_site_fract_z
_atom_site_charge
C 	C 	0.17270 0.43570 0.30710 0.41200
C 	C 	0.21070 0.39910 0.30560 -0.17500
C 	C 	0.23830 0.38010 0.37930 0.09700
H 	H 	0.23270 0.39220 0.43010 0.00800
C 	C 	0.27220 0.34570 0.37980 -0.17300
H 	H 	0.28880 0.33380 0.43050 0.08400
C 	C 	0.28370 0.32650 0.30360 0.10700
C 	C 	0.25510 0.34640 0.22620 -0.16900
H 	H 	0.25920 0.33440 0.17450 0.09100
C 	C 	0.22320 0.38170 0.23130 0.10000
H 	H 	0.20800 0.39600 0.18180 0.00700
C 	C 	0.49090 0.12310 0.37210 0.11700
H 	H 	0.50760 0.10990 0.42170 0.00400
C 	C 	0.45770 0.16000 0.37560 -0.18500
H 	H 	0.45390 0.17290 0.42670 0.10500
C 	C 	0.43010 0.17760 0.30220 0.12700
C 	C 	0.43910 0.15960 0.22910 -0.18800
H 	H 	0.42230 0.17250 0.17950 0.09400
C 	C 	0.47210 0.12320 0.22560 0.11300
H 	H 	0.47570 0.11040 0.17430 0.00300
C 	C 	0.50030 0.10520 0.29860 -0.18900
C 	C 	0.53730 0.06670 0.29450 0.43200
C 	C 	0.32060 0.28770 0.30090 -0.08400
C 	C 	0.36570 0.29320 0.35690 -0.01300
C 	C 	0.40330 0.25500 0.35160 -0.00400
C 	C 	0.39280 0.21610 0.30360 -0.03500
C 	C 	0.34320 0.21110 0.24950 -0.04600
C 	C 	0.29910 0.24920 0.23440 0.17100
C 	C 	0.25070 0.19950 0.14110 0.19700
H 	H 	0.23760 0.17340 0.17010 -0.02800
H 	H 	0.27950 0.18880 0.11860 -0.03500
C 	C 	0.20760 0.22490 0.06940 -0.41800
H 	H 	0.22120 0.25300 0.04630 0.15000
H 	H 	0.19640 0.20250 0.02440 0.14200
C 	C 	0.16350 0.23940 0.11280 0.42400
H 	H 	0.14540 0.20950 0.11350 -0.10100
H 	H 	0.17960 0.24440 0.17010 -0.06800
C 	C 	0.13020 0.26950 0.10350 -0.59200
H 	H 	0.10350 0.25410 0.06550 0.19100
H 	H 	0.14260 0.29440 0.07100 0.19100
C 	C 	0.10040 0.30020 0.16840 0.29200
H 	H 	0.11030 0.33360 0.17290 -0.05700
H 	H 	0.06450 0.29790 0.15270 -0.06600
C 	C 	0.12150 0.27010 0.25310 -0.70200
H 	H 	0.10790 0.28310 0.29880 0.23700
H 	H 	0.15710 0.27240 0.26510 0.25400
H 	H 	0.11190 0.23710 0.24520 0.24000
C 	C 	0.44780 0.28940 0.48650 -1.39800
H 	H 	0.42220 0.31270 0.46630 0.40300
H 	H 	0.43190 0.26740 0.51970 0.43300
C 	C 	0.47140 0.31080 0.53740 1.55500
H 	H 	0.46940 0.29330 0.58820 -0.43800
C 	C 	0.46860 0.36470 0.56180 -1.16100
H 	H 	0.46700 0.36500 0.62080 0.36800
H 	H 	0.50070 0.37840 0.55680 0.36000
C 	C 	0.43000 0.40070 0.52170 0.55400
H 	H 	0.40410 0.40610 0.55460 -0.15500
H 	H 	0.41520 0.39190 0.46520 -0.16600
C 	C 	0.46760 0.44520 0.52510 -0.48900
H 	H 	0.50270 0.43740 0.53870 0.19300
H 	H 	0.45900 0.47330 0.55460 0.16800
O 	O 	0.16520 0.44980 0.37800 -0.46000
O 	O 	0.14880 0.44990 0.23860 -0.47200
O 	O 	0.56010 0.05120 0.36260 -0.48400
O 	O 	0.54370 0.05090 0.22560 -0.48000
O 	O 	0.44710 0.26110 0.41230 0.10800
O 	O 	0.26030 0.24050 0.19010 -0.28500
H 	H 	0.50520 0.30640 0.52780 -0.31800
C 	C 	0.67270 0.93570 0.30710 0.40600
C 	C 	0.71070 0.89910 0.30560 -0.16000
C 	C 	0.73830 0.88010 0.37930 0.09100
H 	H 	0.73270 0.89220 0.43010 0.01800
C 	C 	0.77220 0.84570 0.37980 -0.16400
H 	H 	0.78880 0.83380 0.43050 0.08500
C 	C 	0.78370 0.82650 0.30360 0.10500
C 	C 	0.75510 0.84640 0.22620 -0.15900
H 	H 	0.75920 0.83440 0.17450 0.09200
C 	C 	0.72320 0.88170 0.23130 0.09400
H 	H 	0.70800 0.89600 0.18180 0.01700
C 	C 	0.99090 0.62310 0.37210 0.11600
H 	H 	0.00760 0.60990 0.42170 0.00400
C 	C 	0.95770 0.66000 0.37560 -0.18500
H 	H 	0.95390 0.67290 0.42670 0.10500
C 	C 	0.93010 0.67760 0.30220 0.12700
C 	C 	0.93910 0.65960 0.22910 -0.18800
H 	H 	0.92230 0.67250 0.17950 0.09500
C 	C 	0.97210 0.62320 0.22560 0.11300
H 	H 	0.97570 0.61040 0.17430 0.00300
C 	C 	0.00030 0.60520 0.29860 -0.18900
C 	C 	0.03730 0.56670 0.29450 0.43100
C 	C 	0.82060 0.78770 0.30090 -0.08200
C 	C 	0.86570 0.79320 0.35690 -0.01100
C 	C 	0.90330 0.75500 0.35160 -0.00300
C 	C 	0.89280 0.71610 0.30360 -0.03500
C 	C 	0.84320 0.71110 0.24950 -0.04500
C 	C 	0.79910 0.74920 0.23440 0.17100
C 	C 	0.75070 0.69950 0.14110 0.19700
H 	H 	0.73760 0.67340 0.17010 -0.02700
H 	H 	0.77950 0.68880 0.11860 -0.03400
C 	C 	0.70760 0.72490 0.06940 -0.42100
H 	H 	0.72120 0.75300 0.04630 0.15200
H 	H 	0.69640 0.70250 0.02440 0.14500
C 	C 	0.66350 0.73940 0.11280 0.43000
H 	H 	0.64540 0.70950 0.11350 -0.10100
H 	H 	0.67960 0.74440 0.17010 -0.06900
C 	C 	0.63020 0.76950 0.10350 -0.59900
H 	H 	0.60350 0.75410 0.06550 0.19500
H 	H 	0.64260 0.79440 0.07100 0.19500
C 	C 	0.60040 0.80020 0.16840 0.29600
H 	H 	0.61030 0.83360 0.17290 -0.05500
H 	H 	0.56450 0.79790 0.15270 -0.06500
C 	C 	0.62150 0.77010 0.25310 -0.70700
H 	H 	0.60790 0.78310 0.29880 0.23900
H 	H 	0.65710 0.77240 0.26510 0.25600
H 	H 	0.61190 0.73710 0.24520 0.24300
C 	C 	0.94780 0.78940 0.48650 -1.38100
H 	H 	0.92220 0.81270 0.46630 0.40000
H 	H 	0.93190 0.76740 0.51970 0.42800
C 	C 	0.97140 0.81080 0.53740 1.53400
H 	H 	0.96940 0.79330 0.58820 -0.43100
C 	C 	0.96860 0.86470 0.56180 -1.14900
H 	H 	0.96700 0.86500 0.62080 0.36800
H 	H 	0.00070 0.87840 0.55680 0.35800
C 	C 	0.93000 0.90070 0.52170 0.54700
H 	H 	0.90410 0.90610 0.55460 -0.14600
H 	H 	0.91520 0.89190 0.46520 -0.15900
C 	C 	0.96760 0.94520 0.52510 -0.48500
H 	H 	0.00270 0.93740 0.53870 0.19700
H 	H 	0.95900 0.97330 0.55460 0.18600
O 	O 	0.66520 0.94980 0.37800 -0.43700
O 	O 	0.64880 0.94990 0.23860 -0.44800
O 	O 	0.06010 0.55120 0.36260 -0.47800
O 	O 	0.04370 0.55090 0.22560 -0.47400
O 	O 	0.94710 0.76110 0.41230 0.10400
O 	O 	0.76030 0.74050 0.19010 -0.28500
H 	H 	0.00520 0.80640 0.52780 -0.31300
C 	C 	0.82730 0.43570 0.69290 0.41300
C 	C 	0.78930 0.39910 0.69440 -0.17400
C 	C 	0.76170 0.38010 0.62070 0.09800
H 	H 	0.76730 0.39220 0.56990 0.00900
C 	C 	0.72780 0.34570 0.62020 -0.17200
H 	H 	0.71120 0.33380 0.56950 0.08500
C 	C 	0.71630 0.32650 0.69640 0.10800
C 	C 	0.74490 0.34640 0.77380 -0.16800
H 	H 	0.74080 0.33440 0.82550 0.09200
C 	C 	0.77680 0.38170 0.76870 0.10100
H 	H 	0.79200 0.39600 0.81820 0.00700
C 	C 	0.50910 0.12310 0.62790 0.11700
H 	H 	0.49240 0.10990 0.57830 0.00400
C 	C 	0.54230 0.16000 0.62440 -0.18500
H 	H 	0.54610 0.17290 0.57330 0.10500
C 	C 	0.56990 0.17760 0.69780 0.12700
C 	C 	0.56090 0.15960 0.77090 -0.18800
H 	H 	0.57770 0.17250 0.82050 0.09400
C 	C 	0.52790 0.12320 0.77440 0.11300
H 	H 	0.52430 0.11040 0.82570 0.00300
C 	C 	0.49970 0.10520 0.70140 -0.18900
C 	C 	0.46270 0.06670 0.70550 0.43200
C 	C 	0.67940 0.28770 0.69910 -0.08400
C 	C 	0.63430 0.29320 0.64310 -0.01300
C 	C 	0.59670 0.25500 0.64840 -0.00400
C 	C 	0.60720 0.21610 0.69640 -0.03500
C 	C 	0.65680 0.21110 0.75050 -0.04600
C 	C 	0.70090 0.24920 0.76560 0.17100
C 	C 	0.74930 0.19950 0.85890 0.19700
H 	H 	0.76240 0.17340 0.82990 -0.02800
H 	H 	0.72050 0.18880 0.88140 -0.03500
C 	C 	0.79240 0.22490 0.93060 -0.41800
H 	H 	0.77880 0.25300 0.95370 0.15000
H 	H 	0.80360 0.20250 0.97560 0.14200
C 	C 	0.83650 0.23940 0.88720 0.42400
H 	H 	0.85460 0.20950 0.88650 -0.10100
H 	H 	0.82040 0.24440 0.82990 -0.06800
C 	C 	0.86980 0.26950 0.89650 -0.59200
H 	H 	0.89650 0.25410 0.93450 0.19100
H 	H 	0.85740 0.29440 0.92900 0.19100
C 	C 	0.89960 0.30020 0.83160 0.29200
H 	H 	0.88970 0.33360 0.82710 -0.05700
H 	H 	0.93550 0.29790 0.84730 -0.06600
C 	C 	0.87850 0.27010 0.74690 -0.70200
H 	H 	0.89210 0.28310 0.70120 0.23700
H 	H 	0.84290 0.27240 0.73490 0.25400
H 	H 	0.88810 0.23710 0.75480 0.24000
C 	C 	0.55220 0.28940 0.51350 -1.39800
H 	H 	0.57780 0.31270 0.53370 0.40300
H 	H 	0.56810 0.26740 0.48030 0.43300
C 	C 	0.52860 0.31080 0.46260 1.55500
H 	H 	0.53060 0.29330 0.41180 -0.43800
C 	C 	0.53140 0.36470 0.43820 -1.16100
H 	H 	0.53300 0.36500 0.37920 0.36800
H 	H 	0.49930 0.37840 0.44320 0.36000
C 	C 	0.57000 0.40070 0.47830 0.55400
H 	H 	0.59590 0.40610 0.44540 -0.15500
H 	H 	0.58480 0.39190 0.53480 -0.16600
C 	C 	0.53240 0.44520 0.47490 -0.48900
H 	H 	0.49730 0.43740 0.46130 0.19300
H 	H 	0.54100 0.47330 0.44540 0.16800
O 	O 	0.83480 0.44980 0.62200 -0.46000
O 	O 	0.85120 0.44990 0.76140 -0.47200
O 	O 	0.43990 0.05120 0.63740 -0.48400
O 	O 	0.45630 0.05090 0.77440 -0.48000
O 	O 	0.55290 0.26110 0.58770 0.10800
O 	O 	0.73970 0.24050 0.80990 -0.28500
H 	H 	0.49480 0.30640 0.47220 -0.31800
C 	C 	0.32730 0.93570 0.69290 0.40600
C 	C 	0.28930 0.89910 0.69440 -0.16000
C 	C 	0.26170 0.88010 0.62070 0.09100
H 	H 	0.26730 0.89220 0.56990 0.01800
C 	C 	0.22780 0.84570 0.62020 -0.16400
H 	H 	0.21120 0.83380 0.56950 0.08500
C 	C 	0.21630 0.82650 0.69640 0.10500
C 	C 	0.24490 0.84640 0.77380 -0.15900
H 	H 	0.24080 0.83440 0.82550 0.09200
C 	C 	0.27680 0.88170 0.76870 0.09400
H 	H 	0.29200 0.89600 0.81820 0.01700
C 	C 	0.00910 0.62310 0.62790 0.11600
H 	H 	0.99240 0.60990 0.57830 0.00400
C 	C 	0.04230 0.66000 0.62440 -0.18500
H 	H 	0.04610 0.67290 0.57330 0.10500
C 	C 	0.06990 0.67760 0.69780 0.12700
C 	C 	0.06090 0.65960 0.77090 -0.18800
H 	H 	0.07770 0.67250 0.82050 0.09500
C 	C 	0.02790 0.62320 0.77440 0.11300
H 	H 	0.02430 0.61040 0.82570 0.00300
C 	C 	0.99970 0.60520 0.70140 -0.18900
C 	C 	0.96270 0.56670 0.70550 0.43100
C 	C 	0.17940 0.78770 0.69910 -0.08200
C 	C 	0.13430 0.79320 0.64310 -0.01100
C 	C 	0.09670 0.75500 0.64840 -0.00300
C 	C 	0.10720 0.71610 0.69640 -0.03500
C 	C 	0.15680 0.71110 0.75050 -0.04500
C 	C 	0.20090 0.74920 0.76560 0.17100
C 	C 	0.24930 0.69950 0.85890 0.19700
H 	H 	0.26240 0.67340 0.82990 -0.02700
H 	H 	0.22050 0.68880 0.88140 -0.03400
C 	C 	0.29240 0.72490 0.93060 -0.42100
H 	H 	0.27880 0.75300 0.95370 0.15200
H 	H 	0.30360 0.70250 0.97560 0.14500
C 	C 	0.33650 0.73940 0.88720 0.43000
H 	H 	0.35460 0.70950 0.88650 -0.10100
H 	H 	0.32040 0.74440 0.82990 -0.06900
C 	C 	0.36980 0.76950 0.89650 -0.59900
H 	H 	0.39650 0.75410 0.93450 0.19500
H 	H 	0.35740 0.79440 0.92900 0.19500
C 	C 	0.39960 0.80020 0.83160 0.29600
H 	H 	0.38970 0.83360 0.82710 -0.05500
H 	H 	0.43550 0.79790 0.84730 -0.06500
C 	C 	0.37850 0.77010 0.74690 -0.70700
H 	H 	0.39210 0.78310 0.70120 0.23900
H 	H 	0.34290 0.77240 0.73490 0.25600
H 	H 	0.38810 0.73710 0.75480 0.24300
C 	C 	0.05220 0.78940 0.51350 -1.38100
H 	H 	0.07780 0.81270 0.53370 0.40000
H 	H 	0.06810 0.76740 0.48030 0.42800
C 	C 	0.02860 0.81080 0.46260 1.53400
H 	H 	0.03060 0.79330 0.41180 -0.43100
C 	C 	0.03140 0.86470 0.43820 -1.14900
H 	H 	0.03300 0.86500 0.37920 0.36800
H 	H 	0.99930 0.87840 0.44320 0.35800
C 	C 	0.07000 0.90070 0.47830 0.54700
H 	H 	0.09590 0.90610 0.44540 -0.14600
H 	H 	0.08480 0.89190 0.53480 -0.15900
C 	C 	0.03240 0.94520 0.47490 -0.48500
H 	H 	0.99730 0.93740 0.46130 0.19700
H 	H 	0.04100 0.97330 0.44540 0.18600
O 	O 	0.33480 0.94980 0.62200 -0.43700
O 	O 	0.35120 0.94990 0.76140 -0.44800
O 	O 	0.93990 0.55120 0.63740 -0.47800
O 	O 	0.95630 0.55090 0.77440 -0.47400
O 	O 	0.05290 0.76110 0.58770 0.10400
O 	O 	0.23970 0.74050 0.80990 -0.28500
H 	H 	0.99480 0.80640 0.47220 -0.31300
C 	C 	0.82730 0.56430 0.69290 0.41300
C 	C 	0.78930 0.60090 0.69440 -0.17400
C 	C 	0.76170 0.61990 0.62070 0.09800
H 	H 	0.76730 0.60780 0.56990 0.00900
C 	C 	0.72780 0.65430 0.62020 -0.17200
H 	H 	0.71120 0.66620 0.56950 0.08600
C 	C 	0.71630 0.67350 0.69640 0.10800
C 	C 	0.74490 0.65360 0.77380 -0.16800
H 	H 	0.74080 0.66560 0.82550 0.09200
C 	C 	0.77680 0.61830 0.76870 0.10100
H 	H 	0.79200 0.60400 0.81820 0.00700
C 	C 	0.50910 0.87690 0.62790 0.10900
H 	H 	0.49240 0.89010 0.57830 0.01400
C 	C 	0.54230 0.84000 0.62440 -0.17400
H 	H 	0.54610 0.82710 0.57330 0.10300
C 	C 	0.56990 0.82240 0.69780 0.12300
C 	C 	0.56090 0.84040 0.77090 -0.17700
H 	H 	0.57770 0.82750 0.82050 0.09400
C 	C 	0.52790 0.87680 0.77440 0.10500
H 	H 	0.52430 0.88960 0.82570 0.01500
C 	C 	0.49970 0.89480 0.70140 -0.17100
C 	C 	0.46270 0.93330 0.70550 0.42400
C 	C 	0.67940 0.71230 0.69910 -0.08400
C 	C 	0.63430 0.70680 0.64310 -0.01300
C 	C 	0.59670 0.74500 0.64840 -0.00500
C 	C 	0.60720 0.78390 0.69640 -0.03200
C 	C 	0.65680 0.78890 0.75050 -0.04100
C 	C 	0.70090 0.75080 0.76560 0.17000
C 	C 	0.74930 0.80050 0.85890 0.18900
H 	H 	0.76240 0.82660 0.82990 -0.01900
H 	H 	0.72050 0.81120 0.88140 -0.02800
C 	C 	0.79240 0.77510 0.93060 -0.41100
H 	H 	0.77880 0.74700 0.95370 0.14800
H 	H 	0.80360 0.79750 0.97560 0.14500
C 	C 	0.83650 0.76060 0.88720 0.41400
H 	H 	0.85460 0.79050 0.88650 -0.09300
H 	H 	0.82040 0.75560 0.82990 -0.06400
C 	C 	0.86980 0.73050 0.89650 -0.58500
H 	H 	0.89650 0.74590 0.93450 0.19100
H 	H 	0.85740 0.70560 0.92900 0.18900
C 	C 	0.89960 0.69980 0.83160 0.29100
H 	H 	0.88970 0.66640 0.82710 -0.05600
H 	H 	0.93550 0.70210 0.84730 -0.06400
C 	C 	0.87850 0.72990 0.74690 -0.70600
H 	H 	0.89210 0.71690 0.70120 0.23900
H 	H 	0.84290 0.72760 0.73490 0.25600
H 	H 	0.88810 0.76290 0.75480 0.24400
C 	C 	0.55220 0.71060 0.51350 -1.39600
H 	H 	0.57780 0.68730 0.53370 0.40300
H 	H 	0.56810 0.73260 0.48030 0.43300
C 	C 	0.52860 0.68920 0.46260 1.55200
H 	H 	0.53060 0.70670 0.41180 -0.43700
C 	C 	0.53140 0.63530 0.43820 -1.15900
H 	H 	0.53300 0.63500 0.37920 0.36700
H 	H 	0.49930 0.62160 0.44320 0.35900
C 	C 	0.57000 0.59930 0.47830 0.55300
H 	H 	0.59590 0.59390 0.44540 -0.15500
H 	H 	0.58480 0.60810 0.53480 -0.16500
C 	C 	0.53240 0.55480 0.47490 -0.48800
H 	H 	0.49730 0.56260 0.46130 0.19300
H 	H 	0.54100 0.52670 0.44540 0.16700
O 	O 	0.83480 0.55020 0.62200 -0.46000
O 	O 	0.85120 0.55010 0.76140 -0.47200
O 	O 	0.43990 0.94880 0.63740 -0.45300
O 	O 	0.45630 0.94910 0.77440 -0.44700
O 	O 	0.55290 0.73890 0.58770 0.10700
O 	O 	0.73970 0.75950 0.80990 -0.28200
H 	H 	0.49480 0.69360 0.47220 -0.31800
C 	C 	0.32730 0.06430 0.69290 0.41200
C 	C 	0.28930 0.10090 0.69440 -0.17800
C 	C 	0.26170 0.11990 0.62070 0.09800
H 	H 	0.26730 0.10780 0.56990 0.00600
C 	C 	0.22780 0.15430 0.62020 -0.17400
H 	H 	0.21120 0.16620 0.56950 0.08500
C 	C 	0.21630 0.17350 0.69640 0.10700
C 	C 	0.24490 0.15360 0.77380 -0.17000
H 	H 	0.24080 0.16560 0.82550 0.09200
C 	C 	0.27680 0.11830 0.76870 0.10100
H 	H 	0.29200 0.10400 0.81820 0.00400
C 	C 	0.00910 0.37690 0.62790 0.11600
H 	H 	0.99240 0.39010 0.57830 0.00400
C 	C 	0.04230 0.34000 0.62440 -0.18400
H 	H 	0.04610 0.32710 0.57330 0.10500
C 	C 	0.06990 0.32240 0.69780 0.12600
C 	C 	0.06090 0.34040 0.77090 -0.18700
H 	H 	0.07770 0.32750 0.82050 0.09400
C 	C 	0.02790 0.37680 0.77440 0.11200
H 	H 	0.02430 0.38960 0.82570 0.00300
C 	C 	0.99970 0.39480 0.70140 -0.18800
C 	C 	0.96270 0.43330 0.70550 0.43100
C 	C 	0.17940 0.21230 0.69910 -0.08400
C 	C 	0.13430 0.20680 0.64310 -0.01500
C 	C 	0.09670 0.24500 0.64840 -0.00600
C 	C 	0.10720 0.28390 0.69640 -0.03400
C 	C 	0.15680 0.28890 0.75050 -0.04600
C 	C 	0.20090 0.25080 0.76560 0.17100
C 	C 	0.24930 0.30050 0.85890 0.19500
H 	H 	0.26240 0.32660 0.82990 -0.02600
H 	H 	0.22050 0.31120 0.88140 -0.03300
C 	C 	0.29240 0.27510 0.93060 -0.41600
H 	H 	0.27880 0.24700 0.95370 0.14900
H 	H 	0.30360 0.29750 0.97560 0.14300
C 	C 	0.33650 0.26060 0.88720 0.42000
H 	H 	0.35460 0.29050 0.88650 -0.09800
H 	H 	0.32040 0.25560 0.82990 -0.06700
C 	C 	0.36980 0.23050 0.89650 -0.59000
H 	H 	0.39650 0.24590 0.93450 0.19100
H 	H 	0.35740 0.20560 0.92900 0.19000
C 	C 	0.39960 0.19980 0.83160 0.29100
H 	H 	0.38970 0.16640 0.82710 -0.05600
H 	H 	0.43550 0.20210 0.84730 -0.06500
C 	C 	0.37850 0.22990 0.74690 -0.70400
H 	H 	0.39210 0.21690 0.70120 0.23800
H 	H 	0.34290 0.22760 0.73490 0.25500
H 	H 	0.38810 0.26290 0.75480 0.24200
C 	C 	0.05220 0.21060 0.51350 -1.41500
H 	H 	0.07780 0.18730 0.53370 0.40700
H 	H 	0.06810 0.23260 0.48030 0.43800
C 	C 	0.02860 0.18920 0.46260 1.57500
H 	H 	0.03060 0.20670 0.41180 -0.44400
C 	C 	0.03140 0.13530 0.43820 -1.17200
H 	H 	0.03300 0.13500 0.37920 0.36800
H 	H 	0.99930 0.12160 0.44320 0.36200
C 	C 	0.07000 0.09930 0.47830 0.55900
H 	H 	0.09590 0.09390 0.44540 -0.16200
H 	H 	0.08480 0.10810 0.53480 -0.17100
C 	C 	0.03240 0.05480 0.47490 -0.49100
H 	H 	0.99730 0.06260 0.46130 0.18900
H 	H 	0.04100 0.02670 0.44540 0.15000
O 	O 	0.33480 0.05020 0.62200 -0.46900
O 	O 	0.35120 0.05010 0.76140 -0.48000
O 	O 	0.93990 0.44880 0.63740 -0.47800
O 	O 	0.95630 0.44910 0.77440 -0.47400
O 	O 	0.05290 0.23890 0.58770 0.11100
O 	O 	0.23970 0.25950 0.80990 -0.28500
H 	H 	0.99480 0.19360 0.47220 -0.32300
C 	C 	0.17270 0.56430 0.30710 0.41300
C 	C 	0.21070 0.60090 0.30560 -0.17400
C 	C 	0.23830 0.61990 0.37930 0.09800
H 	H 	0.23270 0.60780 0.43010 0.00900
C 	C 	0.27220 0.65430 0.37980 -0.17200
H 	H 	0.28880 0.66620 0.43050 0.08600
C 	C 	0.28370 0.67350 0.30360 0.10800
C 	C 	0.25510 0.65360 0.22620 -0.16800
H 	H 	0.25920 0.66560 0.17450 0.09200
C 	C 	0.22320 0.61830 0.23130 0.10100
H 	H 	0.20800 0.60400 0.18180 0.00700
C 	C 	0.49090 0.87690 0.37210 0.10900
H 	H 	0.50760 0.89010 0.42170 0.01400
C 	C 	0.45770 0.84000 0.37560 -0.17400
H 	H 	0.45390 0.82710 0.42670 0.10300
C 	C 	0.43010 0.82240 0.30220 0.12300
C 	C 	0.43910 0.84040 0.22910 -0.17700
H 	H 	0.42230 0.82750 0.17950 0.09400
C 	C 	0.47210 0.87680 0.22560 0.10500
H 	H 	0.47570 0.88960 0.17430 0.01500
C 	C 	0.50030 0.89480 0.29860 -0.17100
C 	C 	0.53730 0.93330 0.29450 0.42400
C 	C 	0.32060 0.71230 0.30090 -0.08400
C 	C 	0.36570 0.70680 0.35690 -0.01300
C 	C 	0.40330 0.74500 0.35160 -0.00500
C 	C 	0.39280 0.78390 0.30360 -0.03200
C 	C 	0.34320 0.78890 0.24950 -0.04100
C 	C 	0.29910 0.75080 0.23440 0.17000
C 	C 	0.25070 0.80050 0.14110 0.18900
H 	H 	0.23760 0.82660 0.17010 -0.01900
H 	H 	0.27950 0.81120 0.11860 -0.02800
C 	C 	0.20760 0.77510 0.06940 -0.41100
H 	H 	0.22120 0.74700 0.04630 0.14800
H 	H 	0.19640 0.79750 0.02440 0.14500
C 	C 	0.16350 0.76060 0.11280 0.41400
H 	H 	0.14540 0.79050 0.11350 -0.09300
H 	H 	0.17960 0.75560 0.17010 -0.06400
C 	C 	0.13020 0.73050 0.10350 -0.58500
H 	H 	0.10350 0.74590 0.06550 0.19100
H 	H 	0.14260 0.70560 0.07100 0.18900
C 	C 	0.10040 0.69980 0.16840 0.29100
H 	H 	0.11030 0.66640 0.17290 -0.05600
H 	H 	0.06450 0.70210 0.15270 -0.06400
C 	C 	0.12150 0.72990 0.25310 -0.70600
H 	H 	0.10790 0.71690 0.29880 0.23900
H 	H 	0.15710 0.72760 0.26510 0.25600
H 	H 	0.11190 0.76290 0.24520 0.24400
C 	C 	0.44780 0.71060 0.48650 -1.39600
H 	H 	0.42220 0.68730 0.46630 0.40300
H 	H 	0.43190 0.73260 0.51970 0.43300
C 	C 	0.47140 0.68920 0.53740 1.55200
H 	H 	0.46940 0.70670 0.58820 -0.43700
C 	C 	0.46860 0.63530 0.56180 -1.15900
H 	H 	0.46700 0.63500 0.62080 0.36700
H 	H 	0.50070 0.62160 0.55680 0.35900
C 	C 	0.43000 0.59930 0.52170 0.55300
H 	H 	0.40410 0.59390 0.55460 -0.15500
H 	H 	0.41520 0.60810 0.46520 -0.16500
C 	C 	0.46760 0.55480 0.52510 -0.48800
H 	H 	0.50270 0.56260 0.53870 0.19300
H 	H 	0.45900 0.52670 0.55460 0.16700
O 	O 	0.16520 0.55020 0.37800 -0.46000
O 	O 	0.14880 0.55010 0.23860 -0.47200
O 	O 	0.56010 0.94880 0.36260 -0.45300
O 	O 	0.54370 0.94910 0.22560 -0.44700
O 	O 	0.44710 0.73890 0.41230 0.10700
O 	O 	0.26030 0.75950 0.19010 -0.28200
H 	H 	0.50520 0.69360 0.52780 -0.31800
C 	C 	0.67270 0.06430 0.30710 0.41200
C 	C 	0.71070 0.10090 0.30560 -0.17800
C 	C 	0.73830 0.11990 0.37930 0.09800
H 	H 	0.73270 0.10780 0.43010 0.00600
C 	C 	0.77220 0.15430 0.37980 -0.17400
H 	H 	0.78880 0.16620 0.43050 0.08500
C 	C 	0.78370 0.17350 0.30360 0.10700
C 	C 	0.75510 0.15360 0.22620 -0.17000
H 	H 	0.75920 0.16560 0.17450 0.09200
C 	C 	0.72320 0.11830 0.23130 0.10100
H 	H 	0.70800 0.10400 0.18180 0.00400
C 	C 	0.99090 0.37690 0.37210 0.11600
H 	H 	0.00760 0.39010 0.42170 0.00400
C 	C 	0.95770 0.34000 0.37560 -0.18400
H 	H 	0.95390 0.32710 0.42670 0.10500
C 	C 	0.93010 0.32240 0.30220 0.12600
C 	C 	0.93910 0.34040 0.22910 -0.18700
H 	H 	0.92230 0.32750 0.17950 0.09400
C 	C 	0.97210 0.37680 0.22560 0.11200
H 	H 	0.97570 0.38960 0.17430 0.00300
C 	C 	0.00030 0.39480 0.29860 -0.18800
C 	C 	0.03730 0.43330 0.29450 0.43100
C 	C 	0.82060 0.21230 0.30090 -0.08400
C 	C 	0.86570 0.20680 0.35690 -0.01500
C 	C 	0.90330 0.24500 0.35160 -0.00600
C 	C 	0.89280 0.28390 0.30360 -0.03400
C 	C 	0.84320 0.28890 0.24950 -0.04600
C 	C 	0.79910 0.25080 0.23440 0.17100
C 	C 	0.75070 0.30050 0.14110 0.19500
H 	H 	0.73760 0.32660 0.17010 -0.02600
H 	H 	0.77950 0.31120 0.11860 -0.03300
C 	C 	0.70760 0.27510 0.06940 -0.41600
H 	H 	0.72120 0.24700 0.04630 0.14900
H 	H 	0.69640 0.29750 0.02440 0.14300
C 	C 	0.66350 0.26060 0.11280 0.42000
H 	H 	0.64540 0.29050 0.11350 -0.09800
H 	H 	0.67960 0.25560 0.17010 -0.06700
C 	C 	0.63020 0.23050 0.10350 -0.59000
H 	H 	0.60350 0.24590 0.06550 0.19100
H 	H 	0.64260 0.20560 0.07100 0.19000
C 	C 	0.60040 0.19980 0.16840 0.29100
H 	H 	0.61030 0.16640 0.17290 -0.05600
H 	H 	0.56450 0.20210 0.15270 -0.06500
C 	C 	0.62150 0.22990 0.25310 -0.70400
H 	H 	0.60790 0.21690 0.29880 0.23800
H 	H 	0.65710 0.22760 0.26510 0.25500
H 	H 	0.61190 0.26290 0.24520 0.24200
C 	C 	0.94780 0.21060 0.48650 -1.41500
H 	H 	0.92220 0.18730 0.46630 0.40700
H 	H 	0.93190 0.23260 0.51970 0.43800
C 	C 	0.97140 0.18920 0.53740 1.57500
H 	H 	0.96940 0.20670 0.58820 -0.44400
C 	C 	0.96860 0.13530 0.56180 -1.17200
H 	H 	0.96700 0.13500 0.62080 0.36800
H 	H 	0.00070 0.12160 0.55680 0.36200
C 	C 	0.93000 0.09930 0.52170 0.55900
H 	H 	0.90410 0.09390 0.55460 -0.16200
H 	H 	0.91520 0.10810 0.46520 -0.17100
C 	C 	0.96760 0.05480 0.52510 -0.49100
H 	H 	0.00270 0.06260 0.53870 0.18900
H 	H 	0.95900 0.02670 0.55460 0.15000
O 	O 	0.66520 0.05020 0.37800 -0.46900
O 	O 	0.64880 0.05010 0.23860 -0.48000
O 	O 	0.06010 0.44880 0.36260 -0.47800
O 	O 	0.04370 0.44910 0.22560 -0.47400
O 	O 	0.94710 0.23890 0.41230 0.11100
O 	O 	0.76030 0.25950 0.19010 -0.28500
H 	H 	0.00520 0.19360 0.52780 -0.32300
C 	C 	0.13130 0.50000 0.05610 0.05000
H 	H 	0.16170 0.50000 0.09230 0.00800
C 	C 	0.12970 0.50000 0.94850 -0.13400
H 	H 	0.15830 0.50000 0.92480 0.06800
C 	C 	0.08980 0.50000 0.90880 0.07700
C 	C 	0.04920 0.50000 0.94670 -0.15300
H 	H 	0.01860 0.50000 0.91110 0.08800
C 	C 	0.04720 0.50000 0.03030 0.10000
H 	H 	0.01670 0.50000 0.04830 -0.02100
C 	C 	0.16010 0.50000 0.57580 0.10000
H 	H 	0.19000 0.50000 0.55580 -0.01200
C 	C 	0.16010 0.50000 0.65550 -0.20700
H 	H 	0.19050 0.50000 0.69190 0.09800
C 	C 	0.11140 0.50000 0.69240 0.24500
C 	C 	0.07400 0.50000 0.64510 -0.28200
H 	H 	0.04390 0.50000 0.66430 0.13900
C 	C 	0.07460 0.50000 0.54540 0.16000
H 	H 	0.04430 0.50000 0.50880 -0.02600
C 	C 	0.08490 0.50000 0.81720 0.08200
H 	H 	0.05270 0.50000 0.78640 0.01100
C 	C 	0.11440 0.50000 0.78340 -0.26200
H 	H 	0.14630 0.50000 0.81510 0.11200
N 	N 	0.11210 0.50000 0.51690 -0.27800
N 	N 	0.08990 0.50000 0.08600 -0.25400
Zn	Zn	0.11386 0.50000 0.39395 1.21800
Zn	Zn	0.09458 0.50000 0.20999 1.21900
C 	C 	0.63130 0.00000 0.05610 0.04400
H 	H 	0.66170 0.00000 0.09230 -0.00100
C 	C 	0.62970 0.00000 0.94850 -0.13800
H 	H 	0.65830 -0.00000 0.92480 0.06300
C 	C 	0.58980 0.00000 0.90880 0.07400
C 	C 	0.54920 0.00000 0.94670 -0.15500
H 	H 	0.51860 0.00000 0.91110 0.08300
C 	C 	0.54720 -0.00000 0.03030 0.09200
H 	H 	0.51670 -0.00000 0.04830 -0.02300
C 	C 	0.66010 -0.00000 0.57580 0.09100
H 	H 	0.69000 -0.00000 0.55580 -0.01900
C 	C 	0.66010 -0.00000 0.65550 -0.20600
H 	H 	0.69050 -0.00000 0.69190 0.09000
C 	C 	0.61140 -0.00000 0.69240 0.23200
C 	C 	0.57400 -0.00000 0.64510 -0.27900
H 	H 	0.54390 0.00000 0.66430 0.13000
C 	C 	0.57460 0.00000 0.54540 0.15100
H 	H 	0.54430 -0.00000 0.50880 -0.03200
C 	C 	0.58490 -0.00000 0.81720 0.07200
H 	H 	0.55270 -0.00000 0.78640 0.00700
C 	C 	0.61440 0.00000 0.78340 -0.25600
H 	H 	0.64630 -0.00000 0.81510 0.10500
N 	N 	0.61210 0.00000 0.51690 -0.28300
N 	N 	0.58990 0.00000 0.08600 -0.26000
Zn	Zn	0.61386 0.00000 0.39395 1.20600
Zn	Zn	0.59458 0.00000 0.20999 1.20800
C 	C 	0.86870 0.50000 0.94390 0.05000
H 	H 	0.83830 0.50000 0.90770 0.00800
C 	C 	0.87030 0.50000 0.05150 -0.13400
H 	H 	0.84170 0.50000 0.07520 0.06800
C 	C 	0.91020 0.50000 0.09120 0.07700
C 	C 	0.95080 0.50000 0.05330 -0.15300
H 	H 	0.98140 0.50000 0.08890 0.08800
C 	C 	0.95280 0.50000 0.96970 0.10000
H 	H 	0.98330 0.50000 0.95170 -0.02100
C 	C 	0.83990 0.50000 0.42420 0.10000
H 	H 	0.81000 0.50000 0.44420 -0.01200
C 	C 	0.83990 0.50000 0.34450 -0.20700
H 	H 	0.80950 0.50000 0.30810 0.09800
C 	C 	0.88860 0.50000 0.30760 0.24500
C 	C 	0.92600 0.50000 0.35490 -0.28200
H 	H 	0.95610 0.50000 0.33570 0.13900
C 	C 	0.92540 0.50000 0.45460 0.16000
H 	H 	0.95570 0.50000 0.49120 -0.02600
C 	C 	0.91510 0.50000 0.18280 0.08200
H 	H 	0.94730 0.50000 0.21360 0.01100
C 	C 	0.88560 0.50000 0.21660 -0.26200
H 	H 	0.85370 0.50000 0.18490 0.11200
N 	N 	0.88790 0.50000 0.48310 -0.27800
N 	N 	0.91010 0.50000 0.91400 -0.25400
Zn	Zn	0.88614 0.50000 0.60605 1.21800
Zn	Zn	0.90542 0.50000 0.79001 1.21900
C 	C 	0.36870 -0.00000 0.94390 0.04400
H 	H 	0.33830 0.00000 0.90770 -0.00100
C 	C 	0.37030 -0.00000 0.05150 -0.13800
H 	H 	0.34170 0.00000 0.07520 0.06300
C 	C 	0.41020 -0.00000 0.09120 0.07400
C 	C 	0.45080 0.00000 0.05330 -0.15500
H 	H 	0.48140 0.00000 0.08890 0.08300
C 	C 	0.45280 0.00000 0.96970 0.09200
H 	H 	0.48330 -0.00000 0.95170 -0.02300
C 	C 	0.33990 0.00000 0.42420 0.09100
H 	H 	0.31000 -0.00000 0.44420 -0.01900
C 	C 	0.33990 -0.00000 0.34450 -0.20600
H 	H 	0.30950 -0.00000 0.30810 0.09000
C 	C 	0.38860 -0.00000 0.30760 0.23200
C 	C 	0.42600 -0.00000 0.35490 -0.27900
H 	H 	0.45610 0.00000 0.33570 0.13000
C 	C 	0.42540 0.00000 0.45460 0.15100
H 	H 	0.45570 -0.00000 0.49120 -0.03200
C 	C 	0.41510 -0.00000 0.18280 0.07200
H 	H 	0.44730 0.00000 0.21360 0.00700
C 	C 	0.38560 -0.00000 0.21660 -0.25600
H 	H 	0.35370 -0.00000 0.18490 0.10500
N 	N 	0.38790 -0.00000 0.48310 -0.28300
N 	N 	0.41010 0.00000 0.91400 -0.26000
Zn	Zn	0.38614 -0.00000 0.60605 1.20600
Zn	Zn	0.40542 -0.00000 0.79001 1.20800
