data_crystal

_cell_length_a 26.29030
_cell_length_b 26.29030
_cell_length_c 7.06760
_cell_angle_alpha 90.00000
_cell_angle_beta  90.00000
_cell_angle_gamma 120.00000

_symmetry_space_group_name_	'P 1'
_symmetry_space_group_name_H-M	'P 1'

loop_
_symmetry_equiv_pos_as_xyz
  x,y,z

loop_
_atom_site_label
_atom_site_type_symbol
_atom_site_fract_x
_atom_site_fract_y
_atom_site_fract_z
_atom_site_charge
Mn	Mn	0.95250 0.63680 0.02700 1.27600
C 	C 	0.01280 0.59170 0.75800 0.42000
C 	C 	0.00690 0.54520 0.89500 -0.19200
C 	C 	0.99020 0.54410 0.08700 0.19900
C 	C 	0.98430 0.49700 0.18940 -0.07900
H 	H 	0.97257 0.49750 0.33724 0.04700
O 	O 	0.03030 0.59230 0.59200 -0.46500
O 	O 	0.00670 0.63530 0.80000 -0.62400
O 	O 	0.97770 0.58530 0.14500 -0.58000
Mn	Mn	0.61917 0.97013 0.36033 1.27600
C 	C 	0.67947 0.92503 0.09133 0.42000
C 	C 	0.67357 0.87853 0.22833 -0.19300
C 	C 	0.65687 0.87743 0.42033 0.19900
C 	C 	0.65097 0.83033 0.52273 -0.07900
H 	H 	0.63924 0.83083 0.67057 0.04700
O 	O 	0.69697 0.92563 0.92533 -0.46600
O 	O 	0.67337 0.96863 0.13333 -0.62400
O 	O 	0.64437 0.91863 0.47833 -0.58000
Mn	Mn	0.28583 0.30347 0.69367 1.27600
C 	C 	0.34613 0.25837 0.42467 0.41900
C 	C 	0.34023 0.21187 0.56167 -0.19300
C 	C 	0.32353 0.21077 0.75367 0.19800
C 	C 	0.31763 0.16367 0.85607 -0.07800
H 	H 	0.30590 0.16417 0.00391 0.04700
O 	O 	0.36363 0.25897 0.25867 -0.46600
O 	O 	0.34003 0.30197 0.46667 -0.62400
O 	O 	0.31103 0.25197 0.81167 -0.58000
Mn	Mn	0.36320 0.31570 0.02700 1.27600
C 	C 	0.40830 0.42110 0.75800 0.41900
C 	C 	0.45480 0.46170 0.89500 -0.19200
C 	C 	0.45590 0.44610 0.08700 0.19900
C 	C 	0.50300 0.48730 0.18940 -0.07900
H 	H 	0.50250 0.47507 0.33724 0.04700
O 	O 	0.40770 0.43800 0.59200 -0.46500
O 	O 	0.36470 0.37140 0.80000 -0.62400
O 	O 	0.41470 0.39240 0.14500 -0.58000
Mn	Mn	0.02987 0.64903 0.36033 1.27600
C 	C 	0.07497 0.75443 0.09133 0.42100
C 	C 	0.12147 0.79503 0.22833 -0.19400
C 	C 	0.12257 0.77943 0.42033 0.19900
C 	C 	0.16967 0.82063 0.52273 -0.07900
H 	H 	0.16917 0.80840 0.67057 0.04700
O 	O 	0.07437 0.77133 0.92533 -0.46600
O 	O 	0.03137 0.70473 0.13333 -0.62400
O 	O 	0.08137 0.72573 0.47833 -0.58000
Mn	Mn	0.69653 0.98237 0.69367 1.27600
C 	C 	0.74163 0.08777 0.42467 0.41900
C 	C 	0.78813 0.12837 0.56167 -0.19200
C 	C 	0.78923 0.11277 0.75367 0.19800
C 	C 	0.83633 0.15397 0.85607 -0.07700
H 	H 	0.83583 0.14174 0.00391 0.04600
O 	O 	0.74103 0.10467 0.25867 -0.46600
O 	O 	0.69803 0.03807 0.46667 -0.62400
O 	O 	0.74803 0.05907 0.81167 -0.57900
Mn	Mn	0.68430 0.04750 0.02700 1.27500
C 	C 	0.57890 0.98720 0.75800 0.41900
C 	C 	0.53830 0.99310 0.89500 -0.19200
C 	C 	0.55390 0.00980 0.08700 0.19800
C 	C 	0.51270 0.01570 0.18940 -0.07900
H 	H 	0.52493 0.02743 0.33724 0.04700
O 	O 	0.56200 0.96970 0.59200 -0.46500
O 	O 	0.62860 0.99330 0.80000 -0.62400
O 	O 	0.60760 0.02230 0.14500 -0.58000
Mn	Mn	0.35097 0.38083 0.36033 1.27600
C 	C 	0.24557 0.32053 0.09133 0.42000
C 	C 	0.20497 0.32643 0.22833 -0.19300
C 	C 	0.22057 0.34313 0.42033 0.19900
C 	C 	0.17937 0.34903 0.52273 -0.07900
H 	H 	0.19160 0.36076 0.67057 0.04700
O 	O 	0.22867 0.30303 0.92533 -0.46500
O 	O 	0.29527 0.32663 0.13333 -0.62400
O 	O 	0.27427 0.35563 0.47833 -0.58000
Mn	Mn	0.01763 0.71417 0.69367 1.27600
C 	C 	0.91223 0.65387 0.42467 0.41900
C 	C 	0.87163 0.65977 0.56167 -0.19300
C 	C 	0.88723 0.67647 0.75367 0.19800
C 	C 	0.84603 0.68237 0.85607 -0.07800
H 	H 	0.85826 0.69410 0.00391 0.04700
O 	O 	0.89533 0.63637 0.25867 -0.46600
O 	O 	0.96193 0.65997 0.46667 -0.62400
O 	O 	0.94093 0.68897 0.81167 -0.58000
Mn	Mn	0.04750 0.36320 0.97300 1.27500
C 	C 	0.98720 0.40830 0.24200 0.41900
C 	C 	0.99310 0.45480 0.10500 -0.19300
C 	C 	0.00980 0.45590 0.91300 0.19800
C 	C 	0.01570 0.50300 0.81060 -0.07900
H 	H 	0.02743 0.50250 0.66276 0.04700
O 	O 	0.96970 0.40770 0.40800 -0.46500
O 	O 	0.99330 0.36470 0.20000 -0.62400
O 	O 	0.02230 0.41470 0.85500 -0.58000
Mn	Mn	0.71417 0.69653 0.30633 1.27600
C 	C 	0.65387 0.74163 0.57533 0.41900
C 	C 	0.65977 0.78813 0.43833 -0.19300
C 	C 	0.67647 0.78923 0.24633 0.19800
C 	C 	0.68237 0.83633 0.14393 -0.07800
H 	H 	0.69410 0.83583 0.99609 0.04700
O 	O 	0.63637 0.74103 0.74133 -0.46600
O 	O 	0.65997 0.69803 0.53333 -0.62400
O 	O 	0.68897 0.74803 0.18833 -0.58000
Mn	Mn	0.38083 0.02987 0.63967 1.27600
C 	C 	0.32053 0.07497 0.90867 0.42000
C 	C 	0.32643 0.12147 0.77167 -0.19300
C 	C 	0.34313 0.12257 0.57967 0.19900
C 	C 	0.34903 0.16967 0.47727 -0.07900
H 	H 	0.36076 0.16917 0.32943 0.04700
O 	O 	0.30303 0.07437 0.07467 -0.46600
O 	O 	0.32663 0.03137 0.86667 -0.62400
O 	O 	0.35563 0.08137 0.52167 -0.58000
Mn	Mn	0.63680 0.68430 0.97300 1.27600
C 	C 	0.59170 0.57890 0.24200 0.41900
C 	C 	0.54520 0.53830 0.10500 -0.19200
C 	C 	0.54410 0.55390 0.91300 0.19900
C 	C 	0.49700 0.51270 0.81060 -0.07900
H 	H 	0.49750 0.52493 0.66276 0.04700
O 	O 	0.59230 0.56200 0.40800 -0.46500
O 	O 	0.63530 0.62860 0.20000 -0.62400
O 	O 	0.58530 0.60760 0.85500 -0.58000
Mn	Mn	0.30347 0.01763 0.30633 1.27600
C 	C 	0.25837 0.91223 0.57533 0.41900
C 	C 	0.21187 0.87163 0.43833 -0.19200
C 	C 	0.21077 0.88723 0.24633 0.19800
C 	C 	0.16367 0.84603 0.14393 -0.07700
H 	H 	0.16417 0.85826 0.99609 0.04600
O 	O 	0.25897 0.89533 0.74133 -0.46600
O 	O 	0.30197 0.96193 0.53333 -0.62400
O 	O 	0.25197 0.94093 0.18833 -0.57900
Mn	Mn	0.97013 0.35097 0.63967 1.27600
C 	C 	0.92503 0.24557 0.90867 0.42100
C 	C 	0.87853 0.20497 0.77167 -0.19400
C 	C 	0.87743 0.22057 0.57967 0.19900
C 	C 	0.83033 0.17937 0.47727 -0.07900
H 	H 	0.83083 0.19160 0.32943 0.04700
O 	O 	0.92563 0.22867 0.07467 -0.46600
O 	O 	0.96863 0.29527 0.86667 -0.62400
O 	O 	0.91863 0.27427 0.52167 -0.58000
Mn	Mn	0.31570 0.95250 0.97300 1.27500
C 	C 	0.42110 0.01280 0.24200 0.41900
C 	C 	0.46170 0.00690 0.10500 -0.19200
C 	C 	0.44610 0.99020 0.91300 0.19800
C 	C 	0.48730 0.98430 0.81060 -0.07900
H 	H 	0.47507 0.97257 0.66276 0.04700
O 	O 	0.43800 0.03030 0.40800 -0.46500
O 	O 	0.37140 0.00670 0.20000 -0.62400
O 	O 	0.39240 0.97770 0.85500 -0.58000
Mn	Mn	0.98237 0.28583 0.30633 1.27600
C 	C 	0.08777 0.34613 0.57533 0.41900
C 	C 	0.12837 0.34023 0.43833 -0.19300
C 	C 	0.11277 0.32353 0.24633 0.19800
C 	C 	0.15397 0.31763 0.14393 -0.07800
H 	H 	0.14174 0.30590 0.99609 0.04700
O 	O 	0.10467 0.36363 0.74133 -0.46600
O 	O 	0.03807 0.34003 0.53333 -0.62400
O 	O 	0.05907 0.31103 0.18833 -0.58000
Mn	Mn	0.64903 0.61917 0.63967 1.27600
C 	C 	0.75443 0.67947 0.90867 0.42000
C 	C 	0.79503 0.67357 0.77167 -0.19300
C 	C 	0.77943 0.65687 0.57967 0.19900
C 	C 	0.82063 0.65097 0.47727 -0.07900
H 	H 	0.80840 0.63924 0.32943 0.04700
O 	O 	0.77133 0.69697 0.07467 -0.46500
O 	O 	0.70473 0.67337 0.86667 -0.62400
O 	O 	0.72573 0.64437 0.52167 -0.58000
