data_crystal

_cell_length_a 25.85920
_cell_length_b 25.85920
_cell_length_c 6.26960
_cell_angle_alpha 90.00000
_cell_angle_beta  90.00000
_cell_angle_gamma 120.00000

_symmetry_space_group_name_	'P 1'
_symmetry_space_group_name_H-M	'P 1'

loop_
_symmetry_equiv_pos_as_xyz
  x,y,z

loop_
_atom_site_label
_atom_site_type_symbol
_atom_site_fract_x
_atom_site_fract_y
_atom_site_fract_z
_atom_site_charge
Cu	Cu	0.94590 0.62950 0.98600 0.92500
C 	C 	0.00500 0.58730 0.71000 0.42200
C 	C 	0.02230 0.50190 0.79200 -0.04500
C 	C 	0.00720 0.54320 0.85600 -0.16500
C 	C 	0.98760 0.54510 0.07200 0.15900
H 	H 	0.03490 0.50700 0.63400 0.06700
O 	O 	0.03870 0.59770 0.54900 -0.40700
O 	O 	0.98160 0.61710 0.73800 -0.51400
O 	O 	0.97000 0.58300 0.15200 -0.43900
Cu	Cu	0.61257 0.96283 0.31933 0.92500
C 	C 	0.67167 0.92063 0.04333 0.41800
C 	C 	0.68897 0.83523 0.12533 -0.05000
C 	C 	0.67387 0.87653 0.18933 -0.16400
C 	C 	0.65427 0.87843 0.40533 0.15700
H 	H 	0.70157 0.84033 0.96733 0.06900
O 	O 	0.70537 0.93103 0.88233 -0.40500
O 	O 	0.64827 0.95043 0.07133 -0.51200
O 	O 	0.63667 0.91633 0.48533 -0.44000
Cu	Cu	0.27923 0.29617 0.65267 0.92500
C 	C 	0.33833 0.25397 0.37667 0.42000
C 	C 	0.35563 0.16857 0.45867 -0.04600
C 	C 	0.34053 0.20987 0.52267 -0.16600
C 	C 	0.32093 0.21177 0.73867 0.15900
H 	H 	0.36823 0.17367 0.30067 0.06800
O 	O 	0.37203 0.26437 0.21567 -0.40600
O 	O 	0.31493 0.28377 0.40467 -0.51300
O 	O 	0.30333 0.24967 0.81867 -0.44000
Cu	Cu	0.37050 0.31640 0.98600 0.92400
C 	C 	0.41270 0.41770 0.71000 0.42100
C 	C 	0.49810 0.52040 0.79200 -0.04600
C 	C 	0.45680 0.46400 0.85600 -0.16600
C 	C 	0.45490 0.44250 0.07200 0.15800
H 	H 	0.49300 0.52790 0.63400 0.06700
O 	O 	0.40230 0.44100 0.54900 -0.40700
O 	O 	0.38290 0.36450 0.73800 -0.51300
O 	O 	0.41700 0.38700 0.15200 -0.43900
Cu	Cu	0.03717 0.64973 0.31933 0.92500
C 	C 	0.07937 0.75103 0.04333 0.41700
C 	C 	0.16477 0.85373 0.12533 -0.05100
C 	C 	0.12347 0.79733 0.18933 -0.16300
C 	C 	0.12157 0.77583 0.40533 0.15700
H 	H 	0.15967 0.86123 0.96733 0.07000
O 	O 	0.06897 0.77433 0.88233 -0.40500
O 	O 	0.04957 0.69783 0.07133 -0.51200
O 	O 	0.08367 0.72033 0.48533 -0.43900
Cu	Cu	0.70383 0.98307 0.65267 0.92500
C 	C 	0.74603 0.08437 0.37667 0.42000
C 	C 	0.83143 0.18707 0.45867 -0.04600
C 	C 	0.79013 0.13067 0.52267 -0.16600
C 	C 	0.78823 0.10917 0.73867 0.16000
H 	H 	0.82633 0.19457 0.30067 0.06800
O 	O 	0.73563 0.10767 0.21567 -0.40500
O 	O 	0.71623 0.03117 0.40467 -0.51200
O 	O 	0.75033 0.05367 0.81867 -0.44100
Cu	Cu	0.68360 0.05410 0.98600 0.92400
C 	C 	0.58230 0.99500 0.71000 0.42100
C 	C 	0.47960 0.97770 0.79200 -0.04600
C 	C 	0.53600 0.99280 0.85600 -0.16600
C 	C 	0.55750 0.01240 0.07200 0.15900
H 	H 	0.47210 0.96510 0.63400 0.06700
O 	O 	0.55900 0.96130 0.54900 -0.40700
O 	O 	0.63550 0.01840 0.73800 -0.51400
O 	O 	0.61300 0.03000 0.15200 -0.43900
Cu	Cu	0.35027 0.38743 0.31933 0.92500
C 	C 	0.24897 0.32833 0.04333 0.41900
C 	C 	0.14627 0.31103 0.12533 -0.05000
C 	C 	0.20267 0.32613 0.18933 -0.16400
C 	C 	0.22417 0.34573 0.40533 0.15800
H 	H 	0.13877 0.29843 0.96733 0.06900
O 	O 	0.22567 0.29463 0.88233 -0.40600
O 	O 	0.30217 0.35173 0.07133 -0.51200
O 	O 	0.27967 0.36333 0.48533 -0.44000
Cu	Cu	0.01693 0.72077 0.65267 0.92500
C 	C 	0.91563 0.66167 0.37667 0.42000
C 	C 	0.81293 0.64437 0.45867 -0.04600
C 	C 	0.86933 0.65947 0.52267 -0.16600
C 	C 	0.89083 0.67907 0.73867 0.15900
H 	H 	0.80543 0.63177 0.30067 0.06800
O 	O 	0.89233 0.62797 0.21567 -0.40500
O 	O 	0.96883 0.68507 0.40467 -0.51300
O 	O 	0.94633 0.69667 0.81867 -0.44100
Cu	Cu	0.05410 0.37050 0.01400 0.92400
C 	C 	0.99500 0.41270 0.29000 0.42100
C 	C 	0.97770 0.49810 0.20800 -0.04600
C 	C 	0.99280 0.45680 0.14400 -0.16600
C 	C 	0.01240 0.45490 0.92800 0.15900
H 	H 	0.96510 0.49300 0.36600 0.06700
O 	O 	0.96130 0.40230 0.45100 -0.40700
O 	O 	0.01840 0.38290 0.26200 -0.51400
O 	O 	0.03000 0.41700 0.84800 -0.43900
Cu	Cu	0.72077 0.70383 0.34733 0.92500
C 	C 	0.66167 0.74603 0.62333 0.42000
C 	C 	0.64437 0.83143 0.54133 -0.04600
C 	C 	0.65947 0.79013 0.47733 -0.16600
C 	C 	0.67907 0.78823 0.26133 0.15900
H 	H 	0.63177 0.82633 0.69933 0.06800
O 	O 	0.62797 0.73563 0.78433 -0.40600
O 	O 	0.68507 0.71623 0.59533 -0.51300
O 	O 	0.69667 0.75033 0.18133 -0.44000
Cu	Cu	0.38743 0.03717 0.68067 0.92500
C 	C 	0.32833 0.07937 0.95667 0.41800
C 	C 	0.31103 0.16477 0.87467 -0.05000
C 	C 	0.32613 0.12347 0.81067 -0.16400
C 	C 	0.34573 0.12157 0.59467 0.15700
H 	H 	0.29843 0.15967 0.03267 0.06900
O 	O 	0.29463 0.06897 0.11767 -0.40500
O 	O 	0.35173 0.04957 0.92867 -0.51200
O 	O 	0.36333 0.08367 0.51467 -0.44000
Cu	Cu	0.62950 0.68360 0.01400 0.92400
C 	C 	0.58730 0.58230 0.29000 0.42100
C 	C 	0.50190 0.47960 0.20800 -0.04600
C 	C 	0.54320 0.53600 0.14400 -0.16600
C 	C 	0.54510 0.55750 0.92800 0.15800
H 	H 	0.50700 0.47210 0.36600 0.06700
O 	O 	0.59770 0.55900 0.45100 -0.40700
O 	O 	0.61710 0.63550 0.26200 -0.51300
O 	O 	0.58300 0.61300 0.84800 -0.43900
Cu	Cu	0.29617 0.01693 0.34733 0.92500
C 	C 	0.25397 0.91563 0.62333 0.42000
C 	C 	0.16857 0.81293 0.54133 -0.04600
C 	C 	0.20987 0.86933 0.47733 -0.16600
C 	C 	0.21177 0.89083 0.26133 0.16000
H 	H 	0.17367 0.80543 0.69933 0.06800
O 	O 	0.26437 0.89233 0.78433 -0.40500
O 	O 	0.28377 0.96883 0.59533 -0.51200
O 	O 	0.24967 0.94633 0.18133 -0.44100
Cu	Cu	0.96283 0.35027 0.68067 0.92500
C 	C 	0.92063 0.24897 0.95667 0.41700
C 	C 	0.83523 0.14627 0.87467 -0.05100
C 	C 	0.87653 0.20267 0.81067 -0.16300
C 	C 	0.87843 0.22417 0.59467 0.15700
H 	H 	0.84033 0.13877 0.03267 0.07000
O 	O 	0.93103 0.22567 0.11767 -0.40500
O 	O 	0.95043 0.30217 0.92867 -0.51200
O 	O 	0.91633 0.27967 0.51467 -0.43900
Cu	Cu	0.31640 0.94590 0.01400 0.92400
C 	C 	0.41770 0.00500 0.29000 0.42100
C 	C 	0.52040 0.02230 0.20800 -0.04600
C 	C 	0.46400 0.00720 0.14400 -0.16600
C 	C 	0.44250 0.98760 0.92800 0.15900
H 	H 	0.52790 0.03490 0.36600 0.06700
O 	O 	0.44100 0.03870 0.45100 -0.40700
O 	O 	0.36450 0.98160 0.26200 -0.51400
O 	O 	0.38700 0.97000 0.84800 -0.43900
Cu	Cu	0.98307 0.27923 0.34733 0.92500
C 	C 	0.08437 0.33833 0.62333 0.42000
C 	C 	0.18707 0.35563 0.54133 -0.04600
C 	C 	0.13067 0.34053 0.47733 -0.16600
C 	C 	0.10917 0.32093 0.26133 0.15900
H 	H 	0.19457 0.36823 0.69933 0.06800
O 	O 	0.10767 0.37203 0.78433 -0.40500
O 	O 	0.03117 0.31493 0.59533 -0.51300
O 	O 	0.05367 0.30333 0.18133 -0.44100
Cu	Cu	0.64973 0.61257 0.68067 0.92500
C 	C 	0.75103 0.67167 0.95667 0.41900
C 	C 	0.85373 0.68897 0.87467 -0.05000
C 	C 	0.79733 0.67387 0.81067 -0.16400
C 	C 	0.77583 0.65427 0.59467 0.15800
H 	H 	0.86123 0.70157 0.03267 0.06900
O 	O 	0.77433 0.70537 0.11767 -0.40600
O 	O 	0.69783 0.64827 0.92867 -0.51200
O 	O 	0.72033 0.63667 0.51467 -0.44000
