data_crystal

_cell_length_a 24.86120
_cell_length_b 24.86120
_cell_length_c 28.26000
_cell_angle_alpha 90.00000
_cell_angle_beta  90.00000
_cell_angle_gamma 120.00000

_symmetry_space_group_name_	'P 1'
_symmetry_space_group_name_H-M	'P 1'

loop_
_symmetry_equiv_pos_as_xyz
  x,y,z

loop_
_atom_site_label
_atom_site_type_symbol
_atom_site_fract_x
_atom_site_fract_y
_atom_site_fract_z
_atom_site_charge
O 	O 	0.61050 0.38978 0.94907 -0.18500
C 	C 	0.65485 0.50075 0.94928 -0.09400
C 	C 	0.65348 0.61110 0.92846 0.13900
C 	C 	0.65703 0.44269 0.95877 0.28600
C 	C 	0.70427 0.61315 0.95222 -0.14900
H 	H 	0.73830 0.65200 0.96170 0.08900
C 	C 	0.70469 0.55828 0.96192 0.05100
H 	H 	0.73960 0.56030 0.97740 0.03300
C 	C 	0.60260 0.55327 0.91742 -0.15000
H 	H 	0.56730 0.55110 0.90250 0.08900
C 	C 	0.60293 0.49873 0.92795 0.05100
H 	H 	0.56760 0.45970 0.92060 0.03100
C 	C 	0.55899 0.64881 0.95686 -0.13700
H 	H 	0.57210 0.63680 0.98450 0.08500
O 	O 	0.70557 0.44675 0.97666 -0.18100
C 	C 	0.50258 0.64836 0.95708 0.03400
H 	H 	0.47730 0.63560 0.98470 0.05500
O 	O 	0.38812 0.64411 0.95234 -0.16200
O 	O 	0.27717 0.72311 0.28240 -0.18500
C 	C 	0.32152 0.83408 0.28261 -0.09400
C 	C 	0.32015 0.94443 0.26179 0.14500
C 	C 	0.32370 0.77602 0.29210 0.28800
C 	C 	0.37094 0.94648 0.28555 -0.15000
H 	H 	0.40497 0.98533 0.29503 0.09200
C 	C 	0.37136 0.89161 0.29525 0.05300
H 	H 	0.40627 0.89363 0.31073 0.03400
C 	C 	0.26927 0.88660 0.25075 -0.15100
H 	H 	0.23397 0.88443 0.23583 0.09100
C 	C 	0.26960 0.83206 0.26128 0.05300
H 	H 	0.23427 0.79303 0.25393 0.03200
C 	C 	0.22566 0.98214 0.29019 -0.13100
H 	H 	0.23877 0.97013 0.31783 0.08600
O 	O 	0.37224 0.78008 0.30999 -0.18000
C 	C 	0.16925 0.98169 0.29041 0.03700
H 	H 	0.14397 0.96893 0.31803 0.05400
O 	O 	0.05479 0.97744 0.28567 -0.15900
O 	O 	0.94383 0.05645 0.61574 -0.18500
C 	C 	0.98818 0.16742 0.61595 -0.09000
C 	C 	0.98681 0.27777 0.59513 0.14500
C 	C 	0.99036 0.10936 0.62544 0.29100
C 	C 	0.03760 0.27982 0.61889 -0.15300
H 	H 	0.07163 0.31867 0.62837 0.09000
C 	C 	0.03802 0.22495 0.62859 0.04800
H 	H 	0.07293 0.22697 0.64407 0.03400
C 	C 	0.93593 0.21994 0.58409 -0.15000
H 	H 	0.90063 0.21777 0.56917 0.09000
C 	C 	0.93626 0.16540 0.59462 0.05200
H 	H 	0.90093 0.12637 0.58727 0.03200
C 	C 	0.89232 0.31548 0.62353 -0.13600
H 	H 	0.90543 0.30347 0.65117 0.08700
O 	O 	0.03890 0.11342 0.64333 -0.18400
C 	C 	0.83591 0.31503 0.62375 0.03500
H 	H 	0.81063 0.30227 0.65137 0.05500
O 	O 	0.72145 0.31078 0.61901 -0.16200
O 	O 	0.61022 0.22072 0.94907 -0.18400
C 	C 	0.49925 0.15410 0.94928 -0.09200
C 	C 	0.38890 0.04238 0.92846 0.13600
C 	C 	0.55731 0.21434 0.95877 0.28700
C 	C 	0.38685 0.09112 0.95222 -0.14600
H 	H 	0.34800 0.08630 0.96170 0.08800
C 	C 	0.44172 0.14641 0.96192 0.05000
H 	H 	0.43970 0.17930 0.97740 0.03400
C 	C 	0.44673 0.04933 0.91742 -0.14700
H 	H 	0.44890 0.01620 0.90250 0.08800
C 	C 	0.50127 0.10420 0.92795 0.05000
H 	H 	0.54030 0.10790 0.92060 0.03200
C 	C 	0.35119 0.91018 0.95686 -0.13600
H 	H 	0.36320 0.93530 0.98450 0.08700
O 	O 	0.55325 0.25882 0.97666 -0.18000
C 	C 	0.35164 0.85422 0.95708 0.03500
H 	H 	0.36440 0.84170 0.98470 0.05500
O 	O 	0.35589 0.74401 0.95234 -0.16200
O 	O 	0.27689 0.55405 0.28240 -0.18400
C 	C 	0.16592 0.48743 0.28261 -0.09300
C 	C 	0.05557 0.37571 0.26179 0.14000
C 	C 	0.22398 0.54767 0.29210 0.28700
C 	C 	0.05352 0.42445 0.28555 -0.14900
H 	H 	0.01467 0.41963 0.29503 0.08800
C 	C 	0.10839 0.47974 0.29525 0.05100
H 	H 	0.10637 0.51263 0.31073 0.03400
C 	C 	0.11340 0.38266 0.25075 -0.14800
H 	H 	0.11557 0.34953 0.23583 0.09000
C 	C 	0.16794 0.43753 0.26128 0.05100
H 	H 	0.20697 0.44123 0.25393 0.03200
C 	C 	0.01786 0.24351 0.29019 -0.13500
H 	H 	0.02987 0.26863 0.31783 0.08500
O 	O 	0.21992 0.59215 0.30999 -0.18000
C 	C 	0.01831 0.18755 0.29041 0.03400
H 	H 	0.03107 0.17503 0.31803 0.05400
O 	O 	0.02256 0.07734 0.28567 -0.16300
O 	O 	0.94355 0.88739 0.61574 -0.18200
C 	C 	0.83258 0.82077 0.61595 -0.09200
C 	C 	0.72223 0.70905 0.59513 0.14000
C 	C 	0.89064 0.88101 0.62544 0.28700
C 	C 	0.72018 0.75779 0.61889 -0.14800
H 	H 	0.68133 0.75297 0.62837 0.08900
C 	C 	0.77505 0.81308 0.62859 0.05100
H 	H 	0.77303 0.84597 0.64407 0.03500
C 	C 	0.78006 0.71600 0.58409 -0.14800
H 	H 	0.78223 0.68287 0.56917 0.09000
C 	C 	0.83460 0.77087 0.59462 0.05100
H 	H 	0.87363 0.77457 0.58727 0.03300
C 	C 	0.68452 0.57685 0.62353 -0.13600
H 	H 	0.69653 0.60197 0.65117 0.08600
O 	O 	0.88658 0.92549 0.64333 -0.17800
C 	C 	0.68497 0.52089 0.62375 0.03400
H 	H 	0.69773 0.50837 0.65137 0.05500
O 	O 	0.68922 0.41068 0.61901 -0.16200
O 	O 	0.77928 0.38950 0.94907 -0.18400
C 	C 	0.84590 0.34515 0.94928 -0.09400
C 	C 	0.95762 0.34652 0.92846 0.14500
C 	C 	0.78566 0.34297 0.95877 0.28800
C 	C 	0.90888 0.29573 0.95222 -0.15000
H 	H 	0.91370 0.26170 0.96170 0.09100
C 	C 	0.85359 0.29531 0.96192 0.05300
H 	H 	0.82070 0.26040 0.97740 0.03300
C 	C 	0.95067 0.39740 0.91742 -0.15100
H 	H 	0.98380 0.43270 0.90250 0.09200
C 	C 	0.89580 0.39707 0.92795 0.05300
H 	H 	0.89210 0.43240 0.92060 0.03200
C 	C 	0.08982 0.44101 0.95686 -0.13600
H 	H 	0.06470 0.42790 0.98450 0.08500
O 	O 	0.74118 0.29443 0.97666 -0.18000
C 	C 	0.14578 0.49742 0.95708 0.03400
H 	H 	0.15830 0.52270 0.98470 0.05400
O 	O 	0.25599 0.61188 0.95234 -0.16200
O 	O 	0.44595 0.72283 0.28240 -0.18400
C 	C 	0.51257 0.67848 0.28261 -0.09300
C 	C 	0.62429 0.67985 0.26179 0.14000
C 	C 	0.45233 0.67630 0.29210 0.28700
C 	C 	0.57555 0.62906 0.28555 -0.14800
H 	H 	0.58037 0.59503 0.29503 0.08900
C 	C 	0.52026 0.62864 0.29525 0.05200
H 	H 	0.48737 0.59373 0.31073 0.03400
C 	C 	0.61734 0.73073 0.25075 -0.14900
H 	H 	0.65047 0.76603 0.23583 0.09000
C 	C 	0.56247 0.73040 0.26128 0.05200
H 	H 	0.55877 0.76573 0.25393 0.03200
C 	C 	0.75649 0.77434 0.29019 -0.13600
H 	H 	0.73137 0.76123 0.31783 0.08600
O 	O 	0.40785 0.62776 0.30999 -0.18000
C 	C 	0.81245 0.83075 0.29041 0.03400
H 	H 	0.82497 0.85603 0.31803 0.05500
O 	O 	0.92266 0.94521 0.28567 -0.15900
O 	O 	0.11261 0.05617 0.61574 -0.18500
C 	C 	0.17923 0.01182 0.61595 -0.09600
C 	C 	0.29095 0.01319 0.59513 0.13600
C 	C 	0.11899 0.00964 0.62544 0.28300
C 	C 	0.24221 0.96240 0.61889 -0.14400
H 	H 	0.24703 0.92837 0.62837 0.08900
C 	C 	0.18692 0.96198 0.62859 0.05500
H 	H 	0.15403 0.92707 0.64407 0.03300
C 	C 	0.28400 0.06407 0.58409 -0.14800
H 	H 	0.31713 0.09937 0.56917 0.09000
C 	C 	0.22913 0.06374 0.59462 0.05100
H 	H 	0.22543 0.09907 0.58727 0.03200
C 	C 	0.42315 0.10768 0.62353 -0.13600
H 	H 	0.39803 0.09457 0.65117 0.08600
O 	O 	0.07451 0.96110 0.64333 -0.17800
C 	C 	0.47911 0.16409 0.62375 0.03400
H 	H 	0.49163 0.18937 0.65137 0.05500
O 	O 	0.58932 0.27855 0.61901 -0.16200
O 	O 	0.38978 0.61050 0.55093 -0.18400
C 	C 	0.50075 0.65485 0.55072 -0.09300
C 	C 	0.61110 0.65348 0.57154 0.14000
C 	C 	0.44269 0.65703 0.54123 0.28700
C 	C 	0.61315 0.70427 0.54778 -0.14800
H 	H 	0.65200 0.73830 0.53830 0.09000
C 	C 	0.55828 0.70469 0.53808 0.05200
H 	H 	0.56030 0.73960 0.52260 0.03400
C 	C 	0.55327 0.60260 0.58258 -0.14900
H 	H 	0.55110 0.56730 0.59750 0.09000
C 	C 	0.49873 0.60293 0.57205 0.05200
H 	H 	0.45970 0.56760 0.57940 0.03200
C 	C 	0.64881 0.55899 0.54314 -0.13600
H 	H 	0.63680 0.57210 0.51550 0.08600
O 	O 	0.44675 0.70557 0.52334 -0.18000
C 	C 	0.64836 0.50258 0.54292 0.03400
H 	H 	0.63560 0.47730 0.51530 0.05500
O 	O 	0.64411 0.38812 0.54766 -0.16200
O 	O 	0.05645 0.94383 0.88426 -0.18500
C 	C 	0.16742 0.98818 0.88405 -0.09000
C 	C 	0.27777 0.98681 0.90487 0.14500
C 	C 	0.10936 0.99036 0.87456 0.29100
C 	C 	0.27982 0.03760 0.88111 -0.15300
H 	H 	0.31867 0.07163 0.87163 0.09000
C 	C 	0.22495 0.03802 0.87141 0.04800
H 	H 	0.22697 0.07293 0.85593 0.03400
C 	C 	0.21994 0.93593 0.91591 -0.15000
H 	H 	0.21777 0.90063 0.93083 0.09000
C 	C 	0.16540 0.93626 0.90538 0.05200
H 	H 	0.12637 0.90093 0.91273 0.03200
C 	C 	0.31548 0.89232 0.87647 -0.13600
H 	H 	0.30347 0.90543 0.84883 0.08700
O 	O 	0.11342 0.03890 0.85667 -0.18400
C 	C 	0.31503 0.83591 0.87625 0.03500
H 	H 	0.30227 0.81063 0.84863 0.05500
O 	O 	0.31078 0.72145 0.88099 -0.16200
O 	O 	0.72311 0.27717 0.21760 -0.18500
C 	C 	0.83408 0.32152 0.21739 -0.09400
C 	C 	0.94443 0.32015 0.23821 0.14500
C 	C 	0.77602 0.32370 0.20790 0.28800
C 	C 	0.94648 0.37094 0.21445 -0.15000
H 	H 	0.98533 0.40497 0.20497 0.09200
C 	C 	0.89161 0.37136 0.20475 0.05300
H 	H 	0.89363 0.40627 0.18927 0.03400
C 	C 	0.88660 0.26927 0.24925 -0.15100
H 	H 	0.88443 0.23397 0.26417 0.09100
C 	C 	0.83206 0.26960 0.23872 0.05300
H 	H 	0.79303 0.23427 0.24607 0.03200
C 	C 	0.98214 0.22566 0.20981 -0.13100
H 	H 	0.97013 0.23877 0.18217 0.08600
O 	O 	0.78008 0.37224 0.19001 -0.18000
C 	C 	0.98169 0.16925 0.20959 0.03700
H 	H 	0.96893 0.14397 0.18197 0.05400
O 	O 	0.97744 0.05479 0.21433 -0.15900
O 	O 	0.22072 0.61022 0.55093 -0.18400
C 	C 	0.15410 0.49925 0.55072 -0.09200
C 	C 	0.04238 0.38890 0.57154 0.13600
C 	C 	0.21434 0.55731 0.54123 0.28700
C 	C 	0.09112 0.38685 0.54778 -0.14600
H 	H 	0.08630 0.34800 0.53830 0.08800
C 	C 	0.14641 0.44172 0.53808 0.05000
H 	H 	0.17930 0.43970 0.52260 0.03400
C 	C 	0.04933 0.44673 0.58258 -0.14700
H 	H 	0.01620 0.44890 0.59750 0.08800
C 	C 	0.10420 0.50127 0.57205 0.05000
H 	H 	0.10790 0.54030 0.57940 0.03200
C 	C 	0.91018 0.35119 0.54314 -0.13600
H 	H 	0.93530 0.36320 0.51550 0.08700
O 	O 	0.25882 0.55325 0.52334 -0.18000
C 	C 	0.85422 0.35164 0.54292 0.03500
H 	H 	0.84170 0.36440 0.51530 0.05500
O 	O 	0.74401 0.35589 0.54766 -0.16200
O 	O 	0.88739 0.94355 0.88426 -0.18200
C 	C 	0.82077 0.83258 0.88405 -0.09200
C 	C 	0.70905 0.72223 0.90487 0.14000
C 	C 	0.88101 0.89064 0.87456 0.28700
C 	C 	0.75779 0.72018 0.88111 -0.14800
H 	H 	0.75297 0.68133 0.87163 0.08900
C 	C 	0.81308 0.77505 0.87141 0.05100
H 	H 	0.84597 0.77303 0.85593 0.03500
C 	C 	0.71600 0.78006 0.91591 -0.14800
H 	H 	0.68287 0.78223 0.93083 0.09000
C 	C 	0.77087 0.83460 0.90538 0.05100
H 	H 	0.77457 0.87363 0.91273 0.03300
C 	C 	0.57685 0.68452 0.87647 -0.13600
H 	H 	0.60197 0.69653 0.84883 0.08600
O 	O 	0.92549 0.88658 0.85667 -0.17800
C 	C 	0.52089 0.68497 0.87625 0.03400
H 	H 	0.50837 0.69773 0.84863 0.05500
O 	O 	0.41068 0.68922 0.88099 -0.16200
O 	O 	0.55405 0.27689 0.21760 -0.18400
C 	C 	0.48743 0.16592 0.21739 -0.09300
C 	C 	0.37571 0.05557 0.23821 0.13900
C 	C 	0.54767 0.22398 0.20790 0.28700
C 	C 	0.42445 0.05352 0.21445 -0.14900
H 	H 	0.41963 0.01467 0.20497 0.08800
C 	C 	0.47974 0.10839 0.20475 0.05100
H 	H 	0.51263 0.10637 0.18927 0.03400
C 	C 	0.38266 0.11340 0.24925 -0.14800
H 	H 	0.34953 0.11557 0.26417 0.09000
C 	C 	0.43753 0.16794 0.23872 0.05100
H 	H 	0.44123 0.20697 0.24607 0.03200
C 	C 	0.24351 0.01786 0.20981 -0.13500
H 	H 	0.26863 0.02987 0.18217 0.08500
O 	O 	0.59215 0.21992 0.19001 -0.18000
C 	C 	0.18755 0.01831 0.20959 0.03400
H 	H 	0.17503 0.03107 0.18197 0.05400
O 	O 	0.07734 0.02256 0.21433 -0.16300
O 	O 	0.38950 0.77928 0.55093 -0.18400
C 	C 	0.34515 0.84590 0.55072 -0.09400
C 	C 	0.34652 0.95762 0.57154 0.14500
C 	C 	0.34297 0.78566 0.54123 0.28800
C 	C 	0.29573 0.90888 0.54778 -0.15000
H 	H 	0.26170 0.91370 0.53830 0.09100
C 	C 	0.29531 0.85359 0.53808 0.05300
H 	H 	0.26040 0.82070 0.52260 0.03300
C 	C 	0.39740 0.95067 0.58258 -0.15100
H 	H 	0.43270 0.98380 0.59750 0.09200
C 	C 	0.39707 0.89580 0.57205 0.05300
H 	H 	0.43240 0.89210 0.57940 0.03200
C 	C 	0.44101 0.08982 0.54314 -0.13600
H 	H 	0.42790 0.06470 0.51550 0.08500
O 	O 	0.29443 0.74118 0.52334 -0.18000
C 	C 	0.49742 0.14578 0.54292 0.03400
H 	H 	0.52270 0.15830 0.51530 0.05400
O 	O 	0.61188 0.25599 0.54766 -0.16200
O 	O 	0.05617 0.11261 0.88426 -0.18500
C 	C 	0.01182 0.17923 0.88405 -0.09600
C 	C 	0.01319 0.29095 0.90487 0.13600
C 	C 	0.00964 0.11899 0.87456 0.28300
C 	C 	0.96240 0.24221 0.88111 -0.14400
H 	H 	0.92837 0.24703 0.87163 0.08900
C 	C 	0.96198 0.18692 0.87141 0.05500
H 	H 	0.92707 0.15403 0.85593 0.03300
C 	C 	0.06407 0.28400 0.91591 -0.14800
H 	H 	0.09937 0.31713 0.93083 0.09000
C 	C 	0.06374 0.22913 0.90538 0.05100
H 	H 	0.09907 0.22543 0.91273 0.03200
C 	C 	0.10768 0.42315 0.87647 -0.13600
H 	H 	0.09457 0.39803 0.84883 0.08600
O 	O 	0.96110 0.07451 0.85667 -0.17700
C 	C 	0.16409 0.47911 0.87625 0.03400
H 	H 	0.18937 0.49163 0.84863 0.05500
O 	O 	0.27855 0.58932 0.88099 -0.16200
O 	O 	0.72283 0.44595 0.21760 -0.18400
C 	C 	0.67848 0.51257 0.21739 -0.09300
C 	C 	0.67985 0.62429 0.23821 0.14000
C 	C 	0.67630 0.45233 0.20790 0.28700
C 	C 	0.62906 0.57555 0.21445 -0.14800
H 	H 	0.59503 0.58037 0.20497 0.08900
C 	C 	0.62864 0.52026 0.20475 0.05200
H 	H 	0.59373 0.48737 0.18927 0.03400
C 	C 	0.73073 0.61734 0.24925 -0.14900
H 	H 	0.76603 0.65047 0.26417 0.09000
C 	C 	0.73040 0.56247 0.23872 0.05200
H 	H 	0.76573 0.55877 0.24607 0.03200
C 	C 	0.77434 0.75649 0.20981 -0.13600
H 	H 	0.76123 0.73137 0.18217 0.08600
O 	O 	0.62776 0.40785 0.19001 -0.18000
C 	C 	0.83075 0.81245 0.20959 0.03400
H 	H 	0.85603 0.82497 0.18197 0.05500
O 	O 	0.94521 0.92266 0.21433 -0.15900
O 	O 	0.38950 0.61022 0.05093 -0.18400
C 	C 	0.34515 0.49925 0.05072 -0.09300
C 	C 	0.34652 0.38890 0.07154 0.14000
C 	C 	0.34297 0.55731 0.04123 0.28700
C 	C 	0.29573 0.38685 0.04778 -0.14800
H 	H 	0.26170 0.34800 0.03830 0.08900
C 	C 	0.29531 0.44172 0.03808 0.05100
H 	H 	0.26040 0.43970 0.02260 0.03400
C 	C 	0.39740 0.44673 0.08258 -0.14900
H 	H 	0.43270 0.44890 0.09750 0.09000
C 	C 	0.39707 0.50127 0.07205 0.05200
H 	H 	0.43240 0.54030 0.07940 0.03200
C 	C 	0.44101 0.35119 0.04314 -0.13600
H 	H 	0.42790 0.36320 0.01550 0.08600
O 	O 	0.29443 0.55325 0.02334 -0.18000
C 	C 	0.49742 0.35164 0.04292 0.03400
H 	H 	0.52270 0.36440 0.01530 0.05500
O 	O 	0.61188 0.35589 0.04766 -0.16200
O 	O 	0.05617 0.94355 0.38426 -0.18200
C 	C 	0.01182 0.83258 0.38405 -0.09600
C 	C 	0.01319 0.72223 0.40487 0.13600
C 	C 	0.00964 0.89064 0.37456 0.28300
C 	C 	0.96240 0.72018 0.38111 -0.14400
H 	H 	0.92837 0.68133 0.37163 0.08900
C 	C 	0.96198 0.77505 0.37141 0.05500
H 	H 	0.92707 0.77303 0.35593 0.03400
C 	C 	0.06407 0.78006 0.41591 -0.14700
H 	H 	0.09937 0.78223 0.43083 0.09000
C 	C 	0.06374 0.83460 0.40538 0.05100
H 	H 	0.09907 0.87363 0.41273 0.03300
C 	C 	0.10768 0.68452 0.37647 -0.13600
H 	H 	0.09457 0.69653 0.34883 0.08600
O 	O 	0.96110 0.88658 0.35667 -0.17600
C 	C 	0.16409 0.68497 0.37625 0.03400
H 	H 	0.18937 0.69773 0.34863 0.05500
O 	O 	0.27855 0.68922 0.38099 -0.16200
O 	O 	0.72283 0.27689 0.71760 -0.18400
C 	C 	0.67848 0.16592 0.71739 -0.09300
C 	C 	0.67985 0.05557 0.73821 0.14000
C 	C 	0.67630 0.22398 0.70790 0.28700
C 	C 	0.62906 0.05352 0.71445 -0.14900
H 	H 	0.59503 0.01467 0.70497 0.08800
C 	C 	0.62864 0.10839 0.70475 0.05100
H 	H 	0.59373 0.10637 0.68927 0.03400
C 	C 	0.73073 0.11340 0.74925 -0.14800
H 	H 	0.76603 0.11557 0.76417 0.09000
C 	C 	0.73040 0.16794 0.73872 0.05100
H 	H 	0.76573 0.20697 0.74607 0.03200
C 	C 	0.77434 0.01786 0.70981 -0.13500
H 	H 	0.76123 0.02987 0.68217 0.08500
O 	O 	0.62776 0.21992 0.69001 -0.18000
C 	C 	0.83075 0.01831 0.70959 0.03300
H 	H 	0.85603 0.03107 0.68197 0.05500
O 	O 	0.94521 0.02256 0.71433 -0.16000
O 	O 	0.38978 0.77928 0.05093 -0.18400
C 	C 	0.50075 0.84590 0.05072 -0.09400
C 	C 	0.61110 0.95762 0.07154 0.14500
C 	C 	0.44269 0.78566 0.04123 0.28800
C 	C 	0.61315 0.90888 0.04778 -0.15000
H 	H 	0.65200 0.91370 0.03830 0.09100
C 	C 	0.55828 0.85359 0.03808 0.05300
H 	H 	0.56030 0.82070 0.02260 0.03400
C 	C 	0.55327 0.95067 0.08258 -0.15100
H 	H 	0.55110 0.98380 0.09750 0.09200
C 	C 	0.49873 0.89580 0.07205 0.05300
H 	H 	0.45970 0.89210 0.07940 0.03200
C 	C 	0.64881 0.08982 0.04314 -0.13600
H 	H 	0.63680 0.06470 0.01550 0.08500
O 	O 	0.44675 0.74118 0.02334 -0.18000
C 	C 	0.64836 0.14578 0.04292 0.03400
H 	H 	0.63560 0.15830 0.01530 0.05400
O 	O 	0.64411 0.25599 0.04766 -0.16200
O 	O 	0.05645 0.11261 0.38426 -0.18600
C 	C 	0.16742 0.17923 0.38405 -0.09400
C 	C 	0.27777 0.29095 0.40487 0.14100
C 	C 	0.10936 0.11899 0.37456 0.28800
C 	C 	0.27982 0.24221 0.38111 -0.14900
H 	H 	0.31867 0.24703 0.37163 0.08900
C 	C 	0.22495 0.18692 0.37141 0.05200
H 	H 	0.22697 0.15403 0.35593 0.03300
C 	C 	0.21994 0.28400 0.41591 -0.14900
H 	H 	0.21777 0.31713 0.43083 0.09000
C 	C 	0.16540 0.22913 0.40538 0.05200
H 	H 	0.12637 0.22543 0.41273 0.03200
C 	C 	0.31548 0.42315 0.37647 -0.13600
H 	H 	0.30347 0.39803 0.34883 0.08600
O 	O 	0.11342 0.07451 0.35667 -0.18200
C 	C 	0.31503 0.47911 0.37625 0.03400
H 	H 	0.30227 0.49163 0.34863 0.05500
O 	O 	0.31078 0.58932 0.38099 -0.16200
O 	O 	0.72311 0.44595 0.71760 -0.18400
C 	C 	0.83408 0.51257 0.71739 -0.09400
C 	C 	0.94443 0.62429 0.73821 0.14500
C 	C 	0.77602 0.45233 0.70790 0.28800
C 	C 	0.94648 0.57555 0.71445 -0.15000
H 	H 	0.98533 0.58037 0.70497 0.09200
C 	C 	0.89161 0.52026 0.70475 0.05300
H 	H 	0.89363 0.48737 0.68927 0.03400
C 	C 	0.88660 0.61734 0.74925 -0.15100
H 	H 	0.88443 0.65047 0.76417 0.09200
C 	C 	0.83206 0.56247 0.73872 0.05300
H 	H 	0.79303 0.55877 0.74607 0.03200
C 	C 	0.98214 0.75649 0.70981 -0.13100
H 	H 	0.97013 0.73137 0.68217 0.08600
O 	O 	0.78008 0.40785 0.69001 -0.18000
C 	C 	0.98169 0.81245 0.70959 0.03700
H 	H 	0.96893 0.82497 0.68197 0.05400
O 	O 	0.97744 0.92266 0.71433 -0.15600
O 	O 	0.22072 0.61050 0.05093 -0.18400
C 	C 	0.15410 0.65485 0.05072 -0.09200
C 	C 	0.04238 0.65348 0.07154 0.13600
C 	C 	0.21434 0.65703 0.04123 0.28700
C 	C 	0.09112 0.70427 0.04778 -0.14600
H 	H 	0.08630 0.73830 0.03830 0.08800
C 	C 	0.14641 0.70469 0.03808 0.05000
H 	H 	0.17930 0.73960 0.02260 0.03500
C 	C 	0.04933 0.60260 0.08258 -0.14700
H 	H 	0.01620 0.56730 0.09750 0.08800
C 	C 	0.10420 0.60293 0.07205 0.05000
H 	H 	0.10790 0.56760 0.07940 0.03200
C 	C 	0.91018 0.55899 0.04314 -0.13600
H 	H 	0.93530 0.57210 0.01550 0.08700
O 	O 	0.25882 0.70557 0.02334 -0.18000
C 	C 	0.85422 0.50258 0.04292 0.03500
H 	H 	0.84170 0.47730 0.01530 0.05500
O 	O 	0.74401 0.38812 0.04766 -0.16200
O 	O 	0.88739 0.94383 0.38426 -0.18300
C 	C 	0.82077 0.98818 0.38405 -0.08900
C 	C 	0.70905 0.98681 0.40487 0.14500
C 	C 	0.88101 0.99036 0.37456 0.29100
C 	C 	0.75779 0.03760 0.38111 -0.15300
H 	H 	0.75297 0.07163 0.37163 0.09000
C 	C 	0.81308 0.03802 0.37141 0.04800
H 	H 	0.84597 0.07293 0.35593 0.03500
C 	C 	0.71600 0.93593 0.41591 -0.14900
H 	H 	0.68287 0.90063 0.43083 0.09000
C 	C 	0.77087 0.93626 0.40538 0.05200
H 	H 	0.77457 0.90093 0.41273 0.03200
C 	C 	0.57685 0.89232 0.37647 -0.13600
H 	H 	0.60197 0.90543 0.34883 0.08700
O 	O 	0.92549 0.03890 0.35667 -0.18200
C 	C 	0.52089 0.83591 0.37625 0.03500
H 	H 	0.50837 0.81063 0.34863 0.05500
O 	O 	0.41068 0.72145 0.38099 -0.16200
O 	O 	0.55405 0.27717 0.71760 -0.18400
C 	C 	0.48743 0.32152 0.71739 -0.09300
C 	C 	0.37571 0.32015 0.73821 0.14000
C 	C 	0.54767 0.32370 0.70790 0.28700
C 	C 	0.42445 0.37094 0.71445 -0.14800
H 	H 	0.41963 0.40497 0.70497 0.08900
C 	C 	0.47974 0.37136 0.70475 0.05200
H 	H 	0.51263 0.40627 0.68927 0.03400
C 	C 	0.38266 0.26927 0.74925 -0.14900
H 	H 	0.34953 0.23397 0.76417 0.09000
C 	C 	0.43753 0.26960 0.73872 0.05200
H 	H 	0.44123 0.23427 0.74607 0.03200
C 	C 	0.24351 0.22566 0.70981 -0.13700
H 	H 	0.26863 0.23877 0.68217 0.08600
O 	O 	0.59215 0.37224 0.69001 -0.18000
C 	C 	0.18755 0.16925 0.70959 0.03400
H 	H 	0.17503 0.14397 0.68197 0.05400
O 	O 	0.07734 0.05479 0.71433 -0.16400
O 	O 	0.61022 0.38950 0.44907 -0.18400
C 	C 	0.49925 0.34515 0.44928 -0.09300
C 	C 	0.38890 0.34652 0.42846 0.14000
C 	C 	0.55731 0.34297 0.45877 0.28700
C 	C 	0.38685 0.29573 0.45222 -0.14800
H 	H 	0.34800 0.26170 0.46170 0.08900
C 	C 	0.44172 0.29531 0.46192 0.05100
H 	H 	0.43970 0.26040 0.47740 0.03400
C 	C 	0.44673 0.39740 0.41742 -0.14900
H 	H 	0.44890 0.43270 0.40250 0.09000
C 	C 	0.50127 0.39707 0.42795 0.05200
H 	H 	0.54030 0.43240 0.42060 0.03200
C 	C 	0.35119 0.44101 0.45686 -0.13600
H 	H 	0.36320 0.42790 0.48450 0.08600
O 	O 	0.55325 0.29443 0.47666 -0.18000
C 	C 	0.35164 0.49742 0.45708 0.03400
H 	H 	0.36440 0.52270 0.48470 0.05500
O 	O 	0.35589 0.61188 0.45234 -0.16200
O 	O 	0.27689 0.72283 0.78240 -0.18400
C 	C 	0.16592 0.67848 0.78261 -0.09300
C 	C 	0.05557 0.67985 0.76179 0.13900
C 	C 	0.22398 0.67630 0.79210 0.28700
C 	C 	0.05352 0.62906 0.78555 -0.14900
H 	H 	0.01467 0.59503 0.79503 0.08800
C 	C 	0.10839 0.62864 0.79525 0.05100
H 	H 	0.10637 0.59373 0.81073 0.03400
C 	C 	0.11340 0.73073 0.75075 -0.14800
H 	H 	0.11557 0.76603 0.73583 0.09000
C 	C 	0.16794 0.73040 0.76128 0.05100
H 	H 	0.20697 0.76573 0.75393 0.03200
C 	C 	0.01786 0.77434 0.79019 -0.13500
H 	H 	0.02987 0.76123 0.81783 0.08500
O 	O 	0.21992 0.62776 0.80999 -0.18000
C 	C 	0.01831 0.83075 0.79041 0.03300
H 	H 	0.03107 0.85603 0.81803 0.05400
O 	O 	0.02256 0.94521 0.78567 -0.16000
O 	O 	0.94355 0.05617 0.11574 -0.18200
C 	C 	0.83258 0.01182 0.11595 -0.09600
C 	C 	0.72223 0.01319 0.09513 0.13500
C 	C 	0.89064 0.00964 0.12544 0.28300
C 	C 	0.72018 0.96240 0.11889 -0.14400
H 	H 	0.68133 0.92837 0.12837 0.08900
C 	C 	0.77505 0.96198 0.12859 0.05500
H 	H 	0.77303 0.92707 0.14407 0.03400
C 	C 	0.78006 0.06407 0.08409 -0.14700
H 	H 	0.78223 0.09937 0.06917 0.09000
C 	C 	0.83460 0.06374 0.09462 0.05100
H 	H 	0.87363 0.09907 0.08727 0.03300
C 	C 	0.68452 0.10768 0.12353 -0.13600
H 	H 	0.69653 0.09457 0.15117 0.08600
O 	O 	0.88658 0.96110 0.14333 -0.17500
C 	C 	0.68497 0.16409 0.12375 0.03400
H 	H 	0.69773 0.18937 0.15137 0.05500
O 	O 	0.68922 0.27855 0.11901 -0.16200
O 	O 	0.77928 0.38978 0.44907 -0.18400
C 	C 	0.84590 0.50075 0.44928 -0.09400
C 	C 	0.95762 0.61110 0.42846 0.14500
C 	C 	0.78566 0.44269 0.45877 0.28800
C 	C 	0.90888 0.61315 0.45222 -0.15000
H 	H 	0.91370 0.65200 0.46170 0.09100
C 	C 	0.85359 0.55828 0.46192 0.05300
H 	H 	0.82070 0.56030 0.47740 0.03400
C 	C 	0.95067 0.55327 0.41742 -0.15100
H 	H 	0.98380 0.55110 0.40250 0.09200
C 	C 	0.89580 0.49873 0.42795 0.05300
H 	H 	0.89210 0.45970 0.42060 0.03200
C 	C 	0.08982 0.64881 0.45686 -0.13600
H 	H 	0.06470 0.63680 0.48450 0.08500
O 	O 	0.74118 0.44675 0.47666 -0.18000
C 	C 	0.14578 0.64836 0.45708 0.03400
H 	H 	0.15830 0.63560 0.48470 0.05500
O 	O 	0.25599 0.64411 0.45234 -0.16200
O 	O 	0.44595 0.72311 0.78240 -0.18400
C 	C 	0.51257 0.83408 0.78261 -0.09400
C 	C 	0.62429 0.94443 0.76179 0.14500
C 	C 	0.45233 0.77602 0.79210 0.28800
C 	C 	0.57555 0.94648 0.78555 -0.15000
H 	H 	0.58037 0.98533 0.79503 0.09200
C 	C 	0.52026 0.89161 0.79525 0.05300
H 	H 	0.48737 0.89363 0.81073 0.03400
C 	C 	0.61734 0.88660 0.75075 -0.15100
H 	H 	0.65047 0.88443 0.73583 0.09200
C 	C 	0.56247 0.83206 0.76128 0.05300
H 	H 	0.55877 0.79303 0.75393 0.03200
C 	C 	0.75649 0.98214 0.79019 -0.13100
H 	H 	0.73137 0.97013 0.81783 0.08600
O 	O 	0.40785 0.78008 0.80999 -0.18000
C 	C 	0.81245 0.98169 0.79041 0.03700
H 	H 	0.82497 0.96893 0.81803 0.05400
O 	O 	0.92266 0.97744 0.78567 -0.15600
O 	O 	0.11261 0.05645 0.11574 -0.18600
C 	C 	0.17923 0.16742 0.11595 -0.09400
C 	C 	0.29095 0.27777 0.09513 0.14100
C 	C 	0.11899 0.10936 0.12544 0.28800
C 	C 	0.24221 0.27982 0.11889 -0.14900
H 	H 	0.24703 0.31867 0.12837 0.08900
C 	C 	0.18692 0.22495 0.12859 0.05200
H 	H 	0.15403 0.22697 0.14407 0.03300
C 	C 	0.28400 0.21994 0.08409 -0.14900
H 	H 	0.31713 0.21777 0.06917 0.09000
C 	C 	0.22913 0.16540 0.09462 0.05200
H 	H 	0.22543 0.12637 0.08727 0.03200
C 	C 	0.42315 0.31548 0.12353 -0.13600
H 	H 	0.39803 0.30347 0.15117 0.08600
O 	O 	0.07451 0.11342 0.14333 -0.18200
C 	C 	0.47911 0.31503 0.12375 0.03400
H 	H 	0.49163 0.30227 0.15137 0.05500
O 	O 	0.58932 0.31078 0.11901 -0.16200
O 	O 	0.61050 0.22072 0.44907 -0.18400
C 	C 	0.65485 0.15410 0.44928 -0.09200
C 	C 	0.65348 0.04238 0.42846 0.13600
C 	C 	0.65703 0.21434 0.45877 0.28700
C 	C 	0.70427 0.09112 0.45222 -0.14600
H 	H 	0.73830 0.08630 0.46170 0.08800
C 	C 	0.70469 0.14641 0.46192 0.05000
H 	H 	0.73960 0.17930 0.47740 0.03400
C 	C 	0.60260 0.04933 0.41742 -0.14700
H 	H 	0.56730 0.01620 0.40250 0.08800
C 	C 	0.60293 0.10420 0.42795 0.05000
H 	H 	0.56760 0.10790 0.42060 0.03200
C 	C 	0.55899 0.91018 0.45686 -0.13600
H 	H 	0.57210 0.93530 0.48450 0.08700
O 	O 	0.70557 0.25882 0.47666 -0.18000
C 	C 	0.50258 0.85422 0.45708 0.03500
H 	H 	0.47730 0.84170 0.48470 0.05500
O 	O 	0.38812 0.74401 0.45234 -0.16200
O 	O 	0.27717 0.55405 0.78240 -0.18400
C 	C 	0.32152 0.48743 0.78261 -0.09300
C 	C 	0.32015 0.37571 0.76179 0.14000
C 	C 	0.32370 0.54767 0.79210 0.28700
C 	C 	0.37094 0.42445 0.78555 -0.14800
H 	H 	0.40497 0.41963 0.79503 0.08900
C 	C 	0.37136 0.47974 0.79525 0.05200
H 	H 	0.40627 0.51263 0.81073 0.03400
C 	C 	0.26927 0.38266 0.75075 -0.14900
H 	H 	0.23397 0.34953 0.73583 0.09000
C 	C 	0.26960 0.43753 0.76128 0.05200
H 	H 	0.23427 0.44123 0.75393 0.03200
C 	C 	0.22566 0.24351 0.79019 -0.13700
H 	H 	0.23877 0.26863 0.81783 0.08600
O 	O 	0.37224 0.59215 0.80999 -0.18000
C 	C 	0.16925 0.18755 0.79041 0.03400
H 	H 	0.14397 0.17503 0.81803 0.05400
O 	O 	0.05479 0.07734 0.78567 -0.16400
O 	O 	0.94383 0.88739 0.11574 -0.18300
C 	C 	0.98818 0.82077 0.11595 -0.08900
C 	C 	0.98681 0.70905 0.09513 0.14500
C 	C 	0.99036 0.88101 0.12544 0.29100
C 	C 	0.03760 0.75779 0.11889 -0.15200
H 	H 	0.07163 0.75297 0.12837 0.09000
C 	C 	0.03802 0.81308 0.12859 0.04800
H 	H 	0.07293 0.84597 0.14407 0.03500
C 	C 	0.93593 0.71600 0.08409 -0.14900
H 	H 	0.90063 0.68287 0.06917 0.09000
C 	C 	0.93626 0.77087 0.09462 0.05200
H 	H 	0.90093 0.77457 0.08727 0.03200
C 	C 	0.89232 0.57685 0.12353 -0.13600
H 	H 	0.90543 0.60197 0.15117 0.08700
O 	O 	0.03890 0.92549 0.14333 -0.18200
C 	C 	0.83591 0.52089 0.12375 0.03500
H 	H 	0.81063 0.50837 0.15137 0.05500
O 	O 	0.72145 0.41068 0.11901 -0.16200
Th	Th	0.66667 0.33333 0.98777 0.04100
Th	Th	0.33333 0.66667 0.32110 0.04100
Th	Th	-0.00000 0.00000 0.65444 0.03600
Th	Th	0.33333 0.66667 0.51223 0.04100
Th	Th	0.00000 0.00000 0.84556 0.03600
Th	Th	0.66667 0.33333 0.17890 0.04100
Th	Th	0.33333 0.66667 0.01223 0.04100
Th	Th	-0.00000 0.00000 0.34556 0.03600
Th	Th	0.66667 0.33333 0.67890 0.04100
Th	Th	0.66667 0.33333 0.48777 0.04100
Th	Th	0.33333 0.66667 0.82110 0.04100
Th	Th	0.00000 0.00000 0.15444 0.03600
N 	N 	0.65386 0.66667 0.91667 -0.17200
C 	C 	0.59618 0.66667 0.91667 0.13000
C 	C 	0.48316 0.66667 0.91667 -0.06900
C 	C 	0.42286 0.66667 0.91667 0.28700
N 	N 	0.32053 0.00000 0.25000 -0.17400
C 	C 	0.26285 0.00000 0.25000 0.12500
C 	C 	0.14983 0.00000 0.25000 -0.07200
C 	C 	0.08953 0.00000 0.25000 0.28200
N 	N 	0.33333 0.98720 0.91667 -0.17100
C 	C 	0.33333 0.92952 0.91667 0.13100
C 	C 	0.33333 0.81650 0.91667 -0.06900
C 	C 	0.33333 0.75620 0.91667 0.28700
N 	N 	-0.00000 0.32053 0.25000 -0.17400
C 	C 	0.00000 0.26285 0.25000 0.12500
C 	C 	-0.00000 0.14983 0.25000 -0.07200
C 	C 	0.00000 0.08953 0.25000 0.28200
N 	N 	0.01280 0.34614 0.91667 -0.17400
C 	C 	0.07048 0.40382 0.91667 0.12900
C 	C 	0.18350 0.51684 0.91667 -0.06900
C 	C 	0.24380 0.57714 0.91667 0.28600
N 	N 	0.67947 0.67947 0.25000 -0.17200
C 	C 	0.73715 0.73715 0.25000 0.13000
C 	C 	0.85017 0.85017 0.25000 -0.06800
C 	C 	0.91047 0.91047 0.25000 0.28600
N 	N 	0.66667 0.65386 0.58333 -0.17200
C 	C 	0.66667 0.59618 0.58333 0.13000
C 	C 	0.66667 0.48316 0.58333 -0.06900
C 	C 	0.66667 0.42286 0.58333 0.28700
N 	N 	0.98720 0.33333 0.58333 -0.17100
C 	C 	0.92952 0.33333 0.58333 0.13100
C 	C 	0.81650 0.33333 0.58333 -0.06900
C 	C 	0.75620 0.33333 0.58333 0.28700
N 	N 	0.34614 0.01280 0.58333 -0.17400
C 	C 	0.40382 0.07048 0.58333 0.12900
C 	C 	0.51684 0.18350 0.58333 -0.06900
C 	C 	0.57714 0.24380 0.58333 0.28600
N 	N 	0.34614 0.33333 0.08333 -0.17200
C 	C 	0.40382 0.33333 0.08333 0.13000
C 	C 	0.51684 0.33333 0.08333 -0.06900
C 	C 	0.57714 0.33333 0.08333 0.28700
N 	N 	0.66667 0.01280 0.08333 -0.17400
C 	C 	0.66667 0.07048 0.08333 0.12900
C 	C 	0.66667 0.18350 0.08333 -0.06900
C 	C 	0.66667 0.24380 0.08333 0.28600
N 	N 	0.98720 0.65386 0.08333 -0.17100
C 	C 	0.92952 0.59618 0.08333 0.13100
C 	C 	0.81650 0.48316 0.08333 -0.06900
C 	C 	0.75620 0.42286 0.08333 0.28700
N 	N 	0.33333 0.34614 0.41667 -0.17200
C 	C 	0.33333 0.40382 0.41667 0.13000
C 	C 	0.33333 0.51684 0.41667 -0.06900
C 	C 	0.33333 0.57714 0.41667 0.28700
N 	N 	0.00000 0.67947 0.75000 -0.17400
C 	C 	0.00000 0.73715 0.75000 0.12500
C 	C 	0.00000 0.85017 0.75000 -0.07100
C 	C 	0.00000 0.91047 0.75000 0.28200
N 	N 	0.01280 0.66667 0.41667 -0.17400
C 	C 	0.07048 0.66667 0.41667 0.12900
C 	C 	0.18350 0.66667 0.41667 -0.06900
C 	C 	0.24380 0.66667 0.41667 0.28600
N 	N 	0.67947 0.00000 0.75000 -0.17400
C 	C 	0.73715 0.00000 0.75000 0.12500
C 	C 	0.85017 0.00000 0.75000 -0.07100
C 	C 	0.91047 0.00000 0.75000 0.28200
N 	N 	0.65386 0.98720 0.41667 -0.17100
C 	C 	0.59618 0.92952 0.41667 0.13100
C 	C 	0.48316 0.81650 0.41667 -0.06900
C 	C 	0.42286 0.75620 0.41667 0.28700
N 	N 	0.32053 0.32053 0.75000 -0.17200
C 	C 	0.26285 0.26285 0.75000 0.13000
C 	C 	0.14983 0.14983 0.75000 -0.06900
C 	C 	0.08953 0.08953 0.75000 0.28700
