data_crystal

_cell_length_a 36.45510
_cell_length_b 18.11560
_cell_length_c 14.15880
_cell_angle_alpha 90.00000
_cell_angle_beta  93.81650
_cell_angle_gamma 90.00000

_symmetry_space_group_name_	'P 1'
_symmetry_space_group_name_H-M	'P 1'

loop_
_symmetry_equiv_pos_as_xyz
  x,y,z

loop_
_atom_site_label
_atom_site_type_symbol
_atom_site_fract_x
_atom_site_fract_y
_atom_site_fract_z
_atom_site_charge
Zn	Zn	0.20871 0.89220 0.06614 1.20800
Zn	Zn	0.31649 0.34436 0.19901 1.17300
Zn	Zn	0.31873 0.67670 0.23120 0.59000
O 	O 	0.24320 0.89613 0.96860 -0.46000
F 	F 	0.50938 0.09370 0.86700 -0.35500
N 	N 	0.31415 0.56897 0.25870 -0.29000
C 	C 	0.29964 0.53970 0.33480 0.11100
H 	H 	0.29110 0.56760 0.38380 -0.01200
N 	N 	0.31415 0.44752 0.25000 -0.26000
N 	N 	0.29886 0.46744 0.33300 -0.24700
F 	F 	0.55042 0.07570 0.02810 -0.36300
C 	C 	0.32297 0.50910 0.20850 0.11100
H 	H 	0.33400 0.51110 0.15120 -0.03300
C 	C 	0.31548 0.89720 0.56890 -0.31100
H 	H 	0.29580 0.91510 0.60080 0.15500
C 	C 	0.31022 0.83800 0.50810 0.18100
H 	H 	0.28750 0.81460 0.50170 -0.03600
C 	C 	0.42830 0.22810 0.15660 0.21800
H 	H 	0.41590 0.20940 0.20660 0.04000
C 	C 	0.64517 0.32970 0.97080 0.53500
C 	C 	0.35011 0.93070 0.58330 0.38800
C 	C 	0.59229 0.25750 0.89700 0.33400
H 	H 	0.60400 0.25700 0.84050 -0.02900
C 	C 	0.47736 0.21770 0.05120 0.39800
C 	C 	0.60779 0.29570 0.97300 -0.31200
C 	C 	0.37818 0.90600 0.52920 -0.29500
H 	H 	0.40110 0.92860 0.53620 0.28900
C 	C 	0.33891 0.81280 0.45620 -0.19800
C 	C 	0.38189 0.32920 0.14130 0.37000
O 	O 	0.37206 0.39020 0.10800 -0.35400
C 	C 	0.54118 0.22180 0.98630 0.45300
C 	C 	0.45812 0.18980 0.12500 -0.32800
H 	H 	0.46530 0.14520 0.15340 0.29400
C 	C 	0.50727 0.17360 0.00310 -0.54000
C 	C 	0.37245 0.84830 0.46480 0.21400
H 	H 	0.39120 0.83370 0.42750 0.06000
C 	C 	0.58943 0.29880 0.05710 0.29500
H 	H 	0.59970 0.32470 0.10910 -0.05100
C 	C 	0.41678 0.29360 0.11490 -0.22100
C 	C 	0.46668 0.28600 0.01280 -0.32700
H 	H 	0.48010 0.30690 0.96580 0.18300
C 	C 	0.43655 0.32290 0.04370 0.21200
H 	H 	0.42950 0.36780 0.01660 -0.02300
C 	C 	0.55938 0.21950 0.90320 -0.36900
H 	H 	0.54950 0.19250 0.85150 0.30700
O 	O 	0.36189 0.29197 0.19440 -0.47600
N 	N 	0.27800 0.28921 0.26850 -0.25800
O 	O 	0.65768 0.36210 0.04420 -0.53500
O 	O 	0.66302 0.32298 0.90030 -0.54400
N 	N 	0.22640 0.22915 0.29340 -0.26000
F 	F 	0.40265 0.92877 0.73970 -0.46800
F 	F 	0.31564 0.07555 0.56332 -0.54500
F 	F 	0.49631 0.05488 0.07220 -0.36400
F 	F 	0.42063 0.01525 0.65110 -0.38500
C 	C 	0.32315 0.92200 0.77610 -0.34200
H 	H 	0.33750 0.88220 0.75980 0.20200
O 	O 	0.30900 0.70085 0.40814 -0.35500
C 	C 	0.27628 0.97200 0.86910 -0.23600
C 	C 	0.29796 0.91280 0.84330 0.25500
H 	H 	0.29540 0.86700 0.87170 -0.00900
C 	C 	0.52128 0.10790 0.06360 0.97900
F 	F 	0.37089 0.06831 0.52250 -0.44400
F 	F 	0.53219 0.12888 0.15160 -0.45500
O 	O 	0.23177 0.01546 0.97200 -0.35800
C 	C 	0.25264 0.24300 0.23320 0.10400
H 	H 	0.25290 0.22230 0.17310 -0.03100
C 	C 	0.35539 0.99500 0.65480 -0.52600
N 	N 	0.26752 0.30841 0.35750 -0.23700
C 	C 	0.39422 0.99510 0.70660 0.99600
C 	C 	0.30681 0.04920 0.76050 -0.35700
H 	H 	0.31010 0.09550 0.73390 0.22100
C 	C 	0.33211 0.74940 0.38940 0.35200
C 	C 	0.55626 0.26300 0.06220 -0.37400
H 	H 	0.54380 0.26650 0.11720 0.20200
C 	C 	0.35036 0.06720 0.59600 0.99100
C 	C 	0.24859 0.96210 0.94030 0.40000
C 	C 	0.32747 0.99010 0.73210 0.42000
F 	F 	0.48058 0.19666 0.84734 -0.48200
F 	F 	0.35925 0.12750 0.64820 -0.48700
F 	F 	0.45695 0.10866 0.92440 -0.40600
F 	F 	0.39580 0.04140 0.77960 -0.41400
C 	C 	0.28143 0.04030 0.82780 0.24900
H 	H 	0.26760 0.08060 0.84550 -0.06900
C 	C 	0.23674 0.27110 0.36870 0.12300
H 	H 	0.22370 0.27370 0.42300 0.00600
O 	O 	0.34874 0.74795 0.31420 -0.40800
C 	C 	0.48874 0.14280 0.90990 0.97600
Zn	Zn	0.32721 0.67250 0.23120 0.63700
Zn	Zn	0.70871 0.39220 0.06614 1.20800
Zn	Zn	0.81649 0.84436 0.19901 1.17400
Zn	Zn	0.81873 0.17670 0.23120 0.59100
O 	O 	0.74320 0.39613 0.96860 -0.45800
F 	F 	0.00938 0.59370 0.86700 -0.35500
N 	N 	0.81415 0.06897 0.25870 -0.29000
C 	C 	0.79964 0.03970 0.33480 0.11000
H 	H 	0.79110 0.06760 0.38380 -0.01100
N 	N 	0.81415 0.94752 0.25000 -0.25900
N 	N 	0.79886 0.96744 0.33300 -0.24600
F 	F 	0.05042 0.57570 0.02810 -0.36100
C 	C 	0.82297 0.00910 0.20850 0.10900
H 	H 	0.83400 0.01110 0.15120 -0.03400
C 	C 	0.81548 0.39720 0.56890 -0.31100
H 	H 	0.79580 0.41510 0.60080 0.15500
C 	C 	0.81022 0.33800 0.50810 0.18100
H 	H 	0.78750 0.31460 0.50170 -0.03600
C 	C 	0.92830 0.72810 0.15660 0.21300
H 	H 	0.91590 0.70940 0.20660 0.04200
C 	C 	0.14517 0.82970 0.97080 0.53100
C 	C 	0.85011 0.43070 0.58330 0.38800
C 	C 	0.09229 0.75750 0.89700 0.33000
H 	H 	0.10400 0.75700 0.84050 -0.02800
C 	C 	0.97736 0.71770 0.05120 0.39100
C 	C 	0.10779 0.79570 0.97300 -0.31200
C 	C 	0.87818 0.40600 0.52920 -0.29600
H 	H 	0.90110 0.42860 0.53620 0.28900
C 	C 	0.83891 0.31280 0.45620 -0.19800
C 	C 	0.88189 0.82920 0.14130 0.36800
O 	O 	0.87206 0.89020 0.10800 -0.35200
C 	C 	0.04118 0.72180 0.98630 0.44200
C 	C 	0.95812 0.68980 0.12500 -0.32200
H 	H 	0.96530 0.64520 0.15340 0.29300
C 	C 	0.00727 0.67360 0.00310 -0.53100
C 	C 	0.87245 0.34830 0.46480 0.21400
H 	H 	0.89120 0.33370 0.42750 0.06000
C 	C 	0.08943 0.79880 0.05710 0.29400
H 	H 	0.09970 0.82470 0.10910 -0.05000
C 	C 	0.91678 0.79360 0.11490 -0.21600
C 	C 	0.96668 0.78600 0.01280 -0.31400
H 	H 	0.98010 0.80690 0.96580 0.17600
C 	C 	0.93655 0.82290 0.04370 0.20400
H 	H 	0.92950 0.86780 0.01660 -0.01900
C 	C 	0.05938 0.71950 0.90320 -0.36300
H 	H 	0.04950 0.69250 0.85150 0.30500
O 	O 	0.86189 0.79197 0.19440 -0.47600
N 	N 	0.77800 0.78921 0.26850 -0.25800
O 	O 	0.15768 0.86210 0.04420 -0.53200
O 	O 	0.16302 0.82298 0.90030 -0.54300
N 	N 	0.72640 0.72915 0.29340 -0.26000
F 	F 	0.90265 0.42877 0.73970 -0.46800
F 	F 	0.81564 0.57555 0.56332 -0.54500
F 	F 	0.99631 0.55488 0.07220 -0.36200
F 	F 	0.92063 0.51525 0.65110 -0.38600
C 	C 	0.82315 0.42200 0.77610 -0.34200
H 	H 	0.83750 0.38220 0.75980 0.20300
O 	O 	0.80900 0.20085 0.40814 -0.35500
C 	C 	0.77628 0.47200 0.86910 -0.23400
C 	C 	0.79796 0.41280 0.84330 0.25500
H 	H 	0.79540 0.36700 0.87170 -0.00800
C 	C 	0.02128 0.60790 0.06360 0.97700
F 	F 	0.87089 0.56831 0.52250 -0.44300
F 	F 	0.03219 0.62888 0.15160 -0.45400
O 	O 	0.73177 0.51546 0.97200 -0.36100
C 	C 	0.75264 0.74300 0.23320 0.10400
H 	H 	0.75290 0.72230 0.17310 -0.03100
C 	C 	0.85539 0.49500 0.65480 -0.52600
N 	N 	0.76752 0.80841 0.35750 -0.23700
C 	C 	0.89422 0.49510 0.70660 0.99800
C 	C 	0.80681 0.54920 0.76050 -0.35900
H 	H 	0.81010 0.59550 0.73390 0.22100
C 	C 	0.83211 0.24940 0.38940 0.35200
C 	C 	0.05626 0.76300 0.06220 -0.36500
H 	H 	0.04380 0.76650 0.11720 0.20000
C 	C 	0.85036 0.56720 0.59600 0.99000
C 	C 	0.74859 0.46210 0.94030 0.40400
C 	C 	0.82747 0.49010 0.73210 0.42200
F 	F 	0.98058 0.69666 0.84734 -0.48100
F 	F 	0.85925 0.62750 0.64820 -0.48700
F 	F 	0.95695 0.60866 0.92440 -0.40600
F 	F 	0.89580 0.54140 0.77960 -0.41600
C 	C 	0.78143 0.54030 0.82780 0.24700
H 	H 	0.76760 0.58060 0.84550 -0.06900
C 	C 	0.73674 0.77110 0.36870 0.12300
H 	H 	0.72370 0.77370 0.42300 0.00600
O 	O 	0.84874 0.24795 0.31420 -0.40800
C 	C 	0.98874 0.64280 0.90990 0.97200
Zn	Zn	0.82721 0.17250 0.23120 0.63700
Zn	Zn	0.79129 0.89220 0.43386 1.20900
Zn	Zn	0.68351 0.34436 0.30099 1.17400
Zn	Zn	0.68127 0.67670 0.26880 0.59100
O 	O 	0.75680 0.89613 0.53140 -0.45800
F 	F 	0.49062 0.09370 0.63300 -0.35500
N 	N 	0.68585 0.56897 0.24130 -0.29000
C 	C 	0.70036 0.53970 0.16520 0.11100
H 	H 	0.70890 0.56760 0.11620 -0.01200
N 	N 	0.68585 0.44752 0.25000 -0.26000
N 	N 	0.70114 0.46744 0.16700 -0.24700
F 	F 	0.44958 0.07570 0.47190 -0.36200
C 	C 	0.67703 0.50910 0.29150 0.11100
H 	H 	0.66600 0.51110 0.34880 -0.03300
C 	C 	0.68452 0.89720 0.93110 -0.31100
H 	H 	0.70420 0.91510 0.89920 0.15500
C 	C 	0.68978 0.83800 0.99190 0.17800
H 	H 	0.71250 0.81460 0.99830 -0.03600
C 	C 	0.57170 0.22810 0.34340 0.21600
H 	H 	0.58410 0.20940 0.29340 0.04100
C 	C 	0.35483 0.32970 0.52920 0.53300
C 	C 	0.64989 0.93070 0.91670 0.38900
C 	C 	0.40771 0.25750 0.60300 0.33100
H 	H 	0.39600 0.25700 0.65950 -0.02900
C 	C 	0.52264 0.21770 0.44880 0.39500
C 	C 	0.39221 0.29570 0.52700 -0.31200
C 	C 	0.62182 0.90600 0.97080 -0.30000
H 	H 	0.59890 0.92860 0.96380 0.28900
C 	C 	0.66109 0.81280 0.04380 -0.19700
C 	C 	0.61811 0.32920 0.35870 0.36900
O 	O 	0.62794 0.39020 0.39200 -0.35300
C 	C 	0.45882 0.22180 0.51370 0.44600
C 	C 	0.54188 0.18980 0.37500 -0.32500
H 	H 	0.53470 0.14520 0.34660 0.29400
C 	C 	0.49273 0.17360 0.49690 -0.53500
C 	C 	0.62755 0.84830 0.03520 0.21800
H 	H 	0.60880 0.83370 0.07250 0.05900
C 	C 	0.41057 0.29880 0.44290 0.29400
H 	H 	0.40030 0.32470 0.39090 -0.05000
C 	C 	0.58322 0.29360 0.38510 -0.21900
C 	C 	0.53332 0.28600 0.48720 -0.32100
H 	H 	0.51990 0.30690 0.53420 0.18000
C 	C 	0.56345 0.32290 0.45630 0.20800
H 	H 	0.57050 0.36780 0.48340 -0.02100
C 	C 	0.44062 0.21950 0.59680 -0.36500
H 	H 	0.45050 0.19250 0.64850 0.30600
O 	O 	0.63811 0.29197 0.30560 -0.47600
N 	N 	0.72200 0.28921 0.23150 -0.25800
O 	O 	0.34232 0.36210 0.45580 -0.53400
O 	O 	0.33698 0.32298 0.59970 -0.54300
N 	N 	0.77360 0.22915 0.20660 -0.26000
F 	F 	0.59735 0.92877 0.76030 -0.46700
F 	F 	0.68436 0.07555 0.93668 -0.54400
F 	F 	0.50369 0.05488 0.42780 -0.36300
F 	F 	0.57937 0.01525 0.84890 -0.38400
C 	C 	0.67685 0.92200 0.72390 -0.34100
H 	H 	0.66250 0.88220 0.74020 0.20200
O 	O 	0.69100 0.70085 0.09186 -0.35500
C 	C 	0.72372 0.97200 0.63090 -0.23500
C 	C 	0.70204 0.91280 0.65670 0.25400
H 	H 	0.70460 0.86700 0.62830 -0.00800
C 	C 	0.47872 0.10790 0.43640 0.97800
F 	F 	0.62911 0.06831 0.97750 -0.44200
F 	F 	0.46781 0.12888 0.34840 -0.45500
O 	O 	0.76823 0.01546 0.52800 -0.36100
C 	C 	0.74736 0.24300 0.26680 0.10400
H 	H 	0.74710 0.22230 0.32690 -0.03100
C 	C 	0.64461 0.99500 0.84520 -0.52700
N 	N 	0.73248 0.30841 0.14250 -0.23700
C 	C 	0.60578 0.99510 0.79340 0.99500
C 	C 	0.69319 0.04920 0.73950 -0.35600
H 	H 	0.68990 0.09550 0.76610 0.22100
C 	C 	0.66789 0.74940 0.11060 0.35200
C 	C 	0.44374 0.26300 0.43780 -0.36900
H 	H 	0.45620 0.26650 0.38280 0.20100
C 	C 	0.64964 0.06720 0.90400 0.99200
C 	C 	0.75141 0.96210 0.55970 0.40300
C 	C 	0.67253 0.99010 0.76790 0.41900
F 	F 	0.51942 0.19666 0.65266 -0.48100
F 	F 	0.64075 0.12750 0.85180 -0.48700
F 	F 	0.54305 0.10866 0.57560 -0.40600
F 	F 	0.60420 0.04140 0.72040 -0.41400
C 	C 	0.71857 0.04030 0.67220 0.24700
H 	H 	0.73240 0.08060 0.65450 -0.06900
C 	C 	0.76326 0.27110 0.13130 0.12300
H 	H 	0.77630 0.27370 0.07700 0.00500
O 	O 	0.65126 0.74795 0.18580 -0.40800
C 	C 	0.51126 0.14280 0.59010 0.97300
Zn	Zn	0.67279 0.67250 0.26880 0.63700
Zn	Zn	0.29129 0.39220 0.43386 1.20900
Zn	Zn	0.18351 0.84436 0.30099 1.17400
Zn	Zn	0.18127 0.17670 0.26880 0.59100
O 	O 	0.25680 0.39613 0.53140 -0.45800
F 	F 	0.99062 0.59370 0.63300 -0.35500
N 	N 	0.18585 0.06897 0.24130 -0.29000
C 	C 	0.20036 0.03970 0.16520 0.10800
H 	H 	0.20890 0.06760 0.11620 -0.01200
N 	N 	0.18585 0.94752 0.25000 -0.25900
N 	N 	0.20114 0.96744 0.16700 -0.24500
F 	F 	0.94958 0.57570 0.47190 -0.36200
C 	C 	0.17703 0.00910 0.29150 0.10900
H 	H 	0.16600 0.01110 0.34880 -0.03300
C 	C 	0.18452 0.39720 0.93110 -0.31200
H 	H 	0.20420 0.41510 0.89920 0.15500
C 	C 	0.18978 0.33800 0.99190 0.18300
H 	H 	0.21250 0.31460 0.99830 -0.03600
C 	C 	0.07170 0.72810 0.34340 0.21600
H 	H 	0.08410 0.70940 0.29340 0.04100
C 	C 	0.85483 0.82970 0.52920 0.53300
C 	C 	0.14989 0.43070 0.91670 0.38800
C 	C 	0.90771 0.75750 0.60300 0.33100
H 	H 	0.89600 0.75700 0.65950 -0.02900
C 	C 	0.02264 0.71770 0.44880 0.39500
C 	C 	0.89221 0.79570 0.52700 -0.31200
C 	C 	0.12182 0.40600 0.97080 -0.29500
H 	H 	0.09890 0.42860 0.96380 0.28900
C 	C 	0.16109 0.31280 0.04380 -0.20000
C 	C 	0.11811 0.82920 0.35870 0.36900
O 	O 	0.12794 0.89020 0.39200 -0.35300
C 	C 	0.95882 0.72180 0.51370 0.44600
C 	C 	0.04188 0.68980 0.37500 -0.32500
H 	H 	0.03470 0.64520 0.34660 0.29400
C 	C 	0.99273 0.67360 0.49690 -0.53500
C 	C 	0.12755 0.34830 0.03520 0.21300
H 	H 	0.10880 0.33370 0.07250 0.06000
C 	C 	0.91057 0.79880 0.44290 0.29400
H 	H 	0.90030 0.82470 0.39090 -0.05000
C 	C 	0.08322 0.79360 0.38510 -0.21900
C 	C 	0.03332 0.78600 0.48720 -0.32100
H 	H 	0.01990 0.80690 0.53420 0.18000
C 	C 	0.06345 0.82290 0.45630 0.20800
H 	H 	0.07050 0.86780 0.48340 -0.02100
C 	C 	0.94062 0.71950 0.59680 -0.36500
H 	H 	0.95050 0.69250 0.64850 0.30600
O 	O 	0.13811 0.79197 0.30560 -0.47600
N 	N 	0.22200 0.78921 0.23150 -0.25800
O 	O 	0.84232 0.86210 0.45580 -0.53400
O 	O 	0.83698 0.82298 0.59970 -0.54300
N 	N 	0.27360 0.72915 0.20660 -0.26000
F 	F 	0.09735 0.42877 0.76030 -0.46800
F 	F 	0.18436 0.57555 0.93668 -0.54500
F 	F 	0.00369 0.55488 0.42780 -0.36200
F 	F 	0.07937 0.51525 0.84890 -0.38600
C 	C 	0.17685 0.42200 0.72390 -0.34200
H 	H 	0.16250 0.38220 0.74020 0.20300
O 	O 	0.19100 0.20085 0.09186 -0.35600
C 	C 	0.22372 0.47200 0.63090 -0.23400
C 	C 	0.20204 0.41280 0.65670 0.25500
H 	H 	0.20460 0.36700 0.62830 -0.00800
C 	C 	0.97872 0.60790 0.43640 0.97800
F 	F 	0.12911 0.56831 0.97750 -0.44400
F 	F 	0.96781 0.62888 0.34840 -0.45500
O 	O 	0.26823 0.51546 0.52800 -0.36100
C 	C 	0.24736 0.74300 0.26680 0.10400
H 	H 	0.24710 0.72230 0.32690 -0.03100
C 	C 	0.14461 0.49500 0.84520 -0.52600
N 	N 	0.23248 0.80841 0.14250 -0.23700
C 	C 	0.10578 0.49510 0.79340 0.99800
C 	C 	0.19319 0.54920 0.73950 -0.35800
H 	H 	0.18990 0.59550 0.76610 0.22100
C 	C 	0.16789 0.24940 0.11060 0.35200
C 	C 	0.94374 0.76300 0.43780 -0.36900
H 	H 	0.95620 0.76650 0.38280 0.20100
C 	C 	0.14964 0.56720 0.90400 0.99100
C 	C 	0.25141 0.46210 0.55970 0.40400
C 	C 	0.17253 0.49010 0.76790 0.42200
F 	F 	0.01942 0.69666 0.65266 -0.48200
F 	F 	0.14075 0.62750 0.85180 -0.48700
F 	F 	0.04305 0.60866 0.57560 -0.40600
F 	F 	0.10420 0.54140 0.72040 -0.41600
C 	C 	0.21857 0.54030 0.67220 0.24700
H 	H 	0.23240 0.58060 0.65450 -0.06900
C 	C 	0.26326 0.77110 0.13130 0.12300
H 	H 	0.27630 0.77370 0.07700 0.00600
O 	O 	0.15126 0.24795 0.18580 -0.40800
C 	C 	0.01126 0.64280 0.59010 0.97300
Zn	Zn	0.17279 0.17250 0.26880 0.63700
Zn	Zn	0.79129 0.10780 0.93386 1.20900
Zn	Zn	0.68351 0.65564 0.80099 1.17400
Zn	Zn	0.68127 0.32330 0.76880 0.59100
O 	O 	0.75680 0.10387 0.03140 -0.45900
F 	F 	0.49062 0.90630 0.13300 -0.35500
N 	N 	0.68585 0.43103 0.74130 -0.29000
C 	C 	0.70036 0.46030 0.66520 0.11100
H 	H 	0.70890 0.43240 0.61620 -0.01200
N 	N 	0.68585 0.55248 0.75000 -0.26000
N 	N 	0.70114 0.53256 0.66700 -0.24700
F 	F 	0.44958 0.92430 0.97190 -0.36300
C 	C 	0.67703 0.49090 0.79150 0.11100
H 	H 	0.66600 0.48890 0.84880 -0.03300
C 	C 	0.68452 0.10280 0.43110 -0.31100
H 	H 	0.70420 0.08490 0.39920 0.15500
C 	C 	0.68978 0.16200 0.49190 0.18100
H 	H 	0.71250 0.18540 0.49830 -0.03600
C 	C 	0.57170 0.77190 0.84340 0.21800
H 	H 	0.58410 0.79060 0.79340 0.04000
C 	C 	0.35483 0.67030 0.02920 0.53500
C 	C 	0.64989 0.06930 0.41670 0.38800
C 	C 	0.40771 0.74250 0.10300 0.33400
H 	H 	0.39600 0.74300 0.15950 -0.02900
C 	C 	0.52264 0.78230 0.94880 0.39800
C 	C 	0.39221 0.70430 0.02700 -0.31200
C 	C 	0.62182 0.09400 0.47080 -0.29500
H 	H 	0.59890 0.07140 0.46380 0.28900
C 	C 	0.66109 0.18720 0.54380 -0.19800
C 	C 	0.61811 0.67080 0.85870 0.37000
O 	O 	0.62794 0.60980 0.89200 -0.35400
C 	C 	0.45882 0.77820 0.01370 0.45300
C 	C 	0.54188 0.81020 0.87500 -0.32800
H 	H 	0.53470 0.85480 0.84660 0.29400
C 	C 	0.49273 0.82640 0.99690 -0.54000
C 	C 	0.62755 0.15170 0.53520 0.21400
H 	H 	0.60880 0.16630 0.57250 0.06000
C 	C 	0.41057 0.70120 0.94290 0.29500
H 	H 	0.40030 0.67530 0.89090 -0.05100
C 	C 	0.58322 0.70640 0.88510 -0.22100
C 	C 	0.53332 0.71400 0.98720 -0.32700
H 	H 	0.51990 0.69310 0.03420 0.18300
C 	C 	0.56345 0.67710 0.95630 0.21200
H 	H 	0.57050 0.63220 0.98340 -0.02300
C 	C 	0.44062 0.78050 0.09680 -0.36900
H 	H 	0.45050 0.80750 0.14850 0.30700
O 	O 	0.63811 0.70803 0.80560 -0.47600
N 	N 	0.72200 0.71079 0.73150 -0.25800
O 	O 	0.34232 0.63790 0.95580 -0.53500
O 	O 	0.33698 0.67702 0.09970 -0.54400
N 	N 	0.77360 0.77085 0.70660 -0.26000
F 	F 	0.59735 0.07123 0.26030 -0.46800
F 	F 	0.68436 0.92445 0.43668 -0.54500
F 	F 	0.50369 0.94512 0.92780 -0.36400
F 	F 	0.57937 0.98475 0.34890 -0.38500
C 	C 	0.67685 0.07800 0.22390 -0.34200
H 	H 	0.66250 0.11780 0.24020 0.20200
O 	O 	0.69100 0.29915 0.59186 -0.35500
C 	C 	0.72372 0.02800 0.13090 -0.23600
C 	C 	0.70204 0.08720 0.15670 0.25500
H 	H 	0.70460 0.13300 0.12830 -0.00900
C 	C 	0.47872 0.89210 0.93640 0.97900
F 	F 	0.62911 0.93169 0.47750 -0.44400
F 	F 	0.46781 0.87112 0.84840 -0.45500
O 	O 	0.76823 0.98454 0.02800 -0.35800
C 	C 	0.74736 0.75700 0.76680 0.10400
H 	H 	0.74710 0.77770 0.82690 -0.03100
C 	C 	0.64461 0.00500 0.34520 -0.52600
N 	N 	0.73248 0.69159 0.64250 -0.23700
C 	C 	0.60578 0.00490 0.29340 0.99600
C 	C 	0.69319 0.95080 0.23950 -0.35700
H 	H 	0.68990 0.90450 0.26610 0.22100
C 	C 	0.66789 0.25060 0.61060 0.35200
C 	C 	0.44374 0.73700 0.93780 -0.37400
H 	H 	0.45620 0.73350 0.88280 0.20200
C 	C 	0.64964 0.93280 0.40400 0.99100
C 	C 	0.75141 0.03790 0.05970 0.40000
C 	C 	0.67253 0.00990 0.26790 0.42000
F 	F 	0.51942 0.80334 0.15266 -0.48200
F 	F 	0.64075 0.87250 0.35180 -0.48700
F 	F 	0.54305 0.89134 0.07560 -0.40600
F 	F 	0.60420 0.95860 0.22040 -0.41400
C 	C 	0.71857 0.95970 0.17220 0.24900
H 	H 	0.73240 0.91940 0.15450 -0.06900
C 	C 	0.76326 0.72890 0.63130 0.12300
H 	H 	0.77630 0.72630 0.57700 0.00600
O 	O 	0.65126 0.25205 0.68580 -0.40800
C 	C 	0.51126 0.85720 0.09010 0.97600
Zn	Zn	0.67279 0.32750 0.76880 0.63700
Zn	Zn	0.29129 0.60780 0.93386 1.20800
Zn	Zn	0.18351 0.15564 0.80099 1.17400
Zn	Zn	0.18127 0.82330 0.76880 0.59100
O 	O 	0.25680 0.60387 0.03140 -0.45800
F 	F 	0.99062 0.40630 0.13300 -0.35500
N 	N 	0.18585 0.93103 0.74130 -0.29000
C 	C 	0.20036 0.96030 0.66520 0.11000
H 	H 	0.20890 0.93240 0.61620 -0.01100
N 	N 	0.18585 0.05248 0.75000 -0.25900
N 	N 	0.20114 0.03256 0.66700 -0.24600
F 	F 	0.94958 0.42430 0.97190 -0.36100
C 	C 	0.17703 0.99090 0.79150 0.10900
H 	H 	0.16600 0.98890 0.84880 -0.03400
C 	C 	0.18452 0.60280 0.43110 -0.31100
H 	H 	0.20420 0.58490 0.39920 0.15500
C 	C 	0.18978 0.66200 0.49190 0.18100
H 	H 	0.21250 0.68540 0.49830 -0.03600
C 	C 	0.07170 0.27190 0.84340 0.21300
H 	H 	0.08410 0.29060 0.79340 0.04200
C 	C 	0.85483 0.17030 0.02920 0.53100
C 	C 	0.14989 0.56930 0.41670 0.38800
C 	C 	0.90771 0.24250 0.10300 0.33000
H 	H 	0.89600 0.24300 0.15950 -0.02800
C 	C 	0.02264 0.28230 0.94880 0.39100
C 	C 	0.89221 0.20430 0.02700 -0.31200
C 	C 	0.12182 0.59400 0.47080 -0.29600
H 	H 	0.09890 0.57140 0.46380 0.28900
C 	C 	0.16109 0.68720 0.54380 -0.19800
C 	C 	0.11811 0.17080 0.85870 0.36800
O 	O 	0.12794 0.10980 0.89200 -0.35200
C 	C 	0.95882 0.27820 0.01370 0.44200
C 	C 	0.04188 0.31020 0.87500 -0.32200
H 	H 	0.03470 0.35480 0.84660 0.29300
C 	C 	0.99273 0.32640 0.99690 -0.53100
C 	C 	0.12755 0.65170 0.53520 0.21400
H 	H 	0.10880 0.66630 0.57250 0.06000
C 	C 	0.91057 0.20120 0.94290 0.29400
H 	H 	0.90030 0.17530 0.89090 -0.05000
C 	C 	0.08322 0.20640 0.88510 -0.21600
C 	C 	0.03332 0.21400 0.98720 -0.31400
H 	H 	0.01990 0.19310 0.03420 0.17600
C 	C 	0.06345 0.17710 0.95630 0.20400
H 	H 	0.07050 0.13220 0.98340 -0.01900
C 	C 	0.94062 0.28050 0.09680 -0.36300
H 	H 	0.95050 0.30750 0.14850 0.30500
O 	O 	0.13811 0.20803 0.80560 -0.47600
N 	N 	0.22200 0.21079 0.73150 -0.25800
O 	O 	0.84232 0.13790 0.95580 -0.53200
O 	O 	0.83698 0.17702 0.09970 -0.54300
N 	N 	0.27360 0.27085 0.70660 -0.26000
F 	F 	0.09735 0.57123 0.26030 -0.46800
F 	F 	0.18436 0.42445 0.43668 -0.54500
F 	F 	0.00369 0.44512 0.92780 -0.36200
F 	F 	0.07937 0.48475 0.34890 -0.38600
C 	C 	0.17685 0.57800 0.22390 -0.34200
H 	H 	0.16250 0.61780 0.24020 0.20300
O 	O 	0.19100 0.79915 0.59186 -0.35500
C 	C 	0.22372 0.52800 0.13090 -0.23400
C 	C 	0.20204 0.58720 0.15670 0.25500
H 	H 	0.20460 0.63300 0.12830 -0.00800
C 	C 	0.97872 0.39210 0.93640 0.97700
F 	F 	0.12911 0.43169 0.47750 -0.44300
F 	F 	0.96781 0.37112 0.84840 -0.45400
O 	O 	0.26823 0.48454 0.02800 -0.36100
C 	C 	0.24736 0.25700 0.76680 0.10400
H 	H 	0.24710 0.27770 0.82690 -0.03100
C 	C 	0.14461 0.50500 0.34520 -0.52600
N 	N 	0.23248 0.19159 0.64250 -0.23700
C 	C 	0.10578 0.50490 0.29340 0.99800
C 	C 	0.19319 0.45080 0.23950 -0.35900
H 	H 	0.18990 0.40450 0.26610 0.22100
C 	C 	0.16789 0.75060 0.61060 0.35200
C 	C 	0.94374 0.23700 0.93780 -0.36500
H 	H 	0.95620 0.23350 0.88280 0.20000
C 	C 	0.14964 0.43280 0.40400 0.99000
C 	C 	0.25141 0.53790 0.05970 0.40400
C 	C 	0.17253 0.50990 0.26790 0.42200
F 	F 	0.01942 0.30334 0.15266 -0.48100
F 	F 	0.14075 0.37250 0.35180 -0.48700
F 	F 	0.04305 0.39134 0.07560 -0.40600
F 	F 	0.10420 0.45860 0.22040 -0.41600
C 	C 	0.21857 0.45970 0.17220 0.24700
H 	H 	0.23240 0.41940 0.15450 -0.06900
C 	C 	0.26326 0.22890 0.63130 0.12300
H 	H 	0.27630 0.22630 0.57700 0.00600
O 	O 	0.15126 0.75205 0.68580 -0.40800
C 	C 	0.01126 0.35720 0.09010 0.97200
Zn	Zn	0.17279 0.82750 0.76880 0.63700
Zn	Zn	0.20871 0.10780 0.56614 1.20900
Zn	Zn	0.31649 0.65564 0.69901 1.17400
Zn	Zn	0.31873 0.32330 0.73120 0.59100
O 	O 	0.24320 0.10387 0.46860 -0.45800
F 	F 	0.50938 0.90630 0.36700 -0.35500
N 	N 	0.31415 0.43103 0.75870 -0.29000
C 	C 	0.29964 0.46030 0.83480 0.11100
H 	H 	0.29110 0.43240 0.88380 -0.01200
N 	N 	0.31415 0.55248 0.75000 -0.26000
N 	N 	0.29886 0.53256 0.83300 -0.24700
F 	F 	0.55042 0.92430 0.52810 -0.36200
C 	C 	0.32297 0.49090 0.70850 0.11100
H 	H 	0.33400 0.48890 0.65120 -0.03300
C 	C 	0.31548 0.10280 0.06890 -0.31100
H 	H 	0.29580 0.08490 0.10080 0.15500
C 	C 	0.31022 0.16200 0.00810 0.17800
H 	H 	0.28750 0.18540 0.00170 -0.03600
C 	C 	0.42830 0.77190 0.65660 0.21600
H 	H 	0.41590 0.79060 0.70660 0.04100
C 	C 	0.64517 0.67030 0.47080 0.53300
C 	C 	0.35011 0.06930 0.08330 0.38900
C 	C 	0.59229 0.74250 0.39700 0.33100
H 	H 	0.60400 0.74300 0.34050 -0.02900
C 	C 	0.47736 0.78230 0.55120 0.39500
C 	C 	0.60779 0.70430 0.47300 -0.31200
C 	C 	0.37818 0.09400 0.02920 -0.30000
H 	H 	0.40110 0.07140 0.03620 0.28900
C 	C 	0.33891 0.18720 0.95620 -0.19700
C 	C 	0.38189 0.67080 0.64130 0.36900
O 	O 	0.37206 0.60980 0.60800 -0.35300
C 	C 	0.54118 0.77820 0.48630 0.44600
C 	C 	0.45812 0.81020 0.62500 -0.32500
H 	H 	0.46530 0.85480 0.65340 0.29400
C 	C 	0.50727 0.82640 0.50310 -0.53500
C 	C 	0.37245 0.15170 0.96480 0.21800
H 	H 	0.39120 0.16630 0.92750 0.05900
C 	C 	0.58943 0.70120 0.55710 0.29400
H 	H 	0.59970 0.67530 0.60910 -0.05000
C 	C 	0.41678 0.70640 0.61490 -0.21900
C 	C 	0.46668 0.71400 0.51280 -0.32100
H 	H 	0.48010 0.69310 0.46580 0.18000
C 	C 	0.43655 0.67710 0.54370 0.20800
H 	H 	0.42950 0.63220 0.51660 -0.02100
C 	C 	0.55938 0.78050 0.40320 -0.36500
H 	H 	0.54950 0.80750 0.35150 0.30600
O 	O 	0.36189 0.70803 0.69440 -0.47600
N 	N 	0.27800 0.71079 0.76850 -0.25800
O 	O 	0.65768 0.63790 0.54420 -0.53400
O 	O 	0.66302 0.67702 0.40030 -0.54300
N 	N 	0.22640 0.77085 0.79340 -0.26000
F 	F 	0.40265 0.07123 0.23970 -0.46700
F 	F 	0.31564 0.92445 0.06332 -0.54400
F 	F 	0.49631 0.94512 0.57220 -0.36300
F 	F 	0.42063 0.98475 0.15110 -0.38400
C 	C 	0.32315 0.07800 0.27610 -0.34100
H 	H 	0.33750 0.11780 0.25980 0.20200
O 	O 	0.30900 0.29915 0.90814 -0.35500
C 	C 	0.27628 0.02800 0.36910 -0.23500
C 	C 	0.29796 0.08720 0.34330 0.25400
H 	H 	0.29540 0.13300 0.37170 -0.00800
C 	C 	0.52128 0.89210 0.56360 0.97800
F 	F 	0.37089 0.93169 0.02250 -0.44200
F 	F 	0.53219 0.87112 0.65160 -0.45500
O 	O 	0.23177 0.98454 0.47200 -0.36100
C 	C 	0.25264 0.75700 0.73320 0.10400
H 	H 	0.25290 0.77770 0.67310 -0.03100
C 	C 	0.35539 0.00500 0.15480 -0.52700
N 	N 	0.26752 0.69159 0.85750 -0.23700
C 	C 	0.39422 0.00490 0.20660 0.99500
C 	C 	0.30681 0.95080 0.26050 -0.35600
H 	H 	0.31010 0.90450 0.23390 0.22100
C 	C 	0.33211 0.25060 0.88940 0.35200
C 	C 	0.55626 0.73700 0.56220 -0.36900
H 	H 	0.54380 0.73350 0.61720 0.20100
C 	C 	0.35036 0.93280 0.09600 0.99200
C 	C 	0.24859 0.03790 0.44030 0.40300
C 	C 	0.32747 0.00990 0.23210 0.41900
F 	F 	0.48058 0.80334 0.34734 -0.48100
F 	F 	0.35925 0.87250 0.14820 -0.48700
F 	F 	0.45695 0.89134 0.42440 -0.40600
F 	F 	0.39580 0.95860 0.27960 -0.41400
C 	C 	0.28143 0.95970 0.32780 0.24700
H 	H 	0.26760 0.91940 0.34550 -0.06900
C 	C 	0.23674 0.72890 0.86870 0.12300
H 	H 	0.22370 0.72630 0.92300 0.00500
O 	O 	0.34874 0.25205 0.81420 -0.40800
C 	C 	0.48874 0.85720 0.40990 0.97300
Zn	Zn	0.32721 0.32750 0.73120 0.63700
Zn	Zn	0.70871 0.60780 0.56614 1.20900
Zn	Zn	0.81649 0.15564 0.69901 1.17400
Zn	Zn	0.81873 0.82330 0.73120 0.59100
O 	O 	0.74320 0.60387 0.46860 -0.45800
F 	F 	0.00938 0.40630 0.36700 -0.35500
N 	N 	0.81415 0.93103 0.75870 -0.29000
C 	C 	0.79964 0.96030 0.83480 0.10800
H 	H 	0.79110 0.93240 0.88380 -0.01200
N 	N 	0.81415 0.05248 0.75000 -0.25900
N 	N 	0.79886 0.03256 0.83300 -0.24500
F 	F 	0.05042 0.42430 0.52810 -0.36200
C 	C 	0.82297 0.99090 0.70850 0.10900
H 	H 	0.83400 0.98890 0.65120 -0.03300
C 	C 	0.81548 0.60280 0.06890 -0.31200
H 	H 	0.79580 0.58490 0.10080 0.15500
C 	C 	0.81022 0.66200 0.00810 0.18300
H 	H 	0.78750 0.68540 0.00170 -0.03600
C 	C 	0.92830 0.27190 0.65660 0.21600
H 	H 	0.91590 0.29060 0.70660 0.04100
C 	C 	0.14517 0.17030 0.47080 0.53300
C 	C 	0.85011 0.56930 0.08330 0.38800
C 	C 	0.09229 0.24250 0.39700 0.33100
H 	H 	0.10400 0.24300 0.34050 -0.02900
C 	C 	0.97736 0.28230 0.55120 0.39500
C 	C 	0.10779 0.20430 0.47300 -0.31200
C 	C 	0.87818 0.59400 0.02920 -0.29500
H 	H 	0.90110 0.57140 0.03620 0.28900
C 	C 	0.83891 0.68720 0.95620 -0.20000
C 	C 	0.88189 0.17080 0.64130 0.36900
O 	O 	0.87206 0.10980 0.60800 -0.35300
C 	C 	0.04118 0.27820 0.48630 0.44600
C 	C 	0.95812 0.31020 0.62500 -0.32500
H 	H 	0.96530 0.35480 0.65340 0.29400
C 	C 	0.00727 0.32640 0.50310 -0.53500
C 	C 	0.87245 0.65170 0.96480 0.21300
H 	H 	0.89120 0.66630 0.92750 0.06000
C 	C 	0.08943 0.20120 0.55710 0.29400
H 	H 	0.09970 0.17530 0.60910 -0.05000
C 	C 	0.91678 0.20640 0.61490 -0.21900
C 	C 	0.96668 0.21400 0.51280 -0.32100
H 	H 	0.98010 0.19310 0.46580 0.18000
C 	C 	0.93655 0.17710 0.54370 0.20800
H 	H 	0.92950 0.13220 0.51660 -0.02100
C 	C 	0.05938 0.28050 0.40320 -0.36500
H 	H 	0.04950 0.30750 0.35150 0.30600
O 	O 	0.86189 0.20803 0.69440 -0.47600
N 	N 	0.77800 0.21079 0.76850 -0.25800
O 	O 	0.15768 0.13790 0.54420 -0.53400
O 	O 	0.16302 0.17702 0.40030 -0.54300
N 	N 	0.72640 0.27085 0.79340 -0.26000
F 	F 	0.90265 0.57123 0.23970 -0.46800
F 	F 	0.81564 0.42445 0.06332 -0.54500
F 	F 	0.99631 0.44512 0.57220 -0.36200
F 	F 	0.92063 0.48475 0.15110 -0.38600
C 	C 	0.82315 0.57800 0.27610 -0.34200
H 	H 	0.83750 0.61780 0.25980 0.20300
O 	O 	0.80900 0.79915 0.90814 -0.35600
C 	C 	0.77628 0.52800 0.36910 -0.23400
C 	C 	0.79796 0.58720 0.34330 0.25500
H 	H 	0.79540 0.63300 0.37170 -0.00800
C 	C 	0.02128 0.39210 0.56360 0.97800
F 	F 	0.87089 0.43169 0.02250 -0.44400
F 	F 	0.03219 0.37112 0.65160 -0.45500
O 	O 	0.73177 0.48454 0.47200 -0.36100
C 	C 	0.75264 0.25700 0.73320 0.10400
H 	H 	0.75290 0.27770 0.67310 -0.03100
C 	C 	0.85539 0.50500 0.15480 -0.52600
N 	N 	0.76752 0.19159 0.85750 -0.23700
C 	C 	0.89422 0.50490 0.20660 0.99800
C 	C 	0.80681 0.45080 0.26050 -0.35800
H 	H 	0.81010 0.40450 0.23390 0.22100
C 	C 	0.83211 0.75060 0.88940 0.35200
C 	C 	0.05626 0.23700 0.56220 -0.36900
H 	H 	0.04380 0.23350 0.61720 0.20100
C 	C 	0.85036 0.43280 0.09600 0.99100
C 	C 	0.74859 0.53790 0.44030 0.40400
C 	C 	0.82747 0.50990 0.23210 0.42200
F 	F 	0.98058 0.30334 0.34734 -0.48200
F 	F 	0.85925 0.37250 0.14820 -0.48700
F 	F 	0.95695 0.39134 0.42440 -0.40600
F 	F 	0.89580 0.45860 0.27960 -0.41600
C 	C 	0.78143 0.45970 0.32780 0.24700
H 	H 	0.76760 0.41940 0.34550 -0.06900
C 	C 	0.73674 0.22890 0.86870 0.12300
H 	H 	0.72370 0.22630 0.92300 0.00600
O 	O 	0.84874 0.75205 0.81420 -0.40800
C 	C 	0.98874 0.35720 0.40990 0.97300
Zn	Zn	0.82721 0.82750 0.73120 0.63700
