data_crystal

_cell_length_a 12.51400
_cell_length_b 15.76700
_cell_length_c 16.17100
_cell_angle_alpha 114.13000
_cell_angle_beta  104.06000
_cell_angle_gamma 103.72000

_symmetry_space_group_name_	'P 1'
_symmetry_space_group_name_H-M	'P 1'

loop_
_symmetry_equiv_pos_as_xyz
  x,y,z

loop_
_atom_site_label
_atom_site_type_symbol
_atom_site_fract_x
_atom_site_fract_y
_atom_site_fract_z
_atom_site_charge
Pr	Pr	0.53441 0.89374 0.03187 2.09700
Pr	Pr	0.99719 0.97634 0.36568 2.09800
Pr	Pr	0.86863 0.36322 0.90212 2.09900
Pr	Pr	0.46559 0.10626 0.96813 2.09700
Pr	Pr	0.00281 0.02366 0.63432 2.09800
Pr	Pr	0.13137 0.63678 0.09788 2.09900
H 	H 	0.17950 0.43150 0.21240 0.29700
H 	H 	0.09030 0.43230 0.26440 0.29600
H 	H 	0.02660 0.29090 0.20970 -0.13700
H 	H 	0.15090 0.30410 0.20310 -0.14600
H 	H 	0.36900 0.90160 0.31490 0.21600
H 	H 	0.27230 0.92170 0.25270 0.22200
H 	H 	0.39310 0.06540 0.29200 -0.05100
H 	H 	0.41930 0.06050 0.38900 -0.04900
H 	H 	0.68700 0.19790 0.41120 -0.08000
H 	H 	0.56450 0.20530 0.40730 -0.09200
H 	H 	0.53130 0.21730 0.28840 0.24700
H 	H 	0.66950 0.26560 0.33340 0.24400
H 	H 	0.57330 0.01300 0.44030 -0.03200
H 	H 	0.67070 0.11930 0.48210 -0.03000
H 	H 	0.66570 0.93870 0.34700 0.20000
H 	H 	0.75670 0.04280 0.37540 0.20100
H 	H 	0.59520 0.66500 0.08900 0.18100
H 	H 	0.52400 0.72640 0.13620 0.18300
H 	H 	0.61150 0.73420 0.28190 -0.01700
H 	H 	0.54670 0.62220 0.19760 -0.01400
H 	H 	0.70440 0.58630 0.32300 -0.00900
H 	H 	0.72200 0.69880 0.38630 0.00200
H 	H 	0.88940 0.66490 0.44630 0.17800
H 	H 	0.90830 0.64010 0.34780 0.17800
H 	H 	0.74970 0.53320 0.18810 0.00900
H 	H 	0.65230 0.54200 0.11340 0.00500
H 	H 	0.90000 0.65150 0.18200 0.18500
H 	H 	0.80220 0.65880 0.10630 0.18300
H 	H 	0.11930 0.12200 0.89950 0.18800
H 	H 	0.00300 0.06640 0.90600 0.18400
H 	H 	0.14530 0.16750 0.06280 -0.01800
H 	H 	0.16990 0.26190 0.04870 -0.02100
H 	H 	0.93620 0.07570 0.01600 -0.01900
H 	H 	0.95280 0.13730 0.12590 -0.00900
H 	H 	0.78700 0.12850 0.96870 0.18400
H 	H 	0.80380 0.19070 0.07840 0.20200
H 	H 	0.62930 0.74260 0.94200 0.24700
H 	H 	0.34850 0.72600 0.00490 0.27100
H 	H 	0.16060 0.08680 0.30960 0.24400
H 	H 	0.82710 0.99690 0.22650 0.26300
H 	H 	0.65320 0.31930 0.74620 0.24000
H 	H 	0.83450 0.27790 0.69870 0.25600
H 	H 	0.82050 0.56850 0.78760 0.29800
H 	H 	0.90970 0.56770 0.73560 0.29700
H 	H 	0.97340 0.70910 0.79030 -0.13700
H 	H 	0.84910 0.69590 0.79690 -0.14600
H 	H 	0.63100 0.09840 0.68510 0.21600
H 	H 	0.72770 0.07830 0.74730 0.22200
H 	H 	0.60690 0.93460 0.70800 -0.05100
H 	H 	0.58070 0.93950 0.61100 -0.04900
H 	H 	0.31300 0.80210 0.58880 -0.08000
H 	H 	0.43550 0.79470 0.59270 -0.09200
H 	H 	0.46870 0.78270 0.71160 0.24700
H 	H 	0.33050 0.73440 0.66660 0.24400
H 	H 	0.42670 0.98700 0.55970 -0.03200
H 	H 	0.32930 0.88070 0.51790 -0.03000
H 	H 	0.33430 0.06130 0.65300 0.20000
H 	H 	0.24330 0.95720 0.62460 0.20100
H 	H 	0.40480 0.33500 0.91100 0.18100
H 	H 	0.47600 0.27360 0.86380 0.18300
H 	H 	0.38850 0.26580 0.71810 -0.01700
H 	H 	0.45330 0.37780 0.80240 -0.01400
H 	H 	0.29560 0.41370 0.67700 -0.00900
H 	H 	0.27800 0.30120 0.61370 0.00200
H 	H 	0.11060 0.33510 0.55370 0.17800
H 	H 	0.09170 0.35990 0.65220 0.17800
H 	H 	0.25030 0.46680 0.81190 0.00900
H 	H 	0.34770 0.45800 0.88660 0.00500
H 	H 	0.10000 0.34850 0.81800 0.18500
H 	H 	0.19780 0.34120 0.89370 0.18300
H 	H 	0.88070 0.87800 0.10050 0.18800
H 	H 	0.99700 0.93360 0.09400 0.18400
H 	H 	0.85470 0.83250 0.93720 -0.01800
H 	H 	0.83010 0.73810 0.95130 -0.02100
H 	H 	0.06380 0.92430 0.98400 -0.01900
H 	H 	0.04720 0.86270 0.87410 -0.00900
H 	H 	0.21300 0.87150 0.03130 0.18400
H 	H 	0.19620 0.80930 0.92160 0.20200
H 	H 	0.37070 0.25740 0.05800 0.24700
H 	H 	0.65150 0.27400 0.99510 0.27100
H 	H 	0.83940 0.91320 0.69040 0.24400
H 	H 	0.17290 0.00310 0.77350 0.26300
H 	H 	0.34680 0.68070 0.25380 0.24000
H 	H 	0.16550 0.72210 0.30130 0.25600
C 	C 	0.09600 0.40200 0.20080 -0.89700
C 	C 	0.07500 0.30760 0.17570 0.56900
C 	C 	0.03260 0.44070 0.14420 0.65900
C 	C 	0.36980 0.86080 0.17710 0.57100
C 	C 	0.35500 0.92860 0.27100 -0.60800
C 	C 	0.42670 0.03360 0.32580 0.28600
C 	C 	0.60410 0.17090 0.36800 0.38300
C 	C 	0.60230 0.20220 0.30080 -0.69400
C 	C 	0.60490 0.14160 0.20270 0.58400
C 	C 	0.62690 0.05350 0.42420 0.23000
C 	C 	0.71060 0.00740 0.39990 -0.54800
C 	C 	0.79530 0.00580 0.48190 0.51700
C 	C 	0.69900 0.81600 0.17960 0.51900
C 	C 	0.59930 0.71770 0.14950 -0.50700
C 	C 	0.61360 0.68410 0.22300 0.17500
C 	C 	0.74960 0.65500 0.34190 0.13300
C 	C 	0.87920 0.68050 0.39350 -0.45800
C 	C 	0.95110 0.79160 0.43510 0.50100
C 	C 	0.73030 0.57850 0.16620 0.13000
C 	C 	0.82230 0.61410 0.12880 -0.47200
C 	C 	0.82690 0.52730 0.04650 0.46800
C 	C 	0.98530 0.16600 0.86040 0.55100
C 	C 	0.05480 0.13160 0.92060 -0.52800
C 	C 	0.10820 0.20040 0.03220 0.18200
C 	C 	0.93130 0.13560 0.06320 0.21000
C 	C 	0.80780 0.13010 0.03130 -0.51600
C 	C 	0.71750 0.04100 0.02090 0.52800
C 	C 	0.90400 0.59800 0.79920 -0.89700
C 	C 	0.92500 0.69240 0.82430 0.56900
C 	C 	0.96740 0.55930 0.85580 0.65900
C 	C 	0.63020 0.13920 0.82290 0.57100
C 	C 	0.64500 0.07140 0.72900 -0.60800
C 	C 	0.57330 0.96640 0.67420 0.28600
C 	C 	0.39590 0.82910 0.63200 0.38300
C 	C 	0.39770 0.79780 0.69920 -0.69400
C 	C 	0.39510 0.85840 0.79730 0.58400
C 	C 	0.37310 0.94650 0.57580 0.23000
C 	C 	0.28940 0.99260 0.60010 -0.54800
C 	C 	0.20470 0.99420 0.51810 0.51700
C 	C 	0.30100 0.18400 0.82040 0.51900
C 	C 	0.40070 0.28230 0.85050 -0.50700
C 	C 	0.38640 0.31590 0.77700 0.17500
C 	C 	0.25040 0.34500 0.65810 0.13300
C 	C 	0.12080 0.31950 0.60650 -0.45800
C 	C 	0.04890 0.20840 0.56490 0.50100
C 	C 	0.26970 0.42150 0.83380 0.13000
C 	C 	0.17770 0.38590 0.87120 -0.47200
C 	C 	0.17310 0.47270 0.95350 0.46800
C 	C 	0.01470 0.83400 0.13960 0.55100
C 	C 	0.94520 0.86840 0.07940 -0.52800
C 	C 	0.89180 0.79960 0.96780 0.18200
C 	C 	0.06870 0.86440 0.93680 0.21000
C 	C 	0.19220 0.86990 0.96870 -0.51600
C 	C 	0.28250 0.95900 0.97910 0.52800
N 	N 	0.55500 0.06470 0.34400 -0.20500
N 	N 	0.72800 0.66680 0.25000 -0.14400
N 	N 	0.01790 0.22610 0.07310 -0.21600
N 	N 	0.44500 0.93530 0.65600 -0.20500
N 	N 	0.27200 0.33320 0.75000 -0.14400
N 	N 	0.98210 0.77390 0.92690 -0.21600
O 	O 	0.45680 0.89460 0.16180 -0.50300
O 	O 	0.62130 0.06180 0.18550 -0.47300
O 	O 	0.74730 0.98920 0.05440 -0.46800
O 	O 	0.67720 0.86640 0.13870 -0.53700
O 	O 	0.60440 0.77370 0.91720 -0.49500
O 	O 	0.38250 0.72380 0.96710 -0.51600
O 	O 	0.59100 0.17620 0.14530 -0.49800
O 	O 	0.60670 0.02190 0.97720 -0.64100
O 	O 	0.87050 0.96730 0.46050 -0.63200
O 	O 	0.79730 0.84100 0.24200 -0.48200
O 	O 	0.96440 0.81800 0.37420 -0.46200
O 	O 	0.79520 0.04020 0.56430 -0.42100
O 	O 	0.16590 0.10400 0.36620 -0.49500
O 	O 	0.98500 0.84860 0.52630 -0.47400
O 	O 	0.89180 0.04100 0.26730 -0.50700
O 	O 	0.95240 0.23560 0.90210 -0.47500
O 	O 	0.29530 0.77290 0.12270 -0.55600
O 	O 	0.94370 0.37790 0.06770 -0.49400
O 	O 	0.75210 0.44040 0.00690 -0.41600
O 	O 	0.68600 0.37080 0.79970 -0.51600
O 	O 	0.07120 0.53340 0.17640 -0.55000
O 	O 	0.85160 0.25270 0.73300 -0.52500
O 	O 	0.91380 0.54590 0.01960 -0.61600
O 	O 	0.96180 0.12340 0.77100 -0.52800
O 	O 	0.54320 0.10540 0.83820 -0.50300
O 	O 	0.37870 0.93820 0.81450 -0.47300
O 	O 	0.25270 0.01080 0.94560 -0.46800
O 	O 	0.32280 0.13360 0.86130 -0.53700
O 	O 	0.39560 0.22630 0.08280 -0.49500
O 	O 	0.61750 0.27620 0.03290 -0.51600
O 	O 	0.40900 0.82380 0.85470 -0.49800
O 	O 	0.39330 0.97810 0.02280 -0.64100
O 	O 	0.12950 0.03270 0.53950 -0.63200
O 	O 	0.20270 0.15900 0.75800 -0.48200
O 	O 	0.03560 0.18200 0.62580 -0.46200
O 	O 	0.20480 0.95980 0.43570 -0.42100
O 	O 	0.83410 0.89600 0.63380 -0.49500
O 	O 	0.01500 0.15140 0.47370 -0.47400
O 	O 	0.10820 0.95900 0.73270 -0.50700
O 	O 	0.04760 0.76440 0.09790 -0.47500
O 	O 	0.70470 0.22710 0.87730 -0.55600
O 	O 	0.05630 0.62210 0.93230 -0.49400
O 	O 	0.24790 0.55960 0.99310 -0.41600
O 	O 	0.31400 0.62920 0.20030 -0.51600
O 	O 	0.92880 0.46660 0.82360 -0.55000
O 	O 	0.14840 0.74730 0.26700 -0.52500
O 	O 	0.08620 0.45410 0.98040 -0.61600
O 	O 	0.03820 0.87660 0.22900 -0.52800
