data_crystal

_cell_length_a 26.50680
_cell_length_b 26.50680
_cell_length_c 26.50680
_cell_angle_alpha 90.00000
_cell_angle_beta  90.00000
_cell_angle_gamma 90.00000

_symmetry_space_group_name_	'P 1'
_symmetry_space_group_name_H-M	'P 1'

loop_
_symmetry_equiv_pos_as_xyz
  x,y,z

loop_
_atom_site_label
_atom_site_type_symbol
_atom_site_fract_x
_atom_site_fract_y
_atom_site_fract_z
_atom_site_charge
O 	O 	0.22976 0.29603 0.04732 -1.17100
O 	O 	0.35850 0.28950 0.10500 -0.68400
O 	O 	0.22410 0.39770 0.95130 -0.50400
O 	O 	0.72976 0.79603 0.54732 -1.10900
O 	O 	0.85850 0.78950 0.60500 -0.63900
O 	O 	0.72410 0.89770 0.45130 -0.55000
O 	O 	0.77024 0.70397 0.04732 -1.14100
O 	O 	0.64150 0.71050 0.10500 -0.68200
O 	O 	0.77590 0.60230 0.95130 -0.48500
O 	O 	0.27024 0.20397 0.54732 -1.11900
O 	O 	0.14150 0.21050 0.60500 -0.68200
O 	O 	0.27590 0.10230 0.45130 -0.61100
O 	O 	0.77024 0.29603 0.95268 -1.01000
O 	O 	0.64150 0.28950 0.89500 -0.64400
O 	O 	0.77590 0.39770 0.04870 -0.63000
O 	O 	0.27024 0.79603 0.45268 -1.11200
O 	O 	0.14150 0.78950 0.39500 -0.66700
O 	O 	0.27590 0.89770 0.54870 -0.55600
O 	O 	0.22976 0.70397 0.95268 -1.01900
O 	O 	0.35850 0.71050 0.89500 -0.64400
O 	O 	0.22410 0.60230 0.04870 -0.64600
O 	O 	0.72976 0.20397 0.45268 -1.11700
O 	O 	0.85850 0.21050 0.39500 -0.66200
O 	O 	0.72410 0.10230 0.54870 -0.60700
O 	O 	0.04732 0.22976 0.29603 -1.17200
O 	O 	0.10500 0.35850 0.28950 -0.68500
O 	O 	0.95130 0.22410 0.39770 -0.50500
O 	O 	0.54732 0.72976 0.79603 -1.11000
O 	O 	0.60500 0.85850 0.78950 -0.64000
O 	O 	0.45130 0.72410 0.89770 -0.55100
O 	O 	0.04732 0.77024 0.70397 -1.14100
O 	O 	0.10500 0.64150 0.71050 -0.68200
O 	O 	0.95130 0.77590 0.60230 -0.48500
O 	O 	0.54732 0.27024 0.20397 -1.11900
O 	O 	0.60500 0.14150 0.21050 -0.68200
O 	O 	0.45130 0.27590 0.10230 -0.61100
O 	O 	0.95268 0.77024 0.29603 -1.01000
O 	O 	0.89500 0.64150 0.28950 -0.64400
O 	O 	0.04870 0.77590 0.39770 -0.63000
O 	O 	0.45268 0.27024 0.79603 -1.11200
O 	O 	0.39500 0.14150 0.78950 -0.66700
O 	O 	0.54870 0.27590 0.89770 -0.55600
O 	O 	0.95268 0.22976 0.70397 -1.01900
O 	O 	0.89500 0.35850 0.71050 -0.64400
O 	O 	0.04870 0.22410 0.60230 -0.64600
O 	O 	0.45268 0.72976 0.20397 -1.11700
O 	O 	0.39500 0.85850 0.21050 -0.66200
O 	O 	0.54870 0.72410 0.10230 -0.60700
O 	O 	0.29603 0.04732 0.22976 -1.17200
O 	O 	0.28950 0.10500 0.35850 -0.68500
O 	O 	0.39770 0.95130 0.22410 -0.50500
O 	O 	0.79603 0.54732 0.72976 -1.11000
O 	O 	0.78950 0.60500 0.85850 -0.64000
O 	O 	0.89770 0.45130 0.72410 -0.55100
O 	O 	0.70397 0.04732 0.77024 -1.14100
O 	O 	0.71050 0.10500 0.64150 -0.68200
O 	O 	0.60230 0.95130 0.77590 -0.48500
O 	O 	0.20397 0.54732 0.27024 -1.11900
O 	O 	0.21050 0.60500 0.14150 -0.68200
O 	O 	0.10230 0.45130 0.27590 -0.61100
O 	O 	0.29603 0.95268 0.77024 -1.01000
O 	O 	0.28950 0.89500 0.64150 -0.64400
O 	O 	0.39770 0.04870 0.77590 -0.63000
O 	O 	0.79603 0.45268 0.27024 -1.11200
O 	O 	0.78950 0.39500 0.14150 -0.66700
O 	O 	0.89770 0.54870 0.27590 -0.55600
O 	O 	0.70397 0.95268 0.22976 -1.01900
O 	O 	0.71050 0.89500 0.35850 -0.64400
O 	O 	0.60230 0.04870 0.22410 -0.64600
O 	O 	0.20397 0.45268 0.72976 -1.11700
O 	O 	0.21050 0.39500 0.85850 -0.66200
O 	O 	0.10230 0.54870 0.72410 -0.60700
O 	O 	0.29603 0.22976 0.95268 -1.03000
O 	O 	0.28950 0.35850 0.89500 -0.64600
O 	O 	0.39770 0.22410 0.04870 -0.64800
O 	O 	0.79603 0.72976 0.45268 -1.11000
O 	O 	0.78950 0.85850 0.39500 -0.64400
O 	O 	0.89770 0.72410 0.54870 -0.55200
O 	O 	0.70397 0.77024 0.95268 -0.99900
O 	O 	0.71050 0.64150 0.89500 -0.64300
O 	O 	0.60230 0.77590 0.04870 -0.62800
O 	O 	0.20397 0.27024 0.45268 -1.11900
O 	O 	0.21050 0.14150 0.39500 -0.68500
O 	O 	0.10230 0.27590 0.54870 -0.61100
O 	O 	0.29603 0.77024 0.04732 -1.15100
O 	O 	0.28950 0.64150 0.10500 -0.68400
O 	O 	0.39770 0.77590 0.95130 -0.48700
O 	O 	0.79603 0.27024 0.54732 -1.11200
O 	O 	0.78950 0.14150 0.60500 -0.66300
O 	O 	0.89770 0.27590 0.45130 -0.55500
O 	O 	0.70397 0.22976 0.04732 -1.16100
O 	O 	0.71050 0.35850 0.10500 -0.68300
O 	O 	0.60230 0.22410 0.95130 -0.50300
O 	O 	0.20397 0.72976 0.54732 -1.11600
O 	O 	0.21050 0.85850 0.60500 -0.65900
O 	O 	0.10230 0.72410 0.45130 -0.60700
O 	O 	0.22976 0.04732 0.70397 -1.16100
O 	O 	0.35850 0.10500 0.71050 -0.68300
O 	O 	0.22410 0.95130 0.60230 -0.50300
O 	O 	0.72976 0.54732 0.20397 -1.11600
O 	O 	0.85850 0.60500 0.21050 -0.65900
O 	O 	0.72410 0.45130 0.10230 -0.60700
O 	O 	0.77024 0.04732 0.29603 -1.15100
O 	O 	0.64150 0.10500 0.28950 -0.68400
O 	O 	0.77590 0.95130 0.39770 -0.48700
O 	O 	0.27024 0.54732 0.79603 -1.11200
O 	O 	0.14150 0.60500 0.78950 -0.66300
O 	O 	0.27590 0.45130 0.89770 -0.55500
O 	O 	0.77024 0.95268 0.70397 -0.99900
O 	O 	0.64150 0.89500 0.71050 -0.64300
O 	O 	0.77590 0.04870 0.60230 -0.62800
O 	O 	0.27024 0.45268 0.20397 -1.11900
O 	O 	0.14150 0.39500 0.21050 -0.68500
O 	O 	0.27590 0.54870 0.10230 -0.61100
O 	O 	0.22976 0.95268 0.29603 -1.03000
O 	O 	0.35850 0.89500 0.28950 -0.64600
O 	O 	0.22410 0.04870 0.39770 -0.64800
O 	O 	0.72976 0.45268 0.79603 -1.11000
O 	O 	0.85850 0.39500 0.78950 -0.64400
O 	O 	0.72410 0.54870 0.89770 -0.55200
O 	O 	0.04732 0.29603 0.77024 -1.15100
O 	O 	0.10500 0.28950 0.64150 -0.68400
O 	O 	0.95130 0.39770 0.77590 -0.48700
O 	O 	0.54732 0.79603 0.27024 -1.11200
O 	O 	0.60500 0.78950 0.14150 -0.66300
O 	O 	0.45130 0.89770 0.27590 -0.55500
O 	O 	0.04732 0.70397 0.22976 -1.16100
O 	O 	0.10500 0.71050 0.35850 -0.68300
O 	O 	0.95130 0.60230 0.22410 -0.50300
O 	O 	0.54732 0.20397 0.72976 -1.11600
O 	O 	0.60500 0.21050 0.85850 -0.65900
O 	O 	0.45130 0.10230 0.72410 -0.60700
O 	O 	0.95268 0.29603 0.22976 -1.03000
O 	O 	0.89500 0.28950 0.35850 -0.64600
O 	O 	0.04870 0.39770 0.22410 -0.64800
O 	O 	0.45268 0.79603 0.72976 -1.11000
O 	O 	0.39500 0.78950 0.85850 -0.64400
O 	O 	0.54870 0.89770 0.72410 -0.55200
O 	O 	0.95268 0.70397 0.77024 -0.99900
O 	O 	0.89500 0.71050 0.64150 -0.64300
O 	O 	0.04870 0.60230 0.77590 -0.62800
O 	O 	0.45268 0.20397 0.27024 -1.11900
O 	O 	0.39500 0.21050 0.14150 -0.68500
O 	O 	0.54870 0.10230 0.27590 -0.61100
O 	O 	0.77024 0.70397 0.95268 -0.99900
O 	O 	0.64150 0.71050 0.89500 -0.64300
O 	O 	0.77590 0.60230 0.04870 -0.62800
O 	O 	0.27024 0.20397 0.45268 -1.11900
O 	O 	0.14150 0.21050 0.39500 -0.68500
O 	O 	0.27590 0.10230 0.54870 -0.61100
O 	O 	0.22976 0.29603 0.95268 -1.03000
O 	O 	0.35850 0.28950 0.89500 -0.64600
O 	O 	0.22410 0.39770 0.04870 -0.64800
O 	O 	0.72976 0.79603 0.45268 -1.11000
O 	O 	0.85850 0.78950 0.39500 -0.64400
O 	O 	0.72410 0.89770 0.54870 -0.55200
O 	O 	0.22976 0.70397 0.04732 -1.16100
O 	O 	0.35850 0.71050 0.10500 -0.68300
O 	O 	0.22410 0.60230 0.95130 -0.50300
O 	O 	0.72976 0.20397 0.54732 -1.11600
O 	O 	0.85850 0.21050 0.60500 -0.65900
O 	O 	0.72410 0.10230 0.45130 -0.60700
O 	O 	0.77024 0.29603 0.04732 -1.15100
O 	O 	0.64150 0.28950 0.10500 -0.68400
O 	O 	0.77590 0.39770 0.95130 -0.48700
O 	O 	0.27024 0.79603 0.54732 -1.11200
O 	O 	0.14150 0.78950 0.60500 -0.66300
O 	O 	0.27590 0.89770 0.45130 -0.55500
O 	O 	0.95268 0.77024 0.70397 -0.99900
O 	O 	0.89500 0.64150 0.71050 -0.64300
O 	O 	0.04870 0.77590 0.60230 -0.62800
O 	O 	0.45268 0.27024 0.20397 -1.11900
O 	O 	0.39500 0.14150 0.21050 -0.68500
O 	O 	0.54870 0.27590 0.10230 -0.61100
O 	O 	0.95268 0.22976 0.29603 -1.03000
O 	O 	0.89500 0.35850 0.28950 -0.64600
O 	O 	0.04870 0.22410 0.39770 -0.64800
O 	O 	0.45268 0.72976 0.79603 -1.11000
O 	O 	0.39500 0.85850 0.78950 -0.64400
O 	O 	0.54870 0.72410 0.89770 -0.55200
O 	O 	0.04732 0.22976 0.70397 -1.16100
O 	O 	0.10500 0.35850 0.71050 -0.68300
O 	O 	0.95130 0.22410 0.60230 -0.50300
O 	O 	0.54732 0.72976 0.20397 -1.11600
O 	O 	0.60500 0.85850 0.21050 -0.65900
O 	O 	0.45130 0.72410 0.10230 -0.60700
O 	O 	0.04732 0.77024 0.29603 -1.15100
O 	O 	0.10500 0.64150 0.28950 -0.68400
O 	O 	0.95130 0.77590 0.39770 -0.48700
O 	O 	0.54732 0.27024 0.79603 -1.11200
O 	O 	0.60500 0.14150 0.78950 -0.66300
O 	O 	0.45130 0.27590 0.89770 -0.55500
O 	O 	0.70397 0.95268 0.77024 -0.99900
O 	O 	0.71050 0.89500 0.64150 -0.64300
O 	O 	0.60230 0.04870 0.77590 -0.62800
O 	O 	0.20397 0.45268 0.27024 -1.11900
O 	O 	0.21050 0.39500 0.14150 -0.68500
O 	O 	0.10230 0.54870 0.27590 -0.61100
O 	O 	0.29603 0.95268 0.22976 -1.03000
O 	O 	0.28950 0.89500 0.35850 -0.64600
O 	O 	0.39770 0.04870 0.22410 -0.64800
O 	O 	0.79603 0.45268 0.72976 -1.11000
O 	O 	0.78950 0.39500 0.85850 -0.64400
O 	O 	0.89770 0.54870 0.72410 -0.55200
O 	O 	0.70397 0.04732 0.22976 -1.16100
O 	O 	0.71050 0.10500 0.35850 -0.68300
O 	O 	0.60230 0.95130 0.22410 -0.50300
O 	O 	0.20397 0.54732 0.72976 -1.11600
O 	O 	0.21050 0.60500 0.85850 -0.65900
O 	O 	0.10230 0.45130 0.72410 -0.60700
O 	O 	0.29603 0.04732 0.77024 -1.15100
O 	O 	0.28950 0.10500 0.64150 -0.68400
O 	O 	0.39770 0.95130 0.77590 -0.48700
O 	O 	0.79603 0.54732 0.27024 -1.11200
O 	O 	0.78950 0.60500 0.14150 -0.66300
O 	O 	0.89770 0.45130 0.27590 -0.55500
O 	O 	0.70397 0.77024 0.04732 -1.14100
O 	O 	0.71050 0.64150 0.10500 -0.68200
O 	O 	0.60230 0.77590 0.95130 -0.48500
O 	O 	0.20397 0.27024 0.54732 -1.11900
O 	O 	0.21050 0.14150 0.60500 -0.68200
O 	O 	0.10230 0.27590 0.45130 -0.61100
O 	O 	0.29603 0.22976 0.04732 -1.17200
O 	O 	0.28950 0.35850 0.10500 -0.68500
O 	O 	0.39770 0.22410 0.95130 -0.50500
O 	O 	0.79603 0.72976 0.54732 -1.11000
O 	O 	0.78950 0.85850 0.60500 -0.64000
O 	O 	0.89770 0.72410 0.45130 -0.55100
O 	O 	0.70397 0.22976 0.95268 -1.01900
O 	O 	0.71050 0.35850 0.89500 -0.64400
O 	O 	0.60230 0.22410 0.04870 -0.64600
O 	O 	0.20397 0.72976 0.45268 -1.11700
O 	O 	0.21050 0.85850 0.39500 -0.66200
O 	O 	0.10230 0.72410 0.54870 -0.60700
O 	O 	0.29603 0.77024 0.95268 -1.01000
O 	O 	0.28950 0.64150 0.89500 -0.64400
O 	O 	0.39770 0.77590 0.04870 -0.63000
O 	O 	0.79603 0.27024 0.45268 -1.11200
O 	O 	0.78950 0.14150 0.39500 -0.66700
O 	O 	0.89770 0.27590 0.54870 -0.55600
O 	O 	0.77024 0.95268 0.29603 -1.01000
O 	O 	0.64150 0.89500 0.28950 -0.64400
O 	O 	0.77590 0.04870 0.39770 -0.63000
O 	O 	0.27024 0.45268 0.79603 -1.11200
O 	O 	0.14150 0.39500 0.78950 -0.66700
O 	O 	0.27590 0.54870 0.89770 -0.55600
O 	O 	0.22976 0.95268 0.70397 -1.01900
O 	O 	0.35850 0.89500 0.71050 -0.64400
O 	O 	0.22410 0.04870 0.60230 -0.64600
O 	O 	0.72976 0.45268 0.20397 -1.11700
O 	O 	0.85850 0.39500 0.21050 -0.66200
O 	O 	0.72410 0.54870 0.10230 -0.60700
O 	O 	0.22976 0.04732 0.29603 -1.17200
O 	O 	0.35850 0.10500 0.28950 -0.68500
O 	O 	0.22410 0.95130 0.39770 -0.50500
O 	O 	0.72976 0.54732 0.79603 -1.11000
O 	O 	0.85850 0.60500 0.78950 -0.64000
O 	O 	0.72410 0.45130 0.89770 -0.55100
O 	O 	0.77024 0.04732 0.70397 -1.14100
O 	O 	0.64150 0.10500 0.71050 -0.68200
O 	O 	0.77590 0.95130 0.60230 -0.48500
O 	O 	0.27024 0.54732 0.20397 -1.11900
O 	O 	0.14150 0.60500 0.21050 -0.68200
O 	O 	0.27590 0.45130 0.10230 -0.61100
O 	O 	0.95268 0.70397 0.22976 -1.01900
O 	O 	0.89500 0.71050 0.35850 -0.64400
O 	O 	0.04870 0.60230 0.22410 -0.64600
O 	O 	0.45268 0.20397 0.72976 -1.11700
O 	O 	0.39500 0.21050 0.85850 -0.66200
O 	O 	0.54870 0.10230 0.72410 -0.60700
O 	O 	0.95268 0.29603 0.77024 -1.01000
O 	O 	0.89500 0.28950 0.64150 -0.64400
O 	O 	0.04870 0.39770 0.77590 -0.63000
O 	O 	0.45268 0.79603 0.27024 -1.11200
O 	O 	0.39500 0.78950 0.14150 -0.66700
O 	O 	0.54870 0.89770 0.27590 -0.55600
O 	O 	0.04732 0.70397 0.77024 -1.14100
O 	O 	0.10500 0.71050 0.64150 -0.68200
O 	O 	0.95130 0.60230 0.77590 -0.48500
O 	O 	0.54732 0.20397 0.27024 -1.11900
O 	O 	0.60500 0.21050 0.14150 -0.68200
O 	O 	0.45130 0.10230 0.27590 -0.61100
O 	O 	0.04732 0.29603 0.22976 -1.17200
O 	O 	0.10500 0.28950 0.35850 -0.68500
O 	O 	0.95130 0.39770 0.22410 -0.50500
O 	O 	0.54732 0.79603 0.72976 -1.11000
O 	O 	0.60500 0.78950 0.85850 -0.64000
O 	O 	0.45130 0.89770 0.72410 -0.55100
V 	V 	0.28579 0.28579 0.09440 1.64500
V 	V 	0.78579 0.78579 0.59440 1.65600
V 	V 	0.71421 0.71421 0.09440 1.65100
V 	V 	0.21421 0.21421 0.59440 1.65100
V 	V 	0.71421 0.28579 0.90560 1.66000
V 	V 	0.21421 0.78579 0.40560 1.65200
V 	V 	0.28579 0.71421 0.90560 1.66000
V 	V 	0.78579 0.21421 0.40560 1.65200
V 	V 	0.09440 0.28579 0.28579 1.64500
V 	V 	0.59440 0.78579 0.78579 1.65600
V 	V 	0.09440 0.71421 0.71421 1.65100
V 	V 	0.59440 0.21421 0.21421 1.65100
V 	V 	0.90560 0.71421 0.28579 1.66000
V 	V 	0.40560 0.21421 0.78579 1.65200
V 	V 	0.90560 0.28579 0.71421 1.66000
V 	V 	0.40560 0.78579 0.21421 1.65200
V 	V 	0.28579 0.09440 0.28579 1.64500
V 	V 	0.78579 0.59440 0.78579 1.65600
V 	V 	0.71421 0.09440 0.71421 1.65100
V 	V 	0.21421 0.59440 0.21421 1.65100
V 	V 	0.28579 0.90560 0.71421 1.66000
V 	V 	0.78579 0.40560 0.21421 1.65200
V 	V 	0.71421 0.90560 0.28579 1.66000
V 	V 	0.21421 0.40560 0.78579 1.65200
V 	V 	0.28579 0.28579 0.90560 1.65600
V 	V 	0.78579 0.78579 0.40560 1.65500
V 	V 	0.71421 0.71421 0.90560 1.66300
V 	V 	0.21421 0.21421 0.40560 1.65000
V 	V 	0.28579 0.71421 0.09440 1.64800
V 	V 	0.78579 0.21421 0.59440 1.65300
V 	V 	0.71421 0.28579 0.09440 1.64800
V 	V 	0.21421 0.78579 0.59440 1.65300
V 	V 	0.28579 0.09440 0.71421 1.64800
V 	V 	0.78579 0.59440 0.21421 1.65300
V 	V 	0.71421 0.09440 0.28579 1.64800
V 	V 	0.21421 0.59440 0.78579 1.65300
V 	V 	0.71421 0.90560 0.71421 1.66300
V 	V 	0.21421 0.40560 0.21421 1.65000
V 	V 	0.28579 0.90560 0.28579 1.65600
V 	V 	0.78579 0.40560 0.78579 1.65500
V 	V 	0.09440 0.28579 0.71421 1.64800
V 	V 	0.59440 0.78579 0.21421 1.65300
V 	V 	0.09440 0.71421 0.28579 1.64800
V 	V 	0.59440 0.21421 0.78579 1.65300
V 	V 	0.90560 0.28579 0.28579 1.65600
V 	V 	0.40560 0.78579 0.78579 1.65500
V 	V 	0.90560 0.71421 0.71421 1.66300
V 	V 	0.40560 0.21421 0.21421 1.65000
V 	V 	0.24572 0.24572 -0.00000 1.53800
V 	V 	0.74572 0.74572 0.50000 1.61600
V 	V 	0.75428 0.75428 -0.00000 1.55800
V 	V 	0.25428 0.25428 0.50000 1.61300
V 	V 	0.75428 0.24572 -0.00000 1.54800
V 	V 	0.25428 0.74572 0.50000 1.61500
V 	V 	0.24572 0.75428 -0.00000 1.54800
V 	V 	0.74572 0.25428 0.50000 1.61500
V 	V 	0.00000 0.24572 0.24572 1.53800
V 	V 	0.50000 0.74572 0.74572 1.61600
V 	V 	0.00000 0.75428 0.75428 1.55800
V 	V 	0.50000 0.25428 0.25428 1.61300
V 	V 	0.00000 0.75428 0.24572 1.54800
V 	V 	0.50000 0.25428 0.74572 1.61500
V 	V 	0.00000 0.24572 0.75428 1.54800
V 	V 	0.50000 0.74572 0.25428 1.61500
V 	V 	0.24572 -0.00000 0.24572 1.53800
V 	V 	0.74572 0.50000 0.74572 1.61600
V 	V 	0.75428 0.00000 0.75428 1.55800
V 	V 	0.25428 0.50000 0.25428 1.61300
V 	V 	0.24572 0.00000 0.75428 1.54800
V 	V 	0.74572 0.50000 0.25428 1.61500
V 	V 	0.75428 -0.00000 0.24572 1.54800
V 	V 	0.25428 0.50000 0.74572 1.61500
V 	V 	0.20591 0.34661 -0.00000 1.59800
V 	V 	0.70591 0.84661 0.50000 1.67800
V 	V 	0.79409 0.65339 -0.00000 1.61300
V 	V 	0.29409 0.15339 0.50000 1.66700
V 	V 	0.79409 0.34661 -0.00000 1.61100
V 	V 	0.29409 0.84661 0.50000 1.67700
V 	V 	0.20591 0.65339 -0.00000 1.60000
V 	V 	0.70591 0.15339 0.50000 1.66800
V 	V 	-0.00000 0.20591 0.34661 1.59800
V 	V 	0.50000 0.70591 0.84661 1.67800
V 	V 	-0.00000 0.79409 0.65339 1.61300
V 	V 	0.50000 0.29409 0.15339 1.66700
V 	V 	0.00000 0.79409 0.34661 1.61100
V 	V 	0.50000 0.29409 0.84661 1.67700
V 	V 	0.00000 0.20591 0.65339 1.60000
V 	V 	0.50000 0.70591 0.15339 1.66800
V 	V 	0.34661 -0.00000 0.20591 1.59800
V 	V 	0.84661 0.50000 0.70591 1.67800
V 	V 	0.65339 -0.00000 0.79409 1.61300
V 	V 	0.15339 0.50000 0.29409 1.66700
V 	V 	0.34661 -0.00000 0.79409 1.61100
V 	V 	0.84661 0.50000 0.29409 1.67700
V 	V 	0.65339 -0.00000 0.20591 1.60000
V 	V 	0.15339 0.50000 0.70591 1.66800
V 	V 	0.34661 0.20591 -0.00000 1.59800
V 	V 	0.84661 0.70591 0.50000 1.67800
V 	V 	0.65339 0.79409 -0.00000 1.61300
V 	V 	0.15339 0.29409 0.50000 1.66700
V 	V 	0.34661 0.79409 -0.00000 1.61100
V 	V 	0.84661 0.29409 0.50000 1.67700
V 	V 	0.65339 0.20591 -0.00000 1.60000
V 	V 	0.15339 0.70591 0.50000 1.66800
V 	V 	0.20591 -0.00000 0.65339 1.60000
V 	V 	0.70591 0.50000 0.15339 1.66800
V 	V 	0.79409 -0.00000 0.34661 1.61100
V 	V 	0.29409 0.50000 0.84661 1.67700
V 	V 	0.79409 -0.00000 0.65339 1.61300
V 	V 	0.29409 0.50000 0.15339 1.66700
V 	V 	0.20591 -0.00000 0.34661 1.59800
V 	V 	0.70591 0.50000 0.84661 1.67800
V 	V 	0.00000 0.34661 0.79409 1.61100
V 	V 	0.50000 0.84661 0.29409 1.67700
V 	V 	0.00000 0.65339 0.20591 1.60000
V 	V 	0.50000 0.15339 0.70591 1.66800
V 	V 	-0.00000 0.34661 0.20591 1.59800
V 	V 	0.50000 0.84661 0.70591 1.67800
V 	V 	-0.00000 0.65339 0.79409 1.61300
V 	V 	0.50000 0.15339 0.29409 1.66700
P 	P 	0.40019 0.25000 0.09981 0.59400
P 	P 	0.59981 0.75000 0.09981 0.59400
P 	P 	0.59981 0.25000 0.90019 0.58800
P 	P 	0.40019 0.75000 0.90019 0.58800
P 	P 	0.09981 0.40019 0.25000 0.59400
P 	P 	0.09981 0.59981 0.75000 0.59400
P 	P 	0.90019 0.59981 0.25000 0.58800
P 	P 	0.90019 0.40019 0.75000 0.58800
P 	P 	0.25000 0.09981 0.40019 0.59400
P 	P 	0.75000 0.09981 0.59981 0.59400
P 	P 	0.25000 0.90019 0.59981 0.58800
P 	P 	0.75000 0.90019 0.40019 0.58800
P 	P 	0.25000 0.40019 0.90019 0.58800
P 	P 	0.75000 0.59981 0.90019 0.58800
P 	P 	0.25000 0.59981 0.09981 0.59400
P 	P 	0.75000 0.40019 0.09981 0.59400
P 	P 	0.40019 0.09981 0.75000 0.59400
P 	P 	0.59981 0.09981 0.25000 0.59400
P 	P 	0.59981 0.90019 0.75000 0.58800
P 	P 	0.40019 0.90019 0.25000 0.58800
P 	P 	0.09981 0.25000 0.59981 0.59400
P 	P 	0.09981 0.75000 0.40019 0.59400
P 	P 	0.90019 0.25000 0.40019 0.58800
P 	P 	0.90019 0.75000 0.59981 0.58800
P 	P 	0.59981 0.75000 0.90019 0.58800
P 	P 	0.09981 0.25000 0.40019 0.59400
P 	P 	0.40019 0.25000 0.90019 0.58800
P 	P 	0.40019 0.75000 0.09981 0.59400
P 	P 	0.59981 0.25000 0.09981 0.59400
P 	P 	0.90019 0.59981 0.75000 0.58800
P 	P 	0.40019 0.09981 0.25000 0.59400
P 	P 	0.90019 0.40019 0.25000 0.58800
P 	P 	0.09981 0.40019 0.75000 0.59400
P 	P 	0.09981 0.59981 0.25000 0.59400
P 	P 	0.75000 0.90019 0.59981 0.58800
P 	P 	0.25000 0.40019 0.09981 0.59400
P 	P 	0.25000 0.90019 0.40019 0.58800
P 	P 	0.75000 0.09981 0.40019 0.59400
P 	P 	0.25000 0.09981 0.59981 0.59400
P 	P 	0.75000 0.59981 0.09981 0.59400
P 	P 	0.75000 0.40019 0.90019 0.58800
P 	P 	0.25000 0.59981 0.90019 0.58800
P 	P 	0.59981 0.90019 0.25000 0.58800
P 	P 	0.40019 0.90019 0.75000 0.58800
P 	P 	0.59981 0.09981 0.75000 0.59400
P 	P 	0.90019 0.75000 0.40019 0.58800
P 	P 	0.90019 0.25000 0.59981 0.58800
P 	P 	0.09981 0.75000 0.59981 0.59400
