data_crystal

_cell_length_a 30.07420
_cell_length_b 44.93010
_cell_length_c 18.45710
_cell_angle_alpha 90.00000
_cell_angle_beta  107.96100
_cell_angle_gamma 90.00000

_symmetry_space_group_name_	'P 1'
_symmetry_space_group_name_H-M	'P 1'

loop_
_symmetry_equiv_pos_as_xyz
  x,y,z

loop_
_atom_site_label
_atom_site_type_symbol
_atom_site_fract_x
_atom_site_fract_y
_atom_site_fract_z
_atom_site_charge
Cu	Cu	0.23860 0.46001 0.18311 0.90300
Cu	Cu	0.25904 0.42649 0.30619 0.90100
Cu	Cu	0.47050 0.69124 0.78947 0.90000
O 	O 	0.25841 0.49369 0.25246 -0.41700
O 	O 	0.27816 0.46515 0.35643 -0.42300
O 	O 	0.22042 0.42225 0.13080 -0.41000
O 	O 	0.23632 0.39332 0.23634 -0.40800
O 	O 	0.30417 0.45331 0.19238 -0.42500
O 	O 	0.32097 0.42305 0.29309 -0.41500
O 	O 	0.17645 0.46244 0.19503 -0.41400
O 	O 	0.19395 0.43432 0.30085 -0.41000
O 	O 	0.43531 0.66294 0.71180 -0.42200
O 	O 	0.49015 0.65912 0.65387 -0.41800
O 	O 	0.01328 0.22013 0.85377 -0.40800
O 	O 	0.05991 0.22408 0.77690 -0.41500
C 	C 	0.27548 0.48947 0.32270 0.38600
C 	C 	0.29509 0.51557 0.37010 -0.14100
C 	C 	0.30214 0.54247 0.33610 0.06100
H 	H 	0.29190 0.54430 0.28220 0.02100
C 	C 	0.32400 0.56645 0.38060 -0.13600
H 	H 	0.32820 0.58450 0.35690 0.07600
C 	C 	0.33968 0.56411 0.45970 0.09500
C 	C 	0.33220 0.53779 0.49290 -0.14500
H 	H 	0.34140 0.53620 0.54680 0.08100
C 	C 	0.31141 0.51378 0.44880 0.06700
H 	H 	0.30830 0.49560 0.47300 0.01700
C 	C 	0.36590 0.58861 0.50890 -0.04200
C 	C 	0.35002 0.60258 0.56140 0.05600
C 	C 	0.37761 0.62367 0.61100 -0.06000
H 	H 	0.36610 0.63310 0.64770 0.06600
C 	C 	0.42070 0.63082 0.60710 -0.05600
C 	C 	0.43730 0.61764 0.55180 -0.01800
H 	H 	0.46680 0.62340 0.54790 0.04400
C 	C 	0.41140 0.59644 0.50300 -0.04300
H 	H 	0.42300 0.58720 0.46630 0.04200
C 	C 	0.45118 0.65330 0.66280 0.35600
C 	C 	0.30180 0.59940 0.56330 -0.11500
H 	H 	0.29970 0.58090 0.59110 0.08100
H 	H 	0.29490 0.61620 0.59280 0.07400
N 	N 	0.26600 0.59850 0.49050 -0.09500
C 	C 	0.25720 0.62610 0.44290 0.08100
H 	H 	0.27330 0.64460 0.45220 0.01100
N 	N 	0.22580 0.61900 0.39160 -0.09500
C 	C 	0.20600 0.58360 0.39170 -0.03200
H 	H 	0.18200 0.57330 0.35430 0.04400
C 	C 	0.23540 0.57380 0.46340 0.01700
H 	H 	0.23490 0.55520 0.48770 0.02800
C 	C 	0.19890 0.63310 0.31320 -0.27300
H 	H 	0.17420 0.61940 0.28480 0.10900
H 	H 	0.22060 0.63670 0.28410 0.10800
H 	H 	0.18480 0.65200 0.32140 0.10700
C 	C 	0.33104 0.43728 0.24220 0.35900
C 	C 	0.38179 0.43635 0.24380 -0.08100
C 	C 	0.39813 0.45866 0.20640 -0.03400
H 	H 	0.37730 0.47350 0.17850 0.04900
C 	C 	0.44467 0.45933 0.20970 0.01800
C 	C 	0.47457 0.43603 0.24760 0.02000
C 	C 	0.45727 0.41379 0.28230 -0.07800
H 	H 	0.47720 0.39800 0.30720 0.07000
C 	C 	0.41099 0.41413 0.28110 0.01700
H 	H 	0.39950 0.39890 0.30630 0.03800
C 	C 	0.46440 0.48870 0.18650 -0.07000
H 	H 	0.43870 0.50210 0.15900 0.04900
H 	H 	0.48460 0.49910 0.23200 0.04200
N 	N 	0.49110 0.47930 0.13780 -0.10500
C 	C 	0.46710 0.46350 0.06370 0.08900
H 	H 	0.43470 0.45940 0.04130 0.01000
N 	N 	0.49680 0.45780 0.04160 -0.09700
C 	C 	0.54810 0.47610 0.08330 -0.02800
H 	H 	0.57550 0.47780 0.06850 0.04600
C 	C 	0.53690 0.48810 0.14780 0.01800
H 	H 	0.55650 0.49960 0.18840 0.02600
C 	C 	0.50920 0.43550 0.98700 -0.27000
H 	H 	0.53880 0.44120 0.97940 0.11100
H 	H 	0.48440 0.43550 0.93790 0.10600
H 	H 	0.51210 0.41550 0.00910 0.10900
C 	C 	0.22089 0.39784 0.16630 0.33200
C 	C 	0.19921 0.37147 0.11550 -0.05500
C 	C 	0.19908 0.34344 0.14640 -0.05300
H 	H 	0.21500 0.34030 0.19890 0.06700
C 	C 	0.17720 0.32071 0.10400 0.03700
C 	C 	0.15390 0.32427 0.02660 -0.02900
C 	C 	0.15190 0.35226 0.99470 -0.05000
H 	H 	0.13520 0.35540 0.94250 0.04700
C 	C 	0.17460 0.37553 0.04020 -0.01600
H 	H 	0.17320 0.39480 0.01870 0.04900
C 	C 	0.12550 0.29949 0.97950 0.05300
C 	C 	0.08440 0.29154 0.99200 -0.10000
H 	H 	0.07240 0.30130 0.02760 0.06300
C 	C 	0.06100 0.26646 0.94460 0.00800
H 	H 	0.03470 0.25770 0.95450 0.04000
C 	C 	0.07587 0.25492 0.88500 -0.07800
C 	C 	0.11380 0.26644 0.87090 -0.03000
H 	H 	0.12390 0.25930 0.83010 0.02900
C 	C 	0.13780 0.28938 0.91880 -0.09200
H 	H 	0.16380 0.29830 0.90830 0.05900
C 	C 	0.04726 0.23029 0.83650 0.32400
C 	C 	0.19750 0.29060 0.13120 -0.10100
H 	H 	0.18250 0.28400 0.16930 0.06000
H 	H 	0.18590 0.27700 0.08710 0.06500
N 	N 	0.24820 0.28390 0.16480 -0.10000
C 	C 	0.28190 0.28820 0.11930 0.08400
H 	H 	0.27640 0.29390 0.06770 0.01100
N 	N 	0.31530 0.28260 0.16500 -0.08900
C 	C 	0.31250 0.26290 0.24490 -0.03600
H 	H 	0.33570 0.25220 0.28270 0.03900
C 	C 	0.26420 0.26810 0.23510 0.00800
H 	H 	0.24670 0.26230 0.26780 0.02500
C 	C 	0.36240 0.27030 0.15580 -0.35300
H 	H 	0.38380 0.26480 0.20580 0.16800
H 	H 	0.37700 0.28570 0.13300 0.15200
H 	H 	0.35580 0.25270 0.12270 0.14700
C 	C 	0.16663 0.44937 0.24840 0.35000
C 	C 	0.11708 0.45163 0.25040 -0.08000
C 	C 	0.08486 0.46632 0.19680 -0.03200
H 	H 	0.09230 0.47350 0.15350 0.05400
C 	C 	0.04074 0.47146 0.20240 0.01500
C 	C 	0.02480 0.45483 0.25030 -0.00400
C 	C 	0.05609 0.43655 0.29840 -0.07300
H 	H 	0.04640 0.42480 0.33370 0.05500
C 	C 	0.10182 0.43451 0.29740 0.00700
H 	H 	0.12260 0.42080 0.33030 0.04000
C 	C 	0.00250 0.49580 0.17930 -0.08600
H 	H 	0.97860 0.48940 0.20270 0.06300
H 	H 	0.01730 0.51370 0.20810 0.05500
N 	N 	0.97610 0.50700 0.10560 -0.10000
C 	C 	0.97580 0.54010 0.08880 0.07500
H 	H 	0.99270 0.55550 0.12090 0.00800
N 	N 	0.95030 0.54210 0.02800 -0.09100
C 	C 	0.92230 0.50960 0.99240 -0.03100
H 	H 	0.89680 0.50670 0.94740 0.04500
C 	C 	0.94610 0.48860 0.04600 0.01400
H 	H 	0.94330 0.46760 0.04340 0.03100
C 	C 	0.92560 0.56810 0.97560 -0.29100
H 	H 	0.90260 0.56010 0.92990 0.12500
H 	H 	0.94890 0.57990 0.96100 0.11700
H 	H 	0.90970 0.58080 0.00310 0.11700
Cu	Cu	0.73860 0.96001 0.18311 0.90400
Cu	Cu	0.75904 0.92649 0.30619 0.90200
Cu	Cu	0.97050 0.19124 0.78947 0.90100
O 	O 	0.75841 0.99369 0.25246 -0.41600
O 	O 	0.77816 0.96515 0.35643 -0.42200
O 	O 	0.72042 0.92225 0.13080 -0.40900
O 	O 	0.73632 0.89332 0.23634 -0.40700
O 	O 	0.80417 0.95331 0.19238 -0.42400
O 	O 	0.82097 0.92305 0.29309 -0.41400
O 	O 	0.67645 0.96244 0.19503 -0.41300
O 	O 	0.69395 0.93432 0.30085 -0.40900
O 	O 	0.93531 0.16294 0.71180 -0.42100
O 	O 	0.99015 0.15912 0.65387 -0.41700
O 	O 	0.51328 0.72013 0.85377 -0.40700
O 	O 	0.55991 0.72408 0.77690 -0.41400
C 	C 	0.77548 0.98947 0.32270 0.38700
C 	C 	0.79509 0.01557 0.37010 -0.14000
C 	C 	0.80214 0.04247 0.33610 0.06200
H 	H 	0.79190 0.04430 0.28220 0.02200
C 	C 	0.82400 0.06645 0.38060 -0.13500
H 	H 	0.82820 0.08450 0.35690 0.07700
C 	C 	0.83968 0.06411 0.45970 0.09600
C 	C 	0.83220 0.03779 0.49290 -0.14400
H 	H 	0.84140 0.03620 0.54680 0.08200
C 	C 	0.81141 0.01378 0.44880 0.06800
H 	H 	0.80830 0.99560 0.47300 0.01800
C 	C 	0.86590 0.08861 0.50890 -0.04200
C 	C 	0.85002 0.10258 0.56140 0.05600
C 	C 	0.87761 0.12367 0.61100 -0.06000
H 	H 	0.86610 0.13310 0.64770 0.06600
C 	C 	0.92070 0.13082 0.60710 -0.05600
C 	C 	0.93730 0.11764 0.55180 -0.01800
H 	H 	0.96680 0.12340 0.54790 0.04400
C 	C 	0.91140 0.09644 0.50300 -0.04300
H 	H 	0.92300 0.08720 0.46630 0.04200
C 	C 	0.95118 0.15330 0.66280 0.35600
C 	C 	0.80180 0.09940 0.56330 -0.11500
H 	H 	0.79970 0.08090 0.59110 0.08100
H 	H 	0.79490 0.11620 0.59280 0.07400
N 	N 	0.76600 0.09850 0.49050 -0.09500
C 	C 	0.75720 0.12610 0.44290 0.08100
H 	H 	0.77330 0.14460 0.45220 0.01100
N 	N 	0.72580 0.11900 0.39160 -0.09500
C 	C 	0.70600 0.08360 0.39170 -0.03200
H 	H 	0.68200 0.07330 0.35430 0.04400
C 	C 	0.73540 0.07380 0.46340 0.01700
H 	H 	0.73490 0.05520 0.48770 0.02800
C 	C 	0.69890 0.13310 0.31320 -0.27300
H 	H 	0.67420 0.11940 0.28480 0.10900
H 	H 	0.72060 0.13670 0.28410 0.10800
H 	H 	0.68480 0.15200 0.32140 0.10700
C 	C 	0.83104 0.93728 0.24220 0.35900
C 	C 	0.88179 0.93635 0.24380 -0.08100
C 	C 	0.89813 0.95866 0.20640 -0.03400
H 	H 	0.87730 0.97350 0.17850 0.04900
C 	C 	0.94467 0.95933 0.20970 0.01800
C 	C 	0.97457 0.93603 0.24760 0.02100
C 	C 	0.95727 0.91379 0.28230 -0.07800
H 	H 	0.97720 0.89800 0.30720 0.07000
C 	C 	0.91099 0.91413 0.28110 0.01800
H 	H 	0.89950 0.89890 0.30630 0.03800
C 	C 	0.96440 0.98870 0.18650 -0.07000
H 	H 	0.93870 0.00210 0.15900 0.04900
H 	H 	0.98460 0.99910 0.23200 0.04200
N 	N 	0.99110 0.97930 0.13780 -0.10500
C 	C 	0.96710 0.96350 0.06370 0.08900
H 	H 	0.93470 0.95940 0.04130 0.01000
N 	N 	0.99680 0.95780 0.04160 -0.09700
C 	C 	0.04810 0.97610 0.08330 -0.02800
H 	H 	0.07550 0.97780 0.06850 0.04600
C 	C 	0.03690 0.98810 0.14780 0.01800
H 	H 	0.05650 0.99960 0.18840 0.02600
C 	C 	0.00920 0.93550 0.98700 -0.26800
H 	H 	0.03880 0.94120 0.97940 0.11000
H 	H 	0.98440 0.93550 0.93790 0.10500
H 	H 	0.01210 0.91550 0.00910 0.10800
C 	C 	0.72089 0.89784 0.16630 0.33200
C 	C 	0.69921 0.87147 0.11550 -0.05600
C 	C 	0.69908 0.84344 0.14640 -0.05300
H 	H 	0.71500 0.84030 0.19890 0.06700
C 	C 	0.67720 0.82071 0.10400 0.03700
C 	C 	0.65390 0.82427 0.02660 -0.02800
C 	C 	0.65190 0.85226 0.99470 -0.05100
H 	H 	0.63520 0.85540 0.94250 0.04800
C 	C 	0.67460 0.87553 0.04020 -0.01400
H 	H 	0.67320 0.89480 0.01870 0.04900
C 	C 	0.62550 0.79949 0.97950 0.05200
C 	C 	0.58440 0.79154 0.99200 -0.10100
H 	H 	0.57240 0.80130 0.02760 0.06300
C 	C 	0.56100 0.76646 0.94460 0.00800
H 	H 	0.53470 0.75770 0.95450 0.04000
C 	C 	0.57587 0.75492 0.88500 -0.07800
C 	C 	0.61380 0.76644 0.87090 -0.03000
H 	H 	0.62390 0.75930 0.83010 0.02900
C 	C 	0.63780 0.78938 0.91880 -0.09200
H 	H 	0.66380 0.79830 0.90830 0.05900
C 	C 	0.54726 0.73029 0.83650 0.32400
C 	C 	0.69750 0.79060 0.13120 -0.10000
H 	H 	0.68250 0.78400 0.16930 0.06000
H 	H 	0.68590 0.77700 0.08710 0.06500
N 	N 	0.74820 0.78390 0.16480 -0.10000
C 	C 	0.78190 0.78820 0.11930 0.08400
H 	H 	0.77640 0.79390 0.06770 0.01100
N 	N 	0.81530 0.78260 0.16500 -0.08900
C 	C 	0.81250 0.76290 0.24490 -0.03600
H 	H 	0.83570 0.75220 0.28270 0.03900
C 	C 	0.76420 0.76810 0.23510 0.00800
H 	H 	0.74670 0.76230 0.26780 0.02600
C 	C 	0.86240 0.77030 0.15580 -0.35300
H 	H 	0.88380 0.76480 0.20580 0.16800
H 	H 	0.87700 0.78570 0.13300 0.15200
H 	H 	0.85580 0.75270 0.12270 0.14700
C 	C 	0.66663 0.94937 0.24840 0.35000
C 	C 	0.61708 0.95163 0.25040 -0.08000
C 	C 	0.58486 0.96632 0.19680 -0.03200
H 	H 	0.59230 0.97350 0.15350 0.05400
C 	C 	0.54074 0.97146 0.20240 0.01400
C 	C 	0.52480 0.95483 0.25030 -0.00300
C 	C 	0.55609 0.93655 0.29840 -0.07400
H 	H 	0.54640 0.92480 0.33370 0.05500
C 	C 	0.60182 0.93451 0.29740 0.00800
H 	H 	0.62260 0.92080 0.33030 0.03900
C 	C 	0.50250 0.99580 0.17930 -0.08500
H 	H 	0.47860 0.98940 0.20270 0.06300
H 	H 	0.51730 0.01370 0.20810 0.05500
N 	N 	0.47610 0.00700 0.10560 -0.10000
C 	C 	0.47580 0.04010 0.08880 0.07500
H 	H 	0.49270 0.05550 0.12090 0.00800
N 	N 	0.45030 0.04210 0.02800 -0.09200
C 	C 	0.42230 0.00960 0.99240 -0.03000
H 	H 	0.39680 0.00670 0.94740 0.04500
C 	C 	0.44610 0.98860 0.04600 0.01300
H 	H 	0.44330 0.96760 0.04340 0.03200
C 	C 	0.42560 0.06810 0.97560 -0.28900
H 	H 	0.40260 0.06010 0.92990 0.12500
H 	H 	0.44890 0.07990 0.96100 0.11700
H 	H 	0.40970 0.08080 0.00310 0.11600
Cu	Cu	0.76140 0.46001 0.31689 0.90400
Cu	Cu	0.74096 0.42649 0.19381 0.90200
Cu	Cu	0.52950 0.69124 0.71053 0.90100
O 	O 	0.74159 0.49369 0.24754 -0.41600
O 	O 	0.72184 0.46515 0.14357 -0.42200
O 	O 	0.77958 0.42225 0.36920 -0.40900
O 	O 	0.76368 0.39332 0.26366 -0.40700
O 	O 	0.69583 0.45331 0.30762 -0.42400
O 	O 	0.67903 0.42305 0.20691 -0.41400
O 	O 	0.82355 0.46244 0.30497 -0.41300
O 	O 	0.80605 0.43432 0.19915 -0.40900
O 	O 	0.56469 0.66294 0.78820 -0.42100
O 	O 	0.50985 0.65912 0.84613 -0.41700
O 	O 	0.98672 0.22013 0.64623 -0.40700
O 	O 	0.94009 0.22408 0.72310 -0.41400
C 	C 	0.72452 0.48947 0.17730 0.38700
C 	C 	0.70491 0.51557 0.12990 -0.14000
C 	C 	0.69786 0.54247 0.16390 0.06200
H 	H 	0.70810 0.54430 0.21780 0.02200
C 	C 	0.67600 0.56645 0.11940 -0.13500
H 	H 	0.67180 0.58450 0.14310 0.07700
C 	C 	0.66032 0.56411 0.04030 0.09600
C 	C 	0.66780 0.53779 0.00710 -0.14400
H 	H 	0.65860 0.53620 0.95320 0.08200
C 	C 	0.68859 0.51378 0.05120 0.06800
H 	H 	0.69170 0.49560 0.02700 0.01800
C 	C 	0.63410 0.58861 0.99110 -0.04200
C 	C 	0.64998 0.60258 0.93860 0.05600
C 	C 	0.62239 0.62367 0.88900 -0.06000
H 	H 	0.63390 0.63310 0.85230 0.06600
C 	C 	0.57930 0.63082 0.89290 -0.05600
C 	C 	0.56270 0.61764 0.94820 -0.01800
H 	H 	0.53320 0.62340 0.95210 0.04400
C 	C 	0.58860 0.59644 0.99700 -0.04300
H 	H 	0.57700 0.58720 0.03370 0.04200
C 	C 	0.54882 0.65330 0.83720 0.35600
C 	C 	0.69820 0.59940 0.93670 -0.11500
H 	H 	0.70030 0.58090 0.90890 0.08100
H 	H 	0.70510 0.61620 0.90720 0.07400
N 	N 	0.73400 0.59850 0.00950 -0.09500
C 	C 	0.74280 0.62610 0.05710 0.08100
H 	H 	0.72670 0.64460 0.04780 0.01100
N 	N 	0.77420 0.61900 0.10840 -0.09500
C 	C 	0.79400 0.58360 0.10830 -0.03200
H 	H 	0.81800 0.57330 0.14570 0.04400
C 	C 	0.76460 0.57380 0.03660 0.01700
H 	H 	0.76510 0.55520 0.01230 0.02800
C 	C 	0.80110 0.63310 0.18680 -0.27300
H 	H 	0.82580 0.61940 0.21520 0.10900
H 	H 	0.77940 0.63670 0.21590 0.10800
H 	H 	0.81520 0.65200 0.17860 0.10700
C 	C 	0.66896 0.43728 0.25780 0.35900
C 	C 	0.61821 0.43635 0.25620 -0.08100
C 	C 	0.60187 0.45866 0.29360 -0.03400
H 	H 	0.62270 0.47350 0.32150 0.04900
C 	C 	0.55533 0.45933 0.29030 0.01800
C 	C 	0.52543 0.43603 0.25240 0.02000
C 	C 	0.54273 0.41379 0.21770 -0.07800
H 	H 	0.52280 0.39800 0.19280 0.07000
C 	C 	0.58901 0.41413 0.21890 0.01700
H 	H 	0.60050 0.39890 0.19370 0.03800
C 	C 	0.53560 0.48870 0.31350 -0.07000
H 	H 	0.56130 0.50210 0.34100 0.04900
H 	H 	0.51540 0.49910 0.26800 0.04200
N 	N 	0.50890 0.47930 0.36220 -0.10500
C 	C 	0.53290 0.46350 0.43630 0.08900
H 	H 	0.56530 0.45940 0.45870 0.01000
N 	N 	0.50320 0.45780 0.45840 -0.09700
C 	C 	0.45190 0.47610 0.41670 -0.02800
H 	H 	0.42450 0.47780 0.43150 0.04600
C 	C 	0.46310 0.48810 0.35220 0.01800
H 	H 	0.44350 0.49960 0.31160 0.02600
C 	C 	0.49080 0.43550 0.51300 -0.27000
H 	H 	0.46120 0.44120 0.52060 0.11100
H 	H 	0.51560 0.43550 0.56210 0.10600
H 	H 	0.48790 0.41550 0.49090 0.10900
C 	C 	0.77911 0.39784 0.33370 0.33200
C 	C 	0.80079 0.37147 0.38450 -0.05500
C 	C 	0.80092 0.34344 0.35360 -0.05300
H 	H 	0.78500 0.34030 0.30110 0.06700
C 	C 	0.82280 0.32071 0.39600 0.03700
C 	C 	0.84610 0.32427 0.47340 -0.02800
C 	C 	0.84810 0.35226 0.50530 -0.05100
H 	H 	0.86480 0.35540 0.55750 0.04800
C 	C 	0.82540 0.37553 0.45980 -0.01500
H 	H 	0.82680 0.39480 0.48130 0.04900
C 	C 	0.87450 0.29949 0.52050 0.05200
C 	C 	0.91560 0.29154 0.50800 -0.10100
H 	H 	0.92760 0.30130 0.47240 0.06300
C 	C 	0.93900 0.26646 0.55540 0.00800
H 	H 	0.96530 0.25770 0.54550 0.04000
C 	C 	0.92413 0.25492 0.61500 -0.07800
C 	C 	0.88620 0.26644 0.62910 -0.03000
H 	H 	0.87610 0.25930 0.66990 0.02900
C 	C 	0.86220 0.28938 0.58120 -0.09200
H 	H 	0.83620 0.29830 0.59170 0.05900
C 	C 	0.95274 0.23029 0.66350 0.32400
C 	C 	0.80250 0.29060 0.36880 -0.10100
H 	H 	0.81750 0.28400 0.33070 0.06000
H 	H 	0.81410 0.27700 0.41290 0.06500
N 	N 	0.75180 0.28390 0.33520 -0.10000
C 	C 	0.71810 0.28820 0.38070 0.08400
H 	H 	0.72360 0.29390 0.43230 0.01100
N 	N 	0.68470 0.28260 0.33500 -0.08900
C 	C 	0.68750 0.26290 0.25510 -0.03600
H 	H 	0.66430 0.25220 0.21730 0.03900
C 	C 	0.73580 0.26810 0.26490 0.00800
H 	H 	0.75330 0.26230 0.23220 0.02600
C 	C 	0.63760 0.27030 0.34420 -0.35300
H 	H 	0.61620 0.26480 0.29420 0.16800
H 	H 	0.62300 0.28570 0.36700 0.15200
H 	H 	0.64420 0.25270 0.37730 0.14700
C 	C 	0.83337 0.44937 0.25160 0.35000
C 	C 	0.88292 0.45163 0.24960 -0.08100
C 	C 	0.91514 0.46632 0.30320 -0.03200
H 	H 	0.90770 0.47350 0.34650 0.05400
C 	C 	0.95926 0.47146 0.29760 0.01400
C 	C 	0.97520 0.45483 0.24970 -0.00300
C 	C 	0.94391 0.43655 0.20160 -0.07400
H 	H 	0.95360 0.42480 0.16630 0.05500
C 	C 	0.89818 0.43451 0.20260 0.00800
H 	H 	0.87740 0.42080 0.16970 0.03900
C 	C 	0.99750 0.49580 0.32070 -0.08500
H 	H 	0.02140 0.48940 0.29730 0.06200
H 	H 	0.98270 0.51370 0.29190 0.05500
N 	N 	0.02390 0.50700 0.39440 -0.10000
C 	C 	0.02420 0.54010 0.41120 0.07500
H 	H 	0.00730 0.55550 0.37910 0.00800
N 	N 	0.04970 0.54210 0.47200 -0.09200
C 	C 	0.07770 0.50960 0.50760 -0.03000
H 	H 	0.10320 0.50670 0.55260 0.04500
C 	C 	0.05390 0.48860 0.45400 0.01300
H 	H 	0.05670 0.46760 0.45660 0.03200
C 	C 	0.07440 0.56810 0.52440 -0.29000
H 	H 	0.09740 0.56010 0.57010 0.12500
H 	H 	0.05110 0.57990 0.53900 0.11700
H 	H 	0.09030 0.58080 0.49690 0.11600
Cu	Cu	0.26140 0.96001 0.31689 0.90400
Cu	Cu	0.24096 0.92649 0.19381 0.90200
Cu	Cu	0.02950 0.19124 0.71053 0.90100
O 	O 	0.24159 0.99369 0.24754 -0.41600
O 	O 	0.22184 0.96515 0.14357 -0.42200
O 	O 	0.27958 0.92225 0.36920 -0.40900
O 	O 	0.26368 0.89332 0.26366 -0.40700
O 	O 	0.19583 0.95331 0.30762 -0.42400
O 	O 	0.17903 0.92305 0.20691 -0.41400
O 	O 	0.32355 0.96244 0.30497 -0.41300
O 	O 	0.30605 0.93432 0.19915 -0.41000
O 	O 	0.06469 0.16294 0.78820 -0.42100
O 	O 	0.00985 0.15912 0.84613 -0.41700
O 	O 	0.48672 0.72013 0.64623 -0.40700
O 	O 	0.44009 0.72408 0.72310 -0.41400
C 	C 	0.22452 0.98947 0.17730 0.38700
C 	C 	0.20491 0.01557 0.12990 -0.14000
C 	C 	0.19786 0.04247 0.16390 0.06200
H 	H 	0.20810 0.04430 0.21780 0.02200
C 	C 	0.17600 0.06645 0.11940 -0.13500
H 	H 	0.17180 0.08450 0.14310 0.07700
C 	C 	0.16032 0.06411 0.04030 0.09600
C 	C 	0.16780 0.03779 0.00710 -0.14400
H 	H 	0.15860 0.03620 0.95320 0.08200
C 	C 	0.18859 0.01378 0.05120 0.06800
H 	H 	0.19170 0.99560 0.02700 0.01800
C 	C 	0.13410 0.08861 0.99110 -0.04300
C 	C 	0.14998 0.10258 0.93860 0.05600
C 	C 	0.12239 0.12367 0.88900 -0.06000
H 	H 	0.13390 0.13310 0.85230 0.06600
C 	C 	0.07930 0.13082 0.89290 -0.05600
C 	C 	0.06270 0.11764 0.94820 -0.01900
H 	H 	0.03320 0.12340 0.95210 0.04400
C 	C 	0.08860 0.09644 0.99700 -0.04300
H 	H 	0.07700 0.08720 0.03370 0.04100
C 	C 	0.04882 0.15330 0.83720 0.35500
C 	C 	0.19820 0.09940 0.93670 -0.11500
H 	H 	0.20030 0.08090 0.90890 0.08100
H 	H 	0.20510 0.11620 0.90720 0.07400
N 	N 	0.23400 0.09850 0.00950 -0.09500
C 	C 	0.24280 0.12610 0.05710 0.08100
H 	H 	0.22670 0.14460 0.04780 0.01100
N 	N 	0.27420 0.11900 0.10840 -0.09500
C 	C 	0.29400 0.08360 0.10830 -0.03200
H 	H 	0.31800 0.07330 0.14570 0.04400
C 	C 	0.26460 0.07380 0.03660 0.01700
H 	H 	0.26510 0.05520 0.01230 0.02800
C 	C 	0.30110 0.13310 0.18680 -0.27300
H 	H 	0.32580 0.11940 0.21520 0.10900
H 	H 	0.27940 0.13670 0.21590 0.10800
H 	H 	0.31520 0.15200 0.17860 0.10700
C 	C 	0.16896 0.93728 0.25780 0.35900
C 	C 	0.11821 0.93635 0.25620 -0.08100
C 	C 	0.10187 0.95866 0.29360 -0.03400
H 	H 	0.12270 0.97350 0.32150 0.04900
C 	C 	0.05533 0.95933 0.29030 0.01800
C 	C 	0.02543 0.93603 0.25240 0.02000
C 	C 	0.04273 0.91379 0.21770 -0.07800
H 	H 	0.02280 0.89800 0.19280 0.07000
C 	C 	0.08901 0.91413 0.21890 0.01700
H 	H 	0.10050 0.89890 0.19370 0.03800
C 	C 	0.03560 0.98870 0.31350 -0.07000
H 	H 	0.06130 0.00210 0.34100 0.04900
H 	H 	0.01540 0.99910 0.26800 0.04200
N 	N 	0.00890 0.97930 0.36220 -0.10600
C 	C 	0.03290 0.96350 0.43630 0.08900
H 	H 	0.06530 0.95940 0.45870 0.01000
N 	N 	0.00320 0.95780 0.45840 -0.09700
C 	C 	0.95190 0.97610 0.41670 -0.02800
H 	H 	0.92450 0.97780 0.43150 0.04600
C 	C 	0.96310 0.98810 0.35220 0.01800
H 	H 	0.94350 0.99960 0.31160 0.02600
C 	C 	0.99080 0.93550 0.51300 -0.27000
H 	H 	0.96120 0.94120 0.52060 0.11100
H 	H 	0.01560 0.93550 0.56210 0.10600
H 	H 	0.98790 0.91550 0.49090 0.10900
C 	C 	0.27911 0.89784 0.33370 0.33200
C 	C 	0.30079 0.87147 0.38450 -0.05500
C 	C 	0.30092 0.84344 0.35360 -0.05300
H 	H 	0.28500 0.84030 0.30110 0.06700
C 	C 	0.32280 0.82071 0.39600 0.03700
C 	C 	0.34610 0.82427 0.47340 -0.02800
C 	C 	0.34810 0.85226 0.50530 -0.05100
H 	H 	0.36480 0.85540 0.55750 0.04800
C 	C 	0.32540 0.87553 0.45980 -0.01500
H 	H 	0.32680 0.89480 0.48130 0.04900
C 	C 	0.37450 0.79949 0.52050 0.05200
C 	C 	0.41560 0.79154 0.50800 -0.10100
H 	H 	0.42760 0.80130 0.47240 0.06300
C 	C 	0.43900 0.76646 0.55540 0.00800
H 	H 	0.46530 0.75770 0.54550 0.04000
C 	C 	0.42413 0.75492 0.61500 -0.07800
C 	C 	0.38620 0.76644 0.62910 -0.03000
H 	H 	0.37610 0.75930 0.66990 0.02900
C 	C 	0.36220 0.78938 0.58120 -0.09200
H 	H 	0.33620 0.79830 0.59170 0.05900
C 	C 	0.45274 0.73029 0.66350 0.32400
C 	C 	0.30250 0.79060 0.36880 -0.10100
H 	H 	0.31750 0.78400 0.33070 0.06000
H 	H 	0.31410 0.77700 0.41290 0.06500
N 	N 	0.25180 0.78390 0.33520 -0.10000
C 	C 	0.21810 0.78820 0.38070 0.08400
H 	H 	0.22360 0.79390 0.43230 0.01100
N 	N 	0.18470 0.78260 0.33500 -0.08900
C 	C 	0.18750 0.76290 0.25510 -0.03600
H 	H 	0.16430 0.75220 0.21730 0.03900
C 	C 	0.23580 0.76810 0.26490 0.00800
H 	H 	0.25330 0.76230 0.23220 0.02500
C 	C 	0.13760 0.77030 0.34420 -0.35300
H 	H 	0.11620 0.76480 0.29420 0.16800
H 	H 	0.12300 0.78570 0.36700 0.15200
H 	H 	0.14420 0.75270 0.37730 0.14700
C 	C 	0.33337 0.94937 0.25160 0.35000
C 	C 	0.38292 0.95163 0.24960 -0.08000
C 	C 	0.41514 0.96632 0.30320 -0.03200
H 	H 	0.40770 0.97350 0.34650 0.05400
C 	C 	0.45926 0.97146 0.29760 0.01400
C 	C 	0.47520 0.95483 0.24970 -0.00300
C 	C 	0.44391 0.93655 0.20160 -0.07400
H 	H 	0.45360 0.92480 0.16630 0.05500
C 	C 	0.39818 0.93451 0.20260 0.00800
H 	H 	0.37740 0.92080 0.16970 0.03900
C 	C 	0.49750 0.99580 0.32070 -0.08500
H 	H 	0.52140 0.98940 0.29730 0.06300
H 	H 	0.48270 0.01370 0.29190 0.05500
N 	N 	0.52390 0.00700 0.39440 -0.10000
C 	C 	0.52420 0.04010 0.41120 0.07500
H 	H 	0.50730 0.05550 0.37910 0.00800
N 	N 	0.54970 0.04210 0.47200 -0.09200
C 	C 	0.57770 0.00960 0.50760 -0.03000
H 	H 	0.60320 0.00670 0.55260 0.04500
C 	C 	0.55390 0.98860 0.45400 0.01300
H 	H 	0.55670 0.96760 0.45660 0.03200
C 	C 	0.57440 0.06810 0.52440 -0.29000
H 	H 	0.59740 0.06010 0.57010 0.12500
H 	H 	0.55110 0.07990 0.53900 0.11700
H 	H 	0.59030 0.08080 0.49690 0.11600
Cu	Cu	0.76140 0.53999 0.81689 0.90400
Cu	Cu	0.74096 0.57351 0.69381 0.90200
Cu	Cu	0.52950 0.30876 0.21053 0.90100
O 	O 	0.74159 0.50631 0.74754 -0.41600
O 	O 	0.72184 0.53485 0.64357 -0.42200
O 	O 	0.77958 0.57775 0.86920 -0.40900
O 	O 	0.76368 0.60668 0.76366 -0.40700
O 	O 	0.69583 0.54669 0.80762 -0.42400
O 	O 	0.67903 0.57695 0.70691 -0.41400
O 	O 	0.82355 0.53756 0.80497 -0.41300
O 	O 	0.80605 0.56568 0.69915 -0.40900
O 	O 	0.56469 0.33706 0.28820 -0.42100
O 	O 	0.50985 0.34088 0.34613 -0.41700
O 	O 	0.98672 0.77987 0.14623 -0.40700
O 	O 	0.94009 0.77592 0.22310 -0.41400
C 	C 	0.72452 0.51053 0.67730 0.38700
C 	C 	0.70491 0.48443 0.62990 -0.14000
C 	C 	0.69786 0.45753 0.66390 0.06200
H 	H 	0.70810 0.45570 0.71780 0.02200
C 	C 	0.67600 0.43355 0.61940 -0.13500
H 	H 	0.67180 0.41550 0.64310 0.07700
C 	C 	0.66032 0.43589 0.54030 0.09600
C 	C 	0.66780 0.46221 0.50710 -0.14400
H 	H 	0.65860 0.46380 0.45320 0.08200
C 	C 	0.68859 0.48622 0.55120 0.06800
H 	H 	0.69170 0.50440 0.52700 0.01800
C 	C 	0.63410 0.41139 0.49110 -0.04200
C 	C 	0.64998 0.39742 0.43860 0.05600
C 	C 	0.62239 0.37633 0.38900 -0.06000
H 	H 	0.63390 0.36690 0.35230 0.06600
C 	C 	0.57930 0.36918 0.39290 -0.05600
C 	C 	0.56270 0.38236 0.44820 -0.01800
H 	H 	0.53320 0.37660 0.45210 0.04400
C 	C 	0.58860 0.40356 0.49700 -0.04300
H 	H 	0.57700 0.41280 0.53370 0.04200
C 	C 	0.54882 0.34670 0.33720 0.35600
C 	C 	0.69820 0.40060 0.43670 -0.11500
H 	H 	0.70030 0.41910 0.40890 0.08100
H 	H 	0.70510 0.38380 0.40720 0.07400
N 	N 	0.73400 0.40150 0.50950 -0.09500
C 	C 	0.74280 0.37390 0.55710 0.08100
H 	H 	0.72670 0.35540 0.54780 0.01100
N 	N 	0.77420 0.38100 0.60840 -0.09500
C 	C 	0.79400 0.41640 0.60830 -0.03200
H 	H 	0.81800 0.42670 0.64570 0.04400
C 	C 	0.76460 0.42620 0.53660 0.01700
H 	H 	0.76510 0.44480 0.51230 0.02800
C 	C 	0.80110 0.36690 0.68680 -0.27300
H 	H 	0.82580 0.38060 0.71520 0.10900
H 	H 	0.77940 0.36330 0.71590 0.10800
H 	H 	0.81520 0.34800 0.67860 0.10700
C 	C 	0.66896 0.56272 0.75780 0.35900
C 	C 	0.61821 0.56365 0.75620 -0.08100
C 	C 	0.60187 0.54134 0.79360 -0.03400
H 	H 	0.62270 0.52650 0.82150 0.04900
C 	C 	0.55533 0.54067 0.79030 0.01800
C 	C 	0.52543 0.56397 0.75240 0.02000
C 	C 	0.54273 0.58621 0.71770 -0.07800
H 	H 	0.52280 0.60200 0.69280 0.07000
C 	C 	0.58901 0.58587 0.71890 0.01700
H 	H 	0.60050 0.60110 0.69370 0.03800
C 	C 	0.53560 0.51130 0.81350 -0.07000
H 	H 	0.56130 0.49790 0.84100 0.04900
H 	H 	0.51540 0.50090 0.76800 0.04200
N 	N 	0.50890 0.52070 0.86220 -0.10500
C 	C 	0.53290 0.53650 0.93630 0.08900
H 	H 	0.56530 0.54060 0.95870 0.01000
N 	N 	0.50320 0.54220 0.95840 -0.09700
C 	C 	0.45190 0.52390 0.91670 -0.02800
H 	H 	0.42450 0.52220 0.93150 0.04600
C 	C 	0.46310 0.51190 0.85220 0.01800
H 	H 	0.44350 0.50040 0.81160 0.02600
C 	C 	0.49080 0.56450 0.01300 -0.27000
H 	H 	0.46120 0.55880 0.02060 0.11100
H 	H 	0.51560 0.56450 0.06210 0.10600
H 	H 	0.48790 0.58450 0.99090 0.10900
C 	C 	0.77911 0.60216 0.83370 0.33200
C 	C 	0.80079 0.62853 0.88450 -0.05500
C 	C 	0.80092 0.65656 0.85360 -0.05300
H 	H 	0.78500 0.65970 0.80110 0.06700
C 	C 	0.82280 0.67929 0.89600 0.03700
C 	C 	0.84610 0.67573 0.97340 -0.02900
C 	C 	0.84810 0.64774 0.00530 -0.05000
H 	H 	0.86480 0.64460 0.05750 0.04700
C 	C 	0.82540 0.62447 0.95980 -0.01600
H 	H 	0.82680 0.60520 0.98130 0.04900
C 	C 	0.87450 0.70051 0.02050 0.05300
C 	C 	0.91560 0.70846 0.00800 -0.10000
H 	H 	0.92760 0.69870 0.97240 0.06300
C 	C 	0.93900 0.73354 0.05540 0.00800
H 	H 	0.96530 0.74230 0.04550 0.04000
C 	C 	0.92413 0.74508 0.11500 -0.07800
C 	C 	0.88620 0.73356 0.12910 -0.03000
H 	H 	0.87610 0.74070 0.16990 0.02900
C 	C 	0.86220 0.71062 0.08120 -0.09200
H 	H 	0.83620 0.70170 0.09170 0.05900
C 	C 	0.95274 0.76971 0.16350 0.32400
C 	C 	0.80250 0.70940 0.86880 -0.10100
H 	H 	0.81750 0.71600 0.83070 0.06000
H 	H 	0.81410 0.72300 0.91290 0.06500
N 	N 	0.75180 0.71610 0.83520 -0.10000
C 	C 	0.71810 0.71180 0.88070 0.08400
H 	H 	0.72360 0.70610 0.93230 0.01100
N 	N 	0.68470 0.71740 0.83500 -0.08900
C 	C 	0.68750 0.73710 0.75510 -0.03600
H 	H 	0.66430 0.74780 0.71730 0.03900
C 	C 	0.73580 0.73190 0.76490 0.00800
H 	H 	0.75330 0.73770 0.73220 0.02500
C 	C 	0.63760 0.72970 0.84420 -0.35300
H 	H 	0.61620 0.73520 0.79420 0.16800
H 	H 	0.62300 0.71430 0.86700 0.15200
H 	H 	0.64420 0.74730 0.87730 0.14700
C 	C 	0.83337 0.55063 0.75160 0.35000
C 	C 	0.88292 0.54837 0.74960 -0.08000
C 	C 	0.91514 0.53368 0.80320 -0.03200
H 	H 	0.90770 0.52650 0.84650 0.05400
C 	C 	0.95926 0.52854 0.79760 0.01500
C 	C 	0.97520 0.54517 0.74970 -0.00400
C 	C 	0.94391 0.56345 0.70160 -0.07300
H 	H 	0.95360 0.57520 0.66630 0.05500
C 	C 	0.89818 0.56549 0.70260 0.00700
H 	H 	0.87740 0.57920 0.66970 0.04000
C 	C 	0.99750 0.50420 0.82070 -0.08600
H 	H 	0.02140 0.51060 0.79730 0.06300
H 	H 	0.98270 0.48630 0.79190 0.05500
N 	N 	0.02390 0.49300 0.89440 -0.10000
C 	C 	0.02420 0.45990 0.91120 0.07500
H 	H 	0.00730 0.44450 0.87910 0.00800
N 	N 	0.04970 0.45790 0.97200 -0.09100
C 	C 	0.07770 0.49040 0.00760 -0.03100
H 	H 	0.10320 0.49330 0.05260 0.04500
C 	C 	0.05390 0.51140 0.95400 0.01400
H 	H 	0.05670 0.53240 0.95660 0.03100
C 	C 	0.07440 0.43190 0.02440 -0.29100
H 	H 	0.09740 0.43990 0.07010 0.12500
H 	H 	0.05110 0.42010 0.03900 0.11700
H 	H 	0.09030 0.41920 0.99690 0.11700
Cu	Cu	0.26140 0.03999 0.81689 0.90400
Cu	Cu	0.24096 0.07351 0.69381 0.90200
Cu	Cu	0.02950 0.80876 0.21053 0.90100
O 	O 	0.24159 0.00631 0.74754 -0.41600
O 	O 	0.22184 0.03485 0.64357 -0.42200
O 	O 	0.27958 0.07775 0.86920 -0.40900
O 	O 	0.26368 0.10668 0.76366 -0.40700
O 	O 	0.19583 0.04669 0.80762 -0.42400
O 	O 	0.17903 0.07695 0.70691 -0.41400
O 	O 	0.32355 0.03756 0.80497 -0.41300
O 	O 	0.30605 0.06568 0.69915 -0.40900
O 	O 	0.06469 0.83706 0.28820 -0.42100
O 	O 	0.00985 0.84088 0.34613 -0.41700
O 	O 	0.48672 0.27987 0.14623 -0.40700
O 	O 	0.44009 0.27592 0.22310 -0.41400
C 	C 	0.22452 0.01053 0.67730 0.38700
C 	C 	0.20491 0.98443 0.62990 -0.14000
C 	C 	0.19786 0.95753 0.66390 0.06200
H 	H 	0.20810 0.95570 0.71780 0.02200
C 	C 	0.17600 0.93355 0.61940 -0.13500
H 	H 	0.17180 0.91550 0.64310 0.07700
C 	C 	0.16032 0.93589 0.54030 0.09600
C 	C 	0.16780 0.96221 0.50710 -0.14400
H 	H 	0.15860 0.96380 0.45320 0.08200
C 	C 	0.18859 0.98622 0.55120 0.06800
H 	H 	0.19170 0.00440 0.52700 0.01800
C 	C 	0.13410 0.91139 0.49110 -0.04200
C 	C 	0.14998 0.89742 0.43860 0.05600
C 	C 	0.12239 0.87633 0.38900 -0.06000
H 	H 	0.13390 0.86690 0.35230 0.06600
C 	C 	0.07930 0.86918 0.39290 -0.05600
C 	C 	0.06270 0.88236 0.44820 -0.01800
H 	H 	0.03320 0.87660 0.45210 0.04400
C 	C 	0.08860 0.90356 0.49700 -0.04300
H 	H 	0.07700 0.91280 0.53370 0.04200
C 	C 	0.04882 0.84670 0.33720 0.35600
C 	C 	0.19820 0.90060 0.43670 -0.11500
H 	H 	0.20030 0.91910 0.40890 0.08100
H 	H 	0.20510 0.88380 0.40720 0.07400
N 	N 	0.23400 0.90150 0.50950 -0.09500
C 	C 	0.24280 0.87390 0.55710 0.08100
H 	H 	0.22670 0.85540 0.54780 0.01100
N 	N 	0.27420 0.88100 0.60840 -0.09500
C 	C 	0.29400 0.91640 0.60830 -0.03200
H 	H 	0.31800 0.92670 0.64570 0.04400
C 	C 	0.26460 0.92620 0.53660 0.01700
H 	H 	0.26510 0.94480 0.51230 0.02800
C 	C 	0.30110 0.86690 0.68680 -0.27300
H 	H 	0.32580 0.88060 0.71520 0.10900
H 	H 	0.27940 0.86330 0.71590 0.10800
H 	H 	0.31520 0.84800 0.67860 0.10700
C 	C 	0.16896 0.06272 0.75780 0.35900
C 	C 	0.11821 0.06365 0.75620 -0.08100
C 	C 	0.10187 0.04134 0.79360 -0.03400
H 	H 	0.12270 0.02650 0.82150 0.04900
C 	C 	0.05533 0.04067 0.79030 0.01800
C 	C 	0.02543 0.06397 0.75240 0.02100
C 	C 	0.04273 0.08621 0.71770 -0.07800
H 	H 	0.02280 0.10200 0.69280 0.07000
C 	C 	0.08901 0.08587 0.71890 0.01800
H 	H 	0.10050 0.10110 0.69370 0.03800
C 	C 	0.03560 0.01130 0.81350 -0.07000
H 	H 	0.06130 0.99790 0.84100 0.04900
H 	H 	0.01540 0.00090 0.76800 0.04200
N 	N 	0.00890 0.02070 0.86220 -0.10500
C 	C 	0.03290 0.03650 0.93630 0.08900
H 	H 	0.06530 0.04060 0.95870 0.01000
N 	N 	0.00320 0.04220 0.95840 -0.09700
C 	C 	0.95190 0.02390 0.91670 -0.02800
H 	H 	0.92450 0.02220 0.93150 0.04600
C 	C 	0.96310 0.01190 0.85220 0.01800
H 	H 	0.94350 0.00040 0.81160 0.02600
C 	C 	0.99080 0.06450 0.01300 -0.26800
H 	H 	0.96120 0.05880 0.02060 0.11000
H 	H 	0.01560 0.06450 0.06210 0.10500
H 	H 	0.98790 0.08450 0.99090 0.10800
C 	C 	0.27911 0.10216 0.83370 0.33200
C 	C 	0.30079 0.12853 0.88450 -0.05600
C 	C 	0.30092 0.15656 0.85360 -0.05300
H 	H 	0.28500 0.15970 0.80110 0.06700
C 	C 	0.32280 0.17929 0.89600 0.03700
C 	C 	0.34610 0.17573 0.97340 -0.02800
C 	C 	0.34810 0.14774 0.00530 -0.05100
H 	H 	0.36480 0.14460 0.05750 0.04800
C 	C 	0.32540 0.12447 0.95980 -0.01400
H 	H 	0.32680 0.10520 0.98130 0.04900
C 	C 	0.37450 0.20051 0.02050 0.05200
C 	C 	0.41560 0.20846 0.00800 -0.10100
H 	H 	0.42760 0.19870 0.97240 0.06300
C 	C 	0.43900 0.23354 0.05540 0.00800
H 	H 	0.46530 0.24230 0.04550 0.04000
C 	C 	0.42413 0.24508 0.11500 -0.07800
C 	C 	0.38620 0.23356 0.12910 -0.03000
H 	H 	0.37610 0.24070 0.16990 0.02900
C 	C 	0.36220 0.21062 0.08120 -0.09200
H 	H 	0.33620 0.20170 0.09170 0.05900
C 	C 	0.45274 0.26971 0.16350 0.32400
C 	C 	0.30250 0.20940 0.86880 -0.10000
H 	H 	0.31750 0.21600 0.83070 0.06000
H 	H 	0.31410 0.22300 0.91290 0.06500
N 	N 	0.25180 0.21610 0.83520 -0.10000
C 	C 	0.21810 0.21180 0.88070 0.08400
H 	H 	0.22360 0.20610 0.93230 0.01100
N 	N 	0.18470 0.21740 0.83500 -0.08900
C 	C 	0.18750 0.23710 0.75510 -0.03600
H 	H 	0.16430 0.24780 0.71730 0.03900
C 	C 	0.23580 0.23190 0.76490 0.00800
H 	H 	0.25330 0.23770 0.73220 0.02600
C 	C 	0.13760 0.22970 0.84420 -0.35300
H 	H 	0.11620 0.23520 0.79420 0.16800
H 	H 	0.12300 0.21430 0.86700 0.15200
H 	H 	0.14420 0.24730 0.87730 0.14700
C 	C 	0.33337 0.05063 0.75160 0.35000
C 	C 	0.38292 0.04837 0.74960 -0.08000
C 	C 	0.41514 0.03368 0.80320 -0.03200
H 	H 	0.40770 0.02650 0.84650 0.05400
C 	C 	0.45926 0.02854 0.79760 0.01400
C 	C 	0.47520 0.04517 0.74970 -0.00300
C 	C 	0.44391 0.06345 0.70160 -0.07400
H 	H 	0.45360 0.07520 0.66630 0.05500
C 	C 	0.39818 0.06549 0.70260 0.00800
H 	H 	0.37740 0.07920 0.66970 0.03900
C 	C 	0.49750 0.00420 0.82070 -0.08500
H 	H 	0.52140 0.01060 0.79730 0.06300
H 	H 	0.48270 0.98630 0.79190 0.05500
N 	N 	0.52390 0.99300 0.89440 -0.10000
C 	C 	0.52420 0.95990 0.91120 0.07500
H 	H 	0.50730 0.94450 0.87910 0.00800
N 	N 	0.54970 0.95790 0.97200 -0.09200
C 	C 	0.57770 0.99040 0.00760 -0.03000
H 	H 	0.60320 0.99330 0.05260 0.04500
C 	C 	0.55390 0.01140 0.95400 0.01300
H 	H 	0.55670 0.03240 0.95660 0.03200
C 	C 	0.57440 0.93190 0.02440 -0.28900
H 	H 	0.59740 0.93990 0.07010 0.12500
H 	H 	0.55110 0.92010 0.03900 0.11700
H 	H 	0.59030 0.91920 0.99690 0.11600
Cu	Cu	0.23860 0.53999 0.68311 0.90400
Cu	Cu	0.25904 0.57351 0.80619 0.90200
Cu	Cu	0.47050 0.30876 0.28947 0.90100
O 	O 	0.25841 0.50631 0.75246 -0.41600
O 	O 	0.27816 0.53485 0.85643 -0.42200
O 	O 	0.22042 0.57775 0.63080 -0.40900
O 	O 	0.23632 0.60668 0.73634 -0.40700
O 	O 	0.30417 0.54669 0.69238 -0.42400
O 	O 	0.32097 0.57695 0.79309 -0.41400
O 	O 	0.17645 0.53756 0.69503 -0.41300
O 	O 	0.19395 0.56568 0.80085 -0.40900
O 	O 	0.43531 0.33706 0.21180 -0.42100
O 	O 	0.49015 0.34088 0.15387 -0.41700
O 	O 	0.01328 0.77987 0.35377 -0.40700
O 	O 	0.05991 0.77592 0.27690 -0.41400
C 	C 	0.27548 0.51053 0.82270 0.38700
C 	C 	0.29509 0.48443 0.87010 -0.14000
C 	C 	0.30214 0.45753 0.83610 0.06200
H 	H 	0.29190 0.45570 0.78220 0.02200
C 	C 	0.32400 0.43355 0.88060 -0.13500
H 	H 	0.32820 0.41550 0.85690 0.07700
C 	C 	0.33968 0.43589 0.95970 0.09600
C 	C 	0.33220 0.46221 0.99290 -0.14400
H 	H 	0.34140 0.46380 0.04680 0.08200
C 	C 	0.31141 0.48622 0.94880 0.06800
H 	H 	0.30830 0.50440 0.97300 0.01800
C 	C 	0.36590 0.41139 0.00890 -0.04200
C 	C 	0.35002 0.39742 0.06140 0.05600
C 	C 	0.37761 0.37633 0.11100 -0.06000
H 	H 	0.36610 0.36690 0.14770 0.06600
C 	C 	0.42070 0.36918 0.10710 -0.05600
C 	C 	0.43730 0.38236 0.05180 -0.01800
H 	H 	0.46680 0.37660 0.04790 0.04400
C 	C 	0.41140 0.40356 0.00300 -0.04300
H 	H 	0.42300 0.41280 0.96630 0.04200
C 	C 	0.45118 0.34670 0.16280 0.35600
C 	C 	0.30180 0.40060 0.06330 -0.11500
H 	H 	0.29970 0.41910 0.09110 0.08100
H 	H 	0.29490 0.38380 0.09280 0.07400
N 	N 	0.26600 0.40150 0.99050 -0.09500
C 	C 	0.25720 0.37390 0.94290 0.08100
H 	H 	0.27330 0.35540 0.95220 0.01100
N 	N 	0.22580 0.38100 0.89160 -0.09500
C 	C 	0.20600 0.41640 0.89170 -0.03200
H 	H 	0.18200 0.42670 0.85430 0.04400
C 	C 	0.23540 0.42620 0.96340 0.01700
H 	H 	0.23490 0.44480 0.98770 0.02800
C 	C 	0.19890 0.36690 0.81320 -0.27300
H 	H 	0.17420 0.38060 0.78480 0.10900
H 	H 	0.22060 0.36330 0.78410 0.10800
H 	H 	0.18480 0.34800 0.82140 0.10700
C 	C 	0.33104 0.56272 0.74220 0.35900
C 	C 	0.38179 0.56365 0.74380 -0.08100
C 	C 	0.39813 0.54134 0.70640 -0.03400
H 	H 	0.37730 0.52650 0.67850 0.04900
C 	C 	0.44467 0.54067 0.70970 0.01800
C 	C 	0.47457 0.56397 0.74760 0.02000
C 	C 	0.45727 0.58621 0.78230 -0.07800
H 	H 	0.47720 0.60200 0.80720 0.07000
C 	C 	0.41099 0.58587 0.78110 0.01700
H 	H 	0.39950 0.60110 0.80630 0.03800
C 	C 	0.46440 0.51130 0.68650 -0.07000
H 	H 	0.43870 0.49790 0.65900 0.04900
H 	H 	0.48460 0.50090 0.73200 0.04200
N 	N 	0.49110 0.52070 0.63780 -0.10500
C 	C 	0.46710 0.53650 0.56370 0.08900
H 	H 	0.43470 0.54060 0.54130 0.01000
N 	N 	0.49680 0.54220 0.54160 -0.09700
C 	C 	0.54810 0.52390 0.58330 -0.02800
H 	H 	0.57550 0.52220 0.56850 0.04600
C 	C 	0.53690 0.51190 0.64780 0.01800
H 	H 	0.55650 0.50040 0.68840 0.02600
C 	C 	0.50920 0.56450 0.48700 -0.27000
H 	H 	0.53880 0.55880 0.47940 0.11100
H 	H 	0.48440 0.56450 0.43790 0.10600
H 	H 	0.51210 0.58450 0.50910 0.10900
C 	C 	0.22089 0.60216 0.66630 0.33200
C 	C 	0.19921 0.62853 0.61550 -0.05500
C 	C 	0.19908 0.65656 0.64640 -0.05300
H 	H 	0.21500 0.65970 0.69890 0.06700
C 	C 	0.17720 0.67929 0.60400 0.03700
C 	C 	0.15390 0.67573 0.52660 -0.02800
C 	C 	0.15190 0.64774 0.49470 -0.05100
H 	H 	0.13520 0.64460 0.44250 0.04800
C 	C 	0.17460 0.62447 0.54020 -0.01500
H 	H 	0.17320 0.60520 0.51870 0.04900
C 	C 	0.12550 0.70051 0.47950 0.05200
C 	C 	0.08440 0.70846 0.49200 -0.10100
H 	H 	0.07240 0.69870 0.52760 0.06300
C 	C 	0.06100 0.73354 0.44460 0.00800
H 	H 	0.03470 0.74230 0.45450 0.04000
C 	C 	0.07587 0.74508 0.38500 -0.07800
C 	C 	0.11380 0.73356 0.37090 -0.03000
H 	H 	0.12390 0.74070 0.33010 0.02900
C 	C 	0.13780 0.71062 0.41880 -0.09200
H 	H 	0.16380 0.70170 0.40830 0.05900
C 	C 	0.04726 0.76971 0.33650 0.32400
C 	C 	0.19750 0.70940 0.63120 -0.10100
H 	H 	0.18250 0.71600 0.66930 0.06000
H 	H 	0.18590 0.72300 0.58710 0.06500
N 	N 	0.24820 0.71610 0.66480 -0.10000
C 	C 	0.28190 0.71180 0.61930 0.08400
H 	H 	0.27640 0.70610 0.56770 0.01100
N 	N 	0.31530 0.71740 0.66500 -0.08900
C 	C 	0.31250 0.73710 0.74490 -0.03600
H 	H 	0.33570 0.74780 0.78270 0.03900
C 	C 	0.26420 0.73190 0.73510 0.00800
H 	H 	0.24670 0.73770 0.76780 0.02600
C 	C 	0.36240 0.72970 0.65580 -0.35300
H 	H 	0.38380 0.73520 0.70580 0.16800
H 	H 	0.37700 0.71430 0.63300 0.15200
H 	H 	0.35580 0.74730 0.62270 0.14700
C 	C 	0.16663 0.55063 0.74840 0.35000
C 	C 	0.11708 0.54837 0.75040 -0.08100
C 	C 	0.08486 0.53368 0.69680 -0.03200
H 	H 	0.09230 0.52650 0.65350 0.05400
C 	C 	0.04074 0.52854 0.70240 0.01400
C 	C 	0.02480 0.54517 0.75030 -0.00300
C 	C 	0.05609 0.56345 0.79840 -0.07400
H 	H 	0.04640 0.57520 0.83370 0.05500
C 	C 	0.10182 0.56549 0.79740 0.00800
H 	H 	0.12260 0.57920 0.83030 0.03900
C 	C 	0.00250 0.50420 0.67930 -0.08500
H 	H 	0.97860 0.51060 0.70270 0.06200
H 	H 	0.01730 0.48630 0.70810 0.05500
N 	N 	0.97610 0.49300 0.60560 -0.10000
C 	C 	0.97580 0.45990 0.58880 0.07500
H 	H 	0.99270 0.44450 0.62090 0.00800
N 	N 	0.95030 0.45790 0.52800 -0.09200
C 	C 	0.92230 0.49040 0.49240 -0.03000
H 	H 	0.89680 0.49330 0.44740 0.04500
C 	C 	0.94610 0.51140 0.54600 0.01300
H 	H 	0.94330 0.53240 0.54340 0.03200
C 	C 	0.92560 0.43190 0.47560 -0.29000
H 	H 	0.90260 0.43990 0.42990 0.12500
H 	H 	0.94890 0.42010 0.46100 0.11700
H 	H 	0.90970 0.41920 0.50310 0.11600
Cu	Cu	0.73860 0.03999 0.68311 0.90400
Cu	Cu	0.75904 0.07351 0.80619 0.90200
Cu	Cu	0.97050 0.80876 0.28947 0.90100
O 	O 	0.75841 0.00631 0.75246 -0.41600
O 	O 	0.77816 0.03485 0.85643 -0.42200
O 	O 	0.72042 0.07775 0.63080 -0.40900
O 	O 	0.73632 0.10668 0.73634 -0.40700
O 	O 	0.80417 0.04669 0.69238 -0.42400
O 	O 	0.82097 0.07695 0.79309 -0.41400
O 	O 	0.67645 0.03756 0.69503 -0.41300
O 	O 	0.69395 0.06568 0.80085 -0.41000
O 	O 	0.93531 0.83706 0.21180 -0.42100
O 	O 	0.99015 0.84088 0.15387 -0.41700
O 	O 	0.51328 0.27987 0.35377 -0.40700
O 	O 	0.55991 0.27592 0.27690 -0.41400
C 	C 	0.77548 0.01053 0.82270 0.38700
C 	C 	0.79509 0.98443 0.87010 -0.14000
C 	C 	0.80214 0.95753 0.83610 0.06200
H 	H 	0.79190 0.95570 0.78220 0.02200
C 	C 	0.82400 0.93355 0.88060 -0.13500
H 	H 	0.82820 0.91550 0.85690 0.07700
C 	C 	0.83968 0.93589 0.95970 0.09600
C 	C 	0.83220 0.96221 0.99290 -0.14400
H 	H 	0.84140 0.96380 0.04680 0.08200
C 	C 	0.81141 0.98622 0.94880 0.06800
H 	H 	0.80830 0.00440 0.97300 0.01800
C 	C 	0.86590 0.91139 0.00890 -0.04300
C 	C 	0.85002 0.89742 0.06140 0.05600
C 	C 	0.87761 0.87633 0.11100 -0.06000
H 	H 	0.86610 0.86690 0.14770 0.06600
C 	C 	0.92070 0.86918 0.10710 -0.05600
C 	C 	0.93730 0.88236 0.05180 -0.01900
H 	H 	0.96680 0.87660 0.04790 0.04400
C 	C 	0.91140 0.90356 0.00300 -0.04300
H 	H 	0.92300 0.91280 0.96630 0.04100
C 	C 	0.95118 0.84670 0.16280 0.35500
C 	C 	0.80180 0.90060 0.06330 -0.11500
H 	H 	0.79970 0.91910 0.09110 0.08100
H 	H 	0.79490 0.88380 0.09280 0.07400
N 	N 	0.76600 0.90150 0.99050 -0.09500
C 	C 	0.75720 0.87390 0.94290 0.08100
H 	H 	0.77330 0.85540 0.95220 0.01100
N 	N 	0.72580 0.88100 0.89160 -0.09500
C 	C 	0.70600 0.91640 0.89170 -0.03200
H 	H 	0.68200 0.92670 0.85430 0.04400
C 	C 	0.73540 0.92620 0.96340 0.01700
H 	H 	0.73490 0.94480 0.98770 0.02800
C 	C 	0.69890 0.86690 0.81320 -0.27300
H 	H 	0.67420 0.88060 0.78480 0.10900
H 	H 	0.72060 0.86330 0.78410 0.10800
H 	H 	0.68480 0.84800 0.82140 0.10700
C 	C 	0.83104 0.06272 0.74220 0.35900
C 	C 	0.88179 0.06365 0.74380 -0.08100
C 	C 	0.89813 0.04134 0.70640 -0.03400
H 	H 	0.87730 0.02650 0.67850 0.04900
C 	C 	0.94467 0.04067 0.70970 0.01800
C 	C 	0.97457 0.06397 0.74760 0.02000
C 	C 	0.95727 0.08621 0.78230 -0.07800
H 	H 	0.97720 0.10200 0.80720 0.07000
C 	C 	0.91099 0.08587 0.78110 0.01700
H 	H 	0.89950 0.10110 0.80630 0.03800
C 	C 	0.96440 0.01130 0.68650 -0.07000
H 	H 	0.93870 0.99790 0.65900 0.04900
H 	H 	0.98460 0.00090 0.73200 0.04200
N 	N 	0.99110 0.02070 0.63780 -0.10600
C 	C 	0.96710 0.03650 0.56370 0.08900
H 	H 	0.93470 0.04060 0.54130 0.01000
N 	N 	0.99680 0.04220 0.54160 -0.09700
C 	C 	0.04810 0.02390 0.58330 -0.02800
H 	H 	0.07550 0.02220 0.56850 0.04600
C 	C 	0.03690 0.01190 0.64780 0.01800
H 	H 	0.05650 0.00040 0.68840 0.02600
C 	C 	0.00920 0.06450 0.48700 -0.27000
H 	H 	0.03880 0.05880 0.47940 0.11100
H 	H 	0.98440 0.06450 0.43790 0.10600
H 	H 	0.01210 0.08450 0.50910 0.10900
C 	C 	0.72089 0.10216 0.66630 0.33200
C 	C 	0.69921 0.12853 0.61550 -0.05500
C 	C 	0.69908 0.15656 0.64640 -0.05300
H 	H 	0.71500 0.15970 0.69890 0.06700
C 	C 	0.67720 0.17929 0.60400 0.03700
C 	C 	0.65390 0.17573 0.52660 -0.02800
C 	C 	0.65190 0.14774 0.49470 -0.05100
H 	H 	0.63520 0.14460 0.44250 0.04800
C 	C 	0.67460 0.12447 0.54020 -0.01500
H 	H 	0.67320 0.10520 0.51870 0.04900
C 	C 	0.62550 0.20051 0.47950 0.05200
C 	C 	0.58440 0.20846 0.49200 -0.10100
H 	H 	0.57240 0.19870 0.52760 0.06300
C 	C 	0.56100 0.23354 0.44460 0.00800
H 	H 	0.53470 0.24230 0.45450 0.04000
C 	C 	0.57587 0.24508 0.38500 -0.07800
C 	C 	0.61380 0.23356 0.37090 -0.03000
H 	H 	0.62390 0.24070 0.33010 0.02900
C 	C 	0.63780 0.21062 0.41880 -0.09200
H 	H 	0.66380 0.20170 0.40830 0.05900
C 	C 	0.54726 0.26971 0.33650 0.32400
C 	C 	0.69750 0.20940 0.63120 -0.10100
H 	H 	0.68250 0.21600 0.66930 0.06000
H 	H 	0.68590 0.22300 0.58710 0.06500
N 	N 	0.74820 0.21610 0.66480 -0.10000
C 	C 	0.78190 0.21180 0.61930 0.08400
H 	H 	0.77640 0.20610 0.56770 0.01100
N 	N 	0.81530 0.21740 0.66500 -0.08900
C 	C 	0.81250 0.23710 0.74490 -0.03600
H 	H 	0.83570 0.24780 0.78270 0.03900
C 	C 	0.76420 0.23190 0.73510 0.00800
H 	H 	0.74670 0.23770 0.76780 0.02500
C 	C 	0.86240 0.22970 0.65580 -0.35300
H 	H 	0.88380 0.23520 0.70580 0.16800
H 	H 	0.87700 0.21430 0.63300 0.15200
H 	H 	0.85580 0.24730 0.62270 0.14700
C 	C 	0.66663 0.05063 0.74840 0.35000
C 	C 	0.61708 0.04837 0.75040 -0.08000
C 	C 	0.58486 0.03368 0.69680 -0.03200
H 	H 	0.59230 0.02650 0.65350 0.05400
C 	C 	0.54074 0.02854 0.70240 0.01400
C 	C 	0.52480 0.04517 0.75030 -0.00300
C 	C 	0.55609 0.06345 0.79840 -0.07400
H 	H 	0.54640 0.07520 0.83370 0.05500
C 	C 	0.60182 0.06549 0.79740 0.00800
H 	H 	0.62260 0.07920 0.83030 0.03900
C 	C 	0.50250 0.00420 0.67930 -0.08500
H 	H 	0.47860 0.01060 0.70270 0.06300
H 	H 	0.51730 0.98630 0.70810 0.05500
N 	N 	0.47610 0.99300 0.60560 -0.10000
C 	C 	0.47580 0.95990 0.58880 0.07500
H 	H 	0.49270 0.94450 0.62090 0.00800
N 	N 	0.45030 0.95790 0.52800 -0.09200
C 	C 	0.42230 0.99040 0.49240 -0.03000
H 	H 	0.39680 0.99330 0.44740 0.04500
C 	C 	0.44610 0.01140 0.54600 0.01300
H 	H 	0.44330 0.03240 0.54340 0.03200
C 	C 	0.42560 0.93190 0.47560 -0.29000
H 	H 	0.40260 0.93990 0.42990 0.12500
H 	H 	0.44890 0.92010 0.46100 0.11700
H 	H 	0.40970 0.91920 0.50310 0.11600
