data_crystal

_cell_length_a 18.62100
_cell_length_b 18.62100
_cell_length_c 25.62830
_cell_angle_alpha 68.69760
_cell_angle_beta  68.69760
_cell_angle_gamma 60.00000

_symmetry_space_group_name_	'P 1'
_symmetry_space_group_name_H-M	'P 1'

loop_
_symmetry_equiv_pos_as_xyz
  x,y,z

loop_
_atom_site_label
_atom_site_type_symbol
_atom_site_fract_x
_atom_site_fract_y
_atom_site_fract_z
_atom_site_charge
Cu	Cu	0.68730 0.27252 0.79654 0.91900
Cu	Cu	0.27252 0.24364 0.79654 0.91900
Cu	Cu	0.24364 0.68730 0.79654 0.91900
Cu	Cu	0.81270 0.25636 0.70346 0.91900
Cu	Cu	0.22748 0.81270 0.70346 0.91900
Cu	Cu	0.25636 0.22748 0.70346 0.91900
Cu	Cu	0.31270 0.72748 0.20346 0.91900
Cu	Cu	0.72748 0.75636 0.20346 0.91900
Cu	Cu	0.75636 0.31270 0.20346 0.91900
Cu	Cu	0.18730 0.74364 0.29654 0.91900
Cu	Cu	0.77252 0.18730 0.29654 0.91900
Cu	Cu	0.74364 0.77252 0.29654 0.91900
H 	H 	0.50630 0.52130 0.74020 0.06300
H 	H 	0.48670 0.72970 0.60880 0.07100
H 	H 	0.71270 0.52350 0.61120 0.07600
H 	H 	0.60800 0.72640 0.53410 0.11800
H 	H 	0.75050 0.60240 0.51790 0.04400
H 	H 	0.75370 0.64800 0.55900 0.04600
H 	H 	0.74910 0.66880 0.42010 0.04600
H 	H 	0.73380 0.79750 0.52030 0.05000
H 	H 	0.72730 0.92600 0.43360 0.06100
H 	H 	0.76980 0.88710 0.34450 0.02700
H 	H 	0.52130 0.23220 0.74020 0.06300
H 	H 	0.72970 0.17480 0.60880 0.07100
H 	H 	0.52350 0.15260 0.61120 0.07600
H 	H 	0.72640 0.13150 0.53410 0.11800
H 	H 	0.60240 0.12920 0.51790 0.04400
H 	H 	0.64800 0.03930 0.55900 0.04600
H 	H 	0.66880 0.16200 0.42010 0.04600
H 	H 	0.79750 0.94840 0.52030 0.05000
H 	H 	0.92600 0.91310 0.43360 0.06100
H 	H 	0.88710 0.99860 0.34450 0.02600
H 	H 	0.23220 0.50630 0.74020 0.06300
H 	H 	0.17480 0.48670 0.60880 0.07100
H 	H 	0.15260 0.71270 0.61120 0.07600
H 	H 	0.13150 0.60800 0.53410 0.11800
H 	H 	0.12920 0.75050 0.51790 0.04400
H 	H 	0.03930 0.75370 0.55900 0.04600
H 	H 	0.16200 0.74910 0.42010 0.04600
H 	H 	0.94840 0.73380 0.52030 0.05000
H 	H 	0.91310 0.72730 0.43360 0.06100
H 	H 	0.99860 0.76980 0.34450 0.02600
H 	H 	0.99370 0.26780 0.75980 0.06300
H 	H 	0.01330 0.32520 0.89120 0.07100
H 	H 	0.78730 0.34740 0.88880 0.07600
H 	H 	0.89200 0.36850 0.96590 0.11800
H 	H 	0.74950 0.37080 0.98210 0.04400
H 	H 	0.74630 0.46070 0.94100 0.04600
H 	H 	0.75090 0.33800 0.07990 0.04600
H 	H 	0.76620 0.55160 0.97970 0.04900
H 	H 	0.77270 0.58690 0.06640 0.06100
H 	H 	0.73020 0.50140 0.15550 0.02700
H 	H 	0.97870 0.99370 0.75980 0.06400
H 	H 	0.77030 0.01330 0.89120 0.07200
H 	H 	0.97650 0.78730 0.88880 0.07600
H 	H 	0.77360 0.89200 0.96590 0.11800
H 	H 	0.89760 0.74950 0.98210 0.04400
H 	H 	0.85200 0.74630 0.94100 0.04600
H 	H 	0.83120 0.75090 0.07990 0.04600
H 	H 	0.70250 0.76620 0.97970 0.04900
H 	H 	0.57400 0.77270 0.06640 0.06100
H 	H 	0.61290 0.73020 0.15550 0.02700
H 	H 	0.26780 0.97870 0.75980 0.06300
H 	H 	0.32520 0.77030 0.89120 0.07100
H 	H 	0.34740 0.97650 0.88880 0.07500
H 	H 	0.36850 0.77360 0.96590 0.11800
H 	H 	0.37080 0.89760 0.98210 0.04400
H 	H 	0.46070 0.85200 0.94100 0.04600
H 	H 	0.33800 0.83120 0.07990 0.04600
H 	H 	0.55160 0.70250 0.97970 0.04900
H 	H 	0.58690 0.57400 0.06640 0.06100
H 	H 	0.50140 0.61290 0.15550 0.02700
H 	H 	0.49370 0.47870 0.25980 0.06300
H 	H 	0.51330 0.27030 0.39120 0.07100
H 	H 	0.28730 0.47650 0.38880 0.07600
H 	H 	0.39200 0.27360 0.46590 0.11800
H 	H 	0.24950 0.39760 0.48210 0.04400
H 	H 	0.24630 0.35200 0.44100 0.04600
H 	H 	0.25090 0.33120 0.57990 0.04600
H 	H 	0.26620 0.20250 0.47970 0.05000
H 	H 	0.27270 0.07400 0.56640 0.06100
H 	H 	0.23020 0.11290 0.65550 0.02700
H 	H 	0.47870 0.76780 0.25980 0.06300
H 	H 	0.27030 0.82520 0.39120 0.07100
H 	H 	0.47650 0.84740 0.38880 0.07600
H 	H 	0.27360 0.86850 0.46590 0.11800
H 	H 	0.39760 0.87080 0.48210 0.04400
H 	H 	0.35200 0.96070 0.44100 0.04600
H 	H 	0.33120 0.83800 0.57990 0.04600
H 	H 	0.20250 0.05160 0.47970 0.05000
H 	H 	0.07400 0.08690 0.56640 0.06100
H 	H 	0.11290 0.00140 0.65550 0.02600
H 	H 	0.76780 0.49370 0.25980 0.06300
H 	H 	0.82520 0.51330 0.39120 0.07100
H 	H 	0.84740 0.28730 0.38880 0.07600
H 	H 	0.86850 0.39200 0.46590 0.11800
H 	H 	0.87080 0.24950 0.48210 0.04400
H 	H 	0.96070 0.24630 0.44100 0.04600
H 	H 	0.83800 0.25090 0.57990 0.04600
H 	H 	0.05160 0.26620 0.47970 0.05000
H 	H 	0.08690 0.27270 0.56640 0.06100
H 	H 	0.00140 0.23020 0.65550 0.02600
H 	H 	0.00630 0.73220 0.24020 0.06300
H 	H 	0.98670 0.67480 0.10880 0.07100
H 	H 	0.21270 0.65260 0.11120 0.07600
H 	H 	0.10800 0.63150 0.03410 0.11800
H 	H 	0.25050 0.62920 0.01790 0.04400
H 	H 	0.25370 0.53930 0.05900 0.04600
H 	H 	0.24910 0.66200 0.92010 0.04600
H 	H 	0.23380 0.44840 0.02030 0.04900
H 	H 	0.22730 0.41310 0.93360 0.06100
H 	H 	0.26980 0.49860 0.84450 0.02700
H 	H 	0.02130 0.00630 0.24020 0.06400
H 	H 	0.22970 0.98670 0.10880 0.07200
H 	H 	0.02350 0.21270 0.11120 0.07600
H 	H 	0.22640 0.10800 0.03410 0.11800
H 	H 	0.10240 0.25050 0.01790 0.04400
H 	H 	0.14800 0.25370 0.05900 0.04600
H 	H 	0.16880 0.24910 0.92010 0.04600
H 	H 	0.29750 0.23380 0.02030 0.04900
H 	H 	0.42600 0.22730 0.93360 0.06100
H 	H 	0.38710 0.26980 0.84450 0.02700
H 	H 	0.73220 0.02130 0.24020 0.06300
H 	H 	0.67480 0.22970 0.10880 0.07100
H 	H 	0.65260 0.02350 0.11120 0.07500
H 	H 	0.63150 0.22640 0.03410 0.11800
H 	H 	0.62920 0.10240 0.01790 0.04400
H 	H 	0.53930 0.14800 0.05900 0.04600
H 	H 	0.66200 0.16880 0.92010 0.04600
H 	H 	0.44840 0.29750 0.02030 0.04900
H 	H 	0.41310 0.42600 0.93360 0.06100
H 	H 	0.49860 0.38710 0.84450 0.02700
C 	C 	0.66848 0.41936 0.70624 0.33300
C 	C 	0.61696 0.50916 0.67912 -0.04500
C 	C 	0.53127 0.54957 0.70489 -0.00400
C 	C 	0.48262 0.63212 0.67834 -0.05200
C 	C 	0.52036 0.67376 0.62722 -0.07600
C 	C 	0.60664 0.63444 0.60268 0.10300
C 	C 	0.65416 0.55156 0.62842 -0.07800
C 	C 	0.39122 0.67532 0.70474 0.34300
C 	C 	0.72495 0.65655 0.53005 -0.03900
C 	C 	0.73734 0.72574 0.47848 0.01400
C 	C 	0.74445 0.71965 0.42445 -0.01200
C 	C 	0.73510 0.79510 0.48370 -0.05200
C 	C 	0.73649 0.87249 0.43063 -0.07100
C 	C 	0.75247 0.85197 0.37939 0.04500
C 	C 	0.41936 0.20592 0.70624 0.33300
C 	C 	0.50916 0.19476 0.67912 -0.04500
C 	C 	0.54957 0.21427 0.70489 -0.00400
C 	C 	0.63212 0.20692 0.67834 -0.05200
C 	C 	0.67376 0.17866 0.62722 -0.07600
C 	C 	0.63444 0.15624 0.60268 0.10300
C 	C 	0.55156 0.16586 0.62842 -0.07800
C 	C 	0.67532 0.22872 0.70474 0.34300
C 	C 	0.65655 0.08845 0.53005 -0.03900
C 	C 	0.72574 0.05844 0.47848 0.01400
C 	C 	0.71965 0.11145 0.42445 -0.01200
C 	C 	0.79510 0.98610 0.48370 -0.05200
C 	C 	0.87249 0.96039 0.43063 -0.07100
C 	C 	0.85197 0.01617 0.37939 0.04500
C 	C 	0.20592 0.66848 0.70624 0.33300
C 	C 	0.19476 0.61696 0.67912 -0.04500
C 	C 	0.21427 0.53127 0.70489 -0.00400
C 	C 	0.20692 0.48262 0.67834 -0.05200
C 	C 	0.17866 0.52036 0.62722 -0.07600
C 	C 	0.15624 0.60664 0.60268 0.10300
C 	C 	0.16586 0.65416 0.62842 -0.07800
C 	C 	0.22872 0.39122 0.70474 0.34300
C 	C 	0.08845 0.72495 0.53005 -0.03900
C 	C 	0.05844 0.73734 0.47848 0.01400
C 	C 	0.11145 0.74445 0.42445 -0.01200
C 	C 	0.98610 0.73510 0.48370 -0.05300
C 	C 	0.96039 0.73649 0.43063 -0.07100
C 	C 	0.01617 0.75247 0.37939 0.04500
C 	C 	0.83152 0.29408 0.79376 0.33300
C 	C 	0.88304 0.30524 0.82088 -0.04500
C 	C 	0.96873 0.28573 0.79511 -0.00500
C 	C 	0.01738 0.29308 0.82166 -0.05100
C 	C 	0.97964 0.32134 0.87278 -0.07700
C 	C 	0.89336 0.34376 0.89732 0.10300
C 	C 	0.84584 0.33414 0.87158 -0.07800
C 	C 	0.10878 0.27128 0.79526 0.34300
C 	C 	0.77505 0.41155 0.96995 -0.03900
C 	C 	0.76266 0.44156 0.02152 0.01400
C 	C 	0.75555 0.38855 0.07555 -0.01200
C 	C 	0.76490 0.51390 0.01630 -0.05200
C 	C 	0.76351 0.53961 0.06937 -0.07100
C 	C 	0.74753 0.48383 0.12061 0.04500
C 	C 	0.08064 0.83152 0.79376 0.33300
C 	C 	0.99084 0.88304 0.82088 -0.04500
C 	C 	0.95043 0.96873 0.79511 -0.00500
C 	C 	0.86788 0.01738 0.82166 -0.05000
C 	C 	0.82624 0.97964 0.87278 -0.07800
C 	C 	0.86556 0.89336 0.89732 0.10300
C 	C 	0.94844 0.84584 0.87158 -0.07900
C 	C 	0.82468 0.10878 0.79526 0.34300
C 	C 	0.84345 0.77505 0.96995 -0.03900
C 	C 	0.77426 0.76266 0.02152 0.01500
C 	C 	0.78035 0.75555 0.07555 -0.01200
C 	C 	0.70490 0.76490 0.01630 -0.05200
C 	C 	0.62751 0.76351 0.06937 -0.07100
C 	C 	0.64803 0.74753 0.12061 0.04500
C 	C 	0.29408 0.08064 0.79376 0.33300
C 	C 	0.30524 0.99084 0.82088 -0.04500
C 	C 	0.28573 0.95043 0.79511 -0.00400
C 	C 	0.29308 0.86788 0.82166 -0.05200
C 	C 	0.32134 0.82624 0.87278 -0.07600
C 	C 	0.34376 0.86556 0.89732 0.10300
C 	C 	0.33414 0.94844 0.87158 -0.07800
C 	C 	0.27128 0.82468 0.79526 0.34300
C 	C 	0.41155 0.84345 0.96995 -0.03900
C 	C 	0.44156 0.77426 0.02152 0.01400
C 	C 	0.38855 0.78035 0.07555 -0.01200
C 	C 	0.51390 0.70490 0.01630 -0.05200
C 	C 	0.53961 0.62751 0.06937 -0.07100
C 	C 	0.48383 0.64803 0.12061 0.04500
C 	C 	0.33152 0.58064 0.29376 0.33300
C 	C 	0.38304 0.49084 0.32088 -0.04500
C 	C 	0.46873 0.45043 0.29511 -0.00400
C 	C 	0.51738 0.36788 0.32166 -0.05200
C 	C 	0.47964 0.32624 0.37278 -0.07600
C 	C 	0.39336 0.36556 0.39732 0.10300
C 	C 	0.34584 0.44844 0.37158 -0.07800
C 	C 	0.60878 0.32468 0.29526 0.34300
C 	C 	0.27505 0.34345 0.46995 -0.03900
C 	C 	0.26266 0.27426 0.52152 0.01400
C 	C 	0.25555 0.28035 0.57555 -0.01200
C 	C 	0.26490 0.20490 0.51630 -0.05200
C 	C 	0.26351 0.12751 0.56937 -0.07100
C 	C 	0.24753 0.14803 0.62061 0.04500
C 	C 	0.58064 0.79408 0.29376 0.33300
C 	C 	0.49084 0.80524 0.32088 -0.04500
C 	C 	0.45043 0.78573 0.29511 -0.00400
C 	C 	0.36788 0.79308 0.32166 -0.05200
C 	C 	0.32624 0.82134 0.37278 -0.07600
C 	C 	0.36556 0.84376 0.39732 0.10300
C 	C 	0.44844 0.83414 0.37158 -0.07800
C 	C 	0.32468 0.77128 0.29526 0.34300
C 	C 	0.34345 0.91155 0.46995 -0.03900
C 	C 	0.27426 0.94156 0.52152 0.01400
C 	C 	0.28035 0.88855 0.57555 -0.01200
C 	C 	0.20490 0.01390 0.51630 -0.05200
C 	C 	0.12751 0.03961 0.56937 -0.07100
C 	C 	0.14803 0.98383 0.62061 0.04500
C 	C 	0.79408 0.33152 0.29376 0.33300
C 	C 	0.80524 0.38304 0.32088 -0.04500
C 	C 	0.78573 0.46873 0.29511 -0.00400
C 	C 	0.79308 0.51738 0.32166 -0.05200
C 	C 	0.82134 0.47964 0.37278 -0.07600
C 	C 	0.84376 0.39336 0.39732 0.10300
C 	C 	0.83414 0.34584 0.37158 -0.07800
C 	C 	0.77128 0.60878 0.29526 0.34300
C 	C 	0.91155 0.27505 0.46995 -0.03900
C 	C 	0.94156 0.26266 0.52152 0.01400
C 	C 	0.88855 0.25555 0.57555 -0.01200
C 	C 	0.01390 0.26490 0.51630 -0.05300
C 	C 	0.03961 0.26351 0.56937 -0.07100
C 	C 	0.98383 0.24753 0.62061 0.04500
C 	C 	0.16848 0.70592 0.20624 0.33300
C 	C 	0.11696 0.69476 0.17912 -0.04500
C 	C 	0.03127 0.71427 0.20489 -0.00500
C 	C 	0.98262 0.70692 0.17834 -0.05100
C 	C 	0.02036 0.67866 0.12722 -0.07700
C 	C 	0.10664 0.65624 0.10268 0.10300
C 	C 	0.15416 0.66586 0.12842 -0.07800
C 	C 	0.89122 0.72872 0.20474 0.34300
C 	C 	0.22495 0.58845 0.03005 -0.03900
C 	C 	0.23734 0.55844 0.97848 0.01400
C 	C 	0.24445 0.61145 0.92445 -0.01200
C 	C 	0.23510 0.48610 0.98370 -0.05200
C 	C 	0.23649 0.46039 0.93063 -0.07100
C 	C 	0.25247 0.51617 0.87939 0.04500
C 	C 	0.91936 0.16848 0.20624 0.33300
C 	C 	0.00916 0.11696 0.17912 -0.04500
C 	C 	0.04957 0.03127 0.20489 -0.00500
C 	C 	0.13212 0.98262 0.17834 -0.05000
C 	C 	0.17376 0.02036 0.12722 -0.07800
C 	C 	0.13444 0.10664 0.10268 0.10300
C 	C 	0.05156 0.15416 0.12842 -0.07900
C 	C 	0.17532 0.89122 0.20474 0.34300
C 	C 	0.15655 0.22495 0.03005 -0.03900
C 	C 	0.22574 0.23734 0.97848 0.01500
C 	C 	0.21965 0.24445 0.92445 -0.01200
C 	C 	0.29510 0.23510 0.98370 -0.05200
C 	C 	0.37249 0.23649 0.93063 -0.07100
C 	C 	0.35197 0.25247 0.87939 0.04500
C 	C 	0.70592 0.91936 0.20624 0.33300
C 	C 	0.69476 0.00916 0.17912 -0.04500
C 	C 	0.71427 0.04957 0.20489 -0.00400
C 	C 	0.70692 0.13212 0.17834 -0.05200
C 	C 	0.67866 0.17376 0.12722 -0.07600
C 	C 	0.65624 0.13444 0.10268 0.10300
C 	C 	0.66586 0.05156 0.12842 -0.07800
C 	C 	0.72872 0.17532 0.20474 0.34300
C 	C 	0.58845 0.15655 0.03005 -0.03900
C 	C 	0.55844 0.22574 0.97848 0.01400
C 	C 	0.61145 0.21965 0.92445 -0.01200
C 	C 	0.48610 0.29510 0.98370 -0.05200
C 	C 	0.46039 0.37249 0.93063 -0.07100
C 	C 	0.51617 0.35197 0.87939 0.04500
N 	N 	0.74519 0.78635 0.37573 -0.16800
N 	N 	0.64315 0.67885 0.55255 -0.18900
N 	N 	0.78635 0.09273 0.37573 -0.16800
N 	N 	0.67885 0.12545 0.55255 -0.18900
N 	N 	0.09273 0.74519 0.37573 -0.16800
N 	N 	0.12545 0.64315 0.55255 -0.18900
N 	N 	0.75481 0.40727 0.12427 -0.16800
N 	N 	0.85685 0.37455 0.94745 -0.18900
N 	N 	0.71365 0.75481 0.12427 -0.16800
N 	N 	0.82115 0.85685 0.94745 -0.18900
N 	N 	0.40727 0.71365 0.12427 -0.16800
N 	N 	0.37455 0.82115 0.94745 -0.18900
N 	N 	0.25481 0.21365 0.62427 -0.16800
N 	N 	0.35685 0.32115 0.44745 -0.18900
N 	N 	0.21365 0.90727 0.62427 -0.16800
N 	N 	0.32115 0.87455 0.44745 -0.18900
N 	N 	0.90727 0.25481 0.62427 -0.16800
N 	N 	0.87455 0.35685 0.44745 -0.18900
N 	N 	0.24519 0.59273 0.87573 -0.16800
N 	N 	0.14315 0.62545 0.05255 -0.18900
N 	N 	0.28635 0.24519 0.87573 -0.16800
N 	N 	0.17885 0.14315 0.05255 -0.18900
N 	N 	0.59273 0.28635 0.87573 -0.16800
N 	N 	0.62545 0.17885 0.05255 -0.18900
O 	O 	0.63486 0.39012 0.75724 -0.39200
O 	O 	0.74057 0.37949 0.67798 -0.38800
O 	O 	0.36289 0.63992 0.75418 -0.39400
O 	O 	0.34821 0.74613 0.67579 -0.39800
O 	O 	0.39012 0.21778 0.75724 -0.39200
O 	O 	0.37949 0.20196 0.67798 -0.38800
O 	O 	0.63992 0.24301 0.75418 -0.39400
O 	O 	0.74613 0.22987 0.67579 -0.39800
O 	O 	0.21778 0.63486 0.75724 -0.39200
O 	O 	0.20196 0.74057 0.67798 -0.38800
O 	O 	0.24301 0.36289 0.75418 -0.39400
O 	O 	0.22987 0.34821 0.67579 -0.39800
O 	O 	0.86514 0.28222 0.74276 -0.39200
O 	O 	0.75943 0.29804 0.82202 -0.38800
O 	O 	0.13711 0.25699 0.74582 -0.39400
O 	O 	0.15179 0.27013 0.82421 -0.39800
O 	O 	0.10988 0.86514 0.74276 -0.39200
O 	O 	0.12051 0.75943 0.82202 -0.38800
O 	O 	0.86008 0.13711 0.74582 -0.39400
O 	O 	0.75387 0.15179 0.82421 -0.39700
O 	O 	0.28222 0.10988 0.74276 -0.39200
O 	O 	0.29804 0.12051 0.82202 -0.38800
O 	O 	0.25699 0.86008 0.74582 -0.39400
O 	O 	0.27013 0.75387 0.82421 -0.39800
O 	O 	0.36514 0.60988 0.24276 -0.39200
O 	O 	0.25943 0.62051 0.32202 -0.38800
O 	O 	0.63711 0.36008 0.24582 -0.39400
O 	O 	0.65179 0.25387 0.32421 -0.39800
O 	O 	0.60988 0.78222 0.24276 -0.39200
O 	O 	0.62051 0.79804 0.32202 -0.38800
O 	O 	0.36008 0.75699 0.24582 -0.39400
O 	O 	0.25387 0.77013 0.32421 -0.39800
O 	O 	0.78222 0.36514 0.24276 -0.39200
O 	O 	0.79804 0.25943 0.32202 -0.38800
O 	O 	0.75699 0.63711 0.24582 -0.39400
O 	O 	0.77013 0.65179 0.32421 -0.39800
O 	O 	0.13486 0.71778 0.25724 -0.39200
O 	O 	0.24057 0.70196 0.17798 -0.38800
O 	O 	0.86289 0.74301 0.25418 -0.39400
O 	O 	0.84821 0.72987 0.17579 -0.39800
O 	O 	0.89012 0.13486 0.25724 -0.39200
O 	O 	0.87949 0.24057 0.17798 -0.38800
O 	O 	0.13992 0.86289 0.25418 -0.39400
O 	O 	0.24613 0.84821 0.17579 -0.39700
O 	O 	0.71778 0.89012 0.25724 -0.39200
O 	O 	0.70196 0.87949 0.17798 -0.38800
O 	O 	0.74301 0.13992 0.25418 -0.39400
O 	O 	0.72987 0.24613 0.17579 -0.39800
