data_crystal

_cell_length_a 18.95840
_cell_length_b 18.95840
_cell_length_c 18.95840
_cell_angle_alpha 62.93120
_cell_angle_beta  62.93120
_cell_angle_gamma 62.93120

_symmetry_space_group_name_	'P 1'
_symmetry_space_group_name_H-M	'P 1'

loop_
_symmetry_equiv_pos_as_xyz
  x,y,z

loop_
_atom_site_label
_atom_site_type_symbol
_atom_site_fract_x
_atom_site_fract_y
_atom_site_fract_z
_atom_site_charge
Dy	Dy	0.99568 0.56638 0.55946 1.77400
Dy	Dy	0.55946 0.99568 0.56638 1.77400
Dy	Dy	0.56638 0.55946 0.99568 1.77400
Dy	Dy	0.00432 0.43362 0.44054 1.77400
Dy	Dy	0.44054 0.00432 0.43362 1.77400
Dy	Dy	0.43362 0.44054 0.00432 1.77400
H 	H 	0.77260 0.76260 0.48390 0.02300
H 	H 	0.60620 0.83950 0.36970 0.04300
H 	H 	0.80290 0.63290 0.34840 0.07400
H 	H 	0.32120 0.57920 0.63320 0.13900
H 	H 	0.24870 0.55900 0.57950 -0.01200
H 	H 	0.05370 0.58270 0.77690 -0.01000
H 	H 	0.13050 0.60700 0.82820 0.11100
H 	H 	0.22160 0.64280 0.82190 0.07600
H 	H 	0.30130 0.56280 0.81380 0.08500
H 	H 	0.48390 0.77260 0.76260 0.02300
H 	H 	0.36970 0.60620 0.83950 0.04300
H 	H 	0.34840 0.80290 0.63290 0.07400
H 	H 	0.63320 0.32120 0.57920 0.13900
H 	H 	0.57950 0.24870 0.55900 -0.01200
H 	H 	0.77690 0.05370 0.58270 -0.01000
H 	H 	0.82820 0.13050 0.60700 0.11100
H 	H 	0.82190 0.22160 0.64280 0.07600
H 	H 	0.81380 0.30130 0.56280 0.08500
H 	H 	0.76260 0.48390 0.77260 0.02300
H 	H 	0.83950 0.36970 0.60620 0.04300
H 	H 	0.63290 0.34840 0.80290 0.07400
H 	H 	0.57920 0.63320 0.32120 0.13900
H 	H 	0.55900 0.57950 0.24870 -0.01200
H 	H 	0.58270 0.77690 0.05370 -0.01000
H 	H 	0.60700 0.82820 0.13050 0.11100
H 	H 	0.64280 0.82190 0.22160 0.07600
H 	H 	0.56280 0.81380 0.30130 0.08500
H 	H 	0.22740 0.23740 0.51610 0.02300
H 	H 	0.39380 0.16050 0.63030 0.04300
H 	H 	0.19710 0.36710 0.65160 0.07400
H 	H 	0.67880 0.42080 0.36680 0.13900
H 	H 	0.75130 0.44100 0.42050 -0.01200
H 	H 	0.94630 0.41730 0.22310 -0.01000
H 	H 	0.86950 0.39300 0.17180 0.11100
H 	H 	0.77840 0.35720 0.17810 0.07600
H 	H 	0.69870 0.43720 0.18620 0.08500
H 	H 	0.51610 0.22740 0.23740 0.02300
H 	H 	0.63030 0.39380 0.16050 0.04300
H 	H 	0.65160 0.19710 0.36710 0.07400
H 	H 	0.36680 0.67880 0.42080 0.13900
H 	H 	0.42050 0.75130 0.44100 -0.01200
H 	H 	0.22310 0.94630 0.41730 -0.01000
H 	H 	0.17180 0.86950 0.39300 0.11100
H 	H 	0.17810 0.77840 0.35720 0.07600
H 	H 	0.18620 0.69870 0.43720 0.08500
H 	H 	0.23740 0.51610 0.22740 0.02300
H 	H 	0.16050 0.63030 0.39380 0.04300
H 	H 	0.36710 0.65160 0.19710 0.07400
H 	H 	0.42080 0.36680 0.67880 0.13900
H 	H 	0.44100 0.42050 0.75130 -0.01200
H 	H 	0.41730 0.22310 0.94630 -0.01000
H 	H 	0.39300 0.17180 0.86950 0.11100
H 	H 	0.35720 0.17810 0.77840 0.07600
H 	H 	0.43720 0.18620 0.69870 0.08500
C 	C 	0.87920 0.62420 0.44010 0.46400
C 	C 	0.80160 0.68880 0.41740 -0.11700
C 	C 	0.75529 0.75599 0.44929 0.05500
C 	C 	0.68462 0.81172 0.42952 -0.12600
C 	C 	0.63654 0.88264 0.46494 0.44100
C 	C 	0.65590 0.80240 0.38050 -0.04200
C 	C 	0.70240 0.73720 0.34730 0.10800
C 	C 	0.77400 0.67860 0.36790 -0.04900
C 	C 	0.23420 0.59420 0.73520 0.23500
C 	C 	0.26590 0.58120 0.66340 -0.27600
C 	C 	0.22220 0.57040 0.63000 0.17000
C 	C 	0.14120 0.57630 0.66970 -0.19900
C 	C 	0.08960 0.57140 0.63110 0.36100
C 	C 	0.10770 0.58480 0.74510 0.14400
C 	C 	0.15540 0.59700 0.77700 -0.25100
C 	C 	0.26640 0.61310 0.78370 -0.16500
C 	C 	0.44010 0.87920 0.62420 0.46400
C 	C 	0.41740 0.80160 0.68880 -0.11700
C 	C 	0.44929 0.75529 0.75599 0.05500
C 	C 	0.42952 0.68462 0.81172 -0.12600
C 	C 	0.46494 0.63654 0.88264 0.44100
C 	C 	0.38050 0.65590 0.80240 -0.04200
C 	C 	0.34730 0.70240 0.73720 0.10800
C 	C 	0.36790 0.77400 0.67860 -0.04900
C 	C 	0.73520 0.23420 0.59420 0.23500
C 	C 	0.66340 0.26590 0.58120 -0.27600
C 	C 	0.63000 0.22220 0.57040 0.17000
C 	C 	0.66970 0.14120 0.57630 -0.19900
C 	C 	0.63110 0.08960 0.57140 0.36100
C 	C 	0.74510 0.10770 0.58480 0.14400
C 	C 	0.77700 0.15540 0.59700 -0.25100
C 	C 	0.78370 0.26640 0.61310 -0.16500
C 	C 	0.62420 0.44010 0.87920 0.46400
C 	C 	0.68880 0.41740 0.80160 -0.11700
C 	C 	0.75599 0.44929 0.75529 0.05500
C 	C 	0.81172 0.42952 0.68462 -0.12600
C 	C 	0.88264 0.46494 0.63654 0.44100
C 	C 	0.80240 0.38050 0.65590 -0.04200
C 	C 	0.73720 0.34730 0.70240 0.10800
C 	C 	0.67860 0.36790 0.77400 -0.04900
C 	C 	0.59420 0.73520 0.23420 0.23500
C 	C 	0.58120 0.66340 0.26590 -0.27600
C 	C 	0.57040 0.63000 0.22220 0.17000
C 	C 	0.57630 0.66970 0.14120 -0.19900
C 	C 	0.57140 0.63110 0.08960 0.36100
C 	C 	0.58480 0.74510 0.10770 0.14400
C 	C 	0.59700 0.77700 0.15540 -0.25100
C 	C 	0.61310 0.78370 0.26640 -0.16500
C 	C 	0.12080 0.37580 0.55990 0.46400
C 	C 	0.19840 0.31120 0.58260 -0.11700
C 	C 	0.24471 0.24401 0.55071 0.05500
C 	C 	0.31538 0.18828 0.57048 -0.12600
C 	C 	0.36346 0.11736 0.53506 0.44100
C 	C 	0.34410 0.19760 0.61950 -0.04200
C 	C 	0.29760 0.26280 0.65270 0.10800
C 	C 	0.22600 0.32140 0.63210 -0.04900
C 	C 	0.76580 0.40580 0.26480 0.23500
C 	C 	0.73410 0.41880 0.33660 -0.27600
C 	C 	0.77780 0.42960 0.37000 0.17000
C 	C 	0.85880 0.42370 0.33030 -0.19900
C 	C 	0.91040 0.42860 0.36890 0.36100
C 	C 	0.89230 0.41520 0.25490 0.14400
C 	C 	0.84460 0.40300 0.22300 -0.25100
C 	C 	0.73360 0.38690 0.21630 -0.16500
C 	C 	0.55990 0.12080 0.37580 0.46400
C 	C 	0.58260 0.19840 0.31120 -0.11700
C 	C 	0.55071 0.24471 0.24401 0.05500
C 	C 	0.57048 0.31538 0.18828 -0.12600
C 	C 	0.53506 0.36346 0.11736 0.44100
C 	C 	0.61950 0.34410 0.19760 -0.04200
C 	C 	0.65270 0.29760 0.26280 0.10800
C 	C 	0.63210 0.22600 0.32140 -0.04900
C 	C 	0.26480 0.76580 0.40580 0.23500
C 	C 	0.33660 0.73410 0.41880 -0.27600
C 	C 	0.37000 0.77780 0.42960 0.17000
C 	C 	0.33030 0.85880 0.42370 -0.19900
C 	C 	0.36890 0.91040 0.42860 0.36100
C 	C 	0.25490 0.89230 0.41520 0.14400
C 	C 	0.22300 0.84460 0.40300 -0.25100
C 	C 	0.21630 0.73360 0.38690 -0.16500
C 	C 	0.37580 0.55990 0.12080 0.46400
C 	C 	0.31120 0.58260 0.19840 -0.11700
C 	C 	0.24401 0.55071 0.24471 0.05500
C 	C 	0.18828 0.57048 0.31538 -0.12600
C 	C 	0.11736 0.53506 0.36346 0.44100
C 	C 	0.19760 0.61950 0.34410 -0.04200
C 	C 	0.26280 0.65270 0.29760 0.10800
C 	C 	0.32140 0.63210 0.22600 -0.04900
C 	C 	0.40580 0.26480 0.76580 0.23500
C 	C 	0.41880 0.33660 0.73410 -0.27600
C 	C 	0.42960 0.37000 0.77780 0.17000
C 	C 	0.42370 0.33030 0.85880 -0.19900
C 	C 	0.42860 0.36890 0.91040 0.36100
C 	C 	0.41520 0.25490 0.89230 0.14400
C 	C 	0.40300 0.22300 0.84460 -0.25100
C 	C 	0.38690 0.21630 0.73360 -0.16500
O 	O 	0.89517 0.63187 0.49377 -0.51500
O 	O 	0.91985 0.56925 0.40595 -0.48300
O 	O 	0.11825 0.57825 0.55495 -0.43200
O 	O 	0.01993 0.56103 0.67463 -0.43400
O 	O 	0.56718 0.92858 0.45398 -0.54900
O 	O 	0.66460 0.89240 0.50740 -0.46900
O 	O 	0.66870 0.70750 0.31740 -0.17400
O 	O 	0.49377 0.89517 0.63187 -0.51500
O 	O 	0.40595 0.91985 0.56925 -0.48300
O 	O 	0.55495 0.11825 0.57825 -0.43200
O 	O 	0.67463 0.01993 0.56103 -0.43400
O 	O 	0.45398 0.56718 0.92858 -0.54900
O 	O 	0.50740 0.66460 0.89240 -0.46900
O 	O 	0.31740 0.66870 0.70750 -0.17400
O 	O 	0.63187 0.49377 0.89517 -0.51500
O 	O 	0.56925 0.40595 0.91985 -0.48300
O 	O 	0.57825 0.55495 0.11825 -0.43200
O 	O 	0.56103 0.67463 0.01993 -0.43400
O 	O 	0.92858 0.45398 0.56718 -0.54900
O 	O 	0.89240 0.50740 0.66460 -0.46900
O 	O 	0.70750 0.31740 0.66870 -0.17400
O 	O 	0.10483 0.36813 0.50623 -0.51500
O 	O 	0.08015 0.43075 0.59405 -0.48300
O 	O 	0.88175 0.42175 0.44505 -0.43200
O 	O 	0.98007 0.43897 0.32537 -0.43400
O 	O 	0.43282 0.07142 0.54602 -0.54900
O 	O 	0.33540 0.10760 0.49260 -0.46900
O 	O 	0.33130 0.29250 0.68260 -0.17400
O 	O 	0.50623 0.10483 0.36813 -0.51500
O 	O 	0.59405 0.08015 0.43075 -0.48300
O 	O 	0.44505 0.88175 0.42175 -0.43200
O 	O 	0.32537 0.98007 0.43897 -0.43400
O 	O 	0.54602 0.43282 0.07142 -0.54900
O 	O 	0.49260 0.33540 0.10760 -0.46900
O 	O 	0.68260 0.33130 0.29250 -0.17400
O 	O 	0.36813 0.50623 0.10483 -0.51500
O 	O 	0.43075 0.59405 0.08015 -0.48300
O 	O 	0.42175 0.44505 0.88175 -0.43200
O 	O 	0.43897 0.32537 0.98007 -0.43400
O 	O 	0.07142 0.54602 0.43282 -0.54900
O 	O 	0.10760 0.49260 0.33540 -0.46900
O 	O 	0.29250 0.68260 0.33130 -0.17400
