data_crystal

_cell_length_a 13.07850
_cell_length_b 13.07850
_cell_length_c 20.08300
_cell_angle_alpha 90.00000
_cell_angle_beta  90.00000
_cell_angle_gamma 120.00000

_symmetry_space_group_name_	'P 1'
_symmetry_space_group_name_H-M	'P 1'

loop_
_symmetry_equiv_pos_as_xyz
  x,y,z

loop_
_atom_site_label
_atom_site_type_symbol
_atom_site_fract_x
_atom_site_fract_y
_atom_site_fract_z
_atom_site_charge
Cu	Cu	0.38463 0.00000 -0.00000 0.82600
Cu	Cu	0.61537 0.61537 0.33333 0.84400
Cu	Cu	0.00000 0.38463 0.66667 0.83600
H 	H 	0.43410 0.17190 0.89330 0.01700
H 	H 	0.15340 0.05680 0.77350 0.07800
H 	H 	0.04460 0.91590 0.85300 0.00500
H 	H 	0.13500 0.89980 0.94800 0.01500
H 	H 	0.45630 0.26000 0.79420 0.10500
H 	H 	0.52630 0.35380 0.69210 -0.07100
H 	H 	0.43350 0.49450 0.74120 0.29200
H 	H 	0.52070 0.46810 0.78090 0.26900
H 	H 	0.58880 0.59480 0.66040 -0.36400
H 	H 	0.62780 0.70040 0.78690 0.52400
H 	H 	0.54440 0.70500 0.73240 0.57900
H 	H 	0.68120 0.77050 0.72060 0.58300
H 	H 	0.78030 0.65680 0.69330 0.57400
H 	H 	0.70820 0.51850 0.69420 0.59500
H 	H 	0.73580 0.58920 0.76110 0.54300
H 	H 	0.36100 0.38350 0.62360 0.13700
H 	H 	0.60480 0.50950 0.46820 -0.00600
H 	H 	0.35580 0.49630 0.35500 -0.04400
H 	H 	0.21470 0.38670 0.43320 0.07500
H 	H 	0.27240 0.34290 0.53340 -0.00900
H 	H 	0.73780 0.56590 0.22663 0.01600
H 	H 	0.90340 0.84660 0.10683 0.07900
H 	H 	0.87130 0.95540 0.18633 0.02200
H 	H 	0.76480 0.86500 0.28133 0.01400
H 	H 	0.80370 0.54370 0.12753 0.10700
H 	H 	0.82750 0.47370 0.02543 -0.06700
H 	H 	0.06100 0.56650 0.07453 0.26400
H 	H 	0.94740 0.47930 0.11423 0.25900
H 	H 	0.00600 0.41120 0.99373 -0.34800
H 	H 	0.07260 0.37220 0.12023 0.51800
H 	H 	0.16060 0.45560 0.06573 0.56600
H 	H 	0.08930 0.31880 0.05393 0.56300
H 	H 	0.87650 0.21970 0.02663 0.54800
H 	H 	0.81030 0.29180 0.02753 0.56800
H 	H 	0.85340 0.26420 0.09443 0.52800
H 	H 	0.02250 0.63900 0.95693 0.12300
H 	H 	0.90470 0.39520 0.80153 -0.00600
H 	H 	0.14050 0.64420 0.68833 -0.04500
H 	H 	0.17200 0.78530 0.76653 0.07000
H 	H 	0.07050 0.72760 0.86673 0.00200
H 	H 	0.82810 0.26220 0.55997 0.01400
H 	H 	0.94320 0.09660 0.44017 0.06800
H 	H 	0.08410 0.12870 0.51967 0.01900
H 	H 	0.10020 0.23520 0.61467 0.01000
H 	H 	0.74000 0.19630 0.46087 0.10600
H 	H 	0.64620 0.17250 0.35877 -0.06300
H 	H 	0.50550 0.93900 0.40787 0.28900
H 	H 	0.53190 0.05260 0.44757 0.25600
H 	H 	0.40520 0.99400 0.32707 -0.31500
H 	H 	0.29960 0.92740 0.45357 0.48600
H 	H 	0.29500 0.83940 0.39907 0.53700
H 	H 	0.22950 0.91070 0.38727 0.53900
H 	H 	0.34320 0.12350 0.35997 0.52800
H 	H 	0.48150 0.18970 0.36087 0.55400
H 	H 	0.41080 0.14660 0.42777 0.50300
H 	H 	0.61650 0.97750 0.29027 0.15200
H 	H 	0.49050 0.09530 0.13487 -0.00700
H 	H 	0.50370 0.85950 0.02167 -0.05800
H 	H 	0.61330 0.82800 0.09987 0.08000
H 	H 	0.65710 0.92950 0.20007 -0.01700
H 	H 	0.26220 0.82810 0.10670 0.01300
H 	H 	0.09660 0.94320 0.22650 0.06800
H 	H 	0.12870 0.08410 0.14700 0.01900
H 	H 	0.23520 0.10020 0.05200 0.00400
H 	H 	0.19630 0.74000 0.20580 0.10600
H 	H 	0.17250 0.64620 0.30790 -0.06400
H 	H 	0.93900 0.50550 0.25880 0.29400
H 	H 	0.05260 0.53190 0.21910 0.26000
H 	H 	0.99400 0.40520 0.33960 -0.31500
H 	H 	0.92740 0.29960 0.21310 0.49300
H 	H 	0.83940 0.29500 0.26760 0.53900
H 	H 	0.91070 0.22950 0.27940 0.54200
H 	H 	0.12350 0.34320 0.30670 0.53000
H 	H 	0.18970 0.48150 0.30580 0.55600
H 	H 	0.14660 0.41080 0.23890 0.50600
H 	H 	0.97750 0.61650 0.37640 0.15400
H 	H 	0.09530 0.49050 0.53180 -0.00700
H 	H 	0.85950 0.50370 0.64500 -0.04800
H 	H 	0.82800 0.61330 0.56680 0.08400
H 	H 	0.92950 0.65710 0.46660 -0.01700
H 	H 	0.17190 0.43410 0.77337 0.01700
H 	H 	0.05680 0.15340 0.89317 0.08700
H 	H 	0.91590 0.04460 0.81367 0.00500
H 	H 	0.89980 0.13500 0.71867 0.01100
H 	H 	0.26000 0.45630 0.87247 0.10400
H 	H 	0.35380 0.52630 0.97457 -0.08600
H 	H 	0.49450 0.43350 0.92547 0.33400
H 	H 	0.46810 0.52070 0.88577 0.30900
H 	H 	0.59480 0.58880 0.00627 -0.44500
H 	H 	0.70040 0.62780 0.87977 0.60000
H 	H 	0.70500 0.54440 0.93427 0.65700
H 	H 	0.77050 0.68120 0.94607 0.66100
H 	H 	0.65680 0.78030 0.97337 0.65000
H 	H 	0.51850 0.70820 0.97247 0.67300
H 	H 	0.58920 0.73580 0.90557 0.61500
H 	H 	0.38350 0.36100 0.04307 0.13600
H 	H 	0.50950 0.60480 0.19847 -0.00700
H 	H 	0.49630 0.35580 0.31167 -0.04400
H 	H 	0.38670 0.21470 0.23347 0.07600
H 	H 	0.34290 0.27240 0.13327 -0.01100
H 	H 	0.56590 0.73780 0.44003 0.01600
H 	H 	0.84660 0.90340 0.55983 0.08200
H 	H 	0.95540 0.87130 0.48033 0.02100
H 	H 	0.86500 0.76480 0.38533 0.01500
H 	H 	0.54370 0.80370 0.53913 0.10600
H 	H 	0.47370 0.82750 0.64123 -0.07800
H 	H 	0.56650 0.06100 0.59213 0.29900
H 	H 	0.47930 0.94740 0.55243 0.28800
H 	H 	0.41120 0.00600 0.67293 -0.40700
H 	H 	0.37220 0.07260 0.54643 0.56800
H 	H 	0.45560 0.16060 0.60093 0.62100
H 	H 	0.31880 0.08930 0.61273 0.62000
H 	H 	0.21970 0.87650 0.64003 0.60700
H 	H 	0.29180 0.81030 0.63913 0.62900
H 	H 	0.26420 0.85340 0.57223 0.58000
H 	H 	0.63900 0.02250 0.70973 0.12900
H 	H 	0.39520 0.90470 0.86513 -0.00500
H 	H 	0.64420 0.14050 0.97833 -0.03400
H 	H 	0.78530 0.17200 0.90013 0.07800
H 	H 	0.72760 0.07050 0.79993 -0.00400
C 	C 	0.35540 0.11810 0.88403 -0.04300
C 	C 	0.30640 0.13160 0.82493 0.11700
C 	C 	0.18880 0.05260 0.81276 -0.13200
C 	C 	0.12470 0.96730 0.85967 -0.00400
C 	C 	0.17920 0.95800 0.91682 0.00700
C 	C 	0.35450 0.26450 0.72771 0.10800
C 	C 	0.46090 0.37000 0.69519 0.27100
C 	C 	0.49980 0.48130 0.73668 -0.93600
C 	C 	0.60380 0.59210 0.70805 1.32500
C 	C 	0.61540 0.70210 0.73990 -1.87000
C 	C 	0.71740 0.58880 0.71480 -1.86200
C 	C 	0.49300 0.40030 0.57472 0.24600
C 	C 	0.44560 0.42250 0.51127 -0.13600
C 	C 	0.52560 0.48550 0.46155 0.06800
C 	C 	0.37880 0.47700 0.39462 0.08000
C 	C 	0.29380 0.41210 0.44151 -0.16300
C 	C 	0.32800 0.38540 0.50075 0.05300
C 	C 	0.76270 0.64460 0.21736 -0.03700
C 	C 	0.82520 0.69360 0.15826 0.11300
C 	C 	0.86380 0.81120 0.14609 -0.11000
C 	C 	0.84260 0.87530 0.19300 -0.02200
C 	C 	0.77880 0.82080 0.25015 0.00800
C 	C 	0.91000 0.64550 0.06104 0.11600
C 	C 	0.90910 0.53910 0.02852 0.23600
C 	C 	0.98150 0.50020 0.07001 -0.87500
C 	C 	0.98830 0.39620 0.04138 1.28200
C 	C 	0.08670 0.38460 0.07323 -1.84000
C 	C 	0.87140 0.28260 0.04813 -1.80200
C 	C 	0.90730 0.50700 0.90805 0.23900
C 	C 	0.97690 0.55440 0.84460 -0.10900
C 	C 	0.95990 0.47440 0.79488 0.07600
C 	C 	0.09820 0.62120 0.72795 0.06900
C 	C 	0.11830 0.70620 0.77484 -0.14900
C 	C 	0.05740 0.67200 0.83408 0.01900
C 	C 	0.88190 0.23730 0.55070 -0.03100
C 	C 	0.86840 0.17480 0.49160 0.10100
C 	C 	0.94740 0.13620 0.47943 -0.07900
C 	C 	0.03270 0.15740 0.52634 -0.05600
C 	C 	0.04200 0.22120 0.58349 -0.00200
C 	C 	0.73550 0.09000 0.39438 0.11100
C 	C 	0.63000 0.09090 0.36186 0.25500
C 	C 	0.51870 0.01850 0.40335 -0.89500
C 	C 	0.40790 0.01170 0.37472 1.19900
C 	C 	0.29790 0.91330 0.40657 -1.72200
C 	C 	0.41120 0.12860 0.38147 -1.72900
C 	C 	0.59970 0.09270 0.24139 0.25200
C 	C 	0.57750 0.02310 0.17794 -0.16000
C 	C 	0.51450 0.04010 0.12822 0.05800
C 	C 	0.52300 0.90180 0.06129 0.09200
C 	C 	0.58790 0.88170 0.10818 -0.18400
C 	C 	0.61460 0.94260 0.16742 0.08800
C 	C 	0.23730 0.88190 0.11597 -0.03200
C 	C 	0.17480 0.86840 0.17507 0.10100
C 	C 	0.13620 0.94740 0.18724 -0.08100
C 	C 	0.15740 0.03270 0.14033 -0.05600
C 	C 	0.22120 0.04200 0.08318 -0.00200
C 	C 	0.09000 0.73550 0.27229 0.11000
C 	C 	0.09090 0.63000 0.30481 0.25800
C 	C 	0.01850 0.51870 0.26332 -0.90400
C 	C 	0.01170 0.40790 0.29195 1.20200
C 	C 	0.91330 0.29790 0.26010 -1.72900
C 	C 	0.12860 0.41120 0.28520 -1.73400
C 	C 	0.09270 0.59970 0.42528 0.25300
C 	C 	0.02310 0.57750 0.48873 -0.16200
C 	C 	0.04010 0.51450 0.53845 0.05800
C 	C 	0.90180 0.52300 0.60538 0.09300
C 	C 	0.88170 0.58790 0.55849 -0.18200
C 	C 	0.94260 0.61460 0.49925 0.08900
C 	C 	0.11810 0.35540 0.78264 -0.04800
C 	C 	0.13160 0.30640 0.84174 0.12200
C 	C 	0.05260 0.18880 0.85391 -0.14700
C 	C 	0.96730 0.12470 0.80700 0.01000
C 	C 	0.95800 0.17920 0.74985 0.01100
C 	C 	0.26450 0.35450 0.93896 0.09200
C 	C 	0.37000 0.46090 0.97148 0.33800
C 	C 	0.48130 0.49980 0.92999 -1.06900
C 	C 	0.59210 0.60380 0.95862 1.54200
C 	C 	0.70210 0.61540 0.92677 -2.11100
C 	C 	0.58880 0.71740 0.95187 -2.09900
C 	C 	0.40030 0.49300 0.09195 0.25200
C 	C 	0.42250 0.44560 0.15540 -0.13800
C 	C 	0.48550 0.52560 0.20512 0.06900
C 	C 	0.47700 0.37880 0.27205 0.08100
C 	C 	0.41210 0.29380 0.22516 -0.16500
C 	C 	0.38540 0.32800 0.16592 0.05500
C 	C 	0.64460 0.76270 0.44930 -0.03800
C 	C 	0.69360 0.82520 0.50840 0.11300
C 	C 	0.81120 0.86380 0.52057 -0.11100
C 	C 	0.87530 0.84260 0.47366 -0.02100
C 	C 	0.82080 0.77880 0.41651 0.00800
C 	C 	0.64550 0.91000 0.60562 0.10300
C 	C 	0.53910 0.90910 0.63814 0.29100
C 	C 	0.50020 0.98150 0.59665 -0.98000
C 	C 	0.39620 0.98830 0.62528 1.44000
C 	C 	0.38460 0.08670 0.59343 -2.00800
C 	C 	0.28260 0.87140 0.61853 -1.97800
C 	C 	0.50700 0.90730 0.75861 0.24600
C 	C 	0.55440 0.97690 0.82206 -0.12300
C 	C 	0.47440 0.95990 0.87178 0.07200
C 	C 	0.62120 0.09820 0.93871 0.07500
C 	C 	0.70620 0.11830 0.89182 -0.15500
C 	C 	0.67200 0.05740 0.83258 0.03600
N 	N 	0.29407 0.03130 0.92763 -0.20100
N 	N 	0.38290 0.22430 0.78341 -0.21600
N 	N 	0.42690 0.38480 0.62859 -0.27300
N 	N 	0.49340 0.51344 0.40397 -0.24100
N 	N 	0.73723 0.70593 0.26096 -0.20300
N 	N 	0.84140 0.61710 0.11674 -0.21600
N 	N 	0.95790 0.57310 0.96192 -0.24300
N 	N 	0.02004 0.50660 0.73730 -0.24900
N 	N 	0.96870 0.26277 0.59430 -0.19400
N 	N 	0.77570 0.15860 0.45008 -0.21400
N 	N 	0.61520 0.04210 0.29526 -0.28400
N 	N 	0.48656 0.97996 0.07064 -0.23600
N 	N 	0.26277 0.96870 0.07237 -0.19700
N 	N 	0.15860 0.77570 0.21659 -0.21400
N 	N 	0.04210 0.61520 0.37141 -0.28600
N 	N 	0.97996 0.48656 0.59603 -0.23200
N 	N 	0.03130 0.29407 0.73904 -0.21100
N 	N 	0.22430 0.38290 0.88326 -0.21300
N 	N 	0.38480 0.42690 0.03808 -0.29000
N 	N 	0.51344 0.49340 0.26270 -0.24100
N 	N 	0.70593 0.73723 0.40570 -0.20300
N 	N 	0.61710 0.84140 0.54992 -0.21300
N 	N 	0.57310 0.95790 0.70474 -0.26600
N 	N 	0.50660 0.02004 0.92936 -0.23900
O 	O 	0.25534 0.22294 0.70668 -0.24000
O 	O 	0.58580 0.39902 0.57578 -0.29400
O 	O 	0.96760 0.74466 0.04001 -0.23900
O 	O 	0.81322 0.41420 0.90911 -0.28600
O 	O 	0.77706 0.03240 0.37335 -0.24000
O 	O 	0.60098 0.18678 0.24245 -0.29300
O 	O 	0.03240 0.77706 0.29332 -0.24100
O 	O 	0.18678 0.60098 0.42422 -0.29300
O 	O 	0.22294 0.25534 0.95999 -0.22300
O 	O 	0.39902 0.58580 0.09089 -0.29900
O 	O 	0.74466 0.96760 0.62665 -0.22700
O 	O 	0.41420 0.81322 0.75755 -0.29300
