data_crystal

_cell_length_a 35.96300
_cell_length_b 35.96300
_cell_length_c 31.90000
_cell_angle_alpha 90.00000
_cell_angle_beta  90.00000
_cell_angle_gamma 90.00000

_symmetry_space_group_name_	'P 1'
_symmetry_space_group_name_H-M	'P 1'

loop_
_symmetry_equiv_pos_as_xyz
  x,y,z

loop_
_atom_site_label
_atom_site_type_symbol
_atom_site_fract_x
_atom_site_fract_y
_atom_site_fract_z
_atom_site_charge
O 	O 	0.28726 0.15382 0.19726 -0.48300
O 	O 	0.29765 0.10994 0.24460 -0.30400
O 	O 	0.25007 0.12244 0.05283 -0.42100
O 	O 	0.21087 0.07532 0.04879 -0.38600
O 	O 	0.21085 0.76748 0.18331 -0.49800
O 	O 	0.24478 0.80270 0.22550 -0.56400
O 	O 	0.15687 0.82693 0.05479 -0.52500
O 	O 	0.16210 0.88788 0.04720 -0.53800
O 	O 	0.02710 0.10210 0.96160 -0.15900
N 	N 	0.27670 0.97444 0.20020 -0.08000
N 	N 	0.26760 0.93792 0.19723 -0.18700
H 	H 	0.27520 0.92080 0.21400 0.16000
N 	N 	0.23890 0.96430 0.14440 -0.14400
C 	C 	0.28755 0.12037 0.20890 0.39600
C 	C 	0.27516 0.09215 0.17733 -0.10600
C 	C 	0.26340 0.10414 0.13820 0.03700
H 	H 	0.26490 0.12920 0.13140 0.04500
C 	C 	0.24940 0.07915 0.10900 -0.07800
C 	C 	0.24770 0.04139 0.11950 -0.00700
H 	H 	0.23780 0.02450 0.10040 0.05400
C 	C 	0.26050 0.02899 0.15740 -0.02300
C 	C 	0.27420 0.05456 0.18679 0.00400
H 	H 	0.28270 0.04630 0.21270 0.05800
C 	C 	0.25900 0.98881 0.16750 0.12100
C 	C 	0.24500 0.93238 0.16430 0.15800
C 	C 	0.23640 0.09261 0.06730 0.31000
C 	C 	0.22539 0.79764 0.19331 0.50400
C 	C 	0.21909 0.83094 0.16566 -0.19700
C 	C 	0.23480 0.86501 0.17720 0.08100
H 	H 	0.24930 0.86670 0.20120 0.01300
C 	C 	0.22860 0.89612 0.15260 -0.10200
C 	C 	0.20720 0.89389 0.11700 0.08400
H 	H 	0.20310 0.91500 0.10090 0.01600
C 	C 	0.19180 0.86025 0.10500 -0.20000
C 	C 	0.19735 0.82866 0.12980 0.12600
H 	H 	0.18650 0.80620 0.12230 0.00600
C 	C 	0.16840 0.85830 0.06550 0.51000
O 	O 	0.03470 0.12800 0.94320 -0.18100
O 	O 	0.78726 0.65382 0.69726 -0.48100
O 	O 	0.79765 0.60994 0.74460 -0.30100
O 	O 	0.75007 0.62244 0.55283 -0.41900
O 	O 	0.71087 0.57532 0.54879 -0.38500
O 	O 	0.71085 0.26748 0.68331 -0.49900
O 	O 	0.74478 0.30270 0.72550 -0.56500
O 	O 	0.65687 0.32693 0.55479 -0.53900
O 	O 	0.66210 0.38788 0.54720 -0.54800
O 	O 	0.52710 0.60210 0.46160 -0.20400
N 	N 	0.77670 0.47444 0.70020 -0.08000
N 	N 	0.76760 0.43792 0.69723 -0.18800
H 	H 	0.77520 0.42080 0.71400 0.16000
N 	N 	0.73890 0.46430 0.64440 -0.14300
C 	C 	0.78755 0.62037 0.70890 0.39400
C 	C 	0.77516 0.59215 0.67733 -0.10300
C 	C 	0.76340 0.60414 0.63820 0.03400
H 	H 	0.76490 0.62920 0.63140 0.04700
C 	C 	0.74940 0.57915 0.60900 -0.07200
C 	C 	0.74770 0.54139 0.61950 -0.01000
H 	H 	0.73780 0.52450 0.60040 0.05900
C 	C 	0.76050 0.52899 0.65740 -0.02000
C 	C 	0.77420 0.55456 0.68679 0.00100
H 	H 	0.78270 0.54630 0.71270 0.05900
C 	C 	0.75900 0.48881 0.66750 0.12100
C 	C 	0.74500 0.43238 0.66430 0.16000
C 	C 	0.73640 0.59261 0.56730 0.30800
C 	C 	0.72539 0.29764 0.69331 0.50400
C 	C 	0.71909 0.33094 0.66566 -0.19900
C 	C 	0.73480 0.36501 0.67720 0.08200
H 	H 	0.74930 0.36670 0.70120 0.01100
C 	C 	0.72860 0.39612 0.65260 -0.10300
C 	C 	0.70720 0.39389 0.61700 0.08700
H 	H 	0.70310 0.41500 0.60090 0.01700
C 	C 	0.69180 0.36025 0.60500 -0.20400
C 	C 	0.69735 0.32866 0.62980 0.12900
H 	H 	0.68650 0.30620 0.62230 0.00500
C 	C 	0.66840 0.35830 0.56550 0.52400
O 	O 	0.53470 0.62800 0.44320 -0.20500
O 	O 	0.71274 0.84618 0.19726 -0.48400
O 	O 	0.70235 0.89006 0.24460 -0.30500
O 	O 	0.74993 0.87756 0.05283 -0.42200
O 	O 	0.78913 0.92468 0.04879 -0.38700
O 	O 	0.78915 0.23252 0.18331 -0.49900
O 	O 	0.75522 0.19730 0.22550 -0.56500
O 	O 	0.84313 0.17307 0.05479 -0.52600
O 	O 	0.83790 0.11212 0.04720 -0.53900
O 	O 	0.97290 0.89790 0.96160 -0.16000
N 	N 	0.72330 0.02556 0.20020 -0.08100
N 	N 	0.73240 0.06208 0.19723 -0.18800
H 	H 	0.72480 0.07920 0.21400 0.15900
N 	N 	0.76110 0.03570 0.14440 -0.14500
C 	C 	0.71245 0.87963 0.20890 0.39500
C 	C 	0.72484 0.90785 0.17733 -0.10700
C 	C 	0.73660 0.89586 0.13820 0.03600
H 	H 	0.73510 0.87080 0.13140 0.04400
C 	C 	0.75060 0.92085 0.10900 -0.07900
C 	C 	0.75230 0.95861 0.11950 -0.00800
H 	H 	0.76220 0.97550 0.10040 0.05300
C 	C 	0.73950 0.97101 0.15740 -0.02400
C 	C 	0.72580 0.94544 0.18679 0.00300
H 	H 	0.71730 0.95370 0.21270 0.05700
C 	C 	0.74100 0.01119 0.16750 0.12000
C 	C 	0.75500 0.06762 0.16430 0.15700
C 	C 	0.76360 0.90739 0.06730 0.30900
C 	C 	0.77461 0.20236 0.19331 0.50300
C 	C 	0.78091 0.16906 0.16566 -0.19800
C 	C 	0.76520 0.13499 0.17720 0.08000
H 	H 	0.75070 0.13330 0.20120 0.01200
C 	C 	0.77140 0.10388 0.15260 -0.10300
C 	C 	0.79280 0.10611 0.11700 0.08300
H 	H 	0.79690 0.08500 0.10090 0.01500
C 	C 	0.80820 0.13975 0.10500 -0.20100
C 	C 	0.80265 0.17134 0.12980 0.12500
H 	H 	0.81350 0.19380 0.12230 0.00500
C 	C 	0.83160 0.14170 0.06550 0.50900
O 	O 	0.96530 0.87200 0.94320 -0.18200
O 	O 	0.21274 0.34618 0.69726 -0.48200
O 	O 	0.20235 0.39006 0.74460 -0.30200
O 	O 	0.24993 0.37756 0.55283 -0.41900
O 	O 	0.28913 0.42468 0.54879 -0.38500
O 	O 	0.28915 0.73252 0.68331 -0.49900
O 	O 	0.25522 0.69730 0.72550 -0.56500
O 	O 	0.34313 0.67307 0.55479 -0.53900
O 	O 	0.33790 0.61212 0.54720 -0.54800
O 	O 	0.47290 0.39790 0.46160 -0.20400
N 	N 	0.22330 0.52556 0.70020 -0.08000
N 	N 	0.23240 0.56208 0.69723 -0.18800
H 	H 	0.22480 0.57920 0.71400 0.16000
N 	N 	0.26110 0.53570 0.64440 -0.14300
C 	C 	0.21245 0.37963 0.70890 0.39400
C 	C 	0.22484 0.40785 0.67733 -0.10300
C 	C 	0.23660 0.39586 0.63820 0.03400
H 	H 	0.23510 0.37080 0.63140 0.04700
C 	C 	0.25060 0.42085 0.60900 -0.07200
C 	C 	0.25230 0.45861 0.61950 -0.01000
H 	H 	0.26220 0.47550 0.60040 0.05900
C 	C 	0.23950 0.47101 0.65740 -0.02000
C 	C 	0.22580 0.44544 0.68679 0.00100
H 	H 	0.21730 0.45370 0.71270 0.05900
C 	C 	0.24100 0.51119 0.66750 0.12100
C 	C 	0.25500 0.56762 0.66430 0.16000
C 	C 	0.26360 0.40739 0.56730 0.30800
C 	C 	0.27461 0.70236 0.69331 0.50400
C 	C 	0.28091 0.66906 0.66566 -0.19900
C 	C 	0.26520 0.63499 0.67720 0.08200
H 	H 	0.25070 0.63330 0.70120 0.01100
C 	C 	0.27140 0.60388 0.65260 -0.10300
C 	C 	0.29280 0.60611 0.61700 0.08700
H 	H 	0.29690 0.58500 0.60090 0.01700
C 	C 	0.30820 0.63975 0.60500 -0.20400
C 	C 	0.30265 0.67134 0.62980 0.12900
H 	H 	0.31350 0.69380 0.62230 0.00500
C 	C 	0.33160 0.64170 0.56550 0.52400
O 	O 	0.46530 0.37200 0.44320 -0.20500
O 	O 	0.84618 0.28726 0.19726 -0.48400
O 	O 	0.89006 0.29765 0.24460 -0.30500
O 	O 	0.87756 0.25007 0.05283 -0.42200
O 	O 	0.92468 0.21087 0.04879 -0.38700
O 	O 	0.23252 0.21085 0.18331 -0.49900
O 	O 	0.19730 0.24478 0.22550 -0.56500
O 	O 	0.17307 0.15687 0.05479 -0.52600
O 	O 	0.11212 0.16210 0.04720 -0.53900
O 	O 	0.89790 0.02710 0.96160 -0.16000
N 	N 	0.02556 0.27670 0.20020 -0.08100
N 	N 	0.06208 0.26760 0.19723 -0.18800
H 	H 	0.07920 0.27520 0.21400 0.15900
N 	N 	0.03570 0.23890 0.14440 -0.14500
C 	C 	0.87963 0.28755 0.20890 0.39500
C 	C 	0.90785 0.27516 0.17733 -0.10700
C 	C 	0.89586 0.26340 0.13820 0.03600
H 	H 	0.87080 0.26490 0.13140 0.04400
C 	C 	0.92085 0.24940 0.10900 -0.07900
C 	C 	0.95861 0.24770 0.11950 -0.00800
H 	H 	0.97550 0.23780 0.10040 0.05300
C 	C 	0.97101 0.26050 0.15740 -0.02400
C 	C 	0.94544 0.27420 0.18679 0.00300
H 	H 	0.95370 0.28270 0.21270 0.05700
C 	C 	0.01119 0.25900 0.16750 0.12000
C 	C 	0.06762 0.24500 0.16430 0.15700
C 	C 	0.90739 0.23640 0.06730 0.30900
C 	C 	0.20236 0.22539 0.19331 0.50300
C 	C 	0.16906 0.21909 0.16566 -0.19800
C 	C 	0.13499 0.23480 0.17720 0.08000
H 	H 	0.13330 0.24930 0.20120 0.01200
C 	C 	0.10388 0.22860 0.15260 -0.10300
C 	C 	0.10611 0.20720 0.11700 0.08300
H 	H 	0.08500 0.20310 0.10090 0.01500
C 	C 	0.13975 0.19180 0.10500 -0.20100
C 	C 	0.17134 0.19735 0.12980 0.12500
H 	H 	0.19380 0.18650 0.12230 0.00500
C 	C 	0.14170 0.16840 0.06550 0.50900
O 	O 	0.87200 0.03470 0.94320 -0.18200
O 	O 	0.34618 0.78726 0.69726 -0.48200
O 	O 	0.39006 0.79765 0.74460 -0.30200
O 	O 	0.37756 0.75007 0.55283 -0.41900
O 	O 	0.42468 0.71087 0.54879 -0.38500
O 	O 	0.73252 0.71085 0.68331 -0.49900
O 	O 	0.69730 0.74478 0.72550 -0.56500
O 	O 	0.67307 0.65687 0.55479 -0.53900
O 	O 	0.61212 0.66210 0.54720 -0.54800
O 	O 	0.39790 0.52710 0.46160 -0.20400
N 	N 	0.52556 0.77670 0.70020 -0.08000
N 	N 	0.56208 0.76760 0.69723 -0.18800
H 	H 	0.57920 0.77520 0.71400 0.16000
N 	N 	0.53570 0.73890 0.64440 -0.14300
C 	C 	0.37963 0.78755 0.70890 0.39400
C 	C 	0.40785 0.77516 0.67733 -0.10300
C 	C 	0.39586 0.76340 0.63820 0.03400
H 	H 	0.37080 0.76490 0.63140 0.04700
C 	C 	0.42085 0.74940 0.60900 -0.07200
C 	C 	0.45861 0.74770 0.61950 -0.01000
H 	H 	0.47550 0.73780 0.60040 0.05900
C 	C 	0.47101 0.76050 0.65740 -0.02000
C 	C 	0.44544 0.77420 0.68679 0.00100
H 	H 	0.45370 0.78270 0.71270 0.05900
C 	C 	0.51119 0.75900 0.66750 0.12100
C 	C 	0.56762 0.74500 0.66430 0.16000
C 	C 	0.40739 0.73640 0.56730 0.30800
C 	C 	0.70236 0.72539 0.69331 0.50400
C 	C 	0.66906 0.71909 0.66566 -0.19900
C 	C 	0.63499 0.73480 0.67720 0.08200
H 	H 	0.63330 0.74930 0.70120 0.01100
C 	C 	0.60388 0.72860 0.65260 -0.10300
C 	C 	0.60611 0.70720 0.61700 0.08700
H 	H 	0.58500 0.70310 0.60090 0.01700
C 	C 	0.63975 0.69180 0.60500 -0.20400
C 	C 	0.67134 0.69735 0.62980 0.12900
H 	H 	0.69380 0.68650 0.62230 0.00500
C 	C 	0.64170 0.66840 0.56550 0.52400
O 	O 	0.37200 0.53470 0.44320 -0.20500
O 	O 	0.15382 0.71274 0.19726 -0.48400
O 	O 	0.10994 0.70235 0.24460 -0.30500
O 	O 	0.12244 0.74993 0.05283 -0.42200
O 	O 	0.07532 0.78913 0.04879 -0.38700
O 	O 	0.76748 0.78915 0.18331 -0.49900
O 	O 	0.80270 0.75522 0.22550 -0.56500
O 	O 	0.82693 0.84313 0.05479 -0.52600
O 	O 	0.88788 0.83790 0.04720 -0.53900
O 	O 	0.10210 0.97290 0.96160 -0.16000
N 	N 	0.97444 0.72330 0.20020 -0.08100
N 	N 	0.93792 0.73240 0.19723 -0.18800
H 	H 	0.92080 0.72480 0.21400 0.15900
N 	N 	0.96430 0.76110 0.14440 -0.14500
C 	C 	0.12037 0.71245 0.20890 0.39500
C 	C 	0.09215 0.72484 0.17733 -0.10700
C 	C 	0.10414 0.73660 0.13820 0.03600
H 	H 	0.12920 0.73510 0.13140 0.04400
C 	C 	0.07915 0.75060 0.10900 -0.07900
C 	C 	0.04139 0.75230 0.11950 -0.00800
H 	H 	0.02450 0.76220 0.10040 0.05300
C 	C 	0.02899 0.73950 0.15740 -0.02400
C 	C 	0.05456 0.72580 0.18679 0.00300
H 	H 	0.04630 0.71730 0.21270 0.05700
C 	C 	0.98881 0.74100 0.16750 0.12000
C 	C 	0.93238 0.75500 0.16430 0.15700
C 	C 	0.09261 0.76360 0.06730 0.30900
C 	C 	0.79764 0.77461 0.19331 0.50300
C 	C 	0.83094 0.78091 0.16566 -0.19800
C 	C 	0.86501 0.76520 0.17720 0.08000
H 	H 	0.86670 0.75070 0.20120 0.01200
C 	C 	0.89612 0.77140 0.15260 -0.10300
C 	C 	0.89389 0.79280 0.11700 0.08300
H 	H 	0.91500 0.79690 0.10090 0.01500
C 	C 	0.86025 0.80820 0.10500 -0.20100
C 	C 	0.82866 0.80265 0.12980 0.12500
H 	H 	0.80620 0.81350 0.12230 0.00500
C 	C 	0.85830 0.83160 0.06550 0.50900
O 	O 	0.12800 0.96530 0.94320 -0.18200
O 	O 	0.65382 0.21274 0.69726 -0.48200
O 	O 	0.60994 0.20235 0.74460 -0.30200
O 	O 	0.62244 0.24993 0.55283 -0.41900
O 	O 	0.57532 0.28913 0.54879 -0.38500
O 	O 	0.26748 0.28915 0.68331 -0.49900
O 	O 	0.30270 0.25522 0.72550 -0.56500
O 	O 	0.32693 0.34313 0.55479 -0.53900
O 	O 	0.38788 0.33790 0.54720 -0.54800
O 	O 	0.60210 0.47290 0.46160 -0.20400
N 	N 	0.47444 0.22330 0.70020 -0.08000
N 	N 	0.43792 0.23240 0.69723 -0.18800
H 	H 	0.42080 0.22480 0.71400 0.16000
N 	N 	0.46430 0.26110 0.64440 -0.14300
C 	C 	0.62037 0.21245 0.70890 0.39400
C 	C 	0.59215 0.22484 0.67733 -0.10300
C 	C 	0.60414 0.23660 0.63820 0.03400
H 	H 	0.62920 0.23510 0.63140 0.04700
C 	C 	0.57915 0.25060 0.60900 -0.07200
C 	C 	0.54139 0.25230 0.61950 -0.01000
H 	H 	0.52450 0.26220 0.60040 0.05900
C 	C 	0.52899 0.23950 0.65740 -0.02000
C 	C 	0.55456 0.22580 0.68679 0.00100
H 	H 	0.54630 0.21730 0.71270 0.05900
C 	C 	0.48881 0.24100 0.66750 0.12100
C 	C 	0.43238 0.25500 0.66430 0.16000
C 	C 	0.59261 0.26360 0.56730 0.30800
C 	C 	0.29764 0.27461 0.69331 0.50400
C 	C 	0.33094 0.28091 0.66566 -0.19900
C 	C 	0.36501 0.26520 0.67720 0.08200
H 	H 	0.36670 0.25070 0.70120 0.01100
C 	C 	0.39612 0.27140 0.65260 -0.10300
C 	C 	0.39389 0.29280 0.61700 0.08700
H 	H 	0.41500 0.29690 0.60090 0.01700
C 	C 	0.36025 0.30820 0.60500 -0.20400
C 	C 	0.32866 0.30265 0.62980 0.12900
H 	H 	0.30620 0.31350 0.62230 0.00500
C 	C 	0.35830 0.33160 0.56550 0.52400
O 	O 	0.62800 0.46530 0.44320 -0.20500
O 	O 	0.71274 0.15382 0.30274 -0.48300
O 	O 	0.70235 0.10994 0.25540 -0.30500
O 	O 	0.74993 0.12244 0.44717 -0.41900
O 	O 	0.78913 0.07532 0.45121 -0.38500
O 	O 	0.78915 0.76748 0.31669 -0.49800
O 	O 	0.75522 0.80270 0.27450 -0.56400
O 	O 	0.84313 0.82693 0.44521 -0.53900
O 	O 	0.83790 0.88788 0.45280 -0.54800
O 	O 	0.97290 0.10210 0.53840 -0.20400
N 	N 	0.72330 0.97444 0.29980 -0.08100
N 	N 	0.73240 0.93792 0.30277 -0.18800
H 	H 	0.72480 0.92080 0.28600 0.16000
N 	N 	0.76110 0.96430 0.35560 -0.14300
C 	C 	0.71245 0.12037 0.29110 0.39500
C 	C 	0.72484 0.09215 0.32267 -0.10400
C 	C 	0.73660 0.10414 0.36180 0.03400
H 	H 	0.73510 0.12920 0.36860 0.04600
C 	C 	0.75060 0.07915 0.39100 -0.07200
C 	C 	0.75230 0.04139 0.38050 -0.01000
H 	H 	0.76220 0.02450 0.39960 0.05900
C 	C 	0.73950 0.02899 0.34260 -0.02000
C 	C 	0.72580 0.05456 0.31321 0.00200
H 	H 	0.71730 0.04630 0.28730 0.05800
C 	C 	0.74100 0.98881 0.33250 0.12100
C 	C 	0.75500 0.93238 0.33570 0.16000
C 	C 	0.76360 0.09261 0.43270 0.30800
C 	C 	0.77461 0.79764 0.30669 0.50400
C 	C 	0.78091 0.83094 0.33434 -0.19900
C 	C 	0.76520 0.86501 0.32280 0.08200
H 	H 	0.75070 0.86670 0.29880 0.01200
C 	C 	0.77140 0.89612 0.34740 -0.10300
C 	C 	0.79280 0.89389 0.38300 0.08700
H 	H 	0.79690 0.91500 0.39910 0.01700
C 	C 	0.80820 0.86025 0.39500 -0.20300
C 	C 	0.80265 0.82866 0.37020 0.12900
H 	H 	0.81350 0.80620 0.37770 0.00500
C 	C 	0.83160 0.85830 0.43450 0.52400
O 	O 	0.96530 0.12800 0.55680 -0.20500
O 	O 	0.21274 0.65382 0.80274 -0.48100
O 	O 	0.20235 0.60994 0.75540 -0.30200
O 	O 	0.24993 0.62244 0.94717 -0.37600
O 	O 	0.28913 0.57532 0.95121 -0.33900
O 	O 	0.28915 0.26748 0.81669 -0.49600
O 	O 	0.25522 0.30270 0.77450 -0.56400
O 	O 	0.34313 0.32693 0.94521 -0.48700
O 	O 	0.33790 0.38788 0.95280 -0.49100
O 	O 	0.47290 0.60210 0.03840 -0.21500
N 	N 	0.22330 0.47444 0.79980 -0.07900
N 	N 	0.23240 0.43792 0.80277 -0.18700
H 	H 	0.22480 0.42080 0.78600 0.16100
N 	N 	0.26110 0.46430 0.85560 -0.13900
C 	C 	0.21245 0.62037 0.79110 0.39400
C 	C 	0.22484 0.59215 0.82267 -0.09700
C 	C 	0.23660 0.60414 0.86180 0.02800
H 	H 	0.23510 0.62920 0.86860 0.05200
C 	C 	0.25060 0.57915 0.89100 -0.05800
C 	C 	0.25230 0.54139 0.88050 -0.01500
H 	H 	0.26220 0.52450 0.89960 0.07000
C 	C 	0.23950 0.52899 0.84260 -0.01300
C 	C 	0.22580 0.55456 0.81321 -0.00200
H 	H 	0.21730 0.54630 0.78730 0.06100
C 	C 	0.24100 0.48881 0.83250 0.12200
C 	C 	0.25500 0.43238 0.83570 0.16000
C 	C 	0.26360 0.59261 0.93270 0.30000
C 	C 	0.27461 0.29764 0.80669 0.50200
C 	C 	0.28091 0.33094 0.83434 -0.19000
C 	C 	0.26520 0.36501 0.82280 0.07700
H 	H 	0.25070 0.36670 0.79880 0.01400
C 	C 	0.27140 0.39612 0.84740 -0.09300
C 	C 	0.29280 0.39389 0.88300 0.07800
H 	H 	0.29690 0.41500 0.89910 0.02900
C 	C 	0.30820 0.36025 0.89500 -0.18300
C 	C 	0.30265 0.32866 0.87020 0.12000
H 	H 	0.31350 0.30620 0.87770 0.01300
C 	C 	0.33160 0.35830 0.93450 0.50300
O 	O 	0.46530 0.62800 0.05680 -0.20100
O 	O 	0.28726 0.84618 0.30274 -0.48300
O 	O 	0.29765 0.89006 0.25540 -0.30500
O 	O 	0.25007 0.87756 0.44717 -0.41900
O 	O 	0.21087 0.92468 0.45121 -0.38500
O 	O 	0.21085 0.23252 0.31669 -0.49800
O 	O 	0.24478 0.19730 0.27450 -0.56400
O 	O 	0.15687 0.17307 0.44521 -0.53900
O 	O 	0.16210 0.11212 0.45280 -0.54800
O 	O 	0.02710 0.89790 0.53840 -0.20400
N 	N 	0.27670 0.02556 0.29980 -0.08100
N 	N 	0.26760 0.06208 0.30277 -0.18800
H 	H 	0.27520 0.07920 0.28600 0.16000
N 	N 	0.23890 0.03570 0.35560 -0.14300
C 	C 	0.28755 0.87963 0.29110 0.39500
C 	C 	0.27516 0.90785 0.32267 -0.10400
C 	C 	0.26340 0.89586 0.36180 0.03400
H 	H 	0.26490 0.87080 0.36860 0.04600
C 	C 	0.24940 0.92085 0.39100 -0.07200
C 	C 	0.24770 0.95861 0.38050 -0.01000
H 	H 	0.23780 0.97550 0.39960 0.05900
C 	C 	0.26050 0.97101 0.34260 -0.02000
C 	C 	0.27420 0.94544 0.31321 0.00200
H 	H 	0.28270 0.95370 0.28730 0.05800
C 	C 	0.25900 0.01119 0.33250 0.12100
C 	C 	0.24500 0.06762 0.33570 0.16000
C 	C 	0.23640 0.90739 0.43270 0.30800
C 	C 	0.22539 0.20236 0.30669 0.50400
C 	C 	0.21909 0.16906 0.33434 -0.19900
C 	C 	0.23480 0.13499 0.32280 0.08200
H 	H 	0.24930 0.13330 0.29880 0.01200
C 	C 	0.22860 0.10388 0.34740 -0.10300
C 	C 	0.20720 0.10611 0.38300 0.08700
H 	H 	0.20310 0.08500 0.39910 0.01700
C 	C 	0.19180 0.13975 0.39500 -0.20300
C 	C 	0.19735 0.17134 0.37020 0.12900
H 	H 	0.18650 0.19380 0.37770 0.00500
C 	C 	0.16840 0.14170 0.43450 0.52400
O 	O 	0.03470 0.87200 0.55680 -0.20500
O 	O 	0.78726 0.34618 0.80274 -0.48100
O 	O 	0.79765 0.39006 0.75540 -0.30200
O 	O 	0.75007 0.37756 0.94717 -0.37600
O 	O 	0.71087 0.42468 0.95121 -0.33900
O 	O 	0.71085 0.73252 0.81669 -0.49600
O 	O 	0.74478 0.69730 0.77450 -0.56400
O 	O 	0.65687 0.67307 0.94521 -0.48700
O 	O 	0.66210 0.61212 0.95280 -0.49100
O 	O 	0.52710 0.39790 0.03840 -0.21500
N 	N 	0.77670 0.52556 0.79980 -0.07900
N 	N 	0.76760 0.56208 0.80277 -0.18700
H 	H 	0.77520 0.57920 0.78600 0.16100
N 	N 	0.73890 0.53570 0.85560 -0.13900
C 	C 	0.78755 0.37963 0.79110 0.39400
C 	C 	0.77516 0.40785 0.82267 -0.09700
C 	C 	0.76340 0.39586 0.86180 0.02800
H 	H 	0.76490 0.37080 0.86860 0.05200
C 	C 	0.74940 0.42085 0.89100 -0.05800
C 	C 	0.74770 0.45861 0.88050 -0.01500
H 	H 	0.73780 0.47550 0.89960 0.07000
C 	C 	0.76050 0.47101 0.84260 -0.01300
C 	C 	0.77420 0.44544 0.81321 -0.00200
H 	H 	0.78270 0.45370 0.78730 0.06100
C 	C 	0.75900 0.51119 0.83250 0.12200
C 	C 	0.74500 0.56762 0.83570 0.16000
C 	C 	0.73640 0.40739 0.93270 0.30000
C 	C 	0.72539 0.70236 0.80669 0.50200
C 	C 	0.71909 0.66906 0.83434 -0.19000
C 	C 	0.73480 0.63499 0.82280 0.07700
H 	H 	0.74930 0.63330 0.79880 0.01400
C 	C 	0.72860 0.60388 0.84740 -0.09300
C 	C 	0.70720 0.60611 0.88300 0.07800
H 	H 	0.70310 0.58500 0.89910 0.02900
C 	C 	0.69180 0.63975 0.89500 -0.18300
C 	C 	0.69735 0.67134 0.87020 0.12000
H 	H 	0.68650 0.69380 0.87770 0.01300
C 	C 	0.66840 0.64170 0.93450 0.50300
O 	O 	0.53470 0.37200 0.05680 -0.20100
O 	O 	0.15382 0.28726 0.30274 -0.48300
O 	O 	0.10994 0.29765 0.25540 -0.30500
O 	O 	0.12244 0.25007 0.44717 -0.41900
O 	O 	0.07532 0.21087 0.45121 -0.38500
O 	O 	0.76748 0.21085 0.31669 -0.49800
O 	O 	0.80270 0.24478 0.27450 -0.56400
O 	O 	0.82693 0.15687 0.44521 -0.53900
O 	O 	0.88788 0.16210 0.45280 -0.54800
O 	O 	0.10210 0.02710 0.53840 -0.20400
N 	N 	0.97444 0.27670 0.29980 -0.08100
N 	N 	0.93792 0.26760 0.30277 -0.18800
H 	H 	0.92080 0.27520 0.28600 0.16000
N 	N 	0.96430 0.23890 0.35560 -0.14300
C 	C 	0.12037 0.28755 0.29110 0.39500
C 	C 	0.09215 0.27516 0.32267 -0.10400
C 	C 	0.10414 0.26340 0.36180 0.03400
H 	H 	0.12920 0.26490 0.36860 0.04600
C 	C 	0.07915 0.24940 0.39100 -0.07200
C 	C 	0.04139 0.24770 0.38050 -0.01000
H 	H 	0.02450 0.23780 0.39960 0.05900
C 	C 	0.02899 0.26050 0.34260 -0.02000
C 	C 	0.05456 0.27420 0.31321 0.00200
H 	H 	0.04630 0.28270 0.28730 0.05800
C 	C 	0.98881 0.25900 0.33250 0.12100
C 	C 	0.93238 0.24500 0.33570 0.16000
C 	C 	0.09261 0.23640 0.43270 0.30800
C 	C 	0.79764 0.22539 0.30669 0.50400
C 	C 	0.83094 0.21909 0.33434 -0.19900
C 	C 	0.86501 0.23480 0.32280 0.08200
H 	H 	0.86670 0.24930 0.29880 0.01200
C 	C 	0.89612 0.22860 0.34740 -0.10300
C 	C 	0.89389 0.20720 0.38300 0.08700
H 	H 	0.91500 0.20310 0.39910 0.01700
C 	C 	0.86025 0.19180 0.39500 -0.20300
C 	C 	0.82866 0.19735 0.37020 0.12900
H 	H 	0.80620 0.18650 0.37770 0.00500
C 	C 	0.85830 0.16840 0.43450 0.52400
O 	O 	0.12800 0.03470 0.55680 -0.20500
O 	O 	0.65382 0.78726 0.80274 -0.48100
O 	O 	0.60994 0.79765 0.75540 -0.30200
O 	O 	0.62244 0.75007 0.94717 -0.37600
O 	O 	0.57532 0.71087 0.95121 -0.33900
O 	O 	0.26748 0.71085 0.81669 -0.49600
O 	O 	0.30270 0.74478 0.77450 -0.56400
O 	O 	0.32693 0.65687 0.94521 -0.48700
O 	O 	0.38788 0.66210 0.95280 -0.49100
O 	O 	0.60210 0.52710 0.03840 -0.21500
N 	N 	0.47444 0.77670 0.79980 -0.07900
N 	N 	0.43792 0.76760 0.80277 -0.18700
H 	H 	0.42080 0.77520 0.78600 0.16100
N 	N 	0.46430 0.73890 0.85560 -0.13900
C 	C 	0.62037 0.78755 0.79110 0.39400
C 	C 	0.59215 0.77516 0.82267 -0.09700
C 	C 	0.60414 0.76340 0.86180 0.02800
H 	H 	0.62920 0.76490 0.86860 0.05200
C 	C 	0.57915 0.74940 0.89100 -0.05800
C 	C 	0.54139 0.74770 0.88050 -0.01500
H 	H 	0.52450 0.73780 0.89960 0.07000
C 	C 	0.52899 0.76050 0.84260 -0.01300
C 	C 	0.55456 0.77420 0.81321 -0.00200
H 	H 	0.54630 0.78270 0.78730 0.06100
C 	C 	0.48881 0.75900 0.83250 0.12200
C 	C 	0.43238 0.74500 0.83570 0.16000
C 	C 	0.59261 0.73640 0.93270 0.30000
C 	C 	0.29764 0.72539 0.80669 0.50200
C 	C 	0.33094 0.71909 0.83434 -0.19000
C 	C 	0.36501 0.73480 0.82280 0.07700
H 	H 	0.36670 0.74930 0.79880 0.01400
C 	C 	0.39612 0.72860 0.84740 -0.09300
C 	C 	0.39389 0.70720 0.88300 0.07800
H 	H 	0.41500 0.70310 0.89910 0.02900
C 	C 	0.36025 0.69180 0.89500 -0.18300
C 	C 	0.32866 0.69735 0.87020 0.12000
H 	H 	0.30620 0.68650 0.87770 0.01300
C 	C 	0.35830 0.66840 0.93450 0.50300
O 	O 	0.62800 0.53470 0.05680 -0.20100
O 	O 	0.84618 0.71274 0.30274 -0.48300
O 	O 	0.89006 0.70235 0.25540 -0.30500
O 	O 	0.87756 0.74993 0.44717 -0.41900
O 	O 	0.92468 0.78913 0.45121 -0.38500
O 	O 	0.23252 0.78915 0.31669 -0.49800
O 	O 	0.19730 0.75522 0.27450 -0.56400
O 	O 	0.17307 0.84313 0.44521 -0.53900
O 	O 	0.11212 0.83790 0.45280 -0.54800
O 	O 	0.89790 0.97290 0.53840 -0.20400
N 	N 	0.02556 0.72330 0.29980 -0.08100
N 	N 	0.06208 0.73240 0.30277 -0.18800
H 	H 	0.07920 0.72480 0.28600 0.16000
N 	N 	0.03570 0.76110 0.35560 -0.14300
C 	C 	0.87963 0.71245 0.29110 0.39500
C 	C 	0.90785 0.72484 0.32267 -0.10400
C 	C 	0.89586 0.73660 0.36180 0.03400
H 	H 	0.87080 0.73510 0.36860 0.04600
C 	C 	0.92085 0.75060 0.39100 -0.07200
C 	C 	0.95861 0.75230 0.38050 -0.01000
H 	H 	0.97550 0.76220 0.39960 0.05900
C 	C 	0.97101 0.73950 0.34260 -0.02000
C 	C 	0.94544 0.72580 0.31321 0.00200
H 	H 	0.95370 0.71730 0.28730 0.05800
C 	C 	0.01119 0.74100 0.33250 0.12100
C 	C 	0.06762 0.75500 0.33570 0.16000
C 	C 	0.90739 0.76360 0.43270 0.30800
C 	C 	0.20236 0.77461 0.30669 0.50400
C 	C 	0.16906 0.78091 0.33434 -0.19900
C 	C 	0.13499 0.76520 0.32280 0.08200
H 	H 	0.13330 0.75070 0.29880 0.01200
C 	C 	0.10388 0.77140 0.34740 -0.10300
C 	C 	0.10611 0.79280 0.38300 0.08700
H 	H 	0.08500 0.79690 0.39910 0.01700
C 	C 	0.13975 0.80820 0.39500 -0.20300
C 	C 	0.17134 0.80265 0.37020 0.12900
H 	H 	0.19380 0.81350 0.37770 0.00500
C 	C 	0.14170 0.83160 0.43450 0.52400
O 	O 	0.87200 0.96530 0.55680 -0.20500
O 	O 	0.34618 0.21274 0.80274 -0.48100
O 	O 	0.39006 0.20235 0.75540 -0.30200
O 	O 	0.37756 0.24993 0.94717 -0.37600
O 	O 	0.42468 0.28913 0.95121 -0.33900
O 	O 	0.73252 0.28915 0.81669 -0.49600
O 	O 	0.69730 0.25522 0.77450 -0.56400
O 	O 	0.67307 0.34313 0.94521 -0.48700
O 	O 	0.61212 0.33790 0.95280 -0.49100
O 	O 	0.39790 0.47290 0.03840 -0.21500
N 	N 	0.52556 0.22330 0.79980 -0.07900
N 	N 	0.56208 0.23240 0.80277 -0.18700
H 	H 	0.57920 0.22480 0.78600 0.16100
N 	N 	0.53570 0.26110 0.85560 -0.13900
C 	C 	0.37963 0.21245 0.79110 0.39400
C 	C 	0.40785 0.22484 0.82267 -0.09700
C 	C 	0.39586 0.23660 0.86180 0.02800
H 	H 	0.37080 0.23510 0.86860 0.05200
C 	C 	0.42085 0.25060 0.89100 -0.05800
C 	C 	0.45861 0.25230 0.88050 -0.01500
H 	H 	0.47550 0.26220 0.89960 0.07000
C 	C 	0.47101 0.23950 0.84260 -0.01300
C 	C 	0.44544 0.22580 0.81321 -0.00200
H 	H 	0.45370 0.21730 0.78730 0.06100
C 	C 	0.51119 0.24100 0.83250 0.12200
C 	C 	0.56762 0.25500 0.83570 0.16000
C 	C 	0.40739 0.26360 0.93270 0.30000
C 	C 	0.70236 0.27461 0.80669 0.50200
C 	C 	0.66906 0.28091 0.83434 -0.19000
C 	C 	0.63499 0.26520 0.82280 0.07700
H 	H 	0.63330 0.25070 0.79880 0.01400
C 	C 	0.60388 0.27140 0.84740 -0.09300
C 	C 	0.60611 0.29280 0.88300 0.07800
H 	H 	0.58500 0.29690 0.89910 0.02900
C 	C 	0.63975 0.30820 0.89500 -0.18300
C 	C 	0.67134 0.30265 0.87020 0.12000
H 	H 	0.69380 0.31350 0.87770 0.01300
C 	C 	0.64170 0.33160 0.93450 0.50300
O 	O 	0.37200 0.46530 0.05680 -0.20100
O 	O 	0.71274 0.84618 0.80274 -0.48100
O 	O 	0.70235 0.89006 0.75540 -0.30200
O 	O 	0.74993 0.87756 0.94717 -0.37600
O 	O 	0.78913 0.92468 0.95121 -0.34000
O 	O 	0.78915 0.23252 0.81669 -0.49600
O 	O 	0.75522 0.19730 0.77450 -0.56400
O 	O 	0.84313 0.17307 0.94521 -0.48800
O 	O 	0.83790 0.11212 0.95280 -0.49100
O 	O 	0.97290 0.89790 0.03840 -0.21500
N 	N 	0.72330 0.02556 0.79980 -0.07900
N 	N 	0.73240 0.06208 0.80277 -0.18700
H 	H 	0.72480 0.07920 0.78600 0.16100
N 	N 	0.76110 0.03570 0.85560 -0.13900
C 	C 	0.71245 0.87963 0.79110 0.39400
C 	C 	0.72484 0.90785 0.82267 -0.09700
C 	C 	0.73660 0.89586 0.86180 0.02800
H 	H 	0.73510 0.87080 0.86860 0.05200
C 	C 	0.75060 0.92085 0.89100 -0.05800
C 	C 	0.75230 0.95861 0.88050 -0.01500
H 	H 	0.76220 0.97550 0.89960 0.07000
C 	C 	0.73950 0.97101 0.84260 -0.01300
C 	C 	0.72580 0.94544 0.81321 -0.00200
H 	H 	0.71730 0.95370 0.78730 0.06100
C 	C 	0.74100 0.01119 0.83250 0.12200
C 	C 	0.75500 0.06762 0.83570 0.16000
C 	C 	0.76360 0.90739 0.93270 0.30000
C 	C 	0.77461 0.20236 0.80669 0.50200
C 	C 	0.78091 0.16906 0.83434 -0.19000
C 	C 	0.76520 0.13499 0.82280 0.07700
H 	H 	0.75070 0.13330 0.79880 0.01400
C 	C 	0.77140 0.10388 0.84740 -0.09300
C 	C 	0.79280 0.10611 0.88300 0.07800
H 	H 	0.79690 0.08500 0.89910 0.02800
C 	C 	0.80820 0.13975 0.89500 -0.18300
C 	C 	0.80265 0.17134 0.87020 0.12000
H 	H 	0.81350 0.19380 0.87770 0.01300
C 	C 	0.83160 0.14170 0.93450 0.50300
O 	O 	0.96530 0.87200 0.05680 -0.20100
O 	O 	0.21274 0.34618 0.30274 -0.48300
O 	O 	0.20235 0.39006 0.25540 -0.30500
O 	O 	0.24993 0.37756 0.44717 -0.41900
O 	O 	0.28913 0.42468 0.45121 -0.38500
O 	O 	0.28915 0.73252 0.31669 -0.49800
O 	O 	0.25522 0.69730 0.27450 -0.56400
O 	O 	0.34313 0.67307 0.44521 -0.53900
O 	O 	0.33790 0.61212 0.45280 -0.54800
O 	O 	0.47290 0.39790 0.53840 -0.20400
N 	N 	0.22330 0.52556 0.29980 -0.08100
N 	N 	0.23240 0.56208 0.30277 -0.18800
H 	H 	0.22480 0.57920 0.28600 0.16000
N 	N 	0.26110 0.53570 0.35560 -0.14300
C 	C 	0.21245 0.37963 0.29110 0.39500
C 	C 	0.22484 0.40785 0.32267 -0.10400
C 	C 	0.23660 0.39586 0.36180 0.03400
H 	H 	0.23510 0.37080 0.36860 0.04600
C 	C 	0.25060 0.42085 0.39100 -0.07200
C 	C 	0.25230 0.45861 0.38050 -0.01000
H 	H 	0.26220 0.47550 0.39960 0.05900
C 	C 	0.23950 0.47101 0.34260 -0.02000
C 	C 	0.22580 0.44544 0.31321 0.00200
H 	H 	0.21730 0.45370 0.28730 0.05800
C 	C 	0.24100 0.51119 0.33250 0.12100
C 	C 	0.25500 0.56762 0.33570 0.16000
C 	C 	0.26360 0.40739 0.43270 0.30800
C 	C 	0.27461 0.70236 0.30669 0.50400
C 	C 	0.28091 0.66906 0.33434 -0.19900
C 	C 	0.26520 0.63499 0.32280 0.08200
H 	H 	0.25070 0.63330 0.29880 0.01200
C 	C 	0.27140 0.60388 0.34740 -0.10300
C 	C 	0.29280 0.60611 0.38300 0.08700
H 	H 	0.29690 0.58500 0.39910 0.01700
C 	C 	0.30820 0.63975 0.39500 -0.20300
C 	C 	0.30265 0.67134 0.37020 0.12900
H 	H 	0.31350 0.69380 0.37770 0.00500
C 	C 	0.33160 0.64170 0.43450 0.52400
O 	O 	0.46530 0.37200 0.55680 -0.20500
O 	O 	0.28726 0.15382 0.80274 -0.48100
O 	O 	0.29765 0.10994 0.75540 -0.30200
O 	O 	0.25007 0.12244 0.94717 -0.37600
O 	O 	0.21087 0.07532 0.95121 -0.34000
O 	O 	0.21085 0.76748 0.81669 -0.49600
O 	O 	0.24478 0.80270 0.77450 -0.56400
O 	O 	0.15687 0.82693 0.94521 -0.48800
O 	O 	0.16210 0.88788 0.95280 -0.49100
O 	O 	0.02710 0.10210 0.03840 -0.21500
N 	N 	0.27670 0.97444 0.79980 -0.07900
N 	N 	0.26760 0.93792 0.80277 -0.18700
H 	H 	0.27520 0.92080 0.78600 0.16100
N 	N 	0.23890 0.96430 0.85560 -0.13900
C 	C 	0.28755 0.12037 0.79110 0.39400
C 	C 	0.27516 0.09215 0.82267 -0.09700
C 	C 	0.26340 0.10414 0.86180 0.02800
H 	H 	0.26490 0.12920 0.86860 0.05200
C 	C 	0.24940 0.07915 0.89100 -0.05800
C 	C 	0.24770 0.04139 0.88050 -0.01500
H 	H 	0.23780 0.02450 0.89960 0.07000
C 	C 	0.26050 0.02899 0.84260 -0.01300
C 	C 	0.27420 0.05456 0.81321 -0.00200
H 	H 	0.28270 0.04630 0.78730 0.06100
C 	C 	0.25900 0.98881 0.83250 0.12200
C 	C 	0.24500 0.93238 0.83570 0.16000
C 	C 	0.23640 0.09261 0.93270 0.30000
C 	C 	0.22539 0.79764 0.80669 0.50200
C 	C 	0.21909 0.83094 0.83434 -0.19000
C 	C 	0.23480 0.86501 0.82280 0.07700
H 	H 	0.24930 0.86670 0.79880 0.01400
C 	C 	0.22860 0.89612 0.84740 -0.09300
C 	C 	0.20720 0.89389 0.88300 0.07800
H 	H 	0.20310 0.91500 0.89910 0.02800
C 	C 	0.19180 0.86025 0.89500 -0.18300
C 	C 	0.19735 0.82866 0.87020 0.12000
H 	H 	0.18650 0.80620 0.87770 0.01300
C 	C 	0.16840 0.85830 0.93450 0.50300
O 	O 	0.03470 0.12800 0.05680 -0.20100
O 	O 	0.78726 0.65382 0.30274 -0.48300
O 	O 	0.79765 0.60994 0.25540 -0.30500
O 	O 	0.75007 0.62244 0.44717 -0.41900
O 	O 	0.71087 0.57532 0.45121 -0.38500
O 	O 	0.71085 0.26748 0.31669 -0.49800
O 	O 	0.74478 0.30270 0.27450 -0.56400
O 	O 	0.65687 0.32693 0.44521 -0.53900
O 	O 	0.66210 0.38788 0.45280 -0.54800
O 	O 	0.52710 0.60210 0.53840 -0.20400
N 	N 	0.77670 0.47444 0.29980 -0.08100
N 	N 	0.76760 0.43792 0.30277 -0.18800
H 	H 	0.77520 0.42080 0.28600 0.16000
N 	N 	0.73890 0.46430 0.35560 -0.14300
C 	C 	0.78755 0.62037 0.29110 0.39500
C 	C 	0.77516 0.59215 0.32267 -0.10400
C 	C 	0.76340 0.60414 0.36180 0.03400
H 	H 	0.76490 0.62920 0.36860 0.04600
C 	C 	0.74940 0.57915 0.39100 -0.07200
C 	C 	0.74770 0.54139 0.38050 -0.01000
H 	H 	0.73780 0.52450 0.39960 0.05900
C 	C 	0.76050 0.52899 0.34260 -0.02000
C 	C 	0.77420 0.55456 0.31321 0.00200
H 	H 	0.78270 0.54630 0.28730 0.05800
C 	C 	0.75900 0.48881 0.33250 0.12100
C 	C 	0.74500 0.43238 0.33570 0.16000
C 	C 	0.73640 0.59261 0.43270 0.30800
C 	C 	0.72539 0.29764 0.30669 0.50400
C 	C 	0.71909 0.33094 0.33434 -0.19900
C 	C 	0.73480 0.36501 0.32280 0.08200
H 	H 	0.74930 0.36670 0.29880 0.01200
C 	C 	0.72860 0.39612 0.34740 -0.10300
C 	C 	0.70720 0.39389 0.38300 0.08700
H 	H 	0.70310 0.41500 0.39910 0.01700
C 	C 	0.69180 0.36025 0.39500 -0.20300
C 	C 	0.69735 0.32866 0.37020 0.12900
H 	H 	0.68650 0.30620 0.37770 0.00500
C 	C 	0.66840 0.35830 0.43450 0.52400
O 	O 	0.53470 0.62800 0.55680 -0.20500
O 	O 	0.15382 0.71274 0.80274 -0.48100
O 	O 	0.10994 0.70235 0.75540 -0.30200
O 	O 	0.12244 0.74993 0.94717 -0.37600
O 	O 	0.07532 0.78913 0.95121 -0.34000
O 	O 	0.76748 0.78915 0.81669 -0.49600
O 	O 	0.80270 0.75522 0.77450 -0.56400
O 	O 	0.82693 0.84313 0.94521 -0.48800
O 	O 	0.88788 0.83790 0.95280 -0.49100
O 	O 	0.10210 0.97290 0.03840 -0.21500
N 	N 	0.97444 0.72330 0.79980 -0.07900
N 	N 	0.93792 0.73240 0.80277 -0.18700
H 	H 	0.92080 0.72480 0.78600 0.16100
N 	N 	0.96430 0.76110 0.85560 -0.13900
C 	C 	0.12037 0.71245 0.79110 0.39400
C 	C 	0.09215 0.72484 0.82267 -0.09700
C 	C 	0.10414 0.73660 0.86180 0.02800
H 	H 	0.12920 0.73510 0.86860 0.05200
C 	C 	0.07915 0.75060 0.89100 -0.05800
C 	C 	0.04139 0.75230 0.88050 -0.01500
H 	H 	0.02450 0.76220 0.89960 0.07000
C 	C 	0.02899 0.73950 0.84260 -0.01300
C 	C 	0.05456 0.72580 0.81321 -0.00200
H 	H 	0.04630 0.71730 0.78730 0.06100
C 	C 	0.98881 0.74100 0.83250 0.12200
C 	C 	0.93238 0.75500 0.83570 0.16000
C 	C 	0.09261 0.76360 0.93270 0.30000
C 	C 	0.79764 0.77461 0.80669 0.50200
C 	C 	0.83094 0.78091 0.83434 -0.19000
C 	C 	0.86501 0.76520 0.82280 0.07700
H 	H 	0.86670 0.75070 0.79880 0.01400
C 	C 	0.89612 0.77140 0.84740 -0.09300
C 	C 	0.89389 0.79280 0.88300 0.07800
H 	H 	0.91500 0.79690 0.89910 0.02800
C 	C 	0.86025 0.80820 0.89500 -0.18300
C 	C 	0.82866 0.80265 0.87020 0.12000
H 	H 	0.80620 0.81350 0.87770 0.01300
C 	C 	0.85830 0.83160 0.93450 0.50300
O 	O 	0.12800 0.96530 0.05680 -0.20100
O 	O 	0.65382 0.21274 0.30274 -0.48300
O 	O 	0.60994 0.20235 0.25540 -0.30500
O 	O 	0.62244 0.24993 0.44717 -0.41900
O 	O 	0.57532 0.28913 0.45121 -0.38500
O 	O 	0.26748 0.28915 0.31669 -0.49800
O 	O 	0.30270 0.25522 0.27450 -0.56400
O 	O 	0.32693 0.34313 0.44521 -0.53900
O 	O 	0.38788 0.33790 0.45280 -0.54800
O 	O 	0.60210 0.47290 0.53840 -0.20400
N 	N 	0.47444 0.22330 0.29980 -0.08100
N 	N 	0.43792 0.23240 0.30277 -0.18800
H 	H 	0.42080 0.22480 0.28600 0.16000
N 	N 	0.46430 0.26110 0.35560 -0.14300
C 	C 	0.62037 0.21245 0.29110 0.39500
C 	C 	0.59215 0.22484 0.32267 -0.10400
C 	C 	0.60414 0.23660 0.36180 0.03400
H 	H 	0.62920 0.23510 0.36860 0.04600
C 	C 	0.57915 0.25060 0.39100 -0.07200
C 	C 	0.54139 0.25230 0.38050 -0.01000
H 	H 	0.52450 0.26220 0.39960 0.05900
C 	C 	0.52899 0.23950 0.34260 -0.02000
C 	C 	0.55456 0.22580 0.31321 0.00200
H 	H 	0.54630 0.21730 0.28730 0.05800
C 	C 	0.48881 0.24100 0.33250 0.12100
C 	C 	0.43238 0.25500 0.33570 0.16000
C 	C 	0.59261 0.26360 0.43270 0.30800
C 	C 	0.29764 0.27461 0.30669 0.50400
C 	C 	0.33094 0.28091 0.33434 -0.19900
C 	C 	0.36501 0.26520 0.32280 0.08200
H 	H 	0.36670 0.25070 0.29880 0.01200
C 	C 	0.39612 0.27140 0.34740 -0.10300
C 	C 	0.39389 0.29280 0.38300 0.08700
H 	H 	0.41500 0.29690 0.39910 0.01700
C 	C 	0.36025 0.30820 0.39500 -0.20300
C 	C 	0.32866 0.30265 0.37020 0.12900
H 	H 	0.30620 0.31350 0.37770 0.00500
C 	C 	0.35830 0.33160 0.43450 0.52400
O 	O 	0.62800 0.46530 0.55680 -0.20500
O 	O 	0.84618 0.28726 0.80274 -0.48100
O 	O 	0.89006 0.29765 0.75540 -0.30200
O 	O 	0.87756 0.25007 0.94717 -0.37600
O 	O 	0.92468 0.21087 0.95121 -0.34000
O 	O 	0.23252 0.21085 0.81669 -0.49600
O 	O 	0.19730 0.24478 0.77450 -0.56400
O 	O 	0.17307 0.15687 0.94521 -0.48800
O 	O 	0.11212 0.16210 0.95280 -0.49100
O 	O 	0.89790 0.02710 0.03840 -0.21500
N 	N 	0.02556 0.27670 0.79980 -0.07900
N 	N 	0.06208 0.26760 0.80277 -0.18700
H 	H 	0.07920 0.27520 0.78600 0.16100
N 	N 	0.03570 0.23890 0.85560 -0.13900
C 	C 	0.87963 0.28755 0.79110 0.39400
C 	C 	0.90785 0.27516 0.82267 -0.09700
C 	C 	0.89586 0.26340 0.86180 0.02800
H 	H 	0.87080 0.26490 0.86860 0.05200
C 	C 	0.92085 0.24940 0.89100 -0.05800
C 	C 	0.95861 0.24770 0.88050 -0.01500
H 	H 	0.97550 0.23780 0.89960 0.07000
C 	C 	0.97101 0.26050 0.84260 -0.01300
C 	C 	0.94544 0.27420 0.81321 -0.00200
H 	H 	0.95370 0.28270 0.78730 0.06100
C 	C 	0.01119 0.25900 0.83250 0.12200
C 	C 	0.06762 0.24500 0.83570 0.16000
C 	C 	0.90739 0.23640 0.93270 0.30000
C 	C 	0.20236 0.22539 0.80669 0.50200
C 	C 	0.16906 0.21909 0.83434 -0.19000
C 	C 	0.13499 0.23480 0.82280 0.07700
H 	H 	0.13330 0.24930 0.79880 0.01400
C 	C 	0.10388 0.22860 0.84740 -0.09300
C 	C 	0.10611 0.20720 0.88300 0.07800
H 	H 	0.08500 0.20310 0.89910 0.02800
C 	C 	0.13975 0.19180 0.89500 -0.18300
C 	C 	0.17134 0.19735 0.87020 0.12000
H 	H 	0.19380 0.18650 0.87770 0.01300
C 	C 	0.14170 0.16840 0.93450 0.50300
O 	O 	0.87200 0.03470 0.05680 -0.20100
O 	O 	0.34618 0.78726 0.30274 -0.48300
O 	O 	0.39006 0.79765 0.25540 -0.30500
O 	O 	0.37756 0.75007 0.44717 -0.41900
O 	O 	0.42468 0.71087 0.45121 -0.38500
O 	O 	0.73252 0.71085 0.31669 -0.49800
O 	O 	0.69730 0.74478 0.27450 -0.56400
O 	O 	0.67307 0.65687 0.44521 -0.53900
O 	O 	0.61212 0.66210 0.45280 -0.54800
O 	O 	0.39790 0.52710 0.53840 -0.20400
N 	N 	0.52556 0.77670 0.29980 -0.08100
N 	N 	0.56208 0.76760 0.30277 -0.18800
H 	H 	0.57920 0.77520 0.28600 0.16000
N 	N 	0.53570 0.73890 0.35560 -0.14300
C 	C 	0.37963 0.78755 0.29110 0.39500
C 	C 	0.40785 0.77516 0.32267 -0.10400
C 	C 	0.39586 0.76340 0.36180 0.03400
H 	H 	0.37080 0.76490 0.36860 0.04600
C 	C 	0.42085 0.74940 0.39100 -0.07200
C 	C 	0.45861 0.74770 0.38050 -0.01000
H 	H 	0.47550 0.73780 0.39960 0.05900
C 	C 	0.47101 0.76050 0.34260 -0.02000
C 	C 	0.44544 0.77420 0.31321 0.00200
H 	H 	0.45370 0.78270 0.28730 0.05800
C 	C 	0.51119 0.75900 0.33250 0.12100
C 	C 	0.56762 0.74500 0.33570 0.16000
C 	C 	0.40739 0.73640 0.43270 0.30800
C 	C 	0.70236 0.72539 0.30669 0.50400
C 	C 	0.66906 0.71909 0.33434 -0.19900
C 	C 	0.63499 0.73480 0.32280 0.08200
H 	H 	0.63330 0.74930 0.29880 0.01200
C 	C 	0.60388 0.72860 0.34740 -0.10300
C 	C 	0.60611 0.70720 0.38300 0.08700
H 	H 	0.58500 0.70310 0.39910 0.01700
C 	C 	0.63975 0.69180 0.39500 -0.20300
C 	C 	0.67134 0.69735 0.37020 0.12900
H 	H 	0.69380 0.68650 0.37770 0.00500
C 	C 	0.64170 0.66840 0.43450 0.52400
O 	O 	0.37200 0.53470 0.55680 -0.20500
O 	O 	0.28726 0.84618 0.69726 -0.48200
O 	O 	0.29765 0.89006 0.74460 -0.30200
O 	O 	0.25007 0.87756 0.55283 -0.41900
O 	O 	0.21087 0.92468 0.54879 -0.38500
O 	O 	0.21085 0.23252 0.68331 -0.49900
O 	O 	0.24478 0.19730 0.72550 -0.56500
O 	O 	0.15687 0.17307 0.55479 -0.53900
O 	O 	0.16210 0.11212 0.54720 -0.54800
O 	O 	0.02710 0.89790 0.46160 -0.20400
N 	N 	0.27670 0.02556 0.70020 -0.08000
N 	N 	0.26760 0.06208 0.69723 -0.18800
H 	H 	0.27520 0.07920 0.71400 0.16000
N 	N 	0.23890 0.03570 0.64440 -0.14300
C 	C 	0.28755 0.87963 0.70890 0.39400
C 	C 	0.27516 0.90785 0.67733 -0.10300
C 	C 	0.26340 0.89586 0.63820 0.03400
H 	H 	0.26490 0.87080 0.63140 0.04700
C 	C 	0.24940 0.92085 0.60900 -0.07200
C 	C 	0.24770 0.95861 0.61950 -0.01000
H 	H 	0.23780 0.97550 0.60040 0.05900
C 	C 	0.26050 0.97101 0.65740 -0.02000
C 	C 	0.27420 0.94544 0.68679 0.00100
H 	H 	0.28270 0.95370 0.71270 0.05900
C 	C 	0.25900 0.01119 0.66750 0.12100
C 	C 	0.24500 0.06762 0.66430 0.16000
C 	C 	0.23640 0.90739 0.56730 0.30800
C 	C 	0.22539 0.20236 0.69331 0.50400
C 	C 	0.21909 0.16906 0.66566 -0.19900
C 	C 	0.23480 0.13499 0.67720 0.08200
H 	H 	0.24930 0.13330 0.70120 0.01100
C 	C 	0.22860 0.10388 0.65260 -0.10300
C 	C 	0.20720 0.10611 0.61700 0.08700
H 	H 	0.20310 0.08500 0.60090 0.01700
C 	C 	0.19180 0.13975 0.60500 -0.20400
C 	C 	0.19735 0.17134 0.62980 0.12900
H 	H 	0.18650 0.19380 0.62230 0.00500
C 	C 	0.16840 0.14170 0.56550 0.52400
O 	O 	0.03470 0.87200 0.44320 -0.20500
O 	O 	0.78726 0.34618 0.19726 -0.48400
O 	O 	0.79765 0.39006 0.24460 -0.30500
O 	O 	0.75007 0.37756 0.05283 -0.42200
O 	O 	0.71087 0.42468 0.04879 -0.38700
O 	O 	0.71085 0.73252 0.18331 -0.49900
O 	O 	0.74478 0.69730 0.22550 -0.56500
O 	O 	0.65687 0.67307 0.05479 -0.52600
O 	O 	0.66210 0.61212 0.04720 -0.53900
O 	O 	0.52710 0.39790 0.96160 -0.16000
N 	N 	0.77670 0.52556 0.20020 -0.08100
N 	N 	0.76760 0.56208 0.19723 -0.18800
H 	H 	0.77520 0.57920 0.21400 0.15900
N 	N 	0.73890 0.53570 0.14440 -0.14500
C 	C 	0.78755 0.37963 0.20890 0.39500
C 	C 	0.77516 0.40785 0.17733 -0.10700
C 	C 	0.76340 0.39586 0.13820 0.03600
H 	H 	0.76490 0.37080 0.13140 0.04400
C 	C 	0.74940 0.42085 0.10900 -0.07900
C 	C 	0.74770 0.45861 0.11950 -0.00800
H 	H 	0.73780 0.47550 0.10040 0.05300
C 	C 	0.76050 0.47101 0.15740 -0.02400
C 	C 	0.77420 0.44544 0.18679 0.00300
H 	H 	0.78270 0.45370 0.21270 0.05700
C 	C 	0.75900 0.51119 0.16750 0.12000
C 	C 	0.74500 0.56762 0.16430 0.15700
C 	C 	0.73640 0.40739 0.06730 0.30900
C 	C 	0.72539 0.70236 0.19331 0.50300
C 	C 	0.71909 0.66906 0.16566 -0.19800
C 	C 	0.73480 0.63499 0.17720 0.08000
H 	H 	0.74930 0.63330 0.20120 0.01200
C 	C 	0.72860 0.60388 0.15260 -0.10300
C 	C 	0.70720 0.60611 0.11700 0.08300
H 	H 	0.70310 0.58500 0.10090 0.01500
C 	C 	0.69180 0.63975 0.10500 -0.20100
C 	C 	0.69735 0.67134 0.12980 0.12500
H 	H 	0.68650 0.69380 0.12230 0.00500
C 	C 	0.66840 0.64170 0.06550 0.50900
O 	O 	0.53470 0.37200 0.94320 -0.18100
O 	O 	0.71274 0.15382 0.69726 -0.48200
O 	O 	0.70235 0.10994 0.74460 -0.30200
O 	O 	0.74993 0.12244 0.55283 -0.41900
O 	O 	0.78913 0.07532 0.54879 -0.38500
O 	O 	0.78915 0.76748 0.68331 -0.49900
O 	O 	0.75522 0.80270 0.72550 -0.56500
O 	O 	0.84313 0.82693 0.55479 -0.53900
O 	O 	0.83790 0.88788 0.54720 -0.54800
O 	O 	0.97290 0.10210 0.46160 -0.20400
N 	N 	0.72330 0.97444 0.70020 -0.08000
N 	N 	0.73240 0.93792 0.69723 -0.18800
H 	H 	0.72480 0.92080 0.71400 0.16000
N 	N 	0.76110 0.96430 0.64440 -0.14300
C 	C 	0.71245 0.12037 0.70890 0.39400
C 	C 	0.72484 0.09215 0.67733 -0.10300
C 	C 	0.73660 0.10414 0.63820 0.03400
H 	H 	0.73510 0.12920 0.63140 0.04700
C 	C 	0.75060 0.07915 0.60900 -0.07200
C 	C 	0.75230 0.04139 0.61950 -0.01000
H 	H 	0.76220 0.02450 0.60040 0.05900
C 	C 	0.73950 0.02899 0.65740 -0.02000
C 	C 	0.72580 0.05456 0.68679 0.00100
H 	H 	0.71730 0.04630 0.71270 0.05900
C 	C 	0.74100 0.98881 0.66750 0.12100
C 	C 	0.75500 0.93238 0.66430 0.16000
C 	C 	0.76360 0.09261 0.56730 0.30800
C 	C 	0.77461 0.79764 0.69331 0.50400
C 	C 	0.78091 0.83094 0.66566 -0.19900
C 	C 	0.76520 0.86501 0.67720 0.08200
H 	H 	0.75070 0.86670 0.70120 0.01100
C 	C 	0.77140 0.89612 0.65260 -0.10300
C 	C 	0.79280 0.89389 0.61700 0.08700
H 	H 	0.79690 0.91500 0.60090 0.01700
C 	C 	0.80820 0.86025 0.60500 -0.20400
C 	C 	0.80265 0.82866 0.62980 0.12900
H 	H 	0.81350 0.80620 0.62230 0.00500
C 	C 	0.83160 0.85830 0.56550 0.52400
O 	O 	0.96530 0.12800 0.44320 -0.20500
O 	O 	0.21274 0.65382 0.19726 -0.48400
O 	O 	0.20235 0.60994 0.24460 -0.30500
O 	O 	0.24993 0.62244 0.05283 -0.42200
O 	O 	0.28913 0.57532 0.04879 -0.38700
O 	O 	0.28915 0.26748 0.18331 -0.49900
O 	O 	0.25522 0.30270 0.22550 -0.56500
O 	O 	0.34313 0.32693 0.05479 -0.52600
O 	O 	0.33790 0.38788 0.04720 -0.53900
O 	O 	0.47290 0.60210 0.96160 -0.16000
N 	N 	0.22330 0.47444 0.20020 -0.08100
N 	N 	0.23240 0.43792 0.19723 -0.18800
H 	H 	0.22480 0.42080 0.21400 0.15900
N 	N 	0.26110 0.46430 0.14440 -0.14500
C 	C 	0.21245 0.62037 0.20890 0.39500
C 	C 	0.22484 0.59215 0.17733 -0.10700
C 	C 	0.23660 0.60414 0.13820 0.03600
H 	H 	0.23510 0.62920 0.13140 0.04400
C 	C 	0.25060 0.57915 0.10900 -0.07900
C 	C 	0.25230 0.54139 0.11950 -0.00800
H 	H 	0.26220 0.52450 0.10040 0.05300
C 	C 	0.23950 0.52899 0.15740 -0.02400
C 	C 	0.22580 0.55456 0.18679 0.00300
H 	H 	0.21730 0.54630 0.21270 0.05700
C 	C 	0.24100 0.48881 0.16750 0.12000
C 	C 	0.25500 0.43238 0.16430 0.15700
C 	C 	0.26360 0.59261 0.06730 0.30900
C 	C 	0.27461 0.29764 0.19331 0.50300
C 	C 	0.28091 0.33094 0.16566 -0.19800
C 	C 	0.26520 0.36501 0.17720 0.08000
H 	H 	0.25070 0.36670 0.20120 0.01200
C 	C 	0.27140 0.39612 0.15260 -0.10300
C 	C 	0.29280 0.39389 0.11700 0.08300
H 	H 	0.29690 0.41500 0.10090 0.01500
C 	C 	0.30820 0.36025 0.10500 -0.20100
C 	C 	0.30265 0.32866 0.12980 0.12500
H 	H 	0.31350 0.30620 0.12230 0.00500
C 	C 	0.33160 0.35830 0.06550 0.50900
O 	O 	0.46530 0.62800 0.94320 -0.18100
O 	O 	0.84618 0.71274 0.69726 -0.48200
O 	O 	0.89006 0.70235 0.74460 -0.30200
O 	O 	0.87756 0.74993 0.55283 -0.41900
O 	O 	0.92468 0.78913 0.54879 -0.38500
O 	O 	0.23252 0.78915 0.68331 -0.49900
O 	O 	0.19730 0.75522 0.72550 -0.56500
O 	O 	0.17307 0.84313 0.55479 -0.53900
O 	O 	0.11212 0.83790 0.54720 -0.54800
O 	O 	0.89790 0.97290 0.46160 -0.20400
N 	N 	0.02556 0.72330 0.70020 -0.08000
N 	N 	0.06208 0.73240 0.69723 -0.18800
H 	H 	0.07920 0.72480 0.71400 0.16000
N 	N 	0.03570 0.76110 0.64440 -0.14300
C 	C 	0.87963 0.71245 0.70890 0.39400
C 	C 	0.90785 0.72484 0.67733 -0.10300
C 	C 	0.89586 0.73660 0.63820 0.03400
H 	H 	0.87080 0.73510 0.63140 0.04700
C 	C 	0.92085 0.75060 0.60900 -0.07200
C 	C 	0.95861 0.75230 0.61950 -0.01000
H 	H 	0.97550 0.76220 0.60040 0.05900
C 	C 	0.97101 0.73950 0.65740 -0.02000
C 	C 	0.94544 0.72580 0.68679 0.00100
H 	H 	0.95370 0.71730 0.71270 0.05900
C 	C 	0.01119 0.74100 0.66750 0.12100
C 	C 	0.06762 0.75500 0.66430 0.16000
C 	C 	0.90739 0.76360 0.56730 0.30800
C 	C 	0.20236 0.77461 0.69331 0.50400
C 	C 	0.16906 0.78091 0.66566 -0.19900
C 	C 	0.13499 0.76520 0.67720 0.08200
H 	H 	0.13330 0.75070 0.70120 0.01100
C 	C 	0.10388 0.77140 0.65260 -0.10300
C 	C 	0.10611 0.79280 0.61700 0.08700
H 	H 	0.08500 0.79690 0.60090 0.01700
C 	C 	0.13975 0.80820 0.60500 -0.20400
C 	C 	0.17134 0.80265 0.62980 0.12900
H 	H 	0.19380 0.81350 0.62230 0.00500
C 	C 	0.14170 0.83160 0.56550 0.52400
O 	O 	0.87200 0.96530 0.44320 -0.20500
O 	O 	0.34618 0.21274 0.19726 -0.48400
O 	O 	0.39006 0.20235 0.24460 -0.30500
O 	O 	0.37756 0.24993 0.05283 -0.42200
O 	O 	0.42468 0.28913 0.04879 -0.38700
O 	O 	0.73252 0.28915 0.18331 -0.49900
O 	O 	0.69730 0.25522 0.22550 -0.56500
O 	O 	0.67307 0.34313 0.05479 -0.52600
O 	O 	0.61212 0.33790 0.04720 -0.53900
O 	O 	0.39790 0.47290 0.96160 -0.16000
N 	N 	0.52556 0.22330 0.20020 -0.08100
N 	N 	0.56208 0.23240 0.19723 -0.18800
H 	H 	0.57920 0.22480 0.21400 0.15900
N 	N 	0.53570 0.26110 0.14440 -0.14500
C 	C 	0.37963 0.21245 0.20890 0.39500
C 	C 	0.40785 0.22484 0.17733 -0.10700
C 	C 	0.39586 0.23660 0.13820 0.03600
H 	H 	0.37080 0.23510 0.13140 0.04400
C 	C 	0.42085 0.25060 0.10900 -0.07900
C 	C 	0.45861 0.25230 0.11950 -0.00800
H 	H 	0.47550 0.26220 0.10040 0.05300
C 	C 	0.47101 0.23950 0.15740 -0.02400
C 	C 	0.44544 0.22580 0.18679 0.00300
H 	H 	0.45370 0.21730 0.21270 0.05700
C 	C 	0.51119 0.24100 0.16750 0.12000
C 	C 	0.56762 0.25500 0.16430 0.15700
C 	C 	0.40739 0.26360 0.06730 0.30900
C 	C 	0.70236 0.27461 0.19331 0.50300
C 	C 	0.66906 0.28091 0.16566 -0.19800
C 	C 	0.63499 0.26520 0.17720 0.08000
H 	H 	0.63330 0.25070 0.20120 0.01200
C 	C 	0.60388 0.27140 0.15260 -0.10300
C 	C 	0.60611 0.29280 0.11700 0.08300
H 	H 	0.58500 0.29690 0.10090 0.01500
C 	C 	0.63975 0.30820 0.10500 -0.20100
C 	C 	0.67134 0.30265 0.12980 0.12500
H 	H 	0.69380 0.31350 0.12230 0.00500
C 	C 	0.64170 0.33160 0.06550 0.50900
O 	O 	0.37200 0.46530 0.94320 -0.18100
O 	O 	0.15382 0.28726 0.69726 -0.48200
O 	O 	0.10994 0.29765 0.74460 -0.30200
O 	O 	0.12244 0.25007 0.55283 -0.41900
O 	O 	0.07532 0.21087 0.54879 -0.38500
O 	O 	0.76748 0.21085 0.68331 -0.49900
O 	O 	0.80270 0.24478 0.72550 -0.56500
O 	O 	0.82693 0.15687 0.55479 -0.53900
O 	O 	0.88788 0.16210 0.54720 -0.54800
O 	O 	0.10210 0.02710 0.46160 -0.20400
N 	N 	0.97444 0.27670 0.70020 -0.08000
N 	N 	0.93792 0.26760 0.69723 -0.18800
H 	H 	0.92080 0.27520 0.71400 0.16000
N 	N 	0.96430 0.23890 0.64440 -0.14300
C 	C 	0.12037 0.28755 0.70890 0.39400
C 	C 	0.09215 0.27516 0.67733 -0.10300
C 	C 	0.10414 0.26340 0.63820 0.03400
H 	H 	0.12920 0.26490 0.63140 0.04700
C 	C 	0.07915 0.24940 0.60900 -0.07200
C 	C 	0.04139 0.24770 0.61950 -0.01000
H 	H 	0.02450 0.23780 0.60040 0.05900
C 	C 	0.02899 0.26050 0.65740 -0.02000
C 	C 	0.05456 0.27420 0.68679 0.00100
H 	H 	0.04630 0.28270 0.71270 0.05900
C 	C 	0.98881 0.25900 0.66750 0.12100
C 	C 	0.93238 0.24500 0.66430 0.16000
C 	C 	0.09261 0.23640 0.56730 0.30800
C 	C 	0.79764 0.22539 0.69331 0.50400
C 	C 	0.83094 0.21909 0.66566 -0.19900
C 	C 	0.86501 0.23480 0.67720 0.08200
H 	H 	0.86670 0.24930 0.70120 0.01100
C 	C 	0.89612 0.22860 0.65260 -0.10300
C 	C 	0.89389 0.20720 0.61700 0.08700
H 	H 	0.91500 0.20310 0.60090 0.01700
C 	C 	0.86025 0.19180 0.60500 -0.20400
C 	C 	0.82866 0.19735 0.62980 0.12900
H 	H 	0.80620 0.18650 0.62230 0.00500
C 	C 	0.85830 0.16840 0.56550 0.52400
O 	O 	0.12800 0.03470 0.44320 -0.20500
O 	O 	0.65382 0.78726 0.19726 -0.48400
O 	O 	0.60994 0.79765 0.24460 -0.30500
O 	O 	0.62244 0.75007 0.05283 -0.42200
O 	O 	0.57532 0.71087 0.04879 -0.38700
O 	O 	0.26748 0.71085 0.18331 -0.49900
O 	O 	0.30270 0.74478 0.22550 -0.56500
O 	O 	0.32693 0.65687 0.05479 -0.52600
O 	O 	0.38788 0.66210 0.04720 -0.53900
O 	O 	0.60210 0.52710 0.96160 -0.16000
N 	N 	0.47444 0.77670 0.20020 -0.08100
N 	N 	0.43792 0.76760 0.19723 -0.18800
H 	H 	0.42080 0.77520 0.21400 0.15900
N 	N 	0.46430 0.73890 0.14440 -0.14500
C 	C 	0.62037 0.78755 0.20890 0.39500
C 	C 	0.59215 0.77516 0.17733 -0.10700
C 	C 	0.60414 0.76340 0.13820 0.03600
H 	H 	0.62920 0.76490 0.13140 0.04400
C 	C 	0.57915 0.74940 0.10900 -0.07900
C 	C 	0.54139 0.74770 0.11950 -0.00800
H 	H 	0.52450 0.73780 0.10040 0.05300
C 	C 	0.52899 0.76050 0.15740 -0.02400
C 	C 	0.55456 0.77420 0.18679 0.00300
H 	H 	0.54630 0.78270 0.21270 0.05700
C 	C 	0.48881 0.75900 0.16750 0.12000
C 	C 	0.43238 0.74500 0.16430 0.15700
C 	C 	0.59261 0.73640 0.06730 0.30900
C 	C 	0.29764 0.72539 0.19331 0.50300
C 	C 	0.33094 0.71909 0.16566 -0.19800
C 	C 	0.36501 0.73480 0.17720 0.08000
H 	H 	0.36670 0.74930 0.20120 0.01200
C 	C 	0.39612 0.72860 0.15260 -0.10300
C 	C 	0.39389 0.70720 0.11700 0.08300
H 	H 	0.41500 0.70310 0.10090 0.01500
C 	C 	0.36025 0.69180 0.10500 -0.20100
C 	C 	0.32866 0.69735 0.12980 0.12500
H 	H 	0.30620 0.68650 0.12230 0.00500
C 	C 	0.35830 0.66840 0.06550 0.50900
O 	O 	0.62800 0.53470 0.94320 -0.18100
Tb	Tb	0.28721 0.21279 0.22453 1.98900
Tb	Tb	0.71279 0.78721 0.22453 1.98900
Tb	Tb	0.21279 0.28721 0.72453 1.99100
Tb	Tb	0.78721 0.28721 0.22453 1.98900
Tb	Tb	0.21279 0.71279 0.22453 1.98900
Tb	Tb	0.71279 0.21279 0.27547 1.98900
Tb	Tb	0.28721 0.78721 0.27547 1.98900
Tb	Tb	0.21279 0.28721 0.27547 1.98900
Tb	Tb	0.78721 0.71279 0.27547 1.98900
Tb	Tb	0.71279 0.78721 0.77547 1.99200
Tb	Tb	0.28721 0.21279 0.77547 1.99200
Tb	Tb	0.21279 0.71279 0.77547 1.99200
Tb	Tb	0.78721 0.28721 0.77547 1.99200
Tb	Tb	0.28721 0.78721 0.72453 1.99100
Tb	Tb	0.71279 0.21279 0.72453 1.99100
Tb	Tb	0.78721 0.71279 0.72453 1.99100
Tb	Tb	0.20283 0.12728 -0.00000 1.72500
Tb	Tb	0.08058 0.12699 -0.00000 1.60800
O 	O 	0.14340 0.09790 -0.00000 -0.46500
Tb	Tb	0.70283 0.62728 0.50000 1.86700
Tb	Tb	0.58058 0.62699 0.50000 1.74000
O 	O 	0.64340 0.59790 0.50000 -0.45900
Tb	Tb	0.79717 0.87272 -0.00000 1.72500
Tb	Tb	0.91942 0.87301 -0.00000 1.60800
O 	O 	0.85660 0.90210 -0.00000 -0.46500
Tb	Tb	0.29717 0.37272 0.50000 1.86700
Tb	Tb	0.41942 0.37301 0.50000 1.74000
O 	O 	0.35660 0.40210 0.50000 -0.45900
Tb	Tb	0.87272 0.20283 -0.00000 1.72500
Tb	Tb	0.87301 0.08058 -0.00000 1.60800
O 	O 	0.90210 0.14340 -0.00000 -0.46500
Tb	Tb	0.37272 0.70283 0.50000 1.86700
Tb	Tb	0.37301 0.58058 0.50000 1.74000
O 	O 	0.40210 0.64340 0.50000 -0.45900
Tb	Tb	0.12728 0.79717 -0.00000 1.72500
Tb	Tb	0.12699 0.91942 -0.00000 1.60800
O 	O 	0.09790 0.85660 -0.00000 -0.46500
Tb	Tb	0.62728 0.29717 0.50000 1.86700
Tb	Tb	0.62699 0.41942 0.50000 1.74000
O 	O 	0.59790 0.35660 0.50000 -0.45900
Tb	Tb	0.79717 0.12728 0.50000 1.86700
Tb	Tb	0.91942 0.12699 0.50000 1.74000
O 	O 	0.85660 0.09790 0.50000 -0.45900
Tb	Tb	0.29717 0.62728 -0.00000 1.72400
Tb	Tb	0.41942 0.62699 -0.00000 1.60800
O 	O 	0.35660 0.59790 -0.00000 -0.46500
Tb	Tb	0.20283 0.87272 0.50000 1.86700
Tb	Tb	0.08058 0.87301 0.50000 1.74000
O 	O 	0.14340 0.90210 0.50000 -0.45900
Tb	Tb	0.70283 0.37272 -0.00000 1.72400
Tb	Tb	0.58058 0.37301 -0.00000 1.60800
O 	O 	0.64340 0.40210 -0.00000 -0.46500
Tb	Tb	0.12728 0.20283 0.50000 1.86700
Tb	Tb	0.12699 0.08058 0.50000 1.74000
O 	O 	0.09790 0.14340 0.50000 -0.45900
Tb	Tb	0.62728 0.70283 -0.00000 1.72400
Tb	Tb	0.62699 0.58058 -0.00000 1.60800
O 	O 	0.59790 0.64340 -0.00000 -0.46500
Tb	Tb	0.87272 0.79717 0.50000 1.86700
Tb	Tb	0.87301 0.91942 0.50000 1.74000
O 	O 	0.90210 0.85660 0.50000 -0.45900
Tb	Tb	0.37272 0.29717 -0.00000 1.72400
Tb	Tb	0.37301 0.41942 -0.00000 1.60800
O 	O 	0.40210 0.35660 -0.00000 -0.46500
