data_crystal

_cell_length_a 7.22800
_cell_length_b 24.99700
_cell_length_c 30.90200
_cell_angle_alpha 90.00000
_cell_angle_beta  93.16700
_cell_angle_gamma 90.00000

_symmetry_space_group_name_	'P 1'
_symmetry_space_group_name_H-M	'P 1'

loop_
_symmetry_equiv_pos_as_xyz
  x,y,z

loop_
_atom_site_label
_atom_site_type_symbol
_atom_site_fract_x
_atom_site_fract_y
_atom_site_fract_z
_atom_site_charge
N 	N 	0.28950 0.54999 0.00072 -0.28900
N 	N 	0.55820 0.52654 0.94240 -0.27200
C 	C 	0.16840 0.55720 0.03352 0.11800
C 	C 	0.03670 0.59820 0.02226 -0.20900
H 	H 	0.94210 0.61000 0.03910 0.11500
C 	C 	0.07450 0.61650 0.98290 -0.01500
H 	H 	0.01050 0.64320 0.96730 0.02900
C 	C 	0.23330 0.58710 0.96923 0.10300
C 	C 	0.31810 0.59640 0.93091 -0.18600
C 	C 	0.46810 0.56720 0.91859 0.11100
C 	C 	0.54960 0.57240 0.87663 -0.08200
H 	H 	0.51320 0.59630 0.85470 0.06000
C 	C 	0.68600 0.53660 0.87556 -0.08800
H 	H 	0.76220 0.53110 0.85270 0.06800
C 	C 	0.69460 0.50770 0.91613 0.10600
C 	C 	0.18010 0.53170 0.07346 -0.13700
C 	C 	0.23830 0.63850 0.89999 0.24700
C 	C 	0.06580 0.63180 0.87990 -0.40700
H 	H 	0.99660 0.60160 0.88590 0.19500
C 	C 	0.99230 0.67000 0.85030 0.30400
H 	H 	0.87550 0.66430 0.83690 -0.06100
C 	C 	0.08580 0.71400 0.84100 -0.25900
C 	C 	0.26400 0.72220 0.86190 0.15900
H 	H 	0.33150 0.75270 0.85590 -0.02400
C 	C 	0.33800 0.68440 0.89140 -0.27400
H 	H 	0.45380 0.69000 0.90530 0.12800
C 	C 	0.00800 0.75660 0.80700 0.32700
O 	O 	0.11770 0.79030 0.79397 -0.46000
O 	O 	0.83330 0.74880 0.79590 -0.31900
C 	C 	0.05020 0.54860 0.10803 0.03400
C 	C 	0.12240 0.57830 0.14339 -0.08400
H 	H 	0.24840 0.58600 0.14600 0.07700
C 	C 	0.00560 0.59640 0.17470 -0.04900
H 	H 	0.05500 0.61570 0.19830 0.05600
C 	C 	0.81860 0.58618 0.17111 -0.02500
C 	C 	0.74300 0.55610 0.13614 -0.03100
H 	H 	0.61710 0.54820 0.13390 0.05100
C 	C 	0.85960 0.53840 0.10476 -0.04600
H 	H 	0.80960 0.51920 0.08110 0.03100
C 	C 	0.69030 0.60946 0.20304 0.27900
O 	O 	0.75990 0.64022 0.23347 -0.38600
O 	O 	0.51830 0.60308 0.20055 -0.35300
N 	N 	0.78950 0.04999 0.00072 -0.28800
N 	N 	0.05820 0.02654 0.94240 -0.29700
C 	C 	0.66840 0.05720 0.03352 0.12100
C 	C 	0.53670 0.09820 0.02226 -0.13900
H 	H 	0.44210 0.11000 0.03910 0.06300
C 	C 	0.57450 0.11650 0.98290 -0.05000
H 	H 	0.51050 0.14320 0.96730 0.04800
C 	C 	0.73330 0.08710 0.96923 0.11600
C 	C 	0.81810 0.09640 0.93091 -0.17800
C 	C 	0.96810 0.06720 0.91859 0.18300
C 	C 	0.04960 0.07240 0.87663 -0.17900
H 	H 	0.01320 0.09630 0.85470 0.07600
C 	C 	0.18600 0.03660 0.87556 -0.02800
H 	H 	0.26220 0.03110 0.85270 0.03100
C 	C 	0.19460 0.00770 0.91613 0.03000
C 	C 	0.68010 0.03170 0.07346 -0.20100
C 	C 	0.73830 0.13850 0.89999 0.15500
C 	C 	0.56580 0.13180 0.87990 -0.19200
H 	H 	0.49660 0.10160 0.88590 0.09600
C 	C 	0.49230 0.17000 0.85030 0.08500
H 	H 	0.37550 0.16430 0.83690 0.00200
C 	C 	0.58580 0.21400 0.84100 -0.13300
C 	C 	0.76400 0.22220 0.86190 0.06800
H 	H 	0.83150 0.25270 0.85590 0.01200
C 	C 	0.83800 0.18440 0.89140 -0.18000
H 	H 	0.95380 0.19000 0.90530 0.10500
C 	C 	0.50800 0.25660 0.80700 0.33000
O 	O 	0.61770 0.29030 0.79397 -0.45000
O 	O 	0.33330 0.24880 0.79590 -0.34900
C 	C 	0.55020 0.04860 0.10803 0.13700
C 	C 	0.62240 0.07830 0.14339 -0.18600
H 	H 	0.74840 0.08600 0.14600 0.12100
C 	C 	0.50560 0.09640 0.17470 0.08100
H 	H 	0.55500 0.11570 0.19830 0.02000
C 	C 	0.31860 0.08618 0.17111 -0.13800
C 	C 	0.24300 0.05610 0.13614 0.06200
H 	H 	0.11710 0.04820 0.13390 -0.00200
C 	C 	0.35960 0.03840 0.10476 -0.17500
H 	H 	0.30960 0.01920 0.08110 0.05600
C 	C 	0.19030 0.10946 0.20304 0.31200
O 	O 	0.25990 0.14022 0.23347 -0.41000
O 	O 	0.01830 0.10308 0.20055 -0.38800
N 	N 	0.71050 0.54999 0.49928 -0.27100
N 	N 	0.44180 0.52654 0.55760 -0.27200
C 	C 	0.83160 0.55720 0.46648 0.08500
C 	C 	0.96330 0.59820 0.47774 -0.01100
H 	H 	0.05790 0.61000 0.46090 0.00300
C 	C 	0.92550 0.61650 0.51710 -0.11300
H 	H 	0.98950 0.64320 0.53270 0.08000
C 	C 	0.76670 0.58710 0.53077 0.09500
C 	C 	0.68190 0.59640 0.56909 -0.10200
C 	C 	0.53190 0.56720 0.58141 0.07800
C 	C 	0.45040 0.57240 0.62337 -0.06700
H 	H 	0.48680 0.59630 0.64530 0.05400
C 	C 	0.31400 0.53660 0.62444 -0.08700
H 	H 	0.23780 0.53110 0.64730 0.06400
C 	C 	0.30540 0.50770 0.58387 0.09300
C 	C 	0.81990 0.53170 0.42654 -0.15700
C 	C 	0.76170 0.63850 0.60001 0.01200
C 	C 	0.93420 0.63180 0.62010 0.06400
H 	H 	0.00340 0.60160 0.61410 -0.01100
C 	C 	0.00770 0.67000 0.64970 -0.16500
H 	H 	0.12450 0.66430 0.66310 0.08500
C 	C 	0.91420 0.71400 0.65900 0.01600
C 	C 	0.73600 0.72220 0.63810 -0.05300
H 	H 	0.66850 0.75270 0.64410 0.04700
C 	C 	0.66200 0.68440 0.60860 -0.05700
H 	H 	0.54620 0.69000 0.59470 0.04700
C 	C 	0.99200 0.75660 0.69300 0.32600
O 	O 	0.88230 0.79030 0.70603 -0.43800
O 	O 	0.16670 0.74880 0.70410 -0.36100
C 	C 	0.94980 0.54860 0.39197 0.19700
C 	C 	0.87760 0.57830 0.35661 -0.23500
H 	H 	0.75160 0.58600 0.35400 0.13300
C 	C 	0.99440 0.59640 0.32530 0.17300
H 	H 	0.94500 0.61570 0.30170 -0.00400
C 	C 	0.18140 0.58618 0.32889 -0.20700
C 	C 	0.25700 0.55610 0.36386 0.12500
H 	H 	0.38290 0.54820 0.36610 -0.00600
C 	C 	0.14040 0.53840 0.39524 -0.25000
H 	H 	0.19040 0.51920 0.41890 0.09000
C 	C 	0.30970 0.60946 0.29696 0.33400
O 	O 	0.24010 0.64022 0.26653 -0.41900
O 	O 	0.48170 0.60308 0.29945 -0.37000
N 	N 	0.21050 0.04999 0.49928 -0.28200
N 	N 	0.94180 0.02654 0.55760 -0.23900
C 	C 	0.33160 0.05720 0.46648 0.10500
C 	C 	0.46330 0.09820 0.47774 -0.10200
H 	H 	0.55790 0.11000 0.46090 0.06200
C 	C 	0.42550 0.11650 0.51710 -0.07100
H 	H 	0.48950 0.14320 0.53270 0.05700
C 	C 	0.26670 0.08710 0.53077 0.07500
C 	C 	0.18190 0.09640 0.56909 -0.11500
C 	C 	0.03190 0.06720 0.58141 0.00600
C 	C 	0.95040 0.07240 0.62337 0.00200
H 	H 	0.98680 0.09630 0.64530 0.04300
C 	C 	0.81400 0.03660 0.62444 -0.10700
H 	H 	0.73780 0.03110 0.64730 0.06700
C 	C 	0.80540 0.00770 0.58387 0.07300
C 	C 	0.31990 0.03170 0.42654 -0.18300
C 	C 	0.26170 0.13850 0.60001 0.10500
C 	C 	0.43420 0.13180 0.62010 -0.15900
H 	H 	0.50340 0.10160 0.61410 0.08500
C 	C 	0.50770 0.17000 0.64970 0.05900
H 	H 	0.62450 0.16430 0.66310 0.01900
C 	C 	0.41420 0.21400 0.65900 -0.11500
C 	C 	0.23600 0.22220 0.63810 0.04000
H 	H 	0.16850 0.25270 0.64410 0.01000
C 	C 	0.16200 0.18440 0.60860 -0.15400
H 	H 	0.04620 0.19000 0.59470 0.07200
C 	C 	0.49200 0.25660 0.69300 0.32300
O 	O 	0.38230 0.29030 0.70603 -0.45400
O 	O 	0.66670 0.24880 0.70410 -0.33200
C 	C 	0.44980 0.04860 0.39197 0.11500
C 	C 	0.37760 0.07830 0.35661 -0.16000
H 	H 	0.25160 0.08600 0.35400 0.09400
C 	C 	0.49440 0.09640 0.32530 0.05600
H 	H 	0.44500 0.11570 0.30170 0.02500
C 	C 	0.68140 0.08618 0.32889 -0.11000
C 	C 	0.75700 0.05610 0.36386 0.04300
H 	H 	0.88290 0.04820 0.36610 0.03000
C 	C 	0.64040 0.03840 0.39524 -0.14800
H 	H 	0.69040 0.01920 0.41890 0.05700
C 	C 	0.80970 0.10946 0.29696 0.30300
O 	O 	0.74010 0.14022 0.26653 -0.39300
O 	O 	0.98170 0.10308 0.29945 -0.33600
N 	N 	0.71050 0.45001 0.99928 -0.25600
N 	N 	0.44180 0.47346 0.05760 -0.27400
C 	C 	0.83160 0.44280 0.96648 0.07700
C 	C 	0.96330 0.40180 0.97774 0.02900
H 	H 	0.05790 0.39000 0.96090 -0.00600
C 	C 	0.92550 0.38350 0.01710 -0.15000
H 	H 	0.98950 0.35680 0.03270 0.08800
C 	C 	0.76670 0.41290 0.03077 0.08900
C 	C 	0.68190 0.40360 0.06909 -0.10200
C 	C 	0.53190 0.43280 0.08141 0.07500
C 	C 	0.45040 0.42760 0.12337 -0.06600
H 	H 	0.48680 0.40370 0.14530 0.05300
C 	C 	0.31400 0.46340 0.12444 -0.08900
H 	H 	0.23780 0.46890 0.14730 0.06400
C 	C 	0.30540 0.49230 0.08387 0.09400
C 	C 	0.81990 0.46830 0.92654 -0.15100
C 	C 	0.76170 0.36150 0.10001 0.01100
C 	C 	0.93420 0.36820 0.12010 0.06400
H 	H 	0.00340 0.39840 0.11410 -0.01200
C 	C 	0.00770 0.33000 0.14970 -0.16600
H 	H 	0.12450 0.33570 0.16310 0.08600
C 	C 	0.91420 0.28600 0.15900 0.01600
C 	C 	0.73600 0.27780 0.13810 -0.05500
H 	H 	0.66850 0.24730 0.14410 0.04600
C 	C 	0.66200 0.31560 0.10860 -0.05700
H 	H 	0.54620 0.31000 0.09470 0.04500
C 	C 	0.99200 0.24340 0.19300 0.32600
O 	O 	0.88230 0.20970 0.20603 -0.43800
O 	O 	0.16670 0.25120 0.20410 -0.36200
C 	C 	0.94980 0.45140 0.89197 0.19400
C 	C 	0.87760 0.42170 0.85661 -0.23300
H 	H 	0.75160 0.41400 0.85400 0.13200
C 	C 	0.99440 0.40360 0.82530 0.17100
H 	H 	0.94500 0.38430 0.80170 -0.00300
C 	C 	0.18140 0.41382 0.82889 -0.20600
C 	C 	0.25700 0.44390 0.86386 0.12400
H 	H 	0.38290 0.45180 0.86610 -0.00500
C 	C 	0.14040 0.46160 0.89524 -0.24700
H 	H 	0.19040 0.48080 0.91890 0.09100
C 	C 	0.30970 0.39054 0.79696 0.33300
O 	O 	0.24010 0.35978 0.76653 -0.41900
O 	O 	0.48170 0.39692 0.79945 -0.36900
N 	N 	0.21050 0.95001 0.99928 -0.25000
N 	N 	0.94180 0.97346 0.05760 -0.24000
C 	C 	0.33160 0.94280 0.96648 0.07400
C 	C 	0.46330 0.90180 0.97774 -0.04000
H 	H 	0.55790 0.89000 0.96090 0.04600
C 	C 	0.42550 0.88350 0.01710 -0.11500
H 	H 	0.48950 0.85680 0.03270 0.07000
C 	C 	0.26670 0.91290 0.03077 0.07800
C 	C 	0.18190 0.90360 0.06909 -0.11000
C 	C 	0.03190 0.93280 0.08141 0.00600
C 	C 	0.95040 0.92760 0.12337 0.03000
H 	H 	0.98680 0.90370 0.14530 0.03900
C 	C 	0.81400 0.96340 0.12444 -0.14700
H 	H 	0.73780 0.96890 0.14730 0.10100
C 	C 	0.80540 0.99230 0.08387 0.17200
C 	C 	0.31990 0.96830 0.92654 -0.08400
C 	C 	0.26170 0.86150 0.10001 0.10700
C 	C 	0.43420 0.86820 0.12010 -0.15800
H 	H 	0.50340 0.89840 0.11410 0.09100
C 	C 	0.50770 0.83000 0.14970 0.06000
H 	H 	0.62450 0.83570 0.16310 0.02100
C 	C 	0.41420 0.78600 0.15900 -0.11400
C 	C 	0.23600 0.77780 0.13810 0.04000
H 	H 	0.16850 0.74730 0.14410 0.00900
C 	C 	0.16200 0.81560 0.10860 -0.15400
H 	H 	0.04620 0.81000 0.09470 0.07000
C 	C 	0.49200 0.74340 0.19300 0.32300
O 	O 	0.38230 0.70970 0.20603 -0.45400
O 	O 	0.66670 0.75120 0.20410 -0.33100
C 	C 	0.44980 0.95140 0.89197 0.09200
C 	C 	0.37760 0.92170 0.85661 -0.13200
H 	H 	0.25160 0.91400 0.85400 0.09000
C 	C 	0.49440 0.90360 0.82530 0.04400
H 	H 	0.44500 0.88430 0.80170 0.03200
C 	C 	0.68140 0.91382 0.82889 -0.09400
C 	C 	0.75700 0.94390 0.86386 0.03400
H 	H 	0.88290 0.95180 0.86610 0.04700
C 	C 	0.64040 0.96160 0.89524 -0.12000
H 	H 	0.69040 0.98080 0.91890 0.06800
C 	C 	0.80970 0.89054 0.79696 0.30100
O 	O 	0.74010 0.85978 0.76653 -0.39100
O 	O 	0.98170 0.89692 0.79945 -0.33000
N 	N 	0.28950 0.45001 0.50072 -0.27800
N 	N 	0.55820 0.47346 0.44240 -0.27700
C 	C 	0.16840 0.44280 0.53352 0.10900
C 	C 	0.03670 0.40180 0.52226 -0.16800
H 	H 	0.94210 0.39000 0.53910 0.10500
C 	C 	0.07450 0.38350 0.48290 -0.05300
H 	H 	0.01050 0.35680 0.46730 0.03800
C 	C 	0.23330 0.41290 0.46923 0.09800
C 	C 	0.31810 0.40360 0.43091 -0.18800
C 	C 	0.46810 0.43280 0.41859 0.10900
C 	C 	0.54960 0.42760 0.37663 -0.08100
H 	H 	0.51320 0.40370 0.35470 0.06000
C 	C 	0.68600 0.46340 0.37556 -0.08900
H 	H 	0.76220 0.46890 0.35270 0.06900
C 	C 	0.69460 0.49230 0.41613 0.10800
C 	C 	0.18010 0.46830 0.57346 -0.13000
C 	C 	0.23830 0.36150 0.39999 0.25000
C 	C 	0.06580 0.36820 0.37990 -0.41400
H 	H 	0.99660 0.39840 0.38590 0.19800
C 	C 	0.99230 0.33000 0.35030 0.31000
H 	H 	0.87550 0.33570 0.33690 -0.06400
C 	C 	0.08580 0.28600 0.34100 -0.26300
C 	C 	0.26400 0.27780 0.36190 0.16100
H 	H 	0.33150 0.24730 0.35590 -0.02500
C 	C 	0.33800 0.31560 0.39140 -0.27700
H 	H 	0.45380 0.31000 0.40530 0.12800
C 	C 	0.00800 0.24340 0.30700 0.32700
O 	O 	0.11770 0.20970 0.29397 -0.46000
O 	O 	0.83330 0.25120 0.29590 -0.31800
C 	C 	0.05020 0.45140 0.60803 0.03100
C 	C 	0.12240 0.42170 0.64339 -0.08100
H 	H 	0.24840 0.41400 0.64600 0.07700
C 	C 	0.00560 0.40360 0.67470 -0.05000
H 	H 	0.05500 0.38430 0.69830 0.05600
C 	C 	0.81860 0.41382 0.67111 -0.02300
C 	C 	0.74300 0.44390 0.63614 -0.03200
H 	H 	0.61710 0.45180 0.63390 0.05200
C 	C 	0.85960 0.46160 0.60476 -0.04300
H 	H 	0.80960 0.48080 0.58110 0.03200
C 	C 	0.69030 0.39054 0.70304 0.27800
O 	O 	0.75990 0.35978 0.73347 -0.38600
O 	O 	0.51830 0.39692 0.70055 -0.35300
N 	N 	0.78950 0.95001 0.50072 -0.25800
N 	N 	0.05820 0.97346 0.44240 -0.30000
C 	C 	0.66840 0.94280 0.53352 0.09100
C 	C 	0.53670 0.90180 0.52226 -0.07700
H 	H 	0.44210 0.89000 0.53910 0.04700
C 	C 	0.57450 0.88350 0.48290 -0.09500
H 	H 	0.51050 0.85680 0.46730 0.06000
C 	C 	0.73330 0.91290 0.46923 0.11800
C 	C 	0.81810 0.90360 0.43091 -0.17200
C 	C 	0.96810 0.93280 0.41859 0.17900
C 	C 	0.04960 0.92760 0.37663 -0.14700
H 	H 	0.01320 0.90370 0.35470 0.07000
C 	C 	0.18600 0.96340 0.37556 -0.07000
H 	H 	0.26220 0.96890 0.35270 0.06600
C 	C 	0.19460 0.99230 0.41613 0.12900
C 	C 	0.68010 0.96830 0.57346 -0.10400
C 	C 	0.73830 0.86150 0.39999 0.15600
C 	C 	0.56580 0.86820 0.37990 -0.19000
H 	H 	0.49660 0.89840 0.38590 0.10200
C 	C 	0.49230 0.83000 0.35030 0.08600
H 	H 	0.37550 0.83570 0.33690 0.00400
C 	C 	0.58580 0.78600 0.34100 -0.13200
C 	C 	0.76400 0.77780 0.36190 0.06800
H 	H 	0.83150 0.74730 0.35590 0.01200
C 	C 	0.83800 0.81560 0.39140 -0.18000
H 	H 	0.95380 0.81000 0.40530 0.10200
C 	C 	0.50800 0.74340 0.30700 0.33000
O 	O 	0.61770 0.70970 0.29397 -0.45000
O 	O 	0.33330 0.75120 0.29590 -0.34700
C 	C 	0.55020 0.95140 0.60803 0.11500
C 	C 	0.62240 0.92170 0.64339 -0.15800
H 	H 	0.74840 0.91400 0.64600 0.11600
C 	C 	0.50560 0.90360 0.67470 0.06800
H 	H 	0.55500 0.88430 0.69830 0.02600
C 	C 	0.31860 0.91382 0.67111 -0.12100
C 	C 	0.24300 0.94390 0.63614 0.05200
H 	H 	0.11710 0.95180 0.63390 0.01600
C 	C 	0.35960 0.96160 0.60476 -0.14700
H 	H 	0.30960 0.98080 0.58110 0.06700
C 	C 	0.19030 0.89054 0.70304 0.31000
O 	O 	0.25990 0.85978 0.73347 -0.40700
O 	O 	0.01830 0.89692 0.70055 -0.38000
Ni	Ni	0.50000 0.50000 -0.00000 1.03500
Ni	Ni	-0.00000 0.00000 -0.00000 1.00600
Ni	Ni	0.50000 0.50000 0.50000 1.04400
Ni	Ni	0.00000 0.00000 0.50000 1.01400
Fe	Fe	0.50000 0.33618 0.75000 1.23300
Fe	Fe	-0.00000 0.83618 0.75000 1.21300
Fe	Fe	0.50000 0.66382 0.25000 1.23300
Fe	Fe	0.00000 0.16382 0.25000 1.21300
K 	K 	-0.00000 0.26489 0.75000 0.64300
K 	K 	0.50000 0.76489 0.75000 0.65100
K 	K 	0.00000 0.73511 0.25000 0.64300
K 	K 	0.50000 0.23511 0.25000 0.65100
