data_crystal

_cell_length_a 6.77970
_cell_length_b 7.50770
_cell_length_c 12.83250
_cell_angle_alpha 107.00900
_cell_angle_beta  103.45400
_cell_angle_gamma 90.00000

_symmetry_space_group_name_	'P 1'
_symmetry_space_group_name_H-M	'P 1'

loop_
_symmetry_equiv_pos_as_xyz
  x,y,z

loop_
_atom_site_label
_atom_site_type_symbol
_atom_site_fract_x
_atom_site_fract_y
_atom_site_fract_z
_atom_site_charge
V 	V 	-0.00000 0.00000 -0.00000 1.62400
V 	V 	0.50000 0.00000 -0.00000 1.67800
C 	C 	0.08280 0.08790 0.70780 -0.13900
C 	C 	0.20120 0.00010 0.62620 -0.38700
C 	C 	0.21740 0.89520 0.43840 -0.14400
C 	C 	0.15280 0.09340 0.82280 0.32000
C 	C 	0.09440 0.96700 0.51400 0.33300
C 	C 	0.87220 0.13210 0.67820 0.05600
C 	C 	0.41720 0.38010 0.29220 -0.16700
C 	C 	0.29880 0.37390 0.37380 0.00600
C 	C 	0.28260 0.45680 0.56160 -0.04800
C 	C 	0.34720 0.27060 0.17720 0.42800
C 	C 	0.40560 0.45300 0.48600 -0.02000
C 	C 	0.62780 0.45390 0.32180 0.02900
C 	C 	0.91720 0.91210 0.29220 -0.09800
C 	C 	0.79880 0.99990 0.37380 0.39000
C 	C 	0.78260 0.10480 0.56160 0.04400
C 	C 	0.84720 0.90660 0.17720 0.46400
C 	C 	0.90560 0.03300 0.48600 -0.31600
C 	C 	0.12780 0.86790 0.32180 -0.02400
C 	C 	0.58280 0.61990 0.70780 -0.07100
C 	C 	0.70120 0.62610 0.62620 -0.00500
C 	C 	0.71740 0.54320 0.43840 -0.05400
C 	C 	0.65280 0.72940 0.82280 0.35800
C 	C 	0.59440 0.54700 0.51400 0.03400
C 	C 	0.37220 0.54610 0.67820 -0.00100
O 	O 	0.09380 0.15190 0.91380 -0.41400
O 	O 	0.33560 0.06830 0.85660 -0.40800
O 	O 	0.40620 0.23810 0.08620 -0.57100
O 	O 	0.16440 0.21170 0.14340 -0.57200
O 	O 	0.90620 0.84810 0.08620 -0.44100
O 	O 	0.66440 0.93170 0.14340 -0.42600
O 	O 	0.59380 0.76190 0.91380 -0.31800
O 	O 	0.83560 0.78830 0.85660 -0.26900
O 	O 	0.25000 0.87900 -0.00000 -0.66600
O 	O 	0.75000 0.12100 -0.00000 -0.72900
H 	H 	0.36417 0.96564 0.65683 0.22300
H 	H 	0.37988 0.86193 0.47134 0.09800
H 	H 	0.78658 0.18572 0.74659 0.05900
H 	H 	0.13583 0.30882 0.34317 -0.02700
H 	H 	0.12012 0.39060 0.52866 -0.00800
H 	H 	0.71342 0.43913 0.25341 0.04200
H 	H 	0.63583 0.03436 0.34317 -0.14300
H 	H 	0.61923 0.14061 0.53357 -0.00900
H 	H 	0.21342 0.81428 0.25341 0.03700
H 	H 	0.86417 0.69118 0.65683 0.10600
H 	H 	0.88077 0.60704 0.46643 0.09600
H 	H 	0.27892 0.55669 0.74283 0.05000
