data_crystal

_cell_length_a 10.09900
_cell_length_b 14.36300
_cell_length_c 12.97500
_cell_angle_alpha 90.00000
_cell_angle_beta  105.69000
_cell_angle_gamma 90.00000

_symmetry_space_group_name_	'P 1'
_symmetry_space_group_name_H-M	'P 1'

loop_
_symmetry_equiv_pos_as_xyz
  x,y,z

loop_
_atom_site_label
_atom_site_type_symbol
_atom_site_fract_x
_atom_site_fract_y
_atom_site_fract_z
_atom_site_charge
O 	O 	0.30370 0.09868 0.43160 -0.37300
O 	O 	0.45270 0.44141 0.16760 -0.41900
O 	O 	0.60040 0.36318 0.09690 -0.41400
C 	C 	0.52990 0.37440 0.16260 0.37300
O 	O 	0.78120 0.04277 0.44280 -0.41300
Cd	Cd	0.09120 0.06628 0.43947 1.23400
O 	O 	0.89520 0.13801 0.36200 -0.41200
C 	C 	0.65520 0.24280 0.27710 0.05100
C 	C 	0.54440 0.14800 0.38020 0.05200
C 	C 	0.66120 0.16920 0.34720 -0.10600
C 	C 	0.42260 0.27510 0.27780 0.04500
C 	C 	0.53720 0.29660 0.24260 -0.10200
C 	C 	0.42520 0.19930 0.34490 -0.09400
C 	C 	0.78980 0.11180 0.38700 0.37900
C 	C 	0.29620 0.16970 0.37410 0.33400
O 	O 	0.18900 0.21310 0.34090 -0.30300
H 	H 	0.34400 0.31000 0.25500 0.05100
H 	H 	0.54300 0.09300 0.42700 0.05900
H 	H 	0.73000 0.25400 0.25300 0.05200
O 	O 	0.19630 0.59868 0.06840 -0.37100
O 	O 	0.04730 0.94141 0.33240 -0.41100
O 	O 	0.89960 0.86318 0.40310 -0.41300
C 	C 	0.97010 0.87440 0.33740 0.36700
O 	O 	0.71880 0.54277 0.05720 -0.41400
Cd	Cd	0.40880 0.56628 0.06053 1.23700
O 	O 	0.60480 0.63801 0.13800 -0.41400
C 	C 	0.84480 0.74280 0.22290 0.05300
C 	C 	0.95560 0.64800 0.11980 0.05000
C 	C 	0.83880 0.66920 0.15280 -0.10700
C 	C 	0.07740 0.77510 0.22220 0.05000
C 	C 	0.96280 0.79660 0.25740 -0.10500
C 	C 	0.07480 0.69930 0.15510 -0.09300
C 	C 	0.71020 0.61180 0.11300 0.38000
C 	C 	0.20380 0.66970 0.12590 0.33400
O 	O 	0.31100 0.71310 0.15910 -0.30100
H 	H 	0.15600 0.81000 0.24500 0.05000
H 	H 	0.95700 0.59300 0.07300 0.05900
H 	H 	0.77000 0.75400 0.24700 0.05100
O 	O 	0.69630 0.90132 0.56840 -0.37200
O 	O 	0.54730 0.55859 0.83240 -0.41800
O 	O 	0.39960 0.63682 0.90310 -0.41300
C 	C 	0.47010 0.62560 0.83740 0.37400
O 	O 	0.21880 0.95723 0.55720 -0.41200
Cd	Cd	0.90880 0.93372 0.56053 1.23500
O 	O 	0.10480 0.86199 0.63800 -0.41100
C 	C 	0.34480 0.75720 0.72290 0.05200
C 	C 	0.45560 0.85200 0.61980 0.05200
C 	C 	0.33880 0.83080 0.65280 -0.10600
C 	C 	0.57740 0.72490 0.72220 0.04500
C 	C 	0.46280 0.70340 0.75740 -0.10200
C 	C 	0.57480 0.80070 0.65510 -0.09400
C 	C 	0.21020 0.88820 0.61300 0.37900
C 	C 	0.70380 0.83030 0.62590 0.33400
O 	O 	0.81100 0.78690 0.65910 -0.30300
H 	H 	0.65600 0.69000 0.74500 0.05100
H 	H 	0.45700 0.90700 0.57300 0.05900
H 	H 	0.27000 0.74600 0.74700 0.05200
O 	O 	0.80370 0.40132 0.93160 -0.37100
O 	O 	0.95270 0.05859 0.66760 -0.41100
O 	O 	0.10040 0.13682 0.59690 -0.41300
C 	C 	0.02990 0.12560 0.66260 0.36700
O 	O 	0.28120 0.45723 0.94280 -0.41400
Cd	Cd	0.59120 0.43372 0.93947 1.23700
O 	O 	0.39520 0.36199 0.86200 -0.41400
C 	C 	0.15520 0.25720 0.77710 0.05300
C 	C 	0.04440 0.35200 0.88020 0.05000
C 	C 	0.16120 0.33080 0.84720 -0.10700
C 	C 	0.92260 0.22490 0.77780 0.05000
C 	C 	0.03720 0.20340 0.74260 -0.10500
C 	C 	0.92520 0.30070 0.84490 -0.09300
C 	C 	0.28980 0.38820 0.88700 0.38000
C 	C 	0.79620 0.33030 0.87410 0.33400
O 	O 	0.68900 0.28690 0.84090 -0.30100
H 	H 	0.84400 0.19000 0.75500 0.05000
H 	H 	0.04300 0.40700 0.92700 0.05900
H 	H 	0.23000 0.24600 0.75300 0.05100
