data_crystal

_cell_length_a 10.52350
_cell_length_b 19.09000
_cell_length_c 23.34910
_cell_angle_alpha 99.71010
_cell_angle_beta  103.02400
_cell_angle_gamma 90.00000

_symmetry_space_group_name_	'P 1'
_symmetry_space_group_name_H-M	'P 1'

loop_
_symmetry_equiv_pos_as_xyz
  x,y,z

loop_
_atom_site_label
_atom_site_type_symbol
_atom_site_fract_x
_atom_site_fract_y
_atom_site_fract_z
_atom_site_charge
Co	Co	0.55832 0.07267 0.72174 1.13200
Co	Co	0.83658 0.42733 0.27826 1.13100
Co	Co	0.44168 0.92733 0.27826 1.13200
Co	Co	0.16342 0.57267 0.72174 1.13100
Co	Co	0.98234 0.25000 -0.00000 1.15400
Co	Co	0.01766 0.75000 1.00000 1.15400
H 	H 	0.08140 0.05810 0.49780 0.07100
H 	H 	0.05670 0.03920 0.55720 0.07700
H 	H 	0.68780 0.94400 0.66140 0.00900
H 	H 	0.69970 0.75910 0.66140 0.06500
H 	H 	0.75770 0.81800 0.63420 0.05600
H 	H 	0.86450 0.78690 0.74880 0.06400
H 	H 	0.92350 0.76180 0.69320 0.06400
H 	H 	0.35180 0.64950 0.64340 0.06900
H 	H 	0.41600 0.73130 0.59160 0.03700
H 	H 	0.35730 0.84760 0.60700 0.03900
H 	H 	0.24470 0.88930 0.67920 0.06700
H 	H 	0.10710 0.72420 0.78980 -0.00300
H 	H 	0.07740 0.85780 0.80860 0.05000
H 	H 	0.14610 0.90430 0.77420 0.04800
H 	H 	0.46180 0.97300 0.81940 0.07300
H 	H 	0.43080 0.87690 0.86380 0.03100
H 	H 	0.50710 0.76720 0.83380 0.05300
H 	H 	0.62190 0.74940 0.75960 0.06900
H 	H 	0.63160 0.14950 0.60700 0.08200
H 	H 	0.60750 0.18460 0.51540 0.03600
H 	H 	0.44130 0.13720 0.43600 0.03900
H 	H 	0.28960 0.05510 0.44500 0.08300
H 	H 	0.32720 0.98200 0.63520 -0.00500
H 	H 	0.15950 0.93080 0.54000 0.05200
H 	H 	0.18370 0.94940 0.48020 0.06800
H 	H 	0.13960 0.05940 0.70300 0.02500
H 	H 	0.22850 0.15320 0.87540 0.03600
H 	H 	0.85910 0.14220 0.78140 0.00500
H 	H 	0.04390 0.34180 0.90360 0.06600
H 	H 	0.05540 0.43620 0.85440 0.03500
H 	H 	0.93550 0.53520 0.87040 0.04000
H 	H 	0.79980 0.54410 0.93580 0.06800
H 	H 	0.77110 0.35110 0.04200 -0.00200
H 	H 	0.71570 0.53090 0.03300 0.04800
H 	H 	0.67660 0.47020 0.06420 0.05000
H 	H 	0.51500 0.42730 0.97720 0.06700
H 	H 	0.55210 0.49050 0.94820 0.06700
H 	H 	0.91750 0.90610 0.74520 0.07200
H 	H 	0.98020 0.87970 0.69100 0.07900
H 	H 	0.58360 0.44190 0.50220 0.07200
H 	H 	0.49950 0.46080 0.44280 0.07700
H 	H 	0.02640 0.55600 0.33860 0.01000
H 	H 	0.03830 0.74090 0.33860 0.06500
H 	H 	0.12350 0.68200 0.36580 0.05600
H 	H 	0.11570 0.71310 0.25120 0.06200
H 	H 	0.23030 0.73820 0.30680 0.06300
H 	H 	0.70840 0.85050 0.35660 0.06900
H 	H 	0.82440 0.76870 0.40840 0.03800
H 	H 	0.75030 0.65240 0.39300 0.03900
H 	H 	0.56550 0.61070 0.32080 0.06800
H 	H 	0.31730 0.77580 0.21020 -0.00300
H 	H 	0.26880 0.64220 0.19140 0.05000
H 	H 	0.37190 0.59570 0.22580 0.04800
H 	H 	0.64240 0.52700 0.18060 0.07400
H 	H 	0.56700 0.62310 0.13620 0.03100
H 	H 	0.67330 0.73280 0.16620 0.05300
H 	H 	0.86230 0.75060 0.24040 0.06900
H 	H 	0.02460 0.35050 0.39300 0.08400
H 	H 	0.09210 0.31540 0.48460 0.03400
H 	H 	0.00530 0.36280 0.56400 0.04100
H 	H 	0.84460 0.44490 0.55500 0.08100
H 	H 	0.69200 0.51800 0.36480 -0.00300
H 	H 	0.61950 0.56920 0.46000 0.05200
H 	H 	0.70350 0.55060 0.51980 0.06800
H 	H 	0.43660 0.44060 0.29700 0.02500
H 	H 	0.35310 0.34680 0.12460 0.03600
H 	H 	0.07770 0.35780 0.21860 0.00500
H 	H 	0.14030 0.15820 0.09640 0.06800
H 	H 	0.20100 0.06380 0.14560 0.03200
H 	H 	0.06510 0.96480 0.12960 0.04400
H 	H 	0.86400 0.95590 0.06420 0.06400
H 	H 	0.72910 0.14890 0.95800 -0.00400
H 	H 	0.68270 0.96910 0.96700 0.04600
H 	H 	0.61240 0.02980 0.93580 0.04900
H 	H 	0.53780 0.07270 0.02280 0.06800
H 	H 	0.60390 0.00950 0.05180 0.06700
H 	H 	0.17230 0.59390 0.25480 0.07400
H 	H 	0.28920 0.62030 0.30900 0.08000
H 	H 	0.91860 0.94190 0.50220 0.07100
H 	H 	0.94330 0.96080 0.44280 0.07700
H 	H 	0.31220 0.05600 0.33860 0.00900
H 	H 	0.30030 0.24090 0.33860 0.06500
H 	H 	0.24230 0.18200 0.36580 0.05600
H 	H 	0.13550 0.21310 0.25120 0.06400
H 	H 	0.07650 0.23820 0.30680 0.06400
H 	H 	0.64820 0.35050 0.35660 0.06900
H 	H 	0.58400 0.26870 0.40840 0.03700
H 	H 	0.64270 0.15240 0.39300 0.03900
H 	H 	0.75530 0.11070 0.32080 0.06700
H 	H 	0.89290 0.27580 0.21020 -0.00300
H 	H 	0.92260 0.14220 0.19140 0.05000
H 	H 	0.85390 0.09570 0.22580 0.04800
H 	H 	0.53820 0.02700 0.18060 0.07300
H 	H 	0.56920 0.12310 0.13620 0.03100
H 	H 	0.49290 0.23280 0.16620 0.05300
H 	H 	0.37810 0.25060 0.24040 0.06900
H 	H 	0.36840 0.85050 0.39300 0.08200
H 	H 	0.39250 0.81540 0.48460 0.03600
H 	H 	0.55870 0.86280 0.56400 0.03900
H 	H 	0.71040 0.94490 0.55500 0.08300
H 	H 	0.67280 0.01800 0.36480 -0.00500
H 	H 	0.84050 0.06920 0.46000 0.05200
H 	H 	0.81630 0.05060 0.51980 0.06800
H 	H 	0.86040 0.94060 0.29700 0.02500
H 	H 	0.77150 0.84680 0.12460 0.03600
H 	H 	0.14090 0.85780 0.21860 0.00500
H 	H 	0.95610 0.65820 0.09640 0.06600
H 	H 	0.94460 0.56380 0.14560 0.03500
H 	H 	0.06450 0.46480 0.12960 0.04000
H 	H 	0.20020 0.45590 0.06420 0.06800
H 	H 	0.22890 0.64890 0.95800 -0.00200
H 	H 	0.28430 0.46910 0.96700 0.04800
H 	H 	0.32340 0.52980 0.93580 0.05000
H 	H 	0.48500 0.57270 0.02280 0.06700
H 	H 	0.44790 0.50950 0.05180 0.06700
H 	H 	0.08250 0.09390 0.25480 0.07200
H 	H 	0.01980 0.12030 0.30900 0.07900
H 	H 	0.41640 0.55810 0.49780 0.07200
H 	H 	0.50050 0.53920 0.55720 0.07700
H 	H 	0.97360 0.44400 0.66140 0.01000
H 	H 	0.96170 0.25910 0.66140 0.06500
H 	H 	0.87650 0.31800 0.63420 0.05600
H 	H 	0.88430 0.28690 0.74880 0.06200
H 	H 	0.76970 0.26180 0.69320 0.06300
H 	H 	0.29160 0.14950 0.64340 0.06900
H 	H 	0.17560 0.23130 0.59160 0.03800
H 	H 	0.24970 0.34760 0.60700 0.03900
H 	H 	0.43450 0.38930 0.67920 0.06800
H 	H 	0.68270 0.22420 0.78980 -0.00300
H 	H 	0.73120 0.35780 0.80860 0.05000
H 	H 	0.62810 0.40430 0.77420 0.04800
H 	H 	0.35760 0.47300 0.81940 0.07400
H 	H 	0.43300 0.37690 0.86380 0.03100
H 	H 	0.32670 0.26720 0.83380 0.05300
H 	H 	0.13770 0.24940 0.75960 0.06900
H 	H 	0.97540 0.64950 0.60700 0.08400
H 	H 	0.90790 0.68460 0.51540 0.03400
H 	H 	0.99470 0.63720 0.43600 0.04100
H 	H 	0.15540 0.55510 0.44500 0.08100
H 	H 	0.30800 0.48200 0.63520 -0.00300
H 	H 	0.38050 0.43080 0.54000 0.05200
H 	H 	0.29650 0.44940 0.48020 0.06800
H 	H 	0.56340 0.55940 0.70300 0.02500
H 	H 	0.64690 0.65320 0.87540 0.03600
H 	H 	0.92230 0.64220 0.78140 0.00500
H 	H 	0.85970 0.84180 0.90360 0.06800
H 	H 	0.79900 0.93620 0.85440 0.03200
H 	H 	0.93490 0.03520 0.87040 0.04400
H 	H 	0.13600 0.04410 0.93580 0.06400
H 	H 	0.27090 0.85110 0.04200 -0.00400
H 	H 	0.31730 0.03090 0.03300 0.04600
H 	H 	0.38760 0.97020 0.06420 0.04900
H 	H 	0.46220 0.92730 0.97720 0.06800
H 	H 	0.39610 0.99050 0.94820 0.06700
H 	H 	0.82770 0.40610 0.74520 0.07400
H 	H 	0.71080 0.37970 0.69100 0.08000
C 	C 	0.06407 0.01919 0.51714 -0.10400
C 	C 	0.65458 0.92608 0.68996 0.07700
C 	C 	0.74574 0.80512 0.67108 -0.05900
C 	C 	0.87770 0.79986 0.71200 -0.08500
C 	C 	0.22759 0.79236 0.70298 0.05700
C 	C 	0.25512 0.72040 0.69164 0.06100
C 	C 	0.32883 0.69674 0.65026 -0.10200
C 	C 	0.36677 0.74586 0.61954 -0.01400
C 	C 	0.33293 0.81650 0.62966 -0.02500
C 	C 	0.26493 0.84171 0.67186 -0.08600
C 	C 	0.14899 0.73359 0.76078 0.08500
C 	C 	0.09238 0.86157 0.76976 -0.04000
C 	C 	0.60710 0.85128 0.74440 0.05200
C 	C 	0.55908 0.91820 0.76116 0.06300
C 	C 	0.49296 0.92873 0.80692 -0.11700
C 	C 	0.47522 0.87122 0.83324 -0.00300
C 	C 	0.52211 0.80483 0.81522 -0.03600
C 	C 	0.58946 0.79355 0.77112 -0.07900
C 	C 	0.37365 0.05311 0.53270 0.05900
C 	C 	0.47564 0.08038 0.58108 0.06600
C 	C 	0.56392 0.13037 0.57504 -0.10500
C 	C 	0.54892 0.15098 0.52044 -0.01100
C 	C 	0.44761 0.12240 0.47242 -0.02400
C 	C 	0.35765 0.07360 0.47710 -0.09200
C 	C 	0.35879 0.00838 0.61098 0.09000
C 	C 	0.17668 0.96957 0.52036 -0.05200
C 	C 	0.11427 0.08322 0.73654 0.06700
C 	C 	0.20773 0.10509 0.78986 -0.12800
C 	C 	0.16733 0.13961 0.83966 0.05500
C 	C 	0.03753 0.15409 0.83686 -0.13000
C 	C 	0.94647 0.13255 0.78354 0.06700
C 	C 	0.98387 0.09717 0.73394 -0.14400
C 	C 	0.35028 0.09286 0.79256 0.34600
C 	C 	0.98990 0.19040 0.88940 0.32200
C 	C 	0.83983 0.44713 0.95826 0.05800
C 	C 	0.91225 0.38627 0.94890 0.05700
C 	C 	0.99477 0.38165 0.90994 -0.10700
C 	C 	0.00124 0.43808 0.88108 -0.01800
C 	C 	0.92866 0.49810 0.89072 -0.02700
C 	C 	0.84766 0.50377 0.92932 -0.08900
C 	C 	0.80436 0.37093 0.01432 0.09000
C 	C 	0.68200 0.48220 0.02600 -0.04200
C 	C 	0.54744 0.47640 0.98568 -0.10900
C 	C 	0.96396 0.86758 0.72752 -0.11400
C 	C 	0.54693 0.48081 0.48286 -0.10500
C 	C 	0.96462 0.57392 0.31004 0.07700
C 	C 	0.07466 0.69488 0.32892 -0.06000
C 	C 	0.16570 0.70014 0.28800 -0.08200
C 	C 	0.52461 0.70764 0.29702 0.05700
C 	C 	0.56348 0.77960 0.30836 0.06100
C 	C 	0.67857 0.80326 0.34974 -0.10200
C 	C 	0.74723 0.75414 0.38046 -0.01400
C 	C 	0.70327 0.68350 0.37034 -0.02500
C 	C 	0.59307 0.65829 0.32814 -0.08600
C 	C 	0.38821 0.76641 0.23922 0.08600
C 	C 	0.32262 0.63843 0.23024 -0.03600
C 	C 	0.86270 0.64872 0.25560 0.05200
C 	C 	0.79792 0.58180 0.23884 0.06300
C 	C 	0.68604 0.57127 0.19308 -0.11700
C 	C 	0.64198 0.62878 0.16676 -0.00300
C 	C 	0.70689 0.69517 0.18478 -0.03600
C 	C 	0.81834 0.70645 0.22888 -0.07900
C 	C 	0.84095 0.44689 0.46730 0.05600
C 	C 	0.89456 0.41962 0.41892 0.06900
C 	C 	0.98888 0.36963 0.42496 -0.11200
C 	C 	0.02848 0.34902 0.47956 -0.00400
C 	C 	0.97519 0.37760 0.52758 -0.03000
C 	C 	0.88055 0.42640 0.52290 -0.08800
C 	C 	0.74781 0.49162 0.38902 0.08800
C 	C 	0.65632 0.53043 0.47964 -0.05000
C 	C 	0.37773 0.41678 0.26346 0.06600
C 	C 	0.41787 0.39491 0.21014 -0.12800
C 	C 	0.32767 0.36039 0.16034 0.05500
C 	C 	0.20067 0.34591 0.16314 -0.13000
C 	C 	0.16293 0.36745 0.21646 0.06700
C 	C 	0.24993 0.40283 0.26606 -0.14300
C 	C 	0.55772 0.40714 0.20744 0.34600
C 	C 	0.10050 0.30960 0.11060 0.32500
C 	C 	0.88157 0.05287 0.04174 0.04900
C 	C 	0.96335 0.11373 0.05110 0.05900
C 	C 	0.08483 0.11835 0.09006 -0.11200
C 	C 	0.12016 0.06192 0.11892 -0.00800
C 	C 	0.03794 0.00190 0.10928 -0.03600
C 	C 	0.91834 0.99623 0.07068 -0.07700
C 	C 	0.79004 0.12907 0.98568 0.09500
C 	C 	0.65600 0.01780 0.97400 -0.03700
C 	C 	0.56176 0.02360 0.01432 -0.11100
C 	C 	0.23644 0.63242 0.27248 -0.11900
C 	C 	0.93593 0.98081 0.48286 -0.10400
C 	C 	0.34542 0.07392 0.31004 0.07700
C 	C 	0.25426 0.19488 0.32892 -0.05900
C 	C 	0.12230 0.20014 0.28800 -0.08500
C 	C 	0.77241 0.20764 0.29702 0.05700
C 	C 	0.74488 0.27960 0.30836 0.06100
C 	C 	0.67117 0.30326 0.34974 -0.10200
C 	C 	0.63323 0.25414 0.38046 -0.01400
C 	C 	0.66707 0.18350 0.37034 -0.02500
C 	C 	0.73507 0.15829 0.32814 -0.08600
C 	C 	0.85101 0.26641 0.23922 0.08500
C 	C 	0.90762 0.13843 0.23024 -0.04000
C 	C 	0.39290 0.14872 0.25560 0.05200
C 	C 	0.44092 0.08180 0.23884 0.06300
C 	C 	0.50704 0.07127 0.19308 -0.11700
C 	C 	0.52478 0.12878 0.16676 -0.00300
C 	C 	0.47789 0.19517 0.18478 -0.03600
C 	C 	0.41054 0.20645 0.22888 -0.07900
C 	C 	0.62635 0.94689 0.46730 0.05900
C 	C 	0.52436 0.91962 0.41892 0.06600
C 	C 	0.43608 0.86963 0.42496 -0.10500
C 	C 	0.45108 0.84902 0.47956 -0.01100
C 	C 	0.55239 0.87760 0.52758 -0.02400
C 	C 	0.64235 0.92640 0.52290 -0.09200
C 	C 	0.64121 0.99162 0.38902 0.09000
C 	C 	0.82332 0.03043 0.47964 -0.05200
C 	C 	0.88573 0.91678 0.26346 0.06700
C 	C 	0.79227 0.89491 0.21014 -0.12800
C 	C 	0.83267 0.86039 0.16034 0.05500
C 	C 	0.96247 0.84591 0.16314 -0.13000
C 	C 	0.05353 0.86745 0.21646 0.06700
C 	C 	0.01613 0.90283 0.26606 -0.14400
C 	C 	0.64972 0.90714 0.20744 0.34600
C 	C 	0.01010 0.80960 0.11060 0.32200
C 	C 	0.16017 0.55287 0.04174 0.05800
C 	C 	0.08775 0.61373 0.05110 0.05700
C 	C 	0.00523 0.61835 0.09006 -0.10700
C 	C 	0.99876 0.56192 0.11892 -0.01800
C 	C 	0.07134 0.50190 0.10928 -0.02700
C 	C 	0.15234 0.49623 0.07068 -0.08900
C 	C 	0.19564 0.62907 0.98568 0.09000
C 	C 	0.31800 0.51780 0.97400 -0.04200
C 	C 	0.45256 0.52360 0.01432 -0.10900
C 	C 	0.03604 0.13242 0.27248 -0.11400
C 	C 	0.45307 0.51919 0.51714 -0.10500
C 	C 	0.03538 0.42608 0.68996 0.07700
C 	C 	0.92534 0.30512 0.67108 -0.06000
C 	C 	0.83430 0.29986 0.71200 -0.08200
C 	C 	0.47539 0.29236 0.70298 0.05700
C 	C 	0.43652 0.22040 0.69164 0.06100
C 	C 	0.32143 0.19674 0.65026 -0.10200
C 	C 	0.25277 0.24586 0.61954 -0.01400
C 	C 	0.29673 0.31650 0.62966 -0.02500
C 	C 	0.40693 0.34171 0.67186 -0.08600
C 	C 	0.61179 0.23359 0.76078 0.08600
C 	C 	0.67738 0.36157 0.76976 -0.03600
C 	C 	0.13730 0.35128 0.74440 0.05200
C 	C 	0.20208 0.41820 0.76116 0.06300
C 	C 	0.31396 0.42873 0.80692 -0.11700
C 	C 	0.35802 0.37122 0.83324 -0.00300
C 	C 	0.29311 0.30483 0.81522 -0.03600
C 	C 	0.18166 0.29355 0.77112 -0.07900
C 	C 	0.15905 0.55311 0.53270 0.05600
C 	C 	0.10544 0.58038 0.58108 0.06900
C 	C 	0.01112 0.63037 0.57504 -0.11200
C 	C 	0.97152 0.65098 0.52044 -0.00400
C 	C 	0.02481 0.62240 0.47242 -0.03000
C 	C 	0.11945 0.57360 0.47710 -0.08800
C 	C 	0.25219 0.50838 0.61098 0.08800
C 	C 	0.34368 0.46957 0.52036 -0.05000
C 	C 	0.62227 0.58322 0.73654 0.06600
C 	C 	0.58213 0.60509 0.78986 -0.12800
C 	C 	0.67233 0.63961 0.83966 0.05500
C 	C 	0.79933 0.65409 0.83686 -0.13000
C 	C 	0.83707 0.63255 0.78354 0.06700
C 	C 	0.75007 0.59717 0.73394 -0.14300
C 	C 	0.44228 0.59286 0.79256 0.34600
C 	C 	0.89950 0.69040 0.88940 0.32500
C 	C 	0.11843 0.94713 0.95826 0.04900
C 	C 	0.03665 0.88627 0.94890 0.05900
C 	C 	0.91517 0.88165 0.90994 -0.11200
C 	C 	0.87984 0.93808 0.88108 -0.00800
C 	C 	0.96206 0.99810 0.89072 -0.03600
C 	C 	0.08166 0.00377 0.92932 -0.07700
C 	C 	0.20996 0.87093 0.01432 0.09500
C 	C 	0.34400 0.98220 0.02600 -0.03700
C 	C 	0.43824 0.97640 0.98568 -0.11100
C 	C 	0.76356 0.36758 0.72752 -0.11900
S 	S 	0.86209 0.07412 0.66720 0.54800
S 	S 	0.19489 0.42588 0.33280 0.54800
S 	S 	0.13791 0.92588 0.33280 0.54800
S 	S 	0.80511 0.57412 0.66720 0.54800
N 	N 	0.59079 0.96475 0.72558 -0.24400
N 	N 	0.66724 0.85807 0.69868 -0.12300
N 	N 	0.20080 0.68412 0.72820 -0.23800
N 	N 	0.16175 0.79940 0.74850 -0.12600
N 	N 	0.46348 0.05024 0.63036 -0.23600
N 	N 	0.30050 0.00662 0.55320 -0.12600
N 	N 	0.88758 0.33879 0.98496 -0.25600
N 	N 	0.77243 0.43501 0.00046 -0.12900
N 	N 	0.86521 0.53525 0.27442 -0.24400
N 	N 	0.96856 0.64193 0.30132 -0.12200
N 	N 	0.47260 0.81588 0.27180 -0.23800
N 	N 	0.41325 0.70060 0.25150 -0.12600
N 	N 	0.83312 0.44976 0.36964 -0.23600
N 	N 	0.74730 0.49338 0.44680 -0.12600
N 	N 	0.90262 0.16121 0.01504 -0.25900
N 	N 	0.77197 0.06499 0.99954 -0.12700
N 	N 	0.40921 0.03525 0.27442 -0.24400
N 	N 	0.33276 0.14193 0.30132 -0.12300
N 	N 	0.79920 0.31588 0.27180 -0.23800
N 	N 	0.83825 0.20060 0.25150 -0.12600
N 	N 	0.53652 0.94976 0.36964 -0.23600
N 	N 	0.69950 0.99338 0.44680 -0.12600
N 	N 	0.11242 0.66121 0.01504 -0.25600
N 	N 	0.22757 0.56499 0.99954 -0.12900
N 	N 	0.13479 0.46475 0.72558 -0.24400
N 	N 	0.03144 0.35807 0.69868 -0.12200
N 	N 	0.52740 0.18412 0.72820 -0.23800
N 	N 	0.58675 0.29940 0.74850 -0.12600
N 	N 	0.16688 0.55024 0.63036 -0.23600
N 	N 	0.25270 0.50662 0.55320 -0.12600
N 	N 	0.09738 0.83879 0.98496 -0.25900
N 	N 	0.22803 0.93501 0.00046 -0.12700
O 	O 	0.37954 0.06288 0.74530 -0.42200
O 	O 	0.42931 0.11354 0.84096 -0.29600
O 	O 	0.87130 0.19560 0.88660 -0.33500
O 	O 	0.07640 0.21489 0.93660 -0.42000
O 	O 	0.74023 0.08079 0.68746 -0.41300
O 	O 	0.87844 0.12541 0.63068 -0.28800
O 	O 	0.88356 0.00198 0.64212 -0.28900
O 	O 	0.63424 0.43712 0.25470 -0.42300
O 	O 	0.58835 0.38646 0.15904 -0.29700
O 	O 	0.98470 0.30440 0.11340 -0.33800
O 	O 	0.13980 0.28511 0.06340 -0.42100
O 	O 	0.05277 0.41921 0.31254 -0.41300
O 	O 	0.24776 0.37459 0.36932 -0.28700
O 	O 	0.24144 0.49802 0.35788 -0.28800
O 	O 	0.62046 0.93712 0.25470 -0.42200
O 	O 	0.57069 0.88646 0.15904 -0.29600
O 	O 	0.12870 0.80440 0.11340 -0.33500
O 	O 	0.92360 0.78511 0.06340 -0.42000
O 	O 	0.25977 0.91921 0.31254 -0.41300
O 	O 	0.12156 0.87459 0.36932 -0.28800
O 	O 	0.11644 0.99802 0.35788 -0.28900
O 	O 	0.36576 0.56288 0.74530 -0.42300
O 	O 	0.41165 0.61354 0.84096 -0.29700
O 	O 	0.01530 0.69560 0.88660 -0.33800
O 	O 	0.86020 0.71489 0.93660 -0.42100
O 	O 	0.94723 0.58079 0.68746 -0.41300
O 	O 	0.75224 0.62541 0.63068 -0.28700
O 	O 	0.75856 0.50198 0.64212 -0.28800
