data_crystal

_cell_length_a 11.81510
_cell_length_b 13.83620
_cell_length_c 16.32160
_cell_angle_alpha 90.00000
_cell_angle_beta  90.00000
_cell_angle_gamma 112.76600

_symmetry_space_group_name_	'P 1'
_symmetry_space_group_name_H-M	'P 1'

loop_
_symmetry_equiv_pos_as_xyz
  x,y,z

loop_
_atom_site_label
_atom_site_type_symbol
_atom_site_fract_x
_atom_site_fract_y
_atom_site_fract_z
_atom_site_charge
Co	Co	0.10152 0.09914 0.95411 1.14200
Co	Co	0.75967 0.21783 0.04652 1.09400
Co	Co	0.05133 0.12669 0.63109 1.13300
Co	Co	0.39848 0.40086 0.45411 1.15000
Co	Co	0.74033 0.28217 0.54652 1.09200
Co	Co	0.44867 0.37331 0.13109 1.13700
Co	Co	0.89848 0.90086 0.04589 1.14100
Co	Co	0.24033 0.78217 0.95348 1.09300
Co	Co	0.94867 0.87331 0.36891 1.13300
Co	Co	0.60152 0.59914 0.54589 1.15000
Co	Co	0.25967 0.71783 0.45348 1.09200
Co	Co	0.55133 0.62669 0.86891 1.13700
H 	H 	0.66640 0.10540 0.79560 0.03600
H 	H 	0.83380 0.12840 0.72570 0.05700
H 	H 	0.67700 0.98030 0.70220 0.04000
H 	H 	0.61850 0.82240 0.75590 0.07100
H 	H 	0.54900 0.93750 0.80910 0.05600
H 	H 	0.60360 0.03890 0.92020 0.07700
H 	H 	0.97940 0.91540 0.89610 0.37900
H 	H 	0.06190 0.90160 0.94840 0.34300
H 	H 	0.83360 0.39460 0.29560 0.03800
H 	H 	0.66620 0.37160 0.22570 0.05500
H 	H 	0.82300 0.51970 0.20220 0.04100
H 	H 	0.88150 0.67760 0.25590 0.06800
H 	H 	0.95100 0.56250 0.30910 0.05700
H 	H 	0.89640 0.46110 0.42020 0.07900
H 	H 	0.52060 0.58460 0.39610 0.39200
H 	H 	0.43810 0.59840 0.44840 0.34600
H 	H 	0.33360 0.89460 0.20440 0.03600
H 	H 	0.16620 0.87160 0.27430 0.05700
H 	H 	0.32300 0.01970 0.29780 0.04000
H 	H 	0.38150 0.17760 0.24410 0.07100
H 	H 	0.45100 0.06250 0.19090 0.05600
H 	H 	0.39640 0.96110 0.07980 0.07700
H 	H 	0.02060 0.08460 0.10390 0.37900
H 	H 	0.93810 0.09840 0.05160 0.34300
H 	H 	0.16640 0.60540 0.70440 0.03800
H 	H 	0.33380 0.62840 0.77430 0.05500
H 	H 	0.17700 0.48030 0.79780 0.04100
H 	H 	0.11850 0.32240 0.74410 0.06800
H 	H 	0.04900 0.43750 0.69090 0.05700
H 	H 	0.10360 0.53890 0.57980 0.07900
H 	H 	0.47940 0.41540 0.60390 0.39200
H 	H 	0.56190 0.40160 0.55160 0.34600
C 	C 	0.94230 0.09510 0.80640 0.41000
C 	C 	0.80780 0.93600 0.66140 0.33900
C 	C 	0.76450 0.83330 0.82730 0.38300
C 	C 	0.49770 0.83100 0.89650 0.35600
C 	C 	0.74430 0.00710 0.96660 0.39800
C 	C 	0.79270 0.21770 0.85990 0.32600
C 	C 	0.73370 0.10500 0.83060 -0.07200
C 	C 	0.81740 0.07750 0.77040 -0.13200
C 	C 	0.74420 0.96900 0.73040 -0.08200
C 	C 	0.67650 0.87850 0.78950 -0.11900
C 	C 	0.59760 0.91550 0.84800 -0.08500
C 	C 	0.66710 0.01880 0.89570 -0.13500
C 	C 	0.55770 0.40490 0.30640 0.39600
C 	C 	0.69220 0.56400 0.16140 0.34900
C 	C 	0.73550 0.66670 0.32730 0.38200
C 	C 	0.00230 0.66900 0.39650 0.36000
C 	C 	0.75570 0.49290 0.46660 0.40500
C 	C 	0.70730 0.28230 0.35990 0.32600
C 	C 	0.76630 0.39500 0.33060 -0.07300
C 	C 	0.68260 0.42250 0.27040 -0.12900
C 	C 	0.75580 0.53100 0.23040 -0.08400
C 	C 	0.82350 0.62150 0.28950 -0.11600
C 	C 	0.90240 0.58450 0.34800 -0.09000
C 	C 	0.83290 0.48120 0.39570 -0.13400
C 	C 	0.05770 0.90490 0.19360 0.41000
C 	C 	0.19220 0.06400 0.33860 0.33900
C 	C 	0.23550 0.16670 0.17270 0.38300
C 	C 	0.50230 0.16900 0.10350 0.35600
C 	C 	0.25570 0.99290 0.03340 0.39800
C 	C 	0.20730 0.78230 0.14010 0.32600
C 	C 	0.26630 0.89500 0.16940 -0.07200
C 	C 	0.18260 0.92250 0.22960 -0.13200
C 	C 	0.25580 0.03100 0.26960 -0.08200
C 	C 	0.32350 0.12150 0.21050 -0.11900
C 	C 	0.40240 0.08450 0.15200 -0.08500
C 	C 	0.33290 0.98120 0.10430 -0.13500
C 	C 	0.44230 0.59510 0.69360 0.39600
C 	C 	0.30780 0.43600 0.83860 0.34900
C 	C 	0.26450 0.33330 0.67270 0.38200
C 	C 	0.99770 0.33100 0.60350 0.36000
C 	C 	0.24430 0.50710 0.53340 0.40500
C 	C 	0.29270 0.71770 0.64010 0.32600
C 	C 	0.23370 0.60500 0.66940 -0.07300
C 	C 	0.31740 0.57750 0.72960 -0.12900
C 	C 	0.24420 0.46900 0.76960 -0.08400
C 	C 	0.17650 0.37850 0.71050 -0.11600
C 	C 	0.09760 0.41550 0.65200 -0.09000
C 	C 	0.16710 0.51880 0.60430 -0.13400
O 	O 	0.88310 0.00430 0.61550 -0.45400
O 	O 	0.77340 0.84120 0.64690 -0.32500
O 	O 	0.87640 0.88460 0.81730 -0.33800
O 	O 	0.72240 0.74430 0.86120 -0.47000
O 	O 	0.47390 0.73630 0.88500 -0.47000
O 	O 	0.43100 0.86300 0.94100 -0.42800
O 	O 	0.76660 0.92570 0.97150 -0.43200
O 	O 	0.77850 0.07850 0.02140 -0.49200
O 	O 	0.75680 0.24500 0.92560 -0.45600
O 	O 	0.86760 0.28240 0.81250 -0.29700
O 	O 	0.95810 0.10540 0.88210 -0.43700
O 	O 	0.02960 0.10550 0.75690 -0.46800
O 	O 	0.01760 0.93660 0.94090 -0.94600
O 	O 	0.61690 0.49570 0.11550 -0.46400
O 	O 	0.72660 0.65880 0.14690 -0.32800
O 	O 	0.62360 0.61540 0.31730 -0.33800
O 	O 	0.77760 0.75570 0.36120 -0.47200
O 	O 	0.02610 0.76370 0.38500 -0.46800
O 	O 	0.06900 0.63700 0.44100 -0.43000
O 	O 	0.73340 0.57430 0.47150 -0.43400
O 	O 	0.72150 0.42150 0.52140 -0.50000
O 	O 	0.74320 0.25500 0.42560 -0.45500
O 	O 	0.63240 0.21760 0.31250 -0.29700
O 	O 	0.54190 0.39460 0.38210 -0.43700
O 	O 	0.47040 0.39450 0.25690 -0.45600
O 	O 	0.48240 0.56340 0.44090 -0.96900
O 	O 	0.11690 0.99570 0.38450 -0.45400
O 	O 	0.22660 0.15880 0.35310 -0.32500
O 	O 	0.12360 0.11540 0.18270 -0.33800
O 	O 	0.27760 0.25570 0.13880 -0.47000
O 	O 	0.52610 0.26370 0.11500 -0.47000
O 	O 	0.56900 0.13700 0.05900 -0.42800
O 	O 	0.23340 0.07430 0.02850 -0.43200
O 	O 	0.22150 0.92150 0.97860 -0.49200
O 	O 	0.24320 0.75500 0.07440 -0.45600
O 	O 	0.13240 0.71760 0.18750 -0.29700
O 	O 	0.04190 0.89460 0.11790 -0.43700
O 	O 	0.97040 0.89450 0.24310 -0.46800
O 	O 	0.98240 0.06340 0.05910 -0.94600
O 	O 	0.38310 0.50430 0.88450 -0.46400
O 	O 	0.27340 0.34120 0.85310 -0.32800
O 	O 	0.37640 0.38460 0.68270 -0.33800
O 	O 	0.22240 0.24430 0.63880 -0.47200
O 	O 	0.97390 0.23630 0.61500 -0.46800
O 	O 	0.93100 0.36300 0.55900 -0.43000
O 	O 	0.26660 0.42570 0.52850 -0.43400
O 	O 	0.27850 0.57850 0.47860 -0.50000
O 	O 	0.25680 0.74500 0.57440 -0.45500
O 	O 	0.36760 0.78240 0.68750 -0.29700
O 	O 	0.45810 0.60540 0.61790 -0.43700
O 	O 	0.52960 0.60550 0.74310 -0.45600
O 	O 	0.51760 0.43660 0.55910 -0.96900
