data_crystal

_cell_length_a 13.36700
_cell_length_b 13.85200
_cell_length_c 14.02300
_cell_angle_alpha 90.00000
_cell_angle_beta  91.61000
_cell_angle_gamma 90.00000

_symmetry_space_group_name_	'P 1'
_symmetry_space_group_name_H-M	'P 1'

loop_
_symmetry_equiv_pos_as_xyz
  x,y,z

loop_
_atom_site_label
_atom_site_type_symbol
_atom_site_fract_x
_atom_site_fract_y
_atom_site_fract_z
_atom_site_charge
Ba	Ba	0.03349 0.06976 0.23622 1.38500
Ba	Ba	0.96536 0.33780 0.04450 1.98100
Ba	Ba	0.46651 0.56976 0.26378 1.38000
Ba	Ba	0.53464 0.83780 0.45550 1.98300
Ba	Ba	0.96651 0.93024 0.76378 1.38500
Ba	Ba	0.03464 0.66220 0.95550 1.98100
Ba	Ba	0.53349 0.43024 0.73622 1.38000
Ba	Ba	0.46536 0.16220 0.54450 1.98300
Ti	Ti	0.87270 0.37720 0.47230 3.11700
Ti	Ti	0.58200 0.11110 0.11710 3.11900
Ti	Ti	0.62730 0.87720 0.02770 3.11600
Ti	Ti	0.91800 0.61110 0.38290 3.11900
Ti	Ti	0.12730 0.62280 0.52770 3.11700
Ti	Ti	0.41800 0.88890 0.88290 3.11900
Ti	Ti	0.37270 0.12280 0.97230 3.11600
Ti	Ti	0.08200 0.38890 0.61710 3.11900
C 	C 	0.95180 0.32000 0.29460 0.26300
C 	C 	0.84480 0.35000 0.26770 0.24000
C 	C 	0.79340 0.15200 0.10800 0.26100
C 	C 	0.74000 0.20900 0.02850 0.24900
C 	C 	0.03280 0.42450 0.81120 0.27400
C 	C 	0.04000 0.31700 0.80270 0.22000
C 	C 	0.22700 0.27300 0.00940 0.27200
C 	C 	0.18320 0.17600 0.04580 0.26400
C 	C 	0.54820 0.82000 0.20540 0.26600
C 	C 	0.65520 0.85000 0.23230 0.23900
C 	C 	0.70660 0.65200 0.39200 0.26000
C 	C 	0.76000 0.70900 0.47150 0.24800
C 	C 	0.46720 0.92450 0.68880 0.27500
C 	C 	0.46000 0.81700 0.69730 0.21900
C 	C 	0.27300 0.77300 0.49060 0.25900
C 	C 	0.31680 0.67600 0.45420 0.26500
C 	C 	0.04820 0.68000 0.70540 0.26300
C 	C 	0.15520 0.65000 0.73230 0.24000
C 	C 	0.20660 0.84800 0.89200 0.26100
C 	C 	0.26000 0.79100 0.97150 0.24900
C 	C 	0.96720 0.57550 0.18880 0.27400
C 	C 	0.96000 0.68300 0.19730 0.22000
C 	C 	0.77300 0.72700 0.99060 0.27200
C 	C 	0.81680 0.82400 0.95420 0.26400
C 	C 	0.45180 0.18000 0.79460 0.26600
C 	C 	0.34480 0.15000 0.76770 0.23900
C 	C 	0.29340 0.34800 0.60800 0.26000
C 	C 	0.24000 0.29100 0.52850 0.24800
C 	C 	0.53280 0.07550 0.31120 0.27500
C 	C 	0.54000 0.18300 0.30270 0.21900
C 	C 	0.72700 0.22700 0.50940 0.25900
C 	C 	0.68320 0.32400 0.54580 0.26500
O 	O 	0.45660 0.13910 0.07380 -1.31600
O 	O 	0.89390 0.50440 0.45180 -1.33500
O 	O 	0.79420 0.37300 0.33990 -0.61100
O 	O 	0.97450 0.32550 0.38420 -0.71700
O 	O 	0.81530 0.35070 0.18370 -0.38700
O 	O 	0.00990 0.28870 0.23550 -0.47200
O 	O 	0.88540 0.15210 0.11410 -0.47700
O 	O 	0.64320 0.20430 0.02990 -0.69600
O 	O 	0.78780 0.25760 0.97130 -0.43400
O 	O 	0.73300 0.10930 0.16280 -0.62800
O 	O 	0.01270 0.46640 0.88670 -0.53600
O 	O 	0.05110 0.46980 0.73330 -0.69800
O 	O 	0.01570 0.26260 0.86990 -0.42000
O 	O 	0.06850 0.28580 0.72310 -0.62900
O 	O 	0.31460 0.26570 0.97990 -0.64500
O 	O 	0.17580 0.34600 0.01650 -0.42600
O 	O 	0.24150 0.10250 0.03430 -0.71600
O 	O 	0.09910 0.17260 0.07790 -0.49300
O 	O 	0.04340 0.63910 0.42620 -1.31700
O 	O 	0.60610 0.00440 0.04820 -1.33200
O 	O 	0.70580 0.87300 0.16010 -0.61700
O 	O 	0.52550 0.82550 0.11580 -0.72200
O 	O 	0.68470 0.85070 0.31630 -0.38800
O 	O 	0.49010 0.78870 0.26450 -0.47700
O 	O 	0.61460 0.65210 0.38590 -0.47700
O 	O 	0.85680 0.70430 0.47010 -0.69800
O 	O 	0.71220 0.75760 0.52870 -0.43500
O 	O 	0.76700 0.60930 0.33720 -0.62900
O 	O 	0.48730 0.96640 0.61330 -0.53400
O 	O 	0.44890 0.96980 0.76670 -0.69600
O 	O 	0.48430 0.76260 0.63010 -0.41200
O 	O 	0.43150 0.78580 0.77690 -0.62600
O 	O 	0.18540 0.76570 0.52010 -0.63300
O 	O 	0.32420 0.84600 0.48350 -0.42800
O 	O 	0.25850 0.60250 0.46570 -0.72100
O 	O 	0.40090 0.67260 0.42210 -0.49600
O 	O 	0.54340 0.86090 0.92620 -1.31600
O 	O 	0.10610 0.49560 0.54820 -1.33500
O 	O 	0.20580 0.62700 0.66010 -0.61100
O 	O 	0.02550 0.67450 0.61580 -0.71700
O 	O 	0.18470 0.64930 0.81630 -0.38700
O 	O 	0.99010 0.71130 0.76450 -0.47200
O 	O 	0.11460 0.84790 0.88590 -0.47700
O 	O 	0.35680 0.79570 0.97010 -0.69600
O 	O 	0.21220 0.74240 0.02870 -0.43400
O 	O 	0.26700 0.89070 0.83720 -0.62800
O 	O 	0.98730 0.53360 0.11330 -0.53600
O 	O 	0.94890 0.53020 0.26670 -0.69800
O 	O 	0.98430 0.73740 0.13010 -0.42000
O 	O 	0.93150 0.71420 0.27690 -0.62900
O 	O 	0.68540 0.73430 0.02010 -0.64500
O 	O 	0.82420 0.65400 0.98350 -0.42600
O 	O 	0.75850 0.89750 0.96570 -0.71600
O 	O 	0.90090 0.82740 0.92210 -0.49300
O 	O 	0.95660 0.36090 0.57380 -1.31700
O 	O 	0.39390 0.99560 0.95180 -1.33200
O 	O 	0.29420 0.12700 0.83990 -0.61700
O 	O 	0.47450 0.17450 0.88420 -0.72200
O 	O 	0.31530 0.14930 0.68370 -0.38800
O 	O 	0.50990 0.21130 0.73550 -0.47700
O 	O 	0.38540 0.34790 0.61410 -0.47700
O 	O 	0.14320 0.29570 0.52990 -0.69800
O 	O 	0.28780 0.24240 0.47130 -0.43500
O 	O 	0.23300 0.39070 0.66280 -0.62900
O 	O 	0.51270 0.03360 0.38670 -0.53400
O 	O 	0.55110 0.03020 0.23330 -0.69600
O 	O 	0.51570 0.23740 0.36990 -0.41200
O 	O 	0.56850 0.21420 0.22310 -0.62600
O 	O 	0.81460 0.23430 0.47990 -0.63300
O 	O 	0.67580 0.15400 0.51650 -0.42800
O 	O 	0.74150 0.39750 0.53430 -0.72100
O 	O 	0.59910 0.32740 0.57790 -0.49600
