data_crystal

_cell_length_a 7.91720
_cell_length_b 20.38540
_cell_length_c 17.77680
_cell_angle_alpha 90.00000
_cell_angle_beta  90.00000
_cell_angle_gamma 90.00000

_symmetry_space_group_name_	'P 1'
_symmetry_space_group_name_H-M	'P 1'

loop_
_symmetry_equiv_pos_as_xyz
  x,y,z

loop_
_atom_site_label
_atom_site_type_symbol
_atom_site_fract_x
_atom_site_fract_y
_atom_site_fract_z
_atom_site_charge
Cu	Cu	0.33031 0.95139 0.89378 0.89700
Cu	Cu	0.66969 0.04861 0.89378 0.89700
Cu	Cu	0.83031 0.54861 0.10622 0.89800
Cu	Cu	0.16969 0.45139 0.10622 0.89800
Cu	Cu	0.66969 0.04861 0.10622 0.89800
Cu	Cu	0.33031 0.95139 0.10622 0.89800
Cu	Cu	0.16969 0.45139 0.89378 0.89600
Cu	Cu	0.83031 0.54861 0.89378 0.89600
P 	P 	0.27112 0.80065 0.84486 0.43700
P 	P 	0.72888 0.19935 0.84486 0.43700
P 	P 	0.77112 0.69935 0.15514 0.43700
P 	P 	0.22888 0.30065 0.15514 0.43700
P 	P 	0.72888 0.19935 0.15514 0.43700
P 	P 	0.27112 0.80065 0.15514 0.43700
P 	P 	0.22888 0.30065 0.84486 0.43700
P 	P 	0.77112 0.69935 0.84486 0.43700
P 	P 	0.11970 0.57155 -0.00000 0.42400
P 	P 	0.88030 0.42845 -0.00000 0.42400
P 	P 	0.61970 0.92845 -0.00000 0.42400
P 	P 	0.38030 0.07155 -0.00000 0.42400
H 	H 	0.02910 0.78970 0.81240 0.28500
H 	H 	0.19610 0.66580 0.88560 0.04900
H 	H 	0.26170 0.93330 0.61250 0.09800
H 	H 	0.07590 0.10010 0.70380 0.11100
H 	H 	0.10790 0.09200 0.56730 0.14200
H 	H 	0.96610 0.03970 0.56970 0.14900
H 	H 	0.30450 0.89700 0.73100 0.01200
H 	H 	0.20100 0.06800 0.81800 0.00600
H 	H 	0.97090 0.21030 0.81240 0.28500
H 	H 	0.80390 0.33420 0.88560 0.04900
H 	H 	0.73830 0.06670 0.61250 0.09800
H 	H 	0.92410 0.89990 0.70380 0.11100
H 	H 	0.89210 0.90800 0.56730 0.14200
H 	H 	0.03390 0.96030 0.56970 0.14900
H 	H 	0.69550 0.10300 0.73100 0.01200
H 	H 	0.79900 0.93200 0.81800 0.00600
H 	H 	0.52910 0.71030 0.18760 0.28500
H 	H 	0.69610 0.83420 0.11440 0.04800
H 	H 	0.76170 0.56670 0.38750 0.09800
H 	H 	0.57590 0.39990 0.29620 0.11100
H 	H 	0.60790 0.40800 0.43270 0.14300
H 	H 	0.46610 0.46030 0.43030 0.15200
H 	H 	0.80450 0.60300 0.26900 0.01200
H 	H 	0.70100 0.43200 0.18200 0.00700
H 	H 	0.47090 0.28970 0.18760 0.28500
H 	H 	0.30390 0.16580 0.11440 0.04800
H 	H 	0.23830 0.43330 0.38750 0.09800
H 	H 	0.42410 0.60010 0.29620 0.11100
H 	H 	0.39210 0.59200 0.43270 0.14300
H 	H 	0.53390 0.53970 0.43030 0.15200
H 	H 	0.19550 0.39700 0.26900 0.01200
H 	H 	0.29900 0.56800 0.18200 0.00700
H 	H 	0.97090 0.21030 0.18760 0.28500
H 	H 	0.80390 0.33420 0.11440 0.04800
H 	H 	0.73830 0.06670 0.38750 0.09800
H 	H 	0.92410 0.89990 0.29620 0.11100
H 	H 	0.89210 0.90800 0.43270 0.14200
H 	H 	0.03390 0.96030 0.43030 0.14900
H 	H 	0.69550 0.10300 0.26900 0.01200
H 	H 	0.79900 0.93200 0.18200 0.00700
H 	H 	0.02910 0.78970 0.18760 0.28500
H 	H 	0.19610 0.66580 0.11440 0.04800
H 	H 	0.26170 0.93330 0.38750 0.09800
H 	H 	0.07590 0.10010 0.29620 0.11100
H 	H 	0.10790 0.09200 0.43270 0.14200
H 	H 	0.96610 0.03970 0.43030 0.14900
H 	H 	0.30450 0.89700 0.26900 0.01200
H 	H 	0.20100 0.06800 0.18200 0.00700
H 	H 	0.47090 0.28970 0.81240 0.28500
H 	H 	0.30390 0.16580 0.88560 0.05000
H 	H 	0.23830 0.43330 0.61250 0.09800
H 	H 	0.42410 0.60010 0.70380 0.11100
H 	H 	0.39210 0.59200 0.56730 0.14300
H 	H 	0.53390 0.53970 0.56970 0.15200
H 	H 	0.19550 0.39700 0.73100 0.01200
H 	H 	0.29900 0.56800 0.81800 0.00600
H 	H 	0.52910 0.71030 0.81240 0.28500
H 	H 	0.69610 0.83420 0.88560 0.05000
H 	H 	0.76170 0.56670 0.61250 0.09800
H 	H 	0.57590 0.39990 0.70380 0.11100
H 	H 	0.60790 0.40800 0.56730 0.14300
H 	H 	0.46610 0.46030 0.56970 0.15200
H 	H 	0.80450 0.60300 0.73100 0.01200
H 	H 	0.70100 0.43200 0.81800 0.00600
H 	H 	0.30900 0.82600 -0.00000 0.03200
H 	H 	0.69100 0.17400 -0.00000 0.03200
H 	H 	0.80900 0.67400 -0.00000 0.03200
H 	H 	0.19100 0.32600 -0.00000 0.03200
C 	C 	0.24840 0.75590 0.93190 -0.08500
C 	C 	0.20830 0.68900 0.93230 0.00400
C 	C 	0.23500 0.96090 0.65460 -0.22500
C 	C 	0.15660 0.02030 0.64410 0.20100
C 	C 	0.14000 0.06020 0.70670 -0.19500
C 	C 	0.08600 0.04570 0.57020 -0.37000
C 	C 	0.28300 0.94270 0.72260 0.11300
C 	C 	0.22050 0.04260 0.77600 0.09100
C 	C 	0.75160 0.24410 0.93190 -0.08500
C 	C 	0.79170 0.31100 0.93230 0.00400
C 	C 	0.76500 0.03910 0.65460 -0.22500
C 	C 	0.84340 0.97970 0.64410 0.20100
C 	C 	0.86000 0.93980 0.70670 -0.19500
C 	C 	0.91400 0.95430 0.57020 -0.37000
C 	C 	0.71700 0.05730 0.72260 0.11300
C 	C 	0.77950 0.95740 0.77600 0.09100
C 	C 	0.74840 0.74410 0.06810 -0.08000
C 	C 	0.70830 0.81100 0.06770 0.01100
C 	C 	0.73500 0.53910 0.34540 -0.22400
C 	C 	0.65660 0.47970 0.35590 0.20000
C 	C 	0.64000 0.43980 0.29330 -0.19500
C 	C 	0.58600 0.45430 0.42980 -0.37300
C 	C 	0.78300 0.55730 0.27740 0.11200
C 	C 	0.72050 0.45740 0.22400 0.09000
C 	C 	0.25160 0.25590 0.06810 -0.08000
C 	C 	0.29170 0.18900 0.06770 0.01100
C 	C 	0.26500 0.46090 0.34540 -0.22400
C 	C 	0.34340 0.52030 0.35590 0.20000
C 	C 	0.36000 0.56020 0.29330 -0.19500
C 	C 	0.41400 0.54570 0.42980 -0.37300
C 	C 	0.21700 0.44270 0.27740 0.11200
C 	C 	0.27950 0.54260 0.22400 0.09000
C 	C 	0.75160 0.24410 0.06810 -0.08000
C 	C 	0.79170 0.31100 0.06770 0.01100
C 	C 	0.76500 0.03910 0.34540 -0.22500
C 	C 	0.84340 0.97970 0.35590 0.20100
C 	C 	0.86000 0.93980 0.29330 -0.19500
C 	C 	0.91400 0.95430 0.42980 -0.37000
C 	C 	0.71700 0.05730 0.27740 0.11300
C 	C 	0.77950 0.95740 0.22400 0.09100
C 	C 	0.24840 0.75590 0.06810 -0.08000
C 	C 	0.20830 0.68900 0.06770 0.01100
C 	C 	0.23500 0.96090 0.34540 -0.22500
C 	C 	0.15660 0.02030 0.35590 0.20100
C 	C 	0.14000 0.06020 0.29330 -0.19500
C 	C 	0.08600 0.04570 0.42980 -0.37000
C 	C 	0.28300 0.94270 0.27740 0.11300
C 	C 	0.22050 0.04260 0.22400 0.09100
C 	C 	0.25160 0.25590 0.93190 -0.08500
C 	C 	0.29170 0.18900 0.93230 0.00400
C 	C 	0.26500 0.46090 0.65460 -0.22400
C 	C 	0.34340 0.52030 0.64410 0.20000
C 	C 	0.36000 0.56020 0.70670 -0.19500
C 	C 	0.41400 0.54570 0.57020 -0.37300
C 	C 	0.21700 0.44270 0.72260 0.11200
C 	C 	0.27950 0.54260 0.77600 0.09000
C 	C 	0.74840 0.74410 0.93190 -0.08500
C 	C 	0.70830 0.81100 0.93230 0.00400
C 	C 	0.73500 0.53910 0.65460 -0.22400
C 	C 	0.65660 0.47970 0.64410 0.20000
C 	C 	0.64000 0.43980 0.70670 -0.19500
C 	C 	0.58600 0.45430 0.57020 -0.37300
C 	C 	0.78300 0.55730 0.72260 0.11200
C 	C 	0.72050 0.45740 0.77600 0.09000
C 	C 	0.26800 0.78850 -0.00000 0.01300
C 	C 	0.18670 0.65610 -0.00000 -0.06300
C 	C 	0.73200 0.21150 -0.00000 0.01300
C 	C 	0.81330 0.34390 -0.00000 -0.06300
C 	C 	0.76800 0.71150 -0.00000 0.01300
C 	C 	0.68670 0.84390 -0.00000 -0.06200
C 	C 	0.23200 0.28850 -0.00000 0.01300
C 	C 	0.31330 0.15610 -0.00000 -0.06200
C 	C 	0.16100 0.01210 0.50000 0.09300
C 	C 	0.83900 0.98790 0.50000 0.09300
C 	C 	0.66100 0.48790 0.50000 0.09300
C 	C 	0.33900 0.51210 0.50000 0.09300
N 	N 	0.28960 0.98300 0.78750 -0.23100
N 	N 	0.71040 0.01700 0.78750 -0.23100
N 	N 	0.78960 0.51700 0.21250 -0.23000
N 	N 	0.21040 0.48300 0.21250 -0.23000
N 	N 	0.71040 0.01700 0.21250 -0.23100
N 	N 	0.28960 0.98300 0.21250 -0.23100
N 	N 	0.21040 0.48300 0.78750 -0.23000
N 	N 	0.78960 0.51700 0.78750 -0.23000
O 	O 	0.36920 0.86286 0.86097 -0.38000
O 	O 	0.08840 0.82290 0.82165 -0.44800
O 	O 	0.34950 0.75635 0.78660 -0.26000
O 	O 	0.18300 0.54129 0.07230 -0.42700
O 	O 	0.63080 0.13714 0.86097 -0.38000
O 	O 	0.91160 0.17710 0.82165 -0.44800
O 	O 	0.65050 0.24365 0.78660 -0.26000
O 	O 	0.81700 0.45871 0.07230 -0.42700
O 	O 	0.86920 0.63714 0.13903 -0.37800
O 	O 	0.58840 0.67710 0.17835 -0.44700
O 	O 	0.84950 0.74365 0.21340 -0.26000
O 	O 	0.68300 0.95871 0.92770 -0.43200
O 	O 	0.13080 0.36286 0.13903 -0.37800
O 	O 	0.41160 0.32290 0.17835 -0.44700
O 	O 	0.15050 0.25635 0.21340 -0.26000
O 	O 	0.31700 0.04129 0.92770 -0.43200
O 	O 	0.63080 0.13714 0.13903 -0.37800
O 	O 	0.91160 0.17710 0.17835 -0.44700
O 	O 	0.65050 0.24365 0.21340 -0.26000
O 	O 	0.81700 0.45871 0.92770 -0.43200
O 	O 	0.36920 0.86286 0.13903 -0.37800
O 	O 	0.08840 0.82290 0.17835 -0.44700
O 	O 	0.34950 0.75635 0.21340 -0.26000
O 	O 	0.18300 0.54129 0.92770 -0.43200
O 	O 	0.13080 0.36286 0.86097 -0.38000
O 	O 	0.41160 0.32290 0.82165 -0.44800
O 	O 	0.15050 0.25635 0.78660 -0.26000
O 	O 	0.31700 0.04129 0.07230 -0.42600
O 	O 	0.86920 0.63714 0.86097 -0.38000
O 	O 	0.58840 0.67710 0.82165 -0.44800
O 	O 	0.84950 0.74365 0.78660 -0.26000
O 	O 	0.68300 0.95871 0.07230 -0.42600
O 	O 	0.92440 0.57007 -0.00000 -0.45900
O 	O 	0.07560 0.42993 -0.00000 -0.45900
O 	O 	0.42440 0.92993 -0.00000 -0.45900
O 	O 	0.57560 0.07007 -0.00000 -0.45900
