data_crystal

_cell_length_a 15.51170
_cell_length_b 25.52730
_cell_length_c 17.10050
_cell_angle_alpha 98.29800
_cell_angle_beta  90.00000
_cell_angle_gamma 90.00000

_symmetry_space_group_name_	'P 1'
_symmetry_space_group_name_H-M	'P 1'

loop_
_symmetry_equiv_pos_as_xyz
  x,y,z

loop_
_atom_site_label
_atom_site_type_symbol
_atom_site_fract_x
_atom_site_fract_y
_atom_site_fract_z
_atom_site_charge
Sm	Sm	0.82514 0.74935 0.68543 2.07900
Sm	Sm	0.29453 0.24954 0.53682 2.07200
Sm	Sm	0.32514 0.25065 0.81457 2.07900
Sm	Sm	0.79453 0.75046 0.96318 2.06900
Sm	Sm	0.17486 0.25065 0.31457 2.07900
Sm	Sm	0.70547 0.75046 0.46318 2.07200
Sm	Sm	0.67486 0.74935 0.18543 2.07900
Sm	Sm	0.20547 0.24954 0.03682 2.06900
H 	H 	0.99940 0.88640 0.61930 0.00600
H 	H 	0.89660 0.97190 0.41630 0.08400
H 	H 	0.83780 0.89140 0.43680 0.01500
H 	H 	0.93070 0.63470 0.60880 -0.03200
H 	H 	0.93390 0.50910 0.38390 0.09200
H 	H 	0.86130 0.58840 0.38300 -0.00600
H 	H 	0.58580 0.85940 0.54660 -0.02400
H 	H 	0.57120 0.98200 0.77460 0.08100
H 	H 	0.65710 0.90730 0.77150 0.00900
H 	H 	0.35590 0.07430 0.55200 0.01300
H 	H 	0.52570 0.04910 0.76680 0.08900
H 	H 	0.46020 0.13030 0.76260 -0.01200
H 	H 	0.40540 0.38180 0.56590 0.00200
H 	H 	0.46960 0.50490 0.78530 0.08900
H 	H 	0.41200 0.42330 0.80160 -0.00000
H 	H 	0.66240 0.62150 0.73080 0.01400
H 	H 	0.59090 0.54550 0.75420 0.07700
H 	H 	0.52310 0.62350 0.53310 0.01200
H 	H 	0.49940 0.11360 0.88070 0.00700
H 	H 	0.39660 0.02810 0.08370 0.08400
H 	H 	0.33780 0.10860 0.06320 0.01500
H 	H 	0.43070 0.36530 0.89120 -0.03200
H 	H 	0.43390 0.49090 0.11610 0.09100
H 	H 	0.36130 0.41160 0.11700 -0.00700
H 	H 	0.08580 0.14060 0.95340 -0.02300
H 	H 	0.07120 0.01800 0.72540 0.08200
H 	H 	0.15710 0.09270 0.72850 0.00900
H 	H 	0.85590 0.92570 0.94800 0.01200
H 	H 	0.02570 0.95090 0.73320 0.09000
H 	H 	0.96020 0.86970 0.73740 -0.01300
H 	H 	0.90540 0.61820 0.93410 0.00100
H 	H 	0.96960 0.49510 0.71470 0.08800
H 	H 	0.91200 0.57670 0.69840 -0.00000
H 	H 	0.16240 0.37850 0.76920 0.01300
H 	H 	0.09090 0.45450 0.74580 0.07800
H 	H 	0.02310 0.37650 0.96690 0.01200
H 	H 	0.00060 0.11360 0.38070 0.00600
H 	H 	0.10340 0.02810 0.58370 0.08400
H 	H 	0.16220 0.10860 0.56320 0.01500
H 	H 	0.06930 0.36530 0.39120 -0.03200
H 	H 	0.06610 0.49090 0.61610 0.09200
H 	H 	0.13870 0.41160 0.61700 -0.00600
H 	H 	0.41420 0.14060 0.45340 -0.02400
H 	H 	0.42880 0.01800 0.22540 0.08100
H 	H 	0.34290 0.09270 0.22850 0.00900
H 	H 	0.64410 0.92570 0.44800 0.01300
H 	H 	0.47430 0.95090 0.23320 0.08900
H 	H 	0.53980 0.86970 0.23740 -0.01200
H 	H 	0.59460 0.61820 0.43410 0.00200
H 	H 	0.53040 0.49510 0.21470 0.08900
H 	H 	0.58800 0.57670 0.19840 -0.00000
H 	H 	0.33760 0.37850 0.26920 0.01400
H 	H 	0.40910 0.45450 0.24580 0.07700
H 	H 	0.47690 0.37650 0.46690 0.01200
H 	H 	0.50060 0.88640 0.11930 0.00700
H 	H 	0.60340 0.97190 0.91630 0.08400
H 	H 	0.66220 0.89140 0.93680 0.01500
H 	H 	0.56930 0.63470 0.10880 -0.03200
H 	H 	0.56610 0.50910 0.88390 0.09100
H 	H 	0.63870 0.58840 0.88300 -0.00700
H 	H 	0.91420 0.85940 0.04660 -0.02300
H 	H 	0.92880 0.98200 0.27460 0.08200
H 	H 	0.84290 0.90730 0.27150 0.00900
H 	H 	0.14410 0.07430 0.05200 0.01200
H 	H 	0.97430 0.04910 0.26680 0.09000
H 	H 	0.03980 0.13030 0.26260 -0.01300
H 	H 	0.09460 0.38180 0.06590 0.00100
H 	H 	0.03040 0.50490 0.28530 0.08800
H 	H 	0.08800 0.42330 0.30160 -0.00000
H 	H 	0.83760 0.62150 0.23080 0.01300
H 	H 	0.90910 0.54550 0.25420 0.07800
H 	H 	0.97690 0.62350 0.03310 0.01200
C 	C 	0.91280 0.88090 0.53010 -0.16600
C 	C 	0.97880 0.90360 0.57860 0.09000
C 	C 	0.98320 0.97740 0.50550 0.07000
C 	C 	0.91720 0.95480 0.45700 -0.13000
C 	C 	0.88200 0.90650 0.46930 0.07600
C 	C 	0.87190 0.82740 0.54210 0.47600
C 	C 	0.88880 0.61950 0.49590 -0.26600
C 	C 	0.93130 0.60960 0.56370 0.14900
C 	C 	0.97580 0.52440 0.49690 0.08200
C 	C 	0.93330 0.53430 0.42900 -0.16700
C 	C 	0.88980 0.58180 0.42850 0.13600
C 	C 	0.83910 0.66600 0.49540 0.55400
C 	C 	0.63000 0.87590 0.65880 -0.20100
C 	C 	0.58290 0.88390 0.59230 0.11800
C 	C 	0.52700 0.96540 0.66250 0.07500
C 	C 	0.57410 0.95740 0.72890 -0.14500
C 	C 	0.62560 0.91270 0.72710 0.09700
C 	C 	0.68660 0.82900 0.65910 0.47800
C 	C 	0.40150 0.11040 0.65690 -0.21700
C 	C 	0.38990 0.06930 0.59500 0.11200
C 	C 	0.48010 0.01300 0.66190 0.08500
C 	C 	0.49170 0.05410 0.72370 -0.16300
C 	C 	0.45240 0.10280 0.72120 0.12400
C 	C 	0.36310 0.16210 0.64720 0.52500
C 	C 	0.40300 0.39450 0.68540 -0.24300
C 	C 	0.41830 0.40650 0.60990 0.12800
C 	C 	0.47200 0.49220 0.66580 0.08700
C 	C 	0.45670 0.48020 0.74130 -0.16500
C 	C 	0.42220 0.43130 0.75110 0.12600
C 	C 	0.36970 0.34170 0.69530 0.57800
C 	C 	0.59980 0.63010 0.62970 -0.17100
C 	C 	0.62010 0.60670 0.69590 0.08200
C 	C 	0.57730 0.56110 0.70990 -0.13400
C 	C 	0.51410 0.53900 0.65770 0.06900
C 	C 	0.53670 0.60790 0.57740 0.09700
C 	C 	0.65280 0.67940 0.61530 0.50600
C 	C 	0.41280 0.11910 0.96990 -0.16500
C 	C 	0.47880 0.09640 0.92140 0.09000
C 	C 	0.48320 0.02260 0.99450 0.07100
C 	C 	0.41720 0.04520 0.04300 -0.13100
C 	C 	0.38200 0.09350 0.03070 0.07500
C 	C 	0.37190 0.17260 0.95790 0.47800
C 	C 	0.38880 0.38050 0.00410 -0.26600
C 	C 	0.43130 0.39040 0.93630 0.15000
C 	C 	0.47580 0.47560 0.00310 0.08300
C 	C 	0.43330 0.46570 0.07100 -0.16700
C 	C 	0.38980 0.41820 0.07150 0.13600
C 	C 	0.33910 0.33400 0.00460 0.55200
C 	C 	0.13000 0.12410 0.84120 -0.20100
C 	C 	0.08290 0.11610 0.90770 0.11900
C 	C 	0.02700 0.03460 0.83750 0.07800
C 	C 	0.07410 0.04260 0.77110 -0.14700
C 	C 	0.12560 0.08730 0.77290 0.09800
C 	C 	0.18660 0.17100 0.84090 0.47800
C 	C 	0.90150 0.88960 0.84310 -0.21800
C 	C 	0.88990 0.93070 0.90500 0.11200
C 	C 	0.98010 0.98700 0.83810 0.08200
C 	C 	0.99170 0.94590 0.77630 -0.16400
C 	C 	0.95240 0.89720 0.77880 0.12500
C 	C 	0.86310 0.83790 0.85280 0.52500
C 	C 	0.90300 0.60550 0.81460 -0.24300
C 	C 	0.91830 0.59350 0.89010 0.12800
C 	C 	0.97200 0.50780 0.83420 0.08400
C 	C 	0.95670 0.51980 0.75870 -0.16400
C 	C 	0.92220 0.56870 0.74890 0.12500
C 	C 	0.86970 0.65830 0.80470 0.57700
C 	C 	0.09980 0.36990 0.87030 -0.17200
C 	C 	0.12010 0.39330 0.80410 0.08400
C 	C 	0.07730 0.43890 0.79010 -0.13600
C 	C 	0.01410 0.46100 0.84230 0.07300
C 	C 	0.03670 0.39210 0.92260 0.10000
C 	C 	0.15280 0.32060 0.88470 0.50600
C 	C 	0.08720 0.11910 0.46990 -0.16600
C 	C 	0.02120 0.09640 0.42140 0.09000
C 	C 	0.01680 0.02260 0.49450 0.07000
C 	C 	0.08280 0.04520 0.54300 -0.13000
C 	C 	0.11800 0.09350 0.53070 0.07600
C 	C 	0.12810 0.17260 0.45790 0.47600
C 	C 	0.11120 0.38050 0.50410 -0.26600
C 	C 	0.06870 0.39040 0.43630 0.14900
C 	C 	0.02420 0.47560 0.50310 0.08200
C 	C 	0.06670 0.46570 0.57100 -0.16700
C 	C 	0.11020 0.41820 0.57150 0.13600
C 	C 	0.16090 0.33400 0.50460 0.55400
C 	C 	0.37000 0.12410 0.34120 -0.20100
C 	C 	0.41710 0.11610 0.40770 0.11800
C 	C 	0.47300 0.03460 0.33750 0.07500
C 	C 	0.42590 0.04260 0.27110 -0.14500
C 	C 	0.37440 0.08730 0.27290 0.09700
C 	C 	0.31340 0.17100 0.34090 0.47800
C 	C 	0.59850 0.88960 0.34310 -0.21700
C 	C 	0.61010 0.93070 0.40500 0.11200
C 	C 	0.51990 0.98700 0.33810 0.08500
C 	C 	0.50830 0.94590 0.27630 -0.16300
C 	C 	0.54760 0.89720 0.27880 0.12400
C 	C 	0.63690 0.83790 0.35280 0.52500
C 	C 	0.59700 0.60550 0.31460 -0.24300
C 	C 	0.58170 0.59350 0.39010 0.12800
C 	C 	0.52800 0.50780 0.33420 0.08700
C 	C 	0.54330 0.51980 0.25870 -0.16500
C 	C 	0.57780 0.56870 0.24890 0.12600
C 	C 	0.63030 0.65830 0.30470 0.57800
C 	C 	0.40020 0.36990 0.37030 -0.17100
C 	C 	0.37990 0.39330 0.30410 0.08200
C 	C 	0.42270 0.43890 0.29010 -0.13400
C 	C 	0.48590 0.46100 0.34230 0.06900
C 	C 	0.46330 0.39210 0.42260 0.09700
C 	C 	0.34720 0.32060 0.38470 0.50600
C 	C 	0.58720 0.88090 0.03010 -0.16500
C 	C 	0.52120 0.90360 0.07860 0.09000
C 	C 	0.51680 0.97740 0.00550 0.07100
C 	C 	0.58280 0.95480 0.95700 -0.13100
C 	C 	0.61800 0.90650 0.96930 0.07500
C 	C 	0.62810 0.82740 0.04210 0.47800
C 	C 	0.61120 0.61950 0.99590 -0.26600
C 	C 	0.56870 0.60960 0.06370 0.15000
C 	C 	0.52420 0.52440 0.99690 0.08300
C 	C 	0.56670 0.53430 0.92900 -0.16700
C 	C 	0.61020 0.58180 0.92850 0.13600
C 	C 	0.66090 0.66600 0.99540 0.55200
C 	C 	0.87000 0.87590 0.15880 -0.20100
C 	C 	0.91710 0.88390 0.09230 0.11900
C 	C 	0.97300 0.96540 0.16250 0.07800
C 	C 	0.92590 0.95740 0.22890 -0.14700
C 	C 	0.87440 0.91270 0.22710 0.09800
C 	C 	0.81340 0.82900 0.15910 0.47800
C 	C 	0.09850 0.11040 0.15690 -0.21800
C 	C 	0.11010 0.06930 0.09500 0.11200
C 	C 	0.01990 0.01300 0.16190 0.08200
C 	C 	0.00830 0.05410 0.22370 -0.16400
C 	C 	0.04760 0.10280 0.22120 0.12500
C 	C 	0.13690 0.16210 0.14720 0.52500
C 	C 	0.09700 0.39450 0.18540 -0.24300
C 	C 	0.08170 0.40650 0.10990 0.12800
C 	C 	0.02800 0.49220 0.16580 0.08400
C 	C 	0.04330 0.48020 0.24130 -0.16400
C 	C 	0.07780 0.43130 0.25110 0.12500
C 	C 	0.13030 0.34170 0.19530 0.57700
C 	C 	0.90020 0.63010 0.12970 -0.17200
C 	C 	0.87990 0.60670 0.19590 0.08400
C 	C 	0.92270 0.56110 0.20990 -0.13600
C 	C 	0.98590 0.53900 0.15770 0.07300
C 	C 	0.96330 0.60790 0.07740 0.10000
C 	C 	0.84720 0.67940 0.11530 0.50600
N 	N 	0.01400 0.95180 0.56630 -0.13200
N 	N 	0.97490 0.56200 0.56420 -0.14400
N 	N 	0.53140 0.92870 0.59420 -0.12700
N 	N 	0.42920 0.02060 0.59750 -0.12200
N 	N 	0.45280 0.45540 0.60010 -0.12600
N 	N 	0.49380 0.56230 0.59150 -0.11600
N 	N 	0.51400 0.04820 0.93370 -0.13200
N 	N 	0.47490 0.43800 0.93580 -0.14400
N 	N 	0.03140 0.07130 0.90580 -0.12600
N 	N 	0.92920 0.97940 0.90250 -0.12200
N 	N 	0.95280 0.54460 0.89990 -0.12600
N 	N 	0.99380 0.43770 0.90850 -0.11900
N 	N 	0.98600 0.04820 0.43370 -0.13200
N 	N 	0.02510 0.43800 0.43580 -0.14400
N 	N 	0.46860 0.07130 0.40580 -0.12700
N 	N 	0.57080 0.97940 0.40250 -0.12200
N 	N 	0.54720 0.54460 0.39990 -0.12600
N 	N 	0.50620 0.43770 0.40850 -0.11600
N 	N 	0.48600 0.95180 0.06630 -0.13200
N 	N 	0.52510 0.56200 0.06420 -0.14400
N 	N 	0.96860 0.92870 0.09420 -0.12600
N 	N 	0.07080 0.02060 0.09750 -0.12200
N 	N 	0.04720 0.45540 0.10010 -0.12600
N 	N 	0.00620 0.56230 0.09150 -0.11900
O 	O 	0.83570 0.69840 0.55760 -0.60300
O 	O 	0.72470 0.82180 0.71970 -0.50900
O 	O 	0.69500 0.70090 0.67090 -0.55300
O 	O 	0.88370 0.81470 0.61160 -0.51200
O 	O 	0.38200 0.19810 0.70290 -0.59000
O 	O 	0.35190 0.33210 0.76150 -0.56100
O 	O 	0.32230 0.16800 0.58760 -0.55200
O 	O 	0.69550 0.79920 0.59310 -0.57800
O 	O 	0.83450 0.80040 0.48690 -0.53500
O 	O 	0.80070 0.67460 0.43600 -0.52600
O 	O 	0.64470 0.68950 0.54580 -0.51900
O 	O 	0.36050 0.30900 0.63550 -0.60600
O 	O 	0.33570 0.30160 0.94240 -0.60200
O 	O 	0.22470 0.17820 0.78030 -0.50900
O 	O 	0.19500 0.29910 0.82910 -0.55300
O 	O 	0.38370 0.18530 0.88840 -0.51200
O 	O 	0.88200 0.80190 0.79710 -0.59000
O 	O 	0.85190 0.66790 0.73850 -0.56100
O 	O 	0.82230 0.83200 0.91240 -0.55200
O 	O 	0.19550 0.20080 0.90690 -0.57700
O 	O 	0.33450 0.19960 0.01310 -0.53600
O 	O 	0.30070 0.32540 0.06400 -0.52600
O 	O 	0.14470 0.31050 0.95420 -0.51800
O 	O 	0.86050 0.69100 0.86450 -0.60600
O 	O 	0.16430 0.30160 0.44240 -0.60300
O 	O 	0.27530 0.17820 0.28030 -0.50900
O 	O 	0.30500 0.29910 0.32910 -0.55300
O 	O 	0.11630 0.18530 0.38840 -0.51200
O 	O 	0.61800 0.80190 0.29710 -0.59000
O 	O 	0.64810 0.66790 0.23850 -0.56100
O 	O 	0.67770 0.83200 0.41240 -0.55200
O 	O 	0.30450 0.20080 0.40690 -0.57800
O 	O 	0.16550 0.19960 0.51310 -0.53500
O 	O 	0.19930 0.32540 0.56400 -0.52600
O 	O 	0.35530 0.31050 0.45420 -0.51900
O 	O 	0.63950 0.69100 0.36450 -0.60600
O 	O 	0.66430 0.69840 0.05760 -0.60200
O 	O 	0.77530 0.82180 0.21970 -0.50900
O 	O 	0.80500 0.70090 0.17090 -0.55300
O 	O 	0.61630 0.81470 0.11160 -0.51200
O 	O 	0.11800 0.19810 0.20290 -0.59000
O 	O 	0.14810 0.33210 0.26150 -0.56100
O 	O 	0.17770 0.16800 0.08760 -0.55200
O 	O 	0.80450 0.79920 0.09310 -0.57700
O 	O 	0.66550 0.80040 0.98690 -0.53600
O 	O 	0.69930 0.67460 0.93600 -0.52600
O 	O 	0.85530 0.68950 0.04580 -0.51800
O 	O 	0.13950 0.30900 0.13550 -0.60600
