data_crystal

_cell_length_a 9.57740
_cell_length_b 9.71820
_cell_length_c 25.39600
_cell_angle_alpha 90.00000
_cell_angle_beta  90.00000
_cell_angle_gamma 119.52200

_symmetry_space_group_name_	'P 1'
_symmetry_space_group_name_H-M	'P 1'

loop_
_symmetry_equiv_pos_as_xyz
  x,y,z

loop_
_atom_site_label
_atom_site_type_symbol
_atom_site_fract_x
_atom_site_fract_y
_atom_site_fract_z
_atom_site_charge
Cd	Cd	0.93551 0.82870 0.39211 1.23700
Cd	Cd	0.06449 0.17130 0.89211 1.21700
Cd	Cd	0.89319 0.82870 0.10789 1.23900
Cd	Cd	0.10681 0.17130 0.60789 1.21500
Cd	Cd	0.23220 0.00000 0.50000 1.22300
Cd	Cd	0.76780 0.00000 -0.00000 1.21300
H 	H 	0.19060 0.58100 0.47960 0.09900
H 	H 	0.09280 0.40620 0.38220 0.03700
H 	H 	0.98920 0.35340 0.43380 0.00500
H 	H 	0.17540 0.30980 0.47560 0.11500
H 	H 	0.36430 0.42220 0.38070 -0.00200
H 	H 	0.41630 0.36040 0.42940 -0.01600
H 	H 	0.45790 0.57480 0.47660 0.15500
H 	H 	0.35930 0.67960 0.38450 0.02800
H 	H 	0.41140 0.77420 0.43750 0.03900
H 	H 	0.11330 0.03340 0.28620 -0.06700
H 	H 	0.16470 0.90420 0.29480 -0.00400
H 	H 	0.85260 0.99260 0.29990 0.10400
H 	H 	0.70780 0.82240 0.28970 0.08500
H 	H 	0.89890 0.60040 0.28730 0.05300
H 	H 	0.73510 0.59660 0.29650 0.05400
H 	H 	0.80940 0.41900 0.97960 0.10700
H 	H 	0.90720 0.59380 0.88220 0.05300
H 	H 	0.01080 0.64660 0.93380 0.04300
H 	H 	0.82460 0.69020 0.97560 0.12300
H 	H 	0.63570 0.57780 0.88070 0.00500
H 	H 	0.58370 0.63960 0.92940 -0.00200
H 	H 	0.54210 0.42520 0.97660 0.16600
H 	H 	0.64070 0.32040 0.88450 0.01200
H 	H 	0.58860 0.22580 0.93750 0.01200
H 	H 	0.88670 0.96660 0.78620 0.14100
H 	H 	0.83530 0.09580 0.79480 0.06900
H 	H 	0.14740 0.00740 0.79990 0.00300
H 	H 	0.29220 0.17760 0.78970 0.03100
H 	H 	0.10110 0.39960 0.78730 0.06600
H 	H 	0.26490 0.40340 0.79650 0.06200
H 	H 	0.39040 0.58100 0.02040 0.08400
H 	H 	0.31340 0.40620 0.11780 0.04400
H 	H 	0.36420 0.35340 0.06620 0.01600
H 	H 	0.13440 0.30980 0.02440 0.09800
H 	H 	0.05790 0.42220 0.11930 0.00100
H 	H 	0.94410 0.36040 0.07060 -0.02200
H 	H 	0.11690 0.57480 0.02340 0.14400
H 	H 	0.32030 0.67960 0.11550 0.03100
H 	H 	0.36280 0.77420 0.06250 0.03600
H 	H 	0.92010 0.03340 0.21380 -0.05300
H 	H 	0.73950 0.90420 0.20520 0.00400
H 	H 	0.14000 0.99260 0.20010 0.11200
H 	H 	0.11460 0.82240 0.21030 0.08900
H 	H 	0.70150 0.60040 0.21270 0.05800
H 	H 	0.86150 0.59660 0.20350 0.05400
H 	H 	0.60960 0.41900 0.52040 0.09200
H 	H 	0.68660 0.59380 0.61780 0.05700
H 	H 	0.63580 0.64660 0.56620 0.04000
H 	H 	0.86560 0.69020 0.52440 0.10000
H 	H 	0.94210 0.57780 0.61930 0.01800
H 	H 	0.05590 0.63960 0.57060 0.01500
H 	H 	0.88310 0.42520 0.52340 0.14300
H 	H 	0.67970 0.32040 0.61550 0.01700
H 	H 	0.63720 0.22580 0.56250 0.01300
H 	H 	0.07990 0.96660 0.71380 0.15800
H 	H 	0.26050 0.09580 0.70520 0.07600
H 	H 	0.86000 0.00740 0.70010 0.00700
H 	H 	0.88540 0.17760 0.71030 0.03300
H 	H 	0.29850 0.39960 0.71270 0.06600
H 	H 	0.13850 0.40340 0.70350 0.06200
C 	C 	0.08520 0.66700 0.42220 0.33100
C 	C 	0.18990 0.58320 0.44100 -0.18900
C 	C 	0.09820 0.40620 0.42030 0.08500
C 	C 	0.18000 0.31920 0.43710 -0.30400
C 	C 	0.36280 0.41860 0.41890 0.16400
C 	C 	0.45870 0.58080 0.43800 -0.38600
C 	C 	0.35850 0.66880 0.42250 0.07500
C 	C 	0.09180 0.15800 0.41330 0.48300
C 	C 	0.61630 0.66040 0.42310 0.58200
C 	C 	0.08410 0.92440 0.27920 0.14400
C 	C 	0.81980 0.89360 0.28160 -0.16300
C 	C 	0.83910 0.65460 0.27960 -0.06400
C 	C 	0.91480 0.33300 0.92220 0.33300
C 	C 	0.81010 0.41680 0.94100 -0.19000
C 	C 	0.90180 0.59380 0.92030 0.04400
C 	C 	0.82000 0.68080 0.93710 -0.27500
C 	C 	0.63720 0.58140 0.91890 0.15700
C 	C 	0.54130 0.41920 0.93800 -0.40000
C 	C 	0.64150 0.33120 0.92250 0.09500
C 	C 	0.90820 0.84200 0.91330 0.45900
C 	C 	0.38370 0.33960 0.92310 0.59900
C 	C 	0.91590 0.07560 0.77920 -0.21100
C 	C 	0.18020 0.10640 0.78160 -0.01800
C 	C 	0.16090 0.34540 0.77960 -0.07000
C 	C 	0.58180 0.66700 0.07780 0.32400
C 	C 	0.39330 0.58320 0.05900 -0.17800
C 	C 	0.30800 0.40620 0.07970 0.05300
C 	C 	0.13920 0.31920 0.06290 -0.29000
C 	C 	0.05580 0.41860 0.08110 0.16100
C 	C 	0.12210 0.58080 0.06200 -0.38300
C 	C 	0.31030 0.66880 0.07750 0.06800
C 	C 	0.06620 0.15800 0.08670 0.47400
C 	C 	0.04410 0.66040 0.07690 0.58600
C 	C 	0.84030 0.92440 0.22080 0.10500
C 	C 	0.07380 0.89360 0.21840 -0.16500
C 	C 	0.81550 0.65460 0.22040 -0.06800
C 	C 	0.41820 0.33300 0.57780 0.32800
C 	C 	0.60670 0.41680 0.55900 -0.17800
C 	C 	0.69200 0.59380 0.57970 0.02600
C 	C 	0.86080 0.68080 0.56290 -0.24700
C 	C 	0.94420 0.58140 0.58110 0.10500
C 	C 	0.87790 0.41920 0.56200 -0.36600
C 	C 	0.68970 0.33120 0.57750 0.07500
C 	C 	0.93380 0.84200 0.58670 0.42800
C 	C 	0.95590 0.33960 0.57690 0.56900
C 	C 	0.15970 0.07560 0.72080 -0.23900
C 	C 	0.92620 0.10640 0.71840 -0.02900
C 	C 	0.18450 0.34540 0.72040 -0.07100
N 	N 	0.92650 0.81780 0.30160 -0.19000
N 	N 	0.07350 0.18220 0.80160 -0.16600
N 	N 	0.89130 0.81780 0.19840 -0.18200
N 	N 	0.10870 0.18220 0.69840 -0.16100
O 	O 	0.08720 0.75940 0.46170 -0.44500
O 	O 	0.06640 0.67860 0.37700 -0.39000
O 	O 	0.10930 0.04500 0.43320 -0.62300
O 	O 	0.00530 0.14640 0.38080 -0.41900
O 	O 	0.71100 0.78440 0.43800 -0.47400
O 	O 	0.66740 0.60680 0.39090 -0.45900
O 	O 	0.38040 0.90680 0.54280 -0.22700
O 	O 	0.91280 0.24060 0.96170 -0.46600
O 	O 	0.93360 0.32140 0.87700 -0.40800
O 	O 	0.89070 0.95500 0.93320 -0.53300
O 	O 	0.99470 0.85360 0.88080 -0.36300
O 	O 	0.28900 0.21560 0.93800 -0.50500
O 	O 	0.33260 0.39320 0.89090 -0.46000
O 	O 	0.61960 0.09320 0.04280 -0.31400
O 	O 	0.67220 0.75940 0.03830 -0.46500
O 	O 	0.61220 0.67860 0.12300 -0.39600
O 	O 	0.93570 0.04500 0.06680 -0.62600
O 	O 	0.14110 0.14640 0.11920 -0.42400
O 	O 	0.07340 0.78440 0.06200 -0.47800
O 	O 	0.93940 0.60680 0.10910 -0.46700
O 	O 	0.52640 0.90680 0.95720 -0.20900
O 	O 	0.32780 0.24060 0.53830 -0.48500
O 	O 	0.38780 0.32140 0.62300 -0.41000
O 	O 	0.06430 0.95500 0.56680 -0.52200
O 	O 	0.85890 0.85360 0.61920 -0.35700
O 	O 	0.92660 0.21560 0.56200 -0.50800
O 	O 	0.06060 0.39320 0.60910 -0.45000
O 	O 	0.47360 0.09320 0.45720 -0.30000
