data_crystal

_cell_length_a 9.20910
_cell_length_b 22.75320
_cell_length_c 23.09020
_cell_angle_alpha 90.00000
_cell_angle_beta  90.00000
_cell_angle_gamma 90.00000

_symmetry_space_group_name_	'P 1'
_symmetry_space_group_name_H-M	'P 1'

loop_
_symmetry_equiv_pos_as_xyz
  x,y,z

loop_
_atom_site_label
_atom_site_type_symbol
_atom_site_fract_x
_atom_site_fract_y
_atom_site_fract_z
_atom_site_charge
Cu	Cu	0.38884 0.03282 0.53264 0.82600
N 	N 	0.49130 0.05180 0.60270 -0.30000
N 	N 	0.25990 0.00570 0.98780 -0.29300
C 	C 	0.55060 0.01010 0.63560 0.16400
H 	H 	0.55090 0.97160 0.62220 -0.04600
C 	C 	0.61180 0.02220 0.68890 -0.32100
H 	H 	0.65230 0.99160 0.71020 0.14100
C 	C 	0.61430 0.07660 0.71080 0.31300
C 	C 	0.55720 0.11980 0.67590 -0.31800
H 	H 	0.55960 0.15870 0.68820 0.15400
C 	C 	0.49650 0.10610 0.62320 0.17300
H 	H 	0.45740 0.13640 0.60090 -0.03700
C 	C 	0.66380 0.08870 0.77130 -0.46600
H 	H 	0.68960 0.12980 0.77500 0.17300
H 	H 	0.74940 0.06540 0.77970 0.16400
C 	C 	0.54410 0.07370 0.81420 0.22300
H 	H 	0.46150 0.09910 0.80680 -0.03700
H 	H 	0.51310 0.03350 0.80750 -0.04200
C 	C 	0.58700 0.07990 0.87680 -0.40700
H 	H 	0.60150 0.12120 0.88570 0.14900
H 	H 	0.67810 0.05960 0.88330 0.11300
C 	C 	0.27830 0.06300 0.98350 0.15500
H 	H 	0.21790 0.08730 0.00510 -0.04200
C 	C 	0.38080 0.08860 0.94910 -0.28300
H 	H 	0.38870 0.12930 0.94790 0.13600
C 	C 	0.47170 0.05480 0.91650 0.25200
C 	C 	0.45270 0.99430 0.92080 -0.27300
H 	H 	0.51160 0.96920 0.89940 0.12000
C 	C 	0.34930 0.97180 0.95590 0.15100
H 	H 	0.33950 0.93110 0.95820 -0.02900
Cu	Cu	0.11116 0.96718 0.03264 0.82400
N 	N 	0.00870 0.94820 0.10270 -0.30200
N 	N 	0.24010 0.99430 0.48780 -0.29400
C 	C 	0.94940 0.98990 0.13560 0.16500
H 	H 	0.94910 0.02840 0.12220 -0.04800
C 	C 	0.88820 0.97780 0.18890 -0.32100
H 	H 	0.84770 0.00840 0.21020 0.13900
C 	C 	0.88570 0.92340 0.21080 0.31100
C 	C 	0.94280 0.88020 0.17590 -0.31500
H 	H 	0.94040 0.84130 0.18820 0.15200
C 	C 	0.00350 0.89390 0.12320 0.16900
H 	H 	0.04260 0.86360 0.10090 -0.03600
C 	C 	0.83620 0.91130 0.27130 -0.46600
H 	H 	0.81040 0.87020 0.27500 0.17300
H 	H 	0.75060 0.93460 0.27970 0.16400
C 	C 	0.95590 0.92630 0.31420 0.22500
H 	H 	0.03850 0.90090 0.30680 -0.03800
H 	H 	0.98690 0.96650 0.30750 -0.04200
C 	C 	0.91300 0.92010 0.37680 -0.40500
H 	H 	0.89850 0.87880 0.38570 0.14900
H 	H 	0.82190 0.94040 0.38330 0.11200
C 	C 	0.22170 0.93700 0.48350 0.15400
H 	H 	0.28210 0.91270 0.50510 -0.04200
C 	C 	0.11920 0.91140 0.44910 -0.28100
H 	H 	0.11130 0.87070 0.44790 0.13500
C 	C 	0.02830 0.94520 0.41650 0.24900
C 	C 	0.04730 0.00570 0.42080 -0.26900
H 	H 	0.98840 0.03080 0.39940 0.11800
C 	C 	0.15070 0.02820 0.45590 0.14900
H 	H 	0.16050 0.06890 0.45820 -0.02800
Cu	Cu	0.61116 0.53282 0.46736 0.82500
N 	N 	0.50870 0.55180 0.39730 -0.30100
N 	N 	0.74010 0.50570 0.01220 -0.29500
C 	C 	0.44940 0.51010 0.36440 0.16200
H 	H 	0.44910 0.47160 0.37780 -0.04700
C 	C 	0.38820 0.52220 0.31110 -0.32000
H 	H 	0.34770 0.49160 0.28980 0.13800
C 	C 	0.38570 0.57660 0.28920 0.31200
C 	C 	0.44280 0.61980 0.32410 -0.31900
H 	H 	0.44040 0.65870 0.31180 0.15200
C 	C 	0.50350 0.60610 0.37680 0.17300
H 	H 	0.54260 0.63640 0.39910 -0.03700
C 	C 	0.33620 0.58870 0.22870 -0.46600
H 	H 	0.31040 0.62980 0.22500 0.17300
H 	H 	0.25060 0.56540 0.22030 0.16400
C 	C 	0.45590 0.57370 0.18580 0.22400
H 	H 	0.53850 0.59910 0.19320 -0.03700
H 	H 	0.48690 0.53350 0.19250 -0.04200
C 	C 	0.41300 0.57990 0.12320 -0.40900
H 	H 	0.39850 0.62120 0.11430 0.15000
H 	H 	0.32190 0.55960 0.11670 0.11300
C 	C 	0.72170 0.56300 0.01650 0.15800
H 	H 	0.78210 0.58730 0.99490 -0.04400
C 	C 	0.61920 0.58860 0.05090 -0.28600
H 	H 	0.61130 0.62930 0.05210 0.13700
C 	C 	0.52830 0.55480 0.08350 0.25400
C 	C 	0.54730 0.49430 0.07920 -0.27500
H 	H 	0.48840 0.46920 0.10060 0.12000
C 	C 	0.65070 0.47180 0.04410 0.15100
H 	H 	0.66050 0.43110 0.04180 -0.02900
Cu	Cu	0.88884 0.46718 0.96736 0.82400
N 	N 	0.99130 0.44820 0.89730 -0.30200
N 	N 	0.75990 0.49430 0.51220 -0.29500
C 	C 	0.05060 0.48990 0.86440 0.16400
H 	H 	0.05090 0.52840 0.87780 -0.04800
C 	C 	0.11180 0.47780 0.81110 -0.32100
H 	H 	0.15230 0.50840 0.78980 0.13900
C 	C 	0.11430 0.42340 0.78920 0.31200
C 	C 	0.05720 0.38020 0.82410 -0.31600
H 	H 	0.05960 0.34130 0.81180 0.15200
C 	C 	0.99650 0.39390 0.87680 0.17100
H 	H 	0.95740 0.36360 0.89910 -0.03600
C 	C 	0.16380 0.41130 0.72870 -0.46700
H 	H 	0.18960 0.37020 0.72500 0.17300
H 	H 	0.24940 0.43460 0.72030 0.16500
C 	C 	0.04410 0.42630 0.68580 0.22600
H 	H 	0.96150 0.40090 0.69320 -0.03800
H 	H 	0.01310 0.46650 0.69250 -0.04300
C 	C 	0.08700 0.42010 0.62320 -0.40900
H 	H 	0.10150 0.37880 0.61430 0.15000
H 	H 	0.17810 0.44040 0.61670 0.11300
C 	C 	0.77830 0.43700 0.51650 0.15600
H 	H 	0.71790 0.41270 0.49490 -0.04300
C 	C 	0.88080 0.41140 0.55090 -0.28400
H 	H 	0.88870 0.37070 0.55210 0.13600
C 	C 	0.97170 0.44520 0.58350 0.25400
C 	C 	0.95270 0.50570 0.57920 -0.27500
H 	H 	0.01160 0.53080 0.60060 0.12000
C 	C 	0.84930 0.52820 0.54410 0.15100
H 	H 	0.83950 0.56890 0.54180 -0.02900
Cu	Cu	0.61116 0.96718 0.46736 0.82500
N 	N 	0.50870 0.94820 0.39730 -0.30100
N 	N 	0.74010 0.99430 0.01220 -0.29400
C 	C 	0.44940 0.98990 0.36440 0.16300
H 	H 	0.44910 0.02840 0.37780 -0.04700
C 	C 	0.38820 0.97780 0.31110 -0.32200
H 	H 	0.34770 0.00840 0.28980 0.14000
C 	C 	0.38570 0.92340 0.28920 0.31200
C 	C 	0.44280 0.88020 0.32410 -0.31900
H 	H 	0.44040 0.84130 0.31180 0.15300
C 	C 	0.50350 0.89390 0.37680 0.17300
H 	H 	0.54260 0.86360 0.39910 -0.03700
C 	C 	0.33620 0.91130 0.22870 -0.46600
H 	H 	0.31040 0.87020 0.22500 0.17300
H 	H 	0.25060 0.93460 0.22030 0.16400
C 	C 	0.45590 0.92630 0.18580 0.22300
H 	H 	0.53850 0.90090 0.19320 -0.03700
H 	H 	0.48690 0.96650 0.19250 -0.04200
C 	C 	0.41300 0.92010 0.12320 -0.40700
H 	H 	0.39850 0.87880 0.11430 0.14900
H 	H 	0.32190 0.94040 0.11670 0.11300
C 	C 	0.72170 0.93700 0.01650 0.15500
H 	H 	0.78210 0.91270 0.99490 -0.04200
C 	C 	0.61920 0.91140 0.05090 -0.28300
H 	H 	0.61130 0.87070 0.05210 0.13600
C 	C 	0.52830 0.94520 0.08350 0.25200
C 	C 	0.54730 0.00570 0.07920 -0.27300
H 	H 	0.48840 0.03080 0.10060 0.12000
C 	C 	0.65070 0.02820 0.04410 0.15100
H 	H 	0.66050 0.06890 0.04180 -0.02900
Cu	Cu	0.88884 0.03282 0.96736 0.82400
N 	N 	0.99130 0.05180 0.89730 -0.30200
N 	N 	0.75990 0.00570 0.51220 -0.29400
C 	C 	0.05060 0.01010 0.86440 0.16500
H 	H 	0.05090 0.97160 0.87780 -0.04800
C 	C 	0.11180 0.02220 0.81110 -0.32100
H 	H 	0.15230 0.99160 0.78980 0.13900
C 	C 	0.11430 0.07660 0.78920 0.31100
C 	C 	0.05720 0.11980 0.82410 -0.31500
H 	H 	0.05960 0.15870 0.81180 0.15200
C 	C 	0.99650 0.10610 0.87680 0.16900
H 	H 	0.95740 0.13640 0.89910 -0.03600
C 	C 	0.16380 0.08870 0.72870 -0.46600
H 	H 	0.18960 0.12980 0.72500 0.17300
H 	H 	0.24940 0.06540 0.72030 0.16400
C 	C 	0.04410 0.07370 0.68580 0.22500
H 	H 	0.96150 0.09910 0.69320 -0.03800
H 	H 	0.01310 0.03350 0.69250 -0.04200
C 	C 	0.08700 0.07990 0.62320 -0.40500
H 	H 	0.10150 0.12120 0.61430 0.14900
H 	H 	0.17810 0.05960 0.61670 0.11200
C 	C 	0.77830 0.06300 0.51650 0.15400
H 	H 	0.71790 0.08730 0.49490 -0.04200
C 	C 	0.88080 0.08860 0.55090 -0.28100
H 	H 	0.88870 0.12930 0.55210 0.13500
C 	C 	0.97170 0.05480 0.58350 0.24900
C 	C 	0.95270 0.99430 0.57920 -0.26900
H 	H 	0.01160 0.96920 0.60060 0.11800
C 	C 	0.84930 0.97180 0.54410 0.14900
H 	H 	0.83950 0.93110 0.54180 -0.02800
Cu	Cu	0.38884 0.46718 0.53264 0.82500
N 	N 	0.49130 0.44820 0.60270 -0.30100
N 	N 	0.25990 0.49430 0.98780 -0.29500
C 	C 	0.55060 0.48990 0.63560 0.16200
H 	H 	0.55090 0.52840 0.62220 -0.04700
C 	C 	0.61180 0.47780 0.68890 -0.32000
H 	H 	0.65230 0.50840 0.71020 0.13800
C 	C 	0.61430 0.42340 0.71080 0.31200
C 	C 	0.55720 0.38020 0.67590 -0.31900
H 	H 	0.55960 0.34130 0.68820 0.15200
C 	C 	0.49650 0.39390 0.62320 0.17300
H 	H 	0.45740 0.36360 0.60090 -0.03700
C 	C 	0.66380 0.41130 0.77130 -0.46600
H 	H 	0.68960 0.37020 0.77500 0.17300
H 	H 	0.74940 0.43460 0.77970 0.16400
C 	C 	0.54410 0.42630 0.81420 0.22400
H 	H 	0.46150 0.40090 0.80680 -0.03700
H 	H 	0.51310 0.46650 0.80750 -0.04200
C 	C 	0.58700 0.42010 0.87680 -0.40900
H 	H 	0.60150 0.37880 0.88570 0.15000
H 	H 	0.67810 0.44040 0.88330 0.11300
C 	C 	0.27830 0.43700 0.98350 0.15800
H 	H 	0.21790 0.41270 0.00510 -0.04400
C 	C 	0.38080 0.41140 0.94910 -0.28600
H 	H 	0.38870 0.37070 0.94790 0.13700
C 	C 	0.47170 0.44520 0.91650 0.25400
C 	C 	0.45270 0.50570 0.92080 -0.27500
H 	H 	0.51160 0.53080 0.89940 0.12000
C 	C 	0.34930 0.52820 0.95590 0.15100
H 	H 	0.33950 0.56890 0.95820 -0.02900
Cu	Cu	0.11116 0.53282 0.03264 0.82400
N 	N 	0.00870 0.55180 0.10270 -0.30200
N 	N 	0.24010 0.50570 0.48780 -0.29500
C 	C 	0.94940 0.51010 0.13560 0.16400
H 	H 	0.94910 0.47160 0.12220 -0.04800
C 	C 	0.88820 0.52220 0.18890 -0.32100
H 	H 	0.84770 0.49160 0.21020 0.13900
C 	C 	0.88570 0.57660 0.21080 0.31200
C 	C 	0.94280 0.61980 0.17590 -0.31600
H 	H 	0.94040 0.65870 0.18820 0.15200
C 	C 	0.00350 0.60610 0.12320 0.17100
H 	H 	0.04260 0.63640 0.10090 -0.03600
C 	C 	0.83620 0.58870 0.27130 -0.46700
H 	H 	0.81040 0.62980 0.27500 0.17300
H 	H 	0.75060 0.56540 0.27970 0.16500
C 	C 	0.95590 0.57370 0.31420 0.22600
H 	H 	0.03850 0.59910 0.30680 -0.03800
H 	H 	0.98690 0.53350 0.30750 -0.04300
C 	C 	0.91300 0.57990 0.37680 -0.40900
H 	H 	0.89850 0.62120 0.38570 0.15000
H 	H 	0.82190 0.55960 0.38330 0.11300
C 	C 	0.22170 0.56300 0.48350 0.15600
H 	H 	0.28210 0.58730 0.50510 -0.04300
C 	C 	0.11920 0.58860 0.44910 -0.28400
H 	H 	0.11130 0.62930 0.44790 0.13600
C 	C 	0.02830 0.55480 0.41650 0.25400
C 	C 	0.04730 0.49430 0.42080 -0.27500
H 	H 	0.98840 0.46920 0.39940 0.12000
C 	C 	0.15070 0.47180 0.45590 0.15100
H 	H 	0.16050 0.43110 0.45820 -0.02900
O 	O 	0.46260 0.09720 0.46270 -0.40100
O 	O 	0.30730 0.15130 0.51190 -0.39200
C 	C 	0.46400 0.19780 0.44600 -0.03100
C 	C 	0.55770 0.19610 0.40120 -0.01300
H 	H 	0.59040 0.16060 0.38610 0.04400
C 	C 	0.40550 0.14420 0.47660 0.33200
O 	O 	0.46260 0.40280 0.46270 -0.40100
O 	O 	0.30730 0.34870 0.51190 -0.39200
C 	C 	0.46400 0.30220 0.44600 -0.03100
C 	C 	0.55770 0.30390 0.40120 -0.01300
H 	H 	0.59040 0.33940 0.38610 0.04400
C 	C 	0.40550 0.35580 0.47660 0.33200
Cu	Cu	0.26482 0.25000 0.52734 0.91600
O 	O 	0.34820 0.25000 0.69910 -0.25000
O 	O 	0.38320 0.25000 0.60380 -0.32700
O 	O 	0.08420 0.25000 0.47380 -0.33100
O 	O 	0.84320 0.25000 0.47600 -0.24700
N 	N 	0.10750 0.25000 0.58330 -0.19300
N 	N 	0.41720 0.25000 0.46720 -0.17400
C 	C 	0.13940 0.25000 0.64020 -0.02900
C 	C 	0.02400 0.25000 0.68120 -0.05200
H 	H 	0.04190 0.25000 0.72090 0.06000
C 	C 	0.88800 0.25000 0.65970 -0.01600
H 	H 	0.81130 0.25000 0.68600 0.04400
C 	C 	0.85500 0.25000 0.60400 -0.05800
H 	H 	0.75890 0.25000 0.59140 0.06200
C 	C 	0.97300 0.25000 0.56410 -0.02300
C 	C 	0.29400 0.25000 0.64950 0.24000
C 	C 	0.95800 0.25000 0.49970 0.28100
C 	C 	0.60390 0.25000 0.37810 -0.03500
H 	H 	0.66710 0.25000 0.34670 0.04900
O 	O 	0.03740 0.90280 0.96270 -0.40100
O 	O 	0.19270 0.84870 0.01190 -0.39400
C 	C 	0.03600 0.80220 0.94600 -0.03000
C 	C 	0.94230 0.80390 0.90120 -0.01500
H 	H 	0.90960 0.83940 0.88610 0.04500
C 	C 	0.09450 0.85580 0.97660 0.33400
O 	O 	0.03740 0.59720 0.96270 -0.40100
O 	O 	0.19270 0.65130 0.01190 -0.39400
C 	C 	0.03600 0.69780 0.94600 -0.02900
C 	C 	0.94230 0.69610 0.90120 -0.01500
H 	H 	0.90960 0.66060 0.88610 0.04500
C 	C 	0.09450 0.64420 0.97660 0.33300
Cu	Cu	0.23518 0.75000 0.02734 0.91600
O 	O 	0.15180 0.75000 0.19910 -0.25000
O 	O 	0.11680 0.75000 0.10380 -0.32800
O 	O 	0.41580 0.75000 0.97380 -0.33100
O 	O 	0.65680 0.75000 0.97600 -0.24700
N 	N 	0.39250 0.75000 0.08330 -0.19400
N 	N 	0.08280 0.75000 0.96720 -0.17400
C 	C 	0.36060 0.75000 0.14020 -0.02800
C 	C 	0.47600 0.75000 0.18120 -0.05600
H 	H 	0.45810 0.75000 0.22090 0.06100
C 	C 	0.61200 0.75000 0.15970 -0.01100
H 	H 	0.68870 0.75000 0.18600 0.04300
C 	C 	0.64500 0.75000 0.10400 -0.06100
H 	H 	0.74110 0.75000 0.09140 0.06300
C 	C 	0.52700 0.75000 0.06410 -0.02200
C 	C 	0.20600 0.75000 0.14950 0.24000
C 	C 	0.54200 0.75000 0.99970 0.28200
C 	C 	0.89610 0.75000 0.87810 -0.03300
H 	H 	0.83290 0.75000 0.84670 0.04900
O 	O 	0.53740 0.59720 0.53730 -0.40100
O 	O 	0.69270 0.65130 0.48810 -0.39200
C 	C 	0.53600 0.69780 0.55400 -0.03100
C 	C 	0.44230 0.69610 0.59880 -0.01300
H 	H 	0.40960 0.66060 0.61390 0.04400
C 	C 	0.59450 0.64420 0.52340 0.33200
O 	O 	0.53740 0.90280 0.53730 -0.40100
O 	O 	0.69270 0.84870 0.48810 -0.39200
C 	C 	0.53600 0.80220 0.55400 -0.03100
C 	C 	0.44230 0.80390 0.59880 -0.01300
H 	H 	0.40960 0.83940 0.61390 0.04400
C 	C 	0.59450 0.85580 0.52340 0.33200
Cu	Cu	0.73518 0.75000 0.47266 0.91600
O 	O 	0.65180 0.75000 0.30090 -0.25000
O 	O 	0.61680 0.75000 0.39620 -0.32700
O 	O 	0.91580 0.75000 0.52620 -0.33100
O 	O 	0.15680 0.75000 0.52400 -0.24700
N 	N 	0.89250 0.75000 0.41670 -0.19300
N 	N 	0.58280 0.75000 0.53280 -0.17400
C 	C 	0.86060 0.75000 0.35980 -0.02900
C 	C 	0.97600 0.75000 0.31880 -0.05200
H 	H 	0.95810 0.75000 0.27910 0.06000
C 	C 	0.11200 0.75000 0.34030 -0.01600
H 	H 	0.18870 0.75000 0.31400 0.04400
C 	C 	0.14500 0.75000 0.39600 -0.05800
H 	H 	0.24110 0.75000 0.40860 0.06200
C 	C 	0.02700 0.75000 0.43590 -0.02300
C 	C 	0.70600 0.75000 0.35050 0.24000
C 	C 	0.04200 0.75000 0.50030 0.28100
C 	C 	0.39610 0.75000 0.62190 -0.03500
H 	H 	0.33290 0.75000 0.65330 0.04900
O 	O 	0.96260 0.40280 0.03730 -0.40100
O 	O 	0.80730 0.34870 0.98810 -0.39400
C 	C 	0.96400 0.30220 0.05400 -0.02900
C 	C 	0.05770 0.30390 0.09880 -0.01500
H 	H 	0.09040 0.33940 0.11390 0.04500
C 	C 	0.90550 0.35580 0.02340 0.33300
O 	O 	0.96260 0.09720 0.03730 -0.40100
O 	O 	0.80730 0.15130 0.98810 -0.39400
C 	C 	0.96400 0.19780 0.05400 -0.03000
C 	C 	0.05770 0.19610 0.09880 -0.01500
H 	H 	0.09040 0.16060 0.11390 0.04500
C 	C 	0.90550 0.14420 0.02340 0.33400
Cu	Cu	0.76482 0.25000 0.97266 0.91600
O 	O 	0.84820 0.25000 0.80090 -0.25000
O 	O 	0.88320 0.25000 0.89620 -0.32800
O 	O 	0.58420 0.25000 0.02620 -0.33100
O 	O 	0.34320 0.25000 0.02400 -0.24700
N 	N 	0.60750 0.25000 0.91670 -0.19400
N 	N 	0.91720 0.25000 0.03280 -0.17400
C 	C 	0.63940 0.25000 0.85980 -0.02800
C 	C 	0.52400 0.25000 0.81880 -0.05600
H 	H 	0.54190 0.25000 0.77910 0.06100
C 	C 	0.38800 0.25000 0.84030 -0.01100
H 	H 	0.31130 0.25000 0.81400 0.04300
C 	C 	0.35500 0.25000 0.89600 -0.06100
H 	H 	0.25890 0.25000 0.90860 0.06300
C 	C 	0.47300 0.25000 0.93590 -0.02200
C 	C 	0.79400 0.25000 0.85050 0.24000
C 	C 	0.45800 0.25000 0.00030 0.28200
C 	C 	0.10390 0.25000 0.12190 -0.03300
H 	H 	0.16710 0.25000 0.15330 0.04900
