data_crystal

_cell_length_a 16.05500
_cell_length_b 17.93690
_cell_length_c 17.93690
_cell_angle_alpha 72.88270
_cell_angle_beta  63.41390
_cell_angle_gamma 63.41380

_symmetry_space_group_name_	'P 1'
_symmetry_space_group_name_H-M	'P 1'

loop_
_symmetry_equiv_pos_as_xyz
  x,y,z

loop_
_atom_site_label
_atom_site_type_symbol
_atom_site_fract_x
_atom_site_fract_y
_atom_site_fract_z
_atom_site_charge
K 	K 	0.25890 0.58838 0.91162 0.65000
K 	K 	0.25890 0.91162 0.58838 0.65000
K 	K 	0.74110 0.41162 0.08838 0.65000
K 	K 	0.74110 0.08838 0.41162 0.65000
Cd	Cd	0.12341 0.26738 0.95502 1.20700
Cd	Cd	0.38761 0.37067 0.82005 1.20500
Cd	Cd	0.84581 0.23262 0.54498 1.20900
Cd	Cd	0.07833 0.12933 0.67995 1.20600
Cd	Cd	0.15419 0.45502 0.76738 1.20900
Cd	Cd	0.92167 0.32005 0.87067 1.20600
Cd	Cd	0.87659 0.04498 0.73262 1.20800
Cd	Cd	0.61239 0.17995 0.62933 1.20600
Cd	Cd	0.87659 0.73262 0.04498 1.20800
Cd	Cd	0.61239 0.62933 0.17995 1.20600
Cd	Cd	0.15419 0.76738 0.45502 1.20900
Cd	Cd	0.92167 0.87067 0.32005 1.20600
Cd	Cd	0.84581 0.54498 0.23262 1.20900
Cd	Cd	0.07833 0.67995 0.12933 1.20600
Cd	Cd	0.12341 0.95502 0.26738 1.20800
Cd	Cd	0.38761 0.82005 0.37067 1.20600
C 	C 	0.10240 0.41570 0.02670 -0.02500
C 	C 	0.20020 0.39900 0.95520 0.28300
C 	C 	0.00130 0.15780 0.09260 -0.01200
C 	C 	0.92640 0.21700 0.05320 0.26500
C 	C 	0.24030 0.81080 0.15100 -0.00900
C 	C 	0.22700 0.75500 0.12120 -0.01000
C 	C 	0.32250 0.84010 0.13210 0.29400
C 	C 	0.28900 0.69740 0.05400 0.30900
C 	C 	0.04480 0.08430 0.47330 -0.02700
C 	C 	0.05440 0.10100 0.54480 0.29000
C 	C 	0.75170 0.34220 0.40740 -0.02000
C 	C 	0.69660 0.28300 0.44680 0.27400
C 	C 	0.70210 0.68920 0.34900 -0.00900
C 	C 	0.60320 0.74500 0.37880 -0.01000
C 	C 	0.79470 0.65990 0.36790 0.29400
C 	C 	0.54040 0.80260 0.44600 0.30900
C 	C 	0.95520 0.52670 0.91570 -0.02700
C 	C 	0.94560 0.45520 0.89900 0.29000
C 	C 	0.24830 0.59260 0.65780 -0.02000
C 	C 	0.30340 0.55320 0.71700 0.27400
C 	C 	0.29790 0.65100 0.31080 -0.00900
C 	C 	0.39680 0.62120 0.25500 -0.01000
C 	C 	0.20530 0.63210 0.34010 0.29400
C 	C 	0.45960 0.55400 0.19740 0.30900
C 	C 	0.89760 0.97330 0.58430 -0.02500
C 	C 	0.79980 0.04480 0.60100 0.28300
C 	C 	0.99870 0.90740 0.84220 -0.01200
C 	C 	0.07360 0.94680 0.78300 0.26500
C 	C 	0.75970 0.84900 0.18920 -0.00900
C 	C 	0.77300 0.87880 0.24500 -0.01000
C 	C 	0.67750 0.86790 0.15990 0.29400
C 	C 	0.71100 0.94600 0.30260 0.30900
C 	C 	0.89760 0.58430 0.97330 -0.02500
C 	C 	0.79980 0.60100 0.04480 0.28300
C 	C 	0.99870 0.84220 0.90740 -0.01200
C 	C 	0.07360 0.78300 0.94680 0.26500
C 	C 	0.75970 0.18920 0.84900 -0.00900
C 	C 	0.77300 0.24500 0.87880 -0.01000
C 	C 	0.67750 0.15990 0.86790 0.29400
C 	C 	0.71100 0.30260 0.94600 0.30900
C 	C 	0.95520 0.91570 0.52670 -0.02700
C 	C 	0.94560 0.89900 0.45520 0.29000
C 	C 	0.24830 0.65780 0.59260 -0.02000
C 	C 	0.30340 0.71700 0.55320 0.27400
C 	C 	0.29790 0.31080 0.65100 -0.00900
C 	C 	0.39680 0.25500 0.62120 -0.01000
C 	C 	0.20530 0.34010 0.63210 0.29400
C 	C 	0.45960 0.19740 0.55400 0.30900
C 	C 	0.04480 0.47330 0.08430 -0.02700
C 	C 	0.05440 0.54480 0.10100 0.29000
C 	C 	0.75170 0.40740 0.34220 -0.02000
C 	C 	0.69660 0.44680 0.28300 0.27400
C 	C 	0.70210 0.34900 0.68920 -0.00900
C 	C 	0.60320 0.37880 0.74500 -0.01000
C 	C 	0.79470 0.36790 0.65990 0.29400
C 	C 	0.54040 0.44600 0.80260 0.30900
C 	C 	0.10240 0.02670 0.41570 -0.02500
C 	C 	0.20020 0.95520 0.39900 0.28300
C 	C 	0.00130 0.09260 0.15780 -0.01200
C 	C 	0.92640 0.05320 0.21700 0.26500
C 	C 	0.24030 0.15100 0.81080 -0.00900
C 	C 	0.22700 0.12120 0.75500 -0.01000
C 	C 	0.32250 0.13210 0.84010 0.29400
C 	C 	0.28900 0.05400 0.69740 0.30900
N 	N 	0.04900 0.36890 0.04090 -0.17900
N 	N 	0.09150 0.16450 0.06290 -0.17300
N 	N 	0.15240 0.84440 0.21300 -0.19400
N 	N 	0.08630 0.81400 0.22180 -0.16400
N 	N 	0.13130 0.75940 0.16560 -0.18300
N 	N 	0.95880 0.13110 0.45910 -0.18300
N 	N 	0.81890 0.33550 0.43710 -0.17400
N 	N 	0.70980 0.65560 0.28700 -0.19400
N 	N 	0.62210 0.68600 0.27820 -0.16400
N 	N 	0.55630 0.74060 0.33440 -0.18300
N 	N 	0.04120 0.54090 0.86890 -0.18300
N 	N 	0.18110 0.56290 0.66450 -0.17400
N 	N 	0.29020 0.71300 0.34440 -0.19400
N 	N 	0.37790 0.72180 0.31400 -0.16400
N 	N 	0.44370 0.66560 0.25940 -0.18300
N 	N 	0.95100 0.95910 0.63110 -0.17900
N 	N 	0.90850 0.93710 0.83550 -0.17300
N 	N 	0.84760 0.78700 0.15560 -0.19400
N 	N 	0.91370 0.77820 0.18600 -0.16400
N 	N 	0.86870 0.83440 0.24060 -0.18300
N 	N 	0.95100 0.63110 0.95910 -0.17900
N 	N 	0.90850 0.83550 0.93710 -0.17300
N 	N 	0.84760 0.15560 0.78700 -0.19400
N 	N 	0.91370 0.18600 0.77820 -0.16400
N 	N 	0.86870 0.24060 0.83440 -0.18300
N 	N 	0.04120 0.86890 0.54090 -0.18300
N 	N 	0.18110 0.66450 0.56290 -0.17400
N 	N 	0.29020 0.34440 0.71300 -0.19400
N 	N 	0.37790 0.31400 0.72180 -0.16400
N 	N 	0.44370 0.25940 0.66560 -0.18300
N 	N 	0.95880 0.45910 0.13110 -0.18300
N 	N 	0.81890 0.43710 0.33550 -0.17400
N 	N 	0.70980 0.28700 0.65560 -0.19400
N 	N 	0.62210 0.27820 0.68600 -0.16400
N 	N 	0.55630 0.33440 0.74060 -0.18300
N 	N 	0.04900 0.04090 0.36890 -0.17900
N 	N 	0.09150 0.06290 0.16450 -0.17300
N 	N 	0.15240 0.21300 0.84440 -0.19400
N 	N 	0.08630 0.22180 0.81400 -0.16400
N 	N 	0.13130 0.16560 0.75940 -0.18300
N 	N 	0.96090 0.39500 0.10500 -0.08200
N 	N 	0.96090 0.10500 0.39500 -0.08200
N 	N 	0.03910 0.60500 0.89500 -0.08200
N 	N 	0.03910 0.89500 0.60500 -0.08200
N 	N 	0.14520 0.10670 0.10670 -0.05400
N 	N 	0.85860 0.39330 0.39330 -0.05500
N 	N 	0.14140 0.60670 0.60670 -0.05500
N 	N 	0.85480 0.89330 0.89330 -0.05400
O 	O 	0.21577 0.35743 0.90043 -0.53000
O 	O 	0.26345 0.42545 0.94905 -0.39300
O 	O 	0.95600 0.26780 0.99120 -0.50300
O 	O 	0.85950 0.19400 0.05880 -0.25100
O 	O 	0.29770 0.90060 0.16940 -0.36500
O 	O 	0.40770 0.80330 0.08330 -0.23700
O 	O 	0.25400 0.64730 0.05530 -0.38100
O 	O 	0.36850 0.70420 0.00120 -0.21100
O 	O 	0.97363 0.14257 0.59957 -0.53300
O 	O 	0.13795 0.07455 0.55095 -0.39300
O 	O 	0.71500 0.23220 0.50880 -0.50700
O 	O 	0.61230 0.30600 0.44120 -0.25200
O 	O 	0.86770 0.59940 0.33060 -0.36300
O 	O 	0.79430 0.69670 0.41670 -0.23600
O 	O 	0.45660 0.85270 0.44470 -0.38200
O 	O 	0.57390 0.79580 0.49880 -0.21000
O 	O 	0.02637 0.40043 0.85743 -0.53300
O 	O 	0.86205 0.44905 0.92545 -0.39300
O 	O 	0.28500 0.49120 0.76780 -0.50700
O 	O 	0.38770 0.55880 0.69400 -0.25200
O 	O 	0.13230 0.66940 0.40060 -0.36300
O 	O 	0.20570 0.58330 0.30330 -0.23600
O 	O 	0.54340 0.55530 0.14730 -0.38200
O 	O 	0.42610 0.50120 0.20420 -0.21000
O 	O 	0.78423 0.09957 0.64257 -0.53000
O 	O 	0.73655 0.05095 0.57455 -0.39300
O 	O 	0.04400 0.00880 0.73220 -0.50300
O 	O 	0.14050 0.94120 0.80600 -0.25100
O 	O 	0.70230 0.83060 0.09940 -0.36500
O 	O 	0.59230 0.91670 0.19670 -0.23700
O 	O 	0.74600 0.94470 0.35270 -0.38100
O 	O 	0.63150 0.99880 0.29580 -0.21100
O 	O 	0.78423 0.64257 0.09957 -0.53000
O 	O 	0.73655 0.57455 0.05095 -0.39300
O 	O 	0.04400 0.73220 0.00880 -0.50300
O 	O 	0.14050 0.80600 0.94120 -0.25100
O 	O 	0.70230 0.09940 0.83060 -0.36500
O 	O 	0.59230 0.19670 0.91670 -0.23700
O 	O 	0.74600 0.35270 0.94470 -0.38100
O 	O 	0.63150 0.29580 0.99880 -0.21100
O 	O 	0.02637 0.85743 0.40043 -0.53300
O 	O 	0.86205 0.92545 0.44905 -0.39300
O 	O 	0.28500 0.76780 0.49120 -0.50700
O 	O 	0.38770 0.69400 0.55880 -0.25200
O 	O 	0.13230 0.40060 0.66940 -0.36300
O 	O 	0.20570 0.30330 0.58330 -0.23600
O 	O 	0.54340 0.14730 0.55530 -0.38200
O 	O 	0.42610 0.20420 0.50120 -0.21000
O 	O 	0.97363 0.59957 0.14257 -0.53300
O 	O 	0.13795 0.55095 0.07455 -0.39300
O 	O 	0.71500 0.50880 0.23220 -0.50700
O 	O 	0.61230 0.44120 0.30600 -0.25200
O 	O 	0.86770 0.33060 0.59940 -0.36300
O 	O 	0.79430 0.41670 0.69670 -0.23600
O 	O 	0.45660 0.44470 0.85270 -0.38200
O 	O 	0.57390 0.49880 0.79580 -0.21000
O 	O 	0.21577 0.90043 0.35743 -0.53000
O 	O 	0.26345 0.94905 0.42545 -0.39300
O 	O 	0.95600 0.99120 0.26780 -0.50300
O 	O 	0.85950 0.05880 0.19400 -0.25100
O 	O 	0.29770 0.16940 0.90060 -0.36500
O 	O 	0.40770 0.08330 0.80330 -0.23700
O 	O 	0.25400 0.05530 0.64730 -0.38100
O 	O 	0.36850 0.00120 0.70420 -0.21100
