data_crystal

_cell_length_a 11.30310
_cell_length_b 24.23340
_cell_length_c 36.07900
_cell_angle_alpha 98.21300
_cell_angle_beta  90.00000
_cell_angle_gamma 90.00000

_symmetry_space_group_name_	'P 1'
_symmetry_space_group_name_H-M	'P 1'

loop_
_symmetry_equiv_pos_as_xyz
  x,y,z

loop_
_atom_site_label
_atom_site_type_symbol
_atom_site_fract_x
_atom_site_fract_y
_atom_site_fract_z
_atom_site_charge
Mn	Mn	0.12099 0.28415 0.62105 1.31400
Mn	Mn	0.84453 0.32564 0.65858 1.23900
Mn	Mn	0.60115 0.69660 0.40289 1.25700
Mn	Mn	0.62099 0.71585 0.87895 1.31500
Mn	Mn	0.34453 0.67436 0.84142 1.24000
Mn	Mn	0.10115 0.30340 0.09711 1.25700
Mn	Mn	0.87901 0.71585 0.37895 1.31500
Mn	Mn	0.15547 0.67436 0.34142 1.24000
Mn	Mn	0.39885 0.30340 0.59711 1.25700
Mn	Mn	0.37901 0.28415 0.12105 1.31500
Mn	Mn	0.65547 0.32564 0.15858 1.24000
Mn	Mn	0.89885 0.69660 0.90289 1.25700
H 	H 	0.09990 0.27740 0.41320 0.03500
H 	H 	0.07440 0.34190 0.42190 0.03200
H 	H 	0.90350 0.35320 0.33910 0.03200
H 	H 	0.85430 0.34900 0.37930 0.03200
H 	H 	0.16760 0.35000 0.36230 0.03400
H 	H 	0.18100 0.28530 0.35020 0.03200
H 	H 	0.88620 0.24540 0.36540 0.05200
H 	H 	0.93430 0.25510 0.32600 0.05100
H 	H 	0.75560 0.27530 0.46330 0.16400
H 	H 	0.72430 0.28390 0.52600 -0.06100
H 	H 	0.05800 0.33330 0.54480 -0.04700
H 	H 	0.08810 0.32590 0.48070 0.15600
H 	H 	0.04870 0.50260 0.39630 0.14000
H 	H 	0.95090 0.58500 0.39700 -0.03400
H 	H 	0.65830 0.50250 0.36040 -0.02400
H 	H 	0.75850 0.41830 0.35890 0.13600
H 	H 	0.33350 0.31330 0.31760 0.13600
H 	H 	0.46870 0.32260 0.27130 -0.02600
H 	H 	0.20880 0.35420 0.20250 -0.03100
H 	H 	0.07290 0.34570 0.24810 0.14000
H 	H 	0.93080 0.15100 0.36140 0.05400
H 	H 	0.95850 0.15190 0.31890 0.05900
H 	H 	0.21580 0.16030 0.37170 0.03500
H 	H 	0.24330 0.09590 0.36620 0.04100
H 	H 	0.98610 0.05230 0.31230 0.03700
H 	H 	0.00120 0.05100 0.35550 0.03900
H 	H 	0.22670 0.09760 0.29710 0.04200
H 	H 	0.19650 0.16170 0.30510 0.03500
H 	H 	0.31780 0.16300 0.42420 0.13300
H 	H 	0.36650 0.20540 0.48550 -0.02500
H 	H 	0.03480 0.18560 0.51760 -0.01800
H 	H 	0.98620 0.14050 0.45900 0.14700
H 	H 	0.28250 0.94070 0.32450 0.15200
H 	H 	0.25440 0.84890 0.33140 -0.03000
H 	H 	0.90810 0.87450 0.34220 -0.02800
H 	H 	0.93360 0.96520 0.33300 0.15000
H 	H 	0.92020 0.14950 0.23260 0.14700
H 	H 	0.92690 0.20480 0.18610 -0.02900
H 	H 	0.27980 0.21180 0.19450 -0.02100
H 	H 	0.27150 0.16100 0.24470 0.14200
H 	H 	0.59990 0.72260 0.08680 0.03500
H 	H 	0.57440 0.65810 0.07810 0.03100
H 	H 	0.40350 0.64680 0.16090 0.03100
H 	H 	0.35430 0.65100 0.12070 0.03100
H 	H 	0.66760 0.65000 0.13770 0.03300
H 	H 	0.68100 0.71470 0.14980 0.03200
H 	H 	0.38620 0.75460 0.13460 0.05100
H 	H 	0.43430 0.74490 0.17400 0.05000
H 	H 	0.25560 0.72470 0.03670 0.16500
H 	H 	0.22430 0.71610 0.97400 -0.06200
H 	H 	0.55800 0.66670 0.95520 -0.04800
H 	H 	0.58810 0.67410 0.01930 0.15700
H 	H 	0.54870 0.49740 0.10370 0.14000
H 	H 	0.45090 0.41500 0.10300 -0.03400
H 	H 	0.15830 0.49750 0.13960 -0.02300
H 	H 	0.25850 0.58170 0.14110 0.13600
H 	H 	0.83350 0.68670 0.18240 0.13600
H 	H 	0.96870 0.67740 0.22870 -0.02600
H 	H 	0.70880 0.64580 0.29750 -0.03100
H 	H 	0.57290 0.65430 0.25190 0.14000
H 	H 	0.43080 0.84900 0.13860 0.05300
H 	H 	0.45850 0.84810 0.18110 0.05800
H 	H 	0.71580 0.83970 0.12830 0.03400
H 	H 	0.74330 0.90410 0.13380 0.04100
H 	H 	0.48610 0.94770 0.18770 0.03900
H 	H 	0.50120 0.94900 0.14450 0.03900
H 	H 	0.72670 0.90240 0.20290 0.04200
H 	H 	0.69650 0.83830 0.19490 0.03400
H 	H 	0.81780 0.83700 0.07580 0.13400
H 	H 	0.86650 0.79460 0.01450 -0.02500
H 	H 	0.53480 0.81440 0.98240 -0.01900
H 	H 	0.48620 0.85950 0.04100 0.14900
H 	H 	0.78250 0.05930 0.17550 0.15200
H 	H 	0.75440 0.15110 0.16860 -0.03000
H 	H 	0.40810 0.12550 0.15780 -0.02800
H 	H 	0.43360 0.03480 0.16700 0.15000
H 	H 	0.42020 0.85050 0.26740 0.14600
H 	H 	0.42690 0.79520 0.31390 -0.02900
H 	H 	0.77980 0.78820 0.30550 -0.02100
H 	H 	0.77150 0.83900 0.25530 0.14200
H 	H 	0.90010 0.72260 0.58680 0.03500
H 	H 	0.92560 0.65810 0.57810 0.03200
H 	H 	0.09650 0.64680 0.66090 0.03200
H 	H 	0.14570 0.65100 0.62070 0.03200
H 	H 	0.83240 0.65000 0.63770 0.03400
H 	H 	0.81900 0.71470 0.64980 0.03200
H 	H 	0.11380 0.75460 0.63460 0.05200
H 	H 	0.06570 0.74490 0.67400 0.05100
H 	H 	0.24440 0.72470 0.53670 0.16400
H 	H 	0.27570 0.71610 0.47400 -0.06100
H 	H 	0.94200 0.66670 0.45520 -0.04700
H 	H 	0.91190 0.67410 0.51930 0.15600
H 	H 	0.95130 0.49740 0.60370 0.14000
H 	H 	0.04910 0.41500 0.60300 -0.03400
H 	H 	0.34170 0.49750 0.63960 -0.02400
H 	H 	0.24150 0.58170 0.64110 0.13600
H 	H 	0.66650 0.68670 0.68240 0.13600
H 	H 	0.53130 0.67740 0.72870 -0.02600
H 	H 	0.79120 0.64580 0.79750 -0.03100
H 	H 	0.92710 0.65430 0.75190 0.14000
H 	H 	0.06920 0.84900 0.63860 0.05400
H 	H 	0.04150 0.84810 0.68110 0.05900
H 	H 	0.78420 0.83970 0.62830 0.03500
H 	H 	0.75670 0.90410 0.63380 0.04100
H 	H 	0.01390 0.94770 0.68770 0.03700
H 	H 	0.99880 0.94900 0.64450 0.03900
H 	H 	0.77330 0.90240 0.70290 0.04200
H 	H 	0.80350 0.83830 0.69490 0.03500
H 	H 	0.68220 0.83700 0.57580 0.13300
H 	H 	0.63350 0.79460 0.51450 -0.02500
H 	H 	0.96520 0.81440 0.48240 -0.01800
H 	H 	0.01380 0.85950 0.54100 0.14700
H 	H 	0.71750 0.05930 0.67550 0.15200
H 	H 	0.74560 0.15110 0.66860 -0.03000
H 	H 	0.09190 0.12550 0.65780 -0.02800
H 	H 	0.06640 0.03480 0.66700 0.15000
H 	H 	0.07980 0.85050 0.76740 0.14700
H 	H 	0.07310 0.79520 0.81390 -0.02900
H 	H 	0.72020 0.78820 0.80550 -0.02100
H 	H 	0.72850 0.83900 0.75530 0.14200
H 	H 	0.40010 0.27740 0.91320 0.03500
H 	H 	0.42560 0.34190 0.92190 0.03100
H 	H 	0.59650 0.35320 0.83910 0.03100
H 	H 	0.64570 0.34900 0.87930 0.03100
H 	H 	0.33240 0.35000 0.86230 0.03300
H 	H 	0.31900 0.28530 0.85020 0.03200
H 	H 	0.61380 0.24540 0.86540 0.05100
H 	H 	0.56570 0.25510 0.82600 0.05000
H 	H 	0.74440 0.27530 0.96330 0.16500
H 	H 	0.77570 0.28390 0.02600 -0.06200
H 	H 	0.44200 0.33330 0.04480 -0.04800
H 	H 	0.41190 0.32590 0.98070 0.15700
H 	H 	0.45130 0.50260 0.89630 0.14000
H 	H 	0.54910 0.58500 0.89700 -0.03400
H 	H 	0.84170 0.50250 0.86040 -0.02300
H 	H 	0.74150 0.41830 0.85890 0.13600
H 	H 	0.16650 0.31330 0.81760 0.13600
H 	H 	0.03130 0.32260 0.77130 -0.02600
H 	H 	0.29120 0.35420 0.70250 -0.03100
H 	H 	0.42710 0.34570 0.74810 0.14000
H 	H 	0.56920 0.15100 0.86140 0.05300
H 	H 	0.54150 0.15190 0.81890 0.05800
H 	H 	0.28420 0.16030 0.87170 0.03400
H 	H 	0.25670 0.09590 0.86620 0.04100
H 	H 	0.51390 0.05230 0.81230 0.03900
H 	H 	0.49880 0.05100 0.85550 0.03900
H 	H 	0.27330 0.09760 0.79710 0.04200
H 	H 	0.30350 0.16170 0.80510 0.03400
H 	H 	0.18220 0.16300 0.92420 0.13400
H 	H 	0.13350 0.20540 0.98550 -0.02500
H 	H 	0.46520 0.18560 0.01760 -0.01900
H 	H 	0.51380 0.14050 0.95900 0.14900
H 	H 	0.21750 0.94070 0.82450 0.15200
H 	H 	0.24560 0.84890 0.83140 -0.03000
H 	H 	0.59190 0.87450 0.84220 -0.02800
H 	H 	0.56640 0.96520 0.83300 0.15000
H 	H 	0.57980 0.14950 0.73260 0.14600
H 	H 	0.57310 0.20480 0.68610 -0.02900
H 	H 	0.22020 0.21180 0.69450 -0.02100
H 	H 	0.22850 0.16100 0.74470 0.14200
C 	C 	0.01330 0.30750 0.36888 0.01100
C 	C 	0.04240 0.30630 0.41064 0.02700
C 	C 	0.92540 0.35400 0.36512 0.03400
C 	C 	0.12860 0.31690 0.34981 0.02700
C 	C 	0.95670 0.25290 0.35166 -0.02000
C 	C 	0.92470 0.30080 0.46613 0.35300
C 	C 	0.81640 0.28760 0.47981 -0.36600
C 	C 	0.79820 0.29260 0.51710 0.25300
C 	C 	0.88780 0.31030 0.54235 -0.29300
C 	C 	0.99620 0.32210 0.52843 0.23800
C 	C 	0.01450 0.31750 0.49001 -0.35300
C 	C 	0.86540 0.31520 0.58280 0.42700
C 	C 	0.91250 0.45240 0.37756 0.30800
C 	C 	0.96970 0.50260 0.38910 -0.31000
C 	C 	0.91110 0.55160 0.38984 0.19000
C 	C 	0.79390 0.55230 0.38015 -0.22600
C 	C 	0.73700 0.50230 0.36792 0.17800
C 	C 	0.79690 0.45190 0.36683 -0.30700
C 	C 	0.72630 0.60520 0.38367 0.36900
C 	C 	0.18850 0.32830 0.28757 0.30600
C 	C 	0.30820 0.32140 0.29446 -0.30600
C 	C 	0.38850 0.32670 0.26663 0.18700
C 	C 	0.35270 0.33820 0.23153 -0.23700
C 	C 	0.23410 0.34560 0.22556 0.19300
C 	C 	0.15280 0.34050 0.25278 -0.30100
C 	C 	0.44030 0.34010 0.20096 0.40300
C 	C 	0.99180 0.15580 0.34360 -0.03300
C 	C 	0.09410 0.11500 0.33732 0.01900
C 	C 	0.18060 0.12340 0.36970 0.01600
C 	C 	0.04250 0.05680 0.33276 0.02300
C 	C 	0.16280 0.12450 0.30178 0.01800
C 	C 	0.14850 0.14600 0.43650 0.30300
C 	C 	0.26140 0.16650 0.44314 -0.29100
C 	C 	0.28960 0.19330 0.48006 0.18000
C 	C 	0.20590 0.20120 0.50721 -0.24500
C 	C 	0.09230 0.18080 0.49901 0.19000
C 	C 	0.06280 0.15360 0.46399 -0.29300
C 	C 	0.23300 0.23160 0.54496 0.45800
C 	C 	0.10880 0.96290 0.32871 0.32000
C 	C 	0.20670 0.92740 0.32790 -0.31100
C 	C 	0.18930 0.87250 0.33230 0.20900
C 	C 	0.07990 0.85160 0.33798 -0.25600
C 	C 	0.98380 0.88760 0.33841 0.21400
C 	C 	0.99920 0.94210 0.33330 -0.33100
C 	C 	0.06390 0.79350 0.34570 0.44600
C 	C 	0.09510 0.15030 0.24355 0.31400
C 	C 	0.99250 0.16300 0.22551 -0.30800
C 	C 	0.99660 0.19520 0.19727 0.19400
C 	C 	0.10530 0.21360 0.18520 -0.24700
C 	C 	0.20700 0.20010 0.20261 0.19400
C 	C 	0.20240 0.16900 0.23247 -0.30300
C 	C 	0.10970 0.24760 0.15456 0.42800
C 	C 	0.51330 0.69250 0.13112 0.00800
C 	C 	0.54240 0.69370 0.08936 0.02800
C 	C 	0.42540 0.64600 0.13488 0.03600
C 	C 	0.62860 0.68310 0.15019 0.02900
C 	C 	0.45670 0.74710 0.14834 -0.01600
C 	C 	0.42470 0.69920 0.03387 0.35600
C 	C 	0.31640 0.71240 0.02019 -0.36800
C 	C 	0.29820 0.70740 0.98290 0.25600
C 	C 	0.38780 0.68970 0.95765 -0.29500
C 	C 	0.49620 0.67790 0.97157 0.24200
C 	C 	0.51450 0.68250 0.00999 -0.35700
C 	C 	0.36540 0.68480 0.91720 0.42800
C 	C 	0.41250 0.54760 0.12244 0.30800
C 	C 	0.46970 0.49740 0.11090 -0.30900
C 	C 	0.41110 0.44840 0.11016 0.19000
C 	C 	0.29390 0.44770 0.11985 -0.22600
C 	C 	0.23700 0.49770 0.13208 0.17800
C 	C 	0.29690 0.54810 0.13317 -0.30600
C 	C 	0.22630 0.39480 0.11633 0.36900
C 	C 	0.68850 0.67170 0.21243 0.30600
C 	C 	0.80820 0.67860 0.20554 -0.30600
C 	C 	0.88850 0.67330 0.23337 0.18700
C 	C 	0.85270 0.66180 0.26847 -0.23700
C 	C 	0.73410 0.65440 0.27444 0.19300
C 	C 	0.65280 0.65950 0.24722 -0.30100
C 	C 	0.94030 0.65990 0.29904 0.40300
C 	C 	0.49180 0.84420 0.15640 -0.02900
C 	C 	0.59410 0.88500 0.16268 0.01800
C 	C 	0.68060 0.87660 0.13030 0.01700
C 	C 	0.54250 0.94320 0.16724 0.02100
C 	C 	0.66280 0.87550 0.19822 0.01900
C 	C 	0.64850 0.85400 0.06350 0.30500
C 	C 	0.76140 0.83350 0.05686 -0.29300
C 	C 	0.78960 0.80670 0.01994 0.18100
C 	C 	0.70590 0.79880 0.99279 -0.24600
C 	C 	0.59230 0.81920 0.00099 0.19200
C 	C 	0.56280 0.84640 0.03601 -0.29600
C 	C 	0.73300 0.76840 0.95504 0.45800
C 	C 	0.60880 0.03710 0.17129 0.32100
C 	C 	0.70670 0.07260 0.17210 -0.31100
C 	C 	0.68930 0.12750 0.16770 0.20900
C 	C 	0.57990 0.14840 0.16202 -0.25600
C 	C 	0.48380 0.11240 0.16159 0.21400
C 	C 	0.49920 0.05790 0.16670 -0.33100
C 	C 	0.56390 0.20650 0.15430 0.44600
C 	C 	0.59510 0.84970 0.25645 0.31300
C 	C 	0.49250 0.83700 0.27449 -0.30600
C 	C 	0.49660 0.80480 0.30273 0.19500
C 	C 	0.60530 0.78640 0.31480 -0.24900
C 	C 	0.70700 0.79990 0.29739 0.19400
C 	C 	0.70240 0.83100 0.26753 -0.30300
C 	C 	0.60970 0.75240 0.34544 0.42800
C 	C 	0.98670 0.69250 0.63112 0.01100
C 	C 	0.95760 0.69370 0.58936 0.02700
C 	C 	0.07460 0.64600 0.63488 0.03400
C 	C 	0.87140 0.68310 0.65019 0.02700
C 	C 	0.04330 0.74710 0.64834 -0.02000
C 	C 	0.07530 0.69920 0.53387 0.35300
C 	C 	0.18360 0.71240 0.52019 -0.36600
C 	C 	0.20180 0.70740 0.48290 0.25300
C 	C 	0.11220 0.68970 0.45765 -0.29300
C 	C 	0.00380 0.67790 0.47157 0.23800
C 	C 	0.98550 0.68250 0.50999 -0.35300
C 	C 	0.13460 0.68480 0.41720 0.42700
C 	C 	0.08750 0.54760 0.62244 0.30800
C 	C 	0.03030 0.49740 0.61090 -0.31000
C 	C 	0.08890 0.44840 0.61016 0.19000
C 	C 	0.20610 0.44770 0.61985 -0.22600
C 	C 	0.26300 0.49770 0.63208 0.17800
C 	C 	0.20310 0.54810 0.63317 -0.30700
C 	C 	0.27370 0.39480 0.61633 0.36900
C 	C 	0.81150 0.67170 0.71243 0.30600
C 	C 	0.69180 0.67860 0.70554 -0.30600
C 	C 	0.61150 0.67330 0.73337 0.18700
C 	C 	0.64730 0.66180 0.76847 -0.23700
C 	C 	0.76590 0.65440 0.77444 0.19300
C 	C 	0.84720 0.65950 0.74722 -0.30100
C 	C 	0.55970 0.65990 0.79904 0.40300
C 	C 	0.00820 0.84420 0.65640 -0.03300
C 	C 	0.90590 0.88500 0.66268 0.01900
C 	C 	0.81940 0.87660 0.63030 0.01600
C 	C 	0.95750 0.94320 0.66724 0.02300
C 	C 	0.83720 0.87550 0.69822 0.01800
C 	C 	0.85150 0.85400 0.56350 0.30300
C 	C 	0.73860 0.83350 0.55686 -0.29100
C 	C 	0.71040 0.80670 0.51994 0.18000
C 	C 	0.79410 0.79880 0.49279 -0.24500
C 	C 	0.90770 0.81920 0.50099 0.19000
C 	C 	0.93720 0.84640 0.53601 -0.29300
C 	C 	0.76700 0.76840 0.45504 0.45800
C 	C 	0.89120 0.03710 0.67129 0.32000
C 	C 	0.79330 0.07260 0.67210 -0.31100
C 	C 	0.81070 0.12750 0.66770 0.20900
C 	C 	0.92010 0.14840 0.66202 -0.25600
C 	C 	0.01620 0.11240 0.66159 0.21400
C 	C 	0.00080 0.05790 0.66670 -0.33100
C 	C 	0.93610 0.20650 0.65430 0.44600
C 	C 	0.90490 0.84970 0.75645 0.31400
C 	C 	0.00750 0.83700 0.77449 -0.30800
C 	C 	0.00340 0.80480 0.80273 0.19400
C 	C 	0.89470 0.78640 0.81480 -0.24700
C 	C 	0.79300 0.79990 0.79739 0.19400
C 	C 	0.79760 0.83100 0.76753 -0.30300
C 	C 	0.89030 0.75240 0.84544 0.42800
C 	C 	0.48670 0.30750 0.86888 0.00800
C 	C 	0.45760 0.30630 0.91064 0.02800
C 	C 	0.57460 0.35400 0.86512 0.03600
C 	C 	0.37140 0.31690 0.84981 0.02900
C 	C 	0.54330 0.25290 0.85166 -0.01600
C 	C 	0.57530 0.30080 0.96613 0.35600
C 	C 	0.68360 0.28760 0.97981 -0.36800
C 	C 	0.70180 0.29260 0.01710 0.25600
C 	C 	0.61220 0.31030 0.04235 -0.29500
C 	C 	0.50380 0.32210 0.02843 0.24200
C 	C 	0.48550 0.31750 0.99001 -0.35700
C 	C 	0.63460 0.31520 0.08280 0.42800
C 	C 	0.58750 0.45240 0.87756 0.30800
C 	C 	0.53030 0.50260 0.88910 -0.30900
C 	C 	0.58890 0.55160 0.88984 0.19000
C 	C 	0.70610 0.55230 0.88015 -0.22600
C 	C 	0.76300 0.50230 0.86792 0.17800
C 	C 	0.70310 0.45190 0.86683 -0.30600
C 	C 	0.77370 0.60520 0.88367 0.36900
C 	C 	0.31150 0.32830 0.78757 0.30600
C 	C 	0.19180 0.32140 0.79446 -0.30600
C 	C 	0.11150 0.32670 0.76663 0.18700
C 	C 	0.14730 0.33820 0.73153 -0.23700
C 	C 	0.26590 0.34560 0.72556 0.19300
C 	C 	0.34720 0.34050 0.75278 -0.30100
C 	C 	0.05970 0.34010 0.70096 0.40300
C 	C 	0.50820 0.15580 0.84360 -0.02900
C 	C 	0.40590 0.11500 0.83732 0.01800
C 	C 	0.31940 0.12340 0.86970 0.01700
C 	C 	0.45750 0.05680 0.83276 0.02100
C 	C 	0.33720 0.12450 0.80178 0.01900
C 	C 	0.35150 0.14600 0.93650 0.30500
C 	C 	0.23860 0.16650 0.94314 -0.29300
C 	C 	0.21040 0.19330 0.98006 0.18100
C 	C 	0.29410 0.20120 0.00721 -0.24600
C 	C 	0.40770 0.18080 0.99901 0.19200
C 	C 	0.43720 0.15360 0.96399 -0.29600
C 	C 	0.26700 0.23160 0.04496 0.45800
C 	C 	0.39120 0.96290 0.82871 0.32100
C 	C 	0.29330 0.92740 0.82790 -0.31100
C 	C 	0.31070 0.87250 0.83230 0.20900
C 	C 	0.42010 0.85160 0.83798 -0.25600
C 	C 	0.51620 0.88760 0.83841 0.21400
C 	C 	0.50080 0.94210 0.83330 -0.33100
C 	C 	0.43610 0.79350 0.84570 0.44600
C 	C 	0.40490 0.15030 0.74355 0.31300
C 	C 	0.50750 0.16300 0.72551 -0.30600
C 	C 	0.50340 0.19520 0.69727 0.19500
C 	C 	0.39470 0.21360 0.68520 -0.24900
C 	C 	0.29300 0.20010 0.70261 0.19400
C 	C 	0.29760 0.16900 0.73247 -0.30300
C 	C 	0.39030 0.24760 0.65456 0.42800
O 	O 	0.04050 0.20996 0.35247 -0.16300
O 	O 	0.93220 0.29500 0.42789 -0.26500
O 	O 	0.97890 0.40543 0.37870 -0.25600
O 	O 	0.10010 0.32373 0.31209 -0.25500
O 	O 	0.95380 0.31951 0.60558 -0.55900
O 	O 	0.76370 0.31613 0.59583 -0.44300
O 	O 	0.62300 0.60661 0.37135 -0.42200
O 	O 	0.77280 0.64973 0.40185 -0.52200
O 	O 	0.54980 0.33666 0.20802 -0.47400
O 	O 	0.40110 0.34514 0.16885 -0.48400
O 	O 	0.11280 0.11826 0.40278 -0.24500
O 	O 	0.13500 0.01713 0.32528 -0.25200
O 	O 	0.08190 0.11819 0.27117 -0.25500
O 	O 	0.15150 0.23524 0.56908 -0.46800
O 	O 	0.33400 0.25120 0.55082 -0.50800
O 	O 	0.15340 0.76221 0.34324 -0.47800
O 	O 	0.96110 0.77857 0.35319 -0.46700
O 	O 	0.20620 0.25730 0.14018 -0.53600
O 	O 	0.01540 0.26612 0.14151 -0.46400
O 	O 	0.54050 0.79004 0.14753 -0.16500
O 	O 	0.43220 0.70500 0.07211 -0.26500
O 	O 	0.47890 0.59457 0.12130 -0.25600
O 	O 	0.60010 0.67627 0.18791 -0.25600
O 	O 	0.45380 0.68049 0.89442 -0.55900
O 	O 	0.26370 0.68387 0.90417 -0.44300
O 	O 	0.12300 0.39339 0.12865 -0.42200
O 	O 	0.27280 0.35027 0.09815 -0.52200
O 	O 	0.04980 0.66334 0.29198 -0.47400
O 	O 	0.90110 0.65486 0.33115 -0.48400
O 	O 	0.61280 0.88174 0.09722 -0.24600
O 	O 	0.63500 0.98287 0.17472 -0.25200
O 	O 	0.58190 0.88181 0.22883 -0.25600
O 	O 	0.65150 0.76476 0.93092 -0.46800
O 	O 	0.83400 0.74880 0.94918 -0.50800
O 	O 	0.65340 0.23779 0.15676 -0.47800
O 	O 	0.46110 0.22143 0.14681 -0.46800
O 	O 	0.70620 0.74270 0.35982 -0.53600
O 	O 	0.51540 0.73388 0.35849 -0.46500
O 	O 	0.95950 0.79004 0.64753 -0.16300
O 	O 	0.06780 0.70500 0.57211 -0.26500
O 	O 	0.02110 0.59457 0.62130 -0.25600
O 	O 	0.89990 0.67627 0.68791 -0.25500
O 	O 	0.04620 0.68049 0.39442 -0.55900
O 	O 	0.23630 0.68387 0.40417 -0.44300
O 	O 	0.37700 0.39339 0.62865 -0.42200
O 	O 	0.22720 0.35027 0.59815 -0.52200
O 	O 	0.45020 0.66334 0.79198 -0.47400
O 	O 	0.59890 0.65486 0.83115 -0.48400
O 	O 	0.88720 0.88174 0.59722 -0.24500
O 	O 	0.86500 0.98287 0.67472 -0.25200
O 	O 	0.91810 0.88181 0.72883 -0.25500
O 	O 	0.84850 0.76476 0.43092 -0.46800
O 	O 	0.66600 0.74880 0.44918 -0.50800
O 	O 	0.84660 0.23779 0.65676 -0.47800
O 	O 	0.03890 0.22143 0.64681 -0.46700
O 	O 	0.79380 0.74270 0.85982 -0.53600
O 	O 	0.98460 0.73388 0.85849 -0.46400
O 	O 	0.45950 0.20996 0.85247 -0.16500
O 	O 	0.56780 0.29500 0.92789 -0.26500
O 	O 	0.52110 0.40543 0.87870 -0.25600
O 	O 	0.39990 0.32373 0.81209 -0.25600
O 	O 	0.54620 0.31951 0.10558 -0.55900
O 	O 	0.73630 0.31613 0.09583 -0.44300
O 	O 	0.87700 0.60661 0.87135 -0.42200
O 	O 	0.72720 0.64973 0.90185 -0.52200
O 	O 	0.95020 0.33666 0.70802 -0.47400
O 	O 	0.09890 0.34514 0.66885 -0.48400
O 	O 	0.38720 0.11826 0.90278 -0.24600
O 	O 	0.36500 0.01713 0.82528 -0.25200
O 	O 	0.41810 0.11819 0.77117 -0.25600
O 	O 	0.34850 0.23524 0.06908 -0.46800
O 	O 	0.16600 0.25120 0.05082 -0.50800
O 	O 	0.34660 0.76221 0.84324 -0.47800
O 	O 	0.53890 0.77857 0.85319 -0.46800
O 	O 	0.29380 0.25730 0.64018 -0.53600
O 	O 	0.48460 0.26612 0.64151 -0.46500
