data_crystal

_cell_length_a 32.36500
_cell_length_b 32.36500
_cell_length_c 32.36500
_cell_angle_alpha 90.00000
_cell_angle_beta  90.00000
_cell_angle_gamma 90.00000

_symmetry_space_group_name_	'P 1'
_symmetry_space_group_name_H-M	'P 1'

loop_
_symmetry_equiv_pos_as_xyz
  x,y,z

loop_
_atom_site_label
_atom_site_type_symbol
_atom_site_fract_x
_atom_site_fract_y
_atom_site_fract_z
_atom_site_charge
Cu	Cu	0.45958 0.25000 0.75000 0.91200
Cu	Cu	0.04042 0.25000 0.75000 0.91200
Cu	Cu	0.75000 0.45958 0.25000 0.91200
Cu	Cu	0.75000 0.04042 0.25000 0.91200
Cu	Cu	0.25000 0.75000 0.45958 0.91200
Cu	Cu	0.25000 0.75000 0.04042 0.91200
Cu	Cu	0.75000 0.54042 0.25000 0.91200
Cu	Cu	0.75000 0.95958 0.25000 0.91200
Cu	Cu	0.54042 0.25000 0.75000 0.91200
Cu	Cu	0.95958 0.25000 0.75000 0.91200
Cu	Cu	0.25000 0.75000 0.95958 0.91200
Cu	Cu	0.25000 0.75000 0.54042 0.91200
H 	H 	0.51410 0.38600 0.52890 0.14600
H 	H 	0.43040 0.32160 0.64730 0.01500
H 	H 	0.43000 0.36390 0.58860 0.12600
H 	H 	0.55520 0.36100 0.58570 0.11500
H 	H 	0.55560 0.31870 0.64430 0.02200
H 	H 	0.51900 0.41850 0.47890 0.03400
H 	H 	0.98590 0.11400 0.52890 0.14600
H 	H 	0.06960 0.17840 0.64730 0.01500
H 	H 	0.07000 0.13610 0.58860 0.12600
H 	H 	0.94480 0.13900 0.58570 0.11500
H 	H 	0.94440 0.18130 0.64430 0.02200
H 	H 	0.98100 0.08150 0.47890 0.03400
H 	H 	0.98590 0.38600 0.97110 0.14600
H 	H 	0.06960 0.32160 0.85270 0.01500
H 	H 	0.07000 0.36390 0.91140 0.12600
H 	H 	0.94480 0.36100 0.91430 0.11500
H 	H 	0.94440 0.31870 0.85570 0.02200
H 	H 	0.98100 0.41850 0.02110 0.03400
H 	H 	0.51410 0.11400 0.97110 0.14600
H 	H 	0.43040 0.17840 0.85270 0.01500
H 	H 	0.43000 0.13610 0.91140 0.12600
H 	H 	0.55520 0.13900 0.91430 0.11500
H 	H 	0.55560 0.18130 0.85570 0.02200
H 	H 	0.51900 0.08150 0.02110 0.03400
H 	H 	0.52890 0.51410 0.38600 0.14600
H 	H 	0.64730 0.43040 0.32160 0.01500
H 	H 	0.58860 0.43000 0.36390 0.12600
H 	H 	0.58570 0.55520 0.36100 0.11500
H 	H 	0.64430 0.55560 0.31870 0.02200
H 	H 	0.47890 0.51900 0.41850 0.03400
H 	H 	0.52890 0.98590 0.11400 0.14600
H 	H 	0.64730 0.06960 0.17840 0.01500
H 	H 	0.58860 0.07000 0.13610 0.12600
H 	H 	0.58570 0.94480 0.13900 0.11500
H 	H 	0.64430 0.94440 0.18130 0.02200
H 	H 	0.47890 0.98100 0.08150 0.03400
H 	H 	0.97110 0.98590 0.38600 0.14600
H 	H 	0.85270 0.06960 0.32160 0.01500
H 	H 	0.91140 0.07000 0.36390 0.12600
H 	H 	0.91430 0.94480 0.36100 0.11500
H 	H 	0.85570 0.94440 0.31870 0.02200
H 	H 	0.02110 0.98100 0.41850 0.03400
H 	H 	0.97110 0.51410 0.11400 0.14600
H 	H 	0.85270 0.43040 0.17840 0.01500
H 	H 	0.91140 0.43000 0.13610 0.12600
H 	H 	0.91430 0.55520 0.13900 0.11500
H 	H 	0.85570 0.55560 0.18130 0.02200
H 	H 	0.02110 0.51900 0.08150 0.03400
H 	H 	0.38600 0.52890 0.51410 0.14600
H 	H 	0.32160 0.64730 0.43040 0.01500
H 	H 	0.36390 0.58860 0.43000 0.12600
H 	H 	0.36100 0.58570 0.55520 0.11500
H 	H 	0.31870 0.64430 0.55560 0.02200
H 	H 	0.41850 0.47890 0.51900 0.03400
H 	H 	0.11400 0.52890 0.98590 0.14600
H 	H 	0.17840 0.64730 0.06960 0.01500
H 	H 	0.13610 0.58860 0.07000 0.12600
H 	H 	0.13900 0.58570 0.94480 0.11500
H 	H 	0.18130 0.64430 0.94440 0.02200
H 	H 	0.08150 0.47890 0.98100 0.03400
H 	H 	0.38600 0.97110 0.98590 0.14600
H 	H 	0.32160 0.85270 0.06960 0.01500
H 	H 	0.36390 0.91140 0.07000 0.12600
H 	H 	0.36100 0.91430 0.94480 0.11500
H 	H 	0.31870 0.85570 0.94440 0.02200
H 	H 	0.41850 0.02110 0.98100 0.03400
H 	H 	0.11400 0.97110 0.51410 0.14600
H 	H 	0.17840 0.85270 0.43040 0.01500
H 	H 	0.13610 0.91140 0.43000 0.12600
H 	H 	0.13900 0.91430 0.55520 0.11500
H 	H 	0.18130 0.85570 0.55560 0.02200
H 	H 	0.08150 0.02110 0.51900 0.03400
H 	H 	0.61400 0.48590 0.02890 0.14600
H 	H 	0.67840 0.56960 0.14730 0.01500
H 	H 	0.63610 0.57000 0.08860 0.12600
H 	H 	0.63900 0.44480 0.08570 0.11500
H 	H 	0.68130 0.44440 0.14430 0.02200
H 	H 	0.58150 0.48100 0.97890 0.03400
H 	H 	0.88600 0.01410 0.02890 0.14600
H 	H 	0.82160 0.93040 0.14730 0.01500
H 	H 	0.86390 0.93000 0.08860 0.12600
H 	H 	0.86100 0.05520 0.08570 0.11500
H 	H 	0.81870 0.05560 0.14430 0.02200
H 	H 	0.91850 0.01900 0.97890 0.03400
H 	H 	0.61400 0.01410 0.47110 0.14600
H 	H 	0.67840 0.93040 0.35270 0.01500
H 	H 	0.63610 0.93000 0.41140 0.12600
H 	H 	0.63900 0.05520 0.41430 0.11500
H 	H 	0.68130 0.05560 0.35570 0.02200
H 	H 	0.58150 0.01900 0.52110 0.03400
H 	H 	0.88600 0.48590 0.47110 0.14600
H 	H 	0.82160 0.56960 0.35270 0.01500
H 	H 	0.86390 0.57000 0.41140 0.12600
H 	H 	0.86100 0.44480 0.41430 0.11500
H 	H 	0.81870 0.44440 0.35570 0.02200
H 	H 	0.91850 0.48100 0.52110 0.03400
H 	H 	0.48590 0.47110 0.88600 0.14600
H 	H 	0.56960 0.35270 0.82160 0.01500
H 	H 	0.57000 0.41140 0.86390 0.12600
H 	H 	0.44480 0.41430 0.86100 0.11500
H 	H 	0.44440 0.35570 0.81870 0.02200
H 	H 	0.48100 0.52110 0.91850 0.03400
H 	H 	0.01410 0.47110 0.61400 0.14600
H 	H 	0.93040 0.35270 0.67840 0.01500
H 	H 	0.93000 0.41140 0.63610 0.12600
H 	H 	0.05520 0.41430 0.63900 0.11500
H 	H 	0.05560 0.35570 0.68130 0.02200
H 	H 	0.01900 0.52110 0.58150 0.03400
H 	H 	0.01410 0.02890 0.88600 0.14600
H 	H 	0.93040 0.14730 0.82160 0.01500
H 	H 	0.93000 0.08860 0.86390 0.12600
H 	H 	0.05520 0.08570 0.86100 0.11500
H 	H 	0.05560 0.14430 0.81870 0.02200
H 	H 	0.01900 0.97890 0.91850 0.03400
H 	H 	0.48590 0.02890 0.61400 0.14600
H 	H 	0.56960 0.14730 0.67840 0.01500
H 	H 	0.57000 0.08860 0.63610 0.12600
H 	H 	0.44480 0.08570 0.63900 0.11500
H 	H 	0.44440 0.14430 0.68130 0.02200
H 	H 	0.48100 0.97890 0.58150 0.03400
H 	H 	0.47110 0.61400 0.01410 0.14600
H 	H 	0.35270 0.67840 0.93040 0.01500
H 	H 	0.41140 0.63610 0.93000 0.12600
H 	H 	0.41430 0.63900 0.05520 0.11500
H 	H 	0.35570 0.68130 0.05560 0.02200
H 	H 	0.52110 0.58150 0.01900 0.03400
H 	H 	0.47110 0.88600 0.48590 0.14600
H 	H 	0.35270 0.82160 0.56960 0.01500
H 	H 	0.41140 0.86390 0.57000 0.12600
H 	H 	0.41430 0.86100 0.44480 0.11500
H 	H 	0.35570 0.81870 0.44440 0.02200
H 	H 	0.52110 0.91850 0.48100 0.03400
H 	H 	0.02890 0.61400 0.48590 0.14600
H 	H 	0.14730 0.67840 0.56960 0.01500
H 	H 	0.08860 0.63610 0.57000 0.12600
H 	H 	0.08570 0.63900 0.44480 0.11500
H 	H 	0.14430 0.68130 0.44440 0.02200
H 	H 	0.97890 0.58150 0.48100 0.03400
H 	H 	0.02890 0.88600 0.01410 0.14600
H 	H 	0.14730 0.82160 0.93040 0.01500
H 	H 	0.08860 0.86390 0.93000 0.12600
H 	H 	0.08570 0.86100 0.05520 0.11500
H 	H 	0.14430 0.81870 0.05560 0.02200
H 	H 	0.97890 0.91850 0.01900 0.03400
C 	C 	0.49790 0.29000 0.69007 0.41100
C 	C 	0.49300 0.31615 0.65130 -0.14500
C 	C 	0.45570 0.32956 0.63476 0.11200
C 	C 	0.45550 0.35469 0.59993 -0.21500
C 	C 	0.49250 0.36641 0.58165 0.22300
C 	C 	0.52980 0.35300 0.59819 -0.20700
C 	C 	0.53010 0.32787 0.63302 0.10200
C 	C 	0.46550 0.41690 0.53850 0.27000
C 	C 	0.46740 0.44340 0.50280 -0.10000
C 	C 	0.49920 0.43990 0.47560 0.04500
C 	C 	0.00210 0.21000 0.69007 0.41100
C 	C 	0.00700 0.18385 0.65130 -0.14500
C 	C 	0.04430 0.17044 0.63476 0.11200
C 	C 	0.04450 0.14531 0.59993 -0.21500
C 	C 	0.00750 0.13359 0.58165 0.22300
C 	C 	0.97020 0.14700 0.59819 -0.20700
C 	C 	0.96990 0.17213 0.63302 0.10200
C 	C 	0.03450 0.08310 0.53850 0.27000
C 	C 	0.03260 0.05660 0.50280 -0.09900
C 	C 	0.00080 0.06010 0.47560 0.04400
C 	C 	0.00210 0.29000 0.80993 0.41100
C 	C 	0.00700 0.31615 0.84870 -0.14500
C 	C 	0.04430 0.32956 0.86524 0.11200
C 	C 	0.04450 0.35469 0.90007 -0.21500
C 	C 	0.00750 0.36641 0.91835 0.22300
C 	C 	0.97020 0.35300 0.90181 -0.20700
C 	C 	0.96990 0.32787 0.86698 0.10200
C 	C 	0.03450 0.41690 0.96150 0.27000
C 	C 	0.03260 0.44340 0.99720 -0.09900
C 	C 	0.00080 0.43990 0.02440 0.04400
C 	C 	0.49790 0.21000 0.80993 0.41100
C 	C 	0.49300 0.18385 0.84870 -0.14500
C 	C 	0.45570 0.17044 0.86524 0.11200
C 	C 	0.45550 0.14531 0.90007 -0.21500
C 	C 	0.49250 0.13359 0.91835 0.22300
C 	C 	0.52980 0.14700 0.90181 -0.20700
C 	C 	0.53010 0.17213 0.86698 0.10200
C 	C 	0.46550 0.08310 0.96150 0.27000
C 	C 	0.46740 0.05660 0.99720 -0.09900
C 	C 	0.49920 0.06010 0.02440 0.04400
C 	C 	0.69007 0.49790 0.29000 0.41100
C 	C 	0.65130 0.49300 0.31615 -0.14500
C 	C 	0.63476 0.45570 0.32956 0.11200
C 	C 	0.59993 0.45550 0.35469 -0.21500
C 	C 	0.58165 0.49250 0.36641 0.22300
C 	C 	0.59819 0.52980 0.35300 -0.20700
C 	C 	0.63302 0.53010 0.32787 0.10200
C 	C 	0.53850 0.46550 0.41690 0.27000
C 	C 	0.50280 0.46740 0.44340 -0.10000
C 	C 	0.47560 0.49920 0.43990 0.04500
C 	C 	0.69007 0.00210 0.21000 0.41100
C 	C 	0.65130 0.00700 0.18385 -0.14500
C 	C 	0.63476 0.04430 0.17044 0.11200
C 	C 	0.59993 0.04450 0.14531 -0.21500
C 	C 	0.58165 0.00750 0.13359 0.22300
C 	C 	0.59819 0.97020 0.14700 -0.20700
C 	C 	0.63302 0.96990 0.17213 0.10200
C 	C 	0.53850 0.03450 0.08310 0.27000
C 	C 	0.50280 0.03260 0.05660 -0.09900
C 	C 	0.47560 0.00080 0.06010 0.04400
C 	C 	0.80993 0.00210 0.29000 0.41100
C 	C 	0.84870 0.00700 0.31615 -0.14500
C 	C 	0.86524 0.04430 0.32956 0.11200
C 	C 	0.90007 0.04450 0.35469 -0.21500
C 	C 	0.91835 0.00750 0.36641 0.22300
C 	C 	0.90181 0.97020 0.35300 -0.20700
C 	C 	0.86698 0.96990 0.32787 0.10200
C 	C 	0.96150 0.03450 0.41690 0.27000
C 	C 	0.99720 0.03260 0.44340 -0.09900
C 	C 	0.02440 0.00080 0.43990 0.04400
C 	C 	0.80993 0.49790 0.21000 0.41100
C 	C 	0.84870 0.49300 0.18385 -0.14500
C 	C 	0.86524 0.45570 0.17044 0.11200
C 	C 	0.90007 0.45550 0.14531 -0.21500
C 	C 	0.91835 0.49250 0.13359 0.22300
C 	C 	0.90181 0.52980 0.14700 -0.20700
C 	C 	0.86698 0.53010 0.17213 0.10200
C 	C 	0.96150 0.46550 0.08310 0.27000
C 	C 	0.99720 0.46740 0.05660 -0.09900
C 	C 	0.02440 0.49920 0.06010 0.04400
C 	C 	0.29000 0.69007 0.49790 0.41100
C 	C 	0.31615 0.65130 0.49300 -0.14500
C 	C 	0.32956 0.63476 0.45570 0.11200
C 	C 	0.35469 0.59993 0.45550 -0.21500
C 	C 	0.36641 0.58165 0.49250 0.22300
C 	C 	0.35300 0.59819 0.52980 -0.20700
C 	C 	0.32787 0.63302 0.53010 0.10200
C 	C 	0.41690 0.53850 0.46550 0.27000
C 	C 	0.44340 0.50280 0.46740 -0.10000
C 	C 	0.43990 0.47560 0.49920 0.04500
C 	C 	0.21000 0.69007 0.00210 0.41100
C 	C 	0.18385 0.65130 0.00700 -0.14500
C 	C 	0.17044 0.63476 0.04430 0.11200
C 	C 	0.14531 0.59993 0.04450 -0.21500
C 	C 	0.13359 0.58165 0.00750 0.22300
C 	C 	0.14700 0.59819 0.97020 -0.20700
C 	C 	0.17213 0.63302 0.96990 0.10200
C 	C 	0.08310 0.53850 0.03450 0.27000
C 	C 	0.05660 0.50280 0.03260 -0.09900
C 	C 	0.06010 0.47560 0.00080 0.04400
C 	C 	0.29000 0.80993 0.00210 0.41100
C 	C 	0.31615 0.84870 0.00700 -0.14500
C 	C 	0.32956 0.86524 0.04430 0.11200
C 	C 	0.35469 0.90007 0.04450 -0.21500
C 	C 	0.36641 0.91835 0.00750 0.22300
C 	C 	0.35300 0.90181 0.97020 -0.20700
C 	C 	0.32787 0.86698 0.96990 0.10200
C 	C 	0.41690 0.96150 0.03450 0.27000
C 	C 	0.44340 0.99720 0.03260 -0.09900
C 	C 	0.43990 0.02440 0.00080 0.04400
C 	C 	0.21000 0.80993 0.49790 0.41100
C 	C 	0.18385 0.84870 0.49300 -0.14500
C 	C 	0.17044 0.86524 0.45570 0.11200
C 	C 	0.14531 0.90007 0.45550 -0.21500
C 	C 	0.13359 0.91835 0.49250 0.22300
C 	C 	0.14700 0.90181 0.52980 -0.20700
C 	C 	0.17213 0.86698 0.53010 0.10200
C 	C 	0.08310 0.96150 0.46550 0.27000
C 	C 	0.05660 0.99720 0.46740 -0.09900
C 	C 	0.06010 0.02440 0.49920 0.04400
C 	C 	0.71000 0.50210 0.19007 0.41100
C 	C 	0.68385 0.50700 0.15130 -0.14500
C 	C 	0.67044 0.54430 0.13476 0.11200
C 	C 	0.64531 0.54450 0.09993 -0.21500
C 	C 	0.63359 0.50750 0.08165 0.22300
C 	C 	0.64700 0.47020 0.09819 -0.20700
C 	C 	0.67213 0.46990 0.13302 0.10200
C 	C 	0.58310 0.53450 0.03850 0.27000
C 	C 	0.55660 0.53260 0.00280 -0.10000
C 	C 	0.56010 0.50080 0.97560 0.04500
C 	C 	0.79000 0.99790 0.19007 0.41100
C 	C 	0.81615 0.99300 0.15130 -0.14500
C 	C 	0.82956 0.95570 0.13476 0.11200
C 	C 	0.85469 0.95550 0.09993 -0.21500
C 	C 	0.86641 0.99250 0.08165 0.22300
C 	C 	0.85300 0.02980 0.09819 -0.20700
C 	C 	0.82787 0.03010 0.13302 0.10200
C 	C 	0.91690 0.96550 0.03850 0.27000
C 	C 	0.94340 0.96740 0.00280 -0.09800
C 	C 	0.93990 0.99920 0.97560 0.04300
C 	C 	0.71000 0.99790 0.30993 0.41100
C 	C 	0.68385 0.99300 0.34870 -0.14500
C 	C 	0.67044 0.95570 0.36524 0.11200
C 	C 	0.64531 0.95550 0.40007 -0.21500
C 	C 	0.63359 0.99250 0.41835 0.22300
C 	C 	0.64700 0.02980 0.40181 -0.20700
C 	C 	0.67213 0.03010 0.36698 0.10200
C 	C 	0.58310 0.96550 0.46150 0.27000
C 	C 	0.55660 0.96740 0.49720 -0.10000
C 	C 	0.56010 0.99920 0.52440 0.04500
C 	C 	0.79000 0.50210 0.30993 0.41100
C 	C 	0.81615 0.50700 0.34870 -0.14500
C 	C 	0.82956 0.54430 0.36524 0.11200
C 	C 	0.85469 0.54450 0.40007 -0.21500
C 	C 	0.86641 0.50750 0.41835 0.22300
C 	C 	0.85300 0.47020 0.40181 -0.20700
C 	C 	0.82787 0.46990 0.36698 0.10200
C 	C 	0.91690 0.53450 0.46150 0.27000
C 	C 	0.94340 0.53260 0.49720 -0.10000
C 	C 	0.93990 0.50080 0.52440 0.04500
C 	C 	0.50210 0.30993 0.79000 0.41100
C 	C 	0.50700 0.34870 0.81615 -0.14500
C 	C 	0.54430 0.36524 0.82956 0.11200
C 	C 	0.54450 0.40007 0.85469 -0.21500
C 	C 	0.50750 0.41835 0.86641 0.22300
C 	C 	0.47020 0.40181 0.85300 -0.20700
C 	C 	0.46990 0.36698 0.82787 0.10200
C 	C 	0.53450 0.46150 0.91690 0.27000
C 	C 	0.53260 0.49720 0.94340 -0.10000
C 	C 	0.50080 0.52440 0.93990 0.04500
C 	C 	0.99790 0.30993 0.71000 0.41100
C 	C 	0.99300 0.34870 0.68385 -0.14500
C 	C 	0.95570 0.36524 0.67044 0.11200
C 	C 	0.95550 0.40007 0.64531 -0.21500
C 	C 	0.99250 0.41835 0.63359 0.22300
C 	C 	0.02980 0.40181 0.64700 -0.20700
C 	C 	0.03010 0.36698 0.67213 0.10200
C 	C 	0.96550 0.46150 0.58310 0.27000
C 	C 	0.96740 0.49720 0.55660 -0.10000
C 	C 	0.99920 0.52440 0.56010 0.04500
C 	C 	0.99790 0.19007 0.79000 0.41100
C 	C 	0.99300 0.15130 0.81615 -0.14500
C 	C 	0.95570 0.13476 0.82956 0.11200
C 	C 	0.95550 0.09993 0.85469 -0.21500
C 	C 	0.99250 0.08165 0.86641 0.22300
C 	C 	0.02980 0.09819 0.85300 -0.20700
C 	C 	0.03010 0.13302 0.82787 0.10200
C 	C 	0.96550 0.03850 0.91690 0.27000
C 	C 	0.96740 0.00280 0.94340 -0.09800
C 	C 	0.99920 0.97560 0.93990 0.04300
C 	C 	0.50210 0.19007 0.71000 0.41100
C 	C 	0.50700 0.15130 0.68385 -0.14500
C 	C 	0.54430 0.13476 0.67044 0.11200
C 	C 	0.54450 0.09993 0.64531 -0.21500
C 	C 	0.50750 0.08165 0.63359 0.22300
C 	C 	0.47020 0.09819 0.64700 -0.20700
C 	C 	0.46990 0.13302 0.67213 0.10200
C 	C 	0.53450 0.03850 0.58310 0.27000
C 	C 	0.53260 0.00280 0.55660 -0.10000
C 	C 	0.50080 0.97560 0.56010 0.04500
C 	C 	0.30993 0.71000 0.99790 0.41100
C 	C 	0.34870 0.68385 0.99300 -0.14500
C 	C 	0.36524 0.67044 0.95570 0.11200
C 	C 	0.40007 0.64531 0.95550 -0.21500
C 	C 	0.41835 0.63359 0.99250 0.22300
C 	C 	0.40181 0.64700 0.02980 -0.20700
C 	C 	0.36698 0.67213 0.03010 0.10200
C 	C 	0.46150 0.58310 0.96550 0.27000
C 	C 	0.49720 0.55660 0.96740 -0.10000
C 	C 	0.52440 0.56010 0.99920 0.04500
C 	C 	0.30993 0.79000 0.50210 0.41100
C 	C 	0.34870 0.81615 0.50700 -0.14500
C 	C 	0.36524 0.82956 0.54430 0.11200
C 	C 	0.40007 0.85469 0.54450 -0.21500
C 	C 	0.41835 0.86641 0.50750 0.22300
C 	C 	0.40181 0.85300 0.47020 -0.20700
C 	C 	0.36698 0.82787 0.46990 0.10200
C 	C 	0.46150 0.91690 0.53450 0.27000
C 	C 	0.49720 0.94340 0.53260 -0.10000
C 	C 	0.52440 0.93990 0.50080 0.04500
C 	C 	0.19007 0.71000 0.50210 0.41100
C 	C 	0.15130 0.68385 0.50700 -0.14500
C 	C 	0.13476 0.67044 0.54430 0.11200
C 	C 	0.09993 0.64531 0.54450 -0.21500
C 	C 	0.08165 0.63359 0.50750 0.22300
C 	C 	0.09819 0.64700 0.47020 -0.20700
C 	C 	0.13302 0.67213 0.46990 0.10200
C 	C 	0.03850 0.58310 0.53450 0.27000
C 	C 	0.00280 0.55660 0.53260 -0.10000
C 	C 	0.97560 0.56010 0.50080 0.04500
C 	C 	0.19007 0.79000 0.99790 0.41100
C 	C 	0.15130 0.81615 0.99300 -0.14500
C 	C 	0.13476 0.82956 0.95570 0.11200
C 	C 	0.09993 0.85469 0.95550 -0.21500
C 	C 	0.08165 0.86641 0.99250 0.22300
C 	C 	0.09819 0.85300 0.02980 -0.20700
C 	C 	0.13302 0.82787 0.03010 0.10200
C 	C 	0.03850 0.91690 0.96550 0.27000
C 	C 	0.00280 0.94340 0.96740 -0.09800
C 	C 	0.97560 0.93990 0.99920 0.04300
N 	N 	0.49370 0.38960 0.54650 -0.27800
N 	N 	0.00630 0.11040 0.54650 -0.27800
N 	N 	0.00630 0.38960 0.95350 -0.27800
N 	N 	0.49370 0.11040 0.95350 -0.27800
N 	N 	0.54650 0.49370 0.38960 -0.27800
N 	N 	0.54650 0.00630 0.11040 -0.27800
N 	N 	0.95350 0.00630 0.38960 -0.27800
N 	N 	0.95350 0.49370 0.11040 -0.27800
N 	N 	0.38960 0.54650 0.49370 -0.27800
N 	N 	0.11040 0.54650 0.00630 -0.27800
N 	N 	0.38960 0.95350 0.00630 -0.27800
N 	N 	0.11040 0.95350 0.49370 -0.27800
N 	N 	0.61040 0.50630 0.04650 -0.27800
N 	N 	0.88960 0.99370 0.04650 -0.27800
N 	N 	0.61040 0.99370 0.45350 -0.27800
N 	N 	0.88960 0.50630 0.45350 -0.27800
N 	N 	0.50630 0.45350 0.88960 -0.27800
N 	N 	0.99370 0.45350 0.61040 -0.27800
N 	N 	0.99370 0.04650 0.88960 -0.27800
N 	N 	0.50630 0.04650 0.61040 -0.27800
N 	N 	0.45350 0.61040 0.99370 -0.27800
N 	N 	0.45350 0.88960 0.50630 -0.27800
N 	N 	0.04650 0.61040 0.50630 -0.27800
N 	N 	0.04650 0.88960 0.99370 -0.27800
O 	O 	0.46364 0.28427 0.70328 -0.44900
O 	O 	0.53390 0.28460 0.70050 -0.42800
O 	O 	0.43310 0.42560 0.55540 -0.25500
O 	O 	0.03636 0.21573 0.70328 -0.44900
O 	O 	0.96610 0.21540 0.70050 -0.42800
O 	O 	0.06690 0.07440 0.55540 -0.25500
O 	O 	0.03636 0.28427 0.79672 -0.44900
O 	O 	0.96610 0.28460 0.79950 -0.42800
O 	O 	0.06690 0.42560 0.94460 -0.25500
O 	O 	0.46364 0.21573 0.79672 -0.44900
O 	O 	0.53390 0.21540 0.79950 -0.42800
O 	O 	0.43310 0.07440 0.94460 -0.25500
O 	O 	0.70328 0.46364 0.28427 -0.44900
O 	O 	0.70050 0.53390 0.28460 -0.42800
O 	O 	0.55540 0.43310 0.42560 -0.25500
O 	O 	0.70328 0.03636 0.21573 -0.44900
O 	O 	0.70050 0.96610 0.21540 -0.42800
O 	O 	0.55540 0.06690 0.07440 -0.25500
O 	O 	0.79672 0.03636 0.28427 -0.44900
O 	O 	0.79950 0.96610 0.28460 -0.42800
O 	O 	0.94460 0.06690 0.42560 -0.25500
O 	O 	0.79672 0.46364 0.21573 -0.44900
O 	O 	0.79950 0.53390 0.21540 -0.42800
O 	O 	0.94460 0.43310 0.07440 -0.25500
O 	O 	0.28427 0.70328 0.46364 -0.44900
O 	O 	0.28460 0.70050 0.53390 -0.42800
O 	O 	0.42560 0.55540 0.43310 -0.25500
O 	O 	0.21573 0.70328 0.03636 -0.44900
O 	O 	0.21540 0.70050 0.96610 -0.42800
O 	O 	0.07440 0.55540 0.06690 -0.25500
O 	O 	0.28427 0.79672 0.03636 -0.44900
O 	O 	0.28460 0.79950 0.96610 -0.42800
O 	O 	0.42560 0.94460 0.06690 -0.25500
O 	O 	0.21573 0.79672 0.46364 -0.44900
O 	O 	0.21540 0.79950 0.53390 -0.42800
O 	O 	0.07440 0.94460 0.43310 -0.25500
O 	O 	0.71573 0.53636 0.20328 -0.44900
O 	O 	0.71540 0.46610 0.20050 -0.42800
O 	O 	0.57440 0.56690 0.05540 -0.25500
O 	O 	0.78427 0.96364 0.20328 -0.44900
O 	O 	0.78460 0.03390 0.20050 -0.42800
O 	O 	0.92560 0.93310 0.05540 -0.25500
O 	O 	0.71573 0.96364 0.29672 -0.44900
O 	O 	0.71540 0.03390 0.29950 -0.42800
O 	O 	0.57440 0.93310 0.44460 -0.25500
O 	O 	0.78427 0.53636 0.29672 -0.44900
O 	O 	0.78460 0.46610 0.29950 -0.42800
O 	O 	0.92560 0.56690 0.44460 -0.25500
O 	O 	0.53636 0.29672 0.78427 -0.44900
O 	O 	0.46610 0.29950 0.78460 -0.42800
O 	O 	0.56690 0.44460 0.92560 -0.25500
O 	O 	0.96364 0.29672 0.71573 -0.44900
O 	O 	0.03390 0.29950 0.71540 -0.42800
O 	O 	0.93310 0.44460 0.57440 -0.25500
O 	O 	0.96364 0.20328 0.78427 -0.44900
O 	O 	0.03390 0.20050 0.78460 -0.42800
O 	O 	0.93310 0.05540 0.92560 -0.25500
O 	O 	0.53636 0.20328 0.71573 -0.44900
O 	O 	0.46610 0.20050 0.71540 -0.42800
O 	O 	0.56690 0.05540 0.57440 -0.25500
O 	O 	0.29672 0.71573 0.96364 -0.44900
O 	O 	0.29950 0.71540 0.03390 -0.42800
O 	O 	0.44460 0.57440 0.93310 -0.25500
O 	O 	0.29672 0.78427 0.53636 -0.44900
O 	O 	0.29950 0.78460 0.46610 -0.42800
O 	O 	0.44460 0.92560 0.56690 -0.25500
O 	O 	0.20328 0.71573 0.53636 -0.44900
O 	O 	0.20050 0.71540 0.46610 -0.42800
O 	O 	0.05540 0.57440 0.56690 -0.25500
O 	O 	0.20328 0.78427 0.96364 -0.44900
O 	O 	0.20050 0.78460 0.03390 -0.42800
O 	O 	0.05540 0.92560 0.93310 -0.25500
Cu	Cu	0.25000 0.45958 0.75000 0.91200
Cu	Cu	0.25000 0.04042 0.75000 0.91200
Cu	Cu	0.45958 0.75000 0.25000 0.91200
Cu	Cu	0.04042 0.75000 0.25000 0.91200
Cu	Cu	0.75000 0.25000 0.04042 0.91200
Cu	Cu	0.75000 0.25000 0.45958 0.91200
Cu	Cu	0.54042 0.75000 0.25000 0.91200
Cu	Cu	0.95958 0.75000 0.25000 0.91200
Cu	Cu	0.25000 0.54042 0.75000 0.91200
Cu	Cu	0.25000 0.95958 0.75000 0.91200
Cu	Cu	0.75000 0.25000 0.54042 0.91200
Cu	Cu	0.75000 0.25000 0.95958 0.91200
H 	H 	0.38600 0.51410 0.97110 0.14600
H 	H 	0.32160 0.43040 0.85270 0.01500
H 	H 	0.36390 0.43000 0.91140 0.12600
H 	H 	0.36100 0.55520 0.91430 0.11500
H 	H 	0.31870 0.55560 0.85570 0.02200
H 	H 	0.41850 0.51900 0.02110 0.03400
H 	H 	0.11400 0.98590 0.97110 0.14600
H 	H 	0.17840 0.06960 0.85270 0.01500
H 	H 	0.13610 0.07000 0.91140 0.12600
H 	H 	0.13900 0.94480 0.91430 0.11500
H 	H 	0.18130 0.94440 0.85570 0.02200
H 	H 	0.08150 0.98100 0.02110 0.03400
H 	H 	0.38600 0.98590 0.52890 0.14600
H 	H 	0.32160 0.06960 0.64730 0.01500
H 	H 	0.36390 0.07000 0.58860 0.12600
H 	H 	0.36100 0.94480 0.58570 0.11500
H 	H 	0.31870 0.94440 0.64430 0.02200
H 	H 	0.41850 0.98100 0.47890 0.03400
H 	H 	0.11400 0.51410 0.52890 0.14600
H 	H 	0.17840 0.43040 0.64730 0.01500
H 	H 	0.13610 0.43000 0.58860 0.12600
H 	H 	0.13900 0.55520 0.58570 0.11500
H 	H 	0.18130 0.55560 0.64430 0.02200
H 	H 	0.08150 0.51900 0.47890 0.03400
H 	H 	0.51410 0.52890 0.11400 0.14600
H 	H 	0.43040 0.64730 0.17840 0.01500
H 	H 	0.43000 0.58860 0.13610 0.12600
H 	H 	0.55520 0.58570 0.13900 0.11500
H 	H 	0.55560 0.64430 0.18130 0.02200
H 	H 	0.51900 0.47890 0.08150 0.03400
H 	H 	0.98590 0.52890 0.38600 0.14600
H 	H 	0.06960 0.64730 0.32160 0.01500
H 	H 	0.07000 0.58860 0.36390 0.12600
H 	H 	0.94480 0.58570 0.36100 0.11500
H 	H 	0.94440 0.64430 0.31870 0.02200
H 	H 	0.98100 0.47890 0.41850 0.03400
H 	H 	0.98590 0.97110 0.11400 0.14600
H 	H 	0.06960 0.85270 0.17840 0.01500
H 	H 	0.07000 0.91140 0.13610 0.12600
H 	H 	0.94480 0.91430 0.13900 0.11500
H 	H 	0.94440 0.85570 0.18130 0.02200
H 	H 	0.98100 0.02110 0.08150 0.03400
H 	H 	0.51410 0.97110 0.38600 0.14600
H 	H 	0.43040 0.85270 0.32160 0.01500
H 	H 	0.43000 0.91140 0.36390 0.12600
H 	H 	0.55520 0.91430 0.36100 0.11500
H 	H 	0.55560 0.85570 0.31870 0.02200
H 	H 	0.51900 0.02110 0.41850 0.03400
H 	H 	0.52890 0.38600 0.98590 0.14600
H 	H 	0.64730 0.32160 0.06960 0.01500
H 	H 	0.58860 0.36390 0.07000 0.12600
H 	H 	0.58570 0.36100 0.94480 0.11500
H 	H 	0.64430 0.31870 0.94440 0.02200
H 	H 	0.47890 0.41850 0.98100 0.03400
H 	H 	0.52890 0.11400 0.51410 0.14600
H 	H 	0.64730 0.17840 0.43040 0.01500
H 	H 	0.58860 0.13610 0.43000 0.12600
H 	H 	0.58570 0.13900 0.55520 0.11500
H 	H 	0.64430 0.18130 0.55560 0.02200
H 	H 	0.47890 0.08150 0.51900 0.03400
H 	H 	0.97110 0.38600 0.51410 0.14600
H 	H 	0.85270 0.32160 0.43040 0.01500
H 	H 	0.91140 0.36390 0.43000 0.12600
H 	H 	0.91430 0.36100 0.55520 0.11500
H 	H 	0.85570 0.31870 0.55560 0.02200
H 	H 	0.02110 0.41850 0.51900 0.03400
H 	H 	0.97110 0.11400 0.98590 0.14600
H 	H 	0.85270 0.17840 0.06960 0.01500
H 	H 	0.91140 0.13610 0.07000 0.12600
H 	H 	0.91430 0.13900 0.94480 0.11500
H 	H 	0.85570 0.18130 0.94440 0.02200
H 	H 	0.02110 0.08150 0.98100 0.03400
H 	H 	0.48590 0.61400 0.47110 0.14600
H 	H 	0.56960 0.67840 0.35270 0.01500
H 	H 	0.57000 0.63610 0.41140 0.12600
H 	H 	0.44480 0.63900 0.41430 0.11500
H 	H 	0.44440 0.68130 0.35570 0.02200
H 	H 	0.48100 0.58150 0.52110 0.03400
H 	H 	0.01410 0.88600 0.47110 0.14600
H 	H 	0.93040 0.82160 0.35270 0.01500
H 	H 	0.93000 0.86390 0.41140 0.12600
H 	H 	0.05520 0.86100 0.41430 0.11500
H 	H 	0.05560 0.81870 0.35570 0.02200
H 	H 	0.01900 0.91850 0.52110 0.03400
H 	H 	0.01410 0.61400 0.02890 0.14600
H 	H 	0.93040 0.67840 0.14730 0.01500
H 	H 	0.93000 0.63610 0.08860 0.12600
H 	H 	0.05520 0.63900 0.08570 0.11500
H 	H 	0.05560 0.68130 0.14430 0.02200
H 	H 	0.01900 0.58150 0.97890 0.03400
H 	H 	0.48590 0.88600 0.02890 0.14600
H 	H 	0.56960 0.82160 0.14730 0.01500
H 	H 	0.57000 0.86390 0.08860 0.12600
H 	H 	0.44480 0.86100 0.08570 0.11500
H 	H 	0.44440 0.81870 0.14430 0.02200
H 	H 	0.48100 0.91850 0.97890 0.03400
H 	H 	0.47110 0.48590 0.61400 0.14600
H 	H 	0.35270 0.56960 0.67840 0.01500
H 	H 	0.41140 0.57000 0.63610 0.12600
H 	H 	0.41430 0.44480 0.63900 0.11500
H 	H 	0.35570 0.44440 0.68130 0.02200
H 	H 	0.52110 0.48100 0.58150 0.03400
H 	H 	0.47110 0.01410 0.88600 0.14600
H 	H 	0.35270 0.93040 0.82160 0.01500
H 	H 	0.41140 0.93000 0.86390 0.12600
H 	H 	0.41430 0.05520 0.86100 0.11500
H 	H 	0.35570 0.05560 0.81870 0.02200
H 	H 	0.52110 0.01900 0.91850 0.03400
H 	H 	0.02890 0.01410 0.61400 0.14600
H 	H 	0.14730 0.93040 0.67840 0.01500
H 	H 	0.08860 0.93000 0.63610 0.12600
H 	H 	0.08570 0.05520 0.63900 0.11500
H 	H 	0.14430 0.05560 0.68130 0.02200
H 	H 	0.97890 0.01900 0.58150 0.03400
H 	H 	0.02890 0.48590 0.88600 0.14600
H 	H 	0.14730 0.56960 0.82160 0.01500
H 	H 	0.08860 0.57000 0.86390 0.12600
H 	H 	0.08570 0.44480 0.86100 0.11500
H 	H 	0.14430 0.44440 0.81870 0.02200
H 	H 	0.97890 0.48100 0.91850 0.03400
H 	H 	0.61400 0.47110 0.48590 0.14600
H 	H 	0.67840 0.35270 0.56960 0.01500
H 	H 	0.63610 0.41140 0.57000 0.12600
H 	H 	0.63900 0.41430 0.44480 0.11500
H 	H 	0.68130 0.35570 0.44440 0.02200
H 	H 	0.58150 0.52110 0.48100 0.03400
H 	H 	0.88600 0.47110 0.01410 0.14600
H 	H 	0.82160 0.35270 0.93040 0.01500
H 	H 	0.86390 0.41140 0.93000 0.12600
H 	H 	0.86100 0.41430 0.05520 0.11500
H 	H 	0.81870 0.35570 0.05560 0.02200
H 	H 	0.91850 0.52110 0.01900 0.03400
H 	H 	0.61400 0.02890 0.01410 0.14600
H 	H 	0.67840 0.14730 0.93040 0.01500
H 	H 	0.63610 0.08860 0.93000 0.12600
H 	H 	0.63900 0.08570 0.05520 0.11500
H 	H 	0.68130 0.14430 0.05560 0.02200
H 	H 	0.58150 0.97890 0.01900 0.03400
H 	H 	0.88600 0.02890 0.48590 0.14600
H 	H 	0.82160 0.14730 0.56960 0.01500
H 	H 	0.86390 0.08860 0.57000 0.12600
H 	H 	0.86100 0.08570 0.44480 0.11500
H 	H 	0.81870 0.14430 0.44440 0.02200
H 	H 	0.91850 0.97890 0.48100 0.03400
C 	C 	0.29000 0.49790 0.80993 0.41100
C 	C 	0.31615 0.49300 0.84870 -0.14500
C 	C 	0.32956 0.45570 0.86524 0.11200
C 	C 	0.35469 0.45550 0.90007 -0.21500
C 	C 	0.36641 0.49250 0.91835 0.22300
C 	C 	0.35300 0.52980 0.90181 -0.20700
C 	C 	0.32787 0.53010 0.86698 0.10200
C 	C 	0.41690 0.46550 0.96150 0.27000
C 	C 	0.44340 0.46740 0.99720 -0.10000
C 	C 	0.43990 0.49920 0.02440 0.04500
C 	C 	0.21000 0.00210 0.80993 0.41100
C 	C 	0.18385 0.00700 0.84870 -0.14500
C 	C 	0.17044 0.04430 0.86524 0.11200
C 	C 	0.14531 0.04450 0.90007 -0.21500
C 	C 	0.13359 0.00750 0.91835 0.22300
C 	C 	0.14700 0.97020 0.90181 -0.20700
C 	C 	0.17213 0.96990 0.86698 0.10200
C 	C 	0.08310 0.03450 0.96150 0.27000
C 	C 	0.05660 0.03260 0.99720 -0.09800
C 	C 	0.06010 0.00080 0.02440 0.04300
C 	C 	0.29000 0.00210 0.69007 0.41100
C 	C 	0.31615 0.00700 0.65130 -0.14500
C 	C 	0.32956 0.04430 0.63476 0.11200
C 	C 	0.35469 0.04450 0.59993 -0.21500
C 	C 	0.36641 0.00750 0.58165 0.22300
C 	C 	0.35300 0.97020 0.59819 -0.20700
C 	C 	0.32787 0.96990 0.63302 0.10200
C 	C 	0.41690 0.03450 0.53850 0.27000
C 	C 	0.44340 0.03260 0.50280 -0.10000
C 	C 	0.43990 0.00080 0.47560 0.04500
C 	C 	0.21000 0.49790 0.69007 0.41100
C 	C 	0.18385 0.49300 0.65130 -0.14500
C 	C 	0.17044 0.45570 0.63476 0.11200
C 	C 	0.14531 0.45550 0.59993 -0.21500
C 	C 	0.13359 0.49250 0.58165 0.22300
C 	C 	0.14700 0.52980 0.59819 -0.20700
C 	C 	0.17213 0.53010 0.63302 0.10200
C 	C 	0.08310 0.46550 0.53850 0.27000
C 	C 	0.05660 0.46740 0.50280 -0.10000
C 	C 	0.06010 0.49920 0.47560 0.04500
C 	C 	0.49790 0.69007 0.21000 0.41100
C 	C 	0.49300 0.65130 0.18385 -0.14500
C 	C 	0.45570 0.63476 0.17044 0.11200
C 	C 	0.45550 0.59993 0.14531 -0.21500
C 	C 	0.49250 0.58165 0.13359 0.22300
C 	C 	0.52980 0.59819 0.14700 -0.20700
C 	C 	0.53010 0.63302 0.17213 0.10200
C 	C 	0.46550 0.53850 0.08310 0.27000
C 	C 	0.46740 0.50280 0.05660 -0.10000
C 	C 	0.49920 0.47560 0.06010 0.04500
C 	C 	0.00210 0.69007 0.29000 0.41100
C 	C 	0.00700 0.65130 0.31615 -0.14500
C 	C 	0.04430 0.63476 0.32956 0.11200
C 	C 	0.04450 0.59993 0.35469 -0.21500
C 	C 	0.00750 0.58165 0.36641 0.22300
C 	C 	0.97020 0.59819 0.35300 -0.20700
C 	C 	0.96990 0.63302 0.32787 0.10200
C 	C 	0.03450 0.53850 0.41690 0.27000
C 	C 	0.03260 0.50280 0.44340 -0.10000
C 	C 	0.00080 0.47560 0.43990 0.04500
C 	C 	0.00210 0.80993 0.21000 0.41100
C 	C 	0.00700 0.84870 0.18385 -0.14500
C 	C 	0.04430 0.86524 0.17044 0.11200
C 	C 	0.04450 0.90007 0.14531 -0.21500
C 	C 	0.00750 0.91835 0.13359 0.22300
C 	C 	0.97020 0.90181 0.14700 -0.20700
C 	C 	0.96990 0.86698 0.17213 0.10200
C 	C 	0.03450 0.96150 0.08310 0.27000
C 	C 	0.03260 0.99720 0.05660 -0.09800
C 	C 	0.00080 0.02440 0.06010 0.04300
C 	C 	0.49790 0.80993 0.29000 0.41100
C 	C 	0.49300 0.84870 0.31615 -0.14500
C 	C 	0.45570 0.86524 0.32956 0.11200
C 	C 	0.45550 0.90007 0.35469 -0.21500
C 	C 	0.49250 0.91835 0.36641 0.22300
C 	C 	0.52980 0.90181 0.35300 -0.20700
C 	C 	0.53010 0.86698 0.32787 0.10200
C 	C 	0.46550 0.96150 0.41690 0.27000
C 	C 	0.46740 0.99720 0.44340 -0.10000
C 	C 	0.49920 0.02440 0.43990 0.04500
C 	C 	0.69007 0.29000 0.00210 0.41100
C 	C 	0.65130 0.31615 0.00700 -0.14500
C 	C 	0.63476 0.32956 0.04430 0.11200
C 	C 	0.59993 0.35469 0.04450 -0.21500
C 	C 	0.58165 0.36641 0.00750 0.22300
C 	C 	0.59819 0.35300 0.97020 -0.20700
C 	C 	0.63302 0.32787 0.96990 0.10200
C 	C 	0.53850 0.41690 0.03450 0.27000
C 	C 	0.50280 0.44340 0.03260 -0.10000
C 	C 	0.47560 0.43990 0.00080 0.04500
C 	C 	0.69007 0.21000 0.49790 0.41100
C 	C 	0.65130 0.18385 0.49300 -0.14500
C 	C 	0.63476 0.17044 0.45570 0.11200
C 	C 	0.59993 0.14531 0.45550 -0.21500
C 	C 	0.58165 0.13359 0.49250 0.22300
C 	C 	0.59819 0.14700 0.52980 -0.20700
C 	C 	0.63302 0.17213 0.53010 0.10200
C 	C 	0.53850 0.08310 0.46550 0.27000
C 	C 	0.50280 0.05660 0.46740 -0.10000
C 	C 	0.47560 0.06010 0.49920 0.04500
C 	C 	0.80993 0.29000 0.49790 0.41100
C 	C 	0.84870 0.31615 0.49300 -0.14500
C 	C 	0.86524 0.32956 0.45570 0.11200
C 	C 	0.90007 0.35469 0.45550 -0.21500
C 	C 	0.91835 0.36641 0.49250 0.22300
C 	C 	0.90181 0.35300 0.52980 -0.20700
C 	C 	0.86698 0.32787 0.53010 0.10200
C 	C 	0.96150 0.41690 0.46550 0.27000
C 	C 	0.99720 0.44340 0.46740 -0.10000
C 	C 	0.02440 0.43990 0.49920 0.04500
C 	C 	0.80993 0.21000 0.00210 0.41100
C 	C 	0.84870 0.18385 0.00700 -0.14500
C 	C 	0.86524 0.17044 0.04430 0.11200
C 	C 	0.90007 0.14531 0.04450 -0.21500
C 	C 	0.91835 0.13359 0.00750 0.22300
C 	C 	0.90181 0.14700 0.97020 -0.20700
C 	C 	0.86698 0.17213 0.96990 0.10200
C 	C 	0.96150 0.08310 0.03450 0.27000
C 	C 	0.99720 0.05660 0.03260 -0.09800
C 	C 	0.02440 0.06010 0.00080 0.04300
C 	C 	0.50210 0.71000 0.30993 0.41100
C 	C 	0.50700 0.68385 0.34870 -0.14500
C 	C 	0.54430 0.67044 0.36524 0.11200
C 	C 	0.54450 0.64531 0.40007 -0.21500
C 	C 	0.50750 0.63359 0.41835 0.22300
C 	C 	0.47020 0.64700 0.40181 -0.20700
C 	C 	0.46990 0.67213 0.36698 0.10200
C 	C 	0.53450 0.58310 0.46150 0.27000
C 	C 	0.53260 0.55660 0.49720 -0.10000
C 	C 	0.50080 0.56010 0.52440 0.04500
C 	C 	0.99790 0.79000 0.30993 0.41100
C 	C 	0.99300 0.81615 0.34870 -0.14500
C 	C 	0.95570 0.82956 0.36524 0.11200
C 	C 	0.95550 0.85469 0.40007 -0.21500
C 	C 	0.99250 0.86641 0.41835 0.22300
C 	C 	0.02980 0.85300 0.40181 -0.20700
C 	C 	0.03010 0.82787 0.36698 0.10200
C 	C 	0.96550 0.91690 0.46150 0.27000
C 	C 	0.96740 0.94340 0.49720 -0.09900
C 	C 	0.99920 0.93990 0.52440 0.04400
C 	C 	0.99790 0.71000 0.19007 0.41100
C 	C 	0.99300 0.68385 0.15130 -0.14500
C 	C 	0.95570 0.67044 0.13476 0.11200
C 	C 	0.95550 0.64531 0.09993 -0.21500
C 	C 	0.99250 0.63359 0.08165 0.22300
C 	C 	0.02980 0.64700 0.09819 -0.20700
C 	C 	0.03010 0.67213 0.13302 0.10200
C 	C 	0.96550 0.58310 0.03850 0.27000
C 	C 	0.96740 0.55660 0.00280 -0.09900
C 	C 	0.99920 0.56010 0.97560 0.04400
C 	C 	0.50210 0.79000 0.19007 0.41100
C 	C 	0.50700 0.81615 0.15130 -0.14500
C 	C 	0.54430 0.82956 0.13476 0.11200
C 	C 	0.54450 0.85469 0.09993 -0.21500
C 	C 	0.50750 0.86641 0.08165 0.22300
C 	C 	0.47020 0.85300 0.09819 -0.20700
C 	C 	0.46990 0.82787 0.13302 0.10200
C 	C 	0.53450 0.91690 0.03850 0.27000
C 	C 	0.53260 0.94340 0.00280 -0.09900
C 	C 	0.50080 0.93990 0.97560 0.04400
C 	C 	0.30993 0.50210 0.71000 0.41100
C 	C 	0.34870 0.50700 0.68385 -0.14500
C 	C 	0.36524 0.54430 0.67044 0.11200
C 	C 	0.40007 0.54450 0.64531 -0.21500
C 	C 	0.41835 0.50750 0.63359 0.22300
C 	C 	0.40181 0.47020 0.64700 -0.20700
C 	C 	0.36698 0.46990 0.67213 0.10200
C 	C 	0.46150 0.53450 0.58310 0.27000
C 	C 	0.49720 0.53260 0.55660 -0.10000
C 	C 	0.52440 0.50080 0.56010 0.04500
C 	C 	0.30993 0.99790 0.79000 0.41100
C 	C 	0.34870 0.99300 0.81615 -0.14500
C 	C 	0.36524 0.95570 0.82956 0.11200
C 	C 	0.40007 0.95550 0.85469 -0.21500
C 	C 	0.41835 0.99250 0.86641 0.22300
C 	C 	0.40181 0.02980 0.85300 -0.20700
C 	C 	0.36698 0.03010 0.82787 0.10200
C 	C 	0.46150 0.96550 0.91690 0.27000
C 	C 	0.49720 0.96740 0.94340 -0.09900
C 	C 	0.52440 0.99920 0.93990 0.04400
C 	C 	0.19007 0.99790 0.71000 0.41100
C 	C 	0.15130 0.99300 0.68385 -0.14500
C 	C 	0.13476 0.95570 0.67044 0.11200
C 	C 	0.09993 0.95550 0.64531 -0.21500
C 	C 	0.08165 0.99250 0.63359 0.22300
C 	C 	0.09819 0.02980 0.64700 -0.20700
C 	C 	0.13302 0.03010 0.67213 0.10200
C 	C 	0.03850 0.96550 0.58310 0.27000
C 	C 	0.00280 0.96740 0.55660 -0.09900
C 	C 	0.97560 0.99920 0.56010 0.04400
C 	C 	0.19007 0.50210 0.79000 0.41100
C 	C 	0.15130 0.50700 0.81615 -0.14500
C 	C 	0.13476 0.54430 0.82956 0.11200
C 	C 	0.09993 0.54450 0.85469 -0.21500
C 	C 	0.08165 0.50750 0.86641 0.22300
C 	C 	0.09819 0.47020 0.85300 -0.20700
C 	C 	0.13302 0.46990 0.82787 0.10200
C 	C 	0.03850 0.53450 0.91690 0.27000
C 	C 	0.00280 0.53260 0.94340 -0.09900
C 	C 	0.97560 0.50080 0.93990 0.04400
C 	C 	0.71000 0.30993 0.50210 0.41100
C 	C 	0.68385 0.34870 0.50700 -0.14500
C 	C 	0.67044 0.36524 0.54430 0.11200
C 	C 	0.64531 0.40007 0.54450 -0.21500
C 	C 	0.63359 0.41835 0.50750 0.22300
C 	C 	0.64700 0.40181 0.47020 -0.20700
C 	C 	0.67213 0.36698 0.46990 0.10200
C 	C 	0.58310 0.46150 0.53450 0.27000
C 	C 	0.55660 0.49720 0.53260 -0.10000
C 	C 	0.56010 0.52440 0.50080 0.04500
C 	C 	0.79000 0.30993 0.99790 0.41100
C 	C 	0.81615 0.34870 0.99300 -0.14500
C 	C 	0.82956 0.36524 0.95570 0.11200
C 	C 	0.85469 0.40007 0.95550 -0.21500
C 	C 	0.86641 0.41835 0.99250 0.22300
C 	C 	0.85300 0.40181 0.02980 -0.20700
C 	C 	0.82787 0.36698 0.03010 0.10200
C 	C 	0.91690 0.46150 0.96550 0.27000
C 	C 	0.94340 0.49720 0.96740 -0.09900
C 	C 	0.93990 0.52440 0.99920 0.04400
C 	C 	0.71000 0.19007 0.99790 0.41100
C 	C 	0.68385 0.15130 0.99300 -0.14500
C 	C 	0.67044 0.13476 0.95570 0.11200
C 	C 	0.64531 0.09993 0.95550 -0.21500
C 	C 	0.63359 0.08165 0.99250 0.22300
C 	C 	0.64700 0.09819 0.02980 -0.20700
C 	C 	0.67213 0.13302 0.03010 0.10200
C 	C 	0.58310 0.03850 0.96550 0.27000
C 	C 	0.55660 0.00280 0.96740 -0.09900
C 	C 	0.56010 0.97560 0.99920 0.04400
C 	C 	0.79000 0.19007 0.50210 0.41100
C 	C 	0.81615 0.15130 0.50700 -0.14500
C 	C 	0.82956 0.13476 0.54430 0.11200
C 	C 	0.85469 0.09993 0.54450 -0.21500
C 	C 	0.86641 0.08165 0.50750 0.22300
C 	C 	0.85300 0.09819 0.47020 -0.20700
C 	C 	0.82787 0.13302 0.46990 0.10200
C 	C 	0.91690 0.03850 0.53450 0.27000
C 	C 	0.94340 0.00280 0.53260 -0.09900
C 	C 	0.93990 0.97560 0.50080 0.04400
N 	N 	0.38960 0.49370 0.95350 -0.27800
N 	N 	0.11040 0.00630 0.95350 -0.27800
N 	N 	0.38960 0.00630 0.54650 -0.27800
N 	N 	0.11040 0.49370 0.54650 -0.27800
N 	N 	0.49370 0.54650 0.11040 -0.27800
N 	N 	0.00630 0.54650 0.38960 -0.27800
N 	N 	0.00630 0.95350 0.11040 -0.27800
N 	N 	0.49370 0.95350 0.38960 -0.27800
N 	N 	0.54650 0.38960 0.00630 -0.27800
N 	N 	0.54650 0.11040 0.49370 -0.27800
N 	N 	0.95350 0.38960 0.49370 -0.27800
N 	N 	0.95350 0.11040 0.00630 -0.27800
N 	N 	0.50630 0.61040 0.45350 -0.27800
N 	N 	0.99370 0.88960 0.45350 -0.27800
N 	N 	0.99370 0.61040 0.04650 -0.27800
N 	N 	0.50630 0.88960 0.04650 -0.27800
N 	N 	0.45350 0.50630 0.61040 -0.27800
N 	N 	0.45350 0.99370 0.88960 -0.27800
N 	N 	0.04650 0.99370 0.61040 -0.27800
N 	N 	0.04650 0.50630 0.88960 -0.27800
N 	N 	0.61040 0.45350 0.50630 -0.27800
N 	N 	0.88960 0.45350 0.99370 -0.27800
N 	N 	0.61040 0.04650 0.99370 -0.27800
N 	N 	0.88960 0.04650 0.50630 -0.27800
O 	O 	0.28427 0.46364 0.79672 -0.44900
O 	O 	0.28460 0.53390 0.79950 -0.42800
O 	O 	0.42560 0.43310 0.94460 -0.25500
O 	O 	0.21573 0.03636 0.79672 -0.44900
O 	O 	0.21540 0.96610 0.79950 -0.42800
O 	O 	0.07440 0.06690 0.94460 -0.25500
O 	O 	0.28427 0.03636 0.70328 -0.44900
O 	O 	0.28460 0.96610 0.70050 -0.42800
O 	O 	0.42560 0.06690 0.55540 -0.25500
O 	O 	0.21573 0.46364 0.70328 -0.44900
O 	O 	0.21540 0.53390 0.70050 -0.42800
O 	O 	0.07440 0.43310 0.55540 -0.25500
O 	O 	0.46364 0.70328 0.21573 -0.44900
O 	O 	0.53390 0.70050 0.21540 -0.42800
O 	O 	0.43310 0.55540 0.07440 -0.25500
O 	O 	0.03636 0.70328 0.28427 -0.44900
O 	O 	0.96610 0.70050 0.28460 -0.42800
O 	O 	0.06690 0.55540 0.42560 -0.25500
O 	O 	0.03636 0.79672 0.21573 -0.44900
O 	O 	0.96610 0.79950 0.21540 -0.42800
O 	O 	0.06690 0.94460 0.07440 -0.25500
O 	O 	0.46364 0.79672 0.28427 -0.44900
O 	O 	0.53390 0.79950 0.28460 -0.42800
O 	O 	0.43310 0.94460 0.42560 -0.25500
O 	O 	0.70328 0.28427 0.03636 -0.44900
O 	O 	0.70050 0.28460 0.96610 -0.42800
O 	O 	0.55540 0.42560 0.06690 -0.25500
O 	O 	0.70328 0.21573 0.46364 -0.44900
O 	O 	0.70050 0.21540 0.53390 -0.42800
O 	O 	0.55540 0.07440 0.43310 -0.25500
O 	O 	0.79672 0.28427 0.46364 -0.44900
O 	O 	0.79950 0.28460 0.53390 -0.42800
O 	O 	0.94460 0.42560 0.43310 -0.25500
O 	O 	0.79672 0.21573 0.03636 -0.44900
O 	O 	0.79950 0.21540 0.96610 -0.42800
O 	O 	0.94460 0.07440 0.06690 -0.25500
O 	O 	0.53636 0.71573 0.29672 -0.44900
O 	O 	0.46610 0.71540 0.29950 -0.42800
O 	O 	0.56690 0.57440 0.44460 -0.25500
O 	O 	0.96364 0.78427 0.29672 -0.44900
O 	O 	0.03390 0.78460 0.29950 -0.42800
O 	O 	0.93310 0.92560 0.44460 -0.25500
O 	O 	0.96364 0.71573 0.20328 -0.44900
O 	O 	0.03390 0.71540 0.20050 -0.42800
O 	O 	0.93310 0.57440 0.05540 -0.25500
O 	O 	0.53636 0.78427 0.20328 -0.44900
O 	O 	0.46610 0.78460 0.20050 -0.42800
O 	O 	0.56690 0.92560 0.05540 -0.25500
O 	O 	0.29672 0.53636 0.71573 -0.44900
O 	O 	0.29950 0.46610 0.71540 -0.42800
O 	O 	0.44460 0.56690 0.57440 -0.25500
O 	O 	0.29672 0.96364 0.78427 -0.44900
O 	O 	0.29950 0.03390 0.78460 -0.42800
O 	O 	0.44460 0.93310 0.92560 -0.25500
O 	O 	0.20328 0.96364 0.71573 -0.44900
O 	O 	0.20050 0.03390 0.71540 -0.42800
O 	O 	0.05540 0.93310 0.57440 -0.25500
O 	O 	0.20328 0.53636 0.78427 -0.44900
O 	O 	0.20050 0.46610 0.78460 -0.42800
O 	O 	0.05540 0.56690 0.92560 -0.25500
O 	O 	0.71573 0.29672 0.53636 -0.44900
O 	O 	0.71540 0.29950 0.46610 -0.42800
O 	O 	0.57440 0.44460 0.56690 -0.25500
O 	O 	0.78427 0.29672 0.96364 -0.44900
O 	O 	0.78460 0.29950 0.03390 -0.42800
O 	O 	0.92560 0.44460 0.93310 -0.25500
O 	O 	0.71573 0.20328 0.96364 -0.44900
O 	O 	0.71540 0.20050 0.03390 -0.42800
O 	O 	0.57440 0.05540 0.93310 -0.25500
O 	O 	0.78427 0.20328 0.53636 -0.44900
O 	O 	0.78460 0.20050 0.46610 -0.42800
O 	O 	0.92560 0.05540 0.56690 -0.25500
