data_crystal

_cell_length_a 12.38000
_cell_length_b 16.48800
_cell_length_c 21.24600
_cell_angle_alpha 90.00000
_cell_angle_beta  90.00000
_cell_angle_gamma 90.00000

_symmetry_space_group_name_	'P 1'
_symmetry_space_group_name_H-M	'P 1'

loop_
_symmetry_equiv_pos_as_xyz
  x,y,z

loop_
_atom_site_label
_atom_site_type_symbol
_atom_site_fract_x
_atom_site_fract_y
_atom_site_fract_z
_atom_site_charge
Cd	Cd	0.48081 0.93969 0.72870 1.20100
Cd	Cd	0.22644 0.82072 0.68725 1.18000
Cd	Cd	0.72915 0.79922 0.73160 1.19800
Cd	Cd	0.48818 0.82997 0.20023 1.19300
Cd	Cd	0.01919 0.43969 0.77130 1.20200
Cd	Cd	0.27356 0.32072 0.81275 1.18100
Cd	Cd	0.77085 0.29922 0.76840 1.20000
Cd	Cd	0.01182 0.32997 0.29977 1.19400
Cd	Cd	0.51919 0.06031 0.27130 1.20200
Cd	Cd	0.77356 0.17928 0.31275 1.18100
Cd	Cd	0.27085 0.20078 0.26840 1.19900
Cd	Cd	0.51182 0.17003 0.79977 1.19400
Cd	Cd	0.98081 0.56031 0.22870 1.20200
Cd	Cd	0.72644 0.67928 0.18725 1.18100
Cd	Cd	0.22915 0.70078 0.23160 1.20000
Cd	Cd	0.98818 0.67003 0.70023 1.19400
H 	H 	0.72930 0.41530 0.61700 0.02400
H 	H 	0.58590 0.45930 0.55940 0.06100
H 	H 	0.48820 0.57200 0.59050 0.02700
H 	H 	0.70300 0.61090 0.72870 0.00300
H 	H 	0.36390 0.87330 0.94580 0.03700
H 	H 	0.07100 0.79620 0.99580 0.03700
H 	H 	0.00900 0.82230 0.89490 0.06000
H 	H 	0.12660 0.87280 0.81960 0.01300
H 	H 	0.20030 0.00560 0.73890 0.01700
H 	H 	0.94470 0.08200 0.64050 0.03200
H 	H 	0.03100 0.20420 0.62240 0.06700
H 	H 	0.19380 0.23150 0.66980 0.01500
H 	H 	0.69270 0.23480 0.54800 0.01900
H 	H 	0.60210 0.18000 0.46560 0.04100
H 	H 	0.45980 0.08910 0.48410 0.02500
H 	H 	0.52540 0.09870 0.66960 -0.01400
H 	H 	0.77070 0.91530 0.88300 0.02400
H 	H 	0.91410 0.95930 0.94060 0.06200
H 	H 	0.01180 0.07200 0.90950 0.02500
H 	H 	0.79700 0.11090 0.77130 0.00300
H 	H 	0.13610 0.37330 0.55420 0.03800
H 	H 	0.42900 0.29620 0.50420 0.03700
H 	H 	0.49100 0.32230 0.60510 0.05900
H 	H 	0.37340 0.37280 0.68040 0.01400
H 	H 	0.29970 0.50560 0.76110 0.01700
H 	H 	0.55530 0.58200 0.85950 0.03100
H 	H 	0.46900 0.70420 0.87760 0.06700
H 	H 	0.30620 0.73150 0.83020 0.01500
H 	H 	0.80730 0.73480 0.95200 0.01800
H 	H 	0.89790 0.68000 0.03440 0.04200
H 	H 	0.04020 0.58910 0.01590 0.02500
H 	H 	0.97460 0.59870 0.83040 -0.01400
H 	H 	0.27070 0.58470 0.38300 0.02400
H 	H 	0.41410 0.54070 0.44060 0.06100
H 	H 	0.51180 0.42800 0.40950 0.02700
H 	H 	0.29700 0.38910 0.27130 0.00300
H 	H 	0.63610 0.12670 0.05420 0.03700
H 	H 	0.92900 0.20380 0.00420 0.03700
H 	H 	0.99100 0.17770 0.10510 0.06000
H 	H 	0.87340 0.12720 0.18040 0.01300
H 	H 	0.79970 0.99440 0.26110 0.01700
H 	H 	0.05530 0.91800 0.35950 0.03200
H 	H 	0.96900 0.79580 0.37760 0.06700
H 	H 	0.80620 0.76850 0.33020 0.01500
H 	H 	0.30730 0.76520 0.45200 0.01900
H 	H 	0.39790 0.82000 0.53440 0.04100
H 	H 	0.54020 0.91090 0.51590 0.02500
H 	H 	0.47460 0.90130 0.33040 -0.01400
H 	H 	0.22930 0.08470 0.11700 0.02400
H 	H 	0.08590 0.04070 0.05940 0.06200
H 	H 	0.98820 0.92800 0.09050 0.02500
H 	H 	0.20300 0.88910 0.22870 0.00300
H 	H 	0.86390 0.62670 0.44580 0.03800
H 	H 	0.57100 0.70380 0.49580 0.03700
H 	H 	0.50900 0.67770 0.39490 0.05900
H 	H 	0.62660 0.62720 0.31960 0.01400
H 	H 	0.70030 0.49440 0.23890 0.01700
H 	H 	0.44470 0.41800 0.14050 0.03100
H 	H 	0.53100 0.29580 0.12240 0.06700
H 	H 	0.69380 0.26850 0.16980 0.01500
H 	H 	0.19270 0.26520 0.04800 0.01800
H 	H 	0.10210 0.32000 0.96560 0.04200
H 	H 	0.95980 0.41090 0.98410 0.02500
H 	H 	0.02540 0.40130 0.16960 -0.01400
C 	C 	0.83130 0.48300 0.71160 0.37300
C 	C 	0.73190 0.51000 0.67740 -0.13800
C 	C 	0.69460 0.46350 0.62760 0.03900
C 	C 	0.60780 0.48840 0.59470 -0.09600
C 	C 	0.55010 0.55710 0.61250 0.01200
C 	C 	0.58500 0.60330 0.66300 -0.06600
C 	C 	0.52340 0.67680 0.68040 0.13500
C 	C 	0.67760 0.57990 0.69530 0.03400
C 	C 	0.33470 0.90170 0.82530 0.34100
C 	C 	0.25800 0.87600 0.87480 -0.12100
C 	C 	0.29260 0.86180 0.93530 0.01300
C 	C 	0.22550 0.83130 0.98060 -0.04600
C 	C 	0.26440 0.81310 0.04370 0.12500
C 	C 	0.11800 0.81650 0.96550 -0.00800
C 	C 	0.08090 0.83200 0.90520 -0.08400
C 	C 	0.15160 0.86210 0.86010 0.02900
C 	C 	0.31930 0.13920 0.74000 0.36700
C 	C 	0.21390 0.12210 0.70900 -0.13400
C 	C 	0.16500 0.04590 0.71610 0.02900
C 	C 	0.06560 0.03000 0.68990 -0.06700
C 	C 	0.01240 0.95260 0.69860 0.12600
C 	C 	0.01360 0.09090 0.65660 0.01000
C 	C 	0.06400 0.16500 0.64730 -0.09600
C 	C 	0.16210 0.18080 0.67460 0.04800
C 	C 	0.67740 0.21000 0.67150 0.36000
C 	C 	0.61960 0.17160 0.61640 -0.12500
C 	C 	0.63980 0.19590 0.55540 0.03100
C 	C 	0.58480 0.16480 0.50650 -0.09000
C 	C 	0.50030 0.10870 0.51770 0.00600
C 	C 	0.47730 0.08240 0.57900 -0.07200
C 	C 	0.39370 0.02250 0.59050 0.12800
C 	C 	0.53880 0.11500 0.62840 0.02100
C 	C 	0.66870 0.98300 0.78840 0.37100
C 	C 	0.76810 0.01000 0.82260 -0.13600
C 	C 	0.80540 0.96350 0.87240 0.03900
C 	C 	0.89220 0.98840 0.90530 -0.10100
C 	C 	0.94990 0.05710 0.88750 0.01700
C 	C 	0.91500 0.10330 0.83700 -0.06800
C 	C 	0.97660 0.17680 0.81960 0.13700
C 	C 	0.82240 0.07990 0.80470 0.03500
C 	C 	0.16530 0.40170 0.67470 0.34100
C 	C 	0.24200 0.37600 0.62520 -0.12000
C 	C 	0.20740 0.36180 0.56470 0.01200
C 	C 	0.27450 0.33130 0.51940 -0.04300
C 	C 	0.23560 0.31310 0.45630 0.12300
C 	C 	0.38200 0.31650 0.53450 -0.01000
C 	C 	0.41910 0.33200 0.59480 -0.08200
C 	C 	0.34840 0.36210 0.63990 0.02700
C 	C 	0.18070 0.63920 0.76000 0.36700
C 	C 	0.28610 0.62210 0.79100 -0.13500
C 	C 	0.33500 0.54590 0.78390 0.02900
C 	C 	0.43440 0.53000 0.81010 -0.06700
C 	C 	0.48760 0.45260 0.80140 0.12600
C 	C 	0.48640 0.59090 0.84340 0.01100
C 	C 	0.43600 0.66500 0.85270 -0.09700
C 	C 	0.33790 0.68080 0.82540 0.04800
C 	C 	0.82260 0.71000 0.82850 0.36000
C 	C 	0.88040 0.67160 0.88360 -0.12500
C 	C 	0.86020 0.69590 0.94460 0.03200
C 	C 	0.91520 0.66480 0.99350 -0.09100
C 	C 	0.99970 0.60870 0.98230 0.00600
C 	C 	0.02270 0.58240 0.92100 -0.07200
C 	C 	0.10630 0.52250 0.90950 0.12800
C 	C 	0.96120 0.61500 0.87160 0.02200
C 	C 	0.16870 0.51700 0.28840 0.37300
C 	C 	0.26810 0.49000 0.32260 -0.13800
C 	C 	0.30540 0.53650 0.37240 0.03900
C 	C 	0.39220 0.51160 0.40530 -0.09600
C 	C 	0.44990 0.44290 0.38750 0.01200
C 	C 	0.41500 0.39670 0.33700 -0.06600
C 	C 	0.47660 0.32320 0.31960 0.13500
C 	C 	0.32240 0.42010 0.30470 0.03400
C 	C 	0.66530 0.09830 0.17470 0.34100
C 	C 	0.74200 0.12400 0.12520 -0.12100
C 	C 	0.70740 0.13820 0.06470 0.01300
C 	C 	0.77450 0.16870 0.01940 -0.04600
C 	C 	0.73560 0.18690 0.95630 0.12500
C 	C 	0.88200 0.18350 0.03450 -0.00800
C 	C 	0.91910 0.16800 0.09480 -0.08400
C 	C 	0.84840 0.13790 0.13990 0.02900
C 	C 	0.68070 0.86080 0.26000 0.36700
C 	C 	0.78610 0.87790 0.29100 -0.13400
C 	C 	0.83500 0.95410 0.28390 0.02900
C 	C 	0.93440 0.97000 0.31010 -0.06700
C 	C 	0.98760 0.04740 0.30140 0.12600
C 	C 	0.98640 0.90910 0.34340 0.01000
C 	C 	0.93600 0.83500 0.35270 -0.09600
C 	C 	0.83790 0.81920 0.32540 0.04800
C 	C 	0.32260 0.79000 0.32850 0.36000
C 	C 	0.38040 0.82840 0.38360 -0.12500
C 	C 	0.36020 0.80410 0.44460 0.03100
C 	C 	0.41520 0.83520 0.49350 -0.09000
C 	C 	0.49970 0.89130 0.48230 0.00600
C 	C 	0.52270 0.91760 0.42100 -0.07200
C 	C 	0.60630 0.97750 0.40950 0.12800
C 	C 	0.46120 0.88500 0.37160 0.02100
C 	C 	0.33130 0.01700 0.21160 0.37100
C 	C 	0.23190 0.99000 0.17740 -0.13600
C 	C 	0.19460 0.03650 0.12760 0.03900
C 	C 	0.10780 0.01160 0.09470 -0.10100
C 	C 	0.05010 0.94290 0.11250 0.01700
C 	C 	0.08500 0.89670 0.16300 -0.06800
C 	C 	0.02340 0.82320 0.18040 0.13700
C 	C 	0.17760 0.92010 0.19530 0.03500
C 	C 	0.83470 0.59830 0.32530 0.34100
C 	C 	0.75800 0.62400 0.37480 -0.12000
C 	C 	0.79260 0.63820 0.43530 0.01200
C 	C 	0.72550 0.66870 0.48060 -0.04300
C 	C 	0.76440 0.68690 0.54370 0.12300
C 	C 	0.61800 0.68350 0.46550 -0.01000
C 	C 	0.58090 0.66800 0.40520 -0.08200
C 	C 	0.65160 0.63790 0.36010 0.02700
C 	C 	0.81930 0.36080 0.24000 0.36700
C 	C 	0.71390 0.37790 0.20900 -0.13500
C 	C 	0.66500 0.45410 0.21610 0.02900
C 	C 	0.56560 0.47000 0.18990 -0.06700
C 	C 	0.51240 0.54740 0.19860 0.12600
C 	C 	0.51360 0.40910 0.15660 0.01100
C 	C 	0.56400 0.33500 0.14730 -0.09700
C 	C 	0.66210 0.31920 0.17460 0.04800
C 	C 	0.17740 0.29000 0.17150 0.36000
C 	C 	0.11960 0.32840 0.11640 -0.12500
C 	C 	0.13980 0.30410 0.05540 0.03200
C 	C 	0.08480 0.33520 0.00650 -0.09100
C 	C 	0.00030 0.39130 0.01770 0.00600
C 	C 	0.97730 0.41760 0.07900 -0.07200
C 	C 	0.89370 0.47750 0.09050 0.12800
C 	C 	0.03880 0.38500 0.12840 0.02200
N 	N 	0.56260 0.74230 0.70880 -0.21400
N 	N 	0.47890 0.79510 0.71150 -0.17300
N 	N 	0.39470 0.76110 0.68560 -0.17700
N 	N 	0.41980 0.68600 0.66560 -0.12000
N 	N 	0.35450 0.84340 0.06940 -0.11600
N 	N 	0.35990 0.81040 0.12700 -0.18500
N 	N 	0.27640 0.76200 0.13530 -0.16800
N 	N 	0.21440 0.76240 0.08350 -0.11300
N 	N 	0.06090 0.87830 0.69940 -0.22300
N 	N 	0.98030 0.82430 0.70930 -0.15900
N 	N 	0.88920 0.86430 0.71320 -0.16900
N 	N 	0.90600 0.94480 0.70600 -0.11200
N 	N 	0.39160 0.96750 0.63720 -0.22200
N 	N 	0.29800 0.92670 0.62780 -0.18000
N 	N 	0.24980 0.95400 0.57820 -0.06900
N 	N 	0.30790 0.01470 0.55390 -0.09700
N 	N 	0.93740 0.24230 0.79120 -0.21400
N 	N 	0.02110 0.29510 0.78850 -0.17300
N 	N 	0.10530 0.26110 0.81440 -0.17700
N 	N 	0.08020 0.18600 0.83440 -0.12000
N 	N 	0.14550 0.34340 0.43060 -0.11600
N 	N 	0.14010 0.31040 0.37300 -0.18500
N 	N 	0.22360 0.26200 0.36470 -0.16800
N 	N 	0.28560 0.26240 0.41650 -0.11300
N 	N 	0.43910 0.37830 0.80060 -0.22300
N 	N 	0.51970 0.32430 0.79070 -0.15900
N 	N 	0.61080 0.36430 0.78680 -0.16800
N 	N 	0.59400 0.44480 0.79400 -0.11200
N 	N 	0.10840 0.46750 0.86280 -0.22200
N 	N 	0.20200 0.42670 0.87220 -0.18000
N 	N 	0.25020 0.45400 0.92180 -0.06900
N 	N 	0.19210 0.51470 0.94610 -0.09600
N 	N 	0.43740 0.25770 0.29120 -0.21400
N 	N 	0.52110 0.20490 0.28850 -0.17300
N 	N 	0.60530 0.23890 0.31440 -0.17700
N 	N 	0.58020 0.31400 0.33440 -0.12000
N 	N 	0.64550 0.15660 0.93060 -0.11600
N 	N 	0.64010 0.18960 0.87300 -0.18500
N 	N 	0.72360 0.23800 0.86470 -0.16800
N 	N 	0.78560 0.23760 0.91650 -0.11300
N 	N 	0.93910 0.12170 0.30060 -0.22300
N 	N 	0.01970 0.17570 0.29070 -0.15900
N 	N 	0.11080 0.13570 0.28680 -0.16900
N 	N 	0.09400 0.05520 0.29400 -0.11200
N 	N 	0.60840 0.03250 0.36280 -0.22200
N 	N 	0.70200 0.07330 0.37220 -0.18000
N 	N 	0.75020 0.04600 0.42180 -0.06900
N 	N 	0.69210 0.98530 0.44610 -0.09700
N 	N 	0.06260 0.75770 0.20880 -0.21400
N 	N 	0.97890 0.70490 0.21150 -0.17300
N 	N 	0.89470 0.73890 0.18560 -0.17700
N 	N 	0.91980 0.81400 0.16560 -0.12000
N 	N 	0.85450 0.65660 0.56940 -0.11600
N 	N 	0.85990 0.68960 0.62700 -0.18500
N 	N 	0.77640 0.73800 0.63530 -0.16800
N 	N 	0.71440 0.73760 0.58350 -0.11300
N 	N 	0.56090 0.62170 0.19940 -0.22300
N 	N 	0.48030 0.67570 0.20930 -0.15900
N 	N 	0.38920 0.63570 0.21320 -0.16800
N 	N 	0.40600 0.55520 0.20600 -0.11200
N 	N 	0.89160 0.53250 0.13720 -0.22200
N 	N 	0.79800 0.57330 0.12780 -0.18000
N 	N 	0.74980 0.54600 0.07820 -0.06900
N 	N 	0.80790 0.48530 0.05390 -0.09600
O 	O 	0.89560 0.53340 0.73380 -0.49700
O 	O 	0.84940 0.40730 0.71790 -0.52100
O 	O 	0.42860 0.92580 0.83910 -0.37400
O 	O 	0.30730 0.89570 0.76740 -0.51000
O 	O 	0.38400 0.08370 0.75370 -0.48200
O 	O 	0.34460 0.21260 0.75380 -0.54000
O 	O 	0.64240 0.20000 0.72670 -0.51500
O 	O 	0.75940 0.25260 0.66270 -0.38900
O 	O 	0.60440 0.03340 0.76620 -0.49600
O 	O 	0.65060 0.90730 0.78210 -0.52100
O 	O 	0.07140 0.42580 0.66090 -0.37300
O 	O 	0.19270 0.39570 0.73260 -0.51000
O 	O 	0.11600 0.58370 0.74630 -0.48200
O 	O 	0.15540 0.71260 0.74620 -0.54000
O 	O 	0.85760 0.70000 0.77330 -0.51500
O 	O 	0.74060 0.75260 0.83730 -0.38900
O 	O 	0.10440 0.46660 0.26620 -0.49700
O 	O 	0.15060 0.59270 0.28210 -0.52100
O 	O 	0.57140 0.07420 0.16090 -0.37400
O 	O 	0.69270 0.10430 0.23260 -0.51000
O 	O 	0.61600 0.91630 0.24630 -0.48200
O 	O 	0.65540 0.78740 0.24620 -0.54000
O 	O 	0.35760 0.80000 0.27330 -0.51500
O 	O 	0.24060 0.74740 0.33730 -0.38900
O 	O 	0.39560 0.96660 0.23380 -0.49600
O 	O 	0.34940 0.09270 0.21790 -0.52100
O 	O 	0.92860 0.57420 0.33910 -0.37300
O 	O 	0.80730 0.60430 0.26740 -0.51000
O 	O 	0.88400 0.41630 0.25370 -0.48200
O 	O 	0.84460 0.28740 0.25380 -0.54000
O 	O 	0.14240 0.30000 0.22670 -0.51500
O 	O 	0.25940 0.24740 0.16270 -0.38900
