data_crystal

_cell_length_a 23.77150
_cell_length_b 23.77150
_cell_length_c 14.10070
_cell_angle_alpha 90.00000
_cell_angle_beta  90.00000
_cell_angle_gamma 90.00000

_symmetry_space_group_name_	'P 1'
_symmetry_space_group_name_H-M	'P 1'

loop_
_symmetry_equiv_pos_as_xyz
  x,y,z

loop_
_atom_site_label
_atom_site_type_symbol
_atom_site_fract_x
_atom_site_fract_y
_atom_site_fract_z
_atom_site_charge
Ag	Ag	0.04852 0.23302 0.10694 0.32300
S 	S 	0.06955 0.14891 0.98959 -0.07600
C 	C 	0.00640 0.12510 0.93800 -0.05500
C 	C 	0.95920 0.11040 0.99240 0.13700
C 	C 	0.09100 0.08870 0.05440 -0.06300
C 	C 	0.08880 0.09080 0.15430 0.07100
H 	H 	0.07470 0.12360 0.18450 -0.03000
C 	C 	0.00350 0.12260 0.83790 0.07500
H 	H 	0.03600 0.13190 0.80180 -0.00200
C 	C 	0.10680 0.04570 0.20960 -0.24500
O 	O 	0.96090 0.11660 0.08780 -0.20300
C 	C 	0.93680 0.16870 0.11710 -0.04800
H 	H 	0.89560 0.16760 0.10790 0.04100
H 	H 	0.95210 0.19960 0.07770 0.01800
C 	C 	0.95000 0.17960 0.21990 0.08900
N 	N 	0.99750 0.20770 0.24020 -0.20700
C 	C 	0.01000 0.21890 0.33010 0.05200
H 	H 	0.04500 0.23650 0.34370 -0.02500
C 	C 	0.97480 0.20620 0.40390 -0.13800
H 	H 	0.98410 0.21690 0.46690 0.04100
C 	C 	0.92520 0.17730 0.38460 0.02500
H 	H 	0.90110 0.16590 0.43480 -0.02400
C 	C 	0.91110 0.16520 0.28990 -0.14300
H 	H 	0.87630 0.14780 0.27420 0.05600
C 	C 	0.11190 0.05070 0.31690 0.66300
C 	C 	0.17490 0.06650 0.33720 -0.05500
H 	H 	0.19050 0.08630 0.28230 0.05700
H 	H 	0.17680 0.09100 0.39310 0.12100
H 	H 	0.19660 0.03220 0.34900 -0.00500
C 	C 	0.07630 0.09920 0.35730 -0.83900
H 	H 	0.03630 0.09060 0.34920 0.18200
H 	H 	0.08470 0.10390 0.42490 0.21000
H 	H 	0.08540 0.13410 0.32350 0.24800
C 	C 	0.09730 0.99440 0.36370 -0.28400
H 	H 	0.12540 0.96620 0.34590 0.47800
H 	H 	0.09700 0.99900 0.43270 0.02100
H 	H 	0.06000 0.98210 0.34220 0.01500
C 	C 	0.00240 0.12700 0.62800 -0.95800
C 	C 	0.92700 0.05220 0.65600 0.01200
C 	C 	0.90210 0.15560 0.66100 -0.74800
H 	H 	0.02890 0.14600 0.67090 -0.06900
H 	H 	0.99270 0.15210 0.57570 0.29600
H 	H 	0.01970 0.09270 0.60340 0.34500
H 	H 	0.91850 0.05110 0.58840 0.07400
H 	H 	0.89330 0.04380 0.69290 0.08100
H 	H 	0.95630 0.02410 0.67060 -0.03400
H 	H 	0.87420 0.15510 0.71230 0.20700
H 	H 	0.88380 0.14580 0.60110 0.18600
H 	H 	0.91860 0.19330 0.65630 0.17200
Ag	Ag	0.54852 0.73302 0.60694 0.32200
S 	S 	0.56955 0.64891 0.48959 -0.07700
C 	C 	0.50640 0.62510 0.43800 -0.05600
C 	C 	0.45920 0.61040 0.49240 0.13600
C 	C 	0.59100 0.58870 0.55440 -0.06400
C 	C 	0.58880 0.59080 0.65430 0.07000
H 	H 	0.57470 0.62360 0.68450 -0.03100
C 	C 	0.50350 0.62260 0.33790 0.07400
H 	H 	0.53600 0.63190 0.30180 -0.00300
C 	C 	0.60680 0.54570 0.70960 -0.24600
O 	O 	0.46090 0.61660 0.58780 -0.20400
C 	C 	0.43680 0.66870 0.61710 -0.04900
H 	H 	0.39560 0.66760 0.60790 0.04000
H 	H 	0.45210 0.69960 0.57770 0.01700
C 	C 	0.45000 0.67960 0.71990 0.08800
N 	N 	0.49750 0.70770 0.74020 -0.20800
C 	C 	0.51000 0.71890 0.83010 0.05100
H 	H 	0.54500 0.73650 0.84370 -0.02600
C 	C 	0.47480 0.70620 0.90390 -0.13900
H 	H 	0.48410 0.71690 0.96690 0.04000
C 	C 	0.42520 0.67730 0.88460 0.02400
H 	H 	0.40110 0.66590 0.93480 -0.02500
C 	C 	0.41110 0.66520 0.78990 -0.14400
H 	H 	0.37630 0.64780 0.77420 0.05500
C 	C 	0.61190 0.55070 0.81690 0.66200
C 	C 	0.67490 0.56650 0.83720 -0.05600
H 	H 	0.69050 0.58630 0.78230 0.05600
H 	H 	0.67680 0.59100 0.89310 0.12000
H 	H 	0.69660 0.53220 0.84900 -0.00600
C 	C 	0.57630 0.59920 0.85730 -0.84100
H 	H 	0.53630 0.59060 0.84920 0.18100
H 	H 	0.58470 0.60390 0.92490 0.20900
H 	H 	0.58540 0.63410 0.82350 0.24700
C 	C 	0.59730 0.49440 0.86370 -0.28500
H 	H 	0.62540 0.46620 0.84590 0.47700
H 	H 	0.59700 0.49900 0.93270 0.02000
H 	H 	0.56000 0.48210 0.84220 0.01400
C 	C 	0.50240 0.62700 0.12800 -0.95800
C 	C 	0.42700 0.55220 0.15600 0.01200
C 	C 	0.40210 0.65560 0.16100 -0.74900
H 	H 	0.52890 0.64600 0.17090 -0.07000
H 	H 	0.49270 0.65210 0.07570 0.29500
H 	H 	0.51970 0.59270 0.10340 0.34400
H 	H 	0.41850 0.55110 0.08840 0.07300
H 	H 	0.39330 0.54380 0.19290 0.08000
H 	H 	0.45630 0.52410 0.17060 -0.03500
H 	H 	0.37420 0.65510 0.21230 0.20600
H 	H 	0.38380 0.64580 0.10110 0.18500
H 	H 	0.41860 0.69330 0.15630 0.17200
Ag	Ag	0.95148 0.76698 0.10694 0.32200
S 	S 	0.93045 0.85109 0.98959 -0.07700
C 	C 	0.99360 0.87490 0.93800 -0.05600
C 	C 	0.04080 0.88960 0.99240 0.13600
C 	C 	0.90900 0.91130 0.05440 -0.06400
C 	C 	0.91120 0.90920 0.15430 0.07000
H 	H 	0.92530 0.87640 0.18450 -0.03100
C 	C 	0.99650 0.87740 0.83790 0.07400
H 	H 	0.96400 0.86810 0.80180 -0.00300
C 	C 	0.89320 0.95430 0.20960 -0.24600
O 	O 	0.03910 0.88340 0.08780 -0.20400
C 	C 	0.06320 0.83130 0.11710 -0.04900
H 	H 	0.10440 0.83240 0.10790 0.04000
H 	H 	0.04790 0.80040 0.07770 0.01700
C 	C 	0.05000 0.82040 0.21990 0.08800
N 	N 	0.00250 0.79230 0.24020 -0.20800
C 	C 	0.99000 0.78110 0.33010 0.05100
H 	H 	0.95500 0.76350 0.34370 -0.02600
C 	C 	0.02520 0.79380 0.40390 -0.13900
H 	H 	0.01590 0.78310 0.46690 0.04000
C 	C 	0.07480 0.82270 0.38460 0.02400
H 	H 	0.09890 0.83410 0.43480 -0.02500
C 	C 	0.08890 0.83480 0.28990 -0.14400
H 	H 	0.12370 0.85220 0.27420 0.05500
C 	C 	0.88810 0.94930 0.31690 0.66200
C 	C 	0.82510 0.93350 0.33720 -0.05600
H 	H 	0.80950 0.91370 0.28230 0.05600
H 	H 	0.82320 0.90900 0.39310 0.12000
H 	H 	0.80340 0.96780 0.34900 -0.00600
C 	C 	0.92370 0.90080 0.35730 -0.84000
H 	H 	0.96370 0.90940 0.34920 0.18100
H 	H 	0.91530 0.89610 0.42490 0.20900
H 	H 	0.91460 0.86590 0.32350 0.24700
C 	C 	0.90270 0.00560 0.36370 -0.28500
H 	H 	0.87460 0.03380 0.34590 0.47700
H 	H 	0.90300 0.00100 0.43270 0.02000
H 	H 	0.94000 0.01790 0.34220 0.01400
C 	C 	0.99760 0.87300 0.62800 -0.95900
C 	C 	0.07300 0.94780 0.65600 0.01100
C 	C 	0.09790 0.84440 0.66100 -0.74900
H 	H 	0.97110 0.85400 0.67090 -0.07000
H 	H 	0.00730 0.84790 0.57570 0.29500
H 	H 	0.98030 0.90730 0.60340 0.34400
H 	H 	0.08150 0.94890 0.58840 0.07300
H 	H 	0.10670 0.95620 0.69290 0.08000
H 	H 	0.04370 0.97590 0.67060 -0.03500
H 	H 	0.12580 0.84490 0.71230 0.20600
H 	H 	0.11620 0.85420 0.60110 0.18500
H 	H 	0.08140 0.80670 0.65630 0.17200
Ag	Ag	0.45148 0.26698 0.60694 0.32200
S 	S 	0.43045 0.35109 0.48959 -0.07700
C 	C 	0.49360 0.37490 0.43800 -0.05600
C 	C 	0.54080 0.38960 0.49240 0.13600
C 	C 	0.40900 0.41130 0.55440 -0.06400
C 	C 	0.41120 0.40920 0.65430 0.07000
H 	H 	0.42530 0.37640 0.68450 -0.03100
C 	C 	0.49650 0.37740 0.33790 0.07400
H 	H 	0.46400 0.36810 0.30180 -0.00300
C 	C 	0.39320 0.45430 0.70960 -0.24600
O 	O 	0.53910 0.38340 0.58780 -0.20400
C 	C 	0.56320 0.33130 0.61710 -0.04900
H 	H 	0.60440 0.33240 0.60790 0.04000
H 	H 	0.54790 0.30040 0.57770 0.01700
C 	C 	0.55000 0.32040 0.71990 0.08800
N 	N 	0.50250 0.29230 0.74020 -0.20800
C 	C 	0.49000 0.28110 0.83010 0.05100
H 	H 	0.45500 0.26350 0.84370 -0.02600
C 	C 	0.52520 0.29380 0.90390 -0.13900
H 	H 	0.51590 0.28310 0.96690 0.04000
C 	C 	0.57480 0.32270 0.88460 0.02400
H 	H 	0.59890 0.33410 0.93480 -0.02500
C 	C 	0.58890 0.33480 0.78990 -0.14400
H 	H 	0.62370 0.35220 0.77420 0.05500
C 	C 	0.38810 0.44930 0.81690 0.66200
C 	C 	0.32510 0.43350 0.83720 -0.05600
H 	H 	0.30950 0.41370 0.78230 0.05600
H 	H 	0.32320 0.40900 0.89310 0.12000
H 	H 	0.30340 0.46780 0.84900 -0.00600
C 	C 	0.42370 0.40080 0.85730 -0.84100
H 	H 	0.46370 0.40940 0.84920 0.18100
H 	H 	0.41530 0.39610 0.92490 0.20900
H 	H 	0.41460 0.36590 0.82350 0.24700
C 	C 	0.40270 0.50560 0.86370 -0.28500
H 	H 	0.37460 0.53380 0.84590 0.47700
H 	H 	0.40300 0.50100 0.93270 0.02000
H 	H 	0.44000 0.51790 0.84220 0.01400
C 	C 	0.49760 0.37300 0.12800 -0.95800
C 	C 	0.57300 0.44780 0.15600 0.01200
C 	C 	0.59790 0.34440 0.16100 -0.74900
H 	H 	0.47110 0.35400 0.17090 -0.07000
H 	H 	0.50730 0.34790 0.07570 0.29500
H 	H 	0.48030 0.40730 0.10340 0.34400
H 	H 	0.58150 0.44890 0.08840 0.07300
H 	H 	0.60670 0.45620 0.19290 0.08000
H 	H 	0.54370 0.47590 0.17060 -0.03500
H 	H 	0.62580 0.34490 0.21230 0.20600
H 	H 	0.61620 0.35420 0.10110 0.18500
H 	H 	0.58140 0.30670 0.15630 0.17200
Ag	Ag	0.23302 0.95148 0.89306 0.32200
S 	S 	0.14891 0.93045 0.01041 -0.07700
C 	C 	0.12510 0.99360 0.06200 -0.05600
C 	C 	0.11040 0.04080 0.00760 0.13600
C 	C 	0.08870 0.90900 0.94560 -0.06400
C 	C 	0.09080 0.91120 0.84570 0.07000
H 	H 	0.12360 0.92530 0.81550 -0.03100
C 	C 	0.12260 0.99650 0.16210 0.07400
H 	H 	0.13190 0.96400 0.19820 -0.00300
C 	C 	0.04570 0.89320 0.79040 -0.24600
O 	O 	0.11660 0.03910 0.91220 -0.20400
C 	C 	0.16870 0.06320 0.88290 -0.04900
H 	H 	0.16760 0.10440 0.89210 0.04000
H 	H 	0.19960 0.04790 0.92230 0.01700
C 	C 	0.17960 0.05000 0.78010 0.08800
N 	N 	0.20770 0.00250 0.75980 -0.20800
C 	C 	0.21890 0.99000 0.66990 0.05100
H 	H 	0.23650 0.95500 0.65630 -0.02600
C 	C 	0.20620 0.02520 0.59610 -0.13900
H 	H 	0.21690 0.01590 0.53310 0.04000
C 	C 	0.17730 0.07480 0.61540 0.02400
H 	H 	0.16590 0.09890 0.56520 -0.02500
C 	C 	0.16520 0.08890 0.71010 -0.14400
H 	H 	0.14780 0.12370 0.72580 0.05500
C 	C 	0.05070 0.88810 0.68310 0.66200
C 	C 	0.06650 0.82510 0.66280 -0.05600
H 	H 	0.08630 0.80950 0.71770 0.05600
H 	H 	0.09100 0.82320 0.60690 0.12000
H 	H 	0.03220 0.80340 0.65100 -0.00600
C 	C 	0.09920 0.92370 0.64270 -0.84000
H 	H 	0.09060 0.96370 0.65080 0.18100
H 	H 	0.10390 0.91530 0.57510 0.20900
H 	H 	0.13410 0.91460 0.67650 0.24700
C 	C 	0.99440 0.90270 0.63630 -0.28500
H 	H 	0.96620 0.87460 0.65410 0.47700
H 	H 	0.99900 0.90300 0.56730 0.02000
H 	H 	0.98210 0.94000 0.65780 0.01400
C 	C 	0.12700 0.99760 0.37200 -0.95900
C 	C 	0.05220 0.07300 0.34400 0.01100
C 	C 	0.15560 0.09790 0.33900 -0.74900
H 	H 	0.14600 0.97110 0.32910 -0.07000
H 	H 	0.15210 0.00730 0.42430 0.29500
H 	H 	0.09270 0.98030 0.39660 0.34400
H 	H 	0.05110 0.08150 0.41160 0.07300
H 	H 	0.04380 0.10670 0.30710 0.08000
H 	H 	0.02410 0.04370 0.32940 -0.03500
H 	H 	0.15510 0.12580 0.28770 0.20600
H 	H 	0.14580 0.11620 0.39890 0.18500
H 	H 	0.19330 0.08140 0.34370 0.17200
Ag	Ag	0.73302 0.45148 0.39306 0.32200
S 	S 	0.64891 0.43045 0.51041 -0.07700
C 	C 	0.62510 0.49360 0.56200 -0.05600
C 	C 	0.61040 0.54080 0.50760 0.13600
C 	C 	0.58870 0.40900 0.44560 -0.06400
C 	C 	0.59080 0.41120 0.34570 0.07000
H 	H 	0.62360 0.42530 0.31550 -0.03100
C 	C 	0.62260 0.49650 0.66210 0.07400
H 	H 	0.63190 0.46400 0.69820 -0.00300
C 	C 	0.54570 0.39320 0.29040 -0.24600
O 	O 	0.61660 0.53910 0.41220 -0.20400
C 	C 	0.66870 0.56320 0.38290 -0.04900
H 	H 	0.66760 0.60440 0.39210 0.04000
H 	H 	0.69960 0.54790 0.42230 0.01700
C 	C 	0.67960 0.55000 0.28010 0.08800
N 	N 	0.70770 0.50250 0.25980 -0.20800
C 	C 	0.71890 0.49000 0.16990 0.05100
H 	H 	0.73650 0.45500 0.15630 -0.02600
C 	C 	0.70620 0.52520 0.09610 -0.13900
H 	H 	0.71690 0.51590 0.03310 0.04000
C 	C 	0.67730 0.57480 0.11540 0.02400
H 	H 	0.66590 0.59890 0.06520 -0.02500
C 	C 	0.66520 0.58890 0.21010 -0.14400
H 	H 	0.64780 0.62370 0.22580 0.05500
C 	C 	0.55070 0.38810 0.18310 0.66200
C 	C 	0.56650 0.32510 0.16280 -0.05600
H 	H 	0.58630 0.30950 0.21770 0.05600
H 	H 	0.59100 0.32320 0.10690 0.12000
H 	H 	0.53220 0.30340 0.15100 -0.00600
C 	C 	0.59920 0.42370 0.14270 -0.84100
H 	H 	0.59060 0.46370 0.15080 0.18100
H 	H 	0.60390 0.41530 0.07510 0.20900
H 	H 	0.63410 0.41460 0.17650 0.24700
C 	C 	0.49440 0.40270 0.13630 -0.28500
H 	H 	0.46620 0.37460 0.15410 0.47700
H 	H 	0.49900 0.40300 0.06730 0.02000
H 	H 	0.48210 0.44000 0.15780 0.01400
C 	C 	0.62700 0.49760 0.87200 -0.95800
C 	C 	0.55220 0.57300 0.84400 0.01200
C 	C 	0.65560 0.59790 0.83900 -0.74900
H 	H 	0.64600 0.47110 0.82910 -0.07000
H 	H 	0.65210 0.50730 0.92430 0.29500
H 	H 	0.59270 0.48030 0.89660 0.34400
H 	H 	0.55110 0.58150 0.91160 0.07300
H 	H 	0.54380 0.60670 0.80710 0.08000
H 	H 	0.52410 0.54370 0.82940 -0.03500
H 	H 	0.65510 0.62580 0.78770 0.20600
H 	H 	0.64580 0.61620 0.89890 0.18500
H 	H 	0.69330 0.58140 0.84370 0.17200
Ag	Ag	0.76698 0.04852 0.89306 0.32200
S 	S 	0.85109 0.06955 0.01041 -0.07700
C 	C 	0.87490 0.00640 0.06200 -0.05600
C 	C 	0.88960 0.95920 0.00760 0.13600
C 	C 	0.91130 0.09100 0.94560 -0.06400
C 	C 	0.90920 0.08880 0.84570 0.07000
H 	H 	0.87640 0.07470 0.81550 -0.03100
C 	C 	0.87740 0.00350 0.16210 0.07400
H 	H 	0.86810 0.03600 0.19820 -0.00300
C 	C 	0.95430 0.10680 0.79040 -0.24600
O 	O 	0.88340 0.96090 0.91220 -0.20400
C 	C 	0.83130 0.93680 0.88290 -0.04900
H 	H 	0.83240 0.89560 0.89210 0.04000
H 	H 	0.80040 0.95210 0.92230 0.01700
C 	C 	0.82040 0.95000 0.78010 0.08800
N 	N 	0.79230 0.99750 0.75980 -0.20800
C 	C 	0.78110 0.01000 0.66990 0.05100
H 	H 	0.76350 0.04500 0.65630 -0.02600
C 	C 	0.79380 0.97480 0.59610 -0.13900
H 	H 	0.78310 0.98410 0.53310 0.04000
C 	C 	0.82270 0.92520 0.61540 0.02400
H 	H 	0.83410 0.90110 0.56520 -0.02500
C 	C 	0.83480 0.91110 0.71010 -0.14400
H 	H 	0.85220 0.87630 0.72580 0.05500
C 	C 	0.94930 0.11190 0.68310 0.66200
C 	C 	0.93350 0.17490 0.66280 -0.05600
H 	H 	0.91370 0.19050 0.71770 0.05600
H 	H 	0.90900 0.17680 0.60690 0.12000
H 	H 	0.96780 0.19660 0.65100 -0.00600
C 	C 	0.90080 0.07630 0.64270 -0.84000
H 	H 	0.90940 0.03630 0.65080 0.18100
H 	H 	0.89610 0.08470 0.57510 0.20900
H 	H 	0.86590 0.08540 0.67650 0.24700
C 	C 	0.00560 0.09730 0.63630 -0.28500
H 	H 	0.03380 0.12540 0.65410 0.47700
H 	H 	0.00100 0.09700 0.56730 0.02000
H 	H 	0.01790 0.06000 0.65780 0.01400
C 	C 	0.87300 0.00240 0.37200 -0.95900
C 	C 	0.94780 0.92700 0.34400 0.01100
C 	C 	0.84440 0.90210 0.33900 -0.74900
H 	H 	0.85400 0.02890 0.32910 -0.07000
H 	H 	0.84790 0.99270 0.42430 0.29500
H 	H 	0.90730 0.01970 0.39660 0.34400
H 	H 	0.94890 0.91850 0.41160 0.07300
H 	H 	0.95620 0.89330 0.30710 0.08000
H 	H 	0.97590 0.95630 0.32940 -0.03500
H 	H 	0.84490 0.87420 0.28770 0.20600
H 	H 	0.85420 0.88380 0.39890 0.18500
H 	H 	0.80670 0.91860 0.34370 0.17200
Ag	Ag	0.26698 0.54852 0.39306 0.32200
S 	S 	0.35109 0.56955 0.51041 -0.07700
C 	C 	0.37490 0.50640 0.56200 -0.05600
C 	C 	0.38960 0.45920 0.50760 0.13600
C 	C 	0.41130 0.59100 0.44560 -0.06400
C 	C 	0.40920 0.58880 0.34570 0.07000
H 	H 	0.37640 0.57470 0.31550 -0.03100
C 	C 	0.37740 0.50350 0.66210 0.07400
H 	H 	0.36810 0.53600 0.69820 -0.00300
C 	C 	0.45430 0.60680 0.29040 -0.24600
O 	O 	0.38340 0.46090 0.41220 -0.20400
C 	C 	0.33130 0.43680 0.38290 -0.04900
H 	H 	0.33240 0.39560 0.39210 0.04000
H 	H 	0.30040 0.45210 0.42230 0.01700
C 	C 	0.32040 0.45000 0.28010 0.08800
N 	N 	0.29230 0.49750 0.25980 -0.20800
C 	C 	0.28110 0.51000 0.16990 0.05100
H 	H 	0.26350 0.54500 0.15630 -0.02600
C 	C 	0.29380 0.47480 0.09610 -0.13900
H 	H 	0.28310 0.48410 0.03310 0.04000
C 	C 	0.32270 0.42520 0.11540 0.02400
H 	H 	0.33410 0.40110 0.06520 -0.02500
C 	C 	0.33480 0.41110 0.21010 -0.14400
H 	H 	0.35220 0.37630 0.22580 0.05500
C 	C 	0.44930 0.61190 0.18310 0.66200
C 	C 	0.43350 0.67490 0.16280 -0.05600
H 	H 	0.41370 0.69050 0.21770 0.05600
H 	H 	0.40900 0.67680 0.10690 0.12000
H 	H 	0.46780 0.69660 0.15100 -0.00600
C 	C 	0.40080 0.57630 0.14270 -0.84100
H 	H 	0.40940 0.53630 0.15080 0.18100
H 	H 	0.39610 0.58470 0.07510 0.20900
H 	H 	0.36590 0.58540 0.17650 0.24700
C 	C 	0.50560 0.59730 0.13630 -0.28500
H 	H 	0.53380 0.62540 0.15410 0.47700
H 	H 	0.50100 0.59700 0.06730 0.02000
H 	H 	0.51790 0.56000 0.15780 0.01400
C 	C 	0.37300 0.50240 0.87200 -0.95800
C 	C 	0.44780 0.42700 0.84400 0.01200
C 	C 	0.34440 0.40210 0.83900 -0.74900
H 	H 	0.35400 0.52890 0.82910 -0.07000
H 	H 	0.34790 0.49270 0.92430 0.29500
H 	H 	0.40730 0.51970 0.89660 0.34400
H 	H 	0.44890 0.41850 0.91160 0.07300
H 	H 	0.45620 0.39330 0.80710 0.08000
H 	H 	0.47590 0.45630 0.82940 -0.03500
H 	H 	0.34490 0.37420 0.78770 0.20600
H 	H 	0.35420 0.38380 0.89890 0.18500
H 	H 	0.30670 0.41860 0.84370 0.17200
Ag	Ag	0.45148 0.23302 0.64306 0.32200
S 	S 	0.43045 0.14891 0.76041 -0.07700
C 	C 	0.49360 0.12510 0.81200 -0.05600
C 	C 	0.54080 0.11040 0.75760 0.13600
C 	C 	0.40900 0.08870 0.69560 -0.06400
C 	C 	0.41120 0.09080 0.59570 0.07000
H 	H 	0.42530 0.12360 0.56550 -0.03100
C 	C 	0.49650 0.12260 0.91210 0.07400
H 	H 	0.46400 0.13190 0.94820 -0.00300
C 	C 	0.39320 0.04570 0.54040 -0.24600
O 	O 	0.53910 0.11660 0.66220 -0.20400
C 	C 	0.56320 0.16870 0.63290 -0.04900
H 	H 	0.60440 0.16760 0.64210 0.04000
H 	H 	0.54790 0.19960 0.67230 0.01700
C 	C 	0.55000 0.17960 0.53010 0.08800
N 	N 	0.50250 0.20770 0.50980 -0.20800
C 	C 	0.49000 0.21890 0.41990 0.05100
H 	H 	0.45500 0.23650 0.40630 -0.02700
C 	C 	0.52520 0.20620 0.34610 -0.13900
H 	H 	0.51590 0.21690 0.28310 0.04000
C 	C 	0.57480 0.17730 0.36540 0.02400
H 	H 	0.59890 0.16590 0.31520 -0.02500
C 	C 	0.58890 0.16520 0.46010 -0.14400
H 	H 	0.62370 0.14780 0.47580 0.05500
C 	C 	0.38810 0.05070 0.43310 0.66200
C 	C 	0.32510 0.06650 0.41280 -0.05600
H 	H 	0.30950 0.08630 0.46770 0.05600
H 	H 	0.32320 0.09100 0.35690 0.12000
H 	H 	0.30340 0.03220 0.40100 -0.00600
C 	C 	0.42370 0.09920 0.39270 -0.84100
H 	H 	0.46370 0.09060 0.40080 0.18100
H 	H 	0.41530 0.10390 0.32510 0.20900
H 	H 	0.41460 0.13410 0.42650 0.24700
C 	C 	0.40270 0.99440 0.38630 -0.28500
H 	H 	0.37460 0.96620 0.40410 0.47700
H 	H 	0.40300 0.99900 0.31730 0.02000
H 	H 	0.44000 0.98210 0.40780 0.01400
C 	C 	0.49760 0.12700 0.12200 -0.95800
C 	C 	0.57300 0.05220 0.09400 0.01100
C 	C 	0.59790 0.15560 0.08900 -0.74800
H 	H 	0.47110 0.14600 0.07910 -0.07000
H 	H 	0.50730 0.15210 0.17430 0.29500
H 	H 	0.48030 0.09270 0.14660 0.34400
H 	H 	0.58150 0.05110 0.16160 0.07300
H 	H 	0.60670 0.04380 0.05710 0.08000
H 	H 	0.54370 0.02410 0.07940 -0.03500
H 	H 	0.62580 0.15510 0.03770 0.20600
H 	H 	0.61620 0.14580 0.14890 0.18500
H 	H 	0.58140 0.19330 0.09370 0.17200
Ag	Ag	0.95148 0.73302 0.14306 0.32200
S 	S 	0.93045 0.64891 0.26041 -0.07700
C 	C 	0.99360 0.62510 0.31200 -0.05600
C 	C 	0.04080 0.61040 0.25760 0.13600
C 	C 	0.90900 0.58870 0.19560 -0.06400
C 	C 	0.91120 0.59080 0.09570 0.07000
H 	H 	0.92530 0.62360 0.06550 -0.03100
C 	C 	0.99650 0.62260 0.41210 0.07400
H 	H 	0.96400 0.63190 0.44820 -0.00300
C 	C 	0.89320 0.54570 0.04040 -0.24600
O 	O 	0.03910 0.61660 0.16220 -0.20400
C 	C 	0.06320 0.66870 0.13290 -0.05000
H 	H 	0.10440 0.66760 0.14210 0.04000
H 	H 	0.04790 0.69960 0.17230 0.01700
C 	C 	0.05000 0.67960 0.03010 0.08900
N 	N 	0.00250 0.70770 0.00980 -0.20800
C 	C 	0.99000 0.71890 0.91990 0.05100
H 	H 	0.95500 0.73650 0.90630 -0.02600
C 	C 	0.02520 0.70620 0.84610 -0.14000
H 	H 	0.01590 0.71690 0.78310 0.04000
C 	C 	0.07480 0.67730 0.86540 0.02400
H 	H 	0.09890 0.66590 0.81520 -0.02500
C 	C 	0.08890 0.66520 0.96010 -0.14400
H 	H 	0.12370 0.64780 0.97580 0.05500
C 	C 	0.88810 0.55070 0.93310 0.66200
C 	C 	0.82510 0.56650 0.91280 -0.05600
H 	H 	0.80950 0.58630 0.96770 0.05600
H 	H 	0.82320 0.59100 0.85690 0.12000
H 	H 	0.80340 0.53220 0.90100 -0.00600
C 	C 	0.92370 0.59920 0.89270 -0.84000
H 	H 	0.96370 0.59060 0.90080 0.18100
H 	H 	0.91530 0.60390 0.82510 0.20900
H 	H 	0.91460 0.63410 0.92650 0.24700
C 	C 	0.90270 0.49440 0.88630 -0.28500
H 	H 	0.87460 0.46620 0.90410 0.47700
H 	H 	0.90300 0.49900 0.81730 0.02000
H 	H 	0.94000 0.48210 0.90780 0.01400
C 	C 	0.99760 0.62700 0.62200 -0.95900
C 	C 	0.07300 0.55220 0.59400 0.01100
C 	C 	0.09790 0.65560 0.58900 -0.74900
H 	H 	0.97110 0.64600 0.57910 -0.07000
H 	H 	0.00730 0.65210 0.67430 0.29500
H 	H 	0.98030 0.59270 0.64660 0.34400
H 	H 	0.08150 0.55110 0.66160 0.07300
H 	H 	0.10670 0.54380 0.55710 0.08000
H 	H 	0.04370 0.52410 0.57940 -0.03500
H 	H 	0.12580 0.65510 0.53770 0.20600
H 	H 	0.11620 0.64580 0.64890 0.18500
H 	H 	0.08140 0.69330 0.59370 0.17200
Ag	Ag	0.54852 0.76698 0.64306 0.32200
S 	S 	0.56955 0.85109 0.76041 -0.07700
C 	C 	0.50640 0.87490 0.81200 -0.05600
C 	C 	0.45920 0.88960 0.75760 0.13600
C 	C 	0.59100 0.91130 0.69560 -0.06400
C 	C 	0.58880 0.90920 0.59570 0.07000
H 	H 	0.57470 0.87640 0.56550 -0.03100
C 	C 	0.50350 0.87740 0.91210 0.07400
H 	H 	0.53600 0.86810 0.94820 -0.00300
C 	C 	0.60680 0.95430 0.54040 -0.24600
O 	O 	0.46090 0.88340 0.66220 -0.20400
C 	C 	0.43680 0.83130 0.63290 -0.04900
H 	H 	0.39560 0.83240 0.64210 0.04000
H 	H 	0.45210 0.80040 0.67230 0.01700
C 	C 	0.45000 0.82040 0.53010 0.08800
N 	N 	0.49750 0.79230 0.50980 -0.20800
C 	C 	0.51000 0.78110 0.41990 0.05100
H 	H 	0.54500 0.76350 0.40630 -0.02700
C 	C 	0.47480 0.79380 0.34610 -0.13900
H 	H 	0.48410 0.78310 0.28310 0.04000
C 	C 	0.42520 0.82270 0.36540 0.02400
H 	H 	0.40110 0.83410 0.31520 -0.02500
C 	C 	0.41110 0.83480 0.46010 -0.14400
H 	H 	0.37630 0.85220 0.47580 0.05500
C 	C 	0.61190 0.94930 0.43310 0.66200
C 	C 	0.67490 0.93350 0.41280 -0.05600
H 	H 	0.69050 0.91370 0.46770 0.05600
H 	H 	0.67680 0.90900 0.35690 0.12000
H 	H 	0.69660 0.96780 0.40100 -0.00600
C 	C 	0.57630 0.90080 0.39270 -0.84100
H 	H 	0.53630 0.90940 0.40080 0.18100
H 	H 	0.58470 0.89610 0.32510 0.20900
H 	H 	0.58540 0.86590 0.42650 0.24700
C 	C 	0.59730 0.00560 0.38630 -0.28500
H 	H 	0.62540 0.03380 0.40410 0.47700
H 	H 	0.59700 0.00100 0.31730 0.02000
H 	H 	0.56000 0.01790 0.40780 0.01400
C 	C 	0.50240 0.87300 0.12200 -0.95800
C 	C 	0.42700 0.94780 0.09400 0.01100
C 	C 	0.40210 0.84440 0.08900 -0.74800
H 	H 	0.52890 0.85400 0.07910 -0.07000
H 	H 	0.49270 0.84790 0.17430 0.29500
H 	H 	0.51970 0.90730 0.14660 0.34400
H 	H 	0.41850 0.94890 0.16160 0.07300
H 	H 	0.39330 0.95620 0.05710 0.08000
H 	H 	0.45630 0.97590 0.07940 -0.03500
H 	H 	0.37420 0.84490 0.03770 0.20600
H 	H 	0.38380 0.85420 0.14890 0.18500
H 	H 	0.41860 0.80670 0.09370 0.17200
Ag	Ag	0.04852 0.26698 0.14306 0.32200
S 	S 	0.06955 0.35109 0.26041 -0.07700
C 	C 	0.00640 0.37490 0.31200 -0.05600
C 	C 	0.95920 0.38960 0.25760 0.13600
C 	C 	0.09100 0.41130 0.19560 -0.06400
C 	C 	0.08880 0.40920 0.09570 0.07000
H 	H 	0.07470 0.37640 0.06550 -0.03100
C 	C 	0.00350 0.37740 0.41210 0.07400
H 	H 	0.03600 0.36810 0.44820 -0.00300
C 	C 	0.10680 0.45430 0.04040 -0.24600
O 	O 	0.96090 0.38340 0.16220 -0.20400
C 	C 	0.93680 0.33130 0.13290 -0.05000
H 	H 	0.89560 0.33240 0.14210 0.04000
H 	H 	0.95210 0.30040 0.17230 0.01700
C 	C 	0.95000 0.32040 0.03010 0.08900
N 	N 	0.99750 0.29230 0.00980 -0.20800
C 	C 	0.01000 0.28110 0.91990 0.05100
H 	H 	0.04500 0.26350 0.90630 -0.02600
C 	C 	0.97480 0.29380 0.84610 -0.14000
H 	H 	0.98410 0.28310 0.78310 0.04000
C 	C 	0.92520 0.32270 0.86540 0.02400
H 	H 	0.90110 0.33410 0.81520 -0.02500
C 	C 	0.91110 0.33480 0.96010 -0.14400
H 	H 	0.87630 0.35220 0.97580 0.05500
C 	C 	0.11190 0.44930 0.93310 0.66200
C 	C 	0.17490 0.43350 0.91280 -0.05600
H 	H 	0.19050 0.41370 0.96770 0.05600
H 	H 	0.17680 0.40900 0.85690 0.12000
H 	H 	0.19660 0.46780 0.90100 -0.00600
C 	C 	0.07630 0.40080 0.89270 -0.84000
H 	H 	0.03630 0.40940 0.90080 0.18100
H 	H 	0.08470 0.39610 0.82510 0.20900
H 	H 	0.08540 0.36590 0.92650 0.24700
C 	C 	0.09730 0.50560 0.88630 -0.28500
H 	H 	0.12540 0.53380 0.90410 0.47700
H 	H 	0.09700 0.50100 0.81730 0.02000
H 	H 	0.06000 0.51790 0.90780 0.01400
C 	C 	0.00240 0.37300 0.62200 -0.95900
C 	C 	0.92700 0.44780 0.59400 0.01100
C 	C 	0.90210 0.34440 0.58900 -0.74900
H 	H 	0.02890 0.35400 0.57910 -0.07000
H 	H 	0.99270 0.34790 0.67430 0.29500
H 	H 	0.01970 0.40730 0.64660 0.34400
H 	H 	0.91850 0.44890 0.66160 0.07300
H 	H 	0.89330 0.45620 0.55710 0.08000
H 	H 	0.95630 0.47590 0.57940 -0.03500
H 	H 	0.87420 0.34490 0.53770 0.20600
H 	H 	0.88380 0.35420 0.64890 0.18500
H 	H 	0.91860 0.30670 0.59370 0.17200
Ag	Ag	0.26698 0.95148 0.85694 0.32200
S 	S 	0.35109 0.93045 0.73959 -0.07700
C 	C 	0.37490 0.99360 0.68800 -0.05600
C 	C 	0.38960 0.04080 0.74240 0.13600
C 	C 	0.41130 0.90900 0.80440 -0.06400
C 	C 	0.40920 0.91120 0.90430 0.07000
H 	H 	0.37640 0.92530 0.93450 -0.03100
C 	C 	0.37740 0.99650 0.58790 0.07400
H 	H 	0.36810 0.96400 0.55180 -0.00300
C 	C 	0.45430 0.89320 0.95960 -0.24600
O 	O 	0.38340 0.03910 0.83780 -0.20400
C 	C 	0.33130 0.06320 0.86710 -0.05000
H 	H 	0.33240 0.10440 0.85790 0.04000
H 	H 	0.30040 0.04790 0.82770 0.01700
C 	C 	0.32040 0.05000 0.96990 0.08900
N 	N 	0.29230 0.00250 0.99020 -0.20800
C 	C 	0.28110 0.99000 0.08010 0.05100
H 	H 	0.26350 0.95500 0.09370 -0.02600
C 	C 	0.29380 0.02520 0.15390 -0.14000
H 	H 	0.28310 0.01590 0.21690 0.04000
C 	C 	0.32270 0.07480 0.13460 0.02400
H 	H 	0.33410 0.09890 0.18480 -0.02500
C 	C 	0.33480 0.08890 0.03990 -0.14400
H 	H 	0.35220 0.12370 0.02420 0.05500
C 	C 	0.44930 0.88810 0.06690 0.66200
C 	C 	0.43350 0.82510 0.08720 -0.05600
H 	H 	0.41370 0.80950 0.03230 0.05600
H 	H 	0.40900 0.82320 0.14310 0.12000
H 	H 	0.46780 0.80340 0.09900 -0.00600
C 	C 	0.40080 0.92370 0.10730 -0.84000
H 	H 	0.40940 0.96370 0.09920 0.18100
H 	H 	0.39610 0.91530 0.17490 0.20900
H 	H 	0.36590 0.91460 0.07350 0.24700
C 	C 	0.50560 0.90270 0.11370 -0.28500
H 	H 	0.53380 0.87460 0.09590 0.47700
H 	H 	0.50100 0.90300 0.18270 0.02000
H 	H 	0.51790 0.94000 0.09220 0.01400
C 	C 	0.37300 0.99760 0.37800 -0.95900
C 	C 	0.44780 0.07300 0.40600 0.01100
C 	C 	0.34440 0.09790 0.41100 -0.74900
H 	H 	0.35400 0.97110 0.42090 -0.07000
H 	H 	0.34790 0.00730 0.32570 0.29500
H 	H 	0.40730 0.98030 0.35340 0.34400
H 	H 	0.44890 0.08150 0.33840 0.07300
H 	H 	0.45620 0.10670 0.44290 0.08000
H 	H 	0.47590 0.04370 0.42060 -0.03500
H 	H 	0.34490 0.12580 0.46230 0.20600
H 	H 	0.35420 0.11620 0.35110 0.18500
H 	H 	0.30670 0.08140 0.40630 0.17200
Ag	Ag	0.76698 0.45148 0.35694 0.32200
S 	S 	0.85109 0.43045 0.23959 -0.07700
C 	C 	0.87490 0.49360 0.18800 -0.05600
C 	C 	0.88960 0.54080 0.24240 0.13600
C 	C 	0.91130 0.40900 0.30440 -0.06400
C 	C 	0.90920 0.41120 0.40430 0.07000
H 	H 	0.87640 0.42530 0.43450 -0.03100
C 	C 	0.87740 0.49650 0.08790 0.07400
H 	H 	0.86810 0.46400 0.05180 -0.00300
C 	C 	0.95430 0.39320 0.45960 -0.24600
O 	O 	0.88340 0.53910 0.33780 -0.20400
C 	C 	0.83130 0.56320 0.36710 -0.04900
H 	H 	0.83240 0.60440 0.35790 0.04000
H 	H 	0.80040 0.54790 0.32770 0.01700
C 	C 	0.82040 0.55000 0.46990 0.08800
N 	N 	0.79230 0.50250 0.49020 -0.20800
C 	C 	0.78110 0.49000 0.58010 0.05100
H 	H 	0.76350 0.45500 0.59370 -0.02700
C 	C 	0.79380 0.52520 0.65390 -0.13900
H 	H 	0.78310 0.51590 0.71690 0.04000
C 	C 	0.82270 0.57480 0.63460 0.02400
H 	H 	0.83410 0.59890 0.68480 -0.02500
C 	C 	0.83480 0.58890 0.53990 -0.14400
H 	H 	0.85220 0.62370 0.52420 0.05500
C 	C 	0.94930 0.38810 0.56690 0.66200
C 	C 	0.93350 0.32510 0.58720 -0.05600
H 	H 	0.91370 0.30950 0.53230 0.05600
H 	H 	0.90900 0.32320 0.64310 0.12000
H 	H 	0.96780 0.30340 0.59900 -0.00600
C 	C 	0.90080 0.42370 0.60730 -0.84100
H 	H 	0.90940 0.46370 0.59920 0.18100
H 	H 	0.89610 0.41530 0.67490 0.20900
H 	H 	0.86590 0.41460 0.57350 0.24700
C 	C 	0.00560 0.40270 0.61370 -0.28500
H 	H 	0.03380 0.37460 0.59590 0.47700
H 	H 	0.00100 0.40300 0.68270 0.02000
H 	H 	0.01790 0.44000 0.59220 0.01400
C 	C 	0.87300 0.49760 0.87800 -0.95800
C 	C 	0.94780 0.57300 0.90600 0.01100
C 	C 	0.84440 0.59790 0.91100 -0.74800
H 	H 	0.85400 0.47110 0.92090 -0.07000
H 	H 	0.84790 0.50730 0.82570 0.29500
H 	H 	0.90730 0.48030 0.85340 0.34400
H 	H 	0.94890 0.58150 0.83840 0.07300
H 	H 	0.95620 0.60670 0.94290 0.08000
H 	H 	0.97590 0.54370 0.92060 -0.03500
H 	H 	0.84490 0.62580 0.96230 0.20600
H 	H 	0.85420 0.61620 0.85110 0.18500
H 	H 	0.80670 0.58140 0.90630 0.17200
Ag	Ag	0.73302 0.04852 0.85694 0.32200
S 	S 	0.64891 0.06955 0.73959 -0.07700
C 	C 	0.62510 0.00640 0.68800 -0.05600
C 	C 	0.61040 0.95920 0.74240 0.13600
C 	C 	0.58870 0.09100 0.80440 -0.06400
C 	C 	0.59080 0.08880 0.90430 0.07000
H 	H 	0.62360 0.07470 0.93450 -0.03100
C 	C 	0.62260 0.00350 0.58790 0.07400
H 	H 	0.63190 0.03600 0.55180 -0.00300
C 	C 	0.54570 0.10680 0.95960 -0.24600
O 	O 	0.61660 0.96090 0.83780 -0.20400
C 	C 	0.66870 0.93680 0.86710 -0.05000
H 	H 	0.66760 0.89560 0.85790 0.04000
H 	H 	0.69960 0.95210 0.82770 0.01700
C 	C 	0.67960 0.95000 0.96990 0.08900
N 	N 	0.70770 0.99750 0.99020 -0.20800
C 	C 	0.71890 0.01000 0.08010 0.05100
H 	H 	0.73650 0.04500 0.09370 -0.02600
C 	C 	0.70620 0.97480 0.15390 -0.14000
H 	H 	0.71690 0.98410 0.21690 0.04000
C 	C 	0.67730 0.92520 0.13460 0.02400
H 	H 	0.66590 0.90110 0.18480 -0.02500
C 	C 	0.66520 0.91110 0.03990 -0.14400
H 	H 	0.64780 0.87630 0.02420 0.05500
C 	C 	0.55070 0.11190 0.06690 0.66200
C 	C 	0.56650 0.17490 0.08720 -0.05600
H 	H 	0.58630 0.19050 0.03230 0.05600
H 	H 	0.59100 0.17680 0.14310 0.12000
H 	H 	0.53220 0.19660 0.09900 -0.00600
C 	C 	0.59920 0.07630 0.10730 -0.84000
H 	H 	0.59060 0.03630 0.09920 0.18100
H 	H 	0.60390 0.08470 0.17490 0.20900
H 	H 	0.63410 0.08540 0.07350 0.24700
C 	C 	0.49440 0.09730 0.11370 -0.28500
H 	H 	0.46620 0.12540 0.09590 0.47700
H 	H 	0.49900 0.09700 0.18270 0.02000
H 	H 	0.48210 0.06000 0.09220 0.01400
C 	C 	0.62700 0.00240 0.37800 -0.95900
C 	C 	0.55220 0.92700 0.40600 0.01100
C 	C 	0.65560 0.90210 0.41100 -0.74900
H 	H 	0.64600 0.02890 0.42090 -0.07000
H 	H 	0.65210 0.99270 0.32570 0.29500
H 	H 	0.59270 0.01970 0.35340 0.34400
H 	H 	0.55110 0.91850 0.33840 0.07300
H 	H 	0.54380 0.89330 0.44290 0.08000
H 	H 	0.52410 0.95630 0.42060 -0.03500
H 	H 	0.65510 0.87420 0.46230 0.20600
H 	H 	0.64580 0.88380 0.35110 0.18500
H 	H 	0.69330 0.91860 0.40630 0.17200
Ag	Ag	0.23302 0.54852 0.35694 0.32200
S 	S 	0.14891 0.56955 0.23959 -0.07700
C 	C 	0.12510 0.50640 0.18800 -0.05600
C 	C 	0.11040 0.45920 0.24240 0.13600
C 	C 	0.08870 0.59100 0.30440 -0.06400
C 	C 	0.09080 0.58880 0.40430 0.07000
H 	H 	0.12360 0.57470 0.43450 -0.03100
C 	C 	0.12260 0.50350 0.08790 0.07400
H 	H 	0.13190 0.53600 0.05180 -0.00300
C 	C 	0.04570 0.60680 0.45960 -0.24600
O 	O 	0.11660 0.46090 0.33780 -0.20400
C 	C 	0.16870 0.43680 0.36710 -0.04900
H 	H 	0.16760 0.39560 0.35790 0.04000
H 	H 	0.19960 0.45210 0.32770 0.01700
C 	C 	0.17960 0.45000 0.46990 0.08800
N 	N 	0.20770 0.49750 0.49020 -0.20800
C 	C 	0.21890 0.51000 0.58010 0.05100
H 	H 	0.23650 0.54500 0.59370 -0.02700
C 	C 	0.20620 0.47480 0.65390 -0.13900
H 	H 	0.21690 0.48410 0.71690 0.04000
C 	C 	0.17730 0.42520 0.63460 0.02400
H 	H 	0.16590 0.40110 0.68480 -0.02500
C 	C 	0.16520 0.41110 0.53990 -0.14400
H 	H 	0.14780 0.37630 0.52420 0.05500
C 	C 	0.05070 0.61190 0.56690 0.66200
C 	C 	0.06650 0.67490 0.58720 -0.05600
H 	H 	0.08630 0.69050 0.53230 0.05600
H 	H 	0.09100 0.67680 0.64310 0.12000
H 	H 	0.03220 0.69660 0.59900 -0.00600
C 	C 	0.09920 0.57630 0.60730 -0.84100
H 	H 	0.09060 0.53630 0.59920 0.18100
H 	H 	0.10390 0.58470 0.67490 0.20900
H 	H 	0.13410 0.58540 0.57350 0.24700
C 	C 	0.99440 0.59730 0.61370 -0.28500
H 	H 	0.96620 0.62540 0.59590 0.47700
H 	H 	0.99900 0.59700 0.68270 0.02000
H 	H 	0.98210 0.56000 0.59220 0.01400
C 	C 	0.12700 0.50240 0.87800 -0.95800
C 	C 	0.05220 0.42700 0.90600 0.01100
C 	C 	0.15560 0.40210 0.91100 -0.74800
H 	H 	0.14600 0.52890 0.92090 -0.07000
H 	H 	0.15210 0.49270 0.82570 0.29500
H 	H 	0.09270 0.51970 0.85340 0.34400
H 	H 	0.05110 0.41850 0.83840 0.07300
H 	H 	0.04380 0.39330 0.94290 0.08000
H 	H 	0.02410 0.45630 0.92060 -0.03500
H 	H 	0.15510 0.37420 0.96230 0.20600
H 	H 	0.14580 0.38380 0.85110 0.18500
H 	H 	0.19330 0.41860 0.90630 0.17200
