data_crystal

_cell_length_a 7.56090
_cell_length_b 14.18900
_cell_length_c 11.17400
_cell_angle_alpha 90.00000
_cell_angle_beta  99.04000
_cell_angle_gamma 90.00000

_symmetry_space_group_name_	'P 1'
_symmetry_space_group_name_H-M	'P 1'

loop_
_symmetry_equiv_pos_as_xyz
  x,y,z

loop_
_atom_site_label
_atom_site_type_symbol
_atom_site_fract_x
_atom_site_fract_y
_atom_site_fract_z
_atom_site_charge
P 	P 	0.78090 0.19873 0.58066 0.52400
P 	P 	0.72787 0.80182 0.55716 0.52500
F 	F 	0.31640 0.15869 0.76849 -0.77100
F 	F 	0.24120 0.32794 0.76130 -0.72100
O 	O 	0.63680 0.19414 0.66267 -0.54100
O 	O 	0.96890 0.21166 0.65213 -0.48000
O 	O 	0.58300 0.79724 0.63748 -0.52400
O 	O 	0.74340 0.27778 0.48604 -0.49200
O 	O 	0.91440 0.78112 0.62617 -0.49100
O 	O 	0.68830 0.73224 0.45155 -0.50900
C 	C 	0.77020 0.08930 0.50210 -0.44800
H 	H 	0.66120 0.08870 0.44330 0.18200
H 	H 	0.87000 0.08670 0.45730 0.17500
C 	C 	0.72980 0.91680 0.49210 -0.41400
H 	H 	0.61290 0.92800 0.44470 0.17000
H 	H 	0.81600 0.91650 0.43630 0.16900
C 	C 	0.77380 -0.00000 0.57850 0.17300
H 	H 	0.89130 0.99160 0.62650 -0.04100
H 	H 	0.68630 0.00430 0.63310 -0.03600
V 	V 	0.08805 0.20291 0.82250 1.74900
V 	V 	0.44666 0.26846 0.71424 1.79600
P 	P 	0.71910 0.69873 0.91934 0.53900
P 	P 	0.77213 0.30182 0.94284 0.54400
F 	F 	0.18360 0.65869 0.73151 -0.76700
F 	F 	0.25880 0.82794 0.73870 -0.71600
O 	O 	0.86320 0.69414 0.83733 -0.53600
O 	O 	0.53110 0.71166 0.84787 -0.48100
O 	O 	0.91700 0.29724 0.86252 -0.52700
O 	O 	0.75660 0.77778 0.01396 -0.49700
O 	O 	0.58560 0.28112 0.87383 -0.49700
O 	O 	0.81170 0.23224 0.04845 -0.51800
C 	C 	0.72980 0.58930 0.99790 -0.49000
H 	H 	0.83880 0.58870 0.05670 0.19400
H 	H 	0.63000 0.58670 0.04270 0.19000
C 	C 	0.77020 0.41680 0.00790 -0.49900
H 	H 	0.88710 0.42800 0.05530 0.18700
H 	H 	0.68400 0.41650 0.06370 0.18900
C 	C 	0.72620 0.50000 0.92150 0.30300
H 	H 	0.60870 0.49160 0.87350 -0.09900
H 	H 	0.81370 0.50430 0.86690 -0.06400
V 	V 	0.41195 0.70291 0.67750 1.75200
V 	V 	0.05334 0.76846 0.78576 1.79600
P 	P 	0.21910 0.80127 0.41934 0.52400
P 	P 	0.27213 0.19818 0.44284 0.52600
F 	F 	0.68360 0.84131 0.23151 -0.76300
F 	F 	0.75880 0.67206 0.23870 -0.72000
O 	O 	0.36320 0.80586 0.33733 -0.53600
O 	O 	0.03110 0.78834 0.34787 -0.47600
O 	O 	0.41700 0.20276 0.36252 -0.53000
O 	O 	0.25660 0.72222 0.51396 -0.49200
O 	O 	0.08560 0.21888 0.37383 -0.49300
O 	O 	0.31170 0.26776 0.54845 -0.50900
C 	C 	0.22980 0.91070 0.49790 -0.42900
H 	H 	0.33880 0.91130 0.55670 0.18600
H 	H 	0.13000 0.91330 0.54270 0.17900
C 	C 	0.27020 0.08320 0.50790 -0.43100
H 	H 	0.38710 0.07200 0.55530 0.16400
H 	H 	0.18400 0.08350 0.56370 0.16400
C 	C 	0.22620 0.00000 0.42150 0.17100
H 	H 	0.10870 0.00840 0.37350 -0.06700
H 	H 	0.31370 0.99570 0.36690 -0.00800
V 	V 	0.91195 0.79709 0.17750 1.75100
V 	V 	0.55334 0.73154 0.28576 1.79700
P 	P 	0.28090 0.30127 0.08066 0.53800
P 	P 	0.22787 0.69818 0.05716 0.54400
F 	F 	0.81640 0.34131 0.26849 -0.76700
F 	F 	0.74120 0.17206 0.26130 -0.72300
O 	O 	0.13680 0.30586 0.16267 -0.53700
O 	O 	0.46890 0.28834 0.15213 -0.48300
O 	O 	0.08300 0.70276 0.13748 -0.52500
O 	O 	0.24340 0.22222 0.98604 -0.50200
O 	O 	0.41440 0.71888 0.12617 -0.49500
O 	O 	0.18830 0.76776 0.95155 -0.51300
C 	C 	0.27020 0.41070 0.00210 -0.49100
H 	H 	0.16120 0.41130 0.94330 0.19500
H 	H 	0.37000 0.41330 0.95730 0.19000
C 	C 	0.22980 0.58320 0.99210 -0.49900
H 	H 	0.11290 0.57200 0.94470 0.18700
H 	H 	0.31600 0.58350 0.93630 0.18900
C 	C 	0.27380 0.50000 0.07850 0.30300
H 	H 	0.39130 0.50840 0.12650 -0.09900
H 	H 	0.18630 0.49570 0.13310 -0.06400
V 	V 	0.58805 0.29709 0.32250 1.75200
V 	V 	0.94666 0.23154 0.21424 1.79400
