data_crystal

_cell_length_a 10.10340
_cell_length_b 25.15500
_cell_length_c 9.10400
_cell_angle_alpha 90.00000
_cell_angle_beta  90.00000
_cell_angle_gamma 90.00000

_symmetry_space_group_name_	'P 1'
_symmetry_space_group_name_H-M	'P 1'

loop_
_symmetry_equiv_pos_as_xyz
  x,y,z

loop_
_atom_site_label
_atom_site_type_symbol
_atom_site_fract_x
_atom_site_fract_y
_atom_site_fract_z
_atom_site_charge
Zn	Zn	0.15762 0.55301 0.12094 1.23800
P 	P 	0.10956 0.68070 0.09736 0.48800
H 	H 	0.00050 0.68790 0.03650 -0.05600
P 	P 	0.43152 0.52763 0.28455 0.46700
H 	H 	0.50150 0.57100 0.29030 -0.05900
O 	O 	0.10960 0.72294 0.21670 -0.44900
O 	O 	0.19820 0.69087 0.96770 -0.47000
O 	O 	0.12140 0.62590 0.15910 -0.46900
O 	O 	0.33870 0.53275 0.15550 -0.42800
O 	O 	0.52890 0.48252 0.25080 -0.41100
O 	O 	0.36210 0.52068 0.42970 -0.46800
Zn	Zn	0.34238 0.94699 0.12094 1.23700
P 	P 	0.39044 0.81930 0.09736 0.48800
H 	H 	0.49950 0.81210 0.03650 -0.05500
P 	P 	0.06848 0.97237 0.28455 0.46300
H 	H 	0.99850 0.92900 0.29030 -0.05800
O 	O 	0.39040 0.77706 0.21670 -0.44900
O 	O 	0.30180 0.80913 0.96770 -0.47000
O 	O 	0.37860 0.87410 0.15910 -0.46800
O 	O 	0.16130 0.96725 0.15550 -0.42900
O 	O 	0.97110 0.01748 0.25080 -0.40900
O 	O 	0.13790 0.97932 0.42970 -0.46800
Zn	Zn	0.84238 0.05301 0.37906 1.23700
P 	P 	0.89044 0.18070 0.40264 0.49100
H 	H 	0.99950 0.18790 0.46350 -0.05500
P 	P 	0.56848 0.02763 0.21545 0.46700
H 	H 	0.49850 0.07100 0.20970 -0.05900
O 	O 	0.89040 0.22294 0.28330 -0.44800
O 	O 	0.80180 0.19087 0.53230 -0.47400
O 	O 	0.87860 0.12590 0.34090 -0.46800
O 	O 	0.66130 0.03275 0.34450 -0.42800
O 	O 	0.47110 0.98252 0.24920 -0.41200
O 	O 	0.63790 0.02068 0.07030 -0.46700
Zn	Zn	0.65762 0.44699 0.37906 1.23700
P 	P 	0.60956 0.31930 0.40264 0.49100
H 	H 	0.50050 0.31210 0.46350 -0.05500
P 	P 	0.93152 0.47237 0.21545 0.47000
H 	H 	0.00150 0.42900 0.20970 -0.06000
O 	O 	0.60960 0.27706 0.28330 -0.44800
O 	O 	0.69820 0.30913 0.53230 -0.47400
O 	O 	0.62140 0.37410 0.34090 -0.46800
O 	O 	0.83870 0.46725 0.34450 -0.42800
O 	O 	0.02890 0.51748 0.24920 -0.41300
O 	O 	0.86210 0.47932 0.07030 -0.46700
Zn	Zn	0.84238 0.44699 0.87906 1.23700
P 	P 	0.89044 0.31930 0.90264 0.48700
H 	H 	0.99950 0.31210 0.96350 -0.05600
P 	P 	0.56848 0.47237 0.71545 0.46700
H 	H 	0.49850 0.42900 0.70970 -0.05900
O 	O 	0.89040 0.27706 0.78330 -0.44900
O 	O 	0.80180 0.30913 0.03230 -0.47000
O 	O 	0.87860 0.37410 0.84090 -0.46900
O 	O 	0.66130 0.46725 0.84450 -0.42800
O 	O 	0.47110 0.51748 0.74920 -0.41100
O 	O 	0.63790 0.47932 0.57030 -0.46800
Zn	Zn	0.65762 0.05301 0.87906 1.23700
P 	P 	0.60956 0.18070 0.90264 0.48800
H 	H 	0.50050 0.18790 0.96350 -0.05500
P 	P 	0.93152 0.02763 0.71545 0.46300
H 	H 	0.00150 0.07100 0.70970 -0.05800
O 	O 	0.60960 0.22294 0.78330 -0.44900
O 	O 	0.69820 0.19087 0.03230 -0.47000
O 	O 	0.62140 0.12590 0.84090 -0.46800
O 	O 	0.83870 0.03275 0.84450 -0.42900
O 	O 	0.02890 0.98252 0.74920 -0.40900
O 	O 	0.86210 0.02068 0.57030 -0.46800
Zn	Zn	0.15762 0.94699 0.62094 1.23700
P 	P 	0.10956 0.81930 0.59736 0.49100
H 	H 	0.00050 0.81210 0.53650 -0.05500
P 	P 	0.43152 0.97237 0.78455 0.46700
H 	H 	0.50150 0.92900 0.79030 -0.05900
O 	O 	0.10960 0.77706 0.71670 -0.44800
O 	O 	0.19820 0.80913 0.46770 -0.47400
O 	O 	0.12140 0.87410 0.65910 -0.46800
O 	O 	0.33870 0.96725 0.65550 -0.42800
O 	O 	0.52890 0.01748 0.75080 -0.41200
O 	O 	0.36210 0.97932 0.92970 -0.46700
Zn	Zn	0.34238 0.55301 0.62094 1.23700
P 	P 	0.39044 0.68070 0.59736 0.49100
H 	H 	0.49950 0.68790 0.53650 -0.05500
P 	P 	0.06848 0.52763 0.78455 0.47000
H 	H 	0.99850 0.57100 0.79030 -0.06000
O 	O 	0.39040 0.72294 0.71670 -0.44800
O 	O 	0.30180 0.69087 0.46770 -0.47400
O 	O 	0.37860 0.62590 0.65910 -0.46800
O 	O 	0.16130 0.53275 0.65550 -0.42800
O 	O 	0.97110 0.48252 0.75080 -0.41300
O 	O 	0.13790 0.52068 0.92970 -0.46700
Zn	Zn	0.25000 0.75000 0.34437 1.23300
Zn	Zn	0.75000 0.25000 0.15563 1.23400
Zn	Zn	0.75000 0.25000 0.65563 1.23300
Zn	Zn	0.25000 0.75000 0.84437 1.23400
