data_crystal

_cell_length_a 6.80940
_cell_length_b 12.42200
_cell_length_c 17.17330
_cell_angle_alpha 90.00000
_cell_angle_beta  90.00000
_cell_angle_gamma 90.00000

_symmetry_space_group_name_	'P 1'
_symmetry_space_group_name_H-M	'P 1'

loop_
_symmetry_equiv_pos_as_xyz
  x,y,z

loop_
_atom_site_label
_atom_site_type_symbol
_atom_site_fract_x
_atom_site_fract_y
_atom_site_fract_z
_atom_site_charge
V 	V 	0.06055 0.26567 0.00084 1.83400
O 	O 	0.27830 0.31685 0.00492 -0.67200
O 	O 	0.11220 0.17110 0.91063 -0.50300
O 	O 	0.11190 0.14830 0.07571 -0.50800
O 	O 	0.93940 0.34460 0.08929 -0.51400
O 	O 	0.93940 0.36720 0.92476 -0.51000
C 	C 	0.27350 0.13860 0.88222 0.43000
C 	C 	0.26170 0.07640 0.80846 -0.08300
C 	C 	0.08010 0.05220 0.77610 -0.02400
H 	H 	0.96540 0.07580 0.80000 0.06500
C 	C 	0.07090 0.99260 0.70790 0.01300
H 	H 	0.94940 0.97640 0.68620 0.04300
C 	C 	0.43270 0.04030 0.77250 -0.01000
H 	H 	0.55460 0.05570 0.79420 0.05500
C 	C 	0.42030 0.98150 0.70450 -0.00600
H 	H 	0.53440 0.95790 0.68010 0.05600
C 	C 	0.27070 0.11300 0.10193 0.42700
C 	C 	0.23880 0.95740 0.67237 -0.09600
V 	V 	0.43945 0.73433 0.50084 1.83400
O 	O 	0.22170 0.68315 0.50492 -0.67300
O 	O 	0.38780 0.82890 0.41063 -0.50300
O 	O 	0.38810 0.85170 0.57571 -0.50800
O 	O 	0.56060 0.65540 0.58929 -0.51700
O 	O 	0.56060 0.63280 0.42476 -0.51000
C 	C 	0.22650 0.86140 0.38222 0.43500
C 	C 	0.23830 0.92360 0.30846 -0.09800
C 	C 	0.41990 0.94780 0.27610 -0.00400
H 	H 	0.53460 0.92420 0.30000 0.05500
C 	C 	0.42910 0.00740 0.20790 -0.01200
H 	H 	0.55060 0.02360 0.18620 0.05700
C 	C 	0.06730 0.95970 0.27250 0.01200
H 	H 	0.94540 0.94430 0.29420 0.04400
C 	C 	0.07970 0.01850 0.20450 -0.03200
H 	H 	0.96560 0.04210 0.18010 0.06900
C 	C 	0.22930 0.88700 0.60193 0.43400
C 	C 	0.26120 0.04260 0.17237 -0.07800
V 	V 	0.93945 0.76567 0.49916 1.83200
O 	O 	0.72170 0.81685 0.49508 -0.67500
O 	O 	0.88780 0.67110 0.58937 -0.50400
O 	O 	0.88810 0.64830 0.42429 -0.50800
O 	O 	0.06060 0.84460 0.41071 -0.51600
O 	O 	0.06060 0.86720 0.57524 -0.50900
C 	C 	0.72650 0.63860 0.61778 0.43100
C 	C 	0.73830 0.57640 0.69154 -0.08700
C 	C 	0.91990 0.55220 0.72390 -0.01500
H 	H 	0.03460 0.57580 0.70000 0.06100
C 	C 	0.92910 0.49260 0.79210 -0.00300
H 	H 	0.05060 0.47640 0.81380 0.05300
C 	C 	0.56730 0.54030 0.72750 -0.00900
H 	H 	0.44540 0.55570 0.70580 0.05400
C 	C 	0.57970 0.48150 0.79550 -0.00800
H 	H 	0.46560 0.45790 0.81990 0.05700
C 	C 	0.72930 0.61300 0.39807 0.43000
C 	C 	0.76120 0.45740 0.82763 -0.09000
V 	V 	0.56055 0.23433 0.99916 1.83400
O 	O 	0.77830 0.18315 0.99508 -0.67300
O 	O 	0.61220 0.32890 0.08937 -0.50200
O 	O 	0.61190 0.35170 0.92429 -0.50700
O 	O 	0.43940 0.15540 0.91071 -0.51600
O 	O 	0.43940 0.13280 0.07524 -0.50900
C 	C 	0.77350 0.36140 0.11778 0.43300
C 	C 	0.76170 0.42360 0.19154 -0.09300
C 	C 	0.58010 0.44780 0.22390 -0.00600
H 	H 	0.46540 0.42420 0.20000 0.05600
C 	C 	0.57090 0.50740 0.29210 -0.00900
H 	H 	0.44940 0.52360 0.31380 0.05500
C 	C 	0.93270 0.45970 0.22750 0.00100
H 	H 	0.05460 0.44430 0.20580 0.05000
C 	C 	0.92030 0.51850 0.29550 -0.01600
H 	H 	0.03440 0.54210 0.31990 0.06000
C 	C 	0.77070 0.38700 0.89807 0.43100
C 	C 	0.73880 0.54260 0.32763 -0.08500
