data_crystal

_cell_length_a 42.49470
_cell_length_b 42.49470
_cell_length_c 16.33780
_cell_angle_alpha 90.00000
_cell_angle_beta  90.00000
_cell_angle_gamma 90.00000

_symmetry_space_group_name_	'P 1'
_symmetry_space_group_name_H-M	'P 1'

loop_
_symmetry_equiv_pos_as_xyz
  x,y,z

loop_
_atom_site_label
_atom_site_type_symbol
_atom_site_fract_x
_atom_site_fract_y
_atom_site_fract_z
_atom_site_charge
La	La	0.20761 0.26934 0.10590 1.52300
La	La	0.37493 0.46571 0.20254 1.57800
Cu	Cu	0.26099 0.39296 0.20019 0.87900
Cu	Cu	0.13142 0.17181 0.25903 0.87200
Cu	Cu	0.26828 0.19393 0.85315 0.70600
O 	O 	0.22245 0.32566 0.06700 -0.48200
O 	O 	0.23485 0.30245 0.21670 -0.34200
O 	O 	0.15576 0.23881 0.10500 -0.40800
O 	O 	0.19423 0.24045 0.23680 -0.34600
O 	O 	0.21377 0.21749 0.03570 -0.39800
O 	O 	0.24715 0.26931 0.98690 -0.27600
O 	O 	0.31803 0.46166 0.13730 -0.34100
O 	O 	0.33149 0.44340 0.29190 -0.32400
O 	O 	0.10441 0.08449 0.22100 -0.37400
O 	O 	0.13705 0.08743 0.36250 -0.31400
O 	O 	0.26764 0.12472 0.69390 -0.40900
O 	O 	0.29940 0.17391 0.62910 -0.19600
O 	O 	0.24058 0.37235 0.10240 -0.48700
O 	O 	0.27855 0.42714 0.13130 -0.37900
N 	N 	0.25346 0.35234 0.25180 -0.23400
N 	N 	0.29034 0.40737 0.28140 -0.23800
C 	C 	0.23428 0.34362 0.11850 0.25000
C 	C 	0.24100 0.33170 0.20400 0.07400
C 	C 	0.30150 0.44140 0.16700 0.25600
C 	C 	0.30900 0.43000 0.25500 0.09200
C 	C 	0.26190 0.34380 0.33420 -0.00800
H 	H 	0.28030 0.33030 0.33320 0.05000
H 	H 	0.24480 0.33220 0.35940 0.03000
C 	C 	0.26890 0.37270 0.38310 -0.07800
H 	H 	0.24990 0.38530 0.38250 0.02500
H 	H 	0.27190 0.36590 0.43920 0.05300
C 	C 	0.29570 0.35850 0.35910 -0.17700
H 	H 	0.30210 0.35000 0.41170 0.07800
H 	H 	0.31130 0.35210 0.31890 0.04600
C 	C 	0.29490 0.39370 0.36380 -0.00100
H 	H 	0.31460 0.38220 0.36550 0.04800
H 	H 	0.29590 0.41040 0.40410 0.02700
O 	O 	0.12933 0.19843 0.16020 -0.39600
O 	O 	0.11046 0.13634 0.20290 -0.38500
N 	N 	0.16316 0.20190 0.29510 -0.23300
N 	N 	0.14146 0.14128 0.34090 -0.24000
C 	C 	0.15050 0.21920 0.15980 0.26000
C 	C 	0.17100 0.22090 0.23820 0.07900
C 	C 	0.11440 0.11030 0.24300 0.22800
C 	C 	0.13270 0.11200 0.32260 0.07900
C 	C 	0.18010 0.20040 0.37100 -0.05500
H 	H 	0.18300 0.22150 0.39240 0.01000
H 	H 	0.20080 0.19150 0.36140 0.02500
C 	C 	0.16310 0.18100 0.43240 -0.08200
H 	H 	0.14190 0.18910 0.43740 -0.01200
H 	H 	0.17330 0.18370 0.48500 -0.07400
C 	C 	0.16110 0.14620 0.41470 -0.06000
H 	H 	0.18210 0.13770 0.40550 0.02000
H 	H 	0.15190 0.13530 0.46100 0.02500
O 	O 	0.23840 0.18856 0.94250 -0.42900
O 	O 	0.25810 0.15208 0.80650 -0.46800
N 	N 	0.27030 0.23673 0.89090 0.91300
N 	N 	0.29010 0.20068 0.74940 1.52800
C 	C 	0.23310 0.21420 0.97910 0.28900
C 	C 	0.25230 0.24320 0.95070 -0.31000
C 	C 	0.26970 0.14900 0.73900 0.36300
C 	C 	0.28830 0.17700 0.69960 -0.45200
C 	C 	0.28970 0.26150 0.85520 -10.19000
H 	H 	0.29740 0.27510 0.89840 3.27200
H 	H 	0.27680 0.27420 0.81880 2.54600
C 	C 	0.31760 0.24820 0.80720 2.08600
H 	H 	0.32960 0.23430 0.84260 0.78400
H 	H 	0.33130 0.26540 0.79110 4.84200
C 	C 	0.30470 0.24960 0.77900 17.90200
H 	H 	0.30090 0.26740 0.74370 -6.06100
H 	H 	0.32660 0.25180 0.79490 -10.51100
C 	C 	0.30740 0.22950 0.72870 -15.06200
H 	H 	0.29420 0.24280 0.69490 3.89800
H 	H 	0.32590 0.22400 0.69710 5.07900
La	La	0.70761 0.76934 0.60590 1.51900
La	La	0.87493 0.96571 0.70254 1.58300
Cu	Cu	0.76099 0.89296 0.70019 0.88000
Cu	Cu	0.63142 0.67181 0.75903 0.87300
Cu	Cu	0.76828 0.69393 0.35315 0.70800
O 	O 	0.72245 0.82566 0.56700 -0.48600
O 	O 	0.73485 0.80245 0.71670 -0.34200
O 	O 	0.65576 0.73881 0.60500 -0.41100
O 	O 	0.69423 0.74045 0.73680 -0.34500
O 	O 	0.71377 0.71749 0.53570 -0.41000
O 	O 	0.74715 0.76931 0.48690 -0.26900
O 	O 	0.81803 0.96166 0.63730 -0.34100
O 	O 	0.83149 0.94340 0.79190 -0.32400
O 	O 	0.60441 0.58449 0.72100 -0.37700
O 	O 	0.63705 0.58743 0.86250 -0.31400
O 	O 	0.76764 0.62472 0.19390 -0.40900
O 	O 	0.79940 0.67391 0.12910 -0.19800
O 	O 	0.74058 0.87235 0.60240 -0.48900
O 	O 	0.77855 0.92714 0.63130 -0.38000
N 	N 	0.75346 0.85234 0.75180 -0.23400
N 	N 	0.79034 0.90737 0.78140 -0.23800
C 	C 	0.73428 0.84362 0.61850 0.25000
C 	C 	0.74100 0.83170 0.70400 0.07400
C 	C 	0.80150 0.94140 0.66700 0.25600
C 	C 	0.80900 0.93000 0.75500 0.09100
C 	C 	0.76190 0.84380 0.83420 -0.00800
H 	H 	0.78030 0.83030 0.83320 0.05000
H 	H 	0.74480 0.83220 0.85940 0.03100
C 	C 	0.76890 0.87270 0.88310 -0.07800
H 	H 	0.74990 0.88530 0.88250 0.02500
H 	H 	0.77190 0.86590 0.93920 0.05500
C 	C 	0.79570 0.85850 0.85910 -0.17800
H 	H 	0.80210 0.85000 0.91170 0.08000
H 	H 	0.81130 0.85210 0.81890 0.04700
C 	C 	0.79490 0.89370 0.86380 -0.00100
H 	H 	0.81460 0.88220 0.86550 0.04900
H 	H 	0.79590 0.91040 0.90410 0.02700
O 	O 	0.62933 0.69843 0.66020 -0.39800
O 	O 	0.61046 0.63634 0.70290 -0.38700
N 	N 	0.66316 0.70190 0.79510 -0.23300
N 	N 	0.64146 0.64128 0.84090 -0.24000
C 	C 	0.65050 0.71920 0.65980 0.26000
C 	C 	0.67100 0.72090 0.73820 0.07800
C 	C 	0.61440 0.61030 0.74300 0.22700
C 	C 	0.63270 0.61200 0.82260 0.07800
C 	C 	0.68010 0.70040 0.87100 -0.05600
H 	H 	0.68300 0.72150 0.89240 0.01100
H 	H 	0.70080 0.69150 0.86140 0.02600
C 	C 	0.66310 0.68100 0.93240 -0.08200
H 	H 	0.64190 0.68910 0.93740 -0.01100
H 	H 	0.67330 0.68370 0.98500 -0.07200
C 	C 	0.66110 0.64620 0.91470 -0.06100
H 	H 	0.68210 0.63770 0.90550 0.02100
H 	H 	0.65190 0.63530 0.96100 0.02700
O 	O 	0.73840 0.68856 0.44250 -0.42900
O 	O 	0.75810 0.65208 0.30650 -0.46500
N 	N 	0.77030 0.73673 0.39090 0.90800
N 	N 	0.79010 0.70068 0.24940 1.51800
C 	C 	0.73310 0.71420 0.47910 0.30400
C 	C 	0.75230 0.74320 0.45070 -0.31100
C 	C 	0.76970 0.64900 0.23900 0.36200
C 	C 	0.78830 0.67700 0.19960 -0.44800
C 	C 	0.78970 0.76150 0.35520 -10.13300
H 	H 	0.79740 0.77510 0.39840 3.25700
H 	H 	0.77680 0.77420 0.31880 2.53200
C 	C 	0.81760 0.74820 0.30720 2.07400
H 	H 	0.82960 0.73430 0.34260 0.78300
H 	H 	0.83130 0.76540 0.29110 4.81600
C 	C 	0.80470 0.74960 0.27900 17.80100
H 	H 	0.80090 0.76740 0.24370 -6.02700
H 	H 	0.82660 0.75180 0.29490 -10.45300
C 	C 	0.80740 0.72950 0.22870 -14.97600
H 	H 	0.79420 0.74280 0.19490 3.87500
H 	H 	0.82590 0.72400 0.19710 5.05100
La	La	0.29239 0.73066 0.60590 1.51900
La	La	0.12507 0.53429 0.70254 1.58300
Cu	Cu	0.23901 0.60704 0.70019 0.88000
Cu	Cu	0.36858 0.82819 0.75903 0.87300
Cu	Cu	0.23172 0.80607 0.35315 0.70800
O 	O 	0.27755 0.67434 0.56700 -0.48600
O 	O 	0.26515 0.69755 0.71670 -0.34200
O 	O 	0.34424 0.76119 0.60500 -0.41100
O 	O 	0.30577 0.75955 0.73680 -0.34500
O 	O 	0.28623 0.78251 0.53570 -0.41000
O 	O 	0.25285 0.73069 0.48690 -0.26900
O 	O 	0.18197 0.53834 0.63730 -0.34100
O 	O 	0.16851 0.55660 0.79190 -0.32400
O 	O 	0.39559 0.91551 0.72100 -0.37800
O 	O 	0.36295 0.91257 0.86250 -0.31400
O 	O 	0.23236 0.87528 0.19390 -0.40900
O 	O 	0.20060 0.82609 0.12910 -0.19900
O 	O 	0.25942 0.62765 0.60240 -0.48900
O 	O 	0.22145 0.57286 0.63130 -0.38000
N 	N 	0.24654 0.64766 0.75180 -0.23400
N 	N 	0.20966 0.59263 0.78140 -0.23800
C 	C 	0.26572 0.65638 0.61850 0.25000
C 	C 	0.25900 0.66830 0.70400 0.07400
C 	C 	0.19850 0.55860 0.66700 0.25600
C 	C 	0.19100 0.57000 0.75500 0.09100
C 	C 	0.23810 0.65620 0.83420 -0.00800
H 	H 	0.21970 0.66970 0.83320 0.05000
H 	H 	0.25520 0.66780 0.85940 0.03100
C 	C 	0.23110 0.62730 0.88310 -0.07800
H 	H 	0.25010 0.61470 0.88250 0.02500
H 	H 	0.22810 0.63410 0.93920 0.05500
C 	C 	0.20430 0.64150 0.85910 -0.17700
H 	H 	0.19790 0.65000 0.91170 0.07900
H 	H 	0.18870 0.64790 0.81890 0.04700
C 	C 	0.20510 0.60630 0.86380 -0.00100
H 	H 	0.18540 0.61780 0.86550 0.04900
H 	H 	0.20410 0.58960 0.90410 0.02700
O 	O 	0.37067 0.80157 0.66020 -0.39900
O 	O 	0.38954 0.86366 0.70290 -0.38800
N 	N 	0.33684 0.79810 0.79510 -0.23300
N 	N 	0.35854 0.85872 0.84090 -0.24000
C 	C 	0.34950 0.78080 0.65980 0.26000
C 	C 	0.32900 0.77910 0.73820 0.07800
C 	C 	0.38560 0.88970 0.74300 0.22700
C 	C 	0.36730 0.88800 0.82260 0.07700
C 	C 	0.31990 0.79960 0.87100 -0.05600
H 	H 	0.31700 0.77850 0.89240 0.01200
H 	H 	0.29920 0.80850 0.86140 0.02600
C 	C 	0.33690 0.81900 0.93240 -0.08100
H 	H 	0.35810 0.81090 0.93740 -0.01100
H 	H 	0.32670 0.81630 0.98500 -0.07200
C 	C 	0.33890 0.85380 0.91470 -0.06100
H 	H 	0.31790 0.86230 0.90550 0.02100
H 	H 	0.34810 0.86470 0.96100 0.02700
O 	O 	0.26160 0.81144 0.44250 -0.42900
O 	O 	0.24190 0.84792 0.30650 -0.46500
N 	N 	0.22970 0.76327 0.39090 0.90800
N 	N 	0.20990 0.79932 0.24940 1.51800
C 	C 	0.26690 0.78580 0.47910 0.30400
C 	C 	0.24770 0.75680 0.45070 -0.31100
C 	C 	0.23030 0.85100 0.23900 0.36200
C 	C 	0.21170 0.82300 0.19960 -0.44800
C 	C 	0.21030 0.73850 0.35520 -10.13400
H 	H 	0.20260 0.72490 0.39840 3.25700
H 	H 	0.22320 0.72580 0.31880 2.53200
C 	C 	0.18240 0.75180 0.30720 2.07400
H 	H 	0.17040 0.76570 0.34260 0.78300
H 	H 	0.16870 0.73460 0.29110 4.81700
C 	C 	0.19530 0.75040 0.27900 17.80100
H 	H 	0.19910 0.73260 0.24370 -6.02700
H 	H 	0.17340 0.74820 0.29490 -10.45300
C 	C 	0.19260 0.77050 0.22870 -14.97700
H 	H 	0.20580 0.75720 0.19490 3.87500
H 	H 	0.17410 0.77600 0.19710 5.05100
La	La	0.79239 0.23066 0.10590 1.52400
La	La	0.62507 0.03429 0.20254 1.57800
Cu	Cu	0.73901 0.10704 0.20019 0.88000
Cu	Cu	0.86858 0.32819 0.25903 0.87300
Cu	Cu	0.73172 0.30607 0.85315 0.70600
O 	O 	0.77755 0.17434 0.06700 -0.48100
O 	O 	0.76515 0.19755 0.21670 -0.34200
O 	O 	0.84424 0.26119 0.10500 -0.40800
O 	O 	0.80577 0.25955 0.23680 -0.34600
O 	O 	0.78623 0.28251 0.03570 -0.39800
O 	O 	0.75285 0.23069 0.98690 -0.27600
O 	O 	0.68197 0.03834 0.13730 -0.34100
O 	O 	0.66851 0.05660 0.29190 -0.32400
O 	O 	0.89559 0.41551 0.22100 -0.37400
O 	O 	0.86295 0.41257 0.36250 -0.31400
O 	O 	0.73236 0.37528 0.69390 -0.40900
O 	O 	0.70060 0.32609 0.62910 -0.19600
O 	O 	0.75942 0.12765 0.10240 -0.48700
O 	O 	0.72145 0.07286 0.13130 -0.37900
N 	N 	0.74654 0.14766 0.25180 -0.23400
N 	N 	0.70966 0.09263 0.28140 -0.23800
C 	C 	0.76572 0.15638 0.11850 0.25000
C 	C 	0.75900 0.16830 0.20400 0.07400
C 	C 	0.69850 0.05860 0.16700 0.25600
C 	C 	0.69100 0.07000 0.25500 0.09200
C 	C 	0.73810 0.15620 0.33420 -0.00800
H 	H 	0.71970 0.16970 0.33320 0.05000
H 	H 	0.75520 0.16780 0.35940 0.03000
C 	C 	0.73110 0.12730 0.38310 -0.07800
H 	H 	0.75010 0.11470 0.38250 0.02500
H 	H 	0.72810 0.13410 0.43920 0.05300
C 	C 	0.70430 0.14150 0.35910 -0.17700
H 	H 	0.69790 0.15000 0.41170 0.07800
H 	H 	0.68870 0.14790 0.31890 0.04600
C 	C 	0.70510 0.10630 0.36380 -0.00100
H 	H 	0.68540 0.11780 0.36550 0.04800
H 	H 	0.70410 0.08960 0.40410 0.02700
O 	O 	0.87067 0.30157 0.16020 -0.39600
O 	O 	0.88954 0.36366 0.20290 -0.38500
N 	N 	0.83684 0.29810 0.29510 -0.23300
N 	N 	0.85854 0.35872 0.34090 -0.24000
C 	C 	0.84950 0.28080 0.15980 0.26000
C 	C 	0.82900 0.27910 0.23820 0.07900
C 	C 	0.88560 0.38970 0.24300 0.22800
C 	C 	0.86730 0.38800 0.32260 0.07900
C 	C 	0.81990 0.29960 0.37100 -0.05500
H 	H 	0.81700 0.27850 0.39240 0.01000
H 	H 	0.79920 0.30850 0.36140 0.02500
C 	C 	0.83690 0.31900 0.43240 -0.08200
H 	H 	0.85810 0.31090 0.43740 -0.01200
H 	H 	0.82670 0.31630 0.48500 -0.07400
C 	C 	0.83890 0.35380 0.41470 -0.06000
H 	H 	0.81790 0.36230 0.40550 0.02000
H 	H 	0.84810 0.36470 0.46100 0.02500
O 	O 	0.76160 0.31144 0.94250 -0.42900
O 	O 	0.74190 0.34792 0.80650 -0.46700
N 	N 	0.72970 0.26327 0.89090 0.91400
N 	N 	0.70990 0.29932 0.74940 1.52900
C 	C 	0.76690 0.28580 0.97910 0.28900
C 	C 	0.74770 0.25680 0.95070 -0.31000
C 	C 	0.73030 0.35100 0.73900 0.36300
C 	C 	0.71170 0.32300 0.69960 -0.45200
C 	C 	0.71030 0.23850 0.85520 -10.19300
H 	H 	0.70260 0.22490 0.89840 3.27300
H 	H 	0.72320 0.22580 0.81880 2.54700
C 	C 	0.68240 0.25180 0.80720 2.08700
H 	H 	0.67040 0.26570 0.84260 0.78500
H 	H 	0.66870 0.23460 0.79110 4.84300
C 	C 	0.69530 0.25040 0.77900 17.90700
H 	H 	0.69910 0.23260 0.74370 -6.06300
H 	H 	0.67340 0.24820 0.79490 -10.51400
C 	C 	0.69260 0.27050 0.72870 -15.06600
H 	H 	0.70580 0.25720 0.69490 3.89900
H 	H 	0.67410 0.27600 0.69710 5.08100
La	La	0.48066 0.45761 0.35590 1.51400
La	La	0.28429 0.62493 0.45254 1.58300
Cu	Cu	0.35704 0.51099 0.45019 0.88000
Cu	Cu	0.57819 0.38142 0.50903 0.87300
Cu	Cu	0.55607 0.51828 0.10315 0.68300
O 	O 	0.42434 0.47245 0.31700 -0.48900
O 	O 	0.44755 0.48485 0.46670 -0.34300
O 	O 	0.51119 0.40576 0.35500 -0.41400
O 	O 	0.50955 0.44423 0.48680 -0.34600
O 	O 	0.53251 0.46377 0.28570 -0.41300
O 	O 	0.48069 0.49715 0.23690 -0.25900
O 	O 	0.28834 0.56803 0.38730 -0.34200
O 	O 	0.30660 0.58149 0.54190 -0.32400
O 	O 	0.66551 0.35441 0.47100 -0.37500
O 	O 	0.66257 0.38705 0.61250 -0.31500
O 	O 	0.62528 0.51764 0.94390 -0.41400
O 	O 	0.57609 0.54940 0.87910 -0.17600
O 	O 	0.37765 0.49058 0.35240 -0.49000
O 	O 	0.32286 0.52855 0.38130 -0.38100
N 	N 	0.39766 0.50346 0.50180 -0.23400
N 	N 	0.34263 0.54034 0.53140 -0.23800
C 	C 	0.40638 0.48428 0.36850 0.25000
C 	C 	0.41830 0.49100 0.45400 0.07300
C 	C 	0.30860 0.55150 0.41700 0.25600
C 	C 	0.32000 0.55900 0.50500 0.09100
C 	C 	0.40620 0.51190 0.58420 -0.00800
H 	H 	0.41970 0.53030 0.58320 0.05000
H 	H 	0.41780 0.49480 0.60940 0.02900
C 	C 	0.37730 0.51890 0.63310 -0.07700
H 	H 	0.36470 0.49990 0.63250 0.02400
H 	H 	0.38410 0.52190 0.68920 0.05300
C 	C 	0.39150 0.54570 0.60910 -0.17700
H 	H 	0.40000 0.55210 0.66170 0.07800
H 	H 	0.39790 0.56130 0.56890 0.04600
C 	C 	0.35630 0.54490 0.61380 -0.00200
H 	H 	0.36780 0.56460 0.61550 0.04800
H 	H 	0.33960 0.54590 0.65410 0.02700
O 	O 	0.55157 0.37933 0.41020 -0.39900
O 	O 	0.61366 0.36046 0.45290 -0.38700
N 	N 	0.54810 0.41316 0.54510 -0.23200
N 	N 	0.60872 0.39146 0.59090 -0.23900
C 	C 	0.53080 0.40050 0.40980 0.26100
C 	C 	0.52910 0.42100 0.48820 0.07700
C 	C 	0.63970 0.36440 0.49300 0.22800
C 	C 	0.63800 0.38270 0.57260 0.07800
C 	C 	0.54960 0.43010 0.62100 -0.06500
H 	H 	0.52850 0.43300 0.64240 0.00900
H 	H 	0.55850 0.45080 0.61140 0.02700
C 	C 	0.56900 0.41310 0.68240 -0.06400
H 	H 	0.56090 0.39190 0.68740 -0.02200
H 	H 	0.56630 0.42330 0.73500 -0.09500
C 	C 	0.60380 0.41110 0.66470 -0.06900
H 	H 	0.61230 0.43210 0.65550 0.02100
H 	H 	0.61470 0.40190 0.71100 0.02500
O 	O 	0.56144 0.48840 0.19250 -0.43600
O 	O 	0.59792 0.50810 0.05650 -0.47800
N 	N 	0.51327 0.52030 0.14090 1.06900
N 	N 	0.54932 0.54010 0.99940 1.76700
C 	C 	0.53580 0.48310 0.22910 0.31300
C 	C 	0.50680 0.50230 0.20070 -0.36700
C 	C 	0.60100 0.51970 0.98900 0.37900
C 	C 	0.57300 0.53830 0.94960 -0.52500
C 	C 	0.48850 0.53970 0.10520 -11.55500
H 	H 	0.47490 0.54740 0.14840 3.71000
H 	H 	0.47580 0.52680 0.06880 2.88400
C 	C 	0.50180 0.56760 0.05720 2.35400
H 	H 	0.51570 0.57960 0.09260 0.89700
H 	H 	0.48460 0.58130 0.04110 5.49700
C 	C 	0.50040 0.55470 0.02900 20.33500
H 	H 	0.48260 0.55090 0.99370 -6.88100
H 	H 	0.49820 0.57660 0.04490 -11.93000
C 	C 	0.52050 0.55740 0.97870 -17.08600
H 	H 	0.50720 0.54420 0.94490 4.41800
H 	H 	0.52600 0.57590 0.94710 5.76200
La	La	0.98066 0.95761 0.85590 1.51900
La	La	0.78429 0.12493 0.95254 1.57300
Cu	Cu	0.85704 0.01099 0.95019 0.87900
Cu	Cu	0.07819 0.88142 0.00903 0.86900
Cu	Cu	0.05607 0.01828 0.60315 0.70600
O 	O 	0.92434 0.97245 0.81700 -0.48600
O 	O 	0.94755 0.98485 0.96670 -0.34200
O 	O 	0.01119 0.90576 0.85500 -0.40900
O 	O 	0.00955 0.94423 0.98680 -0.34600
O 	O 	0.03251 0.96377 0.78570 -0.41000
O 	O 	0.98069 0.99715 0.73690 -0.26700
O 	O 	0.78834 0.06803 0.88730 -0.34100
O 	O 	0.80660 0.08149 0.04190 -0.32300
O 	O 	0.16551 0.85441 0.97100 -0.37300
O 	O 	0.16257 0.88705 0.11250 -0.31300
O 	O 	0.12528 0.01764 0.44390 -0.40900
O 	O 	0.07609 0.04940 0.37910 -0.19500
O 	O 	0.87765 0.99058 0.85240 -0.48900
O 	O 	0.82286 0.02855 0.88130 -0.38000
N 	N 	0.89766 0.00346 0.00180 -0.23400
N 	N 	0.84263 0.04034 0.03140 -0.23700
C 	C 	0.90638 0.98428 0.86850 0.25100
C 	C 	0.91830 0.99100 0.95400 0.07300
C 	C 	0.80860 0.05150 0.91700 0.25100
C 	C 	0.82000 0.05900 0.00500 0.09700
C 	C 	0.90620 0.01190 0.08420 -0.00700
H 	H 	0.91970 0.03030 0.08320 0.05000
H 	H 	0.91780 0.99480 0.10940 0.02700
C 	C 	0.87730 0.01890 0.13310 -0.06700
H 	H 	0.86470 0.99990 0.13250 0.02000
H 	H 	0.88410 0.02190 0.18920 0.05000
C 	C 	0.89150 0.04570 0.10910 -0.18400
H 	H 	0.90000 0.05210 0.16170 0.08100
H 	H 	0.89790 0.06130 0.06890 0.05000
C 	C 	0.85630 0.04490 0.11380 -0.00400
H 	H 	0.86780 0.06460 0.11550 0.05000
H 	H 	0.83960 0.04590 0.15410 0.02800
O 	O 	0.05157 0.87933 0.91020 -0.39400
O 	O 	0.11366 0.86046 0.95290 -0.38400
N 	N 	0.04810 0.91316 0.04510 -0.23800
N 	N 	0.10872 0.89146 0.09090 -0.24000
C 	C 	0.03080 0.90050 0.90980 0.25900
C 	C 	0.02910 0.92100 0.98820 0.08500
C 	C 	0.13970 0.86440 0.99300 0.23700
C 	C 	0.13800 0.88270 0.07260 0.07000
C 	C 	0.04960 0.93010 0.12100 -0.05400
H 	H 	0.02850 0.93300 0.14240 0.00800
H 	H 	0.05850 0.95080 0.11140 0.02400
C 	C 	0.06900 0.91310 0.18240 -0.08200
H 	H 	0.06090 0.89190 0.18740 -0.01300
H 	H 	0.06630 0.92330 0.23500 -0.07500
C 	C 	0.10380 0.91110 0.16470 -0.06100
H 	H 	0.11230 0.93210 0.15550 0.02000
H 	H 	0.11470 0.90190 0.21100 0.02500
O 	O 	0.06144 0.98840 0.69250 -0.42900
O 	O 	0.09792 0.00810 0.55650 -0.46600
N 	N 	0.01327 0.02030 0.64090 0.91900
N 	N 	0.04932 0.04010 0.49940 1.53600
C 	C 	0.03580 0.98310 0.72910 0.30600
C 	C 	0.00680 0.00230 0.70070 -0.31600
C 	C 	0.10100 0.01970 0.48900 0.36300
C 	C 	0.07300 0.03830 0.44960 -0.45400
C 	C 	0.98850 0.03970 0.60520 -10.23000
H 	H 	0.97490 0.04740 0.64840 3.28800
H 	H 	0.97580 0.02680 0.56880 2.55600
C 	C 	0.00180 0.06760 0.55720 2.09400
H 	H 	0.01570 0.07960 0.59260 0.79100
H 	H 	0.98460 0.08130 0.54110 4.86400
C 	C 	0.00040 0.05470 0.52900 17.97300
H 	H 	0.98260 0.05090 0.49370 -6.08500
H 	H 	0.99820 0.07660 0.54490 -10.55400
C 	C 	0.02050 0.05740 0.47870 -15.12100
H 	H 	0.00720 0.04420 0.44490 3.91300
H 	H 	0.02600 0.07590 0.44710 5.10000
La	La	0.01934 0.54239 0.85590 1.52000
La	La	0.21571 0.37507 0.95254 1.57400
Cu	Cu	0.14296 0.48901 0.95019 0.88000
Cu	Cu	0.92181 0.61858 0.00903 0.87000
Cu	Cu	0.94393 0.48172 0.60315 0.71000
O 	O 	0.07566 0.52755 0.81700 -0.48500
O 	O 	0.05245 0.51515 0.96670 -0.34200
O 	O 	0.98881 0.59424 0.85500 -0.40800
O 	O 	0.99045 0.55577 0.98680 -0.34600
O 	O 	0.96749 0.53623 0.78570 -0.40900
O 	O 	0.01931 0.50285 0.73690 -0.27000
O 	O 	0.21166 0.43197 0.88730 -0.34100
O 	O 	0.19340 0.41851 0.04190 -0.32300
O 	O 	0.83449 0.64559 0.97100 -0.37300
O 	O 	0.83743 0.61295 0.11250 -0.31300
O 	O 	0.87472 0.48236 0.44390 -0.40800
O 	O 	0.92391 0.45060 0.37910 -0.19800
O 	O 	0.12235 0.50942 0.85240 -0.48900
O 	O 	0.17714 0.47145 0.88130 -0.37900
N 	N 	0.10234 0.49654 0.00180 -0.23400
N 	N 	0.15737 0.45966 0.03140 -0.23800
C 	C 	0.09362 0.51572 0.86850 0.25100
C 	C 	0.08170 0.50900 0.95400 0.07300
C 	C 	0.19140 0.44850 0.91700 0.25200
C 	C 	0.18000 0.44100 0.00500 0.09500
C 	C 	0.09380 0.48810 0.08420 -0.00800
H 	H 	0.08030 0.46970 0.08320 0.05000
H 	H 	0.08220 0.50520 0.10940 0.02900
C 	C 	0.12270 0.48110 0.13310 -0.07500
H 	H 	0.13530 0.50010 0.13250 0.02300
H 	H 	0.11590 0.47810 0.18920 0.05200
C 	C 	0.10850 0.45430 0.10910 -0.17900
H 	H 	0.10000 0.44790 0.16170 0.07900
H 	H 	0.10210 0.43870 0.06890 0.04800
C 	C 	0.14370 0.45510 0.11380 -0.00200
H 	H 	0.13220 0.43540 0.11550 0.04900
H 	H 	0.16040 0.45410 0.15410 0.02700
O 	O 	0.94843 0.62067 0.91020 -0.39400
O 	O 	0.88634 0.63954 0.95290 -0.38400
N 	N 	0.95190 0.58684 0.04510 -0.23700
N 	N 	0.89128 0.60854 0.09090 -0.24000
C 	C 	0.96920 0.59950 0.90980 0.25900
C 	C 	0.97090 0.57900 0.98820 0.08400
C 	C 	0.86030 0.63560 0.99300 0.23600
C 	C 	0.86200 0.61730 0.07260 0.07100
C 	C 	0.95040 0.56990 0.12100 -0.05300
H 	H 	0.97150 0.56700 0.14240 0.00900
H 	H 	0.94150 0.54920 0.11140 0.02500
C 	C 	0.93100 0.58690 0.18240 -0.08300
H 	H 	0.93910 0.60810 0.18740 -0.01200
H 	H 	0.93370 0.57670 0.23500 -0.07300
C 	C 	0.89620 0.58890 0.16470 -0.06000
H 	H 	0.88770 0.56790 0.15550 0.02000
H 	H 	0.88530 0.59810 0.21100 0.02600
O 	O 	0.93856 0.51160 0.69250 -0.42800
O 	O 	0.90208 0.49190 0.55650 -0.46400
N 	N 	0.98673 0.47970 0.64090 0.89700
N 	N 	0.95068 0.45990 0.49940 1.50200
C 	C 	0.96420 0.51690 0.72910 0.30300
C 	C 	0.99320 0.49770 0.70070 -0.30600
C 	C 	0.89900 0.48030 0.48900 0.36100
C 	C 	0.92700 0.46170 0.44960 -0.44300
C 	C 	0.01150 0.46030 0.60520 -10.03600
H 	H 	0.02510 0.45260 0.64840 3.22600
H 	H 	0.02420 0.47320 0.56880 2.50800
C 	C 	0.99820 0.43240 0.55720 2.05500
H 	H 	0.98430 0.42040 0.59260 0.77500
H 	H 	0.01540 0.41870 0.54110 4.77100
C 	C 	0.99960 0.44530 0.52900 17.62800
H 	H 	0.01740 0.44910 0.49370 -5.96800
H 	H 	0.00180 0.42340 0.54490 -10.35200
C 	C 	0.97950 0.44260 0.47870 -14.83300
H 	H 	0.99280 0.45580 0.44490 3.83900
H 	H 	0.97400 0.42410 0.44710 5.00400
La	La	0.51934 0.04239 0.35590 1.51300
La	La	0.71571 0.87507 0.45254 1.58200
Cu	Cu	0.64296 0.98901 0.45019 0.88000
Cu	Cu	0.42181 0.11858 0.50903 0.87200
Cu	Cu	0.44393 0.98172 0.10315 0.67400
O 	O 	0.57566 0.02755 0.31700 -0.49000
O 	O 	0.55245 0.01515 0.46670 -0.34300
O 	O 	0.48881 0.09424 0.35500 -0.41500
O 	O 	0.49045 0.05577 0.48680 -0.34600
O 	O 	0.46749 0.03623 0.28570 -0.41500
O 	O 	0.51931 0.00285 0.23690 -0.25400
O 	O 	0.71166 0.93197 0.38730 -0.34200
O 	O 	0.69340 0.91851 0.54190 -0.32400
O 	O 	0.33449 0.14559 0.47100 -0.37500
O 	O 	0.33743 0.11295 0.61250 -0.31500
O 	O 	0.37472 0.98236 0.94390 -0.41600
O 	O 	0.42391 0.95060 0.87910 -0.16800
O 	O 	0.62235 0.00942 0.35240 -0.49000
O 	O 	0.67714 0.97145 0.38130 -0.38100
N 	N 	0.60234 0.99654 0.50180 -0.23400
N 	N 	0.65737 0.95966 0.53140 -0.23800
C 	C 	0.59362 0.01572 0.36850 0.25000
C 	C 	0.58170 0.00900 0.45400 0.07300
C 	C 	0.69140 0.94850 0.41700 0.25600
C 	C 	0.68000 0.94100 0.50500 0.09100
C 	C 	0.59380 0.98810 0.58420 -0.00800
H 	H 	0.58030 0.96970 0.58320 0.05000
H 	H 	0.58220 0.00520 0.60940 0.02900
C 	C 	0.62270 0.98110 0.63310 -0.07500
H 	H 	0.63530 0.00010 0.63250 0.02300
H 	H 	0.61590 0.97810 0.68920 0.05200
C 	C 	0.60850 0.95430 0.60910 -0.17800
H 	H 	0.60000 0.94790 0.66170 0.07800
H 	H 	0.60210 0.93870 0.56890 0.04700
C 	C 	0.64370 0.95510 0.61380 -0.00200
H 	H 	0.63220 0.93540 0.61550 0.04900
H 	H 	0.66040 0.95410 0.65410 0.02700
O 	O 	0.44843 0.12067 0.41020 -0.40000
O 	O 	0.38634 0.13954 0.45290 -0.38700
N 	N 	0.45190 0.08684 0.54510 -0.23200
N 	N 	0.39128 0.10854 0.59090 -0.23900
C 	C 	0.46920 0.09950 0.40980 0.26100
C 	C 	0.47090 0.07900 0.48820 0.07700
C 	C 	0.36030 0.13560 0.49300 0.22800
C 	C 	0.36200 0.11730 0.57260 0.07800
C 	C 	0.45040 0.06990 0.62100 -0.06900
H 	H 	0.47150 0.06700 0.64240 0.00800
H 	H 	0.44150 0.04920 0.61140 0.02700
C 	C 	0.43100 0.08690 0.68240 -0.05800
H 	H 	0.43910 0.10810 0.68740 -0.02600
H 	H 	0.43370 0.07670 0.73500 -0.10300
C 	C 	0.39620 0.08890 0.66470 -0.07200
H 	H 	0.38770 0.06790 0.65550 0.02100
H 	H 	0.38530 0.09810 0.71100 0.02500
O 	O 	0.43856 0.01160 0.19250 -0.43800
O 	O 	0.40208 0.99190 0.05650 -0.48500
N 	N 	0.48673 0.97970 0.14090 1.12800
N 	N 	0.45068 0.95990 0.99940 1.85700
C 	C 	0.46420 0.01690 0.22910 0.31800
C 	C 	0.49320 0.99770 0.20070 -0.38900
C 	C 	0.39900 0.98030 0.98900 0.38800
C 	C 	0.42700 0.96170 0.94960 -0.55300
C 	C 	0.51150 0.96030 0.10520 -12.06900
H 	H 	0.52510 0.95260 0.14840 3.87400
H 	H 	0.52420 0.97320 0.06880 3.01000
C 	C 	0.49820 0.93240 0.05720 2.45500
H 	H 	0.48430 0.92040 0.09260 0.93800
H 	H 	0.51540 0.91870 0.04110 5.74300
C 	C 	0.49960 0.94530 0.02900 21.25100
H 	H 	0.51740 0.94910 0.99370 -7.19100
H 	H 	0.50180 0.92340 0.04490 -12.46500
C 	C 	0.47950 0.94260 0.97870 -17.84900
H 	H 	0.49280 0.95580 0.94490 4.61500
H 	H 	0.47400 0.92410 0.94710 6.01800
La	La	0.79239 0.73066 0.89410 1.52400
La	La	0.62507 0.53429 0.79746 1.57900
Cu	Cu	0.73901 0.60704 0.79981 0.88000
Cu	Cu	0.86858 0.82819 0.74097 0.87300
Cu	Cu	0.73172 0.80607 0.14685 0.70600
O 	O 	0.77755 0.67434 0.93300 -0.48200
O 	O 	0.76515 0.69755 0.78330 -0.34200
O 	O 	0.84424 0.76119 0.89500 -0.40800
O 	O 	0.80577 0.75955 0.76320 -0.34600
O 	O 	0.78623 0.78251 0.96430 -0.39800
O 	O 	0.75285 0.73069 0.01310 -0.27600
O 	O 	0.68197 0.53834 0.86270 -0.34100
O 	O 	0.66851 0.55660 0.70810 -0.32400
O 	O 	0.89559 0.91551 0.77900 -0.37400
O 	O 	0.86295 0.91257 0.63750 -0.31400
O 	O 	0.73236 0.87528 0.30610 -0.40900
O 	O 	0.70060 0.82609 0.37090 -0.19600
O 	O 	0.75942 0.62765 0.89760 -0.48700
O 	O 	0.72145 0.57286 0.86870 -0.37900
N 	N 	0.74654 0.64766 0.74820 -0.23400
N 	N 	0.70966 0.59263 0.71860 -0.23800
C 	C 	0.76572 0.65638 0.88150 0.25000
C 	C 	0.75900 0.66830 0.79600 0.07400
C 	C 	0.69850 0.55860 0.83300 0.25600
C 	C 	0.69100 0.57000 0.74500 0.09200
C 	C 	0.73810 0.65620 0.66580 -0.00800
H 	H 	0.71970 0.66970 0.66680 0.05000
H 	H 	0.75520 0.66780 0.64060 0.03000
C 	C 	0.73110 0.62730 0.61690 -0.07800
H 	H 	0.75010 0.61470 0.61750 0.02500
H 	H 	0.72810 0.63410 0.56080 0.05300
C 	C 	0.70430 0.64150 0.64090 -0.17700
H 	H 	0.69790 0.65000 0.58830 0.07800
H 	H 	0.68870 0.64790 0.68110 0.04600
C 	C 	0.70510 0.60630 0.63620 -0.00100
H 	H 	0.68540 0.61780 0.63450 0.04800
H 	H 	0.70410 0.58960 0.59590 0.02700
O 	O 	0.87067 0.80157 0.83980 -0.39600
O 	O 	0.88954 0.86366 0.79710 -0.38500
N 	N 	0.83684 0.79810 0.70490 -0.23300
N 	N 	0.85854 0.85872 0.65910 -0.24000
C 	C 	0.84950 0.78080 0.84020 0.26000
C 	C 	0.82900 0.77910 0.76180 0.07900
C 	C 	0.88560 0.88970 0.75700 0.22800
C 	C 	0.86730 0.88800 0.67740 0.07900
C 	C 	0.81990 0.79960 0.62900 -0.05500
H 	H 	0.81700 0.77850 0.60760 0.01000
H 	H 	0.79920 0.80850 0.63860 0.02500
C 	C 	0.83690 0.81900 0.56760 -0.08200
H 	H 	0.85810 0.81090 0.56260 -0.01200
H 	H 	0.82670 0.81630 0.51500 -0.07400
C 	C 	0.83890 0.85380 0.58530 -0.06000
H 	H 	0.81790 0.86230 0.59450 0.02000
H 	H 	0.84810 0.86470 0.53900 0.02500
O 	O 	0.76160 0.81144 0.05750 -0.42900
O 	O 	0.74190 0.84792 0.19350 -0.46800
N 	N 	0.72970 0.76327 0.10910 0.91300
N 	N 	0.70990 0.79932 0.25060 1.52800
C 	C 	0.76690 0.78580 0.02090 0.28900
C 	C 	0.74770 0.75680 0.04930 -0.31000
C 	C 	0.73030 0.85100 0.26100 0.36300
C 	C 	0.71170 0.82300 0.30040 -0.45200
C 	C 	0.71030 0.73850 0.14480 -10.19000
H 	H 	0.70260 0.72490 0.10160 3.27200
H 	H 	0.72320 0.72580 0.18120 2.54600
C 	C 	0.68240 0.75180 0.19280 2.08600
H 	H 	0.67040 0.76570 0.15740 0.78400
H 	H 	0.66870 0.73460 0.20890 4.84200
C 	C 	0.69530 0.75040 0.22100 17.90200
H 	H 	0.69910 0.73260 0.25630 -6.06100
H 	H 	0.67340 0.74820 0.20510 -10.51100
C 	C 	0.69260 0.77050 0.27130 -15.06200
H 	H 	0.70580 0.75720 0.30510 3.89800
H 	H 	0.67410 0.77600 0.30290 5.07900
La	La	0.29239 0.23066 0.39410 1.51900
La	La	0.12507 0.03429 0.29746 1.58300
Cu	Cu	0.23901 0.10704 0.29981 0.88000
Cu	Cu	0.36858 0.32819 0.24097 0.87300
Cu	Cu	0.23172 0.30607 0.64685 0.70800
O 	O 	0.27755 0.17434 0.43300 -0.48600
O 	O 	0.26515 0.19755 0.28330 -0.34200
O 	O 	0.34424 0.26119 0.39500 -0.41100
O 	O 	0.30577 0.25955 0.26320 -0.34500
O 	O 	0.28623 0.28251 0.46430 -0.41000
O 	O 	0.25285 0.23069 0.51310 -0.26900
O 	O 	0.18197 0.03834 0.36270 -0.34100
O 	O 	0.16851 0.05660 0.20810 -0.32400
O 	O 	0.39559 0.41551 0.27900 -0.37700
O 	O 	0.36295 0.41257 0.13750 -0.31400
O 	O 	0.23236 0.37528 0.80610 -0.40900
O 	O 	0.20060 0.32609 0.87090 -0.19800
O 	O 	0.25942 0.12765 0.39760 -0.48900
O 	O 	0.22145 0.07286 0.36870 -0.38000
N 	N 	0.24654 0.14766 0.24820 -0.23400
N 	N 	0.20966 0.09263 0.21860 -0.23800
C 	C 	0.26572 0.15638 0.38150 0.25000
C 	C 	0.25900 0.16830 0.29600 0.07400
C 	C 	0.19850 0.05860 0.33300 0.25600
C 	C 	0.19100 0.07000 0.24500 0.09100
C 	C 	0.23810 0.15620 0.16580 -0.00800
H 	H 	0.21970 0.16970 0.16680 0.05000
H 	H 	0.25520 0.16780 0.14060 0.03100
C 	C 	0.23110 0.12730 0.11690 -0.07800
H 	H 	0.25010 0.11470 0.11750 0.02500
H 	H 	0.22810 0.13410 0.06080 0.05500
C 	C 	0.20430 0.14150 0.14090 -0.17800
H 	H 	0.19790 0.15000 0.08830 0.08000
H 	H 	0.18870 0.14790 0.18110 0.04700
C 	C 	0.20510 0.10630 0.13620 -0.00100
H 	H 	0.18540 0.11780 0.13450 0.04900
H 	H 	0.20410 0.08960 0.09590 0.02700
O 	O 	0.37067 0.30157 0.33980 -0.39800
O 	O 	0.38954 0.36366 0.29710 -0.38700
N 	N 	0.33684 0.29810 0.20490 -0.23300
N 	N 	0.35854 0.35872 0.15910 -0.24000
C 	C 	0.34950 0.28080 0.34020 0.26000
C 	C 	0.32900 0.27910 0.26180 0.07800
C 	C 	0.38560 0.38970 0.25700 0.22700
C 	C 	0.36730 0.38800 0.17740 0.07800
C 	C 	0.31990 0.29960 0.12900 -0.05600
H 	H 	0.31700 0.27850 0.10760 0.01100
H 	H 	0.29920 0.30850 0.13860 0.02600
C 	C 	0.33690 0.31900 0.06760 -0.08200
H 	H 	0.35810 0.31090 0.06260 -0.01100
H 	H 	0.32670 0.31630 0.01500 -0.07200
C 	C 	0.33890 0.35380 0.08530 -0.06100
H 	H 	0.31790 0.36230 0.09450 0.02100
H 	H 	0.34810 0.36470 0.03900 0.02700
O 	O 	0.26160 0.31144 0.55750 -0.42900
O 	O 	0.24190 0.34792 0.69350 -0.46500
N 	N 	0.22970 0.26327 0.60910 0.90800
N 	N 	0.20990 0.29932 0.75060 1.51800
C 	C 	0.26690 0.28580 0.52090 0.30400
C 	C 	0.24770 0.25680 0.54930 -0.31100
C 	C 	0.23030 0.35100 0.76100 0.36200
C 	C 	0.21170 0.32300 0.80040 -0.44800
C 	C 	0.21030 0.23850 0.64480 -10.13300
H 	H 	0.20260 0.22490 0.60160 3.25700
H 	H 	0.22320 0.22580 0.68120 2.53200
C 	C 	0.18240 0.25180 0.69280 2.07400
H 	H 	0.17040 0.26570 0.65740 0.78300
H 	H 	0.16870 0.23460 0.70890 4.81600
C 	C 	0.19530 0.25040 0.72100 17.80100
H 	H 	0.19910 0.23260 0.75630 -6.02700
H 	H 	0.17340 0.24820 0.70510 -10.45300
C 	C 	0.19260 0.27050 0.77130 -14.97600
H 	H 	0.20580 0.25720 0.80510 3.87500
H 	H 	0.17410 0.27600 0.80290 5.05100
La	La	0.70761 0.26934 0.39410 1.51900
La	La	0.87493 0.46571 0.29746 1.58300
Cu	Cu	0.76099 0.39296 0.29981 0.88000
Cu	Cu	0.63142 0.17181 0.24097 0.87300
Cu	Cu	0.76828 0.19393 0.64685 0.70800
O 	O 	0.72245 0.32566 0.43300 -0.48600
O 	O 	0.73485 0.30245 0.28330 -0.34200
O 	O 	0.65576 0.23881 0.39500 -0.41100
O 	O 	0.69423 0.24045 0.26320 -0.34500
O 	O 	0.71377 0.21749 0.46430 -0.41000
O 	O 	0.74715 0.26931 0.51310 -0.26900
O 	O 	0.81803 0.46166 0.36270 -0.34100
O 	O 	0.83149 0.44340 0.20810 -0.32400
O 	O 	0.60441 0.08449 0.27900 -0.37800
O 	O 	0.63705 0.08743 0.13750 -0.31400
O 	O 	0.76764 0.12472 0.80610 -0.40900
O 	O 	0.79940 0.17391 0.87090 -0.19900
O 	O 	0.74058 0.37235 0.39760 -0.48900
O 	O 	0.77855 0.42714 0.36870 -0.38000
N 	N 	0.75346 0.35234 0.24820 -0.23400
N 	N 	0.79034 0.40737 0.21860 -0.23800
C 	C 	0.73428 0.34362 0.38150 0.25000
C 	C 	0.74100 0.33170 0.29600 0.07400
C 	C 	0.80150 0.44140 0.33300 0.25600
C 	C 	0.80900 0.43000 0.24500 0.09100
C 	C 	0.76190 0.34380 0.16580 -0.00800
H 	H 	0.78030 0.33030 0.16680 0.05000
H 	H 	0.74480 0.33220 0.14060 0.03100
C 	C 	0.76890 0.37270 0.11690 -0.07800
H 	H 	0.74990 0.38530 0.11750 0.02500
H 	H 	0.77190 0.36590 0.06080 0.05500
C 	C 	0.79570 0.35850 0.14090 -0.17700
H 	H 	0.80210 0.35000 0.08830 0.07900
H 	H 	0.81130 0.35210 0.18110 0.04700
C 	C 	0.79490 0.39370 0.13620 -0.00100
H 	H 	0.81460 0.38220 0.13450 0.04900
H 	H 	0.79590 0.41040 0.09590 0.02700
O 	O 	0.62933 0.19843 0.33980 -0.39900
O 	O 	0.61046 0.13634 0.29710 -0.38800
N 	N 	0.66316 0.20190 0.20490 -0.23300
N 	N 	0.64146 0.14128 0.15910 -0.24000
C 	C 	0.65050 0.21920 0.34020 0.26000
C 	C 	0.67100 0.22090 0.26180 0.07800
C 	C 	0.61440 0.11030 0.25700 0.22700
C 	C 	0.63270 0.11200 0.17740 0.07700
C 	C 	0.68010 0.20040 0.12900 -0.05600
H 	H 	0.68300 0.22150 0.10760 0.01200
H 	H 	0.70080 0.19150 0.13860 0.02600
C 	C 	0.66310 0.18100 0.06760 -0.08100
H 	H 	0.64190 0.18910 0.06260 -0.01100
H 	H 	0.67330 0.18370 0.01500 -0.07200
C 	C 	0.66110 0.14620 0.08530 -0.06100
H 	H 	0.68210 0.13770 0.09450 0.02100
H 	H 	0.65190 0.13530 0.03900 0.02700
O 	O 	0.73840 0.18856 0.55750 -0.42900
O 	O 	0.75810 0.15208 0.69350 -0.46500
N 	N 	0.77030 0.23673 0.60910 0.90800
N 	N 	0.79010 0.20068 0.75060 1.51800
C 	C 	0.73310 0.21420 0.52090 0.30400
C 	C 	0.75230 0.24320 0.54930 -0.31100
C 	C 	0.76970 0.14900 0.76100 0.36200
C 	C 	0.78830 0.17700 0.80040 -0.44800
C 	C 	0.78970 0.26150 0.64480 -10.13400
H 	H 	0.79740 0.27510 0.60160 3.25700
H 	H 	0.77680 0.27420 0.68120 2.53200
C 	C 	0.81760 0.24820 0.69280 2.07400
H 	H 	0.82960 0.23430 0.65740 0.78300
H 	H 	0.83130 0.26540 0.70890 4.81700
C 	C 	0.80470 0.24960 0.72100 17.80100
H 	H 	0.80090 0.26740 0.75630 -6.02700
H 	H 	0.82660 0.25180 0.70510 -10.45300
C 	C 	0.80740 0.22950 0.77130 -14.97700
H 	H 	0.79420 0.24280 0.80510 3.87500
H 	H 	0.82590 0.22400 0.80290 5.05100
La	La	0.20761 0.76934 0.89410 1.52400
La	La	0.37493 0.96571 0.79746 1.57800
Cu	Cu	0.26099 0.89296 0.79981 0.88000
Cu	Cu	0.13142 0.67181 0.74097 0.87300
Cu	Cu	0.26828 0.69393 0.14685 0.70600
O 	O 	0.22245 0.82566 0.93300 -0.48100
O 	O 	0.23485 0.80245 0.78330 -0.34200
O 	O 	0.15576 0.73881 0.89500 -0.40800
O 	O 	0.19423 0.74045 0.76320 -0.34600
O 	O 	0.21377 0.71749 0.96430 -0.39800
O 	O 	0.24715 0.76931 0.01310 -0.27600
O 	O 	0.31803 0.96166 0.86270 -0.34100
O 	O 	0.33149 0.94340 0.70810 -0.32400
O 	O 	0.10441 0.58449 0.77900 -0.37400
O 	O 	0.13705 0.58743 0.63750 -0.31400
O 	O 	0.26764 0.62472 0.30610 -0.40900
O 	O 	0.29940 0.67391 0.37090 -0.19600
O 	O 	0.24058 0.87235 0.89760 -0.48700
O 	O 	0.27855 0.92714 0.86870 -0.37900
N 	N 	0.25346 0.85234 0.74820 -0.23400
N 	N 	0.29034 0.90737 0.71860 -0.23800
C 	C 	0.23428 0.84362 0.88150 0.25000
C 	C 	0.24100 0.83170 0.79600 0.07400
C 	C 	0.30150 0.94140 0.83300 0.25600
C 	C 	0.30900 0.93000 0.74500 0.09200
C 	C 	0.26190 0.84380 0.66580 -0.00800
H 	H 	0.28030 0.83030 0.66680 0.05000
H 	H 	0.24480 0.83220 0.64060 0.03000
C 	C 	0.26890 0.87270 0.61690 -0.07800
H 	H 	0.24990 0.88530 0.61750 0.02500
H 	H 	0.27190 0.86590 0.56080 0.05300
C 	C 	0.29570 0.85850 0.64090 -0.17700
H 	H 	0.30210 0.85000 0.58830 0.07800
H 	H 	0.31130 0.85210 0.68110 0.04600
C 	C 	0.29490 0.89370 0.63620 -0.00100
H 	H 	0.31460 0.88220 0.63450 0.04800
H 	H 	0.29590 0.91040 0.59590 0.02700
O 	O 	0.12933 0.69843 0.83980 -0.39600
O 	O 	0.11046 0.63634 0.79710 -0.38500
N 	N 	0.16316 0.70190 0.70490 -0.23300
N 	N 	0.14146 0.64128 0.65910 -0.24000
C 	C 	0.15050 0.71920 0.84020 0.26000
C 	C 	0.17100 0.72090 0.76180 0.07900
C 	C 	0.11440 0.61030 0.75700 0.22800
C 	C 	0.13270 0.61200 0.67740 0.07900
C 	C 	0.18010 0.70040 0.62900 -0.05500
H 	H 	0.18300 0.72150 0.60760 0.01000
H 	H 	0.20080 0.69150 0.63860 0.02500
C 	C 	0.16310 0.68100 0.56760 -0.08200
H 	H 	0.14190 0.68910 0.56260 -0.01200
H 	H 	0.17330 0.68370 0.51500 -0.07400
C 	C 	0.16110 0.64620 0.58530 -0.06000
H 	H 	0.18210 0.63770 0.59450 0.02000
H 	H 	0.15190 0.63530 0.53900 0.02500
O 	O 	0.23840 0.68856 0.05750 -0.42900
O 	O 	0.25810 0.65208 0.19350 -0.46700
N 	N 	0.27030 0.73673 0.10910 0.91400
N 	N 	0.29010 0.70068 0.25060 1.52900
C 	C 	0.23310 0.71420 0.02090 0.28900
C 	C 	0.25230 0.74320 0.04930 -0.31000
C 	C 	0.26970 0.64900 0.26100 0.36300
C 	C 	0.28830 0.67700 0.30040 -0.45200
C 	C 	0.28970 0.76150 0.14480 -10.19300
H 	H 	0.29740 0.77510 0.10160 3.27300
H 	H 	0.27680 0.77420 0.18120 2.54700
C 	C 	0.31760 0.74820 0.19280 2.08700
H 	H 	0.32960 0.73430 0.15740 0.78500
H 	H 	0.33130 0.76540 0.20890 4.84300
C 	C 	0.30470 0.74960 0.22100 17.90700
H 	H 	0.30090 0.76740 0.25630 -6.06300
H 	H 	0.32660 0.75180 0.20510 -10.51400
C 	C 	0.30740 0.72950 0.27130 -15.06600
H 	H 	0.29420 0.74280 0.30510 3.89900
H 	H 	0.32590 0.72400 0.30290 5.08100
La	La	0.51934 0.54239 0.64410 1.51400
La	La	0.71571 0.37507 0.54746 1.58300
Cu	Cu	0.64296 0.48901 0.54981 0.88000
Cu	Cu	0.42181 0.61858 0.49097 0.87300
Cu	Cu	0.44393 0.48172 0.89685 0.68300
O 	O 	0.57566 0.52755 0.68300 -0.48900
O 	O 	0.55245 0.51515 0.53330 -0.34300
O 	O 	0.48881 0.59424 0.64500 -0.41400
O 	O 	0.49045 0.55577 0.51320 -0.34600
O 	O 	0.46749 0.53623 0.71430 -0.41300
O 	O 	0.51931 0.50285 0.76310 -0.25900
O 	O 	0.71166 0.43197 0.61270 -0.34200
O 	O 	0.69340 0.41851 0.45810 -0.32400
O 	O 	0.33449 0.64559 0.52900 -0.37500
O 	O 	0.33743 0.61295 0.38750 -0.31500
O 	O 	0.37472 0.48236 0.05610 -0.41400
O 	O 	0.42391 0.45060 0.12090 -0.17600
O 	O 	0.62235 0.50942 0.64760 -0.49000
O 	O 	0.67714 0.47145 0.61870 -0.38100
N 	N 	0.60234 0.49654 0.49820 -0.23400
N 	N 	0.65737 0.45966 0.46860 -0.23800
C 	C 	0.59362 0.51572 0.63150 0.25000
C 	C 	0.58170 0.50900 0.54600 0.07300
C 	C 	0.69140 0.44850 0.58300 0.25600
C 	C 	0.68000 0.44100 0.49500 0.09100
C 	C 	0.59380 0.48810 0.41580 -0.00800
H 	H 	0.58030 0.46970 0.41680 0.05000
H 	H 	0.58220 0.50520 0.39060 0.02900
C 	C 	0.62270 0.48110 0.36690 -0.07700
H 	H 	0.63530 0.50010 0.36750 0.02400
H 	H 	0.61590 0.47810 0.31080 0.05300
C 	C 	0.60850 0.45430 0.39090 -0.17700
H 	H 	0.60000 0.44790 0.33830 0.07800
H 	H 	0.60210 0.43870 0.43110 0.04600
C 	C 	0.64370 0.45510 0.38620 -0.00200
H 	H 	0.63220 0.43540 0.38450 0.04800
H 	H 	0.66040 0.45410 0.34590 0.02700
O 	O 	0.44843 0.62067 0.58980 -0.39900
O 	O 	0.38634 0.63954 0.54710 -0.38700
N 	N 	0.45190 0.58684 0.45490 -0.23200
N 	N 	0.39128 0.60854 0.40910 -0.23900
C 	C 	0.46920 0.59950 0.59020 0.26100
C 	C 	0.47090 0.57900 0.51180 0.07700
C 	C 	0.36030 0.63560 0.50700 0.22800
C 	C 	0.36200 0.61730 0.42740 0.07800
C 	C 	0.45040 0.56990 0.37900 -0.06500
H 	H 	0.47150 0.56700 0.35760 0.00900
H 	H 	0.44150 0.54920 0.38860 0.02700
C 	C 	0.43100 0.58690 0.31760 -0.06400
H 	H 	0.43910 0.60810 0.31260 -0.02200
H 	H 	0.43370 0.57670 0.26500 -0.09500
C 	C 	0.39620 0.58890 0.33530 -0.06900
H 	H 	0.38770 0.56790 0.34450 0.02100
H 	H 	0.38530 0.59810 0.28900 0.02500
O 	O 	0.43856 0.51160 0.80750 -0.43600
O 	O 	0.40208 0.49190 0.94350 -0.47800
N 	N 	0.48673 0.47970 0.85910 1.06900
N 	N 	0.45068 0.45990 0.00060 1.76700
C 	C 	0.46420 0.51690 0.77090 0.31300
C 	C 	0.49320 0.49770 0.79930 -0.36700
C 	C 	0.39900 0.48030 0.01100 0.37900
C 	C 	0.42700 0.46170 0.05040 -0.52500
C 	C 	0.51150 0.46030 0.89480 -11.55500
H 	H 	0.52510 0.45260 0.85160 3.71000
H 	H 	0.52420 0.47320 0.93120 2.88400
C 	C 	0.49820 0.43240 0.94280 2.35400
H 	H 	0.48430 0.42040 0.90740 0.89700
H 	H 	0.51540 0.41870 0.95890 5.49700
C 	C 	0.49960 0.44530 0.97100 20.33500
H 	H 	0.51740 0.44910 0.00630 -6.88100
H 	H 	0.50180 0.42340 0.95510 -11.93000
C 	C 	0.47950 0.44260 0.02130 -17.08600
H 	H 	0.49280 0.45580 0.05510 4.41800
H 	H 	0.47400 0.42410 0.05290 5.76200
La	La	0.01934 0.04239 0.14410 1.51900
La	La	0.21571 0.87507 0.04746 1.57300
Cu	Cu	0.14296 0.98901 0.04981 0.87900
Cu	Cu	0.92181 0.11858 0.99097 0.86900
Cu	Cu	0.94393 0.98172 0.39685 0.70600
O 	O 	0.07566 0.02755 0.18300 -0.48600
O 	O 	0.05245 0.01515 0.03330 -0.34200
O 	O 	0.98881 0.09424 0.14500 -0.40900
O 	O 	0.99045 0.05577 0.01320 -0.34600
O 	O 	0.96749 0.03623 0.21430 -0.41000
O 	O 	0.01931 0.00285 0.26310 -0.26700
O 	O 	0.21166 0.93197 0.11270 -0.34100
O 	O 	0.19340 0.91851 0.95810 -0.32300
O 	O 	0.83449 0.14559 0.02900 -0.37300
O 	O 	0.83743 0.11295 0.88750 -0.31300
O 	O 	0.87472 0.98236 0.55610 -0.40900
O 	O 	0.92391 0.95060 0.62090 -0.19500
O 	O 	0.12235 0.00942 0.14760 -0.48900
O 	O 	0.17714 0.97145 0.11870 -0.38000
N 	N 	0.10234 0.99654 0.99820 -0.23400
N 	N 	0.15737 0.95966 0.96860 -0.23700
C 	C 	0.09362 0.01572 0.13150 0.25100
C 	C 	0.08170 0.00900 0.04600 0.07300
C 	C 	0.19140 0.94850 0.08300 0.25100
C 	C 	0.18000 0.94100 0.99500 0.09700
C 	C 	0.09380 0.98810 0.91580 -0.00700
H 	H 	0.08030 0.96970 0.91680 0.05000
H 	H 	0.08220 0.00520 0.89060 0.02700
C 	C 	0.12270 0.98110 0.86690 -0.06700
H 	H 	0.13530 0.00010 0.86750 0.02000
H 	H 	0.11590 0.97810 0.81080 0.05000
C 	C 	0.10850 0.95430 0.89090 -0.18400
H 	H 	0.10000 0.94790 0.83830 0.08100
H 	H 	0.10210 0.93870 0.93110 0.05000
C 	C 	0.14370 0.95510 0.88620 -0.00400
H 	H 	0.13220 0.93540 0.88450 0.05000
H 	H 	0.16040 0.95410 0.84590 0.02800
O 	O 	0.94843 0.12067 0.08980 -0.39400
O 	O 	0.88634 0.13954 0.04710 -0.38400
N 	N 	0.95190 0.08684 0.95490 -0.23800
N 	N 	0.89128 0.10854 0.90910 -0.24000
C 	C 	0.96920 0.09950 0.09020 0.25900
C 	C 	0.97090 0.07900 0.01180 0.08500
C 	C 	0.86030 0.13560 0.00700 0.23700
C 	C 	0.86200 0.11730 0.92740 0.07000
C 	C 	0.95040 0.06990 0.87900 -0.05400
H 	H 	0.97150 0.06700 0.85760 0.00800
H 	H 	0.94150 0.04920 0.88860 0.02400
C 	C 	0.93100 0.08690 0.81760 -0.08200
H 	H 	0.93910 0.10810 0.81260 -0.01300
H 	H 	0.93370 0.07670 0.76500 -0.07500
C 	C 	0.89620 0.08890 0.83530 -0.06100
H 	H 	0.88770 0.06790 0.84450 0.02000
H 	H 	0.88530 0.09810 0.78900 0.02500
O 	O 	0.93856 0.01160 0.30750 -0.42900
O 	O 	0.90208 0.99190 0.44350 -0.46600
N 	N 	0.98673 0.97970 0.35910 0.91900
N 	N 	0.95068 0.95990 0.50060 1.53600
C 	C 	0.96420 0.01690 0.27090 0.30600
C 	C 	0.99320 0.99770 0.29930 -0.31600
C 	C 	0.89900 0.98030 0.51100 0.36300
C 	C 	0.92700 0.96170 0.55040 -0.45400
C 	C 	0.01150 0.96030 0.39480 -10.23000
H 	H 	0.02510 0.95260 0.35160 3.28800
H 	H 	0.02420 0.97320 0.43120 2.55600
C 	C 	0.99820 0.93240 0.44280 2.09400
H 	H 	0.98430 0.92040 0.40740 0.79100
H 	H 	0.01540 0.91870 0.45890 4.86400
C 	C 	0.99960 0.94530 0.47100 17.97300
H 	H 	0.01740 0.94910 0.50630 -6.08500
H 	H 	0.00180 0.92340 0.45510 -10.55400
C 	C 	0.97950 0.94260 0.52130 -15.12100
H 	H 	0.99280 0.95580 0.55510 3.91300
H 	H 	0.97400 0.92410 0.55290 5.10000
La	La	0.98066 0.45761 0.14410 1.52000
La	La	0.78429 0.62493 0.04746 1.57400
Cu	Cu	0.85704 0.51099 0.04981 0.88000
Cu	Cu	0.07819 0.38142 0.99097 0.87000
Cu	Cu	0.05607 0.51828 0.39685 0.71000
O 	O 	0.92434 0.47245 0.18300 -0.48500
O 	O 	0.94755 0.48485 0.03330 -0.34200
O 	O 	0.01119 0.40576 0.14500 -0.40800
O 	O 	0.00955 0.44423 0.01320 -0.34600
O 	O 	0.03251 0.46377 0.21430 -0.40900
O 	O 	0.98069 0.49715 0.26310 -0.27000
O 	O 	0.78834 0.56803 0.11270 -0.34100
O 	O 	0.80660 0.58149 0.95810 -0.32300
O 	O 	0.16551 0.35441 0.02900 -0.37300
O 	O 	0.16257 0.38705 0.88750 -0.31300
O 	O 	0.12528 0.51764 0.55610 -0.40800
O 	O 	0.07609 0.54940 0.62090 -0.19800
O 	O 	0.87765 0.49058 0.14760 -0.48900
O 	O 	0.82286 0.52855 0.11870 -0.37900
N 	N 	0.89766 0.50346 0.99820 -0.23400
N 	N 	0.84263 0.54034 0.96860 -0.23800
C 	C 	0.90638 0.48428 0.13150 0.25100
C 	C 	0.91830 0.49100 0.04600 0.07300
C 	C 	0.80860 0.55150 0.08300 0.25200
C 	C 	0.82000 0.55900 0.99500 0.09500
C 	C 	0.90620 0.51190 0.91580 -0.00800
H 	H 	0.91970 0.53030 0.91680 0.05000
H 	H 	0.91780 0.49480 0.89060 0.02900
C 	C 	0.87730 0.51890 0.86690 -0.07500
H 	H 	0.86470 0.49990 0.86750 0.02300
H 	H 	0.88410 0.52190 0.81080 0.05200
C 	C 	0.89150 0.54570 0.89090 -0.17900
H 	H 	0.90000 0.55210 0.83830 0.07900
H 	H 	0.89790 0.56130 0.93110 0.04800
C 	C 	0.85630 0.54490 0.88620 -0.00200
H 	H 	0.86780 0.56460 0.88450 0.04900
H 	H 	0.83960 0.54590 0.84590 0.02700
O 	O 	0.05157 0.37933 0.08980 -0.39400
O 	O 	0.11366 0.36046 0.04710 -0.38400
N 	N 	0.04810 0.41316 0.95490 -0.23700
N 	N 	0.10872 0.39146 0.90910 -0.24000
C 	C 	0.03080 0.40050 0.09020 0.25900
C 	C 	0.02910 0.42100 0.01180 0.08400
C 	C 	0.13970 0.36440 0.00700 0.23600
C 	C 	0.13800 0.38270 0.92740 0.07100
C 	C 	0.04960 0.43010 0.87900 -0.05300
H 	H 	0.02850 0.43300 0.85760 0.00900
H 	H 	0.05850 0.45080 0.88860 0.02500
C 	C 	0.06900 0.41310 0.81760 -0.08300
H 	H 	0.06090 0.39190 0.81260 -0.01200
H 	H 	0.06630 0.42330 0.76500 -0.07300
C 	C 	0.10380 0.41110 0.83530 -0.06000
H 	H 	0.11230 0.43210 0.84450 0.02000
H 	H 	0.11470 0.40190 0.78900 0.02600
O 	O 	0.06144 0.48840 0.30750 -0.42800
O 	O 	0.09792 0.50810 0.44350 -0.46400
N 	N 	0.01327 0.52030 0.35910 0.89700
N 	N 	0.04932 0.54010 0.50060 1.50200
C 	C 	0.03580 0.48310 0.27090 0.30300
C 	C 	0.00680 0.50230 0.29930 -0.30600
C 	C 	0.10100 0.51970 0.51100 0.36100
C 	C 	0.07300 0.53830 0.55040 -0.44300
C 	C 	0.98850 0.53970 0.39480 -10.03600
H 	H 	0.97490 0.54740 0.35160 3.22600
H 	H 	0.97580 0.52680 0.43120 2.50800
C 	C 	0.00180 0.56760 0.44280 2.05500
H 	H 	0.01570 0.57960 0.40740 0.77500
H 	H 	0.98460 0.58130 0.45890 4.77100
C 	C 	0.00040 0.55470 0.47100 17.62800
H 	H 	0.98260 0.55090 0.50630 -5.96800
H 	H 	0.99820 0.57660 0.45510 -10.35200
C 	C 	0.02050 0.55740 0.52130 -14.83300
H 	H 	0.00720 0.54420 0.55510 3.83900
H 	H 	0.02600 0.57590 0.55290 5.00400
La	La	0.48066 0.95761 0.64410 1.51300
La	La	0.28429 0.12493 0.54746 1.58200
Cu	Cu	0.35704 0.01099 0.54981 0.88000
Cu	Cu	0.57819 0.88142 0.49097 0.87200
Cu	Cu	0.55607 0.01828 0.89685 0.67400
O 	O 	0.42434 0.97245 0.68300 -0.49000
O 	O 	0.44755 0.98485 0.53330 -0.34300
O 	O 	0.51119 0.90576 0.64500 -0.41500
O 	O 	0.50955 0.94423 0.51320 -0.34600
O 	O 	0.53251 0.96377 0.71430 -0.41500
O 	O 	0.48069 0.99715 0.76310 -0.25400
O 	O 	0.28834 0.06803 0.61270 -0.34200
O 	O 	0.30660 0.08149 0.45810 -0.32400
O 	O 	0.66551 0.85441 0.52900 -0.37500
O 	O 	0.66257 0.88705 0.38750 -0.31500
O 	O 	0.62528 0.01764 0.05610 -0.41600
O 	O 	0.57609 0.04940 0.12090 -0.16800
O 	O 	0.37765 0.99058 0.64760 -0.49000
O 	O 	0.32286 0.02855 0.61870 -0.38100
N 	N 	0.39766 0.00346 0.49820 -0.23400
N 	N 	0.34263 0.04034 0.46860 -0.23800
C 	C 	0.40638 0.98428 0.63150 0.25000
C 	C 	0.41830 0.99100 0.54600 0.07300
C 	C 	0.30860 0.05150 0.58300 0.25600
C 	C 	0.32000 0.05900 0.49500 0.09100
C 	C 	0.40620 0.01190 0.41580 -0.00800
H 	H 	0.41970 0.03030 0.41680 0.05000
H 	H 	0.41780 0.99480 0.39060 0.02900
C 	C 	0.37730 0.01890 0.36690 -0.07500
H 	H 	0.36470 0.99990 0.36750 0.02300
H 	H 	0.38410 0.02190 0.31080 0.05200
C 	C 	0.39150 0.04570 0.39090 -0.17800
H 	H 	0.40000 0.05210 0.33830 0.07800
H 	H 	0.39790 0.06130 0.43110 0.04700
C 	C 	0.35630 0.04490 0.38620 -0.00200
H 	H 	0.36780 0.06460 0.38450 0.04900
H 	H 	0.33960 0.04590 0.34590 0.02700
O 	O 	0.55157 0.87933 0.58980 -0.40000
O 	O 	0.61366 0.86046 0.54710 -0.38700
N 	N 	0.54810 0.91316 0.45490 -0.23200
N 	N 	0.60872 0.89146 0.40910 -0.23900
C 	C 	0.53080 0.90050 0.59020 0.26100
C 	C 	0.52910 0.92100 0.51180 0.07700
C 	C 	0.63970 0.86440 0.50700 0.22800
C 	C 	0.63800 0.88270 0.42740 0.07800
C 	C 	0.54960 0.93010 0.37900 -0.06900
H 	H 	0.52850 0.93300 0.35760 0.00800
H 	H 	0.55850 0.95080 0.38860 0.02700
C 	C 	0.56900 0.91310 0.31760 -0.05800
H 	H 	0.56090 0.89190 0.31260 -0.02600
H 	H 	0.56630 0.92330 0.26500 -0.10300
C 	C 	0.60380 0.91110 0.33530 -0.07200
H 	H 	0.61230 0.93210 0.34450 0.02100
H 	H 	0.61470 0.90190 0.28900 0.02500
O 	O 	0.56144 0.98840 0.80750 -0.43800
O 	O 	0.59792 0.00810 0.94350 -0.48500
N 	N 	0.51327 0.02030 0.85910 1.12800
N 	N 	0.54932 0.04010 0.00060 1.85700
C 	C 	0.53580 0.98310 0.77090 0.31800
C 	C 	0.50680 0.00230 0.79930 -0.38900
C 	C 	0.60100 0.01970 0.01100 0.38800
C 	C 	0.57300 0.03830 0.05040 -0.55300
C 	C 	0.48850 0.03970 0.89480 -12.06900
H 	H 	0.47490 0.04740 0.85160 3.87400
H 	H 	0.47580 0.02680 0.93120 3.01000
C 	C 	0.50180 0.06760 0.94280 2.45500
H 	H 	0.51570 0.07960 0.90740 0.93800
H 	H 	0.48460 0.08130 0.95890 5.74300
C 	C 	0.50040 0.05470 0.97100 21.25100
H 	H 	0.48260 0.05090 0.00630 -7.19100
H 	H 	0.49820 0.07660 0.95510 -12.46500
C 	C 	0.52050 0.05740 0.02130 -17.84900
H 	H 	0.50720 0.04420 0.05510 4.61500
H 	H 	0.52600 0.07590 0.05290 6.01800
