data_crystal

_cell_length_a 24.56810
_cell_length_b 24.56810
_cell_length_c 24.56810
_cell_angle_alpha 90.00000
_cell_angle_beta  90.00000
_cell_angle_gamma 90.00000

_symmetry_space_group_name_	'P 1'
_symmetry_space_group_name_H-M	'P 1'

loop_
_symmetry_equiv_pos_as_xyz
  x,y,z

loop_
_atom_site_label
_atom_site_type_symbol
_atom_site_fract_x
_atom_site_fract_y
_atom_site_fract_z
_atom_site_charge
O 	O 	0.15170 0.99960 0.91240 -0.16000
O 	O 	0.08760 0.00380 0.84800 -0.16300
C 	C 	0.13680 0.00930 0.86420 0.28200
C 	C 	0.16720 0.01150 0.81170 -0.04400
C 	C 	0.22330 0.01490 0.82110 0.01500
C 	C 	0.23960 0.01250 0.72360 0.02900
C 	C 	0.14700 0.01440 0.75890 0.01100
C 	C 	0.18230 0.01000 0.71500 0.01400
C 	C 	0.18680 0.00920 0.83080 -0.05200
C 	C 	0.17950 0.98630 0.77900 0.06300
C 	C 	0.27690 0.99170 0.76300 -0.03700
C 	C 	0.23900 0.01790 0.85080 0.03900
C 	C 	0.28350 0.01390 0.81620 -0.01900
O 	O 	0.15170 0.49960 0.41240 -0.16500
O 	O 	0.08760 0.50380 0.34800 -0.16300
C 	C 	0.13680 0.50930 0.36420 0.28700
C 	C 	0.16720 0.51150 0.31170 -0.05600
C 	C 	0.22330 0.51490 0.32110 0.03500
C 	C 	0.23960 0.51250 0.22360 0.01100
C 	C 	0.14700 0.51440 0.25890 0.02700
C 	C 	0.18230 0.51000 0.21500 0.00400
C 	C 	0.18680 0.50920 0.33080 -0.03900
C 	C 	0.17950 0.48630 0.27900 0.05000
C 	C 	0.27690 0.49170 0.26300 -0.02100
C 	C 	0.23900 0.51790 0.35080 0.02000
C 	C 	0.28350 0.51390 0.31620 -0.00300
O 	O 	0.65170 0.99960 0.41240 -0.16000
O 	O 	0.58760 0.00380 0.34800 -0.16200
C 	C 	0.63680 0.00930 0.36420 0.28300
C 	C 	0.66720 0.01150 0.31170 -0.04300
C 	C 	0.72330 0.01490 0.32110 0.01700
C 	C 	0.73960 0.01250 0.22360 0.03000
C 	C 	0.64700 0.01440 0.25890 0.01300
C 	C 	0.68230 0.01000 0.21500 0.01500
C 	C 	0.68680 0.00920 0.33080 -0.05100
C 	C 	0.67950 0.98630 0.27900 0.06400
C 	C 	0.77690 0.99170 0.26300 -0.03600
C 	C 	0.73900 0.01790 0.35080 0.04000
C 	C 	0.78350 0.01390 0.31620 -0.01800
O 	O 	0.65170 0.49960 0.91240 -0.16300
O 	O 	0.58760 0.50380 0.84800 -0.16100
C 	C 	0.63680 0.50930 0.86420 0.28700
C 	C 	0.66720 0.51150 0.81170 -0.05400
C 	C 	0.72330 0.51490 0.82110 0.03300
C 	C 	0.73960 0.51250 0.72360 0.01100
C 	C 	0.64700 0.51440 0.75890 0.02800
C 	C 	0.68230 0.51000 0.71500 0.00500
C 	C 	0.68680 0.50920 0.83080 -0.03900
C 	C 	0.67950 0.48630 0.77900 0.05000
C 	C 	0.77690 0.49170 0.76300 -0.02000
C 	C 	0.73900 0.51790 0.85080 0.02200
C 	C 	0.78350 0.51390 0.81620 -0.00300
O 	O 	0.84830 0.00040 0.91240 -0.16700
O 	O 	0.91240 0.99620 0.84800 -0.15900
C 	C 	0.86320 0.99070 0.86420 0.29200
C 	C 	0.83280 0.98850 0.81170 -0.06700
C 	C 	0.77670 0.98510 0.82110 0.05100
C 	C 	0.76040 0.98750 0.72360 -0.00700
C 	C 	0.85300 0.98560 0.75890 0.04300
C 	C 	0.81770 0.99000 0.71500 -0.00500
C 	C 	0.81320 0.99080 0.83080 -0.02800
C 	C 	0.82050 0.01370 0.77900 0.03600
C 	C 	0.72310 0.00830 0.76300 -0.00500
C 	C 	0.76100 0.98210 0.85080 0.00300
C 	C 	0.71650 0.98610 0.81620 0.01200
O 	O 	0.84830 0.50040 0.41240 -0.16400
O 	O 	0.91240 0.49620 0.34800 -0.16000
C 	C 	0.86320 0.49070 0.36420 0.28800
C 	C 	0.83280 0.48850 0.31170 -0.05500
C 	C 	0.77670 0.48510 0.32110 0.03400
C 	C 	0.76040 0.48750 0.22360 0.01200
C 	C 	0.85300 0.48560 0.25890 0.02900
C 	C 	0.81770 0.49000 0.21500 0.00500
C 	C 	0.81320 0.49080 0.33080 -0.03900
C 	C 	0.82050 0.51370 0.27900 0.05000
C 	C 	0.72310 0.50830 0.26300 -0.02100
C 	C 	0.76100 0.48210 0.35080 0.02100
C 	C 	0.71650 0.48610 0.31620 -0.00300
O 	O 	0.34830 0.00040 0.41240 -0.16900
O 	O 	0.41240 0.99620 0.34800 -0.16100
C 	C 	0.36320 0.99070 0.36420 0.29200
C 	C 	0.33280 0.98850 0.31170 -0.06900
C 	C 	0.27670 0.98510 0.32110 0.05300
C 	C 	0.26040 0.98750 0.22360 -0.00700
C 	C 	0.35300 0.98560 0.25890 0.04300
C 	C 	0.31770 0.99000 0.21500 -0.00600
C 	C 	0.31320 0.99080 0.33080 -0.02700
C 	C 	0.32050 0.01370 0.27900 0.03600
C 	C 	0.22310 0.00830 0.26300 -0.00500
C 	C 	0.26100 0.98210 0.35080 0.00100
C 	C 	0.21650 0.98610 0.31620 0.01200
O 	O 	0.34830 0.50040 0.91240 -0.16300
O 	O 	0.41240 0.49620 0.84800 -0.16100
C 	C 	0.36320 0.49070 0.86420 0.28700
C 	C 	0.33280 0.48850 0.81170 -0.05500
C 	C 	0.27670 0.48510 0.82110 0.03400
C 	C 	0.26040 0.48750 0.72360 0.01100
C 	C 	0.35300 0.48560 0.75890 0.02800
C 	C 	0.31770 0.49000 0.71500 0.00500
C 	C 	0.31320 0.49080 0.83080 -0.03900
C 	C 	0.32050 0.51370 0.77900 0.05000
C 	C 	0.22310 0.50830 0.76300 -0.02000
C 	C 	0.26100 0.48210 0.85080 0.02100
C 	C 	0.21650 0.48610 0.81620 -0.00300
O 	O 	0.84830 0.99960 0.08760 -0.16000
O 	O 	0.91240 0.00380 0.15200 -0.16100
C 	C 	0.86320 0.00930 0.13580 0.28300
C 	C 	0.83280 0.01150 0.18830 -0.04400
C 	C 	0.77670 0.01490 0.17890 0.01800
C 	C 	0.76040 0.01250 0.27640 0.03000
C 	C 	0.85300 0.01440 0.24110 0.01400
C 	C 	0.81770 0.01000 0.28500 0.01500
C 	C 	0.81320 0.00920 0.16920 -0.05100
C 	C 	0.82050 0.98630 0.22100 0.06300
C 	C 	0.72310 0.99170 0.23700 -0.03600
C 	C 	0.76100 0.01790 0.14920 0.03800
C 	C 	0.71650 0.01390 0.18380 -0.01900
O 	O 	0.84830 0.49960 0.58760 -0.16400
O 	O 	0.91240 0.50380 0.65200 -0.16000
C 	C 	0.86320 0.50930 0.63580 0.28800
C 	C 	0.83280 0.51150 0.68830 -0.05500
C 	C 	0.77670 0.51490 0.67890 0.03400
C 	C 	0.76040 0.51250 0.77640 0.01100
C 	C 	0.85300 0.51440 0.74110 0.02900
C 	C 	0.81770 0.51000 0.78500 0.00500
C 	C 	0.81320 0.50920 0.66920 -0.03900
C 	C 	0.82050 0.48630 0.72100 0.04900
C 	C 	0.72310 0.49170 0.73700 -0.02100
C 	C 	0.76100 0.51790 0.64920 0.02100
C 	C 	0.71650 0.51390 0.68380 -0.00400
O 	O 	0.34830 0.99960 0.58760 -0.16000
O 	O 	0.41240 0.00380 0.65200 -0.16200
C 	C 	0.36320 0.00930 0.63580 0.28300
C 	C 	0.33280 0.01150 0.68830 -0.04400
C 	C 	0.27670 0.01490 0.67890 0.01800
C 	C 	0.26040 0.01250 0.77640 0.03000
C 	C 	0.35300 0.01440 0.74110 0.01300
C 	C 	0.31770 0.01000 0.78500 0.01500
C 	C 	0.31320 0.00920 0.66920 -0.05100
C 	C 	0.32050 0.98630 0.72100 0.06400
C 	C 	0.22310 0.99170 0.73700 -0.03600
C 	C 	0.26100 0.01790 0.64920 0.03900
C 	C 	0.21650 0.01390 0.68380 -0.01900
O 	O 	0.34830 0.49960 0.08760 -0.16500
O 	O 	0.41240 0.50380 0.15200 -0.16200
C 	C 	0.36320 0.50930 0.13580 0.28800
C 	C 	0.33280 0.51150 0.18830 -0.05700
C 	C 	0.27670 0.51490 0.17890 0.03600
C 	C 	0.26040 0.51250 0.27640 0.01100
C 	C 	0.35300 0.51440 0.24110 0.02900
C 	C 	0.31770 0.51000 0.28500 0.00400
C 	C 	0.31320 0.50920 0.16920 -0.03900
C 	C 	0.32050 0.48630 0.22100 0.05000
C 	C 	0.22310 0.49170 0.23700 -0.02100
C 	C 	0.26100 0.51790 0.14920 0.01900
C 	C 	0.21650 0.51390 0.18380 -0.00400
O 	O 	0.15170 0.00040 0.08760 -0.16900
O 	O 	0.08760 0.99620 0.15200 -0.16100
C 	C 	0.13680 0.99070 0.13580 0.29200
C 	C 	0.16720 0.98850 0.18830 -0.06900
C 	C 	0.22330 0.98510 0.17890 0.05300
C 	C 	0.23960 0.98750 0.27640 -0.00800
C 	C 	0.14700 0.98560 0.24110 0.04300
C 	C 	0.18230 0.99000 0.28500 -0.00600
C 	C 	0.18680 0.99080 0.16920 -0.02700
C 	C 	0.17950 0.01370 0.22100 0.03600
C 	C 	0.27690 0.00830 0.23700 -0.00600
C 	C 	0.23900 0.98210 0.14920 0.00000
C 	C 	0.28350 0.98610 0.18380 0.01200
O 	O 	0.15170 0.50040 0.58760 -0.16400
O 	O 	0.08760 0.49620 0.65200 -0.16200
C 	C 	0.13680 0.49070 0.63580 0.28800
C 	C 	0.16720 0.48850 0.68830 -0.05600
C 	C 	0.22330 0.48510 0.67890 0.03400
C 	C 	0.23960 0.48750 0.77640 0.01100
C 	C 	0.14700 0.48560 0.74110 0.02800
C 	C 	0.18230 0.49000 0.78500 0.00500
C 	C 	0.18680 0.49080 0.66920 -0.03900
C 	C 	0.17950 0.51370 0.72100 0.05000
C 	C 	0.27690 0.50830 0.73700 -0.02100
C 	C 	0.23900 0.48210 0.64920 0.02100
C 	C 	0.28350 0.48610 0.68380 -0.00300
O 	O 	0.65170 0.00040 0.58760 -0.16800
O 	O 	0.58760 0.99620 0.65200 -0.16100
C 	C 	0.63680 0.99070 0.63580 0.29200
C 	C 	0.66720 0.98850 0.68830 -0.06700
C 	C 	0.72330 0.98510 0.67890 0.05100
C 	C 	0.73960 0.98750 0.77640 -0.00700
C 	C 	0.64700 0.98560 0.74110 0.04300
C 	C 	0.68230 0.99000 0.78500 -0.00500
C 	C 	0.68680 0.99080 0.66920 -0.02800
C 	C 	0.67950 0.01370 0.72100 0.03600
C 	C 	0.77690 0.00830 0.73700 -0.00600
C 	C 	0.73900 0.98210 0.64920 0.00300
C 	C 	0.78350 0.98610 0.68380 0.01100
O 	O 	0.65170 0.50040 0.08760 -0.16500
O 	O 	0.58760 0.49620 0.15200 -0.16200
C 	C 	0.63680 0.49070 0.13580 0.28800
C 	C 	0.66720 0.48850 0.18830 -0.05600
C 	C 	0.72330 0.48510 0.17890 0.03500
C 	C 	0.73960 0.48750 0.27640 0.01100
C 	C 	0.64700 0.48560 0.24110 0.02800
C 	C 	0.68230 0.49000 0.28500 0.00500
C 	C 	0.68680 0.49080 0.16920 -0.03900
C 	C 	0.67950 0.51370 0.22100 0.05000
C 	C 	0.77690 0.50830 0.23700 -0.02100
C 	C 	0.73900 0.48210 0.14920 0.02000
C 	C 	0.78350 0.48610 0.18380 -0.00400
O 	O 	0.91240 0.15170 0.99960 -0.15900
O 	O 	0.84800 0.08760 0.00380 -0.16200
C 	C 	0.86420 0.13680 0.00930 0.28300
C 	C 	0.81170 0.16720 0.01150 -0.04300
C 	C 	0.82110 0.22330 0.01490 0.01600
C 	C 	0.72360 0.23960 0.01250 0.03000
C 	C 	0.75890 0.14700 0.01440 0.01200
C 	C 	0.71500 0.18230 0.01000 0.01500
C 	C 	0.83080 0.18680 0.00920 -0.05100
C 	C 	0.77900 0.17950 0.98630 0.06400
C 	C 	0.76300 0.27690 0.99170 -0.03600
C 	C 	0.85080 0.23900 0.01790 0.04000
C 	C 	0.81620 0.28350 0.01390 -0.01800
O 	O 	0.91240 0.65170 0.49960 -0.16300
O 	O 	0.84800 0.58760 0.50380 -0.16100
C 	C 	0.86420 0.63680 0.50930 0.28700
C 	C 	0.81170 0.66720 0.51150 -0.05400
C 	C 	0.82110 0.72330 0.51490 0.03300
C 	C 	0.72360 0.73960 0.51250 0.01100
C 	C 	0.75890 0.64700 0.51440 0.02800
C 	C 	0.71500 0.68230 0.51000 0.00500
C 	C 	0.83080 0.68680 0.50920 -0.03900
C 	C 	0.77900 0.67950 0.48630 0.05000
C 	C 	0.76300 0.77690 0.49170 -0.02000
C 	C 	0.85080 0.73900 0.51790 0.02200
C 	C 	0.81620 0.78350 0.51390 -0.00300
O 	O 	0.41240 0.15170 0.49960 -0.16400
O 	O 	0.34800 0.08760 0.50380 -0.16200
C 	C 	0.36420 0.13680 0.50930 0.28800
C 	C 	0.31170 0.16720 0.51150 -0.05600
C 	C 	0.32110 0.22330 0.51490 0.03500
C 	C 	0.22360 0.23960 0.51250 0.01100
C 	C 	0.25890 0.14700 0.51440 0.02700
C 	C 	0.21500 0.18230 0.51000 0.00400
C 	C 	0.33080 0.18680 0.50920 -0.03900
C 	C 	0.27900 0.17950 0.48630 0.05000
C 	C 	0.26300 0.27690 0.49170 -0.02100
C 	C 	0.35080 0.23900 0.51790 0.02000
C 	C 	0.31620 0.28350 0.51390 -0.00300
O 	O 	0.41240 0.65170 0.99960 -0.16000
O 	O 	0.34800 0.58760 0.00380 -0.16200
C 	C 	0.36420 0.63680 0.00930 0.28300
C 	C 	0.31170 0.66720 0.01150 -0.04300
C 	C 	0.32110 0.72330 0.01490 0.01700
C 	C 	0.22360 0.73960 0.01250 0.03000
C 	C 	0.25890 0.64700 0.01440 0.01300
C 	C 	0.21500 0.68230 0.01000 0.01500
C 	C 	0.33080 0.68680 0.00920 -0.05100
C 	C 	0.27900 0.67950 0.98630 0.06400
C 	C 	0.26300 0.77690 0.99170 -0.03600
C 	C 	0.35080 0.73900 0.01790 0.04000
C 	C 	0.31620 0.78350 0.01390 -0.01800
O 	O 	0.91240 0.84830 0.00040 -0.16700
O 	O 	0.84800 0.91240 0.99620 -0.15900
C 	C 	0.86420 0.86320 0.99070 0.29200
C 	C 	0.81170 0.83280 0.98850 -0.06700
C 	C 	0.82110 0.77670 0.98510 0.05100
C 	C 	0.72360 0.76040 0.98750 -0.00700
C 	C 	0.75890 0.85300 0.98560 0.04300
C 	C 	0.71500 0.81770 0.99000 -0.00500
C 	C 	0.83080 0.81320 0.99080 -0.02800
C 	C 	0.77900 0.82050 0.01370 0.03600
C 	C 	0.76300 0.72310 0.00830 -0.00500
C 	C 	0.85080 0.76100 0.98210 0.00300
C 	C 	0.81620 0.71650 0.98610 0.01200
O 	O 	0.91240 0.34830 0.50040 -0.16300
O 	O 	0.84800 0.41240 0.49620 -0.16100
C 	C 	0.86420 0.36320 0.49070 0.28700
C 	C 	0.81170 0.33280 0.48850 -0.05500
C 	C 	0.82110 0.27670 0.48510 0.03400
C 	C 	0.72360 0.26040 0.48750 0.01100
C 	C 	0.75890 0.35300 0.48560 0.02800
C 	C 	0.71500 0.31770 0.49000 0.00500
C 	C 	0.83080 0.31320 0.49080 -0.03900
C 	C 	0.77900 0.32050 0.51370 0.05000
C 	C 	0.76300 0.22310 0.50830 -0.02000
C 	C 	0.85080 0.26100 0.48210 0.02100
C 	C 	0.81620 0.21650 0.48610 -0.00300
O 	O 	0.41240 0.84830 0.50040 -0.16400
O 	O 	0.34800 0.91240 0.49620 -0.16000
C 	C 	0.36420 0.86320 0.49070 0.28800
C 	C 	0.31170 0.83280 0.48850 -0.05500
C 	C 	0.32110 0.77670 0.48510 0.03400
C 	C 	0.22360 0.76040 0.48750 0.01200
C 	C 	0.25890 0.85300 0.48560 0.02900
C 	C 	0.21500 0.81770 0.49000 0.00500
C 	C 	0.33080 0.81320 0.49080 -0.03900
C 	C 	0.27900 0.82050 0.51370 0.05000
C 	C 	0.26300 0.72310 0.50830 -0.02100
C 	C 	0.35080 0.76100 0.48210 0.02100
C 	C 	0.31620 0.71650 0.48610 -0.00300
O 	O 	0.41240 0.34830 0.00040 -0.16900
O 	O 	0.34800 0.41240 0.99620 -0.16100
C 	C 	0.36420 0.36320 0.99070 0.29200
C 	C 	0.31170 0.33280 0.98850 -0.06900
C 	C 	0.32110 0.27670 0.98510 0.05300
C 	C 	0.22360 0.26040 0.98750 -0.00700
C 	C 	0.25890 0.35300 0.98560 0.04300
C 	C 	0.21500 0.31770 0.99000 -0.00600
C 	C 	0.33080 0.31320 0.99080 -0.02700
C 	C 	0.27900 0.32050 0.01370 0.03600
C 	C 	0.26300 0.22310 0.00830 -0.00500
C 	C 	0.35080 0.26100 0.98210 0.00100
C 	C 	0.31620 0.21650 0.98610 0.01200
O 	O 	0.08760 0.84830 0.99960 -0.16000
O 	O 	0.15200 0.91240 0.00380 -0.16100
C 	C 	0.13580 0.86320 0.00930 0.28300
C 	C 	0.18830 0.83280 0.01150 -0.04400
C 	C 	0.17890 0.77670 0.01490 0.01800
C 	C 	0.27640 0.76040 0.01250 0.03000
C 	C 	0.24110 0.85300 0.01440 0.01400
C 	C 	0.28500 0.81770 0.01000 0.01500
C 	C 	0.16920 0.81320 0.00920 -0.05100
C 	C 	0.22100 0.82050 0.98630 0.06300
C 	C 	0.23700 0.72310 0.99170 -0.03600
C 	C 	0.14920 0.76100 0.01790 0.03800
C 	C 	0.18380 0.71650 0.01390 -0.01900
O 	O 	0.08760 0.34830 0.49960 -0.16500
O 	O 	0.15200 0.41240 0.50380 -0.16200
C 	C 	0.13580 0.36320 0.50930 0.28800
C 	C 	0.18830 0.33280 0.51150 -0.05700
C 	C 	0.17890 0.27670 0.51490 0.03600
C 	C 	0.27640 0.26040 0.51250 0.01100
C 	C 	0.24110 0.35300 0.51440 0.02900
C 	C 	0.28500 0.31770 0.51000 0.00400
C 	C 	0.16920 0.31320 0.50920 -0.03900
C 	C 	0.22100 0.32050 0.48630 0.05000
C 	C 	0.23700 0.22310 0.49170 -0.02100
C 	C 	0.14920 0.26100 0.51790 0.01900
C 	C 	0.18380 0.21650 0.51390 -0.00400
O 	O 	0.58760 0.84830 0.49960 -0.16400
O 	O 	0.65200 0.91240 0.50380 -0.16000
C 	C 	0.63580 0.86320 0.50930 0.28800
C 	C 	0.68830 0.83280 0.51150 -0.05500
C 	C 	0.67890 0.77670 0.51490 0.03400
C 	C 	0.77640 0.76040 0.51250 0.01100
C 	C 	0.74110 0.85300 0.51440 0.02900
C 	C 	0.78500 0.81770 0.51000 0.00500
C 	C 	0.66920 0.81320 0.50920 -0.03900
C 	C 	0.72100 0.82050 0.48630 0.04900
C 	C 	0.73700 0.72310 0.49170 -0.02100
C 	C 	0.64920 0.76100 0.51790 0.02100
C 	C 	0.68380 0.71650 0.51390 -0.00400
O 	O 	0.58760 0.34830 0.99960 -0.16000
O 	O 	0.65200 0.41240 0.00380 -0.16200
C 	C 	0.63580 0.36320 0.00930 0.28300
C 	C 	0.68830 0.33280 0.01150 -0.04400
C 	C 	0.67890 0.27670 0.01490 0.01800
C 	C 	0.77640 0.26040 0.01250 0.03000
C 	C 	0.74110 0.35300 0.01440 0.01300
C 	C 	0.78500 0.31770 0.01000 0.01500
C 	C 	0.66920 0.31320 0.00920 -0.05100
C 	C 	0.72100 0.32050 0.98630 0.06400
C 	C 	0.73700 0.22310 0.99170 -0.03600
C 	C 	0.64920 0.26100 0.01790 0.03900
C 	C 	0.68380 0.21650 0.01390 -0.01900
O 	O 	0.08760 0.15170 0.00040 -0.16900
O 	O 	0.15200 0.08760 0.99620 -0.16100
C 	C 	0.13580 0.13680 0.99070 0.29200
C 	C 	0.18830 0.16720 0.98850 -0.06900
C 	C 	0.17890 0.22330 0.98510 0.05300
C 	C 	0.27640 0.23960 0.98750 -0.00800
C 	C 	0.24110 0.14700 0.98560 0.04300
C 	C 	0.28500 0.18230 0.99000 -0.00600
C 	C 	0.16920 0.18680 0.99080 -0.02700
C 	C 	0.22100 0.17950 0.01370 0.03600
C 	C 	0.23700 0.27690 0.00830 -0.00600
C 	C 	0.14920 0.23900 0.98210 0.00000
C 	C 	0.18380 0.28350 0.98610 0.01200
O 	O 	0.08760 0.65170 0.50040 -0.16500
O 	O 	0.15200 0.58760 0.49620 -0.16200
C 	C 	0.13580 0.63680 0.49070 0.28800
C 	C 	0.18830 0.66720 0.48850 -0.05600
C 	C 	0.17890 0.72330 0.48510 0.03500
C 	C 	0.27640 0.73960 0.48750 0.01100
C 	C 	0.24110 0.64700 0.48560 0.02800
C 	C 	0.28500 0.68230 0.49000 0.00500
C 	C 	0.16920 0.68680 0.49080 -0.03900
C 	C 	0.22100 0.67950 0.51370 0.05000
C 	C 	0.23700 0.77690 0.50830 -0.02100
C 	C 	0.14920 0.73900 0.48210 0.02000
C 	C 	0.18380 0.78350 0.48610 -0.00400
O 	O 	0.58760 0.15170 0.50040 -0.16400
O 	O 	0.65200 0.08760 0.49620 -0.16200
C 	C 	0.63580 0.13680 0.49070 0.28800
C 	C 	0.68830 0.16720 0.48850 -0.05600
C 	C 	0.67890 0.22330 0.48510 0.03400
C 	C 	0.77640 0.23960 0.48750 0.01100
C 	C 	0.74110 0.14700 0.48560 0.02800
C 	C 	0.78500 0.18230 0.49000 0.00500
C 	C 	0.66920 0.18680 0.49080 -0.03900
C 	C 	0.72100 0.17950 0.51370 0.05000
C 	C 	0.73700 0.27690 0.50830 -0.02100
C 	C 	0.64920 0.23900 0.48210 0.02100
C 	C 	0.68380 0.28350 0.48610 -0.00300
O 	O 	0.58760 0.65170 0.00040 -0.16800
O 	O 	0.65200 0.58760 0.99620 -0.16100
C 	C 	0.63580 0.63680 0.99070 0.29200
C 	C 	0.68830 0.66720 0.98850 -0.06700
C 	C 	0.67890 0.72330 0.98510 0.05100
C 	C 	0.77640 0.73960 0.98750 -0.00700
C 	C 	0.74110 0.64700 0.98560 0.04300
C 	C 	0.78500 0.68230 0.99000 -0.00500
C 	C 	0.66920 0.68680 0.99080 -0.02800
C 	C 	0.72100 0.67950 0.01370 0.03600
C 	C 	0.73700 0.77690 0.00830 -0.00600
C 	C 	0.64920 0.73900 0.98210 0.00300
C 	C 	0.68380 0.78350 0.98610 0.01100
O 	O 	0.99960 0.91240 0.15170 -0.15900
O 	O 	0.00380 0.84800 0.08760 -0.16200
C 	C 	0.00930 0.86420 0.13680 0.28300
C 	C 	0.01150 0.81170 0.16720 -0.04300
C 	C 	0.01490 0.82110 0.22330 0.01600
C 	C 	0.01250 0.72360 0.23960 0.03000
C 	C 	0.01440 0.75890 0.14700 0.01200
C 	C 	0.01000 0.71500 0.18230 0.01500
C 	C 	0.00920 0.83080 0.18680 -0.05100
C 	C 	0.98630 0.77900 0.17950 0.06400
C 	C 	0.99170 0.76300 0.27690 -0.03600
C 	C 	0.01790 0.85080 0.23900 0.04000
C 	C 	0.01390 0.81620 0.28350 -0.01800
O 	O 	0.99960 0.41240 0.65170 -0.16000
O 	O 	0.00380 0.34800 0.58760 -0.16200
C 	C 	0.00930 0.36420 0.63680 0.28300
C 	C 	0.01150 0.31170 0.66720 -0.04300
C 	C 	0.01490 0.32110 0.72330 0.01700
C 	C 	0.01250 0.22360 0.73960 0.03000
C 	C 	0.01440 0.25890 0.64700 0.01300
C 	C 	0.01000 0.21500 0.68230 0.01500
C 	C 	0.00920 0.33080 0.68680 -0.05100
C 	C 	0.98630 0.27900 0.67950 0.06400
C 	C 	0.99170 0.26300 0.77690 -0.03600
C 	C 	0.01790 0.35080 0.73900 0.04000
C 	C 	0.01390 0.31620 0.78350 -0.01800
O 	O 	0.49960 0.91240 0.65170 -0.16300
O 	O 	0.50380 0.84800 0.58760 -0.16100
C 	C 	0.50930 0.86420 0.63680 0.28700
C 	C 	0.51150 0.81170 0.66720 -0.05400
C 	C 	0.51490 0.82110 0.72330 0.03300
C 	C 	0.51250 0.72360 0.73960 0.01100
C 	C 	0.51440 0.75890 0.64700 0.02800
C 	C 	0.51000 0.71500 0.68230 0.00500
C 	C 	0.50920 0.83080 0.68680 -0.03900
C 	C 	0.48630 0.77900 0.67950 0.05000
C 	C 	0.49170 0.76300 0.77690 -0.02000
C 	C 	0.51790 0.85080 0.73900 0.02200
C 	C 	0.51390 0.81620 0.78350 -0.00300
O 	O 	0.49960 0.41240 0.15170 -0.16400
O 	O 	0.50380 0.34800 0.08760 -0.16200
C 	C 	0.50930 0.36420 0.13680 0.28800
C 	C 	0.51150 0.31170 0.16720 -0.05600
C 	C 	0.51490 0.32110 0.22330 0.03500
C 	C 	0.51250 0.22360 0.23960 0.01100
C 	C 	0.51440 0.25890 0.14700 0.02700
C 	C 	0.51000 0.21500 0.18230 0.00400
C 	C 	0.50920 0.33080 0.18680 -0.03900
C 	C 	0.48630 0.27900 0.17950 0.05000
C 	C 	0.49170 0.26300 0.27690 -0.02100
C 	C 	0.51790 0.35080 0.23900 0.02000
C 	C 	0.51390 0.31620 0.28350 -0.00300
O 	O 	0.00040 0.91240 0.84830 -0.16700
O 	O 	0.99620 0.84800 0.91240 -0.15900
C 	C 	0.99070 0.86420 0.86320 0.29200
C 	C 	0.98850 0.81170 0.83280 -0.06700
C 	C 	0.98510 0.82110 0.77670 0.05100
C 	C 	0.98750 0.72360 0.76040 -0.00700
C 	C 	0.98560 0.75890 0.85300 0.04300
C 	C 	0.99000 0.71500 0.81770 -0.00500
C 	C 	0.99080 0.83080 0.81320 -0.02800
C 	C 	0.01370 0.77900 0.82050 0.03600
C 	C 	0.00830 0.76300 0.72310 -0.00500
C 	C 	0.98210 0.85080 0.76100 0.00300
C 	C 	0.98610 0.81620 0.71650 0.01200
O 	O 	0.00040 0.41240 0.34830 -0.16900
O 	O 	0.99620 0.34800 0.41240 -0.16100
C 	C 	0.99070 0.36420 0.36320 0.29200
C 	C 	0.98850 0.31170 0.33280 -0.06900
C 	C 	0.98510 0.32110 0.27670 0.05300
C 	C 	0.98750 0.22360 0.26040 -0.00700
C 	C 	0.98560 0.25890 0.35300 0.04300
C 	C 	0.99000 0.21500 0.31770 -0.00600
C 	C 	0.99080 0.33080 0.31320 -0.02700
C 	C 	0.01370 0.27900 0.32050 0.03600
C 	C 	0.00830 0.26300 0.22310 -0.00500
C 	C 	0.98210 0.35080 0.26100 0.00100
C 	C 	0.98610 0.31620 0.21650 0.01200
O 	O 	0.50040 0.91240 0.34830 -0.16300
O 	O 	0.49620 0.84800 0.41240 -0.16100
C 	C 	0.49070 0.86420 0.36320 0.28700
C 	C 	0.48850 0.81170 0.33280 -0.05500
C 	C 	0.48510 0.82110 0.27670 0.03400
C 	C 	0.48750 0.72360 0.26040 0.01100
C 	C 	0.48560 0.75890 0.35300 0.02800
C 	C 	0.49000 0.71500 0.31770 0.00500
C 	C 	0.49080 0.83080 0.31320 -0.03900
C 	C 	0.51370 0.77900 0.32050 0.05000
C 	C 	0.50830 0.76300 0.22310 -0.02000
C 	C 	0.48210 0.85080 0.26100 0.02100
C 	C 	0.48610 0.81620 0.21650 -0.00300
O 	O 	0.50040 0.41240 0.84830 -0.16400
O 	O 	0.49620 0.34800 0.91240 -0.16000
C 	C 	0.49070 0.36420 0.86320 0.28800
C 	C 	0.48850 0.31170 0.83280 -0.05500
C 	C 	0.48510 0.32110 0.77670 0.03400
C 	C 	0.48750 0.22360 0.76040 0.01200
C 	C 	0.48560 0.25890 0.85300 0.02900
C 	C 	0.49000 0.21500 0.81770 0.00500
C 	C 	0.49080 0.33080 0.81320 -0.03900
C 	C 	0.51370 0.27900 0.82050 0.05000
C 	C 	0.50830 0.26300 0.72310 -0.02100
C 	C 	0.48210 0.35080 0.76100 0.02100
C 	C 	0.48610 0.31620 0.71650 -0.00300
O 	O 	0.99960 0.08760 0.84830 -0.16000
O 	O 	0.00380 0.15200 0.91240 -0.16100
C 	C 	0.00930 0.13580 0.86320 0.28300
C 	C 	0.01150 0.18830 0.83280 -0.04400
C 	C 	0.01490 0.17890 0.77670 0.01800
C 	C 	0.01250 0.27640 0.76040 0.03000
C 	C 	0.01440 0.24110 0.85300 0.01400
C 	C 	0.01000 0.28500 0.81770 0.01500
C 	C 	0.00920 0.16920 0.81320 -0.05100
C 	C 	0.98630 0.22100 0.82050 0.06300
C 	C 	0.99170 0.23700 0.72310 -0.03600
C 	C 	0.01790 0.14920 0.76100 0.03800
C 	C 	0.01390 0.18380 0.71650 -0.01900
O 	O 	0.99960 0.58760 0.34830 -0.16000
O 	O 	0.00380 0.65200 0.41240 -0.16200
C 	C 	0.00930 0.63580 0.36320 0.28300
C 	C 	0.01150 0.68830 0.33280 -0.04400
C 	C 	0.01490 0.67890 0.27670 0.01800
C 	C 	0.01250 0.77640 0.26040 0.03000
C 	C 	0.01440 0.74110 0.35300 0.01300
C 	C 	0.01000 0.78500 0.31770 0.01500
C 	C 	0.00920 0.66920 0.31320 -0.05100
C 	C 	0.98630 0.72100 0.32050 0.06400
C 	C 	0.99170 0.73700 0.22310 -0.03600
C 	C 	0.01790 0.64920 0.26100 0.03900
C 	C 	0.01390 0.68380 0.21650 -0.01900
O 	O 	0.49960 0.08760 0.34830 -0.16500
O 	O 	0.50380 0.15200 0.41240 -0.16200
C 	C 	0.50930 0.13580 0.36320 0.28800
C 	C 	0.51150 0.18830 0.33280 -0.05700
C 	C 	0.51490 0.17890 0.27670 0.03600
C 	C 	0.51250 0.27640 0.26040 0.01100
C 	C 	0.51440 0.24110 0.35300 0.02900
C 	C 	0.51000 0.28500 0.31770 0.00400
C 	C 	0.50920 0.16920 0.31320 -0.03900
C 	C 	0.48630 0.22100 0.32050 0.05000
C 	C 	0.49170 0.23700 0.22310 -0.02100
C 	C 	0.51790 0.14920 0.26100 0.01900
C 	C 	0.51390 0.18380 0.21650 -0.00400
O 	O 	0.49960 0.58760 0.84830 -0.16400
O 	O 	0.50380 0.65200 0.91240 -0.16000
C 	C 	0.50930 0.63580 0.86320 0.28800
C 	C 	0.51150 0.68830 0.83280 -0.05500
C 	C 	0.51490 0.67890 0.77670 0.03400
C 	C 	0.51250 0.77640 0.76040 0.01100
C 	C 	0.51440 0.74110 0.85300 0.02900
C 	C 	0.51000 0.78500 0.81770 0.00500
C 	C 	0.50920 0.66920 0.81320 -0.03900
C 	C 	0.48630 0.72100 0.82050 0.04900
C 	C 	0.49170 0.73700 0.72310 -0.02100
C 	C 	0.51790 0.64920 0.76100 0.02100
C 	C 	0.51390 0.68380 0.71650 -0.00400
O 	O 	0.00040 0.08760 0.15170 -0.16900
O 	O 	0.99620 0.15200 0.08760 -0.16100
C 	C 	0.99070 0.13580 0.13680 0.29200
C 	C 	0.98850 0.18830 0.16720 -0.06900
C 	C 	0.98510 0.17890 0.22330 0.05300
C 	C 	0.98750 0.27640 0.23960 -0.00800
C 	C 	0.98560 0.24110 0.14700 0.04300
C 	C 	0.99000 0.28500 0.18230 -0.00600
C 	C 	0.99080 0.16920 0.18680 -0.02700
C 	C 	0.01370 0.22100 0.17950 0.03600
C 	C 	0.00830 0.23700 0.27690 -0.00600
C 	C 	0.98210 0.14920 0.23900 0.00000
C 	C 	0.98610 0.18380 0.28350 0.01200
O 	O 	0.00040 0.58760 0.65170 -0.16800
O 	O 	0.99620 0.65200 0.58760 -0.16100
C 	C 	0.99070 0.63580 0.63680 0.29200
C 	C 	0.98850 0.68830 0.66720 -0.06700
C 	C 	0.98510 0.67890 0.72330 0.05100
C 	C 	0.98750 0.77640 0.73960 -0.00700
C 	C 	0.98560 0.74110 0.64700 0.04300
C 	C 	0.99000 0.78500 0.68230 -0.00500
C 	C 	0.99080 0.66920 0.68680 -0.02800
C 	C 	0.01370 0.72100 0.67950 0.03600
C 	C 	0.00830 0.73700 0.77690 -0.00600
C 	C 	0.98210 0.64920 0.73900 0.00300
C 	C 	0.98610 0.68380 0.78350 0.01100
O 	O 	0.50040 0.08760 0.65170 -0.16500
O 	O 	0.49620 0.15200 0.58760 -0.16200
C 	C 	0.49070 0.13580 0.63680 0.28800
C 	C 	0.48850 0.18830 0.66720 -0.05600
C 	C 	0.48510 0.17890 0.72330 0.03500
C 	C 	0.48750 0.27640 0.73960 0.01100
C 	C 	0.48560 0.24110 0.64700 0.02800
C 	C 	0.49000 0.28500 0.68230 0.00500
C 	C 	0.49080 0.16920 0.68680 -0.03900
C 	C 	0.51370 0.22100 0.67950 0.05000
C 	C 	0.50830 0.23700 0.77690 -0.02100
C 	C 	0.48210 0.14920 0.73900 0.02000
C 	C 	0.48610 0.18380 0.78350 -0.00400
O 	O 	0.50040 0.58760 0.15170 -0.16400
O 	O 	0.49620 0.65200 0.08760 -0.16200
C 	C 	0.49070 0.63580 0.13680 0.28800
C 	C 	0.48850 0.68830 0.16720 -0.05600
C 	C 	0.48510 0.67890 0.22330 0.03400
C 	C 	0.48750 0.77640 0.23960 0.01100
C 	C 	0.48560 0.74110 0.14700 0.02800
C 	C 	0.49000 0.78500 0.18230 0.00500
C 	C 	0.49080 0.66920 0.18680 -0.03900
C 	C 	0.51370 0.72100 0.17950 0.05000
C 	C 	0.50830 0.73700 0.27690 -0.02100
C 	C 	0.48210 0.64920 0.23900 0.02100
C 	C 	0.48610 0.68380 0.28350 -0.00300
U 	U 	0.11022 0.00000 -0.00000 0.03900
U 	U 	0.11022 0.50000 0.50000 0.04400
U 	U 	0.61022 0.00000 0.50000 0.04200
U 	U 	0.61022 0.50000 -0.00000 0.04200
U 	U 	0.88978 0.00000 -0.00000 0.03900
U 	U 	0.88978 0.50000 0.50000 0.04400
U 	U 	0.38978 0.00000 0.50000 0.04100
U 	U 	0.38978 0.50000 -0.00000 0.04100
U 	U 	-0.00000 0.11022 -0.00000 0.03900
U 	U 	0.00000 0.61022 0.50000 0.04200
U 	U 	0.50000 0.11022 0.50000 0.04400
U 	U 	0.50000 0.61022 -0.00000 0.04200
U 	U 	-0.00000 0.88978 -0.00000 0.03900
U 	U 	0.00000 0.38978 0.50000 0.04100
U 	U 	0.50000 0.88978 0.50000 0.04400
U 	U 	0.50000 0.38978 -0.00000 0.04100
U 	U 	0.00000 0.00000 0.11022 0.03900
U 	U 	-0.00000 0.50000 0.61022 0.04200
U 	U 	0.50000 0.00000 0.61022 0.04200
U 	U 	0.50000 0.50000 0.11022 0.04400
U 	U 	0.00000 0.00000 0.88978 0.03900
U 	U 	0.00000 0.50000 0.38978 0.04100
U 	U 	0.50000 0.00000 0.38978 0.04100
U 	U 	0.50000 0.50000 0.88978 0.04400
O 	O 	0.04260 0.95740 0.04260 -0.02100
O 	O 	0.04260 0.45740 0.54260 -0.02200
O 	O 	0.54260 0.95740 0.54260 -0.01900
O 	O 	0.54260 0.45740 0.04260 -0.02200
O 	O 	0.95740 0.04260 0.04260 -0.02100
O 	O 	0.95740 0.54260 0.54260 -0.01900
O 	O 	0.45740 0.04260 0.54260 -0.02200
O 	O 	0.45740 0.54260 0.04260 -0.02200
O 	O 	0.95740 0.95740 0.95740 -0.01600
O 	O 	0.95740 0.45740 0.45740 -0.01900
O 	O 	0.45740 0.95740 0.45740 -0.01900
O 	O 	0.45740 0.45740 0.95740 -0.01900
O 	O 	0.04260 0.04260 0.95740 -0.02100
O 	O 	0.04260 0.54260 0.45740 -0.02200
O 	O 	0.54260 0.04260 0.45740 -0.02200
O 	O 	0.54260 0.54260 0.95740 -0.01900
O 	O 	0.05810 0.05810 0.05810 -0.02200
O 	O 	0.05810 0.55810 0.55810 -0.02000
O 	O 	0.55810 0.05810 0.55810 -0.02000
O 	O 	0.55810 0.55810 0.05810 -0.02000
O 	O 	0.94190 0.94190 0.05810 -0.01700
O 	O 	0.94190 0.44190 0.55810 -0.01800
O 	O 	0.44190 0.94190 0.55810 -0.01800
O 	O 	0.44190 0.44190 0.05810 -0.02000
O 	O 	0.94190 0.05810 0.94190 -0.01700
O 	O 	0.94190 0.55810 0.44190 -0.01800
O 	O 	0.44190 0.05810 0.44190 -0.02000
O 	O 	0.44190 0.55810 0.94190 -0.01800
O 	O 	0.05810 0.94190 0.94190 -0.01700
O 	O 	0.05810 0.44190 0.44190 -0.02000
O 	O 	0.55810 0.94190 0.44190 -0.01800
O 	O 	0.55810 0.44190 0.94190 -0.01800
