data_crystal

_cell_length_a 27.45260
_cell_length_b 27.45260
_cell_length_c 27.45260
_cell_angle_alpha 90.00000
_cell_angle_beta  90.00000
_cell_angle_gamma 90.00000

_symmetry_space_group_name_	'P 1'
_symmetry_space_group_name_H-M	'P 1'

loop_
_symmetry_equiv_pos_as_xyz
  x,y,z

loop_
_atom_site_label
_atom_site_type_symbol
_atom_site_fract_x
_atom_site_fract_y
_atom_site_fract_z
_atom_site_charge
C 	C 	0.01670 0.79450 0.64800 0.03000
C 	C 	0.01510 0.75840 0.68310 0.00300
C 	C 	0.01670 0.29450 0.14800 0.03000
C 	C 	0.01510 0.25840 0.18310 0.00200
C 	C 	0.51670 0.79450 0.14800 0.02900
C 	C 	0.51510 0.75840 0.18310 -0.00400
C 	C 	0.51670 0.29450 0.64800 0.02900
C 	C 	0.51510 0.25840 0.68310 -0.00400
C 	C 	0.98330 0.20550 0.64800 0.02800
C 	C 	0.98490 0.24160 0.68310 -0.01200
C 	C 	0.98330 0.70550 0.14800 0.02800
C 	C 	0.98490 0.74160 0.18310 -0.01200
C 	C 	0.48330 0.20550 0.14800 0.02900
C 	C 	0.48490 0.24160 0.18310 -0.00400
C 	C 	0.48330 0.70550 0.64800 0.02900
C 	C 	0.48490 0.74160 0.68310 -0.00400
C 	C 	0.98330 0.79450 0.35200 0.02800
C 	C 	0.98490 0.75840 0.31690 -0.01200
C 	C 	0.98330 0.29450 0.85200 0.02700
C 	C 	0.98490 0.25840 0.81690 -0.01200
C 	C 	0.48330 0.79450 0.85200 0.02900
C 	C 	0.48490 0.75840 0.81690 -0.00400
C 	C 	0.48330 0.29450 0.35200 0.02900
C 	C 	0.48490 0.25840 0.31690 -0.00400
C 	C 	0.01670 0.20550 0.35200 0.03000
C 	C 	0.01510 0.24160 0.31690 0.00300
C 	C 	0.01670 0.70550 0.85200 0.03000
C 	C 	0.01510 0.74160 0.81690 0.00300
C 	C 	0.51670 0.20550 0.85200 0.02900
C 	C 	0.51510 0.24160 0.81690 -0.00400
C 	C 	0.51670 0.70550 0.35200 0.02900
C 	C 	0.51510 0.74160 0.31690 -0.00400
C 	C 	0.64800 0.01670 0.79450 0.03000
C 	C 	0.68310 0.01510 0.75840 0.00300
C 	C 	0.64800 0.51670 0.29450 0.03000
C 	C 	0.68310 0.51510 0.25840 -0.00300
C 	C 	0.14800 0.01670 0.29450 0.03100
C 	C 	0.18310 0.01510 0.25840 0.00300
C 	C 	0.14800 0.51670 0.79450 0.03000
C 	C 	0.18310 0.51510 0.75840 -0.00300
C 	C 	0.64800 0.98330 0.20550 0.02900
C 	C 	0.68310 0.98490 0.24160 -0.01100
C 	C 	0.64800 0.48330 0.70550 0.03000
C 	C 	0.68310 0.48490 0.74160 -0.00300
C 	C 	0.14800 0.98330 0.70550 0.02900
C 	C 	0.18310 0.98490 0.74160 -0.01100
C 	C 	0.14800 0.48330 0.20550 0.03000
C 	C 	0.18310 0.48490 0.24160 -0.00300
C 	C 	0.35200 0.98330 0.79450 0.02900
C 	C 	0.31690 0.98490 0.75840 -0.01100
C 	C 	0.35200 0.48330 0.29450 0.03000
C 	C 	0.31690 0.48490 0.25840 -0.00300
C 	C 	0.85200 0.98330 0.29450 0.02800
C 	C 	0.81690 0.98490 0.25840 -0.01100
C 	C 	0.85200 0.48330 0.79450 0.03000
C 	C 	0.81690 0.48490 0.75840 -0.00300
C 	C 	0.35200 0.01670 0.20550 0.03100
C 	C 	0.31690 0.01510 0.24160 0.00400
C 	C 	0.35200 0.51670 0.70550 0.03000
C 	C 	0.31690 0.51510 0.74160 -0.00300
C 	C 	0.85200 0.01670 0.70550 0.03100
C 	C 	0.81690 0.01510 0.74160 0.00400
C 	C 	0.85200 0.51670 0.20550 0.03000
C 	C 	0.81690 0.51510 0.24160 -0.00300
C 	C 	0.79450 0.64800 0.01670 0.03100
C 	C 	0.75840 0.68310 0.01510 0.00400
C 	C 	0.79450 0.14800 0.51670 0.03000
C 	C 	0.75840 0.18310 0.51510 -0.00300
C 	C 	0.29450 0.64800 0.51670 0.03000
C 	C 	0.25840 0.68310 0.51510 -0.00300
C 	C 	0.29450 0.14800 0.01670 0.03100
C 	C 	0.25840 0.18310 0.01510 0.00300
C 	C 	0.20550 0.64800 0.98330 0.02900
C 	C 	0.24160 0.68310 0.98490 -0.01100
C 	C 	0.20550 0.14800 0.48330 0.03000
C 	C 	0.24160 0.18310 0.48490 -0.00300
C 	C 	0.70550 0.64800 0.48330 0.03000
C 	C 	0.74160 0.68310 0.48490 -0.00300
C 	C 	0.70550 0.14800 0.98330 0.02900
C 	C 	0.74160 0.18310 0.98490 -0.01100
C 	C 	0.79450 0.35200 0.98330 0.02900
C 	C 	0.75840 0.31690 0.98490 -0.01100
C 	C 	0.79450 0.85200 0.48330 0.03000
C 	C 	0.75840 0.81690 0.48490 -0.00300
C 	C 	0.29450 0.35200 0.48330 0.03000
C 	C 	0.25840 0.31690 0.48490 -0.00300
C 	C 	0.29450 0.85200 0.98330 0.02800
C 	C 	0.25840 0.81690 0.98490 -0.01100
C 	C 	0.20550 0.35200 0.01670 0.03100
C 	C 	0.24160 0.31690 0.01510 0.00400
C 	C 	0.20550 0.85200 0.51670 0.03000
C 	C 	0.24160 0.81690 0.51510 -0.00300
C 	C 	0.70550 0.35200 0.51670 0.03000
C 	C 	0.74160 0.31690 0.51510 -0.00300
C 	C 	0.70550 0.85200 0.01670 0.03100
C 	C 	0.74160 0.81690 0.01510 0.00400
C 	C 	0.79450 0.01670 0.35200 0.03100
C 	C 	0.75840 0.01510 0.31690 0.00400
C 	C 	0.79450 0.51670 0.85200 0.03000
C 	C 	0.75840 0.51510 0.81690 -0.00300
C 	C 	0.29450 0.01670 0.85200 0.03100
C 	C 	0.25840 0.01510 0.81690 0.00400
C 	C 	0.29450 0.51670 0.35200 0.03000
C 	C 	0.25840 0.51510 0.31690 -0.00300
C 	C 	0.20550 0.98330 0.35200 0.02900
C 	C 	0.24160 0.98490 0.31690 -0.01100
C 	C 	0.20550 0.48330 0.85200 0.03000
C 	C 	0.24160 0.48490 0.81690 -0.00300
C 	C 	0.70550 0.98330 0.85200 0.02800
C 	C 	0.74160 0.98490 0.81690 -0.01100
C 	C 	0.70550 0.48330 0.35200 0.03000
C 	C 	0.74160 0.48490 0.31690 -0.00300
C 	C 	0.79450 0.98330 0.64800 0.02900
C 	C 	0.75840 0.98490 0.68310 -0.01100
C 	C 	0.79450 0.48330 0.14800 0.03000
C 	C 	0.75840 0.48490 0.18310 -0.00300
C 	C 	0.29450 0.98330 0.14800 0.02900
C 	C 	0.25840 0.98490 0.18310 -0.01100
C 	C 	0.29450 0.48330 0.64800 0.03000
C 	C 	0.25840 0.48490 0.68310 -0.00300
C 	C 	0.20550 0.01670 0.64800 0.03100
C 	C 	0.24160 0.01510 0.68310 0.00400
C 	C 	0.20550 0.51670 0.14800 0.03000
C 	C 	0.24160 0.51510 0.18310 -0.00300
C 	C 	0.70550 0.01670 0.14800 0.03100
C 	C 	0.74160 0.01510 0.18310 0.00400
C 	C 	0.70550 0.51670 0.64800 0.03000
C 	C 	0.74160 0.51510 0.68310 -0.00300
C 	C 	0.01670 0.64800 0.20550 0.03100
C 	C 	0.01510 0.68310 0.24160 0.00400
C 	C 	0.01670 0.14800 0.70550 0.03100
C 	C 	0.01510 0.18310 0.74160 0.00400
C 	C 	0.51670 0.64800 0.70550 0.03000
C 	C 	0.51510 0.68310 0.74160 -0.00300
C 	C 	0.51670 0.14800 0.20550 0.03000
C 	C 	0.51510 0.18310 0.24160 -0.00300
C 	C 	0.98330 0.64800 0.79450 0.02900
C 	C 	0.98490 0.68310 0.75840 -0.01100
C 	C 	0.98330 0.14800 0.29450 0.02900
C 	C 	0.98490 0.18310 0.25840 -0.01100
C 	C 	0.48330 0.64800 0.29450 0.03000
C 	C 	0.48490 0.68310 0.25840 -0.00300
C 	C 	0.48330 0.14800 0.79450 0.03000
C 	C 	0.48490 0.18310 0.75840 -0.00300
C 	C 	0.98330 0.35200 0.20550 0.02900
C 	C 	0.98490 0.31690 0.24160 -0.01100
C 	C 	0.98330 0.85200 0.70550 0.02800
C 	C 	0.98490 0.81690 0.74160 -0.01100
C 	C 	0.48330 0.35200 0.70550 0.03000
C 	C 	0.48490 0.31690 0.74160 -0.00300
C 	C 	0.48330 0.85200 0.20550 0.03000
C 	C 	0.48490 0.81690 0.24160 -0.00300
C 	C 	0.01670 0.35200 0.79450 0.03100
C 	C 	0.01510 0.31690 0.75840 0.00400
C 	C 	0.01670 0.85200 0.29450 0.03100
C 	C 	0.01510 0.81690 0.25840 0.00400
C 	C 	0.51670 0.35200 0.29450 0.03000
C 	C 	0.51510 0.31690 0.25840 -0.00300
C 	C 	0.51670 0.85200 0.79450 0.03000
C 	C 	0.51510 0.81690 0.75840 -0.00300
C 	C 	0.64800 0.79450 0.98330 0.02900
C 	C 	0.68310 0.75840 0.98490 -0.01100
C 	C 	0.64800 0.29450 0.48330 0.03000
C 	C 	0.68310 0.25840 0.48490 -0.00300
C 	C 	0.14800 0.79450 0.48330 0.03000
C 	C 	0.18310 0.75840 0.48490 -0.00300
C 	C 	0.14800 0.29450 0.98330 0.02900
C 	C 	0.18310 0.25840 0.98490 -0.01100
C 	C 	0.64800 0.20550 0.01670 0.03100
C 	C 	0.68310 0.24160 0.01510 0.00400
C 	C 	0.64800 0.70550 0.51670 0.03000
C 	C 	0.68310 0.74160 0.51510 -0.00300
C 	C 	0.14800 0.20550 0.51670 0.03000
C 	C 	0.18310 0.24160 0.51510 -0.00300
C 	C 	0.14800 0.70550 0.01670 0.03100
C 	C 	0.18310 0.74160 0.01510 0.00400
C 	C 	0.35200 0.79450 0.01670 0.03100
C 	C 	0.31690 0.75840 0.01510 0.00400
C 	C 	0.35200 0.29450 0.51670 0.03000
C 	C 	0.31690 0.25840 0.51510 -0.00300
C 	C 	0.85200 0.79450 0.51670 0.03000
C 	C 	0.81690 0.75840 0.51510 -0.00300
C 	C 	0.85200 0.29450 0.01670 0.03100
C 	C 	0.81690 0.25840 0.01510 0.00400
C 	C 	0.35200 0.20550 0.98330 0.02900
C 	C 	0.31690 0.24160 0.98490 -0.01100
C 	C 	0.35200 0.70550 0.48330 0.03000
C 	C 	0.31690 0.74160 0.48490 -0.00300
C 	C 	0.85200 0.20550 0.48330 0.03000
C 	C 	0.81690 0.24160 0.48490 -0.00300
C 	C 	0.85200 0.70550 0.98330 0.02800
C 	C 	0.81690 0.74160 0.98490 -0.01100
C 	C 	0.98330 0.20550 0.35200 0.02900
C 	C 	0.98490 0.24160 0.31690 -0.01100
C 	C 	0.98330 0.70550 0.85200 0.02800
C 	C 	0.98490 0.74160 0.81690 -0.01100
C 	C 	0.48330 0.20550 0.85200 0.03000
C 	C 	0.48490 0.24160 0.81690 -0.00300
C 	C 	0.48330 0.70550 0.35200 0.03000
C 	C 	0.48490 0.74160 0.31690 -0.00300
C 	C 	0.01670 0.79450 0.35200 0.03100
C 	C 	0.01510 0.75840 0.31690 0.00400
C 	C 	0.01670 0.29450 0.85200 0.03100
C 	C 	0.01510 0.25840 0.81690 0.00400
C 	C 	0.51670 0.79450 0.85200 0.03000
C 	C 	0.51510 0.75840 0.81690 -0.00300
C 	C 	0.51670 0.29450 0.35200 0.03000
C 	C 	0.51510 0.25840 0.31690 -0.00300
C 	C 	0.01670 0.20550 0.64800 0.03100
C 	C 	0.01510 0.24160 0.68310 0.00400
C 	C 	0.01670 0.70550 0.14800 0.03100
C 	C 	0.01510 0.74160 0.18310 0.00400
C 	C 	0.51670 0.20550 0.14800 0.03000
C 	C 	0.51510 0.24160 0.18310 -0.00300
C 	C 	0.51670 0.70550 0.64800 0.03000
C 	C 	0.51510 0.74160 0.68310 -0.00300
C 	C 	0.98330 0.79450 0.64800 0.02900
C 	C 	0.98490 0.75840 0.68310 -0.01100
C 	C 	0.98330 0.29450 0.14800 0.02900
C 	C 	0.98490 0.25840 0.18310 -0.01100
C 	C 	0.48330 0.79450 0.14800 0.03000
C 	C 	0.48490 0.75840 0.18310 -0.00300
C 	C 	0.48330 0.29450 0.64800 0.03000
C 	C 	0.48490 0.25840 0.68310 -0.00300
C 	C 	0.35200 0.98330 0.20550 0.02900
C 	C 	0.31690 0.98490 0.24160 -0.01100
C 	C 	0.35200 0.48330 0.70550 0.03000
C 	C 	0.31690 0.48490 0.74160 -0.00300
C 	C 	0.85200 0.98330 0.70550 0.02800
C 	C 	0.81690 0.98490 0.74160 -0.01100
C 	C 	0.85200 0.48330 0.20550 0.03000
C 	C 	0.81690 0.48490 0.24160 -0.00300
C 	C 	0.35200 0.01670 0.79450 0.03100
C 	C 	0.31690 0.01510 0.75840 0.00400
C 	C 	0.35200 0.51670 0.29450 0.03000
C 	C 	0.31690 0.51510 0.25840 -0.00300
C 	C 	0.85200 0.01670 0.29450 0.03100
C 	C 	0.81690 0.01510 0.25840 0.00400
C 	C 	0.85200 0.51670 0.79450 0.03000
C 	C 	0.81690 0.51510 0.75840 -0.00300
C 	C 	0.64800 0.01670 0.20550 0.03100
C 	C 	0.68310 0.01510 0.24160 0.00400
C 	C 	0.64800 0.51670 0.70550 0.03000
C 	C 	0.68310 0.51510 0.74160 -0.00300
C 	C 	0.14800 0.01670 0.70550 0.03100
C 	C 	0.18310 0.01510 0.74160 0.00400
C 	C 	0.14800 0.51670 0.20550 0.03000
C 	C 	0.18310 0.51510 0.24160 -0.00300
C 	C 	0.64800 0.98330 0.79450 0.02900
C 	C 	0.68310 0.98490 0.75840 -0.01100
C 	C 	0.64800 0.48330 0.29450 0.03000
C 	C 	0.68310 0.48490 0.25840 -0.00300
C 	C 	0.14800 0.98330 0.29450 0.02900
C 	C 	0.18310 0.98490 0.25840 -0.01100
C 	C 	0.14800 0.48330 0.79450 0.03000
C 	C 	0.18310 0.48490 0.75840 -0.00300
C 	C 	0.20550 0.35200 0.98330 0.02900
C 	C 	0.24160 0.31690 0.98490 -0.01100
C 	C 	0.20550 0.85200 0.48330 0.03000
C 	C 	0.24160 0.81690 0.48490 -0.00300
C 	C 	0.70550 0.35200 0.48330 0.03000
C 	C 	0.74160 0.31690 0.48490 -0.00300
C 	C 	0.70550 0.85200 0.98330 0.02800
C 	C 	0.74160 0.81690 0.98490 -0.01100
C 	C 	0.79450 0.35200 0.01670 0.03100
C 	C 	0.75840 0.31690 0.01510 0.00400
C 	C 	0.79450 0.85200 0.51670 0.03000
C 	C 	0.75840 0.81690 0.51510 -0.00300
C 	C 	0.29450 0.35200 0.51670 0.03000
C 	C 	0.25840 0.31690 0.51510 -0.00300
C 	C 	0.29450 0.85200 0.01670 0.03100
C 	C 	0.25840 0.81690 0.01510 0.00400
C 	C 	0.20550 0.64800 0.01670 0.03100
C 	C 	0.24160 0.68310 0.01510 0.00400
C 	C 	0.20550 0.14800 0.51670 0.03000
C 	C 	0.24160 0.18310 0.51510 -0.00300
C 	C 	0.70550 0.64800 0.51670 0.03000
C 	C 	0.74160 0.68310 0.51510 -0.00300
C 	C 	0.70550 0.14800 0.01670 0.03100
C 	C 	0.74160 0.18310 0.01510 0.00400
C 	C 	0.79450 0.64800 0.98330 0.02900
C 	C 	0.75840 0.68310 0.98490 -0.01100
C 	C 	0.79450 0.14800 0.48330 0.03000
C 	C 	0.75840 0.18310 0.48490 -0.00300
C 	C 	0.29450 0.64800 0.48330 0.03000
C 	C 	0.25840 0.68310 0.48490 -0.00300
C 	C 	0.29450 0.14800 0.98330 0.02900
C 	C 	0.25840 0.18310 0.98490 -0.01100
C 	C 	0.20550 0.98330 0.64800 0.02900
C 	C 	0.24160 0.98490 0.68310 -0.01100
C 	C 	0.20550 0.48330 0.14800 0.03000
C 	C 	0.24160 0.48490 0.18310 -0.00300
C 	C 	0.70550 0.98330 0.14800 0.02900
C 	C 	0.74160 0.98490 0.18310 -0.01100
C 	C 	0.70550 0.48330 0.64800 0.03000
C 	C 	0.74160 0.48490 0.68310 -0.00300
C 	C 	0.79450 0.01670 0.64800 0.03100
C 	C 	0.75840 0.01510 0.68310 0.00400
C 	C 	0.79450 0.51670 0.14800 0.03000
C 	C 	0.75840 0.51510 0.18310 -0.00300
C 	C 	0.29450 0.01670 0.14800 0.03100
C 	C 	0.25840 0.01510 0.18310 0.00300
C 	C 	0.29450 0.51670 0.64800 0.03000
C 	C 	0.25840 0.51510 0.68310 -0.00300
C 	C 	0.20550 0.01670 0.35200 0.03100
C 	C 	0.24160 0.01510 0.31690 0.00400
C 	C 	0.20550 0.51670 0.85200 0.03000
C 	C 	0.24160 0.51510 0.81690 -0.00300
C 	C 	0.70550 0.01670 0.85200 0.03100
C 	C 	0.74160 0.01510 0.81690 0.00400
C 	C 	0.70550 0.51670 0.35200 0.03000
C 	C 	0.74160 0.51510 0.31690 -0.00300
C 	C 	0.79450 0.98330 0.35200 0.02900
C 	C 	0.75840 0.98490 0.31690 -0.01100
C 	C 	0.79450 0.48330 0.85200 0.03000
C 	C 	0.75840 0.48490 0.81690 -0.00300
C 	C 	0.29450 0.98330 0.85200 0.02800
C 	C 	0.25840 0.98490 0.81690 -0.01100
C 	C 	0.29450 0.48330 0.35200 0.03000
C 	C 	0.25840 0.48490 0.31690 -0.00300
C 	C 	0.98330 0.35200 0.79450 0.02900
C 	C 	0.98490 0.31690 0.75840 -0.01100
C 	C 	0.98330 0.85200 0.29450 0.02800
C 	C 	0.98490 0.81690 0.25840 -0.01100
C 	C 	0.48330 0.35200 0.29450 0.03000
C 	C 	0.48490 0.31690 0.25840 -0.00300
C 	C 	0.48330 0.85200 0.79450 0.03000
C 	C 	0.48490 0.81690 0.75840 -0.00300
C 	C 	0.01670 0.35200 0.20550 0.03100
C 	C 	0.01510 0.31690 0.24160 0.00400
C 	C 	0.01670 0.85200 0.70550 0.03100
C 	C 	0.01510 0.81690 0.74160 0.00400
C 	C 	0.51670 0.35200 0.70550 0.03000
C 	C 	0.51510 0.31690 0.74160 -0.00300
C 	C 	0.51670 0.85200 0.20550 0.03000
C 	C 	0.51510 0.81690 0.24160 -0.00300
C 	C 	0.01670 0.64800 0.79450 0.03100
C 	C 	0.01510 0.68310 0.75840 0.00400
C 	C 	0.01670 0.14800 0.29450 0.03100
C 	C 	0.01510 0.18310 0.25840 0.00300
C 	C 	0.51670 0.64800 0.29450 0.03000
C 	C 	0.51510 0.68310 0.25840 -0.00300
C 	C 	0.51670 0.14800 0.79450 0.03000
C 	C 	0.51510 0.18310 0.75840 -0.00300
C 	C 	0.98330 0.64800 0.20550 0.02900
C 	C 	0.98490 0.68310 0.24160 -0.01100
C 	C 	0.98330 0.14800 0.70550 0.02900
C 	C 	0.98490 0.18310 0.74160 -0.01100
C 	C 	0.48330 0.64800 0.70550 0.03000
C 	C 	0.48490 0.68310 0.74160 -0.00300
C 	C 	0.48330 0.14800 0.20550 0.03000
C 	C 	0.48490 0.18310 0.24160 -0.00300
C 	C 	0.35200 0.20550 0.01670 0.03100
C 	C 	0.31690 0.24160 0.01510 0.00400
C 	C 	0.35200 0.70550 0.51670 0.03000
C 	C 	0.31690 0.74160 0.51510 -0.00300
C 	C 	0.85200 0.20550 0.51670 0.03000
C 	C 	0.81690 0.24160 0.51510 -0.00300
C 	C 	0.85200 0.70550 0.01670 0.03100
C 	C 	0.81690 0.74160 0.01510 0.00400
C 	C 	0.35200 0.79450 0.98330 0.02900
C 	C 	0.31690 0.75840 0.98490 -0.01100
C 	C 	0.35200 0.29450 0.48330 0.03000
C 	C 	0.31690 0.25840 0.48490 -0.00300
C 	C 	0.85200 0.79450 0.48330 0.03000
C 	C 	0.81690 0.75840 0.48490 -0.00300
C 	C 	0.85200 0.29450 0.98330 0.02800
C 	C 	0.81690 0.25840 0.98490 -0.01100
C 	C 	0.64800 0.20550 0.98330 0.02900
C 	C 	0.68310 0.24160 0.98490 -0.01100
C 	C 	0.64800 0.70550 0.48330 0.03000
C 	C 	0.68310 0.74160 0.48490 -0.00300
C 	C 	0.14800 0.20550 0.48330 0.03000
C 	C 	0.18310 0.24160 0.48490 -0.00300
C 	C 	0.14800 0.70550 0.98330 0.02900
C 	C 	0.18310 0.74160 0.98490 -0.01100
C 	C 	0.64800 0.79450 0.01670 0.03100
C 	C 	0.68310 0.75840 0.01510 0.00400
C 	C 	0.64800 0.29450 0.51670 0.03000
C 	C 	0.68310 0.25840 0.51510 -0.00300
C 	C 	0.14800 0.79450 0.51670 0.03000
C 	C 	0.18310 0.75840 0.51510 -0.00300
C 	C 	0.14800 0.29450 0.01670 0.03100
C 	C 	0.18310 0.25840 0.01510 0.00300
U 	U 	0.00000 0.90113 0.50000 0.04600
U 	U 	-0.00000 0.40113 -0.00000 0.04700
U 	U 	0.50000 0.40113 0.50000 0.04500
U 	U 	-0.00000 0.09887 0.50000 0.04600
U 	U 	-0.00000 0.59887 -0.00000 0.04700
U 	U 	0.50000 0.59887 0.50000 0.04500
U 	U 	0.50000 0.90113 -0.00000 0.04600
U 	U 	0.50000 0.09887 -0.00000 0.04600
U 	U 	0.50000 0.00000 0.90113 0.04600
U 	U 	0.50000 0.50000 0.40113 0.04500
U 	U 	0.50000 0.00000 0.09887 0.04600
U 	U 	0.50000 0.50000 0.59887 0.04500
U 	U 	0.00000 0.50000 0.90113 0.04600
U 	U 	-0.00000 0.50000 0.09887 0.04600
U 	U 	0.90113 0.50000 -0.00000 0.04600
U 	U 	0.40113 0.50000 0.50000 0.04500
U 	U 	0.09887 0.50000 -0.00000 0.04600
U 	U 	0.59887 0.50000 0.50000 0.04500
U 	U 	0.40113 0.00000 -0.00000 0.04700
U 	U 	0.59887 0.00000 -0.00000 0.04700
U 	U 	0.90113 0.00000 0.50000 0.04600
U 	U 	0.09887 0.00000 0.50000 0.04600
U 	U 	0.00000 0.00000 0.59887 0.04700
U 	U 	0.00000 0.00000 0.40113 0.04700
O 	O 	-0.00000 0.86470 0.57620 -0.16400
O 	O 	-0.00000 0.36470 0.07620 -0.16400
O 	O 	0.50000 0.86470 0.07620 -0.16500
O 	O 	0.50000 0.36470 0.57620 -0.16500
O 	O 	-0.00000 0.13530 0.57620 -0.16400
O 	O 	-0.00000 0.63530 0.07620 -0.16400
O 	O 	0.50000 0.13530 0.07620 -0.16500
O 	O 	0.50000 0.63530 0.57620 -0.16500
O 	O 	0.00000 0.86470 0.42380 -0.16400
O 	O 	-0.00000 0.36470 0.92380 -0.16500
O 	O 	0.50000 0.86470 0.92380 -0.16600
O 	O 	0.50000 0.36470 0.42380 -0.16500
O 	O 	-0.00000 0.13530 0.42380 -0.16400
O 	O 	0.00000 0.63530 0.92380 -0.16500
O 	O 	0.50000 0.13530 0.92380 -0.16600
O 	O 	0.50000 0.63530 0.42380 -0.16500
O 	O 	0.57620 0.00000 0.86470 -0.16400
O 	O 	0.57620 0.50000 0.36470 -0.16500
O 	O 	0.07620 0.00000 0.36470 -0.16400
O 	O 	0.07620 0.50000 0.86470 -0.16500
O 	O 	0.57620 0.00000 0.13530 -0.16400
O 	O 	0.57620 0.50000 0.63530 -0.16500
O 	O 	0.07620 0.00000 0.63530 -0.16400
O 	O 	0.07620 0.50000 0.13530 -0.16500
O 	O 	0.42380 0.00000 0.86470 -0.16400
O 	O 	0.42380 0.50000 0.36470 -0.16500
O 	O 	0.92380 0.00000 0.36470 -0.16500
O 	O 	0.92380 0.50000 0.86470 -0.16600
O 	O 	0.42380 0.00000 0.13530 -0.16400
O 	O 	0.42380 0.50000 0.63530 -0.16500
O 	O 	0.92380 0.00000 0.63530 -0.16500
O 	O 	0.92380 0.50000 0.13530 -0.16600
O 	O 	0.86470 0.57620 -0.00000 -0.16400
O 	O 	0.86470 0.07620 0.50000 -0.16500
O 	O 	0.36470 0.57620 0.50000 -0.16500
O 	O 	0.36470 0.07620 -0.00000 -0.16400
O 	O 	0.13530 0.57620 -0.00000 -0.16400
O 	O 	0.13530 0.07620 0.50000 -0.16500
O 	O 	0.63530 0.57620 0.50000 -0.16500
O 	O 	0.63530 0.07620 -0.00000 -0.16400
O 	O 	0.86470 0.42380 -0.00000 -0.16400
O 	O 	0.86470 0.92380 0.50000 -0.16600
O 	O 	0.36470 0.42380 0.50000 -0.16500
O 	O 	0.36470 0.92380 -0.00000 -0.16500
O 	O 	0.13530 0.42380 -0.00000 -0.16400
O 	O 	0.13530 0.92380 0.50000 -0.16600
O 	O 	0.63530 0.42380 0.50000 -0.16500
O 	O 	0.63530 0.92380 -0.00000 -0.16500
O 	O 	0.86470 -0.00000 0.42380 -0.16400
O 	O 	0.86470 0.50000 0.92380 -0.16600
O 	O 	0.36470 -0.00000 0.92380 -0.16500
O 	O 	0.36470 0.50000 0.42380 -0.16500
O 	O 	0.13530 -0.00000 0.42380 -0.16400
O 	O 	0.13530 0.50000 0.92380 -0.16600
O 	O 	0.63530 -0.00000 0.92380 -0.16500
O 	O 	0.63530 0.50000 0.42380 -0.16500
O 	O 	0.86470 0.00000 0.57620 -0.16400
O 	O 	0.86470 0.50000 0.07620 -0.16500
O 	O 	0.36470 -0.00000 0.07620 -0.16400
O 	O 	0.36470 0.50000 0.57620 -0.16500
O 	O 	0.13530 0.00000 0.57620 -0.16400
O 	O 	0.13530 0.50000 0.07620 -0.16500
O 	O 	0.63530 -0.00000 0.07620 -0.16400
O 	O 	0.63530 0.50000 0.57620 -0.16500
O 	O 	-0.00000 0.57620 0.13530 -0.16400
O 	O 	-0.00000 0.07620 0.63530 -0.16400
O 	O 	0.50000 0.57620 0.63530 -0.16500
O 	O 	0.50000 0.07620 0.13530 -0.16500
O 	O 	-0.00000 0.57620 0.86470 -0.16400
O 	O 	0.00000 0.07620 0.36470 -0.16400
O 	O 	0.50000 0.57620 0.36470 -0.16500
O 	O 	0.50000 0.07620 0.86470 -0.16500
O 	O 	-0.00000 0.42380 0.13530 -0.16400
O 	O 	0.00000 0.92380 0.63530 -0.16500
O 	O 	0.50000 0.42380 0.63530 -0.16500
O 	O 	0.50000 0.92380 0.13530 -0.16600
O 	O 	0.00000 0.42380 0.86470 -0.16400
O 	O 	-0.00000 0.92380 0.36470 -0.16500
O 	O 	0.50000 0.42380 0.36470 -0.16500
O 	O 	0.50000 0.92380 0.86470 -0.16600
O 	O 	0.57620 0.86470 -0.00000 -0.16400
O 	O 	0.57620 0.36470 0.50000 -0.16500
O 	O 	0.07620 0.86470 0.50000 -0.16500
O 	O 	0.07620 0.36470 -0.00000 -0.16400
O 	O 	0.57620 0.13530 -0.00000 -0.16400
O 	O 	0.57620 0.63530 0.50000 -0.16500
O 	O 	0.07620 0.13530 0.50000 -0.16500
O 	O 	0.07620 0.63530 -0.00000 -0.16400
O 	O 	0.42380 0.86470 -0.00000 -0.16400
O 	O 	0.42380 0.36470 0.50000 -0.16500
O 	O 	0.92380 0.86470 0.50000 -0.16600
O 	O 	0.92380 0.36470 -0.00000 -0.16500
O 	O 	0.42380 0.13530 -0.00000 -0.16400
O 	O 	0.42380 0.63530 0.50000 -0.16500
O 	O 	0.92380 0.13530 0.50000 -0.16600
O 	O 	0.92380 0.63530 -0.00000 -0.16500
C 	C 	0.00000 0.88030 0.61970 0.28800
C 	C 	0.00000 0.84120 0.65880 -0.07900
C 	C 	0.00000 0.76960 0.73040 0.01100
C 	C 	0.50000 0.88030 0.11970 0.28800
C 	C 	0.50000 0.84120 0.15880 -0.08100
C 	C 	0.50000 0.76960 0.23040 0.00900
C 	C 	-0.00000 0.11970 0.61970 0.28700
C 	C 	0.00000 0.15880 0.65880 -0.07900
C 	C 	0.00000 0.23040 0.73040 0.01100
C 	C 	0.50000 0.11970 0.11970 0.28800
C 	C 	0.50000 0.15880 0.15880 -0.08100
C 	C 	0.50000 0.23040 0.23040 0.00900
C 	C 	0.00000 0.88030 0.38030 0.28800
C 	C 	0.00000 0.84120 0.34120 -0.07900
C 	C 	0.00000 0.76960 0.26960 0.01100
C 	C 	0.50000 0.88030 0.88030 0.28800
C 	C 	0.50000 0.84120 0.84120 -0.08100
C 	C 	0.50000 0.76960 0.76960 0.00900
C 	C 	0.00000 0.11970 0.38030 0.28700
C 	C 	-0.00000 0.15880 0.34120 -0.07900
C 	C 	0.00000 0.23040 0.26960 0.01100
C 	C 	0.50000 0.11970 0.88030 0.28800
C 	C 	0.50000 0.15880 0.84120 -0.08100
C 	C 	0.50000 0.23040 0.76960 0.00900
C 	C 	0.61970 0.00000 0.88030 0.28800
C 	C 	0.65880 0.00000 0.84120 -0.07900
C 	C 	0.73040 0.00000 0.76960 0.01100
C 	C 	0.61970 0.50000 0.38030 0.28800
C 	C 	0.65880 0.50000 0.34120 -0.08100
C 	C 	0.73040 0.50000 0.26960 0.00900
C 	C 	0.61970 0.00000 0.11970 0.28700
C 	C 	0.65880 -0.00000 0.15880 -0.07900
C 	C 	0.73040 -0.00000 0.23040 0.01100
C 	C 	0.61970 0.50000 0.61970 0.28800
C 	C 	0.65880 0.50000 0.65880 -0.08100
C 	C 	0.73040 0.50000 0.73040 0.00900
C 	C 	0.38030 0.00000 0.88030 0.28800
C 	C 	0.34120 0.00000 0.84120 -0.07900
C 	C 	0.26960 0.00000 0.76960 0.01100
C 	C 	0.38030 0.50000 0.38030 0.28800
C 	C 	0.34120 0.50000 0.34120 -0.08100
C 	C 	0.26960 0.50000 0.26960 0.00900
C 	C 	0.38030 0.00000 0.11970 0.28700
C 	C 	0.34120 -0.00000 0.15880 -0.07900
C 	C 	0.26960 -0.00000 0.23040 0.01100
C 	C 	0.38030 0.50000 0.61970 0.28800
C 	C 	0.34120 0.50000 0.65880 -0.08100
C 	C 	0.26960 0.50000 0.73040 0.00900
C 	C 	0.88030 0.61970 -0.00000 0.28800
C 	C 	0.84120 0.65880 -0.00000 -0.07900
C 	C 	0.76960 0.73040 -0.00000 0.01100
C 	C 	0.88030 0.11970 0.50000 0.28800
C 	C 	0.84120 0.15880 0.50000 -0.08100
C 	C 	0.76960 0.23040 0.50000 0.00900
C 	C 	0.11970 0.61970 -0.00000 0.28700
C 	C 	0.15880 0.65880 -0.00000 -0.07900
C 	C 	0.23040 0.73040 -0.00000 0.01100
C 	C 	0.11970 0.11970 0.50000 0.28800
C 	C 	0.15880 0.15880 0.50000 -0.08100
C 	C 	0.23040 0.23040 0.50000 0.00900
C 	C 	0.88030 0.38030 -0.00000 0.28800
C 	C 	0.84120 0.34120 -0.00000 -0.07900
C 	C 	0.76960 0.26960 -0.00000 0.01100
C 	C 	0.88030 0.88030 0.50000 0.28800
C 	C 	0.84120 0.84120 0.50000 -0.08100
C 	C 	0.76960 0.76960 0.50000 0.00900
C 	C 	0.11970 0.38030 -0.00000 0.28700
C 	C 	0.15880 0.34120 -0.00000 -0.07900
C 	C 	0.23040 0.26960 -0.00000 0.01100
C 	C 	0.11970 0.88030 0.50000 0.28800
C 	C 	0.15880 0.84120 0.50000 -0.08100
C 	C 	0.23040 0.76960 0.50000 0.00900
C 	C 	0.88030 0.00000 0.38030 0.28800
C 	C 	0.84120 -0.00000 0.34120 -0.07900
C 	C 	0.76960 0.00000 0.26960 0.01100
C 	C 	0.88030 0.50000 0.88030 0.28800
C 	C 	0.84120 0.50000 0.84120 -0.08100
C 	C 	0.76960 0.50000 0.76960 0.00900
C 	C 	0.11970 0.00000 0.38030 0.28700
C 	C 	0.15880 -0.00000 0.34120 -0.07900
C 	C 	0.23040 0.00000 0.26960 0.01100
C 	C 	0.11970 0.50000 0.88030 0.28800
C 	C 	0.15880 0.50000 0.84120 -0.08100
C 	C 	0.23040 0.50000 0.76960 0.00900
C 	C 	0.88030 0.00000 0.61970 0.28800
C 	C 	0.84120 0.00000 0.65880 -0.07900
C 	C 	0.76960 0.00000 0.73040 0.01100
C 	C 	0.88030 0.50000 0.11970 0.28800
C 	C 	0.84120 0.50000 0.15880 -0.08100
C 	C 	0.76960 0.50000 0.23040 0.00900
C 	C 	0.11970 0.00000 0.61970 0.28700
C 	C 	0.15880 0.00000 0.65880 -0.07900
C 	C 	0.23040 0.00000 0.73040 0.01100
C 	C 	0.11970 0.50000 0.11970 0.28800
C 	C 	0.15880 0.50000 0.15880 -0.08100
C 	C 	0.23040 0.50000 0.23040 0.00900
C 	C 	-0.00000 0.61970 0.11970 0.28700
C 	C 	-0.00000 0.65880 0.15880 -0.07900
C 	C 	0.00000 0.73040 0.23040 0.01100
C 	C 	0.50000 0.61970 0.61970 0.28800
C 	C 	0.50000 0.65880 0.65880 -0.08100
C 	C 	0.50000 0.73040 0.73040 0.00900
C 	C 	0.00000 0.61970 0.88030 0.28800
C 	C 	0.00000 0.65880 0.84120 -0.07900
C 	C 	0.00000 0.73040 0.76960 0.01100
C 	C 	0.50000 0.61970 0.38030 0.28800
C 	C 	0.50000 0.65880 0.34120 -0.08100
C 	C 	0.50000 0.73040 0.26960 0.00900
C 	C 	-0.00000 0.38030 0.11970 0.28700
C 	C 	-0.00000 0.34120 0.15880 -0.07900
C 	C 	0.00000 0.26960 0.23040 0.01100
C 	C 	0.50000 0.38030 0.61970 0.28800
C 	C 	0.50000 0.34120 0.65880 -0.08100
C 	C 	0.50000 0.26960 0.73040 0.00900
C 	C 	0.00000 0.38030 0.88030 0.28800
C 	C 	0.00000 0.34120 0.84120 -0.07900
C 	C 	0.00000 0.26960 0.76960 0.01100
C 	C 	0.50000 0.38030 0.38030 0.28800
C 	C 	0.50000 0.34120 0.34120 -0.08100
C 	C 	0.50000 0.26960 0.26960 0.00900
C 	C 	0.61970 0.88030 -0.00000 0.28800
C 	C 	0.65880 0.84120 -0.00000 -0.07900
C 	C 	0.73040 0.76960 -0.00000 0.01100
C 	C 	0.61970 0.38030 0.50000 0.28800
C 	C 	0.65880 0.34120 0.50000 -0.08100
C 	C 	0.73040 0.26960 0.50000 0.00900
C 	C 	0.61970 0.11970 -0.00000 0.28700
C 	C 	0.65880 0.15880 -0.00000 -0.07900
C 	C 	0.73040 0.23040 -0.00000 0.01100
C 	C 	0.61970 0.61970 0.50000 0.28800
C 	C 	0.65880 0.65880 0.50000 -0.08100
C 	C 	0.73040 0.73040 0.50000 0.00900
C 	C 	0.38030 0.88030 -0.00000 0.28800
C 	C 	0.34120 0.84120 -0.00000 -0.07900
C 	C 	0.26960 0.76960 -0.00000 0.01100
C 	C 	0.38030 0.38030 0.50000 0.28800
C 	C 	0.34120 0.34120 0.50000 -0.08100
C 	C 	0.26960 0.26960 0.50000 0.00900
C 	C 	0.38030 0.11970 -0.00000 0.28700
C 	C 	0.34120 0.15880 -0.00000 -0.07900
C 	C 	0.26960 0.23040 -0.00000 0.01100
C 	C 	0.38030 0.61970 0.50000 0.28800
C 	C 	0.34120 0.65880 0.50000 -0.08100
C 	C 	0.26960 0.73040 0.50000 0.00900
O 	O 	0.95180 0.95180 0.45180 -0.02700
O 	O 	0.04820 0.04820 0.45180 -0.02500
O 	O 	0.04820 0.95180 0.54820 -0.02600
O 	O 	0.95180 0.04820 0.54820 -0.02600
O 	O 	0.45180 0.95180 0.95180 -0.02700
O 	O 	0.45180 0.45180 0.45180 -0.02500
O 	O 	0.45180 0.04820 0.04820 -0.02500
O 	O 	0.45180 0.54820 0.54820 -0.02500
O 	O 	0.54820 0.04820 0.95180 -0.02600
O 	O 	0.54820 0.54820 0.45180 -0.02500
O 	O 	0.54820 0.95180 0.04820 -0.02600
O 	O 	0.54820 0.45180 0.54820 -0.02500
O 	O 	0.95180 0.45180 0.95180 -0.02700
O 	O 	0.04820 0.45180 0.04820 -0.02500
O 	O 	0.95180 0.54820 0.04820 -0.02600
O 	O 	0.04820 0.54820 0.95180 -0.02600
O 	O 	0.95180 0.95180 0.54820 -0.02700
O 	O 	0.04820 0.04820 0.54820 -0.02500
O 	O 	0.95180 0.04820 0.45180 -0.02600
O 	O 	0.04820 0.95180 0.45180 -0.02600
O 	O 	0.95180 0.45180 0.04820 -0.02600
O 	O 	0.04820 0.45180 0.95180 -0.02600
O 	O 	0.04820 0.54820 0.04820 -0.02500
O 	O 	0.95180 0.54820 0.95180 -0.02700
O 	O 	0.45180 0.95180 0.04820 -0.02600
O 	O 	0.45180 0.45180 0.54820 -0.02500
O 	O 	0.45180 0.04820 0.95180 -0.02600
O 	O 	0.45180 0.54820 0.45180 -0.02500
O 	O 	0.54820 0.95180 0.95180 -0.02700
O 	O 	0.54820 0.45180 0.45180 -0.02500
O 	O 	0.54820 0.04820 0.04820 -0.02500
O 	O 	0.54820 0.54820 0.54820 -0.02500
