data_crystal

_cell_length_a 22.77300
_cell_length_b 22.77300
_cell_length_c 12.66800
_cell_angle_alpha 90.00000
_cell_angle_beta  90.00000
_cell_angle_gamma 90.00000

_symmetry_space_group_name_	'P 1'
_symmetry_space_group_name_H-M	'P 1'

loop_
_symmetry_equiv_pos_as_xyz
  x,y,z

loop_
_atom_site_label
_atom_site_type_symbol
_atom_site_fract_x
_atom_site_fract_y
_atom_site_fract_z
_atom_site_charge
Cu	Cu	0.71090 0.58873 0.41497 0.85300
Cu	Cu	0.54563 0.63252 0.25894 0.83400
Cu	Cu	0.55784 0.18421 0.16905 0.82600
Cu	Cu	0.62092 0.37015 0.01178 0.82300
N 	N 	0.71406 0.58872 0.57250 -0.23400
N 	N 	0.62873 0.61195 0.45160 -0.20600
N 	N 	0.57898 0.62803 0.40230 -0.21800
N 	N 	0.56147 0.62989 0.57800 -0.14600
N 	N 	0.47006 0.65777 0.34570 -0.21300
N 	N 	0.38250 0.68220 0.49370 -0.12400
N 	N 	0.79542 0.57176 0.44140 -0.20400
N 	N 	0.86999 0.56782 0.55750 -0.13400
N 	N 	0.84509 0.56634 0.38480 -0.21800
N 	N 	0.95290 0.53878 0.31760 -0.19300
N 	N 	0.05235 0.56107 0.43940 -0.20000
N 	N 	0.72610 0.66112 0.21720 -0.19900
N 	N 	0.71531 0.60916 0.26360 -0.22000
N 	N 	0.71578 0.59371 0.08870 -0.21600
H 	H 	0.71370 0.57740 0.02750 0.11700
N 	N 	0.69368 0.49554 0.31380 -0.17600
N 	N 	0.67912 0.41022 0.15750 -0.17800
C 	C 	0.57310 0.25830 0.10450 -0.20300
N 	N 	0.52110 0.07240 0.05350 -0.23400
N 	N 	0.65870 0.40690 0.89330 -0.20600
C 	C 	0.76454 0.57620 0.62080 0.04000
C 	C 	0.76710 0.56820 0.72890 -0.14000
H 	H 	0.80230 0.55940 0.76250 0.08000
C 	C 	0.71530 0.57380 0.78530 0.01500
H 	H 	0.71550 0.56660 0.85750 0.01400
C 	C 	0.66260 0.59000 0.73620 -0.14000
H 	H 	0.62820 0.59550 0.77450 0.07800
C 	C 	0.66450 0.59750 0.62660 0.04000
C 	C 	0.61629 0.61320 0.55620 0.05300
C 	C 	0.53997 0.63831 0.47950 0.04100
C 	C 	0.48056 0.65611 0.45070 -0.01700
C 	C 	0.43640 0.66910 0.52310 -0.00200
H 	H 	0.44530 0.66840 0.59480 0.02000
C 	C 	0.37190 0.68190 0.39070 -0.03900
H 	H 	0.33390 0.68920 0.36730 0.00100
C 	C 	0.41520 0.67110 0.31710 0.00300
H 	H 	0.40590 0.67310 0.24570 -0.02300
C 	C 	0.81212 0.57200 0.54340 0.06100
C 	C 	0.88885 0.56406 0.45580 0.07400
C 	C 	0.94862 0.55727 0.41850 -0.01200
C 	C 	0.00750 0.53020 0.28100 -0.01000
H 	H 	0.01240 0.51700 0.21200 -0.03900
C 	C 	0.05630 0.54010 0.34140 -0.00500
H 	H 	0.09320 0.53190 0.31350 0.01100
C 	C 	0.99864 0.56920 0.47790 0.04800
H 	H 	0.99440 0.58330 0.54640 0.01000
C 	C 	0.73790 0.69980 0.04430 -0.02700
C 	C 	0.73830 0.69830 0.93690 -0.02200
H 	H 	0.73000 0.66130 0.90030 0.04200
C 	C 	0.77470 0.74450 0.88340 -0.03500
H 	H 	0.79950 0.73890 0.82100 0.04400
C 	C 	0.72610 0.65003 0.11390 0.08700
C 	C 	0.70948 0.56965 0.18530 0.07900
C 	C 	0.69803 0.50885 0.21070 -0.02200
C 	C 	0.69201 0.46590 0.13450 0.01200
H 	H 	0.69720 0.47620 0.06400 0.00700
C 	C 	0.67500 0.39780 0.25960 -0.00300
H 	H 	0.66620 0.35950 0.27960 0.00800
C 	C 	0.68340 0.43930 0.33670 -0.00600
H 	H 	0.68180 0.42790 0.40710 -0.00100
N 	N 	0.58900 0.29990 0.06900 -0.21800
C 	C 	0.53310 0.11590 0.09310 -0.19900
C 	C 	0.67300 0.42560 0.81780 -0.18100
Cu	Cu	0.78910 0.91127 0.41497 0.85700
Cu	Cu	0.95437 0.86748 0.25894 0.84200
Cu	Cu	0.94216 0.31579 0.16905 0.83000
Cu	Cu	0.87908 0.12985 0.01178 0.82500
N 	N 	0.78594 0.91128 0.57250 -0.23200
N 	N 	0.87127 0.88805 0.45160 -0.20300
N 	N 	0.92102 0.87197 0.40230 -0.21700
N 	N 	0.93853 0.87011 0.57800 -0.14300
N 	N 	0.02994 0.84223 0.34570 -0.21400
N 	N 	0.11750 0.81780 0.49370 -0.12700
N 	N 	0.70458 0.92824 0.44140 -0.20200
N 	N 	0.63001 0.93218 0.55750 -0.13100
N 	N 	0.65491 0.93366 0.38480 -0.21600
N 	N 	0.54710 0.96122 0.31760 -0.20800
N 	N 	0.44765 0.93893 0.43940 -0.17900
N 	N 	0.77390 0.83888 0.21720 -0.19900
N 	N 	0.78469 0.89084 0.26360 -0.21700
N 	N 	0.78422 0.90629 0.08870 -0.21400
H 	H 	0.78630 0.92260 0.02750 0.11900
N 	N 	0.80632 0.00446 0.31380 -0.19900
N 	N 	0.82088 0.08978 0.15750 -0.17000
C 	C 	0.92690 0.24170 0.10450 -0.19500
N 	N 	0.97890 0.42760 0.05350 -0.22300
N 	N 	0.84130 0.09310 0.89330 -0.20600
C 	C 	0.73546 0.92380 0.62080 0.04500
C 	C 	0.73290 0.93180 0.72890 -0.13900
H 	H 	0.69770 0.94060 0.76250 0.08400
C 	C 	0.78470 0.92620 0.78530 0.01900
H 	H 	0.78450 0.93340 0.85750 0.01700
C 	C 	0.83740 0.91000 0.73620 -0.13900
H 	H 	0.87180 0.90450 0.77450 0.08200
C 	C 	0.83550 0.90250 0.62660 0.04400
C 	C 	0.88371 0.88680 0.55620 0.05600
C 	C 	0.96003 0.86169 0.47950 0.07100
C 	C 	0.01944 0.84389 0.45070 -0.04600
C 	C 	0.06360 0.83090 0.52310 0.01000
H 	H 	0.05470 0.83160 0.59480 0.01100
C 	C 	0.12810 0.81810 0.39070 -0.03700
H 	H 	0.16610 0.81080 0.36730 0.00000
C 	C 	0.08480 0.82890 0.31710 0.00100
H 	H 	0.09410 0.82690 0.24570 -0.02500
C 	C 	0.68788 0.92800 0.54340 0.06400
C 	C 	0.61115 0.93594 0.45580 0.07300
C 	C 	0.55138 0.94273 0.41850 -0.00100
C 	C 	0.49250 0.96980 0.28100 0.03000
H 	H 	0.48760 0.98300 0.21200 -0.03800
C 	C 	0.44370 0.95990 0.34140 -0.01500
H 	H 	0.40680 0.96810 0.31350 0.02100
C 	C 	0.50136 0.93080 0.47790 0.01500
H 	H 	0.50560 0.91670 0.54640 0.01700
C 	C 	0.76210 0.80020 0.04430 -0.02800
C 	C 	0.76170 0.80170 0.93690 -0.02200
H 	H 	0.77000 0.83870 0.90030 0.04200
C 	C 	0.72530 0.75550 0.88340 -0.03400
H 	H 	0.70050 0.76110 0.82100 0.04400
C 	C 	0.77390 0.84997 0.11390 0.08700
C 	C 	0.79052 0.93035 0.18530 0.06800
C 	C 	0.80197 0.99115 0.21070 0.03200
C 	C 	0.80799 0.03410 0.13450 -0.03400
H 	H 	0.80280 0.02380 0.06400 0.01400
C 	C 	0.82500 0.10220 0.25960 -0.01000
H 	H 	0.83380 0.14050 0.27960 0.01100
C 	C 	0.81660 0.06070 0.33670 -0.00100
H 	H 	0.81820 0.07210 0.40710 -0.00400
N 	N 	0.91100 0.20010 0.06900 -0.21700
C 	C 	0.96690 0.38410 0.09310 -0.18800
C 	C 	0.82700 0.07440 0.81780 -0.18700
Cu	Cu	0.41127 0.21090 0.91497 0.85800
Cu	Cu	0.36748 0.04563 0.75894 0.83000
Cu	Cu	0.81579 0.05784 0.66905 0.82600
Cu	Cu	0.62985 0.12092 0.51178 0.82800
N 	N 	0.41128 0.21406 0.07250 -0.23900
N 	N 	0.38805 0.12873 0.95160 -0.19500
N 	N 	0.37197 0.07898 0.90230 -0.21500
N 	N 	0.37011 0.06147 0.07800 -0.15100
N 	N 	0.34223 0.97006 0.84570 -0.21300
N 	N 	0.31780 0.88250 0.99370 -0.10300
N 	N 	0.42824 0.29542 0.94140 -0.19400
N 	N 	0.43218 0.36999 0.05750 -0.14200
N 	N 	0.43366 0.34509 0.88480 -0.22000
N 	N 	0.46122 0.45290 0.81760 -0.20800
N 	N 	0.43893 0.55235 0.93940 -0.18500
N 	N 	0.33888 0.22610 0.71720 -0.19800
N 	N 	0.39084 0.21531 0.76360 -0.22000
N 	N 	0.40629 0.21578 0.58870 -0.21500
H 	H 	0.42260 0.21370 0.52750 0.12200
N 	N 	0.50446 0.19368 0.81380 -0.17400
N 	N 	0.58978 0.17912 0.65750 -0.17700
C 	C 	0.74170 0.07310 0.60450 -0.20500
N 	N 	0.92760 0.02110 0.55350 -0.22400
N 	N 	0.59310 0.15870 0.39330 -0.21400
C 	C 	0.42380 0.26454 0.12080 0.04500
C 	C 	0.43180 0.26710 0.22890 -0.14600
H 	H 	0.44060 0.30230 0.26250 0.08100
C 	C 	0.42620 0.21530 0.28530 0.01900
H 	H 	0.43340 0.21550 0.35750 0.00800
C 	C 	0.41000 0.16260 0.23620 -0.14500
H 	H 	0.40450 0.12820 0.27450 0.07700
C 	C 	0.40250 0.16450 0.12660 0.04300
C 	C 	0.38680 0.11629 0.05620 0.03800
C 	C 	0.36169 0.03997 0.97950 0.02100
C 	C 	0.34389 0.98056 0.95070 0.04100
C 	C 	0.33090 0.93640 0.02310 -0.06100
H 	H 	0.33160 0.94530 0.09480 0.04100
C 	C 	0.31810 0.87190 0.89070 -0.04300
H 	H 	0.31080 0.83390 0.86730 0.00500
C 	C 	0.32890 0.91520 0.81710 0.01100
H 	H 	0.32690 0.90590 0.74570 -0.02100
C 	C 	0.42800 0.31212 0.04340 0.04400
C 	C 	0.43594 0.38885 0.95580 0.09100
C 	C 	0.44273 0.44862 0.91850 -0.01800
C 	C 	0.46980 0.50750 0.78100 0.02500
H 	H 	0.48300 0.51240 0.71200 -0.04300
C 	C 	0.45990 0.55630 0.84140 -0.01500
H 	H 	0.46810 0.59320 0.81350 0.01600
C 	C 	0.43080 0.49864 0.97790 0.05200
H 	H 	0.41670 0.49440 0.04640 -0.01000
C 	C 	0.30020 0.23790 0.54430 0.00400
C 	C 	0.30170 0.23830 0.43690 -0.06000
H 	H 	0.33870 0.23000 0.40030 0.05000
C 	C 	0.25550 0.27470 0.38340 -0.02300
H 	H 	0.26110 0.29950 0.32100 0.04000
C 	C 	0.34997 0.22610 0.61390 0.08100
C 	C 	0.43035 0.20948 0.68530 0.08000
C 	C 	0.49115 0.19803 0.71070 -0.02100
C 	C 	0.53410 0.19201 0.63450 0.01100
H 	H 	0.52380 0.19720 0.56400 0.01100
C 	C 	0.60220 0.17500 0.75960 -0.00200
H 	H 	0.64050 0.16620 0.77960 0.01000
C 	C 	0.56070 0.18340 0.83670 -0.00500
H 	H 	0.57210 0.18180 0.90710 0.00500
N 	N 	0.70010 0.08900 0.56900 -0.21700
C 	C 	0.88410 0.03310 0.59310 -0.20000
C 	C 	0.57440 0.17300 0.31780 -0.18500
Cu	Cu	0.08873 0.28910 0.91497 0.85400
Cu	Cu	0.13252 0.45437 0.75894 0.83500
Cu	Cu	0.68421 0.44216 0.66905 0.82800
Cu	Cu	0.87015 0.37908 0.51178 0.83100
N 	N 	0.08872 0.28594 0.07250 -0.24100
N 	N 	0.11195 0.37127 0.95160 -0.19700
N 	N 	0.12803 0.42102 0.90230 -0.21900
N 	N 	0.12989 0.43853 0.07800 -0.15100
N 	N 	0.15777 0.52994 0.84570 -0.21600
N 	N 	0.18220 0.61750 0.99370 -0.10700
N 	N 	0.07176 0.20458 0.94140 -0.19800
N 	N 	0.06782 0.13001 0.05750 -0.14400
N 	N 	0.06634 0.15491 0.88480 -0.22100
N 	N 	0.03878 0.04710 0.81760 -0.23100
N 	N 	0.06107 0.94765 0.93940 -0.16900
N 	N 	0.16112 0.27390 0.71720 -0.19700
N 	N 	0.10916 0.28469 0.76360 -0.22400
N 	N 	0.09371 0.28422 0.58870 -0.21900
H 	H 	0.07740 0.28630 0.52750 0.12000
N 	N 	0.99554 0.30632 0.81380 -0.14700
N 	N 	0.91022 0.32088 0.65750 -0.18500
C 	C 	0.75830 0.42690 0.60450 -0.19700
N 	N 	0.57240 0.47890 0.55350 -0.22800
N 	N 	0.90690 0.34130 0.39330 -0.21200
C 	C 	0.07620 0.23546 0.12080 0.04000
C 	C 	0.06820 0.23290 0.22890 -0.14800
H 	H 	0.05940 0.19770 0.26250 0.07600
C 	C 	0.07380 0.28470 0.28530 0.01700
H 	H 	0.06660 0.28450 0.35750 0.00500
C 	C 	0.09000 0.33740 0.23620 -0.14700
H 	H 	0.09550 0.37180 0.27450 0.07800
C 	C 	0.09750 0.33550 0.12660 0.04100
C 	C 	0.11320 0.38371 0.05620 0.03500
C 	C 	0.13831 0.46003 0.97950 0.04900
C 	C 	0.15611 0.51944 0.95070 0.00700
C 	C 	0.16910 0.56360 0.02310 -0.04700
H 	H 	0.16840 0.55470 0.09480 0.03100
C 	C 	0.18190 0.62810 0.89070 -0.04200
H 	H 	0.18920 0.66610 0.86730 0.00400
C 	C 	0.17110 0.58480 0.81710 0.00800
H 	H 	0.17310 0.59410 0.74570 -0.02300
C 	C 	0.07200 0.18788 0.04340 0.04200
C 	C 	0.06406 0.11115 0.95580 0.08100
C 	C 	0.05727 0.05138 0.91850 -0.01300
C 	C 	0.03020 0.99250 0.78100 0.06100
H 	H 	0.01700 0.98760 0.71200 -0.05200
C 	C 	0.04010 0.94370 0.84140 -0.03300
H 	H 	0.03190 0.90680 0.81350 0.01700
C 	C 	0.06920 0.00136 0.97790 0.00700
H 	H 	0.08330 0.00560 0.04640 -0.00600
C 	C 	0.19980 0.26210 0.54430 0.00400
C 	C 	0.19830 0.26170 0.43690 -0.06000
H 	H 	0.16130 0.27000 0.40030 0.05000
C 	C 	0.24450 0.22530 0.38340 -0.02200
H 	H 	0.23890 0.20050 0.32100 0.04000
C 	C 	0.15003 0.27390 0.61390 0.08000
C 	C 	0.06965 0.29052 0.68530 0.09200
C 	C 	0.00885 0.30197 0.71070 -0.08200
C 	C 	0.96590 0.30799 0.63450 0.06200
H 	H 	0.97620 0.30280 0.56400 0.00300
C 	C 	0.89780 0.32500 0.75960 0.00700
H 	H 	0.85950 0.33380 0.77960 0.00800
C 	C 	0.93930 0.31660 0.83670 -0.01000
H 	H 	0.92790 0.31820 0.90710 0.00900
N 	N 	0.79990 0.41100 0.56900 -0.21500
C 	C 	0.61590 0.46690 0.59310 -0.19200
C 	C 	0.92560 0.32700 0.31780 -0.17500
Cu	Cu	0.28910 0.41127 0.58503 0.85400
Cu	Cu	0.45437 0.36748 0.74106 0.83600
Cu	Cu	0.44216 0.81579 0.83095 0.82900
Cu	Cu	0.37908 0.62985 0.98822 0.83600
N 	N 	0.28594 0.41128 0.42750 -0.23400
N 	N 	0.37127 0.38805 0.54840 -0.20500
N 	N 	0.42102 0.37197 0.59770 -0.21700
N 	N 	0.43853 0.37011 0.42200 -0.14500
N 	N 	0.52994 0.34223 0.65430 -0.21100
N 	N 	0.61750 0.31780 0.50630 -0.12400
N 	N 	0.20458 0.42824 0.55860 -0.20400
N 	N 	0.13001 0.43218 0.44250 -0.13400
N 	N 	0.15491 0.43366 0.61520 -0.21700
N 	N 	0.04710 0.46122 0.68240 -0.23000
N 	N 	0.94765 0.43893 0.56060 -0.16300
N 	N 	0.27390 0.33888 0.78280 -0.19700
N 	N 	0.28469 0.39084 0.73640 -0.22100
N 	N 	0.28422 0.40629 0.91130 -0.21400
H 	H 	0.28630 0.42260 0.97250 0.12700
N 	N 	0.30632 0.50446 0.68620 -0.17600
N 	N 	0.32088 0.58978 0.84250 -0.17500
C 	C 	0.42690 0.74170 0.89550 -0.19400
N 	N 	0.47890 0.92760 0.94650 -0.21500
N 	N 	0.34130 0.59310 0.10670 -0.21900
C 	C 	0.23546 0.42380 0.37920 0.04100
C 	C 	0.23290 0.43180 0.27110 -0.14400
H 	H 	0.19770 0.44060 0.23750 0.07900
C 	C 	0.28470 0.42620 0.21470 0.01900
H 	H 	0.28450 0.43340 0.14250 0.00400
C 	C 	0.33740 0.41000 0.26380 -0.14400
H 	H 	0.37180 0.40450 0.22550 0.07800
C 	C 	0.33550 0.40250 0.37340 0.04100
C 	C 	0.38371 0.38680 0.44380 0.05200
C 	C 	0.46003 0.36169 0.52050 0.04100
C 	C 	0.51944 0.34389 0.54930 -0.01700
C 	C 	0.56360 0.33090 0.47690 -0.00200
H 	H 	0.55470 0.33160 0.40520 0.01900
C 	C 	0.62810 0.31810 0.60930 -0.03800
H 	H 	0.66610 0.31080 0.63270 0.00200
C 	C 	0.58480 0.32890 0.68290 0.00200
H 	H 	0.59410 0.32690 0.75430 -0.01900
C 	C 	0.18788 0.42800 0.45660 0.06000
C 	C 	0.11115 0.43594 0.54420 0.06500
C 	C 	0.05138 0.44273 0.58150 0.00400
C 	C 	0.99250 0.46980 0.71900 0.06500
H 	H 	0.98760 0.48300 0.78800 -0.04500
C 	C 	0.94370 0.45990 0.65860 -0.03200
H 	H 	0.90680 0.46810 0.68650 0.02300
C 	C 	0.00136 0.43080 0.52210 -0.02600
H 	H 	0.00560 0.41670 0.45360 0.01900
C 	C 	0.26210 0.30020 0.95570 0.03200
C 	C 	0.26170 0.30170 0.06310 -0.09500
H 	H 	0.27000 0.33870 0.09970 0.05800
C 	C 	0.22530 0.25550 0.11660 -0.01100
H 	H 	0.20050 0.26110 0.17900 0.03600
C 	C 	0.27390 0.34997 0.88610 0.07600
C 	C 	0.29052 0.43035 0.81470 0.08100
C 	C 	0.30197 0.49115 0.78930 -0.02100
C 	C 	0.30799 0.53410 0.86550 0.01000
H 	H 	0.30280 0.52380 0.93600 0.01500
C 	C 	0.32500 0.60220 0.74040 -0.00300
H 	H 	0.33380 0.64050 0.72040 0.00900
C 	C 	0.31660 0.56070 0.66330 -0.00500
H 	H 	0.31820 0.57210 0.59290 -0.00100
N 	N 	0.41100 0.70010 0.93100 -0.21300
C 	C 	0.46690 0.88410 0.90690 -0.18600
C 	C 	0.32700 0.57440 0.18220 -0.18500
Cu	Cu	0.21090 0.08873 0.58503 0.85000
Cu	Cu	0.04563 0.13252 0.74106 0.82900
Cu	Cu	0.05784 0.68421 0.83095 0.82500
Cu	Cu	0.12092 0.87015 0.98822 0.83500
N 	N 	0.21406 0.08872 0.42750 -0.23500
N 	N 	0.12873 0.11195 0.54840 -0.20700
N 	N 	0.07898 0.12803 0.59770 -0.21600
N 	N 	0.06147 0.12989 0.42200 -0.14700
N 	N 	0.97006 0.15777 0.65430 -0.20800
N 	N 	0.88250 0.18220 0.50630 -0.12100
N 	N 	0.29542 0.07176 0.55860 -0.20700
N 	N 	0.36999 0.06782 0.44250 -0.13800
N 	N 	0.34509 0.06634 0.61520 -0.22000
N 	N 	0.45290 0.03878 0.68240 -0.21400
N 	N 	0.55235 0.06107 0.56060 -0.18500
N 	N 	0.22610 0.16112 0.78280 -0.19700
N 	N 	0.21531 0.10916 0.73640 -0.22400
N 	N 	0.21578 0.09371 0.91130 -0.21800
H 	H 	0.21370 0.07740 0.97250 0.12500
N 	N 	0.19368 0.99554 0.68620 -0.14900
N 	N 	0.17912 0.91022 0.84250 -0.18400
C 	C 	0.07310 0.75830 0.89550 -0.20200
N 	N 	0.02110 0.57240 0.94650 -0.22700
N 	N 	0.15870 0.90690 0.10670 -0.21900
C 	C 	0.26454 0.07620 0.37920 0.03700
C 	C 	0.26710 0.06820 0.27110 -0.14500
H 	H 	0.30230 0.05940 0.23750 0.07400
C 	C 	0.21530 0.07380 0.21470 0.01400
H 	H 	0.21550 0.06660 0.14250 0.00200
C 	C 	0.16260 0.09000 0.26380 -0.14500
H 	H 	0.12820 0.09550 0.22550 0.07400
C 	C 	0.16450 0.09750 0.37340 0.03600
C 	C 	0.11629 0.11320 0.44380 0.05000
C 	C 	0.03997 0.13831 0.52050 0.01100
C 	C 	0.98056 0.15611 0.54930 0.01600
C 	C 	0.93640 0.16910 0.47690 -0.01500
H 	H 	0.94530 0.16840 0.40520 0.02900
C 	C 	0.87190 0.18190 0.60930 -0.03900
H 	H 	0.83390 0.18920 0.63270 0.00300
C 	C 	0.91520 0.17110 0.68290 0.00400
H 	H 	0.90590 0.17310 0.75430 -0.01700
C 	C 	0.31212 0.07200 0.45660 0.05700
C 	C 	0.38885 0.06406 0.54420 0.06600
C 	C 	0.44862 0.05727 0.58150 -0.00700
C 	C 	0.50750 0.03020 0.71900 0.02300
H 	H 	0.51240 0.01700 0.78800 -0.04700
C 	C 	0.55630 0.04010 0.65860 -0.02100
H 	H 	0.59320 0.03190 0.68650 0.01200
C 	C 	0.49864 0.06920 0.52210 0.00800
H 	H 	0.49440 0.08330 0.45360 0.01200
C 	C 	0.23790 0.19980 0.95570 0.03200
C 	C 	0.23830 0.19830 0.06310 -0.09500
H 	H 	0.23000 0.16130 0.09970 0.05800
C 	C 	0.27470 0.24450 0.11660 -0.01200
H 	H 	0.29950 0.23890 0.17900 0.03600
C 	C 	0.22610 0.15003 0.88610 0.07500
C 	C 	0.20948 0.06965 0.81470 0.09300
C 	C 	0.19803 0.00885 0.78930 -0.08100
C 	C 	0.19201 0.96590 0.86550 0.06000
H 	H 	0.19720 0.97620 0.93600 0.00700
C 	C 	0.17500 0.89780 0.74040 0.00500
H 	H 	0.16620 0.85950 0.72040 0.00600
C 	C 	0.18340 0.93930 0.66330 -0.01000
H 	H 	0.18180 0.92790 0.59290 0.00300
N 	N 	0.08900 0.79990 0.93100 -0.21400
C 	C 	0.03310 0.61590 0.90690 -0.19800
C 	C 	0.17300 0.92560 0.18220 -0.17800
Cu	Cu	0.58873 0.78910 0.08503 0.84900
Cu	Cu	0.63252 0.95437 0.24106 0.84100
Cu	Cu	0.18421 0.94216 0.33095 0.83000
Cu	Cu	0.37015 0.87908 0.48822 0.83200
N 	N 	0.58872 0.78594 0.92750 -0.22700
N 	N 	0.61195 0.87127 0.04840 -0.21500
N 	N 	0.62803 0.92102 0.09770 -0.21900
N 	N 	0.62989 0.93853 0.92200 -0.13800
N 	N 	0.65777 0.02994 0.15430 -0.21000
N 	N 	0.68220 0.11750 0.00630 -0.14600
N 	N 	0.57176 0.70458 0.05860 -0.21500
N 	N 	0.56782 0.63001 0.94250 -0.12600
N 	N 	0.56634 0.65491 0.11520 -0.21600
N 	N 	0.53878 0.54710 0.18240 -0.21500
N 	N 	0.56107 0.44765 0.06060 -0.17800
N 	N 	0.66112 0.77390 0.28280 -0.19800
N 	N 	0.60916 0.78469 0.23640 -0.22100
N 	N 	0.59371 0.78422 0.41130 -0.21500
H 	H 	0.57740 0.78630 0.47250 0.12200
N 	N 	0.49554 0.80632 0.18620 -0.17700
N 	N 	0.41022 0.82088 0.34250 -0.17600
C 	C 	0.25830 0.92690 0.39550 -0.19100
N 	N 	0.07240 0.97890 0.44650 -0.22200
N 	N 	0.40690 0.84130 0.60670 -0.21200
C 	C 	0.57620 0.73546 0.87920 0.03700
C 	C 	0.56820 0.73290 0.77110 -0.13800
H 	H 	0.55940 0.69770 0.73750 0.07800
C 	C 	0.57380 0.78470 0.71470 0.01400
H 	H 	0.56660 0.78450 0.64250 0.01000
C 	C 	0.59000 0.83740 0.76380 -0.13800
H 	H 	0.59550 0.87180 0.72550 0.07900
C 	C 	0.59750 0.83550 0.87340 0.03800
C 	C 	0.61320 0.88371 0.94380 0.07000
C 	C 	0.63831 0.96003 0.02050 0.06000
C 	C 	0.65611 0.01944 0.04930 -0.07300
C 	C 	0.66910 0.06360 0.97690 0.05800
H 	H 	0.66840 0.05470 0.90520 -0.00200
C 	C 	0.68190 0.12810 0.10930 -0.03300
H 	H 	0.68920 0.16610 0.13270 -0.00200
C 	C 	0.67110 0.08480 0.18290 -0.00600
H 	H 	0.67310 0.09410 0.25430 -0.02100
C 	C 	0.57200 0.68788 0.95660 0.07800
C 	C 	0.56406 0.61115 0.04420 0.04800
C 	C 	0.55727 0.55138 0.08150 0.01100
C 	C 	0.53020 0.49250 0.21900 0.02900
H 	H 	0.51700 0.48760 0.28800 -0.04500
C 	C 	0.54010 0.44370 0.15860 -0.02200
H 	H 	0.53190 0.40680 0.18650 0.01700
C 	C 	0.56920 0.50136 0.02210 -0.03000
H 	H 	0.58330 0.50560 0.95360 0.04000
C 	C 	0.69980 0.76210 0.45570 0.00400
C 	C 	0.69830 0.76170 0.56310 -0.06000
H 	H 	0.66130 0.77000 0.59970 0.05000
C 	C 	0.74450 0.72530 0.61660 -0.02300
H 	H 	0.73890 0.70050 0.67900 0.04000
C 	C 	0.65003 0.77390 0.38610 0.08100
C 	C 	0.56965 0.79052 0.31470 0.07900
C 	C 	0.50885 0.80197 0.28930 -0.02200
C 	C 	0.46590 0.80799 0.36550 0.01000
H 	H 	0.47620 0.80280 0.43600 0.01100
C 	C 	0.39780 0.82500 0.24040 -0.00400
H 	H 	0.35950 0.83380 0.22040 0.00700
C 	C 	0.43930 0.81660 0.16330 -0.00500
H 	H 	0.42790 0.81820 0.09290 -0.00700
N 	N 	0.29990 0.91100 0.43100 -0.21400
C 	C 	0.11590 0.96690 0.40690 -0.18500
C 	C 	0.42560 0.82700 0.68220 -0.18100
Cu	Cu	0.91127 0.71090 0.08503 0.85200
Cu	Cu	0.86748 0.54563 0.24106 0.83700
Cu	Cu	0.31579 0.55784 0.33095 0.82700
Cu	Cu	0.12985 0.62092 0.48822 0.82900
N 	N 	0.91128 0.71406 0.92750 -0.22500
N 	N 	0.88805 0.62873 0.04840 -0.21400
N 	N 	0.87197 0.57898 0.09770 -0.21500
N 	N 	0.87011 0.56147 0.92200 -0.13800
N 	N 	0.84223 0.47006 0.15430 -0.20600
N 	N 	0.81780 0.38250 0.00630 -0.14400
N 	N 	0.92824 0.79542 0.05860 -0.21300
N 	N 	0.93218 0.86999 0.94250 -0.12300
N 	N 	0.93366 0.84509 0.11520 -0.21400
N 	N 	0.96122 0.95290 0.18240 -0.19500
N 	N 	0.93893 0.05235 0.06060 -0.19100
N 	N 	0.83888 0.72610 0.28280 -0.19800
N 	N 	0.89084 0.71531 0.23640 -0.21700
N 	N 	0.90629 0.71578 0.41130 -0.21200
H 	H 	0.92260 0.71370 0.47250 0.12500
N 	N 	0.00446 0.69368 0.18620 -0.20100
N 	N 	0.08978 0.67912 0.34250 -0.16900
C 	C 	0.24170 0.57310 0.39550 -0.19900
N 	N 	0.42760 0.52110 0.44650 -0.22800
N 	N 	0.09310 0.65870 0.60670 -0.21400
C 	C 	0.92380 0.76454 0.87920 0.04100
C 	C 	0.93180 0.76710 0.77110 -0.13600
H 	H 	0.94060 0.80230 0.73750 0.08200
C 	C 	0.92620 0.71530 0.71470 0.01700
H 	H 	0.93340 0.71550 0.64250 0.01300
C 	C 	0.91000 0.66260 0.76380 -0.13500
H 	H 	0.90450 0.62820 0.72550 0.07800
C 	C 	0.90250 0.66450 0.87340 0.03900
C 	C 	0.88680 0.61629 0.94380 0.07300
C 	C 	0.86169 0.53997 0.02050 0.03500
C 	C 	0.84389 0.48056 0.04930 -0.04300
C 	C 	0.83090 0.43640 0.97690 0.04900
H 	H 	0.83160 0.44530 0.90520 0.00700
C 	C 	0.81810 0.37190 0.10930 -0.03400
H 	H 	0.81080 0.33390 0.13270 -0.00200
C 	C 	0.82890 0.41520 0.18290 -0.00400
H 	H 	0.82690 0.40590 0.25430 -0.01900
C 	C 	0.92800 0.81212 0.95660 0.08200
C 	C 	0.93594 0.88885 0.04420 0.05400
C 	C 	0.94273 0.94862 0.08150 0.00800
C 	C 	0.96980 0.00750 0.21900 -0.00200
H 	H 	0.98300 0.01240 0.28800 -0.03300
C 	C 	0.95990 0.05630 0.15860 -0.00600
H 	H 	0.96810 0.09320 0.18650 0.01700
C 	C 	0.93080 0.99864 0.02210 0.00500
H 	H 	0.91670 0.99440 0.95360 0.04100
C 	C 	0.80020 0.73790 0.45570 0.00400
C 	C 	0.80170 0.73830 0.56310 -0.06000
H 	H 	0.83870 0.73000 0.59970 0.05000
C 	C 	0.75550 0.77470 0.61660 -0.02300
H 	H 	0.76110 0.79950 0.67900 0.03900
C 	C 	0.84997 0.72610 0.38610 0.08200
C 	C 	0.93035 0.70948 0.31470 0.06900
C 	C 	0.99115 0.69803 0.28930 0.03300
C 	C 	0.03410 0.69201 0.36550 -0.03600
H 	H 	0.02380 0.69720 0.43600 0.01800
C 	C 	0.10220 0.67500 0.24040 -0.01200
H 	H 	0.14050 0.66620 0.22040 0.00900
C 	C 	0.06070 0.68340 0.16330 -0.00100
H 	H 	0.07210 0.68180 0.09290 -0.01000
N 	N 	0.20010 0.58900 0.43100 -0.21600
C 	C 	0.38410 0.53310 0.40690 -0.19300
C 	C 	0.07440 0.67300 0.68220 -0.19100
Cu	Cu	0.75000 0.75000 0.25000 0.86400
Cu	Cu	0.25000 0.25000 0.75000 0.86400
Cu	Cu	0.50000 0.00000 -0.00000 0.79800
Cu	Cu	-0.00000 0.50000 -0.00000 0.79800
Cu	Cu	-0.00000 0.00000 0.50000 0.79300
Cu	Cu	0.50000 0.50000 0.50000 0.81600
N 	N 	0.75000 0.75000 0.09430 -0.22000
N 	N 	0.25000 0.25000 0.59430 -0.22900
N 	N 	0.25000 0.25000 0.90570 -0.23700
N 	N 	0.75000 0.75000 0.40570 -0.22900
