data_crystal

_cell_length_a 6.90590
_cell_length_b 9.98900
_cell_length_c 11.09210
_cell_angle_alpha 116.76100
_cell_angle_beta  104.27400
_cell_angle_gamma 90.00000

_symmetry_space_group_name_	'P 1'
_symmetry_space_group_name_H-M	'P 1'

loop_
_symmetry_equiv_pos_as_xyz
  x,y,z

loop_
_atom_site_label
_atom_site_type_symbol
_atom_site_fract_x
_atom_site_fract_y
_atom_site_fract_z
_atom_site_charge
Nd	Nd	0.44236 0.90850 0.29621 1.91400
Nd	Nd	0.94236 0.38771 0.29621 1.85500
H 	H 	0.45970 0.67890 0.68280 0.00000
H 	H 	0.63320 0.85220 0.90940 0.08100
H 	H 	0.53000 0.18870 0.80480 0.05500
H 	H 	0.18760 0.17900 0.63740 0.14100
H 	H 	0.39030 0.24740 0.63360 0.10600
H 	H 	0.95970 0.00390 0.68280 0.18300
H 	H 	0.13320 0.05720 0.90940 0.08000
H 	H 	0.03000 0.61610 0.80480 0.03700
H 	H 	0.68760 0.45840 0.63740 0.07900
H 	H 	0.89030 0.38620 0.63360 0.04700
C 	C 	0.42580 0.97940 0.64240 0.04400
C 	C 	0.40400 0.82540 0.60240 -0.17700
C 	C 	0.47800 0.78080 0.70620 0.11000
C 	C 	0.57790 0.88430 0.84300 -0.22600
C 	C 	0.59420 0.03750 0.87960 0.10800
C 	C 	0.51860 0.08620 0.77980 -0.04300
C 	C 	0.27850 0.16670 0.58000 -0.22900
C 	C 	0.16900 0.17070 0.44520 0.45800
C 	C 	0.29800 0.70420 0.45480 0.46800
C 	C 	0.70220 0.15550 0.02640 0.25000
C 	C 	0.92580 0.66300 0.64240 -0.02800
C 	C 	0.90400 0.77700 0.60240 -0.04200
C 	C 	0.97800 0.92540 0.70620 -0.37500
C 	C 	0.07790 0.95870 0.84300 0.12600
C 	C 	0.09420 0.84210 0.87960 -0.10600
C 	C 	0.01860 0.69360 0.77980 0.12500
C 	C 	0.77850 0.41330 0.58000 -0.19000
C 	C 	0.66900 0.27450 0.44520 0.42600
C 	C 	0.79800 0.75060 0.45480 0.40100
C 	C 	0.20220 0.87090 0.02640 0.31100
O 	O 	0.35030 0.02190 0.53900 -0.17900
O 	O 	0.15650 0.05462 0.33064 -0.39400
O 	O 	0.10020 0.28898 0.45916 -0.41800
O 	O 	0.28460 0.73141 0.35122 -0.50000
O 	O 	0.22570 0.58229 0.44158 -0.45900
O 	O 	0.83650 0.11875 0.10230 -0.42800
O 	O 	0.65980 0.28830 0.07000 -0.42700
O 	O 	0.85030 0.51710 0.53900 -0.27400
O 	O 	0.65650 0.27602 0.33064 -0.46000
O 	O 	0.60020 0.17018 0.45916 -0.47300
O 	O 	0.78460 0.61981 0.35122 -0.51700
O 	O 	0.72570 0.85929 0.44158 -0.55500
O 	O 	0.33650 0.98355 0.10230 -0.47700
O 	O 	0.15980 0.78170 0.07000 -0.42800
