data_crystal

_cell_length_a 7.31670
_cell_length_b 9.62020
_cell_length_c 11.39570
_cell_angle_alpha 96.91430
_cell_angle_beta  90.00000
_cell_angle_gamma 112.35100

_symmetry_space_group_name_	'P 1'
_symmetry_space_group_name_H-M	'P 1'

loop_
_symmetry_equiv_pos_as_xyz
  x,y,z

loop_
_atom_site_label
_atom_site_type_symbol
_atom_site_fract_x
_atom_site_fract_y
_atom_site_fract_z
_atom_site_charge
Co	Co	0.94134 0.50230 0.99650 1.20000
Co	Co	0.43904 0.49770 0.00350 1.22100
H 	H 	0.93410 0.29380 0.76850 0.00800
H 	H 	0.92800 0.28640 0.56440 0.06000
H 	H 	0.95000 0.71660 0.60820 0.05900
H 	H 	0.94410 0.70920 0.81130 0.01400
H 	H 	0.12630 0.71840 0.22940 0.00800
H 	H 	0.12850 0.72380 0.43290 0.05300
H 	H 	0.75500 0.28240 0.38580 0.05000
H 	H 	0.76600 0.28920 0.18320 0.03700
H 	H 	0.32620 0.99700 0.10200 0.05100
H 	H 	0.57800 0.97800 0.19370 0.20100
H 	H 	0.64030 0.70620 0.23150 0.01700
H 	H 	0.64160 0.71360 0.43560 0.06000
H 	H 	0.23340 0.28340 0.39180 0.08200
H 	H 	0.23490 0.29080 0.18870 0.04000
H 	H 	0.40790 0.28160 0.77060 0.01100
H 	H 	0.40470 0.27620 0.56710 0.07200
H 	H 	0.47260 0.71760 0.61420 0.07100
H 	H 	0.47680 0.71080 0.81680 0.03500
H 	H 	0.32920 0.00300 0.89800 0.06400
H 	H 	0.60000 0.02200 0.80630 0.18600
C 	C 	0.93603 0.38026 0.73540 0.06100
C 	C 	0.93476 0.37552 0.61340 -0.13800
C 	C 	0.94344 0.50288 0.56340 0.07000
C 	C 	0.94622 0.62824 0.63910 -0.13800
C 	C 	0.94344 0.62308 0.76050 0.06300
C 	C 	0.04978 0.62876 0.26180 0.10500
C 	C 	0.05240 0.63280 0.38360 -0.01400
C 	C 	0.94321 0.50322 0.43360 -0.05400
C 	C 	0.83334 0.37348 0.35590 -0.07200
C 	C 	0.83962 0.37884 0.23480 0.02600
C 	C 	0.33804 0.79008 0.03200 0.32200
C 	C 	0.42531 0.96522 0.05830 0.02400
C 	C 	0.55577 0.61974 0.26460 0.06300
C 	C 	0.55924 0.62448 0.38660 -0.11500
C 	C 	0.44056 0.49712 0.43660 0.05200
C 	C 	0.31798 0.37176 0.36090 -0.10700
C 	C 	0.32036 0.37692 0.23950 0.06900
C 	C 	0.42102 0.37124 0.73820 0.08200
C 	C 	0.41960 0.36720 0.61640 -0.11100
C 	C 	0.43999 0.49678 0.56640 0.05500
C 	C 	0.45986 0.62652 0.64410 -0.10200
C 	C 	0.46078 0.62116 0.76520 0.07100
C 	C 	0.54796 0.20992 0.96800 0.33700
C 	C 	0.46009 0.03478 0.94170 -0.00100
N 	N 	0.93971 0.50182 0.80916 -0.21800
N 	N 	0.94450 0.50440 0.18708 -0.23400
N 	N 	0.43789 0.49818 0.19084 -0.20500
N 	N 	0.44010 0.49560 0.81292 -0.19900
O 	O 	0.15216 0.73012 0.00970 -0.34100
O 	O 	0.45512 0.72524 0.03500 -0.36300
O 	O 	0.60107 0.01754 0.13070 -0.31200
O 	O 	0.42204 0.26988 0.99030 -0.36500
O 	O 	0.72988 0.27476 0.96500 -0.37600
O 	O 	0.58353 0.98246 0.86930 -0.28100
F 	F 	0.14190 0.40540 0.99020 -0.60300
F 	F 	0.73650 0.59460 0.00980 -0.65100
