data_crystal

_cell_length_a 30.92600
_cell_length_b 30.92600
_cell_length_c 31.41300
_cell_angle_alpha 60.51150
_cell_angle_beta  60.51150
_cell_angle_gamma 89.99990

_symmetry_space_group_name_	'P 1'
_symmetry_space_group_name_H-M	'P 1'

loop_
_symmetry_equiv_pos_as_xyz
  x,y,z

loop_
_atom_site_label
_atom_site_type_symbol
_atom_site_fract_x
_atom_site_fract_y
_atom_site_fract_z
_atom_site_charge
Cu	Cu	0.53001 0.19324 0.33784 0.90700
Cu	Cu	0.51968 0.27000 0.25608 0.90600
Cu	Cu	0.13215 0.46891 0.33785 0.90700
Cu	Cu	0.22425 0.47392 0.25607 0.90600
Cu	Cu	0.19324 0.13216 0.33784 0.90700
Cu	Cu	0.27001 0.22425 0.25607 0.90600
Cu	Cu	0.46891 0.53000 0.33785 0.90700
Cu	Cu	0.47391 0.51968 0.25608 0.90500
Cu	Cu	0.46999 0.80676 0.66216 0.90700
Cu	Cu	0.48032 0.73000 0.74392 0.90700
Cu	Cu	0.86785 0.53109 0.66215 0.90700
Cu	Cu	0.77575 0.52608 0.74393 0.90700
Cu	Cu	0.80676 0.86784 0.66216 0.90700
Cu	Cu	0.72999 0.77575 0.74393 0.90700
Cu	Cu	0.53109 0.47000 0.66215 0.90600
Cu	Cu	0.52608 0.48032 0.74393 0.90700
Cu	Cu	0.45694 0.74942 -0.00000 0.88400
Cu	Cu	0.44246 0.83459 -0.00000 0.88500
Cu	Cu	0.54306 0.25058 -0.00000 0.88400
Cu	Cu	0.55754 0.16541 -0.00000 0.88400
Cu	Cu	0.74942 0.54306 -0.00000 0.88400
Cu	Cu	0.83459 0.55754 -0.00000 0.88400
Cu	Cu	0.25058 0.45694 -0.00000 0.88300
Cu	Cu	0.16541 0.44246 1.00000 0.93100
H 	H 	0.48010 0.24220 0.45920 0.07200
H 	H 	0.45640 0.37260 0.45660 0.08300
H 	H 	0.48330 0.36400 0.32200 0.05900
H 	H 	0.40780 0.12400 0.66260 0.08400
H 	H 	0.42590 0.07370 0.79880 0.08600
H 	H 	0.44790 0.22810 0.68980 0.08500
H 	H 	0.47880 0.24400 0.73800 0.03800
H 	H 	0.44090 0.19890 0.56500 0.03900
H 	H 	0.43340 0.99640 0.80080 0.04000
H 	H 	0.50220 0.30290 0.75280 0.07500
H 	H 	0.53350 0.32960 0.85080 0.06600
H 	H 	0.50830 0.18400 0.88440 0.09100
H 	H 	0.44200 0.78100 0.85900 0.06700
H 	H 	0.42790 0.89920 0.73320 0.08500
H 	H 	0.41580 0.90760 0.86420 0.08100
H 	H 	0.06070 0.29860 0.45920 0.07200
H 	H 	0.08700 0.17080 0.45660 0.08300
H 	H 	0.19470 0.31400 0.32200 0.05900
H 	H 	0.92960 0.21340 0.66260 0.08500
H 	H 	0.77530 0.12750 0.79880 0.08600
H 	H 	0.86230 0.08210 0.68980 0.08500
H 	H 	0.78320 0.01800 0.73800 0.03800
H 	H 	0.99410 0.23610 0.56500 0.03900
H 	H 	0.76580 0.20280 0.80080 0.04000
H 	H 	0.74500 0.94430 0.75280 0.07600
H 	H 	0.61570 0.81960 0.85080 0.06700
H 	H 	0.60730 0.93160 0.88440 0.09200
H 	H 	0.69900 0.36000 0.85900 0.06700
H 	H 	0.83890 0.36760 0.73320 0.08500
H 	H 	0.72000 0.22820 0.86420 0.08100
H 	H 	0.24220 0.06070 0.45920 0.07200
H 	H 	0.37260 0.08700 0.45660 0.08300
H 	H 	0.36400 0.19470 0.32200 0.05900
H 	H 	0.12400 0.92960 0.66260 0.08500
H 	H 	0.07370 0.77530 0.79880 0.08600
H 	H 	0.22810 0.86230 0.68980 0.08500
H 	H 	0.24400 0.78320 0.73800 0.03800
H 	H 	0.19890 0.99410 0.56500 0.03900
H 	H 	0.99640 0.76580 0.80080 0.03900
H 	H 	0.30290 0.74500 0.75280 0.07500
H 	H 	0.32960 0.61570 0.85080 0.06600
H 	H 	0.18400 0.60730 0.88440 0.09100
H 	H 	0.78100 0.69900 0.85900 0.06700
H 	H 	0.89920 0.83890 0.73320 0.08500
H 	H 	0.90760 0.72000 0.86420 0.08200
H 	H 	0.29860 0.48010 0.45920 0.07300
H 	H 	0.17080 0.45640 0.45660 0.08300
H 	H 	0.31400 0.48330 0.32200 0.05900
H 	H 	0.21340 0.40780 0.66260 0.08400
H 	H 	0.12750 0.42590 0.79880 0.08500
H 	H 	0.08210 0.44790 0.68980 0.08400
H 	H 	0.01800 0.47880 0.73800 0.03800
H 	H 	0.23610 0.44090 0.56500 0.03900
H 	H 	0.20280 0.43340 0.80080 0.04000
H 	H 	0.94430 0.50220 0.75280 0.07600
H 	H 	0.81960 0.53350 0.85080 0.06700
H 	H 	0.93160 0.50830 0.88440 0.09200
H 	H 	0.36000 0.44200 0.85900 0.06700
H 	H 	0.36760 0.42790 0.73320 0.08400
H 	H 	0.22820 0.41580 0.86420 0.08000
H 	H 	0.51990 0.75780 0.54080 0.07300
H 	H 	0.54360 0.62740 0.54340 0.08300
H 	H 	0.51670 0.63600 0.67800 0.06200
H 	H 	0.59220 0.87600 0.33740 0.08200
H 	H 	0.57410 0.92630 0.20120 0.07900
H 	H 	0.55210 0.77190 0.31020 0.08300
H 	H 	0.52120 0.75600 0.26200 0.03700
H 	H 	0.55910 0.80110 0.43500 0.03900
H 	H 	0.56660 0.00360 0.19920 0.03700
H 	H 	0.49780 0.69710 0.24720 0.07100
H 	H 	0.46650 0.67040 0.14920 0.05700
H 	H 	0.49170 0.81600 0.11560 0.07700
H 	H 	0.55800 0.21900 0.14100 0.05600
H 	H 	0.57210 0.10080 0.26680 0.08100
H 	H 	0.58420 0.09240 0.13580 0.06900
H 	H 	0.93930 0.70140 0.54080 0.07400
H 	H 	0.91300 0.82920 0.54340 0.08400
H 	H 	0.80530 0.68600 0.67800 0.06200
H 	H 	0.07040 0.78660 0.33740 0.08200
H 	H 	0.22470 0.87250 0.20120 0.07900
H 	H 	0.13770 0.91790 0.31020 0.08300
H 	H 	0.21680 0.98200 0.26200 0.03700
H 	H 	0.00590 0.76390 0.43500 0.03900
H 	H 	0.23420 0.79720 0.19920 0.03600
H 	H 	0.25500 0.05570 0.24720 0.07000
H 	H 	0.38430 0.18040 0.14920 0.05700
H 	H 	0.39270 0.06840 0.11560 0.07600
H 	H 	0.30100 0.64000 0.14100 0.05600
H 	H 	0.16110 0.63240 0.26680 0.08100
H 	H 	0.28000 0.77180 0.13580 0.07000
H 	H 	0.75780 0.93930 0.54080 0.07400
H 	H 	0.62740 0.91300 0.54340 0.08400
H 	H 	0.63600 0.80530 0.67800 0.06200
H 	H 	0.87600 0.07040 0.33740 0.08100
H 	H 	0.92630 0.22470 0.20120 0.07900
H 	H 	0.77190 0.13770 0.31020 0.08200
H 	H 	0.75600 0.21680 0.26200 0.03700
H 	H 	0.80110 0.00590 0.43500 0.03900
H 	H 	0.00360 0.23420 0.19920 0.03700
H 	H 	0.69710 0.25500 0.24720 0.07100
H 	H 	0.67040 0.38430 0.14920 0.05700
H 	H 	0.81600 0.39270 0.11560 0.07700
H 	H 	0.21900 0.30100 0.14100 0.05500
H 	H 	0.10080 0.16110 0.26680 0.08000
H 	H 	0.09240 0.28000 0.13580 0.06900
H 	H 	0.70140 0.51990 0.54080 0.07300
H 	H 	0.82920 0.54360 0.54340 0.08400
H 	H 	0.68600 0.51670 0.67800 0.06200
H 	H 	0.78660 0.59220 0.33740 0.08200
H 	H 	0.87250 0.57410 0.20120 0.07900
H 	H 	0.91790 0.55210 0.31020 0.08300
H 	H 	0.98200 0.52120 0.26200 0.03700
H 	H 	0.76390 0.55910 0.43500 0.03900
H 	H 	0.79720 0.56660 0.19920 0.03600
H 	H 	0.05570 0.49780 0.24720 0.07000
H 	H 	0.18040 0.46650 0.14920 0.05700
H 	H 	0.06840 0.49170 0.11560 0.07600
H 	H 	0.64000 0.55800 0.14100 0.05600
H 	H 	0.63240 0.57210 0.26680 0.08100
H 	H 	0.77180 0.58420 0.13580 0.07000
C 	C 	0.49795 0.27188 0.35460 0.36000
C 	C 	0.48404 0.29957 0.38570 -0.05700
C 	C 	0.47745 0.27631 0.44018 -0.05800
C 	C 	0.46708 0.30374 0.46606 0.08300
C 	C 	0.46354 0.35414 0.43836 -0.05500
C 	C 	0.47055 0.37667 0.38418 -0.05500
C 	C 	0.47984 0.34890 0.35862 0.00700
C 	C 	0.42829 0.18239 0.66942 0.06900
C 	C 	0.41561 0.13101 0.68478 -0.11200
C 	C 	0.41458 0.09008 0.73324 0.06500
C 	C 	0.42645 0.10125 0.76610 -0.11000
C 	C 	0.43885 0.15235 0.75030 0.06600
C 	C 	0.43956 0.19306 0.70088 -0.11400
C 	C 	0.44750 0.16440 0.78500 0.03500
C 	C 	0.46880 0.21040 0.77220 0.00800
C 	C 	0.43935 0.22675 0.57010 0.00500
C 	C 	0.43225 0.22475 0.61710 0.03500
C 	C 	0.41768 0.99618 0.78144 0.01100
C 	C 	0.40477 0.03677 0.74886 0.03400
C 	C 	0.50340 0.23842 0.81780 0.09100
C 	C 	0.50766 0.29083 0.78352 -0.05900
C 	C 	0.52010 0.32516 0.79542 -0.05200
C 	C 	0.52675 0.30663 0.84142 -0.00000
C 	C 	0.52357 0.25400 0.87384 -0.03900
C 	C 	0.51125 0.21996 0.86192 -0.06300
C 	C 	0.52432 0.38103 0.76022 0.34700
C 	C 	0.43685 0.81416 0.84254 0.00200
C 	C 	0.43640 0.83582 0.79192 -0.05100
C 	C 	0.42799 0.88434 0.76774 -0.06100
C 	C 	0.41974 0.91021 0.79558 0.09400
C 	C 	0.42094 0.88925 0.84600 -0.06200
C 	C 	0.42973 0.84136 0.86886 -0.04500
C 	C 	0.44816 0.80916 0.76060 0.35300
C 	C 	0.43459 0.82090 0.91982 0.34100
C 	C 	0.53341 0.23554 0.92204 0.35100
C 	C 	0.46956 0.43189 0.35202 0.35000
C 	C 	0.14745 0.37352 0.35460 0.36000
C 	C 	0.13026 0.31473 0.38570 -0.05700
C 	C 	0.08237 0.28351 0.44018 -0.05800
C 	C 	0.06686 0.23020 0.46606 0.08200
C 	C 	0.09810 0.20750 0.43836 -0.05400
C 	C 	0.14527 0.23915 0.38418 -0.05600
C 	C 	0.16154 0.29248 0.35862 0.00700
C 	C 	0.90229 0.14819 0.66942 0.06900
C 	C 	0.89961 0.18421 0.68478 -0.11100
C 	C 	0.85218 0.17668 0.73324 0.06300
C 	C 	0.80745 0.13265 0.76610 -0.10800
C 	C 	0.81085 0.09735 0.75030 0.06500
C 	C 	0.85956 0.10606 0.70088 -0.11300
C 	C 	0.76750 0.05060 0.78500 0.03700
C 	C 	0.75900 0.01740 0.77220 0.00300
C 	C 	0.99055 0.20315 0.57010 0.00900
C 	C 	0.95065 0.15815 0.61710 0.03500
C 	C 	0.80088 0.22238 0.78144 0.00500
C 	C 	0.84637 0.21437 0.74886 0.04000
C 	C 	0.67880 0.94378 0.81780 0.09200
C 	C 	0.70882 0.92565 0.78352 -0.05900
C 	C 	0.68448 0.87942 0.79542 -0.05100
C 	C 	0.63183 0.85195 0.84142 -0.00100
C 	C 	0.60259 0.87216 0.87384 -0.03900
C 	C 	0.62683 0.91812 0.86192 -0.06400
C 	C 	0.71546 0.85875 0.76022 0.34700
C 	C 	0.72061 0.34330 0.84254 0.00200
C 	C 	0.77168 0.37226 0.79192 -0.05100
C 	C 	0.80427 0.34792 0.76774 -0.06100
C 	C 	0.78468 0.29421 0.79558 0.09400
C 	C 	0.73306 0.26475 0.84600 -0.06200
C 	C 	0.70141 0.28978 0.86886 -0.04500
C 	C 	0.79124 0.43024 0.76060 0.35300
C 	C 	0.64559 0.25928 0.91982 0.34100
C 	C 	0.54455 0.84242 0.92204 0.35000
C 	C 	0.17842 0.21609 0.35202 0.35100
C 	C 	0.27188 0.14745 0.35460 0.36000
C 	C 	0.29957 0.13026 0.38570 -0.05700
C 	C 	0.27631 0.08237 0.44018 -0.05800
C 	C 	0.30374 0.06686 0.46606 0.08200
C 	C 	0.35414 0.09810 0.43836 -0.05400
C 	C 	0.37667 0.14527 0.38418 -0.05600
C 	C 	0.34890 0.16154 0.35862 0.00700
C 	C 	0.18239 0.90229 0.66942 0.07000
C 	C 	0.13101 0.89961 0.68478 -0.11300
C 	C 	0.09008 0.85218 0.73324 0.06500
C 	C 	0.10125 0.80745 0.76610 -0.11000
C 	C 	0.15235 0.81085 0.75030 0.06600
C 	C 	0.19306 0.85956 0.70088 -0.11400
C 	C 	0.16440 0.76750 0.78500 0.03500
C 	C 	0.21040 0.75900 0.77220 0.00800
C 	C 	0.22675 0.99055 0.57010 0.01000
C 	C 	0.22475 0.95065 0.61710 0.03400
C 	C 	0.99618 0.80088 0.78144 0.01200
C 	C 	0.03677 0.84637 0.74886 0.03400
C 	C 	0.23842 0.67880 0.81780 0.09100
C 	C 	0.29083 0.70882 0.78352 -0.05900
C 	C 	0.32516 0.68448 0.79542 -0.05200
C 	C 	0.30663 0.63183 0.84142 0.00000
C 	C 	0.25400 0.60259 0.87384 -0.04000
C 	C 	0.21996 0.62683 0.86192 -0.06300
C 	C 	0.38103 0.71546 0.76022 0.34700
C 	C 	0.81416 0.72061 0.84254 0.00200
C 	C 	0.83582 0.77168 0.79192 -0.05100
C 	C 	0.88434 0.80427 0.76774 -0.06100
C 	C 	0.91021 0.78468 0.79558 0.09500
C 	C 	0.88925 0.73306 0.84600 -0.06200
C 	C 	0.84136 0.70141 0.86886 -0.04400
C 	C 	0.80916 0.79124 0.76060 0.35300
C 	C 	0.82090 0.64559 0.91982 0.34100
C 	C 	0.23554 0.54455 0.92204 0.35200
C 	C 	0.43189 0.17842 0.35202 0.35000
C 	C 	0.37352 0.49795 0.35460 0.36000
C 	C 	0.31473 0.48404 0.38570 -0.05700
C 	C 	0.28351 0.47745 0.44018 -0.05800
C 	C 	0.23020 0.46708 0.46606 0.08300
C 	C 	0.20750 0.46354 0.43836 -0.05400
C 	C 	0.23915 0.47055 0.38418 -0.05500
C 	C 	0.29248 0.47984 0.35862 0.00700
C 	C 	0.14819 0.42829 0.66942 0.06800
C 	C 	0.18421 0.41561 0.68478 -0.11100
C 	C 	0.17668 0.41458 0.73324 0.06200
C 	C 	0.13265 0.42645 0.76610 -0.10800
C 	C 	0.09735 0.43885 0.75030 0.06400
C 	C 	0.10606 0.43956 0.70088 -0.11300
C 	C 	0.05060 0.44750 0.78500 0.03700
C 	C 	0.01740 0.46880 0.77220 0.00300
C 	C 	0.20315 0.43935 0.57010 0.00500
C 	C 	0.15815 0.43225 0.61710 0.03600
C 	C 	0.22238 0.41768 0.78144 0.00500
C 	C 	0.21437 0.40477 0.74886 0.04000
C 	C 	0.94378 0.50340 0.81780 0.09200
C 	C 	0.92565 0.50766 0.78352 -0.05900
C 	C 	0.87942 0.52010 0.79542 -0.05100
C 	C 	0.85195 0.52675 0.84142 -0.00100
C 	C 	0.87216 0.52357 0.87384 -0.03900
C 	C 	0.91812 0.51125 0.86192 -0.06400
C 	C 	0.85875 0.52432 0.76022 0.34700
C 	C 	0.34330 0.43685 0.84254 0.00300
C 	C 	0.37226 0.43640 0.79192 -0.05200
C 	C 	0.34792 0.42799 0.76774 -0.06000
C 	C 	0.29421 0.41974 0.79558 0.09300
C 	C 	0.26475 0.42094 0.84600 -0.06100
C 	C 	0.28978 0.42973 0.86886 -0.04700
C 	C 	0.43024 0.44816 0.76060 0.35300
C 	C 	0.25928 0.43459 0.91982 0.34300
C 	C 	0.84242 0.53341 0.92204 0.35000
C 	C 	0.21609 0.46956 0.35202 0.35000
C 	C 	0.50205 0.72812 0.64540 0.35900
C 	C 	0.51596 0.70043 0.61430 -0.05500
C 	C 	0.52255 0.72369 0.55982 -0.05900
C 	C 	0.53292 0.69626 0.53394 0.08300
C 	C 	0.53646 0.64586 0.56164 -0.05600
C 	C 	0.52945 0.62333 0.61582 -0.05400
C 	C 	0.52016 0.65110 0.64138 0.00500
C 	C 	0.57171 0.81761 0.33058 0.06500
C 	C 	0.58439 0.86899 0.31522 -0.11000
C 	C 	0.58542 0.90992 0.26676 0.05700
C 	C 	0.57355 0.89875 0.23390 -0.10700
C 	C 	0.56115 0.84765 0.24970 0.06000
C 	C 	0.56044 0.80694 0.29912 -0.11300
C 	C 	0.55250 0.83560 0.21500 0.03300
C 	C 	0.53120 0.78960 0.22780 0.00500
C 	C 	0.56065 0.77325 0.42990 0.00400
C 	C 	0.56775 0.77525 0.38290 0.03500
C 	C 	0.58232 0.00382 0.21856 -0.00500
C 	C 	0.59523 0.96323 0.25114 0.04200
C 	C 	0.49660 0.76158 0.18220 0.08100
C 	C 	0.49234 0.70917 0.21648 -0.05500
C 	C 	0.47990 0.67484 0.20458 -0.06100
C 	C 	0.47325 0.69337 0.15858 0.00500
C 	C 	0.47643 0.74600 0.12616 -0.05700
C 	C 	0.48875 0.78004 0.13808 -0.05800
C 	C 	0.47568 0.61897 0.23978 0.34900
C 	C 	0.56315 0.18584 0.15746 0.00800
C 	C 	0.56360 0.16418 0.20808 -0.06200
C 	C 	0.57201 0.11566 0.23226 -0.05700
C 	C 	0.58026 0.08979 0.20442 0.08400
C 	C 	0.57906 0.11075 0.15400 -0.05700
C 	C 	0.57027 0.15864 0.13114 -0.06300
C 	C 	0.55184 0.19084 0.23940 0.35500
C 	C 	0.56541 0.17910 0.08018 0.34700
C 	C 	0.46659 0.76446 0.07796 0.35600
C 	C 	0.53044 0.56811 0.64798 0.34900
C 	C 	0.85255 0.62648 0.64540 0.35900
C 	C 	0.86974 0.68527 0.61430 -0.05500
C 	C 	0.91763 0.71649 0.55982 -0.05900
C 	C 	0.93314 0.76980 0.53394 0.08400
C 	C 	0.90190 0.79250 0.56164 -0.05600
C 	C 	0.85473 0.76085 0.61582 -0.05300
C 	C 	0.83846 0.70752 0.64138 0.00500
C 	C 	0.09771 0.85181 0.33058 0.06500
C 	C 	0.10039 0.81579 0.31522 -0.11100
C 	C 	0.14782 0.82332 0.26676 0.05800
C 	C 	0.19255 0.86735 0.23390 -0.10900
C 	C 	0.18915 0.90265 0.24970 0.06100
C 	C 	0.14044 0.89394 0.29912 -0.11300
C 	C 	0.23250 0.94940 0.21500 0.03200
C 	C 	0.24100 0.98260 0.22780 0.00900
C 	C 	0.00945 0.79685 0.42990 -0.00100
C 	C 	0.04935 0.84185 0.38290 0.03600
C 	C 	0.19912 0.77762 0.21856 0.00200
C 	C 	0.15363 0.78563 0.25114 0.03700
C 	C 	0.32120 0.05622 0.18220 0.08000
C 	C 	0.29118 0.07435 0.21648 -0.05500
C 	C 	0.31552 0.12058 0.20458 -0.06200
C 	C 	0.36817 0.14805 0.15858 0.00500
C 	C 	0.39741 0.12784 0.12616 -0.05700
C 	C 	0.37317 0.08188 0.13808 -0.05700
C 	C 	0.28454 0.14125 0.23978 0.34900
C 	C 	0.27939 0.65670 0.15746 0.00800
C 	C 	0.22832 0.62774 0.20808 -0.06100
C 	C 	0.19573 0.65208 0.23226 -0.05700
C 	C 	0.21532 0.70579 0.20442 0.08400
C 	C 	0.26694 0.73525 0.15400 -0.05700
C 	C 	0.29859 0.71022 0.13114 -0.06300
C 	C 	0.20876 0.56976 0.23940 0.35500
C 	C 	0.35441 0.74072 0.08018 0.34600
C 	C 	0.45545 0.15758 0.07796 0.35600
C 	C 	0.82158 0.78391 0.64798 0.34900
C 	C 	0.72812 0.85255 0.64540 0.35800
C 	C 	0.70043 0.86974 0.61430 -0.05500
C 	C 	0.72369 0.91763 0.55982 -0.05900
C 	C 	0.69626 0.93314 0.53394 0.08400
C 	C 	0.64586 0.90190 0.56164 -0.05600
C 	C 	0.62333 0.85473 0.61582 -0.05300
C 	C 	0.65110 0.83846 0.64138 0.00500
C 	C 	0.81761 0.09771 0.33058 0.06400
C 	C 	0.86899 0.10039 0.31522 -0.10900
C 	C 	0.90992 0.14782 0.26676 0.05600
C 	C 	0.89875 0.19255 0.23390 -0.10700
C 	C 	0.84765 0.18915 0.24970 0.06000
C 	C 	0.80694 0.14044 0.29912 -0.11200
C 	C 	0.83560 0.23250 0.21500 0.03300
C 	C 	0.78960 0.24100 0.22780 0.00400
C 	C 	0.77325 0.00945 0.42990 -0.00100
C 	C 	0.77525 0.04935 0.38290 0.03600
C 	C 	0.00382 0.19912 0.21856 -0.00400
C 	C 	0.96323 0.15363 0.25114 0.04100
C 	C 	0.76158 0.32120 0.18220 0.08100
C 	C 	0.70917 0.29118 0.21648 -0.05500
C 	C 	0.67484 0.31552 0.20458 -0.06100
C 	C 	0.69337 0.36817 0.15858 0.00500
C 	C 	0.74600 0.39741 0.12616 -0.05700
C 	C 	0.78004 0.37317 0.13808 -0.05800
C 	C 	0.61897 0.28454 0.23978 0.34900
C 	C 	0.18584 0.27939 0.15746 0.00900
C 	C 	0.16418 0.22832 0.20808 -0.06200
C 	C 	0.11566 0.19573 0.23226 -0.05600
C 	C 	0.08979 0.21532 0.20442 0.08300
C 	C 	0.11075 0.26694 0.15400 -0.05600
C 	C 	0.15864 0.29859 0.13114 -0.06400
C 	C 	0.19084 0.20876 0.23940 0.35600
C 	C 	0.17910 0.35441 0.08018 0.34900
C 	C 	0.76446 0.45545 0.07796 0.35600
C 	C 	0.56811 0.82158 0.64798 0.34900
C 	C 	0.62648 0.50205 0.64540 0.35900
C 	C 	0.68527 0.51596 0.61430 -0.05500
C 	C 	0.71649 0.52255 0.55982 -0.05900
C 	C 	0.76980 0.53292 0.53394 0.08300
C 	C 	0.79250 0.53646 0.56164 -0.05600
C 	C 	0.76085 0.52945 0.61582 -0.05300
C 	C 	0.70752 0.52016 0.64138 0.00500
C 	C 	0.85181 0.57171 0.33058 0.06600
C 	C 	0.81579 0.58439 0.31522 -0.11100
C 	C 	0.82332 0.58542 0.26676 0.05900
C 	C 	0.86735 0.57355 0.23390 -0.10900
C 	C 	0.90265 0.56115 0.24970 0.06200
C 	C 	0.89394 0.56044 0.29912 -0.11400
C 	C 	0.94940 0.55250 0.21500 0.03200
C 	C 	0.98260 0.53120 0.22780 0.00900
C 	C 	0.79685 0.56065 0.42990 0.00400
C 	C 	0.84185 0.56775 0.38290 0.03500
C 	C 	0.77762 0.58232 0.21856 0.00200
C 	C 	0.78563 0.59523 0.25114 0.03700
C 	C 	0.05622 0.49660 0.18220 0.07900
C 	C 	0.07435 0.49234 0.21648 -0.05500
C 	C 	0.12058 0.47990 0.20458 -0.06200
C 	C 	0.14805 0.47325 0.15858 0.00600
C 	C 	0.12784 0.47643 0.12616 -0.05800
C 	C 	0.08188 0.48875 0.13808 -0.05700
C 	C 	0.14125 0.47568 0.23978 0.34900
C 	C 	0.65670 0.56315 0.15746 0.00800
C 	C 	0.62774 0.56360 0.20808 -0.06100
C 	C 	0.65208 0.57201 0.23226 -0.05700
C 	C 	0.70579 0.58026 0.20442 0.08500
C 	C 	0.73525 0.57906 0.15400 -0.05700
C 	C 	0.71022 0.57027 0.13114 -0.06200
C 	C 	0.56976 0.55184 0.23940 0.35500
C 	C 	0.74072 0.56541 0.08018 0.34600
C 	C 	0.15758 0.46659 0.07796 0.35800
C 	C 	0.78391 0.53044 0.64798 0.34900
N 	N 	0.43910 0.12660 0.83800 -0.06700
N 	N 	0.45460 0.14870 0.85780 -0.03400
N 	N 	0.47370 0.20080 0.81640 -0.08500
N 	N 	0.43230 0.27260 0.60680 -0.07200
N 	N 	0.43916 0.30496 0.55368 -0.04200
N 	N 	0.44365 0.27605 0.53170 -0.08500
N 	N 	0.40300 0.95640 0.77940 -0.08800
N 	N 	0.38220 0.97130 0.74740 -0.03500
N 	N 	0.38333 0.01953 0.72934 -0.07100
N 	N 	0.72290 0.03540 0.83800 -0.06900
N 	N 	0.68760 0.99350 0.85780 -0.03200
N 	N 	0.70990 0.98280 0.81640 -0.08200
N 	N 	0.96090 0.12060 0.60680 -0.07000
N 	N 	0.00716 0.14136 0.55368 -0.04500
N 	N 	0.02465 0.19225 0.53170 -0.08700
N 	N 	0.81760 0.26420 0.77940 -0.08700
N 	N 	0.87040 0.28130 0.74740 -0.03600
N 	N 	0.88733 0.25113 0.72934 -0.06900
N 	N 	0.12660 0.72290 0.83800 -0.06700
N 	N 	0.14870 0.68760 0.85780 -0.03400
N 	N 	0.20080 0.70990 0.81640 -0.08500
N 	N 	0.27260 0.96090 0.60680 -0.07000
N 	N 	0.30496 0.00716 0.55368 -0.04500
N 	N 	0.27605 0.02465 0.53170 -0.08700
N 	N 	0.95640 0.81760 0.77940 -0.08800
N 	N 	0.97130 0.87040 0.74740 -0.03400
N 	N 	0.01953 0.88733 0.72934 -0.07100
N 	N 	0.03540 0.43910 0.83800 -0.06900
N 	N 	0.99350 0.45460 0.85780 -0.03200
N 	N 	0.98280 0.47370 0.81640 -0.08200
N 	N 	0.12060 0.43230 0.60680 -0.07200
N 	N 	0.14136 0.43916 0.55368 -0.04300
N 	N 	0.19225 0.44365 0.53170 -0.08500
N 	N 	0.26420 0.40300 0.77940 -0.08700
N 	N 	0.28130 0.38220 0.74740 -0.03700
N 	N 	0.25113 0.38333 0.72934 -0.07000
N 	N 	0.56090 0.87340 0.16200 -0.07500
N 	N 	0.54540 0.85130 0.14220 -0.04600
N 	N 	0.52630 0.79920 0.18360 -0.08600
N 	N 	0.56770 0.72740 0.39320 -0.07300
N 	N 	0.56084 0.69504 0.44632 -0.04300
N 	N 	0.55635 0.72395 0.46830 -0.08500
N 	N 	0.59700 0.04360 0.22060 -0.08800
N 	N 	0.61780 0.02870 0.25260 -0.04300
N 	N 	0.61667 0.98047 0.27066 -0.07100
N 	N 	0.27710 0.96460 0.16200 -0.07400
N 	N 	0.31240 0.00650 0.14220 -0.04800
N 	N 	0.29010 0.01720 0.18360 -0.08900
N 	N 	0.03910 0.87940 0.39320 -0.07500
N 	N 	0.99284 0.85864 0.44632 -0.04100
N 	N 	0.97535 0.80775 0.46830 -0.08300
N 	N 	0.18240 0.73580 0.22060 -0.08900
N 	N 	0.12960 0.71870 0.25260 -0.04100
N 	N 	0.11267 0.74887 0.27066 -0.07300
N 	N 	0.87340 0.27710 0.16200 -0.07600
N 	N 	0.85130 0.31240 0.14220 -0.04600
N 	N 	0.79920 0.29010 0.18360 -0.08600
N 	N 	0.72740 0.03910 0.39320 -0.07600
N 	N 	0.69504 0.99284 0.44632 -0.04100
N 	N 	0.72395 0.97535 0.46830 -0.08300
N 	N 	0.04360 0.18240 0.22060 -0.08900
N 	N 	0.02870 0.12960 0.25260 -0.04300
N 	N 	0.98047 0.11267 0.27066 -0.07200
N 	N 	0.96460 0.56090 0.16200 -0.07400
N 	N 	0.00650 0.54540 0.14220 -0.04800
N 	N 	0.01720 0.52630 0.18360 -0.08800
N 	N 	0.87940 0.56770 0.39320 -0.07300
N 	N 	0.85864 0.56084 0.44632 -0.04300
N 	N 	0.80775 0.55635 0.46830 -0.08500
N 	N 	0.73580 0.59700 0.22060 -0.08900
N 	N 	0.71870 0.61780 0.25260 -0.04100
N 	N 	0.74887 0.61667 0.27066 -0.07300
O 	O 	0.51068 0.23207 0.37498 -0.40300
O 	O 	0.49527 0.29165 0.31074 -0.41100
O 	O 	0.47515 0.44945 0.30396 -0.40800
O 	O 	0.46320 0.45580 0.37696 -0.39700
O 	O 	0.45260 0.83325 0.71238 -0.40100
O 	O 	0.45401 0.76503 0.78492 -0.39700
O 	O 	0.43162 0.84958 0.93844 -0.37700
O 	O 	0.44255 0.77734 0.93922 -0.37400
O 	O 	0.54213 0.19267 0.93952 -0.37500
O 	O 	0.53195 0.26491 0.93868 -0.38600
O 	O 	0.52388 0.39700 0.71494 -0.39700
O 	O 	0.52763 0.40794 0.77876 -0.39800
O 	O 	0.11434 0.39295 0.37498 -0.40400
O 	O 	0.19399 0.39761 0.31074 -0.41100
O 	O 	0.22089 0.24659 0.30396 -0.40800
O 	O 	0.15984 0.16724 0.37696 -0.39800
O 	O 	0.83502 0.45437 0.71238 -0.40100
O 	O 	0.76107 0.45005 0.78492 -0.39700
O 	O 	0.62994 0.21198 0.93844 -0.37800
O 	O 	0.61823 0.28344 0.93922 -0.37500
O 	O 	0.51835 0.86781 0.93952 -0.37400
O 	O 	0.52937 0.79641 0.93868 -0.38600
O 	O 	0.76118 0.88806 0.71494 -0.39700
O 	O 	0.69361 0.81330 0.77876 -0.39800
O 	O 	0.23207 0.11434 0.37498 -0.40400
O 	O 	0.29165 0.19399 0.31074 -0.41100
O 	O 	0.44945 0.22089 0.30396 -0.40800
O 	O 	0.45580 0.15984 0.37696 -0.39700
O 	O 	0.83325 0.83502 0.71238 -0.40100
O 	O 	0.76503 0.76107 0.78492 -0.39700
O 	O 	0.84958 0.62994 0.93844 -0.37700
O 	O 	0.77734 0.61823 0.93922 -0.37400
O 	O 	0.19267 0.51835 0.93952 -0.38400
O 	O 	0.26491 0.52937 0.93868 -0.38800
O 	O 	0.39700 0.76118 0.71494 -0.39700
O 	O 	0.40794 0.69361 0.77876 -0.39800
O 	O 	0.39295 0.51068 0.37498 -0.40300
O 	O 	0.39761 0.49527 0.31074 -0.41100
O 	O 	0.24659 0.47515 0.30396 -0.40800
O 	O 	0.16724 0.46320 0.37696 -0.39700
O 	O 	0.45437 0.45260 0.71238 -0.40200
O 	O 	0.45005 0.45401 0.78492 -0.39700
O 	O 	0.21198 0.43162 0.93844 -0.38700
O 	O 	0.28344 0.44255 0.93922 -0.37700
O 	O 	0.86781 0.54213 0.93952 -0.37400
O 	O 	0.79641 0.53195 0.93868 -0.38600
O 	O 	0.88806 0.52388 0.71494 -0.39700
O 	O 	0.81330 0.52763 0.77876 -0.39800
O 	O 	0.48932 0.76793 0.62502 -0.40300
O 	O 	0.50473 0.70835 0.68926 -0.40800
O 	O 	0.52485 0.55055 0.69604 -0.40500
O 	O 	0.53680 0.54420 0.62304 -0.39700
O 	O 	0.54740 0.16675 0.28762 -0.40400
O 	O 	0.54599 0.23497 0.21508 -0.40500
O 	O 	0.56838 0.15042 0.06156 -0.41400
O 	O 	0.55745 0.22266 0.06078 -0.41200
O 	O 	0.45787 0.80733 0.06048 -0.41100
O 	O 	0.46805 0.73509 0.06132 -0.42300
O 	O 	0.47612 0.60300 0.28506 -0.39900
O 	O 	0.47237 0.59206 0.22124 -0.40500
O 	O 	0.88566 0.60705 0.62502 -0.40300
O 	O 	0.80601 0.60239 0.68926 -0.40800
O 	O 	0.77911 0.75341 0.69604 -0.40500
O 	O 	0.84016 0.83276 0.62304 -0.39600
O 	O 	0.16498 0.54563 0.28762 -0.40400
O 	O 	0.23893 0.54995 0.21508 -0.40500
O 	O 	0.37006 0.78802 0.06156 -0.41400
O 	O 	0.38177 0.71656 0.06078 -0.41200
O 	O 	0.48165 0.13219 0.06048 -0.41200
O 	O 	0.47063 0.20359 0.06132 -0.42300
O 	O 	0.23882 0.11194 0.28506 -0.40000
O 	O 	0.30639 0.18670 0.22124 -0.40500
O 	O 	0.76793 0.88566 0.62502 -0.40200
O 	O 	0.70835 0.80601 0.68926 -0.40800
O 	O 	0.55055 0.77911 0.69604 -0.40500
O 	O 	0.54420 0.84016 0.62304 -0.39700
O 	O 	0.16675 0.16498 0.28762 -0.40500
O 	O 	0.23497 0.23893 0.21508 -0.40500
O 	O 	0.15042 0.37006 0.06156 -0.42300
O 	O 	0.22266 0.38177 0.06078 -0.41400
O 	O 	0.80733 0.48165 0.06048 -0.41100
O 	O 	0.73509 0.47063 0.06132 -0.42300
O 	O 	0.60300 0.23882 0.28506 -0.40000
O 	O 	0.59206 0.30639 0.22124 -0.40500
O 	O 	0.60705 0.48932 0.62502 -0.40300
O 	O 	0.60239 0.50473 0.68926 -0.40800
O 	O 	0.75341 0.52485 0.69604 -0.40500
O 	O 	0.83276 0.53680 0.62304 -0.39700
O 	O 	0.54563 0.54740 0.28762 -0.40400
O 	O 	0.54995 0.54599 0.21508 -0.40500
O 	O 	0.78802 0.56838 0.06156 -0.41400
O 	O 	0.71656 0.55745 0.06078 -0.41200
O 	O 	0.13219 0.45787 0.06048 -0.42100
O 	O 	0.20359 0.46805 0.06132 -0.42500
O 	O 	0.11194 0.47612 0.28506 -0.40000
O 	O 	0.18670 0.47237 0.22124 -0.40500
