data_crystal

_cell_length_a 16.91000
_cell_length_b 16.91000
_cell_length_c 10.00000
_cell_angle_alpha 90.00000
_cell_angle_beta  90.00000
_cell_angle_gamma 120.00000

_symmetry_space_group_name_	'P 1'
_symmetry_space_group_name_H-M	'P 1'

loop_
_symmetry_equiv_pos_as_xyz
  x,y,z

loop_
_atom_site_label
_atom_site_type_symbol
_atom_site_fract_x
_atom_site_fract_y
_atom_site_fract_z
_atom_site_charge
Au	Au	0.50000 0.00000 0.50000 0.41900
Au	Au	0.00000 0.50000 0.50000 0.41900
Au	Au	0.50000 0.50000 0.50000 0.43600
O 	O 	0.09549 0.46255 0.50000 -0.28300
O 	O 	0.53746 0.63292 0.50000 -0.27400
O 	O 	0.36718 0.90447 0.50000 -0.26400
O 	O 	0.90451 0.53745 0.50000 -0.26200
O 	O 	0.46254 0.36708 0.50000 -0.27800
O 	O 	0.63282 0.09553 0.50000 -0.28100
N 	N 	0.09557 0.63099 0.50000 -0.21100
N 	N 	0.36896 0.46445 0.50000 -0.20900
N 	N 	0.53554 0.90448 0.50000 -0.20300
N 	N 	0.90443 0.36901 0.50000 -0.20300
N 	N 	0.63104 0.53555 0.50000 -0.20900
N 	N 	0.46446 0.09552 0.50000 -0.21100
H 	H 	0.07078 0.67479 0.50000 0.09100
H 	H 	0.32510 0.39587 0.50000 0.09200
H 	H 	0.60413 0.92926 0.50000 0.10300
H 	H 	0.92922 0.32521 0.50000 0.10000
H 	H 	0.67490 0.60413 0.50000 0.09800
H 	H 	0.39587 0.07074 0.50000 0.08800
H 	H 	0.20326 0.80443 0.50000 0.09000
H 	H 	0.19557 0.39878 0.50000 0.08500
H 	H 	0.60125 0.79678 0.50000 0.09400
H 	H 	0.79674 0.19557 0.50000 0.08900
H 	H 	0.80443 0.60122 0.50000 0.09400
H 	H 	0.39875 0.20322 0.50000 0.08500
C 	C 	0.18619 0.51978 0.50000 0.22300
C 	C 	0.48025 0.66640 0.50000 0.22400
C 	C 	0.33364 0.81378 0.50000 0.22300
C 	C 	0.81381 0.48022 0.50000 0.22300
C 	C 	0.51975 0.33360 0.50000 0.22300
C 	C 	0.66636 0.18622 0.50000 0.22400
C 	C 	0.51805 0.18756 0.50000 0.16400
C 	C 	0.81240 0.33052 0.50000 0.16800
C 	C 	0.66947 0.48193 0.50000 0.16700
C 	C 	0.48195 0.81244 0.50000 0.16900
C 	C 	0.18760 0.66948 0.50000 0.16500
C 	C 	0.33053 0.51807 0.50000 0.16500
C 	C 	0.33337 0.66665 0.50000 0.14100
C 	C 	0.66663 0.33335 0.50000 0.14100
C 	C 	0.23858 0.76535 0.50000 -0.18600
C 	C 	0.23465 0.47319 0.50000 -0.18800
C 	C 	0.52684 0.76145 0.50000 -0.18600
C 	C 	0.76142 0.23465 0.50000 -0.18800
C 	C 	0.76535 0.52681 0.50000 -0.18500
C 	C 	0.47316 0.23855 0.50000 -0.18800
C 	C 	0.38205 0.61645 0.50000 -0.16600
C 	C 	0.38356 0.76552 0.50000 -0.16400
C 	C 	0.23449 0.61797 0.50000 -0.16700
C 	C 	0.61795 0.38355 0.50000 -0.16600
C 	C 	0.61644 0.23448 0.50000 -0.16700
C 	C 	0.76551 0.38203 0.50000 -0.16400
