data_crystal

_cell_length_a 10.43850
_cell_length_b 27.18400
_cell_length_c 9.34820
_cell_angle_alpha 90.00000
_cell_angle_beta  90.00000
_cell_angle_gamma 90.00000

_symmetry_space_group_name_	'P 1'
_symmetry_space_group_name_H-M	'P 1'

loop_
_symmetry_equiv_pos_as_xyz
  x,y,z

loop_
_atom_site_label
_atom_site_type_symbol
_atom_site_fract_x
_atom_site_fract_y
_atom_site_fract_z
_atom_site_charge
C 	C 	0.50030 0.07810 0.07560 0.57600
C 	C 	0.47200 0.13030 0.12420 -0.28400
C 	C 	0.57190 0.16340 0.15600 0.16300
H 	H 	0.65690 0.15430 0.14280 -0.04700
C 	C 	0.34700 0.14560 0.14130 0.13400
H 	H 	0.28040 0.12420 0.11880 -0.04200
C 	C 	0.31900 0.19280 0.19200 -0.20800
H 	H 	0.23460 0.20280 0.20470 0.07100
C 	C 	0.42080 0.22460 0.22320 0.08300
C 	C 	0.54150 0.20930 0.20800 -0.25900
C 	C 	0.71400 0.26470 0.11800 -1.05400
H 	H 	0.75250 0.23590 0.07610 0.33000
H 	H 	0.78000 0.28750 0.14460 0.32100
H 	H 	0.65820 0.27990 0.04910 0.32600
O 	O 	0.61320 0.06690 0.06640 -0.58400
O 	O 	0.41250 0.05180 0.04520 -0.61900
C 	C 	0.99970 0.92190 0.07560 0.54200
C 	C 	0.02800 0.86970 0.12420 -0.24300
C 	C 	0.92810 0.83660 0.15600 0.14200
H 	H 	0.84310 0.84570 0.14280 -0.03500
C 	C 	0.15300 0.85440 0.14130 0.11500
H 	H 	0.21960 0.87580 0.11880 -0.02600
C 	C 	0.18100 0.80720 0.19200 -0.19200
H 	H 	0.26540 0.79720 0.20470 0.06700
C 	C 	0.07920 0.77540 0.22320 0.07900
C 	C 	0.95850 0.79070 0.20800 -0.25200
C 	C 	0.78600 0.73530 0.11800 -1.06100
H 	H 	0.74750 0.76410 0.07610 0.33200
H 	H 	0.72000 0.71250 0.14460 0.32300
H 	H 	0.84180 0.72010 0.04910 0.32600
O 	O 	0.88680 0.93310 0.06640 -0.53200
O 	O 	0.08750 0.94820 0.04520 -0.54900
C 	C 	0.99970 0.57810 0.42440 0.59300
C 	C 	0.02800 0.63030 0.37580 -0.29100
C 	C 	0.92810 0.66340 0.34400 0.17000
H 	H 	0.84310 0.65430 0.35720 -0.04900
C 	C 	0.15300 0.64560 0.35870 0.14400
H 	H 	0.21960 0.62420 0.38120 -0.04700
C 	C 	0.18100 0.69280 0.30800 -0.21800
H 	H 	0.26540 0.70280 0.29530 0.07400
C 	C 	0.07920 0.72460 0.27680 0.09700
C 	C 	0.95850 0.70930 0.29200 -0.27000
C 	C 	0.78600 0.76470 0.38200 -1.07000
H 	H 	0.74750 0.73590 0.42390 0.33600
H 	H 	0.72000 0.78750 0.35540 0.33000
H 	H 	0.84180 0.77990 0.45090 0.33400
O 	O 	0.88680 0.56690 0.43360 -0.59800
O 	O 	0.08750 0.55180 0.45480 -0.63300
C 	C 	0.50030 0.42190 0.42440 0.59600
C 	C 	0.47200 0.36970 0.37580 -0.29300
C 	C 	0.57190 0.33660 0.34400 0.17100
H 	H 	0.65690 0.34570 0.35720 -0.04900
C 	C 	0.34700 0.35440 0.35870 0.14300
H 	H 	0.28040 0.37580 0.38120 -0.04700
C 	C 	0.31900 0.30720 0.30800 -0.21500
H 	H 	0.23460 0.29720 0.29530 0.07300
C 	C 	0.42080 0.27540 0.27680 0.08800
C 	C 	0.54150 0.29070 0.29200 -0.26200
C 	C 	0.71400 0.23530 0.38200 -1.05500
H 	H 	0.75250 0.26410 0.42390 0.33000
H 	H 	0.78000 0.21250 0.35540 0.32100
H 	H 	0.65820 0.22010 0.45090 0.32500
O 	O 	0.61320 0.43310 0.43360 -0.59900
O 	O 	0.41250 0.44820 0.45480 -0.63400
C 	C 	0.49970 0.92190 0.92440 0.56200
C 	C 	0.52800 0.86970 0.87580 -0.26300
C 	C 	0.42810 0.83660 0.84400 0.15700
H 	H 	0.34310 0.84570 0.85720 -0.04000
C 	C 	0.65300 0.85440 0.85870 0.12600
H 	H 	0.71960 0.87580 0.88120 -0.03000
C 	C 	0.68100 0.80720 0.80800 -0.19800
H 	H 	0.76540 0.79720 0.79530 0.07000
C 	C 	0.57920 0.77540 0.77680 0.07900
C 	C 	0.45850 0.79070 0.79200 -0.25300
C 	C 	0.28600 0.73530 0.88200 -1.06000
H 	H 	0.24750 0.76410 0.92390 0.33200
H 	H 	0.22000 0.71250 0.85540 0.32300
H 	H 	0.34180 0.72010 0.95090 0.32700
O 	O 	0.38680 0.93310 0.93360 -0.53600
O 	O 	0.58750 0.94820 0.95480 -0.55900
C 	C 	0.00030 0.07810 0.92440 0.55100
C 	C 	0.97200 0.13030 0.87580 -0.25800
C 	C 	0.07190 0.16340 0.84400 0.14400
H 	H 	0.15690 0.15430 0.85720 -0.04100
C 	C 	0.84700 0.14560 0.85870 0.12100
H 	H 	0.78040 0.12420 0.88120 -0.03800
C 	C 	0.81900 0.19280 0.80800 -0.20100
H 	H 	0.73460 0.20280 0.79530 0.06800
C 	C 	0.92080 0.22460 0.77680 0.08400
C 	C 	0.04150 0.20930 0.79200 -0.25800
C 	C 	0.21400 0.26470 0.88200 -1.05300
H 	H 	0.25250 0.23590 0.92390 0.32900
H 	H 	0.28000 0.28750 0.85540 0.32100
H 	H 	0.15820 0.27990 0.95090 0.32400
O 	O 	0.11320 0.06690 0.93360 -0.57800
O 	O 	0.91250 0.05180 0.95480 -0.60700
C 	C 	0.00030 0.42190 0.57560 0.58800
C 	C 	0.97200 0.36970 0.62420 -0.28400
C 	C 	0.07190 0.33660 0.65600 0.16400
H 	H 	0.15690 0.34570 0.64280 -0.04700
C 	C 	0.84700 0.35440 0.64130 0.14000
H 	H 	0.78040 0.37580 0.61880 -0.04600
C 	C 	0.81900 0.30720 0.69200 -0.21400
H 	H 	0.73460 0.29720 0.70470 0.07300
C 	C 	0.92080 0.27540 0.72320 0.09400
C 	C 	0.04150 0.29070 0.70800 -0.26600
C 	C 	0.21400 0.23530 0.61800 -1.05300
H 	H 	0.25250 0.26410 0.57610 0.33000
H 	H 	0.28000 0.21250 0.64460 0.32000
H 	H 	0.15820 0.22010 0.54910 0.32500
O 	O 	0.11320 0.43310 0.56640 -0.59700
O 	O 	0.91250 0.44820 0.54520 -0.63100
C 	C 	0.49970 0.57810 0.57560 0.59700
C 	C 	0.52800 0.63030 0.62420 -0.29500
C 	C 	0.42810 0.66340 0.65600 0.17300
H 	H 	0.34310 0.65430 0.64280 -0.05000
C 	C 	0.65300 0.64560 0.64130 0.14500
H 	H 	0.71960 0.62420 0.61880 -0.04800
C 	C 	0.68100 0.69280 0.69200 -0.21700
H 	H 	0.76540 0.70280 0.70470 0.07400
C 	C 	0.57920 0.72460 0.72320 0.09200
C 	C 	0.45850 0.70930 0.70800 -0.26500
C 	C 	0.28600 0.76470 0.61800 -1.06900
H 	H 	0.24750 0.73590 0.57610 0.33500
H 	H 	0.22000 0.78750 0.64460 0.33000
H 	H 	0.34180 0.77990 0.54910 0.33400
O 	O 	0.38680 0.56690 0.56640 -0.59900
O 	O 	0.58750 0.55180 0.54520 -0.63500
Eu	Eu	0.75000 -0.00000 0.02597 1.47500
Eu	Eu	0.75000 0.50000 0.47403 1.64500
Eu	Eu	0.25000 0.00000 0.97403 1.47300
Eu	Eu	0.25000 0.50000 0.52597 1.64400
C 	C 	0.63900 0.25000 0.25000 0.56800
C 	C 	0.86100 0.75000 0.25000 0.57400
C 	C 	0.36100 0.75000 0.75000 0.57300
C 	C 	0.13900 0.25000 0.75000 0.56700
