data_crystal

_cell_length_a 28.06140
_cell_length_b 30.09420
_cell_length_c 30.09470
_cell_angle_alpha 90.00000
_cell_angle_beta  90.00000
_cell_angle_gamma 90.00000

_symmetry_space_group_name_	'P 1'
_symmetry_space_group_name_H-M	'P 1'

loop_
_symmetry_equiv_pos_as_xyz
  x,y,z

loop_
_atom_site_label
_atom_site_type_symbol
_atom_site_fract_x
_atom_site_fract_y
_atom_site_fract_z
_atom_site_charge
O 	O 	0.97800 0.93570 0.20990 -0.15300
O 	O 	0.93660 0.97680 0.21370 0.15900
C 	C 	0.98270 0.91600 0.24860 0.28900
C 	C 	0.97680 0.86880 0.25100 -0.01800
C 	C 	0.91660 0.98430 0.25240 0.02400
C 	C 	0.86490 0.97920 0.25110 -0.01100
C 	C 	0.96640 0.77060 0.25120 0.04200
C 	C 	0.94730 0.80150 0.21710 0.06000
C 	C 	0.84700 0.95600 0.21440 0.03800
O 	O 	0.89900 0.74440 0.18540 -0.09800
O 	O 	0.93650 0.80490 0.15290 -0.08800
N 	N 	0.91610 0.78470 0.17930 0.00000
C 	C 	0.80200 0.95130 0.21560 0.00700
C 	C 	0.77870 0.96930 0.25200 0.00200
C 	C 	0.95040 0.84780 0.21480 0.06200
O 	O 	0.97800 0.43570 0.70990 -0.15200
O 	O 	0.93660 0.47680 0.71370 0.15800
C 	C 	0.98270 0.41600 0.74860 0.29100
C 	C 	0.97680 0.36880 0.75100 -0.01900
C 	C 	0.91660 0.48430 0.75240 0.04900
C 	C 	0.86490 0.47920 0.75110 -0.01100
C 	C 	0.96640 0.27060 0.75120 0.04200
C 	C 	0.94730 0.30150 0.71710 0.05900
C 	C 	0.84700 0.45600 0.71440 0.03900
O 	O 	0.89900 0.24440 0.68540 -0.09900
O 	O 	0.93650 0.30490 0.65290 -0.08800
N 	N 	0.91610 0.28470 0.67930 -0.00100
C 	C 	0.80200 0.45130 0.71560 0.00600
C 	C 	0.77870 0.46930 0.75200 0.00700
C 	C 	0.95040 0.34780 0.71480 0.06200
O 	O 	0.47800 0.93570 0.70990 -0.15400
O 	O 	0.43660 0.97680 0.71370 0.16300
C 	C 	0.48270 0.91600 0.74860 0.15700
C 	C 	0.47680 0.86880 0.75100 -0.03800
C 	C 	0.41660 0.98430 0.75240 0.02600
C 	C 	0.36490 0.97920 0.75110 -0.01100
C 	C 	0.46640 0.77060 0.75120 0.01300
C 	C 	0.44730 0.80150 0.71710 0.05200
C 	C 	0.34700 0.95600 0.71440 0.03500
O 	O 	0.39900 0.74440 0.68540 -0.10500
O 	O 	0.43650 0.80490 0.65290 -0.10200
N 	N 	0.41610 0.78470 0.67930 0.00000
C 	C 	0.30200 0.95130 0.71560 0.00600
C 	C 	0.27870 0.96930 0.75200 0.00100
C 	C 	0.45040 0.84780 0.71480 0.05500
O 	O 	0.47800 0.43570 0.20990 -0.15300
O 	O 	0.43660 0.47680 0.21370 0.16200
C 	C 	0.48270 0.41600 0.24860 0.15600
C 	C 	0.47680 0.36880 0.25100 -0.03800
C 	C 	0.41660 0.48430 0.25240 0.04800
C 	C 	0.36490 0.47920 0.25110 -0.01000
C 	C 	0.46640 0.27060 0.25120 0.01300
C 	C 	0.44730 0.30150 0.21710 0.05200
C 	C 	0.34700 0.45600 0.21440 0.03700
O 	O 	0.39900 0.24440 0.18540 -0.10500
O 	O 	0.43650 0.30490 0.15290 -0.10300
N 	N 	0.41610 0.28470 0.17930 0.00100
C 	C 	0.30200 0.45130 0.21560 0.00500
C 	C 	0.27870 0.46930 0.25200 0.00700
C 	C 	0.45040 0.34780 0.21480 0.05500
O 	O 	0.02200 0.06430 0.20990 -0.15300
O 	O 	0.06340 0.02320 0.21370 0.16000
C 	C 	0.01730 0.08400 0.24860 0.03900
C 	C 	0.02320 0.13120 0.25100 -0.03300
C 	C 	0.08340 0.01570 0.25240 0.06800
C 	C 	0.13510 0.02080 0.25110 -0.01200
C 	C 	0.03360 0.22940 0.25120 0.00400
C 	C 	0.05270 0.19850 0.21710 0.04900
C 	C 	0.15300 0.04400 0.21440 0.03900
O 	O 	0.10100 0.25560 0.18540 -0.10600
O 	O 	0.06350 0.19510 0.15290 -0.11200
N 	N 	0.08390 0.21530 0.17930 0.00200
C 	C 	0.19800 0.04870 0.21560 0.00500
C 	C 	0.22130 0.03070 0.25200 0.00800
C 	C 	0.04960 0.15220 0.21480 0.04600
O 	O 	0.02200 0.56430 0.70990 -0.15300
O 	O 	0.06340 0.52320 0.71370 0.16200
C 	C 	0.01730 0.58400 0.74860 0.04100
C 	C 	0.02320 0.63120 0.75100 -0.03300
C 	C 	0.08340 0.51570 0.75240 0.05000
C 	C 	0.13510 0.52080 0.75110 -0.01000
C 	C 	0.03360 0.72940 0.75120 0.00400
C 	C 	0.05270 0.69850 0.71710 0.04900
C 	C 	0.15300 0.54400 0.71440 0.03800
O 	O 	0.10100 0.75560 0.68540 -0.10600
O 	O 	0.06350 0.69510 0.65290 -0.11200
N 	N 	0.08390 0.71530 0.67930 0.00200
C 	C 	0.19800 0.54870 0.71560 0.00500
C 	C 	0.22130 0.53070 0.75200 0.00700
C 	C 	0.04960 0.65220 0.71480 0.04600
O 	O 	0.52200 0.06430 0.70990 -0.15300
O 	O 	0.56340 0.02320 0.71370 0.15900
C 	C 	0.51730 0.08400 0.74860 0.15600
C 	C 	0.52320 0.13120 0.75100 -0.03800
C 	C 	0.58340 0.01570 0.75240 0.06900
C 	C 	0.63510 0.02080 0.75110 -0.01200
C 	C 	0.53360 0.22940 0.75120 0.01300
C 	C 	0.55270 0.19850 0.71710 0.05200
C 	C 	0.65300 0.04400 0.71440 0.03900
O 	O 	0.60100 0.25560 0.68540 -0.10500
O 	O 	0.56350 0.19510 0.65290 -0.10200
N 	N 	0.58390 0.21530 0.67930 0.00000
C 	C 	0.69800 0.04870 0.71560 0.00600
C 	C 	0.72130 0.03070 0.75200 0.00700
C 	C 	0.54960 0.15220 0.71480 0.05500
O 	O 	0.52200 0.56430 0.20990 -0.15300
O 	O 	0.56340 0.52320 0.21370 0.16200
C 	C 	0.51730 0.58400 0.24860 0.15600
C 	C 	0.52320 0.63120 0.25100 -0.03800
C 	C 	0.58340 0.51570 0.25240 0.04800
C 	C 	0.63510 0.52080 0.25110 -0.01000
C 	C 	0.53360 0.72940 0.25120 0.01300
C 	C 	0.55270 0.69850 0.21710 0.05200
C 	C 	0.65300 0.54400 0.21440 0.03600
O 	O 	0.60100 0.75560 0.18540 -0.10500
O 	O 	0.56350 0.69510 0.15290 -0.10300
N 	N 	0.58390 0.71530 0.17930 0.00100
C 	C 	0.69800 0.54870 0.21560 0.00500
C 	C 	0.72130 0.53070 0.25200 0.00700
C 	C 	0.54960 0.65220 0.21480 0.05400
O 	O 	0.02200 0.93570 0.79010 -0.15300
O 	O 	0.06340 0.97680 0.78630 0.16300
C 	C 	0.01730 0.91600 0.75140 0.04400
C 	C 	0.02320 0.86880 0.74900 -0.03400
C 	C 	0.08340 0.98430 0.74760 0.03100
C 	C 	0.13510 0.97920 0.74890 -0.01100
C 	C 	0.03360 0.77060 0.74880 0.00400
C 	C 	0.05270 0.80150 0.78290 0.04900
C 	C 	0.15300 0.95600 0.78560 0.03700
O 	O 	0.10100 0.74440 0.81460 -0.10500
O 	O 	0.06350 0.80490 0.84710 -0.11100
N 	N 	0.08390 0.78470 0.82070 0.00200
C 	C 	0.19800 0.95130 0.78440 0.00500
C 	C 	0.22130 0.96930 0.74800 0.00200
C 	C 	0.04960 0.84780 0.78520 0.04700
O 	O 	0.02200 0.43570 0.29010 -0.15300
O 	O 	0.06340 0.47680 0.28630 0.16200
C 	C 	0.01730 0.41600 0.25140 0.04000
C 	C 	0.02320 0.36880 0.24900 -0.03300
C 	C 	0.08340 0.48430 0.24760 0.05000
C 	C 	0.13510 0.47920 0.24890 -0.01000
C 	C 	0.03360 0.27060 0.24880 0.00400
C 	C 	0.05270 0.30150 0.28290 0.04900
C 	C 	0.15300 0.45600 0.28560 0.03800
O 	O 	0.10100 0.24440 0.31460 -0.10500
O 	O 	0.06350 0.30490 0.34710 -0.11200
N 	N 	0.08390 0.28470 0.32070 0.00200
C 	C 	0.19800 0.45130 0.28440 0.00500
C 	C 	0.22130 0.46930 0.24800 0.00700
C 	C 	0.04960 0.34780 0.28520 0.04600
O 	O 	0.52200 0.93570 0.29010 -0.15400
O 	O 	0.56340 0.97680 0.28630 0.16300
C 	C 	0.51730 0.91600 0.25140 0.15700
C 	C 	0.52320 0.86880 0.24900 -0.03800
C 	C 	0.58340 0.98430 0.24760 0.02500
C 	C 	0.63510 0.97920 0.24890 -0.01200
C 	C 	0.53360 0.77060 0.24880 0.01400
C 	C 	0.55270 0.80150 0.28290 0.05200
C 	C 	0.65300 0.95600 0.28560 0.03500
O 	O 	0.60100 0.74440 0.31460 -0.10500
O 	O 	0.56350 0.80490 0.34710 -0.10200
N 	N 	0.58390 0.78470 0.32070 0.00000
C 	C 	0.69800 0.95130 0.28440 0.00600
C 	C 	0.72130 0.96930 0.24800 0.00000
C 	C 	0.54960 0.84780 0.28520 0.05500
O 	O 	0.52200 0.43570 0.79010 -0.15300
O 	O 	0.56340 0.47680 0.78630 0.16300
C 	C 	0.51730 0.41600 0.75140 0.15600
C 	C 	0.52320 0.36880 0.74900 -0.03800
C 	C 	0.58340 0.48430 0.74760 0.04800
C 	C 	0.63510 0.47920 0.74890 -0.01000
C 	C 	0.53360 0.27060 0.74880 0.01300
C 	C 	0.55270 0.30150 0.78290 0.05200
C 	C 	0.65300 0.45600 0.78560 0.03700
O 	O 	0.60100 0.24440 0.81460 -0.10500
O 	O 	0.56350 0.30490 0.84710 -0.10200
N 	N 	0.58390 0.28470 0.82070 0.00000
C 	C 	0.69800 0.45130 0.78440 0.00600
C 	C 	0.72130 0.46930 0.74800 0.00600
C 	C 	0.54960 0.34780 0.78520 0.05500
O 	O 	0.97800 0.06430 0.79010 -0.15200
O 	O 	0.93660 0.02320 0.78630 0.15500
C 	C 	0.98270 0.08400 0.75140 0.29100
C 	C 	0.97680 0.13120 0.74900 -0.01900
C 	C 	0.91660 0.01570 0.74760 0.07200
C 	C 	0.86490 0.02080 0.74890 -0.01400
C 	C 	0.96640 0.22940 0.74880 0.04200
C 	C 	0.94730 0.19850 0.78290 0.05900
C 	C 	0.84700 0.04400 0.78560 0.04200
O 	O 	0.89900 0.25560 0.81460 -0.09800
O 	O 	0.93650 0.19510 0.84710 -0.08800
N 	N 	0.91610 0.21530 0.82070 -0.00100
C 	C 	0.80200 0.04870 0.78440 0.00600
C 	C 	0.77870 0.03070 0.74800 0.00800
C 	C 	0.95040 0.15220 0.78520 0.06200
O 	O 	0.97800 0.56430 0.29010 -0.15200
O 	O 	0.93660 0.52320 0.28630 0.15800
C 	C 	0.98270 0.58400 0.25140 0.29000
C 	C 	0.97680 0.63120 0.24900 -0.02000
C 	C 	0.91660 0.51570 0.24760 0.04900
C 	C 	0.86490 0.52080 0.24890 -0.01100
C 	C 	0.96640 0.72940 0.24880 0.04100
C 	C 	0.94730 0.69850 0.28290 0.05900
C 	C 	0.84700 0.54400 0.28560 0.03900
O 	O 	0.89900 0.75560 0.31460 -0.09900
O 	O 	0.93650 0.69510 0.34710 -0.08800
N 	N 	0.91610 0.71530 0.32070 -0.00100
C 	C 	0.80200 0.54870 0.28440 0.00600
C 	C 	0.77870 0.53070 0.24800 0.00700
C 	C 	0.95040 0.65220 0.28520 0.06200
O 	O 	0.47800 0.06430 0.29010 -0.15300
O 	O 	0.43660 0.02320 0.28630 0.15900
C 	C 	0.48270 0.08400 0.25140 0.15600
C 	C 	0.47680 0.13120 0.24900 -0.03800
C 	C 	0.41660 0.01570 0.24760 0.06800
C 	C 	0.36490 0.02080 0.24890 -0.01200
C 	C 	0.46640 0.22940 0.24880 0.01300
C 	C 	0.44730 0.19850 0.28290 0.05200
C 	C 	0.34700 0.04400 0.28560 0.03900
O 	O 	0.39900 0.25560 0.31460 -0.10500
O 	O 	0.43650 0.19510 0.34710 -0.10200
N 	N 	0.41610 0.21530 0.32070 0.00000
C 	C 	0.30200 0.04870 0.28440 0.00600
C 	C 	0.27870 0.03070 0.24800 0.00700
C 	C 	0.45040 0.15220 0.28520 0.05500
O 	O 	0.47800 0.56430 0.79010 -0.15300
O 	O 	0.43660 0.52320 0.78630 0.16300
C 	C 	0.48270 0.58400 0.75140 0.15600
C 	C 	0.47680 0.63120 0.74900 -0.03800
C 	C 	0.41660 0.51570 0.74760 0.04800
C 	C 	0.36490 0.52080 0.74890 -0.01000
C 	C 	0.46640 0.72940 0.74880 0.01300
C 	C 	0.44730 0.69850 0.78290 0.05200
C 	C 	0.34700 0.54400 0.78560 0.03700
O 	O 	0.39900 0.75560 0.81460 -0.10500
O 	O 	0.43650 0.69510 0.84710 -0.10200
N 	N 	0.41610 0.71530 0.82070 0.00000
C 	C 	0.30200 0.54870 0.78440 0.00600
C 	C 	0.27870 0.53070 0.74800 0.00600
C 	C 	0.45040 0.65220 0.78520 0.05500
O 	O 	0.02200 0.06430 0.79010 -0.15200
O 	O 	0.06340 0.02320 0.78630 0.16000
C 	C 	0.01730 0.08400 0.75140 0.03900
C 	C 	0.02320 0.13120 0.74900 -0.03300
C 	C 	0.08340 0.01570 0.74760 0.06800
C 	C 	0.13510 0.02080 0.74890 -0.01200
C 	C 	0.03360 0.22940 0.74880 0.00400
C 	C 	0.05270 0.19850 0.78290 0.04900
C 	C 	0.15300 0.04400 0.78560 0.04000
O 	O 	0.10100 0.25560 0.81460 -0.10500
O 	O 	0.06350 0.19510 0.84710 -0.11200
N 	N 	0.08390 0.21530 0.82070 0.00200
C 	C 	0.19800 0.04870 0.78440 0.00600
C 	C 	0.22130 0.03070 0.74800 0.00800
C 	C 	0.04960 0.15220 0.78520 0.04600
O 	O 	0.02200 0.56430 0.29010 -0.15300
O 	O 	0.06340 0.52320 0.28630 0.16200
C 	C 	0.01730 0.58400 0.25140 0.04100
C 	C 	0.02320 0.63120 0.24900 -0.03300
C 	C 	0.08340 0.51570 0.24760 0.05000
C 	C 	0.13510 0.52080 0.24890 -0.01000
C 	C 	0.03360 0.72940 0.24880 0.00400
C 	C 	0.05270 0.69850 0.28290 0.04900
C 	C 	0.15300 0.54400 0.28560 0.03800
O 	O 	0.10100 0.75560 0.31460 -0.10500
O 	O 	0.06350 0.69510 0.34710 -0.11200
N 	N 	0.08390 0.71530 0.32070 0.00200
C 	C 	0.19800 0.54870 0.28440 0.00500
C 	C 	0.22130 0.53070 0.24800 0.00700
C 	C 	0.04960 0.65220 0.28520 0.04600
O 	O 	0.52200 0.06430 0.29010 -0.15300
O 	O 	0.56340 0.02320 0.28630 0.15900
C 	C 	0.51730 0.08400 0.25140 0.15600
C 	C 	0.52320 0.13120 0.24900 -0.03800
C 	C 	0.58340 0.01570 0.24760 0.06900
C 	C 	0.63510 0.02080 0.24890 -0.01200
C 	C 	0.53360 0.22940 0.24880 0.01300
C 	C 	0.55270 0.19850 0.28290 0.05200
C 	C 	0.65300 0.04400 0.28560 0.03900
O 	O 	0.60100 0.25560 0.31460 -0.10500
O 	O 	0.56350 0.19510 0.34710 -0.10200
N 	N 	0.58390 0.21530 0.32070 0.00000
C 	C 	0.69800 0.04870 0.28440 0.00600
C 	C 	0.72130 0.03070 0.24800 0.00700
C 	C 	0.54960 0.15220 0.28520 0.05500
O 	O 	0.52200 0.56430 0.79010 -0.15300
O 	O 	0.56340 0.52320 0.78630 0.16300
C 	C 	0.51730 0.58400 0.75140 0.15600
C 	C 	0.52320 0.63120 0.74900 -0.03800
C 	C 	0.58340 0.51570 0.74760 0.04800
C 	C 	0.63510 0.52080 0.74890 -0.01000
C 	C 	0.53360 0.72940 0.74880 0.01300
C 	C 	0.55270 0.69850 0.78290 0.05200
C 	C 	0.65300 0.54400 0.78560 0.03700
O 	O 	0.60100 0.75560 0.81460 -0.10500
O 	O 	0.56350 0.69510 0.84710 -0.10200
N 	N 	0.58390 0.71530 0.82070 0.00000
C 	C 	0.69800 0.54870 0.78440 0.00600
C 	C 	0.72130 0.53070 0.74800 0.00600
C 	C 	0.54960 0.65220 0.78520 0.05500
O 	O 	0.97800 0.93570 0.79010 -0.15300
O 	O 	0.93660 0.97680 0.78630 0.15800
C 	C 	0.98270 0.91600 0.75140 0.28800
C 	C 	0.97680 0.86880 0.74900 -0.01900
C 	C 	0.91660 0.98430 0.74760 0.02300
C 	C 	0.86490 0.97920 0.74890 -0.01200
C 	C 	0.96640 0.77060 0.74880 0.04100
C 	C 	0.94730 0.80150 0.78290 0.05900
C 	C 	0.84700 0.95600 0.78560 0.03800
O 	O 	0.89900 0.74440 0.81460 -0.09900
O 	O 	0.93650 0.80490 0.84710 -0.08900
N 	N 	0.91610 0.78470 0.82070 -0.00100
C 	C 	0.80200 0.95130 0.78440 0.00600
C 	C 	0.77870 0.96930 0.74800 0.00100
C 	C 	0.95040 0.84780 0.78520 0.06200
O 	O 	0.97800 0.43570 0.29010 -0.15200
O 	O 	0.93660 0.47680 0.28630 0.15800
C 	C 	0.98270 0.41600 0.25140 0.29100
C 	C 	0.97680 0.36880 0.24900 -0.01900
C 	C 	0.91660 0.48430 0.24760 0.04900
C 	C 	0.86490 0.47920 0.24890 -0.01100
C 	C 	0.96640 0.27060 0.24880 0.04200
C 	C 	0.94730 0.30150 0.28290 0.05900
C 	C 	0.84700 0.45600 0.28560 0.03900
O 	O 	0.89900 0.24440 0.31460 -0.09900
O 	O 	0.93650 0.30490 0.34710 -0.08800
N 	N 	0.91610 0.28470 0.32070 -0.00100
C 	C 	0.80200 0.45130 0.28440 0.00600
C 	C 	0.77870 0.46930 0.24800 0.00700
C 	C 	0.95040 0.34780 0.28520 0.06200
O 	O 	0.47800 0.93570 0.29010 -0.15400
O 	O 	0.43660 0.97680 0.28630 0.16300
C 	C 	0.48270 0.91600 0.25140 0.15700
C 	C 	0.47680 0.86880 0.24900 -0.03800
C 	C 	0.41660 0.98430 0.24760 0.02600
C 	C 	0.36490 0.97920 0.24890 -0.01100
C 	C 	0.46640 0.77060 0.24880 0.01400
C 	C 	0.44730 0.80150 0.28290 0.05200
C 	C 	0.34700 0.95600 0.28560 0.03500
O 	O 	0.39900 0.74440 0.31460 -0.10500
O 	O 	0.43650 0.80490 0.34710 -0.10200
N 	N 	0.41610 0.78470 0.32070 0.00000
C 	C 	0.30200 0.95130 0.28440 0.00600
C 	C 	0.27870 0.96930 0.24800 0.00100
C 	C 	0.45040 0.84780 0.28520 0.05500
O 	O 	0.47800 0.43570 0.79010 -0.15300
O 	O 	0.43660 0.47680 0.78630 0.16300
C 	C 	0.48270 0.41600 0.75140 0.15600
C 	C 	0.47680 0.36880 0.74900 -0.03800
C 	C 	0.41660 0.48430 0.74760 0.04800
C 	C 	0.36490 0.47920 0.74890 -0.01000
C 	C 	0.46640 0.27060 0.74880 0.01400
C 	C 	0.44730 0.30150 0.78290 0.05200
C 	C 	0.34700 0.45600 0.78560 0.03700
O 	O 	0.39900 0.24440 0.81460 -0.10500
O 	O 	0.43650 0.30490 0.84710 -0.10200
N 	N 	0.41610 0.28470 0.82070 0.00000
C 	C 	0.30200 0.45130 0.78440 0.00600
C 	C 	0.27870 0.46930 0.74800 0.00600
C 	C 	0.45040 0.34780 0.78520 0.05500
O 	O 	0.97800 0.06430 0.20990 -0.15200
O 	O 	0.93660 0.02320 0.21370 0.15500
C 	C 	0.98270 0.08400 0.24860 0.29100
C 	C 	0.97680 0.13120 0.25100 -0.01900
C 	C 	0.91660 0.01570 0.25240 0.07200
C 	C 	0.86490 0.02080 0.25110 -0.01400
C 	C 	0.96640 0.22940 0.25120 0.04200
C 	C 	0.94730 0.19850 0.21710 0.05900
C 	C 	0.84700 0.04400 0.21440 0.04100
O 	O 	0.89900 0.25560 0.18540 -0.09900
O 	O 	0.93650 0.19510 0.15290 -0.08900
N 	N 	0.91610 0.21530 0.17930 -0.00100
C 	C 	0.80200 0.04870 0.21560 0.00600
C 	C 	0.77870 0.03070 0.25200 0.00800
C 	C 	0.95040 0.15220 0.21480 0.06200
O 	O 	0.97800 0.56430 0.70990 -0.15200
O 	O 	0.93660 0.52320 0.71370 0.15800
C 	C 	0.98270 0.58400 0.74860 0.29000
C 	C 	0.97680 0.63120 0.75100 -0.02000
C 	C 	0.91660 0.51570 0.75240 0.04900
C 	C 	0.86490 0.52080 0.75110 -0.01100
C 	C 	0.96640 0.72940 0.75120 0.04100
C 	C 	0.94730 0.69850 0.71710 0.05900
C 	C 	0.84700 0.54400 0.71440 0.03900
O 	O 	0.89900 0.75560 0.68540 -0.09900
O 	O 	0.93650 0.69510 0.65290 -0.08900
N 	N 	0.91610 0.71530 0.67930 -0.00100
C 	C 	0.80200 0.54870 0.71560 0.00600
C 	C 	0.77870 0.53070 0.75200 0.00700
C 	C 	0.95040 0.65220 0.71480 0.06200
O 	O 	0.47800 0.06430 0.70990 -0.15300
O 	O 	0.43660 0.02320 0.71370 0.15900
C 	C 	0.48270 0.08400 0.74860 0.15600
C 	C 	0.47680 0.13120 0.75100 -0.03800
C 	C 	0.41660 0.01570 0.75240 0.06800
C 	C 	0.36490 0.02080 0.75110 -0.01200
C 	C 	0.46640 0.22940 0.75120 0.01300
C 	C 	0.44730 0.19850 0.71710 0.05200
C 	C 	0.34700 0.04400 0.71440 0.03900
O 	O 	0.39900 0.25560 0.68540 -0.10500
O 	O 	0.43650 0.19510 0.65290 -0.10200
N 	N 	0.41610 0.21530 0.67930 0.00000
C 	C 	0.30200 0.04870 0.71560 0.00600
C 	C 	0.27870 0.03070 0.75200 0.00700
C 	C 	0.45040 0.15220 0.71480 0.05500
O 	O 	0.47800 0.56430 0.20990 -0.15300
O 	O 	0.43660 0.52320 0.21370 0.16200
C 	C 	0.48270 0.58400 0.24860 0.15600
C 	C 	0.47680 0.63120 0.25100 -0.03800
C 	C 	0.41660 0.51570 0.25240 0.04800
C 	C 	0.36490 0.52080 0.25110 -0.01000
C 	C 	0.46640 0.72940 0.25120 0.01300
C 	C 	0.44730 0.69850 0.21710 0.05200
C 	C 	0.34700 0.54400 0.21440 0.03700
O 	O 	0.39900 0.75560 0.18540 -0.10500
O 	O 	0.43650 0.69510 0.15290 -0.10300
N 	N 	0.41610 0.71530 0.17930 0.00100
C 	C 	0.30200 0.54870 0.21560 0.00500
C 	C 	0.27870 0.53070 0.25200 0.00700
C 	C 	0.45040 0.65220 0.21480 0.05500
O 	O 	0.02200 0.93570 0.20990 -0.15400
O 	O 	0.06340 0.97680 0.21370 0.16300
C 	C 	0.01730 0.91600 0.24860 0.04400
C 	C 	0.02320 0.86880 0.25100 -0.03400
C 	C 	0.08340 0.98430 0.25240 0.03100
C 	C 	0.13510 0.97920 0.25110 -0.01100
C 	C 	0.03360 0.77060 0.25120 0.00400
C 	C 	0.05270 0.80150 0.21710 0.04900
C 	C 	0.15300 0.95600 0.21440 0.03600
O 	O 	0.10100 0.74440 0.18540 -0.10600
O 	O 	0.06350 0.80490 0.15290 -0.11200
N 	N 	0.08390 0.78470 0.17930 0.00200
C 	C 	0.19800 0.95130 0.21560 0.00500
C 	C 	0.22130 0.96930 0.25200 0.00200
C 	C 	0.04960 0.84780 0.21480 0.04600
O 	O 	0.02200 0.43570 0.70990 -0.15300
O 	O 	0.06340 0.47680 0.71370 0.16200
C 	C 	0.01730 0.41600 0.74860 0.04000
C 	C 	0.02320 0.36880 0.75100 -0.03300
C 	C 	0.08340 0.48430 0.75240 0.05000
C 	C 	0.13510 0.47920 0.75110 -0.01000
C 	C 	0.03360 0.27060 0.75120 0.00400
C 	C 	0.05270 0.30150 0.71710 0.04900
C 	C 	0.15300 0.45600 0.71440 0.03800
O 	O 	0.10100 0.24440 0.68540 -0.10500
O 	O 	0.06350 0.30490 0.65290 -0.11200
N 	N 	0.08390 0.28470 0.67930 0.00200
C 	C 	0.19800 0.45130 0.71560 0.00500
C 	C 	0.22130 0.46930 0.75200 0.00700
C 	C 	0.04960 0.34780 0.71480 0.04600
O 	O 	0.52200 0.93570 0.70990 -0.15400
O 	O 	0.56340 0.97680 0.71370 0.16300
C 	C 	0.51730 0.91600 0.74860 0.15700
C 	C 	0.52320 0.86880 0.75100 -0.03800
C 	C 	0.58340 0.98430 0.75240 0.02500
C 	C 	0.63510 0.97920 0.75110 -0.01100
C 	C 	0.53360 0.77060 0.75120 0.01300
C 	C 	0.55270 0.80150 0.71710 0.05200
C 	C 	0.65300 0.95600 0.71440 0.03500
O 	O 	0.60100 0.74440 0.68540 -0.10500
O 	O 	0.56350 0.80490 0.65290 -0.10200
N 	N 	0.58390 0.78470 0.67930 0.00000
C 	C 	0.69800 0.95130 0.71560 0.00600
C 	C 	0.72130 0.96930 0.75200 0.00100
C 	C 	0.54960 0.84780 0.71480 0.05500
O 	O 	0.52200 0.43570 0.20990 -0.15300
O 	O 	0.56340 0.47680 0.21370 0.16200
C 	C 	0.51730 0.41600 0.24860 0.15600
C 	C 	0.52320 0.36880 0.25100 -0.03800
C 	C 	0.58340 0.48430 0.25240 0.04800
C 	C 	0.63510 0.47920 0.25110 -0.01000
C 	C 	0.53360 0.27060 0.25120 0.01300
C 	C 	0.55270 0.30150 0.21710 0.05200
C 	C 	0.65300 0.45600 0.21440 0.03600
O 	O 	0.60100 0.24440 0.18540 -0.10500
O 	O 	0.56350 0.30490 0.15290 -0.10300
N 	N 	0.58390 0.28470 0.17930 0.00000
C 	C 	0.69800 0.45130 0.21560 0.00500
C 	C 	0.72130 0.46930 0.25200 0.00700
C 	C 	0.54960 0.34780 0.21480 0.05400
O 	O 	0.96900 0.00000 0.19250 -1.45100
O 	O 	0.93370 0.00000 0.29105 -0.34600
C 	C 	0.04040 0.00000 0.44890 0.00800
C 	C 	0.84130 -0.00000 0.28750 0.05900
C 	C 	0.79460 -0.00000 0.28530 0.01000
C 	C 	0.03690 0.00000 0.39860 0.07800
O 	O 	0.96900 0.50000 0.69250 -1.45600
O 	O 	0.93370 0.50000 0.79105 -0.35000
C 	C 	0.04040 0.50000 0.94890 0.00800
C 	C 	0.84130 0.50000 0.78750 0.05500
C 	C 	0.79460 0.50000 0.78530 0.00400
C 	C 	0.03690 0.50000 0.89860 0.07900
O 	O 	0.46900 0.00000 0.69250 -1.50000
O 	O 	0.43370 0.00000 0.79105 -0.36100
C 	C 	0.54040 0.00000 0.94890 0.00500
C 	C 	0.34130 0.00000 0.78750 0.05600
C 	C 	0.29460 0.00000 0.78530 0.01000
C 	C 	0.53690 0.00000 0.89860 0.08900
O 	O 	0.46900 0.50000 0.19250 -1.50500
O 	O 	0.43370 0.50000 0.29105 -0.36400
C 	C 	0.54040 0.50000 0.44890 0.00300
C 	C 	0.34130 0.50000 0.28750 0.05300
C 	C 	0.29460 0.50000 0.28530 0.00500
C 	C 	0.53690 0.50000 0.39860 0.08600
O 	O 	0.03100 0.00000 0.19250 -1.50100
O 	O 	0.06630 0.00000 0.29105 -0.36000
C 	C 	0.95960 0.00000 0.44890 0.04900
C 	C 	0.15870 -0.00000 0.28750 0.05700
C 	C 	0.20540 -0.00000 0.28530 0.01000
C 	C 	0.96310 0.00000 0.39860 0.12700
O 	O 	0.03100 0.50000 0.69250 -1.50500
O 	O 	0.06630 0.50000 0.79105 -0.36200
C 	C 	0.95960 0.50000 0.94890 0.04800
C 	C 	0.15870 0.50000 0.78750 0.05400
C 	C 	0.20540 0.50000 0.78530 0.00500
C 	C 	0.96310 0.50000 0.89860 0.12700
O 	O 	0.53100 0.00000 0.69250 -1.50000
O 	O 	0.56630 0.00000 0.79105 -0.36100
C 	C 	0.45960 0.00000 0.94890 0.00500
C 	C 	0.65870 0.00000 0.78750 0.05700
C 	C 	0.70540 0.00000 0.78530 0.01100
C 	C 	0.46310 0.00000 0.89860 0.08900
O 	O 	0.53100 0.50000 0.19250 -1.50500
O 	O 	0.56630 0.50000 0.29105 -0.36400
C 	C 	0.45960 0.50000 0.44890 0.00300
C 	C 	0.65870 0.50000 0.28750 0.05300
C 	C 	0.70540 0.50000 0.28530 0.00500
C 	C 	0.46310 0.50000 0.39860 0.08700
O 	O 	0.03100 0.00000 0.80750 -1.50100
O 	O 	0.06630 0.00000 0.70895 -0.36000
C 	C 	0.95960 0.00000 0.55110 0.04900
C 	C 	0.15870 -0.00000 0.71250 0.05700
C 	C 	0.20540 0.00000 0.71470 0.00900
C 	C 	0.96310 0.00000 0.60140 0.12700
O 	O 	0.03100 0.50000 0.30750 -1.50500
O 	O 	0.06630 0.50000 0.20895 -0.36300
C 	C 	0.95960 0.50000 0.05110 0.04600
C 	C 	0.15870 0.50000 0.21250 0.05400
C 	C 	0.20540 0.50000 0.21470 0.00500
C 	C 	0.96310 0.50000 0.10140 0.12400
O 	O 	0.53100 0.00000 0.30750 -1.50000
O 	O 	0.56630 0.00000 0.20895 -0.36100
C 	C 	0.45960 0.00000 0.05110 0.00400
C 	C 	0.65870 0.00000 0.21250 0.05600
C 	C 	0.70540 0.00000 0.21470 0.01100
C 	C 	0.46310 0.00000 0.10140 0.08600
O 	O 	0.53100 0.50000 0.80750 -1.50400
O 	O 	0.56630 0.50000 0.70895 -0.36400
C 	C 	0.45960 0.50000 0.55110 0.00300
C 	C 	0.65870 0.50000 0.71250 0.05300
C 	C 	0.70540 0.50000 0.71470 0.00500
C 	C 	0.46310 0.50000 0.60140 0.08600
O 	O 	0.96900 0.00000 0.80750 -1.45100
O 	O 	0.93370 0.00000 0.70895 -0.34600
C 	C 	0.04040 0.00000 0.55110 0.00800
C 	C 	0.84130 -0.00000 0.71250 0.05900
C 	C 	0.79460 0.00000 0.71470 0.01000
C 	C 	0.03690 0.00000 0.60140 0.07800
O 	O 	0.96900 0.50000 0.30750 -1.45600
O 	O 	0.93370 0.50000 0.20895 -0.35000
C 	C 	0.04040 0.50000 0.05110 0.00600
C 	C 	0.84130 0.50000 0.21250 0.05500
C 	C 	0.79460 0.50000 0.21470 0.00400
C 	C 	0.03690 0.50000 0.10140 0.07600
O 	O 	0.46900 0.00000 0.30750 -1.50000
O 	O 	0.43370 0.00000 0.20895 -0.36100
C 	C 	0.54040 0.00000 0.05110 0.00400
C 	C 	0.34130 0.00000 0.21250 0.05600
C 	C 	0.29460 0.00000 0.21470 0.01000
C 	C 	0.53690 0.00000 0.10140 0.08600
O 	O 	0.46900 0.50000 0.80750 -1.50400
O 	O 	0.43370 0.50000 0.70895 -0.36400
C 	C 	0.54040 0.50000 0.55110 0.00300
C 	C 	0.34130 0.50000 0.71250 0.05300
C 	C 	0.29460 0.50000 0.71470 0.00500
C 	C 	0.53690 0.50000 0.60140 0.08600
O 	O 	-0.00000 0.93390 0.28663 -0.41100
C 	C 	0.00000 0.84260 0.28610 0.02000
C 	C 	0.00000 0.79740 0.28830 -0.01300
C 	C 	0.00000 0.96450 0.10150 0.11600
C 	C 	0.00000 0.96260 0.05400 -0.02800
O 	O 	0.00000 0.43390 0.78663 -0.40900
C 	C 	-0.00000 0.34260 0.78610 0.02000
C 	C 	0.00000 0.29740 0.78830 -0.01300
C 	C 	-0.00000 0.46450 0.60150 0.12100
C 	C 	0.00000 0.46260 0.55400 -0.02300
O 	O 	0.50000 0.93390 0.78663 -0.38200
C 	C 	0.50000 0.84260 0.78610 0.04900
C 	C 	0.50000 0.79740 0.78830 0.01400
C 	C 	0.50000 0.96450 0.60150 0.13000
C 	C 	0.50000 0.96260 0.55400 -0.02000
O 	O 	0.50000 0.43390 0.28663 -0.38000
C 	C 	0.50000 0.34260 0.28610 0.04900
C 	C 	0.50000 0.29740 0.28830 0.01400
C 	C 	0.50000 0.46450 0.10150 0.13300
C 	C 	0.50000 0.46260 0.05400 -0.01600
O 	O 	0.00000 0.06610 0.28663 -0.41000
C 	C 	-0.00000 0.15740 0.28610 0.01900
C 	C 	-0.00000 0.20260 0.28830 -0.01300
C 	C 	-0.00000 0.03550 0.10150 0.12100
C 	C 	-0.00000 0.03740 0.05400 -0.02400
O 	O 	-0.00000 0.56610 0.78663 -0.40900
C 	C 	-0.00000 0.65740 0.78610 0.02000
C 	C 	0.00000 0.70260 0.78830 -0.01300
C 	C 	0.00000 0.53550 0.60150 0.12100
C 	C 	0.00000 0.53740 0.55400 -0.02300
O 	O 	0.50000 0.06610 0.78663 -0.38100
C 	C 	0.50000 0.15740 0.78610 0.04900
C 	C 	0.50000 0.20260 0.78830 0.01400
C 	C 	0.50000 0.03550 0.60150 0.13600
C 	C 	0.50000 0.03740 0.55400 -0.01500
O 	O 	0.50000 0.56610 0.28663 -0.38000
C 	C 	0.50000 0.65740 0.28610 0.04900
C 	C 	0.50000 0.70260 0.28830 0.01400
C 	C 	0.50000 0.53550 0.10150 0.13300
C 	C 	0.50000 0.53740 0.05400 -0.01600
O 	O 	0.00000 0.93390 0.71337 -0.41100
C 	C 	0.00000 0.84260 0.71390 0.02000
C 	C 	0.00000 0.79740 0.71170 -0.01300
C 	C 	0.00000 0.96450 0.89850 0.11900
C 	C 	0.00000 0.96260 0.94600 -0.02600
O 	O 	0.00000 0.43390 0.21337 -0.41000
C 	C 	-0.00000 0.34260 0.21390 0.01900
C 	C 	0.00000 0.29740 0.21170 -0.01400
C 	C 	0.00000 0.46450 0.39850 0.12100
C 	C 	-0.00000 0.46260 0.44600 -0.02300
O 	O 	0.50000 0.93390 0.21337 -0.38300
C 	C 	0.50000 0.84260 0.21390 0.04800
C 	C 	0.50000 0.79740 0.21170 0.01300
C 	C 	0.50000 0.96450 0.39850 0.13000
C 	C 	0.50000 0.96260 0.44600 -0.02000
O 	O 	0.50000 0.43390 0.71337 -0.38000
C 	C 	0.50000 0.34260 0.71390 0.04900
C 	C 	0.50000 0.29740 0.71170 0.01400
C 	C 	0.50000 0.46450 0.89850 0.13700
C 	C 	0.50000 0.46260 0.94600 -0.01300
O 	O 	0.00000 0.06610 0.71337 -0.41100
C 	C 	0.00000 0.15740 0.71390 0.01900
C 	C 	0.00000 0.20260 0.71170 -0.01400
C 	C 	-0.00000 0.03550 0.89850 0.12400
C 	C 	0.00000 0.03740 0.94600 -0.02200
O 	O 	0.00000 0.56610 0.21337 -0.41000
C 	C 	-0.00000 0.65740 0.21390 0.02000
C 	C 	0.00000 0.70260 0.21170 -0.01300
C 	C 	-0.00000 0.53550 0.39850 0.12100
C 	C 	-0.00000 0.53740 0.44600 -0.02300
O 	O 	0.50000 0.06610 0.21337 -0.38100
C 	C 	0.50000 0.15740 0.21390 0.04800
C 	C 	0.50000 0.20260 0.21170 0.01400
C 	C 	0.50000 0.03550 0.39850 0.13600
C 	C 	0.50000 0.03740 0.44600 -0.01500
O 	O 	0.50000 0.56610 0.71337 -0.38000
C 	C 	0.50000 0.65740 0.71390 0.04900
C 	C 	0.50000 0.70260 0.71170 0.01400
C 	C 	0.50000 0.53550 0.89850 0.13700
C 	C 	0.50000 0.53740 0.94600 -0.01300
N 	N 	0.00000 0.00000 0.37530 -0.26400
C 	C 	-0.00000 0.00000 0.47330 -0.03300
Zn	Zn	0.00000 0.00000 0.30270 1.22500
N 	N 	-0.00000 0.00000 0.12550 -0.06100
C 	C 	0.00000 0.00000 0.02680 0.01300
Zn	Zn	0.00000 0.00000 0.19800 2.16900
N 	N 	0.00000 0.50000 0.87530 -0.26400
C 	C 	0.00000 0.50000 0.97330 -0.01900
Zn	Zn	0.00000 0.50000 0.80270 1.22500
N 	N 	0.00000 0.50000 0.62550 -0.06400
C 	C 	0.00000 0.50000 0.52680 0.02200
Zn	Zn	-0.00000 0.50000 0.69800 2.17100
N 	N 	0.50000 0.00000 0.87530 -0.23600
C 	C 	0.50000 0.00000 0.97330 0.02700
Zn	Zn	0.50000 0.00000 0.80270 1.23300
N 	N 	0.50000 0.00000 0.62550 -0.05400
C 	C 	0.50000 0.00000 0.52680 0.03100
Zn	Zn	0.50000 0.00000 0.69800 2.19600
N 	N 	0.50000 0.50000 0.37530 -0.23600
C 	C 	0.50000 0.50000 0.47330 0.01300
Zn	Zn	0.50000 0.50000 0.30270 1.23300
N 	N 	0.50000 0.50000 0.12550 -0.05700
C 	C 	0.50000 0.50000 0.02680 0.01100
Zn	Zn	0.50000 0.50000 0.19800 2.19800
N 	N 	0.00000 0.00000 0.62470 -0.26400
C 	C 	-0.00000 0.00000 0.52670 -0.03300
Zn	Zn	0.00000 0.00000 0.69730 1.22500
N 	N 	0.00000 0.00000 0.87450 -0.06200
C 	C 	0.00000 0.00000 0.97320 0.04000
Zn	Zn	0.00000 0.00000 0.80200 2.16900
N 	N 	0.00000 0.50000 0.12470 -0.26300
C 	C 	0.00000 0.50000 0.02670 -0.04600
Zn	Zn	0.00000 0.50000 0.19730 1.22500
N 	N 	0.00000 0.50000 0.37450 -0.06400
C 	C 	0.00000 0.50000 0.47320 0.02200
Zn	Zn	0.00000 0.50000 0.30200 2.17100
N 	N 	0.50000 0.00000 0.12470 -0.23600
C 	C 	0.50000 0.00000 0.02670 -0.00100
Zn	Zn	0.50000 0.00000 0.19730 1.23300
N 	N 	0.50000 0.00000 0.37450 -0.05400
C 	C 	0.50000 0.00000 0.47320 0.03100
Zn	Zn	0.50000 0.00000 0.30200 2.19600
N 	N 	0.50000 0.50000 0.62470 -0.23600
C 	C 	0.50000 0.50000 0.52670 0.01300
Zn	Zn	0.50000 0.50000 0.69730 1.23300
N 	N 	0.50000 0.50000 0.87450 -0.05800
C 	C 	0.50000 0.50000 0.97320 0.03900
Zn	Zn	0.50000 0.50000 0.80200 2.19800
O 	O 	0.23710 0.31501 0.03772 -0.43700
O 	O 	0.31490 0.26380 0.03967 -0.45200
N 	N 	0.17200 0.46550 0.92510 -0.00600
C 	C 	0.20900 0.40360 0.96470 0.05400
C 	C 	0.19940 0.44880 0.96530 0.04400
C 	C 	0.21640 0.24420 0.14950 0.06600
C 	C 	0.20890 0.24760 0.19840 0.00400
C 	C 	0.40240 0.29470 0.03540 0.05000
C 	C 	0.44950 0.29670 0.03600 0.00200
C 	C 	0.24460 0.40610 0.96000 0.04200
C 	C 	0.23770 0.45520 0.96200 0.00800
C 	C 	0.25700 0.28350 0.14720 0.03600
C 	C 	0.23160 0.21290 0.19780 -0.00500
C 	C 	0.40860 0.25570 0.03910 0.04900
C 	C 	0.45750 0.25770 0.02970 -0.00100
O 	O 	0.17570 0.44850 0.88480 -0.09400
O 	O 	0.23710 0.81501 0.53772 -0.43800
O 	O 	0.31490 0.76380 0.53967 -0.45300
N 	N 	0.17200 0.96550 0.42510 -0.00900
C 	C 	0.20900 0.90360 0.46470 0.04200
C 	C 	0.19940 0.94880 0.46530 0.03800
C 	C 	0.21640 0.74420 0.64950 0.06600
C 	C 	0.20890 0.74760 0.69840 0.00400
C 	C 	0.40240 0.79470 0.53540 0.05200
C 	C 	0.44950 0.79670 0.53600 0.00000
C 	C 	0.24460 0.90610 0.46000 0.03600
C 	C 	0.23770 0.95520 0.46200 -0.00200
C 	C 	0.25700 0.78350 0.64720 0.03600
C 	C 	0.23160 0.71290 0.69780 -0.00500
C 	C 	0.40860 0.75570 0.53910 0.04800
C 	C 	0.45750 0.75770 0.52970 -0.00000
O 	O 	0.17570 0.94850 0.38480 -0.09600
O 	O 	0.73710 0.31501 0.53772 -0.43800
O 	O 	0.81490 0.26380 0.53967 -0.45300
N 	N 	0.67200 0.46550 0.42510 -0.00500
C 	C 	0.70900 0.40360 0.46470 0.04300
C 	C 	0.69940 0.44880 0.46530 0.03600
C 	C 	0.71640 0.24420 0.64950 0.06600
C 	C 	0.70890 0.24760 0.69840 0.00400
C 	C 	0.90240 0.29470 0.53540 0.05600
C 	C 	0.94950 0.29670 0.53600 0.00400
C 	C 	0.74460 0.40610 0.46000 0.03900
C 	C 	0.73770 0.45520 0.46200 0.00200
C 	C 	0.75700 0.28350 0.64720 0.03700
C 	C 	0.73160 0.21290 0.69780 -0.00500
C 	C 	0.90860 0.25570 0.53910 0.05900
C 	C 	0.95750 0.25770 0.52970 -0.00700
O 	O 	0.67570 0.44850 0.38480 -0.09300
O 	O 	0.73710 0.81501 0.03772 -0.43600
O 	O 	0.81490 0.76380 0.03967 -0.45200
N 	N 	0.67200 0.96550 0.92510 -0.01000
C 	C 	0.70900 0.90360 0.96470 0.05300
C 	C 	0.69940 0.94880 0.96530 0.04500
C 	C 	0.71640 0.74420 0.14950 0.06600
C 	C 	0.70890 0.74760 0.19840 0.00400
C 	C 	0.90240 0.79470 0.03540 0.05400
C 	C 	0.94950 0.79670 0.03600 0.00500
C 	C 	0.74460 0.90610 0.96000 0.04400
C 	C 	0.73770 0.95520 0.96200 0.00900
C 	C 	0.75700 0.78350 0.14720 0.03600
C 	C 	0.73160 0.71290 0.19780 -0.00500
C 	C 	0.90860 0.75570 0.03910 0.05900
C 	C 	0.95750 0.75770 0.02970 -0.00700
O 	O 	0.67570 0.94850 0.88480 -0.09500
O 	O 	0.76290 0.68499 0.03772 -0.43600
O 	O 	0.68510 0.73620 0.03967 -0.45200
N 	N 	0.82800 0.53450 0.92510 -0.00600
C 	C 	0.79100 0.59640 0.96470 0.05800
C 	C 	0.80060 0.55120 0.96530 0.04500
C 	C 	0.78360 0.75580 0.14950 0.06700
C 	C 	0.79110 0.75240 0.19840 0.00400
C 	C 	0.59760 0.70530 0.03540 0.05000
C 	C 	0.55050 0.70330 0.03600 0.00300
C 	C 	0.75540 0.59390 0.96000 0.04000
C 	C 	0.76230 0.54480 0.96200 0.00800
C 	C 	0.74300 0.71650 0.14720 0.03700
C 	C 	0.76840 0.78710 0.19780 -0.00500
C 	C 	0.59140 0.74430 0.03910 0.04900
C 	C 	0.54250 0.74230 0.02970 -0.00100
O 	O 	0.82430 0.55150 0.88480 -0.09100
O 	O 	0.76290 0.18499 0.53772 -0.43800
O 	O 	0.68510 0.23620 0.53967 -0.45300
N 	N 	0.82800 0.03450 0.42510 -0.00500
C 	C 	0.79100 0.09640 0.46470 0.04800
C 	C 	0.80060 0.05120 0.46530 0.03500
C 	C 	0.78360 0.25580 0.64950 0.06700
C 	C 	0.79110 0.25240 0.69840 0.00400
C 	C 	0.59760 0.20530 0.53540 0.05300
C 	C 	0.55050 0.20330 0.53600 0.00100
C 	C 	0.75540 0.09390 0.46000 0.03500
C 	C 	0.76230 0.04480 0.46200 0.00100
C 	C 	0.74300 0.21650 0.64720 0.03700
C 	C 	0.76840 0.28710 0.69780 -0.00500
C 	C 	0.59140 0.24430 0.53910 0.04800
C 	C 	0.54250 0.24230 0.52970 -0.00000
O 	O 	0.82430 0.05150 0.38480 -0.09100
O 	O 	0.26290 0.68499 0.53772 -0.43800
O 	O 	0.18510 0.73620 0.53967 -0.45300
N 	N 	0.32800 0.53450 0.42510 -0.00500
C 	C 	0.29100 0.59640 0.46470 0.04500
C 	C 	0.30060 0.55120 0.46530 0.03700
C 	C 	0.28360 0.75580 0.64950 0.06600
C 	C 	0.29110 0.75240 0.69840 0.00400
C 	C 	0.09760 0.70530 0.53540 0.05100
C 	C 	0.05050 0.70330 0.53600 0.00200
C 	C 	0.25540 0.59390 0.46000 0.03600
C 	C 	0.26230 0.54480 0.46200 -0.00100
C 	C 	0.24300 0.71650 0.64720 0.03700
C 	C 	0.26840 0.78710 0.69780 -0.00500
C 	C 	0.09140 0.74430 0.53910 0.03900
C 	C 	0.04250 0.74230 0.52970 0.00700
O 	O 	0.32430 0.55150 0.38480 -0.09400
O 	O 	0.26290 0.18499 0.03772 -0.43600
O 	O 	0.18510 0.23620 0.03967 -0.45200
N 	N 	0.32800 0.03450 0.92510 -0.00600
C 	C 	0.29100 0.09640 0.96470 0.05600
C 	C 	0.30060 0.05120 0.96530 0.04200
C 	C 	0.28360 0.25580 0.14950 0.06600
C 	C 	0.29110 0.25240 0.19840 0.00400
C 	C 	0.09760 0.20530 0.03540 0.04900
C 	C 	0.05050 0.20330 0.03600 0.00400
C 	C 	0.25540 0.09390 0.96000 0.04100
C 	C 	0.26230 0.04480 0.96200 0.00900
C 	C 	0.24300 0.21650 0.14720 0.03600
C 	C 	0.26840 0.28710 0.19780 -0.00500
C 	C 	0.09140 0.24430 0.03910 0.04000
C 	C 	0.04250 0.24230 0.02970 0.00700
O 	O 	0.32430 0.05150 0.88480 -0.09300
O 	O 	0.76290 0.31501 0.96228 -0.42400
O 	O 	0.68510 0.26380 0.96033 -0.44100
N 	N 	0.82800 0.46550 0.07490 -0.00500
C 	C 	0.79100 0.40360 0.03530 0.04800
C 	C 	0.80060 0.44880 0.03470 0.03600
C 	C 	0.78360 0.24420 0.85050 0.06700
C 	C 	0.79110 0.24760 0.80160 0.00400
C 	C 	0.59760 0.29470 0.96460 0.06600
C 	C 	0.55050 0.29670 0.96400 0.00400
C 	C 	0.75540 0.40610 0.04000 0.03400
C 	C 	0.76230 0.45520 0.03800 -0.00000
C 	C 	0.74300 0.28350 0.85280 0.03700
C 	C 	0.76840 0.21290 0.80220 -0.00500
C 	C 	0.59140 0.25570 0.96090 0.05000
C 	C 	0.54250 0.25770 0.97030 0.01900
O 	O 	0.82430 0.44850 0.11520 -0.09200
O 	O 	0.76290 0.81501 0.46228 -0.43800
O 	O 	0.68510 0.76380 0.46033 -0.45300
N 	N 	0.82800 0.96550 0.57490 -0.00900
C 	C 	0.79100 0.90360 0.53530 0.04600
C 	C 	0.80060 0.94880 0.53470 0.03900
C 	C 	0.78360 0.74420 0.35050 0.06700
C 	C 	0.79110 0.74760 0.30160 0.00400
C 	C 	0.59760 0.79470 0.46460 0.05200
C 	C 	0.55050 0.79670 0.46400 0.00000
C 	C 	0.75540 0.90610 0.54000 0.03500
C 	C 	0.76230 0.95520 0.53800 -0.00200
C 	C 	0.74300 0.78350 0.35280 0.03700
C 	C 	0.76840 0.71290 0.30220 -0.00500
C 	C 	0.59140 0.75570 0.46090 0.04800
C 	C 	0.54250 0.75770 0.47030 -0.00000
O 	O 	0.82430 0.94850 0.61520 -0.09400
O 	O 	0.26290 0.31501 0.46228 -0.43800
O 	O 	0.18510 0.26380 0.46033 -0.45300
N 	N 	0.32800 0.46550 0.57490 -0.00500
C 	C 	0.29100 0.40360 0.53530 0.04500
C 	C 	0.30060 0.44880 0.53470 0.03700
C 	C 	0.28360 0.24420 0.35050 0.06600
C 	C 	0.29110 0.24760 0.30160 0.00400
C 	C 	0.09760 0.29470 0.46460 0.05100
C 	C 	0.05050 0.29670 0.46400 0.00200
C 	C 	0.25540 0.40610 0.54000 0.03600
C 	C 	0.26230 0.45520 0.53800 -0.00100
C 	C 	0.24300 0.28350 0.35280 0.03700
C 	C 	0.26840 0.21290 0.30220 -0.00500
C 	C 	0.09140 0.25570 0.46090 0.03900
C 	C 	0.04250 0.25770 0.47030 0.00700
O 	O 	0.32430 0.44850 0.61520 -0.09400
O 	O 	0.26290 0.81501 0.96228 -0.42500
O 	O 	0.18510 0.76380 0.96033 -0.44100
N 	N 	0.32800 0.96550 0.07490 -0.00900
C 	C 	0.29100 0.90360 0.03530 0.04500
C 	C 	0.30060 0.94880 0.03470 0.03700
C 	C 	0.28360 0.74420 0.85050 0.06600
C 	C 	0.29110 0.74760 0.80160 0.00400
C 	C 	0.09760 0.79470 0.96460 0.06400
C 	C 	0.05050 0.79670 0.96400 0.00500
C 	C 	0.25540 0.90610 0.04000 0.03500
C 	C 	0.26230 0.95520 0.03800 -0.00100
C 	C 	0.24300 0.78350 0.85280 0.03700
C 	C 	0.26840 0.71290 0.80220 -0.00500
C 	C 	0.09140 0.75570 0.96090 0.04100
C 	C 	0.04250 0.75770 0.97030 0.02600
O 	O 	0.32430 0.94850 0.11520 -0.09600
O 	O 	0.23710 0.68499 0.96228 -0.42500
O 	O 	0.31490 0.73620 0.96033 -0.44100
N 	N 	0.17200 0.53450 0.07490 -0.00600
C 	C 	0.20900 0.59640 0.03530 0.04400
C 	C 	0.19940 0.55120 0.03470 0.03500
C 	C 	0.21640 0.75580 0.85050 0.06600
C 	C 	0.20890 0.75240 0.80160 0.00400
C 	C 	0.40240 0.70530 0.96460 0.06600
C 	C 	0.44950 0.70330 0.96400 0.00400
C 	C 	0.24460 0.59390 0.04000 0.03600
C 	C 	0.23770 0.54480 0.03800 0.00000
C 	C 	0.25700 0.71650 0.85280 0.03700
C 	C 	0.23160 0.78710 0.80220 -0.00500
C 	C 	0.40860 0.74430 0.96090 0.05000
C 	C 	0.45750 0.74230 0.97030 0.01900
O 	O 	0.17570 0.55150 0.11520 -0.09500
O 	O 	0.23710 0.18499 0.46228 -0.43800
O 	O 	0.31490 0.23620 0.46033 -0.45300
N 	N 	0.17200 0.03450 0.57490 -0.00500
C 	C 	0.20900 0.09640 0.53530 0.04400
C 	C 	0.19940 0.05120 0.53470 0.03500
C 	C 	0.21640 0.25580 0.35050 0.06600
C 	C 	0.20890 0.25240 0.30160 0.00400
C 	C 	0.40240 0.20530 0.46460 0.05300
C 	C 	0.44950 0.20330 0.46400 0.00100
C 	C 	0.24460 0.09390 0.54000 0.03700
C 	C 	0.23770 0.04480 0.53800 0.00100
C 	C 	0.25700 0.21650 0.35280 0.03700
C 	C 	0.23160 0.28710 0.30220 -0.00500
C 	C 	0.40860 0.24430 0.46090 0.04800
C 	C 	0.45750 0.24230 0.47030 -0.00000
O 	O 	0.17570 0.05150 0.61520 -0.09300
O 	O 	0.73710 0.68499 0.46228 -0.43800
O 	O 	0.81490 0.73620 0.46033 -0.45300
N 	N 	0.67200 0.53450 0.57490 -0.00500
C 	C 	0.70900 0.59640 0.53530 0.04300
C 	C 	0.69940 0.55120 0.53470 0.03600
C 	C 	0.71640 0.75580 0.35050 0.06600
C 	C 	0.70890 0.75240 0.30160 0.00400
C 	C 	0.90240 0.70530 0.46460 0.05600
C 	C 	0.94950 0.70330 0.46400 0.00400
C 	C 	0.74460 0.59390 0.54000 0.03900
C 	C 	0.73770 0.54480 0.53800 0.00200
C 	C 	0.75700 0.71650 0.35280 0.03700
C 	C 	0.73160 0.78710 0.30220 -0.00500
C 	C 	0.90860 0.74430 0.46090 0.05800
C 	C 	0.95750 0.74230 0.47030 -0.00700
O 	O 	0.67570 0.55150 0.61520 -0.09300
O 	O 	0.73710 0.18499 0.96228 -0.42400
O 	O 	0.81490 0.23620 0.96033 -0.44100
N 	N 	0.67200 0.03450 0.07490 -0.00500
C 	C 	0.70900 0.09640 0.03530 0.04500
C 	C 	0.69940 0.05120 0.03470 0.03300
C 	C 	0.71640 0.25580 0.85050 0.06600
C 	C 	0.70890 0.25240 0.80160 0.00400
C 	C 	0.90240 0.20530 0.96460 0.06900
C 	C 	0.94950 0.20330 0.96400 0.00700
C 	C 	0.74460 0.09390 0.04000 0.03800
C 	C 	0.73770 0.04480 0.03800 0.00400
C 	C 	0.75700 0.21650 0.85280 0.03700
C 	C 	0.73160 0.28710 0.80220 -0.00500
C 	C 	0.90860 0.24430 0.96090 0.06000
C 	C 	0.95750 0.24230 0.97030 0.01300
O 	O 	0.67570 0.05150 0.11520 -0.09300
O 	O 	0.76290 0.68499 0.96228 -0.42400
O 	O 	0.68510 0.73620 0.96033 -0.44100
N 	N 	0.82800 0.53450 0.07490 -0.00500
C 	C 	0.79100 0.59640 0.03530 0.04800
C 	C 	0.80060 0.55120 0.03470 0.03600
C 	C 	0.78360 0.75580 0.85050 0.06700
C 	C 	0.79110 0.75240 0.80160 0.00400
C 	C 	0.59760 0.70530 0.96460 0.06600
C 	C 	0.55050 0.70330 0.96400 0.00400
C 	C 	0.75540 0.59390 0.04000 0.03400
C 	C 	0.76230 0.54480 0.03800 -0.00000
C 	C 	0.74300 0.71650 0.85280 0.03700
C 	C 	0.76840 0.78710 0.80220 -0.00500
C 	C 	0.59140 0.74430 0.96090 0.05000
C 	C 	0.54250 0.74230 0.97030 0.01900
O 	O 	0.82430 0.55150 0.11520 -0.09200
O 	O 	0.76290 0.18499 0.46228 -0.43700
O 	O 	0.68510 0.23620 0.46033 -0.45300
N 	N 	0.82800 0.03450 0.57490 -0.00500
C 	C 	0.79100 0.09640 0.53530 0.04800
C 	C 	0.80060 0.05120 0.53470 0.03500
C 	C 	0.78360 0.25580 0.35050 0.06700
C 	C 	0.79110 0.25240 0.30160 0.00400
C 	C 	0.59760 0.20530 0.46460 0.05300
C 	C 	0.55050 0.20330 0.46400 0.00100
C 	C 	0.75540 0.09390 0.54000 0.03500
C 	C 	0.76230 0.04480 0.53800 0.00100
C 	C 	0.74300 0.21650 0.35280 0.03700
C 	C 	0.76840 0.28710 0.30220 -0.00500
C 	C 	0.59140 0.24430 0.46090 0.04800
C 	C 	0.54250 0.24230 0.47030 -0.00000
O 	O 	0.82430 0.05150 0.61520 -0.09100
O 	O 	0.26290 0.68499 0.46228 -0.43800
O 	O 	0.18510 0.73620 0.46033 -0.45300
N 	N 	0.32800 0.53450 0.57490 -0.00500
C 	C 	0.29100 0.59640 0.53530 0.04500
C 	C 	0.30060 0.55120 0.53470 0.03700
C 	C 	0.28360 0.75580 0.35050 0.06600
C 	C 	0.29110 0.75240 0.30160 0.00400
C 	C 	0.09760 0.70530 0.46460 0.05100
C 	C 	0.05050 0.70330 0.46400 0.00200
C 	C 	0.25540 0.59390 0.54000 0.03600
C 	C 	0.26230 0.54480 0.53800 -0.00100
C 	C 	0.24300 0.71650 0.35280 0.03700
C 	C 	0.26840 0.78710 0.30220 -0.00500
C 	C 	0.09140 0.74430 0.46090 0.03900
C 	C 	0.04250 0.74230 0.47030 0.00700
O 	O 	0.32430 0.55150 0.61520 -0.09400
O 	O 	0.26290 0.18499 0.96228 -0.42500
O 	O 	0.18510 0.23620 0.96033 -0.44100
N 	N 	0.32800 0.03450 0.07490 -0.00500
C 	C 	0.29100 0.09640 0.03530 0.04700
C 	C 	0.30060 0.05120 0.03470 0.03400
C 	C 	0.28360 0.25580 0.85050 0.06600
C 	C 	0.29110 0.25240 0.80160 0.00400
C 	C 	0.09760 0.20530 0.96460 0.06400
C 	C 	0.05050 0.20330 0.96400 0.00500
C 	C 	0.25540 0.09390 0.04000 0.03500
C 	C 	0.26230 0.04480 0.03800 0.00100
C 	C 	0.24300 0.21650 0.85280 0.03700
C 	C 	0.26840 0.28710 0.80220 -0.00500
C 	C 	0.09140 0.24430 0.96090 0.04100
C 	C 	0.04250 0.24230 0.97030 0.02600
O 	O 	0.32430 0.05150 0.11520 -0.09400
O 	O 	0.23710 0.31501 0.96228 -0.42500
O 	O 	0.31490 0.26380 0.96033 -0.44100
N 	N 	0.17200 0.46550 0.07490 -0.00600
C 	C 	0.20900 0.40360 0.03530 0.04400
C 	C 	0.19940 0.44880 0.03470 0.03500
C 	C 	0.21640 0.24420 0.85050 0.06600
C 	C 	0.20890 0.24760 0.80160 0.00400
C 	C 	0.40240 0.29470 0.96460 0.06600
C 	C 	0.44950 0.29670 0.96400 0.00400
C 	C 	0.24460 0.40610 0.04000 0.03600
C 	C 	0.23770 0.45520 0.03800 0.00000
C 	C 	0.25700 0.28350 0.85280 0.03700
C 	C 	0.23160 0.21290 0.80220 -0.00500
C 	C 	0.40860 0.25570 0.96090 0.05000
C 	C 	0.45750 0.25770 0.97030 0.01900
O 	O 	0.17570 0.44850 0.11520 -0.09500
O 	O 	0.23710 0.81501 0.46228 -0.43800
O 	O 	0.31490 0.76380 0.46033 -0.45300
N 	N 	0.17200 0.96550 0.57490 -0.00900
C 	C 	0.20900 0.90360 0.53530 0.04200
C 	C 	0.19940 0.94880 0.53470 0.03800
C 	C 	0.21640 0.74420 0.35050 0.06600
C 	C 	0.20890 0.74760 0.30160 0.00400
C 	C 	0.40240 0.79470 0.46460 0.05200
C 	C 	0.44950 0.79670 0.46400 0.00000
C 	C 	0.24460 0.90610 0.54000 0.03600
C 	C 	0.23770 0.95520 0.53800 -0.00200
C 	C 	0.25700 0.78350 0.35280 0.03600
C 	C 	0.23160 0.71290 0.30220 -0.00500
C 	C 	0.40860 0.75570 0.46090 0.04800
C 	C 	0.45750 0.75770 0.47030 -0.00000
O 	O 	0.17570 0.94850 0.61520 -0.09600
O 	O 	0.73710 0.31501 0.46228 -0.43800
O 	O 	0.81490 0.26380 0.46033 -0.45300
N 	N 	0.67200 0.46550 0.57490 -0.00500
C 	C 	0.70900 0.40360 0.53530 0.04300
C 	C 	0.69940 0.44880 0.53470 0.03600
C 	C 	0.71640 0.24420 0.35050 0.06600
C 	C 	0.70890 0.24760 0.30160 0.00400
C 	C 	0.90240 0.29470 0.46460 0.05600
C 	C 	0.94950 0.29670 0.46400 0.00400
C 	C 	0.74460 0.40610 0.54000 0.03900
C 	C 	0.73770 0.45520 0.53800 0.00200
C 	C 	0.75700 0.28350 0.35280 0.03700
C 	C 	0.73160 0.21290 0.30220 -0.00500
C 	C 	0.90860 0.25570 0.46090 0.05900
C 	C 	0.95750 0.25770 0.47030 -0.00700
O 	O 	0.67570 0.44850 0.61520 -0.09300
O 	O 	0.73710 0.81501 0.96228 -0.42400
O 	O 	0.81490 0.76380 0.96033 -0.44100
N 	N 	0.67200 0.96550 0.07490 -0.00900
C 	C 	0.70900 0.90360 0.03530 0.04300
C 	C 	0.69940 0.94880 0.03470 0.03700
C 	C 	0.71640 0.74420 0.85050 0.06600
C 	C 	0.70890 0.74760 0.80160 0.00400
C 	C 	0.90240 0.79470 0.96460 0.06900
C 	C 	0.94950 0.79670 0.96400 0.00700
C 	C 	0.74460 0.90610 0.04000 0.03800
C 	C 	0.73770 0.95520 0.03800 0.00100
C 	C 	0.75700 0.78350 0.85280 0.03700
C 	C 	0.73160 0.71290 0.80220 -0.00500
C 	C 	0.90860 0.75570 0.96090 0.06000
C 	C 	0.95750 0.75770 0.97030 0.01300
O 	O 	0.67570 0.94850 0.11520 -0.09600
O 	O 	0.23710 0.68499 0.03772 -0.43700
O 	O 	0.31490 0.73620 0.03967 -0.45200
N 	N 	0.17200 0.53450 0.92510 -0.00600
C 	C 	0.20900 0.59640 0.96470 0.05400
C 	C 	0.19940 0.55120 0.96530 0.04400
C 	C 	0.21640 0.75580 0.14950 0.06600
C 	C 	0.20890 0.75240 0.19840 0.00400
C 	C 	0.40240 0.70530 0.03540 0.05100
C 	C 	0.44950 0.70330 0.03600 0.00300
C 	C 	0.24460 0.59390 0.96000 0.04200
C 	C 	0.23770 0.54480 0.96200 0.00800
C 	C 	0.25700 0.71650 0.14720 0.03600
C 	C 	0.23160 0.78710 0.19780 -0.00500
C 	C 	0.40860 0.74430 0.03910 0.04900
C 	C 	0.45750 0.74230 0.02970 -0.00100
O 	O 	0.17570 0.55150 0.88480 -0.09400
O 	O 	0.23710 0.18499 0.53772 -0.43800
O 	O 	0.31490 0.23620 0.53967 -0.45300
N 	N 	0.17200 0.03450 0.42510 -0.00500
C 	C 	0.20900 0.09640 0.46470 0.04400
C 	C 	0.19940 0.05120 0.46530 0.03500
C 	C 	0.21640 0.25580 0.64950 0.06600
C 	C 	0.20890 0.25240 0.69840 0.00400
C 	C 	0.40240 0.20530 0.53540 0.05300
C 	C 	0.44950 0.20330 0.53600 0.00100
C 	C 	0.24460 0.09390 0.46000 0.03700
C 	C 	0.23770 0.04480 0.46200 0.00100
C 	C 	0.25700 0.21650 0.64720 0.03700
C 	C 	0.23160 0.28710 0.69780 -0.00500
C 	C 	0.40860 0.24430 0.53910 0.04800
C 	C 	0.45750 0.24230 0.52970 -0.00000
O 	O 	0.17570 0.05150 0.38480 -0.09300
O 	O 	0.73710 0.68499 0.53772 -0.43800
O 	O 	0.81490 0.73620 0.53967 -0.45300
N 	N 	0.67200 0.53450 0.42510 -0.00500
C 	C 	0.70900 0.59640 0.46470 0.04300
C 	C 	0.69940 0.55120 0.46530 0.03600
C 	C 	0.71640 0.75580 0.64950 0.06600
C 	C 	0.70890 0.75240 0.69840 0.00400
C 	C 	0.90240 0.70530 0.53540 0.05600
C 	C 	0.94950 0.70330 0.53600 0.00400
C 	C 	0.74460 0.59390 0.46000 0.03900
C 	C 	0.73770 0.54480 0.46200 0.00200
C 	C 	0.75700 0.71650 0.64720 0.03700
C 	C 	0.73160 0.78710 0.69780 -0.00500
C 	C 	0.90860 0.74430 0.53910 0.05800
C 	C 	0.95750 0.74230 0.52970 -0.00700
O 	O 	0.67570 0.55150 0.38480 -0.09300
O 	O 	0.73710 0.18499 0.03772 -0.43600
O 	O 	0.81490 0.23620 0.03967 -0.45200
N 	N 	0.67200 0.03450 0.92510 -0.00600
C 	C 	0.70900 0.09640 0.96470 0.05500
C 	C 	0.69940 0.05120 0.96530 0.04100
C 	C 	0.71640 0.25580 0.14950 0.06600
C 	C 	0.70890 0.25240 0.19840 0.00400
C 	C 	0.90240 0.20530 0.03540 0.05400
C 	C 	0.94950 0.20330 0.03600 0.00600
C 	C 	0.74460 0.09390 0.96000 0.04400
C 	C 	0.73770 0.04480 0.96200 0.01200
C 	C 	0.75700 0.21650 0.14720 0.03600
C 	C 	0.73160 0.28710 0.19780 -0.00500
C 	C 	0.90860 0.24430 0.03910 0.05900
C 	C 	0.95750 0.24230 0.02970 -0.00700
O 	O 	0.67570 0.05150 0.88480 -0.09200
O 	O 	0.76290 0.31501 0.03772 -0.43600
O 	O 	0.68510 0.26380 0.03967 -0.45200
N 	N 	0.82800 0.46550 0.92510 -0.00600
C 	C 	0.79100 0.40360 0.96470 0.05800
C 	C 	0.80060 0.44880 0.96530 0.04500
C 	C 	0.78360 0.24420 0.14950 0.06700
C 	C 	0.79110 0.24760 0.19840 0.00400
C 	C 	0.59760 0.29470 0.03540 0.05000
C 	C 	0.55050 0.29670 0.03600 0.00200
C 	C 	0.75540 0.40610 0.96000 0.04000
C 	C 	0.76230 0.45520 0.96200 0.00800
C 	C 	0.74300 0.28350 0.14720 0.03700
C 	C 	0.76840 0.21290 0.19780 -0.00500
C 	C 	0.59140 0.25570 0.03910 0.04900
C 	C 	0.54250 0.25770 0.02970 -0.00100
O 	O 	0.82430 0.44850 0.88480 -0.09100
O 	O 	0.76290 0.81501 0.53772 -0.43800
O 	O 	0.68510 0.76380 0.53967 -0.45300
N 	N 	0.82800 0.96550 0.42510 -0.00900
C 	C 	0.79100 0.90360 0.46470 0.04600
C 	C 	0.80060 0.94880 0.46530 0.03900
C 	C 	0.78360 0.74420 0.64950 0.06700
C 	C 	0.79110 0.74760 0.69840 0.00400
C 	C 	0.59760 0.79470 0.53540 0.05200
C 	C 	0.55050 0.79670 0.53600 0.00000
C 	C 	0.75540 0.90610 0.46000 0.03500
C 	C 	0.76230 0.95520 0.46200 -0.00200
C 	C 	0.74300 0.78350 0.64720 0.03700
C 	C 	0.76840 0.71290 0.69780 -0.00500
C 	C 	0.59140 0.75570 0.53910 0.04800
C 	C 	0.54250 0.75770 0.52970 -0.00000
O 	O 	0.82430 0.94850 0.38480 -0.09400
O 	O 	0.26290 0.31501 0.53772 -0.43800
O 	O 	0.18510 0.26380 0.53967 -0.45300
N 	N 	0.32800 0.46550 0.42510 -0.00500
C 	C 	0.29100 0.40360 0.46470 0.04500
C 	C 	0.30060 0.44880 0.46530 0.03700
C 	C 	0.28360 0.24420 0.64950 0.06600
C 	C 	0.29110 0.24760 0.69840 0.00400
C 	C 	0.09760 0.29470 0.53540 0.05100
C 	C 	0.05050 0.29670 0.53600 0.00200
C 	C 	0.25540 0.40610 0.46000 0.03600
C 	C 	0.26230 0.45520 0.46200 -0.00100
C 	C 	0.24300 0.28350 0.64720 0.03700
C 	C 	0.26840 0.21290 0.69780 -0.00500
C 	C 	0.09140 0.25570 0.53910 0.03900
C 	C 	0.04250 0.25770 0.52970 0.00700
O 	O 	0.32430 0.44850 0.38480 -0.09400
O 	O 	0.26290 0.81501 0.03772 -0.43700
O 	O 	0.18510 0.76380 0.03967 -0.45200
N 	N 	0.32800 0.96550 0.92510 -0.01000
C 	C 	0.29100 0.90360 0.96470 0.05400
C 	C 	0.30060 0.94880 0.96530 0.04600
C 	C 	0.28360 0.74420 0.14950 0.06600
C 	C 	0.29110 0.74760 0.19840 0.00400
C 	C 	0.09760 0.79470 0.03540 0.04900
C 	C 	0.05050 0.79670 0.03600 0.00300
C 	C 	0.25540 0.90610 0.96000 0.04100
C 	C 	0.26230 0.95520 0.96200 0.00600
C 	C 	0.24300 0.78350 0.14720 0.03600
C 	C 	0.26840 0.71290 0.19780 -0.00500
C 	C 	0.09140 0.75570 0.03910 0.04000
C 	C 	0.04250 0.75770 0.02970 0.00700
O 	O 	0.32430 0.94850 0.88480 -0.09600
N 	N 	0.25000 0.25000 0.12530 -0.24800
C 	C 	0.25000 0.25000 0.22230 0.01200
Zn	Zn	0.25000 0.25000 0.05223 1.22900
N 	N 	0.25000 0.75000 0.62530 -0.24800
C 	C 	0.25000 0.75000 0.72230 0.01200
Zn	Zn	0.25000 0.75000 0.55223 1.23000
N 	N 	0.75000 0.75000 0.12530 -0.24800
C 	C 	0.75000 0.75000 0.22230 0.01200
Zn	Zn	0.75000 0.75000 0.05223 1.22900
N 	N 	0.75000 0.25000 0.62530 -0.24800
C 	C 	0.75000 0.25000 0.72230 0.01200
Zn	Zn	0.75000 0.25000 0.55223 1.23000
N 	N 	0.75000 0.25000 0.87470 -0.24800
C 	C 	0.75000 0.25000 0.77770 0.01200
Zn	Zn	0.75000 0.25000 0.94777 1.23100
N 	N 	0.75000 0.75000 0.37470 -0.24800
C 	C 	0.75000 0.75000 0.27770 0.01200
Zn	Zn	0.75000 0.75000 0.44777 1.23000
N 	N 	0.25000 0.25000 0.37470 -0.24800
C 	C 	0.25000 0.25000 0.27770 0.01200
Zn	Zn	0.25000 0.25000 0.44777 1.23000
N 	N 	0.25000 0.75000 0.87470 -0.24800
C 	C 	0.25000 0.75000 0.77770 0.01200
Zn	Zn	0.25000 0.75000 0.94777 1.23000
N 	N 	0.75000 0.75000 0.87470 -0.24800
C 	C 	0.75000 0.75000 0.77770 0.01200
Zn	Zn	0.75000 0.75000 0.94777 1.23100
N 	N 	0.75000 0.25000 0.37470 -0.24800
C 	C 	0.75000 0.25000 0.27770 0.01200
Zn	Zn	0.75000 0.25000 0.44777 1.23000
N 	N 	0.25000 0.25000 0.87470 -0.24800
C 	C 	0.25000 0.25000 0.77770 0.01200
Zn	Zn	0.25000 0.25000 0.94777 1.23000
N 	N 	0.25000 0.75000 0.37470 -0.24800
C 	C 	0.25000 0.75000 0.27770 0.01200
Zn	Zn	0.25000 0.75000 0.44777 1.23000
N 	N 	0.25000 0.75000 0.12530 -0.24800
C 	C 	0.25000 0.75000 0.22230 0.01200
Zn	Zn	0.25000 0.75000 0.05223 1.22900
N 	N 	0.25000 0.25000 0.62530 -0.24800
C 	C 	0.25000 0.25000 0.72230 0.01200
Zn	Zn	0.25000 0.25000 0.55223 1.23000
N 	N 	0.75000 0.25000 0.12530 -0.24800
C 	C 	0.75000 0.25000 0.22230 0.01200
Zn	Zn	0.75000 0.25000 0.05223 1.22900
N 	N 	0.75000 0.75000 0.62530 -0.24800
C 	C 	0.75000 0.75000 0.72230 0.01200
Zn	Zn	0.75000 0.75000 0.55223 1.23000
C 	C 	0.33300 0.26280 -0.00000 0.34200
C 	C 	0.22850 0.38340 -0.00000 -0.14100
C 	C 	0.38490 0.26950 -0.00000 -0.14800
C 	C 	0.23580 0.33340 -0.00000 0.37800
C 	C 	0.21610 0.47590 -0.00000 -0.00600
C 	C 	0.47490 0.27900 -0.00000 -0.01000
C 	C 	0.33300 0.76280 0.50000 0.35600
C 	C 	0.22850 0.88340 0.50000 -0.12500
C 	C 	0.38490 0.76950 0.50000 -0.13200
C 	C 	0.23580 0.83340 0.50000 0.39300
C 	C 	0.21610 0.97590 0.50000 0.00200
C 	C 	0.47490 0.77900 0.50000 0.01000
C 	C 	0.83300 0.26280 0.50000 0.36000
C 	C 	0.72850 0.38340 0.50000 -0.12500
C 	C 	0.88490 0.26950 0.50000 -0.14000
C 	C 	0.73580 0.33340 0.50000 0.39400
C 	C 	0.71610 0.47590 0.50000 0.00900
C 	C 	0.97490 0.27900 0.50000 0.07300
C 	C 	0.83300 0.76280 -0.00000 0.34500
C 	C 	0.72850 0.88340 -0.00000 -0.14000
C 	C 	0.88490 0.76950 -0.00000 -0.15500
C 	C 	0.73580 0.83340 -0.00000 0.37800
C 	C 	0.71610 0.97590 -0.00000 -0.01400
C 	C 	0.97490 0.77900 -0.00000 0.05000
C 	C 	0.66700 0.73720 -0.00000 0.34200
C 	C 	0.77150 0.61660 -0.00000 -0.14200
C 	C 	0.61510 0.73050 -0.00000 -0.14800
C 	C 	0.76420 0.66660 -0.00000 0.37900
C 	C 	0.78390 0.52410 -0.00000 -0.00600
C 	C 	0.52510 0.72100 -0.00000 -0.01000
C 	C 	0.66700 0.23720 0.50000 0.35600
C 	C 	0.77150 0.11660 0.50000 -0.12700
C 	C 	0.61510 0.23050 0.50000 -0.13300
C 	C 	0.76420 0.16660 0.50000 0.39500
C 	C 	0.78390 0.02410 0.50000 0.01600
C 	C 	0.52510 0.22100 0.50000 0.01000
C 	C 	0.16700 0.73720 0.50000 0.35300
C 	C 	0.27150 0.61660 0.50000 -0.12600
C 	C 	0.11510 0.73050 0.50000 -0.12600
C 	C 	0.26420 0.66660 0.50000 0.39400
C 	C 	0.28390 0.52410 0.50000 0.00900
C 	C 	0.02510 0.72100 0.50000 -0.05200
C 	C 	0.16700 0.23720 -0.00000 0.33900
C 	C 	0.27150 0.11660 -0.00000 -0.14200
C 	C 	0.11510 0.23050 -0.00000 -0.14100
C 	C 	0.26420 0.16660 -0.00000 0.37900
C 	C 	0.28390 0.02410 -0.00000 0.00100
C 	C 	0.02510 0.22100 -0.00000 -0.07200
C 	C 	0.66700 0.26280 -0.00000 0.34200
C 	C 	0.77150 0.38340 -0.00000 -0.14200
C 	C 	0.61510 0.26950 -0.00000 -0.14800
C 	C 	0.76420 0.33340 -0.00000 0.37900
C 	C 	0.78390 0.47590 -0.00000 -0.00600
C 	C 	0.52510 0.27900 -0.00000 -0.01000
C 	C 	0.66700 0.76280 0.50000 0.35600
C 	C 	0.77150 0.88340 0.50000 -0.12600
C 	C 	0.61510 0.76950 0.50000 -0.13200
C 	C 	0.76420 0.83340 0.50000 0.39400
C 	C 	0.78390 0.97590 0.50000 0.00000
C 	C 	0.52510 0.77900 0.50000 0.01000
C 	C 	0.16700 0.26280 0.50000 0.35300
C 	C 	0.27150 0.38340 0.50000 -0.12600
C 	C 	0.11510 0.26950 0.50000 -0.12600
C 	C 	0.26420 0.33340 0.50000 0.39400
C 	C 	0.28390 0.47590 0.50000 0.00900
C 	C 	0.02510 0.27900 0.50000 -0.05300
C 	C 	0.16700 0.76280 -0.00000 0.33900
C 	C 	0.27150 0.88340 -0.00000 -0.14100
C 	C 	0.11510 0.76950 -0.00000 -0.14100
C 	C 	0.26420 0.83340 -0.00000 0.37800
C 	C 	0.28390 0.97590 -0.00000 -0.01300
C 	C 	0.02510 0.77900 -0.00000 -0.07000
C 	C 	0.33300 0.73720 -0.00000 0.34200
C 	C 	0.22850 0.61660 -0.00000 -0.14100
C 	C 	0.38490 0.73050 -0.00000 -0.14800
C 	C 	0.23580 0.66660 -0.00000 0.37800
C 	C 	0.21610 0.52410 -0.00000 -0.00600
C 	C 	0.47490 0.72100 -0.00000 -0.01000
C 	C 	0.33300 0.23720 0.50000 0.35600
C 	C 	0.22850 0.11660 0.50000 -0.12600
C 	C 	0.38490 0.23050 0.50000 -0.13300
C 	C 	0.23580 0.16660 0.50000 0.39300
C 	C 	0.21610 0.02410 0.50000 0.01500
C 	C 	0.47490 0.22100 0.50000 0.01000
C 	C 	0.83300 0.73720 0.50000 0.35900
C 	C 	0.72850 0.61660 0.50000 -0.12500
C 	C 	0.88490 0.73050 0.50000 -0.14000
C 	C 	0.73580 0.66660 0.50000 0.39400
C 	C 	0.71610 0.52410 0.50000 0.00900
C 	C 	0.97490 0.72100 0.50000 0.07200
C 	C 	0.83300 0.23720 -0.00000 0.34500
C 	C 	0.72850 0.11660 -0.00000 -0.14100
C 	C 	0.88490 0.23050 -0.00000 -0.15500
C 	C 	0.73580 0.16660 -0.00000 0.37900
C 	C 	0.71610 0.02410 -0.00000 0.00200
C 	C 	0.97490 0.22100 -0.00000 0.05200
O 	O 	0.14960 0.50000 0.93340 -0.08700
O 	O 	0.14960 0.00000 0.43340 -0.08700
O 	O 	0.64960 0.50000 0.43340 -0.09000
O 	O 	0.64960 0.00000 0.93340 -0.08200
O 	O 	0.85040 0.50000 0.93340 -0.08500
O 	O 	0.85040 0.00000 0.43340 -0.08400
O 	O 	0.35040 0.50000 0.43340 -0.09000
O 	O 	0.35040 0.00000 0.93340 -0.08200
O 	O 	0.85040 0.50000 0.06660 -0.09100
O 	O 	0.85040 0.00000 0.56660 -0.08400
O 	O 	0.35040 0.50000 0.56660 -0.09000
O 	O 	0.35040 0.00000 0.06660 -0.08700
O 	O 	0.14960 0.50000 0.06660 -0.09300
O 	O 	0.14960 0.00000 0.56660 -0.08700
O 	O 	0.64960 0.50000 0.56660 -0.09000
O 	O 	0.64960 0.00000 0.06660 -0.08700
