data_crystal

_cell_length_a 8.20600
_cell_length_b 14.18330
_cell_length_c 14.18330
_cell_angle_alpha 110.03100
_cell_angle_beta  91.26500
_cell_angle_gamma 88.73500

_symmetry_space_group_name_	'P 1'
_symmetry_space_group_name_H-M	'P 1'

loop_
_symmetry_equiv_pos_as_xyz
  x,y,z

loop_
_atom_site_label
_atom_site_type_symbol
_atom_site_fract_x
_atom_site_fract_y
_atom_site_fract_z
_atom_site_charge
La	La	0.00345 0.74878 0.21800 1.54800
La	La	0.50345 0.78200 0.25122 1.62200
H 	H 	0.49730 0.56320 0.60220 0.08200
H 	H 	0.42870 0.28180 0.40820 0.07300
H 	H 	0.27710 0.35740 0.69480 0.07300
H 	H 	0.46390 0.74290 0.95370 0.01400
H 	H 	0.52670 0.66030 0.77510 0.05400
H 	H 	0.78460 0.39560 0.21720 0.04800
H 	H 	0.62670 0.31350 0.31430 0.04900
H 	H 	0.05090 0.03950 0.57070 0.03000
H 	H 	0.13170 0.21460 0.64780 0.04100
H 	H 	0.99730 0.39780 0.43680 0.13200
H 	H 	0.92870 0.59180 0.71820 0.11800
H 	H 	0.77710 0.30520 0.64260 0.10200
H 	H 	0.96390 0.04630 0.25710 0.06400
H 	H 	0.02670 0.22490 0.33970 -0.06500
H 	H 	0.28460 0.78280 0.60440 0.04600
H 	H 	0.12670 0.68570 0.68650 0.01400
H 	H 	0.55090 0.42930 0.96050 0.04600
H 	H 	0.63170 0.35220 0.78540 0.05100
C 	C 	0.38510 0.47390 0.66550 0.07200
C 	C 	0.45940 0.49700 0.58880 -0.13300
C 	C 	0.48020 0.42600 0.49280 0.08000
C 	C 	0.41860 0.33020 0.47360 -0.13800
C 	C 	0.34250 0.30340 0.54780 0.07100
C 	C 	0.32710 0.37510 0.64350 -0.13500
C 	C 	0.36720 0.54780 0.76740 -0.01800
C 	C 	0.30000 0.63240 0.94540 -0.10400
C 	C 	0.41470 0.68240 0.91220 0.01300
C 	C 	0.45170 0.63490 0.81030 -0.07000
C 	C 	0.22900 0.65950 0.04630 0.33300
C 	C 	0.56830 0.44890 0.41470 -0.02200
C 	C 	0.71670 0.53430 0.31670 -0.09100
C 	C 	0.72590 0.43130 0.27610 0.00900
C 	C 	0.63650 0.38420 0.33300 -0.05800
C 	C 	0.79480 0.60770 0.27970 0.33600
C 	C 	0.27490 0.20260 0.52680 -0.02200
C 	C 	0.19400 0.02420 0.45020 -0.09000
C 	C 	0.12380 0.07140 0.54040 0.00600
C 	C 	0.16960 0.17190 0.58450 -0.06900
C 	C 	0.15830 0.92280 0.37860 0.32200
C 	C 	0.88510 0.33450 0.52610 0.15700
C 	C 	0.95940 0.41120 0.50300 -0.20600
C 	C 	0.98020 0.50720 0.57400 0.21100
C 	C 	0.91860 0.52640 0.66980 -0.19800
C 	C 	0.84250 0.45220 0.69660 0.13300
C 	C 	0.82710 0.35650 0.62490 -0.17600
C 	C 	0.86720 0.23260 0.45220 -0.09200
C 	C 	0.80000 0.05460 0.36760 -0.06700
C 	C 	0.91470 0.08780 0.31760 -0.06700
C 	C 	0.95170 0.18970 0.36510 0.12200
C 	C 	0.72900 0.95370 0.34050 0.32700
C 	C 	0.06830 0.58530 0.55110 -0.12200
C 	C 	0.21670 0.68330 0.46570 -0.08800
C 	C 	0.22590 0.72390 0.56870 -0.02100
C 	C 	0.13650 0.66700 0.61580 -0.00900
C 	C 	0.29480 0.72030 0.39230 0.33000
C 	C 	0.77490 0.47320 0.79740 -0.03400
C 	C 	0.69400 0.54980 0.97580 -0.07800
C 	C 	0.62380 0.45960 0.92860 0.01000
C 	C 	0.66960 0.41550 0.82810 -0.04400
C 	C 	0.65830 0.62140 0.07720 0.32500
S 	S 	0.23590 0.52682 0.85064 0.00400
S 	S 	0.59990 0.57177 0.42367 0.03900
S 	S 	0.32130 0.10408 0.41864 0.00700
S 	S 	0.73590 0.14936 0.47318 0.05900
S 	S 	0.09990 0.57633 0.42823 -0.00000
S 	S 	0.82130 0.58136 0.89592 0.06000
O 	O 	0.29030 0.73230 0.11670 -0.50500
O 	O 	0.10950 0.61230 0.05930 -0.40300
O 	O 	0.90610 0.57920 0.21820 -0.33300
O 	O 	0.74750 0.69960 0.31540 -0.42100
O 	O 	0.05320 0.87110 0.39850 -0.39600
O 	O 	0.23630 0.89120 0.29580 -0.47700
O 	O 	0.79030 0.88330 0.26770 -0.47200
O 	O 	0.60950 0.94070 0.38770 -0.36900
O 	O 	0.40610 0.78180 0.42080 -0.36700
O 	O 	0.24750 0.68460 0.30040 -0.44500
O 	O 	0.55320 0.60150 0.12890 -0.37600
O 	O 	0.73630 0.70420 0.10880 -0.45200
