data_crystal

_cell_length_a 26.58790
_cell_length_b 26.58790
_cell_length_c 67.33100
_cell_angle_alpha 90.00000
_cell_angle_beta  90.00000
_cell_angle_gamma 120.00000

_symmetry_space_group_name_	'P 1'
_symmetry_space_group_name_H-M	'P 1'

loop_
_symmetry_equiv_pos_as_xyz
  x,y,z

loop_
_atom_site_label
_atom_site_type_symbol
_atom_site_fract_x
_atom_site_fract_y
_atom_site_fract_z
_atom_site_charge
Cd	Cd	0.81427 0.67095 0.61426 1.24100
O 	O 	0.74820 0.64410 0.58810 -0.35700
O 	O 	0.83100 0.64880 0.58233 -0.35900
C 	C 	0.78210 0.63880 0.57691 0.31000
C 	C 	0.79440 0.60640 0.52235 -0.02300
C 	C 	0.80770 0.62380 0.54210 -0.02500
H 	H 	0.84550 0.63770 0.54660 0.05800
C 	C 	0.70990 0.60110 0.54897 0.00100
H 	H 	0.68160 0.59830 0.55770 0.05700
C 	C 	0.69650 0.58500 0.52916 -0.08500
H 	H 	0.65890 0.57270 0.52480 0.06900
C 	C 	0.76570 0.62100 0.55533 -0.05600
C 	C 	0.83670 0.60430 0.50927 0.03900
C 	C 	0.82020 0.58130 0.49034 -0.02800
C 	C 	0.72130 0.56770 0.49536 -0.03000
C 	C 	0.66600 0.55120 0.48792 -0.00100
H 	H 	0.63890 0.55300 0.49620 0.03600
C 	C 	0.73700 0.58640 0.51563 0.03500
C 	C 	0.76230 0.56380 0.48244 0.04400
C 	C 	0.85850 0.57150 0.47858 -0.00700
H 	H 	0.84770 0.55660 0.46580 0.05300
C 	C 	0.65050 0.53200 0.46818 -0.09800
C 	C 	0.74540 0.54540 0.46269 -0.10300
H 	H 	0.77180 0.54400 0.45400 0.07600
C 	C 	0.69090 0.52960 0.45614 0.03700
H 	H 	0.68080 0.51670 0.44310 0.04100
C 	C 	0.91250 0.58400 0.48607 -0.08600
C 	C 	0.92990 0.61000 0.50445 0.02500
H 	H 	0.96660 0.62020 0.50930 0.03500
C 	C 	0.89330 0.62060 0.51559 -0.09700
H 	H 	0.90620 0.63930 0.52780 0.07200
O 	O 	0.78010 0.58030 0.62259 -0.43900
C 	C 	0.78450 0.55730 0.63823 0.39500
C 	C 	0.94860 0.56620 0.47427 0.32900
O 	O 	0.80050 0.57840 0.65507 -0.44000
C 	C 	0.59050 0.51350 0.46094 0.34700
C 	C 	0.76460 0.49350 0.63745 -0.11500
O 	O 	0.55630 0.52110 0.47182 -0.50000
O 	O 	0.99298 0.56943 0.48175 -0.45500
O 	O 	0.93350 0.54990 0.45627 -0.37700
O 	O 	0.57640 0.49080 0.44403 -0.36200
C 	C 	0.68640 0.39320 0.63625 -0.05800
C 	C 	0.72630 0.37440 0.63577 0.07600
C 	C 	0.70700 0.45400 0.63664 0.03100
H 	H 	0.68040 0.46700 0.63630 0.02900
C 	C 	0.78570 0.41500 0.63710 -0.12200
H 	H 	0.81280 0.40260 0.63750 0.08200
C 	C 	0.80410 0.47470 0.63780 0.05600
H 	H 	0.84350 0.50170 0.63850 0.02300
Cd	Cd	0.48094 0.00428 0.94760 1.23900
O 	O 	0.41487 0.97743 0.92143 -0.35300
O 	O 	0.49767 0.98213 0.91566 -0.35500
C 	C 	0.44877 0.97213 0.91024 0.31100
C 	C 	0.46107 0.93973 0.85568 -0.02200
C 	C 	0.47437 0.95713 0.87543 -0.02400
H 	H 	0.51217 0.97103 0.87993 0.06000
C 	C 	0.37657 0.93443 0.88230 0.00200
H 	H 	0.34827 0.93163 0.89103 0.05800
C 	C 	0.36317 0.91833 0.86249 -0.08400
H 	H 	0.32557 0.90603 0.85813 0.07000
C 	C 	0.43237 0.95433 0.88866 -0.05400
C 	C 	0.50337 0.93763 0.84260 0.04100
C 	C 	0.48687 0.91463 0.82367 -0.02700
C 	C 	0.38797 0.90103 0.82869 -0.02900
C 	C 	0.33267 0.88453 0.82125 -0.00000
H 	H 	0.30557 0.88633 0.82953 0.03700
C 	C 	0.40367 0.91973 0.84896 0.03600
C 	C 	0.42897 0.89713 0.81577 0.04600
C 	C 	0.52517 0.90483 0.81191 -0.00500
H 	H 	0.51437 0.88993 0.79913 0.05300
C 	C 	0.31717 0.86533 0.80151 -0.09700
C 	C 	0.41207 0.87873 0.79602 -0.10300
H 	H 	0.43847 0.87733 0.78733 0.07600
C 	C 	0.35757 0.86293 0.78947 0.03700
H 	H 	0.34747 0.85003 0.77643 0.04100
C 	C 	0.57917 0.91733 0.81940 -0.08700
C 	C 	0.59657 0.94333 0.83778 0.02700
H 	H 	0.63327 0.95353 0.84263 0.03300
C 	C 	0.55997 0.95393 0.84892 -0.09800
H 	H 	0.57287 0.97263 0.86113 0.07200
O 	O 	0.44677 0.91363 0.95592 -0.43600
C 	C 	0.45117 0.89063 0.97156 0.39500
C 	C 	0.61527 0.89953 0.80760 0.33000
O 	O 	0.46717 0.91173 0.98840 -0.43800
C 	C 	0.25717 0.84683 0.79427 0.34700
C 	C 	0.43127 0.82683 0.97078 -0.11400
O 	O 	0.22297 0.85443 0.80515 -0.49900
O 	O 	0.65965 0.90276 0.81508 -0.45900
O 	O 	0.60017 0.88323 0.78960 -0.37900
O 	O 	0.24307 0.82413 0.77736 -0.36200
C 	C 	0.35307 0.72653 0.96958 -0.05800
C 	C 	0.39297 0.70773 0.96910 0.07600
C 	C 	0.37367 0.78733 0.96997 0.03100
H 	H 	0.34707 0.80033 0.96963 0.02900
C 	C 	0.45237 0.74833 0.97043 -0.12200
H 	H 	0.47947 0.73593 0.97083 0.08200
C 	C 	0.47077 0.80803 0.97113 0.05500
H 	H 	0.51017 0.83503 0.97183 0.02300
Cd	Cd	0.14760 0.33762 0.28093 1.24200
O 	O 	0.08153 0.31077 0.25477 -0.36000
O 	O 	0.16433 0.31547 0.24900 -0.36000
C 	C 	0.11543 0.30547 0.24358 0.31500
C 	C 	0.12773 0.27307 0.18902 -0.03200
C 	C 	0.14103 0.29047 0.20877 -0.01500
H 	H 	0.17883 0.30437 0.21327 0.05500
C 	C 	0.04323 0.26777 0.21564 0.02000
H 	H 	0.01493 0.26497 0.22437 0.04800
C 	C 	0.02983 0.25167 0.19583 -0.11600
H 	H 	0.99223 0.23937 0.19147 0.08600
C 	C 	0.09903 0.28767 0.22200 -0.06600
C 	C 	0.17003 0.27097 0.17594 0.04600
C 	C 	0.15353 0.24797 0.15701 -0.03200
C 	C 	0.05463 0.23437 0.16203 -0.04600
C 	C 	0.99933 0.21787 0.15459 0.01300
H 	H 	0.97223 0.21967 0.16287 0.03300
C 	C 	0.07033 0.25307 0.18230 0.05100
C 	C 	0.09563 0.23047 0.14911 0.04900
C 	C 	0.19183 0.23817 0.14525 -0.00200
H 	H 	0.18103 0.22327 0.13247 0.05100
C 	C 	0.98383 0.19867 0.13485 -0.09200
C 	C 	0.07873 0.21207 0.12936 -0.10300
H 	H 	0.10513 0.21067 0.12067 0.07500
C 	C 	0.02423 0.19627 0.12281 0.02600
H 	H 	0.01413 0.18337 0.10977 0.04100
C 	C 	0.24583 0.25067 0.15274 -0.09000
C 	C 	0.26323 0.27667 0.17112 0.02900
H 	H 	0.29993 0.28687 0.17597 0.03100
C 	C 	0.22663 0.28727 0.18226 -0.10300
H 	H 	0.23953 0.30597 0.19447 0.07300
O 	O 	0.11343 0.24697 0.28926 -0.44000
C 	C 	0.11783 0.22397 0.30490 0.39600
C 	C 	0.28193 0.23287 0.14094 0.33100
O 	O 	0.13383 0.24507 0.32174 -0.44100
C 	C 	0.92383 0.18017 0.12761 0.34600
C 	C 	0.09793 0.16017 0.30412 -0.11700
O 	O 	0.88963 0.18777 0.13849 -0.49900
O 	O 	0.32631 0.23610 0.14842 -0.46000
O 	O 	0.26683 0.21657 0.12294 -0.38000
O 	O 	0.90973 0.15747 0.11070 -0.36100
C 	C 	0.01973 0.05987 0.30292 -0.06900
C 	C 	0.05963 0.04107 0.30244 0.06700
C 	C 	0.04033 0.12067 0.30331 0.03500
H 	H 	0.01373 0.13367 0.30297 0.02400
C 	C 	0.11903 0.08167 0.30377 -0.12000
H 	H 	0.14613 0.06927 0.30417 0.07900
C 	C 	0.13743 0.14137 0.30447 0.05500
H 	H 	0.17683 0.16837 0.30517 0.02300
Cd	Cd	0.32905 0.14332 0.61426 1.24200
O 	O 	0.35590 0.10410 0.58810 -0.35800
O 	O 	0.35120 0.18220 0.58233 -0.35900
C 	C 	0.36120 0.14330 0.57691 0.31100
C 	C 	0.39360 0.18800 0.52235 -0.02300
C 	C 	0.37620 0.18390 0.54210 -0.02400
H 	H 	0.36230 0.20780 0.54660 0.05800
C 	C 	0.39890 0.10880 0.54897 0.00100
H 	H 	0.40170 0.08330 0.55770 0.05600
C 	C 	0.41500 0.11150 0.52916 -0.08500
H 	H 	0.42730 0.08620 0.52480 0.06900
C 	C 	0.37900 0.14470 0.55533 -0.05600
C 	C 	0.39570 0.23240 0.50927 0.04000
C 	C 	0.41870 0.23890 0.49034 -0.02900
C 	C 	0.43230 0.15360 0.49536 -0.03100
C 	C 	0.44880 0.11480 0.48792 0.00000
H 	H 	0.44700 0.08590 0.49620 0.03500
C 	C 	0.41360 0.15060 0.51563 0.03600
C 	C 	0.43620 0.19850 0.48244 0.04600
C 	C 	0.42850 0.28700 0.47858 -0.00500
H 	H 	0.44340 0.29110 0.46580 0.05300
C 	C 	0.46800 0.11850 0.46818 -0.09900
C 	C 	0.45460 0.20000 0.46269 -0.10500
H 	H 	0.45600 0.22780 0.45400 0.07600
C 	C 	0.47040 0.16130 0.45614 0.03700
H 	H 	0.48330 0.16410 0.44310 0.04000
C 	C 	0.41600 0.32850 0.48607 -0.08800
C 	C 	0.39000 0.31990 0.50445 0.02600
H 	H 	0.37980 0.34640 0.50930 0.03200
C 	C 	0.37940 0.27270 0.51559 -0.09900
H 	H 	0.36070 0.26690 0.52780 0.07100
O 	O 	0.41970 0.19980 0.62259 -0.43900
C 	C 	0.44270 0.22720 0.63823 0.39500
C 	C 	0.43380 0.38240 0.47427 0.33000
O 	O 	0.42160 0.22210 0.65507 -0.44000
C 	C 	0.48650 0.07700 0.46094 0.34700
C 	C 	0.50650 0.27110 0.63745 -0.11500
O 	O 	0.47890 0.03520 0.47182 -0.50300
O 	O 	0.43057 0.42355 0.48175 -0.46000
O 	O 	0.45010 0.38360 0.45627 -0.38000
O 	O 	0.50920 0.08560 0.44403 -0.36400
C 	C 	0.60680 0.29320 0.63625 -0.05800
C 	C 	0.62560 0.35190 0.63577 0.07600
C 	C 	0.54600 0.25300 0.63664 0.03100
H 	H 	0.53300 0.21340 0.63630 0.02900
C 	C 	0.58500 0.37070 0.63710 -0.12200
H 	H 	0.59740 0.41020 0.63750 0.08200
C 	C 	0.52530 0.32940 0.63780 0.05600
H 	H 	0.49830 0.34180 0.63850 0.02300
Cd	Cd	0.99572 0.47665 0.94760 1.24500
O 	O 	0.02257 0.43743 0.92143 -0.36000
O 	O 	0.01787 0.51553 0.91566 -0.36200
C 	C 	0.02787 0.47663 0.91024 0.31200
C 	C 	0.06027 0.52133 0.85568 -0.02400
C 	C 	0.04287 0.51723 0.87543 -0.02400
H 	H 	0.02897 0.54113 0.87993 0.05700
C 	C 	0.06557 0.44213 0.88230 0.00200
H 	H 	0.06837 0.41663 0.89103 0.05700
C 	C 	0.08167 0.44483 0.86249 -0.08600
H 	H 	0.09397 0.41953 0.85813 0.07000
C 	C 	0.04567 0.47803 0.88866 -0.05700
C 	C 	0.06237 0.56573 0.84260 0.04000
C 	C 	0.08537 0.57223 0.82367 -0.02900
C 	C 	0.09897 0.48693 0.82869 -0.03000
C 	C 	0.11547 0.44813 0.82125 -0.00000
H 	H 	0.11367 0.41923 0.82953 0.03600
C 	C 	0.08027 0.48393 0.84896 0.03600
C 	C 	0.10287 0.53183 0.81577 0.04500
C 	C 	0.09517 0.62033 0.81191 -0.00500
H 	H 	0.11007 0.62443 0.79913 0.05200
C 	C 	0.13467 0.45183 0.80151 -0.09800
C 	C 	0.12127 0.53333 0.79602 -0.10400
H 	H 	0.12267 0.56113 0.78733 0.07500
C 	C 	0.13707 0.49463 0.78947 0.03700
H 	H 	0.14997 0.49743 0.77643 0.04000
C 	C 	0.08267 0.66183 0.81940 -0.08900
C 	C 	0.05667 0.65323 0.83778 0.02600
H 	H 	0.04647 0.67973 0.84263 0.03200
C 	C 	0.04607 0.60603 0.84892 -0.09900
H 	H 	0.02737 0.60023 0.86113 0.07000
O 	O 	0.08637 0.53313 0.95592 -0.44100
C 	C 	0.10937 0.56053 0.97156 0.39500
C 	C 	0.10047 0.71573 0.80760 0.33000
O 	O 	0.08827 0.55543 0.98840 -0.44200
C 	C 	0.15317 0.41033 0.79427 0.34700
C 	C 	0.17317 0.60443 0.97078 -0.11500
O 	O 	0.14557 0.36853 0.80515 -0.50000
O 	O 	0.09724 0.75688 0.81508 -0.46000
O 	O 	0.11677 0.71693 0.78960 -0.38000
O 	O 	0.17587 0.41893 0.77736 -0.36300
C 	C 	0.27347 0.62653 0.96958 -0.05800
C 	C 	0.29227 0.68523 0.96910 0.07600
C 	C 	0.21267 0.58633 0.96997 0.03100
H 	H 	0.19967 0.54673 0.96963 0.02900
C 	C 	0.25167 0.70403 0.97043 -0.12200
H 	H 	0.26407 0.74353 0.97083 0.08200
C 	C 	0.19197 0.66273 0.97113 0.05600
H 	H 	0.16497 0.67513 0.97183 0.02200
Cd	Cd	0.66238 0.80999 0.28093 1.24200
O 	O 	0.68923 0.77077 0.25477 -0.35600
O 	O 	0.68453 0.84887 0.24900 -0.35700
C 	C 	0.69453 0.80997 0.24358 0.31200
C 	C 	0.72693 0.85467 0.18902 -0.02400
C 	C 	0.70953 0.85057 0.20877 -0.02200
H 	H 	0.69563 0.87447 0.21327 0.05800
C 	C 	0.73223 0.77547 0.21564 0.00300
H 	H 	0.73503 0.74997 0.22437 0.05700
C 	C 	0.74833 0.77817 0.19583 -0.08600
H 	H 	0.76063 0.75287 0.19147 0.07000
C 	C 	0.71233 0.81137 0.22200 -0.05600
C 	C 	0.72903 0.89907 0.17594 0.04600
C 	C 	0.75203 0.90557 0.15701 -0.03000
C 	C 	0.76563 0.82027 0.16203 -0.03000
C 	C 	0.78213 0.78147 0.15459 0.00100
H 	H 	0.78033 0.75257 0.16287 0.03600
C 	C 	0.74693 0.81727 0.18230 0.03800
C 	C 	0.76953 0.86517 0.14911 0.04700
C 	C 	0.76183 0.95367 0.14525 -0.00300
H 	H 	0.77673 0.95777 0.13247 0.05500
C 	C 	0.80133 0.78517 0.13485 -0.09700
C 	C 	0.78793 0.86667 0.12936 -0.10400
H 	H 	0.78933 0.89447 0.12067 0.07800
C 	C 	0.80373 0.82797 0.12281 0.03800
H 	H 	0.81663 0.83077 0.10977 0.04200
C 	C 	0.74933 0.99517 0.15274 -0.08700
C 	C 	0.72333 0.98657 0.17112 0.04600
H 	H 	0.71313 0.01307 0.17597 0.02000
C 	C 	0.71273 0.93937 0.18226 -0.11000
H 	H 	0.69403 0.93357 0.19447 0.07700
O 	O 	0.75303 0.86647 0.28926 -0.44000
C 	C 	0.77603 0.89387 0.30490 0.40200
C 	C 	0.76713 0.04907 0.14094 0.32500
O 	O 	0.75493 0.88877 0.32174 -0.44100
C 	C 	0.81983 0.74367 0.12761 0.34700
C 	C 	0.83983 0.93777 0.30412 -0.13100
O 	O 	0.81223 0.70187 0.13849 -0.49900
O 	O 	0.76390 0.09022 0.14842 -0.45900
O 	O 	0.78343 0.05027 0.12294 -0.38100
O 	O 	0.84253 0.75227 0.11070 -0.36100
C 	C 	0.94013 0.95987 0.30292 -0.05600
C 	C 	0.95893 0.01857 0.30244 0.08700
C 	C 	0.87933 0.91967 0.30331 0.04100
H 	H 	0.86633 0.88007 0.30297 0.02700
C 	C 	0.91833 0.03737 0.30377 -0.15300
H 	H 	0.93073 0.07687 0.30417 0.09400
C 	C 	0.85863 0.99607 0.30447 0.09800
H 	H 	0.83163 0.00847 0.30517 0.00300
Cd	Cd	0.85668 0.18573 0.61426 1.24200
O 	O 	0.89590 0.25180 0.58810 -0.35600
O 	O 	0.81780 0.16900 0.58233 -0.35900
C 	C 	0.85670 0.21790 0.57691 0.31200
C 	C 	0.81200 0.20560 0.52235 -0.02300
C 	C 	0.81610 0.19230 0.54210 -0.02300
H 	H 	0.79220 0.15450 0.54660 0.05800
C 	C 	0.89120 0.29010 0.54897 0.00300
H 	H 	0.91670 0.31840 0.55770 0.05800
C 	C 	0.88850 0.30350 0.52916 -0.08500
H 	H 	0.91380 0.34110 0.52480 0.07200
C 	C 	0.85530 0.23430 0.55533 -0.05500
C 	C 	0.76760 0.16330 0.50927 0.04100
C 	C 	0.76110 0.17980 0.49034 -0.02800
C 	C 	0.84640 0.27870 0.49536 -0.02900
C 	C 	0.88520 0.33400 0.48792 -0.00100
H 	H 	0.91410 0.36110 0.49620 0.03800
C 	C 	0.84940 0.26300 0.51563 0.03700
C 	C 	0.80150 0.23770 0.48244 0.04500
C 	C 	0.71300 0.14150 0.47858 -0.00400
H 	H 	0.70890 0.15230 0.46580 0.05200
C 	C 	0.88150 0.34950 0.46818 -0.09600
C 	C 	0.80000 0.25460 0.46269 -0.10300
H 	H 	0.77220 0.22820 0.45400 0.07600
C 	C 	0.83870 0.30910 0.45614 0.03600
H 	H 	0.83590 0.31920 0.44310 0.04200
C 	C 	0.67150 0.08750 0.48607 -0.09000
C 	C 	0.68010 0.07010 0.50445 0.02700
H 	H 	0.65360 0.03340 0.50930 0.03000
C 	C 	0.72730 0.10670 0.51559 -0.10000
H 	H 	0.73310 0.09380 0.52780 0.07100
O 	O 	0.80020 0.21990 0.62259 -0.43900
C 	C 	0.77280 0.21550 0.63823 0.39500
C 	C 	0.61760 0.05140 0.47427 0.33100
O 	O 	0.77790 0.19950 0.65507 -0.44000
C 	C 	0.92300 0.40950 0.46094 0.34600
C 	C 	0.72890 0.23540 0.63745 -0.11500
O 	O 	0.96480 0.44370 0.47182 -0.49600
O 	O 	0.57645 0.00702 0.48175 -0.46400
O 	O 	0.61640 0.06650 0.45627 -0.38200
O 	O 	0.91440 0.42360 0.44403 -0.36000
C 	C 	0.70680 0.31360 0.63625 -0.05800
C 	C 	0.64810 0.27370 0.63577 0.07600
C 	C 	0.74700 0.29300 0.63664 0.03100
H 	H 	0.78660 0.31960 0.63630 0.02900
C 	C 	0.62930 0.21430 0.63710 -0.12200
H 	H 	0.58980 0.18720 0.63750 0.08200
C 	C 	0.67060 0.19590 0.63780 0.05600
H 	H 	0.65820 0.15650 0.63850 0.02300
Cd	Cd	0.52335 0.51906 0.94760 1.24200
O 	O 	0.56257 0.58513 0.92143 -0.35600
O 	O 	0.48447 0.50233 0.91566 -0.35900
C 	C 	0.52337 0.55123 0.91024 0.31200
C 	C 	0.47867 0.53893 0.85568 -0.02300
C 	C 	0.48277 0.52563 0.87543 -0.02400
H 	H 	0.45887 0.48783 0.87993 0.05800
C 	C 	0.55787 0.62343 0.88230 0.00200
H 	H 	0.58337 0.65173 0.89103 0.05700
C 	C 	0.55517 0.63683 0.86249 -0.08500
H 	H 	0.58047 0.67443 0.85813 0.07000
C 	C 	0.52197 0.56763 0.88866 -0.05500
C 	C 	0.43427 0.49663 0.84260 0.04100
C 	C 	0.42777 0.51313 0.82367 -0.02800
C 	C 	0.51307 0.61203 0.82869 -0.02900
C 	C 	0.55187 0.66733 0.82125 -0.00000
H 	H 	0.58077 0.69443 0.82953 0.03700
C 	C 	0.51607 0.59633 0.84896 0.03600
C 	C 	0.46817 0.57103 0.81577 0.04500
C 	C 	0.37967 0.47483 0.81191 -0.00500
H 	H 	0.37557 0.48563 0.79913 0.05300
C 	C 	0.54817 0.68283 0.80151 -0.09700
C 	C 	0.46667 0.58793 0.79602 -0.10400
H 	H 	0.43887 0.56153 0.78733 0.07600
C 	C 	0.50537 0.64243 0.78947 0.03700
H 	H 	0.50257 0.65253 0.77643 0.04100
C 	C 	0.33817 0.42083 0.81940 -0.08800
C 	C 	0.34677 0.40343 0.83778 0.02600
H 	H 	0.32027 0.36673 0.84263 0.03200
C 	C 	0.39397 0.44003 0.84892 -0.09900
H 	H 	0.39977 0.42713 0.86113 0.07100
O 	O 	0.46687 0.55323 0.95592 -0.43900
C 	C 	0.43947 0.54883 0.97156 0.39500
C 	C 	0.28427 0.38473 0.80760 0.33000
O 	O 	0.44457 0.53283 0.98840 -0.44000
C 	C 	0.58967 0.74283 0.79427 0.34700
C 	C 	0.39557 0.56873 0.97078 -0.11500
O 	O 	0.63147 0.77703 0.80515 -0.50000
O 	O 	0.24312 0.34035 0.81508 -0.46000
O 	O 	0.28307 0.39983 0.78960 -0.37900
O 	O 	0.58107 0.75693 0.77736 -0.36200
C 	C 	0.37347 0.64693 0.96958 -0.05800
C 	C 	0.31477 0.60703 0.96910 0.07600
C 	C 	0.41367 0.62633 0.96997 0.03100
H 	H 	0.45327 0.65293 0.96963 0.02900
C 	C 	0.29597 0.54763 0.97043 -0.12200
H 	H 	0.25647 0.52053 0.97083 0.08200
C 	C 	0.33727 0.52923 0.97113 0.05600
H 	H 	0.32487 0.48983 0.97183 0.02300
Cd	Cd	0.19001 0.85240 0.28093 1.24200
O 	O 	0.22923 0.91847 0.25477 -0.35300
O 	O 	0.15113 0.83567 0.24900 -0.35800
C 	C 	0.19003 0.88457 0.24358 0.30800
C 	C 	0.14533 0.87227 0.18902 -0.01100
C 	C 	0.14943 0.85897 0.20877 -0.03400
H 	H 	0.12553 0.82117 0.21327 0.06200
C 	C 	0.22453 0.95677 0.21564 -0.01700
H 	H 	0.25003 0.98507 0.22437 0.06700
C 	C 	0.22183 0.97017 0.19583 -0.05400
H 	H 	0.24713 0.00777 0.19147 0.05400
C 	C 	0.18863 0.90097 0.22200 -0.04400
C 	C 	0.10093 0.82997 0.17594 0.03000
C 	C 	0.09443 0.84647 0.15701 -0.02200
C 	C 	0.17973 0.94537 0.16203 -0.01200
C 	C 	0.21853 0.00067 0.15459 -0.01400
H 	H 	0.24743 0.02777 0.16287 0.04100
C 	C 	0.18273 0.92967 0.18230 0.02000
C 	C 	0.13483 0.90437 0.14911 0.04000
C 	C 	0.04633 0.80817 0.14525 -0.01000
H 	H 	0.04223 0.81897 0.13247 0.05300
C 	C 	0.21483 0.01617 0.13485 -0.10300
C 	C 	0.13333 0.92127 0.12936 -0.10300
H 	H 	0.10553 0.89487 0.12067 0.07500
C 	C 	0.17203 0.97577 0.12281 0.04600
H 	H 	0.16923 0.98587 0.10977 0.04000
C 	C 	0.00483 0.75417 0.15274 -0.08700
C 	C 	0.01343 0.73677 0.17112 0.00400
H 	H 	0.98693 0.70007 0.17597 0.04600
C 	C 	0.06063 0.77337 0.18226 -0.08300
H 	H 	0.06643 0.76047 0.19447 0.06400
O 	O 	0.13353 0.88657 0.28926 -0.43700
C 	C 	0.10613 0.88217 0.30490 0.38700
C 	C 	0.95093 0.71807 0.14094 0.33500
O 	O 	0.11123 0.86617 0.32174 -0.43900
C 	C 	0.25633 0.07617 0.12761 0.34800
C 	C 	0.06223 0.90207 0.30412 -0.09600
O 	O 	0.29813 0.11037 0.13849 -0.50000
O 	O 	0.90978 0.67369 0.14842 -0.46000
O 	O 	0.94973 0.73317 0.12294 -0.37700
O 	O 	0.24773 0.09027 0.11070 -0.36500
C 	C 	0.04013 0.98027 0.30292 -0.04900
C 	C 	0.98143 0.94037 0.30244 0.07300
C 	C 	0.08033 0.95967 0.30331 0.01700
H 	H 	0.11993 0.98627 0.30297 0.03700
C 	C 	0.96263 0.88097 0.30377 -0.09300
H 	H 	0.92313 0.85387 0.30417 0.07300
C 	C 	0.00393 0.86257 0.30447 0.01400
H 	H 	0.99153 0.82317 0.30517 0.04200
Cd	Cd	0.67095 0.81427 0.88574 1.24200
O 	O 	0.64410 0.74820 0.91190 -0.35600
O 	O 	0.64880 0.83100 0.91767 -0.35800
C 	C 	0.63880 0.78210 0.92309 0.31100
C 	C 	0.60640 0.79440 0.97765 -0.02200
C 	C 	0.62380 0.80770 0.95790 -0.02400
H 	H 	0.63770 0.84550 0.95340 0.05900
C 	C 	0.60110 0.70990 0.95103 0.00200
H 	H 	0.59830 0.68160 0.94230 0.05800
C 	C 	0.58500 0.69650 0.97084 -0.08400
H 	H 	0.57270 0.65890 0.97520 0.07000
C 	C 	0.62100 0.76570 0.94467 -0.05500
C 	C 	0.60430 0.83670 0.99073 0.04000
C 	C 	0.58130 0.82020 0.00966 -0.02700
C 	C 	0.56770 0.72130 0.00464 -0.02900
C 	C 	0.55120 0.66600 0.01208 -0.00000
H 	H 	0.55300 0.63890 0.00380 0.03700
C 	C 	0.58640 0.73700 0.98437 0.03600
C 	C 	0.56380 0.76230 0.01756 0.04500
C 	C 	0.57150 0.85850 0.02142 -0.00600
H 	H 	0.55660 0.84770 0.03420 0.05400
C 	C 	0.53200 0.65050 0.03182 -0.09700
C 	C 	0.54540 0.74540 0.03731 -0.10300
H 	H 	0.54400 0.77180 0.04600 0.07600
C 	C 	0.52960 0.69090 0.04386 0.03700
H 	H 	0.51670 0.68080 0.05690 0.04100
C 	C 	0.58400 0.91250 0.01393 -0.08600
C 	C 	0.61000 0.92990 0.99555 0.02500
H 	H 	0.62020 0.96660 0.99070 0.03500
C 	C 	0.62060 0.89330 0.98441 -0.09700
H 	H 	0.63930 0.90620 0.97220 0.07200
O 	O 	0.58030 0.78010 0.87741 -0.43900
C 	C 	0.55730 0.78450 0.86177 0.39500
C 	C 	0.56620 0.94860 0.02573 0.32900
O 	O 	0.57840 0.80050 0.84493 -0.44000
C 	C 	0.51350 0.59050 0.03906 0.34700
C 	C 	0.49350 0.76460 0.86255 -0.11500
O 	O 	0.52110 0.55630 0.02818 -0.50000
O 	O 	0.56943 0.99298 0.01825 -0.45500
O 	O 	0.54990 0.93350 0.04373 -0.37700
O 	O 	0.49080 0.57640 0.05597 -0.36200
C 	C 	0.39320 0.68640 0.86375 -0.05800
C 	C 	0.37440 0.72630 0.86423 0.07600
C 	C 	0.45400 0.70700 0.86336 0.03100
H 	H 	0.46700 0.68040 0.86370 0.02900
C 	C 	0.41500 0.78570 0.86290 -0.12200
H 	H 	0.40260 0.81280 0.86250 0.08200
C 	C 	0.47470 0.80410 0.86220 0.05600
H 	H 	0.50170 0.84350 0.86150 0.02300
Cd	Cd	0.33762 0.14760 0.21907 1.24200
O 	O 	0.31077 0.08153 0.24523 -0.36000
O 	O 	0.31547 0.16433 0.25100 -0.36000
C 	C 	0.30547 0.11543 0.25642 0.31500
C 	C 	0.27307 0.12773 0.31098 -0.03200
C 	C 	0.29047 0.14103 0.29123 -0.01500
H 	H 	0.30437 0.17883 0.28673 0.05500
C 	C 	0.26777 0.04323 0.28436 0.02000
H 	H 	0.26497 0.01493 0.27563 0.04800
C 	C 	0.25167 0.02983 0.30417 -0.11600
H 	H 	0.23937 0.99223 0.30853 0.08600
C 	C 	0.28767 0.09903 0.27800 -0.06600
C 	C 	0.27097 0.17003 0.32406 0.04600
C 	C 	0.24797 0.15353 0.34299 -0.03200
C 	C 	0.23437 0.05463 0.33797 -0.04600
C 	C 	0.21787 0.99933 0.34541 0.01300
H 	H 	0.21967 0.97223 0.33713 0.03300
C 	C 	0.25307 0.07033 0.31770 0.05100
C 	C 	0.23047 0.09563 0.35089 0.04900
C 	C 	0.23817 0.19183 0.35475 -0.00200
H 	H 	0.22327 0.18103 0.36753 0.05100
C 	C 	0.19867 0.98383 0.36515 -0.09200
C 	C 	0.21207 0.07873 0.37064 -0.10300
H 	H 	0.21067 0.10513 0.37933 0.07500
C 	C 	0.19627 0.02423 0.37719 0.02600
H 	H 	0.18337 0.01413 0.39023 0.04100
C 	C 	0.25067 0.24583 0.34726 -0.09000
C 	C 	0.27667 0.26323 0.32888 0.02900
H 	H 	0.28687 0.29993 0.32403 0.03100
C 	C 	0.28727 0.22663 0.31774 -0.10300
H 	H 	0.30597 0.23953 0.30553 0.07300
O 	O 	0.24697 0.11343 0.21074 -0.44000
C 	C 	0.22397 0.11783 0.19510 0.39600
C 	C 	0.23287 0.28193 0.35906 0.33100
O 	O 	0.24507 0.13383 0.17826 -0.44100
C 	C 	0.18017 0.92383 0.37239 0.34600
C 	C 	0.16017 0.09793 0.19588 -0.11700
O 	O 	0.18777 0.88963 0.36151 -0.49900
O 	O 	0.23610 0.32631 0.35158 -0.46000
O 	O 	0.21657 0.26683 0.37706 -0.38000
O 	O 	0.15747 0.90973 0.38930 -0.36100
C 	C 	0.05987 0.01973 0.19708 -0.06900
C 	C 	0.04107 0.05963 0.19756 0.06700
C 	C 	0.12067 0.04033 0.19669 0.03500
H 	H 	0.13367 0.01373 0.19703 0.02400
C 	C 	0.08167 0.11903 0.19623 -0.12000
H 	H 	0.06927 0.14613 0.19583 0.07900
C 	C 	0.14137 0.13743 0.19553 0.05500
H 	H 	0.16837 0.17683 0.19483 0.02300
Cd	Cd	0.00428 0.48094 0.55240 1.23900
O 	O 	0.97743 0.41487 0.57857 -0.35300
O 	O 	0.98213 0.49767 0.58434 -0.35500
C 	C 	0.97213 0.44877 0.58976 0.31100
C 	C 	0.93973 0.46107 0.64432 -0.02200
C 	C 	0.95713 0.47437 0.62457 -0.02400
H 	H 	0.97103 0.51217 0.62007 0.06000
C 	C 	0.93443 0.37657 0.61770 0.00200
H 	H 	0.93163 0.34827 0.60897 0.05800
C 	C 	0.91833 0.36317 0.63751 -0.08400
H 	H 	0.90603 0.32557 0.64187 0.07000
C 	C 	0.95433 0.43237 0.61134 -0.05400
C 	C 	0.93763 0.50337 0.65740 0.04100
C 	C 	0.91463 0.48687 0.67633 -0.02700
C 	C 	0.90103 0.38797 0.67131 -0.02900
C 	C 	0.88453 0.33267 0.67875 -0.00000
H 	H 	0.88633 0.30557 0.67047 0.03700
C 	C 	0.91973 0.40367 0.65104 0.03600
C 	C 	0.89713 0.42897 0.68423 0.04600
C 	C 	0.90483 0.52517 0.68809 -0.00500
H 	H 	0.88993 0.51437 0.70087 0.05300
C 	C 	0.86533 0.31717 0.69849 -0.09700
C 	C 	0.87873 0.41207 0.70398 -0.10300
H 	H 	0.87733 0.43847 0.71267 0.07600
C 	C 	0.86293 0.35757 0.71053 0.03700
H 	H 	0.85003 0.34747 0.72357 0.04100
C 	C 	0.91733 0.57917 0.68060 -0.08700
C 	C 	0.94333 0.59657 0.66222 0.02700
H 	H 	0.95353 0.63327 0.65737 0.03300
C 	C 	0.95393 0.55997 0.65108 -0.09800
H 	H 	0.97263 0.57287 0.63887 0.07200
O 	O 	0.91363 0.44677 0.54408 -0.43600
C 	C 	0.89063 0.45117 0.52844 0.39500
C 	C 	0.89953 0.61527 0.69240 0.33000
O 	O 	0.91173 0.46717 0.51160 -0.43800
C 	C 	0.84683 0.25717 0.70573 0.34700
C 	C 	0.82683 0.43127 0.52922 -0.11400
O 	O 	0.85443 0.22297 0.69485 -0.49900
O 	O 	0.90276 0.65965 0.68492 -0.45900
O 	O 	0.88323 0.60017 0.71040 -0.37900
O 	O 	0.82413 0.24307 0.72264 -0.36200
C 	C 	0.72653 0.35307 0.53042 -0.05800
C 	C 	0.70773 0.39297 0.53090 0.07600
C 	C 	0.78733 0.37367 0.53003 0.03100
H 	H 	0.80033 0.34707 0.53037 0.02900
C 	C 	0.74833 0.45237 0.52957 -0.12200
H 	H 	0.73593 0.47947 0.52917 0.08200
C 	C 	0.80803 0.47077 0.52887 0.05500
H 	H 	0.83503 0.51017 0.52817 0.02300
Cd	Cd	0.14332 0.32905 0.88574 1.24200
O 	O 	0.10410 0.35590 0.91190 -0.35800
O 	O 	0.18220 0.35120 0.91767 -0.35900
C 	C 	0.14330 0.36120 0.92309 0.31100
C 	C 	0.18800 0.39360 0.97765 -0.02300
C 	C 	0.18390 0.37620 0.95790 -0.02400
H 	H 	0.20780 0.36230 0.95340 0.05800
C 	C 	0.10880 0.39890 0.95103 0.00100
H 	H 	0.08330 0.40170 0.94230 0.05600
C 	C 	0.11150 0.41500 0.97084 -0.08500
H 	H 	0.08620 0.42730 0.97520 0.06900
C 	C 	0.14470 0.37900 0.94467 -0.05600
C 	C 	0.23240 0.39570 0.99073 0.04100
C 	C 	0.23890 0.41870 0.00966 -0.02900
C 	C 	0.15360 0.43230 0.00464 -0.03100
C 	C 	0.11480 0.44880 0.01208 0.00000
H 	H 	0.08590 0.44700 0.00380 0.03500
C 	C 	0.15060 0.41360 0.98437 0.03600
C 	C 	0.19850 0.43620 0.01756 0.04600
C 	C 	0.28700 0.42850 0.02142 -0.00500
H 	H 	0.29110 0.44340 0.03420 0.05300
C 	C 	0.11850 0.46800 0.03182 -0.09900
C 	C 	0.20000 0.45460 0.03731 -0.10500
H 	H 	0.22780 0.45600 0.04600 0.07600
C 	C 	0.16130 0.47040 0.04386 0.03700
H 	H 	0.16410 0.48330 0.05690 0.04000
C 	C 	0.32850 0.41600 0.01393 -0.08900
C 	C 	0.31990 0.39000 0.99555 0.02600
H 	H 	0.34640 0.37980 0.99070 0.03200
C 	C 	0.27270 0.37940 0.98441 -0.09900
H 	H 	0.26690 0.36070 0.97220 0.07100
O 	O 	0.19980 0.41970 0.87741 -0.43900
C 	C 	0.22720 0.44270 0.86177 0.39500
C 	C 	0.38240 0.43380 0.02573 0.33000
O 	O 	0.22210 0.42160 0.84493 -0.44000
C 	C 	0.07700 0.48650 0.03906 0.34700
C 	C 	0.27110 0.50650 0.86255 -0.11500
O 	O 	0.03520 0.47890 0.02818 -0.50300
O 	O 	0.42355 0.43057 0.01825 -0.46000
O 	O 	0.38360 0.45010 0.04373 -0.38000
O 	O 	0.08560 0.50920 0.05597 -0.36400
C 	C 	0.29320 0.60680 0.86375 -0.05800
C 	C 	0.35190 0.62560 0.86423 0.07600
C 	C 	0.25300 0.54600 0.86336 0.03100
H 	H 	0.21340 0.53300 0.86370 0.02900
C 	C 	0.37070 0.58500 0.86290 -0.12200
H 	H 	0.41020 0.59740 0.86250 0.08200
C 	C 	0.32940 0.52530 0.86220 0.05600
H 	H 	0.34180 0.49830 0.86150 0.02300
Cd	Cd	0.80999 0.66238 0.21907 1.24200
O 	O 	0.77077 0.68923 0.24523 -0.35600
O 	O 	0.84887 0.68453 0.25100 -0.35700
C 	C 	0.80997 0.69453 0.25642 0.31200
C 	C 	0.85467 0.72693 0.31098 -0.02400
C 	C 	0.85057 0.70953 0.29123 -0.02200
H 	H 	0.87447 0.69563 0.28673 0.05800
C 	C 	0.77547 0.73223 0.28436 0.00300
H 	H 	0.74997 0.73503 0.27563 0.05700
C 	C 	0.77817 0.74833 0.30417 -0.08600
H 	H 	0.75287 0.76063 0.30853 0.07000
C 	C 	0.81137 0.71233 0.27800 -0.05600
C 	C 	0.89907 0.72903 0.32406 0.04600
C 	C 	0.90557 0.75203 0.34299 -0.03000
C 	C 	0.82027 0.76563 0.33797 -0.03000
C 	C 	0.78147 0.78213 0.34541 0.00100
H 	H 	0.75257 0.78033 0.33713 0.03600
C 	C 	0.81727 0.74693 0.31770 0.03800
C 	C 	0.86517 0.76953 0.35089 0.04700
C 	C 	0.95367 0.76183 0.35475 -0.00300
H 	H 	0.95777 0.77673 0.36753 0.05500
C 	C 	0.78517 0.80133 0.36515 -0.09700
C 	C 	0.86667 0.78793 0.37064 -0.10400
H 	H 	0.89447 0.78933 0.37933 0.07800
C 	C 	0.82797 0.80373 0.37719 0.03800
H 	H 	0.83077 0.81663 0.39023 0.04200
C 	C 	0.99517 0.74933 0.34726 -0.08700
C 	C 	0.98657 0.72333 0.32888 0.04600
H 	H 	0.01307 0.71313 0.32403 0.02000
C 	C 	0.93937 0.71273 0.31774 -0.11000
H 	H 	0.93357 0.69403 0.30553 0.07700
O 	O 	0.86647 0.75303 0.21074 -0.44000
C 	C 	0.89387 0.77603 0.19510 0.40200
C 	C 	0.04907 0.76713 0.35906 0.32500
O 	O 	0.88877 0.75493 0.17826 -0.44100
C 	C 	0.74367 0.81983 0.37239 0.34700
C 	C 	0.93777 0.83983 0.19588 -0.13100
O 	O 	0.70187 0.81223 0.36151 -0.49900
O 	O 	0.09022 0.76390 0.35158 -0.45900
O 	O 	0.05027 0.78343 0.37706 -0.38100
O 	O 	0.75227 0.84253 0.38930 -0.36100
C 	C 	0.95987 0.94013 0.19708 -0.05600
C 	C 	0.01857 0.95893 0.19756 0.08700
C 	C 	0.91967 0.87933 0.19669 0.04100
H 	H 	0.88007 0.86633 0.19703 0.02700
C 	C 	0.03737 0.91833 0.19623 -0.15300
H 	H 	0.07687 0.93073 0.19583 0.09400
C 	C 	0.99607 0.85863 0.19553 0.09800
H 	H 	0.00847 0.83163 0.19483 0.00300
Cd	Cd	0.47665 0.99572 0.55240 1.24500
O 	O 	0.43743 0.02257 0.57857 -0.36000
O 	O 	0.51553 0.01787 0.58434 -0.36200
C 	C 	0.47663 0.02787 0.58976 0.31200
C 	C 	0.52133 0.06027 0.64432 -0.02400
C 	C 	0.51723 0.04287 0.62457 -0.02400
H 	H 	0.54113 0.02897 0.62007 0.05700
C 	C 	0.44213 0.06557 0.61770 0.00200
H 	H 	0.41663 0.06837 0.60897 0.05700
C 	C 	0.44483 0.08167 0.63751 -0.08600
H 	H 	0.41953 0.09397 0.64187 0.07000
C 	C 	0.47803 0.04567 0.61134 -0.05700
C 	C 	0.56573 0.06237 0.65740 0.04000
C 	C 	0.57223 0.08537 0.67633 -0.02900
C 	C 	0.48693 0.09897 0.67131 -0.03000
C 	C 	0.44813 0.11547 0.67875 -0.00000
H 	H 	0.41923 0.11367 0.67047 0.03600
C 	C 	0.48393 0.08027 0.65104 0.03600
C 	C 	0.53183 0.10287 0.68423 0.04500
C 	C 	0.62033 0.09517 0.68809 -0.00500
H 	H 	0.62443 0.11007 0.70087 0.05200
C 	C 	0.45183 0.13467 0.69849 -0.09800
C 	C 	0.53333 0.12127 0.70398 -0.10400
H 	H 	0.56113 0.12267 0.71267 0.07500
C 	C 	0.49463 0.13707 0.71053 0.03700
H 	H 	0.49743 0.14997 0.72357 0.04000
C 	C 	0.66183 0.08267 0.68060 -0.08900
C 	C 	0.65323 0.05667 0.66222 0.02600
H 	H 	0.67973 0.04647 0.65737 0.03200
C 	C 	0.60603 0.04607 0.65108 -0.09900
H 	H 	0.60023 0.02737 0.63887 0.07000
O 	O 	0.53313 0.08637 0.54408 -0.44100
C 	C 	0.56053 0.10937 0.52844 0.39500
C 	C 	0.71573 0.10047 0.69240 0.33000
O 	O 	0.55543 0.08827 0.51160 -0.44200
C 	C 	0.41033 0.15317 0.70573 0.34700
C 	C 	0.60443 0.17317 0.52922 -0.11500
O 	O 	0.36853 0.14557 0.69485 -0.50000
O 	O 	0.75688 0.09724 0.68492 -0.46000
O 	O 	0.71693 0.11677 0.71040 -0.38000
O 	O 	0.41893 0.17587 0.72264 -0.36300
C 	C 	0.62653 0.27347 0.53042 -0.05800
C 	C 	0.68523 0.29227 0.53090 0.07600
C 	C 	0.58633 0.21267 0.53003 0.03100
H 	H 	0.54673 0.19967 0.53037 0.02900
C 	C 	0.70403 0.25167 0.52957 -0.12200
H 	H 	0.74353 0.26407 0.52917 0.08200
C 	C 	0.66273 0.19197 0.52887 0.05600
H 	H 	0.67513 0.16497 0.52817 0.02200
Cd	Cd	0.18573 0.85668 0.88574 1.24200
O 	O 	0.25180 0.89590 0.91190 -0.35600
O 	O 	0.16900 0.81780 0.91767 -0.35900
C 	C 	0.21790 0.85670 0.92309 0.31200
C 	C 	0.20560 0.81200 0.97765 -0.02300
C 	C 	0.19230 0.81610 0.95790 -0.02300
H 	H 	0.15450 0.79220 0.95340 0.05800
C 	C 	0.29010 0.89120 0.95103 0.00300
H 	H 	0.31840 0.91670 0.94230 0.05800
C 	C 	0.30350 0.88850 0.97084 -0.08500
H 	H 	0.34110 0.91380 0.97520 0.07200
C 	C 	0.23430 0.85530 0.94467 -0.05500
C 	C 	0.16330 0.76760 0.99073 0.04100
C 	C 	0.17980 0.76110 0.00966 -0.02800
C 	C 	0.27870 0.84640 0.00464 -0.02900
C 	C 	0.33400 0.88520 0.01208 -0.00100
H 	H 	0.36110 0.91410 0.00380 0.03800
C 	C 	0.26300 0.84940 0.98437 0.03700
C 	C 	0.23770 0.80150 0.01756 0.04500
C 	C 	0.14150 0.71300 0.02142 -0.00400
H 	H 	0.15230 0.70890 0.03420 0.05200
C 	C 	0.34950 0.88150 0.03182 -0.09600
C 	C 	0.25460 0.80000 0.03731 -0.10300
H 	H 	0.22820 0.77220 0.04600 0.07600
C 	C 	0.30910 0.83870 0.04386 0.03600
H 	H 	0.31920 0.83590 0.05690 0.04200
C 	C 	0.08750 0.67150 0.01393 -0.09000
C 	C 	0.07010 0.68010 0.99555 0.02800
H 	H 	0.03340 0.65360 0.99070 0.03000
C 	C 	0.10670 0.72730 0.98441 -0.10000
H 	H 	0.09380 0.73310 0.97220 0.07100
O 	O 	0.21990 0.80020 0.87741 -0.43900
C 	C 	0.21550 0.77280 0.86177 0.39500
C 	C 	0.05140 0.61760 0.02573 0.33100
O 	O 	0.19950 0.77790 0.84493 -0.44000
C 	C 	0.40950 0.92300 0.03906 0.34600
C 	C 	0.23540 0.72890 0.86255 -0.11500
O 	O 	0.44370 0.96480 0.02818 -0.49600
O 	O 	0.00702 0.57645 0.01825 -0.46400
O 	O 	0.06650 0.61640 0.04373 -0.38200
O 	O 	0.42360 0.91440 0.05597 -0.36000
C 	C 	0.31360 0.70680 0.86375 -0.05800
C 	C 	0.27370 0.64810 0.86423 0.07600
C 	C 	0.29300 0.74700 0.86336 0.03100
H 	H 	0.31960 0.78660 0.86370 0.02900
C 	C 	0.21430 0.62930 0.86290 -0.12200
H 	H 	0.18720 0.58980 0.86250 0.08200
C 	C 	0.19590 0.67060 0.86220 0.05600
H 	H 	0.15650 0.65820 0.86150 0.02300
Cd	Cd	0.85240 0.19001 0.21907 1.24200
O 	O 	0.91847 0.22923 0.24523 -0.35300
O 	O 	0.83567 0.15113 0.25100 -0.35800
C 	C 	0.88457 0.19003 0.25642 0.30800
C 	C 	0.87227 0.14533 0.31098 -0.01100
C 	C 	0.85897 0.14943 0.29123 -0.03400
H 	H 	0.82117 0.12553 0.28673 0.06200
C 	C 	0.95677 0.22453 0.28436 -0.01700
H 	H 	0.98507 0.25003 0.27563 0.06700
C 	C 	0.97017 0.22183 0.30417 -0.05400
H 	H 	0.00777 0.24713 0.30853 0.05400
C 	C 	0.90097 0.18863 0.27800 -0.04400
C 	C 	0.82997 0.10093 0.32406 0.03000
C 	C 	0.84647 0.09443 0.34299 -0.02200
C 	C 	0.94537 0.17973 0.33797 -0.01200
C 	C 	0.00067 0.21853 0.34541 -0.01400
H 	H 	0.02777 0.24743 0.33713 0.04100
C 	C 	0.92967 0.18273 0.31770 0.02000
C 	C 	0.90437 0.13483 0.35089 0.04000
C 	C 	0.80817 0.04633 0.35475 -0.01000
H 	H 	0.81897 0.04223 0.36753 0.05300
C 	C 	0.01617 0.21483 0.36515 -0.10300
C 	C 	0.92127 0.13333 0.37064 -0.10300
H 	H 	0.89487 0.10553 0.37933 0.07500
C 	C 	0.97577 0.17203 0.37719 0.04600
H 	H 	0.98587 0.16923 0.39023 0.04000
C 	C 	0.75417 0.00483 0.34726 -0.08700
C 	C 	0.73677 0.01343 0.32888 0.00400
H 	H 	0.70007 0.98693 0.32403 0.04600
C 	C 	0.77337 0.06063 0.31774 -0.08300
H 	H 	0.76047 0.06643 0.30553 0.06400
O 	O 	0.88657 0.13353 0.21074 -0.43700
C 	C 	0.88217 0.10613 0.19510 0.38700
C 	C 	0.71807 0.95093 0.35906 0.33500
O 	O 	0.86617 0.11123 0.17826 -0.43900
C 	C 	0.07617 0.25633 0.37239 0.34800
C 	C 	0.90207 0.06223 0.19588 -0.09600
O 	O 	0.11037 0.29813 0.36151 -0.50000
O 	O 	0.67369 0.90978 0.35158 -0.46000
O 	O 	0.73317 0.94973 0.37706 -0.37700
O 	O 	0.09027 0.24773 0.38930 -0.36500
C 	C 	0.98027 0.04013 0.19708 -0.04900
C 	C 	0.94037 0.98143 0.19756 0.07300
C 	C 	0.95967 0.08033 0.19669 0.01700
H 	H 	0.98627 0.11993 0.19703 0.03700
C 	C 	0.88097 0.96263 0.19623 -0.09300
H 	H 	0.85387 0.92313 0.19583 0.07300
C 	C 	0.86257 0.00393 0.19553 0.01400
H 	H 	0.82317 0.99153 0.19483 0.04200
Cd	Cd	0.51906 0.52335 0.55240 1.24200
O 	O 	0.58513 0.56257 0.57857 -0.35600
O 	O 	0.50233 0.48447 0.58434 -0.35900
C 	C 	0.55123 0.52337 0.58976 0.31200
C 	C 	0.53893 0.47867 0.64432 -0.02300
C 	C 	0.52563 0.48277 0.62457 -0.02400
H 	H 	0.48783 0.45887 0.62007 0.05800
C 	C 	0.62343 0.55787 0.61770 0.00200
H 	H 	0.65173 0.58337 0.60897 0.05700
C 	C 	0.63683 0.55517 0.63751 -0.08500
H 	H 	0.67443 0.58047 0.64187 0.07000
C 	C 	0.56763 0.52197 0.61134 -0.05500
C 	C 	0.49663 0.43427 0.65740 0.04100
C 	C 	0.51313 0.42777 0.67633 -0.02800
C 	C 	0.61203 0.51307 0.67131 -0.02900
C 	C 	0.66733 0.55187 0.67875 -0.00000
H 	H 	0.69443 0.58077 0.67047 0.03700
C 	C 	0.59633 0.51607 0.65104 0.03600
C 	C 	0.57103 0.46817 0.68423 0.04500
C 	C 	0.47483 0.37967 0.68809 -0.00500
H 	H 	0.48563 0.37557 0.70087 0.05300
C 	C 	0.68283 0.54817 0.69849 -0.09700
C 	C 	0.58793 0.46667 0.70398 -0.10400
H 	H 	0.56153 0.43887 0.71267 0.07600
C 	C 	0.64243 0.50537 0.71053 0.03700
H 	H 	0.65253 0.50257 0.72357 0.04100
C 	C 	0.42083 0.33817 0.68060 -0.08800
C 	C 	0.40343 0.34677 0.66222 0.02600
H 	H 	0.36673 0.32027 0.65737 0.03200
C 	C 	0.44003 0.39397 0.65108 -0.09900
H 	H 	0.42713 0.39977 0.63887 0.07100
O 	O 	0.55323 0.46687 0.54408 -0.43900
C 	C 	0.54883 0.43947 0.52844 0.39500
C 	C 	0.38473 0.28427 0.69240 0.33000
O 	O 	0.53283 0.44457 0.51160 -0.44000
C 	C 	0.74283 0.58967 0.70573 0.34700
C 	C 	0.56873 0.39557 0.52922 -0.11500
O 	O 	0.77703 0.63147 0.69485 -0.50000
O 	O 	0.34035 0.24312 0.68492 -0.46000
O 	O 	0.39983 0.28307 0.71040 -0.37900
O 	O 	0.75693 0.58107 0.72264 -0.36200
C 	C 	0.64693 0.37347 0.53042 -0.05800
C 	C 	0.60703 0.31477 0.53090 0.07600
C 	C 	0.62633 0.41367 0.53003 0.03100
H 	H 	0.65293 0.45327 0.53037 0.02900
C 	C 	0.54763 0.29597 0.52957 -0.12200
H 	H 	0.52053 0.25647 0.52917 0.08200
C 	C 	0.52923 0.33727 0.52887 0.05600
H 	H 	0.48983 0.32487 0.52817 0.02300
Cd	Cd	0.18573 0.32905 0.38574 1.24200
O 	O 	0.25180 0.35590 0.41190 -0.35700
O 	O 	0.16900 0.35120 0.41767 -0.36000
C 	C 	0.21790 0.36120 0.42309 0.31200
C 	C 	0.20560 0.39360 0.47765 -0.02300
C 	C 	0.19230 0.37620 0.45790 -0.02400
H 	H 	0.15450 0.36230 0.45340 0.05800
C 	C 	0.29010 0.39890 0.45103 0.00200
H 	H 	0.31840 0.40170 0.44230 0.05700
C 	C 	0.30350 0.41500 0.47084 -0.08600
H 	H 	0.34110 0.42730 0.47520 0.07000
C 	C 	0.23430 0.37900 0.44467 -0.05600
C 	C 	0.16330 0.39570 0.49073 0.04100
C 	C 	0.17980 0.41870 0.50966 -0.02900
C 	C 	0.27870 0.43230 0.50464 -0.03000
C 	C 	0.33400 0.44880 0.51208 -0.00000
H 	H 	0.36110 0.44700 0.50380 0.03600
C 	C 	0.26300 0.41360 0.48437 0.03600
C 	C 	0.23770 0.43620 0.51756 0.04500
C 	C 	0.14150 0.42850 0.52142 -0.00400
H 	H 	0.15230 0.44340 0.53420 0.05200
C 	C 	0.34950 0.46800 0.53182 -0.09800
C 	C 	0.25460 0.45460 0.53731 -0.10400
H 	H 	0.22820 0.45600 0.54600 0.07600
C 	C 	0.30910 0.47040 0.54386 0.03700
H 	H 	0.31920 0.48330 0.55690 0.04100
C 	C 	0.08750 0.41600 0.51393 -0.09000
C 	C 	0.07010 0.39000 0.49555 0.02700
H 	H 	0.03340 0.37980 0.49070 0.03000
C 	C 	0.10670 0.37940 0.48441 -0.10000
H 	H 	0.09380 0.36070 0.47220 0.07000
O 	O 	0.21990 0.41970 0.37741 -0.43900
C 	C 	0.21550 0.44270 0.36177 0.39500
C 	C 	0.05140 0.43380 0.52573 0.33100
O 	O 	0.19950 0.42160 0.34493 -0.44000
C 	C 	0.40950 0.48650 0.53906 0.34700
C 	C 	0.23540 0.50650 0.36255 -0.11500
O 	O 	0.44370 0.47890 0.52818 -0.50000
O 	O 	0.00702 0.43057 0.51825 -0.46400
O 	O 	0.06650 0.45010 0.54373 -0.38200
O 	O 	0.42360 0.50920 0.55597 -0.36200
C 	C 	0.31360 0.60680 0.36375 -0.05800
C 	C 	0.27370 0.62560 0.36423 0.07600
C 	C 	0.29300 0.54600 0.36336 0.03100
H 	H 	0.31960 0.53300 0.36370 0.02900
C 	C 	0.21430 0.58500 0.36290 -0.12200
H 	H 	0.18720 0.59740 0.36250 0.08200
C 	C 	0.19590 0.52530 0.36220 0.05600
H 	H 	0.15650 0.49830 0.36150 0.02300
Cd	Cd	0.85240 0.66238 0.71907 1.24200
O 	O 	0.91847 0.68923 0.74523 -0.35300
O 	O 	0.83567 0.68453 0.75100 -0.35700
C 	C 	0.88457 0.69453 0.75642 0.30800
C 	C 	0.87227 0.72693 0.81098 -0.01300
C 	C 	0.85897 0.70953 0.79123 -0.03300
H 	H 	0.82117 0.69563 0.78673 0.06200
C 	C 	0.95677 0.73223 0.78436 -0.01600
H 	H 	0.98507 0.73503 0.77563 0.06700
C 	C 	0.97017 0.74833 0.80417 -0.05500
H 	H 	0.00777 0.76063 0.80853 0.05500
C 	C 	0.90097 0.71233 0.77800 -0.04500
C 	C 	0.82997 0.72903 0.82406 0.03600
C 	C 	0.84647 0.75203 0.84299 -0.02400
C 	C 	0.94537 0.76563 0.83797 -0.01300
C 	C 	0.00067 0.78213 0.84541 -0.01300
H 	H 	0.02777 0.78033 0.83713 0.04000
C 	C 	0.92967 0.74693 0.81770 0.02100
C 	C 	0.90437 0.76953 0.85089 0.04200
C 	C 	0.80817 0.76183 0.85475 -0.00700
H 	H 	0.81897 0.77673 0.86753 0.05500
C 	C 	0.01617 0.80133 0.86515 -0.10300
C 	C 	0.92127 0.78793 0.87064 -0.10400
H 	H 	0.89487 0.78933 0.87933 0.07700
C 	C 	0.97577 0.80373 0.87719 0.04700
H 	H 	0.98587 0.81663 0.89023 0.04100
C 	C 	0.75417 0.74933 0.84726 -0.08600
C 	C 	0.73677 0.72333 0.82888 0.02400
H 	H 	0.70007 0.71313 0.82403 0.03300
C 	C 	0.77337 0.71273 0.81774 -0.09500
H 	H 	0.76047 0.69403 0.80553 0.07000
O 	O 	0.88657 0.75303 0.71074 -0.43800
C 	C 	0.88217 0.77603 0.69510 0.39400
C 	C 	0.71807 0.76713 0.85906 0.32900
O 	O 	0.86617 0.75493 0.67826 -0.44000
C 	C 	0.07617 0.81983 0.87239 0.34800
C 	C 	0.90207 0.83983 0.69588 -0.11200
O 	O 	0.11037 0.81223 0.86151 -0.50000
O 	O 	0.67369 0.76390 0.85158 -0.45900
O 	O 	0.73317 0.78343 0.87706 -0.37900
O 	O 	0.09027 0.84253 0.88930 -0.36300
C 	C 	0.98027 0.94013 0.69708 -0.04700
C 	C 	0.94037 0.95893 0.69756 0.08400
C 	C 	0.95967 0.87933 0.69669 0.02700
H 	H 	0.98627 0.86633 0.69703 0.03400
C 	C 	0.88097 0.91833 0.69623 -0.12400
H 	H 	0.85387 0.93073 0.69583 0.08500
C 	C 	0.86257 0.85863 0.69553 0.05600
H 	H 	0.82317 0.83163 0.69483 0.02300
Cd	Cd	0.51906 0.99572 0.05240 1.24500
O 	O 	0.58513 0.02257 0.07857 -0.36000
O 	O 	0.50233 0.01787 0.08434 -0.36200
C 	C 	0.55123 0.02787 0.08976 0.31200
C 	C 	0.53893 0.06027 0.14432 -0.02400
C 	C 	0.52563 0.04287 0.12457 -0.02400
H 	H 	0.48783 0.02897 0.12007 0.05700
C 	C 	0.62343 0.06557 0.11770 0.00200
H 	H 	0.65173 0.06837 0.10897 0.05700
C 	C 	0.63683 0.08167 0.13751 -0.08600
H 	H 	0.67443 0.09397 0.14187 0.07000
C 	C 	0.56763 0.04567 0.11134 -0.05700
C 	C 	0.49663 0.06237 0.15740 0.04000
C 	C 	0.51313 0.08537 0.17633 -0.02900
C 	C 	0.61203 0.09897 0.17131 -0.03000
C 	C 	0.66733 0.11547 0.17875 -0.00000
H 	H 	0.69443 0.11367 0.17047 0.03600
C 	C 	0.59633 0.08027 0.15104 0.03600
C 	C 	0.57103 0.10287 0.18423 0.04500
C 	C 	0.47483 0.09517 0.18809 -0.00500
H 	H 	0.48563 0.11007 0.20087 0.05200
C 	C 	0.68283 0.13467 0.19849 -0.09800
C 	C 	0.58793 0.12127 0.20398 -0.10400
H 	H 	0.56153 0.12267 0.21267 0.07500
C 	C 	0.64243 0.13707 0.21053 0.03600
H 	H 	0.65253 0.14997 0.22357 0.04000
C 	C 	0.42083 0.08267 0.18060 -0.08900
C 	C 	0.40343 0.05667 0.16222 0.02600
H 	H 	0.36673 0.04647 0.15737 0.03200
C 	C 	0.44003 0.04607 0.15108 -0.09900
H 	H 	0.42713 0.02737 0.13887 0.07000
O 	O 	0.55323 0.08637 0.04408 -0.44100
C 	C 	0.54883 0.10937 0.02844 0.39500
C 	C 	0.38473 0.10047 0.19240 0.33000
O 	O 	0.53283 0.08827 0.01160 -0.44200
C 	C 	0.74283 0.15317 0.20573 0.34700
C 	C 	0.56873 0.17317 0.02922 -0.11500
O 	O 	0.77703 0.14557 0.19485 -0.50000
O 	O 	0.34035 0.09724 0.18492 -0.46000
O 	O 	0.39983 0.11677 0.21040 -0.38000
O 	O 	0.75693 0.17587 0.22264 -0.36200
C 	C 	0.64693 0.27347 0.03042 -0.05800
C 	C 	0.60703 0.29227 0.03090 0.07600
C 	C 	0.62633 0.21267 0.03003 0.03100
H 	H 	0.65293 0.19967 0.03037 0.02900
C 	C 	0.54763 0.25167 0.02957 -0.12200
H 	H 	0.52053 0.26407 0.02917 0.08200
C 	C 	0.52923 0.19197 0.02887 0.05600
H 	H 	0.48983 0.16497 0.02817 0.02200
Cd	Cd	0.67095 0.85668 0.38574 1.24200
O 	O 	0.64410 0.89590 0.41190 -0.35500
O 	O 	0.64880 0.81780 0.41767 -0.35800
C 	C 	0.63880 0.85670 0.42309 0.31200
C 	C 	0.60640 0.81200 0.47765 -0.02200
C 	C 	0.62380 0.81610 0.45790 -0.02400
H 	H 	0.63770 0.79220 0.45340 0.05900
C 	C 	0.60110 0.89120 0.45103 0.00200
H 	H 	0.59830 0.91670 0.44230 0.05800
C 	C 	0.58500 0.88850 0.47084 -0.08500
H 	H 	0.57270 0.91380 0.47520 0.07200
C 	C 	0.62100 0.85530 0.44467 -0.05500
C 	C 	0.60430 0.76760 0.49073 0.04100
C 	C 	0.58130 0.76110 0.50966 -0.02700
C 	C 	0.56770 0.84640 0.50464 -0.02800
C 	C 	0.55120 0.88520 0.51208 -0.00100
H 	H 	0.55300 0.91410 0.50380 0.03800
C 	C 	0.58640 0.84940 0.48437 0.03600
C 	C 	0.56380 0.80150 0.51756 0.04500
C 	C 	0.57150 0.71300 0.52142 -0.00500
H 	H 	0.55660 0.70890 0.53420 0.05300
C 	C 	0.53200 0.88150 0.53182 -0.09500
C 	C 	0.54540 0.80000 0.53731 -0.10200
H 	H 	0.54400 0.77220 0.54600 0.07600
C 	C 	0.52960 0.83870 0.54386 0.03600
H 	H 	0.51670 0.83590 0.55690 0.04200
C 	C 	0.58400 0.67150 0.51393 -0.08800
C 	C 	0.61000 0.68010 0.49555 0.02600
H 	H 	0.62020 0.65360 0.49070 0.03300
C 	C 	0.62060 0.72730 0.48441 -0.09800
H 	H 	0.63930 0.73310 0.47220 0.07200
O 	O 	0.58030 0.80020 0.37741 -0.43900
C 	C 	0.55730 0.77280 0.36177 0.39500
C 	C 	0.56620 0.61760 0.52573 0.33000
O 	O 	0.57840 0.77790 0.34493 -0.44000
C 	C 	0.51350 0.92300 0.53906 0.34600
C 	C 	0.49350 0.72890 0.36255 -0.11500
O 	O 	0.52110 0.96480 0.52818 -0.49600
O 	O 	0.56943 0.57645 0.51825 -0.46000
O 	O 	0.54990 0.61640 0.54373 -0.37900
O 	O 	0.49080 0.91440 0.55597 -0.36000
C 	C 	0.39320 0.70680 0.36375 -0.05800
C 	C 	0.37440 0.64810 0.36423 0.07600
C 	C 	0.45400 0.74700 0.36336 0.03100
H 	H 	0.46700 0.78660 0.36370 0.02900
C 	C 	0.41500 0.62930 0.36290 -0.12200
H 	H 	0.40260 0.58980 0.36250 0.08200
C 	C 	0.47470 0.67060 0.36220 0.05600
H 	H 	0.50170 0.65820 0.36150 0.02300
Cd	Cd	0.33762 0.19001 0.71907 1.24200
O 	O 	0.31077 0.22923 0.74523 -0.35700
O 	O 	0.31547 0.15113 0.75100 -0.36000
C 	C 	0.30547 0.19003 0.75642 0.31100
C 	C 	0.27307 0.14533 0.81098 -0.02100
C 	C 	0.29047 0.14943 0.79123 -0.02600
H 	H 	0.30437 0.12553 0.78673 0.05800
C 	C 	0.26777 0.22453 0.78436 0.00100
H 	H 	0.26497 0.25003 0.77563 0.05700
C 	C 	0.25167 0.22183 0.80417 -0.08400
H 	H 	0.23937 0.24713 0.80853 0.07000
C 	C 	0.28767 0.18863 0.77800 -0.05500
C 	C 	0.27097 0.10093 0.82406 0.03500
C 	C 	0.24797 0.09443 0.84299 -0.02600
C 	C 	0.23437 0.17973 0.83797 -0.02900
C 	C 	0.21787 0.21853 0.84541 -0.00100
H 	H 	0.21967 0.24743 0.83713 0.03700
C 	C 	0.25307 0.18273 0.81770 0.03400
C 	C 	0.23047 0.13483 0.85089 0.04300
C 	C 	0.23817 0.04633 0.85475 -0.00700
H 	H 	0.22327 0.04223 0.86753 0.05100
C 	C 	0.19867 0.21483 0.86515 -0.09800
C 	C 	0.21207 0.13333 0.87064 -0.10300
H 	H 	0.21067 0.10553 0.87933 0.07400
C 	C 	0.19627 0.17203 0.87719 0.03500
H 	H 	0.18337 0.16923 0.89023 0.04000
C 	C 	0.25067 0.00483 0.84726 -0.08900
C 	C 	0.27667 0.01343 0.82888 0.00600
H 	H 	0.28687 0.98693 0.82403 0.04500
C 	C 	0.28727 0.06063 0.81774 -0.08700
H 	H 	0.30597 0.06643 0.80553 0.06600
O 	O 	0.24697 0.13353 0.71074 -0.43800
C 	C 	0.22397 0.10613 0.69510 0.38800
C 	C 	0.23287 0.95093 0.85906 0.33500
O 	O 	0.24507 0.11123 0.67826 -0.44000
C 	C 	0.18017 0.25633 0.87239 0.34700
C 	C 	0.16017 0.06223 0.69588 -0.09900
O 	O 	0.18777 0.29813 0.86151 -0.50000
O 	O 	0.23610 0.90978 0.85158 -0.46000
O 	O 	0.21657 0.94973 0.87706 -0.37800
O 	O 	0.15747 0.24773 0.88930 -0.36300
C 	C 	0.05987 0.04013 0.69708 -0.06100
C 	C 	0.04107 0.98143 0.69756 0.06500
C 	C 	0.12067 0.08033 0.69669 0.02100
H 	H 	0.13367 0.11993 0.69703 0.03200
C 	C 	0.08167 0.96263 0.69623 -0.09100
H 	H 	0.06927 0.92313 0.69583 0.07000
C 	C 	0.14137 0.00393 0.69553 0.01300
H 	H 	0.16837 0.99153 0.69483 0.04200
Cd	Cd	0.00428 0.52335 0.05240 1.23900
O 	O 	0.97743 0.56257 0.07857 -0.35300
O 	O 	0.98213 0.48447 0.08434 -0.35500
C 	C 	0.97213 0.52337 0.08976 0.31100
C 	C 	0.93973 0.47867 0.14432 -0.02100
C 	C 	0.95713 0.48277 0.12457 -0.02400
H 	H 	0.97103 0.45887 0.12007 0.06000
C 	C 	0.93443 0.55787 0.11770 0.00100
H 	H 	0.93163 0.58337 0.10897 0.05800
C 	C 	0.91833 0.55517 0.13751 -0.08400
H 	H 	0.90603 0.58047 0.14187 0.07000
C 	C 	0.95433 0.52197 0.11134 -0.05400
C 	C 	0.93763 0.43427 0.15740 0.04100
C 	C 	0.91463 0.42777 0.17633 -0.02700
C 	C 	0.90103 0.51307 0.17131 -0.02900
C 	C 	0.88453 0.55187 0.17875 -0.00000
H 	H 	0.88633 0.58077 0.17047 0.03700
C 	C 	0.91973 0.51607 0.15104 0.03600
C 	C 	0.89713 0.46817 0.18423 0.04600
C 	C 	0.90483 0.37967 0.18809 -0.00500
H 	H 	0.88993 0.37557 0.20087 0.05300
C 	C 	0.86533 0.54817 0.19849 -0.09700
C 	C 	0.87873 0.46667 0.20398 -0.10300
H 	H 	0.87733 0.43887 0.21267 0.07600
C 	C 	0.86293 0.50537 0.21053 0.03700
H 	H 	0.85003 0.50257 0.22357 0.04100
C 	C 	0.91733 0.33817 0.18060 -0.08700
C 	C 	0.94333 0.34677 0.16222 0.02700
H 	H 	0.95353 0.32027 0.15737 0.03300
C 	C 	0.95393 0.39397 0.15108 -0.09800
H 	H 	0.97263 0.39977 0.13887 0.07200
O 	O 	0.91363 0.46687 0.04408 -0.43600
C 	C 	0.89063 0.43947 0.02844 0.39500
C 	C 	0.89953 0.28427 0.19240 0.33000
O 	O 	0.91173 0.44457 0.01160 -0.43800
C 	C 	0.84683 0.58967 0.20573 0.34700
C 	C 	0.82683 0.39557 0.02922 -0.11400
O 	O 	0.85443 0.63147 0.19485 -0.49900
O 	O 	0.90276 0.24312 0.18492 -0.45900
O 	O 	0.88323 0.28307 0.21040 -0.37900
O 	O 	0.82413 0.58107 0.22264 -0.36200
C 	C 	0.72653 0.37347 0.03042 -0.05800
C 	C 	0.70773 0.31477 0.03090 0.07600
C 	C 	0.78733 0.41367 0.03003 0.03100
H 	H 	0.80033 0.45327 0.03037 0.02900
C 	C 	0.74833 0.29597 0.02957 -0.12200
H 	H 	0.73593 0.25647 0.02917 0.08200
C 	C 	0.80803 0.33727 0.02887 0.05600
H 	H 	0.83503 0.32487 0.02817 0.02300
Cd	Cd	0.14332 0.81427 0.38574 1.24200
O 	O 	0.10410 0.74820 0.41190 -0.35700
O 	O 	0.18220 0.83100 0.41767 -0.35800
C 	C 	0.14330 0.78210 0.42309 0.31100
C 	C 	0.18800 0.79440 0.47765 -0.02200
C 	C 	0.18390 0.80770 0.45790 -0.02500
H 	H 	0.20780 0.84550 0.45340 0.05900
C 	C 	0.10880 0.70990 0.45103 0.00100
H 	H 	0.08330 0.68160 0.44230 0.05700
C 	C 	0.11150 0.69650 0.47084 -0.08500
H 	H 	0.08620 0.65890 0.47520 0.06900
C 	C 	0.14470 0.76570 0.44467 -0.05500
C 	C 	0.23240 0.83670 0.49073 0.04000
C 	C 	0.23890 0.82020 0.50966 -0.02700
C 	C 	0.15360 0.72130 0.50464 -0.03000
C 	C 	0.11480 0.66600 0.51208 0.00000
H 	H 	0.08590 0.63890 0.50380 0.03500
C 	C 	0.15060 0.73700 0.48437 0.03600
C 	C 	0.19850 0.76230 0.51756 0.04500
C 	C 	0.28700 0.85850 0.52142 -0.00600
H 	H 	0.29110 0.84770 0.53420 0.05400
C 	C 	0.11850 0.65050 0.53182 -0.09900
C 	C 	0.20000 0.74540 0.53731 -0.10400
H 	H 	0.22780 0.77180 0.54600 0.07600
C 	C 	0.16130 0.69090 0.54386 0.03700
H 	H 	0.16410 0.68080 0.55690 0.04000
C 	C 	0.32850 0.91250 0.51393 -0.08600
C 	C 	0.31990 0.92990 0.49555 0.02500
H 	H 	0.34640 0.96660 0.49070 0.03500
C 	C 	0.27270 0.89330 0.48441 -0.09700
H 	H 	0.26690 0.90620 0.47220 0.07200
O 	O 	0.19980 0.78010 0.37741 -0.43900
C 	C 	0.22720 0.78450 0.36177 0.39500
C 	C 	0.38240 0.94860 0.52573 0.32900
O 	O 	0.22210 0.80050 0.34493 -0.44000
C 	C 	0.07700 0.59050 0.53906 0.34700
C 	C 	0.27110 0.76460 0.36255 -0.11500
O 	O 	0.03520 0.55630 0.52818 -0.50300
O 	O 	0.42355 0.99298 0.51825 -0.45500
O 	O 	0.38360 0.93350 0.54373 -0.37700
O 	O 	0.08560 0.57640 0.55597 -0.36400
C 	C 	0.29320 0.68640 0.36375 -0.05800
C 	C 	0.35190 0.72630 0.36423 0.07600
C 	C 	0.25300 0.70700 0.36336 0.03100
H 	H 	0.21340 0.68040 0.36370 0.02900
C 	C 	0.37070 0.78570 0.36290 -0.12200
H 	H 	0.41020 0.81280 0.36250 0.08200
C 	C 	0.32940 0.80410 0.36220 0.05600
H 	H 	0.34180 0.84350 0.36150 0.02300
Cd	Cd	0.80999 0.14760 0.71907 1.24200
O 	O 	0.77077 0.08153 0.74523 -0.36000
O 	O 	0.84887 0.16433 0.75100 -0.35900
C 	C 	0.80997 0.11543 0.75642 0.31500
C 	C 	0.85467 0.12773 0.81098 -0.03400
C 	C 	0.85057 0.14103 0.79123 -0.01400
H 	H 	0.87447 0.17883 0.78673 0.05500
C 	C 	0.77547 0.04323 0.78436 0.02000
H 	H 	0.74997 0.01493 0.77563 0.04800
C 	C 	0.77817 0.02983 0.80417 -0.11600
H 	H 	0.75287 0.99223 0.80853 0.08600
C 	C 	0.81137 0.09903 0.77800 -0.06600
C 	C 	0.89907 0.17003 0.82406 0.05100
C 	C 	0.90557 0.15353 0.84299 -0.03400
C 	C 	0.82027 0.05463 0.83797 -0.04600
C 	C 	0.78147 0.99933 0.84541 0.01400
H 	H 	0.75257 0.97223 0.83713 0.03300
C 	C 	0.81727 0.07033 0.81770 0.05200
C 	C 	0.86517 0.09563 0.85089 0.05100
C 	C 	0.95367 0.19183 0.85475 -0.00000
H 	H 	0.95777 0.18103 0.86753 0.05300
C 	C 	0.78517 0.98383 0.86515 -0.09200
C 	C 	0.86667 0.07873 0.87064 -0.10400
H 	H 	0.89447 0.10513 0.87933 0.07600
C 	C 	0.82797 0.02423 0.87719 0.02700
H 	H 	0.83077 0.01413 0.89023 0.04200
C 	C 	0.99517 0.24583 0.84726 -0.08900
C 	C 	0.98657 0.26323 0.82888 0.04900
H 	H 	0.01307 0.29993 0.82403 0.01900
C 	C 	0.93937 0.22663 0.81774 -0.11400
H 	H 	0.93357 0.23953 0.80553 0.07800
O 	O 	0.86647 0.11343 0.71074 -0.44100
C 	C 	0.89387 0.11783 0.69510 0.40300
C 	C 	0.04907 0.28193 0.85906 0.32600
O 	O 	0.88877 0.13383 0.67826 -0.44100
C 	C 	0.74367 0.92383 0.87239 0.34600
C 	C 	0.93777 0.09793 0.69588 -0.13400
O 	O 	0.70187 0.88963 0.86151 -0.49900
O 	O 	0.09022 0.32631 0.85158 -0.45900
O 	O 	0.05027 0.26683 0.87706 -0.38100
O 	O 	0.75227 0.90973 0.88930 -0.35900
C 	C 	0.95987 0.01973 0.69708 -0.06700
C 	C 	0.01857 0.05963 0.69756 0.07900
C 	C 	0.91967 0.04033 0.69669 0.04500
H 	H 	0.88007 0.01373 0.69703 0.02200
C 	C 	0.03737 0.11903 0.69623 -0.15100
H 	H 	0.07687 0.14613 0.69583 0.09100
C 	C 	0.99607 0.13743 0.69553 0.09800
H 	H 	0.00847 0.17683 0.69483 0.00300
Cd	Cd	0.47665 0.48094 0.05240 1.24200
O 	O 	0.43743 0.41487 0.07857 -0.35700
O 	O 	0.51553 0.49767 0.08434 -0.35800
C 	C 	0.47663 0.44877 0.08976 0.31200
C 	C 	0.52133 0.46107 0.14432 -0.02300
C 	C 	0.51723 0.47437 0.12457 -0.02400
H 	H 	0.54113 0.51217 0.12007 0.05800
C 	C 	0.44213 0.37657 0.11770 0.00200
H 	H 	0.41663 0.34827 0.10897 0.05700
C 	C 	0.44483 0.36317 0.13751 -0.08500
H 	H 	0.41953 0.32557 0.14187 0.07000
C 	C 	0.47803 0.43237 0.11134 -0.05500
C 	C 	0.56573 0.50337 0.15740 0.04100
C 	C 	0.57223 0.48687 0.17633 -0.02800
C 	C 	0.48693 0.38797 0.17131 -0.02900
C 	C 	0.44813 0.33267 0.17875 -0.00000
H 	H 	0.41923 0.30557 0.17047 0.03700
C 	C 	0.48393 0.40367 0.15104 0.03600
C 	C 	0.53183 0.42897 0.18423 0.04500
C 	C 	0.62033 0.52517 0.18809 -0.00500
H 	H 	0.62443 0.51437 0.20087 0.05300
C 	C 	0.45183 0.31717 0.19849 -0.09800
C 	C 	0.53333 0.41207 0.20398 -0.10400
H 	H 	0.56113 0.43847 0.21267 0.07600
C 	C 	0.49463 0.35757 0.21053 0.03700
H 	H 	0.49743 0.34747 0.22357 0.04100
C 	C 	0.66183 0.57917 0.18060 -0.08800
C 	C 	0.65323 0.59657 0.16222 0.02600
H 	H 	0.67973 0.63327 0.15737 0.03200
C 	C 	0.60603 0.55997 0.15108 -0.09900
H 	H 	0.60023 0.57287 0.13887 0.07100
O 	O 	0.53313 0.44677 0.04408 -0.43900
C 	C 	0.56053 0.45117 0.02844 0.39500
C 	C 	0.71573 0.61527 0.19240 0.33000
O 	O 	0.55543 0.46717 0.01160 -0.44000
C 	C 	0.41033 0.25717 0.20573 0.34700
C 	C 	0.60443 0.43127 0.02922 -0.11500
O 	O 	0.36853 0.22297 0.19485 -0.50000
O 	O 	0.75688 0.65965 0.18492 -0.46000
O 	O 	0.71693 0.60017 0.21040 -0.37900
O 	O 	0.41893 0.24307 0.22264 -0.36200
C 	C 	0.62653 0.35307 0.03042 -0.05800
C 	C 	0.68523 0.39297 0.03090 0.07600
C 	C 	0.58633 0.37367 0.03003 0.03100
H 	H 	0.54673 0.34707 0.03037 0.02900
C 	C 	0.70403 0.45237 0.02957 -0.12200
H 	H 	0.74353 0.47947 0.02917 0.08200
C 	C 	0.66273 0.47077 0.02887 0.05600
H 	H 	0.67513 0.51017 0.02817 0.02300
Cd	Cd	0.32905 0.18573 0.11426 1.24200
O 	O 	0.35590 0.25180 0.08810 -0.35700
O 	O 	0.35120 0.16900 0.08233 -0.36000
C 	C 	0.36120 0.21790 0.07691 0.31200
C 	C 	0.39360 0.20560 0.02235 -0.02300
C 	C 	0.37620 0.19230 0.04210 -0.02400
H 	H 	0.36230 0.15450 0.04660 0.05800
C 	C 	0.39890 0.29010 0.04897 0.00200
H 	H 	0.40170 0.31840 0.05770 0.05700
C 	C 	0.41500 0.30350 0.02916 -0.08600
H 	H 	0.42730 0.34110 0.02480 0.07000
C 	C 	0.37900 0.23430 0.05533 -0.05600
C 	C 	0.39570 0.16330 0.00927 0.04100
C 	C 	0.41870 0.17980 0.99034 -0.02900
C 	C 	0.43230 0.27870 0.99536 -0.03000
C 	C 	0.44880 0.33400 0.98792 -0.00000
H 	H 	0.44700 0.36110 0.99620 0.03600
C 	C 	0.41360 0.26300 0.01563 0.03600
C 	C 	0.43620 0.23770 0.98244 0.04500
C 	C 	0.42850 0.14150 0.97858 -0.00400
H 	H 	0.44340 0.15230 0.96580 0.05200
C 	C 	0.46800 0.34950 0.96818 -0.09800
C 	C 	0.45460 0.25460 0.96269 -0.10400
H 	H 	0.45600 0.22820 0.95400 0.07600
C 	C 	0.47040 0.30910 0.95614 0.03700
H 	H 	0.48330 0.31920 0.94310 0.04100
C 	C 	0.41600 0.08750 0.98607 -0.09000
C 	C 	0.39000 0.07010 0.00445 0.02700
H 	H 	0.37980 0.03340 0.00930 0.03000
C 	C 	0.37940 0.10670 0.01559 -0.10000
H 	H 	0.36070 0.09380 0.02780 0.07000
O 	O 	0.41970 0.21990 0.12259 -0.43900
C 	C 	0.44270 0.21550 0.13823 0.39500
C 	C 	0.43380 0.05140 0.97427 0.33100
O 	O 	0.42160 0.19950 0.15507 -0.44000
C 	C 	0.48650 0.40950 0.96094 0.34700
C 	C 	0.50650 0.23540 0.13745 -0.11500
O 	O 	0.47890 0.44370 0.97182 -0.50000
O 	O 	0.43057 0.00702 0.98175 -0.46400
O 	O 	0.45010 0.06650 0.95627 -0.38200
O 	O 	0.50920 0.42360 0.94403 -0.36200
C 	C 	0.60680 0.31360 0.13625 -0.05800
C 	C 	0.62560 0.27370 0.13577 0.07600
C 	C 	0.54600 0.29300 0.13664 0.03100
H 	H 	0.53300 0.31960 0.13630 0.02900
C 	C 	0.58500 0.21430 0.13710 -0.12200
H 	H 	0.59740 0.18720 0.13750 0.08200
C 	C 	0.52530 0.19590 0.13780 0.05600
H 	H 	0.49830 0.15650 0.13850 0.02300
Cd	Cd	0.99572 0.51906 0.44760 1.24500
O 	O 	0.02257 0.58513 0.42143 -0.36000
O 	O 	0.01787 0.50233 0.41566 -0.36200
C 	C 	0.02787 0.55123 0.41024 0.31200
C 	C 	0.06027 0.53893 0.35568 -0.02400
C 	C 	0.04287 0.52563 0.37543 -0.02400
H 	H 	0.02897 0.48783 0.37993 0.05700
C 	C 	0.06557 0.62343 0.38230 0.00200
H 	H 	0.06837 0.65173 0.39103 0.05700
C 	C 	0.08167 0.63683 0.36249 -0.08600
H 	H 	0.09397 0.67443 0.35813 0.07000
C 	C 	0.04567 0.56763 0.38866 -0.05700
C 	C 	0.06237 0.49663 0.34260 0.04000
C 	C 	0.08537 0.51313 0.32367 -0.02900
C 	C 	0.09897 0.61203 0.32869 -0.03000
C 	C 	0.11547 0.66733 0.32125 -0.00000
H 	H 	0.11367 0.69443 0.32953 0.03600
C 	C 	0.08027 0.59633 0.34896 0.03600
C 	C 	0.10287 0.57103 0.31577 0.04500
C 	C 	0.09517 0.47483 0.31191 -0.00500
H 	H 	0.11007 0.48563 0.29913 0.05200
C 	C 	0.13467 0.68283 0.30151 -0.09800
C 	C 	0.12127 0.58793 0.29602 -0.10400
H 	H 	0.12267 0.56153 0.28733 0.07500
C 	C 	0.13707 0.64243 0.28947 0.03600
H 	H 	0.14997 0.65253 0.27643 0.04000
C 	C 	0.08267 0.42083 0.31940 -0.08900
C 	C 	0.05667 0.40343 0.33778 0.02600
H 	H 	0.04647 0.36673 0.34263 0.03200
C 	C 	0.04607 0.44003 0.34892 -0.09900
H 	H 	0.02737 0.42713 0.36113 0.07000
O 	O 	0.08637 0.55323 0.45592 -0.44100
C 	C 	0.10937 0.54883 0.47156 0.39500
C 	C 	0.10047 0.38473 0.30760 0.33000
O 	O 	0.08827 0.53283 0.48840 -0.44200
C 	C 	0.15317 0.74283 0.29427 0.34700
C 	C 	0.17317 0.56873 0.47078 -0.11500
O 	O 	0.14557 0.77703 0.30515 -0.50000
O 	O 	0.09724 0.34035 0.31508 -0.46000
O 	O 	0.11677 0.39983 0.28960 -0.38000
O 	O 	0.17587 0.75693 0.27736 -0.36200
C 	C 	0.27347 0.64693 0.46958 -0.05800
C 	C 	0.29227 0.60703 0.46910 0.07600
C 	C 	0.21267 0.62633 0.46997 0.03100
H 	H 	0.19967 0.65293 0.46963 0.02900
C 	C 	0.25167 0.54763 0.47043 -0.12200
H 	H 	0.26407 0.52053 0.47083 0.08200
C 	C 	0.19197 0.52923 0.47113 0.05600
H 	H 	0.16497 0.48983 0.47183 0.02200
Cd	Cd	0.66238 0.85240 0.78093 1.24200
O 	O 	0.68923 0.91847 0.75477 -0.35300
O 	O 	0.68453 0.83567 0.74900 -0.35700
C 	C 	0.69453 0.88457 0.74358 0.30800
C 	C 	0.72693 0.87227 0.68902 -0.01300
C 	C 	0.70953 0.85897 0.70877 -0.03300
H 	H 	0.69563 0.82117 0.71327 0.06200
C 	C 	0.73223 0.95677 0.71564 -0.01600
H 	H 	0.73503 0.98507 0.72437 0.06700
C 	C 	0.74833 0.97017 0.69583 -0.05500
H 	H 	0.76063 0.00777 0.69147 0.05500
C 	C 	0.71233 0.90097 0.72200 -0.04500
C 	C 	0.72903 0.82997 0.67594 0.03600
C 	C 	0.75203 0.84647 0.65701 -0.02400
C 	C 	0.76563 0.94537 0.66203 -0.01300
C 	C 	0.78213 0.00067 0.65459 -0.01300
H 	H 	0.78033 0.02777 0.66287 0.04000
C 	C 	0.74693 0.92967 0.68230 0.02100
C 	C 	0.76953 0.90437 0.64911 0.04200
C 	C 	0.76183 0.80817 0.64525 -0.00700
H 	H 	0.77673 0.81897 0.63247 0.05500
C 	C 	0.80133 0.01617 0.63485 -0.10300
C 	C 	0.78793 0.92127 0.62936 -0.10400
H 	H 	0.78933 0.89487 0.62067 0.07700
C 	C 	0.80373 0.97577 0.62281 0.04700
H 	H 	0.81663 0.98587 0.60977 0.04100
C 	C 	0.74933 0.75417 0.65274 -0.08600
C 	C 	0.72333 0.73677 0.67112 0.02400
H 	H 	0.71313 0.70007 0.67597 0.03300
C 	C 	0.71273 0.77337 0.68226 -0.09500
H 	H 	0.69403 0.76047 0.69447 0.07000
O 	O 	0.75303 0.88657 0.78926 -0.43800
C 	C 	0.77603 0.88217 0.80490 0.39400
C 	C 	0.76713 0.71807 0.64094 0.32900
O 	O 	0.75493 0.86617 0.82174 -0.44000
C 	C 	0.81983 0.07617 0.62761 0.34800
C 	C 	0.83983 0.90207 0.80412 -0.11200
O 	O 	0.81223 0.11037 0.63849 -0.50000
O 	O 	0.76390 0.67369 0.64842 -0.45900
O 	O 	0.78343 0.73317 0.62294 -0.37900
O 	O 	0.84253 0.09027 0.61070 -0.36300
C 	C 	0.94013 0.98027 0.80292 -0.04700
C 	C 	0.95893 0.94037 0.80244 0.08400
C 	C 	0.87933 0.95967 0.80331 0.02700
H 	H 	0.86633 0.98627 0.80297 0.03400
C 	C 	0.91833 0.88097 0.80377 -0.12400
H 	H 	0.93073 0.85387 0.80417 0.08500
C 	C 	0.85863 0.86257 0.80447 0.05600
H 	H 	0.83163 0.82317 0.80517 0.02300
Cd	Cd	0.85668 0.67095 0.11426 1.24200
O 	O 	0.89590 0.64410 0.08810 -0.35500
O 	O 	0.81780 0.64880 0.08233 -0.35800
C 	C 	0.85670 0.63880 0.07691 0.31200
C 	C 	0.81200 0.60640 0.02235 -0.02200
C 	C 	0.81610 0.62380 0.04210 -0.02400
H 	H 	0.79220 0.63770 0.04660 0.05900
C 	C 	0.89120 0.60110 0.04897 0.00200
H 	H 	0.91670 0.59830 0.05770 0.05800
C 	C 	0.88850 0.58500 0.02916 -0.08500
H 	H 	0.91380 0.57270 0.02480 0.07200
C 	C 	0.85530 0.62100 0.05533 -0.05500
C 	C 	0.76760 0.60430 0.00927 0.04100
C 	C 	0.76110 0.58130 0.99034 -0.02700
C 	C 	0.84640 0.56770 0.99536 -0.02800
C 	C 	0.88520 0.55120 0.98792 -0.00100
H 	H 	0.91410 0.55300 0.99620 0.03800
C 	C 	0.84940 0.58640 0.01563 0.03600
C 	C 	0.80150 0.56380 0.98244 0.04500
C 	C 	0.71300 0.57150 0.97858 -0.00500
H 	H 	0.70890 0.55660 0.96580 0.05300
C 	C 	0.88150 0.53200 0.96818 -0.09500
C 	C 	0.80000 0.54540 0.96269 -0.10200
H 	H 	0.77220 0.54400 0.95400 0.07600
C 	C 	0.83870 0.52960 0.95614 0.03600
H 	H 	0.83590 0.51670 0.94310 0.04200
C 	C 	0.67150 0.58400 0.98607 -0.08800
C 	C 	0.68010 0.61000 0.00445 0.02600
H 	H 	0.65360 0.62020 0.00930 0.03300
C 	C 	0.72730 0.62060 0.01559 -0.09800
H 	H 	0.73310 0.63930 0.02780 0.07200
O 	O 	0.80020 0.58030 0.12259 -0.43900
C 	C 	0.77280 0.55730 0.13823 0.39500
C 	C 	0.61760 0.56620 0.97427 0.33000
O 	O 	0.77790 0.57840 0.15507 -0.44000
C 	C 	0.92300 0.51350 0.96094 0.34600
C 	C 	0.72890 0.49350 0.13745 -0.11500
O 	O 	0.96480 0.52110 0.97182 -0.49600
O 	O 	0.57645 0.56943 0.98175 -0.46000
O 	O 	0.61640 0.54990 0.95627 -0.37900
O 	O 	0.91440 0.49080 0.94403 -0.36000
C 	C 	0.70680 0.39320 0.13625 -0.05800
C 	C 	0.64810 0.37440 0.13577 0.07600
C 	C 	0.74700 0.45400 0.13664 0.03100
H 	H 	0.78660 0.46700 0.13630 0.02900
C 	C 	0.62930 0.41500 0.13710 -0.12200
H 	H 	0.58980 0.40260 0.13750 0.08200
C 	C 	0.67060 0.47470 0.13780 0.05600
H 	H 	0.65820 0.50170 0.13850 0.02300
Cd	Cd	0.52335 0.00428 0.44760 1.23900
O 	O 	0.56257 0.97743 0.42143 -0.35300
O 	O 	0.48447 0.98213 0.41566 -0.35500
C 	C 	0.52337 0.97213 0.41024 0.31100
C 	C 	0.47867 0.93973 0.35568 -0.02100
C 	C 	0.48277 0.95713 0.37543 -0.02400
H 	H 	0.45887 0.97103 0.37993 0.06000
C 	C 	0.55787 0.93443 0.38230 0.00100
H 	H 	0.58337 0.93163 0.39103 0.05800
C 	C 	0.55517 0.91833 0.36249 -0.08400
H 	H 	0.58047 0.90603 0.35813 0.07000
C 	C 	0.52197 0.95433 0.38866 -0.05400
C 	C 	0.43427 0.93763 0.34260 0.04100
C 	C 	0.42777 0.91463 0.32367 -0.02700
C 	C 	0.51307 0.90103 0.32869 -0.02900
C 	C 	0.55187 0.88453 0.32125 -0.00000
H 	H 	0.58077 0.88633 0.32953 0.03700
C 	C 	0.51607 0.91973 0.34896 0.03600
C 	C 	0.46817 0.89713 0.31577 0.04600
C 	C 	0.37967 0.90483 0.31191 -0.00500
H 	H 	0.37557 0.88993 0.29913 0.05300
C 	C 	0.54817 0.86533 0.30151 -0.09700
C 	C 	0.46667 0.87873 0.29602 -0.10300
H 	H 	0.43887 0.87733 0.28733 0.07600
C 	C 	0.50537 0.86293 0.28947 0.03700
H 	H 	0.50257 0.85003 0.27643 0.04100
C 	C 	0.33817 0.91733 0.31940 -0.08700
C 	C 	0.34677 0.94333 0.33778 0.02700
H 	H 	0.32027 0.95353 0.34263 0.03300
C 	C 	0.39397 0.95393 0.34892 -0.09800
H 	H 	0.39977 0.97263 0.36113 0.07200
O 	O 	0.46687 0.91363 0.45592 -0.43600
C 	C 	0.43947 0.89063 0.47156 0.39500
C 	C 	0.28427 0.89953 0.30760 0.33000
O 	O 	0.44457 0.91173 0.48840 -0.43800
C 	C 	0.58967 0.84683 0.29427 0.34700
C 	C 	0.39557 0.82683 0.47078 -0.11400
O 	O 	0.63147 0.85443 0.30515 -0.49900
O 	O 	0.24312 0.90276 0.31508 -0.45900
O 	O 	0.28307 0.88323 0.28960 -0.37900
O 	O 	0.58107 0.82413 0.27736 -0.36200
C 	C 	0.37347 0.72653 0.46958 -0.05800
C 	C 	0.31477 0.70773 0.46910 0.07600
C 	C 	0.41367 0.78733 0.46997 0.03100
H 	H 	0.45327 0.80033 0.46963 0.02900
C 	C 	0.29597 0.74833 0.47043 -0.12200
H 	H 	0.25647 0.73593 0.47083 0.08200
C 	C 	0.33727 0.80803 0.47113 0.05600
H 	H 	0.32487 0.83503 0.47183 0.02300
Cd	Cd	0.19001 0.33762 0.78093 1.24200
O 	O 	0.22923 0.31077 0.75477 -0.35700
O 	O 	0.15113 0.31547 0.74900 -0.36000
C 	C 	0.19003 0.30547 0.74358 0.31100
C 	C 	0.14533 0.27307 0.68902 -0.02100
C 	C 	0.14943 0.29047 0.70877 -0.02600
H 	H 	0.12553 0.30437 0.71327 0.05800
C 	C 	0.22453 0.26777 0.71564 0.00100
H 	H 	0.25003 0.26497 0.72437 0.05700
C 	C 	0.22183 0.25167 0.69583 -0.08400
H 	H 	0.24713 0.23937 0.69147 0.07000
C 	C 	0.18863 0.28767 0.72200 -0.05500
C 	C 	0.10093 0.27097 0.67594 0.03500
C 	C 	0.09443 0.24797 0.65701 -0.02600
C 	C 	0.17973 0.23437 0.66203 -0.02900
C 	C 	0.21853 0.21787 0.65459 -0.00100
H 	H 	0.24743 0.21967 0.66287 0.03700
C 	C 	0.18273 0.25307 0.68230 0.03400
C 	C 	0.13483 0.23047 0.64911 0.04300
C 	C 	0.04633 0.23817 0.64525 -0.00700
H 	H 	0.04223 0.22327 0.63247 0.05100
C 	C 	0.21483 0.19867 0.63485 -0.09800
C 	C 	0.13333 0.21207 0.62936 -0.10300
H 	H 	0.10553 0.21067 0.62067 0.07400
C 	C 	0.17203 0.19627 0.62281 0.03500
H 	H 	0.16923 0.18337 0.60977 0.04000
C 	C 	0.00483 0.25067 0.65274 -0.08900
C 	C 	0.01343 0.27667 0.67112 0.00600
H 	H 	0.98693 0.28687 0.67597 0.04500
C 	C 	0.06063 0.28727 0.68226 -0.08700
H 	H 	0.06643 0.30597 0.69447 0.06600
O 	O 	0.13353 0.24697 0.78926 -0.43800
C 	C 	0.10613 0.22397 0.80490 0.38800
C 	C 	0.95093 0.23287 0.64094 0.33500
O 	O 	0.11123 0.24507 0.82174 -0.44000
C 	C 	0.25633 0.18017 0.62761 0.34700
C 	C 	0.06223 0.16017 0.80412 -0.09900
O 	O 	0.29813 0.18777 0.63849 -0.50000
O 	O 	0.90978 0.23610 0.64842 -0.46000
O 	O 	0.94973 0.21657 0.62294 -0.37800
O 	O 	0.24773 0.15747 0.61070 -0.36300
C 	C 	0.04013 0.05987 0.80292 -0.06100
C 	C 	0.98143 0.04107 0.80244 0.06500
C 	C 	0.08033 0.12067 0.80331 0.02100
H 	H 	0.11993 0.13367 0.80297 0.03200
C 	C 	0.96263 0.08167 0.80377 -0.09100
H 	H 	0.92313 0.06927 0.80417 0.07000
C 	C 	0.00393 0.14137 0.80447 0.01300
H 	H 	0.99153 0.16837 0.80517 0.04200
Cd	Cd	0.81427 0.14332 0.11426 1.24200
O 	O 	0.74820 0.10410 0.08810 -0.35700
O 	O 	0.83100 0.18220 0.08233 -0.35800
C 	C 	0.78210 0.14330 0.07691 0.31100
C 	C 	0.79440 0.18800 0.02235 -0.02200
C 	C 	0.80770 0.18390 0.04210 -0.02500
H 	H 	0.84550 0.20780 0.04660 0.05900
C 	C 	0.70990 0.10880 0.04897 0.00100
H 	H 	0.68160 0.08330 0.05770 0.05700
C 	C 	0.69650 0.11150 0.02916 -0.08500
H 	H 	0.65890 0.08620 0.02480 0.06900
C 	C 	0.76570 0.14470 0.05533 -0.05500
C 	C 	0.83670 0.23240 0.00927 0.04000
C 	C 	0.82020 0.23890 0.99034 -0.02700
C 	C 	0.72130 0.15360 0.99536 -0.03000
C 	C 	0.66600 0.11480 0.98792 0.00000
H 	H 	0.63890 0.08590 0.99620 0.03500
C 	C 	0.73700 0.15060 0.01563 0.03500
C 	C 	0.76230 0.19850 0.98244 0.04500
C 	C 	0.85850 0.28700 0.97858 -0.00600
H 	H 	0.84770 0.29110 0.96580 0.05400
C 	C 	0.65050 0.11850 0.96818 -0.09900
C 	C 	0.74540 0.20000 0.96269 -0.10400
H 	H 	0.77180 0.22780 0.95400 0.07600
C 	C 	0.69090 0.16130 0.95614 0.03700
H 	H 	0.68080 0.16410 0.94310 0.04000
C 	C 	0.91250 0.32850 0.98607 -0.08600
C 	C 	0.92990 0.31990 0.00445 0.02500
H 	H 	0.96660 0.34640 0.00930 0.03500
C 	C 	0.89330 0.27270 0.01559 -0.09700
H 	H 	0.90620 0.26690 0.02780 0.07200
O 	O 	0.78010 0.19980 0.12259 -0.43900
C 	C 	0.78450 0.22720 0.13823 0.39500
C 	C 	0.94860 0.38240 0.97427 0.32900
O 	O 	0.80050 0.22210 0.15507 -0.44000
C 	C 	0.59050 0.07700 0.96094 0.34700
C 	C 	0.76460 0.27110 0.13745 -0.11500
O 	O 	0.55630 0.03520 0.97182 -0.50300
O 	O 	0.99298 0.42355 0.98175 -0.45500
O 	O 	0.93350 0.38360 0.95627 -0.37700
O 	O 	0.57640 0.08560 0.94403 -0.36400
C 	C 	0.68640 0.29320 0.13625 -0.05800
C 	C 	0.72630 0.35190 0.13577 0.07600
C 	C 	0.70700 0.25300 0.13664 0.03100
H 	H 	0.68040 0.21340 0.13630 0.02900
C 	C 	0.78570 0.37070 0.13710 -0.12200
H 	H 	0.81280 0.41020 0.13750 0.08200
C 	C 	0.80410 0.32940 0.13780 0.05600
H 	H 	0.84350 0.34180 0.13850 0.02300
Cd	Cd	0.48094 0.47665 0.44760 1.24200
O 	O 	0.41487 0.43743 0.42143 -0.35700
O 	O 	0.49767 0.51553 0.41566 -0.35800
C 	C 	0.44877 0.47663 0.41024 0.31200
C 	C 	0.46107 0.52133 0.35568 -0.02300
C 	C 	0.47437 0.51723 0.37543 -0.02400
H 	H 	0.51217 0.54113 0.37993 0.05800
C 	C 	0.37657 0.44213 0.38230 0.00200
H 	H 	0.34827 0.41663 0.39103 0.05700
C 	C 	0.36317 0.44483 0.36249 -0.08500
H 	H 	0.32557 0.41953 0.35813 0.07000
C 	C 	0.43237 0.47803 0.38866 -0.05500
C 	C 	0.50337 0.56573 0.34260 0.04100
C 	C 	0.48687 0.57223 0.32367 -0.02800
C 	C 	0.38797 0.48693 0.32869 -0.02900
C 	C 	0.33267 0.44813 0.32125 -0.00000
H 	H 	0.30557 0.41923 0.32953 0.03700
C 	C 	0.40367 0.48393 0.34896 0.03600
C 	C 	0.42897 0.53183 0.31577 0.04500
C 	C 	0.52517 0.62033 0.31191 -0.00500
H 	H 	0.51437 0.62443 0.29913 0.05300
C 	C 	0.31717 0.45183 0.30151 -0.09800
C 	C 	0.41207 0.53333 0.29602 -0.10400
H 	H 	0.43847 0.56113 0.28733 0.07600
C 	C 	0.35757 0.49463 0.28947 0.03700
H 	H 	0.34747 0.49743 0.27643 0.04100
C 	C 	0.57917 0.66183 0.31940 -0.08800
C 	C 	0.59657 0.65323 0.33778 0.02600
H 	H 	0.63327 0.67973 0.34263 0.03200
C 	C 	0.55997 0.60603 0.34892 -0.09900
H 	H 	0.57287 0.60023 0.36113 0.07100
O 	O 	0.44677 0.53313 0.45592 -0.43900
C 	C 	0.45117 0.56053 0.47156 0.39500
C 	C 	0.61527 0.71573 0.30760 0.33000
O 	O 	0.46717 0.55543 0.48840 -0.44000
C 	C 	0.25717 0.41033 0.29427 0.34700
C 	C 	0.43127 0.60443 0.47078 -0.11500
O 	O 	0.22297 0.36853 0.30515 -0.50000
O 	O 	0.65965 0.75688 0.31508 -0.46000
O 	O 	0.60017 0.71693 0.28960 -0.37900
O 	O 	0.24307 0.41893 0.27736 -0.36200
C 	C 	0.35307 0.62653 0.46958 -0.05800
C 	C 	0.39297 0.68523 0.46910 0.07600
C 	C 	0.37367 0.58633 0.46997 0.03100
H 	H 	0.34707 0.54673 0.46963 0.02900
C 	C 	0.45237 0.70403 0.47043 -0.12200
H 	H 	0.47947 0.74353 0.47083 0.08200
C 	C 	0.47077 0.66273 0.47113 0.05600
H 	H 	0.51017 0.67513 0.47183 0.02300
Cd	Cd	0.14760 0.80999 0.78093 1.24200
O 	O 	0.08153 0.77077 0.75477 -0.36000
O 	O 	0.16433 0.84887 0.74900 -0.35900
C 	C 	0.11543 0.80997 0.74358 0.31500
C 	C 	0.12773 0.85467 0.68902 -0.03400
C 	C 	0.14103 0.85057 0.70877 -0.01400
H 	H 	0.17883 0.87447 0.71327 0.05500
C 	C 	0.04323 0.77547 0.71564 0.02000
H 	H 	0.01493 0.74997 0.72437 0.04800
C 	C 	0.02983 0.77817 0.69583 -0.11600
H 	H 	0.99223 0.75287 0.69147 0.08600
C 	C 	0.09903 0.81137 0.72200 -0.06600
C 	C 	0.17003 0.89907 0.67594 0.05100
C 	C 	0.15353 0.90557 0.65701 -0.03400
C 	C 	0.05463 0.82027 0.66203 -0.04600
C 	C 	0.99933 0.78147 0.65459 0.01400
H 	H 	0.97223 0.75257 0.66287 0.03300
C 	C 	0.07033 0.81727 0.68230 0.05200
C 	C 	0.09563 0.86517 0.64911 0.05100
C 	C 	0.19183 0.95367 0.64525 -0.00000
H 	H 	0.18103 0.95777 0.63247 0.05300
C 	C 	0.98383 0.78517 0.63485 -0.09200
C 	C 	0.07873 0.86667 0.62936 -0.10400
H 	H 	0.10513 0.89447 0.62067 0.07600
C 	C 	0.02423 0.82797 0.62281 0.02700
H 	H 	0.01413 0.83077 0.60977 0.04200
C 	C 	0.24583 0.99517 0.65274 -0.08900
C 	C 	0.26323 0.98657 0.67112 0.04900
H 	H 	0.29993 0.01307 0.67597 0.01900
C 	C 	0.22663 0.93937 0.68226 -0.11400
H 	H 	0.23953 0.93357 0.69447 0.07800
O 	O 	0.11343 0.86647 0.78926 -0.44100
C 	C 	0.11783 0.89387 0.80490 0.40300
C 	C 	0.28193 0.04907 0.64094 0.32600
O 	O 	0.13383 0.88877 0.82174 -0.44100
C 	C 	0.92383 0.74367 0.62761 0.34600
C 	C 	0.09793 0.93777 0.80412 -0.13400
O 	O 	0.88963 0.70187 0.63849 -0.49900
O 	O 	0.32631 0.09022 0.64842 -0.45900
O 	O 	0.26683 0.05027 0.62294 -0.38100
O 	O 	0.90973 0.75227 0.61070 -0.35900
C 	C 	0.01973 0.95987 0.80292 -0.06700
C 	C 	0.05963 0.01857 0.80244 0.07900
C 	C 	0.04033 0.91967 0.80331 0.04500
H 	H 	0.01373 0.88007 0.80297 0.02200
C 	C 	0.11903 0.03737 0.80377 -0.15100
H 	H 	0.14613 0.07687 0.80417 0.09100
C 	C 	0.13743 0.99607 0.80447 0.09800
H 	H 	0.17683 0.00847 0.80517 0.00300
Cd	Cd	0.83333 0.66667 0.66667 1.24600
Cd	Cd	0.50000 0.00000 -0.00000 1.24300
Cd	Cd	0.33333 0.16667 0.66667 1.24600
Cd	Cd	-0.00000 0.50000 -0.00000 1.24300
Cd	Cd	0.83333 0.16667 0.66667 1.24600
Cd	Cd	0.50000 0.50000 -0.00000 1.24600
Cd	Cd	0.66667 0.83333 0.83333 1.24600
Cd	Cd	0.16667 0.33333 0.83333 1.24600
Cd	Cd	0.16667 0.83333 0.83333 1.24600
Cd	Cd	0.16667 0.33333 0.33333 1.24600
Cd	Cd	0.66667 0.83333 0.33333 1.24600
Cd	Cd	0.16667 0.83333 0.33333 1.24600
Cd	Cd	0.33333 0.16667 0.16667 1.24600
Cd	Cd	0.00000 0.50000 0.50000 1.24300
Cd	Cd	0.83333 0.66667 0.16667 1.24600
Cd	Cd	0.50000 -0.00000 0.50000 1.24300
Cd	Cd	0.83333 0.16667 0.16667 1.24600
Cd	Cd	0.50000 0.50000 0.50000 1.24600
