data_crystal

_cell_length_a 35.75070
_cell_length_b 16.32570
_cell_length_c 13.15590
_cell_angle_alpha 90.00000
_cell_angle_beta  90.00000
_cell_angle_gamma 90.00000

_symmetry_space_group_name_	'P 1'
_symmetry_space_group_name_H-M	'P 1'

loop_
_symmetry_equiv_pos_as_xyz
  x,y,z

loop_
_atom_site_label
_atom_site_type_symbol
_atom_site_fract_x
_atom_site_fract_y
_atom_site_fract_z
_atom_site_charge
C 	C 	0.74950 0.32540 0.87970 0.12200
C 	C 	0.78992 0.22960 0.79530 0.00600
H 	H 	0.79600 0.19950 0.73750 0.02500
C 	C 	0.65139 0.43210 0.13510 -0.04400
C 	C 	0.81285 0.22400 0.88270 -0.04500
O 	O 	0.61169 0.73600 0.27940 -0.46600
H 	H 	0.60280 0.74890 0.22420 0.26600
C 	C 	0.80192 0.26610 0.96870 0.03200
H 	H 	0.81570 0.26030 0.02820 0.02200
O 	O 	0.53534 0.55220 0.48720 -0.45700
C 	C 	0.84810 0.17500 0.87840 0.05800
C 	C 	0.66714 0.45790 0.65320 0.01900
H 	H 	0.64360 0.45250 0.62370 0.02800
C 	C 	0.65845 0.65450 0.35450 -0.13500
C 	C 	0.85493 0.11850 0.80140 -0.12400
H 	H 	0.83680 0.10960 0.75180 0.07100
C 	C 	0.58093 0.47640 0.39120 -0.11800
C 	C 	0.91497 0.08570 0.86970 -0.10700
C 	C 	0.71089 0.42040 0.78310 0.13400
C 	C 	0.68245 0.55880 0.51890 0.09100
O 	O 	0.66271 0.70770 0.18620 -0.29700
C 	C 	0.75862 0.27910 0.79450 -0.13800
H 	H 	0.74360 0.28150 0.73690 0.09000
C 	C 	0.68595 0.33440 0.02980 -0.17900
H 	H 	0.69390 0.28090 0.01850 0.09200
C 	C 	0.69397 0.62090 0.35420 0.06500
H 	H 	0.70990 0.62940 0.29930 0.01800
C 	C 	0.69658 0.39590 0.96290 0.15900
C 	C 	0.60979 0.41920 0.39640 0.05600
H 	H 	0.61360 0.38980 0.45610 0.02300
C 	C 	0.77073 0.31690 0.96820 -0.09600
H 	H 	0.76400 0.34520 0.02680 0.05400
C 	C 	0.72964 0.50900 0.64560 0.01900
H 	H 	0.74820 0.53850 0.61240 0.02700
C 	C 	0.88822 0.07540 0.79740 0.03200
H 	H 	0.89240 0.03880 0.74440 0.00400
C 	C 	0.64689 0.59610 0.51880 -0.14100
H 	H 	0.63090 0.58900 0.57380 0.07600
C 	C 	0.64523 0.70100 0.26530 0.36800
C 	C 	0.70573 0.57450 0.43650 -0.14400
H 	H 	0.72990 0.55320 0.43660 0.08200
C 	C 	0.66352 0.35190 0.11360 0.02300
H 	H 	0.65640 0.30940 0.15650 0.02100
N 	N 	0.71864 0.37920 0.87730 -0.17200
C 	C 	0.67506 0.41570 0.74190 -0.14600
H 	H 	0.65670 0.38460 0.77360 0.10200
C 	C 	0.63572 0.64340 0.43690 0.06800
H 	H 	0.61230 0.66820 0.43790 0.03300
C 	C 	0.73840 0.46610 0.73360 -0.14800
H 	H 	0.76260 0.46790 0.75960 0.08800
C 	C 	0.62729 0.44850 0.22390 0.08700
C 	C 	0.68465 0.47660 0.98170 -0.09800
H 	H 	0.69190 0.51860 0.93820 0.07700
C 	C 	0.87535 0.18470 0.95370 -0.06000
H 	H 	0.87150 0.22130 0.00690 0.04100
C 	C 	0.63277 0.40600 0.31330 -0.13900
H 	H 	0.65210 0.36800 0.31780 0.08400
O 	O 	0.95678 0.99490 0.78330 -0.43100
C 	C 	0.90829 0.13920 0.94860 0.01100
H 	H 	0.92610 0.14510 0.99950 0.04600
C 	C 	0.69377 0.50840 0.60670 -0.06100
C 	C 	0.57562 0.52040 0.30270 0.05200
H 	H 	0.55670 0.55940 0.29910 0.03000
O 	O 	0.97177 0.04320 0.93980 -0.22000
C 	C 	0.59870 0.50630 0.21760 -0.12900
H 	H 	0.59490 0.53540 0.15770 0.08000
C 	C 	0.94995 0.03820 0.86160 0.27700
C 	C 	0.66180 0.49390 0.06590 -0.03000
H 	H 	0.65350 0.54720 0.07630 0.04600
O 	O 	0.55653 0.44020 0.55560 -0.46100
C 	C 	0.55600 0.49090 0.48140 0.32900
C 	C 	0.25050 0.67460 0.87970 0.12600
C 	C 	0.21008 0.77040 0.79530 0.01400
H 	H 	0.20400 0.80050 0.73750 0.02400
C 	C 	0.34861 0.56790 0.13510 -0.04200
C 	C 	0.18715 0.77600 0.88270 -0.05100
O 	O 	0.38831 0.26400 0.27940 -0.46900
H 	H 	0.39720 0.25110 0.22420 0.26400
C 	C 	0.19808 0.73390 0.96870 0.03700
H 	H 	0.18430 0.73970 0.02820 0.02100
O 	O 	0.46466 0.44780 0.48720 -0.45900
C 	C 	0.15190 0.82500 0.87840 0.07500
C 	C 	0.33286 0.54210 0.65320 0.02000
H 	H 	0.35640 0.54750 0.62370 0.02800
C 	C 	0.34155 0.34550 0.35450 -0.13600
C 	C 	0.14507 0.88150 0.80140 -0.13900
H 	H 	0.16320 0.89040 0.75180 0.08400
C 	C 	0.41907 0.52360 0.39120 -0.11800
C 	C 	0.08503 0.91430 0.86970 -0.14400
C 	C 	0.28911 0.57960 0.78310 0.13500
C 	C 	0.31755 0.44120 0.51890 0.09200
O 	O 	0.33729 0.29230 0.18620 -0.29800
C 	C 	0.24138 0.72090 0.79450 -0.14100
H 	H 	0.25640 0.71850 0.73690 0.09200
C 	C 	0.31405 0.66560 0.02980 -0.17800
H 	H 	0.30610 0.71910 0.01850 0.09100
C 	C 	0.30603 0.37910 0.35420 0.06600
H 	H 	0.29010 0.37060 0.29930 0.01800
C 	C 	0.30342 0.60410 0.96290 0.15800
C 	C 	0.39021 0.58080 0.39640 0.05600
H 	H 	0.38640 0.61020 0.45610 0.02300
C 	C 	0.22927 0.68310 0.96820 -0.10000
H 	H 	0.23600 0.65480 0.02680 0.05600
C 	C 	0.27036 0.49100 0.64560 0.01900
H 	H 	0.25180 0.46150 0.61240 0.02700
C 	C 	0.11178 0.92460 0.79740 0.06700
H 	H 	0.10760 0.96120 0.74440 0.02000
C 	C 	0.35311 0.40390 0.51880 -0.14200
H 	H 	0.36910 0.41100 0.57380 0.07600
C 	C 	0.35477 0.29900 0.26530 0.36900
C 	C 	0.29427 0.42550 0.43650 -0.14500
H 	H 	0.27010 0.44680 0.43660 0.08300
C 	C 	0.33648 0.64810 0.11360 0.02200
H 	H 	0.34360 0.69060 0.15650 0.02200
N 	N 	0.28136 0.62080 0.87730 -0.17200
C 	C 	0.32494 0.58430 0.74190 -0.14600
H 	H 	0.34330 0.61540 0.77360 0.10200
C 	C 	0.36428 0.35660 0.43690 0.06900
H 	H 	0.38770 0.33180 0.43790 0.03100
C 	C 	0.26160 0.53390 0.73360 -0.14800
H 	H 	0.23740 0.53210 0.75960 0.08800
C 	C 	0.37271 0.55150 0.22390 0.08700
C 	C 	0.31535 0.52340 0.98170 -0.09700
H 	H 	0.30810 0.48140 0.93820 0.07700
C 	C 	0.12465 0.81530 0.95370 -0.08300
H 	H 	0.12850 0.77870 0.00690 0.04900
C 	C 	0.36723 0.59400 0.31330 -0.13900
H 	H 	0.34790 0.63200 0.31780 0.08400
O 	O 	0.04322 0.00510 0.78330 -0.54400
C 	C 	0.09171 0.86080 0.94860 0.04500
H 	H 	0.07390 0.85490 0.99950 0.03300
C 	C 	0.30623 0.49160 0.60670 -0.06100
C 	C 	0.42438 0.47960 0.30270 0.05300
H 	H 	0.44330 0.44060 0.29910 0.02900
O 	O 	0.02823 0.95680 0.93980 -0.23600
C 	C 	0.40130 0.49370 0.21760 -0.12900
H 	H 	0.40510 0.46460 0.15770 0.08000
C 	C 	0.05005 0.96180 0.86160 0.38200
C 	C 	0.33820 0.50610 0.06590 -0.03100
H 	H 	0.34650 0.45280 0.07630 0.04600
O 	O 	0.44347 0.55980 0.55560 -0.46000
C 	C 	0.44400 0.50910 0.48140 0.32900
C 	C 	0.24950 0.17460 0.87970 0.12200
C 	C 	0.28992 0.27040 0.79530 0.00900
H 	H 	0.29600 0.30050 0.73750 0.02600
C 	C 	0.15139 0.06790 0.13510 -0.00300
C 	C 	0.31285 0.27600 0.88270 -0.04700
O 	O 	0.11169 0.76400 0.27940 -0.46800
H 	H 	0.10280 0.75110 0.22420 0.26400
C 	C 	0.30192 0.23390 0.96870 0.03300
H 	H 	0.31570 0.23970 0.02820 0.02100
O 	O 	0.03534 0.94780 0.48720 -0.42400
C 	C 	0.34810 0.32500 0.87840 0.06600
C 	C 	0.16714 0.04210 0.65320 -0.03800
H 	H 	0.14360 0.04750 0.62370 0.03700
C 	C 	0.15845 0.84550 0.35450 -0.13200
C 	C 	0.35493 0.38150 0.80140 -0.13100
H 	H 	0.33680 0.39040 0.75180 0.07700
C 	C 	0.08093 0.02360 0.39120 -0.14500
C 	C 	0.41497 0.41430 0.86970 -0.12600
C 	C 	0.21089 0.07960 0.78310 0.13800
C 	C 	0.18245 0.94120 0.51890 0.08900
O 	O 	0.16271 0.79230 0.18620 -0.29600
C 	C 	0.25862 0.22090 0.79450 -0.13800
H 	H 	0.24360 0.21850 0.73690 0.09000
C 	C 	0.18595 0.16560 0.02980 -0.17000
H 	H 	0.19390 0.21910 0.01850 0.08800
C 	C 	0.19397 0.87910 0.35420 0.06700
H 	H 	0.20990 0.87060 0.29930 0.02200
C 	C 	0.19658 0.10410 0.96290 0.16100
C 	C 	0.10979 0.08080 0.39640 0.03900
H 	H 	0.11360 0.11020 0.45610 0.02500
C 	C 	0.27073 0.18310 0.96820 -0.09700
H 	H 	0.26400 0.15480 0.02680 0.05000
C 	C 	0.22964 0.99100 0.64560 0.07300
H 	H 	0.24820 0.96150 0.61240 0.01800
C 	C 	0.38822 0.42460 0.79740 0.04900
H 	H 	0.39240 0.46120 0.74440 0.01200
C 	C 	0.14689 0.90390 0.51880 -0.13200
H 	H 	0.13090 0.91100 0.57380 0.08000
C 	C 	0.14523 0.79900 0.26530 0.36900
C 	C 	0.20573 0.92550 0.43650 -0.13700
H 	H 	0.22990 0.94680 0.43660 0.08800
C 	C 	0.16352 0.14810 0.11360 -0.00100
H 	H 	0.15640 0.19060 0.15650 0.02900
N 	N 	0.21864 0.12080 0.87730 -0.17600
C 	C 	0.17506 0.08430 0.74190 -0.13600
H 	H 	0.15670 0.11540 0.77360 0.09400
C 	C 	0.13572 0.85660 0.43690 0.06900
H 	H 	0.11230 0.83180 0.43790 0.03300
C 	C 	0.23840 0.03390 0.73360 -0.21000
H 	H 	0.26260 0.03210 0.75960 0.09700
C 	C 	0.12729 0.05150 0.22390 0.01300
C 	C 	0.18465 0.02340 0.98170 -0.13500
H 	H 	0.19190 0.98140 0.93820 0.11500
C 	C 	0.37535 0.31530 0.95370 -0.07000
H 	H 	0.37150 0.27870 0.00690 0.04300
C 	C 	0.13277 0.09400 0.31330 -0.11200
H 	H 	0.15210 0.13200 0.31780 0.07100
O 	O 	0.45678 0.50510 0.78330 -0.49100
C 	C 	0.40829 0.36080 0.94860 0.02700
H 	H 	0.42610 0.35490 0.99950 0.04000
C 	C 	0.19377 0.99160 0.60670 -0.02600
C 	C 	0.07562 0.97960 0.30270 0.07600
H 	H 	0.05670 0.94060 0.29910 0.02500
O 	O 	0.47177 0.45680 0.93980 -0.22900
C 	C 	0.09870 0.99370 0.21760 -0.06500
H 	H 	0.09490 0.96460 0.15770 0.06500
C 	C 	0.44995 0.46180 0.86160 0.32900
C 	C 	0.16180 0.00610 0.06590 -0.10900
H 	H 	0.15350 0.95280 0.07630 0.09600
O 	O 	0.05653 0.05980 0.55560 -0.46200
C 	C 	0.05600 0.00910 0.48140 0.28300
C 	C 	0.75050 0.82540 0.87970 0.12800
C 	C 	0.71008 0.72960 0.79530 0.01200
H 	H 	0.70400 0.69950 0.73750 0.02500
C 	C 	0.84861 0.93210 0.13510 -0.08200
C 	C 	0.68715 0.72400 0.88270 -0.05000
O 	O 	0.88831 0.23600 0.27940 -0.46600
H 	H 	0.89720 0.24890 0.22420 0.26600
C 	C 	0.69808 0.76610 0.96870 0.03700
H 	H 	0.68430 0.76030 0.02820 0.02200
O 	O 	0.96466 0.05220 0.48720 -0.48500
C 	C 	0.65190 0.67500 0.87840 0.06900
C 	C 	0.83286 0.95790 0.65320 0.07800
H 	H 	0.85640 0.95250 0.62370 0.02000
C 	C 	0.84155 0.15450 0.35450 -0.13900
C 	C 	0.64507 0.61850 0.80140 -0.13300
H 	H 	0.66320 0.60960 0.75180 0.07800
C 	C 	0.91907 0.97640 0.39120 -0.09000
C 	C 	0.58503 0.58570 0.86970 -0.12700
C 	C 	0.78911 0.92040 0.78310 0.13100
C 	C 	0.81755 0.05880 0.51890 0.09400
O 	O 	0.83729 0.20770 0.18620 -0.29900
C 	C 	0.74138 0.77910 0.79450 -0.14100
H 	H 	0.75640 0.78150 0.73690 0.09100
C 	C 	0.81405 0.83440 0.02980 -0.18600
H 	H 	0.80610 0.78090 0.01850 0.09400
C 	C 	0.80603 0.12090 0.35420 0.06400
H 	H 	0.79010 0.12940 0.29930 0.01400
C 	C 	0.80342 0.89590 0.96290 0.15500
C 	C 	0.89021 0.91920 0.39640 0.07300
H 	H 	0.88640 0.88980 0.45610 0.02000
C 	C 	0.72927 0.81690 0.96820 -0.10000
H 	H 	0.73600 0.84520 0.02680 0.06100
C 	C 	0.77036 0.00900 0.64560 -0.03600
H 	H 	0.75180 0.03850 0.61240 0.03600
C 	C 	0.61178 0.57540 0.79740 0.05100
H 	H 	0.60760 0.53880 0.74440 0.01100
C 	C 	0.85311 0.09610 0.51880 -0.15100
H 	H 	0.86910 0.08900 0.57380 0.07200
C 	C 	0.85477 0.20100 0.26530 0.36800
C 	C 	0.79427 0.07450 0.43650 -0.15200
H 	H 	0.77010 0.05320 0.43660 0.07600
C 	C 	0.83648 0.85190 0.11360 0.04700
H 	H 	0.84360 0.80940 0.15650 0.01400
N 	N 	0.78136 0.87920 0.87730 -0.16800
C 	C 	0.82494 0.91570 0.74190 -0.15600
H 	H 	0.84330 0.88460 0.77360 0.11000
C 	C 	0.86428 0.14340 0.43690 0.06800
H 	H 	0.88770 0.16820 0.43790 0.03100
C 	C 	0.76160 0.96610 0.73360 -0.08600
H 	H 	0.73740 0.96790 0.75960 0.07900
C 	C 	0.87271 0.94850 0.22390 0.16200
C 	C 	0.81535 0.97660 0.98170 -0.06100
H 	H 	0.80810 0.01860 0.93820 0.03900
C 	C 	0.62465 0.68470 0.95370 -0.07400
H 	H 	0.62850 0.72130 0.00690 0.04600
C 	C 	0.86723 0.90600 0.31330 -0.16600
H 	H 	0.84790 0.86800 0.31780 0.09600
O 	O 	0.54322 0.49490 0.78330 -0.49200
C 	C 	0.59171 0.63920 0.94860 0.03000
H 	H 	0.57390 0.64510 0.99950 0.03900
C 	C 	0.80623 0.00840 0.60670 -0.09600
C 	C 	0.92438 0.02040 0.30270 0.02900
H 	H 	0.94330 0.05940 0.29910 0.03500
O 	O 	0.52823 0.54320 0.93980 -0.22900
C 	C 	0.90130 0.00630 0.21760 -0.19300
H 	H 	0.90510 0.03540 0.15770 0.09600
C 	C 	0.55005 0.53820 0.86160 0.33000
C 	C 	0.83820 0.99390 0.06590 0.05100
H 	H 	0.84650 0.04720 0.07630 -0.00600
O 	O 	0.94347 0.94020 0.55560 -0.45200
C 	C 	0.94400 0.99090 0.48140 0.37300
Ce	Ce	-0.00000 -0.00000 0.64079 2.07200
Ce	Ce	0.50000 0.50000 0.64079 2.10000
C 	C 	0.74950 0.82540 0.37970 0.14000
C 	C 	0.78992 0.72960 0.29530 0.02300
H 	H 	0.79600 0.69950 0.23750 0.01900
C 	C 	0.65139 0.93210 0.63510 -0.08900
C 	C 	0.81285 0.72400 0.38270 -0.06200
O 	O 	0.61169 0.23600 0.77940 -0.46600
H 	H 	0.60280 0.24890 0.72420 0.26700
C 	C 	0.80192 0.76610 0.46870 0.01500
H 	H 	0.81570 0.76030 0.52820 0.04400
O 	O 	0.53534 0.05220 0.98720 -0.49100
C 	C 	0.84810 0.67500 0.37840 0.10400
C 	C 	0.66714 0.95790 0.15320 0.07600
H 	H 	0.64360 0.95250 0.12370 0.01800
C 	C 	0.65845 0.15450 0.85450 -0.14800
C 	C 	0.85493 0.61850 0.30140 -0.16500
H 	H 	0.83680 0.60960 0.25180 0.08900
C 	C 	0.58093 0.97640 0.89120 -0.10300
C 	C 	0.91497 0.58570 0.36970 -0.15900
C 	C 	0.71089 0.92040 0.28310 0.12900
C 	C 	0.68245 0.05880 0.01890 0.07100
O 	O 	0.66271 0.20770 0.68620 -0.29700
C 	C 	0.75862 0.77910 0.29450 -0.15200
H 	H 	0.74360 0.78150 0.23690 0.09400
C 	C 	0.68595 0.83440 0.52980 -0.15100
H 	H 	0.69390 0.78090 0.51850 0.09200
C 	C 	0.69397 0.12090 0.85420 0.05900
H 	H 	0.70990 0.12940 0.79930 0.01700
C 	C 	0.69658 0.89590 0.46290 0.13200
C 	C 	0.60979 0.91920 0.89640 0.08500
H 	H 	0.61360 0.88980 0.95610 0.02500
C 	C 	0.77073 0.81690 0.46820 -0.14300
H 	H 	0.76400 0.84520 0.52680 0.09300
C 	C 	0.72964 0.00900 0.14560 -0.04100
H 	H 	0.74820 0.03850 0.11240 0.03100
C 	C 	0.88822 0.57540 0.29740 0.08100
H 	H 	0.89240 0.53880 0.24440 -0.00000
C 	C 	0.64689 0.09610 0.01880 -0.19400
H 	H 	0.63090 0.08900 0.07380 0.08000
C 	C 	0.64523 0.20100 0.76530 0.37400
C 	C 	0.70573 0.07450 0.93650 -0.11600
H 	H 	0.72990 0.05320 0.93660 0.07100
C 	C 	0.66352 0.85190 0.61360 0.04200
H 	H 	0.65640 0.80940 0.65650 0.01700
N 	N 	0.71864 0.87920 0.37730 -0.16900
C 	C 	0.67506 0.91570 0.24190 -0.15500
H 	H 	0.65670 0.88460 0.27360 0.10800
C 	C 	0.63572 0.14340 0.93690 0.11600
H 	H 	0.61230 0.16820 0.93790 0.02000
C 	C 	0.73840 0.96610 0.23360 -0.08400
H 	H 	0.76260 0.96790 0.25960 0.07700
C 	C 	0.62729 0.94850 0.72390 0.17100
C 	C 	0.68465 0.97660 0.48170 -0.09200
H 	H 	0.69190 0.01860 0.43820 0.04400
C 	C 	0.87535 0.68470 0.45370 -0.16000
H 	H 	0.87150 0.72130 0.50690 0.09600
C 	C 	0.63277 0.90600 0.81330 -0.17400
H 	H 	0.65210 0.86800 0.81780 0.10000
O 	O 	0.95678 0.49490 0.28330 -0.48700
C 	C 	0.90829 0.63920 0.44860 0.08100
H 	H 	0.92610 0.64510 0.49950 0.01600
C 	C 	0.69377 0.00840 0.10670 -0.09500
C 	C 	0.57562 0.02040 0.80270 0.04200
H 	H 	0.55670 0.05940 0.79910 0.02900
O 	O 	0.97177 0.54320 0.43980 -0.22600
C 	C 	0.59870 0.00630 0.71760 -0.20300
H 	H 	0.59490 0.03540 0.65770 0.10400
C 	C 	0.94995 0.53820 0.36160 0.34000
C 	C 	0.66180 0.99390 0.56590 0.08800
H 	H 	0.65350 0.04720 0.57630 -0.01100
O 	O 	0.55653 0.94020 0.05560 -0.48800
C 	C 	0.55600 0.99090 0.98140 0.40500
C 	C 	0.25050 0.17460 0.37970 0.13600
C 	C 	0.21008 0.27040 0.29530 0.02200
H 	H 	0.20400 0.30050 0.23750 0.01900
C 	C 	0.34861 0.06790 0.63510 -0.01400
C 	C 	0.18715 0.27600 0.38270 -0.06200
O 	O 	0.38831 0.76400 0.77940 -0.46500
H 	H 	0.39720 0.75110 0.72420 0.26800
C 	C 	0.19808 0.23390 0.46870 0.01200
H 	H 	0.18430 0.23970 0.52820 0.04400
O 	O 	0.46466 0.94780 0.98720 -0.41400
C 	C 	0.15190 0.32500 0.37840 0.10500
C 	C 	0.33286 0.04210 0.15320 -0.04200
H 	H 	0.35640 0.04750 0.12370 0.03400
C 	C 	0.34155 0.84550 0.85450 -0.13900
C 	C 	0.14507 0.38150 0.30140 -0.17000
H 	H 	0.16320 0.39040 0.25180 0.09000
C 	C 	0.41907 0.02360 0.89120 -0.14900
C 	C 	0.08503 0.41430 0.36970 -0.16800
C 	C 	0.28911 0.07960 0.28310 0.13700
C 	C 	0.31755 0.94120 0.01890 0.06700
O 	O 	0.33729 0.79230 0.68620 -0.29400
C 	C 	0.24138 0.22090 0.29450 -0.15100
H 	H 	0.25640 0.21850 0.23690 0.09300
C 	C 	0.31405 0.16560 0.52980 -0.13700
H 	H 	0.30610 0.21910 0.51850 0.08700
C 	C 	0.30603 0.87910 0.85420 0.06100
H 	H 	0.29010 0.87060 0.79930 0.02500
C 	C 	0.30342 0.10410 0.46290 0.14100
C 	C 	0.39021 0.08080 0.89640 0.04900
H 	H 	0.38640 0.11020 0.95610 0.03300
C 	C 	0.22927 0.18310 0.46820 -0.14400
H 	H 	0.23600 0.15480 0.52680 0.08400
C 	C 	0.27036 0.99100 0.14560 0.07200
H 	H 	0.25180 0.96150 0.11240 0.01200
C 	C 	0.11178 0.42460 0.29740 0.08500
H 	H 	0.10760 0.46120 0.24440 -0.00300
C 	C 	0.35311 0.90390 0.01880 -0.17200
H 	H 	0.36910 0.91100 0.07380 0.08900
C 	C 	0.35477 0.79900 0.76530 0.37300
C 	C 	0.29427 0.92550 0.93650 -0.10200
H 	H 	0.27010 0.94680 0.93660 0.08300
C 	C 	0.33648 0.14810 0.61360 -0.00100
H 	H 	0.34360 0.19060 0.65650 0.03200
N 	N 	0.28136 0.12080 0.37730 -0.17900
C 	C 	0.32494 0.08430 0.24190 -0.13500
H 	H 	0.34330 0.11540 0.27360 0.09200
C 	C 	0.36428 0.85660 0.93690 0.11200
H 	H 	0.38770 0.83180 0.93790 0.02600
C 	C 	0.26160 0.03390 0.23360 -0.21100
H 	H 	0.23740 0.03210 0.25960 0.09700
C 	C 	0.37271 0.05150 0.72390 0.02500
C 	C 	0.31535 0.02340 0.48170 -0.18100
H 	H 	0.30810 0.98140 0.43820 0.12800
C 	C 	0.12465 0.31530 0.45370 -0.16500
H 	H 	0.12850 0.27870 0.50690 0.09500
C 	C 	0.36723 0.09400 0.81330 -0.11700
H 	H 	0.34790 0.13200 0.81780 0.07500
O 	O 	0.04322 0.50510 0.28330 -0.50500
C 	C 	0.09171 0.36080 0.44860 0.08500
H 	H 	0.07390 0.35490 0.49950 0.00800
C 	C 	0.30623 0.99160 0.10670 -0.02500
C 	C 	0.42438 0.97960 0.80270 0.08500
H 	H 	0.44330 0.94060 0.79910 0.03000
O 	O 	0.02823 0.45680 0.43980 -0.25100
C 	C 	0.40130 0.99370 0.71760 -0.07200
H 	H 	0.40510 0.96460 0.65770 0.07500
C 	C 	0.05005 0.46180 0.36160 0.34200
C 	C 	0.33820 0.00610 0.56590 -0.05900
H 	H 	0.34650 0.95280 0.57630 0.08600
O 	O 	0.44347 0.05980 0.05560 -0.48800
C 	C 	0.44400 0.00910 0.98140 0.32000
C 	C 	0.24950 0.67460 0.37970 0.13900
C 	C 	0.28992 0.77040 0.29530 0.02500
H 	H 	0.29600 0.80050 0.23750 0.01900
C 	C 	0.15139 0.56790 0.63510 -0.05300
C 	C 	0.31285 0.77600 0.38270 -0.06400
O 	O 	0.11169 0.26400 0.77940 -0.46800
H 	H 	0.10280 0.25110 0.72420 0.26500
C 	C 	0.30192 0.73390 0.46870 0.01700
H 	H 	0.31570 0.73970 0.52820 0.04400
O 	O 	0.03534 0.44780 0.98720 -0.46400
C 	C 	0.34810 0.82500 0.37840 0.11100
C 	C 	0.16714 0.54210 0.15320 0.01700
H 	H 	0.14360 0.54750 0.12370 0.02600
C 	C 	0.15845 0.34550 0.85450 -0.14500
C 	C 	0.35493 0.88150 0.30140 -0.17200
H 	H 	0.33680 0.89040 0.25180 0.09500
C 	C 	0.08093 0.52360 0.89120 -0.13100
C 	C 	0.41497 0.91430 0.36970 -0.17700
C 	C 	0.21089 0.57960 0.28310 0.13300
C 	C 	0.18245 0.44120 0.01890 0.06900
O 	O 	0.16271 0.29230 0.68620 -0.29600
C 	C 	0.25862 0.72090 0.29450 -0.15300
H 	H 	0.24360 0.71850 0.23690 0.09400
C 	C 	0.18595 0.66560 0.52980 -0.14500
H 	H 	0.19390 0.71910 0.51850 0.08900
C 	C 	0.19397 0.37910 0.85420 0.06100
H 	H 	0.20990 0.37060 0.79930 0.02100
C 	C 	0.19658 0.60410 0.46290 0.13700
C 	C 	0.10979 0.58080 0.89640 0.06900
H 	H 	0.11360 0.61020 0.95610 0.02800
C 	C 	0.27073 0.68310 0.46820 -0.14500
H 	H 	0.26400 0.65480 0.52680 0.08900
C 	C 	0.22964 0.49100 0.14560 0.01600
H 	H 	0.24820 0.46150 0.11240 0.02200
C 	C 	0.38822 0.92460 0.29740 0.09900
H 	H 	0.39240 0.96120 0.24440 0.00800
C 	C 	0.14689 0.40390 0.01880 -0.18500
H 	H 	0.13090 0.41100 0.07380 0.08400
C 	C 	0.14523 0.29900 0.76530 0.37400
C 	C 	0.20573 0.42550 0.93650 -0.10900
H 	H 	0.22990 0.44680 0.93660 0.07700
C 	C 	0.16352 0.64810 0.61360 0.02100
H 	H 	0.15640 0.69060 0.65650 0.02400
N 	N 	0.21864 0.62080 0.37730 -0.17400
C 	C 	0.17506 0.58430 0.24190 -0.14500
H 	H 	0.15670 0.61540 0.27360 0.09900
C 	C 	0.13572 0.35660 0.93690 0.11600
H 	H 	0.11230 0.33180 0.93790 0.02000
C 	C 	0.23840 0.53390 0.23360 -0.14800
H 	H 	0.26260 0.53210 0.25960 0.08700
C 	C 	0.12729 0.55150 0.72390 0.09900
C 	C 	0.18465 0.52340 0.48170 -0.13700
H 	H 	0.19190 0.48140 0.43820 0.08600
C 	C 	0.37535 0.81530 0.45370 -0.17000
H 	H 	0.37150 0.77870 0.50690 0.09900
C 	C 	0.13277 0.59400 0.81330 -0.14800
H 	H 	0.15210 0.63200 0.81780 0.08800
O 	O 	0.45678 0.00510 0.28330 -0.54500
C 	C 	0.40829 0.86080 0.44860 0.09700
H 	H 	0.42610 0.85490 0.49950 0.00900
C 	C 	0.19377 0.49160 0.10670 -0.06000
C 	C 	0.07562 0.47960 0.80270 0.06600
H 	H 	0.05670 0.44060 0.79910 0.02400
O 	O 	0.47177 0.95680 0.43980 -0.23400
C 	C 	0.09870 0.49370 0.71760 -0.14100
H 	H 	0.09490 0.46460 0.65770 0.08900
C 	C 	0.44995 0.96180 0.36160 0.39400
C 	C 	0.16180 0.50610 0.56590 0.01500
H 	H 	0.15350 0.45280 0.57630 0.03800
O 	O 	0.05653 0.55980 0.05560 -0.49500
C 	C 	0.05600 0.50910 0.98140 0.36400
C 	C 	0.75050 0.32540 0.37970 0.13700
C 	C 	0.71008 0.22960 0.29530 0.01900
H 	H 	0.70400 0.19950 0.23750 0.02000
C 	C 	0.84861 0.43210 0.63510 -0.05000
C 	C 	0.68715 0.22400 0.38270 -0.05900
O 	O 	0.88831 0.73600 0.77940 -0.46300
H 	H 	0.89720 0.74890 0.72420 0.27000
C 	C 	0.69808 0.26610 0.46870 0.01100
H 	H 	0.68430 0.26030 0.52820 0.04500
O 	O 	0.96466 0.55220 0.98720 -0.44200
C 	C 	0.65190 0.17500 0.37840 0.09700
C 	C 	0.83286 0.45790 0.15320 0.01600
H 	H 	0.85640 0.45250 0.12370 0.02600
C 	C 	0.84155 0.65450 0.85450 -0.14200
C 	C 	0.64507 0.11850 0.30140 -0.16300
H 	H 	0.66320 0.10960 0.25180 0.08300
C 	C 	0.91907 0.47640 0.89120 -0.12100
C 	C 	0.58503 0.08570 0.36970 -0.14900
C 	C 	0.78911 0.42040 0.28310 0.13300
C 	C 	0.81755 0.55880 0.01890 0.06700
O 	O 	0.83729 0.70770 0.68620 -0.29500
C 	C 	0.74138 0.27910 0.29450 -0.15000
H 	H 	0.75640 0.28150 0.23690 0.09200
C 	C 	0.81405 0.33440 0.52980 -0.14400
H 	H 	0.80610 0.28090 0.51850 0.09000
C 	C 	0.80603 0.62090 0.85420 0.05800
H 	H 	0.79010 0.62940 0.79930 0.02200
C 	C 	0.80342 0.39590 0.46290 0.13600
C 	C 	0.89021 0.41920 0.89640 0.06500
H 	H 	0.88640 0.38980 0.95610 0.03100
C 	C 	0.72927 0.31690 0.46820 -0.14200
H 	H 	0.73600 0.34520 0.52680 0.08800
C 	C 	0.77036 0.50900 0.14560 0.01500
H 	H 	0.75180 0.53850 0.11240 0.02200
C 	C 	0.61178 0.07540 0.29740 0.06700
H 	H 	0.60760 0.03880 0.24440 -0.01100
C 	C 	0.85311 0.59610 0.01880 -0.18100
H 	H 	0.86910 0.58900 0.07380 0.08500
C 	C 	0.85477 0.70100 0.76530 0.37200
C 	C 	0.79427 0.57450 0.93650 -0.10800
H 	H 	0.77010 0.55320 0.93660 0.07600
C 	C 	0.83648 0.35190 0.61360 0.02000
H 	H 	0.84360 0.30940 0.65650 0.02500
N 	N 	0.78136 0.37920 0.37730 -0.17300
C 	C 	0.82494 0.41570 0.24190 -0.14500
H 	H 	0.84330 0.38460 0.27360 0.10000
C 	C 	0.86428 0.64340 0.93690 0.11200
H 	H 	0.88770 0.66820 0.93790 0.02600
C 	C 	0.76160 0.46610 0.23360 -0.14800
H 	H 	0.73740 0.46790 0.25960 0.08700
C 	C 	0.87271 0.44850 0.72390 0.09600
C 	C 	0.81535 0.47660 0.48170 -0.13600
H 	H 	0.80810 0.51860 0.43820 0.08600
C 	C 	0.62465 0.18470 0.45370 -0.15500
H 	H 	0.62850 0.22130 0.50690 0.09300
C 	C 	0.86723 0.40600 0.81330 -0.14200
H 	H 	0.84790 0.36800 0.81780 0.08700
O 	O 	0.54322 0.99490 0.28330 -0.44600
C 	C 	0.59171 0.13920 0.44860 0.06800
H 	H 	0.57390 0.14510 0.49950 0.01500
C 	C 	0.80623 0.50840 0.10670 -0.05900
C 	C 	0.92438 0.52040 0.80270 0.06100
H 	H 	0.94330 0.55940 0.79910 0.03500
O 	O 	0.52823 0.04320 0.43980 -0.24300
C 	C 	0.90130 0.50630 0.71760 -0.13300
H 	H 	0.90510 0.53540 0.65770 0.09000
C 	C 	0.55005 0.03820 0.36160 0.28800
C 	C 	0.83820 0.49390 0.56590 0.01300
H 	H 	0.84650 0.54720 0.57630 0.03800
O 	O 	0.94347 0.44020 0.05560 -0.48200
C 	C 	0.94400 0.49090 0.98140 0.36100
Ce	Ce	-0.00000 0.50000 0.14079 2.08200
Ce	Ce	0.50000 -0.00000 0.14079 2.07600
