data_crystal

_cell_length_a 25.73690
_cell_length_b 25.73690
_cell_length_c 61.60100
_cell_angle_alpha 90.00000
_cell_angle_beta  90.00000
_cell_angle_gamma 120.00000

_symmetry_space_group_name_	'P 1'
_symmetry_space_group_name_H-M	'P 1'

loop_
_symmetry_equiv_pos_as_xyz
  x,y,z

loop_
_atom_site_label
_atom_site_type_symbol
_atom_site_fract_x
_atom_site_fract_y
_atom_site_fract_z
_atom_site_charge
Cd	Cd	0.24407 0.59597 0.94355 1.22700
Cd	Cd	0.26759 0.56816 0.88828 1.23100
O 	O 	0.65665 0.39475 0.85217 -0.47900
O 	O 	0.60403 0.37125 0.88211 -0.41100
O 	O 	0.61467 0.36530 0.63600 -0.43400
O 	O 	0.52297 0.29781 0.62402 -0.40700
O 	O 	0.86833 0.86585 0.71969 -0.41900
O 	O 	0.87941 0.94171 0.74003 -0.53000
O 	O 	0.72052 0.31296 0.80026 -0.47600
O 	O 	0.69021 0.25909 0.76982 -0.41500
O 	O 	0.16618 0.49611 0.94281 -0.37300
O 	O 	0.24477 0.51937 0.92203 -0.48200
O 	O 	0.64300 0.16060 0.03938 -0.38200
O 	O 	0.66640 0.23490 0.01751 -0.34500
O 	O 	0.56945 0.48936 0.80322 -0.25700
O 	O 	0.66717 0.69533 0.74759 -0.26800
O 	O 	0.56115 0.45348 0.69899 -0.25700
O 	O 	0.79174 0.20298 0.84903 -0.26300
O 	O 	0.74640 0.18565 0.95146 -0.26100
O 	O 	0.00142 0.30196 0.90689 -0.27500
C 	C 	0.61526 0.39364 0.86363 0.31500
C 	C 	0.58231 0.42239 0.85460 -0.02800
C 	C 	0.54330 0.43240 0.86745 -0.08200
H 	H 	0.53570 0.41890 0.88210 0.05400
C 	C 	0.51540 0.46250 0.85857 0.03200
H 	H 	0.48960 0.47020 0.86740 0.01600
C 	C 	0.52470 0.48070 0.83758 -0.17400
H 	H 	0.50610 0.50160 0.83180 0.09400
C 	C 	0.56230 0.46860 0.82431 0.19000
C 	C 	0.59137 0.44100 0.83313 -0.15200
H 	H 	0.61810 0.43470 0.82440 0.08200
C 	C 	0.61030 0.47990 0.78944 0.11000
H 	H 	0.59500 0.43650 0.78730 -0.00500
H 	H 	0.65060 0.49810 0.79610 0.00000
C 	C 	0.61283 0.50994 0.76787 -0.22900
C 	C 	0.57310 0.47750 0.75159 0.28100
C 	C 	0.57489 0.50630 0.73195 -0.21900
C 	C 	0.61770 0.56700 0.72898 0.26700
C 	C 	0.65712 0.59890 0.74577 -0.22700
C 	C 	0.65471 0.57220 0.76591 0.28500
C 	C 	0.69420 0.60790 0.78442 -0.66600
H 	H 	0.73360 0.61100 0.78290 0.22200
H 	H 	0.67590 0.58790 0.79810 0.22800
H 	H 	0.69900 0.64810 0.78430 0.22400
C 	C 	0.52840 0.41130 0.75461 -0.65100
H 	H 	0.54450 0.38740 0.74820 0.22100
H 	H 	0.49050 0.40150 0.74740 0.22500
H 	H 	0.52120 0.40230 0.77010 0.22400
C 	C 	0.62230 0.59760 0.70702 -0.62200
H 	H 	0.65060 0.59330 0.69760 0.21100
H 	H 	0.63650 0.64030 0.70940 0.21000
H 	H 	0.58280 0.57870 0.70010 0.21700
C 	C 	0.70070 0.66650 0.74289 0.12900
H 	H 	0.73500 0.68040 0.75300 -0.00900
H 	H 	0.71620 0.67540 0.72780 -0.01000
C 	C 	0.69720 0.75600 0.74576 0.19500
C 	C 	0.66380 0.78440 0.75096 -0.16600
H 	H 	0.62250 0.76090 0.75470 0.08500
C 	C 	0.69120 0.84600 0.75062 0.04100
H 	H 	0.66890 0.86480 0.75450 0.01200
C 	C 	0.75090 0.88110 0.74465 -0.07100
H 	H 	0.76940 0.92360 0.74480 0.06200
C 	C 	0.78369 0.85360 0.73846 -0.03300
C 	C 	0.75615 0.79069 0.73909 -0.13400
H 	H 	0.77830 0.77180 0.73490 0.08400
C 	C 	0.53140 0.47270 0.71365 0.12900
H 	H 	0.49480 0.43770 0.71950 -0.00400
H 	H 	0.51970 0.49930 0.70610 -0.00000
C 	C 	0.53030 0.42550 0.68036 0.22200
C 	C 	0.47410 0.41540 0.67529 -0.21200
H 	H 	0.45440 0.42930 0.68470 0.10800
C 	C 	0.44640 0.38500 0.65649 0.07800
H 	H 	0.40850 0.38010 0.65260 -0.00800
C 	C 	0.47310 0.36170 0.64329 -0.11000
H 	H 	0.45280 0.33920 0.63070 0.07800
C 	C 	0.52920 0.37130 0.64842 0.01600
C 	C 	0.55940 0.40430 0.66653 -0.16200
H 	H 	0.59900 0.41270 0.66960 0.10200
C 	C 	0.55720 0.34290 0.63512 0.28500
C 	C 	0.71312 0.26860 0.78884 0.29000
C 	C 	0.73400 0.22780 0.79762 -0.01400
C 	C 	0.75216 0.23576 0.81944 -0.15600
H 	H 	0.75130 0.26580 0.82810 0.08600
C 	C 	0.77170 0.19790 0.82811 0.19800
C 	C 	0.77580 0.15570 0.81517 -0.17900
H 	H 	0.79080 0.13160 0.82100 0.09800
C 	C 	0.75720 0.14930 0.79346 0.03500
H 	H 	0.75940 0.12020 0.78460 0.01900
C 	C 	0.73560 0.18470 0.78458 -0.08900
H 	H 	0.72240 0.17940 0.76990 0.06400
C 	C 	0.79140 0.24960 0.86220 0.11200
H 	H 	0.74990 0.24150 0.86420 -0.00400
H 	H 	0.81530 0.28920 0.85510 0.00100
C 	C 	0.81864 0.24872 0.88364 -0.21100
C 	C 	0.78098 0.20660 0.89993 0.26000
C 	C 	0.80640 0.20490 0.91999 -0.21400
C 	C 	0.86720 0.24600 0.92454 0.26700
C 	C 	0.90330 0.28730 0.90866 -0.22600
C 	C 	0.88010 0.28665 0.88797 0.26600
C 	C 	0.92020 0.32590 0.86968 -0.63500
H 	H 	0.92510 0.36610 0.87090 0.21600
H 	H 	0.90170 0.30820 0.85570 0.21700
H 	H 	0.95950 0.32880 0.87070 0.22300
C 	C 	0.71550 0.16560 0.89477 -0.64000
H 	H 	0.70230 0.12570 0.90080 0.21900
H 	H 	0.70990 0.16250 0.87900 0.22200
H 	H 	0.69170 0.18190 0.90110 0.21700
C 	C 	0.89220 0.24860 0.94705 -0.63400
H 	H 	0.93330 0.25590 0.94590 0.21600
H 	H 	0.86710 0.21040 0.95450 0.22500
H 	H 	0.89230 0.28120 0.95530 0.21200
C 	C 	0.76860 0.15790 0.93654 0.11600
H 	H 	0.73470 0.12300 0.92930 0.00000
H 	H 	0.79290 0.14400 0.94440 0.00400
C 	C 	0.71770 0.15250 0.96970 0.21300
C 	C 	0.70300 0.18210 0.98505 -0.16900
H 	H 	0.71120 0.22190 0.98250 0.10800
C 	C 	0.67540 0.15180 0.00466 0.02200
C 	C 	0.66110 0.09480 0.00778 -0.11800
H 	H 	0.63950 0.07420 0.02040 0.08100
C 	C 	0.67710 0.06630 0.99324 0.07200
H 	H 	0.67200 0.02800 0.99670 -0.00600
C 	C 	0.70140 0.09250 0.97290 -0.19900
H 	H 	0.70640 0.07000 0.96170 0.10000
C 	C 	0.66120 0.18480 0.02141 0.27900
C 	C 	0.96810 0.33110 0.91338 0.13600
H 	H 	0.98170 0.36860 0.90500 -0.00700
H 	H 	0.97400 0.34100 0.92900 -0.01000
C 	C 	0.06310 0.33660 0.90770 0.20900
C 	C 	0.09420 0.39103 0.91856 -0.15800
H 	H 	0.07340 0.40680 0.92640 0.09200
C 	C 	0.15740 0.42230 0.91773 -0.00000
C 	C 	0.18700 0.39830 0.90642 -0.09600
H 	H 	0.22960 0.42000 0.90550 0.06600
C 	C 	0.15560 0.34370 0.89657 0.06200
H 	H 	0.17650 0.32680 0.88950 0.00600
C 	C 	0.09340 0.31280 0.89683 -0.19000
H 	H 	0.07160 0.27540 0.88950 0.09900
C 	C 	0.19100 0.48220 0.92854 0.28600
C 	C 	0.84820 0.88990 0.73231 0.35400
O 	O 	0.67970 0.32950 0.91880 -0.14500
C 	C 	0.72090 0.37490 0.92750 0.12300
H 	H 	0.71450 0.40690 0.93160 -0.00100
N 	N 	0.78000 0.37980 0.93142 -0.05500
C 	C 	0.78570 0.32600 0.93100 -0.30200
H 	H 	0.75600 0.29580 0.94090 0.12800
H 	H 	0.82610 0.33630 0.93580 0.12100
H 	H 	0.77880 0.30980 0.91630 0.12100
C 	C 	0.83190 0.43870 0.93550 -0.30300
H 	H 	0.85960 0.43460 0.94540 0.12000
H 	H 	0.81880 0.46480 0.94220 0.12600
H 	H 	0.85240 0.45640 0.92180 0.11500
Cd	Cd	0.91074 0.92930 0.27689 1.23000
Cd	Cd	0.93425 0.90149 0.22161 1.23500
O 	O 	0.32332 0.72808 0.18550 -0.47900
O 	O 	0.27070 0.70458 0.21544 -0.41000
O 	O 	0.28134 0.69863 0.96933 -0.43300
O 	O 	0.18964 0.63114 0.95735 -0.40700
O 	O 	0.53500 0.19918 0.05302 -0.42000
O 	O 	0.54608 0.27504 0.07336 -0.53500
O 	O 	0.38719 0.64629 0.13359 -0.47500
O 	O 	0.35688 0.59242 0.10315 -0.41400
O 	O 	0.83285 0.82944 0.27614 -0.37100
O 	O 	0.91144 0.85270 0.25536 -0.47800
O 	O 	0.30967 0.49393 0.37271 -0.38100
O 	O 	0.33307 0.56823 0.35084 -0.34300
O 	O 	0.23612 0.82269 0.13655 -0.25700
O 	O 	0.33384 0.02866 0.08092 -0.28900
O 	O 	0.22782 0.78681 0.03232 -0.25700
O 	O 	0.45841 0.53631 0.18236 -0.26200
O 	O 	0.41307 0.51898 0.28479 -0.26000
O 	O 	0.66809 0.63529 0.24022 -0.26300
C 	C 	0.28193 0.72697 0.19696 0.31600
C 	C 	0.24898 0.75572 0.18793 -0.02700
C 	C 	0.20997 0.76573 0.20078 -0.08100
H 	H 	0.20237 0.75223 0.21543 0.05500
C 	C 	0.18207 0.79583 0.19190 0.03300
H 	H 	0.15627 0.80353 0.20073 0.01700
C 	C 	0.19137 0.81403 0.17091 -0.17300
H 	H 	0.17277 0.83493 0.16513 0.09500
C 	C 	0.22897 0.80193 0.15764 0.19100
C 	C 	0.25804 0.77433 0.16646 -0.15100
H 	H 	0.28477 0.76803 0.15773 0.08300
C 	C 	0.27697 0.81323 0.12277 0.11400
H 	H 	0.26167 0.76983 0.12063 -0.00600
H 	H 	0.31727 0.83143 0.12943 0.00000
C 	C 	0.27950 0.84327 0.10120 -0.23500
C 	C 	0.23977 0.81083 0.08492 0.28800
C 	C 	0.24156 0.83963 0.06528 -0.22600
C 	C 	0.28437 0.90033 0.06231 0.28200
C 	C 	0.32379 0.93223 0.07910 -0.24700
C 	C 	0.32138 0.90553 0.09924 0.30100
C 	C 	0.36087 0.94123 0.11775 -0.68300
H 	H 	0.40027 0.94433 0.11623 0.23100
H 	H 	0.34257 0.92123 0.13143 0.23400
H 	H 	0.36567 0.98143 0.11763 0.23400
C 	C 	0.19507 0.74463 0.08794 -0.65500
H 	H 	0.21117 0.72073 0.08153 0.22400
H 	H 	0.15717 0.73483 0.08073 0.22700
H 	H 	0.18787 0.73563 0.10343 0.22600
C 	C 	0.28897 0.93093 0.04035 -0.63600
H 	H 	0.31727 0.92663 0.03093 0.21800
H 	H 	0.30317 0.97363 0.04273 0.21900
H 	H 	0.24947 0.91203 0.03343 0.22200
C 	C 	0.36737 0.99983 0.07622 0.19400
H 	H 	0.40167 0.01373 0.08633 -0.03600
H 	H 	0.38287 0.00873 0.06113 -0.03700
C 	C 	0.36387 0.08933 0.07909 0.20300
C 	C 	0.33047 0.11773 0.08429 -0.17200
H 	H 	0.28917 0.09423 0.08803 0.08500
C 	C 	0.35787 0.17933 0.08395 0.04300
H 	H 	0.33557 0.19813 0.08783 0.01000
C 	C 	0.41757 0.21443 0.07798 -0.07300
H 	H 	0.43607 0.25693 0.07813 0.06100
C 	C 	0.45036 0.18693 0.07179 -0.03200
C 	C 	0.42282 0.12402 0.07242 -0.13900
H 	H 	0.44497 0.10513 0.06823 0.08600
C 	C 	0.19807 0.80603 0.04698 0.13300
H 	H 	0.16147 0.77103 0.05283 -0.00500
H 	H 	0.18637 0.83263 0.03943 -0.00100
C 	C 	0.19697 0.75883 0.01369 0.22200
C 	C 	0.14077 0.74873 0.00862 -0.21400
H 	H 	0.12107 0.76263 0.01803 0.10800
C 	C 	0.11307 0.71833 0.98982 0.07800
H 	H 	0.07517 0.71343 0.98593 -0.01000
C 	C 	0.13977 0.69503 0.97662 -0.11100
H 	H 	0.11947 0.67253 0.96403 0.07800
C 	C 	0.19587 0.70463 0.98175 0.01600
C 	C 	0.22607 0.73763 0.99986 -0.16200
H 	H 	0.26567 0.74603 0.00293 0.10300
C 	C 	0.22387 0.67623 0.96845 0.28500
C 	C 	0.37979 0.60193 0.12217 0.29000
C 	C 	0.40067 0.56113 0.13095 -0.01400
C 	C 	0.41883 0.56909 0.15277 -0.15600
H 	H 	0.41797 0.59913 0.16143 0.08600
C 	C 	0.43837 0.53123 0.16144 0.19800
C 	C 	0.44247 0.48903 0.14850 -0.17900
H 	H 	0.45747 0.46493 0.15433 0.09800
C 	C 	0.42387 0.48263 0.12679 0.03500
H 	H 	0.42607 0.45353 0.11793 0.02000
C 	C 	0.40227 0.51803 0.11791 -0.08900
H 	H 	0.38907 0.51273 0.10323 0.06400
C 	C 	0.45807 0.58293 0.19553 0.11100
H 	H 	0.41657 0.57483 0.19753 -0.00400
H 	H 	0.48197 0.62253 0.18843 0.00100
C 	C 	0.48531 0.58205 0.21697 -0.20900
C 	C 	0.44765 0.53993 0.23326 0.25900
C 	C 	0.47307 0.53823 0.25332 -0.21200
C 	C 	0.53387 0.57933 0.25787 0.26300
C 	C 	0.56997 0.62063 0.24199 -0.22200
C 	C 	0.54677 0.61998 0.22130 0.26200
C 	C 	0.58687 0.65923 0.20301 -0.62800
H 	H 	0.59177 0.69943 0.20423 0.21300
H 	H 	0.56837 0.64153 0.18903 0.21500
H 	H 	0.62617 0.66213 0.20403 0.21800
C 	C 	0.38217 0.49893 0.22810 -0.64000
H 	H 	0.36897 0.45903 0.23413 0.22000
H 	H 	0.37657 0.49583 0.21233 0.22200
H 	H 	0.35837 0.51523 0.23443 0.21800
C 	C 	0.55887 0.58193 0.28038 -0.62800
H 	H 	0.59997 0.58923 0.27923 0.21200
H 	H 	0.53377 0.54373 0.28783 0.22200
H 	H 	0.55897 0.61453 0.28863 0.20900
C 	C 	0.43527 0.49123 0.26987 0.11500
H 	H 	0.40137 0.45633 0.26263 0.00100
H 	H 	0.45957 0.47733 0.27773 0.00500
C 	C 	0.38437 0.48583 0.30303 0.21300
C 	C 	0.36967 0.51543 0.31838 -0.16900
H 	H 	0.37787 0.55523 0.31583 0.10800
C 	C 	0.34207 0.48513 0.33799 0.02200
C 	C 	0.32777 0.42813 0.34111 -0.11800
H 	H 	0.30617 0.40753 0.35373 0.08300
C 	C 	0.34377 0.39963 0.32657 0.07200
H 	H 	0.33867 0.36133 0.33003 -0.00300
C 	C 	0.36807 0.42583 0.30623 -0.19800
H 	H 	0.37307 0.40333 0.29503 0.10100
C 	C 	0.32787 0.51813 0.35474 0.27900
C 	C 	0.63477 0.66443 0.24671 0.12400
H 	H 	0.64837 0.70193 0.23833 -0.00700
H 	H 	0.64067 0.67433 0.26233 -0.01000
C 	C 	0.72977 0.66993 0.24103 0.20900
C 	C 	0.76087 0.72436 0.25189 -0.15600
H 	H 	0.74007 0.74013 0.25973 0.09400
C 	C 	0.82407 0.75563 0.25106 0.00000
C 	C 	0.85367 0.73163 0.23975 -0.09600
H 	H 	0.89627 0.75333 0.23883 0.06600
C 	C 	0.82227 0.67703 0.22990 0.06200
H 	H 	0.84317 0.66013 0.22283 0.00700
C 	C 	0.76007 0.64613 0.23016 -0.18900
H 	H 	0.73827 0.60873 0.22283 0.10100
C 	C 	0.85767 0.81553 0.26187 0.28600
C 	C 	0.51487 0.22323 0.06564 0.35400
O 	O 	0.34637 0.66283 0.25213 -0.14500
C 	C 	0.38757 0.70823 0.26083 0.12300
H 	H 	0.38117 0.74023 0.26493 -0.00100
N 	N 	0.44667 0.71313 0.26475 -0.05600
C 	C 	0.45237 0.65933 0.26433 -0.30200
H 	H 	0.42267 0.62913 0.27423 0.12700
H 	H 	0.49277 0.66963 0.26913 0.12000
H 	H 	0.44547 0.64313 0.24963 0.12100
C 	C 	0.49857 0.77203 0.26883 -0.30200
H 	H 	0.52627 0.76793 0.27873 0.11800
H 	H 	0.48547 0.79813 0.27553 0.12500
H 	H 	0.51907 0.78973 0.25513 0.11400
Cd	Cd	0.57741 0.26264 0.61022 1.22800
Cd	Cd	0.60092 0.23482 0.55494 1.23200
O 	O 	0.98998 0.06142 0.51884 -0.47200
O 	O 	0.93736 0.03792 0.54878 -0.40900
O 	O 	0.94800 0.03197 0.30267 -0.42800
O 	O 	0.85630 0.96448 0.29069 -0.39500
O 	O 	0.20166 0.53252 0.38636 -0.42300
O 	O 	0.21274 0.60838 0.40670 -0.53700
O 	O 	0.05385 0.97963 0.46693 -0.46900
O 	O 	0.02354 0.92576 0.43649 -0.41400
O 	O 	0.49951 0.16278 0.60948 -0.37500
O 	O 	0.57810 0.18604 0.58870 -0.48400
O 	O 	0.97633 0.82727 0.70605 -0.38400
O 	O 	0.99973 0.90157 0.68418 -0.34100
O 	O 	0.90278 0.15603 0.46989 -0.25600
O 	O 	0.00050 0.36200 0.41426 -0.26300
O 	O 	0.89448 0.12015 0.36566 -0.25600
O 	O 	0.12507 0.86965 0.51570 -0.26100
O 	O 	0.07973 0.85232 0.61813 -0.25500
O 	O 	0.33475 0.96863 0.57356 -0.25200
C 	C 	0.94859 0.06031 0.53030 0.31400
C 	C 	0.91564 0.08906 0.52127 -0.02600
C 	C 	0.87663 0.09907 0.53412 -0.08200
H 	H 	0.86903 0.08557 0.54877 0.05400
C 	C 	0.84873 0.12917 0.52524 0.03300
H 	H 	0.82293 0.13687 0.53407 0.01700
C 	C 	0.85803 0.14737 0.50425 -0.17400
H 	H 	0.83943 0.16827 0.49847 0.09500
C 	C 	0.89563 0.13527 0.49098 0.19200
C 	C 	0.92470 0.10767 0.49980 -0.15200
H 	H 	0.95143 0.10137 0.49107 0.08500
C 	C 	0.94363 0.14657 0.45611 0.11100
H 	H 	0.92833 0.10317 0.45397 -0.00400
H 	H 	0.98393 0.16477 0.46277 0.00500
C 	C 	0.94616 0.17661 0.43454 -0.22800
C 	C 	0.90643 0.14417 0.41826 0.28100
C 	C 	0.90822 0.17297 0.39862 -0.21800
C 	C 	0.95103 0.23367 0.39565 0.26800
C 	C 	0.99045 0.26557 0.41244 -0.21800
C 	C 	0.98804 0.23887 0.43258 0.29600
C 	C 	0.02753 0.27457 0.45109 -0.68200
H 	H 	0.06693 0.27767 0.44957 0.22600
H 	H 	0.00923 0.25457 0.46477 0.22900
H 	H 	0.03233 0.31477 0.45097 0.22700
C 	C 	0.86173 0.07797 0.42128 -0.64400
H 	H 	0.87783 0.05407 0.41487 0.21900
H 	H 	0.82383 0.06817 0.41407 0.22200
H 	H 	0.85453 0.06897 0.43677 0.22200
C 	C 	0.95563 0.26427 0.37369 -0.62300
H 	H 	0.98393 0.25997 0.36427 0.21500
H 	H 	0.96983 0.30697 0.37607 0.21500
H 	H 	0.91613 0.24537 0.36677 0.21900
C 	C 	0.03403 0.33317 0.40956 0.11600
H 	H 	0.06833 0.34707 0.41967 -0.00700
H 	H 	0.04953 0.34207 0.39447 -0.00900
C 	C 	0.03053 0.42267 0.41243 0.16600
C 	C 	0.99713 0.45107 0.41763 -0.11900
H 	H 	0.95583 0.42757 0.42137 0.07200
C 	C 	0.02453 0.51267 0.41729 -0.00100
H 	H 	0.00223 0.53147 0.42117 0.02100
C 	C 	0.08423 0.54777 0.41132 -0.04700
H 	H 	0.10273 0.59027 0.41147 0.05100
C 	C 	0.11702 0.52027 0.40513 -0.05100
C 	C 	0.08948 0.45736 0.40576 -0.11500
H 	H 	0.11163 0.43847 0.40157 0.07700
C 	C 	0.86473 0.13937 0.38032 0.13000
H 	H 	0.82813 0.10437 0.38617 -0.00500
H 	H 	0.85303 0.16597 0.37277 -0.00000
C 	C 	0.86363 0.09217 0.34703 0.22300
C 	C 	0.80743 0.08207 0.34196 -0.21500
H 	H 	0.78773 0.09597 0.35137 0.10900
C 	C 	0.77973 0.05167 0.32316 0.08000
H 	H 	0.74183 0.04677 0.31927 -0.01100
C 	C 	0.80643 0.02837 0.30996 -0.11500
H 	H 	0.78613 0.00587 0.29737 0.07700
C 	C 	0.86253 0.03797 0.31509 0.02000
C 	C 	0.89273 0.07097 0.33320 -0.16500
H 	H 	0.93233 0.07937 0.33627 0.10400
C 	C 	0.89053 0.00957 0.30179 0.27200
C 	C 	0.04645 0.93527 0.45551 0.28900
C 	C 	0.06733 0.89447 0.46429 -0.01300
C 	C 	0.08549 0.90243 0.48611 -0.15700
H 	H 	0.08463 0.93247 0.49477 0.08800
C 	C 	0.10503 0.86457 0.49478 0.19900
C 	C 	0.10913 0.82237 0.48184 -0.18000
H 	H 	0.12413 0.79827 0.48767 0.09800
C 	C 	0.09053 0.81597 0.46013 0.03500
H 	H 	0.09273 0.78687 0.45127 0.01900
C 	C 	0.06893 0.85137 0.45125 -0.09000
H 	H 	0.05573 0.84607 0.43657 0.06300
C 	C 	0.12473 0.91627 0.52887 0.10800
H 	H 	0.08323 0.90817 0.53087 -0.00200
H 	H 	0.14863 0.95587 0.52177 0.00500
C 	C 	0.15197 0.91539 0.55031 -0.20400
C 	C 	0.11431 0.87327 0.56660 0.25700
C 	C 	0.13973 0.87157 0.58666 -0.21200
C 	C 	0.20053 0.91267 0.59121 0.26900
C 	C 	0.23663 0.95397 0.57533 -0.22800
C 	C 	0.21343 0.95332 0.55464 0.25800
C 	C 	0.25353 0.99257 0.53635 -0.59300
H 	H 	0.25843 0.03277 0.53757 0.19700
H 	H 	0.23503 0.97487 0.52237 0.20700
H 	H 	0.29283 0.99547 0.53737 0.21200
C 	C 	0.04883 0.83227 0.56144 -0.63300
H 	H 	0.03563 0.79237 0.56747 0.21600
H 	H 	0.04323 0.82917 0.54567 0.21800
H 	H 	0.02503 0.84857 0.56777 0.21300
C 	C 	0.22553 0.91527 0.61372 -0.63600
H 	H 	0.26663 0.92257 0.61257 0.21600
H 	H 	0.20043 0.87707 0.62117 0.22500
H 	H 	0.22563 0.94787 0.62197 0.21500
C 	C 	0.10193 0.82457 0.60321 0.11300
H 	H 	0.06803 0.78967 0.59597 0.00100
H 	H 	0.12623 0.81067 0.61107 0.00500
C 	C 	0.05103 0.81917 0.63637 0.19100
C 	C 	0.03633 0.84877 0.65172 -0.14200
H 	H 	0.04453 0.88857 0.64917 0.09800
C 	C 	0.00873 0.81847 0.67133 -0.02500
C 	C 	0.99443 0.76147 0.67445 -0.05400
H 	H 	0.97283 0.74087 0.68707 0.06400
C 	C 	0.01043 0.73297 0.65991 0.02100
H 	H 	0.00533 0.69467 0.66337 0.01100
C 	C 	0.03473 0.75917 0.63957 -0.16800
H 	H 	0.03973 0.73667 0.62837 0.09000
C 	C 	0.99453 0.85147 0.68808 0.30100
C 	C 	0.30143 0.99777 0.58005 0.16200
H 	H 	0.31503 0.03527 0.57167 -0.02300
H 	H 	0.30733 0.00767 0.59567 -0.02800
C 	C 	0.39643 0.00327 0.57437 0.15500
C 	C 	0.42753 0.05770 0.58523 -0.12000
H 	H 	0.40673 0.07347 0.59307 0.08100
C 	C 	0.49073 0.08897 0.58440 -0.03400
C 	C 	0.52033 0.06497 0.57309 -0.04200
H 	H 	0.56293 0.08667 0.57217 0.04700
C 	C 	0.48893 0.01037 0.56324 -0.02400
H 	H 	0.50983 0.99347 0.55617 0.04300
C 	C 	0.42673 0.97947 0.56350 -0.10900
H 	H 	0.40493 0.94207 0.55617 0.07600
C 	C 	0.52433 0.14887 0.59521 0.29800
C 	C 	0.18153 0.55657 0.39898 0.36000
O 	O 	0.01303 0.99617 0.58547 -0.11900
C 	C 	0.05423 0.04157 0.59417 0.22100
H 	H 	0.04783 0.07357 0.59827 -0.01900
N 	N 	0.11333 0.04647 0.59809 -0.08600
C 	C 	0.11903 0.99267 0.59767 -0.24000
H 	H 	0.08933 0.96247 0.60757 0.10700
H 	H 	0.15943 0.00297 0.60247 0.09400
H 	H 	0.11213 0.97647 0.58297 0.10300
C 	C 	0.16523 0.10537 0.60217 -0.28400
H 	H 	0.19293 0.10127 0.61207 0.11200
H 	H 	0.15213 0.13147 0.60887 0.11800
H 	H 	0.18573 0.12307 0.58847 0.10800
Cd	Cd	0.40403 0.64810 0.94355 1.22800
Cd	Cd	0.43184 0.69943 0.88828 1.23200
O 	O 	0.60525 0.26190 0.85217 -0.47800
O 	O 	0.62875 0.23278 0.88211 -0.41000
O 	O 	0.63470 0.24937 0.63600 -0.43300
O 	O 	0.70219 0.22516 0.62402 -0.40600
O 	O 	0.13415 0.00248 0.71969 -0.43500
O 	O 	0.05829 0.93770 0.74003 -0.54000
O 	O 	0.68704 0.40756 0.80026 -0.47500
O 	O 	0.74091 0.43112 0.76982 -0.41400
O 	O 	0.50389 0.67007 0.94281 -0.37100
O 	O 	0.48063 0.72540 0.92203 -0.48100
O 	O 	0.83940 0.48240 0.03938 -0.38000
O 	O 	0.76510 0.43150 0.01751 -0.34300
O 	O 	0.51064 0.08009 0.80322 -0.25900
O 	O 	0.30467 0.97184 0.74759 -0.25400
O 	O 	0.54652 0.10767 0.69899 -0.25800
O 	O 	0.79702 0.58876 0.84903 -0.26200
O 	O 	0.81435 0.56075 0.95146 -0.26000
O 	O 	0.69804 0.69946 0.90689 -0.26300
C 	C 	0.60636 0.22162 0.86363 0.31600
C 	C 	0.57761 0.15992 0.85460 -0.02700
C 	C 	0.56760 0.11090 0.86745 -0.08100
H 	H 	0.58110 0.11680 0.88210 0.05500
C 	C 	0.53750 0.05290 0.85857 0.03300
H 	H 	0.52980 0.01940 0.86740 0.01500
C 	C 	0.51930 0.04400 0.83758 -0.17400
H 	H 	0.49840 0.00450 0.83180 0.09200
C 	C 	0.53140 0.09370 0.82431 0.19100
C 	C 	0.55900 0.15037 0.83313 -0.15100
H 	H 	0.56530 0.18340 0.82440 0.08300
C 	C 	0.52010 0.13040 0.78944 0.11100
H 	H 	0.56350 0.15850 0.78730 -0.00500
H 	H 	0.50190 0.15250 0.79610 0.00100
C 	C 	0.49006 0.10289 0.76787 -0.22900
C 	C 	0.52250 0.09560 0.75159 0.28200
C 	C 	0.49370 0.06859 0.73195 -0.22400
C 	C 	0.43300 0.05070 0.72898 0.27600
C 	C 	0.40110 0.05822 0.74577 -0.22800
C 	C 	0.42780 0.08251 0.76591 0.28500
C 	C 	0.39210 0.08630 0.78442 -0.66200
H 	H 	0.38900 0.12260 0.78290 0.22200
H 	H 	0.41210 0.08800 0.79810 0.22600
H 	H 	0.35190 0.05090 0.78430 0.22200
C 	C 	0.58870 0.11710 0.75461 -0.65000
H 	H 	0.61260 0.15710 0.74820 0.22300
H 	H 	0.59850 0.08900 0.74740 0.22500
H 	H 	0.59770 0.11890 0.77010 0.22400
C 	C 	0.40240 0.02470 0.70702 -0.65700
H 	H 	0.40670 0.05730 0.69760 0.22100
H 	H 	0.35970 0.99620 0.70940 0.22900
H 	H 	0.42130 0.00410 0.70010 0.22400
C 	C 	0.33350 0.03420 0.74289 0.11500
H 	H 	0.31960 0.05460 0.75300 -0.00700
H 	H 	0.32460 0.04080 0.72780 -0.00900
C 	C 	0.24400 0.94120 0.74576 0.17900
C 	C 	0.21560 0.87940 0.75096 -0.15200
H 	H 	0.23910 0.86160 0.75470 0.08000
C 	C 	0.15400 0.84520 0.75062 0.02600
H 	H 	0.13520 0.80410 0.75450 0.01600
C 	C 	0.11890 0.86980 0.74465 -0.05500
H 	H 	0.07640 0.84580 0.74480 0.05300
C 	C 	0.14640 0.93009 0.73846 -0.05400
C 	C 	0.20931 0.96546 0.73909 -0.09900
H 	H 	0.22820 0.00650 0.73490 0.06600
C 	C 	0.52730 0.05870 0.71365 0.13400
H 	H 	0.56230 0.05710 0.71950 -0.00700
H 	H 	0.50070 0.02040 0.70610 -0.00500
C 	C 	0.57450 0.10480 0.68036 0.22100
C 	C 	0.58460 0.05870 0.67529 -0.21300
H 	H 	0.57070 0.02510 0.68470 0.10500
C 	C 	0.61500 0.06140 0.65649 0.07700
H 	H 	0.61990 0.02840 0.65260 -0.01200
C 	C 	0.63830 0.11140 0.64329 -0.11200
H 	H 	0.66080 0.11360 0.63070 0.07800
C 	C 	0.62870 0.15790 0.64842 0.01600
C 	C 	0.59570 0.15510 0.66653 -0.16200
H 	H 	0.58730 0.18630 0.66960 0.10200
C 	C 	0.65710 0.21430 0.63512 0.28500
C 	C 	0.73140 0.44452 0.78884 0.29000
C 	C 	0.77220 0.50620 0.79762 -0.01300
C 	C 	0.76424 0.51640 0.81944 -0.15600
H 	H 	0.73420 0.48550 0.82810 0.08600
C 	C 	0.80210 0.57380 0.82811 0.19900
C 	C 	0.84430 0.62010 0.81517 -0.17900
H 	H 	0.86840 0.65920 0.82100 0.09900
C 	C 	0.85070 0.60790 0.79346 0.03600
H 	H 	0.87980 0.63920 0.78460 0.02000
C 	C 	0.81530 0.55090 0.78458 -0.08900
H 	H 	0.82060 0.54300 0.76990 0.06400
C 	C 	0.75040 0.54180 0.86220 0.11100
H 	H 	0.75850 0.50840 0.86420 -0.00400
H 	H 	0.71080 0.52610 0.85510 0.00100
C 	C 	0.75128 0.56992 0.88364 -0.20900
C 	C 	0.79340 0.57438 0.89993 0.25900
C 	C 	0.79510 0.60150 0.91999 -0.21200
C 	C 	0.75400 0.62120 0.92454 0.26300
C 	C 	0.71270 0.61600 0.90866 -0.22200
C 	C 	0.71335 0.59345 0.88797 0.26200
C 	C 	0.67410 0.59430 0.86968 -0.62800
H 	H 	0.63390 0.55900 0.87090 0.21300
H 	H 	0.69180 0.59350 0.85570 0.21500
H 	H 	0.67120 0.63070 0.87070 0.21800
C 	C 	0.83440 0.54990 0.89477 -0.64200
H 	H 	0.87430 0.57660 0.90080 0.22100
H 	H 	0.83750 0.54740 0.87900 0.22200
H 	H 	0.81810 0.50980 0.90110 0.21800
C 	C 	0.75140 0.64360 0.94705 -0.62800
H 	H 	0.74410 0.67740 0.94590 0.21200
H 	H 	0.78960 0.65670 0.95450 0.22200
H 	H 	0.71880 0.61110 0.95530 0.20900
C 	C 	0.84210 0.61070 0.93654 0.11500
H 	H 	0.87700 0.61170 0.92930 0.00200
H 	H 	0.85600 0.64890 0.94440 0.00500
C 	C 	0.84750 0.56520 0.96970 0.21300
C 	C 	0.81790 0.52090 0.98505 -0.16900
H 	H 	0.77810 0.48930 0.98250 0.10800
C 	C 	0.84820 0.52360 0.00466 0.02300
C 	C 	0.90520 0.56630 0.00778 -0.11700
H 	H 	0.92580 0.56530 0.02040 0.08400
C 	C 	0.93370 0.61080 0.99324 0.07300
H 	H 	0.97200 0.64400 0.99670 0.00000
C 	C 	0.90750 0.60890 0.97290 -0.19700
H 	H 	0.93000 0.63640 0.96170 0.10300
C 	C 	0.81520 0.47640 0.02141 0.27900
C 	C 	0.66890 0.63700 0.91338 0.12400
H 	H 	0.63140 0.61310 0.90500 -0.00700
H 	H 	0.65900 0.63300 0.92900 -0.01000
C 	C 	0.66340 0.72650 0.90770 0.20900
C 	C 	0.60897 0.70317 0.91856 -0.15600
H 	H 	0.59320 0.66660 0.92640 0.09300
C 	C 	0.57770 0.73510 0.91773 -0.00100
C 	C 	0.60170 0.78870 0.90642 -0.09500
H 	H 	0.58000 0.80960 0.90550 0.06600
C 	C 	0.65630 0.81190 0.89657 0.06200
H 	H 	0.67320 0.84970 0.88950 0.00800
C 	C 	0.68720 0.78060 0.89683 -0.18800
H 	H 	0.72460 0.79620 0.88950 0.10100
C 	C 	0.51780 0.70880 0.92854 0.28600
C 	C 	0.11010 0.95830 0.73231 0.37600
O 	O 	0.67050 0.35020 0.91880 -0.14500
C 	C 	0.62510 0.34600 0.92750 0.12300
H 	H 	0.59310 0.30760 0.93160 -0.00100
N 	N 	0.62020 0.40020 0.93142 -0.05600
C 	C 	0.67400 0.45970 0.93100 -0.30200
H 	H 	0.70420 0.46020 0.94090 0.12700
H 	H 	0.66370 0.48980 0.93580 0.12000
H 	H 	0.69020 0.46900 0.91630 0.12100
C 	C 	0.56130 0.39320 0.93550 -0.30200
H 	H 	0.56540 0.42500 0.94540 0.11800
H 	H 	0.53520 0.35400 0.94220 0.12500
H 	H 	0.54360 0.39600 0.92180 0.11400
Cd	Cd	0.07070 0.98144 0.27689 1.23100
Cd	Cd	0.09851 0.03276 0.22161 1.23000
O 	O 	0.27192 0.59523 0.18550 -0.47800
O 	O 	0.29542 0.56611 0.21544 -0.41000
O 	O 	0.30137 0.58270 0.96933 -0.43300
O 	O 	0.36886 0.55849 0.95735 -0.40600
O 	O 	0.80082 0.33581 0.05302 -0.42100
O 	O 	0.72496 0.27103 0.07336 -0.53600
O 	O 	0.35371 0.74089 0.13359 -0.47500
O 	O 	0.40758 0.76445 0.10315 -0.41400
O 	O 	0.17056 0.00340 0.27614 -0.37600
O 	O 	0.14730 0.05873 0.25536 -0.48200
O 	O 	0.50607 0.81573 0.37271 -0.38100
O 	O 	0.43177 0.76483 0.35084 -0.34300
O 	O 	0.17731 0.41342 0.13655 -0.25600
O 	O 	0.97134 0.30517 0.08092 -0.24500
O 	O 	0.21319 0.44100 0.03232 -0.25600
O 	O 	0.46369 0.92209 0.18236 -0.25900
O 	O 	0.48102 0.89408 0.28479 -0.25900
O 	O 	0.36471 0.03279 0.24022 -0.27500
C 	C 	0.27303 0.55495 0.19696 0.31600
C 	C 	0.24428 0.49325 0.18793 -0.02700
C 	C 	0.23427 0.44423 0.20078 -0.08100
H 	H 	0.24777 0.45013 0.21543 0.05500
C 	C 	0.20417 0.38623 0.19190 0.03300
H 	H 	0.19647 0.35273 0.20073 0.01700
C 	C 	0.18597 0.37733 0.17091 -0.17300
H 	H 	0.16507 0.33783 0.16513 0.09500
C 	C 	0.19807 0.42703 0.15764 0.19100
C 	C 	0.22567 0.48370 0.16646 -0.15100
H 	H 	0.23197 0.51673 0.15773 0.08300
C 	C 	0.18677 0.46373 0.12277 0.10700
H 	H 	0.23017 0.49183 0.12063 -0.00300
H 	H 	0.16857 0.48583 0.12943 0.00200
C 	C 	0.15673 0.43622 0.10120 -0.22000
C 	C 	0.18917 0.42893 0.08492 0.27500
C 	C 	0.16037 0.40192 0.06528 -0.21100
C 	C 	0.09967 0.38403 0.06231 0.25500
C 	C 	0.06777 0.39155 0.07910 -0.20600
C 	C 	0.09447 0.41584 0.09924 0.27200
C 	C 	0.05877 0.41963 0.11775 -0.64800
H 	H 	0.05567 0.45593 0.11623 0.21600
H 	H 	0.07877 0.42133 0.13143 0.22300
H 	H 	0.01857 0.38423 0.11763 0.21700
C 	C 	0.25537 0.45043 0.08794 -0.64400
H 	H 	0.27927 0.49043 0.08153 0.22100
H 	H 	0.26517 0.42233 0.08073 0.22400
H 	H 	0.26437 0.45223 0.10343 0.22300
C 	C 	0.06907 0.35803 0.04035 -0.60600
H 	H 	0.07337 0.39063 0.03093 0.20600
H 	H 	0.02637 0.32953 0.04273 0.20400
H 	H 	0.08797 0.33743 0.03343 0.21300
C 	C 	0.00017 0.36753 0.07622 0.06700
H 	H 	0.98627 0.38793 0.08633 0.01500
H 	H 	0.99127 0.37413 0.06113 0.01500
C 	C 	0.91067 0.27453 0.07909 0.18700
C 	C 	0.88227 0.21273 0.08429 -0.16000
H 	H 	0.90577 0.19493 0.08803 0.08400
C 	C 	0.82067 0.17853 0.08395 0.03500
H 	H 	0.80187 0.13743 0.08783 0.01300
C 	C 	0.78557 0.20313 0.07798 -0.06600
H 	H 	0.74307 0.17913 0.07813 0.05900
C 	C 	0.81307 0.26342 0.07179 -0.03800
C 	C 	0.87598 0.29879 0.07242 -0.12700
H 	H 	0.89487 0.33983 0.06823 0.08200
C 	C 	0.19397 0.39203 0.04698 0.12500
H 	H 	0.22897 0.39043 0.05283 -0.00300
H 	H 	0.16737 0.35373 0.03943 0.00100
C 	C 	0.24117 0.43813 0.01369 0.22100
C 	C 	0.25127 0.39203 0.00862 -0.21200
H 	H 	0.23737 0.35843 0.01803 0.10800
C 	C 	0.28167 0.39473 0.98982 0.07800
H 	H 	0.28657 0.36173 0.98593 -0.00800
C 	C 	0.30497 0.44473 0.97662 -0.11000
H 	H 	0.32747 0.44693 0.96403 0.07800
C 	C 	0.29537 0.49123 0.98175 0.01600
C 	C 	0.26237 0.48843 0.99986 -0.16200
H 	H 	0.25397 0.51963 0.00293 0.10200
C 	C 	0.32377 0.54763 0.96845 0.28500
C 	C 	0.39807 0.77785 0.12217 0.29000
C 	C 	0.43887 0.83953 0.13095 -0.01400
C 	C 	0.43091 0.84973 0.15277 -0.15600
H 	H 	0.40087 0.81883 0.16143 0.08500
C 	C 	0.46877 0.90713 0.16144 0.19900
C 	C 	0.51097 0.95343 0.14850 -0.17800
H 	H 	0.53507 0.99253 0.15433 0.10200
C 	C 	0.51737 0.94123 0.12679 0.03600
H 	H 	0.54647 0.97253 0.11793 0.02300
C 	C 	0.48197 0.88423 0.11791 -0.08800
H 	H 	0.48727 0.87633 0.10323 0.06500
C 	C 	0.41707 0.87513 0.19553 0.11100
H 	H 	0.42517 0.84173 0.19753 -0.00400
H 	H 	0.37747 0.85943 0.18843 0.00100
C 	C 	0.41795 0.90325 0.21697 -0.20700
C 	C 	0.46007 0.90771 0.23326 0.25800
C 	C 	0.46177 0.93483 0.25332 -0.20600
C 	C 	0.42067 0.95453 0.25787 0.25500
C 	C 	0.37937 0.94933 0.24199 -0.21900
C 	C 	0.38002 0.92678 0.22130 0.26400
C 	C 	0.34077 0.92763 0.20301 -0.63200
H 	H 	0.30057 0.89233 0.20423 0.21500
H 	H 	0.35847 0.92683 0.18903 0.21800
H 	H 	0.33787 0.96403 0.20403 0.22300
C 	C 	0.50107 0.88323 0.22810 -0.64000
H 	H 	0.54097 0.90993 0.23413 0.22100
H 	H 	0.50417 0.88073 0.21233 0.22200
H 	H 	0.48477 0.84313 0.23443 0.21700
C 	C 	0.41807 0.97693 0.28038 -0.59100
H 	H 	0.41077 0.01073 0.27923 0.19400
H 	H 	0.45627 0.99003 0.28783 0.21500
H 	H 	0.38547 0.94443 0.28863 0.20100
C 	C 	0.50877 0.94403 0.26987 0.11000
H 	H 	0.54367 0.94503 0.26263 0.00400
H 	H 	0.52267 0.98223 0.27773 0.01000
C 	C 	0.51417 0.89853 0.30303 0.21400
C 	C 	0.48457 0.85423 0.31838 -0.16800
H 	H 	0.44477 0.82263 0.31583 0.10800
C 	C 	0.51487 0.85693 0.33799 0.02300
C 	C 	0.57187 0.89963 0.34111 -0.11600
H 	H 	0.59247 0.89863 0.35373 0.08400
C 	C 	0.60037 0.94413 0.32657 0.07300
H 	H 	0.63867 0.97733 0.33003 0.00100
C 	C 	0.57417 0.94223 0.30623 -0.19600
H 	H 	0.59667 0.96973 0.29503 0.10400
C 	C 	0.48187 0.80973 0.35474 0.27900
C 	C 	0.33557 0.97033 0.24671 0.13600
H 	H 	0.29807 0.94643 0.23833 -0.00900
H 	H 	0.32567 0.96633 0.26233 -0.01000
C 	C 	0.33007 0.05983 0.24103 0.22200
C 	C 	0.27564 0.03650 0.25189 -0.18600
H 	H 	0.25987 0.99993 0.25973 0.11100
C 	C 	0.24437 0.06843 0.25106 0.01200
C 	C 	0.26837 0.12203 0.23975 -0.10600
H 	H 	0.24667 0.14293 0.23883 0.06900
C 	C 	0.32297 0.14523 0.22990 0.07200
H 	H 	0.33987 0.18303 0.22283 0.00300
C 	C 	0.35387 0.11393 0.23016 -0.20100
H 	H 	0.39127 0.12953 0.22283 0.10400
C 	C 	0.18447 0.04213 0.26187 0.28100
C 	C 	0.77677 0.29163 0.06564 0.35600
O 	O 	0.33717 0.68353 0.25213 -0.14500
C 	C 	0.29177 0.67933 0.26083 0.12300
H 	H 	0.25977 0.64093 0.26493 -0.00100
N 	N 	0.28687 0.73353 0.26475 -0.05500
C 	C 	0.34067 0.79303 0.26433 -0.30200
H 	H 	0.37087 0.79353 0.27423 0.12800
H 	H 	0.33037 0.82313 0.26913 0.12000
H 	H 	0.35687 0.80233 0.24963 0.12100
C 	C 	0.22797 0.72653 0.26883 -0.30200
H 	H 	0.23207 0.75833 0.27873 0.11900
H 	H 	0.20187 0.68733 0.27553 0.12500
H 	H 	0.21027 0.72933 0.25513 0.11400
Cd	Cd	0.73736 0.31477 0.61022 1.22800
Cd	Cd	0.76518 0.36609 0.55494 1.23200
O 	O 	0.93858 0.92857 0.51884 -0.47200
O 	O 	0.96208 0.89945 0.54878 -0.40600
O 	O 	0.96803 0.91604 0.30267 -0.42900
O 	O 	0.03552 0.89183 0.29069 -0.41300
O 	O 	0.46748 0.66915 0.38636 -0.42100
O 	O 	0.39162 0.60437 0.40670 -0.53600
O 	O 	0.02037 0.07423 0.46693 -0.48200
O 	O 	0.07424 0.09779 0.43649 -0.41800
O 	O 	0.83722 0.33674 0.60948 -0.36800
O 	O 	0.81396 0.39207 0.58870 -0.47800
O 	O 	0.17273 0.14907 0.70605 -0.38200
O 	O 	0.09843 0.09817 0.68418 -0.34700
O 	O 	0.84397 0.74676 0.46989 -0.25600
O 	O 	0.63800 0.63851 0.41426 -0.26600
O 	O 	0.87985 0.77434 0.36566 -0.25500
O 	O 	0.13035 0.25543 0.51570 -0.26200
O 	O 	0.14768 0.22742 0.61813 -0.26100
O 	O 	0.03137 0.36613 0.57356 -0.27400
C 	C 	0.93969 0.88829 0.53030 0.31500
C 	C 	0.91094 0.82659 0.52127 -0.02500
C 	C 	0.90093 0.77757 0.53412 -0.08100
H 	H 	0.91443 0.78347 0.54877 0.05700
C 	C 	0.87083 0.71957 0.52524 0.03400
H 	H 	0.86313 0.68607 0.53407 0.01800
C 	C 	0.85263 0.71067 0.50425 -0.17400
H 	H 	0.83173 0.67117 0.49847 0.09600
C 	C 	0.86473 0.76037 0.49098 0.19200
C 	C 	0.89233 0.81704 0.49980 -0.15100
H 	H 	0.89863 0.85007 0.49107 0.08400
C 	C 	0.85343 0.79707 0.45611 0.11100
H 	H 	0.89683 0.82517 0.45397 -0.00300
H 	H 	0.83523 0.81917 0.46277 0.00100
C 	C 	0.82339 0.76956 0.43454 -0.22800
C 	C 	0.85583 0.76227 0.41826 0.28400
C 	C 	0.82703 0.73526 0.39862 -0.21900
C 	C 	0.76633 0.71737 0.39565 0.26900
C 	C 	0.73443 0.72489 0.41244 -0.22600
C 	C 	0.76113 0.74918 0.43258 0.28700
C 	C 	0.72543 0.75297 0.45109 -0.66600
H 	H 	0.72233 0.78927 0.44957 0.22300
H 	H 	0.74543 0.75467 0.46477 0.22900
H 	H 	0.68523 0.71757 0.45097 0.22500
C 	C 	0.92203 0.78377 0.42128 -0.65700
H 	H 	0.94593 0.82377 0.41487 0.22800
H 	H 	0.93183 0.75567 0.41407 0.23000
H 	H 	0.93103 0.78557 0.43677 0.22900
C 	C 	0.73573 0.69137 0.37369 -0.62100
H 	H 	0.74003 0.72397 0.36427 0.21300
H 	H 	0.69303 0.66287 0.37607 0.21100
H 	H 	0.75463 0.67077 0.36677 0.21800
C 	C 	0.66683 0.70087 0.40956 0.12900
H 	H 	0.65293 0.72127 0.41967 -0.00900
H 	H 	0.65793 0.70747 0.39447 -0.01000
C 	C 	0.57733 0.60787 0.41243 0.19500
C 	C 	0.54893 0.54607 0.41763 -0.16600
H 	H 	0.57243 0.52827 0.42137 0.08500
C 	C 	0.48733 0.51187 0.41729 0.03900
H 	H 	0.46853 0.47077 0.42117 0.01200
C 	C 	0.45223 0.53647 0.41132 -0.07000
H 	H 	0.40973 0.51247 0.41147 0.06000
C 	C 	0.47973 0.59676 0.40513 -0.03500
C 	C 	0.54264 0.63213 0.40576 -0.13300
H 	H 	0.56153 0.67317 0.40157 0.08400
C 	C 	0.86063 0.72537 0.38032 0.12900
H 	H 	0.89563 0.72377 0.38617 -0.00300
H 	H 	0.83403 0.68707 0.37277 -0.00000
C 	C 	0.90783 0.77147 0.34703 0.22100
C 	C 	0.91793 0.72537 0.34196 -0.21000
H 	H 	0.90403 0.69177 0.35137 0.10800
C 	C 	0.94833 0.72807 0.32316 0.07800
H 	H 	0.95323 0.69507 0.31927 -0.00600
C 	C 	0.97163 0.77807 0.30996 -0.10700
H 	H 	0.99413 0.78027 0.29737 0.08100
C 	C 	0.96203 0.82457 0.31509 0.01400
C 	C 	0.92903 0.82177 0.33320 -0.15900
H 	H 	0.92063 0.85297 0.33627 0.10300
C 	C 	0.99043 0.88097 0.30179 0.29600
C 	C 	0.06473 0.11119 0.45551 0.29100
C 	C 	0.10553 0.17287 0.46429 -0.01600
C 	C 	0.09757 0.18307 0.48611 -0.15500
H 	H 	0.06753 0.15217 0.49477 0.08300
C 	C 	0.13543 0.24047 0.49478 0.19700
C 	C 	0.17763 0.28677 0.48184 -0.17800
H 	H 	0.20173 0.32587 0.48767 0.09800
C 	C 	0.18403 0.27457 0.46013 0.03400
H 	H 	0.21313 0.30587 0.45127 0.02000
C 	C 	0.14863 0.21757 0.45125 -0.08800
H 	H 	0.15393 0.20967 0.43657 0.06300
C 	C 	0.08373 0.20847 0.52887 0.11400
H 	H 	0.09183 0.17507 0.53087 -0.00500
H 	H 	0.04413 0.19277 0.52177 -0.00300
C 	C 	0.08461 0.23659 0.55031 -0.21200
C 	C 	0.12673 0.24105 0.56660 0.25900
C 	C 	0.12843 0.26817 0.58666 -0.21100
C 	C 	0.08733 0.28787 0.59121 0.25600
C 	C 	0.04603 0.28267 0.57533 -0.21500
C 	C 	0.04668 0.26012 0.55464 0.26500
C 	C 	0.00743 0.26097 0.53635 -0.65900
H 	H 	0.96723 0.22567 0.53757 0.22800
H 	H 	0.02513 0.26017 0.52237 0.22200
H 	H 	0.00453 0.29737 0.53737 0.22400
C 	C 	0.16773 0.21657 0.56144 -0.64000
H 	H 	0.20763 0.24327 0.56747 0.22000
H 	H 	0.17083 0.21407 0.54567 0.22200
H 	H 	0.15143 0.17647 0.56777 0.21800
C 	C 	0.08473 0.31027 0.61372 -0.62000
H 	H 	0.07743 0.34407 0.61257 0.20800
H 	H 	0.12293 0.32337 0.62117 0.22000
H 	H 	0.05213 0.27777 0.62197 0.20400
C 	C 	0.17543 0.27737 0.60321 0.11400
H 	H 	0.21033 0.27837 0.59597 0.00100
H 	H 	0.18933 0.31557 0.61107 0.00500
C 	C 	0.18083 0.23187 0.63637 0.21200
C 	C 	0.15123 0.18757 0.65172 -0.16800
H 	H 	0.11143 0.15597 0.64917 0.10500
C 	C 	0.18153 0.19027 0.67133 0.02000
C 	C 	0.23853 0.23297 0.67445 -0.11600
H 	H 	0.25913 0.23197 0.68707 0.08200
C 	C 	0.26703 0.27747 0.65991 0.07100
H 	H 	0.30533 0.31067 0.66337 -0.00300
C 	C 	0.24083 0.27557 0.63957 -0.19700
H 	H 	0.26333 0.30307 0.62837 0.10100
C 	C 	0.14853 0.14307 0.68808 0.27900
C 	C 	0.00223 0.30367 0.58005 0.08800
H 	H 	0.96473 0.27977 0.57167 0.00900
H 	H 	0.99233 0.29967 0.59567 0.00700
C 	C 	0.99673 0.39317 0.57437 0.26000
C 	C 	0.94230 0.36984 0.58523 -0.19100
H 	H 	0.92653 0.33327 0.59307 0.10600
C 	C 	0.91103 0.40177 0.58440 0.03200
C 	C 	0.93503 0.45537 0.57309 -0.14600
H 	H 	0.91333 0.47627 0.57217 0.08400
C 	C 	0.98963 0.47857 0.56324 0.14400
H 	H 	0.00653 0.51637 0.55617 -0.02800
C 	C 	0.02053 0.44727 0.56350 -0.26500
H 	H 	0.05793 0.46287 0.55617 0.12400
C 	C 	0.85113 0.37547 0.59521 0.27500
C 	C 	0.44343 0.62497 0.39898 0.35500
O 	O 	0.00383 0.01687 0.58547 -0.43300
C 	C 	0.95843 0.01267 0.59417 0.14800
H 	H 	0.92643 0.97427 0.59827 -0.01900
N 	N 	0.95353 0.06687 0.59809 -0.04600
C 	C 	0.00733 0.12637 0.59767 -0.34700
H 	H 	0.03753 0.12687 0.60757 0.14000
H 	H 	0.99703 0.15647 0.60247 0.14000
H 	H 	0.02353 0.13567 0.58297 0.13500
C 	C 	0.89463 0.05987 0.60217 -0.30300
H 	H 	0.89873 0.09167 0.61207 0.11900
H 	H 	0.86853 0.02067 0.60887 0.12200
H 	H 	0.87693 0.06267 0.58847 0.11300
Cd	Cd	0.35190 0.75593 0.94355 1.22800
Cd	Cd	0.30057 0.73241 0.88828 1.23200
O 	O 	0.73810 0.34335 0.85217 -0.47800
O 	O 	0.76722 0.39597 0.88211 -0.41000
O 	O 	0.75063 0.38533 0.63600 -0.43300
O 	O 	0.77484 0.47703 0.62402 -0.40600
O 	O 	0.99752 0.13167 0.71969 -0.40700
O 	O 	0.06230 0.12059 0.74003 -0.53300
O 	O 	0.59244 0.27948 0.80026 -0.47500
O 	O 	0.56888 0.30979 0.76982 -0.41400
O 	O 	0.32993 0.83382 0.94281 -0.37100
O 	O 	0.27460 0.75523 0.92203 -0.48100
O 	O 	0.51760 0.35700 0.03938 -0.38100
O 	O 	0.56850 0.33360 0.01751 -0.34400
O 	O 	0.91991 0.43055 0.80322 -0.25400
O 	O 	0.02816 0.33283 0.74759 -0.27800
O 	O 	0.89233 0.43885 0.69899 -0.25500
O 	O 	0.41124 0.20826 0.84903 -0.26200
O 	O 	0.43925 0.25360 0.95146 -0.26000
O 	O 	0.30054 0.99858 0.90689 -0.25200
C 	C 	0.77838 0.38474 0.86363 0.31600
C 	C 	0.84008 0.41769 0.85460 -0.02700
C 	C 	0.88910 0.45670 0.86745 -0.08000
H 	H 	0.88320 0.46430 0.88210 0.05600
C 	C 	0.94710 0.48460 0.85857 0.03300
H 	H 	0.98060 0.51040 0.86740 0.02000
C 	C 	0.95600 0.47530 0.83758 -0.17300
H 	H 	0.99550 0.49390 0.83180 0.09900
C 	C 	0.90630 0.43770 0.82431 0.19100
C 	C 	0.84963 0.40863 0.83313 -0.15100
H 	H 	0.81660 0.38190 0.82440 0.08300
C 	C 	0.86960 0.38970 0.78944 0.11000
H 	H 	0.84150 0.40500 0.78730 -0.00400
H 	H 	0.84750 0.34940 0.79610 0.00100
C 	C 	0.89711 0.38717 0.76787 -0.22600
C 	C 	0.90440 0.42690 0.75159 0.28100
C 	C 	0.93141 0.42511 0.73195 -0.21200
C 	C 	0.94930 0.38230 0.72898 0.26100
C 	C 	0.94178 0.34288 0.74577 -0.22300
C 	C 	0.91749 0.34529 0.76591 0.28800
C 	C 	0.91370 0.30580 0.78442 -0.66800
H 	H 	0.87740 0.26640 0.78290 0.22400
H 	H 	0.91200 0.32410 0.79810 0.23100
H 	H 	0.94910 0.30100 0.78430 0.22800
C 	C 	0.88290 0.47160 0.75461 -0.64900
H 	H 	0.84290 0.45550 0.74820 0.22200
H 	H 	0.91100 0.50950 0.74740 0.22700
H 	H 	0.88110 0.47880 0.77010 0.22500
C 	C 	0.97530 0.37770 0.70702 -0.58600
H 	H 	0.94270 0.34940 0.69760 0.20400
H 	H 	0.00380 0.36350 0.70940 0.19400
H 	H 	0.99590 0.41720 0.70010 0.21100
C 	C 	0.96580 0.29930 0.74289 0.14100
H 	H 	0.94540 0.26500 0.75300 -0.01200
H 	H 	0.95920 0.28380 0.72780 -0.01100
C 	C 	0.05880 0.30280 0.74576 0.20900
C 	C 	0.12060 0.33620 0.75096 -0.17700
H 	H 	0.13840 0.37750 0.75470 0.08800
C 	C 	0.15480 0.30880 0.75062 0.05000
H 	H 	0.19590 0.33110 0.75450 0.00800
C 	C 	0.13020 0.24910 0.74465 -0.08300
H 	H 	0.15420 0.23060 0.74480 0.06400
C 	C 	0.06991 0.21631 0.73846 -0.01900
C 	C 	0.03454 0.24385 0.73909 -0.16500
H 	H 	0.99350 0.22170 0.73490 0.10100
C 	C 	0.94130 0.46860 0.71365 0.12500
H 	H 	0.94290 0.50520 0.71950 -0.00100
H 	H 	0.97960 0.48030 0.70610 0.00400
C 	C 	0.89520 0.46970 0.68036 0.22200
C 	C 	0.94130 0.52590 0.67529 -0.21100
H 	H 	0.97490 0.54560 0.68470 0.11100
C 	C 	0.93860 0.55360 0.65649 0.07900
H 	H 	0.97160 0.59150 0.65260 -0.00500
C 	C 	0.88860 0.52690 0.64329 -0.10900
H 	H 	0.88640 0.54720 0.63070 0.07900
C 	C 	0.84210 0.47080 0.64842 0.01600
C 	C 	0.84490 0.44060 0.66653 -0.16100
H 	H 	0.81370 0.40100 0.66960 0.10200
C 	C 	0.78570 0.44280 0.63512 0.28500
C 	C 	0.55548 0.28688 0.78884 0.29000
C 	C 	0.49380 0.26600 0.79762 -0.01400
C 	C 	0.48360 0.24784 0.81944 -0.15600
H 	H 	0.51450 0.24870 0.82810 0.08600
C 	C 	0.42620 0.22830 0.82811 0.19800
C 	C 	0.37990 0.22420 0.81517 -0.17900
H 	H 	0.34080 0.20920 0.82100 0.09800
C 	C 	0.39210 0.24280 0.79346 0.03500
H 	H 	0.36080 0.24060 0.78460 0.02000
C 	C 	0.44910 0.26440 0.78458 -0.08900
H 	H 	0.45700 0.27760 0.76990 0.06400
C 	C 	0.45820 0.20860 0.86220 0.11000
H 	H 	0.49160 0.25010 0.86420 -0.00300
H 	H 	0.47390 0.18470 0.85510 0.00100
C 	C 	0.43008 0.18136 0.88364 -0.20700
C 	C 	0.42562 0.21902 0.89993 0.25700
C 	C 	0.39850 0.19360 0.91999 -0.21000
C 	C 	0.37880 0.13280 0.92454 0.25800
C 	C 	0.38400 0.09670 0.90866 -0.21700
C 	C 	0.40655 0.11990 0.88797 0.25700
C 	C 	0.40570 0.07980 0.86968 -0.62000
H 	H 	0.44100 0.07490 0.87090 0.21000
H 	H 	0.40650 0.09830 0.85570 0.21200
H 	H 	0.36930 0.04050 0.87070 0.21300
C 	C 	0.45010 0.28450 0.89477 -0.63900
H 	H 	0.42340 0.29770 0.90080 0.22000
H 	H 	0.45260 0.29010 0.87900 0.22100
H 	H 	0.49020 0.30830 0.90110 0.21700
C 	C 	0.35640 0.10780 0.94705 -0.62100
H 	H 	0.32260 0.06670 0.94590 0.20800
H 	H 	0.34330 0.13290 0.95450 0.22000
H 	H 	0.38890 0.10770 0.95530 0.20600
C 	C 	0.38930 0.23140 0.93654 0.11400
H 	H 	0.38830 0.26530 0.92930 0.00200
H 	H 	0.35110 0.20710 0.94440 0.00500
C 	C 	0.43480 0.28230 0.96970 0.21300
C 	C 	0.47910 0.29700 0.98505 -0.16900
H 	H 	0.51070 0.28880 0.98250 0.10700
C 	C 	0.47640 0.32460 0.00466 0.02200
C 	C 	0.43370 0.33890 0.00778 -0.11700
H 	H 	0.43470 0.36050 0.02040 0.08300
C 	C 	0.38920 0.32290 0.99324 0.07200
H 	H 	0.35600 0.32800 0.99670 -0.00300
C 	C 	0.39110 0.29860 0.97290 -0.19800
H 	H 	0.36360 0.29360 0.96170 0.10100
C 	C 	0.52360 0.33880 0.02141 0.27900
C 	C 	0.36300 0.03190 0.91338 0.11100
H 	H 	0.38690 0.01830 0.90500 -0.00600
H 	H 	0.36700 0.02600 0.92900 -0.01000
C 	C 	0.27350 0.93690 0.90770 0.20900
C 	C 	0.29683 0.90580 0.91856 -0.15500
H 	H 	0.33340 0.92660 0.92640 0.09500
C 	C 	0.26490 0.84260 0.91773 -0.00000
C 	C 	0.21130 0.81300 0.90642 -0.09600
H 	H 	0.19040 0.77040 0.90550 0.06600
C 	C 	0.18810 0.84440 0.89657 0.06200
H 	H 	0.15030 0.82350 0.88950 0.00600
C 	C 	0.21940 0.90660 0.89683 -0.18900
H 	H 	0.20380 0.92840 0.88950 0.10200
C 	C 	0.29120 0.80900 0.92854 0.28600
C 	C 	0.04170 0.15180 0.73231 0.33500
O 	O 	0.64980 0.32030 0.91880 -0.14600
C 	C 	0.65400 0.27910 0.92750 0.12300
H 	H 	0.69240 0.28550 0.93160 -0.00100
N 	N 	0.59980 0.22000 0.93142 -0.05600
C 	C 	0.54030 0.21430 0.93100 -0.30100
H 	H 	0.53980 0.24400 0.94090 0.12700
H 	H 	0.51020 0.17390 0.93580 0.12000
H 	H 	0.53100 0.22120 0.91630 0.12000
C 	C 	0.60680 0.16810 0.93550 -0.30000
H 	H 	0.57500 0.14040 0.94540 0.11700
H 	H 	0.64600 0.18120 0.94220 0.12400
H 	H 	0.60400 0.14760 0.92180 0.11200
Cd	Cd	0.01856 0.08926 0.27689 1.22400
Cd	Cd	0.96724 0.06575 0.22161 1.23400
O 	O 	0.40477 0.67668 0.18550 -0.47800
O 	O 	0.43389 0.72930 0.21544 -0.41000
O 	O 	0.41730 0.71866 0.96933 -0.43300
O 	O 	0.44151 0.81036 0.95735 -0.40600
O 	O 	0.66419 0.46500 0.05302 -0.42100
O 	O 	0.72897 0.45392 0.07336 -0.53600
O 	O 	0.25911 0.61281 0.13359 -0.47500
O 	O 	0.23555 0.64312 0.10315 -0.41400
O 	O 	0.99660 0.16715 0.27614 -0.36700
O 	O 	0.94127 0.08856 0.25536 -0.48000
O 	O 	0.18427 0.69033 0.37271 -0.38100
O 	O 	0.23517 0.66693 0.35084 -0.34300
O 	O 	0.58658 0.76388 0.13655 -0.25600
O 	O 	0.69483 0.66616 0.08092 -0.26600
O 	O 	0.55900 0.77218 0.03232 -0.25600
O 	O 	0.07791 0.54159 0.18236 -0.26500
O 	O 	0.10592 0.58693 0.28479 -0.26100
O 	O 	0.96721 0.33191 0.24022 -0.25200
C 	C 	0.44505 0.71807 0.19696 0.31600
C 	C 	0.50675 0.75102 0.18793 -0.02700
C 	C 	0.55577 0.79003 0.20078 -0.08100
H 	H 	0.54987 0.79763 0.21543 0.05500
C 	C 	0.61377 0.81793 0.19190 0.03300
H 	H 	0.64727 0.84373 0.20073 0.01800
C 	C 	0.62267 0.80863 0.17091 -0.17300
H 	H 	0.66217 0.82723 0.16513 0.09600
C 	C 	0.57297 0.77103 0.15764 0.19100
C 	C 	0.51630 0.74196 0.16646 -0.15100
H 	H 	0.48327 0.71523 0.15773 0.08300
C 	C 	0.53627 0.72303 0.12277 0.11100
H 	H 	0.50817 0.73833 0.12063 -0.00400
H 	H 	0.51417 0.68273 0.12943 0.00100
C 	C 	0.56378 0.72050 0.10120 -0.22800
C 	C 	0.57107 0.76023 0.08492 0.28200
C 	C 	0.59808 0.75844 0.06528 -0.21800
C 	C 	0.61597 0.71563 0.06231 0.26800
C 	C 	0.60845 0.67621 0.07910 -0.22600
C 	C 	0.58416 0.67862 0.09924 0.28600
C 	C 	0.58037 0.63913 0.11775 -0.66500
H 	H 	0.54407 0.59973 0.11623 0.22300
H 	H 	0.57867 0.65743 0.13143 0.22900
H 	H 	0.61577 0.63433 0.11763 0.22500
C 	C 	0.54957 0.80493 0.08794 -0.65000
H 	H 	0.50957 0.78883 0.08153 0.22300
H 	H 	0.57767 0.84283 0.08073 0.22600
H 	H 	0.54777 0.81213 0.10343 0.22500
C 	C 	0.64197 0.71103 0.04035 -0.62000
H 	H 	0.60937 0.68273 0.03093 0.21200
H 	H 	0.67047 0.69683 0.04273 0.21100
H 	H 	0.66257 0.75053 0.03343 0.21700
C 	C 	0.63247 0.63263 0.07622 0.12900
H 	H 	0.61207 0.59833 0.08633 -0.00900
H 	H 	0.62587 0.61713 0.06113 -0.01000
C 	C 	0.72547 0.63613 0.07909 0.19400
C 	C 	0.78727 0.66953 0.08429 -0.16500
H 	H 	0.80507 0.71083 0.08803 0.08400
C 	C 	0.82147 0.64213 0.08395 0.03900
H 	H 	0.86257 0.66443 0.08783 0.01200
C 	C 	0.79687 0.58243 0.07798 -0.07000
H 	H 	0.82087 0.56393 0.07813 0.06000
C 	C 	0.73658 0.54964 0.07179 -0.03500
C 	C 	0.70121 0.57718 0.07242 -0.13300
H 	H 	0.66017 0.55503 0.06823 0.08400
C 	C 	0.60797 0.80193 0.04698 0.12900
H 	H 	0.60957 0.83853 0.05283 -0.00400
H 	H 	0.64627 0.81363 0.03943 -0.00000
C 	C 	0.56187 0.80303 0.01369 0.22100
C 	C 	0.60797 0.85923 0.00862 -0.21100
H 	H 	0.64157 0.87893 0.01803 0.10800
C 	C 	0.60527 0.88693 0.98982 0.07800
H 	H 	0.63827 0.92483 0.98593 -0.00600
C 	C 	0.55527 0.86023 0.97662 -0.11000
H 	H 	0.55307 0.88053 0.96403 0.07900
C 	C 	0.50877 0.80413 0.98175 0.01600
C 	C 	0.51157 0.77393 0.99986 -0.16100
H 	H 	0.48037 0.73433 0.00293 0.10200
C 	C 	0.45237 0.77613 0.96845 0.28500
C 	C 	0.22215 0.62021 0.12217 0.29000
C 	C 	0.16047 0.59933 0.13095 -0.01300
C 	C 	0.15027 0.58117 0.15277 -0.15700
H 	H 	0.18117 0.58203 0.16143 0.08600
C 	C 	0.09287 0.56163 0.16144 0.19800
C 	C 	0.04657 0.55753 0.14850 -0.18000
H 	H 	0.00747 0.54253 0.15433 0.09500
C 	C 	0.05877 0.57613 0.12679 0.03500
H 	H 	0.02747 0.57393 0.11793 0.01700
C 	C 	0.11577 0.59773 0.11791 -0.09000
H 	H 	0.12367 0.61093 0.10323 0.06400
C 	C 	0.12487 0.54193 0.19553 0.11200
H 	H 	0.15827 0.58343 0.19753 -0.00400
H 	H 	0.14057 0.51803 0.18843 0.00100
C 	C 	0.09675 0.51469 0.21697 -0.21000
C 	C 	0.09229 0.55235 0.23326 0.26000
C 	C 	0.06517 0.52693 0.25332 -0.21800
C 	C 	0.04547 0.46613 0.25787 0.27000
C 	C 	0.05067 0.43003 0.24199 -0.22500
C 	C 	0.07322 0.45323 0.22130 0.26000
C 	C 	0.07237 0.41313 0.20301 -0.62300
H 	H 	0.10767 0.40823 0.20423 0.21100
H 	H 	0.07317 0.43163 0.18903 0.21200
H 	H 	0.03597 0.37383 0.20403 0.21400
C 	C 	0.11677 0.61783 0.22810 -0.64100
H 	H 	0.09007 0.63103 0.23413 0.21900
H 	H 	0.11927 0.62343 0.21233 0.22100
H 	H 	0.15687 0.64163 0.23443 0.21800
C 	C 	0.02307 0.44113 0.28038 -0.66300
H 	H 	0.98927 0.40003 0.27923 0.22900
H 	H 	0.00997 0.46623 0.28783 0.22900
H 	H 	0.05557 0.44103 0.28863 0.21700
C 	C 	0.05597 0.56473 0.26987 0.11900
H 	H 	0.05497 0.59863 0.26263 -0.00100
H 	H 	0.01777 0.54043 0.27773 0.00000
C 	C 	0.10147 0.61563 0.30303 0.21300
C 	C 	0.14577 0.63033 0.31838 -0.17000
H 	H 	0.17737 0.62213 0.31583 0.10700
C 	C 	0.14307 0.65793 0.33799 0.02200
C 	C 	0.10037 0.67223 0.34111 -0.11900
H 	H 	0.10137 0.69383 0.35373 0.08200
C 	C 	0.05587 0.65623 0.32657 0.07200
H 	H 	0.02267 0.66133 0.33003 -0.00600
C 	C 	0.05777 0.63193 0.30623 -0.19900
H 	H 	0.03027 0.62693 0.29503 0.09900
C 	C 	0.19027 0.67213 0.35474 0.27800
C 	C 	0.02967 0.36523 0.24671 0.11300
H 	H 	0.05357 0.35163 0.23833 -0.00500
H 	H 	0.03367 0.35933 0.26233 -0.01000
C 	C 	0.94017 0.27023 0.24103 0.19600
C 	C 	0.96350 0.23913 0.25189 -0.12800
H 	H 	0.00007 0.25993 0.25973 0.07700
C 	C 	0.93157 0.17593 0.25106 -0.01200
C 	C 	0.87797 0.14633 0.23975 -0.08500
H 	H 	0.85707 0.10373 0.23883 0.06300
C 	C 	0.85477 0.17773 0.22990 0.05300
H 	H 	0.81697 0.15683 0.22283 0.01000
C 	C 	0.88607 0.23993 0.23016 -0.17800
H 	H 	0.87047 0.26173 0.22283 0.09700
C 	C 	0.95787 0.14233 0.26187 0.29100
C 	C 	0.70837 0.48513 0.06564 0.35500
O 	O 	0.31647 0.65363 0.25213 -0.14500
C 	C 	0.32067 0.61243 0.26083 0.12300
H 	H 	0.35907 0.61883 0.26493 -0.00100
N 	N 	0.26647 0.55333 0.26475 -0.05600
C 	C 	0.20697 0.54763 0.26433 -0.30200
H 	H 	0.20647 0.57733 0.27423 0.12700
H 	H 	0.17687 0.50723 0.26913 0.12000
H 	H 	0.19767 0.55453 0.24963 0.12100
C 	C 	0.27347 0.50143 0.26883 -0.30100
H 	H 	0.24167 0.47373 0.27873 0.11800
H 	H 	0.31267 0.51453 0.27553 0.12500
H 	H 	0.27067 0.48093 0.25513 0.11400
Cd	Cd	0.68523 0.42259 0.61022 1.22800
Cd	Cd	0.63391 0.39908 0.55494 1.23200
O 	O 	0.07143 0.01002 0.51884 -0.48600
O 	O 	0.10055 0.06264 0.54878 -0.41200
O 	O 	0.08396 0.05200 0.30267 -0.43900
O 	O 	0.10817 0.14370 0.29069 -0.40900
O 	O 	0.33085 0.79834 0.38636 -0.41900
O 	O 	0.39563 0.78726 0.40670 -0.53400
O 	O 	0.92577 0.94615 0.46693 -0.46800
O 	O 	0.90221 0.97646 0.43649 -0.40600
O 	O 	0.66326 0.50049 0.60948 -0.37100
O 	O 	0.60793 0.42190 0.58870 -0.48100
O 	O 	0.85093 0.02367 0.70605 -0.37700
O 	O 	0.90183 0.00027 0.68418 -0.33900
O 	O 	0.25324 0.09722 0.46989 -0.25700
O 	O 	0.36149 0.99950 0.41426 -0.26900
O 	O 	0.22566 0.10552 0.36566 -0.25800
O 	O 	0.74457 0.87493 0.51570 -0.26200
O 	O 	0.77258 0.92027 0.61813 -0.26500
O 	O 	0.63387 0.66525 0.57356 -0.26300
C 	C 	0.11171 0.05141 0.53030 0.31600
C 	C 	0.17341 0.08436 0.52127 -0.03000
C 	C 	0.22243 0.12337 0.53412 -0.08000
H 	H 	0.21653 0.13097 0.54877 0.05500
C 	C 	0.28043 0.15127 0.52524 0.03200
H 	H 	0.31393 0.17707 0.53407 0.01800
C 	C 	0.28933 0.14197 0.50425 -0.17300
H 	H 	0.32883 0.16057 0.49847 0.09500
C 	C 	0.23963 0.10437 0.49098 0.19000
C 	C 	0.18296 0.07530 0.49980 -0.15000
H 	H 	0.14993 0.04857 0.49107 0.08100
C 	C 	0.20293 0.05637 0.45611 0.11000
H 	H 	0.17483 0.07167 0.45397 -0.00600
H 	H 	0.18083 0.01607 0.46277 -0.00300
C 	C 	0.23044 0.05384 0.43454 -0.22600
C 	C 	0.23773 0.09357 0.41826 0.27900
C 	C 	0.26474 0.09178 0.39862 -0.21800
C 	C 	0.28263 0.04897 0.39565 0.26700
C 	C 	0.27511 0.00955 0.41244 -0.23300
C 	C 	0.25082 0.01196 0.43258 0.27500
C 	C 	0.24703 0.97247 0.45109 -0.64700
H 	H 	0.21073 0.93307 0.44957 0.22000
H 	H 	0.24533 0.99077 0.46477 0.22800
H 	H 	0.28243 0.96767 0.45097 0.22300
C 	C 	0.21623 0.13827 0.42128 -0.64700
H 	H 	0.17623 0.12217 0.41487 0.22000
H 	H 	0.24433 0.17617 0.41407 0.22500
H 	H 	0.21443 0.14547 0.43677 0.22400
C 	C 	0.30863 0.04437 0.37369 -0.61700
H 	H 	0.27603 0.01607 0.36427 0.20800
H 	H 	0.33713 0.03017 0.37607 0.20700
H 	H 	0.32923 0.08387 0.36677 0.21600
C 	C 	0.29913 0.96597 0.40956 0.14200
H 	H 	0.27873 0.93167 0.41967 -0.01200
H 	H 	0.29253 0.95047 0.39447 -0.01100
C 	C 	0.39213 0.96947 0.41243 0.22500
C 	C 	0.45393 0.00287 0.41763 -0.21400
H 	H 	0.47173 0.04417 0.42137 0.09800
C 	C 	0.48813 0.97547 0.41729 0.08100
H 	H 	0.52923 0.99777 0.42117 0.00200
C 	C 	0.46353 0.91577 0.41132 -0.09300
H 	H 	0.48753 0.89727 0.41147 0.06800
C 	C 	0.40324 0.88298 0.40513 -0.01800
C 	C 	0.36787 0.91052 0.40576 -0.15100
H 	H 	0.32683 0.88837 0.40157 0.09000
C 	C 	0.27463 0.13527 0.38032 0.12900
H 	H 	0.27623 0.17187 0.38617 -0.00400
H 	H 	0.31293 0.14697 0.37277 -0.00000
C 	C 	0.22853 0.13637 0.34703 0.22000
C 	C 	0.27463 0.19257 0.34196 -0.21100
H 	H 	0.30823 0.21227 0.35137 0.10800
C 	C 	0.27193 0.22027 0.32316 0.07700
H 	H 	0.30493 0.25817 0.31927 -0.00800
C 	C 	0.22193 0.19357 0.30996 -0.10900
H 	H 	0.21973 0.21387 0.29737 0.07800
C 	C 	0.17543 0.13747 0.31509 0.01300
C 	C 	0.17823 0.10727 0.33320 -0.16100
H 	H 	0.14703 0.06767 0.33627 0.09900
C 	C 	0.11903 0.10947 0.30179 0.28600
C 	C 	0.88881 0.95355 0.45551 0.28900
C 	C 	0.82713 0.93267 0.46429 -0.01100
C 	C 	0.81693 0.91451 0.48611 -0.15700
H 	H 	0.84783 0.91537 0.49477 0.08700
C 	C 	0.75953 0.89497 0.49478 0.20000
C 	C 	0.71323 0.89087 0.48184 -0.17900
H 	H 	0.67413 0.87587 0.48767 0.09900
C 	C 	0.72543 0.90947 0.46013 0.03700
H 	H 	0.69413 0.90727 0.45127 0.02000
C 	C 	0.78243 0.93107 0.45125 -0.09000
H 	H 	0.79033 0.94427 0.43657 0.06600
C 	C 	0.79153 0.87527 0.52887 0.11100
H 	H 	0.82493 0.91677 0.53087 -0.00300
H 	H 	0.80723 0.85137 0.52177 0.00100
C 	C 	0.76341 0.84803 0.55031 -0.21000
C 	C 	0.75895 0.88569 0.56660 0.26200
C 	C 	0.73183 0.86027 0.58666 -0.21400
C 	C 	0.71213 0.79947 0.59121 0.26400
C 	C 	0.71733 0.76337 0.57533 -0.22300
C 	C 	0.73988 0.78657 0.55464 0.26200
C 	C 	0.73903 0.74647 0.53635 -0.62800
H 	H 	0.77433 0.74157 0.53757 0.21300
H 	H 	0.73983 0.76497 0.52237 0.21500
H 	H 	0.70263 0.70717 0.53737 0.21800
C 	C 	0.78343 0.95117 0.56144 -0.64800
H 	H 	0.75673 0.96437 0.56747 0.22400
H 	H 	0.78593 0.95677 0.54567 0.22600
H 	H 	0.82353 0.97497 0.56777 0.22300
C 	C 	0.68973 0.77447 0.61372 -0.62900
H 	H 	0.65593 0.73337 0.61257 0.21200
H 	H 	0.67663 0.79957 0.62117 0.22300
H 	H 	0.72223 0.77437 0.62197 0.21000
C 	C 	0.72263 0.89807 0.60321 0.11800
H 	H 	0.72163 0.93197 0.59597 0.00100
H 	H 	0.68443 0.87377 0.61107 0.00400
C 	C 	0.76813 0.94897 0.63637 0.23800
C 	C 	0.81243 0.96367 0.65172 -0.20000
H 	H 	0.84403 0.95547 0.64917 0.12100
C 	C 	0.80973 0.99127 0.67133 0.07500
C 	C 	0.76703 0.00557 0.67445 -0.18700
H 	H 	0.76803 0.02717 0.68707 0.10400
C 	C 	0.72253 0.98957 0.65991 0.12800
H 	H 	0.68933 0.99467 0.66337 -0.01800
C 	C 	0.72443 0.96527 0.63957 -0.23000
H 	H 	0.69693 0.96027 0.62837 0.11400
C 	C 	0.85693 0.00547 0.68808 0.25300
C 	C 	0.69633 0.69857 0.58005 0.12400
H 	H 	0.72023 0.68497 0.57167 -0.00700
H 	H 	0.70033 0.69267 0.59567 -0.01000
C 	C 	0.60683 0.60357 0.57437 0.20900
C 	C 	0.63016 0.57247 0.58523 -0.15600
H 	H 	0.66673 0.59327 0.59307 0.09400
C 	C 	0.59823 0.50927 0.58440 -0.00000
C 	C 	0.54463 0.47967 0.57309 -0.09500
H 	H 	0.52373 0.43707 0.57217 0.06600
C 	C 	0.52143 0.51107 0.56324 0.06200
H 	H 	0.48363 0.49017 0.55617 0.00700
C 	C 	0.55273 0.57327 0.56350 -0.18900
H 	H 	0.53713 0.59507 0.55617 0.10100
C 	C 	0.62453 0.47567 0.59521 0.28600
C 	C 	0.37503 0.81847 0.39898 0.34900
O 	O 	0.98313 0.98697 0.58547 0.11900
C 	C 	0.98733 0.94577 0.59417 -0.00200
H 	H 	0.02573 0.95217 0.59827 0.03700
N 	N 	0.93313 0.88667 0.59809 -0.03500
C 	C 	0.87363 0.88097 0.59767 -0.31600
H 	H 	0.87313 0.91067 0.60757 0.13400
H 	H 	0.84353 0.84057 0.60247 0.12500
H 	H 	0.86433 0.88787 0.58297 0.12400
C 	C 	0.94013 0.83477 0.60217 -0.31700
H 	H 	0.90833 0.80707 0.61207 0.12400
H 	H 	0.97933 0.84787 0.60887 0.13500
H 	H 	0.93733 0.81427 0.58847 0.12100
Cd	Cd	0.40403 0.75593 0.44355 1.22800
Cd	Cd	0.43184 0.73241 0.38828 1.23200
O 	O 	0.60525 0.34335 0.35217 -0.47800
O 	O 	0.62875 0.39597 0.38211 -0.41000
O 	O 	0.63470 0.38533 0.13600 -0.43300
O 	O 	0.70219 0.47703 0.12402 -0.40600
O 	O 	0.13415 0.13167 0.21969 -0.42200
O 	O 	0.05829 0.12059 0.24003 -0.54000
O 	O 	0.68704 0.27948 0.30026 -0.47500
O 	O 	0.74091 0.30979 0.26982 -0.41400
O 	O 	0.50389 0.83382 0.44281 -0.37100
O 	O 	0.48063 0.75523 0.42203 -0.48100
O 	O 	0.83940 0.35700 0.53938 -0.38100
O 	O 	0.76510 0.33360 0.51751 -0.34300
O 	O 	0.51064 0.43055 0.30322 -0.25600
O 	O 	0.30467 0.33283 0.24759 -0.26600
O 	O 	0.54652 0.43885 0.19899 -0.25600
O 	O 	0.79702 0.20826 0.34903 -0.26200
O 	O 	0.81435 0.25360 0.45146 -0.26000
O 	O 	0.69804 0.99858 0.40689 -0.25300
C 	C 	0.60636 0.38474 0.36363 0.31600
C 	C 	0.57761 0.41769 0.35460 -0.02700
C 	C 	0.56760 0.45670 0.36745 -0.08100
H 	H 	0.58110 0.46430 0.38210 0.05500
C 	C 	0.53750 0.48460 0.35857 0.03300
H 	H 	0.52980 0.51040 0.36740 0.01700
C 	C 	0.51930 0.47530 0.33758 -0.17300
H 	H 	0.49840 0.49390 0.33180 0.09500
C 	C 	0.53140 0.43770 0.32431 0.19100
C 	C 	0.55900 0.40863 0.33313 -0.15100
H 	H 	0.56530 0.38190 0.32440 0.08300
C 	C 	0.52010 0.38970 0.28944 0.11100
H 	H 	0.56350 0.40500 0.28730 -0.00400
H 	H 	0.50190 0.34940 0.29610 0.00100
C 	C 	0.49006 0.38717 0.26787 -0.22700
C 	C 	0.52250 0.42690 0.25159 0.28100
C 	C 	0.49370 0.42511 0.23195 -0.21800
C 	C 	0.43300 0.38230 0.22898 0.26800
C 	C 	0.40110 0.34288 0.24577 -0.22600
C 	C 	0.42780 0.34529 0.26591 0.28600
C 	C 	0.39210 0.30580 0.28442 -0.66500
H 	H 	0.38900 0.26640 0.28290 0.22300
H 	H 	0.41210 0.32410 0.29810 0.22900
H 	H 	0.35190 0.30100 0.28430 0.22500
C 	C 	0.58870 0.47160 0.25461 -0.65000
H 	H 	0.61260 0.45550 0.24820 0.22200
H 	H 	0.59850 0.50950 0.24740 0.22600
H 	H 	0.59770 0.47880 0.27010 0.22500
C 	C 	0.40240 0.37770 0.20702 -0.62000
H 	H 	0.40670 0.34940 0.19760 0.21200
H 	H 	0.35970 0.36350 0.20940 0.21100
H 	H 	0.42130 0.41720 0.20010 0.21700
C 	C 	0.33350 0.29930 0.24289 0.12900
H 	H 	0.31960 0.26500 0.25300 -0.00900
H 	H 	0.32460 0.28380 0.22780 -0.01000
C 	C 	0.24400 0.30280 0.24576 0.19400
C 	C 	0.21560 0.33620 0.25096 -0.16500
H 	H 	0.23910 0.37750 0.25470 0.08400
C 	C 	0.15400 0.30880 0.25062 0.03700
H 	H 	0.13520 0.33110 0.25450 0.01200
C 	C 	0.11890 0.24910 0.24465 -0.06900
H 	H 	0.07640 0.23060 0.24480 0.05700
C 	C 	0.14640 0.21631 0.23846 -0.03700
C 	C 	0.20931 0.24385 0.23909 -0.13200
H 	H 	0.22820 0.22170 0.23490 0.08300
C 	C 	0.52730 0.46860 0.21365 0.12900
H 	H 	0.56230 0.50520 0.21950 -0.00400
H 	H 	0.50070 0.48030 0.20610 -0.00000
C 	C 	0.57450 0.46970 0.18036 0.22200
C 	C 	0.58460 0.52590 0.17529 -0.21200
H 	H 	0.57070 0.54560 0.18470 0.10800
C 	C 	0.61500 0.55360 0.15649 0.07800
H 	H 	0.61990 0.59150 0.15260 -0.00800
C 	C 	0.63830 0.52690 0.14329 -0.11000
H 	H 	0.66080 0.54720 0.13070 0.07800
C 	C 	0.62870 0.47080 0.14842 0.01600
C 	C 	0.59570 0.44060 0.16653 -0.16100
H 	H 	0.58730 0.40100 0.16960 0.10200
C 	C 	0.65710 0.44280 0.13512 0.28500
C 	C 	0.73140 0.28688 0.28884 0.29000
C 	C 	0.77220 0.26600 0.29762 -0.01400
C 	C 	0.76424 0.24784 0.31944 -0.15600
H 	H 	0.73420 0.24870 0.32810 0.08600
C 	C 	0.80210 0.22830 0.32811 0.19900
C 	C 	0.84430 0.22420 0.31517 -0.17900
H 	H 	0.86840 0.20920 0.32100 0.09900
C 	C 	0.85070 0.24280 0.29346 0.03600
H 	H 	0.87980 0.24060 0.28460 0.02000
C 	C 	0.81530 0.26440 0.28458 -0.08900
H 	H 	0.82060 0.27760 0.26990 0.06400
C 	C 	0.75040 0.20860 0.36220 0.11000
H 	H 	0.75850 0.25010 0.36420 -0.00300
H 	H 	0.71080 0.18470 0.35510 0.00100
C 	C 	0.75128 0.18136 0.38364 -0.20700
C 	C 	0.79340 0.21902 0.39993 0.25800
C 	C 	0.79510 0.19360 0.41999 -0.21000
C 	C 	0.75400 0.13280 0.42454 0.25900
C 	C 	0.71270 0.09670 0.40866 -0.21800
C 	C 	0.71335 0.11990 0.38797 0.25800
C 	C 	0.67410 0.07980 0.36968 -0.62100
H 	H 	0.63390 0.07490 0.37090 0.21000
H 	H 	0.69180 0.09830 0.35570 0.21200
H 	H 	0.67120 0.04050 0.37070 0.21300
C 	C 	0.83440 0.28450 0.39477 -0.64000
H 	H 	0.87430 0.29770 0.40080 0.22100
H 	H 	0.83750 0.29010 0.37900 0.22200
H 	H 	0.81810 0.30830 0.40110 0.21800
C 	C 	0.75140 0.10780 0.44705 -0.62100
H 	H 	0.74410 0.06670 0.44590 0.20800
H 	H 	0.78960 0.13290 0.45450 0.22000
H 	H 	0.71880 0.10770 0.45530 0.20600
C 	C 	0.84210 0.23140 0.43654 0.11300
H 	H 	0.87700 0.26530 0.42930 0.00200
H 	H 	0.85600 0.20710 0.44440 0.00500
C 	C 	0.84750 0.28230 0.46970 0.21300
C 	C 	0.81790 0.29700 0.48505 -0.16900
H 	H 	0.77810 0.28880 0.48250 0.10700
C 	C 	0.84820 0.32460 0.50466 0.02200
C 	C 	0.90520 0.33890 0.50778 -0.11700
H 	H 	0.92580 0.36050 0.52040 0.08400
C 	C 	0.93370 0.32290 0.49324 0.07300
H 	H 	0.97200 0.32800 0.49670 0.00100
C 	C 	0.90750 0.29860 0.47290 -0.19700
H 	H 	0.93000 0.29360 0.46170 0.10300
C 	C 	0.81520 0.33880 0.52141 0.27900
C 	C 	0.66890 0.03190 0.41338 0.11200
H 	H 	0.63140 0.01830 0.40500 -0.00600
H 	H 	0.65900 0.02600 0.42900 -0.01000
C 	C 	0.66340 0.93690 0.40770 0.20900
C 	C 	0.60897 0.90580 0.41856 -0.15500
H 	H 	0.59320 0.92660 0.42640 0.09500
C 	C 	0.57770 0.84260 0.41773 -0.00000
C 	C 	0.60170 0.81300 0.40642 -0.09500
H 	H 	0.58000 0.77040 0.40550 0.06600
C 	C 	0.65630 0.84440 0.39657 0.06200
H 	H 	0.67320 0.82350 0.38950 0.00700
C 	C 	0.68720 0.90660 0.39683 -0.18800
H 	H 	0.72460 0.92840 0.38950 0.10200
C 	C 	0.51780 0.80900 0.42854 0.28600
C 	C 	0.11010 0.15180 0.23231 0.35600
O 	O 	0.67050 0.32030 0.41880 -0.14500
C 	C 	0.62510 0.27910 0.42750 0.12300
H 	H 	0.59310 0.28550 0.43160 -0.00100
N 	N 	0.62020 0.22000 0.43142 -0.05600
C 	C 	0.67400 0.21430 0.43100 -0.30100
H 	H 	0.70420 0.24400 0.44090 0.12700
H 	H 	0.66370 0.17390 0.43580 0.12000
H 	H 	0.69020 0.22120 0.41630 0.12000
C 	C 	0.56130 0.16810 0.43550 -0.30000
H 	H 	0.56540 0.14040 0.44540 0.11700
H 	H 	0.53520 0.18120 0.44220 0.12400
H 	H 	0.54360 0.14760 0.42180 0.11200
Cd	Cd	0.07070 0.08926 0.77689 1.22600
Cd	Cd	0.09851 0.06575 0.72161 1.23100
O 	O 	0.27192 0.67668 0.68550 -0.47900
O 	O 	0.29542 0.72930 0.71544 -0.41000
O 	O 	0.30137 0.71866 0.46933 -0.43300
O 	O 	0.36886 0.81036 0.45735 -0.40600
O 	O 	0.80082 0.46500 0.55302 -0.42100
O 	O 	0.72496 0.45392 0.57336 -0.53600
O 	O 	0.35371 0.61281 0.63359 -0.47500
O 	O 	0.40758 0.64312 0.60315 -0.41400
O 	O 	0.17056 0.16715 0.77614 -0.37200
O 	O 	0.14730 0.08856 0.75536 -0.48200
O 	O 	0.50607 0.69033 0.87271 -0.38100
O 	O 	0.43177 0.66693 0.85084 -0.34300
O 	O 	0.17731 0.76388 0.63655 -0.25600
O 	O 	0.97134 0.66616 0.58092 -0.24700
O 	O 	0.21319 0.77218 0.53232 -0.25600
O 	O 	0.46369 0.54159 0.68236 -0.26200
O 	O 	0.48102 0.58693 0.78479 -0.26000
O 	O 	0.36471 0.33191 0.74022 -0.26300
C 	C 	0.27303 0.71807 0.69696 0.31600
C 	C 	0.24428 0.75102 0.68793 -0.02700
C 	C 	0.23427 0.79003 0.70078 -0.08100
H 	H 	0.24777 0.79763 0.71543 0.05500
C 	C 	0.20417 0.81793 0.69190 0.03300
H 	H 	0.19647 0.84373 0.70073 0.01800
C 	C 	0.18597 0.80863 0.67091 -0.17300
H 	H 	0.16507 0.82723 0.66513 0.09600
C 	C 	0.19807 0.77103 0.65764 0.19100
C 	C 	0.22567 0.74196 0.66646 -0.15000
H 	H 	0.23197 0.71523 0.65773 0.08300
C 	C 	0.18677 0.72303 0.62277 0.10700
H 	H 	0.23017 0.73833 0.62063 -0.00400
H 	H 	0.16857 0.68273 0.62943 0.00200
C 	C 	0.15673 0.72050 0.60120 -0.22100
C 	C 	0.18917 0.76023 0.58492 0.27600
C 	C 	0.16037 0.75844 0.56528 -0.21200
C 	C 	0.09967 0.71563 0.56231 0.25500
C 	C 	0.06777 0.67621 0.57910 -0.20700
C 	C 	0.09447 0.67862 0.59924 0.27300
C 	C 	0.05877 0.63913 0.61775 -0.64900
H 	H 	0.05567 0.59973 0.61623 0.21700
H 	H 	0.07877 0.65743 0.63143 0.22300
H 	H 	0.01857 0.63433 0.61763 0.21700
C 	C 	0.25537 0.80493 0.58794 -0.64500
H 	H 	0.27927 0.78883 0.58153 0.22100
H 	H 	0.26517 0.84283 0.58073 0.22400
H 	H 	0.26437 0.81213 0.60343 0.22300
C 	C 	0.06907 0.71103 0.54035 -0.60700
H 	H 	0.07337 0.68273 0.53093 0.20700
H 	H 	0.02637 0.69683 0.54273 0.20400
H 	H 	0.08797 0.75053 0.53343 0.21300
C 	C 	0.00017 0.63263 0.57622 0.07100
H 	H 	0.98627 0.59833 0.58633 0.01400
H 	H 	0.99127 0.61713 0.56113 0.01300
C 	C 	0.91067 0.63613 0.57909 0.18700
C 	C 	0.88227 0.66953 0.58429 -0.16000
H 	H 	0.90577 0.71083 0.58803 0.08400
C 	C 	0.82067 0.64213 0.58395 0.03500
H 	H 	0.80187 0.66443 0.58783 0.01300
C 	C 	0.78557 0.58243 0.57798 -0.06700
H 	H 	0.74307 0.56393 0.57813 0.05900
C 	C 	0.81307 0.54964 0.57179 -0.03800
C 	C 	0.87598 0.57718 0.57242 -0.12700
H 	H 	0.89487 0.55503 0.56823 0.08200
C 	C 	0.19397 0.80193 0.54698 0.12600
H 	H 	0.22897 0.83853 0.55283 -0.00300
H 	H 	0.16737 0.81363 0.53943 0.00100
C 	C 	0.24117 0.80303 0.51369 0.22100
C 	C 	0.25127 0.85923 0.50862 -0.21100
H 	H 	0.23737 0.87893 0.51803 0.10800
C 	C 	0.28167 0.88693 0.48982 0.07800
H 	H 	0.28657 0.92483 0.48593 -0.00600
C 	C 	0.30497 0.86023 0.47662 -0.10900
H 	H 	0.32747 0.88053 0.46403 0.07900
C 	C 	0.29537 0.80413 0.48175 0.01500
C 	C 	0.26237 0.77393 0.49986 -0.16100
H 	H 	0.25397 0.73433 0.50293 0.10200
C 	C 	0.32377 0.77613 0.46845 0.28500
C 	C 	0.39807 0.62021 0.62217 0.29000
C 	C 	0.43887 0.59933 0.63095 -0.01400
C 	C 	0.43091 0.58117 0.65277 -0.15600
H 	H 	0.40087 0.58203 0.66143 0.08600
C 	C 	0.46877 0.56163 0.66144 0.19800
C 	C 	0.51097 0.55753 0.64850 -0.17900
H 	H 	0.53507 0.54253 0.65433 0.09800
C 	C 	0.51737 0.57613 0.62679 0.03500
H 	H 	0.54647 0.57393 0.61793 0.02000
C 	C 	0.48197 0.59773 0.61791 -0.08900
H 	H 	0.48727 0.61093 0.60323 0.06400
C 	C 	0.41707 0.54193 0.69553 0.11100
H 	H 	0.42517 0.58343 0.69753 -0.00400
H 	H 	0.37747 0.51803 0.68843 0.00100
C 	C 	0.41795 0.51469 0.71697 -0.20900
C 	C 	0.46007 0.55235 0.73326 0.25900
C 	C 	0.46177 0.52693 0.75332 -0.21200
C 	C 	0.42067 0.46613 0.75787 0.26300
C 	C 	0.37937 0.43003 0.74199 -0.22200
C 	C 	0.38002 0.45323 0.72130 0.26200
C 	C 	0.34077 0.41313 0.70301 -0.62700
H 	H 	0.30057 0.40823 0.70423 0.21300
H 	H 	0.35847 0.43163 0.68903 0.21500
H 	H 	0.33787 0.37383 0.70403 0.21800
C 	C 	0.50107 0.61783 0.72810 -0.64000
H 	H 	0.54097 0.63103 0.73413 0.22000
H 	H 	0.50417 0.62343 0.71233 0.22200
H 	H 	0.48477 0.64163 0.73443 0.21800
C 	C 	0.41807 0.44113 0.78038 -0.62800
H 	H 	0.41077 0.40003 0.77923 0.21200
H 	H 	0.45627 0.46623 0.78783 0.22200
H 	H 	0.38547 0.44103 0.78863 0.20900
C 	C 	0.50877 0.56473 0.76987 0.11500
H 	H 	0.54367 0.59863 0.76263 0.00100
H 	H 	0.52267 0.54043 0.77773 0.00500
C 	C 	0.51417 0.61563 0.80303 0.21300
C 	C 	0.48457 0.63033 0.81838 -0.16900
H 	H 	0.44477 0.62213 0.81583 0.10800
C 	C 	0.51487 0.65793 0.83799 0.02200
C 	C 	0.57187 0.67223 0.84111 -0.11800
H 	H 	0.59247 0.69383 0.85373 0.08300
C 	C 	0.60037 0.65623 0.82657 0.07200
H 	H 	0.63867 0.66133 0.83003 -0.00300
C 	C 	0.57417 0.63193 0.80623 -0.19800
H 	H 	0.59667 0.62693 0.79503 0.10200
C 	C 	0.48187 0.67213 0.85474 0.27900
C 	C 	0.33557 0.36523 0.74671 0.12400
H 	H 	0.29807 0.35163 0.73833 -0.00700
H 	H 	0.32567 0.35933 0.76233 -0.01000
C 	C 	0.33007 0.27023 0.74103 0.20900
C 	C 	0.27564 0.23913 0.75189 -0.15600
H 	H 	0.25987 0.25993 0.75973 0.09300
C 	C 	0.24437 0.17593 0.75106 -0.00100
C 	C 	0.26837 0.14633 0.73975 -0.09500
H 	H 	0.24667 0.10373 0.73883 0.06600
C 	C 	0.32297 0.17773 0.72990 0.06200
H 	H 	0.33987 0.15683 0.72283 0.00600
C 	C 	0.35387 0.23993 0.73016 -0.18900
H 	H 	0.39127 0.26173 0.72283 0.10000
C 	C 	0.18447 0.14233 0.76187 0.28700
C 	C 	0.77677 0.48513 0.56564 0.35600
O 	O 	0.33717 0.65363 0.75213 -0.14500
C 	C 	0.29177 0.61243 0.76083 0.12300
H 	H 	0.25977 0.61883 0.76493 -0.00100
N 	N 	0.28687 0.55333 0.76475 -0.05600
C 	C 	0.34067 0.54763 0.76433 -0.30200
H 	H 	0.37087 0.57733 0.77423 0.12700
H 	H 	0.33037 0.50723 0.76913 0.12000
H 	H 	0.35687 0.55453 0.74963 0.12100
C 	C 	0.22797 0.50143 0.76883 -0.30100
H 	H 	0.23207 0.47373 0.77873 0.11800
H 	H 	0.20187 0.51453 0.77553 0.12500
H 	H 	0.21027 0.48093 0.75513 0.11400
Cd	Cd	0.73736 0.42259 0.11022 1.22800
Cd	Cd	0.76518 0.39908 0.05494 1.23200
O 	O 	0.93858 0.01002 0.01884 -0.48000
O 	O 	0.96208 0.06264 0.04878 -0.40700
O 	O 	0.96803 0.05200 0.80267 -0.43600
O 	O 	0.03552 0.14370 0.79069 -0.41800
O 	O 	0.46748 0.79834 0.88636 -0.41900
O 	O 	0.39162 0.78726 0.90670 -0.53400
O 	O 	0.02037 0.94615 0.96693 -0.47500
O 	O 	0.07424 0.97646 0.93649 -0.41000
O 	O 	0.83722 0.50049 0.10948 -0.36800
O 	O 	0.81396 0.42190 0.08870 -0.47800
O 	O 	0.17273 0.02367 0.20605 -0.37700
O 	O 	0.09843 0.00027 0.18418 -0.34300
O 	O 	0.84397 0.09722 0.96989 -0.25700
O 	O 	0.63800 0.99950 0.91426 -0.27000
O 	O 	0.87985 0.10552 0.86566 -0.25600
O 	O 	0.13035 0.87493 0.01570 -0.26200
O 	O 	0.14768 0.92027 0.11813 -0.26600
O 	O 	0.03137 0.66525 0.07356 -0.27400
C 	C 	0.93969 0.05141 0.03030 0.31600
C 	C 	0.91094 0.08436 0.02127 -0.02700
C 	C 	0.90093 0.12337 0.03412 -0.08000
H 	H 	0.91443 0.13097 0.04877 0.05600
C 	C 	0.87083 0.15127 0.02524 0.03400
H 	H 	0.86313 0.17707 0.03407 0.01800
C 	C 	0.85263 0.14197 0.00425 -0.17300
H 	H 	0.83173 0.16057 0.99847 0.09500
C 	C 	0.86473 0.10437 0.99098 0.19100
C 	C 	0.89233 0.07530 0.99980 -0.15000
H 	H 	0.89863 0.04857 0.99107 0.08200
C 	C 	0.85343 0.05637 0.95611 0.11000
H 	H 	0.89683 0.07167 0.95397 -0.00400
H 	H 	0.83523 0.01607 0.96277 -0.00200
C 	C 	0.82339 0.05384 0.93454 -0.22700
C 	C 	0.85583 0.09357 0.91826 0.28300
C 	C 	0.82703 0.09178 0.89862 -0.21900
C 	C 	0.76633 0.04897 0.89565 0.26800
C 	C 	0.73443 0.00955 0.91244 -0.23300
C 	C 	0.76113 0.01196 0.93258 0.27700
C 	C 	0.72543 0.97247 0.95109 -0.65000
H 	H 	0.72233 0.93307 0.94957 0.22100
H 	H 	0.74543 0.99077 0.96477 0.22800
H 	H 	0.68523 0.96767 0.95097 0.22300
C 	C 	0.92203 0.13827 0.92128 -0.65600
H 	H 	0.94593 0.12217 0.91487 0.22700
H 	H 	0.93183 0.17617 0.91407 0.23000
H 	H 	0.93103 0.14547 0.93677 0.22900
C 	C 	0.73573 0.04437 0.87369 -0.61800
H 	H 	0.74003 0.01607 0.86427 0.20900
H 	H 	0.69303 0.03017 0.87607 0.20800
H 	H 	0.75463 0.08387 0.86677 0.21600
C 	C 	0.66683 0.96597 0.90956 0.14100
H 	H 	0.65293 0.93167 0.91967 -0.01200
H 	H 	0.65793 0.95047 0.89447 -0.01100
C 	C 	0.57733 0.96947 0.91243 0.22400
C 	C 	0.54893 0.00287 0.91763 -0.21300
H 	H 	0.57243 0.04417 0.92137 0.09800
C 	C 	0.48733 0.97547 0.91729 0.08000
H 	H 	0.46853 0.99777 0.92117 0.00300
C 	C 	0.45223 0.91577 0.91132 -0.09300
H 	H 	0.40973 0.89727 0.91147 0.06800
C 	C 	0.47973 0.88298 0.90513 -0.01900
C 	C 	0.54264 0.91052 0.90576 -0.15100
H 	H 	0.56153 0.88837 0.90157 0.09000
C 	C 	0.86063 0.13527 0.88032 0.12900
H 	H 	0.89563 0.17187 0.88617 -0.00300
H 	H 	0.83403 0.14697 0.87277 -0.00000
C 	C 	0.90783 0.13637 0.84703 0.22000
C 	C 	0.91793 0.19257 0.84196 -0.20900
H 	H 	0.90403 0.21227 0.85137 0.10800
C 	C 	0.94833 0.22027 0.82316 0.07600
H 	H 	0.95323 0.25817 0.81927 -0.00600
C 	C 	0.97163 0.19357 0.80996 -0.10600
H 	H 	0.99413 0.21387 0.79737 0.08000
C 	C 	0.96203 0.13747 0.81509 0.01100
C 	C 	0.92903 0.10727 0.83320 -0.15800
H 	H 	0.92063 0.06767 0.83627 0.10000
C 	C 	0.99043 0.10947 0.80179 0.30000
C 	C 	0.06473 0.95355 0.95551 0.29000
C 	C 	0.10553 0.93267 0.96429 -0.01300
C 	C 	0.09757 0.91451 0.98611 -0.15600
H 	H 	0.06753 0.91537 0.99477 0.08500
C 	C 	0.13543 0.89497 0.99478 0.19900
C 	C 	0.17763 0.89087 0.98184 -0.17900
H 	H 	0.20173 0.87587 0.98767 0.09900
C 	C 	0.18403 0.90947 0.96013 0.03600
H 	H 	0.21313 0.90727 0.95127 0.02000
C 	C 	0.14863 0.93107 0.95125 -0.08900
H 	H 	0.15393 0.94427 0.93657 0.06600
C 	C 	0.08373 0.87527 0.02887 0.11400
H 	H 	0.09183 0.91677 0.03087 -0.00400
H 	H 	0.04413 0.85137 0.02177 -0.00200
C 	C 	0.08461 0.84803 0.05031 -0.21300
C 	C 	0.12673 0.88569 0.06660 0.26200
C 	C 	0.12843 0.86027 0.08666 -0.21300
C 	C 	0.08733 0.79947 0.09121 0.25800
C 	C 	0.04603 0.76337 0.07533 -0.21700
C 	C 	0.04668 0.78657 0.05464 0.26500
C 	C 	0.00743 0.74647 0.03635 -0.65600
H 	H 	0.96723 0.74157 0.03757 0.22600
H 	H 	0.02513 0.76497 0.02237 0.22100
H 	H 	0.00453 0.70717 0.03737 0.22300
C 	C 	0.16773 0.95117 0.06144 -0.65000
H 	H 	0.20763 0.96437 0.06747 0.22500
H 	H 	0.17083 0.95677 0.04567 0.22700
H 	H 	0.15143 0.97497 0.06777 0.22400
C 	C 	0.08473 0.77447 0.11372 -0.62200
H 	H 	0.07743 0.73337 0.11257 0.20900
H 	H 	0.12293 0.79957 0.12117 0.22000
H 	H 	0.05213 0.77437 0.12197 0.20500
C 	C 	0.17543 0.89807 0.10321 0.11700
H 	H 	0.21033 0.93197 0.09597 0.00200
H 	H 	0.18933 0.87377 0.11107 0.00400
C 	C 	0.18083 0.94897 0.13637 0.24100
C 	C 	0.15123 0.96367 0.15172 -0.20300
H 	H 	0.11143 0.95547 0.14917 0.12000
C 	C 	0.18153 0.99127 0.17133 0.08100
C 	C 	0.23853 0.00557 0.17445 -0.19600
H 	H 	0.25913 0.02717 0.18707 0.10600
C 	C 	0.26703 0.98957 0.15991 0.13500
H 	H 	0.30533 0.99467 0.16337 -0.02000
C 	C 	0.24083 0.96527 0.13957 -0.23400
H 	H 	0.26333 0.96027 0.12837 0.11500
C 	C 	0.14853 0.00547 0.18808 0.25000
C 	C 	0.00223 0.69857 0.08005 0.09200
H 	H 	0.96473 0.68497 0.07167 0.00700
H 	H 	0.99233 0.69267 0.09567 0.00500
C 	C 	0.99673 0.60357 0.07437 0.25900
C 	C 	0.94230 0.57247 0.08523 -0.19000
H 	H 	0.92653 0.59327 0.09307 0.10500
C 	C 	0.91103 0.50927 0.08440 0.03100
C 	C 	0.93503 0.47967 0.07309 -0.14500
H 	H 	0.91333 0.43707 0.07217 0.08300
C 	C 	0.98963 0.51107 0.06324 0.14200
H 	H 	0.00653 0.49017 0.05617 -0.02800
C 	C 	0.02053 0.57327 0.06350 -0.26300
H 	H 	0.05793 0.59507 0.05617 0.12300
C 	C 	0.85113 0.47567 0.09521 0.27600
C 	C 	0.44343 0.81847 0.89898 0.34900
O 	O 	0.00383 0.98697 0.08547 -0.05400
C 	C 	0.95843 0.94577 0.09417 -0.00500
H 	H 	0.92643 0.95217 0.09827 0.03100
N 	N 	0.95353 0.88667 0.09809 -0.02400
C 	C 	0.00733 0.88097 0.09767 -0.35600
H 	H 	0.03753 0.91067 0.10757 0.14600
H 	H 	0.99703 0.84057 0.10247 0.14200
H 	H 	0.02353 0.88787 0.08297 0.13500
C 	C 	0.89463 0.83477 0.10217 -0.32000
H 	H 	0.89873 0.80707 0.11207 0.12500
H 	H 	0.86853 0.84787 0.10887 0.13200
H 	H 	0.87693 0.81427 0.08847 0.12000
Cd	Cd	0.35190 0.59597 0.44355 1.22800
Cd	Cd	0.30057 0.56816 0.38828 1.23200
O 	O 	0.73810 0.39475 0.35217 -0.47800
O 	O 	0.76722 0.37125 0.38211 -0.41000
O 	O 	0.75063 0.36530 0.13600 -0.43300
O 	O 	0.77484 0.29781 0.12402 -0.40600
O 	O 	0.99752 0.86585 0.21969 -0.40800
O 	O 	0.06230 0.94171 0.24003 -0.52700
O 	O 	0.59244 0.31296 0.30026 -0.47500
O 	O 	0.56888 0.25909 0.26982 -0.41400
O 	O 	0.32993 0.49611 0.44281 -0.37100
O 	O 	0.27460 0.51937 0.42203 -0.48100
O 	O 	0.51760 0.16060 0.53938 -0.38100
O 	O 	0.56850 0.23490 0.51751 -0.34400
O 	O 	0.91991 0.48936 0.30322 -0.25400
O 	O 	0.02816 0.69533 0.24759 -0.27700
O 	O 	0.89233 0.45348 0.19899 -0.25500
O 	O 	0.41124 0.20298 0.34903 -0.26200
O 	O 	0.43925 0.18565 0.45146 -0.26000
O 	O 	0.30054 0.30196 0.40689 -0.26300
C 	C 	0.77838 0.39364 0.36363 0.31600
C 	C 	0.84008 0.42239 0.35460 -0.02700
C 	C 	0.88910 0.43240 0.36745 -0.08000
H 	H 	0.88320 0.41890 0.38210 0.05600
C 	C 	0.94710 0.46250 0.35857 0.03300
H 	H 	0.98060 0.47020 0.36740 0.02000
C 	C 	0.95600 0.48070 0.33758 -0.17300
H 	H 	0.99550 0.50160 0.33180 0.09900
C 	C 	0.90630 0.46860 0.32431 0.19100
C 	C 	0.84963 0.44100 0.33313 -0.15100
H 	H 	0.81660 0.43470 0.32440 0.08300
C 	C 	0.86960 0.47990 0.28944 0.11000
H 	H 	0.84150 0.43650 0.28730 -0.00400
H 	H 	0.84750 0.49810 0.29610 0.00100
C 	C 	0.89711 0.50994 0.26787 -0.22600
C 	C 	0.90440 0.47750 0.25159 0.28100
C 	C 	0.93141 0.50630 0.23195 -0.21300
C 	C 	0.94930 0.56700 0.22898 0.26100
C 	C 	0.94178 0.59890 0.24577 -0.22300
C 	C 	0.91749 0.57220 0.26591 0.28800
C 	C 	0.91370 0.60790 0.28442 -0.66800
H 	H 	0.87740 0.61100 0.28290 0.22400
H 	H 	0.91200 0.58790 0.29810 0.23000
H 	H 	0.94910 0.64810 0.28430 0.22800
C 	C 	0.88290 0.41130 0.25461 -0.64900
H 	H 	0.84290 0.38740 0.24820 0.22200
H 	H 	0.91100 0.40150 0.24740 0.22700
H 	H 	0.88110 0.40230 0.27010 0.22500
C 	C 	0.97530 0.59760 0.20702 -0.58800
H 	H 	0.94270 0.59330 0.19760 0.20400
H 	H 	0.00380 0.64030 0.20940 0.19500
H 	H 	0.99590 0.57870 0.20010 0.21100
C 	C 	0.96580 0.66650 0.24289 0.14000
H 	H 	0.94540 0.68040 0.25300 -0.01200
H 	H 	0.95920 0.67540 0.22780 -0.01100
C 	C 	0.05880 0.75600 0.24576 0.20800
C 	C 	0.12060 0.78440 0.25096 -0.17700
H 	H 	0.13840 0.76090 0.25470 0.08800
C 	C 	0.15480 0.84600 0.25062 0.05100
H 	H 	0.19590 0.86480 0.25450 0.00800
C 	C 	0.13020 0.88110 0.24465 -0.08200
H 	H 	0.15420 0.92360 0.24480 0.06600
C 	C 	0.06991 0.85360 0.23846 -0.01900
C 	C 	0.03454 0.79069 0.23909 -0.16100
H 	H 	0.99350 0.77180 0.23490 0.09900
C 	C 	0.94130 0.47270 0.21365 0.12500
H 	H 	0.94290 0.43770 0.21950 -0.00100
H 	H 	0.97960 0.49930 0.20610 0.00400
C 	C 	0.89520 0.42550 0.18036 0.22200
C 	C 	0.94130 0.41540 0.17529 -0.21100
H 	H 	0.97490 0.42930 0.18470 0.11100
C 	C 	0.93860 0.38500 0.15649 0.07900
H 	H 	0.97160 0.38010 0.15260 -0.00500
C 	C 	0.88860 0.36170 0.14329 -0.10900
H 	H 	0.88640 0.33920 0.13070 0.07900
C 	C 	0.84210 0.37130 0.14842 0.01600
C 	C 	0.84490 0.40430 0.16653 -0.16100
H 	H 	0.81370 0.41270 0.16960 0.10200
C 	C 	0.78570 0.34290 0.13512 0.28500
C 	C 	0.55548 0.26860 0.28884 0.29000
C 	C 	0.49380 0.22780 0.29762 -0.01400
C 	C 	0.48360 0.23576 0.31944 -0.15600
H 	H 	0.51450 0.26580 0.32810 0.08600
C 	C 	0.42620 0.19790 0.32811 0.19800
C 	C 	0.37990 0.15570 0.31517 -0.17900
H 	H 	0.34080 0.13160 0.32100 0.09800
C 	C 	0.39210 0.14930 0.29346 0.03500
H 	H 	0.36080 0.12020 0.28460 0.01900
C 	C 	0.44910 0.18470 0.28458 -0.08900
H 	H 	0.45700 0.17940 0.26990 0.06400
C 	C 	0.45820 0.24960 0.36220 0.11100
H 	H 	0.49160 0.24150 0.36420 -0.00400
H 	H 	0.47390 0.28920 0.35510 0.00100
C 	C 	0.43008 0.24872 0.38364 -0.20900
C 	C 	0.42562 0.20660 0.39993 0.25900
C 	C 	0.39850 0.20490 0.41999 -0.21200
C 	C 	0.37880 0.24600 0.42454 0.26300
C 	C 	0.38400 0.28730 0.40866 -0.22200
C 	C 	0.40655 0.28665 0.38797 0.26200
C 	C 	0.40570 0.32590 0.36968 -0.62700
H 	H 	0.44100 0.36610 0.37090 0.21300
H 	H 	0.40650 0.30820 0.35570 0.21400
H 	H 	0.36930 0.32880 0.37070 0.21800
C 	C 	0.45010 0.16560 0.39477 -0.63900
H 	H 	0.42340 0.12570 0.40080 0.21900
H 	H 	0.45260 0.16250 0.37900 0.22100
H 	H 	0.49020 0.18190 0.40110 0.21700
C 	C 	0.35640 0.24860 0.44705 -0.62800
H 	H 	0.32260 0.25590 0.44590 0.21200
H 	H 	0.34330 0.21040 0.45450 0.22300
H 	H 	0.38890 0.28120 0.45530 0.20900
C 	C 	0.38930 0.15790 0.43654 0.11500
H 	H 	0.38830 0.12300 0.42930 0.00000
H 	H 	0.35110 0.14400 0.44440 0.00500
C 	C 	0.43480 0.15250 0.46970 0.21300
C 	C 	0.47910 0.18210 0.48505 -0.16900
H 	H 	0.51070 0.22190 0.48250 0.10800
C 	C 	0.47640 0.15180 0.50466 0.02200
C 	C 	0.43370 0.09480 0.50778 -0.11800
H 	H 	0.43470 0.07420 0.52040 0.08100
C 	C 	0.38920 0.06630 0.49324 0.07200
H 	H 	0.35600 0.02800 0.49670 -0.00600
C 	C 	0.39110 0.09250 0.47290 -0.19900
H 	H 	0.36360 0.07000 0.46170 0.10000
C 	C 	0.52360 0.18480 0.52141 0.27900
C 	C 	0.36300 0.33110 0.41338 0.12400
H 	H 	0.38690 0.36860 0.40500 -0.00700
H 	H 	0.36700 0.34100 0.42900 -0.01000
C 	C 	0.27350 0.33660 0.40770 0.20900
C 	C 	0.29683 0.39103 0.41856 -0.15700
H 	H 	0.33340 0.40680 0.42640 0.09400
C 	C 	0.26490 0.42230 0.41773 -0.00000
C 	C 	0.21130 0.39830 0.40642 -0.09600
H 	H 	0.19040 0.42000 0.40550 0.06600
C 	C 	0.18810 0.34370 0.39657 0.06200
H 	H 	0.15030 0.32680 0.38950 0.00500
C 	C 	0.21940 0.31280 0.39683 -0.19000
H 	H 	0.20380 0.27540 0.38950 0.10000
C 	C 	0.29120 0.48220 0.42854 0.28600
C 	C 	0.04170 0.88990 0.23231 0.33800
O 	O 	0.64980 0.32950 0.41880 -0.14600
C 	C 	0.65400 0.37490 0.42750 0.12300
H 	H 	0.69240 0.40690 0.43160 -0.00100
N 	N 	0.59980 0.37980 0.43142 -0.05600
C 	C 	0.54030 0.32600 0.43100 -0.30200
H 	H 	0.53980 0.29580 0.44090 0.12700
H 	H 	0.51020 0.33630 0.43580 0.12000
H 	H 	0.53100 0.30980 0.41630 0.12100
C 	C 	0.60680 0.43870 0.43550 -0.30200
H 	H 	0.57500 0.43460 0.44540 0.11800
H 	H 	0.64600 0.46480 0.44220 0.12500
H 	H 	0.60400 0.45640 0.42180 0.11400
Cd	Cd	0.01856 0.92930 0.77689 1.22700
Cd	Cd	0.96724 0.90149 0.72161 1.23500
O 	O 	0.40477 0.72808 0.68550 -0.47800
O 	O 	0.43389 0.70458 0.71544 -0.41000
O 	O 	0.41730 0.69863 0.46933 -0.43300
O 	O 	0.44151 0.63114 0.45735 -0.40600
O 	O 	0.66419 0.19918 0.55302 -0.42000
O 	O 	0.72897 0.27504 0.57336 -0.53500
O 	O 	0.25911 0.64629 0.63359 -0.47500
O 	O 	0.23555 0.59242 0.60315 -0.41400
O 	O 	0.99660 0.82944 0.77614 -0.36700
O 	O 	0.94127 0.85270 0.75536 -0.47800
O 	O 	0.18427 0.49393 0.87271 -0.38100
O 	O 	0.23517 0.56823 0.85084 -0.34400
O 	O 	0.58658 0.82269 0.63655 -0.25700
O 	O 	0.69483 0.02866 0.58092 -0.28700
O 	O 	0.55900 0.78681 0.53232 -0.25700
O 	O 	0.07791 0.53631 0.68236 -0.26500
O 	O 	0.10592 0.51898 0.78479 -0.26100
O 	O 	0.96721 0.63529 0.74022 -0.25300
C 	C 	0.44505 0.72697 0.69696 0.31500
C 	C 	0.50675 0.75572 0.68793 -0.02700
C 	C 	0.55577 0.76573 0.70078 -0.08100
H 	H 	0.54987 0.75223 0.71543 0.05500
C 	C 	0.61377 0.79583 0.69190 0.03300
H 	H 	0.64727 0.80353 0.70073 0.01800
C 	C 	0.62267 0.81403 0.67091 -0.17300
H 	H 	0.66217 0.83493 0.66513 0.09600
C 	C 	0.57297 0.80193 0.65764 0.19100
C 	C 	0.51630 0.77433 0.66646 -0.15100
H 	H 	0.48327 0.76803 0.65773 0.08300
C 	C 	0.53627 0.81323 0.62277 0.11400
H 	H 	0.50817 0.76983 0.62063 -0.00500
H 	H 	0.51417 0.83143 0.62943 0.00000
C 	C 	0.56378 0.84327 0.60120 -0.23500
C 	C 	0.57107 0.81083 0.58492 0.28800
C 	C 	0.59808 0.83963 0.56528 -0.22500
C 	C 	0.61597 0.90033 0.56231 0.28100
C 	C 	0.60845 0.93223 0.57910 -0.24600
C 	C 	0.58416 0.90553 0.59924 0.30000
C 	C 	0.58037 0.94123 0.61775 -0.68200
H 	H 	0.54407 0.94433 0.61623 0.23100
H 	H 	0.57867 0.92123 0.63143 0.23400
H 	H 	0.61577 0.98143 0.61763 0.23400
C 	C 	0.54957 0.74463 0.58794 -0.65500
H 	H 	0.50957 0.72073 0.58153 0.22400
H 	H 	0.57767 0.73483 0.58073 0.22700
H 	H 	0.54777 0.73563 0.60343 0.22600
C 	C 	0.64197 0.93093 0.54035 -0.63500
H 	H 	0.60937 0.92663 0.53093 0.21800
H 	H 	0.67047 0.97363 0.54273 0.21900
H 	H 	0.66257 0.91203 0.53343 0.22200
C 	C 	0.63247 0.99983 0.57622 0.19000
H 	H 	0.61207 0.01373 0.58633 -0.03400
H 	H 	0.62587 0.00873 0.56113 -0.03500
C 	C 	0.72547 0.08933 0.57909 0.20200
C 	C 	0.78727 0.11773 0.58429 -0.17100
H 	H 	0.80507 0.09423 0.58803 0.08500
C 	C 	0.82147 0.17933 0.58395 0.04300
H 	H 	0.86257 0.19813 0.58783 0.01000
C 	C 	0.79687 0.21443 0.57798 -0.07300
H 	H 	0.82087 0.25693 0.57813 0.06100
C 	C 	0.73658 0.18693 0.57179 -0.03200
C 	C 	0.70121 0.12402 0.57242 -0.13900
H 	H 	0.66017 0.10513 0.56823 0.08600
C 	C 	0.60797 0.80603 0.54698 0.13300
H 	H 	0.60957 0.77103 0.55283 -0.00500
H 	H 	0.64627 0.83263 0.53943 -0.00100
C 	C 	0.56187 0.75883 0.51369 0.22200
C 	C 	0.60797 0.74873 0.50862 -0.21300
H 	H 	0.64157 0.76263 0.51803 0.10800
C 	C 	0.60527 0.71833 0.48982 0.07800
H 	H 	0.63827 0.71343 0.48593 -0.00800
C 	C 	0.55527 0.69503 0.47662 -0.11100
H 	H 	0.55307 0.67253 0.46403 0.07800
C 	C 	0.50877 0.70463 0.48175 0.01600
C 	C 	0.51157 0.73763 0.49986 -0.16200
H 	H 	0.48037 0.74603 0.50293 0.10300
C 	C 	0.45237 0.67623 0.46845 0.28500
C 	C 	0.22215 0.60193 0.62217 0.29000
C 	C 	0.16047 0.56113 0.63095 -0.01300
C 	C 	0.15027 0.56909 0.65277 -0.15700
H 	H 	0.18117 0.59913 0.66143 0.08600
C 	C 	0.09287 0.53123 0.66144 0.19800
C 	C 	0.04657 0.48903 0.64850 -0.18000
H 	H 	0.00747 0.46493 0.65433 0.09500
C 	C 	0.05877 0.48263 0.62679 0.03500
H 	H 	0.02747 0.45353 0.61793 0.01600
C 	C 	0.11577 0.51803 0.61791 -0.09000
H 	H 	0.12367 0.51273 0.60323 0.06400
C 	C 	0.12487 0.58293 0.69553 0.11200
H 	H 	0.15827 0.57483 0.69753 -0.00400
H 	H 	0.14057 0.62253 0.68843 0.00100
C 	C 	0.09675 0.58205 0.71697 -0.21000
C 	C 	0.09229 0.53993 0.73326 0.26000
C 	C 	0.06517 0.53823 0.75332 -0.21800
C 	C 	0.04547 0.57933 0.75787 0.27000
C 	C 	0.05067 0.62063 0.74199 -0.22500
C 	C 	0.07322 0.61998 0.72130 0.26000
C 	C 	0.07237 0.65923 0.70301 -0.62400
H 	H 	0.10767 0.69943 0.70423 0.21200
H 	H 	0.07317 0.64153 0.68903 0.21200
H 	H 	0.03597 0.66213 0.70403 0.21400
C 	C 	0.11677 0.49893 0.72810 -0.64100
H 	H 	0.09007 0.45903 0.73413 0.21900
H 	H 	0.11927 0.49583 0.71233 0.22100
H 	H 	0.15687 0.51523 0.73443 0.21800
C 	C 	0.02307 0.58193 0.78038 -0.66100
H 	H 	0.98927 0.58923 0.77923 0.22800
H 	H 	0.00997 0.54373 0.78783 0.22900
H 	H 	0.05557 0.61453 0.78863 0.21700
C 	C 	0.05597 0.49123 0.76987 0.11900
H 	H 	0.05497 0.45633 0.76263 -0.00200
H 	H 	0.01777 0.47733 0.77773 0.00000
C 	C 	0.10147 0.48583 0.80303 0.21300
C 	C 	0.14577 0.51543 0.81838 -0.17000
H 	H 	0.17737 0.55523 0.81583 0.10700
C 	C 	0.14307 0.48513 0.83799 0.02200
C 	C 	0.10037 0.42813 0.84111 -0.11900
H 	H 	0.10137 0.40753 0.85373 0.08200
C 	C 	0.05587 0.39963 0.82657 0.07200
H 	H 	0.02267 0.36133 0.83003 -0.00700
C 	C 	0.05777 0.42583 0.80623 -0.19900
H 	H 	0.03027 0.40333 0.79503 0.09900
C 	C 	0.19027 0.51813 0.85474 0.27800
C 	C 	0.02967 0.66443 0.74671 0.11400
H 	H 	0.05357 0.70193 0.73833 -0.00500
H 	H 	0.03367 0.67433 0.76233 -0.01000
C 	C 	0.94017 0.66993 0.74103 0.19800
C 	C 	0.96350 0.72436 0.75189 -0.13100
H 	H 	0.00007 0.74013 0.75973 0.07900
C 	C 	0.93157 0.75563 0.75106 -0.01000
C 	C 	0.87797 0.73163 0.73975 -0.08600
H 	H 	0.85707 0.75333 0.73883 0.06300
C 	C 	0.85477 0.67703 0.72990 0.05400
H 	H 	0.81697 0.66013 0.72283 0.01000
C 	C 	0.88607 0.64613 0.73016 -0.17900
H 	H 	0.87047 0.60873 0.72283 0.09800
C 	C 	0.95787 0.81553 0.76187 0.29000
C 	C 	0.70837 0.22323 0.56564 0.35400
O 	O 	0.31647 0.66283 0.75213 -0.14500
C 	C 	0.32067 0.70823 0.76083 0.12300
H 	H 	0.35907 0.74023 0.76493 -0.00100
N 	N 	0.26647 0.71313 0.76475 -0.05600
C 	C 	0.20697 0.65933 0.76433 -0.30200
H 	H 	0.20647 0.62913 0.77423 0.12700
H 	H 	0.17687 0.66963 0.76913 0.12000
H 	H 	0.19767 0.64313 0.74963 0.12100
C 	C 	0.27347 0.77203 0.76883 -0.30200
H 	H 	0.24167 0.76793 0.77873 0.11800
H 	H 	0.31267 0.79813 0.77553 0.12500
H 	H 	0.27067 0.78973 0.75513 0.11400
Cd	Cd	0.68523 0.26264 0.11022 1.22800
Cd	Cd	0.63391 0.23482 0.05494 1.23200
O 	O 	0.07143 0.06142 0.01884 -0.48200
O 	O 	0.10055 0.03792 0.04878 -0.41300
O 	O 	0.08396 0.03197 0.80267 -0.43500
O 	O 	0.10817 0.96448 0.79069 -0.39500
O 	O 	0.33085 0.53252 0.88636 -0.42100
O 	O 	0.39563 0.60838 0.90670 -0.53600
O 	O 	0.92577 0.97963 0.96693 -0.46400
O 	O 	0.90221 0.92576 0.93649 -0.40800
O 	O 	0.66326 0.16278 0.10948 -0.37500
O 	O 	0.60793 0.18604 0.08870 -0.48300
O 	O 	0.85093 0.82727 0.20605 -0.38000
O 	O 	0.90183 0.90157 0.18418 -0.33800
O 	O 	0.25324 0.15603 0.96989 -0.25700
O 	O 	0.36149 0.36200 0.91426 -0.26600
O 	O 	0.22566 0.12015 0.86566 -0.25800
O 	O 	0.74457 0.86965 0.01570 -0.26200
O 	O 	0.77258 0.85232 0.11813 -0.25900
O 	O 	0.63387 0.96863 0.07356 -0.25200
C 	C 	0.11171 0.06031 0.03030 0.31500
C 	C 	0.17341 0.08906 0.02127 -0.02900
C 	C 	0.22243 0.09907 0.03412 -0.08100
H 	H 	0.21653 0.08557 0.04877 0.05400
C 	C 	0.28043 0.12917 0.02524 0.03100
H 	H 	0.31393 0.13687 0.03407 0.01700
C 	C 	0.28933 0.14737 0.00425 -0.17300
H 	H 	0.32883 0.16827 0.99847 0.09500
C 	C 	0.23963 0.13527 0.99098 0.19000
C 	C 	0.18296 0.10767 0.99980 -0.15100
H 	H 	0.14993 0.10137 0.99107 0.08200
C 	C 	0.20293 0.14657 0.95611 0.11100
H 	H 	0.17483 0.10317 0.95397 -0.00600
H 	H 	0.18083 0.16477 0.96277 0.00100
C 	C 	0.23044 0.17661 0.93454 -0.22700
C 	C 	0.23773 0.14417 0.91826 0.27800
C 	C 	0.26474 0.17297 0.89862 -0.21700
C 	C 	0.28263 0.23367 0.89565 0.26700
C 	C 	0.27511 0.26557 0.91244 -0.22600
C 	C 	0.25082 0.23887 0.93258 0.28600
C 	C 	0.24703 0.27457 0.95109 -0.66500
H 	H 	0.21073 0.27767 0.94957 0.22300
H 	H 	0.24533 0.25457 0.96477 0.22800
H 	H 	0.28243 0.31477 0.95097 0.22500
C 	C 	0.21623 0.07797 0.92128 -0.64100
H 	H 	0.17623 0.05407 0.91487 0.21600
H 	H 	0.24433 0.06817 0.91407 0.22100
H 	H 	0.21443 0.06897 0.93677 0.22000
C 	C 	0.30863 0.26427 0.87369 -0.62000
H 	H 	0.27603 0.25997 0.86427 0.21100
H 	H 	0.33713 0.30697 0.87607 0.21100
H 	H 	0.32923 0.24537 0.86677 0.21700
C 	C 	0.29913 0.33317 0.90956 0.12800
H 	H 	0.27873 0.34707 0.91967 -0.00900
H 	H 	0.29253 0.34207 0.89447 -0.01000
C 	C 	0.39213 0.42267 0.91243 0.19400
C 	C 	0.45393 0.45107 0.91763 -0.16500
H 	H 	0.47173 0.42757 0.92137 0.08500
C 	C 	0.48813 0.51267 0.91729 0.03900
H 	H 	0.52923 0.53147 0.92117 0.01200
C 	C 	0.46353 0.54777 0.91132 -0.07000
H 	H 	0.48753 0.59027 0.91147 0.06000
C 	C 	0.40324 0.52027 0.90513 -0.03500
C 	C 	0.36787 0.45736 0.90576 -0.13300
H 	H 	0.32683 0.43847 0.90157 0.08400
C 	C 	0.27463 0.13937 0.88032 0.12900
H 	H 	0.27623 0.10437 0.88617 -0.00500
H 	H 	0.31293 0.16597 0.87277 -0.00000
C 	C 	0.22853 0.09217 0.84703 0.22200
C 	C 	0.27463 0.08207 0.84196 -0.21500
H 	H 	0.30823 0.09597 0.85137 0.10800
C 	C 	0.27193 0.05167 0.82316 0.07900
H 	H 	0.30493 0.04677 0.81927 -0.01100
C 	C 	0.22193 0.02837 0.80996 -0.11400
H 	H 	0.21973 0.00587 0.79737 0.07600
C 	C 	0.17543 0.03797 0.81509 0.01800
C 	C 	0.17823 0.07097 0.83320 -0.16500
H 	H 	0.14703 0.07937 0.83627 0.10100
C 	C 	0.11903 0.00957 0.80179 0.27100
C 	C 	0.88881 0.93527 0.95551 0.28800
C 	C 	0.82713 0.89447 0.96429 -0.01100
C 	C 	0.81693 0.90243 0.98611 -0.15700
H 	H 	0.84783 0.93247 0.99477 0.08800
C 	C 	0.75953 0.86457 0.99478 0.20000
C 	C 	0.71323 0.82237 0.98184 -0.18000
H 	H 	0.67413 0.79827 0.98767 0.09800
C 	C 	0.72543 0.81597 0.96013 0.03700
H 	H 	0.69413 0.78687 0.95127 0.01900
C 	C 	0.78243 0.85137 0.95125 -0.09000
H 	H 	0.79033 0.84607 0.93657 0.06500
C 	C 	0.79153 0.91627 0.02887 0.10900
H 	H 	0.82493 0.90817 0.03087 -0.00200
H 	H 	0.80723 0.95587 0.02177 0.00400
C 	C 	0.76341 0.91539 0.05031 -0.20600
C 	C 	0.75895 0.87327 0.06660 0.26000
C 	C 	0.73183 0.87157 0.08666 -0.21400
C 	C 	0.71213 0.91267 0.09121 0.26900
C 	C 	0.71733 0.95397 0.07533 -0.22800
C 	C 	0.73988 0.95332 0.05464 0.25900
C 	C 	0.73903 0.99257 0.03635 -0.59800
H 	H 	0.77433 0.03277 0.03757 0.19900
H 	H 	0.73983 0.97487 0.02237 0.20800
H 	H 	0.70263 0.99547 0.03737 0.21300
C 	C 	0.78343 0.83227 0.06144 -0.64100
H 	H 	0.75673 0.79237 0.06747 0.22000
H 	H 	0.78593 0.82917 0.04567 0.22200
H 	H 	0.82353 0.84857 0.06777 0.21800
C 	C 	0.68973 0.91527 0.11372 -0.63500
H 	H 	0.65593 0.92257 0.11257 0.21600
H 	H 	0.67663 0.87707 0.12117 0.22500
H 	H 	0.72223 0.94787 0.12197 0.21500
C 	C 	0.72263 0.82457 0.10321 0.11600
H 	H 	0.72163 0.78967 0.09597 0.00100
H 	H 	0.68443 0.81067 0.11107 0.00500
C 	C 	0.76813 0.81917 0.13637 0.21400
C 	C 	0.81243 0.84877 0.15172 -0.17000
H 	H 	0.84403 0.88857 0.14917 0.11000
C 	C 	0.80973 0.81847 0.17133 0.02400
C 	C 	0.76703 0.76147 0.17445 -0.11900
H 	H 	0.76803 0.74087 0.18707 0.08400
C 	C 	0.72253 0.73297 0.15991 0.07400
H 	H 	0.68933 0.69467 0.16337 -0.00300
C 	C 	0.72443 0.75917 0.13957 -0.19900
H 	H 	0.69693 0.73667 0.12837 0.10200
C 	C 	0.85693 0.85147 0.18808 0.27700
C 	C 	0.69633 0.99777 0.08005 0.15800
H 	H 	0.72023 0.03527 0.07167 -0.02100
H 	H 	0.70033 0.00767 0.09567 -0.02600
C 	C 	0.60683 0.00327 0.07437 0.15600
C 	C 	0.63016 0.05770 0.08523 -0.12100
H 	H 	0.66673 0.07347 0.09307 0.08100
C 	C 	0.59823 0.08897 0.08440 -0.03300
C 	C 	0.54463 0.06497 0.07309 -0.04300
H 	H 	0.52373 0.08667 0.07217 0.04800
C 	C 	0.52143 0.01037 0.06324 -0.02300
H 	H 	0.48363 0.99347 0.05617 0.04300
C 	C 	0.55273 0.97947 0.06350 -0.11100
H 	H 	0.53713 0.94207 0.05617 0.07600
C 	C 	0.62453 0.14887 0.09521 0.29800
C 	C 	0.37503 0.55657 0.89898 0.35500
O 	O 	0.98313 0.99617 0.08547 0.07100
C 	C 	0.98733 0.04157 0.09417 0.15600
H 	H 	0.02573 0.07357 0.09827 0.00000
N 	N 	0.93313 0.04647 0.09809 -0.07300
C 	C 	0.87363 0.99267 0.09767 -0.25800
H 	H 	0.87313 0.96247 0.10757 0.11300
H 	H 	0.84353 0.00297 0.10247 0.10100
H 	H 	0.86433 0.97647 0.08297 0.10700
C 	C 	0.94013 0.10537 0.10217 -0.29600
H 	H 	0.90833 0.10127 0.11207 0.11700
H 	H 	0.97933 0.13147 0.10887 0.12700
H 	H 	0.93733 0.12307 0.08847 0.11400
Cd	Cd	0.24407 0.64810 0.44355 1.22800
Cd	Cd	0.26759 0.69943 0.38828 1.23200
O 	O 	0.65665 0.26190 0.35217 -0.47800
O 	O 	0.60403 0.23278 0.38211 -0.41000
O 	O 	0.61467 0.24937 0.13600 -0.43300
O 	O 	0.52297 0.22516 0.12402 -0.40600
O 	O 	0.86833 0.00248 0.21969 -0.43000
O 	O 	0.87941 0.93770 0.24003 -0.53500
O 	O 	0.72052 0.40756 0.30026 -0.47500
O 	O 	0.69021 0.43112 0.26982 -0.41400
O 	O 	0.16618 0.67007 0.44281 -0.37200
O 	O 	0.24477 0.72540 0.42203 -0.48100
O 	O 	0.64300 0.48240 0.53938 -0.38100
O 	O 	0.66640 0.43150 0.51751 -0.34300
O 	O 	0.56945 0.08009 0.30322 -0.25900
O 	O 	0.66717 0.97184 0.24759 -0.25500
O 	O 	0.56115 0.10767 0.19899 -0.25700
O 	O 	0.79174 0.58876 0.34903 -0.26200
O 	O 	0.74640 0.56075 0.45146 -0.26000
O 	O 	0.00142 0.69946 0.40689 -0.27300
C 	C 	0.61526 0.22162 0.36363 0.31500
C 	C 	0.58231 0.15992 0.35460 -0.02700
C 	C 	0.54330 0.11090 0.36745 -0.08100
H 	H 	0.53570 0.11680 0.38210 0.05500
C 	C 	0.51540 0.05290 0.35857 0.03300
H 	H 	0.48960 0.01940 0.36740 0.01500
C 	C 	0.52470 0.04400 0.33758 -0.17400
H 	H 	0.50610 0.00450 0.33180 0.09200
C 	C 	0.56230 0.09370 0.32431 0.19100
C 	C 	0.59137 0.15037 0.33313 -0.15100
H 	H 	0.61810 0.18340 0.32440 0.08300
C 	C 	0.61030 0.13040 0.28944 0.11100
H 	H 	0.59500 0.15850 0.28730 -0.00500
H 	H 	0.65060 0.15250 0.29610 0.00100
C 	C 	0.61283 0.10289 0.26787 -0.22900
C 	C 	0.57310 0.09560 0.25159 0.28200
C 	C 	0.57489 0.06859 0.23195 -0.22400
C 	C 	0.61770 0.05070 0.22898 0.27500
C 	C 	0.65712 0.05822 0.24577 -0.22800
C 	C 	0.65471 0.08251 0.26591 0.28500
C 	C 	0.69420 0.08630 0.28442 -0.66300
H 	H 	0.73360 0.12260 0.28290 0.22300
H 	H 	0.67590 0.08800 0.29810 0.22700
H 	H 	0.69900 0.05090 0.28430 0.22200
C 	C 	0.52840 0.11710 0.25461 -0.65000
H 	H 	0.54450 0.15710 0.24820 0.22300
H 	H 	0.49050 0.08900 0.24740 0.22500
H 	H 	0.52120 0.11890 0.27010 0.22400
C 	C 	0.62230 0.02470 0.20702 -0.65500
H 	H 	0.65060 0.05730 0.19760 0.22000
H 	H 	0.63650 0.99620 0.20940 0.22800
H 	H 	0.58280 0.00410 0.20010 0.22400
C 	C 	0.70070 0.03420 0.24289 0.11700
H 	H 	0.73500 0.05460 0.25300 -0.00700
H 	H 	0.71620 0.04080 0.22780 -0.00900
C 	C 	0.69720 0.94120 0.24576 0.18200
C 	C 	0.66380 0.87940 0.25096 -0.15500
H 	H 	0.62250 0.86160 0.25470 0.08100
C 	C 	0.69120 0.84520 0.25062 0.02900
H 	H 	0.66890 0.80410 0.25450 0.01500
C 	C 	0.75090 0.86980 0.24465 -0.05800
H 	H 	0.76940 0.84580 0.24480 0.05600
C 	C 	0.78369 0.93009 0.23846 -0.04900
C 	C 	0.75615 0.96546 0.23909 -0.10400
H 	H 	0.77830 0.00650 0.23490 0.06800
C 	C 	0.53140 0.05870 0.21365 0.13400
H 	H 	0.49480 0.05710 0.21950 -0.00700
H 	H 	0.51970 0.02040 0.20610 -0.00500
C 	C 	0.53030 0.10480 0.18036 0.22100
C 	C 	0.47410 0.05870 0.17529 -0.21300
H 	H 	0.45440 0.02510 0.18470 0.10500
C 	C 	0.44640 0.06140 0.15649 0.07700
H 	H 	0.40850 0.02840 0.15260 -0.01200
C 	C 	0.47310 0.11140 0.14329 -0.11200
H 	H 	0.45280 0.11360 0.13070 0.07800
C 	C 	0.52920 0.15790 0.14842 0.01600
C 	C 	0.55940 0.15510 0.16653 -0.16200
H 	H 	0.59900 0.18630 0.16960 0.10200
C 	C 	0.55720 0.21430 0.13512 0.28500
C 	C 	0.71312 0.44452 0.28884 0.29000
C 	C 	0.73400 0.50620 0.29762 -0.01400
C 	C 	0.75216 0.51640 0.31944 -0.15600
H 	H 	0.75130 0.48550 0.32810 0.08600
C 	C 	0.77170 0.57380 0.32811 0.19900
C 	C 	0.77580 0.62010 0.31517 -0.17900
H 	H 	0.79080 0.65920 0.32100 0.09800
C 	C 	0.75720 0.60790 0.29346 0.03500
H 	H 	0.75940 0.63920 0.28460 0.02000
C 	C 	0.73560 0.55090 0.28458 -0.08900
H 	H 	0.72240 0.54300 0.26990 0.06400
C 	C 	0.79140 0.54180 0.36220 0.11200
H 	H 	0.74990 0.50840 0.36420 -0.00400
H 	H 	0.81530 0.52610 0.35510 0.00100
C 	C 	0.81864 0.56992 0.38364 -0.21100
C 	C 	0.78098 0.57438 0.39993 0.26100
C 	C 	0.80640 0.60150 0.41999 -0.21400
C 	C 	0.86720 0.62120 0.42454 0.26700
C 	C 	0.90330 0.61600 0.40866 -0.22600
C 	C 	0.88010 0.59345 0.38797 0.26600
C 	C 	0.92020 0.59430 0.36968 -0.63400
H 	H 	0.92510 0.55900 0.37090 0.21600
H 	H 	0.90170 0.59350 0.35570 0.21700
H 	H 	0.95950 0.63070 0.37070 0.22300
C 	C 	0.71550 0.54990 0.39477 -0.64200
H 	H 	0.70230 0.57660 0.40080 0.22000
H 	H 	0.70990 0.54740 0.37900 0.22200
H 	H 	0.69170 0.50980 0.40110 0.21800
C 	C 	0.89220 0.64360 0.44705 -0.63400
H 	H 	0.93330 0.67740 0.44590 0.21600
H 	H 	0.86710 0.65670 0.45450 0.22500
H 	H 	0.89230 0.61110 0.45530 0.21200
C 	C 	0.76860 0.61070 0.43654 0.11600
H 	H 	0.73470 0.61170 0.42930 0.00100
H 	H 	0.79290 0.64890 0.44440 0.00500
C 	C 	0.71770 0.56520 0.46970 0.21300
C 	C 	0.70300 0.52090 0.48505 -0.16900
H 	H 	0.71120 0.48930 0.48250 0.10800
C 	C 	0.67540 0.52360 0.50466 0.02200
C 	C 	0.66110 0.56630 0.50778 -0.11800
H 	H 	0.63950 0.56530 0.52040 0.08300
C 	C 	0.67710 0.61080 0.49324 0.07200
H 	H 	0.67200 0.64400 0.49670 -0.00300
C 	C 	0.70140 0.60890 0.47290 -0.19800
H 	H 	0.70640 0.63640 0.46170 0.10100
C 	C 	0.66120 0.47640 0.52141 0.27900
C 	C 	0.96810 0.63700 0.41338 0.13500
H 	H 	0.98170 0.61310 0.40500 -0.00700
H 	H 	0.97400 0.63300 0.42900 -0.01000
C 	C 	0.06310 0.72650 0.40770 0.20900
C 	C 	0.09420 0.70317 0.41856 -0.15700
H 	H 	0.07340 0.66660 0.42640 0.09200
C 	C 	0.15740 0.73510 0.41773 -0.00000
C 	C 	0.18700 0.78870 0.40642 -0.09500
H 	H 	0.22960 0.80960 0.40550 0.06600
C 	C 	0.15560 0.81190 0.39657 0.06200
H 	H 	0.17650 0.84970 0.38950 0.00800
C 	C 	0.09340 0.78060 0.39683 -0.18900
H 	H 	0.07160 0.79620 0.38950 0.10000
C 	C 	0.19100 0.70880 0.42854 0.28700
C 	C 	0.84820 0.95830 0.23231 0.37200
O 	O 	0.67970 0.35020 0.41880 -0.14500
C 	C 	0.72090 0.34600 0.42750 0.12300
H 	H 	0.71450 0.30760 0.43160 -0.00100
N 	N 	0.78000 0.40020 0.43142 -0.05500
C 	C 	0.78570 0.45970 0.43100 -0.30200
H 	H 	0.75600 0.46020 0.44090 0.12800
H 	H 	0.82610 0.48980 0.43580 0.12100
H 	H 	0.77880 0.46900 0.41630 0.12100
C 	C 	0.83190 0.39320 0.43550 -0.30300
H 	H 	0.85960 0.42500 0.44540 0.12000
H 	H 	0.81880 0.35400 0.44220 0.12600
H 	H 	0.85240 0.39600 0.42180 0.11500
Cd	Cd	0.91074 0.98144 0.77689 1.23200
Cd	Cd	0.93425 0.03276 0.72161 1.23200
O 	O 	0.32332 0.59523 0.68550 -0.47800
O 	O 	0.27070 0.56611 0.71544 -0.41000
O 	O 	0.28134 0.58270 0.46933 -0.43300
O 	O 	0.18964 0.55849 0.45735 -0.40700
O 	O 	0.53500 0.33581 0.55302 -0.42100
O 	O 	0.54608 0.27103 0.57336 -0.53600
O 	O 	0.38719 0.74089 0.63359 -0.47500
O 	O 	0.35688 0.76445 0.60315 -0.41400
O 	O 	0.83285 0.00340 0.77614 -0.37500
O 	O 	0.91144 0.05873 0.75536 -0.47900
O 	O 	0.30967 0.81573 0.87271 -0.38100
O 	O 	0.33307 0.76483 0.85084 -0.34300
O 	O 	0.23612 0.41342 0.63655 -0.25600
O 	O 	0.33384 0.30517 0.58092 -0.26600
O 	O 	0.22782 0.44100 0.53232 -0.25700
O 	O 	0.45841 0.92209 0.68236 -0.25900
O 	O 	0.41307 0.89408 0.78479 -0.25900
O 	O 	0.66809 0.03279 0.74022 -0.27400
C 	C 	0.28193 0.55495 0.69696 0.31600
C 	C 	0.24898 0.49325 0.68793 -0.02700
C 	C 	0.20997 0.44423 0.70078 -0.08100
H 	H 	0.20237 0.45013 0.71543 0.05500
C 	C 	0.18207 0.38623 0.69190 0.03300
H 	H 	0.15627 0.35273 0.70073 0.01700
C 	C 	0.19137 0.37733 0.67091 -0.17300
H 	H 	0.17277 0.33783 0.66513 0.09500
C 	C 	0.22897 0.42703 0.65764 0.19100
C 	C 	0.25804 0.48370 0.66646 -0.15100
H 	H 	0.28477 0.51673 0.65773 0.08300
C 	C 	0.27697 0.46373 0.62277 0.11100
H 	H 	0.26167 0.49183 0.62063 -0.00400
H 	H 	0.31727 0.48583 0.62943 0.00100
C 	C 	0.27950 0.43622 0.60120 -0.22700
C 	C 	0.23977 0.42893 0.58492 0.28100
C 	C 	0.24156 0.40192 0.56528 -0.21800
C 	C 	0.28437 0.38403 0.56231 0.26800
C 	C 	0.32379 0.39155 0.57910 -0.22600
C 	C 	0.32138 0.41584 0.59924 0.28600
C 	C 	0.36087 0.41963 0.61775 -0.66500
H 	H 	0.40027 0.45593 0.61623 0.22300
H 	H 	0.34257 0.42133 0.63143 0.22900
H 	H 	0.36567 0.38423 0.61763 0.22500
C 	C 	0.19507 0.45043 0.58794 -0.64900
H 	H 	0.21117 0.49043 0.58153 0.22200
H 	H 	0.15717 0.42233 0.58073 0.22600
H 	H 	0.18787 0.45223 0.60343 0.22500
C 	C 	0.28897 0.35803 0.54035 -0.62100
H 	H 	0.31727 0.39063 0.53093 0.21200
H 	H 	0.30317 0.32953 0.54273 0.21100
H 	H 	0.24947 0.33743 0.53343 0.21700
C 	C 	0.36737 0.36753 0.57622 0.12900
H 	H 	0.40167 0.38793 0.58633 -0.00900
H 	H 	0.38287 0.37413 0.56113 -0.01000
C 	C 	0.36387 0.27453 0.57909 0.19500
C 	C 	0.33047 0.21273 0.58429 -0.16600
H 	H 	0.28917 0.19493 0.58803 0.08500
C 	C 	0.35787 0.17853 0.58395 0.03900
H 	H 	0.33557 0.13743 0.58783 0.01200
C 	C 	0.41757 0.20313 0.57798 -0.07000
H 	H 	0.43607 0.17913 0.57813 0.06000
C 	C 	0.45036 0.26342 0.57179 -0.03500
C 	C 	0.42282 0.29879 0.57242 -0.13300
H 	H 	0.44497 0.33983 0.56823 0.08400
C 	C 	0.19807 0.39203 0.54698 0.12900
H 	H 	0.16147 0.39043 0.55283 -0.00400
H 	H 	0.18637 0.35373 0.53943 -0.00000
C 	C 	0.19697 0.43813 0.51369 0.22200
C 	C 	0.14077 0.39203 0.50862 -0.21300
H 	H 	0.12107 0.35843 0.51803 0.10800
C 	C 	0.11307 0.39473 0.48982 0.07800
H 	H 	0.07517 0.36173 0.48593 -0.01000
C 	C 	0.13977 0.44473 0.47662 -0.11100
H 	H 	0.11947 0.44693 0.46403 0.07800
C 	C 	0.19587 0.49123 0.48175 0.01600
C 	C 	0.22607 0.48843 0.49986 -0.16200
H 	H 	0.26567 0.51963 0.50293 0.10200
C 	C 	0.22387 0.54763 0.46845 0.28500
C 	C 	0.37979 0.77785 0.62217 0.29000
C 	C 	0.40067 0.83953 0.63095 -0.01400
C 	C 	0.41883 0.84973 0.65277 -0.15600
H 	H 	0.41797 0.81883 0.66143 0.08500
C 	C 	0.43837 0.90713 0.66144 0.19900
C 	C 	0.44247 0.95343 0.64850 -0.17800
H 	H 	0.45747 0.99253 0.65433 0.10200
C 	C 	0.42387 0.94123 0.62679 0.03600
H 	H 	0.42607 0.97253 0.61793 0.02300
C 	C 	0.40227 0.88423 0.61791 -0.08800
H 	H 	0.38907 0.87633 0.60323 0.06500
C 	C 	0.45807 0.87513 0.69553 0.11100
H 	H 	0.41657 0.84173 0.69753 -0.00400
H 	H 	0.48197 0.85943 0.68843 0.00100
C 	C 	0.48531 0.90325 0.71697 -0.20700
C 	C 	0.44765 0.90771 0.73326 0.25800
C 	C 	0.47307 0.93483 0.75332 -0.20600
C 	C 	0.53387 0.95453 0.75787 0.25500
C 	C 	0.56997 0.94933 0.74199 -0.21900
C 	C 	0.54677 0.92678 0.72130 0.26400
C 	C 	0.58687 0.92763 0.70301 -0.63100
H 	H 	0.59177 0.89233 0.70423 0.21400
H 	H 	0.56837 0.92683 0.68903 0.21700
H 	H 	0.62617 0.96403 0.70403 0.22200
C 	C 	0.38217 0.88323 0.72810 -0.64000
H 	H 	0.36897 0.90993 0.73413 0.22100
H 	H 	0.37657 0.88073 0.71233 0.22200
H 	H 	0.35837 0.84313 0.73443 0.21700
C 	C 	0.55887 0.97693 0.78038 -0.59200
H 	H 	0.59997 0.01073 0.77923 0.19500
H 	H 	0.53377 0.99003 0.78783 0.21600
H 	H 	0.55897 0.94443 0.78863 0.20100
C 	C 	0.43527 0.94403 0.76987 0.11000
H 	H 	0.40137 0.94503 0.76263 0.00400
H 	H 	0.45957 0.98223 0.77773 0.01000
C 	C 	0.38437 0.89853 0.80303 0.21400
C 	C 	0.36967 0.85423 0.81838 -0.16800
H 	H 	0.37787 0.82263 0.81583 0.10800
C 	C 	0.34207 0.85693 0.83799 0.02200
C 	C 	0.32777 0.89963 0.84111 -0.11600
H 	H 	0.30617 0.89863 0.85373 0.08400
C 	C 	0.34377 0.94413 0.82657 0.07300
H 	H 	0.33867 0.97733 0.83003 0.00100
C 	C 	0.36807 0.94223 0.80623 -0.19600
H 	H 	0.37307 0.96973 0.79503 0.10400
C 	C 	0.32787 0.80973 0.85474 0.27900
C 	C 	0.63477 0.97033 0.74671 0.13500
H 	H 	0.64837 0.94643 0.73833 -0.00800
H 	H 	0.64067 0.96633 0.76233 -0.01000
C 	C 	0.72977 0.05983 0.74103 0.22100
C 	C 	0.76087 0.03650 0.75189 -0.18300
H 	H 	0.74007 0.99993 0.75973 0.11000
C 	C 	0.82407 0.06843 0.75106 0.01100
C 	C 	0.85367 0.12203 0.73975 -0.10500
H 	H 	0.89627 0.14293 0.73883 0.06900
C 	C 	0.82227 0.14523 0.72990 0.07100
H 	H 	0.84317 0.18303 0.72283 0.00400
C 	C 	0.76007 0.11393 0.73016 -0.20000
H 	H 	0.73827 0.12953 0.72283 0.10400
C 	C 	0.85767 0.04213 0.76187 0.28100
C 	C 	0.51487 0.29163 0.56564 0.35500
O 	O 	0.34637 0.68353 0.75213 -0.14500
C 	C 	0.38757 0.67933 0.76083 0.12300
H 	H 	0.38117 0.64093 0.76493 -0.00100
N 	N 	0.44667 0.73353 0.76475 -0.05500
C 	C 	0.45237 0.79303 0.76433 -0.30200
H 	H 	0.42267 0.79353 0.77423 0.12800
H 	H 	0.49277 0.82313 0.76913 0.12000
H 	H 	0.44547 0.80233 0.74963 0.12100
C 	C 	0.49857 0.72653 0.76883 -0.30200
H 	H 	0.52627 0.75833 0.77873 0.11900
H 	H 	0.48547 0.68733 0.77553 0.12500
H 	H 	0.51907 0.72933 0.75513 0.11400
Cd	Cd	0.57741 0.31477 0.11022 1.22800
Cd	Cd	0.60092 0.36609 0.05494 1.23200
O 	O 	0.98998 0.92857 0.01884 -0.46900
O 	O 	0.93736 0.89945 0.04878 -0.40600
O 	O 	0.94800 0.91604 0.80267 -0.42600
O 	O 	0.85630 0.89183 0.79069 -0.40300
O 	O 	0.20166 0.66915 0.88636 -0.42200
O 	O 	0.21274 0.60437 0.90670 -0.53700
O 	O 	0.05385 0.07423 0.96693 -0.47900
O 	O 	0.02354 0.09779 0.93649 -0.42000
O 	O 	0.49951 0.33674 0.10948 -0.37100
O 	O 	0.57810 0.39207 0.08870 -0.48100
O 	O 	0.97633 0.14907 0.20605 -0.38500
O 	O 	0.99973 0.09817 0.18418 -0.34600
O 	O 	0.90278 0.74676 0.96989 -0.25600
O 	O 	0.00050 0.63851 0.91426 -0.26300
O 	O 	0.89448 0.77434 0.86566 -0.25500
O 	O 	0.12507 0.25543 0.01570 -0.26200
O 	O 	0.07973 0.22742 0.11813 -0.25500
O 	O 	0.33475 0.36613 0.07356 -0.26300
C 	C 	0.94859 0.88829 0.03030 0.31400
C 	C 	0.91564 0.82659 0.02127 -0.02500
C 	C 	0.87663 0.77757 0.03412 -0.08200
H 	H 	0.86903 0.78347 0.04877 0.05600
C 	C 	0.84873 0.71957 0.02524 0.03400
H 	H 	0.82293 0.68607 0.03407 0.01700
C 	C 	0.85803 0.71067 0.00425 -0.17400
H 	H 	0.83943 0.67117 0.99847 0.09600
C 	C 	0.89563 0.76037 0.99098 0.19200
C 	C 	0.92470 0.81704 0.99980 -0.15200
H 	H 	0.95143 0.85007 0.99107 0.08600
C 	C 	0.94363 0.79707 0.95611 0.11100
H 	H 	0.92833 0.82517 0.95397 -0.00300
H 	H 	0.98393 0.81917 0.96277 0.00400
C 	C 	0.94616 0.76956 0.93454 -0.22900
C 	C 	0.90643 0.76227 0.91826 0.28400
C 	C 	0.90822 0.73526 0.89862 -0.21800
C 	C 	0.95103 0.71737 0.89565 0.26900
C 	C 	0.99045 0.72489 0.91244 -0.21900
C 	C 	0.98804 0.74918 0.93258 0.29600
C 	C 	0.02753 0.75297 0.95109 -0.68000
H 	H 	0.06693 0.78927 0.94957 0.22600
H 	H 	0.00923 0.75467 0.96477 0.22900
H 	H 	0.03233 0.71757 0.95097 0.22700
C 	C 	0.86173 0.78377 0.92128 -0.65200
H 	H 	0.87783 0.82377 0.91487 0.22400
H 	H 	0.82383 0.75567 0.91407 0.22700
H 	H 	0.85453 0.78557 0.93677 0.22600
C 	C 	0.95563 0.69137 0.87369 -0.62400
H 	H 	0.98393 0.72397 0.86427 0.21500
H 	H 	0.96983 0.66287 0.87607 0.21500
H 	H 	0.91613 0.67077 0.86677 0.21900
C 	C 	0.03403 0.70087 0.90956 0.11700
H 	H 	0.06833 0.72127 0.91967 -0.00700
H 	H 	0.04953 0.70747 0.89447 -0.00900
C 	C 	0.03053 0.60787 0.91243 0.16700
C 	C 	0.99713 0.54607 0.91763 -0.12000
H 	H 	0.95583 0.52827 0.92137 0.07200
C 	C 	0.02453 0.51187 0.91729 0.00000
H 	H 	0.00223 0.47077 0.92117 0.02100
C 	C 	0.08423 0.53647 0.91132 -0.04800
H 	H 	0.10273 0.51247 0.91147 0.05200
C 	C 	0.11702 0.59676 0.90513 -0.05000
C 	C 	0.08948 0.63213 0.90576 -0.11600
H 	H 	0.11163 0.67317 0.90157 0.07800
C 	C 	0.86473 0.72537 0.88032 0.12900
H 	H 	0.82813 0.72377 0.88617 -0.00400
H 	H 	0.85303 0.68707 0.87277 -0.00000
C 	C 	0.86363 0.77147 0.84703 0.22300
C 	C 	0.80743 0.72537 0.84196 -0.21300
H 	H 	0.78773 0.69177 0.85137 0.10800
C 	C 	0.77973 0.72807 0.82316 0.07900
H 	H 	0.74183 0.69507 0.81927 -0.00900
C 	C 	0.80643 0.77807 0.80996 -0.11200
H 	H 	0.78613 0.78027 0.79737 0.07900
C 	C 	0.86253 0.82457 0.81509 0.01800
C 	C 	0.89273 0.82177 0.83320 -0.16200
H 	H 	0.93233 0.85297 0.83627 0.10500
C 	C 	0.89053 0.88097 0.80179 0.28400
C 	C 	0.04645 0.11119 0.95551 0.29000
C 	C 	0.06733 0.17287 0.96429 -0.01600
C 	C 	0.08549 0.18307 0.98611 -0.15600
H 	H 	0.08463 0.15217 0.99477 0.08500
C 	C 	0.10503 0.24047 0.99478 0.19700
C 	C 	0.10913 0.28677 0.98184 -0.17900
H 	H 	0.12413 0.32587 0.98767 0.09800
C 	C 	0.09053 0.27457 0.96013 0.03400
H 	H 	0.09273 0.30587 0.95127 0.01900
C 	C 	0.06893 0.21757 0.95125 -0.08900
H 	H 	0.05573 0.20967 0.93657 0.06200
C 	C 	0.12473 0.20847 0.02887 0.11100
H 	H 	0.08323 0.17507 0.03087 -0.00400
H 	H 	0.14863 0.19277 0.02177 0.00100
C 	C 	0.15197 0.23659 0.05031 -0.20700
C 	C 	0.11431 0.24105 0.06660 0.25600
C 	C 	0.13973 0.26817 0.08666 -0.21000
C 	C 	0.20053 0.28787 0.09121 0.26200
C 	C 	0.23663 0.28267 0.07533 -0.22100
C 	C 	0.21343 0.26012 0.05464 0.26100
C 	C 	0.25353 0.26097 0.03635 -0.62700
H 	H 	0.25843 0.22567 0.03757 0.21300
H 	H 	0.23503 0.26017 0.02237 0.21400
H 	H 	0.29283 0.29737 0.03737 0.21800
C 	C 	0.04883 0.21657 0.06144 -0.63100
H 	H 	0.03563 0.24327 0.06747 0.21500
H 	H 	0.04323 0.21407 0.04567 0.21700
H 	H 	0.02503 0.17647 0.06777 0.21200
C 	C 	0.22553 0.31027 0.11372 -0.62700
H 	H 	0.26663 0.34407 0.11257 0.21200
H 	H 	0.20043 0.32337 0.12117 0.22200
H 	H 	0.22563 0.27777 0.12197 0.20900
C 	C 	0.10193 0.27737 0.10321 0.11200
H 	H 	0.06803 0.27837 0.09597 0.00100
H 	H 	0.12623 0.31557 0.11107 0.00600
C 	C 	0.05103 0.23187 0.13637 0.18600
C 	C 	0.03633 0.18757 0.15172 -0.13600
H 	H 	0.04453 0.15597 0.14917 0.09300
C 	C 	0.00873 0.19027 0.17133 -0.03500
C 	C 	0.99443 0.23297 0.17445 -0.04200
H 	H 	0.97283 0.23197 0.18707 0.06100
C 	C 	0.01043 0.27747 0.15991 0.01200
H 	H 	0.00533 0.31067 0.16337 0.01400
C 	C 	0.03473 0.27557 0.13957 -0.16300
H 	H 	0.03973 0.30307 0.12837 0.08800
C 	C 	0.99453 0.14307 0.18808 0.30600
C 	C 	0.30143 0.30367 0.08005 0.12300
H 	H 	0.31503 0.27977 0.07167 -0.00600
H 	H 	0.30733 0.29967 0.09567 -0.01000
C 	C 	0.39643 0.39317 0.07437 0.20900
C 	C 	0.42753 0.36984 0.08523 -0.15600
H 	H 	0.40673 0.33327 0.09307 0.09300
C 	C 	0.49073 0.40177 0.08440 -0.00000
C 	C 	0.52033 0.45537 0.07309 -0.09500
H 	H 	0.56293 0.47627 0.07217 0.06600
C 	C 	0.48893 0.47857 0.06324 0.06200
H 	H 	0.50983 0.51637 0.05617 0.00700
C 	C 	0.42673 0.44727 0.06350 -0.18900
H 	H 	0.40493 0.46287 0.05617 0.10100
C 	C 	0.52433 0.37547 0.09521 0.28600
C 	C 	0.18153 0.62497 0.89898 0.36000
O 	O 	0.01303 0.01687 0.08547 -0.45100
C 	C 	0.05423 0.01267 0.09417 0.21600
H 	H 	0.04783 0.97427 0.09827 -0.03200
N 	N 	0.11333 0.06687 0.09809 -0.07000
C 	C 	0.11903 0.12637 0.09767 -0.28900
H 	H 	0.08933 0.12687 0.10757 0.12300
H 	H 	0.15943 0.15647 0.10247 0.11600
H 	H 	0.11213 0.13567 0.08297 0.11900
C 	C 	0.16523 0.05987 0.10217 -0.28900
H 	H 	0.19293 0.09167 0.11207 0.11300
H 	H 	0.15213 0.02067 0.10887 0.11500
H 	H 	0.18573 0.06267 0.08847 0.10800
Cd	Cd	0.66667 0.33333 0.88219 1.23200
Cd	Cd	0.66667 0.33333 0.82637 1.22000
Cd	Cd	0.66667 0.33333 0.77045 1.20600
Cd	Cd	0.33333 0.66667 0.21552 1.23200
Cd	Cd	0.33333 0.66667 0.15970 1.22000
Cd	Cd	0.33333 0.66667 0.10378 1.20600
Cd	Cd	-0.00000 -0.00000 0.54885 1.22500
Cd	Cd	-0.00000 -0.00000 0.49303 1.21300
Cd	Cd	-0.00000 0.00000 0.43712 1.19900
Cd	Cd	0.66667 0.33333 0.38219 1.23200
Cd	Cd	0.66667 0.33333 0.32637 1.22000
Cd	Cd	0.66667 0.33333 0.27045 1.20600
Cd	Cd	0.33333 0.66667 0.71552 1.23200
Cd	Cd	0.33333 0.66667 0.65970 1.22000
Cd	Cd	0.33333 0.66667 0.60378 1.20600
Cd	Cd	0.00000 0.00000 0.04885 1.22500
Cd	Cd	-0.00000 0.00000 0.99303 1.21300
Cd	Cd	-0.00000 0.00000 0.93712 1.19900
O 	O 	0.33333 0.66667 0.93106 -0.65400
O 	O 	0.33333 0.66667 0.88149 -0.56600
O 	O 	-0.00000 -0.00000 0.26439 -0.66600
O 	O 	-0.00000 0.00000 0.21482 -0.57700
O 	O 	0.66667 0.33333 0.59773 -0.65400
O 	O 	0.66667 0.33333 0.54816 -0.56600
O 	O 	0.33333 0.66667 0.43106 -0.65400
O 	O 	0.33333 0.66667 0.38149 -0.56600
O 	O 	-0.00000 0.00000 0.76439 -0.66600
O 	O 	-0.00000 0.00000 0.71482 -0.57700
O 	O 	0.66667 0.33333 0.09773 -0.65400
O 	O 	0.66667 0.33333 0.04816 -0.56600
