data_crystal

_cell_length_a 12.39810
_cell_length_b 20.78680
_cell_length_c 20.78680
_cell_angle_alpha 63.85080
_cell_angle_beta  78.53250
_cell_angle_gamma 101.46800

_symmetry_space_group_name_	'P 1'
_symmetry_space_group_name_H-M	'P 1'

loop_
_symmetry_equiv_pos_as_xyz
  x,y,z

loop_
_atom_site_label
_atom_site_type_symbol
_atom_site_fract_x
_atom_site_fract_y
_atom_site_fract_z
_atom_site_charge
Al	Al	0.94016 0.39426 0.33749 2.39100
Al	Al	0.27765 0.33749 0.26825 2.39100
Al	Al	0.45410 0.73175 0.60574 2.39000
Al	Al	0.54590 0.26825 0.39426 2.39000
Al	Al	0.72235 0.66251 0.73175 2.39000
Al	Al	0.05984 0.60574 0.66251 2.39000
P 	P 	0.86310 0.66314 0.58326 0.59700
P 	P 	0.17225 0.47439 0.19416 0.63000
P 	P 	0.99808 0.48214 0.60741 0.54500
P 	P 	0.36641 0.19416 0.33145 0.63000
P 	P 	0.00192 0.51786 0.39259 0.54500
P 	P 	0.48406 0.08955 0.51786 0.54400
P 	P 	0.82775 0.52561 0.80584 0.63000
P 	P 	0.39451 0.39259 0.08955 0.54400
P 	P 	0.30214 0.66855 0.52561 0.63000
P 	P 	0.51594 0.91045 0.48214 0.54400
P 	P 	0.19996 0.75360 0.66314 0.59700
P 	P 	0.55364 0.41674 0.24640 0.59700
P 	P 	0.60549 0.60741 0.91045 0.54400
P 	P 	0.13690 0.33686 0.41674 0.59700
P 	P 	0.44636 0.58326 0.75360 0.59700
P 	P 	0.69786 0.33145 0.47439 0.63000
P 	P 	0.80004 0.24640 0.33686 0.59700
P 	P 	0.63359 0.80584 0.66855 0.63000
H 	H 	0.89600 0.21640 0.48150 0.27000
H 	H 	0.22900 0.57710 0.21170 0.09700
H 	H 	0.42850 0.68180 0.95310 0.22200
H 	H 	0.88270 0.36660 0.71060 0.09200
H 	H 	0.32040 0.69790 0.78360 0.27000
H 	H 	0.61800 0.26540 0.60550 0.10800
H 	H 	0.83680 0.56840 0.57780 0.31100
H 	H 	0.81740 0.03100 0.31280 0.22500
H 	H 	0.42810 0.48340 0.73000 0.10600
H 	H 	0.22490 0.46950 0.10020 0.31800
H 	H 	0.63710 0.98910 0.70820 0.21300
H 	H 	0.10400 0.78360 0.51850 0.27000
H 	H 	0.76290 0.57840 0.10350 0.23900
H 	H 	0.77740 0.02960 0.39000 0.26000
H 	H 	0.18450 0.31810 0.57840 0.24000
H 	H 	0.18260 0.96900 0.68720 0.22500
H 	H 	0.38160 0.95310 0.36510 0.22200
H 	H 	0.41310 0.71830 0.81900 0.24900
H 	H 	0.65190 0.21120 0.57710 0.09700
H 	H 	0.34530 0.70820 0.30270 0.21300
H 	H 	0.25220 0.41960 0.97040 0.25900
H 	H 	0.28360 0.71170 0.85200 0.23600
H 	H 	0.26840 0.85380 0.56840 0.31100
H 	H 	0.64380 0.94040 0.36860 0.10200
H 	H 	0.13360 0.89650 0.68190 0.23900
H 	H 	0.98760 0.63140 0.30900 0.10100
H 	H 	0.59490 0.99130 0.49930 0.32100
H 	H 	0.68960 0.36740 0.62020 0.23800
H 	H 	0.38200 0.73460 0.39450 0.10800
H 	H 	0.39640 0.49060 0.00870 0.32100
H 	H 	0.59330 0.71060 0.92280 0.09200
H 	H 	0.85050 0.74010 0.46570 0.09900
H 	H 	0.62250 0.51850 0.69790 0.27000
H 	H 	0.09420 0.49930 0.50940 0.32100
H 	H 	0.94470 0.78660 0.48340 0.10600
H 	H 	0.32510 0.10020 0.43030 0.31800
H 	H 	0.35200 0.69730 0.01090 0.21300
H 	H 	0.40670 0.28940 0.07720 0.09200
H 	H 	0.84190 0.27000 0.21340 0.10500
H 	H 	0.25330 0.63490 0.31820 0.22300
H 	H 	0.23210 0.81900 0.46270 0.24900
H 	H 	0.05530 0.21340 0.51660 0.10600
H 	H 	0.01240 0.36860 0.69100 0.10100
H 	H 	0.67780 0.98760 0.63260 0.23800
H 	H 	0.36290 0.01090 0.29180 0.21300
H 	H 	0.48390 0.07720 0.63340 0.09200
H 	H 	0.51610 0.92280 0.36660 0.09200
H 	H 	0.74670 0.36510 0.68180 0.22300
H 	H 	0.23710 0.42160 0.89650 0.23900
H 	H 	0.29660 0.30900 0.05960 0.10200
H 	H 	0.13560 0.85200 0.43630 0.23600
H 	H 	0.22260 0.97040 0.61000 0.26000
H 	H 	0.30520 0.53730 0.28170 0.24900
H 	H 	0.83260 0.61000 0.41960 0.26000
H 	H 	0.31620 0.46570 0.79420 0.09900
H 	H 	0.44070 0.21170 0.21120 0.09700
H 	H 	0.67960 0.30210 0.21640 0.27000
H 	H 	0.61840 0.04690 0.63490 0.22200
H 	H 	0.55930 0.78830 0.78880 0.09700
H 	H 	0.86980 0.68720 0.34380 0.22600
H 	H 	0.42810 0.56370 0.28830 0.23600
H 	H 	0.86640 0.10350 0.31810 0.23900
H 	H 	0.88960 0.20580 0.25990 0.09900
H 	H 	0.14950 0.25990 0.53430 0.09900
H 	H 	0.15810 0.73000 0.78660 0.10500
H 	H 	0.81550 0.68190 0.42160 0.24000
H 	H 	0.86440 0.14800 0.56370 0.23600
H 	H 	0.24460 0.56970 0.53050 0.31800
H 	H 	0.57150 0.31820 0.04690 0.22200
H 	H 	0.31040 0.63260 0.37980 0.23800
H 	H 	0.90580 0.50070 0.49060 0.32100
H 	H 	0.41460 0.57780 0.85380 0.31100
H 	H 	0.65470 0.29180 0.69730 0.21300
H 	H 	0.22350 0.60550 0.12910 0.10800
H 	H 	0.73160 0.14620 0.43160 0.31100
H 	H 	0.70340 0.69100 0.94040 0.10200
H 	H 	0.69020 0.37980 0.98760 0.23800
H 	H 	0.37750 0.48150 0.30210 0.27000
H 	H 	0.34810 0.78880 0.42290 0.09700
H 	H 	0.69480 0.46270 0.71830 0.24900
H 	H 	0.58690 0.28170 0.18100 0.24900
H 	H 	0.58540 0.42220 0.14620 0.31100
H 	H 	0.74780 0.58040 0.02960 0.25900
H 	H 	0.77100 0.42290 0.78830 0.09700
H 	H 	0.21360 0.34380 0.96900 0.22500
H 	H 	0.75540 0.43030 0.46950 0.31800
H 	H 	0.77510 0.53050 0.89980 0.31800
H 	H 	0.57190 0.51660 0.27000 0.10600
H 	H 	0.64800 0.30270 0.98910 0.21300
H 	H 	0.76790 0.18100 0.53730 0.24900
H 	H 	0.11730 0.63340 0.28940 0.09200
H 	H 	0.35620 0.05960 0.63140 0.10200
H 	H 	0.11040 0.79420 0.74010 0.09900
H 	H 	0.78640 0.65620 0.03100 0.22500
H 	H 	0.32220 0.01240 0.36740 0.23800
H 	H 	0.57190 0.43630 0.71170 0.23600
H 	H 	0.71640 0.28830 0.14800 0.23600
H 	H 	0.64740 0.87090 0.73460 0.10800
H 	H 	0.30980 0.62020 0.01240 0.23800
H 	H 	0.40510 0.00870 0.50070 0.32100
H 	H 	0.68380 0.53430 0.20580 0.09900
H 	H 	0.13020 0.31280 0.65620 0.22600
H 	H 	0.60360 0.50940 0.99130 0.32100
H 	H 	0.35260 0.12910 0.26540 0.10800
H 	H 	0.67490 0.89980 0.56970 0.31800
H 	H 	0.16320 0.43160 0.42220 0.31100
H 	H 	0.16740 0.39000 0.58040 0.26000
H 	H 	0.77650 0.39450 0.87090 0.10800
C 	C 	0.58381 0.83215 0.73842 -0.27600
C 	C 	0.42925 0.05061 0.61866 -0.26100
C 	C 	0.28411 0.83554 0.72621 -0.09900
C 	C 	0.07410 0.66457 0.36947 -0.09600
C 	C 	0.34482 0.72691 0.80655 -0.72500
C 	C 	0.32223 0.73842 0.42943 -0.27600
C 	C 	0.79057 0.27338 0.58867 -0.09300
C 	C 	0.92590 0.33543 0.63053 -0.09600
C 	C 	0.38054 0.00389 0.33687 -0.67200
C 	C 	0.55143 0.56175 0.16446 -0.09900
C 	C 	0.73906 0.60378 0.06030 -0.70400
C 	C 	0.26094 0.39622 0.93970 -0.70400
C 	C 	0.28259 0.66313 0.34076 -0.67300
C 	C 	0.43802 0.56184 0.18978 0.20500
C 	C 	0.57075 0.94939 0.38134 -0.26100
C 	C 	0.37864 0.33073 0.05061 -0.26200
C 	C 	0.75166 0.42943 0.83215 -0.27600
C 	C 	0.37924 0.58867 0.13795 -0.09300
C 	C 	0.98968 0.27379 0.56175 -0.10000
C 	C 	0.20943 0.72662 0.41133 -0.09300
C 	C 	0.91460 0.73845 0.48595 -0.26700
C 	C 	0.84863 0.19345 0.53346 -0.72600
C 	C 	0.56198 0.43816 0.81022 0.20500
C 	C 	0.38209 0.53346 0.27309 -0.72500
C 	C 	0.65518 0.27309 0.19345 -0.72500
C 	C 	0.17615 0.77560 0.73845 -0.26800
C 	C 	0.48281 0.86205 0.72662 -0.09300
C 	C 	0.61946 0.99611 0.66313 -0.67200
C 	C 	0.56105 0.37499 0.94034 0.18400
C 	C 	0.41619 0.16785 0.26158 -0.27600
C 	C 	0.71741 0.33687 0.65924 -0.67300
C 	C 	0.82385 0.22440 0.26155 -0.26800
C 	C 	0.51719 0.13795 0.27338 -0.09300
C 	C 	0.62136 0.66927 0.94939 -0.26200
C 	C 	0.98540 0.68468 0.40218 0.19600
C 	C 	0.30072 0.91314 0.68468 0.19500
C 	C 	0.50139 0.94034 0.68467 0.18400
C 	C 	0.49861 0.05966 0.31533 0.18400
C 	C 	0.59047 0.03404 0.33543 -0.09500
C 	C 	0.55643 0.63053 0.03404 -0.09600
C 	C 	0.01460 0.31532 0.59782 0.19600
C 	C 	0.69928 0.08686 0.31532 0.19500
C 	C 	0.87618 0.24838 0.56184 0.20600
C 	C 	0.40953 0.96596 0.66457 -0.09500
C 	C 	0.71589 0.16446 0.27379 -0.09900
C 	C 	0.43895 0.62501 0.05966 0.18400
C 	C 	0.04791 0.61866 0.33073 -0.26100
C 	C 	0.13528 0.33592 0.60378 -0.70600
C 	C 	0.24834 0.57057 0.16785 -0.27600
C 	C 	0.61242 0.59782 0.08686 0.19500
C 	C 	0.37665 0.65924 0.00389 -0.67100
C 	C 	0.79936 0.06030 0.33592 -0.70400
C 	C 	0.67777 0.26158 0.57057 -0.27600
C 	C 	0.81394 0.31533 0.62501 0.18500
C 	C 	0.59945 0.51405 0.22440 -0.26800
C 	C 	0.95209 0.38134 0.66927 -0.26100
C 	C 	0.37220 0.81022 0.75162 0.20500
C 	C 	0.38758 0.40218 0.91314 0.19500
C 	C 	0.86472 0.66408 0.39622 -0.70600
C 	C 	0.44357 0.36947 0.96596 -0.09600
C 	C 	0.61791 0.46654 0.72691 -0.72500
C 	C 	0.08540 0.26155 0.51405 -0.26700
C 	C 	0.62076 0.41133 0.86205 -0.09300
C 	C 	0.62335 0.34076 0.99611 -0.67100
C 	C 	0.12382 0.75162 0.43816 0.20600
C 	C 	0.01032 0.72621 0.43825 -0.10000
C 	C 	0.20064 0.93970 0.66408 -0.70400
C 	C 	0.15137 0.80655 0.46654 -0.72600
C 	C 	0.62780 0.18978 0.24838 0.20500
C 	C 	0.44857 0.43825 0.83554 -0.09900
C 	C 	0.40055 0.48595 0.77560 -0.26800
C 	C 	0.18606 0.68467 0.37499 0.18500
O 	O 	0.57453 0.61310 0.73871 -0.68100
O 	O 	0.49704 0.17160 0.48048 -0.66300
O 	O 	0.37479 0.58017 0.82620 -0.51000
O 	O 	0.22369 0.31811 0.37144 -0.62900
O 	O 	0.02248 0.51952 0.65208 -0.66400
O 	O 	0.16617 0.47557 0.11956 -0.50500
O 	O 	0.23872 0.42490 0.23134 -0.70700
O 	O 	0.65495 0.54387 0.95272 -0.53500
O 	O 	0.31324 0.73871 0.64819 -0.68100
O 	O 	0.77631 0.68189 0.62856 -0.62900
O 	O 	0.04832 0.45134 0.24128 -0.68800
O 	O 	0.79462 0.59363 0.58017 -0.51000
O 	O 	0.28960 0.24128 0.30738 -0.68900
O 	O 	0.76128 0.57510 0.76866 -0.70700
O 	O 	0.18618 0.65624 0.57510 -0.70700
O 	O 	0.47558 0.57223 0.92579 -0.33800
O 	O 	0.62521 0.41983 0.17380 -0.51000
O 	O 	0.69060 0.40487 0.47557 -0.50600
O 	O 	0.68676 0.26129 0.35181 -0.68100
O 	O 	0.34505 0.45613 0.04728 -0.53500
O 	O 	0.03857 0.35181 0.38690 -0.68000
O 	O 	0.96143 0.64819 0.61310 -0.68000
O 	O 	0.88892 0.49659 0.45613 -0.53500
O 	O 	0.30940 0.59513 0.52443 -0.50600
O 	O 	0.60767 0.95272 0.50341 -0.53500
O 	O 	0.09665 0.49802 0.42777 -0.33800
O 	O 	0.39233 0.04728 0.49659 -0.53500
O 	O 	0.20099 0.82620 0.59363 -0.51000
O 	O 	0.52442 0.42777 0.07421 -0.33800
O 	O 	0.47006 0.23134 0.34376 -0.70700
O 	O 	0.71427 0.88044 0.59513 -0.50500
O 	O 	0.59698 0.30738 0.45134 -0.68900
O 	O 	0.50296 0.82840 0.51952 -0.66300
O 	O 	0.32544 0.34792 0.17160 -0.66300
O 	O 	0.95168 0.54866 0.75872 -0.68800
O 	O 	0.59513 0.37144 0.31045 -0.63000
O 	O 	0.11108 0.50341 0.54387 -0.53500
O 	O 	0.59863 0.07421 0.49802 -0.33800
O 	O 	0.40137 0.92579 0.50198 -0.33800
O 	O 	0.52994 0.76866 0.65624 -0.70700
O 	O 	0.67456 0.65208 0.82840 -0.66300
O 	O 	0.09442 0.68955 0.68189 -0.63000
O 	O 	0.40487 0.62856 0.68955 -0.63000
O 	O 	0.28573 0.11956 0.40487 -0.50500
O 	O 	0.40302 0.69262 0.54866 -0.68900
O 	O 	0.83383 0.52443 0.88044 -0.50500
O 	O 	0.90335 0.50198 0.57223 -0.33800
O 	O 	0.71040 0.75872 0.69262 -0.68900
O 	O 	0.81382 0.34376 0.42490 -0.70700
O 	O 	0.42547 0.38690 0.26129 -0.68100
O 	O 	0.97752 0.48048 0.34792 -0.66400
O 	O 	0.20538 0.40637 0.41983 -0.51000
O 	O 	0.79901 0.17380 0.40637 -0.51000
O 	O 	0.90558 0.31045 0.31811 -0.63000
