data_crystal

_cell_length_a 32.92010
_cell_length_b 32.92010
_cell_length_c 9.99200
_cell_angle_alpha 90.00000
_cell_angle_beta  90.00000
_cell_angle_gamma 120.00000

_symmetry_space_group_name_	'P 1'
_symmetry_space_group_name_H-M	'P 1'

loop_
_symmetry_equiv_pos_as_xyz
  x,y,z

loop_
_atom_site_label
_atom_site_type_symbol
_atom_site_fract_x
_atom_site_fract_y
_atom_site_fract_z
_atom_site_charge
Ag	Ag	0.23929 0.08810 0.91290 0.53200
N 	N 	0.26872 0.04872 0.01280 -0.18800
H 	H 	0.25180 0.03740 0.09180 0.08000
N 	N 	0.20660 0.10390 0.73810 -0.16800
H 	H 	0.20770 0.13180 0.76090 0.09000
C 	C 	0.32638 0.12427 0.11420 0.03300
C 	C 	0.31790 0.12780 0.24790 -0.06200
H 	H 	0.30720 0.10120 0.30470 0.04100
C 	C 	0.34172 0.16350 0.03380 -0.08100
H 	H 	0.34750 0.16150 0.94150 0.04500
C 	C 	0.31840 0.07860 0.05460 -0.11900
H 	H 	0.33910 0.08530 0.97610 0.05500
H 	H 	0.32650 0.06160 0.12150 0.05700
C 	C 	0.26310 0.00670 0.94040 -0.09700
H 	H 	0.27210 0.98850 0.00050 0.04900
H 	H 	0.28450 0.01690 0.86230 0.04400
C 	C 	0.21350 0.97580 0.89370 -0.00600
C 	C 	0.18000 0.94130 0.97500 0.00400
H 	H 	0.18930 0.93760 0.06210 0.01300
N 	N 	0.22273 0.13536 0.06090 -0.16300
C 	C 	0.20430 0.12230 0.18210 0.04800
H 	H 	0.19230 0.09060 0.20810 0.00300
C 	C 	0.20200 0.15290 0.27200 -0.08000
H 	H 	0.18920 0.14230 0.35870 0.05800
C 	C 	0.19910 0.98060 0.76490 -0.05200
H 	H 	0.22050 0.00370 0.70470 0.02600
C 	C 	0.28500 0.14200 0.64240 0.01700
C 	C 	0.30850 0.19000 0.66670 -0.07200
H 	H 	0.29140 0.20620 0.66780 0.04000
C 	C 	0.30980 0.11830 0.64360 -0.08200
H 	H 	0.29410 0.08540 0.62900 0.03700
C 	C 	0.23270 0.11420 0.61560 -0.10700
H 	H 	0.22380 0.13240 0.55590 0.06200
H 	H 	0.22500 0.08460 0.56960 0.05300
C 	C 	0.15670 0.06990 0.72400 -0.18100
H 	H 	0.15270 0.03880 0.70890 0.03000
H 	H 	0.14410 0.07710 0.64750 -0.16900
C 	C 	0.13050 0.06780 0.84030 -0.04600
C 	C 	0.11160 0.09550 0.86100 -0.52400
H 	H 	0.11570 0.11990 0.79520 0.09800
N 	N 	0.08550 0.08930 0.97500 -0.30300
C 	C 	0.08040 0.05630 0.05800 0.02300
H 	H 	0.06060 0.05160 0.13610 0.02900
C 	C 	0.07340 0.10030 0.95500 0.17000
H 	H 	0.09260 0.09670 0.88670 0.38200
C 	C 	0.12380 0.03240 0.93710 -0.05100
H 	H 	0.13730 0.01260 0.92030 0.04400
H 	H 	0.14230 0.07160 0.80550 0.17600
H 	H 	0.15480 0.03930 0.72720 0.03400
C 	C 	0.12370 0.06430 0.61970 0.49700
C 	C 	0.12530 0.04540 0.49450 -0.36200
H 	H 	0.14710 0.03410 0.48120 0.16300
N 	N 	0.09790 0.04250 0.39090 -0.23100
C 	C 	0.06850 0.05860 0.41800 -0.55800
H 	H 	0.04860 0.05720 0.34540 0.22400
C 	C 	0.06400 0.07640 0.53800 0.36700
H 	H 	0.04070 0.08600 0.54960 0.31700
C 	C 	0.09340 0.08080 0.63800 -0.43200
H 	H 	0.09300 0.09560 0.72260 0.19900
Ag	Ag	0.90595 0.42144 0.24623 0.53100
N 	N 	0.93539 0.38205 0.34613 -0.18900
H 	H 	0.91847 0.37073 0.42513 0.07900
N 	N 	0.87327 0.43723 0.07143 -0.16900
H 	H 	0.87437 0.46513 0.09423 0.08900
C 	C 	0.99305 0.45760 0.44753 0.03200
C 	C 	0.98457 0.46113 0.58123 -0.06200
H 	H 	0.97387 0.43453 0.63803 0.04100
C 	C 	0.00839 0.49683 0.36713 -0.08100
H 	H 	0.01417 0.49483 0.27483 0.04400
C 	C 	0.98507 0.41193 0.38793 -0.11800
H 	H 	0.00577 0.41863 0.30943 0.05500
H 	H 	0.99317 0.39493 0.45483 0.05700
C 	C 	0.92977 0.34003 0.27373 -0.09700
H 	H 	0.93877 0.32183 0.33383 0.04900
H 	H 	0.95117 0.35023 0.19563 0.04400
C 	C 	0.88017 0.30913 0.22703 -0.00600
C 	C 	0.84667 0.27463 0.30833 0.00400
H 	H 	0.85597 0.27093 0.39543 0.01300
N 	N 	0.88940 0.46869 0.39423 -0.16300
C 	C 	0.87097 0.45563 0.51543 0.04800
H 	H 	0.85897 0.42393 0.54143 0.00300
C 	C 	0.86867 0.48623 0.60533 -0.08000
H 	H 	0.85587 0.47563 0.69203 0.05800
C 	C 	0.86577 0.31393 0.09823 -0.05100
H 	H 	0.88717 0.33703 0.03803 0.02500
C 	C 	0.95167 0.47533 0.97573 0.01700
C 	C 	0.97517 0.52333 0.00003 -0.07200
H 	H 	0.95807 0.53953 0.00113 0.04000
C 	C 	0.97647 0.45163 0.97693 -0.08200
H 	H 	0.96077 0.41873 0.96233 0.03700
C 	C 	0.89937 0.44753 0.94893 -0.10700
H 	H 	0.89047 0.46573 0.88923 0.06200
H 	H 	0.89167 0.41793 0.90293 0.05300
C 	C 	0.82337 0.40323 0.05733 -0.18100
H 	H 	0.81937 0.37213 0.04223 0.03000
H 	H 	0.81077 0.41043 0.98083 -0.17000
C 	C 	0.79717 0.40113 0.17363 -0.04600
C 	C 	0.77827 0.42883 0.19433 -0.52400
H 	H 	0.78237 0.45323 0.12853 0.09800
N 	N 	0.75217 0.42263 0.30833 -0.30300
C 	C 	0.74707 0.38963 0.39133 0.02300
H 	H 	0.72727 0.38493 0.46943 0.02900
C 	C 	0.74007 0.43363 0.28833 0.17000
H 	H 	0.75927 0.43003 0.22003 0.38200
C 	C 	0.79047 0.36573 0.27043 -0.05100
H 	H 	0.80397 0.34593 0.25363 0.04400
H 	H 	0.80897 0.40493 0.13883 0.17600
H 	H 	0.82147 0.37263 0.06053 0.03400
C 	C 	0.79037 0.39763 0.95303 0.50000
C 	C 	0.79197 0.37873 0.82783 -0.36300
H 	H 	0.81377 0.36743 0.81453 0.16400
N 	N 	0.76457 0.37583 0.72423 -0.23100
C 	C 	0.73517 0.39193 0.75133 -0.55800
H 	H 	0.71527 0.39053 0.67873 0.22400
C 	C 	0.73067 0.40973 0.87133 0.36700
H 	H 	0.70737 0.41933 0.88293 0.31700
C 	C 	0.76007 0.41413 0.97133 -0.43300
H 	H 	0.75967 0.42893 0.05593 0.19900
Ag	Ag	0.57262 0.75477 0.57957 0.53100
N 	N 	0.60205 0.71539 0.67947 -0.18900
H 	H 	0.58513 0.70407 0.75847 0.07900
N 	N 	0.53993 0.77057 0.40477 -0.16900
H 	H 	0.54103 0.79847 0.42757 0.08900
C 	C 	0.65971 0.79094 0.78087 0.03100
C 	C 	0.65123 0.79447 0.91457 -0.06100
H 	H 	0.64053 0.76787 0.97137 0.04100
C 	C 	0.67505 0.83017 0.70047 -0.08000
H 	H 	0.68083 0.82817 0.60817 0.04400
C 	C 	0.65173 0.74527 0.72127 -0.11800
H 	H 	0.67243 0.75197 0.64277 0.05500
H 	H 	0.65983 0.72827 0.78817 0.05700
C 	C 	0.59643 0.67337 0.60707 -0.09700
H 	H 	0.60543 0.65517 0.66717 0.04900
H 	H 	0.61783 0.68357 0.52897 0.04400
C 	C 	0.54683 0.64247 0.56037 -0.00600
C 	C 	0.51333 0.60797 0.64167 0.00400
H 	H 	0.52263 0.60427 0.72877 0.01300
N 	N 	0.55606 0.80203 0.72757 -0.16300
C 	C 	0.53763 0.78897 0.84877 0.04800
H 	H 	0.52563 0.75727 0.87477 0.00300
C 	C 	0.53533 0.81957 0.93867 -0.08100
H 	H 	0.52253 0.80897 0.02537 0.05800
C 	C 	0.53243 0.64727 0.43157 -0.05200
H 	H 	0.55383 0.67037 0.37137 0.02600
C 	C 	0.61833 0.80867 0.30907 0.01700
C 	C 	0.64183 0.85667 0.33337 -0.07200
H 	H 	0.62473 0.87287 0.33447 0.04100
C 	C 	0.64313 0.78497 0.31027 -0.08200
H 	H 	0.62743 0.75207 0.29567 0.03700
C 	C 	0.56603 0.78087 0.28227 -0.10700
H 	H 	0.55713 0.79907 0.22257 0.06200
H 	H 	0.55833 0.75127 0.23627 0.05300
C 	C 	0.49003 0.73657 0.39067 -0.18100
H 	H 	0.48603 0.70547 0.37557 0.03000
H 	H 	0.47743 0.74377 0.31417 -0.16900
C 	C 	0.46383 0.73447 0.50697 -0.04600
C 	C 	0.44493 0.76217 0.52767 -0.52400
H 	H 	0.44903 0.78657 0.46187 0.09800
N 	N 	0.41883 0.75597 0.64167 -0.30300
C 	C 	0.41373 0.72297 0.72467 0.02300
H 	H 	0.39393 0.71827 0.80277 0.02900
C 	C 	0.40673 0.76697 0.62167 0.17000
H 	H 	0.42593 0.76337 0.55337 0.38200
C 	C 	0.45713 0.69907 0.60377 -0.05100
H 	H 	0.47063 0.67927 0.58697 0.04400
H 	H 	0.47563 0.73827 0.47217 0.17600
H 	H 	0.48813 0.70597 0.39387 0.03400
C 	C 	0.45703 0.73097 0.28637 0.49700
C 	C 	0.45863 0.71207 0.16117 -0.36200
H 	H 	0.48043 0.70077 0.14787 0.16300
N 	N 	0.43123 0.70917 0.05757 -0.23100
C 	C 	0.40183 0.72527 0.08467 -0.55800
H 	H 	0.38193 0.72387 0.01207 0.22400
C 	C 	0.39733 0.74307 0.20467 0.36700
H 	H 	0.37403 0.75267 0.21627 0.31700
C 	C 	0.42673 0.74747 0.30467 -0.43300
H 	H 	0.42633 0.76227 0.38927 0.19900
Ag	Ag	0.91190 0.15119 0.91290 0.53100
N 	N 	0.95128 0.22000 0.01280 -0.18900
H 	H 	0.96260 0.21440 0.09180 0.07900
N 	N 	0.89610 0.10270 0.73810 -0.16900
H 	H 	0.86820 0.07590 0.76090 0.08900
C 	C 	0.87573 0.20211 0.11420 0.03200
C 	C 	0.87220 0.19010 0.24790 -0.06200
H 	H 	0.89880 0.20600 0.30470 0.04100
C 	C 	0.83650 0.17822 0.03380 -0.08100
H 	H 	0.83850 0.18600 0.94150 0.04500
C 	C 	0.92140 0.23980 0.05460 -0.11900
H 	H 	0.91470 0.25380 0.97610 0.05500
H 	H 	0.93840 0.26490 0.12150 0.05700
C 	C 	0.99330 0.25640 0.94040 -0.09700
H 	H 	0.01150 0.28360 0.00050 0.04900
H 	H 	0.98310 0.26760 0.86230 0.04400
C 	C 	0.02420 0.23770 0.89370 -0.00600
C 	C 	0.05870 0.23870 0.97500 0.00300
H 	H 	0.06240 0.25170 0.06210 0.01300
N 	N 	0.86464 0.08737 0.06090 -0.16300
C 	C 	0.87770 0.08200 0.18210 0.04800
H 	H 	0.90940 0.10170 0.20810 0.00300
C 	C 	0.84710 0.04910 0.27200 -0.08000
H 	H 	0.85770 0.04690 0.35870 0.05800
C 	C 	0.01940 0.21850 0.76490 -0.05200
H 	H 	0.99630 0.21680 0.70470 0.02500
C 	C 	0.85800 0.14300 0.64240 0.01700
C 	C 	0.81000 0.11850 0.66670 -0.07200
H 	H 	0.79380 0.08520 0.66780 0.04000
C 	C 	0.88170 0.19150 0.64360 -0.08200
H 	H 	0.91460 0.20870 0.62900 0.03700
C 	C 	0.88580 0.11850 0.61560 -0.10700
H 	H 	0.86760 0.09140 0.55590 0.06200
H 	H 	0.91540 0.14040 0.56960 0.05300
C 	C 	0.93010 0.08680 0.72400 -0.18100
H 	H 	0.96120 0.11390 0.70890 0.03000
H 	H 	0.92290 0.06700 0.64750 -0.16900
C 	C 	0.93220 0.06270 0.84030 -0.04600
C 	C 	0.90450 0.01610 0.86100 -0.52400
H 	H 	0.88010 0.99580 0.79520 0.09800
N 	N 	0.91070 0.99620 0.97500 -0.30300
C 	C 	0.94370 0.02410 0.05800 0.02300
H 	H 	0.94840 0.00900 0.13610 0.02900
C 	C 	0.89970 0.97310 0.95500 0.17000
H 	H 	0.90330 0.99590 0.88670 0.38200
C 	C 	0.96760 0.09140 0.93710 -0.05100
H 	H 	0.98740 0.12470 0.92030 0.04400
H 	H 	0.92840 0.07070 0.80550 0.17600
H 	H 	0.96070 0.11550 0.72720 0.03400
C 	C 	0.93570 0.05940 0.61970 0.49700
C 	C 	0.95460 0.07990 0.49450 -0.36200
H 	H 	0.96590 0.11300 0.48120 0.16300
N 	N 	0.95750 0.05540 0.39090 -0.23100
C 	C 	0.94140 0.00990 0.41800 -0.55800
H 	H 	0.94280 0.99140 0.34540 0.22400
C 	C 	0.92360 0.98760 0.53800 0.36700
H 	H 	0.91400 0.95470 0.54960 0.31700
C 	C 	0.91920 0.01260 0.63800 -0.43300
H 	H 	0.90440 0.99740 0.72260 0.19900
Ag	Ag	0.57856 0.48452 0.24623 0.53100
N 	N 	0.61795 0.55333 0.34613 -0.18900
H 	H 	0.62927 0.54773 0.42513 0.07900
N 	N 	0.56277 0.43603 0.07143 -0.16900
H 	H 	0.53487 0.40923 0.09423 0.08900
C 	C 	0.54240 0.53544 0.44753 0.03200
C 	C 	0.53887 0.52343 0.58123 -0.06200
H 	H 	0.56547 0.53933 0.63803 0.04100
C 	C 	0.50317 0.51155 0.36713 -0.08100
H 	H 	0.50517 0.51933 0.27483 0.04400
C 	C 	0.58807 0.57313 0.38793 -0.11800
H 	H 	0.58137 0.58713 0.30943 0.05500
H 	H 	0.60507 0.59823 0.45483 0.05700
C 	C 	0.65997 0.58973 0.27373 -0.09700
H 	H 	0.67817 0.61693 0.33383 0.04900
H 	H 	0.64977 0.60093 0.19563 0.04400
C 	C 	0.69087 0.57103 0.22703 -0.00600
C 	C 	0.72537 0.57203 0.30833 0.00400
H 	H 	0.72907 0.58503 0.39543 0.01300
N 	N 	0.53131 0.42070 0.39423 -0.16300
C 	C 	0.54437 0.41533 0.51543 0.04800
H 	H 	0.57607 0.43503 0.54143 0.00300
C 	C 	0.51377 0.38243 0.60533 -0.08000
H 	H 	0.52437 0.38023 0.69203 0.05800
C 	C 	0.68607 0.55183 0.09823 -0.05100
H 	H 	0.66297 0.55013 0.03803 0.02500
C 	C 	0.52467 0.47633 0.97573 0.01700
C 	C 	0.47667 0.45183 0.00003 -0.07200
H 	H 	0.46047 0.41853 0.00113 0.04000
C 	C 	0.54837 0.52483 0.97693 -0.08200
H 	H 	0.58127 0.54203 0.96233 0.03700
C 	C 	0.55247 0.45183 0.94893 -0.10700
H 	H 	0.53427 0.42473 0.88923 0.06200
H 	H 	0.58207 0.47373 0.90293 0.05300
C 	C 	0.59677 0.42013 0.05733 -0.18100
H 	H 	0.62787 0.44723 0.04223 0.03000
H 	H 	0.58957 0.40033 0.98083 -0.17000
C 	C 	0.59887 0.39603 0.17363 -0.04600
C 	C 	0.57117 0.34943 0.19433 -0.52400
H 	H 	0.54677 0.32913 0.12853 0.09800
N 	N 	0.57737 0.32953 0.30833 -0.30300
C 	C 	0.61037 0.35743 0.39133 0.02300
H 	H 	0.61507 0.34233 0.46943 0.02900
C 	C 	0.56637 0.30643 0.28833 0.17000
H 	H 	0.56997 0.32923 0.22003 0.38200
C 	C 	0.63427 0.42473 0.27043 -0.05100
H 	H 	0.65407 0.45803 0.25363 0.04400
H 	H 	0.59507 0.40403 0.13883 0.17600
H 	H 	0.62737 0.44883 0.06053 0.03400
C 	C 	0.60237 0.39273 0.95303 0.50000
C 	C 	0.62127 0.41323 0.82783 -0.36300
H 	H 	0.63257 0.44633 0.81453 0.16400
N 	N 	0.62417 0.38873 0.72423 -0.23100
C 	C 	0.60807 0.34323 0.75133 -0.55800
H 	H 	0.60947 0.32473 0.67873 0.22400
C 	C 	0.59027 0.32093 0.87133 0.36700
H 	H 	0.58067 0.28803 0.88293 0.31700
C 	C 	0.58587 0.34593 0.97133 -0.43300
H 	H 	0.57107 0.33073 0.05593 0.19900
Ag	Ag	0.24523 0.81785 0.57957 0.53100
N 	N 	0.28461 0.88667 0.67947 -0.18900
H 	H 	0.29593 0.88107 0.75847 0.07900
N 	N 	0.22943 0.76937 0.40477 -0.16900
H 	H 	0.20153 0.74257 0.42757 0.08900
C 	C 	0.20906 0.86878 0.78087 0.03100
C 	C 	0.20553 0.85677 0.91457 -0.06100
H 	H 	0.23213 0.87267 0.97137 0.04100
C 	C 	0.16983 0.84489 0.70047 -0.08000
H 	H 	0.17183 0.85267 0.60817 0.04400
C 	C 	0.25473 0.90647 0.72127 -0.11800
H 	H 	0.24803 0.92047 0.64277 0.05500
H 	H 	0.27173 0.93157 0.78817 0.05700
C 	C 	0.32663 0.92307 0.60707 -0.09700
H 	H 	0.34483 0.95027 0.66717 0.04900
H 	H 	0.31643 0.93427 0.52897 0.04400
C 	C 	0.35753 0.90437 0.56037 -0.00600
C 	C 	0.39203 0.90537 0.64167 0.00400
H 	H 	0.39573 0.91837 0.72877 0.01300
N 	N 	0.19797 0.75404 0.72757 -0.16300
C 	C 	0.21103 0.74867 0.84877 0.04800
H 	H 	0.24273 0.76837 0.87477 0.00300
C 	C 	0.18043 0.71577 0.93867 -0.08100
H 	H 	0.19103 0.71357 0.02537 0.05800
C 	C 	0.35273 0.88517 0.43157 -0.05200
H 	H 	0.32963 0.88347 0.37137 0.02600
C 	C 	0.19133 0.80967 0.30907 0.01700
C 	C 	0.14333 0.78517 0.33337 -0.07200
H 	H 	0.12713 0.75187 0.33447 0.04000
C 	C 	0.21503 0.85817 0.31027 -0.08200
H 	H 	0.24793 0.87537 0.29567 0.03700
C 	C 	0.21913 0.78517 0.28227 -0.10700
H 	H 	0.20093 0.75807 0.22257 0.06200
H 	H 	0.24873 0.80707 0.23627 0.05300
C 	C 	0.26343 0.75347 0.39067 -0.18100
H 	H 	0.29453 0.78057 0.37557 0.03000
H 	H 	0.25623 0.73367 0.31417 -0.16900
C 	C 	0.26553 0.72937 0.50697 -0.04600
C 	C 	0.23783 0.68277 0.52767 -0.52400
H 	H 	0.21343 0.66247 0.46187 0.09800
N 	N 	0.24403 0.66287 0.64167 -0.30300
C 	C 	0.27703 0.69077 0.72467 0.02300
H 	H 	0.28173 0.67567 0.80277 0.02900
C 	C 	0.23303 0.63977 0.62167 0.17000
H 	H 	0.23663 0.66257 0.55337 0.38200
C 	C 	0.30093 0.75807 0.60377 -0.05100
H 	H 	0.32073 0.79137 0.58697 0.04400
H 	H 	0.26173 0.73737 0.47217 0.17600
H 	H 	0.29403 0.78217 0.39387 0.03400
C 	C 	0.26903 0.72607 0.28637 0.49700
C 	C 	0.28793 0.74657 0.16117 -0.36200
H 	H 	0.29923 0.77967 0.14787 0.16300
N 	N 	0.29083 0.72207 0.05757 -0.23100
C 	C 	0.27473 0.67657 0.08467 -0.55800
H 	H 	0.27613 0.65807 0.01207 0.22400
C 	C 	0.25693 0.65427 0.20467 0.36700
H 	H 	0.24733 0.62137 0.21627 0.31700
C 	C 	0.25253 0.67927 0.30467 -0.43300
H 	H 	0.23773 0.66407 0.38927 0.19900
Ag	Ag	0.84881 0.76071 0.91290 0.53100
N 	N 	0.78000 0.73128 0.01280 -0.18900
H 	H 	0.78560 0.74820 0.09180 0.07900
N 	N 	0.89730 0.79340 0.73810 -0.16900
H 	H 	0.92410 0.79230 0.76090 0.08900
C 	C 	0.79789 0.67362 0.11420 0.03200
C 	C 	0.80990 0.68210 0.24790 -0.06200
H 	H 	0.79400 0.69280 0.30470 0.04100
C 	C 	0.82178 0.65828 0.03380 -0.08100
H 	H 	0.81400 0.65250 0.94150 0.04500
C 	C 	0.76020 0.68160 0.05460 -0.11900
H 	H 	0.74620 0.66090 0.97610 0.05500
H 	H 	0.73510 0.67350 0.12150 0.05700
C 	C 	0.74360 0.73690 0.94040 -0.09700
H 	H 	0.71640 0.72790 0.00050 0.04900
H 	H 	0.73240 0.71550 0.86230 0.04400
C 	C 	0.76230 0.78650 0.89370 -0.00600
C 	C 	0.76130 0.82000 0.97500 0.00300
H 	H 	0.74830 0.81070 0.06210 0.01300
N 	N 	0.91263 0.77727 0.06090 -0.16300
C 	C 	0.91800 0.79570 0.18210 0.04800
H 	H 	0.89830 0.80770 0.20810 0.00300
C 	C 	0.95090 0.79800 0.27200 -0.08000
H 	H 	0.95310 0.81080 0.35870 0.05800
C 	C 	0.78150 0.80090 0.76490 -0.05200
H 	H 	0.78320 0.77950 0.70470 0.02600
C 	C 	0.85700 0.71500 0.64240 0.01700
C 	C 	0.88150 0.69150 0.66670 -0.07200
H 	H 	0.91480 0.70860 0.66780 0.04000
C 	C 	0.80850 0.69020 0.64360 -0.08200
H 	H 	0.79130 0.70590 0.62900 0.03700
C 	C 	0.88150 0.76730 0.61560 -0.10700
H 	H 	0.90860 0.77620 0.55590 0.06200
H 	H 	0.85960 0.77500 0.56960 0.05300
C 	C 	0.91320 0.84330 0.72400 -0.18100
H 	H 	0.88610 0.84730 0.70890 0.03000
H 	H 	0.93300 0.85590 0.64750 -0.16900
C 	C 	0.93730 0.86950 0.84030 -0.04700
C 	C 	0.98390 0.88840 0.86100 -0.52400
H 	H 	0.00420 0.88430 0.79520 0.09800
N 	N 	0.00380 0.91450 0.97500 -0.30300
C 	C 	0.97590 0.91960 0.05800 0.02300
H 	H 	0.99100 0.93940 0.13610 0.02900
C 	C 	0.02690 0.92660 0.95500 0.17000
H 	H 	0.00410 0.90740 0.88670 0.38200
C 	C 	0.90860 0.87620 0.93710 -0.05100
H 	H 	0.87530 0.86270 0.92030 0.04400
H 	H 	0.92930 0.85770 0.80550 0.17600
H 	H 	0.88450 0.84520 0.72720 0.03400
C 	C 	0.94060 0.87630 0.61970 0.49800
C 	C 	0.92010 0.87470 0.49450 -0.36200
H 	H 	0.88700 0.85290 0.48120 0.16300
N 	N 	0.94460 0.90210 0.39090 -0.23100
C 	C 	0.99010 0.93150 0.41800 -0.55800
H 	H 	0.00860 0.95140 0.34540 0.22400
C 	C 	0.01240 0.93600 0.53800 0.36600
H 	H 	0.04530 0.95930 0.54960 0.31700
C 	C 	0.98740 0.90660 0.63800 -0.43200
H 	H 	0.00260 0.90700 0.72260 0.19900
Ag	Ag	0.51548 0.09405 0.24623 0.53100
N 	N 	0.44667 0.06461 0.34613 -0.18900
H 	H 	0.45227 0.08153 0.42513 0.07900
N 	N 	0.56397 0.12673 0.07143 -0.16900
H 	H 	0.59077 0.12563 0.09423 0.08900
C 	C 	0.46456 0.00695 0.44753 0.03200
C 	C 	0.47657 0.01543 0.58123 -0.06200
H 	H 	0.46067 0.02613 0.63803 0.04100
C 	C 	0.48845 0.99161 0.36713 -0.08100
H 	H 	0.48067 0.98583 0.27483 0.04400
C 	C 	0.42687 0.01493 0.38793 -0.11800
H 	H 	0.41287 0.99423 0.30943 0.05500
H 	H 	0.40177 0.00683 0.45483 0.05700
C 	C 	0.41027 0.07023 0.27373 -0.09700
H 	H 	0.38307 0.06123 0.33383 0.04900
H 	H 	0.39907 0.04883 0.19563 0.04400
C 	C 	0.42897 0.11983 0.22703 -0.00600
C 	C 	0.42797 0.15333 0.30833 0.00400
H 	H 	0.41497 0.14403 0.39543 0.01300
N 	N 	0.57930 0.11060 0.39423 -0.16300
C 	C 	0.58467 0.12903 0.51543 0.04800
H 	H 	0.56497 0.14103 0.54143 0.00300
C 	C 	0.61757 0.13133 0.60533 -0.08000
H 	H 	0.61977 0.14413 0.69203 0.05800
C 	C 	0.44817 0.13423 0.09823 -0.05100
H 	H 	0.44987 0.11283 0.03803 0.02500
C 	C 	0.52367 0.04833 0.97573 0.01700
C 	C 	0.54817 0.02483 0.00003 -0.07200
H 	H 	0.58147 0.04193 0.00113 0.04000
C 	C 	0.47517 0.02353 0.97693 -0.08200
H 	H 	0.45797 0.03923 0.96233 0.03700
C 	C 	0.54817 0.10063 0.94893 -0.10700
H 	H 	0.57527 0.10953 0.88923 0.06200
H 	H 	0.52627 0.10833 0.90293 0.05300
C 	C 	0.57987 0.17663 0.05733 -0.18100
H 	H 	0.55277 0.18063 0.04223 0.03000
H 	H 	0.59967 0.18923 0.98083 -0.17000
C 	C 	0.60397 0.20283 0.17363 -0.04600
C 	C 	0.65057 0.22173 0.19433 -0.52400
H 	H 	0.67087 0.21763 0.12853 0.09800
N 	N 	0.67047 0.24783 0.30833 -0.30300
C 	C 	0.64257 0.25293 0.39133 0.02300
H 	H 	0.65767 0.27273 0.46943 0.02900
C 	C 	0.69357 0.25993 0.28833 0.17000
H 	H 	0.67077 0.24073 0.22003 0.38200
C 	C 	0.57527 0.20953 0.27043 -0.05100
H 	H 	0.54197 0.19603 0.25363 0.04400
H 	H 	0.59597 0.19103 0.13883 0.17600
H 	H 	0.55117 0.17853 0.06053 0.03400
C 	C 	0.60727 0.20963 0.95303 0.50000
C 	C 	0.58677 0.20803 0.82783 -0.36300
H 	H 	0.55367 0.18623 0.81453 0.16400
N 	N 	0.61127 0.23543 0.72423 -0.23100
C 	C 	0.65677 0.26483 0.75133 -0.55800
H 	H 	0.67527 0.28473 0.67873 0.22400
C 	C 	0.67907 0.26933 0.87133 0.36700
H 	H 	0.71197 0.29263 0.88293 0.31700
C 	C 	0.65407 0.23993 0.97133 -0.43300
H 	H 	0.66927 0.24033 0.05593 0.19900
Ag	Ag	0.18215 0.42738 0.57957 0.53100
N 	N 	0.11333 0.39795 0.67947 -0.18900
H 	H 	0.11893 0.41487 0.75847 0.07900
N 	N 	0.23063 0.46007 0.40477 -0.16900
H 	H 	0.25743 0.45897 0.42757 0.08900
C 	C 	0.13122 0.34029 0.78087 0.03100
C 	C 	0.14323 0.34877 0.91457 -0.06100
H 	H 	0.12733 0.35947 0.97137 0.04100
C 	C 	0.15511 0.32495 0.70047 -0.08000
H 	H 	0.14733 0.31917 0.60817 0.04400
C 	C 	0.09353 0.34827 0.72127 -0.11800
H 	H 	0.07953 0.32757 0.64277 0.05500
H 	H 	0.06843 0.34017 0.78817 0.05700
C 	C 	0.07693 0.40357 0.60707 -0.09700
H 	H 	0.04973 0.39457 0.66717 0.04900
H 	H 	0.06573 0.38217 0.52897 0.04400
C 	C 	0.09563 0.45317 0.56037 -0.00600
C 	C 	0.09463 0.48667 0.64167 0.00400
H 	H 	0.08163 0.47737 0.72877 0.01300
N 	N 	0.24596 0.44394 0.72757 -0.16300
C 	C 	0.25133 0.46237 0.84877 0.04800
H 	H 	0.23163 0.47437 0.87477 0.00300
C 	C 	0.28423 0.46467 0.93867 -0.08100
H 	H 	0.28643 0.47747 0.02537 0.05800
C 	C 	0.11483 0.46757 0.43157 -0.05200
H 	H 	0.11653 0.44617 0.37137 0.02600
C 	C 	0.19033 0.38167 0.30907 0.01700
C 	C 	0.21483 0.35817 0.33337 -0.07200
H 	H 	0.24813 0.37527 0.33447 0.04100
C 	C 	0.14183 0.35687 0.31027 -0.08200
H 	H 	0.12463 0.37257 0.29567 0.03700
C 	C 	0.21483 0.43397 0.28227 -0.10700
H 	H 	0.24193 0.44287 0.22257 0.06200
H 	H 	0.19293 0.44167 0.23627 0.05300
C 	C 	0.24653 0.50997 0.39067 -0.18100
H 	H 	0.21943 0.51397 0.37557 0.03000
H 	H 	0.26633 0.52257 0.31417 -0.16900
C 	C 	0.27063 0.53617 0.50697 -0.04600
C 	C 	0.31723 0.55507 0.52767 -0.52400
H 	H 	0.33753 0.55097 0.46187 0.09800
N 	N 	0.33713 0.58117 0.64167 -0.30300
C 	C 	0.30923 0.58627 0.72467 0.02300
H 	H 	0.32433 0.60607 0.80277 0.02900
C 	C 	0.36023 0.59327 0.62167 0.17000
H 	H 	0.33743 0.57407 0.55337 0.38200
C 	C 	0.24193 0.54287 0.60377 -0.05100
H 	H 	0.20863 0.52937 0.58697 0.04400
H 	H 	0.26263 0.52437 0.47217 0.17600
H 	H 	0.21783 0.51187 0.39387 0.03400
C 	C 	0.27393 0.54297 0.28637 0.49700
C 	C 	0.25343 0.54137 0.16117 -0.36200
H 	H 	0.22033 0.51957 0.14787 0.16300
N 	N 	0.27793 0.56877 0.05757 -0.23100
C 	C 	0.32343 0.59817 0.08467 -0.55800
H 	H 	0.34193 0.61807 0.01207 0.22400
C 	C 	0.34573 0.60267 0.20467 0.36700
H 	H 	0.37863 0.62597 0.21627 0.31700
C 	C 	0.32073 0.57327 0.30467 -0.43300
H 	H 	0.33593 0.57367 0.38927 0.19900
Ag	Ag	0.76071 0.91190 0.08710 0.53100
N 	N 	0.73128 0.95128 0.98720 -0.18900
H 	H 	0.74820 0.96260 0.90820 0.07900
N 	N 	0.79340 0.89610 0.26190 -0.16900
H 	H 	0.79230 0.86820 0.23910 0.08900
C 	C 	0.67362 0.87573 0.88580 0.03200
C 	C 	0.68210 0.87220 0.75210 -0.06200
H 	H 	0.69280 0.89880 0.69530 0.04100
C 	C 	0.65828 0.83650 0.96620 -0.08100
H 	H 	0.65250 0.83850 0.05850 0.04500
C 	C 	0.68160 0.92140 0.94540 -0.11900
H 	H 	0.66090 0.91470 0.02390 0.05500
H 	H 	0.67350 0.93840 0.87850 0.05700
C 	C 	0.73690 0.99330 0.05960 -0.09700
H 	H 	0.72790 0.01150 0.99950 0.04900
H 	H 	0.71550 0.98310 0.13770 0.04400
C 	C 	0.78650 0.02420 0.10630 -0.00600
C 	C 	0.82000 0.05870 0.02500 0.00400
H 	H 	0.81070 0.06240 0.93790 0.01300
N 	N 	0.77727 0.86464 0.93910 -0.16300
C 	C 	0.79570 0.87770 0.81790 0.04800
H 	H 	0.80770 0.90940 0.79190 0.00300
C 	C 	0.79800 0.84710 0.72800 -0.08000
H 	H 	0.81080 0.85770 0.64130 0.05800
C 	C 	0.80090 0.01940 0.23510 -0.05200
H 	H 	0.77950 0.99630 0.29530 0.02600
C 	C 	0.71500 0.85800 0.35760 0.01700
C 	C 	0.69150 0.81000 0.33330 -0.07200
H 	H 	0.70860 0.79380 0.33220 0.04000
C 	C 	0.69020 0.88170 0.35640 -0.08200
H 	H 	0.70590 0.91460 0.37100 0.03700
C 	C 	0.76730 0.88580 0.38440 -0.10700
H 	H 	0.77620 0.86760 0.44410 0.06200
H 	H 	0.77500 0.91540 0.43040 0.05300
C 	C 	0.84330 0.93010 0.27600 -0.18100
H 	H 	0.84730 0.96120 0.29110 0.03000
H 	H 	0.85590 0.92290 0.35250 -0.16900
C 	C 	0.86950 0.93220 0.15970 -0.04600
C 	C 	0.88840 0.90450 0.13900 -0.52400
H 	H 	0.88430 0.88010 0.20480 0.09800
N 	N 	0.91450 0.91070 0.02500 -0.30300
C 	C 	0.91960 0.94370 0.94200 0.02300
H 	H 	0.93940 0.94840 0.86390 0.02900
C 	C 	0.92660 0.89970 0.04500 0.17000
H 	H 	0.90740 0.90330 0.11330 0.38200
C 	C 	0.87620 0.96760 0.06290 -0.05100
H 	H 	0.86270 0.98740 0.07970 0.04400
H 	H 	0.85770 0.92840 0.19450 0.17600
H 	H 	0.84520 0.96070 0.27280 0.03400
C 	C 	0.87630 0.93570 0.38030 0.49700
C 	C 	0.87470 0.95460 0.50550 -0.36200
H 	H 	0.85290 0.96590 0.51880 0.16300
N 	N 	0.90210 0.95750 0.60910 -0.23100
C 	C 	0.93150 0.94140 0.58200 -0.55800
H 	H 	0.95140 0.94280 0.65460 0.22400
C 	C 	0.93600 0.92360 0.46200 0.36700
H 	H 	0.95930 0.91400 0.45040 0.31700
C 	C 	0.90660 0.91920 0.36200 -0.43200
H 	H 	0.90700 0.90440 0.27740 0.19900
Ag	Ag	0.42738 0.24523 0.42043 0.53100
N 	N 	0.39795 0.28461 0.32053 -0.18900
H 	H 	0.41487 0.29593 0.24153 0.07900
N 	N 	0.46007 0.22943 0.59523 -0.16900
H 	H 	0.45897 0.20153 0.57243 0.08900
C 	C 	0.34029 0.20906 0.21913 0.03100
C 	C 	0.34877 0.20553 0.08543 -0.06100
H 	H 	0.35947 0.23213 0.02863 0.04100
C 	C 	0.32495 0.16983 0.29953 -0.08000
H 	H 	0.31917 0.17183 0.39183 0.04400
C 	C 	0.34827 0.25473 0.27873 -0.11800
H 	H 	0.32757 0.24803 0.35723 0.05500
H 	H 	0.34017 0.27173 0.21183 0.05700
C 	C 	0.40357 0.32663 0.39293 -0.09700
H 	H 	0.39457 0.34483 0.33283 0.04900
H 	H 	0.38217 0.31643 0.47103 0.04400
C 	C 	0.45317 0.35753 0.43963 -0.00600
C 	C 	0.48667 0.39203 0.35833 0.00400
H 	H 	0.47737 0.39573 0.27123 0.01300
N 	N 	0.44394 0.19797 0.27243 -0.16300
C 	C 	0.46237 0.21103 0.15123 0.04800
H 	H 	0.47437 0.24273 0.12523 0.00300
C 	C 	0.46467 0.18043 0.06133 -0.08100
H 	H 	0.47747 0.19103 0.97463 0.05800
C 	C 	0.46757 0.35273 0.56843 -0.05200
H 	H 	0.44617 0.32963 0.62863 0.02600
C 	C 	0.38167 0.19133 0.69093 0.01700
C 	C 	0.35817 0.14333 0.66663 -0.07200
H 	H 	0.37527 0.12713 0.66553 0.04100
C 	C 	0.35687 0.21503 0.68973 -0.08200
H 	H 	0.37257 0.24793 0.70433 0.03700
C 	C 	0.43397 0.21913 0.71773 -0.10700
H 	H 	0.44287 0.20093 0.77743 0.06200
H 	H 	0.44167 0.24873 0.76373 0.05300
C 	C 	0.50997 0.26343 0.60933 -0.18100
H 	H 	0.51397 0.29453 0.62443 0.03000
H 	H 	0.52257 0.25623 0.68583 -0.16900
C 	C 	0.53617 0.26553 0.49303 -0.04600
C 	C 	0.55507 0.23783 0.47233 -0.52400
H 	H 	0.55097 0.21343 0.53813 0.09800
N 	N 	0.58117 0.24403 0.35833 -0.30300
C 	C 	0.58627 0.27703 0.27533 0.02300
H 	H 	0.60607 0.28173 0.19723 0.02900
C 	C 	0.59327 0.23303 0.37833 0.17000
H 	H 	0.57407 0.23663 0.44663 0.38200
C 	C 	0.54287 0.30093 0.39623 -0.05100
H 	H 	0.52937 0.32073 0.41303 0.04400
H 	H 	0.52437 0.26173 0.52783 0.17600
H 	H 	0.51187 0.29403 0.60613 0.03400
C 	C 	0.54297 0.26903 0.71363 0.49700
C 	C 	0.54137 0.28793 0.83883 -0.36200
H 	H 	0.51957 0.29923 0.85213 0.16300
N 	N 	0.56877 0.29083 0.94243 -0.23100
C 	C 	0.59817 0.27473 0.91533 -0.55800
H 	H 	0.61807 0.27613 0.98793 0.22400
C 	C 	0.60267 0.25693 0.79533 0.36700
H 	H 	0.62597 0.24733 0.78373 0.31700
C 	C 	0.57327 0.25253 0.69533 -0.43300
H 	H 	0.57367 0.23773 0.61073 0.19900
Ag	Ag	0.09405 0.57856 0.75377 0.53100
N 	N 	0.06461 0.61795 0.65387 -0.18900
H 	H 	0.08153 0.62927 0.57487 0.07900
N 	N 	0.12673 0.56277 0.92857 -0.16900
H 	H 	0.12563 0.53487 0.90577 0.08900
C 	C 	0.00695 0.54240 0.55247 0.03200
C 	C 	0.01543 0.53887 0.41877 -0.06200
H 	H 	0.02613 0.56547 0.36197 0.04100
C 	C 	0.99161 0.50317 0.63287 -0.08100
H 	H 	0.98583 0.50517 0.72517 0.04400
C 	C 	0.01493 0.58807 0.61207 -0.11800
H 	H 	0.99423 0.58137 0.69057 0.05500
H 	H 	0.00683 0.60507 0.54517 0.05700
C 	C 	0.07023 0.65997 0.72627 -0.09700
H 	H 	0.06123 0.67817 0.66617 0.04900
H 	H 	0.04883 0.64977 0.80437 0.04400
C 	C 	0.11983 0.69087 0.77297 -0.00600
C 	C 	0.15333 0.72537 0.69167 0.00400
H 	H 	0.14403 0.72907 0.60457 0.01300
N 	N 	0.11060 0.53131 0.60577 -0.16300
C 	C 	0.12903 0.54437 0.48457 0.04800
H 	H 	0.14103 0.57607 0.45857 0.00300
C 	C 	0.13133 0.51377 0.39467 -0.08000
H 	H 	0.14413 0.52437 0.30797 0.05800
C 	C 	0.13423 0.68607 0.90177 -0.05100
H 	H 	0.11283 0.66297 0.96197 0.02500
C 	C 	0.04833 0.52467 0.02427 0.01700
C 	C 	0.02483 0.47667 0.99997 -0.07200
H 	H 	0.04193 0.46047 0.99887 0.04000
C 	C 	0.02353 0.54837 0.02307 -0.08200
H 	H 	0.03923 0.58127 0.03767 0.03700
C 	C 	0.10063 0.55247 0.05107 -0.10700
H 	H 	0.10953 0.53427 0.11077 0.06200
H 	H 	0.10833 0.58207 0.09707 0.05300
C 	C 	0.17663 0.59677 0.94267 -0.18100
H 	H 	0.18063 0.62787 0.95777 0.03000
H 	H 	0.18923 0.58957 0.01917 -0.17000
C 	C 	0.20283 0.59887 0.82637 -0.04600
C 	C 	0.22173 0.57117 0.80567 -0.52400
H 	H 	0.21763 0.54677 0.87147 0.09800
N 	N 	0.24783 0.57737 0.69167 -0.30300
C 	C 	0.25293 0.61037 0.60867 0.02300
H 	H 	0.27273 0.61507 0.53057 0.02900
C 	C 	0.25993 0.56637 0.71167 0.17000
H 	H 	0.24073 0.56997 0.77997 0.38200
C 	C 	0.20953 0.63427 0.72957 -0.05100
H 	H 	0.19603 0.65407 0.74637 0.04400
H 	H 	0.19103 0.59507 0.86117 0.17600
H 	H 	0.17853 0.62737 0.93947 0.03400
C 	C 	0.20963 0.60237 0.04697 0.50000
C 	C 	0.20803 0.62127 0.17217 -0.36300
H 	H 	0.18623 0.63257 0.18547 0.16400
N 	N 	0.23543 0.62417 0.27577 -0.23100
C 	C 	0.26483 0.60807 0.24867 -0.55800
H 	H 	0.28473 0.60947 0.32127 0.22400
C 	C 	0.26933 0.59027 0.12867 0.36700
H 	H 	0.29263 0.58067 0.11707 0.31700
C 	C 	0.23993 0.58587 0.02867 -0.43300
H 	H 	0.24033 0.57107 0.94407 0.19900
Ag	Ag	0.08810 0.84881 0.08710 0.53100
N 	N 	0.04872 0.78000 0.98720 -0.18900
H 	H 	0.03740 0.78560 0.90820 0.07900
N 	N 	0.10390 0.89730 0.26190 -0.16900
H 	H 	0.13180 0.92410 0.23910 0.08900
C 	C 	0.12427 0.79789 0.88580 0.03200
C 	C 	0.12780 0.80990 0.75210 -0.06200
H 	H 	0.10120 0.79400 0.69530 0.04100
C 	C 	0.16350 0.82178 0.96620 -0.08100
H 	H 	0.16150 0.81400 0.05850 0.04500
C 	C 	0.07860 0.76020 0.94540 -0.11900
H 	H 	0.08530 0.74620 0.02390 0.05500
H 	H 	0.06160 0.73510 0.87850 0.05700
C 	C 	0.00670 0.74360 0.05960 -0.09700
H 	H 	0.98850 0.71640 0.99950 0.04900
H 	H 	0.01690 0.73240 0.13770 0.04400
C 	C 	0.97580 0.76230 0.10630 -0.00600
C 	C 	0.94130 0.76130 0.02500 0.00300
H 	H 	0.93760 0.74830 0.93790 0.01300
N 	N 	0.13536 0.91263 0.93910 -0.16300
C 	C 	0.12230 0.91800 0.81790 0.04800
H 	H 	0.09060 0.89830 0.79190 0.00300
C 	C 	0.15290 0.95090 0.72800 -0.08000
H 	H 	0.14230 0.95310 0.64130 0.05800
C 	C 	0.98060 0.78150 0.23510 -0.05200
H 	H 	0.00370 0.78320 0.29530 0.02500
C 	C 	0.14200 0.85700 0.35760 0.01700
C 	C 	0.19000 0.88150 0.33330 -0.07200
H 	H 	0.20620 0.91480 0.33220 0.04000
C 	C 	0.11830 0.80850 0.35640 -0.08200
H 	H 	0.08540 0.79130 0.37100 0.03700
C 	C 	0.11420 0.88150 0.38440 -0.10700
H 	H 	0.13240 0.90860 0.44410 0.06200
H 	H 	0.08460 0.85960 0.43040 0.05300
C 	C 	0.06990 0.91320 0.27600 -0.18100
H 	H 	0.03880 0.88610 0.29110 0.03000
H 	H 	0.07710 0.93300 0.35250 -0.16900
C 	C 	0.06780 0.93730 0.15970 -0.04600
C 	C 	0.09550 0.98390 0.13900 -0.52400
H 	H 	0.11990 0.00420 0.20480 0.09800
N 	N 	0.08930 0.00380 0.02500 -0.30300
C 	C 	0.05630 0.97590 0.94200 0.02300
H 	H 	0.05160 0.99100 0.86390 0.02900
C 	C 	0.10030 0.02690 0.04500 0.17000
H 	H 	0.09670 0.00410 0.11330 0.38200
C 	C 	0.03240 0.90860 0.06290 -0.05100
H 	H 	0.01260 0.87530 0.07970 0.04400
H 	H 	0.07160 0.92930 0.19450 0.17600
H 	H 	0.03930 0.88450 0.27280 0.03400
C 	C 	0.06430 0.94060 0.38030 0.49700
C 	C 	0.04540 0.92010 0.50550 -0.36200
H 	H 	0.03410 0.88700 0.51880 0.16300
N 	N 	0.04250 0.94460 0.60910 -0.23100
C 	C 	0.05860 0.99010 0.58200 -0.55800
H 	H 	0.05720 0.00860 0.65460 0.22400
C 	C 	0.07640 0.01240 0.46200 0.36700
H 	H 	0.08600 0.04530 0.45040 0.31700
C 	C 	0.08080 0.98740 0.36200 -0.43300
H 	H 	0.09560 0.00260 0.27740 0.19900
Ag	Ag	0.75477 0.18215 0.42043 0.53100
N 	N 	0.71539 0.11333 0.32053 -0.18900
H 	H 	0.70407 0.11893 0.24153 0.07900
N 	N 	0.77057 0.23063 0.59523 -0.16900
H 	H 	0.79847 0.25743 0.57243 0.08900
C 	C 	0.79094 0.13122 0.21913 0.03100
C 	C 	0.79447 0.14323 0.08543 -0.06100
H 	H 	0.76787 0.12733 0.02863 0.04100
C 	C 	0.83017 0.15511 0.29953 -0.08000
H 	H 	0.82817 0.14733 0.39183 0.04400
C 	C 	0.74527 0.09353 0.27873 -0.11800
H 	H 	0.75197 0.07953 0.35723 0.05500
H 	H 	0.72827 0.06843 0.21183 0.05700
C 	C 	0.67337 0.07693 0.39293 -0.09700
H 	H 	0.65517 0.04973 0.33283 0.04900
H 	H 	0.68357 0.06573 0.47103 0.04400
C 	C 	0.64247 0.09563 0.43963 -0.00600
C 	C 	0.60797 0.09463 0.35833 0.00400
H 	H 	0.60427 0.08163 0.27123 0.01300
N 	N 	0.80203 0.24596 0.27243 -0.16300
C 	C 	0.78897 0.25133 0.15123 0.04800
H 	H 	0.75727 0.23163 0.12523 0.00300
C 	C 	0.81957 0.28423 0.06133 -0.08100
H 	H 	0.80897 0.28643 0.97463 0.05800
C 	C 	0.64727 0.11483 0.56843 -0.05200
H 	H 	0.67037 0.11653 0.62863 0.02600
C 	C 	0.80867 0.19033 0.69093 0.01700
C 	C 	0.85667 0.21483 0.66663 -0.07200
H 	H 	0.87287 0.24813 0.66553 0.04000
C 	C 	0.78497 0.14183 0.68973 -0.08200
H 	H 	0.75207 0.12463 0.70433 0.03700
C 	C 	0.78087 0.21483 0.71773 -0.10700
H 	H 	0.79907 0.24193 0.77743 0.06200
H 	H 	0.75127 0.19293 0.76373 0.05300
C 	C 	0.73657 0.24653 0.60933 -0.18100
H 	H 	0.70547 0.21943 0.62443 0.03000
H 	H 	0.74377 0.26633 0.68583 -0.16900
C 	C 	0.73447 0.27063 0.49303 -0.04600
C 	C 	0.76217 0.31723 0.47233 -0.52400
H 	H 	0.78657 0.33753 0.53813 0.09800
N 	N 	0.75597 0.33713 0.35833 -0.30300
C 	C 	0.72297 0.30923 0.27533 0.02300
H 	H 	0.71827 0.32433 0.19723 0.02900
C 	C 	0.76697 0.36023 0.37833 0.17000
H 	H 	0.76337 0.33743 0.44663 0.38200
C 	C 	0.69907 0.24193 0.39623 -0.05100
H 	H 	0.67927 0.20863 0.41303 0.04400
H 	H 	0.73827 0.26263 0.52783 0.17600
H 	H 	0.70597 0.21783 0.60613 0.03400
C 	C 	0.73097 0.27393 0.71363 0.49700
C 	C 	0.71207 0.25343 0.83883 -0.36200
H 	H 	0.70077 0.22033 0.85213 0.16300
N 	N 	0.70917 0.27793 0.94243 -0.23100
C 	C 	0.72527 0.32343 0.91533 -0.55800
H 	H 	0.72387 0.34193 0.98793 0.22400
C 	C 	0.74307 0.34573 0.79533 0.36700
H 	H 	0.75267 0.37863 0.78373 0.31700
C 	C 	0.74747 0.32073 0.69533 -0.43300
H 	H 	0.76227 0.33593 0.61073 0.19900
Ag	Ag	0.42144 0.51548 0.75377 0.53100
N 	N 	0.38205 0.44667 0.65387 -0.18900
H 	H 	0.37073 0.45227 0.57487 0.07900
N 	N 	0.43723 0.56397 0.92857 -0.16900
H 	H 	0.46513 0.59077 0.90577 0.08900
C 	C 	0.45760 0.46456 0.55247 0.03200
C 	C 	0.46113 0.47657 0.41877 -0.06200
H 	H 	0.43453 0.46067 0.36197 0.04100
C 	C 	0.49683 0.48845 0.63287 -0.08100
H 	H 	0.49483 0.48067 0.72517 0.04400
C 	C 	0.41193 0.42687 0.61207 -0.11800
H 	H 	0.41863 0.41287 0.69057 0.05500
H 	H 	0.39493 0.40177 0.54517 0.05700
C 	C 	0.34003 0.41027 0.72627 -0.09700
H 	H 	0.32183 0.38307 0.66617 0.04900
H 	H 	0.35023 0.39907 0.80437 0.04400
C 	C 	0.30913 0.42897 0.77297 -0.00600
C 	C 	0.27463 0.42797 0.69167 0.00400
H 	H 	0.27093 0.41497 0.60457 0.01300
N 	N 	0.46869 0.57930 0.60577 -0.16300
C 	C 	0.45563 0.58467 0.48457 0.04800
H 	H 	0.42393 0.56497 0.45857 0.00300
C 	C 	0.48623 0.61757 0.39467 -0.08000
H 	H 	0.47563 0.61977 0.30797 0.05800
C 	C 	0.31393 0.44817 0.90177 -0.05100
H 	H 	0.33703 0.44987 0.96197 0.02500
C 	C 	0.47533 0.52367 0.02427 0.01700
C 	C 	0.52333 0.54817 0.99997 -0.07200
H 	H 	0.53953 0.58147 0.99887 0.04000
C 	C 	0.45163 0.47517 0.02307 -0.08200
H 	H 	0.41873 0.45797 0.03767 0.03700
C 	C 	0.44753 0.54817 0.05107 -0.10700
H 	H 	0.46573 0.57527 0.11077 0.06200
H 	H 	0.41793 0.52627 0.09707 0.05300
C 	C 	0.40323 0.57987 0.94267 -0.18100
H 	H 	0.37213 0.55277 0.95777 0.03000
H 	H 	0.41043 0.59967 0.01917 -0.17000
C 	C 	0.40113 0.60397 0.82637 -0.04600
C 	C 	0.42883 0.65057 0.80567 -0.52400
H 	H 	0.45323 0.67087 0.87147 0.09800
N 	N 	0.42263 0.67047 0.69167 -0.30300
C 	C 	0.38963 0.64257 0.60867 0.02300
H 	H 	0.38493 0.65767 0.53057 0.02900
C 	C 	0.43363 0.69357 0.71167 0.17000
H 	H 	0.43003 0.67077 0.77997 0.38200
C 	C 	0.36573 0.57527 0.72957 -0.05100
H 	H 	0.34593 0.54197 0.74637 0.04400
H 	H 	0.40493 0.59597 0.86117 0.17600
H 	H 	0.37263 0.55117 0.93947 0.03400
C 	C 	0.39763 0.60727 0.04697 0.50000
C 	C 	0.37873 0.58677 0.17217 -0.36300
H 	H 	0.36743 0.55367 0.18547 0.16400
N 	N 	0.37583 0.61127 0.27577 -0.23100
C 	C 	0.39193 0.65677 0.24867 -0.55800
H 	H 	0.39053 0.67527 0.32127 0.22400
C 	C 	0.40973 0.67907 0.12867 0.36700
H 	H 	0.41933 0.71197 0.11707 0.31700
C 	C 	0.41413 0.65407 0.02867 -0.43300
H 	H 	0.42893 0.66927 0.94407 0.19900
Ag	Ag	0.15119 0.23929 0.08710 0.53100
N 	N 	0.22000 0.26872 0.98720 -0.18900
H 	H 	0.21440 0.25180 0.90820 0.07900
N 	N 	0.10270 0.20660 0.26190 -0.16900
H 	H 	0.07590 0.20770 0.23910 0.08900
C 	C 	0.20211 0.32638 0.88580 0.03200
C 	C 	0.19010 0.31790 0.75210 -0.06200
H 	H 	0.20600 0.30720 0.69530 0.04100
C 	C 	0.17822 0.34172 0.96620 -0.08100
H 	H 	0.18600 0.34750 0.05850 0.04500
C 	C 	0.23980 0.31840 0.94540 -0.11900
H 	H 	0.25380 0.33910 0.02390 0.05500
H 	H 	0.26490 0.32650 0.87850 0.05700
C 	C 	0.25640 0.26310 0.05960 -0.09700
H 	H 	0.28360 0.27210 0.99950 0.04900
H 	H 	0.26760 0.28450 0.13770 0.04400
C 	C 	0.23770 0.21350 0.10630 -0.00600
C 	C 	0.23870 0.18000 0.02500 0.00300
H 	H 	0.25170 0.18930 0.93790 0.01300
N 	N 	0.08737 0.22273 0.93910 -0.16300
C 	C 	0.08200 0.20430 0.81790 0.04800
H 	H 	0.10170 0.19230 0.79190 0.00300
C 	C 	0.04910 0.20200 0.72800 -0.08000
H 	H 	0.04690 0.18920 0.64130 0.05800
C 	C 	0.21850 0.19910 0.23510 -0.05200
H 	H 	0.21680 0.22050 0.29530 0.02600
C 	C 	0.14300 0.28500 0.35760 0.01700
C 	C 	0.11850 0.30850 0.33330 -0.07200
H 	H 	0.08520 0.29140 0.33220 0.04000
C 	C 	0.19150 0.30980 0.35640 -0.08200
H 	H 	0.20870 0.29410 0.37100 0.03700
C 	C 	0.11850 0.23270 0.38440 -0.10700
H 	H 	0.09140 0.22380 0.44410 0.06200
H 	H 	0.14040 0.22500 0.43040 0.05300
C 	C 	0.08680 0.15670 0.27600 -0.18100
H 	H 	0.11390 0.15270 0.29110 0.03000
H 	H 	0.06700 0.14410 0.35250 -0.16900
C 	C 	0.06270 0.13050 0.15970 -0.04700
C 	C 	0.01610 0.11160 0.13900 -0.52400
H 	H 	0.99580 0.11570 0.20480 0.09800
N 	N 	0.99620 0.08550 0.02500 -0.30300
C 	C 	0.02410 0.08040 0.94200 0.02300
H 	H 	0.00900 0.06060 0.86390 0.02900
C 	C 	0.97310 0.07340 0.04500 0.17000
H 	H 	0.99590 0.09260 0.11330 0.38200
C 	C 	0.09140 0.12380 0.06290 -0.05100
H 	H 	0.12470 0.13730 0.07970 0.04400
H 	H 	0.07070 0.14230 0.19450 0.17600
H 	H 	0.11550 0.15480 0.27280 0.03400
C 	C 	0.05940 0.12370 0.38030 0.49800
C 	C 	0.07990 0.12530 0.50550 -0.36200
H 	H 	0.11300 0.14710 0.51880 0.16300
N 	N 	0.05540 0.09790 0.60910 -0.23100
C 	C 	0.00990 0.06850 0.58200 -0.55800
H 	H 	0.99140 0.04860 0.65460 0.22400
C 	C 	0.98760 0.06400 0.46200 0.36600
H 	H 	0.95470 0.04070 0.45040 0.31700
C 	C 	0.01260 0.09340 0.36200 -0.43200
H 	H 	0.99740 0.09300 0.27740 0.19900
Ag	Ag	0.81785 0.57262 0.42043 0.53100
N 	N 	0.88667 0.60205 0.32053 -0.18900
H 	H 	0.88107 0.58513 0.24153 0.07900
N 	N 	0.76937 0.53993 0.59523 -0.16900
H 	H 	0.74257 0.54103 0.57243 0.08900
C 	C 	0.86878 0.65971 0.21913 0.03100
C 	C 	0.85677 0.65123 0.08543 -0.06100
H 	H 	0.87267 0.64053 0.02863 0.04100
C 	C 	0.84489 0.67505 0.29953 -0.08000
H 	H 	0.85267 0.68083 0.39183 0.04400
C 	C 	0.90647 0.65173 0.27873 -0.11800
H 	H 	0.92047 0.67243 0.35723 0.05500
H 	H 	0.93157 0.65983 0.21183 0.05700
C 	C 	0.92307 0.59643 0.39293 -0.09700
H 	H 	0.95027 0.60543 0.33283 0.04900
H 	H 	0.93427 0.61783 0.47103 0.04400
C 	C 	0.90437 0.54683 0.43963 -0.00600
C 	C 	0.90537 0.51333 0.35833 0.00400
H 	H 	0.91837 0.52263 0.27123 0.01300
N 	N 	0.75404 0.55606 0.27243 -0.16300
C 	C 	0.74867 0.53763 0.15123 0.04800
H 	H 	0.76837 0.52563 0.12523 0.00300
C 	C 	0.71577 0.53533 0.06133 -0.08100
H 	H 	0.71357 0.52253 0.97463 0.05800
C 	C 	0.88517 0.53243 0.56843 -0.05200
H 	H 	0.88347 0.55383 0.62863 0.02600
C 	C 	0.80967 0.61833 0.69093 0.01700
C 	C 	0.78517 0.64183 0.66663 -0.07200
H 	H 	0.75187 0.62473 0.66553 0.04100
C 	C 	0.85817 0.64313 0.68973 -0.08200
H 	H 	0.87537 0.62743 0.70433 0.03700
C 	C 	0.78517 0.56603 0.71773 -0.10700
H 	H 	0.75807 0.55713 0.77743 0.06200
H 	H 	0.80707 0.55833 0.76373 0.05300
C 	C 	0.75347 0.49003 0.60933 -0.18100
H 	H 	0.78057 0.48603 0.62443 0.03000
H 	H 	0.73367 0.47743 0.68583 -0.16900
C 	C 	0.72937 0.46383 0.49303 -0.04600
C 	C 	0.68277 0.44493 0.47233 -0.52400
H 	H 	0.66247 0.44903 0.53813 0.09800
N 	N 	0.66287 0.41883 0.35833 -0.30300
C 	C 	0.69077 0.41373 0.27533 0.02300
H 	H 	0.67567 0.39393 0.19723 0.02900
C 	C 	0.63977 0.40673 0.37833 0.17000
H 	H 	0.66257 0.42593 0.44663 0.38200
C 	C 	0.75807 0.45713 0.39623 -0.05100
H 	H 	0.79137 0.47063 0.41303 0.04400
H 	H 	0.73737 0.47563 0.52783 0.17600
H 	H 	0.78217 0.48813 0.60613 0.03400
C 	C 	0.72607 0.45703 0.71363 0.49700
C 	C 	0.74657 0.45863 0.83883 -0.36200
H 	H 	0.77967 0.48043 0.85213 0.16300
N 	N 	0.72207 0.43123 0.94243 -0.23100
C 	C 	0.67657 0.40183 0.91533 -0.55800
H 	H 	0.65807 0.38193 0.98793 0.22400
C 	C 	0.65427 0.39733 0.79533 0.36700
H 	H 	0.62137 0.37403 0.78373 0.31700
C 	C 	0.67927 0.42673 0.69533 -0.43300
H 	H 	0.66407 0.42633 0.61073 0.19900
Ag	Ag	0.48452 0.90595 0.75377 0.53100
N 	N 	0.55333 0.93539 0.65387 -0.18900
H 	H 	0.54773 0.91847 0.57487 0.07900
N 	N 	0.43603 0.87327 0.92857 -0.16900
H 	H 	0.40923 0.87437 0.90577 0.08900
C 	C 	0.53544 0.99305 0.55247 0.03200
C 	C 	0.52343 0.98457 0.41877 -0.06200
H 	H 	0.53933 0.97387 0.36197 0.04100
C 	C 	0.51155 0.00839 0.63287 -0.08100
H 	H 	0.51933 0.01417 0.72517 0.04400
C 	C 	0.57313 0.98507 0.61207 -0.11800
H 	H 	0.58713 0.00577 0.69057 0.05500
H 	H 	0.59823 0.99317 0.54517 0.05700
C 	C 	0.58973 0.92977 0.72627 -0.09700
H 	H 	0.61693 0.93877 0.66617 0.04900
H 	H 	0.60093 0.95117 0.80437 0.04400
C 	C 	0.57103 0.88017 0.77297 -0.00600
C 	C 	0.57203 0.84667 0.69167 0.00400
H 	H 	0.58503 0.85597 0.60457 0.01300
N 	N 	0.42070 0.88940 0.60577 -0.16300
C 	C 	0.41533 0.87097 0.48457 0.04800
H 	H 	0.43503 0.85897 0.45857 0.00300
C 	C 	0.38243 0.86867 0.39467 -0.08000
H 	H 	0.38023 0.85587 0.30797 0.05800
C 	C 	0.55183 0.86577 0.90177 -0.05100
H 	H 	0.55013 0.88717 0.96197 0.02500
C 	C 	0.47633 0.95167 0.02427 0.01700
C 	C 	0.45183 0.97517 0.99997 -0.07200
H 	H 	0.41853 0.95807 0.99887 0.04000
C 	C 	0.52483 0.97647 0.02307 -0.08200
H 	H 	0.54203 0.96077 0.03767 0.03700
C 	C 	0.45183 0.89937 0.05107 -0.10700
H 	H 	0.42473 0.89047 0.11077 0.06200
H 	H 	0.47373 0.89167 0.09707 0.05300
C 	C 	0.42013 0.82337 0.94267 -0.18100
H 	H 	0.44723 0.81937 0.95777 0.03000
H 	H 	0.40033 0.81077 0.01917 -0.17000
C 	C 	0.39603 0.79717 0.82637 -0.04600
C 	C 	0.34943 0.77827 0.80567 -0.52400
H 	H 	0.32913 0.78237 0.87147 0.09800
N 	N 	0.32953 0.75217 0.69167 -0.30300
C 	C 	0.35743 0.74707 0.60867 0.02300
H 	H 	0.34233 0.72727 0.53057 0.02900
C 	C 	0.30643 0.74007 0.71167 0.17000
H 	H 	0.32923 0.75927 0.77997 0.38200
C 	C 	0.42473 0.79047 0.72957 -0.05100
H 	H 	0.45803 0.80397 0.74637 0.04400
H 	H 	0.40403 0.80897 0.86117 0.17600
H 	H 	0.44883 0.82147 0.93947 0.03400
C 	C 	0.39273 0.79037 0.04697 0.50000
C 	C 	0.41323 0.79197 0.17217 -0.36300
H 	H 	0.44633 0.81377 0.18547 0.16400
N 	N 	0.38873 0.76457 0.27577 -0.23100
C 	C 	0.34323 0.73517 0.24867 -0.55800
H 	H 	0.32473 0.71527 0.32127 0.22400
C 	C 	0.32093 0.73067 0.12867 0.36700
H 	H 	0.28803 0.70737 0.11707 0.31700
C 	C 	0.34593 0.76007 0.02867 -0.43300
H 	H 	0.33073 0.75967 0.94407 0.19900
