data_crystal

_cell_length_a 13.50400
_cell_length_b 14.37500
_cell_length_c 16.19300
_cell_angle_alpha 90.00000
_cell_angle_beta  90.00000
_cell_angle_gamma 90.00000

_symmetry_space_group_name_	'P 1'
_symmetry_space_group_name_H-M	'P 1'

loop_
_symmetry_equiv_pos_as_xyz
  x,y,z

loop_
_atom_site_label
_atom_site_type_symbol
_atom_site_fract_x
_atom_site_fract_y
_atom_site_fract_z
_atom_site_charge
Cu	Cu	0.70084 0.79324 0.16393 0.90700
Cu	Cu	0.29916 0.29324 0.33607 0.90700
Cu	Cu	0.43030 0.54870 0.08517 0.90700
Cu	Cu	0.20084 0.70676 0.83607 0.90700
Cu	Cu	0.56970 0.04870 0.41483 0.90700
Cu	Cu	0.93030 0.95130 0.91483 0.90700
Cu	Cu	0.06970 0.45130 0.58517 0.90700
Cu	Cu	0.79916 0.20676 0.66393 0.90700
H 	H 	0.21170 0.39920 0.02890 0.19100
H 	H 	0.09380 0.40840 0.02430 0.17900
H 	H 	0.56620 0.92530 0.02120 0.12800
H 	H 	0.55380 0.35390 0.70070 0.18500
H 	H 	0.16020 0.35420 0.78840 0.12300
H 	H 	0.37310 0.54530 0.90480 0.13700
H 	H 	0.12690 0.45470 0.40480 0.13700
H 	H 	0.02350 0.95310 0.70930 0.03100
H 	H 	0.53650 0.76580 0.43950 0.19400
H 	H 	0.07220 0.19770 0.96200 0.18400
H 	H 	0.82230 0.09970 0.24370 0.19700
H 	H 	0.33980 0.64580 0.28840 0.12300
H 	H 	0.56820 0.93430 0.76650 0.18500
H 	H 	0.35330 0.68560 0.49490 0.17300
H 	H 	0.49370 0.75840 0.83100 0.20100
H 	H 	0.91430 0.29510 0.13810 -0.00600
H 	H 	0.88500 0.71200 0.13960 0.17800
H 	H 	0.00630 0.24160 0.33100 0.20000
H 	H 	0.58430 0.91360 0.92410 0.12100
H 	H 	0.42780 0.80230 0.46200 0.18200
H 	H 	0.64660 0.75990 0.94640 0.03400
H 	H 	0.14670 0.31440 0.99490 0.17300
H 	H 	0.72590 0.86480 0.33890 0.13400
H 	H 	0.35340 0.25990 0.55360 0.03400
H 	H 	0.49570 0.85990 0.39920 0.18200
H 	H 	0.08430 0.58640 0.07590 0.12100
H 	H 	0.57220 0.30230 0.03800 0.18200
H 	H 	0.93180 0.06570 0.26650 0.18600
H 	H 	0.94620 0.64610 0.20070 0.18400
H 	H 	0.49770 0.35170 0.53040 0.13000
H 	H 	0.91570 0.08640 0.42410 0.12100
H 	H 	0.03650 0.73420 0.56050 0.19400
H 	H 	0.85340 0.24010 0.44640 0.03400
H 	H 	0.50230 0.85170 0.96960 0.13000
H 	H 	0.05380 0.14610 0.29930 0.18300
H 	H 	0.85330 0.81440 0.50510 0.17300
H 	H 	0.99370 0.74160 0.16900 0.20100
H 	H 	0.06620 0.57470 0.97880 0.12700
H 	H 	0.64780 0.00720 0.73210 0.20500
H 	H 	0.41430 0.20490 0.86190 -0.00500
H 	H 	0.55970 0.18480 0.17220 0.13100
H 	H 	0.62690 0.04530 0.59520 0.13600
H 	H 	0.00430 0.14010 0.89920 0.18300
H 	H 	0.32230 0.40030 0.75630 0.19700
H 	H 	0.38590 0.59720 0.36860 0.12500
H 	H 	0.14660 0.74010 0.05360 0.03400
H 	H 	0.85220 0.99280 0.23210 0.20600
H 	H 	0.08570 0.79510 0.36190 -0.00500
H 	H 	0.35220 0.50720 0.76790 0.20600
H 	H 	0.88590 0.90280 0.63140 0.12500
H 	H 	0.38500 0.78800 0.86040 0.17800
H 	H 	0.43380 0.42530 0.47880 0.12700
H 	H 	0.47650 0.04690 0.20930 0.03000
H 	H 	0.14780 0.49280 0.26790 0.20600
H 	H 	0.00230 0.64830 0.03040 0.13000
H 	H 	0.52350 0.54690 0.29070 0.03000
H 	H 	0.06820 0.56570 0.23350 0.18600
H 	H 	0.99570 0.64010 0.60080 0.18200
H 	H 	0.93380 0.07470 0.52120 0.12700
H 	H 	0.27410 0.36480 0.16110 0.13400
H 	H 	0.61410 0.09720 0.13140 0.12500
H 	H 	0.17770 0.59970 0.25630 0.19700
H 	H 	0.61500 0.28800 0.63960 0.17800
H 	H 	0.71170 0.10080 0.97110 0.19000
H 	H 	0.77410 0.13520 0.83890 0.13400
H 	H 	0.28830 0.60080 0.52890 0.19000
H 	H 	0.99770 0.14830 0.46960 0.13100
H 	H 	0.50430 0.35990 0.10080 0.18200
H 	H 	0.44030 0.68480 0.32780 0.13100
H 	H 	0.22590 0.63520 0.66110 0.13400
H 	H 	0.94030 0.81520 0.67220 0.13000
H 	H 	0.92780 0.69770 0.53800 0.18200
H 	H 	0.44620 0.85390 0.79930 0.18400
H 	H 	0.78830 0.89920 0.47110 0.19000
H 	H 	0.46350 0.26580 0.06050 0.19400
H 	H 	0.11410 0.40280 0.86860 0.12500
H 	H 	0.40620 0.59160 0.52430 0.17800
H 	H 	0.83980 0.85420 0.71160 0.12300
H 	H 	0.05970 0.31520 0.82780 0.13000
H 	H 	0.50630 0.25840 0.66900 0.20100
H 	H 	0.96350 0.23420 0.93950 0.19700
H 	H 	0.66020 0.14580 0.21160 0.12300
H 	H 	0.64670 0.18560 0.00510 0.17300
H 	H 	0.67770 0.90030 0.74370 0.19600
H 	H 	0.43180 0.43430 0.73350 0.18600
H 	H 	0.90620 0.90840 0.47570 0.17800
H 	H 	0.11500 0.21200 0.36040 0.17700
H 	H 	0.41570 0.41360 0.57590 0.12100
H 	H 	0.58570 0.70490 0.63810 -0.00500
H 	H 	0.97650 0.45310 0.79070 0.03000
H 	H 	0.87310 0.95470 0.09520 0.13700
H 	H 	0.59380 0.09160 0.97570 0.17800
C 	C 	0.96250 0.12450 0.01950 0.24300
C 	C 	0.44860 0.34570 0.89810 -0.20300
C 	C 	0.00420 0.17880 0.94900 -0.60900
C 	C 	0.90870 0.07710 0.14230 0.25300
C 	C 	0.64050 0.17330 0.87770 0.23300
C 	C 	0.92970 0.77670 0.33630 -0.20300
C 	C 	0.49580 0.82120 0.44900 -0.60100
C 	C 	0.03940 0.43600 0.76190 0.01100
C 	C 	0.09850 0.37140 0.81650 -0.36900
C 	C 	0.99580 0.67880 0.55100 -0.60200
C 	C 	0.38900 0.74020 0.74260 0.24500
C 	C 	0.09130 0.57710 0.35770 0.25200
C 	C 	0.85500 0.19380 0.49240 0.00000
C 	C 	0.53330 0.74890 0.63510 0.06600
C 	C 	0.40100 0.47470 0.24400 0.28500
C 	C 	0.35500 0.30620 0.50760 0.00000
C 	C 	0.06750 0.61920 0.02470 -0.36900
C 	C 	0.09900 0.52530 0.74400 0.28600
C 	C 	0.59900 0.97470 0.25600 0.28600
C 	C 	0.90100 0.02530 0.75600 0.28600
C 	C 	0.94100 0.30690 0.58120 0.11900
C 	C 	0.94810 0.33540 0.67050 0.11600
C 	C 	0.56790 0.28920 0.68560 -0.61100
C 	C 	0.85950 0.82670 0.37770 0.23300
C 	C 	0.96670 0.25110 0.13510 0.06800
C 	C 	0.56750 0.88080 0.97530 -0.36800
C 	C 	0.74570 0.85250 0.00200 0.29400
C 	C 	0.46250 0.37550 0.98050 0.23900
C 	C 	0.94860 0.15430 0.10190 -0.20500
C 	C 	0.35950 0.67330 0.62230 0.23300
C 	C 	0.06790 0.21080 0.31440 -0.61000
C 	C 	0.46670 0.24890 0.86490 0.06600
C 	C 	0.64890 0.13430 0.96530 -0.57200
C 	C 	0.46060 0.56400 0.26190 0.01200
C 	C 	0.44100 0.19310 0.41880 0.11900
C 	C 	0.55900 0.69310 0.08120 0.12000
C 	C 	0.05900 0.80690 0.91880 0.11900
C 	C 	0.57030 0.22330 0.83630 -0.20300
C 	C 	0.03750 0.62450 0.48050 0.24000
C 	C 	0.61100 0.24020 0.75740 0.24500
C 	C 	0.53750 0.87550 0.51950 0.23900
C 	C 	0.44810 0.16460 0.32950 0.11500
C 	C 	0.50420 0.32120 0.05100 -0.60100
C 	C 	0.37590 0.44290 0.77140 -0.61100
C 	C 	0.43210 0.78920 0.81440 -0.61200
C 	C 	0.64500 0.80620 0.99240 0.00100
C 	C 	0.14500 0.69380 0.00760 -0.00100
C 	C 	0.53940 0.06400 0.23810 0.01100
C 	C 	0.05140 0.65430 0.39810 -0.20400
C 	C 	0.62410 0.94290 0.72860 -0.60800
C 	C 	0.05190 0.83540 0.82950 0.11600
C 	C 	0.40870 0.42290 0.85770 0.25200
C 	C 	0.96060 0.93600 0.73810 0.01000
C 	C 	0.35110 0.63430 0.53470 -0.57200
C 	C 	0.59850 0.12860 0.18350 -0.37000
C 	C 	0.07030 0.27670 0.16370 -0.20400
C 	C 	0.55190 0.66460 0.17050 0.11500
C 	C 	0.87590 0.05710 0.22860 -0.61100
C 	C 	0.75430 0.14750 0.50200 0.29500
C 	C 	0.43250 0.38080 0.52470 -0.36800
C 	C 	0.90150 0.87140 0.68350 -0.36900
C 	C 	0.11100 0.25980 0.24260 0.24500
C 	C 	0.40150 0.62860 0.31650 -0.37000
C 	C 	0.03330 0.75110 0.36490 0.06600
C 	C 	0.55140 0.84570 0.60190 -0.20300
C 	C 	0.85110 0.86570 0.46530 -0.57200
C 	C 	0.14050 0.32670 0.12230 0.23300
C 	C 	0.24570 0.64750 0.99800 0.29600
C 	C 	0.88900 0.75980 0.25740 0.24500
C 	C 	0.42970 0.72330 0.66370 -0.20300
C 	C 	0.59130 0.92290 0.64230 0.25100
C 	C 	0.12410 0.55710 0.27140 -0.61100
C 	C 	0.93250 0.11920 0.47530 -0.36900
C 	C 	0.25430 0.35250 0.49800 0.29500
C 	C 	0.93210 0.71080 0.18560 -0.61100
C 	C 	0.14890 0.36570 0.03470 -0.57200
N 	N 	0.51600 0.10440 0.31720 -0.23600
N 	N 	0.12220 0.73980 0.92960 -0.23100
N 	N 	0.79850 0.79670 0.25260 -0.22000
N 	N 	0.43320 0.46300 0.98930 -0.21600
N 	N 	0.62220 0.76020 0.07040 -0.23200
N 	N 	0.93320 0.03700 0.01070 -0.21700
N 	N 	0.29850 0.70330 0.74740 -0.22000
N 	N 	0.10120 0.50980 0.41480 -0.20700
N 	N 	0.71870 0.16390 0.82580 -0.20100
N 	N 	0.98400 0.89560 0.81720 -0.23600
N 	N 	0.70150 0.20330 0.75260 -0.22000
N 	N 	0.21870 0.33610 0.17420 -0.20100
N 	N 	0.48400 0.60440 0.18280 -0.23600
N 	N 	0.89880 0.00980 0.08520 -0.20600
N 	N 	0.37780 0.26020 0.42960 -0.23200
N 	N 	0.06680 0.53700 0.48930 -0.21600
N 	N 	0.60120 0.99020 0.58520 -0.20600
N 	N 	0.87780 0.23980 0.57040 -0.23200
N 	N 	0.56680 0.96300 0.51070 -0.21600
N 	N 	0.39880 0.49020 0.91480 -0.20700
N 	N 	0.78130 0.83610 0.32580 -0.20100
N 	N 	0.28130 0.66390 0.67420 -0.20100
N 	N 	0.20150 0.29670 0.24740 -0.22000
N 	N 	0.01600 0.39560 0.68280 -0.23700
O 	O 	0.12780 0.57280 0.80310 -0.35500
O 	O 	0.12160 0.54240 0.66860 -0.39600
O 	O 	0.11070 0.79840 0.77640 -0.32900
O 	O 	0.37840 0.45760 0.16860 -0.39600
O 	O 	0.38930 0.20160 0.27640 -0.33000
O 	O 	0.71750 0.11040 0.44140 -0.36100
O 	O 	0.21750 0.38960 0.55860 -0.36100
O 	O 	0.00760 0.85000 0.97160 -0.32900
O 	O 	0.50760 0.65000 0.02840 -0.33000
O 	O 	0.28480 0.64940 0.92480 -0.39200
O 	O 	0.37220 0.42720 0.30310 -0.35500
O 	O 	0.87220 0.07280 0.69690 -0.35500
O 	O 	0.21520 0.35060 0.42480 -0.39200
O 	O 	0.78250 0.88960 0.94140 -0.36000
O 	O 	0.99240 0.35000 0.52840 -0.32900
O 	O 	0.61070 0.70160 0.22360 -0.32900
O 	O 	0.87840 0.04240 0.83140 -0.39600
O 	O 	0.62160 0.95760 0.33140 -0.39600
O 	O 	0.71520 0.14940 0.57520 -0.39200
O 	O 	0.28250 0.61040 0.05860 -0.36100
O 	O 	0.62780 0.92720 0.19690 -0.35500
O 	O 	0.49240 0.15000 0.47160 -0.33000
O 	O 	0.78480 0.85060 0.07520 -0.39100
O 	O 	0.88930 0.29840 0.72360 -0.33000
