data_crystal

_cell_length_a 16.94340
_cell_length_b 35.64260
_cell_length_c 40.31900
_cell_angle_alpha 90.00000
_cell_angle_beta  90.00000
_cell_angle_gamma 90.00000

_symmetry_space_group_name_	'P 1'
_symmetry_space_group_name_H-M	'P 1'

loop_
_symmetry_equiv_pos_as_xyz
  x,y,z

loop_
_atom_site_label
_atom_site_type_symbol
_atom_site_fract_x
_atom_site_fract_y
_atom_site_fract_z
_atom_site_charge
Fe	Fe	0.25000 0.25791 -0.00000 1.15300
Fe	Fe	0.25000 0.24209 0.50000 1.15500
Fe	Fe	0.86531 0.75000 0.75000 1.38300
Fe	Fe	0.63469 0.75000 0.25000 1.38300
B 	B 	0.88870 0.74960 0.63861 -14.89500
B 	B 	0.61130 0.75040 0.13861 -14.89700
B 	B 	0.61130 0.74960 0.36139 -14.89500
B 	B 	0.88870 0.75040 0.86139 -14.89200
H 	H 	0.16950 0.32870 0.97050 -0.01800
H 	H 	0.26320 0.39890 0.88160 0.08400
H 	H 	0.37500 0.35250 0.56910 0.09100
H 	H 	0.36160 0.52600 0.29870 0.04200
H 	H 	0.89540 0.77670 0.62950 4.16300
H 	H 	0.73810 0.63050 0.78370 0.09800
H 	H 	0.18870 0.29940 0.60900 0.10200
H 	H 	0.08760 0.97130 0.20540 0.05800
H 	H 	0.03570 0.03440 0.19050 0.06700
H 	H 	0.12500 0.35250 0.43090 0.09100
H 	H 	0.46430 0.46560 0.69050 0.06700
H 	H 	0.84340 0.74110 0.62290 4.15400
H 	H 	0.10650 0.12240 0.11290 -0.01800
H 	H 	0.65660 0.58310 0.76980 0.04100
H 	H 	0.77770 0.76930 0.21220 -0.06900
H 	H 	0.57630 0.87670 0.77690 0.06500
H 	H 	0.34380 0.62270 0.23240 0.06700
H 	H 	0.82470 0.81930 0.71370 -0.01900
H 	H 	0.12870 0.21930 0.44630 -0.07400
H 	H 	0.07710 0.91630 0.78030 0.03800
H 	H 	0.23190 0.35540 0.35690 0.11100
H 	H 	0.42290 0.91630 0.21970 0.03800
H 	H 	0.45460 0.08280 0.73460 0.07200
H 	H 	0.67530 0.68070 0.21370 -0.02000
H 	H 	0.41240 0.97130 0.79460 0.05800
H 	H 	0.99000 0.86900 0.78780 0.10200
H 	H 	0.44850 0.37990 0.81160 0.03100
H 	H 	0.04540 0.41720 0.23460 0.07200
H 	H 	0.36430 0.18440 0.97810 -0.01400
H 	H 	0.90910 0.52600 0.20860 0.04300
H 	H 	0.45210 0.42480 0.64500 0.02300
H 	H 	0.84340 0.75890 0.87710 4.15300
H 	H 	0.76190 0.63050 0.21630 0.09800
H 	H 	0.73810 0.86950 0.71630 0.09800
H 	H 	0.33210 0.53430 0.78160 0.06000
H 	H 	0.63050 0.81720 0.79500 0.08200
H 	H 	0.27470 0.08270 0.76920 0.07400
H 	H 	0.99000 0.63100 0.71220 0.10200
H 	H 	0.31130 0.20060 0.10900 0.10100
H 	H 	0.93530 0.76270 0.87410 4.23200
H 	H 	0.39350 0.12240 0.88710 -0.01700
H 	H 	0.37500 0.14750 0.93090 0.09100
H 	H 	0.25780 0.06470 0.65830 0.02600
H 	H 	0.25780 0.43530 0.84170 0.02600
H 	H 	0.72230 0.73070 0.71220 -0.06900
H 	H 	0.39510 0.68200 0.21180 0.08200
H 	H 	0.86950 0.68280 0.29500 0.08200
H 	H 	0.82470 0.68070 0.78630 -0.02000
H 	H 	0.26810 0.35540 0.64310 0.11100
H 	H 	0.18430 0.37420 0.93070 0.08800
H 	H 	0.16950 0.17130 0.52950 -0.01800
H 	H 	0.10490 0.68200 0.78820 0.08300
H 	H 	0.23570 0.47300 0.20410 0.06800
H 	H 	0.26430 0.47300 0.79590 0.06800
H 	H 	0.39350 0.37760 0.61290 -0.01700
H 	H 	0.23300 0.37670 0.31300 0.02400
H 	H 	0.51000 0.63100 0.28780 0.10200
H 	H 	0.07710 0.58370 0.71970 0.03800
H 	H 	0.12870 0.28070 0.05370 -0.07500
H 	H 	0.04790 0.07520 0.14500 0.02300
H 	H 	0.92370 0.87670 0.22310 0.06500
H 	H 	0.26700 0.12330 0.81300 0.02400
H 	H 	0.36160 0.97400 0.20130 0.04300
H 	H 	0.13840 0.52600 0.70130 0.04200
H 	H 	0.26320 0.10110 0.61840 0.08400
H 	H 	0.04790 0.42480 0.35500 0.02300
H 	H 	0.26660 0.57910 0.22130 0.03800
H 	H 	0.24220 0.06470 0.34170 0.02600
H 	H 	0.49460 0.48100 0.78720 0.05900
H 	H 	0.26660 0.92090 0.27870 0.03900
H 	H 	0.56470 0.76270 0.12590 4.23300
H 	H 	0.59090 0.52600 0.79140 0.04300
H 	H 	0.72230 0.76930 0.78780 -0.06900
H 	H 	0.13840 0.97400 0.79870 0.04300
H 	H 	0.23840 0.48050 0.70460 0.06300
H 	H 	0.31130 0.29940 0.39100 0.10200
H 	H 	0.51370 0.92730 0.79240 0.04300
H 	H 	0.10490 0.81800 0.71180 0.08200
H 	H 	0.26700 0.37670 0.68700 0.02400
H 	H 	0.11490 0.35760 0.14070 -0.02600
H 	H 	0.60460 0.72330 0.12950 4.16300
H 	H 	0.11490 0.14240 0.35930 -0.02600
H 	H 	0.57630 0.62330 0.72310 0.06500
H 	H 	0.15620 0.87730 0.73240 0.06700
H 	H 	0.23680 0.10110 0.38160 0.08400
H 	H 	0.00810 0.77020 0.71580 0.03700
H 	H 	0.38510 0.35760 0.85930 -0.02600
H 	H 	0.46430 0.03440 0.80950 0.06700
H 	H 	0.37130 0.28070 0.94630 -0.07400
H 	H 	0.22530 0.41730 0.26920 0.07400
H 	H 	0.84340 0.91690 0.26980 0.04100
H 	H 	0.67530 0.81930 0.28630 -0.01900
H 	H 	0.23300 0.12330 0.18700 0.02400
H 	H 	0.39510 0.81800 0.28820 0.08300
H 	H 	0.42290 0.58370 0.28030 0.03800
H 	H 	0.84340 0.58310 0.23020 0.04100
H 	H 	0.10650 0.37760 0.38710 -0.01700
H 	H 	0.00810 0.72980 0.78420 0.03800
H 	H 	0.11080 0.32370 0.09820 -0.09500
H 	H 	0.98630 0.92730 0.20760 0.04300
H 	H 	0.90100 0.81970 0.78690 -0.01600
H 	H 	0.92370 0.62330 0.27690 0.06500
H 	H 	0.33210 0.96570 0.71840 0.06000
H 	H 	0.13570 0.31560 0.47810 -0.01600
H 	H 	0.15620 0.62270 0.76760 0.06700
H 	H 	0.45460 0.41720 0.76540 0.07200
H 	H 	0.04540 0.08280 0.26540 0.07200
H 	H 	0.18870 0.20060 0.89100 0.10200
H 	H 	0.90910 0.97400 0.29140 0.04400
H 	H 	0.18430 0.12580 0.56930 0.08700
H 	H 	0.89540 0.72330 0.87050 4.16200
H 	H 	0.16790 0.96570 0.28160 0.06000
H 	H 	0.31570 0.37420 0.06930 0.08700
H 	H 	0.27470 0.41730 0.73080 0.07400
H 	H 	0.93530 0.73730 0.62590 4.23200
H 	H 	0.49190 0.77020 0.28420 0.03700
H 	H 	0.86950 0.81720 0.20500 0.08200
H 	H 	0.38510 0.14240 0.64070 -0.02600
H 	H 	0.34380 0.87730 0.26760 0.06700
H 	H 	0.44850 0.12010 0.68840 0.03100
H 	H 	0.41240 0.52870 0.70540 0.05900
H 	H 	0.98630 0.57270 0.29240 0.04200
H 	H 	0.26160 0.48050 0.29540 0.06300
H 	H 	0.11080 0.17630 0.40180 -0.09500
H 	H 	0.05150 0.37990 0.18840 0.03100
H 	H 	0.32200 0.23750 0.06180 -0.02400
H 	H 	0.16790 0.53430 0.21840 0.06000
H 	H 	0.31570 0.12580 0.43070 0.08700
H 	H 	0.17800 0.23750 0.93820 -0.02400
H 	H 	0.37130 0.21930 0.55370 -0.07400
H 	H 	0.26160 0.01950 0.20460 0.06200
H 	H 	0.59900 0.81970 0.21310 -0.01600
H 	H 	0.26430 0.02700 0.70410 0.06700
H 	H 	0.77770 0.73070 0.28780 -0.06900
H 	H 	0.59900 0.68030 0.28690 -0.01600
H 	H 	0.33050 0.32870 0.02950 -0.01900
H 	H 	0.05150 0.12010 0.31160 0.03100
H 	H 	0.23340 0.92090 0.72130 0.03900
H 	H 	0.65660 0.74110 0.37710 4.15400
H 	H 	0.56470 0.73730 0.37410 4.23200
H 	H 	0.38920 0.17630 0.59820 -0.09500
H 	H 	0.08760 0.52870 0.29460 0.05800
H 	H 	0.23570 0.02700 0.29590 0.06700
H 	H 	0.49190 0.72980 0.21580 0.03700
H 	H 	0.23840 0.01950 0.79540 0.06200
H 	H 	0.60460 0.77670 0.37050 4.16300
H 	H 	0.03570 0.46560 0.30950 0.06700
H 	H 	0.45210 0.07520 0.85500 0.02400
H 	H 	0.65660 0.91690 0.73020 0.04100
H 	H 	0.12500 0.14750 0.06910 0.09100
H 	H 	0.51370 0.57270 0.70760 0.04200
H 	H 	0.00540 0.48100 0.21280 0.05900
H 	H 	0.32200 0.26250 0.43820 -0.02400
H 	H 	0.49460 0.01900 0.71280 0.05700
H 	H 	0.23340 0.57910 0.77870 0.03800
H 	H 	0.51000 0.86900 0.21220 0.10200
H 	H 	0.76190 0.86950 0.28370 0.09800
H 	H 	0.13570 0.18440 0.02190 -0.01700
H 	H 	0.26810 0.14460 0.85690 0.11100
H 	H 	0.17800 0.26250 0.56180 -0.02400
H 	H 	0.33050 0.17130 0.47050 -0.01800
H 	H 	0.63050 0.68280 0.70500 0.08200
H 	H 	0.38920 0.32370 0.90180 -0.09500
H 	H 	0.24220 0.43530 0.15830 0.02600
H 	H 	0.22530 0.08270 0.23080 0.07400
H 	H 	0.00540 0.01900 0.28720 0.05700
H 	H 	0.23680 0.39890 0.11840 0.08400
H 	H 	0.90100 0.68030 0.71310 -0.01600
H 	H 	0.65660 0.75890 0.12290 4.15400
H 	H 	0.59090 0.97400 0.70860 0.04400
H 	H 	0.23190 0.14460 0.14310 0.11100
H 	H 	0.36430 0.31560 0.52190 -0.01600
C 	C 	0.23460 0.55963 0.76333 -0.04500
C 	C 	0.00430 0.79045 0.73022 0.10300
C 	C 	0.66840 0.68192 0.72170 -0.19400
C 	C 	0.36760 0.02537 0.75539 -0.08900
C 	C 	0.30370 0.35640 0.62560 -0.22800
C 	C 	0.43570 0.68081 0.22728 -0.16900
C 	C 	0.83160 0.68192 0.27830 -0.19300
C 	C 	0.00400 0.99994 0.27148 -0.07600
C 	C 	0.88430 0.58684 0.24516 -0.04000
C 	C 	0.30200 0.04568 0.70098 -0.11200
C 	C 	0.27880 0.35510 0.06710 -0.19200
C 	C 	0.35090 0.09775 0.66894 -0.02700
C 	C 	0.34540 0.32500 0.91560 -0.24500
C 	C 	0.15460 0.17500 0.41560 -0.24500
C 	C 	0.72460 0.71013 0.72639 0.10800
C 	C 	0.27880 0.14490 0.43290 -0.19200
C 	C 	0.61500 0.61933 0.73904 -0.11800
C 	C 	0.33550 0.33447 0.56760 -0.23300
C 	C 	0.32910 0.18760 0.96065 0.04600
C 	C 	0.38420 0.88081 0.25226 -0.12400
C 	C 	0.16450 0.16553 0.06760 -0.23300
C 	C 	0.07730 0.05141 0.18972 -0.11500
C 	C 	0.21330 0.14765 0.41160 0.13400
C 	C 	0.06430 0.68081 0.77272 -0.16900
C 	C 	0.19630 0.35640 0.37440 -0.22800
C 	C 	0.17090 0.31240 0.46065 0.04600
C 	C 	0.05230 0.97225 0.22308 -0.08000
C 	C 	0.36820 0.05214 0.78507 0.07400
C 	C 	0.94240 0.68061 0.72830 0.12500
C 	C 	0.08960 0.39837 0.19157 -0.01600
C 	C 	0.14570 0.37523 0.37100 0.10400
C 	C 	0.76690 0.65040 0.23102 -0.19800
C 	C 	0.88430 0.91316 0.25484 -0.04100
C 	C 	0.21750 0.28052 0.56330 0.02900
C 	C 	0.08750 0.24500 0.51350 0.09200
C 	C 	0.73310 0.84960 0.73102 -0.19800
C 	C 	0.43570 0.81919 0.27272 -0.16900
C 	C 	0.22390 0.30260 0.59156 -0.32300
C 	C 	0.30590 0.10488 0.81274 0.00200
C 	C 	0.49600 0.50006 0.77148 -0.08100
C 	C 	0.99600 0.84968 0.77249 -0.19300
C 	C 	0.20250 0.06864 0.32613 -0.01600
C 	C 	0.05620 0.85009 0.75049 0.12600
C 	C 	0.21430 0.17180 0.54290 0.08100
C 	C 	0.26540 0.55963 0.23667 -0.04500
C 	C 	0.13180 0.44786 0.28507 0.07500
C 	C 	0.35430 0.37523 0.62900 0.10400
C 	C 	0.16640 0.29910 0.05750 -0.03000
C 	C 	0.20640 0.96746 0.26523 -0.08600
C 	C 	0.29750 0.43136 0.82613 -0.01600
C 	C 	0.08490 0.42123 0.21905 -0.11000
C 	C 	0.29570 0.50269 0.74281 0.05700
C 	C 	0.67430 0.65073 0.74546 0.12000
C 	C 	0.17780 0.52812 0.71731 -0.04600
C 	C 	0.23830 0.99956 0.78054 -0.08700
C 	C 	0.28290 0.32960 0.59373 0.09500
C 	C 	0.28570 0.32820 0.04290 0.08000
C 	C 	0.13790 0.05013 0.27624 0.07200
C 	C 	0.20430 0.50269 0.25719 0.05700
C 	C 	0.32230 0.94221 0.23883 0.01700
C 	C 	0.14300 0.39781 0.33790 -0.04300
C 	C 	0.71460 0.68089 0.22980 0.10500
C 	C 	0.55760 0.81939 0.22830 0.12600
C 	C 	0.29360 0.53254 0.76523 -0.08700
C 	C 	0.33360 0.20090 0.55750 -0.03000
C 	C 	0.34800 0.12323 0.64137 0.01900
C 	C 	0.17770 0.55779 0.73883 0.01600
C 	C 	0.26540 0.94037 0.26333 -0.04500
C 	C 	0.29760 0.37863 0.88240 -0.17400
C 	C 	0.28250 0.28052 0.43670 0.02900
C 	C 	0.19410 0.39512 0.31274 0.00300
C 	C 	0.23460 0.94037 0.73667 -0.04500
C 	C 	0.55760 0.68061 0.27170 0.12600
C 	C 	0.19800 0.04568 0.29902 -0.11200
C 	C 	0.41620 0.07641 0.83755 -0.01000
C 	C 	0.18940 0.41953 0.28655 -0.11500
C 	C 	0.49570 0.70955 0.23022 0.10300
C 	C 	0.99180 0.94474 0.22460 -0.05300
C 	C 	0.38300 0.58759 0.26488 -0.03300
C 	C 	0.50820 0.55526 0.72460 -0.05000
C 	C 	0.32910 0.31240 0.53935 0.04600
C 	C 	0.16450 0.33447 0.43240 -0.23300
C 	C 	0.07730 0.44859 0.31028 -0.11500
C 	C 	0.08490 0.07877 0.28095 -0.10900
C 	C 	0.13180 0.05214 0.21493 0.07400
C 	C 	0.50400 0.65032 0.27249 -0.19300
C 	C 	0.66840 0.81808 0.77830 -0.19300
C 	C 	0.55450 0.97278 0.72582 -0.05200
C 	C 	0.50400 0.84968 0.22751 -0.19300
C 	C 	0.61570 0.91316 0.74516 -0.04000
C 	C 	0.94550 0.97278 0.27418 -0.05300
C 	C 	0.15460 0.32500 0.08440 -0.24500
C 	C 	0.43870 0.00001 0.75384 0.05100
C 	C 	0.44770 0.52775 0.72308 -0.08300
C 	C 	0.17770 0.94221 0.76117 0.01700
C 	C 	0.99600 0.65032 0.72751 -0.19300
C 	C 	0.36210 0.05013 0.72376 0.07200
C 	C 	0.20250 0.43136 0.17387 -0.01600
C 	C 	0.13790 0.44987 0.22376 0.07200
C 	C 	0.15200 0.12323 0.35863 0.01900
C 	C 	0.14910 0.09775 0.33106 -0.02700
C 	C 	0.27610 0.30260 0.40844 -0.32300
C 	C 	0.21710 0.17040 0.09373 0.09500
C 	C 	0.15200 0.37677 0.14137 0.01900
C 	C 	0.33360 0.29910 0.94250 -0.02900
C 	C 	0.49570 0.79045 0.26978 0.10300
C 	C 	0.41040 0.10163 0.69157 -0.01600
C 	C 	0.78540 0.81911 0.72980 0.10500
C 	C 	0.13240 0.47463 0.25539 -0.09000
C 	C 	0.36760 0.47463 0.74461 -0.09000
C 	C 	0.83160 0.81808 0.22170 -0.19300
C 	C 	0.06430 0.81919 0.72728 -0.16900
C 	C 	0.29360 0.96746 0.73477 -0.08600
C 	C 	0.49600 0.99994 0.72852 -0.07700
C 	C 	0.41510 0.07877 0.71905 -0.10900
C 	C 	0.76690 0.84960 0.26898 -0.19700
C 	C 	0.41040 0.39837 0.80843 -0.01600
C 	C 	0.22120 0.35510 0.93290 -0.19200
C 	C 	0.41250 0.25500 0.01350 0.09000
C 	C 	0.55870 0.94396 0.74871 0.02300
C 	C 	0.73310 0.65040 0.76898 -0.19800
C 	C 	0.28670 0.14765 0.58840 0.13400
C 	C 	0.14910 0.40225 0.16894 -0.02700
C 	C 	0.61500 0.88067 0.76096 -0.11700
C 	C 	0.21430 0.32820 0.95710 0.08100
C 	C 	0.63310 0.75130 0.17830 5.19100
C 	C 	0.30200 0.45432 0.79902 -0.11200
C 	C 	0.41250 0.24500 0.48650 0.09200
C 	C 	0.08960 0.10163 0.30843 -0.01600
C 	C 	0.16640 0.20090 0.44250 -0.03000
C 	C 	0.94130 0.55604 0.24871 0.02200
C 	C 	0.32220 0.97188 0.21731 -0.04600
C 	C 	0.99180 0.55526 0.27540 -0.05100
C 	C 	0.08380 0.42359 0.33755 -0.01000
C 	C 	0.17780 0.97188 0.78269 -0.04600
C 	C 	0.42270 0.44859 0.68972 -0.11500
C 	C 	0.44380 0.64991 0.25049 0.12700
C 	C 	0.42270 0.05141 0.81028 -0.11500
C 	C 	0.82570 0.65073 0.25454 0.12000
C 	C 	0.31060 0.08047 0.78655 -0.11400
C 	C 	0.36820 0.44786 0.71493 0.07500
C 	C 	0.35430 0.12477 0.87100 0.10300
C 	C 	0.00430 0.70955 0.76978 0.10300
C 	C 	0.41620 0.42359 0.66245 -0.01000
C 	C 	0.28250 0.21948 0.06330 0.02900
C 	C 	0.18940 0.08047 0.21345 -0.11500
C 	C 	0.41510 0.42123 0.78095 -0.11000
C 	C 	0.14570 0.12477 0.12900 0.10400
C 	C 	0.23830 0.50044 0.71946 -0.08900
C 	C 	0.28290 0.17040 0.90627 0.09500
C 	C 	0.05230 0.52775 0.27692 -0.08300
C 	C 	0.88500 0.61933 0.26096 -0.11800
C 	C 	0.21710 0.32960 0.40627 0.09500
C 	C 	0.05620 0.64991 0.74951 0.12600
C 	C 	0.08380 0.07641 0.16245 -0.01000
C 	C 	0.44380 0.85009 0.24951 0.12700
C 	C 	0.33550 0.16553 0.93240 -0.23200
C 	C 	0.11580 0.88081 0.74774 -0.12400
C 	C 	0.22390 0.19740 0.90844 -0.32300
C 	C 	0.55870 0.55604 0.75129 0.02100
C 	C 	0.29750 0.06864 0.67387 -0.01600
C 	C 	0.94130 0.94396 0.25129 0.02400
C 	C 	0.77540 0.71013 0.27361 0.10800
C 	C 	0.61570 0.58684 0.75484 -0.03900
C 	C 	0.36210 0.44987 0.77624 0.07200
C 	C 	0.35090 0.40225 0.83106 -0.02700
C 	C 	0.94240 0.81939 0.77170 0.12500
C 	C 	0.50820 0.94474 0.77540 -0.05300
C 	C 	0.77540 0.78987 0.22639 0.10800
C 	C 	0.06130 0.00001 0.24616 0.05100
C 	C 	0.94550 0.52722 0.22582 -0.05000
C 	C 	0.34540 0.17500 0.58440 -0.24500
C 	C 	0.19410 0.10488 0.18726 0.00300
C 	C 	0.13240 0.02537 0.24461 -0.08900
C 	C 	0.38420 0.61919 0.24774 -0.12400
C 	C 	0.00400 0.50006 0.22852 -0.08000
C 	C 	0.21330 0.35235 0.08840 0.13400
C 	C 	0.14300 0.10219 0.16210 -0.04300
C 	C 	0.30590 0.39512 0.68726 0.00300
C 	C 	0.32230 0.55779 0.26117 0.01600
C 	C 	0.67430 0.84927 0.75454 0.12000
C 	C 	0.34800 0.37677 0.85863 0.01900
C 	C 	0.08750 0.25500 0.98650 0.09400
C 	C 	0.11580 0.61919 0.75226 -0.12400
C 	C 	0.22120 0.14490 0.56710 -0.19200
C 	C 	0.55450 0.52722 0.77418 -0.04900
C 	C 	0.35700 0.10219 0.83790 -0.04200
C 	C 	0.86690 0.74870 0.67830 5.19000
C 	C 	0.38300 0.91241 0.23512 -0.03300
C 	C 	0.88500 0.88067 0.23904 -0.11700
C 	C 	0.28570 0.17180 0.45710 0.08100
C 	C 	0.11700 0.58759 0.73512 -0.03300
C 	C 	0.21750 0.21948 0.93670 0.03000
C 	C 	0.26170 0.50044 0.28054 -0.08900
C 	C 	0.71460 0.81911 0.27020 0.10500
C 	C 	0.17090 0.18760 0.03935 0.04600
C 	C 	0.20640 0.53254 0.23477 -0.08700
C 	C 	0.86690 0.75130 0.82170 5.18900
C 	C 	0.30370 0.14360 0.87440 -0.22700
C 	C 	0.27610 0.19740 0.09156 -0.32300
C 	C 	0.31060 0.41953 0.71345 -0.11500
C 	C 	0.78540 0.68089 0.77020 0.10500
C 	C 	0.44770 0.97225 0.77692 -0.08000
C 	C 	0.32220 0.52812 0.28269 -0.04500
C 	C 	0.43870 0.49999 0.74616 0.05500
C 	C 	0.19800 0.45432 0.20098 -0.11200
C 	C 	0.11700 0.91241 0.76488 -0.03300
C 	C 	0.20430 0.99731 0.24281 0.05600
C 	C 	0.29760 0.12137 0.61760 -0.17400
C 	C 	0.35700 0.39781 0.66210 -0.04300
C 	C 	0.06130 0.49999 0.25384 0.05400
C 	C 	0.28670 0.35235 0.91160 0.13500
C 	C 	0.29570 0.99731 0.75719 0.05600
C 	C 	0.72460 0.78987 0.77361 0.10800
C 	C 	0.26170 0.99956 0.21946 -0.08700
C 	C 	0.63310 0.74870 0.32170 5.19000
C 	C 	0.82570 0.84927 0.24546 0.12000
C 	C 	0.20240 0.37863 0.11760 -0.17400
C 	C 	0.20240 0.12137 0.38240 -0.17400
C 	C 	0.19630 0.14360 0.12560 -0.22800
N 	N 	0.35590 0.24250 0.49070 -0.33000
N 	N 	0.14410 0.25750 0.99070 -0.32900
N 	N 	0.26900 0.30053 0.96284 -0.22700
N 	N 	0.71820 0.71016 0.25046 -0.25400
N 	N 	0.71820 0.78984 0.24954 -0.25400
N 	N 	0.14410 0.24250 0.50930 -0.33000
N 	N 	0.27010 0.28539 0.53718 -0.24100
N 	N 	0.22990 0.28539 0.46282 -0.24100
N 	N 	0.78180 0.71016 0.74954 -0.25400
N 	N 	0.78180 0.78984 0.75046 -0.25400
N 	N 	0.55350 0.79017 0.24926 -0.21900
N 	N 	0.94650 0.79017 0.75074 -0.21800
N 	N 	0.27010 0.21461 0.96282 -0.24000
N 	N 	0.35590 0.25750 0.00930 -0.33000
N 	N 	0.87130 0.75200 0.70220 -2.25800
N 	N 	0.22990 0.21461 0.03718 -0.24200
N 	N 	0.26900 0.19947 0.53716 -0.22800
N 	N 	0.94650 0.70983 0.74926 -0.21800
N 	N 	0.62870 0.75200 0.29780 -2.25800
N 	N 	0.55350 0.70983 0.25074 -0.21900
N 	N 	0.23100 0.19947 0.46284 -0.22800
N 	N 	0.23100 0.30053 0.03716 -0.22900
N 	N 	0.87130 0.74800 0.79780 -2.25800
N 	N 	0.62870 0.74800 0.20220 -2.25900
Fe	Fe	0.75000 0.74209 -0.00000 1.15400
Fe	Fe	0.36531 0.25000 0.75000 1.38400
Fe	Fe	0.75000 0.75791 0.50000 1.15600
Fe	Fe	0.13469 0.25000 0.25000 1.38400
B 	B 	0.11130 0.25040 0.36139 -14.89400
B 	B 	0.38870 0.25040 0.63861 -14.89400
B 	B 	0.38870 0.24960 0.86139 -14.89200
B 	B 	0.11130 0.24960 0.13861 -14.89600
H 	H 	0.73300 0.87670 0.18700 0.02400
H 	H 	0.73680 0.89890 0.38160 0.08400
H 	H 	0.82200 0.73750 0.43820 -0.02400
H 	H 	0.09900 0.31970 0.28690 -0.01600
H 	H 	0.54790 0.57520 0.35500 0.02300
H 	H 	0.82200 0.76250 0.06180 -0.02400
H 	H 	0.68430 0.87420 0.56930 0.08700
H 	H 	0.58760 0.47130 0.29460 0.05900
H 	H 	0.15660 0.25890 0.37710 4.15400
H 	H 	0.89350 0.62240 0.61290 -0.01700
H 	H 	0.76660 0.07910 0.27870 0.03800
H 	H 	0.99460 0.98100 0.71280 0.06000
H 	H 	0.76700 0.62330 0.68700 0.02400
H 	H 	0.83050 0.67130 0.02950 -0.01900
H 	H 	0.10460 0.22330 0.37050 4.16300
H 	H 	0.36950 0.31720 0.29500 0.08200
H 	H 	0.17530 0.31930 0.21370 -0.02000
H 	H 	0.73840 0.51950 0.70460 0.06300
H 	H 	0.89510 0.31800 0.21180 0.08200
H 	H 	0.26190 0.36950 0.21630 0.09800
H 	H 	0.66950 0.82870 0.52950 -0.01800
H 	H 	0.61490 0.85760 0.35930 -0.02600
H 	H 	0.60490 0.18200 0.71180 0.08300
H 	H 	0.57710 0.41630 0.71970 0.03800
H 	H 	0.88920 0.67630 0.90180 -0.09500
H 	H 	0.26190 0.13050 0.28370 0.09800
H 	H 	0.07630 0.12330 0.77690 0.06500
H 	H 	0.60650 0.62240 0.38710 -0.01700
H 	H 	0.75780 0.93530 0.65830 0.02600
H 	H 	0.84380 0.37730 0.23240 0.06700
H 	H 	0.73840 0.98050 0.79540 0.06400
H 	H 	0.86160 0.47400 0.29870 0.04200
H 	H 	0.66790 0.03430 0.28160 0.06000
H 	H 	0.50810 0.22980 0.71580 0.03700
H 	H 	0.43530 0.23730 0.87410 4.23200
H 	H 	0.87500 0.85250 0.93090 0.09100
H 	H 	0.34340 0.41690 0.23020 0.04100
H 	H 	0.06470 0.26270 0.37410 4.23200
H 	H 	0.63570 0.68440 0.47810 -0.01600
H 	H 	0.72530 0.58270 0.26920 0.07400
H 	H 	0.53570 0.96560 0.19050 0.06700
H 	H 	0.42370 0.37670 0.27690 0.06500
H 	H 	0.83210 0.03430 0.71840 0.06000
H 	H 	0.09090 0.47400 0.79140 0.04300
H 	H 	0.73680 0.60110 0.11840 0.08400
H 	H 	0.81130 0.79940 0.10900 0.10100
H 	H 	0.92290 0.08370 0.21970 0.03800
H 	H 	0.91240 0.02870 0.79460 0.05800
H 	H 	0.09900 0.18030 0.21310 -0.01600
H 	H 	0.95460 0.58280 0.76540 0.07200
H 	H 	0.87130 0.71930 0.94630 -0.07400
H 	H 	0.55150 0.87990 0.31160 0.03100
H 	H 	0.48630 0.42730 0.29240 0.04200
H 	H 	0.54540 0.58280 0.23460 0.07200
H 	H 	0.76810 0.85540 0.85690 0.11100
H 	H 	0.63840 0.02600 0.79870 0.04200
H 	H 	0.89350 0.87760 0.88710 -0.01700
H 	H 	0.95210 0.57520 0.64500 0.02300
H 	H 	0.32470 0.31930 0.78630 -0.02000
H 	H 	0.77470 0.91730 0.76920 0.07400
H 	H 	0.06470 0.23730 0.12590 4.23300
H 	H 	0.73190 0.85540 0.14310 0.11100
H 	H 	0.83210 0.46570 0.78160 0.06000
H 	H 	0.54540 0.91720 0.26540 0.07200
H 	H 	0.50540 0.98100 0.28720 0.06000
H 	H 	0.77470 0.58270 0.73080 0.07400
H 	H 	0.61080 0.82370 0.40180 -0.09500
H 	H 	0.76320 0.89890 0.61840 0.08400
H 	H 	0.81570 0.62580 0.06930 0.08700
H 	H 	0.40910 0.02600 0.29140 0.04200
H 	H 	0.48630 0.07270 0.20760 0.04200
H 	H 	0.99460 0.51900 0.78720 0.05900
H 	H 	0.76810 0.64460 0.64310 0.11100
H 	H 	0.72530 0.91730 0.23080 0.07400
H 	H 	0.50540 0.51900 0.21280 0.05900
H 	H 	0.61080 0.67630 0.09820 -0.09500
H 	H 	0.01370 0.42730 0.70760 0.04200
H 	H 	0.62500 0.85250 0.06910 0.09100
H 	H 	0.42370 0.12330 0.22310 0.06500
H 	H 	0.95460 0.91720 0.73460 0.07200
H 	H 	0.61490 0.64240 0.14070 -0.02600
H 	H 	0.88510 0.85760 0.64070 -0.02600
H 	H 	0.81570 0.87420 0.43070 0.08700
H 	H 	0.81130 0.70060 0.39100 0.10200
H 	H 	0.39540 0.27670 0.87050 4.16200
H 	H 	0.87130 0.78070 0.55370 -0.07400
H 	H 	0.15660 0.08310 0.73020 0.04100
H 	H 	0.86430 0.81560 0.97810 -0.01400
H 	H 	0.27770 0.23070 0.21220 -0.06900
H 	H 	0.73300 0.62330 0.31300 0.02400
H 	H 	0.74220 0.93530 0.34170 0.02600
H 	H 	0.53570 0.53440 0.30950 0.06700
H 	H 	0.68870 0.70060 0.60900 0.10200
H 	H 	0.88920 0.82370 0.59820 -0.09500
H 	H 	0.84380 0.12270 0.26760 0.06700
H 	H 	0.76430 0.52700 0.79590 0.06800
H 	H 	0.15660 0.24110 0.12290 4.15400
H 	H 	0.57710 0.08370 0.78030 0.03800
H 	H 	0.73340 0.07910 0.72130 0.03800
H 	H 	0.15660 0.41690 0.76980 0.04100
H 	H 	0.62500 0.64750 0.43090 0.09100
H 	H 	0.62870 0.71930 0.05370 -0.07500
H 	H 	0.65620 0.12270 0.73240 0.06700
H 	H 	0.96430 0.96560 0.80950 0.06800
H 	H 	0.92290 0.41630 0.28030 0.03800
H 	H 	0.89510 0.18200 0.28820 0.08200
H 	H 	0.76160 0.98050 0.20460 0.06400
H 	H 	0.50810 0.27020 0.78420 0.03700
H 	H 	0.67800 0.76250 0.93820 -0.02400
H 	H 	0.10460 0.27670 0.12950 4.16300
H 	H 	0.49000 0.13100 0.78780 0.10200
H 	H 	0.68870 0.79940 0.89100 0.10200
H 	H 	0.76700 0.87670 0.81300 0.02400
H 	H 	0.40910 0.47400 0.20860 0.04300
H 	H 	0.13050 0.18280 0.79500 0.08200
H 	H 	0.40100 0.18030 0.78690 -0.01600
H 	H 	0.91240 0.47130 0.70540 0.05800
H 	H 	0.73340 0.42090 0.77870 0.03800
H 	H 	0.49000 0.36900 0.71220 0.10200
H 	H 	0.36950 0.18280 0.20500 0.08200
H 	H 	0.32470 0.18070 0.71370 -0.02000
H 	H 	0.94850 0.87990 0.68840 0.03100
H 	H 	0.73190 0.64460 0.35690 0.11100
H 	H 	0.60490 0.31800 0.78820 0.08300
H 	H 	0.86160 0.02600 0.20130 0.04200
H 	H 	0.99190 0.27020 0.21580 0.03700
H 	H 	0.65620 0.37730 0.76760 0.06700
H 	H 	0.95210 0.92480 0.85500 0.02400
H 	H 	0.01000 0.13100 0.21220 0.10200
H 	H 	0.66790 0.46570 0.21840 0.06000
H 	H 	0.13050 0.31720 0.70500 0.08200
H 	H 	0.67800 0.73750 0.56180 -0.02400
H 	H 	0.87500 0.64750 0.56910 0.09100
H 	H 	0.76430 0.97300 0.70410 0.06800
H 	H 	0.09090 0.02600 0.70860 0.04300
H 	H 	0.96430 0.53440 0.69050 0.06700
H 	H 	0.75780 0.56470 0.84170 0.02600
H 	H 	0.88510 0.64240 0.85930 -0.02600
H 	H 	0.73570 0.52700 0.20410 0.06800
H 	H 	0.23810 0.13050 0.71630 0.09800
H 	H 	0.55150 0.62010 0.18840 0.03100
H 	H 	0.62870 0.78070 0.44630 -0.07400
H 	H 	0.94850 0.62010 0.81160 0.03100
H 	H 	0.74220 0.56470 0.15830 0.02600
H 	H 	0.63840 0.47400 0.70130 0.04200
H 	H 	0.86430 0.68440 0.52190 -0.01600
H 	H 	0.63570 0.81560 0.02190 -0.01700
H 	H 	0.34340 0.25890 0.62290 4.15400
H 	H 	0.54790 0.92480 0.14500 0.02300
H 	H 	0.40100 0.31970 0.71310 -0.01600
H 	H 	0.68430 0.62580 0.93070 0.08700
H 	H 	0.07630 0.37670 0.72310 0.06500
H 	H 	0.17530 0.18070 0.28630 -0.02000
H 	H 	0.34340 0.08310 0.26980 0.04000
H 	H 	0.01370 0.07270 0.79240 0.04200
H 	H 	0.76660 0.42090 0.22130 0.03800
H 	H 	0.83050 0.82870 0.47050 -0.01800
H 	H 	0.66950 0.67130 0.97050 -0.01700
H 	H 	0.58760 0.02870 0.20540 0.05800
H 	H 	0.34340 0.24110 0.87710 4.15300
H 	H 	0.23810 0.36950 0.78370 0.09800
H 	H 	0.27770 0.26930 0.28780 -0.06900
H 	H 	0.99190 0.22980 0.28420 0.03700
H 	H 	0.73570 0.97300 0.29590 0.06800
H 	H 	0.76160 0.51950 0.29540 0.06300
H 	H 	0.22230 0.23070 0.78780 -0.06900
H 	H 	0.39540 0.22330 0.62950 4.16300
H 	H 	0.43530 0.26270 0.62590 4.23200
H 	H 	0.76320 0.60110 0.88160 0.08400
H 	H 	0.60650 0.87760 0.11290 -0.01800
H 	H 	0.22230 0.26930 0.71220 -0.06900
H 	H 	0.01000 0.36900 0.28780 0.10200
C 	C 	0.80200 0.54568 0.79902 -0.11200
C 	C 	0.36690 0.24870 0.82170 5.18900
C 	C 	0.55620 0.14991 0.75049 0.12700
C 	C 	0.86760 0.52537 0.74461 -0.09000
C 	C 	0.61580 0.38081 0.75226 -0.12400
C 	C 	0.91510 0.92123 0.71905 -0.10900
C 	C 	0.76170 0.49956 0.28054 -0.08900
C 	C 	0.05450 0.47278 0.77418 -0.05000
C 	C 	0.85430 0.62477 0.62900 0.10400
C 	C 	0.86760 0.97463 0.75539 -0.08900
C 	C 	0.71430 0.82820 0.54290 0.08100
C 	C 	0.67780 0.02812 0.78269 -0.04500
C 	C 	0.58380 0.92359 0.16245 -0.00900
C 	C 	0.68940 0.91953 0.21345 -0.11500
C 	C 	0.85090 0.90225 0.66894 -0.02700
C 	C 	0.56430 0.31919 0.77272 -0.16900
C 	C 	0.78670 0.64765 0.91160 0.13500
C 	C 	0.93570 0.18081 0.27272 -0.16900
C 	C 	0.27540 0.21013 0.22639 0.10800
C 	C 	0.13310 0.25130 0.32170 5.19000
C 	C 	0.71710 0.67040 0.40627 0.09500
C 	C 	0.82910 0.81240 0.96065 0.04600
C 	C 	0.63790 0.94987 0.27624 0.07200
C 	C 	0.16840 0.18192 0.77830 -0.19400
C 	C 	0.91040 0.60163 0.80843 -0.01600
C 	C 	0.78250 0.78052 0.06330 0.02900
C 	C 	0.64300 0.89781 0.16210 -0.04300
C 	C 	0.79360 0.03254 0.73477 -0.08700
C 	C 	0.83360 0.70090 0.94250 -0.02900
C 	C 	0.58490 0.92123 0.28095 -0.11000
C 	C 	0.72390 0.69740 0.59156 -0.32300
C 	C 	0.93570 0.31919 0.22728 -0.16900
C 	C 	0.55230 0.47225 0.27692 -0.08300
C 	C 	0.71750 0.71948 0.56330 0.02900
C 	C 	0.80370 0.64360 0.62560 -0.22800
C 	C 	0.77610 0.80260 0.09156 -0.32300
C 	C 	0.57730 0.55141 0.31028 -0.11500
C 	C 	0.00400 0.34968 0.27249 -0.19300
C 	C 	0.72120 0.85510 0.56710 -0.19200
C 	C 	0.92270 0.94859 0.81028 -0.11500
C 	C 	0.73460 0.44037 0.76333 -0.04400
C 	C 	0.56130 -0.00001 0.24616 0.05400
C 	C 	0.11570 0.08684 0.74516 -0.03900
C 	C 	0.99600 0.00006 0.72852 -0.08100
C 	C 	0.94770 0.47225 0.72308 -0.08200
C 	C 	0.88300 0.41241 0.26488 -0.03300
C 	C 	0.50430 0.20955 0.73022 0.10300
C 	C 	0.69800 0.95432 0.29902 -0.11200
C 	C 	0.70240 0.87863 0.38240 -0.17400
C 	C 	0.58750 0.74500 0.98650 0.09400
C 	C 	0.69410 0.89512 0.18726 0.00300
C 	C 	0.66450 0.83447 0.06760 -0.23300
C 	C 	0.82220 0.47188 0.28269 -0.04600
C 	C 	0.05870 0.05604 0.74871 0.02200
C 	C 	0.22460 0.21013 0.77361 0.10800
C 	C 	0.38430 0.08684 0.25484 -0.03900
C 	C 	0.21460 0.18089 0.27020 0.10500
C 	C 	0.81060 0.58047 0.71345 -0.11500
C 	C 	0.64570 0.87523 0.12900 0.10400
C 	C 	0.33160 0.31808 0.27830 -0.19400
C 	C 	0.86820 0.55214 0.71493 0.07500
C 	C 	0.49180 0.05526 0.22460 -0.05000
C 	C 	0.71430 0.67180 0.95710 0.08100
C 	C 	0.58750 0.75500 0.51350 0.09200
C 	C 	0.22460 0.28987 0.72639 0.10800
C 	C 	0.92270 0.55141 0.68972 -0.11500
C 	C 	0.28540 0.31911 0.77020 0.10500
C 	C 	0.13310 0.24870 0.17830 5.19100
C 	C 	0.88420 0.11919 0.25226 -0.12400
C 	C 	0.69630 0.64360 0.37440 -0.22800
C 	C 	0.44550 0.02722 0.27418 -0.04900
C 	C 	0.78290 0.67040 0.59373 0.09500
C 	C 	0.44240 0.18061 0.77170 0.12600
C 	C 	0.23310 0.34960 0.76898 -0.19800
C 	C 	0.49180 0.44474 0.27540 -0.05000
C 	C 	0.69410 0.60488 0.31274 0.00300
C 	C 	0.76170 0.00044 0.21946 -0.09000
C 	C 	0.67090 0.68760 0.46065 0.04600
C 	C 	0.11570 0.41316 0.75484 -0.04000
C 	C 	0.70640 0.46746 0.23477 -0.08700
C 	C 	0.50400 0.49994 0.22852 -0.08100
C 	C 	0.70240 0.62137 0.11760 -0.17400
C 	C 	0.38500 0.38067 0.26096 -0.11800
C 	C 	0.70250 0.93136 0.32613 -0.01600
C 	C 	0.63790 0.55013 0.22376 0.07200
C 	C 	0.78250 0.71948 0.43670 0.03000
C 	C 	0.16840 0.31808 0.72170 -0.19300
C 	C 	0.94380 0.14991 0.24951 0.12700
C 	C 	0.91620 0.92359 0.83755 -0.01000
C 	C 	0.85700 0.89781 0.83790 -0.04200
C 	C 	0.83360 0.79910 0.55750 -0.02900
C 	C 	0.69800 0.54568 0.20098 -0.11200
C 	C 	0.64910 0.59775 0.16894 -0.02700
C 	C 	0.44240 0.31939 0.72830 0.12600
C 	C 	0.78670 0.85235 0.58840 0.13400
C 	C 	0.63240 0.97463 0.24461 -0.09000
C 	C 	0.64570 0.62477 0.37100 0.10400
C 	C 	0.71330 0.64765 0.08840 0.13400
C 	C 	0.05760 0.31939 0.27170 0.12500
C 	C 	0.94770 0.02775 0.77692 -0.08200
C 	C 	0.91620 0.57641 0.66245 -0.01000
C 	C 	0.00820 0.44474 0.72460 -0.05100
C 	C 	0.71750 0.78052 0.93670 0.03000
C 	C 	0.49600 0.34968 0.72751 -0.19300
C 	C 	0.70430 0.49731 0.25719 0.05700
C 	C 	0.56130 0.50001 0.25384 0.05500
C 	C 	0.99570 0.20955 0.26978 0.10300
C 	C 	0.72120 0.64490 0.93290 -0.19200
C 	C 	0.79570 0.49731 0.74281 0.05700
C 	C 	0.58490 0.57877 0.21905 -0.11000
C 	C 	0.21460 0.31911 0.22980 0.10500
C 	C 	0.81060 0.91953 0.78655 -0.11400
C 	C 	0.86210 0.94987 0.72376 0.07200
C 	C 	0.67090 0.81240 0.03935 0.04600
C 	C 	0.58960 0.60163 0.19157 -0.01600
C 	C 	0.55620 0.35009 0.74951 0.12700
C 	C 	0.67780 0.47188 0.71731 -0.04500
C 	C 	0.99600 0.49994 0.77148 -0.08000
C 	C 	0.94380 0.35009 0.25049 0.12600
C 	C 	0.82220 0.02812 0.21731 -0.04500
C 	C 	0.73830 0.00044 0.78054 -0.09000
C 	C 	0.91250 0.74500 0.01350 0.09000
C 	C 	0.27540 0.28987 0.27361 0.10800
C 	C 	0.65460 0.82500 0.41560 -0.24500
C 	C 	0.23310 0.15040 0.73102 -0.19800
C 	C 	0.26690 0.15040 0.26898 -0.19800
C 	C 	0.73830 0.49956 0.71946 -0.08900
C 	C 	0.26690 0.34960 0.23102 -0.19800
C 	C 	0.77610 0.69740 0.40844 -0.32300
C 	C 	0.63180 0.55214 0.28507 0.07500
C 	C 	0.63180 0.94786 0.21493 0.07500
C 	C 	0.84540 0.82500 0.58440 -0.24500
C 	C 	0.56430 0.18081 0.72728 -0.16900
C 	C 	0.84540 0.67500 0.91560 -0.24500
C 	C 	0.66640 0.79910 0.44250 -0.02900
C 	C 	0.73460 0.05963 0.73667 -0.04400
C 	C 	0.57730 0.94859 0.18972 -0.11500
C 	C 	0.79760 0.62137 0.88240 -0.17400
C 	C 	0.79360 0.46746 0.76523 -0.08700
C 	C 	0.76540 0.05963 0.26333 -0.04400
C 	C 	0.32570 0.34927 0.25454 0.12000
C 	C 	0.68940 0.58047 0.28655 -0.11500
C 	C 	0.70430 0.00269 0.24281 0.05700
C 	C 	0.78570 0.82820 0.45710 0.08100
C 	C 	0.78290 0.82960 0.90627 0.09500
C 	C 	0.88300 0.08759 0.23512 -0.03300
C 	C 	0.05450 0.02722 0.72582 -0.05000
C 	C 	0.84800 0.87677 0.64137 0.01900
C 	C 	0.11500 0.11933 0.76096 -0.11800
C 	C 	0.80590 0.89512 0.81274 0.00300
C 	C 	0.85090 0.59775 0.83106 -0.02700
C 	C 	0.71710 0.82960 0.09373 0.09500
C 	C 	0.32570 0.15073 0.24546 0.12000
C 	C 	0.83550 0.66553 0.56760 -0.23300
C 	C 	0.72390 0.80260 0.90844 -0.32300
C 	C 	0.38500 0.11933 0.23904 -0.11800
C 	C 	0.65200 0.62323 0.14137 0.01900
C 	C 	0.61580 0.11919 0.74774 -0.12500
C 	C 	0.44130 0.05604 0.25129 0.02100
C 	C 	0.66450 0.66553 0.43240 -0.23300
C 	C 	0.36690 0.25130 0.67830 5.19000
C 	C 	0.93870 0.50001 0.74616 0.05400
C 	C 	0.99570 0.29045 0.23022 0.10300
C 	C 	0.38430 0.41316 0.24516 -0.03900
C 	C 	0.67770 0.05779 0.76117 0.01600
C 	C 	0.82910 0.68760 0.53935 0.04600
C 	C 	0.00400 0.15032 0.22751 -0.19300
C 	C 	0.80200 0.95432 0.70098 -0.11200
C 	C 	0.86210 0.55013 0.77624 0.07200
C 	C 	0.58960 0.89837 0.30843 -0.01600
C 	C 	0.80590 0.60488 0.68726 0.00300
C 	C 	0.91250 0.75500 0.48650 0.09200
C 	C 	0.82230 0.44221 0.26117 0.01600
C 	C 	0.85430 0.87523 0.87100 0.10300
C 	C 	0.65200 0.87677 0.35863 0.01900
C 	C 	0.70640 0.03254 0.26523 -0.08700
C 	C 	0.49600 0.15032 0.77249 -0.19300
C 	C 	0.91040 0.89837 0.69157 -0.01600
C 	C 	0.05870 0.44396 0.75129 0.02200
C 	C 	0.64910 0.90225 0.33106 -0.02700
C 	C 	0.84800 0.62323 0.85863 0.01900
C 	C 	0.86820 0.94786 0.78507 0.07400
C 	C 	0.17430 0.15073 0.75454 0.12000
C 	C 	0.77880 0.64490 0.06710 -0.19200
C 	C 	0.00820 0.05526 0.77540 -0.05100
C 	C 	0.44130 0.44396 0.24871 0.02100
C 	C 	0.85700 0.60219 0.66210 -0.04300
C 	C 	0.05760 0.18061 0.22830 0.12500
C 	C 	0.65460 0.67500 0.08440 -0.24500
C 	C 	0.71330 0.85235 0.41160 0.13400
C 	C 	0.50400 0.00006 0.27148 -0.08200
C 	C 	0.91510 0.57877 0.78095 -0.10900
C 	C 	0.67770 0.44221 0.73883 0.01600
C 	C 	0.79570 0.00269 0.75719 0.05700
C 	C 	0.79750 0.93136 0.67387 -0.01600
C 	C 	0.55230 0.02775 0.22308 -0.08300
C 	C 	0.70250 0.56864 0.17387 -0.01600
C 	C 	0.82230 0.05779 0.23883 0.01600
C 	C 	0.93870 -0.00001 0.75384 0.05400
C 	C 	0.50430 0.29045 0.76978 0.10300
C 	C 	0.11500 0.38067 0.73904 -0.11800
C 	C 	0.66640 0.70090 0.05750 -0.03000
C 	C 	0.63240 0.52537 0.25539 -0.09000
C 	C 	0.64300 0.60219 0.33790 -0.04300
C 	C 	0.33160 0.18192 0.22170 -0.19400
C 	C 	0.79750 0.56864 0.82613 -0.01600
C 	C 	0.61700 0.08759 0.76488 -0.03300
C 	C 	0.77880 0.85510 0.43290 -0.19200
C 	C 	0.83550 0.83447 0.93240 -0.23200
C 	C 	0.69630 0.85640 0.12560 -0.22900
C 	C 	0.80370 0.85640 0.87440 -0.22800
C 	C 	0.61700 0.41241 0.73512 -0.03300
C 	C 	0.88420 0.38081 0.24774 -0.12400
C 	C 	0.78570 0.67180 0.04290 0.08000
C 	C 	0.17430 0.34927 0.74546 0.12000
C 	C 	0.28540 0.18089 0.72980 0.10500
C 	C 	0.44550 0.47278 0.22582 -0.04900
C 	C 	0.79760 0.87863 0.61760 -0.17400
C 	C 	0.76540 0.44037 0.23667 -0.04500
C 	C 	0.58380 0.57641 0.33755 -0.01000
N 	N 	0.12870 0.24800 0.29780 -2.25800
N 	N 	0.85590 0.75750 0.49070 -0.33000
N 	N 	0.64410 0.75750 0.50930 -0.33000
N 	N 	0.28180 0.28984 0.74954 -0.25400
N 	N 	0.44650 0.20983 0.75074 -0.21900
N 	N 	0.77010 0.71461 0.53718 -0.24100
N 	N 	0.12870 0.25200 0.20220 -2.25900
N 	N 	0.76900 0.80053 0.53716 -0.22800
N 	N 	0.21820 0.28984 0.25046 -0.25400
N 	N 	0.44650 0.29017 0.74926 -0.21900
N 	N 	0.85590 0.74250 0.00930 -0.33000
N 	N 	0.73100 0.69947 0.03716 -0.22900
N 	N 	0.05350 0.29017 0.25074 -0.21800
N 	N 	0.37130 0.24800 0.70220 -2.25800
N 	N 	0.73100 0.80053 0.46284 -0.22800
N 	N 	0.05350 0.20983 0.24926 -0.21800
N 	N 	0.72990 0.78539 0.03718 -0.24200
N 	N 	0.28180 0.21016 0.75046 -0.25400
N 	N 	0.64410 0.74250 0.99070 -0.32900
N 	N 	0.72990 0.71461 0.46282 -0.24100
N 	N 	0.76900 0.69947 0.96284 -0.22700
N 	N 	0.77010 0.78539 0.96282 -0.24000
N 	N 	0.37130 0.25200 0.79780 -2.25800
N 	N 	0.21820 0.21016 0.24954 -0.25400
