data_crystal

_cell_length_a 30.45890
_cell_length_b 30.45890
_cell_length_c 44.28700
_cell_angle_alpha 90.00000
_cell_angle_beta  90.00000
_cell_angle_gamma 90.00000

_symmetry_space_group_name_	'P 1'
_symmetry_space_group_name_H-M	'P 1'

loop_
_symmetry_equiv_pos_as_xyz
  x,y,z

loop_
_atom_site_label
_atom_site_type_symbol
_atom_site_fract_x
_atom_site_fract_y
_atom_site_fract_z
_atom_site_charge
Zn	Zn	0.02166 0.24479 0.13005 1.25700
Zn	Zn	0.01255 0.15081 0.17314 1.18300
C 	C 	0.78040 0.25000 0.09600 -0.07600
H 	H 	0.79300 0.23660 0.11280 0.06500
C 	C 	0.78950 0.24210 0.06760 0.09000
C 	C 	0.82430 0.20880 0.05160 -0.07000
C 	C 	0.83270 0.19540 0.01960 0.13100
C 	C 	0.86250 0.16420 0.01520 -0.09600
H 	H 	0.87850 0.14740 0.02890 0.07400
O 	O 	0.79400 0.06640 0.11600 -0.46200
O 	O 	0.84650 0.06450 0.14890 -0.52100
O 	O 	0.96870 0.16710 0.14400 -0.51800
O 	O 	0.97350 0.22260 0.11230 -0.52500
C 	C 	0.95150 0.19320 0.12060 0.44100
C 	C 	0.91110 0.17270 0.11170 -0.18600
C 	C 	0.88900 0.13750 0.12330 0.13600
H 	H 	0.90240 0.12210 0.13890 -0.03300
C 	C 	0.84950 0.12330 0.11390 -0.19300
C 	C 	0.82690 0.08820 0.12660 0.39600
C 	C 	0.82580 0.14670 0.09210 0.01300
H 	H 	0.79720 0.13870 0.08730 0.04800
C 	C 	0.84560 0.18200 0.07790 -0.00100
C 	C 	0.88640 0.19650 0.08970 0.00600
H 	H 	0.89770 0.22300 0.08270 0.05100
O 	O 	0.03280 0.29820 0.11060 -0.39200
O 	O 	0.09370 0.29230 0.14090 -0.26600
C 	C 	0.07020 0.31420 0.12120 0.22600
C 	C 	0.08940 0.35830 0.11280 0.04800
C 	C 	0.06610 0.38040 0.09210 -0.14300
H 	H 	0.03940 0.36890 0.08570 0.11000
C 	C 	0.04310 0.41030 0.24950 0.13200
C 	C 	0.08230 0.38750 0.25200 -0.08600
H 	H 	0.08620 0.35720 0.25330 0.06900
C 	C 	0.00430 0.26650 0.22300 0.04600
C 	C 	0.00260 0.31280 0.22600 -0.16600
H 	H 	0.00340 0.32860 0.20800 0.11000
O 	O 	0.00520 0.26690 0.16730 -0.44700
O 	O 	0.01380 0.19680 0.19720 -0.53100
C 	C 	0.01240 0.24200 0.18980 0.24300
Zn	Zn	0.52166 0.74479 0.63005 1.25900
Zn	Zn	0.51255 0.65081 0.67314 1.18600
C 	C 	0.28040 0.75000 0.59600 -0.07500
H 	H 	0.29300 0.73660 0.61280 0.06600
C 	C 	0.28950 0.74210 0.56760 0.09100
C 	C 	0.32430 0.70880 0.55160 -0.06900
C 	C 	0.33270 0.69540 0.51960 0.13200
C 	C 	0.36250 0.66420 0.51520 -0.09500
H 	H 	0.37850 0.64740 0.52890 0.07500
O 	O 	0.29400 0.56640 0.61600 -0.46000
O 	O 	0.34650 0.56450 0.64890 -0.51900
O 	O 	0.46870 0.66710 0.64400 -0.52000
O 	O 	0.47350 0.72260 0.61230 -0.52800
C 	C 	0.45150 0.69320 0.62060 0.44300
C 	C 	0.41110 0.67270 0.61170 -0.18600
C 	C 	0.38900 0.63750 0.62330 0.13800
H 	H 	0.40240 0.62210 0.63890 -0.03200
C 	C 	0.34950 0.62330 0.61390 -0.19200
C 	C 	0.32690 0.58820 0.62660 0.39700
C 	C 	0.32580 0.64670 0.59210 0.01500
H 	H 	0.29720 0.63870 0.58730 0.04900
C 	C 	0.34560 0.68200 0.57790 -0.00000
C 	C 	0.38640 0.69650 0.58970 0.00700
H 	H 	0.39770 0.72300 0.58270 0.05200
O 	O 	0.53280 0.79820 0.61060 -0.38900
O 	O 	0.59370 0.79230 0.64090 -0.26500
C 	C 	0.57020 0.81420 0.62120 0.22700
C 	C 	0.58940 0.85830 0.61280 0.05000
C 	C 	0.56610 0.88040 0.59210 -0.14200
H 	H 	0.53940 0.86890 0.58570 0.11300
C 	C 	0.54310 0.91030 0.74950 0.13300
C 	C 	0.58230 0.88750 0.75200 -0.08300
H 	H 	0.58620 0.85720 0.75330 0.06900
C 	C 	0.50430 0.76650 0.72300 0.04600
C 	C 	0.50260 0.81280 0.72600 -0.16800
H 	H 	0.50340 0.82860 0.70800 0.11200
O 	O 	0.50520 0.76690 0.66730 -0.44500
O 	O 	0.51380 0.69680 0.69720 -0.52900
C 	C 	0.51240 0.74200 0.68980 0.24400
Zn	Zn	0.97834 0.75521 0.13005 1.26000
Zn	Zn	0.98745 0.84919 0.17314 1.18700
C 	C 	0.21960 0.75000 0.09600 -0.07500
H 	H 	0.20700 0.76340 0.11280 0.06500
C 	C 	0.21050 0.75790 0.06760 0.09100
C 	C 	0.17570 0.79120 0.05160 -0.06900
C 	C 	0.16730 0.80460 0.01960 0.13200
C 	C 	0.13750 0.83580 0.01520 -0.09500
H 	H 	0.12150 0.85260 0.02890 0.07500
O 	O 	0.20600 0.93360 0.11600 -0.45900
O 	O 	0.15350 0.93550 0.14890 -0.51800
O 	O 	0.03130 0.83290 0.14400 -0.52300
O 	O 	0.02650 0.77740 0.11230 -0.53100
C 	C 	0.04850 0.80680 0.12060 0.44300
C 	C 	0.08890 0.82730 0.11170 -0.18700
C 	C 	0.11100 0.86250 0.12330 0.13800
H 	H 	0.09760 0.87790 0.13890 -0.03200
C 	C 	0.15050 0.87670 0.11390 -0.19200
C 	C 	0.17310 0.91180 0.12660 0.39700
C 	C 	0.17420 0.85330 0.09210 0.01500
H 	H 	0.20280 0.86130 0.08730 0.04900
C 	C 	0.15440 0.81800 0.07790 -0.00000
C 	C 	0.11360 0.80350 0.08970 0.00800
H 	H 	0.10230 0.77700 0.08270 0.05100
O 	O 	0.96720 0.70180 0.11060 -0.38800
O 	O 	0.90630 0.70770 0.14090 -0.26500
C 	C 	0.92980 0.68580 0.12120 0.22700
C 	C 	0.91060 0.64170 0.11280 0.05000
C 	C 	0.93390 0.61960 0.09210 -0.14200
H 	H 	0.96060 0.63110 0.08570 0.11300
C 	C 	0.95690 0.58970 0.24950 0.14000
C 	C 	0.91770 0.61250 0.25200 -0.08900
H 	H 	0.91380 0.64280 0.25330 0.07200
C 	C 	0.99570 0.73350 0.22300 0.05100
C 	C 	0.99740 0.68720 0.22600 -0.15900
H 	H 	0.99660 0.67140 0.20800 0.11000
O 	O 	0.99480 0.73310 0.16730 -0.44300
O 	O 	0.98620 0.80320 0.19720 -0.52600
C 	C 	0.98760 0.75800 0.18980 0.24400
Zn	Zn	0.47834 0.25521 0.63005 1.25900
Zn	Zn	0.48745 0.34919 0.67314 1.18600
C 	C 	0.71960 0.25000 0.59600 -0.07500
H 	H 	0.70700 0.26340 0.61280 0.06600
C 	C 	0.71050 0.25790 0.56760 0.09100
C 	C 	0.67570 0.29120 0.55160 -0.06900
C 	C 	0.66730 0.30460 0.51960 0.13200
C 	C 	0.63750 0.33580 0.51520 -0.09500
H 	H 	0.62150 0.35260 0.52890 0.07500
O 	O 	0.70600 0.43360 0.61600 -0.46000
O 	O 	0.65350 0.43550 0.64890 -0.51900
O 	O 	0.53130 0.33290 0.64400 -0.52000
O 	O 	0.52650 0.27740 0.61230 -0.52800
C 	C 	0.54850 0.30680 0.62060 0.44300
C 	C 	0.58890 0.32730 0.61170 -0.18600
C 	C 	0.61100 0.36250 0.62330 0.13800
H 	H 	0.59760 0.37790 0.63890 -0.03200
C 	C 	0.65050 0.37670 0.61390 -0.19200
C 	C 	0.67310 0.41180 0.62660 0.39700
C 	C 	0.67420 0.35330 0.59210 0.01500
H 	H 	0.70280 0.36130 0.58730 0.04900
C 	C 	0.65440 0.31800 0.57790 -0.00000
C 	C 	0.61360 0.30350 0.58970 0.00700
H 	H 	0.60230 0.27700 0.58270 0.05200
O 	O 	0.46720 0.20180 0.61060 -0.39000
O 	O 	0.40630 0.20770 0.64090 -0.26500
C 	C 	0.42980 0.18580 0.62120 0.22700
C 	C 	0.41060 0.14170 0.61280 0.04900
C 	C 	0.43390 0.11960 0.59210 -0.14200
H 	H 	0.46060 0.13110 0.58570 0.11200
C 	C 	0.45690 0.08970 0.74950 0.13300
C 	C 	0.41770 0.11250 0.75200 -0.08500
H 	H 	0.41380 0.14280 0.75330 0.06900
C 	C 	0.49570 0.23350 0.72300 0.04600
C 	C 	0.49740 0.18720 0.72600 -0.16800
H 	H 	0.49660 0.17140 0.70800 0.11200
O 	O 	0.49480 0.23310 0.66730 -0.44500
O 	O 	0.48620 0.30320 0.69720 -0.52900
C 	C 	0.48760 0.25800 0.68980 0.24400
Zn	Zn	0.75521 0.02166 0.13005 1.25800
Zn	Zn	0.84919 0.01255 0.17314 1.18500
C 	C 	0.75000 0.78040 0.09600 -0.07500
H 	H 	0.76340 0.79300 0.11280 0.06600
C 	C 	0.75790 0.78950 0.06760 0.09100
C 	C 	0.79120 0.82430 0.05160 -0.06900
C 	C 	0.80460 0.83270 0.01960 0.13200
C 	C 	0.83580 0.86250 0.01520 -0.09400
H 	H 	0.85260 0.87850 0.02890 0.07600
O 	O 	0.93360 0.79400 0.11600 -0.45900
O 	O 	0.93550 0.84650 0.14890 -0.51700
O 	O 	0.83290 0.96870 0.14400 -0.51600
O 	O 	0.77740 0.97350 0.11230 -0.52400
C 	C 	0.80680 0.95150 0.12060 0.44200
C 	C 	0.82730 0.91110 0.11170 -0.18400
C 	C 	0.86250 0.88900 0.12330 0.13600
H 	H 	0.87790 0.90240 0.13890 -0.03100
C 	C 	0.87670 0.84950 0.11390 -0.19000
C 	C 	0.91180 0.82690 0.12660 0.39700
C 	C 	0.85330 0.82580 0.09210 0.01400
H 	H 	0.86130 0.79720 0.08730 0.04900
C 	C 	0.81800 0.84560 0.07790 0.00100
C 	C 	0.80350 0.88640 0.08970 0.00700
H 	H 	0.77700 0.89770 0.08270 0.05300
O 	O 	0.70180 0.03280 0.11060 -0.39100
O 	O 	0.70770 0.09370 0.14090 -0.26500
C 	C 	0.68580 0.07020 0.12120 0.22700
C 	C 	0.64170 0.08940 0.11280 0.04900
C 	C 	0.61960 0.06610 0.09210 -0.14200
H 	H 	0.63110 0.03940 0.08570 0.11100
C 	C 	0.58970 0.04310 0.24950 0.13300
C 	C 	0.61250 0.08230 0.25200 -0.08600
H 	H 	0.64280 0.08620 0.25330 0.06900
C 	C 	0.73350 0.00430 0.22300 0.04600
C 	C 	0.68720 0.00260 0.22600 -0.16600
H 	H 	0.67140 0.00340 0.20800 0.11000
O 	O 	0.73310 0.00520 0.16730 -0.44700
O 	O 	0.80320 0.01380 0.19720 -0.53000
C 	C 	0.75800 0.01240 0.18980 0.24300
Zn	Zn	0.25521 0.52166 0.63005 1.25900
Zn	Zn	0.34919 0.51255 0.67314 1.18600
C 	C 	0.25000 0.28040 0.59600 -0.07500
H 	H 	0.26340 0.29300 0.61280 0.06600
C 	C 	0.25790 0.28950 0.56760 0.09100
C 	C 	0.29120 0.32430 0.55160 -0.06900
C 	C 	0.30460 0.33270 0.51960 0.13200
C 	C 	0.33580 0.36250 0.51520 -0.09500
H 	H 	0.35260 0.37850 0.52890 0.07500
O 	O 	0.43360 0.29400 0.61600 -0.46000
O 	O 	0.43550 0.34650 0.64890 -0.51900
O 	O 	0.33290 0.46870 0.64400 -0.52000
O 	O 	0.27740 0.47350 0.61230 -0.52800
C 	C 	0.30680 0.45150 0.62060 0.44300
C 	C 	0.32730 0.41110 0.61170 -0.18600
C 	C 	0.36250 0.38900 0.62330 0.13800
H 	H 	0.37790 0.40240 0.63890 -0.03200
C 	C 	0.37670 0.34950 0.61390 -0.19200
C 	C 	0.41180 0.32690 0.62660 0.39700
C 	C 	0.35330 0.32580 0.59210 0.01500
H 	H 	0.36130 0.29720 0.58730 0.04900
C 	C 	0.31800 0.34560 0.57790 -0.00000
C 	C 	0.30350 0.38640 0.58970 0.00700
H 	H 	0.27700 0.39770 0.58270 0.05200
O 	O 	0.20180 0.53280 0.61060 -0.39000
O 	O 	0.20770 0.59370 0.64090 -0.26500
C 	C 	0.18580 0.57020 0.62120 0.22700
C 	C 	0.14170 0.58940 0.61280 0.04900
C 	C 	0.11960 0.56610 0.59210 -0.14200
H 	H 	0.13110 0.53940 0.58570 0.11200
C 	C 	0.08970 0.54310 0.74950 0.13300
C 	C 	0.11250 0.58230 0.75200 -0.08500
H 	H 	0.14280 0.58620 0.75330 0.07000
C 	C 	0.23350 0.50430 0.72300 0.04600
C 	C 	0.18720 0.50260 0.72600 -0.16800
H 	H 	0.17140 0.50340 0.70800 0.11200
O 	O 	0.23310 0.50520 0.66730 -0.44500
O 	O 	0.30320 0.51380 0.69720 -0.52900
C 	C 	0.25800 0.51240 0.68980 0.24400
Zn	Zn	0.24479 0.97834 0.13005 1.26000
Zn	Zn	0.15081 0.98745 0.17314 1.18700
C 	C 	0.25000 0.21960 0.09600 -0.07500
H 	H 	0.23660 0.20700 0.11280 0.06500
C 	C 	0.24210 0.21050 0.06760 0.09100
C 	C 	0.20880 0.17570 0.05160 -0.06900
C 	C 	0.19540 0.16730 0.01960 0.13200
C 	C 	0.16420 0.13750 0.01520 -0.09500
H 	H 	0.14740 0.12150 0.02890 0.07400
O 	O 	0.06640 0.20600 0.11600 -0.46200
O 	O 	0.06450 0.15350 0.14890 -0.52100
O 	O 	0.16710 0.03130 0.14400 -0.52300
O 	O 	0.22260 0.02650 0.11230 -0.53200
C 	C 	0.19320 0.04850 0.12060 0.44400
C 	C 	0.17270 0.08890 0.11170 -0.18800
C 	C 	0.13750 0.11100 0.12330 0.13900
H 	H 	0.12210 0.09760 0.13890 -0.03300
C 	C 	0.12330 0.15050 0.11390 -0.19300
C 	C 	0.08820 0.17310 0.12660 0.39800
C 	C 	0.14670 0.17420 0.09210 0.01500
H 	H 	0.13870 0.20280 0.08730 0.04800
C 	C 	0.18200 0.15440 0.07790 -0.00100
C 	C 	0.19650 0.11360 0.08970 0.00800
H 	H 	0.22300 0.10230 0.08270 0.05100
O 	O 	0.29820 0.96720 0.11060 -0.38800
O 	O 	0.29230 0.90630 0.14090 -0.26500
C 	C 	0.31420 0.92980 0.12120 0.22700
C 	C 	0.35830 0.91060 0.11280 0.05000
C 	C 	0.38040 0.93390 0.09210 -0.14200
H 	H 	0.36890 0.96060 0.08570 0.11300
C 	C 	0.41030 0.95690 0.24950 0.14000
C 	C 	0.38750 0.91770 0.25200 -0.08800
H 	H 	0.35720 0.91380 0.25330 0.07200
C 	C 	0.26650 0.99570 0.22300 0.05100
C 	C 	0.31280 0.99740 0.22600 -0.15900
H 	H 	0.32860 0.99660 0.20800 0.11000
O 	O 	0.26690 0.99480 0.16730 -0.44300
O 	O 	0.19680 0.98620 0.19720 -0.52700
C 	C 	0.24200 0.98760 0.18980 0.24400
Zn	Zn	0.74479 0.47834 0.63005 1.25900
Zn	Zn	0.65081 0.48745 0.67314 1.18600
C 	C 	0.75000 0.71960 0.59600 -0.07500
H 	H 	0.73660 0.70700 0.61280 0.06600
C 	C 	0.74210 0.71050 0.56760 0.09100
C 	C 	0.70880 0.67570 0.55160 -0.06900
C 	C 	0.69540 0.66730 0.51960 0.13200
C 	C 	0.66420 0.63750 0.51520 -0.09500
H 	H 	0.64740 0.62150 0.52890 0.07500
O 	O 	0.56640 0.70600 0.61600 -0.46000
O 	O 	0.56450 0.65350 0.64890 -0.51900
O 	O 	0.66710 0.53130 0.64400 -0.52000
O 	O 	0.72260 0.52650 0.61230 -0.52800
C 	C 	0.69320 0.54850 0.62060 0.44300
C 	C 	0.67270 0.58890 0.61170 -0.18600
C 	C 	0.63750 0.61100 0.62330 0.13800
H 	H 	0.62210 0.59760 0.63890 -0.03200
C 	C 	0.62330 0.65050 0.61390 -0.19200
C 	C 	0.58820 0.67310 0.62660 0.39700
C 	C 	0.64670 0.67420 0.59210 0.01500
H 	H 	0.63870 0.70280 0.58730 0.04900
C 	C 	0.68200 0.65440 0.57790 -0.00000
C 	C 	0.69650 0.61360 0.58970 0.00700
H 	H 	0.72300 0.60230 0.58270 0.05200
O 	O 	0.79820 0.46720 0.61060 -0.38900
O 	O 	0.79230 0.40630 0.64090 -0.26500
C 	C 	0.81420 0.42980 0.62120 0.22700
C 	C 	0.85830 0.41060 0.61280 0.05000
C 	C 	0.88040 0.43390 0.59210 -0.14200
H 	H 	0.86890 0.46060 0.58570 0.11300
C 	C 	0.91030 0.45690 0.74950 0.13300
C 	C 	0.88750 0.41770 0.75200 -0.08300
H 	H 	0.85720 0.41380 0.75330 0.06900
C 	C 	0.76650 0.49570 0.72300 0.04600
C 	C 	0.81280 0.49740 0.72600 -0.16800
H 	H 	0.82860 0.49660 0.70800 0.11200
O 	O 	0.76690 0.49480 0.66730 -0.44500
O 	O 	0.69680 0.48620 0.69720 -0.52900
C 	C 	0.74200 0.48760 0.68980 0.24400
Zn	Zn	0.97834 0.24479 0.36995 1.26000
Zn	Zn	0.98745 0.15081 0.32686 1.18700
C 	C 	0.21960 0.25000 0.40400 -0.07500
H 	H 	0.20700 0.23660 0.38720 0.06500
C 	C 	0.21050 0.24210 0.43240 0.09100
C 	C 	0.17570 0.20880 0.44840 -0.06900
C 	C 	0.16730 0.19540 0.48040 0.13200
C 	C 	0.13750 0.16420 0.48480 -0.09500
H 	H 	0.12150 0.14740 0.47110 0.07400
O 	O 	0.20600 0.06640 0.38400 -0.46200
O 	O 	0.15350 0.06450 0.35110 -0.52100
O 	O 	0.03130 0.16710 0.35600 -0.52300
O 	O 	0.02650 0.22260 0.38770 -0.53200
C 	C 	0.04850 0.19320 0.37940 0.44400
C 	C 	0.08890 0.17270 0.38830 -0.18800
C 	C 	0.11100 0.13750 0.37670 0.13900
H 	H 	0.09760 0.12210 0.36110 -0.03300
C 	C 	0.15050 0.12330 0.38610 -0.19300
C 	C 	0.17310 0.08820 0.37340 0.39800
C 	C 	0.17420 0.14670 0.40790 0.01500
H 	H 	0.20280 0.13870 0.41270 0.04800
C 	C 	0.15440 0.18200 0.42210 -0.00100
C 	C 	0.11360 0.19650 0.41030 0.00800
H 	H 	0.10230 0.22300 0.41730 0.05100
O 	O 	0.96720 0.29820 0.38940 -0.38800
O 	O 	0.90630 0.29230 0.35910 -0.26500
C 	C 	0.92980 0.31420 0.37880 0.22700
C 	C 	0.91060 0.35830 0.38720 0.05000
C 	C 	0.93390 0.38040 0.40790 -0.14200
H 	H 	0.96060 0.36890 0.41430 0.11300
C 	C 	0.95690 0.41030 0.25050 0.14000
C 	C 	0.91770 0.38750 0.24800 -0.08800
H 	H 	0.91380 0.35720 0.24670 0.07200
C 	C 	0.99570 0.26650 0.27700 0.05100
C 	C 	0.99740 0.31280 0.27400 -0.15900
H 	H 	0.99660 0.32860 0.29200 0.11000
O 	O 	0.99480 0.26690 0.33270 -0.44300
O 	O 	0.98620 0.19680 0.30280 -0.52700
C 	C 	0.98760 0.24200 0.31020 0.24400
Zn	Zn	0.47834 0.74479 0.86995 1.25900
Zn	Zn	0.48745 0.65081 0.82686 1.18600
C 	C 	0.71960 0.75000 0.90400 -0.07500
H 	H 	0.70700 0.73660 0.88720 0.06600
C 	C 	0.71050 0.74210 0.93240 0.09100
C 	C 	0.67570 0.70880 0.94840 -0.06900
C 	C 	0.66730 0.69540 0.98040 0.13200
C 	C 	0.63750 0.66420 0.98480 -0.09500
H 	H 	0.62150 0.64740 0.97110 0.07500
O 	O 	0.70600 0.56640 0.88400 -0.46000
O 	O 	0.65350 0.56450 0.85110 -0.51900
O 	O 	0.53130 0.66710 0.85600 -0.52000
O 	O 	0.52650 0.72260 0.88770 -0.52800
C 	C 	0.54850 0.69320 0.87940 0.44300
C 	C 	0.58890 0.67270 0.88830 -0.18600
C 	C 	0.61100 0.63750 0.87670 0.13800
H 	H 	0.59760 0.62210 0.86110 -0.03200
C 	C 	0.65050 0.62330 0.88610 -0.19200
C 	C 	0.67310 0.58820 0.87340 0.39700
C 	C 	0.67420 0.64670 0.90790 0.01500
H 	H 	0.70280 0.63870 0.91270 0.04900
C 	C 	0.65440 0.68200 0.92210 -0.00000
C 	C 	0.61360 0.69650 0.91030 0.00700
H 	H 	0.60230 0.72300 0.91730 0.05200
O 	O 	0.46720 0.79820 0.88940 -0.39000
O 	O 	0.40630 0.79230 0.85910 -0.26500
C 	C 	0.42980 0.81420 0.87880 0.22700
C 	C 	0.41060 0.85830 0.88720 0.05000
C 	C 	0.43390 0.88040 0.90790 -0.14200
H 	H 	0.46060 0.86890 0.91430 0.11300
C 	C 	0.45690 0.91030 0.75050 0.13300
C 	C 	0.41770 0.88750 0.74800 -0.08300
H 	H 	0.41380 0.85720 0.74670 0.06900
C 	C 	0.49570 0.76650 0.77700 0.04600
C 	C 	0.49740 0.81280 0.77400 -0.16800
H 	H 	0.49660 0.82860 0.79200 0.11200
O 	O 	0.49480 0.76690 0.83270 -0.44500
O 	O 	0.48620 0.69680 0.80280 -0.52900
C 	C 	0.48760 0.74200 0.81020 0.24400
Zn	Zn	0.02166 0.75521 0.36995 1.25800
Zn	Zn	0.01255 0.84919 0.32686 1.18500
C 	C 	0.78040 0.75000 0.40400 -0.07500
H 	H 	0.79300 0.76340 0.38720 0.06600
C 	C 	0.78950 0.75790 0.43240 0.09100
C 	C 	0.82430 0.79120 0.44840 -0.06900
C 	C 	0.83270 0.80460 0.48040 0.13200
C 	C 	0.86250 0.83580 0.48480 -0.09500
H 	H 	0.87850 0.85260 0.47110 0.07600
O 	O 	0.79400 0.93360 0.38400 -0.45900
O 	O 	0.84650 0.93550 0.35110 -0.51700
O 	O 	0.96870 0.83290 0.35600 -0.51600
O 	O 	0.97350 0.77740 0.38770 -0.52400
C 	C 	0.95150 0.80680 0.37940 0.44200
C 	C 	0.91110 0.82730 0.38830 -0.18400
C 	C 	0.88900 0.86250 0.37670 0.13600
H 	H 	0.90240 0.87790 0.36110 -0.03100
C 	C 	0.84950 0.87670 0.38610 -0.19000
C 	C 	0.82690 0.91180 0.37340 0.39700
C 	C 	0.82580 0.85330 0.40790 0.01400
H 	H 	0.79720 0.86130 0.41270 0.04900
C 	C 	0.84560 0.81800 0.42210 0.00100
C 	C 	0.88640 0.80350 0.41030 0.00700
H 	H 	0.89770 0.77700 0.41730 0.05300
O 	O 	0.03280 0.70180 0.38940 -0.39100
O 	O 	0.09370 0.70770 0.35910 -0.26500
C 	C 	0.07020 0.68580 0.37880 0.22700
C 	C 	0.08940 0.64170 0.38720 0.04900
C 	C 	0.06610 0.61960 0.40790 -0.14200
H 	H 	0.03940 0.63110 0.41430 0.11100
C 	C 	0.04310 0.58970 0.25050 0.13300
C 	C 	0.08230 0.61250 0.24800 -0.08600
H 	H 	0.08620 0.64280 0.24670 0.06900
C 	C 	0.00430 0.73350 0.27700 0.04600
C 	C 	0.00260 0.68720 0.27400 -0.16600
H 	H 	0.00340 0.67140 0.29200 0.11000
O 	O 	0.00520 0.73310 0.33270 -0.44700
O 	O 	0.01380 0.80320 0.30280 -0.53000
C 	C 	0.01240 0.75800 0.31020 0.24300
Zn	Zn	0.52166 0.25521 0.86995 1.25900
Zn	Zn	0.51255 0.34919 0.82686 1.18600
C 	C 	0.28040 0.25000 0.90400 -0.07500
H 	H 	0.29300 0.26340 0.88720 0.06600
C 	C 	0.28950 0.25790 0.93240 0.09100
C 	C 	0.32430 0.29120 0.94840 -0.06900
C 	C 	0.33270 0.30460 0.98040 0.13200
C 	C 	0.36250 0.33580 0.98480 -0.09500
H 	H 	0.37850 0.35260 0.97110 0.07500
O 	O 	0.29400 0.43360 0.88400 -0.46000
O 	O 	0.34650 0.43550 0.85110 -0.51900
O 	O 	0.46870 0.33290 0.85600 -0.52000
O 	O 	0.47350 0.27740 0.88770 -0.52800
C 	C 	0.45150 0.30680 0.87940 0.44300
C 	C 	0.41110 0.32730 0.88830 -0.18600
C 	C 	0.38900 0.36250 0.87670 0.13800
H 	H 	0.40240 0.37790 0.86110 -0.03200
C 	C 	0.34950 0.37670 0.88610 -0.19200
C 	C 	0.32690 0.41180 0.87340 0.39700
C 	C 	0.32580 0.35330 0.90790 0.01500
H 	H 	0.29720 0.36130 0.91270 0.04900
C 	C 	0.34560 0.31800 0.92210 -0.00000
C 	C 	0.38640 0.30350 0.91030 0.00700
H 	H 	0.39770 0.27700 0.91730 0.05200
O 	O 	0.53280 0.20180 0.88940 -0.39000
O 	O 	0.59370 0.20770 0.85910 -0.26500
C 	C 	0.57020 0.18580 0.87880 0.22700
C 	C 	0.58940 0.14170 0.88720 0.04900
C 	C 	0.56610 0.11960 0.90790 -0.14200
H 	H 	0.53940 0.13110 0.91430 0.11200
C 	C 	0.54310 0.08970 0.75050 0.13300
C 	C 	0.58230 0.11250 0.74800 -0.08500
H 	H 	0.58620 0.14280 0.74670 0.07000
C 	C 	0.50430 0.23350 0.77700 0.04600
C 	C 	0.50260 0.18720 0.77400 -0.16800
H 	H 	0.50340 0.17140 0.79200 0.11200
O 	O 	0.50520 0.23310 0.83270 -0.44500
O 	O 	0.51380 0.30320 0.80280 -0.52900
C 	C 	0.51240 0.25800 0.81020 0.24400
Zn	Zn	0.24479 0.02166 0.36995 1.25800
Zn	Zn	0.15081 0.01255 0.32686 1.18400
C 	C 	0.25000 0.78040 0.40400 -0.07500
H 	H 	0.23660 0.79300 0.38720 0.06600
C 	C 	0.24210 0.78950 0.43240 0.09100
C 	C 	0.20880 0.82430 0.44840 -0.06900
C 	C 	0.19540 0.83270 0.48040 0.13200
C 	C 	0.16420 0.86250 0.48480 -0.09500
H 	H 	0.14740 0.87850 0.47110 0.07500
O 	O 	0.06640 0.79400 0.38400 -0.46100
O 	O 	0.06450 0.84650 0.35110 -0.52000
O 	O 	0.16710 0.96870 0.35600 -0.51700
O 	O 	0.22260 0.97350 0.38770 -0.52400
C 	C 	0.19320 0.95150 0.37940 0.44200
C 	C 	0.17270 0.91110 0.38830 -0.18500
C 	C 	0.13750 0.88900 0.37670 0.13700
H 	H 	0.12210 0.90240 0.36110 -0.03200
C 	C 	0.12330 0.84950 0.38610 -0.19200
C 	C 	0.08820 0.82690 0.37340 0.39700
C 	C 	0.14670 0.82580 0.40790 0.01400
H 	H 	0.13870 0.79720 0.41270 0.04900
C 	C 	0.18200 0.84560 0.42210 0.00000
C 	C 	0.19650 0.88640 0.41030 0.00700
H 	H 	0.22300 0.89770 0.41730 0.05200
O 	O 	0.29820 0.03280 0.38940 -0.39100
O 	O 	0.29230 0.09370 0.35910 -0.26500
C 	C 	0.31420 0.07020 0.37880 0.22700
C 	C 	0.35830 0.08940 0.38720 0.04900
C 	C 	0.38040 0.06610 0.40790 -0.14200
H 	H 	0.36890 0.03940 0.41430 0.11100
C 	C 	0.41030 0.04310 0.25050 0.13300
C 	C 	0.38750 0.08230 0.24800 -0.08600
H 	H 	0.35720 0.08620 0.24670 0.06900
C 	C 	0.26650 0.00430 0.27700 0.04600
C 	C 	0.31280 0.00260 0.27400 -0.16600
H 	H 	0.32860 0.00340 0.29200 0.11000
O 	O 	0.26690 0.00520 0.33270 -0.44700
O 	O 	0.19680 0.01380 0.30280 -0.53100
C 	C 	0.24200 0.01240 0.31020 0.24300
Zn	Zn	0.74479 0.52166 0.86995 1.25900
Zn	Zn	0.65081 0.51255 0.82686 1.18600
C 	C 	0.75000 0.28040 0.90400 -0.07500
H 	H 	0.73660 0.29300 0.88720 0.06600
C 	C 	0.74210 0.28950 0.93240 0.09100
C 	C 	0.70880 0.32430 0.94840 -0.06900
C 	C 	0.69540 0.33270 0.98040 0.13200
C 	C 	0.66420 0.36250 0.98480 -0.09500
H 	H 	0.64740 0.37850 0.97110 0.07500
O 	O 	0.56640 0.29400 0.88400 -0.46000
O 	O 	0.56450 0.34650 0.85110 -0.51900
O 	O 	0.66710 0.46870 0.85600 -0.52000
O 	O 	0.72260 0.47350 0.88770 -0.52800
C 	C 	0.69320 0.45150 0.87940 0.44300
C 	C 	0.67270 0.41110 0.88830 -0.18600
C 	C 	0.63750 0.38900 0.87670 0.13800
H 	H 	0.62210 0.40240 0.86110 -0.03200
C 	C 	0.62330 0.34950 0.88610 -0.19200
C 	C 	0.58820 0.32690 0.87340 0.39700
C 	C 	0.64670 0.32580 0.90790 0.01500
H 	H 	0.63870 0.29720 0.91270 0.04900
C 	C 	0.68200 0.34560 0.92210 -0.00000
C 	C 	0.69650 0.38640 0.91030 0.00700
H 	H 	0.72300 0.39770 0.91730 0.05200
O 	O 	0.79820 0.53280 0.88940 -0.39000
O 	O 	0.79230 0.59370 0.85910 -0.26500
C 	C 	0.81420 0.57020 0.87880 0.22700
C 	C 	0.85830 0.58940 0.88720 0.05000
C 	C 	0.88040 0.56610 0.90790 -0.14200
H 	H 	0.86890 0.53940 0.91430 0.11300
C 	C 	0.91030 0.54310 0.75050 0.13300
C 	C 	0.88750 0.58230 0.74800 -0.08300
H 	H 	0.85720 0.58620 0.74670 0.06900
C 	C 	0.76650 0.50430 0.77700 0.04600
C 	C 	0.81280 0.50260 0.77400 -0.16800
H 	H 	0.82860 0.50340 0.79200 0.11200
O 	O 	0.76690 0.50520 0.83270 -0.44500
O 	O 	0.69680 0.51380 0.80280 -0.52900
C 	C 	0.74200 0.51240 0.81020 0.24400
Zn	Zn	0.75521 0.97834 0.36995 1.26000
Zn	Zn	0.84919 0.98745 0.32686 1.18700
C 	C 	0.75000 0.21960 0.40400 -0.07500
H 	H 	0.76340 0.20700 0.38720 0.06500
C 	C 	0.75790 0.21050 0.43240 0.09100
C 	C 	0.79120 0.17570 0.44840 -0.06900
C 	C 	0.80460 0.16730 0.48040 0.13200
C 	C 	0.83580 0.13750 0.48480 -0.09500
H 	H 	0.85260 0.12150 0.47110 0.07500
O 	O 	0.93360 0.20600 0.38400 -0.45900
O 	O 	0.93550 0.15350 0.35110 -0.51800
O 	O 	0.83290 0.03130 0.35600 -0.52300
O 	O 	0.77740 0.02650 0.38770 -0.53100
C 	C 	0.80680 0.04850 0.37940 0.44300
C 	C 	0.82730 0.08890 0.38830 -0.18700
C 	C 	0.86250 0.11100 0.37670 0.13800
H 	H 	0.87790 0.09760 0.36110 -0.03200
C 	C 	0.87670 0.15050 0.38610 -0.19200
C 	C 	0.91180 0.17310 0.37340 0.39700
C 	C 	0.85330 0.17420 0.40790 0.01500
H 	H 	0.86130 0.20280 0.41270 0.04900
C 	C 	0.81800 0.15440 0.42210 -0.00000
C 	C 	0.80350 0.11360 0.41030 0.00800
H 	H 	0.77700 0.10230 0.41730 0.05100
O 	O 	0.70180 0.96720 0.38940 -0.38800
O 	O 	0.70770 0.90630 0.35910 -0.26500
C 	C 	0.68580 0.92980 0.37880 0.22700
C 	C 	0.64170 0.91060 0.38720 0.05000
C 	C 	0.61960 0.93390 0.40790 -0.14200
H 	H 	0.63110 0.96060 0.41430 0.11300
C 	C 	0.58970 0.95690 0.25050 0.14000
C 	C 	0.61250 0.91770 0.24800 -0.08900
H 	H 	0.64280 0.91380 0.24670 0.07200
C 	C 	0.73350 0.99570 0.27700 0.05100
C 	C 	0.68720 0.99740 0.27400 -0.15900
H 	H 	0.67140 0.99660 0.29200 0.11000
O 	O 	0.73310 0.99480 0.33270 -0.44300
O 	O 	0.80320 0.98620 0.30280 -0.52600
C 	C 	0.75800 0.98760 0.31020 0.24400
Zn	Zn	0.25521 0.47834 0.86995 1.25900
Zn	Zn	0.34919 0.48745 0.82686 1.18600
C 	C 	0.25000 0.71960 0.90400 -0.07500
H 	H 	0.26340 0.70700 0.88720 0.06600
C 	C 	0.25790 0.71050 0.93240 0.09100
C 	C 	0.29120 0.67570 0.94840 -0.06900
C 	C 	0.30460 0.66730 0.98040 0.13200
C 	C 	0.33580 0.63750 0.98480 -0.09500
H 	H 	0.35260 0.62150 0.97110 0.07500
O 	O 	0.43360 0.70600 0.88400 -0.46000
O 	O 	0.43550 0.65350 0.85110 -0.51900
O 	O 	0.33290 0.53130 0.85600 -0.52000
O 	O 	0.27740 0.52650 0.88770 -0.52800
C 	C 	0.30680 0.54850 0.87940 0.44300
C 	C 	0.32730 0.58890 0.88830 -0.18600
C 	C 	0.36250 0.61100 0.87670 0.13800
H 	H 	0.37790 0.59760 0.86110 -0.03200
C 	C 	0.37670 0.65050 0.88610 -0.19200
C 	C 	0.41180 0.67310 0.87340 0.39700
C 	C 	0.35330 0.67420 0.90790 0.01500
H 	H 	0.36130 0.70280 0.91270 0.04900
C 	C 	0.31800 0.65440 0.92210 -0.00000
C 	C 	0.30350 0.61360 0.91030 0.00700
H 	H 	0.27700 0.60230 0.91730 0.05200
O 	O 	0.20180 0.46720 0.88940 -0.39000
O 	O 	0.20770 0.40630 0.85910 -0.26500
C 	C 	0.18580 0.42980 0.87880 0.22700
C 	C 	0.14170 0.41060 0.88720 0.04900
C 	C 	0.11960 0.43390 0.90790 -0.14200
H 	H 	0.13110 0.46060 0.91430 0.11200
C 	C 	0.08970 0.45690 0.75050 0.13300
C 	C 	0.11250 0.41770 0.74800 -0.08500
H 	H 	0.14280 0.41380 0.74670 0.06900
C 	C 	0.23350 0.49570 0.77700 0.04600
C 	C 	0.18720 0.49740 0.77400 -0.16800
H 	H 	0.17140 0.49660 0.79200 0.11200
O 	O 	0.23310 0.49480 0.83270 -0.44500
O 	O 	0.30320 0.48620 0.80280 -0.52900
C 	C 	0.25800 0.48760 0.81020 0.24400
Zn	Zn	0.97834 0.75521 0.86995 1.26000
Zn	Zn	0.98745 0.84919 0.82686 1.18700
C 	C 	0.21960 0.75000 0.90400 -0.07500
H 	H 	0.20700 0.76340 0.88720 0.06500
C 	C 	0.21050 0.75790 0.93240 0.09100
C 	C 	0.17570 0.79120 0.94840 -0.06900
C 	C 	0.16730 0.80460 0.98040 0.13200
C 	C 	0.13750 0.83580 0.98480 -0.09500
H 	H 	0.12150 0.85260 0.97110 0.07500
O 	O 	0.20600 0.93360 0.88400 -0.45900
O 	O 	0.15350 0.93550 0.85110 -0.51800
O 	O 	0.03130 0.83290 0.85600 -0.52300
O 	O 	0.02650 0.77740 0.88770 -0.53100
C 	C 	0.04850 0.80680 0.87940 0.44300
C 	C 	0.08890 0.82730 0.88830 -0.18700
C 	C 	0.11100 0.86250 0.87670 0.13800
H 	H 	0.09760 0.87790 0.86110 -0.03200
C 	C 	0.15050 0.87670 0.88610 -0.19200
C 	C 	0.17310 0.91180 0.87340 0.39700
C 	C 	0.17420 0.85330 0.90790 0.01500
H 	H 	0.20280 0.86130 0.91270 0.04900
C 	C 	0.15440 0.81800 0.92210 -0.00000
C 	C 	0.11360 0.80350 0.91030 0.00800
H 	H 	0.10230 0.77700 0.91730 0.05100
O 	O 	0.96720 0.70180 0.88940 -0.38800
O 	O 	0.90630 0.70770 0.85910 -0.26500
C 	C 	0.92980 0.68580 0.87880 0.22700
C 	C 	0.91060 0.64170 0.88720 0.05000
C 	C 	0.93390 0.61960 0.90790 -0.14200
H 	H 	0.96060 0.63110 0.91430 0.11300
C 	C 	0.95690 0.58970 0.75050 0.14000
C 	C 	0.91770 0.61250 0.74800 -0.08800
H 	H 	0.91380 0.64280 0.74670 0.07200
C 	C 	0.99570 0.73350 0.77700 0.05100
C 	C 	0.99740 0.68720 0.77400 -0.15900
H 	H 	0.99660 0.67140 0.79200 0.11000
O 	O 	0.99480 0.73310 0.83270 -0.44300
O 	O 	0.98620 0.80320 0.80280 -0.52600
C 	C 	0.98760 0.75800 0.81020 0.24400
Zn	Zn	0.47834 0.25521 0.36995 1.25900
Zn	Zn	0.48745 0.34919 0.32686 1.18600
C 	C 	0.71960 0.25000 0.40400 -0.07500
H 	H 	0.70700 0.26340 0.38720 0.06600
C 	C 	0.71050 0.25790 0.43240 0.09100
C 	C 	0.67570 0.29120 0.44840 -0.06900
C 	C 	0.66730 0.30460 0.48040 0.13200
C 	C 	0.63750 0.33580 0.48480 -0.09500
H 	H 	0.62150 0.35260 0.47110 0.07500
O 	O 	0.70600 0.43360 0.38400 -0.46000
O 	O 	0.65350 0.43550 0.35110 -0.51900
O 	O 	0.53130 0.33290 0.35600 -0.52000
O 	O 	0.52650 0.27740 0.38770 -0.52800
C 	C 	0.54850 0.30680 0.37940 0.44300
C 	C 	0.58890 0.32730 0.38830 -0.18600
C 	C 	0.61100 0.36250 0.37670 0.13800
H 	H 	0.59760 0.37790 0.36110 -0.03200
C 	C 	0.65050 0.37670 0.38610 -0.19200
C 	C 	0.67310 0.41180 0.37340 0.39700
C 	C 	0.67420 0.35330 0.40790 0.01500
H 	H 	0.70280 0.36130 0.41270 0.04900
C 	C 	0.65440 0.31800 0.42210 -0.00000
C 	C 	0.61360 0.30350 0.41030 0.00700
H 	H 	0.60230 0.27700 0.41730 0.05200
O 	O 	0.46720 0.20180 0.38940 -0.39000
O 	O 	0.40630 0.20770 0.35910 -0.26500
C 	C 	0.42980 0.18580 0.37880 0.22700
C 	C 	0.41060 0.14170 0.38720 0.04900
C 	C 	0.43390 0.11960 0.40790 -0.14200
H 	H 	0.46060 0.13110 0.41430 0.11200
C 	C 	0.45690 0.08970 0.25050 0.13300
C 	C 	0.41770 0.11250 0.24800 -0.08500
H 	H 	0.41380 0.14280 0.24670 0.06900
C 	C 	0.49570 0.23350 0.27700 0.04600
C 	C 	0.49740 0.18720 0.27400 -0.16800
H 	H 	0.49660 0.17140 0.29200 0.11200
O 	O 	0.49480 0.23310 0.33270 -0.44500
O 	O 	0.48620 0.30320 0.30280 -0.52900
C 	C 	0.48760 0.25800 0.31020 0.24400
Zn	Zn	0.02166 0.24479 0.86995 1.25800
Zn	Zn	0.01255 0.15081 0.82686 1.18400
C 	C 	0.78040 0.25000 0.90400 -0.07500
H 	H 	0.79300 0.23660 0.88720 0.06600
C 	C 	0.78950 0.24210 0.93240 0.09100
C 	C 	0.82430 0.20880 0.94840 -0.06900
C 	C 	0.83270 0.19540 0.98040 0.13200
C 	C 	0.86250 0.16420 0.98480 -0.09500
H 	H 	0.87850 0.14740 0.97110 0.07500
O 	O 	0.79400 0.06640 0.88400 -0.46100
O 	O 	0.84650 0.06450 0.85110 -0.52000
O 	O 	0.96870 0.16710 0.85600 -0.51700
O 	O 	0.97350 0.22260 0.88770 -0.52400
C 	C 	0.95150 0.19320 0.87940 0.44200
C 	C 	0.91110 0.17270 0.88830 -0.18500
C 	C 	0.88900 0.13750 0.87670 0.13700
H 	H 	0.90240 0.12210 0.86110 -0.03200
C 	C 	0.84950 0.12330 0.88610 -0.19200
C 	C 	0.82690 0.08820 0.87340 0.39700
C 	C 	0.82580 0.14670 0.90790 0.01400
H 	H 	0.79720 0.13870 0.91270 0.04900
C 	C 	0.84560 0.18200 0.92210 0.00000
C 	C 	0.88640 0.19650 0.91030 0.00700
H 	H 	0.89770 0.22300 0.91730 0.05200
O 	O 	0.03280 0.29820 0.88940 -0.39100
O 	O 	0.09370 0.29230 0.85910 -0.26500
C 	C 	0.07020 0.31420 0.87880 0.22700
C 	C 	0.08940 0.35830 0.88720 0.04900
C 	C 	0.06610 0.38040 0.90790 -0.14200
H 	H 	0.03940 0.36890 0.91430 0.11100
C 	C 	0.04310 0.41030 0.75050 0.13300
C 	C 	0.08230 0.38750 0.74800 -0.08600
H 	H 	0.08620 0.35720 0.74670 0.06900
C 	C 	0.00430 0.26650 0.77700 0.04600
C 	C 	0.00260 0.31280 0.77400 -0.16600
H 	H 	0.00340 0.32860 0.79200 0.11000
O 	O 	0.00520 0.26690 0.83270 -0.44700
O 	O 	0.01380 0.19680 0.80280 -0.53100
C 	C 	0.01240 0.24200 0.81020 0.24300
Zn	Zn	0.52166 0.74479 0.36995 1.25900
Zn	Zn	0.51255 0.65081 0.32686 1.18600
C 	C 	0.28040 0.75000 0.40400 -0.07500
H 	H 	0.29300 0.73660 0.38720 0.06600
C 	C 	0.28950 0.74210 0.43240 0.09100
C 	C 	0.32430 0.70880 0.44840 -0.06900
C 	C 	0.33270 0.69540 0.48040 0.13200
C 	C 	0.36250 0.66420 0.48480 -0.09500
H 	H 	0.37850 0.64740 0.47110 0.07500
O 	O 	0.29400 0.56640 0.38400 -0.46000
O 	O 	0.34650 0.56450 0.35110 -0.51900
O 	O 	0.46870 0.66710 0.35600 -0.52000
O 	O 	0.47350 0.72260 0.38770 -0.52800
C 	C 	0.45150 0.69320 0.37940 0.44300
C 	C 	0.41110 0.67270 0.38830 -0.18600
C 	C 	0.38900 0.63750 0.37670 0.13800
H 	H 	0.40240 0.62210 0.36110 -0.03200
C 	C 	0.34950 0.62330 0.38610 -0.19200
C 	C 	0.32690 0.58820 0.37340 0.39700
C 	C 	0.32580 0.64670 0.40790 0.01500
H 	H 	0.29720 0.63870 0.41270 0.04900
C 	C 	0.34560 0.68200 0.42210 -0.00000
C 	C 	0.38640 0.69650 0.41030 0.00700
H 	H 	0.39770 0.72300 0.41730 0.05200
O 	O 	0.53280 0.79820 0.38940 -0.38900
O 	O 	0.59370 0.79230 0.35910 -0.26500
C 	C 	0.57020 0.81420 0.37880 0.22700
C 	C 	0.58940 0.85830 0.38720 0.05000
C 	C 	0.56610 0.88040 0.40790 -0.14200
H 	H 	0.53940 0.86890 0.41430 0.11300
C 	C 	0.54310 0.91030 0.25050 0.13300
C 	C 	0.58230 0.88750 0.24800 -0.08300
H 	H 	0.58620 0.85720 0.24670 0.06900
C 	C 	0.50430 0.76650 0.27700 0.04600
C 	C 	0.50260 0.81280 0.27400 -0.16800
H 	H 	0.50340 0.82860 0.29200 0.11200
O 	O 	0.50520 0.76690 0.33270 -0.44500
O 	O 	0.51380 0.69680 0.30280 -0.52900
C 	C 	0.51240 0.74200 0.31020 0.24400
Zn	Zn	0.24479 0.97834 0.86995 1.26000
Zn	Zn	0.15081 0.98745 0.82686 1.18700
C 	C 	0.25000 0.21960 0.90400 -0.07500
H 	H 	0.23660 0.20700 0.88720 0.06500
C 	C 	0.24210 0.21050 0.93240 0.09100
C 	C 	0.20880 0.17570 0.94840 -0.06900
C 	C 	0.19540 0.16730 0.98040 0.13200
C 	C 	0.16420 0.13750 0.98480 -0.09600
H 	H 	0.14740 0.12150 0.97110 0.07400
O 	O 	0.06640 0.20600 0.88400 -0.46200
O 	O 	0.06450 0.15350 0.85110 -0.52100
O 	O 	0.16710 0.03130 0.85600 -0.52300
O 	O 	0.22260 0.02650 0.88770 -0.53200
C 	C 	0.19320 0.04850 0.87940 0.44400
C 	C 	0.17270 0.08890 0.88830 -0.18800
C 	C 	0.13750 0.11100 0.87670 0.13900
H 	H 	0.12210 0.09760 0.86110 -0.03300
C 	C 	0.12330 0.15050 0.88610 -0.19300
C 	C 	0.08820 0.17310 0.87340 0.39800
C 	C 	0.14670 0.17420 0.90790 0.01500
H 	H 	0.13870 0.20280 0.91270 0.04800
C 	C 	0.18200 0.15440 0.92210 -0.00100
C 	C 	0.19650 0.11360 0.91030 0.00800
H 	H 	0.22300 0.10230 0.91730 0.05100
O 	O 	0.29820 0.96720 0.88940 -0.38800
O 	O 	0.29230 0.90630 0.85910 -0.26500
C 	C 	0.31420 0.92980 0.87880 0.22700
C 	C 	0.35830 0.91060 0.88720 0.05000
C 	C 	0.38040 0.93390 0.90790 -0.14200
H 	H 	0.36890 0.96060 0.91430 0.11300
C 	C 	0.41030 0.95690 0.75050 0.14000
C 	C 	0.38750 0.91770 0.74800 -0.08800
H 	H 	0.35720 0.91380 0.74670 0.07200
C 	C 	0.26650 0.99570 0.77700 0.05100
C 	C 	0.31280 0.99740 0.77400 -0.15900
H 	H 	0.32860 0.99660 0.79200 0.11000
O 	O 	0.26690 0.99480 0.83270 -0.44300
O 	O 	0.19680 0.98620 0.80280 -0.52700
C 	C 	0.24200 0.98760 0.81020 0.24400
Zn	Zn	0.74479 0.47834 0.36995 1.25900
Zn	Zn	0.65081 0.48745 0.32686 1.18600
C 	C 	0.75000 0.71960 0.40400 -0.07500
H 	H 	0.73660 0.70700 0.38720 0.06600
C 	C 	0.74210 0.71050 0.43240 0.09100
C 	C 	0.70880 0.67570 0.44840 -0.06900
C 	C 	0.69540 0.66730 0.48040 0.13200
C 	C 	0.66420 0.63750 0.48480 -0.09500
H 	H 	0.64740 0.62150 0.47110 0.07500
O 	O 	0.56640 0.70600 0.38400 -0.46000
O 	O 	0.56450 0.65350 0.35110 -0.51900
O 	O 	0.66710 0.53130 0.35600 -0.52000
O 	O 	0.72260 0.52650 0.38770 -0.52800
C 	C 	0.69320 0.54850 0.37940 0.44300
C 	C 	0.67270 0.58890 0.38830 -0.18600
C 	C 	0.63750 0.61100 0.37670 0.13800
H 	H 	0.62210 0.59760 0.36110 -0.03200
C 	C 	0.62330 0.65050 0.38610 -0.19200
C 	C 	0.58820 0.67310 0.37340 0.39700
C 	C 	0.64670 0.67420 0.40790 0.01500
H 	H 	0.63870 0.70280 0.41270 0.04900
C 	C 	0.68200 0.65440 0.42210 -0.00000
C 	C 	0.69650 0.61360 0.41030 0.00700
H 	H 	0.72300 0.60230 0.41730 0.05200
O 	O 	0.79820 0.46720 0.38940 -0.38900
O 	O 	0.79230 0.40630 0.35910 -0.26500
C 	C 	0.81420 0.42980 0.37880 0.22700
C 	C 	0.85830 0.41060 0.38720 0.05000
C 	C 	0.88040 0.43390 0.40790 -0.14200
H 	H 	0.86890 0.46060 0.41430 0.11300
C 	C 	0.91030 0.45690 0.25050 0.13300
C 	C 	0.88750 0.41770 0.24800 -0.08300
H 	H 	0.85720 0.41380 0.24670 0.06900
C 	C 	0.76650 0.49570 0.27700 0.04600
C 	C 	0.81280 0.49740 0.27400 -0.16800
H 	H 	0.82860 0.49660 0.29200 0.11200
O 	O 	0.76690 0.49480 0.33270 -0.44500
O 	O 	0.69680 0.48620 0.30280 -0.52900
C 	C 	0.74200 0.48760 0.31020 0.24400
Zn	Zn	0.75521 0.02166 0.86995 1.25800
Zn	Zn	0.84919 0.01255 0.82686 1.18500
C 	C 	0.75000 0.78040 0.90400 -0.07500
H 	H 	0.76340 0.79300 0.88720 0.06600
C 	C 	0.75790 0.78950 0.93240 0.09100
C 	C 	0.79120 0.82430 0.94840 -0.06900
C 	C 	0.80460 0.83270 0.98040 0.13200
C 	C 	0.83580 0.86250 0.98480 -0.09500
H 	H 	0.85260 0.87850 0.97110 0.07600
O 	O 	0.93360 0.79400 0.88400 -0.45900
O 	O 	0.93550 0.84650 0.85110 -0.51700
O 	O 	0.83290 0.96870 0.85600 -0.51600
O 	O 	0.77740 0.97350 0.88770 -0.52400
C 	C 	0.80680 0.95150 0.87940 0.44200
C 	C 	0.82730 0.91110 0.88830 -0.18400
C 	C 	0.86250 0.88900 0.87670 0.13600
H 	H 	0.87790 0.90240 0.86110 -0.03100
C 	C 	0.87670 0.84950 0.88610 -0.19000
C 	C 	0.91180 0.82690 0.87340 0.39700
C 	C 	0.85330 0.82580 0.90790 0.01400
H 	H 	0.86130 0.79720 0.91270 0.04900
C 	C 	0.81800 0.84560 0.92210 0.00100
C 	C 	0.80350 0.88640 0.91030 0.00700
H 	H 	0.77700 0.89770 0.91730 0.05300
O 	O 	0.70180 0.03280 0.88940 -0.39100
O 	O 	0.70770 0.09370 0.85910 -0.26500
C 	C 	0.68580 0.07020 0.87880 0.22700
C 	C 	0.64170 0.08940 0.88720 0.04900
C 	C 	0.61960 0.06610 0.90790 -0.14200
H 	H 	0.63110 0.03940 0.91430 0.11100
C 	C 	0.58970 0.04310 0.75050 0.13300
C 	C 	0.61250 0.08230 0.74800 -0.08600
H 	H 	0.64280 0.08620 0.74670 0.06900
C 	C 	0.73350 0.00430 0.77700 0.04600
C 	C 	0.68720 0.00260 0.77400 -0.16600
H 	H 	0.67140 0.00340 0.79200 0.11000
O 	O 	0.73310 0.00520 0.83270 -0.44700
O 	O 	0.80320 0.01380 0.80280 -0.53000
C 	C 	0.75800 0.01240 0.81020 0.24300
Zn	Zn	0.25521 0.52166 0.36995 1.25900
Zn	Zn	0.34919 0.51255 0.32686 1.18600
C 	C 	0.25000 0.28040 0.40400 -0.07500
H 	H 	0.26340 0.29300 0.38720 0.06600
C 	C 	0.25790 0.28950 0.43240 0.09100
C 	C 	0.29120 0.32430 0.44840 -0.06900
C 	C 	0.30460 0.33270 0.48040 0.13200
C 	C 	0.33580 0.36250 0.48480 -0.09500
H 	H 	0.35260 0.37850 0.47110 0.07500
O 	O 	0.43360 0.29400 0.38400 -0.46000
O 	O 	0.43550 0.34650 0.35110 -0.51900
O 	O 	0.33290 0.46870 0.35600 -0.52000
O 	O 	0.27740 0.47350 0.38770 -0.52800
C 	C 	0.30680 0.45150 0.37940 0.44300
C 	C 	0.32730 0.41110 0.38830 -0.18600
C 	C 	0.36250 0.38900 0.37670 0.13800
H 	H 	0.37790 0.40240 0.36110 -0.03200
C 	C 	0.37670 0.34950 0.38610 -0.19200
C 	C 	0.41180 0.32690 0.37340 0.39700
C 	C 	0.35330 0.32580 0.40790 0.01500
H 	H 	0.36130 0.29720 0.41270 0.04900
C 	C 	0.31800 0.34560 0.42210 -0.00000
C 	C 	0.30350 0.38640 0.41030 0.00700
H 	H 	0.27700 0.39770 0.41730 0.05200
O 	O 	0.20180 0.53280 0.38940 -0.39000
O 	O 	0.20770 0.59370 0.35910 -0.26500
C 	C 	0.18580 0.57020 0.37880 0.22700
C 	C 	0.14170 0.58940 0.38720 0.04900
C 	C 	0.11960 0.56610 0.40790 -0.14200
H 	H 	0.13110 0.53940 0.41430 0.11200
C 	C 	0.08970 0.54310 0.25050 0.13300
C 	C 	0.11250 0.58230 0.24800 -0.08500
H 	H 	0.14280 0.58620 0.24670 0.07000
C 	C 	0.23350 0.50430 0.27700 0.04600
C 	C 	0.18720 0.50260 0.27400 -0.16800
H 	H 	0.17140 0.50340 0.29200 0.11200
O 	O 	0.23310 0.50520 0.33270 -0.44500
O 	O 	0.30320 0.51380 0.30280 -0.52900
C 	C 	0.25800 0.51240 0.31020 0.24400
Zn	Zn	0.02166 0.75521 0.63005 1.25800
Zn	Zn	0.01255 0.84919 0.67314 1.18500
C 	C 	0.78040 0.75000 0.59600 -0.07500
H 	H 	0.79300 0.76340 0.61280 0.06600
C 	C 	0.78950 0.75790 0.56760 0.09100
C 	C 	0.82430 0.79120 0.55160 -0.06900
C 	C 	0.83270 0.80460 0.51960 0.13200
C 	C 	0.86250 0.83580 0.51520 -0.09500
H 	H 	0.87850 0.85260 0.52890 0.07600
O 	O 	0.79400 0.93360 0.61600 -0.45900
O 	O 	0.84650 0.93550 0.64890 -0.51700
O 	O 	0.96870 0.83290 0.64400 -0.51600
O 	O 	0.97350 0.77740 0.61230 -0.52400
C 	C 	0.95150 0.80680 0.62060 0.44200
C 	C 	0.91110 0.82730 0.61170 -0.18400
C 	C 	0.88900 0.86250 0.62330 0.13600
H 	H 	0.90240 0.87790 0.63890 -0.03100
C 	C 	0.84950 0.87670 0.61390 -0.19000
C 	C 	0.82690 0.91180 0.62660 0.39700
C 	C 	0.82580 0.85330 0.59210 0.01400
H 	H 	0.79720 0.86130 0.58730 0.04900
C 	C 	0.84560 0.81800 0.57790 0.00100
C 	C 	0.88640 0.80350 0.58970 0.00700
H 	H 	0.89770 0.77700 0.58270 0.05300
O 	O 	0.03280 0.70180 0.61060 -0.39100
O 	O 	0.09370 0.70770 0.64090 -0.26500
C 	C 	0.07020 0.68580 0.62120 0.22700
C 	C 	0.08940 0.64170 0.61280 0.04900
C 	C 	0.06610 0.61960 0.59210 -0.14200
H 	H 	0.03940 0.63110 0.58570 0.11100
C 	C 	0.04310 0.58970 0.74950 0.13300
C 	C 	0.08230 0.61250 0.75200 -0.08600
H 	H 	0.08620 0.64280 0.75330 0.06900
C 	C 	0.00430 0.73350 0.72300 0.04600
C 	C 	0.00260 0.68720 0.72600 -0.16600
H 	H 	0.00340 0.67140 0.70800 0.11000
O 	O 	0.00520 0.73310 0.66730 -0.44700
O 	O 	0.01380 0.80320 0.69720 -0.53000
C 	C 	0.01240 0.75800 0.68980 0.24300
Zn	Zn	0.52166 0.25521 0.13005 1.25900
Zn	Zn	0.51255 0.34919 0.17314 1.18600
C 	C 	0.28040 0.25000 0.09600 -0.07500
H 	H 	0.29300 0.26340 0.11280 0.06600
C 	C 	0.28950 0.25790 0.06760 0.09100
C 	C 	0.32430 0.29120 0.05160 -0.06900
C 	C 	0.33270 0.30460 0.01960 0.13200
C 	C 	0.36250 0.33580 0.01520 -0.09500
H 	H 	0.37850 0.35260 0.02890 0.07500
O 	O 	0.29400 0.43360 0.11600 -0.46000
O 	O 	0.34650 0.43550 0.14890 -0.51900
O 	O 	0.46870 0.33290 0.14400 -0.52000
O 	O 	0.47350 0.27740 0.11230 -0.52800
C 	C 	0.45150 0.30680 0.12060 0.44300
C 	C 	0.41110 0.32730 0.11170 -0.18600
C 	C 	0.38900 0.36250 0.12330 0.13800
H 	H 	0.40240 0.37790 0.13890 -0.03200
C 	C 	0.34950 0.37670 0.11390 -0.19200
C 	C 	0.32690 0.41180 0.12660 0.39700
C 	C 	0.32580 0.35330 0.09210 0.01500
H 	H 	0.29720 0.36130 0.08730 0.04900
C 	C 	0.34560 0.31800 0.07790 -0.00000
C 	C 	0.38640 0.30350 0.08970 0.00700
H 	H 	0.39770 0.27700 0.08270 0.05200
O 	O 	0.53280 0.20180 0.11060 -0.39000
O 	O 	0.59370 0.20770 0.14090 -0.26500
C 	C 	0.57020 0.18580 0.12120 0.22700
C 	C 	0.58940 0.14170 0.11280 0.04900
C 	C 	0.56610 0.11960 0.09210 -0.14200
H 	H 	0.53940 0.13110 0.08570 0.11200
C 	C 	0.54310 0.08970 0.24950 0.13300
C 	C 	0.58230 0.11250 0.25200 -0.08500
H 	H 	0.58620 0.14280 0.25330 0.07000
C 	C 	0.50430 0.23350 0.22300 0.04600
C 	C 	0.50260 0.18720 0.22600 -0.16800
H 	H 	0.50340 0.17140 0.20800 0.11200
O 	O 	0.50520 0.23310 0.16730 -0.44500
O 	O 	0.51380 0.30320 0.19720 -0.52900
C 	C 	0.51240 0.25800 0.18980 0.24400
Zn	Zn	0.97834 0.24479 0.63005 1.26000
Zn	Zn	0.98745 0.15081 0.67314 1.18700
C 	C 	0.21960 0.25000 0.59600 -0.07500
H 	H 	0.20700 0.23660 0.61280 0.06500
C 	C 	0.21050 0.24210 0.56760 0.09100
C 	C 	0.17570 0.20880 0.55160 -0.06900
C 	C 	0.16730 0.19540 0.51960 0.13200
C 	C 	0.13750 0.16420 0.51520 -0.09500
H 	H 	0.12150 0.14740 0.52890 0.07400
O 	O 	0.20600 0.06640 0.61600 -0.46200
O 	O 	0.15350 0.06450 0.64890 -0.52100
O 	O 	0.03130 0.16710 0.64400 -0.52300
O 	O 	0.02650 0.22260 0.61230 -0.53200
C 	C 	0.04850 0.19320 0.62060 0.44400
C 	C 	0.08890 0.17270 0.61170 -0.18800
C 	C 	0.11100 0.13750 0.62330 0.13900
H 	H 	0.09760 0.12210 0.63890 -0.03300
C 	C 	0.15050 0.12330 0.61390 -0.19300
C 	C 	0.17310 0.08820 0.62660 0.39800
C 	C 	0.17420 0.14670 0.59210 0.01500
H 	H 	0.20280 0.13870 0.58730 0.04800
C 	C 	0.15440 0.18200 0.57790 -0.00100
C 	C 	0.11360 0.19650 0.58970 0.00800
H 	H 	0.10230 0.22300 0.58270 0.05100
O 	O 	0.96720 0.29820 0.61060 -0.38800
O 	O 	0.90630 0.29230 0.64090 -0.26500
C 	C 	0.92980 0.31420 0.62120 0.22700
C 	C 	0.91060 0.35830 0.61280 0.05000
C 	C 	0.93390 0.38040 0.59210 -0.14200
H 	H 	0.96060 0.36890 0.58570 0.11300
C 	C 	0.95690 0.41030 0.74950 0.14000
C 	C 	0.91770 0.38750 0.75200 -0.08800
H 	H 	0.91380 0.35720 0.75330 0.07200
C 	C 	0.99570 0.26650 0.72300 0.05100
C 	C 	0.99740 0.31280 0.72600 -0.15900
H 	H 	0.99660 0.32860 0.70800 0.11000
O 	O 	0.99480 0.26690 0.66730 -0.44300
O 	O 	0.98620 0.19680 0.69720 -0.52700
C 	C 	0.98760 0.24200 0.68980 0.24400
Zn	Zn	0.47834 0.74479 0.13005 1.25900
Zn	Zn	0.48745 0.65081 0.17314 1.18600
C 	C 	0.71960 0.75000 0.09600 -0.07500
H 	H 	0.70700 0.73660 0.11280 0.06600
C 	C 	0.71050 0.74210 0.06760 0.09100
C 	C 	0.67570 0.70880 0.05160 -0.06900
C 	C 	0.66730 0.69540 0.01960 0.13200
C 	C 	0.63750 0.66420 0.01520 -0.09500
H 	H 	0.62150 0.64740 0.02890 0.07500
O 	O 	0.70600 0.56640 0.11600 -0.46000
O 	O 	0.65350 0.56450 0.14890 -0.51900
O 	O 	0.53130 0.66710 0.14400 -0.52000
O 	O 	0.52650 0.72260 0.11230 -0.52800
C 	C 	0.54850 0.69320 0.12060 0.44300
C 	C 	0.58890 0.67270 0.11170 -0.18600
C 	C 	0.61100 0.63750 0.12330 0.13800
H 	H 	0.59760 0.62210 0.13890 -0.03200
C 	C 	0.65050 0.62330 0.11390 -0.19200
C 	C 	0.67310 0.58820 0.12660 0.39700
C 	C 	0.67420 0.64670 0.09210 0.01500
H 	H 	0.70280 0.63870 0.08730 0.04900
C 	C 	0.65440 0.68200 0.07790 -0.00000
C 	C 	0.61360 0.69650 0.08970 0.00700
H 	H 	0.60230 0.72300 0.08270 0.05200
O 	O 	0.46720 0.79820 0.11060 -0.38900
O 	O 	0.40630 0.79230 0.14090 -0.26500
C 	C 	0.42980 0.81420 0.12120 0.22700
C 	C 	0.41060 0.85830 0.11280 0.05000
C 	C 	0.43390 0.88040 0.09210 -0.14200
H 	H 	0.46060 0.86890 0.08570 0.11300
C 	C 	0.45690 0.91030 0.24950 0.13300
C 	C 	0.41770 0.88750 0.25200 -0.08300
H 	H 	0.41380 0.85720 0.25330 0.06900
C 	C 	0.49570 0.76650 0.22300 0.04600
C 	C 	0.49740 0.81280 0.22600 -0.16800
H 	H 	0.49660 0.82860 0.20800 0.11200
O 	O 	0.49480 0.76690 0.16730 -0.44500
O 	O 	0.48620 0.69680 0.19720 -0.52900
C 	C 	0.48760 0.74200 0.18980 0.24400
Zn	Zn	0.75521 0.97834 0.63005 1.26000
Zn	Zn	0.84919 0.98745 0.67314 1.18700
C 	C 	0.75000 0.21960 0.59600 -0.07500
H 	H 	0.76340 0.20700 0.61280 0.06500
C 	C 	0.75790 0.21050 0.56760 0.09100
C 	C 	0.79120 0.17570 0.55160 -0.06900
C 	C 	0.80460 0.16730 0.51960 0.13200
C 	C 	0.83580 0.13750 0.51520 -0.09500
H 	H 	0.85260 0.12150 0.52890 0.07500
O 	O 	0.93360 0.20600 0.61600 -0.45900
O 	O 	0.93550 0.15350 0.64890 -0.51800
O 	O 	0.83290 0.03130 0.64400 -0.52300
O 	O 	0.77740 0.02650 0.61230 -0.53100
C 	C 	0.80680 0.04850 0.62060 0.44300
C 	C 	0.82730 0.08890 0.61170 -0.18700
C 	C 	0.86250 0.11100 0.62330 0.13800
H 	H 	0.87790 0.09760 0.63890 -0.03200
C 	C 	0.87670 0.15050 0.61390 -0.19200
C 	C 	0.91180 0.17310 0.62660 0.39700
C 	C 	0.85330 0.17420 0.59210 0.01500
H 	H 	0.86130 0.20280 0.58730 0.04900
C 	C 	0.81800 0.15440 0.57790 -0.00000
C 	C 	0.80350 0.11360 0.58970 0.00800
H 	H 	0.77700 0.10230 0.58270 0.05100
O 	O 	0.70180 0.96720 0.61060 -0.38800
O 	O 	0.70770 0.90630 0.64090 -0.26500
C 	C 	0.68580 0.92980 0.62120 0.22700
C 	C 	0.64170 0.91060 0.61280 0.05000
C 	C 	0.61960 0.93390 0.59210 -0.14200
H 	H 	0.63110 0.96060 0.58570 0.11300
C 	C 	0.58970 0.95690 0.74950 0.14000
C 	C 	0.61250 0.91770 0.75200 -0.08800
H 	H 	0.64280 0.91380 0.75330 0.07200
C 	C 	0.73350 0.99570 0.72300 0.05100
C 	C 	0.68720 0.99740 0.72600 -0.15900
H 	H 	0.67140 0.99660 0.70800 0.11000
O 	O 	0.73310 0.99480 0.66730 -0.44300
O 	O 	0.80320 0.98620 0.69720 -0.52600
C 	C 	0.75800 0.98760 0.68980 0.24400
Zn	Zn	0.25521 0.47834 0.13005 1.25900
Zn	Zn	0.34919 0.48745 0.17314 1.18600
C 	C 	0.25000 0.71960 0.09600 -0.07500
H 	H 	0.26340 0.70700 0.11280 0.06600
C 	C 	0.25790 0.71050 0.06760 0.09100
C 	C 	0.29120 0.67570 0.05160 -0.06900
C 	C 	0.30460 0.66730 0.01960 0.13200
C 	C 	0.33580 0.63750 0.01520 -0.09500
H 	H 	0.35260 0.62150 0.02890 0.07500
O 	O 	0.43360 0.70600 0.11600 -0.46000
O 	O 	0.43550 0.65350 0.14890 -0.51900
O 	O 	0.33290 0.53130 0.14400 -0.52000
O 	O 	0.27740 0.52650 0.11230 -0.52800
C 	C 	0.30680 0.54850 0.12060 0.44300
C 	C 	0.32730 0.58890 0.11170 -0.18600
C 	C 	0.36250 0.61100 0.12330 0.13800
H 	H 	0.37790 0.59760 0.13890 -0.03200
C 	C 	0.37670 0.65050 0.11390 -0.19200
C 	C 	0.41180 0.67310 0.12660 0.39700
C 	C 	0.35330 0.67420 0.09210 0.01500
H 	H 	0.36130 0.70280 0.08730 0.04900
C 	C 	0.31800 0.65440 0.07790 -0.00000
C 	C 	0.30350 0.61360 0.08970 0.00700
H 	H 	0.27700 0.60230 0.08270 0.05200
O 	O 	0.20180 0.46720 0.11060 -0.39000
O 	O 	0.20770 0.40630 0.14090 -0.26500
C 	C 	0.18580 0.42980 0.12120 0.22700
C 	C 	0.14170 0.41060 0.11280 0.04900
C 	C 	0.11960 0.43390 0.09210 -0.14200
H 	H 	0.13110 0.46060 0.08570 0.11200
C 	C 	0.08970 0.45690 0.24950 0.13300
C 	C 	0.11250 0.41770 0.25200 -0.08500
H 	H 	0.14280 0.41380 0.25330 0.06900
C 	C 	0.23350 0.49570 0.22300 0.04600
C 	C 	0.18720 0.49740 0.22600 -0.16800
H 	H 	0.17140 0.49660 0.20800 0.11200
O 	O 	0.23310 0.49480 0.16730 -0.44500
O 	O 	0.30320 0.48620 0.19720 -0.52900
C 	C 	0.25800 0.48760 0.18980 0.24400
Zn	Zn	0.24479 0.02166 0.63005 1.25800
Zn	Zn	0.15081 0.01255 0.67314 1.18400
C 	C 	0.25000 0.78040 0.59600 -0.07500
H 	H 	0.23660 0.79300 0.61280 0.06600
C 	C 	0.24210 0.78950 0.56760 0.09100
C 	C 	0.20880 0.82430 0.55160 -0.06900
C 	C 	0.19540 0.83270 0.51960 0.13200
C 	C 	0.16420 0.86250 0.51520 -0.09500
H 	H 	0.14740 0.87850 0.52890 0.07500
O 	O 	0.06640 0.79400 0.61600 -0.46100
O 	O 	0.06450 0.84650 0.64890 -0.52000
O 	O 	0.16710 0.96870 0.64400 -0.51700
O 	O 	0.22260 0.97350 0.61230 -0.52400
C 	C 	0.19320 0.95150 0.62060 0.44200
C 	C 	0.17270 0.91110 0.61170 -0.18500
C 	C 	0.13750 0.88900 0.62330 0.13700
H 	H 	0.12210 0.90240 0.63890 -0.03200
C 	C 	0.12330 0.84950 0.61390 -0.19200
C 	C 	0.08820 0.82690 0.62660 0.39700
C 	C 	0.14670 0.82580 0.59210 0.01400
H 	H 	0.13870 0.79720 0.58730 0.04900
C 	C 	0.18200 0.84560 0.57790 0.00000
C 	C 	0.19650 0.88640 0.58970 0.00700
H 	H 	0.22300 0.89770 0.58270 0.05200
O 	O 	0.29820 0.03280 0.61060 -0.39100
O 	O 	0.29230 0.09370 0.64090 -0.26500
C 	C 	0.31420 0.07020 0.62120 0.22700
C 	C 	0.35830 0.08940 0.61280 0.04900
C 	C 	0.38040 0.06610 0.59210 -0.14200
H 	H 	0.36890 0.03940 0.58570 0.11100
C 	C 	0.41030 0.04310 0.74950 0.13300
C 	C 	0.38750 0.08230 0.75200 -0.08600
H 	H 	0.35720 0.08620 0.75330 0.06900
C 	C 	0.26650 0.00430 0.72300 0.04600
C 	C 	0.31280 0.00260 0.72600 -0.16600
H 	H 	0.32860 0.00340 0.70800 0.11000
O 	O 	0.26690 0.00520 0.66730 -0.44700
O 	O 	0.19680 0.01380 0.69720 -0.53100
C 	C 	0.24200 0.01240 0.68980 0.24300
Zn	Zn	0.74479 0.52166 0.13005 1.25900
Zn	Zn	0.65081 0.51255 0.17314 1.18600
C 	C 	0.75000 0.28040 0.09600 -0.07500
H 	H 	0.73660 0.29300 0.11280 0.06600
C 	C 	0.74210 0.28950 0.06760 0.09100
C 	C 	0.70880 0.32430 0.05160 -0.06900
C 	C 	0.69540 0.33270 0.01960 0.13200
C 	C 	0.66420 0.36250 0.01520 -0.09500
H 	H 	0.64740 0.37850 0.02890 0.07500
O 	O 	0.56640 0.29400 0.11600 -0.46000
O 	O 	0.56450 0.34650 0.14890 -0.51900
O 	O 	0.66710 0.46870 0.14400 -0.52000
O 	O 	0.72260 0.47350 0.11230 -0.52800
C 	C 	0.69320 0.45150 0.12060 0.44300
C 	C 	0.67270 0.41110 0.11170 -0.18600
C 	C 	0.63750 0.38900 0.12330 0.13800
H 	H 	0.62210 0.40240 0.13890 -0.03200
C 	C 	0.62330 0.34950 0.11390 -0.19200
C 	C 	0.58820 0.32690 0.12660 0.39700
C 	C 	0.64670 0.32580 0.09210 0.01500
H 	H 	0.63870 0.29720 0.08730 0.04900
C 	C 	0.68200 0.34560 0.07790 -0.00000
C 	C 	0.69650 0.38640 0.08970 0.00700
H 	H 	0.72300 0.39770 0.08270 0.05200
O 	O 	0.79820 0.53280 0.11060 -0.38900
O 	O 	0.79230 0.59370 0.14090 -0.26500
C 	C 	0.81420 0.57020 0.12120 0.22700
C 	C 	0.85830 0.58940 0.11280 0.05000
C 	C 	0.88040 0.56610 0.09210 -0.14200
H 	H 	0.86890 0.53940 0.08570 0.11300
C 	C 	0.91030 0.54310 0.24950 0.13300
C 	C 	0.88750 0.58230 0.25200 -0.08300
H 	H 	0.85720 0.58620 0.25330 0.06900
C 	C 	0.76650 0.50430 0.22300 0.04600
C 	C 	0.81280 0.50260 0.22600 -0.16800
H 	H 	0.82860 0.50340 0.20800 0.11200
O 	O 	0.76690 0.50520 0.16730 -0.44500
O 	O 	0.69680 0.51380 0.19720 -0.52900
C 	C 	0.74200 0.51240 0.18980 0.24400
Mn	Mn	0.76769 0.26769 -0.00000 1.32700
Cl	Cl	0.71010 0.21010 -0.00000 -0.43900
Cl	Cl	0.82030 0.32030 -0.00000 -0.46700
Cl	Cl	0.94690 0.44690 -0.00000 -0.41900
Mn	Mn	0.23231 0.73231 -0.00000 1.32700
Cl	Cl	0.28990 0.78990 -0.00000 -0.43800
Cl	Cl	0.17970 0.67970 -0.00000 -0.46900
Cl	Cl	0.05310 0.55310 -0.00000 -0.42600
Mn	Mn	0.73231 0.76769 -0.00000 1.32700
Cl	Cl	0.78990 0.71010 -0.00000 -0.43800
Cl	Cl	0.67970 0.82030 -0.00000 -0.46700
Cl	Cl	0.55310 0.94690 -0.00000 -0.41900
Mn	Mn	0.23231 0.26769 0.50000 1.32700
Cl	Cl	0.28990 0.21010 0.50000 -0.43900
Cl	Cl	0.17970 0.32030 0.50000 -0.46900
Cl	Cl	0.05310 0.44690 0.50000 -0.42600
Mn	Mn	0.26769 0.23231 -0.00000 1.32700
Cl	Cl	0.21010 0.28990 -0.00000 -0.43900
Cl	Cl	0.32030 0.17970 -0.00000 -0.46900
Cl	Cl	0.44690 0.05310 -0.00000 -0.42600
Mn	Mn	0.76769 0.73231 0.50000 1.32700
Cl	Cl	0.71010 0.78990 0.50000 -0.43800
Cl	Cl	0.82030 0.67970 0.50000 -0.46700
Cl	Cl	0.94690 0.55310 0.50000 -0.41900
Mn	Mn	0.26769 0.76769 0.50000 1.32700
Cl	Cl	0.21010 0.71010 0.50000 -0.43900
Cl	Cl	0.32030 0.82030 0.50000 -0.46700
Cl	Cl	0.44690 0.94690 0.50000 -0.41900
Mn	Mn	0.73231 0.23231 0.50000 1.32700
Cl	Cl	0.78990 0.28990 0.50000 -0.43800
Cl	Cl	0.67970 0.17970 0.50000 -0.46900
Cl	Cl	0.55310 0.05310 0.50000 -0.42600
N 	N 	0.81200 0.21730 -0.00000 -0.27100
N 	N 	0.31200 0.71730 0.50000 -0.27100
N 	N 	0.18800 0.78270 -0.00000 -0.27100
N 	N 	0.68800 0.28270 0.50000 -0.27200
N 	N 	0.78270 0.81200 -0.00000 -0.27100
N 	N 	0.28270 0.31200 0.50000 -0.27100
N 	N 	0.21730 0.18800 -0.00000 -0.27100
N 	N 	0.71730 0.68800 0.50000 -0.27100
N 	N 	0.18800 0.21730 0.50000 -0.27200
N 	N 	0.68800 0.71730 -0.00000 -0.27100
N 	N 	0.81200 0.78270 0.50000 -0.27100
N 	N 	0.31200 0.28270 -0.00000 -0.27100
N 	N 	0.21730 0.81200 0.50000 -0.27100
N 	N 	0.71730 0.31200 -0.00000 -0.27100
N 	N 	0.78270 0.18800 0.50000 -0.27200
N 	N 	0.28270 0.68800 -0.00000 -0.27100
N 	N 	0.76560 0.26560 0.04390 -0.25200
N 	N 	0.23440 0.73440 0.04390 -0.25200
N 	N 	0.73440 0.76560 0.04390 -0.25200
N 	N 	0.23440 0.26560 0.54390 -0.25200
N 	N 	0.26560 0.23440 0.04390 -0.25200
N 	N 	0.23440 0.26560 0.45610 -0.25200
N 	N 	0.76560 0.73440 0.45610 -0.25200
N 	N 	0.26560 0.76560 0.45610 -0.25200
N 	N 	0.73440 0.23440 0.45610 -0.25200
N 	N 	0.23440 0.73440 0.95610 -0.25200
N 	N 	0.76560 0.26560 0.95610 -0.25200
N 	N 	0.26560 0.23440 0.95610 -0.25200
N 	N 	0.73440 0.76560 0.95610 -0.25200
N 	N 	0.76560 0.73440 0.54390 -0.25200
N 	N 	0.73440 0.23440 0.54390 -0.25200
N 	N 	0.26560 0.76560 0.54390 -0.25200
Mn	Mn	-0.00000 0.50000 -0.00000 1.42000
Mn	Mn	0.50000 0.00000 0.50000 1.42000
Mn	Mn	0.50000 0.00000 -0.00000 1.42000
Mn	Mn	-0.00000 0.50000 0.50000 1.42000
N 	N 	0.04670 0.45330 -0.00000 -0.23600
N 	N 	0.95330 0.54670 -0.00000 -0.23400
N 	N 	0.45330 0.04670 0.50000 -0.23600
N 	N 	0.54670 0.04670 -0.00000 -0.23600
N 	N 	0.45330 0.95330 -0.00000 -0.23400
N 	N 	0.95330 0.45330 0.50000 -0.23400
N 	N 	0.04670 0.54670 0.50000 -0.23600
N 	N 	0.54670 0.95330 0.50000 -0.23400
N 	N 	-0.00000 0.50000 0.03270 -0.38200
Cl	Cl	-0.00000 0.50000 0.19850 -0.49100
N 	N 	0.50000 -0.00000 0.03270 -0.38200
Cl	Cl	0.50000 -0.00000 0.19850 -0.49100
N 	N 	-0.00000 0.50000 0.46730 -0.38200
Cl	Cl	-0.00000 0.50000 0.30150 -0.49100
N 	N 	0.50000 0.00000 0.46730 -0.38200
Cl	Cl	0.50000 0.00000 0.30150 -0.49100
N 	N 	0.00000 0.50000 0.96730 -0.38200
Cl	Cl	0.00000 0.50000 0.80150 -0.49100
N 	N 	0.50000 0.00000 0.96730 -0.38200
Cl	Cl	0.50000 0.00000 0.80150 -0.49100
N 	N 	0.00000 0.50000 0.53270 -0.38200
Cl	Cl	0.00000 0.50000 0.69850 -0.49100
N 	N 	0.50000 0.00000 0.53270 -0.38200
Cl	Cl	0.50000 0.00000 0.69850 -0.49100
C 	C 	0.09830 0.40170 0.01430 -0.06500
H 	H 	0.11570 0.38430 0.02680 0.07900
C 	C 	0.06530 0.43470 0.02420 0.11800
C 	C 	0.05440 0.44560 0.05510 -0.09500
C 	C 	0.02120 0.47880 0.06160 0.10600
C 	C 	0.01480 0.48520 0.09360 -0.08100
H 	H 	0.02860 0.47140 0.10980 0.08500
C 	C 	0.12460 0.37540 0.12510 -0.10200
H 	H 	0.13710 0.36290 0.14210 0.09900
C 	C 	0.08050 0.41950 0.08010 0.11500
N 	N 	0.04730 0.45270 0.25090 -0.26800
C 	C 	0.90170 0.59830 0.01430 -0.06400
H 	H 	0.88430 0.61570 0.02680 0.07900
C 	C 	0.93470 0.56530 0.02420 0.11900
C 	C 	0.94560 0.55440 0.05510 -0.09400
C 	C 	0.97880 0.52120 0.06160 0.10500
C 	C 	0.98520 0.51480 0.09360 -0.05200
H 	H 	0.97140 0.52860 0.10980 0.07700
C 	C 	0.87540 0.62460 0.12510 -0.10300
H 	H 	0.86290 0.63710 0.14210 0.09900
C 	C 	0.91950 0.58050 0.08010 0.11600
N 	N 	0.95270 0.54730 0.25090 -0.26600
C 	C 	0.40170 0.09830 0.51430 -0.06500
H 	H 	0.38430 0.11570 0.52680 0.07900
C 	C 	0.43470 0.06530 0.52420 0.11800
C 	C 	0.44560 0.05440 0.55510 -0.09500
C 	C 	0.47880 0.02120 0.56160 0.10600
C 	C 	0.48520 0.01480 0.59360 -0.08100
H 	H 	0.47140 0.02860 0.60980 0.08500
C 	C 	0.37540 0.12460 0.62510 -0.10200
H 	H 	0.36290 0.13710 0.64210 0.09900
C 	C 	0.41950 0.08050 0.58010 0.11500
N 	N 	0.45270 0.04730 0.75090 -0.26800
C 	C 	0.59830 0.09830 0.01430 -0.06500
H 	H 	0.61570 0.11570 0.02680 0.07900
C 	C 	0.56530 0.06530 0.02420 0.11800
C 	C 	0.55440 0.05440 0.05510 -0.09500
C 	C 	0.52120 0.02120 0.06160 0.10600
C 	C 	0.51480 0.01480 0.09360 -0.08100
H 	H 	0.52860 0.02860 0.10980 0.08500
C 	C 	0.62460 0.12460 0.12510 -0.10200
H 	H 	0.63710 0.13710 0.14210 0.09900
C 	C 	0.58050 0.08050 0.08010 0.11500
N 	N 	0.54730 0.04730 0.25090 -0.26800
C 	C 	0.40170 0.90170 0.01430 -0.06400
H 	H 	0.38430 0.88430 0.02680 0.07900
C 	C 	0.43470 0.93470 0.02420 0.11900
C 	C 	0.44560 0.94560 0.05510 -0.09400
C 	C 	0.47880 0.97880 0.06160 0.10500
C 	C 	0.48520 0.98520 0.09360 -0.05200
H 	H 	0.47140 0.97140 0.10980 0.07700
C 	C 	0.37540 0.87540 0.12510 -0.10300
H 	H 	0.36290 0.86290 0.14210 0.09900
C 	C 	0.41950 0.91950 0.08010 0.11600
N 	N 	0.45270 0.95270 0.25090 -0.26600
C 	C 	0.90170 0.40170 0.48570 -0.06500
H 	H 	0.88430 0.38430 0.47320 0.07900
C 	C 	0.93470 0.43470 0.47580 0.11900
C 	C 	0.94560 0.44560 0.44490 -0.09400
C 	C 	0.97880 0.47880 0.43840 0.10500
C 	C 	0.98520 0.48520 0.40640 -0.05200
H 	H 	0.97140 0.47140 0.39020 0.07700
C 	C 	0.87540 0.37540 0.37490 -0.10300
H 	H 	0.86290 0.36290 0.35790 0.09900
C 	C 	0.91950 0.41950 0.41990 0.11600
N 	N 	0.95270 0.45270 0.24910 -0.26600
C 	C 	0.09830 0.59830 0.48570 -0.06500
H 	H 	0.11570 0.61570 0.47320 0.07900
C 	C 	0.06530 0.56530 0.47580 0.11800
C 	C 	0.05440 0.55440 0.44490 -0.09500
C 	C 	0.02120 0.52120 0.43840 0.10600
C 	C 	0.01480 0.51480 0.40640 -0.08100
H 	H 	0.02860 0.52860 0.39020 0.08500
C 	C 	0.12460 0.62460 0.37490 -0.10300
H 	H 	0.13710 0.63710 0.35790 0.09900
C 	C 	0.08050 0.58050 0.41990 0.11500
N 	N 	0.04730 0.54730 0.24910 -0.26800
C 	C 	0.40170 0.09830 0.48570 -0.06500
H 	H 	0.38430 0.11570 0.47320 0.07900
C 	C 	0.43470 0.06530 0.47580 0.11800
C 	C 	0.44560 0.05440 0.44490 -0.09500
C 	C 	0.47880 0.02120 0.43840 0.10600
C 	C 	0.48520 0.01480 0.40640 -0.08100
H 	H 	0.47140 0.02860 0.39020 0.08500
C 	C 	0.37540 0.12460 0.37490 -0.10200
H 	H 	0.36290 0.13710 0.35790 0.09900
C 	C 	0.41950 0.08050 0.41990 0.11500
N 	N 	0.45270 0.04730 0.24910 -0.26800
C 	C 	0.59830 0.90170 0.48570 -0.06500
H 	H 	0.61570 0.88430 0.47320 0.07900
C 	C 	0.56530 0.93470 0.47580 0.11900
C 	C 	0.55440 0.94560 0.44490 -0.09400
C 	C 	0.52120 0.97880 0.43840 0.10500
C 	C 	0.51480 0.98520 0.40640 -0.05200
H 	H 	0.52860 0.97140 0.39020 0.07700
C 	C 	0.62460 0.87540 0.37490 -0.10300
H 	H 	0.63710 0.86290 0.35790 0.09900
C 	C 	0.58050 0.91950 0.41990 0.11600
N 	N 	0.54730 0.95270 0.24910 -0.26600
C 	C 	0.90170 0.59830 0.98570 -0.06500
H 	H 	0.88430 0.61570 0.97320 0.08000
C 	C 	0.93470 0.56530 0.97580 0.11900
C 	C 	0.94560 0.55440 0.94490 -0.09400
C 	C 	0.97880 0.52120 0.93840 0.10500
C 	C 	0.98520 0.51480 0.90640 -0.05200
H 	H 	0.97140 0.52860 0.89020 0.07700
C 	C 	0.87540 0.62460 0.87490 -0.10300
H 	H 	0.86290 0.63710 0.85790 0.09900
C 	C 	0.91950 0.58050 0.91990 0.11600
N 	N 	0.95270 0.54730 0.74910 -0.26600
C 	C 	0.09830 0.40170 0.98570 -0.06500
H 	H 	0.11570 0.38430 0.97320 0.07900
C 	C 	0.06530 0.43470 0.97580 0.11800
C 	C 	0.05440 0.44560 0.94490 -0.09500
C 	C 	0.02120 0.47880 0.93840 0.10500
C 	C 	0.01480 0.48520 0.90640 -0.08000
H 	H 	0.02860 0.47140 0.89020 0.08500
C 	C 	0.12460 0.37540 0.87490 -0.10200
H 	H 	0.13710 0.36290 0.85790 0.09900
C 	C 	0.08050 0.41950 0.91990 0.11500
N 	N 	0.04730 0.45270 0.74910 -0.26800
C 	C 	0.40170 0.90170 0.98570 -0.06500
H 	H 	0.38430 0.88430 0.97320 0.08000
C 	C 	0.43470 0.93470 0.97580 0.11900
C 	C 	0.44560 0.94560 0.94490 -0.09400
C 	C 	0.47880 0.97880 0.93840 0.10500
C 	C 	0.48520 0.98520 0.90640 -0.05200
H 	H 	0.47140 0.97140 0.89020 0.07700
C 	C 	0.37540 0.87540 0.87490 -0.10300
H 	H 	0.36290 0.86290 0.85790 0.09900
C 	C 	0.41950 0.91950 0.91990 0.11600
N 	N 	0.45270 0.95270 0.74910 -0.26600
C 	C 	0.59830 0.09830 0.98570 -0.06500
H 	H 	0.61570 0.11570 0.97320 0.07900
C 	C 	0.56530 0.06530 0.97580 0.11800
C 	C 	0.55440 0.05440 0.94490 -0.09500
C 	C 	0.52120 0.02120 0.93840 0.10500
C 	C 	0.51480 0.01480 0.90640 -0.08000
H 	H 	0.52860 0.02860 0.89020 0.08500
C 	C 	0.62460 0.12460 0.87490 -0.10200
H 	H 	0.63710 0.13710 0.85790 0.09900
C 	C 	0.58050 0.08050 0.91990 0.11500
N 	N 	0.54730 0.04730 0.74910 -0.26800
C 	C 	0.09830 0.59830 0.51430 -0.06500
H 	H 	0.11570 0.61570 0.52680 0.07900
C 	C 	0.06530 0.56530 0.52420 0.11800
C 	C 	0.05440 0.55440 0.55510 -0.09500
C 	C 	0.02120 0.52120 0.56160 0.10600
C 	C 	0.01480 0.51480 0.59360 -0.08100
H 	H 	0.02860 0.52860 0.60980 0.08500
C 	C 	0.12460 0.62460 0.62510 -0.10300
H 	H 	0.13710 0.63710 0.64210 0.09900
C 	C 	0.08050 0.58050 0.58010 0.11500
N 	N 	0.04730 0.54730 0.75090 -0.26800
C 	C 	0.90170 0.40170 0.51430 -0.06500
H 	H 	0.88430 0.38430 0.52680 0.07900
C 	C 	0.93470 0.43470 0.52420 0.11900
C 	C 	0.94560 0.44560 0.55510 -0.09400
C 	C 	0.97880 0.47880 0.56160 0.10500
C 	C 	0.98520 0.48520 0.59360 -0.05200
H 	H 	0.97140 0.47140 0.60980 0.07700
C 	C 	0.87540 0.37540 0.62510 -0.10300
H 	H 	0.86290 0.36290 0.64210 0.09900
C 	C 	0.91950 0.41950 0.58010 0.11600
N 	N 	0.95270 0.45270 0.75090 -0.26600
C 	C 	0.59830 0.90170 0.51430 -0.06500
H 	H 	0.61570 0.88430 0.52680 0.07900
C 	C 	0.56530 0.93470 0.52420 0.11900
C 	C 	0.55440 0.94560 0.55510 -0.09400
C 	C 	0.52120 0.97880 0.56160 0.10500
C 	C 	0.51480 0.98520 0.59360 -0.05200
H 	H 	0.52860 0.97140 0.60980 0.07700
C 	C 	0.62460 0.87540 0.62510 -0.10300
H 	H 	0.63710 0.86290 0.64210 0.09900
C 	C 	0.58050 0.91950 0.58010 0.11600
N 	N 	0.54730 0.95270 0.75090 -0.26600
Mn	Mn	-0.00000 0.50000 0.25000 1.32700
Mn	Mn	0.50000 0.00000 0.25000 1.32700
Mn	Mn	0.00000 0.50000 0.75000 1.32700
Mn	Mn	0.50000 0.00000 0.75000 1.32700
C 	C 	-0.00000 0.38720 0.25000 -0.13800
C 	C 	-0.00000 0.24520 0.25000 -0.10300
H 	H 	-0.00000 0.21470 0.25000 0.06200
C 	C 	0.00000 0.33580 0.25000 0.14400
C 	C 	0.50000 0.88720 0.75000 -0.13200
C 	C 	0.50000 0.74520 0.75000 -0.09500
H 	H 	0.50000 0.71470 0.75000 0.06100
C 	C 	0.50000 0.83580 0.75000 0.15200
C 	C 	0.00000 0.61280 0.25000 -0.13800
C 	C 	-0.00000 0.75480 0.25000 -0.10300
H 	H 	-0.00000 0.78530 0.25000 0.06200
C 	C 	-0.00000 0.66420 0.25000 0.14400
C 	C 	0.50000 0.11280 0.75000 -0.13400
C 	C 	0.50000 0.25480 0.75000 -0.09500
H 	H 	0.50000 0.28530 0.75000 0.06100
C 	C 	0.50000 0.16420 0.75000 0.15200
C 	C 	0.61280 0.00000 0.25000 -0.13800
C 	C 	0.75480 0.00000 0.25000 -0.10300
H 	H 	0.78530 0.00000 0.25000 0.06200
C 	C 	0.66420 0.00000 0.25000 0.14400
C 	C 	0.11280 0.50000 0.75000 -0.13400
C 	C 	0.25480 0.50000 0.75000 -0.09500
H 	H 	0.28530 0.50000 0.75000 0.06100
C 	C 	0.16420 0.50000 0.75000 0.15200
C 	C 	0.38720 0.00000 0.25000 -0.13800
C 	C 	0.24520 0.00000 0.25000 -0.10300
H 	H 	0.21470 0.00000 0.25000 0.06200
C 	C 	0.33580 0.00000 0.25000 0.14400
C 	C 	0.88720 0.50000 0.75000 -0.13200
C 	C 	0.74520 0.50000 0.75000 -0.09500
H 	H 	0.71470 0.50000 0.75000 0.06100
C 	C 	0.83580 0.50000 0.75000 0.15200
C 	C 	0.00000 0.61280 0.75000 -0.13800
C 	C 	-0.00000 0.75480 0.75000 -0.10300
H 	H 	0.00000 0.78530 0.75000 0.06200
C 	C 	0.00000 0.66420 0.75000 0.14400
C 	C 	0.50000 0.11280 0.25000 -0.13400
C 	C 	0.50000 0.25480 0.25000 -0.09500
H 	H 	0.50000 0.28530 0.25000 0.06100
C 	C 	0.50000 0.16420 0.25000 0.15200
C 	C 	0.00000 0.38720 0.75000 -0.13800
C 	C 	0.00000 0.24520 0.75000 -0.10300
H 	H 	0.00000 0.21470 0.75000 0.06200
C 	C 	0.00000 0.33580 0.75000 0.14400
C 	C 	0.50000 0.88720 0.25000 -0.13200
C 	C 	0.50000 0.74520 0.25000 -0.09500
H 	H 	0.50000 0.71470 0.25000 0.06100
C 	C 	0.50000 0.83580 0.25000 0.15200
C 	C 	0.38720 0.00000 0.75000 -0.13800
C 	C 	0.24520 0.00000 0.75000 -0.10300
H 	H 	0.21470 0.00000 0.75000 0.06200
C 	C 	0.33580 0.00000 0.75000 0.14400
C 	C 	0.88720 0.50000 0.25000 -0.13200
C 	C 	0.74520 0.50000 0.25000 -0.09500
H 	H 	0.71470 0.50000 0.25000 0.06100
C 	C 	0.83580 0.50000 0.25000 0.15200
C 	C 	0.61280 0.00000 0.75000 -0.13800
C 	C 	0.75480 0.00000 0.75000 -0.10300
H 	H 	0.78530 0.00000 0.75000 0.06200
C 	C 	0.66420 0.00000 0.75000 0.14400
C 	C 	0.11280 0.50000 0.25000 -0.13400
C 	C 	0.25480 0.50000 0.25000 -0.09500
H 	H 	0.28530 0.50000 0.25000 0.06100
C 	C 	0.16420 0.50000 0.25000 0.15200
