data_crystal

_cell_length_a 34.68530
_cell_length_b 34.68530
_cell_length_c 35.26960
_cell_angle_alpha 119.45300
_cell_angle_beta  119.45300
_cell_angle_gamma 90.00000

_symmetry_space_group_name_	'P 1'
_symmetry_space_group_name_H-M	'P 1'

loop_
_symmetry_equiv_pos_as_xyz
  x,y,z

loop_
_atom_site_label
_atom_site_type_symbol
_atom_site_fract_x
_atom_site_fract_y
_atom_site_fract_z
_atom_site_charge
Cu	Cu	0.93339 0.21673 -0.00000 0.88600
Cu	Cu	0.74347 0.96042 0.77438 0.90800
Cu	Cu	0.08862 0.70979 -0.00000 0.88500
Cu	Cu	0.91138 0.29021 -0.00000 0.88400
Cu	Cu	0.03091 0.81396 0.77438 0.90800
Cu	Cu	0.21673 0.06661 -0.00000 0.88500
Cu	Cu	0.75184 0.65823 0.70104 0.90500
Cu	Cu	0.81396 0.74347 0.77438 0.90800
Cu	Cu	0.05080 0.95719 0.29896 0.90400
Cu	Cu	0.29021 0.08862 -0.00000 0.88300
Cu	Cu	0.70979 0.91138 -0.00000 0.88400
Cu	Cu	0.06661 0.78327 -0.00000 0.88500
Cu	Cu	0.03958 0.96909 0.22562 0.90500
Cu	Cu	0.65823 0.94920 0.70104 0.90400
Cu	Cu	0.96042 0.03091 0.77438 0.90700
Cu	Cu	0.78327 0.93339 -0.00000 0.88500
Cu	Cu	0.95719 0.24816 0.29896 0.90400
Cu	Cu	0.24816 0.34177 0.29896 0.90500
Cu	Cu	0.18604 0.25653 0.22562 0.90600
Cu	Cu	0.96909 0.18604 0.22562 0.90500
Cu	Cu	0.94920 0.04281 0.70104 0.90400
Cu	Cu	0.34177 0.05080 0.29896 0.90500
Cu	Cu	0.04281 0.75184 0.70104 0.90500
Cu	Cu	0.25653 0.03958 0.22562 0.90600
H 	H 	0.29030 0.66780 0.24620 0.10300
H 	H 	0.79120 0.53700 0.78240 0.03600
H 	H 	0.72050 0.94320 0.22560 0.00600
H 	H 	0.38860 0.20160 0.40640 0.07700
H 	H 	0.81850 0.98440 0.71800 0.06700
H 	H 	0.40280 0.03010 0.21280 0.07300
H 	H 	0.90480 0.77470 0.36780 0.03300
H 	H 	0.22530 0.53700 0.63220 0.03500
H 	H 	0.33220 0.04410 0.75380 0.10400
H 	H 	0.40690 0.09520 0.63220 0.03500
H 	H 	0.03390 0.23120 0.48780 0.04000
H 	H 	0.70970 0.33220 0.75380 0.10400
H 	H 	0.41330 0.67730 0.27060 0.10000
H 	H 	0.40690 0.02170 0.69320 0.08100
H 	H 	0.15620 0.92560 0.86580 0.06700
H 	H 	0.46930 0.07370 0.86140 0.04900
H 	H 	0.95590 0.57840 0.24620 0.10200
H 	H 	0.59110 0.28900 0.63500 0.08500
H 	H 	0.20160 0.01780 0.40640 0.07900
H 	H 	0.47300 0.72460 0.44300 0.02400
H 	H 	0.25660 0.03390 0.48780 0.04000
H 	H 	0.58910 0.28090 0.17740 0.07600
H 	H 	0.27950 0.05680 0.77440 0.01000
H 	H 	0.59810 0.42070 0.71060 0.09500
H 	H 	0.67150 0.40690 0.69320 0.07600
H 	H 	0.19000 0.81730 0.78720 0.07600
H 	H 	0.05230 0.38660 0.09960 0.07800
H 	H 	0.88750 0.71010 0.28940 0.09000
H 	H 	0.32810 0.90740 0.23880 0.08300
H 	H 	0.11250 0.28990 0.71060 0.09500
H 	H 	0.33140 0.32810 0.23880 0.08400
H 	H 	0.09260 0.08930 0.76120 0.08800
H 	H 	0.95610 0.65400 0.36500 0.08500
H 	H 	0.71100 0.95610 0.36500 0.08500
H 	H 	0.32270 0.14270 0.72940 0.10400
H 	H 	0.96990 0.19000 0.78720 0.07500
H 	H 	0.10050 0.26640 0.28200 0.06600
H 	H 	0.54610 0.74340 0.51220 0.03900
H 	H 	0.50510 0.28240 0.22560 0.00600
H 	H 	0.58830 0.89650 0.17740 0.07400
H 	H 	0.59330 0.41330 0.27060 0.10000
H 	H 	0.59720 0.96990 0.78720 0.07500
H 	H 	0.28630 0.67150 0.69320 0.07600
H 	H 	0.38660 0.04730 0.09960 0.07800
H 	H 	0.04730 0.71300 0.09960 0.07800
H 	H 	0.58670 0.32270 0.72940 0.10400
H 	H 	0.07370 0.39210 0.86140 0.04900
H 	H 	0.00840 0.72930 0.27060 0.03600
H 	H 	0.09180 0.35010 0.40420 0.08400
H 	H 	0.03010 0.81000 0.21280 0.07300
H 	H 	0.65400 0.40890 0.36500 0.08500
H 	H 	0.46300 0.59310 0.36780 0.03300
H 	H 	0.89420 0.34590 0.12420 0.07400
H 	H 	0.71760 0.27950 0.77440 0.00900
H 	H 	0.28090 0.58830 0.17740 0.07600
H 	H 	0.76880 0.54610 0.51220 0.03900
H 	H 	0.18150 0.01560 0.28200 0.06700
H 	H 	0.66860 0.67190 0.76120 0.08700
H 	H 	0.40670 0.58670 0.72940 0.10400
H 	H 	0.72460 0.97000 0.44300 0.02400
H 	H 	0.94320 0.50510 0.22560 0.00600
H 	H 	0.28700 0.94770 0.90040 0.09100
H 	H 	0.21230 0.53070 0.13860 0.03900
H 	H 	0.90740 0.91070 0.23880 0.08300
H 	H 	0.73420 0.84390 0.24960 0.02400
H 	H 	0.24540 0.79120 0.78240 0.03700
H 	H 	0.73780 0.45870 0.72940 0.03300
H 	H 	0.45870 0.99160 0.72940 0.02400
H 	H 	0.53700 0.40690 0.63220 0.03500
H 	H 	0.81730 0.59720 0.78720 0.07600
H 	H 	0.26220 0.54130 0.27060 0.03000
H 	H 	0.00880 0.75460 0.21760 0.03500
H 	H 	0.97830 0.71370 0.30680 0.07400
H 	H 	0.91580 0.42480 0.18740 0.04100
H 	H 	0.79520 0.61140 0.59360 0.07700
H 	H 	0.05410 0.09180 0.40420 0.08500
H 	H 	0.31240 0.05410 0.40420 0.08400
H 	H 	0.04410 0.42160 0.75380 0.10400
H 	H 	0.72930 0.26220 0.27060 0.03000
H 	H 	0.98220 0.79520 0.59360 0.07600
H 	H 	0.59310 0.97830 0.30680 0.07400
H 	H 	0.27070 0.73780 0.72940 0.03300
H 	H 	0.51540 0.40570 0.24960 0.02400
H 	H 	0.42160 0.70970 0.75380 0.10400
H 	H 	0.23000 0.77830 0.12420 0.07400
H 	H 	0.10580 0.65410 0.87580 0.08500
H 	H 	0.71300 0.05230 0.09960 0.07800
H 	H 	0.59310 0.90480 0.36780 0.03300
H 	H 	0.81000 0.18270 0.21280 0.07200
H 	H 	0.08930 0.66860 0.76120 0.08700
H 	H 	0.95270 0.28700 0.90040 0.09000
H 	H 	0.94770 0.61340 0.90040 0.09000
H 	H 	0.40190 0.57930 0.28940 0.09000
H 	H 	0.74340 0.96610 0.51220 0.03900
H 	H 	0.34590 0.23000 0.12420 0.07400
H 	H 	0.89080 0.92380 0.12500 0.06300
H 	H 	0.91070 0.33140 0.23880 0.08300
H 	H 	0.57840 0.29030 0.24620 0.10300
H 	H 	0.34600 0.59110 0.63500 0.08500
H 	H 	0.23740 0.08420 0.81260 0.04500
H 	H 	0.92560 0.70960 0.86580 0.06700
H 	H 	0.94590 0.90820 0.59580 0.08300
H 	H 	0.77000 0.22170 0.87580 0.08500
H 	H 	0.02170 0.28630 0.69320 0.08100
H 	H 	0.96610 0.76880 0.51220 0.03900
H 	H 	0.01780 0.20480 0.40640 0.07900
H 	H 	0.42070 0.11250 0.71060 0.09500
H 	H 	0.67730 0.85730 0.27060 0.10000
H 	H 	0.07620 0.76580 0.87500 0.07400
H 	H 	0.10350 0.41090 0.82260 0.08600
H 	H 	0.05980 0.84380 0.13420 0.06000
H 	H 	0.64990 0.68760 0.59580 0.08400
H 	H 	0.07440 0.29040 0.13420 0.06000
H 	H 	0.61340 0.95270 0.90040 0.09000
H 	H 	0.14270 0.40670 0.72940 0.10400
H 	H 	0.89650 0.58910 0.17740 0.07500
H 	H 	0.71840 0.47300 0.44300 0.02400
H 	H 	0.08420 0.57520 0.81260 0.04500
H 	H 	0.01560 0.10050 0.28200 0.06700
H 	H 	0.98440 0.89950 0.71800 0.06600
H 	H 	0.48460 0.59430 0.75040 0.02900
H 	H 	0.77470 0.46300 0.36780 0.03300
H 	H 	0.23420 0.20120 0.12500 0.06400
H 	H 	0.57930 0.88750 0.28940 0.09000
H 	H 	0.72840 0.23740 0.81260 0.04500
H 	H 	0.04390 0.34600 0.63500 0.08600
H 	H 	0.60790 0.21230 0.13860 0.03900
H 	H 	0.15610 0.48460 0.75040 0.02900
H 	H 	0.28240 0.72050 0.22560 0.00600
H 	H 	0.23120 0.45390 0.48780 0.04000
H 	H 	0.71010 0.40190 0.28940 0.09000
H 	H 	0.52700 0.27540 0.55700 0.02400
H 	H 	0.22170 0.10580 0.87580 0.08500
H 	H 	0.79840 0.98220 0.59360 0.07600
H 	H 	0.71910 0.41170 0.82260 0.08300
H 	H 	0.73360 0.81850 0.71800 0.06800
H 	H 	0.28990 0.59810 0.71060 0.09500
H 	H 	0.41090 0.71910 0.82260 0.08300
H 	H 	0.79880 0.10920 0.87500 0.07400
H 	H 	0.94020 0.15620 0.86580 0.06700
H 	H 	0.26640 0.18150 0.28200 0.06600
H 	H 	0.67190 0.09260 0.76120 0.08700
H 	H 	0.92380 0.23420 0.12500 0.06300
H 	H 	0.26580 0.15610 0.75040 0.02900
H 	H 	0.66780 0.95590 0.24620 0.10200
H 	H 	0.84390 0.51540 0.24960 0.02400
H 	H 	0.40570 0.73420 0.24960 0.02400
H 	H 	0.71370 0.32850 0.30680 0.07700
H 	H 	0.46300 0.00880 0.21760 0.03500
H 	H 	0.92630 0.60790 0.13860 0.04100
H 	H 	0.40890 0.71100 0.36500 0.08500
H 	H 	0.85730 0.59330 0.27060 0.10000
H 	H 	0.10920 0.07620 0.87500 0.07500
H 	H 	0.18270 0.40280 0.21280 0.07200
H 	H 	0.42480 0.27160 0.18740 0.04100
H 	H 	0.27540 0.03000 0.55700 0.02500
H 	H 	0.57520 0.72840 0.81260 0.04500
H 	H 	0.84380 0.07440 0.13420 0.06000
H 	H 	0.53700 0.99120 0.78240 0.03800
H 	H 	0.05680 0.49490 0.77440 0.00900
H 	H 	0.59430 0.26580 0.75040 0.02900
H 	H 	0.97000 0.71840 0.44300 0.02400
H 	H 	0.68760 0.94590 0.59580 0.08300
H 	H 	0.77830 0.89420 0.12420 0.07400
H 	H 	0.61140 0.79840 0.59360 0.07700
H 	H 	0.03000 0.28160 0.55700 0.02500
H 	H 	0.54130 0.00840 0.27060 0.03700
H 	H 	0.29040 0.05980 0.13420 0.06000
H 	H 	0.53070 0.92630 0.13860 0.04100
H 	H 	0.90820 0.64990 0.59580 0.08300
H 	H 	0.89950 0.73360 0.71800 0.06800
H 	H 	0.49490 0.71760 0.77440 0.00900
H 	H 	0.20880 0.46300 0.21760 0.03600
H 	H 	0.76260 0.91580 0.18740 0.04100
H 	H 	0.78770 0.46930 0.86140 0.05200
H 	H 	0.76580 0.79880 0.87500 0.07300
H 	H 	0.99120 0.24540 0.78240 0.03900
H 	H 	0.35010 0.31240 0.40420 0.08400
H 	H 	0.09520 0.22530 0.63220 0.03500
H 	H 	0.41170 0.10350 0.82260 0.08500
H 	H 	0.39210 0.78770 0.86140 0.05200
H 	H 	0.28160 0.52700 0.55700 0.02400
H 	H 	0.28900 0.04390 0.63500 0.08600
H 	H 	0.99160 0.27070 0.72940 0.02300
H 	H 	0.20120 0.89080 0.12500 0.06300
H 	H 	0.70960 0.94020 0.86580 0.06700
H 	H 	0.75460 0.20880 0.21760 0.03600
H 	H 	0.65410 0.77000 0.87580 0.08400
H 	H 	0.27160 0.76260 0.18740 0.04100
H 	H 	0.45390 0.25660 0.48780 0.04000
H 	H 	0.32850 0.59310 0.30680 0.07700
H 	H 	0.20480 0.38860 0.40640 0.07700
C 	C 	0.79793 0.97977 0.68480 -0.00900
C 	C 	0.16586 0.86756 0.82000 -0.04300
C 	C 	0.03942 0.04190 0.31054 0.35200
C 	C 	0.81380 0.50050 0.81700 0.05700
C 	C 	0.54260 0.65600 0.76840 0.09800
C 	C 	0.41880 0.03260 0.72860 -0.13100
C 	C 	0.91310 0.74820 0.36660 0.03200
C 	C 	0.22580 0.11240 0.76840 0.09900
C 	C 	0.48087 0.32717 0.53974 0.07800
C 	C 	0.33360 0.09330 0.74120 0.18500
C 	C 	0.32890 0.76580 0.79720 -0.01200
C 	C 	0.11232 0.09065 0.79268 -0.07400
C 	C 	0.16301 0.32882 0.21304 0.35700
C 	C 	0.63249 0.78634 0.61110 -0.07600
C 	C 	0.13009 0.99310 0.30964 0.34100
C 	C 	0.47100 0.61790 0.74960 0.05300
C 	C 	0.09769 0.57639 0.79518 -0.01500
C 	C 	0.25026 0.03475 0.33940 -0.04600
C 	C 	0.46610 0.00890 0.19240 0.00600
C 	C 	0.54450 0.93700 0.17420 -0.00900
C 	C 	0.89253 0.65612 0.61290 -0.06200
C 	C 	0.93220 0.74780 0.40880 -0.04700
C 	C 	0.38160 0.08690 0.63340 0.03500
C 	C 	0.32882 0.05003 0.21304 0.35700
C 	C 	0.11313 0.29497 0.31520 -0.01000
C 	C 	0.03475 0.08914 0.33940 -0.04500
C 	C 	0.06780 0.25220 0.59120 -0.04700
C 	C 	0.28638 0.04306 0.49472 -0.00800
C 	C 	0.33394 0.05489 0.11012 -0.05400
C 	C 	0.87550 0.57520 0.26140 -0.18400
C 	C 	0.90231 0.42361 0.20482 -0.01800
C 	C 	0.00405 0.30488 0.06984 0.36600
C 	C 	0.61790 0.27860 0.74960 0.05300
C 	C 	0.73520 0.89640 0.24140 -0.08000
C 	C 	0.17524 0.36751 0.38890 -0.07600
C 	C 	0.58420 0.39020 0.67940 -0.15300
C 	C 	0.05590 0.32150 0.63540 -0.14700
C 	C 	0.79864 0.91371 0.07200 0.35300
C 	C 	0.94997 0.11578 0.78696 0.35500
C 	C 	0.95140 0.71590 0.41060 0.02600
C 	C 	0.18401 0.01251 0.33906 -0.02900
C 	C 	0.77737 0.12232 0.85954 -0.02000
C 	C 	0.31964 0.29797 0.20732 -0.06900
C 	C 	0.76580 0.46830 0.79720 -0.01200
C 	C 	0.74336 0.07256 0.11832 -0.05700
C 	C 	0.76280 0.45550 0.82580 -0.00500
C 	C 	0.68036 0.70203 0.79268 -0.07400
C 	C 	0.25220 0.52340 0.59120 -0.04700
C 	C 	0.25180 0.54650 0.63340 0.03400
C 	C 	0.96525 0.91086 0.66060 -0.04800
C 	C 	0.71340 0.92600 0.23680 0.07800
C 	C 	0.07400 0.47660 0.76320 0.08000
C 	C 	0.45350 0.61840 0.36660 0.03200
C 	C 	0.08914 0.30465 0.33940 -0.04700
C 	C 	0.81092 0.89995 0.13970 -0.07500
C 	C 	0.77618 0.05523 0.11012 -0.05600
C 	C 	0.54080 0.30530 0.58940 0.02700
C 	C 	0.26480 0.10360 0.75860 -0.07700
C 	C 	0.06790 0.43400 0.75300 -0.20100
C 	C 	0.03384 0.75550 0.15548 0.08900
C 	C 	0.45740 0.34400 0.23160 0.09600
C 	C 	0.70203 0.11232 0.79268 -0.07400
C 	C 	0.32878 0.23975 0.13970 -0.07500
C 	C 	0.03140 0.32890 0.79720 -0.02500
C 	C 	0.01251 0.15505 0.33906 -0.02900
C 	C 	0.32717 0.05887 0.53974 0.07900
C 	C 	0.91416 0.68070 0.85936 -0.00800
C 	C 	0.28920 0.58420 0.67940 -0.15300
C 	C 	0.42361 0.30251 0.20482 -0.01800
C 	C 	0.39998 0.03384 0.15548 0.08900
C 	C 	0.28055 0.95922 0.21424 0.33600
C 	C 	0.70060 0.26570 0.25040 0.00800
C 	C 	0.15048 0.38531 0.18676 -0.06300
C 	C 	0.66100 0.93220 0.40880 -0.04700
C 	C 	0.00890 0.72630 0.19240 0.00500
C 	C 	0.16122 0.10126 0.81632 0.10100
C 	C 	0.68780 0.40150 0.75240 0.10900
C 	C 	0.89874 0.34490 0.18368 0.09100
C 	C 	0.87836 0.60002 0.84452 0.10000
C 	C 	0.61830 0.27800 0.19740 -0.12200
C 	C 	0.26093 0.03553 0.41206 0.09400
C 	C 	0.94410 0.67850 0.36460 -0.14600
C 	C 	0.07256 0.37496 0.11832 -0.05700
C 	C 	0.71945 0.04078 0.78576 0.33400
C 	C 	0.73907 0.96447 0.58794 0.09100
C 	C 	0.30530 0.04860 0.58940 0.02700
C 	C 	0.67345 0.81599 0.66094 -0.03200
C 	C 	0.01530 0.29940 0.74960 0.02400
C 	C 	0.99680 0.68350 0.18300 0.05100
C 	C 	0.06579 0.76496 0.06984 0.35900
C 	C 	0.89995 0.32878 0.13970 -0.07500
C 	C 	0.04190 0.27112 0.31054 0.35200
C 	C 	0.72200 0.42090 0.80260 -0.11600
C 	C 	0.42480 0.61410 0.73860 -0.18100
C 	C 	0.23720 0.54450 0.17420 -0.00200
C 	C 	0.34400 0.77420 0.23160 0.09600
C 	C 	0.73236 0.09391 0.81488 -0.02800
C 	C 	0.15505 0.32655 0.33906 -0.03300
C 	C 	0.72630 0.18350 0.19240 0.00000
C 	C 	0.67110 0.23420 0.20280 -0.02100
C 	C 	0.20834 0.45166 0.49472 -0.00800
C 	C 	0.08584 0.31930 0.14064 0.00100
C 	C 	0.23975 0.81092 0.13970 -0.07500
C 	C 	0.34388 0.27963 0.38710 -0.06100
C 	C 	0.69512 0.93421 0.93016 0.35300
C 	C 	0.19855 0.84952 0.81324 -0.06900
C 	C 	0.35090 0.68780 0.75240 0.10900
C 	C 	0.40760 0.64790 0.74120 0.18400
C 	C 	0.31900 0.06790 0.75300 -0.20100
C 	C 	0.27963 0.04322 0.38710 -0.06200
C 	C 	0.84952 0.61469 0.81324 -0.06800
C 	C 	0.30251 0.78121 0.20482 -0.01800
C 	C 	0.78634 0.97861 0.61110 -0.07500
C 	C 	0.18350 0.46610 0.19240 0.00000
C 	C 	0.05523 0.33394 0.11012 -0.05600
C 	C 	0.97861 0.82476 0.61110 -0.07500
C 	C 	0.30488 0.06579 0.06984 0.35900
C 	C 	0.31650 0.81380 0.81700 0.05700
C 	C 	0.05489 0.77618 0.11012 -0.05400
C 	C 	0.46830 0.03140 0.79720 -0.02400
C 	C 	0.71506 0.16122 0.81632 0.10100
C 	C 	0.51913 0.67283 0.46026 0.07700
C 	C 	0.73722 0.77737 0.85954 -0.01900
C 	C 	0.67122 0.76025 0.86030 -0.08100
C 	C 	0.50050 0.00320 0.81700 0.06600
C 	C 	0.57639 0.69749 0.79518 -0.01500
C 	C 	0.22263 0.87768 0.14046 -0.01200
C 	C 	0.69749 0.21879 0.79518 -0.01400
C 	C 	0.32400 0.60120 0.68080 0.13600
C 	C 	0.52340 0.31080 0.23680 0.07900
C 	C 	0.18908 0.10005 0.86030 -0.08200
C 	C 	0.27903 0.26764 0.18512 -0.03900
C 	C 	0.29797 0.88768 0.20732 -0.06900
C 	C 	0.95810 0.72888 0.68946 0.35100
C 	C 	0.26764 0.90609 0.18512 -0.04000
C 	C 	0.27860 0.13170 0.74960 0.05400
C 	C 	0.98749 0.84495 0.66094 -0.03600
C 	C 	0.26570 0.54980 0.25040 0.00800
C 	C 	0.95922 0.93369 0.21424 0.33600
C 	C 	0.82045 0.68346 0.69036 0.34400
C 	C 	0.02139 0.17524 0.38890 -0.07700
C 	C 	0.81650 0.53390 0.80760 0.00500
C 	C 	0.65414 0.95244 0.82000 -0.04500
C 	C 	0.50620 0.34500 0.24140 -0.08000
C 	C 	0.94477 0.66606 0.88988 -0.03600
C 	C 	0.04860 0.28410 0.58940 0.02700
C 	C 	0.07960 0.32400 0.68080 0.13600
C 	C 	0.03628 0.80145 0.18676 -0.06400
C 	C 	0.96058 0.95810 0.68946 0.35200
C 	C 	0.73136 0.96058 0.68946 0.35100
C 	C 	0.70503 0.79793 0.68480 -0.01100
C 	C 	0.61840 0.91310 0.36660 0.03200
C 	C 	0.56600 0.31490 0.24700 -0.20400
C 	C 	0.59850 0.93540 0.24760 0.10500
C 	C 	0.11578 0.83699 0.78696 0.35400
C 	C 	0.60120 0.35680 0.68080 0.13600
C 	C 	0.57520 0.38590 0.26140 -0.18400
C 	C 	0.66640 0.90670 0.25880 0.18300
C 	C 	0.89640 0.50620 0.24140 -0.08000
C 	C 	0.69020 0.30400 0.27140 -0.12400
C 	C 	0.18620 0.49950 0.18300 0.05600
C 	C 	0.84887 0.62347 0.58794 0.09200
C 	C 	0.37653 0.26093 0.41206 0.09200
C 	C 	0.62504 0.95424 0.88168 -0.06300
C 	C 	0.99110 0.27370 0.80760 -0.00300
C 	C 	0.65600 0.22580 0.76840 0.09900
C 	C 	0.64910 0.31220 0.24760 0.11100
C 	C 	0.69535 0.74974 0.66060 -0.04600
C 	C 	0.87768 0.91783 0.14046 -0.01200
C 	C 	0.37496 0.04576 0.11832 -0.05900
C 	C 	0.88422 0.16301 0.21304 0.35700
C 	C 	0.09520 0.28920 0.67940 -0.15300
C 	C 	0.91371 0.27336 0.07200 0.35300
C 	C 	0.54650 0.38160 0.63340 0.03500
C 	C 	0.37030 0.76280 0.82580 -0.00500
C 	C 	0.34586 0.04756 0.18000 -0.05200
C 	C 	0.61469 0.96372 0.81324 -0.06700
C 	C 	0.92600 0.52340 0.23680 0.07800
C 	C 	0.81599 0.98749 0.66094 -0.03500
C 	C 	0.96372 0.19855 0.81324 -0.06700
C 	C 	0.78121 0.90231 0.20482 -0.01800
C 	C 	0.96447 0.84887 0.58794 0.09100
C 	C 	0.94511 0.22382 0.88988 -0.03900
C 	C 	0.27800 0.57910 0.19740 -0.12200
C 	C 	0.69470 0.95140 0.41060 0.02500
C 	C 	0.52340 0.33900 0.59120 -0.04700
C 	C 	0.75550 0.12164 0.15548 0.08800
C 	C 	0.31380 0.12450 0.73860 -0.18100
C 	C 	0.27112 0.26864 0.31054 0.35200
C 	C 	0.08629 0.72664 0.92800 0.34600
C 	C 	0.10360 0.49380 0.75860 -0.07700
C 	C 	0.90609 0.91748 0.18512 -0.04000
C 	C 	0.35210 0.66640 0.25880 0.18300
C 	C 	0.74820 0.45350 0.36660 0.03200
C 	C 	0.38170 0.72200 0.80260 -0.11600
C 	C 	0.99310 0.17955 0.30964 0.34100
C 	C 	0.05480 0.82134 0.14064 -0.00000
C 	C 	0.95424 0.25664 0.88168 -0.06300
C 	C 	0.74780 0.47660 0.40880 -0.04700
C 	C 	0.29940 0.73430 0.74960 0.00300
C 	C 	0.00320 0.31650 0.81700 0.06600
C 	C 	0.96860 0.67110 0.20280 -0.01300
C 	C 	0.68100 0.93210 0.24700 -0.20400
C 	C 	0.84171 0.20136 0.92800 0.34600
C 	C 	0.47660 0.66100 0.40880 -0.04700
C 	C 	0.45166 0.28638 0.49472 -0.00800
C 	C 	0.31654 0.13009 0.30964 0.34500
C 	C 	0.31080 0.71340 0.23680 0.07900
C 	C 	0.90480 0.71080 0.32060 -0.15200
C 	C 	0.98470 0.70060 0.25040 -0.00500
C 	C 	0.72140 0.86830 0.25040 0.05200
C 	C 	0.59240 0.35210 0.25880 0.18300
C 	C 	0.94520 0.17866 0.85936 -0.00600
C 	C 	0.88687 0.70503 0.68480 -0.01100
C 	C 	0.04306 0.20834 0.49472 -0.00800
C 	C 	0.30465 0.25026 0.33940 -0.04700
C 	C 	0.08252 0.72097 0.81488 -0.02900
C 	C 	0.40150 0.06460 0.75240 0.11700
C 	C 	0.76496 0.00405 0.06984 0.36500
C 	C 	0.06631 0.74498 0.78576 0.33400
C 	C 	0.90670 0.59240 0.25880 0.18300
C 	C 	0.28660 0.07400 0.76320 0.08000
C 	C 	0.21366 0.02139 0.38890 -0.07700
C 	C 	0.93369 0.25502 0.21424 0.33600
C 	C 	0.86756 0.65414 0.82000 -0.04400
C 	C 	0.42050 0.68610 0.36460 -0.14600
C 	C 	0.04322 0.10747 0.38710 -0.06200
C 	C 	0.96740 0.69020 0.27140 -0.11600
C 	C 	0.68920 0.28660 0.76320 0.07900
C 	C 	0.05003 0.88422 0.21304 0.35700
C 	C 	0.83878 0.89874 0.18368 0.09000
C 	C 	0.27370 0.81650 0.80760 0.00500
C 	C 	0.95244 0.16586 0.82000 -0.04500
C 	C 	0.09065 0.68036 0.79268 -0.07400
C 	C 	0.77420 0.88760 0.23160 0.09600
C 	C 	0.08060 0.38170 0.80260 -0.12400
C 	C 	0.38531 0.03628 0.18676 -0.06400
C 	C 	0.96616 0.24450 0.84452 0.09800
C 	C 	0.53170 0.96860 0.20280 -0.01200
C 	C 	0.91086 0.69535 0.66060 -0.04700
C 	C 	0.93421 0.23504 0.93016 0.35200
C 	C 	0.35680 0.07960 0.68080 0.13600
C 	C 	0.39880 0.64320 0.31920 0.13400
C 	C 	0.66606 0.94511 0.88988 -0.03900
C 	C 	0.92040 0.67600 0.31920 0.13400
C 	C 	0.72664 0.84171 0.92800 0.34600
C 	C 	0.76025 0.18908 0.86030 -0.08100
C 	C 	0.91783 0.26278 0.14046 -0.01300
C 	C 	0.32655 0.18401 0.33906 -0.03300
C 	C 	0.83699 0.67118 0.78696 0.35400
C 	C 	0.86991 0.00690 0.69036 0.34700
C 	C 	0.12450 0.42480 0.73860 -0.18100
C 	C 	0.23420 0.53170 0.20280 -0.02100
C 	C 	0.97977 0.88687 0.68480 -0.00900
C 	C 	0.71590 0.45920 0.41060 0.02600
C 	C 	0.20136 0.08629 0.92800 0.34600
C 	C 	0.53390 0.99110 0.80760 -0.00200
C 	C 	0.10005 0.67122 0.86030 -0.08100
C 	C 	0.29497 0.20207 0.31520 -0.01000
C 	C 	0.69600 0.41880 0.72860 -0.11800
C 	C 	0.30980 0.69600 0.72860 -0.11800
C 	C 	0.20207 0.02023 0.31520 -0.01200
C 	C 	0.72097 0.73236 0.81488 -0.02900
C 	C 	0.54834 0.71362 0.50528 -0.00800
C 	C 	0.82476 0.63249 0.61110 -0.07600
C 	C 	0.93540 0.64910 0.24760 0.10600
C 	C 	0.83414 0.13244 0.18000 -0.05400
C 	C 	0.38210 0.72140 0.25040 0.05200
C 	C 	0.13170 0.47100 0.74960 0.05400
C 	C 	0.49380 0.65500 0.75860 -0.07700
C 	C 	0.15113 0.37653 0.41206 0.09300
C 	C 	0.57910 0.91940 0.19740 -0.11700
C 	C 	0.26864 0.03942 0.31054 0.35200
C 	C 	0.45920 0.69470 0.41060 0.02600
C 	C 	0.06300 0.37030 0.82580 0.00600
C 	C 	0.16907 0.09047 0.88084 -0.02100
C 	C 	0.67283 0.94113 0.46026 0.07700
C 	C 	0.03260 0.30980 0.72860 -0.13200
C 	C 	0.15829 0.79864 0.07200 0.35300
C 	C 	0.60980 0.90480 0.32060 -0.15200
C 	C 	0.21879 0.09769 0.79518 -0.01400
C 	C 	0.67600 0.39880 0.31920 0.13400
C 	C 	0.68620 0.87550 0.26140 -0.18400
C 	C 	0.65612 0.72037 0.61290 -0.06200
C 	C 	0.62347 0.73907 0.58794 0.09200
C 	C 	0.54980 0.98470 0.25040 -0.00600
C 	C 	0.73430 0.45020 0.74960 0.00300
C 	C 	0.72888 0.73136 0.68946 0.35100
C 	C 	0.26278 0.22263 0.14046 -0.01300
C 	C 	0.93700 0.62970 0.17420 -0.00800
C 	C 	0.80145 0.15048 0.18676 -0.06300
C 	C 	0.28410 0.54080 0.58940 0.02700
C 	C 	0.91748 0.27903 0.18512 -0.03900
C 	C 	0.05887 0.21257 0.53974 0.07900
C 	C 	0.32150 0.57950 0.63540 -0.14600
C 	C 	0.93210 0.56600 0.24700 -0.20400
C 	C 	0.10126 0.65510 0.81632 0.10100
C 	C 	0.24450 0.87836 0.84452 0.10000
C 	C 	0.27336 0.15829 0.07200 0.35300
C 	C 	0.28494 0.83878 0.18368 0.09000
C 	C 	0.03553 0.15113 0.41206 0.09400
C 	C 	0.79166 0.54834 0.50528 -0.00800
C 	C 	0.06460 0.35090 0.75240 0.11800
C 	C 	0.02023 0.11313 0.31520 -0.01200
C 	C 	0.74974 0.96525 0.66060 -0.04800
C 	C 	0.71177 0.79037 0.88084 -0.02300
C 	C 	0.45550 0.06300 0.82580 0.00600
C 	C 	0.72037 0.95678 0.61290 -0.06100
C 	C 	0.33900 0.06780 0.59120 -0.04700
C 	C 	0.09391 0.08252 0.81488 -0.02700
C 	C 	0.12232 0.08217 0.85954 -0.02000
C 	C 	0.34500 0.73520 0.24140 -0.08000
C 	C 	0.83093 0.90953 0.11916 -0.03900
C 	C 	0.82134 0.08584 0.14064 0.00100
C 	C 	0.90953 0.28823 0.11916 -0.03900
C 	C 	0.12164 0.39998 0.15548 0.08800
C 	C 	0.04756 0.83414 0.18000 -0.05300
C 	C 	0.11240 0.54260 0.76840 0.09900
C 	C 	0.84495 0.67345 0.66094 -0.03200
C 	C 	0.25664 0.92744 0.88168 -0.06600
C 	C 	0.00690 0.82045 0.69036 0.34600
C 	C 	0.25502 0.28055 0.21424 0.33600
C 	C 	0.04576 0.74336 0.11832 -0.05900
C 	C 	0.71080 0.41580 0.32060 -0.15200
C 	C 	0.10747 0.34388 0.38710 -0.06100
C 	C 	0.52900 0.38210 0.25040 0.05200
C 	C 	0.67850 0.42050 0.36460 -0.14600
C 	C 	0.71362 0.95694 0.50528 -0.00800
C 	C 	0.30400 0.58120 0.27140 -0.12400
C 	C 	0.17866 0.91416 0.85936 -0.00800
C 	C 	0.67118 0.94997 0.78696 0.35500
C 	C 	0.31220 0.59850 0.24760 0.11100
C 	C 	0.45020 0.01530 0.74960 0.02200
C 	C 	0.86830 0.52900 0.25040 0.05200
C 	C 	0.47660 0.68920 0.76320 0.07900
C 	C 	0.62970 0.23720 0.17420 -0.00200
C 	C 	0.68610 0.94410 0.36460 -0.14600
C 	C 	0.17955 0.31654 0.30964 0.34500
C 	C 	0.31490 0.68100 0.24700 -0.20400
C 	C 	0.79037 0.16907 0.88084 -0.02200
C 	C 	0.22382 0.94477 0.88988 -0.03600
C 	C 	0.09330 0.40760 0.74120 0.18500
C 	C 	0.92744 0.62504 0.88168 -0.06500
C 	C 	0.43400 0.68510 0.75300 -0.20100
C 	C 	0.65500 0.26480 0.75860 -0.07700
C 	C 	0.42090 0.08060 0.80260 -0.12300
C 	C 	0.60002 0.96616 0.84452 0.09800
C 	C 	0.28823 0.20963 0.11916 -0.03900
C 	C 	0.88760 0.45740 0.23160 0.09600
C 	C 	0.68070 0.94520 0.85936 -0.00600
C 	C 	0.88768 0.90935 0.20732 -0.06900
C 	C 	0.68350 0.18620 0.18300 0.05600
C 	C 	0.04078 0.06631 0.78576 0.33400
C 	C 	0.68346 0.86991 0.69036 0.34400
C 	C 	0.57950 0.31390 0.63540 -0.14700
C 	C 	0.20963 0.83093 0.11916 -0.03900
C 	C 	0.58120 0.96740 0.27140 -0.11400
C 	C 	0.09047 0.71177 0.88084 -0.02200
C 	C 	0.08217 0.73722 0.85954 -0.01900
C 	C 	0.36751 0.21366 0.38890 -0.07600
C 	C 	0.94113 0.78743 0.46026 0.07700
C 	C 	0.64320 0.92040 0.31920 0.13400
C 	C 	0.21257 0.48087 0.53974 0.07800
C 	C 	0.99595 0.69512 0.93016 0.34300
C 	C 	0.31930 0.05480 0.14064 -0.00100
C 	C 	0.31390 0.05590 0.63540 -0.14700
C 	C 	0.38590 0.68620 0.26140 -0.18400
C 	C 	0.39020 0.09520 0.67940 -0.15400
C 	C 	0.61410 0.31380 0.73860 -0.18100
C 	C 	0.13244 0.34586 0.18000 -0.05400
C 	C 	0.68510 0.31900 0.75300 -0.20100
C 	C 	0.95678 0.89253 0.61290 -0.06100
C 	C 	0.74498 0.71945 0.78576 0.33400
C 	C 	0.41580 0.60980 0.32060 -0.15200
C 	C 	0.23504 0.99595 0.93016 0.34100
C 	C 	0.90935 0.31964 0.20732 -0.06900
C 	C 	0.95694 0.79166 0.50528 -0.00800
C 	C 	0.91940 0.61830 0.19740 -0.11700
C 	C 	0.08690 0.25180 0.63340 0.03500
C 	C 	0.64790 0.33360 0.74120 0.18400
C 	C 	0.34490 0.28494 0.18368 0.09100
C 	C 	0.49950 0.99680 0.18300 0.05000
C 	C 	0.65510 0.71506 0.81632 0.10000
C 	C 	0.78743 0.51913 0.46026 0.07700
N 	N 	0.63980 0.16899 0.76860 -0.03800
N 	N 	0.63593 0.35720 0.26500 -0.16800
N 	N 	0.72150 0.14052 0.16104 -0.09300
N 	N 	0.55830 0.62390 0.75640 -0.09100
N 	N 	0.14903 0.42953 0.48706 -0.03900
N 	N 	0.56046 0.97948 0.83896 -0.09200
N 	N 	0.16899 0.12880 0.76860 -0.03800
N 	N 	0.68503 0.18214 0.79126 -0.08900
N 	N 	0.65510 0.14340 0.14240 -0.08100
N 	N 	0.87120 0.40039 0.23140 -0.04200
N 	N 	0.35720 0.62907 0.26500 -0.16800
N 	N 	0.42953 0.33803 0.48706 -0.03900
N 	N 	0.60912 0.68503 0.79126 -0.08900
N 	N 	0.34490 0.85660 0.85760 -0.07300
N 	N 	0.85660 0.51270 0.85760 -0.07300
N 	N 	0.43954 0.02052 0.16104 -0.09400
N 	N 	0.89377 0.39088 0.20874 -0.08900
N 	N 	0.62907 0.90780 0.26500 -0.16800
N 	N 	0.42024 0.29363 0.46248 -0.09000
N 	N 	0.85948 0.56046 0.83896 -0.09300
N 	N 	0.14052 0.43954 0.16104 -0.09300
N 	N 	0.10623 0.60912 0.79126 -0.08900
N 	N 	0.88260 0.54850 0.87060 -0.03300
N 	N 	0.18214 0.10623 0.79126 -0.08900
N 	N 	0.17378 0.46758 0.53176 -0.08500
N 	N 	0.53242 0.64202 0.46824 -0.08500
N 	N 	0.94247 0.85097 0.51294 -0.04000
N 	N 	0.33803 0.05753 0.48706 -0.03900
N 	N 	0.02052 0.72150 0.16104 -0.09400
N 	N 	0.12880 0.59961 0.76860 -0.03800
N 	N 	0.90780 0.63593 0.26500 -0.16800
N 	N 	0.82622 0.53242 0.46824 -0.08500
N 	N 	0.16885 0.42024 0.46248 -0.08900
N 	N 	0.48730 0.99900 0.14240 -0.08100
N 	N 	0.67790 0.11740 0.12940 -0.04200
N 	N 	0.44170 0.37610 0.24360 -0.09400
N 	N 	0.46758 0.35798 0.53176 -0.08500
N 	N 	0.81786 0.89377 0.20874 -0.08900
N 	N 	0.99900 0.65510 0.14240 -0.08100
N 	N 	0.62390 0.19810 0.75640 -0.09100
N 	N 	0.98800 0.32210 0.87060 -0.03500
N 	N 	0.35798 0.06418 0.53176 -0.08500
N 	N 	0.83115 0.57976 0.53752 -0.09000
N 	N 	0.32210 0.88260 0.87060 -0.03300
N 	N 	0.01200 0.67790 0.12940 -0.04100
N 	N 	0.37093 0.09220 0.73500 -0.16700
N 	N 	0.57047 0.66197 0.51294 -0.03900
N 	N 	0.86750 0.44170 0.24360 -0.09400
N 	N 	0.51270 0.00100 0.85760 -0.07200
N 	N 	0.95776 0.83115 0.53752 -0.09000
N 	N 	0.83101 0.87120 0.23140 -0.04200
N 	N 	0.00100 0.34490 0.85760 -0.07200
N 	N 	0.13250 0.55830 0.75640 -0.09100
N 	N 	0.06418 0.17378 0.53176 -0.08400
N 	N 	0.64202 0.93582 0.46824 -0.08500
N 	N 	0.40039 0.36020 0.23140 -0.04200
N 	N 	0.80190 0.86750 0.24360 -0.09400
N 	N 	0.27850 0.85948 0.83896 -0.09300
N 	N 	0.31497 0.81786 0.20874 -0.08900
N 	N 	0.36020 0.83101 0.23140 -0.04200
N 	N 	0.09220 0.36407 0.73500 -0.16800
N 	N 	0.04224 0.16885 0.46248 -0.09000
N 	N 	0.37610 0.80190 0.24360 -0.09400
N 	N 	0.39088 0.31497 0.20874 -0.08900
N 	N 	0.70637 0.95776 0.53752 -0.09000
N 	N 	0.85097 0.57047 0.51294 -0.04000
N 	N 	0.59961 0.63980 0.76860 -0.03800
N 	N 	0.19810 0.13250 0.75640 -0.09100
N 	N 	0.64280 0.37093 0.73500 -0.16600
N 	N 	0.54850 0.98800 0.87060 -0.03500
N 	N 	0.36407 0.64280 0.73500 -0.16600
N 	N 	0.66197 0.94247 0.51294 -0.04000
N 	N 	0.97948 0.27850 0.83896 -0.09200
N 	N 	0.05753 0.14903 0.48706 -0.03900
N 	N 	0.29363 0.04224 0.46248 -0.09000
N 	N 	0.45150 0.01200 0.12940 -0.04100
N 	N 	0.93582 0.82622 0.46824 -0.08600
N 	N 	0.11740 0.45150 0.12940 -0.04200
N 	N 	0.14340 0.48730 0.14240 -0.08100
N 	N 	0.57976 0.70637 0.53752 -0.09000
O 	O 	0.25129 0.97369 0.19062 -0.40600
O 	O 	0.10756 0.99685 0.27190 -0.40800
O 	O 	0.31262 0.05104 0.33438 -0.40100
O 	O 	0.13276 0.81897 0.05492 -0.41700
O 	O 	0.07784 0.76405 0.94508 -0.38400
O 	O 	0.99685 0.16434 0.27190 -0.40800
O 	O 	0.93637 0.27459 0.25708 -0.39800
O 	O 	0.83566 0.72495 0.72810 -0.40500
O 	O 	0.72792 0.97839 0.05356 -0.41600
O 	O 	0.81897 0.92216 0.05492 -0.41700
O 	O 	0.20869 0.00404 0.94520 -0.38500
O 	O 	0.75675 0.90440 0.05520 -0.42600
O 	O 	0.64266 0.95186 0.74848 -0.40400
O 	O 	0.88235 0.01937 0.66944 -0.40500
O 	O 	0.23924 0.03344 0.26812 -0.41000
O 	O 	0.32564 0.07517 0.05356 -0.41300
O 	O 	0.90751 0.14851 0.19474 -0.41700
O 	O 	0.78307 0.74871 0.80938 -0.39800
O 	O 	0.04814 0.89418 0.25152 -0.40500
O 	O 	0.73651 0.94116 0.94520 -0.39300
O 	O 	0.90440 0.29845 0.05520 -0.42600
O 	O 	0.28334 0.31262 0.33438 -0.40100
O 	O 	0.95377 0.09249 0.80526 -0.41100
O 	O 	0.94896 0.97824 0.66562 -0.40400
O 	O 	0.92483 0.27208 0.94644 -0.38100
O 	O 	0.67436 0.92483 0.94644 -0.38100
O 	O 	0.34993 0.11765 0.33056 -0.40500
O 	O 	0.05104 0.02176 0.33438 -0.39900
O 	O 	0.26349 0.05884 0.05480 -0.42400
O 	O 	0.99596 0.26349 0.05480 -0.42800
O 	O 	0.09560 0.70155 0.94480 -0.39300
O 	O 	0.76405 0.86724 0.94508 -0.38500
O 	O 	0.92216 0.23595 0.05492 -0.41700
O 	O 	0.79131 0.99596 0.05480 -0.42700
O 	O 	0.97839 0.32564 0.05356 -0.41700
O 	O 	0.35734 0.04814 0.25152 -0.40400
O 	O 	0.20338 0.35734 0.25152 -0.40500
O 	O 	0.72541 0.67929 0.74292 -0.39500
O 	O 	0.00404 0.73651 0.94520 -0.38700
O 	O 	0.89244 0.00315 0.72810 -0.40500
O 	O 	0.24325 0.09560 0.94480 -0.39300
O 	O 	0.02176 0.28334 0.33438 -0.40000
O 	O 	0.21693 0.25129 0.19062 -0.40500
O 	O 	0.71277 0.95377 0.80526 -0.41200
O 	O 	0.05884 0.79131 0.05480 -0.42400
O 	O 	0.01751 0.06363 0.74292 -0.39200
O 	O 	0.28723 0.04623 0.19474 -0.41600
O 	O 	0.29845 0.15080 0.05520 -0.42600
O 	O 	0.97824 0.71666 0.66562 -0.40300
O 	O 	0.11765 0.98063 0.33056 -0.40600
O 	O 	0.21291 0.34993 0.33056 -0.40500
O 	O 	0.02631 0.06067 0.80938 -0.39500
O 	O 	0.23468 0.23924 0.26812 -0.41100
O 	O 	0.94116 0.20869 0.94520 -0.39200
O 	O 	0.96656 0.97112 0.73188 -0.41100
O 	O 	0.68738 0.94896 0.66562 -0.40200
O 	O 	0.95186 0.10582 0.74848 -0.40400
O 	O 	0.15080 0.75675 0.05520 -0.42600
O 	O 	0.18103 0.07784 0.94508 -0.38300
O 	O 	0.97112 0.76532 0.73188 -0.41000
O 	O 	0.98249 0.93637 0.25708 -0.39900
O 	O 	0.76532 0.76076 0.73188 -0.40900
O 	O 	0.70155 0.84920 0.94480 -0.39400
O 	O 	0.27208 0.02161 0.94644 -0.37500
O 	O 	0.84920 0.24325 0.94480 -0.39400
O 	O 	0.67929 0.01751 0.74292 -0.39300
O 	O 	0.78709 0.65007 0.66944 -0.40500
O 	O 	0.89418 0.20338 0.25152 -0.40500
O 	O 	0.97369 0.93933 0.19062 -0.40600
O 	O 	0.06067 0.78307 0.80938 -0.39700
O 	O 	0.71666 0.68738 0.66562 -0.40100
O 	O 	0.02161 0.67436 0.94644 -0.37600
O 	O 	0.14851 0.28723 0.19474 -0.41700
O 	O 	0.76076 0.96656 0.73188 -0.41000
O 	O 	0.72495 0.89244 0.72810 -0.40500
O 	O 	0.93933 0.21693 0.19062 -0.40500
O 	O 	0.32071 0.98249 0.25708 -0.39900
O 	O 	0.01937 0.78709 0.66944 -0.40500
O 	O 	0.02888 0.23468 0.26812 -0.41000
O 	O 	0.74871 0.02631 0.80938 -0.39600
O 	O 	0.00315 0.83566 0.72810 -0.40500
O 	O 	0.07517 0.72792 0.05356 -0.41300
O 	O 	0.27505 0.10756 0.27190 -0.40700
O 	O 	0.85149 0.71277 0.80526 -0.41100
O 	O 	0.98063 0.21291 0.33056 -0.40600
O 	O 	0.16434 0.27505 0.27190 -0.40700
O 	O 	0.10582 0.79662 0.74848 -0.40300
O 	O 	0.27459 0.32071 0.25708 -0.39700
O 	O 	0.09249 0.85149 0.80526 -0.41100
O 	O 	0.23595 0.13276 0.05492 -0.41700
O 	O 	0.65007 0.88235 0.66944 -0.40600
O 	O 	0.86724 0.18103 0.94508 -0.38500
O 	O 	0.04623 0.90751 0.19474 -0.41700
O 	O 	0.79662 0.64266 0.74848 -0.40300
O 	O 	0.06363 0.72541 0.74292 -0.39500
O 	O 	0.03344 0.02888 0.26812 -0.40900
