data_crystal

_cell_length_a 8.82100
_cell_length_b 9.28800
_cell_length_c 18.95500
_cell_angle_alpha 90.00000
_cell_angle_beta  90.00000
_cell_angle_gamma 109.55700

_symmetry_space_group_name_	'P 1'
_symmetry_space_group_name_H-M	'P 1'

loop_
_symmetry_equiv_pos_as_xyz
  x,y,z

loop_
_atom_site_label
_atom_site_type_symbol
_atom_site_fract_x
_atom_site_fract_y
_atom_site_fract_z
_atom_site_charge
Eu	Eu	0.28973 0.51552 0.94679 1.86000
Eu	Eu	0.71027 0.98448 0.44679 1.85200
Eu	Eu	0.28973 0.01552 0.55321 1.85200
Eu	Eu	0.71027 0.48448 0.05321 1.86000
H 	H 	0.29770 0.05860 0.05900 0.03900
H 	H 	0.91390 0.42150 0.78970 0.01300
H 	H 	0.24480 0.66910 0.30770 0.06900
H 	H 	0.70230 0.44140 0.55900 0.04000
H 	H 	0.56160 0.98260 0.18650 0.07200
H 	H 	0.29770 0.55860 0.44100 0.04000
H 	H 	0.08610 0.07850 0.28970 0.01200
H 	H 	0.91390 0.92150 0.71030 0.01200
H 	H 	0.70230 0.94140 0.94100 0.03900
H 	H 	0.75520 0.33090 0.69230 0.06900
H 	H 	0.43840 0.51740 0.68650 0.07200
H 	H 	0.24480 0.16910 0.19230 0.06800
H 	H 	0.43840 0.01740 0.81350 0.07200
H 	H 	0.56160 0.48260 0.31350 0.07200
H 	H 	0.75520 0.83090 0.80770 0.06800
H 	H 	0.08610 0.57850 0.21030 0.01300
C 	C 	0.72410 0.28550 0.73610 -0.08800
C 	C 	0.39440 0.74490 0.54890 0.35600
C 	C 	0.53430 0.09870 0.80890 -0.09200
C 	C 	0.58240 0.16220 0.74270 -0.01400
C 	C 	0.56630 0.07820 0.93810 0.00700
C 	C 	0.11630 0.16050 0.42260 0.47300
C 	C 	0.41760 0.83780 0.25730 -0.01400
C 	C 	0.22840 0.22500 0.36110 -0.17000
C 	C 	0.27590 0.71450 0.26390 -0.08800
C 	C 	0.81810 0.84020 0.70550 0.05300
C 	C 	0.44490 0.11170 0.97420 -0.10900
C 	C 	0.27590 0.21450 0.23610 -0.08600
C 	C 	0.62120 0.46540 0.53560 -0.03100
C 	C 	0.46570 0.40130 0.30890 -0.09000
C 	C 	0.39440 0.24490 0.95110 0.35600
C 	C 	0.55510 0.88830 0.02580 -0.10900
C 	C 	0.51770 0.40050 0.17810 0.29300
C 	C 	0.37350 0.84560 0.13240 0.07500
C 	C 	0.43370 0.92180 0.06190 0.00700
C 	C 	0.62120 0.96540 0.96440 -0.03100
C 	C 	0.18190 0.65980 0.20550 0.05600
C 	C 	0.72410 0.78550 0.76390 -0.08600
C 	C 	0.81810 0.34020 0.79450 0.05600
C 	C 	0.44490 0.61170 0.52580 -0.10900
C 	C 	0.88370 0.33950 0.92260 0.48400
C 	C 	0.60560 0.25510 0.45110 0.35600
C 	C 	0.37880 0.03460 0.03560 -0.03100
C 	C 	0.48230 0.59950 0.82190 0.29300
C 	C 	0.77160 0.77500 0.63890 -0.17000
C 	C 	0.60560 0.75510 0.04890 0.35600
C 	C 	0.37880 0.53460 0.46440 -0.03100
C 	C 	0.62650 0.15440 0.86760 0.07500
C 	C 	0.77160 0.27500 0.86110 -0.17300
C 	C 	0.11630 0.66050 0.07740 0.48400
C 	C 	0.48230 0.09950 0.67810 0.28900
C 	C 	0.22840 0.72500 0.13890 -0.17300
C 	C 	0.62650 0.65440 0.63240 0.07300
C 	C 	0.43370 0.42180 0.43810 0.00600
C 	C 	0.51770 0.90050 0.32190 0.28900
C 	C 	0.56630 0.57820 0.56190 0.00600
C 	C 	0.46570 0.90130 0.19110 -0.09200
C 	C 	0.53430 0.59870 0.69110 -0.09000
C 	C 	0.18190 0.15980 0.29450 0.05300
C 	C 	0.41760 0.33780 0.24270 -0.01700
C 	C 	0.55510 0.38830 0.47420 -0.10900
C 	C 	0.88370 0.83950 0.57740 0.47300
C 	C 	0.58240 0.66220 0.75730 -0.01700
C 	C 	0.37350 0.34560 0.36760 0.07300
O 	O 	0.49430 0.87880 0.53620 -0.54400
O 	O 	0.26090 0.22770 0.92510 -0.38500
O 	O 	0.73910 0.77230 0.07490 -0.38500
O 	O 	0.53720 0.15520 0.61871 -0.42500
O 	O 	0.46280 0.84480 0.38129 -0.42500
O 	O 	0.17500 0.66160 0.01700 -0.53900
O 	O 	0.17500 0.16160 0.48300 -0.53700
O 	O 	0.96890 0.61290 0.09150 -0.53100
O 	O 	0.34810 0.99740 0.68280 -0.38300
O 	O 	0.46280 0.34480 0.11871 -0.42700
O 	O 	0.50570 0.12120 0.46380 -0.54400
O 	O 	0.82500 0.33840 0.98300 -0.53900
O 	O 	0.49430 0.37880 0.96380 -0.54600
O 	O 	0.82500 0.83840 0.51700 -0.53700
O 	O 	0.03110 0.38710 0.90850 -0.53100
O 	O 	0.26090 0.72770 0.57490 -0.38300
O 	O 	0.96890 0.11290 0.40850 -0.52000
O 	O 	0.65190 0.00260 0.31720 -0.38300
O 	O 	0.34810 0.49740 0.81720 -0.38800
O 	O 	0.65190 0.50260 0.18280 -0.38800
O 	O 	0.50570 0.62120 0.03620 -0.54600
O 	O 	0.73910 0.27230 0.42510 -0.38300
O 	O 	0.53720 0.65520 0.88129 -0.42700
O 	O 	0.03110 0.88710 0.59150 -0.52000
