data_crystal

_cell_length_a 13.17230
_cell_length_b 13.17230
_cell_length_c 15.86700
_cell_angle_alpha 92.68370
_cell_angle_beta  92.68370
_cell_angle_gamma 109.09300

_symmetry_space_group_name_	'P 1'
_symmetry_space_group_name_H-M	'P 1'

loop_
_symmetry_equiv_pos_as_xyz
  x,y,z

loop_
_atom_site_label
_atom_site_type_symbol
_atom_site_fract_x
_atom_site_fract_y
_atom_site_fract_z
_atom_site_charge
Zn	Zn	0.56280 0.57242 0.43922 1.21700
Zn	Zn	0.43720 0.42758 0.56078 1.21700
Zn	Zn	0.42758 0.43720 0.06078 1.21700
Zn	Zn	0.57242 0.56280 0.93922 1.21700
H 	H 	0.79450 0.81850 0.08910 0.01900
H 	H 	0.98580 0.74260 0.46240 0.17800
H 	H 	0.19470 0.91050 0.43140 0.17400
H 	H 	0.61730 0.01470 0.66590 0.06000
H 	H 	0.77160 0.74260 0.44280 -0.01700
H 	H 	0.01420 0.25740 0.53760 0.17800
H 	H 	0.44570 0.96630 0.90070 0.06600
H 	H 	0.50010 0.82970 0.85620 0.07000
H 	H 	0.18150 0.20550 0.41090 0.01700
H 	H 	0.90860 0.94920 0.22070 0.09100
H 	H 	0.00580 0.81140 0.13540 0.18000
H 	H 	0.24260 0.00480 0.93760 0.17900
H 	H 	0.33230 0.70090 0.16800 0.02500
H 	H 	0.18860 0.99420 0.36460 0.18300
H 	H 	0.79640 0.10000 0.01130 0.17200
H 	H 	0.85420 0.32000 0.73510 0.05600
H 	H 	0.34620 0.25240 0.83190 0.11400
H 	H 	0.38270 0.98530 0.33410 0.05900
H 	H 	0.96630 0.44570 0.40070 0.06500
H 	H 	0.03370 0.55430 0.59930 0.06500
H 	H 	0.29910 0.66770 0.33200 0.02500
H 	H 	0.94920 0.90860 0.72070 0.09100
H 	H 	0.81850 0.79450 0.58910 0.01700
H 	H 	0.13580 0.39620 0.91820 0.02500
H 	H 	0.20360 0.90000 0.98870 0.17200
H 	H 	0.70090 0.33230 0.66800 0.02500
H 	H 	0.90000 0.20360 0.48870 0.17300
H 	H 	0.12050 0.43870 0.47120 0.01600
H 	H 	0.66770 0.29910 0.83200 0.02500
H 	H 	0.49990 0.17030 0.14380 0.07000
H 	H 	0.74260 0.77160 0.94280 -0.01800
H 	H 	0.48210 0.67810 0.77110 0.03200
H 	H 	0.82970 0.50010 0.35620 0.06900
H 	H 	0.43870 0.12050 0.97120 0.01500
H 	H 	0.75740 0.99520 0.06240 0.17900
H 	H 	0.36130 0.45070 0.23950 -0.01400
H 	H 	0.22840 0.25740 0.55720 -0.01800
H 	H 	0.32000 0.85420 0.23510 0.05600
H 	H 	0.80530 0.08950 0.56860 0.17300
H 	H 	0.13930 0.11770 0.14370 0.09600
H 	H 	0.87540 0.10540 0.85560 0.16900
H 	H 	0.51790 0.32190 0.22890 0.03200
H 	H 	0.74260 0.98580 0.96240 0.17400
H 	H 	0.74760 0.65380 0.66810 0.11500
H 	H 	0.54930 0.63870 0.26050 -0.01400
H 	H 	0.88230 0.86070 0.35630 0.09600
H 	H 	0.68000 0.14580 0.76490 0.05600
H 	H 	0.10000 0.79640 0.51130 0.17300
H 	H 	0.05080 0.09140 0.27930 0.09100
H 	H 	0.32190 0.51790 0.72890 0.03300
H 	H 	0.17030 0.49990 0.64380 0.06900
H 	H 	0.08950 0.80530 0.06860 0.17000
H 	H 	0.99420 0.18860 0.86460 0.18000
H 	H 	0.63870 0.54930 0.76050 -0.01400
H 	H 	0.87950 0.56130 0.52880 0.01600
H 	H 	0.65380 0.74760 0.16810 0.11400
H 	H 	0.67810 0.48210 0.27110 0.03300
H 	H 	0.09140 0.05080 0.77930 0.09100
H 	H 	0.99520 0.75740 0.56240 0.18200
H 	H 	0.14580 0.68000 0.26490 0.05600
H 	H 	0.55430 0.03370 0.09930 0.06600
H 	H 	0.25740 0.22840 0.05720 -0.01800
H 	H 	0.45070 0.36130 0.73950 -0.01400
H 	H 	0.20550 0.18150 0.91090 0.01800
H 	H 	0.12460 0.89460 0.14440 0.16900
H 	H 	0.01470 0.61730 0.16590 0.05700
H 	H 	0.98530 0.38270 0.83410 0.05700
H 	H 	0.39620 0.13580 0.41820 0.02400
H 	H 	0.11770 0.13930 0.64370 0.09600
H 	H 	0.91050 0.19470 0.93140 0.17000
H 	H 	0.60380 0.86420 0.58180 0.02400
H 	H 	0.89460 0.12460 0.64440 0.17100
H 	H 	0.00480 0.24260 0.43760 0.18200
H 	H 	0.86420 0.60380 0.08180 0.02500
H 	H 	0.86070 0.88230 0.85630 0.09600
H 	H 	0.10540 0.87540 0.35560 0.17100
H 	H 	0.56130 0.87950 0.02880 0.01500
H 	H 	0.81140 0.00580 0.63540 0.18300
H 	H 	0.25240 0.34620 0.33190 0.11500
H 	H 	0.25740 0.01420 0.03760 0.17400
C 	C 	0.24840 0.32080 0.27510 -0.22000
C 	C 	0.12610 0.48490 0.42710 0.04500
C 	C 	0.41110 0.05350 0.31250 -0.11400
C 	C 	0.45960 0.24500 0.33300 -0.12700
C 	C 	0.07030 0.05850 0.94340 -0.11200
C 	C 	0.77440 0.45380 0.59470 -0.13100
C 	C 	0.51010 0.96630 0.11480 -0.12000
C 	C 	0.25390 0.25350 0.61280 0.11300
C 	C 	0.16300 0.48100 0.70010 -0.11200
C 	C 	0.14000 0.62780 0.30450 -0.11400
C 	C 	0.05850 0.07030 0.44340 -0.11400
C 	C 	0.58890 0.94650 0.68750 -0.11400
C 	C 	0.96980 0.07080 0.94910 0.08700
C 	C 	0.23150 0.62110 0.34500 0.04300
C 	C 	0.18320 0.18700 0.16460 -0.20500
C 	C 	0.85680 0.58120 0.13720 0.04200
C 	C 	0.06020 0.44420 0.73010 0.03800
C 	C 	0.17750 0.22270 0.24830 0.17800
C 	C 	0.34190 0.47050 0.89040 0.39900
C 	C 	0.54620 0.22560 0.90530 -0.13200
C 	C 	0.51510 0.87390 0.07290 0.04700
C 	C 	0.14700 0.11020 0.80510 -0.19700
C 	C 	0.06570 0.85330 0.10470 -0.51500
C 	C 	0.32080 0.24840 0.77510 -0.21900
C 	C 	0.48100 0.16300 0.20010 -0.11300
C 	C 	0.45380 0.77440 0.09470 -0.13200
C 	C 	0.61740 0.68580 0.28080 0.13800
C 	C 	0.98870 0.10110 0.49360 0.09400
C 	C 	0.46900 0.67420 0.05660 0.38800
C 	C 	0.02420 0.78900 0.51110 -0.51500
C 	C 	0.74610 0.74650 0.38720 0.11300
C 	C 	0.01130 0.89890 0.50640 0.09400
C 	C 	0.52950 0.65810 0.60960 0.39900
C 	C 	0.92920 0.03020 0.55090 0.09400
C 	C 	0.24500 0.45960 0.83300 -0.12600
C 	C 	0.05350 0.41110 0.81250 -0.11000
C 	C 	0.55870 0.03810 0.82060 0.03800
C 	C 	0.94650 0.58890 0.18750 -0.11000
C 	C 	0.25350 0.25390 0.11280 0.11300
C 	C 	0.92970 0.94150 0.05660 -0.11200
C 	C 	0.51900 0.83700 0.79990 -0.11300
C 	C 	0.41880 0.14320 0.36280 0.04400
C 	C 	0.78900 0.02420 0.01110 -0.51000
C 	C 	0.03810 0.55870 0.32060 0.03700
C 	C 	0.85170 0.87650 0.11480 0.05500
C 	C 	0.14830 0.12350 0.88520 0.05500
C 	C 	0.67920 0.75160 0.22490 -0.21900
C 	C 	0.94150 0.92970 0.55660 -0.11400
C 	C 	0.93980 0.55580 0.26990 0.03800
C 	C 	0.67420 0.46900 0.55660 0.38800
C 	C 	0.38260 0.31420 0.71920 0.13800
C 	C 	0.50960 0.74640 0.74950 0.04700
C 	C 	0.77730 0.82250 0.25170 0.17800
C 	C 	0.76850 0.37890 0.65500 0.04300
C 	C 	0.03020 0.92920 0.05090 0.08700
C 	C 	0.53100 0.32580 0.94340 0.38800
C 	C 	0.81680 0.81300 0.83540 -0.20500
C 	C 	0.12350 0.14830 0.38520 0.05600
C 	C 	0.07080 0.96980 0.44910 0.09400
C 	C 	0.74640 0.50960 0.24950 0.04500
C 	C 	0.83700 0.51900 0.29990 -0.11200
C 	C 	0.62110 0.23150 0.84500 0.04400
C 	C 	0.22270 0.17750 0.74830 0.17800
C 	C 	0.55580 0.93980 0.76990 0.03900
C 	C 	0.22560 0.54620 0.40530 -0.13100
C 	C 	0.10110 0.98870 0.99360 0.09900
C 	C 	0.37220 0.86000 0.19550 -0.11400
C 	C 	0.37890 0.76850 0.15500 0.04400
C 	C 	0.82250 0.77730 0.75170 0.17800
C 	C 	0.31420 0.38260 0.21920 0.13800
C 	C 	0.75500 0.54040 0.16700 -0.12600
C 	C 	0.65810 0.52950 0.10960 0.39900
C 	C 	0.81300 0.81680 0.33540 -0.20500
C 	C 	0.85300 0.88980 0.19490 -0.19700
C 	C 	0.32580 0.53100 0.44340 0.38800
C 	C 	0.14670 0.93430 0.39530 -0.52100
C 	C 	0.47050 0.34190 0.39040 0.39900
C 	C 	0.25360 0.49040 0.75050 0.04500
C 	C 	0.96630 0.51010 0.61480 -0.11800
C 	C 	0.75160 0.67920 0.72490 -0.22000
C 	C 	0.87650 0.85170 0.61480 0.05600
C 	C 	0.48990 0.03370 0.88520 -0.12000
C 	C 	0.49040 0.25360 0.25050 0.04700
C 	C 	0.58120 0.85680 0.63720 0.04400
C 	C 	0.86000 0.37220 0.69550 -0.11400
C 	C 	0.14320 0.41880 0.86280 0.04200
C 	C 	0.48490 0.12610 0.92710 0.04700
C 	C 	0.44130 0.96190 0.17940 0.03800
C 	C 	0.97580 0.21100 0.48890 -0.51500
C 	C 	0.18700 0.18320 0.66460 -0.20500
C 	C 	0.93430 0.14670 0.89530 -0.51500
C 	C 	0.89890 0.01130 0.00640 0.09900
C 	C 	0.03370 0.48990 0.38520 -0.11800
C 	C 	0.21100 0.97580 0.98890 -0.51000
C 	C 	0.87390 0.51510 0.57290 0.04500
C 	C 	0.96190 0.44130 0.67940 0.03700
C 	C 	0.88980 0.85300 0.69490 -0.19800
C 	C 	0.62780 0.14000 0.80450 -0.11400
C 	C 	0.74650 0.74610 0.88720 0.11300
C 	C 	0.85330 0.06570 0.60470 -0.52100
C 	C 	0.44420 0.06020 0.23010 0.03900
C 	C 	0.68580 0.61740 0.78080 0.13800
C 	C 	0.54040 0.75500 0.66700 -0.12700
C 	C 	0.11020 0.14700 0.30510 -0.19800
N 	N 	0.68400 0.64680 0.86080 -0.26900
N 	N 	0.35320 0.31600 0.63920 -0.26900
N 	N 	0.64680 0.68400 0.36080 -0.26900
N 	N 	0.31600 0.35320 0.13920 -0.26900
O 	O 	0.42025 0.58715 0.08840 -0.46300
O 	O 	0.57975 0.41285 0.91160 -0.46300
O 	O 	0.43310 0.52230 0.86620 -0.46500
O 	O 	0.67447 0.57353 0.04128 -0.47400
O 	O 	0.57353 0.67447 0.54128 -0.47500
O 	O 	0.47770 0.56690 0.63380 -0.46500
O 	O 	0.41285 0.57975 0.41160 -0.46300
O 	O 	0.31574 0.46926 0.50280 -0.46400
O 	O 	0.58715 0.42025 0.58840 -0.46300
O 	O 	0.42647 0.32553 0.45872 -0.47500
O 	O 	0.46926 0.31574 0.00280 -0.46400
O 	O 	0.52230 0.43310 0.36620 -0.46500
O 	O 	0.32553 0.42647 0.95872 -0.47400
O 	O 	0.56690 0.47770 0.13380 -0.46500
O 	O 	0.68426 0.53074 0.49720 -0.46400
O 	O 	0.53074 0.68426 0.99720 -0.46400
