data_crystal

_cell_length_a 15.42720
_cell_length_b 32.58910
_cell_length_c 32.58910
_cell_angle_alpha 107.08000
_cell_angle_beta  99.92680
_cell_angle_gamma 80.07320

_symmetry_space_group_name_	'P 1'
_symmetry_space_group_name_H-M	'P 1'

loop_
_symmetry_equiv_pos_as_xyz
  x,y,z

loop_
_atom_site_label
_atom_site_type_symbol
_atom_site_fract_x
_atom_site_fract_y
_atom_site_fract_z
_atom_site_charge
Cu	Cu	0.20380 0.94613 0.29977 0.73000
Cu	Cu	0.32000 0.95714 0.37010 0.73100
Cu	Cu	0.37592 0.95397 0.29445 0.72700
Cu	Cu	0.27776 0.88250 0.93404 0.72000
Cu	Cu	0.62408 0.04603 0.70555 0.72700
Cu	Cu	0.72224 0.11750 0.06596 0.72000
Cu	Cu	0.29620 0.29977 0.94613 0.72900
Cu	Cu	0.37911 0.50171 0.78365 0.71400
Cu	Cu	0.87911 0.21635 0.49829 0.71400
Cu	Cu	0.66729 0.51691 0.14897 0.73100
Cu	Cu	0.79620 0.05387 0.70023 0.72900
Cu	Cu	0.17070 0.85638 0.86236 0.70700
Cu	Cu	0.31010 0.35040 0.38840 0.69400
Cu	Cu	0.82000 0.62990 0.04286 0.73000
Cu	Cu	0.19553 0.30165 0.33453 0.71800
Cu	Cu	0.66296 0.11955 0.69821 0.73100
Cu	Cu	0.12408 0.29445 0.95397 0.72700
Cu	Cu	0.14770 0.77536 0.42148 0.72600
Cu	Cu	0.78397 0.51236 0.22442 0.72600
Cu	Cu	0.87592 0.70555 0.04603 0.72700
Cu	Cu	0.18000 0.37010 0.95714 0.73000
Cu	Cu	0.16729 0.85103 0.48309 0.73100
Cu	Cu	0.68990 0.64960 0.61160 0.69400
Cu	Cu	0.18990 0.38840 0.35040 0.69400
Cu	Cu	0.22224 0.93404 0.88250 0.72000
Cu	Cu	0.62089 0.49829 0.21635 0.71400
Cu	Cu	0.83271 0.14897 0.51691 0.73100
Cu	Cu	0.12089 0.78365 0.50171 0.71400
Cu	Cu	0.33704 0.88045 0.30179 0.73100
Cu	Cu	0.64770 0.57852 0.22464 0.72600
Cu	Cu	0.69553 0.66547 0.69835 0.71800
Cu	Cu	0.35230 0.42148 0.77536 0.72600
Cu	Cu	0.80447 0.69835 0.66547 0.71800
Cu	Cu	0.77776 0.06596 0.11750 0.72000
Cu	Cu	0.71603 0.22442 0.51236 0.72600
Cu	Cu	0.16296 0.30179 0.88045 0.73100
Cu	Cu	0.85230 0.22464 0.57852 0.72600
Cu	Cu	0.70380 0.70023 0.05387 0.72900
Cu	Cu	0.28397 0.77558 0.48764 0.72600
Cu	Cu	0.32930 0.86236 0.85638 0.70700
Cu	Cu	0.30447 0.33453 0.30165 0.71800
Cu	Cu	0.83704 0.69821 0.11955 0.73100
Cu	Cu	0.82930 0.14362 0.13764 0.70700
Cu	Cu	0.68000 0.04286 0.62990 0.73000
Cu	Cu	0.81010 0.61160 0.64960 0.69400
Cu	Cu	0.33271 0.48309 0.85103 0.73100
Cu	Cu	0.21603 0.48764 0.77558 0.72600
Cu	Cu	0.67070 0.13764 0.14362 0.70700
H 	H 	0.97700 0.10220 0.44200 0.03900
H 	H 	0.58690 0.39260 0.52180 0.06000
H 	H 	0.94570 0.75330 0.64850 -0.00700
H 	H 	0.31390 0.79580 0.32560 0.00400
H 	H 	0.82890 0.62270 0.31650 0.05100
H 	H 	0.46360 0.84770 0.54690 0.05000
H 	H 	0.57360 0.97680 0.32120 0.01400
H 	H 	0.91220 0.37510 0.13970 0.07200
H 	H 	0.57220 0.72970 0.41450 0.06100
H 	H 	0.96920 0.18150 0.22410 0.02600
H 	H 	0.95420 0.99520 0.34180 0.06300
H 	H 	0.43620 0.22210 0.23650 0.03100
H 	H 	0.30170 0.78930 0.17210 0.06200
H 	H 	0.35850 0.33890 0.80590 0.00300
H 	H 	0.67110 0.31650 0.62270 0.05100
H 	H 	0.76980 0.05270 0.46170 0.01800
H 	H 	0.47030 0.99450 0.57650 0.06600
H 	H 	0.54580 0.34180 0.99520 0.06300
H 	H 	0.49150 0.40740 0.65480 0.06600
H 	H 	0.15340 0.87680 0.13020 0.07400
H 	H 	0.93510 0.98550 0.74290 0.02600
H 	H 	0.82250 0.98660 0.48580 0.03700
H 	H 	0.94520 0.43470 0.23770 0.02100
H 	H 	0.91170 0.99860 0.22260 0.03400
H 	H 	0.96360 0.45310 0.15230 0.05000
H 	H 	0.17110 0.37730 0.68350 0.05100
H 	H 	0.33550 0.21050 0.70390 0.05800
H 	H 	0.04600 0.37400 0.04240 0.04100
H 	H 	0.52300 0.44200 0.10220 0.03900
H 	H 	0.54290 0.87760 0.06460 0.06100
H 	H 	0.05900 0.22790 0.72390 0.03500
H 	H 	0.61680 0.73490 0.31530 0.03000
H 	H 	0.88430 0.49980 0.11320 0.06500
H 	H 	0.80170 0.82790 0.21070 0.06200
H 	H 	0.62580 0.08370 0.55550 -0.00100
H 	H 	0.80950 0.58380 0.39520 0.07300
H 	H 	0.59790 0.73350 0.55450 0.02800
H 	H 	0.60900 0.65820 0.31100 0.02700
H 	H 	0.52670 0.56240 0.83100 -0.01200
H 	H 	0.52760 0.72270 0.09350 -0.01500
H 	H 	0.12360 0.25310 0.15050 0.05800
H 	H 	0.15420 0.63460 0.96820 0.06200
H 	H 	0.77110 0.97540 0.22900 0.05900
H 	H 	0.84820 0.20770 0.94310 0.06000
H 	H 	0.69730 0.67790 0.50890 0.05200
H 	H 	0.53080 0.22410 0.18150 0.02600
H 	H 	0.08830 0.00140 0.77740 0.03400
H 	H 	0.41660 0.67680 0.80220 0.05400
H 	H 	0.32160 0.94650 0.74710 0.05600
H 	H 	0.88520 0.77040 0.98500 0.02400
H 	H 	0.04580 0.00480 0.65820 0.06300
H 	H 	0.56700 0.19920 0.76900 0.01800
H 	H 	0.55170 0.51350 0.94190 0.06600
H 	H 	0.15580 0.14570 0.26310 0.02500
H 	H 	0.63420 0.52710 0.72070 0.04600
H 	H 	0.30270 0.32210 0.49110 0.05200
H 	H 	0.72770 0.73320 0.79300 0.02000
H 	H 	0.01490 0.75840 0.94260 0.03200
H 	H 	0.34660 0.13020 0.87680 0.07400
H 	H 	0.05170 0.05810 0.48650 0.06600
H 	H 	0.91310 0.52180 0.39260 0.06000
H 	H 	0.33860 0.65910 0.84990 0.07900
H 	H 	0.60700 0.78320 0.15000 0.05900
H 	H 	0.14150 0.80590 0.33890 0.00300
H 	H 	0.44830 0.48650 0.05810 0.06600
H 	H 	0.07460 0.13650 0.76750 0.05700
H 	H 	0.93300 0.76900 0.19920 0.01800
H 	H 	0.98620 0.29080 0.50120 0.02000
H 	H 	0.53640 0.15230 0.45310 0.05000
H 	H 	0.38180 0.60420 0.26400 0.06600
H 	H 	0.56490 0.74290 0.98550 0.02600
H 	H 	0.66450 0.78950 0.29610 0.05800
H 	H 	0.46360 0.87030 0.19150 0.05700
H 	H 	0.68640 0.28330 0.07930 0.07600
H 	H 	0.82900 0.68930 0.86530 0.06200
H 	H 	0.32590 0.01350 0.88930 0.03900
H 	H 	0.84400 0.61860 0.79760 0.07300
H 	H 	0.11680 0.68470 0.26510 0.03000
H 	H 	0.05550 0.91360 0.43500 0.00100
H 	H 	0.02760 0.90650 0.27730 -0.01500
H 	H 	0.55450 0.26940 0.55800 -0.01700
H 	H 	0.27230 0.26680 0.20700 0.02000
H 	H 	0.03080 0.81850 0.77590 0.02600
H 	H 	0.41170 0.77740 0.00140 0.03400
H 	H 	0.08690 0.47820 0.60740 0.06000
H 	H 	0.86580 0.72070 0.52710 0.04600
H 	H 	0.47330 0.43760 0.16900 -0.01200
H 	H 	0.68410 0.55220 0.86260 0.06000
H 	H 	0.31590 0.44780 0.13740 0.06000
H 	H 	0.46920 0.77590 0.81850 0.02600
H 	H 	0.80070 0.37760 0.70760 0.06500
H 	H 	0.52580 0.64290 0.53230 0.00100
H 	H 	0.26980 0.53830 0.94730 0.01800
H 	H 	0.52970 0.00550 0.42350 0.06600
H 	H 	0.35860 0.33200 0.11720 0.07100
H 	H 	0.31900 0.52940 0.34840 0.07000
H 	H 	0.15600 0.38140 0.20240 0.07300
H 	H 	0.61570 0.11320 0.49980 0.06500
H 	H 	0.22770 0.20700 0.26680 0.02000
H 	H 	0.42540 0.76750 0.13650 0.05700
H 	H 	0.07360 0.67880 0.02320 0.01400
H 	H 	0.12270 0.68500 0.84300 0.06600
H 	H 	0.47490 0.38380 0.95100 0.06600
H 	H 	0.00850 0.65480 0.40740 0.06600
H 	H 	0.55480 0.23770 0.43470 0.02100
H 	H 	0.34820 0.05690 0.79230 0.06000
H 	H 	0.03640 0.54690 0.84770 0.05000
H 	H 	0.18410 0.13740 0.44780 0.06000
H 	H 	0.68610 0.20420 0.67440 0.00400
H 	H 	0.03640 0.19150 0.87030 0.05700
H 	H 	0.67840 0.05350 0.25290 0.05600
H 	H 	0.69930 0.70760 0.37760 0.06500
H 	H 	0.82260 0.54140 0.95980 0.01500
H 	H 	0.20690 0.95070 0.60750 0.06300
H 	H 	0.17100 0.31070 0.13470 0.06200
H 	H 	0.30950 0.60480 0.41620 0.07300
H 	H 	0.77260 0.57180 0.53620 0.02800
H 	H 	0.10970 0.23980 0.66420 0.06200
H 	H 	0.17840 0.74710 0.94650 0.05600
H 	H 	0.44450 0.43500 0.91360 0.00100
H 	H 	0.28280 0.41070 0.24150 0.04400
H 	H 	0.39030 0.66420 0.23980 0.06200
H 	H 	0.84580 0.36540 0.03180 0.06200
H 	H 	0.66140 0.34090 0.15010 0.07900
H 	H 	0.23940 0.09080 0.90760 0.02200
H 	H 	0.51490 0.05740 0.24160 0.03200
H 	H 	0.37770 0.87790 0.77290 -0.01300
H 	H 	0.93770 0.98590 0.12250 -0.03000
H 	H 	0.42640 0.02320 0.67880 0.01400
H 	H 	0.10390 0.82830 0.27850 0.05700
H 	H 	0.93530 0.92940 0.64880 0.07300
H 	H 	0.65600 0.79760 0.61860 0.07300
H 	H 	0.61820 0.39580 0.73600 0.06600
H 	H 	0.58340 0.32320 0.19780 0.05400
H 	H 	0.41220 0.86030 0.62490 0.07100
H 	H 	0.61220 0.59520 0.40720 0.06900
H 	H 	0.19050 0.41620 0.60480 0.07300
H 	H 	0.44550 0.73060 0.44200 -0.01700
H 	H 	0.38320 0.26510 0.68470 0.03000
H 	H 	0.95710 0.06460 0.87760 0.06100
H 	H 	0.16450 0.70390 0.21050 0.05800
H 	H 	0.02300 0.89780 0.55800 0.03900
H 	H 	0.61480 0.98500 0.77040 0.02400
H 	H 	0.84420 0.85430 0.73690 0.02500
H 	H 	0.51380 0.50120 0.29080 0.02000
H 	H 	0.15590 0.72750 0.14970 0.07300
H 	H 	0.37640 0.15050 0.25310 0.05800
H 	H 	0.34400 0.20240 0.38140 0.07300
H 	H 	0.92780 0.41450 0.72970 0.06100
H 	H 	0.56470 0.64880 0.92940 0.07300
H 	H 	0.81390 0.67440 0.20420 0.00400
H 	H 	0.88320 0.31530 0.73490 0.03000
H 	H 	0.92540 0.86350 0.23250 0.05700
H 	H 	0.84660 0.12320 0.86980 0.07400
H 	H 	0.81900 0.65160 0.47060 0.07000
H 	H 	0.11820 0.26400 0.60420 0.06600
H 	H 	0.65180 0.94310 0.20770 0.06000
H 	H 	0.83860 0.15010 0.34090 0.07900
H 	H 	0.13420 0.27930 0.47290 0.04600
H 	H 	0.23020 0.94730 0.53830 0.01800
H 	H 	0.37730 0.84300 0.68500 0.06600
H 	H 	0.67410 0.98650 0.11070 0.03900
H 	H 	0.72740 0.53620 0.57180 0.02800
H 	H 	0.47240 0.27730 0.90650 -0.01500
H 	H 	0.12580 0.44450 0.91630 -0.00100
H 	H 	0.71720 0.58930 0.75850 0.04400
H 	H 	0.15180 0.79230 0.05690 0.06000
H 	H 	0.06700 0.23100 0.80080 0.01800
H 	H 	0.48620 0.49880 0.70920 0.02000
H 	H 	0.09790 0.44550 0.26650 0.02800
H 	H 	0.18100 0.34840 0.52940 0.07000
H 	H 	0.85940 0.86420 0.11940 0.07300
H 	H 	0.88180 0.73600 0.39580 0.06600
H 	H 	0.29310 0.60750 0.95070 0.06300
H 	H 	0.41310 0.60740 0.47820 0.06000
H 	H 	0.45710 0.12240 0.93540 0.06100
H 	H 	0.43300 0.80080 0.23100 0.01800
H 	H 	0.15880 0.35680 0.74340 0.06400
H 	H 	0.39610 0.27850 0.82830 0.05700
H 	H 	0.89100 0.31100 0.65820 0.02700
H 	H 	0.85850 0.19410 0.66110 0.00300
H 	H 	0.34420 0.26310 0.14570 0.02500
H 	H 	0.64140 0.66800 0.88280 0.07100
H 	H 	0.79310 0.04930 0.39250 0.06300
H 	H 	0.10900 0.68900 0.34180 0.02700
H 	H 	0.31360 0.71670 0.92070 0.07600
H 	H 	0.62270 0.15700 0.31500 0.06600
H 	H 	0.30070 0.29240 0.62240 0.06500
H 	H 	0.67750 0.48580 0.98660 0.03700
H 	H 	0.72890 0.22900 0.97540 0.05900
H 	H 	0.88310 0.46970 0.96850 0.04300
H 	H 	0.43510 0.25710 0.01450 0.02600
H 	H 	0.73940 0.09240 0.90920 0.02200
H 	H 	0.14140 0.11720 0.33200 0.07100
H 	H 	0.14060 0.13580 0.88060 0.07300
H 	H 	0.47700 0.55800 0.89780 0.03900
H 	H 	0.97030 0.42350 0.00550 0.06600
H 	H 	0.68100 0.47060 0.65160 0.07000
H 	H 	0.55430 0.64850 0.75330 -0.00600
H 	H 	0.78280 0.75850 0.58930 0.04400
H 	H 	0.18610 0.32560 0.79580 0.00400
H 	H 	0.87770 0.22710 0.12210 -0.01300
H 	H 	0.92640 0.32120 0.97680 0.01400
H 	H 	0.42780 0.27030 0.58550 0.06100
H 	H 	0.05450 0.44200 0.73060 -0.01700
H 	H 	0.04290 0.93540 0.12240 0.06100
H 	H 	0.12230 0.77290 0.87790 -0.01300
H 	H 	0.02670 0.16900 0.43760 -0.01200
H 	H 	0.76060 0.90920 0.09240 0.02200
H 	H 	0.19730 0.49110 0.32210 0.05200
H 	H 	0.02510 0.95100 0.38380 0.06600
H 	H 	0.17410 0.88930 0.01350 0.03900
H 	H 	0.19830 0.17210 0.78930 0.06200
H 	H 	0.67740 0.95980 0.54140 0.01500
H 	H 	0.67100 0.86530 0.68930 0.06100
H 	H 	0.94550 0.55800 0.26940 -0.01700
H 	H 	0.34580 0.96820 0.63460 0.06200
H 	H 	0.69830 0.21070 0.82790 0.06200
H 	H 	0.82590 0.11070 0.98650 0.03900
H 	H 	0.01380 0.70920 0.49880 0.02000
H 	H 	0.95400 0.62600 0.95760 0.04100
H 	H 	0.97240 0.09350 0.72270 -0.01500
H 	H 	0.94830 0.94190 0.51350 0.06600
H 	H 	0.85860 0.88280 0.66800 0.07100
H 	H 	0.61690 0.96850 0.46970 0.04300
H 	H 	0.02970 0.57650 0.99450 0.06600
H 	H 	0.65340 0.86980 0.12320 0.07400
H 	H 	0.06230 0.01410 0.87750 -0.03000
H 	H 	0.69050 0.39520 0.58380 0.07300
H 	H 	0.17740 0.45860 0.04020 0.01500
H 	H 	0.56380 0.77790 0.76350 0.03100
H 	H 	0.89030 0.76020 0.33580 0.06200
H 	H 	0.48510 0.94260 0.75840 0.03200
H 	H 	0.98510 0.24160 0.05740 0.03200
H 	H 	0.17750 0.01340 0.51420 0.03700
H 	H 	0.11690 0.53030 0.03150 0.04300
H 	H 	0.38430 0.88680 0.50020 0.06500
H 	H 	0.40210 0.26650 0.44550 0.02800
H 	H 	0.27110 0.77100 0.02460 0.05900
H 	H 	0.06490 0.01450 0.25710 0.02600
H 	H 	0.18640 0.92070 0.71670 0.07600
H 	H 	0.83550 0.29610 0.78950 0.05800
H 	H 	0.11480 0.22960 0.01500 0.02400
H 	H 	0.64150 0.66110 0.19410 0.00300
H 	H 	0.26060 0.90760 0.09080 0.02200
H 	H 	0.87420 0.55550 0.08370 -0.00100
H 	H 	0.99150 0.34520 0.59260 0.06600
H 	H 	0.58830 0.22260 0.99860 0.03400
H 	H 	0.11220 0.59280 0.40480 0.06900
H 	H 	0.44100 0.72390 0.22790 0.03500
H 	H 	0.89610 0.17170 0.72150 0.05700
H 	H 	0.34410 0.14970 0.72750 0.07300
H 	H 	0.91660 0.19780 0.32320 0.05400
H 	H 	0.43770 0.87750 0.01410 -0.03000
H 	H 	0.84410 0.27250 0.85030 0.07300
H 	H 	0.47420 0.35710 0.46770 0.00100
H 	H 	0.19930 0.62240 0.29240 0.06500
H 	H 	0.87730 0.31500 0.15700 0.06600
H 	H 	0.57460 0.23250 0.86350 0.05700
H 	H 	0.08780 0.62490 0.86030 0.07200
H 	H 	0.77230 0.79300 0.73320 0.02000
H 	H 	0.60390 0.72150 0.17170 0.05700
H 	H 	0.81360 0.07930 0.28330 0.07600
H 	H 	0.32260 0.04020 0.45860 0.01500
H 	H 	0.65590 0.85030 0.27250 0.07300
H 	H 	0.50850 0.59260 0.34520 0.06600
H 	H 	0.97330 0.83100 0.56240 -0.01200
H 	H 	0.87640 0.74690 0.84950 0.05800
H 	H 	0.81430 0.57750 0.89870 0.07000
H 	H 	0.07220 0.58550 0.27030 0.06100
H 	H 	0.34120 0.74340 0.35680 0.06400
H 	H 	0.52510 0.61620 0.04900 0.06600
H 	H 	0.45400 0.04240 0.37400 0.04100
H 	H 	0.81590 0.86260 0.55220 0.06000
H 	H 	0.38780 0.40480 0.59280 0.06900
H 	H 	0.06470 0.07060 0.35120 0.07300
H 	H 	0.31430 0.10130 0.42250 0.07000
H 	H 	0.10700 0.85000 0.21680 0.05900
H 	H 	0.90210 0.55450 0.73350 0.02800
H 	H 	0.02580 0.46770 0.35710 0.00100
H 	H 	0.37420 0.91630 0.44450 -0.00100
H 	H 	0.05480 0.56530 0.76230 0.02100
H 	H 	0.32900 0.13470 0.31070 0.06100
H 	H 	0.45420 0.65820 0.00480 0.06300
H 	H 	0.62360 0.84950 0.74690 0.05800
H 	H 	0.93620 0.76350 0.77790 0.03100
H 	H 	0.39300 0.21680 0.85000 0.05900
H 	H 	0.55900 0.27610 0.77210 0.03500
H 	H 	0.89300 0.15000 0.78320 0.05900
H 	H 	0.06380 0.23650 0.22210 0.03100
H 	H 	0.27260 0.46380 0.42820 0.02800
H 	H 	0.60970 0.33580 0.76020 0.06200
H 	H 	0.22890 0.02460 0.77100 0.05900
H 	H 	0.16140 0.84990 0.65910 0.07900
H 	H 	0.65580 0.73690 0.85430 0.02500
H 	H 	0.36580 0.47290 0.27930 0.04600
H 	H 	0.65420 0.03180 0.36540 0.06200
H 	H 	0.32250 0.51420 0.01340 0.03700
H 	H 	0.96360 0.80850 0.12970 0.05700
H 	H 	0.65880 0.25660 0.64320 0.06400
H 	H 	0.55550 0.56500 0.08640 0.00100
H 	H 	0.94450 0.08640 0.56500 0.00100
H 	H 	0.54600 0.95760 0.62600 0.04100
H 	H 	0.38310 0.03150 0.53030 0.04300
H 	H 	0.44520 0.76230 0.56530 0.02100
H 	H 	0.39100 0.34180 0.68900 0.02700
H 	H 	0.05430 0.24670 0.35150 -0.00700
H 	H 	0.84120 0.64320 0.25660 0.06400
H 	H 	0.97490 0.04900 0.61620 0.06600
H 	H 	0.73020 0.46170 0.05270 0.01800
H 	H 	0.64060 0.11940 0.86420 0.07300
H 	H 	0.88780 0.40720 0.59520 0.06900
H 	H 	0.35940 0.88060 0.13580 0.07300
H 	H 	0.11570 0.50020 0.88680 0.06500
H 	H 	0.56230 0.12250 0.98590 -0.03000
H 	H 	0.62230 0.12210 0.22710 -0.01300
H 	H 	0.22740 0.42820 0.46380 0.02800
H 	H 	0.43530 0.35120 0.07060 0.07300
H 	H 	0.08340 0.80220 0.67680 0.05400
H 	H 	0.38520 0.01500 0.22960 0.02400
H 	H 	0.97420 0.53230 0.64290 0.00100
H 	H 	0.80270 0.50890 0.67790 0.05200
H 	H 	0.58780 0.13970 0.37510 0.07100
H 	H 	0.82160 0.25290 0.05350 0.05600
H 	H 	0.18570 0.42250 0.10130 0.07000
H 	H 	0.44570 0.35150 0.24670 -0.00600
H 	H 	0.68570 0.89870 0.57750 0.07000
H 	H 	0.53640 0.12970 0.80850 0.05700
H 	H 	0.94100 0.77210 0.27610 0.03500
H 	H 	0.32890 0.68350 0.37730 0.05100
H 	H 	0.21720 0.24150 0.41070 0.04400
H 	H 	0.70690 0.39250 0.04930 0.06300
C 	C 	0.13130 0.45740 0.94660 0.08200
C 	C 	0.62910 0.39720 0.58560 -0.08500
C 	C 	0.34360 0.96200 0.69480 0.09100
C 	C 	0.88880 0.68820 0.86100 -0.06600
C 	C 	0.48070 0.10240 0.41080 0.07800
C 	C 	0.42840 0.94200 0.53220 0.11300
C 	C 	0.36600 0.33050 0.77610 0.08200
C 	C 	0.98260 0.83410 0.12770 -0.07600
C 	C 	0.14760 0.74820 0.17660 -0.09900
C 	C 	0.87290 0.71710 0.36750 -0.09100
C 	C 	0.05370 0.89240 0.65120 0.10900
C 	C 	0.88030 0.29040 0.71080 0.01200
C 	C 	0.84150 0.53540 0.98700 0.02600
C 	C 	0.20200 0.71830 0.94690 -0.07100
C 	C 	0.30060 0.29930 0.59610 -0.08400
C 	C 	0.36870 0.77230 0.12070 -0.06600
C 	C 	0.57960 0.66610 0.87570 -0.06300
C 	C 	0.46700 0.45680 0.04520 -0.08600
C 	C 	0.18270 0.20730 0.28350 -0.02700
C 	C 	0.28920 0.11760 0.79180 0.08700
C 	C 	0.77760 0.94520 0.22560 -0.06800
C 	C 	0.35520 0.28150 0.17410 0.02100
C 	C 	0.54710 0.23840 0.98180 0.01100
C 	C 	0.68450 0.56990 0.80830 0.08300
C 	C 	0.93810 0.75090 0.98730 -0.00700
C 	C 	0.96770 0.44710 0.12230 -0.05800
C 	C 	0.37640 0.29360 0.53540 0.08600
C 	C 	0.36870 0.94660 0.45740 0.08300
C 	C 	0.72240 0.22560 0.94520 -0.06800
C 	C 	0.15870 0.39940 0.14700 0.09500
C 	C 	0.48670 0.20220 0.22780 0.00800
C 	C 	0.11120 0.31180 0.13900 -0.06600
C 	C 	0.76990 0.05150 0.36430 -0.07000
C 	C 	0.15640 0.69480 0.96200 0.09100
C 	C 	0.54610 0.38800 0.05200 0.08000
C 	C 	0.81730 0.79270 0.71650 -0.02700
C 	C 	0.51270 0.51560 0.73600 0.01400
C 	C 	0.98920 0.62780 0.40440 -0.07600
C 	C 	0.91520 0.22220 0.14700 0.08800
C 	C 	0.31180 0.51360 0.94900 0.01900
C 	C 	0.34280 0.67980 0.34900 -0.07000
C 	C 	0.29800 0.94690 0.71830 -0.07100
C 	C 	0.52240 0.60150 0.44850 0.09500
C 	C 	0.01070 0.74420 0.96360 0.00500
C 	C 	0.96700 0.95480 0.54320 -0.08500
C 	C 	0.84070 0.01440 0.49900 0.00100
C 	C 	0.63230 0.29010 0.70390 0.09200
C 	C 	0.18450 0.19170 0.43010 0.08300
C 	C 	0.90070 0.14360 0.33980 -0.09700
C 	C 	0.53530 0.54970 0.80150 0.09800
C 	C 	0.27090 0.57970 0.32230 0.10000
C 	C 	0.73070 0.45920 0.66840 -0.08600
C 	C 	0.63220 0.74970 0.23630 0.07500
C 	C 	0.34070 0.50100 0.98560 0.00100
C 	C 	0.98070 0.58920 0.89760 0.07800
C 	C 	0.21080 0.79180 0.11760 0.08700
C 	C 	0.07850 0.52490 0.90090 -0.10500
C 	C 	0.96520 0.19580 0.20220 0.00400
C 	C 	0.31730 0.28350 0.20730 -0.02700
C 	C 	0.59350 0.54250 0.06990 0.07900
C 	C 	0.71690 0.29970 0.06810 -0.08000
C 	C 	0.15720 0.34900 0.67980 -0.07000
C 	C 	0.91480 0.75150 0.25210 0.00600
C 	C 	0.37870 0.66840 0.26860 -0.07100
C 	C 	0.86130 0.92500 0.23400 0.08400
C 	C 	0.98730 0.73600 0.51560 0.01400
C 	C 	0.51930 0.89760 0.58920 0.07800
C 	C 	0.46580 0.34560 0.09680 -0.08800
C 	C 	0.97410 0.09090 0.87650 -0.07600
C 	C 	0.97150 0.42990 0.03590 -0.10500
C 	C 	0.18870 0.39540 0.18960 -0.08800
C 	C 	0.79370 0.58100 0.87060 -0.07800
C 	C 	0.65720 0.32020 0.65100 -0.07000
C 	C 	0.90440 0.74170 0.53070 -0.00200
C 	C 	0.61970 0.71080 0.29040 0.01200
C 	C 	0.03300 0.04520 0.45680 -0.08500
C 	C 	0.05780 0.09470 0.87930 0.09200
C 	C 	0.73530 0.58830 0.78770 -0.05600
C 	C 	0.46450 0.73400 0.47200 0.10400
C 	C 	0.28310 0.70030 0.93190 -0.08000
C 	C 	0.55200 0.55980 0.99880 0.08900
C 	C 	0.55070 0.59710 0.40910 -0.07100
C 	C 	0.03530 0.19850 0.45030 0.09800
C 	C 	0.20400 0.14160 0.78500 -0.06900
C 	C 	0.39930 0.59850 0.37490 0.09800
C 	C 	0.13220 0.76370 0.25030 0.07500
C 	C 	0.58940 0.67020 0.77020 0.10800
C 	C 	0.48330 0.05780 0.40080 -0.05800
C 	C 	0.23530 0.21230 0.41170 -0.05600
C 	C 	0.54350 0.99123 0.30037 0.04300
C 	C 	0.80060 0.40390 0.70070 -0.08400
C 	C 	0.37360 0.00880 0.50460 -0.01300
C 	C 	0.87360 0.49540 0.99120 -0.01300
C 	C 	0.06360 0.68470 0.84750 -0.06700
C 	C 	0.07660 0.47610 0.37690 0.05600
C 	C 	0.86870 0.87930 0.22770 -0.06600
C 	C 	0.86620 0.21020 0.82240 0.10000
C 	C 	0.04350 0.69963 0.00877 0.04300
C 	C 	0.56190 0.98730 0.75090 -0.00700
C 	C 	0.46520 0.79780 0.80420 0.00500
C 	C 	0.94220 0.90530 0.12070 0.09200
C 	C 	0.23070 0.33160 0.54080 -0.08600
C 	C 	0.01740 0.16590 0.87230 -0.07600
C 	C 	0.94700 0.17150 0.32850 -0.05300
C 	C 	0.70400 0.21500 0.85840 -0.06900
C 	C 	0.91060 0.77020 0.67020 0.10800
C 	C 	0.73010 0.36430 0.05150 -0.07000
C 	C 	0.71080 0.88240 0.20820 0.08700
C 	C 	0.34960 0.21210 0.73390 -0.05500
C 	C 	0.48920 0.59560 0.37220 -0.07600
C 	C 	0.61120 0.86100 0.68820 -0.06600
C 	C 	0.01930 0.41080 0.10240 0.07800
C 	C 	0.03230 0.55290 0.87770 -0.05800
C 	C 	0.38880 0.13900 0.31180 -0.06600
C 	C 	0.12710 0.28290 0.63250 -0.09100
C 	C 	0.15040 0.73390 0.21210 -0.05500
C 	C 	0.48930 0.96360 0.74420 0.00600
C 	C 	0.64460 0.36240 0.67800 0.09000
C 	C 	0.65930 0.49900 0.01440 0.00100
C 	C 	0.47410 0.12350 0.90910 -0.07600
C 	C 	0.11600 0.80730 0.25210 -0.07300
C 	C 	0.68820 0.48640 0.05100 0.01900
C 	C 	0.72910 0.42030 0.67770 0.10000
C 	C 	0.36620 0.17760 0.78980 0.10000
C 	C 	0.99860 0.27990 0.15670 0.09100
C 	C 	0.98930 0.25580 0.03640 0.00500
C 	C 	0.01270 0.26400 0.48440 0.01400
C 	C 	0.96580 0.90320 0.65440 -0.08800
C 	C 	0.04610 0.94800 0.61200 0.08000
C 	C 	0.68270 0.71650 0.79270 -0.02700
C 	C 	0.41060 0.32980 0.22980 0.10800
C 	C 	0.13870 0.07500 0.76600 0.08400
C 	C 	0.09350 0.93010 0.45750 0.07900
C 	C 	0.57160 0.05800 0.46780 0.11300
C 	C 	0.88070 0.97700 0.11860 0.15800
C 	C 	0.80340 0.48180 0.68340 -0.06100
C 	C 	0.51740 0.12770 0.83410 -0.07500
C 	C 	0.64480 0.71850 0.82590 0.02100
C 	C 	0.28400 0.89660 0.06400 0.03800
C 	C 	0.18870 0.65210 0.96070 -0.07000
C 	C 	0.15930 0.98560 0.50100 0.00100
C 	C 	0.14460 0.32200 0.63760 0.09000
C 	C 	0.51670 0.94220 0.59920 -0.05800
C 	C 	0.81130 0.60460 0.81040 -0.08800
C 	C 	0.55780 0.12070 0.90530 0.09200
C 	C 	0.01330 0.22780 0.20220 0.00800
C 	C 	0.67850 0.34300 0.06700 0.09700
C 	C 	0.08480 0.77780 0.85300 0.08800
C 	C 	0.67210 0.57170 0.48270 0.05000
C 	C 	0.85540 0.67800 0.36240 0.09000
C 	C 	0.36770 0.70990 0.29610 0.09200
C 	C 	0.93640 0.31530 0.15250 -0.06700
C 	C 	0.53830 0.74290 0.00970 -0.00400
C 	C 	0.56750 0.39560 0.54880 -0.06900
C 	C 	0.13230 0.29610 0.70990 0.09200
C 	C 	0.51080 0.40440 0.62780 -0.07600
C 	C 	0.19660 0.51820 0.31660 -0.06100
C 	C 	0.22910 0.32230 0.57970 0.09900
C 	C 	0.44630 0.65120 0.89240 0.10900
C 	C 	0.87870 0.73140 0.33160 -0.07100
C 	C 	0.19940 0.59610 0.29930 -0.08400
C 	C 	0.11930 0.02300 0.88140 0.15800
C 	C 	0.08280 0.27820 0.14900 -0.07500
C 	C 	0.06750 0.45120 0.60440 -0.06800
C 	C 	0.92040 0.87570 0.66610 -0.06300
C 	C 	0.92830 0.16450 0.86930 0.10100
C 	C 	0.53300 0.54320 0.95480 -0.08600
C 	C 	0.69940 0.70070 0.40390 -0.08400
C 	C 	0.96390 0.83920 0.67480 0.07600
C 	C 	0.96470 0.80150 0.54970 0.09800
C 	C 	0.40930 0.79030 0.25050 0.00600
C 	C 	0.78400 0.93600 0.10340 0.03800
C 	C 	0.13400 0.77610 0.33050 0.08200
C 	C 	0.86770 0.70390 0.29010 0.09200
C 	C 	0.46170 0.25710 0.99030 -0.00400
C 	C 	0.90720 0.12640 0.87160 -0.08500
C 	C 	0.98620 0.07160 0.43060 -0.06800
C 	C 	0.02850 0.57010 0.96410 -0.10500
C 	C 	0.61730 0.66860 0.28780 -0.00400
C 	C 	0.34150 0.01300 0.46460 0.02600
C 	C 	0.63130 0.22770 0.87930 -0.06600
C 	C 	0.26470 0.41170 0.21230 -0.05600
C 	C 	0.52590 0.87650 0.09090 -0.07600
C 	C 	0.56360 0.15250 0.31530 -0.06700
C 	C 	0.98670 0.77220 0.79780 0.00800
C 	C 	0.44700 0.67150 0.82850 -0.05300
C 	C 	0.54630 0.86460 0.65180 0.08800
C 	C 	0.37290 0.63250 0.28290 -0.09000
C 	C 	0.47300 0.62840 0.99220 -0.07700
C 	C 	0.92150 0.47510 0.09910 -0.10500
C 	C 	0.45370 0.13540 0.34820 0.08800
C 	C 	0.58480 0.14700 0.22220 0.08800
C 	C 	0.51070 0.03640 0.25580 0.00600
C 	C 	0.63130 0.05340 0.54260 0.08300
C 	C 	0.51710 0.60430 0.01850 -0.08100
C 	C 	0.03550 0.47200 0.73400 0.10300
C 	C 	0.88270 0.28780 0.66860 -0.00400
C 	C 	0.53230 0.12230 0.44710 -0.05700
C 	C 	0.12640 0.50460 0.00880 -0.01300
C 	C 	0.98290 0.01850 0.60430 -0.08100
C 	C 	0.43640 0.84750 0.68470 -0.06700
C 	C 	0.38030 0.28920 0.70960 0.01200
C 	C 	0.02700 0.99220 0.62840 -0.07700
C 	C 	0.44220 0.87930 0.09470 0.09200
C 	C 	0.21690 0.93190 0.70030 -0.08000
C 	C 	0.79600 0.85840 0.21500 -0.06900
C 	C 	0.36130 0.76600 0.07500 0.08500
C 	C 	0.68870 0.03930 0.34790 -0.07000
C 	C 	0.91720 0.72180 0.85100 -0.07500
C 	C 	0.09930 0.85640 0.66020 -0.09700
C 	C 	0.89930 0.62510 0.40150 0.09800
C 	C 	0.01670 0.40080 0.05780 -0.05800
C 	C 	0.34130 0.14700 0.39940 0.09500
C 	C 	0.45290 0.76160 0.01820 0.01100
C 	C 	0.84590 0.69860 0.21240 0.09500
C 	C 	0.96170 0.00970 0.74290 -0.00400
C 	C 	0.09070 0.25050 0.79030 0.00600
C 	C 	0.65640 0.03800 0.30520 0.09100
C 	C 	0.42830 0.13070 0.83550 0.10100
C 	C 	0.81130 0.34790 0.03930 -0.07000
C 	C 	0.71600 0.10340 0.93600 0.03800
C 	C 	0.92840 0.46780 0.05800 0.11300
C 	C 	0.65410 0.21240 0.69860 0.09500
C 	C 	0.57970 0.12230 0.86750 -0.07500
C 	C 	0.15850 0.46460 0.01300 0.02600
C 	C 	0.84960 0.26610 0.78790 -0.05500
C 	C 	0.70630 0.87060 0.58100 -0.07800
C 	C 	0.94630 0.10760 0.34880 0.10900
C 	C 	0.41520 0.85300 0.77780 0.08800
C 	C 	0.57170 0.86930 0.16450 0.10100
C 	C 	0.29270 0.07350 0.78670 -0.07200
C 	C 	0.65040 0.78790 0.26610 -0.05500
C 	C 	0.38260 0.21550 0.82010 -0.09300
C 	C 	0.51750 0.73170 0.06770 0.09600
C 	C 	0.01080 0.37220 0.59560 -0.07600
C 	C 	0.87090 0.58560 0.39720 -0.08500
C 	C 	0.46560 0.75100 0.53780 0.01800
C 	C 	0.59560 0.53070 0.74170 -0.00200
C 	C 	0.12130 0.26860 0.66840 -0.07100
C 	C 	0.59280 0.87160 0.12640 -0.08500
C 	C 	0.05300 0.82850 0.67150 -0.05300
C 	C 	0.87640 0.46460 0.70640 0.08600
C 	C 	0.90930 0.74950 0.20970 0.00600
C 	C 	0.31550 0.43010 0.19170 0.08300
C 	C 	0.47150 0.96410 0.57010 -0.10500
C 	C 	0.04470 0.64890 0.85790 -0.06900
C 	C 	0.63380 0.82240 0.21020 0.10000
C 	C 	0.61600 0.74790 0.19270 -0.07300
C 	C 	0.04630 0.34820 0.13540 0.08800
C 	C 	0.42340 0.37690 0.47610 0.05600
C 	C 	0.81550 0.80830 0.56990 0.08300
C 	C 	0.53440 0.24900 0.46220 0.01800
C 	C 	0.34920 0.71530 0.33730 -0.08300
C 	C 	0.86780 0.23630 0.74970 0.07500
C 	C 	0.38400 0.25210 0.80730 -0.07300
C 	C 	0.52850 0.03590 0.42990 -0.10500
C 	C 	0.21600 0.06400 0.89660 0.03800
C 	C 	0.55300 0.32850 0.17150 -0.05300
C 	C 	0.45530 0.85790 0.64890 -0.06800
C 	C 	0.43250 0.60440 0.45120 -0.06900
C 	C 	0.05070 0.59090 0.40290 -0.07100
C 	C 	0.27760 0.77440 0.05480 -0.06800
C 	C 	0.35240 0.17660 0.74820 -0.09900
C 	C 	0.69660 0.68340 0.48180 -0.06100
C 	C 	0.12360 0.53540 0.29360 0.08600
C 	C 	0.07170 0.83550 0.13070 0.10100
C 	C 	0.41720 0.14900 0.27820 -0.07500
C 	C 	0.40720 0.12840 0.87360 -0.08500
C 	C 	0.07970 0.13250 0.87770 -0.07500
C 	C 	0.68870 0.81040 0.60460 -0.08800
C 	C 	0.60070 0.40150 0.62510 0.09800
C 	C 	0.96450 0.52800 0.26600 0.10300
C 	C 	0.97760 0.44850 0.60150 0.09500
C 	C 	0.11730 0.71220 0.33140 -0.00400
C 	C 	0.49860 0.84330 0.72010 0.09100
C 	C 	0.50140 0.15670 0.27990 0.09100
C 	C 	0.65850 0.98700 0.53540 0.02600
C 	C 	0.11970 0.70960 0.28920 0.01200
C 	C 	0.12370 0.57340 0.28540 -0.07100
C 	C 	0.53550 0.26600 0.52800 0.10400
C 	C 	0.62360 0.70640 0.46460 0.08600
C 	C 	0.53480 0.20220 0.19580 0.00500
C 	C 	0.78920 0.20820 0.88240 0.08700
C 	C 	0.62710 0.36750 0.71710 -0.09000
C 	C 	0.51330 0.79780 0.77220 0.00800
C 	C 	0.84360 0.30520 0.03800 0.09100
C 	C 	0.95390 0.05200 0.38800 0.08000
C 	C 	0.76400 0.11030 0.97770 -0.03800
C 	C 	0.03480 0.80420 0.79780 0.00400
C 	C 	0.94930 0.40910 0.59710 -0.07100
C 	C 	0.52700 0.37160 0.00780 -0.07700
C 	C 	0.11740 0.82010 0.21550 -0.09300
C 	C 	0.48250 0.26830 0.93230 0.09600
C 	C 	0.38270 0.33140 0.71220 -0.00400
C 	C 	0.40650 0.45750 0.93010 0.07900
C 	C 	0.59930 0.33980 0.14360 -0.09700
C 	C 	0.15080 0.33730 0.71530 -0.08300
C 	C 	0.81180 0.05100 0.48640 0.01900
C 	C 	0.54470 0.14210 0.35110 -0.06800
C 	C 	0.41480 0.74790 0.24850 0.00600
C 	C 	0.17850 0.93300 0.65700 0.09700
C 	C 	0.79800 0.28170 0.05310 -0.07100
C 	C 	0.84130 0.60060 0.85300 0.09500
C 	C 	0.62370 0.71460 0.42660 -0.07100
C 	C 	0.18820 0.94900 0.51360 0.01900
C 	C 	0.31130 0.18960 0.39540 -0.08800
C 	C 	0.64760 0.82340 0.25180 -0.09900
C 	C 	0.95290 0.98180 0.23840 0.01100
C 	C 	0.37630 0.28540 0.57340 -0.07100
C 	C 	0.04710 0.01820 0.76160 0.01100
C 	C 	0.32150 0.65700 0.93300 0.09700
C 	C 	0.78310 0.06810 0.29970 -0.08000
C 	C 	0.29370 0.12940 0.41900 -0.07800
C 	C 	0.20630 0.41900 0.12940 -0.07800
C 	C 	0.08940 0.22980 0.32980 0.10800
C 	C 	0.43810 0.01270 0.24910 -0.00700
C 	C 	0.42040 0.33390 0.12430 -0.06300
C 	C 	0.05200 0.00120 0.44020 0.08900
C 	C 	0.53420 0.65440 0.90320 -0.08800
C 	C 	0.85240 0.25180 0.82340 -0.09900
C 	C 	0.23010 0.94850 0.63570 -0.07000
C 	C 	0.48260 0.87230 0.16590 -0.07500
C 	C 	0.42150 0.90090 0.52490 -0.10500
C 	C 	0.70730 0.92650 0.21330 -0.07200
C 	C 	0.26990 0.63570 0.94850 -0.07000
C 	C 	0.71630 0.56580 0.84920 -0.06300
C 	C 	0.01750 0.93230 0.26830 0.09600
C 	C 	0.95090 0.53260 0.73540 -0.00600
C 	C 	0.47760 0.39850 0.55150 0.09500
C 	C 	0.13380 0.78980 0.17760 0.10000
C 	C 	0.45650 0.00877 0.69963 0.04300
C 	C 	0.04910 0.46740 0.26460 -0.00600
C 	C 	0.95370 0.65180 0.86460 0.08800
C 	C 	0.44800 0.44020 0.00120 0.08900
C 	C 	0.21480 0.47410 0.41670 -0.03800
C 	C 	0.82150 0.06700 0.34300 0.09700
C 	C 	0.45390 0.61200 0.94800 0.08000
C 	C 	0.35540 0.63760 0.32200 0.09000
C 	C 	0.71480 0.58330 0.52590 -0.03800
C 	C 	0.46470 0.45030 0.19850 0.09800
C 	C 	0.07160 0.53220 0.94200 0.11300
C 	C 	0.87630 0.42660 0.71460 -0.07100
C 	C 	0.63870 0.23400 0.92500 0.08500
C 	C 	0.90650 0.06990 0.54250 0.07900
C 	C 	0.78370 0.84920 0.56580 -0.06300
C 	C 	0.31130 0.96070 0.65210 -0.07000
C 	C 	0.54910 0.73540 0.53260 -0.00600
C 	C 	0.26400 0.02230 0.88970 -0.03800
C 	C 	0.08520 0.24850 0.74790 0.00600
C 	C 	0.36780 0.25030 0.76370 0.07500
C 	C 	0.55370 0.34880 0.10760 0.10900
C 	C 	0.26930 0.54080 0.33160 -0.08600
C 	C 	0.88400 0.19270 0.74790 -0.07300
C 	C 	0.01380 0.92840 0.56940 -0.06800
C 	C 	0.86870 0.54260 0.05340 0.08200
C 	C 	0.48290 0.39570 0.98150 -0.08100
C 	C 	0.86600 0.22390 0.66950 0.08200
C 	C 	0.14480 0.17410 0.28150 0.02100
C 	C 	0.95530 0.35110 0.14210 -0.06900
C 	C 	0.51380 0.43060 0.07160 -0.06800
C 	C 	0.84920 0.66270 0.28470 -0.08300
C 	C 	0.46770 0.87770 0.55290 -0.05700
C 	C 	0.12910 0.41440 0.60280 -0.08500
C 	C 	0.09560 0.25830 0.46930 -0.00200
C 	C 	0.15410 0.30140 0.78760 0.09500
C 	C 	0.13130 0.12070 0.77230 -0.06600
C 	C 	0.17210 0.51730 0.42830 0.05000
C 	C 	0.58280 0.85100 0.72180 -0.07500
C 	C 	0.93250 0.54880 0.39560 -0.06800
C 	C 	0.03610 0.16080 0.32520 0.07600
C 	C 	0.92030 0.86750 0.12230 -0.07500
C 	C 	0.34590 0.78760 0.30140 0.09500
C 	C 	0.77090 0.67770 0.42030 0.09900
C 	C 	0.38070 0.88140 0.02300 0.15800
C 	C 	0.82790 0.48270 0.57170 0.05000
C 	C 	0.84280 0.65100 0.32020 -0.07000
C 	C 	0.70200 0.05310 0.28170 -0.07100
C 	C 	0.59070 0.20970 0.74950 0.00600
C 	C 	0.53610 0.67480 0.83920 0.07600
C 	C 	0.21630 0.15080 0.43420 -0.06300
C 	C 	0.61740 0.78450 0.17990 -0.09300
C 	C 	0.48620 0.56940 0.92840 -0.06800
C 	C 	0.03440 0.53780 0.75100 0.01700
C 	C 	0.88260 0.17990 0.78450 -0.09300
C 	C 	0.02590 0.90910 0.12350 -0.07600
C 	C 	0.48730 0.48440 0.26400 0.01400
C 	C 	0.46390 0.32520 0.16080 0.07600
C 	C 	0.22240 0.05480 0.77440 -0.06800
C 	C 	0.96560 0.46220 0.24900 0.01700
C 	C 	0.65870 0.85300 0.60060 0.09500
C 	C 	0.28370 0.43420 0.15080 -0.06300
C 	C 	0.45090 0.26460 0.46740 -0.00600
C 	C 	0.10070 0.37490 0.59850 0.09800
C 	C 	0.29600 0.78500 0.14160 -0.06900
C 	C 	0.03420 0.09680 0.34560 -0.08800
C 	C 	0.42030 0.87770 0.13250 -0.07500
C 	C 	0.44930 0.40290 0.59090 -0.07100
C 	C 	0.40440 0.46930 0.25830 -0.00200
C 	C 	0.62130 0.33160 0.73140 -0.07100
C 	C 	0.23600 0.88970 0.02230 -0.03800
C 	C 	0.37090 0.60280 0.41440 -0.08500
C 	C 	0.07960 0.12430 0.33390 -0.06300
C 	C 	0.58520 0.25210 0.75150 0.00600
C 	C 	0.79270 0.21330 0.92650 -0.07200
C 	C 	0.09280 0.87360 0.12840 -0.08500
C 	C 	0.28520 0.41670 0.47410 -0.03800
C 	C 	0.03830 0.99030 0.25710 -0.00400
C 	C 	0.97300 0.00780 0.37160 -0.07700
C 	C 	0.73600 0.97770 0.11030 -0.03800
C 	C 	0.95650 0.30037 0.99123 0.04300
C 	C 	0.57850 0.09910 0.47510 -0.10500
C 	C 	0.20730 0.78670 0.07350 -0.07200
C 	C 	0.30340 0.31660 0.51820 -0.06100
C 	C 	0.65080 0.28470 0.66270 -0.08300
C 	C 	0.02240 0.55150 0.39850 0.09500
C 	C 	0.76470 0.78770 0.58830 -0.05600
C 	C 	0.98330 0.59920 0.94220 -0.05800
C 	C 	0.61930 0.11860 0.97700 0.15800
C 	C 	0.85520 0.82590 0.71850 0.02100
C 	C 	0.92340 0.52390 0.62310 0.05600
C 	C 	0.01710 0.98150 0.39570 -0.08100
C 	C 	0.78520 0.52590 0.58330 -0.03800
C 	C 	0.00140 0.72010 0.84330 0.09100
C 	C 	0.32790 0.42830 0.51730 0.05000
C 	C 	0.63400 0.66950 0.22390 0.08200
C 	C 	0.94800 0.99880 0.55980 0.08900
C 	C 	0.98250 0.06770 0.73170 0.09600
C 	C 	0.57660 0.62310 0.52390 0.05600
C 	C 	0.40070 0.66020 0.85640 -0.09700
C 	C 	0.76930 0.66840 0.45920 -0.08600
C 	C 	0.62640 0.99120 0.49540 -0.01300
C 	C 	0.06190 0.24910 0.01270 -0.00700
I 	I 	0.32017 0.80044 0.89180 -0.57400
I 	I 	0.51637 0.08601 0.65119 -0.57200
I 	I 	0.28441 0.90461 0.22827 -0.59800
I 	I 	0.17983 0.89180 0.80044 -0.57400
I 	I 	0.48363 0.91399 0.34881 -0.57200
I 	I 	0.71559 0.09539 0.77173 -0.59800
I 	I 	0.78441 0.77173 0.09539 -0.59800
I 	I 	0.20572 0.42960 0.81780 -0.57000
I 	I 	0.89396 0.08262 0.07280 -0.58000
I 	I 	0.30944 0.45339 0.70741 -0.59600
I 	I 	0.60604 0.07280 0.08262 -0.58000
I 	I 	0.63400 0.59211 0.65965 -0.50900
I 	I 	0.01637 0.34881 0.91399 -0.57200
I 	I 	0.79314 0.10360 0.64828 -0.58700
I 	I 	0.98363 0.65119 0.08601 -0.57200
I 	I 	0.13400 0.34035 0.40789 -0.50900
I 	I 	0.23008 0.83368 0.55814 -0.60900
I 	I 	0.23977 0.33695 0.02219 -0.59700
I 	I 	0.20686 0.89640 0.35172 -0.58700
I 	I 	0.12310 0.34669 0.27589 -0.60400
I 	I 	0.00466 0.82900 0.44678 -0.55900
I 	I 	0.37690 0.27589 0.34669 -0.60300
I 	I 	0.26992 0.55814 0.83368 -0.60900
I 	I 	0.50466 0.55322 0.17100 -0.55900
I 	I 	0.62310 0.72411 0.65331 -0.60300
I 	I 	0.80944 0.29259 0.54661 -0.59600
I 	I 	0.29428 0.81780 0.42960 -0.57000
I 	I 	0.39396 0.92720 0.91738 -0.58000
I 	I 	0.76992 0.16632 0.44186 -0.60900
I 	I 	0.49534 0.44678 0.82900 -0.55900
I 	I 	0.76023 0.66305 0.97781 -0.59700
I 	I 	0.73977 0.97781 0.66305 -0.59700
I 	I 	0.21559 0.22827 0.90461 -0.59800
I 	I 	0.99534 0.17100 0.55322 -0.55900
I 	I 	0.69056 0.54661 0.29259 -0.59600
I 	I 	0.86600 0.65965 0.59211 -0.50900
I 	I 	0.29314 0.35172 0.89640 -0.58700
I 	I 	0.70572 0.18220 0.57040 -0.57000
I 	I 	0.73008 0.44186 0.16632 -0.60900
I 	I 	0.87690 0.65331 0.72411 -0.60400
I 	I 	0.70686 0.64828 0.10360 -0.58700
I 	I 	0.26023 0.02219 0.33695 -0.59700
I 	I 	0.79428 0.57040 0.18220 -0.57000
I 	I 	0.82017 0.10820 0.19956 -0.57400
I 	I 	0.36600 0.40789 0.34035 -0.50900
I 	I 	0.10604 0.91738 0.92720 -0.58000
I 	I 	0.19056 0.70741 0.45339 -0.59600
I 	I 	0.67983 0.19956 0.10820 -0.57400
N 	N 	0.85010 0.08480 0.51340 -0.22600
N 	N 	0.30630 0.88340 0.99700 -0.23700
N 	N 	0.34420 0.38500 0.44860 -0.23200
N 	N 	0.52480 0.16840 0.24480 -0.14000
N 	N 	0.65580 0.61500 0.55140 -0.23200
N 	N 	0.45840 0.98470 0.27670 -0.22000
N 	N 	0.04160 0.27670 0.98470 -0.22000
N 	N 	0.43900 0.75310 0.05470 -0.13800
N 	N 	0.91250 0.18970 0.16510 -0.22900
N 	N 	0.87140 0.24640 0.64280 -0.23000
N 	N 	0.63420 0.18420 0.71640 -0.23200
N 	N 	0.15250 0.33700 0.60120 -0.15700
N 	N 	0.91360 0.49900 0.25060 -0.23600
N 	N 	0.69370 0.11660 0.00300 -0.23700
N 	N 	0.37270 0.28910 0.75050 -0.13000
N 	N 	0.91330 0.48140 0.59640 -0.13500
N 	N 	0.41250 0.83490 0.81030 -0.22900
N 	N 	0.89020 0.49940 0.03560 -0.13500
N 	N 	0.08670 0.51860 0.40360 -0.13500
N 	N 	0.57750 0.72450 0.04230 -0.23600
N 	N 	0.97520 0.24480 0.16840 -0.14000
N 	N 	0.10680 0.21440 0.44760 -0.13400
N 	N 	0.58750 0.16510 0.18970 -0.22900
N 	N 	0.07580 0.71255 0.97685 -0.12600
N 	N 	0.14620 0.24460 0.31480 -0.23300
N 	N 	0.12500 0.28230 0.74670 -0.13600
N 	N 	0.54160 0.01530 0.72330 -0.22000
N 	N 	0.86580 0.71640 0.18420 -0.23200
N 	N 	0.04960 0.51150 0.27730 -0.13500
N 	N 	0.93900 0.94530 0.24690 -0.13800
N 	N 	0.36560 0.13920 0.80340 -0.15700
N 	N 	0.41360 0.74940 0.50100 -0.23600
N 	N 	0.62860 0.64280 0.24640 -0.23000
N 	N 	0.07750 0.95770 0.27550 -0.23600
N 	N 	0.35010 0.48660 0.91520 -0.22600
N 	N 	0.92420 0.28745 0.02315 -0.12600
N 	N 	0.47670 0.52770 0.77230 -0.24100
N 	N 	0.40490 0.63810 0.92150 -0.15200
N 	N 	0.59510 0.36190 0.07850 -0.15200
N 	N 	0.95840 0.72330 0.01530 -0.22000
N 	N 	0.42580 0.12610 0.38350 -0.14400
N 	N 	0.57580 0.02315 0.28745 -0.12600
N 	N 	0.39320 0.44760 0.21440 -0.13400
N 	N 	0.42250 0.27550 0.95770 -0.23600
N 	N 	0.12730 0.75050 0.28910 -0.13000
N 	N 	0.02480 0.75520 0.83160 -0.14000
N 	N 	0.41360 0.31090 0.18830 -0.13900
N 	N 	0.60680 0.55240 0.78560 -0.13400
N 	N 	0.91360 0.81170 0.68910 -0.13900
N 	N 	0.08640 0.50100 0.74940 -0.23600
N 	N 	0.10980 0.50060 0.96440 -0.13500
N 	N 	0.63440 0.86080 0.19660 -0.15700
N 	N 	0.64990 0.51340 0.08480 -0.22600
N 	N 	0.84420 0.55140 0.61500 -0.23200
N 	N 	0.83920 0.56530 0.02470 -0.23500
N 	N 	0.06100 0.05470 0.75310 -0.13800
N 	N 	0.58640 0.25060 0.49900 -0.23600
N 	N 	0.80630 0.00300 0.11660 -0.23700
N 	N 	0.12860 0.75360 0.35720 -0.23000
N 	N 	0.86960 0.94170 0.11510 -0.16600
N 	N 	0.15580 0.44860 0.38500 -0.23200
N 	N 	0.90490 0.07850 0.36190 -0.15200
N 	N 	0.90180 0.02600 0.53480 -0.13000
N 	N 	0.16080 0.43470 0.97530 -0.23500
N 	N 	0.84750 0.66300 0.39880 -0.15700
N 	N 	0.42420 0.97685 0.71255 -0.12600
N 	N 	0.34750 0.60120 0.33700 -0.15700
N 	N 	0.09820 0.97400 0.46520 -0.13000
N 	N 	0.09510 0.92150 0.63810 -0.15200
N 	N 	0.36960 0.88490 0.05830 -0.16600
N 	N 	0.65250 0.39880 0.66300 -0.15700
N 	N 	0.39020 0.96440 0.50060 -0.13500
N 	N 	0.14990 0.91520 0.48660 -0.22600
N 	N 	0.36580 0.81580 0.28360 -0.23200
N 	N 	0.37140 0.35720 0.75360 -0.23000
N 	N 	0.13420 0.28360 0.81580 -0.23200
N 	N 	0.62730 0.71090 0.24950 -0.13000
N 	N 	0.92250 0.04230 0.72450 -0.23600
N 	N 	0.85380 0.75540 0.68520 -0.23300
N 	N 	0.95040 0.48850 0.72270 -0.13500
N 	N 	0.40180 0.46520 0.97400 -0.13000
N 	N 	0.47520 0.83160 0.75520 -0.14000
N 	N 	0.89320 0.78560 0.55240 -0.13400
N 	N 	0.33920 0.97530 0.43470 -0.23500
N 	N 	0.66080 0.02470 0.56530 -0.23500
N 	N 	0.86560 0.19660 0.86080 -0.15700
N 	N 	0.63040 0.11510 0.94170 -0.16600
N 	N 	0.87270 0.24950 0.71090 -0.13000
N 	N 	0.02330 0.77230 0.52770 -0.24100
N 	N 	0.52330 0.47230 0.22770 -0.24100
N 	N 	0.92580 0.61650 0.87390 -0.14400
N 	N 	0.13040 0.05830 0.88490 -0.16600
N 	N 	0.45040 0.27730 0.51150 -0.13500
N 	N 	0.58670 0.59640 0.48140 -0.13500
N 	N 	0.35380 0.31480 0.24460 -0.23300
N 	N 	0.08750 0.81030 0.83490 -0.22900
N 	N 	0.08640 0.18830 0.31090 -0.13900
N 	N 	0.58640 0.68910 0.81170 -0.13900
N 	N 	0.64620 0.68520 0.75540 -0.23300
N 	N 	0.13440 0.80340 0.13920 -0.15700
N 	N 	0.57420 0.87390 0.61650 -0.14400
N 	N 	0.54960 0.72270 0.48850 -0.13500
N 	N 	0.87500 0.71770 0.25330 -0.13600
N 	N 	0.62500 0.25330 0.71770 -0.13600
N 	N 	0.19370 0.99700 0.88340 -0.23700
N 	N 	0.59820 0.53480 0.02600 -0.13000
N 	N 	0.37500 0.74670 0.28230 -0.13600
N 	N 	0.97670 0.22770 0.47230 -0.24100
N 	N 	0.41330 0.40360 0.51860 -0.13500
N 	N 	0.56100 0.24690 0.94530 -0.13800
N 	N 	0.07420 0.38350 0.12610 -0.14400
N 	N 	0.60980 0.03560 0.49940 -0.13500
