data_crystal

_cell_length_a 10.57500
_cell_length_b 11.66000
_cell_length_c 15.76700
_cell_angle_alpha 106.08000
_cell_angle_beta  90.73000
_cell_angle_gamma 94.05000

_symmetry_space_group_name_	'P 1'
_symmetry_space_group_name_H-M	'P 1'

loop_
_symmetry_equiv_pos_as_xyz
  x,y,z

loop_
_atom_site_label
_atom_site_type_symbol
_atom_site_fract_x
_atom_site_fract_y
_atom_site_fract_z
_atom_site_charge
Cu	Cu	0.13781 0.49601 0.49972 0.95000
Cu	Cu	0.86124 0.47480 0.99825 0.94800
Cu	Cu	0.98683 0.35601 0.31431 0.93600
Cu	Cu	0.00736 0.64248 0.18503 0.92800
O 	O 	0.26980 0.51940 0.08500 -0.38000
O 	O 	0.18400 0.60240 0.21590 -0.37700
O 	O 	0.26450 0.51420 0.41630 -0.36700
O 	O 	0.17320 0.38600 0.29280 -0.38200
O 	O 	0.81040 0.39270 0.28120 -0.37400
O 	O 	0.72420 0.46610 0.41290 -0.37300
O 	O 	0.73200 0.47690 0.08540 -0.36500
O 	O 	0.81830 0.60330 0.21110 -0.36500
C 	C 	0.38220 0.51610 0.21170 -0.03800
C 	C 	0.37890 0.47800 0.28820 -0.03400
C 	C 	0.49230 0.45620 0.32530 0.00100
H 	H 	0.49010 0.43210 0.37670 0.07000
C 	C 	0.60870 0.46980 0.28720 -0.04200
C 	C 	0.61180 0.50820 0.21060 -0.03300
C 	C 	0.49870 0.52850 0.17350 -0.00100
H 	H 	0.50070 0.55120 0.12140 0.07100
C 	C 	0.26690 0.54760 0.16770 0.35700
C 	C 	0.25870 0.45780 0.33480 0.35300
C 	C 	0.72590 0.44140 0.32990 0.35600
C 	C 	0.73370 0.53140 0.16700 0.34900
O 	O 	0.97150 0.21090 0.21740 -0.34100
O 	O 	0.03960 0.31520 0.12600 -0.28600
O 	O 	0.86450 0.26910 0.96900 -0.32000
O 	O 	0.04950 0.25110 0.90320 -0.32800
C 	C 	0.99530 0.10580 0.06740 -0.02100
C 	C 	0.98580 0.10880 0.97890 -0.03500
C 	C 	0.00900 0.99850 0.08730 -0.01400
H 	H 	0.01490 0.99820 0.14620 0.07000
C 	C 	0.00250 0.22100 0.14060 0.31500
C 	C 	0.96500 0.21960 0.95120 0.30800
O 	O 	0.12800 0.29260 0.47630 -0.32600
O 	O 	0.94140 0.24420 0.40420 -0.33500
O 	O 	0.00230 0.78630 0.28070 -0.35300
O 	O 	0.05300 0.69230 0.37980 -0.29700
C 	C 	0.01170 0.11110 0.48030 -0.02900
C 	C 	0.00780 0.89360 0.43210 -0.04300
C 	C 	0.01780 0.00400 0.41460 0.00000
H 	H 	0.02890 0.00650 0.35670 0.06500
C 	C 	0.02940 0.22600 0.45380 0.31900
C 	C 	0.02220 0.78120 0.36070 0.33200
O 	O 	0.00330 0.50630 0.08270 -0.65100
O 	O 	0.99680 0.49360 0.41640 -0.65900
H 	H 	0.98990 0.47650 0.12900 0.21300
H 	H 	0.01310 0.53220 0.37500 0.22900
Cu	Cu	0.86219 0.50399 0.50028 0.94900
Cu	Cu	0.13876 0.52520 0.00175 0.94700
Cu	Cu	0.01317 0.64399 0.68569 0.93600
Cu	Cu	0.99264 0.35752 0.81497 0.92800
O 	O 	0.73020 0.48060 0.91500 -0.38000
O 	O 	0.81600 0.39760 0.78410 -0.37700
O 	O 	0.73550 0.48580 0.58370 -0.36700
O 	O 	0.82680 0.61400 0.70720 -0.38200
O 	O 	0.18960 0.60730 0.71880 -0.37400
O 	O 	0.27580 0.53390 0.58710 -0.37300
O 	O 	0.26800 0.52310 0.91460 -0.36500
O 	O 	0.18170 0.39670 0.78890 -0.36500
C 	C 	0.61780 0.48390 0.78830 -0.03800
C 	C 	0.62110 0.52200 0.71180 -0.03400
C 	C 	0.50770 0.54380 0.67470 0.00100
H 	H 	0.50990 0.56790 0.62330 0.07000
C 	C 	0.39130 0.53020 0.71280 -0.04200
C 	C 	0.38820 0.49180 0.78940 -0.03300
C 	C 	0.50130 0.47150 0.82650 -0.00100
H 	H 	0.49930 0.44880 0.87860 0.07100
C 	C 	0.73310 0.45240 0.83230 0.35700
C 	C 	0.74130 0.54220 0.66520 0.35300
C 	C 	0.27410 0.55860 0.67010 0.35600
C 	C 	0.26630 0.46860 0.83300 0.34900
O 	O 	0.02850 0.78910 0.78260 -0.34100
O 	O 	0.96040 0.68480 0.87400 -0.28600
O 	O 	0.13550 0.73090 0.03100 -0.32000
O 	O 	0.95050 0.74890 0.09680 -0.32800
C 	C 	0.00470 0.89420 0.93260 -0.02100
C 	C 	0.01420 0.89120 0.02110 -0.03500
C 	C 	0.99100 0.00150 0.91270 -0.01400
H 	H 	0.98510 0.00180 0.85380 0.07000
C 	C 	0.99750 0.77900 0.85940 0.31500
C 	C 	0.03500 0.78040 0.04880 0.30800
O 	O 	0.87200 0.70740 0.52370 -0.32600
O 	O 	0.05860 0.75580 0.59580 -0.33500
O 	O 	0.99770 0.21370 0.71930 -0.35300
O 	O 	0.94700 0.30770 0.62020 -0.29700
C 	C 	0.98830 0.88890 0.51970 -0.02900
C 	C 	0.99220 0.10640 0.56790 -0.04300
C 	C 	0.98220 0.99600 0.58540 0.00000
H 	H 	0.97110 0.99350 0.64330 0.06500
C 	C 	0.97060 0.77400 0.54620 0.31900
C 	C 	0.97780 0.21880 0.63930 0.33200
O 	O 	0.99670 0.49370 0.91730 -0.65100
O 	O 	0.00320 0.50640 0.58360 -0.65900
H 	H 	0.01010 0.52350 0.87100 0.21300
H 	H 	0.98690 0.46780 0.62500 0.22900
