data_crystal

_cell_length_a 13.44250
_cell_length_b 14.42040
_cell_length_c 20.44690
_cell_angle_alpha 90.00000
_cell_angle_beta  108.16800
_cell_angle_gamma 90.00000

_symmetry_space_group_name_	'P 1'
_symmetry_space_group_name_H-M	'P 1'

loop_
_symmetry_equiv_pos_as_xyz
  x,y,z

loop_
_atom_site_label
_atom_site_type_symbol
_atom_site_fract_x
_atom_site_fract_y
_atom_site_fract_z
_atom_site_charge
Cu	Cu	0.71989 0.51715 0.48770 0.90900
C 	C 	0.66990 0.33440 0.29000 0.01600
H 	H 	0.71730 0.38210 0.29200 0.04500
C 	C 	0.63050 0.28360 0.22990 -0.09000
H 	H 	0.65190 0.29710 0.19190 0.06800
C 	C 	0.55910 0.21240 0.22630 0.03000
C 	C 	0.52940 0.19210 0.28380 -0.09200
H 	H 	0.48240 0.14420 0.28210 0.06100
C 	C 	0.56930 0.24270 0.34360 0.01900
H 	H 	0.54910 0.22840 0.38190 0.04200
C 	C 	0.63910 0.31470 0.34690 -0.08500
C 	C 	0.67190 0.37560 0.40890 0.30200
C 	C 	0.50970 0.16280 0.16070 0.05500
C 	C 	0.42050 0.11190 0.13910 -0.02600
H 	H 	0.37790 0.09720 0.16570 0.03000
C 	C 	0.48140 0.11880 0.05410 0.12600
H 	H 	0.48990 0.11140 0.01100 -0.01200
C 	C 	0.75090 0.68460 0.72470 0.02000
H 	H 	0.80200 0.72420 0.71880 0.03600
C 	C 	0.73390 0.68070 0.78790 -0.09200
H 	H 	0.77520 0.71570 0.82450 0.05900
C 	C 	0.65510 0.62470 0.79670 0.03400
C 	C 	0.59440 0.57230 0.74120 -0.09100
H 	H 	0.54010 0.53590 0.74630 0.06500
C 	C 	0.61400 0.57410 0.67910 0.02400
H 	H 	0.57440 0.53750 0.64290 0.04200
C 	C 	0.69350 0.63080 0.67030 -0.09000
C 	C 	0.71650 0.62800 0.60280 0.33000
C 	C 	0.63410 0.61640 0.86270 0.05300
C 	C 	0.64280 0.63950 0.97080 0.17100
H 	H 	0.66270 0.66340 0.01530 -0.02300
C 	C 	0.56830 0.55790 0.88120 -0.01200
H 	H 	0.52540 0.51420 0.85240 0.03900
C 	C 	0.74550 0.56810 0.21830 0.02700
H 	H 	0.68890 0.60860 0.20550 0.03400
C 	C 	0.82050 0.57680 0.28280 -0.09800
H 	H 	0.81260 0.62200 0.31330 0.06000
C 	C 	0.90640 0.51880 0.30180 0.04800
C 	C 	0.91500 0.45070 0.25600 -0.10700
H 	H 	0.97230 0.41100 0.26810 0.07000
C 	C 	0.83960 0.44120 0.19310 0.03000
H 	H 	0.84610 0.39430 0.16340 0.03300
C 	C 	0.75440 0.50010 0.17330 -0.09700
C 	C 	0.67130 0.48760 0.10450 0.32000
C 	C 	0.98870 0.52700 0.36830 0.03400
C 	C 	0.08330 0.49130 0.39170 0.00100
H 	H 	0.11050 0.45050 0.36640 0.03600
C 	C 	0.07380 0.57710 0.47290 0.11900
H 	H 	0.09160 0.61140 0.51350 -0.00100
N 	N 	0.13710 0.51970 0.45610 -0.21800
N 	N 	0.57450 0.57250 0.94855 -0.21400
N 	N 	0.40290 0.08530 0.07210 -0.22300
N 	N 	0.54710 0.16500 0.10620 -0.21500
H 	H 	0.60390 0.19180 0.10550 0.13400
N 	N 	0.67980 0.66880 0.92070 -0.21700
H 	H 	0.72430 0.71280 0.92420 0.13000
N 	N 	0.97760 0.58040 0.42320 -0.20300
H 	H 	0.92250 0.60900 0.42510 0.11300
O 	O 	0.72940 0.44560 0.40742 -0.37900
O 	O 	0.64270 0.35860 0.46001 -0.30700
O 	O 	0.68500 0.55510 0.56823 -0.39800
O 	O 	0.76560 0.69270 0.58670 -0.28200
O 	O 	0.59780 0.54680 0.08816 -0.38300
O 	O 	0.67580 0.42140 0.06750 -0.31600
Cu	Cu	0.28011 0.01715 0.01230 0.89000
C 	C 	0.33010 0.83440 0.21000 0.01600
H 	H 	0.28270 0.88210 0.20800 0.04700
C 	C 	0.36950 0.78360 0.27010 -0.08900
H 	H 	0.34810 0.79710 0.30810 0.07000
C 	C 	0.44090 0.71240 0.27370 0.03200
C 	C 	0.47060 0.69210 0.21620 -0.09200
H 	H 	0.51760 0.64420 0.21790 0.06400
C 	C 	0.43070 0.74270 0.15640 0.02100
H 	H 	0.45090 0.72840 0.11810 0.04000
C 	C 	0.36090 0.81470 0.15310 -0.08500
C 	C 	0.32810 0.87560 0.09110 0.30300
C 	C 	0.49030 0.66280 0.33930 0.05800
C 	C 	0.57950 0.61190 0.36090 -0.02300
H 	H 	0.62210 0.59720 0.33430 0.03400
C 	C 	0.51860 0.61880 0.44590 0.13200
H 	H 	0.51010 0.61140 0.48900 -0.00000
C 	C 	0.24910 0.18460 0.77530 0.01800
H 	H 	0.19800 0.22420 0.78120 0.03700
C 	C 	0.26610 0.18070 0.71210 -0.09200
H 	H 	0.22480 0.21570 0.67550 0.05700
C 	C 	0.34490 0.12470 0.70330 0.03300
C 	C 	0.40560 0.07230 0.75880 -0.09100
H 	H 	0.45990 0.03590 0.75370 0.06100
C 	C 	0.38600 0.07410 0.82090 0.02200
H 	H 	0.42560 0.03750 0.85710 0.04000
C 	C 	0.30650 0.13080 0.82970 -0.08900
C 	C 	0.28350 0.12800 0.89720 0.32900
C 	C 	0.36590 0.11640 0.63730 0.05000
C 	C 	0.35720 0.13950 0.52920 0.12500
H 	H 	0.33730 0.16340 0.48470 0.00600
C 	C 	0.43170 0.05790 0.61880 -0.01300
H 	H 	0.47460 0.01420 0.64760 0.03300
C 	C 	0.25450 0.06810 0.28170 0.06300
H 	H 	0.31110 0.10860 0.29450 0.02000
C 	C 	0.17950 0.07680 0.21720 -0.12700
H 	H 	0.18740 0.12200 0.18670 0.06900
C 	C 	0.09360 0.01880 0.19820 0.05700
C 	C 	0.08500 0.95070 0.24400 -0.11700
H 	H 	0.02770 0.91100 0.23190 0.08000
C 	C 	0.16040 0.94120 0.30690 0.08500
H 	H 	0.15390 0.89430 0.33660 0.02000
C 	C 	0.24560 0.00010 0.32670 -0.16200
C 	C 	0.32870 0.98760 0.39550 0.37500
C 	C 	0.01130 0.02700 0.13170 -0.00400
C 	C 	0.91670 0.99130 0.10830 0.05400
H 	H 	0.88950 0.95050 0.13360 0.01900
C 	C 	0.92620 0.07710 0.02710 0.06000
H 	H 	0.90840 0.11140 0.98650 0.03100
N 	N 	0.86290 0.01970 0.04390 -0.23500
N 	N 	0.42550 0.07250 0.55145 -0.21500
N 	N 	0.59710 0.58530 0.42790 -0.21700
N 	N 	0.45290 0.66500 0.39380 -0.21500
H 	H 	0.39610 0.69180 0.39450 0.14000
N 	N 	0.32020 0.16880 0.57930 -0.20800
H 	H 	0.27570 0.21280 0.57580 0.12200
N 	N 	0.02240 0.08040 0.07680 -0.18700
H 	H 	0.07750 0.10900 0.07490 0.10200
O 	O 	0.27060 0.94560 0.09258 -0.37100
O 	O 	0.35730 0.85860 0.03999 -0.31200
O 	O 	0.31500 0.05510 0.93177 -0.39000
O 	O 	0.23440 0.19270 0.91330 -0.27600
O 	O 	0.40220 0.04680 0.41184 -0.40500
O 	O 	0.32420 0.92140 0.43250 -0.31600
Cu	Cu	0.28011 0.48285 0.51230 0.90800
C 	C 	0.33010 0.66560 0.71000 0.01800
H 	H 	0.28270 0.61790 0.70800 0.04400
C 	C 	0.36950 0.71640 0.77010 -0.09000
H 	H 	0.34810 0.70290 0.80810 0.07000
C 	C 	0.44090 0.78760 0.77370 0.03400
C 	C 	0.47060 0.80790 0.71620 -0.09100
H 	H 	0.51760 0.85580 0.71790 0.06600
C 	C 	0.43070 0.75730 0.65640 0.02200
H 	H 	0.45090 0.77160 0.61810 0.04300
C 	C 	0.36090 0.68530 0.65310 -0.08500
C 	C 	0.32810 0.62440 0.59110 0.30300
C 	C 	0.49030 0.83720 0.83930 0.06000
C 	C 	0.57950 0.88810 0.86090 -0.02100
H 	H 	0.62210 0.90280 0.83430 0.03600
C 	C 	0.51860 0.88120 0.94590 0.13700
H 	H 	0.51010 0.88860 0.98900 0.00900
C 	C 	0.24910 0.31540 0.27530 0.02000
H 	H 	0.19800 0.27580 0.28120 0.03500
C 	C 	0.26610 0.31930 0.21210 -0.09300
H 	H 	0.22480 0.28430 0.17550 0.05700
C 	C 	0.34490 0.37530 0.20330 0.03500
C 	C 	0.40560 0.42770 0.25880 -0.09200
H 	H 	0.45990 0.46410 0.25370 0.06500
C 	C 	0.38600 0.42590 0.32090 0.02500
H 	H 	0.42560 0.46250 0.35710 0.04200
C 	C 	0.30650 0.36920 0.32970 -0.09100
C 	C 	0.28350 0.37200 0.39720 0.33100
C 	C 	0.36590 0.38360 0.13730 0.04900
C 	C 	0.35720 0.36050 0.02920 0.07600
H 	H 	0.33730 0.33660 0.98470 0.04100
C 	C 	0.43170 0.44210 0.11880 -0.01200
H 	H 	0.47460 0.48580 0.14760 0.03700
C 	C 	0.25450 0.43190 0.78170 0.02000
H 	H 	0.31110 0.39140 0.79450 0.03700
C 	C 	0.17950 0.42320 0.71720 -0.09100
H 	H 	0.18740 0.37800 0.68670 0.05700
C 	C 	0.09360 0.48120 0.69820 0.04200
C 	C 	0.08500 0.54930 0.74400 -0.09800
H 	H 	0.02770 0.58900 0.73190 0.07100
C 	C 	0.16040 0.55880 0.80690 0.02400
H 	H 	0.15390 0.60570 0.83660 0.04100
C 	C 	0.24560 0.49990 0.82670 -0.08800
C 	C 	0.32870 0.51240 0.89550 0.31600
C 	C 	0.01130 0.47300 0.63170 0.04600
C 	C 	0.91670 0.50870 0.60830 -0.01200
H 	H 	0.88950 0.54950 0.63360 0.03900
C 	C 	0.92620 0.42290 0.52710 0.11200
H 	H 	0.90840 0.38860 0.48650 -0.00200
N 	N 	0.86290 0.48030 0.54390 -0.21500
N 	N 	0.42550 0.42750 0.05145 -0.20800
N 	N 	0.59710 0.91470 0.92790 -0.21200
N 	N 	0.45290 0.83500 0.89380 -0.21500
H 	H 	0.39610 0.80820 0.89450 0.14400
N 	N 	0.32020 0.33120 0.07930 -0.19700
H 	H 	0.27570 0.28720 0.07580 0.11500
N 	N 	0.02240 0.41960 0.57680 -0.20100
H 	H 	0.07750 0.39100 0.57490 0.11300
O 	O 	0.27060 0.55440 0.59258 -0.37900
O 	O 	0.35730 0.64140 0.53999 -0.30600
O 	O 	0.31500 0.44490 0.43177 -0.39800
O 	O 	0.23440 0.30730 0.41330 -0.28400
O 	O 	0.40220 0.45320 0.91184 -0.37100
O 	O 	0.32420 0.57860 0.93250 -0.29700
Cu	Cu	0.71989 0.98285 0.98770 0.92200
C 	C 	0.66990 0.16560 0.79000 0.01600
H 	H 	0.71730 0.11790 0.79200 0.04100
C 	C 	0.63050 0.21640 0.72990 -0.09000
H 	H 	0.65190 0.20290 0.69190 0.06800
C 	C 	0.55910 0.28760 0.72630 0.03200
C 	C 	0.52940 0.30790 0.78380 -0.09000
H 	H 	0.48240 0.35580 0.78210 0.06400
C 	C 	0.56930 0.25730 0.84360 0.01900
H 	H 	0.54910 0.27160 0.88190 0.04600
C 	C 	0.63910 0.18530 0.84690 -0.08300
C 	C 	0.67190 0.12440 0.90890 0.30100
C 	C 	0.50970 0.33720 0.66070 0.05800
C 	C 	0.42050 0.38810 0.63910 -0.02400
H 	H 	0.37790 0.40280 0.66570 0.03400
C 	C 	0.48140 0.38120 0.55410 0.13200
H 	H 	0.48990 0.38860 0.51100 -0.00100
C 	C 	0.75090 0.81540 0.22470 0.02100
H 	H 	0.80200 0.77580 0.21880 0.03500
C 	C 	0.73390 0.81930 0.28790 -0.09200
H 	H 	0.77520 0.78430 0.32450 0.05900
C 	C 	0.65510 0.87530 0.29670 0.03600
C 	C 	0.59440 0.92770 0.24120 -0.09000
H 	H 	0.54010 0.96410 0.24630 0.07000
C 	C 	0.61400 0.92590 0.17910 0.02600
H 	H 	0.57440 0.96250 0.14290 0.04600
C 	C 	0.69350 0.86920 0.17030 -0.09000
C 	C 	0.71650 0.87200 0.10280 0.33200
C 	C 	0.63410 0.88360 0.36270 0.05300
C 	C 	0.64280 0.86050 0.47080 0.12900
H 	H 	0.66270 0.83660 0.51530 0.00700
C 	C 	0.56830 0.94210 0.38120 -0.01100
H 	H 	0.52540 0.98580 0.35240 0.04400
C 	C 	0.74550 0.93190 0.71830 -0.01100
H 	H 	0.68890 0.89140 0.70550 0.04900
C 	C 	0.82050 0.92320 0.78280 -0.06900
H 	H 	0.81260 0.87800 0.81330 0.05000
C 	C 	0.90640 0.98120 0.80180 0.03600
C 	C 	0.91500 0.04930 0.75600 -0.08900
H 	H 	0.97230 0.08900 0.76810 0.06300
C 	C 	0.83960 0.05880 0.69310 -0.02300
H 	H 	0.84610 0.10570 0.66340 0.05200
C 	C 	0.75440 0.99990 0.67330 -0.03300
C 	C 	0.67130 0.01240 0.60450 0.26900
C 	C 	0.98870 0.97300 0.86830 0.06700
C 	C 	0.08330 0.00870 0.89170 -0.04100
H 	H 	0.11050 0.04950 0.86640 0.05000
C 	C 	0.07380 0.92290 0.97290 0.16900
H 	H 	0.09160 0.88860 0.01350 -0.03000
N 	N 	0.13710 0.98030 0.95610 -0.20200
N 	N 	0.57450 0.92750 0.44855 -0.20800
N 	N 	0.40290 0.41470 0.57210 -0.21700
N 	N 	0.54710 0.33500 0.60620 -0.21500
H 	H 	0.60390 0.30820 0.60550 0.13900
N 	N 	0.67980 0.83120 0.42070 -0.20800
H 	H 	0.72430 0.78720 0.42420 0.12400
N 	N 	0.97760 0.91960 0.92320 -0.21600
H 	H 	0.92250 0.89100 0.92510 0.12300
O 	O 	0.72940 0.05440 0.90742 -0.38300
O 	O 	0.64270 0.14140 0.96001 -0.29800
O 	O 	0.68500 0.94490 0.06823 -0.40200
O 	O 	0.76560 0.80730 0.08670 -0.28800
O 	O 	0.59780 0.95320 0.58816 -0.35300
O 	O 	0.67580 0.07860 0.56750 -0.29900
Cu	Cu	0.50000 0.50000 -0.00000 0.90100
Cu	Cu	0.50000 0.00000 0.50000 0.90400
