data_crystal

_cell_length_a 10.14590
_cell_length_b 10.14590
_cell_length_c 23.86340
_cell_angle_alpha 90.00000
_cell_angle_beta  90.00000
_cell_angle_gamma 90.00000

_symmetry_space_group_name_	'P 1'
_symmetry_space_group_name_H-M	'P 1'

loop_
_symmetry_equiv_pos_as_xyz
  x,y,z

loop_
_atom_site_label
_atom_site_type_symbol
_atom_site_fract_x
_atom_site_fract_y
_atom_site_fract_z
_atom_site_charge
Cd	Cd	0.50000 0.50000 0.50000 1.24500
Cd	Cd	0.50000 0.00000 0.25000 1.14500
Cd	Cd	0.00000 0.50000 0.75000 1.14400
Cd	Cd	-0.00000 0.00000 -0.00000 1.18600
H 	H 	0.65110 0.20410 0.96400 0.08800
H 	H 	0.34400 0.52240 0.17250 0.06300
H 	H 	0.38090 0.04790 0.50540 0.04500
H 	H 	0.30930 0.59670 0.79200 0.01100
H 	H 	0.19070 0.09670 0.29200 -0.01200
H 	H 	0.23690 0.65810 0.57100 0.15400
H 	H 	0.52240 0.65600 0.82750 0.06800
H 	H 	0.15110 0.29590 0.46400 0.10400
H 	H 	0.22580 0.22400 0.63970 -0.00800
H 	H 	0.97760 0.15600 0.32750 0.04500
H 	H 	0.02240 0.84400 0.32750 0.08600
H 	H 	0.65600 0.47760 0.17250 0.06200
H 	H 	0.15810 0.73690 0.92900 0.14900
H 	H 	0.09670 0.80930 0.70800 0.01000
H 	H 	0.80930 0.90330 0.29200 0.03700
H 	H 	0.15600 0.02240 0.67250 0.06200
H 	H 	0.77420 0.77600 0.63970 0.02500
H 	H 	0.84890 0.70410 0.46400 0.05900
H 	H 	0.34190 0.23690 0.42900 0.15300
H 	H 	0.11910 0.54790 0.00540 0.00500
H 	H 	0.59670 0.69070 0.20800 0.01700
H 	H 	0.22400 0.77420 0.36030 0.00800
H 	H 	0.15660 0.48240 0.62630 -0.03900
H 	H 	0.26310 0.15810 0.07100 0.13200
H 	H 	0.34340 0.98240 0.12630 0.07000
H 	H 	0.04790 0.61910 0.49460 0.04400
H 	H 	0.90330 0.19070 0.70800 0.01600
H 	H 	0.20410 0.34890 0.03600 0.06800
H 	H 	0.01760 0.34340 0.87370 -0.12400
H 	H 	0.77600 0.22580 0.36030 0.01100
H 	H 	0.34890 0.79590 0.96400 0.09500
H 	H 	0.47760 0.34400 0.82750 0.06900
H 	H 	0.72580 0.27600 0.13970 0.01300
H 	H 	0.65810 0.76310 0.42900 0.16100
H 	H 	0.98240 0.65660 0.87370 0.07000
H 	H 	0.29590 0.84890 0.53600 0.05600
H 	H 	0.79590 0.65110 0.03600 0.07700
H 	H 	0.84340 0.51760 0.62630 -0.01600
H 	H 	0.95210 0.38090 0.49460 0.00700
H 	H 	0.48240 0.84340 0.37370 -0.01800
H 	H 	0.73690 0.84190 0.07100 0.17700
H 	H 	0.27420 0.72400 0.13970 0.01300
H 	H 	0.45210 0.11910 0.99460 0.01600
H 	H 	0.76310 0.34190 0.57100 0.16000
H 	H 	0.72400 0.72580 0.86030 0.01700
H 	H 	0.54790 0.88090 0.99460 0.04900
H 	H 	0.51760 0.15660 0.37370 -0.03700
H 	H 	0.27600 0.27420 0.86030 -0.00600
H 	H 	0.88090 0.45210 0.00540 0.03500
H 	H 	0.65660 0.01760 0.12630 -0.12700
H 	H 	0.69070 0.40330 0.79200 0.01300
H 	H 	0.40330 0.30930 0.20800 0.00900
H 	H 	0.84400 0.97760 0.67250 0.07000
H 	H 	0.84190 0.26310 0.92900 0.17300
H 	H 	0.70410 0.15110 0.53600 0.10700
H 	H 	0.61910 0.95210 0.50540 0.00800
C 	C 	0.77800 0.08530 0.60798 0.01100
C 	C 	0.31440 0.15760 0.56974 -0.10100
C 	C 	0.34240 0.18560 0.93026 -0.15200
C 	C 	0.78480 0.87330 0.94916 0.36000
C 	C 	0.20040 0.02750 0.63850 -0.22400
C 	C 	0.87830 0.24940 0.68001 -0.01900
C 	C 	0.04410 0.66560 0.46100 -0.06300
C 	C 	0.92880 0.34550 0.86421 0.27300
C 	C 	0.79960 0.97250 0.63850 -0.02900
C 	C 	0.24400 0.14820 0.61920 0.06000
C 	C 	0.28590 0.67980 0.87009 0.04800
C 	C 	0.91470 0.77800 0.39202 0.11800
C 	C 	0.85180 0.24400 0.38080 0.03200
C 	C 	0.25060 0.62170 0.81999 -0.01400
C 	C 	0.70040 0.47250 0.13850 -0.10700
C 	C 	0.24940 0.12170 0.31999 -0.03200
C 	C 	0.84240 0.31440 0.43026 -0.14000
C 	C 	0.12670 0.78480 0.05084 0.28000
C 	C 	0.67980 0.71410 0.12991 0.05600
C 	C 	0.35180 0.25600 0.88080 0.07400
C 	C 	0.34550 0.07120 0.13579 -0.02300
C 	C 	0.66560 0.95590 0.53900 0.16500
C 	C 	0.25600 0.64820 0.11920 0.03900
C 	C 	0.16560 0.54410 0.03900 0.03200
C 	C 	0.57120 0.84550 0.36421 0.14300
C 	C 	0.02750 0.79960 0.36150 -0.21300
C 	C 	0.42880 0.15450 0.36421 0.12000
C 	C 	0.22200 0.91470 0.60798 0.10800
C 	C 	0.62170 0.74940 0.18001 -0.01800
C 	C 	0.81440 0.34240 0.06974 -0.09500
C 	C 	0.64820 0.74400 0.88080 0.05700
C 	C 	0.15450 0.57120 0.63579 0.12400
C 	C 	0.57600 0.21470 0.94210 -0.14000
C 	C 	0.52750 0.70040 0.86150 -0.11800
C 	C 	0.08530 0.22200 0.39202 -0.00600
C 	C 	0.54410 0.83440 0.96100 0.05600
C 	C 	0.21520 0.12670 0.94916 0.38300
C 	C 	0.42400 0.78530 0.94210 -0.11000
C 	C 	0.65450 0.92880 0.13579 0.28000
C 	C 	0.32020 0.28590 0.12991 0.03300
C 	C 	0.71470 0.07600 0.55790 -0.21400
C 	C 	0.75060 0.87830 0.31999 -0.00300
C 	C 	0.47250 0.29960 0.86150 -0.14500
C 	C 	0.17980 0.78590 0.62991 0.03200
C 	C 	0.28480 0.62670 0.44916 0.32000
C 	C 	0.82020 0.21410 0.62991 0.05600
C 	C 	0.75600 0.85180 0.61920 0.04800
C 	C 	0.14820 0.75600 0.38080 0.07200
C 	C 	0.21470 0.42400 0.05790 -0.12400
C 	C 	0.62670 0.71520 0.55084 0.34200
C 	C 	0.41470 0.72200 0.89202 0.06300
C 	C 	0.74940 0.37830 0.81999 -0.01700
C 	C 	0.58530 0.27800 0.89202 0.06900
C 	C 	0.83440 0.45590 0.03900 0.03300
C 	C 	0.28530 0.92400 0.55790 -0.02100
C 	C 	0.29960 0.52750 0.13850 -0.12300
C 	C 	0.78590 0.82020 0.37009 0.04900
C 	C 	0.12170 0.75060 0.68001 -0.01500
C 	C 	0.07120 0.65450 0.86421 -0.00100
C 	C 	0.45590 0.16560 0.96100 0.06900
C 	C 	0.21410 0.17980 0.37009 0.04000
C 	C 	0.95590 0.33440 0.46100 0.16200
C 	C 	0.71520 0.37330 0.44916 0.33700
C 	C 	0.27800 0.41470 0.10798 0.05000
C 	C 	0.92400 0.71470 0.44210 -0.01700
C 	C 	0.71410 0.32020 0.87009 0.04000
C 	C 	0.15760 0.68560 0.43026 -0.09500
C 	C 	0.68560 0.84240 0.56974 -0.13500
C 	C 	0.97250 0.20040 0.36150 -0.02900
C 	C 	0.33440 0.04410 0.53900 -0.07100
C 	C 	0.65760 0.81440 0.93026 -0.10900
C 	C 	0.72200 0.58530 0.10798 0.04800
C 	C 	0.37830 0.25060 0.18001 -0.01900
C 	C 	0.74400 0.35180 0.11920 0.03900
C 	C 	0.07600 0.28530 0.44210 -0.22000
C 	C 	0.84550 0.42880 0.63579 0.14000
C 	C 	0.78530 0.57600 0.05790 -0.09900
C 	C 	0.18560 0.65760 0.06974 -0.11200
C 	C 	0.37330 0.28480 0.55084 0.31500
C 	C 	0.87330 0.21520 0.05084 0.28600
N 	N 	0.60630 0.88310 0.18263 -0.26800
N 	N 	0.29950 0.16800 0.10324 -0.19100
N 	N 	0.11690 0.60630 0.81737 -0.24600
N 	N 	0.88310 0.39370 0.81737 -0.27000
N 	N 	0.10630 0.61690 0.68263 -0.27200
N 	N 	0.39370 0.11690 0.18263 -0.24600
N 	N 	0.79950 0.33200 0.60324 -0.21900
N 	N 	0.61690 0.89370 0.31737 -0.24400
N 	N 	0.83200 0.29950 0.89676 -0.24500
N 	N 	0.89370 0.38310 0.68263 -0.24300
N 	N 	0.38310 0.10630 0.31737 -0.27100
N 	N 	0.70050 0.83200 0.10324 -0.24800
N 	N 	0.66800 0.79950 0.39676 -0.21800
N 	N 	0.16800 0.70050 0.89676 -0.19100
N 	N 	0.20050 0.66800 0.60324 -0.21800
N 	N 	0.33200 0.20050 0.39676 -0.22000
O 	O 	0.10380 0.87440 0.08512 -0.31800
O 	O 	0.09920 0.79760 0.99980 -0.35700
O 	O 	0.20240 0.09920 0.00020 -0.46900
O 	O 	0.12560 0.10380 0.91488 -0.38900
O 	O 	0.87440 0.89620 0.91488 -0.28400
O 	O 	0.37440 0.60380 0.41488 -0.33200
O 	O 	0.79760 0.90080 0.00020 -0.39200
O 	O 	0.60380 0.62560 0.58512 -0.33300
O 	O 	0.70240 0.40080 0.50020 -0.40000
O 	O 	0.29760 0.59920 0.50020 -0.39700
O 	O 	0.89620 0.12560 0.08512 -0.32100
O 	O 	0.39620 0.37440 0.58512 -0.33400
O 	O 	0.59920 0.70240 0.49980 -0.39600
O 	O 	0.90080 0.20240 0.99980 -0.34100
O 	O 	0.40080 0.29760 0.49980 -0.40000
O 	O 	0.62560 0.39620 0.41488 -0.33600
