data_crystal

_cell_length_a 16.13220
_cell_length_b 15.79810
_cell_length_c 11.60420
_cell_angle_alpha 90.00000
_cell_angle_beta  90.00000
_cell_angle_gamma 90.00000

_symmetry_space_group_name_	'P 1'
_symmetry_space_group_name_H-M	'P 1'

loop_
_symmetry_equiv_pos_as_xyz
  x,y,z

loop_
_atom_site_label
_atom_site_type_symbol
_atom_site_fract_x
_atom_site_fract_y
_atom_site_fract_z
_atom_site_charge
C 	C 	0.64334 0.40130 0.94850 0.30700
C 	C 	0.57298 0.35150 0.00060 -0.08500
C 	C 	0.58730 0.27540 0.05700 0.01100
H 	H 	0.64140 0.25670 0.06760 0.03200
C 	C 	0.52162 0.22670 0.09770 -0.09000
H 	H 	0.53210 0.17610 0.13610 0.05200
C 	C 	0.43967 0.25368 0.08120 0.02200
C 	C 	0.42540 0.33050 0.02630 -0.08800
H 	H 	0.37130 0.34940 0.01590 0.06500
C 	C 	0.49124 0.37970 0.98640 0.01300
H 	H 	0.48090 0.43130 0.95050 0.04600
C 	C 	0.37027 0.20214 0.12180 0.05400
C 	C 	0.37134 0.12614 0.18090 -0.03500
H 	H 	0.41850 0.09620 0.20250 0.01100
C 	C 	0.24300 0.16560 0.16230 0.12000
H 	H 	0.18570 0.16800 0.16980 -0.03500
N 	N 	0.29016 0.10222 0.20250 -0.25600
N 	N 	0.28824 0.22415 0.11080 -0.22200
H 	H 	0.26960 0.26840 0.07640 0.14800
O 	O 	0.71710 0.37680 0.96347 -0.36000
O 	O 	0.62562 0.46625 0.89141 -0.41300
C 	C 	0.85666 0.59870 0.94850 0.30700
C 	C 	0.92702 0.64850 0.00060 -0.08600
C 	C 	0.91270 0.72460 0.05700 0.01900
H 	H 	0.85860 0.74330 0.06760 0.04000
C 	C 	0.97838 0.77330 0.09770 -0.09100
H 	H 	0.96790 0.82390 0.13610 0.07600
C 	C 	0.06033 0.74632 0.08120 0.03200
C 	C 	0.07460 0.66950 0.02630 -0.08900
H 	H 	0.12870 0.65060 0.01590 0.06700
C 	C 	0.00876 0.62030 0.98640 0.01600
H 	H 	0.01910 0.56870 0.95050 0.04600
C 	C 	0.12973 0.79786 0.12180 0.06600
C 	C 	0.12866 0.87386 0.18090 -0.02000
H 	H 	0.08150 0.90380 0.20250 0.05700
C 	C 	0.25700 0.83440 0.16230 0.13300
H 	H 	0.31430 0.83200 0.16980 -0.01700
N 	N 	0.20984 0.89778 0.20250 -0.21200
N 	N 	0.21176 0.77585 0.11080 -0.22100
H 	H 	0.23040 0.73160 0.07640 0.15300
O 	O 	0.78290 0.62320 0.96347 -0.35900
O 	O 	0.87438 0.53375 0.89141 -0.41300
C 	C 	0.14334 0.09870 0.44850 0.31400
C 	C 	0.07298 0.14850 0.50060 -0.11000
C 	C 	0.08730 0.22460 0.55700 0.02500
H 	H 	0.14140 0.24330 0.56760 0.02800
C 	C 	0.02162 0.27330 0.59770 -0.10200
H 	H 	0.03210 0.32390 0.63610 0.06600
C 	C 	0.93967 0.24632 0.58120 0.03400
C 	C 	0.92540 0.16950 0.52630 -0.10800
H 	H 	0.87130 0.15060 0.51590 0.06000
C 	C 	0.99124 0.12030 0.48640 0.02300
H 	H 	0.98090 0.06870 0.45050 0.01100
C 	C 	0.87027 0.29786 0.62180 0.05600
C 	C 	0.87134 0.37386 0.68090 -0.02600
H 	H 	0.91850 0.40380 0.70250 0.03300
C 	C 	0.74300 0.33440 0.66230 0.12600
H 	H 	0.68570 0.33200 0.66980 -0.02800
N 	N 	0.79016 0.39778 0.70250 -0.23900
N 	N 	0.78824 0.27585 0.61080 -0.22100
H 	H 	0.76960 0.23160 0.57640 0.14900
O 	O 	0.21710 0.12320 0.46347 -0.38000
O 	O 	0.12562 0.03375 0.39141 -0.46400
C 	C 	0.35666 0.90130 0.44850 0.29800
C 	C 	0.42702 0.85150 0.50060 -0.06000
C 	C 	0.41270 0.77540 0.55700 0.00300
H 	H 	0.35860 0.75670 0.56760 0.04300
C 	C 	0.47838 0.72670 0.59770 -0.07800
H 	H 	0.46790 0.67610 0.63610 0.05900
C 	C 	0.56033 0.75368 0.58120 0.01900
C 	C 	0.57460 0.83050 0.52630 -0.06800
H 	H 	0.62870 0.84940 0.51590 0.07400
C 	C 	0.50876 0.87970 0.48640 0.00600
H 	H 	0.51910 0.93130 0.45050 0.08200
C 	C 	0.62973 0.70214 0.62180 0.06500
C 	C 	0.62866 0.62614 0.68090 -0.03000
H 	H 	0.58150 0.59620 0.70250 0.03400
C 	C 	0.75700 0.66560 0.66230 0.12700
H 	H 	0.81430 0.66800 0.66980 -0.02700
N 	N 	0.70984 0.60222 0.70250 -0.23900
N 	N 	0.71176 0.72415 0.61080 -0.22300
H 	H 	0.73040 0.76840 0.57640 0.15300
O 	O 	0.28290 0.87680 0.46347 -0.33100
O 	O 	0.37438 0.96625 0.39141 -0.34800
Cd	Cd	0.75000 0.50000 0.82528 1.21700
Cd	Cd	0.25000 0.00000 0.32528 1.18000
C 	C 	0.85666 0.90130 0.55150 0.29800
C 	C 	0.92702 0.85150 0.49940 -0.05800
C 	C 	0.91270 0.77540 0.44300 0.00100
H 	H 	0.85860 0.75670 0.43240 0.04300
C 	C 	0.97838 0.72670 0.40230 -0.07700
H 	H 	0.96790 0.67610 0.36390 0.05900
C 	C 	0.06033 0.75368 0.41880 0.01800
C 	C 	0.07460 0.83050 0.47370 -0.06700
H 	H 	0.12870 0.84940 0.48410 0.07400
C 	C 	0.00876 0.87970 0.51360 0.00300
H 	H 	0.01910 0.93130 0.54950 0.08200
C 	C 	0.12973 0.70214 0.37820 0.06500
C 	C 	0.12866 0.62614 0.31910 -0.03000
H 	H 	0.08150 0.59620 0.29750 0.03400
C 	C 	0.25700 0.66560 0.33770 0.12700
H 	H 	0.31430 0.66800 0.33020 -0.02700
N 	N 	0.20984 0.60222 0.29750 -0.23900
N 	N 	0.21176 0.72415 0.38920 -0.22300
H 	H 	0.23040 0.76840 0.42360 0.15300
O 	O 	0.78290 0.87680 0.53653 -0.33000
O 	O 	0.87438 0.96625 0.60859 -0.34800
C 	C 	0.64334 0.09870 0.55150 0.31500
C 	C 	0.57298 0.14850 0.49940 -0.11200
C 	C 	0.58730 0.22460 0.44300 0.02700
H 	H 	0.64140 0.24330 0.43240 0.02800
C 	C 	0.52162 0.27330 0.40230 -0.10500
H 	H 	0.53210 0.32390 0.36390 0.06700
C 	C 	0.43967 0.24632 0.41880 0.03600
C 	C 	0.42540 0.16950 0.47370 -0.11000
H 	H 	0.37130 0.15060 0.48410 0.06000
C 	C 	0.49124 0.12030 0.51360 0.02600
H 	H 	0.48090 0.06870 0.54950 0.01000
C 	C 	0.37027 0.29786 0.37820 0.05500
C 	C 	0.37134 0.37386 0.31910 -0.02500
H 	H 	0.41850 0.40380 0.29750 0.03300
C 	C 	0.24300 0.33440 0.33770 0.12600
H 	H 	0.18570 0.33200 0.33020 -0.02800
N 	N 	0.29016 0.39778 0.29750 -0.23900
N 	N 	0.28824 0.27585 0.38920 -0.22100
H 	H 	0.26960 0.23160 0.42360 0.14900
O 	O 	0.71710 0.12320 0.53653 -0.38100
O 	O 	0.62562 0.03375 0.60859 -0.46500
C 	C 	0.35666 0.59870 0.05150 0.30800
C 	C 	0.42702 0.64850 0.99940 -0.08700
C 	C 	0.41270 0.72460 0.94300 0.02000
H 	H 	0.35860 0.74330 0.93240 0.04000
C 	C 	0.47838 0.77330 0.90230 -0.09200
H 	H 	0.46790 0.82390 0.86390 0.07600
C 	C 	0.56033 0.74632 0.91880 0.03300
C 	C 	0.57460 0.66950 0.97370 -0.09000
H 	H 	0.62870 0.65060 0.98410 0.06800
C 	C 	0.50876 0.62030 0.01360 0.01800
H 	H 	0.51910 0.56870 0.04950 0.04500
C 	C 	0.62973 0.79786 0.87820 0.06600
C 	C 	0.62866 0.87386 0.81910 -0.02000
H 	H 	0.58150 0.90380 0.79750 0.05700
C 	C 	0.75700 0.83440 0.83770 0.13300
H 	H 	0.81430 0.83200 0.83020 -0.01800
N 	N 	0.70984 0.89778 0.79750 -0.21200
N 	N 	0.71176 0.77585 0.88920 -0.22100
H 	H 	0.73040 0.73160 0.92360 0.15300
O 	O 	0.28290 0.62320 0.03653 -0.35900
O 	O 	0.37438 0.53375 0.10859 -0.41300
C 	C 	0.14334 0.40130 0.05150 0.30600
C 	C 	0.07298 0.35150 0.99940 -0.08500
C 	C 	0.08730 0.27540 0.94300 0.00900
H 	H 	0.14140 0.25670 0.93240 0.03100
C 	C 	0.02162 0.22670 0.90230 -0.09000
H 	H 	0.03210 0.17610 0.86390 0.05000
C 	C 	0.93967 0.25368 0.91880 0.02100
C 	C 	0.92540 0.33050 0.97370 -0.08700
H 	H 	0.87130 0.34940 0.98410 0.06500
C 	C 	0.99124 0.37970 0.01360 0.01200
H 	H 	0.98090 0.43130 0.04950 0.04600
C 	C 	0.87027 0.20214 0.87820 0.05500
C 	C 	0.87134 0.12614 0.81910 -0.03500
H 	H 	0.91850 0.09620 0.79750 0.01100
C 	C 	0.74300 0.16560 0.83770 0.12000
H 	H 	0.68570 0.16800 0.83020 -0.03500
N 	N 	0.79016 0.10222 0.79750 -0.25700
N 	N 	0.78824 0.22415 0.88920 -0.22200
H 	H 	0.76960 0.26840 0.92360 0.14800
O 	O 	0.21710 0.37680 0.03653 -0.36000
O 	O 	0.12562 0.46625 0.10859 -0.41300
Cd	Cd	0.75000 -0.00000 0.67472 1.18000
Cd	Cd	0.25000 0.50000 0.17472 1.21700
