data_crystal

_cell_length_a 11.32200
_cell_length_b 12.13900
_cell_length_c 23.31100
_cell_angle_alpha 83.58600
_cell_angle_beta  81.75300
_cell_angle_gamma 71.16900

_symmetry_space_group_name_	'P 1'
_symmetry_space_group_name_H-M	'P 1'

loop_
_symmetry_equiv_pos_as_xyz
  x,y,z

loop_
_atom_site_label
_atom_site_type_symbol
_atom_site_fract_x
_atom_site_fract_y
_atom_site_fract_z
_atom_site_charge
Ce	Ce	0.25618 0.23642 0.75883 2.13000
Ce	Ce	0.74382 0.76358 0.24117 2.13300
Cu	Cu	0.69190 0.63030 0.47217 0.88800
Cu	Cu	0.89232 0.25578 0.24516 0.89800
Cu	Cu	0.10768 0.74422 0.75484 0.89700
Cu	Cu	0.30810 0.36970 0.52783 0.88700
Cu	Cu	0.50000 0.00000 -0.00000 0.81400
Si	Si	0.86930 0.28670 0.73760 2.10900
Si	Si	0.13070 0.71330 0.26240 2.11000
H 	H 	0.25310 0.11070 0.38820 0.00200
H 	H 	0.24860 0.89550 0.48290 0.02100
H 	H 	0.24960 0.96610 0.96360 -0.00700
H 	H 	0.91470 0.17050 0.00880 0.07100
H 	H 	0.67840 0.78650 0.06830 -0.04200
H 	H 	0.06120 0.36850 0.48520 0.00700
H 	H 	0.74690 0.88930 0.61180 0.01800
H 	H 	0.08530 0.82950 0.99120 0.09700
H 	H 	0.92650 0.76080 0.67260 0.03000
H 	H 	0.27970 0.75320 0.83520 0.02600
H 	H 	0.58900 0.73850 0.95120 0.01700
H 	H 	0.32160 0.21350 0.93170 -0.05100
H 	H 	0.90450 0.70820 0.04220 0.03200
H 	H 	0.07350 0.23920 0.32740 0.03200
H 	H 	0.28330 0.73940 0.64800 0.03500
H 	H 	0.72030 0.24680 0.16480 0.02100
H 	H 	0.92570 0.77060 0.86050 0.04000
H 	H 	0.09550 0.29180 0.95780 0.02900
H 	H 	0.53190 0.16130 0.57010 -0.00400
H 	H 	0.53880 0.38650 0.43560 -0.00500
H 	H 	0.75300 0.93920 0.91670 -0.02200
H 	H 	0.41100 0.26150 0.04880 0.00800
H 	H 	0.93880 0.63150 0.51480 0.00900
H 	H 	0.07430 0.22940 0.13950 0.03500
H 	H 	0.10830 0.74190 0.51190 0.08300
H 	H 	0.45030 0.64930 0.91800 0.01500
H 	H 	0.46810 0.83870 0.42990 0.00300
H 	H 	0.60320 0.84400 0.55660 0.01900
H 	H 	0.54970 0.35070 0.08200 0.01200
H 	H 	0.46120 0.61350 0.56440 -0.00500
H 	H 	0.24700 0.06080 0.08330 -0.03800
H 	H 	0.75040 0.03390 0.03640 -0.03200
H 	H 	0.75140 0.10450 0.51710 0.01100
H 	H 	0.71670 0.26060 0.35200 0.03400
H 	H 	0.39680 0.15600 0.44340 0.01100
H 	H 	0.89170 0.25810 0.48810 0.08600
W 	W 	0.64737 0.56704 0.73114 1.03800
W 	W 	0.03331 0.87031 0.38876 1.05600
W 	W 	0.44112 0.66786 0.28220 1.33900
W 	W 	0.78520 0.03353 0.71901 0.99600
W 	W 	0.91485 0.98821 0.26460 1.34700
W 	W 	0.93043 0.61678 0.36715 1.36900
W 	W 	0.31911 0.81499 0.14462 1.00800
W 	W 	0.26055 0.57560 0.39177 1.32200
W 	W 	0.06957 0.38322 0.63285 1.36100
W 	W 	0.98660 0.15815 0.86862 1.04100
W 	W 	0.76303 0.42092 0.86939 1.05000
W 	W 	0.35263 0.43296 0.26886 1.03100
W 	W 	0.68089 0.18501 0.85538 1.00300
W 	W 	0.21480 0.96647 0.28099 1.05600
W 	W 	0.01865 0.48595 0.24556 1.35200
W 	W 	0.23697 0.57908 0.13061 1.03900
W 	W 	0.55888 0.33214 0.71780 1.33600
W 	W 	0.73945 0.42440 0.60823 1.32200
W 	W 	0.08515 0.01179 0.73540 1.26700
W 	W 	0.96669 0.12969 0.61124 1.05300
W 	W 	0.98135 0.51405 0.75444 1.36500
W 	W 	0.01340 0.84185 0.13138 1.03500
C 	C 	0.99650 0.77570 0.87460 -0.03400
C 	C 	0.78990 0.25650 0.36700 -0.04200
C 	C 	0.31100 0.19400 0.44510 -0.00500
C 	C 	0.23820 0.10790 0.04890 0.08400
C 	C 	0.15290 0.23700 0.97980 -0.01900
C 	C 	0.21150 0.74370 0.57500 0.10400
C 	C 	0.76810 0.83200 0.58520 0.00800
C 	C 	0.10720 0.74610 0.55160 -0.15400
C 	C 	0.89280 0.25390 0.44840 -0.16400
C 	C 	0.00020 0.24430 0.35220 -0.01700
C 	C 	0.49700 0.22600 0.05060 -0.02800
C 	C 	0.44130 0.80200 0.46410 0.00400
C 	C 	0.50300 0.77400 0.94940 -0.02200
C 	C 	0.87240 0.69040 0.53190 0.11000
C 	C 	0.79960 0.20860 0.08350 0.08100
C 	C 	0.98870 0.79890 0.93150 0.11600
C 	C 	0.21010 0.74350 0.63300 -0.03400
C 	C 	0.00350 0.22430 0.12540 -0.04000
C 	C 	0.09050 0.81010 0.95320 -0.17500
C 	C 	0.90950 0.18990 0.04680 -0.16100
C 	C 	0.57300 0.27600 0.06900 -0.00500
C 	C 	0.27750 0.19200 0.96550 0.02200
C 	C 	0.79540 0.23380 0.14050 -0.04500
C 	C 	-0.00000 0.75490 0.58960 0.09000
C 	C 	0.72250 0.80800 0.03450 -0.01100
C 	C 	0.78850 0.25630 0.42500 0.10600
C 	C 	0.20040 0.79140 0.91650 0.09800
C 	C 	0.31700 0.83200 0.49240 0.01600
C 	C 	0.23190 0.16800 0.41480 0.00500
C 	C 	0.84710 0.76300 0.02020 -0.04900
C 	C 	0.68250 0.10000 0.04370 0.05900
C 	C 	0.12760 0.30960 0.46810 0.10800
C 	C 	0.31750 0.90000 0.95630 0.07100
C 	C 	0.99980 0.75570 0.64780 0.00900
C 	C 	0.01130 0.20110 0.06850 0.09100
C 	C 	0.20460 0.76620 0.85950 -0.04600
C 	C 	0.55870 0.19800 0.53590 0.00000
C 	C 	0.76180 0.89210 0.95110 0.10200
C 	C 	0.42700 0.72400 0.93100 0.00400
C 	C 	0.56290 0.32260 0.46210 0.10100
C 	C 	-0.00000 0.24510 0.41040 0.10200
C 	C 	0.68900 0.80600 0.55490 0.00100
C 	C 	0.68300 0.16800 0.50760 0.01300
C 	C 	0.43710 0.67740 0.53790 0.10300
N 	N 	0.88430 0.75960 0.56950 -0.14000
N 	N 	0.10290 0.76010 0.83880 -0.19000
N 	N 	0.24630 0.28390 0.47840 -0.22400
N 	N 	0.87160 0.81550 0.96570 -0.13000
N 	N 	0.43620 0.88620 0.96550 -0.22400
N 	N 	0.48430 0.28980 0.50450 -0.23500
N 	N 	0.89710 0.23990 0.16120 -0.19000
N 	N 	0.31060 0.80270 0.93510 -0.14300
N 	N 	0.68940 0.19730 0.06490 -0.14400
N 	N 	0.89360 0.25110 0.33070 -0.18400
N 	N 	0.11570 0.24040 0.43050 -0.14700
N 	N 	0.12840 0.18450 0.03430 -0.15200
N 	N 	0.66870 0.89120 0.99240 -0.23300
N 	N 	0.56380 0.11380 0.03450 -0.24400
N 	N 	0.10640 0.74890 0.66930 -0.18900
N 	N 	0.51570 0.71020 0.49550 -0.23400
N 	N 	0.32030 0.74890 0.53660 -0.14400
N 	N 	0.75370 0.71610 0.52160 -0.22300
N 	N 	0.67970 0.25110 0.46340 -0.14600
N 	N 	0.33130 0.10880 0.00760 -0.27400
O 	O 	0.89250 0.29860 0.90600 -0.43600
O 	O 	0.91500 0.15920 0.71130 -0.79600
O 	O 	0.65380 0.17940 0.70120 -0.52000
O 	O 	0.82360 0.26420 0.59780 -0.48500
O 	O 	0.73900 0.07640 0.79720 -0.49500
O 	O 	0.83690 0.26940 0.80690 -0.78000
O 	O 	0.18010 0.88210 0.10860 -0.43300
O 	O 	0.10370 0.21460 0.83020 -0.64100
O 	O 	0.66320 0.50250 0.81030 -0.47100
O 	O 	0.19300 0.87000 0.74260 -0.49900
O 	O 	0.85020 0.04550 0.63860 -0.45000
O 	O 	0.89050 0.44490 0.61150 -0.49100
O 	O 	0.13530 0.43200 0.56640 -0.51700
O 	O 	0.01320 0.34870 0.23290 -0.52700
O 	O 	0.17640 0.73580 0.40220 -0.48500
O 	O 	0.58520 0.38250 0.63790 -0.46300
O 	O 	0.02130 0.65030 0.27960 -0.84800
O 	O 	0.93950 0.94010 0.73640 -0.45100
O 	O 	0.34660 0.67030 0.10810 -0.44600
O 	O 	0.65340 0.32970 0.89190 -0.43800
O 	O 	0.97870 0.34970 0.72040 -0.84300
O 	O 	0.16310 0.73060 0.19310 -0.78100
O 	O 	0.03020 0.52140 0.67160 -0.48200
O 	O 	0.13480 0.42590 0.76830 -0.62400
O 	O 	0.98680 0.65130 0.76710 -0.52200
O 	O 	0.81990 0.11790 0.89140 -0.43600
O 	O 	0.18030 0.10190 0.73120 -0.67200
O 	O 	0.65510 0.56540 0.64870 -0.45900
O 	O 	0.10750 0.70140 0.09400 -0.44700
O 	O 	0.81970 0.89810 0.26880 -0.67400
O 	O 	0.74460 0.36810 0.70860 -0.81200
O 	O 	0.10470 0.52770 0.17650 -0.50900
O 	O 	0.26100 0.92360 0.20280 -0.49000
O 	O 	0.06050 0.05990 0.26360 -0.50900
O 	O 	0.10950 0.55510 0.38850 -0.49500
O 	O 	0.20820 0.31280 0.66700 -0.61800
O 	O 	0.29620 0.52360 0.46160 -0.47500
O 	O 	0.94720 0.75980 0.38580 -0.50700
O 	O 	0.98290 0.95650 0.18680 -0.48600
O 	O 	0.01710 0.04350 0.81320 -0.50100
O 	O 	0.19410 0.42470 0.27050 -0.47800
O 	O 	0.41740 0.71420 0.20430 -0.52500
O 	O 	0.59550 0.67150 0.28030 -0.64700
O 	O 	0.08730 0.01420 0.65260 -0.46900
O 	O 	0.34490 0.43460 0.35130 -0.46000
O 	O 	0.79180 0.68720 0.33300 -0.61700
O 	O 	0.89530 0.47230 0.82350 -0.50800
O 	O 	0.25540 0.63190 0.29140 -0.81300
O 	O 	0.96980 0.47860 0.32840 -0.47600
O 	O 	0.08500 0.84080 0.28870 -0.80600
O 	O 	0.86470 0.56800 0.43360 -0.51600
O 	O 	0.33680 0.49750 0.18970 -0.47100
O 	O 	0.58260 0.28580 0.79570 -0.52500
O 	O 	0.48330 0.50880 0.26420 -0.45600
O 	O 	0.80700 0.13000 0.25740 -0.53600
O 	O 	0.89630 0.78540 0.16980 -0.63200
O 	O 	0.91270 0.98580 0.34740 -0.45300
O 	O 	0.51670 0.49120 0.73580 -0.45500
O 	O 	0.40450 0.32850 0.71970 -0.64900
O 	O 	0.86520 0.57410 0.23170 -0.61900
O 	O 	0.34620 0.82060 0.29880 -0.52400
O 	O 	0.14980 0.95450 0.36140 -0.44100
O 	O 	0.70380 0.47640 0.53840 -0.47500
O 	O 	0.05280 0.24020 0.61420 -0.51200
O 	O 	0.41480 0.61750 0.36210 -0.46300
O 	O 	0.80590 0.57530 0.72950 -0.47700
