data_crystal

_cell_length_a 23.90110
_cell_length_b 34.63950
_cell_length_c 13.45530
_cell_angle_alpha 90.00000
_cell_angle_beta  90.00000
_cell_angle_gamma 90.00000

_symmetry_space_group_name_	'P 1'
_symmetry_space_group_name_H-M	'P 1'

loop_
_symmetry_equiv_pos_as_xyz
  x,y,z

loop_
_atom_site_label
_atom_site_type_symbol
_atom_site_fract_x
_atom_site_fract_y
_atom_site_fract_z
_atom_site_charge
C 	C 	0.30508 0.43955 0.57735 0.02400
H 	H 	0.32820 0.45430 0.53690 0.01200
C 	C 	0.31341 0.43417 0.68109 -0.03800
H 	H 	0.34210 0.44450 0.71970 0.04300
C 	C 	0.27112 0.41096 0.71251 -0.10200
H 	H 	0.26540 0.40230 0.77710 0.07000
C 	C 	0.23725 0.40237 0.62866 0.09900
C 	C 	0.18937 0.37874 0.62600 -0.11900
C 	C 	0.15852 0.36849 0.54353 0.09700
C 	C 	0.10821 0.34586 0.54009 -0.08300
H 	H 	0.09000 0.33500 0.59430 0.06900
C 	C 	0.09187 0.34319 0.44249 -0.06000
H 	H 	0.06100 0.33000 0.41750 0.07700
C 	C 	0.13185 0.36466 0.38799 0.03800
H 	H 	0.13060 0.36800 0.31940 0.00500
C 	C 	0.16924 0.36375 0.72374 0.05200
C 	C 	0.15393 0.38926 0.79938 -0.06000
H 	H 	0.15690 0.41570 0.78860 0.05300
C 	C 	0.13437 0.37606 0.89021 -0.08700
H 	H 	0.12400 0.39340 0.93980 0.06700
C 	C 	0.13055 0.33646 0.90581 0.09300
C 	C 	0.14551 0.31032 0.83199 -0.08700
H 	H 	0.14290 0.28390 0.84330 0.06800
C 	C 	0.16438 0.32430 0.74098 -0.06200
H 	H 	0.17390 0.30700 0.69090 0.05500
C 	C 	0.11564 0.33867 0.09222 -0.02000
H 	H 	0.13410 0.36140 0.10840 0.03800
C 	C 	0.08867 0.31470 0.15430 0.01300
H 	H 	0.08590 0.31830 0.22260 0.03000
C 	C 	0.07961 0.28934 0.01031 0.05300
H 	H 	0.06980 0.27270 0.95890 0.02800
C 	C 	0.17746 0.14255 0.92087 0.04300
H 	H 	0.17680 0.13900 0.98940 0.01100
C 	C 	0.14389 0.17003 0.87130 -0.05600
H 	H 	0.11850 0.18720 0.89960 0.07000
C 	C 	0.15681 0.16592 0.77250 -0.08600
H 	H 	0.14170 0.17990 0.72000 0.07000
C 	C 	0.19784 0.13619 0.76575 0.09600
C 	C 	0.22218 0.12172 0.67880 -0.11300
C 	C 	0.26636 0.09484 0.67296 0.09400
C 	C 	0.28794 0.07792 0.58439 -0.09600
H 	H 	0.27480 0.08180 0.52010 0.06600
C 	C 	0.33183 0.05474 0.61195 -0.04900
H 	H 	0.35440 0.04000 0.57050 0.04300
C 	C 	0.33555 0.05792 0.71565 0.03100
H 	H 	0.36230 0.04520 0.75370 0.01000
C 	C 	0.19955 0.13565 0.58249 0.05100
C 	C 	0.14439 0.12826 0.55660 -0.05800
H 	H 	0.12110 0.11550 0.60130 0.05300
C 	C 	0.12341 0.13969 0.46430 -0.09300
H 	H 	0.08700 0.13360 0.44590 0.06500
C 	C 	0.15752 0.16000 0.40145 0.10000
C 	C 	0.21213 0.16787 0.42530 -0.09300
H 	H 	0.23500 0.18120 0.38100 0.07000
C 	C 	0.23273 0.15575 0.51599 -0.05800
H 	H 	0.26960 0.16120 0.53270 0.05700
C 	C 	0.16186 0.17813 0.21897 0.00000
H 	H 	0.19860 0.17160 0.20390 0.03300
C 	C 	0.12366 0.19393 0.15780 0.00400
H 	H 	0.13010 0.20020 0.09160 0.02200
C 	C 	0.08252 0.18768 0.29799 0.09900
H 	H 	0.05620 0.18880 0.34880 -0.00300
C 	C 	0.12484 0.46583 0.46879 0.09200
H 	H 	0.10670 0.44240 0.47950 -0.00900
C 	C 	0.33217 0.46630 0.31650 0.09900
H 	H 	0.34930 0.44290 0.30100 -0.01100
N 	N 	0.25978 0.42073 0.54551 -0.23600
N 	N 	0.17143 0.37951 0.44620 -0.24600
N 	N 	0.11003 0.32214 0.99850 -0.11900
N 	N 	0.06584 0.28421 0.10382 -0.21000
N 	N 	0.20971 0.12244 0.86118 -0.24400
N 	N 	0.29686 0.08106 0.75368 -0.23400
N 	N 	0.13479 0.17370 0.30900 -0.13700
N 	N 	0.07340 0.19955 0.20702 -0.22300
N 	N 	0.28163 0.46578 0.35992 -0.23200
N 	N 	0.17763 0.46591 0.43608 -0.22800
Ni	Ni	0.23096 0.41706 0.40097 1.06600
C 	C 	0.80508 0.93955 0.07735 0.02400
H 	H 	0.82820 0.95430 0.03690 0.01100
C 	C 	0.81341 0.93417 0.18109 -0.03800
H 	H 	0.84210 0.94450 0.21970 0.04300
C 	C 	0.77112 0.91096 0.21251 -0.10100
H 	H 	0.76540 0.90230 0.27710 0.07000
C 	C 	0.73725 0.90237 0.12866 0.09800
C 	C 	0.68937 0.87874 0.12600 -0.11800
C 	C 	0.65852 0.86849 0.04353 0.09400
C 	C 	0.60821 0.84586 0.04009 -0.10100
H 	H 	0.59000 0.83500 0.09430 0.07300
C 	C 	0.59187 0.84319 0.94249 -0.04000
H 	H 	0.56100 0.83000 0.91750 0.07300
C 	C 	0.63185 0.86466 0.88799 0.03200
H 	H 	0.63060 0.86800 0.81940 0.00800
C 	C 	0.66924 0.86375 0.22374 0.05100
C 	C 	0.65393 0.88926 0.29938 -0.06000
H 	H 	0.65690 0.91570 0.28860 0.05200
C 	C 	0.63437 0.87606 0.39021 -0.08900
H 	H 	0.62400 0.89340 0.43980 0.06400
C 	C 	0.63055 0.83646 0.40581 0.09300
C 	C 	0.64551 0.81032 0.33199 -0.09000
H 	H 	0.64290 0.78390 0.34330 0.06700
C 	C 	0.66438 0.82430 0.24098 -0.06200
H 	H 	0.67390 0.80700 0.19090 0.05400
C 	C 	0.61564 0.83867 0.59222 -0.00600
H 	H 	0.63410 0.86140 0.60840 0.03600
C 	C 	0.58867 0.81470 0.65430 0.00800
H 	H 	0.58590 0.81830 0.72260 0.03300
C 	C 	0.57961 0.78934 0.51031 0.08600
H 	H 	0.56980 0.77270 0.45890 0.01100
C 	C 	0.67746 0.64255 0.42087 0.04200
H 	H 	0.67680 0.63900 0.48940 0.00800
C 	C 	0.64389 0.67003 0.37130 -0.05600
H 	H 	0.61850 0.68720 0.39960 0.06800
C 	C 	0.65681 0.66592 0.27250 -0.08900
H 	H 	0.64170 0.67990 0.22000 0.07000
C 	C 	0.69784 0.63619 0.26575 0.09900
C 	C 	0.72218 0.62172 0.17880 -0.12300
C 	C 	0.76636 0.59484 0.17296 0.09700
C 	C 	0.78794 0.57792 0.08439 -0.09900
H 	H 	0.77480 0.58180 0.02010 0.06500
C 	C 	0.83183 0.55474 0.11195 -0.04900
H 	H 	0.85440 0.54000 0.07050 0.04100
C 	C 	0.83555 0.55792 0.21565 0.03100
H 	H 	0.86230 0.54520 0.25370 0.01000
C 	C 	0.69955 0.63565 0.08249 0.07600
C 	C 	0.64439 0.62826 0.05660 -0.09400
H 	H 	0.62110 0.61550 0.10130 0.06400
C 	C 	0.62341 0.63969 0.96430 -0.05600
H 	H 	0.58700 0.63360 0.94590 0.05600
C 	C 	0.65752 0.66000 0.90145 0.07800
C 	C 	0.71213 0.66787 0.92530 -0.05500
H 	H 	0.73500 0.68120 0.88100 0.05900
C 	C 	0.73273 0.65575 0.01599 -0.09600
H 	H 	0.76960 0.66120 0.03270 0.06800
C 	C 	0.66186 0.67813 0.71897 0.00100
H 	H 	0.69860 0.67160 0.70390 0.03400
C 	C 	0.62366 0.69393 0.65780 0.00500
H 	H 	0.63010 0.70020 0.59160 0.02500
C 	C 	0.58252 0.68768 0.79799 0.09900
H 	H 	0.55620 0.68880 0.84880 0.00000
C 	C 	0.62484 0.96583 0.96879 0.07900
H 	H 	0.60670 0.94240 0.97950 -0.00200
C 	C 	0.83217 0.96630 0.81650 0.10100
H 	H 	0.84930 0.94290 0.80100 -0.01000
N 	N 	0.75978 0.92073 0.04551 -0.23900
N 	N 	0.67143 0.87951 0.94620 -0.24100
N 	N 	0.61003 0.82214 0.49850 -0.13300
N 	N 	0.56584 0.78421 0.60382 -0.21200
N 	N 	0.70971 0.62244 0.36118 -0.24500
N 	N 	0.79686 0.58106 0.25368 -0.23500
N 	N 	0.63479 0.67370 0.80900 -0.13300
N 	N 	0.57340 0.69955 0.70702 -0.22100
N 	N 	0.78163 0.96578 0.85992 -0.23100
N 	N 	0.67763 0.96591 0.93608 -0.22500
Ni	Ni	0.73096 0.91706 0.90097 1.06800
C 	C 	0.69492 0.56045 0.57735 0.02500
H 	H 	0.67180 0.54570 0.53690 0.01300
C 	C 	0.68659 0.56583 0.68109 -0.03700
H 	H 	0.65790 0.55550 0.71970 0.04400
C 	C 	0.72888 0.58904 0.71251 -0.10100
H 	H 	0.73460 0.59770 0.77710 0.07100
C 	C 	0.76275 0.59763 0.62866 0.10000
C 	C 	0.81063 0.62126 0.62600 -0.11800
C 	C 	0.84148 0.63151 0.54353 0.09800
C 	C 	0.89179 0.65414 0.54009 -0.08200
H 	H 	0.91000 0.66500 0.59430 0.07000
C 	C 	0.90813 0.65681 0.44249 -0.06000
H 	H 	0.93900 0.67000 0.41750 0.08000
C 	C 	0.86815 0.63534 0.38799 0.03900
H 	H 	0.86940 0.63200 0.31940 0.00600
C 	C 	0.83076 0.63625 0.72374 0.05200
C 	C 	0.84607 0.61074 0.79938 -0.06000
H 	H 	0.84310 0.58430 0.78860 0.05400
C 	C 	0.86563 0.62394 0.89021 -0.08800
H 	H 	0.87600 0.60660 0.93980 0.06800
C 	C 	0.86945 0.66354 0.90581 0.09400
C 	C 	0.85449 0.68968 0.83199 -0.08800
H 	H 	0.85710 0.71610 0.84330 0.06800
C 	C 	0.83562 0.67570 0.74098 -0.06100
H 	H 	0.82610 0.69300 0.69090 0.05500
C 	C 	0.88436 0.66133 0.09222 -0.01600
H 	H 	0.86590 0.63860 0.10840 0.03800
C 	C 	0.91133 0.68530 0.15430 0.01300
H 	H 	0.91410 0.68170 0.22260 0.03200
C 	C 	0.92039 0.71066 0.01031 0.06100
H 	H 	0.93020 0.72730 0.95890 0.02600
C 	C 	0.82254 0.85745 0.92087 0.04400
H 	H 	0.82320 0.86100 0.98940 0.01100
C 	C 	0.85611 0.82997 0.87130 -0.05500
H 	H 	0.88150 0.81280 0.89960 0.07100
C 	C 	0.84319 0.83408 0.77250 -0.08600
H 	H 	0.85830 0.82010 0.72000 0.07000
C 	C 	0.80216 0.86381 0.76575 0.09600
C 	C 	0.77782 0.87828 0.67880 -0.11300
C 	C 	0.73364 0.90516 0.67296 0.09400
C 	C 	0.71206 0.92208 0.58439 -0.09600
H 	H 	0.72520 0.91820 0.52010 0.06600
C 	C 	0.66817 0.94526 0.61195 -0.04900
H 	H 	0.64560 0.96000 0.57050 0.04300
C 	C 	0.66445 0.94208 0.71565 0.03100
H 	H 	0.63770 0.95480 0.75370 0.01000
C 	C 	0.80045 0.86435 0.58249 0.05100
C 	C 	0.85561 0.87174 0.55660 -0.05700
H 	H 	0.87890 0.88450 0.60130 0.05400
C 	C 	0.87659 0.86031 0.46430 -0.09300
H 	H 	0.91300 0.86640 0.44590 0.06800
C 	C 	0.84248 0.84000 0.40145 0.10100
C 	C 	0.78787 0.83213 0.42530 -0.09300
H 	H 	0.76500 0.81880 0.38100 0.07000
C 	C 	0.76727 0.84425 0.51599 -0.05800
H 	H 	0.73040 0.83880 0.53270 0.05700
C 	C 	0.83814 0.82187 0.21897 0.00100
H 	H 	0.80140 0.82840 0.20390 0.03300
C 	C 	0.87634 0.80607 0.15780 0.00400
H 	H 	0.86990 0.79980 0.09160 0.02400
C 	C 	0.91748 0.81232 0.29799 0.10000
H 	H 	0.94380 0.81120 0.34880 0.00100
C 	C 	0.87516 0.53417 0.46879 0.09300
H 	H 	0.89330 0.55760 0.47950 -0.00800
C 	C 	0.66783 0.53370 0.31650 0.09900
H 	H 	0.65070 0.55710 0.30100 -0.01100
N 	N 	0.74022 0.57927 0.54551 -0.23600
N 	N 	0.82857 0.62049 0.44620 -0.24600
N 	N 	0.88997 0.67786 0.99850 -0.12100
N 	N 	0.93416 0.71579 0.10382 -0.20800
N 	N 	0.79029 0.87756 0.86118 -0.24400
N 	N 	0.70314 0.91894 0.75368 -0.23400
N 	N 	0.86521 0.82630 0.30900 -0.13700
N 	N 	0.92660 0.80045 0.20702 -0.22000
N 	N 	0.71837 0.53422 0.35992 -0.23200
N 	N 	0.82237 0.53409 0.43608 -0.22800
Ni	Ni	0.76904 0.58294 0.40097 1.06600
C 	C 	0.19492 0.06045 0.07735 0.02400
H 	H 	0.17180 0.04570 0.03690 0.01000
C 	C 	0.18659 0.06583 0.18109 -0.03900
H 	H 	0.15790 0.05550 0.21970 0.04200
C 	C 	0.22888 0.08904 0.21251 -0.10100
H 	H 	0.23460 0.09770 0.27710 0.07000
C 	C 	0.26275 0.09763 0.12866 0.09700
C 	C 	0.31063 0.12126 0.12600 -0.11800
C 	C 	0.34148 0.13151 0.04353 0.09400
C 	C 	0.39179 0.15414 0.04009 -0.10200
H 	H 	0.41000 0.16500 0.09430 0.07400
C 	C 	0.40813 0.15681 0.94249 -0.03900
H 	H 	0.43900 0.17000 0.91750 0.07200
C 	C 	0.36815 0.13534 0.88799 0.03100
H 	H 	0.36940 0.13200 0.81940 0.00800
C 	C 	0.33076 0.13625 0.22374 0.05100
C 	C 	0.34607 0.11074 0.29938 -0.06000
H 	H 	0.34310 0.08430 0.28860 0.05200
C 	C 	0.36563 0.12394 0.39021 -0.09000
H 	H 	0.37600 0.10660 0.43980 0.06400
C 	C 	0.36945 0.16354 0.40581 0.09300
C 	C 	0.35449 0.18968 0.33199 -0.09000
H 	H 	0.35710 0.21610 0.34330 0.06700
C 	C 	0.33562 0.17570 0.24098 -0.06200
H 	H 	0.32610 0.19300 0.19090 0.05400
C 	C 	0.38436 0.16133 0.59222 -0.00600
H 	H 	0.36590 0.13860 0.60840 0.03600
C 	C 	0.41133 0.18530 0.65430 0.00800
H 	H 	0.41410 0.18170 0.72260 0.03300
C 	C 	0.42039 0.21066 0.51031 0.08600
H 	H 	0.43020 0.22730 0.45890 0.01100
C 	C 	0.32254 0.35745 0.42087 0.04200
H 	H 	0.32320 0.36100 0.48940 0.00800
C 	C 	0.35611 0.32997 0.37130 -0.05600
H 	H 	0.38150 0.31280 0.39960 0.06800
C 	C 	0.34319 0.33408 0.27250 -0.08900
H 	H 	0.35830 0.32010 0.22000 0.07000
C 	C 	0.30216 0.36381 0.26575 0.09900
C 	C 	0.27782 0.37828 0.17880 -0.12400
C 	C 	0.23364 0.40516 0.17296 0.09800
C 	C 	0.21206 0.42208 0.08439 -0.10000
H 	H 	0.22520 0.41820 0.02010 0.06400
C 	C 	0.16817 0.44526 0.11195 -0.04900
H 	H 	0.14560 0.46000 0.07050 0.04000
C 	C 	0.16445 0.44208 0.21565 0.03000
H 	H 	0.13770 0.45480 0.25370 0.00900
C 	C 	0.30045 0.36435 0.08249 0.07800
C 	C 	0.35561 0.37174 0.05660 -0.09800
H 	H 	0.37890 0.38450 0.10130 0.06500
C 	C 	0.37659 0.36031 0.96430 -0.05300
H 	H 	0.41300 0.36640 0.94590 0.05500
C 	C 	0.34248 0.34000 0.90145 0.07600
C 	C 	0.28787 0.33213 0.92530 -0.05100
H 	H 	0.26500 0.31880 0.88100 0.05800
C 	C 	0.26727 0.34425 0.01599 -0.10000
H 	H 	0.23040 0.33880 0.03270 0.06900
C 	C 	0.33814 0.32187 0.71897 0.00100
H 	H 	0.30140 0.32840 0.70390 0.03400
C 	C 	0.37634 0.30607 0.65780 0.00500
H 	H 	0.36990 0.29980 0.59160 0.02500
C 	C 	0.41748 0.31232 0.79799 0.09900
H 	H 	0.44380 0.31120 0.84880 0.00000
C 	C 	0.37516 0.03417 0.96879 0.07900
H 	H 	0.39330 0.05760 0.97950 -0.00100
C 	C 	0.16783 0.03370 0.81650 0.10000
H 	H 	0.15070 0.05710 0.80100 -0.01100
N 	N 	0.24022 0.07927 0.04551 -0.23900
N 	N 	0.32857 0.12049 0.94620 -0.24000
N 	N 	0.38997 0.17786 0.49850 -0.13300
N 	N 	0.43416 0.21579 0.60382 -0.21200
N 	N 	0.29029 0.37756 0.36118 -0.24500
N 	N 	0.20314 0.41894 0.25368 -0.23500
N 	N 	0.36521 0.32630 0.80900 -0.13200
N 	N 	0.42660 0.30045 0.70702 -0.22100
N 	N 	0.21837 0.03422 0.85992 -0.23100
N 	N 	0.32237 0.03409 0.93608 -0.22500
Ni	Ni	0.26904 0.08294 0.90097 1.06800
C 	C 	0.30508 0.56045 0.57735 0.02500
H 	H 	0.32820 0.54570 0.53690 0.01300
C 	C 	0.31341 0.56583 0.68109 -0.03700
H 	H 	0.34210 0.55550 0.71970 0.04400
C 	C 	0.27112 0.58904 0.71251 -0.10100
H 	H 	0.26540 0.59770 0.77710 0.07100
C 	C 	0.23725 0.59763 0.62866 0.10000
C 	C 	0.18937 0.62126 0.62600 -0.11800
C 	C 	0.15852 0.63151 0.54353 0.09700
C 	C 	0.10821 0.65414 0.54009 -0.08300
H 	H 	0.09000 0.66500 0.59430 0.06900
C 	C 	0.09187 0.65681 0.44249 -0.06000
H 	H 	0.06100 0.67000 0.41750 0.07700
C 	C 	0.13185 0.63534 0.38799 0.03800
H 	H 	0.13060 0.63200 0.31940 0.00500
C 	C 	0.16924 0.63625 0.72374 0.05200
C 	C 	0.15393 0.61074 0.79938 -0.06000
H 	H 	0.15690 0.58430 0.78860 0.05300
C 	C 	0.13437 0.62394 0.89021 -0.08700
H 	H 	0.12400 0.60660 0.93980 0.06700
C 	C 	0.13055 0.66354 0.90581 0.09300
C 	C 	0.14551 0.68968 0.83199 -0.08700
H 	H 	0.14290 0.71610 0.84330 0.06800
C 	C 	0.16438 0.67570 0.74098 -0.06200
H 	H 	0.17390 0.69300 0.69090 0.05500
C 	C 	0.11564 0.66133 0.09222 -0.02000
H 	H 	0.13410 0.63860 0.10840 0.03800
C 	C 	0.08867 0.68530 0.15430 0.01300
H 	H 	0.08590 0.68170 0.22260 0.03000
C 	C 	0.07961 0.71066 0.01031 0.05400
H 	H 	0.06980 0.72730 0.95890 0.02800
C 	C 	0.17746 0.85745 0.92087 0.04300
H 	H 	0.17680 0.86100 0.98940 0.01100
C 	C 	0.14389 0.82997 0.87130 -0.05600
H 	H 	0.11850 0.81280 0.89960 0.07000
C 	C 	0.15681 0.83408 0.77250 -0.08600
H 	H 	0.14170 0.82010 0.72000 0.07000
C 	C 	0.19784 0.86381 0.76575 0.09600
C 	C 	0.22218 0.87828 0.67880 -0.11300
C 	C 	0.26636 0.90516 0.67296 0.09400
C 	C 	0.28794 0.92208 0.58439 -0.09600
H 	H 	0.27480 0.91820 0.52010 0.06600
C 	C 	0.33183 0.94526 0.61195 -0.04900
H 	H 	0.35440 0.96000 0.57050 0.04300
C 	C 	0.33555 0.94208 0.71565 0.03100
H 	H 	0.36230 0.95480 0.75370 0.01000
C 	C 	0.19955 0.86435 0.58249 0.05100
C 	C 	0.14439 0.87174 0.55660 -0.05800
H 	H 	0.12110 0.88450 0.60130 0.05300
C 	C 	0.12341 0.86031 0.46430 -0.09300
H 	H 	0.08700 0.86640 0.44590 0.06500
C 	C 	0.15752 0.84000 0.40145 0.10000
C 	C 	0.21213 0.83213 0.42530 -0.09300
H 	H 	0.23500 0.81880 0.38100 0.07000
C 	C 	0.23273 0.84425 0.51599 -0.05800
H 	H 	0.26960 0.83880 0.53270 0.05700
C 	C 	0.16186 0.82187 0.21897 0.00000
H 	H 	0.19860 0.82840 0.20390 0.03300
C 	C 	0.12366 0.80607 0.15780 0.00400
H 	H 	0.13010 0.79980 0.09160 0.02200
C 	C 	0.08252 0.81232 0.29799 0.09900
H 	H 	0.05620 0.81120 0.34880 -0.00300
C 	C 	0.12484 0.53417 0.46879 0.09200
H 	H 	0.10670 0.55760 0.47950 -0.00900
C 	C 	0.33217 0.53370 0.31650 0.09900
H 	H 	0.34930 0.55710 0.30100 -0.01100
N 	N 	0.25978 0.57927 0.54551 -0.23600
N 	N 	0.17143 0.62049 0.44620 -0.24600
N 	N 	0.11003 0.67786 0.99850 -0.11900
N 	N 	0.06584 0.71579 0.10382 -0.21000
N 	N 	0.20971 0.87756 0.86118 -0.24400
N 	N 	0.29686 0.91894 0.75368 -0.23400
N 	N 	0.13479 0.82630 0.30900 -0.13700
N 	N 	0.07340 0.80045 0.20702 -0.22300
N 	N 	0.28163 0.53422 0.35992 -0.23200
N 	N 	0.17763 0.53409 0.43608 -0.22800
Ni	Ni	0.23096 0.58294 0.40097 1.06600
C 	C 	0.80508 0.06045 0.07735 0.02400
H 	H 	0.82820 0.04570 0.03690 0.01100
C 	C 	0.81341 0.06583 0.18109 -0.03800
H 	H 	0.84210 0.05550 0.21970 0.04300
C 	C 	0.77112 0.08904 0.21251 -0.10100
H 	H 	0.76540 0.09770 0.27710 0.07000
C 	C 	0.73725 0.09763 0.12866 0.09800
C 	C 	0.68937 0.12126 0.12600 -0.11800
C 	C 	0.65852 0.13151 0.04353 0.09400
C 	C 	0.60821 0.15414 0.04009 -0.10100
H 	H 	0.59000 0.16500 0.09430 0.07300
C 	C 	0.59187 0.15681 0.94249 -0.04000
H 	H 	0.56100 0.17000 0.91750 0.07300
C 	C 	0.63185 0.13534 0.88799 0.03200
H 	H 	0.63060 0.13200 0.81940 0.00800
C 	C 	0.66924 0.13625 0.22374 0.05100
C 	C 	0.65393 0.11074 0.29938 -0.06000
H 	H 	0.65690 0.08430 0.28860 0.05200
C 	C 	0.63437 0.12394 0.39021 -0.08900
H 	H 	0.62400 0.10660 0.43980 0.06400
C 	C 	0.63055 0.16354 0.40581 0.09300
C 	C 	0.64551 0.18968 0.33199 -0.09000
H 	H 	0.64290 0.21610 0.34330 0.06700
C 	C 	0.66438 0.17570 0.24098 -0.06200
H 	H 	0.67390 0.19300 0.19090 0.05400
C 	C 	0.61564 0.16133 0.59222 -0.00600
H 	H 	0.63410 0.13860 0.60840 0.03600
C 	C 	0.58867 0.18530 0.65430 0.00800
H 	H 	0.58590 0.18170 0.72260 0.03300
C 	C 	0.57961 0.21066 0.51031 0.08600
H 	H 	0.56980 0.22730 0.45890 0.01100
C 	C 	0.67746 0.35745 0.42087 0.04200
H 	H 	0.67680 0.36100 0.48940 0.00800
C 	C 	0.64389 0.32997 0.37130 -0.05600
H 	H 	0.61850 0.31280 0.39960 0.06800
C 	C 	0.65681 0.33408 0.27250 -0.08900
H 	H 	0.64170 0.32010 0.22000 0.07000
C 	C 	0.69784 0.36381 0.26575 0.09900
C 	C 	0.72218 0.37828 0.17880 -0.12300
C 	C 	0.76636 0.40516 0.17296 0.09700
C 	C 	0.78794 0.42208 0.08439 -0.09900
H 	H 	0.77480 0.41820 0.02010 0.06500
C 	C 	0.83183 0.44526 0.11195 -0.04900
H 	H 	0.85440 0.46000 0.07050 0.04100
C 	C 	0.83555 0.44208 0.21565 0.03100
H 	H 	0.86230 0.45480 0.25370 0.01000
C 	C 	0.69955 0.36435 0.08249 0.07600
C 	C 	0.64439 0.37174 0.05660 -0.09400
H 	H 	0.62110 0.38450 0.10130 0.06400
C 	C 	0.62341 0.36031 0.96430 -0.05600
H 	H 	0.58700 0.36640 0.94590 0.05600
C 	C 	0.65752 0.34000 0.90145 0.07800
C 	C 	0.71213 0.33213 0.92530 -0.05500
H 	H 	0.73500 0.31880 0.88100 0.05900
C 	C 	0.73273 0.34425 0.01599 -0.09600
H 	H 	0.76960 0.33880 0.03270 0.06800
C 	C 	0.66186 0.32187 0.71897 0.00100
H 	H 	0.69860 0.32840 0.70390 0.03400
C 	C 	0.62366 0.30607 0.65780 0.00500
H 	H 	0.63010 0.29980 0.59160 0.02500
C 	C 	0.58252 0.31232 0.79799 0.09900
H 	H 	0.55620 0.31120 0.84880 0.00000
C 	C 	0.62484 0.03417 0.96879 0.07900
H 	H 	0.60670 0.05760 0.97950 -0.00200
C 	C 	0.83217 0.03370 0.81650 0.10100
H 	H 	0.84930 0.05710 0.80100 -0.01000
N 	N 	0.75978 0.07927 0.04551 -0.23900
N 	N 	0.67143 0.12049 0.94620 -0.24100
N 	N 	0.61003 0.17786 0.49850 -0.13300
N 	N 	0.56584 0.21579 0.60382 -0.21200
N 	N 	0.70971 0.37756 0.36118 -0.24500
N 	N 	0.79686 0.41894 0.25368 -0.23500
N 	N 	0.63479 0.32630 0.80900 -0.13300
N 	N 	0.57340 0.30045 0.70702 -0.22100
N 	N 	0.78163 0.03422 0.85992 -0.23100
N 	N 	0.67763 0.03409 0.93608 -0.22500
Ni	Ni	0.73096 0.08294 0.90097 1.06800
C 	C 	0.69492 0.43955 0.57735 0.02500
H 	H 	0.67180 0.45430 0.53690 0.01300
C 	C 	0.68659 0.43417 0.68109 -0.03700
H 	H 	0.65790 0.44450 0.71970 0.04400
C 	C 	0.72888 0.41096 0.71251 -0.10100
H 	H 	0.73460 0.40230 0.77710 0.07100
C 	C 	0.76275 0.40237 0.62866 0.10000
C 	C 	0.81063 0.37874 0.62600 -0.11800
C 	C 	0.84148 0.36849 0.54353 0.09800
C 	C 	0.89179 0.34586 0.54009 -0.08200
H 	H 	0.91000 0.33500 0.59430 0.07000
C 	C 	0.90813 0.34319 0.44249 -0.06000
H 	H 	0.93900 0.33000 0.41750 0.08000
C 	C 	0.86815 0.36466 0.38799 0.03900
H 	H 	0.86940 0.36800 0.31940 0.00600
C 	C 	0.83076 0.36375 0.72374 0.05200
C 	C 	0.84607 0.38926 0.79938 -0.06000
H 	H 	0.84310 0.41570 0.78860 0.05400
C 	C 	0.86563 0.37606 0.89021 -0.08700
H 	H 	0.87600 0.39340 0.93980 0.06800
C 	C 	0.86945 0.33646 0.90581 0.09400
C 	C 	0.85449 0.31032 0.83199 -0.08800
H 	H 	0.85710 0.28390 0.84330 0.06800
C 	C 	0.83562 0.32430 0.74098 -0.06100
H 	H 	0.82610 0.30700 0.69090 0.05500
C 	C 	0.88436 0.33867 0.09222 -0.01600
H 	H 	0.86590 0.36140 0.10840 0.03800
C 	C 	0.91133 0.31470 0.15430 0.01300
H 	H 	0.91410 0.31830 0.22260 0.03200
C 	C 	0.92039 0.28934 0.01031 0.06100
H 	H 	0.93020 0.27270 0.95890 0.02600
C 	C 	0.82254 0.14255 0.92087 0.04400
H 	H 	0.82320 0.13900 0.98940 0.01100
C 	C 	0.85611 0.17003 0.87130 -0.05500
H 	H 	0.88150 0.18720 0.89960 0.07100
C 	C 	0.84319 0.16592 0.77250 -0.08600
H 	H 	0.85830 0.17990 0.72000 0.07000
C 	C 	0.80216 0.13619 0.76575 0.09600
C 	C 	0.77782 0.12172 0.67880 -0.11300
C 	C 	0.73364 0.09484 0.67296 0.09400
C 	C 	0.71206 0.07792 0.58439 -0.09600
H 	H 	0.72520 0.08180 0.52010 0.06600
C 	C 	0.66817 0.05474 0.61195 -0.04900
H 	H 	0.64560 0.04000 0.57050 0.04300
C 	C 	0.66445 0.05792 0.71565 0.03100
H 	H 	0.63770 0.04520 0.75370 0.01000
C 	C 	0.80045 0.13565 0.58249 0.05100
C 	C 	0.85561 0.12826 0.55660 -0.05700
H 	H 	0.87890 0.11550 0.60130 0.05400
C 	C 	0.87659 0.13969 0.46430 -0.09300
H 	H 	0.91300 0.13360 0.44590 0.06800
C 	C 	0.84248 0.16000 0.40145 0.10100
C 	C 	0.78787 0.16787 0.42530 -0.09300
H 	H 	0.76500 0.18120 0.38100 0.07000
C 	C 	0.76727 0.15575 0.51599 -0.05800
H 	H 	0.73040 0.16120 0.53270 0.05700
C 	C 	0.83814 0.17813 0.21897 0.00100
H 	H 	0.80140 0.17160 0.20390 0.03300
C 	C 	0.87634 0.19393 0.15780 0.00400
H 	H 	0.86990 0.20020 0.09160 0.02300
C 	C 	0.91748 0.18768 0.29799 0.10000
H 	H 	0.94380 0.18880 0.34880 0.00100
C 	C 	0.87516 0.46583 0.46879 0.09300
H 	H 	0.89330 0.44240 0.47950 -0.00800
C 	C 	0.66783 0.46630 0.31650 0.09900
H 	H 	0.65070 0.44290 0.30100 -0.01100
N 	N 	0.74022 0.42073 0.54551 -0.23600
N 	N 	0.82857 0.37951 0.44620 -0.24600
N 	N 	0.88997 0.32214 0.99850 -0.12100
N 	N 	0.93416 0.28421 0.10382 -0.20800
N 	N 	0.79029 0.12244 0.86118 -0.24400
N 	N 	0.70314 0.08106 0.75368 -0.23400
N 	N 	0.86521 0.17370 0.30900 -0.13700
N 	N 	0.92660 0.19955 0.20702 -0.22000
N 	N 	0.71837 0.46578 0.35992 -0.23200
N 	N 	0.82237 0.46591 0.43608 -0.22800
Ni	Ni	0.76904 0.41706 0.40097 1.06600
C 	C 	0.19492 0.93955 0.07735 0.02400
H 	H 	0.17180 0.95430 0.03690 0.01000
C 	C 	0.18659 0.93417 0.18109 -0.03900
H 	H 	0.15790 0.94450 0.21970 0.04200
C 	C 	0.22888 0.91096 0.21251 -0.10100
H 	H 	0.23460 0.90230 0.27710 0.07000
C 	C 	0.26275 0.90237 0.12866 0.09700
C 	C 	0.31063 0.87874 0.12600 -0.11800
C 	C 	0.34148 0.86849 0.04353 0.09400
C 	C 	0.39179 0.84586 0.04009 -0.10200
H 	H 	0.41000 0.83500 0.09430 0.07400
C 	C 	0.40813 0.84319 0.94249 -0.03900
H 	H 	0.43900 0.83000 0.91750 0.07300
C 	C 	0.36815 0.86466 0.88799 0.03100
H 	H 	0.36940 0.86800 0.81940 0.00800
C 	C 	0.33076 0.86375 0.22374 0.05100
C 	C 	0.34607 0.88926 0.29938 -0.06000
H 	H 	0.34310 0.91570 0.28860 0.05200
C 	C 	0.36563 0.87606 0.39021 -0.09000
H 	H 	0.37600 0.89340 0.43980 0.06400
C 	C 	0.36945 0.83646 0.40581 0.09300
C 	C 	0.35449 0.81032 0.33199 -0.09000
H 	H 	0.35710 0.78390 0.34330 0.06700
C 	C 	0.33562 0.82430 0.24098 -0.06200
H 	H 	0.32610 0.80700 0.19090 0.05400
C 	C 	0.38436 0.83867 0.59222 -0.00600
H 	H 	0.36590 0.86140 0.60840 0.03600
C 	C 	0.41133 0.81470 0.65430 0.00800
H 	H 	0.41410 0.81830 0.72260 0.03300
C 	C 	0.42039 0.78934 0.51031 0.08600
H 	H 	0.43020 0.77270 0.45890 0.01100
C 	C 	0.32254 0.64255 0.42087 0.04200
H 	H 	0.32320 0.63900 0.48940 0.00800
C 	C 	0.35611 0.67003 0.37130 -0.05600
H 	H 	0.38150 0.68720 0.39960 0.06800
C 	C 	0.34319 0.66592 0.27250 -0.08900
H 	H 	0.35830 0.67990 0.22000 0.07000
C 	C 	0.30216 0.63619 0.26575 0.09900
C 	C 	0.27782 0.62172 0.17880 -0.12400
C 	C 	0.23364 0.59484 0.17296 0.09800
C 	C 	0.21206 0.57792 0.08439 -0.10000
H 	H 	0.22520 0.58180 0.02010 0.06400
C 	C 	0.16817 0.55474 0.11195 -0.04900
H 	H 	0.14560 0.54000 0.07050 0.04000
C 	C 	0.16445 0.55792 0.21565 0.03000
H 	H 	0.13770 0.54520 0.25370 0.00900
C 	C 	0.30045 0.63565 0.08249 0.07800
C 	C 	0.35561 0.62826 0.05660 -0.09800
H 	H 	0.37890 0.61550 0.10130 0.06500
C 	C 	0.37659 0.63969 0.96430 -0.05300
H 	H 	0.41300 0.63360 0.94590 0.05500
C 	C 	0.34248 0.66000 0.90145 0.07600
C 	C 	0.28787 0.66787 0.92530 -0.05100
H 	H 	0.26500 0.68120 0.88100 0.05800
C 	C 	0.26727 0.65575 0.01599 -0.10000
H 	H 	0.23040 0.66120 0.03270 0.06900
C 	C 	0.33814 0.67813 0.71897 0.00100
H 	H 	0.30140 0.67160 0.70390 0.03400
C 	C 	0.37634 0.69393 0.65780 0.00500
H 	H 	0.36990 0.70020 0.59160 0.02500
C 	C 	0.41748 0.68768 0.79799 0.09900
H 	H 	0.44380 0.68880 0.84880 0.00000
C 	C 	0.37516 0.96583 0.96879 0.07900
H 	H 	0.39330 0.94240 0.97950 -0.00100
C 	C 	0.16783 0.96630 0.81650 0.10000
H 	H 	0.15070 0.94290 0.80100 -0.01100
N 	N 	0.24022 0.92073 0.04551 -0.23900
N 	N 	0.32857 0.87951 0.94620 -0.24000
N 	N 	0.38997 0.82214 0.49850 -0.13300
N 	N 	0.43416 0.78421 0.60382 -0.21200
N 	N 	0.29029 0.62244 0.36118 -0.24500
N 	N 	0.20314 0.58106 0.25368 -0.23500
N 	N 	0.36521 0.67370 0.80900 -0.13200
N 	N 	0.42660 0.69955 0.70702 -0.22100
N 	N 	0.21837 0.96578 0.85992 -0.23100
N 	N 	0.32237 0.96591 0.93608 -0.22500
Ni	Ni	0.26904 0.91706 0.90097 1.06800
C 	C 	0.09664 0.50000 0.48690 -0.16200
H 	H 	0.06010 0.50000 0.51050 0.08200
C 	C 	0.20108 0.50000 0.41990 0.06500
C 	C 	0.25833 0.50000 0.37800 0.06300
C 	C 	0.35958 0.50000 0.29420 -0.17200
H 	H 	0.39490 0.50000 0.26540 0.08800
C 	C 	0.59664 0.00000 0.98690 -0.13300
H 	H 	0.56010 0.00000 0.01050 0.06600
C 	C 	0.70108 0.00000 0.91990 0.06600
C 	C 	0.75833 0.00000 0.87800 0.06500
C 	C 	0.85958 0.00000 0.79420 -0.17100
H 	H 	0.89490 0.00000 0.76540 0.09100
C 	C 	0.90336 0.50000 0.48690 -0.16200
H 	H 	0.93990 0.50000 0.51050 0.08500
C 	C 	0.79892 0.50000 0.41990 0.06600
C 	C 	0.74167 0.50000 0.37800 0.06300
C 	C 	0.64042 0.50000 0.29420 -0.17200
H 	H 	0.60510 0.50000 0.26540 0.08800
C 	C 	0.40336 0.00000 0.98690 -0.13200
H 	H 	0.43990 0.00000 0.01050 0.06500
C 	C 	0.29892 0.00000 0.91990 0.06600
C 	C 	0.24167 0.00000 0.87800 0.06500
C 	C 	0.14042 0.00000 0.79420 -0.17100
H 	H 	0.10510 0.00000 0.76540 0.08900
Cl	Cl	0.00000 0.20937 0.97769 -0.48000
Cl	Cl	-0.00000 0.26967 0.33432 -0.49100
Cd	Cd	-0.00000 0.23833 0.15724 1.21600
Cl	Cl	0.50000 0.70937 0.47769 -0.48300
Cl	Cl	0.50000 0.76967 0.83432 -0.48200
Cd	Cd	0.50000 0.73833 0.65724 1.21900
Cl	Cl	-0.00000 0.79063 0.97769 -0.48000
Cl	Cl	0.00000 0.73033 0.33432 -0.49100
Cd	Cd	0.00000 0.76167 0.15724 1.21600
Cl	Cl	0.50000 0.29063 0.47769 -0.48300
Cl	Cl	0.50000 0.23033 0.83432 -0.48200
Cd	Cd	0.50000 0.26167 0.65724 1.21900
