data_crystal

_cell_length_a 30.98400
_cell_length_b 30.98400
_cell_length_c 30.98400
_cell_angle_alpha 90.00000
_cell_angle_beta  90.00000
_cell_angle_gamma 90.00000

_symmetry_space_group_name_	'P 1'
_symmetry_space_group_name_H-M	'P 1'

loop_
_symmetry_equiv_pos_as_xyz
  x,y,z

loop_
_atom_site_label
_atom_site_type_symbol
_atom_site_fract_x
_atom_site_fract_y
_atom_site_fract_z
_atom_site_charge
N 	N 	0.19313 -0.37107 0.13906 -0.34000
C 	C 	0.17629 -0.32854 0.14532 -0.07100
C 	C 	0.19082 -0.29213 0.11803 0.24600
O 	O 	0.20754 -0.29973 0.08140 -0.36000
O 	O 	0.18816 -0.25339 0.13080 -0.25200
N 	N 	0.23149 -0.46303 0.10417 -0.35800
C 	C 	0.19351 -0.47717 0.08643 -0.09400
O 	O 	0.16993 -0.41040 0.05869 -0.37800
O 	O 	0.12374 -0.46185 0.05981 -0.24000
C 	C 	0.16164 -0.44927 0.06791 0.26100
H 	H 	0.15206 1.07648 0.18766 -0.12300
H 	H 	0.31552 0.52518 0.40123 -0.02300
H 	H 	0.25255 0.52518 0.34913 -0.02400
In	In	0.25000 -0.39494 0.10506 1.84300
C 	C 	0.16999 -0.39883 0.16999 -0.03900
H 	H 	0.19328 -0.41296 0.19328 -0.04000
O 	O 	0.18097 -0.06473 0.18097 -0.42400
C 	C 	0.25304 -0.50000 0.11507 -0.05500
H 	H 	0.28484 -0.50000 0.12936 -0.05700
Mg	Mg	0.17470 0.00000 0.17470 1.44900
O 	O 	0.16891 -0.00000 0.23967 -0.45300
O 	O 	0.16820 0.00000 0.10976 -0.46800
