data_crystal

_cell_length_a 18.34800
_cell_length_b 18.34800
_cell_length_c 65.09400
_cell_angle_alpha 90.00000
_cell_angle_beta  90.00000
_cell_angle_gamma 120.00000

_symmetry_space_group_name_	'P 1'
_symmetry_space_group_name_H-M	'P 1'

loop_
_symmetry_equiv_pos_as_xyz
  x,y,z

loop_
_atom_site_label
_atom_site_type_symbol
_atom_site_fract_x
_atom_site_fract_y
_atom_site_fract_z
_atom_site_charge
C 	C 	0.90990 0.36310 0.60060 0.33300
C 	C 	0.84040 0.29180 0.61160 -0.06700
C 	C 	0.83640 0.29040 0.63320 -0.03100
H 	H 	0.87590 0.33860 0.64060 0.06100
C 	C 	0.84560 0.28120 0.67740 -0.00300
C 	C 	0.84930 0.28400 0.69870 0.00500
C 	C 	0.77700 0.23600 0.71020 0.00100
C 	C 	0.85200 0.27590 0.74240 0.00500
C 	C 	0.85680 0.27110 0.76360 0.00600
C 	C 	0.78700 0.09910 0.80370 0.00100
C 	C 	0.79190 0.08440 0.82440 -0.00800
C 	C 	0.82850 0.15200 0.83806 -0.00100
C 	C 	0.76620 0.14030 0.83100 -0.00100
C 	C 	0.85470 0.24840 0.81020 -0.00000
C 	C 	0.92560 0.20400 0.87030 -0.00200
H 	H 	0.96500 0.25480 0.86360 0.05400
C 	C 	0.93990 0.18460 0.89060 -0.12200
C 	C 	0.02600 0.23920 0.89980 0.40600
O 	O 	0.97600 0.41390 0.60994 -0.40100
O 	O 	0.88880 0.37100 0.58205 -0.39300
O 	O 	0.03710 0.22570 0.91699 -0.43600
O 	O 	0.07720 0.30390 0.88950 -0.40700
C 	C 	0.57657 0.69643 0.93393 0.33300
C 	C 	0.50707 0.62513 0.94493 -0.06800
C 	C 	0.50307 0.62373 0.96653 -0.03200
H 	H 	0.54257 0.67193 0.97393 0.06000
C 	C 	0.51227 0.61453 0.01073 -0.00400
C 	C 	0.51597 0.61733 0.03203 0.00400
C 	C 	0.44367 0.56933 0.04353 -0.00000
C 	C 	0.51867 0.60923 0.07573 0.00300
C 	C 	0.52347 0.60443 0.09693 0.00400
C 	C 	0.45367 0.43243 0.13703 -0.00100
C 	C 	0.45857 0.41773 0.15773 -0.00900
C 	C 	0.49517 0.48533 0.17139 -0.00100
C 	C 	0.43287 0.47363 0.16433 -0.00100
C 	C 	0.52137 0.58173 0.14353 -0.00000
C 	C 	0.59227 0.53733 0.20363 0.00100
H 	H 	0.63167 0.58813 0.19693 0.05200
C 	C 	0.60657 0.51793 0.22393 -0.12600
C 	C 	0.69267 0.57253 0.23313 0.40900
O 	O 	0.64267 0.74723 0.94327 -0.40200
O 	O 	0.55547 0.70433 0.91538 -0.39400
O 	O 	0.70377 0.55903 0.25032 -0.43600
O 	O 	0.74387 0.63723 0.22283 -0.40700
C 	C 	0.24323 0.02977 0.26727 0.33100
C 	C 	0.17373 0.95847 0.27827 -0.06700
C 	C 	0.16973 0.95707 0.29987 -0.02700
H 	H 	0.20923 0.00527 0.30727 0.05700
C 	C 	0.17893 0.94787 0.34407 -0.00300
C 	C 	0.18263 0.95067 0.36537 0.00400
C 	C 	0.11033 0.90267 0.37687 -0.00000
C 	C 	0.18533 0.94257 0.40907 0.00400
C 	C 	0.19013 0.93777 0.43027 0.00500
C 	C 	0.12033 0.76577 0.47037 -0.00100
C 	C 	0.12523 0.75107 0.49107 -0.00900
C 	C 	0.16183 0.81867 0.50473 -0.00100
C 	C 	0.09953 0.80697 0.49767 -0.00100
C 	C 	0.18803 0.91507 0.47687 -0.00000
C 	C 	0.25893 0.87067 0.53697 0.00100
H 	H 	0.29833 0.92147 0.53027 0.05200
C 	C 	0.27323 0.85127 0.55727 -0.12700
C 	C 	0.35933 0.90587 0.56647 0.40900
O 	O 	0.30933 0.08057 0.27661 -0.40200
O 	O 	0.22213 0.03767 0.24872 -0.39400
O 	O 	0.37043 0.89237 0.58366 -0.43600
O 	O 	0.41053 0.97057 0.55617 -0.40800
C 	C 	0.63690 0.54680 0.60060 0.33300
C 	C 	0.70820 0.54860 0.61160 -0.06800
C 	C 	0.70960 0.54600 0.63320 -0.03200
H 	H 	0.66140 0.53730 0.64060 0.06000
C 	C 	0.71880 0.56440 0.67740 -0.00400
C 	C 	0.71600 0.56530 0.69870 0.00400
C 	C 	0.76400 0.54100 0.71020 -0.00000
C 	C 	0.72410 0.57610 0.74240 0.00300
C 	C 	0.72890 0.58570 0.76360 0.00400
C 	C 	0.90090 0.68790 0.80370 -0.00000
C 	C 	0.91560 0.70750 0.82440 -0.00800
C 	C 	0.84800 0.67650 0.83806 -0.00100
C 	C 	0.85970 0.62590 0.83100 -0.00100
C 	C 	0.75160 0.60630 0.81020 -0.00000
C 	C 	0.79600 0.72160 0.87030 -0.00000
H 	H 	0.74520 0.71020 0.86360 0.05300
C 	C 	0.81540 0.75530 0.89060 -0.12500
C 	C 	0.76080 0.78680 0.89980 0.40800
O 	O 	0.58610 0.56210 0.60994 -0.40200
O 	O 	0.62900 0.51780 0.58205 -0.39400
O 	O 	0.77430 0.81140 0.91699 -0.43600
O 	O 	0.69610 0.77330 0.88950 -0.40700
C 	C 	0.30357 0.88013 0.93393 0.33200
C 	C 	0.37487 0.88193 0.94493 -0.06800
C 	C 	0.37627 0.87933 0.96653 -0.03200
H 	H 	0.32807 0.87063 0.97393 0.06000
C 	C 	0.38547 0.89773 0.01073 -0.00400
C 	C 	0.38267 0.89863 0.03203 0.00400
C 	C 	0.43067 0.87433 0.04353 -0.00000
C 	C 	0.39077 0.90943 0.07573 0.00300
C 	C 	0.39557 0.91903 0.09693 0.00500
C 	C 	0.56757 0.02123 0.13703 -0.00400
C 	C 	0.58227 0.04083 0.15773 -0.00900
C 	C 	0.51467 0.00983 0.17139 -0.00300
C 	C 	0.52637 0.95923 0.16433 0.00300
C 	C 	0.41827 0.93963 0.14353 -0.00100
C 	C 	0.46267 0.05493 0.20363 0.00000
H 	H 	0.41187 0.04353 0.19693 0.05200
C 	C 	0.48207 0.08863 0.22393 -0.12700
C 	C 	0.42747 0.12013 0.23313 0.40900
O 	O 	0.25277 0.89543 0.94327 -0.40200
O 	O 	0.29567 0.85113 0.91538 -0.39400
O 	O 	0.44097 0.14473 0.25032 -0.43600
O 	O 	0.36277 0.10663 0.22283 -0.40800
C 	C 	0.97023 0.21347 0.26727 0.33000
C 	C 	0.04153 0.21527 0.27827 -0.06700
C 	C 	0.04293 0.21267 0.29987 -0.02800
H 	H 	0.99473 0.20397 0.30727 0.05700
C 	C 	0.05213 0.23107 0.34407 -0.00300
C 	C 	0.04933 0.23197 0.36537 0.00400
C 	C 	0.09733 0.20767 0.37687 -0.00000
C 	C 	0.05743 0.24277 0.40907 0.00300
C 	C 	0.06223 0.25237 0.43027 0.00500
C 	C 	0.23423 0.35457 0.47037 -0.00100
C 	C 	0.24893 0.37417 0.49107 -0.00900
C 	C 	0.18133 0.34317 0.50473 -0.00100
C 	C 	0.19303 0.29257 0.49767 -0.00100
C 	C 	0.08493 0.27297 0.47687 -0.00000
C 	C 	0.12933 0.38827 0.53697 0.00100
H 	H 	0.07853 0.37687 0.53027 0.05200
C 	C 	0.14873 0.42197 0.55727 -0.12700
C 	C 	0.09413 0.45347 0.56647 0.40900
O 	O 	0.91943 0.22877 0.27661 -0.40200
O 	O 	0.96233 0.18447 0.24872 -0.39400
O 	O 	0.10763 0.47807 0.58366 -0.43600
O 	O 	0.02943 0.43997 0.55617 -0.40800
C 	C 	0.45320 0.09010 0.60060 0.33200
C 	C 	0.45140 0.15960 0.61160 -0.06800
C 	C 	0.45400 0.16360 0.63320 -0.03200
H 	H 	0.46270 0.12410 0.64060 0.06000
C 	C 	0.43560 0.15440 0.67740 -0.00400
C 	C 	0.43470 0.15070 0.69870 0.00400
C 	C 	0.45900 0.22300 0.71020 -0.00000
C 	C 	0.42390 0.14800 0.74240 0.00400
C 	C 	0.41430 0.14320 0.76360 0.00500
C 	C 	0.31210 0.21300 0.80370 -0.00100
C 	C 	0.29250 0.20810 0.82440 -0.00900
C 	C 	0.32350 0.17150 0.83806 -0.00100
C 	C 	0.37410 0.23380 0.83100 -0.00100
C 	C 	0.39370 0.14530 0.81020 -0.00000
C 	C 	0.27840 0.07440 0.87030 -0.00100
H 	H 	0.28980 0.03500 0.86360 0.05300
C 	C 	0.24470 0.06010 0.89060 -0.12400
C 	C 	0.21320 0.97400 0.89980 0.40600
O 	O 	0.43790 0.02400 0.60994 -0.40200
O 	O 	0.48220 0.11120 0.58205 -0.39300
O 	O 	0.18860 0.96290 0.91699 -0.43600
O 	O 	0.22670 0.92280 0.88950 -0.40700
C 	C 	0.11987 0.42343 0.93393 0.33200
C 	C 	0.11807 0.49293 0.94493 -0.06800
C 	C 	0.12067 0.49693 0.96653 -0.03200
H 	H 	0.12937 0.45743 0.97393 0.06000
C 	C 	0.10227 0.48773 0.01073 -0.00400
C 	C 	0.10137 0.48403 0.03203 0.00400
C 	C 	0.12567 0.55633 0.04353 -0.00000
C 	C 	0.09057 0.48133 0.07573 0.00300
C 	C 	0.08097 0.47653 0.09693 0.00500
C 	C 	0.97877 0.54633 0.13703 -0.00400
C 	C 	0.95917 0.54143 0.15773 -0.00900
C 	C 	0.99017 0.50483 0.17139 -0.00300
C 	C 	0.04077 0.56713 0.16433 0.00300
C 	C 	0.06037 0.47863 0.14353 -0.00100
C 	C 	0.94507 0.40773 0.20363 0.00000
H 	H 	0.95647 0.36833 0.19693 0.05200
C 	C 	0.91137 0.39343 0.22393 -0.12700
C 	C 	0.87987 0.30733 0.23313 0.40900
O 	O 	0.10457 0.35733 0.94327 -0.40200
O 	O 	0.14887 0.44453 0.91538 -0.39400
O 	O 	0.85527 0.29623 0.25032 -0.43600
O 	O 	0.89337 0.25613 0.22283 -0.40800
C 	C 	0.78653 0.75677 0.26727 0.33300
C 	C 	0.78473 0.82627 0.27827 -0.06900
C 	C 	0.78733 0.83027 0.29987 -0.03100
H 	H 	0.79603 0.79077 0.30727 0.06000
C 	C 	0.76893 0.82107 0.34407 -0.00400
C 	C 	0.76803 0.81737 0.36537 0.00400
C 	C 	0.79233 0.88967 0.37687 -0.00000
C 	C 	0.75723 0.81467 0.40907 0.00300
C 	C 	0.74763 0.80987 0.43027 0.00400
C 	C 	0.64543 0.87967 0.47037 -0.00100
C 	C 	0.62583 0.87477 0.49107 -0.00900
C 	C 	0.65683 0.83817 0.50473 -0.00100
C 	C 	0.70743 0.90047 0.49767 -0.00100
C 	C 	0.72703 0.81197 0.47687 -0.00000
C 	C 	0.61173 0.74107 0.53697 0.00100
H 	H 	0.62313 0.70167 0.53027 0.05200
C 	C 	0.57803 0.72677 0.55727 -0.12600
C 	C 	0.54653 0.64067 0.56647 0.40900
O 	O 	0.77123 0.69067 0.27661 -0.40200
O 	O 	0.81553 0.77787 0.24872 -0.39400
O 	O 	0.52193 0.62957 0.58366 -0.43600
O 	O 	0.56003 0.58947 0.55617 -0.40700
C 	C 	0.63690 0.09010 0.60060 0.33200
C 	C 	0.70820 0.15960 0.61160 -0.06800
C 	C 	0.70960 0.16360 0.63320 -0.03200
H 	H 	0.66140 0.12410 0.64060 0.06000
C 	C 	0.71880 0.15440 0.67740 -0.00400
C 	C 	0.71600 0.15070 0.69870 0.00400
C 	C 	0.76400 0.22300 0.71020 -0.00000
C 	C 	0.72410 0.14800 0.74240 0.00400
C 	C 	0.72890 0.14320 0.76360 0.00500
C 	C 	0.90090 0.21300 0.80370 0.00000
C 	C 	0.91560 0.20810 0.82440 -0.00800
C 	C 	0.84800 0.17150 0.83806 -0.00100
C 	C 	0.85970 0.23380 0.83100 -0.00100
C 	C 	0.75160 0.14530 0.81020 -0.00000
C 	C 	0.79600 0.07440 0.87030 -0.00200
H 	H 	0.74520 0.03500 0.86360 0.05400
C 	C 	0.81540 0.06010 0.89060 -0.12200
C 	C 	0.76080 0.97400 0.89980 0.40600
O 	O 	0.58610 0.02400 0.60994 -0.40100
O 	O 	0.62900 0.11120 0.58205 -0.39300
O 	O 	0.77430 0.96290 0.91699 -0.43600
O 	O 	0.69610 0.92280 0.88950 -0.40700
C 	C 	0.30357 0.42343 0.93393 0.33300
C 	C 	0.37487 0.49293 0.94493 -0.06800
C 	C 	0.37627 0.49693 0.96653 -0.03200
H 	H 	0.32807 0.45743 0.97393 0.06000
C 	C 	0.38547 0.48773 0.01073 -0.00400
C 	C 	0.38267 0.48403 0.03203 0.00400
C 	C 	0.43067 0.55633 0.04353 -0.00000
C 	C 	0.39077 0.48133 0.07573 0.00300
C 	C 	0.39557 0.47653 0.09693 0.00400
C 	C 	0.56757 0.54633 0.13703 -0.00100
C 	C 	0.58227 0.54143 0.15773 -0.00900
C 	C 	0.51467 0.50483 0.17139 -0.00100
C 	C 	0.52637 0.56713 0.16433 -0.00100
C 	C 	0.41827 0.47863 0.14353 -0.00000
C 	C 	0.46267 0.40773 0.20363 0.00100
H 	H 	0.41187 0.36833 0.19693 0.05200
C 	C 	0.48207 0.39343 0.22393 -0.12600
C 	C 	0.42747 0.30733 0.23313 0.40900
O 	O 	0.25277 0.35733 0.94327 -0.40200
O 	O 	0.29567 0.44453 0.91538 -0.39400
O 	O 	0.44097 0.29623 0.25032 -0.43600
O 	O 	0.36277 0.25613 0.22283 -0.40700
C 	C 	0.97023 0.75677 0.26727 0.33100
C 	C 	0.04153 0.82627 0.27827 -0.06700
C 	C 	0.04293 0.83027 0.29987 -0.02700
H 	H 	0.99473 0.79077 0.30727 0.05700
C 	C 	0.05213 0.82107 0.34407 -0.00300
C 	C 	0.04933 0.81737 0.36537 0.00400
C 	C 	0.09733 0.88967 0.37687 -0.00000
C 	C 	0.05743 0.81467 0.40907 0.00400
C 	C 	0.06223 0.80987 0.43027 0.00500
C 	C 	0.23423 0.87967 0.47037 -0.00100
C 	C 	0.24893 0.87477 0.49107 -0.00900
C 	C 	0.18133 0.83817 0.50473 -0.00100
C 	C 	0.19303 0.90047 0.49767 -0.00100
C 	C 	0.08493 0.81197 0.47687 -0.00000
C 	C 	0.12933 0.74107 0.53697 0.00100
H 	H 	0.07853 0.70167 0.53027 0.05200
C 	C 	0.14873 0.72677 0.55727 -0.12700
C 	C 	0.09413 0.64067 0.56647 0.40900
O 	O 	0.91943 0.69067 0.27661 -0.40200
O 	O 	0.96233 0.77787 0.24872 -0.39400
O 	O 	0.10763 0.62957 0.58366 -0.43600
O 	O 	0.02943 0.58947 0.55617 -0.40800
C 	C 	0.45320 0.36310 0.60060 0.33300
C 	C 	0.45140 0.29180 0.61160 -0.06800
C 	C 	0.45400 0.29040 0.63320 -0.03200
H 	H 	0.46270 0.33860 0.64060 0.06000
C 	C 	0.43560 0.28120 0.67740 -0.00400
C 	C 	0.43470 0.28400 0.69870 0.00400
C 	C 	0.45900 0.23600 0.71020 -0.00000
C 	C 	0.42390 0.27590 0.74240 0.00300
C 	C 	0.41430 0.27110 0.76360 0.00400
C 	C 	0.31210 0.09910 0.80370 -0.00000
C 	C 	0.29250 0.08440 0.82440 -0.00800
C 	C 	0.32350 0.15200 0.83806 -0.00100
C 	C 	0.37410 0.14030 0.83100 -0.00100
C 	C 	0.39370 0.24840 0.81020 -0.00000
C 	C 	0.27840 0.20400 0.87030 -0.00000
H 	H 	0.28980 0.25480 0.86360 0.05300
C 	C 	0.24470 0.18460 0.89060 -0.12500
C 	C 	0.21320 0.23920 0.89980 0.40800
O 	O 	0.43790 0.41390 0.60994 -0.40200
O 	O 	0.48220 0.37100 0.58205 -0.39400
O 	O 	0.18860 0.22570 0.91699 -0.43600
O 	O 	0.22670 0.30390 0.88950 -0.40700
C 	C 	0.11987 0.69643 0.93393 0.33200
C 	C 	0.11807 0.62513 0.94493 -0.06800
C 	C 	0.12067 0.62373 0.96653 -0.03200
H 	H 	0.12937 0.67193 0.97393 0.06000
C 	C 	0.10227 0.61453 0.01073 -0.00400
C 	C 	0.10137 0.61733 0.03203 0.00400
C 	C 	0.12567 0.56933 0.04353 -0.00000
C 	C 	0.09057 0.60923 0.07573 0.00300
C 	C 	0.08097 0.60443 0.09693 0.00500
C 	C 	0.97877 0.43243 0.13703 -0.00400
C 	C 	0.95917 0.41773 0.15773 -0.00900
C 	C 	0.99017 0.48533 0.17139 -0.00300
C 	C 	0.04077 0.47363 0.16433 0.00300
C 	C 	0.06037 0.58173 0.14353 -0.00100
C 	C 	0.94507 0.53733 0.20363 0.00000
H 	H 	0.95647 0.58813 0.19693 0.05200
C 	C 	0.91137 0.51793 0.22393 -0.12700
C 	C 	0.87987 0.57253 0.23313 0.40900
O 	O 	0.10457 0.74723 0.94327 -0.40200
O 	O 	0.14887 0.70433 0.91538 -0.39400
O 	O 	0.85527 0.55903 0.25032 -0.43600
O 	O 	0.89337 0.63723 0.22283 -0.40800
C 	C 	0.78653 0.02977 0.26727 0.33000
C 	C 	0.78473 0.95847 0.27827 -0.06700
C 	C 	0.78733 0.95707 0.29987 -0.02800
H 	H 	0.79603 0.00527 0.30727 0.05700
C 	C 	0.76893 0.94787 0.34407 -0.00300
C 	C 	0.76803 0.95067 0.36537 0.00400
C 	C 	0.79233 0.90267 0.37687 -0.00000
C 	C 	0.75723 0.94257 0.40907 0.00300
C 	C 	0.74763 0.93777 0.43027 0.00500
C 	C 	0.64543 0.76577 0.47037 -0.00100
C 	C 	0.62583 0.75107 0.49107 -0.00900
C 	C 	0.65683 0.81867 0.50473 -0.00100
C 	C 	0.70743 0.80697 0.49767 -0.00100
C 	C 	0.72703 0.91507 0.47687 -0.00000
C 	C 	0.61173 0.87067 0.53697 0.00100
H 	H 	0.62313 0.92147 0.53027 0.05200
C 	C 	0.57803 0.85127 0.55727 -0.12700
C 	C 	0.54653 0.90587 0.56647 0.40900
O 	O 	0.77123 0.08057 0.27661 -0.40200
O 	O 	0.81553 0.03767 0.24872 -0.39400
O 	O 	0.52193 0.89237 0.58366 -0.43600
O 	O 	0.56003 0.97057 0.55617 -0.40800
C 	C 	0.90990 0.54680 0.60060 0.33200
C 	C 	0.84040 0.54860 0.61160 -0.06800
C 	C 	0.83640 0.54600 0.63320 -0.03200
H 	H 	0.87590 0.53730 0.64060 0.06000
C 	C 	0.84560 0.56440 0.67740 -0.00400
C 	C 	0.84930 0.56530 0.69870 0.00400
C 	C 	0.77700 0.54100 0.71020 -0.00000
C 	C 	0.85200 0.57610 0.74240 0.00400
C 	C 	0.85680 0.58570 0.76360 0.00500
C 	C 	0.78700 0.68790 0.80370 -0.00100
C 	C 	0.79190 0.70750 0.82440 -0.00900
C 	C 	0.82850 0.67650 0.83806 -0.00100
C 	C 	0.76620 0.62590 0.83100 -0.00100
C 	C 	0.85470 0.60630 0.81020 -0.00000
C 	C 	0.92560 0.72160 0.87030 -0.00100
H 	H 	0.96500 0.71020 0.86360 0.05300
C 	C 	0.93990 0.75530 0.89060 -0.12400
C 	C 	0.02600 0.78680 0.89980 0.40600
O 	O 	0.97600 0.56210 0.60994 -0.40200
O 	O 	0.88880 0.51780 0.58205 -0.39300
O 	O 	0.03710 0.81140 0.91699 -0.43600
O 	O 	0.07720 0.77330 0.88950 -0.40700
C 	C 	0.57657 0.88013 0.93393 0.33200
C 	C 	0.50707 0.88193 0.94493 -0.06800
C 	C 	0.50307 0.87933 0.96653 -0.03200
H 	H 	0.54257 0.87063 0.97393 0.06000
C 	C 	0.51227 0.89773 0.01073 -0.00400
C 	C 	0.51597 0.89863 0.03203 0.00400
C 	C 	0.44367 0.87433 0.04353 -0.00000
C 	C 	0.51867 0.90943 0.07573 0.00300
C 	C 	0.52347 0.91903 0.09693 0.00500
C 	C 	0.45367 0.02123 0.13703 -0.00400
C 	C 	0.45857 0.04083 0.15773 -0.00900
C 	C 	0.49517 0.00983 0.17139 -0.00300
C 	C 	0.43287 0.95923 0.16433 0.00300
C 	C 	0.52137 0.93963 0.14353 -0.00100
C 	C 	0.59227 0.05493 0.20363 0.00000
H 	H 	0.63167 0.04353 0.19693 0.05200
C 	C 	0.60657 0.08863 0.22393 -0.12700
C 	C 	0.69267 0.12013 0.23313 0.40900
O 	O 	0.64267 0.89543 0.94327 -0.40200
O 	O 	0.55547 0.85113 0.91538 -0.39400
O 	O 	0.70377 0.14473 0.25032 -0.43600
O 	O 	0.74387 0.10663 0.22283 -0.40800
C 	C 	0.24323 0.21347 0.26727 0.33300
C 	C 	0.17373 0.21527 0.27827 -0.06900
C 	C 	0.16973 0.21267 0.29987 -0.03100
H 	H 	0.20923 0.20397 0.30727 0.06000
C 	C 	0.17893 0.23107 0.34407 -0.00400
C 	C 	0.18263 0.23197 0.36537 0.00400
C 	C 	0.11033 0.20767 0.37687 -0.00000
C 	C 	0.18533 0.24277 0.40907 0.00300
C 	C 	0.19013 0.25237 0.43027 0.00400
C 	C 	0.12033 0.35457 0.47037 -0.00100
C 	C 	0.12523 0.37417 0.49107 -0.00900
C 	C 	0.16183 0.34317 0.50473 -0.00100
C 	C 	0.09953 0.29257 0.49767 -0.00100
C 	C 	0.18803 0.27297 0.47687 -0.00000
C 	C 	0.25893 0.38827 0.53697 0.00100
H 	H 	0.29833 0.37687 0.53027 0.05200
C 	C 	0.27323 0.42197 0.55727 -0.12600
C 	C 	0.35933 0.45347 0.56647 0.40900
O 	O 	0.30933 0.22877 0.27661 -0.40200
O 	O 	0.22213 0.18447 0.24872 -0.39400
O 	O 	0.37043 0.47807 0.58366 -0.43600
O 	O 	0.41053 0.43997 0.55617 -0.40700
Cu	Cu	0.94955 0.47477 0.56663 0.90500
Cu	Cu	0.04869 0.52435 0.59950 0.91300
Cu	Cu	0.61622 0.80811 0.89996 0.90500
Cu	Cu	0.71536 0.85768 0.93283 0.91300
Cu	Cu	0.28288 0.14144 0.23330 0.90400
Cu	Cu	0.38202 0.19101 0.26617 0.91300
Cu	Cu	0.52523 0.47477 0.56663 0.90500
Cu	Cu	0.47565 0.52435 0.59950 0.91300
Cu	Cu	0.19189 0.80811 0.89996 0.90500
Cu	Cu	0.14232 0.85768 0.93283 0.91300
Cu	Cu	0.85856 0.14144 0.23330 0.90400
Cu	Cu	0.80899 0.19101 0.26617 0.91300
Cu	Cu	0.52523 0.05045 0.56663 0.90500
Cu	Cu	0.47565 0.95131 0.59950 0.91300
Cu	Cu	0.19189 0.38378 0.89996 0.90500
Cu	Cu	0.14232 0.28464 0.93283 0.91300
Cu	Cu	0.85856 0.71712 0.23330 0.90400
Cu	Cu	0.80899 0.61798 0.26617 0.91300
C 	C 	0.77050 0.22950 0.60120 0.01600
H 	H 	0.76540 0.23460 0.58690 0.05900
C 	C 	0.77850 0.22150 0.64380 0.02300
C 	C 	0.77000 0.23000 0.66760 -0.01000
C 	C 	0.79450 0.20550 0.73134 0.00200
C 	C 	0.80345 0.19655 0.77372 -0.00100
C 	C 	0.81890 0.18110 0.79659 0.00200
C 	C 	0.85350 0.14650 0.86090 0.00100
C 	C 	0.88555 0.11445 0.89870 0.08600
H 	H 	0.89835 0.10165 0.91190 0.03400
C 	C 	0.43717 0.56283 0.93453 0.01700
H 	H 	0.43207 0.56793 0.92023 0.05900
C 	C 	0.44517 0.55483 0.97713 0.02200
C 	C 	0.43667 0.56333 0.00093 -0.01000
C 	C 	0.46117 0.53883 0.06467 0.00200
C 	C 	0.47012 0.52988 0.10705 -0.00100
C 	C 	0.48557 0.51443 0.12992 0.00200
C 	C 	0.52017 0.47983 0.19423 -0.00100
C 	C 	0.55222 0.44778 0.23203 0.09000
H 	H 	0.56502 0.43498 0.24523 0.03200
C 	C 	0.10383 0.89617 0.26787 0.01600
H 	H 	0.09873 0.90127 0.25357 0.06000
C 	C 	0.11183 0.88817 0.31047 0.01900
C 	C 	0.10333 0.89667 0.33427 -0.00900
C 	C 	0.12783 0.87217 0.39801 0.00200
C 	C 	0.13678 0.86322 0.44039 -0.00100
C 	C 	0.15223 0.84777 0.46326 0.00200
C 	C 	0.18683 0.81317 0.52757 -0.00200
C 	C 	0.21888 0.78112 0.56537 0.09100
H 	H 	0.23168 0.76832 0.57857 0.03200
C 	C 	0.77050 0.54100 0.60120 0.01700
H 	H 	0.76540 0.53080 0.58690 0.05900
C 	C 	0.77850 0.55700 0.64380 0.02200
C 	C 	0.77000 0.54000 0.66760 -0.01000
C 	C 	0.79450 0.58900 0.73134 0.00200
C 	C 	0.80345 0.60690 0.77372 -0.00100
C 	C 	0.81890 0.63780 0.79659 0.00200
C 	C 	0.85350 0.70700 0.86090 -0.00000
C 	C 	0.88555 0.77110 0.89870 0.08800
H 	H 	0.89835 0.79670 0.91190 0.03300
C 	C 	0.43717 0.87433 0.93453 0.01700
H 	H 	0.43207 0.86413 0.92023 0.05900
C 	C 	0.44517 0.89033 0.97713 0.02200
C 	C 	0.43667 0.87333 0.00093 -0.01000
C 	C 	0.46117 0.92233 0.06467 0.00200
C 	C 	0.47012 0.94023 0.10705 -0.00200
C 	C 	0.48557 0.97113 0.12992 0.00600
C 	C 	0.52017 0.04033 0.19423 -0.00100
C 	C 	0.55222 0.10443 0.23203 0.09000
H 	H 	0.56502 0.13003 0.24523 0.03200
C 	C 	0.10383 0.20767 0.26787 0.01600
H 	H 	0.09873 0.19747 0.25357 0.06000
C 	C 	0.11183 0.22367 0.31047 0.02100
C 	C 	0.10333 0.20667 0.33427 -0.01000
C 	C 	0.12783 0.25567 0.39801 0.00200
C 	C 	0.13678 0.27357 0.44039 -0.00100
C 	C 	0.15223 0.30447 0.46326 0.00200
C 	C 	0.18683 0.37367 0.52757 -0.00100
C 	C 	0.21888 0.43777 0.56537 0.09000
H 	H 	0.23168 0.46337 0.57857 0.03200
C 	C 	0.45900 0.22950 0.60120 0.01700
H 	H 	0.46920 0.23460 0.58690 0.05900
C 	C 	0.44300 0.22150 0.64380 0.02200
C 	C 	0.46000 0.23000 0.66760 -0.01000
C 	C 	0.41100 0.20550 0.73134 0.00200
C 	C 	0.39310 0.19655 0.77372 -0.00100
C 	C 	0.36220 0.18110 0.79659 0.00200
C 	C 	0.29300 0.14650 0.86090 -0.00000
C 	C 	0.22890 0.11445 0.89870 0.08800
H 	H 	0.20330 0.10165 0.91190 0.03300
C 	C 	0.12567 0.56283 0.93453 0.01700
H 	H 	0.13587 0.56793 0.92023 0.05900
C 	C 	0.10967 0.55483 0.97713 0.02200
C 	C 	0.12667 0.56333 0.00093 -0.01000
C 	C 	0.07767 0.53883 0.06467 0.00200
C 	C 	0.05977 0.52988 0.10705 -0.00200
C 	C 	0.02887 0.51443 0.12992 0.00600
C 	C 	0.95967 0.47983 0.19423 -0.00100
C 	C 	0.89557 0.44778 0.23203 0.09000
H 	H 	0.86997 0.43498 0.24523 0.03200
C 	C 	0.79233 0.89617 0.26787 0.01600
H 	H 	0.80253 0.90127 0.25357 0.06000
C 	C 	0.77633 0.88817 0.31047 0.02100
C 	C 	0.79333 0.89667 0.33427 -0.01000
C 	C 	0.74433 0.87217 0.39801 0.00200
C 	C 	0.72643 0.86322 0.44039 -0.00100
C 	C 	0.69553 0.84777 0.46326 0.00200
C 	C 	0.62633 0.81317 0.52757 -0.00100
C 	C 	0.56223 0.78112 0.56537 0.09000
H 	H 	0.53663 0.76832 0.57857 0.03200
C 	C 	0.36310 0.90990 0.39940 0.33200
C 	C 	0.29180 0.84040 0.38840 -0.06800
C 	C 	0.29040 0.83640 0.36680 -0.03200
H 	H 	0.33860 0.87590 0.35940 0.06000
C 	C 	0.28120 0.84560 0.32260 -0.00400
C 	C 	0.28400 0.84930 0.30130 0.00400
C 	C 	0.23600 0.77700 0.28980 -0.00000
C 	C 	0.27590 0.85200 0.25760 0.00400
C 	C 	0.27110 0.85680 0.23640 0.00500
C 	C 	0.09910 0.78700 0.19630 0.00000
C 	C 	0.08440 0.79190 0.17560 -0.00800
C 	C 	0.15200 0.82850 0.16194 -0.00100
C 	C 	0.14030 0.76620 0.16900 -0.00100
C 	C 	0.24840 0.85470 0.18980 -0.00000
C 	C 	0.20400 0.92560 0.12970 -0.00200
H 	H 	0.25480 0.96500 0.13640 0.05400
C 	C 	0.18460 0.93990 0.10940 -0.12200
C 	C 	0.23920 0.02600 0.10020 0.40600
O 	O 	0.41390 0.97600 0.39006 -0.40100
O 	O 	0.37100 0.88880 0.41795 -0.39300
O 	O 	0.22570 0.03710 0.08301 -0.43600
O 	O 	0.30390 0.07720 0.11050 -0.40700
C 	C 	0.02977 0.24323 0.73273 0.33100
C 	C 	0.95847 0.17373 0.72173 -0.06700
C 	C 	0.95707 0.16973 0.70013 -0.02700
H 	H 	0.00527 0.20923 0.69273 0.05700
C 	C 	0.94787 0.17893 0.65593 -0.00300
C 	C 	0.95067 0.18263 0.63463 0.00400
C 	C 	0.90267 0.11033 0.62313 -0.00000
C 	C 	0.94257 0.18533 0.59093 0.00400
C 	C 	0.93777 0.19013 0.56973 0.00500
C 	C 	0.76577 0.12033 0.52963 -0.00100
C 	C 	0.75107 0.12523 0.50893 -0.00900
C 	C 	0.81867 0.16183 0.49527 -0.00100
C 	C 	0.80697 0.09953 0.50233 -0.00100
C 	C 	0.91507 0.18803 0.52313 -0.00000
C 	C 	0.87067 0.25893 0.46303 0.00100
H 	H 	0.92147 0.29833 0.46973 0.05200
C 	C 	0.85127 0.27323 0.44273 -0.12700
C 	C 	0.90587 0.35933 0.43353 0.40900
O 	O 	0.08057 0.30933 0.72339 -0.40200
O 	O 	0.03767 0.22213 0.75128 -0.39400
O 	O 	0.89237 0.37043 0.41634 -0.43600
O 	O 	0.97057 0.41053 0.44383 -0.40800
C 	C 	0.69643 0.57657 0.06607 0.33300
C 	C 	0.62513 0.50707 0.05507 -0.06800
C 	C 	0.62373 0.50307 0.03347 -0.03200
H 	H 	0.67193 0.54257 0.02607 0.06000
C 	C 	0.61453 0.51227 0.98927 -0.00400
C 	C 	0.61733 0.51597 0.96797 0.00400
C 	C 	0.56933 0.44367 0.95647 -0.00000
C 	C 	0.60923 0.51867 0.92427 0.00300
C 	C 	0.60443 0.52347 0.90307 0.00400
C 	C 	0.43243 0.45367 0.86297 -0.00100
C 	C 	0.41773 0.45857 0.84227 -0.00900
C 	C 	0.48533 0.49517 0.82861 -0.00100
C 	C 	0.47363 0.43287 0.83567 -0.00100
C 	C 	0.58173 0.52137 0.85647 -0.00000
C 	C 	0.53733 0.59227 0.79637 0.00100
H 	H 	0.58813 0.63167 0.80307 0.05200
C 	C 	0.51793 0.60657 0.77607 -0.12600
C 	C 	0.57253 0.69267 0.76687 0.40900
O 	O 	0.74723 0.64267 0.05673 -0.40200
O 	O 	0.70433 0.55547 0.08462 -0.39400
O 	O 	0.55903 0.70377 0.74968 -0.43600
O 	O 	0.63723 0.74387 0.77717 -0.40700
C 	C 	0.54680 0.63690 0.39940 0.33300
C 	C 	0.54860 0.70820 0.38840 -0.06800
C 	C 	0.54600 0.70960 0.36680 -0.03200
H 	H 	0.53730 0.66140 0.35940 0.06000
C 	C 	0.56440 0.71880 0.32260 -0.00400
C 	C 	0.56530 0.71600 0.30130 0.00400
C 	C 	0.54100 0.76400 0.28980 -0.00000
C 	C 	0.57610 0.72410 0.25760 0.00300
C 	C 	0.58570 0.72890 0.23640 0.00400
C 	C 	0.68790 0.90090 0.19630 -0.00000
C 	C 	0.70750 0.91560 0.17560 -0.00800
C 	C 	0.67650 0.84800 0.16194 -0.00100
C 	C 	0.62590 0.85970 0.16900 -0.00100
C 	C 	0.60630 0.75160 0.18980 -0.00000
C 	C 	0.72160 0.79600 0.12970 -0.00000
H 	H 	0.71020 0.74520 0.13640 0.05300
C 	C 	0.75530 0.81540 0.10940 -0.12500
C 	C 	0.78680 0.76080 0.10020 0.40800
O 	O 	0.56210 0.58610 0.39006 -0.40200
O 	O 	0.51780 0.62900 0.41795 -0.39400
O 	O 	0.81140 0.77430 0.08301 -0.43600
O 	O 	0.77330 0.69610 0.11050 -0.40700
C 	C 	0.21347 0.97023 0.73273 0.33000
C 	C 	0.21527 0.04153 0.72173 -0.06700
C 	C 	0.21267 0.04293 0.70013 -0.02800
H 	H 	0.20397 0.99473 0.69273 0.05700
C 	C 	0.23107 0.05213 0.65593 -0.00300
C 	C 	0.23197 0.04933 0.63463 0.00400
C 	C 	0.20767 0.09733 0.62313 -0.00000
C 	C 	0.24277 0.05743 0.59093 0.00300
C 	C 	0.25237 0.06223 0.56973 0.00500
C 	C 	0.35457 0.23423 0.52963 -0.00100
C 	C 	0.37417 0.24893 0.50893 -0.00900
C 	C 	0.34317 0.18133 0.49527 -0.00100
C 	C 	0.29257 0.19303 0.50233 -0.00100
C 	C 	0.27297 0.08493 0.52313 -0.00000
C 	C 	0.38827 0.12933 0.46303 0.00100
H 	H 	0.37687 0.07853 0.46973 0.05200
C 	C 	0.42197 0.14873 0.44273 -0.12700
C 	C 	0.45347 0.09413 0.43353 0.40900
O 	O 	0.22877 0.91943 0.72339 -0.40200
O 	O 	0.18447 0.96233 0.75128 -0.39400
O 	O 	0.47807 0.10763 0.41634 -0.43600
O 	O 	0.43997 0.02943 0.44383 -0.40800
C 	C 	0.88013 0.30357 0.06607 0.33200
C 	C 	0.88193 0.37487 0.05507 -0.06800
C 	C 	0.87933 0.37627 0.03347 -0.03200
H 	H 	0.87063 0.32807 0.02607 0.06000
C 	C 	0.89773 0.38547 0.98927 -0.00400
C 	C 	0.89863 0.38267 0.96797 0.00400
C 	C 	0.87433 0.43067 0.95647 -0.00000
C 	C 	0.90943 0.39077 0.92427 0.00300
C 	C 	0.91903 0.39557 0.90307 0.00500
C 	C 	0.02123 0.56757 0.86297 -0.00400
C 	C 	0.04083 0.58227 0.84227 -0.00900
C 	C 	0.00983 0.51467 0.82861 -0.00300
C 	C 	0.95923 0.52637 0.83567 0.00300
C 	C 	0.93963 0.41827 0.85647 -0.00100
C 	C 	0.05493 0.46267 0.79637 0.00000
H 	H 	0.04353 0.41187 0.80307 0.05200
C 	C 	0.08863 0.48207 0.77607 -0.12700
C 	C 	0.12013 0.42747 0.76687 0.40900
O 	O 	0.89543 0.25277 0.05673 -0.40200
O 	O 	0.85113 0.29567 0.08462 -0.39400
O 	O 	0.14473 0.44097 0.74968 -0.43600
O 	O 	0.10663 0.36277 0.77717 -0.40800
C 	C 	0.09010 0.45320 0.39940 0.33200
C 	C 	0.15960 0.45140 0.38840 -0.06800
C 	C 	0.16360 0.45400 0.36680 -0.03200
H 	H 	0.12410 0.46270 0.35940 0.06000
C 	C 	0.15440 0.43560 0.32260 -0.00400
C 	C 	0.15070 0.43470 0.30130 0.00400
C 	C 	0.22300 0.45900 0.28980 -0.00000
C 	C 	0.14800 0.42390 0.25760 0.00400
C 	C 	0.14320 0.41430 0.23640 0.00500
C 	C 	0.21300 0.31210 0.19630 -0.00100
C 	C 	0.20810 0.29250 0.17560 -0.00900
C 	C 	0.17150 0.32350 0.16194 -0.00100
C 	C 	0.23380 0.37410 0.16900 -0.00100
C 	C 	0.14530 0.39370 0.18980 -0.00000
C 	C 	0.07440 0.27840 0.12970 -0.00100
H 	H 	0.03500 0.28980 0.13640 0.05300
C 	C 	0.06010 0.24470 0.10940 -0.12400
C 	C 	0.97400 0.21320 0.10020 0.40600
O 	O 	0.02400 0.43790 0.39006 -0.40200
O 	O 	0.11120 0.48220 0.41795 -0.39300
O 	O 	0.96290 0.18860 0.08301 -0.43600
O 	O 	0.92280 0.22670 0.11050 -0.40700
C 	C 	0.75677 0.78653 0.73273 0.33300
C 	C 	0.82627 0.78473 0.72173 -0.06900
C 	C 	0.83027 0.78733 0.70013 -0.03100
H 	H 	0.79077 0.79603 0.69273 0.06000
C 	C 	0.82107 0.76893 0.65593 -0.00400
C 	C 	0.81737 0.76803 0.63463 0.00400
C 	C 	0.88967 0.79233 0.62313 -0.00000
C 	C 	0.81467 0.75723 0.59093 0.00300
C 	C 	0.80987 0.74763 0.56973 0.00400
C 	C 	0.87967 0.64543 0.52963 -0.00100
C 	C 	0.87477 0.62583 0.50893 -0.00900
C 	C 	0.83817 0.65683 0.49527 -0.00100
C 	C 	0.90047 0.70743 0.50233 -0.00100
C 	C 	0.81197 0.72703 0.52313 -0.00000
C 	C 	0.74107 0.61173 0.46303 0.00100
H 	H 	0.70167 0.62313 0.46973 0.05200
C 	C 	0.72677 0.57803 0.44273 -0.12600
C 	C 	0.64067 0.54653 0.43353 0.40900
O 	O 	0.69067 0.77123 0.72339 -0.40200
O 	O 	0.77787 0.81553 0.75128 -0.39400
O 	O 	0.62957 0.52193 0.41634 -0.43600
O 	O 	0.58947 0.56003 0.44383 -0.40700
C 	C 	0.42343 0.11987 0.06607 0.33200
C 	C 	0.49293 0.11807 0.05507 -0.06800
C 	C 	0.49693 0.12067 0.03347 -0.03200
H 	H 	0.45743 0.12937 0.02607 0.06000
C 	C 	0.48773 0.10227 0.98927 -0.00400
C 	C 	0.48403 0.10137 0.96797 0.00400
C 	C 	0.55633 0.12567 0.95647 -0.00000
C 	C 	0.48133 0.09057 0.92427 0.00300
C 	C 	0.47653 0.08097 0.90307 0.00500
C 	C 	0.54633 0.97877 0.86297 -0.00400
C 	C 	0.54143 0.95917 0.84227 -0.00900
C 	C 	0.50483 0.99017 0.82861 -0.00300
C 	C 	0.56713 0.04077 0.83567 0.00300
C 	C 	0.47863 0.06037 0.85647 -0.00100
C 	C 	0.40773 0.94507 0.79637 0.00000
H 	H 	0.36833 0.95647 0.80307 0.05200
C 	C 	0.39343 0.91137 0.77607 -0.12700
C 	C 	0.30733 0.87987 0.76687 0.40900
O 	O 	0.35733 0.10457 0.05673 -0.40200
O 	O 	0.44453 0.14887 0.08462 -0.39400
O 	O 	0.29623 0.85527 0.74968 -0.43600
O 	O 	0.25613 0.89337 0.77717 -0.40800
C 	C 	0.09010 0.63690 0.39940 0.33200
C 	C 	0.15960 0.70820 0.38840 -0.06800
C 	C 	0.16360 0.70960 0.36680 -0.03200
H 	H 	0.12410 0.66140 0.35940 0.06000
C 	C 	0.15440 0.71880 0.32260 -0.00400
C 	C 	0.15070 0.71600 0.30130 0.00400
C 	C 	0.22300 0.76400 0.28980 -0.00000
C 	C 	0.14800 0.72410 0.25760 0.00400
C 	C 	0.14320 0.72890 0.23640 0.00500
C 	C 	0.21300 0.90090 0.19630 0.00000
C 	C 	0.20810 0.91560 0.17560 -0.00800
C 	C 	0.17150 0.84800 0.16194 -0.00100
C 	C 	0.23380 0.85970 0.16900 -0.00100
C 	C 	0.14530 0.75160 0.18980 -0.00000
C 	C 	0.07440 0.79600 0.12970 -0.00200
H 	H 	0.03500 0.74520 0.13640 0.05400
C 	C 	0.06010 0.81540 0.10940 -0.12200
C 	C 	0.97400 0.76080 0.10020 0.40600
O 	O 	0.02400 0.58610 0.39006 -0.40100
O 	O 	0.11120 0.62900 0.41795 -0.39300
O 	O 	0.96290 0.77430 0.08301 -0.43600
O 	O 	0.92280 0.69610 0.11050 -0.40700
C 	C 	0.75677 0.97023 0.73273 0.33100
C 	C 	0.82627 0.04153 0.72173 -0.06700
C 	C 	0.83027 0.04293 0.70013 -0.02700
H 	H 	0.79077 0.99473 0.69273 0.05700
C 	C 	0.82107 0.05213 0.65593 -0.00300
C 	C 	0.81737 0.04933 0.63463 0.00400
C 	C 	0.88967 0.09733 0.62313 -0.00000
C 	C 	0.81467 0.05743 0.59093 0.00400
C 	C 	0.80987 0.06223 0.56973 0.00500
C 	C 	0.87967 0.23423 0.52963 -0.00100
C 	C 	0.87477 0.24893 0.50893 -0.00900
C 	C 	0.83817 0.18133 0.49527 -0.00100
C 	C 	0.90047 0.19303 0.50233 -0.00100
C 	C 	0.81197 0.08493 0.52313 -0.00000
C 	C 	0.74107 0.12933 0.46303 0.00100
H 	H 	0.70167 0.07853 0.46973 0.05200
C 	C 	0.72677 0.14873 0.44273 -0.12700
C 	C 	0.64067 0.09413 0.43353 0.40900
O 	O 	0.69067 0.91943 0.72339 -0.40200
O 	O 	0.77787 0.96233 0.75128 -0.39400
O 	O 	0.62957 0.10763 0.41634 -0.43600
O 	O 	0.58947 0.02943 0.44383 -0.40800
C 	C 	0.42343 0.30357 0.06607 0.33300
C 	C 	0.49293 0.37487 0.05507 -0.06800
C 	C 	0.49693 0.37627 0.03347 -0.03200
H 	H 	0.45743 0.32807 0.02607 0.06000
C 	C 	0.48773 0.38547 0.98927 -0.00400
C 	C 	0.48403 0.38267 0.96797 0.00400
C 	C 	0.55633 0.43067 0.95647 -0.00000
C 	C 	0.48133 0.39077 0.92427 0.00300
C 	C 	0.47653 0.39557 0.90307 0.00400
C 	C 	0.54633 0.56757 0.86297 -0.00100
C 	C 	0.54143 0.58227 0.84227 -0.00900
C 	C 	0.50483 0.51467 0.82861 -0.00100
C 	C 	0.56713 0.52637 0.83567 -0.00100
C 	C 	0.47863 0.41827 0.85647 -0.00000
C 	C 	0.40773 0.46267 0.79637 0.00100
H 	H 	0.36833 0.41187 0.80307 0.05200
C 	C 	0.39343 0.48207 0.77607 -0.12600
C 	C 	0.30733 0.42747 0.76687 0.40900
O 	O 	0.35733 0.25277 0.05673 -0.40200
O 	O 	0.44453 0.29567 0.08462 -0.39400
O 	O 	0.29623 0.44097 0.74968 -0.43600
O 	O 	0.25613 0.36277 0.77717 -0.40700
C 	C 	0.36310 0.45320 0.39940 0.33300
C 	C 	0.29180 0.45140 0.38840 -0.06800
C 	C 	0.29040 0.45400 0.36680 -0.03200
H 	H 	0.33860 0.46270 0.35940 0.06000
C 	C 	0.28120 0.43560 0.32260 -0.00400
C 	C 	0.28400 0.43470 0.30130 0.00400
C 	C 	0.23600 0.45900 0.28980 -0.00000
C 	C 	0.27590 0.42390 0.25760 0.00300
C 	C 	0.27110 0.41430 0.23640 0.00400
C 	C 	0.09910 0.31210 0.19630 -0.00000
C 	C 	0.08440 0.29250 0.17560 -0.00800
C 	C 	0.15200 0.32350 0.16194 -0.00100
C 	C 	0.14030 0.37410 0.16900 -0.00100
C 	C 	0.24840 0.39370 0.18980 -0.00000
C 	C 	0.20400 0.27840 0.12970 -0.00000
H 	H 	0.25480 0.28980 0.13640 0.05300
C 	C 	0.18460 0.24470 0.10940 -0.12500
C 	C 	0.23920 0.21320 0.10020 0.40800
O 	O 	0.41390 0.43790 0.39006 -0.40200
O 	O 	0.37100 0.48220 0.41795 -0.39400
O 	O 	0.22570 0.18860 0.08301 -0.43600
O 	O 	0.30390 0.22670 0.11050 -0.40700
C 	C 	0.02977 0.78653 0.73273 0.33000
C 	C 	0.95847 0.78473 0.72173 -0.06700
C 	C 	0.95707 0.78733 0.70013 -0.02800
H 	H 	0.00527 0.79603 0.69273 0.05700
C 	C 	0.94787 0.76893 0.65593 -0.00300
C 	C 	0.95067 0.76803 0.63463 0.00400
C 	C 	0.90267 0.79233 0.62313 -0.00000
C 	C 	0.94257 0.75723 0.59093 0.00300
C 	C 	0.93777 0.74763 0.56973 0.00500
C 	C 	0.76577 0.64543 0.52963 -0.00100
C 	C 	0.75107 0.62583 0.50893 -0.00900
C 	C 	0.81867 0.65683 0.49527 -0.00100
C 	C 	0.80697 0.70743 0.50233 -0.00100
C 	C 	0.91507 0.72703 0.52313 -0.00000
C 	C 	0.87067 0.61173 0.46303 0.00100
H 	H 	0.92147 0.62313 0.46973 0.05200
C 	C 	0.85127 0.57803 0.44273 -0.12700
C 	C 	0.90587 0.54653 0.43353 0.40900
O 	O 	0.08057 0.77123 0.72339 -0.40200
O 	O 	0.03767 0.81553 0.75128 -0.39400
O 	O 	0.89237 0.52193 0.41634 -0.43600
O 	O 	0.97057 0.56003 0.44383 -0.40800
C 	C 	0.69643 0.11987 0.06607 0.33200
C 	C 	0.62513 0.11807 0.05507 -0.06800
C 	C 	0.62373 0.12067 0.03347 -0.03200
H 	H 	0.67193 0.12937 0.02607 0.06000
C 	C 	0.61453 0.10227 0.98927 -0.00400
C 	C 	0.61733 0.10137 0.96797 0.00400
C 	C 	0.56933 0.12567 0.95647 -0.00000
C 	C 	0.60923 0.09057 0.92427 0.00300
C 	C 	0.60443 0.08097 0.90307 0.00500
C 	C 	0.43243 0.97877 0.86297 -0.00400
C 	C 	0.41773 0.95917 0.84227 -0.00900
C 	C 	0.48533 0.99017 0.82861 -0.00300
C 	C 	0.47363 0.04077 0.83567 0.00300
C 	C 	0.58173 0.06037 0.85647 -0.00100
C 	C 	0.53733 0.94507 0.79637 0.00000
H 	H 	0.58813 0.95647 0.80307 0.05200
C 	C 	0.51793 0.91137 0.77607 -0.12700
C 	C 	0.57253 0.87987 0.76687 0.40900
O 	O 	0.74723 0.10457 0.05673 -0.40200
O 	O 	0.70433 0.14887 0.08462 -0.39400
O 	O 	0.55903 0.85527 0.74968 -0.43600
O 	O 	0.63723 0.89337 0.77717 -0.40800
C 	C 	0.54680 0.90990 0.39940 0.33200
C 	C 	0.54860 0.84040 0.38840 -0.06800
C 	C 	0.54600 0.83640 0.36680 -0.03200
H 	H 	0.53730 0.87590 0.35940 0.06000
C 	C 	0.56440 0.84560 0.32260 -0.00400
C 	C 	0.56530 0.84930 0.30130 0.00400
C 	C 	0.54100 0.77700 0.28980 -0.00000
C 	C 	0.57610 0.85200 0.25760 0.00400
C 	C 	0.58570 0.85680 0.23640 0.00500
C 	C 	0.68790 0.78700 0.19630 -0.00100
C 	C 	0.70750 0.79190 0.17560 -0.00900
C 	C 	0.67650 0.82850 0.16194 -0.00100
C 	C 	0.62590 0.76620 0.16900 -0.00100
C 	C 	0.60630 0.85470 0.18980 -0.00000
C 	C 	0.72160 0.92560 0.12970 -0.00100
H 	H 	0.71020 0.96500 0.13640 0.05300
C 	C 	0.75530 0.93990 0.10940 -0.12400
C 	C 	0.78680 0.02600 0.10020 0.40600
O 	O 	0.56210 0.97600 0.39006 -0.40200
O 	O 	0.51780 0.88880 0.41795 -0.39300
O 	O 	0.81140 0.03710 0.08301 -0.43600
O 	O 	0.77330 0.07720 0.11050 -0.40700
C 	C 	0.21347 0.24323 0.73273 0.33300
C 	C 	0.21527 0.17373 0.72173 -0.06900
C 	C 	0.21267 0.16973 0.70013 -0.03100
H 	H 	0.20397 0.20923 0.69273 0.06000
C 	C 	0.23107 0.17893 0.65593 -0.00400
C 	C 	0.23197 0.18263 0.63463 0.00400
C 	C 	0.20767 0.11033 0.62313 -0.00000
C 	C 	0.24277 0.18533 0.59093 0.00300
C 	C 	0.25237 0.19013 0.56973 0.00400
C 	C 	0.35457 0.12033 0.52963 -0.00100
C 	C 	0.37417 0.12523 0.50893 -0.00900
C 	C 	0.34317 0.16183 0.49527 -0.00100
C 	C 	0.29257 0.09953 0.50233 -0.00100
C 	C 	0.27297 0.18803 0.52313 -0.00000
C 	C 	0.38827 0.25893 0.46303 0.00100
H 	H 	0.37687 0.29833 0.46973 0.05200
C 	C 	0.42197 0.27323 0.44273 -0.12600
C 	C 	0.45347 0.35933 0.43353 0.40900
O 	O 	0.22877 0.30933 0.72339 -0.40200
O 	O 	0.18447 0.22213 0.75128 -0.39400
O 	O 	0.47807 0.37043 0.41634 -0.43600
O 	O 	0.43997 0.41053 0.44383 -0.40700
C 	C 	0.88013 0.57657 0.06607 0.33200
C 	C 	0.88193 0.50707 0.05507 -0.06800
C 	C 	0.87933 0.50307 0.03347 -0.03200
H 	H 	0.87063 0.54257 0.02607 0.06000
C 	C 	0.89773 0.51227 0.98927 -0.00400
C 	C 	0.89863 0.51597 0.96797 0.00400
C 	C 	0.87433 0.44367 0.95647 -0.00000
C 	C 	0.90943 0.51867 0.92427 0.00300
C 	C 	0.91903 0.52347 0.90307 0.00500
C 	C 	0.02123 0.45367 0.86297 -0.00400
C 	C 	0.04083 0.45857 0.84227 -0.00900
C 	C 	0.00983 0.49517 0.82861 -0.00300
C 	C 	0.95923 0.43287 0.83567 0.00300
C 	C 	0.93963 0.52137 0.85647 -0.00100
C 	C 	0.05493 0.59227 0.79637 0.00000
H 	H 	0.04353 0.63167 0.80307 0.05200
C 	C 	0.08863 0.60657 0.77607 -0.12700
C 	C 	0.12013 0.69267 0.76687 0.40900
O 	O 	0.89543 0.64267 0.05673 -0.40200
O 	O 	0.85113 0.55547 0.08462 -0.39400
O 	O 	0.14473 0.70377 0.74968 -0.43600
O 	O 	0.10663 0.74387 0.77717 -0.40800
Cu	Cu	0.47477 0.94955 0.43337 0.90500
Cu	Cu	0.52435 0.04869 0.40050 0.91300
Cu	Cu	0.14144 0.28288 0.76670 0.90400
Cu	Cu	0.19101 0.38202 0.73383 0.91300
Cu	Cu	0.80811 0.61622 0.10004 0.90500
Cu	Cu	0.85768 0.71536 0.06717 0.91300
Cu	Cu	0.47477 0.52523 0.43337 0.90500
Cu	Cu	0.52434 0.47565 0.40050 0.91300
Cu	Cu	0.14144 0.85856 0.76670 0.90400
Cu	Cu	0.19101 0.80899 0.73383 0.91300
Cu	Cu	0.80811 0.19189 0.10004 0.90500
Cu	Cu	0.85768 0.14232 0.06717 0.91300
Cu	Cu	0.05045 0.52523 0.43337 0.90500
Cu	Cu	0.95131 0.47565 0.40050 0.91300
Cu	Cu	0.71712 0.85856 0.76670 0.90400
Cu	Cu	0.61798 0.80899 0.73383 0.91300
Cu	Cu	0.38378 0.19189 0.10004 0.90500
Cu	Cu	0.28464 0.14232 0.06717 0.91300
C 	C 	0.22950 0.77050 0.39880 0.01600
H 	H 	0.23460 0.76540 0.41310 0.05900
C 	C 	0.22150 0.77850 0.35620 0.02300
C 	C 	0.23000 0.77000 0.33240 -0.01000
C 	C 	0.20550 0.79450 0.26866 0.00200
C 	C 	0.19655 0.80345 0.22628 -0.00100
C 	C 	0.18110 0.81890 0.20341 0.00200
C 	C 	0.14650 0.85350 0.13910 0.00100
C 	C 	0.11445 0.88555 0.10130 0.08600
H 	H 	0.10165 0.89835 0.08810 0.03400
C 	C 	0.89617 0.10383 0.73213 0.01600
H 	H 	0.90127 0.09873 0.74643 0.06000
C 	C 	0.88817 0.11183 0.68953 0.01900
C 	C 	0.89667 0.10333 0.66573 -0.00900
C 	C 	0.87217 0.12783 0.60199 0.00200
C 	C 	0.86322 0.13678 0.55961 -0.00100
C 	C 	0.84777 0.15223 0.53674 0.00200
C 	C 	0.81317 0.18683 0.47243 -0.00200
C 	C 	0.78112 0.21888 0.43463 0.09100
H 	H 	0.76832 0.23168 0.42143 0.03200
C 	C 	0.56283 0.43717 0.06547 0.01700
H 	H 	0.56793 0.43207 0.07977 0.05900
C 	C 	0.55483 0.44517 0.02287 0.02200
C 	C 	0.56333 0.43667 0.99907 -0.01000
C 	C 	0.53883 0.46117 0.93533 0.00200
C 	C 	0.52988 0.47012 0.89295 -0.00100
C 	C 	0.51443 0.48557 0.87008 0.00200
C 	C 	0.47983 0.52017 0.80577 -0.00100
C 	C 	0.44778 0.55222 0.76797 0.09000
H 	H 	0.43498 0.56502 0.75477 0.03200
C 	C 	0.54100 0.77050 0.39880 0.01700
H 	H 	0.53080 0.76540 0.41310 0.05900
C 	C 	0.55700 0.77850 0.35620 0.02200
C 	C 	0.54000 0.77000 0.33240 -0.01000
C 	C 	0.58900 0.79450 0.26866 0.00200
C 	C 	0.60690 0.80345 0.22628 -0.00100
C 	C 	0.63780 0.81890 0.20341 0.00200
C 	C 	0.70700 0.85350 0.13910 -0.00000
C 	C 	0.77110 0.88555 0.10130 0.08800
H 	H 	0.79670 0.89835 0.08810 0.03300
C 	C 	0.20767 0.10383 0.73213 0.01600
H 	H 	0.19747 0.09873 0.74643 0.06000
C 	C 	0.22367 0.11183 0.68953 0.02100
C 	C 	0.20667 0.10333 0.66573 -0.01000
C 	C 	0.25567 0.12783 0.60199 0.00200
C 	C 	0.27357 0.13678 0.55961 -0.00100
C 	C 	0.30447 0.15223 0.53674 0.00200
C 	C 	0.37367 0.18683 0.47243 -0.00100
C 	C 	0.43777 0.21888 0.43463 0.09000
H 	H 	0.46337 0.23168 0.42143 0.03200
C 	C 	0.87433 0.43717 0.06547 0.01700
H 	H 	0.86413 0.43207 0.07977 0.05900
C 	C 	0.89033 0.44517 0.02287 0.02200
C 	C 	0.87333 0.43667 0.99907 -0.01000
C 	C 	0.92233 0.46117 0.93533 0.00200
C 	C 	0.94023 0.47012 0.89295 -0.00200
C 	C 	0.97113 0.48557 0.87008 0.00600
C 	C 	0.04033 0.52017 0.80577 -0.00100
C 	C 	0.10443 0.55222 0.76797 0.09000
H 	H 	0.13003 0.56502 0.75477 0.03200
C 	C 	0.22950 0.45900 0.39880 0.01700
H 	H 	0.23460 0.46920 0.41310 0.05900
C 	C 	0.22150 0.44300 0.35620 0.02200
C 	C 	0.23000 0.46000 0.33240 -0.01000
C 	C 	0.20550 0.41100 0.26866 0.00200
C 	C 	0.19655 0.39310 0.22628 -0.00100
C 	C 	0.18110 0.36220 0.20341 0.00200
C 	C 	0.14650 0.29300 0.13910 -0.00000
C 	C 	0.11445 0.22890 0.10130 0.08800
H 	H 	0.10165 0.20330 0.08810 0.03300
C 	C 	0.89617 0.79233 0.73213 0.01600
H 	H 	0.90127 0.80253 0.74643 0.06000
C 	C 	0.88817 0.77633 0.68953 0.02100
C 	C 	0.89667 0.79333 0.66573 -0.01000
C 	C 	0.87217 0.74433 0.60199 0.00200
C 	C 	0.86322 0.72643 0.55961 -0.00100
C 	C 	0.84777 0.69553 0.53674 0.00200
C 	C 	0.81317 0.62633 0.47243 -0.00100
C 	C 	0.78112 0.56223 0.43463 0.09000
H 	H 	0.76832 0.53663 0.42143 0.03200
C 	C 	0.56283 0.12567 0.06547 0.01700
H 	H 	0.56793 0.13587 0.07977 0.05900
C 	C 	0.55483 0.10967 0.02287 0.02200
C 	C 	0.56333 0.12667 0.99907 -0.01000
C 	C 	0.53883 0.07767 0.93533 0.00200
C 	C 	0.52988 0.05977 0.89295 -0.00200
C 	C 	0.51443 0.02887 0.87008 0.00600
C 	C 	0.47983 0.95967 0.80577 -0.00100
C 	C 	0.44778 0.89557 0.76797 0.09000
H 	H 	0.43498 0.86997 0.75477 0.03200
