data_crystal

_cell_length_a 18.51300
_cell_length_b 18.51300
_cell_length_c 45.35400
_cell_angle_alpha 90.00000
_cell_angle_beta  90.00000
_cell_angle_gamma 120.00000

_symmetry_space_group_name_	'P 1'
_symmetry_space_group_name_H-M	'P 1'

loop_
_symmetry_equiv_pos_as_xyz
  x,y,z

loop_
_atom_site_label
_atom_site_type_symbol
_atom_site_fract_x
_atom_site_fract_y
_atom_site_fract_z
_atom_site_charge
O 	O 	0.89590 0.13250 0.09900 -0.06100
O 	O 	0.88900 0.07510 0.10720 -0.04800
O 	O 	0.74300 0.10480 0.12907 -0.39600
O 	O 	0.70220 0.14530 0.16960 -0.36300
C 	C 	0.69890 0.12290 0.14179 0.34900
C 	C 	0.61690 0.10000 0.12938 -0.06100
C 	C 	0.59920 0.06840 0.10038 -0.03200
H 	H 	0.63730 0.05800 0.09060 0.07200
C 	C 	0.53310 0.02410 0.05419 0.01500
C 	C 	0.55300 0.96420 0.04534 -0.08700
H 	H 	0.57350 0.94150 0.05890 0.07900
C 	C 	0.54210 0.93840 0.01609 0.03200
C 	C 	0.51150 0.97240 0.99571 -0.00300
C 	C 	0.50240 0.05810 0.03380 0.00200
O 	O 	0.56257 0.46583 0.43233 -0.06100
O 	O 	0.55567 0.40843 0.44053 -0.04800
O 	O 	0.40967 0.43813 0.46240 -0.39600
O 	O 	0.36887 0.47863 0.50293 -0.36300
C 	C 	0.36557 0.45623 0.47512 0.34900
C 	C 	0.28357 0.43333 0.46271 -0.06100
C 	C 	0.26587 0.40173 0.43371 -0.03200
H 	H 	0.30397 0.39133 0.42393 0.07200
C 	C 	0.19977 0.35743 0.38752 0.01500
C 	C 	0.21967 0.29753 0.37867 -0.08700
H 	H 	0.24017 0.27483 0.39223 0.07900
C 	C 	0.20877 0.27173 0.34942 0.03200
C 	C 	0.17817 0.30573 0.32904 -0.00300
C 	C 	0.16907 0.39143 0.36713 0.00200
O 	O 	0.22923 0.79917 0.76567 -0.06100
O 	O 	0.22233 0.74177 0.77387 -0.04800
O 	O 	0.07633 0.77147 0.79574 -0.39700
O 	O 	0.03553 0.81197 0.83627 -0.36300
C 	C 	0.03223 0.78957 0.80846 0.34900
C 	C 	0.95023 0.76667 0.79605 -0.06200
C 	C 	0.93253 0.73507 0.76705 -0.03200
H 	H 	0.97063 0.72467 0.75727 0.07200
C 	C 	0.86643 0.69077 0.72086 0.01500
C 	C 	0.88633 0.63087 0.71201 -0.08700
H 	H 	0.90683 0.60817 0.72557 0.07900
C 	C 	0.87543 0.60507 0.68276 0.03200
C 	C 	0.84483 0.63907 0.66238 -0.00300
C 	C 	0.83573 0.72477 0.70047 0.00200
O 	O 	0.86750 0.76340 0.09900 -0.06100
O 	O 	0.92490 0.81390 0.10720 -0.04800
O 	O 	0.89520 0.63820 0.12907 -0.39700
O 	O 	0.85470 0.55690 0.16960 -0.36300
C 	C 	0.87710 0.57600 0.14179 0.34800
C 	C 	0.90000 0.51690 0.12938 -0.06200
C 	C 	0.93160 0.53080 0.10038 -0.03300
H 	H 	0.94200 0.57930 0.09060 0.07100
C 	C 	0.97590 0.50900 0.05419 0.01400
C 	C 	0.03580 0.58880 0.04534 -0.08800
H 	H 	0.05850 0.63200 0.05890 0.07800
C 	C 	0.06160 0.60370 0.01609 0.03100
C 	C 	0.02760 0.53910 0.99571 -0.00400
C 	C 	0.94190 0.44430 0.03380 0.00100
O 	O 	0.53417 0.09673 0.43233 -0.06200
O 	O 	0.59157 0.14723 0.44053 -0.04900
O 	O 	0.56187 0.97153 0.46240 -0.39800
O 	O 	0.52137 0.89023 0.50293 -0.36400
C 	C 	0.54377 0.90933 0.47512 0.34800
C 	C 	0.56667 0.85023 0.46271 -0.06200
C 	C 	0.59827 0.86413 0.43371 -0.03300
H 	H 	0.60867 0.91263 0.42393 0.07100
C 	C 	0.64257 0.84233 0.38752 0.01400
C 	C 	0.70247 0.92213 0.37867 -0.08800
H 	H 	0.72517 0.96533 0.39223 0.07800
C 	C 	0.72827 0.93703 0.34942 0.03100
C 	C 	0.69427 0.87243 0.32904 -0.00400
C 	C 	0.60857 0.77763 0.36713 0.00100
O 	O 	0.20083 0.43007 0.76567 -0.06200
O 	O 	0.25823 0.48057 0.77387 -0.04900
O 	O 	0.22853 0.30487 0.79574 -0.39800
O 	O 	0.18803 0.22357 0.83627 -0.36400
C 	C 	0.21043 0.24267 0.80846 0.34800
C 	C 	0.23333 0.18357 0.79605 -0.06200
C 	C 	0.26493 0.19747 0.76705 -0.03300
H 	H 	0.27533 0.24597 0.75727 0.07100
C 	C 	0.30923 0.17567 0.72086 0.01400
C 	C 	0.36913 0.25547 0.71201 -0.08800
H 	H 	0.39183 0.29867 0.72557 0.07800
C 	C 	0.39493 0.27037 0.68276 0.03100
C 	C 	0.36093 0.20577 0.66238 -0.00400
C 	C 	0.27523 0.11097 0.70047 0.00100
O 	O 	0.23660 0.10410 0.09900 -0.06200
O 	O 	0.18610 0.11100 0.10720 -0.04900
O 	O 	0.36180 0.25700 0.12907 -0.39800
O 	O 	0.44310 0.29780 0.16960 -0.36400
C 	C 	0.42400 0.30110 0.14179 0.34800
C 	C 	0.48310 0.38310 0.12938 -0.06200
C 	C 	0.46920 0.40080 0.10038 -0.03300
H 	H 	0.42070 0.36270 0.09060 0.07100
C 	C 	0.49100 0.46690 0.05419 0.01400
C 	C 	0.41120 0.44700 0.04534 -0.08800
H 	H 	0.36800 0.42650 0.05890 0.07800
C 	C 	0.39630 0.45790 0.01609 0.03100
C 	C 	0.46090 0.48850 0.99571 -0.00400
C 	C 	0.55570 0.49760 0.03380 0.00100
O 	O 	0.90327 0.43743 0.43233 -0.06200
O 	O 	0.85277 0.44433 0.44053 -0.04900
O 	O 	0.02847 0.59033 0.46240 -0.39800
O 	O 	0.10977 0.63113 0.50293 -0.36400
C 	C 	0.09067 0.63443 0.47512 0.34800
C 	C 	0.14977 0.71643 0.46271 -0.06200
C 	C 	0.13587 0.73413 0.43371 -0.03300
H 	H 	0.08737 0.69603 0.42393 0.07100
C 	C 	0.15767 0.80023 0.38752 0.01400
C 	C 	0.07787 0.78033 0.37867 -0.08800
H 	H 	0.03467 0.75983 0.39223 0.07800
C 	C 	0.06297 0.79123 0.34942 0.03100
C 	C 	0.12757 0.82183 0.32904 -0.00400
C 	C 	0.22237 0.83093 0.36713 0.00100
O 	O 	0.56993 0.77077 0.76567 -0.06200
O 	O 	0.51943 0.77767 0.77387 -0.04900
O 	O 	0.69513 0.92367 0.79574 -0.39800
O 	O 	0.77643 0.96447 0.83627 -0.36400
C 	C 	0.75733 0.96777 0.80846 0.34900
C 	C 	0.81643 0.04977 0.79605 -0.06300
C 	C 	0.80253 0.06747 0.76705 -0.03200
H 	H 	0.75403 0.02937 0.75727 0.07100
C 	C 	0.82433 0.13357 0.72086 0.01400
C 	C 	0.74453 0.11367 0.71201 -0.08800
H 	H 	0.70133 0.09317 0.72557 0.07800
C 	C 	0.72963 0.12457 0.68276 0.03100
C 	C 	0.79423 0.15517 0.66238 -0.00400
C 	C 	0.88903 0.16427 0.70047 0.00100
O 	O 	0.13250 0.89590 0.90100 -0.06200
O 	O 	0.07510 0.88900 0.89280 -0.04900
O 	O 	0.10480 0.74300 0.87093 -0.39700
O 	O 	0.14530 0.70220 0.83040 -0.36400
C 	C 	0.12290 0.69890 0.85821 0.34800
C 	C 	0.10000 0.61690 0.87062 -0.06200
C 	C 	0.06840 0.59920 0.89962 -0.03300
H 	H 	0.05800 0.63730 0.90940 0.07100
C 	C 	0.02410 0.53310 0.94581 0.01400
C 	C 	0.96420 0.55300 0.95466 -0.08800
H 	H 	0.94150 0.57350 0.94110 0.07800
C 	C 	0.93840 0.54210 0.98391 0.03100
C 	C 	0.97240 0.51150 0.00429 -0.00400
C 	C 	0.05810 0.50240 0.96620 0.00100
O 	O 	0.79917 0.22923 0.23433 -0.06200
O 	O 	0.74177 0.22233 0.22613 -0.04900
O 	O 	0.77147 0.07633 0.20426 -0.39800
O 	O 	0.81197 0.03553 0.16373 -0.36400
C 	C 	0.78957 0.03223 0.19154 0.34800
C 	C 	0.76667 0.95023 0.20395 -0.06300
C 	C 	0.73507 0.93253 0.23295 -0.03300
H 	H 	0.72467 0.97063 0.24273 0.07100
C 	C 	0.69077 0.86643 0.27914 0.01400
C 	C 	0.63087 0.88633 0.28799 -0.08800
H 	H 	0.60817 0.90683 0.27443 0.07800
C 	C 	0.60507 0.87543 0.31724 0.03100
C 	C 	0.63907 0.84483 0.33762 -0.00400
C 	C 	0.72477 0.83573 0.29953 0.00100
O 	O 	0.46583 0.56257 0.56767 -0.06200
O 	O 	0.40843 0.55567 0.55947 -0.04900
O 	O 	0.43813 0.40967 0.53760 -0.39700
O 	O 	0.47863 0.36887 0.49707 -0.36400
C 	C 	0.45623 0.36557 0.52488 0.34800
C 	C 	0.43333 0.28357 0.53729 -0.06200
C 	C 	0.40173 0.26587 0.56629 -0.03300
H 	H 	0.39133 0.30397 0.57607 0.07100
C 	C 	0.35743 0.19977 0.61248 0.01400
C 	C 	0.29753 0.21967 0.62133 -0.08800
H 	H 	0.27483 0.24017 0.60777 0.07800
C 	C 	0.27173 0.20877 0.65058 0.03100
C 	C 	0.30573 0.17817 0.67096 -0.00400
C 	C 	0.39143 0.16907 0.63287 0.00100
O 	O 	0.76340 0.86750 0.90100 -0.06200
O 	O 	0.81390 0.92490 0.89280 -0.04900
O 	O 	0.63820 0.89520 0.87093 -0.39800
O 	O 	0.55690 0.85470 0.83040 -0.36400
C 	C 	0.57600 0.87710 0.85821 0.34800
C 	C 	0.51690 0.90000 0.87062 -0.06200
C 	C 	0.53080 0.93160 0.89962 -0.03300
H 	H 	0.57930 0.94200 0.90940 0.07100
C 	C 	0.50900 0.97590 0.94581 0.01400
C 	C 	0.58880 0.03580 0.95466 -0.08800
H 	H 	0.63200 0.05850 0.94110 0.07800
C 	C 	0.60370 0.06160 0.98391 0.03100
C 	C 	0.53910 0.02760 0.00429 -0.00400
C 	C 	0.44430 0.94190 0.96620 0.00100
O 	O 	0.43007 0.20083 0.23433 -0.06200
O 	O 	0.48057 0.25823 0.22613 -0.04900
O 	O 	0.30487 0.22853 0.20426 -0.39800
O 	O 	0.22357 0.18803 0.16373 -0.36400
C 	C 	0.24267 0.21043 0.19154 0.34800
C 	C 	0.18357 0.23333 0.20395 -0.06200
C 	C 	0.19747 0.26493 0.23295 -0.03300
H 	H 	0.24597 0.27533 0.24273 0.07100
C 	C 	0.17567 0.30923 0.27914 0.01400
C 	C 	0.25547 0.36913 0.28799 -0.08800
H 	H 	0.29867 0.39183 0.27443 0.07800
C 	C 	0.27037 0.39493 0.31724 0.03100
C 	C 	0.20577 0.36093 0.33762 -0.00400
C 	C 	0.11097 0.27523 0.29953 0.00100
O 	O 	0.09673 0.53417 0.56767 -0.06200
O 	O 	0.14723 0.59157 0.55947 -0.04900
O 	O 	0.97153 0.56187 0.53760 -0.39800
O 	O 	0.89023 0.52137 0.49707 -0.36400
C 	C 	0.90933 0.54377 0.52488 0.34800
C 	C 	0.85023 0.56667 0.53729 -0.06200
C 	C 	0.86413 0.59827 0.56629 -0.03300
H 	H 	0.91263 0.60867 0.57607 0.07100
C 	C 	0.84233 0.64257 0.61248 0.01400
C 	C 	0.92213 0.70247 0.62133 -0.08800
H 	H 	0.96533 0.72517 0.60777 0.07800
C 	C 	0.93703 0.72827 0.65058 0.03100
C 	C 	0.87243 0.69427 0.67096 -0.00400
C 	C 	0.77763 0.60857 0.63287 0.00100
O 	O 	0.10410 0.23660 0.90100 -0.06200
O 	O 	0.11100 0.18610 0.89280 -0.04900
O 	O 	0.25700 0.36180 0.87093 -0.39800
O 	O 	0.29780 0.44310 0.83040 -0.36400
C 	C 	0.30110 0.42400 0.85821 0.34800
C 	C 	0.38310 0.48310 0.87062 -0.06200
C 	C 	0.40080 0.46920 0.89962 -0.03300
H 	H 	0.36270 0.42070 0.90940 0.07100
C 	C 	0.46690 0.49100 0.94581 0.01400
C 	C 	0.44700 0.41120 0.95466 -0.08800
H 	H 	0.42650 0.36800 0.94110 0.07800
C 	C 	0.45790 0.39630 0.98391 0.03100
C 	C 	0.48850 0.46090 0.00429 -0.00400
C 	C 	0.49760 0.55570 0.96620 0.00100
O 	O 	0.77077 0.56993 0.23433 -0.06200
O 	O 	0.77767 0.51943 0.22613 -0.04900
O 	O 	0.92367 0.69513 0.20426 -0.39800
O 	O 	0.96447 0.77643 0.16373 -0.36400
C 	C 	0.96777 0.75733 0.19154 0.34900
C 	C 	0.04977 0.81643 0.20395 -0.06300
C 	C 	0.06747 0.80253 0.23295 -0.03200
H 	H 	0.02937 0.75403 0.24273 0.07100
C 	C 	0.13357 0.82433 0.27914 0.01400
C 	C 	0.11367 0.74453 0.28799 -0.08800
H 	H 	0.09317 0.70133 0.27443 0.07800
C 	C 	0.12457 0.72963 0.31724 0.03100
C 	C 	0.15517 0.79423 0.33762 -0.00400
C 	C 	0.16427 0.88903 0.29953 0.00100
O 	O 	0.43743 0.90327 0.56767 -0.06200
O 	O 	0.44433 0.85277 0.55947 -0.04900
O 	O 	0.59033 0.02847 0.53760 -0.39800
O 	O 	0.63113 0.10977 0.49707 -0.36400
C 	C 	0.63443 0.09067 0.52488 0.34800
C 	C 	0.71643 0.14977 0.53729 -0.06200
C 	C 	0.73413 0.13587 0.56629 -0.03300
H 	H 	0.69603 0.08737 0.57607 0.07100
C 	C 	0.80023 0.15767 0.61248 0.01400
C 	C 	0.78033 0.07787 0.62133 -0.08800
H 	H 	0.75983 0.03467 0.60777 0.07800
C 	C 	0.79123 0.06297 0.65058 0.03100
C 	C 	0.82183 0.12757 0.67096 -0.00400
C 	C 	0.83093 0.22237 0.63287 0.00100
O 	O 	0.10410 0.86750 0.90100 -0.06200
O 	O 	0.11100 0.92490 0.89280 -0.04900
O 	O 	0.25700 0.89520 0.87093 -0.39700
O 	O 	0.29780 0.85470 0.83040 -0.36400
C 	C 	0.30110 0.87710 0.85821 0.34800
C 	C 	0.38310 0.90000 0.87062 -0.06200
C 	C 	0.40080 0.93160 0.89962 -0.03300
H 	H 	0.36270 0.94200 0.90940 0.07100
C 	C 	0.46690 0.97590 0.94581 0.01400
C 	C 	0.44700 0.03580 0.95466 -0.08800
H 	H 	0.42650 0.05850 0.94110 0.07800
C 	C 	0.45790 0.06160 0.98391 0.03100
C 	C 	0.48850 0.02760 0.00429 -0.00400
C 	C 	0.49760 0.94190 0.96620 0.00100
O 	O 	0.77077 0.20083 0.23433 -0.06200
O 	O 	0.77767 0.25823 0.22613 -0.04900
O 	O 	0.92367 0.22853 0.20426 -0.39800
O 	O 	0.96447 0.18803 0.16373 -0.36400
C 	C 	0.96777 0.21043 0.19154 0.34800
C 	C 	0.04977 0.23333 0.20395 -0.06300
C 	C 	0.06747 0.26493 0.23295 -0.03300
H 	H 	0.02937 0.27533 0.24273 0.07100
C 	C 	0.13357 0.30923 0.27914 0.01400
C 	C 	0.11367 0.36913 0.28799 -0.08800
H 	H 	0.09317 0.39183 0.27443 0.07800
C 	C 	0.12457 0.39493 0.31724 0.03100
C 	C 	0.15517 0.36093 0.33762 -0.00400
C 	C 	0.16427 0.27523 0.29953 0.00100
O 	O 	0.43743 0.53417 0.56767 -0.06200
O 	O 	0.44433 0.59157 0.55947 -0.04900
O 	O 	0.59033 0.56187 0.53760 -0.39700
O 	O 	0.63113 0.52137 0.49707 -0.36400
C 	C 	0.63443 0.54377 0.52488 0.34800
C 	C 	0.71643 0.56667 0.53729 -0.06200
C 	C 	0.73413 0.59827 0.56629 -0.03300
H 	H 	0.69603 0.60867 0.57607 0.07100
C 	C 	0.80023 0.64257 0.61248 0.01400
C 	C 	0.78033 0.70247 0.62133 -0.08800
H 	H 	0.75983 0.72517 0.60777 0.07800
C 	C 	0.79123 0.72827 0.65058 0.03100
C 	C 	0.82183 0.69427 0.67096 -0.00400
C 	C 	0.83093 0.60857 0.63287 0.00100
O 	O 	0.13250 0.23660 0.90100 -0.06200
O 	O 	0.07510 0.18610 0.89280 -0.04900
O 	O 	0.10480 0.36180 0.87093 -0.39800
O 	O 	0.14530 0.44310 0.83040 -0.36400
C 	C 	0.12290 0.42400 0.85821 0.34800
C 	C 	0.10000 0.48310 0.87062 -0.06200
C 	C 	0.06840 0.46920 0.89962 -0.03300
H 	H 	0.05800 0.42070 0.90940 0.07100
C 	C 	0.02410 0.49100 0.94581 0.01400
C 	C 	0.96420 0.41120 0.95466 -0.08800
H 	H 	0.94150 0.36800 0.94110 0.07800
C 	C 	0.93840 0.39630 0.98391 0.03100
C 	C 	0.97240 0.46090 0.00429 -0.00400
C 	C 	0.05810 0.55570 0.96620 0.00100
O 	O 	0.79917 0.56993 0.23433 -0.06200
O 	O 	0.74177 0.51943 0.22613 -0.04900
O 	O 	0.77147 0.69513 0.20426 -0.39800
O 	O 	0.81197 0.77643 0.16373 -0.36400
C 	C 	0.78957 0.75733 0.19154 0.34800
C 	C 	0.76667 0.81643 0.20395 -0.06200
C 	C 	0.73507 0.80253 0.23295 -0.03300
H 	H 	0.72467 0.75403 0.24273 0.07100
C 	C 	0.69077 0.82433 0.27914 0.01400
C 	C 	0.63087 0.74453 0.28799 -0.08800
H 	H 	0.60817 0.70133 0.27443 0.07800
C 	C 	0.60507 0.72963 0.31724 0.03100
C 	C 	0.63907 0.79423 0.33762 -0.00400
C 	C 	0.72477 0.88903 0.29953 0.00100
O 	O 	0.46583 0.90327 0.56767 -0.06200
O 	O 	0.40843 0.85277 0.55947 -0.04900
O 	O 	0.43813 0.02847 0.53760 -0.39800
O 	O 	0.47863 0.10977 0.49707 -0.36400
C 	C 	0.45623 0.09067 0.52488 0.34800
C 	C 	0.43333 0.14977 0.53729 -0.06200
C 	C 	0.40173 0.13587 0.56629 -0.03300
H 	H 	0.39133 0.08737 0.57607 0.07100
C 	C 	0.35743 0.15767 0.61248 0.01400
C 	C 	0.29753 0.07787 0.62133 -0.08800
H 	H 	0.27483 0.03467 0.60777 0.07800
C 	C 	0.27173 0.06297 0.65058 0.03100
C 	C 	0.30573 0.12757 0.67096 -0.00400
C 	C 	0.39143 0.22237 0.63287 0.00100
O 	O 	0.76340 0.89590 0.90100 -0.06200
O 	O 	0.81390 0.88900 0.89280 -0.04900
O 	O 	0.63820 0.74300 0.87093 -0.39800
O 	O 	0.55690 0.70220 0.83040 -0.36400
C 	C 	0.57600 0.69890 0.85821 0.34800
C 	C 	0.51690 0.61690 0.87062 -0.06200
C 	C 	0.53080 0.59920 0.89962 -0.03300
H 	H 	0.57930 0.63730 0.90940 0.07100
C 	C 	0.50900 0.53310 0.94581 0.01400
C 	C 	0.58880 0.55300 0.95466 -0.08800
H 	H 	0.63200 0.57350 0.94110 0.07800
C 	C 	0.60370 0.54210 0.98391 0.03100
C 	C 	0.53910 0.51150 0.00429 -0.00400
C 	C 	0.44430 0.50240 0.96620 0.00100
O 	O 	0.43007 0.22923 0.23433 -0.06200
O 	O 	0.48057 0.22233 0.22613 -0.04900
O 	O 	0.30487 0.07633 0.20426 -0.39800
O 	O 	0.22357 0.03553 0.16373 -0.36400
C 	C 	0.24267 0.03223 0.19154 0.34900
C 	C 	0.18357 0.95023 0.20395 -0.06300
C 	C 	0.19747 0.93253 0.23295 -0.03200
H 	H 	0.24597 0.97063 0.24273 0.07100
C 	C 	0.17567 0.86643 0.27914 0.01400
C 	C 	0.25547 0.88633 0.28799 -0.08800
H 	H 	0.29867 0.90683 0.27443 0.07800
C 	C 	0.27037 0.87543 0.31724 0.03100
C 	C 	0.20577 0.84483 0.33762 -0.00400
C 	C 	0.11097 0.83573 0.29953 0.00100
O 	O 	0.09673 0.56257 0.56767 -0.06200
O 	O 	0.14723 0.55567 0.55947 -0.04900
O 	O 	0.97153 0.40967 0.53760 -0.39800
O 	O 	0.89023 0.36887 0.49707 -0.36400
C 	C 	0.90933 0.36557 0.52488 0.34800
C 	C 	0.85023 0.28357 0.53729 -0.06200
C 	C 	0.86413 0.26587 0.56629 -0.03300
H 	H 	0.91263 0.30397 0.57607 0.07100
C 	C 	0.84233 0.19977 0.61248 0.01400
C 	C 	0.92213 0.21967 0.62133 -0.08800
H 	H 	0.96533 0.24017 0.60777 0.07800
C 	C 	0.93703 0.20877 0.65058 0.03100
C 	C 	0.87243 0.17817 0.67096 -0.00400
C 	C 	0.77763 0.16907 0.63287 0.00100
O 	O 	0.86750 0.10410 0.09900 -0.06200
O 	O 	0.92490 0.11100 0.10720 -0.04900
O 	O 	0.89520 0.25700 0.12907 -0.39700
O 	O 	0.85470 0.29780 0.16960 -0.36400
C 	C 	0.87710 0.30110 0.14179 0.34800
C 	C 	0.90000 0.38310 0.12938 -0.06200
C 	C 	0.93160 0.40080 0.10038 -0.03300
H 	H 	0.94200 0.36270 0.09060 0.07100
C 	C 	0.97590 0.46690 0.05419 0.01400
C 	C 	0.03580 0.44700 0.04534 -0.08800
H 	H 	0.05850 0.42650 0.05890 0.07800
C 	C 	0.06160 0.45790 0.01609 0.03100
C 	C 	0.02760 0.48850 0.99571 -0.00400
C 	C 	0.94190 0.49760 0.03380 0.00100
O 	O 	0.53417 0.43743 0.43233 -0.06200
O 	O 	0.59157 0.44433 0.44053 -0.04900
O 	O 	0.56187 0.59033 0.46240 -0.39700
O 	O 	0.52137 0.63113 0.50293 -0.36400
C 	C 	0.54377 0.63443 0.47512 0.34800
C 	C 	0.56667 0.71643 0.46271 -0.06200
C 	C 	0.59827 0.73413 0.43371 -0.03300
H 	H 	0.60867 0.69603 0.42393 0.07100
C 	C 	0.64257 0.80023 0.38752 0.01400
C 	C 	0.70247 0.78033 0.37867 -0.08800
H 	H 	0.72517 0.75983 0.39223 0.07800
C 	C 	0.72827 0.79123 0.34942 0.03100
C 	C 	0.69427 0.82183 0.32904 -0.00400
C 	C 	0.60857 0.83093 0.36713 0.00100
O 	O 	0.20083 0.77077 0.76567 -0.06200
O 	O 	0.25823 0.77767 0.77387 -0.04900
O 	O 	0.22853 0.92367 0.79574 -0.39800
O 	O 	0.18803 0.96447 0.83627 -0.36400
C 	C 	0.21043 0.96777 0.80846 0.34800
C 	C 	0.23333 0.04977 0.79605 -0.06300
C 	C 	0.26493 0.06747 0.76705 -0.03300
H 	H 	0.27533 0.02937 0.75727 0.07100
C 	C 	0.30923 0.13357 0.72086 0.01400
C 	C 	0.36913 0.11367 0.71201 -0.08800
H 	H 	0.39183 0.09317 0.72557 0.07800
C 	C 	0.39493 0.12457 0.68276 0.03100
C 	C 	0.36093 0.15517 0.66238 -0.00400
C 	C 	0.27523 0.16427 0.70047 0.00100
O 	O 	0.23660 0.13250 0.09900 -0.06200
O 	O 	0.18610 0.07510 0.10720 -0.04900
O 	O 	0.36180 0.10480 0.12907 -0.39800
O 	O 	0.44310 0.14530 0.16960 -0.36400
C 	C 	0.42400 0.12290 0.14179 0.34800
C 	C 	0.48310 0.10000 0.12938 -0.06200
C 	C 	0.46920 0.06840 0.10038 -0.03300
H 	H 	0.42070 0.05800 0.09060 0.07100
C 	C 	0.49100 0.02410 0.05419 0.01400
C 	C 	0.41120 0.96420 0.04534 -0.08800
H 	H 	0.36800 0.94150 0.05890 0.07800
C 	C 	0.39630 0.93840 0.01609 0.03100
C 	C 	0.46090 0.97240 0.99571 -0.00400
C 	C 	0.55570 0.05810 0.03380 0.00100
O 	O 	0.90327 0.46583 0.43233 -0.06200
O 	O 	0.85277 0.40843 0.44053 -0.04900
O 	O 	0.02847 0.43813 0.46240 -0.39800
O 	O 	0.10977 0.47863 0.50293 -0.36400
C 	C 	0.09067 0.45623 0.47512 0.34800
C 	C 	0.14977 0.43333 0.46271 -0.06200
C 	C 	0.13587 0.40173 0.43371 -0.03300
H 	H 	0.08737 0.39133 0.42393 0.07100
C 	C 	0.15767 0.35743 0.38752 0.01400
C 	C 	0.07787 0.29753 0.37867 -0.08800
H 	H 	0.03467 0.27483 0.39223 0.07800
C 	C 	0.06297 0.27173 0.34942 0.03100
C 	C 	0.12757 0.30573 0.32904 -0.00400
C 	C 	0.22237 0.39143 0.36713 0.00100
O 	O 	0.56993 0.79917 0.76567 -0.06200
O 	O 	0.51943 0.74177 0.77387 -0.04900
O 	O 	0.69513 0.77147 0.79574 -0.39800
O 	O 	0.77643 0.81197 0.83627 -0.36400
C 	C 	0.75733 0.78957 0.80846 0.34800
C 	C 	0.81643 0.76667 0.79605 -0.06200
C 	C 	0.80253 0.73507 0.76705 -0.03300
H 	H 	0.75403 0.72467 0.75727 0.07100
C 	C 	0.82433 0.69077 0.72086 0.01400
C 	C 	0.74453 0.63087 0.71201 -0.08800
H 	H 	0.70133 0.60817 0.72557 0.07800
C 	C 	0.72963 0.60507 0.68276 0.03100
C 	C 	0.79423 0.63907 0.66238 -0.00400
C 	C 	0.88903 0.72477 0.70047 0.00100
O 	O 	0.89590 0.76340 0.09900 -0.06200
O 	O 	0.88900 0.81390 0.10720 -0.04900
O 	O 	0.74300 0.63820 0.12907 -0.39800
O 	O 	0.70220 0.55690 0.16960 -0.36400
C 	C 	0.69890 0.57600 0.14179 0.34800
C 	C 	0.61690 0.51690 0.12938 -0.06200
C 	C 	0.59920 0.53080 0.10038 -0.03300
H 	H 	0.63730 0.57930 0.09060 0.07100
C 	C 	0.53310 0.50900 0.05419 0.01400
C 	C 	0.55300 0.58880 0.04534 -0.08800
H 	H 	0.57350 0.63200 0.05890 0.07800
C 	C 	0.54210 0.60370 0.01609 0.03100
C 	C 	0.51150 0.53910 0.99571 -0.00400
C 	C 	0.50240 0.44430 0.03380 0.00100
O 	O 	0.56257 0.09673 0.43233 -0.06200
O 	O 	0.55567 0.14723 0.44053 -0.04900
O 	O 	0.40967 0.97153 0.46240 -0.39800
O 	O 	0.36887 0.89023 0.50293 -0.36400
C 	C 	0.36557 0.90933 0.47512 0.34800
C 	C 	0.28357 0.85023 0.46271 -0.06200
C 	C 	0.26587 0.86413 0.43371 -0.03300
H 	H 	0.30397 0.91263 0.42393 0.07100
C 	C 	0.19977 0.84233 0.38752 0.01400
C 	C 	0.21967 0.92213 0.37867 -0.08800
H 	H 	0.24017 0.96533 0.39223 0.07800
C 	C 	0.20877 0.93703 0.34942 0.03100
C 	C 	0.17817 0.87243 0.32904 -0.00400
C 	C 	0.16907 0.77763 0.36713 0.00100
O 	O 	0.22923 0.43007 0.76567 -0.06200
O 	O 	0.22233 0.48057 0.77387 -0.04900
O 	O 	0.07633 0.30487 0.79574 -0.39800
O 	O 	0.03553 0.22357 0.83627 -0.36400
C 	C 	0.03223 0.24267 0.80846 0.34900
C 	C 	0.95023 0.18357 0.79605 -0.06300
C 	C 	0.93253 0.19747 0.76705 -0.03200
H 	H 	0.97063 0.24597 0.75727 0.07100
C 	C 	0.86643 0.17567 0.72086 0.01400
C 	C 	0.88633 0.25547 0.71201 -0.08800
H 	H 	0.90683 0.29867 0.72557 0.07800
C 	C 	0.87543 0.27037 0.68276 0.03100
C 	C 	0.84483 0.20577 0.66238 -0.00400
C 	C 	0.83573 0.11097 0.70047 0.00100
Cu	Cu	0.85738 0.14262 0.14272 0.92700
Cu	Cu	0.52405 0.47595 0.47605 0.92700
Cu	Cu	0.19071 0.80929 0.80939 0.92700
Cu	Cu	0.85738 0.71476 0.14272 0.92700
Cu	Cu	0.52405 0.04809 0.47605 0.92700
Cu	Cu	0.19071 0.38143 0.80939 0.92700
Cu	Cu	0.28524 0.14262 0.14272 0.92700
Cu	Cu	0.95191 0.47595 0.47605 0.92700
Cu	Cu	0.61857 0.80929 0.80939 0.92700
Cu	Cu	0.14262 0.85738 0.85728 0.92700
Cu	Cu	0.80929 0.19071 0.19061 0.92700
Cu	Cu	0.47595 0.52405 0.52395 0.92700
Cu	Cu	0.71476 0.85738 0.85728 0.92700
Cu	Cu	0.38143 0.19071 0.19061 0.92700
Cu	Cu	0.04809 0.52405 0.52395 0.92700
Cu	Cu	0.14262 0.28524 0.85728 0.92700
Cu	Cu	0.80929 0.61857 0.19061 0.92700
Cu	Cu	0.47595 0.95191 0.52395 0.92700
C 	C 	0.55595 0.11190 0.14240 0.01500
H 	H 	0.56490 0.12980 0.16190 0.07400
C 	C 	0.52610 0.05220 0.08590 0.01500
C 	C 	0.22262 0.44523 0.47573 0.01500
H 	H 	0.23157 0.46313 0.49523 0.07400
C 	C 	0.19277 0.38553 0.41923 0.01500
C 	C 	0.88928 0.77857 0.80907 0.01500
H 	H 	0.89823 0.79647 0.82857 0.07400
C 	C 	0.85943 0.71887 0.75257 0.01500
C 	C 	0.88810 0.44405 0.14240 0.01500
H 	H 	0.87020 0.43510 0.16190 0.07400
C 	C 	0.94780 0.47390 0.08590 0.01500
C 	C 	0.55477 0.77738 0.47573 0.01500
H 	H 	0.53687 0.76843 0.49523 0.07400
C 	C 	0.61447 0.80723 0.41923 0.01500
C 	C 	0.22143 0.11072 0.80907 0.01500
H 	H 	0.20353 0.10177 0.82857 0.07400
C 	C 	0.28113 0.14057 0.75257 0.01500
C 	C 	0.55595 0.44405 0.14240 0.01500
H 	H 	0.56490 0.43510 0.16190 0.07400
C 	C 	0.52610 0.47390 0.08590 0.01500
C 	C 	0.22262 0.77738 0.47573 0.01500
H 	H 	0.23157 0.76843 0.49523 0.07400
C 	C 	0.19277 0.80723 0.41923 0.01500
C 	C 	0.88928 0.11072 0.80907 0.01600
H 	H 	0.89823 0.10177 0.82857 0.07400
C 	C 	0.85943 0.14057 0.75257 0.01400
C 	C 	0.11190 0.55595 0.85760 0.01500
H 	H 	0.12980 0.56490 0.83810 0.07400
C 	C 	0.05220 0.52610 0.91410 0.01500
C 	C 	0.77857 0.88928 0.19093 0.01500
H 	H 	0.79647 0.89823 0.17143 0.07400
C 	C 	0.71887 0.85943 0.24743 0.01500
C 	C 	0.44523 0.22262 0.52427 0.01500
H 	H 	0.46313 0.23157 0.50477 0.07400
C 	C 	0.38553 0.19277 0.58077 0.01500
C 	C 	0.44405 0.88810 0.85760 0.01500
H 	H 	0.43510 0.87020 0.83810 0.07400
C 	C 	0.47390 0.94780 0.91410 0.01500
C 	C 	0.11072 0.22143 0.19093 0.01500
H 	H 	0.10177 0.20353 0.17143 0.07400
C 	C 	0.14057 0.28113 0.24743 0.01500
C 	C 	0.77738 0.55477 0.52427 0.01500
H 	H 	0.76843 0.53687 0.50477 0.07400
C 	C 	0.80723 0.61447 0.58077 0.01500
C 	C 	0.44405 0.55595 0.85760 0.01500
H 	H 	0.43510 0.56490 0.83810 0.07400
C 	C 	0.47390 0.52610 0.91410 0.01500
C 	C 	0.11072 0.88928 0.19093 0.01600
H 	H 	0.10177 0.89823 0.17143 0.07400
C 	C 	0.14057 0.85943 0.24743 0.01400
C 	C 	0.77738 0.22262 0.52427 0.01500
H 	H 	0.76843 0.23157 0.50477 0.07400
C 	C 	0.80723 0.19277 0.58077 0.01500
