data_crystal

_cell_length_a 15.01620
_cell_length_b 19.21410
_cell_length_c 30.38120
_cell_angle_alpha 98.39490
_cell_angle_beta  90.00000
_cell_angle_gamma 113.00200

_symmetry_space_group_name_	'P 1'
_symmetry_space_group_name_H-M	'P 1'

loop_
_symmetry_equiv_pos_as_xyz
  x,y,z

loop_
_atom_site_label
_atom_site_type_symbol
_atom_site_fract_x
_atom_site_fract_y
_atom_site_fract_z
_atom_site_charge
Nd	Nd	0.35050 0.58170 0.64105 2.09600
Nd	Nd	0.44020 0.83026 0.65679 2.10400
Nd	Nd	0.23120 0.58170 0.14105 2.09500
Nd	Nd	0.39006 0.83026 0.15679 2.10400
H 	H 	0.39540 0.81200 0.81100 0.00500
H 	H 	0.40110 0.60460 0.77700 -0.00400
H 	H 	0.39780 0.58780 0.85010 0.10500
H 	H 	0.37190 0.58200 0.93120 0.10300
H 	H 	0.33870 0.79960 0.00430 0.02000
H 	H 	0.34430 0.59360 0.00580 0.00600
H 	H 	0.74960 0.84800 0.65940 0.01600
H 	H 	0.64530 0.61980 0.64790 -0.00800
H 	H 	0.90840 0.85440 0.65920 0.07800
H 	H 	0.06710 0.83900 0.65560 0.09000
H 	H 	0.19740 0.80400 0.65070 -0.07500
H 	H 	0.02080 0.58240 0.64200 0.01100
H 	H 	0.06220 0.33840 0.60140 0.05200
H 	H 	0.11110 0.40680 0.73290 0.05000
H 	H 	0.97410 0.30480 0.74580 0.06100
H 	H 	0.82520 0.18400 0.74670 0.06400
H 	H 	0.70840 0.05440 0.60330 0.06100
H 	H 	0.69100 0.06900 0.73690 0.04800
H 	H 	0.41660 0.81200 0.31100 0.00400
H 	H 	0.20350 0.60460 0.27700 -0.00500
H 	H 	0.19000 0.58780 0.35010 0.10400
H 	H 	0.21010 0.58200 0.43120 0.10200
H 	H 	0.46090 0.79960 0.50430 0.02000
H 	H 	0.24930 0.59360 0.50580 0.00500
H 	H 	0.09840 0.84800 0.15940 0.01500
H 	H 	0.97450 0.61980 0.14790 -0.00900
H 	H 	0.94600 0.85440 0.15920 0.07800
H 	H 	0.77190 0.83900 0.15560 0.09000
H 	H 	0.60660 0.80400 0.15070 -0.07500
H 	H 	0.56160 0.58240 0.14200 0.01100
H 	H 	0.27620 0.33840 0.10140 0.05200
H 	H 	0.29570 0.40680 0.23290 0.05000
H 	H 	0.33070 0.30480 0.24580 0.06100
H 	H 	0.35880 0.18400 0.24670 0.06400
H 	H 	0.34600 0.05440 0.10330 0.06200
H 	H 	0.37800 0.06900 0.23690 0.04800
C 	C 	0.40738 0.72036 0.73810 0.54000
C 	C 	0.40172 0.71084 0.78630 -0.21500
C 	C 	0.39376 0.76632 0.81850 0.10700
C 	C 	0.39917 0.64314 0.79890 0.12500
C 	C 	0.38308 0.75256 0.86200 -0.11000
C 	C 	0.39383 0.63146 0.84220 -0.15600
C 	C 	0.38218 0.68676 0.87460 0.07400
C 	C 	0.36788 0.68316 0.92220 0.06500
C 	C 	0.35921 0.74762 0.94550 -0.09600
C 	C 	0.36385 0.62510 0.94550 -0.14100
C 	C 	0.34403 0.75546 0.98970 0.09000
C 	C 	0.34777 0.63254 0.99020 0.10300
C 	C 	0.33676 0.69632 0.01231 -0.19300
C 	C 	0.31657 0.69994 0.06130 0.50800
C 	C 	0.58275 0.73170 0.65160 0.51000
C 	C 	0.68424 0.73448 0.65340 -0.19600
C 	C 	0.76070 0.80340 0.65700 0.09000
C 	C 	0.69747 0.66694 0.65060 0.09200
C 	C 	0.85640 0.80720 0.65710 -0.12900
C 	C 	0.79240 0.67280 0.65200 -0.10200
C 	C 	0.87255 0.74130 0.65430 0.04600
C 	C 	0.96427 0.73214 0.65260 0.07900
C 	C 	0.05725 0.78770 0.65330 -0.19000
C 	C 	0.95403 0.65686 0.64860 -0.11800
C 	C 	0.13517 0.76654 0.65060 0.15800
C 	C 	0.03054 0.63388 0.64550 0.11700
C 	C 	0.12248 0.69116 0.64760 -0.24400
C 	C 	0.20975 0.67050 0.64630 0.54800
C 	C 	0.19102 0.44944 0.65840 0.31900
C 	C 	0.09886 0.38332 0.66610 -0.07500
C 	C 	0.04442 0.33244 0.63040 0.01600
C 	C 	0.07275 0.37230 0.70890 0.01200
C 	C 	0.96183 0.27166 0.63860 -0.06600
C 	C 	0.99110 0.31120 0.71680 -0.09100
C 	C 	0.93559 0.26038 0.68150 0.03700
C 	C 	0.84653 0.18786 0.68180 0.03100
C 	C 	0.81027 0.14894 0.63970 -0.05900
C 	C 	0.80157 0.15794 0.71810 -0.08300
C 	C 	0.73130 0.08020 0.63200 0.01600
C 	C 	0.72149 0.08938 0.71230 0.01600
C 	C 	0.68715 0.05130 0.66970 -0.07800
C 	C 	0.59938 0.97516 0.66310 0.33100
C 	C 	0.31298 0.72036 0.23810 0.54000
C 	C 	0.30912 0.71084 0.28630 -0.21500
C 	C 	0.37256 0.76632 0.31850 0.10700
C 	C 	0.24397 0.64314 0.29890 0.12500
C 	C 	0.36948 0.75256 0.36200 -0.11000
C 	C 	0.23763 0.63146 0.34220 -0.15600
C 	C 	0.30458 0.68676 0.37460 0.07500
C 	C 	0.31528 0.68316 0.42220 0.06400
C 	C 	0.38841 0.74762 0.44550 -0.09600
C 	C 	0.26125 0.62510 0.44550 -0.14100
C 	C 	0.41143 0.75546 0.48970 0.09000
C 	C 	0.28477 0.63254 0.49020 0.10200
C 	C 	0.35956 0.69632 0.51231 -0.19300
C 	C 	0.38337 0.69994 0.56130 0.50800
C 	C 	0.14895 0.73170 0.15160 0.51000
C 	C 	0.05024 0.73448 0.15340 -0.19600
C 	C 	0.04270 0.80340 0.15700 0.09000
C 	C 	0.96947 0.66694 0.15060 0.09200
C 	C 	0.95080 0.80720 0.15710 -0.12900
C 	C 	0.88040 0.67280 0.15200 -0.10200
C 	C 	0.86875 0.74130 0.15430 0.04600
C 	C 	0.76787 0.73214 0.15260 0.07900
C 	C 	0.73045 0.78770 0.15330 -0.19000
C 	C 	0.70283 0.65686 0.14860 -0.11800
C 	C 	0.63137 0.76654 0.15060 0.15800
C 	C 	0.60334 0.63388 0.14550 0.11700
C 	C 	0.56868 0.69116 0.14760 -0.24400
C 	C 	0.46075 0.67050 0.14630 0.54800
C 	C 	0.25842 0.44944 0.15840 0.31900
C 	C 	0.28446 0.38332 0.16610 -0.07500
C 	C 	0.28802 0.33244 0.13040 0.01600
C 	C 	0.29955 0.37230 0.20890 0.01200
C 	C 	0.30983 0.27166 0.13860 -0.06600
C 	C 	0.32010 0.31120 0.21680 -0.09100
C 	C 	0.32479 0.26038 0.18150 0.03700
C 	C 	0.34133 0.18786 0.18180 0.03100
C 	C 	0.33867 0.14894 0.13970 -0.05900
C 	C 	0.35637 0.15794 0.21810 -0.08300
C 	C 	0.34890 0.08020 0.13200 0.01600
C 	C 	0.36789 0.08938 0.21230 0.01600
C 	C 	0.36415 0.05130 0.16970 -0.07700
C 	C 	0.37578 0.97516 0.16310 0.33100
S 	S 	0.36359 0.81208 0.90815 0.34800
S 	S 	0.83061 0.59596 0.65025 0.34100
S 	S 	0.87980 0.19844 0.59831 0.32600
S 	S 	0.44849 0.81208 0.40815 0.34700
S 	S 	0.76535 0.59596 0.15025 0.34100
S 	S 	0.31864 0.19844 0.09831 0.32600
O 	O 	0.42768 0.78576 0.72907 -0.54200
O 	O 	0.39287 0.66174 0.71079 -0.58300
O 	O 	0.44513 0.88386 0.91912 -0.22200
O 	O 	0.27125 0.81550 0.90237 -0.23100
O 	O 	0.32796 0.76392 0.08280 -0.54200
O 	O 	0.28901 0.63782 0.07577 -0.55500
O 	O 	0.57466 0.79452 0.66237 -0.52900
O 	O 	0.51691 0.66782 0.63801 -0.57200
O 	O 	0.81490 0.56480 0.69140 -0.23200
O 	O 	0.79542 0.54424 0.60930 -0.24000
O 	O 	0.29168 0.72356 0.64900 -0.63300
O 	O 	0.19874 0.60408 0.64303 -0.51000
O 	O 	0.21729 0.45298 0.61934 -0.45300
O 	O 	0.23826 0.49712 0.69157 -0.41700
O 	O 	0.92656 0.15492 0.57383 -0.21400
O 	O 	0.82543 0.22826 0.57361 -0.21400
O 	O 	0.57328 0.93716 0.62484 -0.41900
O 	O 	0.55652 0.95304 0.69657 -0.47100
O 	O 	0.35808 0.78576 0.22907 -0.54200
O 	O 	0.26887 0.66174 0.21079 -0.58300
O 	O 	0.43873 0.88386 0.41912 -0.22200
O 	O 	0.54425 0.81550 0.40237 -0.23100
O 	O 	0.43596 0.76392 0.58280 -0.54200
O 	O 	0.34881 0.63782 0.57577 -0.55500
O 	O 	0.21986 0.79452 0.16237 -0.52900
O 	O 	0.15091 0.66782 0.13801 -0.57200
O 	O 	0.74990 0.56480 0.19140 -0.23200
O 	O 	0.74882 0.54424 0.10930 -0.24000
O 	O 	0.43188 0.72356 0.14900 -0.63300
O 	O 	0.40534 0.60408 0.14303 -0.51000
O 	O 	0.23569 0.45298 0.11934 -0.45300
O 	O 	0.25886 0.49712 0.19157 -0.41700
O 	O 	0.22836 0.15492 0.07383 -0.21400
O 	O 	0.40283 0.22826 0.07361 -0.21400
O 	O 	0.36388 0.93716 0.12484 -0.41900
O 	O 	0.39652 0.95304 0.19657 -0.47100
Nd	Nd	0.76880 0.41830 0.85895 2.09400
Nd	Nd	0.60994 0.16974 0.84321 2.10300
Nd	Nd	0.64950 0.41830 0.35895 2.09500
Nd	Nd	0.55980 0.16974 0.34321 2.10300
H 	H 	0.58340 0.18800 0.68900 0.00400
H 	H 	0.79650 0.39540 0.72300 -0.00500
H 	H 	0.81000 0.41220 0.64990 0.10400
H 	H 	0.78990 0.41800 0.56880 0.10200
H 	H 	0.53910 0.20040 0.49570 0.02000
H 	H 	0.75070 0.40640 0.49420 0.00500
H 	H 	0.90160 0.15200 0.84060 0.01500
H 	H 	0.02550 0.38020 0.85210 -0.00900
H 	H 	0.05400 0.14560 0.84080 0.07800
H 	H 	0.22810 0.16100 0.84440 0.09000
H 	H 	0.39340 0.19600 0.84930 -0.07500
H 	H 	0.43840 0.41760 0.85800 0.01100
H 	H 	0.72380 0.66160 0.89860 0.05200
H 	H 	0.70430 0.59320 0.76710 0.05000
H 	H 	0.66930 0.69520 0.75420 0.06100
H 	H 	0.64120 0.81600 0.75330 0.06400
H 	H 	0.65400 0.94560 0.89670 0.06200
H 	H 	0.62200 0.93100 0.76310 0.04800
H 	H 	0.60460 0.18800 0.18900 0.00400
H 	H 	0.59890 0.39540 0.22300 -0.00500
H 	H 	0.60220 0.41220 0.14990 0.10400
H 	H 	0.62810 0.41800 0.06880 0.10200
H 	H 	0.66130 0.20040 0.99570 0.01900
H 	H 	0.65570 0.40640 0.99420 0.00500
H 	H 	0.25040 0.15200 0.34060 0.01500
H 	H 	0.35470 0.38020 0.35210 -0.00900
H 	H 	0.09160 0.14560 0.34080 0.07800
H 	H 	0.93290 0.16100 0.34440 0.09000
H 	H 	0.80260 0.19600 0.34930 -0.07500
H 	H 	0.97920 0.41760 0.35800 0.01100
H 	H 	0.93780 0.66160 0.39860 0.05200
H 	H 	0.88890 0.59320 0.26710 0.05000
H 	H 	0.02590 0.69520 0.25420 0.06100
H 	H 	0.17480 0.81600 0.25330 0.06400
H 	H 	0.29160 0.94560 0.39670 0.06100
H 	H 	0.30900 0.93100 0.26310 0.04800
C 	C 	0.68702 0.27964 0.76190 0.54000
C 	C 	0.69088 0.28916 0.71370 -0.21500
C 	C 	0.62744 0.23368 0.68150 0.10700
C 	C 	0.75603 0.35686 0.70110 0.12500
C 	C 	0.63052 0.24744 0.63800 -0.11000
C 	C 	0.76237 0.36854 0.65780 -0.15600
C 	C 	0.69542 0.31324 0.62540 0.07500
C 	C 	0.68472 0.31684 0.57780 0.06400
C 	C 	0.61159 0.25238 0.55450 -0.09600
C 	C 	0.73875 0.37490 0.55450 -0.14100
C 	C 	0.58857 0.24454 0.51030 0.09000
C 	C 	0.71523 0.36746 0.50980 0.10200
C 	C 	0.64044 0.30368 0.48769 -0.19300
C 	C 	0.61663 0.30006 0.43870 0.50800
C 	C 	0.85105 0.26830 0.84840 0.51000
C 	C 	0.94976 0.26552 0.84660 -0.19600
C 	C 	0.95730 0.19660 0.84300 0.09000
C 	C 	0.03053 0.33306 0.84940 0.09200
C 	C 	0.04920 0.19280 0.84290 -0.12900
C 	C 	0.11960 0.32720 0.84800 -0.10200
C 	C 	0.13125 0.25870 0.84570 0.04600
C 	C 	0.23213 0.26786 0.84740 0.07900
C 	C 	0.26955 0.21230 0.84670 -0.19000
C 	C 	0.29717 0.34314 0.85140 -0.11800
C 	C 	0.36863 0.23346 0.84940 0.15800
C 	C 	0.39666 0.36612 0.85450 0.11700
C 	C 	0.43132 0.30884 0.85240 -0.24400
C 	C 	0.53925 0.32950 0.85370 0.54800
C 	C 	0.74158 0.55056 0.84160 0.31900
C 	C 	0.71554 0.61668 0.83390 -0.07500
C 	C 	0.71198 0.66756 0.86960 0.01600
C 	C 	0.70045 0.62770 0.79110 0.01200
C 	C 	0.69017 0.72834 0.86140 -0.06600
C 	C 	0.67990 0.68880 0.78320 -0.09100
C 	C 	0.67521 0.73962 0.81850 0.03700
C 	C 	0.65867 0.81214 0.81820 0.03100
C 	C 	0.66133 0.85106 0.86030 -0.05900
C 	C 	0.64363 0.84206 0.78190 -0.08300
C 	C 	0.65110 0.91980 0.86800 0.01600
C 	C 	0.63211 0.91062 0.78770 0.01600
C 	C 	0.63585 0.94870 0.83030 -0.07700
C 	C 	0.62422 0.02484 0.83690 0.33100
C 	C 	0.59262 0.27964 0.26190 0.54000
C 	C 	0.59828 0.28916 0.21370 -0.21500
C 	C 	0.60624 0.23368 0.18150 0.10700
C 	C 	0.60083 0.35686 0.20110 0.12500
C 	C 	0.61692 0.24744 0.13800 -0.11000
C 	C 	0.60617 0.36854 0.15780 -0.15600
C 	C 	0.61782 0.31324 0.12540 0.07400
C 	C 	0.63212 0.31684 0.07780 0.06500
C 	C 	0.64079 0.25238 0.05450 -0.09600
C 	C 	0.63615 0.37490 0.05450 -0.14100
C 	C 	0.65597 0.24454 0.01030 0.09000
C 	C 	0.65223 0.36746 0.00980 0.10300
C 	C 	0.66324 0.30368 0.98769 -0.19300
C 	C 	0.68343 0.30006 0.93870 0.50800
C 	C 	0.41725 0.26830 0.34840 0.51000
C 	C 	0.31576 0.26552 0.34660 -0.19600
C 	C 	0.23930 0.19660 0.34300 0.09000
C 	C 	0.30253 0.33306 0.34940 0.09200
C 	C 	0.14360 0.19280 0.34290 -0.12900
C 	C 	0.20760 0.32720 0.34800 -0.10200
C 	C 	0.12745 0.25870 0.34570 0.04600
C 	C 	0.03573 0.26786 0.34740 0.07900
C 	C 	0.94275 0.21230 0.34670 -0.19000
C 	C 	0.04597 0.34314 0.35140 -0.11800
C 	C 	0.86483 0.23346 0.34940 0.15800
C 	C 	0.96946 0.36612 0.35450 0.11700
C 	C 	0.87752 0.30884 0.35240 -0.24400
C 	C 	0.79025 0.32950 0.35370 0.54800
C 	C 	0.80898 0.55056 0.34160 0.31900
C 	C 	0.90114 0.61668 0.33390 -0.07500
C 	C 	0.95558 0.66756 0.36960 0.01600
C 	C 	0.92725 0.62770 0.29110 0.01200
C 	C 	0.03817 0.72834 0.36140 -0.06600
C 	C 	0.00890 0.68880 0.28320 -0.09100
C 	C 	0.06441 0.73962 0.31850 0.03700
C 	C 	0.15347 0.81214 0.31820 0.03100
C 	C 	0.18973 0.85106 0.36030 -0.05900
C 	C 	0.19843 0.84206 0.28190 -0.08300
C 	C 	0.26870 0.91980 0.36800 0.01600
C 	C 	0.27851 0.91062 0.28770 0.01600
C 	C 	0.31285 0.94870 0.33030 -0.07800
C 	C 	0.40062 0.02484 0.33690 0.33100
S 	S 	0.55151 0.18792 0.59185 0.34700
S 	S 	0.23465 0.40404 0.84975 0.34100
S 	S 	0.68136 0.80156 0.90169 0.32600
S 	S 	0.63641 0.18792 0.09185 0.34800
S 	S 	0.16939 0.40404 0.34975 0.34100
S 	S 	0.12020 0.80156 0.40169 0.32600
O 	O 	0.64192 0.21424 0.77093 -0.54200
O 	O 	0.73113 0.33826 0.78921 -0.58300
O 	O 	0.56127 0.11614 0.58088 -0.22200
O 	O 	0.45575 0.18450 0.59763 -0.23100
O 	O 	0.56404 0.23608 0.41720 -0.54200
O 	O 	0.65119 0.36218 0.42423 -0.55500
O 	O 	0.78014 0.20548 0.83763 -0.52900
O 	O 	0.84909 0.33218 0.86199 -0.57200
O 	O 	0.25010 0.43520 0.80860 -0.23200
O 	O 	0.25118 0.45576 0.89070 -0.24000
O 	O 	0.56812 0.27644 0.85100 -0.63300
O 	O 	0.59466 0.39592 0.85697 -0.51000
O 	O 	0.76431 0.54702 0.88066 -0.45300
O 	O 	0.74114 0.50288 0.80843 -0.41700
O 	O 	0.77164 0.84508 0.92617 -0.21400
O 	O 	0.59717 0.77174 0.92639 -0.21400
O 	O 	0.63612 0.06284 0.87516 -0.41900
O 	O 	0.60348 0.04696 0.80343 -0.47100
O 	O 	0.57232 0.21424 0.27093 -0.54200
O 	O 	0.60713 0.33826 0.28921 -0.58300
O 	O 	0.55487 0.11614 0.08088 -0.22200
O 	O 	0.72875 0.18450 0.09763 -0.23100
O 	O 	0.67204 0.23608 0.91720 -0.54200
O 	O 	0.71099 0.36218 0.92423 -0.55500
O 	O 	0.42534 0.20548 0.33763 -0.52900
O 	O 	0.48309 0.33218 0.36199 -0.57200
O 	O 	0.18510 0.43520 0.30860 -0.23200
O 	O 	0.20458 0.45576 0.39070 -0.24000
O 	O 	0.70832 0.27644 0.35100 -0.63300
O 	O 	0.80126 0.39592 0.35697 -0.51000
O 	O 	0.78271 0.54702 0.38066 -0.45300
O 	O 	0.76174 0.50288 0.30843 -0.41700
O 	O 	0.07344 0.84508 0.42617 -0.21400
O 	O 	0.17457 0.77174 0.42639 -0.21400
O 	O 	0.42672 0.06284 0.37516 -0.41900
O 	O 	0.44348 0.04696 0.30343 -0.47100
