data_crystal

_cell_length_a 14.86020
_cell_length_b 18.92190
_cell_length_c 29.77400
_cell_angle_alpha 98.08910
_cell_angle_beta  90.00000
_cell_angle_gamma 113.12100

_symmetry_space_group_name_	'P 1'
_symmetry_space_group_name_H-M	'P 1'

loop_
_symmetry_equiv_pos_as_xyz
  x,y,z

loop_
_atom_site_label
_atom_site_type_symbol
_atom_site_fract_x
_atom_site_fract_y
_atom_site_fract_z
_atom_site_charge
Eu	Eu	0.38725 0.58070 0.64105 1.85400
Eu	Eu	0.46637 0.82591 0.65621 1.85300
Eu	Eu	0.19345 0.58070 0.14105 1.85400
Eu	Eu	0.35954 0.82591 0.15621 1.85300
H 	H 	0.42320 0.81000 0.80970 0.01400
H 	H 	0.46880 0.61060 0.78470 0.01400
H 	H 	0.46290 0.59960 0.86080 0.08900
H 	H 	0.42620 0.59380 0.94270 0.08800
H 	H 	0.33940 0.79960 0.00480 0.02700
H 	H 	0.37170 0.59980 0.01570 0.02100
H 	H 	0.78710 0.85180 0.65540 0.02400
H 	H 	0.67050 0.61760 0.64480 -0.00600
H 	H 	0.94630 0.85440 0.65170 0.07500
H 	H 	0.10150 0.83520 0.64950 0.08300
H 	H 	0.23170 0.79740 0.65070 -0.05700
H 	H 	0.04600 0.57020 0.64130 0.02500
H 	H 	0.10660 0.33060 0.59840 0.05600
H 	H 	0.15350 0.40180 0.73450 0.05900
H 	H 	0.01130 0.29800 0.74760 0.05700
H 	H 	0.85460 0.18060 0.74780 0.06500
H 	H 	0.73820 0.04880 0.59960 0.06100
H 	H 	0.71350 0.06640 0.73630 0.05100
H 	H 	0.38680 0.81000 0.30970 0.01500
H 	H 	0.14180 0.61060 0.28470 0.01500
H 	H 	0.13670 0.59960 0.36080 0.09000
H 	H 	0.16760 0.59380 0.44270 0.08900
H 	H 	0.46020 0.79960 0.50480 0.02900
H 	H 	0.22810 0.59980 0.51570 0.02200
H 	H 	0.06470 0.85180 0.15540 0.02400
H 	H 	0.94710 0.61760 0.14480 -0.00600
H 	H 	0.90810 0.85440 0.15170 0.07500
H 	H 	0.73370 0.83520 0.14950 0.08300
H 	H 	0.56570 0.79740 0.15070 -0.05700
H 	H 	0.52420 0.57020 0.14130 0.02500
H 	H 	0.22400 0.33060 0.09840 0.05600
H 	H 	0.24830 0.40180 0.23450 0.05900
H 	H 	0.28670 0.29800 0.24760 0.05700
H 	H 	0.32600 0.18060 0.24780 0.06500
H 	H 	0.31060 0.04880 0.09960 0.06100
H 	H 	0.35290 0.06640 0.23630 0.05200
C 	C 	0.44855 0.71610 0.73910 0.49500
C 	C 	0.44573 0.71106 0.78900 -0.17700
C 	C 	0.42896 0.76612 0.81950 0.08400
C 	C 	0.45708 0.64856 0.80550 0.09000
C 	C 	0.42078 0.75576 0.86470 -0.09800
C 	C 	0.45186 0.64092 0.85030 -0.12300
C 	C 	0.43012 0.69444 0.88060 0.06700
C 	C 	0.40955 0.69150 0.92900 0.05600
C 	C 	0.38341 0.75182 0.94820 -0.08700
C 	C 	0.40662 0.63444 0.95480 -0.11100
C 	C 	0.35399 0.75678 0.99180 0.07100
C 	C 	0.37460 0.63860 0.99790 0.07400
C 	C 	0.34616 0.69812 0.01652 -0.16800
C 	C 	0.30156 0.69492 0.06168 0.46100
C 	C 	0.61561 0.73802 0.64785 0.48500
C 	C 	0.71514 0.73488 0.64890 -0.18100
C 	C 	0.79620 0.80440 0.65230 0.07600
C 	C 	0.72553 0.66586 0.64670 0.08400
C 	C 	0.89120 0.80660 0.65130 -0.11900
C 	C 	0.82308 0.67016 0.64740 -0.09800
C 	C 	0.90280 0.73820 0.64960 0.05000
C 	C 	0.99835 0.72750 0.64880 0.07200
C 	C 	0.09030 0.78220 0.64920 -0.16400
C 	C 	0.98122 0.64984 0.64600 -0.10300
C 	C 	0.16650 0.75920 0.64920 0.11900
C 	C 	0.05790 0.62380 0.64430 0.08500
C 	C 	0.15154 0.68108 0.64710 -0.19200
C 	C 	0.23990 0.66020 0.64821 0.46400
C 	C 	0.23543 0.44366 0.65830 0.31200
C 	C 	0.14307 0.37514 0.66570 -0.06400
C 	C 	0.08738 0.32396 0.62840 0.01000
C 	C 	0.11456 0.36552 0.70950 0.00200
C 	C 	0.00230 0.26260 0.63680 -0.05800
C 	C 	0.03017 0.30394 0.71740 -0.07400
C 	C 	0.97347 0.25094 0.68080 0.02700
C 	C 	0.88189 0.18058 0.68050 0.03500
C 	C 	0.84672 0.14244 0.63766 -0.06100
C 	C 	0.83172 0.15344 0.71794 -0.08000
C 	C 	0.76154 0.07468 0.62960 0.02000
C 	C 	0.74777 0.08614 0.71090 0.01700
C 	C 	0.71219 0.04638 0.66710 -0.07900
C 	C 	0.62305 0.97250 0.66076 0.31800
C 	C 	0.26755 0.71610 0.23910 0.49500
C 	C 	0.26533 0.71106 0.28900 -0.17700
C 	C 	0.33716 0.76612 0.31950 0.08400
C 	C 	0.19148 0.64856 0.30550 0.09000
C 	C 	0.33498 0.75576 0.36470 -0.09800
C 	C 	0.18906 0.64092 0.35030 -0.12300
C 	C 	0.26432 0.69444 0.38060 0.06700
C 	C 	0.28195 0.69150 0.42900 0.05600
C 	C 	0.36841 0.75182 0.44820 -0.08700
C 	C 	0.22782 0.63444 0.45480 -0.11100
C 	C 	0.40279 0.75678 0.49180 0.07000
C 	C 	0.26400 0.63860 0.49790 0.07400
C 	C 	0.35196 0.69812 0.51652 -0.16700
C 	C 	0.39336 0.69492 0.56168 0.46100
C 	C 	0.12241 0.73802 0.14785 0.48500
C 	C 	0.01974 0.73488 0.14890 -0.18200
C 	C 	0.00820 0.80440 0.15230 0.07600
C 	C 	0.94033 0.66586 0.14670 0.08400
C 	C 	0.91540 0.80660 0.15130 -0.11900
C 	C 	0.84708 0.67016 0.14740 -0.09800
C 	C 	0.83540 0.73820 0.14960 0.05000
C 	C 	0.72915 0.72750 0.14880 0.07200
C 	C 	0.69190 0.78220 0.14920 -0.16400
C 	C 	0.66862 0.64984 0.14600 -0.10300
C 	C 	0.59270 0.75920 0.14920 0.11900
C 	C 	0.56590 0.62380 0.14430 0.08500
C 	C 	0.52954 0.68108 0.14710 -0.19200
C 	C 	0.42030 0.66020 0.14821 0.46400
C 	C 	0.20823 0.44366 0.15830 0.31200
C 	C 	0.23207 0.37514 0.16570 -0.06500
C 	C 	0.23658 0.32396 0.12840 0.01000
C 	C 	0.25096 0.36552 0.20950 0.00200
C 	C 	0.26030 0.26260 0.13680 -0.05800
C 	C 	0.27377 0.30394 0.21740 -0.07500
C 	C 	0.27747 0.25094 0.18080 0.02800
C 	C 	0.29869 0.18058 0.18050 0.03500
C 	C 	0.29572 0.14244 0.13766 -0.06000
C 	C 	0.32172 0.15344 0.21794 -0.07900
C 	C 	0.31314 0.07468 0.12960 0.02000
C 	C 	0.33837 0.08614 0.21090 0.01700
C 	C 	0.33419 0.04638 0.16710 -0.07800
C 	C 	0.34945 0.97250 0.16076 0.31800
S 	S 	0.38670 0.81254 0.90804 0.34100
S 	S 	0.85687 0.59042 0.64715 0.33500
S 	S 	0.92134 0.18906 0.59582 0.31400
S 	S 	0.42584 0.81254 0.40804 0.34100
S 	S 	0.73355 0.59042 0.14715 0.33500
S 	S 	0.26772 0.18906 0.09582 0.31500
O 	O 	0.46627 0.78094 0.72768 -0.50100
O 	O 	0.43217 0.65354 0.71329 -0.52300
O 	O 	0.46373 0.88866 0.91957 -0.21800
O 	O 	0.29040 0.80800 0.89816 -0.22400
O 	O 	0.30213 0.75806 0.08251 -0.49800
O 	O 	0.26699 0.62998 0.07494 -0.49600
O 	O 	0.61080 0.80260 0.65932 -0.48300
O 	O 	0.54430 0.67440 0.63597 -0.54400
O 	O 	0.83925 0.56050 0.69040 -0.22200
O 	O 	0.82120 0.53620 0.60650 -0.23300
O 	O 	0.32360 0.71440 0.65234 -0.57200
O 	O 	0.22672 0.59064 0.64572 -0.43700
O 	O 	0.25974 0.45088 0.61784 -0.41900
O 	O 	0.28366 0.49052 0.69191 -0.38800
O 	O 	0.96877 0.14154 0.57329 -0.20400
O 	O 	0.87083 0.21926 0.56743 -0.20900
O 	O 	0.59407 0.93394 0.62191 -0.38500
O 	O 	0.57732 0.95084 0.69559 -0.43200
O 	O 	0.31467 0.78094 0.22768 -0.50100
O 	O 	0.22137 0.65354 0.21329 -0.52300
O 	O 	0.42493 0.88866 0.41957 -0.21800
O 	O 	0.51760 0.80800 0.39816 -0.22400
O 	O 	0.45593 0.75806 0.58251 -0.49800
O 	O 	0.36299 0.62998 0.57494 -0.49600
O 	O 	0.19180 0.80260 0.15932 -0.48300
O 	O 	0.13010 0.67440 0.13597 -0.54400
O 	O 	0.72125 0.56050 0.19040 -0.22200
O 	O 	0.71500 0.53620 0.10650 -0.23300
O 	O 	0.39080 0.71440 0.15234 -0.57200
O 	O 	0.36392 0.59064 0.14572 -0.43700
O 	O 	0.19114 0.45088 0.11784 -0.41900
O 	O 	0.20686 0.49052 0.19191 -0.38800
O 	O 	0.17277 0.14154 0.07329 -0.20300
O 	O 	0.34843 0.21926 0.06743 -0.20900
O 	O 	0.33987 0.93394 0.12191 -0.38500
O 	O 	0.37352 0.95084 0.19559 -0.43200
Eu	Eu	0.80655 0.41930 0.85895 1.85500
Eu	Eu	0.64046 0.17409 0.84379 1.85400
Eu	Eu	0.61275 0.41930 0.35895 1.85500
Eu	Eu	0.53363 0.17409 0.34379 1.85400
H 	H 	0.61320 0.19000 0.69030 0.01500
H 	H 	0.85820 0.38940 0.71530 0.01500
H 	H 	0.86330 0.40040 0.63920 0.09000
H 	H 	0.83240 0.40620 0.55730 0.08900
H 	H 	0.53980 0.20040 0.49520 0.02900
H 	H 	0.77190 0.40020 0.48430 0.02200
H 	H 	0.93530 0.14820 0.84460 0.02400
H 	H 	0.05290 0.38240 0.85520 -0.00600
H 	H 	0.09190 0.14560 0.84830 0.07500
H 	H 	0.26630 0.16480 0.85050 0.08300
H 	H 	0.43430 0.20260 0.84930 -0.05700
H 	H 	0.47580 0.42980 0.85870 0.02500
H 	H 	0.77600 0.66940 0.90160 0.05600
H 	H 	0.75170 0.59820 0.76550 0.05900
H 	H 	0.71330 0.70200 0.75240 0.05700
H 	H 	0.67400 0.81940 0.75220 0.06500
H 	H 	0.68940 0.95120 0.90040 0.06100
H 	H 	0.64710 0.93360 0.76370 0.05200
H 	H 	0.57680 0.19000 0.19030 0.01500
H 	H 	0.53120 0.38940 0.21530 0.01500
H 	H 	0.53710 0.40040 0.13920 0.09000
H 	H 	0.57380 0.40620 0.05730 0.08900
H 	H 	0.66060 0.20040 0.99520 0.02800
H 	H 	0.62830 0.40020 0.98430 0.02200
H 	H 	0.21290 0.14820 0.34460 0.02400
H 	H 	0.32950 0.38240 0.35520 -0.00600
H 	H 	0.05370 0.14560 0.34830 0.07500
H 	H 	0.89850 0.16480 0.35050 0.08300
H 	H 	0.76830 0.20260 0.34930 -0.05700
H 	H 	0.95400 0.42980 0.35870 0.02500
H 	H 	0.89340 0.66940 0.40160 0.05600
H 	H 	0.84650 0.59820 0.26550 0.05900
H 	H 	0.98870 0.70200 0.25240 0.05700
H 	H 	0.14540 0.81940 0.25220 0.06500
H 	H 	0.26180 0.95120 0.40040 0.06100
H 	H 	0.28650 0.93360 0.26370 0.05100
C 	C 	0.73245 0.28390 0.76090 0.49500
C 	C 	0.73467 0.28894 0.71100 -0.17700
C 	C 	0.66284 0.23388 0.68050 0.08400
C 	C 	0.80852 0.35144 0.69450 0.09000
C 	C 	0.66502 0.24424 0.63530 -0.09800
C 	C 	0.81094 0.35908 0.64970 -0.12300
C 	C 	0.73568 0.30556 0.61940 0.06700
C 	C 	0.71805 0.30850 0.57100 0.05600
C 	C 	0.63159 0.24818 0.55180 -0.08700
C 	C 	0.77218 0.36556 0.54520 -0.11100
C 	C 	0.59721 0.24322 0.50820 0.07000
C 	C 	0.73600 0.36140 0.50210 0.07400
C 	C 	0.64804 0.30188 0.48348 -0.16700
C 	C 	0.60664 0.30508 0.43832 0.46100
C 	C 	0.87759 0.26198 0.85215 0.48500
C 	C 	0.98026 0.26512 0.85110 -0.18200
C 	C 	0.99180 0.19560 0.84770 0.07600
C 	C 	0.05967 0.33414 0.85330 0.08400
C 	C 	0.08460 0.19340 0.84870 -0.11900
C 	C 	0.15292 0.32984 0.85260 -0.09800
C 	C 	0.16460 0.26180 0.85040 0.05000
C 	C 	0.27085 0.27250 0.85120 0.07200
C 	C 	0.30810 0.21780 0.85080 -0.16400
C 	C 	0.33138 0.35016 0.85400 -0.10300
C 	C 	0.40730 0.24080 0.85080 0.11900
C 	C 	0.43410 0.37620 0.85570 0.08500
C 	C 	0.47046 0.31892 0.85290 -0.19200
C 	C 	0.57970 0.33980 0.85179 0.46400
C 	C 	0.79177 0.55634 0.84170 0.31200
C 	C 	0.76793 0.62486 0.83430 -0.06500
C 	C 	0.76342 0.67604 0.87160 0.01000
C 	C 	0.74904 0.63448 0.79050 0.00200
C 	C 	0.73970 0.73740 0.86320 -0.05800
C 	C 	0.72623 0.69606 0.78260 -0.07500
C 	C 	0.72253 0.74906 0.81920 0.02800
C 	C 	0.70131 0.81942 0.81950 0.03500
C 	C 	0.70428 0.85756 0.86234 -0.06000
C 	C 	0.67828 0.84656 0.78206 -0.07900
C 	C 	0.68686 0.92532 0.87040 0.02000
C 	C 	0.66163 0.91386 0.78910 0.01700
C 	C 	0.66581 0.95362 0.83290 -0.07800
C 	C 	0.65055 0.02750 0.83924 0.31800
C 	C 	0.55145 0.28390 0.26090 0.49500
C 	C 	0.55427 0.28894 0.21100 -0.17700
C 	C 	0.57104 0.23388 0.18050 0.08400
C 	C 	0.54292 0.35144 0.19450 0.09000
C 	C 	0.57922 0.24424 0.13530 -0.09800
C 	C 	0.54814 0.35908 0.14970 -0.12300
C 	C 	0.56988 0.30556 0.11940 0.06700
C 	C 	0.59045 0.30850 0.07100 0.05600
C 	C 	0.61659 0.24818 0.05180 -0.08700
C 	C 	0.59338 0.36556 0.04520 -0.11100
C 	C 	0.64601 0.24322 0.00820 0.07100
C 	C 	0.62540 0.36140 0.00210 0.07400
C 	C 	0.65384 0.30188 0.98348 -0.16800
C 	C 	0.69844 0.30508 0.93832 0.46100
C 	C 	0.38439 0.26198 0.35215 0.48500
C 	C 	0.28486 0.26512 0.35110 -0.18100
C 	C 	0.20380 0.19560 0.34770 0.07600
C 	C 	0.27447 0.33414 0.35330 0.08400
C 	C 	0.10880 0.19340 0.34870 -0.11900
C 	C 	0.17692 0.32984 0.35260 -0.09800
C 	C 	0.09720 0.26180 0.35040 0.05000
C 	C 	0.00165 0.27250 0.35120 0.07200
C 	C 	0.90970 0.21780 0.35080 -0.16400
C 	C 	0.01878 0.35016 0.35400 -0.10300
C 	C 	0.83350 0.24080 0.35080 0.11900
C 	C 	0.94210 0.37620 0.35570 0.08500
C 	C 	0.84846 0.31892 0.35290 -0.19200
C 	C 	0.76010 0.33980 0.35179 0.46400
C 	C 	0.76457 0.55634 0.34170 0.31200
C 	C 	0.85693 0.62486 0.33430 -0.06400
C 	C 	0.91262 0.67604 0.37160 0.01000
C 	C 	0.88544 0.63448 0.29050 0.00200
C 	C 	0.99770 0.73740 0.36320 -0.05800
C 	C 	0.96983 0.69606 0.28260 -0.07400
C 	C 	0.02653 0.74906 0.31920 0.02700
C 	C 	0.11811 0.81942 0.31950 0.03500
C 	C 	0.15328 0.85756 0.36234 -0.06100
C 	C 	0.16828 0.84656 0.28206 -0.08000
C 	C 	0.23846 0.92532 0.37040 0.02000
C 	C 	0.25223 0.91386 0.28910 0.01700
C 	C 	0.28781 0.95362 0.33290 -0.07900
C 	C 	0.37695 0.02750 0.33924 0.31800
S 	S 	0.57416 0.18746 0.59196 0.34100
S 	S 	0.26645 0.40958 0.85285 0.33500
S 	S 	0.73228 0.81094 0.90418 0.31500
S 	S 	0.61330 0.18746 0.09196 0.34100
S 	S 	0.14313 0.40958 0.35285 0.33500
S 	S 	0.07866 0.81094 0.40418 0.31400
O 	O 	0.68533 0.21906 0.77232 -0.50100
O 	O 	0.77863 0.34646 0.78671 -0.52300
O 	O 	0.57507 0.11134 0.58043 -0.21800
O 	O 	0.48240 0.19200 0.60184 -0.22400
O 	O 	0.54407 0.24194 0.41749 -0.49800
O 	O 	0.63701 0.37002 0.42506 -0.49600
O 	O 	0.80820 0.19740 0.84068 -0.48300
O 	O 	0.86990 0.32560 0.86403 -0.54400
O 	O 	0.27875 0.43950 0.80960 -0.22200
O 	O 	0.28500 0.46380 0.89350 -0.23300
O 	O 	0.60920 0.28560 0.84766 -0.57200
O 	O 	0.63608 0.40936 0.85428 -0.43700
O 	O 	0.80886 0.54912 0.88216 -0.41900
O 	O 	0.79314 0.50948 0.80809 -0.38800
O 	O 	0.82723 0.85846 0.92671 -0.20300
O 	O 	0.65157 0.78074 0.93257 -0.20900
O 	O 	0.66013 0.06606 0.87809 -0.38500
O 	O 	0.62648 0.04916 0.80441 -0.43200
O 	O 	0.53373 0.21906 0.27232 -0.50100
O 	O 	0.56783 0.34646 0.28671 -0.52300
O 	O 	0.53627 0.11134 0.08043 -0.21800
O 	O 	0.70960 0.19200 0.10184 -0.22400
O 	O 	0.69787 0.24194 0.91749 -0.49800
O 	O 	0.73301 0.37002 0.92506 -0.49600
O 	O 	0.38920 0.19740 0.34068 -0.48300
O 	O 	0.45570 0.32560 0.36403 -0.54400
O 	O 	0.16075 0.43950 0.30960 -0.22200
O 	O 	0.17880 0.46380 0.39350 -0.23300
O 	O 	0.67640 0.28560 0.34766 -0.57200
O 	O 	0.77328 0.40936 0.35428 -0.43700
O 	O 	0.74026 0.54912 0.38216 -0.41900
O 	O 	0.71634 0.50948 0.30809 -0.38800
O 	O 	0.03123 0.85846 0.42671 -0.20400
O 	O 	0.12917 0.78074 0.43257 -0.20900
O 	O 	0.40593 0.06606 0.37809 -0.38500
O 	O 	0.42268 0.04916 0.30441 -0.43200
