data_crystal

_cell_length_a 10.25150
_cell_length_b 12.38450
_cell_length_c 16.60380
_cell_angle_alpha 90.00000
_cell_angle_beta  94.92200
_cell_angle_gamma 90.00000

_symmetry_space_group_name_	'P 1'
_symmetry_space_group_name_H-M	'P 1'

loop_
_symmetry_equiv_pos_as_xyz
  x,y,z

loop_
_atom_site_label
_atom_site_type_symbol
_atom_site_fract_x
_atom_site_fract_y
_atom_site_fract_z
_atom_site_charge
C 	C 	0.23340 0.63450 0.06050 0.31000
C 	C 	0.11050 0.58470 0.08920 -0.03600
C 	C 	0.11980 0.49480 0.13950 -0.09600
H 	H 	0.20130 0.46240 0.15400 0.07500
C 	C 	0.00720 0.45420 0.16750 0.10700
C 	C 	0.88490 0.49700 0.14460 -0.09200
H 	H 	0.80910 0.46630 0.16300 0.07500
C 	C 	0.87670 0.58630 0.09370 -0.03800
C 	C 	0.98950 0.63130 0.06740 -0.02300
H 	H 	0.98390 0.69340 0.03470 0.04900
C 	C 	0.74460 0.63550 0.06850 0.30700
C 	C 	0.03780 0.21350 0.12510 -0.76000
H 	H 	0.05530 0.13660 0.12840 0.25500
H 	H 	0.10790 0.24930 0.09980 0.26100
H 	H 	0.95540 0.22580 0.09310 0.26100
C 	C 	0.02970 0.25770 0.20760 0.30200
C 	C 	0.00680 0.37060 0.30550 0.09300
C 	C 	0.99400 0.47150 0.35110 0.02300
C 	C 	0.88870 0.48650 0.39710 -0.12400
H 	H 	0.82130 0.43490 0.39640 0.06700
C 	C 	0.88440 0.57840 0.44410 0.06500
H 	H 	0.81200 0.58860 0.47440 -0.00200
C 	C 	0.07770 0.63990 0.40220 0.05900
H 	H 	0.14300 0.69330 0.40340 -0.01000
C 	C 	0.08930 0.55160 0.35270 -0.11100
H 	H 	0.16020 0.54560 0.32070 0.06900
Cd	Cd	0.48499 0.70055 0.03395 1.20800
N 	N 	0.01630 0.36540 0.22430 -0.18800
N 	N 	0.02800 0.20110 0.27400 -0.14600
N 	N 	0.01330 0.27400 0.33640 -0.19200
N 	N 	0.97880 0.65370 0.44840 -0.24300
O 	O 	0.33430 0.57640 0.06680 -0.40100
O 	O 	0.23160 0.72670 0.03410 -0.36400
O 	O 	0.73750 0.71970 0.02880 -0.36600
O 	O 	0.64570 0.58740 0.09030 -0.39400
C 	C 	0.26660 0.13450 0.43950 0.31200
C 	C 	0.38950 0.08470 0.41080 -0.03800
C 	C 	0.38020 0.99480 0.36050 -0.09500
H 	H 	0.29870 0.96240 0.34600 0.07400
C 	C 	0.49280 0.95420 0.33250 0.10500
C 	C 	0.61510 0.99700 0.35540 -0.09200
H 	H 	0.69090 0.96630 0.33700 0.07500
C 	C 	0.62330 0.08630 0.40630 -0.03800
C 	C 	0.51050 0.13130 0.43260 -0.02100
H 	H 	0.51610 0.19340 0.46530 0.04900
C 	C 	0.75540 0.13550 0.43150 0.30700
C 	C 	0.46220 0.71350 0.37490 -0.75900
H 	H 	0.44470 0.63660 0.37160 0.25400
H 	H 	0.39210 0.74930 0.40020 0.26100
H 	H 	0.54460 0.72580 0.40690 0.26100
C 	C 	0.47030 0.75770 0.29240 0.30200
C 	C 	0.49320 0.87060 0.19450 0.09300
C 	C 	0.50600 0.97150 0.14890 0.02400
C 	C 	0.61130 0.98650 0.10290 -0.12700
H 	H 	0.67870 0.93490 0.10360 0.06700
C 	C 	0.61560 0.07840 0.05590 0.06800
H 	H 	0.68800 0.08860 0.02560 -0.00200
C 	C 	0.42230 0.13990 0.09780 0.05800
H 	H 	0.35700 0.19330 0.09660 -0.01000
C 	C 	0.41070 0.05160 0.14730 -0.11100
H 	H 	0.33980 0.04560 0.17930 0.06900
Cd	Cd	0.01501 0.20055 0.46605 1.20800
N 	N 	0.48370 0.86540 0.27570 -0.18800
N 	N 	0.47200 0.70110 0.22600 -0.14600
N 	N 	0.48670 0.77400 0.16360 -0.19200
N 	N 	0.52120 0.15370 0.05160 -0.24300
O 	O 	0.16570 0.07640 0.43320 -0.40200
O 	O 	0.26840 0.22670 0.46590 -0.36500
O 	O 	0.76250 0.21970 0.47120 -0.36500
O 	O 	0.85430 0.08740 0.40970 -0.39400
C 	C 	0.76660 0.36550 0.93950 0.31100
C 	C 	0.88950 0.41530 0.91080 -0.03500
C 	C 	0.88020 0.50520 0.86050 -0.09600
H 	H 	0.79870 0.53760 0.84600 0.07500
C 	C 	0.99280 0.54580 0.83250 0.10700
C 	C 	0.11510 0.50300 0.85540 -0.09200
H 	H 	0.19090 0.53370 0.83700 0.07500
C 	C 	0.12330 0.41370 0.90630 -0.03800
C 	C 	0.01050 0.36870 0.93260 -0.02300
H 	H 	0.01610 0.30660 0.96530 0.04900
C 	C 	0.25540 0.36450 0.93150 0.30700
C 	C 	0.96220 0.78650 0.87490 -0.76000
H 	H 	0.94470 0.86340 0.87160 0.25500
H 	H 	0.89210 0.75070 0.90020 0.26100
H 	H 	0.04460 0.77420 0.90690 0.26100
C 	C 	0.97030 0.74230 0.79240 0.30200
C 	C 	0.99320 0.62940 0.69450 0.09300
C 	C 	0.00600 0.52850 0.64890 0.02300
C 	C 	0.11130 0.51350 0.60290 -0.12400
H 	H 	0.17870 0.56510 0.60360 0.06700
C 	C 	0.11560 0.42160 0.55590 0.06500
H 	H 	0.18800 0.41140 0.52560 -0.00200
C 	C 	0.92230 0.36010 0.59780 0.05900
H 	H 	0.85700 0.30670 0.59660 -0.01000
C 	C 	0.91070 0.44840 0.64730 -0.11100
H 	H 	0.83980 0.45440 0.67930 0.06900
Cd	Cd	0.51501 0.29945 0.96605 1.20800
N 	N 	0.98370 0.63460 0.77570 -0.18800
N 	N 	0.97200 0.79890 0.72600 -0.14600
N 	N 	0.98670 0.72600 0.66360 -0.19200
N 	N 	0.02120 0.34630 0.55160 -0.24300
O 	O 	0.66570 0.42360 0.93320 -0.40100
O 	O 	0.76840 0.27330 0.96590 -0.36400
O 	O 	0.26250 0.28030 0.97120 -0.36600
O 	O 	0.35430 0.41260 0.90970 -0.39400
C 	C 	0.73340 0.86550 0.56050 0.31200
C 	C 	0.61050 0.91530 0.58920 -0.03800
C 	C 	0.61980 0.00520 0.63950 -0.09500
H 	H 	0.70130 0.03760 0.65400 0.07400
C 	C 	0.50720 0.04580 0.66750 0.10500
C 	C 	0.38490 0.00300 0.64460 -0.09200
H 	H 	0.30910 0.03370 0.66300 0.07500
C 	C 	0.37670 0.91370 0.59370 -0.03800
C 	C 	0.48950 0.86870 0.56740 -0.02100
H 	H 	0.48390 0.80660 0.53470 0.04900
C 	C 	0.24460 0.86450 0.56850 0.30700
C 	C 	0.53780 0.28650 0.62510 -0.75900
H 	H 	0.55530 0.36340 0.62840 0.25400
H 	H 	0.60790 0.25070 0.59980 0.26100
H 	H 	0.45540 0.27420 0.59310 0.26100
C 	C 	0.52970 0.24230 0.70760 0.30200
C 	C 	0.50680 0.12940 0.80550 0.09300
C 	C 	0.49400 0.02850 0.85110 0.02400
C 	C 	0.38870 0.01350 0.89710 -0.12700
H 	H 	0.32130 0.06510 0.89640 0.06700
C 	C 	0.38440 0.92160 0.94410 0.06800
H 	H 	0.31200 0.91140 0.97440 -0.00200
C 	C 	0.57770 0.86010 0.90220 0.05800
H 	H 	0.64300 0.80670 0.90340 -0.01000
C 	C 	0.58930 0.94840 0.85270 -0.11100
H 	H 	0.66020 0.95440 0.82070 0.06900
Cd	Cd	0.98499 0.79945 0.53395 1.20800
N 	N 	0.51630 0.13460 0.72430 -0.18800
N 	N 	0.52800 0.29890 0.77400 -0.14600
N 	N 	0.51330 0.22600 0.83640 -0.19200
N 	N 	0.47880 0.84630 0.94840 -0.24300
O 	O 	0.83430 0.92360 0.56680 -0.40200
O 	O 	0.73160 0.77330 0.53410 -0.36500
O 	O 	0.23750 0.78030 0.52880 -0.36500
O 	O 	0.14570 0.91260 0.59030 -0.39400
