data_crystal

_cell_length_a 16.70940
_cell_length_b 20.28570
_cell_length_c 17.19360
_cell_angle_alpha 90.00000
_cell_angle_beta  99.17800
_cell_angle_gamma 90.00000

_symmetry_space_group_name_	'P 1'
_symmetry_space_group_name_H-M	'P 1'

loop_
_symmetry_equiv_pos_as_xyz
  x,y,z

loop_
_atom_site_label
_atom_site_type_symbol
_atom_site_fract_x
_atom_site_fract_y
_atom_site_fract_z
_atom_site_charge
Co	Co	0.58645 0.85163 0.44140 1.13400
Mn	Mn	0.46300 0.83233 0.24579 1.32500
Mn	Mn	0.35591 0.87452 0.05371 1.25300
S 	S 	0.54878 0.42926 0.33489 0.26300
S 	S 	0.60562 0.51411 0.95883 0.26900
S 	S 	0.94767 0.72467 0.23391 0.27600
O 	O 	0.84610 0.38870 0.13130 -0.49900
O 	O 	0.98820 0.60570 0.97100 -0.47500
O 	O 	0.58720 0.75120 0.44090 -0.46600
O 	O 	0.48040 0.76310 0.15760 -0.45800
O 	O 	0.49980 0.75780 0.33190 -0.47300
O 	O 	0.91260 0.36230 0.24860 -0.46500
O 	O 	0.06990 0.41550 0.33070 -0.53800
O 	O 	0.33640 0.80623 0.23780 -0.44200
O 	O 	0.94990 0.60350 0.84410 -0.49100
O 	O 	0.28550 0.81510 0.11130 -0.52000
O 	O 	0.43950 0.80140 0.03710 -0.48300
O 	O 	0.05770 0.45560 0.44470 -0.44100
O 	O 	0.55770 0.39810 0.40950 -0.21300
O 	O 	0.48070 0.41380 0.27590 -0.20800
O 	O 	0.61340 0.46554 0.01910 -0.22000
O 	O 	0.55730 0.49980 0.88500 -0.21900
O 	O 	0.89590 0.72060 0.16010 -0.21300
O 	O 	0.92620 0.76638 0.29350 -0.21900
C 	C 	0.54450 0.72550 0.38190 0.41300
C 	C 	0.54820 0.65170 0.37200 -0.13600
C 	C 	0.58870 0.61070 0.42950 0.04900
H 	H 	0.61610 0.62880 0.47590 0.01200
C 	C 	0.58910 0.54310 0.41900 -0.10600
H 	H 	0.61590 0.51590 0.45830 0.06800
C 	C 	0.54950 0.51640 0.34970 0.02500
C 	C 	0.51220 0.55630 0.29000 -0.10900
H 	H 	0.48770 0.53810 0.24250 0.09800
C 	C 	0.51180 0.62430 0.30170 0.05100
H 	H 	0.48650 0.65150 0.26160 0.03200
C 	C 	0.63720 0.41500 0.29630 0.03900
C 	C 	0.70570 0.39180 0.34390 -0.11400
H 	H 	0.70440 0.38300 0.39680 0.08600
C 	C 	0.77540 0.38180 0.31350 0.07700
H 	H 	0.82200 0.36680 0.34560 0.02000
C 	C 	0.77590 0.39410 0.23610 -0.16300
C 	C 	0.70570 0.41540 0.18840 0.08000
H 	H 	0.70600 0.42190 0.13490 0.02800
C 	C 	0.63710 0.42670 0.21840 -0.11900
H 	H 	0.59080 0.44210 0.18650 0.09900
C 	C 	0.85170 0.38070 0.20400 0.44300
C 	C 	0.47470 0.75990 0.08540 0.42700
C 	C 	0.50950 0.70030 0.05260 -0.14100
C 	C 	0.55150 0.65340 0.10270 0.06300
H 	H 	0.55900 0.66040 0.15680 0.02600
C 	C 	0.58180 0.59720 0.07390 -0.09400
H 	H 	0.60960 0.56620 0.10790 0.08000
C 	C 	0.57050 0.58780 0.99460 0.03000
C 	C 	0.52960 0.63420 0.94360 -0.09600
H 	H 	0.52290 0.62750 0.88950 0.09200
C 	C 	0.49870 0.69060 0.97360 0.06100
H 	H 	0.47060 0.72150 0.93970 0.03300
C 	C 	0.70410 0.53440 0.94360 0.04300
C 	C 	0.76830 0.52460 0.00300 -0.14300
H 	H 	0.76050 0.50500 0.05010 0.09000
C 	C 	0.84430 0.54440 0.99160 0.08900
H 	H 	0.88840 0.53880 0.03160 0.00400
C 	C 	0.85520 0.57200 0.92230 -0.17600
C 	C 	0.78940 0.58010 0.86270 0.08400
H 	H 	0.79730 0.59830 0.81480 0.01300
C 	C 	0.71300 0.56170 0.87340 -0.13500
H 	H 	0.66870 0.56770 0.83380 0.09900
C 	C 	0.93650 0.59490 0.91090 0.43500
C 	C 	0.27990 0.80280 0.18010 0.43000
C 	C 	0.19770 0.78260 0.19420 -0.14800
C 	C 	0.13550 0.77350 0.13210 0.05400
H 	H 	0.14570 0.77990 0.08100 0.02100
C 	C 	0.05950 0.75550 0.14340 -0.10300
H 	H 	0.01850 0.74870 0.10070 0.08400
C 	C 	0.04520 0.74770 0.21870 0.02700
C 	C 	0.10600 0.75710 0.28150 -0.09700
H 	H 	0.09510 0.75210 0.33250 0.07500
C 	C 	0.18280 0.77380 0.26990 0.05700
H 	H 	0.22420 0.77910 0.31260 0.02800
C 	C 	0.96300 0.64400 0.27230 0.00400
C 	C 	0.96900 0.63450 0.35100 -0.09100
H 	H 	0.95950 0.66900 0.38400 0.06600
C 	C 	0.98940 0.57270 0.38120 0.01700
H 	H 	0.99100 0.56550 0.43490 0.04000
C 	C 	0.00740 0.52100 0.33450 -0.11900
C 	C 	0.99820 0.53020 0.25560 0.02600
H 	H 	0.00720 0.49540 0.22280 0.03300
C 	C 	0.97530 0.59180 0.22340 -0.08300
H 	H 	0.96820 0.59790 0.16920 0.06900
C 	C 	0.04420 0.45970 0.37210 0.37400
Co	Co	0.91355 0.35163 0.05860 1.13400
Mn	Mn	0.03700 0.33233 0.25421 1.32600
Mn	Mn	0.14409 0.37452 0.44629 1.25400
S 	S 	0.95122 0.92926 0.16511 0.26500
S 	S 	0.89438 0.01411 0.54117 0.26800
S 	S 	0.55233 0.22467 0.26609 0.27700
O 	O 	0.65390 0.88870 0.36870 -0.49800
O 	O 	0.51180 0.10570 0.52900 -0.47600
O 	O 	0.91280 0.25120 0.05910 -0.46600
O 	O 	0.01960 0.26310 0.34240 -0.45800
O 	O 	0.00020 0.25780 0.16810 -0.47100
O 	O 	0.58740 0.86230 0.25140 -0.46400
O 	O 	0.43010 0.91550 0.16930 -0.53900
O 	O 	0.16360 0.30623 0.26220 -0.44200
O 	O 	0.55010 0.10350 0.65590 -0.49100
O 	O 	0.21450 0.31510 0.38870 -0.52100
O 	O 	0.06050 0.30140 0.46290 -0.48300
O 	O 	0.44230 0.95560 0.05530 -0.44200
O 	O 	0.94230 0.89810 0.09050 -0.21300
O 	O 	0.01930 0.91380 0.22410 -0.20900
O 	O 	0.88660 0.96554 0.48090 -0.21800
O 	O 	0.94270 0.99980 0.61500 -0.21700
O 	O 	0.60410 0.22060 0.33990 -0.21300
O 	O 	0.57380 0.26638 0.20650 -0.21900
C 	C 	0.95550 0.22550 0.11810 0.40900
C 	C 	0.95180 0.15170 0.12800 -0.13400
C 	C 	0.91130 0.11070 0.07050 0.04800
H 	H 	0.88390 0.12880 0.02410 0.01200
C 	C 	0.91090 0.04310 0.08100 -0.10600
H 	H 	0.88410 0.01590 0.04170 0.06700
C 	C 	0.95050 0.01640 0.15030 0.02400
C 	C 	0.98780 0.05630 0.21000 -0.11100
H 	H 	0.01230 0.03810 0.25750 0.10000
C 	C 	0.98820 0.12430 0.19830 0.04800
H 	H 	0.01350 0.15150 0.23840 0.03500
C 	C 	0.86280 0.91500 0.20370 0.03900
C 	C 	0.79430 0.89180 0.15610 -0.11300
H 	H 	0.79560 0.88300 0.10320 0.08600
C 	C 	0.72460 0.88180 0.18650 0.07600
H 	H 	0.67800 0.86680 0.15440 0.02000
C 	C 	0.72410 0.89410 0.26390 -0.16200
C 	C 	0.79430 0.91540 0.31160 0.08000
H 	H 	0.79400 0.92190 0.36510 0.02800
C 	C 	0.86290 0.92670 0.28160 -0.11900
H 	H 	0.90920 0.94210 0.31350 0.09900
C 	C 	0.64830 0.88070 0.29600 0.44200
C 	C 	0.02530 0.25990 0.41460 0.42900
C 	C 	0.99050 0.20030 0.44740 -0.14500
C 	C 	0.94850 0.15340 0.39730 0.06500
H 	H 	0.94100 0.16040 0.34320 0.02500
C 	C 	0.91820 0.09720 0.42610 -0.09600
H 	H 	0.89040 0.06620 0.39210 0.08100
C 	C 	0.92950 0.08780 0.50540 0.03100
C 	C 	0.97040 0.13420 0.55640 -0.09900
H 	H 	0.97710 0.12750 0.61050 0.09300
C 	C 	0.00130 0.19060 0.52640 0.06500
H 	H 	0.02940 0.22150 0.56030 0.03100
C 	C 	0.79590 0.03440 0.55640 0.03700
C 	C 	0.73170 0.02460 0.49700 -0.13300
H 	H 	0.73950 0.00500 0.44990 0.08600
C 	C 	0.65570 0.04440 0.50840 0.07800
H 	H 	0.61160 0.03880 0.46840 0.00900
C 	C 	0.64480 0.07200 0.57770 -0.17000
C 	C 	0.71060 0.08010 0.63730 0.07900
H 	H 	0.70270 0.09830 0.68520 0.01500
C 	C 	0.78700 0.06170 0.62660 -0.13000
H 	H 	0.83130 0.06770 0.66620 0.09700
C 	C 	0.56350 0.09490 0.58910 0.43300
C 	C 	0.22010 0.30280 0.31990 0.43100
C 	C 	0.30230 0.28260 0.30580 -0.14800
C 	C 	0.36450 0.27350 0.36790 0.05400
H 	H 	0.35430 0.27990 0.41900 0.02100
C 	C 	0.44050 0.25550 0.35660 -0.10300
H 	H 	0.48150 0.24870 0.39930 0.08300
C 	C 	0.45480 0.24770 0.28130 0.02700
C 	C 	0.39400 0.25710 0.21850 -0.09700
H 	H 	0.40490 0.25210 0.16750 0.07500
C 	C 	0.31720 0.27380 0.23010 0.05700
H 	H 	0.27580 0.27910 0.18740 0.02800
C 	C 	0.53700 0.14400 0.22770 0.00600
C 	C 	0.53100 0.13450 0.14900 -0.09500
H 	H 	0.54050 0.16900 0.11600 0.06700
C 	C 	0.51060 0.07270 0.11880 0.02200
H 	H 	0.50900 0.06550 0.06510 0.03900
C 	C 	0.49260 0.02100 0.16550 -0.12300
C 	C 	0.50180 0.03020 0.24440 0.03300
H 	H 	0.49280 0.99540 0.27720 0.03000
C 	C 	0.52470 0.09180 0.27660 -0.08700
H 	H 	0.53180 0.09790 0.33080 0.07100
C 	C 	0.45580 0.95970 0.12790 0.37500
Co	Co	0.41355 0.14837 0.55860 1.13500
Mn	Mn	0.53700 0.16767 0.75421 1.32600
Mn	Mn	0.64409 0.12548 0.94629 1.25400
S 	S 	0.45122 0.57074 0.66511 0.26400
S 	S 	0.39438 0.48589 0.04117 0.27000
S 	S 	0.05233 0.27533 0.76609 0.27700
O 	O 	0.15390 0.61130 0.86870 -0.49900
O 	O 	0.01180 0.39430 0.02900 -0.47500
O 	O 	0.41280 0.24880 0.55910 -0.46600
O 	O 	0.51960 0.23690 0.84240 -0.45800
O 	O 	0.50020 0.24220 0.66810 -0.47300
O 	O 	0.08740 0.63770 0.75140 -0.46500
O 	O 	0.93010 0.58450 0.66930 -0.53800
O 	O 	0.66360 0.19377 0.76220 -0.44200
O 	O 	0.05010 0.39650 0.15590 -0.49100
O 	O 	0.71450 0.18490 0.88870 -0.52000
O 	O 	0.56050 0.19860 0.96290 -0.48300
O 	O 	0.94230 0.54440 0.55530 -0.44100
O 	O 	0.44230 0.60190 0.59050 -0.21300
O 	O 	0.51930 0.58620 0.72410 -0.20800
O 	O 	0.38660 0.53446 0.98090 -0.22000
O 	O 	0.44270 0.50020 0.11500 -0.21900
O 	O 	0.10410 0.27940 0.83990 -0.21300
O 	O 	0.07380 0.23362 0.70650 -0.21900
C 	C 	0.45550 0.27450 0.61810 0.41300
C 	C 	0.45180 0.34830 0.62800 -0.13600
C 	C 	0.41130 0.38930 0.57050 0.04900
H 	H 	0.38390 0.37120 0.52410 0.01200
C 	C 	0.41090 0.45690 0.58100 -0.10600
H 	H 	0.38410 0.48410 0.54170 0.06800
C 	C 	0.45050 0.48360 0.65030 0.02500
C 	C 	0.48780 0.44370 0.71000 -0.10900
H 	H 	0.51230 0.46190 0.75750 0.09800
C 	C 	0.48820 0.37570 0.69830 0.05100
H 	H 	0.51350 0.34850 0.73840 0.03200
C 	C 	0.36280 0.58500 0.70370 0.03900
C 	C 	0.29430 0.60820 0.65610 -0.11400
H 	H 	0.29560 0.61700 0.60320 0.08600
C 	C 	0.22460 0.61820 0.68650 0.07700
H 	H 	0.17800 0.63320 0.65440 0.02000
C 	C 	0.22410 0.60590 0.76390 -0.16300
C 	C 	0.29430 0.58460 0.81160 0.08000
H 	H 	0.29400 0.57810 0.86510 0.02800
C 	C 	0.36290 0.57330 0.78160 -0.11900
H 	H 	0.40920 0.55790 0.81350 0.09900
C 	C 	0.14830 0.61930 0.79600 0.44300
C 	C 	0.52530 0.24010 0.91460 0.42700
C 	C 	0.49050 0.29970 0.94740 -0.14100
C 	C 	0.44850 0.34660 0.89730 0.06300
H 	H 	0.44100 0.33960 0.84320 0.02600
C 	C 	0.41820 0.40280 0.92610 -0.09400
H 	H 	0.39040 0.43380 0.89210 0.08000
C 	C 	0.42950 0.41220 0.00540 0.03000
C 	C 	0.47040 0.36580 0.05640 -0.09600
H 	H 	0.47710 0.37250 0.11050 0.09200
C 	C 	0.50130 0.30940 0.02640 0.06100
H 	H 	0.52940 0.27850 0.06030 0.03300
C 	C 	0.29590 0.46560 0.05640 0.04300
C 	C 	0.23170 0.47540 0.99700 -0.14300
H 	H 	0.23950 0.49500 0.94990 0.09000
C 	C 	0.15570 0.45560 0.00840 0.08900
H 	H 	0.11160 0.46120 0.96840 0.00400
C 	C 	0.14480 0.42800 0.07770 -0.17600
C 	C 	0.21060 0.41990 0.13730 0.08400
H 	H 	0.20270 0.40170 0.18520 0.01300
C 	C 	0.28700 0.43830 0.12660 -0.13500
H 	H 	0.33130 0.43230 0.16620 0.09900
C 	C 	0.06350 0.40510 0.08910 0.43500
C 	C 	0.72010 0.19720 0.81990 0.43000
C 	C 	0.80230 0.21740 0.80580 -0.14800
C 	C 	0.86450 0.22650 0.86790 0.05400
H 	H 	0.85430 0.22010 0.91900 0.02100
C 	C 	0.94050 0.24450 0.85660 -0.10300
H 	H 	0.98150 0.25130 0.89930 0.08400
C 	C 	0.95480 0.25230 0.78130 0.02700
C 	C 	0.89400 0.24290 0.71850 -0.09700
H 	H 	0.90490 0.24790 0.66750 0.07500
C 	C 	0.81720 0.22620 0.73010 0.05700
H 	H 	0.77580 0.22090 0.68740 0.02800
C 	C 	0.03700 0.35600 0.72770 0.00400
C 	C 	0.03100 0.36550 0.64900 -0.09100
H 	H 	0.04050 0.33100 0.61600 0.06600
C 	C 	0.01060 0.42730 0.61880 0.01700
H 	H 	0.00900 0.43450 0.56510 0.04000
C 	C 	0.99260 0.47900 0.66550 -0.11900
C 	C 	0.00180 0.46980 0.74440 0.02600
H 	H 	0.99280 0.50460 0.77720 0.03300
C 	C 	0.02470 0.40820 0.77660 -0.08300
H 	H 	0.03180 0.40210 0.83080 0.06900
C 	C 	0.95580 0.54030 0.62790 0.37400
Co	Co	0.08645 0.64837 0.94140 1.13400
Mn	Mn	0.96300 0.66767 0.74579 1.32600
Mn	Mn	0.85591 0.62548 0.55371 1.25400
S 	S 	0.04878 0.07074 0.83489 0.26500
S 	S 	0.10562 0.98589 0.45883 0.26800
S 	S 	0.44767 0.77533 0.73391 0.27700
O 	O 	0.34610 0.11130 0.63130 -0.49800
O 	O 	0.48820 0.89430 0.47100 -0.47600
O 	O 	0.08720 0.74880 0.94090 -0.46600
O 	O 	0.98040 0.73690 0.65760 -0.45800
O 	O 	0.99980 0.74220 0.83190 -0.47100
O 	O 	0.41260 0.13770 0.74860 -0.46400
O 	O 	0.56990 0.08450 0.83070 -0.53900
O 	O 	0.83640 0.69377 0.73780 -0.44200
O 	O 	0.44990 0.89650 0.34410 -0.49100
O 	O 	0.78550 0.68490 0.61130 -0.52100
O 	O 	0.93950 0.69860 0.53710 -0.48300
O 	O 	0.55770 0.04440 0.94470 -0.44200
O 	O 	0.05770 0.10190 0.90950 -0.21300
O 	O 	0.98070 0.08620 0.77590 -0.20900
O 	O 	0.11340 0.03446 0.51910 -0.21800
O 	O 	0.05730 0.00020 0.38500 -0.21700
O 	O 	0.39590 0.77940 0.66010 -0.21300
O 	O 	0.42620 0.73362 0.79350 -0.21900
C 	C 	0.04450 0.77450 0.88190 0.40900
C 	C 	0.04820 0.84830 0.87200 -0.13400
C 	C 	0.08870 0.88930 0.92950 0.04800
H 	H 	0.11610 0.87120 0.97590 0.01200
C 	C 	0.08910 0.95690 0.91900 -0.10600
H 	H 	0.11590 0.98410 0.95830 0.06700
C 	C 	0.04950 0.98360 0.84970 0.02400
C 	C 	0.01220 0.94370 0.79000 -0.11100
H 	H 	0.98770 0.96190 0.74250 0.10000
C 	C 	0.01180 0.87570 0.80170 0.04800
H 	H 	0.98650 0.84850 0.76160 0.03500
C 	C 	0.13720 0.08500 0.79630 0.03900
C 	C 	0.20570 0.10820 0.84390 -0.11300
H 	H 	0.20440 0.11700 0.89680 0.08600
C 	C 	0.27540 0.11820 0.81350 0.07600
H 	H 	0.32200 0.13320 0.84560 0.02000
C 	C 	0.27590 0.10590 0.73610 -0.16200
C 	C 	0.20570 0.08460 0.68840 0.08000
H 	H 	0.20600 0.07810 0.63490 0.02800
C 	C 	0.13710 0.07330 0.71840 -0.11900
H 	H 	0.09080 0.05790 0.68650 0.09900
C 	C 	0.35170 0.11930 0.70400 0.44200
C 	C 	0.97470 0.74010 0.58540 0.42900
C 	C 	0.00950 0.79970 0.55260 -0.14500
C 	C 	0.05150 0.84660 0.60270 0.06500
H 	H 	0.05900 0.83960 0.65680 0.02500
C 	C 	0.08180 0.90280 0.57390 -0.09600
H 	H 	0.10960 0.93380 0.60790 0.08100
C 	C 	0.07050 0.91220 0.49460 0.03100
C 	C 	0.02960 0.86580 0.44360 -0.09900
H 	H 	0.02290 0.87250 0.38950 0.09300
C 	C 	0.99870 0.80940 0.47360 0.06500
H 	H 	0.97060 0.77850 0.43970 0.03100
C 	C 	0.20410 0.96560 0.44360 0.03700
C 	C 	0.26830 0.97540 0.50300 -0.13300
H 	H 	0.26050 0.99500 0.55010 0.08600
C 	C 	0.34430 0.95560 0.49160 0.07800
H 	H 	0.38840 0.96120 0.53160 0.00900
C 	C 	0.35520 0.92800 0.42230 -0.17000
C 	C 	0.28940 0.91990 0.36270 0.07900
H 	H 	0.29730 0.90170 0.31480 0.01500
C 	C 	0.21300 0.93830 0.37340 -0.13000
H 	H 	0.16870 0.93230 0.33380 0.09700
C 	C 	0.43650 0.90510 0.41090 0.43300
C 	C 	0.77990 0.69720 0.68010 0.43100
C 	C 	0.69770 0.71740 0.69420 -0.14800
C 	C 	0.63550 0.72650 0.63210 0.05400
H 	H 	0.64570 0.72010 0.58100 0.02100
C 	C 	0.55950 0.74450 0.64340 -0.10300
H 	H 	0.51850 0.75130 0.60070 0.08300
C 	C 	0.54520 0.75230 0.71870 0.02700
C 	C 	0.60600 0.74290 0.78150 -0.09700
H 	H 	0.59510 0.74790 0.83250 0.07500
C 	C 	0.68280 0.72620 0.76990 0.05700
H 	H 	0.72420 0.72090 0.81260 0.02800
C 	C 	0.46300 0.85600 0.77230 0.00600
C 	C 	0.46900 0.86550 0.85100 -0.09500
H 	H 	0.45950 0.83100 0.88400 0.06700
C 	C 	0.48940 0.92730 0.88120 0.02200
H 	H 	0.49100 0.93450 0.93490 0.03900
C 	C 	0.50740 0.97900 0.83450 -0.12300
C 	C 	0.49820 0.96980 0.75560 0.03300
H 	H 	0.50720 0.00460 0.72280 0.03000
C 	C 	0.47530 0.90820 0.72340 -0.08700
H 	H 	0.46820 0.90210 0.66920 0.07100
C 	C 	0.54420 0.04030 0.87210 0.37500
