data_crystal

_cell_length_a 16.70940
_cell_length_b 20.28570
_cell_length_c 17.19360
_cell_angle_alpha 90.00000
_cell_angle_beta  99.17800
_cell_angle_gamma 90.00000

_symmetry_space_group_name_	'P 1'
_symmetry_space_group_name_H-M	'P 1'

loop_
_symmetry_equiv_pos_as_xyz
  x,y,z

loop_
_atom_site_label
_atom_site_type_symbol
_atom_site_fract_x
_atom_site_fract_y
_atom_site_fract_z
_atom_site_charge
Mn	Mn	0.46316 0.83389 0.74731 1.32200
Mn	Mn	0.35661 0.87850 0.55327 1.24800
Mn	Mn	0.58457 0.85213 0.94379 1.26600
S 	S 	0.55321 0.22614 0.77103 0.27000
S 	S 	0.54774 0.42940 0.83559 0.25300
S 	S 	0.10476 0.98467 0.95924 0.27500
O 	O 	0.50250 0.75675 0.82820 -0.49000
O 	O 	0.98100 0.73223 0.15480 -0.45500
O 	O 	0.42860 0.91849 0.67490 -0.53400
O 	O 	0.91370 0.36660 0.75020 -0.46700
O 	O 	0.16339 0.30696 0.75982 -0.44200
O 	O 	0.45580 0.89233 0.85570 -0.50200
O 	O 	0.21150 0.31680 0.88749 -0.51500
O 	O 	0.94010 0.69518 0.03350 -0.47900
O 	O 	0.44580 0.95736 0.56050 -0.44000
O 	O 	0.84670 0.38884 0.63176 -0.52400
O 	O 	0.57930 0.75038 0.94290 -0.49800
O 	O 	0.48910 0.89810 0.98350 -0.48200
O 	O 	0.57640 0.26706 0.71060 -0.21700
O 	O 	0.60330 0.22335 0.84590 -0.21100
O 	O 	0.48100 0.41315 0.77490 -0.20500
O 	O 	0.55580 0.39817 0.91060 -0.21100
O 	O 	0.10960 0.03232 0.02070 -0.22000
O 	O 	0.05840 0.99903 0.88440 -0.22000
C 	C 	0.45670 0.96150 0.63380 0.36600
C 	C 	0.49440 0.02270 0.67140 -0.12200
C 	C 	0.50200 0.03300 0.75100 0.03600
H 	H 	0.49190 0.99860 0.78390 0.02500
C 	C 	0.52460 0.09400 0.78260 -0.09400
H 	H 	0.53050 0.10070 0.83670 0.07300
C 	C 	0.53850 0.14510 0.73340 0.01000
C 	C 	0.53550 0.13470 0.65480 -0.09700
H 	H 	0.54730 0.16870 0.62210 0.06800
C 	C 	0.51460 0.07300 0.62430 0.02400
H 	H 	0.51410 0.06530 0.57090 0.03300
C 	C 	0.45530 0.24940 0.78430 0.02700
C 	C 	0.43870 0.25780 0.85910 -0.10200
H 	H 	0.47900 0.25150 0.90250 0.08100
C 	C 	0.36180 0.27560 0.86920 0.04800
H 	H 	0.35030 0.28190 0.91990 0.01800
C 	C 	0.30120 0.28410 0.80540 -0.14500
C 	C 	0.31890 0.27500 0.73060 0.05500
H 	H 	0.27850 0.27990 0.68710 0.02800
C 	C 	0.39600 0.25860 0.72030 -0.09700
H 	H 	0.40820 0.25380 0.66970 0.07500
C 	C 	0.21840 0.30410 0.81840 0.42200
C 	C 	0.54200 0.72490 0.88160 0.43500
C 	C 	0.54470 0.65090 0.87240 -0.15200
C 	C 	0.51320 0.62370 0.80090 0.06600
H 	H 	0.49050 0.65090 0.75970 0.02700
C 	C 	0.51480 0.55620 0.78960 -0.12200
H 	H 	0.49460 0.53820 0.74060 0.10200
C 	C 	0.54630 0.51620 0.85050 0.03400
C 	C 	0.57950 0.54230 0.92190 -0.11700
H 	H 	0.60230 0.51480 0.96280 0.07400
C 	C 	0.57890 0.61030 0.93250 0.05900
H 	H 	0.60170 0.62840 0.98070 0.01300
C 	C 	0.63750 0.41660 0.79750 0.04600
C 	C 	0.70560 0.39650 0.84610 -0.12200
H 	H 	0.70450 0.38940 0.89940 0.08700
C 	C 	0.77550 0.38670 0.81590 0.08000
H 	H 	0.82250 0.37360 0.84880 0.01800
C 	C 	0.77680 0.39620 0.73730 -0.16700
C 	C 	0.70660 0.41500 0.68900 0.08300
H 	H 	0.70680 0.42050 0.63530 0.02500
C 	C 	0.63690 0.42580 0.71900 -0.12200
H 	H 	0.58990 0.43910 0.68640 0.10100
C 	C 	0.85250 0.38300 0.70450 0.45000
C 	C 	0.43930 0.90480 0.92190 0.40300
C 	C 	0.35650 0.92850 0.92830 -0.14500
C 	C 	0.34280 0.95740 0.99720 0.04800
H 	H 	0.38590 0.96440 0.03780 0.01700
C 	C 	0.26610 0.97620 0.00640 -0.11200
H 	H 	0.25660 0.99550 0.05320 0.07800
C 	C 	0.20380 0.96590 0.94570 0.01900
C 	C 	0.21620 0.93800 0.87560 -0.11100
H 	H 	0.17310 0.93150 0.83500 0.09000
C 	C 	0.29280 0.92020 0.86690 0.05800
H 	H 	0.30250 0.90240 0.81950 0.02100
C 	C 	0.06990 0.91030 0.99370 0.02300
C 	C 	0.08150 0.89860 0.07320 -0.08500
H 	H 	0.10910 0.92910 0.10790 0.07700
C 	C 	0.05230 0.84210 0.10100 0.05400
H 	H 	0.06090 0.83410 0.15500 0.02900
C 	C 	0.01000 0.79630 0.05050 -0.12900
C 	C 	0.99910 0.80840 0.97030 0.05100
H 	H 	0.97150 0.77790 0.93560 0.03600
C 	C 	0.02880 0.86490 0.94150 -0.09000
H 	H 	0.02140 0.87270 0.88750 0.09000
C 	C 	0.97490 0.73600 0.08230 0.41800
Mn	Mn	0.03684 0.33389 0.75269 1.32300
Mn	Mn	0.14339 0.37850 0.94673 1.24900
Mn	Mn	0.91543 0.35213 0.55621 1.26700
S 	S 	0.94679 0.72614 0.72897 0.27000
S 	S 	0.95226 0.92940 0.66441 0.25300
S 	S 	0.39524 0.48467 0.54076 0.27400
O 	O 	0.99750 0.25675 0.67180 -0.48800
O 	O 	0.51900 0.23223 0.34520 -0.45400
O 	O 	0.07140 0.41849 0.82510 -0.53400
O 	O 	0.58630 0.86660 0.74980 -0.46600
O 	O 	0.33661 0.80696 0.74018 -0.44000
O 	O 	0.04420 0.39233 0.64430 -0.50200
O 	O 	0.28850 0.81680 0.61251 -0.51500
O 	O 	0.55990 0.19518 0.46650 -0.47900
O 	O 	0.05420 0.45736 0.93950 -0.44100
O 	O 	0.65330 0.88884 0.86824 -0.52400
O 	O 	0.92070 0.25038 0.55710 -0.49800
O 	O 	0.01090 0.39810 0.51650 -0.48200
O 	O 	0.92360 0.76706 0.78940 -0.21600
O 	O 	0.89670 0.72335 0.65410 -0.21100
O 	O 	0.01900 0.91315 0.72510 -0.20500
O 	O 	0.94420 0.89817 0.58940 -0.21100
O 	O 	0.39040 0.53232 0.47930 -0.22000
O 	O 	0.44160 0.49903 0.61560 -0.22000
C 	C 	0.04330 0.46150 0.86620 0.36800
C 	C 	0.00560 0.52270 0.82860 -0.12900
C 	C 	0.99800 0.53300 0.74900 0.04300
H 	H 	0.00810 0.49860 0.71610 0.02200
C 	C 	0.97540 0.59400 0.71740 -0.09900
H 	H 	0.96950 0.60070 0.66330 0.07500
C 	C 	0.96150 0.64510 0.76660 0.01300
C 	C 	0.96450 0.63470 0.84520 -0.10100
H 	H 	0.95270 0.66870 0.87790 0.07000
C 	C 	0.98540 0.57300 0.87570 0.03000
H 	H 	0.98590 0.56530 0.92910 0.03200
C 	C 	0.04470 0.74940 0.71570 0.02600
C 	C 	0.06130 0.75780 0.64090 -0.10100
H 	H 	0.02100 0.75150 0.59750 0.08100
C 	C 	0.13820 0.77560 0.63080 0.04700
H 	H 	0.14970 0.78190 0.58010 0.01800
C 	C 	0.19880 0.78410 0.69460 -0.14400
C 	C 	0.18110 0.77500 0.76940 0.05500
H 	H 	0.22150 0.77990 0.81290 0.02800
C 	C 	0.10400 0.75860 0.77970 -0.09700
H 	H 	0.09180 0.75380 0.83030 0.07500
C 	C 	0.28160 0.80410 0.68160 0.42200
C 	C 	0.95800 0.22490 0.61840 0.43500
C 	C 	0.95530 0.15090 0.62760 -0.15200
C 	C 	0.98680 0.12370 0.69910 0.06800
H 	H 	0.00950 0.15090 0.74030 0.02500
C 	C 	0.98520 0.05620 0.71040 -0.12000
H 	H 	0.00540 0.03820 0.75940 0.09900
C 	C 	0.95370 0.01620 0.64950 0.03400
C 	C 	0.92050 0.04230 0.57810 -0.11700
H 	H 	0.89770 0.01480 0.53720 0.07400
C 	C 	0.92110 0.11030 0.56750 0.05900
H 	H 	0.89830 0.12840 0.51930 0.01300
C 	C 	0.86250 0.91660 0.70250 0.04600
C 	C 	0.79440 0.89650 0.65390 -0.12200
H 	H 	0.79550 0.88940 0.60060 0.08700
C 	C 	0.72450 0.88670 0.68410 0.08100
H 	H 	0.67750 0.87360 0.65120 0.01800
C 	C 	0.72320 0.89620 0.76270 -0.16700
C 	C 	0.79340 0.91500 0.81100 0.08300
H 	H 	0.79320 0.92050 0.86470 0.02500
C 	C 	0.86310 0.92580 0.78100 -0.12300
H 	H 	0.91010 0.93910 0.81360 0.10100
C 	C 	0.64750 0.88300 0.79550 0.45000
C 	C 	0.06070 0.40480 0.57810 0.40500
C 	C 	0.14350 0.42850 0.57170 -0.14900
C 	C 	0.15720 0.45740 0.50280 0.05600
H 	H 	0.11410 0.46440 0.46220 0.01400
C 	C 	0.23390 0.47620 0.49360 -0.12000
H 	H 	0.24340 0.49550 0.44680 0.08100
C 	C 	0.29620 0.46590 0.55430 0.02400
C 	C 	0.28380 0.43800 0.62440 -0.11500
H 	H 	0.32690 0.43150 0.66500 0.09100
C 	C 	0.20720 0.42020 0.63310 0.06200
H 	H 	0.19750 0.40240 0.68050 0.01900
C 	C 	0.43010 0.41030 0.50630 0.02700
C 	C 	0.41850 0.39860 0.42680 -0.09200
H 	H 	0.39090 0.42910 0.39210 0.07900
C 	C 	0.44770 0.34210 0.39900 0.05900
H 	H 	0.43910 0.33410 0.34500 0.02700
C 	C 	0.49000 0.29630 0.44950 -0.13500
C 	C 	0.50090 0.30840 0.52970 0.05400
H 	H 	0.52850 0.27790 0.56440 0.03400
C 	C 	0.47120 0.36490 0.55850 -0.09300
H 	H 	0.47860 0.37270 0.61250 0.09100
C 	C 	0.52510 0.23600 0.41770 0.42200
Mn	Mn	0.53684 0.16611 0.25269 1.32300
Mn	Mn	0.64339 0.12150 0.44673 1.24900
Mn	Mn	0.41543 0.14787 0.05621 1.26700
S 	S 	0.44679 0.77386 0.22897 0.27100
S 	S 	0.45226 0.57060 0.16441 0.25400
S 	S 	0.89524 0.01533 0.04076 0.27600
O 	O 	0.49750 0.24325 0.17180 -0.48900
O 	O 	0.01900 0.26777 0.84520 -0.45400
O 	O 	0.57140 0.08151 0.32510 -0.53300
O 	O 	0.08630 0.63340 0.24980 -0.46600
O 	O 	0.83661 0.69304 0.24018 -0.44100
O 	O 	0.54420 0.10767 0.14430 -0.50100
O 	O 	0.78850 0.68320 0.11251 -0.51500
O 	O 	0.05990 0.30482 0.96650 -0.47900
O 	O 	0.55420 0.04264 0.43950 -0.44000
O 	O 	0.15330 0.61116 0.36824 -0.52400
O 	O 	0.42070 0.24962 0.05710 -0.49800
O 	O 	0.51090 0.10190 0.01650 -0.48200
O 	O 	0.42360 0.73294 0.28940 -0.21700
O 	O 	0.39670 0.77665 0.15410 -0.21100
O 	O 	0.51900 0.58685 0.22510 -0.20500
O 	O 	0.44420 0.60183 0.08940 -0.21100
O 	O 	0.89040 0.96768 0.97930 -0.22000
O 	O 	0.94160 0.00097 0.11560 -0.22000
C 	C 	0.54330 0.03850 0.36620 0.36600
C 	C 	0.50560 0.97730 0.32860 -0.12200
C 	C 	0.49800 0.96700 0.24900 0.03600
H 	H 	0.50810 0.00140 0.21610 0.02500
C 	C 	0.47540 0.90600 0.21740 -0.09400
H 	H 	0.46950 0.89930 0.16330 0.07300
C 	C 	0.46150 0.85490 0.26660 0.01000
C 	C 	0.46450 0.86530 0.34520 -0.09700
H 	H 	0.45270 0.83130 0.37790 0.06800
C 	C 	0.48540 0.92700 0.37570 0.02400
H 	H 	0.48590 0.93470 0.42910 0.03300
C 	C 	0.54470 0.75060 0.21570 0.02700
C 	C 	0.56130 0.74220 0.14090 -0.10200
H 	H 	0.52100 0.74850 0.09750 0.08100
C 	C 	0.63820 0.72440 0.13080 0.04800
H 	H 	0.64970 0.71810 0.08010 0.01800
C 	C 	0.69880 0.71590 0.19460 -0.14500
C 	C 	0.68110 0.72500 0.26940 0.05500
H 	H 	0.72150 0.72010 0.31290 0.02800
C 	C 	0.60400 0.74140 0.27970 -0.09700
H 	H 	0.59180 0.74620 0.33030 0.07500
C 	C 	0.78160 0.69590 0.18160 0.42200
C 	C 	0.45800 0.27510 0.11840 0.43500
C 	C 	0.45530 0.34910 0.12760 -0.15200
C 	C 	0.48680 0.37630 0.19910 0.06600
H 	H 	0.50950 0.34910 0.24030 0.02700
C 	C 	0.48520 0.44380 0.21040 -0.12200
H 	H 	0.50540 0.46180 0.25940 0.10200
C 	C 	0.45370 0.48380 0.14950 0.03400
C 	C 	0.42050 0.45770 0.07810 -0.11700
H 	H 	0.39770 0.48520 0.03720 0.07400
C 	C 	0.42110 0.38970 0.06750 0.05900
H 	H 	0.39830 0.37160 0.01930 0.01300
C 	C 	0.36250 0.58340 0.20250 0.04600
C 	C 	0.29440 0.60350 0.15390 -0.12200
H 	H 	0.29550 0.61060 0.10060 0.08700
C 	C 	0.22450 0.61330 0.18410 0.08000
H 	H 	0.17750 0.62640 0.15120 0.01800
C 	C 	0.22320 0.60380 0.26270 -0.16700
C 	C 	0.29340 0.58500 0.31100 0.08300
H 	H 	0.29320 0.57950 0.36470 0.02500
C 	C 	0.36310 0.57420 0.28100 -0.12200
H 	H 	0.41010 0.56090 0.31360 0.10100
C 	C 	0.14750 0.61700 0.29550 0.45000
C 	C 	0.56070 0.09520 0.07810 0.40300
C 	C 	0.64350 0.07150 0.07170 -0.14500
C 	C 	0.65720 0.04260 0.00280 0.04800
H 	H 	0.61410 0.03560 0.96220 0.01700
C 	C 	0.73390 0.02380 0.99360 -0.11200
H 	H 	0.74340 0.00450 0.94680 0.07800
C 	C 	0.79620 0.03410 0.05430 0.01900
C 	C 	0.78380 0.06200 0.12440 -0.11100
H 	H 	0.82690 0.06850 0.16500 0.09000
C 	C 	0.70720 0.07980 0.13310 0.05800
H 	H 	0.69750 0.09760 0.18050 0.02100
C 	C 	0.93010 0.08970 0.00630 0.02300
C 	C 	0.91850 0.10140 0.92680 -0.08500
H 	H 	0.89090 0.07090 0.89210 0.07700
C 	C 	0.94770 0.15790 0.89900 0.05400
H 	H 	0.93910 0.16590 0.84500 0.02900
C 	C 	0.99000 0.20370 0.94950 -0.12900
C 	C 	0.00090 0.19160 0.02970 0.05100
H 	H 	0.02850 0.22210 0.06440 0.03600
C 	C 	0.97120 0.13510 0.05850 -0.09000
H 	H 	0.97860 0.12730 0.11250 0.09000
C 	C 	0.02510 0.26400 0.91770 0.41800
Mn	Mn	0.96316 0.66611 0.24731 1.32300
Mn	Mn	0.85661 0.62150 0.05327 1.24900
Mn	Mn	0.08457 0.64787 0.44379 1.26700
S 	S 	0.05321 0.27386 0.27103 0.27000
S 	S 	0.04774 0.07060 0.33559 0.25300
S 	S 	0.60476 0.51533 0.45924 0.27400
O 	O 	0.00250 0.74325 0.32820 -0.48800
O 	O 	0.48100 0.76777 0.65480 -0.45400
O 	O 	0.92860 0.58151 0.17490 -0.53400
O 	O 	0.41370 0.13340 0.25020 -0.46600
O 	O 	0.66339 0.19304 0.25982 -0.44000
O 	O 	0.95580 0.60767 0.35570 -0.50200
O 	O 	0.71150 0.18320 0.38749 -0.51500
O 	O 	0.44010 0.80482 0.53350 -0.47900
O 	O 	0.94580 0.54264 0.06050 -0.44100
O 	O 	0.34670 0.11116 0.13176 -0.52400
O 	O 	0.07930 0.74962 0.44290 -0.49800
O 	O 	0.98910 0.60190 0.48350 -0.48200
O 	O 	0.07640 0.23294 0.21060 -0.21600
O 	O 	0.10330 0.27665 0.34590 -0.21100
O 	O 	0.98100 0.08685 0.27490 -0.20500
O 	O 	0.05580 0.10183 0.41060 -0.21100
O 	O 	0.60960 0.46768 0.52070 -0.22000
O 	O 	0.55840 0.50097 0.38440 -0.22000
C 	C 	0.95670 0.53850 0.13380 0.36800
C 	C 	0.99440 0.47730 0.17140 -0.12900
C 	C 	0.00200 0.46700 0.25100 0.04300
H 	H 	0.99190 0.50140 0.28390 0.02200
C 	C 	0.02460 0.40600 0.28260 -0.09900
H 	H 	0.03050 0.39930 0.33670 0.07500
C 	C 	0.03850 0.35490 0.23340 0.01300
C 	C 	0.03550 0.36530 0.15480 -0.10100
H 	H 	0.04730 0.33130 0.12210 0.07000
C 	C 	0.01460 0.42700 0.12430 0.03000
H 	H 	0.01410 0.43470 0.07090 0.03200
C 	C 	0.95530 0.25060 0.28430 0.02600
C 	C 	0.93870 0.24220 0.35910 -0.10100
H 	H 	0.97900 0.24850 0.40250 0.08100
C 	C 	0.86180 0.22440 0.36920 0.04700
H 	H 	0.85030 0.21810 0.41990 0.01800
C 	C 	0.80120 0.21590 0.30540 -0.14400
C 	C 	0.81890 0.22500 0.23060 0.05500
H 	H 	0.77850 0.22010 0.18710 0.02800
C 	C 	0.89600 0.24140 0.22030 -0.09700
H 	H 	0.90820 0.24620 0.16970 0.07500
C 	C 	0.71840 0.19590 0.31840 0.42200
C 	C 	0.04200 0.77510 0.38160 0.43500
C 	C 	0.04470 0.84910 0.37240 -0.15200
C 	C 	0.01320 0.87630 0.30090 0.06800
H 	H 	0.99050 0.84910 0.25970 0.02500
C 	C 	0.01480 0.94380 0.28960 -0.12000
H 	H 	0.99460 0.96180 0.24060 0.09900
C 	C 	0.04630 0.98380 0.35050 0.03400
C 	C 	0.07950 0.95770 0.42190 -0.11700
H 	H 	0.10230 0.98520 0.46280 0.07400
C 	C 	0.07890 0.88970 0.43250 0.05900
H 	H 	0.10170 0.87160 0.48070 0.01300
C 	C 	0.13750 0.08340 0.29750 0.04600
C 	C 	0.20560 0.10350 0.34610 -0.12200
H 	H 	0.20450 0.11060 0.39940 0.08700
C 	C 	0.27550 0.11330 0.31590 0.08100
H 	H 	0.32250 0.12640 0.34880 0.01800
C 	C 	0.27680 0.10380 0.23730 -0.16700
C 	C 	0.20660 0.08500 0.18900 0.08300
H 	H 	0.20680 0.07950 0.13530 0.02500
C 	C 	0.13690 0.07420 0.21900 -0.12300
H 	H 	0.08990 0.06090 0.18640 0.10100
C 	C 	0.35250 0.11700 0.20450 0.45000
C 	C 	0.93930 0.59520 0.42190 0.40500
C 	C 	0.85650 0.57150 0.42830 -0.14900
C 	C 	0.84280 0.54260 0.49720 0.05600
H 	H 	0.88590 0.53560 0.53780 0.01400
C 	C 	0.76610 0.52380 0.50640 -0.12000
H 	H 	0.75660 0.50450 0.55320 0.08100
C 	C 	0.70380 0.53410 0.44570 0.02400
C 	C 	0.71620 0.56200 0.37560 -0.11500
H 	H 	0.67310 0.56850 0.33500 0.09100
C 	C 	0.79280 0.57980 0.36690 0.06200
H 	H 	0.80250 0.59760 0.31950 0.01900
C 	C 	0.56990 0.58970 0.49370 0.02700
C 	C 	0.58150 0.60140 0.57320 -0.09200
H 	H 	0.60910 0.57090 0.60790 0.07900
C 	C 	0.55230 0.65790 0.60100 0.05900
H 	H 	0.56090 0.66590 0.65500 0.02700
C 	C 	0.51000 0.70370 0.55050 -0.13500
C 	C 	0.49910 0.69160 0.47030 0.05400
H 	H 	0.47150 0.72210 0.43560 0.03400
C 	C 	0.52880 0.63510 0.44150 -0.09300
H 	H 	0.52140 0.62730 0.38750 0.09100
C 	C 	0.47490 0.76400 0.58230 0.42200
