data_crystal

_cell_length_a 16.70940
_cell_length_b 20.28570
_cell_length_c 17.19360
_cell_angle_alpha 90.00000
_cell_angle_beta  99.17800
_cell_angle_gamma 90.00000

_symmetry_space_group_name_	'P 1'
_symmetry_space_group_name_H-M	'P 1'

loop_
_symmetry_equiv_pos_as_xyz
  x,y,z

loop_
_atom_site_label
_atom_site_type_symbol
_atom_site_fract_x
_atom_site_fract_y
_atom_site_fract_z
_atom_site_charge
Mn	Mn	0.24957 0.33421 0.03614 1.32200
Mn	Mn	0.44546 0.37409 0.13934 1.27100
Mn	Mn	0.05220 0.35504 0.91695 1.26500
S 	S 	0.22833 0.72822 0.95422 0.28000
S 	S 	0.34295 0.43047 0.55568 0.25700
S 	S 	0.04115 0.48581 0.39286 0.28200
N 	N 	0.42160 0.44780 0.23310 -0.34200
O 	O 	0.33170 0.75731 0.50590 -0.49700
O 	O 	0.84287 0.23383 0.51927 -0.46200
O 	O 	0.32283 0.41845 0.07214 -0.53400
O 	O 	0.25116 0.36620 0.91521 -0.45700
O 	O 	0.24656 0.80952 0.33953 -0.44200
O 	O 	0.13857 0.39339 0.04128 -0.51500
O 	O 	0.11598 0.80824 0.29913 -0.50100
O 	O 	0.96646 0.19589 0.55410 -0.48500
O 	O 	0.44038 0.45800 0.06000 -0.43700
O 	O 	0.13072 0.38992 0.84886 -0.51600
O 	O 	0.44516 0.75258 0.58750 -0.49600
O 	O 	0.00892 0.39609 0.01387 -0.48200
O 	O 	0.15162 0.72476 0.90673 -0.21400
O 	O 	0.28917 0.76819 0.92893 -0.21900
O 	O 	0.42090 0.40159 0.56410 -0.22600
O 	O 	0.28450 0.41394 0.48892 -0.22300
O 	O 	0.97895 0.53390 0.38913 -0.22300
O 	O 	0.11831 0.50004 0.43597 -0.22800
C 	C 	0.36620 0.46260 0.04840 0.38800
C 	C 	0.32880 0.52470 0.01300 -0.12800
C 	C 	0.24780 0.53480 0.00730 0.03600
H 	H 	0.21400 0.50080 0.01840 0.02400
C 	C 	0.21570 0.59660 0.98480 -0.09400
H 	H 	0.16020 0.60380 0.98010 0.07400
C 	C 	0.26620 0.64690 0.96960 0.01100
C 	C 	0.34700 0.63660 0.97220 -0.09900
H 	H 	0.38060 0.67030 0.95990 0.07200
C 	C 	0.37800 0.57470 0.99360 0.03200
H 	H 	0.43300 0.56680 0.99480 0.03700
C 	C 	0.21650 0.75296 0.05110 0.02000
C 	C 	0.14080 0.75840 0.07010 -0.09700
H 	H 	0.09540 0.75080 0.03240 0.07300
C 	C 	0.13230 0.77550 0.14670 0.03300
H 	H 	0.08040 0.78010 0.15930 0.02300
C 	C 	0.19780 0.78580 0.20410 -0.13600
C 	C 	0.27420 0.78030 0.18390 0.03900
H 	H 	0.31970 0.78730 0.22170 0.03100
C 	C 	0.28330 0.76420 0.10700 -0.08900
H 	H 	0.33490 0.76110 0.09360 0.07100
C 	C 	0.18660 0.80290 0.28780 0.42200
C 	C 	0.20540 0.38250 0.85480 0.43800
C 	C 	0.23950 0.39400 0.77980 -0.15000
C 	C 	0.31960 0.38290 0.77800 0.06700
H 	H 	0.35320 0.36860 0.82330 0.02400
C 	C 	0.35120 0.39250 0.70990 -0.11000
H 	H 	0.40580 0.38430 0.70900 0.08400
C 	C 	0.30210 0.41430 0.64290 0.04100
C 	C 	0.22240 0.42440 0.64200 -0.11000
H 	H 	0.18920 0.43830 0.59630 0.09600
C 	C 	0.19100 0.41370 0.71080 0.06700
H 	H 	0.13580 0.41980 0.71060 0.03000
C 	C 	0.35430 0.51760 0.55670 0.02600
C 	C 	0.29420 0.55670 0.51830 -0.13500
H 	H 	0.24600 0.53800 0.49340 0.10100
C 	C 	0.30520 0.62370 0.51650 0.06900
H 	H 	0.26440 0.65010 0.48950 0.02300
C 	C 	0.37490 0.65260 0.55370 -0.15900
C 	C 	0.43370 0.61260 0.59390 0.06400
H 	H 	0.48090 0.63120 0.62090 0.00700
C 	C 	0.42360 0.54500 0.59460 -0.12300
H 	H 	0.46440 0.51830 0.62100 0.06800
C 	C 	0.38410 0.72650 0.54820 0.44300
C 	C 	0.07200 0.40440 0.06110 0.41200
C 	C 	0.06710 0.42820 0.14290 -0.14300
C 	C 	0.99480 0.45290 0.15940 0.03900
H 	H 	0.95040 0.45640 0.11960 0.02000
C 	C 	0.98840 0.47240 0.23550 -0.10500
H 	H 	0.94000 0.49030 0.24600 0.07500
C 	C 	0.05200 0.46560 0.29470 0.01100
C 	C 	0.12450 0.44170 0.27910 -0.09800
H 	H 	0.16860 0.43750 0.31940 0.06700
C 	C 	0.13150 0.42370 0.20260 0.04400
H 	H 	0.18100 0.40830 0.19170 0.02300
C 	C 	0.00630 0.41200 0.42990 0.02800
C 	C 	0.06000 0.36680 0.47010 -0.09400
H 	H 	0.11560 0.37440 0.47670 0.09200
C 	C 	0.03010 0.31060 0.50000 0.05700
H 	H 	0.06570 0.28040 0.52760 0.03500
C 	C 	0.94850 0.29870 0.48930 -0.13900
C 	C 	0.89700 0.34430 0.44840 0.06300
H 	H 	0.84150 0.33610 0.44030 0.02600
C 	C 	0.92490 0.40100 0.41930 -0.09500
H 	H 	0.88900 0.43160 0.39280 0.08000
C 	C 	0.91660 0.23740 0.52370 0.43700
C 	C 	0.39420 0.47050 0.28410 0.39600
C 	C 	0.36190 0.49360 0.35110 -1.08600
H 	H 	0.30510 0.48340 0.34480 0.35800
H 	H 	0.36920 0.54040 0.35590 0.35500
H 	H 	0.38950 0.47240 0.39770 0.36500
Mn	Mn	0.25043 0.83421 0.46386 1.32100
Mn	Mn	0.05454 0.87409 0.36066 1.27100
Mn	Mn	0.44780 0.85504 0.58305 1.26400
S 	S 	0.27167 0.22822 0.54578 0.27900
S 	S 	0.15705 0.93047 0.94432 0.25700
S 	S 	0.45885 0.98581 0.10714 0.28400
N 	N 	0.07840 0.94780 0.26690 -0.34100
O 	O 	0.16830 0.25731 0.99410 -0.49600
O 	O 	0.65713 0.73383 0.98073 -0.46100
O 	O 	0.17717 0.91845 0.42786 -0.53400
O 	O 	0.24884 0.86620 0.58479 -0.45800
O 	O 	0.25344 0.30952 0.16047 -0.44200
O 	O 	0.36143 0.89339 0.45872 -0.51400
O 	O 	0.38402 0.30824 0.20087 -0.50200
O 	O 	0.53354 0.69589 0.94590 -0.48500
O 	O 	0.05962 0.95800 0.44000 -0.43600
O 	O 	0.36928 0.88992 0.65114 -0.51600
O 	O 	0.05484 0.25258 0.91250 -0.49600
O 	O 	0.49108 0.89609 0.48613 -0.48100
O 	O 	0.34838 0.22476 0.59327 -0.21400
O 	O 	0.21083 0.26819 0.57107 -0.21900
O 	O 	0.07910 0.90159 0.93590 -0.22600
O 	O 	0.21550 0.91394 0.01108 -0.22300
O 	O 	0.52105 0.03390 0.11087 -0.22500
O 	O 	0.38169 0.00004 0.06403 -0.23000
C 	C 	0.13380 0.96260 0.45160 0.38900
C 	C 	0.17120 0.02470 0.48700 -0.12900
C 	C 	0.25220 0.03480 0.49270 0.03800
H 	H 	0.28600 0.00080 0.48160 0.02300
C 	C 	0.28430 0.09660 0.51520 -0.09700
H 	H 	0.33980 0.10380 0.51990 0.07400
C 	C 	0.23380 0.14690 0.53040 0.01200
C 	C 	0.15300 0.13660 0.52780 -0.10000
H 	H 	0.11940 0.17030 0.54010 0.07200
C 	C 	0.12200 0.07470 0.50640 0.03100
H 	H 	0.06700 0.06680 0.50520 0.03700
C 	C 	0.28350 0.25296 0.44890 0.02100
C 	C 	0.35920 0.25840 0.42990 -0.09800
H 	H 	0.40460 0.25080 0.46760 0.07300
C 	C 	0.36770 0.27550 0.35330 0.03400
H 	H 	0.41960 0.28010 0.34070 0.02300
C 	C 	0.30220 0.28580 0.29590 -0.13700
C 	C 	0.22580 0.28030 0.31610 0.04000
H 	H 	0.18030 0.28730 0.27830 0.03100
C 	C 	0.21670 0.26420 0.39300 -0.09000
H 	H 	0.16510 0.26110 0.40640 0.07200
C 	C 	0.31340 0.30290 0.21220 0.42200
C 	C 	0.29460 0.88250 0.64520 0.43800
C 	C 	0.26050 0.89400 0.72020 -0.15100
C 	C 	0.18040 0.88290 0.72200 0.06700
H 	H 	0.14680 0.86860 0.67670 0.02300
C 	C 	0.14880 0.89250 0.79010 -0.11000
H 	H 	0.09420 0.88430 0.79100 0.08400
C 	C 	0.19790 0.91430 0.85710 0.04100
C 	C 	0.27760 0.92440 0.85800 -0.11100
H 	H 	0.31080 0.93830 0.90370 0.09600
C 	C 	0.30900 0.91370 0.78920 0.06700
H 	H 	0.36420 0.91980 0.78940 0.03000
C 	C 	0.14570 0.01760 0.94330 0.02500
C 	C 	0.20580 0.05670 0.98170 -0.13200
H 	H 	0.25400 0.03800 0.00660 0.09800
C 	C 	0.19480 0.12370 0.98350 0.07100
H 	H 	0.23560 0.15010 0.01050 0.02100
C 	C 	0.12510 0.15260 0.94630 -0.16000
C 	C 	0.06630 0.11260 0.90610 0.06400
H 	H 	0.01910 0.13120 0.87910 0.00700
C 	C 	0.07640 0.04500 0.90540 -0.12300
H 	H 	0.03560 0.01830 0.87900 0.06800
C 	C 	0.11590 0.22650 0.95180 0.44300
C 	C 	0.42800 0.90440 0.43890 0.41200
C 	C 	0.43290 0.92820 0.35710 -0.14300
C 	C 	0.50520 0.95290 0.34060 0.03900
H 	H 	0.54960 0.95640 0.38040 0.02100
C 	C 	0.51160 0.97240 0.26450 -0.10400
H 	H 	0.56000 0.99030 0.25400 0.07500
C 	C 	0.44800 0.96560 0.20530 0.01000
C 	C 	0.37550 0.94170 0.22090 -0.09800
H 	H 	0.33140 0.93750 0.18060 0.06700
C 	C 	0.36850 0.92370 0.29740 0.04300
H 	H 	0.31900 0.90830 0.30830 0.02300
C 	C 	0.49370 0.91200 0.07010 0.02700
C 	C 	0.44000 0.86680 0.02990 -0.09300
H 	H 	0.38440 0.87440 0.02330 0.09100
C 	C 	0.46990 0.81060 -0.00000 0.05600
H 	H 	0.43430 0.78040 0.97240 0.03600
C 	C 	0.55150 0.79870 0.01070 -0.14000
C 	C 	0.60300 0.84430 0.05160 0.06300
H 	H 	0.65850 0.83610 0.05970 0.02600
C 	C 	0.57510 0.90100 0.08070 -0.09500
H 	H 	0.61100 0.93160 0.10720 0.08000
C 	C 	0.58340 0.73740 0.97630 0.43800
C 	C 	0.10580 0.97050 0.21590 0.39500
C 	C 	0.13810 0.99360 0.14890 -1.07900
H 	H 	0.19490 0.98340 0.15520 0.35600
H 	H 	0.13080 0.04040 0.14410 0.35200
H 	H 	0.11050 0.97240 0.10230 0.36300
Mn	Mn	0.75043 0.66579 0.96386 1.32200
Mn	Mn	0.55454 0.62591 0.86066 1.27000
Mn	Mn	0.94780 0.64496 0.08305 1.26400
S 	S 	0.77167 0.27178 0.04578 0.27600
S 	S 	0.65705 0.56953 0.44432 0.25700
S 	S 	0.95885 0.51419 0.60714 0.28200
N 	N 	0.57840 0.55220 0.76690 -0.34200
O 	O 	0.66830 0.24269 0.49410 -0.49700
O 	O 	0.15713 0.76617 0.48073 -0.46200
O 	O 	0.67717 0.58155 0.92786 -0.53400
O 	O 	0.74884 0.63380 0.08479 -0.45900
O 	O 	0.75344 0.19048 0.66047 -0.44200
O 	O 	0.86143 0.60661 0.95872 -0.51400
O 	O 	0.88402 0.19176 0.70087 -0.50100
O 	O 	0.03354 0.80411 0.44590 -0.48500
O 	O 	0.55962 0.54200 0.94000 -0.43600
O 	O 	0.86928 0.61008 0.15114 -0.51700
O 	O 	0.55484 0.24742 0.41250 -0.49600
O 	O 	0.99108 0.60391 0.98613 -0.48000
O 	O 	0.84838 0.27524 0.09327 -0.21400
O 	O 	0.71083 0.23181 0.07107 -0.21900
O 	O 	0.57910 0.59841 0.43590 -0.22600
O 	O 	0.71550 0.58606 0.51108 -0.22300
O 	O 	0.02105 0.46610 0.61087 -0.22300
O 	O 	0.88169 0.49996 0.56403 -0.22800
C 	C 	0.63380 0.53740 0.95160 0.38800
C 	C 	0.67120 0.47530 0.98700 -0.12600
C 	C 	0.75220 0.46520 0.99270 0.04000
H 	H 	0.78600 0.49920 0.98160 0.02300
C 	C 	0.78430 0.40340 0.01520 -0.09900
H 	H 	0.83980 0.39620 0.01990 0.07500
C 	C 	0.73380 0.35310 0.03040 0.01200
C 	C 	0.65300 0.36340 0.02780 -0.09900
H 	H 	0.61940 0.32970 0.04010 0.07100
C 	C 	0.62200 0.42530 0.00640 0.02800
H 	H 	0.56700 0.43320 0.00520 0.03800
C 	C 	0.78350 0.24704 0.94890 0.02400
C 	C 	0.85920 0.24160 0.92990 -0.09900
H 	H 	0.90460 0.24920 0.96760 0.07500
C 	C 	0.86770 0.22450 0.85330 0.03600
H 	H 	0.91960 0.21990 0.84070 0.02200
C 	C 	0.80220 0.21420 0.79590 -0.13800
C 	C 	0.72580 0.21970 0.81610 0.04200
H 	H 	0.68030 0.21270 0.77830 0.03000
C 	C 	0.71670 0.23580 0.89300 -0.09200
H 	H 	0.66510 0.23890 0.90640 0.07300
C 	C 	0.81340 0.19710 0.71220 0.42200
C 	C 	0.79460 0.61750 0.14520 0.43800
C 	C 	0.76050 0.60600 0.22020 -0.15100
C 	C 	0.68040 0.61710 0.22200 0.06700
H 	H 	0.64680 0.63140 0.17670 0.02300
C 	C 	0.64880 0.60750 0.29010 -0.11000
H 	H 	0.59420 0.61570 0.29100 0.08400
C 	C 	0.69790 0.58570 0.35710 0.04100
C 	C 	0.77760 0.57560 0.35800 -0.11100
H 	H 	0.81080 0.56170 0.40370 0.09600
C 	C 	0.80900 0.58630 0.28920 0.06700
H 	H 	0.86420 0.58020 0.28940 0.03000
C 	C 	0.64570 0.48240 0.44330 0.02600
C 	C 	0.70580 0.44330 0.48170 -0.13500
H 	H 	0.75400 0.46200 0.50660 0.10100
C 	C 	0.69480 0.37630 0.48350 0.06900
H 	H 	0.73560 0.34990 0.51050 0.02300
C 	C 	0.62510 0.34740 0.44630 -0.15900
C 	C 	0.56630 0.38740 0.40610 0.06400
H 	H 	0.51910 0.36880 0.37910 0.00700
C 	C 	0.57640 0.45500 0.40540 -0.12300
H 	H 	0.53560 0.48170 0.37900 0.06800
C 	C 	0.61590 0.27350 0.45180 0.44300
C 	C 	0.92800 0.59560 0.93890 0.41200
C 	C 	0.93290 0.57180 0.85710 -0.14200
C 	C 	0.00520 0.54710 0.84060 0.03900
H 	H 	0.04960 0.54360 0.88040 0.02100
C 	C 	0.01160 0.52760 0.76450 -0.10400
H 	H 	0.06000 0.50970 0.75400 0.07500
C 	C 	0.94800 0.53440 0.70530 0.01100
C 	C 	0.87550 0.55830 0.72090 -0.09800
H 	H 	0.83140 0.56250 0.68060 0.06700
C 	C 	0.86850 0.57630 0.79740 0.04400
H 	H 	0.81900 0.59170 0.80830 0.02300
C 	C 	0.99370 0.58800 0.57010 0.02700
C 	C 	0.94000 0.63320 0.52990 -0.09400
H 	H 	0.88440 0.62560 0.52330 0.09200
C 	C 	0.96990 0.68940 0.50000 0.05700
H 	H 	0.93430 0.71960 0.47240 0.03500
C 	C 	0.05150 0.70130 0.51070 -0.13900
C 	C 	0.10300 0.65570 0.55160 0.06300
H 	H 	0.15850 0.66390 0.55970 0.02600
C 	C 	0.07510 0.59900 0.58070 -0.09500
H 	H 	0.11100 0.56840 0.60720 0.08000
C 	C 	0.08340 0.76260 0.47630 0.43700
C 	C 	0.60580 0.52950 0.71590 0.39600
C 	C 	0.63810 0.50640 0.64890 -1.08700
H 	H 	0.69490 0.51660 0.65520 0.35800
H 	H 	0.63080 0.45960 0.64410 0.35600
H 	H 	0.61050 0.52760 0.60230 0.36500
Mn	Mn	0.74957 0.16579 0.53614 1.32100
Mn	Mn	0.94546 0.12591 0.63934 1.27100
Mn	Mn	0.55220 0.14496 0.41695 1.26400
S 	S 	0.72833 0.77178 0.45422 0.27900
S 	S 	0.84295 0.06953 0.05568 0.25300
S 	S 	0.54115 0.01419 0.89286 0.28700
N 	N 	0.92160 0.05220 0.73310 -0.34100
O 	O 	0.83170 0.74269 0.00590 -0.49800
O 	O 	0.34287 0.26617 0.01927 -0.46100
O 	O 	0.82283 0.08155 0.57214 -0.53400
O 	O 	0.75116 0.13380 0.41521 -0.45800
O 	O 	0.74656 0.69048 0.83953 -0.44200
O 	O 	0.63857 0.10661 0.54128 -0.51400
O 	O 	0.61598 0.69176 0.79913 -0.50200
O 	O 	0.46646 0.30411 0.05410 -0.48400
O 	O 	0.94038 0.04200 0.56000 -0.43600
O 	O 	0.63072 0.11008 0.34886 -0.51600
O 	O 	0.94516 0.74742 0.08750 -0.49700
O 	O 	0.50892 0.10391 0.51387 -0.48100
O 	O 	0.65162 0.77524 0.40673 -0.21400
O 	O 	0.78917 0.73181 0.42893 -0.21900
O 	O 	0.92090 0.09841 0.06410 -0.22600
O 	O 	0.78450 0.08606 0.98892 -0.22000
O 	O 	0.47895 0.96610 0.88913 -0.22500
O 	O 	0.61831 0.99996 0.93597 -0.23000
C 	C 	0.86620 0.03740 0.54840 0.38900
C 	C 	0.82880 0.97530 0.51300 -0.12900
C 	C 	0.74780 0.96520 0.50730 0.03800
H 	H 	0.71400 0.99920 0.51840 0.02300
C 	C 	0.71570 0.90340 0.48480 -0.09700
H 	H 	0.66020 0.89620 0.48010 0.07400
C 	C 	0.76620 0.85310 0.46960 0.01200
C 	C 	0.84700 0.86340 0.47220 -0.10000
H 	H 	0.88060 0.82970 0.45990 0.07200
C 	C 	0.87800 0.92530 0.49360 0.03100
H 	H 	0.93300 0.93320 0.49480 0.03700
C 	C 	0.71650 0.74704 0.55110 0.02100
C 	C 	0.64080 0.74160 0.57010 -0.09700
H 	H 	0.59540 0.74920 0.53240 0.07300
C 	C 	0.63230 0.72450 0.64670 0.03400
H 	H 	0.58040 0.71990 0.65930 0.02300
C 	C 	0.69780 0.71420 0.70410 -0.13700
C 	C 	0.77420 0.71970 0.68390 0.04000
H 	H 	0.81970 0.71270 0.72170 0.03100
C 	C 	0.78330 0.73580 0.60700 -0.09000
H 	H 	0.83490 0.73890 0.59360 0.07200
C 	C 	0.68660 0.69710 0.78780 0.42200
C 	C 	0.70540 0.11750 0.35480 0.43800
C 	C 	0.73950 0.10600 0.27980 -0.15100
C 	C 	0.81960 0.11710 0.27800 0.06800
H 	H 	0.85320 0.13140 0.32330 0.02300
C 	C 	0.85120 0.10750 0.20990 -0.11100
H 	H 	0.90580 0.11570 0.20900 0.08400
C 	C 	0.80210 0.08570 0.14290 0.04200
C 	C 	0.72240 0.07560 0.14200 -0.11100
H 	H 	0.68920 0.06170 0.09630 0.09600
C 	C 	0.69100 0.08630 0.21080 0.06700
H 	H 	0.63580 0.08020 0.21060 0.03000
C 	C 	0.85430 0.98240 0.05670 0.02700
C 	C 	0.79420 0.94330 0.01830 -0.13700
H 	H 	0.74600 0.96200 0.99340 0.10200
C 	C 	0.80520 0.87630 0.01650 0.06800
H 	H 	0.76440 0.84990 0.98950 0.02400
C 	C 	0.87490 0.84740 0.05370 -0.16000
C 	C 	0.93370 0.88740 0.09390 0.06500
H 	H 	0.98090 0.86880 0.12090 0.00600
C 	C 	0.92360 0.95500 0.09460 -0.12400
H 	H 	0.96440 0.98170 0.12100 0.06900
C 	C 	0.88410 0.77350 0.04820 0.44300
C 	C 	0.57200 0.09560 0.56110 0.41200
C 	C 	0.56710 0.07180 0.64290 -0.14200
C 	C 	0.49480 0.04710 0.65940 0.03900
H 	H 	0.45040 0.04360 0.61960 0.02100
C 	C 	0.48840 0.02760 0.73550 -0.10300
H 	H 	0.44000 0.00970 0.74600 0.07500
C 	C 	0.55200 0.03440 0.79470 0.00900
C 	C 	0.62450 0.05830 0.77910 -0.09700
H 	H 	0.66860 0.06250 0.81940 0.06600
C 	C 	0.63150 0.07630 0.70260 0.04300
H 	H 	0.68100 0.09170 0.69170 0.02300
C 	C 	0.50630 0.08800 0.92990 0.02100
C 	C 	0.56000 0.13320 0.97010 -0.08300
H 	H 	0.61560 0.12560 0.97670 0.08800
C 	C 	0.53010 0.18940 -0.00000 0.04300
H 	H 	0.56570 0.21960 0.02760 0.03900
C 	C 	0.44850 0.20130 0.98930 -0.12800
C 	C 	0.39700 0.15570 0.94840 0.05500
H 	H 	0.34150 0.16390 0.94030 0.03000
C 	C 	0.42490 0.09900 0.91930 -0.08700
H 	H 	0.38900 0.06840 0.89280 0.07700
C 	C 	0.41660 0.26260 0.02370 0.43200
C 	C 	0.89420 0.02950 0.78410 0.39500
C 	C 	0.86190 0.00640 0.85110 -1.08100
H 	H 	0.80510 0.01660 0.84480 0.35700
H 	H 	0.86920 0.95960 0.85590 0.35300
H 	H 	0.88950 0.02760 0.89770 0.36400
