data_crystal

_cell_length_a 16.70940
_cell_length_b 20.28570
_cell_length_c 17.19360
_cell_angle_alpha 90.00000
_cell_angle_beta  99.17800
_cell_angle_gamma 90.00000

_symmetry_space_group_name_	'P 1'
_symmetry_space_group_name_H-M	'P 1'

loop_
_symmetry_equiv_pos_as_xyz
  x,y,z

loop_
_atom_site_label
_atom_site_type_symbol
_atom_site_fract_x
_atom_site_fract_y
_atom_site_fract_z
_atom_site_charge
Mn	Mn	0.03628 0.83793 0.24945 1.31800
Mn	Mn	0.15001 0.88419 0.44488 1.24500
Mn	Mn	0.91130 0.85701 0.05124 1.26200
S 	S 	0.90031 0.51886 0.54224 0.27000
S 	S 	0.56093 0.72651 0.27533 0.26800
S 	S 	0.95570 0.43167 0.15342 0.25900
O 	O 	0.99410 0.75864 0.17317 -0.47200
O 	O 	0.01953 0.77519 0.34582 -0.44100
O 	O 	0.42533 0.42244 0.17897 -0.52400
O 	O 	0.58843 0.37213 0.25176 -0.44300
O 	O 	0.16433 0.80811 0.25509 -0.42200
O 	O 	0.53770 0.60645 0.63659 -0.49900
O 	O 	0.21094 0.81666 0.38489 -0.49500
O 	O 	0.06261 0.81211 0.46854 -0.45900
O 	O 	0.43616 0.46447 0.06259 -0.43500
O 	O 	0.66015 0.39016 0.37130 -0.50000
O 	O 	0.92281 0.75500 0.05320 -0.48600
O 	O 	0.50828 0.59718 0.50767 -0.45600
O 	O 	0.89838 0.47131 0.47979 -0.21500
O 	O 	0.94559 0.50506 0.61910 -0.21600
O 	O 	0.60942 0.72474 0.35235 -0.20700
O 	O 	0.58594 0.76704 0.21455 -0.21500
O 	O 	0.94500 0.40065 0.07738 -0.21000
O 	O 	0.02477 0.41509 0.21197 -0.20600
C 	C 	0.02720 0.77126 0.41920 0.39100
C 	C 	0.99236 0.70996 0.45160 -0.10800
C 	C 	0.95090 0.66433 0.40000 0.03400
H 	H 	0.94230 0.67300 0.34620 0.03600
C 	C 	0.92210 0.60611 0.42745 -0.07400
H 	H 	0.89540 0.57520 0.39260 0.07400
C 	C 	0.93378 0.59481 0.50816 0.02000
C 	C 	0.97360 0.64026 0.56110 -0.07800
H 	H 	0.98050 0.63220 0.61500 0.08400
C 	C 	0.00280 0.69758 0.53246 0.03100
H 	H 	0.02980 0.72820 0.56740 0.04100
C 	C 	0.79903 0.53564 0.55369 0.01000
C 	C 	0.73800 0.52584 0.48961 -0.10000
H 	H 	0.74990 0.50810 0.44290 0.07400
C 	C 	0.65950 0.54287 0.49650 0.02500
H 	H 	0.61790 0.53630 0.45440 0.02300
C 	C 	0.64230 0.56993 0.56688 -0.11900
C 	C 	0.70360 0.57713 0.63140 0.03300
H 	H 	0.69140 0.59310 0.67890 0.02500
C 	C 	0.78300 0.56052 0.62487 -0.09400
H 	H 	0.82450 0.56590 0.66730 0.08300
C 	C 	0.55770 0.59244 0.57120 0.36400
C 	C 	0.21900 0.80415 0.31427 0.38000
C 	C 	0.30295 0.78287 0.30272 -0.11300
C 	C 	0.36199 0.77183 0.36908 0.02000
H 	H 	0.34820 0.77630 0.41910 0.02400
C 	C 	0.44030 0.75449 0.36130 -0.08300
H 	H 	0.47890 0.74670 0.40560 0.07300
C 	C 	0.46049 0.74890 0.28588 0.01400
C 	C 	0.40250 0.75976 0.21922 -0.07700
H 	H 	0.41660 0.75610 0.16920 0.06800
C 	C 	0.32430 0.77599 0.22774 0.02800
H 	H 	0.28540 0.78240 0.18330 0.03700
C 	C 	0.54792 0.64497 0.23835 0.00300
C 	C 	0.53090 0.59451 0.28840 -0.08400
H 	H 	0.53620 0.60150 0.34240 0.07100
C 	C 	0.50600 0.53401 0.25630 0.01900
H 	H 	0.49460 0.49980 0.28880 0.02800
C 	C 	0.49810 0.52417 0.17502 -0.10300
C 	C 	0.52250 0.57300 0.12680 0.01100
H 	H 	0.52250 0.56460 0.07360 0.03600
C 	C 	0.54690 0.63402 0.15820 -0.08500
H 	H 	0.56230 0.66720 0.12630 0.06400
C 	C 	0.45290 0.46560 0.13680 0.34300
C 	C 	0.95780 0.72802 0.11575 0.41000
C 	C 	0.95602 0.65420 0.12190 -0.13300
C 	C 	0.92480 0.61395 0.05890 0.04100
H 	H 	0.90380 0.63270 0.01060 0.02000
C 	C 	0.92480 0.54598 0.06760 -0.10300
H 	H 	0.90390 0.51920 0.02540 0.06900
C 	C 	0.95620 0.51831 0.13960 0.01900
C 	C 	0.98740 0.55792 0.20380 -0.10700
H 	H 	0.00790 0.53910 0.25220 0.09500
C 	C 	0.98720 0.62526 0.19411 0.04800
H 	H 	0.00830 0.65200 0.23640 0.03200
C 	C 	0.86680 0.41882 0.19560 0.02200
C 	C 	0.79510 0.40180 0.14760 -0.08800
H 	H 	0.79370 0.39670 0.09360 0.07300
C 	C 	0.72590 0.39240 0.18060 0.03800
H 	H 	0.67750 0.38150 0.14850 0.03200
C 	C 	0.72770 0.39912 0.26186 -0.12100
C 	C 	0.80000 0.41584 0.30905 0.04300
H 	H 	0.80200 0.42000 0.36320 0.03900
C 	C 	0.86960 0.42646 0.27620 -0.08700
H 	H 	0.91770 0.43860 0.30790 0.09000
C 	C 	0.65200 0.38619 0.29700 0.40400
Mn	Mn	0.46372 0.33793 0.25055 1.31700
Mn	Mn	0.34999 0.38419 0.05512 1.24400
Mn	Mn	0.58870 0.35701 0.44876 1.26100
S 	S 	0.59969 0.01886 0.95776 0.26900
S 	S 	0.93907 0.22651 0.22467 0.26600
S 	S 	0.54430 0.93167 0.34658 0.25900
O 	O 	0.50590 0.25864 0.32683 -0.47300
O 	O 	0.48047 0.27519 0.15418 -0.44200
O 	O 	0.07467 0.92244 0.32103 -0.52300
O 	O 	0.91157 0.87213 0.24824 -0.44300
O 	O 	0.33567 0.30811 0.24491 -0.42200
O 	O 	0.96230 0.10645 0.86341 -0.49900
O 	O 	0.28906 0.31666 0.11511 -0.49500
O 	O 	0.43739 0.31211 0.03146 -0.45900
O 	O 	0.06384 0.96447 0.43741 -0.43500
O 	O 	0.83985 0.89016 0.12870 -0.50000
O 	O 	0.57719 0.25500 0.44680 -0.48600
O 	O 	0.99172 0.09718 0.99233 -0.45600
O 	O 	0.60162 0.97131 0.02021 -0.21500
O 	O 	0.55441 0.00506 0.88090 -0.21600
O 	O 	0.89058 0.22474 0.14765 -0.20700
O 	O 	0.91406 0.26704 0.28545 -0.21500
O 	O 	0.55500 0.90065 0.42262 -0.21000
O 	O 	0.47523 0.91509 0.28803 -0.20600
C 	C 	0.47280 0.27126 0.08080 0.39200
C 	C 	0.50764 0.20996 0.04840 -0.10900
C 	C 	0.54910 0.16433 0.10000 0.03500
H 	H 	0.55770 0.17300 0.15380 0.03600
C 	C 	0.57790 0.10611 0.07255 -0.07500
H 	H 	0.60460 0.07520 0.10740 0.07400
C 	C 	0.56622 0.09481 0.99184 0.02000
C 	C 	0.52640 0.14026 0.93890 -0.08000
H 	H 	0.51950 0.13220 0.88500 0.08400
C 	C 	0.49720 0.19758 0.96754 0.03300
H 	H 	0.47020 0.22820 0.93260 0.04000
C 	C 	0.70097 0.03564 0.94631 0.01100
C 	C 	0.76200 0.02584 0.01039 -0.10000
H 	H 	0.75010 0.00810 0.05710 0.07400
C 	C 	0.84050 0.04287 0.00350 0.02400
H 	H 	0.88210 0.03630 0.04560 0.02300
C 	C 	0.85770 0.06993 0.93312 -0.11900
C 	C 	0.79640 0.07713 0.86860 0.03300
H 	H 	0.80860 0.09310 0.82110 0.02500
C 	C 	0.71700 0.06052 0.87513 -0.09400
H 	H 	0.67550 0.06590 0.83270 0.08300
C 	C 	0.94230 0.09244 0.92880 0.36400
C 	C 	0.28100 0.30415 0.18573 0.38000
C 	C 	0.19705 0.28287 0.19728 -0.11300
C 	C 	0.13801 0.27183 0.13092 0.02000
H 	H 	0.15180 0.27630 0.08090 0.02400
C 	C 	0.05970 0.25449 0.13870 -0.08300
H 	H 	0.02110 0.24670 0.09440 0.07400
C 	C 	0.03951 0.24890 0.21412 0.01500
C 	C 	0.09750 0.25976 0.28078 -0.07800
H 	H 	0.08340 0.25610 0.33080 0.06800
C 	C 	0.17570 0.27599 0.27226 0.02900
H 	H 	0.21460 0.28240 0.31670 0.03700
C 	C 	0.95208 0.14497 0.26165 0.00100
C 	C 	0.96910 0.09451 0.21160 -0.08100
H 	H 	0.96380 0.10150 0.15760 0.07000
C 	C 	0.99400 0.03401 0.24370 0.01500
H 	H 	0.00540 0.99980 0.21120 0.02900
C 	C 	0.00190 0.02417 0.32498 -0.09800
C 	C 	0.97750 0.07300 0.37320 0.00700
H 	H 	0.97750 0.06460 0.42640 0.03700
C 	C 	0.95310 0.13402 0.34180 -0.08200
H 	H 	0.93770 0.16720 0.37370 0.06300
C 	C 	0.04710 0.96560 0.36320 0.34100
C 	C 	0.54220 0.22802 0.38425 0.41000
C 	C 	0.54398 0.15420 0.37810 -0.13300
C 	C 	0.57520 0.11395 0.44110 0.04100
H 	H 	0.59620 0.13270 0.48940 0.02100
C 	C 	0.57520 0.04598 0.43240 -0.10200
H 	H 	0.59610 0.01920 0.47460 0.06800
C 	C 	0.54380 0.01831 0.36040 0.01800
C 	C 	0.51260 0.05792 0.29620 -0.10600
H 	H 	0.49210 0.03910 0.24780 0.09500
C 	C 	0.51280 0.12526 0.30589 0.04700
H 	H 	0.49170 0.15200 0.26360 0.03200
C 	C 	0.63320 0.91882 0.30440 0.02100
C 	C 	0.70490 0.90180 0.35240 -0.08800
H 	H 	0.70630 0.89670 0.40640 0.07300
C 	C 	0.77410 0.89240 0.31940 0.03800
H 	H 	0.82250 0.88150 0.35150 0.03200
C 	C 	0.77230 0.89912 0.23814 -0.12100
C 	C 	0.70000 0.91584 0.19095 0.04300
H 	H 	0.69800 0.92000 0.13680 0.03900
C 	C 	0.63040 0.92646 0.22380 -0.08700
H 	H 	0.58230 0.93860 0.19210 0.09000
C 	C 	0.84800 0.88619 0.20300 0.40400
Mn	Mn	0.96372 0.16207 0.75055 1.31700
Mn	Mn	0.84999 0.11581 0.55512 1.24400
Mn	Mn	0.08870 0.14299 0.94876 1.26100
S 	S 	0.09969 0.48114 0.45776 0.26900
S 	S 	0.43907 0.27349 0.72467 0.26700
S 	S 	0.04430 0.56833 0.84658 0.25800
O 	O 	0.00590 0.24136 0.82683 -0.47300
O 	O 	0.98047 0.22481 0.65418 -0.44200
O 	O 	0.57467 0.57756 0.82103 -0.52400
O 	O 	0.41157 0.62787 0.74824 -0.44300
O 	O 	0.83567 0.19189 0.74491 -0.42200
O 	O 	0.46230 0.39355 0.36341 -0.49900
O 	O 	0.78906 0.18334 0.61511 -0.49500
O 	O 	0.93739 0.18789 0.53146 -0.45900
O 	O 	0.56384 0.53553 0.93741 -0.43500
O 	O 	0.33985 0.60984 0.62870 -0.50000
O 	O 	0.07719 0.24500 0.94680 -0.48600
O 	O 	0.49172 0.40282 0.49233 -0.45600
O 	O 	0.10162 0.52869 0.52021 -0.21500
O 	O 	0.05441 0.49494 0.38090 -0.21600
O 	O 	0.39058 0.27526 0.64765 -0.20700
O 	O 	0.41406 0.23296 0.78545 -0.21500
O 	O 	0.05500 0.59935 0.92262 -0.21000
O 	O 	0.97523 0.58491 0.78803 -0.20600
C 	C 	0.97280 0.22874 0.58080 0.39100
C 	C 	0.00764 0.29004 0.54840 -0.10800
C 	C 	0.04910 0.33567 0.60000 0.03400
H 	H 	0.05770 0.32700 0.65380 0.03600
C 	C 	0.07790 0.39389 0.57255 -0.07400
H 	H 	0.10460 0.42480 0.60740 0.07400
C 	C 	0.06622 0.40519 0.49184 0.02000
C 	C 	0.02640 0.35974 0.43890 -0.07800
H 	H 	0.01950 0.36780 0.38500 0.08400
C 	C 	0.99720 0.30242 0.46754 0.03100
H 	H 	0.97020 0.27180 0.43260 0.04100
C 	C 	0.20097 0.46436 0.44631 0.01000
C 	C 	0.26200 0.47416 0.51039 -0.10000
H 	H 	0.25010 0.49190 0.55710 0.07400
C 	C 	0.34050 0.45713 0.50350 0.02500
H 	H 	0.38210 0.46370 0.54560 0.02300
C 	C 	0.35770 0.43007 0.43312 -0.11900
C 	C 	0.29640 0.42287 0.36860 0.03300
H 	H 	0.30860 0.40690 0.32110 0.02500
C 	C 	0.21700 0.43948 0.37513 -0.09400
H 	H 	0.17550 0.43410 0.33270 0.08300
C 	C 	0.44230 0.40756 0.42880 0.36400
C 	C 	0.78100 0.19585 0.68573 0.38000
C 	C 	0.69705 0.21713 0.69728 -0.11300
C 	C 	0.63801 0.22817 0.63092 0.02000
H 	H 	0.65180 0.22370 0.58090 0.02400
C 	C 	0.55970 0.24551 0.63870 -0.08300
H 	H 	0.52110 0.25330 0.59440 0.07300
C 	C 	0.53951 0.25110 0.71412 0.01400
C 	C 	0.59750 0.24024 0.78078 -0.07700
H 	H 	0.58340 0.24390 0.83080 0.06800
C 	C 	0.67570 0.22401 0.77226 0.02800
H 	H 	0.71460 0.21760 0.81670 0.03700
C 	C 	0.45208 0.35503 0.76165 0.00300
C 	C 	0.46910 0.40549 0.71160 -0.08400
H 	H 	0.46380 0.39850 0.65760 0.07100
C 	C 	0.49400 0.46599 0.74370 0.01900
H 	H 	0.50540 0.50020 0.71120 0.02800
C 	C 	0.50190 0.47583 0.82498 -0.10300
C 	C 	0.47750 0.42700 0.87320 0.01100
H 	H 	0.47750 0.43540 0.92640 0.03600
C 	C 	0.45310 0.36598 0.84180 -0.08500
H 	H 	0.43770 0.33280 0.87370 0.06400
C 	C 	0.54710 0.53440 0.86320 0.34300
C 	C 	0.04220 0.27198 0.88425 0.41000
C 	C 	0.04398 0.34580 0.87810 -0.13300
C 	C 	0.07520 0.38605 0.94110 0.04100
H 	H 	0.09620 0.36730 0.98940 0.02000
C 	C 	0.07520 0.45402 0.93240 -0.10300
H 	H 	0.09610 0.48080 0.97460 0.06900
C 	C 	0.04380 0.48169 0.86040 0.01900
C 	C 	0.01260 0.44208 0.79620 -0.10700
H 	H 	0.99210 0.46090 0.74780 0.09500
C 	C 	0.01280 0.37474 0.80589 0.04800
H 	H 	0.99170 0.34800 0.76360 0.03200
C 	C 	0.13320 0.58118 0.80440 0.02200
C 	C 	0.20490 0.59820 0.85240 -0.08800
H 	H 	0.20630 0.60330 0.90640 0.07300
C 	C 	0.27410 0.60760 0.81940 0.03800
H 	H 	0.32250 0.61850 0.85150 0.03200
C 	C 	0.27230 0.60088 0.73814 -0.12100
C 	C 	0.20000 0.58416 0.69095 0.04300
H 	H 	0.19800 0.58000 0.63680 0.03900
C 	C 	0.13040 0.57354 0.72380 -0.08700
H 	H 	0.08230 0.56140 0.69210 0.09000
C 	C 	0.34800 0.61381 0.70300 0.40400
Mn	Mn	0.53628 0.66207 0.74945 1.31700
Mn	Mn	0.65001 0.61581 0.94488 1.24400
Mn	Mn	0.41130 0.64299 0.55124 1.26100
S 	S 	0.40031 0.98114 0.04224 0.26900
S 	S 	0.06093 0.77349 0.77533 0.26600
S 	S 	0.45570 0.06833 0.65342 0.25900
O 	O 	0.49410 0.74136 0.67317 -0.47300
O 	O 	0.51953 0.72481 0.84582 -0.44200
O 	O 	0.92533 0.07756 0.67897 -0.52300
O 	O 	0.08843 0.12787 0.75176 -0.44300
O 	O 	0.66433 0.69189 0.75509 -0.42200
O 	O 	0.03770 0.89355 0.13659 -0.49900
O 	O 	0.71094 0.68334 0.88489 -0.49500
O 	O 	0.56261 0.68789 0.96854 -0.45900
O 	O 	0.93616 0.03553 0.56259 -0.43500
O 	O 	0.16015 0.10984 0.87130 -0.50000
O 	O 	0.42281 0.74500 0.55320 -0.48600
O 	O 	0.00828 0.90282 0.00767 -0.45600
O 	O 	0.39838 0.02869 0.97979 -0.21500
O 	O 	0.44559 0.99494 0.11910 -0.21600
O 	O 	0.10942 0.77526 0.85235 -0.20700
O 	O 	0.08594 0.73296 0.71455 -0.21500
O 	O 	0.44500 0.09935 0.57738 -0.21000
O 	O 	0.52477 0.08491 0.71197 -0.20600
C 	C 	0.52720 0.72874 0.91920 0.39200
C 	C 	0.49236 0.79004 0.95160 -0.10900
C 	C 	0.45090 0.83567 0.90000 0.03500
H 	H 	0.44230 0.82700 0.84620 0.03600
C 	C 	0.42210 0.89389 0.92745 -0.07500
H 	H 	0.39540 0.92480 0.89260 0.07400
C 	C 	0.43378 0.90519 0.00816 0.02000
C 	C 	0.47360 0.85974 0.06110 -0.08000
H 	H 	0.48050 0.86780 0.11500 0.08400
C 	C 	0.50280 0.80242 0.03246 0.03300
H 	H 	0.52980 0.77180 0.06740 0.04000
C 	C 	0.29903 0.96436 0.05369 0.01100
C 	C 	0.23800 0.97416 0.98961 -0.10000
H 	H 	0.24990 0.99190 0.94290 0.07400
C 	C 	0.15950 0.95713 0.99650 0.02400
H 	H 	0.11790 0.96370 0.95440 0.02300
C 	C 	0.14230 0.93007 0.06688 -0.11900
C 	C 	0.20360 0.92287 0.13140 0.03300
H 	H 	0.19140 0.90690 0.17890 0.02500
C 	C 	0.28300 0.93948 0.12487 -0.09400
H 	H 	0.32450 0.93410 0.16730 0.08300
C 	C 	0.05770 0.90756 0.07120 0.36400
C 	C 	0.71900 0.69585 0.81427 0.38000
C 	C 	0.80295 0.71713 0.80272 -0.11300
C 	C 	0.86199 0.72817 0.86908 0.02000
H 	H 	0.84820 0.72370 0.91910 0.02400
C 	C 	0.94030 0.74551 0.86130 -0.08300
H 	H 	0.97890 0.75330 0.90560 0.07400
C 	C 	0.96049 0.75110 0.78588 0.01500
C 	C 	0.90250 0.74024 0.71922 -0.07800
H 	H 	0.91660 0.74390 0.66920 0.06800
C 	C 	0.82430 0.72401 0.72774 0.02900
H 	H 	0.78540 0.71760 0.68330 0.03700
C 	C 	0.04792 0.85503 0.73835 0.00100
C 	C 	0.03090 0.90549 0.78840 -0.08100
H 	H 	0.03620 0.89850 0.84240 0.07000
C 	C 	0.00600 0.96599 0.75630 0.01500
H 	H 	0.99460 0.00020 0.78880 0.02900
C 	C 	0.99810 0.97583 0.67502 -0.09800
C 	C 	0.02250 0.92700 0.62680 0.00700
H 	H 	0.02250 0.93540 0.57360 0.03700
C 	C 	0.04690 0.86598 0.65820 -0.08200
H 	H 	0.06230 0.83280 0.62630 0.06300
C 	C 	0.95290 0.03440 0.63680 0.34100
C 	C 	0.45780 0.77198 0.61575 0.41000
C 	C 	0.45602 0.84580 0.62190 -0.13300
C 	C 	0.42480 0.88605 0.55890 0.04100
H 	H 	0.40380 0.86730 0.51060 0.02100
C 	C 	0.42480 0.95402 0.56760 -0.10200
H 	H 	0.40390 0.98080 0.52540 0.06800
C 	C 	0.45620 0.98169 0.63960 0.01800
C 	C 	0.48740 0.94208 0.70380 -0.10600
H 	H 	0.50790 0.96090 0.75220 0.09500
C 	C 	0.48720 0.87474 0.69411 0.04700
H 	H 	0.50830 0.84800 0.73640 0.03200
C 	C 	0.36680 0.08118 0.69560 0.02100
C 	C 	0.29510 0.09820 0.64760 -0.08800
H 	H 	0.29370 0.10330 0.59360 0.07300
C 	C 	0.22590 0.10760 0.68060 0.03800
H 	H 	0.17750 0.11850 0.64850 0.03200
C 	C 	0.22770 0.10088 0.76186 -0.12100
C 	C 	0.30000 0.08416 0.80905 0.04300
H 	H 	0.30200 0.08000 0.86320 0.03900
C 	C 	0.36960 0.07354 0.77620 -0.08700
H 	H 	0.41770 0.06140 0.80790 0.09000
C 	C 	0.15200 0.11381 0.79700 0.40400
