data_crystal

_cell_length_a 16.70940
_cell_length_b 20.28570
_cell_length_c 17.19360
_cell_angle_alpha 90.00000
_cell_angle_beta  99.17800
_cell_angle_gamma 90.00000

_symmetry_space_group_name_	'P 1'
_symmetry_space_group_name_H-M	'P 1'

loop_
_symmetry_equiv_pos_as_xyz
  x,y,z

loop_
_atom_site_label
_atom_site_type_symbol
_atom_site_fract_x
_atom_site_fract_y
_atom_site_fract_z
_atom_site_charge
Mn	Mn	0.03479 0.16486 0.24894 1.32000
Mn	Mn	0.14082 0.12122 0.44521 1.24900
Mn	Mn	0.91367 0.14359 0.05064 1.26300
S 	S 	0.89571 0.48405 0.54291 0.26700
S 	S 	0.55085 0.27200 0.27372 0.27000
S 	S 	0.94806 0.56815 0.15331 0.25400
O 	O 	0.99510 0.24263 0.16860 -0.47900
O 	O 	0.43020 0.58019 0.17900 -0.52500
O 	O 	0.58840 0.63260 0.25290 -0.46100
O 	O 	0.01770 0.23113 0.34310 -0.44200
O 	O 	0.16140 0.19097 0.25440 -0.43500
O 	O 	0.53880 0.39384 0.63760 -0.49200
O 	O 	0.20490 0.18420 0.38470 -0.50100
O 	O 	0.05700 0.19399 0.46680 -0.47000
O 	O 	0.44420 0.54093 0.06250 -0.43800
O 	O 	0.65680 0.61031 0.37190 -0.50600
O 	O 	0.91670 0.24588 0.05310 -0.49100
O 	O 	0.51120 0.39990 0.50780 -0.46100
O 	O 	0.89290 0.53225 0.48080 -0.21600
O 	O 	0.94010 0.49776 0.61990 -0.21600
O 	O 	0.59900 0.27421 0.35070 -0.20800
O 	O 	0.57610 0.23217 0.21290 -0.21600
O 	O 	0.93750 0.59850 0.07700 -0.20900
O 	O 	0.01700 0.58450 0.21220 -0.20300
C 	C 	0.02390 0.23460 0.41630 0.39600
C 	C 	0.99020 0.29590 0.44910 -0.11000
C 	C 	0.94930 0.34170 0.39830 0.03800
H 	H 	0.94130 0.33400 0.34430 0.03400
C 	C 	0.92030 0.39870 0.42700 -0.07600
H 	H 	0.89350 0.42980 0.39240 0.07400
C 	C 	0.93100 0.40980 0.50750 0.02000
C 	C 	0.97060 0.36500 0.55990 -0.07900
H 	H 	0.97690 0.37260 0.61390 0.08500
C 	C 	0.00090 0.30770 0.53050 0.03300
H 	H 	0.02850 0.27710 0.56510 0.04200
C 	C 	0.79590 0.46570 0.55420 0.01700
C 	C 	0.73590 0.47340 0.48900 -0.10800
H 	H 	0.74780 0.49060 0.44200 0.07700
C 	C 	0.65880 0.45470 0.49630 0.03600
H 	H 	0.61730 0.45880 0.45360 0.02200
C 	C 	0.64200 0.42960 0.56790 -0.13300
C 	C 	0.70170 0.42520 0.63240 0.04700
H 	H 	0.68960 0.41060 0.68050 0.02200
C 	C 	0.78000 0.44280 0.62520 -0.10400
H 	H 	0.82150 0.43910 0.66790 0.08600
C 	C 	0.55950 0.40660 0.57180 0.36700
C 	C 	0.21450 0.19480 0.31350 0.39600
C 	C 	0.29760 0.21430 0.30220 -0.12700
C 	C 	0.35580 0.22540 0.36880 0.03200
H 	H 	0.34200 0.22090 0.41880 0.02200
C 	C 	0.43220 0.24270 0.36030 -0.09000
H 	H 	0.47080 0.25080 0.40450 0.07400
C 	C 	0.45290 0.24820 0.28510 0.01700
C 	C 	0.39570 0.23710 0.21810 -0.08500
H 	H 	0.40970 0.24120 0.16810 0.07100
C 	C 	0.31840 0.22010 0.22730 0.04100
H 	H 	0.27950 0.21240 0.18320 0.03400
C 	C 	0.53710 0.35300 0.23550 0.00300
C 	C 	0.52200 0.40360 0.28760 -0.08300
H 	H 	0.52640 0.39620 0.34150 0.07000
C 	C 	0.50030 0.46490 0.25520 0.01800
H 	H 	0.48990 0.49940 0.28760 0.03000
C 	C 	0.49410 0.47500 0.17390 -0.10500
C 	C 	0.51350 0.42590 0.12540 0.01100
H 	H 	0.51200 0.43400 0.07190 0.03700
C 	C 	0.53550 0.36390 0.15630 -0.08600
H 	H 	0.54890 0.33040 0.12390 0.06500
C 	C 	0.45610 0.53680 0.13690 0.34800
C 	C 	0.95420 0.27280 0.11420 0.42400
C 	C 	0.95020 0.34610 0.12240 -0.14200
C 	C 	0.91660 0.38640 0.05960 0.04900
H 	H 	0.89420 0.36760 0.01170 0.01600
C 	C 	0.91660 0.45430 0.06850 -0.10800
H 	H 	0.89540 0.48130 0.02650 0.07200
C 	C 	0.94820 0.48140 0.14020 0.02500
C 	C 	0.98160 0.44210 0.20390 -0.11300
H 	H 	0.00270 0.46100 0.25210 0.09800
C 	C 	0.98260 0.37470 0.19370 0.05700
H 	H 	0.00530 0.34800 0.23540 0.03000
C 	C 	0.86160 0.58280 0.19540 0.03100
C 	C 	0.79210 0.60260 0.14930 -0.10600
H 	H 	0.79110 0.60910 0.09560 0.08100
C 	C 	0.72430 0.61290 0.18170 0.06000
H 	H 	0.67670 0.62580 0.14970 0.02500
C 	C 	0.72490 0.60430 0.26240 -0.14300
C 	C 	0.79540 0.58540 0.30930 0.06100
H 	H 	0.79690 0.58020 0.36320 0.03200
C 	C 	0.86350 0.57420 0.27640 -0.10000
H 	H 	0.91110 0.56080 0.30790 0.09300
C 	C 	0.65000 0.61670 0.29770 0.42700
Mn	Mn	0.46521 0.66486 0.25106 1.32000
Mn	Mn	0.35918 0.62122 0.05479 1.24900
Mn	Mn	0.58633 0.64359 0.44936 1.26300
S 	S 	0.60429 0.98405 0.95709 0.26600
S 	S 	0.94915 0.77200 0.22628 0.26900
S 	S 	0.55194 0.06815 0.34669 0.25500
O 	O 	0.50490 0.74263 0.33140 -0.47900
O 	O 	0.06980 0.08019 0.32100 -0.52500
O 	O 	0.91160 0.13260 0.24710 -0.46100
O 	O 	0.48230 0.73113 0.15690 -0.44200
O 	O 	0.33860 0.69097 0.24560 -0.43600
O 	O 	0.96120 0.89384 0.86240 -0.49200
O 	O 	0.29510 0.68420 0.11530 -0.50100
O 	O 	0.44300 0.69399 0.03320 -0.47000
O 	O 	0.05580 0.04093 0.43750 -0.43800
O 	O 	0.84320 0.11031 0.12810 -0.50600
O 	O 	0.58330 0.74588 0.44690 -0.49100
O 	O 	0.98880 0.89990 0.99220 -0.46100
O 	O 	0.60710 0.03225 0.01920 -0.21600
O 	O 	0.55990 0.99776 0.88010 -0.21600
O 	O 	0.90100 0.77421 0.14930 -0.20800
O 	O 	0.92390 0.73217 0.28710 -0.21600
O 	O 	0.56250 0.09850 0.42300 -0.20900
O 	O 	0.48300 0.08450 0.28780 -0.20300
C 	C 	0.47610 0.73460 0.08370 0.39600
C 	C 	0.50980 0.79590 0.05090 -0.11100
C 	C 	0.55070 0.84170 0.10170 0.03900
H 	H 	0.55870 0.83400 0.15570 0.03400
C 	C 	0.57970 0.89870 0.07300 -0.07700
H 	H 	0.60650 0.92980 0.10760 0.07400
C 	C 	0.56900 0.90980 0.99250 0.02100
C 	C 	0.52940 0.86500 0.94010 -0.08000
H 	H 	0.52310 0.87260 0.88610 0.08500
C 	C 	0.49910 0.80770 0.96950 0.03400
H 	H 	0.47150 0.77710 0.93490 0.04100
C 	C 	0.70410 0.96570 0.94580 0.01700
C 	C 	0.76410 0.97340 0.01100 -0.10900
H 	H 	0.75220 0.99060 0.05800 0.07700
C 	C 	0.84120 0.95470 0.00370 0.03500
H 	H 	0.88270 0.95880 0.04640 0.02200
C 	C 	0.85800 0.92960 0.93210 -0.13200
C 	C 	0.79830 0.92520 0.86760 0.04700
H 	H 	0.81040 0.91060 0.81950 0.02200
C 	C 	0.72000 0.94280 0.87480 -0.10400
H 	H 	0.67850 0.93910 0.83210 0.08600
C 	C 	0.94050 0.90660 0.92820 0.36600
C 	C 	0.28550 0.69480 0.18650 0.39600
C 	C 	0.20240 0.71430 0.19780 -0.12700
C 	C 	0.14420 0.72540 0.13120 0.03200
H 	H 	0.15800 0.72090 0.08120 0.02200
C 	C 	0.06780 0.74270 0.13970 -0.09000
H 	H 	0.02920 0.75080 0.09550 0.07400
C 	C 	0.04710 0.74820 0.21490 0.01800
C 	C 	0.10430 0.73710 0.28190 -0.08500
H 	H 	0.09030 0.74120 0.33190 0.07200
C 	C 	0.18160 0.72010 0.27270 0.04100
H 	H 	0.22050 0.71240 0.31680 0.03400
C 	C 	0.96290 0.85300 0.26450 0.00100
C 	C 	0.97800 0.90360 0.21240 -0.08000
H 	H 	0.97360 0.89620 0.15850 0.06900
C 	C 	0.99970 0.96490 0.24480 0.01300
H 	H 	0.01010 0.99940 0.21240 0.03300
C 	C 	0.00590 0.97500 0.32610 -0.10100
C 	C 	0.98650 0.92590 0.37460 0.00700
H 	H 	0.98800 0.93400 0.42810 0.03800
C 	C 	0.96450 0.86390 0.34370 -0.08300
H 	H 	0.95110 0.83040 0.37610 0.06400
C 	C 	0.04390 0.03680 0.36310 0.34600
C 	C 	0.54580 0.77280 0.38580 0.42400
C 	C 	0.54980 0.84610 0.37760 -0.14200
C 	C 	0.58340 0.88640 0.44040 0.04800
H 	H 	0.60580 0.86760 0.48830 0.01700
C 	C 	0.58340 0.95430 0.43150 -0.10800
H 	H 	0.60460 0.98130 0.47350 0.07200
C 	C 	0.55180 0.98140 0.35980 0.02500
C 	C 	0.51840 0.94210 0.29610 -0.11200
H 	H 	0.49730 0.96100 0.24790 0.09700
C 	C 	0.51740 0.87470 0.30630 0.05700
H 	H 	0.49470 0.84800 0.26460 0.03000
C 	C 	0.63840 0.08280 0.30460 0.03100
C 	C 	0.70790 0.10260 0.35070 -0.10600
H 	H 	0.70890 0.10910 0.40440 0.08100
C 	C 	0.77570 0.11290 0.31830 0.06000
H 	H 	0.82330 0.12580 0.35030 0.02500
C 	C 	0.77510 0.10430 0.23760 -0.14300
C 	C 	0.70460 0.08540 0.19070 0.06100
H 	H 	0.70310 0.08020 0.13680 0.03200
C 	C 	0.63650 0.07420 0.22360 -0.10000
H 	H 	0.58890 0.06080 0.19210 0.09300
C 	C 	0.85000 0.11670 0.20230 0.42700
Mn	Mn	0.96521 0.83514 0.75106 1.32000
Mn	Mn	0.85918 0.87878 0.55479 1.24900
Mn	Mn	0.08633 0.85641 0.94936 1.26300
S 	S 	0.10429 0.51595 0.45709 0.26700
S 	S 	0.44915 0.72800 0.72628 0.27000
S 	S 	0.05194 0.43185 0.84669 0.25400
O 	O 	0.00490 0.75737 0.83140 -0.47900
O 	O 	0.56980 0.41981 0.82100 -0.52500
O 	O 	0.41160 0.36740 0.74710 -0.46100
O 	O 	0.98230 0.76887 0.65690 -0.44200
O 	O 	0.83860 0.80903 0.74560 -0.43500
O 	O 	0.46120 0.60616 0.36240 -0.49200
O 	O 	0.79510 0.81580 0.61530 -0.50100
O 	O 	0.94300 0.80601 0.53320 -0.47000
O 	O 	0.55580 0.45907 0.93750 -0.43800
O 	O 	0.34320 0.38969 0.62810 -0.50600
O 	O 	0.08330 0.75412 0.94690 -0.49100
O 	O 	0.48880 0.60010 0.49220 -0.46100
O 	O 	0.10710 0.46775 0.51920 -0.21600
O 	O 	0.05990 0.50224 0.38010 -0.21600
O 	O 	0.40100 0.72579 0.64930 -0.20800
O 	O 	0.42390 0.76783 0.78710 -0.21600
O 	O 	0.06250 0.40150 0.92300 -0.20900
O 	O 	0.98300 0.41550 0.78780 -0.20300
C 	C 	0.97610 0.76540 0.58370 0.39600
C 	C 	0.00980 0.70410 0.55090 -0.11000
C 	C 	0.05070 0.65830 0.60170 0.03800
H 	H 	0.05870 0.66600 0.65570 0.03400
C 	C 	0.07970 0.60130 0.57300 -0.07600
H 	H 	0.10650 0.57020 0.60760 0.07400
C 	C 	0.06900 0.59020 0.49250 0.02000
C 	C 	0.02940 0.63500 0.44010 -0.07900
H 	H 	0.02310 0.62740 0.38610 0.08500
C 	C 	0.99910 0.69230 0.46950 0.03300
H 	H 	0.97150 0.72290 0.43490 0.04200
C 	C 	0.20410 0.53430 0.44580 0.01700
C 	C 	0.26410 0.52660 0.51100 -0.10800
H 	H 	0.25220 0.50940 0.55800 0.07700
C 	C 	0.34120 0.54530 0.50370 0.03600
H 	H 	0.38270 0.54120 0.54640 0.02200
C 	C 	0.35800 0.57040 0.43210 -0.13300
C 	C 	0.29830 0.57480 0.36760 0.04700
H 	H 	0.31040 0.58940 0.31950 0.02200
C 	C 	0.22000 0.55720 0.37480 -0.10400
H 	H 	0.17850 0.56090 0.33210 0.08600
C 	C 	0.44050 0.59340 0.42820 0.36700
C 	C 	0.78550 0.80520 0.68650 0.39600
C 	C 	0.70240 0.78570 0.69780 -0.12700
C 	C 	0.64420 0.77460 0.63120 0.03200
H 	H 	0.65800 0.77910 0.58120 0.02200
C 	C 	0.56780 0.75730 0.63970 -0.09000
H 	H 	0.52920 0.74920 0.59550 0.07400
C 	C 	0.54710 0.75180 0.71490 0.01700
C 	C 	0.60430 0.76290 0.78190 -0.08500
H 	H 	0.59030 0.75880 0.83190 0.07100
C 	C 	0.68160 0.77990 0.77270 0.04100
H 	H 	0.72050 0.78760 0.81680 0.03400
C 	C 	0.46290 0.64700 0.76450 0.00300
C 	C 	0.47800 0.59640 0.71240 -0.08300
H 	H 	0.47360 0.60380 0.65850 0.07000
C 	C 	0.49970 0.53510 0.74480 0.01800
H 	H 	0.51010 0.50060 0.71240 0.03000
C 	C 	0.50590 0.52500 0.82610 -0.10500
C 	C 	0.48650 0.57410 0.87460 0.01100
H 	H 	0.48800 0.56600 0.92810 0.03700
C 	C 	0.46450 0.63610 0.84370 -0.08600
H 	H 	0.45110 0.66960 0.87610 0.06500
C 	C 	0.54390 0.46320 0.86310 0.34800
C 	C 	0.04580 0.72720 0.88580 0.42400
C 	C 	0.04980 0.65390 0.87760 -0.14200
C 	C 	0.08340 0.61360 0.94040 0.04900
H 	H 	0.10580 0.63240 0.98830 0.01600
C 	C 	0.08340 0.54570 0.93150 -0.10800
H 	H 	0.10460 0.51870 0.97350 0.07200
C 	C 	0.05180 0.51860 0.85980 0.02500
C 	C 	0.01840 0.55790 0.79610 -0.11300
H 	H 	0.99730 0.53900 0.74790 0.09800
C 	C 	0.01740 0.62530 0.80630 0.05700
H 	H 	0.99470 0.65200 0.76460 0.03000
C 	C 	0.13840 0.41720 0.80460 0.03100
C 	C 	0.20790 0.39740 0.85070 -0.10600
H 	H 	0.20890 0.39090 0.90440 0.08100
C 	C 	0.27570 0.38710 0.81830 0.06000
H 	H 	0.32330 0.37420 0.85030 0.02500
C 	C 	0.27510 0.39570 0.73760 -0.14300
C 	C 	0.20460 0.41460 0.69070 0.06100
H 	H 	0.20310 0.41980 0.63680 0.03200
C 	C 	0.13650 0.42580 0.72360 -0.10000
H 	H 	0.08890 0.43920 0.69210 0.09300
C 	C 	0.35000 0.38330 0.70230 0.42700
Mn	Mn	0.53479 0.33514 0.74894 1.32000
Mn	Mn	0.64082 0.37878 0.94521 1.24900
Mn	Mn	0.41367 0.35641 0.55064 1.26300
S 	S 	0.39571 0.01595 0.04291 0.26600
S 	S 	0.05085 0.22800 0.77372 0.26900
S 	S 	0.44806 0.93185 0.65331 0.25500
O 	O 	0.49510 0.25737 0.66860 -0.47900
O 	O 	0.93020 0.91981 0.67900 -0.52500
O 	O 	0.08840 0.86740 0.75290 -0.46100
O 	O 	0.51770 0.26887 0.84310 -0.44200
O 	O 	0.66140 0.30903 0.75440 -0.43600
O 	O 	0.03880 0.10616 0.13760 -0.49200
O 	O 	0.70490 0.31580 0.88470 -0.50100
O 	O 	0.55700 0.30601 0.96680 -0.47000
O 	O 	0.94420 0.95907 0.56250 -0.43800
O 	O 	0.15680 0.88969 0.87190 -0.50600
O 	O 	0.41670 0.25412 0.55310 -0.49100
O 	O 	0.01120 0.10010 0.00780 -0.46100
O 	O 	0.39290 0.96775 0.98080 -0.21600
O 	O 	0.44010 0.00224 0.11990 -0.21600
O 	O 	0.09900 0.22579 0.85070 -0.20800
O 	O 	0.07610 0.26783 0.71290 -0.21600
O 	O 	0.43750 0.90150 0.57700 -0.20900
O 	O 	0.51700 0.91550 0.71220 -0.20300
C 	C 	0.52390 0.26540 0.91630 0.39600
C 	C 	0.49020 0.20410 0.94910 -0.11100
C 	C 	0.44930 0.15830 0.89830 0.03900
H 	H 	0.44130 0.16600 0.84430 0.03400
C 	C 	0.42030 0.10130 0.92700 -0.07700
H 	H 	0.39350 0.07020 0.89240 0.07400
C 	C 	0.43100 0.09020 0.00750 0.02100
C 	C 	0.47060 0.13500 0.05990 -0.08000
H 	H 	0.47690 0.12740 0.11390 0.08500
C 	C 	0.50090 0.19230 0.03050 0.03400
H 	H 	0.52850 0.22290 0.06510 0.04100
C 	C 	0.29590 0.03430 0.05420 0.01700
C 	C 	0.23590 0.02660 0.98900 -0.10900
H 	H 	0.24780 0.00940 0.94200 0.07700
C 	C 	0.15880 0.04530 0.99630 0.03500
H 	H 	0.11730 0.04120 0.95360 0.02200
C 	C 	0.14200 0.07040 0.06790 -0.13200
C 	C 	0.20170 0.07480 0.13240 0.04700
H 	H 	0.18960 0.08940 0.18050 0.02200
C 	C 	0.28000 0.05720 0.12520 -0.10400
H 	H 	0.32150 0.06090 0.16790 0.08600
C 	C 	0.05950 0.09340 0.07180 0.36600
C 	C 	0.71450 0.30520 0.81350 0.39600
C 	C 	0.79760 0.28570 0.80220 -0.12700
C 	C 	0.85580 0.27460 0.86880 0.03200
H 	H 	0.84200 0.27910 0.91880 0.02200
C 	C 	0.93220 0.25730 0.86030 -0.09000
H 	H 	0.97080 0.24920 0.90450 0.07400
C 	C 	0.95290 0.25180 0.78510 0.01800
C 	C 	0.89570 0.26290 0.71810 -0.08500
H 	H 	0.90970 0.25880 0.66810 0.07200
C 	C 	0.81840 0.27990 0.72730 0.04100
H 	H 	0.77950 0.28760 0.68320 0.03400
C 	C 	0.03710 0.14700 0.73550 0.00100
C 	C 	0.02200 0.09640 0.78760 -0.08000
H 	H 	0.02640 0.10380 0.84150 0.06900
C 	C 	0.00030 0.03510 0.75520 0.01300
H 	H 	0.98990 0.00060 0.78760 0.03300
C 	C 	0.99410 0.02500 0.67390 -0.10100
C 	C 	0.01350 0.07410 0.62540 0.00700
H 	H 	0.01200 0.06600 0.57190 0.03800
C 	C 	0.03550 0.13610 0.65630 -0.08300
H 	H 	0.04890 0.16960 0.62390 0.06400
C 	C 	0.95610 0.96320 0.63690 0.34600
C 	C 	0.45420 0.22720 0.61420 0.42400
C 	C 	0.45020 0.15390 0.62240 -0.14200
C 	C 	0.41660 0.11360 0.55960 0.04800
H 	H 	0.39420 0.13240 0.51170 0.01700
C 	C 	0.41660 0.04570 0.56850 -0.10800
H 	H 	0.39540 0.01870 0.52650 0.07200
C 	C 	0.44820 0.01860 0.64020 0.02500
C 	C 	0.48160 0.05790 0.70390 -0.11200
H 	H 	0.50270 0.03900 0.75210 0.09700
C 	C 	0.48260 0.12530 0.69370 0.05700
H 	H 	0.50530 0.15200 0.73540 0.03000
C 	C 	0.36160 0.91720 0.69540 0.03100
C 	C 	0.29210 0.89740 0.64930 -0.10600
H 	H 	0.29110 0.89090 0.59560 0.08100
C 	C 	0.22430 0.88710 0.68170 0.06000
H 	H 	0.17670 0.87420 0.64970 0.02500
C 	C 	0.22490 0.89570 0.76240 -0.14300
C 	C 	0.29540 0.91460 0.80930 0.06100
H 	H 	0.29690 0.91980 0.86320 0.03200
C 	C 	0.36350 0.92580 0.77640 -0.10000
H 	H 	0.41110 0.93920 0.80790 0.09300
C 	C 	0.15000 0.88330 0.79770 0.42700
