data_crystal

_cell_length_a 10.31600
_cell_length_b 26.09600
_cell_length_c 27.88900
_cell_angle_alpha 90.00000
_cell_angle_beta  93.78000
_cell_angle_gamma 90.00000

_symmetry_space_group_name_	'P 1'
_symmetry_space_group_name_H-M	'P 1'

loop_
_symmetry_equiv_pos_as_xyz
  x,y,z

loop_
_atom_site_label
_atom_site_type_symbol
_atom_site_fract_x
_atom_site_fract_y
_atom_site_fract_z
_atom_site_charge
C 	C 	0.69160 0.23837 0.56686 0.39100
C 	C 	0.56150 0.23512 0.53805 -0.11100
C 	C 	0.44900 0.23582 0.56169 0.05300
H 	H 	0.45320 0.23430 0.59540 0.04500
C 	C 	0.33020 0.23866 0.53638 -0.11400
C 	C 	0.32380 0.23700 0.48736 0.01900
H 	H 	0.24230 0.23790 0.47020 0.04000
C 	C 	0.43820 0.23390 0.46178 -0.05300
C 	C 	0.55550 0.23380 0.48882 0.01900
H 	H 	0.63310 0.23270 0.47300 0.03800
C 	C 	0.20760 0.24317 0.56328 0.38900
C 	C 	0.43260 0.23350 0.40852 0.10600
C 	C 	0.33210 0.25630 0.38100 -0.15300
H 	H 	0.26580 0.27300 0.39650 0.08500
C 	C 	0.32630 0.25520 0.33170 0.08000
H 	H 	0.25630 0.27100 0.31410 0.02200
C 	C 	0.42210 0.23110 0.30737 -0.14600
C 	C 	0.52360 0.20950 0.33470 0.08000
H 	H 	0.59330 0.19500 0.31940 0.02200
C 	C 	0.52440 0.20890 0.38450 -0.15400
H 	H 	0.59070 0.19100 0.40210 0.08800
C 	C 	0.41880 0.23020 0.25370 0.39900
C 	C 	0.94440 0.39650 0.55640 0.71000
C 	C 	0.93590 0.44290 0.52400 -1.07300
H 	H 	0.84730 0.45560 0.52150 0.33600
H 	H 	0.96160 0.43360 0.49230 0.33900
H 	H 	0.99340 0.46950 0.53740 0.33400
C 	C 	0.24160 0.35767 0.69099 0.37500
C 	C 	0.36480 0.38504 0.70301 -0.10900
C 	C 	0.48000 0.36201 0.69177 0.04000
H 	H 	0.48000 0.32850 0.67930 0.04600
C 	C 	0.59660 0.38932 0.69922 -0.10200
C 	C 	0.59610 0.43732 0.72015 0.01000
H 	H 	0.67520 0.45480 0.72590 0.04300
C 	C 	0.48250 0.46052 0.73290 -0.04600
C 	C 	0.36570 0.43415 0.72238 0.01200
H 	H 	0.28660 0.44990 0.72850 0.04100
C 	C 	0.71720 0.36382 0.68335 0.36800
C 	C 	0.48400 0.51203 0.75317 0.09100
C 	C 	0.59030 0.53000 0.78180 -0.13700
H 	H 	0.66390 0.50920 0.78760 0.08300
C 	C 	0.58740 0.57880 0.80190 0.06500
H 	H 	0.65870 0.59000 0.82190 0.02700
C 	C 	0.48380 0.61073 0.79336 -0.13200
C 	C 	0.38040 0.59380 0.76490 0.07200
H 	H 	0.30770 0.61520 0.75910 0.02500
C 	C 	0.38100 0.54640 0.74470 -0.14200
H 	H 	0.30930 0.53640 0.72430 0.08100
C 	C 	0.48620 0.66425 0.81442 0.37300
O 	O 	0.96630 0.29017 0.63349 -0.93600
O 	O 	0.78760 0.25198 0.54321 -0.48500
O 	O 	0.69230 0.23041 0.61069 -0.47100
O 	O 	0.21890 0.23664 0.60716 -0.46900
O 	O 	0.10400 0.25442 0.53831 -0.48300
O 	O 	0.32400 0.25164 0.23129 -0.47000
O 	O 	0.51160 0.21060 0.23539 -0.46300
O 	O 	0.13640 0.38278 0.68729 -0.47200
O 	O 	0.25010 0.30901 0.68551 -0.47100
O 	O 	0.70750 0.32153 0.66388 -0.46400
O 	O 	0.82410 0.38851 0.69155 -0.46100
O 	O 	0.58460 0.67914 0.83884 -0.45800
O 	O 	0.38430 0.69181 0.80522 -0.46800
O 	O 	0.95880 0.40381 0.59969 -0.59100
O 	O 	0.94040 0.35356 0.53615 -0.58600
Zn	Zn	0.11818 0.25819 0.66561 1.22000
Zn	Zn	0.82389 0.25304 0.66105 1.22000
Zn	Zn	0.96788 0.35923 0.65913 1.22000
Zn	Zn	0.95220 0.28501 0.56565 1.22200
C 	C 	0.80840 0.73837 0.93314 0.39000
C 	C 	0.93850 0.73512 0.96195 -0.11100
C 	C 	0.05100 0.73582 0.93831 0.05000
H 	H 	0.04680 0.73430 0.90460 0.04400
C 	C 	0.16980 0.73866 0.96362 -0.11400
C 	C 	0.17620 0.73700 0.01264 0.01700
H 	H 	0.25770 0.73790 0.02980 0.03900
C 	C 	0.06180 0.73390 0.03822 -0.05500
C 	C 	0.94450 0.73380 0.01118 0.01900
H 	H 	0.86690 0.73270 0.02700 0.03900
C 	C 	0.29240 0.74317 0.93672 0.38900
C 	C 	0.06740 0.73350 0.09148 0.10400
C 	C 	0.16790 0.75630 0.11900 -0.15300
H 	H 	0.23420 0.77300 0.10350 0.08400
C 	C 	0.17370 0.75520 0.16830 0.08000
H 	H 	0.24370 0.77100 0.18590 0.02200
C 	C 	0.07790 0.73110 0.19263 -0.14700
C 	C 	0.97640 0.70950 0.16530 0.08100
H 	H 	0.90670 0.69500 0.18060 0.02200
C 	C 	0.97560 0.70890 0.11550 -0.15300
H 	H 	0.90930 0.69100 0.09790 0.08800
C 	C 	0.08120 0.73020 0.24630 0.39700
C 	C 	0.55560 0.89650 0.94360 0.70900
C 	C 	0.56410 0.94290 0.97600 -1.07100
H 	H 	0.65270 0.95560 0.97850 0.33500
H 	H 	0.53840 0.93360 0.00770 0.33800
H 	H 	0.50660 0.96950 0.96260 0.33300
C 	C 	0.25840 0.85767 0.80901 0.37500
C 	C 	0.13520 0.88504 0.79699 -0.10900
C 	C 	0.02000 0.86201 0.80823 0.03900
H 	H 	0.02000 0.82850 0.82070 0.04600
C 	C 	0.90340 0.88932 0.80078 -0.10200
C 	C 	0.90390 0.93732 0.77985 0.01000
H 	H 	0.82480 0.95480 0.77410 0.04300
C 	C 	0.01750 0.96052 0.76710 -0.04600
C 	C 	0.13430 0.93415 0.77762 0.01200
H 	H 	0.21340 0.94990 0.77150 0.04100
C 	C 	0.78280 0.86382 0.81665 0.36700
C 	C 	0.01600 0.01203 0.74683 0.09100
C 	C 	0.90970 0.03000 0.71820 -0.13800
H 	H 	0.83610 0.00920 0.71240 0.08300
C 	C 	0.91260 0.07880 0.69810 0.06400
H 	H 	0.84130 0.09000 0.67810 0.02700
C 	C 	0.01620 0.11073 0.70664 -0.13000
C 	C 	0.11960 0.09380 0.73510 0.07100
H 	H 	0.19230 0.11520 0.74090 0.02500
C 	C 	0.11900 0.04640 0.75530 -0.14100
H 	H 	0.19070 0.03640 0.77570 0.08100
C 	C 	0.01380 0.16425 0.68558 0.37400
O 	O 	0.53370 0.79017 0.86651 -0.93600
O 	O 	0.71240 0.75198 0.95679 -0.48500
O 	O 	0.80770 0.73041 0.88931 -0.47100
O 	O 	0.28110 0.73664 0.89284 -0.46900
O 	O 	0.39600 0.75442 0.96169 -0.48300
O 	O 	0.17600 0.75164 0.26871 -0.47000
O 	O 	0.98840 0.71060 0.26461 -0.46200
O 	O 	0.36360 0.88278 0.81271 -0.47300
O 	O 	0.24990 0.80901 0.81449 -0.47100
O 	O 	0.79250 0.82153 0.83612 -0.46300
O 	O 	0.67590 0.88851 0.80845 -0.46000
O 	O 	0.91540 0.17914 0.66116 -0.45900
O 	O 	0.11570 0.19181 0.69478 -0.46800
O 	O 	0.54120 0.90381 0.90031 -0.59100
O 	O 	0.55960 0.85356 0.96385 -0.58500
Zn	Zn	0.38182 0.75819 0.83439 1.22000
Zn	Zn	0.67611 0.75304 0.83895 1.22000
Zn	Zn	0.53212 0.85923 0.84087 1.22000
Zn	Zn	0.54780 0.78501 0.93435 1.22200
C 	C 	0.30840 0.76163 0.43314 0.39000
C 	C 	0.43850 0.76488 0.46195 -0.11200
C 	C 	0.55100 0.76418 0.43831 0.05200
H 	H 	0.54680 0.76570 0.40460 0.04400
C 	C 	0.66980 0.76134 0.46362 -0.11500
C 	C 	0.67620 0.76300 0.51264 0.01800
H 	H 	0.75770 0.76210 0.52980 0.03900
C 	C 	0.56180 0.76610 0.53822 -0.05400
C 	C 	0.44450 0.76620 0.51118 0.01900
H 	H 	0.36690 0.76730 0.52700 0.03800
C 	C 	0.79240 0.75683 0.43672 0.38900
C 	C 	0.56740 0.76650 0.59148 0.10600
C 	C 	0.66790 0.74370 0.61900 -0.15300
H 	H 	0.73420 0.72700 0.60350 0.08500
C 	C 	0.67370 0.74480 0.66830 0.08000
H 	H 	0.74370 0.72900 0.68590 0.02200
C 	C 	0.57790 0.76890 0.69263 -0.14600
C 	C 	0.47640 0.79050 0.66530 0.08000
H 	H 	0.40670 0.80500 0.68060 0.02200
C 	C 	0.47560 0.79110 0.61550 -0.15400
H 	H 	0.40930 0.80900 0.59790 0.08800
C 	C 	0.58120 0.76980 0.74630 0.39900
C 	C 	0.05560 0.60350 0.44360 0.71000
C 	C 	0.06410 0.55710 0.47600 -1.07300
H 	H 	0.15270 0.54440 0.47850 0.33600
H 	H 	0.03840 0.56640 0.50770 0.33900
H 	H 	0.00660 0.53050 0.46260 0.33400
C 	C 	0.75840 0.64233 0.30901 0.37500
C 	C 	0.63520 0.61496 0.29699 -0.10900
C 	C 	0.52000 0.63799 0.30823 0.04000
H 	H 	0.52000 0.67150 0.32070 0.04600
C 	C 	0.40340 0.61068 0.30078 -0.10200
C 	C 	0.40390 0.56268 0.27985 0.01000
H 	H 	0.32480 0.54520 0.27410 0.04300
C 	C 	0.51750 0.53948 0.26710 -0.04600
C 	C 	0.63430 0.56585 0.27762 0.01200
H 	H 	0.71340 0.55010 0.27150 0.04100
C 	C 	0.28280 0.63618 0.31665 0.36800
C 	C 	0.51600 0.48797 0.24683 0.09100
C 	C 	0.40970 0.47000 0.21820 -0.13700
H 	H 	0.33610 0.49080 0.21240 0.08300
C 	C 	0.41260 0.42120 0.19810 0.06500
H 	H 	0.34130 0.41000 0.17810 0.02700
C 	C 	0.51620 0.38927 0.20664 -0.13200
C 	C 	0.61960 0.40620 0.23510 0.07200
H 	H 	0.69230 0.38480 0.24090 0.02500
C 	C 	0.61900 0.45360 0.25530 -0.14200
H 	H 	0.69070 0.46360 0.27570 0.08100
C 	C 	0.51380 0.33575 0.18558 0.37300
O 	O 	0.03370 0.70983 0.36651 -0.93600
O 	O 	0.21240 0.74802 0.45679 -0.48500
O 	O 	0.30770 0.76959 0.38931 -0.47100
O 	O 	0.78110 0.76336 0.39284 -0.46900
O 	O 	0.89600 0.74558 0.46169 -0.48300
O 	O 	0.67600 0.74836 0.76871 -0.47000
O 	O 	0.48840 0.78940 0.76461 -0.46300
O 	O 	0.86360 0.61722 0.31271 -0.47200
O 	O 	0.74990 0.69099 0.31449 -0.47100
O 	O 	0.29250 0.67847 0.33612 -0.46400
O 	O 	0.17590 0.61149 0.30845 -0.46100
O 	O 	0.41540 0.32086 0.16116 -0.45800
O 	O 	0.61570 0.30819 0.19478 -0.46800
O 	O 	0.04120 0.59619 0.40031 -0.59100
O 	O 	0.05960 0.64644 0.46385 -0.58600
Zn	Zn	0.88182 0.74181 0.33439 1.22000
Zn	Zn	0.17611 0.74696 0.33895 1.22000
Zn	Zn	0.03212 0.64077 0.34087 1.22000
Zn	Zn	0.04780 0.71499 0.43435 1.22200
C 	C 	0.19160 0.26163 0.06686 0.39000
C 	C 	0.06150 0.26488 0.03805 -0.11100
C 	C 	0.94900 0.26418 0.06169 0.05000
H 	H 	0.95320 0.26570 0.09540 0.04400
C 	C 	0.83020 0.26134 0.03638 -0.11400
C 	C 	0.82380 0.26300 0.98736 0.01700
H 	H 	0.74230 0.26210 0.97020 0.03900
C 	C 	0.93820 0.26610 0.96178 -0.05500
C 	C 	0.05550 0.26620 0.98882 0.01900
H 	H 	0.13310 0.26730 0.97300 0.03900
C 	C 	0.70760 0.25683 0.06328 0.38900
C 	C 	0.93260 0.26650 0.90852 0.10400
C 	C 	0.83210 0.24370 0.88100 -0.15300
H 	H 	0.76580 0.22700 0.89650 0.08400
C 	C 	0.82630 0.24480 0.83170 0.08000
H 	H 	0.75630 0.22900 0.81410 0.02200
C 	C 	0.92210 0.26890 0.80737 -0.14700
C 	C 	0.02360 0.29050 0.83470 0.08100
H 	H 	0.09330 0.30500 0.81940 0.02200
C 	C 	0.02440 0.29110 0.88450 -0.15300
H 	H 	0.09070 0.30900 0.90210 0.08800
C 	C 	0.91880 0.26980 0.75370 0.39700
C 	C 	0.44440 0.10350 0.05640 0.70900
C 	C 	0.43590 0.05710 0.02400 -1.07100
H 	H 	0.34730 0.04440 0.02150 0.33500
H 	H 	0.46160 0.06640 0.99230 0.33800
H 	H 	0.49340 0.03050 0.03740 0.33300
C 	C 	0.74160 0.14233 0.19099 0.37500
C 	C 	0.86480 0.11496 0.20301 -0.10900
C 	C 	0.98000 0.13799 0.19177 0.03900
H 	H 	0.98000 0.17150 0.17930 0.04600
C 	C 	0.09660 0.11068 0.19922 -0.10200
C 	C 	0.09610 0.06268 0.22015 0.01000
H 	H 	0.17520 0.04520 0.22590 0.04300
C 	C 	0.98250 0.03948 0.23290 -0.04600
C 	C 	0.86570 0.06585 0.22238 0.01200
H 	H 	0.78660 0.05010 0.22850 0.04100
C 	C 	0.21720 0.13618 0.18335 0.36700
C 	C 	0.98400 0.98797 0.25317 0.09100
C 	C 	0.09030 0.97000 0.28180 -0.13800
H 	H 	0.16390 0.99080 0.28760 0.08300
C 	C 	0.08740 0.92120 0.30190 0.06400
H 	H 	0.15870 0.91000 0.32190 0.02700
C 	C 	0.98380 0.88927 0.29336 -0.13000
C 	C 	0.88040 0.90620 0.26490 0.07100
H 	H 	0.80770 0.88480 0.25910 0.02500
C 	C 	0.88100 0.95360 0.24470 -0.14100
H 	H 	0.80930 0.96360 0.22430 0.08100
C 	C 	0.98620 0.83575 0.31442 0.37400
O 	O 	0.46630 0.20983 0.13349 -0.93600
O 	O 	0.28760 0.24802 0.04321 -0.48500
O 	O 	0.19230 0.26959 0.11069 -0.47100
O 	O 	0.71890 0.26336 0.10716 -0.46900
O 	O 	0.60400 0.24558 0.03831 -0.48300
O 	O 	0.82400 0.24836 0.73129 -0.47000
O 	O 	0.01160 0.28940 0.73539 -0.46200
O 	O 	0.63640 0.11722 0.18729 -0.47300
O 	O 	0.75010 0.19099 0.18551 -0.47100
O 	O 	0.20750 0.17847 0.16388 -0.46300
O 	O 	0.32410 0.11149 0.19155 -0.46000
O 	O 	0.08460 0.82086 0.33884 -0.45900
O 	O 	0.88430 0.80819 0.30522 -0.46800
O 	O 	0.45880 0.09619 0.09969 -0.59100
O 	O 	0.44040 0.14644 0.03615 -0.58500
Zn	Zn	0.61818 0.24181 0.16561 1.22000
Zn	Zn	0.32389 0.24696 0.16105 1.22000
Zn	Zn	0.46788 0.14077 0.15913 1.22000
Zn	Zn	0.45220 0.21499 0.06565 1.22200
