data_crystal

_cell_length_a 10.19300
_cell_length_b 14.27600
_cell_length_c 10.38000
_cell_angle_alpha 90.00000
_cell_angle_beta  91.18400
_cell_angle_gamma 90.00000

_symmetry_space_group_name_	'P 1'
_symmetry_space_group_name_H-M	'P 1'

loop_
_symmetry_equiv_pos_as_xyz
  x,y,z

loop_
_atom_site_label
_atom_site_type_symbol
_atom_site_fract_x
_atom_site_fract_y
_atom_site_fract_z
_atom_site_charge
P 	P 	0.31530 0.50915 0.78990 0.58800
P 	P 	0.88560 0.48092 0.67390 0.60800
P 	P 	0.02190 0.80083 0.50190 0.58400
O 	O 	0.12220 0.72820 0.55890 -0.60600
O 	O 	0.24070 0.59210 0.72660 -0.59400
O 	O 	0.95640 0.57800 0.67740 -0.62200
O 	O 	0.31910 0.52180 0.93150 -0.44800
O 	O 	0.44890 0.49750 0.73100 -0.36500
O 	O 	0.23880 0.41720 0.75090 -0.35900
O 	O 	0.94870 0.84810 0.60740 -0.40100
O 	O 	0.98370 0.40460 0.71430 -0.33900
O 	O 	0.76810 0.48350 0.75590 -0.40400
O 	O 	0.15640 0.53430 0.46840 -0.65200
O 	O 	0.09270 0.86270 0.40940 -0.40800
O 	O 	0.91750 0.73810 0.42570 -0.37800
Ga	Ga	0.11141 0.60674 0.60391 2.07900
Mn	Mn	0.38889 0.50768 0.12358 1.30700
H 	H 	0.95000 0.69000 0.37700 0.21000
H 	H 	0.14400 0.40900 0.74900 0.20200
P 	P 	0.18470 0.00915 0.71010 0.57500
P 	P 	0.61440 0.98092 0.82610 0.61100
P 	P 	0.47810 0.30083 0.99810 0.57300
O 	O 	0.37780 0.22820 0.94110 -0.60900
O 	O 	0.25930 0.09210 0.77340 -0.59600
O 	O 	0.54360 0.07800 0.82260 -0.62600
O 	O 	0.18090 0.02180 0.56850 -0.44700
O 	O 	0.05110 0.99750 0.76900 -0.35700
O 	O 	0.26120 0.91720 0.74910 -0.35300
O 	O 	0.55130 0.34810 0.89260 -0.39800
O 	O 	0.51630 0.90460 0.78570 -0.33900
O 	O 	0.73190 0.98350 0.74410 -0.40400
O 	O 	0.34360 0.03430 0.03160 -0.64900
O 	O 	0.40730 0.36270 0.09060 -0.40600
O 	O 	0.58250 0.23810 0.07430 -0.37200
Ga	Ga	0.38859 0.10674 0.89609 2.07700
Mn	Mn	0.11111 0.00768 0.37642 1.30600
H 	H 	0.55000 0.19000 0.12300 0.21100
H 	H 	0.35600 0.90900 0.75100 0.20300
P 	P 	0.68470 0.49085 0.21010 0.58700
P 	P 	0.11440 0.51908 0.32610 0.60700
P 	P 	0.97810 0.19917 0.49810 0.58300
O 	O 	0.87780 0.27180 0.44110 -0.60700
O 	O 	0.75930 0.40790 0.27340 -0.59400
O 	O 	0.04360 0.42200 0.32260 -0.62200
O 	O 	0.68090 0.47820 0.06850 -0.44800
O 	O 	0.55110 0.50250 0.26900 -0.36500
O 	O 	0.76120 0.58280 0.24910 -0.35900
O 	O 	0.05130 0.15190 0.39260 -0.40100
O 	O 	0.01630 0.59540 0.28570 -0.33900
O 	O 	0.23190 0.51650 0.24410 -0.40400
O 	O 	0.84360 0.46570 0.53160 -0.65200
O 	O 	0.90730 0.13730 0.59060 -0.40800
O 	O 	0.08250 0.26190 0.57430 -0.37800
Ga	Ga	0.88859 0.39326 0.39609 2.07900
Mn	Mn	0.61111 0.49232 0.87642 1.30700
H 	H 	0.05000 0.31000 0.62300 0.21000
H 	H 	0.85600 0.59100 0.25100 0.20200
P 	P 	0.81530 0.99085 0.28990 0.57500
P 	P 	0.38560 0.01908 0.17390 0.61100
P 	P 	0.52190 0.69917 0.00190 0.57300
O 	O 	0.62220 0.77180 0.05890 -0.60900
O 	O 	0.74070 0.90790 0.22660 -0.59600
O 	O 	0.45640 0.92200 0.17740 -0.62600
O 	O 	0.81910 0.97820 0.43150 -0.44700
O 	O 	0.94890 0.00250 0.23100 -0.35700
O 	O 	0.73880 0.08280 0.25090 -0.35300
O 	O 	0.44870 0.65190 0.10740 -0.39800
O 	O 	0.48370 0.09540 0.21430 -0.33900
O 	O 	0.26810 0.01650 0.25590 -0.40400
O 	O 	0.65640 0.96570 0.96840 -0.64900
O 	O 	0.59270 0.63730 0.90940 -0.40600
O 	O 	0.41750 0.76190 0.92570 -0.37200
Ga	Ga	0.61141 0.89326 0.10391 2.07700
Mn	Mn	0.88889 0.99232 0.62358 1.30600
H 	H 	0.45000 0.81000 0.87700 0.21100
H 	H 	0.64400 0.09100 0.24900 0.20300
