data_crystal

_cell_length_a 17.04600
_cell_length_b 24.04620
_cell_length_c 28.84420
_cell_angle_alpha 90.00000
_cell_angle_beta  90.00000
_cell_angle_gamma 90.00000

_symmetry_space_group_name_	'P 1'
_symmetry_space_group_name_H-M	'P 1'

loop_
_symmetry_equiv_pos_as_xyz
  x,y,z

loop_
_atom_site_label
_atom_site_type_symbol
_atom_site_fract_x
_atom_site_fract_y
_atom_site_fract_z
_atom_site_charge
Cd	Cd	0.59146 0.59846 0.70902 1.22500
Cd	Cd	0.90933 0.67107 0.20919 1.22100
O 	O 	0.58070 0.15410 0.67330 -0.73400
O 	O 	0.59430 0.04120 0.67300 -0.74300
O 	O 	0.71410 0.62070 0.66347 -0.35400
O 	O 	0.59960 0.60340 0.62933 -0.37900
O 	O 	0.82880 0.67440 0.27286 -0.40500
O 	O 	0.45500 0.59290 0.70340 -0.48800
O 	O 	0.33230 0.59870 0.72590 -0.41600
O 	O 	0.88410 0.22540 0.19000 -0.80700
O 	O 	0.90050 0.11600 0.19100 -0.80300
O 	O 	0.09420 0.66820 0.37120 -0.37900
O 	O 	0.21210 0.67580 0.34000 -0.35500
O 	O 	0.95270 0.66620 0.29540 -0.48700
N 	N 	0.63370 0.15240 0.76460 -0.42900
N 	N 	0.65650 0.04490 0.76170 -0.41900
N 	N 	0.57190 0.69310 0.70940 -0.23400
N 	N 	0.58610 0.50430 0.70400 -0.24800
N 	N 	0.91970 0.76600 0.20950 -0.24200
N 	N 	0.90690 0.57480 0.21310 -0.23800
N 	N 	0.81730 0.22250 0.27510 -0.42200
N 	N 	0.85070 0.11530 0.28120 -0.43500
C 	C 	0.58220 0.20900 0.67710 0.32000
C 	C 	0.56610 0.24330 0.63840 -0.30800
C 	C 	0.56480 0.30050 0.64500 0.12900
H 	H 	0.55250 0.32340 0.61920 -0.02800
C 	C 	0.58040 0.32600 0.68720 -0.13900
C 	C 	0.59980 0.29320 0.72420 0.09800
H 	H 	0.61240 0.30990 0.75310 0.00100
C 	C 	0.60110 0.23440 0.71990 -0.24500
C 	C 	0.55170 0.21750 0.59110 0.54000
C 	C 	0.48040 0.17850 0.59180 -0.81400
H 	H 	0.48760 0.15040 0.61600 0.26300
H 	H 	0.47530 0.16020 0.56160 0.23800
H 	H 	0.43290 0.20010 0.59830 0.25500
C 	C 	0.53450 0.26160 0.55240 -0.78500
H 	H 	0.48010 0.27430 0.55500 0.24400
H 	H 	0.54260 0.24470 0.52180 0.23600
H 	H 	0.57000 0.29330 0.55610 0.24800
C 	C 	0.62780 0.18440 0.57510 -0.72400
H 	H 	0.67170 0.21050 0.57150 0.21800
H 	H 	0.61760 0.16610 0.54540 0.20800
H 	H 	0.64120 0.15640 0.59840 0.20000
C 	C 	0.58000 0.38810 0.69240 0.15200
C 	C 	0.54690 0.42250 0.66300 -0.18700
H 	H 	0.52040 0.40730 0.63690 0.09100
C 	C 	0.61810 0.41350 0.73020 -0.18300
H 	H 	0.64180 0.39150 0.75370 0.09900
C 	C 	0.62260 0.20550 0.76180 0.06700
H 	H 	0.62900 0.22690 0.78920 0.01100
C 	C 	0.65100 0.12610 0.81080 -0.01600
H 	H 	0.60000 0.11480 0.82510 -0.00500
C 	C 	0.69520 0.16210 0.84560 -0.12800
H 	H 	0.66400 0.19560 0.85320 0.05400
H 	H 	0.74590 0.17410 0.83220 0.06600
C 	C 	0.70910 0.12740 0.88930 -0.05500
H 	H 	0.73820 0.15010 0.91220 0.02300
H 	H 	0.65800 0.11720 0.90310 0.02000
C 	C 	0.75490 0.07530 0.87910 -0.09100
H 	H 	0.76150 0.05360 0.90800 0.02100
H 	H 	0.80770 0.08540 0.86760 0.04900
C 	C 	0.71350 0.04010 0.84340 -0.08600
H 	H 	0.66310 0.02670 0.85620 0.03100
H 	H 	0.74620 0.00730 0.83600 0.03300
C 	C 	0.69820 0.07290 0.79960 -0.02700
H 	H 	0.75030 0.08490 0.78720 -0.00900
C 	C 	0.64270 0.99350 0.76090 0.08900
H 	H 	0.65600 0.97300 0.78790 -0.02300
C 	C 	0.60880 0.96280 0.72330 -0.26700
C 	C 	0.59860 0.90460 0.72980 0.09200
H 	H 	0.61000 0.88880 0.75920 -0.03400
C 	C 	0.57300 0.87080 0.69480 -0.13400
C 	C 	0.55730 0.89560 0.65140 0.11000
H 	H 	0.53860 0.87280 0.62690 -0.02900
C 	C 	0.56810 0.95230 0.64310 -0.29900
C 	C 	0.59080 0.98650 0.68030 0.32700
C 	C 	0.55590 0.97640 0.59400 0.53900
C 	C 	0.63300 0.00650 0.57760 -0.73000
H 	H 	0.67800 0.98170 0.58200 0.21500
H 	H 	0.64070 0.04050 0.59590 0.20700
H 	H 	0.62840 0.01620 0.54470 0.20100
C 	C 	0.53810 0.92980 0.55780 -0.75100
H 	H 	0.57450 0.89870 0.56240 0.22500
H 	H 	0.54450 0.94470 0.52640 0.20800
H 	H 	0.48410 0.91660 0.56190 0.21700
C 	C 	0.48690 0.01600 0.59340 -0.81200
H 	H 	0.48760 0.03750 0.56460 0.23400
H 	H 	0.49050 0.04130 0.62000 0.25600
H 	H 	0.43790 0.99470 0.59540 0.24000
C 	C 	0.56810 0.81010 0.70120 0.10700
C 	C 	0.60300 0.78360 0.73870 -0.14600
H 	H 	0.62560 0.80530 0.76280 0.03200
C 	C 	0.60560 0.72640 0.74170 0.06700
H 	H 	0.63190 0.70970 0.76720 -0.01600
C 	C 	0.53610 0.71780 0.67390 0.07700
H 	H 	0.51180 0.69490 0.65110 -0.00800
C 	C 	0.53230 0.77520 0.66810 -0.15700
H 	H 	0.50580 0.79070 0.64220 0.06600
C 	C 	0.62080 0.47100 0.73270 0.11300
H 	H 	0.65020 0.48720 0.75720 -0.01600
C 	C 	0.54860 0.48030 0.66800 0.09600
H 	H 	0.52290 0.50300 0.64580 -0.00600
C 	C 	0.67180 0.61790 0.62850 0.29200
C 	C 	0.70510 0.62990 0.58150 -0.08200
C 	C 	0.65710 0.62380 0.54210 0.00200
H 	H 	0.60370 0.61330 0.54580 0.03800
C 	C 	0.68680 0.63300 0.49810 -0.08300
H 	H 	0.65340 0.62880 0.47190 0.04600
C 	C 	0.76620 0.64830 0.49150 0.01400
C 	C 	0.81440 0.65440 0.53160 -0.08700
H 	H 	0.86780 0.66500 0.52850 0.03400
C 	C 	0.78250 0.64450 0.57540 0.00400
H 	H 	0.81520 0.64810 0.60180 0.02000
C 	C 	0.79810 0.65610 0.44410 0.03500
C 	C 	0.75000 0.67360 0.40920 -0.10300
H 	H 	0.69710 0.68310 0.41600 0.04700
C 	C 	0.77710 0.67780 0.36380 0.02300
H 	H 	0.74240 0.68840 0.33960 0.03100
C 	C 	0.85410 0.66650 0.35410 -0.11600
C 	C 	0.90530 0.65090 0.38890 0.02400
H 	H 	0.95890 0.64360 0.38210 0.02800
C 	C 	0.87730 0.64630 0.43380 -0.10000
H 	H 	0.91230 0.63630 0.45800 0.05200
C 	C 	0.87970 0.66930 0.30410 0.34500
C 	C 	0.38400 0.59960 0.69510 0.37100
C 	C 	0.35630 0.61110 0.64650 -0.12300
C 	C 	0.27760 0.62380 0.63960 0.02700
H 	H 	0.24280 0.62600 0.66530 0.03500
C 	C 	0.25000 0.63330 0.59520 -0.10200
H 	H 	0.19570 0.64020 0.59050 0.04600
C 	C 	0.30000 0.63300 0.55720 0.03000
C 	C 	0.37910 0.62200 0.56440 -0.10000
H 	H 	0.41470 0.62190 0.53910 0.05900
C 	C 	0.40610 0.61090 0.60950 0.02800
H 	H 	0.46010 0.60310 0.61440 0.03200
C 	C 	0.26680 0.64300 0.50940 0.02400
C 	C 	0.19210 0.62580 0.49880 -0.09400
H 	H 	0.16220 0.60630 0.52130 0.05000
C 	C 	0.15990 0.63650 0.45590 0.01000
H 	H 	0.10740 0.62550 0.44960 0.03300
C 	C 	0.20300 0.66290 0.42200 -0.08500
C 	C 	0.27940 0.67900 0.43220 0.00900
H 	H 	0.31150 0.69450 0.40860 0.02500
C 	C 	0.30870 0.67240 0.47630 -0.09300
H 	H 	0.35810 0.68820 0.48410 0.04000
C 	C 	0.91870 0.94530 0.20360 -0.15200
C 	C 	0.92340 0.88330 0.20670 0.11700
C 	C 	0.88050 0.85460 0.23960 -0.15400
H 	H 	0.85100 0.87440 0.26210 0.03200
C 	C 	0.88040 0.79620 0.23990 0.06800
H 	H 	0.85070 0.77760 0.26310 -0.01900
C 	C 	0.96170 0.79320 0.17820 0.08100
H 	H 	0.99190 0.77210 0.15690 -0.01900
C 	C 	0.96410 0.85120 0.17460 -0.16700
H 	H 	0.99320 0.86850 0.15050 0.06500
C 	C 	0.85060 0.54650 0.23480 0.10300
H 	H 	0.81150 0.56640 0.25130 -0.00800
C 	C 	0.84730 0.48850 0.23400 -0.19300
H 	H 	0.80590 0.46990 0.24950 0.10200
C 	C 	0.90240 0.45850 0.21130 0.16200
C 	C 	0.96210 0.48760 0.19060 -0.20000
H 	H 	0.00350 0.46800 0.17570 0.10500
C 	C 	0.96260 0.54600 0.19120 0.07600
H 	H 	0.00350 0.56540 0.17580 0.00400
C 	C 	0.89590 0.39730 0.20740 -0.15600
C 	C 	0.86190 0.36480 0.24040 0.11100
H 	H 	0.84100 0.38160 0.26750 -0.00100
C 	C 	0.85720 0.30620 0.23490 -0.26400
C 	C 	0.88600 0.27970 0.19540 0.35700
C 	C 	0.92160 0.31360 0.15990 -0.35100
C 	C 	0.92610 0.37060 0.16790 0.14800
H 	H 	0.95130 0.39300 0.14510 -0.03800
C 	C 	0.95790 0.28650 0.11690 0.66400
C 	C 	0.89880 0.24950 0.09040 -0.88800
H 	H 	0.88400 0.21780 0.10980 0.26500
H 	H 	0.92310 0.23600 0.06170 0.25400
H 	H 	0.85190 0.27130 0.08280 0.27300
C 	C 	0.02760 0.25170 0.13200 -0.90900
H 	H 	0.06870 0.27610 0.14420 0.28200
H 	H 	0.04800 0.23100 0.10540 0.27500
H 	H 	0.01100 0.22560 0.15620 0.26800
C 	C 	0.98770 0.33070 0.08230 -0.95600
H 	H 	0.94930 0.36090 0.08000 0.29600
H 	H 	0.99470 0.31360 0.05170 0.28300
H 	H 	0.03790 0.34560 0.09310 0.30600
C 	C 	0.81970 0.27530 0.27300 0.07200
H 	H 	0.79620 0.29590 0.29740 0.01000
C 	C 	0.77710 0.19260 0.31430 -0.03800
H 	H 	0.72670 0.17750 0.30190 -0.00500
C 	C 	0.75720 0.22710 0.35620 -0.09500
H 	H 	0.71930 0.25640 0.34740 0.06200
H 	H 	0.80530 0.24540 0.36800 0.04200
C 	C 	0.72110 0.18950 0.39490 -0.09200
H 	H 	0.71520 0.21170 0.42360 0.03800
H 	H 	0.66820 0.17730 0.38510 0.04700
C 	C 	0.77050 0.13890 0.40520 -0.05600
H 	H 	0.74300 0.11510 0.42800 0.01100
H 	H 	0.82090 0.15070 0.41910 0.02000
C 	C 	0.78660 0.10520 0.36050 -0.11800
H 	H 	0.81820 0.07180 0.36790 0.03400
H 	H 	0.73630 0.09280 0.34670 0.05100
C 	C 	0.83070 0.14170 0.32620 -0.02300
H 	H 	0.87990 0.15550 0.34120 -0.01200
C 	C 	0.86660 0.06400 0.27960 0.08500
H 	H 	0.86240 0.04300 0.30740 -0.02000
C 	C 	0.89100 0.03540 0.23780 -0.28000
C 	C 	0.89720 0.97680 0.24110 0.11000
H 	H 	0.88630 0.95900 0.26980 -0.03400
C 	C 	0.93150 0.97120 0.16140 0.14100
H 	H 	0.94600 0.94910 0.13550 -0.04100
C 	C 	0.92410 0.02850 0.15560 -0.34500
C 	C 	0.90560 0.06110 0.19390 0.35300
C 	C 	0.93120 0.05490 0.10650 0.60400
C 	C 	0.85480 0.08430 0.09410 -0.82900
H 	H 	0.81080 0.05860 0.09820 0.24000
H 	H 	0.85690 0.09660 0.06170 0.23600
H 	H 	0.84770 0.11660 0.11440 0.22800
C 	C 	0.94930 0.01190 0.06720 -0.80400
H 	H 	0.99350 0.98830 0.07660 0.23300
H 	H 	0.96280 0.03170 0.03860 0.22400
H 	H 	0.90300 0.98860 0.06180 0.23500
C 	C 	0.99890 0.09750 0.10470 -0.92400
H 	H 	0.98690 0.12890 0.12520 0.27500
H 	H 	0.00520 0.11100 0.07290 0.27700
H 	H 	0.04760 0.07960 0.11490 0.29100
C 	C 	0.16850 0.67010 0.37390 0.29900
V 	V 	0.64455 0.10030 0.70571 1.32800
V 	V 	0.83193 0.16517 0.22345 1.41600
V 	V 	0.58400 0.09669 0.72322 1.43700
V 	V 	0.90760 0.17458 0.23578 1.51700
Cd	Cd	0.40854 0.59846 0.79098 1.22600
Cd	Cd	0.09067 0.67107 0.29081 1.22600
O 	O 	0.41930 0.15410 0.82670 -0.73400
O 	O 	0.40570 0.04120 0.82700 -0.74200
O 	O 	0.28590 0.62070 0.83653 -0.35400
O 	O 	0.40040 0.60340 0.87067 -0.37900
O 	O 	0.17120 0.67440 0.22714 -0.40300
O 	O 	0.54500 0.59290 0.79660 -0.48800
O 	O 	0.66770 0.59870 0.77410 -0.41600
O 	O 	0.11590 0.22540 0.31000 -0.80200
O 	O 	0.09950 0.11600 0.30900 -0.79300
O 	O 	0.90580 0.66820 0.12880 -0.38900
O 	O 	0.78790 0.67580 0.16000 -0.35600
O 	O 	0.04730 0.66620 0.20460 -0.47300
N 	N 	0.36630 0.15240 0.73540 -0.42900
N 	N 	0.34350 0.04490 0.73830 -0.41900
N 	N 	0.42810 0.69310 0.79060 -0.23400
N 	N 	0.41390 0.50430 0.79600 -0.24800
N 	N 	0.08030 0.76600 0.29050 -0.23900
N 	N 	0.09310 0.57480 0.28690 -0.23800
N 	N 	0.18270 0.22250 0.22490 -0.42100
N 	N 	0.14930 0.11530 0.21880 -0.43300
C 	C 	0.41780 0.20900 0.82290 0.32100
C 	C 	0.43390 0.24330 0.86160 -0.30800
C 	C 	0.43520 0.30050 0.85500 0.12900
H 	H 	0.44750 0.32340 0.88080 -0.02800
C 	C 	0.41960 0.32600 0.81280 -0.13900
C 	C 	0.40020 0.29320 0.77580 0.09800
H 	H 	0.38760 0.30990 0.74690 0.00100
C 	C 	0.39890 0.23440 0.78010 -0.24500
C 	C 	0.44830 0.21750 0.90890 0.54100
C 	C 	0.51960 0.17850 0.90820 -0.81500
H 	H 	0.51240 0.15040 0.88400 0.26400
H 	H 	0.52470 0.16020 0.93840 0.23800
H 	H 	0.56710 0.20010 0.90170 0.25500
C 	C 	0.46550 0.26160 0.94760 -0.78600
H 	H 	0.51990 0.27430 0.94500 0.24400
H 	H 	0.45740 0.24470 0.97820 0.23700
H 	H 	0.43000 0.29330 0.94390 0.24900
C 	C 	0.37220 0.18440 0.92490 -0.72600
H 	H 	0.32830 0.21050 0.92850 0.21900
H 	H 	0.38240 0.16610 0.95460 0.20900
H 	H 	0.35880 0.15640 0.90160 0.20200
C 	C 	0.42000 0.38810 0.80760 0.15200
C 	C 	0.45310 0.42250 0.83700 -0.18700
H 	H 	0.47960 0.40730 0.86310 0.09100
C 	C 	0.38190 0.41350 0.76980 -0.18300
H 	H 	0.35820 0.39150 0.74630 0.09900
C 	C 	0.37740 0.20550 0.73820 0.06700
H 	H 	0.37100 0.22690 0.71080 0.01100
C 	C 	0.34900 0.12610 0.68920 -0.01600
H 	H 	0.40000 0.11480 0.67490 -0.00500
C 	C 	0.30480 0.16210 0.65440 -0.12800
H 	H 	0.33600 0.19560 0.64680 0.05500
H 	H 	0.25410 0.17410 0.66780 0.06600
C 	C 	0.29090 0.12740 0.61070 -0.05500
H 	H 	0.26180 0.15010 0.58780 0.02400
H 	H 	0.34200 0.11720 0.59690 0.02000
C 	C 	0.24510 0.07530 0.62090 -0.09100
H 	H 	0.23850 0.05360 0.59200 0.02300
H 	H 	0.19230 0.08540 0.63240 0.05000
C 	C 	0.28650 0.04010 0.65660 -0.08600
H 	H 	0.33690 0.02670 0.64380 0.03100
H 	H 	0.25380 0.00730 0.66400 0.03300
C 	C 	0.30180 0.07290 0.70040 -0.02700
H 	H 	0.24970 0.08490 0.71280 -0.00900
C 	C 	0.35730 0.99350 0.73910 0.08900
H 	H 	0.34400 0.97300 0.71210 -0.02300
C 	C 	0.39120 0.96280 0.77670 -0.26700
C 	C 	0.40140 0.90460 0.77020 0.09200
H 	H 	0.39000 0.88880 0.74080 -0.03400
C 	C 	0.42700 0.87080 0.80520 -0.13400
C 	C 	0.44270 0.89560 0.84860 0.10900
H 	H 	0.46140 0.87280 0.87310 -0.02900
C 	C 	0.43190 0.95230 0.85690 -0.29900
C 	C 	0.40920 0.98650 0.81970 0.32700
C 	C 	0.44410 0.97640 0.90600 0.53700
C 	C 	0.36700 0.00650 0.92240 -0.72900
H 	H 	0.32200 0.98170 0.91800 0.21600
H 	H 	0.35930 0.04050 0.90410 0.20800
H 	H 	0.37160 0.01620 0.95530 0.20100
C 	C 	0.46190 0.92980 0.94220 -0.75000
H 	H 	0.42550 0.89870 0.93760 0.22500
H 	H 	0.45550 0.94470 0.97360 0.20700
H 	H 	0.51590 0.91660 0.93810 0.21600
C 	C 	0.51310 0.01600 0.90660 -0.80900
H 	H 	0.51240 0.03750 0.93540 0.23300
H 	H 	0.50950 0.04130 0.88000 0.25500
H 	H 	0.56210 0.99470 0.90460 0.23900
C 	C 	0.43190 0.81010 0.79880 0.10700
C 	C 	0.39700 0.78360 0.76130 -0.14600
H 	H 	0.37440 0.80530 0.73720 0.03200
C 	C 	0.39440 0.72640 0.75830 0.06700
H 	H 	0.36810 0.70970 0.73280 -0.01600
C 	C 	0.46390 0.71780 0.82610 0.07700
H 	H 	0.48820 0.69490 0.84890 -0.00800
C 	C 	0.46770 0.77520 0.83190 -0.15700
H 	H 	0.49420 0.79070 0.85780 0.06500
C 	C 	0.37920 0.47100 0.76730 0.11300
H 	H 	0.34980 0.48720 0.74280 -0.01600
C 	C 	0.45140 0.48030 0.83200 0.09600
H 	H 	0.47710 0.50300 0.85420 -0.00600
C 	C 	0.32820 0.61790 0.87150 0.29200
C 	C 	0.29490 0.62990 0.91850 -0.08300
C 	C 	0.34290 0.62380 0.95790 0.00300
H 	H 	0.39630 0.61330 0.95420 0.03800
C 	C 	0.31320 0.63300 0.00190 -0.08400
H 	H 	0.34660 0.62880 0.02810 0.04600
C 	C 	0.23380 0.64830 0.00850 0.01700
C 	C 	0.18560 0.65440 0.96840 -0.08800
H 	H 	0.13220 0.66500 0.97150 0.03900
C 	C 	0.21750 0.64450 0.92460 0.00700
H 	H 	0.18480 0.64810 0.89820 0.02000
C 	C 	0.20190 0.65610 0.05590 0.03400
C 	C 	0.25000 0.67360 0.09080 -0.10000
H 	H 	0.30290 0.68310 0.08400 0.04700
C 	C 	0.22290 0.67780 0.13620 0.02100
H 	H 	0.25760 0.68840 0.16040 0.03200
C 	C 	0.14590 0.66650 0.14590 -0.11000
C 	C 	0.09470 0.65090 0.11110 0.02200
H 	H 	0.04110 0.64360 0.11790 0.03700
C 	C 	0.12270 0.64630 0.06620 -0.09600
H 	H 	0.08770 0.63630 0.04200 0.05700
C 	C 	0.12030 0.66930 0.19590 0.34200
C 	C 	0.61600 0.59960 0.80490 0.37100
C 	C 	0.64370 0.61110 0.85350 -0.12200
C 	C 	0.72240 0.62380 0.86040 0.02600
H 	H 	0.75720 0.62600 0.83470 0.03600
C 	C 	0.75000 0.63330 0.90480 -0.10200
H 	H 	0.80430 0.64020 0.90950 0.04500
C 	C 	0.70000 0.63300 0.94280 0.02900
C 	C 	0.62090 0.62200 0.93560 -0.09900
H 	H 	0.58530 0.62190 0.96090 0.05800
C 	C 	0.59390 0.61090 0.89050 0.02800
H 	H 	0.53990 0.60310 0.88560 0.03200
C 	C 	0.73320 0.64300 0.99060 0.02500
C 	C 	0.80790 0.62580 0.00120 -0.09700
H 	H 	0.83780 0.60630 0.97870 0.04800
C 	C 	0.84010 0.63650 0.04410 0.01200
H 	H 	0.89260 0.62550 0.05040 0.02700
C 	C 	0.79700 0.66290 0.07800 -0.08900
C 	C 	0.72060 0.67900 0.06780 0.01000
H 	H 	0.68850 0.69450 0.09140 0.02400
C 	C 	0.69130 0.67240 0.02370 -0.09400
H 	H 	0.64190 0.68820 0.01590 0.04100
C 	C 	0.08130 0.94530 0.29640 -0.13700
C 	C 	0.07660 0.88330 0.29330 0.11600
C 	C 	0.11950 0.85460 0.26040 -0.14900
H 	H 	0.14900 0.87440 0.23790 0.03300
C 	C 	0.11960 0.79620 0.26010 0.07000
H 	H 	0.14930 0.77760 0.23690 -0.01700
C 	C 	0.03830 0.79320 0.32180 0.08400
H 	H 	0.00810 0.77210 0.34310 -0.01100
C 	C 	0.03590 0.85120 0.32540 -0.16200
H 	H 	0.00680 0.86850 0.34950 0.07000
C 	C 	0.14940 0.54650 0.26520 0.09900
H 	H 	0.18850 0.56640 0.24870 -0.00700
C 	C 	0.15270 0.48850 0.26600 -0.18200
H 	H 	0.19410 0.46990 0.25050 0.09900
C 	C 	0.09760 0.45850 0.28870 0.14500
C 	C 	0.03790 0.48760 0.30940 -0.15500
H 	H 	0.99650 0.46800 0.32430 0.07100
C 	C 	0.03740 0.54600 0.30880 0.10700
H 	H 	0.99650 0.56540 0.32420 -0.02400
C 	C 	0.10410 0.39730 0.29260 -0.14100
C 	C 	0.13810 0.36480 0.25960 0.10500
H 	H 	0.15900 0.38160 0.23250 0.00300
C 	C 	0.14280 0.30620 0.26510 -0.25800
C 	C 	0.11400 0.27970 0.30460 0.35700
C 	C 	0.07840 0.31360 0.34010 -0.34300
C 	C 	0.07390 0.37060 0.33210 0.14300
H 	H 	0.04870 0.39300 0.35490 -0.02800
C 	C 	0.04210 0.28650 0.38310 0.67200
C 	C 	0.10120 0.24950 0.40960 -0.89600
H 	H 	0.11600 0.21780 0.39020 0.27200
H 	H 	0.07690 0.23600 0.43830 0.26300
H 	H 	0.14810 0.27130 0.41720 0.27500
C 	C 	0.97240 0.25170 0.36800 -0.94200
H 	H 	0.93130 0.27610 0.35580 0.28600
H 	H 	0.95200 0.23100 0.39460 0.27800
H 	H 	0.98900 0.22560 0.34380 0.26800
C 	C 	0.01230 0.33070 0.41770 -0.87900
H 	H 	0.05070 0.36090 0.42000 0.27800
H 	H 	0.00530 0.31360 0.44830 0.27100
H 	H 	0.96210 0.34560 0.40690 0.26600
C 	C 	0.18030 0.27530 0.22700 0.07200
H 	H 	0.20380 0.29590 0.20260 0.01100
C 	C 	0.22290 0.19260 0.18570 -0.03700
H 	H 	0.27330 0.17750 0.19810 -0.00500
C 	C 	0.24280 0.22710 0.14380 -0.09600
H 	H 	0.28070 0.25640 0.15260 0.06200
H 	H 	0.19470 0.24540 0.13200 0.04300
C 	C 	0.27890 0.18950 0.10510 -0.09000
H 	H 	0.28480 0.21170 0.07640 0.03800
H 	H 	0.33180 0.17730 0.11490 0.04700
C 	C 	0.22950 0.13890 0.09480 -0.05800
H 	H 	0.25700 0.11510 0.07200 0.01200
H 	H 	0.17910 0.15070 0.08090 0.02100
C 	C 	0.21340 0.10520 0.13950 -0.11700
H 	H 	0.18180 0.07180 0.13210 0.03300
H 	H 	0.26370 0.09280 0.15330 0.05100
C 	C 	0.16930 0.14170 0.17380 -0.02400
H 	H 	0.12010 0.15550 0.15880 -0.01000
C 	C 	0.13340 0.06400 0.22040 0.08300
H 	H 	0.13760 0.04300 0.19260 -0.01700
C 	C 	0.10900 0.03540 0.26220 -0.26800
C 	C 	0.10280 0.97680 0.25890 0.10300
H 	H 	0.11370 0.95900 0.23020 -0.02700
C 	C 	0.06850 0.97120 0.33860 0.12200
H 	H 	0.05400 0.94910 0.36450 -0.03100
C 	C 	0.07590 0.02850 0.34440 -0.30800
C 	C 	0.09440 0.06110 0.30610 0.34100
C 	C 	0.06880 0.05490 0.39350 0.52400
C 	C 	0.14520 0.08430 0.40590 -0.76000
H 	H 	0.18920 0.05860 0.40180 0.22000
H 	H 	0.14310 0.09660 0.43830 0.21900
H 	H 	0.15230 0.11660 0.38560 0.20900
C 	C 	0.05070 0.01190 0.43280 -0.74700
H 	H 	0.00650 0.98830 0.42340 0.22400
H 	H 	0.03720 0.03170 0.46140 0.21500
H 	H 	0.09700 0.98860 0.43820 0.22100
C 	C 	0.00110 0.09750 0.39530 -0.69000
H 	H 	0.01310 0.12890 0.37480 0.21800
H 	H 	0.99480 0.11100 0.42710 0.18800
H 	H 	0.95240 0.07960 0.38510 0.20600
C 	C 	0.83150 0.67010 0.12610 0.30100
V 	V 	0.35545 0.10030 0.79429 1.32900
V 	V 	0.16807 0.16517 0.27655 1.41600
V 	V 	0.41600 0.09669 0.77678 1.43700
V 	V 	0.09240 0.17458 0.26422 1.52000
O 	O 	0.50000 0.08890 0.75000 -0.97200
O 	O 	0.00000 0.18480 0.25000 -0.98900
Cd	Cd	0.40854 0.40154 0.20902 1.22600
Cd	Cd	0.09067 0.32893 0.70919 1.22600
O 	O 	0.41930 0.84590 0.17330 -0.73400
O 	O 	0.40570 0.95880 0.17300 -0.74200
O 	O 	0.28590 0.37930 0.16347 -0.35400
O 	O 	0.40040 0.39660 0.12933 -0.37900
O 	O 	0.17120 0.32560 0.77286 -0.40300
O 	O 	0.54500 0.40710 0.20340 -0.48800
O 	O 	0.66770 0.40130 0.22590 -0.41600
O 	O 	0.11590 0.77460 0.69000 -0.80200
O 	O 	0.09950 0.88400 0.69100 -0.79300
O 	O 	0.90580 0.33180 0.87120 -0.38900
O 	O 	0.78790 0.32420 0.84000 -0.35600
O 	O 	0.04730 0.33380 0.79540 -0.47300
N 	N 	0.36630 0.84760 0.26460 -0.42900
N 	N 	0.34350 0.95510 0.26170 -0.41900
N 	N 	0.42810 0.30690 0.20940 -0.23400
N 	N 	0.41390 0.49570 0.20400 -0.24800
N 	N 	0.08030 0.23400 0.70950 -0.23900
N 	N 	0.09310 0.42520 0.71310 -0.23800
N 	N 	0.18270 0.77750 0.77510 -0.42100
N 	N 	0.14930 0.88470 0.78120 -0.43300
C 	C 	0.41780 0.79100 0.17710 0.32100
C 	C 	0.43390 0.75670 0.13840 -0.30800
C 	C 	0.43520 0.69950 0.14500 0.12900
H 	H 	0.44750 0.67660 0.11920 -0.02800
C 	C 	0.41960 0.67400 0.18720 -0.13900
C 	C 	0.40020 0.70680 0.22420 0.09800
H 	H 	0.38760 0.69010 0.25310 0.00100
C 	C 	0.39890 0.76560 0.21990 -0.24500
C 	C 	0.44830 0.78250 0.09110 0.54100
C 	C 	0.51960 0.82150 0.09180 -0.81500
H 	H 	0.51240 0.84960 0.11600 0.26400
H 	H 	0.52470 0.83980 0.06160 0.23800
H 	H 	0.56710 0.79990 0.09830 0.25500
C 	C 	0.46550 0.73840 0.05240 -0.78600
H 	H 	0.51990 0.72570 0.05500 0.24400
H 	H 	0.45740 0.75530 0.02180 0.23700
H 	H 	0.43000 0.70670 0.05610 0.24900
C 	C 	0.37220 0.81560 0.07510 -0.72600
H 	H 	0.32830 0.78950 0.07150 0.21900
H 	H 	0.38240 0.83390 0.04540 0.20900
H 	H 	0.35880 0.84360 0.09840 0.20200
C 	C 	0.42000 0.61190 0.19240 0.15200
C 	C 	0.45310 0.57750 0.16300 -0.18700
H 	H 	0.47960 0.59270 0.13690 0.09100
C 	C 	0.38190 0.58650 0.23020 -0.18300
H 	H 	0.35820 0.60850 0.25370 0.09900
C 	C 	0.37740 0.79450 0.26180 0.06700
H 	H 	0.37100 0.77310 0.28920 0.01100
C 	C 	0.34900 0.87390 0.31080 -0.01600
H 	H 	0.40000 0.88520 0.32510 -0.00500
C 	C 	0.30480 0.83790 0.34560 -0.12800
H 	H 	0.33600 0.80440 0.35320 0.05500
H 	H 	0.25410 0.82590 0.33220 0.06600
C 	C 	0.29090 0.87260 0.38930 -0.05500
H 	H 	0.26180 0.84990 0.41220 0.02400
H 	H 	0.34200 0.88280 0.40310 0.02000
C 	C 	0.24510 0.92470 0.37910 -0.09100
H 	H 	0.23850 0.94640 0.40800 0.02300
H 	H 	0.19230 0.91460 0.36760 0.05000
C 	C 	0.28650 0.95990 0.34340 -0.08600
H 	H 	0.33690 0.97330 0.35620 0.03100
H 	H 	0.25380 0.99270 0.33600 0.03300
C 	C 	0.30180 0.92710 0.29960 -0.02700
H 	H 	0.24970 0.91510 0.28720 -0.00900
C 	C 	0.35730 0.00650 0.26090 0.08900
H 	H 	0.34400 0.02700 0.28790 -0.02300
C 	C 	0.39120 0.03720 0.22330 -0.26700
C 	C 	0.40140 0.09540 0.22980 0.09200
H 	H 	0.39000 0.11120 0.25920 -0.03400
C 	C 	0.42700 0.12920 0.19480 -0.13400
C 	C 	0.44270 0.10440 0.15140 0.10900
H 	H 	0.46140 0.12720 0.12690 -0.02900
C 	C 	0.43190 0.04770 0.14310 -0.29900
C 	C 	0.40920 0.01350 0.18030 0.32700
C 	C 	0.44410 0.02360 0.09400 0.53700
C 	C 	0.36700 0.99350 0.07760 -0.72900
H 	H 	0.32200 0.01830 0.08200 0.21600
H 	H 	0.35930 0.95950 0.09590 0.20800
H 	H 	0.37160 0.98380 0.04470 0.20100
C 	C 	0.46190 0.07020 0.05780 -0.75000
H 	H 	0.42550 0.10130 0.06240 0.22500
H 	H 	0.45550 0.05530 0.02640 0.20700
H 	H 	0.51590 0.08340 0.06190 0.21600
C 	C 	0.51310 0.98400 0.09340 -0.80900
H 	H 	0.51240 0.96250 0.06460 0.23300
H 	H 	0.50950 0.95870 0.12000 0.25500
H 	H 	0.56210 0.00530 0.09540 0.23900
C 	C 	0.43190 0.18990 0.20120 0.10700
C 	C 	0.39700 0.21640 0.23870 -0.14600
H 	H 	0.37440 0.19470 0.26280 0.03200
C 	C 	0.39440 0.27360 0.24170 0.06700
H 	H 	0.36810 0.29030 0.26720 -0.01600
C 	C 	0.46390 0.28220 0.17390 0.07700
H 	H 	0.48820 0.30510 0.15110 -0.00800
C 	C 	0.46770 0.22480 0.16810 -0.15700
H 	H 	0.49420 0.20930 0.14220 0.06500
C 	C 	0.37920 0.52900 0.23270 0.11300
H 	H 	0.34980 0.51280 0.25720 -0.01600
C 	C 	0.45140 0.51970 0.16800 0.09600
H 	H 	0.47710 0.49700 0.14580 -0.00600
C 	C 	0.32820 0.38210 0.12850 0.29200
C 	C 	0.29490 0.37010 0.08150 -0.08300
C 	C 	0.34290 0.37620 0.04210 0.00300
H 	H 	0.39630 0.38670 0.04580 0.03800
C 	C 	0.31320 0.36700 0.99810 -0.08400
H 	H 	0.34660 0.37120 0.97190 0.04600
C 	C 	0.23380 0.35170 0.99150 0.01700
C 	C 	0.18560 0.34560 0.03160 -0.08800
H 	H 	0.13220 0.33500 0.02850 0.03900
C 	C 	0.21750 0.35550 0.07540 0.00700
H 	H 	0.18480 0.35190 0.10180 0.02000
C 	C 	0.20190 0.34390 0.94410 0.03400
C 	C 	0.25000 0.32640 0.90920 -0.10000
H 	H 	0.30290 0.31690 0.91600 0.04700
C 	C 	0.22290 0.32220 0.86380 0.02100
H 	H 	0.25760 0.31160 0.83960 0.03200
C 	C 	0.14590 0.33350 0.85410 -0.11000
C 	C 	0.09470 0.34910 0.88890 0.02200
H 	H 	0.04110 0.35640 0.88210 0.03700
C 	C 	0.12270 0.35370 0.93380 -0.09600
H 	H 	0.08770 0.36370 0.95800 0.05700
C 	C 	0.12030 0.33070 0.80410 0.34200
C 	C 	0.61600 0.40040 0.19510 0.37100
C 	C 	0.64370 0.38890 0.14650 -0.12200
C 	C 	0.72240 0.37620 0.13960 0.02600
H 	H 	0.75720 0.37400 0.16530 0.03600
C 	C 	0.75000 0.36670 0.09520 -0.10200
H 	H 	0.80430 0.35980 0.09050 0.04500
C 	C 	0.70000 0.36700 0.05720 0.02900
C 	C 	0.62090 0.37800 0.06440 -0.09900
H 	H 	0.58530 0.37810 0.03910 0.05800
C 	C 	0.59390 0.38910 0.10950 0.02800
H 	H 	0.53990 0.39690 0.11440 0.03200
C 	C 	0.73320 0.35700 0.00940 0.02500
C 	C 	0.80790 0.37420 0.99880 -0.09700
H 	H 	0.83780 0.39370 0.02130 0.04800
C 	C 	0.84010 0.36350 0.95590 0.01200
H 	H 	0.89260 0.37450 0.94960 0.02700
C 	C 	0.79700 0.33710 0.92200 -0.08900
C 	C 	0.72060 0.32100 0.93220 0.01000
H 	H 	0.68850 0.30550 0.90860 0.02400
C 	C 	0.69130 0.32760 0.97630 -0.09400
H 	H 	0.64190 0.31180 0.98410 0.04100
C 	C 	0.08130 0.05470 0.70360 -0.13700
C 	C 	0.07660 0.11670 0.70670 0.11600
C 	C 	0.11950 0.14540 0.73960 -0.14900
H 	H 	0.14900 0.12560 0.76210 0.03300
C 	C 	0.11960 0.20380 0.73990 0.07000
H 	H 	0.14930 0.22240 0.76310 -0.01700
C 	C 	0.03830 0.20680 0.67820 0.08400
H 	H 	0.00810 0.22790 0.65690 -0.01100
C 	C 	0.03590 0.14880 0.67460 -0.16200
H 	H 	0.00680 0.13150 0.65050 0.07000
C 	C 	0.14940 0.45350 0.73480 0.09900
H 	H 	0.18850 0.43360 0.75130 -0.00700
C 	C 	0.15270 0.51150 0.73400 -0.18200
H 	H 	0.19410 0.53010 0.74950 0.09900
C 	C 	0.09760 0.54150 0.71130 0.14500
C 	C 	0.03790 0.51240 0.69060 -0.15500
H 	H 	0.99650 0.53200 0.67570 0.07100
C 	C 	0.03740 0.45400 0.69120 0.10700
H 	H 	0.99650 0.43460 0.67580 -0.02400
C 	C 	0.10410 0.60270 0.70740 -0.14100
C 	C 	0.13810 0.63520 0.74040 0.10500
H 	H 	0.15900 0.61840 0.76750 0.00300
C 	C 	0.14280 0.69380 0.73490 -0.25800
C 	C 	0.11400 0.72030 0.69540 0.35700
C 	C 	0.07840 0.68640 0.65990 -0.34300
C 	C 	0.07390 0.62940 0.66790 0.14300
H 	H 	0.04870 0.60700 0.64510 -0.02800
C 	C 	0.04210 0.71350 0.61690 0.67200
C 	C 	0.10120 0.75050 0.59040 -0.89600
H 	H 	0.11600 0.78220 0.60980 0.27200
H 	H 	0.07690 0.76400 0.56170 0.26300
H 	H 	0.14810 0.72870 0.58280 0.27500
C 	C 	0.97240 0.74830 0.63200 -0.94200
H 	H 	0.93130 0.72390 0.64420 0.28600
H 	H 	0.95200 0.76900 0.60540 0.27800
H 	H 	0.98900 0.77440 0.65620 0.26800
C 	C 	0.01230 0.66930 0.58230 -0.87900
H 	H 	0.05070 0.63910 0.58000 0.27800
H 	H 	0.00530 0.68640 0.55170 0.27100
H 	H 	0.96210 0.65440 0.59310 0.26600
C 	C 	0.18030 0.72470 0.77300 0.07200
H 	H 	0.20380 0.70410 0.79740 0.01100
C 	C 	0.22290 0.80740 0.81430 -0.03700
H 	H 	0.27330 0.82250 0.80190 -0.00500
C 	C 	0.24280 0.77290 0.85620 -0.09600
H 	H 	0.28070 0.74360 0.84740 0.06200
H 	H 	0.19470 0.75460 0.86800 0.04300
C 	C 	0.27890 0.81050 0.89490 -0.09000
H 	H 	0.28480 0.78830 0.92360 0.03800
H 	H 	0.33180 0.82270 0.88510 0.04700
C 	C 	0.22950 0.86110 0.90520 -0.05800
H 	H 	0.25700 0.88490 0.92800 0.01200
H 	H 	0.17910 0.84930 0.91910 0.02100
C 	C 	0.21340 0.89480 0.86050 -0.11700
H 	H 	0.18180 0.92820 0.86790 0.03300
H 	H 	0.26370 0.90720 0.84670 0.05100
C 	C 	0.16930 0.85830 0.82620 -0.02400
H 	H 	0.12010 0.84450 0.84120 -0.01000
C 	C 	0.13340 0.93600 0.77960 0.08300
H 	H 	0.13760 0.95700 0.80740 -0.01700
C 	C 	0.10900 0.96460 0.73780 -0.26800
C 	C 	0.10280 0.02320 0.74110 0.10300
H 	H 	0.11370 0.04100 0.76980 -0.02700
C 	C 	0.06850 0.02880 0.66140 0.12200
H 	H 	0.05400 0.05090 0.63550 -0.03100
C 	C 	0.07590 0.97150 0.65560 -0.30800
C 	C 	0.09440 0.93890 0.69390 0.34100
C 	C 	0.06880 0.94510 0.60650 0.52400
C 	C 	0.14520 0.91570 0.59410 -0.76000
H 	H 	0.18920 0.94140 0.59820 0.22000
H 	H 	0.14310 0.90340 0.56170 0.21900
H 	H 	0.15230 0.88340 0.61440 0.20900
C 	C 	0.05070 0.98810 0.56720 -0.74700
H 	H 	0.00650 0.01170 0.57660 0.22400
H 	H 	0.03720 0.96830 0.53860 0.21500
H 	H 	0.09700 0.01140 0.56180 0.22100
C 	C 	0.00110 0.90250 0.60470 -0.69000
H 	H 	0.01310 0.87110 0.62520 0.21800
H 	H 	0.99480 0.88900 0.57290 0.18800
H 	H 	0.95240 0.92040 0.61490 0.20600
C 	C 	0.83150 0.32990 0.87390 0.30100
V 	V 	0.35545 0.89970 0.20571 1.32900
V 	V 	0.16807 0.83483 0.72345 1.41600
V 	V 	0.41600 0.90331 0.22322 1.43700
V 	V 	0.09240 0.82542 0.73578 1.52000
Cd	Cd	0.59146 0.40154 0.29098 1.22600
Cd	Cd	0.90933 0.32893 0.79081 1.22200
O 	O 	0.58070 0.84590 0.32670 -0.73400
O 	O 	0.59430 0.95880 0.32700 -0.74300
O 	O 	0.71410 0.37930 0.33653 -0.35400
O 	O 	0.59960 0.39660 0.37067 -0.37900
O 	O 	0.82880 0.32560 0.72714 -0.40500
O 	O 	0.45500 0.40710 0.29660 -0.48800
O 	O 	0.33230 0.40130 0.27410 -0.41600
O 	O 	0.88410 0.77460 0.81000 -0.80700
O 	O 	0.90050 0.88400 0.80900 -0.80300
O 	O 	0.09420 0.33180 0.62880 -0.37900
O 	O 	0.21210 0.32420 0.66000 -0.35500
O 	O 	0.95270 0.33380 0.70460 -0.48700
N 	N 	0.63370 0.84760 0.23540 -0.42900
N 	N 	0.65650 0.95510 0.23830 -0.41900
N 	N 	0.57190 0.30690 0.29060 -0.23400
N 	N 	0.58610 0.49570 0.29600 -0.24800
N 	N 	0.91970 0.23400 0.79050 -0.24200
N 	N 	0.90690 0.42520 0.78690 -0.23800
N 	N 	0.81730 0.77750 0.72490 -0.42200
N 	N 	0.85070 0.88470 0.71880 -0.43500
C 	C 	0.58220 0.79100 0.32290 0.32000
C 	C 	0.56610 0.75670 0.36160 -0.30800
C 	C 	0.56480 0.69950 0.35500 0.12900
H 	H 	0.55250 0.67660 0.38080 -0.02800
C 	C 	0.58040 0.67400 0.31280 -0.13900
C 	C 	0.59980 0.70680 0.27580 0.09800
H 	H 	0.61240 0.69010 0.24690 0.00100
C 	C 	0.60110 0.76560 0.28010 -0.24500
C 	C 	0.55170 0.78250 0.40890 0.54000
C 	C 	0.48040 0.82150 0.40820 -0.81400
H 	H 	0.48760 0.84960 0.38400 0.26300
H 	H 	0.47530 0.83980 0.43840 0.23800
H 	H 	0.43290 0.79990 0.40170 0.25500
C 	C 	0.53450 0.73840 0.44760 -0.78500
H 	H 	0.48010 0.72570 0.44500 0.24400
H 	H 	0.54260 0.75530 0.47820 0.23600
H 	H 	0.57000 0.70670 0.44390 0.24800
C 	C 	0.62780 0.81560 0.42490 -0.72400
H 	H 	0.67170 0.78950 0.42850 0.21800
H 	H 	0.61760 0.83390 0.45460 0.20800
H 	H 	0.64120 0.84360 0.40160 0.20000
C 	C 	0.58000 0.61190 0.30760 0.15200
C 	C 	0.54690 0.57750 0.33700 -0.18700
H 	H 	0.52040 0.59270 0.36310 0.09100
C 	C 	0.61810 0.58650 0.26980 -0.18300
H 	H 	0.64180 0.60850 0.24630 0.09900
C 	C 	0.62260 0.79450 0.23820 0.06700
H 	H 	0.62900 0.77310 0.21080 0.01100
C 	C 	0.65100 0.87390 0.18920 -0.01600
H 	H 	0.60000 0.88520 0.17490 -0.00500
C 	C 	0.69520 0.83790 0.15440 -0.12800
H 	H 	0.66400 0.80440 0.14680 0.05400
H 	H 	0.74590 0.82590 0.16780 0.06600
C 	C 	0.70910 0.87260 0.11070 -0.05500
H 	H 	0.73820 0.84990 0.08780 0.02300
H 	H 	0.65800 0.88280 0.09690 0.02000
C 	C 	0.75490 0.92470 0.12090 -0.09100
H 	H 	0.76150 0.94640 0.09200 0.02100
H 	H 	0.80770 0.91460 0.13240 0.04900
C 	C 	0.71350 0.95990 0.15660 -0.08600
H 	H 	0.66310 0.97330 0.14380 0.03100
H 	H 	0.74620 0.99270 0.16400 0.03300
C 	C 	0.69820 0.92710 0.20040 -0.02700
H 	H 	0.75030 0.91510 0.21280 -0.00900
C 	C 	0.64270 0.00650 0.23910 0.08900
H 	H 	0.65600 0.02700 0.21210 -0.02300
C 	C 	0.60880 0.03720 0.27670 -0.26700
C 	C 	0.59860 0.09540 0.27020 0.09200
H 	H 	0.61000 0.11120 0.24080 -0.03400
C 	C 	0.57300 0.12920 0.30520 -0.13400
C 	C 	0.55730 0.10440 0.34860 0.11000
H 	H 	0.53860 0.12720 0.37310 -0.02900
C 	C 	0.56810 0.04770 0.35690 -0.29900
C 	C 	0.59080 0.01350 0.31970 0.32700
C 	C 	0.55590 0.02360 0.40600 0.53900
C 	C 	0.63300 0.99350 0.42240 -0.73000
H 	H 	0.67800 0.01830 0.41800 0.21500
H 	H 	0.64070 0.95950 0.40410 0.20700
H 	H 	0.62840 0.98380 0.45530 0.20100
C 	C 	0.53810 0.07020 0.44220 -0.75100
H 	H 	0.57450 0.10130 0.43760 0.22500
H 	H 	0.54450 0.05530 0.47360 0.20800
H 	H 	0.48410 0.08340 0.43810 0.21700
C 	C 	0.48690 0.98400 0.40660 -0.81200
H 	H 	0.48760 0.96250 0.43540 0.23400
H 	H 	0.49050 0.95870 0.38000 0.25600
H 	H 	0.43790 0.00530 0.40460 0.24000
C 	C 	0.56810 0.18990 0.29880 0.10700
C 	C 	0.60300 0.21640 0.26130 -0.14600
H 	H 	0.62560 0.19470 0.23720 0.03200
C 	C 	0.60560 0.27360 0.25830 0.06700
H 	H 	0.63190 0.29030 0.23280 -0.01600
C 	C 	0.53610 0.28220 0.32610 0.07700
H 	H 	0.51180 0.30510 0.34890 -0.00800
C 	C 	0.53230 0.22480 0.33190 -0.15700
H 	H 	0.50580 0.20930 0.35780 0.06600
C 	C 	0.62080 0.52900 0.26730 0.11300
H 	H 	0.65020 0.51280 0.24280 -0.01600
C 	C 	0.54860 0.51970 0.33200 0.09600
H 	H 	0.52290 0.49700 0.35420 -0.00600
C 	C 	0.67180 0.38210 0.37150 0.29200
C 	C 	0.70510 0.37010 0.41850 -0.08200
C 	C 	0.65710 0.37620 0.45790 0.00200
H 	H 	0.60370 0.38670 0.45420 0.03800
C 	C 	0.68680 0.36700 0.50190 -0.08300
H 	H 	0.65340 0.37120 0.52810 0.04600
C 	C 	0.76620 0.35170 0.50850 0.01400
C 	C 	0.81440 0.34560 0.46840 -0.08700
H 	H 	0.86780 0.33500 0.47150 0.03400
C 	C 	0.78250 0.35550 0.42460 0.00400
H 	H 	0.81520 0.35190 0.39820 0.02000
C 	C 	0.79810 0.34390 0.55590 0.03500
C 	C 	0.75000 0.32640 0.59080 -0.10300
H 	H 	0.69710 0.31690 0.58400 0.04700
C 	C 	0.77710 0.32220 0.63620 0.02300
H 	H 	0.74240 0.31160 0.66040 0.03100
C 	C 	0.85410 0.33350 0.64590 -0.11600
C 	C 	0.90530 0.34910 0.61110 0.02400
H 	H 	0.95890 0.35640 0.61790 0.02800
C 	C 	0.87730 0.35370 0.56620 -0.10000
H 	H 	0.91230 0.36370 0.54200 0.05200
C 	C 	0.87970 0.33070 0.69590 0.34500
C 	C 	0.38400 0.40040 0.30490 0.37100
C 	C 	0.35630 0.38890 0.35350 -0.12300
C 	C 	0.27760 0.37620 0.36040 0.02700
H 	H 	0.24280 0.37400 0.33470 0.03500
C 	C 	0.25000 0.36670 0.40480 -0.10200
H 	H 	0.19570 0.35980 0.40950 0.04600
C 	C 	0.30000 0.36700 0.44280 0.03000
C 	C 	0.37910 0.37800 0.43560 -0.10000
H 	H 	0.41470 0.37810 0.46090 0.05900
C 	C 	0.40610 0.38910 0.39050 0.02800
H 	H 	0.46010 0.39690 0.38560 0.03200
C 	C 	0.26680 0.35700 0.49060 0.02400
C 	C 	0.19210 0.37420 0.50120 -0.09400
H 	H 	0.16220 0.39370 0.47870 0.05000
C 	C 	0.15990 0.36350 0.54410 0.01000
H 	H 	0.10740 0.37450 0.55040 0.03300
C 	C 	0.20300 0.33710 0.57800 -0.08500
C 	C 	0.27940 0.32100 0.56780 0.00900
H 	H 	0.31150 0.30550 0.59140 0.02500
C 	C 	0.30870 0.32760 0.52370 -0.09300
H 	H 	0.35810 0.31180 0.51590 0.04000
C 	C 	0.91870 0.05470 0.79640 -0.15200
C 	C 	0.92340 0.11670 0.79330 0.11700
C 	C 	0.88050 0.14540 0.76040 -0.15400
H 	H 	0.85100 0.12560 0.73790 0.03200
C 	C 	0.88040 0.20380 0.76010 0.06800
H 	H 	0.85070 0.22240 0.73690 -0.01900
C 	C 	0.96170 0.20680 0.82180 0.08100
H 	H 	0.99190 0.22790 0.84310 -0.01900
C 	C 	0.96410 0.14880 0.82540 -0.16700
H 	H 	0.99320 0.13150 0.84950 0.06500
C 	C 	0.85060 0.45350 0.76520 0.10300
H 	H 	0.81150 0.43360 0.74870 -0.00800
C 	C 	0.84730 0.51150 0.76600 -0.19300
H 	H 	0.80590 0.53010 0.75050 0.10200
C 	C 	0.90240 0.54150 0.78870 0.16200
C 	C 	0.96210 0.51240 0.80940 -0.20000
H 	H 	0.00350 0.53200 0.82430 0.10500
C 	C 	0.96260 0.45400 0.80880 0.07600
H 	H 	0.00350 0.43460 0.82420 0.00400
C 	C 	0.89590 0.60270 0.79260 -0.15600
C 	C 	0.86190 0.63520 0.75960 0.11100
H 	H 	0.84100 0.61840 0.73250 -0.00100
C 	C 	0.85720 0.69380 0.76510 -0.26400
C 	C 	0.88600 0.72030 0.80460 0.35700
C 	C 	0.92160 0.68640 0.84010 -0.35100
C 	C 	0.92610 0.62940 0.83210 0.14800
H 	H 	0.95130 0.60700 0.85490 -0.03800
C 	C 	0.95790 0.71350 0.88310 0.66400
C 	C 	0.89880 0.75050 0.90960 -0.88800
H 	H 	0.88400 0.78220 0.89020 0.26500
H 	H 	0.92310 0.76400 0.93830 0.25400
H 	H 	0.85190 0.72870 0.91720 0.27300
C 	C 	0.02760 0.74830 0.86800 -0.90900
H 	H 	0.06870 0.72390 0.85580 0.28200
H 	H 	0.04800 0.76900 0.89460 0.27500
H 	H 	0.01100 0.77440 0.84380 0.26800
C 	C 	0.98770 0.66930 0.91770 -0.95600
H 	H 	0.94930 0.63910 0.92000 0.29600
H 	H 	0.99470 0.68640 0.94830 0.28300
H 	H 	0.03790 0.65440 0.90690 0.30600
C 	C 	0.81970 0.72470 0.72700 0.07200
H 	H 	0.79620 0.70410 0.70260 0.01000
C 	C 	0.77710 0.80740 0.68570 -0.03800
H 	H 	0.72670 0.82250 0.69810 -0.00500
C 	C 	0.75720 0.77290 0.64380 -0.09500
H 	H 	0.71930 0.74360 0.65260 0.06200
H 	H 	0.80530 0.75460 0.63200 0.04200
C 	C 	0.72110 0.81050 0.60510 -0.09200
H 	H 	0.71520 0.78830 0.57640 0.03800
H 	H 	0.66820 0.82270 0.61490 0.04700
C 	C 	0.77050 0.86110 0.59480 -0.05600
H 	H 	0.74300 0.88490 0.57200 0.01100
H 	H 	0.82090 0.84930 0.58090 0.02000
C 	C 	0.78660 0.89480 0.63950 -0.11800
H 	H 	0.81820 0.92820 0.63210 0.03400
H 	H 	0.73630 0.90720 0.65330 0.05100
C 	C 	0.83070 0.85830 0.67380 -0.02300
H 	H 	0.87990 0.84450 0.65880 -0.01200
C 	C 	0.86660 0.93600 0.72040 0.08500
H 	H 	0.86240 0.95700 0.69260 -0.02000
C 	C 	0.89100 0.96460 0.76220 -0.28000
C 	C 	0.89720 0.02320 0.75890 0.11000
H 	H 	0.88630 0.04100 0.73020 -0.03400
C 	C 	0.93150 0.02880 0.83860 0.14100
H 	H 	0.94600 0.05090 0.86450 -0.04100
C 	C 	0.92410 0.97150 0.84440 -0.34500
C 	C 	0.90560 0.93890 0.80610 0.35300
C 	C 	0.93120 0.94510 0.89350 0.60400
C 	C 	0.85480 0.91570 0.90590 -0.82900
H 	H 	0.81080 0.94140 0.90180 0.24000
H 	H 	0.85690 0.90340 0.93830 0.23600
H 	H 	0.84770 0.88340 0.88560 0.22800
C 	C 	0.94930 0.98810 0.93280 -0.80400
H 	H 	0.99350 0.01170 0.92340 0.23300
H 	H 	0.96280 0.96830 0.96140 0.22400
H 	H 	0.90300 0.01140 0.93820 0.23500
C 	C 	0.99890 0.90250 0.89530 -0.92400
H 	H 	0.98690 0.87110 0.87480 0.27500
H 	H 	0.00520 0.88900 0.92710 0.27700
H 	H 	0.04760 0.92040 0.88510 0.29100
C 	C 	0.16850 0.32990 0.62610 0.29900
V 	V 	0.64455 0.89970 0.29429 1.32800
V 	V 	0.83193 0.83483 0.77655 1.41600
V 	V 	0.58400 0.90331 0.27678 1.43700
V 	V 	0.90760 0.82542 0.76422 1.51700
O 	O 	0.50000 0.91110 0.25000 -0.97200
O 	O 	-0.00000 0.81520 0.75000 -0.98900
