data_crystal

_cell_length_a 17.22700
_cell_length_b 24.04350
_cell_length_c 28.83850
_cell_angle_alpha 90.00000
_cell_angle_beta  90.00000
_cell_angle_gamma 90.00000

_symmetry_space_group_name_	'P 1'
_symmetry_space_group_name_H-M	'P 1'

loop_
_symmetry_equiv_pos_as_xyz
  x,y,z

loop_
_atom_site_label
_atom_site_type_symbol
_atom_site_fract_x
_atom_site_fract_y
_atom_site_fract_z
_atom_site_charge
Cd	Cd	0.90833 0.39461 0.70964 1.22200
Cd	Cd	0.59221 0.33387 0.21069 1.22400
O 	O 	0.60120 0.88950 0.19340 -0.84800
N 	N 	0.92540 0.29960 0.70960 -0.24800
N 	N 	0.59510 0.42990 0.21520 -0.25100
V 	V 	0.67067 0.83941 0.22595 1.39300
N 	N 	0.91470 0.49060 0.70490 -0.26700
N 	N 	0.58190 0.23900 0.21200 -0.24700
O 	O 	0.66820 0.33160 0.27580 -0.39800
O 	O 	0.89630 0.38840 0.63030 -0.39200
O 	O 	0.60040 0.33600 0.13200 -0.40000
C 	C 	0.61500 0.33370 0.30700 0.33600
O 	O 	0.54450 0.33830 0.29640 -0.47800
O 	O 	0.95610 0.39860 0.79850 -0.50200
C 	C 	0.88590 0.39270 0.80640 0.39600
O 	O 	0.83630 0.39390 0.77570 -0.43200
O 	O 	0.61820 0.77960 0.19340 -0.88800
O 	O 	0.78510 0.37690 0.66600 -0.36300
C 	C 	0.82490 0.37590 0.63050 0.30500
C 	C 	0.60320 0.54700 0.21270 0.20700
C 	C 	0.64120 0.33430 0.35580 -0.10500
O 	O 	0.91600 0.83730 0.67400 -0.83400
C 	C 	0.85840 0.38190 0.85510 -0.13800
C 	C 	0.88090 0.36980 0.93730 -0.11600
H 	H 	0.91530 0.36940 0.96220 0.05000
C 	C 	0.62190 0.20740 0.24280 0.08600
H 	H 	0.65060 0.22540 0.26560 -0.02700
C 	C 	0.61580 0.34560 0.43790 -0.08000
H 	H 	0.58100 0.35170 0.46200 0.03800
O 	O 	0.71560 0.32410 0.16290 -0.35900
C 	C 	0.78060 0.37180 0.86280 0.03200
H 	H 	0.74630 0.37110 0.83790 0.03000
C 	C 	0.62240 0.15090 0.24230 -0.18400
H 	H 	0.65040 0.13140 0.26460 0.04400
C 	C 	0.67310 0.33080 0.12910 0.30700
N 	N 	0.84460 0.94950 0.76220 -0.41800
C 	C 	0.61670 0.72460 0.19770 0.48700
N 	N 	0.65650 0.88930 0.28350 -0.43300
C 	C 	0.87390 0.52320 0.73410 0.15300
H 	H 	0.84210 0.50660 0.75620 -0.03400
C 	C 	0.58080 0.12170 0.20810 0.15000
C 	C 	0.54060 0.46110 0.19360 0.12000
H 	H 	0.49960 0.44280 0.17920 -0.02000
C 	C 	0.69570 0.36970 0.00310 -0.09000
H 	H 	0.66670 0.38820 0.98060 0.03800
C 	C 	0.91700 0.60440 0.69480 0.24200
C 	C 	0.87780 0.57800 0.73230 -0.26200
H 	H 	0.85500 0.59930 0.75550 0.12800
C 	C 	0.57780 0.63540 0.17070 0.37200
H 	H 	0.55380 0.61330 0.14850 -0.13100
C 	C 	0.93480 0.69270 0.64690 0.47000
H 	H 	0.94930 0.67020 0.62210 -0.18000
C 	C 	0.74440 0.32860 0.41070 -0.08500
H 	H 	0.79690 0.32320 0.41650 0.00800
C 	C 	0.93000 0.18290 0.70070 0.15000
C 	C 	0.71840 0.32640 0.36640 0.00100
H 	H 	0.75350 0.31950 0.34260 0.03600
C 	C 	0.69400 0.33860 0.44810 -0.00100
C 	C 	0.58440 0.05990 0.20550 -0.20400
C 	C 	0.91110 0.00670 0.67980 0.40500
C 	C 	0.95370 0.51220 0.67160 0.15600
H 	H 	0.97970 0.48930 0.65080 -0.03800
N 	N 	0.68830 0.78270 0.27740 -0.42600
C 	C 	0.65130 0.45720 0.23610 0.13000
H 	H 	0.68800 0.43680 0.25250 -0.01900
C 	C 	0.60370 0.02790 0.24390 0.15200
H 	H 	0.61180 0.04530 0.27230 -0.04900
C 	C 	0.54240 0.51790 0.19190 -0.22700
H 	H 	0.50300 0.53720 0.17670 0.10600
C 	C 	0.77170 0.35080 0.99180 0.00200
C 	C 	0.80680 0.35930 0.49990 -0.10400
H 	H 	0.83860 0.35960 0.47380 0.01800
C 	C 	0.83850 0.36760 0.54360 0.00200
H 	H 	0.89160 0.37340 0.54690 0.02300
C 	C 	0.79090 0.36720 0.58250 -0.09100
C 	C 	0.71150 0.35850 0.57767 0.01000
H 	H 	0.67970 0.35820 0.60370 0.00200
C 	C 	0.67980 0.35020 0.53390 -0.10900
H 	H 	0.62670 0.34440 0.53060 0.02800
C 	C 	0.72740 0.35060 0.49498 0.02700
C 	C 	0.66400 0.36140 0.04610 -0.00500
H 	H 	0.61320 0.37230 0.05210 0.03000
C 	C 	0.75310 0.36260 0.90740 -0.11700
H 	H 	0.70010 0.35770 0.91200 0.03500
C 	C 	0.64940 0.69820 0.23770 -0.34700
C 	C 	0.59640 0.94260 0.19690 0.44200
C 	C 	0.58030 0.69170 0.16300 -0.66600
C 	C 	0.89390 0.70060 0.72750 0.23900
H 	H 	0.88010 0.68530 0.75590 -0.05300
C 	C 	0.60880 0.60930 0.20950 -0.27900
C 	C 	0.54030 0.21100 0.18090 0.10000
H 	H 	0.50990 0.23140 0.16050 -0.02700
C 	C 	0.64470 0.64070 0.24160 0.22100
H 	H 	0.66710 0.62340 0.26720 -0.03700
C 	C 	0.71320 0.89840 0.36470 -0.15800
H 	H 	0.76260 0.91170 0.35300 0.06000
H 	H 	0.68090 0.93030 0.37190 0.03100
C 	C 	0.90150 0.08880 0.72940 0.15900
H 	H 	0.89080 0.10470 0.75810 -0.06200
C 	C 	0.57090 0.03330 0.16350 0.23600
H 	H 	0.55600 0.05450 0.13800 -0.08700
C 	C 	0.67350 0.86240 0.32790 0.00000
H 	H 	0.62450 0.84870 0.34090 -0.03700
C 	C 	0.65910 0.51460 0.23510 -0.23200
H 	H 	0.70150 0.53140 0.24920 0.12000
C 	C 	0.57900 0.97560 0.15800 -0.49800
C 	C 	0.53900 0.15350 0.17670 -0.19900
H 	H 	0.51050 0.13660 0.15320 0.07600
C 	C 	0.74300 0.77720 0.36020 -0.07700
H 	H 	0.69580 0.75980 0.37140 0.02200
H 	H 	0.77980 0.74810 0.35240 0.05300
C 	C 	0.89130 0.03150 0.72440 -0.31800
C 	C 	0.77680 0.81430 0.39760 -0.12300
H 	H 	0.82770 0.82700 0.38790 0.04800
H 	H 	0.78310 0.79290 0.42580 0.03000
C 	C 	0.80230 0.36050 0.94510 0.03300
C 	C 	0.96540 0.21920 0.66740 -0.19500
H 	H 	0.99100 0.20440 0.64180 0.06600
C 	C 	0.96160 0.27500 0.67320 0.09300
H 	H 	0.98510 0.29760 0.65110 -0.02500
C 	C 	0.72540 0.81180 0.31730 -0.05000
H 	H 	0.77510 0.82640 0.30620 0.00600
C 	C 	0.89610 0.26640 0.74190 0.10800
H 	H 	0.87280 0.28240 0.76780 -0.03500
C 	C 	0.94030 0.09720 0.65090 0.22700
H 	H 	0.95670 0.11940 0.62630 -0.08800
N 	N 	0.86190 0.84010 0.76530 -0.44200
C 	C 	0.72580 0.86430 0.40750 -0.01700
H 	H 	0.67610 0.85180 0.41940 -0.00800
H 	H 	0.75010 0.88720 0.43110 -0.02000
C 	C 	0.92640 0.12270 0.69460 -0.21500
C 	C 	0.78870 0.95460 0.84390 -0.06600
H 	H 	0.75700 0.98680 0.83660 0.02000
H 	H 	0.83810 0.96770 0.85580 0.01300
C 	C 	0.64790 0.91840 0.09690 -1.41500
H 	H 	0.69020 0.94410 0.09940 0.41700
H 	H 	0.64530 0.90430 0.06580 0.40000
H 	H 	0.65570 0.88810 0.11800 0.39800
C 	C 	0.57090 0.94840 0.10880 1.03100
C 	C 	0.91560 0.66530 0.69040 -0.30800
C 	C 	0.74820 0.91980 0.88110 -0.12700
H 	H 	0.69490 0.91320 0.87160 0.05000
H 	H 	0.74710 0.94070 0.90980 0.01400
C 	C 	0.89310 0.75810 0.72150 -0.38900
C 	C 	0.89870 0.21060 0.73890 -0.20100
H 	H 	0.87870 0.18960 0.76330 0.05100
C 	C 	0.93040 0.04170 0.64350 -0.46000
C 	C 	0.63140 0.94040 0.28110 0.08700
H 	H 	0.62660 0.95970 0.30890 -0.02600
C 	C 	0.91540 0.78330 0.67850 0.54900
C 	C 	0.84460 0.86690 0.81110 0.00300
H 	H 	0.89460 0.87640 0.82520 -0.02800
C 	C 	0.61120 0.96900 0.24070 -0.32200
C 	C 	0.68440 0.72970 0.27450 0.10000
H 	H 	0.70650 0.70950 0.29860 -0.00300
C 	C 	0.80190 0.92210 0.80160 -0.04500
H 	H 	0.75050 0.91220 0.78970 0.00500
C 	C 	0.78830 0.86350 0.88960 -0.01400
H 	H 	0.83810 0.86990 0.90440 -0.01800
H 	H 	0.75680 0.84150 0.91060 -0.00100
C 	C 	0.50350 0.90620 0.11010 -1.47000
H 	H 	0.51260 0.87970 0.13440 0.44500
H 	H 	0.50050 0.88710 0.08090 0.41700
H 	H 	0.45560 0.92540 0.11580 0.44700
C 	C 	0.80050 0.83220 0.84640 -0.17300
H 	H 	0.75060 0.82160 0.83350 0.08100
H 	H 	0.82940 0.79850 0.85300 0.04300
C 	C 	0.95770 0.56960 0.66640 -0.26700
H 	H 	0.98870 0.58450 0.64310 0.11200
O 	O 	0.90720 0.95280 0.67350 -0.77500
C 	C 	0.59880 0.75670 0.09370 -1.80600
H 	H 	0.61460 0.78660 0.11360 0.54100
H 	H 	0.57320 0.77150 0.06690 0.52000
H 	H 	0.64360 0.73590 0.08420 0.54800
C 	C 	0.95660 0.06360 0.55790 -1.30100
H 	H 	0.91430 0.08960 0.55820 0.37900
H 	H 	0.00390 0.08260 0.56570 0.38900
H 	H 	0.96130 0.04740 0.52760 0.34800
C 	C 	0.78280 0.31780 0.07090 -0.00800
H 	H 	0.81150 0.29930 0.09340 0.01000
C 	C 	0.90870 0.37990 0.89270 0.03100
H 	H 	0.96160 0.38530 0.88800 0.02000
C 	C 	0.54240 0.71800 0.12030 1.37800
C 	C 	0.51050 0.67580 0.08770 -2.02600
H 	H 	0.54630 0.64540 0.08500 0.62800
H 	H 	0.50280 0.69240 0.05780 0.61100
H 	H 	0.46180 0.66230 0.09930 0.62100
C 	C 	0.94130 0.01760 0.59360 0.85200
C 	C 	0.81530 0.32640 0.02690 -0.08900
H 	H 	0.86630 0.31580 0.02120 0.00800
C 	C 	0.55470 0.99180 0.07160 -1.46900
H 	H 	0.50460 0.00810 0.07680 0.43200
H 	H 	0.55570 0.97440 0.04160 0.41400
H 	H 	0.59380 0.02030 0.07290 0.43500
C 	C 	0.86030 0.00020 0.76100 0.12300
H 	H 	0.84990 0.01980 0.78810 -0.03800
C 	C 	0.93320 0.74870 0.63950 -0.87900
C 	C 	0.47310 0.75520 0.13660 -1.74100
H 	H 	0.42800 0.73240 0.14130 0.53000
H 	H 	0.46230 0.78280 0.11350 0.51700
H 	H 	0.48660 0.77320 0.16520 0.51900
C 	C 	0.58780 0.34360 0.39200 -0.00400
H 	H 	0.53530 0.34840 0.38570 0.03900
C 	C 	0.70840 0.33640 0.08120 -0.08600
C 	C 	0.86480 0.98770 0.57830 -1.17900
H 	H 	0.86230 0.95160 0.59240 0.32300
H 	H 	0.86420 0.98390 0.54520 0.32100
H 	H 	0.82080 0.00940 0.58800 0.34800
C 	C 	0.95070 0.77440 0.59130 2.06300
C 	C 	0.87890 0.80640 0.57650 -2.59500
H 	H 	0.83950 0.78080 0.56660 0.77300
H 	H 	0.89180 0.83090 0.55140 0.74700
H 	H 	0.85990 0.82780 0.60220 0.76100
C 	C 	0.02040 0.81390 0.59400 -2.56000
H 	H 	0.00250 0.85110 0.59980 0.76900
H 	H 	0.04830 0.81300 0.56520 0.75400
H 	H 	0.05420 0.80240 0.61870 0.79400
C 	C 	0.01020 0.97630 0.59260 -1.22500
H 	H 	0.05740 0.99570 0.59980 0.37000
H 	H 	0.01420 0.96000 0.56230 0.33900
H 	H 	0.00180 0.94750 0.61510 0.36500
C 	C 	0.86990 0.78940 0.76280 0.15200
H 	H 	0.86030 0.76910 0.78960 -0.03100
C 	C 	0.96710 0.72970 0.55790 -2.94300
H 	H 	0.01260 0.70970 0.56750 0.90800
H 	H 	0.92370 0.70470 0.55660 0.89300
H 	H 	0.97570 0.74550 0.52780 0.86200
V 	V 	0.85870 0.89282 0.70730 1.26900
V 	V 	0.59860 0.82970 0.23650 1.48300
V 	V 	0.91310 0.89670 0.72250 1.36200
Cd	Cd	0.09167 0.39461 0.79036 1.22700
Cd	Cd	0.40779 0.33387 0.28931 1.22500
O 	O 	0.39880 0.88950 0.30660 -0.84700
N 	N 	0.07460 0.29960 0.79040 -0.24300
N 	N 	0.40490 0.42990 0.28480 -0.25000
V 	V 	0.32933 0.83941 0.27405 1.39400
N 	N 	0.08530 0.49060 0.79510 -0.26200
N 	N 	0.41810 0.23900 0.28800 -0.24600
O 	O 	0.33180 0.33160 0.22420 -0.39700
O 	O 	0.10370 0.38840 0.86970 -0.38200
O 	O 	0.39960 0.33600 0.36800 -0.39900
C 	C 	0.38500 0.33370 0.19300 0.33800
O 	O 	0.45550 0.33830 0.20360 -0.47800
O 	O 	0.04390 0.39860 0.70150 -0.48300
C 	C 	0.11410 0.39270 0.69360 0.39300
O 	O 	0.16370 0.39390 0.72430 -0.42900
O 	O 	0.38180 0.77960 0.30660 -0.88800
O 	O 	0.21490 0.37690 0.83400 -0.36200
C 	C 	0.17510 0.37590 0.86950 0.30200
C 	C 	0.39680 0.54700 0.28730 0.20700
C 	C 	0.35880 0.33430 0.14420 -0.10600
O 	O 	0.08400 0.83730 0.82600 -0.82200
C 	C 	0.14160 0.38190 0.64490 -0.12800
C 	C 	0.11910 0.36980 0.56270 -0.10900
H 	H 	0.08470 0.36940 0.53780 0.05400
C 	C 	0.37810 0.20740 0.25720 0.08600
H 	H 	0.34940 0.22540 0.23440 -0.02700
C 	C 	0.38420 0.34560 0.06210 -0.08200
H 	H 	0.41900 0.35170 0.03800 0.03800
O 	O 	0.28440 0.32410 0.33710 -0.35800
C 	C 	0.21940 0.37180 0.63720 0.02800
H 	H 	0.25370 0.37110 0.66210 0.03200
C 	C 	0.37760 0.15090 0.25770 -0.18400
H 	H 	0.34960 0.13140 0.23540 0.04400
C 	C 	0.32690 0.33080 0.37090 0.30800
N 	N 	0.15540 0.94950 0.73780 -0.41700
C 	C 	0.38330 0.72460 0.30230 0.48700
N 	N 	0.34350 0.88930 0.21650 -0.43300
C 	C 	0.12610 0.52320 0.76590 0.15600
H 	H 	0.15790 0.50660 0.74380 -0.03200
C 	C 	0.41920 0.12170 0.29190 0.15100
C 	C 	0.45940 0.46110 0.30640 0.12000
H 	H 	0.50040 0.44280 0.32080 -0.02000
C 	C 	0.30430 0.36970 0.49690 -0.09100
H 	H 	0.33330 0.38820 0.51940 0.03900
C 	C 	0.08300 0.60440 0.80520 0.24200
C 	C 	0.12220 0.57800 0.76770 -0.25800
H 	H 	0.14500 0.59930 0.74450 0.13000
C 	C 	0.42220 0.63540 0.32930 0.37200
H 	H 	0.44620 0.61330 0.35150 -0.13100
C 	C 	0.06520 0.69270 0.85310 0.45700
H 	H 	0.05070 0.67020 0.87790 -0.16700
C 	C 	0.25560 0.32860 0.08930 -0.08700
H 	H 	0.20310 0.32320 0.08350 0.01100
C 	C 	0.07000 0.18290 0.79930 0.15200
C 	C 	0.28160 0.32640 0.13360 0.00400
H 	H 	0.24650 0.31950 0.15740 0.03500
C 	C 	0.30600 0.33860 0.05190 0.00100
C 	C 	0.41560 0.05990 0.29450 -0.20400
C 	C 	0.08890 0.00670 0.82020 0.40300
C 	C 	0.04630 0.51220 0.82840 0.15900
H 	H 	0.02030 0.48930 0.84920 -0.02800
N 	N 	0.31170 0.78270 0.22260 -0.42600
C 	C 	0.34870 0.45720 0.26390 0.13100
H 	H 	0.31200 0.43680 0.24750 -0.01900
C 	C 	0.39630 0.02790 0.25610 0.15200
H 	H 	0.38820 0.04530 0.22770 -0.04900
C 	C 	0.45760 0.51790 0.30810 -0.22600
H 	H 	0.49700 0.53720 0.32330 0.10600
C 	C 	0.22830 0.35080 0.50820 0.00500
C 	C 	0.19320 0.35930 0.00010 -0.10000
H 	H 	0.16140 0.35960 0.02620 0.02200
C 	C 	0.16150 0.36760 0.95640 -0.00000
H 	H 	0.10840 0.37340 0.95310 0.03100
C 	C 	0.20910 0.36720 0.91750 -0.08700
C 	C 	0.28850 0.35850 0.92233 0.00800
H 	H 	0.32030 0.35820 0.89630 0.00300
C 	C 	0.32020 0.35020 0.96610 -0.10600
H 	H 	0.37330 0.34440 0.96940 0.02800
C 	C 	0.27260 0.35060 0.00502 0.02500
C 	C 	0.33600 0.36140 0.45390 -0.00400
H 	H 	0.38680 0.37230 0.44790 0.03000
C 	C 	0.24690 0.36260 0.59260 -0.11200
H 	H 	0.29990 0.35770 0.58800 0.03400
C 	C 	0.35060 0.69820 0.26230 -0.34700
C 	C 	0.40360 0.94260 0.30310 0.44200
C 	C 	0.41970 0.69170 0.33700 -0.66700
C 	C 	0.10610 0.70060 0.77250 0.23500
H 	H 	0.11990 0.68530 0.74410 -0.04800
C 	C 	0.39120 0.60930 0.29050 -0.27900
C 	C 	0.45970 0.21100 0.31910 0.10000
H 	H 	0.49010 0.23140 0.33950 -0.02700
C 	C 	0.35530 0.64070 0.25840 0.22100
H 	H 	0.33290 0.62340 0.23280 -0.03800
C 	C 	0.28680 0.89840 0.13530 -0.15800
H 	H 	0.23740 0.91170 0.14700 0.05900
H 	H 	0.31910 0.93030 0.12810 0.03100
C 	C 	0.09850 0.08880 0.77060 0.15700
H 	H 	0.10920 0.10470 0.74190 -0.05700
C 	C 	0.42910 0.03330 0.33650 0.23700
H 	H 	0.44400 0.05450 0.36200 -0.08700
C 	C 	0.32650 0.86240 0.17210 0.00000
H 	H 	0.37550 0.84870 0.15910 -0.03700
C 	C 	0.34090 0.51460 0.26490 -0.23100
H 	H 	0.29850 0.53140 0.25080 0.12000
C 	C 	0.42100 0.97560 0.34200 -0.49800
C 	C 	0.46100 0.15350 0.32330 -0.19900
H 	H 	0.48950 0.13660 0.34680 0.07600
C 	C 	0.25700 0.77720 0.13980 -0.07700
H 	H 	0.30420 0.75980 0.12860 0.02200
H 	H 	0.22020 0.74810 0.14760 0.05300
C 	C 	0.10870 0.03150 0.77560 -0.31000
C 	C 	0.22320 0.81430 0.10240 -0.12400
H 	H 	0.17230 0.82700 0.11210 0.05000
H 	H 	0.21690 0.79290 0.07420 0.03200
C 	C 	0.19770 0.36050 0.55490 0.03100
C 	C 	0.03460 0.21920 0.83260 -0.19100
H 	H 	0.00900 0.20440 0.85820 0.07400
C 	C 	0.03840 0.27500 0.82680 0.09700
H 	H 	0.01490 0.29760 0.84890 -0.01600
C 	C 	0.27460 0.81180 0.18270 -0.05000
H 	H 	0.22490 0.82640 0.19380 0.00500
C 	C 	0.10390 0.26640 0.75810 0.11200
H 	H 	0.12720 0.28240 0.73220 -0.03300
C 	C 	0.05970 0.09720 0.84910 0.22000
H 	H 	0.04330 0.11940 0.87370 -0.07700
N 	N 	0.13810 0.84010 0.73470 -0.43900
C 	C 	0.27420 0.86430 0.09250 -0.01700
H 	H 	0.32390 0.85180 0.08060 -0.00800
H 	H 	0.24990 0.88720 0.06890 -0.01900
C 	C 	0.07360 0.12270 0.80540 -0.20500
C 	C 	0.21130 0.95460 0.65610 -0.07000
H 	H 	0.24300 0.98680 0.66340 0.02100
H 	H 	0.16190 0.96770 0.64420 0.01600
C 	C 	0.35210 0.91840 0.40310 -1.41800
H 	H 	0.30980 0.94410 0.40060 0.41800
H 	H 	0.35470 0.90430 0.43420 0.40100
H 	H 	0.34430 0.88810 0.38200 0.40000
C 	C 	0.42910 0.94840 0.39120 1.03300
C 	C 	0.08440 0.66530 0.80960 -0.29600
C 	C 	0.25180 0.91980 0.61890 -0.12400
H 	H 	0.30510 0.91320 0.62840 0.04900
H 	H 	0.25290 0.94070 0.59020 0.01400
C 	C 	0.10690 0.75810 0.77850 -0.38000
C 	C 	0.10130 0.21060 0.76110 -0.19700
H 	H 	0.12130 0.18960 0.73670 0.05400
C 	C 	0.06960 0.04170 0.85650 -0.44400
C 	C 	0.36860 0.94040 0.21890 0.08700
H 	H 	0.37340 0.95970 0.19110 -0.02600
C 	C 	0.08460 0.78330 0.82150 0.54300
C 	C 	0.15540 0.86690 0.68890 0.00100
H 	H 	0.10540 0.87640 0.67480 -0.02300
C 	C 	0.38880 0.96900 0.25930 -0.32200
C 	C 	0.31560 0.72970 0.22550 0.10000
H 	H 	0.29350 0.70950 0.20140 -0.00400
C 	C 	0.19810 0.92210 0.69840 -0.04200
H 	H 	0.24950 0.91220 0.71030 0.00400
C 	C 	0.21170 0.86350 0.61040 -0.01700
H 	H 	0.16190 0.86990 0.59560 -0.01700
H 	H 	0.24320 0.84150 0.58940 0.00000
C 	C 	0.49650 0.90620 0.38990 -1.47200
H 	H 	0.48740 0.87970 0.36560 0.44500
H 	H 	0.49950 0.88710 0.41910 0.41800
H 	H 	0.54440 0.92540 0.38420 0.44800
C 	C 	0.19950 0.83220 0.65360 -0.17000
H 	H 	0.24940 0.82160 0.66650 0.08100
H 	H 	0.17060 0.79850 0.64700 0.04300
C 	C 	0.04230 0.56960 0.83360 -0.26200
H 	H 	0.01130 0.58450 0.85690 0.11900
O 	O 	0.09280 0.95280 0.82650 -0.76600
C 	C 	0.40120 0.75670 0.40630 -1.80700
H 	H 	0.38540 0.78660 0.38640 0.54200
H 	H 	0.42680 0.77150 0.43310 0.52100
H 	H 	0.35640 0.73590 0.41580 0.54900
C 	C 	0.04340 0.06360 0.94210 -1.16500
H 	H 	0.08570 0.08960 0.94180 0.34200
H 	H 	0.99610 0.08260 0.93430 0.32300
H 	H 	0.03870 0.04740 0.97240 0.31900
C 	C 	0.21720 0.31780 0.42910 -0.00700
H 	H 	0.18850 0.29930 0.40660 0.01100
C 	C 	0.09130 0.37990 0.60730 0.02800
H 	H 	0.03840 0.38530 0.61200 0.03400
C 	C 	0.45760 0.71800 0.37970 1.37800
C 	C 	0.48950 0.67580 0.41230 -2.02700
H 	H 	0.45370 0.64540 0.41500 0.62800
H 	H 	0.49720 0.69240 0.44220 0.61100
H 	H 	0.53820 0.66230 0.40070 0.62100
C 	C 	0.05870 0.01760 0.90640 0.84000
C 	C 	0.18470 0.32640 0.47310 -0.09000
H 	H 	0.13370 0.31580 0.47880 0.01000
C 	C 	0.44530 0.99180 0.42840 -1.47200
H 	H 	0.49540 0.00810 0.42320 0.43300
H 	H 	0.44430 0.97440 0.45840 0.41500
H 	H 	0.40620 0.02030 0.42710 0.43600
C 	C 	0.13970 0.00020 0.73900 0.12300
H 	H 	0.15010 0.01980 0.71190 -0.03500
C 	C 	0.06680 0.74870 0.86050 -0.85000
C 	C 	0.52690 0.75520 0.36340 -1.74100
H 	H 	0.57200 0.73240 0.35870 0.53000
H 	H 	0.53770 0.78280 0.38650 0.51700
H 	H 	0.51340 0.77320 0.33480 0.51900
C 	C 	0.41220 0.34360 0.10800 -0.00300
H 	H 	0.46470 0.34840 0.11430 0.03900
C 	C 	0.29160 0.33640 0.41880 -0.08600
C 	C 	0.13520 0.98770 0.92170 -1.16600
H 	H 	0.13770 0.95160 0.90760 0.32400
H 	H 	0.13580 0.98390 0.95480 0.32100
H 	H 	0.17920 0.00940 0.91200 0.34400
C 	C 	0.04930 0.77440 0.90870 2.01700
C 	C 	0.12110 0.80640 0.92350 -2.54500
H 	H 	0.16050 0.78080 0.93340 0.75900
H 	H 	0.10820 0.83090 0.94860 0.73900
H 	H 	0.14010 0.82780 0.89780 0.74900
C 	C 	0.97960 0.81390 0.90600 -2.54400
H 	H 	0.99750 0.85110 0.90020 0.75300
H 	H 	0.95170 0.81300 0.93480 0.74300
H 	H 	0.94580 0.80240 0.88130 0.78200
C 	C 	0.98980 0.97630 0.90740 -1.24400
H 	H 	0.94260 0.99570 0.90020 0.37000
H 	H 	0.98580 0.96000 0.93770 0.33500
H 	H 	0.99820 0.94750 0.88490 0.35900
C 	C 	0.13010 0.78940 0.73720 0.15200
H 	H 	0.13970 0.76910 0.71040 -0.02900
C 	C 	0.03290 0.72970 0.94210 -2.76100
H 	H 	0.98740 0.70970 0.93250 0.82900
H 	H 	0.07630 0.70470 0.94340 0.84200
H 	H 	0.02430 0.74550 0.97220 0.82000
V 	V 	0.14130 0.89282 0.79270 1.26800
V 	V 	0.40140 0.82970 0.26350 1.48300
V 	V 	0.08690 0.89670 0.77750 1.36700
O 	O 	0.00000 0.90320 0.75000 -0.89500
O 	O 	0.50000 0.81780 0.25000 -0.90500
Cd	Cd	0.09167 0.60539 0.20964 1.22700
Cd	Cd	0.40779 0.66613 0.71069 1.22500
O 	O 	0.39880 0.11050 0.69340 -0.84700
N 	N 	0.07460 0.70040 0.20960 -0.24300
N 	N 	0.40490 0.57010 0.71520 -0.25000
V 	V 	0.32933 0.16059 0.72595 1.39400
N 	N 	0.08530 0.50940 0.20490 -0.26200
N 	N 	0.41810 0.76100 0.71200 -0.24600
O 	O 	0.33180 0.66840 0.77580 -0.39700
O 	O 	0.10370 0.61160 0.13030 -0.38200
O 	O 	0.39960 0.66400 0.63200 -0.39900
C 	C 	0.38500 0.66630 0.80700 0.33800
O 	O 	0.45550 0.66170 0.79640 -0.47800
O 	O 	0.04390 0.60140 0.29850 -0.48300
C 	C 	0.11410 0.60730 0.30640 0.39300
O 	O 	0.16370 0.60610 0.27570 -0.42900
O 	O 	0.38180 0.22040 0.69340 -0.88800
O 	O 	0.21490 0.62310 0.16600 -0.36200
C 	C 	0.17510 0.62410 0.13050 0.30200
C 	C 	0.39680 0.45300 0.71270 0.20700
C 	C 	0.35880 0.66570 0.85580 -0.10600
O 	O 	0.08400 0.16270 0.17400 -0.82200
C 	C 	0.14160 0.61810 0.35510 -0.12800
C 	C 	0.11910 0.63020 0.43730 -0.10900
H 	H 	0.08470 0.63060 0.46220 0.05400
C 	C 	0.37810 0.79260 0.74280 0.08600
H 	H 	0.34940 0.77460 0.76560 -0.02700
C 	C 	0.38420 0.65440 0.93790 -0.08200
H 	H 	0.41900 0.64830 0.96200 0.03800
O 	O 	0.28440 0.67590 0.66290 -0.35800
C 	C 	0.21940 0.62820 0.36280 0.02800
H 	H 	0.25370 0.62890 0.33790 0.03200
C 	C 	0.37760 0.84910 0.74230 -0.18400
H 	H 	0.34960 0.86860 0.76460 0.04400
C 	C 	0.32690 0.66920 0.62910 0.30800
N 	N 	0.15540 0.05050 0.26220 -0.41700
C 	C 	0.38330 0.27540 0.69770 0.48700
N 	N 	0.34350 0.11070 0.78350 -0.43300
C 	C 	0.12610 0.47680 0.23410 0.15600
H 	H 	0.15790 0.49340 0.25620 -0.03200
C 	C 	0.41920 0.87830 0.70810 0.15100
C 	C 	0.45940 0.53890 0.69360 0.12000
H 	H 	0.50040 0.55720 0.67920 -0.02000
C 	C 	0.30430 0.63030 0.50310 -0.09100
H 	H 	0.33330 0.61180 0.48060 0.03900
C 	C 	0.08300 0.39560 0.19480 0.24200
C 	C 	0.12220 0.42200 0.23230 -0.25800
H 	H 	0.14500 0.40070 0.25550 0.13000
C 	C 	0.42220 0.36460 0.67070 0.37200
H 	H 	0.44620 0.38670 0.64850 -0.13100
C 	C 	0.06520 0.30730 0.14690 0.45700
H 	H 	0.05070 0.32980 0.12210 -0.16700
C 	C 	0.25560 0.67140 0.91070 -0.08700
H 	H 	0.20310 0.67680 0.91650 0.01100
C 	C 	0.07000 0.81710 0.20070 0.15200
C 	C 	0.28160 0.67360 0.86640 0.00400
H 	H 	0.24650 0.68050 0.84260 0.03500
C 	C 	0.30600 0.66140 0.94810 0.00100
C 	C 	0.41560 0.94010 0.70550 -0.20400
C 	C 	0.08890 0.99330 0.17980 0.40300
C 	C 	0.04630 0.48780 0.17160 0.15900
H 	H 	0.02030 0.51070 0.15080 -0.02800
N 	N 	0.31170 0.21730 0.77740 -0.42600
C 	C 	0.34870 0.54280 0.73610 0.13100
H 	H 	0.31200 0.56320 0.75250 -0.01900
C 	C 	0.39630 0.97210 0.74390 0.15200
H 	H 	0.38820 0.95470 0.77230 -0.04900
C 	C 	0.45760 0.48210 0.69190 -0.22600
H 	H 	0.49700 0.46280 0.67670 0.10600
C 	C 	0.22830 0.64920 0.49180 0.00500
C 	C 	0.19320 0.64070 0.99990 -0.10000
H 	H 	0.16140 0.64040 0.97380 0.02200
C 	C 	0.16150 0.63240 0.04360 -0.00000
H 	H 	0.10840 0.62660 0.04690 0.03100
C 	C 	0.20910 0.63280 0.08250 -0.08700
C 	C 	0.28850 0.64150 0.07767 0.00800
H 	H 	0.32030 0.64180 0.10370 0.00300
C 	C 	0.32020 0.64980 0.03390 -0.10600
H 	H 	0.37330 0.65560 0.03060 0.02800
C 	C 	0.27260 0.64940 0.99498 0.02500
C 	C 	0.33600 0.63860 0.54610 -0.00400
H 	H 	0.38680 0.62770 0.55210 0.03000
C 	C 	0.24690 0.63740 0.40740 -0.11200
H 	H 	0.29990 0.64230 0.41200 0.03400
C 	C 	0.35060 0.30180 0.73770 -0.34700
C 	C 	0.40360 0.05740 0.69690 0.44200
C 	C 	0.41970 0.30830 0.66300 -0.66700
C 	C 	0.10610 0.29940 0.22750 0.23500
H 	H 	0.11990 0.31470 0.25590 -0.04800
C 	C 	0.39120 0.39070 0.70950 -0.27900
C 	C 	0.45970 0.78900 0.68090 0.10000
H 	H 	0.49010 0.76860 0.66050 -0.02700
C 	C 	0.35530 0.35930 0.74160 0.22100
H 	H 	0.33290 0.37660 0.76720 -0.03800
C 	C 	0.28680 0.10160 0.86470 -0.15800
H 	H 	0.23740 0.08830 0.85300 0.05900
H 	H 	0.31910 0.06970 0.87190 0.03100
C 	C 	0.09850 0.91120 0.22940 0.15700
H 	H 	0.10920 0.89530 0.25810 -0.05700
C 	C 	0.42910 0.96670 0.66350 0.23700
H 	H 	0.44400 0.94550 0.63800 -0.08700
C 	C 	0.32650 0.13760 0.82790 0.00000
H 	H 	0.37550 0.15130 0.84090 -0.03700
C 	C 	0.34090 0.48540 0.73510 -0.23100
H 	H 	0.29850 0.46860 0.74920 0.12000
C 	C 	0.42100 0.02440 0.65800 -0.49800
C 	C 	0.46100 0.84650 0.67670 -0.19900
H 	H 	0.48950 0.86340 0.65320 0.07600
C 	C 	0.25700 0.22280 0.86020 -0.07700
H 	H 	0.30420 0.24020 0.87140 0.02200
H 	H 	0.22020 0.25190 0.85240 0.05300
C 	C 	0.10870 0.96850 0.22440 -0.31000
C 	C 	0.22320 0.18570 0.89760 -0.12400
H 	H 	0.17230 0.17300 0.88790 0.05000
H 	H 	0.21690 0.20710 0.92580 0.03200
C 	C 	0.19770 0.63950 0.44510 0.03100
C 	C 	0.03460 0.78080 0.16740 -0.19100
H 	H 	0.00900 0.79560 0.14180 0.07400
C 	C 	0.03840 0.72500 0.17320 0.09700
H 	H 	0.01490 0.70240 0.15110 -0.01600
C 	C 	0.27460 0.18820 0.81730 -0.05000
H 	H 	0.22490 0.17360 0.80620 0.00500
C 	C 	0.10390 0.73360 0.24190 0.11200
H 	H 	0.12720 0.71760 0.26780 -0.03300
C 	C 	0.05970 0.90280 0.15090 0.22000
H 	H 	0.04330 0.88060 0.12630 -0.07700
N 	N 	0.13810 0.15990 0.26530 -0.43900
C 	C 	0.27420 0.13570 0.90750 -0.01700
H 	H 	0.32390 0.14820 0.91940 -0.00800
H 	H 	0.24990 0.11280 0.93110 -0.01900
C 	C 	0.07360 0.87730 0.19460 -0.20500
C 	C 	0.21130 0.04540 0.34390 -0.07000
H 	H 	0.24300 0.01320 0.33660 0.02100
H 	H 	0.16190 0.03230 0.35580 0.01600
C 	C 	0.35210 0.08160 0.59690 -1.41800
H 	H 	0.30980 0.05590 0.59940 0.41800
H 	H 	0.35470 0.09570 0.56580 0.40100
H 	H 	0.34430 0.11190 0.61800 0.40000
C 	C 	0.42910 0.05160 0.60880 1.03300
C 	C 	0.08440 0.33470 0.19040 -0.29600
C 	C 	0.25180 0.08020 0.38110 -0.12400
H 	H 	0.30510 0.08680 0.37160 0.04900
H 	H 	0.25290 0.05930 0.40980 0.01400
C 	C 	0.10690 0.24190 0.22150 -0.38000
C 	C 	0.10130 0.78940 0.23890 -0.19700
H 	H 	0.12130 0.81040 0.26330 0.05400
C 	C 	0.06960 0.95830 0.14350 -0.44400
C 	C 	0.36860 0.05960 0.78110 0.08700
H 	H 	0.37340 0.04030 0.80890 -0.02600
C 	C 	0.08460 0.21670 0.17850 0.54300
C 	C 	0.15540 0.13310 0.31110 0.00100
H 	H 	0.10540 0.12360 0.32520 -0.02300
C 	C 	0.38880 0.03100 0.74070 -0.32200
C 	C 	0.31560 0.27030 0.77450 0.10000
H 	H 	0.29350 0.29050 0.79860 -0.00400
C 	C 	0.19810 0.07790 0.30160 -0.04200
H 	H 	0.24950 0.08780 0.28970 0.00400
C 	C 	0.21170 0.13650 0.38960 -0.01700
H 	H 	0.16190 0.13010 0.40440 -0.01700
H 	H 	0.24320 0.15850 0.41060 0.00000
C 	C 	0.49650 0.09380 0.61010 -1.47200
H 	H 	0.48740 0.12030 0.63440 0.44500
H 	H 	0.49950 0.11290 0.58090 0.41800
H 	H 	0.54440 0.07460 0.61580 0.44800
C 	C 	0.19950 0.16780 0.34640 -0.17000
H 	H 	0.24940 0.17840 0.33350 0.08100
H 	H 	0.17060 0.20150 0.35300 0.04300
C 	C 	0.04230 0.43040 0.16640 -0.26200
H 	H 	0.01130 0.41550 0.14310 0.11900
O 	O 	0.09280 0.04720 0.17350 -0.76600
C 	C 	0.40120 0.24330 0.59370 -1.80700
H 	H 	0.38540 0.21340 0.61360 0.54200
H 	H 	0.42680 0.22850 0.56690 0.52100
H 	H 	0.35640 0.26410 0.58420 0.54900
C 	C 	0.04340 0.93640 0.05790 -1.16500
H 	H 	0.08570 0.91040 0.05820 0.34200
H 	H 	0.99610 0.91740 0.06570 0.32300
H 	H 	0.03870 0.95260 0.02760 0.31900
C 	C 	0.21720 0.68220 0.57090 -0.00700
H 	H 	0.18850 0.70070 0.59340 0.01100
C 	C 	0.09130 0.62010 0.39270 0.02800
H 	H 	0.03840 0.61470 0.38800 0.03400
C 	C 	0.45760 0.28200 0.62030 1.37800
C 	C 	0.48950 0.32420 0.58770 -2.02700
H 	H 	0.45370 0.35460 0.58500 0.62800
H 	H 	0.49720 0.30760 0.55780 0.61100
H 	H 	0.53820 0.33770 0.59930 0.62100
C 	C 	0.05870 0.98240 0.09360 0.84000
C 	C 	0.18470 0.67360 0.52690 -0.09000
H 	H 	0.13370 0.68420 0.52120 0.01000
C 	C 	0.44530 0.00820 0.57160 -1.47200
H 	H 	0.49540 0.99190 0.57680 0.43300
H 	H 	0.44430 0.02560 0.54160 0.41500
H 	H 	0.40620 0.97970 0.57290 0.43600
C 	C 	0.13970 0.99980 0.26100 0.12300
H 	H 	0.15010 0.98020 0.28810 -0.03500
C 	C 	0.06680 0.25130 0.13950 -0.85000
C 	C 	0.52690 0.24480 0.63660 -1.74100
H 	H 	0.57200 0.26760 0.64130 0.53000
H 	H 	0.53770 0.21720 0.61350 0.51700
H 	H 	0.51340 0.22680 0.66520 0.51900
C 	C 	0.41220 0.65640 0.89200 -0.00300
H 	H 	0.46470 0.65160 0.88570 0.03900
C 	C 	0.29160 0.66360 0.58120 -0.08600
C 	C 	0.13520 0.01230 0.07830 -1.16600
H 	H 	0.13770 0.04840 0.09240 0.32400
H 	H 	0.13580 0.01610 0.04520 0.32100
H 	H 	0.17920 0.99060 0.08800 0.34400
C 	C 	0.04930 0.22560 0.09130 2.01700
C 	C 	0.12110 0.19360 0.07650 -2.54500
H 	H 	0.16050 0.21920 0.06660 0.75900
H 	H 	0.10820 0.16910 0.05140 0.73900
H 	H 	0.14010 0.17220 0.10220 0.74900
C 	C 	0.97960 0.18610 0.09400 -2.54400
H 	H 	0.99750 0.14890 0.09980 0.75300
H 	H 	0.95170 0.18700 0.06520 0.74300
H 	H 	0.94580 0.19760 0.11870 0.78200
C 	C 	0.98980 0.02370 0.09260 -1.24400
H 	H 	0.94260 0.00430 0.09980 0.37000
H 	H 	0.98580 0.04000 0.06230 0.33500
H 	H 	0.99820 0.05250 0.11510 0.35900
C 	C 	0.13010 0.21060 0.26280 0.15200
H 	H 	0.13970 0.23090 0.28960 -0.02900
C 	C 	0.03290 0.27030 0.05790 -2.76100
H 	H 	0.98740 0.29030 0.06750 0.82900
H 	H 	0.07630 0.29530 0.05660 0.84200
H 	H 	0.02430 0.25450 0.02780 0.82000
V 	V 	0.14130 0.10718 0.20730 1.26800
V 	V 	0.40140 0.17030 0.73650 1.48300
V 	V 	0.08690 0.10330 0.22250 1.36700
Cd	Cd	0.90833 0.60539 0.29036 1.22300
Cd	Cd	0.59221 0.66613 0.78931 1.22500
O 	O 	0.60120 0.11050 0.80660 -0.84700
N 	N 	0.92540 0.70040 0.29040 -0.24700
N 	N 	0.59510 0.57010 0.78480 -0.25000
V 	V 	0.67067 0.16059 0.77405 1.39400
N 	N 	0.91470 0.50940 0.29510 -0.26600
N 	N 	0.58190 0.76100 0.78800 -0.24600
O 	O 	0.66820 0.66840 0.72420 -0.39700
O 	O 	0.89630 0.61160 0.36970 -0.39100
O 	O 	0.60040 0.66400 0.86800 -0.39900
C 	C 	0.61500 0.66630 0.69300 0.33700
O 	O 	0.54450 0.66170 0.70360 -0.47800
O 	O 	0.95610 0.60140 0.20150 -0.50200
C 	C 	0.88590 0.60730 0.19360 0.39600
O 	O 	0.83630 0.60610 0.22430 -0.43200
O 	O 	0.61820 0.22040 0.80660 -0.88800
O 	O 	0.78510 0.62310 0.33400 -0.36300
C 	C 	0.82490 0.62410 0.36950 0.30500
C 	C 	0.60320 0.45300 0.78730 0.20700
C 	C 	0.64120 0.66570 0.64420 -0.10500
O 	O 	0.91600 0.16270 0.32600 -0.83400
C 	C 	0.85840 0.61810 0.14490 -0.13800
C 	C 	0.88090 0.63020 0.06270 -0.11600
H 	H 	0.91530 0.63060 0.03780 0.05000
C 	C 	0.62190 0.79260 0.75720 0.08600
H 	H 	0.65060 0.77460 0.73440 -0.02700
C 	C 	0.61580 0.65440 0.56210 -0.08000
H 	H 	0.58100 0.64830 0.53800 0.03800
O 	O 	0.71560 0.67590 0.83710 -0.35900
C 	C 	0.78060 0.62820 0.13720 0.03200
H 	H 	0.74630 0.62890 0.16210 0.03000
C 	C 	0.62240 0.84910 0.75770 -0.18400
H 	H 	0.65040 0.86860 0.73540 0.04400
C 	C 	0.67310 0.66920 0.87090 0.30700
N 	N 	0.84460 0.05050 0.23780 -0.41800
C 	C 	0.61670 0.27540 0.80230 0.48700
N 	N 	0.65650 0.11070 0.71650 -0.43300
C 	C 	0.87390 0.47680 0.26590 0.15300
H 	H 	0.84210 0.49340 0.24380 -0.03400
C 	C 	0.58080 0.87830 0.79190 0.15000
C 	C 	0.54060 0.53890 0.80640 0.12000
H 	H 	0.49960 0.55720 0.82080 -0.02000
C 	C 	0.69570 0.63030 0.99690 -0.09000
H 	H 	0.66670 0.61180 0.01940 0.03800
C 	C 	0.91700 0.39560 0.30520 0.24200
C 	C 	0.87780 0.42200 0.26770 -0.26200
H 	H 	0.85500 0.40070 0.24450 0.12800
C 	C 	0.57780 0.36460 0.82930 0.37200
H 	H 	0.55380 0.38670 0.85150 -0.13100
C 	C 	0.93480 0.30730 0.35310 0.47000
H 	H 	0.94930 0.32980 0.37790 -0.18000
C 	C 	0.74440 0.67140 0.58930 -0.08500
H 	H 	0.79690 0.67680 0.58350 0.00800
C 	C 	0.93000 0.81710 0.29930 0.15000
C 	C 	0.71840 0.67360 0.63360 0.00100
H 	H 	0.75350 0.68050 0.65740 0.03600
C 	C 	0.69400 0.66140 0.55190 -0.00100
C 	C 	0.58440 0.94010 0.79450 -0.20400
C 	C 	0.91110 0.99330 0.32020 0.40500
C 	C 	0.95370 0.48780 0.32840 0.15600
H 	H 	0.97970 0.51070 0.34920 -0.03800
N 	N 	0.68830 0.21730 0.72260 -0.42600
C 	C 	0.65130 0.54280 0.76390 0.13000
H 	H 	0.68800 0.56320 0.74750 -0.01900
C 	C 	0.60370 0.97210 0.75610 0.15200
H 	H 	0.61180 0.95470 0.72770 -0.04900
C 	C 	0.54240 0.48210 0.80810 -0.22700
H 	H 	0.50300 0.46280 0.82330 0.10600
C 	C 	0.77170 0.64920 0.00820 0.00200
C 	C 	0.80680 0.64070 0.50010 -0.10400
H 	H 	0.83860 0.64040 0.52620 0.01800
C 	C 	0.83850 0.63240 0.45640 0.00200
H 	H 	0.89160 0.62660 0.45310 0.02300
C 	C 	0.79090 0.63280 0.41750 -0.09100
C 	C 	0.71150 0.64150 0.42233 0.01000
H 	H 	0.67970 0.64180 0.39630 0.00200
C 	C 	0.67980 0.64980 0.46610 -0.10900
H 	H 	0.62670 0.65560 0.46940 0.02800
C 	C 	0.72740 0.64940 0.50502 0.02700
C 	C 	0.66400 0.63860 0.95390 -0.00500
H 	H 	0.61320 0.62770 0.94790 0.03000
C 	C 	0.75310 0.63740 0.09260 -0.11700
H 	H 	0.70010 0.64230 0.08800 0.03500
C 	C 	0.64940 0.30180 0.76230 -0.34700
C 	C 	0.59640 0.05740 0.80310 0.44200
C 	C 	0.58030 0.30830 0.83700 -0.66600
C 	C 	0.89390 0.29940 0.27250 0.23900
H 	H 	0.88010 0.31470 0.24410 -0.05300
C 	C 	0.60880 0.39070 0.79050 -0.27900
C 	C 	0.54030 0.78900 0.81910 0.10000
H 	H 	0.50990 0.76860 0.83950 -0.02700
C 	C 	0.64470 0.35930 0.75840 0.22100
H 	H 	0.66710 0.37660 0.73280 -0.03700
C 	C 	0.71320 0.10160 0.63530 -0.15800
H 	H 	0.76260 0.08830 0.64700 0.06000
H 	H 	0.68090 0.06970 0.62810 0.03100
C 	C 	0.90150 0.91120 0.27060 0.15900
H 	H 	0.89080 0.89530 0.24190 -0.06200
C 	C 	0.57090 0.96670 0.83650 0.23600
H 	H 	0.55600 0.94550 0.86200 -0.08700
C 	C 	0.67350 0.13760 0.67210 0.00000
H 	H 	0.62450 0.15130 0.65910 -0.03700
C 	C 	0.65910 0.48540 0.76490 -0.23200
H 	H 	0.70150 0.46860 0.75080 0.12000
C 	C 	0.57900 0.02440 0.84200 -0.49800
C 	C 	0.53900 0.84650 0.82330 -0.19900
H 	H 	0.51050 0.86340 0.84680 0.07600
C 	C 	0.74300 0.22280 0.63980 -0.07700
H 	H 	0.69580 0.24020 0.62860 0.02200
H 	H 	0.77980 0.25190 0.64760 0.05300
C 	C 	0.89130 0.96850 0.27560 -0.31800
C 	C 	0.77680 0.18570 0.60240 -0.12300
H 	H 	0.82770 0.17300 0.61210 0.04800
H 	H 	0.78310 0.20710 0.57420 0.03000
C 	C 	0.80230 0.63950 0.05490 0.03300
C 	C 	0.96540 0.78080 0.33260 -0.19500
H 	H 	0.99100 0.79560 0.35820 0.06600
C 	C 	0.96160 0.72500 0.32680 0.09300
H 	H 	0.98510 0.70240 0.34890 -0.02500
C 	C 	0.72540 0.18820 0.68270 -0.05000
H 	H 	0.77510 0.17360 0.69380 0.00600
C 	C 	0.89610 0.73360 0.25810 0.10800
H 	H 	0.87280 0.71760 0.23220 -0.03500
C 	C 	0.94030 0.90280 0.34910 0.22700
H 	H 	0.95670 0.88060 0.37370 -0.08800
N 	N 	0.86190 0.15990 0.23470 -0.44200
C 	C 	0.72580 0.13570 0.59250 -0.01700
H 	H 	0.67610 0.14820 0.58060 -0.00800
H 	H 	0.75010 0.11280 0.56890 -0.02000
C 	C 	0.92640 0.87730 0.30540 -0.21500
C 	C 	0.78870 0.04540 0.15610 -0.06600
H 	H 	0.75700 0.01320 0.16340 0.02000
H 	H 	0.83810 0.03230 0.14420 0.01300
C 	C 	0.64790 0.08160 0.90310 -1.41500
H 	H 	0.69020 0.05590 0.90060 0.41700
H 	H 	0.64530 0.09570 0.93420 0.40000
H 	H 	0.65570 0.11190 0.88200 0.39800
C 	C 	0.57090 0.05160 0.89120 1.03100
C 	C 	0.91560 0.33470 0.30960 -0.30800
C 	C 	0.74820 0.08020 0.11890 -0.12700
H 	H 	0.69490 0.08680 0.12840 0.05000
H 	H 	0.74710 0.05930 0.09020 0.01400
C 	C 	0.89310 0.24190 0.27850 -0.38900
C 	C 	0.89870 0.78940 0.26110 -0.20100
H 	H 	0.87870 0.81040 0.23670 0.05100
C 	C 	0.93040 0.95830 0.35650 -0.46000
C 	C 	0.63140 0.05960 0.71890 0.08700
H 	H 	0.62660 0.04030 0.69110 -0.02600
C 	C 	0.91540 0.21670 0.32150 0.54900
C 	C 	0.84460 0.13310 0.18890 0.00300
H 	H 	0.89460 0.12360 0.17480 -0.02800
C 	C 	0.61120 0.03100 0.75930 -0.32200
C 	C 	0.68440 0.27030 0.72550 0.10000
H 	H 	0.70650 0.29050 0.70140 -0.00300
C 	C 	0.80190 0.07790 0.19840 -0.04500
H 	H 	0.75050 0.08780 0.21030 0.00500
C 	C 	0.78830 0.13650 0.11040 -0.01400
H 	H 	0.83810 0.13010 0.09560 -0.01800
H 	H 	0.75680 0.15850 0.08940 -0.00100
C 	C 	0.50350 0.09380 0.88990 -1.47000
H 	H 	0.51260 0.12030 0.86560 0.44500
H 	H 	0.50050 0.11290 0.91910 0.41700
H 	H 	0.45560 0.07460 0.88420 0.44700
C 	C 	0.80050 0.16780 0.15360 -0.17300
H 	H 	0.75060 0.17840 0.16650 0.08100
H 	H 	0.82940 0.20150 0.14700 0.04300
C 	C 	0.95770 0.43040 0.33360 -0.26700
H 	H 	0.98870 0.41550 0.35690 0.11200
O 	O 	0.90720 0.04720 0.32650 -0.77500
C 	C 	0.59880 0.24330 0.90630 -1.80600
H 	H 	0.61460 0.21340 0.88640 0.54100
H 	H 	0.57320 0.22850 0.93310 0.52000
H 	H 	0.64360 0.26410 0.91580 0.54800
C 	C 	0.95660 0.93640 0.44210 -1.30100
H 	H 	0.91430 0.91040 0.44180 0.37900
H 	H 	0.00390 0.91740 0.43430 0.38900
H 	H 	0.96130 0.95260 0.47240 0.34800
C 	C 	0.78280 0.68220 0.92910 -0.00800
H 	H 	0.81150 0.70070 0.90660 0.01000
C 	C 	0.90870 0.62010 0.10730 0.03100
H 	H 	0.96160 0.61470 0.11200 0.02000
C 	C 	0.54240 0.28200 0.87970 1.37800
C 	C 	0.51050 0.32420 0.91230 -2.02600
H 	H 	0.54630 0.35460 0.91500 0.62800
H 	H 	0.50280 0.30760 0.94220 0.61100
H 	H 	0.46180 0.33770 0.90070 0.62100
C 	C 	0.94130 0.98240 0.40640 0.85200
C 	C 	0.81530 0.67360 0.97310 -0.08900
H 	H 	0.86630 0.68420 0.97880 0.00800
C 	C 	0.55470 0.00820 0.92840 -1.46900
H 	H 	0.50460 0.99190 0.92320 0.43200
H 	H 	0.55570 0.02560 0.95840 0.41400
H 	H 	0.59380 0.97970 0.92710 0.43500
C 	C 	0.86030 0.99980 0.23900 0.12300
H 	H 	0.84990 0.98020 0.21190 -0.03800
C 	C 	0.93320 0.25130 0.36050 -0.87900
C 	C 	0.47310 0.24480 0.86340 -1.74100
H 	H 	0.42800 0.26760 0.85870 0.53000
H 	H 	0.46230 0.21720 0.88650 0.51700
H 	H 	0.48660 0.22680 0.83480 0.51900
C 	C 	0.58780 0.65640 0.60800 -0.00400
H 	H 	0.53530 0.65160 0.61430 0.03900
C 	C 	0.70840 0.66360 0.91880 -0.08600
C 	C 	0.86480 0.01230 0.42170 -1.17900
H 	H 	0.86230 0.04840 0.40760 0.32300
H 	H 	0.86420 0.01610 0.45480 0.32100
H 	H 	0.82080 0.99060 0.41200 0.34800
C 	C 	0.95070 0.22560 0.40870 2.06300
C 	C 	0.87890 0.19360 0.42350 -2.59500
H 	H 	0.83950 0.21920 0.43340 0.77300
H 	H 	0.89180 0.16910 0.44860 0.74700
H 	H 	0.85990 0.17220 0.39780 0.76100
C 	C 	0.02040 0.18610 0.40600 -2.56000
H 	H 	0.00250 0.14890 0.40020 0.76900
H 	H 	0.04830 0.18700 0.43480 0.75400
H 	H 	0.05420 0.19760 0.38130 0.79400
C 	C 	0.01020 0.02370 0.40740 -1.22500
H 	H 	0.05740 0.00430 0.40020 0.37000
H 	H 	0.01420 0.04000 0.43770 0.33900
H 	H 	0.00180 0.05250 0.38490 0.36500
C 	C 	0.86990 0.21060 0.23720 0.15200
H 	H 	0.86030 0.23090 0.21040 -0.03100
C 	C 	0.96710 0.27030 0.44210 -2.94300
H 	H 	0.01260 0.29030 0.43250 0.90800
H 	H 	0.92370 0.29530 0.44340 0.89300
H 	H 	0.97570 0.25450 0.47220 0.86200
V 	V 	0.85870 0.10718 0.29270 1.26900
V 	V 	0.59860 0.17030 0.76350 1.48300
V 	V 	0.91310 0.10330 0.27750 1.36200
O 	O 	-0.00000 0.09680 0.25000 -0.89500
O 	O 	0.50000 0.18220 0.75000 -0.90500
