data_crystal

_cell_length_a 9.25150
_cell_length_b 14.16700
_cell_length_c 16.58980
_cell_angle_alpha 90.00000
_cell_angle_beta  93.03200
_cell_angle_gamma 90.00000

_symmetry_space_group_name_	'P 1'
_symmetry_space_group_name_H-M	'P 1'

loop_
_symmetry_equiv_pos_as_xyz
  x,y,z

loop_
_atom_site_label
_atom_site_type_symbol
_atom_site_fract_x
_atom_site_fract_y
_atom_site_fract_z
_atom_site_charge
Cd	Cd	0.97316 0.84317 0.24417 1.16000
Cd	Cd	0.52684 0.34317 0.25583 1.16100
Cd	Cd	0.02684 0.15683 0.75583 1.16000
Cd	Cd	0.47316 0.65683 0.74417 1.16100
Hg	Hg	0.97997 0.79569 0.91817 -0.03300
Hg	Hg	0.52003 0.29569 0.58183 -0.03400
Hg	Hg	0.02003 0.20431 0.08183 -0.03300
Hg	Hg	0.47997 0.70431 0.41817 -0.03400
C 	C 	0.05700 0.70470 0.08460 0.09400
C 	C 	0.14110 0.71080 0.39290 0.08500
C 	C 	0.63530 0.75140 0.25750 0.08900
C 	C 	0.86680 0.00560 0.10210 0.10700
C 	C 	0.44300 0.20470 0.41540 0.09100
C 	C 	0.35890 0.21080 0.10710 0.08400
C 	C 	0.86470 0.25140 0.24250 0.09000
C 	C 	0.63320 0.50560 0.39790 0.10300
C 	C 	0.94300 0.29530 0.91540 0.09400
C 	C 	0.85890 0.28920 0.60710 0.08500
C 	C 	0.36470 0.24860 0.74250 0.08900
C 	C 	0.13320 0.99440 0.89790 0.10700
C 	C 	0.55700 0.79530 0.58460 0.09100
C 	C 	0.64110 0.78920 0.89290 0.08400
C 	C 	0.13530 0.74860 0.75750 0.09000
C 	C 	0.36680 0.49440 0.60210 0.10300
S 	S 	0.06034 0.64743 0.99806 -0.10200
S 	S 	0.23573 0.65489 0.46509 -0.07900
S 	S 	0.46344 0.72186 0.26752 -0.11900
S 	S 	0.81813 0.09207 0.03919 -0.08300
S 	S 	0.43966 0.14743 0.50194 -0.09900
S 	S 	0.26427 0.15489 0.03491 -0.07900
S 	S 	0.03656 0.22186 0.23248 -0.11900
S 	S 	0.68187 0.59207 0.46081 -0.08100
S 	S 	0.93966 0.35257 0.00194 -0.10200
S 	S 	0.76427 0.34511 0.53491 -0.07900
S 	S 	0.53656 0.27814 0.73248 -0.11900
S 	S 	0.18187 0.90793 0.96081 -0.08300
S 	S 	0.56034 0.85257 0.49806 -0.09900
S 	S 	0.73573 0.84511 0.96509 -0.07900
S 	S 	0.96344 0.77814 0.76752 -0.11900
S 	S 	0.31813 0.40793 0.53919 -0.08100
N 	N 	0.05290 0.74390 0.14450 -0.26800
N 	N 	0.07250 0.74990 0.34410 -0.28500
N 	N 	0.75090 0.77210 0.24710 -0.27900
N 	N 	0.89670 0.94640 0.14410 -0.28700
N 	N 	0.44710 0.24390 0.35550 -0.26900
N 	N 	0.42750 0.24990 0.15590 -0.28500
N 	N 	0.74910 0.27210 0.25290 -0.27900
N 	N 	0.60330 0.44640 0.35590 -0.28400
N 	N 	0.94710 0.25610 0.85550 -0.26800
N 	N 	0.92750 0.25010 0.65590 -0.28500
N 	N 	0.24910 0.22790 0.75290 -0.27900
N 	N 	0.10330 0.05360 0.85590 -0.28700
N 	N 	0.55290 0.75610 0.64450 -0.26900
N 	N 	0.57250 0.75010 0.84410 -0.28500
N 	N 	0.25090 0.72790 0.74710 -0.27900
N 	N 	0.39670 0.55360 0.64410 -0.28400
