data_crystal

_cell_length_a 10.58700
_cell_length_b 26.04880
_cell_length_c 11.76310
_cell_angle_alpha 90.00000
_cell_angle_beta  98.32600
_cell_angle_gamma 90.00000

_symmetry_space_group_name_	'P 1'
_symmetry_space_group_name_H-M	'P 1'

loop_
_symmetry_equiv_pos_as_xyz
  x,y,z

loop_
_atom_site_label
_atom_site_type_symbol
_atom_site_fract_x
_atom_site_fract_y
_atom_site_fract_z
_atom_site_charge
Gd	Gd	0.85279 0.91132 0.86264 1.57200
Gd	Gd	0.36022 0.78671 0.94540 1.56200
Gd	Gd	0.77483 0.03433 0.46097 1.30300
P 	P 	0.91061 0.91279 0.56003 0.52100
N 	N 	0.86820 0.83693 0.38400 -0.13700
H 	H 	0.81920 0.86120 0.34320 0.10900
O 	O 	0.86030 0.91444 0.67310 -0.45200
O 	O 	0.84260 0.94945 0.47110 -0.42700
O 	O 	0.05360 0.91823 0.57100 -0.45100
O 	O 	0.53280 0.84447 0.01940 -0.35200
O 	O 	0.71380 0.88375 0.99550 -0.36900
O 	O 	0.52490 0.79983 0.81450 -0.36200
O 	O 	0.69300 0.84712 0.78270 -0.36500
O 	O 	0.13300 0.78634 0.94200 -0.36500
O 	O 	0.95320 0.83204 0.90810 -0.39100
O 	O 	0.27060 0.87256 0.93220 -0.34100
O 	O 	0.08970 0.91541 0.87270 -0.34700
O 	O 	0.33580 0.71500 0.82000 -0.38500
O 	O 	0.35270 0.69041 0.64190 -0.36000
O 	O 	0.26390 0.80843 0.74160 -0.33800
O 	O 	0.29300 0.78501 0.56390 -0.35400
O 	O 	0.93830 0.94368 0.05040 -0.36800
O 	O 	0.07830 0.99990 0.14060 -0.38000
O 	O 	0.63570 0.00979 0.60080 -0.37200
O 	O 	0.43440 0.99506 0.62650 -0.37300
C 	C 	0.86920 0.84731 0.50990 -0.22300
H 	H 	0.92910 0.82380 0.55290 0.10500
H 	H 	0.78520 0.83930 0.52880 0.10100
C 	C 	0.81070 0.78512 0.35270 -0.03300
H 	H 	0.72490 0.78370 0.37250 0.03800
H 	H 	0.86120 0.75870 0.39590 0.06200
C 	C 	0.80630 0.77550 0.22460 -0.13600
H 	H 	0.77170 0.74150 0.20620 0.07700
H 	H 	0.74950 0.80030 0.18210 0.08100
C 	C 	0.93570 0.77940 0.18710 -0.03400
H 	H 	0.92760 0.77580 0.10420 0.04700
H 	H 	0.99000 0.75200 0.22180 0.05200
C 	C 	0.99550 0.83120 0.22310 -0.15100
H 	H 	0.08150 0.83250 0.20390 0.08300
H 	H 	0.94620 0.85840 0.18150 0.09100
C 	C 	0.99960 0.83940 0.35140 -0.00700
H 	H 	0.05290 0.81330 0.39310 0.05100
H 	H 	0.03700 0.87270 0.37260 0.02000
C 	C 	0.61940 0.85521 0.96300 0.24100
C 	C 	0.61220 0.83188 0.84220 0.23800
C 	C 	0.07210 0.82710 0.92030 0.26500
C 	C 	0.15120 0.87613 0.90710 0.23700
C 	C 	0.32980 0.72253 0.71470 0.26700
C 	C 	0.29130 0.77714 0.66800 0.23800
C 	C 	0.00460 0.98336 0.05570 0.26400
C 	C 	0.51970 0.00135 0.56560 0.24100
Gd	Gd	0.14721 0.41132 0.63736 1.57600
Gd	Gd	0.63978 0.28671 0.55460 1.56600
Gd	Gd	0.22517 0.53433 0.03903 1.30600
P 	P 	0.08939 0.41279 0.93997 0.52300
N 	N 	0.13180 0.33693 0.11600 -0.13600
H 	H 	0.18080 0.36120 0.15680 0.10900
O 	O 	0.13970 0.41444 0.82690 -0.45200
O 	O 	0.15740 0.44945 0.02890 -0.42800
O 	O 	0.94640 0.41823 0.92900 -0.45100
O 	O 	0.46720 0.34447 0.48060 -0.35500
O 	O 	0.28620 0.38375 0.50450 -0.36900
O 	O 	0.47510 0.29983 0.68550 -0.36200
O 	O 	0.30700 0.34712 0.71730 -0.36500
O 	O 	0.86700 0.28634 0.55800 -0.36500
O 	O 	0.04680 0.33204 0.59190 -0.39000
O 	O 	0.72940 0.37256 0.56780 -0.34100
O 	O 	0.91030 0.41541 0.62730 -0.34700
O 	O 	0.66420 0.21500 0.68000 -0.38500
O 	O 	0.64730 0.19041 0.85810 -0.35900
O 	O 	0.73610 0.30843 0.75840 -0.33800
O 	O 	0.70700 0.28501 0.93610 -0.35300
O 	O 	0.06170 0.44368 0.44960 -0.37100
O 	O 	0.92170 0.49990 0.35940 -0.38000
O 	O 	0.36430 0.50979 0.89920 -0.37200
O 	O 	0.56560 0.49506 0.87350 -0.37200
C 	C 	0.13080 0.34731 0.99010 -0.22100
H 	H 	0.07090 0.32380 0.94710 0.10500
H 	H 	0.21480 0.33930 0.97120 0.10100
C 	C 	0.18930 0.28512 0.14730 -0.03300
H 	H 	0.27510 0.28370 0.12750 0.03800
H 	H 	0.13880 0.25870 0.10410 0.06100
C 	C 	0.19370 0.27550 0.27540 -0.13600
H 	H 	0.22830 0.24150 0.29380 0.07700
H 	H 	0.25050 0.30030 0.31790 0.08100
C 	C 	0.06430 0.27940 0.31290 -0.03400
H 	H 	0.07240 0.27580 0.39580 0.04600
H 	H 	0.01000 0.25200 0.27820 0.05100
C 	C 	0.00450 0.33120 0.27690 -0.15100
H 	H 	0.91850 0.33250 0.29610 0.08300
H 	H 	0.05380 0.35840 0.31850 0.09000
C 	C 	0.00040 0.33940 0.14860 -0.00900
H 	H 	0.94710 0.31330 0.10690 0.05200
H 	H 	0.96300 0.37270 0.12740 0.02000
C 	C 	0.38060 0.35521 0.53700 0.24500
C 	C 	0.38780 0.33188 0.65780 0.23700
C 	C 	0.92790 0.32710 0.57970 0.26500
C 	C 	0.84880 0.37613 0.59290 0.23700
C 	C 	0.67020 0.22253 0.78530 0.26700
C 	C 	0.70870 0.27714 0.83200 0.23800
C 	C 	0.99540 0.48336 0.44430 0.26400
C 	C 	0.48030 0.50135 0.93440 0.24100
Gd	Gd	0.14721 0.08868 0.13736 1.57300
Gd	Gd	0.63978 0.21329 0.05460 1.56300
Gd	Gd	0.22517 0.96567 0.53903 1.30400
P 	P 	0.08939 0.08721 0.43997 0.52200
N 	N 	0.13180 0.16307 0.61600 -0.13600
H 	H 	0.18080 0.13880 0.65680 0.11000
O 	O 	0.13970 0.08556 0.32690 -0.45200
O 	O 	0.15740 0.05055 0.52890 -0.42700
O 	O 	0.94640 0.08177 0.42900 -0.45100
O 	O 	0.46720 0.15553 0.98060 -0.35200
O 	O 	0.28620 0.11625 0.00450 -0.36900
O 	O 	0.47510 0.20017 0.18550 -0.36200
O 	O 	0.30700 0.15288 0.21730 -0.36500
O 	O 	0.86700 0.21366 0.05800 -0.36500
O 	O 	0.04680 0.16796 0.09190 -0.39100
O 	O 	0.72940 0.12744 0.06780 -0.34100
O 	O 	0.91030 0.08459 0.12730 -0.34700
O 	O 	0.66420 0.28500 0.18000 -0.38500
O 	O 	0.64730 0.30959 0.35810 -0.36000
O 	O 	0.73610 0.19157 0.25840 -0.33800
O 	O 	0.70700 0.21499 0.43610 -0.35400
O 	O 	0.06170 0.05632 0.94960 -0.36800
O 	O 	0.92170 0.00010 0.85940 -0.38000
O 	O 	0.36430 0.99021 0.39920 -0.37200
O 	O 	0.56560 0.00494 0.37350 -0.37300
C 	C 	0.13080 0.15269 0.49010 -0.22300
H 	H 	0.07090 0.17620 0.44710 0.10500
H 	H 	0.21480 0.16070 0.47120 0.10100
C 	C 	0.18930 0.21488 0.64730 -0.03300
H 	H 	0.27510 0.21630 0.62750 0.03800
H 	H 	0.13880 0.24130 0.60410 0.06200
C 	C 	0.19370 0.22450 0.77540 -0.13600
H 	H 	0.22830 0.25850 0.79380 0.07700
H 	H 	0.25050 0.19970 0.81790 0.08100
C 	C 	0.06430 0.22060 0.81290 -0.03400
H 	H 	0.07240 0.22420 0.89580 0.04700
H 	H 	0.01000 0.24800 0.77820 0.05200
C 	C 	0.00450 0.16880 0.77690 -0.15100
H 	H 	0.91850 0.16750 0.79610 0.08300
H 	H 	0.05380 0.14160 0.81850 0.09100
C 	C 	0.00040 0.16060 0.64860 -0.00700
H 	H 	0.94710 0.18670 0.60690 0.05100
H 	H 	0.96300 0.12730 0.62740 0.02000
C 	C 	0.38060 0.14479 0.03700 0.24100
C 	C 	0.38780 0.16812 0.15780 0.23800
C 	C 	0.92790 0.17290 0.07970 0.26500
C 	C 	0.84880 0.12387 0.09290 0.23700
C 	C 	0.67020 0.27747 0.28530 0.26700
C 	C 	0.70870 0.22286 0.33200 0.23800
C 	C 	0.99540 0.01664 0.94430 0.26400
C 	C 	0.48030 0.99865 0.43440 0.24100
Gd	Gd	0.85279 0.58868 0.36264 1.57600
Gd	Gd	0.36022 0.71329 0.44540 1.56600
Gd	Gd	0.77483 0.46567 0.96097 1.30600
P 	P 	0.91061 0.58721 0.06003 0.52300
N 	N 	0.86820 0.66307 0.88400 -0.13600
H 	H 	0.81920 0.63880 0.84320 0.10900
O 	O 	0.86030 0.58556 0.17310 -0.45200
O 	O 	0.84260 0.55055 0.97110 -0.42800
O 	O 	0.05360 0.58177 0.07100 -0.45100
O 	O 	0.53280 0.65553 0.51940 -0.35500
O 	O 	0.71380 0.61625 0.49550 -0.36900
O 	O 	0.52490 0.70017 0.31450 -0.36200
O 	O 	0.69300 0.65288 0.28270 -0.36500
O 	O 	0.13300 0.71366 0.44200 -0.36500
O 	O 	0.95320 0.66796 0.40810 -0.39000
O 	O 	0.27060 0.62744 0.43220 -0.34100
O 	O 	0.08970 0.58459 0.37270 -0.34700
O 	O 	0.33580 0.78500 0.32000 -0.38500
O 	O 	0.35270 0.80959 0.14190 -0.35900
O 	O 	0.26390 0.69157 0.24160 -0.33800
O 	O 	0.29300 0.71499 0.06390 -0.35300
O 	O 	0.93830 0.55632 0.55040 -0.37100
O 	O 	0.07830 0.50010 0.64060 -0.38000
O 	O 	0.63570 0.49021 0.10080 -0.37200
O 	O 	0.43440 0.50494 0.12650 -0.37200
C 	C 	0.86920 0.65269 0.00990 -0.22100
H 	H 	0.92910 0.67620 0.05290 0.10500
H 	H 	0.78520 0.66070 0.02880 0.10100
C 	C 	0.81070 0.71488 0.85270 -0.03300
H 	H 	0.72490 0.71630 0.87250 0.03800
H 	H 	0.86120 0.74130 0.89590 0.06100
C 	C 	0.80630 0.72450 0.72460 -0.13600
H 	H 	0.77170 0.75850 0.70620 0.07700
H 	H 	0.74950 0.69970 0.68210 0.08100
C 	C 	0.93570 0.72060 0.68710 -0.03400
H 	H 	0.92760 0.72420 0.60420 0.04600
H 	H 	0.99000 0.74800 0.72180 0.05100
C 	C 	0.99550 0.66880 0.72310 -0.15100
H 	H 	0.08150 0.66750 0.70390 0.08300
H 	H 	0.94620 0.64160 0.68150 0.09000
C 	C 	0.99960 0.66060 0.85140 -0.00900
H 	H 	0.05290 0.68670 0.89310 0.05200
H 	H 	0.03700 0.62730 0.87260 0.02000
C 	C 	0.61940 0.64479 0.46300 0.24500
C 	C 	0.61220 0.66812 0.34220 0.23700
C 	C 	0.07210 0.67290 0.42030 0.26500
C 	C 	0.15120 0.62387 0.40710 0.23700
C 	C 	0.32980 0.77747 0.21470 0.26700
C 	C 	0.29130 0.72286 0.16800 0.23800
C 	C 	0.00460 0.51664 0.55570 0.26400
C 	C 	0.51970 0.49865 0.06560 0.24100
