data_crystal

_cell_length_a 24.68030
_cell_length_b 10.59660
_cell_length_c 19.98250
_cell_angle_alpha 90.00000
_cell_angle_beta  99.51500
_cell_angle_gamma 90.00000

_symmetry_space_group_name_	'P 1'
_symmetry_space_group_name_H-M	'P 1'

loop_
_symmetry_equiv_pos_as_xyz
  x,y,z

loop_
_atom_site_label
_atom_site_type_symbol
_atom_site_fract_x
_atom_site_fract_y
_atom_site_fract_z
_atom_site_charge
W 	W 	0.39665 0.77149 0.71032 1.07500
W 	W 	0.38151 0.98954 0.82811 1.16000
W 	W 	0.48530 0.24111 0.86776 1.32100
W 	W 	0.39832 0.22945 0.69858 1.06300
W 	W 	0.47565 0.75997 0.86331 1.36700
W 	W 	0.42312 0.01187 0.58521 0.91700
O 	O 	0.45580 0.90770 0.77820 -0.71000
O 	O 	0.37570 0.13890 0.61720 -0.44100
O 	O 	0.52980 0.08700 0.81030 -0.78000
O 	O 	0.54900 0.31470 0.84740 -0.47000
O 	O 	0.35130 0.85810 0.76130 -0.44600
O 	O 	0.37270 0.10230 0.75070 -0.53600
O 	O 	0.53680 0.72180 0.82140 -0.48700
O 	O 	0.42710 0.68140 0.79360 -0.46500
O 	O 	0.46830 0.14190 0.56310 -0.45400
O 	O 	0.41300 0.85370 0.88410 -0.46600
O 	O 	0.44430 0.27830 0.78230 -0.49100
O 	O 	0.52000 0.89170 0.90860 -0.43100
O 	O 	0.43180 0.10840 0.87220 -0.54900
O 	O 	0.39100 0.89580 0.64540 -0.41700
O 	O 	0.46420 0.35510 0.92050 -0.45300
O 	O 	0.48030 0.64540 0.92400 -0.48200
N 	N 	0.57300 0.47560 0.98030 -0.20300
C 	C 	0.60680 0.37230 0.99680 0.15300
H 	H 	0.59790 0.29950 0.01860 -0.02800
N 	N 	0.65620 0.39610 0.97510 -0.16100
C 	C 	0.65290 0.51410 0.94510 -0.00100
H 	H 	0.68040 0.55350 0.92620 0.00700
C 	C 	0.60150 0.56320 0.94830 0.01600
H 	H 	0.58840 0.64150 0.93190 0.01700
C 	C 	0.70990 0.23280 0.03960 -0.20600
H 	H 	0.68270 0.22170 0.06620 0.08700
C 	C 	0.70280 0.32050 0.98780 0.18100
C 	C 	0.74290 0.33800 0.94800 -0.16700
H 	H 	0.73800 0.39770 0.91330 0.06500
W 	W 	0.89665 0.27149 0.71032 1.05400
W 	W 	0.88151 0.48954 0.82811 1.02600
W 	W 	0.98530 0.74111 0.86776 1.47200
W 	W 	0.89832 0.72945 0.69858 1.08700
W 	W 	0.97565 0.25997 0.86331 1.49200
W 	W 	0.92312 0.51187 0.58521 1.05200
O 	O 	0.95580 0.40770 0.77820 -0.71100
O 	O 	0.87570 0.63890 0.61720 -0.44300
O 	O 	0.02980 0.58700 0.81030 -0.80400
O 	O 	0.04900 0.81470 0.84740 -0.50900
O 	O 	0.85130 0.35810 0.76130 -0.45500
O 	O 	0.87270 0.60230 0.75070 -0.47500
O 	O 	0.03680 0.22180 0.82140 -0.55500
O 	O 	0.92710 0.18140 0.79360 -0.48400
O 	O 	0.96830 0.64190 0.56310 -0.39700
O 	O 	0.91300 0.35370 0.88410 -0.46700
O 	O 	0.94430 0.77830 0.78230 -0.47600
O 	O 	0.02000 0.39170 0.90860 -0.55600
O 	O 	0.93180 0.60840 0.87220 -0.48200
O 	O 	0.89100 0.39580 0.64540 -0.47700
O 	O 	0.96420 0.85510 0.92050 -0.40600
O 	O 	0.98030 0.14540 0.92400 -0.47700
N 	N 	0.07300 0.97560 0.98030 -0.15000
C 	C 	0.10680 0.87230 0.99680 0.16700
H 	H 	0.09790 0.79950 0.01860 -0.03200
N 	N 	0.15620 0.89610 0.97510 -0.12200
C 	C 	0.15290 0.01410 0.94510 -0.07400
H 	H 	0.18040 0.05350 0.92620 -0.00000
C 	C 	0.10150 0.06320 0.94830 -0.05900
H 	H 	0.08840 0.14150 0.93190 0.01800
C 	C 	0.20990 0.73280 0.03960 -0.20800
H 	H 	0.18270 0.72170 0.06620 0.09400
C 	C 	0.20280 0.82050 0.98780 0.19800
C 	C 	0.24290 0.83800 0.94800 -0.17000
H 	H 	0.23800 0.89770 0.91330 0.08900
W 	W 	0.60335 0.77149 0.78968 1.07500
W 	W 	0.61849 0.98954 0.67189 1.15400
W 	W 	0.51470 0.24111 0.63224 1.31900
W 	W 	0.60168 0.22945 0.80142 1.06000
W 	W 	0.52435 0.75997 0.63669 1.36600
W 	W 	0.57688 0.01187 0.91479 0.92900
O 	O 	0.54420 0.90770 0.72180 -0.71100
O 	O 	0.62430 0.13890 0.88280 -0.44000
O 	O 	0.47020 0.08700 0.68970 -0.78000
O 	O 	0.45100 0.31470 0.65260 -0.47000
O 	O 	0.64870 0.85810 0.73870 -0.44600
O 	O 	0.62730 0.10230 0.74930 -0.53500
O 	O 	0.46320 0.72180 0.67860 -0.48700
O 	O 	0.57290 0.68140 0.70640 -0.46600
O 	O 	0.53170 0.14190 0.93690 -0.44600
O 	O 	0.58700 0.85370 0.61590 -0.47000
O 	O 	0.55570 0.27830 0.71770 -0.49200
O 	O 	0.48000 0.89170 0.59140 -0.43300
O 	O 	0.56820 0.10840 0.62780 -0.55300
O 	O 	0.60900 0.89580 0.85460 -0.41700
O 	O 	0.53580 0.35510 0.57950 -0.46500
O 	O 	0.51970 0.64540 0.57600 -0.49200
N 	N 	0.42700 0.47560 0.51970 -0.20300
C 	C 	0.39320 0.37230 0.50320 0.09600
H 	H 	0.40210 0.29950 0.48140 0.01200
N 	N 	0.34380 0.39610 0.52490 -0.13900
C 	C 	0.34710 0.51410 0.55490 -0.00800
H 	H 	0.31960 0.55350 0.57380 0.00900
C 	C 	0.39850 0.56320 0.55170 0.01600
H 	H 	0.41160 0.64150 0.56810 0.01300
C 	C 	0.29010 0.23280 0.46040 -0.09800
H 	H 	0.31730 0.22170 0.43380 0.05500
C 	C 	0.29720 0.32050 0.51220 0.09400
C 	C 	0.25710 0.33800 0.55200 -0.08500
H 	H 	0.26200 0.39770 0.58670 0.03600
W 	W 	0.10335 0.27149 0.78968 1.05600
W 	W 	0.11849 0.48954 0.67189 1.00400
W 	W 	0.01470 0.74111 0.63224 1.16900
W 	W 	0.10168 0.72945 0.80142 1.08200
W 	W 	0.02435 0.25997 0.63669 1.23300
W 	W 	0.07688 0.51187 0.91479 1.07100
O 	O 	0.04420 0.40770 0.72180 -0.76100
O 	O 	0.12430 0.63890 0.88280 -0.44200
O 	O 	0.97020 0.58700 0.68970 -0.70800
O 	O 	0.95100 0.81470 0.65260 -0.39700
O 	O 	0.14870 0.35810 0.73870 -0.44900
O 	O 	0.12730 0.60230 0.74930 -0.47100
O 	O 	0.96320 0.22180 0.67860 -0.43600
O 	O 	0.07290 0.18140 0.70640 -0.47500
O 	O 	0.03170 0.64190 0.93690 -0.50600
O 	O 	0.08700 0.35370 0.61590 -0.45700
O 	O 	0.05570 0.77830 0.71770 -0.47700
O 	O 	0.98000 0.39170 0.59140 -0.42600
O 	O 	0.06820 0.60840 0.62780 -0.48500
O 	O 	0.10900 0.39580 0.85460 -0.48000
O 	O 	0.03580 0.85510 0.57950 -0.42800
O 	O 	0.01970 0.14540 0.57600 -0.52300
N 	N 	0.92700 0.97560 0.51970 -0.12000
C 	C 	0.89320 0.87230 0.50320 0.11200
H 	H 	0.90210 0.79950 0.48140 0.01600
N 	N 	0.84380 0.89610 0.52490 -0.10000
C 	C 	0.84710 0.01410 0.55490 -0.08200
H 	H 	0.81960 0.05350 0.57380 0.00100
C 	C 	0.89850 0.06320 0.55170 -0.05100
H 	H 	0.91160 0.14150 0.56810 0.03500
C 	C 	0.79010 0.73280 0.46040 -0.09000
H 	H 	0.81730 0.72170 0.43380 0.05900
C 	C 	0.79720 0.82050 0.51220 0.10200
C 	C 	0.75710 0.83800 0.55200 -0.08000
H 	H 	0.76200 0.89770 0.58670 0.05600
W 	W 	0.60335 0.22851 0.28968 1.06800
W 	W 	0.61849 0.01046 0.17189 0.86200
W 	W 	0.51470 0.75889 0.13224 1.31700
W 	W 	0.60168 0.77055 0.30142 1.06500
W 	W 	0.52435 0.24003 0.13669 1.36900
W 	W 	0.57688 0.98813 0.41479 1.20200
O 	O 	0.54420 0.09230 0.22180 -0.75800
O 	O 	0.62430 0.86110 0.38280 -0.44300
O 	O 	0.47020 0.91300 0.18970 -0.72100
O 	O 	0.45100 0.68530 0.15260 -0.47200
O 	O 	0.64870 0.14190 0.23870 -0.45100
O 	O 	0.62730 0.89770 0.24930 -0.41000
O 	O 	0.46320 0.27820 0.17860 -0.49000
O 	O 	0.57290 0.31860 0.20640 -0.46400
O 	O 	0.53170 0.85810 0.43690 -0.46100
O 	O 	0.58700 0.14630 0.11590 -0.45900
O 	O 	0.55570 0.72170 0.21770 -0.48700
O 	O 	0.48000 0.10830 0.09140 -0.55900
O 	O 	0.56820 0.89160 0.12780 -0.42400
O 	O 	0.60900 0.10420 0.35460 -0.54000
O 	O 	0.53580 0.64490 0.07950 -0.46300
O 	O 	0.51970 0.35460 0.07600 -0.50100
N 	N 	0.42700 0.52440 0.01970 -0.20000
C 	C 	0.39320 0.62770 0.00320 0.03500
H 	H 	0.40210 0.70050 0.98140 0.05600
N 	N 	0.34380 0.60390 0.02490 -0.11600
C 	C 	0.34710 0.48590 0.05490 -0.02100
H 	H 	0.31960 0.44650 0.07380 0.00200
C 	C 	0.39850 0.43680 0.05170 0.01100
H 	H 	0.41160 0.35850 0.06810 0.00100
C 	C 	0.29010 0.76720 0.96040 0.03900
H 	H 	0.31730 0.77830 0.93380 0.01800
C 	C 	0.29720 0.67950 0.01220 -0.00900
C 	C 	0.25710 0.66200 0.05200 0.01800
H 	H 	0.26200 0.60230 0.08670 -0.00100
W 	W 	0.10335 0.72851 0.28968 1.08900
W 	W 	0.11849 0.51046 0.17189 0.99200
W 	W 	0.01470 0.25889 0.13224 1.15500
W 	W 	0.10168 0.27055 0.30142 1.03900
W 	W 	0.02435 0.74003 0.13669 1.23600
W 	W 	0.07688 0.48813 0.41479 1.06400
O 	O 	0.04420 0.59230 0.22180 -0.76100
O 	O 	0.12430 0.36110 0.38280 -0.44100
O 	O 	0.97020 0.41300 0.18970 -0.69800
O 	O 	0.95100 0.18530 0.15260 -0.42700
O 	O 	0.14870 0.64190 0.23870 -0.44200
O 	O 	0.12730 0.39770 0.24930 -0.47100
O 	O 	0.96320 0.77820 0.17860 -0.41900
O 	O 	0.07290 0.81860 0.20640 -0.44200
O 	O 	0.03170 0.35810 0.43690 -0.51700
O 	O 	0.08700 0.64630 0.11590 -0.45800
O 	O 	0.05570 0.22170 0.21770 -0.50100
O 	O 	0.98000 0.60830 0.09140 -0.42900
O 	O 	0.06820 0.39160 0.12780 -0.49200
O 	O 	0.10900 0.60420 0.35460 -0.48000
O 	O 	0.03580 0.14490 0.07950 -0.49200
O 	O 	0.01970 0.85460 0.07600 -0.48300
N 	N 	0.92700 0.02440 0.01970 -0.22900
C 	C 	0.89320 0.12770 0.00320 0.03100
H 	H 	0.90210 0.20050 0.98140 0.05600
N 	N 	0.84380 0.10390 0.02490 -0.15800
C 	C 	0.84710 0.98590 0.05490 0.05400
H 	H 	0.81960 0.94650 0.07380 0.01000
C 	C 	0.89850 0.93680 0.05170 0.08600
H 	H 	0.91160 0.85850 0.06810 0.00400
C 	C 	0.79010 0.26720 0.96040 0.02100
H 	H 	0.81730 0.27830 0.93380 0.01700
C 	C 	0.79720 0.17950 0.01220 -0.01000
C 	C 	0.75710 0.16200 0.05200 0.00500
H 	H 	0.76200 0.10230 0.08670 -0.01800
W 	W 	0.39665 0.22851 0.21032 1.06700
W 	W 	0.38151 0.01046 0.32811 0.86500
W 	W 	0.48530 0.75889 0.36776 1.31800
W 	W 	0.39832 0.77055 0.19858 1.06700
W 	W 	0.47565 0.24003 0.36331 1.37000
W 	W 	0.42312 0.98813 0.08521 1.19000
O 	O 	0.45580 0.09230 0.27820 -0.75900
O 	O 	0.37570 0.86110 0.11720 -0.44500
O 	O 	0.52980 0.91300 0.31030 -0.72200
O 	O 	0.54900 0.68530 0.34740 -0.47300
O 	O 	0.35130 0.14190 0.26130 -0.45100
O 	O 	0.37270 0.89770 0.25070 -0.41000
O 	O 	0.53680 0.27820 0.32140 -0.49000
O 	O 	0.42710 0.31860 0.29360 -0.46200
O 	O 	0.46830 0.85810 0.06310 -0.46800
O 	O 	0.41300 0.14630 0.38410 -0.45500
O 	O 	0.44430 0.72170 0.28230 -0.48600
O 	O 	0.52000 0.10830 0.40860 -0.55500
O 	O 	0.43180 0.89160 0.37220 -0.42000
O 	O 	0.39100 0.10420 0.14540 -0.54100
O 	O 	0.46420 0.64490 0.42050 -0.45500
O 	O 	0.48030 0.35460 0.42400 -0.49400
N 	N 	0.57300 0.52440 0.48030 -0.20400
C 	C 	0.60680 0.62770 0.49680 0.09300
H 	H 	0.59790 0.70050 0.51860 0.01400
N 	N 	0.65620 0.60390 0.47510 -0.13800
C 	C 	0.65290 0.48590 0.44510 -0.01300
H 	H 	0.68040 0.44650 0.42620 0.00100
C 	C 	0.60150 0.43680 0.44830 0.01100
H 	H 	0.58840 0.35850 0.43190 0.00400
C 	C 	0.70990 0.76720 0.53960 -0.07800
H 	H 	0.68270 0.77830 0.56620 0.05300
C 	C 	0.70280 0.67950 0.48780 0.08600
C 	C 	0.74290 0.66200 0.44800 -0.07100
H 	H 	0.73800 0.60230 0.41330 0.03100
W 	W 	0.89665 0.72851 0.21032 1.08700
W 	W 	0.88151 0.51046 0.32811 1.01600
W 	W 	0.98530 0.25889 0.36776 1.47200
W 	W 	0.89832 0.27055 0.19858 1.04600
W 	W 	0.97565 0.74003 0.36331 1.50200
W 	W 	0.92312 0.48813 0.08521 1.04600
O 	O 	0.95580 0.59230 0.27820 -0.71000
O 	O 	0.87570 0.36110 0.11720 -0.44300
O 	O 	0.02980 0.41300 0.31030 -0.79800
O 	O 	0.04900 0.18530 0.34740 -0.54500
O 	O 	0.85130 0.64190 0.26130 -0.44800
O 	O 	0.87270 0.39770 0.25070 -0.47500
O 	O 	0.03680 0.77820 0.32140 -0.54000
O 	O 	0.92710 0.81860 0.29360 -0.45200
O 	O 	0.96830 0.35810 0.06310 -0.40300
O 	O 	0.91300 0.64630 0.38410 -0.46700
O 	O 	0.94430 0.22170 0.28230 -0.50000
O 	O 	0.02000 0.60830 0.40860 -0.56100
O 	O 	0.93180 0.39160 0.37220 -0.48800
O 	O 	0.89100 0.60420 0.14540 -0.47700
O 	O 	0.96420 0.14490 0.42050 -0.47000
O 	O 	0.98030 0.85460 0.42400 -0.44000
N 	N 	0.07300 0.02440 0.48030 -0.26500
C 	C 	0.10680 0.12770 0.49680 0.07800
H 	H 	0.09790 0.20050 0.51860 0.01300
N 	N 	0.15620 0.10390 0.47510 -0.17900
C 	C 	0.15290 0.98590 0.44510 0.06300
H 	H 	0.18040 0.94650 0.42620 0.00900
C 	C 	0.10150 0.93680 0.44830 0.08100
H 	H 	0.08840 0.85850 0.43190 -0.01500
C 	C 	0.20990 0.26720 0.53960 -0.08600
H 	H 	0.18270 0.27830 0.56620 0.05000
C 	C 	0.20280 0.17950 0.48780 0.07700
C 	C 	0.24290 0.16200 0.44800 -0.07700
H 	H 	0.23800 0.10230 0.41330 0.01100
Si	Si	0.50000 0.00000 0.75000 1.88900
Si	Si	0.00000 0.50000 0.75000 1.89100
Si	Si	0.50000 0.00000 0.25000 1.87200
Si	Si	0.00000 0.50000 0.25000 1.88000
Cu	Cu	0.50000 0.50000 -0.00000 0.92700
Cu	Cu	-0.00000 0.00000 -0.00000 0.84900
Cu	Cu	0.50000 0.50000 0.50000 0.94000
Cu	Cu	0.00000 0.00000 0.50000 0.86100
