data_crystal

_cell_length_a 18.70770
_cell_length_b 21.52640
_cell_length_c 24.81140
_cell_angle_alpha 90.00000
_cell_angle_beta  90.00000
_cell_angle_gamma 90.00000

_symmetry_space_group_name_	'P 1'
_symmetry_space_group_name_H-M	'P 1'

loop_
_symmetry_equiv_pos_as_xyz
  x,y,z

loop_
_atom_site_label
_atom_site_type_symbol
_atom_site_fract_x
_atom_site_fract_y
_atom_site_fract_z
_atom_site_charge
Zn	Zn	0.76128 0.85589 0.96442 1.20600
Zn	Zn	0.73872 0.35589 0.03558 1.20600
Zn	Zn	0.23872 0.14411 0.46442 1.20600
Zn	Zn	0.26128 0.64411 0.53558 1.20600
Zn	Zn	0.23872 0.14411 0.03558 1.20600
Zn	Zn	0.26128 0.64411 0.96442 1.20600
Zn	Zn	0.76128 0.85589 0.53558 1.20600
Zn	Zn	0.73872 0.35589 0.46442 1.20600
Zn	Zn	0.27181 0.84398 0.25000 1.20000
Zn	Zn	0.77061 0.02945 0.25000 1.20100
Zn	Zn	0.22819 0.34398 0.75000 1.20000
Zn	Zn	0.72939 0.52945 0.75000 1.20100
Zn	Zn	0.72819 0.15602 0.75000 1.20000
Zn	Zn	0.22939 0.97055 0.75000 1.20100
Zn	Zn	0.77181 0.65602 0.25000 1.20000
Zn	Zn	0.27061 0.47055 0.25000 1.20100
H 	H 	0.15540 0.80970 0.02250 -0.00600
H 	H 	0.10720 0.76890 0.06020 0.00300
H 	H 	0.07420 0.00880 0.04460 0.22600
H 	H 	0.91150 0.93600 0.16770 0.00700
H 	H 	0.91970 0.86340 0.16720 0.00200
H 	H 	0.27860 0.76320 0.05950 0.03700
H 	H 	0.34020 0.77190 0.14570 0.00600
H 	H 	0.88760 0.87690 0.03680 -0.01400
H 	H 	0.76470 0.90820 0.16270 0.03200
H 	H 	0.68890 0.88920 0.08480 0.02300
H 	H 	0.37580 0.08020 0.41660 -0.00700
H 	H 	0.25570 0.97530 0.32390 0.03900
H 	H 	0.17870 0.03890 0.38070 0.01900
H 	H 	0.39890 0.95490 0.32400 0.01700
H 	H 	0.41250 0.02240 0.30230 0.00900
H 	H 	0.82650 0.13270 0.33940 0.01000
H 	H 	0.62050 0.13370 0.44740 0.01800
H 	H 	0.58060 0.15780 0.39570 0.02000
H 	H 	0.55480 0.67970 0.82080 0.08200
H 	H 	0.95700 0.79440 0.13740 0.32600
H 	H 	0.99380 0.76400 0.08710 0.31600
H 	H 	0.03720 0.77370 0.14050 0.32400
H 	H 	0.91500 0.01260 0.12130 0.32000
H 	H 	0.98400 0.05360 0.11730 0.32800
H 	H 	0.93920 0.03920 0.06540 0.30900
H 	H 	0.19890 0.89100 0.01340 0.34600
H 	H 	0.16250 0.94550 0.98180 0.31900
H 	H 	0.20350 0.95900 0.03560 0.33200
H 	H 	0.40990 0.89520 0.37700 0.26500
H 	H 	0.48030 0.86020 0.39280 0.26600
H 	H 	0.42790 0.88340 0.43790 0.26100
H 	H 	0.44990 0.09970 0.31200 0.28700
H 	H 	0.47790 0.14810 0.35420 0.29200
H 	H 	0.53050 0.11960 0.31180 0.28900
H 	H 	0.64920 0.98180 0.49990 0.27100
H 	H 	0.68710 0.02750 0.45990 0.26800
H 	H 	0.63710 0.05350 0.50520 0.26800
H 	H 	0.63800 0.04700 0.32910 0.00800
H 	H 	0.50220 0.77210 0.98140 0.02000
H 	H 	0.64000 0.73930 0.86660 0.02100
H 	H 	0.44300 0.67000 0.85490 0.01500
H 	H 	0.73100 0.17300 0.40800 0.06300
H 	H 	0.15300 0.83900 0.16270 -0.01200
H 	H 	0.34460 0.30970 0.97750 -0.00600
H 	H 	0.39280 0.26890 0.93980 0.00300
H 	H 	0.42580 0.50880 0.95540 0.22900
H 	H 	0.58850 0.43600 0.83230 0.00800
H 	H 	0.58030 0.36340 0.83280 0.00300
H 	H 	0.22140 0.26320 0.94050 0.03700
H 	H 	0.15980 0.27190 0.85430 0.00600
H 	H 	0.61240 0.37690 0.96320 -0.01400
H 	H 	0.73530 0.40820 0.83730 0.03200
H 	H 	0.81110 0.38920 0.91520 0.02300
H 	H 	0.12420 0.58020 0.58340 -0.00700
H 	H 	0.24430 0.47530 0.67610 0.03700
H 	H 	0.32130 0.53890 0.61930 0.02000
H 	H 	0.10110 0.45490 0.67600 0.01700
H 	H 	0.08750 0.52240 0.69770 0.01000
H 	H 	0.67350 0.63270 0.66060 0.01000
H 	H 	0.87950 0.63370 0.55260 0.01800
H 	H 	0.91940 0.65780 0.60430 0.02000
H 	H 	0.94520 0.17970 0.17920 0.08100
H 	H 	0.54300 0.29440 0.86260 0.32700
H 	H 	0.50620 0.26400 0.91290 0.31800
H 	H 	0.46280 0.27370 0.85950 0.32500
H 	H 	0.58500 0.51260 0.87870 0.32000
H 	H 	0.51600 0.55360 0.88270 0.32800
H 	H 	0.56080 0.53920 0.93460 0.30800
H 	H 	0.30110 0.39100 0.98660 0.34600
H 	H 	0.33750 0.44550 0.01820 0.32000
H 	H 	0.29650 0.45900 0.96440 0.33200
H 	H 	0.09010 0.39520 0.62300 0.26400
H 	H 	0.01970 0.36020 0.60720 0.26500
H 	H 	0.07210 0.38340 0.56210 0.26000
H 	H 	0.05010 0.59970 0.68800 0.28500
H 	H 	0.02210 0.64810 0.64580 0.29100
H 	H 	0.96950 0.61960 0.68820 0.28700
H 	H 	0.85080 0.48180 0.50010 0.27200
H 	H 	0.81290 0.52750 0.54010 0.26800
H 	H 	0.86290 0.55350 0.49480 0.26900
H 	H 	0.86200 0.54700 0.67090 0.00800
H 	H 	0.99780 0.27210 0.01860 0.02000
H 	H 	0.86000 0.23930 0.13340 0.02200
H 	H 	0.05700 0.17000 0.14510 0.01600
H 	H 	0.76900 0.67300 0.59200 0.06300
H 	H 	0.34700 0.33900 0.83730 -0.01200
H 	H 	0.84460 0.19030 0.52250 -0.00700
H 	H 	0.89280 0.23110 0.56020 0.00300
H 	H 	0.92580 0.99120 0.54460 0.22700
H 	H 	0.08850 0.06400 0.66770 0.00700
H 	H 	0.08030 0.13660 0.66720 0.00200
H 	H 	0.72140 0.23680 0.55950 0.03700
H 	H 	0.65980 0.22810 0.64570 0.00600
H 	H 	0.11240 0.12310 0.53680 -0.01400
H 	H 	0.23530 0.09180 0.66270 0.03200
H 	H 	0.31110 0.11080 0.58480 0.02300
H 	H 	0.62420 0.91980 0.91660 -0.00700
H 	H 	0.74430 0.02470 0.82390 0.03900
H 	H 	0.82130 0.96110 0.88070 0.01900
H 	H 	0.60110 0.04510 0.82400 0.01600
H 	H 	0.58750 0.97760 0.80230 0.00800
H 	H 	0.17350 0.86730 0.83940 0.01100
H 	H 	0.37950 0.86630 0.94740 0.01800
H 	H 	0.41940 0.84220 0.89570 0.02000
H 	H 	0.44520 0.32030 0.32080 0.08200
H 	H 	0.04300 0.20560 0.63740 0.32500
H 	H 	0.00620 0.23600 0.58710 0.31500
H 	H 	0.96280 0.22630 0.64050 0.32300
H 	H 	0.08500 0.98740 0.62130 0.32100
H 	H 	0.01600 0.94640 0.61730 0.32800
H 	H 	0.06080 0.96080 0.56540 0.30900
H 	H 	0.80110 0.10900 0.51340 0.34600
H 	H 	0.83750 0.05450 0.48180 0.32000
H 	H 	0.79650 0.04100 0.53560 0.33300
H 	H 	0.59010 0.10480 0.87700 0.26500
H 	H 	0.51970 0.13980 0.89280 0.26600
H 	H 	0.57210 0.11660 0.93790 0.26100
H 	H 	0.55010 0.90030 0.81200 0.28700
H 	H 	0.52210 0.85190 0.85420 0.29300
H 	H 	0.46950 0.88040 0.81180 0.28900
H 	H 	0.35080 0.01820 0.99990 0.27300
H 	H 	0.31290 0.97250 0.95990 0.27000
H 	H 	0.36290 0.94650 0.00520 0.27000
H 	H 	0.36200 0.95300 0.82910 0.00800
H 	H 	0.49780 0.22790 0.48140 0.02000
H 	H 	0.36000 0.26070 0.36660 0.02100
H 	H 	0.55700 0.33000 0.35490 0.01500
H 	H 	0.26900 0.82700 0.90800 0.06300
H 	H 	0.84700 0.16100 0.66270 -0.01200
H 	H 	0.65540 0.69030 0.47750 -0.00700
H 	H 	0.60720 0.73110 0.43980 0.00200
H 	H 	0.57420 0.49120 0.45540 0.22900
H 	H 	0.41150 0.56400 0.33230 0.00800
H 	H 	0.41970 0.63660 0.33280 0.00300
H 	H 	0.77860 0.73680 0.44050 0.03700
H 	H 	0.84020 0.72810 0.35430 0.00600
H 	H 	0.38760 0.62310 0.46320 -0.01400
H 	H 	0.26470 0.59180 0.33730 0.03200
H 	H 	0.18890 0.61080 0.41520 0.02300
H 	H 	0.87580 0.41980 0.08340 -0.00700
H 	H 	0.75570 0.52470 0.17610 0.03700
H 	H 	0.67870 0.46110 0.11930 0.02000
H 	H 	0.89890 0.54510 0.17600 0.01700
H 	H 	0.91250 0.47760 0.19770 0.01000
H 	H 	0.32650 0.36730 0.16060 0.01000
H 	H 	0.12050 0.36630 0.05260 0.01800
H 	H 	0.08060 0.34220 0.10430 0.02000
H 	H 	0.05480 0.82030 0.67920 0.08100
H 	H 	0.45700 0.70560 0.36260 0.32700
H 	H 	0.49380 0.73600 0.41290 0.31800
H 	H 	0.53720 0.72630 0.35950 0.32500
H 	H 	0.41500 0.48740 0.37870 0.32000
H 	H 	0.48400 0.44640 0.38270 0.32800
H 	H 	0.43920 0.46080 0.43460 0.30900
H 	H 	0.69890 0.60900 0.48660 0.34700
H 	H 	0.66250 0.55450 0.51820 0.32000
H 	H 	0.70350 0.54100 0.46440 0.33300
H 	H 	0.90990 0.60480 0.12300 0.26400
H 	H 	0.98030 0.63980 0.10720 0.26500
H 	H 	0.92790 0.61660 0.06210 0.26000
H 	H 	0.94990 0.40030 0.18800 0.28500
H 	H 	0.97790 0.35190 0.14580 0.29100
H 	H 	0.03050 0.38040 0.18820 0.28700
H 	H 	0.14920 0.51820 0.00010 0.27200
H 	H 	0.18710 0.47250 0.04010 0.26900
H 	H 	0.13710 0.44650 0.99480 0.26900
H 	H 	0.13800 0.45300 0.17090 0.00800
H 	H 	0.00220 0.72790 0.51860 0.02000
H 	H 	0.14000 0.76070 0.63340 0.02200
H 	H 	0.94300 0.83000 0.64510 0.01600
H 	H 	0.23100 0.32700 0.09200 0.06300
H 	H 	0.65300 0.66100 0.33730 -0.01200
H 	H 	0.84460 0.19030 0.97750 -0.00600
H 	H 	0.89280 0.23110 0.93980 0.00300
H 	H 	0.92580 0.99120 0.95540 0.22600
H 	H 	0.08850 0.06400 0.83230 0.00700
H 	H 	0.08030 0.13660 0.83280 0.00200
H 	H 	0.72140 0.23680 0.94050 0.03700
H 	H 	0.65980 0.22810 0.85430 0.00600
H 	H 	0.11240 0.12310 0.96320 -0.01400
H 	H 	0.23530 0.09180 0.83730 0.03200
H 	H 	0.31110 0.11080 0.91520 0.02300
H 	H 	0.62420 0.91980 0.58340 -0.00700
H 	H 	0.74430 0.02470 0.67610 0.03900
H 	H 	0.82130 0.96110 0.61930 0.01900
H 	H 	0.60110 0.04510 0.67600 0.01700
H 	H 	0.58750 0.97760 0.69770 0.00900
H 	H 	0.17350 0.86730 0.66060 0.01000
H 	H 	0.37950 0.86630 0.55260 0.01800
H 	H 	0.41940 0.84220 0.60430 0.02000
H 	H 	0.44520 0.32030 0.17920 0.08200
H 	H 	0.04300 0.20560 0.86260 0.32600
H 	H 	0.00620 0.23600 0.91290 0.31600
H 	H 	0.96280 0.22630 0.85950 0.32400
H 	H 	0.08500 0.98740 0.87870 0.32000
H 	H 	0.01600 0.94640 0.88270 0.32800
H 	H 	0.06080 0.96080 0.93460 0.30900
H 	H 	0.80110 0.10900 0.98660 0.34600
H 	H 	0.83750 0.05450 0.01820 0.31900
H 	H 	0.79650 0.04100 0.96440 0.33200
H 	H 	0.59010 0.10480 0.62300 0.26500
H 	H 	0.51970 0.13980 0.60720 0.26600
H 	H 	0.57210 0.11660 0.56210 0.26100
H 	H 	0.55010 0.90030 0.68800 0.28700
H 	H 	0.52210 0.85190 0.64580 0.29200
H 	H 	0.46950 0.88040 0.68820 0.28900
H 	H 	0.35080 0.01820 0.50010 0.27100
H 	H 	0.31290 0.97250 0.54010 0.26800
H 	H 	0.36290 0.94650 0.49480 0.26800
H 	H 	0.36200 0.95300 0.67090 0.00800
H 	H 	0.49780 0.22790 0.01860 0.02000
H 	H 	0.36000 0.26070 0.13340 0.02100
H 	H 	0.55700 0.33000 0.14510 0.01500
H 	H 	0.26900 0.82700 0.59200 0.06300
H 	H 	0.84700 0.16100 0.83730 -0.01200
H 	H 	0.65540 0.69030 0.02250 -0.00600
H 	H 	0.60720 0.73110 0.06020 0.00300
H 	H 	0.57420 0.49120 0.04460 0.22900
H 	H 	0.41150 0.56400 0.16770 0.00800
H 	H 	0.41970 0.63660 0.16720 0.00300
H 	H 	0.77860 0.73680 0.05950 0.03700
H 	H 	0.84020 0.72810 0.14570 0.00600
H 	H 	0.38760 0.62310 0.03680 -0.01400
H 	H 	0.26470 0.59180 0.16270 0.03200
H 	H 	0.18890 0.61080 0.08480 0.02300
H 	H 	0.87580 0.41980 0.41660 -0.00700
H 	H 	0.75570 0.52470 0.32390 0.03700
H 	H 	0.67870 0.46110 0.38070 0.02000
H 	H 	0.89890 0.54510 0.32400 0.01700
H 	H 	0.91250 0.47760 0.30230 0.01000
H 	H 	0.32650 0.36730 0.33940 0.01000
H 	H 	0.12050 0.36630 0.44740 0.01800
H 	H 	0.08060 0.34220 0.39570 0.02000
H 	H 	0.05480 0.82030 0.82080 0.08100
H 	H 	0.45700 0.70560 0.13740 0.32700
H 	H 	0.49380 0.73600 0.08710 0.31800
H 	H 	0.53720 0.72630 0.14050 0.32500
H 	H 	0.41500 0.48740 0.12130 0.32000
H 	H 	0.48400 0.44640 0.11730 0.32800
H 	H 	0.43920 0.46080 0.06540 0.30800
H 	H 	0.69890 0.60900 0.01340 0.34600
H 	H 	0.66250 0.55450 0.98180 0.32000
H 	H 	0.70350 0.54100 0.03560 0.33200
H 	H 	0.90990 0.60480 0.37700 0.26400
H 	H 	0.98030 0.63980 0.39280 0.26500
H 	H 	0.92790 0.61660 0.43790 0.26000
H 	H 	0.94990 0.40030 0.31200 0.28500
H 	H 	0.97790 0.35190 0.35420 0.29100
H 	H 	0.03050 0.38040 0.31180 0.28700
H 	H 	0.14920 0.51820 0.49990 0.27200
H 	H 	0.18710 0.47250 0.45990 0.26800
H 	H 	0.13710 0.44650 0.50520 0.26900
H 	H 	0.13800 0.45300 0.32910 0.00800
H 	H 	0.00220 0.72790 0.98140 0.02000
H 	H 	0.14000 0.76070 0.86660 0.02200
H 	H 	0.94300 0.83000 0.85490 0.01600
H 	H 	0.23100 0.32700 0.40800 0.06300
H 	H 	0.65300 0.66100 0.16270 -0.01200
H 	H 	0.15540 0.80970 0.47750 -0.00700
H 	H 	0.10720 0.76890 0.43980 0.00300
H 	H 	0.07420 0.00880 0.45540 0.22700
H 	H 	0.91150 0.93600 0.33230 0.00700
H 	H 	0.91970 0.86340 0.33280 0.00200
H 	H 	0.27860 0.76320 0.44050 0.03700
H 	H 	0.34020 0.77190 0.35430 0.00600
H 	H 	0.88760 0.87690 0.46320 -0.01400
H 	H 	0.76470 0.90820 0.33730 0.03200
H 	H 	0.68890 0.88920 0.41520 0.02300
H 	H 	0.37580 0.08020 0.08340 -0.00700
H 	H 	0.25570 0.97530 0.17610 0.03900
H 	H 	0.17870 0.03890 0.11930 0.01900
H 	H 	0.39890 0.95490 0.17600 0.01600
H 	H 	0.41250 0.02240 0.19770 0.00800
H 	H 	0.82650 0.13270 0.16060 0.01100
H 	H 	0.62050 0.13370 0.05260 0.01800
H 	H 	0.58060 0.15780 0.10430 0.02000
H 	H 	0.55480 0.67970 0.67920 0.08200
H 	H 	0.95700 0.79440 0.36260 0.32500
H 	H 	0.99380 0.76400 0.41290 0.31500
H 	H 	0.03720 0.77370 0.35950 0.32300
H 	H 	0.91500 0.01260 0.37870 0.32100
H 	H 	0.98400 0.05360 0.38270 0.32800
H 	H 	0.93920 0.03920 0.43460 0.30900
H 	H 	0.19890 0.89100 0.48660 0.34600
H 	H 	0.16250 0.94550 0.51820 0.32000
H 	H 	0.20350 0.95900 0.46440 0.33300
H 	H 	0.40990 0.89520 0.12300 0.26500
H 	H 	0.48030 0.86020 0.10720 0.26600
H 	H 	0.42790 0.88340 0.06210 0.26100
H 	H 	0.44990 0.09970 0.18800 0.28700
H 	H 	0.47790 0.14810 0.14580 0.29300
H 	H 	0.53050 0.11960 0.18820 0.28900
H 	H 	0.64920 0.98180 0.00010 0.27300
H 	H 	0.68710 0.02750 0.04010 0.27000
H 	H 	0.63710 0.05350 0.99480 0.27000
H 	H 	0.63800 0.04700 0.17090 0.00800
H 	H 	0.50220 0.77210 0.51860 0.02000
H 	H 	0.64000 0.73930 0.63340 0.02100
H 	H 	0.44300 0.67000 0.64510 0.01500
H 	H 	0.73100 0.17300 0.09200 0.06300
H 	H 	0.15300 0.83900 0.33730 -0.01200
H 	H 	0.34460 0.30970 0.52250 -0.00700
H 	H 	0.39280 0.26890 0.56020 0.00200
H 	H 	0.42580 0.50880 0.54460 0.22900
H 	H 	0.58850 0.43600 0.66770 0.00800
H 	H 	0.58030 0.36340 0.66720 0.00300
H 	H 	0.22140 0.26320 0.55950 0.03700
H 	H 	0.15980 0.27190 0.64570 0.00600
H 	H 	0.61240 0.37690 0.53680 -0.01400
H 	H 	0.73530 0.40820 0.66270 0.03200
H 	H 	0.81110 0.38920 0.58480 0.02300
H 	H 	0.12420 0.58020 0.91660 -0.00700
H 	H 	0.24430 0.47530 0.82390 0.03700
H 	H 	0.32130 0.53890 0.88070 0.02000
H 	H 	0.10110 0.45490 0.82400 0.01700
H 	H 	0.08750 0.52240 0.80230 0.01000
H 	H 	0.67350 0.63270 0.83940 0.01000
H 	H 	0.87950 0.63370 0.94740 0.01800
H 	H 	0.91940 0.65780 0.89570 0.02000
H 	H 	0.94520 0.17970 0.32080 0.08100
H 	H 	0.54300 0.29440 0.63740 0.32700
H 	H 	0.50620 0.26400 0.58710 0.31800
H 	H 	0.46280 0.27370 0.64050 0.32500
H 	H 	0.58500 0.51260 0.62130 0.32000
H 	H 	0.51600 0.55360 0.61730 0.32800
H 	H 	0.56080 0.53920 0.56540 0.30900
H 	H 	0.30110 0.39100 0.51340 0.34700
H 	H 	0.33750 0.44550 0.48180 0.32000
H 	H 	0.29650 0.45900 0.53560 0.33300
H 	H 	0.09010 0.39520 0.87700 0.26400
H 	H 	0.01970 0.36020 0.89280 0.26500
H 	H 	0.07210 0.38340 0.93790 0.26000
H 	H 	0.05010 0.59970 0.81200 0.28500
H 	H 	0.02210 0.64810 0.85420 0.29100
H 	H 	0.96950 0.61960 0.81180 0.28700
H 	H 	0.85080 0.48180 0.99990 0.27200
H 	H 	0.81290 0.52750 0.95990 0.26900
H 	H 	0.86290 0.55350 0.00520 0.26900
H 	H 	0.86200 0.54700 0.82910 0.00800
H 	H 	0.99780 0.27210 0.48140 0.02000
H 	H 	0.86000 0.23930 0.36660 0.02200
H 	H 	0.05700 0.17000 0.35490 0.01600
H 	H 	0.76900 0.67300 0.90800 0.06300
H 	H 	0.34700 0.33900 0.66270 -0.01200
H 	H 	0.68800 0.84200 0.25000 0.04200
H 	H 	0.12000 0.12200 0.25000 0.42700
H 	H 	0.00700 0.13200 0.25000 -0.12000
H 	H 	0.18700 0.03300 0.25000 -0.15300
H 	H 	0.99500 0.94300 0.25000 -0.02100
H 	H 	0.63400 0.74200 0.25000 0.02700
H 	H 	0.50600 0.92700 0.25000 0.05600
H 	H 	0.50800 0.73600 0.25000 0.04100
H 	H 	0.81200 0.34200 0.75000 0.04200
H 	H 	0.38000 0.62200 0.75000 0.43700
H 	H 	0.49300 0.63200 0.75000 -0.12400
H 	H 	0.31300 0.53300 0.75000 -0.15900
H 	H 	0.50500 0.44300 0.75000 -0.02200
H 	H 	0.86600 0.24200 0.75000 0.02700
H 	H 	0.99400 0.42700 0.75000 0.05500
H 	H 	0.99200 0.23600 0.75000 0.04100
H 	H 	0.31200 0.15800 0.75000 0.04200
H 	H 	0.88000 0.87800 0.75000 0.42700
H 	H 	0.99300 0.86800 0.75000 -0.12000
H 	H 	0.81300 0.96700 0.75000 -0.15300
H 	H 	0.00500 0.05700 0.75000 -0.02100
H 	H 	0.36600 0.25800 0.75000 0.02700
H 	H 	0.49400 0.07300 0.75000 0.05600
H 	H 	0.49200 0.26400 0.75000 0.04100
H 	H 	0.18800 0.65800 0.25000 0.04200
H 	H 	0.62000 0.37800 0.25000 0.43700
H 	H 	0.50700 0.36800 0.25000 -0.12400
H 	H 	0.68700 0.46700 0.25000 -0.15900
H 	H 	0.49500 0.55700 0.25000 -0.02200
H 	H 	0.13400 0.75800 0.25000 0.02700
H 	H 	0.00600 0.57300 0.25000 0.05500
H 	H 	0.00800 0.76400 0.25000 0.04100
C 	C 	0.13500 0.80680 0.05840 0.10400
C 	C 	0.08710 0.86140 0.06795 -0.37200
C 	C 	0.10610 0.91960 0.04830 0.53100
C 	C 	0.06210 0.97010 0.05860 -0.60000
C 	C 	0.00060 0.96420 0.08940 0.49700
C 	C 	0.98150 0.90590 0.11010 -0.35400
C 	C 	0.02390 0.85430 0.09829 0.44200
C 	C 	0.91550 0.89990 0.14450 0.08600
C 	C 	0.18980 0.82160 0.14980 0.10100
C 	C 	0.26010 0.77970 0.09120 -0.02100
C 	C 	0.29350 0.78450 0.13900 0.01600
C 	C 	0.84750 0.88240 0.05840 0.08300
C 	C 	0.78020 0.89950 0.12790 -0.01800
C 	C 	0.73860 0.88930 0.08470 0.00400
C 	C 	0.33590 0.06200 0.40095 0.07500
C 	C 	0.27050 0.00430 0.34940 -0.01400
C 	C 	0.22840 0.03910 0.38130 -0.00500
C 	C 	0.40470 0.99800 0.33460 0.04700
C 	C 	0.46850 0.00400 0.37146 -0.26100
C 	C 	0.48760 0.95450 0.40540 0.32700
C 	C 	0.58160 0.01570 0.44280 0.35200
C 	C 	0.54380 0.96080 0.44020 -0.24800
C 	C 	0.56310 0.06520 0.40970 -0.27100
C 	C 	0.50700 0.05940 0.37264 0.36000
C 	C 	0.77950 0.12060 0.34550 0.02900
C 	C 	0.73670 0.14420 0.38380 -0.05600
C 	C 	0.68020 0.07430 0.33840 0.07200
C 	C 	0.60790 0.12340 0.41050 0.04500
C 	C 	0.63460 0.79890 0.95870 0.33400
C 	C 	0.57960 0.75985 0.93034 -0.12900
C 	C 	0.59530 0.73190 0.88160 0.04100
C 	C 	0.54440 0.69700 0.85420 -0.14200
C 	C 	0.38870 0.70630 0.95050 0.34300
C 	C 	0.46140 0.71598 0.92591 -0.13000
C 	C 	0.51120 0.75250 0.95150 0.04900
C 	C 	0.47780 0.68840 0.87760 0.04500
C 	C 	0.00090 0.79080 0.11760 -0.96800
C 	C 	0.95550 0.02290 0.09930 -0.99200
C 	C 	0.17390 0.92970 0.01700 -1.06800
C 	C 	0.44770 0.89260 0.40310 -0.80100
C 	C 	0.48980 0.11140 0.33420 -0.87500
C 	C 	0.64440 0.02000 0.48030 -0.84100
C 	C 	0.36500 0.30680 0.94160 0.10400
C 	C 	0.41290 0.36140 0.93205 -0.37300
C 	C 	0.39390 0.41960 0.95170 0.53300
C 	C 	0.43790 0.47010 0.94140 -0.60300
C 	C 	0.49940 0.46420 0.91060 0.49600
C 	C 	0.51850 0.40590 0.88990 -0.35300
C 	C 	0.47610 0.35430 0.90171 0.44200
C 	C 	0.58450 0.39990 0.85550 0.08600
C 	C 	0.31020 0.32160 0.85020 0.10100
C 	C 	0.23990 0.27970 0.90880 -0.02100
C 	C 	0.20650 0.28450 0.86100 0.01600
C 	C 	0.65250 0.38240 0.94160 0.08300
C 	C 	0.71980 0.39950 0.87210 -0.01800
C 	C 	0.76140 0.38930 0.91530 0.00400
C 	C 	0.16410 0.56200 0.59905 0.07500
C 	C 	0.22950 0.50430 0.65060 -0.01200
C 	C 	0.27160 0.53910 0.61870 -0.00600
C 	C 	0.09530 0.49800 0.66540 0.04400
C 	C 	0.03150 0.50400 0.62854 -0.25900
C 	C 	0.01240 0.45450 0.59460 0.32500
C 	C 	0.91840 0.51570 0.55720 0.35100
C 	C 	0.95620 0.46080 0.55980 -0.24700
C 	C 	0.93690 0.56520 0.59030 -0.27000
C 	C 	0.99300 0.55940 0.62736 0.35800
C 	C 	0.72050 0.62060 0.65450 0.02900
C 	C 	0.76330 0.64420 0.61620 -0.05700
C 	C 	0.81980 0.57430 0.66160 0.07200
C 	C 	0.89210 0.62340 0.58950 0.04500
C 	C 	0.86540 0.29890 0.04130 0.33400
C 	C 	0.92040 0.25985 0.06966 -0.12800
C 	C 	0.90470 0.23190 0.11840 0.04000
C 	C 	0.95560 0.19700 0.14580 -0.14000
C 	C 	0.11130 0.20630 0.04950 0.34300
C 	C 	0.03860 0.21598 0.07409 -0.13000
C 	C 	0.98880 0.25250 0.04850 0.05100
C 	C 	0.02220 0.18840 0.12240 0.04300
C 	C 	0.49910 0.29080 0.88240 -0.97200
C 	C 	0.54450 0.52290 0.90070 -0.99100
C 	C 	0.32610 0.42970 0.98300 -1.06900
C 	C 	0.05230 0.39260 0.59690 -0.79900
C 	C 	0.01020 0.61140 0.66580 -0.87000
C 	C 	0.85560 0.52000 0.51970 -0.84200
C 	C 	0.86500 0.19320 0.55840 0.10400
C 	C 	0.91290 0.13860 0.56795 -0.37300
C 	C 	0.89390 0.08040 0.54830 0.53200
C 	C 	0.93790 0.02990 0.55860 -0.60100
C 	C 	0.99940 0.03580 0.58940 0.49800
C 	C 	0.01850 0.09410 0.61010 -0.35500
C 	C 	0.97610 0.14570 0.59829 0.44200
C 	C 	0.08450 0.10010 0.64450 0.08700
C 	C 	0.81020 0.17840 0.64980 0.10100
C 	C 	0.73990 0.22030 0.59120 -0.02100
C 	C 	0.70650 0.21550 0.63900 0.01600
C 	C 	0.15250 0.11760 0.55840 0.08300
C 	C 	0.21980 0.10050 0.62790 -0.01800
C 	C 	0.26140 0.11070 0.58470 0.00400
C 	C 	0.66410 0.93800 0.90095 0.07500
C 	C 	0.72950 0.99570 0.84940 -0.01500
C 	C 	0.77160 0.96090 0.88130 -0.00500
C 	C 	0.59530 0.00200 0.83460 0.04800
C 	C 	0.53150 0.99600 0.87146 -0.26300
C 	C 	0.51240 0.04550 0.90540 0.32800
C 	C 	0.41840 0.98430 0.94280 0.35300
C 	C 	0.45620 0.03920 0.94020 -0.24800
C 	C 	0.43690 0.93480 0.90970 -0.27200
C 	C 	0.49300 0.94060 0.87264 0.36100
C 	C 	0.22050 0.87940 0.84550 0.02900
C 	C 	0.26330 0.85580 0.88380 -0.05600
C 	C 	0.31980 0.92570 0.83840 0.07200
C 	C 	0.39210 0.87660 0.91050 0.04600
C 	C 	0.36540 0.20110 0.45870 0.33400
C 	C 	0.42040 0.24015 0.43034 -0.12800
C 	C 	0.40470 0.26810 0.38160 0.04000
C 	C 	0.45560 0.30300 0.35420 -0.14200
C 	C 	0.61130 0.29370 0.45050 0.34300
C 	C 	0.53860 0.28402 0.42591 -0.13000
C 	C 	0.48880 0.24750 0.45150 0.04900
C 	C 	0.52220 0.31160 0.37760 0.04500
C 	C 	0.99910 0.20920 0.61760 -0.96600
C 	C 	0.04450 0.97710 0.59930 -0.99300
C 	C 	0.82610 0.07030 0.51700 -1.07000
C 	C 	0.55230 0.10740 0.90310 -0.80200
C 	C 	0.51020 0.88860 0.83420 -0.87600
C 	C 	0.35560 0.98000 0.98030 -0.84600
C 	C 	0.63500 0.69320 0.44160 0.10400
C 	C 	0.58710 0.63860 0.43205 -0.37400
C 	C 	0.60610 0.58040 0.45170 0.53300
C 	C 	0.56210 0.52990 0.44140 -0.60400
C 	C 	0.50060 0.53580 0.41060 0.49700
C 	C 	0.48150 0.59410 0.38990 -0.35300
C 	C 	0.52390 0.64570 0.40171 0.44200
C 	C 	0.41550 0.60010 0.35550 0.08600
C 	C 	0.68980 0.67840 0.35020 0.10100
C 	C 	0.76010 0.72030 0.40880 -0.02100
C 	C 	0.79350 0.71550 0.36100 0.01600
C 	C 	0.34750 0.61760 0.44160 0.08300
C 	C 	0.28020 0.60050 0.37210 -0.01800
C 	C 	0.23860 0.61070 0.41530 0.00400
C 	C 	0.83590 0.43800 0.09905 0.07500
C 	C 	0.77050 0.49570 0.15060 -0.01200
C 	C 	0.72840 0.46090 0.11870 -0.00600
C 	C 	0.90470 0.50200 0.16540 0.04400
C 	C 	0.96850 0.49600 0.12854 -0.25900
C 	C 	0.98760 0.54550 0.09460 0.32600
C 	C 	0.08160 0.48430 0.05720 0.35200
C 	C 	0.04380 0.53920 0.05980 -0.24700
C 	C 	0.06310 0.43480 0.09030 -0.27000
C 	C 	0.00700 0.44060 0.12736 0.35700
C 	C 	0.27950 0.37940 0.15450 0.02900
C 	C 	0.23670 0.35580 0.11620 -0.05700
C 	C 	0.18020 0.42570 0.16160 0.07200
C 	C 	0.10790 0.37660 0.08950 0.04500
C 	C 	0.13460 0.70110 0.54130 0.33400
C 	C 	0.07960 0.74015 0.56966 -0.12800
C 	C 	0.09530 0.76810 0.61840 0.04000
C 	C 	0.04440 0.80300 0.64580 -0.14000
C 	C 	0.88870 0.79370 0.54950 0.34200
C 	C 	0.96140 0.78402 0.57409 -0.13000
C 	C 	0.01120 0.74750 0.54850 0.05000
C 	C 	0.97780 0.81160 0.62240 0.04300
C 	C 	0.50090 0.70920 0.38240 -0.97200
C 	C 	0.45550 0.47710 0.40070 -0.99100
C 	C 	0.67390 0.57030 0.48300 -1.07000
C 	C 	0.94770 0.60740 0.09690 -0.79900
C 	C 	0.98980 0.38860 0.16580 -0.86900
C 	C 	0.14440 0.48000 0.01970 -0.84400
C 	C 	0.86500 0.19320 0.94160 0.10400
C 	C 	0.91290 0.13860 0.93205 -0.37200
C 	C 	0.89390 0.08040 0.95170 0.53100
C 	C 	0.93790 0.02990 0.94140 -0.60000
C 	C 	0.99940 0.03580 0.91060 0.49700
C 	C 	0.01850 0.09410 0.88990 -0.35400
C 	C 	0.97610 0.14570 0.90171 0.44200
C 	C 	0.08450 0.10010 0.85550 0.08600
C 	C 	0.81020 0.17840 0.85020 0.10100
C 	C 	0.73990 0.22030 0.90880 -0.02100
C 	C 	0.70650 0.21550 0.86100 0.01600
C 	C 	0.15250 0.11760 0.94160 0.08300
C 	C 	0.21980 0.10050 0.87210 -0.01800
C 	C 	0.26140 0.11070 0.91530 0.00400
C 	C 	0.66410 0.93800 0.59905 0.07500
C 	C 	0.72950 0.99570 0.65060 -0.01400
C 	C 	0.77160 0.96090 0.61870 -0.00500
C 	C 	0.59530 0.00200 0.66540 0.04700
C 	C 	0.53150 0.99600 0.62854 -0.26100
C 	C 	0.51240 0.04550 0.59460 0.32700
C 	C 	0.41840 0.98430 0.55720 0.35200
C 	C 	0.45620 0.03920 0.55980 -0.24800
C 	C 	0.43690 0.93480 0.59030 -0.27100
C 	C 	0.49300 0.94060 0.62736 0.36000
C 	C 	0.22050 0.87940 0.65450 0.02900
C 	C 	0.26330 0.85580 0.61620 -0.05600
C 	C 	0.31980 0.92570 0.66160 0.07200
C 	C 	0.39210 0.87660 0.58950 0.04500
C 	C 	0.36540 0.20110 0.04130 0.33400
C 	C 	0.42040 0.24015 0.06966 -0.12900
C 	C 	0.40470 0.26810 0.11840 0.04100
C 	C 	0.45560 0.30300 0.14580 -0.14200
C 	C 	0.61130 0.29370 0.04950 0.34300
C 	C 	0.53860 0.28402 0.07409 -0.13000
C 	C 	0.48880 0.24750 0.04850 0.04900
C 	C 	0.52220 0.31160 0.12240 0.04500
C 	C 	0.99910 0.20920 0.88240 -0.96800
C 	C 	0.04450 0.97710 0.90070 -0.99200
C 	C 	0.82610 0.07030 0.98300 -1.06800
C 	C 	0.55230 0.10740 0.59690 -0.80100
C 	C 	0.51020 0.88860 0.66580 -0.87500
C 	C 	0.35560 0.98000 0.51970 -0.84100
C 	C 	0.63500 0.69320 0.05840 0.10400
C 	C 	0.58710 0.63860 0.06795 -0.37300
C 	C 	0.60610 0.58040 0.04830 0.53300
C 	C 	0.56210 0.52990 0.05860 -0.60300
C 	C 	0.50060 0.53580 0.08940 0.49600
C 	C 	0.48150 0.59410 0.11010 -0.35300
C 	C 	0.52390 0.64570 0.09829 0.44200
C 	C 	0.41550 0.60010 0.14450 0.08600
C 	C 	0.68980 0.67840 0.14980 0.10100
C 	C 	0.76010 0.72030 0.09120 -0.02100
C 	C 	0.79350 0.71550 0.13900 0.01600
C 	C 	0.34750 0.61760 0.05840 0.08300
C 	C 	0.28020 0.60050 0.12790 -0.01800
C 	C 	0.23860 0.61070 0.08470 0.00400
C 	C 	0.83590 0.43800 0.40095 0.07500
C 	C 	0.77050 0.49570 0.34940 -0.01200
C 	C 	0.72840 0.46090 0.38130 -0.00600
C 	C 	0.90470 0.50200 0.33460 0.04400
C 	C 	0.96850 0.49600 0.37146 -0.25900
C 	C 	0.98760 0.54550 0.40540 0.32500
C 	C 	0.08160 0.48430 0.44280 0.35100
C 	C 	0.04380 0.53920 0.44020 -0.24700
C 	C 	0.06310 0.43480 0.40970 -0.27000
C 	C 	0.00700 0.44060 0.37264 0.35800
C 	C 	0.27950 0.37940 0.34550 0.02900
C 	C 	0.23670 0.35580 0.38380 -0.05700
C 	C 	0.18020 0.42570 0.33840 0.07200
C 	C 	0.10790 0.37660 0.41050 0.04500
C 	C 	0.13460 0.70110 0.95870 0.33400
C 	C 	0.07960 0.74015 0.93034 -0.12800
C 	C 	0.09530 0.76810 0.88160 0.04000
C 	C 	0.04440 0.80300 0.85420 -0.14000
C 	C 	0.88870 0.79370 0.95050 0.34300
C 	C 	0.96140 0.78402 0.92591 -0.13000
C 	C 	0.01120 0.74750 0.95150 0.05100
C 	C 	0.97780 0.81160 0.87760 0.04300
C 	C 	0.50090 0.70920 0.11760 -0.97200
C 	C 	0.45550 0.47710 0.09930 -0.99100
C 	C 	0.67390 0.57030 0.01700 -1.06900
C 	C 	0.94770 0.60740 0.40310 -0.79900
C 	C 	0.98980 0.38860 0.33420 -0.87000
C 	C 	0.14440 0.48000 0.48030 -0.84200
C 	C 	0.13500 0.80680 0.44160 0.10400
C 	C 	0.08710 0.86140 0.43205 -0.37300
C 	C 	0.10610 0.91960 0.45170 0.53200
C 	C 	0.06210 0.97010 0.44140 -0.60100
C 	C 	0.00060 0.96420 0.41060 0.49800
C 	C 	0.98150 0.90590 0.38990 -0.35500
C 	C 	0.02390 0.85430 0.40171 0.44200
C 	C 	0.91550 0.89990 0.35550 0.08700
C 	C 	0.18980 0.82160 0.35020 0.10100
C 	C 	0.26010 0.77970 0.40880 -0.02100
C 	C 	0.29350 0.78450 0.36100 0.01600
C 	C 	0.84750 0.88240 0.44160 0.08300
C 	C 	0.78020 0.89950 0.37210 -0.01800
C 	C 	0.73860 0.88930 0.41530 0.00400
C 	C 	0.33590 0.06200 0.09905 0.07500
C 	C 	0.27050 0.00430 0.15060 -0.01500
C 	C 	0.22840 0.03910 0.11870 -0.00500
C 	C 	0.40470 0.99800 0.16540 0.04800
C 	C 	0.46850 0.00400 0.12854 -0.26300
C 	C 	0.48760 0.95450 0.09460 0.32800
C 	C 	0.58160 0.01570 0.05720 0.35300
C 	C 	0.54380 0.96080 0.05980 -0.24800
C 	C 	0.56310 0.06520 0.09030 -0.27200
C 	C 	0.50700 0.05940 0.12736 0.36100
C 	C 	0.77950 0.12060 0.15450 0.02900
C 	C 	0.73670 0.14420 0.11620 -0.05600
C 	C 	0.68020 0.07430 0.16160 0.07200
C 	C 	0.60790 0.12340 0.08950 0.04600
C 	C 	0.63460 0.79890 0.54130 0.33400
C 	C 	0.57960 0.75985 0.56966 -0.12800
C 	C 	0.59530 0.73190 0.61840 0.04000
C 	C 	0.54440 0.69700 0.64580 -0.14200
C 	C 	0.38870 0.70630 0.54950 0.34300
C 	C 	0.46140 0.71598 0.57409 -0.13000
C 	C 	0.51120 0.75250 0.54850 0.04900
C 	C 	0.47780 0.68840 0.62240 0.04500
C 	C 	0.00090 0.79080 0.38240 -0.96600
C 	C 	0.95550 0.02290 0.40070 -0.99300
C 	C 	0.17390 0.92970 0.48300 -1.07000
C 	C 	0.44770 0.89260 0.09690 -0.80200
C 	C 	0.48980 0.11140 0.16580 -0.87600
C 	C 	0.64440 0.02000 0.01970 -0.84600
C 	C 	0.36500 0.30680 0.55840 0.10400
C 	C 	0.41290 0.36140 0.56795 -0.37400
C 	C 	0.39390 0.41960 0.54830 0.53300
C 	C 	0.43790 0.47010 0.55860 -0.60400
C 	C 	0.49940 0.46420 0.58940 0.49700
C 	C 	0.51850 0.40590 0.61010 -0.35300
C 	C 	0.47610 0.35430 0.59829 0.44200
C 	C 	0.58450 0.39990 0.64450 0.08600
C 	C 	0.31020 0.32160 0.64980 0.10100
C 	C 	0.23990 0.27970 0.59120 -0.02100
C 	C 	0.20650 0.28450 0.63900 0.01600
C 	C 	0.65250 0.38240 0.55840 0.08300
C 	C 	0.71980 0.39950 0.62790 -0.01800
C 	C 	0.76140 0.38930 0.58470 0.00400
C 	C 	0.16410 0.56200 0.90095 0.07500
C 	C 	0.22950 0.50430 0.84940 -0.01200
C 	C 	0.27160 0.53910 0.88130 -0.00600
C 	C 	0.09530 0.49800 0.83460 0.04400
C 	C 	0.03150 0.50400 0.87146 -0.25900
C 	C 	0.01240 0.45450 0.90540 0.32600
C 	C 	0.91840 0.51570 0.94280 0.35200
C 	C 	0.95620 0.46080 0.94020 -0.24700
C 	C 	0.93690 0.56520 0.90970 -0.27000
C 	C 	0.99300 0.55940 0.87264 0.35700
C 	C 	0.72050 0.62060 0.84550 0.02900
C 	C 	0.76330 0.64420 0.88380 -0.05700
C 	C 	0.81980 0.57430 0.83840 0.07200
C 	C 	0.89210 0.62340 0.91050 0.04500
C 	C 	0.86540 0.29890 0.45870 0.33400
C 	C 	0.92040 0.25985 0.43034 -0.12800
C 	C 	0.90470 0.23190 0.38160 0.04000
C 	C 	0.95560 0.19700 0.35420 -0.14000
C 	C 	0.11130 0.20630 0.45050 0.34200
C 	C 	0.03860 0.21598 0.42591 -0.13000
C 	C 	0.98880 0.25250 0.45150 0.05000
C 	C 	0.02220 0.18840 0.37760 0.04300
C 	C 	0.49910 0.29080 0.61760 -0.97200
C 	C 	0.54450 0.52290 0.59930 -0.99100
C 	C 	0.32610 0.42970 0.51700 -1.07000
C 	C 	0.05230 0.39260 0.90310 -0.79900
C 	C 	0.01020 0.61140 0.83420 -0.86900
C 	C 	0.85560 0.52000 0.98030 -0.84400
C 	C 	0.90990 0.04480 0.25000 0.37300
C 	C 	0.98940 0.03780 0.25000 -0.33000
C 	C 	0.03050 0.09180 0.25000 0.43800
C 	C 	0.10370 0.08890 0.25000 -0.85300
C 	C 	0.13810 0.03340 0.25000 0.53900
C 	C 	0.09970 0.97820 0.25000 -0.35900
C 	C 	0.02460 0.98080 0.25000 0.24500
C 	C 	0.13760 0.91660 0.25000 0.43300
C 	C 	0.63850 0.95590 0.25000 0.32000
C 	C 	0.60210 0.89400 0.25000 -0.08100
C 	C 	0.63950 0.83990 0.25000 -0.01500
C 	C 	0.60450 0.78310 0.25000 -0.05500
C 	C 	0.53130 0.78160 0.25000 -0.01500
C 	C 	0.49070 0.83560 0.25000 -0.08500
C 	C 	0.52730 0.89210 0.25000 -0.00800
C 	C 	0.40970 0.83010 0.25000 0.29900
C 	C 	0.59010 0.54480 0.75000 0.37400
C 	C 	0.51060 0.53780 0.75000 -0.33800
C 	C 	0.46950 0.59180 0.75000 0.45300
C 	C 	0.39630 0.58890 0.75000 -0.87500
C 	C 	0.36190 0.53340 0.75000 0.55600
C 	C 	0.40030 0.47820 0.75000 -0.36800
C 	C 	0.47540 0.48080 0.75000 0.25000
C 	C 	0.36240 0.41660 0.75000 0.43600
C 	C 	0.86150 0.45590 0.75000 0.32100
C 	C 	0.89790 0.39400 0.75000 -0.08100
C 	C 	0.86050 0.33990 0.75000 -0.01400
C 	C 	0.89550 0.28310 0.75000 -0.05600
C 	C 	0.96870 0.28160 0.75000 -0.01400
C 	C 	0.00930 0.33560 0.75000 -0.08600
C 	C 	0.97270 0.39210 0.75000 -0.00600
C 	C 	0.09030 0.33010 0.75000 0.30000
C 	C 	0.09010 0.95520 0.75000 0.37300
C 	C 	0.01060 0.96220 0.75000 -0.33000
C 	C 	0.96950 0.90820 0.75000 0.43800
C 	C 	0.89630 0.91110 0.75000 -0.85300
C 	C 	0.86190 0.96660 0.75000 0.53900
C 	C 	0.90030 0.02180 0.75000 -0.35900
C 	C 	0.97540 0.01920 0.75000 0.24500
C 	C 	0.86240 0.08340 0.75000 0.43300
C 	C 	0.36150 0.04410 0.75000 0.32000
C 	C 	0.39790 0.10600 0.75000 -0.08100
C 	C 	0.36050 0.16010 0.75000 -0.01500
C 	C 	0.39550 0.21690 0.75000 -0.05500
C 	C 	0.46870 0.21840 0.75000 -0.01500
C 	C 	0.50930 0.16440 0.75000 -0.08500
C 	C 	0.47270 0.10790 0.75000 -0.00800
C 	C 	0.59030 0.16990 0.75000 0.29900
C 	C 	0.40990 0.45520 0.25000 0.37400
C 	C 	0.48940 0.46220 0.25000 -0.33800
C 	C 	0.53050 0.40820 0.25000 0.45300
C 	C 	0.60370 0.41110 0.25000 -0.87500
C 	C 	0.63810 0.46660 0.25000 0.55600
C 	C 	0.59970 0.52180 0.25000 -0.36800
C 	C 	0.52460 0.51920 0.25000 0.25000
C 	C 	0.63760 0.58340 0.25000 0.43600
C 	C 	0.13850 0.54410 0.25000 0.32100
C 	C 	0.10210 0.60600 0.25000 -0.08100
C 	C 	0.13950 0.66010 0.25000 -0.01400
C 	C 	0.10450 0.71690 0.25000 -0.05600
C 	C 	0.03130 0.71840 0.25000 -0.01400
C 	C 	0.99070 0.66440 0.25000 -0.08600
C 	C 	0.02730 0.60790 0.25000 -0.00600
C 	C 	0.90970 0.66990 0.25000 0.30000
N 	N 	0.24930 0.81030 0.17603 -0.27100
N 	N 	0.78091 0.87912 0.04067 -0.27600
N 	N 	0.74410 0.07660 0.31708 -0.27100
N 	N 	0.26947 0.07488 0.41474 -0.27000
N 	N 	0.19360 0.80400 0.09856 -0.14000
N 	N 	0.85010 0.89470 0.11090 -0.13800
N 	N 	0.33886 0.01970 0.36195 -0.13200
N 	N 	0.67320 0.11419 0.37860 -0.12500
N 	N 	0.25070 0.31030 0.82397 -0.27100
N 	N 	0.71909 0.37912 0.95933 -0.27600
N 	N 	0.75590 0.57660 0.68292 -0.27100
N 	N 	0.23053 0.57488 0.58526 -0.27000
N 	N 	0.30640 0.30400 0.90144 -0.14000
N 	N 	0.64990 0.39470 0.88910 -0.13800
N 	N 	0.16114 0.51970 0.63805 -0.13200
N 	N 	0.82680 0.61419 0.62140 -0.12500
N 	N 	0.75070 0.18970 0.67603 -0.27100
N 	N 	0.21909 0.12088 0.54067 -0.27600
N 	N 	0.25590 0.92340 0.81708 -0.27100
N 	N 	0.73053 0.92512 0.91474 -0.27000
N 	N 	0.80640 0.19600 0.59856 -0.14000
N 	N 	0.14990 0.10530 0.61090 -0.13800
N 	N 	0.66114 0.98030 0.86195 -0.13200
N 	N 	0.32680 0.88581 0.87860 -0.12500
N 	N 	0.74930 0.68970 0.32397 -0.27100
N 	N 	0.28091 0.62088 0.45933 -0.27600
N 	N 	0.24410 0.42340 0.18292 -0.27100
N 	N 	0.76947 0.42512 0.08526 -0.27000
N 	N 	0.69360 0.69600 0.40144 -0.14000
N 	N 	0.35010 0.60530 0.38910 -0.13800
N 	N 	0.83886 0.48030 0.13805 -0.13200
N 	N 	0.17320 0.38581 0.12140 -0.12500
N 	N 	0.75070 0.18970 0.82397 -0.27100
N 	N 	0.21909 0.12088 0.95933 -0.27600
N 	N 	0.25590 0.92340 0.68292 -0.27100
N 	N 	0.73053 0.92512 0.58526 -0.27000
N 	N 	0.80640 0.19600 0.90144 -0.14000
N 	N 	0.14990 0.10530 0.88910 -0.13800
N 	N 	0.66114 0.98030 0.63805 -0.13200
N 	N 	0.32680 0.88581 0.62140 -0.12500
N 	N 	0.74930 0.68970 0.17603 -0.27100
N 	N 	0.28091 0.62088 0.04067 -0.27600
N 	N 	0.24410 0.42340 0.31708 -0.27100
N 	N 	0.76947 0.42512 0.41474 -0.27000
N 	N 	0.69360 0.69600 0.09856 -0.14000
N 	N 	0.35010 0.60530 0.11090 -0.13800
N 	N 	0.83886 0.48030 0.36195 -0.13200
N 	N 	0.17320 0.38581 0.37860 -0.12500
N 	N 	0.24930 0.81030 0.32397 -0.27100
N 	N 	0.78091 0.87912 0.45933 -0.27600
N 	N 	0.74410 0.07660 0.18292 -0.27100
N 	N 	0.26947 0.07488 0.08526 -0.27000
N 	N 	0.19360 0.80400 0.40144 -0.14000
N 	N 	0.85010 0.89470 0.38910 -0.13800
N 	N 	0.33886 0.01970 0.13805 -0.13200
N 	N 	0.67320 0.11419 0.12140 -0.12500
N 	N 	0.25070 0.31030 0.67603 -0.27100
N 	N 	0.71909 0.37912 0.54067 -0.27600
N 	N 	0.75590 0.57660 0.81708 -0.27100
N 	N 	0.23053 0.57488 0.91474 -0.27000
N 	N 	0.30640 0.30400 0.59856 -0.14000
N 	N 	0.64990 0.39470 0.61090 -0.13800
N 	N 	0.16114 0.51970 0.86195 -0.13200
N 	N 	0.82680 0.61419 0.87860 -0.12500
O 	O 	0.69875 0.78802 0.94381 -0.46300
O 	O 	0.61678 0.83789 0.99176 -0.33700
O 	O 	0.35545 0.65804 0.93299 -0.46600
O 	O 	0.36607 0.74237 0.98467 -0.33000
O 	O 	0.80125 0.28802 0.05619 -0.46300
O 	O 	0.88322 0.33789 0.00824 -0.33700
O 	O 	0.14455 0.15804 0.06701 -0.46600
O 	O 	0.13393 0.24237 0.01533 -0.33000
O 	O 	0.30125 0.21198 0.44381 -0.46300
O 	O 	0.38322 0.16211 0.49176 -0.33700
O 	O 	0.64455 0.34196 0.43299 -0.46600
O 	O 	0.63393 0.25763 0.48467 -0.33000
O 	O 	0.19875 0.71198 0.55619 -0.46300
O 	O 	0.11678 0.66211 0.50824 -0.33700
O 	O 	0.85545 0.84196 0.56701 -0.46600
O 	O 	0.86607 0.75763 0.51533 -0.33000
O 	O 	0.30125 0.21198 0.05619 -0.46300
O 	O 	0.38322 0.16211 0.00824 -0.33700
O 	O 	0.64455 0.34196 0.06701 -0.46600
O 	O 	0.63393 0.25763 0.01533 -0.33000
O 	O 	0.19875 0.71198 0.94381 -0.46300
O 	O 	0.11678 0.66211 0.99176 -0.33700
O 	O 	0.85545 0.84196 0.93299 -0.46600
O 	O 	0.86607 0.75763 0.98467 -0.33000
O 	O 	0.69875 0.78802 0.55619 -0.46300
O 	O 	0.61678 0.83789 0.50824 -0.33700
O 	O 	0.35545 0.65804 0.56701 -0.46600
O 	O 	0.36607 0.74237 0.51533 -0.33000
O 	O 	0.80125 0.28802 0.44381 -0.46300
O 	O 	0.88322 0.33789 0.49176 -0.33700
O 	O 	0.14455 0.15804 0.43299 -0.46600
O 	O 	0.13393 0.24237 0.48467 -0.33000
O 	O 	0.88390 0.09780 0.25000 -0.37500
O 	O 	0.87100 0.99534 0.25000 -0.46000
O 	O 	0.10230 0.86847 0.25000 -0.33300
O 	O 	0.20630 0.91886 0.25000 -0.47300
O 	O 	0.70830 0.95436 0.25000 -0.45000
O 	O 	0.60340 0.00444 0.25000 -0.31000
O 	O 	0.37270 0.87966 0.25000 -0.44100
O 	O 	0.38360 0.77790 0.25000 -0.36300
O 	O 	0.61610 0.59780 0.75000 -0.37600
O 	O 	0.62900 0.49534 0.75000 -0.46000
O 	O 	0.39770 0.36847 0.75000 -0.33400
O 	O 	0.29370 0.41886 0.75000 -0.47400
O 	O 	0.79170 0.45436 0.75000 -0.45000
O 	O 	0.89660 0.50444 0.75000 -0.31000
O 	O 	0.12730 0.37966 0.75000 -0.44100
O 	O 	0.11640 0.27790 0.75000 -0.36300
O 	O 	0.11610 0.90220 0.75000 -0.37500
O 	O 	0.12900 0.00466 0.75000 -0.46000
O 	O 	0.89770 0.13153 0.75000 -0.33300
O 	O 	0.79370 0.08114 0.75000 -0.47300
O 	O 	0.29170 0.04564 0.75000 -0.45000
O 	O 	0.39660 0.99556 0.75000 -0.31000
O 	O 	0.62730 0.12034 0.75000 -0.44100
O 	O 	0.61640 0.22210 0.75000 -0.36300
O 	O 	0.38390 0.40220 0.25000 -0.37600
O 	O 	0.37100 0.50466 0.25000 -0.46000
O 	O 	0.60230 0.63153 0.25000 -0.33400
O 	O 	0.70630 0.58114 0.25000 -0.47400
O 	O 	0.20830 0.54564 0.25000 -0.45000
O 	O 	0.10340 0.49556 0.25000 -0.31000
O 	O 	0.87270 0.62034 0.25000 -0.44100
O 	O 	0.88360 0.72210 0.25000 -0.36300
