data_crystal

_cell_length_a 38.61030
_cell_length_b 38.61030
_cell_length_c 59.42100
_cell_angle_alpha 90.00000
_cell_angle_beta  90.00000
_cell_angle_gamma 120.00000

_symmetry_space_group_name_	'P 1'
_symmetry_space_group_name_H-M	'P 1'

loop_
_symmetry_equiv_pos_as_xyz
  x,y,z

loop_
_atom_site_label
_atom_site_type_symbol
_atom_site_fract_x
_atom_site_fract_y
_atom_site_fract_z
_atom_site_charge
C 	C 	0.30622 0.20838 0.37016 0.36600
C 	C 	0.29531 0.23846 0.37372 -0.05900
C 	C 	0.31831 0.27023 0.38809 -0.07600
H 	H 	0.33800 0.26980 0.39690 0.06400
C 	C 	0.31193 0.30253 0.38925 0.05000
H 	H 	0.32730 0.32380 0.39890 0.00300
C 	C 	0.28247 0.30306 0.37595 -0.20800
H 	H 	0.27820 0.32470 0.37670 0.09700
C 	C 	0.25961 0.27141 0.36162 0.24000
C 	C 	0.26586 0.23907 0.36046 -0.15600
H 	H 	0.25040 0.21780 0.35090 0.04900
C 	C 	0.20652 0.24441 0.33517 0.29000
H 	H 	0.18970 0.21960 0.34320 -0.08200
H 	H 	0.22180 0.23960 0.32390 -0.08700
C 	C 	0.18089 0.26008 0.32404 -0.46100
C 	C 	0.15136 0.26144 0.33644 0.54400
C 	C 	0.13264 0.27995 0.32696 -0.46400
C 	C 	0.13883 0.29262 0.30508 0.57200
C 	C 	0.16719 0.28913 0.29271 -0.46200
C 	C 	0.19066 0.27411 0.30265 0.52400
C 	C 	0.22443 0.27490 0.28981 -1.03100
H 	H 	0.24630 0.28120 0.29990 0.33200
H 	H 	0.23310 0.29480 0.27820 0.33500
H 	H 	0.21560 0.24920 0.28310 0.30900
C 	C 	0.13972 0.24372 0.35977 -1.07000
H 	H 	0.13610 0.21730 0.35980 0.33800
H 	H 	0.11520 0.24250 0.36410 0.35300
H 	H 	0.16040 0.26020 0.37020 0.34200
C 	C 	0.11628 0.31064 0.29485 -1.11200
H 	H 	0.09210 0.30240 0.30320 0.37100
H 	H 	0.10980 0.30190 0.27950 0.35500
H 	H 	0.13240 0.33930 0.29520 0.36100
C 	C 	0.10413 0.28742 0.34062 0.25100
H 	H 	0.11070 0.28900 0.35650 -0.04200
H 	H 	0.10610 0.31250 0.33610 -0.04300
C 	C 	0.03409 0.25821 0.34729 0.24000
C 	C 	0.04141 0.29042 0.36084 -0.24200
H 	H 	0.06760 0.31050 0.36370 0.11700
C 	C 	0.01041 0.29259 0.36998 0.08900
H 	H 	0.01530 0.31500 0.37830 -0.02100
C 	C 	0.97156 0.26186 0.36702 -0.10700
H 	H 	0.95040 0.26260 0.37400 0.05700
C 	C 	0.96467 0.22914 0.35320 -0.02700
C 	C 	0.99633 0.22801 0.34367 -0.17500
H 	H 	0.99190 0.20640 0.33470 0.09400
C 	C 	0.92276 0.19637 0.34936 0.38500
C 	C 	0.17588 0.30365 0.26888 0.33100
H 	H 	0.18710 0.28970 0.26090 -0.09300
H 	H 	0.15120 0.29790 0.26140 -0.09000
C 	C 	0.20989 0.36408 0.24864 0.25200
C 	C 	0.23653 0.40594 0.24938 -0.23000
H 	H 	0.24830 0.41820 0.26300 0.10400
C 	C 	0.24487 0.42808 0.23056 0.08100
H 	H 	0.26180 0.45560 0.23130 -0.01600
C 	C 	0.22821 0.40989 0.20989 -0.11100
H 	H 	0.23540 0.42500 0.19680 0.06700
C 	C 	0.20092 0.36913 0.20910 -0.01300
C 	C 	0.19331 0.34743 0.22854 -0.19500
H 	H 	0.17590 0.32000 0.22790 0.08900
C 	C 	0.18272 0.34906 0.18770 0.35600
O 	O 	0.33612 0.21079 0.38050 -0.42800
O 	O 	0.28968 0.18153 0.35628 -0.53900
O 	O 	0.23258 0.27494 0.35044 -0.31900
O 	O 	0.20271 0.34471 0.26823 -0.32800
O 	O 	0.15864 0.31225 0.18867 -0.46800
O 	O 	0.19214 0.36932 0.17029 -0.45400
O 	O 	0.06383 0.25464 0.33674 -0.30100
O 	O 	0.91613 0.16487 0.34106 -0.48400
O 	O 	0.89596 0.20321 0.35672 -0.49600
Co	Co	0.83542 0.17751 0.36099 1.09600
Co	Co	0.86009 0.11490 0.32860 1.05400
Co	Co	0.16458 0.34209 0.13901 1.09600
Co	Co	0.13991 0.25482 0.17140 1.05400
C 	C 	0.69378 0.90216 0.12984 0.36600
C 	C 	0.70469 0.94315 0.12628 -0.05900
C 	C 	0.68169 0.95192 0.11191 -0.07600
H 	H 	0.66200 0.93180 0.10310 0.06400
C 	C 	0.68807 0.99060 0.11075 0.05000
H 	H 	0.67270 0.99650 0.10110 0.00300
C 	C 	0.71753 0.02059 0.12405 -0.20800
H 	H 	0.72180 0.04650 0.12330 0.09700
C 	C 	0.74039 0.01180 0.13838 0.24000
C 	C 	0.73414 0.97321 0.13954 -0.15600
H 	H 	0.74960 0.96740 0.14910 0.04900
C 	C 	0.79348 0.03789 0.16483 0.29000
H 	H 	0.81030 0.02990 0.15680 -0.08200
H 	H 	0.77820 0.01780 0.17610 -0.08700
C 	C 	0.81911 0.07919 0.17596 -0.46100
C 	C 	0.84864 0.11008 0.16356 0.54400
C 	C 	0.86736 0.14731 0.17304 -0.46400
C 	C 	0.86117 0.15379 0.19492 0.57200
C 	C 	0.83281 0.12194 0.20729 -0.46200
C 	C 	0.80934 0.08345 0.19735 0.52400
C 	C 	0.77557 0.05047 0.21019 -1.03100
H 	H 	0.75370 0.03490 0.20010 0.33200
H 	H 	0.76690 0.06170 0.22180 0.33500
H 	H 	0.78440 0.03360 0.21690 0.30900
C 	C 	0.86028 0.10400 0.14023 -1.06900
H 	H 	0.86390 0.08120 0.14020 0.33800
H 	H 	0.88480 0.12730 0.13590 0.35300
H 	H 	0.83960 0.09980 0.12980 0.34200
C 	C 	0.88372 0.19436 0.20515 -1.11200
H 	H 	0.90790 0.21030 0.19680 0.37100
H 	H 	0.89020 0.19210 0.22050 0.35500
H 	H 	0.86760 0.20690 0.20480 0.36100
C 	C 	0.89587 0.18329 0.15938 0.25100
H 	H 	0.88930 0.17830 0.14350 -0.04200
H 	H 	0.89390 0.20640 0.16390 -0.04300
C 	C 	0.96591 0.22412 0.15271 0.24000
C 	C 	0.95859 0.24901 0.13916 -0.24200
H 	H 	0.93240 0.24290 0.13630 0.11700
C 	C 	0.98959 0.28218 0.13002 0.08900
H 	H 	0.98470 0.29970 0.12170 -0.02200
C 	C 	0.02844 0.29030 0.13298 -0.10800
H 	H 	0.04960 0.31220 0.12600 0.05600
C 	C 	0.03533 0.26447 0.14680 -0.02800
C 	C 	0.00367 0.23168 0.15633 -0.17600
H 	H 	0.00810 0.21450 0.16530 0.09300
C 	C 	0.07724 0.27361 0.15064 0.38400
C 	C 	0.82412 0.12777 0.23112 0.33000
H 	H 	0.81290 0.10260 0.23910 -0.09400
H 	H 	0.84880 0.14670 0.23860 -0.09100
C 	C 	0.79011 0.15419 0.25136 0.25100
C 	C 	0.76347 0.16941 0.25062 -0.23100
H 	H 	0.75170 0.16990 0.23700 0.10300
C 	C 	0.75513 0.18321 0.26944 0.08000
H 	H 	0.73820 0.19380 0.26870 -0.01700
C 	C 	0.77179 0.18168 0.29011 -0.11200
H 	H 	0.76460 0.18960 0.30320 0.06600
C 	C 	0.79908 0.16821 0.29090 -0.01400
C 	C 	0.80669 0.15412 0.27146 -0.19600
H 	H 	0.82410 0.14410 0.27210 0.08800
C 	C 	0.81728 0.16634 0.31230 0.35500
O 	O 	0.66388 0.87467 0.11950 -0.42900
O 	O 	0.71032 0.89185 0.14372 -0.54000
O 	O 	0.76742 0.04236 0.14956 -0.32000
O 	O 	0.79729 0.14200 0.23177 -0.32900
O 	O 	0.84136 0.15361 0.31133 -0.46900
O 	O 	0.80786 0.17718 0.32971 -0.45500
O 	O 	0.93617 0.19081 0.16326 -0.30200
O 	O 	0.08387 0.24874 0.15894 -0.48500
O 	O 	0.10404 0.30725 0.14328 -0.49700
Co	Co	0.34209 0.16458 0.36099 1.09500
Co	Co	0.25482 0.13991 0.32860 1.05300
C 	C 	0.90216 0.69378 0.37016 0.36500
C 	C 	0.94315 0.70469 0.37372 -0.06000
C 	C 	0.95192 0.68169 0.38809 -0.07700
H 	H 	0.93180 0.66200 0.39690 0.06300
C 	C 	0.99060 0.68807 0.38925 0.04900
H 	H 	0.99650 0.67270 0.39890 0.00200
C 	C 	0.02059 0.71753 0.37595 -0.20900
H 	H 	0.04650 0.72180 0.37670 0.09600
C 	C 	0.01180 0.74039 0.36162 0.23900
C 	C 	0.97321 0.73414 0.36046 -0.15700
H 	H 	0.96740 0.74960 0.35090 0.04800
C 	C 	0.03789 0.79348 0.33517 0.28900
H 	H 	0.02990 0.81030 0.34320 -0.08300
H 	H 	0.01780 0.77820 0.32390 -0.08800
C 	C 	0.07919 0.81911 0.32404 -0.46200
C 	C 	0.11008 0.84864 0.33644 0.54300
C 	C 	0.14731 0.86736 0.32696 -0.46500
C 	C 	0.15379 0.86117 0.30508 0.57100
C 	C 	0.12194 0.83281 0.29271 -0.46300
C 	C 	0.08345 0.80934 0.30265 0.52300
C 	C 	0.05047 0.77557 0.28981 -1.03200
H 	H 	0.03490 0.75370 0.29990 0.33100
H 	H 	0.06170 0.76690 0.27820 0.33400
H 	H 	0.03360 0.78440 0.28310 0.30800
C 	C 	0.10400 0.86028 0.35977 -1.07000
H 	H 	0.08120 0.86390 0.35980 0.33700
H 	H 	0.12730 0.88480 0.36410 0.35200
H 	H 	0.09980 0.83960 0.37020 0.34100
C 	C 	0.19436 0.88372 0.29485 -1.11300
H 	H 	0.21030 0.90790 0.30320 0.37000
H 	H 	0.19210 0.89020 0.27950 0.35400
H 	H 	0.20690 0.86760 0.29520 0.36000
C 	C 	0.18329 0.89587 0.34062 0.25000
H 	H 	0.17830 0.88930 0.35650 -0.04300
H 	H 	0.20640 0.89390 0.33610 -0.04400
C 	C 	0.22412 0.96591 0.34729 0.23900
C 	C 	0.24901 0.95859 0.36084 -0.24300
H 	H 	0.24290 0.93240 0.36370 0.11600
C 	C 	0.28218 0.98959 0.36998 0.08800
H 	H 	0.29970 0.98470 0.37830 -0.02200
C 	C 	0.29030 0.02844 0.36702 -0.10800
H 	H 	0.31220 0.04960 0.37400 0.05600
C 	C 	0.26447 0.03533 0.35320 -0.02800
C 	C 	0.23168 0.00367 0.34367 -0.17600
H 	H 	0.21450 0.00810 0.33470 0.09300
C 	C 	0.27361 0.07724 0.34936 0.38400
C 	C 	0.12777 0.82412 0.26888 0.33000
H 	H 	0.10260 0.81290 0.26090 -0.09400
H 	H 	0.14670 0.84880 0.26140 -0.09100
C 	C 	0.15419 0.79011 0.24864 0.25100
C 	C 	0.16941 0.76347 0.24938 -0.23100
H 	H 	0.16990 0.75170 0.26300 0.10300
C 	C 	0.18321 0.75513 0.23056 0.08000
H 	H 	0.19380 0.73820 0.23130 -0.01700
C 	C 	0.18168 0.77179 0.20989 -0.11200
H 	H 	0.18960 0.76460 0.19680 0.06600
C 	C 	0.16821 0.79908 0.20910 -0.01400
C 	C 	0.15412 0.80669 0.22854 -0.19600
H 	H 	0.14410 0.82410 0.22790 0.08800
C 	C 	0.16634 0.81728 0.18770 0.35500
O 	O 	0.87467 0.66388 0.38050 -0.42900
O 	O 	0.89185 0.71032 0.35628 -0.54000
O 	O 	0.04236 0.76742 0.35044 -0.32000
O 	O 	0.14200 0.79729 0.26823 -0.32900
O 	O 	0.15361 0.84136 0.18867 -0.46900
O 	O 	0.17718 0.80786 0.17029 -0.45500
O 	O 	0.19081 0.93617 0.33674 -0.30200
O 	O 	0.24874 0.08387 0.34106 -0.48500
O 	O 	0.30725 0.10404 0.35672 -0.49700
C 	C 	0.20838 0.30622 0.12984 0.36500
C 	C 	0.23846 0.29531 0.12628 -0.06000
C 	C 	0.27023 0.31831 0.11191 -0.07700
H 	H 	0.26980 0.33800 0.10310 0.06300
C 	C 	0.30253 0.31193 0.11075 0.04900
H 	H 	0.32380 0.32730 0.10110 0.00200
C 	C 	0.30306 0.28247 0.12405 -0.20900
H 	H 	0.32470 0.27820 0.12330 0.09600
C 	C 	0.27141 0.25961 0.13838 0.23900
C 	C 	0.23907 0.26586 0.13954 -0.15700
H 	H 	0.21780 0.25040 0.14910 0.04800
C 	C 	0.24441 0.20652 0.16483 0.28900
H 	H 	0.21960 0.18970 0.15680 -0.08300
H 	H 	0.23960 0.22180 0.17610 -0.08800
C 	C 	0.26008 0.18089 0.17596 -0.46200
C 	C 	0.26144 0.15136 0.16356 0.54300
C 	C 	0.27995 0.13264 0.17304 -0.46500
C 	C 	0.29262 0.13883 0.19492 0.57100
C 	C 	0.28913 0.16719 0.20729 -0.46300
C 	C 	0.27411 0.19066 0.19735 0.52300
C 	C 	0.27490 0.22443 0.21019 -1.03200
H 	H 	0.28120 0.24630 0.20010 0.33100
H 	H 	0.29480 0.23310 0.22180 0.33400
H 	H 	0.24920 0.21560 0.21690 0.30800
C 	C 	0.24372 0.13972 0.14023 -1.07100
H 	H 	0.21730 0.13610 0.14020 0.33700
H 	H 	0.24250 0.11520 0.13590 0.35200
H 	H 	0.26020 0.16040 0.12980 0.34100
C 	C 	0.31064 0.11628 0.20515 -1.11300
H 	H 	0.30240 0.09210 0.19680 0.37000
H 	H 	0.30190 0.10980 0.22050 0.35400
H 	H 	0.33930 0.13240 0.20480 0.36000
C 	C 	0.28742 0.10413 0.15938 0.25000
H 	H 	0.28900 0.11070 0.14350 -0.04300
H 	H 	0.31250 0.10610 0.16390 -0.04400
C 	C 	0.25821 0.03409 0.15271 0.23900
C 	C 	0.29042 0.04141 0.13916 -0.24300
H 	H 	0.31050 0.06760 0.13630 0.11600
C 	C 	0.29259 0.01041 0.13002 0.08800
H 	H 	0.31500 0.01530 0.12170 -0.02200
C 	C 	0.26186 0.97156 0.13298 -0.10800
H 	H 	0.26260 0.95040 0.12600 0.05600
C 	C 	0.22914 0.96467 0.14680 -0.02800
C 	C 	0.22801 0.99633 0.15633 -0.17600
H 	H 	0.20640 0.99190 0.16530 0.09300
C 	C 	0.19637 0.92276 0.15064 0.38400
C 	C 	0.30365 0.17588 0.23112 0.33000
H 	H 	0.28970 0.18710 0.23910 -0.09400
H 	H 	0.29790 0.15120 0.23860 -0.09100
C 	C 	0.36408 0.20989 0.25136 0.25100
C 	C 	0.40594 0.23653 0.25062 -0.23100
H 	H 	0.41820 0.24830 0.23700 0.10300
C 	C 	0.42808 0.24487 0.26944 0.08000
H 	H 	0.45560 0.26180 0.26870 -0.01700
C 	C 	0.40989 0.22821 0.29011 -0.11200
H 	H 	0.42500 0.23540 0.30320 0.06600
C 	C 	0.36913 0.20092 0.29090 -0.01400
C 	C 	0.34743 0.19331 0.27146 -0.19600
H 	H 	0.32000 0.17590 0.27210 0.08800
C 	C 	0.34906 0.18272 0.31230 0.35500
O 	O 	0.21079 0.33612 0.11950 -0.42900
O 	O 	0.18153 0.28968 0.14372 -0.54000
O 	O 	0.27494 0.23258 0.14956 -0.32000
O 	O 	0.34471 0.20271 0.23177 -0.32900
O 	O 	0.31225 0.15864 0.31133 -0.46900
O 	O 	0.36932 0.19214 0.32971 -0.45500
O 	O 	0.25464 0.06383 0.16326 -0.30200
O 	O 	0.16487 0.91613 0.15894 -0.48500
O 	O 	0.20321 0.89596 0.14328 -0.49700
Co	Co	0.17751 0.83542 0.13901 1.09500
Co	Co	0.11490 0.86009 0.17140 1.05300
C 	C 	0.97289 0.54171 0.70349 0.36500
C 	C 	0.96198 0.57179 0.70705 -0.06000
C 	C 	0.98498 0.60356 0.72142 -0.07700
H 	H 	0.00467 0.60313 0.73023 0.06300
C 	C 	0.97860 0.63586 0.72258 0.04900
H 	H 	0.99397 0.65713 0.73223 0.00200
C 	C 	0.94914 0.63639 0.70928 -0.20900
H 	H 	0.94487 0.65803 0.71003 0.09600
C 	C 	0.92628 0.60474 0.69495 0.23900
C 	C 	0.93253 0.57240 0.69379 -0.15700
H 	H 	0.91707 0.55113 0.68423 0.04800
C 	C 	0.87319 0.57774 0.66850 0.28900
H 	H 	0.85637 0.55293 0.67653 -0.08300
H 	H 	0.88847 0.57293 0.65723 -0.08800
C 	C 	0.84756 0.59341 0.65737 -0.46200
C 	C 	0.81803 0.59477 0.66977 0.54300
C 	C 	0.79931 0.61328 0.66029 -0.46500
C 	C 	0.80550 0.62595 0.63841 0.57100
C 	C 	0.83386 0.62246 0.62604 -0.46300
C 	C 	0.85733 0.60744 0.63598 0.52300
C 	C 	0.89110 0.60823 0.62314 -1.03200
H 	H 	0.91297 0.61453 0.63323 0.33100
H 	H 	0.89977 0.62813 0.61153 0.33400
H 	H 	0.88227 0.58253 0.61643 0.30800
C 	C 	0.80639 0.57705 0.69310 -1.07100
H 	H 	0.80277 0.55063 0.69313 0.33700
H 	H 	0.78187 0.57583 0.69743 0.35200
H 	H 	0.82707 0.59353 0.70353 0.34100
C 	C 	0.78295 0.64397 0.62818 -1.11300
H 	H 	0.75877 0.63573 0.63653 0.37000
H 	H 	0.77647 0.63523 0.61283 0.35400
H 	H 	0.79907 0.67263 0.62853 0.36000
C 	C 	0.77080 0.62075 0.67395 0.25000
H 	H 	0.77737 0.62233 0.68983 -0.04300
H 	H 	0.77277 0.64583 0.66943 -0.04400
C 	C 	0.70076 0.59154 0.68062 0.23900
C 	C 	0.70808 0.62375 0.69417 -0.24300
H 	H 	0.73427 0.64383 0.69703 0.11600
C 	C 	0.67708 0.62592 0.70331 0.08800
H 	H 	0.68197 0.64833 0.71163 -0.02200
C 	C 	0.63823 0.59519 0.70035 -0.10800
H 	H 	0.61707 0.59593 0.70733 0.05600
C 	C 	0.63134 0.56247 0.68653 -0.02800
C 	C 	0.66300 0.56134 0.67700 -0.17600
H 	H 	0.65857 0.53973 0.66803 0.09300
C 	C 	0.58943 0.52970 0.68269 0.38400
C 	C 	0.84255 0.63698 0.60221 0.33000
H 	H 	0.85377 0.62303 0.59423 -0.09400
H 	H 	0.81787 0.63123 0.59473 -0.09100
C 	C 	0.87656 0.69741 0.58197 0.25100
C 	C 	0.90320 0.73927 0.58271 -0.23100
H 	H 	0.91497 0.75153 0.59633 0.10300
C 	C 	0.91154 0.76141 0.56389 0.08000
H 	H 	0.92847 0.78893 0.56463 -0.01700
C 	C 	0.89488 0.74322 0.54322 -0.11200
H 	H 	0.90207 0.75833 0.53013 0.06600
C 	C 	0.86759 0.70246 0.54243 -0.01400
C 	C 	0.85998 0.68076 0.56187 -0.19600
H 	H 	0.84257 0.65333 0.56123 0.08800
C 	C 	0.84939 0.68239 0.52103 0.35500
O 	O 	0.00279 0.54412 0.71383 -0.42900
O 	O 	0.95635 0.51486 0.68961 -0.54000
O 	O 	0.89925 0.60827 0.68377 -0.32000
O 	O 	0.86938 0.67804 0.60156 -0.32900
O 	O 	0.82531 0.64558 0.52200 -0.46900
O 	O 	0.85881 0.70265 0.50362 -0.45500
O 	O 	0.73050 0.58797 0.67007 -0.30200
O 	O 	0.58280 0.49820 0.67439 -0.48500
O 	O 	0.56263 0.53654 0.69005 -0.49700
Co	Co	0.50208 0.51084 0.69432 1.09500
Co	Co	0.52676 0.44824 0.66193 1.05300
Co	Co	0.83125 0.67543 0.47235 1.09500
Co	Co	0.80658 0.58815 0.50474 1.05300
C 	C 	0.36045 0.23549 0.46317 0.36500
C 	C 	0.37136 0.27648 0.45961 -0.06000
C 	C 	0.34836 0.28525 0.44524 -0.07700
H 	H 	0.32867 0.26513 0.43643 0.06300
C 	C 	0.35474 0.32393 0.44408 0.04900
H 	H 	0.33937 0.32983 0.43443 0.00200
C 	C 	0.38420 0.35392 0.45738 -0.20900
H 	H 	0.38847 0.37983 0.45663 0.09600
C 	C 	0.40706 0.34513 0.47171 0.23900
C 	C 	0.40081 0.30654 0.47287 -0.15700
H 	H 	0.41627 0.30073 0.48243 0.04800
C 	C 	0.46015 0.37122 0.49816 0.28900
H 	H 	0.47697 0.36323 0.49013 -0.08300
H 	H 	0.44487 0.35113 0.50943 -0.08800
C 	C 	0.48578 0.41252 0.50929 -0.46200
C 	C 	0.51531 0.44341 0.49689 0.54300
C 	C 	0.53403 0.48064 0.50637 -0.46500
C 	C 	0.52784 0.48712 0.52825 0.57100
C 	C 	0.49948 0.45527 0.54062 -0.46300
C 	C 	0.47601 0.41678 0.53068 0.52300
C 	C 	0.44224 0.38380 0.54352 -1.03200
H 	H 	0.42037 0.36823 0.53343 0.33100
H 	H 	0.43357 0.39503 0.55513 0.33400
H 	H 	0.45107 0.36693 0.55023 0.30800
C 	C 	0.52695 0.43733 0.47356 -1.07100
H 	H 	0.53057 0.41453 0.47353 0.33700
H 	H 	0.55147 0.46063 0.46923 0.35200
H 	H 	0.50627 0.43313 0.46313 0.34100
C 	C 	0.55039 0.52769 0.53848 -1.11300
H 	H 	0.57457 0.54363 0.53013 0.37000
H 	H 	0.55687 0.52543 0.55383 0.35400
H 	H 	0.53427 0.54023 0.53813 0.36000
C 	C 	0.56254 0.51662 0.49271 0.25000
H 	H 	0.55597 0.51163 0.47683 -0.04300
H 	H 	0.56057 0.53973 0.49723 -0.04400
C 	C 	0.63258 0.55745 0.48604 0.23900
C 	C 	0.62526 0.58234 0.47249 -0.24300
H 	H 	0.59907 0.57623 0.46963 0.11600
C 	C 	0.65626 0.61551 0.46335 0.08800
H 	H 	0.65137 0.63303 0.45503 -0.02200
C 	C 	0.69511 0.62363 0.46631 -0.10800
H 	H 	0.71627 0.64553 0.45933 0.05600
C 	C 	0.70200 0.59780 0.48013 -0.02800
C 	C 	0.67034 0.56501 0.48966 -0.17600
H 	H 	0.67477 0.54783 0.49863 0.09300
C 	C 	0.74391 0.60694 0.48397 0.38400
C 	C 	0.49079 0.46110 0.56445 0.33000
H 	H 	0.47957 0.43593 0.57243 -0.09400
H 	H 	0.51547 0.48003 0.57193 -0.09100
C 	C 	0.45678 0.48752 0.58469 0.25100
C 	C 	0.43014 0.50274 0.58395 -0.23100
H 	H 	0.41837 0.50323 0.57033 0.10300
C 	C 	0.42180 0.51654 0.60277 0.08000
H 	H 	0.40487 0.52713 0.60203 -0.01700
C 	C 	0.43846 0.51501 0.62344 -0.11200
H 	H 	0.43127 0.52293 0.63653 0.06600
C 	C 	0.46575 0.50154 0.62423 -0.01400
C 	C 	0.47336 0.48745 0.60479 -0.19600
H 	H 	0.49077 0.47743 0.60543 0.08800
C 	C 	0.48395 0.49967 0.64563 0.35500
O 	O 	0.33055 0.20800 0.45283 -0.42900
O 	O 	0.37699 0.22518 0.47705 -0.54000
O 	O 	0.43409 0.37569 0.48289 -0.32000
O 	O 	0.46396 0.47533 0.56510 -0.32900
O 	O 	0.50803 0.48694 0.64466 -0.46900
O 	O 	0.47453 0.51051 0.66304 -0.45500
O 	O 	0.60284 0.52414 0.49659 -0.30200
O 	O 	0.75054 0.58207 0.49227 -0.48500
O 	O 	0.77071 0.64058 0.47661 -0.49700
Co	Co	0.00876 0.49792 0.69432 1.09500
Co	Co	0.92148 0.47324 0.66193 1.05300
C 	C 	0.56883 0.02711 0.70349 0.36500
C 	C 	0.60982 0.03802 0.70705 -0.06000
C 	C 	0.61859 0.01502 0.72142 -0.07700
H 	H 	0.59847 0.99533 0.73023 0.06300
C 	C 	0.65727 0.02140 0.72258 0.04900
H 	H 	0.66317 0.00603 0.73223 0.00200
C 	C 	0.68726 0.05086 0.70928 -0.20900
H 	H 	0.71317 0.05513 0.71003 0.09600
C 	C 	0.67847 0.07372 0.69495 0.23900
C 	C 	0.63988 0.06747 0.69379 -0.15700
H 	H 	0.63407 0.08293 0.68423 0.04800
C 	C 	0.70456 0.12681 0.66850 0.28900
H 	H 	0.69657 0.14363 0.67653 -0.08300
H 	H 	0.68447 0.11153 0.65723 -0.08800
C 	C 	0.74586 0.15244 0.65737 -0.46200
C 	C 	0.77675 0.18197 0.66977 0.54300
C 	C 	0.81398 0.20069 0.66029 -0.46500
C 	C 	0.82046 0.19450 0.63841 0.57100
C 	C 	0.78861 0.16614 0.62604 -0.46300
C 	C 	0.75012 0.14267 0.63598 0.52300
C 	C 	0.71714 0.10890 0.62314 -1.03200
H 	H 	0.70157 0.08703 0.63323 0.33100
H 	H 	0.72837 0.10023 0.61153 0.33400
H 	H 	0.70027 0.11773 0.61643 0.30800
C 	C 	0.77067 0.19361 0.69310 -1.07100
H 	H 	0.74787 0.19723 0.69313 0.33700
H 	H 	0.79397 0.21813 0.69743 0.35200
H 	H 	0.76647 0.17293 0.70353 0.34100
C 	C 	0.86103 0.21705 0.62818 -1.11300
H 	H 	0.87697 0.24123 0.63653 0.37000
H 	H 	0.85877 0.22353 0.61283 0.35400
H 	H 	0.87357 0.20093 0.62853 0.36000
C 	C 	0.84996 0.22920 0.67395 0.25000
H 	H 	0.84497 0.22263 0.68983 -0.04300
H 	H 	0.87307 0.22723 0.66943 -0.04400
C 	C 	0.89079 0.29924 0.68062 0.23900
C 	C 	0.91568 0.29192 0.69417 -0.24300
H 	H 	0.90957 0.26573 0.69703 0.11600
C 	C 	0.94885 0.32292 0.70331 0.08800
H 	H 	0.96637 0.31803 0.71163 -0.02200
C 	C 	0.95697 0.36177 0.70035 -0.10800
H 	H 	0.97887 0.38293 0.70733 0.05600
C 	C 	0.93114 0.36866 0.68653 -0.02800
C 	C 	0.89835 0.33700 0.67700 -0.17600
H 	H 	0.88117 0.34143 0.66803 0.09300
C 	C 	0.94028 0.41057 0.68269 0.38400
C 	C 	0.79444 0.15745 0.60221 0.33000
H 	H 	0.76927 0.14623 0.59423 -0.09400
H 	H 	0.81337 0.18213 0.59473 -0.09100
C 	C 	0.82086 0.12344 0.58197 0.25100
C 	C 	0.83608 0.09680 0.58271 -0.23100
H 	H 	0.83657 0.08503 0.59633 0.10300
C 	C 	0.84988 0.08846 0.56389 0.08000
H 	H 	0.86047 0.07153 0.56463 -0.01700
C 	C 	0.84835 0.10512 0.54322 -0.11200
H 	H 	0.85627 0.09793 0.53013 0.06600
C 	C 	0.83488 0.13241 0.54243 -0.01400
C 	C 	0.82079 0.14002 0.56187 -0.19600
H 	H 	0.81077 0.15743 0.56123 0.08800
C 	C 	0.83301 0.15061 0.52103 0.35500
O 	O 	0.54134 0.99721 0.71383 -0.42900
O 	O 	0.55852 0.04365 0.68961 -0.54000
O 	O 	0.70903 0.10075 0.68377 -0.32000
O 	O 	0.80867 0.13062 0.60156 -0.32900
O 	O 	0.82028 0.17469 0.52200 -0.46900
O 	O 	0.84385 0.14119 0.50362 -0.45500
O 	O 	0.85748 0.26950 0.67007 -0.30200
O 	O 	0.91541 0.41720 0.67439 -0.48500
O 	O 	0.97392 0.43737 0.69005 -0.49700
C 	C 	0.87505 0.63955 0.46317 0.36400
C 	C 	0.90513 0.62864 0.45961 -0.06000
C 	C 	0.93690 0.65164 0.44524 -0.07700
H 	H 	0.93647 0.67133 0.43643 0.06300
C 	C 	0.96920 0.64526 0.44408 0.04900
H 	H 	0.99047 0.66063 0.43443 0.00200
C 	C 	0.96973 0.61580 0.45738 -0.20900
H 	H 	0.99137 0.61153 0.45663 0.09600
C 	C 	0.93808 0.59294 0.47171 0.23900
C 	C 	0.90574 0.59919 0.47287 -0.15700
H 	H 	0.88447 0.58373 0.48243 0.04800
C 	C 	0.91108 0.53985 0.49816 0.28900
H 	H 	0.88627 0.52303 0.49013 -0.08300
H 	H 	0.90627 0.55513 0.50943 -0.08800
C 	C 	0.92675 0.51422 0.50929 -0.46200
C 	C 	0.92811 0.48469 0.49689 0.54300
C 	C 	0.94662 0.46597 0.50637 -0.46500
C 	C 	0.95929 0.47216 0.52825 0.57100
C 	C 	0.95580 0.50052 0.54062 -0.46300
C 	C 	0.94078 0.52399 0.53068 0.52300
C 	C 	0.94157 0.55776 0.54352 -1.03200
H 	H 	0.94787 0.57963 0.53343 0.33100
H 	H 	0.96147 0.56643 0.55513 0.33400
H 	H 	0.91587 0.54893 0.55023 0.30800
C 	C 	0.91039 0.47305 0.47356 -1.07100
H 	H 	0.88397 0.46943 0.47353 0.33700
H 	H 	0.90917 0.44853 0.46923 0.35200
H 	H 	0.92687 0.49373 0.46313 0.34100
C 	C 	0.97731 0.44961 0.53848 -1.11300
H 	H 	0.96907 0.42543 0.53013 0.37000
H 	H 	0.96857 0.44313 0.55383 0.35400
H 	H 	0.00597 0.46573 0.53813 0.36000
C 	C 	0.95409 0.43746 0.49271 0.25000
H 	H 	0.95567 0.44403 0.47683 -0.04300
H 	H 	0.97917 0.43943 0.49723 -0.04400
C 	C 	0.92488 0.36742 0.48604 0.23900
C 	C 	0.95709 0.37474 0.47249 -0.24300
H 	H 	0.97717 0.40093 0.46963 0.11600
C 	C 	0.95926 0.34374 0.46335 0.08800
H 	H 	0.98167 0.34863 0.45503 -0.02200
C 	C 	0.92853 0.30489 0.46631 -0.10800
H 	H 	0.92927 0.28373 0.45933 0.05600
C 	C 	0.89581 0.29800 0.48013 -0.02800
C 	C 	0.89468 0.32966 0.48966 -0.17600
H 	H 	0.87307 0.32523 0.49863 0.09300
C 	C 	0.86304 0.25609 0.48397 0.38400
C 	C 	0.97032 0.50921 0.56445 0.33000
H 	H 	0.95637 0.52043 0.57243 -0.09400
H 	H 	0.96457 0.48453 0.57193 -0.09100
C 	C 	0.03075 0.54322 0.58469 0.25100
C 	C 	0.07261 0.56986 0.58395 -0.23100
H 	H 	0.08487 0.58163 0.57033 0.10300
C 	C 	0.09475 0.57820 0.60277 0.08000
H 	H 	0.12227 0.59513 0.60203 -0.01700
C 	C 	0.07656 0.56154 0.62344 -0.11200
H 	H 	0.09167 0.56873 0.63653 0.06600
C 	C 	0.03580 0.53425 0.62423 -0.01400
C 	C 	0.01410 0.52664 0.60479 -0.19600
H 	H 	0.98667 0.50923 0.60543 0.08800
C 	C 	0.01573 0.51605 0.64563 0.35500
O 	O 	0.87746 0.66945 0.45283 -0.42900
O 	O 	0.84820 0.62301 0.47705 -0.54000
O 	O 	0.94161 0.56591 0.48289 -0.32000
O 	O 	0.01138 0.53604 0.56510 -0.32900
O 	O 	0.97892 0.49197 0.64466 -0.46900
O 	O 	0.03599 0.52547 0.66304 -0.45500
O 	O 	0.92131 0.39716 0.49659 -0.30200
O 	O 	0.83154 0.24946 0.49227 -0.48500
O 	O 	0.86988 0.22929 0.47661 -0.49700
Co	Co	0.84418 0.16875 0.47235 1.09500
Co	Co	0.78157 0.19342 0.50474 1.05300
C 	C 	0.63955 0.87505 0.03683 0.36400
C 	C 	0.62864 0.90513 0.04039 -0.06000
C 	C 	0.65164 0.93690 0.05476 -0.07700
H 	H 	0.67133 0.93647 0.06357 0.06300
C 	C 	0.64526 0.96920 0.05592 0.04900
H 	H 	0.66063 0.99047 0.06557 0.00200
C 	C 	0.61580 0.96973 0.04262 -0.20900
H 	H 	0.61153 0.99137 0.04337 0.09600
C 	C 	0.59294 0.93808 0.02829 0.23900
C 	C 	0.59919 0.90574 0.02713 -0.15700
H 	H 	0.58373 0.88447 0.01757 0.04800
C 	C 	0.53985 0.91108 0.00184 0.28900
H 	H 	0.52303 0.88627 0.00987 -0.08300
H 	H 	0.55513 0.90627 0.99057 -0.08800
C 	C 	0.51422 0.92675 0.99071 -0.46200
C 	C 	0.48469 0.92811 0.00311 0.54300
C 	C 	0.46597 0.94662 0.99363 -0.46500
C 	C 	0.47216 0.95929 0.97175 0.57100
C 	C 	0.50052 0.95580 0.95938 -0.46300
C 	C 	0.52399 0.94078 0.96932 0.52300
C 	C 	0.55776 0.94157 0.95648 -1.03200
H 	H 	0.57963 0.94787 0.96657 0.33100
H 	H 	0.56643 0.96147 0.94487 0.33400
H 	H 	0.54893 0.91587 0.94977 0.30800
C 	C 	0.47305 0.91039 0.02644 -1.07100
H 	H 	0.46943 0.88397 0.02647 0.33700
H 	H 	0.44853 0.90917 0.03077 0.35200
H 	H 	0.49373 0.92687 0.03687 0.34100
C 	C 	0.44961 0.97731 0.96152 -1.11300
H 	H 	0.42543 0.96907 0.96987 0.37000
H 	H 	0.44313 0.96857 0.94617 0.35400
H 	H 	0.46573 0.00597 0.96187 0.36000
C 	C 	0.43746 0.95409 0.00729 0.25000
H 	H 	0.44403 0.95567 0.02317 -0.04300
H 	H 	0.43943 0.97917 0.00277 -0.04400
C 	C 	0.36742 0.92488 0.01396 0.23900
C 	C 	0.37474 0.95709 0.02751 -0.24300
H 	H 	0.40093 0.97717 0.03037 0.11600
C 	C 	0.34374 0.95926 0.03665 0.08800
H 	H 	0.34863 0.98167 0.04497 -0.02200
C 	C 	0.30489 0.92853 0.03369 -0.10800
H 	H 	0.28373 0.92927 0.04067 0.05600
C 	C 	0.29800 0.89581 0.01987 -0.02800
C 	C 	0.32966 0.89468 0.01034 -0.17600
H 	H 	0.32523 0.87307 0.00137 0.09300
C 	C 	0.25609 0.86304 0.01603 0.38400
C 	C 	0.50921 0.97032 0.93555 0.33000
H 	H 	0.52043 0.95637 0.92757 -0.09400
H 	H 	0.48453 0.96457 0.92807 -0.09100
C 	C 	0.54322 0.03075 0.91531 0.25100
C 	C 	0.56986 0.07261 0.91605 -0.23100
H 	H 	0.58163 0.08487 0.92967 0.10300
C 	C 	0.57820 0.09475 0.89723 0.08000
H 	H 	0.59513 0.12227 0.89797 -0.01700
C 	C 	0.56154 0.07656 0.87656 -0.11200
H 	H 	0.56873 0.09167 0.86347 0.06600
C 	C 	0.53425 0.03580 0.87577 -0.01400
C 	C 	0.52664 0.01410 0.89521 -0.19600
H 	H 	0.50923 0.98667 0.89457 0.08800
C 	C 	0.51605 0.01573 0.85437 0.35500
O 	O 	0.66945 0.87746 0.04717 -0.42900
O 	O 	0.62301 0.84820 0.02295 -0.54000
O 	O 	0.56591 0.94161 0.01711 -0.32000
O 	O 	0.53604 0.01138 0.93490 -0.32900
O 	O 	0.49197 0.97892 0.85534 -0.46900
O 	O 	0.52547 0.03599 0.83696 -0.45500
O 	O 	0.39716 0.92131 0.00341 -0.30200
O 	O 	0.24946 0.83154 0.00773 -0.48500
O 	O 	0.22929 0.86988 0.02339 -0.49700
Co	Co	0.16875 0.84418 0.02765 1.09500
Co	Co	0.19342 0.78157 0.99526 1.05300
Co	Co	0.49792 0.00876 0.80568 1.09500
Co	Co	0.47324 0.92148 0.83807 1.05300
C 	C 	0.02711 0.56883 0.79651 0.36500
C 	C 	0.03802 0.60982 0.79295 -0.06000
C 	C 	0.01502 0.61859 0.77858 -0.07700
H 	H 	0.99533 0.59847 0.76977 0.06300
C 	C 	0.02140 0.65727 0.77742 0.04900
H 	H 	0.00603 0.66317 0.76777 0.00200
C 	C 	0.05086 0.68726 0.79072 -0.20900
H 	H 	0.05513 0.71317 0.78997 0.09600
C 	C 	0.07372 0.67847 0.80505 0.23900
C 	C 	0.06747 0.63988 0.80621 -0.15700
H 	H 	0.08293 0.63407 0.81577 0.04800
C 	C 	0.12681 0.70456 0.83150 0.28900
H 	H 	0.14363 0.69657 0.82347 -0.08300
H 	H 	0.11153 0.68447 0.84277 -0.08800
C 	C 	0.15244 0.74586 0.84263 -0.46200
C 	C 	0.18197 0.77675 0.83023 0.54300
C 	C 	0.20069 0.81398 0.83971 -0.46500
C 	C 	0.19450 0.82046 0.86159 0.57100
C 	C 	0.16614 0.78861 0.87396 -0.46300
C 	C 	0.14267 0.75012 0.86402 0.52300
C 	C 	0.10890 0.71714 0.87686 -1.03200
H 	H 	0.08703 0.70157 0.86677 0.33100
H 	H 	0.10023 0.72837 0.88847 0.33400
H 	H 	0.11773 0.70027 0.88357 0.30800
C 	C 	0.19361 0.77067 0.80690 -1.07100
H 	H 	0.19723 0.74787 0.80687 0.33700
H 	H 	0.21813 0.79397 0.80257 0.35200
H 	H 	0.17293 0.76647 0.79647 0.34100
C 	C 	0.21705 0.86103 0.87182 -1.11300
H 	H 	0.24123 0.87697 0.86347 0.37000
H 	H 	0.22353 0.85877 0.88717 0.35400
H 	H 	0.20093 0.87357 0.87147 0.36000
C 	C 	0.22920 0.84996 0.82605 0.25000
H 	H 	0.22263 0.84497 0.81017 -0.04300
H 	H 	0.22723 0.87307 0.83057 -0.04400
C 	C 	0.29924 0.89079 0.81938 0.23900
C 	C 	0.29192 0.91568 0.80583 -0.24300
H 	H 	0.26573 0.90957 0.80297 0.11600
C 	C 	0.32292 0.94885 0.79669 0.08800
H 	H 	0.31803 0.96637 0.78837 -0.02200
C 	C 	0.36177 0.95697 0.79965 -0.10800
H 	H 	0.38293 0.97887 0.79267 0.05600
C 	C 	0.36866 0.93114 0.81347 -0.02800
C 	C 	0.33700 0.89835 0.82300 -0.17600
H 	H 	0.34143 0.88117 0.83197 0.09300
C 	C 	0.41057 0.94028 0.81731 0.38400
C 	C 	0.15745 0.79444 0.89779 0.33000
H 	H 	0.14623 0.76927 0.90577 -0.09400
H 	H 	0.18213 0.81337 0.90527 -0.09100
C 	C 	0.12344 0.82086 0.91803 0.25100
C 	C 	0.09680 0.83608 0.91729 -0.23100
H 	H 	0.08503 0.83657 0.90367 0.10300
C 	C 	0.08846 0.84988 0.93611 0.08000
H 	H 	0.07153 0.86047 0.93537 -0.01700
C 	C 	0.10512 0.84835 0.95678 -0.11200
H 	H 	0.09793 0.85627 0.96987 0.06600
C 	C 	0.13241 0.83488 0.95757 -0.01400
C 	C 	0.14002 0.82079 0.93813 -0.19600
H 	H 	0.15743 0.81077 0.93877 0.08800
C 	C 	0.15061 0.83301 0.97897 0.35500
O 	O 	0.99721 0.54134 0.78617 -0.42900
O 	O 	0.04365 0.55852 0.81039 -0.54000
O 	O 	0.10075 0.70903 0.81623 -0.32000
O 	O 	0.13062 0.80867 0.89844 -0.32900
O 	O 	0.17469 0.82028 0.97800 -0.46900
O 	O 	0.14119 0.84385 0.99638 -0.45500
O 	O 	0.26950 0.85748 0.82993 -0.30200
O 	O 	0.41720 0.91541 0.82561 -0.48500
O 	O 	0.43737 0.97392 0.80995 -0.49700
Co	Co	0.67543 0.83125 0.02765 1.09500
Co	Co	0.58815 0.80658 0.99526 1.05300
C 	C 	0.23549 0.36045 0.03683 0.36500
C 	C 	0.27648 0.37136 0.04039 -0.06000
C 	C 	0.28525 0.34836 0.05476 -0.07700
H 	H 	0.26513 0.32867 0.06357 0.06300
C 	C 	0.32393 0.35474 0.05592 0.04900
H 	H 	0.32983 0.33937 0.06557 0.00200
C 	C 	0.35392 0.38420 0.04262 -0.20900
H 	H 	0.37983 0.38847 0.04337 0.09600
C 	C 	0.34513 0.40706 0.02829 0.23900
C 	C 	0.30654 0.40081 0.02713 -0.15700
H 	H 	0.30073 0.41627 0.01757 0.04800
C 	C 	0.37122 0.46015 0.00184 0.28900
H 	H 	0.36323 0.47697 0.00987 -0.08300
H 	H 	0.35113 0.44487 0.99057 -0.08800
C 	C 	0.41252 0.48578 0.99071 -0.46200
C 	C 	0.44341 0.51531 0.00311 0.54300
C 	C 	0.48064 0.53403 0.99363 -0.46500
C 	C 	0.48712 0.52784 0.97175 0.57100
C 	C 	0.45527 0.49948 0.95938 -0.46300
C 	C 	0.41678 0.47601 0.96932 0.52300
C 	C 	0.38380 0.44224 0.95648 -1.03200
H 	H 	0.36823 0.42037 0.96657 0.33100
H 	H 	0.39503 0.43357 0.94487 0.33400
H 	H 	0.36693 0.45107 0.94977 0.30800
C 	C 	0.43733 0.52695 0.02644 -1.07100
H 	H 	0.41453 0.53057 0.02647 0.33700
H 	H 	0.46063 0.55147 0.03077 0.35200
H 	H 	0.43313 0.50627 0.03687 0.34100
C 	C 	0.52769 0.55039 0.96152 -1.11300
H 	H 	0.54363 0.57457 0.96987 0.37000
H 	H 	0.52543 0.55687 0.94617 0.35400
H 	H 	0.54023 0.53427 0.96187 0.36000
C 	C 	0.51662 0.56254 0.00729 0.25000
H 	H 	0.51163 0.55597 0.02317 -0.04300
H 	H 	0.53973 0.56057 0.00277 -0.04400
C 	C 	0.55745 0.63258 0.01396 0.23900
C 	C 	0.58234 0.62526 0.02751 -0.24300
H 	H 	0.57623 0.59907 0.03037 0.11600
C 	C 	0.61551 0.65626 0.03665 0.08800
H 	H 	0.63303 0.65137 0.04497 -0.02200
C 	C 	0.62363 0.69511 0.03369 -0.10800
H 	H 	0.64553 0.71627 0.04067 0.05600
C 	C 	0.59780 0.70200 0.01987 -0.02800
C 	C 	0.56501 0.67034 0.01034 -0.17600
H 	H 	0.54783 0.67477 0.00137 0.09300
C 	C 	0.60694 0.74391 0.01603 0.38400
C 	C 	0.46110 0.49079 0.93555 0.33000
H 	H 	0.43593 0.47957 0.92757 -0.09400
H 	H 	0.48003 0.51547 0.92807 -0.09100
C 	C 	0.48752 0.45678 0.91531 0.25100
C 	C 	0.50274 0.43014 0.91605 -0.23100
H 	H 	0.50323 0.41837 0.92967 0.10300
C 	C 	0.51654 0.42180 0.89723 0.08000
H 	H 	0.52713 0.40487 0.89797 -0.01700
C 	C 	0.51501 0.43846 0.87656 -0.11200
H 	H 	0.52293 0.43127 0.86347 0.06600
C 	C 	0.50154 0.46575 0.87577 -0.01400
C 	C 	0.48745 0.47336 0.89521 -0.19600
H 	H 	0.47743 0.49077 0.89457 0.08800
C 	C 	0.49967 0.48395 0.85437 0.35500
O 	O 	0.20800 0.33055 0.04717 -0.42900
O 	O 	0.22518 0.37699 0.02295 -0.54000
O 	O 	0.37569 0.43409 0.01711 -0.32000
O 	O 	0.47533 0.46396 0.93490 -0.32900
O 	O 	0.48694 0.50803 0.85534 -0.46900
O 	O 	0.51051 0.47453 0.83696 -0.45500
O 	O 	0.52414 0.60284 0.00341 -0.30200
O 	O 	0.58207 0.75054 0.00773 -0.48500
O 	O 	0.64058 0.77071 0.02339 -0.49700
C 	C 	0.54171 0.97289 0.79651 0.36500
C 	C 	0.57179 0.96198 0.79295 -0.06000
C 	C 	0.60356 0.98498 0.77858 -0.07700
H 	H 	0.60313 0.00467 0.76977 0.06300
C 	C 	0.63586 0.97860 0.77742 0.04900
H 	H 	0.65713 0.99397 0.76777 0.00200
C 	C 	0.63639 0.94914 0.79072 -0.20900
H 	H 	0.65803 0.94487 0.78997 0.09600
C 	C 	0.60474 0.92628 0.80505 0.23900
C 	C 	0.57240 0.93253 0.80621 -0.15700
H 	H 	0.55113 0.91707 0.81577 0.04800
C 	C 	0.57774 0.87319 0.83150 0.28900
H 	H 	0.55293 0.85637 0.82347 -0.08300
H 	H 	0.57293 0.88847 0.84277 -0.08800
C 	C 	0.59341 0.84756 0.84263 -0.46200
C 	C 	0.59477 0.81803 0.83023 0.54300
C 	C 	0.61328 0.79931 0.83971 -0.46500
C 	C 	0.62595 0.80550 0.86159 0.57100
C 	C 	0.62246 0.83386 0.87396 -0.46300
C 	C 	0.60744 0.85733 0.86402 0.52300
C 	C 	0.60823 0.89110 0.87686 -1.03200
H 	H 	0.61453 0.91297 0.86677 0.33100
H 	H 	0.62813 0.89977 0.88847 0.33400
H 	H 	0.58253 0.88227 0.88357 0.30800
C 	C 	0.57705 0.80639 0.80690 -1.07100
H 	H 	0.55063 0.80277 0.80687 0.33700
H 	H 	0.57583 0.78187 0.80257 0.35200
H 	H 	0.59353 0.82707 0.79647 0.34100
C 	C 	0.64397 0.78295 0.87182 -1.11300
H 	H 	0.63573 0.75877 0.86347 0.37000
H 	H 	0.63523 0.77647 0.88717 0.35400
H 	H 	0.67263 0.79907 0.87147 0.36000
C 	C 	0.62075 0.77080 0.82605 0.25000
H 	H 	0.62233 0.77737 0.81017 -0.04300
H 	H 	0.64583 0.77277 0.83057 -0.04400
C 	C 	0.59154 0.70076 0.81938 0.23900
C 	C 	0.62375 0.70808 0.80583 -0.24300
H 	H 	0.64383 0.73427 0.80297 0.11600
C 	C 	0.62592 0.67708 0.79669 0.08800
H 	H 	0.64833 0.68197 0.78837 -0.02200
C 	C 	0.59519 0.63823 0.79965 -0.10800
H 	H 	0.59593 0.61707 0.79267 0.05600
C 	C 	0.56247 0.63134 0.81347 -0.02800
C 	C 	0.56134 0.66300 0.82300 -0.17600
H 	H 	0.53973 0.65857 0.83197 0.09300
C 	C 	0.52970 0.58943 0.81731 0.38400
C 	C 	0.63698 0.84255 0.89779 0.33000
H 	H 	0.62303 0.85377 0.90577 -0.09400
H 	H 	0.63123 0.81787 0.90527 -0.09100
C 	C 	0.69741 0.87656 0.91803 0.25100
C 	C 	0.73927 0.90320 0.91729 -0.23100
H 	H 	0.75153 0.91497 0.90367 0.10300
C 	C 	0.76141 0.91154 0.93611 0.08000
H 	H 	0.78893 0.92847 0.93537 -0.01700
C 	C 	0.74322 0.89488 0.95678 -0.11200
H 	H 	0.75833 0.90207 0.96987 0.06600
C 	C 	0.70246 0.86759 0.95757 -0.01400
C 	C 	0.68076 0.85998 0.93813 -0.19600
H 	H 	0.65333 0.84257 0.93877 0.08800
C 	C 	0.68239 0.84939 0.97897 0.35500
O 	O 	0.54412 0.00279 0.78617 -0.42900
O 	O 	0.51486 0.95635 0.81039 -0.54000
O 	O 	0.60827 0.89925 0.81623 -0.32000
O 	O 	0.67804 0.86938 0.89844 -0.32900
O 	O 	0.64558 0.82531 0.97800 -0.46900
O 	O 	0.70265 0.85881 0.99638 -0.45500
O 	O 	0.58797 0.73050 0.82993 -0.30200
O 	O 	0.49820 0.58280 0.82561 -0.48500
O 	O 	0.53654 0.56263 0.80995 -0.49700
Co	Co	0.51084 0.50208 0.80568 1.09500
Co	Co	0.44824 0.52676 0.83807 1.05300
C 	C 	0.79162 0.09784 0.37016 0.36500
C 	C 	0.76154 0.05685 0.37372 -0.06000
C 	C 	0.72977 0.04808 0.38809 -0.07700
H 	H 	0.73020 0.06820 0.39690 0.06300
C 	C 	0.69747 0.00940 0.38925 0.04900
H 	H 	0.67620 0.00350 0.39890 0.00200
C 	C 	0.69694 0.97941 0.37595 -0.20900
H 	H 	0.67530 0.95350 0.37670 0.09600
C 	C 	0.72859 0.98820 0.36162 0.23900
C 	C 	0.76093 0.02679 0.36046 -0.15700
H 	H 	0.78220 0.03260 0.35090 0.04800
C 	C 	0.75559 0.96211 0.33517 0.28900
H 	H 	0.78040 0.97010 0.34320 -0.08300
H 	H 	0.76040 0.98220 0.32390 -0.08800
C 	C 	0.73992 0.92081 0.32404 -0.46200
C 	C 	0.73856 0.88992 0.33644 0.54300
C 	C 	0.72005 0.85269 0.32696 -0.46500
C 	C 	0.70738 0.84621 0.30508 0.57100
C 	C 	0.71087 0.87806 0.29271 -0.46300
C 	C 	0.72589 0.91655 0.30265 0.52300
C 	C 	0.72510 0.94953 0.28981 -1.03200
H 	H 	0.71880 0.96510 0.29990 0.33100
H 	H 	0.70520 0.93830 0.27820 0.33400
H 	H 	0.75080 0.96640 0.28310 0.30800
C 	C 	0.75628 0.89600 0.35977 -1.07100
H 	H 	0.78270 0.91880 0.35980 0.33700
H 	H 	0.75750 0.87270 0.36410 0.35200
H 	H 	0.73980 0.90020 0.37020 0.34100
C 	C 	0.68936 0.80564 0.29485 -1.11300
H 	H 	0.69760 0.78970 0.30320 0.37000
H 	H 	0.69810 0.80790 0.27950 0.35400
H 	H 	0.66070 0.79310 0.29520 0.36000
C 	C 	0.71258 0.81671 0.34062 0.25000
H 	H 	0.71100 0.82170 0.35650 -0.04300
H 	H 	0.68750 0.79360 0.33610 -0.04400
C 	C 	0.74179 0.77588 0.34729 0.23900
C 	C 	0.70958 0.75099 0.36084 -0.24300
H 	H 	0.68950 0.75710 0.36370 0.11600
C 	C 	0.70741 0.71782 0.36998 0.08800
H 	H 	0.68500 0.70030 0.37830 -0.02200
C 	C 	0.73814 0.70970 0.36702 -0.10800
H 	H 	0.73740 0.68780 0.37400 0.05600
C 	C 	0.77086 0.73553 0.35320 -0.02800
C 	C 	0.77199 0.76832 0.34367 -0.17600
H 	H 	0.79360 0.78550 0.33470 0.09300
C 	C 	0.80363 0.72639 0.34936 0.38400
C 	C 	0.69635 0.87223 0.26888 0.33000
H 	H 	0.71030 0.89740 0.26090 -0.09400
H 	H 	0.70210 0.85330 0.26140 -0.09100
C 	C 	0.63592 0.84581 0.24864 0.25100
C 	C 	0.59406 0.83059 0.24938 -0.23100
H 	H 	0.58180 0.83010 0.26300 0.10300
C 	C 	0.57192 0.81679 0.23056 0.08000
H 	H 	0.54440 0.80620 0.23130 -0.01700
C 	C 	0.59011 0.81832 0.20989 -0.11200
H 	H 	0.57500 0.81040 0.19680 0.06600
C 	C 	0.63087 0.83179 0.20910 -0.01400
C 	C 	0.65257 0.84588 0.22854 -0.19600
H 	H 	0.68000 0.85590 0.22790 0.08800
C 	C 	0.65094 0.83366 0.18770 0.35500
O 	O 	0.78921 0.12533 0.38050 -0.42900
O 	O 	0.81847 0.10815 0.35628 -0.54000
O 	O 	0.72506 0.95764 0.35044 -0.32000
O 	O 	0.65529 0.85800 0.26823 -0.32900
O 	O 	0.68775 0.84639 0.18867 -0.46900
O 	O 	0.63068 0.82282 0.17029 -0.45500
O 	O 	0.74536 0.80919 0.33674 -0.30200
O 	O 	0.83513 0.75126 0.34106 -0.48500
O 	O 	0.79679 0.69275 0.35672 -0.49700
Co	Co	0.82249 0.65791 0.36099 1.09500
Co	Co	0.88510 0.74518 0.32860 1.05300
C 	C 	0.09784 0.79162 0.12984 0.36500
C 	C 	0.05685 0.76154 0.12628 -0.06000
C 	C 	0.04808 0.72977 0.11191 -0.07700
H 	H 	0.06820 0.73020 0.10310 0.06300
C 	C 	0.00940 0.69747 0.11075 0.04900
H 	H 	0.00350 0.67620 0.10110 0.00200
C 	C 	0.97941 0.69694 0.12405 -0.20900
H 	H 	0.95350 0.67530 0.12330 0.09600
C 	C 	0.98820 0.72859 0.13838 0.23900
C 	C 	0.02679 0.76093 0.13954 -0.15700
H 	H 	0.03260 0.78220 0.14910 0.04800
C 	C 	0.96211 0.75559 0.16483 0.28900
H 	H 	0.97010 0.78040 0.15680 -0.08300
H 	H 	0.98220 0.76040 0.17610 -0.08800
C 	C 	0.92081 0.73992 0.17596 -0.46200
C 	C 	0.88992 0.73856 0.16356 0.54300
C 	C 	0.85269 0.72005 0.17304 -0.46500
C 	C 	0.84621 0.70738 0.19492 0.57100
C 	C 	0.87806 0.71087 0.20729 -0.46300
C 	C 	0.91655 0.72589 0.19735 0.52300
C 	C 	0.94953 0.72510 0.21019 -1.03200
H 	H 	0.96510 0.71880 0.20010 0.33100
H 	H 	0.93830 0.70520 0.22180 0.33400
H 	H 	0.96640 0.75080 0.21690 0.30800
C 	C 	0.89600 0.75628 0.14023 -1.07100
H 	H 	0.91880 0.78270 0.14020 0.33700
H 	H 	0.87270 0.75750 0.13590 0.35200
H 	H 	0.90020 0.73980 0.12980 0.34100
C 	C 	0.80564 0.68936 0.20515 -1.11300
H 	H 	0.78970 0.69760 0.19680 0.37000
H 	H 	0.80790 0.69810 0.22050 0.35400
H 	H 	0.79310 0.66070 0.20480 0.36000
C 	C 	0.81671 0.71258 0.15938 0.25000
H 	H 	0.82170 0.71100 0.14350 -0.04300
H 	H 	0.79360 0.68750 0.16390 -0.04400
C 	C 	0.77588 0.74179 0.15271 0.23900
C 	C 	0.75099 0.70958 0.13916 -0.24300
H 	H 	0.75710 0.68950 0.13630 0.11600
C 	C 	0.71782 0.70741 0.13002 0.08800
H 	H 	0.70030 0.68500 0.12170 -0.02200
C 	C 	0.70970 0.73814 0.13298 -0.10800
H 	H 	0.68780 0.73740 0.12600 0.05600
C 	C 	0.73553 0.77086 0.14680 -0.02800
C 	C 	0.76832 0.77199 0.15633 -0.17600
H 	H 	0.78550 0.79360 0.16530 0.09300
C 	C 	0.72639 0.80363 0.15064 0.38400
C 	C 	0.87223 0.69635 0.23112 0.33000
H 	H 	0.89740 0.71030 0.23910 -0.09400
H 	H 	0.85330 0.70210 0.23860 -0.09100
C 	C 	0.84581 0.63592 0.25136 0.25100
C 	C 	0.83059 0.59406 0.25062 -0.23100
H 	H 	0.83010 0.58180 0.23700 0.10300
C 	C 	0.81679 0.57192 0.26944 0.08000
H 	H 	0.80620 0.54440 0.26870 -0.01700
C 	C 	0.81832 0.59011 0.29011 -0.11200
H 	H 	0.81040 0.57500 0.30320 0.06600
C 	C 	0.83179 0.63087 0.29090 -0.01400
C 	C 	0.84588 0.65257 0.27146 -0.19600
H 	H 	0.85590 0.68000 0.27210 0.08800
C 	C 	0.83366 0.65094 0.31230 0.35500
O 	O 	0.12533 0.78921 0.11950 -0.42900
O 	O 	0.10815 0.81847 0.14372 -0.54000
O 	O 	0.95764 0.72506 0.14956 -0.32000
O 	O 	0.85800 0.65529 0.23177 -0.32900
O 	O 	0.84639 0.68775 0.31133 -0.46900
O 	O 	0.82282 0.63068 0.32971 -0.45500
O 	O 	0.80919 0.74536 0.16326 -0.30200
O 	O 	0.75126 0.83513 0.15894 -0.48500
O 	O 	0.69275 0.79679 0.14328 -0.49700
Co	Co	0.65791 0.82249 0.13901 1.09500
Co	Co	0.74518 0.88510 0.17140 1.05300
C 	C 	0.45829 0.43117 0.70349 0.36500
C 	C 	0.42821 0.39018 0.70705 -0.06000
C 	C 	0.39644 0.38141 0.72142 -0.07700
H 	H 	0.39687 0.40153 0.73023 0.06300
C 	C 	0.36414 0.34273 0.72258 0.04900
H 	H 	0.34287 0.33683 0.73223 0.00200
C 	C 	0.36361 0.31274 0.70928 -0.20900
H 	H 	0.34197 0.28683 0.71003 0.09600
C 	C 	0.39526 0.32153 0.69495 0.23900
C 	C 	0.42760 0.36012 0.69379 -0.15700
H 	H 	0.44887 0.36593 0.68423 0.04800
C 	C 	0.42226 0.29544 0.66850 0.28900
H 	H 	0.44707 0.30343 0.67653 -0.08300
H 	H 	0.42707 0.31553 0.65723 -0.08800
C 	C 	0.40659 0.25414 0.65737 -0.46200
C 	C 	0.40523 0.22325 0.66977 0.54300
C 	C 	0.38672 0.18602 0.66029 -0.46500
C 	C 	0.37405 0.17954 0.63841 0.57100
C 	C 	0.37754 0.21139 0.62604 -0.46300
C 	C 	0.39256 0.24988 0.63598 0.52300
C 	C 	0.39177 0.28286 0.62314 -1.03200
H 	H 	0.38547 0.29843 0.63323 0.33100
H 	H 	0.37187 0.27163 0.61153 0.33400
H 	H 	0.41747 0.29973 0.61643 0.30800
C 	C 	0.42295 0.22933 0.69310 -1.07100
H 	H 	0.44937 0.25213 0.69313 0.33700
H 	H 	0.42417 0.20603 0.69743 0.35200
H 	H 	0.40647 0.23353 0.70353 0.34100
C 	C 	0.35603 0.13897 0.62818 -1.11300
H 	H 	0.36427 0.12303 0.63653 0.37000
H 	H 	0.36477 0.14123 0.61283 0.35400
H 	H 	0.32737 0.12643 0.62853 0.36000
C 	C 	0.37925 0.15004 0.67395 0.25000
H 	H 	0.37767 0.15503 0.68983 -0.04300
H 	H 	0.35417 0.12693 0.66943 -0.04400
C 	C 	0.40846 0.10921 0.68062 0.23900
C 	C 	0.37625 0.08432 0.69417 -0.24300
H 	H 	0.35617 0.09043 0.69703 0.11600
C 	C 	0.37408 0.05115 0.70331 0.08800
H 	H 	0.35167 0.03363 0.71163 -0.02200
C 	C 	0.40481 0.04303 0.70035 -0.10800
H 	H 	0.40407 0.02113 0.70733 0.05600
C 	C 	0.43753 0.06886 0.68653 -0.02800
C 	C 	0.43866 0.10165 0.67700 -0.17600
H 	H 	0.46027 0.11883 0.66803 0.09300
C 	C 	0.47030 0.05972 0.68269 0.38400
C 	C 	0.36302 0.20556 0.60221 0.33000
H 	H 	0.37697 0.23073 0.59423 -0.09400
H 	H 	0.36877 0.18663 0.59473 -0.09100
C 	C 	0.30259 0.17914 0.58197 0.25100
C 	C 	0.26073 0.16392 0.58271 -0.23100
H 	H 	0.24847 0.16343 0.59633 0.10300
C 	C 	0.23859 0.15012 0.56389 0.08000
H 	H 	0.21107 0.13953 0.56463 -0.01700
C 	C 	0.25678 0.15165 0.54322 -0.11200
H 	H 	0.24167 0.14373 0.53013 0.06600
C 	C 	0.29754 0.16512 0.54243 -0.01400
C 	C 	0.31924 0.17921 0.56187 -0.19600
H 	H 	0.34667 0.18923 0.56123 0.08800
C 	C 	0.31761 0.16699 0.52103 0.35500
O 	O 	0.45588 0.45866 0.71383 -0.42900
O 	O 	0.48514 0.44148 0.68961 -0.54000
O 	O 	0.39173 0.29097 0.68377 -0.32000
O 	O 	0.32196 0.19133 0.60156 -0.32900
O 	O 	0.35442 0.17972 0.52200 -0.46900
O 	O 	0.29735 0.15615 0.50362 -0.45500
O 	O 	0.41203 0.14252 0.67007 -0.30200
O 	O 	0.50180 0.08459 0.67439 -0.48500
O 	O 	0.46346 0.02608 0.69005 -0.49700
Co	Co	0.48916 0.99124 0.69432 1.09500
Co	Co	0.55176 0.07852 0.66193 1.05300
C 	C 	0.76451 0.12495 0.46317 0.36400
C 	C 	0.72352 0.09487 0.45961 -0.06000
C 	C 	0.71475 0.06310 0.44524 -0.07700
H 	H 	0.73487 0.06353 0.43643 0.06300
C 	C 	0.67607 0.03080 0.44408 0.04900
H 	H 	0.67017 0.00953 0.43443 0.00200
C 	C 	0.64608 0.03027 0.45738 -0.20900
H 	H 	0.62017 0.00863 0.45663 0.09600
C 	C 	0.65487 0.06192 0.47171 0.23900
C 	C 	0.69346 0.09426 0.47287 -0.15700
H 	H 	0.69927 0.11553 0.48243 0.04800
C 	C 	0.62878 0.08892 0.49816 0.28900
H 	H 	0.63677 0.11373 0.49013 -0.08300
H 	H 	0.64887 0.09373 0.50943 -0.08800
C 	C 	0.58748 0.07325 0.50929 -0.46200
C 	C 	0.55659 0.07189 0.49689 0.54300
C 	C 	0.51936 0.05338 0.50637 -0.46500
C 	C 	0.51288 0.04071 0.52825 0.57100
C 	C 	0.54473 0.04420 0.54062 -0.46300
C 	C 	0.58322 0.05922 0.53068 0.52300
C 	C 	0.61620 0.05843 0.54352 -1.03200
H 	H 	0.63177 0.05213 0.53343 0.33100
H 	H 	0.60497 0.03853 0.55513 0.33400
H 	H 	0.63307 0.08413 0.55023 0.30800
C 	C 	0.56267 0.08961 0.47356 -1.07100
H 	H 	0.58547 0.11603 0.47353 0.33700
H 	H 	0.53937 0.09083 0.46923 0.35200
H 	H 	0.56687 0.07313 0.46313 0.34100
C 	C 	0.47231 0.02269 0.53848 -1.11300
H 	H 	0.45637 0.03093 0.53013 0.37000
H 	H 	0.47457 0.03143 0.55383 0.35400
H 	H 	0.45977 0.99403 0.53813 0.36000
C 	C 	0.48338 0.04591 0.49271 0.25000
H 	H 	0.48837 0.04433 0.47683 -0.04300
H 	H 	0.46027 0.02083 0.49723 -0.04400
C 	C 	0.44255 0.07512 0.48604 0.23900
C 	C 	0.41766 0.04291 0.47249 -0.24300
H 	H 	0.42377 0.02283 0.46963 0.11600
C 	C 	0.38449 0.04074 0.46335 0.08800
H 	H 	0.36697 0.01833 0.45503 -0.02200
C 	C 	0.37637 0.07147 0.46631 -0.10800
H 	H 	0.35447 0.07073 0.45933 0.05600
C 	C 	0.40220 0.10419 0.48013 -0.02800
C 	C 	0.43499 0.10532 0.48966 -0.17600
H 	H 	0.45217 0.12693 0.49863 0.09300
C 	C 	0.39306 0.13696 0.48397 0.38400
C 	C 	0.53890 0.02968 0.56445 0.33000
H 	H 	0.56407 0.04363 0.57243 -0.09400
H 	H 	0.51997 0.03543 0.57193 -0.09100
C 	C 	0.51248 0.96925 0.58469 0.25100
C 	C 	0.49726 0.92739 0.58395 -0.23100
H 	H 	0.49677 0.91513 0.57033 0.10300
C 	C 	0.48346 0.90525 0.60277 0.08000
H 	H 	0.47287 0.87773 0.60203 -0.01700
C 	C 	0.48499 0.92344 0.62344 -0.11200
H 	H 	0.47707 0.90833 0.63653 0.06600
C 	C 	0.49846 0.96420 0.62423 -0.01400
C 	C 	0.51255 0.98590 0.60479 -0.19600
H 	H 	0.52257 0.01333 0.60543 0.08800
C 	C 	0.50033 0.98427 0.64563 0.35500
O 	O 	0.79200 0.12254 0.45283 -0.42900
O 	O 	0.77482 0.15180 0.47705 -0.54000
O 	O 	0.62431 0.05839 0.48289 -0.32000
O 	O 	0.52467 0.98862 0.56510 -0.32900
O 	O 	0.51306 0.02108 0.64466 -0.46900
O 	O 	0.48949 0.96401 0.66304 -0.45500
O 	O 	0.47586 0.07869 0.49659 -0.30200
O 	O 	0.41793 0.16846 0.49227 -0.48500
O 	O 	0.35942 0.13012 0.47661 -0.49700
Co	Co	0.32457 0.15582 0.47235 1.09500
Co	Co	0.41185 0.21843 0.50474 1.05300
C 	C 	0.12495 0.76451 0.03683 0.36400
C 	C 	0.09487 0.72352 0.04039 -0.06000
C 	C 	0.06310 0.71475 0.05476 -0.07700
H 	H 	0.06353 0.73487 0.06357 0.06300
C 	C 	0.03080 0.67607 0.05592 0.04900
H 	H 	0.00953 0.67017 0.06557 0.00200
C 	C 	0.03027 0.64608 0.04262 -0.20900
H 	H 	0.00863 0.62017 0.04337 0.09600
C 	C 	0.06192 0.65487 0.02829 0.23900
C 	C 	0.09426 0.69346 0.02713 -0.15700
H 	H 	0.11553 0.69927 0.01757 0.04800
C 	C 	0.08892 0.62878 0.00184 0.28900
H 	H 	0.11373 0.63677 0.00987 -0.08300
H 	H 	0.09373 0.64887 0.99057 -0.08800
C 	C 	0.07325 0.58748 0.99071 -0.46200
C 	C 	0.07189 0.55659 0.00311 0.54300
C 	C 	0.05338 0.51936 0.99363 -0.46500
C 	C 	0.04071 0.51288 0.97175 0.57100
C 	C 	0.04420 0.54473 0.95938 -0.46300
C 	C 	0.05922 0.58322 0.96932 0.52300
C 	C 	0.05843 0.61620 0.95648 -1.03200
H 	H 	0.05213 0.63177 0.96657 0.33100
H 	H 	0.03853 0.60497 0.94487 0.33400
H 	H 	0.08413 0.63307 0.94977 0.30800
C 	C 	0.08961 0.56267 0.02644 -1.07100
H 	H 	0.11603 0.58547 0.02647 0.33700
H 	H 	0.09083 0.53937 0.03077 0.35200
H 	H 	0.07313 0.56687 0.03687 0.34100
C 	C 	0.02269 0.47231 0.96152 -1.11300
H 	H 	0.03093 0.45637 0.96987 0.37000
H 	H 	0.03143 0.47457 0.94617 0.35400
H 	H 	0.99403 0.45977 0.96187 0.36000
C 	C 	0.04591 0.48338 0.00729 0.25000
H 	H 	0.04433 0.48837 0.02317 -0.04300
H 	H 	0.02083 0.46027 0.00277 -0.04400
C 	C 	0.07512 0.44255 0.01396 0.23900
C 	C 	0.04291 0.41766 0.02751 -0.24300
H 	H 	0.02283 0.42377 0.03037 0.11600
C 	C 	0.04074 0.38449 0.03665 0.08800
H 	H 	0.01833 0.36697 0.04497 -0.02200
C 	C 	0.07147 0.37637 0.03369 -0.10800
H 	H 	0.07073 0.35447 0.04067 0.05600
C 	C 	0.10419 0.40220 0.01987 -0.02800
C 	C 	0.10532 0.43499 0.01034 -0.17600
H 	H 	0.12693 0.45217 0.00137 0.09300
C 	C 	0.13696 0.39306 0.01603 0.38400
C 	C 	0.02968 0.53890 0.93555 0.33000
H 	H 	0.04363 0.56407 0.92757 -0.09400
H 	H 	0.03543 0.51997 0.92807 -0.09100
C 	C 	0.96925 0.51248 0.91531 0.25100
C 	C 	0.92739 0.49726 0.91605 -0.23100
H 	H 	0.91513 0.49677 0.92967 0.10300
C 	C 	0.90525 0.48346 0.89723 0.08000
H 	H 	0.87773 0.47287 0.89797 -0.01700
C 	C 	0.92344 0.48499 0.87656 -0.11200
H 	H 	0.90833 0.47707 0.86347 0.06600
C 	C 	0.96420 0.49846 0.87577 -0.01400
C 	C 	0.98590 0.51255 0.89521 -0.19600
H 	H 	0.01333 0.52257 0.89457 0.08800
C 	C 	0.98427 0.50033 0.85437 0.35500
O 	O 	0.12254 0.79200 0.04717 -0.42900
O 	O 	0.15180 0.77482 0.02295 -0.54000
O 	O 	0.05839 0.62431 0.01711 -0.32000
O 	O 	0.98862 0.52467 0.93490 -0.32900
O 	O 	0.02108 0.51306 0.85534 -0.46900
O 	O 	0.96401 0.48949 0.83696 -0.45500
O 	O 	0.07869 0.47586 0.00341 -0.30200
O 	O 	0.16846 0.41793 0.00773 -0.48500
O 	O 	0.13012 0.35942 0.02339 -0.49700
Co	Co	0.15582 0.32457 0.02765 1.09500
Co	Co	0.21843 0.41185 0.99526 1.05300
C 	C 	0.43117 0.45829 0.79651 0.36500
C 	C 	0.39018 0.42821 0.79295 -0.06000
C 	C 	0.38141 0.39644 0.77858 -0.07700
H 	H 	0.40153 0.39687 0.76977 0.06300
C 	C 	0.34273 0.36414 0.77742 0.04900
H 	H 	0.33683 0.34287 0.76777 0.00200
C 	C 	0.31274 0.36361 0.79072 -0.20900
H 	H 	0.28683 0.34197 0.78997 0.09600
C 	C 	0.32153 0.39526 0.80505 0.23900
C 	C 	0.36012 0.42760 0.80621 -0.15700
H 	H 	0.36593 0.44887 0.81577 0.04800
C 	C 	0.29544 0.42226 0.83150 0.28900
H 	H 	0.30343 0.44707 0.82347 -0.08300
H 	H 	0.31553 0.42707 0.84277 -0.08800
C 	C 	0.25414 0.40659 0.84263 -0.46200
C 	C 	0.22325 0.40523 0.83023 0.54300
C 	C 	0.18602 0.38672 0.83971 -0.46500
C 	C 	0.17954 0.37405 0.86159 0.57100
C 	C 	0.21139 0.37754 0.87396 -0.46300
C 	C 	0.24988 0.39256 0.86402 0.52300
C 	C 	0.28286 0.39177 0.87686 -1.03200
H 	H 	0.29843 0.38547 0.86677 0.33100
H 	H 	0.27163 0.37187 0.88847 0.33400
H 	H 	0.29973 0.41747 0.88357 0.30800
C 	C 	0.22933 0.42295 0.80690 -1.07100
H 	H 	0.25213 0.44937 0.80687 0.33700
H 	H 	0.20603 0.42417 0.80257 0.35200
H 	H 	0.23353 0.40647 0.79647 0.34100
C 	C 	0.13897 0.35603 0.87182 -1.11300
H 	H 	0.12303 0.36427 0.86347 0.37000
H 	H 	0.14123 0.36477 0.88717 0.35400
H 	H 	0.12643 0.32737 0.87147 0.36000
C 	C 	0.15004 0.37925 0.82605 0.25000
H 	H 	0.15503 0.37767 0.81017 -0.04300
H 	H 	0.12693 0.35417 0.83057 -0.04400
C 	C 	0.10921 0.40846 0.81938 0.23900
C 	C 	0.08432 0.37625 0.80583 -0.24300
H 	H 	0.09043 0.35617 0.80297 0.11600
C 	C 	0.05115 0.37408 0.79669 0.08800
H 	H 	0.03363 0.35167 0.78837 -0.02200
C 	C 	0.04303 0.40481 0.79965 -0.10800
H 	H 	0.02113 0.40407 0.79267 0.05600
C 	C 	0.06886 0.43753 0.81347 -0.02800
C 	C 	0.10165 0.43866 0.82300 -0.17600
H 	H 	0.11883 0.46027 0.83197 0.09300
C 	C 	0.05972 0.47030 0.81731 0.38400
C 	C 	0.20556 0.36302 0.89779 0.33000
H 	H 	0.23073 0.37697 0.90577 -0.09400
H 	H 	0.18663 0.36877 0.90527 -0.09100
C 	C 	0.17914 0.30259 0.91803 0.25100
C 	C 	0.16392 0.26073 0.91729 -0.23100
H 	H 	0.16343 0.24847 0.90367 0.10300
C 	C 	0.15012 0.23859 0.93611 0.08000
H 	H 	0.13953 0.21107 0.93537 -0.01700
C 	C 	0.15165 0.25678 0.95678 -0.11200
H 	H 	0.14373 0.24167 0.96987 0.06600
C 	C 	0.16512 0.29754 0.95757 -0.01400
C 	C 	0.17921 0.31924 0.93813 -0.19600
H 	H 	0.18923 0.34667 0.93877 0.08800
C 	C 	0.16699 0.31761 0.97897 0.35500
O 	O 	0.45866 0.45588 0.78617 -0.42900
O 	O 	0.44148 0.48514 0.81039 -0.54000
O 	O 	0.29097 0.39173 0.81623 -0.32000
O 	O 	0.19133 0.32196 0.89844 -0.32900
O 	O 	0.17972 0.35442 0.97800 -0.46900
O 	O 	0.15615 0.29735 0.99638 -0.45500
O 	O 	0.14252 0.41203 0.82993 -0.30200
O 	O 	0.08459 0.50180 0.82561 -0.48500
O 	O 	0.02608 0.46346 0.80995 -0.49700
Co	Co	0.99124 0.48916 0.80568 1.09500
Co	Co	0.07852 0.55176 0.83807 1.05300
C 	C 	0.69378 0.79162 0.62984 0.36500
C 	C 	0.70469 0.76154 0.62628 -0.06000
C 	C 	0.68169 0.72977 0.61191 -0.07700
H 	H 	0.66200 0.73020 0.60310 0.06300
C 	C 	0.68807 0.69747 0.61075 0.04900
H 	H 	0.67270 0.67620 0.60110 0.00200
C 	C 	0.71753 0.69694 0.62405 -0.20900
H 	H 	0.72180 0.67530 0.62330 0.09600
C 	C 	0.74039 0.72859 0.63838 0.23900
C 	C 	0.73414 0.76093 0.63954 -0.15700
H 	H 	0.74960 0.78220 0.64910 0.04800
C 	C 	0.79348 0.75559 0.66483 0.28900
H 	H 	0.81030 0.78040 0.65680 -0.08300
H 	H 	0.77820 0.76040 0.67610 -0.08800
C 	C 	0.81911 0.73992 0.67596 -0.46200
C 	C 	0.84864 0.73856 0.66356 0.54300
C 	C 	0.86736 0.72005 0.67304 -0.46500
C 	C 	0.86117 0.70738 0.69492 0.57100
C 	C 	0.83281 0.71087 0.70729 -0.46300
C 	C 	0.80934 0.72589 0.69735 0.52300
C 	C 	0.77557 0.72510 0.71019 -1.03200
H 	H 	0.75370 0.71880 0.70010 0.33100
H 	H 	0.76690 0.70520 0.72180 0.33400
H 	H 	0.78440 0.75080 0.71690 0.30800
C 	C 	0.86028 0.75628 0.64023 -1.07100
H 	H 	0.86390 0.78270 0.64020 0.33700
H 	H 	0.88480 0.75750 0.63590 0.35200
H 	H 	0.83960 0.73980 0.62980 0.34100
C 	C 	0.88372 0.68936 0.70515 -1.11300
H 	H 	0.90790 0.69760 0.69680 0.37000
H 	H 	0.89020 0.69810 0.72050 0.35400
H 	H 	0.86760 0.66070 0.70480 0.36000
C 	C 	0.89587 0.71258 0.65938 0.25000
H 	H 	0.88930 0.71100 0.64350 -0.04300
H 	H 	0.89390 0.68750 0.66390 -0.04400
C 	C 	0.96591 0.74179 0.65271 0.23900
C 	C 	0.95859 0.70958 0.63916 -0.24300
H 	H 	0.93240 0.68950 0.63630 0.11600
C 	C 	0.98959 0.70741 0.63002 0.08800
H 	H 	0.98470 0.68500 0.62170 -0.02200
C 	C 	0.02844 0.73814 0.63298 -0.10800
H 	H 	0.04960 0.73740 0.62600 0.05600
C 	C 	0.03533 0.77086 0.64680 -0.02800
C 	C 	0.00367 0.77199 0.65633 -0.17600
H 	H 	0.00810 0.79360 0.66530 0.09300
C 	C 	0.07724 0.80363 0.65064 0.38400
C 	C 	0.82412 0.69635 0.73112 0.33000
H 	H 	0.81290 0.71030 0.73910 -0.09400
H 	H 	0.84880 0.70210 0.73860 -0.09100
C 	C 	0.79011 0.63592 0.75136 0.25100
C 	C 	0.76347 0.59406 0.75062 -0.23100
H 	H 	0.75170 0.58180 0.73700 0.10300
C 	C 	0.75513 0.57192 0.76944 0.08000
H 	H 	0.73820 0.54440 0.76870 -0.01700
C 	C 	0.77179 0.59011 0.79011 -0.11200
H 	H 	0.76460 0.57500 0.80320 0.06600
C 	C 	0.79908 0.63087 0.79090 -0.01400
C 	C 	0.80669 0.65257 0.77146 -0.19600
H 	H 	0.82410 0.68000 0.77210 0.08800
C 	C 	0.81728 0.65094 0.81230 0.35500
O 	O 	0.66388 0.78921 0.61950 -0.42900
O 	O 	0.71032 0.81847 0.64372 -0.54000
O 	O 	0.76742 0.72506 0.64956 -0.32000
O 	O 	0.79729 0.65529 0.73177 -0.32900
O 	O 	0.84136 0.68775 0.81133 -0.46900
O 	O 	0.80786 0.63068 0.82971 -0.45500
O 	O 	0.93617 0.74536 0.66326 -0.30200
O 	O 	0.08387 0.83513 0.65894 -0.48500
O 	O 	0.10404 0.79679 0.64328 -0.49700
Co	Co	0.16458 0.82249 0.63901 1.09500
Co	Co	0.13991 0.88510 0.67140 1.05300
Co	Co	0.83542 0.65791 0.86099 1.09500
Co	Co	0.86009 0.74518 0.82860 1.05300
C 	C 	0.30622 0.09784 0.87016 0.36500
C 	C 	0.29531 0.05685 0.87372 -0.06000
C 	C 	0.31831 0.04808 0.88809 -0.07700
H 	H 	0.33800 0.06820 0.89690 0.06300
C 	C 	0.31193 0.00940 0.88925 0.04900
H 	H 	0.32730 0.00350 0.89890 0.00200
C 	C 	0.28247 0.97941 0.87595 -0.20900
H 	H 	0.27820 0.95350 0.87670 0.09600
C 	C 	0.25961 0.98820 0.86162 0.23900
C 	C 	0.26586 0.02679 0.86046 -0.15700
H 	H 	0.25040 0.03260 0.85090 0.04800
C 	C 	0.20652 0.96211 0.83517 0.28900
H 	H 	0.18970 0.97010 0.84320 -0.08300
H 	H 	0.22180 0.98220 0.82390 -0.08800
C 	C 	0.18089 0.92081 0.82404 -0.46200
C 	C 	0.15136 0.88992 0.83644 0.54300
C 	C 	0.13264 0.85269 0.82696 -0.46500
C 	C 	0.13883 0.84621 0.80508 0.57100
C 	C 	0.16719 0.87806 0.79271 -0.46300
C 	C 	0.19066 0.91655 0.80265 0.52300
C 	C 	0.22443 0.94953 0.78981 -1.03200
H 	H 	0.24630 0.96510 0.79990 0.33100
H 	H 	0.23310 0.93830 0.77820 0.33400
H 	H 	0.21560 0.96640 0.78310 0.30800
C 	C 	0.13972 0.89600 0.85977 -1.07000
H 	H 	0.13610 0.91880 0.85980 0.33700
H 	H 	0.11520 0.87270 0.86410 0.35200
H 	H 	0.16040 0.90020 0.87020 0.34100
C 	C 	0.11628 0.80564 0.79485 -1.11300
H 	H 	0.09210 0.78970 0.80320 0.37000
H 	H 	0.10980 0.80790 0.77950 0.35400
H 	H 	0.13240 0.79310 0.79520 0.36000
C 	C 	0.10413 0.81671 0.84062 0.25000
H 	H 	0.11070 0.82170 0.85650 -0.04300
H 	H 	0.10610 0.79360 0.83610 -0.04400
C 	C 	0.03409 0.77588 0.84729 0.23900
C 	C 	0.04141 0.75099 0.86084 -0.24300
H 	H 	0.06760 0.75710 0.86370 0.11600
C 	C 	0.01041 0.71782 0.86998 0.08800
H 	H 	0.01530 0.70030 0.87830 -0.02200
C 	C 	0.97156 0.70970 0.86702 -0.10800
H 	H 	0.95040 0.68780 0.87400 0.05600
C 	C 	0.96467 0.73553 0.85320 -0.02800
C 	C 	0.99633 0.76832 0.84367 -0.17600
H 	H 	0.99190 0.78550 0.83470 0.09300
C 	C 	0.92276 0.72639 0.84936 0.38400
C 	C 	0.17588 0.87223 0.76888 0.33000
H 	H 	0.18710 0.89740 0.76090 -0.09400
H 	H 	0.15120 0.85330 0.76140 -0.09100
C 	C 	0.20989 0.84581 0.74864 0.25100
C 	C 	0.23653 0.83059 0.74938 -0.23100
H 	H 	0.24830 0.83010 0.76300 0.10300
C 	C 	0.24487 0.81679 0.73056 0.08000
H 	H 	0.26180 0.80620 0.73130 -0.01700
C 	C 	0.22821 0.81832 0.70989 -0.11200
H 	H 	0.23540 0.81040 0.69680 0.06600
C 	C 	0.20092 0.83179 0.70910 -0.01400
C 	C 	0.19331 0.84588 0.72854 -0.19600
H 	H 	0.17590 0.85590 0.72790 0.08800
C 	C 	0.18272 0.83366 0.68770 0.35500
O 	O 	0.33612 0.12533 0.88050 -0.42900
O 	O 	0.28968 0.10815 0.85628 -0.54000
O 	O 	0.23258 0.95764 0.85044 -0.32000
O 	O 	0.20271 0.85800 0.76823 -0.32900
O 	O 	0.15864 0.84639 0.68867 -0.46900
O 	O 	0.19214 0.82282 0.67029 -0.45500
O 	O 	0.06383 0.80919 0.83674 -0.30200
O 	O 	0.91613 0.75126 0.84106 -0.48500
O 	O 	0.89596 0.69275 0.85672 -0.49700
Co	Co	0.65791 0.83542 0.63901 1.09500
Co	Co	0.74518 0.86009 0.67140 1.05300
C 	C 	0.09784 0.30622 0.62984 0.36500
C 	C 	0.05685 0.29531 0.62628 -0.06000
C 	C 	0.04808 0.31831 0.61191 -0.07700
H 	H 	0.06820 0.33800 0.60310 0.06300
C 	C 	0.00940 0.31193 0.61075 0.04900
H 	H 	0.00350 0.32730 0.60110 0.00200
C 	C 	0.97941 0.28247 0.62405 -0.20900
H 	H 	0.95350 0.27820 0.62330 0.09600
C 	C 	0.98820 0.25961 0.63838 0.23900
C 	C 	0.02679 0.26586 0.63954 -0.15700
H 	H 	0.03260 0.25040 0.64910 0.04800
C 	C 	0.96211 0.20652 0.66483 0.28900
H 	H 	0.97010 0.18970 0.65680 -0.08300
H 	H 	0.98220 0.22180 0.67610 -0.08800
C 	C 	0.92081 0.18089 0.67596 -0.46200
C 	C 	0.88992 0.15136 0.66356 0.54300
C 	C 	0.85269 0.13264 0.67304 -0.46500
C 	C 	0.84621 0.13883 0.69492 0.57100
C 	C 	0.87806 0.16719 0.70729 -0.46300
C 	C 	0.91655 0.19066 0.69735 0.52300
C 	C 	0.94953 0.22443 0.71019 -1.03200
H 	H 	0.96510 0.24630 0.70010 0.33100
H 	H 	0.93830 0.23310 0.72180 0.33400
H 	H 	0.96640 0.21560 0.71690 0.30800
C 	C 	0.89600 0.13972 0.64023 -1.07000
H 	H 	0.91880 0.13610 0.64020 0.33700
H 	H 	0.87270 0.11520 0.63590 0.35200
H 	H 	0.90020 0.16040 0.62980 0.34100
C 	C 	0.80564 0.11628 0.70515 -1.11300
H 	H 	0.78970 0.09210 0.69680 0.37000
H 	H 	0.80790 0.10980 0.72050 0.35400
H 	H 	0.79310 0.13240 0.70480 0.36000
C 	C 	0.81671 0.10413 0.65938 0.25000
H 	H 	0.82170 0.11070 0.64350 -0.04300
H 	H 	0.79360 0.10610 0.66390 -0.04400
C 	C 	0.77588 0.03409 0.65271 0.23900
C 	C 	0.75099 0.04141 0.63916 -0.24300
H 	H 	0.75710 0.06760 0.63630 0.11600
C 	C 	0.71782 0.01041 0.63002 0.08800
H 	H 	0.70030 0.01530 0.62170 -0.02200
C 	C 	0.70970 0.97156 0.63298 -0.10800
H 	H 	0.68780 0.95040 0.62600 0.05600
C 	C 	0.73553 0.96467 0.64680 -0.02800
C 	C 	0.76832 0.99633 0.65633 -0.17600
H 	H 	0.78550 0.99190 0.66530 0.09300
C 	C 	0.72639 0.92276 0.65064 0.38400
C 	C 	0.87223 0.17588 0.73112 0.33000
H 	H 	0.89740 0.18710 0.73910 -0.09400
H 	H 	0.85330 0.15120 0.73860 -0.09100
C 	C 	0.84581 0.20989 0.75136 0.25100
C 	C 	0.83059 0.23653 0.75062 -0.23100
H 	H 	0.83010 0.24830 0.73700 0.10300
C 	C 	0.81679 0.24487 0.76944 0.08000
H 	H 	0.80620 0.26180 0.76870 -0.01700
C 	C 	0.81832 0.22821 0.79011 -0.11200
H 	H 	0.81040 0.23540 0.80320 0.06600
C 	C 	0.83179 0.20092 0.79090 -0.01400
C 	C 	0.84588 0.19331 0.77146 -0.19600
H 	H 	0.85590 0.17590 0.77210 0.08800
C 	C 	0.83366 0.18272 0.81230 0.35500
O 	O 	0.12533 0.33612 0.61950 -0.42900
O 	O 	0.10815 0.28968 0.64372 -0.54000
O 	O 	0.95764 0.23258 0.64956 -0.32000
O 	O 	0.85800 0.20271 0.73177 -0.32900
O 	O 	0.84639 0.15864 0.81133 -0.46900
O 	O 	0.82282 0.19214 0.82971 -0.45500
O 	O 	0.80919 0.06383 0.66326 -0.30200
O 	O 	0.75126 0.91613 0.65894 -0.48500
O 	O 	0.69275 0.89596 0.64328 -0.49700
C 	C 	0.79162 0.69378 0.87016 0.36500
C 	C 	0.76154 0.70469 0.87372 -0.06000
C 	C 	0.72977 0.68169 0.88809 -0.07700
H 	H 	0.73020 0.66200 0.89690 0.06300
C 	C 	0.69747 0.68807 0.88925 0.04900
H 	H 	0.67620 0.67270 0.89890 0.00200
C 	C 	0.69694 0.71753 0.87595 -0.20900
H 	H 	0.67530 0.72180 0.87670 0.09600
C 	C 	0.72859 0.74039 0.86162 0.23900
C 	C 	0.76093 0.73414 0.86046 -0.15700
H 	H 	0.78220 0.74960 0.85090 0.04800
C 	C 	0.75559 0.79348 0.83517 0.28900
H 	H 	0.78040 0.81030 0.84320 -0.08300
H 	H 	0.76040 0.77820 0.82390 -0.08800
C 	C 	0.73992 0.81911 0.82404 -0.46200
C 	C 	0.73856 0.84864 0.83644 0.54300
C 	C 	0.72005 0.86736 0.82696 -0.46500
C 	C 	0.70738 0.86117 0.80508 0.57100
C 	C 	0.71087 0.83281 0.79271 -0.46300
C 	C 	0.72589 0.80934 0.80265 0.52300
C 	C 	0.72510 0.77557 0.78981 -1.03200
H 	H 	0.71880 0.75370 0.79990 0.33100
H 	H 	0.70520 0.76690 0.77820 0.33400
H 	H 	0.75080 0.78440 0.78310 0.30800
C 	C 	0.75628 0.86028 0.85977 -1.07100
H 	H 	0.78270 0.86390 0.85980 0.33700
H 	H 	0.75750 0.88480 0.86410 0.35200
H 	H 	0.73980 0.83960 0.87020 0.34100
C 	C 	0.68936 0.88372 0.79485 -1.11300
H 	H 	0.69760 0.90790 0.80320 0.37000
H 	H 	0.69810 0.89020 0.77950 0.35400
H 	H 	0.66070 0.86760 0.79520 0.36000
C 	C 	0.71258 0.89587 0.84062 0.25000
H 	H 	0.71100 0.88930 0.85650 -0.04300
H 	H 	0.68750 0.89390 0.83610 -0.04400
C 	C 	0.74179 0.96591 0.84729 0.23900
C 	C 	0.70958 0.95859 0.86084 -0.24300
H 	H 	0.68950 0.93240 0.86370 0.11600
C 	C 	0.70741 0.98959 0.86998 0.08800
H 	H 	0.68500 0.98470 0.87830 -0.02200
C 	C 	0.73814 0.02844 0.86702 -0.10800
H 	H 	0.73740 0.04960 0.87400 0.05600
C 	C 	0.77086 0.03533 0.85320 -0.02800
C 	C 	0.77199 0.00367 0.84367 -0.17600
H 	H 	0.79360 0.00810 0.83470 0.09300
C 	C 	0.80363 0.07724 0.84936 0.38400
C 	C 	0.69635 0.82412 0.76888 0.33000
H 	H 	0.71030 0.81290 0.76090 -0.09400
H 	H 	0.70210 0.84880 0.76140 -0.09100
C 	C 	0.63592 0.79011 0.74864 0.25100
C 	C 	0.59406 0.76347 0.74938 -0.23100
H 	H 	0.58180 0.75170 0.76300 0.10300
C 	C 	0.57192 0.75513 0.73056 0.08000
H 	H 	0.54440 0.73820 0.73130 -0.01700
C 	C 	0.59011 0.77179 0.70989 -0.11200
H 	H 	0.57500 0.76460 0.69680 0.06600
C 	C 	0.63087 0.79908 0.70910 -0.01400
C 	C 	0.65257 0.80669 0.72854 -0.19600
H 	H 	0.68000 0.82410 0.72790 0.08800
C 	C 	0.65094 0.81728 0.68770 0.35500
O 	O 	0.78921 0.66388 0.88050 -0.42900
O 	O 	0.81847 0.71032 0.85628 -0.54000
O 	O 	0.72506 0.76742 0.85044 -0.32000
O 	O 	0.65529 0.79729 0.76823 -0.32900
O 	O 	0.68775 0.84136 0.68867 -0.46900
O 	O 	0.63068 0.80786 0.67029 -0.45500
O 	O 	0.74536 0.93617 0.83674 -0.30200
O 	O 	0.83513 0.08387 0.84106 -0.48500
O 	O 	0.79679 0.10404 0.85672 -0.49700
Co	Co	0.82249 0.16458 0.86099 1.09500
Co	Co	0.88510 0.13991 0.82860 1.05300
C 	C 	0.36045 0.12495 0.96317 0.36400
C 	C 	0.37136 0.09487 0.95961 -0.06000
C 	C 	0.34836 0.06310 0.94524 -0.07700
H 	H 	0.32867 0.06353 0.93643 0.06300
C 	C 	0.35474 0.03080 0.94408 0.04900
H 	H 	0.33937 0.00953 0.93443 0.00200
C 	C 	0.38420 0.03027 0.95738 -0.20900
H 	H 	0.38847 0.00863 0.95663 0.09600
C 	C 	0.40706 0.06192 0.97171 0.23900
C 	C 	0.40081 0.09426 0.97287 -0.15700
H 	H 	0.41627 0.11553 0.98243 0.04800
C 	C 	0.46015 0.08892 0.99816 0.28900
H 	H 	0.47697 0.11373 0.99013 -0.08300
H 	H 	0.44487 0.09373 0.00943 -0.08800
C 	C 	0.48578 0.07325 0.00929 -0.46200
C 	C 	0.51531 0.07189 0.99689 0.54300
C 	C 	0.53403 0.05338 0.00637 -0.46500
C 	C 	0.52784 0.04071 0.02825 0.57100
C 	C 	0.49948 0.04420 0.04062 -0.46300
C 	C 	0.47601 0.05922 0.03068 0.52300
C 	C 	0.44224 0.05843 0.04352 -1.03200
H 	H 	0.42037 0.05213 0.03343 0.33100
H 	H 	0.43357 0.03853 0.05513 0.33400
H 	H 	0.45107 0.08413 0.05023 0.30800
C 	C 	0.52695 0.08961 0.97356 -1.07100
H 	H 	0.53057 0.11603 0.97353 0.33700
H 	H 	0.55147 0.09083 0.96923 0.35200
H 	H 	0.50627 0.07313 0.96313 0.34100
C 	C 	0.55039 0.02269 0.03848 -1.11300
H 	H 	0.57457 0.03093 0.03013 0.37000
H 	H 	0.55687 0.03143 0.05383 0.35400
H 	H 	0.53427 0.99403 0.03813 0.36000
C 	C 	0.56254 0.04591 0.99271 0.25000
H 	H 	0.55597 0.04433 0.97683 -0.04300
H 	H 	0.56057 0.02083 0.99723 -0.04400
C 	C 	0.63258 0.07512 0.98604 0.23900
C 	C 	0.62526 0.04291 0.97249 -0.24300
H 	H 	0.59907 0.02283 0.96963 0.11600
C 	C 	0.65626 0.04074 0.96335 0.08800
H 	H 	0.65137 0.01833 0.95503 -0.02200
C 	C 	0.69511 0.07147 0.96631 -0.10800
H 	H 	0.71627 0.07073 0.95933 0.05600
C 	C 	0.70200 0.10419 0.98013 -0.02800
C 	C 	0.67034 0.10532 0.98966 -0.17600
H 	H 	0.67477 0.12693 0.99863 0.09300
C 	C 	0.74391 0.13696 0.98397 0.38400
C 	C 	0.49079 0.02968 0.06445 0.33000
H 	H 	0.47957 0.04363 0.07243 -0.09400
H 	H 	0.51547 0.03543 0.07193 -0.09100
C 	C 	0.45678 0.96925 0.08469 0.25100
C 	C 	0.43014 0.92739 0.08395 -0.23100
H 	H 	0.41837 0.91513 0.07033 0.10300
C 	C 	0.42180 0.90525 0.10277 0.08000
H 	H 	0.40487 0.87773 0.10203 -0.01700
C 	C 	0.43846 0.92344 0.12344 -0.11200
H 	H 	0.43127 0.90833 0.13653 0.06600
C 	C 	0.46575 0.96420 0.12423 -0.01400
C 	C 	0.47336 0.98590 0.10479 -0.19600
H 	H 	0.49077 0.01333 0.10543 0.08800
C 	C 	0.48395 0.98427 0.14563 0.35500
O 	O 	0.33055 0.12254 0.95283 -0.42900
O 	O 	0.37699 0.15180 0.97705 -0.54000
O 	O 	0.43409 0.05839 0.98289 -0.32000
O 	O 	0.46396 0.98862 0.06510 -0.32900
O 	O 	0.50803 0.02108 0.14466 -0.46900
O 	O 	0.47453 0.96401 0.16304 -0.45500
O 	O 	0.60284 0.07869 0.99659 -0.30200
O 	O 	0.75054 0.16846 0.99227 -0.48500
O 	O 	0.77071 0.13012 0.97661 -0.49700
Co	Co	0.83125 0.15582 0.97235 1.09500
Co	Co	0.80658 0.21843 0.00474 1.05300
Co	Co	0.50208 0.99124 0.19432 1.09500
Co	Co	0.52676 0.07852 0.16193 1.05300
C 	C 	0.97289 0.43117 0.20349 0.36500
C 	C 	0.96198 0.39018 0.20705 -0.06000
C 	C 	0.98498 0.38141 0.22142 -0.07700
H 	H 	0.00467 0.40153 0.23023 0.06300
C 	C 	0.97860 0.34273 0.22258 0.04900
H 	H 	0.99397 0.33683 0.23223 0.00200
C 	C 	0.94914 0.31274 0.20928 -0.20900
H 	H 	0.94487 0.28683 0.21003 0.09600
C 	C 	0.92628 0.32153 0.19495 0.23900
C 	C 	0.93253 0.36012 0.19379 -0.15700
H 	H 	0.91707 0.36593 0.18423 0.04800
C 	C 	0.87319 0.29544 0.16850 0.28900
H 	H 	0.85637 0.30343 0.17653 -0.08300
H 	H 	0.88847 0.31553 0.15723 -0.08800
C 	C 	0.84756 0.25414 0.15737 -0.46200
C 	C 	0.81803 0.22325 0.16977 0.54300
C 	C 	0.79931 0.18602 0.16029 -0.46500
C 	C 	0.80550 0.17954 0.13841 0.57100
C 	C 	0.83386 0.21139 0.12604 -0.46300
C 	C 	0.85733 0.24988 0.13598 0.52300
C 	C 	0.89110 0.28286 0.12314 -1.03200
H 	H 	0.91297 0.29843 0.13323 0.33100
H 	H 	0.89977 0.27163 0.11153 0.33400
H 	H 	0.88227 0.29973 0.11643 0.30800
C 	C 	0.80639 0.22933 0.19310 -1.07100
H 	H 	0.80277 0.25213 0.19313 0.33700
H 	H 	0.78187 0.20603 0.19743 0.35200
H 	H 	0.82707 0.23353 0.20353 0.34100
C 	C 	0.78295 0.13897 0.12818 -1.11300
H 	H 	0.75877 0.12303 0.13653 0.37000
H 	H 	0.77647 0.14123 0.11283 0.35400
H 	H 	0.79907 0.12643 0.12853 0.36000
C 	C 	0.77080 0.15004 0.17395 0.25000
H 	H 	0.77737 0.15503 0.18983 -0.04300
H 	H 	0.77277 0.12693 0.16943 -0.04400
C 	C 	0.70076 0.10921 0.18062 0.23900
C 	C 	0.70808 0.08432 0.19417 -0.24300
H 	H 	0.73427 0.09043 0.19703 0.11600
C 	C 	0.67708 0.05115 0.20331 0.08800
H 	H 	0.68197 0.03363 0.21163 -0.02200
C 	C 	0.63823 0.04303 0.20035 -0.10800
H 	H 	0.61707 0.02113 0.20733 0.05600
C 	C 	0.63134 0.06886 0.18653 -0.02800
C 	C 	0.66300 0.10165 0.17700 -0.17600
H 	H 	0.65857 0.11883 0.16803 0.09300
C 	C 	0.58943 0.05972 0.18269 0.38400
C 	C 	0.84255 0.20556 0.10221 0.33000
H 	H 	0.85377 0.23073 0.09423 -0.09400
H 	H 	0.81787 0.18663 0.09473 -0.09100
C 	C 	0.87656 0.17914 0.08197 0.25100
C 	C 	0.90320 0.16392 0.08271 -0.23100
H 	H 	0.91497 0.16343 0.09633 0.10300
C 	C 	0.91154 0.15012 0.06389 0.08000
H 	H 	0.92847 0.13953 0.06463 -0.01700
C 	C 	0.89488 0.15165 0.04322 -0.11200
H 	H 	0.90207 0.14373 0.03013 0.06600
C 	C 	0.86759 0.16512 0.04243 -0.01400
C 	C 	0.85998 0.17921 0.06187 -0.19600
H 	H 	0.84257 0.18923 0.06123 0.08800
C 	C 	0.84939 0.16699 0.02103 0.35500
O 	O 	0.00279 0.45866 0.21383 -0.42900
O 	O 	0.95635 0.44148 0.18961 -0.54000
O 	O 	0.89925 0.29097 0.18377 -0.32000
O 	O 	0.86938 0.19133 0.10156 -0.32900
O 	O 	0.82531 0.17972 0.02200 -0.46900
O 	O 	0.85881 0.15615 0.00362 -0.45500
O 	O 	0.73050 0.14252 0.17007 -0.30200
O 	O 	0.58280 0.08459 0.17439 -0.48500
O 	O 	0.56263 0.02608 0.19005 -0.49700
Co	Co	0.32457 0.16875 0.97235 1.09500
Co	Co	0.41185 0.19342 0.00474 1.05300
C 	C 	0.76451 0.63955 0.96317 0.36500
C 	C 	0.72352 0.62864 0.95961 -0.06000
C 	C 	0.71475 0.65164 0.94524 -0.07700
H 	H 	0.73487 0.67133 0.93643 0.06300
C 	C 	0.67607 0.64526 0.94408 0.04900
H 	H 	0.67017 0.66063 0.93443 0.00200
C 	C 	0.64608 0.61580 0.95738 -0.20900
H 	H 	0.62017 0.61153 0.95663 0.09600
C 	C 	0.65487 0.59294 0.97171 0.23900
C 	C 	0.69346 0.59919 0.97287 -0.15700
H 	H 	0.69927 0.58373 0.98243 0.04800
C 	C 	0.62878 0.53985 0.99816 0.28900
H 	H 	0.63677 0.52303 0.99013 -0.08300
H 	H 	0.64887 0.55513 0.00943 -0.08800
C 	C 	0.58748 0.51422 0.00929 -0.46200
C 	C 	0.55659 0.48469 0.99689 0.54300
C 	C 	0.51936 0.46597 0.00637 -0.46500
C 	C 	0.51288 0.47216 0.02825 0.57100
C 	C 	0.54473 0.50052 0.04062 -0.46300
C 	C 	0.58322 0.52399 0.03068 0.52300
C 	C 	0.61620 0.55776 0.04352 -1.03200
H 	H 	0.63177 0.57963 0.03343 0.33100
H 	H 	0.60497 0.56643 0.05513 0.33400
H 	H 	0.63307 0.54893 0.05023 0.30800
C 	C 	0.56267 0.47305 0.97356 -1.07100
H 	H 	0.58547 0.46943 0.97353 0.33700
H 	H 	0.53937 0.44853 0.96923 0.35200
H 	H 	0.56687 0.49373 0.96313 0.34100
C 	C 	0.47231 0.44961 0.03848 -1.11300
H 	H 	0.45637 0.42543 0.03013 0.37000
H 	H 	0.47457 0.44313 0.05383 0.35400
H 	H 	0.45977 0.46573 0.03813 0.36000
C 	C 	0.48338 0.43746 0.99271 0.25000
H 	H 	0.48837 0.44403 0.97683 -0.04300
H 	H 	0.46027 0.43943 0.99723 -0.04400
C 	C 	0.44255 0.36742 0.98604 0.23900
C 	C 	0.41766 0.37474 0.97249 -0.24300
H 	H 	0.42377 0.40093 0.96963 0.11600
C 	C 	0.38449 0.34374 0.96335 0.08800
H 	H 	0.36697 0.34863 0.95503 -0.02200
C 	C 	0.37637 0.30489 0.96631 -0.10800
H 	H 	0.35447 0.28373 0.95933 0.05600
C 	C 	0.40220 0.29800 0.98013 -0.02800
C 	C 	0.43499 0.32966 0.98966 -0.17600
H 	H 	0.45217 0.32523 0.99863 0.09300
C 	C 	0.39306 0.25609 0.98397 0.38400
C 	C 	0.53890 0.50921 0.06445 0.33000
H 	H 	0.56407 0.52043 0.07243 -0.09400
H 	H 	0.51997 0.48453 0.07193 -0.09100
C 	C 	0.51248 0.54322 0.08469 0.25100
C 	C 	0.49726 0.56986 0.08395 -0.23100
H 	H 	0.49677 0.58163 0.07033 0.10300
C 	C 	0.48346 0.57820 0.10277 0.08000
H 	H 	0.47287 0.59513 0.10203 -0.01700
C 	C 	0.48499 0.56154 0.12344 -0.11200
H 	H 	0.47707 0.56873 0.13653 0.06600
C 	C 	0.49846 0.53425 0.12423 -0.01400
C 	C 	0.51255 0.52664 0.10479 -0.19600
H 	H 	0.52257 0.50923 0.10543 0.08800
C 	C 	0.50033 0.51605 0.14563 0.35500
O 	O 	0.79200 0.66945 0.95283 -0.42900
O 	O 	0.77482 0.62301 0.97705 -0.54000
O 	O 	0.62431 0.56591 0.98289 -0.32000
O 	O 	0.52467 0.53604 0.06510 -0.32900
O 	O 	0.51306 0.49197 0.14466 -0.46900
O 	O 	0.48949 0.52547 0.16304 -0.45500
O 	O 	0.47586 0.39716 0.99659 -0.30200
O 	O 	0.41793 0.24946 0.99227 -0.48500
O 	O 	0.35942 0.22929 0.97661 -0.49700
C 	C 	0.45829 0.02711 0.20349 0.36500
C 	C 	0.42821 0.03802 0.20705 -0.06000
C 	C 	0.39644 0.01502 0.22142 -0.07700
H 	H 	0.39687 0.99533 0.23023 0.06300
C 	C 	0.36414 0.02140 0.22258 0.04900
H 	H 	0.34287 0.00603 0.23223 0.00200
C 	C 	0.36361 0.05086 0.20928 -0.20900
H 	H 	0.34197 0.05513 0.21003 0.09600
C 	C 	0.39526 0.07372 0.19495 0.23900
C 	C 	0.42760 0.06747 0.19379 -0.15700
H 	H 	0.44887 0.08293 0.18423 0.04800
C 	C 	0.42226 0.12681 0.16850 0.28900
H 	H 	0.44707 0.14363 0.17653 -0.08300
H 	H 	0.42707 0.11153 0.15723 -0.08800
C 	C 	0.40659 0.15244 0.15737 -0.46200
C 	C 	0.40523 0.18197 0.16977 0.54300
C 	C 	0.38672 0.20069 0.16029 -0.46500
C 	C 	0.37405 0.19450 0.13841 0.57100
C 	C 	0.37754 0.16614 0.12604 -0.46300
C 	C 	0.39256 0.14267 0.13598 0.52300
C 	C 	0.39177 0.10890 0.12314 -1.03200
H 	H 	0.38547 0.08703 0.13323 0.33100
H 	H 	0.37187 0.10023 0.11153 0.33400
H 	H 	0.41747 0.11773 0.11643 0.30800
C 	C 	0.42295 0.19361 0.19310 -1.07100
H 	H 	0.44937 0.19723 0.19313 0.33700
H 	H 	0.42417 0.21813 0.19743 0.35200
H 	H 	0.40647 0.17293 0.20353 0.34100
C 	C 	0.35603 0.21705 0.12818 -1.11300
H 	H 	0.36427 0.24123 0.13653 0.37000
H 	H 	0.36477 0.22353 0.11283 0.35400
H 	H 	0.32737 0.20093 0.12853 0.36000
C 	C 	0.37925 0.22920 0.17395 0.25000
H 	H 	0.37767 0.22263 0.18983 -0.04300
H 	H 	0.35417 0.22723 0.16943 -0.04400
C 	C 	0.40846 0.29924 0.18062 0.23900
C 	C 	0.37625 0.29192 0.19417 -0.24300
H 	H 	0.35617 0.26573 0.19703 0.11600
C 	C 	0.37408 0.32292 0.20331 0.08800
H 	H 	0.35167 0.31803 0.21163 -0.02200
C 	C 	0.40481 0.36177 0.20035 -0.10800
H 	H 	0.40407 0.38293 0.20733 0.05600
C 	C 	0.43753 0.36866 0.18653 -0.02800
C 	C 	0.43866 0.33700 0.17700 -0.17600
H 	H 	0.46027 0.34143 0.16803 0.09300
C 	C 	0.47030 0.41057 0.18269 0.38400
C 	C 	0.36302 0.15745 0.10221 0.33000
H 	H 	0.37697 0.14623 0.09423 -0.09400
H 	H 	0.36877 0.18213 0.09473 -0.09100
C 	C 	0.30259 0.12344 0.08197 0.25100
C 	C 	0.26073 0.09680 0.08271 -0.23100
H 	H 	0.24847 0.08503 0.09633 0.10300
C 	C 	0.23859 0.08846 0.06389 0.08000
H 	H 	0.21107 0.07153 0.06463 -0.01700
C 	C 	0.25678 0.10512 0.04322 -0.11200
H 	H 	0.24167 0.09793 0.03013 0.06600
C 	C 	0.29754 0.13241 0.04243 -0.01400
C 	C 	0.31924 0.14002 0.06187 -0.19600
H 	H 	0.34667 0.15743 0.06123 0.08800
C 	C 	0.31761 0.15061 0.02103 0.35500
O 	O 	0.45588 0.99721 0.21383 -0.42900
O 	O 	0.48514 0.04365 0.18961 -0.54000
O 	O 	0.39173 0.10075 0.18377 -0.32000
O 	O 	0.32196 0.13062 0.10156 -0.32900
O 	O 	0.35442 0.17469 0.02200 -0.46900
O 	O 	0.29735 0.14119 0.00362 -0.45500
O 	O 	0.41203 0.26950 0.17007 -0.30200
O 	O 	0.50180 0.41720 0.17439 -0.48500
O 	O 	0.46346 0.43737 0.19005 -0.49700
Co	Co	0.48916 0.49792 0.19432 1.09500
Co	Co	0.55176 0.47324 0.16193 1.05300
C 	C 	0.02711 0.45829 0.29651 0.36500
C 	C 	0.03802 0.42821 0.29295 -0.06000
C 	C 	0.01502 0.39644 0.27858 -0.07700
H 	H 	0.99533 0.39687 0.26977 0.06300
C 	C 	0.02140 0.36414 0.27742 0.04900
H 	H 	0.00603 0.34287 0.26777 0.00200
C 	C 	0.05086 0.36361 0.29072 -0.20900
H 	H 	0.05513 0.34197 0.28997 0.09600
C 	C 	0.07372 0.39526 0.30505 0.23900
C 	C 	0.06747 0.42760 0.30621 -0.15700
H 	H 	0.08293 0.44887 0.31577 0.04800
C 	C 	0.12681 0.42226 0.33150 0.28900
H 	H 	0.14363 0.44707 0.32347 -0.08300
H 	H 	0.11153 0.42707 0.34277 -0.08800
C 	C 	0.15244 0.40659 0.34263 -0.46200
C 	C 	0.18197 0.40523 0.33023 0.54300
C 	C 	0.20069 0.38672 0.33971 -0.46500
C 	C 	0.19450 0.37405 0.36159 0.57100
C 	C 	0.16614 0.37754 0.37396 -0.46300
C 	C 	0.14267 0.39256 0.36402 0.52300
C 	C 	0.10890 0.39177 0.37686 -1.03200
H 	H 	0.08703 0.38547 0.36677 0.33100
H 	H 	0.10023 0.37187 0.38847 0.33400
H 	H 	0.11773 0.41747 0.38357 0.30800
C 	C 	0.19361 0.42295 0.30690 -1.07100
H 	H 	0.19723 0.44937 0.30687 0.33700
H 	H 	0.21813 0.42417 0.30257 0.35200
H 	H 	0.17293 0.40647 0.29647 0.34100
C 	C 	0.21705 0.35603 0.37182 -1.11300
H 	H 	0.24123 0.36427 0.36347 0.37000
H 	H 	0.22353 0.36477 0.38717 0.35400
H 	H 	0.20093 0.32737 0.37147 0.36000
C 	C 	0.22920 0.37925 0.32605 0.25000
H 	H 	0.22263 0.37767 0.31017 -0.04300
H 	H 	0.22723 0.35417 0.33057 -0.04400
C 	C 	0.29924 0.40846 0.31938 0.23900
C 	C 	0.29192 0.37625 0.30583 -0.24300
H 	H 	0.26573 0.35617 0.30297 0.11600
C 	C 	0.32292 0.37408 0.29669 0.08800
H 	H 	0.31803 0.35167 0.28837 -0.02200
C 	C 	0.36177 0.40481 0.29965 -0.10800
H 	H 	0.38293 0.40407 0.29267 0.05600
C 	C 	0.36866 0.43753 0.31347 -0.02800
C 	C 	0.33700 0.43866 0.32300 -0.17600
H 	H 	0.34143 0.46027 0.33197 0.09300
C 	C 	0.41057 0.47030 0.31731 0.38400
C 	C 	0.15745 0.36302 0.39779 0.33000
H 	H 	0.14623 0.37697 0.40577 -0.09400
H 	H 	0.18213 0.36877 0.40527 -0.09100
C 	C 	0.12344 0.30259 0.41803 0.25100
C 	C 	0.09680 0.26073 0.41729 -0.23100
H 	H 	0.08503 0.24847 0.40367 0.10300
C 	C 	0.08846 0.23859 0.43611 0.08000
H 	H 	0.07153 0.21107 0.43537 -0.01700
C 	C 	0.10512 0.25678 0.45678 -0.11200
H 	H 	0.09793 0.24167 0.46987 0.06600
C 	C 	0.13241 0.29754 0.45757 -0.01400
C 	C 	0.14002 0.31924 0.43813 -0.19600
H 	H 	0.15743 0.34667 0.43877 0.08800
C 	C 	0.15061 0.31761 0.47897 0.35500
O 	O 	0.99721 0.45588 0.28617 -0.42900
O 	O 	0.04365 0.48514 0.31039 -0.54000
O 	O 	0.10075 0.39173 0.31623 -0.32000
O 	O 	0.13062 0.32196 0.39844 -0.32900
O 	O 	0.17469 0.35442 0.47800 -0.46900
O 	O 	0.14119 0.29735 0.49638 -0.45500
O 	O 	0.26950 0.41203 0.32993 -0.30200
O 	O 	0.41720 0.50180 0.32561 -0.48500
O 	O 	0.43737 0.46346 0.30995 -0.49700
Co	Co	0.49792 0.48916 0.30568 1.09500
Co	Co	0.47324 0.55176 0.33807 1.05300
Co	Co	0.16875 0.32457 0.52765 1.09500
Co	Co	0.19342 0.41185 0.49526 1.05300
C 	C 	0.63955 0.76451 0.53683 0.36500
C 	C 	0.62864 0.72352 0.54039 -0.06000
C 	C 	0.65164 0.71475 0.55476 -0.07700
H 	H 	0.67133 0.73487 0.56357 0.06300
C 	C 	0.64526 0.67607 0.55592 0.04900
H 	H 	0.66063 0.67017 0.56557 0.00200
C 	C 	0.61580 0.64608 0.54262 -0.20900
H 	H 	0.61153 0.62017 0.54337 0.09600
C 	C 	0.59294 0.65487 0.52829 0.23900
C 	C 	0.59919 0.69346 0.52713 -0.15700
H 	H 	0.58373 0.69927 0.51757 0.04800
C 	C 	0.53985 0.62878 0.50184 0.28900
H 	H 	0.52303 0.63677 0.50987 -0.08300
H 	H 	0.55513 0.64887 0.49057 -0.08800
C 	C 	0.51422 0.58748 0.49071 -0.46200
C 	C 	0.48469 0.55659 0.50311 0.54300
C 	C 	0.46597 0.51936 0.49363 -0.46500
C 	C 	0.47216 0.51288 0.47175 0.57100
C 	C 	0.50052 0.54473 0.45938 -0.46300
C 	C 	0.52399 0.58322 0.46932 0.52300
C 	C 	0.55776 0.61620 0.45648 -1.03200
H 	H 	0.57963 0.63177 0.46657 0.33100
H 	H 	0.56643 0.60497 0.44487 0.33400
H 	H 	0.54893 0.63307 0.44977 0.30800
C 	C 	0.47305 0.56267 0.52644 -1.07100
H 	H 	0.46943 0.58547 0.52647 0.33700
H 	H 	0.44853 0.53937 0.53077 0.35200
H 	H 	0.49373 0.56687 0.53687 0.34100
C 	C 	0.44961 0.47231 0.46152 -1.11300
H 	H 	0.42543 0.45637 0.46987 0.37000
H 	H 	0.44313 0.47457 0.44617 0.35400
H 	H 	0.46573 0.45977 0.46187 0.36000
C 	C 	0.43746 0.48338 0.50729 0.25000
H 	H 	0.44403 0.48837 0.52317 -0.04300
H 	H 	0.43943 0.46027 0.50277 -0.04400
C 	C 	0.36742 0.44255 0.51396 0.23900
C 	C 	0.37474 0.41766 0.52751 -0.24300
H 	H 	0.40093 0.42377 0.53037 0.11600
C 	C 	0.34374 0.38449 0.53665 0.08800
H 	H 	0.34863 0.36697 0.54497 -0.02200
C 	C 	0.30489 0.37637 0.53369 -0.10800
H 	H 	0.28373 0.35447 0.54067 0.05600
C 	C 	0.29800 0.40220 0.51987 -0.02800
C 	C 	0.32966 0.43499 0.51034 -0.17600
H 	H 	0.32523 0.45217 0.50137 0.09300
C 	C 	0.25609 0.39306 0.51603 0.38400
C 	C 	0.50921 0.53890 0.43555 0.33000
H 	H 	0.52043 0.56407 0.42757 -0.09400
H 	H 	0.48453 0.51997 0.42807 -0.09100
C 	C 	0.54322 0.51248 0.41531 0.25100
C 	C 	0.56986 0.49726 0.41605 -0.23100
H 	H 	0.58163 0.49677 0.42967 0.10300
C 	C 	0.57820 0.48346 0.39723 0.08000
H 	H 	0.59513 0.47287 0.39797 -0.01700
C 	C 	0.56154 0.48499 0.37656 -0.11200
H 	H 	0.56873 0.47707 0.36347 0.06600
C 	C 	0.53425 0.49846 0.37577 -0.01400
C 	C 	0.52664 0.51255 0.39521 -0.19600
H 	H 	0.50923 0.52257 0.39457 0.08800
C 	C 	0.51605 0.50033 0.35437 0.35500
O 	O 	0.66945 0.79200 0.54717 -0.42900
O 	O 	0.62301 0.77482 0.52295 -0.54000
O 	O 	0.56591 0.62431 0.51711 -0.32000
O 	O 	0.53604 0.52467 0.43490 -0.32900
O 	O 	0.49197 0.51306 0.35534 -0.46900
O 	O 	0.52547 0.48949 0.33696 -0.45500
O 	O 	0.39716 0.47586 0.50341 -0.30200
O 	O 	0.24946 0.41793 0.50773 -0.48500
O 	O 	0.22929 0.35942 0.52339 -0.49700
Co	Co	0.99124 0.50208 0.30568 1.09500
Co	Co	0.07852 0.52676 0.33807 1.05300
C 	C 	0.43117 0.97289 0.29651 0.36500
C 	C 	0.39018 0.96198 0.29295 -0.06000
C 	C 	0.38141 0.98498 0.27858 -0.07700
H 	H 	0.40153 0.00467 0.26977 0.06300
C 	C 	0.34273 0.97860 0.27742 0.04900
H 	H 	0.33683 0.99397 0.26777 0.00200
C 	C 	0.31274 0.94914 0.29072 -0.20900
H 	H 	0.28683 0.94487 0.28997 0.09600
C 	C 	0.32153 0.92628 0.30505 0.23900
C 	C 	0.36012 0.93253 0.30621 -0.15700
H 	H 	0.36593 0.91707 0.31577 0.04800
C 	C 	0.29544 0.87319 0.33150 0.28900
H 	H 	0.30343 0.85637 0.32347 -0.08300
H 	H 	0.31553 0.88847 0.34277 -0.08800
C 	C 	0.25414 0.84756 0.34263 -0.46200
C 	C 	0.22325 0.81803 0.33023 0.54300
C 	C 	0.18602 0.79931 0.33971 -0.46500
C 	C 	0.17954 0.80550 0.36159 0.57100
C 	C 	0.21139 0.83386 0.37396 -0.46300
C 	C 	0.24988 0.85733 0.36402 0.52300
C 	C 	0.28286 0.89110 0.37686 -1.03200
H 	H 	0.29843 0.91297 0.36677 0.33100
H 	H 	0.27163 0.89977 0.38847 0.33400
H 	H 	0.29973 0.88227 0.38357 0.30800
C 	C 	0.22933 0.80639 0.30690 -1.07100
H 	H 	0.25213 0.80277 0.30687 0.33700
H 	H 	0.20603 0.78187 0.30257 0.35200
H 	H 	0.23353 0.82707 0.29647 0.34100
C 	C 	0.13897 0.78295 0.37182 -1.11300
H 	H 	0.12303 0.75877 0.36347 0.37000
H 	H 	0.14123 0.77647 0.38717 0.35400
H 	H 	0.12643 0.79907 0.37147 0.36000
C 	C 	0.15004 0.77080 0.32605 0.25000
H 	H 	0.15503 0.77737 0.31017 -0.04300
H 	H 	0.12693 0.77277 0.33057 -0.04400
C 	C 	0.10921 0.70076 0.31938 0.23900
C 	C 	0.08432 0.70808 0.30583 -0.24300
H 	H 	0.09043 0.73427 0.30297 0.11600
C 	C 	0.05115 0.67708 0.29669 0.08800
H 	H 	0.03363 0.68197 0.28837 -0.02200
C 	C 	0.04303 0.63823 0.29965 -0.10800
H 	H 	0.02113 0.61707 0.29267 0.05600
C 	C 	0.06886 0.63134 0.31347 -0.02800
C 	C 	0.10165 0.66300 0.32300 -0.17600
H 	H 	0.11883 0.65857 0.33197 0.09300
C 	C 	0.05972 0.58943 0.31731 0.38400
C 	C 	0.20556 0.84255 0.39779 0.33000
H 	H 	0.23073 0.85377 0.40577 -0.09400
H 	H 	0.18663 0.81787 0.40527 -0.09100
C 	C 	0.17914 0.87656 0.41803 0.25100
C 	C 	0.16392 0.90320 0.41729 -0.23100
H 	H 	0.16343 0.91497 0.40367 0.10300
C 	C 	0.15012 0.91154 0.43611 0.08000
H 	H 	0.13953 0.92847 0.43537 -0.01700
C 	C 	0.15165 0.89488 0.45678 -0.11200
H 	H 	0.14373 0.90207 0.46987 0.06600
C 	C 	0.16512 0.86759 0.45757 -0.01400
C 	C 	0.17921 0.85998 0.43813 -0.19600
H 	H 	0.18923 0.84257 0.43877 0.08800
C 	C 	0.16699 0.84939 0.47897 0.35500
O 	O 	0.45866 0.00279 0.28617 -0.42900
O 	O 	0.44148 0.95635 0.31039 -0.54000
O 	O 	0.29097 0.89925 0.31623 -0.32000
O 	O 	0.19133 0.86938 0.39844 -0.32900
O 	O 	0.17972 0.82531 0.47800 -0.46900
O 	O 	0.15615 0.85881 0.49638 -0.45500
O 	O 	0.14252 0.73050 0.32993 -0.30200
O 	O 	0.08459 0.58280 0.32561 -0.48500
O 	O 	0.02608 0.56263 0.30995 -0.49700
C 	C 	0.12495 0.36045 0.53683 0.36400
C 	C 	0.09487 0.37136 0.54039 -0.06000
C 	C 	0.06310 0.34836 0.55476 -0.07700
H 	H 	0.06353 0.32867 0.56357 0.06300
C 	C 	0.03080 0.35474 0.55592 0.04900
H 	H 	0.00953 0.33937 0.56557 0.00200
C 	C 	0.03027 0.38420 0.54262 -0.20900
H 	H 	0.00863 0.38847 0.54337 0.09600
C 	C 	0.06192 0.40706 0.52829 0.23900
C 	C 	0.09426 0.40081 0.52713 -0.15700
H 	H 	0.11553 0.41627 0.51757 0.04800
C 	C 	0.08892 0.46015 0.50184 0.28900
H 	H 	0.11373 0.47697 0.50987 -0.08300
H 	H 	0.09373 0.44487 0.49057 -0.08800
C 	C 	0.07325 0.48578 0.49071 -0.46200
C 	C 	0.07189 0.51531 0.50311 0.54300
C 	C 	0.05338 0.53403 0.49363 -0.46500
C 	C 	0.04071 0.52784 0.47175 0.57100
C 	C 	0.04420 0.49948 0.45938 -0.46300
C 	C 	0.05922 0.47601 0.46932 0.52300
C 	C 	0.05843 0.44224 0.45648 -1.03200
H 	H 	0.05213 0.42037 0.46657 0.33100
H 	H 	0.03853 0.43357 0.44487 0.33400
H 	H 	0.08413 0.45107 0.44977 0.30800
C 	C 	0.08961 0.52695 0.52644 -1.07100
H 	H 	0.11603 0.53057 0.52647 0.33700
H 	H 	0.09083 0.55147 0.53077 0.35200
H 	H 	0.07313 0.50627 0.53687 0.34100
C 	C 	0.02269 0.55039 0.46152 -1.11300
H 	H 	0.03093 0.57457 0.46987 0.37000
H 	H 	0.03143 0.55687 0.44617 0.35400
H 	H 	0.99403 0.53427 0.46187 0.36000
C 	C 	0.04591 0.56254 0.50729 0.25000
H 	H 	0.04433 0.55597 0.52317 -0.04300
H 	H 	0.02083 0.56057 0.50277 -0.04400
C 	C 	0.07512 0.63258 0.51396 0.23900
C 	C 	0.04291 0.62526 0.52751 -0.24300
H 	H 	0.02283 0.59907 0.53037 0.11600
C 	C 	0.04074 0.65626 0.53665 0.08800
H 	H 	0.01833 0.65137 0.54497 -0.02200
C 	C 	0.07147 0.69511 0.53369 -0.10800
H 	H 	0.07073 0.71627 0.54067 0.05600
C 	C 	0.10419 0.70200 0.51987 -0.02800
C 	C 	0.10532 0.67034 0.51034 -0.17600
H 	H 	0.12693 0.67477 0.50137 0.09300
C 	C 	0.13696 0.74391 0.51603 0.38400
C 	C 	0.02968 0.49079 0.43555 0.33000
H 	H 	0.04363 0.47957 0.42757 -0.09400
H 	H 	0.03543 0.51547 0.42807 -0.09100
C 	C 	0.96925 0.45678 0.41531 0.25100
C 	C 	0.92739 0.43014 0.41605 -0.23100
H 	H 	0.91513 0.41837 0.42967 0.10300
C 	C 	0.90525 0.42180 0.39723 0.08000
H 	H 	0.87773 0.40487 0.39797 -0.01700
C 	C 	0.92344 0.43846 0.37656 -0.11200
H 	H 	0.90833 0.43127 0.36347 0.06600
C 	C 	0.96420 0.46575 0.37577 -0.01400
C 	C 	0.98590 0.47336 0.39521 -0.19600
H 	H 	0.01333 0.49077 0.39457 0.08800
C 	C 	0.98427 0.48395 0.35437 0.35500
O 	O 	0.12254 0.33055 0.54717 -0.42900
O 	O 	0.15180 0.37699 0.52295 -0.54000
O 	O 	0.05839 0.43409 0.51711 -0.32000
O 	O 	0.98862 0.46396 0.43490 -0.32900
O 	O 	0.02108 0.50803 0.35534 -0.46900
O 	O 	0.96401 0.47453 0.33696 -0.45500
O 	O 	0.07869 0.60284 0.50341 -0.30200
O 	O 	0.16846 0.75054 0.50773 -0.48500
O 	O 	0.13012 0.77071 0.52339 -0.49700
Co	Co	0.15582 0.83125 0.52765 1.09500
Co	Co	0.21843 0.80658 0.49526 1.05300
C 	C 	0.20838 0.90216 0.62984 0.36500
C 	C 	0.23846 0.94315 0.62628 -0.06000
C 	C 	0.27023 0.95192 0.61191 -0.07700
H 	H 	0.26980 0.93180 0.60310 0.06300
C 	C 	0.30253 0.99060 0.61075 0.04900
H 	H 	0.32380 0.99650 0.60110 0.00200
C 	C 	0.30306 0.02059 0.62405 -0.20900
H 	H 	0.32470 0.04650 0.62330 0.09600
C 	C 	0.27141 0.01180 0.63838 0.23900
C 	C 	0.23907 0.97321 0.63954 -0.15700
H 	H 	0.21780 0.96740 0.64910 0.04800
C 	C 	0.24441 0.03789 0.66483 0.28900
H 	H 	0.21960 0.02990 0.65680 -0.08300
H 	H 	0.23960 0.01780 0.67610 -0.08800
C 	C 	0.26008 0.07919 0.67596 -0.46200
C 	C 	0.26144 0.11008 0.66356 0.54300
C 	C 	0.27995 0.14731 0.67304 -0.46500
C 	C 	0.29262 0.15379 0.69492 0.57100
C 	C 	0.28913 0.12194 0.70729 -0.46300
C 	C 	0.27411 0.08345 0.69735 0.52300
C 	C 	0.27490 0.05047 0.71019 -1.03200
H 	H 	0.28120 0.03490 0.70010 0.33100
H 	H 	0.29480 0.06170 0.72180 0.33400
H 	H 	0.24920 0.03360 0.71690 0.30800
C 	C 	0.24372 0.10400 0.64023 -1.07100
H 	H 	0.21730 0.08120 0.64020 0.33700
H 	H 	0.24250 0.12730 0.63590 0.35200
H 	H 	0.26020 0.09980 0.62980 0.34100
C 	C 	0.31064 0.19436 0.70515 -1.11300
H 	H 	0.30240 0.21030 0.69680 0.37000
H 	H 	0.30190 0.19210 0.72050 0.35400
H 	H 	0.33930 0.20690 0.70480 0.36000
C 	C 	0.28742 0.18329 0.65938 0.25000
H 	H 	0.28900 0.17830 0.64350 -0.04300
H 	H 	0.31250 0.20640 0.66390 -0.04400
C 	C 	0.25821 0.22412 0.65271 0.23900
C 	C 	0.29042 0.24901 0.63916 -0.24300
H 	H 	0.31050 0.24290 0.63630 0.11600
C 	C 	0.29259 0.28218 0.63002 0.08800
H 	H 	0.31500 0.29970 0.62170 -0.02200
C 	C 	0.26186 0.29030 0.63298 -0.10800
H 	H 	0.26260 0.31220 0.62600 0.05600
C 	C 	0.22914 0.26447 0.64680 -0.02800
C 	C 	0.22801 0.23168 0.65633 -0.17600
H 	H 	0.20640 0.21450 0.66530 0.09300
C 	C 	0.19637 0.27361 0.65064 0.38400
C 	C 	0.30365 0.12777 0.73112 0.33000
H 	H 	0.28970 0.10260 0.73910 -0.09400
H 	H 	0.29790 0.14670 0.73860 -0.09100
C 	C 	0.36408 0.15419 0.75136 0.25100
C 	C 	0.40594 0.16941 0.75062 -0.23100
H 	H 	0.41820 0.16990 0.73700 0.10300
C 	C 	0.42808 0.18321 0.76944 0.08000
H 	H 	0.45560 0.19380 0.76870 -0.01700
C 	C 	0.40989 0.18168 0.79011 -0.11200
H 	H 	0.42500 0.18960 0.80320 0.06600
C 	C 	0.36913 0.16821 0.79090 -0.01400
C 	C 	0.34743 0.15412 0.77146 -0.19600
H 	H 	0.32000 0.14410 0.77210 0.08800
C 	C 	0.34906 0.16634 0.81230 0.35500
O 	O 	0.21079 0.87467 0.61950 -0.42900
O 	O 	0.18153 0.89185 0.64372 -0.54000
O 	O 	0.27494 0.04236 0.64956 -0.32000
O 	O 	0.34471 0.14200 0.73177 -0.32900
O 	O 	0.31225 0.15361 0.81133 -0.46900
O 	O 	0.36932 0.17718 0.82971 -0.45500
O 	O 	0.25464 0.19081 0.66326 -0.30200
O 	O 	0.16487 0.24874 0.65894 -0.48500
O 	O 	0.20321 0.30725 0.64328 -0.49700
Co	Co	0.17751 0.34209 0.63901 1.09500
Co	Co	0.11490 0.25482 0.67140 1.05300
C 	C 	0.90216 0.20838 0.87016 0.36500
C 	C 	0.94315 0.23846 0.87372 -0.06000
C 	C 	0.95192 0.27023 0.88809 -0.07700
H 	H 	0.93180 0.26980 0.89690 0.06300
C 	C 	0.99060 0.30253 0.88925 0.04900
H 	H 	0.99650 0.32380 0.89890 0.00200
C 	C 	0.02059 0.30306 0.87595 -0.20900
H 	H 	0.04650 0.32470 0.87670 0.09600
C 	C 	0.01180 0.27141 0.86162 0.23900
C 	C 	0.97321 0.23907 0.86046 -0.15700
H 	H 	0.96740 0.21780 0.85090 0.04800
C 	C 	0.03789 0.24441 0.83517 0.28900
H 	H 	0.02990 0.21960 0.84320 -0.08300
H 	H 	0.01780 0.23960 0.82390 -0.08800
C 	C 	0.07919 0.26008 0.82404 -0.46200
C 	C 	0.11008 0.26144 0.83644 0.54300
C 	C 	0.14731 0.27995 0.82696 -0.46500
C 	C 	0.15379 0.29262 0.80508 0.57100
C 	C 	0.12194 0.28913 0.79271 -0.46300
C 	C 	0.08345 0.27411 0.80265 0.52300
C 	C 	0.05047 0.27490 0.78981 -1.03200
H 	H 	0.03490 0.28120 0.79990 0.33100
H 	H 	0.06170 0.29480 0.77820 0.33400
H 	H 	0.03360 0.24920 0.78310 0.30800
C 	C 	0.10400 0.24372 0.85977 -1.07100
H 	H 	0.08120 0.21730 0.85980 0.33700
H 	H 	0.12730 0.24250 0.86410 0.35200
H 	H 	0.09980 0.26020 0.87020 0.34100
C 	C 	0.19436 0.31064 0.79485 -1.11300
H 	H 	0.21030 0.30240 0.80320 0.37000
H 	H 	0.19210 0.30190 0.77950 0.35400
H 	H 	0.20690 0.33930 0.79520 0.36000
C 	C 	0.18329 0.28742 0.84062 0.25000
H 	H 	0.17830 0.28900 0.85650 -0.04300
H 	H 	0.20640 0.31250 0.83610 -0.04400
C 	C 	0.22412 0.25821 0.84729 0.23900
C 	C 	0.24901 0.29042 0.86084 -0.24300
H 	H 	0.24290 0.31050 0.86370 0.11600
C 	C 	0.28218 0.29259 0.86998 0.08800
H 	H 	0.29970 0.31500 0.87830 -0.02200
C 	C 	0.29030 0.26186 0.86702 -0.10800
H 	H 	0.31220 0.26260 0.87400 0.05600
C 	C 	0.26447 0.22914 0.85320 -0.02800
C 	C 	0.23168 0.22801 0.84367 -0.17600
H 	H 	0.21450 0.20640 0.83470 0.09300
C 	C 	0.27361 0.19637 0.84936 0.38400
C 	C 	0.12777 0.30365 0.76888 0.33000
H 	H 	0.10260 0.28970 0.76090 -0.09400
H 	H 	0.14670 0.29790 0.76140 -0.09100
C 	C 	0.15419 0.36408 0.74864 0.25100
C 	C 	0.16941 0.40594 0.74938 -0.23100
H 	H 	0.16990 0.41820 0.76300 0.10300
C 	C 	0.18321 0.42808 0.73056 0.08000
H 	H 	0.19380 0.45560 0.73130 -0.01700
C 	C 	0.18168 0.40989 0.70989 -0.11200
H 	H 	0.18960 0.42500 0.69680 0.06600
C 	C 	0.16821 0.36913 0.70910 -0.01400
C 	C 	0.15412 0.34743 0.72854 -0.19600
H 	H 	0.14410 0.32000 0.72790 0.08800
C 	C 	0.16634 0.34906 0.68770 0.35500
O 	O 	0.87467 0.21079 0.88050 -0.42900
O 	O 	0.89185 0.18153 0.85628 -0.54000
O 	O 	0.04236 0.27494 0.85044 -0.32000
O 	O 	0.14200 0.34471 0.76823 -0.32900
O 	O 	0.15361 0.31225 0.68867 -0.46900
O 	O 	0.17718 0.36932 0.67029 -0.45500
O 	O 	0.19081 0.25464 0.83674 -0.30200
O 	O 	0.24874 0.16487 0.84106 -0.48500
O 	O 	0.30725 0.20321 0.85672 -0.49700
Co	Co	0.34209 0.17751 0.86099 1.09500
Co	Co	0.25482 0.11490 0.82860 1.05300
C 	C 	0.87505 0.23549 0.96317 0.36400
C 	C 	0.90513 0.27648 0.95961 -0.06000
C 	C 	0.93690 0.28525 0.94524 -0.07700
H 	H 	0.93647 0.26513 0.93643 0.06300
C 	C 	0.96920 0.32393 0.94408 0.04900
H 	H 	0.99047 0.32983 0.93443 0.00200
C 	C 	0.96973 0.35392 0.95738 -0.20900
H 	H 	0.99137 0.37983 0.95663 0.09600
C 	C 	0.93808 0.34513 0.97171 0.23900
C 	C 	0.90574 0.30654 0.97287 -0.15700
H 	H 	0.88447 0.30073 0.98243 0.04800
C 	C 	0.91108 0.37122 0.99816 0.28900
H 	H 	0.88627 0.36323 0.99013 -0.08300
H 	H 	0.90627 0.35113 0.00943 -0.08800
C 	C 	0.92675 0.41252 0.00929 -0.46200
C 	C 	0.92811 0.44341 0.99689 0.54300
C 	C 	0.94662 0.48064 0.00637 -0.46500
C 	C 	0.95929 0.48712 0.02825 0.57100
C 	C 	0.95580 0.45527 0.04062 -0.46300
C 	C 	0.94078 0.41678 0.03068 0.52300
C 	C 	0.94157 0.38380 0.04352 -1.03200
H 	H 	0.94787 0.36823 0.03343 0.33100
H 	H 	0.96147 0.39503 0.05513 0.33400
H 	H 	0.91587 0.36693 0.05023 0.30800
C 	C 	0.91039 0.43733 0.97356 -1.07100
H 	H 	0.88397 0.41453 0.97353 0.33700
H 	H 	0.90917 0.46063 0.96923 0.35200
H 	H 	0.92687 0.43313 0.96313 0.34100
C 	C 	0.97731 0.52769 0.03848 -1.11300
H 	H 	0.96907 0.54363 0.03013 0.37000
H 	H 	0.96857 0.52543 0.05383 0.35400
H 	H 	0.00597 0.54023 0.03813 0.36000
C 	C 	0.95409 0.51662 0.99271 0.25000
H 	H 	0.95567 0.51163 0.97683 -0.04300
H 	H 	0.97917 0.53973 0.99723 -0.04400
C 	C 	0.92488 0.55745 0.98604 0.23900
C 	C 	0.95709 0.58234 0.97249 -0.24300
H 	H 	0.97717 0.57623 0.96963 0.11600
C 	C 	0.95926 0.61551 0.96335 0.08800
H 	H 	0.98167 0.63303 0.95503 -0.02200
C 	C 	0.92853 0.62363 0.96631 -0.10800
H 	H 	0.92927 0.64553 0.95933 0.05600
C 	C 	0.89581 0.59780 0.98013 -0.02800
C 	C 	0.89468 0.56501 0.98966 -0.17600
H 	H 	0.87307 0.54783 0.99863 0.09300
C 	C 	0.86304 0.60694 0.98397 0.38400
C 	C 	0.97032 0.46110 0.06445 0.33000
H 	H 	0.95637 0.43593 0.07243 -0.09400
H 	H 	0.96457 0.48003 0.07193 -0.09100
C 	C 	0.03075 0.48752 0.08469 0.25100
C 	C 	0.07261 0.50274 0.08395 -0.23100
H 	H 	0.08487 0.50323 0.07033 0.10300
C 	C 	0.09475 0.51654 0.10277 0.08000
H 	H 	0.12227 0.52713 0.10203 -0.01700
C 	C 	0.07656 0.51501 0.12344 -0.11200
H 	H 	0.09167 0.52293 0.13653 0.06600
C 	C 	0.03580 0.50154 0.12423 -0.01400
C 	C 	0.01410 0.48745 0.10479 -0.19600
H 	H 	0.98667 0.47743 0.10543 0.08800
C 	C 	0.01573 0.49967 0.14563 0.35500
O 	O 	0.87746 0.20800 0.95283 -0.42900
O 	O 	0.84820 0.22518 0.97705 -0.54000
O 	O 	0.94161 0.37569 0.98289 -0.32000
O 	O 	0.01138 0.47533 0.06510 -0.32900
O 	O 	0.97892 0.48694 0.14466 -0.46900
O 	O 	0.03599 0.51051 0.16304 -0.45500
O 	O 	0.92131 0.52414 0.99659 -0.30200
O 	O 	0.83154 0.58207 0.99227 -0.48500
O 	O 	0.86988 0.64058 0.97661 -0.49700
Co	Co	0.84418 0.67543 0.97235 1.09500
Co	Co	0.78157 0.58815 0.00474 1.05300
C 	C 	0.56883 0.54171 0.20349 0.36500
C 	C 	0.60982 0.57179 0.20705 -0.06000
C 	C 	0.61859 0.60356 0.22142 -0.07700
H 	H 	0.59847 0.60313 0.23023 0.06300
C 	C 	0.65727 0.63586 0.22258 0.04900
H 	H 	0.66317 0.65713 0.23223 0.00200
C 	C 	0.68726 0.63639 0.20928 -0.20900
H 	H 	0.71317 0.65803 0.21003 0.09600
C 	C 	0.67847 0.60474 0.19495 0.23900
C 	C 	0.63988 0.57240 0.19379 -0.15700
H 	H 	0.63407 0.55113 0.18423 0.04800
C 	C 	0.70456 0.57774 0.16850 0.28900
H 	H 	0.69657 0.55293 0.17653 -0.08300
H 	H 	0.68447 0.57293 0.15723 -0.08800
C 	C 	0.74586 0.59341 0.15737 -0.46200
C 	C 	0.77675 0.59477 0.16977 0.54300
C 	C 	0.81398 0.61328 0.16029 -0.46500
C 	C 	0.82046 0.62595 0.13841 0.57100
C 	C 	0.78861 0.62246 0.12604 -0.46300
C 	C 	0.75012 0.60744 0.13598 0.52300
C 	C 	0.71714 0.60823 0.12314 -1.03200
H 	H 	0.70157 0.61453 0.13323 0.33100
H 	H 	0.72837 0.62813 0.11153 0.33400
H 	H 	0.70027 0.58253 0.11643 0.30800
C 	C 	0.77067 0.57705 0.19310 -1.07100
H 	H 	0.74787 0.55063 0.19313 0.33700
H 	H 	0.79397 0.57583 0.19743 0.35200
H 	H 	0.76647 0.59353 0.20353 0.34100
C 	C 	0.86103 0.64397 0.12818 -1.11300
H 	H 	0.87697 0.63573 0.13653 0.37000
H 	H 	0.85877 0.63523 0.11283 0.35400
H 	H 	0.87357 0.67263 0.12853 0.36000
C 	C 	0.84996 0.62075 0.17395 0.25000
H 	H 	0.84497 0.62233 0.18983 -0.04300
H 	H 	0.87307 0.64583 0.16943 -0.04400
C 	C 	0.89079 0.59154 0.18062 0.23900
C 	C 	0.91568 0.62375 0.19417 -0.24300
H 	H 	0.90957 0.64383 0.19703 0.11600
C 	C 	0.94885 0.62592 0.20331 0.08800
H 	H 	0.96637 0.64833 0.21163 -0.02200
C 	C 	0.95697 0.59519 0.20035 -0.10800
H 	H 	0.97887 0.59593 0.20733 0.05600
C 	C 	0.93114 0.56247 0.18653 -0.02800
C 	C 	0.89835 0.56134 0.17700 -0.17600
H 	H 	0.88117 0.53973 0.16803 0.09300
C 	C 	0.94028 0.52970 0.18269 0.38400
C 	C 	0.79444 0.63698 0.10221 0.33000
H 	H 	0.76927 0.62303 0.09423 -0.09400
H 	H 	0.81337 0.63123 0.09473 -0.09100
C 	C 	0.82086 0.69741 0.08197 0.25100
C 	C 	0.83608 0.73927 0.08271 -0.23100
H 	H 	0.83657 0.75153 0.09633 0.10300
C 	C 	0.84988 0.76141 0.06389 0.08000
H 	H 	0.86047 0.78893 0.06463 -0.01700
C 	C 	0.84835 0.74322 0.04322 -0.11200
H 	H 	0.85627 0.75833 0.03013 0.06600
C 	C 	0.83488 0.70246 0.04243 -0.01400
C 	C 	0.82079 0.68076 0.06187 -0.19600
H 	H 	0.81077 0.65333 0.06123 0.08800
C 	C 	0.83301 0.68239 0.02103 0.35500
O 	O 	0.54134 0.54412 0.21383 -0.42900
O 	O 	0.55852 0.51486 0.18961 -0.54000
O 	O 	0.70903 0.60827 0.18377 -0.32000
O 	O 	0.80867 0.67804 0.10156 -0.32900
O 	O 	0.82028 0.64558 0.02200 -0.46900
O 	O 	0.84385 0.70265 0.00362 -0.45500
O 	O 	0.85748 0.58797 0.17007 -0.30200
O 	O 	0.91541 0.49820 0.17439 -0.48500
O 	O 	0.97392 0.53654 0.19005 -0.49700
Co	Co	0.00876 0.51084 0.19432 1.09500
Co	Co	0.92148 0.44824 0.16193 1.05300
C 	C 	0.54171 0.56883 0.29651 0.36500
C 	C 	0.57179 0.60982 0.29295 -0.06000
C 	C 	0.60356 0.61859 0.27858 -0.07700
H 	H 	0.60313 0.59847 0.26977 0.06300
C 	C 	0.63586 0.65727 0.27742 0.04900
H 	H 	0.65713 0.66317 0.26777 0.00200
C 	C 	0.63639 0.68726 0.29072 -0.20900
H 	H 	0.65803 0.71317 0.28997 0.09600
C 	C 	0.60474 0.67847 0.30505 0.23900
C 	C 	0.57240 0.63988 0.30621 -0.15700
H 	H 	0.55113 0.63407 0.31577 0.04800
C 	C 	0.57774 0.70456 0.33150 0.28900
H 	H 	0.55293 0.69657 0.32347 -0.08300
H 	H 	0.57293 0.68447 0.34277 -0.08800
C 	C 	0.59341 0.74586 0.34263 -0.46200
C 	C 	0.59477 0.77675 0.33023 0.54300
C 	C 	0.61328 0.81398 0.33971 -0.46500
C 	C 	0.62595 0.82046 0.36159 0.57100
C 	C 	0.62246 0.78861 0.37396 -0.46300
C 	C 	0.60744 0.75012 0.36402 0.52300
C 	C 	0.60823 0.71714 0.37686 -1.03200
H 	H 	0.61453 0.70157 0.36677 0.33100
H 	H 	0.62813 0.72837 0.38847 0.33400
H 	H 	0.58253 0.70027 0.38357 0.30800
C 	C 	0.57705 0.77067 0.30690 -1.07100
H 	H 	0.55063 0.74787 0.30687 0.33700
H 	H 	0.57583 0.79397 0.30257 0.35200
H 	H 	0.59353 0.76647 0.29647 0.34100
C 	C 	0.64397 0.86103 0.37182 -1.11300
H 	H 	0.63573 0.87697 0.36347 0.37000
H 	H 	0.63523 0.85877 0.38717 0.35400
H 	H 	0.67263 0.87357 0.37147 0.36000
C 	C 	0.62075 0.84996 0.32605 0.25000
H 	H 	0.62233 0.84497 0.31017 -0.04300
H 	H 	0.64583 0.87307 0.33057 -0.04400
C 	C 	0.59154 0.89079 0.31938 0.23900
C 	C 	0.62375 0.91568 0.30583 -0.24300
H 	H 	0.64383 0.90957 0.30297 0.11600
C 	C 	0.62592 0.94885 0.29669 0.08800
H 	H 	0.64833 0.96637 0.28837 -0.02200
C 	C 	0.59519 0.95697 0.29965 -0.10800
H 	H 	0.59593 0.97887 0.29267 0.05600
C 	C 	0.56247 0.93114 0.31347 -0.02800
C 	C 	0.56134 0.89835 0.32300 -0.17600
H 	H 	0.53973 0.88117 0.33197 0.09300
C 	C 	0.52970 0.94028 0.31731 0.38400
C 	C 	0.63698 0.79444 0.39779 0.33000
H 	H 	0.62303 0.76927 0.40577 -0.09400
H 	H 	0.63123 0.81337 0.40527 -0.09100
C 	C 	0.69741 0.82086 0.41803 0.25100
C 	C 	0.73927 0.83608 0.41729 -0.23100
H 	H 	0.75153 0.83657 0.40367 0.10300
C 	C 	0.76141 0.84988 0.43611 0.08000
H 	H 	0.78893 0.86047 0.43537 -0.01700
C 	C 	0.74322 0.84835 0.45678 -0.11200
H 	H 	0.75833 0.85627 0.46987 0.06600
C 	C 	0.70246 0.83488 0.45757 -0.01400
C 	C 	0.68076 0.82079 0.43813 -0.19600
H 	H 	0.65333 0.81077 0.43877 0.08800
C 	C 	0.68239 0.83301 0.47897 0.35500
O 	O 	0.54412 0.54134 0.28617 -0.42900
O 	O 	0.51486 0.55852 0.31039 -0.54000
O 	O 	0.60827 0.70903 0.31623 -0.32000
O 	O 	0.67804 0.80867 0.39844 -0.32900
O 	O 	0.64558 0.82028 0.47800 -0.46900
O 	O 	0.70265 0.84385 0.49638 -0.45500
O 	O 	0.58797 0.85748 0.32993 -0.30200
O 	O 	0.49820 0.91541 0.32561 -0.48500
O 	O 	0.53654 0.97392 0.30995 -0.49700
Co	Co	0.51084 0.00876 0.30568 1.09500
Co	Co	0.44824 0.92148 0.33807 1.05300
C 	C 	0.23549 0.87505 0.53683 0.36400
C 	C 	0.27648 0.90513 0.54039 -0.06000
C 	C 	0.28525 0.93690 0.55476 -0.07700
H 	H 	0.26513 0.93647 0.56357 0.06300
C 	C 	0.32393 0.96920 0.55592 0.04900
H 	H 	0.32983 0.99047 0.56557 0.00200
C 	C 	0.35392 0.96973 0.54262 -0.20900
H 	H 	0.37983 0.99137 0.54337 0.09600
C 	C 	0.34513 0.93808 0.52829 0.23900
C 	C 	0.30654 0.90574 0.52713 -0.15700
H 	H 	0.30073 0.88447 0.51757 0.04800
C 	C 	0.37122 0.91108 0.50184 0.28900
H 	H 	0.36323 0.88627 0.50987 -0.08300
H 	H 	0.35113 0.90627 0.49057 -0.08800
C 	C 	0.41252 0.92675 0.49071 -0.46200
C 	C 	0.44341 0.92811 0.50311 0.54300
C 	C 	0.48064 0.94662 0.49363 -0.46500
C 	C 	0.48712 0.95929 0.47175 0.57100
C 	C 	0.45527 0.95580 0.45938 -0.46300
C 	C 	0.41678 0.94078 0.46932 0.52300
C 	C 	0.38380 0.94157 0.45648 -1.03200
H 	H 	0.36823 0.94787 0.46657 0.33100
H 	H 	0.39503 0.96147 0.44487 0.33400
H 	H 	0.36693 0.91587 0.44977 0.30800
C 	C 	0.43733 0.91039 0.52644 -1.07100
H 	H 	0.41453 0.88397 0.52647 0.33700
H 	H 	0.46063 0.90917 0.53077 0.35200
H 	H 	0.43313 0.92687 0.53687 0.34100
C 	C 	0.52769 0.97731 0.46152 -1.11300
H 	H 	0.54363 0.96907 0.46987 0.37000
H 	H 	0.52543 0.96857 0.44617 0.35400
H 	H 	0.54023 0.00597 0.46187 0.36000
C 	C 	0.51662 0.95409 0.50729 0.25000
H 	H 	0.51163 0.95567 0.52317 -0.04300
H 	H 	0.53973 0.97917 0.50277 -0.04400
C 	C 	0.55745 0.92488 0.51396 0.23900
C 	C 	0.58234 0.95709 0.52751 -0.24300
H 	H 	0.57623 0.97717 0.53037 0.11600
C 	C 	0.61551 0.95926 0.53665 0.08800
H 	H 	0.63303 0.98167 0.54497 -0.02200
C 	C 	0.62363 0.92853 0.53369 -0.10800
H 	H 	0.64553 0.92927 0.54067 0.05600
C 	C 	0.59780 0.89581 0.51987 -0.02800
C 	C 	0.56501 0.89468 0.51034 -0.17600
H 	H 	0.54783 0.87307 0.50137 0.09300
C 	C 	0.60694 0.86304 0.51603 0.38400
C 	C 	0.46110 0.97032 0.43555 0.33000
H 	H 	0.43593 0.95637 0.42757 -0.09400
H 	H 	0.48003 0.96457 0.42807 -0.09100
C 	C 	0.48752 0.03075 0.41531 0.25100
C 	C 	0.50274 0.07261 0.41605 -0.23100
H 	H 	0.50323 0.08487 0.42967 0.10300
C 	C 	0.51654 0.09475 0.39723 0.08000
H 	H 	0.52713 0.12227 0.39797 -0.01700
C 	C 	0.51501 0.07656 0.37656 -0.11200
H 	H 	0.52293 0.09167 0.36347 0.06600
C 	C 	0.50154 0.03580 0.37577 -0.01400
C 	C 	0.48745 0.01410 0.39521 -0.19600
H 	H 	0.47743 0.98667 0.39457 0.08800
C 	C 	0.49967 0.01573 0.35437 0.35500
O 	O 	0.20800 0.87746 0.54717 -0.42900
O 	O 	0.22518 0.84820 0.52295 -0.54000
O 	O 	0.37569 0.94161 0.51711 -0.32000
O 	O 	0.47533 0.01138 0.43490 -0.32900
O 	O 	0.48694 0.97892 0.35534 -0.46900
O 	O 	0.51051 0.03599 0.33696 -0.45500
O 	O 	0.52414 0.92131 0.50341 -0.30200
O 	O 	0.58207 0.83154 0.50773 -0.48500
O 	O 	0.64058 0.86988 0.52339 -0.49700
Co	Co	0.67543 0.84418 0.52765 1.09500
Co	Co	0.58815 0.78157 0.49526 1.05300
